
###############################################################################
#
# This file contains modified crystal structure data generated from the
# MOF subset of the Cambridge Structural Database (CSD) v543 
# hosted by the Cambridge Crystallographic Data Centre (CCDC).
#
# This work is licensed under the Creative Commons
# Attribution-NonCommercial-ShareAlike 4.0 International License.
# To view a copy of this license, visit
# http://creativecommons.org/licenses/by-nc-sa/4.0/
# or send a letter to
# Creative Commons, PO Box 1866, Mountain View, CA 94042, USA.
#
# CIF created using the CSD Python API on 29 September 2022
# The structure has been converted into the P1 space group
# The structure has a 3D framework
# The original CSD entry QIKVAK is in the monoclinic crystal system
# The framework has been calculated to contain at least 10.0% void space
# The void calculation uses a probe of radius 1.32A, grid spacing 0.4
#
###############################################################################

data_QIKVAK
_chemical_formula_moiety         '(C224 H208 N16 O48 Sr8)n'
_symmetry_cell_setting           triclinic
_symmetry_space_group_name_H-M   'P 1'
_symmetry_Int_Tables_number      1
_space_group_name_Hall           'P 1'
loop_
_symmetry_equiv_pos_site_id
_symmetry_equiv_pos_as_xyz
1 x,y,z
_cell_length_a                   8.0263(3)
_cell_length_b                   29.5421(6)
_cell_length_c                   27.4426(7)
_cell_angle_alpha                90
_cell_angle_beta                 96.363(6)
_cell_angle_gamma                90
_cell_volume                     6466.93
loop_
_atom_site_label
_atom_site_type_symbol
_atom_site_fract_x
_atom_site_fract_y
_atom_site_fract_z
Sr3 Sr 0.17800(9) 0.38216(2) 0.02490(2)
Sr1 Sr 0.17800(9) 0.61784(2) 0.52490(2)
N1 N 0.6656(9) 0.38175(19) 0.7115(2)
O1 O 0.3044(10) 0.5477(2) 0.5295(2)
N2 N 0.6498(11) 0.1798(2) 0.5744(2)
O5 O 0.3125(12) 0.5804(2) 0.6014(3)
O6 O 0.4312(11) 0.6534(3) 0.5074(3)
H2 H 0.334130 0.673261 0.497069
C1 C 0.6023(10) 0.3804(2) 0.6640(3)
C2 C 0.7210(10) 0.3436(2) 0.7331(2)
C3 C 0.5973(11) 0.3409(2) 0.6373(3)
H3 H 0.554816 0.340964 0.604318
C4 C 0.6556(10) 0.3010(2) 0.6594(3)
C5 C 0.7940(10) 0.3471(2) 0.7851(2)
C6 C 0.5412(10) 0.4242(2) 0.6415(3)
C7 C 0.7187(11) 0.3022(2) 0.7090(3)
H4 H 0.758124 0.276119 0.725272
C8 C 0.6523(11) 0.2582(2) 0.6301(3)
C9 C 0.4140(11) 0.5046(3) 0.5989(3)
C10 C 0.9410(11) 0.3588(3) 0.8815(3)
C11 C 0.4667(13) 0.4706(3) 0.5703(3)
H5 H 0.456825 0.474095 0.536456
C12 C 0.5357(12) 0.4304(3) 0.5917(3)
H6 H 0.577306 0.408276 0.572201
C13 C 0.3395(13) 0.5470(3) 0.5749(3)
C14 C 0.8087(14) 0.3115(3) 0.8172(3)
H7 H 0.769378 0.283059 0.806819
C16 C 0.8814(13) 0.3173(3) 0.8647(3)
H8 H 0.890482 0.292629 0.885810
C17 C 0.6770(13) 0.2596(3) 0.5811(3)
H9 H 0.699875 0.286700 0.566056
C18 C 0.4217(14) 0.4985(3) 0.6478(3)
H10 H 0.383001 0.521188 0.667234
C19 C 0.4873(13) 0.4585(3) 0.6698(3)
H11 H 0.494381 0.455149 0.703618
C20 C 0.6668(14) 0.2197(3) 0.5553(3)
H12 H 0.672530 0.221296 0.521713
C21 C 0.9289(16) 0.3945(3) 0.8499(3)
H13 H 0.971917 0.422522 0.860329
C22 C 0.8527(17) 0.3893(3) 0.8022(3)
H14 H 0.840643 0.414262 0.781486
C23 C 0.6276(16) 0.1779(3) 0.6211(3)
H15 H 0.615098 0.149692 0.635257
C24 C 0.6218(16) 0.2168(3) 0.6506(3)
H16 H 0.598114 0.214581 0.682884
C25 C 0.580(2) 0.6446(6) 0.5096(7)
H17 H 0.599213 0.631554 0.478300
H18 H 0.601865 0.620822 0.533896
C26 C 0.7046(17) 0.6779(8) 0.5206(7)
H19 H 0.719071 0.683258 0.555331
H20 H 0.670900 0.705404 0.503780
H21 H 0.808442 0.667546 0.510244
Sr2 Sr 0.67800(9) 0.11784(2) 0.52490(2)
O7 O 0.0284(11) 0.6668(3) 0.4625(2)
N3 N 0.1498(11) 0.6798(2) 0.5744(2)
O8 O 0.0823(11) 0.5964(3) 0.4456(2)
Sr3_2 Sr 0.67800(9) 0.88216(2) 0.02490(2)
N1_2 N 0.1656(9) 0.88175(19) 0.7115(2)
O2 O 0.5284(11) 0.8332(3) 0.9625(2)
O4 O 0.5823(11) 0.9036(3) 0.9456(2)
C1_2 C 0.1023(10) 0.8804(2) 0.6640(3)
C2_2 C 0.2210(10) 0.8436(2) 0.7331(2)
C3_2 C 0.0973(11) 0.8409(2) 0.6373(3)
H3_2 H 0.054816 0.840964 0.604318
C4_2 C 0.1556(10) 0.8010(2) 0.6594(3)
C5_2 C 0.2940(10) 0.8471(2) 0.7851(2)
C6_2 C 0.0412(10) 0.9242(2) 0.6415(3)
C7_2 C 0.2187(11) 0.8022(2) 0.7090(3)
H4_2 H 0.258124 0.776119 0.725272
C8_2 C 0.1523(11) 0.7582(2) 0.6301(3)
C10_2 C 0.4410(11) 0.8588(3) 0.8815(3)
C12_2 C 0.0357(12) 0.9304(3) 0.5917(3)
H6_2 H 0.077306 0.908276 0.572201
C14_2 C 0.3087(14) 0.8115(3) 0.8172(3)
H7_2 H 0.269378 0.783059 0.806819
C15 C 0.5187(13) 0.8650(4) 0.9333(3)
C16_2 C 0.3814(13) 0.8173(3) 0.8647(3)
H8_2 H 0.390482 0.792629 0.885810
C17_2 C 0.1770(13) 0.7596(3) 0.5811(3)
H9_2 H 0.199875 0.786700 0.566056
C20_2 C 0.1668(14) 0.7197(3) 0.5553(3)
H12_2 H 0.172530 0.721296 0.521713
C21_2 C 0.4289(16) 0.8945(3) 0.8499(3)
H13_2 H 0.471917 0.922522 0.860329
C22_2 C 0.3527(17) 0.8893(3) 0.8022(3)
H14_2 H 0.340643 0.914262 0.781486
C23_2 C 0.1276(16) 0.6779(3) 0.6211(3)
H15_2 H 0.115098 0.649692 0.635257
C24_2 C 0.1218(16) 0.7168(3) 0.6506(3)
H16_2 H 0.098114 0.714581 0.682884
O1_2 O 0.8044(10) 0.0477(2) 0.5295(2)
O3 O 0.4286(10) 0.0843(2) 0.5482(3)
H1 H 0.353557 0.109446 0.555968
O5_2 O 0.8125(12) 0.0804(2) 0.6014(3)
O6_2 O 0.9312(11) 0.1534(3) 0.5074(3)
H2_2 H 0.834130 0.173261 0.497069
C9_2 C 0.9140(11) 0.0046(3) 0.5989(3)
C13_2 C 0.8395(13) 0.0470(3) 0.5749(3)
H10_2 H 0.883001 0.021188 0.667234
C27 C 0.3714(17) 0.0108(3) 0.5765(7)
H23 H 0.339496 0.027027 0.604316
C28 C 0.3882(18) 0.0451(5) 0.5327(6)
H25 H 0.472408 0.034029 0.512931
H26 H 0.282251 0.046680 0.512032
O7_2 O 0.5284(11) 0.1668(3) 0.4625(2)
O8_2 O 0.5823(11) 0.0964(3) 0.4456(2)
C15_2 C 0.0187(13) 0.6350(4) 0.4333(3)
N1_3 N 0.6656(9) 0.61825(19) 0.2115(2)
O1_3 O 0.3044(10) 0.4523(2) 0.0295(2)
N2_2 N 0.6498(11) 0.8202(2) 0.0744(2)
O5_3 O 0.3125(12) 0.4196(2) 0.1014(3)
O6_3 O 0.4312(11) 0.3466(3) 0.0074(3)
C1_3 C 0.6023(10) 0.6196(2) 0.1640(3)
C2_3 C 0.7210(10) 0.6564(2) 0.2331(2)
C3_3 C 0.5973(11) 0.6591(2) 0.1373(3)
H3_3 H 0.554816 0.659036 0.104318
C4_3 C 0.6556(10) 0.6990(2) 0.1594(3)
C5_3 C 0.7940(10) 0.6529(2) 0.2851(2)
C6_3 C 0.5412(10) 0.5758(2) 0.1415(3)
C7_3 C 0.7187(11) 0.6978(2) 0.2090(3)
H4_3 H 0.758124 0.723881 0.225272
C8_3 C 0.6523(11) 0.7418(2) 0.1301(3)
C9_3 C 0.4140(11) 0.4954(3) 0.0989(3)
C10_3 C 0.9410(11) 0.6412(3) 0.3815(3)
C11_2 C 0.4667(13) 0.5294(3) 0.0703(3)
H5_2 H 0.456825 0.525905 0.036456
C12_3 C 0.5357(12) 0.5696(3) 0.0917(3)
H6_3 H 0.577306 0.591724 0.072201
C13_3 C 0.3395(13) 0.4530(3) 0.0749(3)
C14_3 C 0.8087(14) 0.6885(3) 0.3172(3)
H7_3 H 0.769378 0.716941 0.306819
C16_3 C 0.8814(13) 0.6827(3) 0.3647(3)
H8_3 H 0.890482 0.707371 0.385810
C17_3 C 0.6770(13) 0.7404(3) 0.0811(3)
H9_3 H 0.699875 0.713300 0.066056
C18_2 C 0.4217(14) 0.5015(3) 0.1478(3)
H10_3 H 0.383001 0.478812 0.167234
C19_2 C 0.4873(13) 0.5415(3) 0.1698(3)
H11_2 H 0.494381 0.544851 0.203618
C20_3 C 0.6668(14) 0.7803(3) 0.0553(3)
H12_3 H 0.672530 0.778704 0.021713
C21_3 C 0.9289(16) 0.6055(3) 0.3499(3)
H13_3 H 0.971917 0.577478 0.360329
C22_3 C 0.8527(17) 0.6107(3) 0.3022(3)
H14_3 H 0.840643 0.585738 0.281486
C23_3 C 0.6276(16) 0.8221(3) 0.1211(3)
H15_3 H 0.615098 0.850308 0.135257
C24_3 C 0.6218(16) 0.7832(3) 0.1506(3)
H16_3 H 0.598114 0.785419 0.182884
C25_2 C 0.580(2) 0.3554(6) 0.0096(7)
H18_2 H 0.601865 0.379178 0.033896
C26_2 C 0.7046(17) 0.3221(8) 0.0206(7)
H19_2 H 0.719071 0.316742 0.055331
H20_2 H 0.670900 0.294596 0.003780
H21_2 H 0.808442 0.332454 0.010244
N3_2 N 0.1498(11) 0.3202(2) 0.0744(2)
N1_4 N 0.1656(9) 0.11825(19) 0.2115(2)
C1_4 C 0.1023(10) 0.1196(2) 0.1640(3)
C2_4 C 0.2210(10) 0.1564(2) 0.2331(2)
C3_4 C 0.0973(11) 0.1591(2) 0.1373(3)
H3_4 H 0.054816 0.159036 0.104318
C4_4 C 0.1556(10) 0.1990(2) 0.1594(3)
C5_4 C 0.2940(10) 0.1529(2) 0.2851(2)
C6_4 C 0.0412(10) 0.0758(2) 0.1415(3)
C7_4 C 0.2187(11) 0.1978(2) 0.2090(3)
H4_4 H 0.258124 0.223881 0.225272
C8_4 C 0.1523(11) 0.2418(2) 0.1301(3)
C10_4 C 0.4410(11) 0.1412(3) 0.3815(3)
C12_4 C 0.0357(12) 0.0696(3) 0.0917(3)
H6_4 H 0.077306 0.091724 0.072201
C14_4 C 0.3087(14) 0.1885(3) 0.3172(3)
H7_4 H 0.269378 0.216941 0.306819
C15_3 C 0.5187(13) 0.1350(4) 0.4333(3)
C16_4 C 0.3814(13) 0.1827(3) 0.3647(3)
H8_4 H 0.390482 0.207371 0.385810
C17_4 C 0.1770(13) 0.2404(3) 0.0811(3)
H9_4 H 0.199875 0.213300 0.066056
C20_4 C 0.1668(14) 0.2803(3) 0.0553(3)
H12_4 H 0.172530 0.278704 0.021713
C21_4 C 0.4289(16) 0.1055(3) 0.3499(3)
H13_4 H 0.471917 0.077478 0.360329
C22_4 C 0.3527(17) 0.1107(3) 0.3022(3)
H14_4 H 0.340643 0.085738 0.281486
C23_4 C 0.1276(16) 0.3221(3) 0.1211(3)
H15_4 H 0.115098 0.350308 0.135257
C24_4 C 0.1218(16) 0.2832(3) 0.1506(3)
H16_4 H 0.098114 0.285419 0.182884
O1_4 O 0.8044(10) 0.9523(2) 0.0295(2)
O3_2 O 0.4286(10) 0.9157(2) 0.0482(3)
H1_2 H 0.353557 0.890554 0.055968
O5_4 O 0.8125(12) 0.9196(2) 0.1014(3)
O6_4 O 0.9312(11) 0.8466(3) 0.0074(3)
C9_4 C 0.9140(11) 0.9954(3) 0.0989(3)
C13_4 C 0.8395(13) 0.9530(3) 0.0749(3)
H10_4 H 0.883001 0.978812 0.167234
C27_2 C 0.3714(17) 0.9892(3) 0.0765(7)
H23_2 H 0.339496 0.972973 0.104316
C28_2 C 0.3882(18) 0.9549(5) 0.0327(6)
H25_2 H 0.472408 0.965971 0.012931
H26_2 H 0.282251 0.953320 0.012032
H2_3 H 0.834130 0.826739 0.997069
O2_2 O 0.0284(11) 0.3332(3) 0.9625(2)
O4_2 O 0.0823(11) 0.4036(3) 0.9456(2)
C15_4 C 0.0187(13) 0.3650(4) 0.9333(3)
H2_4 H 0.334130 0.326739 0.997069
H17_2 H 0.599213 0.368446 0.978300
O3_3 O 0.9286(10) 0.5843(2) 0.5482(3)
H1_3 H 0.853557 0.609446 0.555968
C27_3 C 0.8714(17) 0.5108(3) 0.5765(7)
H22 H 0.787479 0.488513 0.566356
H23_3 H 0.839496 0.527027 0.604316
H24 H 0.976985 0.496001 0.585307
C28_3 C 0.8882(18) 0.5451(5) 0.5327(6)
H25_3 H 0.972408 0.534029 0.512931
H26_3 H 0.782251 0.546680 0.512032
O3_4 O 0.0714(10) 0.5843(2) 0.9518(3)
H1_4 H 0.146443 0.609446 0.944032
C27_4 C 0.1286(17) 0.5108(3) 0.9235(7)
H22_2 H 0.212521 0.488513 0.933644
H23_4 H 0.160504 0.527027 0.895684
H24_2 H 0.023015 0.496001 0.914693
C28_4 C 0.1118(18) 0.5451(5) 0.9673(6)
H25_4 H 0.027592 0.534029 0.987069
H26_4 H 0.217749 0.546680 0.987968
H2_5 H 0.665870 0.673261 0.002931
H17_3 H 0.400787 0.631554 0.021700
O7_3 O 0.9716(11) 0.6668(3) 0.0375(2)
O8_3 O 0.9177(11) 0.5964(3) 0.0544(2)
C15_5 C 0.9813(13) 0.6350(4) 0.0667(3)
Sr1_2 Sr 0.82200(9) 0.61784(2) 0.97510(2)
N1_5 N 0.3344(9) 0.38175(19) 0.7885(2)
O1_5 O 0.6956(10) 0.5477(2) 0.9705(2)
N2_3 N 0.3502(11) 0.1798(2) 0.9256(2)
O5_5 O 0.6875(12) 0.5804(2) 0.8986(3)
O6_5 O 0.5688(11) 0.6534(3) 0.9926(3)
C1_5 C 0.3977(10) 0.3804(2) 0.8360(3)
C2_5 C 0.2790(10) 0.3436(2) 0.7669(2)
C3_5 C 0.4027(11) 0.3409(2) 0.8627(3)
H3_5 H 0.445184 0.340964 0.895682
C4_5 C 0.3444(10) 0.3010(2) 0.8406(3)
C5_5 C 0.2060(10) 0.3471(2) 0.7149(2)
C6_5 C 0.4588(10) 0.4242(2) 0.8585(3)
C7_5 C 0.2813(11) 0.3022(2) 0.7910(3)
H4_5 H 0.241876 0.276119 0.774728
C8_5 C 0.3477(11) 0.2582(2) 0.8699(3)
C9_5 C 0.5860(11) 0.5046(3) 0.9011(3)
C10_5 C 0.0590(11) 0.3588(3) 0.6185(3)
C11_3 C 0.5333(13) 0.4706(3) 0.9297(3)
H5_3 H 0.543175 0.474095 0.963544
C12_5 C 0.4643(12) 0.4304(3) 0.9083(3)
H6_5 H 0.422694 0.408276 0.927799
C13_5 C 0.6605(13) 0.5470(3) 0.9251(3)
C14_5 C 0.1913(14) 0.3115(3) 0.6828(3)
H7_5 H 0.230622 0.283059 0.693181
C16_5 C 0.1186(13) 0.3173(3) 0.6353(3)
H8_5 H 0.109518 0.292629 0.614190
C17_5 C 0.3230(13) 0.2596(3) 0.9189(3)
H9_5 H 0.300125 0.286700 0.933944
C18_3 C 0.5783(14) 0.4985(3) 0.8522(3)
H10_5 H 0.616999 0.521188 0.832766
C19_3 C 0.5127(13) 0.4585(3) 0.8302(3)
H11_3 H 0.505619 0.455149 0.796382
C20_5 C 0.3332(14) 0.2197(3) 0.9447(3)
H12_5 H 0.327470 0.221296 0.978287
C21_5 C 0.0711(16) 0.3945(3) 0.6501(3)
H13_5 H 0.028083 0.422522 0.639671
C22_5 C 0.1473(17) 0.3893(3) 0.6978(3)
H14_5 H 0.159357 0.414262 0.718514
C23_5 C 0.3724(16) 0.1779(3) 0.8789(3)
H15_5 H 0.384902 0.149692 0.864743
C24_5 C 0.3782(16) 0.2168(3) 0.8494(3)
H16_5 H 0.401886 0.214581 0.817116
C25_3 C 0.420(2) 0.6446(6) 0.9904(7)
H18_3 H 0.398135 0.620822 0.966104
C26_3 C 0.2954(17) 0.6779(8) 0.9794(7)
H19_3 H 0.280929 0.683258 0.944669
H20_3 H 0.329100 0.705404 0.996220
H21_3 H 0.191558 0.667546 0.989756
Sr2_2 Sr 0.32200(9) 0.11784(2) 0.97510(2)
N3_3 N 0.8502(11) 0.6798(2) 0.9256(2)
O2_3 O 0.9716(11) 0.3332(3) 0.5375(2)
O4_3 O 0.9177(11) 0.4036(3) 0.5544(2)
C15_6 C 0.9813(13) 0.3650(4) 0.5667(3)
Sr3_3 Sr 0.82200(9) 0.38216(2) 0.47510(2)
H2_6 H 0.165870 0.173261 0.002931
O7_4 O 0.4716(11) 0.1668(3) 0.0375(2)
O8_4 O 0.4177(11) 0.0964(3) 0.0544(2)
O1_6 O 0.1956(10) 0.0477(2) 0.9705(2)
O3_5 O 0.5714(10) 0.0843(2) 0.9518(3)
H1_5 H 0.646443 0.109446 0.944032
O5_6 O 0.1875(12) 0.0804(2) 0.8986(3)
O6_6 O 0.0688(11) 0.1534(3) 0.9926(3)
C9_6 C 0.0860(11) 0.0046(3) 0.9011(3)
C13_6 C 0.1605(13) 0.0470(3) 0.9251(3)
H10_6 H 0.116999 0.021188 0.832766
C27_5 C 0.6286(17) 0.0108(3) 0.9235(7)
H23_5 H 0.660504 0.027027 0.895684
C28_5 C 0.6118(18) 0.0451(5) 0.9673(6)
H25_5 H 0.527592 0.034029 0.987069
H26_5 H 0.717749 0.046680 0.987968
N1_6 N 0.8344(9) 0.88175(19) 0.7885(2)
O2_4 O 0.4716(11) 0.8332(3) 0.5375(2)
O4_4 O 0.4177(11) 0.9036(3) 0.5544(2)
C1_6 C 0.8977(10) 0.8804(2) 0.8360(3)
C2_6 C 0.7790(10) 0.8436(2) 0.7669(2)
C3_6 C 0.9027(11) 0.8409(2) 0.8627(3)
H3_6 H 0.945184 0.840964 0.895682
C4_6 C 0.8444(10) 0.8010(2) 0.8406(3)
C5_6 C 0.7060(10) 0.8471(2) 0.7149(2)
C6_6 C 0.9588(10) 0.9242(2) 0.8585(3)
C7_6 C 0.7813(11) 0.8022(2) 0.7910(3)
H4_6 H 0.741876 0.776119 0.774728
C8_6 C 0.8477(11) 0.7582(2) 0.8699(3)
C10_6 C 0.5590(11) 0.8588(3) 0.6185(3)
C12_6 C 0.9643(12) 0.9304(3) 0.9083(3)
H6_6 H 0.922694 0.908276 0.927799
C14_6 C 0.6913(14) 0.8115(3) 0.6828(3)
H7_6 H 0.730622 0.783059 0.693181
C15_7 C 0.4813(13) 0.8650(4) 0.5667(3)
C16_6 C 0.6186(13) 0.8173(3) 0.6353(3)
H8_6 H 0.609518 0.792629 0.614190
C17_6 C 0.8230(13) 0.7596(3) 0.9189(3)
H9_6 H 0.800125 0.786700 0.933944
C20_6 C 0.8332(14) 0.7197(3) 0.9447(3)
H12_6 H 0.827470 0.721296 0.978287
C21_6 C 0.5711(16) 0.8945(3) 0.6501(3)
H13_6 H 0.528083 0.922522 0.639671
C22_6 C 0.6473(17) 0.8893(3) 0.6978(3)
H14_6 H 0.659357 0.914262 0.718514
C23_6 C 0.8724(16) 0.6779(3) 0.8789(3)
H15_6 H 0.884902 0.649692 0.864743
C24_6 C 0.8782(16) 0.7168(3) 0.8494(3)
H16_6 H 0.901886 0.714581 0.817116
Sr3_4 Sr 0.32200(9) 0.88216(2) 0.47510(2)
N1_7 N 0.3344(9) 0.61825(19) 0.2885(2)
O1_7 O 0.6956(10) 0.4523(2) 0.4705(2)
N2_4 N 0.3502(11) 0.8202(2) 0.4256(2)
O5_7 O 0.6875(12) 0.4196(2) 0.3986(3)
O6_7 O 0.5688(11) 0.3466(3) 0.4926(3)
H2_7 H 0.665870 0.326739 0.502931
C1_7 C 0.3977(10) 0.6196(2) 0.3360(3)
C2_7 C 0.2790(10) 0.6564(2) 0.2669(2)
C3_7 C 0.4027(11) 0.6591(2) 0.3627(3)
H3_7 H 0.445184 0.659036 0.395682
C4_7 C 0.3444(10) 0.6990(2) 0.3406(3)
C5_7 C 0.2060(10) 0.6529(2) 0.2149(2)
C6_7 C 0.4588(10) 0.5758(2) 0.3585(3)
C7_7 C 0.2813(11) 0.6978(2) 0.2910(3)
H4_7 H 0.241876 0.723881 0.274728
C8_7 C 0.3477(11) 0.7418(2) 0.3699(3)
C9_7 C 0.5860(11) 0.4954(3) 0.4011(3)
C10_7 C 0.0590(11) 0.6412(3) 0.1185(3)
C11_4 C 0.5333(13) 0.5294(3) 0.4297(3)
H5_4 H 0.543175 0.525905 0.463544
C12_7 C 0.4643(12) 0.5696(3) 0.4083(3)
H6_7 H 0.422694 0.591724 0.427799
C13_7 C 0.6605(13) 0.4530(3) 0.4251(3)
C14_7 C 0.1913(14) 0.6885(3) 0.1828(3)
H7_7 H 0.230622 0.716941 0.193181
C16_7 C 0.1186(13) 0.6827(3) 0.1353(3)
H8_7 H 0.109518 0.707371 0.114190
C17_7 C 0.3230(13) 0.7404(3) 0.4189(3)
H9_7 H 0.300125 0.713300 0.433944
C18_4 C 0.5783(14) 0.5015(3) 0.3522(3)
H10_7 H 0.616999 0.478812 0.332766
C19_4 C 0.5127(13) 0.5415(3) 0.3302(3)
H11_4 H 0.505619 0.544851 0.296382
C20_7 C 0.3332(14) 0.7803(3) 0.4447(3)
H12_7 H 0.327470 0.778704 0.478287
C21_7 C 0.0711(16) 0.6055(3) 0.1501(3)
H13_7 H 0.028083 0.577478 0.139671
C22_7 C 0.1473(17) 0.6107(3) 0.1978(3)
H14_7 H 0.159357 0.585738 0.218514
C23_7 C 0.3724(16) 0.8221(3) 0.3789(3)
H15_7 H 0.384902 0.850308 0.364743
C24_7 C 0.3782(16) 0.7832(3) 0.3494(3)
H16_7 H 0.401886 0.785419 0.317116
C25_4 C 0.420(2) 0.3554(6) 0.4904(7)
H17_4 H 0.400787 0.368446 0.521700
H18_4 H 0.398135 0.379178 0.466104
C26_4 C 0.2954(17) 0.3221(8) 0.4794(7)
H19_4 H 0.280929 0.316742 0.444669
H20_4 H 0.329100 0.294596 0.496220
H21_4 H 0.191558 0.332454 0.489756
N3_4 N 0.8502(11) 0.3202(2) 0.4256(2)
O1_8 O 0.1956(10) 0.9523(2) 0.4705(2)
O3_6 O 0.5714(10) 0.9157(2) 0.4518(3)
H1_6 H 0.646443 0.890554 0.444032
O5_8 O 0.1875(12) 0.9196(2) 0.3986(3)
O6_8 O 0.0688(11) 0.8466(3) 0.4926(3)
H2_8 H 0.165870 0.826739 0.502931
C9_8 C 0.0860(11) 0.9954(3) 0.4011(3)
C13_8 C 0.1605(13) 0.9530(3) 0.4251(3)
H10_8 H 0.116999 0.978812 0.332766
C27_6 C 0.6286(17) 0.9892(3) 0.4235(7)
H23_6 H 0.660504 0.972973 0.395684
C28_6 C 0.6118(18) 0.9549(5) 0.4673(6)
H25_6 H 0.527592 0.965971 0.487069
H26_6 H 0.717749 0.953320 0.487968
N1_8 N 0.8344(9) 0.11825(19) 0.2885(2)
C1_8 C 0.8977(10) 0.1196(2) 0.3360(3)
C2_8 C 0.7790(10) 0.1564(2) 0.2669(2)
C3_8 C 0.9027(11) 0.1591(2) 0.3627(3)
H3_8 H 0.945184 0.159036 0.395682
C4_8 C 0.8444(10) 0.1990(2) 0.3406(3)
C5_8 C 0.7060(10) 0.1529(2) 0.2149(2)
C6_8 C 0.9588(10) 0.0758(2) 0.3585(3)
C7_8 C 0.7813(11) 0.1978(2) 0.2910(3)
H4_8 H 0.741876 0.223881 0.274728
C8_8 C 0.8477(11) 0.2418(2) 0.3699(3)
C10_8 C 0.5590(11) 0.1412(3) 0.1185(3)
C12_8 C 0.9643(12) 0.0696(3) 0.4083(3)
H6_8 H 0.922694 0.091724 0.427799
C14_8 C 0.6913(14) 0.1885(3) 0.1828(3)
H7_8 H 0.730622 0.216941 0.193181
C15_8 C 0.4813(13) 0.1350(4) 0.0667(3)
C16_8 C 0.6186(13) 0.1827(3) 0.1353(3)
H8_8 H 0.609518 0.207371 0.114190
C17_8 C 0.8230(13) 0.2404(3) 0.4189(3)
H9_8 H 0.800125 0.213300 0.433944
C20_8 C 0.8332(14) 0.2803(3) 0.4447(3)
H12_8 H 0.827470 0.278704 0.478287
C21_8 C 0.5711(16) 0.1055(3) 0.1501(3)
H13_8 H 0.528083 0.077478 0.139671
C22_8 C 0.6473(17) 0.1107(3) 0.1978(3)
H14_8 H 0.659357 0.085738 0.218514
C23_8 C 0.8724(16) 0.3221(3) 0.3789(3)
H15_8 H 0.884902 0.350308 0.364743
C24_8 C 0.8782(16) 0.2832(3) 0.3494(3)
H16_8 H 0.901886 0.285419 0.317116
C25_5 C 0.080(2) 0.1446(6) 0.5096(7)
H17_5 H 0.099213 0.131554 0.478300
H18_5 H 0.101865 0.120822 0.533896
C26_5 C 0.2046(17) 0.1779(8) 0.5206(7)
H19_5 H 0.219071 0.183258 0.555331
H20_5 H 0.170900 0.205404 0.503780
H21_5 H 0.308442 0.167546 0.510244
C11_5 C 0.9667(13) 0.9706(3) 0.5703(3)
H5_5 H 0.956825 0.974095 0.536456
C18_5 C 0.9217(14) 0.9985(3) 0.6478(3)
C19_5 C 0.9873(13) 0.9585(3) 0.6698(3)
H11_5 H 0.994381 0.955149 0.703618
H22_3 H 0.287479 0.988513 0.566356
H24_3 H 0.476985 0.996001 0.585307
C11_6 C 0.0333(13) 0.9706(3) 0.9297(3)
H5_6 H 0.043175 0.974095 0.963544
C18_6 C 0.0783(14) 0.9985(3) 0.8522(3)
C19_6 C 0.0127(13) 0.9585(3) 0.8302(3)
H11_6 H 0.005619 0.955149 0.796382
H22_4 H 0.712521 0.988513 0.933644
H24_4 H 0.523015 0.996001 0.914693
H17_6 H 0.900787 0.131554 0.021700
C25_6 C 0.920(2) 0.1446(6) 0.9904(7)
H18_6 H 0.898135 0.120822 0.966104
C26_6 C 0.7954(17) 0.1779(8) 0.9794(7)
H19_6 H 0.780929 0.183258 0.944669
H20_6 H 0.829100 0.205404 0.996220
H21_6 H 0.691558 0.167546 0.989756
O3_7 O 0.0714(10) 0.4157(2) 0.4518(3)
H1_7 H 0.146443 0.390554 0.444032
C27_7 C 0.1286(17) 0.4892(3) 0.4235(7)
H22_5 H 0.212521 0.511487 0.433644
H23_7 H 0.160504 0.472973 0.395684
H24_5 H 0.023015 0.503999 0.414693
C28_7 C 0.1118(18) 0.4549(5) 0.4673(6)
H25_7 H 0.027592 0.465971 0.487069
H26_7 H 0.217749 0.453320 0.487968
O3_8 O 0.9286(10) 0.4157(2) 0.0482(3)
H1_8 H 0.853557 0.390554 0.055968
C27_8 C 0.8714(17) 0.4892(3) 0.0765(7)
H22_6 H 0.787479 0.511487 0.066356
H23_8 H 0.839496 0.472973 0.104316
H24_6 H 0.976985 0.503999 0.085307
C28_8 C 0.8882(18) 0.4549(5) 0.0327(6)
H25_8 H 0.972408 0.465971 0.012931
H26_8 H 0.782251 0.453320 0.012032
C11_7 C 0.0333(13) 0.0294(3) 0.4297(3)
H5_7 H 0.043175 0.025905 0.463544
C18_7 C 0.0783(14) 0.0015(3) 0.3522(3)
C19_7 C 0.0127(13) 0.0415(3) 0.3302(3)
H11_7 H 0.005619 0.044851 0.296382
H22_7 H 0.712521 0.011487 0.433644
H24_7 H 0.523015 0.003999 0.414693
C25_7 C 0.920(2) 0.8554(6) 0.4904(7)
H17_7 H 0.900787 0.868446 0.521700
H18_7 H 0.898135 0.879178 0.466104
C26_7 C 0.7954(17) 0.8221(8) 0.4794(7)
H19_7 H 0.780929 0.816742 0.444669
H20_7 H 0.829100 0.794596 0.496220
H21_7 H 0.691558 0.832454 0.489756
C25_8 C 0.080(2) 0.8554(6) 0.0096(7)
H18_8 H 0.101865 0.879178 0.033896
C26_8 C 0.2046(17) 0.8221(8) 0.0206(7)
H19_8 H 0.219071 0.816742 0.055331
H20_8 H 0.170900 0.794596 0.003780
H21_8 H 0.308442 0.832454 0.010244
H17_8 H 0.099213 0.868446 0.978300
C11_8 C 0.9667(13) 0.0294(3) 0.0703(3)
H5_8 H 0.956825 0.025905 0.036456
C18_8 C 0.9217(14) 0.0015(3) 0.1478(3)
C19_8 C 0.9873(13) 0.0415(3) 0.1698(3)
H11_8 H 0.994381 0.044851 0.203618
H22_8 H 0.287479 0.011487 0.066356
H24_8 H 0.476985 0.003999 0.085307
loop_
_geom_bond_atom_site_label_1
_geom_bond_atom_site_label_2
_geom_bond_site_symmetry_1
_geom_bond_site_symmetry_2
Sr1 O1 1_555 1_555
N1 C1 1_555 1_555
O1 C13 1_555 1_555
N2 C20 1_555 1_555
O5 Sr1 1_555 1_555
O6 Sr1 1_555 1_555
H2 O6 1_555 1_555
C1 C3 1_555 1_555
C2 N1 1_555 1_555
C3 H3 1_555 1_555
C4 C3 1_555 1_555
C5 C2 1_555 1_555
C6 C1 1_555 1_555
C7 C2 1_555 1_555
H4 C7 1_555 1_555
C8 C4 1_555 1_555
C9 C11 1_555 1_555
C11 H5 1_555 1_555
C12 C6 1_555 1_555
H6 C12 1_555 1_555
C13 O5 1_555 1_555
C14 C5 1_555 1_555
H7 C14 1_555 1_555
C16 C10 1_555 1_555
H8 C16 1_555 1_555
C17 C8 1_555 1_555
H9 C17 1_555 1_555
C18 C9 1_555 1_555
H10 C18 1_555 1_555
C19 C6 1_555 1_555
H11 C19 1_555 1_555
C20 C17 1_555 1_555
H12 C20 1_555 1_555
C21 C10 1_555 1_555
H13 C21 1_555 1_555
C22 C5 1_555 1_555
H14 C22 1_555 1_555
C23 N2 1_555 1_555
H15 C23 1_555 1_555
C24 C8 1_555 1_555
H16 C24 1_555 1_555
C25 O6 1_555 1_555
H17 C25 1_555 1_555
H18 C25 1_555 1_555
C26 C25 1_555 1_555
H19 C26 1_555 1_555
H20 C26 1_555 1_555
H21 C26 1_555 1_555
Sr2 N2 1_555 1_555
O7 Sr1 1_555 1_555
N3 Sr1 1_555 1_555
O8 Sr1 1_555 1_555
C4 C7 1_555 1_555
C9 C13 1_555 1_555
C11 C12 1_555 1_555
C14 C16 1_555 1_555
C18 C19 1_555 1_555
C21 C22 1_555 1_555
C23 C24 1_555 1_555
N1_2 C1_2 1_555 1_555
O2 C15 1_555 1_555
N3 C20_2 1_555 1_555
O4 C15 1_555 1_555
C1_2 C3_2 1_555 1_555
C2_2 N1_2 1_555 1_555
C3_2 H3_2 1_555 1_555
C4_2 C3_2 1_555 1_555
C5_2 C2_2 1_555 1_555
C6_2 C1_2 1_555 1_555
C7_2 C2_2 1_555 1_555
H4_2 C7_2 1_555 1_555
C8_2 C4_2 1_555 1_555
C10_2 C15 1_555 1_555
C12_2 C6_2 1_555 1_555
H6_2 C12_2 1_555 1_555
C14_2 C5_2 1_555 1_555
H7_2 C14_2 1_555 1_555
C16_2 C10_2 1_555 1_555
H8_2 C16_2 1_555 1_555
C17_2 C8_2 1_555 1_555
H9_2 C17_2 1_555 1_555
C20_2 C17_2 1_555 1_555
H12_2 C20_2 1_555 1_555
C21_2 C10_2 1_555 1_555
H13_2 C21_2 1_555 1_555
C22_2 C5_2 1_555 1_555
H14_2 C22_2 1_555 1_555
C23_2 N3 1_555 1_555
H15_2 C23_2 1_555 1_555
C24_2 C8_2 1_555 1_555
H16_2 C24_2 1_555 1_555
C4_2 C7_2 1_555 1_555
C14_2 C16_2 1_555 1_555
C21_2 C22_2 1_555 1_555
C23_2 C24_2 1_555 1_555
Sr2 O1_2 1_555 1_555
O1_2 C13_2 1_555 1_555
O3 Sr2 1_555 1_555
H1 O3 1_555 1_555
O5_2 Sr2 1_555 1_555
O6_2 Sr2 1_555 1_555
H2_2 O6_2 1_555 1_555
C13_2 O5_2 1_555 1_555
H23 C27 1_555 1_555
C28 O3 1_555 1_555
H25 C28 1_555 1_555
H26 C28 1_555 1_555
O7_2 Sr2 1_555 1_555
O8_2 Sr2 1_555 1_555
C9_2 C13_2 1_555 1_555
C27 C28 1_555 1_555
O7 C15_2 1_555 1_555
O8 C15_2 1_555 1_555
Sr3 O1_3 1_555 1_555
N1_3 C1_3 1_555 1_555
O1_3 C13_3 1_555 1_555
N2_2 C20_3 1_555 1_555
O5_3 Sr3 1_555 1_555
O6_3 Sr3 1_555 1_555
C1_3 C3_3 1_555 1_555
C2_3 N1_3 1_555 1_555
C3_3 H3_3 1_555 1_555
C4_3 C3_3 1_555 1_555
C5_3 C2_3 1_555 1_555
C6_3 C1_3 1_555 1_555
C7_3 C2_3 1_555 1_555
H4_3 C7_3 1_555 1_555
C8_3 C4_3 1_555 1_555
C9_3 C11_2 1_555 1_555
C11_2 H5_2 1_555 1_555
C12_3 C6_3 1_555 1_555
H6_3 C12_3 1_555 1_555
C13_3 O5_3 1_555 1_555
C14_3 C5_3 1_555 1_555
H7_3 C14_3 1_555 1_555
C16_3 C10_3 1_555 1_555
H8_3 C16_3 1_555 1_555
C17_3 C8_3 1_555 1_555
H9_3 C17_3 1_555 1_555
C18_2 C9_3 1_555 1_555
H10_3 C18_2 1_555 1_555
C19_2 C6_3 1_555 1_555
H11_2 C19_2 1_555 1_555
C20_3 C17_3 1_555 1_555
H12_3 C20_3 1_555 1_555
C21_3 C10_3 1_555 1_555
H13_3 C21_3 1_555 1_555
C22_3 C5_3 1_555 1_555
H14_3 C22_3 1_555 1_555
C23_3 N2_2 1_555 1_555
H15_3 C23_3 1_555 1_555
C24_3 C8_3 1_555 1_555
H16_3 C24_3 1_555 1_555
C25_2 O6_3 1_555 1_555
H18_2 C25_2 1_555 1_555
C26_2 C25_2 1_555 1_555
H19_2 C26_2 1_555 1_555
H20_2 C26_2 1_555 1_555
H21_2 C26_2 1_555 1_555
Sr3_2 N2_2 1_555 1_555
N3_2 Sr3 1_555 1_555
C4_3 C7_3 1_555 1_555
C9_3 C13_3 1_555 1_555
C11_2 C12_3 1_555 1_555
C14_3 C16_3 1_555 1_555
C18_2 C19_2 1_555 1_555
C21_3 C22_3 1_555 1_555
C23_3 C24_3 1_555 1_555
N1_4 C1_4 1_555 1_555
O7_2 C15_3 1_555 1_555
N3_2 C20_4 1_555 1_555
O8_2 C15_3 1_555 1_555
C1_4 C3_4 1_555 1_555
C2_4 N1_4 1_555 1_555
C3_4 H3_4 1_555 1_555
C4_4 C3_4 1_555 1_555
C5_4 C2_4 1_555 1_555
C6_4 C1_4 1_555 1_555
C7_4 C2_4 1_555 1_555
H4_4 C7_4 1_555 1_555
C8_4 C4_4 1_555 1_555
C10_4 C15_3 1_555 1_555
C12_4 C6_4 1_555 1_555
H6_4 C12_4 1_555 1_555
C14_4 C5_4 1_555 1_555
H7_4 C14_4 1_555 1_555
C16_4 C10_4 1_555 1_555
H8_4 C16_4 1_555 1_555
C17_4 C8_4 1_555 1_555
H9_4 C17_4 1_555 1_555
C20_4 C17_4 1_555 1_555
H12_4 C20_4 1_555 1_555
C21_4 C10_4 1_555 1_555
H13_4 C21_4 1_555 1_555
C22_4 C5_4 1_555 1_555
H14_4 C22_4 1_555 1_555
C23_4 N3_2 1_555 1_555
H15_4 C23_4 1_555 1_555
C24_4 C8_4 1_555 1_555
H16_4 C24_4 1_555 1_555
C4_4 C7_4 1_555 1_555
C14_4 C16_4 1_555 1_555
C21_4 C22_4 1_555 1_555
C23_4 C24_4 1_555 1_555
Sr3_2 O1_4 1_555 1_555
O1_4 C13_4 1_555 1_555
O3_2 Sr3_2 1_555 1_555
H1_2 O3_2 1_555 1_555
O5_4 Sr3_2 1_555 1_555
O6_4 Sr3_2 1_555 1_555
C13_4 O5_4 1_555 1_555
H23_2 C27_2 1_555 1_555
C28_2 O3_2 1_555 1_555
H25_2 C28_2 1_555 1_555
H26_2 C28_2 1_555 1_555
C9_4 C13_4 1_555 1_555
C27_2 C28_2 1_555 1_555
O2_2 C15_4 1_555 1_555
O4_2 C15_4 1_555 1_555
H1_3 O3_3 1_555 1_555
C27_3 H22 1_555 1_555
H23_3 C27_3 1_555 1_555
H24 C27_3 1_555 1_555
C28_3 O3_3 1_555 1_555
H25_3 C28_3 1_555 1_555
H26_3 C28_3 1_555 1_555
C27_3 C28_3 1_555 1_555
H1_4 O3_4 1_555 1_555
C27_4 H22_2 1_555 1_555
H23_4 C27_4 1_555 1_555
H24_2 C27_4 1_555 1_555
C28_4 O3_4 1_555 1_555
H25_4 C28_4 1_555 1_555
H26_4 C28_4 1_555 1_555
C27_4 C28_4 1_555 1_555
O7_3 C15_5 1_555 1_555
O8_3 C15_5 1_555 1_555
Sr1_2 O1_5 1_555 1_555
N1_5 C1_5 1_555 1_555
O1_5 C13_5 1_555 1_555
N2_3 C20_5 1_555 1_555
O5_5 Sr1_2 1_555 1_555
O6_5 Sr1_2 1_555 1_555
C1_5 C3_5 1_555 1_555
C2_5 N1_5 1_555 1_555
C3_5 H3_5 1_555 1_555
C4_5 C3_5 1_555 1_555
C5_5 C2_5 1_555 1_555
C6_5 C1_5 1_555 1_555
C7_5 C2_5 1_555 1_555
H4_5 C7_5 1_555 1_555
C8_5 C4_5 1_555 1_555
C9_5 C11_3 1_555 1_555
C11_3 H5_3 1_555 1_555
C12_5 C6_5 1_555 1_555
H6_5 C12_5 1_555 1_555
C13_5 O5_5 1_555 1_555
C14_5 C5_5 1_555 1_555
H7_5 C14_5 1_555 1_555
C16_5 C10_5 1_555 1_555
H8_5 C16_5 1_555 1_555
C17_5 C8_5 1_555 1_555
H9_5 C17_5 1_555 1_555
C18_3 C9_5 1_555 1_555
H10_5 C18_3 1_555 1_555
C19_3 C6_5 1_555 1_555
H11_3 C19_3 1_555 1_555
C20_5 C17_5 1_555 1_555
H12_5 C20_5 1_555 1_555
C21_5 C10_5 1_555 1_555
H13_5 C21_5 1_555 1_555
C22_5 C5_5 1_555 1_555
H14_5 C22_5 1_555 1_555
C23_5 N2_3 1_555 1_555
H15_5 C23_5 1_555 1_555
C24_5 C8_5 1_555 1_555
H16_5 C24_5 1_555 1_555
C25_3 O6_5 1_555 1_555
H18_3 C25_3 1_555 1_555
C26_3 C25_3 1_555 1_555
H19_3 C26_3 1_555 1_555
H20_3 C26_3 1_555 1_555
H21_3 C26_3 1_555 1_555
Sr2_2 N2_3 1_555 1_555
N3_3 Sr1_2 1_555 1_555
C4_5 C7_5 1_555 1_555
C9_5 C13_5 1_555 1_555
C11_3 C12_5 1_555 1_555
C14_5 C16_5 1_555 1_555
C18_3 C19_3 1_555 1_555
C21_5 C22_5 1_555 1_555
C23_5 C24_5 1_555 1_555
O2_3 C15_6 1_555 1_555
O4_3 C15_6 1_555 1_555
Sr3_3 O2_3 1_555 1_555
O4_3 Sr3_3 1_555 1_555
Sr2_2 O1_6 1_555 1_555
O1_6 C13_6 1_555 1_555
O3_5 Sr2_2 1_555 1_555
H1_5 O3_5 1_555 1_555
O5_6 Sr2_2 1_555 1_555
O6_6 Sr2_2 1_555 1_555
C13_6 O5_6 1_555 1_555
H23_5 C27_5 1_555 1_555
C28_5 O3_5 1_555 1_555
H25_5 C28_5 1_555 1_555
H26_5 C28_5 1_555 1_555
C9_6 C13_6 1_555 1_555
C27_5 C28_5 1_555 1_555
N1_6 C1_6 1_555 1_555
O2_4 C15_7 1_555 1_555
N3_3 C20_6 1_555 1_555
O4_4 C15_7 1_555 1_555
C1_6 C3_6 1_555 1_555
C2_6 N1_6 1_555 1_555
C3_6 H3_6 1_555 1_555
C4_6 C3_6 1_555 1_555
C5_6 C2_6 1_555 1_555
C6_6 C1_6 1_555 1_555
C7_6 C2_6 1_555 1_555
H4_6 C7_6 1_555 1_555
C8_6 C4_6 1_555 1_555
C10_6 C15_7 1_555 1_555
C12_6 C6_6 1_555 1_555
H6_6 C12_6 1_555 1_555
C14_6 C5_6 1_555 1_555
H7_6 C14_6 1_555 1_555
C16_6 C10_6 1_555 1_555
H8_6 C16_6 1_555 1_555
C17_6 C8_6 1_555 1_555
H9_6 C17_6 1_555 1_555
C20_6 C17_6 1_555 1_555
H12_6 C20_6 1_555 1_555
C21_6 C10_6 1_555 1_555
H13_6 C21_6 1_555 1_555
C22_6 C5_6 1_555 1_555
H14_6 C22_6 1_555 1_555
C23_6 N3_3 1_555 1_555
H15_6 C23_6 1_555 1_555
C24_6 C8_6 1_555 1_555
H16_6 C24_6 1_555 1_555
Sr3_4 O2_4 1_555 1_555
O4_4 Sr3_4 1_555 1_555
C4_6 C7_6 1_555 1_555
C14_6 C16_6 1_555 1_555
C21_6 C22_6 1_555 1_555
C23_6 C24_6 1_555 1_555
Sr3_3 O1_7 1_555 1_555
N1_7 C1_7 1_555 1_555
O1_7 C13_7 1_555 1_555
N2_4 C20_7 1_555 1_555
O5_7 Sr3_3 1_555 1_555
O6_7 Sr3_3 1_555 1_555
H2_7 O6_7 1_555 1_555
C1_7 C3_7 1_555 1_555
C2_7 N1_7 1_555 1_555
C3_7 H3_7 1_555 1_555
C4_7 C3_7 1_555 1_555
C5_7 C2_7 1_555 1_555
C6_7 C1_7 1_555 1_555
C7_7 C2_7 1_555 1_555
H4_7 C7_7 1_555 1_555
C8_7 C4_7 1_555 1_555
C9_7 C11_4 1_555 1_555
C11_4 H5_4 1_555 1_555
C12_7 C6_7 1_555 1_555
H6_7 C12_7 1_555 1_555
C13_7 O5_7 1_555 1_555
C14_7 C5_7 1_555 1_555
H7_7 C14_7 1_555 1_555
C16_7 C10_7 1_555 1_555
H8_7 C16_7 1_555 1_555
C17_7 C8_7 1_555 1_555
H9_7 C17_7 1_555 1_555
C18_4 C9_7 1_555 1_555
H10_7 C18_4 1_555 1_555
C19_4 C6_7 1_555 1_555
H11_4 C19_4 1_555 1_555
C20_7 C17_7 1_555 1_555
H12_7 C20_7 1_555 1_555
C21_7 C10_7 1_555 1_555
H13_7 C21_7 1_555 1_555
C22_7 C5_7 1_555 1_555
H14_7 C22_7 1_555 1_555
C23_7 N2_4 1_555 1_555
H15_7 C23_7 1_555 1_555
C24_7 C8_7 1_555 1_555
H16_7 C24_7 1_555 1_555
C25_4 O6_7 1_555 1_555
H17_4 C25_4 1_555 1_555
H18_4 C25_4 1_555 1_555
C26_4 C25_4 1_555 1_555
H19_4 C26_4 1_555 1_555
H20_4 C26_4 1_555 1_555
H21_4 C26_4 1_555 1_555
Sr3_4 N2_4 1_555 1_555
N3_4 Sr3_3 1_555 1_555
C4_7 C7_7 1_555 1_555
C9_7 C13_7 1_555 1_555
C11_4 C12_7 1_555 1_555
C14_7 C16_7 1_555 1_555
C18_4 C19_4 1_555 1_555
C21_7 C22_7 1_555 1_555
C23_7 C24_7 1_555 1_555
Sr3_4 O1_8 1_555 1_555
O1_8 C13_8 1_555 1_555
O3_6 Sr3_4 1_555 1_555
H1_6 O3_6 1_555 1_555
O5_8 Sr3_4 1_555 1_555
O6_8 Sr3_4 1_555 1_555
H2_8 O6_8 1_555 1_555
C13_8 O5_8 1_555 1_555
H23_6 C27_6 1_555 1_555
C28_6 O3_6 1_555 1_555
H25_6 C28_6 1_555 1_555
H26_6 C28_6 1_555 1_555
C9_8 C13_8 1_555 1_555
C27_6 C28_6 1_555 1_555
N1_8 C1_8 1_555 1_555
O7_4 C15_8 1_555 1_555
N3_4 C20_8 1_555 1_555
O8_4 C15_8 1_555 1_555
C1_8 C3_8 1_555 1_555
C2_8 N1_8 1_555 1_555
C3_8 H3_8 1_555 1_555
C4_8 C3_8 1_555 1_555
C5_8 C2_8 1_555 1_555
C6_8 C1_8 1_555 1_555
C7_8 C2_8 1_555 1_555
H4_8 C7_8 1_555 1_555
C8_8 C4_8 1_555 1_555
C10_8 C15_8 1_555 1_555
C12_8 C6_8 1_555 1_555
H6_8 C12_8 1_555 1_555
C14_8 C5_8 1_555 1_555
H7_8 C14_8 1_555 1_555
C16_8 C10_8 1_555 1_555
H8_8 C16_8 1_555 1_555
C17_8 C8_8 1_555 1_555
H9_8 C17_8 1_555 1_555
C20_8 C17_8 1_555 1_555
H12_8 C20_8 1_555 1_555
C21_8 C10_8 1_555 1_555
H13_8 C21_8 1_555 1_555
C22_8 C5_8 1_555 1_555
H14_8 C22_8 1_555 1_555
C23_8 N3_4 1_555 1_555
H15_8 C23_8 1_555 1_555
C24_8 C8_8 1_555 1_555
H16_8 C24_8 1_555 1_555
C4_8 C7_8 1_555 1_555
C14_8 C16_8 1_555 1_555
C21_8 C22_8 1_555 1_555
C23_8 C24_8 1_555 1_555
H17_5 C25_5 1_555 1_555
H18_5 C25_5 1_555 1_555
C26_5 C25_5 1_555 1_555
H19_5 C26_5 1_555 1_555
H20_5 C26_5 1_555 1_555
H21_5 C26_5 1_555 1_555
C11_5 H5_5 1_555 1_555
H11_5 C19_5 1_555 1_555
C18_5 C19_5 1_555 1_555
C11_6 H5_6 1_555 1_555
H11_6 C19_6 1_555 1_555
C18_6 C19_6 1_555 1_555
H18_6 C25_6 1_555 1_555
C26_6 C25_6 1_555 1_555
H19_6 C26_6 1_555 1_555
H20_6 C26_6 1_555 1_555
H21_6 C26_6 1_555 1_555
H1_7 O3_7 1_555 1_555
C27_7 H22_5 1_555 1_555
H23_7 C27_7 1_555 1_555
H24_5 C27_7 1_555 1_555
C28_7 O3_7 1_555 1_555
H25_7 C28_7 1_555 1_555
H26_7 C28_7 1_555 1_555
C27_7 C28_7 1_555 1_555
H1_8 O3_8 1_555 1_555
C27_8 H22_6 1_555 1_555
H23_8 C27_8 1_555 1_555
H24_6 C27_8 1_555 1_555
C28_8 O3_8 1_555 1_555
H25_8 C28_8 1_555 1_555
H26_8 C28_8 1_555 1_555
C27_8 C28_8 1_555 1_555
C11_7 H5_7 1_555 1_555
H11_7 C19_7 1_555 1_555
C18_7 C19_7 1_555 1_555
H17_7 C25_7 1_555 1_555
H18_7 C25_7 1_555 1_555
C26_7 C25_7 1_555 1_555
H19_7 C26_7 1_555 1_555
H20_7 C26_7 1_555 1_555
H21_7 C26_7 1_555 1_555
H18_8 C25_8 1_555 1_555
C26_8 C25_8 1_555 1_555
H19_8 C26_8 1_555 1_555
H20_8 C26_8 1_555 1_555
H21_8 C26_8 1_555 1_555
C11_8 H5_8 1_555 1_555
H11_8 C19_8 1_555 1_555
C18_8 C19_8 1_555 1_555

#END
