
###############################################################################
#
# This file contains modified crystal structure data generated from the
# MOF subset of the Cambridge Structural Database (CSD) v543 
# hosted by the Cambridge Crystallographic Data Centre (CCDC).
#
# This work is licensed under the Creative Commons
# Attribution-NonCommercial-ShareAlike 4.0 International License.
# To view a copy of this license, visit
# http://creativecommons.org/licenses/by-nc-sa/4.0/
# or send a letter to
# Creative Commons, PO Box 1866, Mountain View, CA 94042, USA.
#
# CIF created using the CSD Python API on 29 September 2022
# The structure has been converted into the P1 space group
# The structure has a 3D framework
# The original CSD entry QIMFEA is in the tetragonal crystal system
# The framework has been calculated to contain at least 10.0% void space
# The void calculation uses a probe of radius 1.32A, grid spacing 0.4
# The framework is charged, counterions have been retained in the structure
# H atom positions have been added when not included in the experimental data
#
###############################################################################

data_QIMFEA
_chemical_formula_moiety         '(C120 H80 Mg16 O104 8-)n'
_symmetry_cell_setting           triclinic
_symmetry_space_group_name_H-M   'P 1'
_symmetry_Int_Tables_number      1
_space_group_name_Hall           'P 1'
loop_
_symmetry_equiv_pos_site_id
_symmetry_equiv_pos_as_xyz
1 x,y,z
_cell_length_a                   21.6301(7)
_cell_length_b                   21.6301(7)
_cell_length_c                   12.4042(6)
_cell_angle_alpha                90
_cell_angle_beta                 90
_cell_angle_gamma                90
_cell_volume                     5803.44
loop_
_atom_site_label
_atom_site_type_symbol
_atom_site_fract_x
_atom_site_fract_y
_atom_site_fract_z
Mg1 Mg 0.18273(5) 0.18273(5) 0.0000
C1 C 0.26691(16) 0.26691(16) 0.0000
C2 C 0.31581(19) 0.31581(19) 0.0000
C3 C 0.11214(14) 0.2312(2) 0.1980(3)
C4 C 0.05020(14) 0.2409(2) 0.2456(3)
C5 C 0.03277(16) 0.2651(3) 0.3400(3)
H1 H 0.0585 0.2792 0.3948
O2 O 0.11404(10) 0.20671(15) 0.10624(18)
O3 O 0.15594(10) 0.24951(15) 0.25388(18)
O4 O -0.0000 0.2260(2) 0.1859(2)
O5 O 0.24557(9) 0.24557(9) 0.0854(2)
Mg6 Mg 0.2500 0.2500 0.2500
O15 O 0.20671(15) 0.11404(10) 0.10624(18)
H6 H 0.327677 0.327677 0.0827719
Mg1_2 Mg 0.18273(5) 0.18273(5) 1.0000
Mg2 Mg 0.2500 0.2500 0.7500
C1_2 C 0.26691(16) 0.26691(16) 1.0000
C2_2 C 0.31581(19) 0.31581(19) 1.0000
O1 O 0.24557(9) 0.24557(9) 0.9146(2)
C9 C 0.2312(2) 0.11214(14) 0.8020(3)
C10 C 0.2409(2) 0.05020(14) 0.7544(3)
C11 C 0.2651(3) 0.03277(16) 0.6600(3)
H3 H 0.2792 0.0585 0.6052
O8 O 0.20671(15) 0.11404(10) 0.89376(18)
O9 O 0.24951(15) 0.15594(10) 0.74612(18)
O10 O 0.2260(2) 0.0000 0.8141(2)
O13 O 0.25443(9) 0.25443(9) 0.5854(2)
O14 O 0.11404(10) 0.20671(15) 0.89376(18)
O16 O 0.34406(10) 0.25049(15) 0.75388(18)
O17 O 0.15594(10) 0.24951(15) 0.74612(18)
O18 O 0.25049(15) 0.34406(10) 0.75388(18)
H5 H 0.298609 0.356744 0.958614
H7 H 0.356744 0.298609 0.958614
Mg4 Mg 0.18273(5) 0.81727(5) 0.0000
O10_2 O 0.2260(2) 1.0000 0.8141(2)
C12 C 0.2312(2) 0.88786(14) 0.8020(3)
C13 C 0.2409(2) 0.94980(14) 0.7544(3)
C14 C 0.2651(3) 0.96723(16) 0.6600(3)
H4 H 0.2792 0.9415 0.6052
O11 O 0.20671(15) 0.88596(10) 0.89376(18)
O12 O 0.24951(15) 0.84406(10) 0.74612(18)
Mg4_2 Mg 0.18273(5) 0.81727(5) 1.0000
Mg5 Mg 0.2500 0.7500 0.7500
O4_2 O 1.0000 0.2260(2) 0.1859(2)
C6 C 0.88786(14) 0.2312(2) 0.1980(3)
C7 C 0.94980(14) 0.2409(2) 0.2456(3)
C8 C 0.96723(16) 0.2651(3) 0.3400(3)
H2 H 0.9415 0.2792 0.3948
O6 O 0.88596(10) 0.20671(15) 0.10624(18)
O7 O 0.84406(10) 0.24951(15) 0.25388(18)
Mg3 Mg 0.81727(5) 0.18273(5) 0.0000
Mg7 Mg 0.7500 0.2500 0.2500
Mg3_2 Mg 0.81727(5) 0.18273(5) 1.0000
O10_3 O 0.0000 0.2260(2) 0.8141(2)
C12_2 C 0.11214(14) 0.2312(2) 0.8020(3)
C13_2 C 0.05020(14) 0.2409(2) 0.7544(3)
C14_2 C 0.03277(16) 0.2651(3) 0.6600(3)
H4_2 H 0.0585 0.2792 0.6052
C1_3 C 0.73309(16) 0.26691(16) 0.0000
C2_3 C 0.68419(19) 0.31581(19) 0.0000
C3_2 C 0.7688(2) 0.11214(14) 0.1980(3)
C4_2 C 0.7591(2) 0.05020(14) 0.2456(3)
C5_2 C 0.7349(3) 0.03277(16) 0.3400(3)
H1_2 H 0.7208 0.0585 0.3948
O2_2 O 0.79329(15) 0.11404(10) 0.10624(18)
O3_2 O 0.75049(15) 0.15594(10) 0.25388(18)
O4_3 O 0.7740(2) -0.0000 0.1859(2)
O5_2 O 0.75443(9) 0.24557(9) 0.0854(2)
H6_2 H 0.672323 0.327677 0.0827719
Mg2_2 Mg 0.7500 0.2500 0.7500
C1_4 C 0.73309(16) 0.26691(16) 1.0000
C2_4 C 0.68419(19) 0.31581(19) 1.0000
O1_2 O 0.75443(9) 0.24557(9) 0.9146(2)
C9_2 C 0.88786(14) 0.2312(2) 0.8020(3)
C10_2 C 0.94980(14) 0.2409(2) 0.7544(3)
C11_2 C 0.96723(16) 0.2651(3) 0.6600(3)
H3_2 H 0.9415 0.2792 0.6052
O8_2 O 0.88596(10) 0.20671(15) 0.89376(18)
O9_2 O 0.84406(10) 0.24951(15) 0.74612(18)
O10_4 O 1.0000 0.2260(2) 0.8141(2)
O13_2 O 0.74557(9) 0.25443(9) 0.5854(2)
O14_2 O 0.79329(15) 0.11404(10) 0.89376(18)
O16_2 O 0.74951(15) 0.34406(10) 0.75388(18)
O17_2 O 0.75049(15) 0.15594(10) 0.74612(18)
O18_2 O 0.65594(10) 0.25049(15) 0.75388(18)
H5_2 H 0.643256 0.298609 0.958614
H7_2 H 0.701391 0.356744 0.958614
O4_4 O 0.7740(2) 1.0000 0.1859(2)
C6_2 C 0.7688(2) 0.88786(14) 0.1980(3)
C7_2 C 0.7591(2) 0.94980(14) 0.2456(3)
C8_2 C 0.7349(3) 0.96723(16) 0.3400(3)
H2_2 H 0.7208 0.9415 0.3948
O6_2 O 0.79329(15) 0.88596(10) 0.10624(18)
O7_2 O 0.75049(15) 0.84406(10) 0.25388(18)
Mg3_3 Mg 0.81727(5) 0.81727(5) 0.0000
Mg7_2 Mg 0.7500 0.7500 0.2500
Mg3_4 Mg 0.81727(5) 0.81727(5) 1.0000
O4_5 O -0.0000 0.7740(2) 0.1859(2)
C6_3 C 0.11214(14) 0.7688(2) 0.1980(3)
C7_3 C 0.05020(14) 0.7591(2) 0.2456(3)
C8_3 C 0.03277(16) 0.7349(3) 0.3400(3)
H2_3 H 0.0585 0.7208 0.3948
O6_3 O 0.11404(10) 0.79329(15) 0.10624(18)
O7_3 O 0.15594(10) 0.75049(15) 0.25388(18)
Mg7_3 Mg 0.2500 0.7500 0.2500
O10_5 O 0.7740(2) 0.0000 0.8141(2)
C12_3 C 0.7688(2) 0.11214(14) 0.8020(3)
C13_3 C 0.7591(2) 0.05020(14) 0.7544(3)
C14_3 C 0.7349(3) 0.03277(16) 0.6600(3)
H4_3 H 0.7208 0.0585 0.6052
C1_5 C 0.73309(16) 0.73309(16) 0.0000
C2_5 C 0.68419(19) 0.68419(19) 0.0000
C3_3 C 0.88786(14) 0.7688(2) 0.1980(3)
C4_3 C 0.94980(14) 0.7591(2) 0.2456(3)
C5_3 C 0.96723(16) 0.7349(3) 0.3400(3)
H1_3 H 0.9415 0.7208 0.3948
O2_3 O 0.88596(10) 0.79329(15) 0.10624(18)
O3_3 O 0.84406(10) 0.75049(15) 0.25388(18)
O4_6 O 1.0000 0.7740(2) 0.1859(2)
O5_3 O 0.75443(9) 0.75443(9) 0.0854(2)
H6_3 H 0.672323 0.672323 0.0827719
Mg2_3 Mg 0.7500 0.7500 0.7500
C1_6 C 0.73309(16) 0.73309(16) 1.0000
C2_6 C 0.68419(19) 0.68419(19) 1.0000
O1_3 O 0.75443(9) 0.75443(9) 0.9146(2)
C9_3 C 0.7688(2) 0.88786(14) 0.8020(3)
C10_3 C 0.7591(2) 0.94980(14) 0.7544(3)
C11_3 C 0.7349(3) 0.96723(16) 0.6600(3)
H3_3 H 0.7208 0.9415 0.6052
O8_3 O 0.79329(15) 0.88596(10) 0.89376(18)
O9_3 O 0.75049(15) 0.84406(10) 0.74612(18)
O10_6 O 0.7740(2) 1.0000 0.8141(2)
O13_3 O 0.74557(9) 0.74557(9) 0.5854(2)
O14_3 O 0.88596(10) 0.79329(15) 0.89376(18)
O16_3 O 0.65594(10) 0.74951(15) 0.75388(18)
O17_3 O 0.84406(10) 0.75049(15) 0.74612(18)
O18_3 O 0.74951(15) 0.65594(10) 0.75388(18)
H5_3 H 0.701391 0.643256 0.958614
H7_3 H 0.643256 0.701391 0.958614
O4_7 O 0.2260(2) 0.0000 0.1859(2)
C6_4 C 0.2312(2) 0.11214(14) 0.1980(3)
C7_4 C 0.2409(2) 0.05020(14) 0.2456(3)
C8_4 C 0.2651(3) 0.03277(16) 0.3400(3)
H2_4 H 0.2792 0.0585 0.3948
O7_4 O 0.24951(15) 0.15594(10) 0.25388(18)
C1_7 C 0.26691(16) 0.73309(16) 0.0000
C2_7 C 0.31581(19) 0.68419(19) 0.0000
C3_4 C 0.2312(2) 0.88786(14) 0.1980(3)
C4_4 C 0.2409(2) 0.94980(14) 0.2456(3)
C5_4 C 0.2651(3) 0.96723(16) 0.3400(3)
H1_4 H 0.2792 0.9415 0.3948
O2_4 O 0.20671(15) 0.88596(10) 0.10624(18)
O3_4 O 0.24951(15) 0.84406(10) 0.25388(18)
O4_8 O 0.2260(2) 1.0000 0.1859(2)
O5_4 O 0.24557(9) 0.75443(9) 0.0854(2)
H6_4 H 0.327677 0.672323 0.0827719
C1_8 C 0.26691(16) 0.73309(16) 1.0000
C2_8 C 0.31581(19) 0.68419(19) 1.0000
O1_4 O 0.24557(9) 0.75443(9) 0.9146(2)
C9_4 C 0.11214(14) 0.7688(2) 0.8020(3)
C10_4 C 0.05020(14) 0.7591(2) 0.7544(3)
C11_4 C 0.03277(16) 0.7349(3) 0.6600(3)
H3_4 H 0.0585 0.7208 0.6052
O8_4 O 0.11404(10) 0.79329(15) 0.89376(18)
O9_4 O 0.15594(10) 0.75049(15) 0.74612(18)
O10_7 O 0.0000 0.7740(2) 0.8141(2)
O13_4 O 0.25443(9) 0.74557(9) 0.5854(2)
O16_4 O 0.25049(15) 0.65594(10) 0.75388(18)
O18_4 O 0.34406(10) 0.74951(15) 0.75388(18)
H5_4 H 0.356744 0.701391 0.958614
H7_4 H 0.298609 0.643256 0.958614
O10_8 O 1.0000 0.7740(2) 0.8141(2)
C12_4 C 0.88786(14) 0.7688(2) 0.8020(3)
C13_4 C 0.94980(14) 0.7591(2) 0.7544(3)
C14_4 C 0.96723(16) 0.7349(3) 0.6600(3)
H4_4 H 0.9415 0.7208 0.6052
O13_5 O 0.25443(9) 0.74557(9) 0.4146(2)
O16_5 O 0.34406(10) 0.74951(15) 0.24612(18)
O18_5 O 0.25049(15) 0.65594(10) 0.24612(18)
H5_5 H 0.298609 0.643256 0.0413859
H7_5 H 0.356744 0.701391 0.0413859
H6_5 H 0.327677 0.672323 0.917228
O13_6 O 0.25443(9) 0.25443(9) 0.4146(2)
O16_6 O 0.25049(15) 0.34406(10) 0.24612(18)
O18_6 O 0.34406(10) 0.25049(15) 0.24612(18)
H5_6 H 0.356744 0.298609 0.0413859
H7_6 H 0.298609 0.356744 0.0413859
H6_6 H 0.327677 0.327677 0.917228
O13_7 O 0.74557(9) 0.25443(9) 0.4146(2)
O16_7 O 0.65594(10) 0.25049(15) 0.24612(18)
O18_7 O 0.74951(15) 0.34406(10) 0.24612(18)
H5_7 H 0.701391 0.356744 0.0413859
H7_7 H 0.643256 0.298609 0.0413859
H6_7 H 0.672323 0.327677 0.917228
O13_8 O 0.74557(9) 0.74557(9) 0.4146(2)
O16_8 O 0.74951(15) 0.65594(10) 0.24612(18)
O18_8 O 0.65594(10) 0.74951(15) 0.24612(18)
H5_8 H 0.643256 0.701391 0.0413859
H7_8 H 0.701391 0.643256 0.0413859
H6_8 H 0.672323 0.672323 0.917228
Mg1_3 Mg 0.68273(5) 0.68273(5) 0.5000
C1_9 C 0.76691(16) 0.76691(16) 0.5000
C2_9 C 0.81581(19) 0.81581(19) 0.5000
C3_5 C 0.61214(14) 0.7312(2) 0.6980(3)
C4_5 C 0.55020(14) 0.7409(2) 0.7456(3)
C5_5 C 0.53277(16) 0.7651(3) 0.8400(3)
H1_5 H 0.5585 0.7792 0.8948
O2_5 O 0.61404(10) 0.70671(15) 0.60624(18)
O4_9 O 0.5000 0.7260(2) 0.6859(2)
C6_5 C 0.38786(14) 0.7312(2) 0.6980(3)
C7_5 C 0.44980(14) 0.7409(2) 0.7456(3)
C8_5 C 0.46723(16) 0.7651(3) 0.8400(3)
H2_5 H 0.4415 0.7792 0.8948
O6_4 O 0.38596(10) 0.70671(15) 0.60624(18)
C9_5 C 0.7312(2) 0.61214(14) 0.3020(3)
C10_5 C 0.7409(2) 0.55020(14) 0.2544(3)
C11_5 C 0.7651(3) 0.53277(16) 0.1600(3)
H3_5 H 0.7792 0.5585 0.1052
O8_5 O 0.70671(15) 0.61404(10) 0.39376(18)
O10_9 O 0.7260(2) 0.5000 0.3141(2)
C12_5 C 0.7312(2) 0.38786(14) 0.3020(3)
C13_5 C 0.7409(2) 0.44980(14) 0.2544(3)
C14_5 C 0.7651(3) 0.46723(16) 0.1600(3)
H4_5 H 0.7792 0.4415 0.1052
O11_2 O 0.70671(15) 0.38596(10) 0.39376(18)
Mg3_5 Mg 0.31727(5) 0.68273(5) 0.5000
Mg4_3 Mg 0.68273(5) 0.31727(5) 0.5000
O14_4 O 0.61404(10) 0.70671(15) 0.39376(18)
O15_2 O 0.70671(15) 0.61404(10) 0.60624(18)
H5_9 H 0.798609 0.856744 0.458614
H6_9 H 0.827677 0.827677 0.582772
H7_9 H 0.856744 0.798609 0.458614
C1_10 C 0.23309(16) 0.76691(16) 0.5000
C2_10 C 0.18419(19) 0.81581(19) 0.5000
C3_6 C 0.2688(2) 0.61214(14) 0.6980(3)
C4_6 C 0.2591(2) 0.55020(14) 0.7456(3)
C5_6 C 0.2349(3) 0.53277(16) 0.8400(3)
H1_6 H 0.2208 0.5585 0.8948
O2_6 O 0.29329(15) 0.61404(10) 0.60624(18)
O4_10 O 0.2740(2) 0.5000 0.6859(2)
C6_6 C 0.2688(2) 0.38786(14) 0.6980(3)
C7_6 C 0.2591(2) 0.44980(14) 0.7456(3)
C8_6 C 0.2349(3) 0.46723(16) 0.8400(3)
H2_6 H 0.2208 0.4415 0.8948
O6_5 O 0.29329(15) 0.38596(10) 0.60624(18)
C9_6 C 0.38786(14) 0.7312(2) 0.3020(3)
C10_6 C 0.44980(14) 0.7409(2) 0.2544(3)
C11_6 C 0.46723(16) 0.7651(3) 0.1600(3)
H3_6 H 0.4415 0.7792 0.1052
O8_6 O 0.38596(10) 0.70671(15) 0.39376(18)
O10_10 O 0.5000 0.7260(2) 0.3141(2)
C12_6 C 0.61214(14) 0.7312(2) 0.3020(3)
C13_6 C 0.55020(14) 0.7409(2) 0.2544(3)
C14_6 C 0.53277(16) 0.7651(3) 0.1600(3)
H4_6 H 0.5585 0.7792 0.1052
Mg3_6 Mg 0.31727(5) 0.31727(5) 0.5000
O14_5 O 0.29329(15) 0.61404(10) 0.39376(18)
H5_10 H 0.143256 0.798609 0.458614
H6_10 H 0.172323 0.827677 0.582772
H7_10 H 0.201391 0.856744 0.458614
C1_11 C 0.23309(16) 0.23309(16) 0.5000
C2_11 C 0.18419(19) 0.18419(19) 0.5000
C3_7 C 0.38786(14) 0.2688(2) 0.6980(3)
C4_7 C 0.44980(14) 0.2591(2) 0.7456(3)
C5_7 C 0.46723(16) 0.2349(3) 0.8400(3)
H1_7 H 0.4415 0.2208 0.8948
O2_7 O 0.38596(10) 0.29329(15) 0.60624(18)
O4_11 O 0.5000 0.2740(2) 0.6859(2)
C6_7 C 0.61214(14) 0.2688(2) 0.6980(3)
C7_7 C 0.55020(14) 0.2591(2) 0.7456(3)
C8_7 C 0.53277(16) 0.2349(3) 0.8400(3)
H2_7 H 0.5585 0.2208 0.8948
O6_6 O 0.61404(10) 0.29329(15) 0.60624(18)
C9_7 C 0.2688(2) 0.38786(14) 0.3020(3)
C10_7 C 0.2591(2) 0.44980(14) 0.2544(3)
C11_7 C 0.2349(3) 0.46723(16) 0.1600(3)
H3_7 H 0.2208 0.4415 0.1052
O8_7 O 0.29329(15) 0.38596(10) 0.39376(18)
O10_11 O 0.2740(2) 0.5000 0.3141(2)
C12_7 C 0.2688(2) 0.61214(14) 0.3020(3)
C13_7 C 0.2591(2) 0.55020(14) 0.2544(3)
C14_7 C 0.2349(3) 0.53277(16) 0.1600(3)
H4_7 H 0.2208 0.5585 0.1052
O14_6 O 0.38596(10) 0.29329(15) 0.39376(18)
H5_11 H 0.201391 0.143256 0.458614
H6_11 H 0.172323 0.172323 0.582772
H7_11 H 0.143256 0.201391 0.458614
C1_12 C 0.76691(16) 0.23309(16) 0.5000
C2_12 C 0.81581(19) 0.18419(19) 0.5000
C3_8 C 0.7312(2) 0.38786(14) 0.6980(3)
C4_8 C 0.7409(2) 0.44980(14) 0.7456(3)
C5_8 C 0.7651(3) 0.46723(16) 0.8400(3)
H1_8 H 0.7792 0.4415 0.8948
O2_8 O 0.70671(15) 0.38596(10) 0.60624(18)
O4_12 O 0.7260(2) 0.5000 0.6859(2)
C6_8 C 0.7312(2) 0.61214(14) 0.6980(3)
C7_8 C 0.7409(2) 0.55020(14) 0.7456(3)
C8_8 C 0.7651(3) 0.53277(16) 0.8400(3)
H2_8 H 0.7792 0.5585 0.8948
C9_8 C 0.61214(14) 0.2688(2) 0.3020(3)
C10_8 C 0.55020(14) 0.2591(2) 0.2544(3)
C11_8 C 0.53277(16) 0.2349(3) 0.1600(3)
H3_8 H 0.5585 0.2208 0.1052
O8_8 O 0.61404(10) 0.29329(15) 0.39376(18)
O10_12 O 0.5000 0.2740(2) 0.3141(2)
C12_8 C 0.38786(14) 0.2688(2) 0.3020(3)
C13_8 C 0.44980(14) 0.2591(2) 0.2544(3)
C14_8 C 0.46723(16) 0.2349(3) 0.1600(3)
H4_8 H 0.4415 0.2208 0.1052
H5_12 H 0.856744 0.201391 0.458614
H6_12 H 0.827677 0.172323 0.582772
H7_12 H 0.798609 0.143256 0.458614
H5_13 H 0.798609 0.143256 0.541386
H6_13 H 0.827677 0.172323 0.417228
H7_13 H 0.856744 0.201391 0.541386
H5_14 H 0.856744 0.798609 0.541386
H6_14 H 0.827677 0.827677 0.417228
H7_14 H 0.798609 0.856744 0.541386
H5_15 H 0.201391 0.856744 0.541386
H6_15 H 0.172323 0.827677 0.417228
H7_15 H 0.143256 0.798609 0.541386
H5_16 H 0.143256 0.201391 0.541386
H6_16 H 0.172323 0.172323 0.417228
H7_16 H 0.201391 0.143256 0.541386
loop_
_geom_bond_atom_site_label_1
_geom_bond_atom_site_label_2
_geom_bond_site_symmetry_1
_geom_bond_site_symmetry_2
C1 C2 1_555 1_555
C3 C4 1_555 1_555
C4 C5 1_555 1_555
C5 H1 1_555 1_555
O2 Mg1 1_555 1_555
O3 C3 1_555 1_555
O4 C4 1_555 1_555
O5 Mg1 1_555 1_555
Mg6 O3 1_555 1_555
O15 Mg1 1_555 1_555
C1 O5 1_555 1_555
C3 O2 1_555 1_555
O5 Mg6 1_555 1_555
C2 H6 1_555 1_555
Mg1_2 O1 1_555 1_555
Mg2 O1 1_555 1_555
C1_2 C2_2 1_555 1_555
O1 C1_2 1_555 1_555
C9 C10 1_555 1_555
C10 C11 1_555 1_555
C11 H3 1_555 1_555
O8 Mg1_2 1_555 1_555
O9 Mg2 1_555 1_555
O10 C10 1_555 1_555
O13 Mg2 1_555 1_555
O14 Mg1_2 1_555 1_555
O16 Mg2 1_555 1_555
O17 Mg2 1_555 1_555
O18 Mg2 1_555 1_555
C9 O8 1_555 1_555
C9 O9 1_555 1_555
C2_2 H5 1_555 1_555
C2_2 H7 1_555 1_555
C12 C13 1_555 1_555
C13 O10_2 1_555 1_555
H4 C14 1_555 1_555
O11 C12 1_555 1_555
O12 C12 1_555 1_555
Mg4_2 O11 1_555 1_555
Mg5 O12 1_555 1_555
C13 C14 1_555 1_555
C6 C7 1_555 1_555
C7 O4_2 1_555 1_555
H2 C8 1_555 1_555
O6 C6 1_555 1_555
O7 C6 1_555 1_555
Mg3 O6 1_555 1_555
Mg7 O7 1_555 1_555
C7 C8 1_555 1_555
C12_2 C13_2 1_555 1_555
C13_2 O10_3 1_555 1_555
H4_2 C14_2 1_555 1_555
O14 C12_2 1_555 1_555
O17 C12_2 1_555 1_555
C13_2 C14_2 1_555 1_555
C1_3 C2_3 1_555 1_555
C3_2 C4_2 1_555 1_555
C4_2 C5_2 1_555 1_555
C5_2 H1_2 1_555 1_555
O2_2 Mg3 1_555 1_555
O3_2 C3_2 1_555 1_555
O4_3 C4_2 1_555 1_555
O5_2 Mg3 1_555 1_555
Mg7 O3_2 1_555 1_555
C1_3 O5_2 1_555 1_555
C3_2 O2_2 1_555 1_555
O5_2 Mg7 1_555 1_555
C2_3 H6_2 1_555 1_555
Mg3_2 O1_2 1_555 1_555
Mg2_2 O1_2 1_555 1_555
C1_4 C2_4 1_555 1_555
O1_2 C1_4 1_555 1_555
C9_2 C10_2 1_555 1_555
C10_2 C11_2 1_555 1_555
C11_2 H3_2 1_555 1_555
O8_2 Mg3_2 1_555 1_555
O9_2 Mg2_2 1_555 1_555
O10_4 C10_2 1_555 1_555
O13_2 Mg2_2 1_555 1_555
O14_2 Mg3_2 1_555 1_555
O16_2 Mg2_2 1_555 1_555
O17_2 Mg2_2 1_555 1_555
O18_2 Mg2_2 1_555 1_555
C9_2 O8_2 1_555 1_555
C9_2 O9_2 1_555 1_555
C2_4 H5_2 1_555 1_555
C2_4 H7_2 1_555 1_555
C6_2 C7_2 1_555 1_555
C7_2 O4_4 1_555 1_555
H2_2 C8_2 1_555 1_555
O6_2 C6_2 1_555 1_555
O7_2 C6_2 1_555 1_555
Mg3_3 O6_2 1_555 1_555
Mg7_2 O7_2 1_555 1_555
C7_2 C8_2 1_555 1_555
C6_3 C7_3 1_555 1_555
C7_3 O4_5 1_555 1_555
H2_3 C8_3 1_555 1_555
O6_3 C6_3 1_555 1_555
O7_3 C6_3 1_555 1_555
Mg4 O6_3 1_555 1_555
Mg7_3 O7_3 1_555 1_555
C7_3 C8_3 1_555 1_555
C12_3 C13_3 1_555 1_555
C13_3 O10_5 1_555 1_555
H4_3 C14_3 1_555 1_555
O14_2 C12_3 1_555 1_555
O17_2 C12_3 1_555 1_555
C13_3 C14_3 1_555 1_555
C1_5 C2_5 1_555 1_555
C3_3 C4_3 1_555 1_555
C4_3 C5_3 1_555 1_555
C5_3 H1_3 1_555 1_555
O2_3 Mg3_3 1_555 1_555
O3_3 C3_3 1_555 1_555
O4_6 C4_3 1_555 1_555
O5_3 Mg3_3 1_555 1_555
Mg7_2 O3_3 1_555 1_555
C1_5 O5_3 1_555 1_555
C3_3 O2_3 1_555 1_555
O5_3 Mg7_2 1_555 1_555
C2_5 H6_3 1_555 1_555
Mg3_4 O1_3 1_555 1_555
Mg2_3 O1_3 1_555 1_555
C1_6 C2_6 1_555 1_555
O1_3 C1_6 1_555 1_555
C9_3 C10_3 1_555 1_555
C10_3 C11_3 1_555 1_555
C11_3 H3_3 1_555 1_555
O8_3 Mg3_4 1_555 1_555
O9_3 Mg2_3 1_555 1_555
O10_6 C10_3 1_555 1_555
O13_3 Mg2_3 1_555 1_555
O14_3 Mg3_4 1_555 1_555
O16_3 Mg2_3 1_555 1_555
O17_3 Mg2_3 1_555 1_555
O18_3 Mg2_3 1_555 1_555
C9_3 O8_3 1_555 1_555
C9_3 O9_3 1_555 1_555
C2_6 H5_3 1_555 1_555
C2_6 H7_3 1_555 1_555
C6_4 C7_4 1_555 1_555
C7_4 O4_7 1_555 1_555
H2_4 C8_4 1_555 1_555
O15 C6_4 1_555 1_555
O7_4 C6_4 1_555 1_555
Mg6 O7_4 1_555 1_555
C7_4 C8_4 1_555 1_555
C1_7 C2_7 1_555 1_555
C3_4 C4_4 1_555 1_555
C4_4 C5_4 1_555 1_555
C5_4 H1_4 1_555 1_555
O2_4 Mg4 1_555 1_555
O3_4 C3_4 1_555 1_555
O4_8 C4_4 1_555 1_555
O5_4 Mg4 1_555 1_555
Mg7_3 O3_4 1_555 1_555
C1_7 O5_4 1_555 1_555
C3_4 O2_4 1_555 1_555
O5_4 Mg7_3 1_555 1_555
C2_7 H6_4 1_555 1_555
Mg4_2 O1_4 1_555 1_555
Mg5 O1_4 1_555 1_555
C1_8 C2_8 1_555 1_555
O1_4 C1_8 1_555 1_555
C9_4 C10_4 1_555 1_555
C10_4 C11_4 1_555 1_555
C11_4 H3_4 1_555 1_555
O8_4 Mg4_2 1_555 1_555
O9_4 Mg5 1_555 1_555
O10_7 C10_4 1_555 1_555
O13_4 Mg5 1_555 1_555
O16_4 Mg5 1_555 1_555
O18_4 Mg5 1_555 1_555
C9_4 O8_4 1_555 1_555
C9_4 O9_4 1_555 1_555
C2_8 H5_4 1_555 1_555
C2_8 H7_4 1_555 1_555
C12_4 C13_4 1_555 1_555
C13_4 O10_8 1_555 1_555
H4_4 C14_4 1_555 1_555
O14_3 C12_4 1_555 1_555
O17_3 C12_4 1_555 1_555
C13_4 C14_4 1_555 1_555
O13_5 Mg7_3 1_555 1_555
O16_5 Mg7_3 1_555 1_555
O18_5 Mg7_3 1_555 1_555
C2_7 H5_5 1_555 1_555
C2_7 H7_5 1_555 1_555
C2_8 H6_5 1_555 1_555
O13_6 Mg6 1_555 1_555
O16_6 Mg6 1_555 1_555
O18_6 Mg6 1_555 1_555
C2 H5_6 1_555 1_555
C2 H7_6 1_555 1_555
C2_2 H6_6 1_555 1_555
O13_7 Mg7 1_555 1_555
O16_7 Mg7 1_555 1_555
O18_7 Mg7 1_555 1_555
C2_3 H5_7 1_555 1_555
C2_3 H7_7 1_555 1_555
C2_4 H6_7 1_555 1_555
O13_8 Mg7_2 1_555 1_555
O16_8 Mg7_2 1_555 1_555
O18_8 Mg7_2 1_555 1_555
C2_5 H5_8 1_555 1_555
C2_5 H7_8 1_555 1_555
C2_6 H6_8 1_555 1_555
Mg1_3 O13_8 1_555 1_555
C1_9 C2_9 1_555 1_555
C3_5 C4_5 1_555 1_555
C4_5 C5_5 1_555 1_555
C5_5 H1_5 1_555 1_555
O13_8 C1_9 1_555 1_555
O2_5 Mg1_3 1_555 1_555
O16_3 C3_5 1_555 1_555
O4_9 C4_5 1_555 1_555
O13_3 Mg1_3 1_555 1_555
C6_5 C7_5 1_555 1_555
C7_5 O4_9 1_555 1_555
C8_5 C5_5 1_555 1_555
H2_5 C8_5 1_555 1_555
O6_4 C6_5 1_555 1_555
O18_4 C6_5 1_555 1_555
C9_5 C10_5 1_555 1_555
C10_5 C11_5 1_555 1_555
C11_5 H3_5 1_555 1_555
O8_5 Mg1_3 1_555 1_555
O10_9 C10_5 1_555 1_555
C12_5 C13_5 1_555 1_555
C13_5 O10_9 1_555 1_555
C14_5 C11_5 1_555 1_555
H4_5 C14_5 1_555 1_555
O11_2 C12_5 1_555 1_555
O18_7 C12_5 1_555 1_555
Mg3_5 O6_4 1_555 1_555
Mg4_3 O11_2 1_555 1_555
O14_4 Mg1_3 1_555 1_555
O15_2 Mg1_3 1_555 1_555
C1_9 O13_3 1_555 1_555
C3_5 O2_5 1_555 1_555
C7_5 C8_5 1_555 1_555
C9_5 O8_5 1_555 1_555
C9_5 O16_8 1_555 1_555
C13_5 C14_5 1_555 1_555
C2_9 H5_9 1_555 1_555
C2_9 H6_9 1_555 1_555
C2_9 H7_9 1_555 1_555
Mg3_5 O13_5 1_555 1_555
C1_10 C2_10 1_555 1_555
C3_6 C4_6 1_555 1_555
C4_6 C5_6 1_555 1_555
C5_6 H1_6 1_555 1_555
O13_5 C1_10 1_555 1_555
O2_6 Mg3_5 1_555 1_555
O16_4 C3_6 1_555 1_555
O4_10 C4_6 1_555 1_555
O13_4 Mg3_5 1_555 1_555
C6_6 C7_6 1_555 1_555
C7_6 O4_10 1_555 1_555
C8_6 C5_6 1_555 1_555
H2_6 C8_6 1_555 1_555
O6_5 C6_6 1_555 1_555
O18 C6_6 1_555 1_555
C9_6 C10_6 1_555 1_555
C10_6 C11_6 1_555 1_555
C11_6 H3_6 1_555 1_555
O8_6 Mg3_5 1_555 1_555
O10_10 C10_6 1_555 1_555
C12_6 C13_6 1_555 1_555
C13_6 O10_10 1_555 1_555
C14_6 C11_6 1_555 1_555
H4_6 C14_6 1_555 1_555
O14_4 C12_6 1_555 1_555
O18_8 C12_6 1_555 1_555
Mg3_6 O6_5 1_555 1_555
O14_5 Mg3_5 1_555 1_555
C1_10 O13_4 1_555 1_555
C3_6 O2_6 1_555 1_555
C7_6 C8_6 1_555 1_555
C9_6 O8_6 1_555 1_555
C9_6 O16_5 1_555 1_555
C13_6 C14_6 1_555 1_555
C2_10 H5_10 1_555 1_555
C2_10 H6_10 1_555 1_555
C2_10 H7_10 1_555 1_555
Mg3_6 O13_6 1_555 1_555
C1_11 C2_11 1_555 1_555
C3_7 C4_7 1_555 1_555
C4_7 C5_7 1_555 1_555
C5_7 H1_7 1_555 1_555
O13_6 C1_11 1_555 1_555
O2_7 Mg3_6 1_555 1_555
O16 C3_7 1_555 1_555
O4_11 C4_7 1_555 1_555
O13 Mg3_6 1_555 1_555
C6_7 C7_7 1_555 1_555
C7_7 O4_11 1_555 1_555
C8_7 C5_7 1_555 1_555
H2_7 C8_7 1_555 1_555
O6_6 C6_7 1_555 1_555
O18_2 C6_7 1_555 1_555
C9_7 C10_7 1_555 1_555
C10_7 C11_7 1_555 1_555
C11_7 H3_7 1_555 1_555
O8_7 Mg3_6 1_555 1_555
O10_11 C10_7 1_555 1_555
C12_7 C13_7 1_555 1_555
C13_7 O10_11 1_555 1_555
C14_7 C11_7 1_555 1_555
H4_7 C14_7 1_555 1_555
O14_5 C12_7 1_555 1_555
O18_5 C12_7 1_555 1_555
Mg4_3 O6_6 1_555 1_555
O14_6 Mg3_6 1_555 1_555
C1_11 O13 1_555 1_555
C3_7 O2_7 1_555 1_555
C7_7 C8_7 1_555 1_555
C9_7 O8_7 1_555 1_555
C9_7 O16_6 1_555 1_555
C13_7 C14_7 1_555 1_555
C2_11 H5_11 1_555 1_555
C2_11 H6_11 1_555 1_555
C2_11 H7_11 1_555 1_555
Mg4_3 O13_7 1_555 1_555
C1_12 C2_12 1_555 1_555
C3_8 C4_8 1_555 1_555
C4_8 C5_8 1_555 1_555
C5_8 H1_8 1_555 1_555
O13_7 C1_12 1_555 1_555
O2_8 Mg4_3 1_555 1_555
O16_2 C3_8 1_555 1_555
O4_12 C4_8 1_555 1_555
O13_2 Mg4_3 1_555 1_555
C6_8 C7_8 1_555 1_555
C7_8 O4_12 1_555 1_555
C8_8 C5_8 1_555 1_555
H2_8 C8_8 1_555 1_555
O15_2 C6_8 1_555 1_555
O18_3 C6_8 1_555 1_555
C9_8 C10_8 1_555 1_555
C10_8 C11_8 1_555 1_555
C11_8 H3_8 1_555 1_555
O8_8 Mg4_3 1_555 1_555
O10_12 C10_8 1_555 1_555
C12_8 C13_8 1_555 1_555
C13_8 O10_12 1_555 1_555
C14_8 C11_8 1_555 1_555
H4_8 C14_8 1_555 1_555
O14_6 C12_8 1_555 1_555
O18_6 C12_8 1_555 1_555
C1_12 O13_2 1_555 1_555
C3_8 O2_8 1_555 1_555
C7_8 C8_8 1_555 1_555
C9_8 O8_8 1_555 1_555
C9_8 O16_7 1_555 1_555
C13_8 C14_8 1_555 1_555
C2_12 H5_12 1_555 1_555
C2_12 H6_12 1_555 1_555
C2_12 H7_12 1_555 1_555
C2_12 H5_13 1_555 1_555
C2_12 H6_13 1_555 1_555
C2_12 H7_13 1_555 1_555
C2_9 H5_14 1_555 1_555
C2_9 H6_14 1_555 1_555
C2_9 H7_14 1_555 1_555
C2_10 H5_15 1_555 1_555
C2_10 H6_15 1_555 1_555
C2_10 H7_15 1_555 1_555
C2_11 H5_16 1_555 1_555
C2_11 H6_16 1_555 1_555
C2_11 H7_16 1_555 1_555

#END
