
###############################################################################
#
# This file contains modified crystal structure data generated from the
# MOF subset of the Cambridge Structural Database (CSD) v543 
# hosted by the Cambridge Crystallographic Data Centre (CCDC).
#
# This work is licensed under the Creative Commons
# Attribution-NonCommercial-ShareAlike 4.0 International License.
# To view a copy of this license, visit
# http://creativecommons.org/licenses/by-nc-sa/4.0/
# or send a letter to
# Creative Commons, PO Box 1866, Mountain View, CA 94042, USA.
#
# CIF created using the CSD Python API on 29 September 2022
# The structure has been converted into the P1 space group
# The structure has a 3D framework
# The original CSD entry QIMFAW is in the rhombohedral crystal system
# The framework has been calculated to contain at least 10.0% void space
# The void calculation uses a probe of radius 1.32A, grid spacing 0.4
# The framework is charged, counterions have been retained in the structure
#
###############################################################################

data_QIMFAW
_chemical_formula_moiety         '(C1368 H864 Mg54 O374 74-)n'
_symmetry_cell_setting           triclinic
_symmetry_space_group_name_H-M   'P 1'
_symmetry_Int_Tables_number      1
_space_group_name_Hall           'P 1'
loop_
_symmetry_equiv_pos_site_id
_symmetry_equiv_pos_as_xyz
1 x,y,z
_cell_length_a                   44.2587(6)
_cell_length_b                   44.2587(6)
_cell_length_c                   40.9798(5)
_cell_angle_alpha                90
_cell_angle_beta                 90
_cell_angle_gamma                120
_cell_volume                     69518.1
loop_
_atom_site_label
_atom_site_type_symbol
_atom_site_fract_x
_atom_site_fract_y
_atom_site_fract_z
Mg1 Mg 0.17370(3) 0.21998(3) 0.80644(3)
Mg2 Mg 0.23539(3) 0.19383(3) 0.81511(3)
C2 C 0.35477(11) 0.37905(11) 0.71094(11)
C3 C 0.1195(3) 0.2023(4) 0.8603(4)
C4 C 0.3109(3) 0.2145(3) 0.8385(2)
C5 C 0.09453(14) 0.05812(13) 0.82711(17)
H1 H 0.0893 0.0379 0.8385
C9 C 0.00068(18) 0.3286(2) 0.73581(15)
H5 H 0.0221 0.3329 0.7438
C10 C 0.12815(13) 0.08707(14) 0.82832(16)
H6 H 0.1455 0.0857 0.8400
C12 C 0.01816(14) 0.23785(13) 0.56146(12)
H7 H 0.0358 0.2410 0.5472
C13 C 0.06903(12) 0.05980(12) 0.80884(16)
C15 C 0.45843(12) 0.44826(11) 0.75196(12)
H8 H 0.4400 0.4423 0.7663
C17 C 0.07356(16) 0.23117(17) 0.70913(12)
H10 H 0.0609 0.2169 0.6918
C19 C 0.09742(15) 0.22464(15) 0.72646(14)
H11 H 0.1015 0.2070 0.7194
C21 C 0.17179(12) 0.14799(14) 0.81426(12)
C22 C 0.03439(12) 0.02980(12) 0.80629(15)
C24 C 0.49238(17) 0.46311(13) 0.76328(13)
H14 H 0.4965 0.4662 0.7856
C25 C 0.10902(12) 0.27070(14) 0.76131(11)
H15 H 0.1198 0.2842 0.7797
C26 C 0.08655(13) 0.27829(14) 0.74149(16)
H16 H 0.0850 0.2980 0.7462
C27 C 0.30989(12) 0.29760(12) 0.76160(11)
H17 H 0.3159 0.2832 0.7730
C28 C 0.32857(11) 0.42356(12) 0.58921(13)
H18 H 0.3061 0.4186 0.5840
C29 C 0.55697(15) 0.49039(12) 0.7559(2)
C31 C 0.11081(12) 0.11865(11) 0.79624(13)
H19 H 0.1155 0.1393 0.7860
C32 C 0.07749(12) 0.09037(13) 0.79369(14)
H20 H 0.0607 0.0922 0.7816
C33 C 0.33530(11) 0.32568(13) 0.74614(11)
H21 H 0.3581 0.3300 0.7468
C34 C 0.38720(11) 0.44673(11) 0.57538(12)
H22 H 0.4058 0.4578 0.5609
C35 C 0.33475(12) 0.41601(12) 0.61969(11)
H23 H 0.3163 0.4051 0.6344
C36 C 0.02538(13) 0.24681(12) 0.59480(13)
H24 H 0.0478 0.2543 0.6026
C37 C 0.39330(11) 0.43905(13) 0.60657(12)
H25 H 0.4158 0.4444 0.6120
C38 C 0.24786(13) 0.25740(11) 0.77873(10)
C39 C 0.52000(14) 0.47337(11) 0.74263(16)
C40 C 0.26751(11) 0.31169(12) 0.74503(10)
H26 H 0.2447 0.3075 0.7452
C41 C 0.38913(11) 0.39778(11) 0.72321(10)
H27 H 0.3939 0.3922 0.7437
C42 C 0.01033(11) 0.25769(11) 0.64957(11)
C43 C 0.45250(12) 0.44242(11) 0.71832(12)
C44 C 0.37492(11) 0.41526(11) 0.66210(11)
C45 C 0.13609(12) 0.11806(12) 0.81219(13)
C46 C 0.11458(11) 0.24387(12) 0.75327(12)
C47 C 0.29324(12) 0.34053(12) 0.72842(10)
H28 H 0.2870 0.3546 0.7167
C48 C 0.47944(12) 0.45213(10) 0.69801(11)
H29 H 0.4750 0.4483 0.6758
C49 C 0.00331(12) 0.28740(11) 0.69556(12)
C50 C 0.13774(11) 0.23585(14) 0.77299(12)
C51 C 0.40750(11) 0.43275(11) 0.67576(10)
H30 H 0.4252 0.4515 0.6645
C52 C 0.27553(11) 0.28918(11) 0.76129(10)
C53 C 0.41530(11) 0.42358(11) 0.70601(10)
C54 C 0.03396(10) 0.25275(11) 0.66690(11)
H31 H 0.0443 0.2412 0.6570
C55 C 0.00065(13) 0.24482(11) 0.61599(12)
C56 C 0.51369(12) 0.46770(10) 0.70881(12)
H32 H 0.5320 0.4742 0.6942
C58 C 0.36832(11) 0.42427(10) 0.62952(10)
C59 C 0.34770(14) 0.44706(11) 0.53225(11)
C60 C 0.06909(12) 0.25902(12) 0.71811(10)
C61 C 0.34930(10) 0.38812(11) 0.68034(11)
H34 H 0.3271 0.3753 0.6713
C63 C 0.02738(11) 0.28240(11) 0.71264(10)
H35 H 0.0334 0.2911 0.7338
C64 C 0.32747(11) 0.34877(12) 0.72877(10)
C65 C 0.35460(11) 0.43844(10) 0.56527(10)
C66 C 0.04300(10) 0.26450(11) 0.69886(10)
C67 C 0.33044(18) 0.19737(19) 0.83246(17)
H36 H 0.3148 0.1736 0.8264
H37 H 0.3429 0.1980 0.8519
H38 H 0.3467 0.2090 0.8151
O1 O 0.1088(2) 0.1787(2) 0.8842(2)
O4 O 0.32099(18) 0.2486(3) 0.8470(2)
C68 C 0.1229(3) 0.2368(2) 0.8687(2)
H39 H 0.1310 0.2518 0.8500
H40 H 0.1393 0.2474 0.8863
H41 H 0.1006 0.2334 0.8753
O9 O 0.23832(11) 0.17112(13) 0.77051(9)
H42 H 0.2255 0.1699 0.7545
H43 H 0.2523 0.1633 0.7686
O10 O 0.58035(9) 0.49540(10) 0.73639(11)
O11 O 0.27776(9) 0.19230(9) 0.82979(10)
O12 O 0.13255(10) 0.19293(11) 0.83721(10)
O13 O 0.25781(7) 0.23906(8) 0.79275(8)
O14 O 0.19515(8) 0.14368(7) 0.82798(8)
O15 O 0.56300(9) 0.49934(8) 0.78484(10)
O16 O 0.15578(8) 0.25618(8) 0.79644(7)
O17 O 0.37267(7) 0.46372(7) 0.51388(7)
O18 O 0.31557(8) 0.43579(7) 0.52451(6)
O19 O 0.21697(7) 0.25080(6) 0.77767(6)
O20 O 0.13880(6) 0.20852(8) 0.76667(7)
O21 O 0.18032(6) 0.17795(7) 0.80220(7)
C69 C 0.0048(3) 0.11664(18) 0.43736(18)
H44 H 0.0189 0.1362 0.4248
C71 C 0.01230(17) 0.08901(15) 0.43850(14)
H46 H 0.0321 0.0911 0.4285
C80 C 0.00398(14) 0.03254(18) 0.80711(15)
H51 H 0.0068 0.0548 0.8083
C104 C 0.1850(4) 0.0337(2) 0.4499(3)
O28 O 0.19681(23) 0.05210(17) 0.4691(2)
O29 O 0.1746(4) 0.0063(3) 0.4396(2)
C106 C 0.12986(25) 0.04367(16) 0.46922(18)
H65 H 0.1474 0.0633 0.4795
C108 C 0.09578(18) 0.03771(13) 0.47043(14)
H67 H 0.0912 0.0529 0.4823
C109 C 0.1381(4) 0.0225(3) 0.4540(2)
C110 C 0.06953(17) 0.01088(13) 0.45511(12)
C111 C 0.02820(16) 0.03292(10) 0.45443(9)
H68 H 0.0474 0.0554 0.4545
C112 C 0.03380(16) 0.00496(11) 0.45442(9)
Mg9 Mg 0.24234(5) 0.05264(4) 0.45843(4)
C171 C 0.2389(4) 0.0244(3) 0.5169(2)
C175 C 0.35964(28) 0.0138(2) 0.74934(14)
H107 H 0.3645 0.0017 0.7650
C176 C 0.37744(26) 0.06184(17) 0.7168(2)
H108 H 0.3938 0.0842 0.7101
C177 C 0.34331(25) 0.04414(18) 0.70114(18)
H109 H 0.3389 0.0548 0.6837
C180 C 0.38540(22) 0.04705(16) 0.73993(17)
C182 C 0.26220(20) 0.03986(15) 0.57155(19)
H113 H 0.2765 0.0626 0.5643
C184 C 0.4259(4) 0.0727(3) 0.7578(2)
C186 C 0.26461(18) 0.03242(13) 0.60322(15)
H116 H 0.2805 0.0501 0.6168
C193 C 0.24036(23) 0.01614(18) 0.55037(15)
C217 C 0.27941(16) 0.00487(11) 0.66505(12)
H134 H 0.2988 0.0217 0.6538
C222 C 0.31924(18) 0.01400(13) 0.71108(12)
O48 O 0.25793(16) 0.05568(13) 0.50646(10)
O49 O 0.21959(22) 0.00195(17) 0.49783(11)
O51 O 0.4287(3) 0.0512(2) 0.77326(13)
O52 O 0.44273(23) 0.09310(15) 0.7449(3)
Mg12 Mg 0.37961(4) 0.49297(3) 0.47311(3)
Mg15 Mg 0.29177(4) 0.43128(3) 0.48178(3)
Mg17 Mg 0.61403(4) 0.52303(3) 0.79176(4)
Mg19 Mg 0.47697(3) 0.09099(5) 0.79176(4)
O64 O 0.2821(2) 0.0442(2) 0.43993(13)
O69 O 0.26967(12) 0.10367(9) 0.45151(10)
O71 O 0.20295(7) 0.24228(10) 0.84721(7)
O74 O 0.23088(7) 0.21311(11) 0.85784(6)
C20 C 0.02856(12) 0.99602(14) 0.80711(15)
H12 H 0.0480 0.9932 0.8083
C92 C 0.00784(16) 0.88919(12) 0.79624(13)
H57 H 0.0238 0.8845 0.7860
C93 C 0.01288(18) 0.92251(12) 0.79369(14)
H58 H 0.0315 0.9393 0.7816
C102 C 0.00472(12) 0.97180(16) 0.45443(9)
H63 H 0.0080 0.9526 0.4545
C105 C 0.11184(35) 0.9952(3) 0.43736(18)
H64 H 0.1173 0.9811 0.4248
C107 C 0.07671(23) 0.98770(17) 0.43850(14)
H66 H 0.0590 0.9679 0.4285
Mg7 Mg 0.04628(4) 0.82630(3) 0.80644(3)
C172 C 0.02428(16) 0.64523(11) 0.71094(11)
C173 C 0.0828(5) 0.8805(3) 0.8603(4)
C178 C 0.32792(27) 0.99932(18) 0.73581(15)
H110 H 0.3108 0.9779 0.7438
C179 C 0.21969(19) 0.98184(14) 0.56146(12)
H111 H 0.2052 0.9642 0.5472
H112 H 0.0023 0.5600 0.7663
C183 C 0.15761(23) 0.92644(16) 0.70913(12)
H114 H 0.1560 0.9391 0.6918
C185 C 0.12722(21) 0.90258(15) 0.72646(14)
H115 H 0.1055 0.8985 0.7194
C188 C 0.16168(18) 0.89098(12) 0.76131(11)
H118 H 0.1644 0.8802 0.7797
C189 C 0.19174(19) 0.91345(13) 0.74149(16)
H119 H 0.2130 0.9150 0.7462
C191 C 0.09499(16) 0.67143(11) 0.58921(13)
H121 H 0.1125 0.6939 0.5840
C195 C 0.05953(16) 0.61280(11) 0.57538(12)
H123 H 0.0520 0.5942 0.5609
C196 C 0.08126(17) 0.66525(12) 0.61969(11)
H124 H 0.0888 0.6837 0.6344
C197 C 0.22143(18) 0.97462(13) 0.59480(13)
H125 H 0.2065 0.9522 0.6026
C198 C 0.04575(17) 0.60670(11) 0.60657(12)
H126 H 0.0286 0.5842 0.6120
C199 C 0.00954(17) 0.75214(13) 0.77873(10)
C201 C 0.04418(16) 0.73249(11) 0.74503(10)
H127 H 0.0628 0.7553 0.7452
C202 C 0.00865(16) 0.61087(11) 0.72321(10)
C203 C 0.24736(16) 0.98967(11) 0.64957(11)
C205 C 0.04034(16) 0.62508(11) 0.66210(11)
C206 C 0.12929(16) 0.88542(11) 0.75327(12)
C207 C 0.04729(17) 0.70676(12) 0.72842(10)
H129 H 0.0676 0.7130 0.7167
C209 C 0.28409(16) 0.99669(12) 0.69556(12)
C210 C 0.09811(18) 0.86226(11) 0.77299(12)
C211 C 0.02525(16) 0.59250(11) 0.67576(10)
H131 H 0.0263 0.5748 0.6645
C212 C 0.01365(16) 0.72447(11) 0.76129(10)
C213 C 0.00828(16) 0.58470(11) 0.70601(10)
C214 C 0.21879(15) 0.96604(10) 0.66690(11)
H132 H 0.1969 0.9557 0.6570
C215 C 0.24417(17) 0.99935(13) 0.61599(12)
C218 C 0.05595(15) 0.63168(11) 0.62952(10)
C219 C 0.09936(18) 0.65230(14) 0.53225(11)
C220 C 0.18993(17) 0.93091(12) 0.71811(10)
C221 C 0.03882(15) 0.65070(10) 0.68034(11)
H135 H 0.0482 0.6729 0.6713
C223 C 0.25502(16) 0.97262(11) 0.71264(10)
H136 H 0.2577 0.9666 0.7338
C224 C 0.02130(16) 0.67253(11) 0.72877(10)
C225 C 0.08384(15) 0.64540(11) 0.56527(10)
C226 C 0.22150(15) 0.95700(10) 0.69886(10)
O47 O 0.0699(3) 0.8912(2) 0.8842(2)
C228 C 0.1139(4) 0.8771(3) 0.8687(2)
H140 H 0.1208 0.8690 0.8500
H141 H 0.1081 0.8607 0.8863
H142 H 0.1328 0.8994 0.8753
O56 O 0.06038(15) 0.86745(10) 0.83721(10)
O59 O 0.10040(11) 0.84422(8) 0.79644(7)
O60 O 0.09105(10) 0.62733(7) 0.51388(7)
O61 O 0.12022(11) 0.68443(8) 0.52451(6)
O62 O 0.03383(9) 0.78303(7) 0.77767(6)
O63 O 0.06972(10) 0.86120(6) 0.76667(7)
Mg11 Mg 0.11335(3) 0.62039(4) 0.47311(3)
Mg14 Mg 0.13950(3) 0.70823(4) 0.48178(3)
O70 O 0.03934(7) 0.79705(7) 0.84721(7)
Mg3 Mg 0.94736(4) 0.18970(3) 0.45843(4)
C1 C 0.9756(3) 0.2145(2) 0.5169(2)
C6 C 0.9862(2) 0.34584(19) 0.74934(14)
H2 H 0.9983 0.3628 0.7650
C7 C 0.93816(17) 0.3156(2) 0.7168(2)
H3 H 0.9158 0.3096 0.7101
C8 C 0.95586(18) 0.29917(18) 0.70114(18)
H4 H 0.9452 0.2841 0.6837
C11 C 0.9663(2) 0.1513(3) 0.4499(3)
C14 C 0.95295(16) 0.33835(15) 0.73993(17)
C16 C 0.96014(15) 0.22234(13) 0.57155(19)
H9 H 0.9374 0.2139 0.5643
C18 C 0.9273(3) 0.3532(2) 0.7578(2)
C23 C 0.96758(13) 0.23219(13) 0.60322(15)
H13 H 0.9499 0.2304 0.6168
C30 C 0.98386(18) 0.22422(14) 0.55037(15)
C57 C 0.99513(11) 0.27454(11) 0.66505(12)
H33 H 0.9783 0.2771 0.6538
C62 C 0.98600(13) 0.30524(12) 0.71108(12)
O2 O 0.94432(13) 0.20225(10) 0.50646(10)
O3 O 0.99805(17) 0.21764(14) 0.49783(11)
O5 O 0.94790(17) 0.14471(16) 0.4691(2)
O6 O 0.9937(3) 0.1683(3) 0.4396(2)
O7 O 0.9488(2) 0.3775(2) 0.77326(13)
O8 O 0.90690(15) 0.34963(18) 0.7449(3)
C70 C 0.95633(16) 0.08619(19) 0.46922(18)
H45 H 0.9367 0.0841 0.4795
C72 C 0.96229(13) 0.05807(13) 0.47043(14)
H47 H 0.9471 0.0383 0.4823
C73 C 0.9775(3) 0.1156(2) 0.4540(2)
C74 C 0.98912(13) 0.05865(11) 0.45511(12)
C76 C 0.99504(11) 0.02884(11) 0.45442(9)
C77 C 0.94188(13) 0.03641(19) 0.82711(17)
H49 H 0.9621 0.0514 0.8385
C78 C 0.91293(14) 0.04108(19) 0.82832(16)
H50 H 0.9143 0.0598 0.8400
C79 C 0.94020(12) 0.00923(17) 0.80884(16)
C81 C 0.85201(14) 0.02380(18) 0.81426(12)
C82 C 0.97020(12) 0.00459(17) 0.80629(15)
C85 C 0.88194(12) 0.01803(17) 0.81219(13)
O22 O 0.85632(7) 0.05147(11) 0.82798(8)
O23 O 0.82205(7) 0.00237(9) 0.80220(7)
Mg5 Mg 0.80617(3) 0.04156(4) 0.81511(3)
C116 C 0.7855(3) 0.0964(4) 0.8385(2)
C123 C 0.55174(11) 0.01017(16) 0.75196(12)
C129 C 0.53689(13) 0.02927(21) 0.76328(13)
H79 H 0.5338 0.0303 0.7856
C132 C 0.70240(12) 0.01229(17) 0.76160(11)
H82 H 0.7168 0.0327 0.7730
C134 C 0.50961(12) 0.06658(19) 0.7559(2)
C136 C 0.67432(13) 0.00962(17) 0.74614(11)
H84 H 0.6700 0.0281 0.7468
C142 C 0.52663(11) 0.04663(18) 0.74263(16)
H90 H 0.6078 0.0017 0.7437
C146 C 0.55758(11) 0.01008(16) 0.71832(12)
C150 C 0.54787(10) 0.02731(16) 0.69801(11)
H92 H 0.5517 0.0267 0.6758
C158 C 0.53230(10) 0.04599(16) 0.70881(12)
H95 H 0.5258 0.0578 0.6942
C169 C 0.80263(19) 0.13307(26) 0.83246(17)
H99 H 0.8264 0.1412 0.8264
H100 H 0.8020 0.1449 0.8519
H101 H 0.7910 0.1377 0.8151
O33 O 0.7514(3) 0.07239(35) 0.8470(2)
O36 O 0.82888(13) 0.06720(17) 0.77051(9)
H105 H 0.8301 0.0556 0.7545
H106 H 0.8367 0.0890 0.7686
O37 O 0.50460(10) 0.08495(13) 0.73639(11)
O38 O 0.80770(9) 0.08546(13) 0.82979(10)
O40 O 0.76094(8) 0.01875(11) 0.79275(8)
O41 O 0.50066(8) 0.06366(12) 0.78484(10)
Mg21 Mg 0.90901(5) 0.38597(4) 0.79176(4)
O65 O 0.9558(2) 0.2380(3) 0.43993(13)
O67 O 0.89633(9) 0.16601(8) 0.45151(10)
O75 O 0.78689(11) 0.01776(8) 0.85784(6)
C75 C 0.96708(10) 0.99528(12) 0.45443(9)
H48 H 0.9446 0.9920 0.4545
C83 C 0.88135(11) 0.99216(16) 0.79624(13)
H52 H 0.8607 0.9762 0.7860
C84 C 0.90963(13) 0.98712(18) 0.79369(14)
H53 H 0.9078 0.9685 0.7816
C86 C 0.96359(19) 0.90547(14) 0.82711(17)
H54 H 0.9486 0.9107 0.8385
C87 C 0.95892(19) 0.87185(13) 0.82832(16)
H55 H 0.9402 0.8545 0.8400
C88 C 0.99077(17) 0.93097(12) 0.80884(16)
C89 C 0.96746(18) 0.97144(12) 0.80711(15)
H56 H 0.9452 0.9520 0.8083
C90 C 0.97620(18) 0.82821(12) 0.81426(12)
C91 C 0.99541(17) 0.96561(12) 0.80629(15)
C94 C 0.98197(17) 0.86391(12) 0.81219(13)
O24 O 0.94853(11) 0.80485(8) 0.82798(8)
O25 O 0.99763(9) 0.81968(6) 0.80220(7)
C95 C 0.8487(3) 0.8150(4) 0.4499(3)
O26 O 0.85529(16) 0.80319(23) 0.4691(2)
O27 O 0.8317(3) 0.8254(4) 0.4396(2)
C96 C 0.88336(18) 0.88816(35) 0.43736(18)
H59 H 0.8638 0.8827 0.4248
C97 C 0.91381(19) 0.87014(25) 0.46922(18)
H60 H 0.9159 0.8526 0.4795
C98 C 0.91099(15) 0.92329(23) 0.43850(14)
H61 H 0.9089 0.9410 0.4285
C99 C 0.94193(13) 0.90422(18) 0.47043(14)
H62 H 0.9617 0.9088 0.4823
C100 C 0.8844(2) 0.8619(4) 0.4540(2)
C101 C 0.94135(11) 0.93047(17) 0.45511(12)
C103 C 0.97116(11) 0.96620(16) 0.45442(9)
Mg4 Mg 0.78002(3) 0.95372(4) 0.80644(3)
Mg6 Mg 0.81030(3) 0.75766(5) 0.45843(4)
C113 C 0.7855(2) 0.7611(4) 0.5169(2)
C114 C 0.62095(11) 0.97572(16) 0.71094(11)
C115 C 0.7977(4) 0.9172(5) 0.8603(4)
C117 C 0.65416(19) 0.64036(28) 0.74934(14)
H69 H 0.6372 0.6355 0.7650
C118 C 0.6844(2) 0.62256(26) 0.7168(2)
H70 H 0.6904 0.6062 0.7101
C119 C 0.70083(18) 0.65669(25) 0.70114(18)
H71 H 0.7159 0.6611 0.6837
C120 C 0.6714(2) 0.67208(27) 0.73581(15)
H72 H 0.6671 0.6892 0.7438
C121 C 0.76215(13) 0.78031(19) 0.56146(12)
H73 H 0.7590 0.7948 0.5472
C122 C 0.66165(15) 0.61460(22) 0.73993(17)
H74 H 0.5577 0.9977 0.7663
C124 C 0.77766(13) 0.73780(20) 0.57155(19)
H75 H 0.7861 0.7235 0.5643
C125 C 0.76883(17) 0.84239(23) 0.70913(12)
H76 H 0.7831 0.8440 0.6918
C126 C 0.6468(2) 0.5741(4) 0.7578(2)
C127 C 0.77536(15) 0.87278(21) 0.72646(14)
H77 H 0.7930 0.8945 0.7194
C128 C 0.76781(13) 0.73539(18) 0.60322(15)
H78 H 0.7696 0.7195 0.6168
C130 C 0.72930(14) 0.83832(18) 0.76131(11)
H80 H 0.7158 0.8356 0.7797
C131 C 0.72171(14) 0.80826(19) 0.74149(16)
H81 H 0.7020 0.7870 0.7462
C133 C 0.57644(12) 0.90501(16) 0.58921(13)
H83 H 0.5814 0.8875 0.5840
C135 C 0.77578(14) 0.75964(23) 0.55037(15)
C137 C 0.55327(11) 0.94047(16) 0.57538(12)
H85 H 0.5422 0.9480 0.5609
C138 C 0.58399(12) 0.91874(17) 0.61969(11)
H86 H 0.5949 0.9112 0.6344
C139 C 0.75319(12) 0.77857(18) 0.59480(13)
H87 H 0.7457 0.7935 0.6026
C140 C 0.56095(13) 0.95425(17) 0.60657(12)
H88 H 0.5556 0.9714 0.6120
C141 C 0.74260(11) 0.99046(17) 0.77873(10)
C143 C 0.68831(12) 0.95582(16) 0.74503(10)
H89 H 0.6925 0.9372 0.7452
C144 C 0.60222(11) 0.99135(16) 0.72321(10)
C145 C 0.74231(11) 0.75264(16) 0.64957(11)
C147 C 0.58474(11) 0.95966(16) 0.66210(11)
C148 C 0.75613(12) 0.87071(16) 0.75327(12)
C149 C 0.65947(12) 0.95271(17) 0.72842(10)
H91 H 0.6454 0.9324 0.7167
C151 C 0.71260(11) 0.71591(16) 0.69556(12)
C152 C 0.76415(14) 0.90189(18) 0.77299(12)
C153 C 0.56725(11) 0.97475(16) 0.67576(10)
H93 H 0.5485 0.9737 0.6645
C154 C 0.71082(11) 0.98635(16) 0.76129(10)
C155 C 0.57642(11) 0.99172(16) 0.70601(10)
C156 C 0.74725(11) 0.78121(15) 0.66690(11)
H94 H 0.7588 0.8031 0.6570
C157 C 0.75518(11) 0.75583(17) 0.61599(12)
C159 C 0.72546(11) 0.72059(16) 0.66505(12)
H96 H 0.7229 0.7012 0.6538
C160 C 0.57573(10) 0.94405(15) 0.62952(10)
C161 C 0.55294(11) 0.90064(18) 0.53225(11)
C162 C 0.74098(12) 0.81007(17) 0.71811(10)
C163 C 0.61188(11) 0.96118(15) 0.68034(11)
H97 H 0.6247 0.9518 0.6713
C164 C 0.69476(12) 0.68076(18) 0.71108(12)
C165 C 0.71760(11) 0.74498(16) 0.71264(10)
H98 H 0.7089 0.7423 0.7338
C166 C 0.65123(12) 0.97870(16) 0.72877(10)
C167 C 0.56156(10) 0.91616(15) 0.56527(10)
C168 C 0.73550(11) 0.77850(15) 0.69886(10)
O30 O 0.8213(2) 0.9301(3) 0.8842(2)
O31 O 0.79775(10) 0.74207(16) 0.50646(10)
O32 O 0.78236(14) 0.78041(22) 0.49783(11)
C170 C 0.7632(2) 0.8861(4) 0.8687(2)
H102 H 0.7482 0.8792 0.8500
H103 H 0.7526 0.8919 0.8863
H104 H 0.7666 0.8672 0.8753
O34 O 0.6225(2) 0.5713(3) 0.77326(13)
O35 O 0.65037(18) 0.55727(23) 0.7449(3)
O39 O 0.80707(11) 0.93962(15) 0.83721(10)
O42 O 0.74382(8) 0.89960(11) 0.79644(7)
O43 O 0.53628(7) 0.90895(10) 0.51388(7)
O44 O 0.56421(7) 0.87978(11) 0.52451(6)
O45 O 0.74920(6) 0.96617(9) 0.77767(6)
O46 O 0.79148(8) 0.93028(10) 0.76667(7)
Mg8 Mg 0.95844(4) 0.76461(3) 0.81511(3)
C174 C 0.9036(4) 0.6891(3) 0.8385(2)
C181 C 0.98983(16) 0.54157(12) 0.75196(12)
C187 C 0.97073(21) 0.50762(17) 0.76328(13)
H117 H 0.9697 0.5035 0.7856
C190 C 0.98771(17) 0.69011(12) 0.76160(11)
H120 H 0.9673 0.6841 0.7730
C192 C 0.93342(19) 0.44303(15) 0.7559(2)
C194 C 0.99038(17) 0.66470(11) 0.74614(11)
H122 H 0.9719 0.6419 0.7468
C200 C 0.95337(18) 0.48000(14) 0.74263(16)
H128 H 0.9983 0.6061 0.7437
C204 C 0.98992(16) 0.54750(12) 0.71832(12)
C208 C 0.97269(16) 0.52056(12) 0.69801(11)
H130 H 0.9733 0.5250 0.6758
C216 C 0.95401(16) 0.48631(12) 0.70881(12)
H133 H 0.9422 0.4680 0.6942
C227 C 0.86693(26) 0.66956(18) 0.83246(17)
H137 H 0.8588 0.6852 0.8264
H138 H 0.8551 0.6571 0.8519
H139 H 0.8623 0.6533 0.8151
O50 O 0.92761(35) 0.67901(18) 0.8470(2)
O53 O 0.93280(17) 0.76168(11) 0.77051(9)
H143 H 0.9444 0.7745 0.7545
H144 H 0.9110 0.7477 0.7686
O54 O 0.91505(13) 0.41965(9) 0.73639(11)
O55 O 0.91454(13) 0.72224(9) 0.82979(10)
O57 O 0.98125(11) 0.74219(7) 0.79275(8)
O58 O 0.93634(12) 0.43700(9) 0.78484(10)
Mg10 Mg 0.50703(3) 0.88665(3) 0.47311(3)
Mg13 Mg 0.56872(3) 0.86050(3) 0.48178(3)
O66 O 0.7620(3) 0.7179(2) 0.43993(13)
O68 O 0.83399(8) 0.73033(12) 0.45151(10)
O72 O 0.75772(10) 0.96066(7) 0.84721(7)
O73 O 0.98224(8) 0.76912(7) 0.85784(6)
C2_2 C 0.02144(11) 0.71238(11) 0.04427(11)
C15_2 C 0.12510(12) 0.78159(11) 0.08529(12)
H8_2 H 0.1067 0.7756 0.0996
C24_2 C 0.15905(17) 0.79644(13) 0.09661(13)
H14_2 H 0.1632 0.7995 0.1189
C29_2 C 0.22364(15) 0.82372(12) 0.0892(2)
C33_2 C 0.00197(11) 0.65901(13) 0.07947(11)
H21_2 H 0.0248 0.6633 0.0801
C39_2 C 0.18667(14) 0.80670(11) 0.07596(16)
C41_2 C 0.05580(11) 0.73111(11) 0.05654(10)
H27_2 H 0.0606 0.7255 0.0770
C43_2 C 0.11917(12) 0.77575(11) 0.05165(12)
C48_2 C 0.14611(12) 0.78546(10) 0.03134(11)
H29_2 H 0.1417 0.7816 0.0091
C51_2 C 0.07417(11) 0.76608(11) 0.00909(10)
C53_2 C 0.08197(11) 0.75691(11) 0.03934(10)
C56_2 C 0.18036(12) 0.80103(10) 0.04214(12)
H32_2 H 0.1987 0.8075 0.0275
C61_2 C 0.01597(10) 0.72145(11) 0.01367(11)
H37_2 H 0.0096 0.5313 0.1852
H38_2 H 0.0134 0.5423 0.1484
O10_2 O 0.24702(9) 0.82873(10) 0.06972(11)
O15_2 O 0.22967(9) 0.83267(8) 0.11817(10)
C175_2 C 0.02631(28) 0.3471(2) 0.08267(14)
H107_2 H 0.0312 0.3350 0.0983
C176_2 C 0.04411(26) 0.39517(17) 0.0501(2)
H108_2 H 0.0605 0.4175 0.0434
C177_2 C 0.00998(25) 0.37747(18) 0.03447(18)
H109_2 H 0.0056 0.3881 0.0170
C180_2 C 0.05207(22) 0.38038(16) 0.07326(17)
C184_2 C 0.0926(4) 0.4060(3) 0.0911(2)
O51_2 O 0.0954(3) 0.3845(2) 0.10659(13)
O52_2 O 0.10940(23) 0.42643(15) 0.0782(3)
Mg17_2 Mg 0.28069(4) 0.85637(3) 0.12510(4)
Mg19_2 Mg 0.14363(3) 0.42433(5) 0.12510(4)
C34_2 C 0.05387(11) 0.78006(11) 0.90871(12)
H22_2 H 0.0725 0.7911 0.8942
C35_2 C 0.00142(12) 0.74934(12) 0.95302(11)
C37_2 C 0.05997(11) 0.77238(13) 0.93990(12)
H25_2 H 0.0825 0.7777 0.9453
C44_2 C 0.04159(11) 0.74859(11) 0.99543(11)
H30_2 H 0.0919 0.7848 0.9978
C58_2 C 0.03499(11) 0.75760(10) 0.96285(10)
C59_2 C 0.01437(14) 0.78039(11) 0.86558(11)
C65_2 C 0.02127(11) 0.77177(10) 0.89860(10)
Mg1_2 Mg 0.84037(3) 0.55331(3) 0.13977(3)
Mg2_2 Mg 0.90206(3) 0.52716(3) 0.14844(3)
C3_2 C 0.7862(3) 0.5356(4) 0.1936(4)
C4_2 C 0.9776(3) 0.5478(3) 0.1718(2)
C5_2 C 0.76120(14) 0.39145(13) 0.16044(17)
H1_2 H 0.7560 0.3712 0.1718
C6_2 C 0.6529(2) 0.67917(19) 0.08267(14)
H2_2 H 0.6650 0.6961 0.0983
C7_2 C 0.60483(17) 0.6489(2) 0.0501(2)
H3_2 H 0.5825 0.6429 0.0434
C8_2 C 0.62253(18) 0.63250(18) 0.03447(18)
H4_2 H 0.6119 0.6174 0.0170
C9_2 C 0.66735(18) 0.6619(2) 0.06914(15)
H5_2 H 0.6888 0.6662 0.0771
C10_2 C 0.79482(13) 0.42040(14) 0.16165(16)
H6_2 H 0.8122 0.4190 0.1733
C13_2 C 0.73570(12) 0.39313(12) 0.14217(16)
C14_2 C 0.61962(16) 0.67168(15) 0.07326(17)
C17_2 C 0.74023(16) 0.56450(17) 0.04246(12)
H10_2 H 0.7276 0.5502 0.0251
C18_2 C 0.5940(3) 0.6865(2) 0.0911(2)
C19_2 C 0.76409(15) 0.55797(15) 0.05979(14)
H11_2 H 0.7682 0.5403 0.0527
C20_2 C 0.69523(12) 0.32935(14) 0.14044(15)
H12_2 H 0.7147 0.3265 0.1416
C21_2 C 0.83846(12) 0.48132(14) 0.14759(12)
C22_2 C 0.70106(12) 0.36313(12) 0.13962(15)
C25_2 C 0.77569(12) 0.60403(14) 0.09464(11)
H15_2 H 0.7865 0.6175 0.1130
C26_2 C 0.75322(13) 0.61162(14) 0.07482(16)
H16_2 H 0.7517 0.6313 0.0795
C27_2 C 0.97656(12) 0.63093(12) 0.09493(11)
H17_2 H 0.9826 0.6165 0.1063
C31_2 C 0.77748(12) 0.45198(11) 0.12957(13)
H19_2 H 0.7822 0.4726 0.1193
C32_2 C 0.74416(12) 0.42370(13) 0.12702(14)
H20_2 H 0.7274 0.4255 0.1149
C38_2 C 0.91453(13) 0.59073(11) 0.11206(10)
C40_2 C 0.93418(11) 0.64502(12) 0.07836(10)
H26_2 H 0.9114 0.6408 0.0785
C45_2 C 0.80276(12) 0.45139(12) 0.14552(13)
C46_2 C 0.78125(11) 0.57720(12) 0.08660(12)
C47_2 C 0.95991(12) 0.67386(12) 0.06175(10)
H28_2 H 0.9537 0.6879 0.0500
C49_2 C 0.66998(12) 0.62073(11) 0.02889(12)
C50_2 C 0.80441(11) 0.56918(14) 0.10632(12)
C52_2 C 0.94220(11) 0.62251(11) 0.09462(10)
C54_2 C 0.70063(10) 0.58608(11) 0.00023(11)
C60_2 C 0.73576(12) 0.59235(12) 0.05144(10)
H34_2 H 0.9938 0.7086 0.0046
C62_2 C 0.65267(13) 0.63857(12) 0.04441(12)
C63_2 C 0.69405(11) 0.61573(11) 0.04597(10)
H35_2 H 0.7001 0.6244 0.0671
C64_2 C 0.99414(11) 0.68210(12) 0.06210(10)
C66_2 C 0.70967(10) 0.59783(11) 0.03219(10)
C67_2 C 0.99711(18) 0.53070(19) 0.16579(17)
H36_2 H 0.9815 0.5069 0.1597
O1_2 O 0.7755(2) 0.5120(2) 0.2175(2)
O4_2 O 0.98766(18) 0.5819(3) 0.1803(2)
C68_2 C 0.7896(3) 0.5701(2) 0.2020(2)
H39_2 H 0.7977 0.5851 0.1833
H40_2 H 0.8060 0.5807 0.2196
H41_2 H 0.7673 0.5667 0.2086
O7_2 O 0.6155(2) 0.7108(2) 0.10659(13)
O8_2 O 0.57357(15) 0.68296(18) 0.0782(3)
O9_2 O 0.90499(11) 0.50445(13) 0.10384(9)
H42_2 H 0.8922 0.5032 0.0878
H43_2 H 0.9190 0.4966 0.1019
O11_2 O 0.94443(9) 0.52563(9) 0.16312(10)
O12_2 O 0.79922(10) 0.52626(11) 0.17054(10)
O13_2 O 0.92448(7) 0.57239(8) 0.12608(8)
O14_2 O 0.86182(8) 0.47701(7) 0.16131(8)
O16_2 O 0.82245(8) 0.58951(8) 0.12977(7)
O19_2 O 0.88364(7) 0.58413(6) 0.11100(6)
O20_2 O 0.80547(6) 0.54185(8) 0.10000(7)
O21_2 O 0.84699(6) 0.51128(7) 0.13553(7)
C77_2 C 0.60855(13) 0.36974(19) 0.16044(17)
H49_2 H 0.6288 0.3847 0.1718
C78_2 C 0.57960(14) 0.37441(19) 0.16165(16)
H50_2 H 0.5810 0.3931 0.1733
C79_2 C 0.60687(12) 0.34256(17) 0.14217(16)
C80_2 C 0.67065(14) 0.36587(18) 0.14044(15)
H51_2 H 0.6735 0.3881 0.1416
C81_2 C 0.51868(14) 0.35713(18) 0.14759(12)
C82_2 C 0.63687(12) 0.33792(17) 0.13962(15)
C83_2 C 0.54802(11) 0.32549(16) 0.12957(13)
H52_2 H 0.5274 0.3095 0.1193
C84_2 C 0.57630(13) 0.32045(18) 0.12702(14)
H53_2 H 0.5745 0.3018 0.1149
C85_2 C 0.54861(12) 0.35136(17) 0.14552(13)
O22_2 O 0.52299(7) 0.38480(11) 0.16131(8)
O23_2 O 0.48872(7) 0.33570(9) 0.13553(7)
C86_2 C 0.63026(19) 0.23880(14) 0.16044(17)
H54_2 H 0.6153 0.2440 0.1718
C87_2 C 0.62559(19) 0.20518(13) 0.16165(16)
H55_2 H 0.6069 0.1878 0.1733
C88_2 C 0.65744(17) 0.26430(12) 0.14217(16)
C89_2 C 0.63413(18) 0.30477(12) 0.14044(15)
H56_2 H 0.6119 0.2853 0.1416
C90_2 C 0.64287(18) 0.16154(12) 0.14759(12)
C91_2 C 0.66208(17) 0.29894(12) 0.13962(15)
C92_2 C 0.67451(16) 0.22252(12) 0.12957(13)
H57_2 H 0.6905 0.2178 0.1193
C93_2 C 0.67955(18) 0.25584(12) 0.12702(14)
H58_2 H 0.6982 0.2726 0.1149
C94_2 C 0.64864(17) 0.19724(12) 0.14552(13)
O24_2 O 0.61520(11) 0.13818(8) 0.16131(8)
O25_2 O 0.66430(9) 0.15301(6) 0.13553(7)
Mg4_2 Mg 0.44669(3) 0.28705(4) 0.13977(3)
Mg5_2 Mg 0.47284(3) 0.37489(4) 0.14844(3)
C114_2 C 0.28762(11) 0.30905(16) 0.04427(11)
C115_2 C 0.4644(4) 0.2505(5) 0.1936(4)
C116_2 C 0.4522(3) 0.4297(4) 0.1718(2)
C120_2 C 0.3381(2) 0.00541(27) 0.06914(15)
H72_2 H 0.3338 0.0225 0.0771
C123_2 C 0.21841(11) 0.34350(16) 0.08529(12)
H74_2 H 0.2244 0.3310 0.0996
C125_2 C 0.43550(17) 0.17572(23) 0.04246(12)
H76_2 H 0.4498 0.1773 0.0251
C127_2 C 0.44203(15) 0.20611(21) 0.05979(14)
H77_2 H 0.4597 0.2278 0.0527
C129_2 C 0.20356(13) 0.36260(21) 0.09661(13)
H79_2 H 0.2005 0.3636 0.1189
C130_2 C 0.39597(14) 0.17165(18) 0.09464(11)
H80_2 H 0.3825 0.1689 0.1130
C131_2 C 0.38838(14) 0.14159(19) 0.07482(16)
H81_2 H 0.3687 0.1203 0.0795
C132_2 C 0.36907(12) 0.34562(17) 0.09493(11)
H82_2 H 0.3835 0.3660 0.1063
C134_2 C 0.17628(12) 0.39991(19) 0.0892(2)
C136_2 C 0.34099(13) 0.34295(17) 0.07947(11)
H84_2 H 0.3367 0.3614 0.0801
C141_2 C 0.40927(11) 0.32379(17) 0.11206(10)
C142_2 C 0.19330(11) 0.37996(18) 0.07596(16)
C143_2 C 0.35498(12) 0.28915(16) 0.07836(10)
H89_2 H 0.3592 0.2705 0.0785
C144_2 C 0.26889(11) 0.32468(16) 0.05654(10)
H90_2 H 0.2745 0.3350 0.0770
C146_2 C 0.22425(11) 0.34341(16) 0.05165(12)
C148_2 C 0.42280(12) 0.20404(16) 0.08660(12)
C149_2 C 0.32614(12) 0.28604(17) 0.06175(10)
H91_2 H 0.3121 0.2657 0.0500
C150_2 C 0.21454(10) 0.36064(16) 0.03134(11)
H92_2 H 0.2184 0.3600 0.0091
C151_2 C 0.37927(11) 0.04924(16) 0.02889(12)
C152_2 C 0.43082(14) 0.23522(18) 0.10632(12)
C153_2 C 0.23392(11) 0.30808(16) 0.00909(10)
C154_2 C 0.37749(11) 0.31968(16) 0.09462(10)
C155_2 C 0.24309(11) 0.32505(16) 0.03934(10)
C156_2 C 0.41392(11) 0.11454(15) 0.00023(11)
C158_2 C 0.19897(10) 0.37932(16) 0.04214(12)
H95_2 H 0.1925 0.3911 0.0275
C162_2 C 0.40765(12) 0.14340(17) 0.05144(10)
C163_2 C 0.27855(11) 0.29451(15) 0.01367(11)
H97_2 H 0.2914 0.2851 0.0046
C164_2 C 0.36143(12) 0.01409(18) 0.04441(12)
C165_2 C 0.38427(11) 0.07831(16) 0.04597(10)
H98_2 H 0.3756 0.0756 0.0671
C166_2 C 0.31790(12) 0.31203(16) 0.06210(10)
C168_2 C 0.40217(11) 0.11183(15) 0.03219(10)
C169_2 C 0.46930(19) 0.46640(26) 0.16579(17)
H99_2 H 0.4931 0.4745 0.1597
H100_2 H 0.4687 0.4782 0.1852
H101_2 H 0.4577 0.4710 0.1484
O30_2 O 0.4880(2) 0.2634(3) 0.2175(2)
O33_2 O 0.4181(3) 0.40572(35) 0.1803(2)
C170_2 C 0.4299(2) 0.2194(4) 0.2020(2)
H102_2 H 0.4149 0.2125 0.1833
H103_2 H 0.4193 0.2252 0.2196
H104_2 H 0.4333 0.2005 0.2086
O36_2 O 0.49555(13) 0.40053(17) 0.10384(9)
H105_2 H 0.4968 0.3889 0.0878
H106_2 H 0.5034 0.4223 0.1019
O37_2 O 0.17127(10) 0.41828(13) 0.06972(11)
O38_2 O 0.47437(9) 0.41879(13) 0.16312(10)
O39_2 O 0.47374(11) 0.27295(15) 0.17054(10)
O40_2 O 0.42761(8) 0.35208(11) 0.12608(8)
O41_2 O 0.16733(8) 0.39699(12) 0.11817(10)
O42_2 O 0.41049(8) 0.23293(11) 0.12977(7)
O45_2 O 0.41587(6) 0.29950(9) 0.11100(6)
O46_2 O 0.45815(8) 0.26361(10) 0.10000(7)
Mg7_2 Mg 0.71295(4) 0.15963(3) 0.13977(3)
Mg8_2 Mg 0.62511(4) 0.09794(3) 0.14844(3)
C173_2 C 0.7495(5) 0.2138(3) 0.1936(4)
C174_2 C 0.5703(4) 0.0224(3) 0.1718(2)
C178_2 C 0.99459(27) 0.33265(18) 0.06914(15)
H110_2 H 0.9775 0.3112 0.0771
C183_2 C 0.82428(23) 0.25977(16) 0.04246(12)
H114_2 H 0.8227 0.2724 0.0251
C185_2 C 0.79389(21) 0.23591(15) 0.05979(14)
H115_2 H 0.7722 0.2318 0.0527
C188_2 C 0.82835(18) 0.22431(12) 0.09464(11)
H118_2 H 0.8311 0.2135 0.1130
C189_2 C 0.85841(19) 0.24678(13) 0.07482(16)
H119_2 H 0.8797 0.2483 0.0795
C190_2 C 0.65438(17) 0.02344(12) 0.09493(11)
H120_2 H 0.6340 0.0174 0.1063
C199_2 C 0.67621(17) 0.08547(13) 0.11206(10)
C201_2 C 0.71085(16) 0.06582(11) 0.07836(10)
H127_2 H 0.7295 0.0886 0.0785
C206_2 C 0.79596(16) 0.21875(11) 0.08660(12)
C207_2 C 0.71396(17) 0.04009(12) 0.06175(10)
H129_2 H 0.7343 0.0463 0.0500
C209_2 C 0.95076(16) 0.33002(12) 0.02889(12)
C210_2 C 0.76478(18) 0.19559(11) 0.10632(12)
C212_2 C 0.68032(16) 0.05780(11) 0.09462(10)
C214_2 C 0.88546(15) 0.29937(10) 0.00023(11)
C220_2 C 0.85660(17) 0.26424(12) 0.05144(10)
H135_2 H 0.7149 0.0062 0.0046
C222_2 C 0.98591(18) 0.34733(13) 0.04441(12)
C223_2 C 0.92169(16) 0.30595(11) 0.04597(10)
H136_2 H 0.9244 0.2999 0.0671
C224_2 C 0.68797(16) 0.00586(11) 0.06210(10)
C226_2 C 0.88817(15) 0.29033(10) 0.03219(10)
C227_2 C 0.53360(26) 0.00289(18) 0.16579(17)
H137_2 H 0.5255 0.0185 0.1597
O47_2 O 0.7366(3) 0.2245(2) 0.2175(2)
O50_2 O 0.59428(35) 0.01234(18) 0.1803(2)
C228_2 C 0.7806(4) 0.2104(3) 0.2020(2)
H140_2 H 0.7875 0.2023 0.1833
H141_2 H 0.7748 0.1940 0.2196
H142_2 H 0.7995 0.2327 0.2086
O53_2 O 0.59947(17) 0.09501(11) 0.10384(9)
H143_2 H 0.6111 0.1078 0.0878
H144_2 H 0.5777 0.0810 0.1019
O55_2 O 0.58121(13) 0.05557(9) 0.16312(10)
O56_2 O 0.72705(15) 0.20078(10) 0.17054(10)
O57_2 O 0.64792(11) 0.07552(7) 0.12608(8)
O59_2 O 0.76707(11) 0.17755(8) 0.12977(7)
O62_2 O 0.70050(9) 0.11636(7) 0.11100(6)
O63_2 O 0.73639(10) 0.19453(6) 0.10000(7)
Mg21_2 Mg 0.57567(5) 0.71931(4) 0.12510(4)
O70_2 O 0.70600(7) 0.13039(7) 0.18055(7)
O71_2 O 0.86961(7) 0.57562(10) 0.18055(7)
O72_2 O 0.42438(10) 0.29400(7) 0.18055(7)
O73_2 O 0.64890(8) 0.10246(7) 0.19118(6)
O74_2 O 0.89754(7) 0.54645(11) 0.19118(6)
O75_2 O 0.45355(11) 0.35110(8) 0.19118(6)
C1_2 C 0.6423(3) 0.5478(2) 0.8502(2)
C11_2 C 0.6330(2) 0.4846(3) 0.7832(3)
C12_2 C 0.68483(14) 0.57118(13) 0.89479(12)
H7_2 H 0.7025 0.5743 0.8805
C16_2 C 0.62681(15) 0.55567(13) 0.90488(19)
H9_2 H 0.6041 0.5472 0.8976
C23_2 C 0.63425(13) 0.56552(13) 0.93655(15)
H13_2 H 0.6166 0.5637 0.9501
C28_2 C 0.99524(11) 0.75689(12) 0.92254(13)
H18_2 H 0.9728 0.7519 0.9173
C30_2 C 0.65053(18) 0.55755(14) 0.88370(15)
H23_2 H 0.9830 0.7384 0.9677
C36_2 C 0.69205(13) 0.58014(12) 0.92813(13)
H24_2 H 0.7145 0.5876 0.9359
C42_2 C 0.67700(11) 0.59102(11) 0.98290(11)
H31_2 H 0.7110 0.5745 0.9903
C55_2 C 0.66732(13) 0.57815(11) 0.94932(12)
C57_2 C 0.66180(11) 0.60787(11) 0.99838(12)
H33_2 H 0.6450 0.6104 0.9871
O2_2 O 0.61099(13) 0.53558(10) 0.83979(10)
O3_2 O 0.66472(17) 0.55097(14) 0.83116(11)
O5_2 O 0.61457(17) 0.47804(16) 0.8024(2)
O6_2 O 0.6604(3) 0.5016(3) 0.7729(2)
C69_2 C 0.6715(3) 0.44997(18) 0.77069(18)
H44_2 H 0.6856 0.4695 0.7581
C70_2 C 0.62300(16) 0.41952(19) 0.80255(18)
H45_2 H 0.6034 0.4174 0.8128
C71_2 C 0.67897(17) 0.42234(15) 0.77183(14)
H46_2 H 0.6988 0.4244 0.7618
C72_2 C 0.62896(13) 0.39140(13) 0.80376(14)
H47_2 H 0.6138 0.3716 0.8156
C73_2 C 0.6442(3) 0.4489(2) 0.7873(2)
C74_2 C 0.65579(13) 0.39198(11) 0.78844(12)
C75_2 C 0.63375(10) 0.32861(12) 0.78776(9)
H48_2 H 0.6113 0.3253 0.7878
C76_2 C 0.66171(11) 0.36217(11) 0.78775(9)
C95_2 C 0.5154(3) 0.1483(4) 0.7832(3)
O26_2 O 0.52196(16) 0.13652(23) 0.8024(2)
O27_2 O 0.4984(3) 0.1587(4) 0.7729(2)
C96_2 C 0.55003(18) 0.22149(35) 0.77069(18)
H59_2 H 0.5305 0.2160 0.7581
C97_2 C 0.58048(19) 0.20347(25) 0.80255(18)
H60_2 H 0.5826 0.1859 0.8128
C98_2 C 0.57766(15) 0.25662(23) 0.77183(14)
H61_2 H 0.5756 0.2743 0.7618
C99_2 C 0.60860(13) 0.23755(18) 0.80376(14)
H62_2 H 0.6284 0.2421 0.8156
C100_2 C 0.5511(2) 0.1952(4) 0.7873(2)
C101_2 C 0.60802(11) 0.26380(17) 0.78844(12)
C102_2 C 0.67139(12) 0.30513(16) 0.78776(9)
H63_2 H 0.6747 0.2859 0.7878
C103_2 C 0.63783(11) 0.29953(16) 0.78775(9)
C104_2 C 0.8517(4) 0.3670(2) 0.7832(3)
O28_2 O 0.86348(23) 0.38543(17) 0.8024(2)
O29_2 O 0.8413(4) 0.3396(3) 0.7729(2)
C105_2 C 0.77851(35) 0.3285(3) 0.77069(18)
H64_2 H 0.7840 0.3144 0.7581
C106_2 C 0.79653(25) 0.37700(16) 0.80255(18)
H65_2 H 0.8141 0.3966 0.8128
C107_2 C 0.74338(23) 0.32103(17) 0.77183(14)
H66_2 H 0.7257 0.3012 0.7618
C108_2 C 0.76245(18) 0.37104(13) 0.80376(14)
H67_2 H 0.7579 0.3862 0.8156
C109_2 C 0.8048(4) 0.3558(3) 0.7873(2)
C110_2 C 0.73620(17) 0.34421(13) 0.78844(12)
C111_2 C 0.69487(16) 0.36625(10) 0.78776(9)
H68_2 H 0.7141 0.3887 0.7878
C112_2 C 0.70047(16) 0.33829(11) 0.78775(9)
C113_2 C 0.4522(2) 0.0944(4) 0.8502(2)
C121_2 C 0.42882(13) 0.11364(19) 0.89479(12)
H73_2 H 0.4257 0.1281 0.8805
C124_2 C 0.44433(13) 0.07113(20) 0.90488(19)
H75_2 H 0.4528 0.0568 0.8976
C128_2 C 0.43448(13) 0.06872(18) 0.93655(15)
H78_2 H 0.4363 0.0528 0.9501
C133_2 C 0.24311(12) 0.23834(16) 0.92254(13)
H83_2 H 0.2481 0.2208 0.9173
C135_2 C 0.44245(14) 0.09297(23) 0.88370(15)
C137_2 C 0.21994(11) 0.27380(16) 0.90871(12)
H85_2 H 0.2089 0.2813 0.8942
C138_2 C 0.25066(12) 0.25207(17) 0.95302(11)
H86_2 H 0.2616 0.2445 0.9677
C139_2 C 0.41986(12) 0.11190(18) 0.92813(13)
H87_2 H 0.4124 0.1268 0.9359
C140_2 C 0.22762(13) 0.28758(17) 0.93990(12)
H88_2 H 0.2223 0.3047 0.9453
C145_2 C 0.40898(11) 0.08597(16) 0.98290(11)
C147_2 C 0.25141(11) 0.29299(16) 0.99543(11)
H93_2 H 0.2152 0.3070 0.9978
H94_2 H 0.4255 0.1364 0.9903
C157_2 C 0.42185(11) 0.08916(17) 0.94932(12)
C159_2 C 0.39213(11) 0.05392(16) 0.99838(12)
H96_2 H 0.3896 0.0345 0.9871
C160_2 C 0.24240(10) 0.27738(15) 0.96285(10)
C161_2 C 0.21961(11) 0.23397(18) 0.86558(11)
C167_2 C 0.22823(10) 0.24949(15) 0.89860(10)
O31_2 O 0.46442(10) 0.07540(16) 0.83979(10)
O32_2 O 0.44903(14) 0.11374(22) 0.83116(11)
C171_2 C 0.9056(4) 0.3577(3) 0.8502(2)
C179_2 C 0.88636(19) 0.31517(14) 0.89479(12)
H111_2 H 0.8719 0.2975 0.8805
C182_2 C 0.92887(20) 0.37319(15) 0.90488(19)
H113_2 H 0.9432 0.3959 0.8976
C186_2 C 0.93128(18) 0.36575(13) 0.93655(15)
H116_2 H 0.9472 0.3834 0.9501
C191_2 C 0.76166(16) 0.00476(11) 0.92254(13)
H121_2 H 0.7792 0.0272 0.9173
C193_2 C 0.90703(23) 0.34947(18) 0.88370(15)
H124_2 H 0.7555 0.0170 0.9677
C197_2 C 0.88810(18) 0.30795(13) 0.92813(13)
H125_2 H 0.8732 0.2855 0.9359
C203_2 C 0.91403(16) 0.32300(11) 0.98290(11)
H132_2 H 0.8636 0.2890 0.9903
C215_2 C 0.91084(17) 0.33268(13) 0.94932(12)
C217_2 C 0.94608(16) 0.33820(11) 0.99838(12)
H134_2 H 0.9655 0.3550 0.9871
O48_2 O 0.92460(16) 0.38901(13) 0.83979(10)
O49_2 O 0.88626(22) 0.33528(17) 0.83116(11)
C117_2 C 0.32083(19) 0.97369(28) 0.08267(14)
H69_2 H 0.3039 0.9688 0.0983
C118_2 C 0.3511(2) 0.95589(26) 0.0501(2)
H70_2 H 0.3571 0.9395 0.0434
C119_2 C 0.36750(18) 0.99002(25) 0.03447(18)
H71_2 H 0.3826 0.9944 0.0170
C122_2 C 0.32832(15) 0.94793(22) 0.07326(17)
C126_2 C 0.3135(2) 0.9074(4) 0.0911(2)
O34_2 O 0.2892(2) 0.9046(3) 0.10659(13)
O35_2 O 0.31704(18) 0.89060(23) 0.0782(3)
C172_2 C 0.69095(16) 0.97856(11) 0.04427(11)
C181_2 C 0.65650(16) 0.87490(12) 0.08529(12)
H112_2 H 0.6690 0.8933 0.0996
C187_2 C 0.63740(21) 0.84095(17) 0.09661(13)
H117_2 H 0.6364 0.8368 0.1189
C192_2 C 0.60009(19) 0.77636(15) 0.0892(2)
C194_2 C 0.65705(17) 0.99803(11) 0.07947(11)
H122_2 H 0.6386 0.9752 0.0801
C200_2 C 0.62004(18) 0.81333(14) 0.07596(16)
C202_2 C 0.67532(16) 0.94420(11) 0.05654(10)
H128_2 H 0.6650 0.9394 0.0770
C204_2 C 0.65659(16) 0.88083(12) 0.05165(12)
C208_2 C 0.63936(16) 0.85389(12) 0.03134(11)
H130_2 H 0.6400 0.8583 0.0091
C211_2 C 0.69192(16) 0.92583(11) 0.00909(10)
C213_2 C 0.67495(16) 0.91803(11) 0.03934(10)
C216_2 C 0.62068(16) 0.81964(12) 0.04214(12)
H133_2 H 0.6089 0.8013 0.0275
C221_2 C 0.70549(15) 0.98403(10) 0.01367(11)
H138_2 H 0.5218 0.9904 0.1852
H139_2 H 0.5290 0.9866 0.1484
O54_2 O 0.58172(13) 0.75298(9) 0.06972(11)
O58_2 O 0.60301(12) 0.77033(9) 0.11817(10)
C195_2 C 0.72620(16) 0.94613(11) 0.90871(12)
H123_2 H 0.7187 0.9275 0.8942
C196_2 C 0.74793(17) 0.99858(12) 0.95302(11)
C198_2 C 0.71242(17) 0.94003(11) 0.93990(12)
H126_2 H 0.6953 0.9175 0.9453
C205_2 C 0.70701(16) 0.95841(11) 0.99543(11)
H131_2 H 0.6930 0.9081 0.9978
C218_2 C 0.72262(15) 0.96501(11) 0.96285(10)
C219_2 C 0.76603(18) 0.98563(14) 0.86558(11)
C225_2 C 0.75051(15) 0.97873(11) 0.89860(10)
C2_3 C 0.68810(11) 0.04572(11) 0.37761(11)
C6_3 C 0.3195(2) 0.01251(19) 0.41601(14)
H2_3 H 0.3316 0.0295 0.4317
C14_3 C 0.28628(16) 0.00502(15) 0.40660(17)
C15_3 C 0.79176(12) 0.11493(11) 0.41863(12)
H8_3 H 0.7733 0.1090 0.4330
C18_3 C 0.2606(3) 0.0199(2) 0.4245(2)
C24_3 C 0.82571(17) 0.12978(13) 0.42995(13)
H14_3 H 0.8298 0.1329 0.4523
C28_3 C 0.66190(11) 0.09023(12) 0.25588(13)
H18_3 H 0.6394 0.0853 0.2507
C29_3 C 0.89030(15) 0.15706(12) 0.4226(2)
C34_3 C 0.72053(11) 0.11340(11) 0.24205(12)
H22_3 H 0.7391 0.1245 0.2276
C35_3 C 0.66808(12) 0.08268(12) 0.28636(11)
H23_3 H 0.6496 0.0718 0.3011
C37_3 C 0.72663(11) 0.10572(13) 0.27324(12)
H25_3 H 0.7491 0.1111 0.2787
C39_3 C 0.85333(14) 0.14004(11) 0.40930(16)
C41_3 C 0.72246(11) 0.06445(11) 0.38988(10)
H27_3 H 0.7272 0.0589 0.4104
C43_3 C 0.78583(12) 0.10909(11) 0.38499(12)
C44_3 C 0.70825(11) 0.08193(11) 0.32877(11)
C47_3 C 0.62657(12) 0.00720(12) 0.39509(10)
H28_3 H 0.6203 0.0213 0.3834
C48_3 C 0.81277(12) 0.11880(10) 0.36468(11)
H29_3 H 0.8083 0.1150 0.3425
C51_3 C 0.74083(11) 0.09942(11) 0.34243(10)
H30_3 H 0.7585 0.1182 0.3312
C53_3 C 0.74863(11) 0.09025(11) 0.37268(10)
C56_3 C 0.84702(12) 0.13437(10) 0.37548(12)
H32_3 H 0.8653 0.1409 0.3609
C58_3 C 0.70165(11) 0.09094(10) 0.29619(10)
C59_3 C 0.68103(14) 0.11373(11) 0.19892(11)
C61_3 C 0.68263(10) 0.05479(11) 0.34701(11)
H34_3 H 0.6604 0.0420 0.3380
C64_3 C 0.66080(11) 0.01544(12) 0.39544(10)
C65_3 C 0.68793(11) 0.10511(10) 0.23194(10)
O8_3 O 0.24023(15) 0.01630(18) 0.4116(3)
O10_3 O 0.91368(9) 0.16207(10) 0.40306(11)
C1_3 C 0.3089(3) 0.8812(2) 0.1836(2)
C3_3 C 0.4528(3) 0.8690(4) 0.5270(4)
C4_3 C 0.6442(3) 0.8812(3) 0.5052(2)
C5_3 C 0.42786(14) 0.72479(13) 0.49378(17)
H1_3 H 0.4226 0.7046 0.5052
C7_3 C 0.27149(17) 0.9823(2) 0.3835(2)
H3_3 H 0.2491 0.9763 0.3768
C8_3 C 0.28919(18) 0.96584(18) 0.36781(18)
H4_3 H 0.2785 0.9508 0.3504
C9_3 C 0.33401(18) 0.9953(2) 0.40248(15)
H5_3 H 0.3554 0.9996 0.4105
C10_3 C 0.46148(13) 0.75374(14) 0.49499(16)
H6_3 H 0.4788 0.7524 0.5067
C11_3 C 0.2996(2) 0.8180(3) 0.1166(3)
C12_3 C 0.35149(14) 0.90452(13) 0.22813(12)
H7_3 H 0.3691 0.9077 0.2139
C13_3 C 0.40236(12) 0.72647(12) 0.47551(16)
C16_3 C 0.29347(15) 0.88901(13) 0.23822(19)
H9_3 H 0.2707 0.8806 0.2310
C17_3 C 0.40689(16) 0.89784(17) 0.37580(12)
H10_3 H 0.3942 0.8836 0.3585
C19_3 C 0.43075(15) 0.89131(15) 0.39313(14)
H11_3 H 0.4348 0.8737 0.3861
C20_3 C 0.36189(12) 0.66269(14) 0.47378(15)
H12_3 H 0.3813 0.6599 0.4750
C21_3 C 0.50512(12) 0.81466(14) 0.48093(12)
C22_3 C 0.36772(12) 0.69647(12) 0.47296(15)
C23_3 C 0.30091(13) 0.89886(13) 0.26989(15)
H13_3 H 0.2832 0.8971 0.2835
C25_3 C 0.44235(12) 0.93737(14) 0.42798(11)
H15_3 H 0.4531 0.9509 0.4464
C26_3 C 0.41988(13) 0.94496(14) 0.40816(16)
H16_3 H 0.4183 0.9647 0.4129
C27_3 C 0.64322(12) 0.96427(12) 0.42827(11)
H17_3 H 0.6492 0.9499 0.4397
C30_3 C 0.31719(18) 0.89089(14) 0.21704(15)
C31_3 C 0.44414(12) 0.78532(11) 0.46291(13)
H19_3 H 0.4488 0.8060 0.4527
C32_3 C 0.41082(12) 0.75704(13) 0.46036(14)
H20_3 H 0.3940 0.7589 0.4483
C33_3 C 0.66863(11) 0.99235(13) 0.41281(11)
H21_3 H 0.6914 0.9967 0.4135
C36_3 C 0.35871(13) 0.91348(12) 0.26147(13)
H24_3 H 0.3811 0.9210 0.2693
C38_3 C 0.58119(13) 0.92407(11) 0.44540(10)
C40_3 C 0.60084(11) 0.97836(12) 0.41170(10)
H26_3 H 0.5780 0.9742 0.4119
C42_3 C 0.34366(11) 0.92436(11) 0.31624(11)
C45_3 C 0.46942(12) 0.78473(12) 0.47886(13)
C46_3 C 0.44791(11) 0.91054(12) 0.41994(12)
C49_3 C 0.33664(12) 0.95407(11) 0.36223(12)
C50_3 C 0.47107(11) 0.90252(14) 0.43966(12)
C52_3 C 0.60886(11) 0.95585(11) 0.42796(10)
C54_3 C 0.36729(10) 0.91942(11) 0.33357(11)
H31_3 H 0.3776 0.9079 0.3237
C55_3 C 0.33398(13) 0.91149(11) 0.28266(12)
C57_3 C 0.32846(11) 0.94121(11) 0.33172(12)
H33_3 H 0.3116 0.9438 0.3205
C60_3 C 0.40242(12) 0.92569(12) 0.38478(10)
C62_3 C 0.31933(13) 0.97191(12) 0.37775(12)
C63_3 C 0.36071(11) 0.94907(11) 0.37931(10)
H35_3 H 0.3667 0.9578 0.4005
C66_3 C 0.37633(10) 0.93117(11) 0.36553(10)
C67_3 C 0.66377(18) 0.86404(19) 0.49913(17)
H36_3 H 0.6481 0.8403 0.4931
H37_3 H 0.6762 0.8647 0.5186
H38_3 H 0.6800 0.8757 0.4818
O1_3 O 0.4421(2) 0.8454(2) 0.5509(2)
O2_3 O 0.27765(13) 0.86892(10) 0.17313(10)
O3_3 O 0.33138(17) 0.88431(14) 0.16450(11)
O4_3 O 0.65432(18) 0.9153(3) 0.5137(2)
C68_3 C 0.4562(3) 0.9035(2) 0.5354(2)
H39_3 H 0.4643 0.9185 0.5167
H40_3 H 0.4726 0.9141 0.5530
H41_3 H 0.4339 0.9001 0.5420
O5_3 O 0.28123(17) 0.81138(16) 0.1358(2)
O6_3 O 0.3270(3) 0.8350(3) 0.1063(2)
O9_3 O 0.57165(11) 0.83779(13) 0.43718(9)
H42_3 H 0.5588 0.8366 0.4212
H43_3 H 0.5856 0.8300 0.4353
O11_3 O 0.61109(9) 0.85897(9) 0.49646(10)
O12_3 O 0.46588(10) 0.85960(11) 0.50388(10)
O13_3 O 0.59114(7) 0.90573(8) 0.45942(8)
O14_3 O 0.52848(8) 0.81035(7) 0.49465(8)
O16_3 O 0.48911(8) 0.92285(8) 0.46311(7)
O19_3 O 0.55030(7) 0.91747(6) 0.44434(6)
O20_3 O 0.47213(6) 0.87519(8) 0.43334(7)
O21_3 O 0.51365(6) 0.84462(7) 0.46887(7)
C69_3 C 0.3381(3) 0.78331(18) 0.10403(18)
H44_3 H 0.3522 0.8029 0.0915
C70_3 C 0.28966(16) 0.75286(19) 0.13589(18)
H45_3 H 0.2700 0.7508 0.1462
C71_3 C 0.34563(17) 0.75568(15) 0.10517(14)
H46_3 H 0.3654 0.7578 0.0952
C72_3 C 0.29562(13) 0.72474(13) 0.13710(14)
H47_3 H 0.2804 0.7050 0.1490
C73_3 C 0.3108(3) 0.7823(2) 0.1207(2)
C74_3 C 0.32245(13) 0.72532(11) 0.12178(12)
C75_3 C 0.30041(10) 0.66195(12) 0.12110(9)
H48_3 H 0.2779 0.6587 0.1212
C76_3 C 0.32837(11) 0.69551(11) 0.12109(9)
C77_3 C 0.27521(13) 0.70308(19) 0.49378(17)
H49_3 H 0.2954 0.7181 0.5052
C78_3 C 0.24626(14) 0.70775(19) 0.49499(16)
H50_3 H 0.2476 0.7265 0.5067
C79_3 C 0.27353(12) 0.67590(17) 0.47551(16)
C80_3 C 0.33731(14) 0.69921(18) 0.47378(15)
H51_3 H 0.3401 0.7215 0.4750
C81_3 C 0.18534(14) 0.69047(18) 0.48093(12)
C82_3 C 0.30353(12) 0.67126(17) 0.47296(15)
C83_3 C 0.21468(11) 0.65883(16) 0.46291(13)
H52_3 H 0.1940 0.6429 0.4527
C84_3 C 0.24296(13) 0.65379(18) 0.46036(14)
H53_3 H 0.2411 0.6352 0.4483
C85_3 C 0.21527(12) 0.68470(17) 0.47886(13)
O22_3 O 0.18965(7) 0.71814(11) 0.49465(8)
O23_3 O 0.15538(7) 0.66904(9) 0.46887(7)
C86_3 C 0.29692(19) 0.57214(14) 0.49378(17)
H54_3 H 0.2819 0.5774 0.5052
C87_3 C 0.29225(19) 0.53852(13) 0.49499(16)
H55_3 H 0.2735 0.5212 0.5067
C88_3 C 0.32410(17) 0.59764(12) 0.47551(16)
C89_3 C 0.30079(18) 0.63811(12) 0.47378(15)
H56_3 H 0.2785 0.6187 0.4750
C90_3 C 0.30953(18) 0.49488(12) 0.48093(12)
C91_3 C 0.32874(17) 0.63228(12) 0.47296(15)
C92_3 C 0.34117(16) 0.55586(12) 0.46291(13)
H57_3 H 0.3571 0.5512 0.4527
C93_3 C 0.34621(18) 0.58918(12) 0.46036(14)
H58_3 H 0.3648 0.6060 0.4483
C94_3 C 0.31530(17) 0.53058(12) 0.47886(13)
O24_3 O 0.28186(11) 0.47152(8) 0.49465(8)
O25_3 O 0.33096(9) 0.48635(6) 0.46887(7)
C95_3 C 0.1820(3) 0.4817(4) 0.1166(3)
O26_3 O 0.18862(16) 0.46986(23) 0.1358(2)
O27_3 O 0.1650(3) 0.4921(4) 0.1063(2)
C96_3 C 0.21669(18) 0.55483(35) 0.10403(18)
H59_3 H 0.1971 0.5494 0.0915
C97_3 C 0.24714(19) 0.53681(25) 0.13589(18)
H60_3 H 0.2492 0.5193 0.1462
C98_3 C 0.24432(15) 0.58996(23) 0.10517(14)
H61_3 H 0.2422 0.6077 0.0952
C99_3 C 0.27526(13) 0.57089(18) 0.13710(14)
H62_3 H 0.2950 0.5755 0.1490
C100_3 C 0.2177(2) 0.5286(4) 0.1207(2)
C101_3 C 0.27468(11) 0.59714(17) 0.12178(12)
C102_3 C 0.33805(12) 0.63847(16) 0.12110(9)
H63_3 H 0.3413 0.6193 0.1212
C103_3 C 0.30449(11) 0.63287(16) 0.12109(9)
C104_3 C 0.5183(4) 0.7004(2) 0.1166(3)
O28_3 O 0.53014(23) 0.71877(17) 0.1358(2)
O29_3 O 0.5079(4) 0.6730(3) 0.1063(2)
C105_3 C 0.44517(35) 0.6619(3) 0.10403(18)
H64_3 H 0.4506 0.6478 0.0915
C106_3 C 0.46319(25) 0.71034(16) 0.13589(18)
H65_3 H 0.4807 0.7300 0.1462
C107_3 C 0.41004(23) 0.65437(17) 0.10517(14)
H66_3 H 0.3923 0.6346 0.0952
C108_3 C 0.42911(18) 0.70438(13) 0.13710(14)
H67_3 H 0.4245 0.7196 0.1490
C109_3 C 0.4714(4) 0.6892(3) 0.1207(2)
C110_3 C 0.40286(17) 0.67755(13) 0.12178(12)
C111_3 C 0.36153(16) 0.69959(10) 0.12110(9)
H68_3 H 0.3807 0.7221 0.1212
C112_3 C 0.36713(16) 0.67163(11) 0.12109(9)
C113_3 C 0.1188(2) 0.4278(4) 0.1836(2)
C115_3 C 0.1310(4) 0.5839(5) 0.5270(4)
C116_3 C 0.1188(3) 0.7631(4) 0.5052(2)
C118_3 C 0.0177(2) 0.28923(26) 0.3835(2)
H70_3 H 0.0237 0.2729 0.3768
C119_3 C 0.03416(18) 0.32336(25) 0.36781(18)
H71_3 H 0.0492 0.3278 0.3504
C120_3 C 0.0047(2) 0.33875(27) 0.40248(15)
H72_3 H 0.0004 0.3559 0.4105
C121_3 C 0.09548(13) 0.44698(19) 0.22813(12)
H73_3 H 0.0923 0.4615 0.2139
C124_3 C 0.11099(13) 0.40447(20) 0.23822(19)
H75_3 H 0.1194 0.3902 0.2310
C125_3 C 0.10216(17) 0.50906(23) 0.37580(12)
H76_3 H 0.1164 0.5107 0.3585
C127_3 C 0.10869(15) 0.53945(21) 0.39313(14)
H77_3 H 0.1263 0.5612 0.3861
C128_3 C 0.10114(13) 0.40206(18) 0.26989(15)
H78_3 H 0.1029 0.3862 0.2835
C130_3 C 0.06263(14) 0.50499(18) 0.42798(11)
H80_3 H 0.0491 0.5023 0.4464
C131_3 C 0.05504(14) 0.47493(19) 0.40816(16)
H81_3 H 0.0353 0.4537 0.4129
C132_3 C 0.03573(12) 0.67896(17) 0.42827(11)
H82_3 H 0.0501 0.6994 0.4397
C135_3 C 0.10911(14) 0.42631(23) 0.21704(15)
C136_3 C 0.00765(13) 0.67629(17) 0.41281(11)
H84_3 H 0.0033 0.6948 0.4135
C139_3 C 0.08652(12) 0.44524(18) 0.26147(13)
H87_3 H 0.0790 0.4602 0.2693
C141_3 C 0.07593(11) 0.65713(17) 0.44540(10)
C143_3 C 0.02164(12) 0.62249(16) 0.41170(10)
H89_3 H 0.0258 0.6039 0.4119
C145_3 C 0.07564(11) 0.41931(16) 0.31624(11)
C148_3 C 0.08946(12) 0.53738(16) 0.41994(12)
C151_3 C 0.04593(11) 0.38258(16) 0.36223(12)
C152_3 C 0.09748(14) 0.56856(18) 0.43966(12)
C154_3 C 0.04415(11) 0.65302(16) 0.42796(10)
C156_3 C 0.08058(11) 0.44788(15) 0.33357(11)
H94_3 H 0.0921 0.4698 0.3237
C157_3 C 0.08851(11) 0.42250(17) 0.28266(12)
C159_3 C 0.05879(11) 0.38726(16) 0.33172(12)
H96_3 H 0.0562 0.3679 0.3205
C162_3 C 0.07431(12) 0.47674(17) 0.38478(10)
C164_3 C 0.02809(12) 0.34743(18) 0.37775(12)
C165_3 C 0.05093(11) 0.41165(16) 0.37931(10)
H98_3 H 0.0422 0.4090 0.4005
C168_3 C 0.06883(11) 0.44517(15) 0.36553(10)
C169_3 C 0.13596(19) 0.79974(26) 0.49913(17)
H99_3 H 0.1597 0.8079 0.4931
H100_3 H 0.1353 0.8116 0.5186
H101_3 H 0.1243 0.8044 0.4818
O30_3 O 0.1546(2) 0.5968(3) 0.5509(2)
O31_3 O 0.13108(10) 0.40874(16) 0.17313(10)
O32_3 O 0.11569(14) 0.44708(22) 0.16450(11)
O33_3 O 0.0847(3) 0.73906(35) 0.5137(2)
C170_3 C 0.0965(2) 0.5528(4) 0.5354(2)
H102_3 H 0.0815 0.5459 0.5167
H103_3 H 0.0859 0.5586 0.5530
H104_3 H 0.0999 0.5339 0.5420
O36_3 O 0.16221(13) 0.73387(17) 0.43718(9)
H105_3 H 0.1634 0.7223 0.4212
H106_3 H 0.1700 0.7557 0.4353
O38_3 O 0.14103(9) 0.75213(13) 0.49646(10)
O39_3 O 0.14040(11) 0.60629(15) 0.50388(10)
O40_3 O 0.09427(8) 0.68542(11) 0.45942(8)
O42_3 O 0.07715(8) 0.56627(11) 0.46311(7)
O45_3 O 0.08253(6) 0.63284(9) 0.44434(6)
O46_3 O 0.12481(8) 0.59695(10) 0.43334(7)
C171_3 C 0.5722(4) 0.6911(3) 0.1836(2)
C172_3 C 0.35761(16) 0.31190(11) 0.37761(11)
C173_3 C 0.4161(5) 0.5472(3) 0.5270(4)
C174_3 C 0.2369(4) 0.3558(3) 0.5052(2)
C175_3 C 0.69297(28) 0.6805(2) 0.41601(14)
H107_3 H 0.6978 0.6684 0.4317
C176_3 C 0.71077(26) 0.72851(17) 0.3835(2)
H108_3 H 0.7271 0.7509 0.3768
C177_3 C 0.67664(25) 0.71081(18) 0.36781(18)
H109_3 H 0.6722 0.7215 0.3504
C178_3 C 0.66125(27) 0.66599(18) 0.40248(15)
H110_3 H 0.6441 0.6446 0.4105
C179_3 C 0.55302(19) 0.64851(14) 0.22813(12)
H111_3 H 0.5385 0.6309 0.2139
C180_3 C 0.71873(22) 0.71372(16) 0.40660(17)
C181_3 C 0.32316(16) 0.20824(12) 0.41863(12)
H112_3 H 0.3356 0.2267 0.4330
C182_3 C 0.59553(20) 0.70653(15) 0.23822(19)
H113_3 H 0.6098 0.7293 0.2310
C183_3 C 0.49094(23) 0.59311(16) 0.37580(12)
H114_3 H 0.4893 0.6058 0.3585
C184_3 C 0.7592(4) 0.7394(3) 0.4245(2)
C185_3 C 0.46055(21) 0.56925(15) 0.39313(14)
H115_3 H 0.4388 0.5652 0.3861
C186_3 C 0.59794(18) 0.69909(13) 0.26989(15)
H116_3 H 0.6138 0.7168 0.2835
C187_3 C 0.30406(21) 0.17429(17) 0.42995(13)
H117_3 H 0.3030 0.1702 0.4523
C188_3 C 0.49501(18) 0.55765(12) 0.42798(11)
H118_3 H 0.4977 0.5469 0.4464
C189_3 C 0.52507(19) 0.58012(13) 0.40816(16)
H119_3 H 0.5463 0.5817 0.4129
C190_3 C 0.32104(17) 0.35678(12) 0.42827(11)
H120_3 H 0.3006 0.3508 0.4397
C191_3 C 0.42832(16) 0.33810(11) 0.25588(13)
H121_3 H 0.4458 0.3606 0.2507
C192_3 C 0.26675(19) 0.10970(15) 0.4226(2)
C193_3 C 0.57369(23) 0.68281(18) 0.21704(15)
C194_3 C 0.32371(17) 0.33137(11) 0.41281(11)
H122_3 H 0.3052 0.3086 0.4135
C195_3 C 0.39286(16) 0.27947(11) 0.24205(12)
H123_3 H 0.3853 0.2609 0.2276
C196_3 C 0.41459(17) 0.33192(12) 0.28636(11)
H124_3 H 0.4221 0.3504 0.3011
C197_3 C 0.55476(18) 0.64129(13) 0.26147(13)
H125_3 H 0.5398 0.6189 0.2693
C198_3 C 0.37908(17) 0.27337(11) 0.27324(12)
H126_3 H 0.3619 0.2509 0.2787
C199_3 C 0.34287(17) 0.41881(13) 0.44540(10)
C200_3 C 0.28670(18) 0.14667(14) 0.40930(16)
C201_3 C 0.37751(16) 0.39916(11) 0.41170(10)
H127_3 H 0.3961 0.4220 0.4119
C202_3 C 0.34198(16) 0.27754(11) 0.38988(10)
H128_3 H 0.3316 0.2728 0.4104
C203_3 C 0.58069(16) 0.65634(11) 0.31624(11)
C204_3 C 0.32325(16) 0.21417(12) 0.38499(12)
C205_3 C 0.37367(16) 0.29175(11) 0.32877(11)
C206_3 C 0.46262(16) 0.55209(11) 0.41994(12)
C207_3 C 0.38062(17) 0.37343(12) 0.39509(10)
H129_3 H 0.4009 0.3797 0.3834
C208_3 C 0.30602(16) 0.18723(12) 0.36468(11)
H130_3 H 0.3066 0.1917 0.3425
C209_3 C 0.61742(16) 0.66336(12) 0.36223(12)
C210_3 C 0.43144(18) 0.52893(11) 0.43966(12)
C211_3 C 0.35858(16) 0.25917(11) 0.34243(10)
H131_3 H 0.3596 0.2415 0.3312
C212_3 C 0.34698(16) 0.39114(11) 0.42796(10)
C213_3 C 0.34161(16) 0.25137(11) 0.37268(10)
C214_3 C 0.55212(15) 0.63271(10) 0.33357(11)
H132_3 H 0.5302 0.6224 0.3237
C215_3 C 0.57750(17) 0.66602(13) 0.28266(12)
C216_3 C 0.28734(16) 0.15298(12) 0.37548(12)
H133_3 H 0.2755 0.1347 0.3609
C217_3 C 0.61274(16) 0.67154(11) 0.33172(12)
H134_3 H 0.6321 0.6884 0.3205
C218_3 C 0.38928(15) 0.29835(11) 0.29619(10)
C219_3 C 0.43269(18) 0.31897(14) 0.19892(11)
C220_3 C 0.52326(17) 0.59758(12) 0.38478(10)
C221_3 C 0.37215(15) 0.31737(10) 0.34701(11)
H135_3 H 0.3815 0.3396 0.3380
C222_3 C 0.65257(18) 0.68067(13) 0.37775(12)
C223_3 C 0.58835(16) 0.63929(11) 0.37931(10)
H136_3 H 0.5910 0.6333 0.4005
C224_3 C 0.35463(16) 0.33920(11) 0.39544(10)
C225_3 C 0.41717(15) 0.31207(11) 0.23194(10)
C226_3 C 0.55483(15) 0.62367(10) 0.36553(10)
C227_3 C 0.20026(26) 0.33623(18) 0.49913(17)
H137_3 H 0.1921 0.3519 0.4931
H138_3 H 0.1884 0.3238 0.5186
H139_3 H 0.1956 0.3200 0.4818
O47_3 O 0.4032(3) 0.5579(2) 0.5509(2)
O48_3 O 0.59126(16) 0.72235(13) 0.17313(10)
O49_3 O 0.55292(22) 0.66862(17) 0.16450(11)
O50_3 O 0.26094(35) 0.34568(18) 0.5137(2)
C228_3 C 0.4472(4) 0.5438(3) 0.5354(2)
H140_3 H 0.4541 0.5357 0.5167
H141_3 H 0.4414 0.5274 0.5530
H142_3 H 0.4661 0.5661 0.5420
O52_3 O 0.77606(23) 0.75977(15) 0.4116(3)
O53_3 O 0.26613(17) 0.42835(11) 0.43718(9)
H143_3 H 0.2777 0.4412 0.4212
H144_3 H 0.2443 0.4144 0.4353
O54_3 O 0.24838(13) 0.08632(9) 0.40306(11)
O55_3 O 0.24787(13) 0.38891(9) 0.49646(10)
O56_3 O 0.39371(15) 0.53412(10) 0.50388(10)
O57_3 O 0.31458(11) 0.40886(7) 0.45942(8)
O59_3 O 0.43373(11) 0.51089(8) 0.46311(7)
O62_3 O 0.36716(9) 0.44970(7) 0.44434(6)
O63_3 O 0.40305(10) 0.52787(6) 0.43334(7)
C114_3 C 0.95428(11) 0.64239(16) 0.37761(11)
C117_3 C 0.98749(19) 0.30703(28) 0.41601(14)
H69_3 H 0.9705 0.3022 0.4317
C122_3 C 0.99498(15) 0.28127(22) 0.40660(17)
C123_3 C 0.88507(11) 0.67684(16) 0.41863(12)
H74_3 H 0.8910 0.6644 0.4330
C126_3 C 0.9801(2) 0.2408(4) 0.4245(2)
C129_3 C 0.87022(13) 0.69594(21) 0.42995(13)
H79_3 H 0.8671 0.6970 0.4523
C133_3 C 0.90977(12) 0.57168(16) 0.25588(13)
H83_3 H 0.9147 0.5542 0.2507
C134_3 C 0.84294(12) 0.73325(19) 0.4226(2)
C137_3 C 0.88660(11) 0.60714(16) 0.24205(12)
H85_3 H 0.8755 0.6147 0.2276
C138_3 C 0.91732(12) 0.58541(17) 0.28636(11)
H86_3 H 0.9282 0.5779 0.3011
C140_3 C 0.89428(13) 0.62092(17) 0.27324(12)
H88_3 H 0.8889 0.6381 0.2787
C142_3 C 0.85996(11) 0.71330(18) 0.40930(16)
C144_3 C 0.93555(11) 0.65802(16) 0.38988(10)
H90_3 H 0.9411 0.6684 0.4104
C146_3 C 0.89091(11) 0.67675(16) 0.38499(12)
C147_3 C 0.91807(11) 0.62633(16) 0.32877(11)
C149_3 C 0.99280(12) 0.61938(17) 0.39509(10)
H91_3 H 0.9787 0.5991 0.3834
C150_3 C 0.88120(10) 0.69398(16) 0.36468(11)
H92_3 H 0.8850 0.6934 0.3425
C153_3 C 0.90058(11) 0.64142(16) 0.34243(10)
H93_3 H 0.8818 0.6404 0.3312
C155_3 C 0.90975(11) 0.65839(16) 0.37268(10)
C158_3 C 0.86563(10) 0.71266(16) 0.37548(12)
H95_3 H 0.8591 0.7245 0.3609
C160_3 C 0.90906(10) 0.61072(15) 0.29619(10)
C161_3 C 0.88627(11) 0.56731(18) 0.19892(11)
C163_3 C 0.94521(11) 0.62785(15) 0.34701(11)
H97_3 H 0.9580 0.6185 0.3380
C166_3 C 0.98456(12) 0.64537(16) 0.39544(10)
C167_3 C 0.89489(10) 0.58283(15) 0.23194(10)
O35_3 O 0.98370(18) 0.22394(23) 0.4116(3)
O37_3 O 0.83793(10) 0.75162(13) 0.40306(11)
C75_4 C 0.03292(10) 0.00472(12) 0.54557(9)
H48_4 H 0.0554 0.0080 0.5455
C83_4 C 0.11865(11) 0.00784(16) 0.20376(13)
H52_4 H 0.1393 0.0238 0.2140
C84_4 C 0.09037(13) 0.01288(18) 0.20631(14)
H53_4 H 0.0922 0.0315 0.2184
C86_4 C 0.03641(19) 0.09453(14) 0.17289(17)
H54_4 H 0.0514 0.0893 0.1615
C87_4 C 0.04108(19) 0.12815(13) 0.17168(16)
H55_4 H 0.0598 0.1455 0.1600
C88_4 C 0.00923(17) 0.06903(12) 0.19116(16)
C89_4 C 0.03254(18) 0.02856(12) 0.19289(15)
H56_4 H 0.0548 0.0480 0.1917
C90_4 C 0.02380(18) 0.17179(12) 0.18574(12)
C91_4 C 0.00459(17) 0.03439(12) 0.19371(15)
C94_4 C 0.01803(17) 0.13609(12) 0.18781(13)
O24_4 O 0.05147(11) 0.19515(8) 0.17202(8)
O25_4 O 0.00237(9) 0.18032(6) 0.19780(7)
C95_4 C 0.1513(3) 0.1850(4) 0.5501(3)
O26_4 O 0.14471(16) 0.19681(23) 0.5309(2)
O27_4 O 0.1683(3) 0.1746(4) 0.5604(2)
C96_4 C 0.11664(18) 0.11184(35) 0.56264(18)
H59_4 H 0.1362 0.1173 0.5752
C97_4 C 0.08619(19) 0.12986(25) 0.53078(18)
H60_4 H 0.0841 0.1474 0.5205
C98_4 C 0.08901(15) 0.07671(23) 0.56150(14)
H61_4 H 0.0911 0.0590 0.5715
C99_4 C 0.05807(13) 0.09578(18) 0.52957(14)
H62_4 H 0.0383 0.0912 0.5177
C100_4 C 0.1156(2) 0.1381(4) 0.5460(2)
C101_4 C 0.05865(11) 0.06953(17) 0.54489(12)
C103_4 C 0.02884(11) 0.03380(16) 0.54558(9)
Mg4_3 Mg 0.21998(3) 0.04628(4) 0.19356(3)
Mg6_2 Mg 0.18970(3) 0.24234(5) 0.54157(4)
C113_4 C 0.2145(2) 0.2389(4) 0.4831(2)
C114_4 C 0.37905(11) 0.02428(16) 0.28906(11)
C115_4 C 0.2023(4) 0.0828(5) 0.1397(4)
C117_4 C 0.34584(19) 0.35964(28) 0.25066(14)
H69_4 H 0.3628 0.3645 0.2350
C118_4 C 0.3156(2) 0.37744(26) 0.2832(2)
H70_4 H 0.3096 0.3938 0.2899
C119_4 C 0.29917(18) 0.34331(25) 0.29886(18)
H71_4 H 0.2841 0.3389 0.3163
C120_4 C 0.3286(2) 0.32792(27) 0.26419(15)
H72_4 H 0.3329 0.3108 0.2562
C121_4 C 0.23785(13) 0.21969(19) 0.43854(12)
H73_4 H 0.2410 0.2052 0.4528
C122_4 C 0.33835(15) 0.38540(22) 0.26007(17)
H74_4 H 0.4423 0.0023 0.2337
C124_4 C 0.22234(13) 0.26220(20) 0.42845(19)
H75_4 H 0.2139 0.2765 0.4357
C125_4 C 0.23117(17) 0.15761(23) 0.29087(12)
H76_4 H 0.2169 0.1560 0.3082
C126_4 C 0.3532(2) 0.4259(4) 0.2422(2)
C127_4 C 0.22464(15) 0.12722(21) 0.27354(14)
H77_4 H 0.2070 0.1055 0.2806
C128_4 C 0.23219(13) 0.26461(18) 0.39678(15)
H78_4 H 0.2304 0.2805 0.3832
C130_4 C 0.27070(14) 0.16168(18) 0.23869(11)
H80_4 H 0.2842 0.1644 0.2203
C131_4 C 0.27829(14) 0.19174(19) 0.25851(16)
H81_4 H 0.2980 0.2130 0.2538
C133_4 C 0.42356(12) 0.09499(16) 0.41079(13)
H83_4 H 0.4186 0.1125 0.4160
C135_4 C 0.22422(14) 0.24036(23) 0.44963(15)
C137_4 C 0.44673(11) 0.05953(16) 0.42462(12)
H85_4 H 0.4578 0.0520 0.4391
C138_4 C 0.41601(12) 0.08126(17) 0.38031(11)
H86_4 H 0.4051 0.0888 0.3656
C139_4 C 0.24681(12) 0.22143(18) 0.40520(13)
H87_4 H 0.2543 0.2065 0.3974
C140_4 C 0.43905(13) 0.04575(17) 0.39343(12)
H88_4 H 0.4444 0.0286 0.3880
C141_4 C 0.25740(11) 0.00954(17) 0.22127(10)
C143_4 C 0.31169(12) 0.04418(16) 0.25497(10)
H89_4 H 0.3075 0.0628 0.2548
C144_4 C 0.39778(11) 0.00865(16) 0.27679(10)
C145_4 C 0.25769(11) 0.24736(16) 0.35043(11)
C147_4 C 0.41526(11) 0.04034(16) 0.33790(11)
C148_4 C 0.24387(12) 0.12929(16) 0.24673(12)
C149_4 C 0.34053(12) 0.04729(17) 0.27158(10)
H91_4 H 0.3546 0.0676 0.2833
C151_4 C 0.28740(11) 0.28409(16) 0.30444(12)
C152_4 C 0.23585(14) 0.09811(18) 0.22701(12)
C153_4 C 0.43275(11) 0.02525(16) 0.32424(10)
H93_4 H 0.4515 0.0263 0.3355
C154_4 C 0.28918(11) 0.01365(16) 0.23871(10)
C155_4 C 0.42358(11) 0.00828(16) 0.29399(10)
C156_4 C 0.25275(11) 0.21879(15) 0.33310(11)
H94_4 H 0.2412 0.1969 0.3430
C157_4 C 0.24482(11) 0.24417(17) 0.38401(12)
C159_4 C 0.27454(11) 0.27941(16) 0.33495(12)
H96_4 H 0.2771 0.2988 0.3462
C160_4 C 0.42427(10) 0.05595(15) 0.37048(10)
C161_4 C 0.44706(11) 0.09936(18) 0.46775(11)
C162_4 C 0.25902(12) 0.18993(17) 0.28189(10)
C163_4 C 0.38812(11) 0.03882(15) 0.31966(11)
H97_4 H 0.3753 0.0482 0.3287
C164_4 C 0.30524(12) 0.31924(18) 0.28892(12)
C165_4 C 0.28240(11) 0.25502(16) 0.28736(10)
H98_4 H 0.2911 0.2577 0.2662
C166_4 C 0.34877(12) 0.02130(16) 0.27123(10)
C167_4 C 0.43844(10) 0.08384(15) 0.43473(10)
C168_4 C 0.26450(11) 0.22150(15) 0.30114(10)
O30_4 O 0.1787(2) 0.0699(3) 0.1158(2)
O31_4 O 0.20225(10) 0.25793(16) 0.49354(10)
O32_4 O 0.21764(14) 0.21959(22) 0.50217(11)
C170_4 C 0.2368(2) 0.1139(4) 0.1313(2)
H102_4 H 0.2518 0.1208 0.1500
H103_4 H 0.2474 0.1081 0.1137
H104_4 H 0.2334 0.1328 0.1247
O34_3 O 0.3775(2) 0.4287(3) 0.22674(13)
O35_4 O 0.34963(18) 0.44273(23) 0.2551(3)
O39_4 O 0.19293(11) 0.06038(15) 0.16279(10)
O42_4 O 0.25618(8) 0.10040(11) 0.20356(7)
O43_2 O 0.46372(7) 0.09105(10) 0.48612(7)
O44_2 O 0.43579(7) 0.12022(11) 0.47549(6)
O45_4 O 0.25080(6) 0.03383(9) 0.22233(6)
O46_4 O 0.20852(8) 0.06972(10) 0.23333(7)
Mg8_3 Mg 0.04156(4) 0.23539(3) 0.18489(3)
C174_4 C 0.0964(4) 0.3109(3) 0.1615(2)
C181_4 C 0.01017(16) 0.45843(12) 0.24804(12)
C187_4 C 0.02927(21) 0.49238(17) 0.23672(13)
H117_4 H 0.0303 0.4965 0.2144
C190_4 C 0.01229(17) 0.30989(12) 0.23840(11)
H120_4 H 0.0327 0.3159 0.2270
C192_4 C 0.06658(19) 0.55697(15) 0.2441(2)
C194_4 C 0.00962(17) 0.33530(11) 0.25386(11)
H122_4 H 0.0281 0.3581 0.2532
C200_4 C 0.04663(18) 0.52000(14) 0.25737(16)
H128_4 H 0.0017 0.3939 0.2563
C204_4 C 0.01008(16) 0.45250(12) 0.28168(12)
C208_4 C 0.02731(16) 0.47944(12) 0.30199(11)
H130_4 H 0.0267 0.4750 0.3242
C216_4 C 0.04599(16) 0.51369(12) 0.29119(12)
H133_4 H 0.0578 0.5320 0.3058
C227_4 C 0.13307(26) 0.33044(18) 0.16754(17)
H137_4 H 0.1412 0.3148 0.1736
H138_4 H 0.1449 0.3429 0.1481
H139_4 H 0.1377 0.3467 0.1849
O50_4 O 0.07239(35) 0.32099(18) 0.1530(2)
O53_4 O 0.06720(17) 0.23832(11) 0.22949(9)
H143_4 H 0.0556 0.2255 0.2455
H144_4 H 0.0890 0.2523 0.2314
O54_4 O 0.08495(13) 0.58035(9) 0.26361(11)
O55_4 O 0.08546(13) 0.27776(9) 0.17021(10)
O57_4 O 0.01875(11) 0.25781(7) 0.20725(8)
O58_3 O 0.06366(12) 0.56300(9) 0.21516(10)
Mg10_2 Mg 0.49297(3) 0.11335(3) 0.52689(3)
Mg13_2 Mg 0.43128(3) 0.13950(3) 0.51822(3)
Mg16 Mg 0.38597(4) 0.47697(3) 0.20824(4)
Mg20 Mg 0.09099(5) 0.61403(4) 0.20824(4)
O66_2 O 0.2380(3) 0.2821(2) 0.56007(13)
O68_2 O 0.16601(8) 0.26967(12) 0.54849(10)
O72_3 O 0.24228(10) 0.03934(7) 0.15279(7)
O73_3 O 0.01776(8) 0.23088(7) 0.14216(6)
Mg3_2 Mg 0.05264(4) 0.81030(3) 0.54157(4)
C1_4 C 0.0244(3) 0.7855(2) 0.4831(2)
C6_4 C 0.0138(2) 0.65416(19) 0.25066(14)
H2_4 H 0.0017 0.6372 0.2350
C7_4 C 0.06184(17) 0.6844(2) 0.2832(2)
H3_4 H 0.0842 0.6904 0.2899
C8_4 C 0.04414(18) 0.70083(18) 0.29886(18)
H4_4 H 0.0548 0.7159 0.3163
C11_4 C 0.0337(2) 0.8487(3) 0.5501(3)
C14_4 C 0.04705(16) 0.66165(15) 0.26007(17)
C16_4 C 0.03986(15) 0.77766(13) 0.42845(19)
H9_4 H 0.0626 0.7861 0.4357
C18_4 C 0.0727(3) 0.6468(2) 0.2422(2)
C23_4 C 0.03242(13) 0.76781(13) 0.39678(15)
H13_4 H 0.0501 0.7696 0.3832
C30_4 C 0.01614(18) 0.77578(14) 0.44963(15)
C57_4 C 0.00487(11) 0.72546(11) 0.33495(12)
H33_4 H 0.0217 0.7229 0.3462
C62_4 C 0.01400(13) 0.69476(12) 0.28892(12)
O2_4 O 0.05568(13) 0.79775(10) 0.49354(10)
O3_4 O 0.00195(17) 0.78236(14) 0.50217(11)
O5_4 O 0.05210(17) 0.85529(16) 0.5309(2)
O6_4 O 0.0063(3) 0.8317(3) 0.5604(2)
O7_3 O 0.0512(2) 0.6225(2) 0.22674(13)
O8_4 O 0.09310(15) 0.65037(18) 0.2551(3)
C70_4 C 0.04367(16) 0.91381(19) 0.53078(18)
H45_4 H 0.0633 0.9159 0.5205
C72_4 C 0.03771(13) 0.94193(13) 0.52957(14)
H47_4 H 0.0529 0.9617 0.5177
C73_4 C 0.0225(3) 0.8844(2) 0.5460(2)
C74_4 C 0.01088(13) 0.94135(11) 0.54489(12)
C76_4 C 0.00496(11) 0.97116(11) 0.54558(9)
C77_4 C 0.05812(13) 0.96359(19) 0.17289(17)
H49_4 H 0.0379 0.9486 0.1615
C78_4 C 0.08707(14) 0.95892(19) 0.17168(16)
H50_4 H 0.0857 0.9402 0.1600
C79_4 C 0.05980(12) 0.99077(17) 0.19116(16)
C81_4 C 0.14799(14) 0.97620(18) 0.18574(12)
C82_4 C 0.02980(12) 0.99541(17) 0.19371(15)
C85_4 C 0.11806(12) 0.98197(17) 0.18781(13)
O22_4 O 0.14368(7) 0.94853(11) 0.17202(8)
O23_4 O 0.17795(7) 0.99763(9) 0.19780(7)
Mg5_3 Mg 0.19383(3) 0.95844(4) 0.18489(3)
C116_4 C 0.2145(3) 0.9036(4) 0.1615(2)
C123_4 C 0.44826(11) 0.98983(16) 0.24804(12)
C129_4 C 0.46311(13) 0.97073(21) 0.23672(13)
H79_4 H 0.4662 0.9697 0.2144
C132_4 C 0.29760(12) 0.98771(17) 0.23840(11)
H82_4 H 0.2832 0.9673 0.2270
C134_4 C 0.49039(12) 0.93342(19) 0.2441(2)
C136_4 C 0.32568(13) 0.99038(17) 0.25386(11)
H84_4 H 0.3300 0.9719 0.2532
C142_4 C 0.47337(11) 0.95337(18) 0.25737(16)
H90_4 H 0.3922 0.9983 0.2563
C146_4 C 0.44242(11) 0.98992(16) 0.28168(12)
C150_4 C 0.45213(10) 0.97269(16) 0.30199(11)
H92_4 H 0.4483 0.9733 0.3242
C158_4 C 0.46770(10) 0.95401(16) 0.29119(12)
H95_4 H 0.4742 0.9422 0.3058
C169_4 C 0.19737(19) 0.86693(26) 0.16754(17)
H99_4 H 0.1736 0.8588 0.1736
H100_4 H 0.1980 0.8551 0.1481
H101_4 H 0.2090 0.8623 0.1849
O33_4 O 0.2486(3) 0.92761(35) 0.1530(2)
O36_4 O 0.17112(13) 0.93280(17) 0.22949(9)
H105_4 H 0.1699 0.9444 0.2455
H106_4 H 0.1633 0.9110 0.2314
O37_4 O 0.49540(10) 0.91505(13) 0.26361(11)
O38_4 O 0.19230(9) 0.91454(13) 0.17021(10)
O40_4 O 0.23906(8) 0.98125(11) 0.20725(8)
O41_3 O 0.49934(8) 0.93634(12) 0.21516(10)
Mg18 Mg 0.52303(3) 0.90901(5) 0.20824(4)
O65_2 O 0.0442(2) 0.7620(3) 0.56007(13)
O67_2 O 0.10367(9) 0.83399(8) 0.54849(10)
O75_3 O 0.21311(11) 0.98224(8) 0.14216(6)
C20_4 C 0.97144(12) 0.00398(14) 0.19289(15)
H12_4 H 0.9520 0.0068 0.1917
C92_4 C 0.99216(16) 0.11081(12) 0.20376(13)
H57_4 H 0.9762 0.1155 0.2140
C93_4 C 0.98712(18) 0.07749(12) 0.20631(14)
H58_4 H 0.9685 0.0607 0.2184
C102_4 C 0.99528(12) 0.02820(16) 0.54557(9)
H63_4 H 0.9920 0.0474 0.5455
C105_4 C 0.88816(35) 0.0048(3) 0.56264(18)
H64_4 H 0.8827 0.0189 0.5752
C107_4 C 0.92329(23) 0.01230(17) 0.56150(14)
H66_4 H 0.9410 0.0321 0.5715
Mg7_3 Mg 0.95372(4) 0.17370(3) 0.19356(3)
C172_4 C 0.97572(16) 0.35477(11) 0.28906(11)
C173_4 C 0.9172(5) 0.1195(3) 0.1397(4)
C178_4 C 0.67208(27) 0.00068(18) 0.26419(15)
H110_4 H 0.6892 0.0221 0.2562
C179_4 C 0.78031(19) 0.01816(14) 0.43854(12)
H111_4 H 0.7948 0.0358 0.4528
H112_4 H 0.9977 0.4400 0.2337
C183_4 C 0.84239(23) 0.07356(16) 0.29087(12)
H114_4 H 0.8440 0.0609 0.3082
C185_4 C 0.87278(21) 0.09742(15) 0.27354(14)
H115_4 H 0.8945 0.1015 0.2806
C188_4 C 0.83832(18) 0.10902(12) 0.23869(11)
H118_4 H 0.8356 0.1198 0.2203
C189_4 C 0.80826(19) 0.08655(13) 0.25851(16)
H119_4 H 0.7870 0.0850 0.2538
C191_4 C 0.90501(16) 0.32857(11) 0.41079(13)
H121_4 H 0.8875 0.3061 0.4160
C195_4 C 0.94047(16) 0.38720(11) 0.42462(12)
H123_4 H 0.9480 0.4058 0.4391
C196_4 C 0.91874(17) 0.33475(12) 0.38031(11)
H124_4 H 0.9112 0.3163 0.3656
C197_4 C 0.77857(18) 0.02538(13) 0.40520(13)
H125_4 H 0.7935 0.0478 0.3974
C198_4 C 0.95425(17) 0.39330(11) 0.39343(12)
H126_4 H 0.9714 0.4158 0.3880
C199_4 C 0.99046(17) 0.24786(13) 0.22127(10)
C201_4 C 0.95582(16) 0.26751(11) 0.25497(10)
H127_4 H 0.9372 0.2447 0.2548
C202_4 C 0.99135(16) 0.38913(11) 0.27679(10)
C203_4 C 0.75264(16) 0.01033(11) 0.35043(11)
C205_4 C 0.95966(16) 0.37492(11) 0.33790(11)
C206_4 C 0.87071(16) 0.11458(11) 0.24673(12)
C207_4 C 0.95271(17) 0.29324(12) 0.27158(10)
H129_4 H 0.9324 0.2870 0.2833
C209_4 C 0.71591(16) 0.00331(12) 0.30444(12)
C210_4 C 0.90189(18) 0.13774(11) 0.22701(12)
C211_4 C 0.97475(16) 0.40750(11) 0.32424(10)
H131_4 H 0.9737 0.4252 0.3355
C212_4 C 0.98635(16) 0.27553(11) 0.23871(10)
C213_4 C 0.99172(16) 0.41530(11) 0.29399(10)
C214_4 C 0.78121(15) 0.03396(10) 0.33310(11)
H132_4 H 0.8031 0.0443 0.3430
C215_4 C 0.75583(17) 0.00065(13) 0.38401(12)
C218_4 C 0.94405(15) 0.36832(11) 0.37048(10)
C219_4 C 0.90064(18) 0.34770(14) 0.46775(11)
C220_4 C 0.81007(17) 0.06909(12) 0.28189(10)
C221_4 C 0.96118(15) 0.34930(10) 0.31966(11)
H135_4 H 0.9518 0.3271 0.3287
C223_4 C 0.74498(16) 0.02738(11) 0.28736(10)
H136_4 H 0.7423 0.0334 0.2662
C224_4 C 0.97870(16) 0.32747(11) 0.27123(10)
C225_4 C 0.91616(15) 0.35460(11) 0.43473(10)
C226_4 C 0.77850(15) 0.04300(10) 0.30114(10)
O47_4 O 0.9301(3) 0.1088(2) 0.1158(2)
C228_4 C 0.8861(4) 0.1229(3) 0.1313(2)
H140_4 H 0.8792 0.1310 0.1500
H141_4 H 0.8919 0.1393 0.1137
H142_4 H 0.8672 0.1006 0.1247
O56_4 O 0.93962(15) 0.13255(10) 0.16279(10)
O59_4 O 0.89960(11) 0.15578(8) 0.20356(7)
O60_2 O 0.90895(10) 0.37267(7) 0.48612(7)
O61_2 O 0.87978(11) 0.31557(8) 0.47549(6)
O62_4 O 0.96617(9) 0.21697(7) 0.22233(6)
O63_4 O 0.93028(10) 0.13880(6) 0.23333(7)
Mg11_2 Mg 0.88665(3) 0.37961(4) 0.52689(3)
Mg14_2 Mg 0.86050(3) 0.29177(4) 0.51822(3)
O70_3 O 0.96066(7) 0.20295(7) 0.15279(7)
Mg1_3 Mg 0.82630(3) 0.78002(3) 0.19356(3)
Mg2_3 Mg 0.76461(3) 0.80617(3) 0.18489(3)
C2_4 C 0.64523(11) 0.62095(11) 0.28906(11)
C3_4 C 0.8805(3) 0.7977(4) 0.1397(4)
C4_4 C 0.6891(3) 0.7855(3) 0.1615(2)
C5_4 C 0.90547(14) 0.94188(13) 0.17289(17)
H1_4 H 0.9107 0.9621 0.1615
C9_4 C 0.99932(18) 0.6714(2) 0.26419(15)
H5_4 H 0.9779 0.6671 0.2562
C10_4 C 0.87185(13) 0.91293(14) 0.17168(16)
H6_4 H 0.8545 0.9143 0.1600
C12_4 C 0.98184(14) 0.76215(13) 0.43854(12)
H7_4 H 0.9642 0.7590 0.4528
C13_4 C 0.93097(12) 0.94020(12) 0.19116(16)
C15_4 C 0.54157(12) 0.55174(11) 0.24804(12)
H8_4 H 0.5600 0.5577 0.2337
C17_4 C 0.92644(16) 0.76883(17) 0.29087(12)
H10_4 H 0.9391 0.7831 0.3082
C19_4 C 0.90258(15) 0.77536(15) 0.27354(14)
H11_4 H 0.8985 0.7930 0.2806
C21_4 C 0.82821(12) 0.85201(14) 0.18574(12)
C22_4 C 0.96561(12) 0.97020(12) 0.19371(15)
C24_4 C 0.50762(17) 0.53689(13) 0.23672(13)
H14_4 H 0.5035 0.5338 0.2144
C25_4 C 0.89098(12) 0.72930(14) 0.23869(11)
H15_4 H 0.8802 0.7158 0.2203
C26_4 C 0.91345(13) 0.72171(14) 0.25851(16)
H16_4 H 0.9150 0.7020 0.2538
C27_4 C 0.69011(12) 0.70240(12) 0.23840(11)
H17_4 H 0.6841 0.7168 0.2270
C28_4 C 0.67143(11) 0.57644(12) 0.41079(13)
H18_4 H 0.6939 0.5814 0.4160
C29_4 C 0.44303(15) 0.50961(12) 0.2441(2)
C31_4 C 0.88919(12) 0.88135(11) 0.20376(13)
H19_4 H 0.8845 0.8607 0.2140
C32_4 C 0.92251(12) 0.90963(13) 0.20631(14)
H20_4 H 0.9393 0.9078 0.2184
C33_4 C 0.66470(11) 0.67432(13) 0.25386(11)
H21_4 H 0.6419 0.6700 0.2532
C34_4 C 0.61280(11) 0.55327(11) 0.42462(12)
H22_4 H 0.5942 0.5422 0.4391
C35_4 C 0.66525(12) 0.58399(12) 0.38031(11)
H23_4 H 0.6837 0.5949 0.3656
C36_4 C 0.97462(13) 0.75319(12) 0.40520(13)
H24_4 H 0.9522 0.7457 0.3974
C37_4 C 0.60670(11) 0.56095(13) 0.39343(12)
H25_4 H 0.5842 0.5556 0.3880
C38_4 C 0.75214(13) 0.74260(11) 0.22127(10)
C39_4 C 0.48000(14) 0.52663(11) 0.25737(16)
C40_4 C 0.73249(11) 0.68831(12) 0.25497(10)
H26_4 H 0.7553 0.6925 0.2548
C41_4 C 0.61087(11) 0.60222(11) 0.27679(10)
H27_4 H 0.6061 0.6078 0.2563
C42_4 C 0.98967(11) 0.74231(11) 0.35043(11)
C43_4 C 0.54750(12) 0.55758(11) 0.28168(12)
C44_4 C 0.62508(11) 0.58474(11) 0.33790(11)
C45_4 C 0.86391(12) 0.88194(12) 0.18781(13)
C46_4 C 0.88542(11) 0.75613(12) 0.24673(12)
C47_4 C 0.70676(12) 0.65947(12) 0.27158(10)
H28_4 H 0.7130 0.6454 0.2833
C48_4 C 0.52056(12) 0.54787(10) 0.30199(11)
H29_4 H 0.5250 0.5517 0.3242
C49_4 C 0.99669(12) 0.71260(11) 0.30444(12)
C50_4 C 0.86226(11) 0.76415(14) 0.22701(12)
C51_4 C 0.59250(11) 0.56725(11) 0.32424(10)
H30_4 H 0.5748 0.5485 0.3355
C52_4 C 0.72447(11) 0.71082(11) 0.23871(10)
C53_4 C 0.58470(11) 0.57642(11) 0.29399(10)
C54_4 C 0.96604(10) 0.74725(11) 0.33310(11)
H31_4 H 0.9557 0.7588 0.3430
C55_4 C 0.99935(13) 0.75518(11) 0.38401(12)
C56_4 C 0.48631(12) 0.53230(10) 0.29119(12)
H32_4 H 0.4680 0.5258 0.3058
C58_4 C 0.63168(11) 0.57573(10) 0.37048(10)
C59_4 C 0.65230(14) 0.55294(11) 0.46775(11)
C60_4 C 0.93091(12) 0.74098(12) 0.28189(10)
C61_4 C 0.65070(10) 0.61188(11) 0.31966(11)
H34_4 H 0.6729 0.6247 0.3287
C63_4 C 0.97262(11) 0.71760(11) 0.28736(10)
H35_4 H 0.9666 0.7089 0.2662
C64_4 C 0.67253(11) 0.65123(12) 0.27123(10)
C65_4 C 0.64540(11) 0.56156(10) 0.43473(10)
C66_4 C 0.95700(10) 0.73550(11) 0.30114(10)
C67_4 C 0.66956(18) 0.80263(19) 0.16754(17)
H36_4 H 0.6852 0.8264 0.1736
H37_4 H 0.6571 0.8020 0.1481
H38_4 H 0.6533 0.7910 0.1849
O1_4 O 0.8912(2) 0.8213(2) 0.1158(2)
O4_4 O 0.67901(18) 0.7514(3) 0.1530(2)
C68_4 C 0.8771(3) 0.7632(2) 0.1313(2)
H39_4 H 0.8690 0.7482 0.1500
H40_4 H 0.8607 0.7526 0.1137
H41_4 H 0.8994 0.7666 0.1247
O9_4 O 0.76168(11) 0.82888(13) 0.22949(9)
H42_4 H 0.7745 0.8301 0.2455
H43_4 H 0.7477 0.8367 0.2314
O10_4 O 0.41965(9) 0.50460(10) 0.26361(11)
O11_4 O 0.72224(9) 0.80770(9) 0.17021(10)
O12_4 O 0.86745(10) 0.80707(11) 0.16279(10)
O13_4 O 0.74219(7) 0.76094(8) 0.20725(8)
O14_4 O 0.80485(8) 0.85632(7) 0.17202(8)
O15_3 O 0.43700(9) 0.50066(8) 0.21516(10)
O16_4 O 0.84422(8) 0.74382(8) 0.20356(7)
O17_2 O 0.62733(7) 0.53628(7) 0.48612(7)
O18_2 O 0.68443(8) 0.56421(7) 0.47549(6)
O19_4 O 0.78303(7) 0.74920(6) 0.22233(6)
O20_4 O 0.86120(6) 0.79148(8) 0.23333(7)
O21_4 O 0.81968(6) 0.82205(7) 0.19780(7)
C69_4 C 0.9952(3) 0.88336(18) 0.56264(18)
H44_4 H 0.9811 0.8638 0.5752
C71_4 C 0.98770(17) 0.91099(15) 0.56150(14)
H46_4 H 0.9679 0.9089 0.5715
C80_4 C 0.99602(14) 0.96746(18) 0.19289(15)
H51_4 H 0.9932 0.9452 0.1917
C104_4 C 0.8150(4) 0.9663(2) 0.5501(3)
O28_4 O 0.80319(23) 0.94790(17) 0.5309(2)
O29_4 O 0.8254(4) 0.9937(3) 0.5604(2)
C106_4 C 0.87014(25) 0.95633(16) 0.53078(18)
H65_4 H 0.8526 0.9367 0.5205
C108_4 C 0.90422(18) 0.96229(13) 0.52957(14)
H67_4 H 0.9088 0.9471 0.5177
C109_4 C 0.8619(4) 0.9775(3) 0.5460(2)
C110_4 C 0.93047(17) 0.98912(13) 0.54489(12)
C111_4 C 0.97180(16) 0.96708(10) 0.54557(9)
H68_4 H 0.9526 0.9446 0.5455
C112_4 C 0.96620(16) 0.99504(11) 0.54558(9)
Mg9_2 Mg 0.75766(5) 0.94736(4) 0.54157(4)
C171_4 C 0.7611(4) 0.9756(3) 0.4831(2)
C175_4 C 0.64036(28) 0.9862(2) 0.25066(14)
H107_4 H 0.6355 0.9983 0.2350
C176_4 C 0.62256(26) 0.93816(17) 0.2832(2)
H108_4 H 0.6062 0.9158 0.2899
C177_4 C 0.65669(25) 0.95586(18) 0.29886(18)
H109_4 H 0.6611 0.9452 0.3163
C180_4 C 0.61460(22) 0.95295(16) 0.26007(17)
C182_4 C 0.73780(20) 0.96014(15) 0.42845(19)
H113_4 H 0.7235 0.9374 0.4357
C184_4 C 0.5741(4) 0.9273(3) 0.2422(2)
C186_4 C 0.73539(18) 0.96758(13) 0.39678(15)
H116_4 H 0.7195 0.9499 0.3832
C193_4 C 0.75964(23) 0.98386(18) 0.44963(15)
C217_4 C 0.72059(16) 0.99513(11) 0.33495(12)
H134_4 H 0.7012 0.9783 0.3462
C222_4 C 0.68076(18) 0.98600(13) 0.28892(12)
O48_4 O 0.74207(16) 0.94432(13) 0.49354(10)
O49_4 O 0.78041(22) 0.99805(17) 0.50217(11)
O51_3 O 0.5713(3) 0.9488(2) 0.22674(13)
O52_4 O 0.55727(23) 0.90690(15) 0.2551(3)
Mg12_2 Mg 0.62039(4) 0.50703(3) 0.52689(3)
Mg15_2 Mg 0.70823(4) 0.56872(3) 0.51822(3)
O64_2 O 0.7179(2) 0.9558(2) 0.56007(13)
O69_2 O 0.73033(12) 0.89633(9) 0.54849(10)
O71_3 O 0.79705(7) 0.75772(10) 0.15279(7)
O74_3 O 0.76912(7) 0.78689(11) 0.14216(6)
C195_5 C 0.27380(16) 0.05387(11) 0.09129(12)
H123_5 H 0.2813 0.0725 0.1058
C196_5 C 0.25207(17) 0.00142(12) 0.04698(11)
C198_5 C 0.28758(17) 0.05997(11) 0.06010(12)
H126_5 H 0.3047 0.0825 0.0547
C205_5 C 0.29299(16) 0.04159(11) 0.00457(11)
H131_5 H 0.3070 0.0919 0.0022
C218_5 C 0.27738(15) 0.03499(11) 0.03715(10)
C219_5 C 0.23397(18) 0.01437(14) 0.13442(11)
C225_5 C 0.24949(15) 0.02127(11) 0.10140(10)
C117_5 C 0.67917(19) 0.02631(28) 0.91733(14)
H69_5 H 0.6961 0.0312 0.9017
C118_5 C 0.6489(2) 0.04411(26) 0.9499(2)
H70_5 H 0.6429 0.0605 0.9566
C119_5 C 0.63250(18) 0.00998(25) 0.96553(18)
H71_5 H 0.6174 0.0056 0.9830
C122_5 C 0.67168(15) 0.05207(22) 0.92674(17)
C126_5 C 0.6865(2) 0.0926(4) 0.9089(2)
O34_4 O 0.7108(2) 0.0954(3) 0.89341(13)
O35_5 O 0.68296(18) 0.10940(23) 0.9218(3)
C172_5 C 0.30905(16) 0.02144(11) 0.95573(11)
C181_5 C 0.34350(16) 0.12510(12) 0.91471(12)
H112_5 H 0.3310 0.1067 0.9004
C187_5 C 0.36260(21) 0.15905(17) 0.90339(13)
H117_5 H 0.3636 0.1632 0.8811
C192_5 C 0.39991(19) 0.22364(15) 0.9108(2)
C194_5 C 0.34295(17) 0.00197(11) 0.92053(11)
H122_5 H 0.3614 0.0248 0.9199
C200_5 C 0.37996(18) 0.18667(14) 0.92404(16)
C202_5 C 0.32468(16) 0.05580(11) 0.94346(10)
H128_5 H 0.3350 0.0606 0.9230
C204_5 C 0.34341(16) 0.11917(12) 0.94835(12)
C208_5 C 0.36064(16) 0.14611(12) 0.96866(11)
H130_5 H 0.3600 0.1417 0.9909
C211_5 C 0.30808(16) 0.07417(11) 0.99091(10)
C213_5 C 0.32505(16) 0.08197(11) 0.96066(10)
C216_5 C 0.37932(16) 0.18036(12) 0.95786(12)
H133_5 H 0.3911 0.1987 0.9725
C221_5 C 0.29451(15) 0.01597(10) 0.98633(11)
H138_5 H 0.4782 0.0096 0.8148
H139_5 H 0.4710 0.0134 0.8516
O54_5 O 0.41828(13) 0.24702(9) 0.93028(11)
O58_4 O 0.39699(12) 0.22967(9) 0.88183(10)
Mg16_2 Mg 0.71931(4) 0.14363(3) 0.87490(4)
Mg20_2 Mg 0.42433(5) 0.28069(4) 0.87490(4)
C1_5 C 0.3577(3) 0.4522(2) 0.1498(2)
C11_5 C 0.3670(2) 0.5154(3) 0.2168(3)
C12_5 C 0.31517(14) 0.42882(13) 0.10521(12)
H7_5 H 0.2975 0.4257 0.1195
C16_5 C 0.37319(15) 0.44433(13) 0.09512(19)
H9_5 H 0.3959 0.4528 0.1024
C23_5 C 0.36575(13) 0.43448(13) 0.06345(15)
H13_5 H 0.3834 0.4363 0.0499
C28_5 C 0.00476(11) 0.24311(12) 0.07746(13)
H18_5 H 0.0272 0.2481 0.0827
C30_5 C 0.34947(18) 0.44245(14) 0.11630(15)
H23_5 H 0.0170 0.2616 0.0323
C36_5 C 0.30795(13) 0.41986(12) 0.07187(13)
H24_5 H 0.2855 0.4124 0.0641
C42_5 C 0.32300(11) 0.40898(11) 0.01710(11)
H31_5 H 0.2890 0.4255 0.0097
C55_5 C 0.33268(13) 0.42185(11) 0.05068(12)
C57_5 C 0.33820(11) 0.39213(11) 0.00162(12)
H33_5 H 0.3550 0.3896 0.0129
O2_5 O 0.38901(13) 0.46442(10) 0.16021(10)
O3_5 O 0.33528(17) 0.44903(14) 0.16884(11)
O5_5 O 0.38543(17) 0.52196(16) 0.1976(2)
O6_5 O 0.3396(3) 0.4984(3) 0.2271(2)
C69_5 C 0.3285(3) 0.55003(18) 0.22931(18)
H44_5 H 0.3144 0.5305 0.2419
C70_5 C 0.37700(16) 0.58048(19) 0.19745(18)
H45_5 H 0.3966 0.5826 0.1872
C71_5 C 0.32103(17) 0.57766(15) 0.22817(14)
H46_5 H 0.3012 0.5756 0.2382
C72_5 C 0.37104(13) 0.60860(13) 0.19624(14)
H47_5 H 0.3862 0.6284 0.1844
C73_5 C 0.3558(3) 0.5511(2) 0.2127(2)
C74_5 C 0.34421(13) 0.60802(11) 0.21156(12)
C75_5 C 0.36625(10) 0.67139(12) 0.21224(9)
H48_5 H 0.3887 0.6747 0.2122
C76_5 C 0.33829(11) 0.63783(11) 0.21225(9)
C95_5 C 0.4846(3) 0.8517(4) 0.2168(3)
O26_5 O 0.47804(16) 0.86348(23) 0.1976(2)
O27_5 O 0.5016(3) 0.8413(4) 0.2271(2)
C96_5 C 0.44997(18) 0.77851(35) 0.22931(18)
H59_5 H 0.4695 0.7840 0.2419
C97_5 C 0.41952(19) 0.79653(25) 0.19745(18)
H60_5 H 0.4174 0.8141 0.1872
C98_5 C 0.42234(15) 0.74338(23) 0.22817(14)
H61_5 H 0.4244 0.7257 0.2382
C99_5 C 0.39140(13) 0.76245(18) 0.19624(14)
H62_5 H 0.3716 0.7579 0.1844
C100_5 C 0.4489(2) 0.8048(4) 0.2127(2)
C101_5 C 0.39198(11) 0.73620(17) 0.21156(12)
C102_5 C 0.32861(12) 0.69487(16) 0.21224(9)
H63_5 H 0.3253 0.7141 0.2122
C103_5 C 0.36217(11) 0.70047(16) 0.21225(9)
C104_5 C 0.1483(4) 0.6330(2) 0.2168(3)
O28_5 O 0.13652(23) 0.61457(17) 0.1976(2)
O29_5 O 0.1587(4) 0.6604(3) 0.2271(2)
C105_5 C 0.22149(35) 0.6715(3) 0.22931(18)
H64_5 H 0.2160 0.6856 0.2419
C106_5 C 0.20347(25) 0.62300(16) 0.19745(18)
H65_5 H 0.1859 0.6034 0.1872
C107_5 C 0.25662(23) 0.67897(17) 0.22817(14)
H66_5 H 0.2743 0.6988 0.2382
C108_5 C 0.23755(18) 0.62896(13) 0.19624(14)
H67_5 H 0.2421 0.6138 0.1844
C109_5 C 0.1952(4) 0.6442(3) 0.2127(2)
C110_5 C 0.26380(17) 0.65579(13) 0.21156(12)
C111_5 C 0.30513(16) 0.63375(10) 0.21224(9)
H68_5 H 0.2859 0.6113 0.2122
C112_5 C 0.29953(16) 0.66171(11) 0.21225(9)
C113_5 C 0.5478(2) 0.9056(4) 0.1498(2)
C121_5 C 0.57118(13) 0.88636(19) 0.10521(12)
H73_5 H 0.5743 0.8719 0.1195
C124_5 C 0.55567(13) 0.92887(20) 0.09512(19)
H75_5 H 0.5472 0.9432 0.1024
C128_5 C 0.56552(13) 0.93128(18) 0.06345(15)
H78_5 H 0.5637 0.9472 0.0499
C133_5 C 0.75689(12) 0.76166(16) 0.07746(13)
H83_5 H 0.7519 0.7792 0.0827
C135_5 C 0.55755(14) 0.90703(23) 0.11630(15)
C137_5 C 0.78006(11) 0.72620(16) 0.09129(12)
H85_5 H 0.7911 0.7187 0.1058
C138_5 C 0.74934(12) 0.74793(17) 0.04698(11)
H86_5 H 0.7384 0.7555 0.0323
C139_5 C 0.58014(12) 0.88810(18) 0.07187(13)
H87_5 H 0.5876 0.8732 0.0641
C140_5 C 0.77238(13) 0.71242(17) 0.06010(12)
H88_5 H 0.7777 0.6953 0.0547
C145_5 C 0.59102(11) 0.91403(16) 0.01710(11)
C147_5 C 0.74859(11) 0.70701(16) 0.00457(11)
H93_5 H 0.7848 0.6930 0.0022
H94_5 H 0.5745 0.8636 0.0097
C157_5 C 0.57815(11) 0.91084(17) 0.05068(12)
C159_5 C 0.60787(11) 0.94608(16) 0.00162(12)
H96_5 H 0.6104 0.9655 0.0129
C160_5 C 0.75760(10) 0.72262(15) 0.03715(10)
C161_5 C 0.78039(11) 0.76603(18) 0.13442(11)
C167_5 C 0.77177(10) 0.75051(15) 0.10140(10)
O31_5 O 0.53558(10) 0.92460(16) 0.16021(10)
O32_5 O 0.55097(14) 0.88626(22) 0.16884(11)
C171_5 C 0.0944(4) 0.6423(3) 0.1498(2)
C179_5 C 0.11364(19) 0.68483(14) 0.10521(12)
H111_5 H 0.1281 0.7025 0.1195
C182_5 C 0.07113(20) 0.62681(15) 0.09512(19)
H113_5 H 0.0568 0.6041 0.1024
C186_5 C 0.06872(18) 0.63425(13) 0.06345(15)
H116_5 H 0.0528 0.6166 0.0499
C191_5 C 0.23834(16) 0.99524(11) 0.07746(13)
H121_5 H 0.2208 0.9728 0.0827
C193_5 C 0.09297(23) 0.65053(18) 0.11630(15)
H124_5 H 0.2445 0.9830 0.0323
C197_5 C 0.11190(18) 0.69205(13) 0.07187(13)
H125_5 H 0.1268 0.7145 0.0641
C203_5 C 0.08597(16) 0.67700(11) 0.01710(11)
H132_5 H 0.1364 0.7110 0.0097
C215_5 C 0.08916(17) 0.66732(13) 0.05068(12)
C217_5 C 0.05392(16) 0.66180(11) 0.00162(12)
H134_5 H 0.0345 0.6450 0.0129
O48_5 O 0.07540(16) 0.61099(13) 0.16021(10)
O49_5 O 0.11374(22) 0.66472(17) 0.16884(11)
Mg1_4 Mg 0.15963(3) 0.44669(3) 0.86023(3)
Mg2_4 Mg 0.09794(3) 0.47284(3) 0.85156(3)
C3_5 C 0.2138(3) 0.4644(4) 0.8064(4)
C4_5 C 0.0224(3) 0.4522(3) 0.8282(2)
C5_5 C 0.23880(14) 0.60855(13) 0.83956(17)
H1_5 H 0.2440 0.6288 0.8282
C6_5 C 0.3471(2) 0.32083(19) 0.91733(14)
H2_5 H 0.3350 0.3039 0.9017
C7_5 C 0.39517(17) 0.3511(2) 0.9499(2)
H3_5 H 0.4175 0.3571 0.9566
C8_5 C 0.37747(18) 0.36750(18) 0.96553(18)
H4_5 H 0.3881 0.3826 0.9830
C9_5 C 0.33265(18) 0.3381(2) 0.93086(15)
H5_5 H 0.3112 0.3338 0.9229
C10_5 C 0.20518(13) 0.57960(14) 0.83835(16)
H6_5 H 0.1878 0.5810 0.8267
C13_5 C 0.26430(12) 0.60687(12) 0.85783(16)
C14_5 C 0.38038(16) 0.32832(15) 0.92674(17)
C17_5 C 0.25977(16) 0.43550(17) 0.95754(12)
H10_5 H 0.2724 0.4498 0.9749
C18_5 C 0.4060(3) 0.3135(2) 0.9089(2)
C19_5 C 0.23591(15) 0.44203(15) 0.94021(14)
H11_5 H 0.2318 0.4597 0.9473
C20_5 C 0.30477(12) 0.67065(14) 0.85956(15)
H12_5 H 0.2853 0.6735 0.8584
C21_5 C 0.16154(12) 0.51868(14) 0.85241(12)
C22_5 C 0.29894(12) 0.63687(12) 0.86038(15)
C25_5 C 0.22431(12) 0.39597(14) 0.90536(11)
H15_5 H 0.2135 0.3825 0.8870
C26_5 C 0.24678(13) 0.38838(14) 0.92518(16)
H16_5 H 0.2483 0.3687 0.9205
C27_5 C 0.02344(12) 0.36907(12) 0.90507(11)
H17_5 H 0.0174 0.3835 0.8937
C31_5 C 0.22252(12) 0.54802(11) 0.87043(13)
H19_5 H 0.2178 0.5274 0.8807
C32_5 C 0.25584(12) 0.57630(13) 0.87298(14)
H20_5 H 0.2726 0.5745 0.8851
C38_5 C 0.08547(13) 0.40927(11) 0.88794(10)
C40_5 C 0.06582(11) 0.35498(12) 0.92164(10)
H26_5 H 0.0886 0.3592 0.9215
C45_5 C 0.19724(12) 0.54861(12) 0.85448(13)
C46_5 C 0.21875(11) 0.42280(12) 0.91340(12)
C47_5 C 0.04009(12) 0.32614(12) 0.93825(10)
H28_5 H 0.0463 0.3121 0.9500
C49_5 C 0.33002(12) 0.37927(11) 0.97111(12)
C50_5 C 0.19559(11) 0.43082(14) 0.89368(12)
C52_5 C 0.05780(11) 0.37749(11) 0.90538(10)
C54_5 C 0.29937(10) 0.41392(11) 0.99977(11)
C60_5 C 0.26424(12) 0.40765(12) 0.94856(10)
H34_5 H 0.0062 0.2914 0.9954
C62_5 C 0.34733(13) 0.36143(12) 0.95559(12)
C63_5 C 0.30595(11) 0.38427(11) 0.95403(10)
H35_5 H 0.2999 0.3756 0.9329
C64_5 C 0.00586(11) 0.31790(12) 0.93790(10)
C66_5 C 0.29033(10) 0.40217(11) 0.96781(10)
C67_5 C 0.00289(18) 0.46930(19) 0.83421(17)
H36_5 H 0.0185 0.4931 0.8403
O1_5 O 0.2245(2) 0.4880(2) 0.7825(2)
O4_5 O 0.01234(18) 0.4181(3) 0.8197(2)
C68_5 C 0.2104(3) 0.4299(2) 0.7980(2)
H39_5 H 0.2023 0.4149 0.8167
H40_5 H 0.1940 0.4193 0.7804
H41_5 H 0.2327 0.4333 0.7914
O7_4 O 0.3845(2) 0.2892(2) 0.89341(13)
O8_5 O 0.42643(15) 0.31704(18) 0.9218(3)
O9_5 O 0.09501(11) 0.49555(13) 0.89616(9)
H42_5 H 0.1078 0.4968 0.9122
H43_5 H 0.0810 0.5034 0.8981
O11_5 O 0.05557(9) 0.47437(9) 0.83688(10)
O12_5 O 0.20078(10) 0.47374(11) 0.82946(10)
O13_5 O 0.07552(7) 0.42761(8) 0.87392(8)
O14_5 O 0.13818(8) 0.52299(7) 0.83869(8)
O16_5 O 0.17755(8) 0.41049(8) 0.87023(7)
O19_5 O 0.11636(7) 0.41587(6) 0.88900(6)
O20_5 O 0.19453(6) 0.45815(8) 0.90000(7)
O21_5 O 0.15301(6) 0.48872(7) 0.86447(7)
C77_5 C 0.39145(13) 0.63026(19) 0.83956(17)
H49_5 H 0.3712 0.6153 0.8282
C78_5 C 0.42040(14) 0.62559(19) 0.83835(16)
H50_5 H 0.4190 0.6069 0.8267
C79_5 C 0.39313(12) 0.65744(17) 0.85783(16)
C80_5 C 0.32935(14) 0.63413(18) 0.85956(15)
H51_5 H 0.3265 0.6119 0.8584
C81_5 C 0.48132(14) 0.64287(18) 0.85241(12)
C82_5 C 0.36313(12) 0.66208(17) 0.86038(15)
C83_5 C 0.45198(11) 0.67451(16) 0.87043(13)
H52_5 H 0.4726 0.6905 0.8807
C84_5 C 0.42370(13) 0.67955(18) 0.87298(14)
H53_5 H 0.4255 0.6982 0.8851
C85_5 C 0.45139(12) 0.64864(17) 0.85448(13)
O22_5 O 0.47701(7) 0.61520(11) 0.83869(8)
O23_5 O 0.51128(7) 0.66430(9) 0.86447(7)
C86_5 C 0.36974(19) 0.76120(14) 0.83956(17)
H54_5 H 0.3847 0.7560 0.8282
C87_5 C 0.37441(19) 0.79482(13) 0.83835(16)
H55_5 H 0.3931 0.8122 0.8267
C88_5 C 0.34256(17) 0.73570(12) 0.85783(16)
C89_5 C 0.36587(18) 0.69523(12) 0.85956(15)
H56_5 H 0.3881 0.7147 0.8584
C90_5 C 0.35713(18) 0.83846(12) 0.85241(12)
C91_5 C 0.33792(17) 0.70106(12) 0.86038(15)
C92_5 C 0.32549(16) 0.77748(12) 0.87043(13)
H57_5 H 0.3095 0.7822 0.8807
C93_5 C 0.32045(18) 0.74416(12) 0.87298(14)
H58_5 H 0.3018 0.7274 0.8851
C94_5 C 0.35136(17) 0.80276(12) 0.85448(13)
O24_5 O 0.38480(11) 0.86182(8) 0.83869(8)
O25_5 O 0.33570(9) 0.84699(6) 0.86447(7)
Mg4_4 Mg 0.55331(3) 0.71295(4) 0.86023(3)
Mg5_4 Mg 0.52716(3) 0.62511(4) 0.85156(3)
C114_5 C 0.71238(11) 0.69095(16) 0.95573(11)
C115_5 C 0.5356(4) 0.7495(5) 0.8064(4)
C116_5 C 0.5478(3) 0.5703(4) 0.8282(2)
C120_5 C 0.6619(2) 0.99459(27) 0.93086(15)
H72_5 H 0.6662 0.9775 0.9229
C123_5 C 0.78159(11) 0.65650(16) 0.91471(12)
H74_5 H 0.7756 0.6690 0.9004
C125_5 C 0.56450(17) 0.82428(23) 0.95754(12)
H76_5 H 0.5502 0.8227 0.9749
C127_5 C 0.55797(15) 0.79389(21) 0.94021(14)
H77_5 H 0.5403 0.7722 0.9473
C129_5 C 0.79644(13) 0.63740(21) 0.90339(13)
H79_5 H 0.7995 0.6364 0.8811
C130_5 C 0.60403(14) 0.82835(18) 0.90536(11)
H80_5 H 0.6175 0.8311 0.8870
C131_5 C 0.61162(14) 0.85841(19) 0.92518(16)
H81_5 H 0.6313 0.8797 0.9205
C132_5 C 0.63093(12) 0.65438(17) 0.90507(11)
H82_5 H 0.6165 0.6340 0.8937
C134_5 C 0.82372(12) 0.60009(19) 0.9108(2)
C136_5 C 0.65901(13) 0.65705(17) 0.92053(11)
H84_5 H 0.6633 0.6386 0.9199
C141_5 C 0.59073(11) 0.67621(17) 0.88794(10)
C142_5 C 0.80670(11) 0.62004(18) 0.92404(16)
C143_5 C 0.64502(12) 0.71085(16) 0.92164(10)
H89_5 H 0.6408 0.7295 0.9215
C144_5 C 0.73111(11) 0.67532(16) 0.94346(10)
H90_5 H 0.7255 0.6650 0.9230
C146_5 C 0.77575(11) 0.65659(16) 0.94835(12)
C148_5 C 0.57720(12) 0.79596(16) 0.91340(12)
C149_5 C 0.67386(12) 0.71396(17) 0.93825(10)
H91_5 H 0.6879 0.7343 0.9500
C150_5 C 0.78546(10) 0.63936(16) 0.96866(11)
H92_5 H 0.7816 0.6400 0.9909
C151_5 C 0.62073(11) 0.95076(16) 0.97111(12)
C152_5 C 0.56918(14) 0.76478(18) 0.89368(12)
C153_5 C 0.76608(11) 0.69192(16) 0.99091(10)
C154_5 C 0.62251(11) 0.68032(16) 0.90538(10)
C155_5 C 0.75691(11) 0.67495(16) 0.96066(10)
C156_5 C 0.58608(11) 0.88546(15) 0.99977(11)
C158_5 C 0.80103(10) 0.62068(16) 0.95786(12)
H95_5 H 0.8075 0.6089 0.9725
C162_5 C 0.59235(12) 0.85660(17) 0.94856(10)
C163_5 C 0.72145(11) 0.70549(15) 0.98633(11)
H97_5 H 0.7086 0.7149 0.9954
C164_5 C 0.63857(12) 0.98591(18) 0.95559(12)
C165_5 C 0.61573(11) 0.92169(16) 0.95403(10)
H98_5 H 0.6244 0.9244 0.9329
C166_5 C 0.68210(12) 0.68797(16) 0.93790(10)
C168_5 C 0.59783(11) 0.88817(15) 0.96781(10)
C169_5 C 0.53070(19) 0.53360(26) 0.83421(17)
H99_5 H 0.5069 0.5255 0.8403
H100_5 H 0.5313 0.5218 0.8148
H101_5 H 0.5423 0.5290 0.8516
O30_5 O 0.5120(2) 0.7366(3) 0.7825(2)
O33_5 O 0.5819(3) 0.59428(35) 0.8197(2)
C170_5 C 0.5701(2) 0.7806(4) 0.7980(2)
H102_5 H 0.5851 0.7875 0.8167
H103_5 H 0.5807 0.7748 0.7804
H104_5 H 0.5667 0.7995 0.7914
O36_5 O 0.50445(13) 0.59947(17) 0.89616(9)
H105_5 H 0.5032 0.6111 0.9122
H106_5 H 0.4966 0.5777 0.8981
O37_5 O 0.82873(10) 0.58172(13) 0.93028(11)
O38_5 O 0.52563(9) 0.58121(13) 0.83688(10)
O39_5 O 0.52626(11) 0.72705(15) 0.82946(10)
O40_5 O 0.57239(8) 0.64792(11) 0.87392(8)
O41_4 O 0.83267(8) 0.60301(12) 0.88183(10)
O42_5 O 0.58951(8) 0.76707(11) 0.87023(7)
O45_5 O 0.58413(6) 0.70050(9) 0.88900(6)
O46_5 O 0.54185(8) 0.73639(10) 0.90000(7)
Mg7_4 Mg 0.28705(4) 0.84037(3) 0.86023(3)
Mg8_4 Mg 0.37489(4) 0.90206(3) 0.85156(3)
C173_5 C 0.2505(5) 0.7862(3) 0.8064(4)
C174_5 C 0.4297(4) 0.9776(3) 0.8282(2)
C178_5 C 0.00541(27) 0.66735(18) 0.93086(15)
H110_5 H 0.0225 0.6888 0.9229
C183_5 C 0.17572(23) 0.74023(16) 0.95754(12)
H114_5 H 0.1773 0.7276 0.9749
C185_5 C 0.20611(21) 0.76409(15) 0.94021(14)
H115_5 H 0.2278 0.7682 0.9473
C188_5 C 0.17165(18) 0.77569(12) 0.90536(11)
H118_5 H 0.1689 0.7865 0.8870
C189_5 C 0.14159(19) 0.75322(13) 0.92518(16)
H119_5 H 0.1203 0.7517 0.9205
C190_5 C 0.34562(17) 0.97656(12) 0.90507(11)
H120_5 H 0.3660 0.9826 0.8937
C199_5 C 0.32379(17) 0.91453(13) 0.88794(10)
C201_5 C 0.28915(16) 0.93418(11) 0.92164(10)
H127_5 H 0.2705 0.9114 0.9215
C206_5 C 0.20404(16) 0.78125(11) 0.91340(12)
C207_5 C 0.28604(17) 0.95991(12) 0.93825(10)
H129_5 H 0.2657 0.9537 0.9500
C209_5 C 0.04924(16) 0.66998(12) 0.97111(12)
C210_5 C 0.23522(18) 0.80441(11) 0.89368(12)
C212_5 C 0.31968(16) 0.94220(11) 0.90538(10)
C214_5 C 0.11454(15) 0.70063(10) 0.99977(11)
C220_5 C 0.14340(17) 0.73576(12) 0.94856(10)
H135_5 H 0.2851 0.9938 0.9954
C222_5 C 0.01409(18) 0.65267(13) 0.95559(12)
C223_5 C 0.07831(16) 0.69405(11) 0.95403(10)
H136_5 H 0.0756 0.7001 0.9329
C224_5 C 0.31203(16) 0.99414(11) 0.93790(10)
C226_5 C 0.11183(15) 0.70967(10) 0.96781(10)
C227_5 C 0.46640(26) 0.99711(18) 0.83421(17)
H137_5 H 0.4745 0.9815 0.8403
O47_5 O 0.2634(3) 0.7755(2) 0.7825(2)
O50_5 O 0.40572(35) 0.98766(18) 0.8197(2)
C228_5 C 0.2194(4) 0.7896(3) 0.7980(2)
H140_5 H 0.2125 0.7977 0.8167
H141_5 H 0.2252 0.8060 0.7804
H142_5 H 0.2005 0.7673 0.7914
O53_5 O 0.40053(17) 0.90499(11) 0.89616(9)
H143_5 H 0.3889 0.8922 0.9122
H144_5 H 0.4223 0.9190 0.8981
O55_5 O 0.41879(13) 0.94443(9) 0.83688(10)
O56_5 O 0.27295(15) 0.79922(10) 0.82946(10)
O57_5 O 0.35208(11) 0.92448(7) 0.87392(8)
O59_5 O 0.23293(11) 0.82245(8) 0.87023(7)
O62_5 O 0.29950(9) 0.88364(7) 0.88900(6)
O63_5 O 0.26361(10) 0.80547(6) 0.90000(7)
Mg18_2 Mg 0.85637(3) 0.57567(5) 0.87490(4)
O70_4 O 0.29400(7) 0.86961(7) 0.81945(7)
O71_4 O 0.13039(7) 0.42438(10) 0.81945(7)
O72_4 O 0.57562(10) 0.70600(7) 0.81945(7)
O73_4 O 0.35110(8) 0.89754(7) 0.80882(6)
O74_4 O 0.10246(7) 0.45355(11) 0.80882(6)
O75_4 O 0.54645(11) 0.64890(8) 0.80882(6)
C34_5 C 0.94613(11) 0.21994(11) 0.09129(12)
H22_5 H 0.9275 0.2089 0.1058
C35_5 C 0.99858(12) 0.25066(12) 0.04698(11)
C37_5 C 0.94003(11) 0.22762(13) 0.06010(12)
H25_5 H 0.9175 0.2223 0.0547
C44_5 C 0.95841(11) 0.25141(11) 0.00457(11)
H30_5 H 0.9081 0.2152 0.0022
C58_5 C 0.96501(11) 0.24240(10) 0.03715(10)
C59_5 C 0.98563(14) 0.21961(11) 0.13442(11)
C65_5 C 0.97873(11) 0.22823(10) 0.10140(10)
C2_5 C 0.97856(11) 0.28762(11) 0.95573(11)
C15_5 C 0.87490(12) 0.21841(11) 0.91471(12)
H8_5 H 0.8933 0.2244 0.9004
C24_5 C 0.84095(17) 0.20356(13) 0.90339(13)
H14_5 H 0.8368 0.2005 0.8811
C29_5 C 0.77636(15) 0.17628(12) 0.9108(2)
C33_5 C 0.99803(11) 0.34099(13) 0.92053(11)
H21_5 H 0.9752 0.3367 0.9199
C39_5 C 0.81333(14) 0.19330(11) 0.92404(16)
C41_5 C 0.94420(11) 0.26889(11) 0.94346(10)
H27_5 H 0.9394 0.2745 0.9230
C43_5 C 0.88083(12) 0.22425(11) 0.94835(12)
C48_5 C 0.85389(12) 0.21454(10) 0.96866(11)
H29_5 H 0.8583 0.2184 0.9909
C51_5 C 0.92583(11) 0.23392(11) 0.99091(10)
C53_5 C 0.91803(11) 0.24309(11) 0.96066(10)
C56_5 C 0.81964(12) 0.19897(10) 0.95786(12)
H32_5 H 0.8013 0.1925 0.9725
C61_5 C 0.98403(10) 0.27855(11) 0.98633(11)
H37_5 H 0.9904 0.4687 0.8148
H38_5 H 0.9866 0.4577 0.8516
O10_5 O 0.75298(9) 0.17127(10) 0.93028(11)
O15_4 O 0.77033(9) 0.16733(8) 0.88183(10)
C175_5 C 0.97369(28) 0.6529(2) 0.91733(14)
H107_5 H 0.9688 0.6650 0.9017
C176_5 C 0.95589(26) 0.60483(17) 0.9499(2)
H108_5 H 0.9395 0.5825 0.9566
C177_5 C 0.99002(25) 0.62253(18) 0.96553(18)
H109_5 H 0.9944 0.6119 0.9830
C180_5 C 0.94793(22) 0.61962(16) 0.92674(17)
C184_5 C 0.9074(4) 0.5940(3) 0.9089(2)
O51_4 O 0.9046(3) 0.6155(2) 0.89341(13)
O52_5 O 0.89060(23) 0.57357(15) 0.9218(3)
C114_6 C 0.04572(11) 0.35761(16) 0.62239(11)
C117_6 C 0.01251(19) 0.69297(28) 0.58399(14)
H69_6 H 0.0295 0.6978 0.5683
C122_6 C 0.00502(15) 0.71873(22) 0.59340(17)
C123_6 C 0.11493(11) 0.32316(16) 0.58137(12)
H74_6 H 0.1090 0.3356 0.5670
C126_6 C 0.0199(2) 0.7592(4) 0.5755(2)
C129_6 C 0.12978(13) 0.30406(21) 0.57005(13)
H79_6 H 0.1329 0.3030 0.5477
C133_6 C 0.09023(12) 0.42832(16) 0.74412(13)
H83_6 H 0.0853 0.4458 0.7493
C134_6 C 0.15706(12) 0.26675(19) 0.5774(2)
C137_6 C 0.11340(11) 0.39286(16) 0.75795(12)
H85_6 H 0.1245 0.3853 0.7724
C138_6 C 0.08268(12) 0.41459(17) 0.71364(11)
H86_6 H 0.0718 0.4221 0.6989
C140_6 C 0.10572(13) 0.37908(17) 0.72676(12)
H88_6 H 0.1111 0.3619 0.7213
C142_6 C 0.14004(11) 0.28670(18) 0.59070(16)
C144_6 C 0.06445(11) 0.34198(16) 0.61012(10)
H90_6 H 0.0589 0.3316 0.5896
C146_6 C 0.10909(11) 0.32325(16) 0.61501(12)
C147_6 C 0.08193(11) 0.37367(16) 0.67123(11)
C149_6 C 0.00720(12) 0.38062(17) 0.60491(10)
H91_6 H 0.0213 0.4009 0.6166
C150_6 C 0.11880(10) 0.30602(16) 0.63532(11)
H92_6 H 0.1150 0.3066 0.6575
C153_6 C 0.09942(11) 0.35858(16) 0.65757(10)
H93_6 H 0.1182 0.3596 0.6688
C155_6 C 0.09025(11) 0.34161(16) 0.62732(10)
C158_6 C 0.13437(10) 0.28734(16) 0.62452(12)
H95_6 H 0.1409 0.2755 0.6391
C160_6 C 0.09094(10) 0.38928(15) 0.70381(10)
C161_6 C 0.11373(11) 0.43269(18) 0.80108(11)
C163_6 C 0.05479(11) 0.37215(15) 0.65299(11)
H97_6 H 0.0420 0.3815 0.6620
C166_6 C 0.01544(12) 0.35463(16) 0.60456(10)
C167_6 C 0.10511(10) 0.41717(15) 0.76806(10)
O35_6 O 0.01630(18) 0.77606(23) 0.5884(3)
O37_6 O 0.16207(10) 0.24838(13) 0.59694(11)
C1_6 C 0.6911(3) 0.1188(2) 0.8164(2)
C3_6 C 0.5472(3) 0.1310(4) 0.4730(4)
C4_6 C 0.3558(3) 0.1188(3) 0.4948(2)
C5_6 C 0.57214(14) 0.27521(13) 0.50622(17)
H1_6 H 0.5774 0.2954 0.4948
C7_6 C 0.72851(17) 0.0177(2) 0.6165(2)
H3_6 H 0.7509 0.0237 0.6232
C8_6 C 0.71081(18) 0.03416(18) 0.63219(18)
H4_6 H 0.7215 0.0492 0.6496
C9_6 C 0.66599(18) 0.0047(2) 0.59752(15)
H5_6 H 0.6446 0.0004 0.5895
C10_6 C 0.53852(13) 0.24626(14) 0.50501(16)
H6_6 H 0.5212 0.2476 0.4933
C11_6 C 0.7004(2) 0.1820(3) 0.8834(3)
C12_6 C 0.64851(14) 0.09548(13) 0.77187(12)
H7_6 H 0.6309 0.0923 0.7861
C13_6 C 0.59764(12) 0.27353(12) 0.52449(16)
C16_6 C 0.70653(15) 0.11099(13) 0.76178(19)
H9_6 H 0.7293 0.1194 0.7690
C17_6 C 0.59311(16) 0.10216(17) 0.62420(12)
H10_6 H 0.6058 0.1164 0.6415
C19_6 C 0.56925(15) 0.10869(15) 0.60687(14)
H11_6 H 0.5652 0.1263 0.6139
C20_6 C 0.63811(12) 0.33731(14) 0.52622(15)
H12_6 H 0.6187 0.3401 0.5250
C21_6 C 0.49488(12) 0.18534(14) 0.51907(12)
C22_6 C 0.63228(12) 0.30353(12) 0.52704(15)
C23_6 C 0.69909(13) 0.10114(13) 0.73011(15)
H13_6 H 0.7168 0.1029 0.7165
C25_6 C 0.55765(12) 0.06263(14) 0.57202(11)
H15_6 H 0.5469 0.0491 0.5536
C26_6 C 0.58012(13) 0.05504(14) 0.59184(16)
H16_6 H 0.5817 0.0353 0.5871
C27_6 C 0.35678(12) 0.03573(12) 0.57173(11)
H17_6 H 0.3508 0.0501 0.5603
C30_6 C 0.68281(18) 0.10911(14) 0.78296(15)
C31_6 C 0.55586(12) 0.21468(11) 0.53709(13)
H19_6 H 0.5512 0.1940 0.5473
C32_6 C 0.58918(12) 0.24296(13) 0.53964(14)
H20_6 H 0.6060 0.2411 0.5517
C33_6 C 0.33137(11) 0.00765(13) 0.58719(11)
H21_6 H 0.3086 0.0033 0.5865
C36_6 C 0.64129(13) 0.08652(12) 0.73853(13)
H24_6 H 0.6189 0.0790 0.7307
C38_6 C 0.41881(13) 0.07593(11) 0.55460(10)
C40_6 C 0.39916(11) 0.02164(12) 0.58830(10)
H26_6 H 0.4220 0.0258 0.5881
C42_6 C 0.65634(11) 0.07564(11) 0.68376(11)
C45_6 C 0.53058(12) 0.21527(12) 0.52114(13)
C46_6 C 0.55209(11) 0.08946(12) 0.58006(12)
C49_6 C 0.66336(12) 0.04593(11) 0.63777(12)
C50_6 C 0.52893(11) 0.09748(14) 0.56034(12)
C52_6 C 0.39114(11) 0.04415(11) 0.57204(10)
C54_6 C 0.63271(10) 0.08058(11) 0.66643(11)
H31_6 H 0.6224 0.0921 0.6763
C55_6 C 0.66602(13) 0.08851(11) 0.71734(12)
C57_6 C 0.67154(11) 0.05879(11) 0.66828(12)
H33_6 H 0.6884 0.0562 0.6795
C60_6 C 0.59758(12) 0.07431(12) 0.61522(10)
C62_6 C 0.68067(13) 0.02809(12) 0.62225(12)
C63_6 C 0.63929(11) 0.05093(11) 0.62069(10)
H35_6 H 0.6333 0.0422 0.5995
C66_6 C 0.62367(10) 0.06883(11) 0.63447(10)
C67_6 C 0.33623(18) 0.13596(19) 0.50087(17)
H36_6 H 0.3519 0.1597 0.5069
H37_6 H 0.3238 0.1353 0.4814
H38_6 H 0.3200 0.1243 0.5182
O1_6 O 0.5579(2) 0.1546(2) 0.4491(2)
O2_6 O 0.72235(13) 0.13108(10) 0.82687(10)
O3_6 O 0.66862(17) 0.11569(14) 0.83550(11)
O4_6 O 0.34568(18) 0.0847(3) 0.4863(2)
C68_6 C 0.5438(3) 0.0965(2) 0.4646(2)
H39_6 H 0.5357 0.0815 0.4833
H40_6 H 0.5274 0.0859 0.4470
H41_6 H 0.5661 0.0999 0.4580
O5_6 O 0.71877(17) 0.18862(16) 0.8642(2)
O6_6 O 0.6730(3) 0.1650(3) 0.8937(2)
O9_6 O 0.42835(11) 0.16221(13) 0.56282(9)
H42_6 H 0.4412 0.1634 0.5788
H43_6 H 0.4144 0.1700 0.5647
O11_6 O 0.38891(9) 0.14103(9) 0.50354(10)
O12_6 O 0.53412(10) 0.14040(11) 0.49612(10)
O13_6 O 0.40886(7) 0.09427(8) 0.54058(8)
O14_6 O 0.47152(8) 0.18965(7) 0.50535(8)
O16_6 O 0.51089(8) 0.07715(8) 0.53689(7)
O19_6 O 0.44970(7) 0.08253(6) 0.55566(6)
O20_6 O 0.52787(6) 0.12481(8) 0.56666(7)
O21_6 O 0.48635(6) 0.15538(7) 0.53113(7)
C69_6 C 0.6619(3) 0.21669(18) 0.89597(18)
H44_6 H 0.6478 0.1971 0.9085
C70_6 C 0.71034(16) 0.24714(19) 0.86411(18)
H45_6 H 0.7300 0.2492 0.8538
C71_6 C 0.65437(17) 0.24432(15) 0.89483(14)
H46_6 H 0.6346 0.2422 0.9048
C72_6 C 0.70438(13) 0.27526(13) 0.86290(14)
H47_6 H 0.7196 0.2950 0.8510
C73_6 C 0.6892(3) 0.2177(2) 0.8793(2)
C74_6 C 0.67755(13) 0.27468(11) 0.87822(12)
C75_6 C 0.69959(10) 0.33805(12) 0.87890(9)
H48_6 H 0.7221 0.3413 0.8788
C76_6 C 0.67163(11) 0.30449(11) 0.87891(9)
C77_6 C 0.72479(13) 0.29692(19) 0.50622(17)
H49_6 H 0.7046 0.2819 0.4948
C78_6 C 0.75374(14) 0.29225(19) 0.50501(16)
H50_6 H 0.7524 0.2735 0.4933
C79_6 C 0.72647(12) 0.32410(17) 0.52449(16)
C80_6 C 0.66269(14) 0.30079(18) 0.52622(15)
H51_6 H 0.6599 0.2785 0.5250
C81_6 C 0.81466(14) 0.30953(18) 0.51907(12)
C82_6 C 0.69647(12) 0.32874(17) 0.52704(15)
C83_6 C 0.78532(11) 0.34117(16) 0.53709(13)
H52_6 H 0.8060 0.3571 0.5473
C84_6 C 0.75704(13) 0.34621(18) 0.53964(14)
H53_6 H 0.7589 0.3648 0.5517
C85_6 C 0.78473(12) 0.31530(17) 0.52114(13)
O22_6 O 0.81035(7) 0.28186(11) 0.50535(8)
O23_6 O 0.84462(7) 0.33096(9) 0.53113(7)
C86_6 C 0.70308(19) 0.42786(14) 0.50622(17)
H54_6 H 0.7181 0.4226 0.4948
C87_6 C 0.70775(19) 0.46148(13) 0.50501(16)
H55_6 H 0.7265 0.4788 0.4933
C88_6 C 0.67590(17) 0.40236(12) 0.52449(16)
C89_6 C 0.69921(18) 0.36189(12) 0.52622(15)
H56_6 H 0.7215 0.3813 0.5250
C90_6 C 0.69047(18) 0.50512(12) 0.51907(12)
C91_6 C 0.67126(17) 0.36772(12) 0.52704(15)
C92_6 C 0.65883(16) 0.44414(12) 0.53709(13)
H57_6 H 0.6429 0.4488 0.5473
C93_6 C 0.65379(18) 0.41082(12) 0.53964(14)
H58_6 H 0.6352 0.3940 0.5517
C94_6 C 0.68470(17) 0.46942(12) 0.52114(13)
O24_6 O 0.71814(11) 0.52848(8) 0.50535(8)
O25_6 O 0.66904(9) 0.51365(6) 0.53113(7)
C95_6 C 0.8180(3) 0.5183(4) 0.8834(3)
O26_6 O 0.81138(16) 0.53014(23) 0.8642(2)
O27_6 O 0.8350(3) 0.5079(4) 0.8937(2)
C96_6 C 0.78331(18) 0.44517(35) 0.89597(18)
H59_6 H 0.8029 0.4506 0.9085
C97_6 C 0.75286(19) 0.46319(25) 0.86411(18)
H60_6 H 0.7508 0.4807 0.8538
C98_6 C 0.75568(15) 0.41004(23) 0.89483(14)
H61_6 H 0.7578 0.3923 0.9048
C99_6 C 0.72474(13) 0.42911(18) 0.86290(14)
H62_6 H 0.7050 0.4245 0.8510
C100_6 C 0.7823(2) 0.4714(4) 0.8793(2)
C101_6 C 0.72532(11) 0.40286(17) 0.87822(12)
C102_6 C 0.66195(12) 0.36153(16) 0.87890(9)
H63_6 H 0.6587 0.3807 0.8788
C103_6 C 0.69551(11) 0.36713(16) 0.87891(9)
C104_6 C 0.4817(4) 0.2996(2) 0.8834(3)
O28_6 O 0.46986(23) 0.28123(17) 0.8642(2)
O29_6 O 0.4921(4) 0.3270(3) 0.8937(2)
C105_6 C 0.55483(35) 0.3381(3) 0.89597(18)
H64_6 H 0.5494 0.3522 0.9085
C106_6 C 0.53681(25) 0.28966(16) 0.86411(18)
H65_6 H 0.5193 0.2700 0.8538
C107_6 C 0.58996(23) 0.34563(17) 0.89483(14)
H66_6 H 0.6077 0.3654 0.9048
C108_6 C 0.57089(18) 0.29562(13) 0.86290(14)
H67_6 H 0.5755 0.2804 0.8510
C109_6 C 0.5286(4) 0.3108(3) 0.8793(2)
C110_6 C 0.59714(17) 0.32245(13) 0.87822(12)
C111_6 C 0.63847(16) 0.30041(10) 0.87890(9)
H68_6 H 0.6193 0.2779 0.8788
C112_6 C 0.63287(16) 0.32837(11) 0.87891(9)
C113_6 C 0.8812(2) 0.5722(4) 0.8164(2)
C115_6 C 0.8690(4) 0.4161(5) 0.4730(4)
C116_6 C 0.8812(3) 0.2369(4) 0.4948(2)
C118_6 C 0.9823(2) 0.71077(26) 0.6165(2)
H70_6 H 0.9763 0.7271 0.6232
C119_6 C 0.96584(18) 0.67664(25) 0.63219(18)
H71_6 H 0.9508 0.6722 0.6496
C120_6 C 0.9953(2) 0.66125(27) 0.59752(15)
H72_6 H 0.9996 0.6441 0.5895
C121_6 C 0.90452(13) 0.55302(19) 0.77187(12)
H73_6 H 0.9077 0.5385 0.7861
C124_6 C 0.88901(13) 0.59553(20) 0.76178(19)
H75_6 H 0.8806 0.6098 0.7690
C125_6 C 0.89784(17) 0.49094(23) 0.62420(12)
H76_6 H 0.8836 0.4893 0.6415
C127_6 C 0.89131(15) 0.46055(21) 0.60687(14)
H77_6 H 0.8737 0.4388 0.6139
C128_6 C 0.89886(13) 0.59794(18) 0.73011(15)
H78_6 H 0.8971 0.6138 0.7165
C130_6 C 0.93737(14) 0.49501(18) 0.57202(11)
H80_6 H 0.9509 0.4977 0.5536
C131_6 C 0.94496(14) 0.52507(19) 0.59184(16)
H81_6 H 0.9647 0.5463 0.5871
C132_6 C 0.96427(12) 0.32104(17) 0.57173(11)
H82_6 H 0.9499 0.3006 0.5603
C135_6 C 0.89089(14) 0.57369(23) 0.78296(15)
C136_6 C 0.99235(13) 0.32371(17) 0.58719(11)
H84_6 H 0.9967 0.3052 0.5865
C139_6 C 0.91348(12) 0.55476(18) 0.73853(13)
H87_6 H 0.9210 0.5398 0.7307
C141_6 C 0.92407(11) 0.34287(17) 0.55460(10)
C143_6 C 0.97836(12) 0.37751(16) 0.58830(10)
H89_6 H 0.9742 0.3961 0.5881
C145_6 C 0.92436(11) 0.58069(16) 0.68376(11)
C148_6 C 0.91054(12) 0.46262(16) 0.58006(12)
C151_6 C 0.95407(11) 0.61742(16) 0.63777(12)
C152_6 C 0.90252(14) 0.43144(18) 0.56034(12)
C154_6 C 0.95585(11) 0.34698(16) 0.57204(10)
C156_6 C 0.91942(11) 0.55212(15) 0.66643(11)
H94_6 H 0.9079 0.5302 0.6763
C157_6 C 0.91149(11) 0.57750(17) 0.71734(12)
C159_6 C 0.94121(11) 0.61274(16) 0.66828(12)
H96_6 H 0.9438 0.6321 0.6795
C162_6 C 0.92569(12) 0.52326(17) 0.61522(10)
C164_6 C 0.97191(12) 0.65257(18) 0.62225(12)
C165_6 C 0.94907(11) 0.58835(16) 0.62069(10)
H98_6 H 0.9578 0.5910 0.5995
C168_6 C 0.93117(11) 0.55483(15) 0.63447(10)
C169_6 C 0.86404(19) 0.20026(26) 0.50087(17)
H99_6 H 0.8403 0.1921 0.5069
H100_6 H 0.8647 0.1884 0.4814
H101_6 H 0.8757 0.1956 0.5182
O30_6 O 0.8454(2) 0.4032(3) 0.4491(2)
O31_6 O 0.86892(10) 0.59126(16) 0.82687(10)
O32_6 O 0.88431(14) 0.55292(22) 0.83550(11)
O33_6 O 0.9153(3) 0.26094(35) 0.4863(2)
C170_6 C 0.9035(2) 0.4472(4) 0.4646(2)
H102_6 H 0.9185 0.4541 0.4833
H103_6 H 0.9141 0.4414 0.4470
H104_6 H 0.9001 0.4661 0.4580
O36_6 O 0.83779(13) 0.26613(17) 0.56282(9)
H105_6 H 0.8366 0.2777 0.5788
H106_6 H 0.8300 0.2443 0.5647
O38_6 O 0.85897(9) 0.24787(13) 0.50354(10)
O39_6 O 0.85960(11) 0.39371(15) 0.49612(10)
O40_6 O 0.90573(8) 0.31458(11) 0.54058(8)
O42_6 O 0.92285(8) 0.43373(11) 0.53689(7)
O45_6 O 0.91747(6) 0.36716(9) 0.55566(6)
O46_6 O 0.87519(8) 0.40305(10) 0.56666(7)
C171_6 C 0.4278(4) 0.3089(3) 0.8164(2)
C172_6 C 0.64239(16) 0.68810(11) 0.62239(11)
C173_6 C 0.5839(5) 0.4528(3) 0.4730(4)
C174_6 C 0.7631(4) 0.6442(3) 0.4948(2)
C175_6 C 0.30703(28) 0.3195(2) 0.58399(14)
H107_6 H 0.3022 0.3316 0.5683
C176_6 C 0.28923(26) 0.27149(17) 0.6165(2)
H108_6 H 0.2729 0.2491 0.6232
C177_6 C 0.32336(25) 0.28919(18) 0.63219(18)
H109_6 H 0.3278 0.2785 0.6496
C178_6 C 0.33875(27) 0.33401(18) 0.59752(15)
H110_6 H 0.3559 0.3554 0.5895
C179_6 C 0.44698(19) 0.35149(14) 0.77187(12)
H111_6 H 0.4615 0.3691 0.7861
C180_6 C 0.28127(22) 0.28628(16) 0.59340(17)
C181_6 C 0.67684(16) 0.79176(12) 0.58137(12)
H112_6 H 0.6644 0.7733 0.5670
C182_6 C 0.40447(20) 0.29347(15) 0.76178(19)
H113_6 H 0.3902 0.2707 0.7690
C183_6 C 0.50906(23) 0.40689(16) 0.62420(12)
H114_6 H 0.5107 0.3942 0.6415
C184_6 C 0.2408(4) 0.2606(3) 0.5755(2)
C185_6 C 0.53945(21) 0.43075(15) 0.60687(14)
H115_6 H 0.5612 0.4348 0.6139
C186_6 C 0.40206(18) 0.30091(13) 0.73011(15)
H116_6 H 0.3862 0.2832 0.7165
C187_6 C 0.69594(21) 0.82571(17) 0.57005(13)
H117_6 H 0.6970 0.8298 0.5477
C188_6 C 0.50499(18) 0.44235(12) 0.57202(11)
H118_6 H 0.5023 0.4531 0.5536
C189_6 C 0.47493(19) 0.41988(13) 0.59184(16)
H119_6 H 0.4537 0.4183 0.5871
C190_6 C 0.67896(17) 0.64322(12) 0.57173(11)
H120_6 H 0.6994 0.6492 0.5603
C191_6 C 0.57168(16) 0.66190(11) 0.74412(13)
H121_6 H 0.5542 0.6394 0.7493
C192_6 C 0.73325(19) 0.89030(15) 0.5774(2)
C193_6 C 0.42631(23) 0.31719(18) 0.78296(15)
C194_6 C 0.67629(17) 0.66863(11) 0.58719(11)
H122_6 H 0.6948 0.6914 0.5865
C195_6 C 0.60714(16) 0.72053(11) 0.75795(12)
H123_6 H 0.6147 0.7391 0.7724
C196_6 C 0.58541(17) 0.66808(12) 0.71364(11)
H124_6 H 0.5779 0.6496 0.6989
C197_6 C 0.44524(18) 0.35871(13) 0.73853(13)
H125_6 H 0.4602 0.3811 0.7307
C198_6 C 0.62092(17) 0.72663(11) 0.72676(12)
H126_6 H 0.6381 0.7491 0.7213
C199_6 C 0.65713(17) 0.58119(13) 0.55460(10)
C200_6 C 0.71330(18) 0.85333(14) 0.59070(16)
C201_6 C 0.62249(16) 0.60084(11) 0.58830(10)
H127_6 H 0.6039 0.5780 0.5881
C202_6 C 0.65802(16) 0.72246(11) 0.61012(10)
H128_6 H 0.6684 0.7272 0.5896
C203_6 C 0.41931(16) 0.34366(11) 0.68376(11)
C204_6 C 0.67675(16) 0.78583(12) 0.61501(12)
C205_6 C 0.62633(16) 0.70825(11) 0.67123(11)
C206_6 C 0.53738(16) 0.44791(11) 0.58006(12)
C207_6 C 0.61938(17) 0.62657(12) 0.60491(10)
H129_6 H 0.5991 0.6203 0.6166
C208_6 C 0.69398(16) 0.81277(12) 0.63532(11)
H130_6 H 0.6934 0.8083 0.6575
C209_6 C 0.38258(16) 0.33664(12) 0.63777(12)
C210_6 C 0.56856(18) 0.47107(11) 0.56034(12)
C211_6 C 0.64142(16) 0.74083(11) 0.65757(10)
H131_6 H 0.6404 0.7585 0.6688
C212_6 C 0.65302(16) 0.60886(11) 0.57204(10)
C213_6 C 0.65839(16) 0.74863(11) 0.62732(10)
C214_6 C 0.44788(15) 0.36729(10) 0.66643(11)
H132_6 H 0.4698 0.3776 0.6763
C215_6 C 0.42250(17) 0.33398(13) 0.71734(12)
C216_6 C 0.71266(16) 0.84702(12) 0.62452(12)
H133_6 H 0.7245 0.8653 0.6391
C217_6 C 0.38726(16) 0.32846(11) 0.66828(12)
H134_6 H 0.3679 0.3116 0.6795
C218_6 C 0.61072(15) 0.70165(11) 0.70381(10)
C219_6 C 0.56731(18) 0.68103(14) 0.80108(11)
C220_6 C 0.47674(17) 0.40242(12) 0.61522(10)
C221_6 C 0.62785(15) 0.68263(10) 0.65299(11)
H135_6 H 0.6185 0.6604 0.6620
C222_6 C 0.34743(18) 0.31933(13) 0.62225(12)
C223_6 C 0.41165(16) 0.36071(11) 0.62069(10)
H136_6 H 0.4090 0.3667 0.5995
C224_6 C 0.64537(16) 0.66080(11) 0.60456(10)
C225_6 C 0.58283(15) 0.68793(11) 0.76806(10)
C226_6 C 0.44517(15) 0.37633(10) 0.63447(10)
C227_6 C 0.79974(26) 0.66377(18) 0.50087(17)
H137_6 H 0.8079 0.6481 0.5069
H138_6 H 0.8116 0.6762 0.4814
H139_6 H 0.8044 0.6800 0.5182
O47_6 O 0.5968(3) 0.4421(2) 0.4491(2)
O48_6 O 0.40874(16) 0.27765(13) 0.82687(10)
O49_6 O 0.44708(22) 0.33138(17) 0.83550(11)
O50_6 O 0.73906(35) 0.65432(18) 0.4863(2)
C228_6 C 0.5528(4) 0.4562(3) 0.4646(2)
H140_6 H 0.5459 0.4643 0.4833
H141_6 H 0.5586 0.4726 0.4470
H142_6 H 0.5339 0.4339 0.4580
O52_6 O 0.22394(23) 0.24023(15) 0.5884(3)
O53_6 O 0.73387(17) 0.57165(11) 0.56282(9)
H143_6 H 0.7223 0.5588 0.5788
H144_6 H 0.7557 0.5856 0.5647
O54_6 O 0.75162(13) 0.91368(9) 0.59694(11)
O55_6 O 0.75213(13) 0.61109(9) 0.50354(10)
O56_6 O 0.60629(15) 0.46588(10) 0.49612(10)
O57_6 O 0.68542(11) 0.59114(7) 0.54058(8)
O59_6 O 0.56627(11) 0.48911(8) 0.53689(7)
O62_6 O 0.63284(9) 0.55030(7) 0.55566(6)
O63_6 O 0.59695(10) 0.47213(6) 0.56666(7)
C2_6 C 0.31190(11) 0.95428(11) 0.62239(11)
C6_6 C 0.6805(2) 0.98749(19) 0.58399(14)
H2_6 H 0.6684 0.9705 0.5683
C14_6 C 0.71372(16) 0.99498(15) 0.59340(17)
C15_6 C 0.20824(12) 0.88507(11) 0.58137(12)
H8_6 H 0.2267 0.8910 0.5670
C18_6 C 0.7394(3) 0.9801(2) 0.5755(2)
C24_6 C 0.17429(17) 0.87022(13) 0.57005(13)
H14_6 H 0.1702 0.8671 0.5477
C28_6 C 0.33810(11) 0.90977(12) 0.74412(13)
H18_6 H 0.3606 0.9147 0.7493
C29_6 C 0.10970(15) 0.84294(12) 0.5774(2)
C34_6 C 0.27947(11) 0.88660(11) 0.75795(12)
H22_6 H 0.2609 0.8755 0.7724
C35_6 C 0.33192(12) 0.91732(12) 0.71364(11)
H23_6 H 0.3504 0.9282 0.6989
C37_6 C 0.27337(11) 0.89428(13) 0.72676(12)
H25_6 H 0.2509 0.8889 0.7213
C39_6 C 0.14667(14) 0.85996(11) 0.59070(16)
C41_6 C 0.27754(11) 0.93555(11) 0.61012(10)
H27_6 H 0.2728 0.9411 0.5896
C43_6 C 0.21417(12) 0.89091(11) 0.61501(12)
C44_6 C 0.29175(11) 0.91807(11) 0.67123(11)
C47_6 C 0.37343(12) 0.99280(12) 0.60491(10)
H28_6 H 0.3797 0.9787 0.6166
C48_6 C 0.18723(12) 0.88120(10) 0.63532(11)
H29_6 H 0.1917 0.8850 0.6575
C51_6 C 0.25917(11) 0.90058(11) 0.65757(10)
H30_6 H 0.2415 0.8818 0.6688
C53_6 C 0.25137(11) 0.90975(11) 0.62732(10)
C56_6 C 0.15298(12) 0.86563(10) 0.62452(12)
H32_6 H 0.1347 0.8591 0.6391
C58_6 C 0.29835(11) 0.90906(10) 0.70381(10)
C59_6 C 0.31897(14) 0.88627(11) 0.80108(11)
C61_6 C 0.31737(10) 0.94521(11) 0.65299(11)
H34_6 H 0.3396 0.9580 0.6620
C64_6 C 0.33920(11) 0.98456(12) 0.60456(10)
C65_6 C 0.31207(11) 0.89489(10) 0.76806(10)
O8_6 O 0.75977(15) 0.98370(18) 0.5884(3)
O10_6 O 0.08632(9) 0.83793(10) 0.59694(11)
loop_
_geom_bond_atom_site_label_1
_geom_bond_atom_site_label_2
_geom_bond_site_symmetry_1
_geom_bond_site_symmetry_2
Mg1 O12 1_555 1_555
Mg2 O9 1_555 1_555
C2 C41 1_555 1_555
C3 O1 1_555 1_555
C4 C67 1_555 1_555
C5 H1 1_555 1_555
H5 C9 1_555 1_555
C10 C5 1_555 1_555
H6 C10 1_555 1_555
C12 H7 1_555 1_555
C13 C5 1_555 1_555
C15 H8 1_555 1_555
C17 H10 1_555 1_555
C19 C17 1_555 1_555
H11 C19 1_555 1_555
C21 C45 1_555 1_555
C22 C13 1_555 1_555
C24 C15 1_555 1_555
H14 C24 1_555 1_555
C25 H15 1_555 1_555
C26 C25 1_555 1_555
H16 C26 1_555 1_555
C27 H17 1_555 1_555
C28 H18 1_555 1_555
C29 C39 1_555 1_555
C31 H19 1_555 1_555
C32 C13 1_555 1_555
H20 C32 1_555 1_555
C33 C27 1_555 1_555
H21 C33 1_555 1_555
C34 H22 1_555 1_555
C35 C28 1_555 1_555
H23 C35 1_555 1_555
C36 C12 1_555 1_555
H24 C36 1_555 1_555
C37 C34 1_555 1_555
H25 C37 1_555 1_555
C38 C52 1_555 1_555
C39 C24 1_555 1_555
C40 H26 1_555 1_555
C41 H27 1_555 1_555
C42 C54 1_555 1_555
C43 C15 1_555 1_555
C44 C51 1_555 1_555
C45 C10 1_555 1_555
C46 C19 1_555 1_555
C47 C40 1_555 1_555
H28 C47 1_555 1_555
C48 C43 1_555 1_555
H29 C48 1_555 1_555
C50 C46 1_555 1_555
C51 H30 1_555 1_555
C52 C27 1_555 1_555
C53 C41 1_555 1_555
C54 H31 1_555 1_555
C56 C39 1_555 1_555
H32 C56 1_555 1_555
C58 C35 1_555 1_555
C59 C65 1_555 1_555
C60 C17 1_555 1_555
C61 C2 1_555 1_555
H34 C61 1_555 1_555
C63 C49 1_555 1_555
H35 C63 1_555 1_555
C64 C2 1_555 1_555
C65 C28 1_555 1_555
C66 C54 1_555 1_555
C67 H36 1_555 1_555
H37 C67 1_555 1_555
H38 C67 1_555 1_555
O4 C4 1_555 1_555
C68 C3 1_555 1_555
H39 C68 1_555 1_555
H40 C68 1_555 1_555
H41 C68 1_555 1_555
O9 H42 1_555 1_555
H43 O9 1_555 1_555
O10 C29 1_555 1_555
O11 Mg2 1_555 1_555
O12 C3 1_555 1_555
O13 Mg2 1_555 1_555
O14 Mg2 1_555 1_555
O15 C29 1_555 1_555
O16 Mg1 1_555 1_555
O17 C59 1_555 1_555
O18 C59 1_555 1_555
O19 Mg1 1_555 1_555
O20 Mg1 1_555 1_555
O21 Mg1 1_555 1_555
C69 H44 1_555 1_555
C71 C69 1_555 1_555
H46 C71 1_555 1_555
C80 C22 1_555 1_555
H51 C80 1_555 1_555
C104 O28 1_555 1_555
O28 Mg9 1_555 1_555
O29 C104 1_555 1_555
C106 H65 1_555 1_555
C108 C106 1_555 1_555
H67 C108 1_555 1_555
C109 C104 1_555 1_555
H68 C111 1_555 1_555
Mg9 O48 1_555 1_555
C171 C193 1_555 1_555
C175 H107 1_555 1_555
C176 H108 1_555 1_555
C177 C176 1_555 1_555
H109 C177 1_555 1_555
C180 C175 1_555 1_555
C182 H113 1_555 1_555
C184 C180 1_555 1_555
C186 C182 1_555 1_555
H116 C186 1_555 1_555
H134 C217 1_555 1_555
C222 C177 1_555 1_555
O48 C171 1_555 1_555
O49 C171 1_555 1_555
O51 C184 1_555 1_555
O52 C184 1_555 1_555
Mg12 O17 1_555 1_555
Mg15 O18 1_555 1_555
Mg17 O15 1_555 1_555
Mg19 O51 1_555 1_555
O64 Mg9 1_555 1_555
O69 Mg9 1_555 1_555
O71 Mg1 1_555 1_555
O74 Mg2 1_555 1_555
Mg2 O21 1_555 1_555
C4 O11 1_555 1_555
C21 O14 1_555 1_555
C21 O21 1_555 1_555
C25 C46 1_555 1_555
C26 C60 1_555 1_555
C31 C32 1_555 1_555
C31 C45 1_555 1_555
C33 C64 1_555 1_555
C34 C65 1_555 1_555
C36 C55 1_555 1_555
C37 C58 1_555 1_555
C38 O13 1_555 1_555
C38 O19 1_555 1_555
C40 C52 1_555 1_555
C42 C55 1_555 1_555
C43 C53 1_555 1_555
C44 C58 1_555 1_555
C44 C61 1_555 1_555
C47 C64 1_555 1_555
C48 C56 1_555 1_555
C50 O16 1_555 1_555
C50 O20 1_555 1_555
C51 C53 1_555 1_555
C60 C66 1_555 1_555
C63 C66 1_555 1_555
C106 C109 1_555 1_555
C108 C110 1_555 1_555
C110 C112 1_555 1_555
C111 C112 1_555 1_555
C176 C180 1_555 1_555
C182 C193 1_555 1_555
C20 H12 1_555 1_555
C92 H57 1_555 1_555
H58 C93 1_555 1_555
C102 H63 1_555 1_555
C105 H64 1_555 1_555
C107 C105 1_555 1_555
H66 C107 1_555 1_555
C172 C202 1_555 1_555
C173 O47 1_555 1_555
H110 C178 1_555 1_555
C179 H111 1_555 1_555
C183 H114 1_555 1_555
C185 C183 1_555 1_555
H115 C185 1_555 1_555
C188 H118 1_555 1_555
C189 C188 1_555 1_555
H119 C189 1_555 1_555
C191 H121 1_555 1_555
C195 H123 1_555 1_555
C196 C191 1_555 1_555
H124 C196 1_555 1_555
C197 C179 1_555 1_555
H125 C197 1_555 1_555
C198 C195 1_555 1_555
H126 C198 1_555 1_555
C199 C212 1_555 1_555
C201 H127 1_555 1_555
C203 C214 1_555 1_555
C205 C211 1_555 1_555
C206 C185 1_555 1_555
C207 C201 1_555 1_555
H129 C207 1_555 1_555
C210 C206 1_555 1_555
C211 H131 1_555 1_555
C213 C202 1_555 1_555
C214 H132 1_555 1_555
C218 C196 1_555 1_555
C219 C225 1_555 1_555
C220 C183 1_555 1_555
C221 C172 1_555 1_555
H135 C221 1_555 1_555
C223 C209 1_555 1_555
H136 C223 1_555 1_555
C224 C172 1_555 1_555
C225 C191 1_555 1_555
C226 C214 1_555 1_555
C228 C173 1_555 1_555
H140 C228 1_555 1_555
H141 C228 1_555 1_555
H142 C228 1_555 1_555
O56 Mg7 1_555 1_555
O59 Mg7 1_555 1_555
O60 C219 1_555 1_555
O61 C219 1_555 1_555
O62 Mg7 1_555 1_555
O63 Mg7 1_555 1_555
Mg11 O60 1_555 1_555
Mg14 O61 1_555 1_555
O70 Mg7 1_555 1_555
C92 C93 1_555 1_555
C173 O56 1_555 1_555
C188 C206 1_555 1_555
C189 C220 1_555 1_555
C195 C225 1_555 1_555
C197 C215 1_555 1_555
C198 C218 1_555 1_555
C199 O62 1_555 1_555
C201 C212 1_555 1_555
C203 C215 1_555 1_555
C205 C218 1_555 1_555
C205 C221 1_555 1_555
C207 C224 1_555 1_555
C210 O59 1_555 1_555
C210 O63 1_555 1_555
C211 C213 1_555 1_555
C220 C226 1_555 1_555
C223 C226 1_555 1_555
Mg3 O2 1_555 1_555
C1 C30 1_555 1_555
C6 H2 1_555 1_555
C7 H3 1_555 1_555
C8 C7 1_555 1_555
H4 C8 1_555 1_555
C11 O5 1_555 1_555
C14 C6 1_555 1_555
C16 H9 1_555 1_555
C18 C14 1_555 1_555
C23 C16 1_555 1_555
H13 C23 1_555 1_555
H33 C57 1_555 1_555
C62 C8 1_555 1_555
O2 C1 1_555 1_555
O3 C1 1_555 1_555
O5 Mg3 1_555 1_555
O6 C11 1_555 1_555
O7 C18 1_555 1_555
O8 C18 1_555 1_555
C70 H45 1_555 1_555
C72 C70 1_555 1_555
H47 C72 1_555 1_555
C73 C11 1_555 1_555
C76 C74 1_555 1_555
C77 H49 1_555 1_555
C78 C77 1_555 1_555
H50 C78 1_555 1_555
C79 C77 1_555 1_555
C81 C85 1_555 1_555
C82 C79 1_555 1_555
C85 C78 1_555 1_555
O22 C81 1_555 1_555
O23 C81 1_555 1_555
Mg5 O22 1_555 1_555
C116 C169 1_555 1_555
C129 C123 1_555 1_555
H79 C129 1_555 1_555
C132 H82 1_555 1_555
C134 C142 1_555 1_555
C136 C132 1_555 1_555
H84 C136 1_555 1_555
C142 C129 1_555 1_555
C146 C123 1_555 1_555
C150 C146 1_555 1_555
H92 C150 1_555 1_555
C158 C142 1_555 1_555
H95 C158 1_555 1_555
C169 H99 1_555 1_555
H100 C169 1_555 1_555
H101 C169 1_555 1_555
O33 C116 1_555 1_555
O36 Mg5 1_555 1_555
H105 O36 1_555 1_555
H106 O36 1_555 1_555
O37 C134 1_555 1_555
O38 Mg5 1_555 1_555
O40 Mg5 1_555 1_555
O41 C134 1_555 1_555
Mg19 O41 1_555 1_555
Mg21 O7 1_555 1_555
O65 Mg3 1_555 1_555
O67 Mg3 1_555 1_555
O75 Mg5 1_555 1_555
C7 C14 1_555 1_555
C16 C30 1_555 1_555
C70 C73 1_555 1_555
C72 C74 1_555 1_555
O23 Mg5 1_555 1_555
C116 O38 1_555 1_555
C150 C158 1_555 1_555
C75 H48 1_555 1_555
C83 H52 1_555 1_555
H53 C84 1_555 1_555
C86 H54 1_555 1_555
C87 C86 1_555 1_555
H55 C87 1_555 1_555
C88 C86 1_555 1_555
H56 C89 1_555 1_555
C90 C94 1_555 1_555
C94 C87 1_555 1_555
O24 C90 1_555 1_555
O25 C90 1_555 1_555
C95 O26 1_555 1_555
O26 Mg6 1_555 1_555
O27 C95 1_555 1_555
C96 H59 1_555 1_555
C97 H60 1_555 1_555
C98 C96 1_555 1_555
H61 C98 1_555 1_555
C99 C97 1_555 1_555
H62 C99 1_555 1_555
C100 C95 1_555 1_555
C101 C98 1_555 1_555
C103 C75 1_555 1_555
Mg6 O31 1_555 1_555
C113 C135 1_555 1_555
C114 C144 1_555 1_555
C115 O30 1_555 1_555
C117 H69 1_555 1_555
C118 H70 1_555 1_555
C119 C118 1_555 1_555
H71 C119 1_555 1_555
C120 C117 1_555 1_555
H72 C120 1_555 1_555
C121 H73 1_555 1_555
C122 C117 1_555 1_555
C124 H75 1_555 1_555
C125 H76 1_555 1_555
C126 C122 1_555 1_555
C127 C125 1_555 1_555
H77 C127 1_555 1_555
C128 C124 1_555 1_555
H78 C128 1_555 1_555
C130 H80 1_555 1_555
C131 C130 1_555 1_555
H81 C131 1_555 1_555
C133 H83 1_555 1_555
C135 C121 1_555 1_555
C137 H85 1_555 1_555
C138 C133 1_555 1_555
H86 C138 1_555 1_555
C139 C121 1_555 1_555
H87 C139 1_555 1_555
C140 C137 1_555 1_555
H88 C140 1_555 1_555
C141 C154 1_555 1_555
C143 H89 1_555 1_555
C145 C156 1_555 1_555
C147 C153 1_555 1_555
C148 C127 1_555 1_555
C149 C143 1_555 1_555
H91 C149 1_555 1_555
C151 C159 1_555 1_555
C152 C148 1_555 1_555
C153 H93 1_555 1_555
C155 C144 1_555 1_555
C156 H94 1_555 1_555
C157 C128 1_555 1_555
C159 C145 1_555 1_555
H96 C159 1_555 1_555
C160 C138 1_555 1_555
C161 C167 1_555 1_555
C162 C125 1_555 1_555
C163 C114 1_555 1_555
H97 C163 1_555 1_555
C164 C119 1_555 1_555
C165 C151 1_555 1_555
H98 C165 1_555 1_555
C166 C114 1_555 1_555
C167 C133 1_555 1_555
C168 C156 1_555 1_555
O31 C113 1_555 1_555
O32 C113 1_555 1_555
C170 C115 1_555 1_555
H102 C170 1_555 1_555
H103 C170 1_555 1_555
H104 C170 1_555 1_555
O34 C126 1_555 1_555
O35 C126 1_555 1_555
O39 Mg4 1_555 1_555
O42 Mg4 1_555 1_555
O43 C161 1_555 1_555
O44 C161 1_555 1_555
O45 Mg4 1_555 1_555
O46 Mg4 1_555 1_555
Mg8 O24 1_555 1_555
C174 C227 1_555 1_555
C187 C181 1_555 1_555
H117 C187 1_555 1_555
C190 H120 1_555 1_555
C192 C200 1_555 1_555
C194 C190 1_555 1_555
H122 C194 1_555 1_555
C200 C187 1_555 1_555
C204 C181 1_555 1_555
C208 C204 1_555 1_555
H130 C208 1_555 1_555
C216 C200 1_555 1_555
H133 C216 1_555 1_555
C227 H137 1_555 1_555
H138 C227 1_555 1_555
H139 C227 1_555 1_555
O50 C174 1_555 1_555
O53 Mg8 1_555 1_555
H143 O53 1_555 1_555
H144 O53 1_555 1_555
O54 C192 1_555 1_555
O55 Mg8 1_555 1_555
O57 Mg8 1_555 1_555
O58 C192 1_555 1_555
Mg10 O43 1_555 1_555
Mg13 O44 1_555 1_555
Mg17 O34 1_555 1_555
Mg21 O58 1_555 1_555
O66 Mg6 1_555 1_555
O68 Mg6 1_555 1_555
O72 Mg4 1_555 1_555
O73 Mg8 1_555 1_555
C83 C84 1_555 1_555
C88 C91 1_555 1_555
C89 C91 1_555 1_555
O25 Mg8 1_555 1_555
C96 C100 1_555 1_555
C97 C100 1_555 1_555
C99 C101 1_555 1_555
C101 C103 1_555 1_555
C115 O39 1_555 1_555
C118 C122 1_555 1_555
C120 C164 1_555 1_555
C124 C135 1_555 1_555
C130 C148 1_555 1_555
C131 C162 1_555 1_555
C137 C167 1_555 1_555
C139 C157 1_555 1_555
C140 C160 1_555 1_555
C141 O45 1_555 1_555
C143 C154 1_555 1_555
C145 C157 1_555 1_555
C147 C160 1_555 1_555
C147 C163 1_555 1_555
C149 C166 1_555 1_555
C151 C164 1_555 1_555
C152 O42 1_555 1_555
C152 O46 1_555 1_555
C153 C155 1_555 1_555
C162 C168 1_555 1_555
C165 C168 1_555 1_555
C174 O55 1_555 1_555
C208 C216 1_555 1_555
C2_2 C41_2 1_555 1_555
C15_2 H8_2 1_555 1_555
C24_2 C15_2 1_555 1_555
H14_2 C24_2 1_555 1_555
C29_2 C39_2 1_555 1_555
H21_2 C33_2 1_555 1_555
C39_2 C24_2 1_555 1_555
C41_2 H27_2 1_555 1_555
C43_2 C15_2 1_555 1_555
C48_2 C43_2 1_555 1_555
H29_2 C48_2 1_555 1_555
C53_2 C41_2 1_555 1_555
C56_2 C39_2 1_555 1_555
H32_2 C56_2 1_555 1_555
C61_2 C2_2 1_555 1_555
O10_2 C29_2 1_555 1_555
O15_2 C29_2 1_555 1_555
C175_2 H107_2 1_555 1_555
C176_2 H108_2 1_555 1_555
C177_2 C176_2 1_555 1_555
H109_2 C177_2 1_555 1_555
C180_2 C175_2 1_555 1_555
C184_2 C180_2 1_555 1_555
O51_2 C184_2 1_555 1_555
O52_2 C184_2 1_555 1_555
Mg17_2 O15_2 1_555 1_555
Mg19_2 O51_2 1_555 1_555
C43_2 C53_2 1_555 1_555
C48_2 C56_2 1_555 1_555
C51_2 C53_2 1_555 1_555
C176_2 C180_2 1_555 1_555
C34_2 H22_2 1_555 1_555
C37_2 C34_2 1_555 1_555
H25_2 C37_2 1_555 1_555
C58_2 C35_2 1_555 1_555
C59_2 C65_2 1_555 1_555
O70 C59_2 1_555 1_555
C34_2 C65_2 1_555 1_555
C37_2 C58_2 1_555 1_555
C44_2 C58_2 1_555 1_555
Mg1_2 O12_2 1_555 1_555
Mg2_2 O9_2 1_555 1_555
C3_2 O1_2 1_555 1_555
C4_2 C67_2 1_555 1_555
C5_2 H1_2 1_555 1_555
C6_2 H2_2 1_555 1_555
C7_2 H3_2 1_555 1_555
C8_2 C7_2 1_555 1_555
H4_2 C8_2 1_555 1_555
C9_2 C6_2 1_555 1_555
H5_2 C9_2 1_555 1_555
C10_2 C5_2 1_555 1_555
H6_2 C10_2 1_555 1_555
C13_2 C5_2 1_555 1_555
C14_2 C6_2 1_555 1_555
C17_2 H10_2 1_555 1_555
C18_2 C14_2 1_555 1_555
C19_2 C17_2 1_555 1_555
H11_2 C19_2 1_555 1_555
C20_2 H12_2 1_555 1_555
C21_2 C45_2 1_555 1_555
C22_2 C13_2 1_555 1_555
C25_2 H15_2 1_555 1_555
C26_2 C25_2 1_555 1_555
H16_2 C26_2 1_555 1_555
C27_2 H17_2 1_555 1_555
C31_2 H19_2 1_555 1_555
C32_2 C13_2 1_555 1_555
H20_2 C32_2 1_555 1_555
C38_2 C52_2 1_555 1_555
C40_2 H26_2 1_555 1_555
C45_2 C10_2 1_555 1_555
C46_2 C19_2 1_555 1_555
C47_2 C40_2 1_555 1_555
H28_2 C47_2 1_555 1_555
C50_2 C46_2 1_555 1_555
C52_2 C27_2 1_555 1_555
C60_2 C17_2 1_555 1_555
C62_2 C8_2 1_555 1_555
C63_2 C49_2 1_555 1_555
H35_2 C63_2 1_555 1_555
C66_2 C54_2 1_555 1_555
C67_2 H36_2 1_555 1_555
O4_2 C4_2 1_555 1_555
C68_2 C3_2 1_555 1_555
H39_2 C68_2 1_555 1_555
H40_2 C68_2 1_555 1_555
H41_2 C68_2 1_555 1_555
O7_2 C18_2 1_555 1_555
O8_2 C18_2 1_555 1_555
O9_2 H42_2 1_555 1_555
H43_2 O9_2 1_555 1_555
O11_2 Mg2_2 1_555 1_555
O12_2 C3_2 1_555 1_555
O13_2 Mg2_2 1_555 1_555
O14_2 Mg2_2 1_555 1_555
O16_2 Mg1_2 1_555 1_555
O19_2 Mg1_2 1_555 1_555
O20_2 Mg1_2 1_555 1_555
O21_2 Mg1_2 1_555 1_555
C77_2 H49_2 1_555 1_555
C78_2 C77_2 1_555 1_555
H50_2 C78_2 1_555 1_555
C79_2 C77_2 1_555 1_555
C80_2 C22_2 1_555 1_555
H51_2 C80_2 1_555 1_555
C81_2 C85_2 1_555 1_555
C82_2 C79_2 1_555 1_555
C83_2 H52_2 1_555 1_555
C84_2 C79_2 1_555 1_555
H53_2 C84_2 1_555 1_555
C85_2 C78_2 1_555 1_555
O22_2 C81_2 1_555 1_555
O23_2 C81_2 1_555 1_555
C86_2 H54_2 1_555 1_555
C87_2 C86_2 1_555 1_555
H55_2 C87_2 1_555 1_555
C88_2 C86_2 1_555 1_555
C89_2 C82_2 1_555 1_555
H56_2 C89_2 1_555 1_555
C90_2 C94_2 1_555 1_555
C91_2 C20_2 1_555 1_555
C92_2 H57_2 1_555 1_555
C93_2 C88_2 1_555 1_555
H58_2 C93_2 1_555 1_555
C94_2 C87_2 1_555 1_555
O24_2 C90_2 1_555 1_555
O25_2 C90_2 1_555 1_555
Mg4_2 O23_2 1_555 1_555
Mg5_2 O22_2 1_555 1_555
C114_2 C144_2 1_555 1_555
C115_2 O30_2 1_555 1_555
C116_2 C169_2 1_555 1_555
H72_2 C120_2 1_555 1_555
C123_2 H74_2 1_555 1_555
C125_2 H76_2 1_555 1_555
C127_2 C125_2 1_555 1_555
H77_2 C127_2 1_555 1_555
C129_2 C123_2 1_555 1_555
H79_2 C129_2 1_555 1_555
C130_2 H80_2 1_555 1_555
C131_2 C130_2 1_555 1_555
H81_2 C131_2 1_555 1_555
C132_2 H82_2 1_555 1_555
C134_2 C142_2 1_555 1_555
C136_2 C132_2 1_555 1_555
H84_2 C136_2 1_555 1_555
C141_2 C154_2 1_555 1_555
C142_2 C129_2 1_555 1_555
C143_2 H89_2 1_555 1_555
C144_2 H90_2 1_555 1_555
C146_2 C123_2 1_555 1_555
C148_2 C127_2 1_555 1_555
C149_2 C143_2 1_555 1_555
H91_2 C149_2 1_555 1_555
C150_2 C146_2 1_555 1_555
H92_2 C150_2 1_555 1_555
C152_2 C148_2 1_555 1_555
C154_2 C132_2 1_555 1_555
C155_2 C144_2 1_555 1_555
C158_2 C142_2 1_555 1_555
H95_2 C158_2 1_555 1_555
C162_2 C125_2 1_555 1_555
C163_2 C114_2 1_555 1_555
H97_2 C163_2 1_555 1_555
C165_2 C151_2 1_555 1_555
H98_2 C165_2 1_555 1_555
C166_2 C114_2 1_555 1_555
C168_2 C156_2 1_555 1_555
C169_2 H99_2 1_555 1_555
H100_2 C169_2 1_555 1_555
H101_2 C169_2 1_555 1_555
O33_2 C116_2 1_555 1_555
C170_2 C115_2 1_555 1_555
H102_2 C170_2 1_555 1_555
H103_2 C170_2 1_555 1_555
H104_2 C170_2 1_555 1_555
O36_2 Mg5_2 1_555 1_555
H105_2 O36_2 1_555 1_555
H106_2 O36_2 1_555 1_555
O37_2 C134_2 1_555 1_555
O38_2 Mg5_2 1_555 1_555
O39_2 Mg4_2 1_555 1_555
O40_2 Mg5_2 1_555 1_555
O41_2 C134_2 1_555 1_555
O42_2 Mg4_2 1_555 1_555
O45_2 Mg4_2 1_555 1_555
O46_2 Mg4_2 1_555 1_555
Mg7_2 O25_2 1_555 1_555
Mg8_2 O24_2 1_555 1_555
C173_2 O47_2 1_555 1_555
C174_2 C227_2 1_555 1_555
H110_2 C178_2 1_555 1_555
C183_2 H114_2 1_555 1_555
C185_2 C183_2 1_555 1_555
H115_2 C185_2 1_555 1_555
C188_2 H118_2 1_555 1_555
C189_2 C188_2 1_555 1_555
H119_2 C189_2 1_555 1_555
C190_2 H120_2 1_555 1_555
C199_2 C212_2 1_555 1_555
C201_2 H127_2 1_555 1_555
C206_2 C185_2 1_555 1_555
C207_2 C201_2 1_555 1_555
H129_2 C207_2 1_555 1_555
C210_2 C206_2 1_555 1_555
C212_2 C190_2 1_555 1_555
C220_2 C183_2 1_555 1_555
C223_2 C209_2 1_555 1_555
H136_2 C223_2 1_555 1_555
C226_2 C214_2 1_555 1_555
C227_2 H137_2 1_555 1_555
O50_2 C174_2 1_555 1_555
C228_2 C173_2 1_555 1_555
H140_2 C228_2 1_555 1_555
H141_2 C228_2 1_555 1_555
H142_2 C228_2 1_555 1_555
O53_2 Mg8_2 1_555 1_555
H143_2 O53_2 1_555 1_555
H144_2 O53_2 1_555 1_555
O55_2 Mg8_2 1_555 1_555
O56_2 Mg7_2 1_555 1_555
O57_2 Mg8_2 1_555 1_555
O59_2 Mg7_2 1_555 1_555
O62_2 Mg7_2 1_555 1_555
O63_2 Mg7_2 1_555 1_555
Mg19_2 O41_2 1_555 1_555
Mg21_2 O7_2 1_555 1_555
O70_2 Mg7_2 1_555 1_555
O71_2 Mg1_2 1_555 1_555
O72_2 Mg4_2 1_555 1_555
O73_2 Mg8_2 1_555 1_555
O74_2 Mg2_2 1_555 1_555
O75_2 Mg5_2 1_555 1_555
Mg2_2 O21_2 1_555 1_555
C4_2 O11_2 1_555 1_555
C7_2 C14_2 1_555 1_555
C9_2 C62_2 1_555 1_555
C20_2 C22_2 1_555 1_555
C21_2 O14_2 1_555 1_555
C21_2 O21_2 1_555 1_555
C25_2 C46_2 1_555 1_555
C26_2 C60_2 1_555 1_555
C31_2 C32_2 1_555 1_555
C31_2 C45_2 1_555 1_555
C38_2 O13_2 1_555 1_555
C38_2 O19_2 1_555 1_555
C40_2 C52_2 1_555 1_555
C47_2 C64_2 1_555 1_555
C49_2 C62_2 1_555 1_555
C50_2 O16_2 1_555 1_555
C50_2 O20_2 1_555 1_555
C60_2 C66_2 1_555 1_555
C63_2 C66_2 1_555 1_555
C80_2 C82_2 1_555 1_555
C83_2 C84_2 1_555 1_555
C83_2 C85_2 1_555 1_555
O23_2 Mg5_2 1_555 1_555
C88_2 C91_2 1_555 1_555
C89_2 C91_2 1_555 1_555
C92_2 C93_2 1_555 1_555
C92_2 C94_2 1_555 1_555
O25_2 Mg8_2 1_555 1_555
C115_2 O39_2 1_555 1_555
C116_2 O38_2 1_555 1_555
C120_2 C164_2 1_555 1_555
C130_2 C148_2 1_555 1_555
C131_2 C162_2 1_555 1_555
C136_2 C166_2 1_555 1_555
C141_2 O40_2 1_555 1_555
C141_2 O45_2 1_555 1_555
C143_2 C154_2 1_555 1_555
C146_2 C155_2 1_555 1_555
C149_2 C166_2 1_555 1_555
C150_2 C158_2 1_555 1_555
C151_2 C164_2 1_555 1_555
C152_2 O42_2 1_555 1_555
C152_2 O46_2 1_555 1_555
C153_2 C155_2 1_555 1_555
C162_2 C168_2 1_555 1_555
C165_2 C168_2 1_555 1_555
C173_2 O56_2 1_555 1_555
C174_2 O55_2 1_555 1_555
C178_2 C222_2 1_555 1_555
C188_2 C206_2 1_555 1_555
C189_2 C220_2 1_555 1_555
C199_2 O57_2 1_555 1_555
C199_2 O62_2 1_555 1_555
C201_2 C212_2 1_555 1_555
C207_2 C224_2 1_555 1_555
C209_2 C222_2 1_555 1_555
C210_2 O59_2 1_555 1_555
C210_2 O63_2 1_555 1_555
C220_2 C226_2 1_555 1_555
C223_2 C226_2 1_555 1_555
Mg17 O2_2 1_555 1_555
C1_2 C30_2 1_555 1_555
C11_2 O5_2 1_555 1_555
C12_2 H7_2 1_555 1_555
C16_2 H9_2 1_555 1_555
C23_2 C16_2 1_555 1_555
H13_2 C23_2 1_555 1_555
C28_2 H18_2 1_555 1_555
C30_2 C12_2 1_555 1_555
C36_2 C12_2 1_555 1_555
H24_2 C36_2 1_555 1_555
C55_2 C23_2 1_555 1_555
C57_2 C42_2 1_555 1_555
H33_2 C57_2 1_555 1_555
O2_2 C1_2 1_555 1_555
O3_2 C1_2 1_555 1_555
O5_2 Mg17 1_555 1_555
O6_2 C11_2 1_555 1_555
C69_2 H44_2 1_555 1_555
C70_2 H45_2 1_555 1_555
C71_2 C69_2 1_555 1_555
H46_2 C71_2 1_555 1_555
C72_2 C70_2 1_555 1_555
H47_2 C72_2 1_555 1_555
C73_2 C11_2 1_555 1_555
C74_2 C71_2 1_555 1_555
C75_2 H48_2 1_555 1_555
C76_2 C74_2 1_555 1_555
C95_2 O26_2 1_555 1_555
O26_2 Mg19 1_555 1_555
O27_2 C95_2 1_555 1_555
C96_2 H59_2 1_555 1_555
C97_2 H60_2 1_555 1_555
C98_2 C96_2 1_555 1_555
H61_2 C98_2 1_555 1_555
C99_2 C97_2 1_555 1_555
H62_2 C99_2 1_555 1_555
C100_2 C95_2 1_555 1_555
C101_2 C98_2 1_555 1_555
C102_2 H63_2 1_555 1_555
C103_2 C75_2 1_555 1_555
C104_2 O28_2 1_555 1_555
O28_2 Mg21 1_555 1_555
O29_2 C104_2 1_555 1_555
C105_2 H64_2 1_555 1_555
C106_2 H65_2 1_555 1_555
C107_2 C105_2 1_555 1_555
H66_2 C107_2 1_555 1_555
C108_2 C106_2 1_555 1_555
H67_2 C108_2 1_555 1_555
C109_2 C104_2 1_555 1_555
C110_2 C107_2 1_555 1_555
C111_2 C76_2 1_555 1_555
H68_2 C111_2 1_555 1_555
C112_2 C102_2 1_555 1_555
Mg19 O31_2 1_555 1_555
C113_2 C135_2 1_555 1_555
C121_2 H73_2 1_555 1_555
C124_2 H75_2 1_555 1_555
C128_2 C124_2 1_555 1_555
H78_2 C128_2 1_555 1_555
C133_2 H83_2 1_555 1_555
C135_2 C121_2 1_555 1_555
C137_2 H85_2 1_555 1_555
C138_2 C133_2 1_555 1_555
H86_2 C138_2 1_555 1_555
C139_2 C121_2 1_555 1_555
H87_2 C139_2 1_555 1_555
C140_2 C137_2 1_555 1_555
H88_2 C140_2 1_555 1_555
C157_2 C128_2 1_555 1_555
C159_2 C145_2 1_555 1_555
H96_2 C159_2 1_555 1_555
C160_2 C138_2 1_555 1_555
C161_2 C167_2 1_555 1_555
C167_2 C133_2 1_555 1_555
O31_2 C113_2 1_555 1_555
O32_2 C113_2 1_555 1_555
O71 C161_2 1_555 1_555
O74 C161_2 1_555 1_555
Mg21 O48_2 1_555 1_555
C171_2 C193_2 1_555 1_555
C179_2 H111_2 1_555 1_555
C182_2 H113_2 1_555 1_555
C186_2 C182_2 1_555 1_555
H116_2 C186_2 1_555 1_555
C191_2 H121_2 1_555 1_555
C193_2 C179_2 1_555 1_555
C197_2 C179_2 1_555 1_555
H125_2 C197_2 1_555 1_555
C215_2 C186_2 1_555 1_555
C217_2 C203_2 1_555 1_555
H134_2 C217_2 1_555 1_555
O48_2 C171_2 1_555 1_555
O49_2 C171_2 1_555 1_555
C16_2 C30_2 1_555 1_555
C36_2 C55_2 1_555 1_555
C42_2 C55_2 1_555 1_555
C69_2 C73_2 1_555 1_555
C70_2 C73_2 1_555 1_555
C72_2 C74_2 1_555 1_555
C75_2 C76_2 1_555 1_555
C96_2 C100_2 1_555 1_555
C97_2 C100_2 1_555 1_555
C99_2 C101_2 1_555 1_555
C101_2 C103_2 1_555 1_555
C102_2 C103_2 1_555 1_555
C105_2 C109_2 1_555 1_555
C106_2 C109_2 1_555 1_555
C108_2 C110_2 1_555 1_555
C110_2 C112_2 1_555 1_555
C111_2 C112_2 1_555 1_555
C124_2 C135_2 1_555 1_555
C137_2 C167_2 1_555 1_555
C139_2 C157_2 1_555 1_555
C140_2 C160_2 1_555 1_555
C145_2 C157_2 1_555 1_555
C147_2 C160_2 1_555 1_555
C182_2 C193_2 1_555 1_555
C197_2 C215_2 1_555 1_555
C203_2 C215_2 1_555 1_555
C117_2 H69_2 1_555 1_555
C118_2 H70_2 1_555 1_555
C119_2 C118_2 1_555 1_555
H71_2 C119_2 1_555 1_555
C122_2 C117_2 1_555 1_555
C126_2 C122_2 1_555 1_555
O34_2 C126_2 1_555 1_555
O35_2 C126_2 1_555 1_555
C172_2 C202_2 1_555 1_555
C181_2 H112_2 1_555 1_555
C187_2 C181_2 1_555 1_555
H117_2 C187_2 1_555 1_555
C192_2 C200_2 1_555 1_555
H122_2 C194_2 1_555 1_555
C200_2 C187_2 1_555 1_555
C202_2 H128_2 1_555 1_555
C204_2 C181_2 1_555 1_555
C208_2 C204_2 1_555 1_555
H130_2 C208_2 1_555 1_555
C213_2 C202_2 1_555 1_555
C216_2 C200_2 1_555 1_555
H133_2 C216_2 1_555 1_555
C221_2 C172_2 1_555 1_555
O54_2 C192_2 1_555 1_555
O58_2 C192_2 1_555 1_555
Mg17_2 O34_2 1_555 1_555
Mg21_2 O58_2 1_555 1_555
C118_2 C122_2 1_555 1_555
C204_2 C213_2 1_555 1_555
C208_2 C216_2 1_555 1_555
C211_2 C213_2 1_555 1_555
C195_2 H123_2 1_555 1_555
C198_2 C195_2 1_555 1_555
H126_2 C198_2 1_555 1_555
C218_2 C196_2 1_555 1_555
C219_2 C225_2 1_555 1_555
O72 C219_2 1_555 1_555
C195_2 C225_2 1_555 1_555
C198_2 C218_2 1_555 1_555
C205_2 C218_2 1_555 1_555
C2_3 C41_3 1_555 1_555
C6_3 H2_3 1_555 1_555
C14_3 C6_3 1_555 1_555
C15_3 H8_3 1_555 1_555
C18_3 C14_3 1_555 1_555
C24_3 C15_3 1_555 1_555
H14_3 C24_3 1_555 1_555
C28_3 H18_3 1_555 1_555
C29_3 C39_3 1_555 1_555
C34_3 H22_3 1_555 1_555
C35_3 C28_3 1_555 1_555
H23_3 C35_3 1_555 1_555
C37_3 C34_3 1_555 1_555
H25_3 C37_3 1_555 1_555
C39_3 C24_3 1_555 1_555
C41_3 H27_3 1_555 1_555
C43_3 C15_3 1_555 1_555
C44_3 C51_3 1_555 1_555
H28_3 C47_3 1_555 1_555
C48_3 C43_3 1_555 1_555
H29_3 C48_3 1_555 1_555
C51_3 H30_3 1_555 1_555
C53_3 C41_3 1_555 1_555
C56_3 C39_3 1_555 1_555
H32_3 C56_3 1_555 1_555
C58_3 C35_3 1_555 1_555
C59_3 C65_3 1_555 1_555
C61_3 C2_3 1_555 1_555
H34_3 C61_3 1_555 1_555
C64_3 C2_3 1_555 1_555
C65_3 C28_3 1_555 1_555
O64 C18_3 1_555 1_555
O8_3 C18_3 1_555 1_555
O10_3 C29_3 1_555 1_555
O67 C29_3 1_555 1_555
O70_2 C59_3 1_555 1_555
O73_2 C59_3 1_555 1_555
C34_3 C65_3 1_555 1_555
C37_3 C58_3 1_555 1_555
C43_3 C53_3 1_555 1_555
C44_3 C58_3 1_555 1_555
C44_3 C61_3 1_555 1_555
C47_3 C64_3 1_555 1_555
C48_3 C56_3 1_555 1_555
C51_3 C53_3 1_555 1_555
Mg10 O12_3 1_555 1_555
Mg13 O9_3 1_555 1_555
Mg17_2 O2_3 1_555 1_555
C1_3 C30_3 1_555 1_555
C3_3 O1_3 1_555 1_555
C4_3 C67_3 1_555 1_555
C5_3 H1_3 1_555 1_555
C7_3 H3_3 1_555 1_555
C8_3 C7_3 1_555 1_555
H4_3 C8_3 1_555 1_555
H5_3 C9_3 1_555 1_555
C10_3 C5_3 1_555 1_555
H6_3 C10_3 1_555 1_555
C11_3 O5_3 1_555 1_555
C12_3 H7_3 1_555 1_555
C13_3 C5_3 1_555 1_555
C16_3 H9_3 1_555 1_555
C17_3 H10_3 1_555 1_555
C19_3 C17_3 1_555 1_555
H11_3 C19_3 1_555 1_555
C20_3 H12_3 1_555 1_555
C21_3 C45_3 1_555 1_555
C22_3 C13_3 1_555 1_555
C23_3 C16_3 1_555 1_555
H13_3 C23_3 1_555 1_555
C25_3 H15_3 1_555 1_555
C26_3 C25_3 1_555 1_555
H16_3 C26_3 1_555 1_555
C27_3 H17_3 1_555 1_555
C30_3 C12_3 1_555 1_555
C31_3 H19_3 1_555 1_555
C32_3 C13_3 1_555 1_555
H20_3 C32_3 1_555 1_555
C33_3 C27_3 1_555 1_555
H21_3 C33_3 1_555 1_555
C36_3 C12_3 1_555 1_555
H24_3 C36_3 1_555 1_555
C38_3 C52_3 1_555 1_555
C40_3 H26_3 1_555 1_555
C42_3 C54_3 1_555 1_555
C45_3 C10_3 1_555 1_555
C46_3 C19_3 1_555 1_555
C49_3 C57_3 1_555 1_555
C50_3 C46_3 1_555 1_555
C52_3 C27_3 1_555 1_555
C54_3 H31_3 1_555 1_555
C55_3 C23_3 1_555 1_555
C57_3 C42_3 1_555 1_555
H33_3 C57_3 1_555 1_555
C60_3 C17_3 1_555 1_555
C62_3 C8_3 1_555 1_555
C63_3 C49_3 1_555 1_555
H35_3 C63_3 1_555 1_555
C66_3 C54_3 1_555 1_555
C67_3 H36_3 1_555 1_555
H37_3 C67_3 1_555 1_555
H38_3 C67_3 1_555 1_555
O2_3 C1_3 1_555 1_555
O3_3 C1_3 1_555 1_555
O4_3 C4_3 1_555 1_555
C68_3 C3_3 1_555 1_555
H39_3 C68_3 1_555 1_555
H40_3 C68_3 1_555 1_555
H41_3 C68_3 1_555 1_555
O5_3 Mg17_2 1_555 1_555
O6_3 C11_3 1_555 1_555
O9_3 H42_3 1_555 1_555
H43_3 O9_3 1_555 1_555
O11_3 Mg13 1_555 1_555
O12_3 C3_3 1_555 1_555
O13_3 Mg13 1_555 1_555
O14_3 Mg13 1_555 1_555
O16_3 Mg10 1_555 1_555
O19_3 Mg10 1_555 1_555
O20_3 Mg10 1_555 1_555
O21_3 Mg10 1_555 1_555
C69_3 H44_3 1_555 1_555
C70_3 H45_3 1_555 1_555
C71_3 C69_3 1_555 1_555
H46_3 C71_3 1_555 1_555
C72_3 C70_3 1_555 1_555
H47_3 C72_3 1_555 1_555
C73_3 C11_3 1_555 1_555
C74_3 C71_3 1_555 1_555
C75_3 H48_3 1_555 1_555
C76_3 C74_3 1_555 1_555
C77_3 H49_3 1_555 1_555
C78_3 C77_3 1_555 1_555
H50_3 C78_3 1_555 1_555
C79_3 C77_3 1_555 1_555
C80_3 C22_3 1_555 1_555
H51_3 C80_3 1_555 1_555
C81_3 C85_3 1_555 1_555
C82_3 C79_3 1_555 1_555
C83_3 H52_3 1_555 1_555
C84_3 C79_3 1_555 1_555
H53_3 C84_3 1_555 1_555
C85_3 C78_3 1_555 1_555
O22_3 C81_3 1_555 1_555
O23_3 C81_3 1_555 1_555
C86_3 H54_3 1_555 1_555
C87_3 C86_3 1_555 1_555
H55_3 C87_3 1_555 1_555
C88_3 C86_3 1_555 1_555
C89_3 C82_3 1_555 1_555
H56_3 C89_3 1_555 1_555
C90_3 C94_3 1_555 1_555
C91_3 C20_3 1_555 1_555
C92_3 H57_3 1_555 1_555
C93_3 C88_3 1_555 1_555
H58_3 C93_3 1_555 1_555
C94_3 C87_3 1_555 1_555
O24_3 C90_3 1_555 1_555
O25_3 C90_3 1_555 1_555
C95_3 O26_3 1_555 1_555
O26_3 Mg19_2 1_555 1_555
O27_3 C95_3 1_555 1_555
C96_3 H59_3 1_555 1_555
C97_3 H60_3 1_555 1_555
C98_3 C96_3 1_555 1_555
H61_3 C98_3 1_555 1_555
C99_3 C97_3 1_555 1_555
H62_3 C99_3 1_555 1_555
C100_3 C95_3 1_555 1_555
C101_3 C98_3 1_555 1_555
C102_3 H63_3 1_555 1_555
C103_3 C75_3 1_555 1_555
C104_3 O28_3 1_555 1_555
O28_3 Mg21_2 1_555 1_555
O29_3 C104_3 1_555 1_555
C105_3 H64_3 1_555 1_555
C106_3 H65_3 1_555 1_555
C107_3 C105_3 1_555 1_555
H66_3 C107_3 1_555 1_555
C108_3 C106_3 1_555 1_555
H67_3 C108_3 1_555 1_555
C109_3 C104_3 1_555 1_555
C110_3 C107_3 1_555 1_555
C111_3 C76_3 1_555 1_555
H68_3 C111_3 1_555 1_555
C112_3 C102_3 1_555 1_555
Mg11 O23_3 1_555 1_555
Mg14 O22_3 1_555 1_555
Mg19_2 O31_3 1_555 1_555
C113_3 C135_3 1_555 1_555
C115_3 O30_3 1_555 1_555
C116_3 C169_3 1_555 1_555
C118_3 H70_3 1_555 1_555
C119_3 C118_3 1_555 1_555
H71_3 C119_3 1_555 1_555
H72_3 C120_3 1_555 1_555
C121_3 H73_3 1_555 1_555
C124_3 H75_3 1_555 1_555
C125_3 H76_3 1_555 1_555
C127_3 C125_3 1_555 1_555
H77_3 C127_3 1_555 1_555
C128_3 C124_3 1_555 1_555
H78_3 C128_3 1_555 1_555
C130_3 H80_3 1_555 1_555
C131_3 C130_3 1_555 1_555
H81_3 C131_3 1_555 1_555
C132_3 H82_3 1_555 1_555
C135_3 C121_3 1_555 1_555
C136_3 C132_3 1_555 1_555
H84_3 C136_3 1_555 1_555
C139_3 C121_3 1_555 1_555
H87_3 C139_3 1_555 1_555
C141_3 C154_3 1_555 1_555
C143_3 H89_3 1_555 1_555
C145_3 C156_3 1_555 1_555
C148_3 C127_3 1_555 1_555
C151_3 C159_3 1_555 1_555
C152_3 C148_3 1_555 1_555
C154_3 C132_3 1_555 1_555
C156_3 H94_3 1_555 1_555
C157_3 C128_3 1_555 1_555
C159_3 C145_3 1_555 1_555
H96_3 C159_3 1_555 1_555
C162_3 C125_3 1_555 1_555
C164_3 C119_3 1_555 1_555
C165_3 C151_3 1_555 1_555
H98_3 C165_3 1_555 1_555
C168_3 C156_3 1_555 1_555
C169_3 H99_3 1_555 1_555
H100_3 C169_3 1_555 1_555
H101_3 C169_3 1_555 1_555
O31_3 C113_3 1_555 1_555
O32_3 C113_3 1_555 1_555
O33_3 C116_3 1_555 1_555
C170_3 C115_3 1_555 1_555
H102_3 C170_3 1_555 1_555
H103_3 C170_3 1_555 1_555
H104_3 C170_3 1_555 1_555
O36_3 Mg14 1_555 1_555
H105_3 O36_3 1_555 1_555
H106_3 O36_3 1_555 1_555
O38_3 Mg14 1_555 1_555
O39_3 Mg11 1_555 1_555
O40_3 Mg14 1_555 1_555
O42_3 Mg11 1_555 1_555
O45_3 Mg11 1_555 1_555
O46_3 Mg11 1_555 1_555
Mg12 O25_3 1_555 1_555
Mg15 O24_3 1_555 1_555
Mg21_2 O48_3 1_555 1_555
C171_3 C193_3 1_555 1_555
C172_3 C202_3 1_555 1_555
C173_3 O47_3 1_555 1_555
C174_3 C227_3 1_555 1_555
C175_3 H107_3 1_555 1_555
C176_3 H108_3 1_555 1_555
C177_3 C176_3 1_555 1_555
H109_3 C177_3 1_555 1_555
C178_3 C175_3 1_555 1_555
H110_3 C178_3 1_555 1_555
C179_3 H111_3 1_555 1_555
C180_3 C175_3 1_555 1_555
C181_3 H112_3 1_555 1_555
C182_3 H113_3 1_555 1_555
C183_3 H114_3 1_555 1_555
C184_3 C180_3 1_555 1_555
C185_3 C183_3 1_555 1_555
H115_3 C185_3 1_555 1_555
C186_3 C182_3 1_555 1_555
H116_3 C186_3 1_555 1_555
C187_3 C181_3 1_555 1_555
H117_3 C187_3 1_555 1_555
C188_3 H118_3 1_555 1_555
C189_3 C188_3 1_555 1_555
H119_3 C189_3 1_555 1_555
C190_3 H120_3 1_555 1_555
C191_3 H121_3 1_555 1_555
C192_3 C200_3 1_555 1_555
C193_3 C179_3 1_555 1_555
C194_3 C190_3 1_555 1_555
H122_3 C194_3 1_555 1_555
C195_3 H123_3 1_555 1_555
C196_3 C191_3 1_555 1_555
H124_3 C196_3 1_555 1_555
C197_3 C179_3 1_555 1_555
H125_3 C197_3 1_555 1_555
C198_3 C195_3 1_555 1_555
H126_3 C198_3 1_555 1_555
C199_3 C212_3 1_555 1_555
C200_3 C187_3 1_555 1_555
C201_3 H127_3 1_555 1_555
C202_3 H128_3 1_555 1_555
C203_3 C214_3 1_555 1_555
C204_3 C181_3 1_555 1_555
C205_3 C211_3 1_555 1_555
C206_3 C185_3 1_555 1_555
C207_3 C201_3 1_555 1_555
H129_3 C207_3 1_555 1_555
C208_3 C204_3 1_555 1_555
H130_3 C208_3 1_555 1_555
C209_3 C217_3 1_555 1_555
C210_3 C206_3 1_555 1_555
C211_3 H131_3 1_555 1_555
C212_3 C190_3 1_555 1_555
C213_3 C202_3 1_555 1_555
C214_3 H132_3 1_555 1_555
C215_3 C186_3 1_555 1_555
C216_3 C200_3 1_555 1_555
H133_3 C216_3 1_555 1_555
C217_3 C203_3 1_555 1_555
H134_3 C217_3 1_555 1_555
C218_3 C196_3 1_555 1_555
C219_3 C225_3 1_555 1_555
C220_3 C183_3 1_555 1_555
C221_3 C172_3 1_555 1_555
H135_3 C221_3 1_555 1_555
C222_3 C177_3 1_555 1_555
C223_3 C209_3 1_555 1_555
H136_3 C223_3 1_555 1_555
C224_3 C172_3 1_555 1_555
C225_3 C191_3 1_555 1_555
C226_3 C214_3 1_555 1_555
C227_3 H137_3 1_555 1_555
H138_3 C227_3 1_555 1_555
H139_3 C227_3 1_555 1_555
O48_3 C171_3 1_555 1_555
O49_3 C171_3 1_555 1_555
O50_3 C174_3 1_555 1_555
C228_3 C173_3 1_555 1_555
H140_3 C228_3 1_555 1_555
H141_3 C228_3 1_555 1_555
H142_3 C228_3 1_555 1_555
O66 C184_3 1_555 1_555
O52_3 C184_3 1_555 1_555
O53_3 Mg15 1_555 1_555
H143_3 O53_3 1_555 1_555
H144_3 O53_3 1_555 1_555
O54_3 C192_3 1_555 1_555
O55_3 Mg15 1_555 1_555
O56_3 Mg12 1_555 1_555
O57_3 Mg15 1_555 1_555
O69 C192_3 1_555 1_555
O59_3 Mg12 1_555 1_555
O72_2 C219_3 1_555 1_555
O75_2 C219_3 1_555 1_555
O62_3 Mg12 1_555 1_555
O63_3 Mg12 1_555 1_555
Mg13 O21_3 1_555 1_555
C4_3 O11_3 1_555 1_555
C9_3 C62_3 1_555 1_555
C16_3 C30_3 1_555 1_555
C20_3 C22_3 1_555 1_555
C21_3 O14_3 1_555 1_555
C21_3 O21_3 1_555 1_555
C25_3 C46_3 1_555 1_555
C26_3 C60_3 1_555 1_555
C31_3 C32_3 1_555 1_555
C31_3 C45_3 1_555 1_555
C36_3 C55_3 1_555 1_555
C38_3 O13_3 1_555 1_555
C38_3 O19_3 1_555 1_555
C40_3 C52_3 1_555 1_555
C42_3 C55_3 1_555 1_555
C49_3 C62_3 1_555 1_555
C50_3 O16_3 1_555 1_555
C50_3 O20_3 1_555 1_555
C60_3 C66_3 1_555 1_555
C63_3 C66_3 1_555 1_555
C69_3 C73_3 1_555 1_555
C70_3 C73_3 1_555 1_555
C72_3 C74_3 1_555 1_555
C75_3 C76_3 1_555 1_555
C80_3 C82_3 1_555 1_555
C83_3 C84_3 1_555 1_555
C83_3 C85_3 1_555 1_555
O23_3 Mg14 1_555 1_555
C88_3 C91_3 1_555 1_555
C89_3 C91_3 1_555 1_555
C92_3 C93_3 1_555 1_555
C92_3 C94_3 1_555 1_555
O25_3 Mg15 1_555 1_555
C96_3 C100_3 1_555 1_555
C97_3 C100_3 1_555 1_555
C99_3 C101_3 1_555 1_555
C101_3 C103_3 1_555 1_555
C102_3 C103_3 1_555 1_555
C105_3 C109_3 1_555 1_555
C106_3 C109_3 1_555 1_555
C108_3 C110_3 1_555 1_555
C110_3 C112_3 1_555 1_555
C111_3 C112_3 1_555 1_555
C115_3 O39_3 1_555 1_555
C116_3 O38_3 1_555 1_555
C120_3 C164_3 1_555 1_555
C124_3 C135_3 1_555 1_555
C130_3 C148_3 1_555 1_555
C131_3 C162_3 1_555 1_555
C139_3 C157_3 1_555 1_555
C141_3 O40_3 1_555 1_555
C141_3 O45_3 1_555 1_555
C143_3 C154_3 1_555 1_555
C145_3 C157_3 1_555 1_555
C151_3 C164_3 1_555 1_555
C152_3 O42_3 1_555 1_555
C152_3 O46_3 1_555 1_555
C162_3 C168_3 1_555 1_555
C165_3 C168_3 1_555 1_555
C173_3 O56_3 1_555 1_555
C174_3 O55_3 1_555 1_555
C176_3 C180_3 1_555 1_555
C178_3 C222_3 1_555 1_555
C182_3 C193_3 1_555 1_555
C188_3 C206_3 1_555 1_555
C189_3 C220_3 1_555 1_555
C194_3 C224_3 1_555 1_555
C195_3 C225_3 1_555 1_555
C197_3 C215_3 1_555 1_555
C198_3 C218_3 1_555 1_555
C199_3 O57_3 1_555 1_555
C199_3 O62_3 1_555 1_555
C201_3 C212_3 1_555 1_555
C203_3 C215_3 1_555 1_555
C204_3 C213_3 1_555 1_555
C205_3 C218_3 1_555 1_555
C205_3 C221_3 1_555 1_555
C207_3 C224_3 1_555 1_555
C208_3 C216_3 1_555 1_555
C209_3 C222_3 1_555 1_555
C210_3 O59_3 1_555 1_555
C210_3 O63_3 1_555 1_555
C211_3 C213_3 1_555 1_555
C220_3 C226_3 1_555 1_555
C223_3 C226_3 1_555 1_555
C114_3 C144_3 1_555 1_555
C117_3 H69_3 1_555 1_555
C122_3 C117_3 1_555 1_555
C123_3 H74_3 1_555 1_555
C126_3 C122_3 1_555 1_555
C129_3 C123_3 1_555 1_555
H79_3 C129_3 1_555 1_555
C133_3 H83_3 1_555 1_555
C134_3 C142_3 1_555 1_555
C137_3 H85_3 1_555 1_555
C138_3 C133_3 1_555 1_555
H86_3 C138_3 1_555 1_555
C140_3 C137_3 1_555 1_555
H88_3 C140_3 1_555 1_555
C142_3 C129_3 1_555 1_555
C144_3 H90_3 1_555 1_555
C146_3 C123_3 1_555 1_555
C147_3 C153_3 1_555 1_555
H91_3 C149_3 1_555 1_555
C150_3 C146_3 1_555 1_555
H92_3 C150_3 1_555 1_555
C153_3 H93_3 1_555 1_555
C155_3 C144_3 1_555 1_555
C158_3 C142_3 1_555 1_555
H95_3 C158_3 1_555 1_555
C160_3 C138_3 1_555 1_555
C161_3 C167_3 1_555 1_555
C163_3 C114_3 1_555 1_555
H97_3 C163_3 1_555 1_555
C166_3 C114_3 1_555 1_555
C167_3 C133_3 1_555 1_555
O65 C126_3 1_555 1_555
O35_3 C126_3 1_555 1_555
O37_3 C134_3 1_555 1_555
O68 C134_3 1_555 1_555
O71_2 C161_3 1_555 1_555
O74_2 C161_3 1_555 1_555
C137_3 C167_3 1_555 1_555
C140_3 C160_3 1_555 1_555
C146_3 C155_3 1_555 1_555
C147_3 C160_3 1_555 1_555
C147_3 C163_3 1_555 1_555
C149_3 C166_3 1_555 1_555
C150_3 C158_3 1_555 1_555
C153_3 C155_3 1_555 1_555
C75_4 H48_4 1_555 1_555
C83_4 H52_4 1_555 1_555
H53_4 C84_4 1_555 1_555
C86_4 H54_4 1_555 1_555
C87_4 C86_4 1_555 1_555
H55_4 C87_4 1_555 1_555
C88_4 C86_4 1_555 1_555
H56_4 C89_4 1_555 1_555
C90_4 C94_4 1_555 1_555
C94_4 C87_4 1_555 1_555
O24_4 C90_4 1_555 1_555
O25_4 C90_4 1_555 1_555
C95_4 O26_4 1_555 1_555
O26_4 Mg6_2 1_555 1_555
O27_4 C95_4 1_555 1_555
C96_4 H59_4 1_555 1_555
C97_4 H60_4 1_555 1_555
C98_4 C96_4 1_555 1_555
H61_4 C98_4 1_555 1_555
C99_4 C97_4 1_555 1_555
H62_4 C99_4 1_555 1_555
C100_4 C95_4 1_555 1_555
C101_4 C98_4 1_555 1_555
C103_4 C75_4 1_555 1_555
Mg6_2 O31_4 1_555 1_555
C113_4 C135_4 1_555 1_555
C114_4 C144_4 1_555 1_555
C115_4 O30_4 1_555 1_555
C117_4 H69_4 1_555 1_555
C118_4 H70_4 1_555 1_555
C119_4 C118_4 1_555 1_555
H71_4 C119_4 1_555 1_555
C120_4 C117_4 1_555 1_555
H72_4 C120_4 1_555 1_555
C121_4 H73_4 1_555 1_555
C122_4 C117_4 1_555 1_555
C124_4 H75_4 1_555 1_555
C125_4 H76_4 1_555 1_555
C126_4 C122_4 1_555 1_555
C127_4 C125_4 1_555 1_555
H77_4 C127_4 1_555 1_555
C128_4 C124_4 1_555 1_555
H78_4 C128_4 1_555 1_555
C130_4 H80_4 1_555 1_555
C131_4 C130_4 1_555 1_555
H81_4 C131_4 1_555 1_555
C133_4 H83_4 1_555 1_555
C135_4 C121_4 1_555 1_555
C137_4 H85_4 1_555 1_555
C138_4 C133_4 1_555 1_555
H86_4 C138_4 1_555 1_555
C139_4 C121_4 1_555 1_555
H87_4 C139_4 1_555 1_555
C140_4 C137_4 1_555 1_555
H88_4 C140_4 1_555 1_555
C141_4 C154_4 1_555 1_555
C143_4 H89_4 1_555 1_555
C145_4 C156_4 1_555 1_555
C147_4 C153_4 1_555 1_555
C148_4 C127_4 1_555 1_555
C149_4 C143_4 1_555 1_555
H91_4 C149_4 1_555 1_555
C151_4 C159_4 1_555 1_555
C152_4 C148_4 1_555 1_555
C153_4 H93_4 1_555 1_555
C155_4 C144_4 1_555 1_555
C156_4 H94_4 1_555 1_555
C157_4 C128_4 1_555 1_555
C159_4 C145_4 1_555 1_555
H96_4 C159_4 1_555 1_555
C160_4 C138_4 1_555 1_555
C161_4 C167_4 1_555 1_555
C162_4 C125_4 1_555 1_555
C163_4 C114_4 1_555 1_555
H97_4 C163_4 1_555 1_555
C164_4 C119_4 1_555 1_555
C165_4 C151_4 1_555 1_555
H98_4 C165_4 1_555 1_555
C166_4 C114_4 1_555 1_555
C167_4 C133_4 1_555 1_555
C168_4 C156_4 1_555 1_555
O31_4 C113_4 1_555 1_555
O32_4 C113_4 1_555 1_555
C170_4 C115_4 1_555 1_555
H102_4 C170_4 1_555 1_555
H103_4 C170_4 1_555 1_555
H104_4 C170_4 1_555 1_555
O34_3 C126_4 1_555 1_555
O35_4 C126_4 1_555 1_555
O39_4 Mg4_3 1_555 1_555
O42_4 Mg4_3 1_555 1_555
O43_2 C161_4 1_555 1_555
O44_2 C161_4 1_555 1_555
O45_4 Mg4_3 1_555 1_555
O46_4 Mg4_3 1_555 1_555
Mg8_3 O24_4 1_555 1_555
C174_4 C227_4 1_555 1_555
C187_4 C181_4 1_555 1_555
H117_4 C187_4 1_555 1_555
C190_4 H120_4 1_555 1_555
C192_4 C200_4 1_555 1_555
C194_4 C190_4 1_555 1_555
H122_4 C194_4 1_555 1_555
C200_4 C187_4 1_555 1_555
C204_4 C181_4 1_555 1_555
C208_4 C204_4 1_555 1_555
H130_4 C208_4 1_555 1_555
C216_4 C200_4 1_555 1_555
H133_4 C216_4 1_555 1_555
C227_4 H137_4 1_555 1_555
H138_4 C227_4 1_555 1_555
H139_4 C227_4 1_555 1_555
O50_4 C174_4 1_555 1_555
O53_4 Mg8_3 1_555 1_555
H143_4 O53_4 1_555 1_555
H144_4 O53_4 1_555 1_555
O54_4 C192_4 1_555 1_555
O55_4 Mg8_3 1_555 1_555
O57_4 Mg8_3 1_555 1_555
O58_3 C192_4 1_555 1_555
Mg10_2 O43_2 1_555 1_555
Mg13_2 O44_2 1_555 1_555
Mg16 O34_3 1_555 1_555
Mg20 O58_3 1_555 1_555
O66_2 Mg6_2 1_555 1_555
O68_2 Mg6_2 1_555 1_555
O72_3 Mg4_3 1_555 1_555
O73_3 Mg8_3 1_555 1_555
C83_4 C84_4 1_555 1_555
C88_4 C91_4 1_555 1_555
C89_4 C91_4 1_555 1_555
O25_4 Mg8_3 1_555 1_555
C96_4 C100_4 1_555 1_555
C97_4 C100_4 1_555 1_555
C99_4 C101_4 1_555 1_555
C101_4 C103_4 1_555 1_555
C115_4 O39_4 1_555 1_555
C118_4 C122_4 1_555 1_555
C120_4 C164_4 1_555 1_555
C124_4 C135_4 1_555 1_555
C130_4 C148_4 1_555 1_555
C131_4 C162_4 1_555 1_555
C137_4 C167_4 1_555 1_555
C139_4 C157_4 1_555 1_555
C140_4 C160_4 1_555 1_555
C141_4 O45_4 1_555 1_555
C143_4 C154_4 1_555 1_555
C145_4 C157_4 1_555 1_555
C147_4 C160_4 1_555 1_555
C147_4 C163_4 1_555 1_555
C149_4 C166_4 1_555 1_555
C151_4 C164_4 1_555 1_555
C152_4 O42_4 1_555 1_555
C152_4 O46_4 1_555 1_555
C153_4 C155_4 1_555 1_555
C162_4 C168_4 1_555 1_555
C165_4 C168_4 1_555 1_555
C174_4 O55_4 1_555 1_555
C208_4 C216_4 1_555 1_555
Mg3_2 O2_4 1_555 1_555
C1_4 C30_4 1_555 1_555
C6_4 H2_4 1_555 1_555
C7_4 H3_4 1_555 1_555
C8_4 C7_4 1_555 1_555
H4_4 C8_4 1_555 1_555
C11_4 O5_4 1_555 1_555
C14_4 C6_4 1_555 1_555
C16_4 H9_4 1_555 1_555
C18_4 C14_4 1_555 1_555
C23_4 C16_4 1_555 1_555
H13_4 C23_4 1_555 1_555
H33_4 C57_4 1_555 1_555
C62_4 C8_4 1_555 1_555
O2_4 C1_4 1_555 1_555
O3_4 C1_4 1_555 1_555
O5_4 Mg3_2 1_555 1_555
O6_4 C11_4 1_555 1_555
O7_3 C18_4 1_555 1_555
O8_4 C18_4 1_555 1_555
C70_4 H45_4 1_555 1_555
C72_4 C70_4 1_555 1_555
H47_4 C72_4 1_555 1_555
C73_4 C11_4 1_555 1_555
C76_4 C74_4 1_555 1_555
C77_4 H49_4 1_555 1_555
C78_4 C77_4 1_555 1_555
H50_4 C78_4 1_555 1_555
C79_4 C77_4 1_555 1_555
C81_4 C85_4 1_555 1_555
C82_4 C79_4 1_555 1_555
C85_4 C78_4 1_555 1_555
O22_4 C81_4 1_555 1_555
O23_4 C81_4 1_555 1_555
Mg5_3 O22_4 1_555 1_555
C116_4 C169_4 1_555 1_555
C129_4 C123_4 1_555 1_555
H79_4 C129_4 1_555 1_555
C132_4 H82_4 1_555 1_555
C134_4 C142_4 1_555 1_555
C136_4 C132_4 1_555 1_555
H84_4 C136_4 1_555 1_555
C142_4 C129_4 1_555 1_555
C146_4 C123_4 1_555 1_555
C150_4 C146_4 1_555 1_555
H92_4 C150_4 1_555 1_555
C158_4 C142_4 1_555 1_555
H95_4 C158_4 1_555 1_555
C169_4 H99_4 1_555 1_555
H100_4 C169_4 1_555 1_555
H101_4 C169_4 1_555 1_555
O33_4 C116_4 1_555 1_555
O36_4 Mg5_3 1_555 1_555
H105_4 O36_4 1_555 1_555
H106_4 O36_4 1_555 1_555
O37_4 C134_4 1_555 1_555
O38_4 Mg5_3 1_555 1_555
O40_4 Mg5_3 1_555 1_555
O41_3 C134_4 1_555 1_555
Mg18 O41_3 1_555 1_555
Mg20 O7_3 1_555 1_555
O65_2 Mg3_2 1_555 1_555
O67_2 Mg3_2 1_555 1_555
O75_3 Mg5_3 1_555 1_555
C7_4 C14_4 1_555 1_555
C16_4 C30_4 1_555 1_555
C70_4 C73_4 1_555 1_555
C72_4 C74_4 1_555 1_555
O23_4 Mg5_3 1_555 1_555
C116_4 O38_4 1_555 1_555
C150_4 C158_4 1_555 1_555
C20_4 H12_4 1_555 1_555
C92_4 H57_4 1_555 1_555
H58_4 C93_4 1_555 1_555
C102_4 H63_4 1_555 1_555
C105_4 H64_4 1_555 1_555
C107_4 C105_4 1_555 1_555
H66_4 C107_4 1_555 1_555
C172_4 C202_4 1_555 1_555
C173_4 O47_4 1_555 1_555
H110_4 C178_4 1_555 1_555
C179_4 H111_4 1_555 1_555
C183_4 H114_4 1_555 1_555
C185_4 C183_4 1_555 1_555
H115_4 C185_4 1_555 1_555
C188_4 H118_4 1_555 1_555
C189_4 C188_4 1_555 1_555
H119_4 C189_4 1_555 1_555
C191_4 H121_4 1_555 1_555
C195_4 H123_4 1_555 1_555
C196_4 C191_4 1_555 1_555
H124_4 C196_4 1_555 1_555
C197_4 C179_4 1_555 1_555
H125_4 C197_4 1_555 1_555
C198_4 C195_4 1_555 1_555
H126_4 C198_4 1_555 1_555
C199_4 C212_4 1_555 1_555
C201_4 H127_4 1_555 1_555
C203_4 C214_4 1_555 1_555
C205_4 C211_4 1_555 1_555
C206_4 C185_4 1_555 1_555
C207_4 C201_4 1_555 1_555
H129_4 C207_4 1_555 1_555
C210_4 C206_4 1_555 1_555
C211_4 H131_4 1_555 1_555
C213_4 C202_4 1_555 1_555
C214_4 H132_4 1_555 1_555
C218_4 C196_4 1_555 1_555
C219_4 C225_4 1_555 1_555
C220_4 C183_4 1_555 1_555
C221_4 C172_4 1_555 1_555
H135_4 C221_4 1_555 1_555
C223_4 C209_4 1_555 1_555
H136_4 C223_4 1_555 1_555
C224_4 C172_4 1_555 1_555
C225_4 C191_4 1_555 1_555
C226_4 C214_4 1_555 1_555
C228_4 C173_4 1_555 1_555
H140_4 C228_4 1_555 1_555
H141_4 C228_4 1_555 1_555
H142_4 C228_4 1_555 1_555
O56_4 Mg7_3 1_555 1_555
O59_4 Mg7_3 1_555 1_555
O60_2 C219_4 1_555 1_555
O61_2 C219_4 1_555 1_555
O62_4 Mg7_3 1_555 1_555
O63_4 Mg7_3 1_555 1_555
Mg11_2 O60_2 1_555 1_555
Mg14_2 O61_2 1_555 1_555
O70_3 Mg7_3 1_555 1_555
C92_4 C93_4 1_555 1_555
C173_4 O56_4 1_555 1_555
C188_4 C206_4 1_555 1_555
C189_4 C220_4 1_555 1_555
C195_4 C225_4 1_555 1_555
C197_4 C215_4 1_555 1_555
C198_4 C218_4 1_555 1_555
C199_4 O62_4 1_555 1_555
C201_4 C212_4 1_555 1_555
C203_4 C215_4 1_555 1_555
C205_4 C218_4 1_555 1_555
C205_4 C221_4 1_555 1_555
C207_4 C224_4 1_555 1_555
C210_4 O59_4 1_555 1_555
C210_4 O63_4 1_555 1_555
C211_4 C213_4 1_555 1_555
C220_4 C226_4 1_555 1_555
C223_4 C226_4 1_555 1_555
Mg1_3 O12_4 1_555 1_555
Mg2_3 O9_4 1_555 1_555
C2_4 C41_4 1_555 1_555
C3_4 O1_4 1_555 1_555
C4_4 C67_4 1_555 1_555
C5_4 H1_4 1_555 1_555
H5_4 C9_4 1_555 1_555
C10_4 C5_4 1_555 1_555
H6_4 C10_4 1_555 1_555
C12_4 H7_4 1_555 1_555
C13_4 C5_4 1_555 1_555
C15_4 H8_4 1_555 1_555
C17_4 H10_4 1_555 1_555
C19_4 C17_4 1_555 1_555
H11_4 C19_4 1_555 1_555
C21_4 C45_4 1_555 1_555
C22_4 C13_4 1_555 1_555
C24_4 C15_4 1_555 1_555
H14_4 C24_4 1_555 1_555
C25_4 H15_4 1_555 1_555
C26_4 C25_4 1_555 1_555
H16_4 C26_4 1_555 1_555
C27_4 H17_4 1_555 1_555
C28_4 H18_4 1_555 1_555
C29_4 C39_4 1_555 1_555
C31_4 H19_4 1_555 1_555
C32_4 C13_4 1_555 1_555
H20_4 C32_4 1_555 1_555
C33_4 C27_4 1_555 1_555
H21_4 C33_4 1_555 1_555
C34_4 H22_4 1_555 1_555
C35_4 C28_4 1_555 1_555
H23_4 C35_4 1_555 1_555
C36_4 C12_4 1_555 1_555
H24_4 C36_4 1_555 1_555
C37_4 C34_4 1_555 1_555
H25_4 C37_4 1_555 1_555
C38_4 C52_4 1_555 1_555
C39_4 C24_4 1_555 1_555
C40_4 H26_4 1_555 1_555
C41_4 H27_4 1_555 1_555
C42_4 C54_4 1_555 1_555
C43_4 C15_4 1_555 1_555
C44_4 C51_4 1_555 1_555
C45_4 C10_4 1_555 1_555
C46_4 C19_4 1_555 1_555
C47_4 C40_4 1_555 1_555
H28_4 C47_4 1_555 1_555
C48_4 C43_4 1_555 1_555
H29_4 C48_4 1_555 1_555
C50_4 C46_4 1_555 1_555
C51_4 H30_4 1_555 1_555
C52_4 C27_4 1_555 1_555
C53_4 C41_4 1_555 1_555
C54_4 H31_4 1_555 1_555
C56_4 C39_4 1_555 1_555
H32_4 C56_4 1_555 1_555
C58_4 C35_4 1_555 1_555
C59_4 C65_4 1_555 1_555
C60_4 C17_4 1_555 1_555
C61_4 C2_4 1_555 1_555
H34_4 C61_4 1_555 1_555
C63_4 C49_4 1_555 1_555
H35_4 C63_4 1_555 1_555
C64_4 C2_4 1_555 1_555
C65_4 C28_4 1_555 1_555
C66_4 C54_4 1_555 1_555
C67_4 H36_4 1_555 1_555
H37_4 C67_4 1_555 1_555
H38_4 C67_4 1_555 1_555
O4_4 C4_4 1_555 1_555
C68_4 C3_4 1_555 1_555
H39_4 C68_4 1_555 1_555
H40_4 C68_4 1_555 1_555
H41_4 C68_4 1_555 1_555
O9_4 H42_4 1_555 1_555
H43_4 O9_4 1_555 1_555
O10_4 C29_4 1_555 1_555
O11_4 Mg2_3 1_555 1_555
O12_4 C3_4 1_555 1_555
O13_4 Mg2_3 1_555 1_555
O14_4 Mg2_3 1_555 1_555
O15_3 C29_4 1_555 1_555
O16_4 Mg1_3 1_555 1_555
O17_2 C59_4 1_555 1_555
O18_2 C59_4 1_555 1_555
O19_4 Mg1_3 1_555 1_555
O20_4 Mg1_3 1_555 1_555
O21_4 Mg1_3 1_555 1_555
C69_4 H44_4 1_555 1_555
C71_4 C69_4 1_555 1_555
H46_4 C71_4 1_555 1_555
C80_4 C22_4 1_555 1_555
H51_4 C80_4 1_555 1_555
C104_4 O28_4 1_555 1_555
O28_4 Mg9_2 1_555 1_555
O29_4 C104_4 1_555 1_555
C106_4 H65_4 1_555 1_555
C108_4 C106_4 1_555 1_555
H67_4 C108_4 1_555 1_555
C109_4 C104_4 1_555 1_555
H68_4 C111_4 1_555 1_555
Mg9_2 O48_4 1_555 1_555
C171_4 C193_4 1_555 1_555
C175_4 H107_4 1_555 1_555
C176_4 H108_4 1_555 1_555
C177_4 C176_4 1_555 1_555
H109_4 C177_4 1_555 1_555
C180_4 C175_4 1_555 1_555
C182_4 H113_4 1_555 1_555
C184_4 C180_4 1_555 1_555
C186_4 C182_4 1_555 1_555
H116_4 C186_4 1_555 1_555
H134_4 C217_4 1_555 1_555
C222_4 C177_4 1_555 1_555
O48_4 C171_4 1_555 1_555
O49_4 C171_4 1_555 1_555
O51_3 C184_4 1_555 1_555
O52_4 C184_4 1_555 1_555
Mg12_2 O17_2 1_555 1_555
Mg15_2 O18_2 1_555 1_555
Mg16 O15_3 1_555 1_555
Mg18 O51_3 1_555 1_555
O64_2 Mg9_2 1_555 1_555
O69_2 Mg9_2 1_555 1_555
O71_3 Mg1_3 1_555 1_555
O74_3 Mg2_3 1_555 1_555
Mg2_3 O21_4 1_555 1_555
C4_4 O11_4 1_555 1_555
C21_4 O14_4 1_555 1_555
C21_4 O21_4 1_555 1_555
C25_4 C46_4 1_555 1_555
C26_4 C60_4 1_555 1_555
C31_4 C32_4 1_555 1_555
C31_4 C45_4 1_555 1_555
C33_4 C64_4 1_555 1_555
C34_4 C65_4 1_555 1_555
C36_4 C55_4 1_555 1_555
C37_4 C58_4 1_555 1_555
C38_4 O13_4 1_555 1_555
C38_4 O19_4 1_555 1_555
C40_4 C52_4 1_555 1_555
C42_4 C55_4 1_555 1_555
C43_4 C53_4 1_555 1_555
C44_4 C58_4 1_555 1_555
C44_4 C61_4 1_555 1_555
C47_4 C64_4 1_555 1_555
C48_4 C56_4 1_555 1_555
C50_4 O16_4 1_555 1_555
C50_4 O20_4 1_555 1_555
C51_4 C53_4 1_555 1_555
C60_4 C66_4 1_555 1_555
C63_4 C66_4 1_555 1_555
C106_4 C109_4 1_555 1_555
C108_4 C110_4 1_555 1_555
C110_4 C112_4 1_555 1_555
C111_4 C112_4 1_555 1_555
C176_4 C180_4 1_555 1_555
C182_4 C193_4 1_555 1_555
C195_5 H123_5 1_555 1_555
C198_5 C195_5 1_555 1_555
H126_5 C198_5 1_555 1_555
C218_5 C196_5 1_555 1_555
C219_5 C225_5 1_555 1_555
O72_3 C219_5 1_555 1_555
C195_5 C225_5 1_555 1_555
C198_5 C218_5 1_555 1_555
C205_5 C218_5 1_555 1_555
C117_5 H69_5 1_555 1_555
C118_5 H70_5 1_555 1_555
C119_5 C118_5 1_555 1_555
H71_5 C119_5 1_555 1_555
C122_5 C117_5 1_555 1_555
C126_5 C122_5 1_555 1_555
O34_4 C126_5 1_555 1_555
O35_5 C126_5 1_555 1_555
C172_5 C202_5 1_555 1_555
C181_5 H112_5 1_555 1_555
C187_5 C181_5 1_555 1_555
H117_5 C187_5 1_555 1_555
C192_5 C200_5 1_555 1_555
H122_5 C194_5 1_555 1_555
C200_5 C187_5 1_555 1_555
C202_5 H128_5 1_555 1_555
C204_5 C181_5 1_555 1_555
C208_5 C204_5 1_555 1_555
H130_5 C208_5 1_555 1_555
C213_5 C202_5 1_555 1_555
C216_5 C200_5 1_555 1_555
H133_5 C216_5 1_555 1_555
C221_5 C172_5 1_555 1_555
O54_5 C192_5 1_555 1_555
O58_4 C192_5 1_555 1_555
Mg16_2 O34_4 1_555 1_555
Mg20_2 O58_4 1_555 1_555
C118_5 C122_5 1_555 1_555
C204_5 C213_5 1_555 1_555
C208_5 C216_5 1_555 1_555
C211_5 C213_5 1_555 1_555
Mg16 O2_5 1_555 1_555
C1_5 C30_5 1_555 1_555
C11_5 O5_5 1_555 1_555
C12_5 H7_5 1_555 1_555
C16_5 H9_5 1_555 1_555
C23_5 C16_5 1_555 1_555
H13_5 C23_5 1_555 1_555
C28_5 H18_5 1_555 1_555
C30_5 C12_5 1_555 1_555
C36_5 C12_5 1_555 1_555
H24_5 C36_5 1_555 1_555
C55_5 C23_5 1_555 1_555
C57_5 C42_5 1_555 1_555
H33_5 C57_5 1_555 1_555
O2_5 C1_5 1_555 1_555
O3_5 C1_5 1_555 1_555
O5_5 Mg16 1_555 1_555
O6_5 C11_5 1_555 1_555
C69_5 H44_5 1_555 1_555
C70_5 H45_5 1_555 1_555
C71_5 C69_5 1_555 1_555
H46_5 C71_5 1_555 1_555
C72_5 C70_5 1_555 1_555
H47_5 C72_5 1_555 1_555
C73_5 C11_5 1_555 1_555
C74_5 C71_5 1_555 1_555
C75_5 H48_5 1_555 1_555
C76_5 C74_5 1_555 1_555
C95_5 O26_5 1_555 1_555
O26_5 Mg18 1_555 1_555
O27_5 C95_5 1_555 1_555
C96_5 H59_5 1_555 1_555
C97_5 H60_5 1_555 1_555
C98_5 C96_5 1_555 1_555
H61_5 C98_5 1_555 1_555
C99_5 C97_5 1_555 1_555
H62_5 C99_5 1_555 1_555
C100_5 C95_5 1_555 1_555
C101_5 C98_5 1_555 1_555
C102_5 H63_5 1_555 1_555
C103_5 C75_5 1_555 1_555
C104_5 O28_5 1_555 1_555
O28_5 Mg20 1_555 1_555
O29_5 C104_5 1_555 1_555
C105_5 H64_5 1_555 1_555
C106_5 H65_5 1_555 1_555
C107_5 C105_5 1_555 1_555
H66_5 C107_5 1_555 1_555
C108_5 C106_5 1_555 1_555
H67_5 C108_5 1_555 1_555
C109_5 C104_5 1_555 1_555
C110_5 C107_5 1_555 1_555
C111_5 C76_5 1_555 1_555
H68_5 C111_5 1_555 1_555
C112_5 C102_5 1_555 1_555
Mg18 O31_5 1_555 1_555
C113_5 C135_5 1_555 1_555
C121_5 H73_5 1_555 1_555
C124_5 H75_5 1_555 1_555
C128_5 C124_5 1_555 1_555
H78_5 C128_5 1_555 1_555
C133_5 H83_5 1_555 1_555
C135_5 C121_5 1_555 1_555
C137_5 H85_5 1_555 1_555
C138_5 C133_5 1_555 1_555
H86_5 C138_5 1_555 1_555
C139_5 C121_5 1_555 1_555
H87_5 C139_5 1_555 1_555
C140_5 C137_5 1_555 1_555
H88_5 C140_5 1_555 1_555
C157_5 C128_5 1_555 1_555
C159_5 C145_5 1_555 1_555
H96_5 C159_5 1_555 1_555
C160_5 C138_5 1_555 1_555
C161_5 C167_5 1_555 1_555
C167_5 C133_5 1_555 1_555
O31_5 C113_5 1_555 1_555
O32_5 C113_5 1_555 1_555
O71_3 C161_5 1_555 1_555
O74_3 C161_5 1_555 1_555
Mg20 O48_5 1_555 1_555
C171_5 C193_5 1_555 1_555
C179_5 H111_5 1_555 1_555
C182_5 H113_5 1_555 1_555
C186_5 C182_5 1_555 1_555
H116_5 C186_5 1_555 1_555
C191_5 H121_5 1_555 1_555
C193_5 C179_5 1_555 1_555
C197_5 C179_5 1_555 1_555
H125_5 C197_5 1_555 1_555
C215_5 C186_5 1_555 1_555
C217_5 C203_5 1_555 1_555
H134_5 C217_5 1_555 1_555
O48_5 C171_5 1_555 1_555
O49_5 C171_5 1_555 1_555
C16_5 C30_5 1_555 1_555
C36_5 C55_5 1_555 1_555
C42_5 C55_5 1_555 1_555
C69_5 C73_5 1_555 1_555
C70_5 C73_5 1_555 1_555
C72_5 C74_5 1_555 1_555
C75_5 C76_5 1_555 1_555
C96_5 C100_5 1_555 1_555
C97_5 C100_5 1_555 1_555
C99_5 C101_5 1_555 1_555
C101_5 C103_5 1_555 1_555
C102_5 C103_5 1_555 1_555
C105_5 C109_5 1_555 1_555
C106_5 C109_5 1_555 1_555
C108_5 C110_5 1_555 1_555
C110_5 C112_5 1_555 1_555
C111_5 C112_5 1_555 1_555
C124_5 C135_5 1_555 1_555
C137_5 C167_5 1_555 1_555
C139_5 C157_5 1_555 1_555
C140_5 C160_5 1_555 1_555
C145_5 C157_5 1_555 1_555
C147_5 C160_5 1_555 1_555
C182_5 C193_5 1_555 1_555
C197_5 C215_5 1_555 1_555
C203_5 C215_5 1_555 1_555
Mg1_4 O12_5 1_555 1_555
Mg2_4 O9_5 1_555 1_555
C3_5 O1_5 1_555 1_555
C4_5 C67_5 1_555 1_555
C5_5 H1_5 1_555 1_555
C6_5 H2_5 1_555 1_555
C7_5 H3_5 1_555 1_555
C8_5 C7_5 1_555 1_555
H4_5 C8_5 1_555 1_555
C9_5 C6_5 1_555 1_555
H5_5 C9_5 1_555 1_555
C10_5 C5_5 1_555 1_555
H6_5 C10_5 1_555 1_555
C13_5 C5_5 1_555 1_555
C14_5 C6_5 1_555 1_555
C17_5 H10_5 1_555 1_555
C18_5 C14_5 1_555 1_555
C19_5 C17_5 1_555 1_555
H11_5 C19_5 1_555 1_555
C20_5 H12_5 1_555 1_555
C21_5 C45_5 1_555 1_555
C22_5 C13_5 1_555 1_555
C25_5 H15_5 1_555 1_555
C26_5 C25_5 1_555 1_555
H16_5 C26_5 1_555 1_555
C27_5 H17_5 1_555 1_555
C31_5 H19_5 1_555 1_555
C32_5 C13_5 1_555 1_555
H20_5 C32_5 1_555 1_555
C38_5 C52_5 1_555 1_555
C40_5 H26_5 1_555 1_555
C45_5 C10_5 1_555 1_555
C46_5 C19_5 1_555 1_555
C47_5 C40_5 1_555 1_555
H28_5 C47_5 1_555 1_555
C50_5 C46_5 1_555 1_555
C52_5 C27_5 1_555 1_555
C60_5 C17_5 1_555 1_555
C62_5 C8_5 1_555 1_555
C63_5 C49_5 1_555 1_555
H35_5 C63_5 1_555 1_555
C66_5 C54_5 1_555 1_555
C67_5 H36_5 1_555 1_555
O4_5 C4_5 1_555 1_555
C68_5 C3_5 1_555 1_555
H39_5 C68_5 1_555 1_555
H40_5 C68_5 1_555 1_555
H41_5 C68_5 1_555 1_555
O7_4 C18_5 1_555 1_555
O8_5 C18_5 1_555 1_555
O9_5 H42_5 1_555 1_555
H43_5 O9_5 1_555 1_555
O11_5 Mg2_4 1_555 1_555
O12_5 C3_5 1_555 1_555
O13_5 Mg2_4 1_555 1_555
O14_5 Mg2_4 1_555 1_555
O16_5 Mg1_4 1_555 1_555
O19_5 Mg1_4 1_555 1_555
O20_5 Mg1_4 1_555 1_555
O21_5 Mg1_4 1_555 1_555
C77_5 H49_5 1_555 1_555
C78_5 C77_5 1_555 1_555
H50_5 C78_5 1_555 1_555
C79_5 C77_5 1_555 1_555
C80_5 C22_5 1_555 1_555
H51_5 C80_5 1_555 1_555
C81_5 C85_5 1_555 1_555
C82_5 C79_5 1_555 1_555
C83_5 H52_5 1_555 1_555
C84_5 C79_5 1_555 1_555
H53_5 C84_5 1_555 1_555
C85_5 C78_5 1_555 1_555
O22_5 C81_5 1_555 1_555
O23_5 C81_5 1_555 1_555
C86_5 H54_5 1_555 1_555
C87_5 C86_5 1_555 1_555
H55_5 C87_5 1_555 1_555
C88_5 C86_5 1_555 1_555
C89_5 C82_5 1_555 1_555
H56_5 C89_5 1_555 1_555
C90_5 C94_5 1_555 1_555
C91_5 C20_5 1_555 1_555
C92_5 H57_5 1_555 1_555
C93_5 C88_5 1_555 1_555
H58_5 C93_5 1_555 1_555
C94_5 C87_5 1_555 1_555
O24_5 C90_5 1_555 1_555
O25_5 C90_5 1_555 1_555
Mg4_4 O23_5 1_555 1_555
Mg5_4 O22_5 1_555 1_555
C114_5 C144_5 1_555 1_555
C115_5 O30_5 1_555 1_555
C116_5 C169_5 1_555 1_555
H72_5 C120_5 1_555 1_555
C123_5 H74_5 1_555 1_555
C125_5 H76_5 1_555 1_555
C127_5 C125_5 1_555 1_555
H77_5 C127_5 1_555 1_555
C129_5 C123_5 1_555 1_555
H79_5 C129_5 1_555 1_555
C130_5 H80_5 1_555 1_555
C131_5 C130_5 1_555 1_555
H81_5 C131_5 1_555 1_555
C132_5 H82_5 1_555 1_555
C134_5 C142_5 1_555 1_555
C136_5 C132_5 1_555 1_555
H84_5 C136_5 1_555 1_555
C141_5 C154_5 1_555 1_555
C142_5 C129_5 1_555 1_555
C143_5 H89_5 1_555 1_555
C144_5 H90_5 1_555 1_555
C146_5 C123_5 1_555 1_555
C148_5 C127_5 1_555 1_555
C149_5 C143_5 1_555 1_555
H91_5 C149_5 1_555 1_555
C150_5 C146_5 1_555 1_555
H92_5 C150_5 1_555 1_555
C152_5 C148_5 1_555 1_555
C154_5 C132_5 1_555 1_555
C155_5 C144_5 1_555 1_555
C158_5 C142_5 1_555 1_555
H95_5 C158_5 1_555 1_555
C162_5 C125_5 1_555 1_555
C163_5 C114_5 1_555 1_555
H97_5 C163_5 1_555 1_555
C165_5 C151_5 1_555 1_555
H98_5 C165_5 1_555 1_555
C166_5 C114_5 1_555 1_555
C168_5 C156_5 1_555 1_555
C169_5 H99_5 1_555 1_555
H100_5 C169_5 1_555 1_555
H101_5 C169_5 1_555 1_555
O33_5 C116_5 1_555 1_555
C170_5 C115_5 1_555 1_555
H102_5 C170_5 1_555 1_555
H103_5 C170_5 1_555 1_555
H104_5 C170_5 1_555 1_555
O36_5 Mg5_4 1_555 1_555
H105_5 O36_5 1_555 1_555
H106_5 O36_5 1_555 1_555
O37_5 C134_5 1_555 1_555
O38_5 Mg5_4 1_555 1_555
O39_5 Mg4_4 1_555 1_555
O40_5 Mg5_4 1_555 1_555
O41_4 C134_5 1_555 1_555
O42_5 Mg4_4 1_555 1_555
O45_5 Mg4_4 1_555 1_555
O46_5 Mg4_4 1_555 1_555
Mg7_4 O25_5 1_555 1_555
Mg8_4 O24_5 1_555 1_555
C173_5 O47_5 1_555 1_555
C174_5 C227_5 1_555 1_555
H110_5 C178_5 1_555 1_555
C183_5 H114_5 1_555 1_555
C185_5 C183_5 1_555 1_555
H115_5 C185_5 1_555 1_555
C188_5 H118_5 1_555 1_555
C189_5 C188_5 1_555 1_555
H119_5 C189_5 1_555 1_555
C190_5 H120_5 1_555 1_555
C199_5 C212_5 1_555 1_555
C201_5 H127_5 1_555 1_555
C206_5 C185_5 1_555 1_555
C207_5 C201_5 1_555 1_555
H129_5 C207_5 1_555 1_555
C210_5 C206_5 1_555 1_555
C212_5 C190_5 1_555 1_555
C220_5 C183_5 1_555 1_555
C223_5 C209_5 1_555 1_555
H136_5 C223_5 1_555 1_555
C226_5 C214_5 1_555 1_555
C227_5 H137_5 1_555 1_555
O50_5 C174_5 1_555 1_555
C228_5 C173_5 1_555 1_555
H140_5 C228_5 1_555 1_555
H141_5 C228_5 1_555 1_555
H142_5 C228_5 1_555 1_555
O53_5 Mg8_4 1_555 1_555
H143_5 O53_5 1_555 1_555
H144_5 O53_5 1_555 1_555
O55_5 Mg8_4 1_555 1_555
O56_5 Mg7_4 1_555 1_555
O57_5 Mg8_4 1_555 1_555
O59_5 Mg7_4 1_555 1_555
O62_5 Mg7_4 1_555 1_555
O63_5 Mg7_4 1_555 1_555
Mg18_2 O41_4 1_555 1_555
Mg20_2 O7_4 1_555 1_555
O70_4 Mg7_4 1_555 1_555
O71_4 Mg1_4 1_555 1_555
O72_4 Mg4_4 1_555 1_555
O73_4 Mg8_4 1_555 1_555
O74_4 Mg2_4 1_555 1_555
O75_4 Mg5_4 1_555 1_555
Mg2_4 O21_5 1_555 1_555
C4_5 O11_5 1_555 1_555
C7_5 C14_5 1_555 1_555
C9_5 C62_5 1_555 1_555
C20_5 C22_5 1_555 1_555
C21_5 O14_5 1_555 1_555
C21_5 O21_5 1_555 1_555
C25_5 C46_5 1_555 1_555
C26_5 C60_5 1_555 1_555
C31_5 C32_5 1_555 1_555
C31_5 C45_5 1_555 1_555
C38_5 O13_5 1_555 1_555
C38_5 O19_5 1_555 1_555
C40_5 C52_5 1_555 1_555
C47_5 C64_5 1_555 1_555
C49_5 C62_5 1_555 1_555
C50_5 O16_5 1_555 1_555
C50_5 O20_5 1_555 1_555
C60_5 C66_5 1_555 1_555
C63_5 C66_5 1_555 1_555
C80_5 C82_5 1_555 1_555
C83_5 C84_5 1_555 1_555
C83_5 C85_5 1_555 1_555
O23_5 Mg5_4 1_555 1_555
C88_5 C91_5 1_555 1_555
C89_5 C91_5 1_555 1_555
C92_5 C93_5 1_555 1_555
C92_5 C94_5 1_555 1_555
O25_5 Mg8_4 1_555 1_555
C115_5 O39_5 1_555 1_555
C116_5 O38_5 1_555 1_555
C120_5 C164_5 1_555 1_555
C130_5 C148_5 1_555 1_555
C131_5 C162_5 1_555 1_555
C136_5 C166_5 1_555 1_555
C141_5 O40_5 1_555 1_555
C141_5 O45_5 1_555 1_555
C143_5 C154_5 1_555 1_555
C146_5 C155_5 1_555 1_555
C149_5 C166_5 1_555 1_555
C150_5 C158_5 1_555 1_555
C151_5 C164_5 1_555 1_555
C152_5 O42_5 1_555 1_555
C152_5 O46_5 1_555 1_555
C153_5 C155_5 1_555 1_555
C162_5 C168_5 1_555 1_555
C165_5 C168_5 1_555 1_555
C173_5 O56_5 1_555 1_555
C174_5 O55_5 1_555 1_555
C178_5 C222_5 1_555 1_555
C188_5 C206_5 1_555 1_555
C189_5 C220_5 1_555 1_555
C199_5 O57_5 1_555 1_555
C199_5 O62_5 1_555 1_555
C201_5 C212_5 1_555 1_555
C207_5 C224_5 1_555 1_555
C209_5 C222_5 1_555 1_555
C210_5 O59_5 1_555 1_555
C210_5 O63_5 1_555 1_555
C220_5 C226_5 1_555 1_555
C223_5 C226_5 1_555 1_555
C34_5 H22_5 1_555 1_555
C37_5 C34_5 1_555 1_555
H25_5 C37_5 1_555 1_555
C58_5 C35_5 1_555 1_555
C59_5 C65_5 1_555 1_555
O70_3 C59_5 1_555 1_555
C34_5 C65_5 1_555 1_555
C37_5 C58_5 1_555 1_555
C44_5 C58_5 1_555 1_555
C2_5 C41_5 1_555 1_555
C15_5 H8_5 1_555 1_555
C24_5 C15_5 1_555 1_555
H14_5 C24_5 1_555 1_555
C29_5 C39_5 1_555 1_555
H21_5 C33_5 1_555 1_555
C39_5 C24_5 1_555 1_555
C41_5 H27_5 1_555 1_555
C43_5 C15_5 1_555 1_555
C48_5 C43_5 1_555 1_555
H29_5 C48_5 1_555 1_555
C53_5 C41_5 1_555 1_555
C56_5 C39_5 1_555 1_555
H32_5 C56_5 1_555 1_555
C61_5 C2_5 1_555 1_555
O10_5 C29_5 1_555 1_555
O15_4 C29_5 1_555 1_555
C175_5 H107_5 1_555 1_555
C176_5 H108_5 1_555 1_555
C177_5 C176_5 1_555 1_555
H109_5 C177_5 1_555 1_555
C180_5 C175_5 1_555 1_555
C184_5 C180_5 1_555 1_555
O51_4 C184_5 1_555 1_555
O52_5 C184_5 1_555 1_555
Mg16_2 O15_4 1_555 1_555
Mg18_2 O51_4 1_555 1_555
C43_5 C53_5 1_555 1_555
C48_5 C56_5 1_555 1_555
C51_5 C53_5 1_555 1_555
C176_5 C180_5 1_555 1_555
C114_6 C144_6 1_555 1_555
C117_6 H69_6 1_555 1_555
C122_6 C117_6 1_555 1_555
C123_6 H74_6 1_555 1_555
C126_6 C122_6 1_555 1_555
C129_6 C123_6 1_555 1_555
H79_6 C129_6 1_555 1_555
C133_6 H83_6 1_555 1_555
C134_6 C142_6 1_555 1_555
C137_6 H85_6 1_555 1_555
C138_6 C133_6 1_555 1_555
H86_6 C138_6 1_555 1_555
C140_6 C137_6 1_555 1_555
H88_6 C140_6 1_555 1_555
C142_6 C129_6 1_555 1_555
C144_6 H90_6 1_555 1_555
C146_6 C123_6 1_555 1_555
C147_6 C153_6 1_555 1_555
H91_6 C149_6 1_555 1_555
C150_6 C146_6 1_555 1_555
H92_6 C150_6 1_555 1_555
C153_6 H93_6 1_555 1_555
C155_6 C144_6 1_555 1_555
C158_6 C142_6 1_555 1_555
H95_6 C158_6 1_555 1_555
C160_6 C138_6 1_555 1_555
C161_6 C167_6 1_555 1_555
C163_6 C114_6 1_555 1_555
H97_6 C163_6 1_555 1_555
C166_6 C114_6 1_555 1_555
C167_6 C133_6 1_555 1_555
O65_2 C126_6 1_555 1_555
O35_6 C126_6 1_555 1_555
O37_6 C134_6 1_555 1_555
O68_2 C134_6 1_555 1_555
O71_4 C161_6 1_555 1_555
O74_4 C161_6 1_555 1_555
C137_6 C167_6 1_555 1_555
C140_6 C160_6 1_555 1_555
C146_6 C155_6 1_555 1_555
C147_6 C160_6 1_555 1_555
C147_6 C163_6 1_555 1_555
C149_6 C166_6 1_555 1_555
C150_6 C158_6 1_555 1_555
C153_6 C155_6 1_555 1_555
Mg10_2 O12_6 1_555 1_555
Mg13_2 O9_6 1_555 1_555
Mg16_2 O2_6 1_555 1_555
C1_6 C30_6 1_555 1_555
C3_6 O1_6 1_555 1_555
C4_6 C67_6 1_555 1_555
C5_6 H1_6 1_555 1_555
C7_6 H3_6 1_555 1_555
C8_6 C7_6 1_555 1_555
H4_6 C8_6 1_555 1_555
H5_6 C9_6 1_555 1_555
C10_6 C5_6 1_555 1_555
H6_6 C10_6 1_555 1_555
C11_6 O5_6 1_555 1_555
C12_6 H7_6 1_555 1_555
C13_6 C5_6 1_555 1_555
C16_6 H9_6 1_555 1_555
C17_6 H10_6 1_555 1_555
C19_6 C17_6 1_555 1_555
H11_6 C19_6 1_555 1_555
C20_6 H12_6 1_555 1_555
C21_6 C45_6 1_555 1_555
C22_6 C13_6 1_555 1_555
C23_6 C16_6 1_555 1_555
H13_6 C23_6 1_555 1_555
C25_6 H15_6 1_555 1_555
C26_6 C25_6 1_555 1_555
H16_6 C26_6 1_555 1_555
C27_6 H17_6 1_555 1_555
C30_6 C12_6 1_555 1_555
C31_6 H19_6 1_555 1_555
C32_6 C13_6 1_555 1_555
H20_6 C32_6 1_555 1_555
C33_6 C27_6 1_555 1_555
H21_6 C33_6 1_555 1_555
C36_6 C12_6 1_555 1_555
H24_6 C36_6 1_555 1_555
C38_6 C52_6 1_555 1_555
C40_6 H26_6 1_555 1_555
C42_6 C54_6 1_555 1_555
C45_6 C10_6 1_555 1_555
C46_6 C19_6 1_555 1_555
C49_6 C57_6 1_555 1_555
C50_6 C46_6 1_555 1_555
C52_6 C27_6 1_555 1_555
C54_6 H31_6 1_555 1_555
C55_6 C23_6 1_555 1_555
C57_6 C42_6 1_555 1_555
H33_6 C57_6 1_555 1_555
C60_6 C17_6 1_555 1_555
C62_6 C8_6 1_555 1_555
C63_6 C49_6 1_555 1_555
H35_6 C63_6 1_555 1_555
C66_6 C54_6 1_555 1_555
C67_6 H36_6 1_555 1_555
H37_6 C67_6 1_555 1_555
H38_6 C67_6 1_555 1_555
O2_6 C1_6 1_555 1_555
O3_6 C1_6 1_555 1_555
O4_6 C4_6 1_555 1_555
C68_6 C3_6 1_555 1_555
H39_6 C68_6 1_555 1_555
H40_6 C68_6 1_555 1_555
H41_6 C68_6 1_555 1_555
O5_6 Mg16_2 1_555 1_555
O6_6 C11_6 1_555 1_555
O9_6 H42_6 1_555 1_555
H43_6 O9_6 1_555 1_555
O11_6 Mg13_2 1_555 1_555
O12_6 C3_6 1_555 1_555
O13_6 Mg13_2 1_555 1_555
O14_6 Mg13_2 1_555 1_555
O16_6 Mg10_2 1_555 1_555
O19_6 Mg10_2 1_555 1_555
O20_6 Mg10_2 1_555 1_555
O21_6 Mg10_2 1_555 1_555
C69_6 H44_6 1_555 1_555
C70_6 H45_6 1_555 1_555
C71_6 C69_6 1_555 1_555
H46_6 C71_6 1_555 1_555
C72_6 C70_6 1_555 1_555
H47_6 C72_6 1_555 1_555
C73_6 C11_6 1_555 1_555
C74_6 C71_6 1_555 1_555
C75_6 H48_6 1_555 1_555
C76_6 C74_6 1_555 1_555
C77_6 H49_6 1_555 1_555
C78_6 C77_6 1_555 1_555
H50_6 C78_6 1_555 1_555
C79_6 C77_6 1_555 1_555
C80_6 C22_6 1_555 1_555
H51_6 C80_6 1_555 1_555
C81_6 C85_6 1_555 1_555
C82_6 C79_6 1_555 1_555
C83_6 H52_6 1_555 1_555
C84_6 C79_6 1_555 1_555
H53_6 C84_6 1_555 1_555
C85_6 C78_6 1_555 1_555
O22_6 C81_6 1_555 1_555
O23_6 C81_6 1_555 1_555
C86_6 H54_6 1_555 1_555
C87_6 C86_6 1_555 1_555
H55_6 C87_6 1_555 1_555
C88_6 C86_6 1_555 1_555
C89_6 C82_6 1_555 1_555
H56_6 C89_6 1_555 1_555
C90_6 C94_6 1_555 1_555
C91_6 C20_6 1_555 1_555
C92_6 H57_6 1_555 1_555
C93_6 C88_6 1_555 1_555
H58_6 C93_6 1_555 1_555
C94_6 C87_6 1_555 1_555
O24_6 C90_6 1_555 1_555
O25_6 C90_6 1_555 1_555
C95_6 O26_6 1_555 1_555
O26_6 Mg18_2 1_555 1_555
O27_6 C95_6 1_555 1_555
C96_6 H59_6 1_555 1_555
C97_6 H60_6 1_555 1_555
C98_6 C96_6 1_555 1_555
H61_6 C98_6 1_555 1_555
C99_6 C97_6 1_555 1_555
H62_6 C99_6 1_555 1_555
C100_6 C95_6 1_555 1_555
C101_6 C98_6 1_555 1_555
C102_6 H63_6 1_555 1_555
C103_6 C75_6 1_555 1_555
C104_6 O28_6 1_555 1_555
O28_6 Mg20_2 1_555 1_555
O29_6 C104_6 1_555 1_555
C105_6 H64_6 1_555 1_555
C106_6 H65_6 1_555 1_555
C107_6 C105_6 1_555 1_555
H66_6 C107_6 1_555 1_555
C108_6 C106_6 1_555 1_555
H67_6 C108_6 1_555 1_555
C109_6 C104_6 1_555 1_555
C110_6 C107_6 1_555 1_555
C111_6 C76_6 1_555 1_555
H68_6 C111_6 1_555 1_555
C112_6 C102_6 1_555 1_555
Mg11_2 O23_6 1_555 1_555
Mg14_2 O22_6 1_555 1_555
Mg18_2 O31_6 1_555 1_555
C113_6 C135_6 1_555 1_555
C115_6 O30_6 1_555 1_555
C116_6 C169_6 1_555 1_555
C118_6 H70_6 1_555 1_555
C119_6 C118_6 1_555 1_555
H71_6 C119_6 1_555 1_555
H72_6 C120_6 1_555 1_555
C121_6 H73_6 1_555 1_555
C124_6 H75_6 1_555 1_555
C125_6 H76_6 1_555 1_555
C127_6 C125_6 1_555 1_555
H77_6 C127_6 1_555 1_555
C128_6 C124_6 1_555 1_555
H78_6 C128_6 1_555 1_555
C130_6 H80_6 1_555 1_555
C131_6 C130_6 1_555 1_555
H81_6 C131_6 1_555 1_555
C132_6 H82_6 1_555 1_555
C135_6 C121_6 1_555 1_555
C136_6 C132_6 1_555 1_555
H84_6 C136_6 1_555 1_555
C139_6 C121_6 1_555 1_555
H87_6 C139_6 1_555 1_555
C141_6 C154_6 1_555 1_555
C143_6 H89_6 1_555 1_555
C145_6 C156_6 1_555 1_555
C148_6 C127_6 1_555 1_555
C151_6 C159_6 1_555 1_555
C152_6 C148_6 1_555 1_555
C154_6 C132_6 1_555 1_555
C156_6 H94_6 1_555 1_555
C157_6 C128_6 1_555 1_555
C159_6 C145_6 1_555 1_555
H96_6 C159_6 1_555 1_555
C162_6 C125_6 1_555 1_555
C164_6 C119_6 1_555 1_555
C165_6 C151_6 1_555 1_555
H98_6 C165_6 1_555 1_555
C168_6 C156_6 1_555 1_555
C169_6 H99_6 1_555 1_555
H100_6 C169_6 1_555 1_555
H101_6 C169_6 1_555 1_555
O31_6 C113_6 1_555 1_555
O32_6 C113_6 1_555 1_555
O33_6 C116_6 1_555 1_555
C170_6 C115_6 1_555 1_555
H102_6 C170_6 1_555 1_555
H103_6 C170_6 1_555 1_555
H104_6 C170_6 1_555 1_555
O36_6 Mg14_2 1_555 1_555
H105_6 O36_6 1_555 1_555
H106_6 O36_6 1_555 1_555
O38_6 Mg14_2 1_555 1_555
O39_6 Mg11_2 1_555 1_555
O40_6 Mg14_2 1_555 1_555
O42_6 Mg11_2 1_555 1_555
O45_6 Mg11_2 1_555 1_555
O46_6 Mg11_2 1_555 1_555
Mg12_2 O25_6 1_555 1_555
Mg15_2 O24_6 1_555 1_555
Mg20_2 O48_6 1_555 1_555
C171_6 C193_6 1_555 1_555
C172_6 C202_6 1_555 1_555
C173_6 O47_6 1_555 1_555
C174_6 C227_6 1_555 1_555
C175_6 H107_6 1_555 1_555
C176_6 H108_6 1_555 1_555
C177_6 C176_6 1_555 1_555
H109_6 C177_6 1_555 1_555
C178_6 C175_6 1_555 1_555
H110_6 C178_6 1_555 1_555
C179_6 H111_6 1_555 1_555
C180_6 C175_6 1_555 1_555
C181_6 H112_6 1_555 1_555
C182_6 H113_6 1_555 1_555
C183_6 H114_6 1_555 1_555
C184_6 C180_6 1_555 1_555
C185_6 C183_6 1_555 1_555
H115_6 C185_6 1_555 1_555
C186_6 C182_6 1_555 1_555
H116_6 C186_6 1_555 1_555
C187_6 C181_6 1_555 1_555
H117_6 C187_6 1_555 1_555
C188_6 H118_6 1_555 1_555
C189_6 C188_6 1_555 1_555
H119_6 C189_6 1_555 1_555
C190_6 H120_6 1_555 1_555
C191_6 H121_6 1_555 1_555
C192_6 C200_6 1_555 1_555
C193_6 C179_6 1_555 1_555
C194_6 C190_6 1_555 1_555
H122_6 C194_6 1_555 1_555
C195_6 H123_6 1_555 1_555
C196_6 C191_6 1_555 1_555
H124_6 C196_6 1_555 1_555
C197_6 C179_6 1_555 1_555
H125_6 C197_6 1_555 1_555
C198_6 C195_6 1_555 1_555
H126_6 C198_6 1_555 1_555
C199_6 C212_6 1_555 1_555
C200_6 C187_6 1_555 1_555
C201_6 H127_6 1_555 1_555
C202_6 H128_6 1_555 1_555
C203_6 C214_6 1_555 1_555
C204_6 C181_6 1_555 1_555
C205_6 C211_6 1_555 1_555
C206_6 C185_6 1_555 1_555
C207_6 C201_6 1_555 1_555
H129_6 C207_6 1_555 1_555
C208_6 C204_6 1_555 1_555
H130_6 C208_6 1_555 1_555
C209_6 C217_6 1_555 1_555
C210_6 C206_6 1_555 1_555
C211_6 H131_6 1_555 1_555
C212_6 C190_6 1_555 1_555
C213_6 C202_6 1_555 1_555
C214_6 H132_6 1_555 1_555
C215_6 C186_6 1_555 1_555
C216_6 C200_6 1_555 1_555
H133_6 C216_6 1_555 1_555
C217_6 C203_6 1_555 1_555
H134_6 C217_6 1_555 1_555
C218_6 C196_6 1_555 1_555
C219_6 C225_6 1_555 1_555
C220_6 C183_6 1_555 1_555
C221_6 C172_6 1_555 1_555
H135_6 C221_6 1_555 1_555
C222_6 C177_6 1_555 1_555
C223_6 C209_6 1_555 1_555
H136_6 C223_6 1_555 1_555
C224_6 C172_6 1_555 1_555
C225_6 C191_6 1_555 1_555
C226_6 C214_6 1_555 1_555
C227_6 H137_6 1_555 1_555
H138_6 C227_6 1_555 1_555
H139_6 C227_6 1_555 1_555
O48_6 C171_6 1_555 1_555
O49_6 C171_6 1_555 1_555
O50_6 C174_6 1_555 1_555
C228_6 C173_6 1_555 1_555
H140_6 C228_6 1_555 1_555
H141_6 C228_6 1_555 1_555
H142_6 C228_6 1_555 1_555
O66_2 C184_6 1_555 1_555
O52_6 C184_6 1_555 1_555
O53_6 Mg15_2 1_555 1_555
H143_6 O53_6 1_555 1_555
H144_6 O53_6 1_555 1_555
O54_6 C192_6 1_555 1_555
O55_6 Mg15_2 1_555 1_555
O56_6 Mg12_2 1_555 1_555
O57_6 Mg15_2 1_555 1_555
O69_2 C192_6 1_555 1_555
O59_6 Mg12_2 1_555 1_555
O72_4 C219_6 1_555 1_555
O75_4 C219_6 1_555 1_555
O62_6 Mg12_2 1_555 1_555
O63_6 Mg12_2 1_555 1_555
Mg13_2 O21_6 1_555 1_555
C4_6 O11_6 1_555 1_555
C9_6 C62_6 1_555 1_555
C16_6 C30_6 1_555 1_555
C20_6 C22_6 1_555 1_555
C21_6 O14_6 1_555 1_555
C21_6 O21_6 1_555 1_555
C25_6 C46_6 1_555 1_555
C26_6 C60_6 1_555 1_555
C31_6 C32_6 1_555 1_555
C31_6 C45_6 1_555 1_555
C36_6 C55_6 1_555 1_555
C38_6 O13_6 1_555 1_555
C38_6 O19_6 1_555 1_555
C40_6 C52_6 1_555 1_555
C42_6 C55_6 1_555 1_555
C49_6 C62_6 1_555 1_555
C50_6 O16_6 1_555 1_555
C50_6 O20_6 1_555 1_555
C60_6 C66_6 1_555 1_555
C63_6 C66_6 1_555 1_555
C69_6 C73_6 1_555 1_555
C70_6 C73_6 1_555 1_555
C72_6 C74_6 1_555 1_555
C75_6 C76_6 1_555 1_555
C80_6 C82_6 1_555 1_555
C83_6 C84_6 1_555 1_555
C83_6 C85_6 1_555 1_555
O23_6 Mg14_2 1_555 1_555
C88_6 C91_6 1_555 1_555
C89_6 C91_6 1_555 1_555
C92_6 C93_6 1_555 1_555
C92_6 C94_6 1_555 1_555
O25_6 Mg15_2 1_555 1_555
C96_6 C100_6 1_555 1_555
C97_6 C100_6 1_555 1_555
C99_6 C101_6 1_555 1_555
C101_6 C103_6 1_555 1_555
C102_6 C103_6 1_555 1_555
C105_6 C109_6 1_555 1_555
C106_6 C109_6 1_555 1_555
C108_6 C110_6 1_555 1_555
C110_6 C112_6 1_555 1_555
C111_6 C112_6 1_555 1_555
C115_6 O39_6 1_555 1_555
C116_6 O38_6 1_555 1_555
C120_6 C164_6 1_555 1_555
C124_6 C135_6 1_555 1_555
C130_6 C148_6 1_555 1_555
C131_6 C162_6 1_555 1_555
C139_6 C157_6 1_555 1_555
C141_6 O40_6 1_555 1_555
C141_6 O45_6 1_555 1_555
C143_6 C154_6 1_555 1_555
C145_6 C157_6 1_555 1_555
C151_6 C164_6 1_555 1_555
C152_6 O42_6 1_555 1_555
C152_6 O46_6 1_555 1_555
C162_6 C168_6 1_555 1_555
C165_6 C168_6 1_555 1_555
C173_6 O56_6 1_555 1_555
C174_6 O55_6 1_555 1_555
C176_6 C180_6 1_555 1_555
C178_6 C222_6 1_555 1_555
C182_6 C193_6 1_555 1_555
C188_6 C206_6 1_555 1_555
C189_6 C220_6 1_555 1_555
C194_6 C224_6 1_555 1_555
C195_6 C225_6 1_555 1_555
C197_6 C215_6 1_555 1_555
C198_6 C218_6 1_555 1_555
C199_6 O57_6 1_555 1_555
C199_6 O62_6 1_555 1_555
C201_6 C212_6 1_555 1_555
C203_6 C215_6 1_555 1_555
C204_6 C213_6 1_555 1_555
C205_6 C218_6 1_555 1_555
C205_6 C221_6 1_555 1_555
C207_6 C224_6 1_555 1_555
C208_6 C216_6 1_555 1_555
C209_6 C222_6 1_555 1_555
C210_6 O59_6 1_555 1_555
C210_6 O63_6 1_555 1_555
C211_6 C213_6 1_555 1_555
C220_6 C226_6 1_555 1_555
C223_6 C226_6 1_555 1_555
C2_6 C41_6 1_555 1_555
C6_6 H2_6 1_555 1_555
C14_6 C6_6 1_555 1_555
C15_6 H8_6 1_555 1_555
C18_6 C14_6 1_555 1_555
C24_6 C15_6 1_555 1_555
H14_6 C24_6 1_555 1_555
C28_6 H18_6 1_555 1_555
C29_6 C39_6 1_555 1_555
C34_6 H22_6 1_555 1_555
C35_6 C28_6 1_555 1_555
H23_6 C35_6 1_555 1_555
C37_6 C34_6 1_555 1_555
H25_6 C37_6 1_555 1_555
C39_6 C24_6 1_555 1_555
C41_6 H27_6 1_555 1_555
C43_6 C15_6 1_555 1_555
C44_6 C51_6 1_555 1_555
H28_6 C47_6 1_555 1_555
C48_6 C43_6 1_555 1_555
H29_6 C48_6 1_555 1_555
C51_6 H30_6 1_555 1_555
C53_6 C41_6 1_555 1_555
C56_6 C39_6 1_555 1_555
H32_6 C56_6 1_555 1_555
C58_6 C35_6 1_555 1_555
C59_6 C65_6 1_555 1_555
C61_6 C2_6 1_555 1_555
H34_6 C61_6 1_555 1_555
C64_6 C2_6 1_555 1_555
C65_6 C28_6 1_555 1_555
O64_2 C18_6 1_555 1_555
O8_6 C18_6 1_555 1_555
O10_6 C29_6 1_555 1_555
O67_2 C29_6 1_555 1_555
O70_4 C59_6 1_555 1_555
O73_4 C59_6 1_555 1_555
C34_6 C65_6 1_555 1_555
C37_6 C58_6 1_555 1_555
C43_6 C53_6 1_555 1_555
C44_6 C58_6 1_555 1_555
C44_6 C61_6 1_555 1_555
C47_6 C64_6 1_555 1_555
C48_6 C56_6 1_555 1_555
C51_6 C53_6 1_555 1_555

#END
