
###############################################################################
#
# This file contains modified crystal structure data generated from the
# MOF subset of the Cambridge Structural Database (CSD) v543 
# hosted by the Cambridge Crystallographic Data Centre (CCDC).
#
# This work is licensed under the Creative Commons
# Attribution-NonCommercial-ShareAlike 4.0 International License.
# To view a copy of this license, visit
# http://creativecommons.org/licenses/by-nc-sa/4.0/
# or send a letter to
# Creative Commons, PO Box 1866, Mountain View, CA 94042, USA.
#
# CIF created using the CSD Python API on 29 September 2022
# The structure has been converted into the P1 space group
# The structure has a 3D framework
# The original CSD entry QIMNIL is in the cubic crystal system
# The original CSD entry QIMNIL is in a Sohncke space group
# The framework has been calculated to contain at least 10.0% void space
# The void calculation uses a probe of radius 1.32A, grid spacing 0.4
# H atom positions have been added when not included in the experimental data
#
###############################################################################

data_QIMNIL
_chemical_formula_moiety         '(C48 H80 B8 N72 Na8)n'
_symmetry_cell_setting           triclinic
_symmetry_space_group_name_H-M   'P 1'
_symmetry_Int_Tables_number      1
_space_group_name_Hall           'P 1'
loop_
_symmetry_equiv_pos_site_id
_symmetry_equiv_pos_as_xyz
1 x,y,z
_cell_length_a                   13.1478(6)
_cell_length_b                   13.1478(6)
_cell_length_c                   13.1478(6)
_cell_angle_alpha                90
_cell_angle_beta                 90
_cell_angle_gamma                90
_cell_volume                     2272.79
loop_
_atom_site_label
_atom_site_type_symbol
_atom_site_fract_x
_atom_site_fract_y
_atom_site_fract_z
Na1 Na 0.1250 0.1250 0.1250
N1 N 0.31084(7) 0.16329(7) 0.12890(7)
N2 N 0.34738(7) 0.23103(7) 0.19669(7)
N3 N 0.38518(7) 0.13882(8) 0.06602(7)
C1 C 0.46972(9) 0.19159(9) 0.09366(9)
H1 H 0.5328 0.1885 0.0618
C2 C 0.44609(9) 0.25008(9) 0.17642(9)
H2 H 0.4892 0.2939 0.2114
B1 B 0.28050(9) 0.28050(9) 0.28050(9)
H3 H 0.3285(11) 0.3285(11) 0.3285(11)
N4 N 0.12890(7) 0.31084(7) 0.16329(7)
N5 N 0.19669(7) 0.34738(7) 0.23103(7)
N6 N 0.06602(7) 0.38518(7) 0.13882(8)
C3 C 0.09366(9) 0.46972(9) 0.19159(9)
H4 H 0.0618 0.5328 0.1885
C4 C 0.17642(9) 0.44609(9) 0.25008(9)
H5 H 0.2114 0.4892 0.2939
N7 N 0.16329(7) 0.12890(7) 0.31084(7)
N8 N 0.23103(7) 0.19669(7) 0.34738(7)
N9 N 0.13882(8) 0.06602(7) 0.38518(7)
C5 C 0.19159(9) 0.09366(9) 0.46972(9)
H6 H 0.1885 0.0618 0.5328
C6 C 0.25008(9) 0.17642(9) 0.44609(9)
H7 H 0.2939 0.2114 0.4892
Na2 Na 0.3750 0.1250 0.8750
N16 N 0.12110(7) 0.08671(7) 0.93916(7)
N17 N 0.05331(7) 0.01897(7) 0.90262(7)
N18 N 0.18398(7) 0.11118(8) 0.86482(7)
C11 C 0.15634(9) 0.05841(9) 0.78028(9)
H13 H 0.1882 0.0615 0.7172
N19 N 0.56602(7) 0.11482(7) 0.86118(8)
N21 N 0.38882(8) 0.13518(7) 0.68398(7)
N22 N 0.36482(7) 0.31602(7) 0.88882(8)
H15 H 0.0746329 0.146529 0.924252
N10 N 0.08671(7) 0.93916(7) 0.12110(7)
N11 N 0.01897(7) 0.90262(7) 0.05331(7)
N12 N 0.11118(8) 0.86482(7) 0.18398(7)
C7 C 0.05841(9) 0.78028(9) 0.15634(9)
H8 H 0.0615 0.7172 0.1882
Na3 Na 0.1250 0.8750 0.3750
C12 C 0.07358(9) 0.99992(9) 0.80391(9)
H14 H 0.0386 0.9561 0.7608
N20 N 0.36118(8) 0.93398(7) 0.88518(7)
N13 N 0.93916(7) 0.12110(7) 0.08671(7)
N14 N 0.90262(7) 0.05331(7) 0.01897(7)
N15 N 0.86482(7) 0.18398(7) 0.11118(8)
C9 C 0.78028(9) 0.15634(9) 0.05841(9)
H11 H 0.7172 0.1882 0.0615
Na4 Na 0.8750 0.3750 0.1250
C10 C 0.80391(9) 0.07358(9) 0.99992(9)
H12 H 0.7608 0.0386 0.9561
C8 C 0.99992(9) 0.80391(9) 0.07358(9)
H9 H 0.9561 0.7608 0.0386
N10_2 N 0.41329(7) 0.06084(7) 0.62110(7)
N11_2 N 0.48103(7) 0.09738(7) 0.55331(7)
C7_2 C 0.44159(9) 0.21972(9) 0.65634(9)
H8_2 H 0.4385 0.2828 0.6882
C8_2 C 0.50008(9) 0.19609(9) 0.57358(9)
H9_2 H 0.5439 0.2392 0.5386
B2 B 0.53050(9) 0.03050(9) 0.46950(9)
H10 H 0.5785(11) 0.0785(11) 0.4215(11)
C12_2 C 0.42642(9) 0.00008(9) 0.30391(9)
H14_2 H 0.4614 0.0439 0.2608
Na1_2 Na 0.3750 0.8750 0.6250
N1_2 N 0.18916(7) 0.83671(7) 0.62890(7)
N2_2 N 0.15262(7) 0.76897(7) 0.69669(7)
N3_2 N 0.11482(7) 0.86118(8) 0.56602(7)
C1_2 C 0.03028(9) 0.80841(9) 0.59366(9)
C2_2 C 0.05391(9) 0.74992(9) 0.67642(9)
H2_2 H 0.0108 0.7061 0.7114
B1_2 B 0.21950(9) 0.71950(9) 0.78050(9)
H3_2 H 0.1715(11) 0.6715(11) 0.8285(11)
N4_2 N 0.37110(7) 0.68916(7) 0.66329(7)
N5_2 N 0.30331(7) 0.65262(7) 0.73103(7)
N6_2 N 0.43398(7) 0.61482(7) 0.63882(8)
C3_2 C 0.40634(9) 0.53028(9) 0.69159(9)
H4_2 H 0.4382 0.4672 0.6885
C4_2 C 0.32358(9) 0.55391(9) 0.75008(9)
H5_2 H 0.2886 0.5108 0.7939
N7_2 N 0.33671(7) 0.87110(7) 0.81084(7)
N8_2 N 0.26897(7) 0.80331(7) 0.84738(7)
C5_2 C 0.30841(9) 0.90634(9) 0.96972(9)
C6_2 C 0.24992(9) 0.82358(9) 0.94609(9)
H7_2 H 0.2061 0.7886 0.9892
N13_2 N 0.56084(7) 0.87890(7) 0.58671(7)
N14_2 N 0.59738(7) 0.94669(7) 0.51897(7)
N15_2 N 0.63518(7) 0.81602(7) 0.61118(8)
C9_2 C 0.71972(9) 0.84366(9) 0.55841(9)
H11_2 H 0.7828 0.8118 0.5615
C10_2 C 0.69609(9) 0.92642(9) 0.49992(9)
H12_2 H 0.7392 0.9614 0.4561
N16_2 N 0.37890(7) 0.91329(7) 0.43916(7)
N17_2 N 0.44669(7) 0.98103(7) 0.40262(7)
N18_2 N 0.31602(7) 0.88882(8) 0.36482(7)
C11_2 C 0.34366(9) 0.94159(9) 0.28028(9)
H13_2 H 0.3118 0.9385 0.2172
N22_2 N 0.13518(7) 0.68398(7) 0.38882(8)
Na4_2 Na 0.6250 0.6250 0.6250
H15_2 H 0.425367 0.853471 0.424252
H1_2 H 0.9672 0.8115 0.5618
N19_2 N 0.93398(7) 0.88518(7) 0.36118(8)
C8_3 C 0.00008(9) 0.30391(9) 0.42642(9)
H9_3 H 0.0439 0.2608 0.4614
B2_2 B 0.03050(9) 0.46950(9) 0.53050(9)
H10_2 H 0.0785(11) 0.4215(11) 0.5785(11)
N13_3 N 0.06084(7) 0.62110(7) 0.41329(7)
N14_3 N 0.09738(7) 0.55331(7) 0.48103(7)
C9_3 C 0.21972(9) 0.65634(9) 0.44159(9)
H11_3 H 0.2828 0.6882 0.4385
C10_3 C 0.19609(9) 0.57358(9) 0.50008(9)
H12_3 H 0.2392 0.5386 0.5439
Na1_3 Na 0.8750 0.6250 0.3750
N1_3 N 0.68916(7) 0.66329(7) 0.37110(7)
N2_3 N 0.65262(7) 0.73103(7) 0.30331(7)
N3_3 N 0.61482(7) 0.63882(8) 0.43398(7)
C1_3 C 0.53028(9) 0.69159(9) 0.40634(9)
H1_3 H 0.4672 0.6885 0.4382
C2_3 C 0.55391(9) 0.75008(9) 0.32358(9)
H2_3 H 0.5108 0.7939 0.2886
B1_3 B 0.71950(9) 0.78050(9) 0.21950(9)
H3_3 H 0.6715(11) 0.8285(11) 0.1715(11)
N4_3 N 0.87110(7) 0.81084(7) 0.33671(7)
N5_3 N 0.80331(7) 0.84738(7) 0.26897(7)
C3_3 C 0.90634(9) 0.96972(9) 0.30841(9)
C4_3 C 0.82358(9) 0.94609(9) 0.24992(9)
H5_3 H 0.7886 0.9892 0.2061
N7_3 N 0.83671(7) 0.62890(7) 0.18916(7)
N8_3 N 0.76897(7) 0.69669(7) 0.15262(7)
N9_2 N 0.86118(8) 0.56602(7) 0.11482(7)
C5_3 C 0.80841(9) 0.59366(9) 0.03028(9)
C6_3 C 0.74992(9) 0.67642(9) 0.05391(9)
H7_3 H 0.7061 0.7114 0.0108
N10_3 N 0.91329(7) 0.43916(7) 0.37890(7)
N11_3 N 0.98103(7) 0.40262(7) 0.44669(7)
N12_2 N 0.88882(8) 0.36482(7) 0.31602(7)
C7_3 C 0.94159(9) 0.28028(9) 0.34366(9)
H8_3 H 0.9385 0.2172 0.3118
N16_3 N 0.87890(7) 0.58671(7) 0.56084(7)
N17_3 N 0.94669(7) 0.51897(7) 0.59738(7)
N18_3 N 0.81602(7) 0.61118(8) 0.63518(7)
C11_3 C 0.84366(9) 0.55841(9) 0.71972(9)
H13_3 H 0.8118 0.5615 0.7828
C12_3 C 0.92642(9) 0.49992(9) 0.69609(9)
H14_3 H 0.9614 0.4561 0.7392
N20_2 N 0.63882(8) 0.43398(7) 0.61482(7)
N21_2 N 0.61118(8) 0.63518(7) 0.81602(7)
H15_3 H 0.925367 0.646529 0.575748
H6_2 H 0.8115 0.5618 0.9672
B2_3 B 0.46950(9) 0.53050(9) 0.03050(9)
H10_3 H 0.4215(11) 0.5785(11) 0.0785(11)
C10_4 C 0.30391(9) 0.42642(9) 0.00008(9)
H12_4 H 0.2608 0.4614 0.0439
N16_4 N 0.62110(7) 0.41329(7) 0.06084(7)
N17_4 N 0.55331(7) 0.48103(7) 0.09738(7)
N18_4 N 0.68398(7) 0.38882(8) 0.13518(7)
C11_4 C 0.65634(9) 0.44159(9) 0.21972(9)
H13_4 H 0.6882 0.4385 0.2828
C12_4 C 0.57358(9) 0.50008(9) 0.19609(9)
H14_4 H 0.5386 0.5439 0.2392
H15_4 H 0.574633 0.353471 0.0757481
Na1_4 Na 0.6250 0.3750 0.8750
N1_4 N 0.81084(7) 0.33671(7) 0.87110(7)
N2_4 N 0.84738(7) 0.26897(7) 0.80331(7)
N3_4 N 0.88518(7) 0.36118(8) 0.93398(7)
C1_4 C 0.96972(9) 0.30841(9) 0.90634(9)
C2_4 C 0.94609(9) 0.24992(9) 0.82358(9)
H2_4 H 0.9892 0.2061 0.7886
B1_4 B 0.78050(9) 0.21950(9) 0.71950(9)
H3_4 H 0.8285(11) 0.1715(11) 0.6715(11)
N4_4 N 0.62890(7) 0.18916(7) 0.83671(7)
N5_4 N 0.69669(7) 0.15262(7) 0.76897(7)
C3_4 C 0.59366(9) 0.03028(9) 0.80841(9)
C4_4 C 0.67642(9) 0.05391(9) 0.74992(9)
H5_4 H 0.7114 0.0108 0.7061
N7_4 N 0.66329(7) 0.37110(7) 0.68916(7)
N8_4 N 0.73103(7) 0.30331(7) 0.65262(7)
C5_4 C 0.69159(9) 0.40634(9) 0.53028(9)
H6_3 H 0.6885 0.4382 0.4672
C6_4 C 0.75008(9) 0.32358(9) 0.55391(9)
H7_4 H 0.7939 0.2886 0.5108
N10_4 N 0.58671(7) 0.56084(7) 0.87890(7)
N11_4 N 0.51897(7) 0.59738(7) 0.94669(7)
C7_4 C 0.55841(9) 0.71972(9) 0.84366(9)
H8_4 H 0.5615 0.7828 0.8118
C8_4 C 0.49992(9) 0.69609(9) 0.92642(9)
H9_4 H 0.4561 0.7392 0.9614
N13_4 N 0.43916(7) 0.37890(7) 0.91329(7)
N14_4 N 0.40262(7) 0.44669(7) 0.98103(7)
C9_4 C 0.28028(9) 0.34366(9) 0.94159(9)
H11_4 H 0.2172 0.3118 0.9385
H4_3 H 0.5618 0.9672 0.8115
H15_5 H 0.924252 0.0746329 0.146529
H15_6 H 0.424252 0.425367 0.853471
H15_7 H 0.575748 0.925367 0.646529
H15_8 H 0.0757481 0.574633 0.353471
H15_9 H 0.146529 0.924252 0.0746329
H15_10 H 0.853471 0.424252 0.425367
H15_11 H 0.646529 0.575748 0.925367
H15_12 H 0.353471 0.0757481 0.574633
H15_13 H 0.396529 0.824633 0.825748
H15_14 H 0.103471 0.175367 0.325748
H15_15 H 0.896529 0.675367 0.174252
H15_16 H 0.603471 0.324633 0.674252
H15_17 H 0.324633 0.674252 0.603471
H15_18 H 0.675367 0.174252 0.896529
H15_19 H 0.175367 0.325748 0.103471
H15_20 H 0.824633 0.825748 0.396529
H15_21 H 0.174252 0.896529 0.675367
H15_22 H 0.674252 0.603471 0.324633
H15_23 H 0.825748 0.396529 0.824633
H15_24 H 0.325748 0.103471 0.175367
B2_4 B 0.96950(9) 0.96950(9) 0.96950(9)
H10_4 H 0.9215(11) 0.9215(11) 0.9215(11)
H6_4 H 0.3115 0.9382 0.0328
H4_4 H 0.9382 0.0328 0.3115
H1_4 H 0.0328 0.3115 0.9382
loop_
_geom_bond_atom_site_label_1
_geom_bond_atom_site_label_2
_geom_bond_site_symmetry_1
_geom_bond_site_symmetry_2
Na1 N1 1_555 1_555
N1 N2 1_555 1_555
N2 C2 1_555 1_555
N3 N1 1_555 1_555
C1 N3 1_555 1_555
H1 C1 1_555 1_555
C2 C1 1_555 1_555
H2 C2 1_555 1_555
B1 N2 1_555 1_555
H3 B1 1_555 1_555
N4 Na1 1_555 1_555
N5 B1 1_555 1_555
N6 N4 1_555 1_555
C3 N6 1_555 1_555
H4 C3 1_555 1_555
C4 N5 1_555 1_555
H5 C4 1_555 1_555
N7 Na1 1_555 1_555
N8 B1 1_555 1_555
N9 N7 1_555 1_555
C5 N9 1_555 1_555
H6 C5 1_555 1_555
C6 N8 1_555 1_555
H7 C6 1_555 1_555
N4 N5 1_555 1_555
C3 C4 1_555 1_555
N7 N8 1_555 1_555
C5 C6 1_555 1_555
N18 Na2 1_555 1_555
C11 N18 1_555 1_555
H13 C11 1_555 1_555
N19 Na2 1_555 1_555
N21 Na2 1_555 1_555
N22 Na2 1_555 1_555
N16 N17 1_555 1_555
N16 N18 1_555 1_555
N16 H15 1_555 1_555
N11 N10 1_555 1_555
N12 N10 1_555 1_555
C7 N12 1_555 1_555
H8 C7 1_555 1_555
N12 Na3 1_555 1_555
H14 C12 1_555 1_555
N15 N13 1_555 1_555
C9 N15 1_555 1_555
H11 C9 1_555 1_555
N13 N14 1_555 1_555
N15 Na4 1_555 1_555
H12 C10 1_555 1_555
H9 C8 1_555 1_555
N11_2 N10_2 1_555 1_555
N21 N10_2 1_555 1_555
C7_2 N21 1_555 1_555
H8_2 C7_2 1_555 1_555
C8_2 N11_2 1_555 1_555
H9_2 C8_2 1_555 1_555
B2 N11_2 1_555 1_555
H10 B2 1_555 1_555
H14_2 C12_2 1_555 1_555
C7_2 C8_2 1_555 1_555
Na1_2 N1_2 1_555 1_555
N1_2 N2_2 1_555 1_555
N2_2 C2_2 1_555 1_555
N3_2 N1_2 1_555 1_555
C1_2 N3_2 1_555 1_555
C2_2 C1_2 1_555 1_555
H2_2 C2_2 1_555 1_555
Na3 N3_2 1_555 1_555
B1_2 N2_2 1_555 1_555
H3_2 B1_2 1_555 1_555
N4_2 Na1_2 1_555 1_555
N5_2 B1_2 1_555 1_555
N6_2 N4_2 1_555 1_555
C3_2 N6_2 1_555 1_555
H4_2 C3_2 1_555 1_555
C4_2 N5_2 1_555 1_555
H5_2 C4_2 1_555 1_555
N7_2 Na1_2 1_555 1_555
N8_2 B1_2 1_555 1_555
N20 N7_2 1_555 1_555
C5_2 N20 1_555 1_555
C6_2 N8_2 1_555 1_555
H7_2 C6_2 1_555 1_555
N13_2 Na1_2 1_555 1_555
N15_2 N13_2 1_555 1_555
C9_2 N15_2 1_555 1_555
H11_2 C9_2 1_555 1_555
C10_2 N14_2 1_555 1_555
H12_2 C10_2 1_555 1_555
N16_2 Na1_2 1_555 1_555
N18_2 Na3 1_555 1_555
C11_2 N18_2 1_555 1_555
H13_2 C11_2 1_555 1_555
N22_2 Na3 1_555 1_555
Na4_2 N6_2 1_555 1_555
N4_2 N5_2 1_555 1_555
C3_2 C4_2 1_555 1_555
N7_2 N8_2 1_555 1_555
C5_2 C6_2 1_555 1_555
N13_2 N14_2 1_555 1_555
N15_2 Na4_2 1_555 1_555
C9_2 C10_2 1_555 1_555
N16_2 N17_2 1_555 1_555
N16_2 N18_2 1_555 1_555
N16_2 H15_2 1_555 1_555
H9_3 C8_3 1_555 1_555
H10_2 B2_2 1_555 1_555
N14_3 B2_2 1_555 1_555
N22_2 N13_3 1_555 1_555
C9_3 N22_2 1_555 1_555
H11_3 C9_3 1_555 1_555
C10_3 N14_3 1_555 1_555
H12_3 C10_3 1_555 1_555
N13_3 N14_3 1_555 1_555
C9_3 C10_3 1_555 1_555
Na1_3 N1_3 1_555 1_555
N1_3 N2_3 1_555 1_555
N2_3 C2_3 1_555 1_555
N3_3 N1_3 1_555 1_555
C1_3 N3_3 1_555 1_555
H1_3 C1_3 1_555 1_555
C2_3 C1_3 1_555 1_555
H2_3 C2_3 1_555 1_555
Na4_2 N3_3 1_555 1_555
B1_3 N2_3 1_555 1_555
H3_3 B1_3 1_555 1_555
N4_3 Na1_3 1_555 1_555
N5_3 B1_3 1_555 1_555
N19_2 N4_3 1_555 1_555
C3_3 N19_2 1_555 1_555
C4_3 N5_3 1_555 1_555
H5_3 C4_3 1_555 1_555
N7_3 Na1_3 1_555 1_555
N8_3 B1_3 1_555 1_555
N9_2 N7_3 1_555 1_555
C5_3 N9_2 1_555 1_555
C6_3 N8_3 1_555 1_555
H7_3 C6_3 1_555 1_555
N10_3 Na1_3 1_555 1_555
N11_3 N10_3 1_555 1_555
N12_2 N10_3 1_555 1_555
C7_3 N12_2 1_555 1_555
H8_3 C7_3 1_555 1_555
N16_3 Na1_3 1_555 1_555
N18_3 Na4_2 1_555 1_555
C11_3 N18_3 1_555 1_555
H13_3 C11_3 1_555 1_555
C12_3 N17_3 1_555 1_555
H14_3 C12_3 1_555 1_555
N20_2 Na4_2 1_555 1_555
N21_2 Na4_2 1_555 1_555
Na4 N9_2 1_555 1_555
N4_3 N5_3 1_555 1_555
C3_3 C4_3 1_555 1_555
N7_3 N8_3 1_555 1_555
C5_3 C6_3 1_555 1_555
N12_2 Na4 1_555 1_555
N16_3 N17_3 1_555 1_555
N16_3 N18_3 1_555 1_555
C11_3 C12_3 1_555 1_555
N16_3 H15_3 1_555 1_555
H10_3 B2_3 1_555 1_555
H12_4 C10_4 1_555 1_555
N17_4 B2_3 1_555 1_555
N18_4 Na4 1_555 1_555
C11_4 N18_4 1_555 1_555
H13_4 C11_4 1_555 1_555
C12_4 N17_4 1_555 1_555
H14_4 C12_4 1_555 1_555
N16_4 N17_4 1_555 1_555
N16_4 N18_4 1_555 1_555
C11_4 C12_4 1_555 1_555
N16_4 H15_4 1_555 1_555
Na1_4 N1_4 1_555 1_555
N1_4 N2_4 1_555 1_555
N2_4 C2_4 1_555 1_555
N3_4 N1_4 1_555 1_555
C1_4 N3_4 1_555 1_555
C2_4 C1_4 1_555 1_555
H2_4 C2_4 1_555 1_555
B1_4 N2_4 1_555 1_555
H3_4 B1_4 1_555 1_555
N4_4 Na1_4 1_555 1_555
N5_4 B1_4 1_555 1_555
N19 N4_4 1_555 1_555
C3_4 N19 1_555 1_555
C4_4 N5_4 1_555 1_555
H5_4 C4_4 1_555 1_555
N7_4 Na1_4 1_555 1_555
N8_4 B1_4 1_555 1_555
N20_2 N7_4 1_555 1_555
C5_4 N20_2 1_555 1_555
H6_3 C5_4 1_555 1_555
C6_4 N8_4 1_555 1_555
H7_4 C6_4 1_555 1_555
N10_4 Na1_4 1_555 1_555
N11_4 N10_4 1_555 1_555
N21_2 N10_4 1_555 1_555
C7_4 N21_2 1_555 1_555
H8_4 C7_4 1_555 1_555
C8_4 N11_4 1_555 1_555
H9_4 C8_4 1_555 1_555
N13_4 Na1_4 1_555 1_555
N22 N13_4 1_555 1_555
C9_4 N22 1_555 1_555
H11_4 C9_4 1_555 1_555
N4_4 N5_4 1_555 1_555
C3_4 C4_4 1_555 1_555
N7_4 N8_4 1_555 1_555
C5_4 C6_4 1_555 1_555
C7_4 C8_4 1_555 1_555
N13_4 N14_4 1_555 1_555
N13 H15_5 1_555 1_555
N13_4 H15_6 1_555 1_555
N13_2 H15_7 1_555 1_555
N13_3 H15_8 1_555 1_555
N10 H15_9 1_555 1_555
N10_3 H15_10 1_555 1_555
N10_4 H15_11 1_555 1_555
N10_2 H15_12 1_555 1_555
N7_2 H15_13 1_555 1_555
N7 H15_14 1_555 1_555
N7_3 H15_15 1_555 1_555
N7_4 H15_16 1_555 1_555
N4_2 H15_17 1_555 1_555
N4_4 H15_18 1_555 1_555
N4 H15_19 1_555 1_555
N4_3 H15_20 1_555 1_555
N1_2 H15_21 1_555 1_555
N1_3 H15_22 1_555 1_555
N1_4 H15_23 1_555 1_555
N1 H15_24 1_555 1_555
H10_4 B2_4 1_555 1_555

#END
