
###############################################################################
#
# This file contains modified crystal structure data generated from the
# MOF subset of the Cambridge Structural Database (CSD) v543 
# hosted by the Cambridge Crystallographic Data Centre (CCDC).
#
# This work is licensed under the Creative Commons
# Attribution-NonCommercial-ShareAlike 4.0 International License.
# To view a copy of this license, visit
# http://creativecommons.org/licenses/by-nc-sa/4.0/
# or send a letter to
# Creative Commons, PO Box 1866, Mountain View, CA 94042, USA.
#
# CIF created using the CSD Python API on 29 September 2022
# The structure has been converted into the P1 space group
# The structure has a 3D framework
# The original CSD entry QINZOC is in the monoclinic crystal system
# The framework has been calculated to contain at least 10.0% void space
# The void calculation uses a probe of radius 1.32A, grid spacing 0.4
# H atom positions have been added when not included in the experimental data
#
###############################################################################

data_QINZOC
_chemical_formula_moiety         '(C200 H192 N24 O60 S16 Tb8)n'
_symmetry_cell_setting           triclinic
_symmetry_space_group_name_H-M   'P 1'
_symmetry_Int_Tables_number      1
_space_group_name_Hall           'P 1'
loop_
_symmetry_equiv_pos_site_id
_symmetry_equiv_pos_as_xyz
1 x,y,z
_cell_length_a                   27.0558(8)
_cell_length_b                   16.7945(5)
_cell_length_c                   28.1386(1)
_cell_angle_alpha                90
_cell_angle_beta                 102.086(1)
_cell_angle_gamma                90
_cell_volume                     12502.5
loop_
_atom_site_label
_atom_site_type_symbol
_atom_site_fract_x
_atom_site_fract_y
_atom_site_fract_z
C36 C 0.2405(11) 0.0160(16) 0.0124(9)
C37 C 0.2291(11) 0.1030(16) 0.0164(9)
O11 O 0.1995(9) 0.1264(9) 0.0419(7)
Tb5 Tb 0.20009(6) 0.26698(8) 0.04538(5)
O12 O 0.2522(8) 0.1524(11) 0.9937(6)
Tb6 Tb 0.29991(6) 0.23302(8) 0.95462(5)
H17 H 0.29682 0.0382821 0.969707
O1 O 0.3402(6) 0.2496(9) 0.0358(6)
O2 O 0.2838(7) 0.2344(11) 0.0842(6)
O4 O 0.2478(8) 0.3476(11) 0.0063(6)
N1 N 0.4780(9) 0.2520(13) 0.2520(9)
N2 N 0.2340(9) 0.7265(17) 0.0061(8)
C1 C 0.3268(11) 0.2442(15) 0.0744(9)
C2 C 0.3678(10) 0.2450(15) 0.1227(9)
C3 C 0.3543(12) 0.2446(16) 0.1688(10)
C4 C 0.3912(12) 0.2456(17) 0.2114(10)
C5 C 0.4421(12) 0.2501(16) 0.2047(10)
C6 C 0.4588(10) 0.2498(15) 0.1606(9)
C7 C 0.4188(11) 0.2485(16) 0.1178(9)
C10 C 0.2239(12) 0.5059(17) 0.0139(10)
C11 C 0.2155(13) 0.590(2) 0.0186(11)
C23 C 0.4226(15) 0.053(2) 0.0421(12)
N4 N 0.5220(9) 0.2520(13) 0.2480(9)
C26 C 0.5579(12) 0.2501(16) 0.2953(10)
C27 C 0.6088(12) 0.2456(17) 0.2886(10)
C28 C 0.6457(12) 0.2446(16) 0.3312(10)
C29 C 0.6322(10) 0.2450(15) 0.3773(9)
C30 C 0.6732(11) 0.2442(15) 0.4256(9)
O9 O 0.6598(6) 0.2496(9) 0.4642(6)
O10 O 0.7162(7) 0.2344(11) 0.4158(6)
C31 C 0.5812(11) 0.2485(16) 0.3822(9)
C32 C 0.5412(10) 0.2498(15) 0.3394(9)
C33 C 0.2569(14) 0.857(2) 0.0032(12)
C38 C 0.2132(12) 0.9643(18) 0.0351(10)
C39 C 0.2204(14) 0.880(2) 0.0324(11)
Tb2 Tb 0.70009(6) 0.23302(8) 0.54538(5)
S3 S 0.5852(4) 0.1327(5) 0.5014(3)
O15 O 0.6412(8) 0.1243(11) 0.5305(7)
C47 C 0.5491(16) 0.086(2) 0.5430(13)
C48 C 0.5774(15) 0.053(2) 0.4579(12)
S4 S 0.6954(4) 0.1017(5) 0.6408(3)
O16 O 0.7236(8) 0.1270(10) 0.6026(6)
C49 C 0.7356(14) 0.1173(18) 0.6992(11)
Tb4 Tb 0.79991(6) 0.26698(8) 0.45462(5)
O19 O 0.7838(7) 0.2656(11) 0.5842(6)
O20 O 0.6995(9) 0.3736(9) 0.5419(7)
O21 O 0.7478(8) 0.1524(11) 0.5063(6)
O22 O 0.6179(7) 0.2767(11) 0.5653(6)
O23 O 0.6851(8) 0.2780(11) 0.6239(6)
H2 H 0.31455 0.243496 0.170826
H8 H 0.20318 0.461718 0.0302931
H10 H 0.382027 0.243137 0.247253
H11 H 0.188014 0.611439 0.0388775
H14 H 0.498652 0.250493 0.158944
H15 H 0.427744 0.250201 0.0818378
H16 H 0.617973 0.243137 0.252747
H18 H 0.572256 0.250201 0.418162
H20 H 0.186053 0.987676 0.0551627
H24 H 0.200488 0.836951 0.0504625
H25 H 0.501348 0.250493 0.341056
H26 H 0.68545 0.243496 0.329174
H28 H 0.460842 0.0543913 0.0640918
H29 H 0.39553 0.0600308 0.0655019
H38 H 0.556209 0.118159 0.577366
H39 H 0.508895 0.0880664 0.526699
H40 H 0.560932 0.024267 0.549438
H42 H 0.539158 0.0543913 0.435908
H43 H 0.60447 0.0600308 0.434498
H46 H 0.74553 0.180103 0.703558
H47 H 0.715876 0.0993248 0.727459
H48 H 0.769853 0.0819636 0.702115
S1 S 0.4148(4) 0.1327(5) 0.9986(3)
S2 S 0.3046(4) 0.1017(5) 0.8592(3)
O3 O 0.3005(9) 0.3736(9) 0.9581(7)
O5 O 0.3821(7) 0.2767(11) 0.9347(6)
O6 O 0.3149(8) 0.2780(11) 0.8761(6)
O7 O 0.3588(8) 0.1243(11) 0.9695(7)
O8 O 0.2764(8) 0.1270(10) 0.8974(6)
N3 N 0.5155(15) 0.3149(17) 0.7671(12)
C8 C 0.2709(11) 0.3970(16) 0.9836(9)
C9 C 0.2595(11) 0.4840(16) 0.9876(9)
C12 C 0.2431(14) 0.643(2) 0.9968(12)
C13 C 0.2796(14) 0.620(2) 0.9676(11)
C14 C 0.2868(12) 0.5357(18) 0.9649(10)
C15 C 0.3626(13) 0.2834(18) 0.8893(11)
C16 C 0.3966(12) 0.2993(16) 0.8533(11)
C17 C 0.4508(15) 0.310(2) 0.8767(13)
C18 C 0.481(2) 0.318(3) 0.8422(18)
C19 C 0.4617(17) 0.313(2) 0.7957(15)
C20 C 0.4057(16) 0.298(2) 0.7715(13)
C21 C 0.3752(16) 0.291(2) 0.8072(14)
C22 C 0.4509(16) 0.086(2) 0.9570(13)
C24 C 0.2644(14) 0.1173(18) 0.8008(11)
N5 N 0.2660(9) 0.7735(17) 0.9939(8)
C34 C 0.2845(13) 0.910(2) 0.9814(11)
C35 C 0.2761(12) 0.9941(17) 0.9861(10)
N6 N 0.4845(15) 0.3149(17) 0.7329(12)
C40 C 0.5383(17) 0.313(2) 0.7043(15)
C41 C 0.519(2) 0.318(3) 0.6578(18)
C42 C 0.5492(15) 0.310(2) 0.6233(13)
C43 C 0.6034(12) 0.2993(16) 0.6467(11)
C44 C 0.6374(13) 0.2834(18) 0.6107(11)
C45 C 0.6248(16) 0.291(2) 0.6928(14)
C46 C 0.5943(16) 0.298(2) 0.7285(13)
O17 O 0.2162(7) 0.2656(11) 0.9158(6)
H1 H 0.313947 0.512324 0.944837
H3 H 0.391339 0.293367 0.732445
H4 H 0.334863 0.278973 0.796264
H5 H 0.443791 0.118159 0.922634
H6 H 0.491105 0.0880664 0.973301
H7 H 0.439068 0.024267 0.950562
H9 H 0.52138 0.328601 0.85438
H12 H 0.299512 0.663049 0.949537
H13 H 0.465219 0.311435 0.915842
H19 H 0.311986 0.888561 0.961123
H21 H 0.25447 0.180103 0.796442
H22 H 0.284124 0.0993248 0.772541
H23 H 0.230147 0.0819636 0.797885
H33 H 0.665137 0.278973 0.703736
H37 H 0.47862 0.328601 0.64562
H44 H 0.608661 0.293367 0.767555
H45 H 0.534781 0.311435 0.584158
C36_2 C 0.7595(11) 0.0160(16) 0.4876(9)
C37_2 C 0.7709(11) 0.1030(16) 0.4836(9)
O11_2 O 0.8005(9) 0.1264(9) 0.4581(7)
H17_2 H 0.70318 0.0382821 0.530293
O4_2 O 0.7522(8) 0.3476(11) 0.4937(6)
N2_2 N 0.7660(9) 0.7265(17) 0.4939(8)
C8_2 C 0.7291(11) 0.3970(16) 0.5164(9)
C9_2 C 0.7405(11) 0.4840(16) 0.5124(9)
C10_2 C 0.7761(12) 0.5059(17) 0.4861(10)
C11_2 C 0.7845(13) 0.590(2) 0.4814(11)
C12_2 C 0.7569(14) 0.643(2) 0.5032(12)
C13_2 C 0.7204(14) 0.620(2) 0.5324(11)
C14_2 C 0.7132(12) 0.5357(18) 0.5351(10)
N5_2 N 0.7340(9) 0.7735(17) 0.5061(8)
C33_2 C 0.7431(14) 0.857(2) 0.4968(12)
C34_2 C 0.7155(13) 0.910(2) 0.5186(11)
C35_2 C 0.7239(12) 0.9941(17) 0.5139(10)
C38_2 C 0.7868(12) 0.9643(18) 0.4649(10)
C39_2 C 0.7796(14) 0.880(2) 0.4676(11)
H1_2 H 0.686053 0.512324 0.555163
H8_2 H 0.79682 0.461718 0.469707
H11_2 H 0.811986 0.611439 0.461123
H12_2 H 0.700488 0.663049 0.550463
H19_2 H 0.688014 0.888561 0.538877
H20_2 H 0.813947 0.987676 0.444837
H24_2 H 0.799512 0.836951 0.449537
S1_2 S 0.0852(4) 0.3673(5) 0.0014(3)
S2_2 S 0.1954(4) 0.3983(5) 0.1408(3)
O5_2 O 0.1179(7) 0.2233(11) 0.0653(6)
O6_2 O 0.1851(8) 0.2220(11) 0.1239(6)
O7_2 O 0.1412(8) 0.3757(11) 0.0305(7)
O8_2 O 0.2236(8) 0.3730(10) 0.1026(6)
C15_2 C 0.1374(13) 0.2166(18) 0.1107(11)
C16_2 C 0.1034(12) 0.2007(16) 0.1467(11)
C17_2 C 0.0492(15) 0.190(2) 0.1233(13)
C18_2 C 0.019(2) 0.182(3) 0.1578(18)
C19_2 C 0.0383(17) 0.187(2) 0.2043(15)
C20_2 C 0.0943(16) 0.202(2) 0.2285(13)
C21_2 C 0.1248(16) 0.209(2) 0.1928(14)
C22_2 C 0.0491(16) 0.414(2) 0.0430(13)
C24_2 C 0.2356(14) 0.3827(18) 0.1992(11)
C25 C 0.1951(12) 0.5055(17) 0.1403(10)
N6_2 N 0.0155(15) 0.1851(17) 0.2671(12)
H3_2 H 0.108661 0.206633 0.267555
H4_2 H 0.165137 0.221027 0.203736
H5_2 H 0.0562088 0.381841 0.077366
H6_2 H 0.00889495 0.411934 0.0266992
H7_2 H 0.0609324 0.475733 0.0494383
H13_2 H 0.0347811 0.188565 0.0841581
H21_2 H 0.24553 0.319897 0.203558
H22_2 H 0.215876 0.400675 0.227459
H23_2 H 0.269853 0.418036 0.202115
H30 H 0.233841 0.52739 0.14866
H31 H 0.175039 0.527335 0.167442
H32 H 0.176238 0.526615 0.104496
H37_2 H 0.0213796 0.171399 0.35438
O1_2 O 0.1598(6) 0.2504(9) 0.9642(6)
N1_2 N 0.0220(9) 0.2480(13) 0.7480(9)
C1_2 C 0.1732(11) 0.2558(15) 0.9256(9)
C2_2 C 0.1322(10) 0.2550(15) 0.8773(9)
C3_2 C 0.1457(12) 0.2554(16) 0.8312(10)
C4_2 C 0.1088(12) 0.2544(17) 0.7886(10)
C5_2 C 0.0579(12) 0.2499(16) 0.7953(10)
C6_2 C 0.0412(10) 0.2502(15) 0.8394(9)
C7_2 C 0.0812(11) 0.2515(16) 0.8822(9)
C23_2 C 0.0774(15) 0.447(2) 0.9579(12)
H2_2 H 0.18545 0.256504 0.829174
H10_2 H 0.117973 0.256863 0.752747
H14_2 H 0.00134806 0.249507 0.841056
H15_2 H 0.0722557 0.249799 0.918162
H27 H 0.0838436 0.503743 0.97692
H28_2 H 0.0391576 0.445609 0.935908
H29_2 H 0.10447 0.439969 0.934498
N3_2 N 0.9845(15) 0.1851(17) 0.2329(12)
C40_2 C 0.9617(17) 0.187(2) 0.2957(15)
C41_2 C 0.981(2) 0.182(3) 0.3422(18)
C42_2 C 0.9508(15) 0.190(2) 0.3767(13)
C43_2 C 0.8966(12) 0.2007(16) 0.3533(11)
C44_2 C 0.8626(13) 0.2166(18) 0.3893(11)
O13 O 0.8821(7) 0.2233(11) 0.4347(6)
O14 O 0.8149(8) 0.2220(11) 0.3761(6)
C45_2 C 0.8752(16) 0.209(2) 0.3072(14)
C46_2 C 0.9057(16) 0.202(2) 0.2715(13)
H9_2 H 0.97862 0.171399 0.14562
H33_2 H 0.834863 0.221027 0.296264
H44_2 H 0.891339 0.206633 0.232445
H45_2 H 0.965219 0.188565 0.415842
N4_2 N 0.9780(9) 0.2480(13) 0.7520(9)
C26_2 C 0.9421(12) 0.2499(16) 0.7047(10)
C27_2 C 0.8912(12) 0.2544(17) 0.7114(10)
C28_2 C 0.8543(12) 0.2554(16) 0.6688(10)
C29_2 C 0.8678(10) 0.2550(15) 0.6227(9)
C30_2 C 0.8268(11) 0.2558(15) 0.5744(9)
O9_2 O 0.8402(6) 0.2504(9) 0.5358(6)
C31_2 C 0.9188(11) 0.2515(16) 0.6178(9)
C32_2 C 0.9588(10) 0.2502(15) 0.6606(9)
S3_2 S 0.9148(4) 0.3673(5) 0.4986(3)
O15_2 O 0.8588(8) 0.3757(11) 0.4695(7)
C47_2 C 0.9509(16) 0.414(2) 0.4570(13)
C48_2 C 0.9226(15) 0.447(2) 0.5421(12)
S4_2 S 0.8046(4) 0.3983(5) 0.3592(3)
O16_2 O 0.7764(8) 0.3730(10) 0.3974(6)
C49_2 C 0.7644(14) 0.3827(18) 0.3008(11)
C50 C 0.8049(12) 0.5055(17) 0.3597(10)
H16_2 H 0.882027 0.256863 0.747253
H18_2 H 0.927744 0.249799 0.581838
H25_2 H 0.998652 0.249507 0.658944
H26_2 H 0.81455 0.256504 0.670826
H34 H 0.766159 0.52739 0.35134
H35 H 0.824961 0.527335 0.332558
H36 H 0.823762 0.526615 0.395504
H38_2 H 0.943791 0.381841 0.422634
H39_2 H 0.991105 0.411934 0.473301
H40_2 H 0.939068 0.475733 0.450562
H41 H 0.916156 0.503743 0.52308
H42_2 H 0.960842 0.445609 0.564092
H43_2 H 0.89553 0.439969 0.565502
H46_2 H 0.75447 0.319897 0.296442
H47_2 H 0.784124 0.400675 0.272541
H48_2 H 0.730147 0.418036 0.297885
C50_2 C 0.6951(12) 0.9945(17) 0.6403(10)
H27_2 H 0.416156 0.996257 0.0230798
H34_2 H 0.733841 0.97261 0.64866
H35_2 H 0.675039 0.972665 0.667442
H36_2 H 0.676238 0.973385 0.604496
H41_2 H 0.583844 0.996257 0.47692
C25_2 C 0.3049(12) 0.9945(17) 0.8597(10)
H30_2 H 0.266159 0.97261 0.85134
H31_2 H 0.324961 0.972665 0.832558
H32_2 H 0.323762 0.973385 0.895504
N4_3 N 0.0220(9) 0.7520(13) 0.2480(9)
C26_3 C 0.0579(12) 0.7501(16) 0.2953(10)
C27_3 C 0.1088(12) 0.7456(17) 0.2886(10)
C28_3 C 0.1457(12) 0.7446(16) 0.3312(10)
C29_3 C 0.1322(10) 0.7450(15) 0.3773(9)
C30_3 C 0.1732(11) 0.7442(15) 0.4256(9)
O9_3 O 0.1598(6) 0.7496(9) 0.4642(6)
O10_2 O 0.2162(7) 0.7344(11) 0.4158(6)
C31_3 C 0.0812(11) 0.7485(16) 0.3822(9)
C32_3 C 0.0412(10) 0.7498(15) 0.3394(9)
Tb2_2 Tb 0.20009(6) 0.73302(8) 0.54538(5)
S3_3 S 0.0852(4) 0.6327(5) 0.5014(3)
O15_3 O 0.1412(8) 0.6243(11) 0.5305(7)
C47_3 C 0.0491(16) 0.586(2) 0.5430(13)
C48_3 C 0.0774(15) 0.553(2) 0.4579(12)
S4_3 S 0.1954(4) 0.6017(5) 0.6408(3)
O16_3 O 0.2236(8) 0.6270(10) 0.6026(6)
C49_3 C 0.2356(14) 0.6173(18) 0.6992(11)
C50_3 C 0.1951(12) 0.4945(17) 0.6403(10)
Tb4_2 Tb 0.29991(6) 0.76698(8) 0.45462(5)
O19_2 O 0.2838(7) 0.7656(11) 0.5842(6)
O20_2 O 0.1995(9) 0.8736(9) 0.5419(7)
O21_2 O 0.2478(8) 0.6524(11) 0.5063(6)
O22_2 O 0.1179(7) 0.7767(11) 0.5653(6)
O23_2 O 0.1851(8) 0.7780(11) 0.6239(6)
H16_3 H 0.117973 0.743137 0.252747
H18_3 H 0.0722557 0.750201 0.418162
H25_3 H 0.00134806 0.750493 0.341056
H26_3 H 0.18545 0.743496 0.329174
H34_3 H 0.233841 0.47261 0.64866
H35_3 H 0.175039 0.472665 0.667442
H36_3 H 0.176238 0.473385 0.604496
H38_3 H 0.0562088 0.618159 0.577366
H39_3 H 0.00889495 0.588066 0.526699
H40_3 H 0.0609324 0.524267 0.549438
H41_3 H 0.0838436 0.496257 0.47692
H42_3 H 0.0391576 0.554391 0.435908
H43_3 H 0.10447 0.560031 0.434498
H46_3 H 0.24553 0.680103 0.703558
H47_3 H 0.215876 0.599325 0.727459
H48_3 H 0.269853 0.581964 0.702115
N3_3 N 0.0155(15) 0.8149(17) 0.7671(12)
C40_3 C 0.0383(17) 0.813(2) 0.7043(15)
C41_3 C 0.019(2) 0.818(3) 0.6578(18)
C42_3 C 0.0492(15) 0.810(2) 0.6233(13)
C43_3 C 0.1034(12) 0.7993(16) 0.6467(11)
C44_3 C 0.1374(13) 0.7834(18) 0.6107(11)
C45_3 C 0.1248(16) 0.791(2) 0.6928(14)
C46_3 C 0.0943(16) 0.798(2) 0.7285(13)
H9_3 H 0.0213796 0.828601 0.85438
H33_3 H 0.165137 0.778973 0.703736
H44_3 H 0.108661 0.793367 0.767555
H45_3 H 0.0347811 0.811435 0.584158
N2_3 N 0.7340(9) 0.2265(17) 0.0061(8)
C10_3 C 0.7239(12) 0.0059(17) 0.0139(10)
C11_3 C 0.7155(13) 0.090(2) 0.0186(11)
C33_3 C 0.7569(14) 0.357(2) 0.0032(12)
C36_3 C 0.7405(11) 0.5160(16) 0.0124(9)
C37_3 C 0.7291(11) 0.6030(16) 0.0164(9)
O11_3 O 0.6995(9) 0.6264(9) 0.0419(7)
C38_3 C 0.7132(12) 0.4643(18) 0.0351(10)
C39_3 C 0.7204(14) 0.380(2) 0.0324(11)
Tb5_2 Tb 0.70009(6) 0.76698(8) 0.04538(5)
H11_3 H 0.688014 0.111439 0.0388775
H20_3 H 0.686053 0.487676 0.0551627
H24_3 H 0.700488 0.336951 0.0504625
C12_3 C 0.7431(14) 0.143(2) 0.9968(12)
C13_3 C 0.7796(14) 0.120(2) 0.9676(11)
C14_3 C 0.7868(12) 0.0357(18) 0.9649(10)
N5_3 N 0.7660(9) 0.2735(17) 0.9939(8)
C34_3 C 0.7845(13) 0.410(2) 0.9814(11)
C35_3 C 0.7761(12) 0.4941(17) 0.9861(10)
O12_2 O 0.7522(8) 0.6524(11) 0.9937(6)
Tb6_2 Tb 0.79991(6) 0.73302(8) 0.95462(5)
H1_3 H 0.813947 0.0123236 0.944837
H12_3 H 0.799512 0.163049 0.949537
H17_3 H 0.79682 0.538282 0.969707
H19_3 H 0.811986 0.388561 0.961123
O1_3 O 0.8402(6) 0.7496(9) 0.0358(6)
O2_2 O 0.7838(7) 0.7344(11) 0.0842(6)
O4_3 O 0.7478(8) 0.8476(11) 0.0063(6)
N1_3 N 0.9780(9) 0.7520(13) 0.2520(9)
C1_3 C 0.8268(11) 0.7442(15) 0.0744(9)
C2_3 C 0.8678(10) 0.7450(15) 0.1227(9)
C3_3 C 0.8543(12) 0.7446(16) 0.1688(10)
C4_3 C 0.8912(12) 0.7456(17) 0.2114(10)
C5_3 C 0.9421(12) 0.7501(16) 0.2047(10)
C6_3 C 0.9588(10) 0.7498(15) 0.1606(9)
C7_3 C 0.9188(11) 0.7485(16) 0.1178(9)
C23_3 C 0.9226(15) 0.553(2) 0.0421(12)
H2_3 H 0.81455 0.743496 0.170826
H8_3 H 0.70318 0.961718 0.0302931
H10_3 H 0.882027 0.743137 0.247253
H14_3 H 0.998652 0.750493 0.158944
H15_3 H 0.927744 0.750201 0.0818378
H27_3 H 0.916156 0.496257 0.0230798
H28_3 H 0.960842 0.554391 0.0640918
H29_3 H 0.89553 0.560031 0.0655019
S1_3 S 0.9148(4) 0.6327(5) 0.9986(3)
S2_3 S 0.8046(4) 0.6017(5) 0.8592(3)
O3_2 O 0.8005(9) 0.8736(9) 0.9581(7)
O5_3 O 0.8821(7) 0.7767(11) 0.9347(6)
O6_3 O 0.8149(8) 0.7780(11) 0.8761(6)
O7_3 O 0.8588(8) 0.6243(11) 0.9695(7)
O8_3 O 0.7764(8) 0.6270(10) 0.8974(6)
C8_3 C 0.7709(11) 0.8970(16) 0.9836(9)
C9_3 C 0.7595(11) 0.9840(16) 0.9876(9)
C15_3 C 0.8626(13) 0.7834(18) 0.8893(11)
C16_3 C 0.8966(12) 0.7993(16) 0.8533(11)
C17_3 C 0.9508(15) 0.810(2) 0.8767(13)
C18_3 C 0.981(2) 0.818(3) 0.8422(18)
C19_3 C 0.9617(17) 0.813(2) 0.7957(15)
C20_3 C 0.9057(16) 0.798(2) 0.7715(13)
C21_3 C 0.8752(16) 0.791(2) 0.8072(14)
C22_3 C 0.9509(16) 0.586(2) 0.9570(13)
C24_3 C 0.7644(14) 0.6173(18) 0.8008(11)
C25_3 C 0.8049(12) 0.4945(17) 0.8597(10)
N6_3 N 0.9845(15) 0.8149(17) 0.7329(12)
O17_2 O 0.7162(7) 0.7656(11) 0.9158(6)
H3_3 H 0.891339 0.793367 0.732445
H4_3 H 0.834863 0.778973 0.796264
H5_3 H 0.943791 0.618159 0.922634
H6_3 H 0.991105 0.588066 0.973301
H7_3 H 0.939068 0.524267 0.950562
H13_3 H 0.965219 0.811435 0.915842
H21_3 H 0.75447 0.680103 0.796442
H22_3 H 0.784124 0.599325 0.772541
H23_3 H 0.730147 0.581964 0.797885
H30_3 H 0.766159 0.47261 0.85134
H31_3 H 0.824961 0.472665 0.832558
H32_3 H 0.823762 0.473385 0.895504
H37_3 H 0.97862 0.828601 0.64562
N2_4 N 0.2660(9) 0.2265(17) 0.4939(8)
C10_4 C 0.2761(12) 0.0059(17) 0.4861(10)
C11_4 C 0.2845(13) 0.090(2) 0.4814(11)
C12_4 C 0.2569(14) 0.143(2) 0.5032(12)
C13_4 C 0.2204(14) 0.120(2) 0.5324(11)
C14_4 C 0.2132(12) 0.0357(18) 0.5351(10)
N5_4 N 0.2340(9) 0.2735(17) 0.5061(8)
C33_4 C 0.2431(14) 0.357(2) 0.4968(12)
C34_4 C 0.2155(13) 0.410(2) 0.5186(11)
C35_4 C 0.2239(12) 0.4941(17) 0.5139(10)
C36_4 C 0.2595(11) 0.5160(16) 0.4876(9)
C37_4 C 0.2709(11) 0.6030(16) 0.4836(9)
O11_4 O 0.3005(9) 0.6264(9) 0.4581(7)
C38_4 C 0.2868(12) 0.4643(18) 0.4649(10)
C39_4 C 0.2796(14) 0.380(2) 0.4676(11)
H1_4 H 0.186053 0.0123236 0.555163
H11_4 H 0.311986 0.111439 0.461123
H12_4 H 0.200488 0.163049 0.550463
H17_4 H 0.20318 0.538282 0.530293
H19_4 H 0.188014 0.388561 0.538877
H20_4 H 0.313947 0.487676 0.444837
H24_4 H 0.299512 0.336951 0.449537
O4_4 O 0.2522(8) 0.8476(11) 0.4937(6)
C8_4 C 0.2291(11) 0.8970(16) 0.5164(9)
C9_4 C 0.2405(11) 0.9840(16) 0.5124(9)
H8_4 H 0.29682 0.961718 0.469707
S1_4 S 0.5852(4) 0.8673(5) 0.0014(3)
S2_4 S 0.6954(4) 0.8983(5) 0.1408(3)
O5_4 O 0.6179(7) 0.7233(11) 0.0653(6)
O6_4 O 0.6851(8) 0.7220(11) 0.1239(6)
O7_4 O 0.6412(8) 0.8757(11) 0.0305(7)
O8_4 O 0.7236(8) 0.8730(10) 0.1026(6)
N3_4 N 0.4845(15) 0.6851(17) 0.2329(12)
C15_4 C 0.6374(13) 0.7166(18) 0.1107(11)
C16_4 C 0.6034(12) 0.7007(16) 0.1467(11)
C17_4 C 0.5492(15) 0.690(2) 0.1233(13)
C18_4 C 0.519(2) 0.682(3) 0.1578(18)
C19_4 C 0.5383(17) 0.687(2) 0.2043(15)
C20_4 C 0.5943(16) 0.702(2) 0.2285(13)
C21_4 C 0.6248(16) 0.709(2) 0.1928(14)
C22_4 C 0.5491(16) 0.914(2) 0.0430(13)
C24_4 C 0.7356(14) 0.8827(18) 0.1992(11)
N6_4 N 0.5155(15) 0.6851(17) 0.2671(12)
C40_4 C 0.4617(17) 0.687(2) 0.2957(15)
C41_4 C 0.481(2) 0.682(3) 0.3422(18)
C42_4 C 0.4508(15) 0.690(2) 0.3767(13)
C43_4 C 0.3966(12) 0.7007(16) 0.3533(11)
C44_4 C 0.3626(13) 0.7166(18) 0.3893(11)
O13_2 O 0.3821(7) 0.7233(11) 0.4347(6)
O14_2 O 0.3149(8) 0.7220(11) 0.3761(6)
C45_4 C 0.3752(16) 0.709(2) 0.3072(14)
C46_4 C 0.4057(16) 0.702(2) 0.2715(13)
H3_4 H 0.608661 0.706633 0.267555
H4_4 H 0.665137 0.721027 0.203736
H5_4 H 0.556209 0.881841 0.077366
H6_4 H 0.508895 0.911934 0.0266992
H7_4 H 0.560932 0.975733 0.0494383
H9_4 H 0.47862 0.671399 0.14562
H13_4 H 0.534781 0.688565 0.0841581
H21_4 H 0.74553 0.819897 0.203558
H22_4 H 0.715876 0.900675 0.227459
H23_4 H 0.769853 0.918036 0.202115
H33_4 H 0.334863 0.721027 0.296264
H37_4 H 0.52138 0.671399 0.35438
H44_4 H 0.391339 0.706633 0.232445
H45_4 H 0.465219 0.688565 0.415842
O1_4 O 0.6598(6) 0.7504(9) 0.9642(6)
N1_4 N 0.5220(9) 0.7480(13) 0.7480(9)
C1_4 C 0.6732(11) 0.7558(15) 0.9256(9)
C2_4 C 0.6322(10) 0.7550(15) 0.8773(9)
C3_4 C 0.6457(12) 0.7554(16) 0.8312(10)
C4_4 C 0.6088(12) 0.7544(17) 0.7886(10)
C5_4 C 0.5579(12) 0.7499(16) 0.7953(10)
C6_4 C 0.5412(10) 0.7502(15) 0.8394(9)
C7_4 C 0.5812(11) 0.7515(16) 0.8822(9)
C23_4 C 0.5774(15) 0.947(2) 0.9579(12)
N4_4 N 0.4780(9) 0.7480(13) 0.7520(9)
C26_4 C 0.4421(12) 0.7499(16) 0.7047(10)
C27_4 C 0.3912(12) 0.7544(17) 0.7114(10)
C28_4 C 0.3543(12) 0.7554(16) 0.6688(10)
C29_4 C 0.3678(10) 0.7550(15) 0.6227(9)
C30_4 C 0.3268(11) 0.7558(15) 0.5744(9)
O9_4 O 0.3402(6) 0.7504(9) 0.5358(6)
C31_4 C 0.4188(11) 0.7515(16) 0.6178(9)
C32_4 C 0.4588(10) 0.7502(15) 0.6606(9)
S3_4 S 0.4148(4) 0.8673(5) 0.4986(3)
O15_4 O 0.3588(8) 0.8757(11) 0.4695(7)
C47_4 C 0.4509(16) 0.914(2) 0.4570(13)
C48_4 C 0.4226(15) 0.947(2) 0.5421(12)
S4_4 S 0.3046(4) 0.8983(5) 0.3592(3)
O16_4 O 0.2764(8) 0.8730(10) 0.3974(6)
C49_4 C 0.2644(14) 0.8827(18) 0.3008(11)
H2_4 H 0.68545 0.756504 0.829174
H10_4 H 0.617973 0.756863 0.752747
H14_4 H 0.501348 0.749507 0.841056
H15_4 H 0.572256 0.749799 0.918162
H16_4 H 0.382027 0.756863 0.747253
H18_4 H 0.427744 0.749799 0.581838
H25_4 H 0.498652 0.749507 0.658944
H26_4 H 0.31455 0.756504 0.670826
H28_4 H 0.539158 0.945609 0.935908
H29_4 H 0.60447 0.939969 0.934498
H38_4 H 0.443791 0.881841 0.422634
H39_4 H 0.491105 0.911934 0.473301
H40_4 H 0.439068 0.975733 0.450562
H42_4 H 0.460842 0.945609 0.564092
H43_4 H 0.39553 0.939969 0.565502
H46_4 H 0.25447 0.819897 0.296442
H47_4 H 0.284124 0.900675 0.272541
H48_4 H 0.230147 0.918036 0.297885
C25_4 C 0.6951(12) 0.0055(17) 0.1403(10)
H30_4 H 0.733841 0.0273904 0.14866
H31_4 H 0.675039 0.0273346 0.167442
H32_4 H 0.676238 0.0266155 0.104496
C50_4 C 0.3049(12) 0.0055(17) 0.3597(10)
H27_4 H 0.583844 0.00374323 0.97692
H34_4 H 0.266159 0.0273904 0.35134
H35_4 H 0.324961 0.0273346 0.332558
H36_4 H 0.323762 0.0266155 0.395504
H41_4 H 0.416156 0.00374323 0.52308
loop_
_geom_bond_atom_site_label_1
_geom_bond_atom_site_label_2
_geom_bond_site_symmetry_1
_geom_bond_site_symmetry_2
C37 C36 1_555 1_555
O11 C37 1_555 1_555
Tb5 O11 1_555 1_555
Tb6 O12 1_555 1_555
O1 C1 1_555 1_555
O2 C1 1_555 1_555
N1 C5 1_555 1_555
C1 C2 1_555 1_555
C2 C3 1_555 1_555
C3 C4 1_555 1_555
C4 C5 1_555 1_555
C5 C6 1_555 1_555
C6 C7 1_555 1_555
C7 C2 1_555 1_555
C11 C10 1_555 1_555
N4 N1 1_555 1_555
C26 N4 1_555 1_555
C27 C26 1_555 1_555
C28 C27 1_555 1_555
C29 C28 1_555 1_555
C30 C29 1_555 1_555
O9 C30 1_555 1_555
O10 C30 1_555 1_555
C31 C29 1_555 1_555
C32 C26 1_555 1_555
C39 C33 1_555 1_555
Tb2 O9 1_555 1_555
S3 O15 1_555 1_555
O15 Tb2 1_555 1_555
C47 S3 1_555 1_555
C48 S3 1_555 1_555
S4 O16 1_555 1_555
O16 Tb2 1_555 1_555
C49 S4 1_555 1_555
Tb5 O2 1_555 1_555
Tb4 O10 1_555 1_555
O19 Tb2 1_555 1_555
O20 Tb2 1_555 1_555
O21 Tb2 1_555 1_555
O22 Tb2 1_555 1_555
O23 Tb2 1_555 1_555
O4 Tb5 1_555 1_555
C31 C32 1_555 1_555
C38 C39 1_555 1_555
C3 H2 1_555 1_555
C10 H8 1_555 1_555
C4 H10 1_555 1_555
C11 H11 1_555 1_555
C6 H14 1_555 1_555
C7 H15 1_555 1_555
C27 H16 1_555 1_555
C31 H18 1_555 1_555
C38 H20 1_555 1_555
C39 H24 1_555 1_555
C32 H25 1_555 1_555
C28 H26 1_555 1_555
C23 H28 1_555 1_555
C23 H29 1_555 1_555
C47 H38 1_555 1_555
C47 H39 1_555 1_555
C47 H40 1_555 1_555
C48 H42 1_555 1_555
C48 H43 1_555 1_555
C49 H46 1_555 1_555
C49 H47 1_555 1_555
C49 H48 1_555 1_555
S1 O7 1_555 1_555
S2 O8 1_555 1_555
O3 Tb6 1_555 1_555
O5 Tb6 1_555 1_555
O6 Tb6 1_555 1_555
O7 Tb6 1_555 1_555
O8 Tb6 1_555 1_555
N3 C19 1_555 1_555
C8 O3 1_555 1_555
C9 C8 1_555 1_555
C13 C12 1_555 1_555
C14 C9 1_555 1_555
C15 O5 1_555 1_555
C16 C15 1_555 1_555
C17 C16 1_555 1_555
C18 C17 1_555 1_555
C19 C18 1_555 1_555
C20 C19 1_555 1_555
C21 C16 1_555 1_555
C22 S1 1_555 1_555
C24 S2 1_555 1_555
C35 C34 1_555 1_555
N6 N3 1_555 1_555
C40 N6 1_555 1_555
C41 C40 1_555 1_555
C42 C41 1_555 1_555
C43 C42 1_555 1_555
C44 C43 1_555 1_555
O22 C44 1_555 1_555
O23 C44 1_555 1_555
C45 C43 1_555 1_555
C46 C40 1_555 1_555
O17 Tb6 1_555 1_555
O6 C15 1_555 1_555
C13 C14 1_555 1_555
C20 C21 1_555 1_555
C45 C46 1_555 1_555
C14 H1 1_555 1_555
C20 H3 1_555 1_555
C21 H4 1_555 1_555
C22 H5 1_555 1_555
C22 H6 1_555 1_555
C22 H7 1_555 1_555
C18 H9 1_555 1_555
C13 H12 1_555 1_555
C17 H13 1_555 1_555
C34 H19 1_555 1_555
C24 H21 1_555 1_555
C24 H22 1_555 1_555
C24 H23 1_555 1_555
C45 H33 1_555 1_555
C41 H37 1_555 1_555
C46 H44 1_555 1_555
C42 H45 1_555 1_555
C37_2 C36_2 1_555 1_555
O11_2 C37_2 1_555 1_555
O21 C37_2 1_555 1_555
Tb4 O11_2 1_555 1_555
O4_2 C8_2 1_555 1_555
N2_2 C12_2 1_555 1_555
C8_2 O20 1_555 1_555
C9_2 C8_2 1_555 1_555
C10_2 C9_2 1_555 1_555
C11_2 C10_2 1_555 1_555
C12_2 C11_2 1_555 1_555
C13_2 C12_2 1_555 1_555
C14_2 C9_2 1_555 1_555
N5_2 N2_2 1_555 1_555
C33_2 N5_2 1_555 1_555
C34_2 C33_2 1_555 1_555
C35_2 C34_2 1_555 1_555
C39_2 C33_2 1_555 1_555
O4_2 Tb4 1_555 1_555
C13_2 C14_2 1_555 1_555
C38_2 C39_2 1_555 1_555
C14_2 H1_2 1_555 1_555
C10_2 H8_2 1_555 1_555
C11_2 H11_2 1_555 1_555
C13_2 H12_2 1_555 1_555
C34_2 H19_2 1_555 1_555
C38_2 H20_2 1_555 1_555
C39_2 H24_2 1_555 1_555
S1_2 O7_2 1_555 1_555
S2_2 O8_2 1_555 1_555
O5_2 Tb5 1_555 1_555
O6_2 Tb5 1_555 1_555
O7_2 Tb5 1_555 1_555
O8_2 Tb5 1_555 1_555
C15_2 O5_2 1_555 1_555
C16_2 C15_2 1_555 1_555
C17_2 C16_2 1_555 1_555
C18_2 C17_2 1_555 1_555
C19_2 C18_2 1_555 1_555
C20_2 C19_2 1_555 1_555
C21_2 C16_2 1_555 1_555
C22_2 S1_2 1_555 1_555
C24_2 S2_2 1_555 1_555
C25 S2_2 1_555 1_555
O6_2 C15_2 1_555 1_555
C20_2 C21_2 1_555 1_555
C20_2 H3_2 1_555 1_555
C21_2 H4_2 1_555 1_555
C22_2 H5_2 1_555 1_555
C22_2 H6_2 1_555 1_555
C22_2 H7_2 1_555 1_555
C17_2 H13_2 1_555 1_555
C24_2 H21_2 1_555 1_555
C24_2 H22_2 1_555 1_555
C24_2 H23_2 1_555 1_555
C25 H30 1_555 1_555
C25 H31 1_555 1_555
C25 H32 1_555 1_555
O1_2 C1_2 1_555 1_555
O17 C1_2 1_555 1_555
N1_2 C5_2 1_555 1_555
C1_2 C2_2 1_555 1_555
C2_2 C3_2 1_555 1_555
C3_2 C4_2 1_555 1_555
C4_2 C5_2 1_555 1_555
C5_2 C6_2 1_555 1_555
C6_2 C7_2 1_555 1_555
C7_2 C2_2 1_555 1_555
C3_2 H2_2 1_555 1_555
C4_2 H10_2 1_555 1_555
C6_2 H14_2 1_555 1_555
C7_2 H15_2 1_555 1_555
C23_2 H27 1_555 1_555
C23_2 H28_2 1_555 1_555
C23_2 H29_2 1_555 1_555
C41_2 C40_2 1_555 1_555
C42_2 C41_2 1_555 1_555
C43_2 C42_2 1_555 1_555
C44_2 C43_2 1_555 1_555
O13 C44_2 1_555 1_555
O14 C44_2 1_555 1_555
C45_2 C43_2 1_555 1_555
C46_2 C40_2 1_555 1_555
Tb4 O13 1_555 1_555
O14 Tb4 1_555 1_555
C45_2 C46_2 1_555 1_555
C45_2 H33_2 1_555 1_555
C46_2 H44_2 1_555 1_555
C42_2 H45_2 1_555 1_555
C26_2 N4_2 1_555 1_555
C27_2 C26_2 1_555 1_555
C28_2 C27_2 1_555 1_555
C29_2 C28_2 1_555 1_555
C30_2 C29_2 1_555 1_555
O9_2 C30_2 1_555 1_555
O19 C30_2 1_555 1_555
C31_2 C29_2 1_555 1_555
C32_2 C26_2 1_555 1_555
Tb4 O9_2 1_555 1_555
S3_2 O15_2 1_555 1_555
O15_2 Tb4 1_555 1_555
C47_2 S3_2 1_555 1_555
C48_2 S3_2 1_555 1_555
S4_2 O16_2 1_555 1_555
O16_2 Tb4 1_555 1_555
C49_2 S4_2 1_555 1_555
C50 S4_2 1_555 1_555
C31_2 C32_2 1_555 1_555
C27_2 H16_2 1_555 1_555
C31_2 H18_2 1_555 1_555
C32_2 H25_2 1_555 1_555
C28_2 H26_2 1_555 1_555
C50 H34 1_555 1_555
C50 H35 1_555 1_555
C50 H36 1_555 1_555
C47_2 H38_2 1_555 1_555
C47_2 H39_2 1_555 1_555
C47_2 H40_2 1_555 1_555
C48_2 H41 1_555 1_555
C48_2 H42_2 1_555 1_555
C48_2 H43_2 1_555 1_555
C49_2 H46_2 1_555 1_555
C49_2 H47_2 1_555 1_555
C49_2 H48_2 1_555 1_555
C50_2 H34_2 1_555 1_555
C50_2 H35_2 1_555 1_555
C50_2 H36_2 1_555 1_555
C25_2 H30_2 1_555 1_555
C25_2 H31_2 1_555 1_555
C25_2 H32_2 1_555 1_555
C26_3 N4_3 1_555 1_555
C27_3 C26_3 1_555 1_555
C28_3 C27_3 1_555 1_555
C29_3 C28_3 1_555 1_555
C30_3 C29_3 1_555 1_555
O9_3 C30_3 1_555 1_555
O10_2 C30_3 1_555 1_555
C31_3 C29_3 1_555 1_555
C32_3 C26_3 1_555 1_555
Tb2_2 O9_3 1_555 1_555
S3_3 O15_3 1_555 1_555
O15_3 Tb2_2 1_555 1_555
C47_3 S3_3 1_555 1_555
C48_3 S3_3 1_555 1_555
S4_3 O16_3 1_555 1_555
O16_3 Tb2_2 1_555 1_555
C49_3 S4_3 1_555 1_555
C50_3 S4_3 1_555 1_555
Tb4_2 O10_2 1_555 1_555
O19_2 Tb2_2 1_555 1_555
O20_2 Tb2_2 1_555 1_555
O21_2 Tb2_2 1_555 1_555
O22_2 Tb2_2 1_555 1_555
O23_2 Tb2_2 1_555 1_555
C31_3 C32_3 1_555 1_555
C27_3 H16_3 1_555 1_555
C31_3 H18_3 1_555 1_555
C32_3 H25_3 1_555 1_555
C28_3 H26_3 1_555 1_555
C50_3 H34_3 1_555 1_555
C50_3 H35_3 1_555 1_555
C50_3 H36_3 1_555 1_555
C47_3 H38_3 1_555 1_555
C47_3 H39_3 1_555 1_555
C47_3 H40_3 1_555 1_555
C48_3 H41_3 1_555 1_555
C48_3 H42_3 1_555 1_555
C48_3 H43_3 1_555 1_555
C49_3 H46_3 1_555 1_555
C49_3 H47_3 1_555 1_555
C49_3 H48_3 1_555 1_555
C41_3 C40_3 1_555 1_555
C42_3 C41_3 1_555 1_555
C43_3 C42_3 1_555 1_555
C44_3 C43_3 1_555 1_555
O22_2 C44_3 1_555 1_555
O23_2 C44_3 1_555 1_555
C45_3 C43_3 1_555 1_555
C46_3 C40_3 1_555 1_555
C45_3 C46_3 1_555 1_555
C45_3 H33_3 1_555 1_555
C46_3 H44_3 1_555 1_555
C42_3 H45_3 1_555 1_555
C11_3 C10_3 1_555 1_555
C37_3 C36_3 1_555 1_555
O11_3 C37_3 1_555 1_555
C38_3 C36_3 1_555 1_555
C39_3 C33_3 1_555 1_555
Tb5_2 O11_3 1_555 1_555
C38_3 C39_3 1_555 1_555
C11_3 H11_3 1_555 1_555
C38_3 H20_3 1_555 1_555
C39_3 H24_3 1_555 1_555
C13_3 C12_3 1_555 1_555
C35_3 C34_3 1_555 1_555
Tb6_2 O12_2 1_555 1_555
C13_3 C14_3 1_555 1_555
C14_3 H1_3 1_555 1_555
C13_3 H12_3 1_555 1_555
C35_3 H17_3 1_555 1_555
C34_3 H19_3 1_555 1_555
O1_3 C1_3 1_555 1_555
O2_2 C1_3 1_555 1_555
N1_3 C5_3 1_555 1_555
C1_3 C2_3 1_555 1_555
C2_3 C3_3 1_555 1_555
C3_3 C4_3 1_555 1_555
C4_3 C5_3 1_555 1_555
C5_3 C6_3 1_555 1_555
C6_3 C7_3 1_555 1_555
C7_3 C2_3 1_555 1_555
Tb5_2 O2_2 1_555 1_555
O4_3 Tb5_2 1_555 1_555
C3_3 H2_3 1_555 1_555
C4_3 H10_3 1_555 1_555
C6_3 H14_3 1_555 1_555
C7_3 H15_3 1_555 1_555
C23_3 H27_3 1_555 1_555
C23_3 H28_3 1_555 1_555
C23_3 H29_3 1_555 1_555
S1_3 O7_3 1_555 1_555
S2_3 O8_3 1_555 1_555
O3_2 Tb6_2 1_555 1_555
O5_3 Tb6_2 1_555 1_555
O6_3 Tb6_2 1_555 1_555
O7_3 Tb6_2 1_555 1_555
O8_3 Tb6_2 1_555 1_555
C8_3 O3_2 1_555 1_555
C9_3 C8_3 1_555 1_555
C15_3 O5_3 1_555 1_555
C16_3 C15_3 1_555 1_555
C17_3 C16_3 1_555 1_555
C18_3 C17_3 1_555 1_555
C19_3 C18_3 1_555 1_555
C20_3 C19_3 1_555 1_555
C21_3 C16_3 1_555 1_555
C22_3 S1_3 1_555 1_555
C24_3 S2_3 1_555 1_555
C25_3 S2_3 1_555 1_555
O17_2 Tb6_2 1_555 1_555
O6_3 C15_3 1_555 1_555
C20_3 C21_3 1_555 1_555
C20_3 H3_3 1_555 1_555
C21_3 H4_3 1_555 1_555
C22_3 H5_3 1_555 1_555
C22_3 H6_3 1_555 1_555
C22_3 H7_3 1_555 1_555
C17_3 H13_3 1_555 1_555
C24_3 H21_3 1_555 1_555
C24_3 H22_3 1_555 1_555
C24_3 H23_3 1_555 1_555
C25_3 H30_3 1_555 1_555
C25_3 H31_3 1_555 1_555
C25_3 H32_3 1_555 1_555
N2_4 C12_4 1_555 1_555
C11_4 C10_4 1_555 1_555
C12_4 C11_4 1_555 1_555
C13_4 C12_4 1_555 1_555
N5_4 N2_4 1_555 1_555
C33_4 N5_4 1_555 1_555
C34_4 C33_4 1_555 1_555
C35_4 C34_4 1_555 1_555
C36_4 C35_4 1_555 1_555
C37_4 C36_4 1_555 1_555
O11_4 C37_4 1_555 1_555
O21_2 C37_4 1_555 1_555
C38_4 C36_4 1_555 1_555
C39_4 C33_4 1_555 1_555
Tb4_2 O11_4 1_555 1_555
C13_4 C14_4 1_555 1_555
C38_4 C39_4 1_555 1_555
C14_4 H1_4 1_555 1_555
C11_4 H11_4 1_555 1_555
C13_4 H12_4 1_555 1_555
C35_4 H17_4 1_555 1_555
C34_4 H19_4 1_555 1_555
C38_4 H20_4 1_555 1_555
C39_4 H24_4 1_555 1_555
O4_4 C8_4 1_555 1_555
C8_4 O20_2 1_555 1_555
C9_4 C8_4 1_555 1_555
O4_4 Tb4_2 1_555 1_555
S1_4 O7_4 1_555 1_555
S2_4 O8_4 1_555 1_555
O5_4 Tb5_2 1_555 1_555
O6_4 Tb5_2 1_555 1_555
O7_4 Tb5_2 1_555 1_555
O8_4 Tb5_2 1_555 1_555
N3_4 C19_4 1_555 1_555
C15_4 O5_4 1_555 1_555
C16_4 C15_4 1_555 1_555
C17_4 C16_4 1_555 1_555
C18_4 C17_4 1_555 1_555
C19_4 C18_4 1_555 1_555
C20_4 C19_4 1_555 1_555
C21_4 C16_4 1_555 1_555
C22_4 S1_4 1_555 1_555
C24_4 S2_4 1_555 1_555
N6_4 N3_4 1_555 1_555
C40_4 N6_4 1_555 1_555
C41_4 C40_4 1_555 1_555
C42_4 C41_4 1_555 1_555
C43_4 C42_4 1_555 1_555
C44_4 C43_4 1_555 1_555
O13_2 C44_4 1_555 1_555
O14_2 C44_4 1_555 1_555
C45_4 C43_4 1_555 1_555
C46_4 C40_4 1_555 1_555
Tb4_2 O13_2 1_555 1_555
O6_4 C15_4 1_555 1_555
C20_4 C21_4 1_555 1_555
O14_2 Tb4_2 1_555 1_555
C45_4 C46_4 1_555 1_555
C20_4 H3_4 1_555 1_555
C21_4 H4_4 1_555 1_555
C22_4 H5_4 1_555 1_555
C22_4 H6_4 1_555 1_555
C22_4 H7_4 1_555 1_555
C18_4 H9_4 1_555 1_555
C17_4 H13_4 1_555 1_555
C24_4 H21_4 1_555 1_555
C24_4 H22_4 1_555 1_555
C24_4 H23_4 1_555 1_555
C45_4 H33_4 1_555 1_555
C41_4 H37_4 1_555 1_555
C46_4 H44_4 1_555 1_555
C42_4 H45_4 1_555 1_555
O1_4 C1_4 1_555 1_555
O17_2 C1_4 1_555 1_555
N1_4 C5_4 1_555 1_555
C1_4 C2_4 1_555 1_555
C2_4 C3_4 1_555 1_555
C3_4 C4_4 1_555 1_555
C4_4 C5_4 1_555 1_555
C5_4 C6_4 1_555 1_555
C6_4 C7_4 1_555 1_555
C7_4 C2_4 1_555 1_555
N4_4 N1_4 1_555 1_555
C26_4 N4_4 1_555 1_555
C27_4 C26_4 1_555 1_555
C28_4 C27_4 1_555 1_555
C29_4 C28_4 1_555 1_555
C30_4 C29_4 1_555 1_555
O9_4 C30_4 1_555 1_555
O19_2 C30_4 1_555 1_555
C31_4 C29_4 1_555 1_555
C32_4 C26_4 1_555 1_555
Tb4_2 O9_4 1_555 1_555
S3_4 O15_4 1_555 1_555
O15_4 Tb4_2 1_555 1_555
C47_4 S3_4 1_555 1_555
C48_4 S3_4 1_555 1_555
S4_4 O16_4 1_555 1_555
O16_4 Tb4_2 1_555 1_555
C49_4 S4_4 1_555 1_555
C31_4 C32_4 1_555 1_555
C3_4 H2_4 1_555 1_555
C4_4 H10_4 1_555 1_555
C6_4 H14_4 1_555 1_555
C7_4 H15_4 1_555 1_555
C27_4 H16_4 1_555 1_555
C31_4 H18_4 1_555 1_555
C32_4 H25_4 1_555 1_555
C28_4 H26_4 1_555 1_555
C23_4 H28_4 1_555 1_555
C23_4 H29_4 1_555 1_555
C47_4 H38_4 1_555 1_555
C47_4 H39_4 1_555 1_555
C47_4 H40_4 1_555 1_555
C48_4 H42_4 1_555 1_555
C48_4 H43_4 1_555 1_555
C49_4 H46_4 1_555 1_555
C49_4 H47_4 1_555 1_555
C49_4 H48_4 1_555 1_555
C25_4 H30_4 1_555 1_555
C25_4 H31_4 1_555 1_555
C25_4 H32_4 1_555 1_555
C50_4 H34_4 1_555 1_555
C50_4 H35_4 1_555 1_555
C50_4 H36_4 1_555 1_555

#END
