
###############################################################################
#
# This file contains modified crystal structure data generated from the
# MOF subset of the Cambridge Structural Database (CSD) v543 
# hosted by the Cambridge Crystallographic Data Centre (CCDC).
#
# This work is licensed under the Creative Commons
# Attribution-NonCommercial-ShareAlike 4.0 International License.
# To view a copy of this license, visit
# http://creativecommons.org/licenses/by-nc-sa/4.0/
# or send a letter to
# Creative Commons, PO Box 1866, Mountain View, CA 94042, USA.
#
# CIF created using the CSD Python API on 29 September 2022
# The structure has been converted into the P1 space group
# The structure has a 3D framework
# The original CSD entry QIPQEO is in the monoclinic crystal system
# The framework has been calculated to contain at least 10.0% void space
# The void calculation uses a probe of radius 1.32A, grid spacing 0.4
#
###############################################################################

data_QIPQEO
_chemical_formula_moiety         '(C296 H240 Cu12 Mn6 Mo24 N24 O136)n'
_symmetry_cell_setting           triclinic
_symmetry_space_group_name_H-M   'P 1'
_symmetry_Int_Tables_number      1
_space_group_name_Hall           'P 1'
loop_
_symmetry_equiv_pos_site_id
_symmetry_equiv_pos_as_xyz
1 x,y,z
_cell_length_a                   23.454(5)
_cell_length_b                   21.606(4)
_cell_length_c                   25.214(5)
_cell_angle_alpha                90
_cell_angle_beta                 103.396(3)
_cell_angle_gamma                90
_cell_volume                     12429.5
loop_
_atom_site_label
_atom_site_type_symbol
_atom_site_fract_x
_atom_site_fract_y
_atom_site_fract_z
O3 O 0.1480(2) 0.2270(2) 0.4361(2)
O4 O 0.1570(3) 0.1479(2) 0.4937(2)
C2 C 0.1619(6) 0.1433(4) 0.3515(3)
H2 H 0.157502 0.185024 0.342298
C3 C 0.1666(6) 0.1004(5) 0.3131(4)
H3 H 0.163012 0.113173 0.277245
H7 H 0.182304 0.005593 0.129163
C10 C 0.1763(5) 0.0396(4) 0.3255(4)
C12 C 0.1783(4) 0.0213(4) 0.3772(3)
C13 C 0.1637(4) 0.1246(4) 0.4036(3)
C14 C 0.1549(4) 0.1701(4) 0.4464(3)
H11 H 0.189511 0.040355 0.223820
C27 C 0.1730(4) 0.0632(4) 0.4168(4)
H20 H 0.175680 0.050035 0.452396
Cu9 Cu 0.20520(4) 0.30185(4) 0.48811(4)
Cu12 Cu 0.15382(4) 0.20803(4) 0.54914(3)
Cu2 Cu 0.15382(4) 0.79197(4) 0.04914(3)
N1 N 0.1834(3) 0.3634(3) 0.4294(2)
N2 N 0.1757(3) 0.8589(3) 0.1141(2)
N3 N 0.0663(3) 0.7901(3) 0.0361(2)
O1 O 0.1718(2) 0.6494(2) 0.03805(18)
O2 O 0.1556(3) 0.7210(2) 0.0969(2)
O17 O 0.2336(2) 0.7621(2) 0.0442(2)
C1 C 0.1816(4) 0.9919(4) 0.2844(3)
H1 H 0.182036 0.950997 0.295986
C4 C 0.1584(4) 0.5291(4) 0.2053(3)
C5 C 0.0424(4) 0.7842(6) 0.0787(4)
H4 H 0.067166 0.784509 0.113358
C7 C 0.1847(4) 0.9512(4) 0.1942(3)
C9 C 0.1818(4) 0.9645(4) 0.1399(3)
C11 C 0.1606(4) 0.4825(4) 0.2483(3)
H8 H 0.160446 0.441255 0.237752
H9 H 0.183383 0.979574 0.386107
C16 C 0.1856(4) 0.9998(4) 0.2349(4)
C17 C 0.1679(4) 0.5124(3) 0.1555(3)
H12 H 0.173340 0.470790 0.148648
C18 C 0.1484(4) 0.6337(4) 0.1745(3)
H13 H 0.140260 0.674797 0.180702
C19 C 0.1628(4) 0.4931(4) 0.3003(3)
H14 H 0.161407 0.534422 0.310182
C20 C 0.1669(3) 0.4496(3) 0.3428(3)
C21 C 0.1488(5) 0.5914(4) 0.2144(3)
H15 H 0.142660 0.604011 0.247876
C22 C 0.1801(5) 0.8452(4) 0.1669(3)
H16 H 0.180032 0.803530 0.176246
C23 C 0.1673(4) 0.3457(4) 0.3774(3)
H17 H 0.161453 0.303696 0.370145
C24 C 0.1600(4) 0.6171(4) 0.1244(3)
C25 C 0.1697(4) 0.5549(4) 0.1155(3)
H18 H 0.177428 0.542224 0.082635
C26 C 0.1783(4) 0.9203(3) 0.1028(3)
H19 H 0.177643 0.931897 0.067186
C29 C 0.1846(4) 0.8871(5) 0.2073(3)
H21 H 0.187526 0.874358 0.243077
C30 C 0.1897(4) 0.4244(4) 0.4389(3)
H22 H 0.200109 0.438046 0.474874
C31 C 0.1630(4) 0.6658(3) 0.0842(3)
C36 C 0.1815(4) 0.4675(3) 0.3978(3)
H29 H 0.185710 0.509335 0.406519
C37 C 0.1587(4) 0.3859(4) 0.3336(3)
H30 H 0.147539 0.370781 0.298174
Cu10 Cu 0.29480(4) 0.80185(4) 0.01189(4)
Cu1 Cu 0.20520(4) 0.69815(4) 0.98811(4)
C15 C 0.0303(4) 0.7913(5) 0.9882(4)
H10 H 0.045792 0.797458 0.957873
N8 N 0.1834(3) 0.6366(3) 0.9294(2)
O36 O 0.1480(2) 0.7730(2) 0.9361(2)
O38 O 0.1570(3) 0.8521(2) 0.9937(2)
O40 O 0.2664(2) 0.7379(2) 0.9558(2)
N4 N 0.3166(3) 0.1366(3) 0.5706(2)
C48 C 0.3394(4) 0.0175(4) 0.7517(3)
H38 H 0.339554 0.058745 0.762248
H42 H 0.326660 0.029210 0.851352
C56 C 0.3372(4) 0.0069(4) 0.6997(3)
C57 C 0.3331(3) 0.0504(3) 0.6572(3)
C60 C 0.3327(4) 0.1543(4) 0.6226(3)
H47 H 0.338547 0.196304 0.629855
C67 C 0.3103(4) 0.0756(4) 0.5611(3)
H52 H 0.299891 0.061954 0.525126
C73 C 0.3185(4) 0.0325(3) 0.6022(3)
C74 C 0.3413(4) 0.1141(4) 0.6664(3)
H60 H 0.352461 0.129219 0.701826
Cu7 Cu 0.29480(4) 0.19815(4) 0.51189(4)
Mo1 Mo 0.75337(3) 0.81986(3) 0.11944(3)
Mo2 Mo 0.77186(3) 0.66558(3) 0.11435(3)
Mn1 Mn 0.750000 0.750000 0.000000
O7 O 0.7293(3) 0.6102(3) 0.1327(3)
O8 O 0.7803(3) 0.8780(2) 0.0745(2)
O9 O 0.8098(3) 0.6229(2) 0.0657(2)
O10 O 0.7005(3) 0.8592(3) 0.1413(2)
O11 O 0.8300(3) 0.6723(3) 0.1683(2)
O12 O 0.8131(3) 0.8213(3) 0.1736(2)
O13 O 0.7260(2) 0.7366(2) 0.1240(2)
O15 O 0.8035(2) 0.7518(2) 0.0699(2)
O16 O 0.7223(3) 0.5417(3) 0.0113(2)
C6 C 0.9832(4) 0.7776(5) 0.0749(4)
H5 H 0.968902 0.773979 0.106148
C28 C 0.9443(4) 0.7763(4) 0.0225(3)
C32 C 0.8776(3) 0.7667(4) 0.0158(3)
H24 H 0.885819 0.673943 0.001016
H25 H 0.864000 0.861579 0.006261
C35 C 0.8652(3) 0.7607(4) 0.0716(3)
H27 H 0.887224 0.725952 0.090323
H28 H 0.878818 0.797800 0.092424
Mo6 Mo 0.73258(3) 0.90466(3) 0.00514(3)
O22 O 0.6792(3) 0.9452(3) 0.0236(2)
O23 O 0.6973(2) 0.8084(2) 0.0301(2)
O31 O 0.7136(2) 0.6753(2) 0.0260(2)
C45 C 0.5313(4) 0.7164(5) 0.0202(4)
H36 H 0.554736 0.716300 0.055423
C52 C 0.4697(4) 0.7087(5) 0.0118(4)
H40 H 0.454208 0.702542 0.042127
C70 C 0.6369(3) 0.7921(4) 0.0183(4)
H53 H 0.625068 0.786398 0.052380
C71 C 0.6506(3) 0.6748(4) 0.0152(3)
H56 H 0.638697 0.671816 0.049458
N7 N 0.3166(3) 0.8634(3) 0.0706(2)
O35 O 0.3520(2) 0.7270(2) 0.0639(2)
O37 O 0.3430(3) 0.6479(2) 0.0063(2)
Mo3 Mo 0.76742(3) 0.59534(3) 0.99486(3)
Mn1_2 Mn 0.750000 0.750000 1.000000
O5 O 0.8208(3) 0.5548(3) 0.9764(2)
O6 O 0.8027(2) 0.6916(2) 0.9699(2)
O14 O 0.7864(2) 0.8247(2) 0.9740(2)
C8 C 0.9687(4) 0.7836(5) 0.9798(4)
H6 H 0.945264 0.783700 0.944577
C33 C 0.8631(3) 0.7079(4) 0.9817(4)
H23 H 0.874932 0.713602 0.947620
C34 C 0.8494(3) 0.8252(4) 0.9848(3)
H26 H 0.861303 0.828184 0.950542
Cu4 Cu 0.34618(4) 0.70803(4) 0.95086(3)
Mo4 Mo 0.74663(3) 0.68014(3) 0.88056(3)
Mo5 Mo 0.72814(3) 0.83442(3) 0.88565(3)
N5 N 0.3243(3) 0.6411(3) 0.8859(2)
N6 N 0.4337(3) 0.7099(3) 0.9639(2)
O18 O 0.3282(2) 0.8506(2) 0.96195(18)
O19 O 0.3444(3) 0.7790(2) 0.9031(2)
O20 O 0.3520(2) 0.2730(2) 0.5639(2)
O21 O 0.3430(3) 0.3521(2) 0.5063(2)
O24 O 0.7707(3) 0.8898(3) 0.8673(3)
O25 O 0.7197(3) 0.6220(2) 0.9255(2)
O26 O 0.6902(3) 0.8771(2) 0.9343(2)
O27 O 0.7995(3) 0.6408(3) 0.8587(2)
O28 O 0.6700(3) 0.8277(3) 0.8317(2)
O29 O 0.6869(3) 0.6787(3) 0.8264(2)
O30 O 0.7740(2) 0.7634(2) 0.8760(2)
O32 O 0.6965(2) 0.7482(2) 0.9301(2)
O33 O 0.7777(3) 0.9583(3) 0.9887(2)
C38 C 0.3184(4) 0.5081(4) 0.7156(3)
H31 H 0.317964 0.549003 0.704014
C39 C 0.3381(6) 0.3567(4) 0.6485(3)
H32 H 0.342498 0.314976 0.657702
C40 C 0.3334(6) 0.3996(5) 0.6869(4)
H33 H 0.336988 0.386827 0.722755
C41 C 0.3416(4) 0.9709(4) 0.7947(3)
C42 C 0.4576(4) 0.7158(6) 0.9213(4)
H34 H 0.432834 0.715491 0.886642
C43 C 0.5168(4) 0.7224(5) 0.9251(4)
H35 H 0.531098 0.726021 0.893852
C44 C 0.3153(4) 0.5488(4) 0.8058(3)
C46 C 0.3182(4) 0.5355(4) 0.8601(3)
H37 H 0.317696 0.494407 0.870837
C47 C 0.3237(5) 0.4604(4) 0.6745(4)
C49 C 0.3217(4) 0.4787(4) 0.6228(3)
H39 H 0.316617 0.520426 0.613893
C50 C 0.3363(4) 0.3754(4) 0.5964(3)
C51 C 0.3451(4) 0.3299(4) 0.5536(3)
C53 C 0.3144(4) 0.5002(4) 0.7651(4)
H41 H 0.310489 0.459645 0.776180
C54 C 0.3321(4) 0.9876(3) 0.8445(3)
C55 C 0.3516(4) 0.8663(4) 0.8255(3)
H43 H 0.359740 0.825203 0.819298
H44 H 0.338593 0.965578 0.689818
C58 C 0.3512(5) 0.9086(4) 0.7856(3)
H45 H 0.357340 0.895989 0.752124
C59 C 0.3199(5) 0.6548(4) 0.8331(3)
H46 H 0.319968 0.696470 0.823754
C61 C 0.3400(4) 0.8829(4) 0.8756(3)
C62 C 0.3303(4) 0.9451(4) 0.8845(3)
H48 H 0.322572 0.957776 0.917365
C63 C 0.3217(4) 0.5797(3) 0.8972(3)
H49 H 0.322357 0.568103 0.932814
C64 C 0.3270(4) 0.4368(4) 0.5832(4)
H50 H 0.324320 0.449965 0.547604
C65 C 0.5557(4) 0.7237(4) 0.9775(3)
C66 C 0.3154(4) 0.6129(5) 0.7927(3)
H51 H 0.312474 0.625642 0.756923
C68 C 0.3370(4) 0.8342(3) 0.9158(3)
C69 C 0.6224(3) 0.7333(4) 0.9842(3)
H54 H 0.614181 0.826057 0.998984
H55 H 0.636000 0.638421 0.993739
C72 C 0.6348(3) 0.7393(4) 0.9284(3)
H57 H 0.612776 0.774048 0.909677
H58 H 0.621182 0.702200 0.907576
H59 H 0.314290 0.990665 0.593481
Cu11 Cu 0.34618(4) 0.29197(4) 0.45086(3)
N5_2 N 0.1757(3) 0.1411(3) 0.6141(2)
N6_2 N 0.0663(3) 0.2099(3) 0.5361(2)
O18_2 O 0.1718(2) 0.3506(2) 0.53805(18)
O19_2 O 0.1556(3) 0.2790(2) 0.5969(2)
O34 O 0.2336(2) 0.2379(2) 0.5442(2)
C38_2 C 0.1816(4) 0.0081(4) 0.7844(3)
H31_2 H 0.182036 0.049003 0.795986
C41_2 C 0.1584(4) 0.4709(4) 0.7053(3)
C42_2 C 0.0424(4) 0.2158(6) 0.5787(4)
H34_2 H 0.067166 0.215491 0.613358
C44_2 C 0.1847(4) 0.0488(4) 0.6942(3)
C46_2 C 0.1818(4) 0.0355(4) 0.6399(3)
C48_2 C 0.1606(4) 0.5175(4) 0.7483(3)
H38_2 H 0.160446 0.558745 0.737752
H39_2 H 0.183383 0.020426 0.886107
C52_2 C 0.0303(4) 0.2087(5) 0.4882(4)
H40_2 H 0.045792 0.202542 0.457873
C53_2 C 0.1856(4) 0.0002(4) 0.7349(4)
C54_2 C 0.1679(4) 0.4876(3) 0.6555(3)
H42_2 H 0.173340 0.529210 0.648648
C55_2 C 0.1484(4) 0.3663(4) 0.6745(3)
H43_2 H 0.140260 0.325203 0.680702
C56_2 C 0.1628(4) 0.5069(4) 0.8003(3)
H44_2 H 0.161407 0.465578 0.810182
C57_2 C 0.1669(3) 0.5504(3) 0.8428(3)
C58_2 C 0.1488(5) 0.4086(4) 0.7144(3)
H45_2 H 0.142660 0.395989 0.747876
C59_2 C 0.1801(5) 0.1548(4) 0.6669(3)
H46_2 H 0.180032 0.196470 0.676246
C60_2 C 0.1673(4) 0.6543(4) 0.8774(3)
H47_2 H 0.161453 0.696304 0.870145
C61_2 C 0.1600(4) 0.3829(4) 0.6244(3)
C62_2 C 0.1697(4) 0.4451(4) 0.6155(3)
H48_2 H 0.177428 0.457776 0.582635
C63_2 C 0.1783(4) 0.0797(3) 0.6028(3)
H49_2 H 0.177643 0.068103 0.567186
C66_2 C 0.1846(4) 0.1129(5) 0.7073(3)
H51_2 H 0.187526 0.125642 0.743077
C67_2 C 0.1897(4) 0.5756(4) 0.9389(3)
H52_2 H 0.200109 0.561954 0.974874
C68_2 C 0.1630(4) 0.3342(3) 0.5842(3)
C73_2 C 0.1815(4) 0.5325(3) 0.8978(3)
H59_2 H 0.185710 0.490665 0.906519
C74_2 C 0.1587(4) 0.6141(4) 0.8336(3)
H60_2 H 0.147539 0.629219 0.798174
O39 O 0.2664(2) 0.2621(2) 0.4558(2)
C39_2 C 0.1619(6) 0.8567(4) 0.8515(3)
H32_2 H 0.157502 0.814976 0.842298
C40_2 C 0.1666(6) 0.8996(5) 0.8131(4)
H33_2 H 0.163012 0.886827 0.777245
H37_2 H 0.182304 0.994407 0.629163
C47_2 C 0.1763(5) 0.9604(4) 0.8255(4)
C49_2 C 0.1783(4) 0.9787(4) 0.8772(3)
C50_2 C 0.1637(4) 0.8754(4) 0.9036(3)
C51_2 C 0.1549(4) 0.8299(4) 0.9464(3)
H41_2 H 0.189511 0.959645 0.723820
C64_2 C 0.1730(4) 0.9368(4) 0.9168(4)
H50_2 H 0.175680 0.949965 0.952396
Mo1_2 Mo 0.74663(3) 0.31986(3) 0.38056(3)
Mo2_2 Mo 0.72814(3) 0.16558(3) 0.38565(3)
Mo3_2 Mo 0.73258(3) 0.09534(3) 0.50514(3)
Mn1_3 Mn 0.750000 0.250000 0.500000
N2_2 N 0.3243(3) 0.3589(3) 0.3859(2)
N3_2 N 0.4337(3) 0.2901(3) 0.4639(2)
O1_2 O 0.3282(2) 0.1494(2) 0.46195(18)
O2_2 O 0.3444(3) 0.2210(2) 0.4031(2)
O5_2 O 0.6792(3) 0.0548(3) 0.5236(2)
O6_2 O 0.6973(2) 0.1916(2) 0.5301(2)
O7_2 O 0.7707(3) 0.1102(3) 0.3673(3)
O8_2 O 0.7197(3) 0.3780(2) 0.4255(2)
O9_2 O 0.6902(3) 0.1229(2) 0.4343(2)
O10_2 O 0.7995(3) 0.3592(3) 0.3587(2)
O11_2 O 0.6700(3) 0.1723(3) 0.3317(2)
O12_2 O 0.6869(3) 0.3213(3) 0.3264(2)
O13_2 O 0.7740(2) 0.2366(2) 0.3760(2)
O14_2 O 0.7136(2) 0.3247(2) 0.5260(2)
O15_2 O 0.6965(2) 0.2518(2) 0.4301(2)
O16_2 O 0.7777(3) 0.0417(3) 0.4887(2)
C1_2 C 0.3184(4) 0.4919(4) 0.2156(3)
H1_2 H 0.317964 0.450997 0.204014
C2_2 C 0.3381(6) 0.6433(4) 0.1485(3)
H2_2 H 0.342498 0.685024 0.157702
C3_2 C 0.3334(6) 0.6004(5) 0.1869(4)
H3_2 H 0.336988 0.613173 0.222755
C4_2 C 0.3416(4) 0.0291(4) 0.2947(3)
C5_2 C 0.4576(4) 0.2842(6) 0.4213(4)
H4_2 H 0.432834 0.284509 0.386642
C6_2 C 0.5168(4) 0.2776(5) 0.4251(4)
H5_2 H 0.531098 0.273979 0.393852
C7_2 C 0.3153(4) 0.4512(4) 0.3058(3)
C8_2 C 0.5313(4) 0.2836(5) 0.5202(4)
H6_2 H 0.554736 0.283700 0.555423
C9_2 C 0.3182(4) 0.4645(4) 0.3601(3)
H7_2 H 0.317696 0.505593 0.370837
C10_2 C 0.3237(5) 0.5396(4) 0.1745(4)
C12_2 C 0.3217(4) 0.5213(4) 0.1228(3)
H9_2 H 0.316617 0.479574 0.113893
C13_2 C 0.3363(4) 0.6246(4) 0.0964(3)
C14_2 C 0.3451(4) 0.6701(4) 0.0536(3)
C15_2 C 0.4697(4) 0.2913(5) 0.5118(4)
H10_2 H 0.454208 0.297458 0.542127
C16_2 C 0.3144(4) 0.4998(4) 0.2651(4)
H11_2 H 0.310489 0.540355 0.276180
C17_2 C 0.3321(4) 0.0124(3) 0.3445(3)
C18_2 C 0.3516(4) 0.1337(4) 0.3255(3)
H13_2 H 0.359740 0.174797 0.319298
H14_2 H 0.338593 0.034422 0.189818
C21_2 C 0.3512(5) 0.0914(4) 0.2856(3)
H15_2 H 0.357340 0.104011 0.252124
C22_2 C 0.3199(5) 0.3452(4) 0.3331(3)
H16_2 H 0.319968 0.303530 0.323754
C24_2 C 0.3400(4) 0.1171(4) 0.3756(3)
C25_2 C 0.3303(4) 0.0549(4) 0.3845(3)
H18_2 H 0.322572 0.042224 0.417365
C26_2 C 0.3217(4) 0.4203(3) 0.3972(3)
H19_2 H 0.322357 0.431897 0.432814
C27_2 C 0.3270(4) 0.5632(4) 0.0832(4)
H20_2 H 0.324320 0.550035 0.047604
C28_2 C 0.5557(4) 0.2763(4) 0.4775(3)
C29_2 C 0.3154(4) 0.3871(5) 0.2927(3)
H21_2 H 0.312474 0.374358 0.256923
C31_2 C 0.3370(4) 0.1658(3) 0.4158(3)
C32_2 C 0.6224(3) 0.2667(4) 0.4842(3)
C33_2 C 0.6369(3) 0.2079(4) 0.5183(4)
H23_2 H 0.625068 0.213602 0.552380
H24_2 H 0.614181 0.173943 0.498984
C34_2 C 0.6506(3) 0.3252(4) 0.5152(3)
H25_2 H 0.636000 0.361579 0.493739
H26_2 H 0.638697 0.328184 0.549458
C35_2 C 0.6348(3) 0.2607(4) 0.4284(3)
H27_2 H 0.612776 0.225952 0.409677
H28_2 H 0.621182 0.297800 0.407576
H29_2 H 0.314290 0.009335 0.093481
Mo4_2 Mo 0.75337(3) 0.18014(3) 0.61944(3)
Mo5_2 Mo 0.77186(3) 0.33442(3) 0.61435(3)
Mo6_2 Mo 0.76742(3) 0.40466(3) 0.49486(3)
O22_2 O 0.8208(3) 0.4452(3) 0.4764(2)
O23_2 O 0.8027(2) 0.3084(2) 0.4699(2)
O24_2 O 0.7293(3) 0.3898(3) 0.6327(3)
O25_2 O 0.7803(3) 0.1220(2) 0.5745(2)
O26_2 O 0.8098(3) 0.3771(2) 0.5657(2)
O27_2 O 0.7005(3) 0.1408(3) 0.6413(2)
O28_2 O 0.8300(3) 0.3277(3) 0.6683(2)
O29_2 O 0.8131(3) 0.1787(3) 0.6736(2)
O30_2 O 0.7260(2) 0.2634(2) 0.6240(2)
O31_2 O 0.7864(2) 0.1753(2) 0.4740(2)
O32_2 O 0.8035(2) 0.2482(2) 0.5699(2)
O33_2 O 0.7223(3) 0.4583(3) 0.5113(2)
C43_2 C 0.9832(4) 0.2224(5) 0.5749(4)
H35_2 H 0.968902 0.226021 0.606148
C45_2 C 0.9687(4) 0.2164(5) 0.4798(4)
H36_2 H 0.945264 0.216300 0.444577
C65_2 C 0.9443(4) 0.2237(4) 0.5225(3)
C69_2 C 0.8776(3) 0.2333(4) 0.5158(3)
C70_2 C 0.8631(3) 0.2921(4) 0.4817(4)
H53_2 H 0.874932 0.286398 0.447620
H54_2 H 0.885819 0.326057 0.501016
C71_2 C 0.8494(3) 0.1748(4) 0.4848(3)
H55_2 H 0.864000 0.138421 0.506261
H56_2 H 0.861303 0.171816 0.450542
C72_2 C 0.8652(3) 0.2393(4) 0.5716(3)
H57_2 H 0.887224 0.274048 0.590323
H58_2 H 0.878818 0.202200 0.592424
C11_2 C 0.3394(4) 0.9825(4) 0.2517(3)
H8_2 H 0.339554 0.941255 0.262248
H12_2 H 0.326660 0.970790 0.351352
C19_2 C 0.3372(4) 0.9931(4) 0.1997(3)
C20_2 C 0.3331(3) 0.9496(3) 0.1572(3)
C23_2 C 0.3327(4) 0.8457(4) 0.1226(3)
H17_2 H 0.338547 0.803696 0.129855
C30_2 C 0.3103(4) 0.9244(4) 0.0611(3)
H22_2 H 0.299891 0.938046 0.025126
C36_2 C 0.3185(4) 0.9675(3) 0.1022(3)
C37_2 C 0.3413(4) 0.8859(4) 0.1664(3)
H30_2 H 0.352461 0.870781 0.201826
N4_2 N 0.6834(3) 0.1366(3) 0.9294(2)
C48_3 C 0.6606(4) 0.0175(4) 0.7483(3)
H38_3 H 0.660446 0.058745 0.737752
H42_3 H 0.673340 0.029210 0.648648
C56_3 C 0.6628(4) 0.0069(4) 0.8003(3)
C57_3 C 0.6669(3) 0.0504(3) 0.8428(3)
C60_3 C 0.6673(4) 0.1543(4) 0.8774(3)
H47_3 H 0.661453 0.196304 0.870145
C67_3 C 0.6897(4) 0.0756(4) 0.9389(3)
H52_3 H 0.700109 0.061954 0.974874
C73_3 C 0.6815(4) 0.0325(3) 0.8978(3)
C74_3 C 0.6587(4) 0.1141(4) 0.8336(3)
H60_3 H 0.647539 0.129219 0.798174
Cu7_2 Cu 0.70520(4) 0.19815(4) 0.98811(4)
Cu11_2 Cu 0.65382(4) 0.29197(4) 0.04914(3)
Mo1_3 Mo 0.24663(3) 0.81986(3) 0.38056(3)
Mo2_3 Mo 0.22814(3) 0.66558(3) 0.38565(3)
Mo3_3 Mo 0.23258(3) 0.59534(3) 0.50514(3)
Mn1_4 Mn 0.250000 0.750000 0.500000
O5_3 O 0.1792(3) 0.5548(3) 0.5236(2)
O6_3 O 0.1973(2) 0.6916(2) 0.5301(2)
O7_3 O 0.2707(3) 0.6102(3) 0.3673(3)
O8_3 O 0.2197(3) 0.8780(2) 0.4255(2)
O9_3 O 0.1902(3) 0.6229(2) 0.4343(2)
O10_3 O 0.2995(3) 0.8592(3) 0.3587(2)
O11_3 O 0.1700(3) 0.6723(3) 0.3317(2)
O12_3 O 0.1869(3) 0.8213(3) 0.3264(2)
O13_3 O 0.2740(2) 0.7366(2) 0.3760(2)
O14_3 O 0.2136(2) 0.8247(2) 0.5260(2)
O15_3 O 0.1965(2) 0.7518(2) 0.4301(2)
O16_3 O 0.2777(3) 0.5417(3) 0.4887(2)
C6_3 C 0.0168(4) 0.7776(5) 0.4251(4)
H5_3 H 0.031098 0.773979 0.393852
C8_3 C 0.0313(4) 0.7836(5) 0.5202(4)
H6_3 H 0.054736 0.783700 0.555423
C28_3 C 0.0557(4) 0.7763(4) 0.4775(3)
C32_3 C 0.1224(3) 0.7667(4) 0.4842(3)
C33_3 C 0.1369(3) 0.7079(4) 0.5183(4)
H23_3 H 0.125068 0.713602 0.552380
H24_3 H 0.114181 0.673943 0.498984
C34_3 C 0.1506(3) 0.8252(4) 0.5152(3)
H25_3 H 0.136000 0.861579 0.493739
H26_3 H 0.138697 0.828184 0.549458
C35_3 C 0.1348(3) 0.7607(4) 0.4284(3)
H27_3 H 0.112776 0.725952 0.409677
H28_3 H 0.121182 0.797800 0.407576
Cu3 Cu 0.70520(4) 0.80185(4) 0.48811(4)
Cu4_2 Cu 0.65382(4) 0.70803(4) 0.54914(3)
Mo4_3 Mo 0.25337(3) 0.68014(3) 0.61944(3)
Mo5_3 Mo 0.27186(3) 0.83442(3) 0.61435(3)
Mo6_3 Mo 0.26742(3) 0.90466(3) 0.49486(3)
N5_3 N 0.6757(3) 0.6411(3) 0.6141(2)
N6_3 N 0.5663(3) 0.7099(3) 0.5361(2)
O18_3 O 0.6718(2) 0.8506(2) 0.53805(18)
O19_3 O 0.6556(3) 0.7790(2) 0.5969(2)
O20_2 O 0.6480(2) 0.2730(2) 0.9361(2)
O21_2 O 0.6570(3) 0.3521(2) 0.9937(2)
O22_3 O 0.3208(3) 0.9452(3) 0.4764(2)
O23_3 O 0.3027(2) 0.8084(2) 0.4699(2)
O24_3 O 0.2293(3) 0.8898(3) 0.6327(3)
O25_3 O 0.2803(3) 0.6220(2) 0.5745(2)
O26_3 O 0.3098(3) 0.8771(2) 0.5657(2)
O27_3 O 0.2005(3) 0.6408(3) 0.6413(2)
O28_3 O 0.3300(3) 0.8277(3) 0.6683(2)
O29_3 O 0.3131(3) 0.6787(3) 0.6736(2)
O30_3 O 0.2260(2) 0.7634(2) 0.6240(2)
O31_3 O 0.2864(2) 0.6753(2) 0.4740(2)
O32_3 O 0.3035(2) 0.7482(2) 0.5699(2)
O33_3 O 0.2223(3) 0.9583(3) 0.5113(2)
O34_2 O 0.7336(2) 0.7379(2) 0.5442(2)
C38_3 C 0.6816(4) 0.5081(4) 0.7844(3)
H31_3 H 0.682036 0.549003 0.795986
C39_3 C 0.6619(6) 0.3567(4) 0.8515(3)
H32_3 H 0.657502 0.314976 0.842298
C40_3 C 0.6666(6) 0.3996(5) 0.8131(4)
H33_3 H 0.663012 0.386827 0.777245
C41_3 C 0.6584(4) 0.9709(4) 0.7053(3)
C42_3 C 0.5424(4) 0.7158(6) 0.5787(4)
H34_3 H 0.567166 0.715491 0.613358
C43_3 C 0.4832(4) 0.7224(5) 0.5749(4)
H35_3 H 0.468902 0.726021 0.606148
C44_3 C 0.6847(4) 0.5488(4) 0.6942(3)
C45_3 C 0.4687(4) 0.7164(5) 0.4798(4)
H36_3 H 0.445264 0.716300 0.444577
C46_3 C 0.6818(4) 0.5355(4) 0.6399(3)
H37_3 H 0.682304 0.494407 0.629163
C47_3 C 0.6763(5) 0.4604(4) 0.8255(4)
C49_3 C 0.6783(4) 0.4787(4) 0.8772(3)
H39_3 H 0.683383 0.520426 0.886107
C50_3 C 0.6637(4) 0.3754(4) 0.9036(3)
C51_3 C 0.6549(4) 0.3299(4) 0.9464(3)
C52_3 C 0.5303(4) 0.7087(5) 0.4882(4)
H40_3 H 0.545792 0.702542 0.457873
C53_3 C 0.6856(4) 0.5002(4) 0.7349(4)
H41_3 H 0.689511 0.459645 0.723820
C54_3 C 0.6679(4) 0.9876(3) 0.6555(3)
C55_3 C 0.6484(4) 0.8663(4) 0.6745(3)
H43_3 H 0.640260 0.825203 0.680702
H44_3 H 0.661407 0.965578 0.810182
C58_3 C 0.6488(5) 0.9086(4) 0.7144(3)
H45_3 H 0.642660 0.895989 0.747876
C59_3 C 0.6801(5) 0.6548(4) 0.6669(3)
H46_3 H 0.680032 0.696470 0.676246
C61_3 C 0.6600(4) 0.8829(4) 0.6244(3)
C62_3 C 0.6697(4) 0.9451(4) 0.6155(3)
H48_3 H 0.677428 0.957776 0.582635
C63_3 C 0.6783(4) 0.5797(3) 0.6028(3)
H49_3 H 0.677643 0.568103 0.567186
C64_3 C 0.6730(4) 0.4368(4) 0.9168(4)
H50_3 H 0.675680 0.449965 0.952396
C65_3 C 0.4443(4) 0.7237(4) 0.5225(3)
C66_3 C 0.6846(4) 0.6129(5) 0.7073(3)
H51_3 H 0.687526 0.625642 0.743077
C68_3 C 0.6630(4) 0.8342(3) 0.5842(3)
C69_3 C 0.3776(3) 0.7333(4) 0.5158(3)
C70_3 C 0.3631(3) 0.7921(4) 0.4817(4)
H53_3 H 0.374932 0.786398 0.447620
H54_3 H 0.385819 0.826057 0.501016
C71_3 C 0.3494(3) 0.6748(4) 0.4848(3)
H55_3 H 0.364000 0.638421 0.506261
H56_3 H 0.361303 0.671816 0.450542
C72_3 C 0.3652(3) 0.7393(4) 0.5716(3)
H57_3 H 0.387224 0.774048 0.590323
H58_3 H 0.378818 0.702200 0.592424
H59_3 H 0.685710 0.990665 0.906519
Cu5 Cu 0.79480(4) 0.69815(4) 0.51189(4)
N7_2 N 0.6834(3) 0.8634(3) 0.4294(2)
O35_2 O 0.6480(2) 0.7270(2) 0.4361(2)
O37_2 O 0.6570(3) 0.6479(2) 0.4937(2)
O39_2 O 0.7664(2) 0.7621(2) 0.4558(2)
O3_2 O 0.8520(2) 0.2270(2) 0.0639(2)
O4_2 O 0.8430(3) 0.1479(2) 0.0063(2)
C2_3 C 0.8381(6) 0.1433(4) 0.1485(3)
H2_3 H 0.842498 0.185024 0.157702
C3_3 C 0.8334(6) 0.1004(5) 0.1869(4)
H3_3 H 0.836988 0.113173 0.222755
H7_3 H 0.817696 0.005593 0.370837
C10_3 C 0.8237(5) 0.0396(4) 0.1745(4)
C12_3 C 0.8217(4) 0.0213(4) 0.1228(3)
C13_3 C 0.8363(4) 0.1246(4) 0.0964(3)
C14_3 C 0.8451(4) 0.1701(4) 0.0536(3)
H11_3 H 0.810489 0.040355 0.276180
C27_3 C 0.8270(4) 0.0632(4) 0.0832(4)
H20_3 H 0.824320 0.050035 0.047604
Cu9_2 Cu 0.79480(4) 0.30185(4) 0.01189(4)
Cu12_2 Cu 0.84618(4) 0.20803(4) 0.95086(3)
Cu2_2 Cu 0.84618(4) 0.79197(4) 0.45086(3)
N1_2 N 0.8166(3) 0.3634(3) 0.0706(2)
N2_3 N 0.8243(3) 0.8589(3) 0.3859(2)
N3_3 N 0.9337(3) 0.7901(3) 0.4639(2)
O1_3 O 0.8282(2) 0.6494(2) 0.46195(18)
O2_3 O 0.8444(3) 0.7210(2) 0.4031(2)
C1_3 C 0.8184(4) 0.9919(4) 0.2156(3)
H1_3 H 0.817964 0.950997 0.204014
C4_3 C 0.8416(4) 0.5291(4) 0.2947(3)
C5_3 C 0.9576(4) 0.7842(6) 0.4213(4)
H4_3 H 0.932834 0.784509 0.386642
C7_3 C 0.8153(4) 0.9512(4) 0.3058(3)
C9_3 C 0.8182(4) 0.9645(4) 0.3601(3)
C11_3 C 0.8394(4) 0.4825(4) 0.2517(3)
H8_3 H 0.839554 0.441255 0.262248
H9_3 H 0.816617 0.979574 0.113893
C15_3 C 0.9697(4) 0.7913(5) 0.5118(4)
H10_3 H 0.954208 0.797458 0.542127
C16_3 C 0.8144(4) 0.9998(4) 0.2651(4)
C17_3 C 0.8321(4) 0.5124(3) 0.3445(3)
H12_3 H 0.826660 0.470790 0.351352
C18_3 C 0.8516(4) 0.6337(4) 0.3255(3)
H13_3 H 0.859740 0.674797 0.319298
C19_3 C 0.8372(4) 0.4931(4) 0.1997(3)
H14_3 H 0.838593 0.534422 0.189818
C20_3 C 0.8331(3) 0.4496(3) 0.1572(3)
C21_3 C 0.8512(5) 0.5914(4) 0.2856(3)
H15_3 H 0.857340 0.604011 0.252124
C22_3 C 0.8199(5) 0.8452(4) 0.3331(3)
H16_3 H 0.819968 0.803530 0.323754
C23_3 C 0.8327(4) 0.3457(4) 0.1226(3)
H17_3 H 0.838547 0.303696 0.129855
C24_3 C 0.8400(4) 0.6171(4) 0.3756(3)
C25_3 C 0.8303(4) 0.5549(4) 0.3845(3)
H18_3 H 0.822572 0.542224 0.417365
C26_3 C 0.8217(4) 0.9203(3) 0.3972(3)
H19_3 H 0.822357 0.931897 0.432814
C29_3 C 0.8154(4) 0.8871(5) 0.2927(3)
H21_3 H 0.812474 0.874358 0.256923
C30_3 C 0.8103(4) 0.4244(4) 0.0611(3)
H22_3 H 0.799891 0.438046 0.025126
C31_3 C 0.8370(4) 0.6658(3) 0.4158(3)
C36_3 C 0.8185(4) 0.4675(3) 0.1022(3)
H29_3 H 0.814290 0.509335 0.093481
C37_3 C 0.8413(4) 0.3859(4) 0.1664(3)
H30_3 H 0.852461 0.370781 0.201826
N8_2 N 0.8166(3) 0.6366(3) 0.5706(2)
O36_2 O 0.8520(2) 0.7730(2) 0.5639(2)
O38_2 O 0.8430(3) 0.8521(2) 0.5063(2)
Mo1_4 Mo 0.25337(3) 0.31986(3) 0.11944(3)
Mo2_4 Mo 0.27186(3) 0.16558(3) 0.11435(3)
Mn1_5 Mn 0.250000 0.250000 0.000000
N2_4 N 0.6757(3) 0.3589(3) 0.1141(2)
N3_4 N 0.5663(3) 0.2901(3) 0.0361(2)
O1_4 O 0.6718(2) 0.1494(2) 0.03805(18)
O2_4 O 0.6556(3) 0.2210(2) 0.0969(2)
O7_4 O 0.2293(3) 0.1102(3) 0.1327(3)
O8_4 O 0.2803(3) 0.3780(2) 0.0745(2)
O9_4 O 0.3098(3) 0.1229(2) 0.0657(2)
O10_4 O 0.2005(3) 0.3592(3) 0.1413(2)
O11_4 O 0.3300(3) 0.1723(3) 0.1683(2)
O12_4 O 0.3131(3) 0.3213(3) 0.1736(2)
O13_4 O 0.2260(2) 0.2366(2) 0.1240(2)
O15_4 O 0.3035(2) 0.2518(2) 0.0699(2)
O16_4 O 0.2223(3) 0.0417(3) 0.0113(2)
O17_2 O 0.7336(2) 0.2621(2) 0.0442(2)
C1_4 C 0.6816(4) 0.4919(4) 0.2844(3)
H1_4 H 0.682036 0.450997 0.295986
C2_4 C 0.6619(6) 0.6433(4) 0.3515(3)
H2_4 H 0.657502 0.685024 0.342298
C3_4 C 0.6666(6) 0.6004(5) 0.3131(4)
H3_4 H 0.663012 0.613173 0.277245
C4_4 C 0.6584(4) 0.0291(4) 0.2053(3)
C5_4 C 0.5424(4) 0.2842(6) 0.0787(4)
H4_4 H 0.567166 0.284509 0.113358
C6_4 C 0.4832(4) 0.2776(5) 0.0749(4)
H5_4 H 0.468902 0.273979 0.106148
C7_4 C 0.6847(4) 0.4512(4) 0.1942(3)
C9_4 C 0.6818(4) 0.4645(4) 0.1399(3)
H7_4 H 0.682304 0.505593 0.129163
C10_4 C 0.6763(5) 0.5396(4) 0.3255(4)
C12_4 C 0.6783(4) 0.5213(4) 0.3772(3)
H9_4 H 0.683383 0.479574 0.386107
C13_4 C 0.6637(4) 0.6246(4) 0.4036(3)
C14_4 C 0.6549(4) 0.6701(4) 0.4464(3)
C16_4 C 0.6856(4) 0.4998(4) 0.2349(4)
H11_4 H 0.689511 0.540355 0.223820
C17_4 C 0.6679(4) 0.0124(3) 0.1555(3)
C18_4 C 0.6484(4) 0.1337(4) 0.1745(3)
H13_4 H 0.640260 0.174797 0.180702
H14_4 H 0.661407 0.034422 0.310182
C21_4 C 0.6488(5) 0.0914(4) 0.2144(3)
H15_4 H 0.642660 0.104011 0.247876
C22_4 C 0.6801(5) 0.3452(4) 0.1669(3)
H16_4 H 0.680032 0.303530 0.176246
C24_4 C 0.6600(4) 0.1171(4) 0.1244(3)
C25_4 C 0.6697(4) 0.0549(4) 0.1155(3)
H18_4 H 0.677428 0.042224 0.082635
C26_4 C 0.6783(4) 0.4203(3) 0.1028(3)
H19_4 H 0.677643 0.431897 0.067186
C27_4 C 0.6730(4) 0.5632(4) 0.4168(4)
H20_4 H 0.675680 0.550035 0.452396
C28_4 C 0.4443(4) 0.2763(4) 0.0225(3)
C29_4 C 0.6846(4) 0.3871(5) 0.2073(3)
H21_4 H 0.687526 0.374358 0.243077
C31_4 C 0.6630(4) 0.1658(3) 0.0842(3)
C32_4 C 0.3776(3) 0.2667(4) 0.0158(3)
H24_4 H 0.385819 0.173943 0.001016
H25_4 H 0.364000 0.361579 0.006261
C35_4 C 0.3652(3) 0.2607(4) 0.0716(3)
H27_4 H 0.387224 0.225952 0.090323
H28_4 H 0.378818 0.297800 0.092424
H29_4 H 0.685710 0.009335 0.406519
Mo6_4 Mo 0.23258(3) 0.40466(3) 0.00514(3)
O22_4 O 0.1792(3) 0.4452(3) 0.0236(2)
O23_4 O 0.1973(2) 0.3084(2) 0.0301(2)
O31_4 O 0.2136(2) 0.1753(2) 0.0260(2)
C45_4 C 0.0313(4) 0.2164(5) 0.0202(4)
H36_4 H 0.054736 0.216300 0.055423
C70_4 C 0.1369(3) 0.2921(4) 0.0183(4)
H53_4 H 0.125068 0.286398 0.052380
C71_4 C 0.1506(3) 0.1748(4) 0.0152(3)
H56_4 H 0.138697 0.171816 0.049458
Mo3_4 Mo 0.26742(3) 0.09534(3) 0.99486(3)
Mn1_6 Mn 0.250000 0.250000 1.000000
O5_4 O 0.3208(3) 0.0548(3) 0.9764(2)
O6_4 O 0.3027(2) 0.1916(2) 0.9699(2)
O14_4 O 0.2864(2) 0.3247(2) 0.9740(2)
C8_4 C 0.4687(4) 0.2836(5) 0.9798(4)
H6_4 H 0.445264 0.283700 0.944577
C15_4 C 0.5303(4) 0.2913(5) 0.9882(4)
H10_4 H 0.545792 0.297458 0.957873
C33_4 C 0.3631(3) 0.2079(4) 0.9817(4)
H23_4 H 0.374932 0.213602 0.947620
C34_4 C 0.3494(3) 0.3252(4) 0.9848(3)
H26_4 H 0.361303 0.328184 0.950542
Mo4_4 Mo 0.24663(3) 0.18014(3) 0.88056(3)
Mo5_4 Mo 0.22814(3) 0.33442(3) 0.88565(3)
O24_4 O 0.2707(3) 0.3898(3) 0.8673(3)
O25_4 O 0.2197(3) 0.1220(2) 0.9255(2)
O26_4 O 0.1902(3) 0.3771(2) 0.9343(2)
O27_4 O 0.2995(3) 0.1408(3) 0.8587(2)
O28_4 O 0.1700(3) 0.3277(3) 0.8317(2)
O29_4 O 0.1869(3) 0.1787(3) 0.8264(2)
O30_4 O 0.2740(2) 0.2634(2) 0.8760(2)
O32_4 O 0.1965(2) 0.2482(2) 0.9301(2)
O33_4 O 0.2777(3) 0.4583(3) 0.9887(2)
C43_4 C 0.0168(4) 0.2224(5) 0.9251(4)
H35_4 H 0.031098 0.226021 0.893852
C65_4 C 0.0557(4) 0.2237(4) 0.9775(3)
C69_4 C 0.1224(3) 0.2333(4) 0.9842(3)
H54_4 H 0.114181 0.326057 0.998984
H55_4 H 0.136000 0.138421 0.993739
C72_4 C 0.1348(3) 0.2393(4) 0.9284(3)
H57_4 H 0.112776 0.274048 0.909677
H58_4 H 0.121182 0.202200 0.907576
O40_2 O 0.7664(2) 0.2379(2) 0.9558(2)
C11_4 C 0.6606(4) 0.9825(4) 0.2483(3)
H8_4 H 0.660446 0.941255 0.237752
H12_4 H 0.673340 0.970790 0.148648
C19_4 C 0.6628(4) 0.9931(4) 0.3003(3)
C20_4 C 0.6669(3) 0.9496(3) 0.3428(3)
C23_4 C 0.6673(4) 0.8457(4) 0.3774(3)
H17_4 H 0.661453 0.803696 0.370145
C30_4 C 0.6897(4) 0.9244(4) 0.4389(3)
H22_4 H 0.700109 0.938046 0.474874
C36_4 C 0.6815(4) 0.9675(3) 0.3978(3)
C37_4 C 0.6587(4) 0.8859(4) 0.3336(3)
H30_4 H 0.647539 0.870781 0.298174
C52_4 C 0.9697(4) 0.2087(5) 0.0118(4)
H40_4 H 0.954208 0.202542 0.042127
N5_4 N 0.8243(3) 0.1411(3) 0.8859(2)
N6_4 N 0.9337(3) 0.2099(3) 0.9639(2)
O18_4 O 0.8282(2) 0.3506(2) 0.96195(18)
O19_4 O 0.8444(3) 0.2790(2) 0.9031(2)
C38_4 C 0.8184(4) 0.0081(4) 0.7156(3)
H31_4 H 0.817964 0.049003 0.704014
C41_4 C 0.8416(4) 0.4709(4) 0.7947(3)
C42_4 C 0.9576(4) 0.2158(6) 0.9213(4)
H34_4 H 0.932834 0.215491 0.886642
C44_4 C 0.8153(4) 0.0488(4) 0.8058(3)
C46_4 C 0.8182(4) 0.0355(4) 0.8601(3)
C48_4 C 0.8394(4) 0.5175(4) 0.7517(3)
H38_4 H 0.839554 0.558745 0.762248
H39_4 H 0.816617 0.020426 0.613893
C53_4 C 0.8144(4) 0.0002(4) 0.7651(4)
C54_4 C 0.8321(4) 0.4876(3) 0.8445(3)
H42_4 H 0.826660 0.529210 0.851352
C55_4 C 0.8516(4) 0.3663(4) 0.8255(3)
H43_4 H 0.859740 0.325203 0.819298
C56_4 C 0.8372(4) 0.5069(4) 0.6997(3)
H44_4 H 0.838593 0.465578 0.689818
C57_4 C 0.8331(3) 0.5504(3) 0.6572(3)
C58_4 C 0.8512(5) 0.4086(4) 0.7856(3)
H45_4 H 0.857340 0.395989 0.752124
C59_4 C 0.8199(5) 0.1548(4) 0.8331(3)
H46_4 H 0.819968 0.196470 0.823754
C60_4 C 0.8327(4) 0.6543(4) 0.6226(3)
H47_4 H 0.838547 0.696304 0.629855
C61_4 C 0.8400(4) 0.3829(4) 0.8756(3)
C62_4 C 0.8303(4) 0.4451(4) 0.8845(3)
H48_4 H 0.822572 0.457776 0.917365
C63_4 C 0.8217(4) 0.0797(3) 0.8972(3)
H49_4 H 0.822357 0.068103 0.932814
C66_4 C 0.8154(4) 0.1129(5) 0.7927(3)
H51_4 H 0.812474 0.125642 0.756923
C67_4 C 0.8103(4) 0.5756(4) 0.5611(3)
H52_4 H 0.799891 0.561954 0.525126
C68_4 C 0.8370(4) 0.3342(3) 0.9158(3)
C73_4 C 0.8185(4) 0.5325(3) 0.6022(3)
H59_4 H 0.814290 0.490665 0.593481
C74_4 C 0.8413(4) 0.6141(4) 0.6664(3)
H60_4 H 0.852461 0.629219 0.701826
C39_4 C 0.8381(6) 0.8567(4) 0.6485(3)
H32_4 H 0.842498 0.814976 0.657702
C40_4 C 0.8334(6) 0.8996(5) 0.6869(4)
H33_4 H 0.836988 0.886827 0.722755
H37_4 H 0.817696 0.994407 0.870837
C47_4 C 0.8237(5) 0.9604(4) 0.6745(4)
C49_4 C 0.8217(4) 0.9787(4) 0.6228(3)
C50_4 C 0.8363(4) 0.8754(4) 0.5964(3)
C51_4 C 0.8451(4) 0.8299(4) 0.5536(3)
H41_4 H 0.810489 0.959645 0.776180
C64_4 C 0.8270(4) 0.9368(4) 0.5832(4)
H50_4 H 0.824320 0.949965 0.547604
loop_
_geom_bond_atom_site_label_1
_geom_bond_atom_site_label_2
_geom_bond_site_symmetry_1
_geom_bond_site_symmetry_2
O3 C14 1_555 1_555
O4 C14 1_555 1_555
C2 H2 1_555 1_555
C3 C2 1_555 1_555
H3 C3 1_555 1_555
C12 C10 1_555 1_555
C13 C2 1_555 1_555
C14 C13 1_555 1_555
C27 C12 1_555 1_555
H20 C27 1_555 1_555
Cu9 O3 1_555 1_555
Cu12 O4 1_555 1_555
C3 C10 1_555 1_555
C13 C27 1_555 1_555
Cu2 N2 1_555 1_555
N1 C23 1_555 1_555
N2 C22 1_555 1_555
N3 Cu2 1_555 1_555
O1 C31 1_555 1_555
O2 Cu2 1_555 1_555
C1 H1 1_555 1_555
C4 C11 1_555 1_555
C5 N3 1_555 1_555
H4 C5 1_555 1_555
C7 C9 1_555 1_555
C11 H8 1_555 1_555
C16 C1 1_555 1_555
C17 C4 1_555 1_555
H12 C17 1_555 1_555
C18 H13 1_555 1_555
C19 C11 1_555 1_555
H14 C19 1_555 1_555
C20 C19 1_555 1_555
C21 C4 1_555 1_555
H15 C21 1_555 1_555
C22 H16 1_555 1_555
C23 H17 1_555 1_555
C24 C18 1_555 1_555
C25 C17 1_555 1_555
H18 C25 1_555 1_555
C26 N2 1_555 1_555
H19 C26 1_555 1_555
C29 C7 1_555 1_555
H21 C29 1_555 1_555
C30 N1 1_555 1_555
H22 C30 1_555 1_555
C31 O2 1_555 1_555
C36 C20 1_555 1_555
H29 C36 1_555 1_555
C37 C20 1_555 1_555
H30 C37 1_555 1_555
Cu9 N1 1_555 1_555
Cu10 O17 1_555 1_555
Cu2 O17 1_555 1_555
C7 C16 1_555 1_555
C9 C26 1_555 1_555
C18 C21 1_555 1_555
C22 C29 1_555 1_555
C23 C37 1_555 1_555
C24 C25 1_555 1_555
C24 C31 1_555 1_555
C30 C36 1_555 1_555
H10 C15 1_555 1_555
N8 Cu1 1_555 1_555
O36 Cu1 1_555 1_555
O40 Cu1 1_555 1_555
N4 C60 1_555 1_555
C48 H38 1_555 1_555
C56 C48 1_555 1_555
C57 C56 1_555 1_555
C60 H47 1_555 1_555
C67 N4 1_555 1_555
H52 C67 1_555 1_555
C73 C57 1_555 1_555
C74 C57 1_555 1_555
H60 C74 1_555 1_555
Cu7 N4 1_555 1_555
C60 C74 1_555 1_555
C67 C73 1_555 1_555
Mo1 O8 1_555 1_555
Mo2 O7 1_555 1_555
O8 Mo6 1_555 1_555
O9 Mo2 1_555 1_555
O10 Mo1 1_555 1_555
O11 Mo2 1_555 1_555
O12 Mo1 1_555 1_555
O13 Mo1 1_555 1_555
O15 Mo1 1_555 1_555
H5 C6 1_555 1_555
C28 C6 1_555 1_555
C32 C28 1_555 1_555
C35 O15 1_555 1_555
H27 C35 1_555 1_555
H28 C35 1_555 1_555
O22 Mo6 1_555 1_555
O23 Mo1 1_555 1_555
O31 Mo2 1_555 1_555
C45 H36 1_555 1_555
H40 C52 1_555 1_555
C70 O23 1_555 1_555
H53 C70 1_555 1_555
C71 O31 1_555 1_555
H56 C71 1_555 1_555
N7 Cu10 1_555 1_555
O35 Cu10 1_555 1_555
Mo2 O13 1_555 1_555
Mo2 O15 1_555 1_555
Mn1 O15 1_555 1_555
Mn1 O23 1_555 1_555
Mn1 O31 1_555 1_555
C32 C35 1_555 1_555
Mo6 O23 1_555 1_555
C45 C52 1_555 1_555
Mo3 O5 1_555 1_555
Mn1_2 O6 1_555 1_555
O6 Mo3 1_555 1_555
O14 Mn1_2 1_555 1_555
C8 H6 1_555 1_555
C33 O6 1_555 1_555
H23 C33 1_555 1_555
C34 O14 1_555 1_555
H26 C34 1_555 1_555
Cu4 N5 1_555 1_555
Mo4 O6 1_555 1_555
Mo5 O14 1_555 1_555
N5 C59 1_555 1_555
N6 Cu4 1_555 1_555
O18 C68 1_555 1_555
O19 Cu4 1_555 1_555
O20 C51 1_555 1_555
O21 C51 1_555 1_555
O24 Mo5 1_555 1_555
O25 Mo3 1_555 1_555
O26 Mo5 1_555 1_555
O27 Mo4 1_555 1_555
O28 Mo5 1_555 1_555
O29 Mo4 1_555 1_555
O30 Mo4 1_555 1_555
O32 Mn1_2 1_555 1_555
C38 H31 1_555 1_555
C39 H32 1_555 1_555
C40 C39 1_555 1_555
H33 C40 1_555 1_555
C42 N6 1_555 1_555
H34 C42 1_555 1_555
C43 C42 1_555 1_555
H35 C43 1_555 1_555
C44 C46 1_555 1_555
C46 H37 1_555 1_555
C47 C38 1_555 1_555
C49 C47 1_555 1_555
H39 C49 1_555 1_555
C50 C39 1_555 1_555
C51 C50 1_555 1_555
C53 C38 1_555 1_555
H41 C53 1_555 1_555
C54 C41 1_555 1_555
C55 H43 1_555 1_555
C58 C41 1_555 1_555
H45 C58 1_555 1_555
C59 H46 1_555 1_555
C61 C55 1_555 1_555
C62 C54 1_555 1_555
H48 C62 1_555 1_555
C63 N5 1_555 1_555
H49 C63 1_555 1_555
C64 C49 1_555 1_555
H50 C64 1_555 1_555
C65 C43 1_555 1_555
C66 C44 1_555 1_555
H51 C66 1_555 1_555
C68 O19 1_555 1_555
C69 C65 1_555 1_555
C72 O32 1_555 1_555
H57 C72 1_555 1_555
H58 C72 1_555 1_555
Cu7 O20 1_555 1_555
Cu11 O21 1_555 1_555
Cu4 O40 1_555 1_555
Mo4 O25 1_555 1_555
Mo4 O32 1_555 1_555
Mo5 O30 1_555 1_555
Mo5 O32 1_555 1_555
C40 C47 1_555 1_555
C44 C53 1_555 1_555
C46 C63 1_555 1_555
C50 C64 1_555 1_555
C55 C58 1_555 1_555
C59 C66 1_555 1_555
C61 C62 1_555 1_555
C61 C68 1_555 1_555
C69 C72 1_555 1_555
Cu9 O18_2 1_555 1_555
Cu12 N5_2 1_555 1_555
N8 C60_2 1_555 1_555
N5_2 C59_2 1_555 1_555
N6_2 Cu12 1_555 1_555
O18_2 C68_2 1_555 1_555
O19_2 Cu12 1_555 1_555
O34 Cu9 1_555 1_555
C38_2 H31_2 1_555 1_555
C41_2 C48_2 1_555 1_555
C42_2 N6_2 1_555 1_555
H34_2 C42_2 1_555 1_555
C44_2 C46_2 1_555 1_555
C48_2 H38_2 1_555 1_555
C52_2 N6_2 1_555 1_555
H40_2 C52_2 1_555 1_555
C53_2 C38_2 1_555 1_555
C54_2 C41_2 1_555 1_555
H42_2 C54_2 1_555 1_555
C55_2 H43_2 1_555 1_555
C56_2 C48_2 1_555 1_555
H44_2 C56_2 1_555 1_555
C57_2 C56_2 1_555 1_555
C58_2 C41_2 1_555 1_555
H45_2 C58_2 1_555 1_555
C59_2 H46_2 1_555 1_555
C60_2 H47_2 1_555 1_555
C61_2 C55_2 1_555 1_555
C62_2 C54_2 1_555 1_555
H48_2 C62_2 1_555 1_555
C63_2 N5_2 1_555 1_555
H49_2 C63_2 1_555 1_555
C66_2 C44_2 1_555 1_555
H51_2 C66_2 1_555 1_555
C67_2 N8 1_555 1_555
H52_2 C67_2 1_555 1_555
C68_2 O19_2 1_555 1_555
C73_2 C57_2 1_555 1_555
H59_2 C73_2 1_555 1_555
C74_2 C57_2 1_555 1_555
H60_2 C74_2 1_555 1_555
Cu7 O34 1_555 1_555
O39 Cu9 1_555 1_555
Cu12 O34 1_555 1_555
C44_2 C53_2 1_555 1_555
C46_2 C63_2 1_555 1_555
C55_2 C58_2 1_555 1_555
C59_2 C66_2 1_555 1_555
C60_2 C74_2 1_555 1_555
C61_2 C62_2 1_555 1_555
C61_2 C68_2 1_555 1_555
C67_2 C73_2 1_555 1_555
Cu7 O39 1_555 1_555
O36 C51_2 1_555 1_555
O38 C51_2 1_555 1_555
C39_2 H32_2 1_555 1_555
C40_2 C39_2 1_555 1_555
H33_2 C40_2 1_555 1_555
C49_2 C47_2 1_555 1_555
C50_2 C39_2 1_555 1_555
C51_2 C50_2 1_555 1_555
C64_2 C49_2 1_555 1_555
H50_2 C64_2 1_555 1_555
C40_2 C47_2 1_555 1_555
C50_2 C64_2 1_555 1_555
Cu7 O1_2 1_555 1_555
Cu11 N2_2 1_555 1_555
Mo1_2 O8_2 1_555 1_555
Mo2_2 O7_2 1_555 1_555
Mo3_2 O5_2 1_555 1_555
Mn1_3 O6_2 1_555 1_555
N2_2 C22_2 1_555 1_555
N3_2 Cu11 1_555 1_555
O1_2 C31_2 1_555 1_555
O2_2 Cu11 1_555 1_555
O35 C14_2 1_555 1_555
O37 C14_2 1_555 1_555
O6_2 Mo3_2 1_555 1_555
O8_2 Mo6_2 1_555 1_555
O9_2 Mo2_2 1_555 1_555
O10_2 Mo1_2 1_555 1_555
O11_2 Mo2_2 1_555 1_555
O12_2 Mo1_2 1_555 1_555
O13_2 Mo1_2 1_555 1_555
O14_2 Mn1_3 1_555 1_555
O15_2 Mo1_2 1_555 1_555
O16_2 Mo3_2 1_555 1_555
C1_2 H1_2 1_555 1_555
C2_2 H2_2 1_555 1_555
C3_2 C2_2 1_555 1_555
H3_2 C3_2 1_555 1_555
C5_2 N3_2 1_555 1_555
H4_2 C5_2 1_555 1_555
C6_2 C5_2 1_555 1_555
H5_2 C6_2 1_555 1_555
C7_2 C9_2 1_555 1_555
C8_2 H6_2 1_555 1_555
C9_2 H7_2 1_555 1_555
C10_2 C1_2 1_555 1_555
C12_2 C10_2 1_555 1_555
H9_2 C12_2 1_555 1_555
C13_2 C2_2 1_555 1_555
C14_2 C13_2 1_555 1_555
C15_2 N3_2 1_555 1_555
H10_2 C15_2 1_555 1_555
C16_2 C1_2 1_555 1_555
H11_2 C16_2 1_555 1_555
C17_2 C4_2 1_555 1_555
C18_2 H13_2 1_555 1_555
C21_2 C4_2 1_555 1_555
H15_2 C21_2 1_555 1_555
C22_2 H16_2 1_555 1_555
C24_2 C18_2 1_555 1_555
C25_2 C17_2 1_555 1_555
H18_2 C25_2 1_555 1_555
C26_2 N2_2 1_555 1_555
H19_2 C26_2 1_555 1_555
C27_2 C12_2 1_555 1_555
H20_2 C27_2 1_555 1_555
C28_2 C6_2 1_555 1_555
C29_2 C7_2 1_555 1_555
H21_2 C29_2 1_555 1_555
C31_2 O2_2 1_555 1_555
C32_2 C28_2 1_555 1_555
C33_2 O6_2 1_555 1_555
H23_2 C33_2 1_555 1_555
H24_2 C33_2 1_555 1_555
C34_2 O14_2 1_555 1_555
H25_2 C34_2 1_555 1_555
H26_2 C34_2 1_555 1_555
C35_2 O15_2 1_555 1_555
H27_2 C35_2 1_555 1_555
H28_2 C35_2 1_555 1_555
Mo4_2 O6_2 1_555 1_555
Mo5_2 O14_2 1_555 1_555
Mo6_2 O14_2 1_555 1_555
O22_2 Mo6_2 1_555 1_555
O23_2 Mo1_2 1_555 1_555
O24_2 Mo5_2 1_555 1_555
O25_2 Mo3_2 1_555 1_555
O26_2 Mo5_2 1_555 1_555
O27_2 Mo4_2 1_555 1_555
O28_2 Mo5_2 1_555 1_555
O29_2 Mo4_2 1_555 1_555
O30_2 Mo4_2 1_555 1_555
O31_2 Mo2_2 1_555 1_555
O32_2 Mn1_3 1_555 1_555
O33_2 Mo6_2 1_555 1_555
H35_2 C43_2 1_555 1_555
C45_2 H36_2 1_555 1_555
C65_2 C43_2 1_555 1_555
C69_2 C65_2 1_555 1_555
C70_2 O23_2 1_555 1_555
H53_2 C70_2 1_555 1_555
H54_2 C70_2 1_555 1_555
C71_2 O31_2 1_555 1_555
H55_2 C71_2 1_555 1_555
H56_2 C71_2 1_555 1_555
C72_2 O32_2 1_555 1_555
H57_2 C72_2 1_555 1_555
H58_2 C72_2 1_555 1_555
Cu11 O39 1_555 1_555
Mo2_2 O13_2 1_555 1_555
Mo2_2 O15_2 1_555 1_555
Mo3_2 O9_2 1_555 1_555
Mo3_2 O31_2 1_555 1_555
Mn1_3 O15_2 1_555 1_555
Mn1_3 O23_2 1_555 1_555
Mn1_3 O31_2 1_555 1_555
C3_2 C10_2 1_555 1_555
C7_2 C16_2 1_555 1_555
C8_2 C15_2 1_555 1_555
C8_2 C28_2 1_555 1_555
C9_2 C26_2 1_555 1_555
C13_2 C27_2 1_555 1_555
C18_2 C21_2 1_555 1_555
C22_2 C29_2 1_555 1_555
C24_2 C25_2 1_555 1_555
C24_2 C31_2 1_555 1_555
C32_2 C33_2 1_555 1_555
C32_2 C34_2 1_555 1_555
C32_2 C35_2 1_555 1_555
Mo4_2 O25_2 1_555 1_555
Mo4_2 O32_2 1_555 1_555
Mo5_2 O30_2 1_555 1_555
Mo5_2 O32_2 1_555 1_555
Mo6_2 O23_2 1_555 1_555
Mo6_2 O26_2 1_555 1_555
C45_2 C65_2 1_555 1_555
C69_2 C70_2 1_555 1_555
C69_2 C71_2 1_555 1_555
C69_2 C72_2 1_555 1_555
N7 C23_2 1_555 1_555
C11_2 H8_2 1_555 1_555
C19_2 C11_2 1_555 1_555
C20_2 C19_2 1_555 1_555
C23_2 H17_2 1_555 1_555
C30_2 N7 1_555 1_555
H22_2 C30_2 1_555 1_555
C36_2 C20_2 1_555 1_555
C37_2 C20_2 1_555 1_555
H30_2 C37_2 1_555 1_555
C23_2 C37_2 1_555 1_555
C30_2 C36_2 1_555 1_555
N4_2 C60_3 1_555 1_555
C48_3 H38_3 1_555 1_555
C56_3 C48_3 1_555 1_555
C57_3 C56_3 1_555 1_555
C60_3 H47_3 1_555 1_555
C67_3 N4_2 1_555 1_555
H52_3 C67_3 1_555 1_555
C73_3 C57_3 1_555 1_555
C74_3 C57_3 1_555 1_555
H60_3 C74_3 1_555 1_555
Cu7_2 N4_2 1_555 1_555
C60_3 C74_3 1_555 1_555
C67_3 C73_3 1_555 1_555
Mo1_3 O8_3 1_555 1_555
Mo2_3 O7_3 1_555 1_555
Mo3_3 O5_3 1_555 1_555
Mn1_4 O6_3 1_555 1_555
O6_3 Mo3_3 1_555 1_555
O8_3 Mo6_3 1_555 1_555
O9_3 Mo2_3 1_555 1_555
O10_3 Mo1_3 1_555 1_555
O11_3 Mo2_3 1_555 1_555
O12_3 Mo1_3 1_555 1_555
O13_3 Mo1_3 1_555 1_555
O14_3 Mn1_4 1_555 1_555
O15_3 Mo1_3 1_555 1_555
O16_3 Mo3_3 1_555 1_555
H5_3 C6_3 1_555 1_555
C8_3 H6_3 1_555 1_555
C28_3 C6_3 1_555 1_555
C32_3 C28_3 1_555 1_555
C33_3 O6_3 1_555 1_555
H23_3 C33_3 1_555 1_555
H24_3 C33_3 1_555 1_555
C34_3 O14_3 1_555 1_555
H25_3 C34_3 1_555 1_555
H26_3 C34_3 1_555 1_555
C35_3 O15_3 1_555 1_555
H27_3 C35_3 1_555 1_555
H28_3 C35_3 1_555 1_555
Cu3 O18_3 1_555 1_555
Cu4_2 N5_3 1_555 1_555
Mo4_3 O6_3 1_555 1_555
Mo5_3 O14_3 1_555 1_555
Mo6_3 O14_3 1_555 1_555
N5_3 C59_3 1_555 1_555
N6_3 Cu4_2 1_555 1_555
O18_3 C68_3 1_555 1_555
O19_3 Cu4_2 1_555 1_555
O20_2 C51_3 1_555 1_555
O21_2 C51_3 1_555 1_555
O22_3 Mo6_3 1_555 1_555
O23_3 Mo1_3 1_555 1_555
O24_3 Mo5_3 1_555 1_555
O25_3 Mo3_3 1_555 1_555
O26_3 Mo5_3 1_555 1_555
O27_3 Mo4_3 1_555 1_555
O28_3 Mo5_3 1_555 1_555
O29_3 Mo4_3 1_555 1_555
O30_3 Mo4_3 1_555 1_555
O31_3 Mo2_3 1_555 1_555
O32_3 Mn1_4 1_555 1_555
O33_3 Mo6_3 1_555 1_555
O34_2 Cu3 1_555 1_555
C38_3 H31_3 1_555 1_555
C39_3 H32_3 1_555 1_555
C40_3 C39_3 1_555 1_555
H33_3 C40_3 1_555 1_555
C42_3 N6_3 1_555 1_555
H34_3 C42_3 1_555 1_555
C43_3 C42_3 1_555 1_555
H35_3 C43_3 1_555 1_555
C44_3 C46_3 1_555 1_555
C45_3 H36_3 1_555 1_555
C46_3 H37_3 1_555 1_555
C47_3 C38_3 1_555 1_555
C49_3 C47_3 1_555 1_555
H39_3 C49_3 1_555 1_555
C50_3 C39_3 1_555 1_555
C51_3 C50_3 1_555 1_555
C52_3 N6_3 1_555 1_555
H40_3 C52_3 1_555 1_555
C53_3 C38_3 1_555 1_555
H41_3 C53_3 1_555 1_555
C54_3 C41_3 1_555 1_555
C55_3 H43_3 1_555 1_555
C58_3 C41_3 1_555 1_555
H45_3 C58_3 1_555 1_555
C59_3 H46_3 1_555 1_555
C61_3 C55_3 1_555 1_555
C62_3 C54_3 1_555 1_555
H48_3 C62_3 1_555 1_555
C63_3 N5_3 1_555 1_555
H49_3 C63_3 1_555 1_555
C64_3 C49_3 1_555 1_555
H50_3 C64_3 1_555 1_555
C65_3 C43_3 1_555 1_555
C66_3 C44_3 1_555 1_555
H51_3 C66_3 1_555 1_555
C68_3 O19_3 1_555 1_555
C69_3 C65_3 1_555 1_555
C70_3 O23_3 1_555 1_555
H53_3 C70_3 1_555 1_555
H54_3 C70_3 1_555 1_555
C71_3 O31_3 1_555 1_555
H55_3 C71_3 1_555 1_555
H56_3 C71_3 1_555 1_555
C72_3 O32_3 1_555 1_555
H57_3 C72_3 1_555 1_555
H58_3 C72_3 1_555 1_555
Cu5 O34_2 1_555 1_555
Cu7_2 O20_2 1_555 1_555
N7_2 Cu3 1_555 1_555
O35_2 Cu3 1_555 1_555
O37_2 Cu4_2 1_555 1_555
O39_2 Cu3 1_555 1_555
Mo2_3 O13_3 1_555 1_555
Mo2_3 O15_3 1_555 1_555
Mo3_3 O9_3 1_555 1_555
Mo3_3 O31_3 1_555 1_555
Mn1_4 O15_3 1_555 1_555
Mn1_4 O23_3 1_555 1_555
Mn1_4 O31_3 1_555 1_555
C8_3 C28_3 1_555 1_555
C32_3 C33_3 1_555 1_555
C32_3 C34_3 1_555 1_555
C32_3 C35_3 1_555 1_555
Cu4_2 O34_2 1_555 1_555
Mo4_3 O25_3 1_555 1_555
Mo4_3 O32_3 1_555 1_555
Mo5_3 O30_3 1_555 1_555
Mo5_3 O32_3 1_555 1_555
Mo6_3 O23_3 1_555 1_555
Mo6_3 O26_3 1_555 1_555
C40_3 C47_3 1_555 1_555
C44_3 C53_3 1_555 1_555
C45_3 C52_3 1_555 1_555
C45_3 C65_3 1_555 1_555
C46_3 C63_3 1_555 1_555
C50_3 C64_3 1_555 1_555
C55_3 C58_3 1_555 1_555
C59_3 C66_3 1_555 1_555
C61_3 C62_3 1_555 1_555
C61_3 C68_3 1_555 1_555
C69_3 C70_3 1_555 1_555
C69_3 C71_3 1_555 1_555
C69_3 C72_3 1_555 1_555
Cu5 O39_2 1_555 1_555
O3_2 C14_3 1_555 1_555
O4_2 C14_3 1_555 1_555
C2_3 H2_3 1_555 1_555
C3_3 C2_3 1_555 1_555
H3_3 C3_3 1_555 1_555
C12_3 C10_3 1_555 1_555
C13_3 C2_3 1_555 1_555
C14_3 C13_3 1_555 1_555
C27_3 C12_3 1_555 1_555
H20_3 C27_3 1_555 1_555
Cu9_2 O3_2 1_555 1_555
C3_3 C10_3 1_555 1_555
C13_3 C27_3 1_555 1_555
Cu5 O1_3 1_555 1_555
Cu2_2 N2_3 1_555 1_555
N1_2 C23_3 1_555 1_555
N2_3 C22_3 1_555 1_555
N3_3 Cu2_2 1_555 1_555
O1_3 C31_3 1_555 1_555
O2_3 Cu2_2 1_555 1_555
C1_3 H1_3 1_555 1_555
C4_3 C11_3 1_555 1_555
C5_3 N3_3 1_555 1_555
H4_3 C5_3 1_555 1_555
C7_3 C9_3 1_555 1_555
C11_3 H8_3 1_555 1_555
C15_3 N3_3 1_555 1_555
H10_3 C15_3 1_555 1_555
C16_3 C1_3 1_555 1_555
C17_3 C4_3 1_555 1_555
H12_3 C17_3 1_555 1_555
C18_3 H13_3 1_555 1_555
C19_3 C11_3 1_555 1_555
H14_3 C19_3 1_555 1_555
C20_3 C19_3 1_555 1_555
C21_3 C4_3 1_555 1_555
H15_3 C21_3 1_555 1_555
C22_3 H16_3 1_555 1_555
C23_3 H17_3 1_555 1_555
C24_3 C18_3 1_555 1_555
C25_3 C17_3 1_555 1_555
H18_3 C25_3 1_555 1_555
C26_3 N2_3 1_555 1_555
H19_3 C26_3 1_555 1_555
C29_3 C7_3 1_555 1_555
H21_3 C29_3 1_555 1_555
C30_3 N1_2 1_555 1_555
H22_3 C30_3 1_555 1_555
C31_3 O2_3 1_555 1_555
C36_3 C20_3 1_555 1_555
H29_3 C36_3 1_555 1_555
C37_3 C20_3 1_555 1_555
H30_3 C37_3 1_555 1_555
Cu9_2 N1_2 1_555 1_555
N8_2 Cu5 1_555 1_555
O36_2 Cu5 1_555 1_555
O38_2 Cu2_2 1_555 1_555
Cu2_2 O39_2 1_555 1_555
C7_3 C16_3 1_555 1_555
C9_3 C26_3 1_555 1_555
C18_3 C21_3 1_555 1_555
C22_3 C29_3 1_555 1_555
C23_3 C37_3 1_555 1_555
C24_3 C25_3 1_555 1_555
C24_3 C31_3 1_555 1_555
C30_3 C36_3 1_555 1_555
Cu11_2 N2_4 1_555 1_555
Mo1_4 O8_4 1_555 1_555
Mo2_4 O7_4 1_555 1_555
N2_4 C22_4 1_555 1_555
N3_4 Cu11_2 1_555 1_555
O1_4 C31_4 1_555 1_555
O2_4 Cu11_2 1_555 1_555
O35_2 C14_4 1_555 1_555
O37_2 C14_4 1_555 1_555
O8_4 Mo6_4 1_555 1_555
O9_4 Mo2_4 1_555 1_555
O10_4 Mo1_4 1_555 1_555
O11_4 Mo2_4 1_555 1_555
O12_4 Mo1_4 1_555 1_555
O13_4 Mo1_4 1_555 1_555
O15_4 Mo1_4 1_555 1_555
C1_4 H1_4 1_555 1_555
C2_4 H2_4 1_555 1_555
C3_4 C2_4 1_555 1_555
H3_4 C3_4 1_555 1_555
C5_4 N3_4 1_555 1_555
H4_4 C5_4 1_555 1_555
C6_4 C5_4 1_555 1_555
H5_4 C6_4 1_555 1_555
C7_4 C9_4 1_555 1_555
C9_4 H7_4 1_555 1_555
C10_4 C1_4 1_555 1_555
C12_4 C10_4 1_555 1_555
H9_4 C12_4 1_555 1_555
C13_4 C2_4 1_555 1_555
C14_4 C13_4 1_555 1_555
C16_4 C1_4 1_555 1_555
H11_4 C16_4 1_555 1_555
C17_4 C4_4 1_555 1_555
C18_4 H13_4 1_555 1_555
C21_4 C4_4 1_555 1_555
H15_4 C21_4 1_555 1_555
C22_4 H16_4 1_555 1_555
C24_4 C18_4 1_555 1_555
C25_4 C17_4 1_555 1_555
H18_4 C25_4 1_555 1_555
C26_4 N2_4 1_555 1_555
H19_4 C26_4 1_555 1_555
C27_4 C12_4 1_555 1_555
H20_4 C27_4 1_555 1_555
C28_4 C6_4 1_555 1_555
C29_4 C7_4 1_555 1_555
H21_4 C29_4 1_555 1_555
C31_4 O2_4 1_555 1_555
C32_4 C28_4 1_555 1_555
C35_4 O15_4 1_555 1_555
H27_4 C35_4 1_555 1_555
H28_4 C35_4 1_555 1_555
O22_4 Mo6_4 1_555 1_555
O23_4 Mo1_4 1_555 1_555
O31_4 Mo2_4 1_555 1_555
C45_4 H36_4 1_555 1_555
C70_4 O23_4 1_555 1_555
H53_4 C70_4 1_555 1_555
C71_4 O31_4 1_555 1_555
H56_4 C71_4 1_555 1_555
Cu9_2 O17_2 1_555 1_555
Cu11_2 O17_2 1_555 1_555
Mo2_4 O13_4 1_555 1_555
Mo2_4 O15_4 1_555 1_555
Mn1_5 O15_4 1_555 1_555
Mn1_5 O23_4 1_555 1_555
Mn1_5 O31_4 1_555 1_555
C3_4 C10_4 1_555 1_555
C7_4 C16_4 1_555 1_555
C9_4 C26_4 1_555 1_555
C13_4 C27_4 1_555 1_555
C18_4 C21_4 1_555 1_555
C22_4 C29_4 1_555 1_555
C24_4 C25_4 1_555 1_555
C24_4 C31_4 1_555 1_555
C32_4 C35_4 1_555 1_555
Mo6_4 O23_4 1_555 1_555
Mo3_4 O5_4 1_555 1_555
Mn1_6 O6_4 1_555 1_555
O6_4 Mo3_4 1_555 1_555
O14_4 Mn1_6 1_555 1_555
C8_4 H6_4 1_555 1_555
H10_4 C15_4 1_555 1_555
C33_4 O6_4 1_555 1_555
H23_4 C33_4 1_555 1_555
C34_4 O14_4 1_555 1_555
H26_4 C34_4 1_555 1_555
Mo4_4 O6_4 1_555 1_555
Mo5_4 O14_4 1_555 1_555
O24_4 Mo5_4 1_555 1_555
O25_4 Mo3_4 1_555 1_555
O26_4 Mo5_4 1_555 1_555
O27_4 Mo4_4 1_555 1_555
O28_4 Mo5_4 1_555 1_555
O29_4 Mo4_4 1_555 1_555
O30_4 Mo4_4 1_555 1_555
O32_4 Mn1_6 1_555 1_555
H35_4 C43_4 1_555 1_555
C65_4 C43_4 1_555 1_555
C69_4 C65_4 1_555 1_555
C72_4 O32_4 1_555 1_555
H57_4 C72_4 1_555 1_555
H58_4 C72_4 1_555 1_555
O40_2 Cu7_2 1_555 1_555
C8_4 C15_4 1_555 1_555
Mo4_4 O25_4 1_555 1_555
Mo4_4 O32_4 1_555 1_555
Mo5_4 O30_4 1_555 1_555
Mo5_4 O32_4 1_555 1_555
C69_4 C72_4 1_555 1_555
N7_2 C23_4 1_555 1_555
C11_4 H8_4 1_555 1_555
C19_4 C11_4 1_555 1_555
C20_4 C19_4 1_555 1_555
C23_4 H17_4 1_555 1_555
C30_4 N7_2 1_555 1_555
H22_4 C30_4 1_555 1_555
C36_4 C20_4 1_555 1_555
C37_4 C20_4 1_555 1_555
H30_4 C37_4 1_555 1_555
C23_4 C37_4 1_555 1_555
C30_4 C36_4 1_555 1_555
H40_4 C52_4 1_555 1_555
Cu12_2 N5_4 1_555 1_555
N8_2 C60_4 1_555 1_555
N5_4 C59_4 1_555 1_555
N6_4 Cu12_2 1_555 1_555
O18_4 C68_4 1_555 1_555
O19_4 Cu12_2 1_555 1_555
C38_4 H31_4 1_555 1_555
C41_4 C48_4 1_555 1_555
C42_4 N6_4 1_555 1_555
H34_4 C42_4 1_555 1_555
C44_4 C46_4 1_555 1_555
C48_4 H38_4 1_555 1_555
C53_4 C38_4 1_555 1_555
C54_4 C41_4 1_555 1_555
H42_4 C54_4 1_555 1_555
C55_4 H43_4 1_555 1_555
C56_4 C48_4 1_555 1_555
H44_4 C56_4 1_555 1_555
C57_4 C56_4 1_555 1_555
C58_4 C41_4 1_555 1_555
H45_4 C58_4 1_555 1_555
C59_4 H46_4 1_555 1_555
C60_4 H47_4 1_555 1_555
C61_4 C55_4 1_555 1_555
C62_4 C54_4 1_555 1_555
H48_4 C62_4 1_555 1_555
C63_4 N5_4 1_555 1_555
H49_4 C63_4 1_555 1_555
C66_4 C44_4 1_555 1_555
H51_4 C66_4 1_555 1_555
C67_4 N8_2 1_555 1_555
H52_4 C67_4 1_555 1_555
C68_4 O19_4 1_555 1_555
C73_4 C57_4 1_555 1_555
H59_4 C73_4 1_555 1_555
C74_4 C57_4 1_555 1_555
H60_4 C74_4 1_555 1_555
Cu12_2 O40_2 1_555 1_555
C44_4 C53_4 1_555 1_555
C46_4 C63_4 1_555 1_555
C55_4 C58_4 1_555 1_555
C59_4 C66_4 1_555 1_555
C60_4 C74_4 1_555 1_555
C61_4 C62_4 1_555 1_555
C61_4 C68_4 1_555 1_555
C67_4 C73_4 1_555 1_555
O36_2 C51_4 1_555 1_555
O38_2 C51_4 1_555 1_555
C39_4 H32_4 1_555 1_555
C40_4 C39_4 1_555 1_555
H33_4 C40_4 1_555 1_555
C49_4 C47_4 1_555 1_555
C50_4 C39_4 1_555 1_555
C51_4 C50_4 1_555 1_555
C64_4 C49_4 1_555 1_555
H50_4 C64_4 1_555 1_555
C40_4 C47_4 1_555 1_555
C50_4 C64_4 1_555 1_555

#END
