
###############################################################################
#
# This file contains modified crystal structure data generated from the
# MOF subset of the Cambridge Structural Database (CSD) v543 
# hosted by the Cambridge Crystallographic Data Centre (CCDC).
#
# This work is licensed under the Creative Commons
# Attribution-NonCommercial-ShareAlike 4.0 International License.
# To view a copy of this license, visit
# http://creativecommons.org/licenses/by-nc-sa/4.0/
# or send a letter to
# Creative Commons, PO Box 1866, Mountain View, CA 94042, USA.
#
# CIF created using the CSD Python API on 29 September 2022
# The structure has been converted into the P1 space group
# The structure has a 3D framework
# The original CSD entry QIPROY is in the tetragonal crystal system
# The framework has been calculated to contain at least 10.0% void space
# The void calculation uses a probe of radius 1.32A, grid spacing 0.4
# H atom positions have been added when not included in the experimental data
# Generated hydrogen atom positions removed from atoms on special positions
#
###############################################################################

data_QIPROY
_chemical_formula_moiety         '(C57 H80 Cu4 N8 O12)n'
_symmetry_cell_setting           triclinic
_symmetry_space_group_name_H-M   'P 1'
_symmetry_Int_Tables_number      1
_space_group_name_Hall           'P 1'
loop_
_symmetry_equiv_pos_site_id
_symmetry_equiv_pos_as_xyz
1 x,y,z
_cell_length_a                   9.5268(6)
_cell_length_b                   9.5268(6)
_cell_length_c                   23.401(3)
_cell_angle_alpha                90
_cell_angle_beta                 90
_cell_angle_gamma                90
_cell_volume                     2123.87
loop_
_atom_site_label
_atom_site_type_symbol
_atom_site_fract_x
_atom_site_fract_y
_atom_site_fract_z
C1 C 0.0000 0.0000 0.0000
H18 H 0.0482 0.3180 0.1493
Cu4 Cu 0.0000 0.5000 0.2500
C1_2 C 0.0000 0.0000 1.0000
N2 N 0.3974(3) 0.1127(3) 0.81027(9)
O3 O 0.1683(3) 0.0422(2) 0.92672(10)
C8 C 0.0717(3) 0.1135(3) 0.96361(12)
H7 H 0.0026 0.1644 0.9413
H8 H 0.1211 0.1796 0.9879
C9 C 0.2429(4) 0.1233(3) 0.88978(14)
C10 C 0.2488(5) 0.2674(4) 0.89000(15)
H9 H 0.2005 0.3199 0.9171
C11 C 0.3281(5) 0.3301(4) 0.84908(19)
H10 H 0.3317 0.4276 0.8477
C12 C 0.4025(5) 0.2551(4) 0.81007(16)
H11 H 0.4572 0.3015 0.7831
C13 C 0.3202(4) 0.0493(4) 0.84980(12)
Cu2 Cu 0.5000 0.0000 0.7500
C1_3 C 0.0000 1.0000 0.0000
N4 N 0.1127(3) 0.6026(3) 0.18973(9)
O5 O 0.0422(2) 0.8317(3) 0.07328(10)
C20 C 0.1135(3) 0.9283(3) 0.03639(12)
H19 H 0.1644 0.9974 0.0587
H20 H 0.1796 0.8789 0.0121
C21 C 0.1233(3) 0.7571(4) 0.11022(14)
C22 C 0.2674(4) 0.7512(5) 0.11000(15)
H21 H 0.3199 0.7995 0.0829
C23 C 0.3301(4) 0.6719(5) 0.15092(19)
H22 H 0.4276 0.6683 0.1523
C24 C 0.2551(4) 0.5975(5) 0.18993(16)
H23 H 0.3015 0.5428 0.2169
C25 C 0.0493(4) 0.6798(4) 0.15020(12)
C1_4 C 0.0000 1.0000 1.0000
H12 H 0.3180 0.9518 0.8507
Cu2_2 Cu 0.5000 1.0000 0.7500
C1_5 C 1.0000 0.0000 0.0000
N3 N 0.8873(3) 0.3974(3) 0.18973(9)
O4 O 0.9578(2) 0.1683(3) 0.07328(10)
C14 C 0.8865(3) 0.0717(3) 0.03639(12)
H13 H 0.8356 0.0026 0.0587
H14 H 0.8204 0.1211 0.0121
C15 C 0.8767(3) 0.2429(4) 0.11022(14)
C16 C 0.7326(4) 0.2488(5) 0.11000(15)
H15 H 0.6801 0.2005 0.0829
C17 C 0.6699(4) 0.3281(5) 0.15092(19)
H16 H 0.5724 0.3317 0.1523
C18 C 0.7449(4) 0.4025(5) 0.18993(16)
H17 H 0.6985 0.4572 0.2169
C19 C 0.9507(4) 0.3202(4) 0.15020(12)
Cu4_2 Cu 1.0000 0.5000 0.2500
C1_6 C 1.0000 0.0000 1.0000
H6 H 0.6820 0.0482 0.8507
O6 O 0.6847(2) 0.1847(2) 0.7500
N6 N 0.3873(3) 0.1026(3) 0.68973(9)
C1_7 C 1.0000 1.0000 0.0000
H24 H 0.9518 0.6820 0.1493
N1 N 0.6026(3) 0.8873(3) 0.81027(9)
O1 O 0.8317(3) 0.9578(2) 0.92672(10)
O2 O 0.3153(2) 0.8153(2) 0.7500
C1_8 C 1.0000 1.0000 1.0000
C2 C 0.9283(3) 0.8865(3) 0.96361(12)
H1 H 0.9974 0.8356 0.9413
H2 H 0.8789 0.8204 0.9879
C3 C 0.7571(4) 0.8767(3) 0.88978(14)
C4 C 0.7512(5) 0.7326(4) 0.89000(15)
H3 H 0.7995 0.6801 0.9171
C5 C 0.6719(5) 0.6699(4) 0.84908(19)
H4 H 0.6683 0.5724 0.8477
C6 C 0.5975(5) 0.7449(4) 0.81007(16)
H5 H 0.5428 0.6985 0.7831
C7 C 0.6798(4) 0.9507(4) 0.84980(12)
N7 N 0.6127(3) 0.8974(3) 0.68973(9)
O6_2 O 0.1847(2) 0.3153(2) 0.2500
N6_2 N 0.1026(3) 0.6127(3) 0.31027(9)
O2_2 O 0.8153(2) 0.6847(2) 0.2500
N7_2 N 0.8974(3) 0.3873(3) 0.31027(9)
O1_2 O 0.3317(3) 0.5422(2) 0.42672(10)
C1_9 C 0.5000 0.5000 0.5000
C2_2 C 0.4283(3) 0.6135(3) 0.46361(12)
H1_2 H 0.4974 0.6644 0.4413
H2_2 H 0.3789 0.6796 0.4879
C3_2 C 0.2571(4) 0.6233(3) 0.38978(14)
C4_2 C 0.2512(5) 0.7674(4) 0.39000(15)
H3_2 H 0.2995 0.8199 0.4171
C5_2 C 0.1719(5) 0.8301(4) 0.34908(19)
H4_2 H 0.1683 0.9276 0.3477
C6_2 C 0.0975(5) 0.7551(4) 0.31007(16)
H5_2 H 0.0428 0.8015 0.2831
C7_2 C 0.1798(4) 0.5493(4) 0.34980(12)
H6_2 H 0.1820 0.4518 0.3507
O3_2 O 0.6683(3) 0.4578(2) 0.42672(10)
C8_2 C 0.5717(3) 0.3865(3) 0.46361(12)
H7_2 H 0.5026 0.3356 0.4413
H8_2 H 0.6211 0.3204 0.4879
C9_2 C 0.7429(4) 0.3767(3) 0.38978(14)
C10_2 C 0.7488(5) 0.2326(4) 0.39000(15)
H9_2 H 0.7005 0.1801 0.4171
C11_2 C 0.8281(5) 0.1699(4) 0.34908(19)
H10_2 H 0.8317 0.0724 0.3477
C12_2 C 0.9025(5) 0.2449(4) 0.31007(16)
H11_2 H 0.9572 0.1985 0.2831
C13_2 C 0.8202(4) 0.4507(4) 0.34980(12)
H12_2 H 0.8180 0.5482 0.3507
O4_2 O 0.4578(2) 0.3317(3) 0.57328(10)
C14_2 C 0.3865(3) 0.4283(3) 0.53639(12)
H13_2 H 0.3356 0.4974 0.5587
H14_2 H 0.3204 0.3789 0.5121
C15_2 C 0.3767(3) 0.2571(4) 0.61022(14)
C16_2 C 0.2326(4) 0.2512(5) 0.61000(15)
H15_2 H 0.1801 0.2995 0.5829
C17_2 C 0.1699(4) 0.1719(5) 0.65092(19)
H16_2 H 0.0724 0.1683 0.6523
C18_2 C 0.2449(4) 0.0975(5) 0.68993(16)
H17_2 H 0.1985 0.0428 0.7169
C19_2 C 0.4507(4) 0.1798(4) 0.65020(12)
H18_2 H 0.5482 0.1820 0.6493
O5_2 O 0.5422(2) 0.6683(3) 0.57328(10)
C20_2 C 0.6135(3) 0.5717(3) 0.53639(12)
H19_2 H 0.6644 0.5026 0.5587
H20_2 H 0.6796 0.6211 0.5121
C21_2 C 0.6233(3) 0.7429(4) 0.61022(14)
C22_2 C 0.7674(4) 0.7488(5) 0.61000(15)
H21_2 H 0.8199 0.7005 0.5829
C23_2 C 0.8301(4) 0.8281(5) 0.65092(19)
H22_2 H 0.9276 0.8317 0.6523
C24_2 C 0.7551(4) 0.9025(5) 0.68993(16)
H23_2 H 0.8015 0.9572 0.7169
C25_2 C 0.5493(4) 0.8202(4) 0.65020(12)
H24_2 H 0.4518 0.8180 0.6493
loop_
_geom_bond_atom_site_label_1
_geom_bond_atom_site_label_2
_geom_bond_site_symmetry_1
_geom_bond_site_symmetry_2
N2 C12 1_555 1_555
O3 C8 1_555 1_555
C8 C1_2 1_555 1_555
H7 C8 1_555 1_555
H8 C8 1_555 1_555
C9 O3 1_555 1_555
C10 C9 1_555 1_555
H9 C10 1_555 1_555
C11 C10 1_555 1_555
H10 C11 1_555 1_555
C12 C11 1_555 1_555
H11 C12 1_555 1_555
C13 N2 1_555 1_555
Cu2 N2 1_555 1_555
C9 C13 1_555 1_555
N4 C24 1_555 1_555
O5 C20 1_555 1_555
C20 C1_3 1_555 1_555
H19 C20 1_555 1_555
H20 C20 1_555 1_555
C21 O5 1_555 1_555
C22 C21 1_555 1_555
H21 C22 1_555 1_555
C23 C22 1_555 1_555
H22 C23 1_555 1_555
C24 C23 1_555 1_555
H23 C24 1_555 1_555
C25 N4 1_555 1_555
Cu4 N4 1_555 1_555
C21 C25 1_555 1_555
N3 C18 1_555 1_555
O4 C14 1_555 1_555
C14 C1_5 1_555 1_555
H13 C14 1_555 1_555
H14 C14 1_555 1_555
C15 O4 1_555 1_555
C16 C15 1_555 1_555
H15 C16 1_555 1_555
C17 C16 1_555 1_555
H16 C17 1_555 1_555
C18 C17 1_555 1_555
H17 C18 1_555 1_555
C19 N3 1_555 1_555
Cu4_2 N3 1_555 1_555
C15 C19 1_555 1_555
O6 Cu2 1_555 1_555
N6 Cu2 1_555 1_555
Cu2_2 N1 1_555 1_555
N1 C6 1_555 1_555
O1 C2 1_555 1_555
O2 Cu2_2 1_555 1_555
C1_8 C2 1_555 1_555
C2 H1 1_555 1_555
H2 C2 1_555 1_555
C3 O1 1_555 1_555
C4 C3 1_555 1_555
H3 C4 1_555 1_555
C5 C4 1_555 1_555
H4 C5 1_555 1_555
C6 C5 1_555 1_555
H5 C6 1_555 1_555
C7 N1 1_555 1_555
N7 Cu2_2 1_555 1_555
C3 C7 1_555 1_555
O6_2 Cu4 1_555 1_555
N6_2 Cu4 1_555 1_555
O2_2 Cu4_2 1_555 1_555
N7_2 Cu4_2 1_555 1_555
N6_2 C6_2 1_555 1_555
O1_2 C2_2 1_555 1_555
C1_9 C2_2 1_555 1_555
C2_2 H1_2 1_555 1_555
H2_2 C2_2 1_555 1_555
C3_2 O1_2 1_555 1_555
C4_2 C3_2 1_555 1_555
H3_2 C4_2 1_555 1_555
C5_2 C4_2 1_555 1_555
H4_2 C5_2 1_555 1_555
C6_2 C5_2 1_555 1_555
H5_2 C6_2 1_555 1_555
C7_2 N6_2 1_555 1_555
H6_2 C7_2 1_555 1_555
N7_2 C12_2 1_555 1_555
O3_2 C8_2 1_555 1_555
C8_2 C1_9 1_555 1_555
H7_2 C8_2 1_555 1_555
H8_2 C8_2 1_555 1_555
C9_2 O3_2 1_555 1_555
C10_2 C9_2 1_555 1_555
H9_2 C10_2 1_555 1_555
C11_2 C10_2 1_555 1_555
H10_2 C11_2 1_555 1_555
C12_2 C11_2 1_555 1_555
H11_2 C12_2 1_555 1_555
C13_2 N7_2 1_555 1_555
H12_2 C13_2 1_555 1_555
N6 C18_2 1_555 1_555
O4_2 C14_2 1_555 1_555
C14_2 C1_9 1_555 1_555
H13_2 C14_2 1_555 1_555
H14_2 C14_2 1_555 1_555
C15_2 O4_2 1_555 1_555
C16_2 C15_2 1_555 1_555
H15_2 C16_2 1_555 1_555
C17_2 C16_2 1_555 1_555
H16_2 C17_2 1_555 1_555
C18_2 C17_2 1_555 1_555
H17_2 C18_2 1_555 1_555
C19_2 N6 1_555 1_555
H18_2 C19_2 1_555 1_555
N7 C24_2 1_555 1_555
O5_2 C20_2 1_555 1_555
C20_2 C1_9 1_555 1_555
H19_2 C20_2 1_555 1_555
H20_2 C20_2 1_555 1_555
C21_2 O5_2 1_555 1_555
C22_2 C21_2 1_555 1_555
H21_2 C22_2 1_555 1_555
C23_2 C22_2 1_555 1_555
H22_2 C23_2 1_555 1_555
C24_2 C23_2 1_555 1_555
H23_2 C24_2 1_555 1_555
C25_2 N7 1_555 1_555
H24_2 C25_2 1_555 1_555
C3_2 C7_2 1_555 1_555
C9_2 C13_2 1_555 1_555
C15_2 C19_2 1_555 1_555
C21_2 C25_2 1_555 1_555

#END
