
###############################################################################
#
# This file contains modified crystal structure data generated from the
# MOF subset of the Cambridge Structural Database (CSD) v543 
# hosted by the Cambridge Crystallographic Data Centre (CCDC).
#
# This work is licensed under the Creative Commons
# Attribution-NonCommercial-ShareAlike 4.0 International License.
# To view a copy of this license, visit
# http://creativecommons.org/licenses/by-nc-sa/4.0/
# or send a letter to
# Creative Commons, PO Box 1866, Mountain View, CA 94042, USA.
#
# CIF created using the CSD Python API on 29 September 2022
# The structure has been converted into the P1 space group
# The structure has a 3D framework
# The original CSD entry QIQTAN is in the triclinic crystal system
# The framework has been calculated to contain at least 10.0% void space
# The void calculation uses a probe of radius 1.32A, grid spacing 0.4
#
###############################################################################

data_QIQTAN
_chemical_formula_moiety         '(C110 H84 N10 Ni6 O30)n'
_symmetry_cell_setting           triclinic
_symmetry_space_group_name_H-M   'P 1'
_symmetry_Int_Tables_number      1
_space_group_name_Hall           'P 1'
loop_
_symmetry_equiv_pos_site_id
_symmetry_equiv_pos_as_xyz
1 x,y,z
_cell_length_a                   13.1440(5)
_cell_length_b                   16.1395(8)
_cell_length_c                   17.3653(9)
_cell_angle_alpha                112.258(5)
_cell_angle_beta                 104.013(4)
_cell_angle_gamma                96.650(4)
_cell_volume                     3218.33
loop_
_atom_site_label
_atom_site_type_symbol
_atom_site_fract_x
_atom_site_fract_y
_atom_site_fract_z
_atom_site_U_iso_or_equiv
_atom_site_thermal_displace_type
Ni2 Ni 0.12297(5) 0.27285(4) 0.22965(4) 0.0247 Uani
O1 O 0.0287(3) 0.3699(2) 0.2754(2) 0.0227 Uani
O2 O 0.0977(3) 0.4684(2) 0.2303(2) 0.0324 Uani
O3 O 0.0143(3) 0.6561(2) 0.5643(2) 0.0253 Uani
O13 O 0.0546(3) 0.2166(2) 0.2999(2) 0.0238 Uani
H1 H 0.0256 0.1595 0.2683 0.0280 Uiso
H2 H 0.0938 0.2314 0.3533 0.0280 Uiso
O14 O 0.1813(3) 0.3290(3) 0.1536(3) 0.0435 Uani
H3 H 0.1557 0.3733 0.1548 0.0520 Uiso
H4 H 0.1263 0.2884 0.1433 0.0520 Uiso
N5 N 0.2601(3) 0.3540(3) 0.3332(3) 0.0288 Uani
C1 C 0.0324(4) 0.4425(3) 0.2627(3) 0.0218 Uani
H9 H 0.0213 0.5326 0.4214 0.0300 Uiso
C50 C 0.2679(4) 0.4438(4) 0.3821(4) 0.0425 Uani
H38 H 0.2073 0.4675 0.3722 0.0510 Uiso
C51 C 0.3603(4) 0.5017(4) 0.4453(4) 0.0353 Uani
H39 H 0.3618 0.5636 0.4751 0.0430 Uiso
C52 C 0.4496(4) 0.4702(3) 0.4649(4) 0.0260 Uani
C53 C 0.4428(5) 0.3787(4) 0.4148(4) 0.0519 Uani
H40 H 0.5024 0.3538 0.4247 0.0630 Uiso
C54 C 0.3486(5) 0.3240(4) 0.3505(5) 0.0557 Uani
H41 H 0.3470 0.2628 0.3176 0.0670 Uiso
N6 N 0.7399(3) 0.6460(3) 0.6668(3) 0.0288 Uani
C56 C 0.7321(4) 0.5562(4) 0.6179(4) 0.0425 Uani
H43 H 0.7927 0.5325 0.6278 0.0510 Uiso
C57 C 0.6397(4) 0.4983(4) 0.5547(4) 0.0353 Uani
H44 H 0.6382 0.4364 0.5249 0.0430 Uiso
C58 C 0.5504(4) 0.5298(3) 0.5351(4) 0.0260 Uani
C59 C 0.5572(5) 0.6213(4) 0.5852(4) 0.0519 Uani
H45 H 0.4976 0.6462 0.5753 0.0630 Uiso
C60 C 0.6514(5) 0.6760(4) 0.6495(5) 0.0557 Uani
H46 H 0.6530 0.7372 0.6824 0.0670 Uiso
Ni8 Ni 0.08070(5) 0.72805(4) 0.69821(4) 0.0219 Uani
Ni11 Ni 0.87703(5) 0.72715(4) 0.77035(4) 0.0247 Uani
O36 O 0.1979(3) 0.1677(2) 0.1911(2) 0.0297 Uani
Ni1 Ni 0.91930(5) 0.27195(4) 0.30179(4) 0.0219 Uani
O4 O 0.8734(3) 0.7169(3) 0.5339(3) 0.0510 Uani
O7 O 0.8561(3) 0.2081(2) 0.1711(2) 0.0252 Uani
O8 O 0.9974(3) 0.1929(2) 0.1203(2) 0.0282 Uani
N1 N 0.8337(3) 0.1585(3) 0.3109(3) 0.0291 Uani
N3 N 0.7907(3) 0.3392(3) 0.3048(3) 0.0269 Uani
N4 N 0.4218(3) 0.6294(3) 0.3154(3) 0.0298 Uani
C2 C 0.9633(4) 0.5083(3) 0.2945(3) 0.0208 Uani
C3 C 0.9777(4) 0.5511(3) 0.3831(3) 0.0245 Uani
C4 C 0.9265(4) 0.6227(4) 0.4154(3) 0.0266 Uani
C5 C 0.8604(4) 0.6480(4) 0.3566(4) 0.0333 Uani
H10 H 0.8264 0.6955 0.3772 0.0400 Uiso
C6 C 0.8451(5) 0.6038(4) 0.2690(4) 0.0397 Uani
H11 H 0.8004 0.6221 0.2311 0.0480 Uiso
C7 C 0.8940(4) 0.5321(4) 0.2344(3) 0.0287 Uani
C8 C 0.8714(4) 0.4804(4) 0.1392(4) 0.0294 Uani
C9 C 0.8711(5) 0.5229(4) 0.0826(4) 0.0439 Uani
H12 H 0.8872 0.5868 0.1055 0.0530 Uiso
C12 C 0.8517(4) 0.3836(4) 0.1020(4) 0.0312 Uani
H14 H 0.8527 0.3523 0.1374 0.0380 Uiso
C13 C 0.9384(4) 0.6689(4) 0.5122(3) 0.0269 Uani
C15 C 0.7770(6) 0.0824(4) 0.2393(5) 0.0553 Uani
H15 H 0.7834 0.0786 0.1859 0.0660 Uiso
C16 C 0.7113(6) 0.0106(4) 0.2377(4) 0.0543 Uani
C17 C 0.7014(5) 0.0138(4) 0.3170(4) 0.0335 Uani
C18 C 0.7635(5) 0.0890(4) 0.3920(4) 0.0437 Uani
H17 H 0.7625 0.0926 0.4466 0.0520 Uiso
C19 C 0.8268(5) 0.1585(4) 0.3858(4) 0.0393 Uani
H18 H 0.8676 0.2087 0.4375 0.0470 Uiso
H22 H 0.6006 0.0205 0.4330 0.0500 Uiso
C25 C 0.8990(4) 0.1757(3) 0.1120(3) 0.0220 Uani
C26 C 0.8256(4) 0.1086(3) 0.0245(3) 0.0247 Uani
C31 C 0.7141(4) 0.1007(4) 0.0042(4) 0.0373 Uani
H25 H 0.6858 0.1368 0.0459 0.0450 Uiso
C40 C 0.7920(4) 0.4079(4) 0.3772(3) 0.0286 Uani
H30 H 0.8453 0.4193 0.4286 0.0340 Uiso
C41 C 0.7208(4) 0.4635(4) 0.3821(4) 0.0346 Uani
H31 H 0.7287 0.5125 0.4350 0.0410 Uiso
C42 C 0.6356(4) 0.4463(4) 0.3072(4) 0.0294 Uani
C43 C 0.6299(4) 0.3703(4) 0.2324(4) 0.0372 Uani
H32 H 0.5738 0.3536 0.1811 0.0440 Uiso
C44 C 0.7065(4) 0.3195(4) 0.2338(4) 0.0337 Uani
H33 H 0.6999 0.2686 0.1826 0.0410 Uiso
C45 C 0.5612(4) 0.5084(4) 0.3100(4) 0.0304 Uani
C46 C 0.5930(4) 0.5999(4) 0.3704(4) 0.0363 Uani
H34 H 0.6621 0.6228 0.4103 0.0440 Uiso
C47 C 0.5236(4) 0.6560(4) 0.3713(4) 0.0358 Uani
H35 H 0.5474 0.7168 0.4130 0.0430 Uiso
C48 C 0.3904(5) 0.5419(4) 0.2577(4) 0.0355 Uani
H36 H 0.3209 0.5216 0.2186 0.0430 Uiso
C49 C 0.4547(4) 0.4790(4) 0.2521(4) 0.0343 Uani
H37 H 0.4282 0.4182 0.2109 0.0410 Uiso
C55 C 0.8311(5) 0.3354(4) 0.0136(4) 0.0396 Uani
O25 O 0.0841(3) 0.0597(3) 0.2017(3) 0.0441 Uani
O27 O 0.6926(3) 0.2993(3) 0.4970(2) 0.0345 Uani
O28 O 0.6071(3) 0.2095(2) 0.5439(2) 0.0310 Uani
C88 C 0.2051(4) 0.0135(4) 0.1185(4) 0.0297 Uani
C89 C 0.3158(4) 0.0172(4) 0.1412(4) 0.0317 Uani
C92 C 0.1588(4) 0.0864(4) 0.1752(4) 0.0342 Uani
C93 C 0.3895(4) 0.0775(4) 0.2288(4) 0.0332 Uani
C94 C 0.3695(4) 0.0758(4) 0.3034(4) 0.0380 Uani
H72 H 0.3055 0.0393 0.2976 0.0450 Uiso
C95 C 0.4415(5) 0.1266(4) 0.3849(4) 0.0348 Uani
H73 H 0.4259 0.1236 0.4334 0.0420 Uiso
C96 C 0.5374(4) 0.1825(3) 0.3966(3) 0.0252 Uani
C97 C 0.5579(4) 0.1886(4) 0.3240(4) 0.0309 Uani
H74 H 0.6201 0.2286 0.3312 0.0370 Uiso
C98 C 0.4862(4) 0.1355(4) 0.2403(4) 0.0363 Uani
H75 H 0.5021 0.1383 0.1918 0.0440 Uiso
C99 C 0.6187(4) 0.2348(3) 0.4852(3) 0.0247 Uani
Ni13 Ni 0.32717(5) 0.72733(4) 0.32222(4) 0.0245 Uani
Ni15 Ni 0.67283(5) 0.27267(4) 0.67778(4) 0.0245 Uani
O34 O 0.9857(3) 0.3439(2) 0.4357(2) 0.0253 Uani
O5 O 0.8324(6) 0.2475(4) 0.8387(3) 0.1220 Uani
O6 O 0.7383(3) 0.3419(2) 0.8102(2) 0.0322 Uani
C10 C 0.8473(5) 0.4723(4) 0.9931(4) 0.0413 Uani
H13 H 0.8441 0.5023 0.9565 0.0500 Uiso
C11 C 0.8281(5) 0.3767(4) 0.9579(4) 0.0356 Uani
C14 C 0.7993(6) 0.3182(5) 0.8615(4) 0.0477 Uani
C27 C 0.8648(4) 0.0514(4) 0.9625(3) 0.0291 Uani
H23 H 0.9387 0.0561 0.9748 0.0350 Uiso
C30 C 0.6460(4) 0.0397(4) 0.9227(4) 0.0431 Uani
H24 H 0.5724 0.0366 0.9100 0.0520 Uiso
H42 H 0.8187 0.2716 0.9905 0.0470 Uiso
O31 O 0.8022(3) 0.3447(2) 0.6631(2) 0.0333 Uani
H51 H 0.8186 0.3983 0.6997 0.0410 Uiso
H52 H 0.7711 0.3361 0.6106 0.0410 Uiso
O32 O 0.7603(4) 0.1687(3) 0.6694(3) 0.0506 Uani
H53 H 0.8000 0.1921 0.7224 0.0610 Uiso
H54 H 0.7161 0.1808 0.6328 0.0610 Uiso
N8 N 0.5472(4) 0.1841(3) 0.6824(3) 0.0341 Uani
H62 H 0.3264 0.0397 0.8148 0.0650 Uiso
C80 C 0.3798(5) 0.0580(4) 0.6819(4) 0.0366 Uani
C81 C 0.4227(6) 0.1457(5) 0.7500(5) 0.0657 Uani
H65 H 0.3968 0.1639 0.7978 0.0790 Uiso
C82 C 0.5032(6) 0.2048(5) 0.7463(5) 0.0605 Uani
H66 H 0.5286 0.2634 0.7919 0.0720 Uiso
C83 C 0.5067(5) 0.1020(4) 0.6172(4) 0.0418 Uani
H67 H 0.5345 0.0864 0.5705 0.0500 Uiso
C84 C 0.4243(5) 0.0370(4) 0.6143(4) 0.0409 Uani
N12 N 0.5782(3) 0.3706(3) 0.6846(3) 0.0298 Uani
O15 O 0.1978(3) 0.6553(2) 0.3369(2) 0.0333 Uani
H5 H 0.1814 0.6017 0.3003 0.0410 Uiso
H6 H 0.2289 0.6639 0.3894 0.0410 Uiso
O16 O 0.2397(4) 0.8313(3) 0.3306(3) 0.0506 Uani
H7 H 0.2000 0.8079 0.2776 0.0610 Uiso
H8 H 0.2839 0.8192 0.3672 0.0610 Uiso
N2 N 0.4528(4) 0.8159(3) 0.3176(3) 0.0341 Uani
H16 H 0.6736 0.9603 0.1852 0.0650 Uiso
C20 C 0.6202(5) 0.9420(4) 0.3181(4) 0.0366 Uani
C21 C 0.5773(6) 0.8543(5) 0.2500(5) 0.0657 Uani
H19 H 0.6032 0.8361 0.2022 0.0790 Uiso
C22 C 0.4968(6) 0.7952(5) 0.2537(5) 0.0605 Uani
H20 H 0.4714 0.7366 0.2081 0.0720 Uiso
C23 C 0.4933(5) 0.8980(4) 0.3828(4) 0.0418 Uani
H21 H 0.4655 0.9136 0.4295 0.0500 Uiso
C24 C 0.5757(5) 0.9630(4) 0.3857(4) 0.0409 Uani
O21 O 0.1676(6) 0.7525(4) 0.1613(3) 0.1220 Uani
O22 O 0.2617(3) 0.6581(2) 0.1898(2) 0.0322 Uani
C70 C 0.1527(5) 0.5277(4) 0.0069(4) 0.0413 Uani
H59 H 0.1559 0.4977 0.0435 0.0500 Uiso
C71 C 0.1719(5) 0.6233(4) 0.0421(4) 0.0356 Uani
C74 C 0.2007(6) 0.6818(5) 0.1385(4) 0.0477 Uani
C87 C 0.1352(4) 0.9486(4) 0.0375(3) 0.0291 Uani
H69 H 0.0613 0.9439 0.0252 0.0350 Uiso
C90 C 0.3540(4) 0.9603(4) 0.0773(4) 0.0431 Uani
H70 H 0.4276 0.9634 0.0900 0.0520 Uiso
H84 H 0.1813 0.7284 0.0095 0.0470 Uiso
O37 O 0.3929(3) 0.7905(2) 0.4561(2) 0.0310 Uani
O9 O 0.9159(3) 0.9403(3) 0.7983(3) 0.0441 Uani
O10 O 0.8021(3) 0.8323(2) 0.8089(2) 0.0297 Uani
O11 O 0.3074(3) 0.7007(3) 0.5030(2) 0.0345 Uani
C28 C 0.7949(4) 0.9865(4) 0.8815(4) 0.0297 Uani
C29 C 0.6842(4) 0.9828(4) 0.8588(4) 0.0317 Uani
C32 C 0.8412(4) 0.9136(4) 0.8248(4) 0.0342 Uani
C33 C 0.6105(4) 0.9225(4) 0.7712(4) 0.0332 Uani
C34 C 0.6305(4) 0.9242(4) 0.6966(4) 0.0380 Uani
H26 H 0.6945 0.9607 0.7024 0.0450 Uiso
C35 C 0.5585(5) 0.8734(4) 0.6151(4) 0.0348 Uani
H27 H 0.5741 0.8764 0.5666 0.0420 Uiso
C36 C 0.4626(4) 0.8175(3) 0.6034(3) 0.0252 Uani
C37 C 0.4421(4) 0.8114(4) 0.6760(4) 0.0309 Uani
H28 H 0.3799 0.7714 0.6688 0.0370 Uiso
C38 C 0.5138(4) 0.8645(4) 0.7597(4) 0.0363 Uani
H29 H 0.4979 0.8617 0.8082 0.0440 Uiso
C39 C 0.3813(4) 0.7652(3) 0.5148(3) 0.0247 Uani
O20 O 0.1266(3) 0.2831(3) 0.4661(3) 0.0510 Uani
O23 O 0.1439(3) 0.7919(2) 0.8289(2) 0.0252 Uani
O24 O 0.0026(3) 0.8071(2) 0.8797(2) 0.0282 Uani
N7 N 0.1663(3) 0.8415(3) 0.6891(3) 0.0291 Uani
N9 N 0.2093(3) 0.6608(3) 0.6952(3) 0.0269 Uani
C62 C 0.0367(4) 0.4917(3) 0.7055(3) 0.0208 Uani
C63 C 0.0223(4) 0.4489(3) 0.6169(3) 0.0245 Uani
C64 C 0.0735(4) 0.3773(4) 0.5846(3) 0.0266 Uani
C65 C 0.1396(4) 0.3520(4) 0.6434(4) 0.0333 Uani
H56 H 0.1736 0.3045 0.6228 0.0400 Uiso
C66 C 0.1549(5) 0.3962(4) 0.7310(4) 0.0397 Uani
H57 H 0.1996 0.3779 0.7689 0.0480 Uiso
C67 C 0.1060(4) 0.4679(4) 0.7656(3) 0.0287 Uani
C68 C 0.1286(4) 0.5196(4) 0.8608(4) 0.0294 Uani
C69 C 0.1289(5) 0.4771(4) 0.9174(4) 0.0439 Uani
H58 H 0.1128 0.4132 0.8945 0.0530 Uiso
C72 C 0.1483(4) 0.6164(4) 0.8980(4) 0.0312 Uani
H60 H 0.1473 0.6477 0.8626 0.0380 Uiso
C73 C 0.0616(4) 0.3311(4) 0.4878(3) 0.0269 Uani
C75 C 0.2230(6) 0.9176(4) 0.7607(5) 0.0553 Uani
H61 H 0.2166 0.9214 0.8141 0.0660 Uiso
C76 C 0.2887(6) 0.9894(4) 0.7623(4) 0.0543 Uani
C77 C 0.2986(5) 0.9862(4) 0.6830(4) 0.0335 Uani
C78 C 0.2365(5) 0.9110(4) 0.6080(4) 0.0437 Uani
H63 H 0.2375 0.9074 0.5534 0.0520 Uiso
C79 C 0.1732(5) 0.8415(4) 0.6142(4) 0.0393 Uani
H64 H 0.1324 0.7913 0.5625 0.0470 Uiso
H68 H 0.3994 0.9795 0.5670 0.0500 Uiso
C85 C 0.1010(4) 0.8243(3) 0.8880(3) 0.0220 Uani
C86 C 0.1744(4) 0.8914(3) 0.9755(3) 0.0247 Uani
C91 C 0.2859(4) 0.8993(4) 0.9958(4) 0.0373 Uani
H71 H 0.3142 0.8632 0.9541 0.0450 Uiso
C100 C 0.2080(4) 0.5921(4) 0.6228(3) 0.0286 Uani
H76 H 0.1547 0.5807 0.5714 0.0340 Uiso
C101 C 0.2792(4) 0.5365(4) 0.6179(4) 0.0346 Uani
H77 H 0.2713 0.4875 0.5650 0.0410 Uiso
C102 C 0.3644(4) 0.5537(4) 0.6928(4) 0.0294 Uani
C103 C 0.3701(4) 0.6297(4) 0.7676(4) 0.0372 Uani
H78 H 0.4262 0.6464 0.8189 0.0440 Uiso
C104 C 0.2935(4) 0.6805(4) 0.7662(4) 0.0337 Uani
H79 H 0.3001 0.7314 0.8174 0.0410 Uiso
C105 C 0.4388(4) 0.4916(4) 0.6900(4) 0.0304 Uani
C106 C 0.4070(4) 0.4001(4) 0.6296(4) 0.0363 Uani
H80 H 0.3379 0.3772 0.5897 0.0440 Uiso
C107 C 0.4764(4) 0.3440(4) 0.6287(4) 0.0358 Uani
H81 H 0.4526 0.2832 0.5870 0.0430 Uiso
C108 C 0.6096(5) 0.4581(4) 0.7423(4) 0.0355 Uani
H82 H 0.6791 0.4784 0.7814 0.0430 Uiso
C109 C 0.5453(4) 0.5210(4) 0.7479(4) 0.0343 Uani
H83 H 0.5718 0.5818 0.7891 0.0410 Uiso
C110 C 0.1689(5) 0.6646(4) 0.9864(4) 0.0396 Uani
O17 O 0.9713(3) 0.6301(2) 0.7246(2) 0.0227 Uani
O18 O 0.9023(3) 0.5316(2) 0.7697(2) 0.0324 Uani
O29 O 0.9454(3) 0.7834(2) 0.7001(2) 0.0238 Uani
H47 H 0.9744 0.8405 0.7317 0.0280 Uiso
H48 H 0.9062 0.7686 0.6467 0.0280 Uiso
O30 O 0.8187(3) 0.6710(3) 0.8464(3) 0.0435 Uani
H49 H 0.8443 0.6267 0.8452 0.0520 Uiso
H50 H 0.8737 0.7116 0.8567 0.0520 Uiso
C61 C 0.9676(4) 0.5575(3) 0.7373(3) 0.0218 Uani
H55 H 0.9787 0.4674 0.5786 0.0300 Uiso
loop_
_atom_site_aniso_label
_atom_site_aniso_U_11
_atom_site_aniso_U_22
_atom_site_aniso_U_33
_atom_site_aniso_U_23
_atom_site_aniso_U_13
_atom_site_aniso_U_12
Ni2 0.0187 0.0238 0.0199 -0.0005 0.0032 0.0017
O1 0.021 0.0213 0.0194 0.0037 0.0043 0.0032
O2 0.031 0.033 0.033 0.0102 0.0162 0.0069
O3 0.0285 0.026 0.0162 0.0046 0.0042 0.0077
O13 0.0229 0.0227 0.0189 0.0017 0.0052 0.0081
O14 0.044 0.035 0.049 0.01 0.025 0.004
N5 0.019 0.031 0.024 0.004 -0.002 0.006
C1 0.023 0.019 0.016 0.003 0.001 0.004
C50 0.026 0.028 0.046 -0.005 -0.004 0.01
C51 0.022 0.021 0.036 -0.004 -0.011 0.005
C52 0.021 0.016 0.027 0 0.001 -0.001
C53 0.03 0.033 0.054 -0.005 -0.016 0.009
C54 0.032 0.019 0.069 -0.011 -0.014 0.001
N6 0.019 0.031 0.024 0.004 -0.002 0.006
C56 0.026 0.028 0.046 -0.005 -0.004 0.01
C57 0.022 0.021 0.036 -0.004 -0.011 0.005
C58 0.021 0.016 0.027 0 0.001 -0.001
C59 0.03 0.033 0.054 -0.005 -0.016 0.009
C60 0.032 0.019 0.069 -0.011 -0.014 0.001
Ni8 0.0205 0.0233 0.0161 0.0026 0.0055 0.0042
Ni11 0.0187 0.0238 0.0199 -0.0005 0.0032 0.0017
O36 0.0201 0.021 0.032 -0.0017 0.0041 -0.0003
Ni1 0.0205 0.0233 0.0161 0.0026 0.0055 0.0042
O4 0.053 0.07 0.021 0.005 0.008 0.039
O7 0.0229 0.029 0.0131 0.0001 0.0036 0.002
O8 0.0177 0.032 0.023 0.0015 0.0047 0.0013
N1 0.028 0.025 0.028 0.008 0.007 -0.002
N3 0.022 0.031 0.023 0.008 0.005 0.005
N4 0.023 0.035 0.03 0.014 0.005 0.007
C2 0.024 0.019 0.018 0.008 0.005 0.002
C3 0.028 0.027 0.017 0.007 0.008 0.007
C4 0.028 0.03 0.012 0.001 0.003 0.005
C5 0.038 0.031 0.024 0.005 0.005 0.016
C6 0.048 0.041 0.028 0.014 0.005 0.019
C7 0.035 0.03 0.018 0.008 0.006 0.008
C8 0.027 0.038 0.024 0.014 0.006 0.011
C9 0.066 0.039 0.018 0.007 0.006 0.013
C12 0.041 0.025 0.023 0.012 0.002 0.001
C13 0.029 0.026 0.014 -0.001 0.003 0.004
C15 0.079 0.04 0.04 0.008 0.03 -0.005
C16 0.083 0.024 0.04 0.002 0.025 -0.018
C17 0.039 0.025 0.037 0.011 0.017 0.005
C18 0.049 0.047 0.043 0.027 0.019 0.002
C19 0.034 0.043 0.032 0.012 0.006 -0.001
C25 0.025 0.018 0.019 0.005 0.004 0.006
C26 0.021 0.018 0.023 0 0.003 -0.001
C31 0.026 0.04 0.023 -0.009 0.005 0.008
C40 0.021 0.036 0.019 0.005 0.001 0.005
C41 0.037 0.036 0.024 0.005 0.01 0.009
C42 0.024 0.033 0.025 0.007 0.005 0.008
C43 0.023 0.043 0.029 0.002 -0.001 0.012
C44 0.03 0.039 0.024 0.006 0.005 0.011
C45 0.03 0.035 0.022 0.009 0.005 0.009
C46 0.024 0.043 0.038 0.014 0.008 0.008
C47 0.032 0.025 0.038 0.003 0.007 0.006
C48 0.031 0.03 0.034 0.007 -0.001 0.011
C49 0.029 0.023 0.036 0 0.005 0.006
C55 0.052 0.029 0.026 0.006 0.002 0.007
O25 0.043 0.03 0.048 0.001 0.022 0.004
O27 0.039 0.032 0.019 0.0053 0.0015 -0.006
O28 0.031 0.034 0.016 0.0055 0 -0.0028
C88 0.024 0.03 0.026 0.003 0.007 0.006
C89 0.023 0.033 0.021 -0.003 0.001 0.003
C92 0.019 0.039 0.024 -0.003 0 0.003
C93 0.025 0.038 0.025 0.004 0.001 0.012
C94 0.026 0.034 0.035 0.002 0.004 -0.007
C95 0.042 0.037 0.017 0.008 0.003 0.003
C96 0.026 0.026 0.012 0.002 -0.001 -0.001
C97 0.018 0.034 0.024 0.002 -0.001 -0.003
C98 0.028 0.044 0.021 0.001 0.003 0.004
C99 0.029 0.018 0.019 0.002 0.005 0.001
Ni13 0.0259 0.0248 0.0177 0.0065 0.0036 0.0026
Ni15 0.0259 0.0248 0.0177 0.0065 0.0036 0.0026
O34 0.0285 0.026 0.0162 0.0046 0.0042 0.0077
O5 0.232 0.118 0.023 0.02 0.023 0.136
O6 0.04 0.034 0.017 0.007 0.003 0.0136
C10 0.057 0.047 0.027 0.022 0.013 0.016
C11 0.038 0.041 0.027 0.013 0.006 0.02
C14 0.065 0.056 0.026 0.016 0.015 0.031
C27 0.021 0.031 0.021 0.001 0 0.002
C30 0.018 0.053 0.025 -0.013 -0.002 0.008
O31 0.031 0.034 0.02 0.0036 0.0007 -0.0043
O32 0.068 0.049 0.025 0.01 -0.001 0.03
N8 0.039 0.03 0.026 0.008 0.008 -0.001
C80 0.039 0.033 0.038 0.012 0.017 0.009
C81 0.086 0.046 0.056 0.002 0.051 -0.012
C82 0.079 0.039 0.05 0.002 0.036 -0.011
C83 0.057 0.031 0.045 0.015 0.032 0.007
C84 0.05 0.028 0.041 0.007 0.021 0.007
N12 0.023 0.035 0.03 0.014 0.005 0.007
O15 0.031 0.034 0.02 0.0036 0.0007 -0.0043
O16 0.068 0.049 0.025 0.01 -0.001 0.03
N2 0.039 0.03 0.026 0.008 0.008 -0.001
C20 0.039 0.033 0.038 0.012 0.017 0.009
C21 0.086 0.046 0.056 0.002 0.051 -0.012
C22 0.079 0.039 0.05 0.002 0.036 -0.011
C23 0.057 0.031 0.045 0.015 0.032 0.007
C24 0.05 0.028 0.041 0.007 0.021 0.007
O21 0.232 0.118 0.023 0.02 0.023 0.136
O22 0.04 0.034 0.017 0.007 0.003 0.0136
C70 0.057 0.047 0.027 0.022 0.013 0.016
C71 0.038 0.041 0.027 0.013 0.006 0.02
C74 0.065 0.056 0.026 0.016 0.015 0.031
C87 0.021 0.031 0.021 0.001 0 0.002
C90 0.018 0.053 0.025 -0.013 -0.002 0.008
O37 0.031 0.034 0.016 0.0055 0 -0.0028
O9 0.043 0.03 0.048 0.001 0.022 0.004
O10 0.0201 0.021 0.032 -0.0017 0.0041 -0.0003
O11 0.039 0.032 0.019 0.0053 0.0015 -0.006
C28 0.024 0.03 0.026 0.003 0.007 0.006
C29 0.023 0.033 0.021 -0.003 0.001 0.003
C32 0.019 0.039 0.024 -0.003 0 0.003
C33 0.025 0.038 0.025 0.004 0.001 0.012
C34 0.026 0.034 0.035 0.002 0.004 -0.007
C35 0.042 0.037 0.017 0.008 0.003 0.003
C36 0.026 0.026 0.012 0.002 -0.001 -0.001
C37 0.018 0.034 0.024 0.002 -0.001 -0.003
C38 0.028 0.044 0.021 0.001 0.003 0.004
C39 0.029 0.018 0.019 0.002 0.005 0.001
O20 0.053 0.07 0.021 0.005 0.008 0.039
O23 0.0229 0.029 0.0131 0.0001 0.0036 0.002
O24 0.0177 0.032 0.023 0.0015 0.0047 0.0013
N7 0.028 0.025 0.028 0.008 0.007 -0.002
N9 0.022 0.031 0.023 0.008 0.005 0.005
C62 0.024 0.019 0.018 0.008 0.005 0.002
C63 0.028 0.027 0.017 0.007 0.008 0.007
C64 0.028 0.03 0.012 0.001 0.003 0.005
C65 0.038 0.031 0.024 0.005 0.005 0.016
C66 0.048 0.041 0.028 0.014 0.005 0.019
C67 0.035 0.03 0.018 0.008 0.006 0.008
C68 0.027 0.038 0.024 0.014 0.006 0.011
C69 0.066 0.039 0.018 0.007 0.006 0.013
C72 0.041 0.025 0.023 0.012 0.002 0.001
C73 0.029 0.026 0.014 -0.001 0.003 0.004
C75 0.079 0.04 0.04 0.008 0.03 -0.005
C76 0.083 0.024 0.04 0.002 0.025 -0.018
C77 0.039 0.025 0.037 0.011 0.017 0.005
C78 0.049 0.047 0.043 0.027 0.019 0.002
C79 0.034 0.043 0.032 0.012 0.006 -0.001
C85 0.025 0.018 0.019 0.005 0.004 0.006
C86 0.021 0.018 0.023 0 0.003 -0.001
C91 0.026 0.04 0.023 -0.009 0.005 0.008
C100 0.021 0.036 0.019 0.005 0.001 0.005
C101 0.037 0.036 0.024 0.005 0.01 0.009
C102 0.024 0.033 0.025 0.007 0.005 0.008
C103 0.023 0.043 0.029 0.002 -0.001 0.012
C104 0.03 0.039 0.024 0.006 0.005 0.011
C105 0.03 0.035 0.022 0.009 0.005 0.009
C106 0.024 0.043 0.038 0.014 0.008 0.008
C107 0.032 0.025 0.038 0.003 0.007 0.006
C108 0.031 0.03 0.034 0.007 -0.001 0.011
C109 0.029 0.023 0.036 0 0.005 0.006
C110 0.052 0.029 0.026 0.006 0.002 0.007
O17 0.021 0.0213 0.0194 0.0037 0.0043 0.0032
O18 0.031 0.033 0.033 0.0102 0.0162 0.0069
O29 0.0229 0.0227 0.0189 0.0017 0.0052 0.0081
O30 0.044 0.035 0.049 0.01 0.025 0.004
C61 0.023 0.019 0.016 0.003 0.001 0.004
loop_
_geom_bond_atom_site_label_1
_geom_bond_atom_site_label_2
_geom_bond_site_symmetry_1
_geom_bond_site_symmetry_2
Ni2 O1 1_555 1_555
O1 C1 1_555 1_555
O2 C1 1_555 1_555
H1 O13 1_555 1_555
H2 O13 1_555 1_555
O14 Ni2 1_555 1_555
H3 O14 1_555 1_555
H4 O14 1_555 1_555
N5 Ni2 1_555 1_555
C50 N5 1_555 1_555
H38 C50 1_555 1_555
C51 C50 1_555 1_555
H39 C51 1_555 1_555
C52 C51 1_555 1_555
C53 C52 1_555 1_555
H40 C53 1_555 1_555
C54 N5 1_555 1_555
H41 C54 1_555 1_555
N6 C56 1_555 1_555
C56 H43 1_555 1_555
C57 C56 1_555 1_555
H44 C57 1_555 1_555
C58 C52 1_555 1_555
C59 C58 1_555 1_555
H45 C59 1_555 1_555
C60 N6 1_555 1_555
H46 C60 1_555 1_555
Ni8 O3 1_555 1_555
Ni11 N6 1_555 1_555
O36 Ni2 1_555 1_555
Ni2 O13 1_555 1_555
C53 C54 1_555 1_555
C57 C58 1_555 1_555
C59 C60 1_555 1_555
O4 C13 1_555 1_555
O7 Ni1 1_555 1_555
N1 Ni1 1_555 1_555
N3 Ni1 1_555 1_555
N4 C47 1_555 1_555
C2 C3 1_555 1_555
C4 C3 1_555 1_555
C5 C4 1_555 1_555
H10 C5 1_555 1_555
C6 C5 1_555 1_555
H11 C6 1_555 1_555
C7 C2 1_555 1_555
C8 C7 1_555 1_555
C9 C8 1_555 1_555
H12 C9 1_555 1_555
C12 C8 1_555 1_555
H14 C12 1_555 1_555
C13 C4 1_555 1_555
C15 N1 1_555 1_555
H15 C15 1_555 1_555
C16 C15 1_555 1_555
C17 C16 1_555 1_555
C18 C17 1_555 1_555
H17 C18 1_555 1_555
C19 N1 1_555 1_555
H18 C19 1_555 1_555
C25 O7 1_555 1_555
C26 C25 1_555 1_555
C31 C26 1_555 1_555
H25 C31 1_555 1_555
C40 N3 1_555 1_555
H30 C40 1_555 1_555
C41 C40 1_555 1_555
H31 C41 1_555 1_555
C42 C41 1_555 1_555
C43 C42 1_555 1_555
H32 C43 1_555 1_555
C44 N3 1_555 1_555
H33 C44 1_555 1_555
C45 C42 1_555 1_555
C46 C45 1_555 1_555
H34 C46 1_555 1_555
C47 C46 1_555 1_555
H35 C47 1_555 1_555
C48 N4 1_555 1_555
H36 C48 1_555 1_555
C49 C45 1_555 1_555
H37 C49 1_555 1_555
O25 C92 1_555 1_555
O36 C92 1_555 1_555
O27 C99 1_555 1_555
O28 C99 1_555 1_555
C89 C88 1_555 1_555
C92 C88 1_555 1_555
C93 C89 1_555 1_555
C94 C93 1_555 1_555
H72 C94 1_555 1_555
C95 C94 1_555 1_555
H73 C95 1_555 1_555
C96 C95 1_555 1_555
C97 C96 1_555 1_555
H74 C97 1_555 1_555
C98 C93 1_555 1_555
H75 C98 1_555 1_555
C99 C96 1_555 1_555
Ni13 N4 1_555 1_555
Ni15 O28 1_555 1_555
O34 Ni1 1_555 1_555
O8 C25 1_555 1_555
C6 C7 1_555 1_555
C12 C55 1_555 1_555
C18 C19 1_555 1_555
C43 C44 1_555 1_555
C48 C49 1_555 1_555
C97 C98 1_555 1_555
O5 C14 1_555 1_555
O6 C14 1_555 1_555
H13 C10 1_555 1_555
C11 C10 1_555 1_555
C14 C11 1_555 1_555
H23 C27 1_555 1_555
H24 C30 1_555 1_555
Ni15 O6 1_555 1_555
O31 Ni15 1_555 1_555
H51 O31 1_555 1_555
H52 O31 1_555 1_555
O32 Ni15 1_555 1_555
H53 O32 1_555 1_555
H54 O32 1_555 1_555
N8 Ni15 1_555 1_555
C81 C80 1_555 1_555
H65 C81 1_555 1_555
C82 N8 1_555 1_555
H66 C82 1_555 1_555
C83 N8 1_555 1_555
H67 C83 1_555 1_555
C84 C80 1_555 1_555
N12 Ni15 1_555 1_555
C81 C82 1_555 1_555
C83 C84 1_555 1_555
Ni13 O15 1_555 1_555
O15 H5 1_555 1_555
H6 O15 1_555 1_555
O16 Ni13 1_555 1_555
H7 O16 1_555 1_555
H8 O16 1_555 1_555
N2 Ni13 1_555 1_555
C21 C20 1_555 1_555
H19 C21 1_555 1_555
C22 N2 1_555 1_555
H20 C22 1_555 1_555
C23 N2 1_555 1_555
H21 C23 1_555 1_555
C24 C20 1_555 1_555
O21 C74 1_555 1_555
O22 Ni13 1_555 1_555
H59 C70 1_555 1_555
C71 C70 1_555 1_555
C74 O22 1_555 1_555
H69 C87 1_555 1_555
H70 C90 1_555 1_555
O37 Ni13 1_555 1_555
C21 C22 1_555 1_555
C23 C24 1_555 1_555
C71 C74 1_555 1_555
O9 C32 1_555 1_555
O10 C32 1_555 1_555
O11 C39 1_555 1_555
O37 C39 1_555 1_555
C29 C28 1_555 1_555
C32 C28 1_555 1_555
C33 C29 1_555 1_555
C34 C33 1_555 1_555
H26 C34 1_555 1_555
C35 C34 1_555 1_555
H27 C35 1_555 1_555
C36 C35 1_555 1_555
C37 C36 1_555 1_555
H28 C37 1_555 1_555
C38 C33 1_555 1_555
H29 C38 1_555 1_555
C39 C36 1_555 1_555
O20 C73 1_555 1_555
O23 Ni8 1_555 1_555
N7 Ni8 1_555 1_555
N9 Ni8 1_555 1_555
N12 C107 1_555 1_555
C62 C63 1_555 1_555
C64 C63 1_555 1_555
C65 C64 1_555 1_555
H56 C65 1_555 1_555
C66 C65 1_555 1_555
H57 C66 1_555 1_555
C67 C62 1_555 1_555
C68 C67 1_555 1_555
C69 C68 1_555 1_555
H58 C69 1_555 1_555
C72 C68 1_555 1_555
H60 C72 1_555 1_555
C73 C64 1_555 1_555
C75 N7 1_555 1_555
H61 C75 1_555 1_555
C76 C75 1_555 1_555
C77 C76 1_555 1_555
C78 C77 1_555 1_555
H63 C78 1_555 1_555
C79 N7 1_555 1_555
H64 C79 1_555 1_555
C85 O23 1_555 1_555
C86 C85 1_555 1_555
C91 C86 1_555 1_555
H71 C91 1_555 1_555
C100 N9 1_555 1_555
H76 C100 1_555 1_555
C101 C100 1_555 1_555
H77 C101 1_555 1_555
C102 C101 1_555 1_555
C103 C102 1_555 1_555
H78 C103 1_555 1_555
C104 N9 1_555 1_555
H79 C104 1_555 1_555
C105 C102 1_555 1_555
C106 C105 1_555 1_555
H80 C106 1_555 1_555
C107 C106 1_555 1_555
H81 C107 1_555 1_555
C108 N12 1_555 1_555
H82 C108 1_555 1_555
C109 C105 1_555 1_555
H83 C109 1_555 1_555
Ni11 O10 1_555 1_555
C37 C38 1_555 1_555
O24 C85 1_555 1_555
C66 C67 1_555 1_555
C72 C110 1_555 1_555
C78 C79 1_555 1_555
C103 C104 1_555 1_555
C108 C109 1_555 1_555
Ni11 O17 1_555 1_555
O17 C61 1_555 1_555
O18 C61 1_555 1_555
H47 O29 1_555 1_555
H48 O29 1_555 1_555
O30 Ni11 1_555 1_555
H49 O30 1_555 1_555
H50 O30 1_555 1_555
Ni11 O29 1_555 1_555

#END
