
###############################################################################
#
# This file contains modified crystal structure data generated from the
# MOF subset of the Cambridge Structural Database (CSD) v543 
# hosted by the Cambridge Crystallographic Data Centre (CCDC).
#
# This work is licensed under the Creative Commons
# Attribution-NonCommercial-ShareAlike 4.0 International License.
# To view a copy of this license, visit
# http://creativecommons.org/licenses/by-nc-sa/4.0/
# or send a letter to
# Creative Commons, PO Box 1866, Mountain View, CA 94042, USA.
#
# CIF created using the CSD Python API on 29 September 2022
# The structure has been converted into the P1 space group
# The structure has a 3D framework
# The original CSD entry QIRWAR is in the monoclinic crystal system
# The framework has been calculated to contain at least 10.0% void space
# The void calculation uses a probe of radius 1.32A, grid spacing 0.4
#
###############################################################################

data_QIRWAR
_chemical_formula_moiety         '(C40 H32 Cu12 N20 O40)n'
_symmetry_cell_setting           triclinic
_symmetry_space_group_name_H-M   'P 1'
_symmetry_Int_Tables_number      1
_space_group_name_Hall           'P 1'
loop_
_symmetry_equiv_pos_site_id
_symmetry_equiv_pos_as_xyz
1 x,y,z
_cell_length_a                   14.745(3)
_cell_length_b                   11.024(2)
_cell_length_c                   13.287(3)
_cell_angle_alpha                90
_cell_angle_beta                 97.27(3)
_cell_angle_gamma                90
_cell_volume                     2142.42
loop_
_atom_site_label
_atom_site_type_symbol
_atom_site_fract_x
_atom_site_fract_y
_atom_site_fract_z
O13 O 0.07909(18) 0.0567(2) 0.7608(2)
Cu9 Cu 0.01470(3) 0.21258(4) 0.73314(4)
O12 O 0.05700(19) 0.8613(3) 0.7881(2)
C13 C 0.0269(3) 0.9665(3) 0.7691(3)
N12 N 0.0949(2) 0.6087(3) 0.7622(2)
N7 N 0.9051(2) 0.1087(3) 0.7378(2)
C14 C 0.8175(3) 0.1432(4) 0.7274(3)
H9 H 0.8016 0.2254 0.7127
C15 C 0.7499(3) 0.0585(4) 0.7382(3)
H10 H 0.6878 0.0837 0.7313
Cu1 Cu 0.01470(3) 0.28742(4) 0.23314(4)
Cu2 Cu 0.31441(3) 0.19730(4) 0.23652(3)
Cu3 Cu 0.5000 0.5000 0.0000
O3 O 0.12790(18) 0.2097(3) 0.2199(2)
O4 O 0.0016(3) 0.2729(4) 0.4131(3)
O5 O 0.0997(3) 0.1275(3) 0.4443(3)
O6 O 0.0014(2) 0.1635(3) 0.5490(2)
O7 O 0.4386(2) 0.0817(3) 0.2138(2)
O8 O 0.3862(2) 0.3461(3) 0.2308(2)
O9 O 0.4502(2) 0.4659(3) 0.1273(2)
N1 N 0.2298(2) 0.0578(3) 0.2420(2)
N3 N 0.0344(3) 0.1873(4) 0.4699(3)
N4 N 0.3010(2) 0.2150(3) 0.0836(2)
C1 C 0.1410(2) 0.0961(3) 0.2339(3)
C2 C 0.0732(3) 0.0069(4) 0.2428(3)
C7 C 0.3505(3) 0.3081(4) 0.0566(3)
C8 C 0.3992(3) 0.3788(4) 0.1431(3)
C9 C 0.2532(3) 0.1465(4) 0.0129(3)
H3 H 0.2177 0.0805 0.0321
H5 H 0.464(4) 0.048(6) 0.256(5)
H6 H 0.376(6) 0.693(7) 0.001(6)
H7 H 0.435(4) 0.034(4) 0.169(3)
O21 O 0.6011(2) 0.5775(3) 0.0802(2)
O22 O 0.5739(2) 0.3018(3) 0.0178(3)
N10 N 0.6951(2) 0.7355(3) 0.1182(2)
C16 C 0.6462(3) 0.6642(4) 0.0477(3)
C20 C 0.7442(3) 0.8278(4) 0.0882(3)
H12 H 0.7783 0.8770 0.1381
H16 H 0.580(5) 0.292(6) 0.079(5)
Cu10 Cu 0.68559(3) 0.69730(4) 0.26348(3)
O23 O 0.07909(18) 0.4433(2) 0.2608(2)
O26 O 0.0014(2) 0.3365(3) 0.0490(2)
N14 N 0.3049(2) 0.2355(3) 0.3818(2)
Cu3_2 Cu 0.5000 0.5000 1.0000
O10 O 0.3989(2) 0.4225(3) 0.9198(2)
O11 O 0.4261(2) 0.6982(3) 0.9822(3)
N5 N 0.3049(2) 0.2645(3) 0.8818(2)
C6 C 0.3538(3) 0.3358(4) 0.9523(3)
C10 C 0.2558(3) 0.1722(4) 0.9118(3)
H4 H 0.2217 0.1230 0.8619
H8 H 0.420(5) 0.708(6) 0.921(5)
Cu4 Cu 0.98530(3) 0.71258(4) 0.76686(4)
Cu5 Cu 0.68559(3) 0.80270(4) 0.76348(3)
O14 O 0.87210(18) 0.7903(3) 0.7801(2)
O15 O 0.9984(3) 0.7271(4) 0.5869(3)
O16 O 0.9003(3) 0.8725(3) 0.5557(3)
O17 O 0.9986(2) 0.8365(3) 0.4510(2)
O18 O 0.5614(2) 0.9183(3) 0.7862(2)
O19 O 0.6138(2) 0.6539(3) 0.7692(2)
O20 O 0.5498(2) 0.5341(3) 0.8727(2)
N6 N 0.7702(2) 0.9422(3) 0.7580(2)
N8 N 0.9656(3) 0.8127(4) 0.5301(3)
N9 N 0.6990(2) 0.7850(3) 0.9164(2)
C11 C 0.8590(2) 0.9039(3) 0.7661(3)
C12 C 0.9268(3) 0.9931(4) 0.7572(3)
C17 C 0.6495(3) 0.6919(4) 0.9434(3)
C18 C 0.6008(3) 0.6212(4) 0.8569(3)
C19 C 0.7468(3) 0.8535(4) 0.9871(3)
H11 H 0.7823 0.9195 0.9679
H13 H 0.536(4) 0.952(6) 0.744(5)
H14 H 0.624(6) 0.307(7) 0.999(6)
H15 H 0.565(4) 0.966(4) 0.831(3)
Cu7 Cu 0.98530(3) 0.78742(4) 0.26686(4)
Cu11 Cu 0.31441(3) 0.30270(4) 0.73652(3)
O24 O 0.92091(18) 0.5567(2) 0.7392(2)
O25 O 0.9986(2) 0.6635(3) 0.9510(2)
N13 N 0.6951(2) 0.7645(3) 0.6182(2)
N2 N 0.0949(2) 0.8913(3) 0.2622(2)
C4 C 0.1825(3) 0.8568(4) 0.2726(3)
H1 H 0.1984 0.7746 0.2873
C5 C 0.2501(3) 0.9415(4) 0.2618(3)
H2 H 0.3122 0.9163 0.2687
O1 O 0.94300(19) 0.1387(3) 0.2119(2)
C3 C 0.9731(3) 0.0335(3) 0.2309(3)
N11 N 0.9051(2) 0.3913(3) 0.2378(2)
O2 O 0.92091(18) 0.9433(2) 0.2392(2)
O1_2 O 0.05700(19) 0.6387(3) 0.2881(2)
C3_2 C 0.0269(3) 0.5335(3) 0.2691(3)
Cu3_3 Cu 0.5000 0.0000 0.5000
O11_2 O 0.5739(2) 0.1982(3) 0.5178(3)
H6_2 H 0.624(6) 0.193(7) 0.499(6)
H8_2 H 0.580(5) 0.208(6) 0.579(5)
O14_2 O 0.12790(18) 0.2903(3) 0.7199(2)
O15_2 O 0.0016(3) 0.2271(4) 0.9131(3)
O16_2 O 0.0997(3) 0.3725(3) 0.9443(3)
O18_2 O 0.4386(2) 0.4183(3) 0.7138(2)
O19_2 O 0.3862(2) 0.1539(3) 0.7308(2)
O20_2 O 0.4502(2) 0.0341(3) 0.6273(2)
O21_2 O 0.3989(2) 0.0775(3) 0.4198(2)
N6_2 N 0.2298(2) 0.4422(3) 0.7420(2)
N8_2 N 0.0344(3) 0.3127(4) 0.9699(3)
N9_2 N 0.3010(2) 0.2850(3) 0.5836(2)
C11_2 C 0.1410(2) 0.4039(3) 0.7339(3)
C12_2 C 0.0732(3) 0.4931(4) 0.7428(3)
C14_2 C 0.1825(3) 0.6432(4) 0.7726(3)
H9_2 H 0.1984 0.7254 0.7873
C15_2 C 0.2501(3) 0.5585(4) 0.7618(3)
H10_2 H 0.3122 0.5837 0.7687
C16_2 C 0.3538(3) 0.1642(4) 0.4523(3)
C17_2 C 0.3505(3) 0.1919(4) 0.5566(3)
C18_2 C 0.3992(3) 0.1212(4) 0.6431(3)
C19_2 C 0.2532(3) 0.3535(4) 0.5129(3)
H11_2 H 0.2177 0.4195 0.5321
C20_2 C 0.2558(3) 0.3278(4) 0.4118(3)
H12_2 H 0.2217 0.3770 0.3619
H13_2 H 0.464(4) 0.452(6) 0.756(5)
H15_2 H 0.435(4) 0.466(4) 0.669(3)
Cu3_4 Cu 0.5000 1.0000 0.5000
O3_2 O 0.87210(18) 0.7097(3) 0.2801(2)
O4_2 O 0.9984(3) 0.7729(4) 0.0869(3)
O5_2 O 0.9003(3) 0.6275(3) 0.0557(3)
O7_2 O 0.5614(2) 0.5817(3) 0.2862(2)
O8_2 O 0.6138(2) 0.8461(3) 0.2692(2)
O9_2 O 0.5498(2) 0.9659(3) 0.3727(2)
O10_2 O 0.6011(2) 0.9225(3) 0.5802(2)
N1_2 N 0.7702(2) 0.5578(3) 0.2580(2)
N3_2 N 0.9656(3) 0.6873(4) 0.0301(3)
N4_2 N 0.6990(2) 0.7150(3) 0.4164(2)
C1_2 C 0.8590(2) 0.5961(3) 0.2661(3)
C2_2 C 0.9268(3) 0.5069(4) 0.2572(3)
C4_2 C 0.8175(3) 0.3568(4) 0.2274(3)
H1_2 H 0.8016 0.2746 0.2127
C5_2 C 0.7499(3) 0.4415(4) 0.2382(3)
H2_2 H 0.6878 0.4163 0.2313
C6_2 C 0.6462(3) 0.8358(4) 0.5477(3)
C7_2 C 0.6495(3) 0.8081(4) 0.4434(3)
C8_2 C 0.6008(3) 0.8788(4) 0.3569(3)
C9_2 C 0.7468(3) 0.6465(4) 0.4871(3)
H3_2 H 0.7823 0.5805 0.4679
C10_2 C 0.7442(3) 0.6722(4) 0.5882(3)
H4_2 H 0.7783 0.6230 0.6381
H5_2 H 0.536(4) 0.548(6) 0.244(5)
H7_2 H 0.565(4) 0.534(4) 0.331(3)
O22_2 O 0.4261(2) 0.8018(3) 0.4822(3)
H14_2 H 0.376(6) 0.807(7) 0.501(6)
H16_2 H 0.420(5) 0.792(6) 0.421(5)
O12_2 O 0.94300(19) 0.3613(3) 0.7119(2)
C13_2 C 0.9731(3) 0.4665(3) 0.7309(3)
loop_
_geom_bond_atom_site_label_1
_geom_bond_atom_site_label_2
_geom_bond_site_symmetry_1
_geom_bond_site_symmetry_2
Cu9 O13 1_555 1_555
O12 C13 1_555 1_555
C14 N7 1_555 1_555
H9 C14 1_555 1_555
H10 C15 1_555 1_555
C14 C15 1_555 1_555
Cu2 O3 1_555 1_555
Cu3 O9 1_555 1_555
O3 Cu1 1_555 1_555
O4 Cu1 1_555 1_555
O5 N3 1_555 1_555
O6 N3 1_555 1_555
O7 Cu2 1_555 1_555
O8 Cu2 1_555 1_555
O9 C8 1_555 1_555
N1 Cu2 1_555 1_555
N3 O4 1_555 1_555
N4 Cu2 1_555 1_555
C1 O3 1_555 1_555
C2 C1 1_555 1_555
C7 N4 1_555 1_555
C8 O8 1_555 1_555
C9 N4 1_555 1_555
H3 C9 1_555 1_555
H5 O7 1_555 1_555
H7 O7 1_555 1_555
O21 Cu3 1_555 1_555
O22 Cu3 1_555 1_555
N10 C16 1_555 1_555
C16 O21 1_555 1_555
C20 N10 1_555 1_555
H12 C20 1_555 1_555
H16 O22 1_555 1_555
Cu9 O6 1_555 1_555
Cu10 N10 1_555 1_555
O23 Cu1 1_555 1_555
O26 Cu1 1_555 1_555
N14 Cu2 1_555 1_555
N1 C1 1_555 1_555
C7 C8 1_555 1_555
O10 Cu3_2 1_555 1_555
O11 Cu3_2 1_555 1_555
N5 C6 1_555 1_555
C6 O10 1_555 1_555
C10 N5 1_555 1_555
H4 C10 1_555 1_555
H8 O11 1_555 1_555
Cu5 O14 1_555 1_555
O14 Cu4 1_555 1_555
O15 Cu4 1_555 1_555
O16 N8 1_555 1_555
O17 N8 1_555 1_555
O18 Cu5 1_555 1_555
O19 Cu5 1_555 1_555
O20 Cu3_2 1_555 1_555
N6 Cu5 1_555 1_555
N8 O15 1_555 1_555
N9 Cu5 1_555 1_555
C11 O14 1_555 1_555
C12 C11 1_555 1_555
C17 N9 1_555 1_555
C18 O19 1_555 1_555
C19 N9 1_555 1_555
H11 C19 1_555 1_555
H13 O18 1_555 1_555
H15 O18 1_555 1_555
Cu7 O17 1_555 1_555
Cu11 N5 1_555 1_555
O24 Cu4 1_555 1_555
O25 Cu4 1_555 1_555
N13 Cu5 1_555 1_555
O20 C18 1_555 1_555
N6 C11 1_555 1_555
C17 C18 1_555 1_555
C4 N2 1_555 1_555
H1 C4 1_555 1_555
H2 C5 1_555 1_555
C4 C5 1_555 1_555
O1 C3 1_555 1_555
Cu7 O2 1_555 1_555
O1_2 C3_2 1_555 1_555
O23 C3_2 1_555 1_555
O11_2 Cu3_3 1_555 1_555
H6_2 O11_2 1_555 1_555
H8_2 O11_2 1_555 1_555
Cu11 O14_2 1_555 1_555
O14_2 Cu9 1_555 1_555
O15_2 Cu9 1_555 1_555
O16_2 N8_2 1_555 1_555
O18_2 Cu11 1_555 1_555
O19_2 Cu11 1_555 1_555
O20_2 Cu3_3 1_555 1_555
O21_2 Cu3_3 1_555 1_555
N6_2 Cu11 1_555 1_555
N12 C12_2 1_555 1_555
N8_2 O15_2 1_555 1_555
N9_2 Cu11 1_555 1_555
N14 C16_2 1_555 1_555
C11_2 O14_2 1_555 1_555
C12_2 C11_2 1_555 1_555
C14_2 N12 1_555 1_555
H9_2 C14_2 1_555 1_555
C15_2 N6_2 1_555 1_555
H10_2 C15_2 1_555 1_555
C16_2 O21_2 1_555 1_555
C17_2 N9_2 1_555 1_555
C18_2 O19_2 1_555 1_555
C19_2 N9_2 1_555 1_555
H11_2 C19_2 1_555 1_555
C20_2 N14 1_555 1_555
H12_2 C20_2 1_555 1_555
H13_2 O18_2 1_555 1_555
H15_2 O18_2 1_555 1_555
O20_2 C18_2 1_555 1_555
N6_2 C11_2 1_555 1_555
C14_2 C15_2 1_555 1_555
C16_2 C17_2 1_555 1_555
C17_2 C18_2 1_555 1_555
C19_2 C20_2 1_555 1_555
Cu10 O3_2 1_555 1_555
Cu3_4 O9_2 1_555 1_555
O3_2 Cu7 1_555 1_555
O4_2 Cu7 1_555 1_555
O5_2 N3_2 1_555 1_555
O7_2 Cu10 1_555 1_555
O8_2 Cu10 1_555 1_555
O9_2 C8_2 1_555 1_555
O10_2 Cu3_4 1_555 1_555
N1_2 Cu10 1_555 1_555
N11 C2_2 1_555 1_555
N3_2 O4_2 1_555 1_555
N4_2 Cu10 1_555 1_555
N13 C6_2 1_555 1_555
C1_2 O3_2 1_555 1_555
C2_2 C1_2 1_555 1_555
C4_2 N11 1_555 1_555
H1_2 C4_2 1_555 1_555
C5_2 N1_2 1_555 1_555
H2_2 C5_2 1_555 1_555
C6_2 O10_2 1_555 1_555
C7_2 N4_2 1_555 1_555
C8_2 O8_2 1_555 1_555
C9_2 N4_2 1_555 1_555
H3_2 C9_2 1_555 1_555
C10_2 N13 1_555 1_555
H4_2 C10_2 1_555 1_555
H5_2 O7_2 1_555 1_555
H7_2 O7_2 1_555 1_555
O22_2 Cu3_4 1_555 1_555
H14_2 O22_2 1_555 1_555
H16_2 O22_2 1_555 1_555
N1_2 C1_2 1_555 1_555
C4_2 C5_2 1_555 1_555
C6_2 C7_2 1_555 1_555
C7_2 C8_2 1_555 1_555
C9_2 C10_2 1_555 1_555
O12_2 C13_2 1_555 1_555
O24 C13_2 1_555 1_555

#END
