
###############################################################################
#
# This file contains modified crystal structure data generated from the
# MOF subset of the Cambridge Structural Database (CSD) v543 
# hosted by the Cambridge Crystallographic Data Centre (CCDC).
#
# This work is licensed under the Creative Commons
# Attribution-NonCommercial-ShareAlike 4.0 International License.
# To view a copy of this license, visit
# http://creativecommons.org/licenses/by-nc-sa/4.0/
# or send a letter to
# Creative Commons, PO Box 1866, Mountain View, CA 94042, USA.
#
# CIF created using the CSD Python API on 29 September 2022
# The structure has been converted into the P1 space group
# The structure has a 3D framework
# The original CSD entry QISKIN is in the triclinic crystal system
# The framework has been calculated to contain at least 10.0% void space
# The void calculation uses a probe of radius 1.32A, grid spacing 0.4
#
###############################################################################

data_QISKIN
_chemical_formula_moiety         '(C34 H34 Cu2 K4 N2 O17)n'
_symmetry_cell_setting           triclinic
_symmetry_space_group_name_H-M   'P 1'
_symmetry_Int_Tables_number      1
_space_group_name_Hall           'P 1'
loop_
_symmetry_equiv_pos_site_id
_symmetry_equiv_pos_as_xyz
1 x,y,z
_cell_length_a                   8.7578(17)
_cell_length_b                   11.143(2)
_cell_length_c                   12.529(2)
_cell_angle_alpha                84.479(4)
_cell_angle_beta                 81.501(4)
_cell_angle_gamma                71.648(4)
_cell_volume                     1146.14
loop_
_atom_site_label
_atom_site_type_symbol
_atom_site_fract_x
_atom_site_fract_y
_atom_site_fract_z
Cu1 Cu 0.32033(3) 0.02281(2) 0.03196(2)
N1 N 0.1802(2) 0.04938(17) 0.17356(14)
O1 O 0.52955(19) 0.01438(15) 0.09760(12)
O2 O 0.21767(19) 0.21889(15) 0.01322(13)
H5 H 0.1995 0.0006 0.4558
C11 C 0.2627(3) 0.0906(2) 0.25324(17)
H6 H 0.1892 0.1099 0.3196
H7 H 0.2866 0.1676 0.2246
C12 C 0.0349(3) 0.1532(2) 0.14854(18)
C13 C 0.0815(3) 0.2543(2) 0.07264(18)
K2 K 0.05565(7) 0.41460(5) 0.84968(4)
O10 O 0.3512(3) 0.4512(2) 0.8018(2)
H16 H 0.3468 0.5107 0.7572
C17 C 0.5014(4) 0.3582(3) 0.7824(4)
H17 H 0.5162 0.3318 0.7099
H18 H 0.5864 0.3921 0.7915
H19 H 0.5047 0.2868 0.8324
O12 O 0.0148(2) 0.63776(15) 0.92953(14)
O4 O 0.2250(2) 0.88531(17) 0.02459(14)
O5 O 0.0944(2) 0.76533(17) 0.12629(15)
O6 O 0.6151(3) 0.6574(2) 0.71805(16)
O7 O 0.3502(3) 0.6921(2) 0.73392(17)
C1 C 0.5486(3) 0.9657(2) 0.19879(17)
C2 C 0.7024(3) 0.8880(2) 0.22411(18)
H1 H 0.7922 0.8759 0.1718
C3 C 0.7199(3) 0.8308(2) 0.32446(19)
H2 H 0.8221 0.7811 0.3401
C4 C 0.5859(3) 0.8455(2) 0.40508(18)
C5 C 0.6004(3) 0.7773(2) 0.50648(19)
H3 H 0.7014 0.7240 0.5212
C6 C 0.4687(3) 0.7882(2) 0.58324(19)
C7 C 0.3187(3) 0.8736(2) 0.56249(19)
H4 H 0.2296 0.8829 0.6152
C8 C 0.3000(3) 0.9434(2) 0.46659(19)
C9 C 0.4327(3) 0.9296(2) 0.38328(17)
C10 C 0.4168(3) 0.9930(2) 0.27870(17)
C14 C 0.1390(3) 0.9320(2) 0.20990(18)
H10 H 0.0298 0.9532 0.2478
H11 H 0.2129 0.8823 0.2597
C15 C 0.1506(3) 0.8545(2) 0.11381(19)
C16 C 0.4795(3) 0.7071(2) 0.6863(2)
K4 K 0.31930(6) 0.64005(5) 0.95310(4)
Cu2 Cu 0.67967(3) 0.97719(2) 0.96804(2)
O11 O 0.47045(19) 0.98562(15) 0.90240(12)
K1 K 0.68070(6) 0.35995(5) 0.04690(4)
O3 O 0.9852(2) 0.36224(15) 0.07047(14)
H8 H 0.9753 0.1907 0.2150
H9 H 0.9648 0.1197 0.1153
K6 K 0.94435(7) 0.58540(5) 0.15032(4)
O15 O 0.6498(3) 0.3079(2) 0.26608(17)
O16 O 0.3435(3) 0.4209(2) 0.07391(19)
H20 H 0.340(5) 0.405(4) 0.135(3)
H21 H 0.319(5) 0.367(4) 0.049(3)
O8 O 0.9350(4) 0.5365(4) 0.6729(2)
H12 H 0.989(7) 0.600(5) 0.652(4)
H13 H 0.830(7) 0.575(5) 0.668(4)
O9 O 0.6565(3) 0.5791(2) 0.92609(19)
H14 H 0.660(5) 0.595(4) 0.865(3)
H15 H 0.681(5) 0.633(4) 0.951(3)
O13 O 0.7750(2) 0.11469(17) 0.97541(14)
O14 O 0.9056(2) 0.23467(17) 0.87371(15)
O8_2 O 0.0650(4) 0.4635(4) 0.3271(2)
H12_2 H 0.011(7) 0.400(5) 0.348(4)
H13_2 H 0.170(7) 0.425(5) 0.332(4)
H8_2 H 0.0247 0.8093 0.7850
H9_2 H 0.0352 0.8803 0.8847
O6_2 O 0.3849(3) 0.3426(2) 0.28195(16)
C1_2 C 0.4514(3) 0.0343(2) 0.80121(17)
C2_2 C 0.2976(3) 0.1120(2) 0.77589(18)
H1_2 H 0.2078 0.1241 0.8282
C3_2 C 0.2801(3) 0.1692(2) 0.67554(19)
H2_2 H 0.1779 0.2189 0.6599
C4_2 C 0.4141(3) 0.1545(2) 0.59492(18)
C5_2 C 0.3996(3) 0.2227(2) 0.49352(19)
H3_2 H 0.2986 0.2760 0.4788
C6_2 C 0.5313(3) 0.2118(2) 0.41676(19)
C7_2 C 0.6813(3) 0.1264(2) 0.43751(19)
H4_2 H 0.7704 0.1171 0.3848
C8_2 C 0.7000(3) 0.0566(2) 0.53341(19)
C9_2 C 0.5673(3) 0.0704(2) 0.61672(17)
C10_2 C 0.5832(3) 0.0070(2) 0.72130(17)
C14_2 C 0.8610(3) 0.0680(2) 0.79010(18)
H10_2 H 0.9702 0.0468 0.7522
H11_2 H 0.7871 0.1177 0.7403
C15_2 C 0.8494(3) 0.1455(2) 0.88619(19)
C16_2 C 0.5205(3) 0.2929(2) 0.3137(2)
O10_2 O 0.6488(3) 0.5488(2) 0.1982(2)
H16_2 H 0.6532 0.4893 0.2428
C17_2 C 0.4986(4) 0.6418(3) 0.2176(4)
H17_2 H 0.4838 0.6682 0.2901
H18_2 H 0.4136 0.6079 0.2085
H19_2 H 0.4953 0.7132 0.1676
N1_2 N 0.8198(2) 0.95062(17) 0.82644(14)
O2_2 O 0.78233(19) 0.78111(15) 0.98678(13)
H5_2 H 0.8005 0.9994 0.5442
C11_2 C 0.7373(3) 0.9094(2) 0.74676(17)
H6_2 H 0.8108 0.8901 0.6804
H7_2 H 0.7134 0.8324 0.7754
C12_2 C 0.9651(3) 0.8468(2) 0.85146(18)
C13_2 C 0.9185(3) 0.7457(2) 0.92736(18)
loop_
_geom_bond_atom_site_label_1
_geom_bond_atom_site_label_2
_geom_bond_site_symmetry_1
_geom_bond_site_symmetry_2
Cu1 N1 1_555 1_555
N1 C11 1_555 1_555
O1 Cu1 1_555 1_555
O2 Cu1 1_555 1_555
H6 C11 1_555 1_555
H7 C11 1_555 1_555
C12 N1 1_555 1_555
C13 O2 1_555 1_555
C12 C13 1_555 1_555
O10 K2 1_555 1_555
H16 O10 1_555 1_555
C17 O10 1_555 1_555
H17 C17 1_555 1_555
H18 C17 1_555 1_555
H19 C17 1_555 1_555
O12 K2 1_555 1_555
O5 C15 1_555 1_555
O6 C16 1_555 1_555
O7 C16 1_555 1_555
C2 C1 1_555 1_555
H1 C2 1_555 1_555
C3 C2 1_555 1_555
H2 C3 1_555 1_555
C4 C3 1_555 1_555
C5 C4 1_555 1_555
H3 C5 1_555 1_555
C6 C5 1_555 1_555
C7 C6 1_555 1_555
H4 C7 1_555 1_555
C8 C7 1_555 1_555
C9 C4 1_555 1_555
C10 C1 1_555 1_555
H10 C14 1_555 1_555
H11 C14 1_555 1_555
C15 O4 1_555 1_555
C16 C6 1_555 1_555
K4 O7 1_555 1_555
C8 C9 1_555 1_555
C9 C10 1_555 1_555
C14 C15 1_555 1_555
Cu2 O11 1_555 1_555
K1 O3 1_555 1_555
K6 O3 1_555 1_555
O15 K1 1_555 1_555
O16 K1 1_555 1_555
H20 O16 1_555 1_555
H21 O16 1_555 1_555
H12 O8 1_555 1_555
H13 O8 1_555 1_555
H14 O9 1_555 1_555
H15 O9 1_555 1_555
K4 O9 1_555 1_555
H12_2 O8_2 1_555 1_555
H13_2 O8_2 1_555 1_555
K4 O12 1_555 1_555
O14 C15_2 1_555 1_555
O6_2 C16_2 1_555 1_555
O15 C16_2 1_555 1_555
C2_2 C1_2 1_555 1_555
H1_2 C2_2 1_555 1_555
C3_2 C2_2 1_555 1_555
H2_2 C3_2 1_555 1_555
C4_2 C3_2 1_555 1_555
C5_2 C4_2 1_555 1_555
H3_2 C5_2 1_555 1_555
C6_2 C5_2 1_555 1_555
C7_2 C6_2 1_555 1_555
H4_2 C7_2 1_555 1_555
C8_2 C7_2 1_555 1_555
C9_2 C4_2 1_555 1_555
C10_2 C1_2 1_555 1_555
H10_2 C14_2 1_555 1_555
H11_2 C14_2 1_555 1_555
C15_2 O13 1_555 1_555
C16_2 C6_2 1_555 1_555
C8_2 C9_2 1_555 1_555
C9_2 C10_2 1_555 1_555
C14_2 C15_2 1_555 1_555
O10_2 K6 1_555 1_555
H16_2 O10_2 1_555 1_555
C17_2 O10_2 1_555 1_555
H17_2 C17_2 1_555 1_555
H18_2 C17_2 1_555 1_555
H19_2 C17_2 1_555 1_555
Cu2 N1_2 1_555 1_555
N1_2 C11_2 1_555 1_555
O2_2 Cu2 1_555 1_555
H6_2 C11_2 1_555 1_555
H7_2 C11_2 1_555 1_555
C12_2 N1_2 1_555 1_555
C13_2 O2_2 1_555 1_555
C12_2 C13_2 1_555 1_555

#END
