
###############################################################################
#
# This file contains modified crystal structure data generated from the
# MOF subset of the Cambridge Structural Database (CSD) v543 
# hosted by the Cambridge Crystallographic Data Centre (CCDC).
#
# This work is licensed under the Creative Commons
# Attribution-NonCommercial-ShareAlike 4.0 International License.
# To view a copy of this license, visit
# http://creativecommons.org/licenses/by-nc-sa/4.0/
# or send a letter to
# Creative Commons, PO Box 1866, Mountain View, CA 94042, USA.
#
# CIF created using the CSD Python API on 29 September 2022
# The structure has been converted into the P1 space group
# The structure has a 3D framework
# The original CSD entry QISVAQ is in the rhombohedral crystal system
# The framework has been calculated to contain at least 10.0% void space
# The void calculation uses a probe of radius 1.32A, grid spacing 0.4
# H atom positions have been added when not included in the experimental data
# Generated hydrogen atom positions removed from atoms on special positions
#
###############################################################################

data_QISVAQ
_chemical_formula_moiety         '(C492 H447 Cl108 Cu34 N36 O212)n'
_symmetry_cell_setting           triclinic
_symmetry_space_group_name_H-M   'P 1'
_symmetry_Int_Tables_number      1
_space_group_name_Hall           'P 1'
loop_
_symmetry_equiv_pos_site_id
_symmetry_equiv_pos_as_xyz
1 x,y,z
_cell_length_a                   22.3534(4)
_cell_length_b                   22.3534(4)
_cell_length_c                   41.1462(3)
_cell_angle_alpha                90
_cell_angle_beta                 90
_cell_angle_gamma                120.00
_cell_volume                     17805.2
loop_
_atom_site_label
_atom_site_type_symbol
_atom_site_fract_x
_atom_site_fract_y
_atom_site_fract_z
O19 O 0.06806(18) 0.47904(25) 0.12555(9)
O29 O 0.0569(3) 0.4169(4) 0.18703(14)
H49 H 0.0189932 0.289138 0.985976
Cu1 Cu 0.43100(3) 0.00655(3) 0.156185(17)
N1 N 0.5159(3) 0.0678(3) 0.13039(13)
O1 O 0.4618(2) 0.0751(2) 0.19073(10)
O2 O 0.40139(18) 0.25568(18) 0.29222(9)
O3 O 0.4153(2) 0.1764(2) 0.31822(10)
O5 O 0.3598(4) 0.0339(4) 0.12812(18)
C1 C 0.4274(3) 0.2178(3) 0.29569(12)
C2 C 0.6667 0.3333 0.2468(2)
C3 C 0.4768(2) 0.2230(2) 0.26900(12)
C4 C 0.5456(2) 0.2756(2) 0.26854(11)
C5 C 0.5932(2) 0.2787(2) 0.24550(11)
C6 C 0.5126(3) 0.0851(4) 0.10001(18)
H1 H 0.4692 0.0730 0.0912
C7 C 0.5714(4) 0.1209(4) 0.08056(17)
H2 H 0.5676 0.1333 0.0592
C8 C 0.6352(3) 0.1376(3) 0.09329(18)
C9 C 0.6377(3) 0.1196(4) 0.12552(17)
H3 H 0.6802 0.1311 0.1352
C10 C 0.5773(3) 0.0848(4) 0.14306(16)
H4 H 0.5794 0.0727 0.1647
Cl1 Cl 0.36809(9) 0.10936(11) 0.24300(6)
Cl2 Cl 0.57193(12) 0.33393(13) 0.30034(6)
Cl3 Cl 0.61900(10) 0.22965(11) 0.18930(6)
O6 O 0.4493(4) 0.1543(3) 0.16591(15)
C11 C 0.4671(3) 0.1308(4) 0.18922(16)
C12 C 0.4966(3) 0.1777(3) 0.21847(15)
C13 C 0.4531(3) 0.1753(4) 0.2433(2)
C14 C 0.5658(3) 0.2294(4) 0.22003(19)
Cu2 Cu 0.90233(3) 0.24222(4) 0.010482(17)
Cu3 Cu 0.99345(3) 0.42445(4) 0.156185(17)
Cu4 Cu 0.57555(4) 0.56900(3) 0.156185(17)
Cu7 Cu 0.32678(3) 0.23567(3) 0.322852(17)
Cu8 Cu 0.76433(3) 0.09112(4) 0.322852(17)
Cu9 Cu 0.90888(4) 0.67322(3) 0.322852(17)
Cu13 Cu 0.75778(4) 0.66012(3) 0.010482(17)
Cu14 Cu 0.33988(3) 0.09767(3) 0.010482(17)
N2 N 0.8174(3) 0.2186(4) 0.03628(13)
N3 N 0.9322(3) 0.4481(4) 0.13039(13)
N4 N 0.7814(4) 0.5989(3) 0.03628(13)
N5 N 0.5519(4) 0.4841(3) 0.13039(13)
N6 N 0.4011(3) 0.1826(3) 0.03628(13)
O7 O 0.9249(2) 0.3867(3) 0.19073(10)
O8 O 0.6133(3) 0.5382(2) 0.19073(10)
O13 O 0.74432(18) 0.14571(25) 0.29222(9)
O14 O 0.85429(25) 0.59861(18) 0.29222(9)
O18 O 0.92235(18) 0.18762(25) 0.04111(9)
O20 O 0.52096(25) 0.58901(18) 0.12555(9)
O23 O 0.8236(2) 0.2389(3) 0.31822(10)
O24 O 0.7611(3) 0.5847(2) 0.31822(10)
O30 O 0.5831(4) 0.6400(3) 0.18703(14)
O33 O 0.9735(4) 0.3408(6) 0.03855(18)
O34 O 0.9661(4) 0.3259(6) 0.12812(18)
O35 O 0.6741(6) 0.6402(4) 0.12812(18)
C15 C 0.7822(3) 0.2096(4) 0.29569(12)
C16 C 0.7904(4) 0.5726(3) 0.29569(12)
C21 C 0.7770(2) 0.2538(3) 0.26900(12)
C22 C 0.7462(3) 0.5232(2) 0.26900(12)
C26 C 0.7244(2) 0.2700(3) 0.26854(11)
C27 C 0.7300(3) 0.4544(2) 0.26854(11)
C31 C 0.7213(2) 0.3145(3) 0.24550(11)
C32 C 0.6855(3) 0.4068(2) 0.24550(11)
C36 C 0.8207(3) 0.2392(5) 0.06666(18)
C37 C 0.9149(4) 0.4275(5) 0.10001(18)
C38 C 0.7608(5) 0.5816(4) 0.06666(18)
C39 C 0.5725(5) 0.4874(3) 0.10001(18)
C40 C 0.4184(4) 0.1793(3) 0.06666(18)
H5 H 0.8641 0.2705 0.0755
H6 H 0.9270 0.3962 0.0912
H7 H 0.7295 0.5937 0.0755
H8 H 0.6038 0.5308 0.0912
H9 H 0.4063 0.1359 0.0755
C41 C 0.7619(4) 0.2162(6) 0.08611(17)
C42 C 0.8791(4) 0.4505(6) 0.08056(17)
C43 C 0.7838(6) 0.5458(4) 0.08611(17)
C44 C 0.5495(6) 0.4286(4) 0.08056(17)
C45 C 0.4542(4) 0.2381(4) 0.08611(17)
H10 H 0.7657 0.2324 0.1075
H11 H 0.8667 0.4343 0.0592
H12 H 0.7676 0.5334 0.1075
H13 H 0.5657 0.4324 0.0592
H14 H 0.4666 0.2343 0.1075
C46 C 0.6981(3) 0.1691(4) 0.07338(18)
C47 C 0.8624(3) 0.4976(4) 0.09329(18)
C48 C 0.8309(4) 0.5291(3) 0.07338(18)
C49 C 0.5024(4) 0.3648(3) 0.09329(18)
C50 C 0.4709(3) 0.3019(3) 0.07338(18)
C51 C 0.6956(3) 0.1486(5) 0.04115(17)
C52 C 0.8804(4) 0.5181(5) 0.12552(17)
C53 C 0.8514(5) 0.5471(4) 0.04115(17)
C54 C 0.4819(5) 0.3623(3) 0.12552(17)
C55 C 0.4529(4) 0.3044(3) 0.04115(17)
H15 H 0.6531 0.1176 0.0315
H16 H 0.8689 0.5491 0.1352
H17 H 0.8824 0.5356 0.0315
H18 H 0.4509 0.3198 0.1352
H19 H 0.4644 0.3469 0.0315
C56 C 0.7560(3) 0.1742(5) 0.02361(16)
C57 C 0.9152(4) 0.4925(5) 0.14306(16)
C58 C 0.8258(5) 0.5819(4) 0.02361(16)
C59 C 0.5075(5) 0.4227(3) 0.14306(16)
C60 C 0.4181(4) 0.2440(3) 0.02361(16)
H20 H 0.7539 0.1600 0.0020
H21 H 0.9273 0.5067 0.1647
H22 H 0.8400 0.5940 0.0020
H23 H 0.4933 0.4206 0.1647
H24 H 0.4060 0.2461 0.0020
Cl4 Cl 0.89064(11) 0.25873(14) 0.24300(6)
Cl5 Cl 0.74127(14) 0.63191(9) 0.24300(6)
Cl9 Cl 0.66607(13) 0.23800(18) 0.30034(6)
Cl10 Cl 0.76200(18) 0.42807(12) 0.30034(6)
Cl14 Cl 0.77035(11) 0.38935(15) 0.18930(6)
Cl15 Cl 0.61065(15) 0.38100(10) 0.18930(6)
O38 O 0.8457(3) 0.2950(5) 0.16591(15)
O39 O 0.7050(5) 0.5507(4) 0.16591(15)
C61 C 0.8692(4) 0.3363(5) 0.18922(16)
C62 C 0.6637(5) 0.5329(3) 0.18922(16)
C66 C 0.8223(3) 0.3189(4) 0.21847(15)
C67 C 0.6811(4) 0.5034(3) 0.21847(15)
C71 C 0.8247(4) 0.2778(5) 0.2433(2)
C72 C 0.7222(5) 0.5469(3) 0.2433(2)
C76 C 0.7706(4) 0.3364(5) 0.22003(19)
C77 C 0.6636(5) 0.4342(3) 0.22003(19)
H25 H 0.666701 0.333299 0.273267
H37 H 0.729855 0.0189932 0.0140242
O12 O 0.8715(2) 0.2800(3) 0.97594(10)
O28 O 0.9733(3) 0.2498(4) 0.97964(14)
H30 H 0.866364 0.318569 0.984645
H31 H 0.906128 0.297315 0.958118
H47 H 0.658702 0.0208893 0.970646
H48 H 0.961428 0.257585 0.957386
O4 O 0.3600(3) 0.9431(3) 0.18703(14)
O9 O 0.5916(2) 0.8715(2) 0.02406(10)
O10 O 0.2800(3) 0.4084(2) 0.02406(10)
O11 O 0.1285(2) 0.7200(3) 0.02406(10)
O15 O 0.41099(18) 0.93194(18) 0.12555(9)
O25 O 0.4903(2) 0.9180(2) 0.15155(10)
O26 O 0.4278(3) 0.5097(2) 0.15155(10)
O27 O 0.0820(2) 0.5722(3) 0.15155(10)
O31 O 0.7236(3) 0.9733(3) 0.02036(14)
O32 O 0.2498(4) 0.2764(3) 0.02036(14)
C17 C 0.4489(3) 0.9059(3) 0.12902(12)
C18 C 0.4571(4) 0.5511(3) 0.12902(12)
C19 C 0.0941(3) 0.5429(4) 0.12902(12)
C20 C 0.3334 0.6666 0.0801(2)
C23 C 0.4437(2) 0.8565(2) 0.10233(12)
C24 C 0.4129(3) 0.5563(2) 0.10233(12)
C25 C 0.1435(2) 0.5871(3) 0.10233(12)
C28 C 0.3911(2) 0.7877(2) 0.10187(11)
C29 C 0.3967(3) 0.6089(2) 0.10187(11)
C30 C 0.2123(2) 0.6033(3) 0.10187(11)
C33 C 0.3880(2) 0.7401(2) 0.07883(11)
C34 C 0.3522(3) 0.6120(2) 0.07883(11)
C35 C 0.2599(2) 0.6478(3) 0.07883(11)
Cl6 Cl 0.55731(11) 0.96524(9) 0.07633(6)
Cl7 Cl 0.40794(14) 0.44269(11) 0.07633(6)
Cl8 Cl 0.03476(9) 0.59206(14) 0.07633(6)
Cl11 Cl 0.33274(13) 0.76140(12) 0.13367(6)
Cl12 Cl 0.42867(18) 0.66726(13) 0.13367(6)
Cl13 Cl 0.23860(12) 0.57133(18) 0.13367(6)
Cl16 Cl 0.43702(11) 0.71433(10) 0.02263(6)
Cl17 Cl 0.27732(15) 0.56298(11) 0.02263(6)
Cl18 Cl 0.28567(10) 0.72268(15) 0.02263(6)
C63 C 0.5359(4) 0.8662(3) 0.02255(16)
C64 C 0.3304(5) 0.4641(4) 0.02255(16)
C65 C 0.1338(3) 0.6696(5) 0.02255(16)
C68 C 0.4890(3) 0.8367(3) 0.05180(15)
C69 C 0.3478(4) 0.5110(3) 0.05180(15)
C70 C 0.1633(3) 0.6522(4) 0.05180(15)
C73 C 0.4914(4) 0.8802(3) 0.0766(2)
C74 C 0.3889(5) 0.5086(4) 0.0766(2)
C75 C 0.1198(3) 0.6111(5) 0.0766(2)
C78 C 0.4373(4) 0.7675(3) 0.05336(19)
C79 C 0.3303(5) 0.5627(4) 0.05336(19)
C80 C 0.2325(3) 0.6697(5) 0.05336(19)
H36 H 0.768946 0.975324 0.0199811
H50 H 0.333368 0.666632 0.1066
Cu5 Cu 0.66012(3) 0.90233(3) 0.989518(17)
Cu6 Cu 0.24222(4) 0.33988(3) 0.989518(17)
Cu12 Cu 0.09767(3) 0.75778(4) 0.989518(17)
N7 N 0.5989(3) 0.8174(3) 0.96372(13)
N8 N 0.2186(4) 0.4011(3) 0.96372(13)
O21 O 0.73472(18) 0.92235(18) 0.95889(9)
O22 O 0.18762(25) 0.26528(18) 0.95889(9)
O36 O 0.6328(4) 0.9735(4) 0.96145(18)
O37 O 0.3408(6) 0.3672(4) 0.96145(18)
O40 O 0.5124(3) 0.8840(4) 0.99924(15)
O41 O 0.3717(5) 0.4876(3) 0.99924(15)
O42 O 0.1160(4) 0.6283(5) 0.99924(15)
H46 H 0.582399 0.956051 0.963287
O31_2 O 0.0267(3) 0.7502(4) 0.02036(14)
H36_2 H 0.0246763 0.793622 0.0199811
N7_2 N 0.1826(3) 0.7814(4) 0.96372(13)
O21_2 O 0.07765(18) 0.81238(25) 0.95889(9)
O36_2 O 0.0265(4) 0.6592(6) 0.96145(18)
H46_2 H 0.0439488 0.626348 0.963287
O18_2 O 0.81238(25) 0.73472(31) 0.04111(9)
O33_2 O 0.6592(6) 0.6328(7) 0.03855(18)
H37_2 H 0.981007 0.710862 0.0140242
O12_2 O 0.7200(3) 0.5916(4) 0.97594(10)
O28_2 O 0.7502(4) 0.7236(5) 0.97964(14)
H30_2 H 0.681431 0.547795 0.984645
H31_2 H 0.702685 0.608813 0.958118
H47_2 H 0.979111 0.637813 0.970646
O18_3 O 0.26528(31) 0.07765(18) 0.04111(9)
O33_3 O 0.3672(7) 0.0265(4) 0.03855(18)
O12_3 O 0.4084(4) 0.1285(2) 0.97594(10)
O28_3 O 0.2764(5) 0.0267(3) 0.97964(14)
H30_3 H 0.452205 0.133636 0.984645
H31_3 H 0.391187 0.0938717 0.958118
H48_2 H 0.296157 0.0385715 0.957386
H49_2 H 0.270145 0.981007 0.985976
O19_2 O 0.47904(25) 0.06806(18) 0.37445(9)
O29_2 O 0.4169(4) 0.0569(3) 0.31297(14)
H49_3 H 0.289138 0.0189932 0.514024
Cu1_2 Cu 0.00655(3) 0.43100(3) 0.343815(17)
N1_2 N 0.0678(3) 0.5159(3) 0.36961(13)
O1_2 O 0.0751(2) 0.4618(2) 0.30927(10)
O2_2 O 0.25568(18) 0.40139(18) 0.20778(9)
O3_2 O 0.1764(2) 0.4153(2) 0.18178(10)
O5_2 O 0.0339(4) 0.3598(4) 0.37188(18)
C1_2 C 0.2178(3) 0.4274(3) 0.20431(12)
C2_2 C 0.3333 0.6667 0.2532(2)
C3_2 C 0.2230(2) 0.4768(2) 0.23100(12)
C4_2 C 0.2756(2) 0.5456(2) 0.23146(11)
C5_2 C 0.2787(2) 0.5932(2) 0.25450(11)
C6_2 C 0.0851(4) 0.5126(3) 0.39999(18)
H1_2 H 0.0730 0.4692 0.4088
C7_2 C 0.1209(4) 0.5714(4) 0.41944(17)
H2_2 H 0.1333 0.5676 0.4408
C8_2 C 0.1376(3) 0.6352(3) 0.40671(18)
C9_2 C 0.1196(4) 0.6377(3) 0.37448(17)
H3_2 H 0.1311 0.6802 0.3648
C10_2 C 0.0848(4) 0.5773(3) 0.35694(16)
H4_2 H 0.0727 0.5794 0.3353
Cl1_2 Cl 0.10936(11) 0.36809(9) 0.25700(6)
Cl2_2 Cl 0.33393(13) 0.57193(12) 0.19966(6)
Cl3_2 Cl 0.22965(11) 0.61900(10) 0.31070(6)
O6_2 O 0.1543(3) 0.4493(4) 0.33409(15)
C11_2 C 0.1308(4) 0.4671(3) 0.31078(16)
C12_2 C 0.1777(3) 0.4966(3) 0.28153(15)
C13_2 C 0.1753(4) 0.4531(3) 0.2567(2)
C14_2 C 0.2294(4) 0.5658(3) 0.27997(19)
Cu2_2 Cu 0.24222(4) 0.90233(3) 0.489518(17)
Cu3_2 Cu 0.42445(4) 0.99345(3) 0.343815(17)
Cu4_2 Cu 0.56900(3) 0.57555(4) 0.343815(17)
Cu7_2 Cu 0.23567(3) 0.32678(3) 0.177148(17)
Cu8_2 Cu 0.09112(4) 0.76433(3) 0.177148(17)
Cu9_2 Cu 0.67322(3) 0.90888(4) 0.177148(17)
Cu13_2 Cu 0.66012(3) 0.75778(4) 0.489518(17)
Cu14_2 Cu 0.09767(3) 0.33988(3) 0.489518(17)
N2_2 N 0.2186(4) 0.8174(3) 0.46372(13)
N3_2 N 0.4481(4) 0.9322(3) 0.36961(13)
N4_2 N 0.5989(3) 0.7814(4) 0.46372(13)
N5_2 N 0.4841(3) 0.5519(4) 0.36961(13)
N6_2 N 0.1826(3) 0.4011(3) 0.46372(13)
O7_2 O 0.3867(3) 0.9249(2) 0.30927(10)
O8_2 O 0.5382(2) 0.6133(3) 0.30927(10)
O12_4 O 0.2800(3) 0.8715(2) 0.52406(10)
O13_2 O 0.14571(25) 0.74432(18) 0.20778(9)
O14_2 O 0.59861(18) 0.85429(25) 0.20778(9)
O18_4 O 0.18762(25) 0.92235(18) 0.45889(9)
O20_2 O 0.58901(18) 0.52096(25) 0.37445(9)
O23_2 O 0.2389(3) 0.8236(2) 0.18178(10)
O24_2 O 0.5847(2) 0.7611(3) 0.18178(10)
O28_4 O 0.2498(4) 0.9733(3) 0.52036(14)
O30_2 O 0.6400(3) 0.5831(4) 0.31297(14)
O33_4 O 0.3408(6) 0.9735(4) 0.46145(18)
O34_2 O 0.3259(6) 0.9661(4) 0.37188(18)
O35_2 O 0.6402(4) 0.6741(6) 0.37188(18)
C15_2 C 0.2096(4) 0.7822(3) 0.20431(12)
C16_2 C 0.5726(3) 0.7904(4) 0.20431(12)
C21_2 C 0.2538(3) 0.7770(2) 0.23100(12)
C22_2 C 0.5232(2) 0.7462(3) 0.23100(12)
C26_2 C 0.2700(3) 0.7244(2) 0.23146(11)
C27_2 C 0.4544(2) 0.7300(3) 0.23146(11)
C31_2 C 0.3145(3) 0.7213(2) 0.25450(11)
C32_2 C 0.4068(2) 0.6855(3) 0.25450(11)
C36_2 C 0.2392(5) 0.8207(3) 0.43334(18)
C37_2 C 0.4275(5) 0.9149(4) 0.39999(18)
C38_2 C 0.5816(4) 0.7608(5) 0.43334(18)
C39_2 C 0.4874(3) 0.5725(5) 0.39999(18)
C40_2 C 0.1793(3) 0.4184(4) 0.43334(18)
H5_2 H 0.2705 0.8641 0.4245
H6_2 H 0.3962 0.9270 0.4088
H7_2 H 0.5937 0.7295 0.4245
H8_2 H 0.5308 0.6038 0.4088
H9_2 H 0.1359 0.4063 0.4245
C41_2 C 0.2162(6) 0.7619(4) 0.41389(17)
C42_2 C 0.4505(6) 0.8791(4) 0.41944(17)
C43_2 C 0.5458(4) 0.7838(6) 0.41389(17)
C44_2 C 0.4286(4) 0.5495(6) 0.41944(17)
C45_2 C 0.2381(4) 0.4542(4) 0.41389(17)
H10_2 H 0.2324 0.7657 0.3925
H11_2 H 0.4343 0.8667 0.4408
H12_2 H 0.5334 0.7676 0.3925
H13_2 H 0.4324 0.5657 0.4408
H14_2 H 0.2343 0.4666 0.3925
C46_2 C 0.1691(4) 0.6981(3) 0.42662(18)
C47_2 C 0.4976(4) 0.8624(3) 0.40671(18)
C48_2 C 0.5291(3) 0.8309(4) 0.42662(18)
C49_2 C 0.3648(3) 0.5024(4) 0.40671(18)
C50_2 C 0.3019(3) 0.4709(3) 0.42662(18)
C51_2 C 0.1486(5) 0.6956(3) 0.45885(17)
C52_2 C 0.5181(5) 0.8804(4) 0.37448(17)
C53_2 C 0.5471(4) 0.8514(5) 0.45885(17)
C54_2 C 0.3623(3) 0.4819(5) 0.37448(17)
C55_2 C 0.3044(3) 0.4529(4) 0.45885(17)
H15_2 H 0.1176 0.6531 0.4685
H16_2 H 0.5491 0.8689 0.3648
H17_2 H 0.5356 0.8824 0.4685
H18_2 H 0.3198 0.4509 0.3648
H19_2 H 0.3469 0.4644 0.4685
C56_2 C 0.1742(5) 0.7560(3) 0.47639(16)
C57_2 C 0.4925(5) 0.9152(4) 0.35694(16)
C58_2 C 0.5819(4) 0.8258(5) 0.47639(16)
C59_2 C 0.4227(3) 0.5075(5) 0.35694(16)
C60_2 C 0.2440(3) 0.4181(4) 0.47639(16)
H20_2 H 0.1600 0.7539 0.4980
H21_2 H 0.5067 0.9273 0.3353
H22_2 H 0.5940 0.8400 0.4980
H23_2 H 0.4206 0.4933 0.3353
H24_2 H 0.2461 0.4060 0.4980
Cl4_2 Cl 0.25873(14) 0.89064(11) 0.25700(6)
Cl5_2 Cl 0.63191(9) 0.74127(14) 0.25700(6)
Cl9_2 Cl 0.23800(18) 0.66607(13) 0.19966(6)
Cl10_2 Cl 0.42807(12) 0.76200(18) 0.19966(6)
Cl14_2 Cl 0.38935(15) 0.77035(11) 0.31070(6)
Cl15_2 Cl 0.38100(10) 0.61065(15) 0.31070(6)
O38_2 O 0.2950(5) 0.8457(3) 0.33409(15)
O39_2 O 0.5507(4) 0.7050(5) 0.33409(15)
C61_2 C 0.3363(5) 0.8692(4) 0.31078(16)
C62_2 C 0.5329(3) 0.6637(5) 0.31078(16)
C66_2 C 0.3189(4) 0.8223(3) 0.28153(15)
C67_2 C 0.5034(3) 0.6811(4) 0.28153(15)
C71_2 C 0.2778(5) 0.8247(4) 0.2567(2)
C72_2 C 0.5469(3) 0.7222(5) 0.2567(2)
C76_2 C 0.3364(5) 0.7706(4) 0.27997(19)
C77_2 C 0.4342(3) 0.6636(5) 0.27997(19)
H25_2 H 0.333299 0.666701 0.226733
H30_4 H 0.318569 0.866364 0.515355
H31_4 H 0.297315 0.906128 0.541882
H37_3 H 0.0189932 0.729855 0.485976
H47_3 H 0.0208893 0.658702 0.529354
H48_3 H 0.257585 0.961428 0.542614
O4_2 O 0.9431(3) 0.3600(3) 0.31297(14)
Cu5_2 Cu 0.90233(3) 0.66012(3) 0.510482(17)
Cu6_2 Cu 0.33988(3) 0.24222(4) 0.510482(17)
Cu12_2 Cu 0.75778(4) 0.09767(3) 0.510482(17)
N7_3 N 0.8174(3) 0.5989(3) 0.53628(13)
N8_2 N 0.4011(3) 0.2186(4) 0.53628(13)
O9_2 O 0.8715(2) 0.5916(2) 0.47594(10)
O10_2 O 0.4084(2) 0.2800(3) 0.47594(10)
O11_2 O 0.7200(3) 0.1285(2) 0.47594(10)
O15_2 O 0.93194(18) 0.41099(18) 0.37445(9)
O21_3 O 0.92235(18) 0.73472(18) 0.54111(9)
O22_2 O 0.26528(18) 0.18762(25) 0.54111(9)
O25_2 O 0.9180(2) 0.4903(2) 0.34845(10)
O26_2 O 0.5097(2) 0.4278(3) 0.34845(10)
O27_2 O 0.5722(3) 0.0820(2) 0.34845(10)
O31_3 O 0.9733(3) 0.7236(3) 0.47964(14)
O32_2 O 0.2764(3) 0.2498(4) 0.47964(14)
O36_3 O 0.9735(4) 0.6328(4) 0.53855(18)
O37_2 O 0.3672(4) 0.3408(6) 0.53855(18)
C17_2 C 0.9059(3) 0.4489(3) 0.37098(12)
C18_2 C 0.5511(3) 0.4571(4) 0.37098(12)
C19_2 C 0.5429(4) 0.0941(3) 0.37098(12)
C20_2 C 0.6666 0.3334 0.4199(2)
C23_2 C 0.8565(2) 0.4437(2) 0.39767(12)
C24_2 C 0.5563(2) 0.4129(3) 0.39767(12)
C25_2 C 0.5871(3) 0.1435(2) 0.39767(12)
C28_2 C 0.7877(2) 0.3911(2) 0.39813(11)
C29_2 C 0.6089(2) 0.3967(3) 0.39813(11)
C30_2 C 0.6033(3) 0.2123(2) 0.39813(11)
C33_2 C 0.7401(2) 0.3880(2) 0.42117(11)
C34_2 C 0.6120(2) 0.3522(3) 0.42117(11)
C35_2 C 0.6478(3) 0.2599(2) 0.42117(11)
Cl6_2 Cl 0.96524(9) 0.55731(11) 0.42367(6)
Cl7_2 Cl 0.44269(11) 0.40794(14) 0.42367(6)
Cl8_2 Cl 0.59206(14) 0.03476(9) 0.42367(6)
Cl11_2 Cl 0.76140(12) 0.33274(13) 0.36633(6)
Cl12_2 Cl 0.66726(13) 0.42867(18) 0.36633(6)
Cl13_2 Cl 0.57133(18) 0.23860(12) 0.36633(6)
Cl16_2 Cl 0.71433(10) 0.43702(11) 0.47737(6)
Cl17_2 Cl 0.56298(11) 0.27732(15) 0.47737(6)
Cl18_2 Cl 0.72268(15) 0.28567(10) 0.47737(6)
O40_2 O 0.8840(4) 0.5124(3) 0.50076(15)
O41_2 O 0.4876(3) 0.3717(5) 0.50076(15)
O42_2 O 0.6283(5) 0.1160(4) 0.50076(15)
C63_2 C 0.8662(3) 0.5359(4) 0.47745(16)
C64_2 C 0.4641(4) 0.3304(5) 0.47745(16)
C65_2 C 0.6696(5) 0.1338(3) 0.47745(16)
C68_2 C 0.8367(3) 0.4890(3) 0.44820(15)
C69_2 C 0.5110(3) 0.3478(4) 0.44820(15)
C70_2 C 0.6522(4) 0.1633(3) 0.44820(15)
C73_2 C 0.8802(3) 0.4914(4) 0.4234(2)
C74_2 C 0.5086(4) 0.3889(5) 0.4234(2)
C75_2 C 0.6111(5) 0.1198(3) 0.4234(2)
C78_2 C 0.7675(3) 0.4373(4) 0.44664(19)
C79_2 C 0.5627(4) 0.3303(5) 0.44664(19)
C80_2 C 0.6697(5) 0.2325(3) 0.44664(19)
H36_3 H 0.975324 0.768946 0.480019
H46_3 H 0.956051 0.582399 0.536713
H50_2 H 0.666632 0.333368 0.3934
Cu9_3 Cu 0.57555(4) 0.00655(3) 0.656185(17)
H41 H 0.362187 0.0208893 0.470646
O1_3 O 0.1285(2) 0.4084(2) 0.52406(10)
O2_3 O 0.06806(18) 0.58901(18) 0.62555(9)
O3_3 O 0.0820(2) 0.5097(2) 0.65155(10)
O4_3 O 0.0267(3) 0.2764(3) 0.52036(14)
O5_3 O 0.0265(4) 0.3672(4) 0.46145(18)
C1_3 C 0.0941(3) 0.5511(3) 0.62902(12)
C2_3 C 0.3334 0.6666 0.5801(2)
C3_3 C 0.1435(2) 0.5563(2) 0.60233(12)
C4_3 C 0.2123(2) 0.6089(2) 0.60187(11)
C5_3 C 0.2599(2) 0.6120(2) 0.57883(11)
Cl1_3 Cl 0.03476(9) 0.44269(11) 0.57633(6)
Cl2_3 Cl 0.23860(12) 0.66726(13) 0.63367(6)
Cl3_3 Cl 0.28567(10) 0.56298(11) 0.52263(6)
O6_3 O 0.1160(4) 0.4876(3) 0.49924(15)
C11_3 C 0.1338(3) 0.4641(4) 0.52255(16)
C12_3 C 0.1633(3) 0.5110(3) 0.55180(15)
C13_3 C 0.1198(3) 0.5086(4) 0.5766(2)
C14_3 C 0.2325(3) 0.5627(4) 0.55336(19)
Cu8_3 Cu 0.43100(3) 0.42445(4) 0.656185(17)
N7_4 N 0.2655(3) 0.1508(3) 0.29706(13)
O7_3 O 0.5916(2) 0.7200(3) 0.52406(10)
O9_3 O 0.2582(2) 0.2049(2) 0.35740(10)
O13_3 O 0.41099(18) 0.47904(25) 0.62555(9)
O14_3 O 0.52096(25) 0.93194(18) 0.62555(9)
O15_3 O 0.07765(18) 0.26528(18) 0.45889(9)
O19_3 O 0.73472(18) 0.81238(25) 0.45889(9)
O23_3 O 0.4903(2) 0.5722(3) 0.65155(10)
O24_3 O 0.4278(3) 0.9180(2) 0.65155(10)
O25_3 O 0.1569(2) 0.2514(2) 0.48489(10)
O29_3 O 0.7236(3) 0.7502(4) 0.52036(14)
O31_4 O 0.3902(3) 0.3067(3) 0.35370(14)
O34_3 O 0.6328(4) 0.6592(6) 0.46145(18)
O36_4 O 0.2994(4) 0.3069(4) 0.29479(18)
C15_3 C 0.4489(3) 0.5429(4) 0.62902(12)
C16_3 C 0.4571(4) 0.9059(3) 0.62902(12)
C17_3 C 0.1155(3) 0.2393(3) 0.46236(12)
C20_3 C 0.0000 -0.0000 0.4135(2)
C21_3 C 0.4437(2) 0.5871(3) 0.60233(12)
C22_3 C 0.4129(3) 0.8565(2) 0.60233(12)
C23_3 C 0.1103(2) 0.1899(2) 0.43567(12)
C26_3 C 0.3911(2) 0.6033(3) 0.60187(11)
C27_3 C 0.3967(3) 0.7877(2) 0.60187(11)
C28_3 C 0.0577(2) 0.1211(2) 0.43521(11)
C31_3 C 0.3880(2) 0.6478(3) 0.57883(11)
C32_3 C 0.3522(3) 0.7401(2) 0.57883(11)
C33_3 C 0.0546(2) 0.0735(2) 0.41217(11)
Cl4_3 Cl 0.55731(11) 0.59206(14) 0.57633(6)
Cl5_3 Cl 0.40794(14) 0.96524(9) 0.57633(6)
Cl6_3 Cl 0.22397(11) 0.29858(9) 0.40967(6)
Cl9_3 Cl 0.33274(13) 0.57133(18) 0.63367(6)
Cl10_3 Cl 0.42867(18) 0.76140(12) 0.63367(6)
Cl12_3 Cl 0.09533(18) 0.00060(13) 0.46701(6)
Cl14_3 Cl 0.43702(11) 0.72268(15) 0.52263(6)
Cl15_3 Cl 0.27732(15) 0.71433(10) 0.52263(6)
Cl16_3 Cl 0.10368(11) 0.04767(10) 0.35597(6)
O38_3 O 0.5124(3) 0.6283(5) 0.49924(15)
O39_3 O 0.3717(5) 0.8840(4) 0.49924(15)
O40_3 O 0.1790(3) 0.2174(4) 0.33258(15)
C61_3 C 0.5359(4) 0.6696(5) 0.52255(16)
C62_3 C 0.3304(5) 0.8662(3) 0.52255(16)
C63_3 C 0.2025(4) 0.1996(3) 0.35589(16)
C66_3 C 0.4890(3) 0.6522(4) 0.55180(15)
C67_3 C 0.3478(4) 0.8367(3) 0.55180(15)
C68_3 C 0.1556(3) 0.1701(3) 0.38514(15)
C71_3 C 0.4914(4) 0.6111(5) 0.5766(2)
C72_3 C 0.3889(5) 0.8802(3) 0.5766(2)
C73_3 C 0.1580(4) 0.2136(3) 0.4100(2)
C76_3 C 0.4373(4) 0.6697(5) 0.55336(19)
C77_3 C 0.3303(5) 0.7675(3) 0.55336(19)
C78_3 C 0.1039(4) 0.1009(3) 0.38670(19)
H25_3 H 0.333368 0.666632 0.6066
H26 H 0.0385715 0.296157 0.542614
H28 H 0.0253755 0.354696 0.438221
H30_5 H 0.533031 0.651902 0.317979
H31_5 H 0.572795 0.630649 0.291451
H40 H 0.32932 0.974624 0.438221
H50_3 H 3.42216e-05 -3.42221e-05 0.439933
O26_3 O 0.0944(3) 0.8431(2) 0.48489(10)
O37_3 O 0.0074(6) 0.7006(4) 0.29479(18)
C18_3 C 0.1237(4) 0.8845(3) 0.46236(12)
C20_4 C 0.0000 1.0000 0.4135(2)
C24_3 C 0.0795(3) 0.8897(2) 0.43567(12)
C29_3 C 0.0633(3) 0.9423(2) 0.43521(11)
C34_3 C 0.0188(3) 0.9454(2) 0.41217(11)
Cl7_3 Cl 0.07460(14) 0.77603(11) 0.40967(6)
O41_3 O 0.0383(5) 0.8210(3) 0.33258(15)
C69_3 C 0.0144(4) 0.8444(3) 0.38514(15)
C74_3 C 0.0555(5) 0.8420(4) 0.4100(2)
H32 H 0.0403189 0.750934 0.29662
H33 H 0.0288535 0.674631 0.30398
H50_4 H 3.42216e-05 0.999966 0.439933
Cu7_3 Cu 0.99345(3) 0.56900(3) 0.656185(17)
O11_3 O 0.7951(2) 0.0534(3) 0.35740(10)
C20_5 C 1.0000 -0.0000 0.4135(2)
Cl11_3 Cl 0.99940(13) 0.09474(12) 0.46701(6)
Cl18_3 Cl 0.95233(10) 0.05602(15) 0.35597(6)
C65_3 C 0.8004(3) 0.0030(5) 0.35589(16)
C80_3 C 0.8991(3) 0.0031(5) 0.38670(19)
H27 H 0.981007 0.270145 0.514024
H29 H 0.979111 0.341298 0.470646
H50_5 H 1.00003 -3.42221e-05 0.439933
N8_3 N 0.8852(4) 0.7345(3) 0.29706(13)
O10_3 O 0.9466(3) 0.7418(2) 0.35740(10)
O27_3 O 0.7486(2) 0.9056(3) 0.48489(10)
O32_3 O 0.9164(4) 0.6098(3) 0.35370(14)
C19_3 C 0.7607(3) 0.8763(4) 0.46236(12)
C20_6 C 1.0000 1.0000 0.4135(2)
C25_3 C 0.8101(2) 0.9205(3) 0.43567(12)
C30_3 C 0.8789(2) 0.9367(3) 0.43521(11)
C35_3 C 0.9265(2) 0.9812(3) 0.41217(11)
Cl8_3 Cl 0.70142(9) 0.92540(14) 0.40967(6)
Cl13_3 Cl 0.90526(12) 0.90467(18) 0.46701(6)
Cl17_3 Cl 0.94398(15) 0.89632(11) 0.35597(6)
O42_3 O 0.7826(4) 0.9617(5) 0.33258(15)
C64_3 C 0.9970(5) 0.7975(4) 0.35589(16)
C70_3 C 0.8299(3) 0.9856(4) 0.38514(15)
C75_3 C 0.7864(3) 0.9445(5) 0.4100(2)
C79_3 C 0.9969(5) 0.8961(4) 0.38670(19)
H50_6 H 1.00003 0.999966 0.439933
N7_5 N 0.8492(3) 0.1148(4) 0.29706(13)
O31_5 O 0.6933(3) 0.0836(4) 0.35370(14)
O36_5 O 0.6931(4) 0.9926(6) 0.29479(18)
H30_6 H 0.348098 0.881128 0.317979
H31_6 H 0.369351 0.942146 0.291451
H46_4 H 0.710615 0.959681 0.29662
H47_4 H 0.645777 0.971146 0.30398
H30_7 H 0.118872 0.466969 0.317979
H31_7 H 0.0578536 0.427205 0.291451
C2_4 C -0.0000 0.0000 0.5865(2)
Cu3_3 Cu 0.09112(4) 0.32678(3) 0.677148(17)
Cu13_3 Cu 0.32678(3) 0.09112(4) 0.822852(17)
N3_3 N 0.1148(4) 0.2655(3) 0.70294(13)
N4_3 N 0.2655(3) 0.1148(4) 0.79706(13)
O7_4 O 0.0534(3) 0.2582(2) 0.64260(10)
O19_4 O 0.14571(25) 0.40139(18) 0.70778(9)
O24_4 O 0.2514(2) 0.0944(3) 0.51511(10)
O29_4 O 0.0836(4) 0.3902(3) 0.64630(14)
O33_5 O 0.0074(6) 0.3069(4) 0.79479(18)
O35_3 O 0.3069(4) 0.0074(6) 0.70521(18)
C16_4 C 0.2393(3) 0.1237(4) 0.53764(12)
C22_4 C 0.1899(2) 0.0795(3) 0.56433(12)
C27_4 C 0.1211(2) 0.0633(3) 0.56479(11)
C32_4 C 0.0735(2) 0.0188(3) 0.58783(11)
C37_3 C 0.0942(5) 0.2482(4) 0.73332(18)
C38_3 C 0.2482(4) 0.0942(5) 0.76668(18)
H6_3 H 0.0629 0.2603 0.7421
H7_3 H 0.2603 0.0629 0.7579
C42_3 C 0.1172(6) 0.2124(4) 0.75277(17)
C43_3 C 0.2124(4) 0.1172(6) 0.74723(17)
H11_3 H 0.1010 0.2000 0.7741
H12_3 H 0.2000 0.1010 0.7259
C47_3 C 0.1643(4) 0.1957(3) 0.74004(18)
C48_3 C 0.1957(3) 0.1643(4) 0.75996(18)
C52_3 C 0.1848(5) 0.2137(4) 0.70781(17)
C53_3 C 0.2137(4) 0.1848(5) 0.79219(17)
H16_3 H 0.2158 0.2022 0.6981
H17_3 H 0.2022 0.2158 0.8019
C57_3 C 0.1592(5) 0.2485(4) 0.69027(16)
C58_3 C 0.2485(4) 0.1592(5) 0.80973(16)
H21_3 H 0.1734 0.2606 0.6686
H22_3 H 0.2606 0.1734 0.8314
Cl5_4 Cl 0.29858(9) 0.07460(14) 0.59033(6)
Cl10_4 Cl 0.09474(12) 0.09533(18) 0.53299(6)
Cl14_4 Cl 0.05602(15) 0.10368(11) 0.64403(6)
O39_4 O 0.2174(4) 0.0383(5) 0.66742(15)
C61_4 C 0.0030(5) 0.2025(4) 0.64411(16)
C67_4 C 0.1701(3) 0.0144(4) 0.61486(15)
C72_4 C 0.2136(3) 0.0555(5) 0.5900(2)
C76_4 C 0.0031(5) 0.1039(4) 0.61330(19)
H25_4 H -3.42216e-05 3.42221e-05 0.560067
H41_2 H 0.354223 0.0288535 0.69602
H42 H 0.00401285 0.311971 0.728445
C2_5 C -0.0000 1.0000 0.5865(2)
Cl2_4 Cl 0.00060(13) 0.90526(12) 0.53299(6)
Cu4_3 Cu 0.23567(3) 0.90888(4) 0.677148(17)
N5_3 N 0.1508(3) 0.8852(4) 0.70294(13)
O8_3 O 0.2049(2) 0.9466(3) 0.64260(10)
O20_3 O 0.25568(18) 0.85429(25) 0.70778(9)
O30_3 O 0.3067(3) 0.9164(4) 0.64630(14)
C39_3 C 0.1541(3) 0.9058(5) 0.73332(18)
H8_3 H 0.1975 0.9371 0.7421
C44_3 C 0.0953(4) 0.8828(6) 0.75277(17)
H13_3 H 0.0991 0.8990 0.7741
C49_3 C 0.0315(3) 0.8357(4) 0.74004(18)
C54_3 C 0.0290(3) 0.8152(5) 0.70781(17)
H19_3 H 0.0135 0.7978 0.8019
C59_3 C 0.0894(3) 0.8408(5) 0.69027(16)
H23_3 H 0.0873 0.8266 0.6686
Cl15_4 Cl 0.04767(10) 0.94398(15) 0.64403(6)
C62_4 C 0.1996(3) 0.9970(5) 0.64411(16)
C77_4 C 0.1009(3) 0.9969(5) 0.61330(19)
H25_5 H -3.42216e-05 1.00003 0.560067
H40_2 H 0.307958 0.995987 0.728445
C2_6 C 1.0000 0.0000 0.5865(2)
H3_3 H 0.7978 0.0135 0.6981
Cu2_3 Cu 0.90888(4) 0.23567(3) 0.822852(17)
N2_3 N 0.8852(4) 0.1508(3) 0.79706(13)
O12_5 O 0.9466(3) 0.2049(2) 0.85740(10)
O13_4 O 0.81238(25) 0.07765(18) 0.54111(9)
O18_5 O 0.85429(25) 0.25568(18) 0.79222(9)
O21_4 O 0.58901(18) 0.06806(18) 0.87445(9)
O23_4 O 0.9056(3) 0.1569(2) 0.51511(10)
O28_5 O 0.9164(4) 0.3067(3) 0.85370(14)
O31_6 O 0.6400(3) 0.0569(3) 0.81297(14)
O34_4 O 0.9926(6) 0.2994(4) 0.70521(18)
C15_4 C 0.8763(4) 0.1155(3) 0.53764(12)
C21_4 C 0.9205(3) 0.1103(2) 0.56433(12)
C26_4 C 0.9367(3) 0.0577(2) 0.56479(11)
C31_4 C 0.9812(3) 0.0546(2) 0.58783(11)
C36_3 C 0.9058(5) 0.1541(3) 0.76668(18)
H5_3 H 0.9371 0.1975 0.7579
C41_3 C 0.8828(6) 0.0953(4) 0.74723(17)
H10_3 H 0.8990 0.0991 0.7259
C46_3 C 0.8357(4) 0.0315(3) 0.75996(18)
C51_3 C 0.8152(5) 0.0290(3) 0.79219(17)
C56_3 C 0.8408(5) 0.0894(3) 0.80973(16)
H20_3 H 0.8266 0.0873 0.8314
Cl4_4 Cl 0.92540(14) 0.22397(11) 0.59033(6)
O38_4 O 0.9617(5) 0.1790(3) 0.66742(15)
C66_4 C 0.9856(4) 0.1556(3) 0.61486(15)
C71_4 C 0.9445(5) 0.1580(4) 0.5900(2)
H25_6 H 0.999966 3.42221e-05 0.560067
H30_8 H 0.985236 0.199697 0.848688
H31_8 H 0.963982 0.239462 0.875215
H43 H 0.971146 0.325369 0.69602
Cu1_3 Cu 0.67322(3) 0.76433(3) 0.677148(17)
N1_3 N 0.7345(3) 0.8492(3) 0.70294(13)
O1_4 O 0.7418(2) 0.7951(2) 0.64260(10)
O3_4 O 0.8431(2) 0.7486(2) 0.51511(10)
O4_4 O 0.6098(3) 0.6933(3) 0.64630(14)
O5_4 O 0.7006(4) 0.6931(4) 0.70521(18)
C1_4 C 0.8845(3) 0.7607(3) 0.53764(12)
C2_7 C 1.0000 1.0000 0.5865(2)
C3_4 C 0.8897(2) 0.8101(2) 0.56433(12)
C4_4 C 0.9423(2) 0.8789(2) 0.56479(11)
C5_4 C 0.9454(2) 0.9265(2) 0.58783(11)
C6_3 C 0.7518(4) 0.8459(3) 0.73332(18)
H1_3 H 0.7397 0.8025 0.7421
C7_3 C 0.7876(4) 0.9047(4) 0.75277(17)
H2_3 H 0.8000 0.9009 0.7741
C8_3 C 0.8043(3) 0.9685(3) 0.74004(18)
C9_3 C 0.7863(4) 0.9710(3) 0.70781(17)
C10_3 C 0.7515(4) 0.9106(3) 0.69027(16)
H4_3 H 0.7394 0.9127 0.6686
Cl1_4 Cl 0.77603(11) 0.70142(9) 0.59033(6)
Cl3_4 Cl 0.89632(11) 0.95233(10) 0.64403(6)
O6_4 O 0.8210(3) 0.7826(4) 0.66742(15)
C11_4 C 0.7975(4) 0.8004(3) 0.64411(16)
C12_4 C 0.8444(3) 0.8299(3) 0.61486(15)
C13_4 C 0.8420(4) 0.7864(3) 0.5900(2)
C14_4 C 0.8961(4) 0.8991(3) 0.61330(19)
Cu5_3 Cu 0.56900(3) 0.99345(3) 0.843815(17)
Cu6_3 Cu 0.00655(3) 0.57555(4) 0.843815(17)
Cu12_3 Cu 0.42445(4) 0.43100(3) 0.843815(17)
Cu14_3 Cu 0.76433(3) 0.67322(3) 0.822852(17)
N6_3 N 0.8492(3) 0.7345(3) 0.79706(13)
N7_6 N 0.4841(3) 0.9322(3) 0.86961(13)
N8_4 N 0.0678(3) 0.5519(4) 0.86961(13)
O9_4 O 0.5382(2) 0.9249(2) 0.80927(10)
O10_4 O 0.0751(2) 0.6133(3) 0.80927(10)
O11_4 O 0.3867(3) 0.4618(2) 0.80927(10)
O15_4 O 0.59861(18) 0.74432(18) 0.70778(9)
O25_4 O 0.5847(2) 0.8236(2) 0.68178(10)
O26_4 O 0.1764(2) 0.7611(3) 0.68178(10)
O27_4 O 0.2389(3) 0.4153(2) 0.68178(10)
O36_6 O 0.6402(4) 0.9661(4) 0.87188(18)
O37_4 O 0.0339(4) 0.6741(6) 0.87188(18)
C17_4 C 0.5726(3) 0.7822(3) 0.70431(12)
C18_4 C 0.2178(3) 0.7904(4) 0.70431(12)
C19_4 C 0.2096(4) 0.4274(3) 0.70431(12)
C20_7 C 0.3333 0.6667 0.7532(2)
C23_4 C 0.5232(2) 0.7770(2) 0.73100(12)
C24_4 C 0.2230(2) 0.7462(3) 0.73100(12)
C25_4 C 0.2538(3) 0.4768(2) 0.73100(12)
C28_4 C 0.4544(2) 0.7244(2) 0.73146(11)
C29_4 C 0.2756(2) 0.7300(3) 0.73146(11)
C30_4 C 0.2700(3) 0.5456(2) 0.73146(11)
C33_4 C 0.4068(2) 0.7213(2) 0.75450(11)
C34_4 C 0.2787(2) 0.6855(3) 0.75450(11)
C35_4 C 0.3145(3) 0.5932(2) 0.75450(11)
C40_3 C 0.8459(3) 0.7518(4) 0.76668(18)
H9_3 H 0.8025 0.7397 0.7579
C45_3 C 0.9047(4) 0.7876(4) 0.74723(17)
H14_3 H 0.9009 0.8000 0.7259
C50_3 C 0.9685(3) 0.8043(3) 0.75996(18)
C55_3 C 0.9710(3) 0.7863(4) 0.79219(17)
H15_3 H 0.7842 0.9865 0.8019
H18_3 H 0.9865 0.7842 0.6981
C60_3 C 0.9106(3) 0.7515(4) 0.80973(16)
H24_3 H 0.9127 0.7394 0.8314
Cl6_4 Cl 0.63191(9) 0.89064(11) 0.75700(6)
Cl7_4 Cl 0.10936(11) 0.74127(14) 0.75700(6)
Cl8_4 Cl 0.25873(14) 0.36809(9) 0.75700(6)
Cl9_4 Cl 0.90467(18) 0.99940(13) 0.53299(6)
Cl11_4 Cl 0.42807(12) 0.66607(13) 0.69966(6)
Cl12_4 Cl 0.33393(13) 0.76200(18) 0.69966(6)
Cl13_4 Cl 0.23800(18) 0.57193(12) 0.69966(6)
Cl16_4 Cl 0.38100(10) 0.77035(11) 0.81070(6)
Cl17_4 Cl 0.22965(11) 0.61065(15) 0.81070(6)
Cl18_4 Cl 0.38935(15) 0.61900(10) 0.81070(6)
O40_4 O 0.5507(4) 0.8457(3) 0.83409(15)
O41_4 O 0.1543(3) 0.7050(5) 0.83409(15)
O42_4 O 0.2950(5) 0.4493(4) 0.83409(15)
C63_4 C 0.5329(3) 0.8692(4) 0.81078(16)
C64_4 C 0.1308(4) 0.6637(5) 0.81078(16)
C65_4 C 0.3363(5) 0.4671(3) 0.81078(16)
C68_4 C 0.5034(3) 0.8223(3) 0.78153(15)
C69_4 C 0.1777(3) 0.6811(4) 0.78153(15)
C70_4 C 0.3189(4) 0.4966(3) 0.78153(15)
C73_4 C 0.5469(3) 0.8247(4) 0.7567(2)
C74_4 C 0.1753(4) 0.7222(5) 0.7567(2)
C75_4 C 0.2778(5) 0.4531(3) 0.7567(2)
C78_4 C 0.4342(3) 0.7706(4) 0.77997(19)
C79_4 C 0.2294(4) 0.6636(5) 0.77997(19)
C80_4 C 0.3364(5) 0.5658(3) 0.77997(19)
H25_7 H 0.999966 1.00003 0.560067
H50_7 H 0.333299 0.666701 0.726733
O22_3 O 0.93194(18) 0.52096(25) 0.87445(9)
O32_4 O 0.9431(3) 0.5831(4) 0.81297(14)
C2_8 C 0.0000 -0.0000 0.9135(2)
O7_5 O 0.2582(2) 0.0534(3) 0.85740(10)
O19_5 O 0.40139(18) 0.14571(25) 0.79222(9)
O24_5 O 0.0944(3) 0.2514(2) 0.98489(10)
O29_5 O 0.3902(3) 0.0836(4) 0.85370(14)
C16_5 C 0.1237(4) 0.2393(3) 0.96236(12)
C22_5 C 0.0795(3) 0.1899(2) 0.93567(12)
C27_5 C 0.0633(3) 0.1211(2) 0.93521(11)
C32_5 C 0.0188(3) 0.0735(2) 0.91217(11)
Cl5_5 Cl 0.07460(14) 0.29858(9) 0.90967(6)
Cl10_5 Cl 0.09533(18) 0.09474(12) 0.96701(6)
Cl14_5 Cl 0.10368(11) 0.05602(15) 0.85597(6)
O39_5 O 0.0383(5) 0.2174(4) 0.83258(15)
C61_5 C 0.2025(4) 0.0030(5) 0.85589(16)
C67_5 C 0.0144(4) 0.1701(3) 0.88514(15)
C72_5 C 0.0555(5) 0.2136(3) 0.9100(2)
C76_5 C 0.1039(4) 0.0031(5) 0.88670(19)
H25_8 H 3.42221e-05 -3.42216e-05 0.939933
H41_3 H 0.0288535 0.354223 0.80398
H42_2 H 0.311971 0.00401285 0.771555
C2_9 C 0.0000 1.0000 0.9135(2)
O23_5 O 0.1569(2) 0.9056(3) 0.98489(10)
O31_7 O 0.0569(3) 0.6400(3) 0.68703(14)
O34_5 O 0.2994(4) 0.9926(6) 0.79479(18)
C15_5 C 0.1155(3) 0.8763(4) 0.96236(12)
C21_5 C 0.1103(2) 0.9205(3) 0.93567(12)
C26_5 C 0.0577(2) 0.9367(3) 0.93521(11)
C31_5 C 0.0546(2) 0.9812(3) 0.91217(11)
Cl4_5 Cl 0.22397(11) 0.92540(14) 0.90967(6)
O38_5 O 0.1790(3) 0.9617(5) 0.83258(15)
C66_5 C 0.1556(3) 0.9856(4) 0.88514(15)
C71_5 C 0.1580(4) 0.9445(5) 0.9100(2)
H25_9 H 3.42221e-05 0.999966 0.939933
H30_9 H 0.199697 0.985236 0.651312
H31_9 H 0.239462 0.963982 0.624785
H43_2 H 0.325369 0.971146 0.80398
C2_10 C 1.0000 -0.0000 0.9135(2)
Cl2_5 Cl 0.90526(12) 0.00060(13) 0.96701(6)
Cl15_5 Cl 0.94398(15) 0.04767(10) 0.85597(6)
C62_5 C 0.9970(5) 0.1996(3) 0.85589(16)
C77_5 C 0.9969(5) 0.1009(3) 0.88670(19)
H25_10 H 1.00003 -3.42216e-05 0.939933
H40_3 H 0.995987 0.307958 0.771555
O1_5 O 0.7951(2) 0.7418(2) 0.85740(10)
O3_5 O 0.7486(2) 0.8431(2) 0.98489(10)
O4_5 O 0.6933(3) 0.6098(3) 0.85370(14)
O5_5 O 0.6931(4) 0.7006(4) 0.79479(18)
C1_5 C 0.7607(3) 0.8845(3) 0.96236(12)
C2_11 C 1.0000 1.0000 0.9135(2)
C3_5 C 0.8101(2) 0.8897(2) 0.93567(12)
C4_5 C 0.8789(2) 0.9423(2) 0.93521(11)
C5_5 C 0.9265(2) 0.9454(2) 0.91217(11)
Cl1_5 Cl 0.70142(9) 0.77603(11) 0.90967(6)
Cl3_5 Cl 0.95233(10) 0.89632(11) 0.85597(6)
O6_5 O 0.7826(4) 0.8210(3) 0.83258(15)
C11_5 C 0.8004(3) 0.7975(4) 0.85589(16)
C12_5 C 0.8299(3) 0.8444(3) 0.88514(15)
C13_5 C 0.7864(3) 0.8420(4) 0.9100(2)
C14_5 C 0.8991(3) 0.8961(4) 0.88670(19)
N7_7 N 0.9322(3) 0.4841(3) 0.63039(13)
N8_5 N 0.5519(4) 0.0678(3) 0.63039(13)
O9_5 O 0.9249(2) 0.5382(2) 0.69073(10)
O10_5 O 0.6133(3) 0.0751(2) 0.69073(10)
O11_5 O 0.4618(2) 0.3867(3) 0.69073(10)
O15_5 O 0.74432(18) 0.59861(18) 0.79222(9)
O25_5 O 0.8236(2) 0.5847(2) 0.81822(10)
O26_5 O 0.7611(3) 0.1764(2) 0.81822(10)
O27_5 O 0.4153(2) 0.2389(3) 0.81822(10)
O36_7 O 0.9661(4) 0.6402(4) 0.62812(18)
O37_5 O 0.6741(6) 0.0339(4) 0.62812(18)
C17_5 C 0.7822(3) 0.5726(3) 0.79569(12)
C18_5 C 0.7904(4) 0.2178(3) 0.79569(12)
C19_5 C 0.4274(3) 0.2096(4) 0.79569(12)
C20_8 C 0.6667 0.3333 0.7468(2)
C23_5 C 0.7770(2) 0.5232(2) 0.76900(12)
C24_5 C 0.7462(3) 0.2230(2) 0.76900(12)
C25_5 C 0.4768(2) 0.2538(3) 0.76900(12)
C28_5 C 0.7244(2) 0.4544(2) 0.76854(11)
C29_5 C 0.7300(3) 0.2756(2) 0.76854(11)
C30_5 C 0.5456(2) 0.2700(3) 0.76854(11)
C33_5 C 0.7213(2) 0.4068(2) 0.74550(11)
C34_5 C 0.6855(3) 0.2787(2) 0.74550(11)
C35_5 C 0.5932(2) 0.3145(3) 0.74550(11)
Cl6_5 Cl 0.89064(11) 0.63191(9) 0.74300(6)
Cl7_5 Cl 0.74127(14) 0.10936(11) 0.74300(6)
Cl8_5 Cl 0.36809(9) 0.25873(14) 0.74300(6)
Cl9_5 Cl 0.99940(13) 0.90467(18) 0.96701(6)
Cl11_5 Cl 0.66607(13) 0.42807(12) 0.80034(6)
Cl12_5 Cl 0.76200(18) 0.33393(13) 0.80034(6)
Cl13_5 Cl 0.57193(12) 0.23800(18) 0.80034(6)
Cl16_5 Cl 0.77035(11) 0.38100(10) 0.68930(6)
Cl17_5 Cl 0.61065(15) 0.22965(11) 0.68930(6)
Cl18_5 Cl 0.61900(10) 0.38935(15) 0.68930(6)
O40_5 O 0.8457(3) 0.5507(4) 0.66591(15)
O41_5 O 0.7050(5) 0.1543(3) 0.66591(15)
O42_5 O 0.4493(4) 0.2950(5) 0.66591(15)
C63_5 C 0.8692(4) 0.5329(3) 0.68922(16)
C64_5 C 0.6637(5) 0.1308(4) 0.68922(16)
C65_5 C 0.4671(3) 0.3363(5) 0.68922(16)
C68_5 C 0.8223(3) 0.5034(3) 0.71847(15)
C69_5 C 0.6811(4) 0.1777(3) 0.71847(15)
C70_5 C 0.4966(3) 0.3189(4) 0.71847(15)
C73_5 C 0.8247(4) 0.5469(3) 0.7433(2)
C74_5 C 0.7222(5) 0.1753(4) 0.7433(2)
C75_5 C 0.4531(3) 0.2778(5) 0.7433(2)
C78_5 C 0.7706(4) 0.4342(3) 0.72003(19)
C79_5 C 0.6636(5) 0.2294(4) 0.72003(19)
C80_5 C 0.5658(3) 0.3364(5) 0.72003(19)
H25_11 H 1.00003 0.999966 0.939933
H50_8 H 0.666701 0.333299 0.773267
O32_5 O 0.5831(4) 0.9431(3) 0.68703(14)
H41_4 H 0.0208893 0.362187 0.0293537
O6_6 O 0.4876(3) 0.1160(4) 0.00076(15)
N7_8 N 0.1508(3) 0.2655(3) 0.20294(13)
O9_6 O 0.2049(2) 0.2582(2) 0.14260(10)
O25_6 O 0.2514(2) 0.1569(2) 0.01511(10)
O31_8 O 0.3067(3) 0.3902(3) 0.14630(14)
O36_8 O 0.3069(4) 0.2994(4) 0.20521(18)
C17_6 C 0.2393(3) 0.1155(3) 0.03764(12)
C20_9 C -0.0000 0.0000 0.0865(2)
C23_6 C 0.1899(2) 0.1103(2) 0.06433(12)
C28_6 C 0.1211(2) 0.0577(2) 0.06479(11)
C33_6 C 0.0735(2) 0.0546(2) 0.08783(11)
Cl6_6 Cl 0.29858(9) 0.22397(11) 0.09033(6)
Cl12_6 Cl 0.00060(13) 0.09533(18) 0.03299(6)
Cl16_6 Cl 0.04767(10) 0.10368(11) 0.14403(6)
O38_6 O 0.6283(5) 0.5124(3) 0.00076(15)
O39_6 O 0.8840(4) 0.3717(5) 0.00076(15)
O40_6 O 0.2174(4) 0.1790(3) 0.16742(15)
C63_6 C 0.1996(3) 0.2025(4) 0.14411(16)
C68_6 C 0.1701(3) 0.1556(3) 0.11486(15)
C73_6 C 0.2136(3) 0.1580(4) 0.0900(2)
C78_6 C 0.1009(3) 0.1039(4) 0.11330(19)
H28_2 H 0.354696 0.0253755 0.0617785
H30_10 H 0.651902 0.533031 0.182021
H31_10 H 0.630649 0.572795 0.208549
H40_4 H 0.974624 0.32932 0.0617785
H50_9 H -3.42221e-05 3.42216e-05 0.0600667
O3_6 O 0.5097(2) 0.0820(2) 0.84845(10)
C1_6 C 0.5511(3) 0.0941(3) 0.87098(12)
C2_12 C 0.6666 0.3334 0.9199(2)
C3_6 C 0.5563(2) 0.1435(2) 0.89767(12)
C4_6 C 0.6089(2) 0.2123(2) 0.89813(11)
C5_6 C 0.6120(2) 0.2599(2) 0.92117(11)
Cl1_6 Cl 0.44269(11) 0.03476(9) 0.92367(6)
Cl2_6 Cl 0.66726(13) 0.23860(12) 0.86633(6)
Cl3_6 Cl 0.56298(11) 0.28567(10) 0.97737(6)
C11_6 C 0.4641(4) 0.1338(3) 0.97745(16)
C12_6 C 0.5110(3) 0.1633(3) 0.94820(15)
C13_6 C 0.5086(4) 0.1198(3) 0.9234(2)
C14_6 C 0.5627(4) 0.2325(3) 0.94664(19)
O13_5 O 0.47904(25) 0.41099(18) 0.87445(9)
O23_6 O 0.5722(3) 0.4903(2) 0.84845(10)
O24_6 O 0.9180(2) 0.4278(3) 0.84845(10)
C15_6 C 0.5429(4) 0.4489(3) 0.87098(12)
C16_6 C 0.9059(3) 0.4571(4) 0.87098(12)
C21_6 C 0.5871(3) 0.4437(2) 0.89767(12)
C22_6 C 0.8565(2) 0.4129(3) 0.89767(12)
C26_6 C 0.6033(3) 0.3911(2) 0.89813(11)
C27_6 C 0.7877(2) 0.3967(3) 0.89813(11)
C31_6 C 0.6478(3) 0.3880(2) 0.92117(11)
C32_6 C 0.7401(2) 0.3522(3) 0.92117(11)
Cl4_6 Cl 0.59206(14) 0.55731(11) 0.92367(6)
Cl5_6 Cl 0.96524(9) 0.40794(14) 0.92367(6)
Cl9_6 Cl 0.57133(18) 0.33274(13) 0.86633(6)
Cl10_6 Cl 0.76140(12) 0.42867(18) 0.86633(6)
Cl14_6 Cl 0.72268(15) 0.43702(11) 0.97737(6)
Cl15_6 Cl 0.71433(10) 0.27732(15) 0.97737(6)
C61_6 C 0.6696(5) 0.5359(4) 0.97745(16)
C62_6 C 0.8662(3) 0.3304(5) 0.97745(16)
C66_6 C 0.6522(4) 0.4890(3) 0.94820(15)
C67_6 C 0.8367(3) 0.3478(4) 0.94820(15)
C71_6 C 0.6111(5) 0.4914(4) 0.9234(2)
C72_6 C 0.8802(3) 0.3889(5) 0.9234(2)
C76_6 C 0.6697(5) 0.4373(4) 0.94664(19)
C77_6 C 0.7675(3) 0.3303(5) 0.94664(19)
H25_12 H 0.666632 0.333368 0.8934
O11_6 O 0.0534(3) 0.7951(2) 0.14260(10)
C20_10 C -0.0000 1.0000 0.0865(2)
Cl11_6 Cl 0.09474(12) 0.99940(13) 0.03299(6)
Cl18_6 Cl 0.05602(15) 0.95233(10) 0.14403(6)
C65_6 C 0.0030(5) 0.8004(3) 0.14411(16)
C80_6 C 0.0031(5) 0.8991(3) 0.11330(19)
H29_2 H 0.341298 0.979111 0.0293537
H50_10 H -3.42221e-05 1.00003 0.0600667
O26_6 O 0.8431(2) 0.0944(3) 0.01511(10)
O37_6 O 0.7006(4) 0.0074(6) 0.20521(18)
C18_6 C 0.8845(3) 0.1237(4) 0.03764(12)
C20_11 C 1.0000 0.0000 0.0865(2)
C24_6 C 0.8897(2) 0.0795(3) 0.06433(12)
C29_6 C 0.9423(2) 0.0633(3) 0.06479(11)
C34_6 C 0.9454(2) 0.0188(3) 0.08783(11)
Cl7_6 Cl 0.77603(11) 0.07460(14) 0.09033(6)
O41_6 O 0.8210(3) 0.0383(5) 0.16742(15)
C69_6 C 0.8444(3) 0.0144(4) 0.11486(15)
C74_6 C 0.8420(4) 0.0555(5) 0.0900(2)
H32_2 H 0.750934 0.0403189 0.20338
H33_2 H 0.674631 0.0288535 0.19602
H50_11 H 0.999966 3.42216e-05 0.0600667
N8_6 N 0.7345(3) 0.8852(4) 0.20294(13)
O10_6 O 0.7418(2) 0.9466(3) 0.14260(10)
O27_6 O 0.9056(3) 0.7486(2) 0.01511(10)
O32_6 O 0.6098(3) 0.9164(4) 0.14630(14)
C19_6 C 0.8763(4) 0.7607(3) 0.03764(12)
C20_12 C 1.0000 1.0000 0.0865(2)
C25_6 C 0.9205(3) 0.8101(2) 0.06433(12)
C30_6 C 0.9367(3) 0.8789(2) 0.06479(11)
C35_6 C 0.9812(3) 0.9265(2) 0.08783(11)
Cl8_6 Cl 0.92540(14) 0.70142(9) 0.09033(6)
Cl13_6 Cl 0.90467(18) 0.90526(12) 0.03299(6)
Cl17_6 Cl 0.89632(11) 0.94398(15) 0.14403(6)
O42_6 O 0.9617(5) 0.7826(4) 0.16742(15)
C64_6 C 0.7975(4) 0.9970(5) 0.14411(16)
C70_6 C 0.9856(4) 0.8299(3) 0.11486(15)
C75_6 C 0.9445(5) 0.7864(3) 0.0900(2)
C79_6 C 0.8961(4) 0.9969(5) 0.11330(19)
H50_12 H 0.999966 1.00003 0.0600667
N7_9 N 0.7814(4) 0.1826(3) 0.53628(13)
O31_9 O 0.7502(4) 0.0267(3) 0.47964(14)
O36_9 O 0.6592(6) 0.0265(4) 0.53855(18)
H36_4 H 0.793622 0.0246763 0.480019
H46_5 H 0.626348 0.0439488 0.536713
H30_11 H 0.547795 0.681431 0.515355
H31_11 H 0.608813 0.702685 0.541882
H37_4 H 0.710862 0.981007 0.485976
H47_5 H 0.637813 0.979111 0.529354
H30_12 H 0.133636 0.452205 0.515355
H31_12 H 0.0938717 0.391187 0.541882
N7_10 N 0.5159(3) 0.4481(4) 0.63039(13)
O31_10 O 0.3600(3) 0.4169(4) 0.68703(14)
O36_10 O 0.3598(4) 0.3259(6) 0.62812(18)
H30_13 H 0.0147642 0.214462 0.651312
H31_13 H 0.0360181 0.27548 0.624785
H30_14 H 0.785538 0.800303 0.651312
H31_14 H 0.72452 0.760538 0.624785
N7_11 N 0.1148(4) 0.8492(3) 0.20294(13)
O31_11 O 0.0836(4) 0.6933(3) 0.14630(14)
O36_11 O 0.9926(6) 0.6931(4) 0.20521(18)
H30_15 H 0.881128 0.348098 0.182021
H31_15 H 0.942146 0.369351 0.208549
H46_6 H 0.959681 0.710615 0.20338
H47_6 H 0.971146 0.645777 0.19602
H30_16 H 0.466969 0.118872 0.182021
H31_16 H 0.427205 0.0578536 0.208549
N7_12 N 0.4481(4) 0.5159(3) 0.86961(13)
O31_12 O 0.4169(4) 0.3600(3) 0.81297(14)
O36_12 O 0.3259(6) 0.3598(4) 0.87188(18)
H30_17 H 0.214462 0.0147642 0.848688
H31_17 H 0.27548 0.0360181 0.875215
H30_18 H 0.800303 0.785538 0.848688
H31_18 H 0.760538 0.72452 0.875215
H46_7 H 0.417601 0.0439488 0.0367133
H36_5 H 0.231054 0.0246763 0.980019
H30_19 H 0.133636 0.681431 0.0153546
H31_19 H 0.0938717 0.702685 0.041882
H48_4 H 0.0385715 0.742415 0.0426138
C6_4 C 0.4874(3) 0.9149(4) 0.89999(18)
H1_4 H 0.5308 0.9270 0.9088
C7_4 C 0.4286(4) 0.8791(4) 0.91944(17)
H2_4 H 0.4324 0.8667 0.9408
C8_4 C 0.3648(3) 0.8624(3) 0.90671(18)
C9_4 C 0.3623(3) 0.8804(4) 0.87448(17)
H3_4 H 0.3198 0.8689 0.8648
C10_4 C 0.4227(3) 0.9152(4) 0.85694(16)
H4_4 H 0.4206 0.9273 0.8353
C36_4 C 0.1793(3) 0.7608(5) 0.93334(18)
C37_4 C 0.0851(4) 0.5725(5) 0.89999(18)
C38_4 C 0.2392(5) 0.4184(4) 0.93334(18)
C39_4 C 0.4275(5) 0.5126(3) 0.89999(18)
C40_4 C 0.5816(4) 0.8207(3) 0.93334(18)
H5_4 H 0.1359 0.7295 0.9245
H6_4 H 0.0730 0.6038 0.9088
H7_4 H 0.2705 0.4063 0.9245
H8_4 H 0.3962 0.4692 0.9088
H9_4 H 0.5937 0.8641 0.9245
C41_4 C 0.2381(4) 0.7838(6) 0.91389(17)
C42_4 C 0.1209(4) 0.5495(6) 0.91944(17)
C43_4 C 0.2162(6) 0.4542(4) 0.91389(17)
C44_4 C 0.4505(6) 0.5714(4) 0.91944(17)
C45_4 C 0.5458(4) 0.7619(4) 0.91389(17)
H10_4 H 0.2343 0.7676 0.8925
H11_4 H 0.1333 0.5657 0.9408
H12_4 H 0.2324 0.4666 0.8925
H13_4 H 0.4343 0.5676 0.9408
H14_4 H 0.5334 0.7657 0.8925
C46_4 C 0.3019(3) 0.8309(4) 0.92662(18)
C47_4 C 0.1376(3) 0.5024(4) 0.90671(18)
C48_4 C 0.1691(4) 0.4709(3) 0.92662(18)
C49_4 C 0.4976(4) 0.6352(3) 0.90671(18)
C50_4 C 0.5291(3) 0.6981(3) 0.92662(18)
C51_4 C 0.3044(3) 0.8514(5) 0.95885(17)
C52_4 C 0.1196(4) 0.4819(5) 0.87448(17)
C53_4 C 0.1486(5) 0.4529(4) 0.95885(17)
C54_4 C 0.5181(5) 0.6377(3) 0.87448(17)
C55_4 C 0.5471(4) 0.6956(3) 0.95885(17)
H15_4 H 0.3469 0.8824 0.9685
H16_4 H 0.1311 0.4509 0.8648
H17_4 H 0.1176 0.4644 0.9685
H18_4 H 0.5491 0.6802 0.8648
H19_4 H 0.5356 0.6531 0.9685
C56_4 C 0.2440(3) 0.8258(5) 0.97639(16)
C57_4 C 0.0848(4) 0.5075(5) 0.85694(16)
C58_4 C 0.1742(5) 0.4181(4) 0.97639(16)
C59_4 C 0.4925(5) 0.5773(3) 0.85694(16)
C60_4 C 0.5819(4) 0.7560(3) 0.97639(16)
H20_4 H 0.2461 0.8400 0.9980
H21_4 H 0.0727 0.4933 0.8353
H22_4 H 0.1600 0.4060 0.9980
H23_4 H 0.5067 0.5794 0.8353
H24_4 H 0.5940 0.7539 0.9980
H30_20 H 0.318569 0.452205 0.0153546
H31_20 H 0.297315 0.391187 0.041882
H46_8 H 0.956051 0.373652 0.0367133
H36_6 H 0.975324 0.206378 0.980019
H30_21 H 0.547795 0.866364 0.0153546
H31_21 H 0.608813 0.906128 0.041882
H48_5 H 0.703843 0.961428 0.0426138
H36_7 H 0.0246763 0.231054 0.519981
H46_9 H 0.0439488 0.417601 0.463287
C6_5 C 0.9149(4) 0.4874(3) 0.60001(18)
H1_5 H 0.9270 0.5308 0.5912
C7_5 C 0.8791(4) 0.4286(4) 0.58056(17)
H2_5 H 0.8667 0.4324 0.5592
C8_5 C 0.8624(3) 0.3648(3) 0.59329(18)
C9_5 C 0.8804(4) 0.3623(3) 0.62552(17)
H3_5 H 0.8689 0.3198 0.6352
C10_5 C 0.9152(4) 0.4227(3) 0.64306(16)
H4_5 H 0.9273 0.4206 0.6647
C36_5 C 0.7608(5) 0.1793(3) 0.56666(18)
C37_5 C 0.5725(5) 0.0851(4) 0.60001(18)
C38_5 C 0.4184(4) 0.2392(5) 0.56666(18)
C39_5 C 0.5126(3) 0.4275(5) 0.60001(18)
C40_5 C 0.8207(3) 0.5816(4) 0.56666(18)
H5_5 H 0.7295 0.1359 0.5755
H6_5 H 0.6038 0.0730 0.5912
H7_5 H 0.4063 0.2705 0.5755
H8_5 H 0.4692 0.3962 0.5912
H9_5 H 0.8641 0.5937 0.5755
C41_5 C 0.7838(6) 0.2381(4) 0.58611(17)
C42_5 C 0.5495(6) 0.1209(4) 0.58056(17)
C43_5 C 0.4542(4) 0.2162(6) 0.58611(17)
C44_5 C 0.5714(4) 0.4505(6) 0.58056(17)
C45_5 C 0.7619(4) 0.5458(4) 0.58611(17)
H10_5 H 0.7676 0.2343 0.6075
H11_5 H 0.5657 0.1333 0.5592
H12_5 H 0.4666 0.2324 0.6075
H13_5 H 0.5676 0.4343 0.5592
H14_5 H 0.7657 0.5334 0.6075
C46_5 C 0.8309(4) 0.3019(3) 0.57338(18)
C47_5 C 0.5024(4) 0.1376(3) 0.59329(18)
C48_5 C 0.4709(3) 0.1691(4) 0.57338(18)
C49_5 C 0.6352(3) 0.4976(4) 0.59329(18)
C50_5 C 0.6981(3) 0.5291(3) 0.57338(18)
C51_5 C 0.8514(5) 0.3044(3) 0.54115(17)
C52_5 C 0.4819(5) 0.1196(4) 0.62552(17)
C53_5 C 0.4529(4) 0.1486(5) 0.54115(17)
C54_5 C 0.6377(3) 0.5181(5) 0.62552(17)
C55_5 C 0.6956(3) 0.5471(4) 0.54115(17)
H15_5 H 0.8824 0.3469 0.5315
H16_5 H 0.4509 0.1311 0.6352
H17_5 H 0.4644 0.1176 0.5315
H18_5 H 0.6802 0.5491 0.6352
H19_5 H 0.6531 0.5356 0.5315
C56_5 C 0.8258(5) 0.2440(3) 0.52361(16)
C57_5 C 0.5075(5) 0.0848(4) 0.64306(16)
C58_5 C 0.4181(4) 0.1742(5) 0.52361(16)
C59_5 C 0.5773(3) 0.4925(5) 0.64306(16)
C60_5 C 0.7560(3) 0.5819(4) 0.52361(16)
H20_5 H 0.8400 0.2461 0.5020
H21_5 H 0.4933 0.0727 0.6647
H22_5 H 0.4060 0.1600 0.5020
H23_5 H 0.5794 0.5067 0.6647
H24_5 H 0.7539 0.5940 0.5020
H30_22 H 0.681431 0.133636 0.484645
H31_22 H 0.702685 0.0938717 0.458118
H48_6 H 0.742415 0.0385715 0.457386
H32_3 H 0.959681 0.249066 0.70338
H26_2 H 0.961428 0.703843 0.457386
H28_3 H 0.974624 0.645304 0.561779
H30_23 H 0.466969 0.348098 0.682021
H31_23 H 0.427205 0.369351 0.708549
H40_5 H 0.67068 0.0253755 0.561779
H30_24 H 0.651902 0.118872 0.682021
H31_24 H 0.630649 0.0578536 0.708549
H46_10 H 0.289385 0.0403189 0.70338
H30_25 H 0.881128 0.533031 0.682021
H31_25 H 0.942146 0.572795 0.708549
C6_6 C 0.2482(4) 0.1541(3) 0.26668(18)
H1_6 H 0.2603 0.1975 0.2579
C7_6 C 0.2124(4) 0.0953(4) 0.24723(17)
H2_6 H 0.2000 0.0991 0.2259
C8_6 C 0.1957(3) 0.0315(3) 0.25996(18)
C9_6 C 0.2137(4) 0.0290(3) 0.29219(17)
C10_6 C 0.2485(4) 0.0894(3) 0.30973(16)
H4_6 H 0.2606 0.0873 0.3314
C40_6 C 0.1541(3) 0.2482(4) 0.23332(18)
H9_6 H 0.1975 0.2603 0.2421
C45_6 C 0.0953(4) 0.2124(4) 0.25277(17)
H14_6 H 0.0991 0.2000 0.2741
C50_6 C 0.0315(3) 0.1957(3) 0.24004(18)
C55_6 C 0.0290(3) 0.2137(4) 0.20781(17)
H15_6 H 0.2158 0.0135 0.1981
H18_6 H 0.0135 0.2158 0.3019
C60_6 C 0.0894(3) 0.2485(4) 0.19027(16)
H24_6 H 0.0873 0.2606 0.1686
H3_6 H 0.2022 0.9865 0.3019
C36_6 C 0.0942(5) 0.8459(3) 0.23332(18)
H5_6 H 0.0629 0.8025 0.2421
C41_6 C 0.1172(6) 0.9047(4) 0.25277(17)
H10_6 H 0.1010 0.9009 0.2741
C46_6 C 0.1643(4) 0.9685(3) 0.24004(18)
C51_6 C 0.1848(5) 0.9710(3) 0.20781(17)
C56_6 C 0.1592(5) 0.9106(3) 0.19027(16)
H20_6 H 0.1734 0.9127 0.1686
H30_26 H 0.0147642 0.800303 0.151312
H31_26 H 0.0360181 0.760538 0.124785
C39_6 C 0.8459(3) 0.0942(5) 0.26668(18)
H8_6 H 0.8025 0.0629 0.2579
C44_6 C 0.9047(4) 0.1172(6) 0.24723(17)
H13_6 H 0.9009 0.1010 0.2259
C49_6 C 0.9685(3) 0.1643(4) 0.25996(18)
C54_6 C 0.9710(3) 0.1848(5) 0.29219(17)
H19_6 H 0.9865 0.2022 0.1981
C59_6 C 0.9106(3) 0.1592(5) 0.30973(16)
H23_6 H 0.9127 0.1734 0.3314
H40_6 H 0.692042 0.00401285 0.271555
C37_6 C 0.9058(5) 0.7518(4) 0.26668(18)
C38_6 C 0.7518(4) 0.9058(5) 0.23332(18)
H6_6 H 0.9371 0.7397 0.2579
H7_6 H 0.7397 0.9371 0.2421
C42_6 C 0.8828(6) 0.7876(4) 0.24723(17)
C43_6 C 0.7876(4) 0.8828(6) 0.25277(17)
H11_6 H 0.8990 0.8000 0.2259
H12_6 H 0.8000 0.8990 0.2741
C47_6 C 0.8357(4) 0.8043(3) 0.25996(18)
C48_6 C 0.8043(3) 0.8357(4) 0.24004(18)
C52_6 C 0.8152(5) 0.7863(4) 0.29219(17)
C53_6 C 0.7863(4) 0.8152(5) 0.20781(17)
H16_6 H 0.7842 0.7978 0.3019
H17_6 H 0.7978 0.7842 0.1981
C57_6 C 0.8408(5) 0.7515(4) 0.30973(16)
C58_6 C 0.7515(4) 0.8408(5) 0.19027(16)
H21_6 H 0.8266 0.7394 0.3314
H22_6 H 0.7394 0.8266 0.1686
H42_3 H 0.995987 0.688029 0.271555
H40_7 H 0.00401285 0.692042 0.228445
H30_27 H 0.800303 0.0147642 0.348688
H31_27 H 0.760538 0.0360181 0.375215
H42_4 H 0.688029 0.995987 0.228445
H32_4 H 0.249066 0.959681 0.79662
H28_4 H 0.645304 0.974624 0.938221
H30_28 H 0.348098 0.466969 0.817979
H31_28 H 0.369351 0.427205 0.791451
H40_8 H 0.0253755 0.67068 0.938221
H30_29 H 0.452205 0.318569 0.484645
H31_29 H 0.391187 0.297315 0.458118
H36_8 H 0.206378 0.975324 0.519981
H46_11 H 0.373652 0.956051 0.463287
H30_30 H 0.866364 0.547795 0.484645
H31_30 H 0.906128 0.608813 0.458118
H30_31 H 0.985236 0.785538 0.348688
H31_31 H 0.963982 0.72452 0.375215
H30_32 H 0.214462 0.199697 0.348688
H31_32 H 0.27548 0.239462 0.375215
H30_33 H 0.118872 0.651902 0.817979
H31_33 H 0.0578536 0.630649 0.791451
H46_12 H 0.0403189 0.289385 0.79662
H30_34 H 0.533031 0.881128 0.817979
H31_34 H 0.572795 0.942146 0.791451
H30_35 H 0.785538 0.985236 0.151312
H31_35 H 0.72452 0.963982 0.124785
H30_36 H 0.199697 0.214462 0.151312
H31_36 H 0.239462 0.27548 0.124785
loop_
_geom_bond_atom_site_label_1
_geom_bond_atom_site_label_2
_geom_bond_site_symmetry_1
_geom_bond_site_symmetry_2
Cu1 N1 1_555 1_555
N1 C6 1_555 1_555
O1 Cu1 1_555 1_555
O2 C1 1_555 1_555
O3 C1 1_555 1_555
O5 Cu1 1_555 1_555
C1 C3 1_555 1_555
C2 C5 1_555 1_555
C3 C4 1_555 1_555
C4 C5 1_555 1_555
C5 C14 1_555 1_555
C6 H1 1_555 1_555
C7 C6 1_555 1_555
H2 C7 1_555 1_555
C8 C7 1_555 1_555
C9 C8 1_555 1_555
H3 C9 1_555 1_555
C10 N1 1_555 1_555
H4 C10 1_555 1_555
Cl1 C13 1_555 1_555
Cl2 C4 1_555 1_555
Cl3 C14 1_555 1_555
O6 C11 1_555 1_555
C11 O1 1_555 1_555
C12 C11 1_555 1_555
C13 C3 1_555 1_555
C14 C12 1_555 1_555
Cu2 N2 1_555 1_555
Cu3 N3 1_555 1_555
Cu4 N5 1_555 1_555
Cu7 O2 1_555 1_555
Cu8 O13 1_555 1_555
Cu9 O14 1_555 1_555
Cu13 N4 1_555 1_555
Cu14 N6 1_555 1_555
N2 C36 1_555 1_555
N3 C37 1_555 1_555
N4 C38 1_555 1_555
N5 C39 1_555 1_555
N6 C40 1_555 1_555
O7 Cu3 1_555 1_555
O8 Cu4 1_555 1_555
O13 C15 1_555 1_555
O14 C16 1_555 1_555
O18 Cu2 1_555 1_555
O20 Cu4 1_555 1_555
O23 C15 1_555 1_555
O24 C16 1_555 1_555
O30 Cu4 1_555 1_555
O33 Cu2 1_555 1_555
O34 Cu3 1_555 1_555
O35 Cu4 1_555 1_555
C15 C21 1_555 1_555
C16 C22 1_555 1_555
C21 C26 1_555 1_555
C22 C27 1_555 1_555
C26 C31 1_555 1_555
C27 C32 1_555 1_555
C31 C2 1_555 1_555
C32 C2 1_555 1_555
C36 H5 1_555 1_555
C37 H6 1_555 1_555
C38 H7 1_555 1_555
C39 H8 1_555 1_555
C40 H9 1_555 1_555
C41 C36 1_555 1_555
C42 C37 1_555 1_555
C43 C38 1_555 1_555
C44 C39 1_555 1_555
C45 C40 1_555 1_555
H10 C41 1_555 1_555
H11 C42 1_555 1_555
H12 C43 1_555 1_555
H13 C44 1_555 1_555
H14 C45 1_555 1_555
C46 C8 1_555 1_555
C47 C42 1_555 1_555
C48 C43 1_555 1_555
C49 C44 1_555 1_555
C50 C45 1_555 1_555
C51 C46 1_555 1_555
C52 C47 1_555 1_555
C53 C48 1_555 1_555
C54 C49 1_555 1_555
C55 C50 1_555 1_555
H15 C51 1_555 1_555
H16 C52 1_555 1_555
H17 C53 1_555 1_555
H18 C54 1_555 1_555
H19 C55 1_555 1_555
C56 N2 1_555 1_555
C57 N3 1_555 1_555
C58 N4 1_555 1_555
C59 N5 1_555 1_555
C60 N6 1_555 1_555
H20 C56 1_555 1_555
H21 C57 1_555 1_555
H22 C58 1_555 1_555
H23 C59 1_555 1_555
H24 C60 1_555 1_555
Cl4 C71 1_555 1_555
Cl5 C72 1_555 1_555
Cl9 C26 1_555 1_555
Cl10 C27 1_555 1_555
Cl14 C76 1_555 1_555
Cl15 C77 1_555 1_555
O38 C61 1_555 1_555
O39 C62 1_555 1_555
C61 O7 1_555 1_555
C62 O8 1_555 1_555
C66 C61 1_555 1_555
C67 C62 1_555 1_555
C71 C21 1_555 1_555
C72 C22 1_555 1_555
C76 C31 1_555 1_555
C77 C32 1_555 1_555
C9 C10 1_555 1_555
C12 C13 1_555 1_555
C41 C46 1_555 1_555
C47 C48 1_555 1_555
C49 C50 1_555 1_555
C51 C56 1_555 1_555
C52 C57 1_555 1_555
C53 C58 1_555 1_555
C54 C59 1_555 1_555
C55 C60 1_555 1_555
C66 C71 1_555 1_555
C66 C76 1_555 1_555
C67 C72 1_555 1_555
C67 C77 1_555 1_555
C2 H25 1_555 1_555
O12 H30 1_555 1_555
O12 H31 1_555 1_555
O28 H48 1_555 1_555
O11 C65 1_555 1_555
O20 C18 1_555 1_555
O19 C19 1_555 1_555
O25 C17 1_555 1_555
O26 C18 1_555 1_555
O27 C19 1_555 1_555
C17 O15 1_555 1_555
C18 C24 1_555 1_555
C19 C25 1_555 1_555
C20 C33 1_555 1_555
C23 C17 1_555 1_555
C24 C29 1_555 1_555
C25 C30 1_555 1_555
C28 C23 1_555 1_555
C29 C34 1_555 1_555
C30 C35 1_555 1_555
C33 C28 1_555 1_555
C34 C20 1_555 1_555
C35 C20 1_555 1_555
Cl6 C73 1_555 1_555
Cl7 C74 1_555 1_555
Cl8 C75 1_555 1_555
Cl11 C28 1_555 1_555
Cl12 C29 1_555 1_555
Cl13 C30 1_555 1_555
Cl16 C78 1_555 1_555
Cl17 C79 1_555 1_555
Cl18 C80 1_555 1_555
C63 O9 1_555 1_555
C64 O10 1_555 1_555
C65 C70 1_555 1_555
C68 C63 1_555 1_555
C69 C64 1_555 1_555
C70 C75 1_555 1_555
C73 C23 1_555 1_555
C74 C24 1_555 1_555
C75 C25 1_555 1_555
C78 C33 1_555 1_555
C79 C34 1_555 1_555
C80 C35 1_555 1_555
C68 C73 1_555 1_555
C68 C78 1_555 1_555
C69 C74 1_555 1_555
C69 C79 1_555 1_555
C70 C80 1_555 1_555
O31 H36 1_555 1_555
C20 H50 1_555 1_555
Cu5 N7 1_555 1_555
Cu6 N8 1_555 1_555
O21 Cu5 1_555 1_555
O22 Cu6 1_555 1_555
O36 Cu5 1_555 1_555
O37 Cu6 1_555 1_555
O36 H46 1_555 1_555
O31_2 H36_2 1_555 1_555
Cu12 N7_2 1_555 1_555
O21_2 Cu12 1_555 1_555
O36_2 Cu12 1_555 1_555
O36_2 H46_2 1_555 1_555
O18_2 Cu13 1_555 1_555
O33_2 Cu13 1_555 1_555
O12_2 H30_2 1_555 1_555
O12_2 H31_2 1_555 1_555
O18_3 Cu14 1_555 1_555
O33_3 Cu14 1_555 1_555
O12_3 H30_3 1_555 1_555
O12_3 H31_3 1_555 1_555
O28_3 H48_2 1_555 1_555
Cu1_2 N1_2 1_555 1_555
N1_2 C6_2 1_555 1_555
O1_2 Cu1_2 1_555 1_555
O2_2 C1_2 1_555 1_555
O3_2 C1_2 1_555 1_555
O5_2 Cu1_2 1_555 1_555
C1_2 C3_2 1_555 1_555
C2_2 C5_2 1_555 1_555
C3_2 C4_2 1_555 1_555
C4_2 C5_2 1_555 1_555
C5_2 C14_2 1_555 1_555
C6_2 H1_2 1_555 1_555
C7_2 C6_2 1_555 1_555
H2_2 C7_2 1_555 1_555
C8_2 C7_2 1_555 1_555
C9_2 C8_2 1_555 1_555
H3_2 C9_2 1_555 1_555
C10_2 N1_2 1_555 1_555
H4_2 C10_2 1_555 1_555
Cl1_2 C13_2 1_555 1_555
Cl2_2 C4_2 1_555 1_555
Cl3_2 C14_2 1_555 1_555
O6_2 C11_2 1_555 1_555
C11_2 O1_2 1_555 1_555
C12_2 C11_2 1_555 1_555
C13_2 C3_2 1_555 1_555
C14_2 C12_2 1_555 1_555
Cu2_2 N2_2 1_555 1_555
Cu3_2 N3_2 1_555 1_555
Cu4_2 N5_2 1_555 1_555
Cu7_2 O2_2 1_555 1_555
Cu8_2 O13_2 1_555 1_555
Cu9_2 O14_2 1_555 1_555
Cu13_2 N4_2 1_555 1_555
Cu14_2 N6_2 1_555 1_555
N2_2 C36_2 1_555 1_555
N3_2 C37_2 1_555 1_555
N4_2 C38_2 1_555 1_555
N5_2 C39_2 1_555 1_555
N6_2 C40_2 1_555 1_555
O7_2 Cu3_2 1_555 1_555
O8_2 Cu4_2 1_555 1_555
O12_4 Cu2_2 1_555 1_555
O13_2 C15_2 1_555 1_555
O14_2 C16_2 1_555 1_555
O18_4 Cu2_2 1_555 1_555
O20_2 Cu4_2 1_555 1_555
O23_2 C15_2 1_555 1_555
O24_2 C16_2 1_555 1_555
O28_4 Cu2_2 1_555 1_555
O30_2 Cu4_2 1_555 1_555
O33_4 Cu2_2 1_555 1_555
O34_2 Cu3_2 1_555 1_555
O35_2 Cu4_2 1_555 1_555
C15_2 C21_2 1_555 1_555
C16_2 C22_2 1_555 1_555
C21_2 C26_2 1_555 1_555
C22_2 C27_2 1_555 1_555
C26_2 C31_2 1_555 1_555
C27_2 C32_2 1_555 1_555
C31_2 C2_2 1_555 1_555
C32_2 C2_2 1_555 1_555
C36_2 H5_2 1_555 1_555
C37_2 H6_2 1_555 1_555
C38_2 H7_2 1_555 1_555
C39_2 H8_2 1_555 1_555
C40_2 H9_2 1_555 1_555
C41_2 C36_2 1_555 1_555
C42_2 C37_2 1_555 1_555
C43_2 C38_2 1_555 1_555
C44_2 C39_2 1_555 1_555
C45_2 C40_2 1_555 1_555
H10_2 C41_2 1_555 1_555
H11_2 C42_2 1_555 1_555
H12_2 C43_2 1_555 1_555
H13_2 C44_2 1_555 1_555
H14_2 C45_2 1_555 1_555
C46_2 C8_2 1_555 1_555
C47_2 C42_2 1_555 1_555
C48_2 C43_2 1_555 1_555
C49_2 C44_2 1_555 1_555
C50_2 C45_2 1_555 1_555
C51_2 C46_2 1_555 1_555
C52_2 C47_2 1_555 1_555
C53_2 C48_2 1_555 1_555
C54_2 C49_2 1_555 1_555
C55_2 C50_2 1_555 1_555
H15_2 C51_2 1_555 1_555
H16_2 C52_2 1_555 1_555
H17_2 C53_2 1_555 1_555
H18_2 C54_2 1_555 1_555
H19_2 C55_2 1_555 1_555
C56_2 N2_2 1_555 1_555
C57_2 N3_2 1_555 1_555
C58_2 N4_2 1_555 1_555
C59_2 N5_2 1_555 1_555
C60_2 N6_2 1_555 1_555
H20_2 C56_2 1_555 1_555
H21_2 C57_2 1_555 1_555
H22_2 C58_2 1_555 1_555
H23_2 C59_2 1_555 1_555
H24_2 C60_2 1_555 1_555
Cl4_2 C71_2 1_555 1_555
Cl5_2 C72_2 1_555 1_555
Cl9_2 C26_2 1_555 1_555
Cl10_2 C27_2 1_555 1_555
Cl14_2 C76_2 1_555 1_555
Cl15_2 C77_2 1_555 1_555
O38_2 C61_2 1_555 1_555
O39_2 C62_2 1_555 1_555
C61_2 O7_2 1_555 1_555
C62_2 O8_2 1_555 1_555
C66_2 C61_2 1_555 1_555
C67_2 C62_2 1_555 1_555
C71_2 C21_2 1_555 1_555
C72_2 C22_2 1_555 1_555
C76_2 C31_2 1_555 1_555
C77_2 C32_2 1_555 1_555
C9_2 C10_2 1_555 1_555
C12_2 C13_2 1_555 1_555
C41_2 C46_2 1_555 1_555
C47_2 C48_2 1_555 1_555
C49_2 C50_2 1_555 1_555
C51_2 C56_2 1_555 1_555
C52_2 C57_2 1_555 1_555
C53_2 C58_2 1_555 1_555
C54_2 C59_2 1_555 1_555
C55_2 C60_2 1_555 1_555
C66_2 C71_2 1_555 1_555
C66_2 C76_2 1_555 1_555
C67_2 C72_2 1_555 1_555
C67_2 C77_2 1_555 1_555
C2_2 H25_2 1_555 1_555
O12_4 H30_4 1_555 1_555
O12_4 H31_4 1_555 1_555
O28_4 H48_3 1_555 1_555
Cu5_2 N7_3 1_555 1_555
Cu6_2 N8_2 1_555 1_555
Cu12_2 O11_2 1_555 1_555
O9_2 Cu5_2 1_555 1_555
O10_2 Cu6_2 1_555 1_555
O11_2 C65_2 1_555 1_555
O20_2 C18_2 1_555 1_555
O19_2 C19_2 1_555 1_555
O21_3 Cu5_2 1_555 1_555
O22_2 Cu6_2 1_555 1_555
O25_2 C17_2 1_555 1_555
O26_2 C18_2 1_555 1_555
O27_2 C19_2 1_555 1_555
O31_3 Cu5_2 1_555 1_555
O32_2 Cu6_2 1_555 1_555
O36_3 Cu5_2 1_555 1_555
O37_2 Cu6_2 1_555 1_555
C17_2 O15_2 1_555 1_555
C18_2 C24_2 1_555 1_555
C19_2 C25_2 1_555 1_555
C20_2 C33_2 1_555 1_555
C23_2 C17_2 1_555 1_555
C24_2 C29_2 1_555 1_555
C25_2 C30_2 1_555 1_555
C28_2 C23_2 1_555 1_555
C29_2 C34_2 1_555 1_555
C30_2 C35_2 1_555 1_555
C33_2 C28_2 1_555 1_555
C34_2 C20_2 1_555 1_555
C35_2 C20_2 1_555 1_555
Cl6_2 C73_2 1_555 1_555
Cl7_2 C74_2 1_555 1_555
Cl8_2 C75_2 1_555 1_555
Cl11_2 C28_2 1_555 1_555
Cl12_2 C29_2 1_555 1_555
Cl13_2 C30_2 1_555 1_555
Cl16_2 C78_2 1_555 1_555
Cl17_2 C79_2 1_555 1_555
Cl18_2 C80_2 1_555 1_555
O40_2 C63_2 1_555 1_555
O41_2 C64_2 1_555 1_555
O42_2 C65_2 1_555 1_555
C63_2 O9_2 1_555 1_555
C64_2 O10_2 1_555 1_555
C65_2 C70_2 1_555 1_555
C68_2 C63_2 1_555 1_555
C69_2 C64_2 1_555 1_555
C70_2 C75_2 1_555 1_555
C73_2 C23_2 1_555 1_555
C74_2 C24_2 1_555 1_555
C75_2 C25_2 1_555 1_555
C78_2 C33_2 1_555 1_555
C79_2 C34_2 1_555 1_555
C80_2 C35_2 1_555 1_555
C68_2 C73_2 1_555 1_555
C68_2 C78_2 1_555 1_555
C69_2 C74_2 1_555 1_555
C69_2 C79_2 1_555 1_555
C70_2 C80_2 1_555 1_555
O31_3 H36_3 1_555 1_555
O36_3 H46_3 1_555 1_555
C20_2 H50_2 1_555 1_555
O1_3 Cu14_2 1_555 1_555
O2_3 C1_3 1_555 1_555
O3_3 C1_3 1_555 1_555
O4_3 Cu14_2 1_555 1_555
O5_3 Cu14_2 1_555 1_555
C1_3 C3_3 1_555 1_555
C2_3 C5_3 1_555 1_555
C3_3 C4_3 1_555 1_555
C4_3 C5_3 1_555 1_555
C5_3 C14_3 1_555 1_555
Cl1_3 C13_3 1_555 1_555
Cl2_3 C4_3 1_555 1_555
Cl3_3 C14_3 1_555 1_555
O6_3 C11_3 1_555 1_555
C11_3 O1_3 1_555 1_555
C12_3 C11_3 1_555 1_555
C13_3 C3_3 1_555 1_555
C14_3 C12_3 1_555 1_555
Cu7 N7_4 1_555 1_555
Cu8_3 O13_3 1_555 1_555
O7_3 Cu13_2 1_555 1_555
O9_3 Cu7 1_555 1_555
O13_3 C15_3 1_555 1_555
O14_3 C16_3 1_555 1_555
O15_3 Cu14_2 1_555 1_555
O19_3 Cu13_2 1_555 1_555
O23_3 C15_3 1_555 1_555
O24_3 C16_3 1_555 1_555
O25_3 C17_3 1_555 1_555
O29_3 Cu13_2 1_555 1_555
O31_4 Cu7 1_555 1_555
O34_3 Cu13_2 1_555 1_555
O36_4 Cu7 1_555 1_555
C15_3 C21_3 1_555 1_555
C16_3 C22_3 1_555 1_555
C17_3 O15_3 1_555 1_555
C20_3 C33_3 1_555 1_555
C21_3 C26_3 1_555 1_555
C22_3 C27_3 1_555 1_555
C23_3 C17_3 1_555 1_555
C26_3 C31_3 1_555 1_555
C27_3 C32_3 1_555 1_555
C28_3 C23_3 1_555 1_555
C31_3 C2_3 1_555 1_555
C32_3 C2_3 1_555 1_555
C33_3 C28_3 1_555 1_555
Cl4_3 C71_3 1_555 1_555
Cl5_3 C72_3 1_555 1_555
Cl6_3 C73_3 1_555 1_555
Cl9_3 C26_3 1_555 1_555
Cl10_3 C27_3 1_555 1_555
Cl14_3 C76_3 1_555 1_555
Cl15_3 C77_3 1_555 1_555
Cl16_3 C78_3 1_555 1_555
O38_3 C61_3 1_555 1_555
O39_3 C62_3 1_555 1_555
O40_3 C63_3 1_555 1_555
C61_3 O7_3 1_555 1_555
C62_3 O12_4 1_555 1_555
C63_3 O9_3 1_555 1_555
C66_3 C61_3 1_555 1_555
C67_3 C62_3 1_555 1_555
C68_3 C63_3 1_555 1_555
C71_3 C21_3 1_555 1_555
C72_3 C22_3 1_555 1_555
C73_3 C23_3 1_555 1_555
C76_3 C31_3 1_555 1_555
C77_3 C32_3 1_555 1_555
C78_3 C33_3 1_555 1_555
C12_3 C13_3 1_555 1_555
C66_3 C71_3 1_555 1_555
C66_3 C76_3 1_555 1_555
C67_3 C72_3 1_555 1_555
C67_3 C77_3 1_555 1_555
C68_3 C73_3 1_555 1_555
C68_3 C78_3 1_555 1_555
C2_3 H25_3 1_555 1_555
O4_3 H26 1_555 1_555
O5_3 H28 1_555 1_555
O8_2 H30_5 1_555 1_555
O8_2 H31_5 1_555 1_555
O33_4 H40 1_555 1_555
C20_3 H50_3 1_555 1_555
O18_4 C18_3 1_555 1_555
O26_3 C18_3 1_555 1_555
C18_3 C24_3 1_555 1_555
C24_3 C29_3 1_555 1_555
C29_3 C34_3 1_555 1_555
C34_3 C20_4 1_555 1_555
Cl7_3 C74_3 1_555 1_555
C74_3 C24_3 1_555 1_555
C69_3 C74_3 1_555 1_555
O37_3 H32 1_555 1_555
O37_3 H33 1_555 1_555
C20_4 H50_4 1_555 1_555
Cu8 O11_3 1_555 1_555
O11_3 C65_3 1_555 1_555
Cl18_3 C80_3 1_555 1_555
C20_5 H50_5 1_555 1_555
Cu9 N8_3 1_555 1_555
O10_3 Cu9 1_555 1_555
O19_3 C19_3 1_555 1_555
O27_3 C19_3 1_555 1_555
O32_3 Cu9 1_555 1_555
C19_3 C25_3 1_555 1_555
C25_3 C30_3 1_555 1_555
C30_3 C35_3 1_555 1_555
C35_3 C20_6 1_555 1_555
Cl8_3 C75_3 1_555 1_555
Cl13_3 C30_3 1_555 1_555
Cl17_3 C79_3 1_555 1_555
C64_3 O10_3 1_555 1_555
C70_3 C75_3 1_555 1_555
C75_3 C25_3 1_555 1_555
C20_6 H50_6 1_555 1_555
Cu8 N7_5 1_555 1_555
O31_5 Cu8 1_555 1_555
O7_2 H30_6 1_555 1_555
O7_2 H31_6 1_555 1_555
O36_5 H46_4 1_555 1_555
O36_5 H47_4 1_555 1_555
O1_2 H30_7 1_555 1_555
O1_2 H31_7 1_555 1_555
Cu3_3 N3_3 1_555 1_555
Cu13_3 N4_3 1_555 1_555
N3_3 C37_3 1_555 1_555
N4_3 C38_3 1_555 1_555
O7_4 Cu3_3 1_555 1_555
O22_2 C16_4 1_555 1_555
O19_4 Cu3_3 1_555 1_555
O24_4 C16_4 1_555 1_555
O29_4 Cu3_3 1_555 1_555
C16_4 C22_4 1_555 1_555
C22_4 C27_4 1_555 1_555
C27_4 C32_4 1_555 1_555
C32_4 C2_4 1_555 1_555
C37_3 H6_3 1_555 1_555
C38_3 H7_3 1_555 1_555
C42_3 C37_3 1_555 1_555
C43_3 C38_3 1_555 1_555
H11_3 C42_3 1_555 1_555
H12_3 C43_3 1_555 1_555
C47_3 C42_3 1_555 1_555
C48_3 C43_3 1_555 1_555
C52_3 C47_3 1_555 1_555
C53_3 C48_3 1_555 1_555
H16_3 C52_3 1_555 1_555
H17_3 C53_3 1_555 1_555
C57_3 N3_3 1_555 1_555
C58_3 N4_3 1_555 1_555
H21_3 C57_3 1_555 1_555
H22_3 C58_3 1_555 1_555
Cl5_4 C72_4 1_555 1_555
Cl10_4 C27_4 1_555 1_555
Cl14_4 C76_4 1_555 1_555
C61_4 O7_4 1_555 1_555
C72_4 C22_4 1_555 1_555
C47_3 C48_3 1_555 1_555
C52_3 C57_3 1_555 1_555
C53_3 C58_3 1_555 1_555
C67_4 C72_4 1_555 1_555
C2_4 H25_4 1_555 1_555
O35_3 H41_2 1_555 1_555
Cu4_3 N5_3 1_555 1_555
N5_3 C39_3 1_555 1_555
O8_3 Cu4_3 1_555 1_555
O20_3 Cu4_3 1_555 1_555
O30_3 Cu4_3 1_555 1_555
C39_3 H8_3 1_555 1_555
C44_3 C39_3 1_555 1_555
H13_3 C44_3 1_555 1_555
C49_3 C44_3 1_555 1_555
C54_3 C49_3 1_555 1_555
C59_3 N5_3 1_555 1_555
H23_3 C59_3 1_555 1_555
Cl15_4 C77_4 1_555 1_555
C62_4 O8_3 1_555 1_555
C54_3 C59_3 1_555 1_555
C2_5 H25_5 1_555 1_555
Cu2_3 N2_3 1_555 1_555
Cu12_2 O13_4 1_555 1_555
N2_3 C36_3 1_555 1_555
O12_5 Cu2_3 1_555 1_555
O13_4 C15_4 1_555 1_555
O18_5 Cu2_3 1_555 1_555
O23_4 C15_4 1_555 1_555
O28_5 Cu2_3 1_555 1_555
C15_4 C21_4 1_555 1_555
C21_4 C26_4 1_555 1_555
C26_4 C31_4 1_555 1_555
C31_4 C2_6 1_555 1_555
C36_3 H5_3 1_555 1_555
C41_3 C36_3 1_555 1_555
H10_3 C41_3 1_555 1_555
C51_3 C46_3 1_555 1_555
C56_3 N2_3 1_555 1_555
H20_3 C56_3 1_555 1_555
Cl4_4 C71_4 1_555 1_555
C71_4 C21_4 1_555 1_555
C41_3 C46_3 1_555 1_555
C51_3 C56_3 1_555 1_555
C66_4 C71_4 1_555 1_555
C2_6 H25_6 1_555 1_555
O12_5 H30_8 1_555 1_555
O12_5 H31_8 1_555 1_555
O34_4 H43 1_555 1_555
Cu1_3 N1_3 1_555 1_555
N1_3 C6_3 1_555 1_555
O1_4 Cu1_3 1_555 1_555
O21_3 C1_4 1_555 1_555
O3_4 C1_4 1_555 1_555
O4_4 Cu1_3 1_555 1_555
O5_4 Cu1_3 1_555 1_555
C1_4 C3_4 1_555 1_555
C2_7 C5_4 1_555 1_555
C3_4 C4_4 1_555 1_555
C4_4 C5_4 1_555 1_555
C5_4 C14_4 1_555 1_555
C6_3 H1_3 1_555 1_555
C7_3 C6_3 1_555 1_555
H2_3 C7_3 1_555 1_555
C8_3 C7_3 1_555 1_555
C9_3 C8_3 1_555 1_555
C10_3 N1_3 1_555 1_555
H4_3 C10_3 1_555 1_555
Cl1_4 C13_4 1_555 1_555
Cl3_4 C14_4 1_555 1_555
O6_4 C11_4 1_555 1_555
C11_4 O1_4 1_555 1_555
C12_4 C11_4 1_555 1_555
C13_4 C3_4 1_555 1_555
C14_4 C12_4 1_555 1_555
Cu5_3 N7_6 1_555 1_555
Cu6_3 N8_4 1_555 1_555
Cu12_3 O11_4 1_555 1_555
Cu14_3 N6_3 1_555 1_555
N6_3 C40_3 1_555 1_555
O9_4 Cu5_3 1_555 1_555
O10_4 Cu6_3 1_555 1_555
O11_4 C65_4 1_555 1_555
O15_4 Cu1_3 1_555 1_555
O20_3 C18_4 1_555 1_555
O19_4 C19_4 1_555 1_555
O25_4 C17_4 1_555 1_555
O26_4 C18_4 1_555 1_555
O27_4 C19_4 1_555 1_555
O36_6 Cu5_3 1_555 1_555
O37_4 Cu6_3 1_555 1_555
C17_4 O15_4 1_555 1_555
C18_4 C24_4 1_555 1_555
C19_4 C25_4 1_555 1_555
C20_7 C33_4 1_555 1_555
C23_4 C17_4 1_555 1_555
C24_4 C29_4 1_555 1_555
C25_4 C30_4 1_555 1_555
C28_4 C23_4 1_555 1_555
C29_4 C34_4 1_555 1_555
C30_4 C35_4 1_555 1_555
C33_4 C28_4 1_555 1_555
C34_4 C20_7 1_555 1_555
C35_4 C20_7 1_555 1_555
C40_3 H9_3 1_555 1_555
C45_3 C40_3 1_555 1_555
H14_3 C45_3 1_555 1_555
C50_3 C45_3 1_555 1_555
C55_3 C50_3 1_555 1_555
C60_3 N6_3 1_555 1_555
H24_3 C60_3 1_555 1_555
Cl6_4 C73_4 1_555 1_555
Cl7_4 C74_4 1_555 1_555
Cl8_4 C75_4 1_555 1_555
Cl11_4 C28_4 1_555 1_555
Cl12_4 C29_4 1_555 1_555
Cl13_4 C30_4 1_555 1_555
Cl16_4 C78_4 1_555 1_555
Cl17_4 C79_4 1_555 1_555
Cl18_4 C80_4 1_555 1_555
O40_4 C63_4 1_555 1_555
O41_4 C64_4 1_555 1_555
O42_4 C65_4 1_555 1_555
C63_4 O9_4 1_555 1_555
C64_4 O10_4 1_555 1_555
C65_4 C70_4 1_555 1_555
C68_4 C63_4 1_555 1_555
C69_4 C64_4 1_555 1_555
C70_4 C75_4 1_555 1_555
C73_4 C23_4 1_555 1_555
C74_4 C24_4 1_555 1_555
C75_4 C25_4 1_555 1_555
C78_4 C33_4 1_555 1_555
C79_4 C34_4 1_555 1_555
C80_4 C35_4 1_555 1_555
C9_3 C10_3 1_555 1_555
C12_4 C13_4 1_555 1_555
C55_3 C60_3 1_555 1_555
C68_4 C73_4 1_555 1_555
C68_4 C78_4 1_555 1_555
C69_4 C74_4 1_555 1_555
C69_4 C79_4 1_555 1_555
C70_4 C80_4 1_555 1_555
C2_7 H25_7 1_555 1_555
C20_7 H50_7 1_555 1_555
O7_5 Cu13_3 1_555 1_555
O22 C16_5 1_555 1_555
O19_5 Cu13_3 1_555 1_555
O24_5 C16_5 1_555 1_555
O29_5 Cu13_3 1_555 1_555
C16_5 C22_5 1_555 1_555
C22_5 C27_5 1_555 1_555
C27_5 C32_5 1_555 1_555
C32_5 C2_8 1_555 1_555
Cl5_5 C72_5 1_555 1_555
Cl10_5 C27_5 1_555 1_555
Cl14_5 C76_5 1_555 1_555
C61_5 O7_5 1_555 1_555
C72_5 C22_5 1_555 1_555
C67_5 C72_5 1_555 1_555
C2_8 H25_8 1_555 1_555
O33_5 H41_3 1_555 1_555
O21_2 C15_5 1_555 1_555
O23_5 C15_5 1_555 1_555
C15_5 C21_5 1_555 1_555
C21_5 C26_5 1_555 1_555
C26_5 C31_5 1_555 1_555
C31_5 C2_9 1_555 1_555
Cl4_5 C71_5 1_555 1_555
C71_5 C21_5 1_555 1_555
C66_5 C71_5 1_555 1_555
C2_9 H25_9 1_555 1_555
O8_3 H30_9 1_555 1_555
O8_3 H31_9 1_555 1_555
O34_5 H43_2 1_555 1_555
Cl15_5 C77_5 1_555 1_555
C62_5 O12_5 1_555 1_555
C2_10 H25_10 1_555 1_555
O1_5 Cu14_3 1_555 1_555
O21 C1_5 1_555 1_555
O3_5 C1_5 1_555 1_555
O4_5 Cu14_3 1_555 1_555
O5_5 Cu14_3 1_555 1_555
C1_5 C3_5 1_555 1_555
C2_11 C5_5 1_555 1_555
C3_5 C4_5 1_555 1_555
C4_5 C5_5 1_555 1_555
C5_5 C14_5 1_555 1_555
Cl1_5 C13_5 1_555 1_555
Cl3_5 C14_5 1_555 1_555
O6_5 C11_5 1_555 1_555
C11_5 O1_5 1_555 1_555
C12_5 C11_5 1_555 1_555
C13_5 C3_5 1_555 1_555
C14_5 C12_5 1_555 1_555
Cu7_3 N7_7 1_555 1_555
Cu9_3 N8_5 1_555 1_555
Cu8_3 O11_5 1_555 1_555
O9_5 Cu7_3 1_555 1_555
O10_5 Cu9_3 1_555 1_555
O11_5 C65_5 1_555 1_555
O15_5 Cu14_3 1_555 1_555
O18_5 C18_5 1_555 1_555
O19_5 C19_5 1_555 1_555
O25_5 C17_5 1_555 1_555
O26_5 C18_5 1_555 1_555
O27_5 C19_5 1_555 1_555
O36_7 Cu7_3 1_555 1_555
O37_5 Cu9_3 1_555 1_555
C17_5 O15_5 1_555 1_555
C18_5 C24_5 1_555 1_555
C19_5 C25_5 1_555 1_555
C20_8 C33_5 1_555 1_555
C23_5 C17_5 1_555 1_555
C24_5 C29_5 1_555 1_555
C25_5 C30_5 1_555 1_555
C28_5 C23_5 1_555 1_555
C29_5 C34_5 1_555 1_555
C30_5 C35_5 1_555 1_555
C33_5 C28_5 1_555 1_555
C34_5 C20_8 1_555 1_555
C35_5 C20_8 1_555 1_555
Cl6_5 C73_5 1_555 1_555
Cl7_5 C74_5 1_555 1_555
Cl8_5 C75_5 1_555 1_555
Cl11_5 C28_5 1_555 1_555
Cl12_5 C29_5 1_555 1_555
Cl13_5 C30_5 1_555 1_555
Cl16_5 C78_5 1_555 1_555
Cl17_5 C79_5 1_555 1_555
Cl18_5 C80_5 1_555 1_555
O40_5 C63_5 1_555 1_555
O41_5 C64_5 1_555 1_555
O42_5 C65_5 1_555 1_555
C63_5 O9_5 1_555 1_555
C64_5 O10_5 1_555 1_555
C65_5 C70_5 1_555 1_555
C68_5 C63_5 1_555 1_555
C69_5 C64_5 1_555 1_555
C70_5 C75_5 1_555 1_555
C73_5 C23_5 1_555 1_555
C74_5 C24_5 1_555 1_555
C75_5 C25_5 1_555 1_555
C78_5 C33_5 1_555 1_555
C79_5 C34_5 1_555 1_555
C80_5 C35_5 1_555 1_555
C12_5 C13_5 1_555 1_555
C68_5 C73_5 1_555 1_555
C68_5 C78_5 1_555 1_555
C69_5 C74_5 1_555 1_555
C69_5 C79_5 1_555 1_555
C70_5 C80_5 1_555 1_555
C2_11 H25_11 1_555 1_555
C20_8 H50_8 1_555 1_555
Cu7_2 N7_8 1_555 1_555
O9_6 Cu7_2 1_555 1_555
O25_6 C17_6 1_555 1_555
O31_8 Cu7_2 1_555 1_555
O36_8 Cu7_2 1_555 1_555
C17_6 O18_3 1_555 1_555
C20_9 C33_6 1_555 1_555
C23_6 C17_6 1_555 1_555
C28_6 C23_6 1_555 1_555
C33_6 C28_6 1_555 1_555
Cl6_6 C73_6 1_555 1_555
Cl16_6 C78_6 1_555 1_555
O40_6 C63_6 1_555 1_555
C63_6 O9_6 1_555 1_555
C68_6 C63_6 1_555 1_555
C73_6 C23_6 1_555 1_555
C78_6 C33_6 1_555 1_555
C68_6 C73_6 1_555 1_555
C68_6 C78_6 1_555 1_555
O33_3 H28_2 1_555 1_555
O8 H30_10 1_555 1_555
O8 H31_10 1_555 1_555
O33 H40_4 1_555 1_555
C20_9 H50_9 1_555 1_555
O21_4 C1_6 1_555 1_555
O3_6 C1_6 1_555 1_555
C1_6 C3_6 1_555 1_555
C2_12 C5_6 1_555 1_555
C3_6 C4_6 1_555 1_555
C4_6 C5_6 1_555 1_555
C5_6 C14_6 1_555 1_555
Cl1_6 C13_6 1_555 1_555
Cl2_6 C4_6 1_555 1_555
Cl3_6 C14_6 1_555 1_555
C11_6 O12_3 1_555 1_555
C12_6 C11_6 1_555 1_555
C13_6 C3_6 1_555 1_555
C14_6 C12_6 1_555 1_555
Cu12_3 O13_5 1_555 1_555
O13_5 C15_6 1_555 1_555
O22_3 C16_6 1_555 1_555
O23_6 C15_6 1_555 1_555
O24_6 C16_6 1_555 1_555
C15_6 C21_6 1_555 1_555
C16_6 C22_6 1_555 1_555
C21_6 C26_6 1_555 1_555
C22_6 C27_6 1_555 1_555
C26_6 C31_6 1_555 1_555
C27_6 C32_6 1_555 1_555
C31_6 C2_12 1_555 1_555
C32_6 C2_12 1_555 1_555
Cl4_6 C71_6 1_555 1_555
Cl5_6 C72_6 1_555 1_555
Cl9_6 C26_6 1_555 1_555
Cl10_6 C27_6 1_555 1_555
Cl14_6 C76_6 1_555 1_555
Cl15_6 C77_6 1_555 1_555
C61_6 O12_2 1_555 1_555
C62_6 O12 1_555 1_555
C66_6 C61_6 1_555 1_555
C67_6 C62_6 1_555 1_555
C71_6 C21_6 1_555 1_555
C72_6 C22_6 1_555 1_555
C76_6 C31_6 1_555 1_555
C77_6 C32_6 1_555 1_555
C12_6 C13_6 1_555 1_555
C66_6 C71_6 1_555 1_555
C66_6 C76_6 1_555 1_555
C67_6 C72_6 1_555 1_555
C67_6 C77_6 1_555 1_555
C2_12 H25_12 1_555 1_555
Cu8_2 O11_6 1_555 1_555
O11_6 C65_6 1_555 1_555
Cl18_6 C80_6 1_555 1_555
C20_10 H50_10 1_555 1_555
O18 C18_6 1_555 1_555
O26_6 C18_6 1_555 1_555
C18_6 C24_6 1_555 1_555
C24_6 C29_6 1_555 1_555
C29_6 C34_6 1_555 1_555
C34_6 C20_11 1_555 1_555
Cl7_6 C74_6 1_555 1_555
C74_6 C24_6 1_555 1_555
C69_6 C74_6 1_555 1_555
O37_6 H32_2 1_555 1_555
O37_6 H33_2 1_555 1_555
C20_11 H50_11 1_555 1_555
Cu9_2 N8_6 1_555 1_555
O10_6 Cu9_2 1_555 1_555
O18_2 C19_6 1_555 1_555
O27_6 C19_6 1_555 1_555
O32_6 Cu9_2 1_555 1_555
C19_6 C25_6 1_555 1_555
C25_6 C30_6 1_555 1_555
C30_6 C35_6 1_555 1_555
C35_6 C20_12 1_555 1_555
Cl8_6 C75_6 1_555 1_555
Cl13_6 C30_6 1_555 1_555
Cl17_6 C79_6 1_555 1_555
C64_6 O10_6 1_555 1_555
C70_6 C75_6 1_555 1_555
C75_6 C25_6 1_555 1_555
C20_12 H50_12 1_555 1_555
Cu12_2 N7_9 1_555 1_555
O31_9 Cu12_2 1_555 1_555
O36_9 Cu12_2 1_555 1_555
O31_9 H36_4 1_555 1_555
O36_9 H46_5 1_555 1_555
O7_3 H30_11 1_555 1_555
O7_3 H31_11 1_555 1_555
O1_3 H30_12 1_555 1_555
O1_3 H31_12 1_555 1_555
Cu8_3 N7_10 1_555 1_555
O31_10 Cu8_3 1_555 1_555
O36_10 Cu8_3 1_555 1_555
O7_4 H30_13 1_555 1_555
O7_4 H31_13 1_555 1_555
O1_4 H30_14 1_555 1_555
O1_4 H31_14 1_555 1_555
Cu8_2 N7_11 1_555 1_555
O31_11 Cu8_2 1_555 1_555
O7 H30_15 1_555 1_555
O7 H31_15 1_555 1_555
O36_11 H46_6 1_555 1_555
O36_11 H47_6 1_555 1_555
O1 H30_16 1_555 1_555
O1 H31_16 1_555 1_555
Cu12_3 N7_12 1_555 1_555
O31_12 Cu12_3 1_555 1_555
O36_12 Cu12_3 1_555 1_555
O7_5 H30_17 1_555 1_555
O7_5 H31_17 1_555 1_555
O1_5 H30_18 1_555 1_555
O1_5 H31_18 1_555 1_555
O33_3 H46_7 1_555 1_555
O28_3 H36_5 1_555 1_555
O11 H30_19 1_555 1_555
O11 H31_19 1_555 1_555
O31_2 H48_4 1_555 1_555
N7_6 C6_4 1_555 1_555
C6_4 H1_4 1_555 1_555
C7_4 C6_4 1_555 1_555
H2_4 C7_4 1_555 1_555
C8_4 C7_4 1_555 1_555
C9_4 C8_4 1_555 1_555
H3_4 C9_4 1_555 1_555
C10_4 N7_6 1_555 1_555
H4_4 C10_4 1_555 1_555
N7_2 C36_4 1_555 1_555
N8_4 C37_4 1_555 1_555
N8 C38_4 1_555 1_555
N7_12 C39_4 1_555 1_555
N7 C40_4 1_555 1_555
C36_4 H5_4 1_555 1_555
C37_4 H6_4 1_555 1_555
C38_4 H7_4 1_555 1_555
C39_4 H8_4 1_555 1_555
C40_4 H9_4 1_555 1_555
C41_4 C36_4 1_555 1_555
C42_4 C37_4 1_555 1_555
C43_4 C38_4 1_555 1_555
C44_4 C39_4 1_555 1_555
C45_4 C40_4 1_555 1_555
H10_4 C41_4 1_555 1_555
H11_4 C42_4 1_555 1_555
H12_4 C43_4 1_555 1_555
H13_4 C44_4 1_555 1_555
H14_4 C45_4 1_555 1_555
C46_4 C8_4 1_555 1_555
C47_4 C42_4 1_555 1_555
C48_4 C43_4 1_555 1_555
C49_4 C44_4 1_555 1_555
C50_4 C45_4 1_555 1_555
C51_4 C46_4 1_555 1_555
C52_4 C47_4 1_555 1_555
C53_4 C48_4 1_555 1_555
C54_4 C49_4 1_555 1_555
C55_4 C50_4 1_555 1_555
H15_4 C51_4 1_555 1_555
H16_4 C52_4 1_555 1_555
H17_4 C53_4 1_555 1_555
H18_4 C54_4 1_555 1_555
H19_4 C55_4 1_555 1_555
C56_4 N7_2 1_555 1_555
C57_4 N8_4 1_555 1_555
C58_4 N8 1_555 1_555
C59_4 N7_12 1_555 1_555
C60_4 N7 1_555 1_555
H20_4 C56_4 1_555 1_555
H21_4 C57_4 1_555 1_555
H22_4 C58_4 1_555 1_555
H23_4 C59_4 1_555 1_555
H24_4 C60_4 1_555 1_555
C9_4 C10_4 1_555 1_555
C41_4 C46_4 1_555 1_555
C47_4 C48_4 1_555 1_555
C49_4 C50_4 1_555 1_555
C51_4 C56_4 1_555 1_555
C52_4 C57_4 1_555 1_555
C53_4 C58_4 1_555 1_555
C54_4 C59_4 1_555 1_555
C55_4 C60_4 1_555 1_555
O10 H30_20 1_555 1_555
O10 H31_20 1_555 1_555
O33 H46_8 1_555 1_555
O28 H36_6 1_555 1_555
O9 H30_21 1_555 1_555
O9 H31_21 1_555 1_555
O31 H48_5 1_555 1_555
O4_3 H36_7 1_555 1_555
O5_3 H46_9 1_555 1_555
N7_7 C6_5 1_555 1_555
C6_5 H1_5 1_555 1_555
C7_5 C6_5 1_555 1_555
H2_5 C7_5 1_555 1_555
C8_5 C7_5 1_555 1_555
C9_5 C8_5 1_555 1_555
H3_5 C9_5 1_555 1_555
C10_5 N7_7 1_555 1_555
H4_5 C10_5 1_555 1_555
N7_9 C36_5 1_555 1_555
N8_5 C37_5 1_555 1_555
N8_2 C38_5 1_555 1_555
N7_10 C39_5 1_555 1_555
N7_3 C40_5 1_555 1_555
C36_5 H5_5 1_555 1_555
C37_5 H6_5 1_555 1_555
C38_5 H7_5 1_555 1_555
C39_5 H8_5 1_555 1_555
C40_5 H9_5 1_555 1_555
C41_5 C36_5 1_555 1_555
C42_5 C37_5 1_555 1_555
C43_5 C38_5 1_555 1_555
C44_5 C39_5 1_555 1_555
C45_5 C40_5 1_555 1_555
H10_5 C41_5 1_555 1_555
H11_5 C42_5 1_555 1_555
H12_5 C43_5 1_555 1_555
H13_5 C44_5 1_555 1_555
H14_5 C45_5 1_555 1_555
C46_5 C8_5 1_555 1_555
C47_5 C42_5 1_555 1_555
C48_5 C43_5 1_555 1_555
C49_5 C44_5 1_555 1_555
C50_5 C45_5 1_555 1_555
C51_5 C46_5 1_555 1_555
C52_5 C47_5 1_555 1_555
C53_5 C48_5 1_555 1_555
C54_5 C49_5 1_555 1_555
C55_5 C50_5 1_555 1_555
H15_5 C51_5 1_555 1_555
H16_5 C52_5 1_555 1_555
H17_5 C53_5 1_555 1_555
H18_5 C54_5 1_555 1_555
H19_5 C55_5 1_555 1_555
C56_5 N7_9 1_555 1_555
C57_5 N8_5 1_555 1_555
C58_5 N8_2 1_555 1_555
C59_5 N7_10 1_555 1_555
C60_5 N7_3 1_555 1_555
H20_5 C56_5 1_555 1_555
H21_5 C57_5 1_555 1_555
H22_5 C58_5 1_555 1_555
H23_5 C59_5 1_555 1_555
H24_5 C60_5 1_555 1_555
C9_5 C10_5 1_555 1_555
C41_5 C46_5 1_555 1_555
C47_5 C48_5 1_555 1_555
C49_5 C50_5 1_555 1_555
C51_5 C56_5 1_555 1_555
C52_5 C57_5 1_555 1_555
C53_5 C58_5 1_555 1_555
C54_5 C59_5 1_555 1_555
C55_5 C60_5 1_555 1_555
O11_2 H30_22 1_555 1_555
O11_2 H31_22 1_555 1_555
O31_9 H48_6 1_555 1_555
O34_4 H32_3 1_555 1_555
O31_3 H26_2 1_555 1_555
O36_3 H28_3 1_555 1_555
O11_5 H30_23 1_555 1_555
O11_5 H31_23 1_555 1_555
O36_9 H40_5 1_555 1_555
O10_5 H30_24 1_555 1_555
O10_5 H31_24 1_555 1_555
O35_3 H46_10 1_555 1_555
O9_5 H30_25 1_555 1_555
O9_5 H31_25 1_555 1_555
N7_4 C6_6 1_555 1_555
C6_6 H1_6 1_555 1_555
C7_6 C6_6 1_555 1_555
H2_6 C7_6 1_555 1_555
C8_6 C7_6 1_555 1_555
C9_6 C8_6 1_555 1_555
C10_6 N7_4 1_555 1_555
H4_6 C10_6 1_555 1_555
N7_8 C40_6 1_555 1_555
C40_6 H9_6 1_555 1_555
C45_6 C40_6 1_555 1_555
H14_6 C45_6 1_555 1_555
C50_6 C45_6 1_555 1_555
C55_6 C50_6 1_555 1_555
C60_6 N7_8 1_555 1_555
H24_6 C60_6 1_555 1_555
C9_6 C10_6 1_555 1_555
C55_6 C60_6 1_555 1_555
N7_11 C36_6 1_555 1_555
C36_6 H5_6 1_555 1_555
C41_6 C36_6 1_555 1_555
H10_6 C41_6 1_555 1_555
C51_6 C46_6 1_555 1_555
C56_6 N7_11 1_555 1_555
H20_6 C56_6 1_555 1_555
C41_6 C46_6 1_555 1_555
C51_6 C56_6 1_555 1_555
O11_6 H30_26 1_555 1_555
O11_6 H31_26 1_555 1_555
N7_5 C39_6 1_555 1_555
C39_6 H8_6 1_555 1_555
C44_6 C39_6 1_555 1_555
H13_6 C44_6 1_555 1_555
C49_6 C44_6 1_555 1_555
C54_6 C49_6 1_555 1_555
C59_6 N7_5 1_555 1_555
H23_6 C59_6 1_555 1_555
C54_6 C59_6 1_555 1_555
N8_3 C37_6 1_555 1_555
N8_6 C38_6 1_555 1_555
C37_6 H6_6 1_555 1_555
C38_6 H7_6 1_555 1_555
C42_6 C37_6 1_555 1_555
C43_6 C38_6 1_555 1_555
H11_6 C42_6 1_555 1_555
H12_6 C43_6 1_555 1_555
C47_6 C42_6 1_555 1_555
C48_6 C43_6 1_555 1_555
C52_6 C47_6 1_555 1_555
C53_6 C48_6 1_555 1_555
H16_6 C52_6 1_555 1_555
H17_6 C53_6 1_555 1_555
C57_6 N8_3 1_555 1_555
C58_6 N8_6 1_555 1_555
H21_6 C57_6 1_555 1_555
H22_6 C58_6 1_555 1_555
C47_6 C48_6 1_555 1_555
C52_6 C57_6 1_555 1_555
C53_6 C58_6 1_555 1_555
O11_3 H30_27 1_555 1_555
O11_3 H31_27 1_555 1_555
O34_5 H32_4 1_555 1_555
O36 H28_4 1_555 1_555
O11_4 H30_28 1_555 1_555
O11_4 H31_28 1_555 1_555
O36_2 H40_8 1_555 1_555
O10_2 H30_29 1_555 1_555
O10_2 H31_29 1_555 1_555
O28_4 H36_8 1_555 1_555
O33_4 H46_11 1_555 1_555
O9_2 H30_30 1_555 1_555
O9_2 H31_30 1_555 1_555
O10_3 H30_31 1_555 1_555
O10_3 H31_31 1_555 1_555
O9_3 H30_32 1_555 1_555
O9_3 H31_32 1_555 1_555
O10_4 H30_33 1_555 1_555
O10_4 H31_33 1_555 1_555
O33_5 H46_12 1_555 1_555
O9_4 H30_34 1_555 1_555
O9_4 H31_34 1_555 1_555
O10_6 H30_35 1_555 1_555
O10_6 H31_35 1_555 1_555
O9_6 H30_36 1_555 1_555
O9_6 H31_36 1_555 1_555

#END
