
###############################################################################
#
# This file contains modified crystal structure data generated from the
# MOF subset of the Cambridge Structural Database (CSD) v543 
# hosted by the Cambridge Crystallographic Data Centre (CCDC).
#
# This work is licensed under the Creative Commons
# Attribution-NonCommercial-ShareAlike 4.0 International License.
# To view a copy of this license, visit
# http://creativecommons.org/licenses/by-nc-sa/4.0/
# or send a letter to
# Creative Commons, PO Box 1866, Mountain View, CA 94042, USA.
#
# CIF created using the CSD Python API on 29 September 2022
# The structure has been converted into the P1 space group
# The structure has a 3D framework
# The original CSD entry QISVEU is in the rhombohedral crystal system
# The framework has been calculated to contain at least 10.0% void space
# The void calculation uses a probe of radius 1.32A, grid spacing 0.4
#
###############################################################################

data_QISVEU
_chemical_formula_moiety         '(C564 H456 Cl108 Cu36 N36 O216)n'
_symmetry_cell_setting           triclinic
_symmetry_space_group_name_H-M   'P 1'
_symmetry_Int_Tables_number      1
_space_group_name_Hall           'P 1'
loop_
_symmetry_equiv_pos_site_id
_symmetry_equiv_pos_as_xyz
1 x,y,z
_cell_length_a                   22.4479(5)
_cell_length_b                   22.4479(5)
_cell_length_c                   41.1720(6)
_cell_angle_alpha                90
_cell_angle_beta                 90
_cell_angle_gamma                120.00
_cell_volume                     17967.4
loop_
_atom_site_label
_atom_site_type_symbol
_atom_site_fract_x
_atom_site_fract_y
_atom_site_fract_z
O24 O 0.06646(17) 0.47890(24) 0.12614(8)
O34 O 0.0542(2) 0.4188(4) 0.18788(10)
H15 H 0.040(5) 0.414(7) 0.2075(10)
H20 H 0.0970(17) 0.4330(53) 0.187(3)
C83 C 0.0334(4) 0.3806(6) 0.0308(3)
H50 H 0.0400 0.3772 0.0075
H55 H 0.0564 0.3594 0.0422
H56 H 0.0304 0.3073 0.1245
C88 C 0.0672(5) 0.4519(9) 0.0393(3)
H60 H 0.1155 0.4734 0.0336
H65 H 0.0629 0.4564 0.0625
H70 H 0.0462 0.4742 0.0277
Cu1 Cu 0.43312(3) 0.00822(3) 0.156307(13)
Cl1 Cl 0.36727(6) 0.11099(7) 0.24129(3)
Cl2 Cl 0.56780(6) 0.33249(6) 0.30080(3)
Cl3 Cl 0.61925(7) 0.23066(7) 0.19077(3)
N1 N 0.5164(2) 0.0708(2) 0.13004(9)
O1 O 0.46511(18) 0.07758(18) 0.19079(8)
O2 O 0.4522(3) 0.1578(2) 0.16517(10)
O3 O 0.39979(17) 0.25422(17) 0.29281(8)
O4 O 0.4103(2) 0.17102(19) 0.31697(8)
C1 C 0.4689(3) 0.1351(3) 0.18849(12)
C2 C 0.4243(2) 0.2148(2) 0.29553(11)
C3 C 0.6667 0.3333 0.2529(2)
H3 H 0.6667 0.3333 0.2769
C4 C 0.4967(2) 0.1807(2) 0.21843(11)
C5 C 0.4526(2) 0.1761(2) 0.24310(11)
C6 C 0.4745(2) 0.2217(2) 0.26879(10)
C7 C 0.5435(2) 0.2741(2) 0.26924(10)
C8 C 0.5918(2) 0.2792(2) 0.24615(11)
C9 C 0.5659(2) 0.2307(2) 0.22120(11)
C10 C 0.5127(3) 0.0880(3) 0.09949(12)
H4 H 0.4692 0.0744 0.0906
C11 C 0.5704(3) 0.1251(3) 0.08030(12)
H5 H 0.5663 0.1370 0.0589
C12 C 0.6349(3) 0.1443(3) 0.09354(12)
C13 C 0.6380(3) 0.1283(3) 0.12540(12)
H6 H 0.6807 0.1422 0.1353
C14 C 0.5778(3) 0.0914(3) 0.14276(12)
H7 H 0.5805 0.0804 0.1645
O6 O 0.3701(2) 0.0453(2) 0.12934(10)
H8 H 0.393(3) 0.0853(17) 0.1384(16)
C15 C 0.2999(4) 0.0138(5) 0.1359(3)
H9 H 0.2933 0.0038 0.1592
C16 C 0.2661(5) 0.0513(7) 0.1274(3)
H11 H 0.2178 0.0245 0.1331
H12 H 0.2704 0.0601 0.1042
H13 H 0.2871 0.0946 0.1390
Cu2 Cu 0.90021(3) 0.24177(4) 0.010360(13)
Cu3 Cu 0.99178(3) 0.42490(4) 0.156307(13)
Cu4 Cu 0.57510(4) 0.56688(3) 0.156307(13)
Cu7 Cu 0.32511(3) 0.23355(3) 0.322974(13)
Cu8 Cu 0.76645(3) 0.09157(4) 0.322974(13)
Cu9 Cu 0.90843(4) 0.67489(3) 0.322974(13)
Cu13 Cu 0.75823(4) 0.65845(3) 0.010360(13)
Cu14 Cu 0.34155(3) 0.09979(3) 0.010360(13)
Cl4 Cl 0.88901(7) 0.25628(9) 0.24129(3)
Cl5 Cl 0.74372(9) 0.63273(6) 0.24129(3)
Cl9 Cl 0.66751(6) 0.23531(8) 0.30080(3)
Cl10 Cl 0.76469(8) 0.43220(6) 0.30080(3)
Cl14 Cl 0.76934(7) 0.38859(10) 0.19077(3)
Cl15 Cl 0.61141(10) 0.38075(7) 0.19077(3)
N2 N 0.8169(2) 0.2211(3) 0.03663(9)
N3 N 0.9292(2) 0.4456(3) 0.13004(9)
N4 N 0.7789(3) 0.5959(2) 0.03663(9)
N5 N 0.5544(3) 0.4836(2) 0.13004(9)
N6 N 0.4041(2) 0.1831(2) 0.03663(9)
O7 O 0.92242(18) 0.38753(25) 0.19079(8)
O8 O 0.61247(25) 0.53489(18) 0.19079(8)
O13 O 0.8422(2) 0.2944(4) 0.16517(10)
O14 O 0.7056(4) 0.5478(3) 0.16517(10)
O18 O 0.74578(17) 0.14557(24) 0.29281(8)
O19 O 0.85443(24) 0.60021(17) 0.29281(8)
O23 O 0.92089(17) 0.18776(24) 0.04052(8)
O25 O 0.52110(24) 0.58755(17) 0.12614(8)
O28 O 0.82898(19) 0.23928(28) 0.31697(8)
O29 O 0.76072(28) 0.5897(2) 0.31697(8)
O35 O 0.5812(4) 0.6354(3) 0.18788(10)
H16 H 0.586(7) 0.626(5) 0.2075(10)
H21 H 0.5670(53) 0.664(5) 0.187(3)
C17 C 0.8649(3) 0.3338(4) 0.18849(12)
C18 C 0.6662(4) 0.5311(3) 0.18849(12)
C22 C 0.7852(2) 0.2095(3) 0.29553(11)
C23 C 0.7905(3) 0.5757(2) 0.29553(11)
C28 C 0.8193(2) 0.3160(3) 0.21843(11)
C29 C 0.6840(3) 0.5033(2) 0.21843(11)
C33 C 0.8239(2) 0.2765(3) 0.24310(11)
C34 C 0.7235(3) 0.5474(2) 0.24310(11)
C38 C 0.7783(2) 0.2528(3) 0.26879(10)
C39 C 0.7472(3) 0.5255(2) 0.26879(10)
C43 C 0.7259(2) 0.2694(3) 0.26924(10)
C44 C 0.7306(3) 0.4565(2) 0.26924(10)
C48 C 0.7208(2) 0.3126(3) 0.24615(11)
C49 C 0.6874(3) 0.4082(2) 0.24615(11)
C53 C 0.7693(2) 0.3352(3) 0.22120(11)
C54 C 0.6648(3) 0.4341(2) 0.22120(11)
C58 C 0.8206(3) 0.2420(4) 0.06718(12)
C59 C 0.9120(3) 0.4247(4) 0.09949(12)
C60 C 0.7580(4) 0.5787(3) 0.06718(12)
C61 C 0.5753(4) 0.4873(3) 0.09949(12)
C62 C 0.4213(3) 0.1794(3) 0.06718(12)
H25 H 0.8641 0.2719 0.0761
H26 H 0.9256 0.3948 0.0906
H27 H 0.7281 0.5923 0.0761
H28 H 0.6052 0.5308 0.0906
H29 H 0.4077 0.1359 0.0761
C63 C 0.7629(3) 0.2214(4) 0.08637(12)
C64 C 0.8749(3) 0.4453(4) 0.08030(12)
C65 C 0.7786(4) 0.5416(3) 0.08637(12)
C66 C 0.5547(4) 0.4296(3) 0.08030(12)
C67 C 0.4584(3) 0.2371(3) 0.08637(12)
H30 H 0.7670 0.2374 0.1078
H31 H 0.8630 0.4293 0.0589
H32 H 0.7626 0.5297 0.1078
H33 H 0.5707 0.4337 0.0589
H34 H 0.4703 0.2330 0.1078
C68 C 0.6984(3) 0.1761(4) 0.07313(12)
C69 C 0.8557(3) 0.4906(4) 0.09354(12)
C70 C 0.8239(4) 0.5224(3) 0.07313(12)
C71 C 0.5094(4) 0.3651(3) 0.09354(12)
C72 C 0.4776(3) 0.3016(3) 0.07313(12)
C73 C 0.6953(3) 0.1570(4) 0.04127(12)
C74 C 0.8717(3) 0.5097(4) 0.12540(12)
C75 C 0.8430(4) 0.5384(3) 0.04127(12)
C76 C 0.4903(4) 0.3620(3) 0.12540(12)
C77 C 0.4616(3) 0.3047(3) 0.04127(12)
H35 H 0.6526 0.1282 0.0314
H36 H 0.8578 0.5385 0.1353
H37 H 0.8718 0.5245 0.0314
H38 H 0.4615 0.3193 0.1353
H39 H 0.4755 0.3474 0.0314
C78 C 0.7555(3) 0.1803(4) 0.02391(12)
C79 C 0.9086(3) 0.4864(4) 0.14276(12)
C80 C 0.8197(4) 0.5753(3) 0.02391(12)
C81 C 0.5136(4) 0.4222(3) 0.14276(12)
C82 C 0.4247(3) 0.2445(3) 0.02391(12)
H40 H 0.7528 0.1666 0.0022
H41 H 0.9196 0.5001 0.1645
H42 H 0.8334 0.5863 0.0022
H43 H 0.4999 0.4195 0.1645
H44 H 0.4137 0.2472 0.0022
O38 O 0.9632(2) 0.3419(3) 0.03733(10)
O39 O 0.9547(2) 0.3248(3) 0.12934(10)
O40 O 0.6752(3) 0.6299(2) 0.12934(10)
H45 H 0.940(3) 0.3590(34) 0.0283(16)
H46 H 0.9147(17) 0.3077(34) 0.1384(16)
H47 H 0.6923(34) 0.607(3) 0.1384(16)
C84 C 0.9862(5) 0.2861(6) 0.1359(3)
C85 C 0.7139(6) 0.7001(4) 0.1359(3)
H51 H 0.9962 0.2895 0.1592
H52 H 0.7105 0.7067 0.1592
H57 H 0.6927 0.7231 0.1245
C89 C 0.9487(7) 0.2148(9) 0.1274(3)
C90 C 0.7852(9) 0.7339(5) 0.1274(3)
H61 H 0.9755 0.1933 0.1331
H62 H 0.8067 0.7822 0.1331
H66 H 0.9399 0.2103 0.1042
H67 H 0.7897 0.7296 0.1042
H71 H 0.9054 0.1925 0.1390
H72 H 0.8075 0.7129 0.1390
O12 O 0.86822(18) 0.27914(25) 0.97588(8)
O33 O 0.9687(3) 0.2479(4) 0.97879(10)
H14 H 0.959(5) 0.253(7) 0.9592(10)
H19 H 0.997(5) 0.2337(53) 0.980(3)
C86 C 0.6529(5) 0.0334(4) 0.9692(3)
H53 H 0.6629 0.0400 0.9925
H58 H 0.6971 0.0564 0.9578
C91 C 0.6154(7) 0.0672(5) 0.9607(3)
H63 H 0.6422 0.1155 0.9664
H68 H 0.6066 0.0629 0.9375
H73 H 0.5721 0.0462 0.9723
O5 O 0.3646(3) 0.9458(2) 0.18788(10)
H1 H 0.374(5) 0.960(5) 0.2075(10)
H2 H 0.336(5) 0.9030(17) 0.187(3)
H10 H 0.2769 0.9696 0.1245
Cl6 Cl 0.55568(7) 0.96606(6) 0.07462(3)
Cl7 Cl 0.41039(9) 0.44432(7) 0.07462(3)
Cl8 Cl 0.03394(6) 0.58961(9) 0.07462(3)
Cl11 Cl 0.33418(6) 0.76553(6) 0.13413(3)
Cl12 Cl 0.43136(8) 0.66582(6) 0.13413(3)
Cl13 Cl 0.23447(6) 0.56864(8) 0.13413(3)
Cl16 Cl 0.43601(7) 0.71408(7) 0.02410(3)
Cl17 Cl 0.27808(10) 0.56399(7) 0.02410(3)
Cl18 Cl 0.28592(7) 0.72192(10) 0.02410(3)
O9 O 0.58909(18) 0.86822(18) 0.02412(8)
O10 O 0.27914(25) 0.41091(18) 0.02412(8)
O11 O 0.13178(18) 0.72086(25) 0.02412(8)
O20 O 0.41245(17) 0.93354(17) 0.12614(8)
O30 O 0.49565(19) 0.9230(2) 0.15030(8)
O31 O 0.42739(28) 0.50435(19) 0.15030(8)
O32 O 0.0770(2) 0.57261(28) 0.15030(8)
O36 O 0.7209(2) 0.9687(3) 0.02121(10)
O37 O 0.2479(4) 0.2791(2) 0.02121(10)
H17 H 0.707(5) 0.959(5) 0.0408(10)
H18 H 0.253(7) 0.293(5) 0.0408(10)
H22 H 0.7637(17) 0.997(5) 0.020(3)
H23 H 0.2337(53) 0.2363(17) 0.020(3)
C19 C 0.5316(3) 0.8644(3) 0.02182(12)
C20 C 0.3329(4) 0.4684(3) 0.02182(12)
C21 C 0.1356(3) 0.6671(4) 0.02182(12)
C24 C 0.4519(2) 0.9090(2) 0.12886(11)
C25 C 0.4572(3) 0.5481(2) 0.12886(11)
C26 C 0.0910(2) 0.5428(3) 0.12886(11)
C27 C 0.3334 0.6666 0.0862(2)
H24 H 0.3334 0.6666 0.1102
C30 C 0.4860(2) 0.8366(2) 0.05176(11)
C31 C 0.3507(3) 0.5140(2) 0.05176(11)
C32 C 0.1634(2) 0.6493(3) 0.05176(11)
C35 C 0.4906(2) 0.8807(2) 0.07643(11)
C36 C 0.3902(3) 0.5094(2) 0.07643(11)
C37 C 0.1193(2) 0.6098(3) 0.07643(11)
C40 C 0.4450(2) 0.8588(2) 0.10212(10)
C41 C 0.4139(3) 0.5550(2) 0.10212(10)
C42 C 0.1412(2) 0.5861(3) 0.10212(10)
C45 C 0.3926(2) 0.7898(2) 0.10257(10)
C46 C 0.3973(3) 0.6074(2) 0.10257(10)
C47 C 0.2102(2) 0.6027(3) 0.10257(10)
C50 C 0.3875(2) 0.7415(2) 0.07948(11)
C51 C 0.3541(3) 0.6125(2) 0.07948(11)
C52 C 0.2585(2) 0.6459(3) 0.07948(11)
C55 C 0.4360(2) 0.7674(2) 0.05453(11)
C56 C 0.3315(3) 0.5640(2) 0.05453(11)
C57 C 0.2326(2) 0.6685(3) 0.05453(11)
Cu5 Cu 0.65845(3) 0.90021(3) 0.989640(13)
Cu6 Cu 0.24177(4) 0.34155(3) 0.989640(13)
Cu12 Cu 0.09979(3) 0.75823(4) 0.989640(13)
N7 N 0.5959(2) 0.8169(2) 0.96337(9)
N8 N 0.2211(3) 0.4041(2) 0.96337(9)
O15 O 0.5089(2) 0.8811(3) 0.99850(10)
O16 O 0.3723(4) 0.4911(2) 0.99850(10)
O17 O 0.1189(3) 0.6277(4) 0.99850(10)
O26 O 0.73312(17) 0.92089(17) 0.95948(8)
O27 O 0.18776(24) 0.26688(17) 0.95948(8)
O41 O 0.6214(2) 0.9632(2) 0.96267(10)
O42 O 0.3419(3) 0.3786(2) 0.96267(10)
H48 H 0.5814(17) 0.940(3) 0.9717(16)
H49 H 0.3590(34) 0.4186(17) 0.9717(16)
C87 C 0.3806(6) 0.3471(5) 0.9692(3)
H54 H 0.3772 0.3371 0.9925
H59 H 0.3594 0.3029 0.9578
C92 C 0.4519(9) 0.3846(7) 0.9607(3)
H64 H 0.4734 0.3578 0.9664
H69 H 0.4564 0.3934 0.9375
H74 H 0.4742 0.4279 0.9723
O36_2 O 0.0313(3) 0.7521(4) 0.02121(10)
H17_2 H 0.041(5) 0.747(7) 0.0408(10)
H22_2 H 0.003(5) 0.7663(53) 0.020(3)
N7_2 N 0.1831(2) 0.7789(3) 0.96337(9)
O26_2 O 0.07911(17) 0.81224(24) 0.95948(8)
O41_2 O 0.0368(2) 0.6581(3) 0.96267(10)
H48_2 H 0.060(3) 0.6410(34) 0.9717(16)
O23_2 O 0.81224(24) 0.73312(29) 0.04052(8)
O38_2 O 0.6581(3) 0.6214(4) 0.03733(10)
H45_2 H 0.6410(34) 0.5814(45) 0.0283(16)
C83_2 C 0.6194(6) 0.6529(7) 0.0308(3)
H50_2 H 0.6228 0.6629 0.0075
H55_2 H 0.6406 0.6971 0.0422
C88_2 C 0.5481(9) 0.6154(10) 0.0393(3)
H60_2 H 0.5266 0.6422 0.0336
H65_2 H 0.5436 0.6066 0.0625
H70_2 H 0.5258 0.5721 0.0277
O12_2 O 0.72086(25) 0.58909(31) 0.97588(8)
O33_2 O 0.7521(4) 0.7209(5) 0.97879(10)
H14_2 H 0.747(7) 0.707(9) 0.9592(10)
H19_2 H 0.7663(53) 0.7637(73) 0.980(3)
C86_2 C 0.9666(4) 0.6194(6) 0.9692(3)
H53_2 H 0.9600 0.6228 0.9925
H58_2 H 0.9436 0.6406 0.9578
C91_2 C 0.9328(5) 0.5481(9) 0.9607(3)
H63_2 H 0.8845 0.5266 0.9664
H68_2 H 0.9371 0.5436 0.9375
H73_2 H 0.9538 0.5258 0.9723
O23_3 O 0.26688(29) 0.07911(17) 0.04052(8)
O38_3 O 0.3786(4) 0.0368(2) 0.03733(10)
H45_3 H 0.4186(45) 0.060(3) 0.0283(16)
O12_3 O 0.41091(31) 0.13178(18) 0.97588(8)
O33_3 O 0.2791(5) 0.0313(3) 0.97879(10)
H14_3 H 0.293(9) 0.041(5) 0.9592(10)
H19_3 H 0.2363(73) 0.003(5) 0.980(3)
C83_3 C 0.3471(7) 0.9666(4) 0.0308(3)
H50_3 H 0.3371 0.9600 0.0075
H55_3 H 0.3029 0.9436 0.0422
C88_3 C 0.3846(10) 0.9328(5) 0.0393(3)
H60_3 H 0.3578 0.8845 0.0336
H65_3 H 0.3934 0.9371 0.0625
H70_3 H 0.4279 0.9538 0.0277
O24_2 O 0.47890(24) 0.06646(17) 0.37386(8)
O34_2 O 0.4188(4) 0.0542(2) 0.31212(10)
H15_2 H 0.414(7) 0.040(5) 0.2925(10)
H20_2 H 0.4330(53) 0.0970(17) 0.313(3)
C83_4 C 0.3806(6) 0.0334(4) 0.4692(3)
H50_4 H 0.3772 0.0400 0.4925
H55_4 H 0.3594 0.0564 0.4578
H56_2 H 0.3073 0.0304 0.3755
C88_4 C 0.4519(9) 0.0672(5) 0.4607(3)
H60_4 H 0.4734 0.1155 0.4664
H65_4 H 0.4564 0.0629 0.4375
H70_4 H 0.4742 0.0462 0.4723
Cu1_2 Cu 0.00822(3) 0.43312(3) 0.343693(13)
Cl1_2 Cl 0.11099(7) 0.36727(6) 0.25871(3)
Cl2_2 Cl 0.33249(6) 0.56780(6) 0.19920(3)
Cl3_2 Cl 0.23066(7) 0.61925(7) 0.30923(3)
N1_2 N 0.0708(2) 0.5164(2) 0.36996(9)
O1_2 O 0.07758(18) 0.46511(18) 0.30921(8)
O2_2 O 0.1578(2) 0.4522(3) 0.33483(10)
O3_2 O 0.25422(17) 0.39979(17) 0.20719(8)
O4_2 O 0.17102(19) 0.4103(2) 0.18303(8)
C1_2 C 0.1351(3) 0.4689(3) 0.31151(12)
C2_2 C 0.2148(2) 0.4243(2) 0.20447(11)
C3_2 C 0.3333 0.6667 0.2471(2)
H3_2 H 0.3333 0.6667 0.2231
C4_2 C 0.1807(2) 0.4967(2) 0.28157(11)
C5_2 C 0.1761(2) 0.4526(2) 0.25690(11)
C6_2 C 0.2217(2) 0.4745(2) 0.23121(10)
C7_2 C 0.2741(2) 0.5435(2) 0.23076(10)
C8_2 C 0.2792(2) 0.5918(2) 0.25385(11)
C9_2 C 0.2307(2) 0.5659(2) 0.27880(11)
C10_2 C 0.0880(3) 0.5127(3) 0.40051(12)
H4_2 H 0.0744 0.4692 0.4094
C11_2 C 0.1251(3) 0.5704(3) 0.41970(12)
H5_2 H 0.1370 0.5663 0.4411
C12_2 C 0.1443(3) 0.6349(3) 0.40646(12)
C13_2 C 0.1283(3) 0.6380(3) 0.37460(12)
H6_2 H 0.1422 0.6807 0.3647
C14_2 C 0.0914(3) 0.5778(3) 0.35724(12)
H7_2 H 0.0804 0.5805 0.3355
O6_2 O 0.0453(2) 0.3701(2) 0.37066(10)
H8_2 H 0.0853(17) 0.393(3) 0.3616(16)
C15_2 C 0.0138(5) 0.2999(4) 0.3641(3)
H9_2 H 0.0038 0.2933 0.3408
C16_2 C 0.0513(7) 0.2661(5) 0.3726(3)
H11_2 H 0.0245 0.2178 0.3669
H12_2 H 0.0601 0.2704 0.3958
H13_2 H 0.0946 0.2871 0.3610
Cu2_2 Cu 0.24177(4) 0.90021(3) 0.489640(13)
Cu3_2 Cu 0.42490(4) 0.99178(3) 0.343693(13)
Cu4_2 Cu 0.56688(3) 0.57510(4) 0.343693(13)
Cu7_2 Cu 0.23355(3) 0.32511(3) 0.177026(13)
Cu8_2 Cu 0.09157(4) 0.76645(3) 0.177026(13)
Cu9_2 Cu 0.67489(3) 0.90843(4) 0.177026(13)
Cu13_2 Cu 0.65845(3) 0.75823(4) 0.489640(13)
Cu14_2 Cu 0.09979(3) 0.34155(3) 0.489640(13)
Cl4_2 Cl 0.25628(9) 0.88901(7) 0.25871(3)
Cl5_2 Cl 0.63273(6) 0.74372(9) 0.25871(3)
Cl9_2 Cl 0.23531(8) 0.66751(6) 0.19920(3)
Cl10_2 Cl 0.43220(6) 0.76469(8) 0.19920(3)
Cl14_2 Cl 0.38859(10) 0.76934(7) 0.30923(3)
Cl15_2 Cl 0.38075(7) 0.61141(10) 0.30923(3)
N2_2 N 0.2211(3) 0.8169(2) 0.46337(9)
N3_2 N 0.4456(3) 0.9292(2) 0.36996(9)
N4_2 N 0.5959(2) 0.7789(3) 0.46337(9)
N5_2 N 0.4836(2) 0.5544(3) 0.36996(9)
N6_2 N 0.1831(2) 0.4041(2) 0.46337(9)
O7_2 O 0.38753(25) 0.92242(18) 0.30921(8)
O8_2 O 0.53489(18) 0.61247(25) 0.30921(8)
O12_4 O 0.27914(25) 0.86822(18) 0.52412(8)
O13_2 O 0.2944(4) 0.8422(2) 0.33483(10)
O14_2 O 0.5478(3) 0.7056(4) 0.33483(10)
O18_2 O 0.14557(24) 0.74578(17) 0.20719(8)
O19_2 O 0.60021(17) 0.85443(24) 0.20719(8)
O23_4 O 0.18776(24) 0.92089(17) 0.45948(8)
O25_2 O 0.58755(17) 0.52110(24) 0.37386(8)
O28_2 O 0.23928(28) 0.82898(19) 0.18303(8)
O29_2 O 0.5897(2) 0.76072(28) 0.18303(8)
O33_4 O 0.2479(4) 0.9687(3) 0.52121(10)
O35_2 O 0.6354(3) 0.5812(4) 0.31212(10)
H14_4 H 0.253(7) 0.959(5) 0.5408(10)
H16_2 H 0.626(5) 0.586(7) 0.2925(10)
H19_4 H 0.2337(53) 0.997(5) 0.520(3)
H21_2 H 0.664(5) 0.5670(53) 0.313(3)
C17_2 C 0.3338(4) 0.8649(3) 0.31151(12)
C18_2 C 0.5311(3) 0.6662(4) 0.31151(12)
C22_2 C 0.2095(3) 0.7852(2) 0.20447(11)
C23_2 C 0.5757(2) 0.7905(3) 0.20447(11)
C28_2 C 0.3160(3) 0.8193(2) 0.28157(11)
C29_2 C 0.5033(2) 0.6840(3) 0.28157(11)
C33_2 C 0.2765(3) 0.8239(2) 0.25690(11)
C34_2 C 0.5474(2) 0.7235(3) 0.25690(11)
C38_2 C 0.2528(3) 0.7783(2) 0.23121(10)
C39_2 C 0.5255(2) 0.7472(3) 0.23121(10)
C43_2 C 0.2694(3) 0.7259(2) 0.23076(10)
C44_2 C 0.4565(2) 0.7306(3) 0.23076(10)
C48_2 C 0.3126(3) 0.7208(2) 0.25385(11)
C49_2 C 0.4082(2) 0.6874(3) 0.25385(11)
C53_2 C 0.3352(3) 0.7693(2) 0.27880(11)
C54_2 C 0.4341(2) 0.6648(3) 0.27880(11)
C58_2 C 0.2420(4) 0.8206(3) 0.43282(12)
C59_2 C 0.4247(4) 0.9120(3) 0.40051(12)
C60_2 C 0.5787(3) 0.7580(4) 0.43282(12)
C61_2 C 0.4873(3) 0.5753(4) 0.40051(12)
C62_2 C 0.1794(3) 0.4213(3) 0.43282(12)
H25_2 H 0.2719 0.8641 0.4239
H26_2 H 0.3948 0.9256 0.4094
H27_2 H 0.5923 0.7281 0.4239
H28_2 H 0.5308 0.6052 0.4094
H29_2 H 0.1359 0.4077 0.4239
C63_2 C 0.2214(4) 0.7629(3) 0.41363(12)
C64_2 C 0.4453(4) 0.8749(3) 0.41970(12)
C65_2 C 0.5416(3) 0.7786(4) 0.41363(12)
C66_2 C 0.4296(3) 0.5547(4) 0.41970(12)
C67_2 C 0.2371(3) 0.4584(3) 0.41363(12)
H30_2 H 0.2374 0.7670 0.3922
H31_2 H 0.4293 0.8630 0.4411
H32_2 H 0.5297 0.7626 0.3922
H33_2 H 0.4337 0.5707 0.4411
H34_2 H 0.2330 0.4703 0.3922
C68_2 C 0.1761(4) 0.6984(3) 0.42687(12)
C69_2 C 0.4906(4) 0.8557(3) 0.40646(12)
C70_2 C 0.5224(3) 0.8239(4) 0.42687(12)
C71_2 C 0.3651(3) 0.5094(4) 0.40646(12)
C72_2 C 0.3016(3) 0.4776(3) 0.42687(12)
C73_2 C 0.1570(4) 0.6953(3) 0.45873(12)
C74_2 C 0.5097(4) 0.8717(3) 0.37460(12)
C75_2 C 0.5384(3) 0.8430(4) 0.45873(12)
C76_2 C 0.3620(3) 0.4903(4) 0.37460(12)
C77_2 C 0.3047(3) 0.4616(3) 0.45873(12)
H35_2 H 0.1282 0.6526 0.4686
H36_2 H 0.5385 0.8578 0.3647
H37_2 H 0.5245 0.8718 0.4686
H38_2 H 0.3193 0.4615 0.3647
H39_2 H 0.3474 0.4755 0.4686
C78_2 C 0.1803(4) 0.7555(3) 0.47609(12)
C79_2 C 0.4864(4) 0.9086(3) 0.35724(12)
C80_2 C 0.5753(3) 0.8197(4) 0.47609(12)
C81_2 C 0.4222(3) 0.5136(4) 0.35724(12)
C82_2 C 0.2445(3) 0.4247(3) 0.47609(12)
H40_2 H 0.1666 0.7528 0.4978
H41_2 H 0.5001 0.9196 0.3355
H42_2 H 0.5863 0.8334 0.4978
H43_2 H 0.4195 0.4999 0.3355
H44_2 H 0.2472 0.4137 0.4978
O38_4 O 0.3419(3) 0.9632(2) 0.46267(10)
O39_2 O 0.3248(3) 0.9547(2) 0.37066(10)
O40_2 O 0.6299(2) 0.6752(3) 0.37066(10)
H45_4 H 0.3590(34) 0.940(3) 0.4717(16)
H46_2 H 0.3077(34) 0.9147(17) 0.3616(16)
H47_2 H 0.607(3) 0.6923(34) 0.3616(16)
C84_2 C 0.2861(6) 0.9862(5) 0.3641(3)
C85_2 C 0.7001(4) 0.7139(6) 0.3641(3)
C86_3 C 0.0334(4) 0.6529(5) 0.5308(3)
H51_2 H 0.2895 0.9962 0.3408
H52_2 H 0.7067 0.7105 0.3408
H53_3 H 0.0400 0.6629 0.5075
H57_2 H 0.7231 0.6927 0.3755
H58_3 H 0.0564 0.6971 0.5422
C89_2 C 0.2148(9) 0.9487(7) 0.3726(3)
C90_2 C 0.7339(5) 0.7852(9) 0.3726(3)
C91_3 C 0.0672(5) 0.6154(7) 0.5393(3)
H61_2 H 0.1933 0.9755 0.3669
H62_2 H 0.7822 0.8067 0.3669
H63_3 H 0.1155 0.6422 0.5336
H66_2 H 0.2103 0.9399 0.3958
H67_2 H 0.7296 0.7897 0.3958
H68_3 H 0.0629 0.6066 0.5625
H71_2 H 0.1925 0.9054 0.3610
H72_2 H 0.7129 0.8075 0.3610
H73_3 H 0.0462 0.5721 0.5277
O5_2 O 0.9458(2) 0.3646(3) 0.31212(10)
H1_2 H 0.960(5) 0.374(5) 0.2925(10)
H2_2 H 0.9030(17) 0.336(5) 0.313(3)
H10_2 H 0.9696 0.2769 0.3755
Cu5_2 Cu 0.90021(3) 0.65845(3) 0.510360(13)
Cu6_2 Cu 0.34155(3) 0.24177(4) 0.510360(13)
Cu12_2 Cu 0.75823(4) 0.09979(3) 0.510360(13)
Cl6_2 Cl 0.96606(6) 0.55568(7) 0.42538(3)
Cl7_2 Cl 0.44432(7) 0.41039(9) 0.42538(3)
Cl8_2 Cl 0.58961(9) 0.03394(6) 0.42538(3)
Cl11_2 Cl 0.76553(6) 0.33418(6) 0.36587(3)
Cl12_2 Cl 0.66582(6) 0.43136(8) 0.36587(3)
Cl13_2 Cl 0.56864(8) 0.23447(6) 0.36587(3)
Cl16_2 Cl 0.71408(7) 0.43601(7) 0.47590(3)
Cl17_2 Cl 0.56399(7) 0.27808(10) 0.47590(3)
Cl18_2 Cl 0.72192(10) 0.28592(7) 0.47590(3)
N7_3 N 0.8169(2) 0.5959(2) 0.53663(9)
N8_2 N 0.4041(2) 0.2211(3) 0.53663(9)
O9_2 O 0.86822(18) 0.58909(18) 0.47588(8)
O10_2 O 0.41091(18) 0.27914(25) 0.47588(8)
O11_2 O 0.72086(25) 0.13178(18) 0.47588(8)
O15_2 O 0.8811(3) 0.5089(2) 0.50150(10)
O16_2 O 0.4911(2) 0.3723(4) 0.50150(10)
O17_2 O 0.6277(4) 0.1189(3) 0.50150(10)
O20_2 O 0.93354(17) 0.41245(17) 0.37386(8)
O26_3 O 0.92089(17) 0.73312(17) 0.54052(8)
O27_2 O 0.26688(17) 0.18776(24) 0.54052(8)
O30_2 O 0.9230(2) 0.49565(19) 0.34970(8)
O31_2 O 0.50435(19) 0.42739(28) 0.34970(8)
O32_2 O 0.57261(28) 0.0770(2) 0.34970(8)
O36_3 O 0.9687(3) 0.7209(2) 0.47879(10)
O37_2 O 0.2791(2) 0.2479(4) 0.47879(10)
H17_3 H 0.959(5) 0.707(5) 0.4592(10)
H18_2 H 0.293(5) 0.253(7) 0.4592(10)
H22_3 H 0.997(5) 0.7637(17) 0.480(3)
H23_2 H 0.2363(17) 0.2337(53) 0.480(3)
C19_2 C 0.8644(3) 0.5316(3) 0.47818(12)
C20_2 C 0.4684(3) 0.3329(4) 0.47818(12)
C21_2 C 0.6671(4) 0.1356(3) 0.47818(12)
C24_2 C 0.9090(2) 0.4519(2) 0.37114(11)
C25_2 C 0.5481(2) 0.4572(3) 0.37114(11)
C26_2 C 0.5428(3) 0.0910(2) 0.37114(11)
C27_2 C 0.6666 0.3334 0.4138(2)
H24_2 H 0.6666 0.3334 0.3898
C30_2 C 0.8366(2) 0.4860(2) 0.44824(11)
C31_2 C 0.5140(2) 0.3507(3) 0.44824(11)
C32_2 C 0.6493(3) 0.1634(2) 0.44824(11)
C35_2 C 0.8807(2) 0.4906(2) 0.42357(11)
C36_2 C 0.5094(2) 0.3902(3) 0.42357(11)
C37_2 C 0.6098(3) 0.1193(2) 0.42357(11)
C40_2 C 0.8588(2) 0.4450(2) 0.39788(10)
C41_2 C 0.5550(2) 0.4139(3) 0.39788(10)
C42_2 C 0.5861(3) 0.1412(2) 0.39788(10)
C45_2 C 0.7898(2) 0.3926(2) 0.39743(10)
C46_2 C 0.6074(2) 0.3973(3) 0.39743(10)
C47_2 C 0.6027(3) 0.2102(2) 0.39743(10)
C50_2 C 0.7415(2) 0.3875(2) 0.42052(11)
C51_2 C 0.6125(2) 0.3541(3) 0.42052(11)
C52_2 C 0.6459(3) 0.2585(2) 0.42052(11)
C55_2 C 0.7674(2) 0.4360(2) 0.44547(11)
C56_2 C 0.5640(2) 0.3315(3) 0.44547(11)
C57_2 C 0.6685(3) 0.2326(2) 0.44547(11)
O41_3 O 0.9632(2) 0.6214(2) 0.53733(10)
O42_2 O 0.3786(2) 0.3419(3) 0.53733(10)
H48_3 H 0.940(3) 0.5814(17) 0.5283(16)
H49_2 H 0.4186(17) 0.3590(34) 0.5283(16)
C87_2 C 0.3471(5) 0.3806(6) 0.5308(3)
H54_2 H 0.3371 0.3772 0.5075
H59_2 H 0.3029 0.3594 0.5422
C92_2 C 0.3846(7) 0.4519(9) 0.5393(3)
H64_2 H 0.3578 0.4734 0.5336
H69_2 H 0.3934 0.4564 0.5625
H74_2 H 0.4279 0.4742 0.5277
Cu9_3 Cu 0.57510(4) 0.00822(3) 0.656307(13)
Cl1_3 Cl 0.03394(6) 0.44432(7) 0.57462(3)
Cl2_3 Cl 0.23447(6) 0.66582(6) 0.63413(3)
Cl3_3 Cl 0.28592(7) 0.56399(7) 0.52410(3)
O1_3 O 0.13178(18) 0.41091(18) 0.52412(8)
O2_3 O 0.1189(3) 0.4911(2) 0.49850(10)
O3_3 O 0.06646(17) 0.58755(17) 0.62614(8)
O4_3 O 0.0770(2) 0.50435(19) 0.65030(8)
O5_3 O 0.0313(3) 0.2791(2) 0.52121(10)
H1_3 H 0.041(5) 0.293(5) 0.5408(10)
H2_3 H 0.003(5) 0.2363(17) 0.520(3)
C1_3 C 0.1356(3) 0.4684(3) 0.52182(12)
C2_3 C 0.0910(2) 0.5481(2) 0.62886(11)
C3_3 C 0.3334 0.6666 0.5862(2)
H3_3 H 0.3334 0.6666 0.6102
C4_3 C 0.1634(2) 0.5140(2) 0.55176(11)
C5_3 C 0.1193(2) 0.5094(2) 0.57643(11)
C6_3 C 0.1412(2) 0.5550(2) 0.60212(10)
C7_3 C 0.2102(2) 0.6074(2) 0.60257(10)
C8_3 C 0.2585(2) 0.6125(2) 0.57948(11)
C9_3 C 0.2326(2) 0.5640(2) 0.55453(11)
O6_3 O 0.0368(2) 0.3786(2) 0.46267(10)
H8_3 H 0.060(3) 0.4186(17) 0.4717(16)
Cu8_3 Cu 0.43312(3) 0.42490(4) 0.656307(13)
Cl4_3 Cl 0.55568(7) 0.58961(9) 0.57462(3)
Cl5_3 Cl 0.41039(9) 0.96606(6) 0.57462(3)
Cl6_3 Cl 0.22234(7) 0.29940(6) 0.40796(3)
Cl9_3 Cl 0.33418(6) 0.56864(8) 0.63413(3)
Cl10_3 Cl 0.43136(8) 0.76553(6) 0.63413(3)
Cl11_3 Cl 0.00084(6) 0.09887(6) 0.46747(3)
Cl14_3 Cl 0.43601(7) 0.72192(10) 0.52410(3)
Cl15_3 Cl 0.27808(10) 0.71408(7) 0.52410(3)
Cl16_3 Cl 0.10267(7) 0.04742(7) 0.35744(3)
N7_4 N 0.2625(2) 0.1503(2) 0.29671(9)
O7_3 O 0.58909(18) 0.72086(25) 0.52412(8)
O9_3 O 0.25575(18) 0.20156(18) 0.35746(8)
O13_3 O 0.5089(2) 0.6277(4) 0.49850(10)
O14_3 O 0.3723(4) 0.8811(3) 0.49850(10)
O15_3 O 0.1755(2) 0.2145(3) 0.33184(10)
O18_3 O 0.41245(17) 0.47890(24) 0.62614(8)
O19_3 O 0.52110(24) 0.93354(17) 0.62614(8)
O20_3 O 0.07911(17) 0.26688(17) 0.45948(8)
O24_3 O 0.73312(17) 0.81224(24) 0.45948(8)
O28_3 O 0.49565(19) 0.57261(28) 0.65030(8)
O29_3 O 0.42739(28) 0.9230(2) 0.65030(8)
O30_3 O 0.16231(19) 0.2564(2) 0.48364(8)
O34_3 O 0.7209(2) 0.7521(4) 0.52121(10)
O36_4 O 0.3875(2) 0.3021(3) 0.35455(10)
H15_3 H 0.707(5) 0.747(7) 0.5408(10)
H17_4 H 0.373(5) 0.293(5) 0.3742(10)
H20_3 H 0.7637(17) 0.7663(53) 0.520(3)
H22_4 H 0.4303(17) 0.331(5) 0.354(3)
C17_3 C 0.5316(3) 0.6671(4) 0.52182(12)
C18_3 C 0.3329(4) 0.8644(3) 0.52182(12)
C19_3 C 0.1982(3) 0.1978(3) 0.35516(12)
C22_3 C 0.4519(2) 0.5428(3) 0.62886(11)
C23_3 C 0.4572(3) 0.9090(2) 0.62886(11)
C24_3 C 0.1185(2) 0.2424(2) 0.46220(11)
C27_3 C 0.0000 -0.0000 0.4196(2)
H24_3 H 0.0000 -0.0000 0.4436
C28_3 C 0.4860(2) 0.6493(3) 0.55176(11)
C29_3 C 0.3507(3) 0.8366(2) 0.55176(11)
C30_3 C 0.1526(2) 0.1700(2) 0.38510(11)
C33_3 C 0.4906(2) 0.6098(3) 0.57643(11)
C34_3 C 0.3902(3) 0.8807(2) 0.57643(11)
C35_3 C 0.1572(2) 0.2141(2) 0.40977(11)
C38_3 C 0.4450(2) 0.5861(3) 0.60212(10)
C39_3 C 0.4139(3) 0.8588(2) 0.60212(10)
C40_3 C 0.1116(2) 0.1922(2) 0.43546(10)
C43_3 C 0.3926(2) 0.6027(3) 0.60257(10)
C44_3 C 0.3973(3) 0.7898(2) 0.60257(10)
C45_3 C 0.0592(2) 0.1232(2) 0.43591(10)
C48_3 C 0.3875(2) 0.6459(3) 0.57948(11)
C49_3 C 0.3541(3) 0.7415(2) 0.57948(11)
C50_3 C 0.0541(2) 0.0749(2) 0.41282(11)
C53_3 C 0.4360(2) 0.6685(3) 0.55453(11)
C54_3 C 0.3315(3) 0.7674(2) 0.55453(11)
C55_3 C 0.1026(2) 0.1008(2) 0.38787(11)
O39_3 O 0.6214(2) 0.6581(3) 0.46267(10)
O41_4 O 0.2880(2) 0.2966(2) 0.29601(10)
H46_3 H 0.5814(17) 0.6410(34) 0.4717(16)
H48_4 H 0.2480(17) 0.274(3) 0.3051(16)
C84_3 C 0.6529(5) 0.6194(6) 0.4692(3)
C86_4 C 0.3195(5) 0.3668(4) 0.3026(3)
H51_3 H 0.6629 0.6228 0.4925
H53_4 H 0.3295 0.3734 0.3259
H56_3 H 0.6971 0.6406 0.4578
H58_4 H 0.3637 0.3898 0.2912
C89_3 C 0.6154(7) 0.5481(9) 0.4607(3)
C91_4 C 0.2820(7) 0.4006(5) 0.2941(3)
H61_3 H 0.6422 0.5266 0.4664
H63_4 H 0.3088 0.4489 0.2998
H66_3 H 0.6066 0.5436 0.4375
H68_4 H 0.2732 0.3963 0.2709
H71_3 H 0.5721 0.5258 0.4723
H73_4 H 0.2387 0.3796 0.3057
Cl7_3 Cl 0.07705(9) 0.77766(7) 0.40796(3)
Cl12_3 Cl 0.09802(8) 0.99916(6) 0.46747(3)
O16_3 O 0.0389(4) 0.8245(2) 0.33184(10)
O31_3 O 0.09405(28) 0.83769(19) 0.48364(8)
C25_3 C 0.1238(3) 0.8815(2) 0.46220(11)
C27_4 C 0.0000 1.0000 0.4196(2)
H24_4 H 0.0000 1.0000 0.4436
C31_3 C 0.0173(3) 0.8474(2) 0.38510(11)
C36_3 C 0.0568(3) 0.8428(2) 0.40977(11)
C41_3 C 0.0805(3) 0.8884(2) 0.43546(10)
C46_3 C 0.0639(3) 0.9408(2) 0.43591(10)
C51_3 C 0.0207(3) 0.9459(2) 0.41282(11)
O42_3 O 0.0085(3) 0.7120(2) 0.29601(10)
H49_3 H 0.0256(34) 0.7520(17) 0.3051(16)
C87_3 C 0.0472(6) 0.6805(5) 0.3026(3)
H54_3 H 0.0438 0.6705 0.3259
H59_3 H 0.0260 0.6363 0.2912
C92_3 C 0.1185(9) 0.7180(7) 0.2941(3)
H64_3 H 0.1400 0.6912 0.2998
H69_3 H 0.1230 0.7268 0.2709
H74_3 H 0.1408 0.7613 0.3057
C15_3 C 0.9666(4) 0.3471(5) 0.4692(3)
H9_3 H 0.9600 0.3371 0.4925
H10_3 H 0.9436 0.3029 0.4578
C16_3 C 0.9328(5) 0.3846(7) 0.4607(3)
H11_3 H 0.8845 0.3578 0.4664
H12_3 H 0.9371 0.3934 0.4375
H13_3 H 0.9538 0.4279 0.4723
Cu7_3 Cu 0.99178(3) 0.56688(3) 0.656307(13)
Cl18_3 Cl 0.95258(7) 0.05526(10) 0.35744(3)
O11_3 O 0.79844(18) 0.05420(25) 0.35746(8)
C21_3 C 0.8022(3) 0.0005(4) 0.35516(12)
C27_5 C 1.0000 -0.0000 0.4196(2)
H24_5 H 1.0000 -0.0000 0.4436
C57_3 C 0.8992(2) 0.0019(3) 0.38787(11)
Cl8_3 Cl 0.70060(6) 0.92295(9) 0.40796(3)
Cl13_3 Cl 0.90113(6) 0.90198(8) 0.46747(3)
Cl17_3 Cl 0.94474(10) 0.89733(7) 0.35744(3)
N8_3 N 0.8877(3) 0.7375(2) 0.29671(9)
O10_3 O 0.94580(25) 0.74425(18) 0.35746(8)
O17_3 O 0.7855(3) 0.9611(4) 0.33184(10)
O32_3 O 0.7436(2) 0.90595(28) 0.48364(8)
O37_3 O 0.9145(4) 0.6125(2) 0.35455(10)
H18_3 H 0.919(7) 0.627(5) 0.3742(10)
H23_3 H 0.9003(53) 0.5697(17) 0.354(3)
C20_3 C 0.9995(4) 0.8018(3) 0.35516(12)
C26_3 C 0.7576(2) 0.8762(3) 0.46220(11)
C27_6 C 1.0000 1.0000 0.4196(2)
H24_6 H 1.0000 1.0000 0.4436
C32_3 C 0.8300(2) 0.9827(3) 0.38510(11)
C37_3 C 0.7859(2) 0.9432(3) 0.40977(11)
C42_3 C 0.8078(2) 0.9195(3) 0.43546(10)
C47_3 C 0.8768(2) 0.9361(3) 0.43591(10)
C52_3 C 0.9251(2) 0.9793(3) 0.41282(11)
C56_3 C 0.9981(3) 0.8974(2) 0.38787(11)
N7_5 N 0.8497(2) 0.1123(3) 0.29671(9)
O36_5 O 0.6979(3) 0.0855(4) 0.35455(10)
H17_5 H 0.707(5) 0.081(7) 0.3742(10)
H22_5 H 0.669(5) 0.0997(53) 0.354(3)
O41_5 O 0.7034(2) 0.9915(3) 0.29601(10)
H48_5 H 0.726(3) 0.9744(34) 0.3051(16)
C86_5 C 0.6332(4) 0.9528(6) 0.3026(3)
H53_5 H 0.6266 0.9562 0.3259
H58_5 H 0.6102 0.9740 0.2912
C91_5 C 0.5994(5) 0.8815(9) 0.2941(3)
H63_5 H 0.5511 0.8600 0.2998
H68_5 H 0.6037 0.8770 0.2709
H73_5 H 0.6204 0.8592 0.3057
C3_4 C -0.0000 0.0000 0.5804(2)
H3_4 H -0.0000 0.0000 0.5564
Cu3_3 Cu 0.09157(4) 0.32511(3) 0.677026(13)
Cu13_3 Cu 0.32511(3) 0.09157(4) 0.822974(13)
Cl5_4 Cl 0.29940(6) 0.07705(9) 0.59204(3)
Cl10_4 Cl 0.09887(6) 0.09802(8) 0.53253(3)
Cl14_4 Cl 0.05526(10) 0.10267(7) 0.64256(3)
N3_3 N 0.1123(3) 0.2625(2) 0.70329(9)
N4_3 N 0.2625(2) 0.1123(3) 0.79671(9)
O7_4 O 0.05420(25) 0.25575(18) 0.64254(8)
O14_4 O 0.2145(3) 0.0389(4) 0.66816(10)
O24_4 O 0.14557(24) 0.39979(17) 0.70719(8)
O29_4 O 0.2564(2) 0.09405(28) 0.51636(8)
O34_4 O 0.0855(4) 0.3875(2) 0.64545(10)
H15_4 H 0.081(7) 0.373(5) 0.6258(10)
H20_4 H 0.0997(53) 0.4303(17) 0.646(3)
C17_4 C 0.0005(4) 0.1982(3) 0.64484(12)
C23_4 C 0.2424(2) 0.1238(3) 0.53780(11)
C29_4 C 0.1700(2) 0.0173(3) 0.61490(11)
C34_4 C 0.2141(2) 0.0568(3) 0.59023(11)
C39_4 C 0.1922(2) 0.0805(3) 0.56454(10)
C44_4 C 0.1232(2) 0.0639(3) 0.56409(10)
C49_4 C 0.0749(2) 0.0207(3) 0.58718(11)
C53_4 C 0.0019(3) 0.1026(2) 0.61213(11)
C59_3 C 0.0914(4) 0.2453(3) 0.73384(12)
C60_3 C 0.2453(3) 0.0914(4) 0.76616(12)
H26_3 H 0.0615 0.2589 0.7427
H27_3 H 0.2589 0.0615 0.7573
C64_3 C 0.1120(4) 0.2082(3) 0.75303(12)
C65_3 C 0.2082(3) 0.1120(4) 0.74697(12)
H31_3 H 0.0960 0.1963 0.7744
H32_3 H 0.1963 0.0960 0.7256
C69_3 C 0.1573(4) 0.1890(3) 0.73979(12)
C70_3 C 0.1890(3) 0.1573(4) 0.76021(12)
C74_3 C 0.1764(4) 0.2050(3) 0.70793(12)
C75_3 C 0.2050(3) 0.1764(4) 0.79207(12)
H36_3 H 0.2052 0.1911 0.6980
H37_3 H 0.1911 0.2052 0.8020
C79_3 C 0.1531(4) 0.2419(3) 0.69057(12)
C80_3 C 0.2419(3) 0.1531(4) 0.80943(12)
H41_3 H 0.1668 0.2529 0.6688
H42_3 H 0.2529 0.1668 0.8312
O38_5 O 0.0085(3) 0.2966(2) 0.79601(10)
O40_3 O 0.2966(2) 0.0085(3) 0.70399(10)
H45_5 H 0.0256(34) 0.274(3) 0.8051(16)
H47_3 H 0.274(3) 0.0256(34) 0.6949(16)
C83_5 C 0.0472(6) 0.3668(4) 0.8026(3)
C85_3 C 0.3668(4) 0.0472(6) 0.6974(3)
H50_5 H 0.0438 0.3734 0.8259
H52_3 H 0.3734 0.0438 0.6741
H55_5 H 0.0260 0.3898 0.7912
H57_3 H 0.3898 0.0260 0.7088
C88_5 C 0.1185(9) 0.4006(5) 0.7941(3)
C90_3 C 0.4006(5) 0.1185(9) 0.7059(3)
H60_5 H 0.1400 0.4489 0.7998
H62_3 H 0.4489 0.1400 0.7002
H65_5 H 0.1230 0.3963 0.7709
H67_3 H 0.3963 0.1230 0.7291
H70_5 H 0.1408 0.3796 0.8057
H72_3 H 0.3796 0.1408 0.6943
C3_5 C -0.0000 1.0000 0.5804(2)
H3_5 H -0.0000 1.0000 0.5564
Cu4_3 Cu 0.23355(3) 0.90843(4) 0.677026(13)
Cl15_4 Cl 0.04742(7) 0.94474(10) 0.64256(3)
N5_3 N 0.1503(2) 0.8877(3) 0.70329(9)
O8_3 O 0.20156(18) 0.94580(25) 0.64254(8)
O25_3 O 0.25422(17) 0.85443(24) 0.70719(8)
O35_3 O 0.3021(3) 0.9145(4) 0.64545(10)
H16_3 H 0.293(5) 0.919(7) 0.6258(10)
H21_3 H 0.331(5) 0.9003(53) 0.646(3)
C18_4 C 0.1978(3) 0.9995(4) 0.64484(12)
C54_4 C 0.1008(2) 0.9981(3) 0.61213(11)
C61_3 C 0.1540(3) 0.9086(4) 0.73384(12)
H28_3 H 0.1975 0.9385 0.7427
C66_3 C 0.0963(3) 0.8880(4) 0.75303(12)
H33_3 H 0.1004 0.9040 0.7744
C71_3 C 0.0318(3) 0.8427(4) 0.73979(12)
C76_3 C 0.0287(3) 0.8236(4) 0.70793(12)
H39_3 H 0.0140 0.8089 0.8020
C81_3 C 0.0889(3) 0.8469(4) 0.69057(12)
H43_3 H 0.0862 0.8332 0.6688
C3_6 C 1.0000 0.0000 0.5804(2)
H3_6 H 1.0000 0.0000 0.5564
H6_3 H 0.8089 0.0140 0.6980
Cu2_3 Cu 0.90843(4) 0.23355(3) 0.822974(13)
Cl4_4 Cl 0.92295(9) 0.22234(7) 0.59204(3)
Cl9_4 Cl 0.90198(8) 0.00084(6) 0.53253(3)
N2_3 N 0.8877(3) 0.1503(2) 0.79671(9)
O12_5 O 0.94580(25) 0.20156(18) 0.85746(8)
O13_4 O 0.9611(4) 0.1755(2) 0.66816(10)
O18_4 O 0.81224(24) 0.07911(17) 0.54052(8)
O23_5 O 0.85443(24) 0.25422(17) 0.79281(8)
O26_4 O 0.58755(17) 0.06646(17) 0.87386(8)
O28_4 O 0.90595(28) 0.16231(19) 0.51636(8)
O33_5 O 0.9145(4) 0.3021(3) 0.85455(10)
O36_6 O 0.6354(3) 0.0542(2) 0.81212(10)
H14_5 H 0.919(7) 0.293(5) 0.8742(10)
H17_6 H 0.626(5) 0.040(5) 0.7925(10)
H19_5 H 0.9003(53) 0.331(5) 0.854(3)
H22_6 H 0.664(5) 0.0970(17) 0.813(3)
C22_4 C 0.8762(3) 0.1185(2) 0.53780(11)
C28_4 C 0.9827(3) 0.1526(2) 0.61490(11)
C33_4 C 0.9432(3) 0.1572(2) 0.59023(11)
C38_4 C 0.9195(3) 0.1116(2) 0.56454(10)
C43_4 C 0.9361(3) 0.0592(2) 0.56409(10)
C48_4 C 0.9793(3) 0.0541(2) 0.58718(11)
C58_3 C 0.9086(4) 0.1540(3) 0.76616(12)
H25_3 H 0.9385 0.1975 0.7573
C63_3 C 0.8880(4) 0.0963(3) 0.74697(12)
H30_3 H 0.9040 0.1004 0.7256
C68_3 C 0.8427(4) 0.0318(3) 0.76021(12)
C73_3 C 0.8236(4) 0.0287(3) 0.79207(12)
C78_3 C 0.8469(4) 0.0889(3) 0.80943(12)
H40_3 H 0.8332 0.0862 0.8312
O39_4 O 0.9915(3) 0.2880(2) 0.70399(10)
H46_4 H 0.9744(34) 0.2480(17) 0.6949(16)
C84_4 C 0.9528(6) 0.3195(5) 0.6974(3)
H51_4 H 0.9562 0.3295 0.6741
H56_4 H 0.9740 0.3637 0.7088
H58_6 H 0.7231 0.0304 0.8755
C89_4 C 0.8815(9) 0.2820(7) 0.7059(3)
H61_4 H 0.8600 0.3088 0.7002
H66_4 H 0.8770 0.2732 0.7291
H71_4 H 0.8592 0.2387 0.6943
Cu1_3 Cu 0.67489(3) 0.76645(3) 0.677026(13)
Cl1_4 Cl 0.77766(7) 0.70060(6) 0.59204(3)
Cl2_4 Cl 0.99916(6) 0.90113(6) 0.53253(3)
Cl3_4 Cl 0.89733(7) 0.95258(7) 0.64256(3)
N1_3 N 0.7375(2) 0.8497(2) 0.70329(9)
O1_4 O 0.74425(18) 0.79844(18) 0.64254(8)
O2_4 O 0.8245(2) 0.7855(3) 0.66816(10)
O4_4 O 0.83769(19) 0.7436(2) 0.51636(8)
O5_4 O 0.6125(2) 0.6979(3) 0.64545(10)
H1_4 H 0.627(5) 0.707(5) 0.6258(10)
H2_4 H 0.5697(17) 0.669(5) 0.646(3)
C1_4 C 0.8018(3) 0.8022(3) 0.64484(12)
C2_4 C 0.8815(2) 0.7576(2) 0.53780(11)
C3_7 C 1.0000 1.0000 0.5804(2)
H3_7 H 1.0000 1.0000 0.5564
C4_4 C 0.8474(2) 0.8300(2) 0.61490(11)
C5_4 C 0.8428(2) 0.7859(2) 0.59023(11)
C6_4 C 0.8884(2) 0.8078(2) 0.56454(10)
C7_4 C 0.9408(2) 0.8768(2) 0.56409(10)
C8_4 C 0.9459(2) 0.9251(2) 0.58718(11)
C9_4 C 0.8974(2) 0.8992(2) 0.61213(11)
C10_3 C 0.7547(3) 0.8460(3) 0.73384(12)
H4_3 H 0.7411 0.8025 0.7427
C11_3 C 0.7918(3) 0.9037(3) 0.75303(12)
H5_3 H 0.8037 0.8996 0.7744
C12_3 C 0.8110(3) 0.9682(3) 0.73979(12)
C13_3 C 0.7950(3) 0.9713(3) 0.70793(12)
C14_3 C 0.7581(3) 0.9111(3) 0.69057(12)
H7_3 H 0.7471 0.9138 0.6688
O6_4 O 0.7120(2) 0.7034(2) 0.70399(10)
H8_4 H 0.7520(17) 0.726(3) 0.6949(16)
C15_4 C 0.6805(5) 0.6332(4) 0.6974(3)
H9_4 H 0.6705 0.6266 0.6741
H10_4 H 0.6363 0.6102 0.7088
C16_4 C 0.7180(7) 0.5994(5) 0.7059(3)
H11_4 H 0.6912 0.5511 0.7002
H12_4 H 0.7268 0.6037 0.7291
H13_4 H 0.7613 0.6204 0.6943
Cu5_3 Cu 0.56688(3) 0.99178(3) 0.843693(13)
Cu6_3 Cu 0.00822(3) 0.57510(4) 0.843693(13)
Cu12_3 Cu 0.42490(4) 0.43312(3) 0.843693(13)
Cu14_3 Cu 0.76645(3) 0.67489(3) 0.822974(13)
Cl6_4 Cl 0.63273(6) 0.88901(7) 0.75871(3)
Cl7_4 Cl 0.11099(7) 0.74372(9) 0.75871(3)
Cl8_4 Cl 0.25628(9) 0.36727(6) 0.75871(3)
Cl11_4 Cl 0.43220(6) 0.66751(6) 0.69920(3)
Cl12_4 Cl 0.33249(6) 0.76469(8) 0.69920(3)
Cl13_4 Cl 0.23531(8) 0.56780(6) 0.69920(3)
Cl16_4 Cl 0.38075(7) 0.76934(7) 0.80923(3)
Cl17_4 Cl 0.23066(7) 0.61141(10) 0.80923(3)
Cl18_4 Cl 0.38859(10) 0.61925(7) 0.80923(3)
N6_3 N 0.8497(2) 0.7375(2) 0.79671(9)
N7_6 N 0.4836(2) 0.9292(2) 0.86996(9)
N8_4 N 0.0708(2) 0.5544(3) 0.86996(9)
O9_4 O 0.53489(18) 0.92242(18) 0.80921(8)
O10_4 O 0.07758(18) 0.61247(25) 0.80921(8)
O11_4 O 0.38753(25) 0.46511(18) 0.80921(8)
O15_4 O 0.5478(3) 0.8422(2) 0.83483(10)
O16_4 O 0.1578(2) 0.7056(4) 0.83483(10)
O17_4 O 0.2944(4) 0.4522(3) 0.83483(10)
O20_4 O 0.60021(17) 0.74578(17) 0.70719(8)
O30_4 O 0.5897(2) 0.82898(19) 0.68303(8)
O31_4 O 0.17102(19) 0.76072(28) 0.68303(8)
O32_4 O 0.23928(28) 0.4103(2) 0.68303(8)
C19_4 C 0.5311(3) 0.8649(3) 0.81151(12)
C20_4 C 0.1351(3) 0.6662(4) 0.81151(12)
C21_4 C 0.3338(4) 0.4689(3) 0.81151(12)
C24_4 C 0.5757(2) 0.7852(2) 0.70447(11)
C25_4 C 0.2148(2) 0.7905(3) 0.70447(11)
C26_4 C 0.2095(3) 0.4243(2) 0.70447(11)
C27_7 C 0.3333 0.6667 0.7471(2)
H24_7 H 0.3333 0.6667 0.7231
C30_4 C 0.5033(2) 0.8193(2) 0.78157(11)
C31_4 C 0.1807(2) 0.6840(3) 0.78157(11)
C32_4 C 0.3160(3) 0.4967(2) 0.78157(11)
C35_4 C 0.5474(2) 0.8239(2) 0.75690(11)
C36_4 C 0.1761(2) 0.7235(3) 0.75690(11)
C37_4 C 0.2765(3) 0.4526(2) 0.75690(11)
C40_4 C 0.5255(2) 0.7783(2) 0.73121(10)
C41_4 C 0.2217(2) 0.7472(3) 0.73121(10)
C42_4 C 0.2528(3) 0.4745(2) 0.73121(10)
C45_4 C 0.4565(2) 0.7259(2) 0.73076(10)
C46_4 C 0.2741(2) 0.7306(3) 0.73076(10)
C47_4 C 0.2694(3) 0.5435(2) 0.73076(10)
C50_4 C 0.4082(2) 0.7208(2) 0.75385(11)
C51_4 C 0.2792(2) 0.6874(3) 0.75385(11)
C52_4 C 0.3126(3) 0.5918(2) 0.75385(11)
C55_4 C 0.4341(2) 0.7693(2) 0.77880(11)
C56_4 C 0.2307(2) 0.6648(3) 0.77880(11)
C57_4 C 0.3352(3) 0.5659(2) 0.77880(11)
C62_3 C 0.8460(3) 0.7547(3) 0.76616(12)
H29_3 H 0.8025 0.7411 0.7573
C67_3 C 0.9037(3) 0.7918(3) 0.74697(12)
H34_3 H 0.8996 0.8037 0.7256
C72_3 C 0.9682(3) 0.8110(3) 0.76021(12)
C77_3 C 0.9713(3) 0.7950(3) 0.79207(12)
H35_3 H 0.7948 0.9860 0.8020
H38_3 H 0.9860 0.7948 0.6980
C82_3 C 0.9111(3) 0.7581(3) 0.80943(12)
H44_3 H 0.9138 0.7471 0.8312
O41_6 O 0.6299(2) 0.9547(2) 0.87066(10)
O42_4 O 0.0453(2) 0.6752(3) 0.87066(10)
H48_6 H 0.607(3) 0.9147(17) 0.8616(16)
H49_4 H 0.0853(17) 0.6923(34) 0.8616(16)
C86_6 C 0.7001(4) 0.9862(5) 0.8641(3)
C87_4 C 0.0138(5) 0.7139(6) 0.8641(3)
H53_6 H 0.7067 0.9962 0.8408
H54_4 H 0.0038 0.7105 0.8408
C91_6 C 0.7339(5) 0.9487(7) 0.8726(3)
C92_4 C 0.0513(7) 0.7852(9) 0.8726(3)
H63_6 H 0.7822 0.9755 0.8669
H64_4 H 0.0245 0.8067 0.8669
H68_6 H 0.7296 0.9399 0.8958
H69_4 H 0.0601 0.7897 0.8958
H73_6 H 0.7129 0.9054 0.8610
H74_4 H 0.0946 0.8075 0.8610
O27_3 O 0.93354(17) 0.52110(24) 0.87386(8)
O37_4 O 0.9458(2) 0.5812(4) 0.81212(10)
H18_4 H 0.960(5) 0.586(7) 0.7925(10)
H23_4 H 0.9030(17) 0.5670(53) 0.813(3)
H59_4 H 0.9696 0.6927 0.8755
C3_8 C 0.0000 -0.0000 0.9196(2)
H3_8 H 0.0000 -0.0000 0.9436
Cl5_5 Cl 0.07705(9) 0.29940(6) 0.90796(3)
Cl10_5 Cl 0.09802(8) 0.09887(6) 0.96747(3)
Cl14_5 Cl 0.10267(7) 0.05526(10) 0.85744(3)
O7_5 O 0.25575(18) 0.05420(25) 0.85746(8)
O14_5 O 0.0389(4) 0.2145(3) 0.83184(10)
O24_5 O 0.39979(17) 0.14557(24) 0.79281(8)
O29_5 O 0.09405(28) 0.2564(2) 0.98364(8)
O34_5 O 0.3875(2) 0.0855(4) 0.85455(10)
H15_5 H 0.373(5) 0.081(7) 0.8742(10)
H20_5 H 0.4303(17) 0.0997(53) 0.854(3)
C17_5 C 0.1982(3) 0.0005(4) 0.85516(12)
C23_5 C 0.1238(3) 0.2424(2) 0.96220(11)
C29_5 C 0.0173(3) 0.1700(2) 0.88510(11)
C34_5 C 0.0568(3) 0.2141(2) 0.90977(11)
C39_5 C 0.0805(3) 0.1922(2) 0.93546(10)
C44_5 C 0.0639(3) 0.1232(2) 0.93591(10)
C49_5 C 0.0207(3) 0.0749(2) 0.91282(11)
C53_5 C 0.1026(2) 0.0019(3) 0.88787(11)
C3_9 C 0.0000 1.0000 0.9196(2)
H3_9 H 0.0000 1.0000 0.9436
Cl4_5 Cl 0.22234(7) 0.92295(9) 0.90796(3)
Cl9_5 Cl 0.00084(6) 0.90198(8) 0.96747(3)
O13_5 O 0.1755(2) 0.9611(4) 0.83184(10)
O28_5 O 0.16231(19) 0.90595(28) 0.98364(8)
O36_7 O 0.0542(2) 0.6354(3) 0.68788(10)
H17_7 H 0.040(5) 0.626(5) 0.7075(10)
H22_7 H 0.0970(17) 0.664(5) 0.687(3)
C22_5 C 0.1185(2) 0.8762(3) 0.96220(11)
C28_5 C 0.1526(2) 0.9827(3) 0.88510(11)
C33_5 C 0.1572(2) 0.9432(3) 0.90977(11)
C38_5 C 0.1116(2) 0.9195(3) 0.93546(10)
C43_5 C 0.0592(2) 0.9361(3) 0.93591(10)
C48_5 C 0.0541(2) 0.9793(3) 0.91282(11)
O39_5 O 0.2880(2) 0.9915(3) 0.79601(10)
H46_5 H 0.2480(17) 0.9744(34) 0.8051(16)
C84_5 C 0.3195(5) 0.9528(6) 0.8026(3)
H51_5 H 0.3295 0.9562 0.8259
H56_5 H 0.3637 0.9740 0.7912
H58_7 H 0.0304 0.7231 0.6245
C89_5 C 0.2820(7) 0.8815(9) 0.7941(3)
H61_5 H 0.3088 0.8600 0.7998
H66_5 H 0.2732 0.8770 0.7709
H71_5 H 0.2387 0.8592 0.8057
C3_10 C 1.0000 -0.0000 0.9196(2)
H3_10 H 1.0000 -0.0000 0.9436
Cl15_5 Cl 0.94474(10) 0.04742(7) 0.85744(3)
C18_5 C 0.9995(4) 0.1978(3) 0.85516(12)
C54_5 C 0.9981(3) 0.1008(2) 0.88787(11)
Cl1_5 Cl 0.70060(6) 0.77766(7) 0.90796(3)
Cl2_5 Cl 0.90113(6) 0.99916(6) 0.96747(3)
Cl3_5 Cl 0.95258(7) 0.89733(7) 0.85744(3)
O1_5 O 0.79844(18) 0.74425(18) 0.85746(8)
O2_5 O 0.7855(3) 0.8245(2) 0.83184(10)
O4_5 O 0.7436(2) 0.83769(19) 0.98364(8)
O5_5 O 0.6979(3) 0.6125(2) 0.85455(10)
H1_5 H 0.707(5) 0.627(5) 0.8742(10)
H2_5 H 0.669(5) 0.5697(17) 0.854(3)
C1_5 C 0.8022(3) 0.8018(3) 0.85516(12)
C2_5 C 0.7576(2) 0.8815(2) 0.96220(11)
C3_11 C 1.0000 1.0000 0.9196(2)
H3_11 H 1.0000 1.0000 0.9436
C4_5 C 0.8300(2) 0.8474(2) 0.88510(11)
C5_5 C 0.7859(2) 0.8428(2) 0.90977(11)
C6_5 C 0.8078(2) 0.8884(2) 0.93546(10)
C7_5 C 0.8768(2) 0.9408(2) 0.93591(10)
C8_5 C 0.9251(2) 0.9459(2) 0.91282(11)
C9_5 C 0.8992(2) 0.8974(2) 0.88787(11)
O6_5 O 0.7034(2) 0.7120(2) 0.79601(10)
H8_5 H 0.726(3) 0.7520(17) 0.8051(16)
C15_5 C 0.6332(4) 0.6805(5) 0.8026(3)
H9_5 H 0.6266 0.6705 0.8259
H10_5 H 0.6102 0.6363 0.7912
C16_5 C 0.5994(5) 0.7180(7) 0.7941(3)
H11_5 H 0.5511 0.6912 0.7998
H12_5 H 0.6037 0.7268 0.7709
H13_5 H 0.6204 0.7613 0.8057
Cl6_5 Cl 0.88901(7) 0.63273(6) 0.74129(3)
Cl7_5 Cl 0.74372(9) 0.11099(7) 0.74129(3)
Cl8_5 Cl 0.36727(6) 0.25628(9) 0.74129(3)
Cl11_5 Cl 0.66751(6) 0.43220(6) 0.80080(3)
Cl12_5 Cl 0.76469(8) 0.33249(6) 0.80080(3)
Cl13_5 Cl 0.56780(6) 0.23531(8) 0.80080(3)
Cl16_5 Cl 0.76934(7) 0.38075(7) 0.69077(3)
Cl17_5 Cl 0.61141(10) 0.23066(7) 0.69077(3)
Cl18_5 Cl 0.61925(7) 0.38859(10) 0.69077(3)
N7_7 N 0.9292(2) 0.4836(2) 0.63004(9)
N8_5 N 0.5544(3) 0.0708(2) 0.63004(9)
O9_5 O 0.92242(18) 0.53489(18) 0.69079(8)
O10_5 O 0.61247(25) 0.07758(18) 0.69079(8)
O11_5 O 0.46511(18) 0.38753(25) 0.69079(8)
O15_5 O 0.8422(2) 0.5478(3) 0.66517(10)
O16_5 O 0.7056(4) 0.1578(2) 0.66517(10)
O17_5 O 0.4522(3) 0.2944(4) 0.66517(10)
O20_5 O 0.74578(17) 0.60021(17) 0.79281(8)
O30_5 O 0.82898(19) 0.5897(2) 0.81697(8)
O31_5 O 0.76072(28) 0.17102(19) 0.81697(8)
O32_5 O 0.4103(2) 0.23928(28) 0.81697(8)
C19_5 C 0.8649(3) 0.5311(3) 0.68849(12)
C20_5 C 0.6662(4) 0.1351(3) 0.68849(12)
C21_5 C 0.4689(3) 0.3338(4) 0.68849(12)
C24_5 C 0.7852(2) 0.5757(2) 0.79553(11)
C25_5 C 0.7905(3) 0.2148(2) 0.79553(11)
C26_5 C 0.4243(2) 0.2095(3) 0.79553(11)
C27_8 C 0.6667 0.3333 0.7529(2)
H24_8 H 0.6667 0.3333 0.7769
C30_5 C 0.8193(2) 0.5033(2) 0.71843(11)
C31_5 C 0.6840(3) 0.1807(2) 0.71843(11)
C32_5 C 0.4967(2) 0.3160(3) 0.71843(11)
C35_5 C 0.8239(2) 0.5474(2) 0.74310(11)
C36_5 C 0.7235(3) 0.1761(2) 0.74310(11)
C37_5 C 0.4526(2) 0.2765(3) 0.74310(11)
C40_5 C 0.7783(2) 0.5255(2) 0.76879(10)
C41_5 C 0.7472(3) 0.2217(2) 0.76879(10)
C42_5 C 0.4745(2) 0.2528(3) 0.76879(10)
C45_5 C 0.7259(2) 0.4565(2) 0.76924(10)
C46_5 C 0.7306(3) 0.2741(2) 0.76924(10)
C47_5 C 0.5435(2) 0.2694(3) 0.76924(10)
C50_5 C 0.7208(2) 0.4082(2) 0.74615(11)
C51_5 C 0.6874(3) 0.2792(2) 0.74615(11)
C52_5 C 0.5918(2) 0.3126(3) 0.74615(11)
C55_5 C 0.7693(2) 0.4341(2) 0.72120(11)
C56_5 C 0.6648(3) 0.2307(2) 0.72120(11)
C57_5 C 0.5659(2) 0.3352(3) 0.72120(11)
O41_7 O 0.9547(2) 0.6299(2) 0.62934(10)
O42_5 O 0.6752(3) 0.0453(2) 0.62934(10)
H48_7 H 0.9147(17) 0.607(3) 0.6384(16)
H49_5 H 0.6923(34) 0.0853(17) 0.6384(16)
C86_7 C 0.9862(5) 0.7001(4) 0.6359(3)
C87_5 C 0.7139(6) 0.0138(5) 0.6359(3)
H53_7 H 0.9962 0.7067 0.6592
H54_5 H 0.7105 0.0038 0.6592
C91_7 C 0.9487(7) 0.7339(5) 0.6274(3)
C92_5 C 0.7852(9) 0.0513(7) 0.6274(3)
H63_7 H 0.9755 0.7822 0.6331
H64_5 H 0.8067 0.0245 0.6331
H68_7 H 0.9399 0.7296 0.6042
H69_5 H 0.7897 0.0601 0.6042
H73_7 H 0.9054 0.7129 0.6390
H74_5 H 0.8075 0.0946 0.6390
O37_5 O 0.5812(4) 0.9458(2) 0.68788(10)
H18_5 H 0.586(7) 0.960(5) 0.7075(10)
H23_5 H 0.5670(53) 0.9030(17) 0.687(3)
H59_5 H 0.6927 0.9696 0.6245
O2_6 O 0.4911(2) 0.1189(3) 0.00150(10)
Cl6_6 Cl 0.29940(6) 0.22234(7) 0.09204(3)
Cl11_6 Cl 0.09887(6) 0.00084(6) 0.03253(3)
Cl16_6 Cl 0.04742(7) 0.10267(7) 0.14256(3)
N7_8 N 0.1503(2) 0.2625(2) 0.20329(9)
O9_6 O 0.20156(18) 0.25575(18) 0.14254(8)
O13_6 O 0.6277(4) 0.5089(2) 0.00150(10)
O14_6 O 0.8811(3) 0.3723(4) 0.00150(10)
O15_6 O 0.2145(3) 0.1755(2) 0.16816(10)
O30_6 O 0.2564(2) 0.16231(19) 0.01636(8)
O36_8 O 0.3021(3) 0.3875(2) 0.14545(10)
H17_8 H 0.293(5) 0.373(5) 0.1258(10)
H22_8 H 0.331(5) 0.4303(17) 0.146(3)
C19_6 C 0.1978(3) 0.1982(3) 0.14484(12)
C24_6 C 0.2424(2) 0.1185(2) 0.03780(11)
C27_9 C -0.0000 0.0000 0.0804(2)
H24_9 H -0.0000 0.0000 0.0564
C30_6 C 0.1700(2) 0.1526(2) 0.11490(11)
C35_6 C 0.2141(2) 0.1572(2) 0.09023(11)
C40_6 C 0.1922(2) 0.1116(2) 0.06454(10)
C45_6 C 0.1232(2) 0.0592(2) 0.06409(10)
C50_6 C 0.0749(2) 0.0541(2) 0.08718(11)
C55_6 C 0.1008(2) 0.1026(2) 0.11213(11)
O41_8 O 0.2966(2) 0.2880(2) 0.20399(10)
H48_8 H 0.274(3) 0.2480(17) 0.1949(16)
C86_8 C 0.3668(4) 0.3195(5) 0.1974(3)
H53_8 H 0.3734 0.3295 0.1741
H58_8 H 0.3898 0.3637 0.2088
C91_8 C 0.4006(5) 0.2820(7) 0.2059(3)
H63_8 H 0.4489 0.3088 0.2002
H68_8 H 0.3963 0.2732 0.2291
H73_8 H 0.3796 0.2387 0.1943
Cl1_6 Cl 0.44432(7) 0.03394(6) 0.92538(3)
Cl2_6 Cl 0.66582(6) 0.23447(6) 0.86587(3)
Cl3_6 Cl 0.56399(7) 0.28592(7) 0.97590(3)
O4_6 O 0.50435(19) 0.0770(2) 0.84970(8)
C1_6 C 0.4684(3) 0.1356(3) 0.97818(12)
C2_6 C 0.5481(2) 0.0910(2) 0.87114(11)
C3_12 C 0.6666 0.3334 0.9138(2)
H3_12 H 0.6666 0.3334 0.8898
C4_6 C 0.5140(2) 0.1634(2) 0.94824(11)
C5_6 C 0.5094(2) 0.1193(2) 0.92357(11)
C6_6 C 0.5550(2) 0.1412(2) 0.89788(10)
C7_6 C 0.6074(2) 0.2102(2) 0.89743(10)
C8_6 C 0.6125(2) 0.2585(2) 0.92052(11)
C9_6 C 0.5640(2) 0.2326(2) 0.94547(11)
Cl4_6 Cl 0.58961(9) 0.55568(7) 0.92538(3)
Cl5_6 Cl 0.96606(6) 0.41039(9) 0.92538(3)
Cl9_6 Cl 0.56864(8) 0.33418(6) 0.86587(3)
Cl10_6 Cl 0.76553(6) 0.43136(8) 0.86587(3)
Cl14_6 Cl 0.72192(10) 0.43601(7) 0.97590(3)
Cl15_6 Cl 0.71408(7) 0.27808(10) 0.97590(3)
O18_5 O 0.47890(24) 0.41245(17) 0.87386(8)
O28_6 O 0.57261(28) 0.49565(19) 0.84970(8)
O29_6 O 0.9230(2) 0.42739(28) 0.84970(8)
C17_6 C 0.6671(4) 0.5316(3) 0.97818(12)
C18_6 C 0.8644(3) 0.3329(4) 0.97818(12)
C22_6 C 0.5428(3) 0.4519(2) 0.87114(11)
C23_6 C 0.9090(2) 0.4572(3) 0.87114(11)
C28_6 C 0.6493(3) 0.4860(2) 0.94824(11)
C29_6 C 0.8366(2) 0.3507(3) 0.94824(11)
C33_6 C 0.6098(3) 0.4906(2) 0.92357(11)
C34_6 C 0.8807(2) 0.3902(3) 0.92357(11)
C38_6 C 0.5861(3) 0.4450(2) 0.89788(10)
C39_6 C 0.8588(2) 0.4139(3) 0.89788(10)
C43_6 C 0.6027(3) 0.3926(2) 0.89743(10)
C44_6 C 0.7898(2) 0.3973(3) 0.89743(10)
C48_6 C 0.6459(3) 0.3875(2) 0.92052(11)
C49_6 C 0.7415(2) 0.3541(3) 0.92052(11)
C53_6 C 0.6685(3) 0.4360(2) 0.94547(11)
C54_6 C 0.7674(2) 0.3315(3) 0.94547(11)
Cl18_6 Cl 0.05526(10) 0.95258(7) 0.14256(3)
O11_6 O 0.05420(25) 0.79844(18) 0.14254(8)
C21_6 C 0.0005(4) 0.8022(3) 0.14484(12)
C27_10 C -0.0000 1.0000 0.0804(2)
H24_10 H -0.0000 1.0000 0.0564
C57_6 C 0.0019(3) 0.8992(2) 0.11213(11)
Cl7_6 Cl 0.77766(7) 0.07705(9) 0.09204(3)
Cl12_6 Cl 0.99916(6) 0.09802(8) 0.03253(3)
O16_6 O 0.8245(2) 0.0389(4) 0.16816(10)
O31_6 O 0.83769(19) 0.09405(28) 0.01636(8)
C25_6 C 0.8815(2) 0.1238(3) 0.03780(11)
C27_11 C 1.0000 0.0000 0.0804(2)
H24_11 H 1.0000 0.0000 0.0564
C31_6 C 0.8474(2) 0.0173(3) 0.11490(11)
C36_6 C 0.8428(2) 0.0568(3) 0.09023(11)
C41_6 C 0.8884(2) 0.0805(3) 0.06454(10)
C46_6 C 0.9408(2) 0.0639(3) 0.06409(10)
C51_6 C 0.9459(2) 0.0207(3) 0.08718(11)
O42_6 O 0.7120(2) 0.0085(3) 0.20399(10)
H49_6 H 0.7520(17) 0.0256(34) 0.1949(16)
C87_6 C 0.6805(5) 0.0472(6) 0.1974(3)
H54_6 H 0.6705 0.0438 0.1741
H59_6 H 0.6363 0.0260 0.2088
C92_6 C 0.7180(7) 0.1185(9) 0.2059(3)
H64_6 H 0.6912 0.1400 0.2002
H69_6 H 0.7268 0.1230 0.2291
H74_6 H 0.7613 0.1408 0.1943
Cl8_6 Cl 0.92295(9) 0.70060(6) 0.09204(3)
Cl13_6 Cl 0.90198(8) 0.90113(6) 0.03253(3)
Cl17_6 Cl 0.89733(7) 0.94474(10) 0.14256(3)
N8_6 N 0.7375(2) 0.8877(3) 0.20329(9)
O10_6 O 0.74425(18) 0.94580(25) 0.14254(8)
O17_6 O 0.9611(4) 0.7855(3) 0.16816(10)
O32_6 O 0.90595(28) 0.7436(2) 0.01636(8)
O37_6 O 0.6125(2) 0.9145(4) 0.14545(10)
H18_6 H 0.627(5) 0.919(7) 0.1258(10)
H23_6 H 0.5697(17) 0.9003(53) 0.146(3)
C20_6 C 0.8018(3) 0.9995(4) 0.14484(12)
C26_6 C 0.8762(3) 0.7576(2) 0.03780(11)
C27_12 C 1.0000 1.0000 0.0804(2)
H24_12 H 1.0000 1.0000 0.0564
C32_6 C 0.9827(3) 0.8300(2) 0.11490(11)
C37_6 C 0.9432(3) 0.7859(2) 0.09023(11)
C42_6 C 0.9195(3) 0.8078(2) 0.06454(10)
C47_6 C 0.9361(3) 0.8768(2) 0.06409(10)
C52_6 C 0.9793(3) 0.9251(2) 0.08718(11)
C56_6 C 0.8974(2) 0.9981(3) 0.11213(11)
N7_9 N 0.7789(3) 0.1831(2) 0.53663(9)
O36_9 O 0.7521(4) 0.0313(3) 0.47879(10)
H17_9 H 0.747(7) 0.041(5) 0.4592(10)
H22_9 H 0.7663(53) 0.003(5) 0.480(3)
O41_9 O 0.6581(3) 0.0368(2) 0.53733(10)
H48_9 H 0.6410(34) 0.060(3) 0.5283(16)
C86_9 C 0.6194(6) 0.9666(4) 0.5308(3)
H53_9 H 0.6228 0.9600 0.5075
H58_9 H 0.6406 0.9436 0.5422
C91_9 C 0.5481(9) 0.9328(5) 0.5393(3)
H63_9 H 0.5266 0.8845 0.5336
H68_9 H 0.5436 0.9371 0.5625
H73_9 H 0.5258 0.9538 0.5277
N7_10 N 0.5164(2) 0.4456(3) 0.63004(9)
O36_10 O 0.3646(3) 0.4188(4) 0.68788(10)
H17_10 H 0.374(5) 0.414(7) 0.7075(10)
H22_10 H 0.336(5) 0.4330(53) 0.687(3)
O41_10 O 0.3701(2) 0.3248(3) 0.62934(10)
H48_10 H 0.393(3) 0.3077(34) 0.6384(16)
C86_10 C 0.2999(4) 0.2861(6) 0.6359(3)
H53_10 H 0.2933 0.2895 0.6592
H58_10 H 0.2769 0.3073 0.6245
C91_10 C 0.2661(5) 0.2148(9) 0.6274(3)
H63_10 H 0.2178 0.1933 0.6331
H68_10 H 0.2704 0.2103 0.6042
H73_10 H 0.2871 0.1925 0.6390
N7_11 N 0.1123(3) 0.8497(2) 0.20329(9)
O36_11 O 0.0855(4) 0.6979(3) 0.14545(10)
H17_11 H 0.081(7) 0.707(5) 0.1258(10)
H22_11 H 0.0997(53) 0.669(5) 0.146(3)
O41_11 O 0.9915(3) 0.7034(2) 0.20399(10)
H48_11 H 0.9744(34) 0.726(3) 0.1949(16)
C86_11 C 0.9528(6) 0.6332(4) 0.1974(3)
H53_11 H 0.9562 0.6266 0.1741
H58_11 H 0.9740 0.6102 0.2088
C91_11 C 0.8815(9) 0.5994(5) 0.2059(3)
H63_11 H 0.8600 0.5511 0.2002
H68_11 H 0.8770 0.6037 0.2291
H73_11 H 0.8592 0.6204 0.1943
N7_12 N 0.4456(3) 0.5164(2) 0.86996(9)
O36_12 O 0.4188(4) 0.3646(3) 0.81212(10)
H17_12 H 0.414(7) 0.374(5) 0.7925(10)
H22_12 H 0.4330(53) 0.336(5) 0.813(3)
O41_12 O 0.3248(3) 0.3701(2) 0.87066(10)
H48_12 H 0.3077(34) 0.393(3) 0.8616(16)
C86_12 C 0.2861(6) 0.2999(4) 0.8641(3)
H53_12 H 0.2895 0.2933 0.8408
H58_12 H 0.3073 0.2769 0.8755
C91_12 C 0.2148(9) 0.2661(5) 0.8726(3)
H63_12 H 0.1933 0.2178 0.8669
H68_12 H 0.2103 0.2704 0.8958
H73_12 H 0.1925 0.2871 0.8610
C10_4 C 0.4873(3) 0.9120(3) 0.90051(12)
H4_4 H 0.5308 0.9256 0.9094
C11_4 C 0.4296(3) 0.8749(3) 0.91970(12)
H5_4 H 0.4337 0.8630 0.9411
C12_4 C 0.3651(3) 0.8557(3) 0.90646(12)
C13_4 C 0.3620(3) 0.8717(3) 0.87460(12)
H6_4 H 0.3193 0.8578 0.8647
C14_4 C 0.4222(3) 0.9086(3) 0.85724(12)
H7_4 H 0.4195 0.9196 0.8355
C58_4 C 0.1794(3) 0.7580(4) 0.93282(12)
C59_4 C 0.0880(3) 0.5753(4) 0.90051(12)
C60_4 C 0.2420(4) 0.4213(3) 0.93282(12)
C61_4 C 0.4247(4) 0.5127(3) 0.90051(12)
C62_4 C 0.5787(3) 0.8206(3) 0.93282(12)
H25_4 H 0.1359 0.7281 0.9239
H26_4 H 0.0744 0.6052 0.9094
H27_4 H 0.2719 0.4077 0.9239
H28_4 H 0.3948 0.4692 0.9094
H29_4 H 0.5923 0.8641 0.9239
C63_4 C 0.2371(3) 0.7786(4) 0.91363(12)
C64_4 C 0.1251(3) 0.5547(4) 0.91970(12)
C65_4 C 0.2214(4) 0.4584(3) 0.91363(12)
C66_4 C 0.4453(4) 0.5704(3) 0.91970(12)
C67_4 C 0.5416(3) 0.7629(3) 0.91363(12)
H30_4 H 0.2330 0.7626 0.8922
H31_4 H 0.1370 0.5707 0.9411
H32_4 H 0.2374 0.4703 0.8922
H33_4 H 0.4293 0.5663 0.9411
H34_4 H 0.5297 0.7670 0.8922
C68_4 C 0.3016(3) 0.8239(4) 0.92687(12)
C69_4 C 0.1443(3) 0.5094(4) 0.90646(12)
C70_4 C 0.1761(4) 0.4776(3) 0.92687(12)
C71_4 C 0.4906(4) 0.6349(3) 0.90646(12)
C72_4 C 0.5224(3) 0.6984(3) 0.92687(12)
C73_4 C 0.3047(3) 0.8430(4) 0.95873(12)
C74_4 C 0.1283(3) 0.4903(4) 0.87460(12)
C75_4 C 0.1570(4) 0.4616(3) 0.95873(12)
C76_4 C 0.5097(4) 0.6380(3) 0.87460(12)
C77_4 C 0.5384(3) 0.6953(3) 0.95873(12)
H35_4 H 0.3474 0.8718 0.9686
H36_4 H 0.1422 0.4615 0.8647
H37_4 H 0.1282 0.4755 0.9686
H38_4 H 0.5385 0.6807 0.8647
H39_4 H 0.5245 0.6526 0.9686
C78_4 C 0.2445(3) 0.8197(4) 0.97609(12)
C79_4 C 0.0914(3) 0.5136(4) 0.85724(12)
C80_4 C 0.1803(4) 0.4247(3) 0.97609(12)
C81_4 C 0.4864(4) 0.5778(3) 0.85724(12)
C82_4 C 0.5753(3) 0.7555(3) 0.97609(12)
H40_4 H 0.2472 0.8334 0.9978
H41_4 H 0.0804 0.4999 0.8355
H42_4 H 0.1666 0.4137 0.9978
H43_4 H 0.5001 0.5805 0.8355
H44_4 H 0.5863 0.7528 0.9978
C10_5 C 0.9120(3) 0.4873(3) 0.59949(12)
H4_5 H 0.9256 0.5308 0.5906
C11_5 C 0.8749(3) 0.4296(3) 0.58030(12)
H5_5 H 0.8630 0.4337 0.5589
C12_5 C 0.8557(3) 0.3651(3) 0.59354(12)
C13_5 C 0.8717(3) 0.3620(3) 0.62540(12)
H6_5 H 0.8578 0.3193 0.6353
C14_5 C 0.9086(3) 0.4222(3) 0.64276(12)
H7_5 H 0.9196 0.4195 0.6645
C58_5 C 0.7580(4) 0.1794(3) 0.56718(12)
C59_5 C 0.5753(4) 0.0880(3) 0.59949(12)
C60_5 C 0.4213(3) 0.2420(4) 0.56718(12)
C61_5 C 0.5127(3) 0.4247(4) 0.59949(12)
C62_5 C 0.8206(3) 0.5787(3) 0.56718(12)
H25_5 H 0.7281 0.1359 0.5761
H26_5 H 0.6052 0.0744 0.5906
H27_5 H 0.4077 0.2719 0.5761
H28_5 H 0.4692 0.3948 0.5906
H29_5 H 0.8641 0.5923 0.5761
C63_5 C 0.7786(4) 0.2371(3) 0.58637(12)
C64_5 C 0.5547(4) 0.1251(3) 0.58030(12)
C65_5 C 0.4584(3) 0.2214(4) 0.58637(12)
C66_5 C 0.5704(3) 0.4453(4) 0.58030(12)
C67_5 C 0.7629(3) 0.5416(3) 0.58637(12)
H30_5 H 0.7626 0.2330 0.6078
H31_5 H 0.5707 0.1370 0.5589
H32_5 H 0.4703 0.2374 0.6078
H33_5 H 0.5663 0.4293 0.5589
H34_5 H 0.7670 0.5297 0.6078
C68_5 C 0.8239(4) 0.3016(3) 0.57313(12)
C69_5 C 0.5094(4) 0.1443(3) 0.59354(12)
C70_5 C 0.4776(3) 0.1761(4) 0.57313(12)
C71_5 C 0.6349(3) 0.4906(4) 0.59354(12)
C72_5 C 0.6984(3) 0.5224(3) 0.57313(12)
C73_5 C 0.8430(4) 0.3047(3) 0.54127(12)
C74_5 C 0.4903(4) 0.1283(3) 0.62540(12)
C75_5 C 0.4616(3) 0.1570(4) 0.54127(12)
C76_5 C 0.6380(3) 0.5097(4) 0.62540(12)
C77_5 C 0.6953(3) 0.5384(3) 0.54127(12)
H35_5 H 0.8718 0.3474 0.5314
H36_5 H 0.4615 0.1422 0.6353
H37_5 H 0.4755 0.1282 0.5314
H38_5 H 0.6807 0.5385 0.6353
H39_5 H 0.6526 0.5245 0.5314
C78_5 C 0.8197(4) 0.2445(3) 0.52391(12)
C79_5 C 0.5136(4) 0.0914(3) 0.64276(12)
C80_5 C 0.4247(3) 0.1803(4) 0.52391(12)
C81_5 C 0.5778(3) 0.4864(4) 0.64276(12)
C82_5 C 0.7555(3) 0.5753(3) 0.52391(12)
H40_5 H 0.8334 0.2472 0.5022
H41_5 H 0.4999 0.0804 0.6645
H42_5 H 0.4137 0.1666 0.5022
H43_5 H 0.5805 0.5001 0.6645
H44_5 H 0.7528 0.5863 0.5022
C10_6 C 0.2453(3) 0.1540(3) 0.26616(12)
H4_6 H 0.2589 0.1975 0.2573
C11_6 C 0.2082(3) 0.0963(3) 0.24697(12)
H5_6 H 0.1963 0.1004 0.2256
C12_6 C 0.1890(3) 0.0318(3) 0.26021(12)
C13_6 C 0.2050(3) 0.0287(3) 0.29207(12)
C14_6 C 0.2419(3) 0.0889(3) 0.30943(12)
H7_6 H 0.2529 0.0862 0.3312
C62_6 C 0.1540(3) 0.2453(3) 0.23384(12)
H29_6 H 0.1975 0.2589 0.2427
C67_6 C 0.0963(3) 0.2082(3) 0.25303(12)
H34_6 H 0.1004 0.1963 0.2744
C72_6 C 0.0318(3) 0.1890(3) 0.23979(12)
C77_6 C 0.0287(3) 0.2050(3) 0.20793(12)
H35_6 H 0.2052 0.0140 0.1980
H38_6 H 0.0140 0.2052 0.3020
C82_6 C 0.0889(3) 0.2419(3) 0.19057(12)
H44_6 H 0.0862 0.2529 0.1688
H6_6 H 0.1911 0.9860 0.3020
C58_6 C 0.0914(4) 0.8460(3) 0.23384(12)
H25_6 H 0.0615 0.8025 0.2427
C63_6 C 0.1120(4) 0.9037(3) 0.25303(12)
H30_6 H 0.0960 0.8996 0.2744
C68_6 C 0.1573(4) 0.9682(3) 0.23979(12)
C73_6 C 0.1764(4) 0.9713(3) 0.20793(12)
C78_6 C 0.1531(4) 0.9111(3) 0.19057(12)
H40_6 H 0.1668 0.9138 0.1688
C61_6 C 0.8460(3) 0.0914(4) 0.26616(12)
H28_6 H 0.8025 0.0615 0.2573
C66_6 C 0.9037(3) 0.1120(4) 0.24697(12)
H33_6 H 0.8996 0.0960 0.2256
C71_6 C 0.9682(3) 0.1573(4) 0.26021(12)
C76_6 C 0.9713(3) 0.1764(4) 0.29207(12)
H39_6 H 0.9860 0.1911 0.1980
C81_6 C 0.9111(3) 0.1531(4) 0.30943(12)
H43_6 H 0.9138 0.1668 0.3312
C59_6 C 0.9086(4) 0.7547(3) 0.26616(12)
C60_6 C 0.7547(3) 0.9086(4) 0.23384(12)
H26_6 H 0.9385 0.7411 0.2573
H27_6 H 0.7411 0.9385 0.2427
C64_6 C 0.8880(4) 0.7918(3) 0.24697(12)
C65_6 C 0.7918(3) 0.8880(4) 0.25303(12)
H31_6 H 0.9040 0.8037 0.2256
H32_6 H 0.8037 0.9040 0.2744
C69_6 C 0.8427(4) 0.8110(3) 0.26021(12)
C70_6 C 0.8110(3) 0.8427(4) 0.23979(12)
C74_6 C 0.8236(4) 0.7950(3) 0.29207(12)
C75_6 C 0.7950(3) 0.8236(4) 0.20793(12)
H36_6 H 0.7948 0.8089 0.3020
H37_6 H 0.8089 0.7948 0.1980
C79_6 C 0.8469(4) 0.7581(3) 0.30943(12)
C80_6 C 0.7581(3) 0.8469(4) 0.19057(12)
H41_6 H 0.8332 0.7471 0.3312
H42_6 H 0.7471 0.8332 0.1688
loop_
_geom_bond_atom_site_label_1
_geom_bond_atom_site_label_2
_geom_bond_site_symmetry_1
_geom_bond_site_symmetry_2
H15 O34 1_555 1_555
H20 O34 1_555 1_555
H50 C83 1_555 1_555
H55 C83 1_555 1_555
C88 C83 1_555 1_555
H60 C88 1_555 1_555
H65 C88 1_555 1_555
H70 C88 1_555 1_555
Cu1 N1 1_555 1_555
Cl1 C5 1_555 1_555
Cl2 C7 1_555 1_555
Cl3 C9 1_555 1_555
N1 C10 1_555 1_555
O1 Cu1 1_555 1_555
O2 C1 1_555 1_555
O3 C2 1_555 1_555
O4 C2 1_555 1_555
C1 O1 1_555 1_555
C2 C6 1_555 1_555
C3 H3 1_555 1_555
C4 C1 1_555 1_555
C5 C4 1_555 1_555
C6 C5 1_555 1_555
C7 C6 1_555 1_555
C8 C3 1_555 1_555
C9 C4 1_555 1_555
C10 H4 1_555 1_555
C11 C10 1_555 1_555
H5 C11 1_555 1_555
C12 C11 1_555 1_555
C13 C12 1_555 1_555
H6 C13 1_555 1_555
C14 N1 1_555 1_555
H7 C14 1_555 1_555
O6 Cu1 1_555 1_555
H8 O6 1_555 1_555
C15 O6 1_555 1_555
H9 C15 1_555 1_555
C16 C15 1_555 1_555
H11 C16 1_555 1_555
H12 C16 1_555 1_555
H13 C16 1_555 1_555
Cu2 N2 1_555 1_555
Cu3 N3 1_555 1_555
Cu4 N5 1_555 1_555
Cu7 O3 1_555 1_555
Cu8 O18 1_555 1_555
Cu9 O19 1_555 1_555
Cu13 N4 1_555 1_555
Cu14 N6 1_555 1_555
Cl4 C33 1_555 1_555
Cl5 C34 1_555 1_555
Cl9 C43 1_555 1_555
Cl10 C44 1_555 1_555
Cl14 C53 1_555 1_555
Cl15 C54 1_555 1_555
N2 C58 1_555 1_555
N3 C59 1_555 1_555
N4 C60 1_555 1_555
N5 C61 1_555 1_555
N6 C62 1_555 1_555
O7 Cu3 1_555 1_555
O8 Cu4 1_555 1_555
O13 C17 1_555 1_555
O14 C18 1_555 1_555
O18 C22 1_555 1_555
O19 C23 1_555 1_555
O23 Cu2 1_555 1_555
O25 Cu4 1_555 1_555
O28 C22 1_555 1_555
O29 C23 1_555 1_555
O35 Cu4 1_555 1_555
H16 O35 1_555 1_555
H21 O35 1_555 1_555
C17 O7 1_555 1_555
C18 O8 1_555 1_555
C22 C38 1_555 1_555
C23 C39 1_555 1_555
C28 C17 1_555 1_555
C29 C18 1_555 1_555
C33 C28 1_555 1_555
C34 C29 1_555 1_555
C38 C33 1_555 1_555
C39 C34 1_555 1_555
C43 C38 1_555 1_555
C44 C39 1_555 1_555
C48 C3 1_555 1_555
C49 C3 1_555 1_555
C53 C28 1_555 1_555
C54 C29 1_555 1_555
C58 H25 1_555 1_555
C59 H26 1_555 1_555
C60 H27 1_555 1_555
C61 H28 1_555 1_555
C62 H29 1_555 1_555
C63 C58 1_555 1_555
C64 C59 1_555 1_555
C65 C60 1_555 1_555
C66 C61 1_555 1_555
C67 C62 1_555 1_555
H30 C63 1_555 1_555
H31 C64 1_555 1_555
H32 C65 1_555 1_555
H33 C66 1_555 1_555
H34 C67 1_555 1_555
C68 C12 1_555 1_555
C69 C64 1_555 1_555
C70 C65 1_555 1_555
C71 C66 1_555 1_555
C72 C67 1_555 1_555
C73 C68 1_555 1_555
C74 C69 1_555 1_555
C75 C70 1_555 1_555
C76 C71 1_555 1_555
C77 C72 1_555 1_555
H35 C73 1_555 1_555
H36 C74 1_555 1_555
H37 C75 1_555 1_555
H38 C76 1_555 1_555
H39 C77 1_555 1_555
C78 N2 1_555 1_555
C79 N3 1_555 1_555
C80 N4 1_555 1_555
C81 N5 1_555 1_555
C82 N6 1_555 1_555
H40 C78 1_555 1_555
H41 C79 1_555 1_555
H42 C80 1_555 1_555
H43 C81 1_555 1_555
H44 C82 1_555 1_555
O38 Cu2 1_555 1_555
O39 Cu3 1_555 1_555
O40 Cu4 1_555 1_555
H45 O38 1_555 1_555
H46 O39 1_555 1_555
H47 O40 1_555 1_555
C84 O39 1_555 1_555
C85 O40 1_555 1_555
H51 C84 1_555 1_555
H52 C85 1_555 1_555
H57 C85 1_555 1_555
C89 C84 1_555 1_555
C90 C85 1_555 1_555
H61 C89 1_555 1_555
H62 C90 1_555 1_555
H66 C89 1_555 1_555
H67 C90 1_555 1_555
H71 C89 1_555 1_555
H72 C90 1_555 1_555
C7 C8 1_555 1_555
C8 C9 1_555 1_555
C13 C14 1_555 1_555
C43 C48 1_555 1_555
C44 C49 1_555 1_555
C48 C53 1_555 1_555
C49 C54 1_555 1_555
C63 C68 1_555 1_555
C69 C70 1_555 1_555
C71 C72 1_555 1_555
C73 C78 1_555 1_555
C74 C79 1_555 1_555
C75 C80 1_555 1_555
C76 C81 1_555 1_555
C77 C82 1_555 1_555
H14 O33 1_555 1_555
H19 O33 1_555 1_555
H53 C86 1_555 1_555
H58 C86 1_555 1_555
C91 C86 1_555 1_555
H63 C91 1_555 1_555
H68 C91 1_555 1_555
H73 C91 1_555 1_555
H1 O5 1_555 1_555
H2 O5 1_555 1_555
Cl6 C35 1_555 1_555
Cl7 C36 1_555 1_555
Cl8 C37 1_555 1_555
Cl11 C45 1_555 1_555
Cl12 C46 1_555 1_555
Cl13 C47 1_555 1_555
Cl16 C55 1_555 1_555
Cl17 C56 1_555 1_555
Cl18 C57 1_555 1_555
O11 C21 1_555 1_555
O25 C25 1_555 1_555
O24 C26 1_555 1_555
O30 C24 1_555 1_555
O31 C25 1_555 1_555
O32 C26 1_555 1_555
H17 O36 1_555 1_555
H18 O37 1_555 1_555
H22 O36 1_555 1_555
H23 O37 1_555 1_555
C19 O9 1_555 1_555
C20 O10 1_555 1_555
C21 C32 1_555 1_555
C24 O20 1_555 1_555
C25 C41 1_555 1_555
C26 C42 1_555 1_555
C27 H24 1_555 1_555
C30 C19 1_555 1_555
C31 C20 1_555 1_555
C32 C37 1_555 1_555
C35 C30 1_555 1_555
C36 C31 1_555 1_555
C37 C42 1_555 1_555
C40 C24 1_555 1_555
C41 C36 1_555 1_555
C42 C47 1_555 1_555
C45 C40 1_555 1_555
C46 C41 1_555 1_555
C47 C52 1_555 1_555
C50 C27 1_555 1_555
C51 C27 1_555 1_555
C52 C27 1_555 1_555
C55 C30 1_555 1_555
C56 C31 1_555 1_555
C57 C32 1_555 1_555
C35 C40 1_555 1_555
C45 C50 1_555 1_555
C46 C51 1_555 1_555
C50 C55 1_555 1_555
C51 C56 1_555 1_555
C52 C57 1_555 1_555
Cu5 N7 1_555 1_555
Cu6 N8 1_555 1_555
O26 Cu5 1_555 1_555
O27 Cu6 1_555 1_555
O41 Cu5 1_555 1_555
O42 Cu6 1_555 1_555
H48 O41 1_555 1_555
H49 O42 1_555 1_555
C87 O42 1_555 1_555
H54 C87 1_555 1_555
H59 C87 1_555 1_555
C92 C87 1_555 1_555
H64 C92 1_555 1_555
H69 C92 1_555 1_555
H74 C92 1_555 1_555
H17_2 O36_2 1_555 1_555
H22_2 O36_2 1_555 1_555
Cu12 N7_2 1_555 1_555
O26_2 Cu12 1_555 1_555
O41_2 Cu12 1_555 1_555
H48_2 O41_2 1_555 1_555
O23_2 Cu13 1_555 1_555
O38_2 Cu13 1_555 1_555
H45_2 O38_2 1_555 1_555
C83_2 O38_2 1_555 1_555
H50_2 C83_2 1_555 1_555
H55_2 C83_2 1_555 1_555
C88_2 C83_2 1_555 1_555
H60_2 C88_2 1_555 1_555
H65_2 C88_2 1_555 1_555
H70_2 C88_2 1_555 1_555
H14_2 O33_2 1_555 1_555
H19_2 O33_2 1_555 1_555
H53_2 C86_2 1_555 1_555
H58_2 C86_2 1_555 1_555
C91_2 C86_2 1_555 1_555
H63_2 C91_2 1_555 1_555
H68_2 C91_2 1_555 1_555
H73_2 C91_2 1_555 1_555
O23_3 Cu14 1_555 1_555
O38_3 Cu14 1_555 1_555
H45_3 O38_3 1_555 1_555
H14_3 O33_3 1_555 1_555
H19_3 O33_3 1_555 1_555
H50_3 C83_3 1_555 1_555
H55_3 C83_3 1_555 1_555
C88_3 C83_3 1_555 1_555
H60_3 C88_3 1_555 1_555
H65_3 C88_3 1_555 1_555
H70_3 C88_3 1_555 1_555
H15_2 O34_2 1_555 1_555
H20_2 O34_2 1_555 1_555
H50_4 C83_4 1_555 1_555
H55_4 C83_4 1_555 1_555
C88_4 C83_4 1_555 1_555
H60_4 C88_4 1_555 1_555
H65_4 C88_4 1_555 1_555
H70_4 C88_4 1_555 1_555
Cu1_2 N1_2 1_555 1_555
Cl1_2 C5_2 1_555 1_555
Cl2_2 C7_2 1_555 1_555
Cl3_2 C9_2 1_555 1_555
N1_2 C10_2 1_555 1_555
O1_2 Cu1_2 1_555 1_555
O2_2 C1_2 1_555 1_555
O3_2 C2_2 1_555 1_555
O4_2 C2_2 1_555 1_555
C1_2 O1_2 1_555 1_555
C2_2 C6_2 1_555 1_555
C3_2 H3_2 1_555 1_555
C4_2 C1_2 1_555 1_555
C5_2 C4_2 1_555 1_555
C6_2 C5_2 1_555 1_555
C7_2 C6_2 1_555 1_555
C8_2 C3_2 1_555 1_555
C9_2 C4_2 1_555 1_555
C10_2 H4_2 1_555 1_555
C11_2 C10_2 1_555 1_555
H5_2 C11_2 1_555 1_555
C12_2 C11_2 1_555 1_555
C13_2 C12_2 1_555 1_555
H6_2 C13_2 1_555 1_555
C14_2 N1_2 1_555 1_555
H7_2 C14_2 1_555 1_555
O6_2 Cu1_2 1_555 1_555
H8_2 O6_2 1_555 1_555
C15_2 O6_2 1_555 1_555
H9_2 C15_2 1_555 1_555
C16_2 C15_2 1_555 1_555
H11_2 C16_2 1_555 1_555
H12_2 C16_2 1_555 1_555
H13_2 C16_2 1_555 1_555
Cu2_2 N2_2 1_555 1_555
Cu3_2 N3_2 1_555 1_555
Cu4_2 N5_2 1_555 1_555
Cu7_2 O3_2 1_555 1_555
Cu8_2 O18_2 1_555 1_555
Cu9_2 O19_2 1_555 1_555
Cu13_2 N4_2 1_555 1_555
Cu14_2 N6_2 1_555 1_555
Cl4_2 C33_2 1_555 1_555
Cl5_2 C34_2 1_555 1_555
Cl9_2 C43_2 1_555 1_555
Cl10_2 C44_2 1_555 1_555
Cl14_2 C53_2 1_555 1_555
Cl15_2 C54_2 1_555 1_555
N2_2 C58_2 1_555 1_555
N3_2 C59_2 1_555 1_555
N4_2 C60_2 1_555 1_555
N5_2 C61_2 1_555 1_555
N6_2 C62_2 1_555 1_555
O7_2 Cu3_2 1_555 1_555
O8_2 Cu4_2 1_555 1_555
O12_4 Cu2_2 1_555 1_555
O13_2 C17_2 1_555 1_555
O14_2 C18_2 1_555 1_555
O18_2 C22_2 1_555 1_555
O19_2 C23_2 1_555 1_555
O23_4 Cu2_2 1_555 1_555
O25_2 Cu4_2 1_555 1_555
O28_2 C22_2 1_555 1_555
O29_2 C23_2 1_555 1_555
O33_4 Cu2_2 1_555 1_555
O35_2 Cu4_2 1_555 1_555
H14_4 O33_4 1_555 1_555
H16_2 O35_2 1_555 1_555
H19_4 O33_4 1_555 1_555
H21_2 O35_2 1_555 1_555
C17_2 O7_2 1_555 1_555
C18_2 O8_2 1_555 1_555
C22_2 C38_2 1_555 1_555
C23_2 C39_2 1_555 1_555
C28_2 C17_2 1_555 1_555
C29_2 C18_2 1_555 1_555
C33_2 C28_2 1_555 1_555
C34_2 C29_2 1_555 1_555
C38_2 C33_2 1_555 1_555
C39_2 C34_2 1_555 1_555
C43_2 C38_2 1_555 1_555
C44_2 C39_2 1_555 1_555
C48_2 C3_2 1_555 1_555
C49_2 C3_2 1_555 1_555
C53_2 C28_2 1_555 1_555
C54_2 C29_2 1_555 1_555
C58_2 H25_2 1_555 1_555
C59_2 H26_2 1_555 1_555
C60_2 H27_2 1_555 1_555
C61_2 H28_2 1_555 1_555
C62_2 H29_2 1_555 1_555
C63_2 C58_2 1_555 1_555
C64_2 C59_2 1_555 1_555
C65_2 C60_2 1_555 1_555
C66_2 C61_2 1_555 1_555
C67_2 C62_2 1_555 1_555
H30_2 C63_2 1_555 1_555
H31_2 C64_2 1_555 1_555
H32_2 C65_2 1_555 1_555
H33_2 C66_2 1_555 1_555
H34_2 C67_2 1_555 1_555
C68_2 C12_2 1_555 1_555
C69_2 C64_2 1_555 1_555
C70_2 C65_2 1_555 1_555
C71_2 C66_2 1_555 1_555
C72_2 C67_2 1_555 1_555
C73_2 C68_2 1_555 1_555
C74_2 C69_2 1_555 1_555
C75_2 C70_2 1_555 1_555
C76_2 C71_2 1_555 1_555
C77_2 C72_2 1_555 1_555
H35_2 C73_2 1_555 1_555
H36_2 C74_2 1_555 1_555
H37_2 C75_2 1_555 1_555
H38_2 C76_2 1_555 1_555
H39_2 C77_2 1_555 1_555
C78_2 N2_2 1_555 1_555
C79_2 N3_2 1_555 1_555
C80_2 N4_2 1_555 1_555
C81_2 N5_2 1_555 1_555
C82_2 N6_2 1_555 1_555
H40_2 C78_2 1_555 1_555
H41_2 C79_2 1_555 1_555
H42_2 C80_2 1_555 1_555
H43_2 C81_2 1_555 1_555
H44_2 C82_2 1_555 1_555
O38_4 Cu2_2 1_555 1_555
O39_2 Cu3_2 1_555 1_555
O40_2 Cu4_2 1_555 1_555
H45_4 O38_4 1_555 1_555
H46_2 O39_2 1_555 1_555
H47_2 O40_2 1_555 1_555
C84_2 O39_2 1_555 1_555
C85_2 O40_2 1_555 1_555
H51_2 C84_2 1_555 1_555
H52_2 C85_2 1_555 1_555
H53_3 C86_3 1_555 1_555
H57_2 C85_2 1_555 1_555
H58_3 C86_3 1_555 1_555
C89_2 C84_2 1_555 1_555
C90_2 C85_2 1_555 1_555
C91_3 C86_3 1_555 1_555
H61_2 C89_2 1_555 1_555
H62_2 C90_2 1_555 1_555
H63_3 C91_3 1_555 1_555
H66_2 C89_2 1_555 1_555
H67_2 C90_2 1_555 1_555
H68_3 C91_3 1_555 1_555
H71_2 C89_2 1_555 1_555
H72_2 C90_2 1_555 1_555
H73_3 C91_3 1_555 1_555
C7_2 C8_2 1_555 1_555
C8_2 C9_2 1_555 1_555
C13_2 C14_2 1_555 1_555
C43_2 C48_2 1_555 1_555
C44_2 C49_2 1_555 1_555
C48_2 C53_2 1_555 1_555
C49_2 C54_2 1_555 1_555
C63_2 C68_2 1_555 1_555
C69_2 C70_2 1_555 1_555
C71_2 C72_2 1_555 1_555
C73_2 C78_2 1_555 1_555
C74_2 C79_2 1_555 1_555
C75_2 C80_2 1_555 1_555
C76_2 C81_2 1_555 1_555
C77_2 C82_2 1_555 1_555
H1_2 O5_2 1_555 1_555
H2_2 O5_2 1_555 1_555
Cu5_2 N7_3 1_555 1_555
Cu6_2 N8_2 1_555 1_555
Cu12_2 O11_2 1_555 1_555
Cl6_2 C35_2 1_555 1_555
Cl7_2 C36_2 1_555 1_555
Cl8_2 C37_2 1_555 1_555
Cl11_2 C45_2 1_555 1_555
Cl12_2 C46_2 1_555 1_555
Cl13_2 C47_2 1_555 1_555
Cl16_2 C55_2 1_555 1_555
Cl17_2 C56_2 1_555 1_555
Cl18_2 C57_2 1_555 1_555
O9_2 Cu5_2 1_555 1_555
O10_2 Cu6_2 1_555 1_555
O11_2 C21_2 1_555 1_555
O15_2 C19_2 1_555 1_555
O16_2 C20_2 1_555 1_555
O17_2 C21_2 1_555 1_555
O25_2 C25_2 1_555 1_555
O24_2 C26_2 1_555 1_555
O26_3 Cu5_2 1_555 1_555
O27_2 Cu6_2 1_555 1_555
O30_2 C24_2 1_555 1_555
O31_2 C25_2 1_555 1_555
O32_2 C26_2 1_555 1_555
O36_3 Cu5_2 1_555 1_555
O37_2 Cu6_2 1_555 1_555
H17_3 O36_3 1_555 1_555
H18_2 O37_2 1_555 1_555
H22_3 O36_3 1_555 1_555
H23_2 O37_2 1_555 1_555
C19_2 O9_2 1_555 1_555
C20_2 O10_2 1_555 1_555
C21_2 C32_2 1_555 1_555
C24_2 O20_2 1_555 1_555
C25_2 C41_2 1_555 1_555
C26_2 C42_2 1_555 1_555
C27_2 H24_2 1_555 1_555
C30_2 C19_2 1_555 1_555
C31_2 C20_2 1_555 1_555
C32_2 C37_2 1_555 1_555
C35_2 C30_2 1_555 1_555
C36_2 C31_2 1_555 1_555
C37_2 C42_2 1_555 1_555
C40_2 C24_2 1_555 1_555
C41_2 C36_2 1_555 1_555
C42_2 C47_2 1_555 1_555
C45_2 C40_2 1_555 1_555
C46_2 C41_2 1_555 1_555
C47_2 C52_2 1_555 1_555
C50_2 C27_2 1_555 1_555
C51_2 C27_2 1_555 1_555
C52_2 C27_2 1_555 1_555
C55_2 C30_2 1_555 1_555
C56_2 C31_2 1_555 1_555
C57_2 C32_2 1_555 1_555
O41_3 Cu5_2 1_555 1_555
O42_2 Cu6_2 1_555 1_555
H48_3 O41_3 1_555 1_555
H49_2 O42_2 1_555 1_555
C87_2 O42_2 1_555 1_555
H54_2 C87_2 1_555 1_555
H59_2 C87_2 1_555 1_555
C92_2 C87_2 1_555 1_555
H64_2 C92_2 1_555 1_555
H69_2 C92_2 1_555 1_555
H74_2 C92_2 1_555 1_555
C35_2 C40_2 1_555 1_555
C45_2 C50_2 1_555 1_555
C46_2 C51_2 1_555 1_555
C50_2 C55_2 1_555 1_555
C51_2 C56_2 1_555 1_555
C52_2 C57_2 1_555 1_555
Cl1_3 C5_3 1_555 1_555
Cl2_3 C7_3 1_555 1_555
Cl3_3 C9_3 1_555 1_555
O1_3 Cu14_2 1_555 1_555
O2_3 C1_3 1_555 1_555
O3_3 C2_3 1_555 1_555
O4_3 C2_3 1_555 1_555
O5_3 Cu14_2 1_555 1_555
H1_3 O5_3 1_555 1_555
H2_3 O5_3 1_555 1_555
C1_3 O1_3 1_555 1_555
C2_3 C6_3 1_555 1_555
C3_3 H3_3 1_555 1_555
C4_3 C1_3 1_555 1_555
C5_3 C4_3 1_555 1_555
C6_3 C5_3 1_555 1_555
C7_3 C6_3 1_555 1_555
C8_3 C3_3 1_555 1_555
C9_3 C4_3 1_555 1_555
O6_3 Cu14_2 1_555 1_555
H8_3 O6_3 1_555 1_555
Cu7 N7_4 1_555 1_555
Cu8_3 O18_3 1_555 1_555
Cl4_3 C33_3 1_555 1_555
Cl5_3 C34_3 1_555 1_555
Cl6_3 C35_3 1_555 1_555
Cl9_3 C43_3 1_555 1_555
Cl10_3 C44_3 1_555 1_555
Cl11_3 C45_3 1_555 1_555
Cl14_3 C53_3 1_555 1_555
Cl15_3 C54_3 1_555 1_555
Cl16_3 C55_3 1_555 1_555
O7_3 Cu13_2 1_555 1_555
O9_3 Cu7 1_555 1_555
O13_3 C17_3 1_555 1_555
O14_3 C18_3 1_555 1_555
O15_3 C19_3 1_555 1_555
O18_3 C22_3 1_555 1_555
O19_3 C23_3 1_555 1_555
O20_3 Cu14_2 1_555 1_555
O24_3 Cu13_2 1_555 1_555
O28_3 C22_3 1_555 1_555
O29_3 C23_3 1_555 1_555
O30_3 C24_3 1_555 1_555
O34_3 Cu13_2 1_555 1_555
O36_4 Cu7 1_555 1_555
H15_3 O34_3 1_555 1_555
H17_4 O36_4 1_555 1_555
H20_3 O34_3 1_555 1_555
H22_4 O36_4 1_555 1_555
C17_3 O7_3 1_555 1_555
C18_3 O12_4 1_555 1_555
C19_3 O9_3 1_555 1_555
C22_3 C38_3 1_555 1_555
C23_3 C39_3 1_555 1_555
C24_3 O20_3 1_555 1_555
C27_3 H24_3 1_555 1_555
C28_3 C17_3 1_555 1_555
C29_3 C18_3 1_555 1_555
C30_3 C19_3 1_555 1_555
C33_3 C28_3 1_555 1_555
C34_3 C29_3 1_555 1_555
C35_3 C30_3 1_555 1_555
C38_3 C33_3 1_555 1_555
C39_3 C34_3 1_555 1_555
C40_3 C24_3 1_555 1_555
C43_3 C38_3 1_555 1_555
C44_3 C39_3 1_555 1_555
C45_3 C40_3 1_555 1_555
C48_3 C3_3 1_555 1_555
C49_3 C3_3 1_555 1_555
C50_3 C27_3 1_555 1_555
C53_3 C28_3 1_555 1_555
C54_3 C29_3 1_555 1_555
C55_3 C30_3 1_555 1_555
O39_3 Cu13_2 1_555 1_555
O41_4 Cu7 1_555 1_555
H46_3 O39_3 1_555 1_555
H48_4 O41_4 1_555 1_555
C84_3 O39_3 1_555 1_555
C86_4 O41_4 1_555 1_555
H51_3 C84_3 1_555 1_555
H53_4 C86_4 1_555 1_555
H56_3 C84_3 1_555 1_555
H58_4 C86_4 1_555 1_555
C89_3 C84_3 1_555 1_555
C91_4 C86_4 1_555 1_555
H61_3 C89_3 1_555 1_555
H63_4 C91_4 1_555 1_555
H66_3 C89_3 1_555 1_555
H68_4 C91_4 1_555 1_555
H71_3 C89_3 1_555 1_555
H73_4 C91_4 1_555 1_555
C7_3 C8_3 1_555 1_555
C8_3 C9_3 1_555 1_555
C35_3 C40_3 1_555 1_555
C43_3 C48_3 1_555 1_555
C44_3 C49_3 1_555 1_555
C45_3 C50_3 1_555 1_555
C48_3 C53_3 1_555 1_555
C49_3 C54_3 1_555 1_555
C50_3 C55_3 1_555 1_555
Cl7_3 C36_3 1_555 1_555
Cl12_3 C46_3 1_555 1_555
O23_4 C25_3 1_555 1_555
O31_3 C25_3 1_555 1_555
C25_3 C41_3 1_555 1_555
C27_4 H24_4 1_555 1_555
C36_3 C31_3 1_555 1_555
C41_3 C36_3 1_555 1_555
C46_3 C41_3 1_555 1_555
C51_3 C27_4 1_555 1_555
H49_3 O42_3 1_555 1_555
C87_3 O42_3 1_555 1_555
H54_3 C87_3 1_555 1_555
H59_3 C87_3 1_555 1_555
C92_3 C87_3 1_555 1_555
H64_3 C92_3 1_555 1_555
H69_3 C92_3 1_555 1_555
H74_3 C92_3 1_555 1_555
C46_3 C51_3 1_555 1_555
H9_3 C15_3 1_555 1_555
H10_3 C15_3 1_555 1_555
C16_3 C15_3 1_555 1_555
H11_3 C16_3 1_555 1_555
H12_3 C16_3 1_555 1_555
H13_3 C16_3 1_555 1_555
Cu8 O11_3 1_555 1_555
Cl18_3 C57_3 1_555 1_555
O11_3 C21_3 1_555 1_555
C27_5 H24_5 1_555 1_555
Cu9 N8_3 1_555 1_555
Cl8_3 C37_3 1_555 1_555
Cl13_3 C47_3 1_555 1_555
Cl17_3 C56_3 1_555 1_555
O10_3 Cu9 1_555 1_555
O24_3 C26_3 1_555 1_555
O32_3 C26_3 1_555 1_555
O37_3 Cu9 1_555 1_555
H18_3 O37_3 1_555 1_555
H23_3 O37_3 1_555 1_555
C20_3 O10_3 1_555 1_555
C26_3 C42_3 1_555 1_555
C27_6 H24_6 1_555 1_555
C32_3 C37_3 1_555 1_555
C37_3 C42_3 1_555 1_555
C42_3 C47_3 1_555 1_555
C47_3 C52_3 1_555 1_555
C52_3 C27_6 1_555 1_555
Cu8 N7_5 1_555 1_555
O36_5 Cu8 1_555 1_555
H17_5 O36_5 1_555 1_555
H22_5 O36_5 1_555 1_555
H48_5 O41_5 1_555 1_555
C86_5 O41_5 1_555 1_555
H53_5 C86_5 1_555 1_555
H58_5 C86_5 1_555 1_555
C91_5 C86_5 1_555 1_555
H63_5 C91_5 1_555 1_555
H68_5 C91_5 1_555 1_555
H73_5 C91_5 1_555 1_555
C3_4 H3_4 1_555 1_555
Cu3_3 N3_3 1_555 1_555
Cu13_3 N4_3 1_555 1_555
Cl5_4 C34_4 1_555 1_555
Cl10_4 C44_4 1_555 1_555
Cl14_4 C53_4 1_555 1_555
N3_3 C59_3 1_555 1_555
N4_3 C60_3 1_555 1_555
O7_4 Cu3_3 1_555 1_555
O27_2 C23_4 1_555 1_555
O24_4 Cu3_3 1_555 1_555
O29_4 C23_4 1_555 1_555
O34_4 Cu3_3 1_555 1_555
H15_4 O34_4 1_555 1_555
H20_4 O34_4 1_555 1_555
C17_4 O7_4 1_555 1_555
C23_4 C39_4 1_555 1_555
C34_4 C29_4 1_555 1_555
C39_4 C34_4 1_555 1_555
C44_4 C39_4 1_555 1_555
C49_4 C3_4 1_555 1_555
C59_3 H26_3 1_555 1_555
C60_3 H27_3 1_555 1_555
C64_3 C59_3 1_555 1_555
C65_3 C60_3 1_555 1_555
H31_3 C64_3 1_555 1_555
H32_3 C65_3 1_555 1_555
C69_3 C64_3 1_555 1_555
C70_3 C65_3 1_555 1_555
C74_3 C69_3 1_555 1_555
C75_3 C70_3 1_555 1_555
H36_3 C74_3 1_555 1_555
H37_3 C75_3 1_555 1_555
C79_3 N3_3 1_555 1_555
C80_3 N4_3 1_555 1_555
H41_3 C79_3 1_555 1_555
H42_3 C80_3 1_555 1_555
H45_5 O38_5 1_555 1_555
H47_3 O40_3 1_555 1_555
C83_5 O38_5 1_555 1_555
C85_3 O40_3 1_555 1_555
H50_5 C83_5 1_555 1_555
H52_3 C85_3 1_555 1_555
H55_5 C83_5 1_555 1_555
H57_3 C85_3 1_555 1_555
C88_5 C83_5 1_555 1_555
C90_3 C85_3 1_555 1_555
H60_5 C88_5 1_555 1_555
H62_3 C90_3 1_555 1_555
H65_5 C88_5 1_555 1_555
H67_3 C90_3 1_555 1_555
H70_5 C88_5 1_555 1_555
H72_3 C90_3 1_555 1_555
C44_4 C49_4 1_555 1_555
C69_3 C70_3 1_555 1_555
C74_3 C79_3 1_555 1_555
C75_3 C80_3 1_555 1_555
C3_5 H3_5 1_555 1_555
Cu4_3 N5_3 1_555 1_555
Cl15_4 C54_4 1_555 1_555
N5_3 C61_3 1_555 1_555
O8_3 Cu4_3 1_555 1_555
O25_3 Cu4_3 1_555 1_555
O35_3 Cu4_3 1_555 1_555
H16_3 O35_3 1_555 1_555
H21_3 O35_3 1_555 1_555
C18_4 O8_3 1_555 1_555
C61_3 H28_3 1_555 1_555
C66_3 C61_3 1_555 1_555
H33_3 C66_3 1_555 1_555
C71_3 C66_3 1_555 1_555
C76_3 C71_3 1_555 1_555
C81_3 N5_3 1_555 1_555
H43_3 C81_3 1_555 1_555
C76_3 C81_3 1_555 1_555
C3_6 H3_6 1_555 1_555
Cu2_3 N2_3 1_555 1_555
Cu12_2 O18_4 1_555 1_555
Cl4_4 C33_4 1_555 1_555
Cl9_4 C43_4 1_555 1_555
N2_3 C58_3 1_555 1_555
O12_5 Cu2_3 1_555 1_555
O18_4 C22_4 1_555 1_555
O23_5 Cu2_3 1_555 1_555
O28_4 C22_4 1_555 1_555
O33_5 Cu2_3 1_555 1_555
H14_5 O33_5 1_555 1_555
H17_6 O36_6 1_555 1_555
H19_5 O33_5 1_555 1_555
H22_6 O36_6 1_555 1_555
C22_4 C38_4 1_555 1_555
C33_4 C28_4 1_555 1_555
C38_4 C33_4 1_555 1_555
C43_4 C38_4 1_555 1_555
C48_4 C3_6 1_555 1_555
C58_3 H25_3 1_555 1_555
C63_3 C58_3 1_555 1_555
H30_3 C63_3 1_555 1_555
C73_3 C68_3 1_555 1_555
C78_3 N2_3 1_555 1_555
H40_3 C78_3 1_555 1_555
H46_4 O39_4 1_555 1_555
C84_4 O39_4 1_555 1_555
H51_4 C84_4 1_555 1_555
H56_4 C84_4 1_555 1_555
C89_4 C84_4 1_555 1_555
H61_4 C89_4 1_555 1_555
H66_4 C89_4 1_555 1_555
H71_4 C89_4 1_555 1_555
C43_4 C48_4 1_555 1_555
C63_3 C68_3 1_555 1_555
C73_3 C78_3 1_555 1_555
Cu1_3 N1_3 1_555 1_555
Cl1_4 C5_4 1_555 1_555
Cl2_4 C7_4 1_555 1_555
Cl3_4 C9_4 1_555 1_555
N1_3 C10_3 1_555 1_555
O1_4 Cu1_3 1_555 1_555
O2_4 C1_4 1_555 1_555
O26_3 C2_4 1_555 1_555
O4_4 C2_4 1_555 1_555
O5_4 Cu1_3 1_555 1_555
H1_4 O5_4 1_555 1_555
H2_4 O5_4 1_555 1_555
C1_4 O1_4 1_555 1_555
C2_4 C6_4 1_555 1_555
C3_7 H3_7 1_555 1_555
C4_4 C1_4 1_555 1_555
C5_4 C4_4 1_555 1_555
C6_4 C5_4 1_555 1_555
C7_4 C6_4 1_555 1_555
C8_4 C3_7 1_555 1_555
C9_4 C4_4 1_555 1_555
C10_3 H4_3 1_555 1_555
C11_3 C10_3 1_555 1_555
H5_3 C11_3 1_555 1_555
C12_3 C11_3 1_555 1_555
C13_3 C12_3 1_555 1_555
C14_3 N1_3 1_555 1_555
H7_3 C14_3 1_555 1_555
O6_4 Cu1_3 1_555 1_555
H8_4 O6_4 1_555 1_555
C15_4 O6_4 1_555 1_555
H9_4 C15_4 1_555 1_555
H10_4 C15_4 1_555 1_555
C16_4 C15_4 1_555 1_555
H11_4 C16_4 1_555 1_555
H12_4 C16_4 1_555 1_555
H13_4 C16_4 1_555 1_555
Cu5_3 N7_6 1_555 1_555
Cu6_3 N8_4 1_555 1_555
Cu12_3 O11_4 1_555 1_555
Cu14_3 N6_3 1_555 1_555
Cl6_4 C35_4 1_555 1_555
Cl7_4 C36_4 1_555 1_555
Cl8_4 C37_4 1_555 1_555
Cl11_4 C45_4 1_555 1_555
Cl12_4 C46_4 1_555 1_555
Cl13_4 C47_4 1_555 1_555
Cl16_4 C55_4 1_555 1_555
Cl17_4 C56_4 1_555 1_555
Cl18_4 C57_4 1_555 1_555
N6_3 C62_3 1_555 1_555
O9_4 Cu5_3 1_555 1_555
O10_4 Cu6_3 1_555 1_555
O11_4 C21_4 1_555 1_555
O15_4 C19_4 1_555 1_555
O16_4 C20_4 1_555 1_555
O17_4 C21_4 1_555 1_555
O20_4 Cu1_3 1_555 1_555
O25_3 C25_4 1_555 1_555
O24_4 C26_4 1_555 1_555
O30_4 C24_4 1_555 1_555
O31_4 C25_4 1_555 1_555
O32_4 C26_4 1_555 1_555
C19_4 O9_4 1_555 1_555
C20_4 O10_4 1_555 1_555
C21_4 C32_4 1_555 1_555
C24_4 O20_4 1_555 1_555
C25_4 C41_4 1_555 1_555
C26_4 C42_4 1_555 1_555
C27_7 H24_7 1_555 1_555
C30_4 C19_4 1_555 1_555
C31_4 C20_4 1_555 1_555
C32_4 C37_4 1_555 1_555
C35_4 C30_4 1_555 1_555
C36_4 C31_4 1_555 1_555
C37_4 C42_4 1_555 1_555
C40_4 C24_4 1_555 1_555
C41_4 C36_4 1_555 1_555
C42_4 C47_4 1_555 1_555
C45_4 C40_4 1_555 1_555
C46_4 C41_4 1_555 1_555
C47_4 C52_4 1_555 1_555
C50_4 C27_7 1_555 1_555
C51_4 C27_7 1_555 1_555
C52_4 C27_7 1_555 1_555
C55_4 C30_4 1_555 1_555
C56_4 C31_4 1_555 1_555
C57_4 C32_4 1_555 1_555
C62_3 H29_3 1_555 1_555
C67_3 C62_3 1_555 1_555
H34_3 C67_3 1_555 1_555
C72_3 C67_3 1_555 1_555
C77_3 C72_3 1_555 1_555
C82_3 N6_3 1_555 1_555
H44_3 C82_3 1_555 1_555
O41_6 Cu5_3 1_555 1_555
O42_4 Cu6_3 1_555 1_555
H48_6 O41_6 1_555 1_555
H49_4 O42_4 1_555 1_555
C86_6 O41_6 1_555 1_555
C87_4 O42_4 1_555 1_555
H53_6 C86_6 1_555 1_555
H54_4 C87_4 1_555 1_555
C91_6 C86_6 1_555 1_555
C92_4 C87_4 1_555 1_555
H63_6 C91_6 1_555 1_555
H64_4 C92_4 1_555 1_555
H68_6 C91_6 1_555 1_555
H69_4 C92_4 1_555 1_555
H73_6 C91_6 1_555 1_555
H74_4 C92_4 1_555 1_555
C7_4 C8_4 1_555 1_555
C8_4 C9_4 1_555 1_555
C13_3 C14_3 1_555 1_555
C35_4 C40_4 1_555 1_555
C45_4 C50_4 1_555 1_555
C46_4 C51_4 1_555 1_555
C50_4 C55_4 1_555 1_555
C51_4 C56_4 1_555 1_555
C52_4 C57_4 1_555 1_555
C77_3 C82_3 1_555 1_555
H18_4 O37_4 1_555 1_555
H23_4 O37_4 1_555 1_555
C3_8 H3_8 1_555 1_555
Cl5_5 C34_5 1_555 1_555
Cl10_5 C44_5 1_555 1_555
Cl14_5 C53_5 1_555 1_555
O7_5 Cu13_3 1_555 1_555
O27 C23_5 1_555 1_555
O24_5 Cu13_3 1_555 1_555
O29_5 C23_5 1_555 1_555
O34_5 Cu13_3 1_555 1_555
H15_5 O34_5 1_555 1_555
H20_5 O34_5 1_555 1_555
C17_5 O7_5 1_555 1_555
C23_5 C39_5 1_555 1_555
C34_5 C29_5 1_555 1_555
C39_5 C34_5 1_555 1_555
C44_5 C39_5 1_555 1_555
C49_5 C3_8 1_555 1_555
C44_5 C49_5 1_555 1_555
C3_9 H3_9 1_555 1_555
Cl4_5 C33_5 1_555 1_555
Cl9_5 C43_5 1_555 1_555
O26_2 C22_5 1_555 1_555
O28_5 C22_5 1_555 1_555
H17_7 O36_7 1_555 1_555
H22_7 O36_7 1_555 1_555
C22_5 C38_5 1_555 1_555
C33_5 C28_5 1_555 1_555
C38_5 C33_5 1_555 1_555
C43_5 C38_5 1_555 1_555
C48_5 C3_9 1_555 1_555
H46_5 O39_5 1_555 1_555
C84_5 O39_5 1_555 1_555
H51_5 C84_5 1_555 1_555
H56_5 C84_5 1_555 1_555
C89_5 C84_5 1_555 1_555
H61_5 C89_5 1_555 1_555
H66_5 C89_5 1_555 1_555
H71_5 C89_5 1_555 1_555
C43_5 C48_5 1_555 1_555
C3_10 H3_10 1_555 1_555
Cl15_5 C54_5 1_555 1_555
C18_5 O12_5 1_555 1_555
Cl1_5 C5_5 1_555 1_555
Cl2_5 C7_5 1_555 1_555
Cl3_5 C9_5 1_555 1_555
O1_5 Cu14_3 1_555 1_555
O2_5 C1_5 1_555 1_555
O26 C2_5 1_555 1_555
O4_5 C2_5 1_555 1_555
O5_5 Cu14_3 1_555 1_555
H1_5 O5_5 1_555 1_555
H2_5 O5_5 1_555 1_555
C1_5 O1_5 1_555 1_555
C2_5 C6_5 1_555 1_555
C3_11 H3_11 1_555 1_555
C4_5 C1_5 1_555 1_555
C5_5 C4_5 1_555 1_555
C6_5 C5_5 1_555 1_555
C7_5 C6_5 1_555 1_555
C8_5 C3_11 1_555 1_555
C9_5 C4_5 1_555 1_555
O6_5 Cu14_3 1_555 1_555
H8_5 O6_5 1_555 1_555
C15_5 O6_5 1_555 1_555
H9_5 C15_5 1_555 1_555
H10_5 C15_5 1_555 1_555
C16_5 C15_5 1_555 1_555
H11_5 C16_5 1_555 1_555
H12_5 C16_5 1_555 1_555
H13_5 C16_5 1_555 1_555
Cu7_3 N7_7 1_555 1_555
Cu9_3 N8_5 1_555 1_555
Cu8_3 O11_5 1_555 1_555
Cl6_5 C35_5 1_555 1_555
Cl7_5 C36_5 1_555 1_555
Cl8_5 C37_5 1_555 1_555
Cl11_5 C45_5 1_555 1_555
Cl12_5 C46_5 1_555 1_555
Cl13_5 C47_5 1_555 1_555
Cl16_5 C55_5 1_555 1_555
Cl17_5 C56_5 1_555 1_555
Cl18_5 C57_5 1_555 1_555
O9_5 Cu7_3 1_555 1_555
O10_5 Cu9_3 1_555 1_555
O11_5 C21_5 1_555 1_555
O15_5 C19_5 1_555 1_555
O16_5 C20_5 1_555 1_555
O17_5 C21_5 1_555 1_555
O20_5 Cu14_3 1_555 1_555
O23_5 C25_5 1_555 1_555
O24_5 C26_5 1_555 1_555
O30_5 C24_5 1_555 1_555
O31_5 C25_5 1_555 1_555
O32_5 C26_5 1_555 1_555
C19_5 O9_5 1_555 1_555
C20_5 O10_5 1_555 1_555
C21_5 C32_5 1_555 1_555
C24_5 O20_5 1_555 1_555
C25_5 C41_5 1_555 1_555
C26_5 C42_5 1_555 1_555
C27_8 H24_8 1_555 1_555
C30_5 C19_5 1_555 1_555
C31_5 C20_5 1_555 1_555
C32_5 C37_5 1_555 1_555
C35_5 C30_5 1_555 1_555
C36_5 C31_5 1_555 1_555
C37_5 C42_5 1_555 1_555
C40_5 C24_5 1_555 1_555
C41_5 C36_5 1_555 1_555
C42_5 C47_5 1_555 1_555
C45_5 C40_5 1_555 1_555
C46_5 C41_5 1_555 1_555
C47_5 C52_5 1_555 1_555
C50_5 C27_8 1_555 1_555
C51_5 C27_8 1_555 1_555
C52_5 C27_8 1_555 1_555
C55_5 C30_5 1_555 1_555
C56_5 C31_5 1_555 1_555
C57_5 C32_5 1_555 1_555
O41_7 Cu7_3 1_555 1_555
O42_5 Cu9_3 1_555 1_555
H48_7 O41_7 1_555 1_555
H49_5 O42_5 1_555 1_555
C86_7 O41_7 1_555 1_555
C87_5 O42_5 1_555 1_555
H53_7 C86_7 1_555 1_555
H54_5 C87_5 1_555 1_555
C91_7 C86_7 1_555 1_555
C92_5 C87_5 1_555 1_555
H63_7 C91_7 1_555 1_555
H64_5 C92_5 1_555 1_555
H68_7 C91_7 1_555 1_555
H69_5 C92_5 1_555 1_555
H73_7 C91_7 1_555 1_555
H74_5 C92_5 1_555 1_555
C7_5 C8_5 1_555 1_555
C8_5 C9_5 1_555 1_555
C35_5 C40_5 1_555 1_555
C45_5 C50_5 1_555 1_555
C46_5 C51_5 1_555 1_555
C50_5 C55_5 1_555 1_555
C51_5 C56_5 1_555 1_555
C52_5 C57_5 1_555 1_555
H18_5 O37_5 1_555 1_555
H23_5 O37_5 1_555 1_555
Cu7_2 N7_8 1_555 1_555
Cl6_6 C35_6 1_555 1_555
Cl11_6 C45_6 1_555 1_555
Cl16_6 C55_6 1_555 1_555
O9_6 Cu7_2 1_555 1_555
O15_6 C19_6 1_555 1_555
O30_6 C24_6 1_555 1_555
O36_8 Cu7_2 1_555 1_555
H17_8 O36_8 1_555 1_555
H22_8 O36_8 1_555 1_555
C19_6 O9_6 1_555 1_555
C24_6 O23_3 1_555 1_555
C27_9 H24_9 1_555 1_555
C30_6 C19_6 1_555 1_555
C35_6 C30_6 1_555 1_555
C40_6 C24_6 1_555 1_555
C45_6 C40_6 1_555 1_555
C50_6 C27_9 1_555 1_555
C55_6 C30_6 1_555 1_555
O41_8 Cu7_2 1_555 1_555
H48_8 O41_8 1_555 1_555
C86_8 O41_8 1_555 1_555
H53_8 C86_8 1_555 1_555
H58_8 C86_8 1_555 1_555
C91_8 C86_8 1_555 1_555
H63_8 C91_8 1_555 1_555
H68_8 C91_8 1_555 1_555
H73_8 C91_8 1_555 1_555
C35_6 C40_6 1_555 1_555
C45_6 C50_6 1_555 1_555
C50_6 C55_6 1_555 1_555
Cl1_6 C5_6 1_555 1_555
Cl2_6 C7_6 1_555 1_555
Cl3_6 C9_6 1_555 1_555
O26_4 C2_6 1_555 1_555
O4_6 C2_6 1_555 1_555
C1_6 O12_3 1_555 1_555
C2_6 C6_6 1_555 1_555
C3_12 H3_12 1_555 1_555
C4_6 C1_6 1_555 1_555
C5_6 C4_6 1_555 1_555
C6_6 C5_6 1_555 1_555
C7_6 C6_6 1_555 1_555
C8_6 C3_12 1_555 1_555
C9_6 C4_6 1_555 1_555
Cu12_3 O18_5 1_555 1_555
Cl4_6 C33_6 1_555 1_555
Cl5_6 C34_6 1_555 1_555
Cl9_6 C43_6 1_555 1_555
Cl10_6 C44_6 1_555 1_555
Cl14_6 C53_6 1_555 1_555
Cl15_6 C54_6 1_555 1_555
O18_5 C22_6 1_555 1_555
O27_3 C23_6 1_555 1_555
O28_6 C22_6 1_555 1_555
O29_6 C23_6 1_555 1_555
C17_6 O12_2 1_555 1_555
C18_6 O12 1_555 1_555
C22_6 C38_6 1_555 1_555
C23_6 C39_6 1_555 1_555
C28_6 C17_6 1_555 1_555
C29_6 C18_6 1_555 1_555
C33_6 C28_6 1_555 1_555
C34_6 C29_6 1_555 1_555
C38_6 C33_6 1_555 1_555
C39_6 C34_6 1_555 1_555
C43_6 C38_6 1_555 1_555
C44_6 C39_6 1_555 1_555
C48_6 C3_12 1_555 1_555
C49_6 C3_12 1_555 1_555
C53_6 C28_6 1_555 1_555
C54_6 C29_6 1_555 1_555
C7_6 C8_6 1_555 1_555
C8_6 C9_6 1_555 1_555
C43_6 C48_6 1_555 1_555
C44_6 C49_6 1_555 1_555
C48_6 C53_6 1_555 1_555
C49_6 C54_6 1_555 1_555
Cu8_2 O11_6 1_555 1_555
Cl18_6 C57_6 1_555 1_555
O11_6 C21_6 1_555 1_555
C27_10 H24_10 1_555 1_555
Cl7_6 C36_6 1_555 1_555
Cl12_6 C46_6 1_555 1_555
O23 C25_6 1_555 1_555
O31_6 C25_6 1_555 1_555
C25_6 C41_6 1_555 1_555
C27_11 H24_11 1_555 1_555
C36_6 C31_6 1_555 1_555
C41_6 C36_6 1_555 1_555
C46_6 C41_6 1_555 1_555
C51_6 C27_11 1_555 1_555
H49_6 O42_6 1_555 1_555
C87_6 O42_6 1_555 1_555
H54_6 C87_6 1_555 1_555
H59_6 C87_6 1_555 1_555
C92_6 C87_6 1_555 1_555
H64_6 C92_6 1_555 1_555
H69_6 C92_6 1_555 1_555
H74_6 C92_6 1_555 1_555
C46_6 C51_6 1_555 1_555
Cu9_2 N8_6 1_555 1_555
Cl8_6 C37_6 1_555 1_555
Cl13_6 C47_6 1_555 1_555
Cl17_6 C56_6 1_555 1_555
O10_6 Cu9_2 1_555 1_555
O23_2 C26_6 1_555 1_555
O32_6 C26_6 1_555 1_555
O37_6 Cu9_2 1_555 1_555
H18_6 O37_6 1_555 1_555
H23_6 O37_6 1_555 1_555
C20_6 O10_6 1_555 1_555
C26_6 C42_6 1_555 1_555
C27_12 H24_12 1_555 1_555
C32_6 C37_6 1_555 1_555
C37_6 C42_6 1_555 1_555
C42_6 C47_6 1_555 1_555
C47_6 C52_6 1_555 1_555
C52_6 C27_12 1_555 1_555
Cu12_2 N7_9 1_555 1_555
O36_9 Cu12_2 1_555 1_555
H17_9 O36_9 1_555 1_555
H22_9 O36_9 1_555 1_555
O41_9 Cu12_2 1_555 1_555
H48_9 O41_9 1_555 1_555
H53_9 C86_9 1_555 1_555
H58_9 C86_9 1_555 1_555
C91_9 C86_9 1_555 1_555
H63_9 C91_9 1_555 1_555
H68_9 C91_9 1_555 1_555
H73_9 C91_9 1_555 1_555
Cu8_3 N7_10 1_555 1_555
O36_10 Cu8_3 1_555 1_555
H17_10 O36_10 1_555 1_555
H22_10 O36_10 1_555 1_555
O41_10 Cu8_3 1_555 1_555
H48_10 O41_10 1_555 1_555
C86_10 O41_10 1_555 1_555
H53_10 C86_10 1_555 1_555
H58_10 C86_10 1_555 1_555
C91_10 C86_10 1_555 1_555
H63_10 C91_10 1_555 1_555
H68_10 C91_10 1_555 1_555
H73_10 C91_10 1_555 1_555
Cu8_2 N7_11 1_555 1_555
O36_11 Cu8_2 1_555 1_555
H17_11 O36_11 1_555 1_555
H22_11 O36_11 1_555 1_555
H48_11 O41_11 1_555 1_555
C86_11 O41_11 1_555 1_555
H53_11 C86_11 1_555 1_555
H58_11 C86_11 1_555 1_555
C91_11 C86_11 1_555 1_555
H63_11 C91_11 1_555 1_555
H68_11 C91_11 1_555 1_555
H73_11 C91_11 1_555 1_555
Cu12_3 N7_12 1_555 1_555
O36_12 Cu12_3 1_555 1_555
H17_12 O36_12 1_555 1_555
H22_12 O36_12 1_555 1_555
O41_12 Cu12_3 1_555 1_555
H48_12 O41_12 1_555 1_555
C86_12 O41_12 1_555 1_555
H53_12 C86_12 1_555 1_555
H58_12 C86_12 1_555 1_555
C91_12 C86_12 1_555 1_555
H63_12 C91_12 1_555 1_555
H68_12 C91_12 1_555 1_555
H73_12 C91_12 1_555 1_555
N7_6 C10_4 1_555 1_555
C10_4 H4_4 1_555 1_555
C11_4 C10_4 1_555 1_555
H5_4 C11_4 1_555 1_555
C12_4 C11_4 1_555 1_555
C13_4 C12_4 1_555 1_555
H6_4 C13_4 1_555 1_555
C14_4 N7_6 1_555 1_555
H7_4 C14_4 1_555 1_555
N7_2 C58_4 1_555 1_555
N8_4 C59_4 1_555 1_555
N8 C60_4 1_555 1_555
N7_12 C61_4 1_555 1_555
N7 C62_4 1_555 1_555
C58_4 H25_4 1_555 1_555
C59_4 H26_4 1_555 1_555
C60_4 H27_4 1_555 1_555
C61_4 H28_4 1_555 1_555
C62_4 H29_4 1_555 1_555
C63_4 C58_4 1_555 1_555
C64_4 C59_4 1_555 1_555
C65_4 C60_4 1_555 1_555
C66_4 C61_4 1_555 1_555
C67_4 C62_4 1_555 1_555
H30_4 C63_4 1_555 1_555
H31_4 C64_4 1_555 1_555
H32_4 C65_4 1_555 1_555
H33_4 C66_4 1_555 1_555
H34_4 C67_4 1_555 1_555
C68_4 C12_4 1_555 1_555
C69_4 C64_4 1_555 1_555
C70_4 C65_4 1_555 1_555
C71_4 C66_4 1_555 1_555
C72_4 C67_4 1_555 1_555
C73_4 C68_4 1_555 1_555
C74_4 C69_4 1_555 1_555
C75_4 C70_4 1_555 1_555
C76_4 C71_4 1_555 1_555
C77_4 C72_4 1_555 1_555
H35_4 C73_4 1_555 1_555
H36_4 C74_4 1_555 1_555
H37_4 C75_4 1_555 1_555
H38_4 C76_4 1_555 1_555
H39_4 C77_4 1_555 1_555
C78_4 N7_2 1_555 1_555
C79_4 N8_4 1_555 1_555
C80_4 N8 1_555 1_555
C81_4 N7_12 1_555 1_555
C82_4 N7 1_555 1_555
H40_4 C78_4 1_555 1_555
H41_4 C79_4 1_555 1_555
H42_4 C80_4 1_555 1_555
H43_4 C81_4 1_555 1_555
H44_4 C82_4 1_555 1_555
C13_4 C14_4 1_555 1_555
C63_4 C68_4 1_555 1_555
C69_4 C70_4 1_555 1_555
C71_4 C72_4 1_555 1_555
C73_4 C78_4 1_555 1_555
C74_4 C79_4 1_555 1_555
C75_4 C80_4 1_555 1_555
C76_4 C81_4 1_555 1_555
C77_4 C82_4 1_555 1_555
N7_7 C10_5 1_555 1_555
C10_5 H4_5 1_555 1_555
C11_5 C10_5 1_555 1_555
H5_5 C11_5 1_555 1_555
C12_5 C11_5 1_555 1_555
C13_5 C12_5 1_555 1_555
H6_5 C13_5 1_555 1_555
C14_5 N7_7 1_555 1_555
H7_5 C14_5 1_555 1_555
N7_9 C58_5 1_555 1_555
N8_5 C59_5 1_555 1_555
N8_2 C60_5 1_555 1_555
N7_10 C61_5 1_555 1_555
N7_3 C62_5 1_555 1_555
C58_5 H25_5 1_555 1_555
C59_5 H26_5 1_555 1_555
C60_5 H27_5 1_555 1_555
C61_5 H28_5 1_555 1_555
C62_5 H29_5 1_555 1_555
C63_5 C58_5 1_555 1_555
C64_5 C59_5 1_555 1_555
C65_5 C60_5 1_555 1_555
C66_5 C61_5 1_555 1_555
C67_5 C62_5 1_555 1_555
H30_5 C63_5 1_555 1_555
H31_5 C64_5 1_555 1_555
H32_5 C65_5 1_555 1_555
H33_5 C66_5 1_555 1_555
H34_5 C67_5 1_555 1_555
C68_5 C12_5 1_555 1_555
C69_5 C64_5 1_555 1_555
C70_5 C65_5 1_555 1_555
C71_5 C66_5 1_555 1_555
C72_5 C67_5 1_555 1_555
C73_5 C68_5 1_555 1_555
C74_5 C69_5 1_555 1_555
C75_5 C70_5 1_555 1_555
C76_5 C71_5 1_555 1_555
C77_5 C72_5 1_555 1_555
H35_5 C73_5 1_555 1_555
H36_5 C74_5 1_555 1_555
H37_5 C75_5 1_555 1_555
H38_5 C76_5 1_555 1_555
H39_5 C77_5 1_555 1_555
C78_5 N7_9 1_555 1_555
C79_5 N8_5 1_555 1_555
C80_5 N8_2 1_555 1_555
C81_5 N7_10 1_555 1_555
C82_5 N7_3 1_555 1_555
H40_5 C78_5 1_555 1_555
H41_5 C79_5 1_555 1_555
H42_5 C80_5 1_555 1_555
H43_5 C81_5 1_555 1_555
H44_5 C82_5 1_555 1_555
C13_5 C14_5 1_555 1_555
C63_5 C68_5 1_555 1_555
C69_5 C70_5 1_555 1_555
C71_5 C72_5 1_555 1_555
C73_5 C78_5 1_555 1_555
C74_5 C79_5 1_555 1_555
C75_5 C80_5 1_555 1_555
C76_5 C81_5 1_555 1_555
C77_5 C82_5 1_555 1_555
N7_4 C10_6 1_555 1_555
C10_6 H4_6 1_555 1_555
C11_6 C10_6 1_555 1_555
H5_6 C11_6 1_555 1_555
C12_6 C11_6 1_555 1_555
C13_6 C12_6 1_555 1_555
C14_6 N7_4 1_555 1_555
H7_6 C14_6 1_555 1_555
N7_8 C62_6 1_555 1_555
C62_6 H29_6 1_555 1_555
C67_6 C62_6 1_555 1_555
H34_6 C67_6 1_555 1_555
C72_6 C67_6 1_555 1_555
C77_6 C72_6 1_555 1_555
C82_6 N7_8 1_555 1_555
H44_6 C82_6 1_555 1_555
C13_6 C14_6 1_555 1_555
C77_6 C82_6 1_555 1_555
N7_11 C58_6 1_555 1_555
C58_6 H25_6 1_555 1_555
C63_6 C58_6 1_555 1_555
H30_6 C63_6 1_555 1_555
C73_6 C68_6 1_555 1_555
C78_6 N7_11 1_555 1_555
H40_6 C78_6 1_555 1_555
C63_6 C68_6 1_555 1_555
C73_6 C78_6 1_555 1_555
N7_5 C61_6 1_555 1_555
C61_6 H28_6 1_555 1_555
C66_6 C61_6 1_555 1_555
H33_6 C66_6 1_555 1_555
C71_6 C66_6 1_555 1_555
C76_6 C71_6 1_555 1_555
C81_6 N7_5 1_555 1_555
H43_6 C81_6 1_555 1_555
C76_6 C81_6 1_555 1_555
N8_3 C59_6 1_555 1_555
N8_6 C60_6 1_555 1_555
C59_6 H26_6 1_555 1_555
C60_6 H27_6 1_555 1_555
C64_6 C59_6 1_555 1_555
C65_6 C60_6 1_555 1_555
H31_6 C64_6 1_555 1_555
H32_6 C65_6 1_555 1_555
C69_6 C64_6 1_555 1_555
C70_6 C65_6 1_555 1_555
C74_6 C69_6 1_555 1_555
C75_6 C70_6 1_555 1_555
H36_6 C74_6 1_555 1_555
H37_6 C75_6 1_555 1_555
C79_6 N8_3 1_555 1_555
C80_6 N8_6 1_555 1_555
H41_6 C79_6 1_555 1_555
H42_6 C80_6 1_555 1_555
C69_6 C70_6 1_555 1_555
C74_6 C79_6 1_555 1_555
C75_6 C80_6 1_555 1_555

#END
