
###############################################################################
#
# This file contains modified crystal structure data generated from the
# MOF subset of the Cambridge Structural Database (CSD) v543 
# hosted by the Cambridge Crystallographic Data Centre (CCDC).
#
# This work is licensed under the Creative Commons
# Attribution-NonCommercial-ShareAlike 4.0 International License.
# To view a copy of this license, visit
# http://creativecommons.org/licenses/by-nc-sa/4.0/
# or send a letter to
# Creative Commons, PO Box 1866, Mountain View, CA 94042, USA.
#
# CIF created using the CSD Python API on 29 September 2022
# The structure has been converted into the P1 space group
# The structure has a 3D framework
# The original CSD entry QITDII is in the monoclinic crystal system
# The framework has been calculated to contain at least 10.0% void space
# The void calculation uses a probe of radius 1.32A, grid spacing 0.4
#
###############################################################################

data_QITDII
_chemical_formula_moiety         '(C148 H128 Mn8 N24 O44 S16)n'
_symmetry_cell_setting           triclinic
_symmetry_space_group_name_H-M   'P 1'
_symmetry_Int_Tables_number      1
_space_group_name_Hall           'P 1'
loop_
_symmetry_equiv_pos_site_id
_symmetry_equiv_pos_as_xyz
1 x,y,z
_cell_length_a                   16.1369(3)
_cell_length_b                   12.8809(3)
_cell_length_c                   22.4044(4)
_cell_angle_alpha                90
_cell_angle_beta                 106.294(2)
_cell_angle_gamma                90
_cell_volume                     4469.88
loop_
_atom_site_label
_atom_site_type_symbol
_atom_site_fract_x
_atom_site_fract_y
_atom_site_fract_z
H17 H 0.2430 0.0147 0.4345
H18 H 0.3708 0.0099 0.5163
C33 C 0.46523(15) 0.0287(2) 0.36975(11)
H22 H 0.4756 0.0898 0.3509
C34 C 0.42034(15) 0.0351(2) 0.41360(11)
H23 H 0.4008 0.0990 0.4234
C6 C 0.25390(15) 0.37023(19) 0.70403(10)
C7 C 0.21800(14) 0.47257(18) 0.71702(9)
C8 C 0.12962(15) 0.48663(19) 0.70462(10)
H3 H 0.0924 0.4314 0.6900
C9 C 0.09686(15) 0.5814(2) 0.71384(10)
H4 H 0.0376 0.5917 0.7053
C10 C 0.15431(14) 0.66137(18) 0.73611(9)
C11 C 0.26963(15) 0.5577(2) 0.73809(10)
H5 H 0.3290 0.5497 0.7458
C23 C 0.07841(15) 0.7734(2) 0.41596(10)
H11 H 0.1085 0.7144 0.4339
C24 C 0.12263(15) 0.8577(2) 0.40268(10)
C25 C 0.07308(15) 0.9406(2) 0.37463(11)
H12 H 0.0995 0.9987 0.3635
C27 C 0.22005(15) 0.8595(2) 0.42005(12)
H14 H 0.2387 0.8612 0.3825
H15 H 0.2425 0.7965 0.4425
C28 C 0.25658(14) 0.9528(2) 0.45997(11)
H16 H 0.2279 0.9588 0.4925
C29 C 0.35373(14) 0.9492(2) 0.49001(10)
H19 H 0.3676 0.8882 0.5163
C30 C 0.40451(14) 0.9463(2) 0.44289(10)
C31 C 0.43552(15) 0.8549(2) 0.42618(11)
H20 H 0.4269 0.7931 0.4450
C32 C 0.47961(15) 0.8546(2) 0.38134(11)
H21 H 0.4997 0.7916 0.3707
N5 N 0.49465(12) 0.94015(17) 0.35279(8)
N6 N 0.23996(12) 0.65155(15) 0.74821(8)
S1 S 0.00087(4) 0.77986(6) 0.75221(3)
S2 S 0.12468(4) 0.79048(5) 0.74895(3)
O5 O 0.20144(10) 0.29716(13) 0.68840(7)
O6 O 0.33326(10) 0.36377(13) 0.70911(8)
Mn3 Mn 0.19995(2) 0.14978(3) 0.640904(14)
Mn5 Mn 0.57817(2) 0.93468(3) 0.286636(15)
Mn1 Mn 0.80005(2) 0.85022(3) 0.359096(14)
C1 C 0.78042(16) 0.78621(19) 0.48724(10)
C2 C 0.83244(15) 0.78363(18) 0.55470(10)
C3 C 0.79464(15) 0.77978(19) 0.60343(10)
H1 H 0.7349 0.7766 0.5954
C4 C 0.84714(15) 0.78083(19) 0.66373(10)
H2 H 0.8235 0.7792 0.6971
C5 C 0.93562(15) 0.78429(19) 0.67353(10)
N1 N 0.97391(12) 0.78765(17) 0.62794(8)
C22 C 0.99016(15) 0.7759(2) 0.40289(10)
H10 H 0.9622 0.7179 0.4126
C26 C 0.98481(15) 0.9382(2) 0.36294(11)
H13 H 0.9532 0.9958 0.3444
N4 N 0.94244(11) 0.85718(16) 0.37702(8)
C35 C 0.92115(15) 0.7879(2) 0.57006(10)
H24 H 0.9464 0.7913 0.5376
O1 O 0.70009(10) 0.79141(15) 0.47379(7)
O2 O 0.82376(10) 0.78344(14) 0.44863(7)
O9 O 0.65753(9) 0.81455(12) 0.34887(6)
H27 H 0.6522 0.8111 0.3855
H28 H 0.6520 0.7545 0.3325
O11 O 0.50834(12) 0.80031(16) 0.23687(8)
H31 H 0.5366 0.7614 0.2190
H32 H 0.4713 0.7648 0.2486
O12 O 0.79856(10) 0.70284(13) 0.31160(7)
O13 O 0.78116(11) 0.93100(16) 0.27523(7)
O14 O 0.64759(11) 0.93920(16) 0.21501(7)
C17 C 0.27261(15) 0.05451(19) 0.77536(10)
C18 C 0.23611(14) 0.02965(18) 0.82866(10)
C19 C 0.28589(15) 0.0096(2) 0.88831(10)
H8 H 0.3455 0.0030 0.8968
C21 C 0.15850(15) 0.01004(19) 0.92054(10)
N3 N 0.10781(12) 0.02238(16) 0.86289(8)
C37 C 0.14766(15) 0.03256(19) 0.81849(10)
H26 H 0.1135 0.0423 0.7779
S4 S 0.09441(4) 0.01093(5) 0.97386(3)
O7 O 0.21884(11) 0.06900(16) 0.72477(7)
O8 O 0.35241(11) 0.06080(16) 0.78499(7)
Mn6 Mn 0.42183(2) 0.06532(3) 0.713364(15)
C1_2 C 0.21958(16) 0.21379(19) 0.51276(10)
C2_2 C 0.16756(15) 0.21637(18) 0.44530(10)
C3_2 C 0.20536(15) 0.22022(19) 0.39657(10)
H1_2 H 0.2651 0.2234 0.4046
C4_2 C 0.15286(15) 0.21917(19) 0.33627(10)
H2_2 H 0.1765 0.2208 0.3029
C5_2 C 0.06438(15) 0.21571(19) 0.32647(10)
N1_2 N 0.02609(12) 0.21235(17) 0.37206(8)
C22_2 C 0.00984(15) 0.2241(2) 0.59711(10)
H10_2 H 0.0378 0.2821 0.5874
C26_2 C 0.01519(15) 0.0618(2) 0.63706(11)
H13_2 H 0.0468 0.0042 0.6556
N4_2 N 0.05756(11) 0.14282(16) 0.62298(8)
C35_2 C 0.07885(15) 0.2121(2) 0.42994(10)
H24_2 H 0.0536 0.2087 0.4624
O1_2 O 0.29991(10) 0.20859(15) 0.52621(7)
O2_2 O 0.17624(10) 0.21656(14) 0.55137(7)
O9_2 O 0.34247(9) 0.18545(12) 0.65113(6)
H27_2 H 0.3478 0.1889 0.6145
H28_2 H 0.3480 0.2455 0.6675
O11_2 O 0.49166(12) 0.19969(16) 0.76313(8)
H31_2 H 0.4634 0.2386 0.7810
H32_2 H 0.5287 0.2352 0.7514
N7 N 0.50535(12) 0.05985(17) 0.64721(8)
C6_2 C 0.74610(15) 0.62977(19) 0.29597(10)
C7_2 C 0.78200(14) 0.52743(18) 0.28298(9)
C8_2 C 0.87038(15) 0.51337(19) 0.29538(10)
H3_2 H 0.9076 0.5686 0.3100
C9_2 C 0.90314(15) 0.4186(2) 0.28616(10)
H4_2 H 0.9624 0.4083 0.2947
C10_2 C 0.84569(14) 0.33863(18) 0.26389(9)
C11_2 C 0.73037(15) 0.4423(2) 0.26191(10)
H5_2 H 0.6710 0.4503 0.2542
C23_2 C 0.92159(15) 0.2266(2) 0.58404(10)
H11_2 H 0.8915 0.2856 0.5661
C24_2 C 0.87737(15) 0.1423(2) 0.59732(10)
C25_2 C 0.92692(15) 0.0594(2) 0.62537(11)
H12_2 H 0.9005 0.0013 0.6365
C27_2 C 0.77995(15) 0.1405(2) 0.57995(12)
H14_2 H 0.7613 0.1388 0.6175
H15_2 H 0.7575 0.2035 0.5575
C28_2 C 0.74342(14) 0.0472(2) 0.54003(11)
H16_2 H 0.7721 0.0412 0.5075
C29_2 C 0.64627(14) 0.0508(2) 0.50999(10)
H19_2 H 0.6324 0.1118 0.4837
C30_2 C 0.59549(14) 0.0537(2) 0.55711(10)
C31_2 C 0.56448(15) 0.1451(2) 0.57382(11)
H20_2 H 0.5731 0.2069 0.5550
C32_2 C 0.52039(15) 0.1454(2) 0.61866(11)
H21_2 H 0.5003 0.2084 0.6293
N6_2 N 0.76004(12) 0.34845(15) 0.25179(8)
S1_2 S 0.99913(4) 0.22014(6) 0.24779(3)
S2_2 S 0.87532(4) 0.20952(5) 0.25105(3)
O6_2 O 0.66674(10) 0.63623(13) 0.29089(8)
C17_2 C 0.72739(15) 0.94549(19) 0.22464(10)
C18_2 C 0.76389(14) 0.97035(18) 0.17134(10)
C19_2 C 0.71411(15) 0.9904(2) 0.11169(10)
H8_2 H 0.6545 0.9970 0.1032
C21_2 C 0.84150(15) 0.98996(19) 0.07946(10)
N3_2 N 0.89219(12) 0.97762(16) 0.13711(8)
C37_2 C 0.85234(15) 0.96744(19) 0.18151(10)
H26_2 H 0.8865 0.9577 0.2221
S4_2 S 0.90559(4) 0.98907(5) 0.02614(3)
C12 C 0.72662(16) 0.0718(2) 0.37241(10)
C13 C 0.75334(15) 0.18157(18) 0.39140(10)
C14 C 0.83929(15) 0.2101(2) 0.40960(10)
H6 H 0.8820 0.1607 0.4117
C15 C 0.86152(16) 0.3119(2) 0.42456(11)
H7 H 0.9190 0.3328 0.4352
C16 C 0.79687(16) 0.38215(19) 0.42339(9)
N2 N 0.71299(13) 0.35725(16) 0.40647(9)
C17_3 C 0.72739(15) 0.55451(19) 0.72464(10)
C18_3 C 0.76389(14) 0.52965(18) 0.67134(10)
C19_3 C 0.71411(15) 0.5096(2) 0.61169(10)
H8_3 H 0.6545 0.5030 0.6032
C20 C 0.75350(15) 0.4995(2) 0.56455(10)
H9 H 0.7212 0.4859 0.5239
C21_3 C 0.84150(15) 0.51004(19) 0.57946(10)
N3_3 N 0.89219(12) 0.52238(16) 0.63711(8)
C36 C 0.69293(16) 0.2581(2) 0.38980(11)
H25 H 0.6348 0.2401 0.3764
C37_3 C 0.85234(15) 0.53256(19) 0.68151(10)
H26_3 H 0.8865 0.5423 0.7221
S3 S 0.81891(5) 0.51657(5) 0.44070(3)
S4_3 S 0.90559(4) 0.51093(5) 0.52614(3)
O3 O 0.77978(11) 0.00190(13) 0.39438(7)
O4 O 0.65214(10) 0.05990(13) 0.33610(7)
O7_2 O 0.78116(11) 0.56900(16) 0.77523(7)
O8_2 O 0.64759(11) 0.56080(16) 0.71501(7)
O10 O 0.48599(10) 0.03541(15) 0.22225(7)
H29 H 0.4394 0.0660 0.2225
H30 H 0.4891 0.0298 0.1851
Mn4 Mn 0.80005(2) 0.64978(3) 0.859096(14)
Mn6_2 Mn 0.57817(2) 0.56532(3) 0.786636(15)
C6_3 C 0.74610(15) 0.87023(19) 0.79597(10)
C7_3 C 0.78200(14) 0.97257(18) 0.78298(9)
C8_3 C 0.87038(15) 0.98663(19) 0.79538(10)
H3_3 H 0.9076 0.9314 0.8100
O5_2 O 0.79856(10) 0.79716(13) 0.81160(7)
O6_3 O 0.66674(10) 0.86377(13) 0.79089(8)
C23_3 C 0.07841(15) 0.7266(2) 0.91596(10)
H11_3 H 0.1085 0.7856 0.9339
C24_3 C 0.12263(15) 0.6423(2) 0.90268(10)
C25_3 C 0.07308(15) 0.5594(2) 0.87463(11)
H12_3 H 0.0995 0.5013 0.8635
C27_3 C 0.22005(15) 0.6405(2) 0.92005(12)
H14_3 H 0.2387 0.6388 0.8825
H15_3 H 0.2425 0.7035 0.9425
C28_3 C 0.25658(14) 0.5472(2) 0.95997(11)
H16_3 H 0.2279 0.5412 0.9925
H17_2 H 0.2430 0.4853 0.9345
C29_3 C 0.35373(14) 0.5508(2) 0.99001(10)
C30_3 C 0.40451(14) 0.5537(2) 0.94289(10)
C31_3 C 0.43552(15) 0.6451(2) 0.92618(11)
H20_3 H 0.4269 0.7069 0.9450
C32_3 C 0.47961(15) 0.6454(2) 0.88134(11)
H21_3 H 0.4997 0.7084 0.8707
C33_2 C 0.46523(15) 0.4713(2) 0.86975(11)
H22_2 H 0.4756 0.4102 0.8509
C34_2 C 0.42034(15) 0.4649(2) 0.91360(11)
H23_2 H 0.4008 0.4010 0.9234
N5_2 N 0.49465(12) 0.55985(17) 0.85279(8)
C1_3 C 0.78042(16) 0.71379(19) 0.98724(10)
C12_2 C 0.72662(16) 0.4282(2) 0.87241(10)
C13_2 C 0.75334(15) 0.31843(18) 0.89140(10)
C14_2 C 0.83929(15) 0.2899(2) 0.90960(10)
H6_2 H 0.8820 0.3393 0.9117
C15_2 C 0.86152(16) 0.1881(2) 0.92456(11)
H7_2 H 0.9190 0.1672 0.9352
C16_2 C 0.79687(16) 0.11785(19) 0.92339(9)
N2_2 N 0.71299(13) 0.14275(16) 0.90647(9)
C22_3 C 0.99016(15) 0.7241(2) 0.90289(10)
H10_3 H 0.9622 0.7821 0.9126
C26_3 C 0.98481(15) 0.5618(2) 0.86294(11)
H13_3 H 0.9532 0.5042 0.8444
N4_3 N 0.94244(11) 0.64282(16) 0.87702(8)
C36_2 C 0.69293(16) 0.2419(2) 0.88980(11)
H25_2 H 0.6348 0.2599 0.8764
O1_3 O 0.70009(10) 0.70859(15) 0.97379(7)
O2_3 O 0.82376(10) 0.71656(14) 0.94863(7)
O3_2 O 0.77978(11) 0.49810(13) 0.89438(7)
O4_2 O 0.65214(10) 0.44010(13) 0.83610(7)
O9_3 O 0.65753(9) 0.68545(12) 0.84887(6)
H27_3 H 0.6522 0.6889 0.8855
H28_3 H 0.6520 0.7455 0.8325
O10_2 O 0.48599(10) 0.46459(15) 0.72225(7)
H29_2 H 0.4394 0.4340 0.7225
H30_2 H 0.4891 0.4702 0.6851
O11_3 O 0.50834(12) 0.69969(16) 0.73687(8)
H31_3 H 0.5366 0.7386 0.7190
H32_3 H 0.4713 0.7352 0.7486
S3_2 S 0.18109(5) 0.01657(5) 0.05930(3)
Mn1_2 Mn 0.19995(2) 0.35022(3) 0.140904(14)
Mn2 Mn 0.42183(2) 0.43468(3) 0.213364(15)
C1_4 C 0.21958(16) 0.28621(19) 0.01276(10)
C12_3 C 0.27338(16) 0.5718(2) 0.12759(10)
C13_3 C 0.24666(15) 0.68157(18) 0.10860(10)
C14_3 C 0.16071(15) 0.7101(2) 0.09040(10)
H6_3 H 0.1180 0.6607 0.0883
C15_3 C 0.13848(16) 0.8119(2) 0.07544(11)
H7_3 H 0.0810 0.8328 0.0648
C16_3 C 0.20313(16) 0.88215(19) 0.07661(9)
N2_3 N 0.28701(13) 0.85725(16) 0.09353(9)
C22_4 C 0.00984(15) 0.2759(2) 0.09711(10)
H10_4 H 0.0378 0.2179 0.0874
C26_4 C 0.01519(15) 0.4382(2) 0.13706(11)
H13_4 H 0.0468 0.4958 0.1556
N4_4 N 0.05756(11) 0.35718(16) 0.12298(8)
C36_3 C 0.30707(16) 0.7581(2) 0.11020(11)
H25_3 H 0.3652 0.7401 0.1236
O1_4 O 0.29991(10) 0.29141(15) 0.02621(7)
O2_4 O 0.17624(10) 0.28344(14) 0.05137(7)
O3_3 O 0.22022(11) 0.50190(13) 0.10562(7)
O4_3 O 0.34786(10) 0.55990(13) 0.16390(7)
O9_4 O 0.34247(9) 0.31455(12) 0.15113(6)
H27_4 H 0.3478 0.3111 0.1145
H28_4 H 0.3480 0.2545 0.1675
O10_3 O 0.51401(10) 0.53541(15) 0.27775(7)
H29_3 H 0.5606 0.5660 0.2775
H30_3 H 0.5109 0.5298 0.3149
O11_4 O 0.49166(12) 0.30031(16) 0.26313(8)
H31_4 H 0.4634 0.2614 0.2810
H32_4 H 0.5287 0.2648 0.2514
N7_2 N 0.50535(12) 0.44015(17) 0.14721(8)
O12_2 O 0.20144(10) 0.20284(13) 0.18840(7)
O13_2 O 0.21884(11) 0.43100(16) 0.22477(7)
O14_2 O 0.35241(11) 0.43920(16) 0.28499(7)
C23_4 C 0.92159(15) 0.2734(2) 0.08404(10)
H11_4 H 0.8915 0.2144 0.0661
C24_4 C 0.87737(15) 0.3577(2) 0.09732(10)
C25_4 C 0.92692(15) 0.4406(2) 0.12537(11)
H12_4 H 0.9005 0.4987 0.1365
C27_4 C 0.77995(15) 0.3595(2) 0.07995(12)
H14_4 H 0.7613 0.3612 0.1175
H15_4 H 0.7575 0.2965 0.0575
C28_4 C 0.74342(14) 0.4528(2) 0.04003(11)
H16_4 H 0.7721 0.4588 0.0075
H17_3 H 0.7570 0.5147 0.0655
C29_4 C 0.64627(14) 0.4492(2) 0.00999(10)
C30_4 C 0.59549(14) 0.4463(2) 0.05711(10)
C31_4 C 0.56448(15) 0.3549(2) 0.07382(11)
H20_4 H 0.5731 0.2931 0.0550
C32_4 C 0.52039(15) 0.3546(2) 0.11866(11)
H21_4 H 0.5003 0.2916 0.1293
C33_3 C 0.53477(15) 0.5287(2) 0.13025(11)
H22_3 H 0.5244 0.5898 0.1491
C34_3 C 0.57966(15) 0.5351(2) 0.08640(11)
H23_3 H 0.5992 0.5990 0.0766
C12_4 C 0.27338(16) 0.9282(2) 0.62759(10)
C13_4 C 0.24666(15) 0.81843(18) 0.60860(10)
C14_4 C 0.16071(15) 0.7899(2) 0.59040(10)
H6_4 H 0.1180 0.8393 0.5883
C15_4 C 0.13848(16) 0.6881(2) 0.57544(11)
H7_4 H 0.0810 0.6672 0.5648
C16_4 C 0.20313(16) 0.61785(19) 0.57661(9)
N2_4 N 0.28701(13) 0.64275(16) 0.59353(9)
C17_4 C 0.27261(15) 0.44549(19) 0.27536(10)
C18_4 C 0.23611(14) 0.47035(18) 0.32866(10)
C19_4 C 0.28589(15) 0.4904(2) 0.38831(10)
H8_4 H 0.3455 0.4970 0.3968
C20_2 C 0.24650(15) 0.5005(2) 0.43545(10)
H9_2 H 0.2788 0.5141 0.4761
C21_4 C 0.15850(15) 0.48996(19) 0.42054(10)
N3_4 N 0.10781(12) 0.47762(16) 0.36289(8)
C36_4 C 0.30707(16) 0.7419(2) 0.61020(11)
H25_4 H 0.3652 0.7599 0.6236
C37_4 C 0.14766(15) 0.46744(19) 0.31849(10)
H26_4 H 0.1135 0.4577 0.2779
S3_3 S 0.18109(5) 0.48343(5) 0.55930(3)
S4_4 S 0.09441(4) 0.48907(5) 0.47386(3)
O3_4 O 0.22022(11) 0.99810(13) 0.60562(7)
O4_4 O 0.34786(10) 0.94010(13) 0.66390(7)
O10_4 O 0.51401(10) 0.96459(15) 0.77775(7)
H29_4 H 0.5606 0.9340 0.7775
H30_4 H 0.5109 0.9702 0.8149
C6_4 C 0.25390(15) 0.12977(19) 0.20403(10)
C7_4 C 0.21800(14) 0.02743(18) 0.21702(9)
C8_4 C 0.12962(15) 0.01337(19) 0.20462(10)
H3_4 H 0.0924 0.0686 0.1900
O6_4 O 0.33326(10) 0.13623(13) 0.20911(8)
C2_3 C 0.16756(15) 0.28363(18) 0.94530(10)
C3_3 C 0.20536(15) 0.27978(19) 0.89657(10)
H1_3 H 0.2651 0.2766 0.9046
C4_3 C 0.15286(15) 0.28083(19) 0.83627(10)
H2_3 H 0.1765 0.2792 0.8029
C5_3 C 0.06438(15) 0.28429(19) 0.82647(10)
N1_3 N 0.02609(12) 0.28765(17) 0.87206(8)
C20_3 C 0.24650(15) 0.9995(2) 0.93545(10)
H9_3 H 0.2788 0.9859 0.9761
C35_3 C 0.07885(15) 0.2879(2) 0.92994(10)
H24_3 H 0.0536 0.2913 0.9624
C9_3 C 0.90314(15) 0.0814(2) 0.78616(10)
H4_3 H 0.9624 0.0917 0.7947
C10_3 C 0.84569(14) 0.16137(18) 0.76389(9)
C11_3 C 0.73037(15) 0.0577(2) 0.76191(10)
H5_3 H 0.6710 0.0497 0.7542
H18_2 H 0.6292 0.5099 0.9837
H19_3 H 0.6324 0.3882 0.9837
N6_3 N 0.76004(12) 0.15155(15) 0.75179(8)
S1_3 S 0.99913(4) 0.27986(6) 0.74779(3)
S2_3 S 0.87532(4) 0.29048(5) 0.75105(3)
H17_4 H 0.7570 0.9853 0.5655
H18_3 H 0.6292 0.9901 0.4837
C33_4 C 0.53477(15) 0.9713(2) 0.63025(11)
H22_4 H 0.5244 0.9102 0.6491
C34_4 C 0.57966(15) 0.9649(2) 0.58640(11)
H23_4 H 0.5992 0.9010 0.5766
C9_4 C 0.09686(15) 0.9186(2) 0.21384(10)
H4_4 H 0.0376 0.9083 0.2053
C10_4 C 0.15431(14) 0.83863(18) 0.23611(9)
C11_4 C 0.26963(15) 0.9423(2) 0.23809(10)
H5_4 H 0.3290 0.9503 0.2458
H18_4 H 0.3708 0.4901 0.0163
H19_4 H 0.3676 0.6118 0.0163
N6_4 N 0.23996(12) 0.84845(15) 0.24821(8)
S1_4 S 0.00087(4) 0.72014(6) 0.25221(3)
S2_4 S 0.12468(4) 0.70952(5) 0.24895(3)
C2_4 C 0.83244(15) 0.71637(18) 0.05470(10)
C3_4 C 0.79464(15) 0.72022(19) 0.10343(10)
H1_4 H 0.7349 0.7234 0.0954
C4_4 C 0.84714(15) 0.71917(19) 0.16373(10)
H2_4 H 0.8235 0.7208 0.1971
C5_4 C 0.93562(15) 0.71571(19) 0.17353(10)
N1_4 N 0.97391(12) 0.71235(17) 0.12794(8)
C20_4 C 0.75350(15) 0.0005(2) 0.06455(10)
H9_4 H 0.7212 0.0141 0.0239
C35_4 C 0.92115(15) 0.7121(2) 0.07006(10)
H24_4 H 0.9464 0.7087 0.0376
S3_4 S 0.81891(5) 0.98343(5) 0.94070(3)
loop_
_geom_bond_atom_site_label_1
_geom_bond_atom_site_label_2
_geom_bond_site_symmetry_1
_geom_bond_site_symmetry_2
C33 H22 1_555 1_555
H23 C34 1_555 1_555
C33 C34 1_555 1_555
C6 C7 1_555 1_555
C7 C8 1_555 1_555
C8 H3 1_555 1_555
C9 C8 1_555 1_555
H4 C9 1_555 1_555
C10 C9 1_555 1_555
C11 C7 1_555 1_555
H5 C11 1_555 1_555
H11 C23 1_555 1_555
C24 C23 1_555 1_555
C25 C24 1_555 1_555
H12 C25 1_555 1_555
C27 C24 1_555 1_555
H14 C27 1_555 1_555
H15 C27 1_555 1_555
C28 C27 1_555 1_555
H16 C28 1_555 1_555
C29 C28 1_555 1_555
H19 C29 1_555 1_555
C30 C29 1_555 1_555
C31 C30 1_555 1_555
H20 C31 1_555 1_555
C32 C31 1_555 1_555
H21 C32 1_555 1_555
N5 C32 1_555 1_555
N6 C10 1_555 1_555
S2 C10 1_555 1_555
O5 C6 1_555 1_555
O6 C6 1_555 1_555
Mn3 O5 1_555 1_555
Mn5 N5 1_555 1_555
C11 N6 1_555 1_555
S1 S2 1_555 1_555
Mn1 N4 1_555 1_555
C1 C2 1_555 1_555
C2 C3 1_555 1_555
C3 H1 1_555 1_555
C4 C3 1_555 1_555
H2 C4 1_555 1_555
C5 C4 1_555 1_555
N1 C5 1_555 1_555
C22 H10 1_555 1_555
H13 C26 1_555 1_555
N4 C22 1_555 1_555
C35 C2 1_555 1_555
H24 C35 1_555 1_555
O1 C1 1_555 1_555
O2 Mn1 1_555 1_555
O9 Mn1 1_555 1_555
H27 O9 1_555 1_555
H28 O9 1_555 1_555
O11 Mn5 1_555 1_555
H31 O11 1_555 1_555
H32 O11 1_555 1_555
O12 Mn1 1_555 1_555
O13 Mn1 1_555 1_555
O14 Mn5 1_555 1_555
Mn5 O9 1_555 1_555
C1 O2 1_555 1_555
N1 C35 1_555 1_555
C26 N4 1_555 1_555
C17 C18 1_555 1_555
C18 C19 1_555 1_555
C19 H8 1_555 1_555
N3 C21 1_555 1_555
C37 C18 1_555 1_555
H26 C37 1_555 1_555
S4 C21 1_555 1_555
O7 C17 1_555 1_555
O8 C17 1_555 1_555
Mn3 O7 1_555 1_555
Mn6 O8 1_555 1_555
N3 C37 1_555 1_555
Mn3 N4_2 1_555 1_555
C1_2 C2_2 1_555 1_555
C2_2 C3_2 1_555 1_555
C3_2 H1_2 1_555 1_555
C4_2 C3_2 1_555 1_555
H2_2 C4_2 1_555 1_555
C5_2 C4_2 1_555 1_555
N1_2 C5_2 1_555 1_555
C22_2 H10_2 1_555 1_555
H13_2 C26_2 1_555 1_555
N4_2 C22_2 1_555 1_555
C35_2 C2_2 1_555 1_555
H24_2 C35_2 1_555 1_555
O1_2 C1_2 1_555 1_555
O2_2 Mn3 1_555 1_555
O9_2 Mn3 1_555 1_555
H27_2 O9_2 1_555 1_555
H28_2 O9_2 1_555 1_555
O11_2 Mn6 1_555 1_555
H31_2 O11_2 1_555 1_555
H32_2 O11_2 1_555 1_555
N7 Mn6 1_555 1_555
Mn6 O9_2 1_555 1_555
C1_2 O2_2 1_555 1_555
N1_2 C35_2 1_555 1_555
C26_2 N4_2 1_555 1_555
C6_2 C7_2 1_555 1_555
C7_2 C8_2 1_555 1_555
C8_2 H3_2 1_555 1_555
C9_2 C8_2 1_555 1_555
H4_2 C9_2 1_555 1_555
C10_2 C9_2 1_555 1_555
C11_2 C7_2 1_555 1_555
H5_2 C11_2 1_555 1_555
H11_2 C23_2 1_555 1_555
C24_2 C23_2 1_555 1_555
C25_2 C24_2 1_555 1_555
H12_2 C25_2 1_555 1_555
C27_2 C24_2 1_555 1_555
H14_2 C27_2 1_555 1_555
H15_2 C27_2 1_555 1_555
C28_2 C27_2 1_555 1_555
H16_2 C28_2 1_555 1_555
C29_2 C28_2 1_555 1_555
H19_2 C29_2 1_555 1_555
C30_2 C29_2 1_555 1_555
C31_2 C30_2 1_555 1_555
H20_2 C31_2 1_555 1_555
C32_2 C31_2 1_555 1_555
H21_2 C32_2 1_555 1_555
N7 C32_2 1_555 1_555
N6_2 C10_2 1_555 1_555
S2_2 C10_2 1_555 1_555
O12 C6_2 1_555 1_555
O6_2 C6_2 1_555 1_555
C11_2 N6_2 1_555 1_555
S1_2 S2_2 1_555 1_555
C17_2 C18_2 1_555 1_555
C18_2 C19_2 1_555 1_555
C19_2 H8_2 1_555 1_555
N3_2 C21_2 1_555 1_555
C37_2 C18_2 1_555 1_555
H26_2 C37_2 1_555 1_555
S4_2 C21_2 1_555 1_555
O13 C17_2 1_555 1_555
O14 C17_2 1_555 1_555
N3_2 C37_2 1_555 1_555
C12 C13 1_555 1_555
C13 C14 1_555 1_555
C14 H6 1_555 1_555
C15 C14 1_555 1_555
H7 C15 1_555 1_555
C16 C15 1_555 1_555
N2 C16 1_555 1_555
C17_3 C18_3 1_555 1_555
C18_3 C19_3 1_555 1_555
C19_3 H8_3 1_555 1_555
C20 C19_3 1_555 1_555
H9 C20 1_555 1_555
C21_3 C20 1_555 1_555
N3_3 C21_3 1_555 1_555
C36 C13 1_555 1_555
H25 C36 1_555 1_555
C37_3 C18_3 1_555 1_555
H26_3 C37_3 1_555 1_555
S3 C16 1_555 1_555
S4_3 C21_3 1_555 1_555
O4 C12 1_555 1_555
O7_2 C17_3 1_555 1_555
O8_2 C17_3 1_555 1_555
H29 O10 1_555 1_555
H30 O10 1_555 1_555
Mn4 O7_2 1_555 1_555
Mn6_2 O8_2 1_555 1_555
C12 O3 1_555 1_555
N2 C36 1_555 1_555
N3_3 C37_3 1_555 1_555
S3 S4_3 1_555 1_555
C6_3 C7_3 1_555 1_555
C7_3 C8_3 1_555 1_555
C8_3 H3_3 1_555 1_555
O5_2 C6_3 1_555 1_555
O6_3 C6_3 1_555 1_555
Mn4 O5_2 1_555 1_555
H11_3 C23_3 1_555 1_555
C24_3 C23_3 1_555 1_555
C25_3 C24_3 1_555 1_555
H12_3 C25_3 1_555 1_555
C27_3 C24_3 1_555 1_555
H14_3 C27_3 1_555 1_555
H15_3 C27_3 1_555 1_555
C28_3 C27_3 1_555 1_555
H16_3 C28_3 1_555 1_555
H17_2 C28_3 1_555 1_555
C29_3 C28_3 1_555 1_555
C30_3 C29_3 1_555 1_555
C31_3 C30_3 1_555 1_555
H20_3 C31_3 1_555 1_555
C32_3 C31_3 1_555 1_555
H21_3 C32_3 1_555 1_555
C33_2 H22_2 1_555 1_555
C34_2 C30_3 1_555 1_555
H23_2 C34_2 1_555 1_555
N5_2 C32_3 1_555 1_555
Mn6_2 N5_2 1_555 1_555
C33_2 C34_2 1_555 1_555
C33_2 N5_2 1_555 1_555
Mn4 N4_3 1_555 1_555
Mn6_2 O4_2 1_555 1_555
C12_2 C13_2 1_555 1_555
C13_2 C14_2 1_555 1_555
C14_2 H6_2 1_555 1_555
C15_2 C14_2 1_555 1_555
H7_2 C15_2 1_555 1_555
C16_2 C15_2 1_555 1_555
N2_2 C16_2 1_555 1_555
C22_3 H10_3 1_555 1_555
H13_3 C26_3 1_555 1_555
N4_3 C22_3 1_555 1_555
C36_2 C13_2 1_555 1_555
H25_2 C36_2 1_555 1_555
O1_3 C1_3 1_555 1_555
O2_3 Mn4 1_555 1_555
O3_2 Mn4 1_555 1_555
O4_2 C12_2 1_555 1_555
O9_3 Mn4 1_555 1_555
H27_3 O9_3 1_555 1_555
H28_3 O9_3 1_555 1_555
O10_2 Mn6_2 1_555 1_555
H29_2 O10_2 1_555 1_555
H30_2 O10_2 1_555 1_555
O11_3 Mn6_2 1_555 1_555
H31_3 O11_3 1_555 1_555
H32_3 O11_3 1_555 1_555
Mn6_2 O9_3 1_555 1_555
C1_3 O2_3 1_555 1_555
C12_2 O3_2 1_555 1_555
N2_2 C36_2 1_555 1_555
C26_3 N4_3 1_555 1_555
Mn1_2 N4_4 1_555 1_555
Mn2 O4_3 1_555 1_555
C12_3 C13_3 1_555 1_555
C13_3 C14_3 1_555 1_555
C14_3 H6_3 1_555 1_555
C15_3 C14_3 1_555 1_555
H7_3 C15_3 1_555 1_555
C16_3 C15_3 1_555 1_555
N2_3 C16_3 1_555 1_555
C22_4 H10_4 1_555 1_555
H13_4 C26_4 1_555 1_555
N4_4 C22_4 1_555 1_555
C36_3 C13_3 1_555 1_555
H25_3 C36_3 1_555 1_555
O1_4 C1_4 1_555 1_555
O2_4 Mn1_2 1_555 1_555
O3_3 Mn1_2 1_555 1_555
O4_3 C12_3 1_555 1_555
O9_4 Mn1_2 1_555 1_555
H27_4 O9_4 1_555 1_555
H28_4 O9_4 1_555 1_555
O10_3 Mn2 1_555 1_555
H29_3 O10_3 1_555 1_555
H30_3 O10_3 1_555 1_555
O11_4 Mn2 1_555 1_555
H31_4 O11_4 1_555 1_555
H32_4 O11_4 1_555 1_555
N7_2 Mn2 1_555 1_555
O12_2 Mn1_2 1_555 1_555
O13_2 Mn1_2 1_555 1_555
O14_2 Mn2 1_555 1_555
Mn2 O9_4 1_555 1_555
C1_4 O2_4 1_555 1_555
C12_3 O3_3 1_555 1_555
N2_3 C36_3 1_555 1_555
C26_4 N4_4 1_555 1_555
H11_4 C23_4 1_555 1_555
C24_4 C23_4 1_555 1_555
C25_4 C24_4 1_555 1_555
H12_4 C25_4 1_555 1_555
C27_4 C24_4 1_555 1_555
H14_4 C27_4 1_555 1_555
H15_4 C27_4 1_555 1_555
C28_4 C27_4 1_555 1_555
H16_4 C28_4 1_555 1_555
H17_3 C28_4 1_555 1_555
C29_4 C28_4 1_555 1_555
C30_4 C29_4 1_555 1_555
C31_4 C30_4 1_555 1_555
H20_4 C31_4 1_555 1_555
C32_4 C31_4 1_555 1_555
H21_4 C32_4 1_555 1_555
C33_3 H22_3 1_555 1_555
C34_3 C30_4 1_555 1_555
H23_3 C34_3 1_555 1_555
N7_2 C32_4 1_555 1_555
C33_3 C34_3 1_555 1_555
C33_3 N7_2 1_555 1_555
C12_4 C13_4 1_555 1_555
C13_4 C14_4 1_555 1_555
C14_4 H6_4 1_555 1_555
C15_4 C14_4 1_555 1_555
H7_4 C15_4 1_555 1_555
C16_4 C15_4 1_555 1_555
N2_4 C16_4 1_555 1_555
C17_4 C18_4 1_555 1_555
C18_4 C19_4 1_555 1_555
C19_4 H8_4 1_555 1_555
C20_2 C19_4 1_555 1_555
H9_2 C20_2 1_555 1_555
C21_4 C20_2 1_555 1_555
N3_4 C21_4 1_555 1_555
C36_4 C13_4 1_555 1_555
H25_4 C36_4 1_555 1_555
C37_4 C18_4 1_555 1_555
H26_4 C37_4 1_555 1_555
S3_3 C16_4 1_555 1_555
S4_4 C21_4 1_555 1_555
O4_4 C12_4 1_555 1_555
O13_2 C17_4 1_555 1_555
O14_2 C17_4 1_555 1_555
H29_4 O10_4 1_555 1_555
H30_4 O10_4 1_555 1_555
C12_4 O3_4 1_555 1_555
N2_4 C36_4 1_555 1_555
N3_4 C37_4 1_555 1_555
S3_3 S4_4 1_555 1_555
C6_4 C7_4 1_555 1_555
C7_4 C8_4 1_555 1_555
C8_4 H3_4 1_555 1_555
O12_2 C6_4 1_555 1_555
O6_4 C6_4 1_555 1_555
C2_3 C3_3 1_555 1_555
C3_3 H1_3 1_555 1_555
C4_3 C3_3 1_555 1_555
H2_3 C4_3 1_555 1_555
C5_3 C4_3 1_555 1_555
N1_3 C5_3 1_555 1_555
H9_3 C20_3 1_555 1_555
C35_3 C2_3 1_555 1_555
H24_3 C35_3 1_555 1_555
N1_3 C35_3 1_555 1_555
H4_3 C9_3 1_555 1_555
C10_3 C9_3 1_555 1_555
H5_3 C11_3 1_555 1_555
N6_3 C10_3 1_555 1_555
S2_3 C10_3 1_555 1_555
C11_3 N6_3 1_555 1_555
S1_3 S2_3 1_555 1_555
C33_4 H22_4 1_555 1_555
H23_4 C34_4 1_555 1_555
C33_4 C34_4 1_555 1_555
H4_4 C9_4 1_555 1_555
C10_4 C9_4 1_555 1_555
H5_4 C11_4 1_555 1_555
N6_4 C10_4 1_555 1_555
S2_4 C10_4 1_555 1_555
C11_4 N6_4 1_555 1_555
S1_4 S2_4 1_555 1_555
C2_4 C3_4 1_555 1_555
C3_4 H1_4 1_555 1_555
C4_4 C3_4 1_555 1_555
H2_4 C4_4 1_555 1_555
C5_4 C4_4 1_555 1_555
N1_4 C5_4 1_555 1_555
H9_4 C20_4 1_555 1_555
C35_4 C2_4 1_555 1_555
H24_4 C35_4 1_555 1_555
N1_4 C35_4 1_555 1_555

#END
