
###############################################################################
#
# This file contains modified crystal structure data generated from the
# MOF subset of the Cambridge Structural Database (CSD) v543 
# hosted by the Cambridge Crystallographic Data Centre (CCDC).
#
# This work is licensed under the Creative Commons
# Attribution-NonCommercial-ShareAlike 4.0 International License.
# To view a copy of this license, visit
# http://creativecommons.org/licenses/by-nc-sa/4.0/
# or send a letter to
# Creative Commons, PO Box 1866, Mountain View, CA 94042, USA.
#
# CIF created using the CSD Python API on 29 September 2022
# The structure has been converted into the P1 space group
# The structure has a 3D framework
# The original CSD entry QITDAA01 is in the triclinic crystal system
# The framework has been calculated to contain at least 10.0% void space
# The void calculation uses a probe of radius 1.32A, grid spacing 0.4
#
###############################################################################

data_QITDAA01
_chemical_formula_moiety         '(C82 H104 N12 O14 Zn4)n'
_symmetry_cell_setting           triclinic
_symmetry_space_group_name_H-M   'P 1'
_symmetry_Int_Tables_number      1
_space_group_name_Hall           'P 1'
loop_
_symmetry_equiv_pos_site_id
_symmetry_equiv_pos_as_xyz
1 x,y,z
_cell_length_a                   12.3094(14)
_cell_length_b                   12.7761(18)
_cell_length_c                   15.7735(17)
_cell_angle_alpha                90.441(2)
_cell_angle_beta                 98.357(3)
_cell_angle_gamma                100.260(2)
_cell_volume                     2413.61
loop_
_atom_site_label
_atom_site_type_symbol
_atom_site_fract_x
_atom_site_fract_y
_atom_site_fract_z
C13 C 0.0964(4) 0.0900(4) 0.4221(3)
H11 H 0.1057 0.1506 0.4573
C14 C 0.1703(4) 0.0288(3) 0.4192(3)
H12 H 0.2424 0.0413 0.4495
H14 H 0.0049 0.1879 0.1803
N3 N 0.0048(3) 0.0514(3) 0.3660(2)
C15 C 0.0243(4) 0.9660(4) 0.3338(3)
N4 N 0.1251(3) 0.9433(3) 0.3646(3)
Zn3 Zn 0.19304(4) 0.81853(4) 0.33687(3)
C1 C 0.6733(4) 0.9343(4) 0.1915(3)
C2 C 0.7419(4) 0.9688(4) 0.2758(3)
C6 C 0.6951(4) 0.9836(4) 0.1178(3)
C7 C 0.5757(4) 0.8411(4) 0.1965(3)
H1 H 0.5549 0.8043 0.1410
H2 H 0.6009 0.7910 0.2375
C8 C 0.4352(4) 0.9652(4) 0.1959(3)
C9 C 0.3396(4) 0.9575(4) 0.2287(3)
C10 C 0.4046(4) 0.8161(4) 0.2624(3)
H5 H 0.4104 0.7492 0.2833
C11 C 0.7134(4) 0.9137(4) 0.3527(3)
H6 H 0.6348 0.8858 0.3450
H7 H 0.7326 0.9628 0.4011
H8 H 0.7542 0.8564 0.3623
H13 H 0.9734 0.9232 0.2928
C21 C 0.6328(4) 0.9306(4) 0.0311(3)
H23 H 0.5565 0.9027 0.0368
H24 H 0.6683 0.8737 0.0155
C22 C 0.0406(4) 0.7177(4) 0.2027(3)
H26 H 0.0315 0.6202 0.0282
H30 H 0.0031 0.5375 0.2378
H31 H 0.0681 0.5297 0.1603
C32 C 0.3410(4) 0.7750(4) 0.4526(3)
C33 C 0.4466(4) 0.7578(4) 0.5161(3)
C34 C 0.4931(4) 0.6570(4) 0.5079(3)
H39 H 0.5483 0.6661 0.4692
H40 H 0.4341 0.5979 0.4866
C35 C 0.5476(4) 0.6373(4) 0.6005(3)
H41 H 0.5251 0.5636 0.6148
H42 H 0.6283 0.6532 0.6054
C36 C 0.5066(4) 0.7113(4) 0.6603(3)
H43 H 0.5582 0.7792 0.6602
C37 C 0.4023(4) 0.7266(4) 0.6010(3)
C38 C 0.5040(4) 0.6888(4) 0.7581(3)
C39 C 0.5420(4) 0.8562(3) 0.5268(3)
H44 H 0.6116 0.8341 0.5467
H45 H 0.5276 0.9061 0.5677
H46 H 0.5459 0.8893 0.4726
C40 C 0.3472(4) 0.8143(4) 0.6368(3)
H47 H 0.3196 0.7912 0.6887
H48 H 0.2865 0.8275 0.5953
H49 H 0.4016 0.8786 0.6487
C41 C 0.3144(4) 0.6245(3) 0.6029(3)
H50 H 0.3478 0.5634 0.5952
H51 H 0.2534 0.6250 0.5576
H52 H 0.2874 0.6217 0.6571
N1 N 0.4793(3) 0.8741(3) 0.2214(2)
N2 N 0.3229(3) 0.8642(3) 0.2694(2)
O1 O 0.0647(3) 0.6996(3) 0.2782(2)
O2 O 0.0778(2) 0.8068(3) 0.1742(2)
O5 O 0.2738(3) 0.7068(3) 0.4052(2)
O6 O 0.3170(3) 0.8554(3) 0.4444(2)
O7 O 0.4993(3) 0.5977(3) 0.78285(19)
O8 O 0.4994(3) 0.7603(3) 0.8088(2)
Zn2 Zn 0.50450(4) 0.65338(4) 0.90879(3)
N8 N 0.3916(3) 0.6900(3) 0.9708(2)
O9 O 0.4178(3) 0.4615(3) 0.9284(2)
O10 O 0.6399(3) 0.6367(3) 0.9719(2)
C25 C 0.8570(4) 0.6042(4) 0.9967(3)
H27 H 0.8268 0.6557 0.9598
H28 H 0.8637 0.5441 0.9611
C23 C 0.0415(4) 0.3630(4) 0.8602(3)
C24 C 0.0264(5) 0.3446(5) 0.9557(3)
H25 H 0.0087 0.2693 0.9667
C26 C 0.2210(4) 0.4327(4) 0.9397(3)
H29 H 0.2177 0.5071 0.9270
C27 C 0.1621(4) 0.3578(4) 0.8563(3)
C28 C 0.3400(4) 0.4224(4) 0.9672(3)
C29 C 0.0031(4) 0.4655(4) 0.8235(3)
H32 H 0.0569 0.5268 0.8461
C30 C 0.2000(5) 0.4137(4) 0.7768(3)
H33 H 0.1892 0.3626 0.7300
H34 H 0.1569 0.4681 0.7613
H35 H 0.2777 0.4452 0.7895
C31 C 0.1953(4) 0.2525(4) 0.8580(3)
H36 H 0.1326 0.1989 0.8662
H37 H 0.2197 0.2381 0.8048
H38 H 0.2551 0.2518 0.9044
C3 C 0.1744(4) 0.9440(4) 0.7279(3)
C4 C 0.1507(3) 0.8951(4) 0.8034(3)
C5 C 0.2173(4) 0.9317(4) 0.8821(3)
H3 H 0.5340 0.9804 0.8370
H4 H 0.7071 0.9924 0.7757
C12 C 0.1009(4) 0.9019(4) 0.6414(3)
H9 H 0.0827 0.8248 0.6402
H10 H 0.1408 0.9234 0.5939
C16 C 0.0616(4) 0.7937(4) 0.8034(3)
H15 H 0.0447 0.7607 0.7469
H16 H 0.0895 0.7450 0.8434
C17 C 0.2019(4) 0.8774(4) 0.9658(3)
H17 H 0.1242 0.8442 0.9635
C20 C 0.3415(4) 0.7596(4) 0.9358(3)
H21 H 0.3514 0.7836 0.8815
N5 N 0.2712(3) 0.7978(3) 0.9835(2)
C3_2 C 0.8256(4) 0.0560(4) 0.2721(3)
C4_2 C 0.8493(3) 0.1049(4) 0.1966(3)
C5_2 C 0.7827(4) 0.0683(4) 0.1179(3)
H3_2 H 0.4660 0.0196 0.1630
H4_2 H 0.2929 0.0076 0.2243
C12_2 C 0.8991(4) 0.0981(4) 0.3586(3)
H9_2 H 0.9173 0.1752 0.3598
H10_2 H 0.8592 0.0766 0.4061
C16_2 C 0.9384(4) 0.2063(4) 0.1966(3)
H15_2 H 0.9553 0.2393 0.2531
H16_2 H 0.9105 0.2550 0.1566
C17_2 C 0.7981(4) 0.1226(4) 0.0342(3)
H17_2 H 0.8758 0.1558 0.0365
C20_2 C 0.6585(4) 0.2404(4) 0.0642(3)
H21_2 H 0.6486 0.2164 0.1185
N5_2 N 0.7288(3) 0.2022(3) 0.0165(2)
N6 N 0.6084(3) 0.3100(3) 0.0292(2)
Zn6 Zn 0.49550(4) 0.34662(4) 0.09121(3)
C23_2 C 0.9585(4) 0.6370(4) 0.1398(3)
C24_2 C 0.9736(5) 0.6554(5) 0.0443(3)
H25_2 H 0.9913 0.7307 0.0333
C26_2 C 0.7790(4) 0.5673(4) 0.0603(3)
H29_2 H 0.7823 0.4929 0.0730
C27_2 C 0.8379(4) 0.6422(4) 0.1437(3)
C28_2 C 0.6600(4) 0.5776(4) 0.0328(3)
C29_2 C 0.9969(4) 0.5345(4) 0.1765(3)
H32_2 H 0.9431 0.4732 0.1539
C30_2 C 0.8000(5) 0.5863(4) 0.2232(3)
H33_2 H 0.8108 0.6374 0.2700
H34_2 H 0.8431 0.5319 0.2387
H35_2 H 0.7223 0.5548 0.2105
C31_2 C 0.8047(4) 0.7475(4) 0.1420(3)
H36_2 H 0.8674 0.8011 0.1338
H37_2 H 0.7803 0.7619 0.1952
H38_2 H 0.7449 0.7482 0.0956
O3 O 0.5822(3) 0.5385(3) 0.0716(2)
C25_2 C 0.1430(4) 0.3958(4) 0.0033(3)
H27_2 H 0.1732 0.3443 0.0402
H28_2 H 0.1363 0.4559 0.0389
O4 O 0.3601(3) 0.3633(3) 0.0281(2)
C1_2 C 0.3267(4) 0.0657(4) 0.8085(3)
C2_2 C 0.2581(4) 0.0312(4) 0.7242(3)
C6_2 C 0.3049(4) 0.0164(4) 0.8822(3)
C7_2 C 0.4243(4) 0.1589(4) 0.8035(3)
H1_2 H 0.4451 0.1957 0.8590
H2_2 H 0.3991 0.2090 0.7625
C8_2 C 0.5648(4) 0.0348(4) 0.8041(3)
C9_2 C 0.6604(4) 0.0425(4) 0.7713(3)
C10_2 C 0.5954(4) 0.1839(4) 0.7376(3)
H5_2 H 0.5896 0.2508 0.7167
C11_2 C 0.2866(4) 0.0863(4) 0.6473(3)
H6_2 H 0.3652 0.1142 0.6550
H7_2 H 0.2674 0.0372 0.5989
H8_2 H 0.2458 0.1436 0.6377
H13_2 H 0.0266 0.0768 0.7072
C21_2 C 0.3672(4) 0.0694(4) 0.9689(3)
H23_2 H 0.4435 0.0973 0.9632
H24_2 H 0.3317 0.1263 0.9845
C22_2 C 0.9594(4) 0.2823(4) 0.7973(3)
H26_2 H 0.9685 0.3798 0.9718
H30_2 H 0.9969 0.4625 0.7622
H31_2 H 0.9319 0.4703 0.8397
C32_2 C 0.6590(4) 0.2250(4) 0.5474(3)
C33_2 C 0.5534(4) 0.2422(4) 0.4839(3)
C34_2 C 0.5069(4) 0.3430(4) 0.4921(3)
H39_2 H 0.4517 0.3339 0.5308
H40_2 H 0.5659 0.4021 0.5134
C35_2 C 0.4524(4) 0.3627(4) 0.3995(3)
H41_2 H 0.4749 0.4364 0.3852
H42_2 H 0.3717 0.3468 0.3946
C36_2 C 0.4934(4) 0.2887(4) 0.3397(3)
H43_2 H 0.4418 0.2208 0.3398
C37_2 C 0.5977(4) 0.2734(4) 0.3990(3)
C38_2 C 0.4960(4) 0.3112(4) 0.2419(3)
C39_2 C 0.4580(4) 0.1438(3) 0.4732(3)
H44_2 H 0.3884 0.1659 0.4533
H45_2 H 0.4724 0.0939 0.4323
H46_2 H 0.4541 0.1107 0.5274
C40_2 C 0.6528(4) 0.1857(4) 0.3632(3)
H47_2 H 0.6804 0.2088 0.3113
H48_2 H 0.7135 0.1725 0.4047
H49_2 H 0.5984 0.1214 0.3513
C41_2 C 0.6856(4) 0.3755(3) 0.3971(3)
H50_2 H 0.6522 0.4366 0.4048
H51_2 H 0.7466 0.3750 0.4424
H52_2 H 0.7126 0.3783 0.3429
N1_2 N 0.5207(3) 0.1259(3) 0.7786(2)
N2_2 N 0.6771(3) 0.1358(3) 0.7306(2)
O1_2 O 0.9353(3) 0.3004(3) 0.7218(2)
O2_2 O 0.9222(2) 0.1932(3) 0.8258(2)
O5_2 O 0.7262(3) 0.2932(3) 0.5948(2)
O6_2 O 0.6830(3) 0.1446(3) 0.5556(2)
O7_2 O 0.5007(3) 0.4023(3) 0.21715(19)
O8_2 O 0.5006(3) 0.2397(3) 0.1912(2)
Zn1 Zn 0.80696(4) 0.18147(4) 0.66313(3)
N7 N 0.8749(3) 0.0567(3) 0.6354(3)
C15_2 C 0.9757(4) 0.0340(4) 0.6662(3)
H18 H 0.7802 0.0694 0.9877
C18 C 0.7197(4) 0.2573(4) 0.9414(3)
H19 H 0.7585 0.2537 0.8953
C19 C 0.6397(4) 0.3193(4) 0.9502(3)
H20 H 0.6114 0.3614 0.9077
H22 H 0.6349 0.9825 0.9875
H22_2 H 0.3651 0.0175 0.0125
H18_2 H 0.2198 0.9306 0.0123
C18_2 C 0.2803(4) 0.7427(4) 0.0586(3)
H19_2 H 0.2415 0.7463 0.1047
C19_2 C 0.3603(4) 0.6807(4) 0.0498(3)
H20_2 H 0.3886 0.6386 0.0923
C13_2 C 0.9036(4) 0.9100(4) 0.5779(3)
H11_2 H 0.8943 0.8494 0.5427
C14_2 C 0.8297(4) 0.9712(3) 0.5808(3)
H12_2 H 0.7576 0.9587 0.5505
H14_2 H 0.9951 0.8121 0.8197
N3_2 N 0.9952(3) 0.9486(3) 0.6340(2)
loop_
_geom_bond_atom_site_label_1
_geom_bond_atom_site_label_2
_geom_bond_site_symmetry_1
_geom_bond_site_symmetry_2
C13 H11 1_555 1_555
C14 C13 1_555 1_555
H12 C14 1_555 1_555
C13 N3 1_555 1_555
Zn3 N4 1_555 1_555
C15 N4 1_555 1_555
C1 C2 1_555 1_555
C6 C1 1_555 1_555
C7 C1 1_555 1_555
H1 C7 1_555 1_555
H2 C7 1_555 1_555
C9 C8 1_555 1_555
C10 H5 1_555 1_555
C11 C2 1_555 1_555
H6 C11 1_555 1_555
H7 C11 1_555 1_555
H8 C11 1_555 1_555
C21 C6 1_555 1_555
H23 C21 1_555 1_555
H24 C21 1_555 1_555
C32 C33 1_555 1_555
C33 C34 1_555 1_555
C34 H39 1_555 1_555
H40 C34 1_555 1_555
C35 C34 1_555 1_555
H41 C35 1_555 1_555
H42 C35 1_555 1_555
C36 C35 1_555 1_555
H43 C36 1_555 1_555
C37 C33 1_555 1_555
C38 C36 1_555 1_555
C39 C33 1_555 1_555
H44 C39 1_555 1_555
H45 C39 1_555 1_555
H46 C39 1_555 1_555
C40 C37 1_555 1_555
H47 C40 1_555 1_555
H48 C40 1_555 1_555
H49 C40 1_555 1_555
C41 C37 1_555 1_555
H50 C41 1_555 1_555
H51 C41 1_555 1_555
H52 C41 1_555 1_555
N1 C7 1_555 1_555
N2 C9 1_555 1_555
O1 C22 1_555 1_555
O2 C22 1_555 1_555
O5 C32 1_555 1_555
O6 C32 1_555 1_555
O7 C38 1_555 1_555
O8 C38 1_555 1_555
Zn3 N2 1_555 1_555
Zn2 O7 1_555 1_555
N8 Zn2 1_555 1_555
O9 Zn2 1_555 1_555
O10 Zn2 1_555 1_555
C8 N1 1_555 1_555
C10 N1 1_555 1_555
C10 N2 1_555 1_555
C36 C37 1_555 1_555
O1 Zn3 1_555 1_555
O5 Zn3 1_555 1_555
O6 Zn3 1_555 1_555
O8 Zn2 1_555 1_555
H27 C25 1_555 1_555
H28 C25 1_555 1_555
C23 C24 1_555 1_555
C24 H25 1_555 1_555
H29 C26 1_555 1_555
C27 C23 1_555 1_555
C28 C26 1_555 1_555
C29 C23 1_555 1_555
H32 C29 1_555 1_555
C30 C27 1_555 1_555
H33 C30 1_555 1_555
H34 C30 1_555 1_555
H35 C30 1_555 1_555
C31 C27 1_555 1_555
H36 C31 1_555 1_555
H37 C31 1_555 1_555
H38 C31 1_555 1_555
O9 C28 1_555 1_555
C26 C27 1_555 1_555
C3 C4 1_555 1_555
C4 C5 1_555 1_555
C12 C3 1_555 1_555
H9 C12 1_555 1_555
H10 C12 1_555 1_555
C16 C4 1_555 1_555
H15 C16 1_555 1_555
H16 C16 1_555 1_555
C17 C5 1_555 1_555
H17 C17 1_555 1_555
C20 H21 1_555 1_555
N5 C17 1_555 1_555
C20 N5 1_555 1_555
C20 N8 1_555 1_555
C3_2 C4_2 1_555 1_555
C4_2 C5_2 1_555 1_555
C12_2 C3_2 1_555 1_555
H9_2 C12_2 1_555 1_555
H10_2 C12_2 1_555 1_555
C16_2 C4_2 1_555 1_555
H15_2 C16_2 1_555 1_555
H16_2 C16_2 1_555 1_555
C17_2 C5_2 1_555 1_555
H17_2 C17_2 1_555 1_555
C20_2 H21_2 1_555 1_555
N5_2 C17_2 1_555 1_555
Zn6 N6 1_555 1_555
C20_2 N5_2 1_555 1_555
C20_2 N6 1_555 1_555
C23_2 C24_2 1_555 1_555
C24_2 H25_2 1_555 1_555
H29_2 C26_2 1_555 1_555
C27_2 C23_2 1_555 1_555
C28_2 C26_2 1_555 1_555
C29_2 C23_2 1_555 1_555
H32_2 C29_2 1_555 1_555
C30_2 C27_2 1_555 1_555
H33_2 C30_2 1_555 1_555
H34_2 C30_2 1_555 1_555
H35_2 C30_2 1_555 1_555
C31_2 C27_2 1_555 1_555
H36_2 C31_2 1_555 1_555
H37_2 C31_2 1_555 1_555
H38_2 C31_2 1_555 1_555
O3 C28_2 1_555 1_555
Zn6 O3 1_555 1_555
C26_2 C27_2 1_555 1_555
H27_2 C25_2 1_555 1_555
H28_2 C25_2 1_555 1_555
Zn6 O4 1_555 1_555
C1_2 C2_2 1_555 1_555
C6_2 C1_2 1_555 1_555
C7_2 C1_2 1_555 1_555
H1_2 C7_2 1_555 1_555
H2_2 C7_2 1_555 1_555
C9_2 C8_2 1_555 1_555
C10_2 H5_2 1_555 1_555
C11_2 C2_2 1_555 1_555
H6_2 C11_2 1_555 1_555
H7_2 C11_2 1_555 1_555
H8_2 C11_2 1_555 1_555
C21_2 C6_2 1_555 1_555
H23_2 C21_2 1_555 1_555
H24_2 C21_2 1_555 1_555
C32_2 C33_2 1_555 1_555
C33_2 C34_2 1_555 1_555
C34_2 H39_2 1_555 1_555
H40_2 C34_2 1_555 1_555
C35_2 C34_2 1_555 1_555
H41_2 C35_2 1_555 1_555
H42_2 C35_2 1_555 1_555
C36_2 C35_2 1_555 1_555
H43_2 C36_2 1_555 1_555
C37_2 C33_2 1_555 1_555
C38_2 C36_2 1_555 1_555
C39_2 C33_2 1_555 1_555
H44_2 C39_2 1_555 1_555
H45_2 C39_2 1_555 1_555
H46_2 C39_2 1_555 1_555
C40_2 C37_2 1_555 1_555
H47_2 C40_2 1_555 1_555
H48_2 C40_2 1_555 1_555
H49_2 C40_2 1_555 1_555
C41_2 C37_2 1_555 1_555
H50_2 C41_2 1_555 1_555
H51_2 C41_2 1_555 1_555
H52_2 C41_2 1_555 1_555
N1_2 C7_2 1_555 1_555
N2_2 C9_2 1_555 1_555
O1_2 C22_2 1_555 1_555
O2_2 C22_2 1_555 1_555
O5_2 C32_2 1_555 1_555
O6_2 C32_2 1_555 1_555
O7_2 C38_2 1_555 1_555
O8_2 C38_2 1_555 1_555
Zn1 N2_2 1_555 1_555
Zn6 O7_2 1_555 1_555
N7 Zn1 1_555 1_555
C8_2 N1_2 1_555 1_555
C10_2 N1_2 1_555 1_555
C10_2 N2_2 1_555 1_555
C36_2 C37_2 1_555 1_555
O1_2 Zn1 1_555 1_555
O5_2 Zn1 1_555 1_555
O6_2 Zn1 1_555 1_555
O8_2 Zn6 1_555 1_555
C15_2 N7 1_555 1_555
C18 H19 1_555 1_555
C19 C18 1_555 1_555
H20 C19 1_555 1_555
C18_2 H19_2 1_555 1_555
C19_2 C18_2 1_555 1_555
H20_2 C19_2 1_555 1_555
C13_2 H11_2 1_555 1_555
C14_2 C13_2 1_555 1_555
H12_2 C14_2 1_555 1_555
C13_2 N3_2 1_555 1_555

#END
