
###############################################################################
#
# This file contains modified crystal structure data generated from the
# MOF subset of the Cambridge Structural Database (CSD) v543 
# hosted by the Cambridge Crystallographic Data Centre (CCDC).
#
# This work is licensed under the Creative Commons
# Attribution-NonCommercial-ShareAlike 4.0 International License.
# To view a copy of this license, visit
# http://creativecommons.org/licenses/by-nc-sa/4.0/
# or send a letter to
# Creative Commons, PO Box 1866, Mountain View, CA 94042, USA.
#
# CIF created using the CSD Python API on 29 September 2022
# The structure has been converted into the P1 space group
# The structure has a 3D framework
# The original CSD entry QITDEE is in the triclinic crystal system
# The framework has been calculated to contain at least 10.0% void space
# The void calculation uses a probe of radius 1.32A, grid spacing 0.4
#
###############################################################################

data_QITDEE
_chemical_formula_moiety         '(C82 H104 Cd4 N10 O16)n'
_symmetry_cell_setting           triclinic
_symmetry_space_group_name_H-M   'P 1'
_symmetry_Int_Tables_number      1
_space_group_name_Hall           'P 1'
loop_
_symmetry_equiv_pos_site_id
_symmetry_equiv_pos_as_xyz
1 x,y,z
_cell_length_a                   12.3825(15)
_cell_length_b                   13.0128(16)
_cell_length_c                   15.3729(19)
_cell_angle_alpha                91.351(2)
_cell_angle_beta                 94.864(3)
_cell_angle_gamma                98.730(2)
_cell_volume                     2437.86
loop_
_atom_site_label
_atom_site_type_symbol
_atom_site_fract_x
_atom_site_fract_y
_atom_site_fract_z
C38 C 0.0199(5) 0.6734(4) 0.7470(4)
C39 C 0.0086(6) 0.5429(5) 0.6169(5)
H45 H 0.0831 0.5405 0.6387
H46 H 0.0077 0.5850 0.5665
Cd2 Cd 0.17616(3) 0.80723(3) 0.85051(2)
O7 O 0.0925(4) 0.7268(3) 0.7232(3)
O8 O 0.0144(4) 0.6948(3) 0.8279(3)
N7 N 0.0969(4) 0.9475(4) 0.8747(3)
N8 N 0.3128(4) 0.8682(4) 0.7702(3)
O9 O 0.2842(3) 0.6962(3) 0.9184(3)
O10 O 0.2994(3) 0.8476(3) 0.9801(2)
C28 C 0.3342(5) 0.7624(4) 0.9714(4)
C29 C 0.4852(5) 0.6773(5) 0.9599(4)
H30 H 0.5162 0.7221 0.9167
H31 H 0.4281 0.6259 0.9321
H32 H 0.5413 0.6436 0.9887
C4 C 0.7263(5) 0.9787(4) 0.7743(3)
C5 C 0.6679(4) 0.9398(4) 0.6950(4)
C6 C 0.6973(5) 0.9873(4) 0.6175(3)
C8 C 0.6914(5) 0.9252(4) 0.8571(4)
H4 H 0.6853 0.9769 0.9013
H5 H 0.6217 0.8817 0.8443
H6 H 0.7452 0.8835 0.8777
C9 C 0.6410(5) 0.9440(5) 0.5280(4)
H7 H 0.5632 0.9421 0.5277
H8 H 0.6682 0.9881 0.4829
H9 H 0.6567 0.8750 0.5176
C11 C 0.9965(5) 0.9594(5) 0.8518(4)
H12 H 0.9430 0.9085 0.8240
C14 C 0.5768(4) 0.8494(4) 0.6909(4)
H15 H 0.5983 0.7965 0.7293
H16 H 0.5649 0.8195 0.6318
C15 C 0.4315(4) 0.9666(4) 0.6887(3)
C16 C 0.3278(4) 0.9581(4) 0.7251(4)
C17 C 0.4027(5) 0.8218(5) 0.7633(4)
H19 H 0.4130 0.7592 0.7881
N3 N 0.4751(4) 0.8783(3) 0.7160(3)
C4_2 C 0.2737(5) 0.0213(4) 0.2257(3)
C5_2 C 0.3321(4) 0.0602(4) 0.3050(4)
C6_2 C 0.3027(5) 0.0127(4) 0.3825(3)
C8_2 C 0.3086(5) 0.0748(4) 0.1429(4)
H4_2 H 0.3147 0.0231 0.0987
H5_2 H 0.3783 0.1183 0.1557
H6_2 H 0.2548 0.1165 0.1223
C9_2 C 0.3590(5) 0.0560(5) 0.4720(4)
H7_2 H 0.4368 0.0579 0.4723
H8_2 H 0.3318 0.0119 0.5171
H9_2 H 0.3433 0.1250 0.4824
C11_2 C 0.0035(5) 0.0406(5) 0.1482(4)
H12_2 H 0.0570 0.0915 0.1760
C14_2 C 0.4232(4) 0.1506(4) 0.3091(4)
H15_2 H 0.4017 0.2035 0.2707
H16_2 H 0.4351 0.1805 0.3682
C15_2 C 0.5685(4) 0.0334(4) 0.3113(3)
C16_2 C 0.6722(4) 0.0419(4) 0.2749(4)
C17_2 C 0.5973(5) 0.1782(5) 0.2367(4)
H19_2 H 0.5870 0.2408 0.2119
N3_2 N 0.5249(4) 0.1217(3) 0.2840(3)
N4 N 0.6872(4) 0.1318(4) 0.2298(3)
Cd6 Cd 0.82384(3) 0.19277(3) 0.14949(2)
N2 N 0.9031(4) 0.0525(4) 0.1253(3)
C28_2 C 0.6658(5) 0.2376(4) 0.0286(4)
C29_2 C 0.5148(5) 0.3227(5) 0.0401(4)
H30_2 H 0.4838 0.2779 0.0833
H31_2 H 0.5719 0.3741 0.0679
H32_2 H 0.4587 0.3564 0.0113
O3 O 0.7158(3) 0.3038(3) 0.0816(3)
O4 O 0.7006(3) 0.1524(3) 0.0199(2)
C38_2 C 0.9801(5) 0.3266(4) 0.2530(4)
C39_2 C 0.9914(6) 0.4571(5) 0.3831(5)
H45_2 H 0.9169 0.4595 0.3613
H46_2 H 0.9923 0.4150 0.4335
O7_2 O 0.9075(4) 0.2732(3) 0.2768(3)
O8_2 O 0.9856(4) 0.3052(3) 0.1721(3)
C1 C 0.2150(5) 0.9302(5) 0.3781(4)
C2 C 0.1596(5) 0.8922(4) 0.3003(4)
C3 C 0.1868(4) 0.9401(4) 0.2241(3)
C7 C 0.0542(5) 0.8120(5) 0.2985(4)
H1 H 0.0731 0.7436 0.3045
H2 H 0.0108 0.8150 0.2441
H3 H 0.0128 0.8277 0.3459
C10 C 0.1259(5) 0.8976(5) 0.1376(4)
H10 H 0.1705 0.9175 0.0900
H11 H 0.1108 0.8223 0.1376
H17 H 0.5372 0.9809 0.3454
H18 H 0.7211 0.9943 0.2809
C18 C 0.1896(5) 0.8725(5) 0.4626(4)
H20 H 0.1900 0.9238 0.5094
H21 H 0.1162 0.8333 0.4538
C19 C 0.2621(5) 0.7454(4) 0.5640(4)
H22 H 0.2177 0.7485 0.6095
C20 C 0.3412(5) 0.6828(4) 0.5542(3)
H23 H 0.3546 0.6319 0.5935
C21 C 0.3411(4) 0.7688(4) 0.4375(4)
H24 H 0.3529 0.7890 0.3810
C22 C 0.5232(5) 0.6736(5) 0.2574(4)
C23 C 0.5263(5) 0.6982(5) 0.1625(4)
H25 H 0.5707 0.6526 0.1350
C24 C 0.5717(5) 0.8095(5) 0.1470(4)
H26 H 0.6496 0.8158 0.1401
H27 H 0.5620 0.8535 0.1966
C25 C 0.5107(6) 0.8442(5) 0.0634(4)
H28 H 0.4682 0.8984 0.0769
H29 H 0.5616 0.8693 0.0213
C26 C 0.4357(5) 0.7440(4) 0.0292(3)
C27 C 0.4086(4) 0.6843(4) 0.1107(3)
C30 C 0.3702(5) 0.5692(4) 0.0872(4)
H33 H 0.3188 0.5624 0.0362
H34 H 0.3353 0.5364 0.1350
H35 H 0.4321 0.5364 0.0755
C31 C 0.3235(5) 0.7222(4) 0.1625(4)
H36 H 0.2575 0.7231 0.1250
H37 H 0.3506 0.7913 0.1858
H38 H 0.3081 0.6765 0.2095
C32 C 0.6781(5) 0.5779(5) 0.5324(4)
C33 C 0.7797(5) 0.5582(5) 0.5923(4)
H39 H 0.8300 0.5390 0.5510
C34 C 0.7764(5) 0.4717(6) 0.6587(4)
H40 H 0.7078 0.4642 0.6857
H41 H 0.7821 0.4060 0.6296
C35 C 0.8732(5) 0.5018(5) 0.7280(4)
H42 H 0.9113 0.4431 0.7397
H43 H 0.8482 0.5253 0.7821
C36 C 0.9486(5) 0.5904(4) 0.6886(4)
C37 C 0.8507(6) 0.6427(5) 0.6513(4)
H44 H 0.9721 0.4737 0.6010
C40 C 0.7735(6) 0.6830(5) 0.7127(5)
H47 H 0.8193 0.7394 0.7520
H48 H 0.7207 0.7133 0.6804
H49 H 0.7472 0.6289 0.7469
C41 C 0.8907(6) 0.7396(6) 0.5983(5)
H50 H 0.9333 0.7197 0.5533
H51 H 0.9350 0.7917 0.6367
H52 H 0.8284 0.7672 0.5724
Cd1 Cd 0.50831(3) 0.61494(3) 0.42338(2)
N1 N 0.0190(4) 0.9418(3) 0.1253(3)
N5 N 0.2652(4) 0.8016(4) 0.4903(3)
N6 N 0.3956(4) 0.7004(3) 0.4859(3)
O1 O 0.5294(4) 0.7456(3) 0.3118(2)
O2 O 0.5027(4) 0.5834(3) 0.2824(2)
O5 O 0.5857(3) 0.5507(3) 0.5557(3)
O6 O 0.6892(3) 0.6276(4) 0.4661(3)
Cd3 Cd 0.49169(3) 0.38506(3) 0.57662(2)
O11 O 0.4143(3) 0.4493(3) 0.4443(3)
C1_2 C 0.7850(5) 0.0698(5) 0.6219(4)
C2_2 C 0.8404(5) 0.1078(4) 0.6997(4)
C3_2 C 0.8132(4) 0.0599(4) 0.7759(3)
C7_2 C 0.9458(5) 0.1880(5) 0.7015(4)
H1_2 H 0.9269 0.2564 0.6955
H2_2 H 0.9892 0.1850 0.7559
H3_2 H 0.9872 0.1723 0.6541
C10_2 C 0.8741(5) 0.1024(5) 0.8624(4)
H10_2 H 0.8295 0.0825 0.9100
H11_2 H 0.8892 0.1777 0.8624
H17_2 H 0.4628 0.0191 0.6546
H18_2 H 0.2789 0.0057 0.7191
C18_2 C 0.8104(5) 0.1275(5) 0.5374(4)
H20_2 H 0.8100 0.0762 0.4906
H21_2 H 0.8838 0.1667 0.5462
C19_2 C 0.7379(5) 0.2546(4) 0.4360(4)
H22_2 H 0.7823 0.2515 0.3905
C20_2 C 0.6588(5) 0.3172(4) 0.4458(3)
H23_2 H 0.6454 0.3681 0.4065
C21_2 C 0.6589(4) 0.2312(4) 0.5625(4)
H24_2 H 0.6471 0.2110 0.6190
C22_2 C 0.4768(5) 0.3264(5) 0.7426(4)
C23_2 C 0.4737(5) 0.3018(5) 0.8375(4)
H25_2 H 0.4293 0.3474 0.8650
C24_2 C 0.4283(5) 0.1905(5) 0.8530(4)
H26_2 H 0.3504 0.1842 0.8599
H27_2 H 0.4380 0.1465 0.8034
C25_2 C 0.4893(6) 0.1558(5) 0.9366(4)
H28_2 H 0.5318 0.1016 0.9231
H29_2 H 0.4384 0.1307 0.9787
C26_2 C 0.5643(5) 0.2560(4) 0.9708(3)
C27_2 C 0.5914(4) 0.3157(4) 0.8893(3)
C30_2 C 0.6298(5) 0.4308(4) 0.9128(4)
H33_2 H 0.6812 0.4376 0.9638
H34_2 H 0.6647 0.4636 0.8650
H35_2 H 0.5679 0.4636 0.9245
C31_2 C 0.6765(5) 0.2778(4) 0.8375(4)
H36_2 H 0.7425 0.2769 0.8750
H37_2 H 0.6494 0.2087 0.8142
H38_2 H 0.6919 0.3235 0.7905
C32_2 C 0.3219(5) 0.4221(5) 0.4676(4)
C33_2 C 0.2203(5) 0.4418(5) 0.4077(4)
H39_2 H 0.1700 0.4610 0.4490
C34_2 C 0.2236(5) 0.5283(6) 0.3413(4)
H40_2 H 0.2922 0.5358 0.3143
H41_2 H 0.2179 0.5940 0.3704
C35_2 C 0.1268(5) 0.4982(5) 0.2720(4)
H42_2 H 0.0887 0.5569 0.2603
H43_2 H 0.1518 0.4747 0.2179
C36_2 C 0.0514(5) 0.4096(4) 0.3114(4)
C37_2 C 0.1493(6) 0.3573(5) 0.3487(4)
H44_2 H 0.0279 0.5263 0.3990
C40_2 C 0.2265(6) 0.3170(5) 0.2873(5)
H47_2 H 0.1807 0.2606 0.2480
H48_2 H 0.2793 0.2867 0.3196
H49_2 H 0.2528 0.3711 0.2531
C41_2 C 0.1093(6) 0.2604(6) 0.4017(5)
H50_2 H 0.0667 0.2803 0.4467
H51_2 H 0.0650 0.2083 0.3633
H52_2 H 0.1716 0.2328 0.4276
N1_2 N 0.9810(4) 0.0582(3) 0.8747(3)
N5_2 N 0.7348(4) 0.1984(4) 0.5097(3)
N6_2 N 0.6044(4) 0.2996(3) 0.5141(3)
O1_2 O 0.4706(4) 0.2544(3) 0.6882(2)
O2_2 O 0.4973(4) 0.4166(3) 0.7176(2)
O6_2 O 0.3108(3) 0.3724(4) 0.5339(3)
C12 C 0.8565(4) 0.9661(4) 0.0843(3)
H13 H 0.7840 0.9558 0.0603
C13 C 0.9252(5) 0.8898(4) 0.0793(4)
H14 H 0.9115 0.8237 0.0528
C12_2 C 0.1435(4) 0.0339(4) 0.9157(3)
H13_2 H 0.2160 0.0442 0.9397
C13_2 C 0.0748(5) 0.1102(4) 0.9207(4)
H14_2 H 0.0885 0.1763 0.9472
loop_
_geom_bond_atom_site_label_1
_geom_bond_atom_site_label_2
_geom_bond_site_symmetry_1
_geom_bond_site_symmetry_2
H45 C39 1_555 1_555
H46 C39 1_555 1_555
Cd2 O7 1_555 1_555
O7 C38 1_555 1_555
O8 C38 1_555 1_555
N7 Cd2 1_555 1_555
N8 Cd2 1_555 1_555
O9 Cd2 1_555 1_555
O10 Cd2 1_555 1_555
Cd2 O8 1_555 1_555
H30 C29 1_555 1_555
H31 C29 1_555 1_555
H32 C29 1_555 1_555
O9 C28 1_555 1_555
O10 C28 1_555 1_555
C4 C5 1_555 1_555
C5 C6 1_555 1_555
C8 C4 1_555 1_555
H4 C8 1_555 1_555
H5 C8 1_555 1_555
H6 C8 1_555 1_555
C9 C6 1_555 1_555
H7 C9 1_555 1_555
H8 C9 1_555 1_555
H9 C9 1_555 1_555
C11 H12 1_555 1_555
C14 C5 1_555 1_555
H15 C14 1_555 1_555
H16 C14 1_555 1_555
C16 C15 1_555 1_555
C17 H19 1_555 1_555
N3 C14 1_555 1_555
N8 C16 1_555 1_555
C15 N3 1_555 1_555
C17 N3 1_555 1_555
C17 N8 1_555 1_555
C4_2 C5_2 1_555 1_555
C5_2 C6_2 1_555 1_555
C8_2 C4_2 1_555 1_555
H4_2 C8_2 1_555 1_555
H5_2 C8_2 1_555 1_555
H6_2 C8_2 1_555 1_555
C9_2 C6_2 1_555 1_555
H7_2 C9_2 1_555 1_555
H8_2 C9_2 1_555 1_555
H9_2 C9_2 1_555 1_555
C11_2 H12_2 1_555 1_555
C14_2 C5_2 1_555 1_555
H15_2 C14_2 1_555 1_555
H16_2 C14_2 1_555 1_555
C16_2 C15_2 1_555 1_555
C17_2 H19_2 1_555 1_555
N3_2 C14_2 1_555 1_555
N4 C16_2 1_555 1_555
Cd6 N4 1_555 1_555
C15_2 N3_2 1_555 1_555
C17_2 N3_2 1_555 1_555
C17_2 N4 1_555 1_555
Cd6 N2 1_555 1_555
H30_2 C29_2 1_555 1_555
H31_2 C29_2 1_555 1_555
H32_2 C29_2 1_555 1_555
O3 C28_2 1_555 1_555
O4 C28_2 1_555 1_555
Cd6 O3 1_555 1_555
O4 Cd6 1_555 1_555
H45_2 C39_2 1_555 1_555
H46_2 C39_2 1_555 1_555
Cd6 O7_2 1_555 1_555
O7_2 C38_2 1_555 1_555
O8_2 C38_2 1_555 1_555
Cd6 O8_2 1_555 1_555
C1 C2 1_555 1_555
C2 C3 1_555 1_555
C7 C2 1_555 1_555
H1 C7 1_555 1_555
H2 C7 1_555 1_555
H3 C7 1_555 1_555
C10 C3 1_555 1_555
H10 C10 1_555 1_555
H11 C10 1_555 1_555
C18 C1 1_555 1_555
H20 C18 1_555 1_555
H21 C18 1_555 1_555
C19 H22 1_555 1_555
C20 C19 1_555 1_555
H23 C20 1_555 1_555
C21 H24 1_555 1_555
C22 C23 1_555 1_555
C23 H25 1_555 1_555
C24 C23 1_555 1_555
H26 C24 1_555 1_555
H27 C24 1_555 1_555
C25 C24 1_555 1_555
H28 C25 1_555 1_555
H29 C25 1_555 1_555
C26 C25 1_555 1_555
C27 C23 1_555 1_555
C30 C27 1_555 1_555
H33 C30 1_555 1_555
H34 C30 1_555 1_555
H35 C30 1_555 1_555
C31 C27 1_555 1_555
H36 C31 1_555 1_555
H37 C31 1_555 1_555
H38 C31 1_555 1_555
C32 C33 1_555 1_555
C33 H39 1_555 1_555
C34 C33 1_555 1_555
H40 C34 1_555 1_555
H41 C34 1_555 1_555
C35 C34 1_555 1_555
H42 C35 1_555 1_555
H43 C35 1_555 1_555
C36 C35 1_555 1_555
C37 C33 1_555 1_555
C40 C37 1_555 1_555
H47 C40 1_555 1_555
H48 C40 1_555 1_555
H49 C40 1_555 1_555
C41 C37 1_555 1_555
H50 C41 1_555 1_555
H51 C41 1_555 1_555
H52 C41 1_555 1_555
Cd1 N6 1_555 1_555
N1 C10 1_555 1_555
N5 C18 1_555 1_555
N6 C20 1_555 1_555
O1 C22 1_555 1_555
O2 C22 1_555 1_555
O5 C32 1_555 1_555
O6 C32 1_555 1_555
Cd3 O5 1_555 1_555
O11 Cd1 1_555 1_555
C19 N5 1_555 1_555
C21 N5 1_555 1_555
C21 N6 1_555 1_555
C26 C27 1_555 1_555
C36 C37 1_555 1_555
Cd1 O1 1_555 1_555
Cd1 O2 1_555 1_555
Cd1 O5 1_555 1_555
Cd1 O6 1_555 1_555
Cd3 O11 1_555 1_555
C1_2 C2_2 1_555 1_555
C2_2 C3_2 1_555 1_555
C7_2 C2_2 1_555 1_555
H1_2 C7_2 1_555 1_555
H2_2 C7_2 1_555 1_555
H3_2 C7_2 1_555 1_555
C10_2 C3_2 1_555 1_555
H10_2 C10_2 1_555 1_555
H11_2 C10_2 1_555 1_555
C18_2 C1_2 1_555 1_555
H20_2 C18_2 1_555 1_555
H21_2 C18_2 1_555 1_555
C19_2 H22_2 1_555 1_555
C20_2 C19_2 1_555 1_555
H23_2 C20_2 1_555 1_555
C21_2 H24_2 1_555 1_555
C22_2 C23_2 1_555 1_555
C23_2 H25_2 1_555 1_555
C24_2 C23_2 1_555 1_555
H26_2 C24_2 1_555 1_555
H27_2 C24_2 1_555 1_555
C25_2 C24_2 1_555 1_555
H28_2 C25_2 1_555 1_555
H29_2 C25_2 1_555 1_555
C26_2 C25_2 1_555 1_555
C27_2 C23_2 1_555 1_555
C30_2 C27_2 1_555 1_555
H33_2 C30_2 1_555 1_555
H34_2 C30_2 1_555 1_555
H35_2 C30_2 1_555 1_555
C31_2 C27_2 1_555 1_555
H36_2 C31_2 1_555 1_555
H37_2 C31_2 1_555 1_555
H38_2 C31_2 1_555 1_555
C32_2 C33_2 1_555 1_555
C33_2 H39_2 1_555 1_555
C34_2 C33_2 1_555 1_555
H40_2 C34_2 1_555 1_555
H41_2 C34_2 1_555 1_555
C35_2 C34_2 1_555 1_555
H42_2 C35_2 1_555 1_555
H43_2 C35_2 1_555 1_555
C36_2 C35_2 1_555 1_555
C37_2 C33_2 1_555 1_555
C40_2 C37_2 1_555 1_555
H47_2 C40_2 1_555 1_555
H48_2 C40_2 1_555 1_555
H49_2 C40_2 1_555 1_555
C41_2 C37_2 1_555 1_555
H50_2 C41_2 1_555 1_555
H51_2 C41_2 1_555 1_555
H52_2 C41_2 1_555 1_555
Cd3 N6_2 1_555 1_555
N1_2 C10_2 1_555 1_555
N5_2 C18_2 1_555 1_555
N6_2 C20_2 1_555 1_555
O1_2 C22_2 1_555 1_555
O2_2 C22_2 1_555 1_555
O11 C32_2 1_555 1_555
O6_2 C32_2 1_555 1_555
C19_2 N5_2 1_555 1_555
C21_2 N5_2 1_555 1_555
C21_2 N6_2 1_555 1_555
C26_2 C27_2 1_555 1_555
C36_2 C37_2 1_555 1_555
Cd3 O1_2 1_555 1_555
Cd3 O2_2 1_555 1_555
Cd3 O6_2 1_555 1_555
C12 H13 1_555 1_555
C13 C12 1_555 1_555
H14 C13 1_555 1_555
C12_2 H13_2 1_555 1_555
C13_2 C12_2 1_555 1_555
H14_2 C13_2 1_555 1_555

#END
