
###############################################################################
#
# This file contains modified crystal structure data generated from the
# MOF subset of the Cambridge Structural Database (CSD) v543 
# hosted by the Cambridge Crystallographic Data Centre (CCDC).
#
# This work is licensed under the Creative Commons
# Attribution-NonCommercial-ShareAlike 4.0 International License.
# To view a copy of this license, visit
# http://creativecommons.org/licenses/by-nc-sa/4.0/
# or send a letter to
# Creative Commons, PO Box 1866, Mountain View, CA 94042, USA.
#
# CIF created using the CSD Python API on 29 September 2022
# The structure has been converted into the P1 space group
# The structure has a 3D framework
# The original CSD entry QITDOO is in the tetragonal crystal system
# The framework has been calculated to contain at least 10.0% void space
# The void calculation uses a probe of radius 1.32A, grid spacing 0.4
# H atom positions have been added when not included in the experimental data
#
###############################################################################

data_QITDOO
_chemical_formula_moiety         '(C576 H352 La32 O218)n'
_symmetry_cell_setting           triclinic
_symmetry_space_group_name_H-M   'P 1'
_symmetry_Int_Tables_number      1
_space_group_name_Hall           'P 1'
loop_
_symmetry_equiv_pos_site_id
_symmetry_equiv_pos_as_xyz
1 x,y,z
_cell_length_a                   30.760(5)
_cell_length_b                   30.760(5)
_cell_length_c                   16.103(5)
_cell_angle_alpha                90
_cell_angle_beta                 90
_cell_angle_gamma                90
_cell_volume                     15236.3
loop_
_atom_site_label
_atom_site_type_symbol
_atom_site_fract_x
_atom_site_fract_y
_atom_site_fract_z
O18 O 0.04599(15) 0.68380(15) 0.0043(3)
O22 O 0.06470(16) 0.77533(16) 0.0169(4)
C1 C 0.1037(2) 0.6821(2) 0.8185(4)
C2 C 0.1395(2) 0.6514(2) 0.7935(4)
C3 C 0.1266(3) 0.6157(3) 0.7489(6)
H1 H 0.0973 0.6127 0.7355
C4 C 0.1557(3) 0.5837(3) 0.7230(5)
H2 H 0.1457 0.5602 0.6922
C5 C 0.1991(2) 0.5868(2) 0.7427(4)
C6 C 0.2284(2) 0.5521(2) 0.7091(4)
C7 C 0.2140(3) 0.6215(3) 0.7926(5)
C8 C 0.2582(4) 0.6245(4) 0.8125(7)
H3 H 0.2778 0.6036 0.7943
C9 C 0.2718(4) 0.6592(4) 0.8599(8)
H4 H 0.3012 0.6616 0.8726
C10 C 0.2434(4) 0.6911(4) 0.8896(8)
H5 H 0.2532 0.7130 0.9248
C11 C 0.1998(3) 0.6892(3) 0.8650(6)
H6 H 0.1808 0.7110 0.8822
C12 C 0.1840(3) 0.6552(2) 0.8151(5)
H11 H 0.0003 0.5593 0.3821
H17 H 0.0055 0.5552 0.6379
O1 O 0.06545(17) 0.67425(18) 0.7924(3)
O2 O 0.11028(16) 0.71501(16) 0.8642(3)
O3 O 0.03410(16) 0.67853(17) 0.6362(4)
O4 O 0.24959(18) 0.52734(16) 0.7572(3)
O6 O 0.23097(16) 0.54730(16) 0.6304(4)
La1 La 0.027167(10) 0.730128(10) 0.87940(2)
O16 O 0.02734(16) 0.75041(18) 0.5072(3)
O19 O 0.03022(17) 0.76866(16) 0.7385(3)
O20 O 0.00217(18) 0.81205(15) 0.6454(3)
O21 O 0.0405(2) 0.80939(19) 0.9080(4)
La5 La 0.269872(10) 0.472833(10) 0.62940(2)
La6 La 0.264101(11) 0.475720(10) 0.87923(2)
H19 H 0.0208202 0.65014 0.650972
H20 H 0.0486467 0.676139 0.58134
O15 O 0.97266(16) 0.75041(18) 0.0072(3)
C13 C 0.9202(2) 0.6704(2) 0.5447(4)
C14 C 0.8940(2) 0.6336(2) 0.5135(4)
C15 C 0.8502(2) 0.6348(2) 0.5342(5)
H7 H 0.8394 0.6581 0.5647
C16 C 0.8220(2) 0.6015(2) 0.5099(5)
H8 H 0.7926 0.6036 0.5228
C17 C 0.8369(2) 0.5657(2) 0.4674(4)
C18 C 0.8048(2) 0.5301(2) 0.4502(4)
C19 C 0.8815(2) 0.5637(2) 0.4408(4)
C20 C 0.8992(2) 0.5298(2) 0.3897(6)
H9 H 0.8807 0.5083 0.3698
C21 C 0.9419(3) 0.5279(3) 0.3695(6)
H10 H 0.9522 0.5048 0.3377
C22 C 0.9711(3) 0.5606(3) 0.3965(7)
C23 C 0.9557(2) 0.5946(2) 0.4443(5)
H12 H 0.9750 0.6157 0.4629
C24 C 0.9108(2) 0.5978(2) 0.4660(4)
C25 C 0.9560(2) 0.6701(2) 0.8179(4)
C26 C 0.9199(2) 0.6396(2) 0.7948(4)
C27 C 0.8789(3) 0.6477(3) 0.8259(5)
H13 H 0.8742 0.6711 0.8612
C28 C 0.8441(3) 0.6199(3) 0.8035(5)
H14 H 0.8166 0.6251 0.8254
C29 C 0.8496(2) 0.5855(2) 0.7506(5)
C30 C 0.8089(2) 0.5620(2) 0.7241(5)
C31 C 0.8923(2) 0.5753(2) 0.7171(5)
C32 C 0.9016(3) 0.5406(3) 0.6642(5)
H15 H 0.8794 0.5221 0.6470
C33 C 0.9426(3) 0.5338(3) 0.6381(8)
H16 H 0.9479 0.5097 0.6045
C34 C 0.9778(3) 0.5606(3) 0.6583(7)
C35 C 0.9695(3) 0.5949(3) 0.7091(6)
H18 H 0.9923 0.6131 0.7241
C36 C 0.9272(2) 0.6038(2) 0.7400(4)
O5 O 0.9176(2) 0.7720(2) 0.7222(4)
O7 O 0.95401(15) 0.68380(15) 0.5043(3)
O8 O 0.90926(16) 0.68908(17) 0.6095(3)
O9 O 0.76866(16) 0.53022(17) 0.4885(3)
O10 O 0.81205(15) 0.50217(18) 0.3954(3)
O11 O 0.97253(15) 0.69511(16) 0.7660(3)
O12 O 0.96812(16) 0.67008(17) 0.8926(3)
O13 O 0.80939(19) 0.5405(2) 0.6580(4)
O14 O 0.77533(16) 0.56470(16) 0.7669(4)
La2 La 0.975720(10) 0.735899(11) 0.62923(2)
O17 O 0.95270(16) 0.76903(16) 0.8804(4)
O23 O 0.93530(16) 0.77533(16) 0.5169(4)
La3 La 0.972833(10) 0.730128(10) 0.37940(2)
La4 La 0.730128(10) 0.527167(10) 0.62940(2)
La7 La 0.735899(11) 0.524280(10) 0.87923(2)
La8 La 0.735899(11) 0.475720(10) 0.37923(2)
H21 H 0.931955 0.786115 0.770405
H22 H 0.901561 0.794216 0.689596
O15_2 O 0.02734(16) 0.24959(18) 0.0072(3)
C13_2 C 0.0798(2) 0.3296(2) 0.5447(4)
C14_2 C 0.1060(2) 0.3664(2) 0.5135(4)
C15_2 C 0.1498(2) 0.3652(2) 0.5342(5)
H7_2 H 0.1606 0.3419 0.5647
C16_2 C 0.1780(2) 0.3985(2) 0.5099(5)
H8_2 H 0.2074 0.3964 0.5228
C17_2 C 0.1631(2) 0.4343(2) 0.4674(4)
C18_2 C 0.1952(2) 0.4699(2) 0.4502(4)
C19_2 C 0.1185(2) 0.4363(2) 0.4408(4)
C20_2 C 0.1008(2) 0.4702(2) 0.3897(6)
H9_2 H 0.1193 0.4917 0.3698
C21_2 C 0.0581(3) 0.4721(3) 0.3695(6)
H10_2 H 0.0478 0.4952 0.3377
C22_2 C 0.0289(3) 0.4394(3) 0.3965(7)
C23_2 C 0.0443(2) 0.4054(2) 0.4443(5)
H12_2 H 0.0250 0.3843 0.4629
C24_2 C 0.0892(2) 0.4022(2) 0.4660(4)
C25_2 C 0.0440(2) 0.3299(2) 0.8179(4)
C26_2 C 0.0801(2) 0.3604(2) 0.7948(4)
C27_2 C 0.1211(3) 0.3523(3) 0.8259(5)
H13_2 H 0.1258 0.3289 0.8612
C28_2 C 0.1559(3) 0.3801(3) 0.8035(5)
H14_2 H 0.1834 0.3749 0.8254
C29_2 C 0.1504(2) 0.4145(2) 0.7506(5)
C30_2 C 0.1911(2) 0.4380(2) 0.7241(5)
C31_2 C 0.1077(2) 0.4247(2) 0.7171(5)
C32_2 C 0.0984(3) 0.4594(3) 0.6642(5)
H15_2 H 0.1206 0.4779 0.6470
C33_2 C 0.0574(3) 0.4662(3) 0.6381(8)
H16_2 H 0.0521 0.4903 0.6045
C34_2 C 0.0222(3) 0.4394(3) 0.6583(7)
C35_2 C 0.0305(3) 0.4051(3) 0.7091(6)
H18_2 H 0.0077 0.3869 0.7241
C36_2 C 0.0728(2) 0.3962(2) 0.7400(4)
O5_2 O 0.0824(2) 0.2280(2) 0.7222(4)
O7_2 O 0.04599(15) 0.31620(15) 0.5043(3)
O8_2 O 0.09074(16) 0.31092(17) 0.6095(3)
O9_2 O 0.23134(16) 0.46978(17) 0.4885(3)
O10_2 O 0.18795(15) 0.49783(18) 0.3954(3)
O11_2 O 0.02747(15) 0.30489(16) 0.7660(3)
O12_2 O 0.03188(16) 0.32992(17) 0.8926(3)
O13_2 O 0.19061(19) 0.4595(2) 0.6580(4)
O14_2 O 0.22467(16) 0.43530(16) 0.7669(4)
La2_2 La 0.024280(10) 0.264101(11) 0.62923(2)
O17_2 O 0.04730(16) 0.23097(16) 0.8804(4)
O23_2 O 0.06470(16) 0.22467(16) 0.5169(4)
La3_2 La 0.027167(10) 0.269872(10) 0.37940(2)
La8_2 La 0.264101(11) 0.524280(10) 0.37923(2)
H21_2 H 0.0680454 0.213885 0.770405
H22_2 H 0.0984394 0.205784 0.689596
O18_2 O 0.95401(15) 0.31620(15) 0.0043(3)
O22_2 O 0.93530(16) 0.22467(16) 0.0169(4)
C1_2 C 0.8963(2) 0.3179(2) 0.8185(4)
C2_2 C 0.8605(2) 0.3486(2) 0.7935(4)
C3_2 C 0.8734(3) 0.3843(3) 0.7489(6)
H1_2 H 0.9027 0.3873 0.7355
C4_2 C 0.8443(3) 0.4163(3) 0.7230(5)
H2_2 H 0.8543 0.4398 0.6922
C5_2 C 0.8009(2) 0.4132(2) 0.7427(4)
C6_2 C 0.7716(2) 0.4479(2) 0.7091(4)
C7_2 C 0.7860(3) 0.3785(3) 0.7926(5)
C8_2 C 0.7418(4) 0.3755(4) 0.8125(7)
H3_2 H 0.7222 0.3964 0.7943
C9_2 C 0.7282(4) 0.3408(4) 0.8599(8)
H4_2 H 0.6988 0.3384 0.8726
C10_2 C 0.7566(4) 0.3089(4) 0.8896(8)
H5_2 H 0.7468 0.2870 0.9248
C11_2 C 0.8002(3) 0.3108(3) 0.8650(6)
H6_2 H 0.8192 0.2890 0.8822
C12_2 C 0.8160(3) 0.3448(2) 0.8151(5)
H11_2 H 0.9997 0.4407 0.3821
H17_2 H 0.9945 0.4448 0.6379
O1_2 O 0.93455(17) 0.32575(18) 0.7924(3)
O2_2 O 0.88972(16) 0.28499(16) 0.8642(3)
O3_2 O 0.96590(16) 0.32147(17) 0.6362(4)
O4_2 O 0.75041(18) 0.47266(16) 0.7572(3)
O6_2 O 0.76903(16) 0.45270(16) 0.6304(4)
La1_2 La 0.972833(10) 0.269872(10) 0.87940(2)
O16_2 O 0.97266(16) 0.24959(18) 0.5072(3)
O19_2 O 0.96978(17) 0.23134(16) 0.7385(3)
O20_2 O 0.99783(18) 0.18795(15) 0.6454(3)
O21_2 O 0.9595(2) 0.19061(19) 0.9080(4)
H19_2 H 0.97918 0.34986 0.650972
H20_2 H 0.951353 0.323861 0.58134
C1_3 C 0.3179(2) 0.6037(2) 0.0685(4)
C2_3 C 0.3486(2) 0.6395(2) 0.0435(4)
C7_3 C 0.3785(3) 0.7140(3) 0.0426(5)
C8_3 C 0.3755(4) 0.7582(4) 0.0625(7)
H3_3 H 0.3964 0.7778 0.0443
C9_3 C 0.3408(4) 0.7718(4) 0.1099(8)
H4_3 H 0.3384 0.8012 0.1226
C10_3 C 0.3089(4) 0.7434(4) 0.1396(8)
H5_3 H 0.2870 0.7532 0.1748
C11_3 C 0.3108(3) 0.6998(3) 0.1150(6)
H6_3 H 0.2890 0.6808 0.1322
C12_3 C 0.3448(2) 0.6840(3) 0.0651(5)
C25_3 C 0.3299(2) 0.4560(2) 0.0679(4)
C26_3 C 0.3604(2) 0.4199(2) 0.0448(4)
C27_3 C 0.3523(3) 0.3789(3) 0.0759(5)
H13_3 H 0.3289 0.3742 0.1112
C28_3 C 0.3801(3) 0.3441(3) 0.0535(5)
H14_3 H 0.3749 0.3166 0.0754
C29_3 C 0.4145(2) 0.3496(2) 0.0006(5)
O1_3 O 0.32575(18) 0.56545(17) 0.0424(3)
O2_3 O 0.28499(16) 0.61028(16) 0.1142(3)
O4_3 O 0.47266(16) 0.74959(18) 0.0072(3)
O11_3 O 0.30489(16) 0.47253(15) 0.0160(3)
O12_3 O 0.32992(17) 0.46812(16) 0.1426(3)
O14_3 O 0.43530(16) 0.27533(16) 0.0169(4)
La1_3 La 0.269872(10) 0.527167(10) 0.12940(2)
O15_3 O 0.24959(18) 0.47266(16) 0.2572(3)
O17_3 O 0.23097(16) 0.45270(16) 0.1304(4)
O18_3 O 0.31620(15) 0.54599(15) 0.2543(3)
O21_3 O 0.19061(19) 0.5405(2) 0.1580(4)
O22_3 O 0.22467(16) 0.56470(16) 0.2669(4)
La6_2 La 0.524280(10) 0.764101(11) 0.12923(2)
La7_2 La 0.475720(10) 0.235899(11) 0.12923(2)
H21_3 H 0.213885 0.431955 0.0204053
C3_3 C 0.3843(3) 0.6266(3) 0.9989(6)
H1_3 H 0.3873 0.5973 0.9855
C4_3 C 0.4163(3) 0.6557(3) 0.9730(5)
H2_3 H 0.4398 0.6457 0.9422
C5_3 C 0.4132(2) 0.6991(2) 0.9927(4)
C6_3 C 0.4479(2) 0.7284(2) 0.9591(4)
C13_3 C 0.3296(2) 0.4202(2) 0.7947(4)
C14_3 C 0.3664(2) 0.3940(2) 0.7635(4)
C15_3 C 0.3652(2) 0.3502(2) 0.7842(5)
H7_3 H 0.3419 0.3394 0.8147
C16_3 C 0.3985(2) 0.3220(2) 0.7599(5)
H8_3 H 0.3964 0.2926 0.7728
C17_3 C 0.4343(2) 0.3369(2) 0.7174(4)
C18_3 C 0.4699(2) 0.3048(2) 0.7002(4)
C19_3 C 0.4363(2) 0.3815(2) 0.6908(4)
C20_3 C 0.4702(2) 0.3992(2) 0.6397(6)
H9_3 H 0.4917 0.3807 0.6198
C21_3 C 0.4721(3) 0.4419(3) 0.6195(6)
H10_3 H 0.4952 0.4522 0.5877
C22_3 C 0.4394(3) 0.4711(3) 0.6465(7)
H11_3 H 0.4407 0.5003 0.6321
C23_3 C 0.4054(2) 0.4557(2) 0.6943(5)
H12_3 H 0.3843 0.4750 0.7129
C24_3 C 0.4022(2) 0.4108(2) 0.7160(4)
C30_3 C 0.4380(2) 0.3089(2) 0.9741(5)
C31_3 C 0.4247(2) 0.3923(2) 0.9671(5)
C32_3 C 0.4594(3) 0.4016(3) 0.9142(5)
H15_3 H 0.4779 0.3794 0.8970
C33_3 C 0.4662(3) 0.4426(3) 0.8881(8)
H16_3 H 0.4903 0.4479 0.8545
C34_3 C 0.4394(3) 0.4778(3) 0.9083(7)
H17_3 H 0.4448 0.5055 0.8879
C35_3 C 0.4051(3) 0.4695(3) 0.9591(6)
H18_3 H 0.3869 0.4923 0.9741
C36_3 C 0.3962(2) 0.4272(2) 0.9900(4)
O3_3 O 0.32147(17) 0.53410(16) 0.8862(4)
O5_3 O 0.2280(2) 0.4176(2) 0.9722(4)
O6_3 O 0.45270(16) 0.73097(16) 0.8804(4)
O7_3 O 0.31620(15) 0.45401(15) 0.7543(3)
O8_3 O 0.31092(17) 0.40926(16) 0.8595(3)
O9_3 O 0.46978(17) 0.26866(16) 0.7385(3)
O10_3 O 0.49783(18) 0.31205(15) 0.6454(3)
O13_3 O 0.4595(2) 0.30939(19) 0.9080(4)
O19_3 O 0.23134(16) 0.53022(17) 0.9885(3)
O20_3 O 0.18795(15) 0.50217(18) 0.8954(3)
La4_2 La 0.472833(10) 0.230128(10) 0.87940(2)
La5_2 La 0.527167(10) 0.769872(10) 0.87940(2)
La8_3 La 0.524280(10) 0.235899(11) 0.62923(2)
H19_3 H 0.34986 0.52082 0.900972
H20_3 H 0.323861 0.548647 0.83134
H22_3 H 0.205784 0.401561 0.939596
C1_4 C 0.6821(2) 0.3963(2) 0.0685(4)
C2_4 C 0.6514(2) 0.3605(2) 0.0435(4)
C7_4 C 0.6215(3) 0.2860(3) 0.0426(5)
C8_4 C 0.6245(4) 0.2418(4) 0.0625(7)
H3_4 H 0.6036 0.2222 0.0443
C9_4 C 0.6592(4) 0.2282(4) 0.1099(8)
H4_4 H 0.6616 0.1988 0.1226
C10_4 C 0.6911(4) 0.2566(4) 0.1396(8)
H5_4 H 0.7130 0.2468 0.1748
C11_4 C 0.6892(3) 0.3002(3) 0.1150(6)
H6_4 H 0.7110 0.3192 0.1322
C12_4 C 0.6552(2) 0.3160(3) 0.0651(5)
C25_4 C 0.6701(2) 0.5440(2) 0.0679(4)
C26_4 C 0.6396(2) 0.5801(2) 0.0448(4)
C27_4 C 0.6477(3) 0.6211(3) 0.0759(5)
H13_4 H 0.6711 0.6258 0.1112
C28_4 C 0.6199(3) 0.6559(3) 0.0535(5)
H14_4 H 0.6251 0.6834 0.0754
C29_4 C 0.5855(2) 0.6504(2) 0.0006(5)
O1_4 O 0.67425(18) 0.43455(17) 0.0424(3)
O2_4 O 0.71501(16) 0.38972(16) 0.1142(3)
O4_4 O 0.52734(16) 0.25041(18) 0.0072(3)
O11_4 O 0.69511(16) 0.52747(15) 0.0160(3)
O12_4 O 0.67008(17) 0.53188(16) 0.1426(3)
O14_4 O 0.56470(16) 0.72467(16) 0.0169(4)
La1_4 La 0.730128(10) 0.472833(10) 0.12940(2)
O15_4 O 0.75041(18) 0.52734(16) 0.2572(3)
O17_4 O 0.76903(16) 0.54730(16) 0.1304(4)
O18_4 O 0.68380(15) 0.45401(15) 0.2543(3)
O21_4 O 0.80939(19) 0.4595(2) 0.1580(4)
O22_4 O 0.77533(16) 0.43530(16) 0.2669(4)
H21_4 H 0.786115 0.568045 0.0204053
C3_4 C 0.6157(3) 0.3734(3) 0.9989(6)
H1_4 H 0.6127 0.4027 0.9855
C4_4 C 0.5837(3) 0.3443(3) 0.9730(5)
H2_4 H 0.5602 0.3543 0.9422
C5_4 C 0.5868(2) 0.3009(2) 0.9927(4)
C6_4 C 0.5521(2) 0.2716(2) 0.9591(4)
C13_4 C 0.6704(2) 0.5798(2) 0.7947(4)
C14_4 C 0.6336(2) 0.6060(2) 0.7635(4)
C15_4 C 0.6348(2) 0.6498(2) 0.7842(5)
H7_4 H 0.6581 0.6606 0.8147
C16_4 C 0.6015(2) 0.6780(2) 0.7599(5)
H8_4 H 0.6036 0.7074 0.7728
C17_4 C 0.5657(2) 0.6631(2) 0.7174(4)
C18_4 C 0.5301(2) 0.6952(2) 0.7002(4)
C19_4 C 0.5637(2) 0.6185(2) 0.6908(4)
C20_4 C 0.5298(2) 0.6008(2) 0.6397(6)
H9_4 H 0.5083 0.6193 0.6198
C21_4 C 0.5279(3) 0.5581(3) 0.6195(6)
H10_4 H 0.5048 0.5478 0.5877
C22_4 C 0.5606(3) 0.5289(3) 0.6465(7)
H11_4 H 0.5593 0.4997 0.6321
C23_4 C 0.5946(2) 0.5443(2) 0.6943(5)
H12_4 H 0.6157 0.5250 0.7129
C24_4 C 0.5978(2) 0.5892(2) 0.7160(4)
C30_4 C 0.5620(2) 0.6911(2) 0.9741(5)
C31_4 C 0.5753(2) 0.6077(2) 0.9671(5)
C32_4 C 0.5406(3) 0.5984(3) 0.9142(5)
H15_4 H 0.5221 0.6206 0.8970
C33_4 C 0.5338(3) 0.5574(3) 0.8881(8)
H16_4 H 0.5097 0.5521 0.8545
C34_4 C 0.5606(3) 0.5222(3) 0.9083(7)
H17_4 H 0.5552 0.4945 0.8879
C35_4 C 0.5949(3) 0.5305(3) 0.9591(6)
H18_4 H 0.6131 0.5077 0.9741
C36_4 C 0.6038(2) 0.5728(2) 0.9900(4)
O3_4 O 0.67853(17) 0.46590(16) 0.8862(4)
O5_4 O 0.7720(2) 0.5824(2) 0.9722(4)
O6_4 O 0.54730(16) 0.26903(16) 0.8804(4)
O7_4 O 0.68380(15) 0.54599(15) 0.7543(3)
O8_4 O 0.68908(17) 0.59074(16) 0.8595(3)
O9_4 O 0.53022(17) 0.73134(16) 0.7385(3)
O10_4 O 0.50217(18) 0.68795(15) 0.6454(3)
O13_4 O 0.5405(2) 0.69061(19) 0.9080(4)
O19_4 O 0.76866(16) 0.46978(17) 0.9885(3)
O20_4 O 0.81205(15) 0.49783(18) 0.8954(3)
La8_4 La 0.475720(10) 0.764101(11) 0.62923(2)
H19_4 H 0.65014 0.47918 0.900972
H20_4 H 0.676139 0.451353 0.83134
H22_4 H 0.794216 0.598439 0.939596
C13_5 C 0.0798(2) 0.6704(2) 0.0447(4)
C14_5 C 0.1060(2) 0.6336(2) 0.0135(4)
C15_5 C 0.1498(2) 0.6348(2) 0.0342(5)
H7_5 H 0.1606 0.6581 0.0647
C16_5 C 0.1780(2) 0.6015(2) 0.0099(5)
H8_5 H 0.2074 0.6036 0.0228
C25_5 C 0.0440(2) 0.6701(2) 0.3179(4)
C26_5 C 0.0801(2) 0.6396(2) 0.2948(4)
C27_5 C 0.1211(3) 0.6477(3) 0.3259(5)
H13_5 H 0.1258 0.6711 0.3612
C28_5 C 0.1559(3) 0.6199(3) 0.3035(5)
H14_5 H 0.1834 0.6251 0.3254
C29_5 C 0.1504(2) 0.5855(2) 0.2506(5)
C30_5 C 0.1911(2) 0.5620(2) 0.2241(5)
C31_5 C 0.1077(2) 0.5753(2) 0.2171(5)
C32_5 C 0.0984(3) 0.5406(3) 0.1642(5)
H15_5 H 0.1206 0.5221 0.1470
C33_5 C 0.0574(3) 0.5338(3) 0.1381(8)
H16_5 H 0.0521 0.5097 0.1045
C34_5 C 0.0222(3) 0.5606(3) 0.1583(7)
C35_5 C 0.0305(3) 0.5949(3) 0.2091(6)
H18_5 H 0.0077 0.6131 0.2241
C36_5 C 0.0728(2) 0.6038(2) 0.2400(4)
O5_5 O 0.0824(2) 0.7720(2) 0.2222(4)
O8_5 O 0.09074(16) 0.68908(17) 0.1095(3)
O11_5 O 0.02747(15) 0.69511(16) 0.2660(3)
O12_5 O 0.03188(16) 0.67008(17) 0.3926(3)
La2_3 La 0.024280(10) 0.735899(11) 0.12923(2)
O17_5 O 0.04730(16) 0.76903(16) 0.3804(4)
H21_5 H 0.0680454 0.786115 0.270405
H22_5 H 0.0984394 0.794216 0.189596
C17_5 C 0.1631(2) 0.5657(2) 0.9674(4)
C18_5 C 0.1952(2) 0.5301(2) 0.9502(4)
C19_5 C 0.1185(2) 0.5637(2) 0.9408(4)
C20_5 C 0.1008(2) 0.5298(2) 0.8897(6)
H9_5 H 0.1193 0.5083 0.8698
C21_5 C 0.0581(3) 0.5279(3) 0.8695(6)
H10_5 H 0.0478 0.5048 0.8377
C22_5 C 0.0289(3) 0.5606(3) 0.8965(7)
C23_5 C 0.0443(2) 0.5946(2) 0.9443(5)
H12_5 H 0.0250 0.6157 0.9629
C24_5 C 0.0892(2) 0.5978(2) 0.9660(4)
C1_5 C 0.8963(2) 0.6821(2) 0.3185(4)
C2_5 C 0.8605(2) 0.6514(2) 0.2935(4)
C3_5 C 0.8734(3) 0.6157(3) 0.2489(6)
H1_5 H 0.9027 0.6127 0.2355
C4_5 C 0.8443(3) 0.5837(3) 0.2230(5)
H2_5 H 0.8543 0.5602 0.1922
C5_5 C 0.8009(2) 0.5868(2) 0.2427(4)
C6_5 C 0.7716(2) 0.5521(2) 0.2091(4)
C7_5 C 0.7860(3) 0.6215(3) 0.2926(5)
C8_5 C 0.7418(4) 0.6245(4) 0.3125(7)
H3_5 H 0.7222 0.6036 0.2943
C9_5 C 0.7282(4) 0.6592(4) 0.3599(8)
H4_5 H 0.6988 0.6616 0.3726
C10_5 C 0.7566(4) 0.6911(4) 0.3896(8)
H5_5 H 0.7468 0.7130 0.4248
C11_5 C 0.8002(3) 0.6892(3) 0.3650(6)
H6_5 H 0.8192 0.7110 0.3822
C12_5 C 0.8160(3) 0.6552(2) 0.3151(5)
H17_5 H 0.9945 0.5552 0.1379
O1_5 O 0.93455(17) 0.67425(18) 0.2924(3)
O2_5 O 0.88972(16) 0.71501(16) 0.3642(3)
O3_5 O 0.96590(16) 0.67853(17) 0.1362(4)
O19_5 O 0.96978(17) 0.76866(16) 0.2385(3)
O20_5 O 0.99783(18) 0.81205(15) 0.1454(3)
O21_5 O 0.9595(2) 0.80939(19) 0.4080(4)
H19_5 H 0.97918 0.65014 0.150972
H20_5 H 0.951353 0.676139 0.0813398
C1_6 C 0.1037(2) 0.3179(2) 0.3185(4)
C2_6 C 0.1395(2) 0.3486(2) 0.2935(4)
C3_6 C 0.1266(3) 0.3843(3) 0.2489(6)
H1_6 H 0.0973 0.3873 0.2355
C4_6 C 0.1557(3) 0.4163(3) 0.2230(5)
H2_6 H 0.1457 0.4398 0.1922
C5_6 C 0.1991(2) 0.4132(2) 0.2427(4)
C6_6 C 0.2284(2) 0.4479(2) 0.2091(4)
C7_6 C 0.2140(3) 0.3785(3) 0.2926(5)
C8_6 C 0.2582(4) 0.3755(4) 0.3125(7)
H3_6 H 0.2778 0.3964 0.2943
C9_6 C 0.2718(4) 0.3408(4) 0.3599(8)
H4_6 H 0.3012 0.3384 0.3726
C10_6 C 0.2434(4) 0.3089(4) 0.3896(8)
H5_6 H 0.2532 0.2870 0.4248
C11_6 C 0.1998(3) 0.3108(3) 0.3650(6)
H6_6 H 0.1808 0.2890 0.3822
C12_6 C 0.1840(3) 0.3448(2) 0.3151(5)
H17_6 H 0.0055 0.4448 0.1379
O1_6 O 0.06545(17) 0.32575(18) 0.2924(3)
O2_6 O 0.11028(16) 0.28499(16) 0.3642(3)
O3_6 O 0.03410(16) 0.32147(17) 0.1362(4)
O19_6 O 0.03022(17) 0.23134(16) 0.2385(3)
O20_6 O 0.00217(18) 0.18795(15) 0.1454(3)
O21_6 O 0.0405(2) 0.19061(19) 0.4080(4)
H19_6 H 0.0208202 0.34986 0.150972
H20_6 H 0.0486467 0.323861 0.0813398
C13_6 C 0.9202(2) 0.3296(2) 0.0447(4)
C14_6 C 0.8940(2) 0.3664(2) 0.0135(4)
C15_6 C 0.8502(2) 0.3652(2) 0.0342(5)
H7_6 H 0.8394 0.3419 0.0647
C16_6 C 0.8220(2) 0.3985(2) 0.0099(5)
H8_6 H 0.7926 0.3964 0.0228
C25_6 C 0.9560(2) 0.3299(2) 0.3179(4)
C26_6 C 0.9199(2) 0.3604(2) 0.2948(4)
C27_6 C 0.8789(3) 0.3523(3) 0.3259(5)
H13_6 H 0.8742 0.3289 0.3612
C28_6 C 0.8441(3) 0.3801(3) 0.3035(5)
H14_6 H 0.8166 0.3749 0.3254
C29_6 C 0.8496(2) 0.4145(2) 0.2506(5)
C30_6 C 0.8089(2) 0.4380(2) 0.2241(5)
C31_6 C 0.8923(2) 0.4247(2) 0.2171(5)
C32_6 C 0.9016(3) 0.4594(3) 0.1642(5)
H15_6 H 0.8794 0.4779 0.1470
C33_6 C 0.9426(3) 0.4662(3) 0.1381(8)
H16_6 H 0.9479 0.4903 0.1045
C34_6 C 0.9778(3) 0.4394(3) 0.1583(7)
C35_6 C 0.9695(3) 0.4051(3) 0.2091(6)
H18_6 H 0.9923 0.3869 0.2241
C36_6 C 0.9272(2) 0.3962(2) 0.2400(4)
O5_6 O 0.9176(2) 0.2280(2) 0.2222(4)
O8_6 O 0.90926(16) 0.31092(17) 0.1095(3)
O11_6 O 0.97253(15) 0.30489(16) 0.2660(3)
O12_6 O 0.96812(16) 0.32992(17) 0.3926(3)
La2_4 La 0.975720(10) 0.264101(11) 0.12923(2)
O17_6 O 0.95270(16) 0.23097(16) 0.3804(4)
H21_6 H 0.931955 0.213885 0.270405
H22_6 H 0.901561 0.205784 0.189596
C17_6 C 0.8369(2) 0.4343(2) 0.9674(4)
C18_6 C 0.8048(2) 0.4699(2) 0.9502(4)
C19_6 C 0.8815(2) 0.4363(2) 0.9408(4)
C20_6 C 0.8992(2) 0.4702(2) 0.8897(6)
H9_6 H 0.8807 0.4917 0.8698
C21_6 C 0.9419(3) 0.4721(3) 0.8695(6)
H10_6 H 0.9522 0.4952 0.8377
C22_6 C 0.9711(3) 0.4394(3) 0.8965(7)
C23_6 C 0.9557(2) 0.4054(2) 0.9443(5)
H12_6 H 0.9750 0.3843 0.9629
C24_6 C 0.9108(2) 0.4022(2) 0.9660(4)
C1_7 C 0.1821(2) 0.1037(2) 0.0685(4)
C2_7 C 0.1514(2) 0.1395(2) 0.0435(4)
C7_7 C 0.1215(3) 0.2140(3) 0.0426(5)
C8_7 C 0.1245(4) 0.2582(4) 0.0625(7)
H3_7 H 0.1036 0.2778 0.0443
C9_7 C 0.1592(4) 0.2718(4) 0.1099(8)
H4_7 H 0.1616 0.3012 0.1226
C10_7 C 0.1911(4) 0.2434(4) 0.1396(8)
H5_7 H 0.2130 0.2532 0.1748
C11_7 C 0.1892(3) 0.1998(3) 0.1150(6)
H6_7 H 0.2110 0.1808 0.1322
C12_7 C 0.1552(2) 0.1840(3) 0.0651(5)
O1_7 O 0.17425(18) 0.06545(17) 0.0424(3)
O2_7 O 0.21501(16) 0.11028(16) 0.1142(3)
La1_5 La 0.230128(10) 0.027167(10) 0.12940(2)
O18_5 O 0.18380(15) 0.04599(15) 0.2543(3)
O21_7 O 0.30939(19) 0.0405(2) 0.1580(4)
O22_5 O 0.27533(16) 0.06470(16) 0.2669(4)
C3_7 C 0.1157(3) 0.1266(3) 0.9989(6)
H1_7 H 0.1127 0.0973 0.9855
C4_7 C 0.0837(3) 0.1557(3) 0.9730(5)
H2_7 H 0.0602 0.1457 0.9422
C5_7 C 0.0868(2) 0.1991(2) 0.9927(4)
C6_7 C 0.0521(2) 0.2284(2) 0.9591(4)
H11_5 H 0.0593 0.0003 0.6321
H17_7 H 0.0552 0.0055 0.8879
O3_7 O 0.17853(17) 0.03410(16) 0.8862(4)
O16_3 O 0.25041(18) 0.02734(16) 0.7572(3)
O19_7 O 0.26866(16) 0.03022(17) 0.9885(3)
O20_7 O 0.31205(15) 0.00217(18) 0.8954(3)
H19_7 H 0.15014 0.0208202 0.900972
H20_7 H 0.176139 0.0486467 0.83134
C25_7 C 0.1701(2) 0.9560(2) 0.0679(4)
C26_7 C 0.1396(2) 0.9199(2) 0.0448(4)
C27_7 C 0.1477(3) 0.8789(3) 0.0759(5)
H13_7 H 0.1711 0.8742 0.1112
C28_7 C 0.1199(3) 0.8441(3) 0.0535(5)
H14_7 H 0.1251 0.8166 0.0754
C29_7 C 0.0855(2) 0.8496(2) 0.0006(5)
O11_7 O 0.19511(16) 0.97253(15) 0.0160(3)
O12_7 O 0.17008(17) 0.96812(16) 0.1426(3)
O15_5 O 0.25041(18) 0.97266(16) 0.2572(3)
O17_7 O 0.26903(16) 0.95270(16) 0.1304(4)
H21_7 H 0.286115 0.931955 0.0204053
C13_7 C 0.1704(2) 0.9202(2) 0.7947(4)
C14_7 C 0.1336(2) 0.8940(2) 0.7635(4)
C15_7 C 0.1348(2) 0.8502(2) 0.7842(5)
H7_7 H 0.1581 0.8394 0.8147
C16_7 C 0.1015(2) 0.8220(2) 0.7599(5)
H8_7 H 0.1036 0.7926 0.7728
C17_7 C 0.0657(2) 0.8369(2) 0.7174(4)
C18_7 C 0.0301(2) 0.8048(2) 0.7002(4)
C19_7 C 0.0637(2) 0.8815(2) 0.6908(4)
C20_7 C 0.0298(2) 0.8992(2) 0.6397(6)
H9_7 H 0.0083 0.8807 0.6198
C21_7 C 0.0279(3) 0.9419(3) 0.6195(6)
H10_7 H 0.0048 0.9522 0.5877
C22_7 C 0.0606(3) 0.9711(3) 0.6465(7)
C23_7 C 0.0946(2) 0.9557(2) 0.6943(5)
H12_7 H 0.1157 0.9750 0.7129
C24_7 C 0.0978(2) 0.9108(2) 0.7160(4)
C30_7 C 0.0620(2) 0.8089(2) 0.9741(5)
C31_7 C 0.0753(2) 0.8923(2) 0.9671(5)
C32_7 C 0.0406(3) 0.9016(3) 0.9142(5)
H15_7 H 0.0221 0.8794 0.8970
C33_7 C 0.0338(3) 0.9426(3) 0.8881(8)
H16_7 H 0.0097 0.9479 0.8545
C34_7 C 0.0606(3) 0.9778(3) 0.9083(7)
C35_7 C 0.0949(3) 0.9695(3) 0.9591(6)
H18_7 H 0.1131 0.9923 0.9741
C36_7 C 0.1038(2) 0.9272(2) 0.9900(4)
O5_7 O 0.2720(2) 0.9176(2) 0.9722(4)
O7_5 O 0.18380(15) 0.95401(15) 0.7543(3)
O8_7 O 0.18908(17) 0.90926(16) 0.8595(3)
La2_5 La 0.235899(11) 0.975720(10) 0.87923(2)
O23_3 O 0.27533(16) 0.93530(16) 0.7669(4)
La3_3 La 0.230128(10) 0.972833(10) 0.62940(2)
H22_7 H 0.294216 0.901561 0.939596
C25_8 C 0.8299(2) 0.0440(2) 0.0679(4)
C26_8 C 0.8604(2) 0.0801(2) 0.0448(4)
C27_8 C 0.8523(3) 0.1211(3) 0.0759(5)
H13_8 H 0.8289 0.1258 0.1112
C28_8 C 0.8801(3) 0.1559(3) 0.0535(5)
H14_8 H 0.8749 0.1834 0.0754
C29_8 C 0.9145(2) 0.1504(2) 0.0006(5)
O11_8 O 0.80489(16) 0.02747(15) 0.0160(3)
O12_8 O 0.82992(17) 0.03188(16) 0.1426(3)
O15_6 O 0.74959(18) 0.02734(16) 0.2572(3)
O17_8 O 0.73097(16) 0.04730(16) 0.1304(4)
H21_8 H 0.713885 0.0680454 0.0204053
C13_8 C 0.8296(2) 0.0798(2) 0.7947(4)
C14_8 C 0.8664(2) 0.1060(2) 0.7635(4)
C15_8 C 0.8652(2) 0.1498(2) 0.7842(5)
H7_8 H 0.8419 0.1606 0.8147
C16_8 C 0.8985(2) 0.1780(2) 0.7599(5)
H8_8 H 0.8964 0.2074 0.7728
C17_8 C 0.9343(2) 0.1631(2) 0.7174(4)
C18_8 C 0.9699(2) 0.1952(2) 0.7002(4)
C19_8 C 0.9363(2) 0.1185(2) 0.6908(4)
C20_8 C 0.9702(2) 0.1008(2) 0.6397(6)
H9_8 H 0.9917 0.1193 0.6198
C21_8 C 0.9721(3) 0.0581(3) 0.6195(6)
H10_8 H 0.9952 0.0478 0.5877
C22_8 C 0.9394(3) 0.0289(3) 0.6465(7)
C23_8 C 0.9054(2) 0.0443(2) 0.6943(5)
H12_8 H 0.8843 0.0250 0.7129
C24_8 C 0.9022(2) 0.0892(2) 0.7160(4)
C30_8 C 0.9380(2) 0.1911(2) 0.9741(5)
C31_8 C 0.9247(2) 0.1077(2) 0.9671(5)
C32_8 C 0.9594(3) 0.0984(3) 0.9142(5)
H15_8 H 0.9779 0.1206 0.8970
C33_8 C 0.9662(3) 0.0574(3) 0.8881(8)
H16_8 H 0.9903 0.0521 0.8545
C34_8 C 0.9394(3) 0.0222(3) 0.9083(7)
C35_8 C 0.9051(3) 0.0305(3) 0.9591(6)
H18_8 H 0.8869 0.0077 0.9741
C36_8 C 0.8962(2) 0.0728(2) 0.9900(4)
O5_8 O 0.7280(2) 0.0824(2) 0.9722(4)
O7_6 O 0.81620(15) 0.04599(15) 0.7543(3)
O8_8 O 0.81092(17) 0.09074(16) 0.8595(3)
La2_6 La 0.764101(11) 0.024280(10) 0.87923(2)
O23_4 O 0.72467(16) 0.06470(16) 0.7669(4)
La3_4 La 0.769872(10) 0.027167(10) 0.62940(2)
H22_8 H 0.705784 0.0984394 0.939596
C1_8 C 0.8179(2) 0.8963(2) 0.0685(4)
C2_8 C 0.8486(2) 0.8605(2) 0.0435(4)
C7_8 C 0.8785(3) 0.7860(3) 0.0426(5)
C8_8 C 0.8755(4) 0.7418(4) 0.0625(7)
H3_8 H 0.8964 0.7222 0.0443
C9_8 C 0.8408(4) 0.7282(4) 0.1099(8)
H4_8 H 0.8384 0.6988 0.1226
C10_8 C 0.8089(4) 0.7566(4) 0.1396(8)
H5_8 H 0.7870 0.7468 0.1748
C11_8 C 0.8108(3) 0.8002(3) 0.1150(6)
H6_8 H 0.7890 0.8192 0.1322
C12_8 C 0.8448(2) 0.8160(3) 0.0651(5)
O1_8 O 0.82575(18) 0.93455(17) 0.0424(3)
O2_8 O 0.78499(16) 0.88972(16) 0.1142(3)
La1_6 La 0.769872(10) 0.972833(10) 0.12940(2)
O18_6 O 0.81620(15) 0.95401(15) 0.2543(3)
O21_8 O 0.69061(19) 0.9595(2) 0.1580(4)
O22_6 O 0.72467(16) 0.93530(16) 0.2669(4)
C3_8 C 0.8843(3) 0.8734(3) 0.9989(6)
H1_8 H 0.8873 0.9027 0.9855
C4_8 C 0.9163(3) 0.8443(3) 0.9730(5)
H2_8 H 0.9398 0.8543 0.9422
C5_8 C 0.9132(2) 0.8009(2) 0.9927(4)
C6_8 C 0.9479(2) 0.7716(2) 0.9591(4)
H11_6 H 0.9407 0.9997 0.6321
H17_8 H 0.9448 0.9945 0.8879
O3_8 O 0.82147(17) 0.96590(16) 0.8862(4)
O16_4 O 0.74959(18) 0.97266(16) 0.7572(3)
O19_8 O 0.73134(16) 0.96978(17) 0.9885(3)
O20_8 O 0.68795(15) 0.99783(18) 0.8954(3)
H19_8 H 0.84986 0.97918 0.900972
H20_8 H 0.823861 0.951353 0.83134
C1_9 C 0.6037(2) 0.1821(2) 0.3185(4)
C2_9 C 0.6395(2) 0.1514(2) 0.2935(4)
C3_9 C 0.6266(3) 0.1157(3) 0.2489(6)
H1_9 H 0.5973 0.1127 0.2355
C4_9 C 0.6557(3) 0.0837(3) 0.2230(5)
H2_9 H 0.6457 0.0602 0.1922
C5_9 C 0.6991(2) 0.0868(2) 0.2427(4)
C6_9 C 0.7284(2) 0.0521(2) 0.2091(4)
C7_9 C 0.7140(3) 0.1215(3) 0.2926(5)
C8_9 C 0.7582(4) 0.1245(4) 0.3125(7)
H3_9 H 0.7778 0.1036 0.2943
C9_9 C 0.7718(4) 0.1592(4) 0.3599(8)
H4_9 H 0.8012 0.1616 0.3726
C10_9 C 0.7434(4) 0.1911(4) 0.3896(8)
H5_9 H 0.7532 0.2130 0.4248
C11_9 C 0.6998(3) 0.1892(3) 0.3650(6)
H6_9 H 0.6808 0.2110 0.3822
C12_9 C 0.6840(3) 0.1552(2) 0.3151(5)
C13_9 C 0.4202(2) 0.1704(2) 0.0447(4)
C14_9 C 0.3940(2) 0.1336(2) 0.0135(4)
C15_9 C 0.3502(2) 0.1348(2) 0.0342(5)
H7_9 H 0.3394 0.1581 0.0647
C16_9 C 0.3220(2) 0.1015(2) 0.0099(5)
H8_9 H 0.2926 0.1036 0.0228
C25_9 C 0.4560(2) 0.1701(2) 0.3179(4)
C26_9 C 0.4199(2) 0.1396(2) 0.2948(4)
C27_9 C 0.3789(3) 0.1477(3) 0.3259(5)
H13_9 H 0.3742 0.1711 0.3612
C28_9 C 0.3441(3) 0.1199(3) 0.3035(5)
H14_9 H 0.3166 0.1251 0.3254
C29_9 C 0.3496(2) 0.0855(2) 0.2506(5)
C30_9 C 0.3089(2) 0.0620(2) 0.2241(5)
C31_9 C 0.3923(2) 0.0753(2) 0.2171(5)
C32_9 C 0.4016(3) 0.0406(3) 0.1642(5)
H15_9 H 0.3794 0.0221 0.1470
C33_9 C 0.4426(3) 0.0338(3) 0.1381(8)
H16_9 H 0.4479 0.0097 0.1045
C34_9 C 0.4778(3) 0.0606(3) 0.1583(7)
H17_9 H 0.5055 0.0552 0.1379
C35_9 C 0.4695(3) 0.0949(3) 0.2091(6)
H18_9 H 0.4923 0.1131 0.2241
C36_9 C 0.4272(2) 0.1038(2) 0.2400(4)
O1_9 O 0.56545(17) 0.17425(18) 0.2924(3)
O2_9 O 0.61028(16) 0.21501(16) 0.3642(3)
O3_9 O 0.53410(16) 0.17853(17) 0.1362(4)
O5_9 O 0.4176(2) 0.2720(2) 0.2222(4)
O7_7 O 0.45401(15) 0.18380(15) 0.0043(3)
O8_9 O 0.40926(16) 0.18908(17) 0.1095(3)
O11_9 O 0.47253(15) 0.19511(16) 0.2660(3)
O12_9 O 0.46812(16) 0.17008(17) 0.3926(3)
La1_7 La 0.527167(10) 0.230128(10) 0.37940(2)
O15_7 O 0.47266(16) 0.25041(18) 0.5072(3)
O17_9 O 0.45270(16) 0.26903(16) 0.3804(4)
O18_7 O 0.54599(15) 0.18380(15) 0.5043(3)
O19_9 O 0.53022(17) 0.26866(16) 0.2385(3)
O20_9 O 0.50217(18) 0.31205(15) 0.1454(3)
O21_9 O 0.5405(2) 0.30939(19) 0.4080(4)
O22_7 O 0.56470(16) 0.27533(16) 0.5169(4)
La7_3 La 0.235899(11) 0.024280(10) 0.37923(2)
H19_9 H 0.52082 0.15014 0.150972
H20_9 H 0.548647 0.176139 0.0813398
H21_9 H 0.431955 0.286115 0.270405
H22_9 H 0.401561 0.294216 0.189596
C17_9 C 0.3369(2) 0.0657(2) 0.9674(4)
C18_9 C 0.3048(2) 0.0301(2) 0.9502(4)
C19_9 C 0.3815(2) 0.0637(2) 0.9408(4)
C20_9 C 0.3992(2) 0.0298(2) 0.8897(6)
H9_9 H 0.3807 0.0083 0.8698
C21_9 C 0.4419(3) 0.0279(3) 0.8695(6)
H10_9 H 0.4522 0.0048 0.8377
C22_9 C 0.4711(3) 0.0606(3) 0.8965(7)
H11_7 H 0.5003 0.0593 0.8821
C23_9 C 0.4557(2) 0.0946(2) 0.9443(5)
H12_9 H 0.4750 0.1157 0.9629
C24_9 C 0.4108(2) 0.0978(2) 0.9660(4)
La6_3 La 0.764101(11) 0.975720(10) 0.37923(2)
C1_10 C 0.3963(2) 0.8179(2) 0.3185(4)
C2_10 C 0.3605(2) 0.8486(2) 0.2935(4)
C3_10 C 0.3734(3) 0.8843(3) 0.2489(6)
H1_10 H 0.4027 0.8873 0.2355
C4_10 C 0.3443(3) 0.9163(3) 0.2230(5)
H2_10 H 0.3543 0.9398 0.1922
C5_10 C 0.3009(2) 0.9132(2) 0.2427(4)
C6_10 C 0.2716(2) 0.9479(2) 0.2091(4)
C7_10 C 0.2860(3) 0.8785(3) 0.2926(5)
C8_10 C 0.2418(4) 0.8755(4) 0.3125(7)
H3_10 H 0.2222 0.8964 0.2943
C9_10 C 0.2282(4) 0.8408(4) 0.3599(8)
H4_10 H 0.1988 0.8384 0.3726
C10_10 C 0.2566(4) 0.8089(4) 0.3896(8)
H5_10 H 0.2468 0.7870 0.4248
C11_10 C 0.3002(3) 0.8108(3) 0.3650(6)
H6_10 H 0.3192 0.7890 0.3822
C12_10 C 0.3160(3) 0.8448(2) 0.3151(5)
C13_10 C 0.5798(2) 0.8296(2) 0.0447(4)
C14_10 C 0.6060(2) 0.8664(2) 0.0135(4)
C15_10 C 0.6498(2) 0.8652(2) 0.0342(5)
H7_10 H 0.6606 0.8419 0.0647
C16_10 C 0.6780(2) 0.8985(2) 0.0099(5)
H8_10 H 0.7074 0.8964 0.0228
C25_10 C 0.5440(2) 0.8299(2) 0.3179(4)
C26_10 C 0.5801(2) 0.8604(2) 0.2948(4)
C27_10 C 0.6211(3) 0.8523(3) 0.3259(5)
H13_10 H 0.6258 0.8289 0.3612
C28_10 C 0.6559(3) 0.8801(3) 0.3035(5)
H14_10 H 0.6834 0.8749 0.3254
C29_10 C 0.6504(2) 0.9145(2) 0.2506(5)
C30_10 C 0.6911(2) 0.9380(2) 0.2241(5)
C31_10 C 0.6077(2) 0.9247(2) 0.2171(5)
C32_10 C 0.5984(3) 0.9594(3) 0.1642(5)
H15_10 H 0.6206 0.9779 0.1470
C33_10 C 0.5574(3) 0.9662(3) 0.1381(8)
H16_10 H 0.5521 0.9903 0.1045
C34_10 C 0.5222(3) 0.9394(3) 0.1583(7)
H17_10 H 0.4945 0.9448 0.1379
C35_10 C 0.5305(3) 0.9051(3) 0.2091(6)
H18_10 H 0.5077 0.8869 0.2241
C36_10 C 0.5728(2) 0.8962(2) 0.2400(4)
O1_10 O 0.43455(17) 0.82575(18) 0.2924(3)
O2_10 O 0.38972(16) 0.78499(16) 0.3642(3)
O3_10 O 0.46590(16) 0.82147(17) 0.1362(4)
O5_10 O 0.5824(2) 0.7280(2) 0.2222(4)
O7_8 O 0.54599(15) 0.81620(15) 0.0043(3)
O8_10 O 0.59074(16) 0.81092(17) 0.1095(3)
O11_10 O 0.52747(15) 0.80489(16) 0.2660(3)
O12_10 O 0.53188(16) 0.82992(17) 0.3926(3)
La1_8 La 0.472833(10) 0.769872(10) 0.37940(2)
O15_8 O 0.52734(16) 0.74959(18) 0.5072(3)
O17_10 O 0.54730(16) 0.73097(16) 0.3804(4)
O18_8 O 0.45401(15) 0.81620(15) 0.5043(3)
O19_10 O 0.46978(17) 0.73134(16) 0.2385(3)
O20_10 O 0.49783(18) 0.68795(15) 0.1454(3)
O21_10 O 0.4595(2) 0.69061(19) 0.4080(4)
O22_8 O 0.43530(16) 0.72467(16) 0.5169(4)
H19_10 H 0.47918 0.84986 0.150972
H20_10 H 0.451353 0.823861 0.0813398
H21_10 H 0.568045 0.713885 0.270405
H22_10 H 0.598439 0.705784 0.189596
C17_10 C 0.6631(2) 0.9343(2) 0.9674(4)
C18_10 C 0.6952(2) 0.9699(2) 0.9502(4)
C19_10 C 0.6185(2) 0.9363(2) 0.9408(4)
C20_10 C 0.6008(2) 0.9702(2) 0.8897(6)
H9_10 H 0.6193 0.9917 0.8698
C21_10 C 0.5581(3) 0.9721(3) 0.8695(6)
H10_10 H 0.5478 0.9952 0.8377
C22_10 C 0.5289(3) 0.9394(3) 0.8965(7)
H11_8 H 0.4997 0.9407 0.8821
C23_10 C 0.5443(2) 0.9054(2) 0.9443(5)
H12_10 H 0.5250 0.8843 0.9629
C24_10 C 0.5892(2) 0.9022(2) 0.9660(4)
C1_11 C 0.8179(2) 0.1037(2) 0.5685(4)
C2_11 C 0.8486(2) 0.1395(2) 0.5435(4)
C3_11 C 0.8843(3) 0.1266(3) 0.4989(6)
H1_11 H 0.8873 0.0973 0.4855
C4_11 C 0.9163(3) 0.1557(3) 0.4730(5)
H2_11 H 0.9398 0.1457 0.4422
C5_11 C 0.9132(2) 0.1991(2) 0.4927(4)
C6_11 C 0.9479(2) 0.2284(2) 0.4591(4)
C7_11 C 0.8785(3) 0.2140(3) 0.5426(5)
C8_11 C 0.8755(4) 0.2582(4) 0.5625(7)
H3_11 H 0.8964 0.2778 0.5443
C9_11 C 0.8408(4) 0.2718(4) 0.6099(8)
H4_11 H 0.8384 0.3012 0.6226
C10_11 C 0.8089(4) 0.2434(4) 0.6396(8)
H5_11 H 0.7870 0.2532 0.6748
C11_11 C 0.8108(3) 0.1998(3) 0.6150(6)
H6_11 H 0.7890 0.1808 0.6322
C12_11 C 0.8448(2) 0.1840(3) 0.5651(5)
H11_9 H 0.9407 0.0003 0.1321
H17_11 H 0.9448 0.0055 0.3879
O1_11 O 0.82575(18) 0.06545(17) 0.5424(3)
O2_11 O 0.78499(16) 0.11028(16) 0.6142(3)
O3_11 O 0.82147(17) 0.03410(16) 0.3862(4)
O19_11 O 0.73134(16) 0.03022(17) 0.4885(3)
O20_11 O 0.68795(15) 0.00217(18) 0.3954(3)
O21_11 O 0.69061(19) 0.0405(2) 0.6580(4)
H19_11 H 0.84986 0.0208202 0.400972
H20_11 H 0.823861 0.0486467 0.33134
C13_11 C 0.8296(2) 0.9202(2) 0.2947(4)
C14_11 C 0.8664(2) 0.8940(2) 0.2635(4)
C15_11 C 0.8652(2) 0.8502(2) 0.2842(5)
H7_11 H 0.8419 0.8394 0.3147
C16_11 C 0.8985(2) 0.8220(2) 0.2599(5)
H8_11 H 0.8964 0.7926 0.2728
C17_11 C 0.9343(2) 0.8369(2) 0.2174(4)
C18_11 C 0.9699(2) 0.8048(2) 0.2002(4)
C19_11 C 0.9363(2) 0.8815(2) 0.1908(4)
C20_11 C 0.9702(2) 0.8992(2) 0.1397(6)
H9_11 H 0.9917 0.8807 0.1198
C21_11 C 0.9721(3) 0.9419(3) 0.1195(6)
H10_11 H 0.9952 0.9522 0.0877
C22_11 C 0.9394(3) 0.9711(3) 0.1465(7)
C23_11 C 0.9054(2) 0.9557(2) 0.1943(5)
H12_11 H 0.8843 0.9750 0.2129
C24_11 C 0.9022(2) 0.9108(2) 0.2160(4)
C25_11 C 0.8299(2) 0.9560(2) 0.5679(4)
C26_11 C 0.8604(2) 0.9199(2) 0.5448(4)
C27_11 C 0.8523(3) 0.8789(3) 0.5759(5)
H13_11 H 0.8289 0.8742 0.6112
C28_11 C 0.8801(3) 0.8441(3) 0.5535(5)
H14_11 H 0.8749 0.8166 0.5754
C29_11 C 0.9145(2) 0.8496(2) 0.5006(5)
C30_11 C 0.9380(2) 0.8089(2) 0.4741(5)
C31_11 C 0.9247(2) 0.8923(2) 0.4671(5)
C32_11 C 0.9594(3) 0.9016(3) 0.4142(5)
H15_11 H 0.9779 0.8794 0.3970
C33_11 C 0.9662(3) 0.9426(3) 0.3881(8)
H16_11 H 0.9903 0.9479 0.3545
C34_11 C 0.9394(3) 0.9778(3) 0.4083(7)
C35_11 C 0.9051(3) 0.9695(3) 0.4591(6)
H18_11 H 0.8869 0.9923 0.4741
C36_11 C 0.8962(2) 0.9272(2) 0.4900(4)
O5_11 O 0.7280(2) 0.9176(2) 0.4722(4)
O8_11 O 0.81092(17) 0.90926(16) 0.3595(3)
O11_11 O 0.80489(16) 0.97253(15) 0.5160(3)
O12_11 O 0.82992(17) 0.96812(16) 0.6426(3)
O17_11 O 0.73097(16) 0.95270(16) 0.6304(4)
H21_11 H 0.713885 0.931955 0.520405
H22_11 H 0.705784 0.901561 0.439596
C13_12 C 0.1704(2) 0.0798(2) 0.2947(4)
C14_12 C 0.1336(2) 0.1060(2) 0.2635(4)
C15_12 C 0.1348(2) 0.1498(2) 0.2842(5)
H7_12 H 0.1581 0.1606 0.3147
C16_12 C 0.1015(2) 0.1780(2) 0.2599(5)
H8_12 H 0.1036 0.2074 0.2728
C17_12 C 0.0657(2) 0.1631(2) 0.2174(4)
C18_12 C 0.0301(2) 0.1952(2) 0.2002(4)
C19_12 C 0.0637(2) 0.1185(2) 0.1908(4)
C20_12 C 0.0298(2) 0.1008(2) 0.1397(6)
H9_12 H 0.0083 0.1193 0.1198
C21_12 C 0.0279(3) 0.0581(3) 0.1195(6)
H10_12 H 0.0048 0.0478 0.0877
C22_12 C 0.0606(3) 0.0289(3) 0.1465(7)
C23_12 C 0.0946(2) 0.0443(2) 0.1943(5)
H12_12 H 0.1157 0.0250 0.2129
C24_12 C 0.0978(2) 0.0892(2) 0.2160(4)
C25_12 C 0.1701(2) 0.0440(2) 0.5679(4)
C26_12 C 0.1396(2) 0.0801(2) 0.5448(4)
C27_12 C 0.1477(3) 0.1211(3) 0.5759(5)
H13_12 H 0.1711 0.1258 0.6112
C28_12 C 0.1199(3) 0.1559(3) 0.5535(5)
H14_12 H 0.1251 0.1834 0.5754
C29_12 C 0.0855(2) 0.1504(2) 0.5006(5)
C30_12 C 0.0620(2) 0.1911(2) 0.4741(5)
C31_12 C 0.0753(2) 0.1077(2) 0.4671(5)
C32_12 C 0.0406(3) 0.0984(3) 0.4142(5)
H15_12 H 0.0221 0.1206 0.3970
C33_12 C 0.0338(3) 0.0574(3) 0.3881(8)
H16_12 H 0.0097 0.0521 0.3545
C34_12 C 0.0606(3) 0.0222(3) 0.4083(7)
C35_12 C 0.0949(3) 0.0305(3) 0.4591(6)
H18_12 H 0.1131 0.0077 0.4741
C36_12 C 0.1038(2) 0.0728(2) 0.4900(4)
O5_12 O 0.2720(2) 0.0824(2) 0.4722(4)
O8_12 O 0.18908(17) 0.09074(16) 0.3595(3)
O11_12 O 0.19511(16) 0.02747(15) 0.5160(3)
O12_12 O 0.17008(17) 0.03188(16) 0.6426(3)
O17_12 O 0.26903(16) 0.04730(16) 0.6304(4)
H21_12 H 0.286115 0.0680454 0.520405
H22_12 H 0.294216 0.0984394 0.439596
C1_12 C 0.1821(2) 0.8963(2) 0.5685(4)
C2_12 C 0.1514(2) 0.8605(2) 0.5435(4)
C3_12 C 0.1157(3) 0.8734(3) 0.4989(6)
H1_12 H 0.1127 0.9027 0.4855
C4_12 C 0.0837(3) 0.8443(3) 0.4730(5)
H2_12 H 0.0602 0.8543 0.4422
C5_12 C 0.0868(2) 0.8009(2) 0.4927(4)
C6_12 C 0.0521(2) 0.7716(2) 0.4591(4)
C7_12 C 0.1215(3) 0.7860(3) 0.5426(5)
C8_12 C 0.1245(4) 0.7418(4) 0.5625(7)
H3_12 H 0.1036 0.7222 0.5443
C9_12 C 0.1592(4) 0.7282(4) 0.6099(8)
H4_12 H 0.1616 0.6988 0.6226
C10_12 C 0.1911(4) 0.7566(4) 0.6396(8)
H5_12 H 0.2130 0.7468 0.6748
C11_12 C 0.1892(3) 0.8002(3) 0.6150(6)
H6_12 H 0.2110 0.8192 0.6322
C12_12 C 0.1552(2) 0.8160(3) 0.5651(5)
H11_10 H 0.0593 0.9997 0.1321
H17_12 H 0.0552 0.9945 0.3879
O1_12 O 0.17425(18) 0.93455(17) 0.5424(3)
O2_12 O 0.21501(16) 0.88972(16) 0.6142(3)
O3_12 O 0.17853(17) 0.96590(16) 0.3862(4)
O19_12 O 0.26866(16) 0.96978(17) 0.4885(3)
O20_12 O 0.31205(15) 0.99783(18) 0.3954(3)
O21_12 O 0.30939(19) 0.9595(2) 0.6580(4)
H19_12 H 0.15014 0.97918 0.400972
H20_12 H 0.176139 0.951353 0.33134
C1_13 C 0.3963(2) 0.1821(2) 0.8185(4)
C2_13 C 0.3605(2) 0.1514(2) 0.7935(4)
C3_13 C 0.3734(3) 0.1157(3) 0.7489(6)
H1_13 H 0.4027 0.1127 0.7355
C4_13 C 0.3443(3) 0.0837(3) 0.7230(5)
H2_13 H 0.3543 0.0602 0.6922
C5_13 C 0.3009(2) 0.0868(2) 0.7427(4)
C6_13 C 0.2716(2) 0.0521(2) 0.7091(4)
C7_13 C 0.2860(3) 0.1215(3) 0.7926(5)
C8_13 C 0.2418(4) 0.1245(4) 0.8125(7)
H3_13 H 0.2222 0.1036 0.7943
C9_13 C 0.2282(4) 0.1592(4) 0.8599(8)
H4_13 H 0.1988 0.1616 0.8726
C10_13 C 0.2566(4) 0.1911(4) 0.8896(8)
H5_13 H 0.2468 0.2130 0.9248
C11_13 C 0.3002(3) 0.1892(3) 0.8650(6)
H6_13 H 0.3192 0.2110 0.8822
C12_13 C 0.3160(3) 0.1552(2) 0.8151(5)
C13_13 C 0.5798(2) 0.1704(2) 0.5447(4)
C14_13 C 0.6060(2) 0.1336(2) 0.5135(4)
C15_13 C 0.6498(2) 0.1348(2) 0.5342(5)
H7_13 H 0.6606 0.1581 0.5647
C16_13 C 0.6780(2) 0.1015(2) 0.5099(5)
H8_13 H 0.7074 0.1036 0.5228
C17_13 C 0.6631(2) 0.0657(2) 0.4674(4)
C18_13 C 0.6952(2) 0.0301(2) 0.4502(4)
C19_13 C 0.6185(2) 0.0637(2) 0.4408(4)
C20_13 C 0.6008(2) 0.0298(2) 0.3897(6)
H9_13 H 0.6193 0.0083 0.3698
C21_13 C 0.5581(3) 0.0279(3) 0.3695(6)
H10_13 H 0.5478 0.0048 0.3377
C22_13 C 0.5289(3) 0.0606(3) 0.3965(7)
H11_11 H 0.4997 0.0593 0.3821
C23_13 C 0.5443(2) 0.0946(2) 0.4443(5)
H12_13 H 0.5250 0.1157 0.4629
C24_13 C 0.5892(2) 0.0978(2) 0.4660(4)
C25_13 C 0.5440(2) 0.1701(2) 0.8179(4)
C26_13 C 0.5801(2) 0.1396(2) 0.7948(4)
C27_13 C 0.6211(3) 0.1477(3) 0.8259(5)
H13_13 H 0.6258 0.1711 0.8612
C28_13 C 0.6559(3) 0.1199(3) 0.8035(5)
H14_13 H 0.6834 0.1251 0.8254
C29_13 C 0.6504(2) 0.0855(2) 0.7506(5)
C30_13 C 0.6911(2) 0.0620(2) 0.7241(5)
C31_13 C 0.6077(2) 0.0753(2) 0.7171(5)
C32_13 C 0.5984(3) 0.0406(3) 0.6642(5)
H15_13 H 0.6206 0.0221 0.6470
C33_13 C 0.5574(3) 0.0338(3) 0.6381(8)
H16_13 H 0.5521 0.0097 0.6045
C34_13 C 0.5222(3) 0.0606(3) 0.6583(7)
H17_13 H 0.4945 0.0552 0.6379
C35_13 C 0.5305(3) 0.0949(3) 0.7091(6)
H18_13 H 0.5077 0.1131 0.7241
C36_13 C 0.5728(2) 0.1038(2) 0.7400(4)
O1_13 O 0.43455(17) 0.17425(18) 0.7924(3)
O2_13 O 0.38972(16) 0.21501(16) 0.8642(3)
O3_13 O 0.46590(16) 0.17853(17) 0.6362(4)
O5_13 O 0.5824(2) 0.2720(2) 0.7222(4)
O8_13 O 0.59074(16) 0.18908(17) 0.6095(3)
O11_13 O 0.52747(15) 0.19511(16) 0.7660(3)
O12_13 O 0.53188(16) 0.17008(17) 0.8926(3)
H19_13 H 0.47918 0.15014 0.650972
H20_13 H 0.451353 0.176139 0.58134
H21_13 H 0.568045 0.286115 0.770405
H22_13 H 0.598439 0.294216 0.689596
C1_14 C 0.6037(2) 0.8179(2) 0.8185(4)
C2_14 C 0.6395(2) 0.8486(2) 0.7935(4)
C3_14 C 0.6266(3) 0.8843(3) 0.7489(6)
H1_14 H 0.5973 0.8873 0.7355
C4_14 C 0.6557(3) 0.9163(3) 0.7230(5)
H2_14 H 0.6457 0.9398 0.6922
C5_14 C 0.6991(2) 0.9132(2) 0.7427(4)
C6_14 C 0.7284(2) 0.9479(2) 0.7091(4)
C7_14 C 0.7140(3) 0.8785(3) 0.7926(5)
C8_14 C 0.7582(4) 0.8755(4) 0.8125(7)
H3_14 H 0.7778 0.8964 0.7943
C9_14 C 0.7718(4) 0.8408(4) 0.8599(8)
H4_14 H 0.8012 0.8384 0.8726
C10_14 C 0.7434(4) 0.8089(4) 0.8896(8)
H5_14 H 0.7532 0.7870 0.9248
C11_14 C 0.6998(3) 0.8108(3) 0.8650(6)
H6_14 H 0.6808 0.7890 0.8822
C12_14 C 0.6840(3) 0.8448(2) 0.8151(5)
C13_14 C 0.4202(2) 0.8296(2) 0.5447(4)
C14_14 C 0.3940(2) 0.8664(2) 0.5135(4)
C15_14 C 0.3502(2) 0.8652(2) 0.5342(5)
H7_14 H 0.3394 0.8419 0.5647
C16_14 C 0.3220(2) 0.8985(2) 0.5099(5)
H8_14 H 0.2926 0.8964 0.5228
C17_14 C 0.3369(2) 0.9343(2) 0.4674(4)
C18_14 C 0.3048(2) 0.9699(2) 0.4502(4)
C19_14 C 0.3815(2) 0.9363(2) 0.4408(4)
C20_14 C 0.3992(2) 0.9702(2) 0.3897(6)
H9_14 H 0.3807 0.9917 0.3698
C21_14 C 0.4419(3) 0.9721(3) 0.3695(6)
H10_14 H 0.4522 0.9952 0.3377
C22_14 C 0.4711(3) 0.9394(3) 0.3965(7)
H11_12 H 0.5003 0.9407 0.3821
C23_14 C 0.4557(2) 0.9054(2) 0.4443(5)
H12_14 H 0.4750 0.8843 0.4629
C24_14 C 0.4108(2) 0.9022(2) 0.4660(4)
C25_14 C 0.4560(2) 0.8299(2) 0.8179(4)
C26_14 C 0.4199(2) 0.8604(2) 0.7948(4)
C27_14 C 0.3789(3) 0.8523(3) 0.8259(5)
H13_14 H 0.3742 0.8289 0.8612
C28_14 C 0.3441(3) 0.8801(3) 0.8035(5)
H14_14 H 0.3166 0.8749 0.8254
C29_14 C 0.3496(2) 0.9145(2) 0.7506(5)
C30_14 C 0.3089(2) 0.9380(2) 0.7241(5)
C31_14 C 0.3923(2) 0.9247(2) 0.7171(5)
C32_14 C 0.4016(3) 0.9594(3) 0.6642(5)
H15_14 H 0.3794 0.9779 0.6470
C33_14 C 0.4426(3) 0.9662(3) 0.6381(8)
H16_14 H 0.4479 0.9903 0.6045
C34_14 C 0.4778(3) 0.9394(3) 0.6583(7)
H17_14 H 0.5055 0.9448 0.6379
C35_14 C 0.4695(3) 0.9051(3) 0.7091(6)
H18_14 H 0.4923 0.8869 0.7241
C36_14 C 0.4272(2) 0.8962(2) 0.7400(4)
O1_14 O 0.56545(17) 0.82575(18) 0.7924(3)
O2_14 O 0.61028(16) 0.78499(16) 0.8642(3)
O3_14 O 0.53410(16) 0.82147(17) 0.6362(4)
O5_14 O 0.4176(2) 0.7280(2) 0.7222(4)
O8_14 O 0.40926(16) 0.81092(17) 0.6095(3)
O11_14 O 0.47253(15) 0.80489(16) 0.7660(3)
O12_14 O 0.46812(16) 0.82992(17) 0.8926(3)
H19_14 H 0.52082 0.84986 0.650972
H20_14 H 0.548647 0.823861 0.58134
H21_14 H 0.431955 0.713885 0.770405
H22_14 H 0.401561 0.705784 0.689596
C1_15 C 0.6821(2) 0.6037(2) 0.5685(4)
C2_15 C 0.6514(2) 0.6395(2) 0.5435(4)
C3_15 C 0.6157(3) 0.6266(3) 0.4989(6)
H1_15 H 0.6127 0.5973 0.4855
C4_15 C 0.5837(3) 0.6557(3) 0.4730(5)
H2_15 H 0.5602 0.6457 0.4422
C5_15 C 0.5868(2) 0.6991(2) 0.4927(4)
C6_15 C 0.5521(2) 0.7284(2) 0.4591(4)
C7_15 C 0.6215(3) 0.7140(3) 0.5426(5)
C8_15 C 0.6245(4) 0.7582(4) 0.5625(7)
H3_15 H 0.6036 0.7778 0.5443
C9_15 C 0.6592(4) 0.7718(4) 0.6099(8)
H4_15 H 0.6616 0.8012 0.6226
C10_15 C 0.6911(4) 0.7434(4) 0.6396(8)
H5_15 H 0.7130 0.7532 0.6748
C11_15 C 0.6892(3) 0.6998(3) 0.6150(6)
H6_15 H 0.7110 0.6808 0.6322
C12_15 C 0.6552(2) 0.6840(3) 0.5651(5)
C13_15 C 0.6704(2) 0.4202(2) 0.2947(4)
C14_15 C 0.6336(2) 0.3940(2) 0.2635(4)
C15_15 C 0.6348(2) 0.3502(2) 0.2842(5)
H7_15 H 0.6581 0.3394 0.3147
C16_15 C 0.6015(2) 0.3220(2) 0.2599(5)
H8_15 H 0.6036 0.2926 0.2728
C17_15 C 0.5657(2) 0.3369(2) 0.2174(4)
C18_15 C 0.5301(2) 0.3048(2) 0.2002(4)
C19_15 C 0.5637(2) 0.3815(2) 0.1908(4)
C20_15 C 0.5298(2) 0.3992(2) 0.1397(6)
H9_15 H 0.5083 0.3807 0.1198
C21_15 C 0.5279(3) 0.4419(3) 0.1195(6)
H10_15 H 0.5048 0.4522 0.0877
C22_15 C 0.5606(3) 0.4711(3) 0.1465(7)
H11_13 H 0.5593 0.5003 0.1321
C23_15 C 0.5946(2) 0.4557(2) 0.1943(5)
H12_15 H 0.6157 0.4750 0.2129
C24_15 C 0.5978(2) 0.4108(2) 0.2160(4)
C25_15 C 0.6701(2) 0.4560(2) 0.5679(4)
C26_15 C 0.6396(2) 0.4199(2) 0.5448(4)
C27_15 C 0.6477(3) 0.3789(3) 0.5759(5)
H13_15 H 0.6711 0.3742 0.6112
C28_15 C 0.6199(3) 0.3441(3) 0.5535(5)
H14_15 H 0.6251 0.3166 0.5754
C29_15 C 0.5855(2) 0.3496(2) 0.5006(5)
C30_15 C 0.5620(2) 0.3089(2) 0.4741(5)
C31_15 C 0.5753(2) 0.3923(2) 0.4671(5)
C32_15 C 0.5406(3) 0.4016(3) 0.4142(5)
H15_15 H 0.5221 0.3794 0.3970
C33_15 C 0.5338(3) 0.4426(3) 0.3881(8)
H16_15 H 0.5097 0.4479 0.3545
C34_15 C 0.5606(3) 0.4778(3) 0.4083(7)
H17_15 H 0.5552 0.5055 0.3879
C35_15 C 0.5949(3) 0.4695(3) 0.4591(6)
H18_15 H 0.6131 0.4923 0.4741
C36_15 C 0.6038(2) 0.4272(2) 0.4900(4)
O1_15 O 0.67425(18) 0.56545(17) 0.5424(3)
O2_15 O 0.71501(16) 0.61028(16) 0.6142(3)
O3_15 O 0.67853(17) 0.53410(16) 0.3862(4)
O5_15 O 0.7720(2) 0.4176(2) 0.4722(4)
O8_15 O 0.68908(17) 0.40926(16) 0.3595(3)
O11_15 O 0.69511(16) 0.47253(15) 0.5160(3)
O12_15 O 0.67008(17) 0.46812(16) 0.6426(3)
H19_15 H 0.65014 0.52082 0.400972
H20_15 H 0.676139 0.548647 0.33134
H21_15 H 0.786115 0.431955 0.520405
H22_15 H 0.794216 0.401561 0.439596
C1_16 C 0.3179(2) 0.3963(2) 0.5685(4)
C2_16 C 0.3486(2) 0.3605(2) 0.5435(4)
C3_16 C 0.3843(3) 0.3734(3) 0.4989(6)
H1_16 H 0.3873 0.4027 0.4855
C4_16 C 0.4163(3) 0.3443(3) 0.4730(5)
H2_16 H 0.4398 0.3543 0.4422
C5_16 C 0.4132(2) 0.3009(2) 0.4927(4)
C6_16 C 0.4479(2) 0.2716(2) 0.4591(4)
C7_16 C 0.3785(3) 0.2860(3) 0.5426(5)
C8_16 C 0.3755(4) 0.2418(4) 0.5625(7)
H3_16 H 0.3964 0.2222 0.5443
C9_16 C 0.3408(4) 0.2282(4) 0.6099(8)
H4_16 H 0.3384 0.1988 0.6226
C10_16 C 0.3089(4) 0.2566(4) 0.6396(8)
H5_16 H 0.2870 0.2468 0.6748
C11_16 C 0.3108(3) 0.3002(3) 0.6150(6)
H6_16 H 0.2890 0.3192 0.6322
C12_16 C 0.3448(2) 0.3160(3) 0.5651(5)
C13_16 C 0.3296(2) 0.5798(2) 0.2947(4)
C14_16 C 0.3664(2) 0.6060(2) 0.2635(4)
C15_16 C 0.3652(2) 0.6498(2) 0.2842(5)
H7_16 H 0.3419 0.6606 0.3147
C16_16 C 0.3985(2) 0.6780(2) 0.2599(5)
H8_16 H 0.3964 0.7074 0.2728
C17_16 C 0.4343(2) 0.6631(2) 0.2174(4)
C18_16 C 0.4699(2) 0.6952(2) 0.2002(4)
C19_16 C 0.4363(2) 0.6185(2) 0.1908(4)
C20_16 C 0.4702(2) 0.6008(2) 0.1397(6)
H9_16 H 0.4917 0.6193 0.1198
C21_16 C 0.4721(3) 0.5581(3) 0.1195(6)
H10_16 H 0.4952 0.5478 0.0877
C22_16 C 0.4394(3) 0.5289(3) 0.1465(7)
H11_14 H 0.4407 0.4997 0.1321
C23_16 C 0.4054(2) 0.5443(2) 0.1943(5)
H12_16 H 0.3843 0.5250 0.2129
C24_16 C 0.4022(2) 0.5892(2) 0.2160(4)
C25_16 C 0.3299(2) 0.5440(2) 0.5679(4)
C26_16 C 0.3604(2) 0.5801(2) 0.5448(4)
C27_16 C 0.3523(3) 0.6211(3) 0.5759(5)
H13_16 H 0.3289 0.6258 0.6112
C28_16 C 0.3801(3) 0.6559(3) 0.5535(5)
H14_16 H 0.3749 0.6834 0.5754
C29_16 C 0.4145(2) 0.6504(2) 0.5006(5)
C30_16 C 0.4380(2) 0.6911(2) 0.4741(5)
C31_16 C 0.4247(2) 0.6077(2) 0.4671(5)
C32_16 C 0.4594(3) 0.5984(3) 0.4142(5)
H15_16 H 0.4779 0.6206 0.3970
C33_16 C 0.4662(3) 0.5574(3) 0.3881(8)
H16_16 H 0.4903 0.5521 0.3545
C34_16 C 0.4394(3) 0.5222(3) 0.4083(7)
H17_16 H 0.4448 0.4945 0.3879
C35_16 C 0.4051(3) 0.5305(3) 0.4591(6)
H18_16 H 0.3869 0.5077 0.4741
C36_16 C 0.3962(2) 0.5728(2) 0.4900(4)
O1_16 O 0.32575(18) 0.43455(17) 0.5424(3)
O2_16 O 0.28499(16) 0.38972(16) 0.6142(3)
O3_16 O 0.32147(17) 0.46590(16) 0.3862(4)
O5_16 O 0.2280(2) 0.5824(2) 0.4722(4)
O8_16 O 0.31092(17) 0.59074(16) 0.3595(3)
O11_16 O 0.30489(16) 0.52747(15) 0.5160(3)
O12_16 O 0.32992(17) 0.53188(16) 0.6426(3)
H19_16 H 0.34986 0.47918 0.400972
H20_16 H 0.323861 0.451353 0.33134
H21_16 H 0.213885 0.568045 0.520405
H22_16 H 0.205784 0.598439 0.439596
H11_15 H 0.9997 0.5593 0.8821
H11_16 H 0.0003 0.4407 0.8821
loop_
_geom_bond_atom_site_label_1
_geom_bond_atom_site_label_2
_geom_bond_site_symmetry_1
_geom_bond_site_symmetry_2
C1 C2 1_555 1_555
C2 C3 1_555 1_555
C3 H1 1_555 1_555
C4 C3 1_555 1_555
H2 C4 1_555 1_555
C5 C4 1_555 1_555
C6 C5 1_555 1_555
C7 C5 1_555 1_555
C8 C7 1_555 1_555
H3 C8 1_555 1_555
C9 C8 1_555 1_555
H4 C9 1_555 1_555
C10 C9 1_555 1_555
H5 C10 1_555 1_555
C11 C10 1_555 1_555
H6 C11 1_555 1_555
C12 C2 1_555 1_555
O1 C1 1_555 1_555
O2 C1 1_555 1_555
O4 C6 1_555 1_555
O6 C6 1_555 1_555
La1 O1 1_555 1_555
O19 La1 1_555 1_555
O21 La1 1_555 1_555
La5 O4 1_555 1_555
La6 O4 1_555 1_555
C7 C12 1_555 1_555
C11 C12 1_555 1_555
O2 La1 1_555 1_555
O6 La5 1_555 1_555
O3 H19 1_555 1_555
O3 H20 1_555 1_555
C13 C14 1_555 1_555
C14 C15 1_555 1_555
C15 H7 1_555 1_555
C16 C15 1_555 1_555
H8 C16 1_555 1_555
C17 C16 1_555 1_555
C18 C17 1_555 1_555
C19 C17 1_555 1_555
C20 C19 1_555 1_555
H9 C20 1_555 1_555
C21 C20 1_555 1_555
H10 C21 1_555 1_555
C22 C21 1_555 1_555
C23 C22 1_555 1_555
H12 C23 1_555 1_555
C24 C14 1_555 1_555
C25 C26 1_555 1_555
C26 C27 1_555 1_555
C27 H13 1_555 1_555
C28 C27 1_555 1_555
H14 C28 1_555 1_555
C29 C28 1_555 1_555
C30 C29 1_555 1_555
C31 C29 1_555 1_555
C32 C31 1_555 1_555
H15 C32 1_555 1_555
C33 C32 1_555 1_555
H16 C33 1_555 1_555
C34 C33 1_555 1_555
C35 C34 1_555 1_555
H18 C35 1_555 1_555
C36 C26 1_555 1_555
O5 La2 1_555 1_555
O7 C13 1_555 1_555
O8 C13 1_555 1_555
O9 C18 1_555 1_555
O10 C18 1_555 1_555
O11 C25 1_555 1_555
O12 C25 1_555 1_555
O13 C30 1_555 1_555
O14 C30 1_555 1_555
La2 O7 1_555 1_555
O23 La2 1_555 1_555
La3 O7 1_555 1_555
La4 O9 1_555 1_555
La7 O14 1_555 1_555
La8 O9 1_555 1_555
C19 C24 1_555 1_555
C23 C24 1_555 1_555
C31 C36 1_555 1_555
C35 C36 1_555 1_555
O8 La2 1_555 1_555
O10 La8 1_555 1_555
O11 La2 1_555 1_555
O13 La4 1_555 1_555
O14 La4 1_555 1_555
O23 La3 1_555 1_555
O5 H21 1_555 1_555
O5 H22 1_555 1_555
C13_2 C14_2 1_555 1_555
C14_2 C15_2 1_555 1_555
C15_2 H7_2 1_555 1_555
C16_2 C15_2 1_555 1_555
H8_2 C16_2 1_555 1_555
C17_2 C16_2 1_555 1_555
C18_2 C17_2 1_555 1_555
C19_2 C17_2 1_555 1_555
C20_2 C19_2 1_555 1_555
H9_2 C20_2 1_555 1_555
C21_2 C20_2 1_555 1_555
H10_2 C21_2 1_555 1_555
C22_2 C21_2 1_555 1_555
C23_2 C22_2 1_555 1_555
H12_2 C23_2 1_555 1_555
C24_2 C14_2 1_555 1_555
C25_2 C26_2 1_555 1_555
C26_2 C27_2 1_555 1_555
C27_2 H13_2 1_555 1_555
C28_2 C27_2 1_555 1_555
H14_2 C28_2 1_555 1_555
C29_2 C28_2 1_555 1_555
C30_2 C29_2 1_555 1_555
C31_2 C29_2 1_555 1_555
C32_2 C31_2 1_555 1_555
H15_2 C32_2 1_555 1_555
C33_2 C32_2 1_555 1_555
H16_2 C33_2 1_555 1_555
C34_2 C33_2 1_555 1_555
C35_2 C34_2 1_555 1_555
H18_2 C35_2 1_555 1_555
C36_2 C26_2 1_555 1_555
O5_2 La2_2 1_555 1_555
O7_2 C13_2 1_555 1_555
O8_2 C13_2 1_555 1_555
O9_2 C18_2 1_555 1_555
O10_2 C18_2 1_555 1_555
O11_2 C25_2 1_555 1_555
O12_2 C25_2 1_555 1_555
O13_2 C30_2 1_555 1_555
O14_2 C30_2 1_555 1_555
La2_2 O7_2 1_555 1_555
O23_2 La2_2 1_555 1_555
La3_2 O7_2 1_555 1_555
La5 O9_2 1_555 1_555
La6 O14_2 1_555 1_555
La8_2 O9_2 1_555 1_555
C19_2 C24_2 1_555 1_555
C23_2 C24_2 1_555 1_555
C31_2 C36_2 1_555 1_555
C35_2 C36_2 1_555 1_555
O8_2 La2_2 1_555 1_555
O10_2 La8_2 1_555 1_555
O11_2 La2_2 1_555 1_555
O13_2 La5 1_555 1_555
O14_2 La5 1_555 1_555
O23_2 La3_2 1_555 1_555
O5_2 H21_2 1_555 1_555
O5_2 H22_2 1_555 1_555
C1_2 C2_2 1_555 1_555
C2_2 C3_2 1_555 1_555
C3_2 H1_2 1_555 1_555
C4_2 C3_2 1_555 1_555
H2_2 C4_2 1_555 1_555
C5_2 C4_2 1_555 1_555
C6_2 C5_2 1_555 1_555
C7_2 C5_2 1_555 1_555
C8_2 C7_2 1_555 1_555
H3_2 C8_2 1_555 1_555
C9_2 C8_2 1_555 1_555
H4_2 C9_2 1_555 1_555
C10_2 C9_2 1_555 1_555
H5_2 C10_2 1_555 1_555
C11_2 C10_2 1_555 1_555
H6_2 C11_2 1_555 1_555
C12_2 C2_2 1_555 1_555
O1_2 C1_2 1_555 1_555
O2_2 C1_2 1_555 1_555
O4_2 C6_2 1_555 1_555
O6_2 C6_2 1_555 1_555
La1_2 O1_2 1_555 1_555
O19_2 La1_2 1_555 1_555
O21_2 La1_2 1_555 1_555
La4 O4_2 1_555 1_555
La7 O4_2 1_555 1_555
C7_2 C12_2 1_555 1_555
C11_2 C12_2 1_555 1_555
O2_2 La1_2 1_555 1_555
O6_2 La4 1_555 1_555
O3_2 H19_2 1_555 1_555
O3_2 H20_2 1_555 1_555
C1_3 C2_3 1_555 1_555
C8_3 C7_3 1_555 1_555
H3_3 C8_3 1_555 1_555
C9_3 C8_3 1_555 1_555
H4_3 C9_3 1_555 1_555
C10_3 C9_3 1_555 1_555
H5_3 C10_3 1_555 1_555
C11_3 C10_3 1_555 1_555
H6_3 C11_3 1_555 1_555
C12_3 C2_3 1_555 1_555
C25_3 C26_3 1_555 1_555
C26_3 C27_3 1_555 1_555
C27_3 H13_3 1_555 1_555
C28_3 C27_3 1_555 1_555
H14_3 C28_3 1_555 1_555
C29_3 C28_3 1_555 1_555
O1_3 C1_3 1_555 1_555
O2_3 C1_3 1_555 1_555
O11_3 C25_3 1_555 1_555
O12_3 C25_3 1_555 1_555
La1_3 O1_3 1_555 1_555
O15_3 La1_3 1_555 1_555
O17_3 La1_3 1_555 1_555
O18_3 La1_3 1_555 1_555
O21_3 La1_3 1_555 1_555
O22_3 La1_3 1_555 1_555
La6_2 O4_3 1_555 1_555
La7_2 O14_3 1_555 1_555
C7_3 C12_3 1_555 1_555
C11_3 C12_3 1_555 1_555
O2_3 La1_3 1_555 1_555
O11_3 La1_3 1_555 1_555
O12_3 La1_3 1_555 1_555
C3_3 H1_3 1_555 1_555
C4_3 C3_3 1_555 1_555
H2_3 C4_3 1_555 1_555
C5_3 C4_3 1_555 1_555
C6_3 C5_3 1_555 1_555
C13_3 C14_3 1_555 1_555
C14_3 C15_3 1_555 1_555
C15_3 H7_3 1_555 1_555
C16_3 C15_3 1_555 1_555
H8_3 C16_3 1_555 1_555
C17_3 C16_3 1_555 1_555
C18_3 C17_3 1_555 1_555
C19_3 C17_3 1_555 1_555
C20_3 C19_3 1_555 1_555
H9_3 C20_3 1_555 1_555
C21_3 C20_3 1_555 1_555
H10_3 C21_3 1_555 1_555
C22_3 C21_3 1_555 1_555
H11_3 C22_3 1_555 1_555
C23_3 C22_3 1_555 1_555
H12_3 C23_3 1_555 1_555
C24_3 C14_3 1_555 1_555
C32_3 C31_3 1_555 1_555
H15_3 C32_3 1_555 1_555
C33_3 C32_3 1_555 1_555
H16_3 C33_3 1_555 1_555
C34_3 C33_3 1_555 1_555
H17_3 C34_3 1_555 1_555
C35_3 C34_3 1_555 1_555
H18_3 C35_3 1_555 1_555
O3_3 La6 1_555 1_555
O5_3 La6 1_555 1_555
O6_3 C6_3 1_555 1_555
O7_3 C13_3 1_555 1_555
O8_3 C13_3 1_555 1_555
O9_3 C18_3 1_555 1_555
O10_3 C18_3 1_555 1_555
O13_3 C30_3 1_555 1_555
La6 O7_3 1_555 1_555
O20_3 La6 1_555 1_555
La5 O7_3 1_555 1_555
La4_2 O9_3 1_555 1_555
La8_3 O9_3 1_555 1_555
C19_3 C24_3 1_555 1_555
C23_3 C24_3 1_555 1_555
C31_3 C36_3 1_555 1_555
C35_3 C36_3 1_555 1_555
O6_3 La5_2 1_555 1_555
O8_3 La6 1_555 1_555
O10_3 La8_3 1_555 1_555
O13_3 La4_2 1_555 1_555
La6 O19_3 1_555 1_555
O3_3 H19_3 1_555 1_555
O3_3 H20_3 1_555 1_555
O5_3 H22_3 1_555 1_555
C1_4 C2_4 1_555 1_555
C8_4 C7_4 1_555 1_555
H3_4 C8_4 1_555 1_555
C9_4 C8_4 1_555 1_555
H4_4 C9_4 1_555 1_555
C10_4 C9_4 1_555 1_555
H5_4 C10_4 1_555 1_555
C11_4 C10_4 1_555 1_555
H6_4 C11_4 1_555 1_555
C12_4 C2_4 1_555 1_555
C25_4 C26_4 1_555 1_555
C26_4 C27_4 1_555 1_555
C27_4 H13_4 1_555 1_555
C28_4 C27_4 1_555 1_555
H14_4 C28_4 1_555 1_555
C29_4 C28_4 1_555 1_555
O1_4 C1_4 1_555 1_555
O2_4 C1_4 1_555 1_555
O11_4 C25_4 1_555 1_555
O12_4 C25_4 1_555 1_555
La1_4 O1_4 1_555 1_555
O15_4 La1_4 1_555 1_555
O17_4 La1_4 1_555 1_555
O18_4 La1_4 1_555 1_555
O21_4 La1_4 1_555 1_555
O22_4 La1_4 1_555 1_555
La7_2 O4_4 1_555 1_555
La6_2 O14_4 1_555 1_555
C7_4 C12_4 1_555 1_555
C11_4 C12_4 1_555 1_555
O2_4 La1_4 1_555 1_555
O11_4 La1_4 1_555 1_555
O12_4 La1_4 1_555 1_555
C3_4 H1_4 1_555 1_555
C4_4 C3_4 1_555 1_555
H2_4 C4_4 1_555 1_555
C5_4 C4_4 1_555 1_555
C6_4 C5_4 1_555 1_555
C13_4 C14_4 1_555 1_555
C14_4 C15_4 1_555 1_555
C15_4 H7_4 1_555 1_555
C16_4 C15_4 1_555 1_555
H8_4 C16_4 1_555 1_555
C17_4 C16_4 1_555 1_555
C18_4 C17_4 1_555 1_555
C19_4 C17_4 1_555 1_555
C20_4 C19_4 1_555 1_555
H9_4 C20_4 1_555 1_555
C21_4 C20_4 1_555 1_555
H10_4 C21_4 1_555 1_555
C22_4 C21_4 1_555 1_555
H11_4 C22_4 1_555 1_555
C23_4 C22_4 1_555 1_555
H12_4 C23_4 1_555 1_555
C24_4 C14_4 1_555 1_555
C32_4 C31_4 1_555 1_555
H15_4 C32_4 1_555 1_555
C33_4 C32_4 1_555 1_555
H16_4 C33_4 1_555 1_555
C34_4 C33_4 1_555 1_555
H17_4 C34_4 1_555 1_555
C35_4 C34_4 1_555 1_555
H18_4 C35_4 1_555 1_555
O3_4 La7 1_555 1_555
O5_4 La7 1_555 1_555
O6_4 C6_4 1_555 1_555
O7_4 C13_4 1_555 1_555
O8_4 C13_4 1_555 1_555
O9_4 C18_4 1_555 1_555
O10_4 C18_4 1_555 1_555
O13_4 C30_4 1_555 1_555
La7 O7_4 1_555 1_555
O20_4 La7 1_555 1_555
La4 O7_4 1_555 1_555
La5_2 O9_4 1_555 1_555
La8_4 O9_4 1_555 1_555
C19_4 C24_4 1_555 1_555
C23_4 C24_4 1_555 1_555
C31_4 C36_4 1_555 1_555
C35_4 C36_4 1_555 1_555
O6_4 La4_2 1_555 1_555
O8_4 La7 1_555 1_555
O10_4 La8_4 1_555 1_555
O13_4 La5_2 1_555 1_555
La7 O19_4 1_555 1_555
O3_4 H19_4 1_555 1_555
O3_4 H20_4 1_555 1_555
O5_4 H22_4 1_555 1_555
C13_5 C14_5 1_555 1_555
C14_5 C15_5 1_555 1_555
C15_5 H7_5 1_555 1_555
C16_5 C15_5 1_555 1_555
H8_5 C16_5 1_555 1_555
C25_5 C26_5 1_555 1_555
C26_5 C27_5 1_555 1_555
C27_5 H13_5 1_555 1_555
C28_5 C27_5 1_555 1_555
H14_5 C28_5 1_555 1_555
C29_5 C28_5 1_555 1_555
C30_5 C29_5 1_555 1_555
C31_5 C29_5 1_555 1_555
C32_5 C31_5 1_555 1_555
H15_5 C32_5 1_555 1_555
C33_5 C32_5 1_555 1_555
H16_5 C33_5 1_555 1_555
C34_5 C33_5 1_555 1_555
C35_5 C34_5 1_555 1_555
H18_5 C35_5 1_555 1_555
C36_5 C26_5 1_555 1_555
O5_5 La2_3 1_555 1_555
O18 C13_5 1_555 1_555
O8_5 C13_5 1_555 1_555
O11_5 C25_5 1_555 1_555
O12_5 C25_5 1_555 1_555
O21_3 C30_5 1_555 1_555
O22_3 C30_5 1_555 1_555
La2_3 O18 1_555 1_555
O22 La2_3 1_555 1_555
La8_2 O22_3 1_555 1_555
C31_5 C36_5 1_555 1_555
C35_5 C36_5 1_555 1_555
O8_5 La2_3 1_555 1_555
O11_5 La2_3 1_555 1_555
O5_5 H21_5 1_555 1_555
O5_5 H22_5 1_555 1_555
C18_5 C17_5 1_555 1_555
C19_5 C17_5 1_555 1_555
C20_5 C19_5 1_555 1_555
H9_5 C20_5 1_555 1_555
C21_5 C20_5 1_555 1_555
H10_5 C21_5 1_555 1_555
C22_5 C21_5 1_555 1_555
C23_5 C22_5 1_555 1_555
H12_5 C23_5 1_555 1_555
O19_3 C18_5 1_555 1_555
O20_3 C18_5 1_555 1_555
C19_5 C24_5 1_555 1_555
C23_5 C24_5 1_555 1_555
C1_5 C2_5 1_555 1_555
C2_5 C3_5 1_555 1_555
C3_5 H1_5 1_555 1_555
C4_5 C3_5 1_555 1_555
H2_5 C4_5 1_555 1_555
C5_5 C4_5 1_555 1_555
C6_5 C5_5 1_555 1_555
C7_5 C5_5 1_555 1_555
C8_5 C7_5 1_555 1_555
H3_5 C8_5 1_555 1_555
C9_5 C8_5 1_555 1_555
H4_5 C9_5 1_555 1_555
C10_5 C9_5 1_555 1_555
H5_5 C10_5 1_555 1_555
C11_5 C10_5 1_555 1_555
H6_5 C11_5 1_555 1_555
C12_5 C2_5 1_555 1_555
O1_5 C1_5 1_555 1_555
O2_5 C1_5 1_555 1_555
O15_4 C6_5 1_555 1_555
O17_4 C6_5 1_555 1_555
La3 O1_5 1_555 1_555
O19_5 La3 1_555 1_555
O21_5 La3 1_555 1_555
La8 O15_4 1_555 1_555
C7_5 C12_5 1_555 1_555
C11_5 C12_5 1_555 1_555
O2_5 La3 1_555 1_555
O3_5 H19_5 1_555 1_555
O3_5 H20_5 1_555 1_555
C1_6 C2_6 1_555 1_555
C2_6 C3_6 1_555 1_555
C3_6 H1_6 1_555 1_555
C4_6 C3_6 1_555 1_555
H2_6 C4_6 1_555 1_555
C5_6 C4_6 1_555 1_555
C6_6 C5_6 1_555 1_555
C7_6 C5_6 1_555 1_555
C8_6 C7_6 1_555 1_555
H3_6 C8_6 1_555 1_555
C9_6 C8_6 1_555 1_555
H4_6 C9_6 1_555 1_555
C10_6 C9_6 1_555 1_555
H5_6 C10_6 1_555 1_555
C11_6 C10_6 1_555 1_555
H6_6 C11_6 1_555 1_555
C12_6 C2_6 1_555 1_555
O1_6 C1_6 1_555 1_555
O2_6 C1_6 1_555 1_555
O15_3 C6_6 1_555 1_555
O17_3 C6_6 1_555 1_555
La3_2 O1_6 1_555 1_555
O19_6 La3_2 1_555 1_555
O21_6 La3_2 1_555 1_555
La8_2 O15_3 1_555 1_555
C7_6 C12_6 1_555 1_555
C11_6 C12_6 1_555 1_555
O2_6 La3_2 1_555 1_555
O3_6 H19_6 1_555 1_555
O3_6 H20_6 1_555 1_555
C13_6 C14_6 1_555 1_555
C14_6 C15_6 1_555 1_555
C15_6 H7_6 1_555 1_555
C16_6 C15_6 1_555 1_555
H8_6 C16_6 1_555 1_555
C25_6 C26_6 1_555 1_555
C26_6 C27_6 1_555 1_555
C27_6 H13_6 1_555 1_555
C28_6 C27_6 1_555 1_555
H14_6 C28_6 1_555 1_555
C29_6 C28_6 1_555 1_555
C30_6 C29_6 1_555 1_555
C31_6 C29_6 1_555 1_555
C32_6 C31_6 1_555 1_555
H15_6 C32_6 1_555 1_555
C33_6 C32_6 1_555 1_555
H16_6 C33_6 1_555 1_555
C34_6 C33_6 1_555 1_555
C35_6 C34_6 1_555 1_555
H18_6 C35_6 1_555 1_555
C36_6 C26_6 1_555 1_555
O5_6 La2_4 1_555 1_555
O18_2 C13_6 1_555 1_555
O8_6 C13_6 1_555 1_555
O11_6 C25_6 1_555 1_555
O12_6 C25_6 1_555 1_555
O21_4 C30_6 1_555 1_555
O22_4 C30_6 1_555 1_555
La2_4 O18_2 1_555 1_555
O22_2 La2_4 1_555 1_555
La8 O22_4 1_555 1_555
C31_6 C36_6 1_555 1_555
C35_6 C36_6 1_555 1_555
O8_6 La2_4 1_555 1_555
O11_6 La2_4 1_555 1_555
O5_6 H21_6 1_555 1_555
O5_6 H22_6 1_555 1_555
C18_6 C17_6 1_555 1_555
C19_6 C17_6 1_555 1_555
C20_6 C19_6 1_555 1_555
H9_6 C20_6 1_555 1_555
C21_6 C20_6 1_555 1_555
H10_6 C21_6 1_555 1_555
C22_6 C21_6 1_555 1_555
C23_6 C22_6 1_555 1_555
H12_6 C23_6 1_555 1_555
O19_4 C18_6 1_555 1_555
O20_4 C18_6 1_555 1_555
C19_6 C24_6 1_555 1_555
C23_6 C24_6 1_555 1_555
C1_7 C2_7 1_555 1_555
C8_7 C7_7 1_555 1_555
H3_7 C8_7 1_555 1_555
C9_7 C8_7 1_555 1_555
H4_7 C9_7 1_555 1_555
C10_7 C9_7 1_555 1_555
H5_7 C10_7 1_555 1_555
C11_7 C10_7 1_555 1_555
H6_7 C11_7 1_555 1_555
C12_7 C2_7 1_555 1_555
O1_7 C1_7 1_555 1_555
O2_7 C1_7 1_555 1_555
La1_5 O1_7 1_555 1_555
O18_5 La1_5 1_555 1_555
O21_7 La1_5 1_555 1_555
O22_5 La1_5 1_555 1_555
C7_7 C12_7 1_555 1_555
C11_7 C12_7 1_555 1_555
O2_7 La1_5 1_555 1_555
C3_7 H1_7 1_555 1_555
C4_7 C3_7 1_555 1_555
H2_7 C4_7 1_555 1_555
C5_7 C4_7 1_555 1_555
C6_7 C5_7 1_555 1_555
O17_2 C6_7 1_555 1_555
O3_7 H19_7 1_555 1_555
O3_7 H20_7 1_555 1_555
C25_7 C26_7 1_555 1_555
C26_7 C27_7 1_555 1_555
C27_7 H13_7 1_555 1_555
C28_7 C27_7 1_555 1_555
H14_7 C28_7 1_555 1_555
C29_7 C28_7 1_555 1_555
O11_7 C25_7 1_555 1_555
O12_7 C25_7 1_555 1_555
C13_7 C14_7 1_555 1_555
C14_7 C15_7 1_555 1_555
C15_7 H7_7 1_555 1_555
C16_7 C15_7 1_555 1_555
H8_7 C16_7 1_555 1_555
C17_7 C16_7 1_555 1_555
C18_7 C17_7 1_555 1_555
C19_7 C17_7 1_555 1_555
C20_7 C19_7 1_555 1_555
H9_7 C20_7 1_555 1_555
C21_7 C20_7 1_555 1_555
H10_7 C21_7 1_555 1_555
C22_7 C21_7 1_555 1_555
C23_7 C22_7 1_555 1_555
H12_7 C23_7 1_555 1_555
C24_7 C14_7 1_555 1_555
C32_7 C31_7 1_555 1_555
H15_7 C32_7 1_555 1_555
C33_7 C32_7 1_555 1_555
H16_7 C33_7 1_555 1_555
C34_7 C33_7 1_555 1_555
C35_7 C34_7 1_555 1_555
H18_7 C35_7 1_555 1_555
O5_7 La2_5 1_555 1_555
O7_5 C13_7 1_555 1_555
O8_7 C13_7 1_555 1_555
O19 C18_7 1_555 1_555
O20 C18_7 1_555 1_555
O21 C30_7 1_555 1_555
La2_5 O7_5 1_555 1_555
O23_3 La2_5 1_555 1_555
La3_3 O7_5 1_555 1_555
C19_7 C24_7 1_555 1_555
C23_7 C24_7 1_555 1_555
C31_7 C36_7 1_555 1_555
C35_7 C36_7 1_555 1_555
O8_7 La2_5 1_555 1_555
O23_3 La3_3 1_555 1_555
O5_7 H22_7 1_555 1_555
C25_8 C26_8 1_555 1_555
C26_8 C27_8 1_555 1_555
C27_8 H13_8 1_555 1_555
C28_8 C27_8 1_555 1_555
H14_8 C28_8 1_555 1_555
C29_8 C28_8 1_555 1_555
O11_8 C25_8 1_555 1_555
O12_8 C25_8 1_555 1_555
C13_8 C14_8 1_555 1_555
C14_8 C15_8 1_555 1_555
C15_8 H7_8 1_555 1_555
C16_8 C15_8 1_555 1_555
H8_8 C16_8 1_555 1_555
C17_8 C16_8 1_555 1_555
C18_8 C17_8 1_555 1_555
C19_8 C17_8 1_555 1_555
C20_8 C19_8 1_555 1_555
H9_8 C20_8 1_555 1_555
C21_8 C20_8 1_555 1_555
H10_8 C21_8 1_555 1_555
C22_8 C21_8 1_555 1_555
C23_8 C22_8 1_555 1_555
H12_8 C23_8 1_555 1_555
C24_8 C14_8 1_555 1_555
C32_8 C31_8 1_555 1_555
H15_8 C32_8 1_555 1_555
C33_8 C32_8 1_555 1_555
H16_8 C33_8 1_555 1_555
C34_8 C33_8 1_555 1_555
C35_8 C34_8 1_555 1_555
H18_8 C35_8 1_555 1_555
O5_8 La2_6 1_555 1_555
O7_6 C13_8 1_555 1_555
O8_8 C13_8 1_555 1_555
O19_2 C18_8 1_555 1_555
O20_2 C18_8 1_555 1_555
O21_2 C30_8 1_555 1_555
La2_6 O7_6 1_555 1_555
O23_4 La2_6 1_555 1_555
La3_4 O7_6 1_555 1_555
C19_8 C24_8 1_555 1_555
C23_8 C24_8 1_555 1_555
C31_8 C36_8 1_555 1_555
C35_8 C36_8 1_555 1_555
O8_8 La2_6 1_555 1_555
O23_4 La3_4 1_555 1_555
O5_8 H22_8 1_555 1_555
C1_8 C2_8 1_555 1_555
C8_8 C7_8 1_555 1_555
H3_8 C8_8 1_555 1_555
C9_8 C8_8 1_555 1_555
H4_8 C9_8 1_555 1_555
C10_8 C9_8 1_555 1_555
H5_8 C10_8 1_555 1_555
C11_8 C10_8 1_555 1_555
H6_8 C11_8 1_555 1_555
C12_8 C2_8 1_555 1_555
O1_8 C1_8 1_555 1_555
O2_8 C1_8 1_555 1_555
La1_6 O1_8 1_555 1_555
O18_6 La1_6 1_555 1_555
O21_8 La1_6 1_555 1_555
O22_6 La1_6 1_555 1_555
C7_8 C12_8 1_555 1_555
C11_8 C12_8 1_555 1_555
O2_8 La1_6 1_555 1_555
C3_8 H1_8 1_555 1_555
C4_8 C3_8 1_555 1_555
H2_8 C4_8 1_555 1_555
C5_8 C4_8 1_555 1_555
C6_8 C5_8 1_555 1_555
O17 C6_8 1_555 1_555
O3_8 H19_8 1_555 1_555
O3_8 H20_8 1_555 1_555
C1_9 C2_9 1_555 1_555
C2_9 C3_9 1_555 1_555
C3_9 H1_9 1_555 1_555
C4_9 C3_9 1_555 1_555
H2_9 C4_9 1_555 1_555
C5_9 C4_9 1_555 1_555
C6_9 C5_9 1_555 1_555
C7_9 C5_9 1_555 1_555
C8_9 C7_9 1_555 1_555
H3_9 C8_9 1_555 1_555
C9_9 C8_9 1_555 1_555
H4_9 C9_9 1_555 1_555
C10_9 C9_9 1_555 1_555
H5_9 C10_9 1_555 1_555
C11_9 C10_9 1_555 1_555
H6_9 C11_9 1_555 1_555
C12_9 C2_9 1_555 1_555
C13_9 C14_9 1_555 1_555
C14_9 C15_9 1_555 1_555
C15_9 H7_9 1_555 1_555
C16_9 C15_9 1_555 1_555
H8_9 C16_9 1_555 1_555
C25_9 C26_9 1_555 1_555
C26_9 C27_9 1_555 1_555
C27_9 H13_9 1_555 1_555
C28_9 C27_9 1_555 1_555
H14_9 C28_9 1_555 1_555
C29_9 C28_9 1_555 1_555
C30_9 C29_9 1_555 1_555
C31_9 C29_9 1_555 1_555
C32_9 C31_9 1_555 1_555
H15_9 C32_9 1_555 1_555
C33_9 C32_9 1_555 1_555
H16_9 C33_9 1_555 1_555
C34_9 C33_9 1_555 1_555
H17_9 C34_9 1_555 1_555
C35_9 C34_9 1_555 1_555
H18_9 C35_9 1_555 1_555
C36_9 C26_9 1_555 1_555
O1_9 C1_9 1_555 1_555
O2_9 C1_9 1_555 1_555
O3_9 La7_2 1_555 1_555
O15_6 C6_9 1_555 1_555
O5_9 La7_2 1_555 1_555
O17_8 C6_9 1_555 1_555
O7_7 C13_9 1_555 1_555
O8_9 C13_9 1_555 1_555
O11_9 C25_9 1_555 1_555
O12_9 C25_9 1_555 1_555
O21_7 C30_9 1_555 1_555
O22_5 C30_9 1_555 1_555
La1_7 O1_9 1_555 1_555
La7_2 O7_7 1_555 1_555
O15_7 La1_7 1_555 1_555
O17_9 La1_7 1_555 1_555
O18_7 La1_7 1_555 1_555
O19_9 La1_7 1_555 1_555
O20_9 La7_2 1_555 1_555
O21_9 La1_7 1_555 1_555
O22_7 La1_7 1_555 1_555
La7_3 O22_5 1_555 1_555
C7_9 C12_9 1_555 1_555
C11_9 C12_9 1_555 1_555
C31_9 C36_9 1_555 1_555
C35_9 C36_9 1_555 1_555
O2_9 La1_7 1_555 1_555
O8_9 La7_2 1_555 1_555
O11_9 La1_7 1_555 1_555
O11_9 La7_2 1_555 1_555
O12_9 La1_7 1_555 1_555
La7_2 O19_9 1_555 1_555
O3_9 H19_9 1_555 1_555
O3_9 H20_9 1_555 1_555
O5_9 H21_9 1_555 1_555
O5_9 H22_9 1_555 1_555
C18_9 C17_9 1_555 1_555
C19_9 C17_9 1_555 1_555
C20_9 C19_9 1_555 1_555
H9_9 C20_9 1_555 1_555
C21_9 C20_9 1_555 1_555
H10_9 C21_9 1_555 1_555
C22_9 C21_9 1_555 1_555
H11_7 C22_9 1_555 1_555
C23_9 C22_9 1_555 1_555
H12_9 C23_9 1_555 1_555
O19_7 C18_9 1_555 1_555
O20_7 C18_9 1_555 1_555
C19_9 C24_9 1_555 1_555
C23_9 C24_9 1_555 1_555
C1_10 C2_10 1_555 1_555
C2_10 C3_10 1_555 1_555
C3_10 H1_10 1_555 1_555
C4_10 C3_10 1_555 1_555
H2_10 C4_10 1_555 1_555
C5_10 C4_10 1_555 1_555
C6_10 C5_10 1_555 1_555
C7_10 C5_10 1_555 1_555
C8_10 C7_10 1_555 1_555
H3_10 C8_10 1_555 1_555
C9_10 C8_10 1_555 1_555
H4_10 C9_10 1_555 1_555
C10_10 C9_10 1_555 1_555
H5_10 C10_10 1_555 1_555
C11_10 C10_10 1_555 1_555
H6_10 C11_10 1_555 1_555
C12_10 C2_10 1_555 1_555
C13_10 C14_10 1_555 1_555
C14_10 C15_10 1_555 1_555
C15_10 H7_10 1_555 1_555
C16_10 C15_10 1_555 1_555
H8_10 C16_10 1_555 1_555
C25_10 C26_10 1_555 1_555
C26_10 C27_10 1_555 1_555
C27_10 H13_10 1_555 1_555
C28_10 C27_10 1_555 1_555
H14_10 C28_10 1_555 1_555
C29_10 C28_10 1_555 1_555
C30_10 C29_10 1_555 1_555
C31_10 C29_10 1_555 1_555
C32_10 C31_10 1_555 1_555
H15_10 C32_10 1_555 1_555
C33_10 C32_10 1_555 1_555
H16_10 C33_10 1_555 1_555
C34_10 C33_10 1_555 1_555
H17_10 C34_10 1_555 1_555
C35_10 C34_10 1_555 1_555
H18_10 C35_10 1_555 1_555
C36_10 C26_10 1_555 1_555
O1_10 C1_10 1_555 1_555
O2_10 C1_10 1_555 1_555
O3_10 La6_2 1_555 1_555
O15_5 C6_10 1_555 1_555
O5_10 La6_2 1_555 1_555
O17_7 C6_10 1_555 1_555
O7_8 C13_10 1_555 1_555
O8_10 C13_10 1_555 1_555
O11_10 C25_10 1_555 1_555
O12_10 C25_10 1_555 1_555
O21_8 C30_10 1_555 1_555
O22_6 C30_10 1_555 1_555
La1_8 O1_10 1_555 1_555
La6_2 O7_8 1_555 1_555
O15_8 La1_8 1_555 1_555
O17_10 La1_8 1_555 1_555
O18_8 La1_8 1_555 1_555
O19_10 La1_8 1_555 1_555
O20_10 La6_2 1_555 1_555
O21_10 La1_8 1_555 1_555
O22_8 La1_8 1_555 1_555
La6_3 O22_6 1_555 1_555
C7_10 C12_10 1_555 1_555
C11_10 C12_10 1_555 1_555
C31_10 C36_10 1_555 1_555
C35_10 C36_10 1_555 1_555
O2_10 La1_8 1_555 1_555
O8_10 La6_2 1_555 1_555
O11_10 La1_8 1_555 1_555
O11_10 La6_2 1_555 1_555
O12_10 La1_8 1_555 1_555
La6_2 O19_10 1_555 1_555
O3_10 H19_10 1_555 1_555
O3_10 H20_10 1_555 1_555
O5_10 H21_10 1_555 1_555
O5_10 H22_10 1_555 1_555
C18_10 C17_10 1_555 1_555
C19_10 C17_10 1_555 1_555
C20_10 C19_10 1_555 1_555
H9_10 C20_10 1_555 1_555
C21_10 C20_10 1_555 1_555
H10_10 C21_10 1_555 1_555
C22_10 C21_10 1_555 1_555
H11_8 C22_10 1_555 1_555
C23_10 C22_10 1_555 1_555
H12_10 C23_10 1_555 1_555
O19_8 C18_10 1_555 1_555
O20_8 C18_10 1_555 1_555
C19_10 C24_10 1_555 1_555
C23_10 C24_10 1_555 1_555
C1_11 C2_11 1_555 1_555
C2_11 C3_11 1_555 1_555
C3_11 H1_11 1_555 1_555
C4_11 C3_11 1_555 1_555
H2_11 C4_11 1_555 1_555
C5_11 C4_11 1_555 1_555
C6_11 C5_11 1_555 1_555
C7_11 C5_11 1_555 1_555
C8_11 C7_11 1_555 1_555
H3_11 C8_11 1_555 1_555
C9_11 C8_11 1_555 1_555
H4_11 C9_11 1_555 1_555
C10_11 C9_11 1_555 1_555
H5_11 C10_11 1_555 1_555
C11_11 C10_11 1_555 1_555
H6_11 C11_11 1_555 1_555
C12_11 C2_11 1_555 1_555
O1_11 C1_11 1_555 1_555
O2_11 C1_11 1_555 1_555
O16_2 C6_11 1_555 1_555
O17_6 C6_11 1_555 1_555
La3_4 O1_11 1_555 1_555
O19_11 La3_4 1_555 1_555
O21_11 La3_4 1_555 1_555
C7_11 C12_11 1_555 1_555
C11_11 C12_11 1_555 1_555
O2_11 La3_4 1_555 1_555
O3_11 H19_11 1_555 1_555
O3_11 H20_11 1_555 1_555
C13_11 C14_11 1_555 1_555
C14_11 C15_11 1_555 1_555
C15_11 H7_11 1_555 1_555
C16_11 C15_11 1_555 1_555
H8_11 C16_11 1_555 1_555
C17_11 C16_11 1_555 1_555
C18_11 C17_11 1_555 1_555
C19_11 C17_11 1_555 1_555
C20_11 C19_11 1_555 1_555
H9_11 C20_11 1_555 1_555
C21_11 C20_11 1_555 1_555
H10_11 C21_11 1_555 1_555
C22_11 C21_11 1_555 1_555
C23_11 C22_11 1_555 1_555
H12_11 C23_11 1_555 1_555
C24_11 C14_11 1_555 1_555
C25_11 C26_11 1_555 1_555
C26_11 C27_11 1_555 1_555
C27_11 H13_11 1_555 1_555
C28_11 C27_11 1_555 1_555
H14_11 C28_11 1_555 1_555
C29_11 C28_11 1_555 1_555
C30_11 C29_11 1_555 1_555
C31_11 C29_11 1_555 1_555
C32_11 C31_11 1_555 1_555
H15_11 C32_11 1_555 1_555
C33_11 C32_11 1_555 1_555
H16_11 C33_11 1_555 1_555
C34_11 C33_11 1_555 1_555
C35_11 C34_11 1_555 1_555
H18_11 C35_11 1_555 1_555
C36_11 C26_11 1_555 1_555
O5_11 La6_3 1_555 1_555
O18_6 C13_11 1_555 1_555
O8_11 C13_11 1_555 1_555
O19_5 C18_11 1_555 1_555
O20_5 C18_11 1_555 1_555
O11_11 C25_11 1_555 1_555
O12_11 C25_11 1_555 1_555
O21_5 C30_11 1_555 1_555
O23 C30_11 1_555 1_555
La6_3 O18_6 1_555 1_555
C19_11 C24_11 1_555 1_555
C23_11 C24_11 1_555 1_555
C31_11 C36_11 1_555 1_555
C35_11 C36_11 1_555 1_555
O8_11 La6_3 1_555 1_555
O11_11 La6_3 1_555 1_555
O5_11 H21_11 1_555 1_555
O5_11 H22_11 1_555 1_555
C13_12 C14_12 1_555 1_555
C14_12 C15_12 1_555 1_555
C15_12 H7_12 1_555 1_555
C16_12 C15_12 1_555 1_555
H8_12 C16_12 1_555 1_555
C17_12 C16_12 1_555 1_555
C18_12 C17_12 1_555 1_555
C19_12 C17_12 1_555 1_555
C20_12 C19_12 1_555 1_555
H9_12 C20_12 1_555 1_555
C21_12 C20_12 1_555 1_555
H10_12 C21_12 1_555 1_555
C22_12 C21_12 1_555 1_555
C23_12 C22_12 1_555 1_555
H12_12 C23_12 1_555 1_555
C24_12 C14_12 1_555 1_555
C25_12 C26_12 1_555 1_555
C26_12 C27_12 1_555 1_555
C27_12 H13_12 1_555 1_555
C28_12 C27_12 1_555 1_555
H14_12 C28_12 1_555 1_555
C29_12 C28_12 1_555 1_555
C30_12 C29_12 1_555 1_555
C31_12 C29_12 1_555 1_555
C32_12 C31_12 1_555 1_555
H15_12 C32_12 1_555 1_555
C33_12 C32_12 1_555 1_555
H16_12 C33_12 1_555 1_555
C34_12 C33_12 1_555 1_555
C35_12 C34_12 1_555 1_555
H18_12 C35_12 1_555 1_555
C36_12 C26_12 1_555 1_555
O5_12 La7_3 1_555 1_555
O18_5 C13_12 1_555 1_555
O8_12 C13_12 1_555 1_555
O19_6 C18_12 1_555 1_555
O20_6 C18_12 1_555 1_555
O11_12 C25_12 1_555 1_555
O12_12 C25_12 1_555 1_555
O21_6 C30_12 1_555 1_555
O23_2 C30_12 1_555 1_555
La7_3 O18_5 1_555 1_555
C19_12 C24_12 1_555 1_555
C23_12 C24_12 1_555 1_555
C31_12 C36_12 1_555 1_555
C35_12 C36_12 1_555 1_555
O8_12 La7_3 1_555 1_555
O11_12 La7_3 1_555 1_555
O5_12 H21_12 1_555 1_555
O5_12 H22_12 1_555 1_555
C1_12 C2_12 1_555 1_555
C2_12 C3_12 1_555 1_555
C3_12 H1_12 1_555 1_555
C4_12 C3_12 1_555 1_555
H2_12 C4_12 1_555 1_555
C5_12 C4_12 1_555 1_555
C6_12 C5_12 1_555 1_555
C7_12 C5_12 1_555 1_555
C8_12 C7_12 1_555 1_555
H3_12 C8_12 1_555 1_555
C9_12 C8_12 1_555 1_555
H4_12 C9_12 1_555 1_555
C10_12 C9_12 1_555 1_555
H5_12 C10_12 1_555 1_555
C11_12 C10_12 1_555 1_555
H6_12 C11_12 1_555 1_555
C12_12 C2_12 1_555 1_555
O1_12 C1_12 1_555 1_555
O2_12 C1_12 1_555 1_555
O16 C6_12 1_555 1_555
O17_5 C6_12 1_555 1_555
La3_3 O1_12 1_555 1_555
O19_12 La3_3 1_555 1_555
O21_12 La3_3 1_555 1_555
C7_12 C12_12 1_555 1_555
C11_12 C12_12 1_555 1_555
O2_12 La3_3 1_555 1_555
O3_12 H19_12 1_555 1_555
O3_12 H20_12 1_555 1_555
C1_13 C2_13 1_555 1_555
C2_13 C3_13 1_555 1_555
C3_13 H1_13 1_555 1_555
C4_13 C3_13 1_555 1_555
H2_13 C4_13 1_555 1_555
C5_13 C4_13 1_555 1_555
C6_13 C5_13 1_555 1_555
C7_13 C5_13 1_555 1_555
C8_13 C7_13 1_555 1_555
H3_13 C8_13 1_555 1_555
C9_13 C8_13 1_555 1_555
H4_13 C9_13 1_555 1_555
C10_13 C9_13 1_555 1_555
H5_13 C10_13 1_555 1_555
C11_13 C10_13 1_555 1_555
H6_13 C11_13 1_555 1_555
C12_13 C2_13 1_555 1_555
C13_13 C14_13 1_555 1_555
C14_13 C15_13 1_555 1_555
C15_13 H7_13 1_555 1_555
C16_13 C15_13 1_555 1_555
H8_13 C16_13 1_555 1_555
C17_13 C16_13 1_555 1_555
C18_13 C17_13 1_555 1_555
C19_13 C17_13 1_555 1_555
C20_13 C19_13 1_555 1_555
H9_13 C20_13 1_555 1_555
C21_13 C20_13 1_555 1_555
H10_13 C21_13 1_555 1_555
C22_13 C21_13 1_555 1_555
H11_11 C22_13 1_555 1_555
C23_13 C22_13 1_555 1_555
H12_13 C23_13 1_555 1_555
C24_13 C14_13 1_555 1_555
C25_13 C26_13 1_555 1_555
C26_13 C27_13 1_555 1_555
C27_13 H13_13 1_555 1_555
C28_13 C27_13 1_555 1_555
H14_13 C28_13 1_555 1_555
C29_13 C28_13 1_555 1_555
C30_13 C29_13 1_555 1_555
C31_13 C29_13 1_555 1_555
C32_13 C31_13 1_555 1_555
H15_13 C32_13 1_555 1_555
C33_13 C32_13 1_555 1_555
H16_13 C33_13 1_555 1_555
C34_13 C33_13 1_555 1_555
H17_13 C34_13 1_555 1_555
C35_13 C34_13 1_555 1_555
H18_13 C35_13 1_555 1_555
C36_13 C26_13 1_555 1_555
O1_13 C1_13 1_555 1_555
O2_13 C1_13 1_555 1_555
O3_13 La8_3 1_555 1_555
O16_3 C6_13 1_555 1_555
O5_13 La8_3 1_555 1_555
O17_12 C6_13 1_555 1_555
O18_7 C13_13 1_555 1_555
O8_13 C13_13 1_555 1_555
O19_11 C18_13 1_555 1_555
O20_11 C18_13 1_555 1_555
O11_13 C25_13 1_555 1_555
O12_13 C25_13 1_555 1_555
O21_11 C30_13 1_555 1_555
O23_4 C30_13 1_555 1_555
La4_2 O1_13 1_555 1_555
La8_3 O18_7 1_555 1_555
O15_7 La8_3 1_555 1_555
O22_7 La8_3 1_555 1_555
C7_13 C12_13 1_555 1_555
C11_13 C12_13 1_555 1_555
C19_13 C24_13 1_555 1_555
C23_13 C24_13 1_555 1_555
C31_13 C36_13 1_555 1_555
C35_13 C36_13 1_555 1_555
O2_13 La4_2 1_555 1_555
O8_13 La8_3 1_555 1_555
O11_13 La4_2 1_555 1_555
O11_13 La8_3 1_555 1_555
O12_13 La4_2 1_555 1_555
O3_13 H19_13 1_555 1_555
O3_13 H20_13 1_555 1_555
O5_13 H21_13 1_555 1_555
O5_13 H22_13 1_555 1_555
C1_14 C2_14 1_555 1_555
C2_14 C3_14 1_555 1_555
C3_14 H1_14 1_555 1_555
C4_14 C3_14 1_555 1_555
H2_14 C4_14 1_555 1_555
C5_14 C4_14 1_555 1_555
C6_14 C5_14 1_555 1_555
C7_14 C5_14 1_555 1_555
C8_14 C7_14 1_555 1_555
H3_14 C8_14 1_555 1_555
C9_14 C8_14 1_555 1_555
H4_14 C9_14 1_555 1_555
C10_14 C9_14 1_555 1_555
H5_14 C10_14 1_555 1_555
C11_14 C10_14 1_555 1_555
H6_14 C11_14 1_555 1_555
C12_14 C2_14 1_555 1_555
C13_14 C14_14 1_555 1_555
C14_14 C15_14 1_555 1_555
C15_14 H7_14 1_555 1_555
C16_14 C15_14 1_555 1_555
H8_14 C16_14 1_555 1_555
C17_14 C16_14 1_555 1_555
C18_14 C17_14 1_555 1_555
C19_14 C17_14 1_555 1_555
C20_14 C19_14 1_555 1_555
H9_14 C20_14 1_555 1_555
C21_14 C20_14 1_555 1_555
H10_14 C21_14 1_555 1_555
C22_14 C21_14 1_555 1_555
H11_12 C22_14 1_555 1_555
C23_14 C22_14 1_555 1_555
H12_14 C23_14 1_555 1_555
C24_14 C14_14 1_555 1_555
C25_14 C26_14 1_555 1_555
C26_14 C27_14 1_555 1_555
C27_14 H13_14 1_555 1_555
C28_14 C27_14 1_555 1_555
H14_14 C28_14 1_555 1_555
C29_14 C28_14 1_555 1_555
C30_14 C29_14 1_555 1_555
C31_14 C29_14 1_555 1_555
C32_14 C31_14 1_555 1_555
H15_14 C32_14 1_555 1_555
C33_14 C32_14 1_555 1_555
H16_14 C33_14 1_555 1_555
C34_14 C33_14 1_555 1_555
H17_14 C34_14 1_555 1_555
C35_14 C34_14 1_555 1_555
H18_14 C35_14 1_555 1_555
C36_14 C26_14 1_555 1_555
O1_14 C1_14 1_555 1_555
O2_14 C1_14 1_555 1_555
O3_14 La8_4 1_555 1_555
O16_4 C6_14 1_555 1_555
O5_14 La8_4 1_555 1_555
O17_11 C6_14 1_555 1_555
O18_8 C13_14 1_555 1_555
O8_14 C13_14 1_555 1_555
O19_12 C18_14 1_555 1_555
O20_12 C18_14 1_555 1_555
O11_14 C25_14 1_555 1_555
O12_14 C25_14 1_555 1_555
O21_12 C30_14 1_555 1_555
O23_3 C30_14 1_555 1_555
La5_2 O1_14 1_555 1_555
La8_4 O18_8 1_555 1_555
O15_8 La8_4 1_555 1_555
O22_8 La8_4 1_555 1_555
C7_14 C12_14 1_555 1_555
C11_14 C12_14 1_555 1_555
C19_14 C24_14 1_555 1_555
C23_14 C24_14 1_555 1_555
C31_14 C36_14 1_555 1_555
C35_14 C36_14 1_555 1_555
O2_14 La5_2 1_555 1_555
O8_14 La8_4 1_555 1_555
O11_14 La5_2 1_555 1_555
O11_14 La8_4 1_555 1_555
O12_14 La5_2 1_555 1_555
O3_14 H19_14 1_555 1_555
O3_14 H20_14 1_555 1_555
O5_14 H21_14 1_555 1_555
O5_14 H22_14 1_555 1_555
C1_15 C2_15 1_555 1_555
C2_15 C3_15 1_555 1_555
C3_15 H1_15 1_555 1_555
C4_15 C3_15 1_555 1_555
H2_15 C4_15 1_555 1_555
C5_15 C4_15 1_555 1_555
C6_15 C5_15 1_555 1_555
C7_15 C5_15 1_555 1_555
C8_15 C7_15 1_555 1_555
H3_15 C8_15 1_555 1_555
C9_15 C8_15 1_555 1_555
H4_15 C9_15 1_555 1_555
C10_15 C9_15 1_555 1_555
H5_15 C10_15 1_555 1_555
C11_15 C10_15 1_555 1_555
H6_15 C11_15 1_555 1_555
C12_15 C2_15 1_555 1_555
C13_15 C14_15 1_555 1_555
C14_15 C15_15 1_555 1_555
C15_15 H7_15 1_555 1_555
C16_15 C15_15 1_555 1_555
H8_15 C16_15 1_555 1_555
C17_15 C16_15 1_555 1_555
C18_15 C17_15 1_555 1_555
C19_15 C17_15 1_555 1_555
C20_15 C19_15 1_555 1_555
H9_15 C20_15 1_555 1_555
C21_15 C20_15 1_555 1_555
H10_15 C21_15 1_555 1_555
C22_15 C21_15 1_555 1_555
H11_13 C22_15 1_555 1_555
C23_15 C22_15 1_555 1_555
H12_15 C23_15 1_555 1_555
C24_15 C14_15 1_555 1_555
C25_15 C26_15 1_555 1_555
C26_15 C27_15 1_555 1_555
C27_15 H13_15 1_555 1_555
C28_15 C27_15 1_555 1_555
H14_15 C28_15 1_555 1_555
C29_15 C28_15 1_555 1_555
C30_15 C29_15 1_555 1_555
C31_15 C29_15 1_555 1_555
C32_15 C31_15 1_555 1_555
H15_15 C32_15 1_555 1_555
C33_15 C32_15 1_555 1_555
H16_15 C33_15 1_555 1_555
C34_15 C33_15 1_555 1_555
H17_15 C34_15 1_555 1_555
C35_15 C34_15 1_555 1_555
H18_15 C35_15 1_555 1_555
C36_15 C26_15 1_555 1_555
O1_15 C1_15 1_555 1_555
O2_15 C1_15 1_555 1_555
O3_15 La8 1_555 1_555
O15_8 C6_15 1_555 1_555
O5_15 La8 1_555 1_555
O17_10 C6_15 1_555 1_555
O18_4 C13_15 1_555 1_555
O8_15 C13_15 1_555 1_555
O19_9 C18_15 1_555 1_555
O20_9 C18_15 1_555 1_555
O11_15 C25_15 1_555 1_555
O12_15 C25_15 1_555 1_555
O21_9 C30_15 1_555 1_555
O22_7 C30_15 1_555 1_555
La4 O1_15 1_555 1_555
La8 O18_4 1_555 1_555
C7_15 C12_15 1_555 1_555
C11_15 C12_15 1_555 1_555
C19_15 C24_15 1_555 1_555
C23_15 C24_15 1_555 1_555
C31_15 C36_15 1_555 1_555
C35_15 C36_15 1_555 1_555
O2_15 La4 1_555 1_555
O8_15 La8 1_555 1_555
O11_15 La4 1_555 1_555
O11_15 La8 1_555 1_555
O12_15 La4 1_555 1_555
O3_15 H19_15 1_555 1_555
O3_15 H20_15 1_555 1_555
O5_15 H21_15 1_555 1_555
O5_15 H22_15 1_555 1_555
C1_16 C2_16 1_555 1_555
C2_16 C3_16 1_555 1_555
C3_16 H1_16 1_555 1_555
C4_16 C3_16 1_555 1_555
H2_16 C4_16 1_555 1_555
C5_16 C4_16 1_555 1_555
C6_16 C5_16 1_555 1_555
C7_16 C5_16 1_555 1_555
C8_16 C7_16 1_555 1_555
H3_16 C8_16 1_555 1_555
C9_16 C8_16 1_555 1_555
H4_16 C9_16 1_555 1_555
C10_16 C9_16 1_555 1_555
H5_16 C10_16 1_555 1_555
C11_16 C10_16 1_555 1_555
H6_16 C11_16 1_555 1_555
C12_16 C2_16 1_555 1_555
C13_16 C14_16 1_555 1_555
C14_16 C15_16 1_555 1_555
C15_16 H7_16 1_555 1_555
C16_16 C15_16 1_555 1_555
H8_16 C16_16 1_555 1_555
C17_16 C16_16 1_555 1_555
C18_16 C17_16 1_555 1_555
C19_16 C17_16 1_555 1_555
C20_16 C19_16 1_555 1_555
H9_16 C20_16 1_555 1_555
C21_16 C20_16 1_555 1_555
H10_16 C21_16 1_555 1_555
C22_16 C21_16 1_555 1_555
H11_14 C22_16 1_555 1_555
C23_16 C22_16 1_555 1_555
H12_16 C23_16 1_555 1_555
C24_16 C14_16 1_555 1_555
C25_16 C26_16 1_555 1_555
C26_16 C27_16 1_555 1_555
C27_16 H13_16 1_555 1_555
C28_16 C27_16 1_555 1_555
H14_16 C28_16 1_555 1_555
C29_16 C28_16 1_555 1_555
C30_16 C29_16 1_555 1_555
C31_16 C29_16 1_555 1_555
C32_16 C31_16 1_555 1_555
H15_16 C32_16 1_555 1_555
C33_16 C32_16 1_555 1_555
H16_16 C33_16 1_555 1_555
C34_16 C33_16 1_555 1_555
H17_16 C34_16 1_555 1_555
C35_16 C34_16 1_555 1_555
H18_16 C35_16 1_555 1_555
C36_16 C26_16 1_555 1_555
O1_16 C1_16 1_555 1_555
O2_16 C1_16 1_555 1_555
O3_16 La8_2 1_555 1_555
O15_7 C6_16 1_555 1_555
O5_16 La8_2 1_555 1_555
O17_9 C6_16 1_555 1_555
O18_3 C13_16 1_555 1_555
O8_16 C13_16 1_555 1_555
O19_10 C18_16 1_555 1_555
O20_10 C18_16 1_555 1_555
O11_16 C25_16 1_555 1_555
O12_16 C25_16 1_555 1_555
O21_10 C30_16 1_555 1_555
O22_8 C30_16 1_555 1_555
La5 O1_16 1_555 1_555
La8_2 O18_3 1_555 1_555
C7_16 C12_16 1_555 1_555
C11_16 C12_16 1_555 1_555
C19_16 C24_16 1_555 1_555
C23_16 C24_16 1_555 1_555
C31_16 C36_16 1_555 1_555
C35_16 C36_16 1_555 1_555
O2_16 La5 1_555 1_555
O8_16 La8_2 1_555 1_555
O11_16 La5 1_555 1_555
O11_16 La8_2 1_555 1_555
O12_16 La5 1_555 1_555
O3_16 H19_16 1_555 1_555
O3_16 H20_16 1_555 1_555
O5_16 H21_16 1_555 1_555
O5_16 H22_16 1_555 1_555

#END
