
###############################################################################
#
# This file contains modified crystal structure data generated from the
# MOF subset of the Cambridge Structural Database (CSD) v543 
# hosted by the Cambridge Crystallographic Data Centre (CCDC).
#
# This work is licensed under the Creative Commons
# Attribution-NonCommercial-ShareAlike 4.0 International License.
# To view a copy of this license, visit
# http://creativecommons.org/licenses/by-nc-sa/4.0/
# or send a letter to
# Creative Commons, PO Box 1866, Mountain View, CA 94042, USA.
#
# CIF created using the CSD Python API on 29 September 2022
# The structure has been converted into the P1 space group
# The structure has a 3D framework
# The original CSD entry QITYOJ is in the monoclinic crystal system
# The framework has been calculated to contain at least 10.0% void space
# The void calculation uses a probe of radius 1.32A, grid spacing 0.4
#
###############################################################################

data_QITYOJ
_chemical_formula_moiety         '(C216 H152 Mn11 N16 O68)n'
_symmetry_cell_setting           triclinic
_symmetry_space_group_name_H-M   'P 1'
_symmetry_Int_Tables_number      1
_space_group_name_Hall           'P 1'
loop_
_symmetry_equiv_pos_site_id
_symmetry_equiv_pos_as_xyz
1 x,y,z
_cell_length_a                   13.226(8)
_cell_length_b                   19.610(13)
_cell_length_c                   23.292(15)
_cell_angle_alpha                90
_cell_angle_beta                 101.312(7)
_cell_angle_gamma                90
_cell_volume                     5923.7
loop_
_atom_site_label
_atom_site_type_symbol
_atom_site_fract_x
_atom_site_fract_y
_atom_site_fract_z
Mn4 Mn 0.03648(4) 0.03128(3) 0.06445(2)
H9 H 0.0397 0.8626 0.0472
H30 H 0.0228 0.4023 0.0161
C45 C 0.0123(4) 0.5050(2) 0.0206(3)
H31 H 0.0802 0.5198 0.0312
O20 O 0.0359(2) 0.19843(15) 0.09148(14)
O21 O 0.1416(2) 0.10858(15) 0.10170(14)
Mn3 Mn 0.90116(4) 0.18705(3) 0.02502(2)
N2 N 0.9248(3) 0.54508(16) 0.01058(16)
N3 N 0.8941(3) 0.83179(16) 0.01599(17)
N4 N 0.9398(3) 0.93950(17) 0.03246(18)
O1 O 0.9380(2) 0.05192(16) 0.12395(14)
O2 O 0.8221(2) 0.12655(16) 0.07801(13)
O4 O 0.7084(2) 0.34648(14) 0.05010(13)
O5 O 0.8503(2) 0.28983(12) 0.04900(11)
O6 O 0.8019(3) 0.2119(2) 0.30608(15)
O7 O 0.4816(3) 0.25702(17) 0.46954(15)
O8 O 0.3963(3) 0.17543(18) 0.41310(15)
C9 C 0.9714(3) 0.8757(2) 0.0344(2)
C16 C 0.8510(3) 0.08154(19) 0.11546(17)
C17 C 0.7773(3) 0.06078(19) 0.15383(16)
C18 C 0.6787(3) 0.0875(2) 0.14607(19)
H14 H 0.6591 0.1216 0.1184
C19 C 0.6093(4) 0.0645(2) 0.1785(2)
H15 H 0.5435 0.0833 0.1727
C20 C 0.6369(3) 0.0139(2) 0.2196(2)
C22 C 0.8048(4) 0.0112(2) 0.1962(2)
C24 C 0.7188(4) 0.2581(3) 0.3783(2)
H18 H 0.7729 0.2889 0.3883
C25 C 0.7181(4) 0.2129(3) 0.3344(2)
C26 C 0.6388(4) 0.1670(3) 0.3195(2)
H19 H 0.6396 0.1360 0.2893
C27 C 0.7899(3) 0.2375(2) 0.24954(19)
C28 C 0.7004(3) 0.2673(2) 0.21931(19)
H20 H 0.6427 0.2711 0.2364
C29 C 0.6981(3) 0.2916(2) 0.1628(2)
H21 H 0.6385 0.3122 0.1423
C30 C 0.7822(3) 0.28560(19) 0.13700(17)
C31 C 0.8728(3) 0.2553(2) 0.16859(18)
H22 H 0.9304 0.2510 0.1514
C32 C 0.8765(3) 0.2322(3) 0.22465(19)
H23 H 0.9369 0.2131 0.2458
C33 C 0.7799(3) 0.30865(18) 0.07546(17)
C34 C 0.4705(3) 0.2153(2) 0.42774(19)
C35 C 0.6368(3) 0.2581(2) 0.4086(2)
H24 H 0.6369 0.2891 0.4388
C36 C 0.5568(3) 0.2129(2) 0.39423(18)
C37 C 0.5577(4) 0.1668(3) 0.3493(2)
H25 H 0.5040 0.1358 0.3391
H28 H 0.6396 0.0080 0.3583
C44 C 0.9798(4) 0.4402(3) 0.0118(3)
C47 C 0.9186(3) 0.61799(19) 0.01296(19)
C48 C 0.9981(4) 0.6579(2) 0.0005(2)
C49 C 0.9901(3) 0.7283(2) 0.0022(2)
C50 C 0.9032(3) 0.7579(2) 0.01520(18)
C51 C 0.8250(3) 0.7184(2) 0.0277(2)
H35 H 0.7667 0.7391 0.0366
C52 C 0.8318(3) 0.6482(2) 0.0273(2)
H36 H 0.7791 0.6215 0.0365
C53 C 0.8065(4) 0.8702(3) 0.0012(3)
C54 C 0.8367(4) 0.9358(2) 0.0125(3)
H38 H 0.7925 0.9731 0.0073
Mn7 Mn 0.28059(4) 0.15577(3) 0.46360(3)
Mn10 Mn 0.40116(4) 0.31295(3) 0.52502(2)
Mn2 Mn 0.78059(4) 0.34423(3) 0.96360(3)
N1 N 0.8738(3) 0.43787(18) 0.99553(17)
O9 O 0.5359(2) 0.30157(15) 0.59148(14)
O10 O 0.6416(2) 0.39142(15) 0.60170(14)
O11 O 0.9542(2) 0.09189(13) 0.98644(12)
O15 O 0.6649(4) 0.4128(2) 0.9177(3)
H1 H 0.6426 0.4399 0.9408
H2 H 0.6147 0.3917 0.8968
O16 O 0.9550(2) 0.16416(19) 0.71907(14)
C2 C 0.9956(3) 0.09458(19) 0.89131(17)
C3 C 0.9110(3) 0.13464(19) 0.86804(16)
H5 H 0.8642 0.1458 0.8916
C4 C 0.8938(3) 0.1586(2) 0.81123(19)
H6 H 0.8365 0.1856 0.7971
C5 C 0.9620(3) 0.1423(2) 0.77550(18)
C8 C 0.8699(3) 0.2060(3) 0.69509(19)
C10 C 0.8788(4) 0.2751(3) 0.6992(2)
H10 H 0.9396 0.2948 0.7191
C11 C 0.7969(3) 0.3157(2) 0.6736(2)
H11 H 0.8023 0.3629 0.6766
C12 C 0.7075(3) 0.2865(2) 0.64354(17)
C13 C 0.6982(4) 0.2163(2) 0.6405(2)
H12 H 0.6366 0.1965 0.6217
C14 C 0.7807(4) 0.1752(2) 0.6653(2)
H13 H 0.7761 0.1280 0.6621
C15 C 0.6210(3) 0.3303(2) 0.60976(17)
C46 C 0.8442(3) 0.5016(2) 0.9959(2)
H32 H 0.7756 0.5154 0.9870
H37 H 0.7401 0.8546 0.9865
Mn5 Mn 0.53648(4) 0.46872(3) 0.56445(2)
O18 O 0.9816(3) 0.24298(17) 0.96954(15)
O19 O 0.8963(3) 0.32457(18) 0.91310(15)
O22 O 0.7539(3) 0.18503(18) 0.96747(15)
O23 O 0.6788(2) 0.27009(15) 0.91265(14)
O3 O 0.5622(3) 0.99292(19) 0.24970(16)
O13 O 0.7539(3) 0.81497(18) 0.46747(15)
O14 O 0.6788(2) 0.72991(15) 0.41265(14)
C21 C 0.7351(4) 0.9886(2) 0.2297(2)
H16 H 0.7554 0.9563 0.2590
H17 H 0.8708 0.9927 0.2024
C23 C 0.5919(3) 0.9423(2) 0.2926(2)
C38 C 0.6975(3) 0.7915(2) 0.42233(18)
C39 C 0.6520(3) 0.8439(2) 0.37716(17)
C40 C 0.6070(4) 0.8254(2) 0.3208(2)
H26 H 0.5970 0.7795 0.3113
C41 C 0.5764(4) 0.8750(3) 0.2780(2)
H27 H 0.5458 0.8625 0.2400
C42 C 0.6329(4) 0.9620(2) 0.3486(2)
C43 C 0.6642(3) 0.9128(2) 0.39029(19)
H29 H 0.6943 0.9260 0.4282
Mn6 Mn 0.78059(4) 0.65577(3) 0.46360(3)
Mn8 Mn 0.90116(4) 0.81295(3) 0.52502(2)
Mn1 Mn 0.03648(4) 0.96872(3) 0.56445(2)
O12 O 0.0915(2) 0.96441(15) 0.47370(12)
C1 C 0.0162(3) 0.92687(18) 0.45308(16)
C6 C 0.0472(3) 0.8998(2) 0.29718(18)
H7 H 0.0920 0.9123 0.2728
C7 C 0.0644(3) 0.9224(2) 0.35350(19)
H8 H 0.1218 0.9493 0.3675
H9_2 H 0.0397 0.1374 0.5472
H30_2 H 0.0228 0.5977 0.5161
C45_2 C 0.0123(4) 0.4950(2) 0.5206(3)
H31_2 H 0.0802 0.4802 0.5312
H33 H 0.0562 0.3624 0.4910
H34 H 0.0436 0.2446 0.4946
O20_2 O 0.0359(2) 0.80157(15) 0.59148(14)
O21_2 O 0.1416(2) 0.89142(15) 0.60170(14)
O3_2 O 0.5622(3) 0.00708(19) 0.74970(16)
C21_2 C 0.7351(4) 0.0114(2) 0.7297(2)
H16_2 H 0.7554 0.0437 0.7590
H17_2 H 0.8708 0.0073 0.7024
C23_2 C 0.5919(3) 0.0577(2) 0.7926(2)
C38_2 C 0.6975(3) 0.2085(2) 0.92233(18)
C39_2 C 0.6520(3) 0.1561(2) 0.87716(17)
C40_2 C 0.6070(4) 0.1746(2) 0.8208(2)
H26_2 H 0.5970 0.2205 0.8113
C41_2 C 0.5764(4) 0.1250(3) 0.7780(2)
H27_2 H 0.5458 0.1375 0.7400
C42_2 C 0.6329(4) 0.0380(2) 0.8486(2)
C43_2 C 0.6642(3) 0.0872(2) 0.89029(19)
H29_2 H 0.6943 0.0740 0.9282
N5 N 0.9398(3) 0.06050(17) 0.53246(18)
Mn10_2 Mn 0.40116(4) 0.68705(3) 0.02502(2)
N1_2 N 0.8738(3) 0.56213(18) 0.49553(17)
N2_2 N 0.9248(3) 0.45492(16) 0.51058(16)
N3_2 N 0.8941(3) 0.16821(16) 0.51599(17)
O1_2 O 0.9380(2) 0.94808(16) 0.62395(14)
O2_2 O 0.8221(2) 0.87345(16) 0.57801(13)
O4_2 O 0.7084(2) 0.65352(14) 0.55010(13)
O5_2 O 0.8503(2) 0.71017(12) 0.54900(11)
O6_2 O 0.8019(3) 0.7881(2) 0.80608(15)
O7_2 O 0.4816(3) 0.74298(17) 0.96954(15)
O8_2 O 0.3963(3) 0.82457(18) 0.91310(15)
O9_2 O 0.5359(2) 0.69843(15) 0.09148(14)
O10_2 O 0.6416(2) 0.60858(15) 0.10170(14)
O11_2 O 0.9542(2) 0.90811(13) 0.48644(12)
O15_2 O 0.6649(4) 0.5872(2) 0.4177(3)
H1_2 H 0.6426 0.5601 0.4408
H2_2 H 0.6147 0.6083 0.3968
O16_2 O 0.9550(2) 0.83584(19) 0.21907(14)
C2_2 C 0.9956(3) 0.90542(19) 0.39131(17)
C3_2 C 0.9110(3) 0.86536(19) 0.36804(16)
H5_2 H 0.8642 0.8542 0.3916
C4_2 C 0.8938(3) 0.8414(2) 0.31123(19)
H6_2 H 0.8365 0.8144 0.2971
C5_2 C 0.9620(3) 0.8577(2) 0.27550(18)
C8_2 C 0.8699(3) 0.7940(3) 0.19509(19)
C9_2 C 0.9714(3) 0.1243(2) 0.5344(2)
C10_2 C 0.8788(4) 0.7249(3) 0.1992(2)
H10_2 H 0.9396 0.7052 0.2191
C11_2 C 0.7969(3) 0.6843(2) 0.1736(2)
H11_2 H 0.8023 0.6371 0.1766
C12_2 C 0.7075(3) 0.7135(2) 0.14354(17)
C13_2 C 0.6982(4) 0.7837(2) 0.1405(2)
H12_2 H 0.6366 0.8035 0.1217
C14_2 C 0.7807(4) 0.8248(2) 0.1653(2)
H13_2 H 0.7761 0.8720 0.1621
C15_2 C 0.6210(3) 0.6697(2) 0.10976(17)
C16_2 C 0.8510(3) 0.91846(19) 0.61546(17)
C17_2 C 0.7773(3) 0.93922(19) 0.65383(16)
C18_2 C 0.6787(3) 0.9125(2) 0.64607(19)
H14_2 H 0.6591 0.8784 0.6184
C19_2 C 0.6093(4) 0.9355(2) 0.6785(2)
H15_2 H 0.5435 0.9167 0.6727
C20_2 C 0.6369(3) 0.9861(2) 0.7196(2)
C22_2 C 0.8048(4) 0.9888(2) 0.6962(2)
C24_2 C 0.7188(4) 0.7419(3) 0.8783(2)
H18_2 H 0.7729 0.7111 0.8883
C25_2 C 0.7181(4) 0.7871(3) 0.8344(2)
C26_2 C 0.6388(4) 0.8330(3) 0.8195(2)
H19_2 H 0.6396 0.8640 0.7893
C27_2 C 0.7899(3) 0.7625(2) 0.74954(19)
C28_2 C 0.7004(3) 0.7327(2) 0.71931(19)
H20_2 H 0.6427 0.7289 0.7364
C29_2 C 0.6981(3) 0.7084(2) 0.6628(2)
H21_2 H 0.6385 0.6878 0.6423
C30_2 C 0.7822(3) 0.71440(19) 0.63700(17)
C31_2 C 0.8728(3) 0.7447(2) 0.66859(18)
H22_2 H 0.9304 0.7490 0.6514
C32_2 C 0.8765(3) 0.7678(3) 0.72465(19)
H23_2 H 0.9369 0.7869 0.7458
C33_2 C 0.7799(3) 0.69135(18) 0.57546(17)
C34_2 C 0.4705(3) 0.7847(2) 0.92774(19)
C35_2 C 0.6368(3) 0.7419(2) 0.9086(2)
H24_2 H 0.6369 0.7109 0.9388
C36_2 C 0.5568(3) 0.7871(2) 0.89423(18)
C37_2 C 0.5577(4) 0.8332(3) 0.8493(2)
H25_2 H 0.5040 0.8642 0.8391
H28_2 H 0.6396 0.9920 0.8583
C44_2 C 0.9798(4) 0.5598(3) 0.5118(3)
C46_2 C 0.8442(3) 0.4984(2) 0.4959(2)
H32_2 H 0.7756 0.4846 0.4870
C47_2 C 0.9186(3) 0.38201(19) 0.51296(19)
C48_2 C 0.9981(4) 0.3421(2) 0.5005(2)
C49_2 C 0.9901(3) 0.2717(2) 0.5022(2)
C50_2 C 0.9032(3) 0.2421(2) 0.51520(18)
C51_2 C 0.8250(3) 0.2816(2) 0.5277(2)
H35_2 H 0.7667 0.2609 0.5366
C52_2 C 0.8318(3) 0.3518(2) 0.5273(2)
H36_2 H 0.7791 0.3785 0.5365
C53_2 C 0.8065(4) 0.1298(3) 0.5012(3)
H37_2 H 0.7401 0.1454 0.4865
C54_2 C 0.8367(4) 0.0642(2) 0.5125(3)
H38_2 H 0.7925 0.0269 0.5073
Mn5_2 Mn 0.53648(4) 0.53128(3) 0.06445(2)
Mn7_2 Mn 0.28059(4) 0.84423(3) 0.96360(3)
O18_2 O 0.9816(3) 0.75702(17) 0.46954(15)
O19_2 O 0.8963(3) 0.67543(18) 0.41310(15)
N2_3 N 0.4248(3) 0.04508(16) 0.01058(16)
N3_3 N 0.3941(3) 0.33179(16) 0.01599(17)
N4_2 N 0.4398(3) 0.43950(17) 0.03246(18)
C9_3 C 0.4714(3) 0.3757(2) 0.0344(2)
H9_3 H 0.5397 0.3626 0.0472
C45_3 C 0.5123(4) 0.0050(2) 0.0206(3)
H31_3 H 0.5802 0.0198 0.0312
C47_3 C 0.4186(3) 0.11799(19) 0.01296(19)
C48_3 C 0.4981(4) 0.1579(2) 0.0005(2)
C49_3 C 0.4901(3) 0.2283(2) 0.0022(2)
C50_3 C 0.4032(3) 0.2579(2) 0.01520(18)
C51_3 C 0.3250(3) 0.2184(2) 0.0277(2)
H35_3 H 0.2667 0.2391 0.0366
C52_3 C 0.3318(3) 0.1482(2) 0.0273(2)
H36_3 H 0.2791 0.1215 0.0365
C53_3 C 0.3065(4) 0.3702(3) 0.0012(3)
C54_3 C 0.3367(4) 0.4358(2) 0.0125(3)
H38_3 H 0.2925 0.4731 0.0073
O1_3 O 0.4380(2) 0.55192(16) 0.12395(14)
O2_3 O 0.3221(2) 0.62655(16) 0.07801(13)
O3_3 O 0.0622(3) 0.49292(19) 0.24970(16)
O4_3 O 0.2084(2) 0.84648(14) 0.05010(13)
O5_3 O 0.3503(2) 0.78983(12) 0.04900(11)
O6_3 O 0.3019(3) 0.7119(2) 0.30608(15)
O13_2 O 0.2539(3) 0.31497(18) 0.46747(15)
O14_2 O 0.1788(2) 0.22991(15) 0.41265(14)
O17 O 0.6592(3) 0.46451(16) 0.10461(15)
H3 H 0.6594 0.4303 0.0844
H4 H 0.7052 0.4705 0.1378
C16_3 C 0.3510(3) 0.58154(19) 0.11546(17)
C17_3 C 0.2773(3) 0.56078(19) 0.15383(16)
C18_3 C 0.1787(3) 0.5875(2) 0.14607(19)
H14_3 H 0.1591 0.6216 0.1184
C19_3 C 0.1093(4) 0.5645(2) 0.1785(2)
H15_3 H 0.0435 0.5833 0.1727
C20_3 C 0.1369(3) 0.5139(2) 0.2196(2)
C21_3 C 0.2351(4) 0.4886(2) 0.2297(2)
H16_3 H 0.2554 0.4563 0.2590
C22_3 C 0.3048(4) 0.5112(2) 0.1962(2)
H17_3 H 0.3708 0.4927 0.2024
C23_3 C 0.0919(3) 0.4423(2) 0.2926(2)
C24_3 C 0.2188(4) 0.7581(3) 0.3783(2)
H18_3 H 0.2729 0.7889 0.3883
C25_3 C 0.2181(4) 0.7129(3) 0.3344(2)
C26_3 C 0.1388(4) 0.6670(3) 0.3195(2)
H19_3 H 0.1396 0.6360 0.2893
C27_3 C 0.2899(3) 0.7375(2) 0.24954(19)
C28_3 C 0.2004(3) 0.7673(2) 0.21931(19)
H20_3 H 0.1427 0.7711 0.2364
C29_3 C 0.1981(3) 0.7916(2) 0.1628(2)
H21_3 H 0.1385 0.8122 0.1423
C30_3 C 0.2822(3) 0.78560(19) 0.13700(17)
C31_3 C 0.3728(3) 0.7553(2) 0.16859(18)
H22_3 H 0.4304 0.7510 0.1514
C32_3 C 0.3765(3) 0.7322(3) 0.22465(19)
H23_3 H 0.4369 0.7131 0.2458
C33_3 C 0.2799(3) 0.80865(18) 0.07546(17)
C35_3 C 0.1368(3) 0.7581(2) 0.4086(2)
H24_3 H 0.1369 0.7891 0.4388
C36_3 C 0.0568(3) 0.7129(2) 0.39423(18)
C37_3 C 0.0577(4) 0.6668(3) 0.3493(2)
H25_3 H 0.0040 0.6358 0.3391
C38_3 C 0.1975(3) 0.2915(2) 0.42233(18)
C39_3 C 0.1520(3) 0.3439(2) 0.37716(17)
C40_3 C 0.1070(4) 0.3254(2) 0.3208(2)
H26_3 H 0.0970 0.2795 0.3113
C41_3 C 0.0764(4) 0.3750(3) 0.2780(2)
H27_3 H 0.0458 0.3625 0.2400
C42_3 C 0.1329(4) 0.4620(2) 0.3486(2)
H28_3 H 0.1396 0.5080 0.3583
C43_3 C 0.1642(3) 0.4128(2) 0.39029(19)
H29_3 H 0.1943 0.4260 0.4282
C44_3 C 0.4798(4) 0.9402(3) 0.0118(3)
H30_3 H 0.5228 0.9023 0.0161
N1_3 N 0.3738(3) 0.93787(18) 0.99553(17)
O11_3 O 0.4542(2) 0.59189(13) 0.98644(12)
O12_2 O 0.5915(2) 0.53559(15) 0.97370(12)
O15_3 O 0.1649(4) 0.9128(2) 0.9177(3)
H1_3 H 0.1426 0.9399 0.9408
H2_3 H 0.1147 0.8917 0.8968
O16_3 O 0.4550(2) 0.66416(19) 0.71907(14)
C1_2 C 0.5162(3) 0.57313(18) 0.95308(16)
C2_3 C 0.4956(3) 0.59458(19) 0.89131(17)
C3_3 C 0.4110(3) 0.63464(19) 0.86804(16)
H5_3 H 0.3642 0.6458 0.8916
C4_3 C 0.3938(3) 0.6586(2) 0.81123(19)
H6_3 H 0.3365 0.6856 0.7971
C5_3 C 0.4620(3) 0.6423(2) 0.77550(18)
C6_2 C 0.5472(3) 0.6002(2) 0.79718(18)
H7_2 H 0.5920 0.5877 0.7728
C7_2 C 0.5644(3) 0.5776(2) 0.85350(19)
H8_2 H 0.6218 0.5507 0.8675
C8_3 C 0.3699(3) 0.7060(3) 0.69509(19)
C10_3 C 0.3788(4) 0.7751(3) 0.6992(2)
H10_3 H 0.4396 0.7948 0.7191
C11_3 C 0.2969(3) 0.8157(2) 0.6736(2)
H11_3 H 0.3023 0.8629 0.6766
C12_3 C 0.2075(3) 0.7865(2) 0.64354(17)
C13_3 C 0.1982(4) 0.7163(2) 0.6405(2)
H12_3 H 0.1366 0.6965 0.6217
C14_3 C 0.2807(4) 0.6752(2) 0.6653(2)
H13_3 H 0.2761 0.6280 0.6621
C15_3 C 0.1210(3) 0.8303(2) 0.60976(17)
O22_2 O 0.2539(3) 0.68503(18) 0.96747(15)
O23_2 O 0.1788(2) 0.77009(15) 0.91265(14)
C34_3 C 0.9705(3) 0.7153(2) 0.42774(19)
N1_4 N 0.3738(3) 0.06213(18) 0.49553(17)
O1_4 O 0.4380(2) 0.44808(16) 0.62395(14)
O2_4 O 0.3221(2) 0.37345(16) 0.57801(13)
O3_4 O 0.0622(3) 0.50708(19) 0.74970(16)
O4_4 O 0.2084(2) 0.15352(14) 0.55010(13)
O5_4 O 0.3503(2) 0.21017(12) 0.54900(11)
O6_4 O 0.3019(3) 0.2881(2) 0.80608(15)
O11_4 O 0.4542(2) 0.40811(13) 0.48644(12)
O12_3 O 0.5915(2) 0.46441(15) 0.47370(12)
O15_4 O 0.1649(4) 0.0872(2) 0.4177(3)
H1_4 H 0.1426 0.0601 0.4408
H2_4 H 0.1147 0.1083 0.3968
O16_4 O 0.4550(2) 0.33584(19) 0.21907(14)
O17_2 O 0.6592(3) 0.53549(16) 0.60461(15)
H3_2 H 0.6594 0.5697 0.5844
H4_2 H 0.7052 0.5295 0.6378
C1_3 C 0.5162(3) 0.42687(18) 0.45308(16)
C2_4 C 0.4956(3) 0.40542(19) 0.39131(17)
C3_4 C 0.4110(3) 0.36536(19) 0.36804(16)
H5_4 H 0.3642 0.3542 0.3916
C4_4 C 0.3938(3) 0.3414(2) 0.31123(19)
H6_4 H 0.3365 0.3144 0.2971
C5_4 C 0.4620(3) 0.3577(2) 0.27550(18)
C6_3 C 0.5472(3) 0.3998(2) 0.29718(18)
H7_3 H 0.5920 0.4123 0.2728
C7_3 C 0.5644(3) 0.4224(2) 0.35350(19)
H8_3 H 0.6218 0.4493 0.3675
C8_4 C 0.3699(3) 0.2940(3) 0.19509(19)
C10_4 C 0.3788(4) 0.2249(3) 0.1992(2)
H10_4 H 0.4396 0.2052 0.2191
C11_4 C 0.2969(3) 0.1843(2) 0.1736(2)
H11_4 H 0.3023 0.1371 0.1766
C12_4 C 0.2075(3) 0.2135(2) 0.14354(17)
C13_4 C 0.1982(4) 0.2837(2) 0.1405(2)
H12_4 H 0.1366 0.3035 0.1217
C14_4 C 0.2807(4) 0.3248(2) 0.1653(2)
H13_4 H 0.2761 0.3720 0.1621
C15_4 C 0.1210(3) 0.1697(2) 0.10976(17)
C16_4 C 0.3510(3) 0.41846(19) 0.61546(17)
C17_4 C 0.2773(3) 0.43922(19) 0.65383(16)
C18_4 C 0.1787(3) 0.4125(2) 0.64607(19)
H14_4 H 0.1591 0.3784 0.6184
C19_4 C 0.1093(4) 0.4355(2) 0.6785(2)
H15_4 H 0.0435 0.4167 0.6727
C20_4 C 0.1369(3) 0.4861(2) 0.7196(2)
C21_4 C 0.2351(4) 0.5114(2) 0.7297(2)
H16_4 H 0.2554 0.5437 0.7590
C22_4 C 0.3048(4) 0.4888(2) 0.6962(2)
H17_4 H 0.3708 0.5073 0.7024
C23_4 C 0.0919(3) 0.5577(2) 0.7926(2)
C24_4 C 0.2188(4) 0.2419(3) 0.8783(2)
H18_4 H 0.2729 0.2111 0.8883
C25_4 C 0.2181(4) 0.2871(3) 0.8344(2)
C26_4 C 0.1388(4) 0.3330(3) 0.8195(2)
H19_4 H 0.1396 0.3640 0.7893
C27_4 C 0.2899(3) 0.2625(2) 0.74954(19)
C28_4 C 0.2004(3) 0.2327(2) 0.71931(19)
H20_4 H 0.1427 0.2289 0.7364
C29_4 C 0.1981(3) 0.2084(2) 0.6628(2)
H21_4 H 0.1385 0.1878 0.6423
C30_4 C 0.2822(3) 0.21440(19) 0.63700(17)
C31_4 C 0.3728(3) 0.2447(2) 0.66859(18)
H22_4 H 0.4304 0.2490 0.6514
C32_4 C 0.3765(3) 0.2678(3) 0.72465(19)
H23_4 H 0.4369 0.2869 0.7458
C33_4 C 0.2799(3) 0.19135(18) 0.57546(17)
C35_4 C 0.1368(3) 0.2419(2) 0.9086(2)
H24_4 H 0.1369 0.2109 0.9388
C36_4 C 0.0568(3) 0.2871(2) 0.89423(18)
C37_4 C 0.0577(4) 0.3332(3) 0.8493(2)
H25_4 H 0.0040 0.3642 0.8391
C38_4 C 0.1975(3) 0.7085(2) 0.92233(18)
C39_4 C 0.1520(3) 0.6561(2) 0.87716(17)
C40_4 C 0.1070(4) 0.6746(2) 0.8208(2)
H26_4 H 0.0970 0.7205 0.8113
C41_4 C 0.0764(4) 0.6250(3) 0.7780(2)
H27_4 H 0.0458 0.6375 0.7400
C42_4 C 0.1329(4) 0.5380(2) 0.8486(2)
H28_4 H 0.1396 0.4920 0.8583
C43_4 C 0.1642(3) 0.5872(2) 0.89029(19)
H29_4 H 0.1943 0.5740 0.9282
C44_4 C 0.4798(4) 0.0598(3) 0.5118(3)
H30_4 H 0.5228 0.0977 0.5161
N5_2 N 0.4398(3) 0.56050(17) 0.53246(18)
N2_4 N 0.4248(3) 0.95492(16) 0.51058(16)
N3_4 N 0.3941(3) 0.66821(16) 0.51599(17)
C9_4 C 0.4714(3) 0.6243(2) 0.5344(2)
H9_4 H 0.5397 0.6374 0.5472
C45_4 C 0.5123(4) 0.9950(2) 0.5206(3)
H31_4 H 0.5802 0.9802 0.5312
C46_3 C 0.3442(3) 0.9984(2) 0.4959(2)
H32_3 H 0.2756 0.9846 0.4870
C47_4 C 0.4186(3) 0.88201(19) 0.51296(19)
C48_4 C 0.4981(4) 0.8421(2) 0.5005(2)
H33_2 H 0.5562 0.8624 0.4910
C49_4 C 0.4901(3) 0.7717(2) 0.5022(2)
H34_2 H 0.5436 0.7446 0.4946
C50_4 C 0.4032(3) 0.7421(2) 0.51520(18)
C51_4 C 0.3250(3) 0.7816(2) 0.5277(2)
H35_4 H 0.2667 0.7609 0.5366
C52_4 C 0.3318(3) 0.8518(2) 0.5273(2)
H36_4 H 0.2791 0.8785 0.5365
C53_4 C 0.3065(4) 0.6298(3) 0.5012(3)
H37_3 H 0.2401 0.6454 0.4865
C54_4 C 0.3367(4) 0.5642(2) 0.5125(3)
H38_4 H 0.2925 0.5269 0.5073
C34_4 C 0.9705(3) 0.2847(2) 0.92774(19)
O12_4 O 0.0915(2) 0.03559(15) 0.97370(12)
C1_4 C 0.0162(3) 0.07313(18) 0.95308(16)
C6_4 C 0.0472(3) 0.1002(2) 0.79718(18)
H7_4 H 0.0920 0.0877 0.7728
C7_4 C 0.0644(3) 0.0776(2) 0.85350(19)
H8_4 H 0.1218 0.0507 0.8675
H33_3 H 0.0562 0.6376 0.9910
H34_3 H 0.0436 0.7554 0.9946
O17_3 O 0.1592(3) 0.96451(16) 0.10461(15)
H3_3 H 0.1594 0.9303 0.0844
H4_3 H 0.2052 0.9705 0.1378
O17_4 O 0.1592(3) 0.03549(16) 0.60461(15)
H3_4 H 0.1594 0.0697 0.5844
H4_4 H 0.2052 0.0295 0.6378
C46_4 C 0.3442(3) 0.0016(2) 0.9959(2)
H32_4 H 0.2756 0.0154 0.9870
H33_4 H 0.5562 0.1376 0.9910
H34_4 H 0.5436 0.2554 0.9946
H37_4 H 0.2401 0.3546 0.9865
loop_
_geom_bond_atom_site_label_1
_geom_bond_atom_site_label_2
_geom_bond_site_symmetry_1
_geom_bond_site_symmetry_2
H31 C45 1_555 1_555
O21 Mn4 1_555 1_555
Mn3 O2 1_555 1_555
N3 C9 1_555 1_555
N4 C9 1_555 1_555
O1 C16 1_555 1_555
O2 C16 1_555 1_555
O6 C25 1_555 1_555
O7 C34 1_555 1_555
O8 C34 1_555 1_555
C16 C17 1_555 1_555
C17 C18 1_555 1_555
C18 H14 1_555 1_555
C19 C18 1_555 1_555
H15 C19 1_555 1_555
C20 C19 1_555 1_555
C22 C17 1_555 1_555
C24 H18 1_555 1_555
C25 C24 1_555 1_555
C26 C25 1_555 1_555
H19 C26 1_555 1_555
C27 O6 1_555 1_555
C28 C27 1_555 1_555
H20 C28 1_555 1_555
C29 C28 1_555 1_555
H21 C29 1_555 1_555
C30 C29 1_555 1_555
C31 C30 1_555 1_555
H22 C31 1_555 1_555
C32 C27 1_555 1_555
H23 C32 1_555 1_555
C33 O4 1_555 1_555
C34 C36 1_555 1_555
C35 C24 1_555 1_555
H24 C35 1_555 1_555
C36 C35 1_555 1_555
C37 C26 1_555 1_555
H25 C37 1_555 1_555
C47 N2 1_555 1_555
C48 C47 1_555 1_555
C49 C48 1_555 1_555
C50 N3 1_555 1_555
C51 C50 1_555 1_555
H35 C51 1_555 1_555
C52 C47 1_555 1_555
H36 C52 1_555 1_555
C53 N3 1_555 1_555
C54 N4 1_555 1_555
H38 C54 1_555 1_555
Mn7 O8 1_555 1_555
Mn10 O7 1_555 1_555
Mn3 O5 1_555 1_555
O5 C33 1_555 1_555
C30 C33 1_555 1_555
C31 C32 1_555 1_555
C36 C37 1_555 1_555
C49 C50 1_555 1_555
C51 C52 1_555 1_555
C53 C54 1_555 1_555
Mn2 N1 1_555 1_555
O9 C15 1_555 1_555
O10 C15 1_555 1_555
O15 Mn2 1_555 1_555
H1 O15 1_555 1_555
H2 O15 1_555 1_555
O16 C5 1_555 1_555
C3 C2 1_555 1_555
H5 C3 1_555 1_555
C4 C3 1_555 1_555
H6 C4 1_555 1_555
C5 C4 1_555 1_555
C8 O16 1_555 1_555
C10 C8 1_555 1_555
H10 C10 1_555 1_555
C11 C10 1_555 1_555
H11 C11 1_555 1_555
C12 C11 1_555 1_555
C13 C12 1_555 1_555
H12 C13 1_555 1_555
C14 C8 1_555 1_555
H13 C14 1_555 1_555
C15 C12 1_555 1_555
C46 N1 1_555 1_555
H32 C46 1_555 1_555
Mn5 O10 1_555 1_555
Mn10 O9 1_555 1_555
O19 Mn2 1_555 1_555
O23 Mn2 1_555 1_555
C13 C14 1_555 1_555
O13 C38 1_555 1_555
O14 C38 1_555 1_555
H16 C21 1_555 1_555
C23 O3 1_555 1_555
C38 C39 1_555 1_555
C39 C40 1_555 1_555
C40 H26 1_555 1_555
C41 C23 1_555 1_555
H27 C41 1_555 1_555
C42 C23 1_555 1_555
C43 C39 1_555 1_555
H29 C43 1_555 1_555
Mn6 O14 1_555 1_555
Mn8 O13 1_555 1_555
C40 C41 1_555 1_555
C42 C43 1_555 1_555
O12 Mn1 1_555 1_555
H7 C6 1_555 1_555
H8 C7 1_555 1_555
H31_2 C45_2 1_555 1_555
O21_2 Mn1 1_555 1_555
O12 C1 1_555 1_555
C6 C7 1_555 1_555
O22 C38_2 1_555 1_555
O23 C38_2 1_555 1_555
H16_2 C21_2 1_555 1_555
C23_2 O3_2 1_555 1_555
C38_2 C39_2 1_555 1_555
C39_2 C40_2 1_555 1_555
C40_2 H26_2 1_555 1_555
C41_2 C23_2 1_555 1_555
H27_2 C41_2 1_555 1_555
C42_2 C23_2 1_555 1_555
C43_2 C39_2 1_555 1_555
H29_2 C43_2 1_555 1_555
C40_2 C41_2 1_555 1_555
C42_2 C43_2 1_555 1_555
Mn6 N1_2 1_555 1_555
Mn8 O2_2 1_555 1_555
N1_2 C44_2 1_555 1_555
N3_2 C9_2 1_555 1_555
N5 C9_2 1_555 1_555
O1_2 C16_2 1_555 1_555
O2_2 C16_2 1_555 1_555
O4_2 Mn6 1_555 1_555
O5_2 Mn6 1_555 1_555
O6_2 C25_2 1_555 1_555
O7_2 C34_2 1_555 1_555
O8_2 C34_2 1_555 1_555
O9_2 C15_2 1_555 1_555
O10_2 C15_2 1_555 1_555
O15_2 Mn6 1_555 1_555
H1_2 O15_2 1_555 1_555
H2_2 O15_2 1_555 1_555
O16_2 C5_2 1_555 1_555
C3_2 C2_2 1_555 1_555
H5_2 C3_2 1_555 1_555
C4_2 C3_2 1_555 1_555
H6_2 C4_2 1_555 1_555
C5_2 C4_2 1_555 1_555
C8_2 O16_2 1_555 1_555
C10_2 C8_2 1_555 1_555
H10_2 C10_2 1_555 1_555
C11_2 C10_2 1_555 1_555
H11_2 C11_2 1_555 1_555
C12_2 C11_2 1_555 1_555
C13_2 C12_2 1_555 1_555
H12_2 C13_2 1_555 1_555
C14_2 C8_2 1_555 1_555
H13_2 C14_2 1_555 1_555
C15_2 C12_2 1_555 1_555
C16_2 C17_2 1_555 1_555
C17_2 C18_2 1_555 1_555
C18_2 H14_2 1_555 1_555
C19_2 C18_2 1_555 1_555
H15_2 C19_2 1_555 1_555
C20_2 C19_2 1_555 1_555
C22_2 C17_2 1_555 1_555
C24_2 H18_2 1_555 1_555
C25_2 C24_2 1_555 1_555
C26_2 C25_2 1_555 1_555
H19_2 C26_2 1_555 1_555
C27_2 O6_2 1_555 1_555
C28_2 C27_2 1_555 1_555
H20_2 C28_2 1_555 1_555
C29_2 C28_2 1_555 1_555
H21_2 C29_2 1_555 1_555
C30_2 C29_2 1_555 1_555
C31_2 C30_2 1_555 1_555
H22_2 C31_2 1_555 1_555
C32_2 C27_2 1_555 1_555
H23_2 C32_2 1_555 1_555
C33_2 O4_2 1_555 1_555
C34_2 C36_2 1_555 1_555
C35_2 C24_2 1_555 1_555
H24_2 C35_2 1_555 1_555
C36_2 C35_2 1_555 1_555
C37_2 C26_2 1_555 1_555
H25_2 C37_2 1_555 1_555
C46_2 N1_2 1_555 1_555
H32_2 C46_2 1_555 1_555
C47_2 N2_2 1_555 1_555
C48_2 C47_2 1_555 1_555
C49_2 C48_2 1_555 1_555
C50_2 N3_2 1_555 1_555
C51_2 C50_2 1_555 1_555
H35_2 C51_2 1_555 1_555
C52_2 C47_2 1_555 1_555
H36_2 C52_2 1_555 1_555
C53_2 N3_2 1_555 1_555
H37_2 C53_2 1_555 1_555
C54_2 N5 1_555 1_555
H38_2 C54_2 1_555 1_555
Mn5_2 O10_2 1_555 1_555
Mn7_2 O8_2 1_555 1_555
Mn10_2 O9_2 1_555 1_555
O18_2 Mn8 1_555 1_555
O19_2 Mn6 1_555 1_555
Mn8 O5_2 1_555 1_555
Mn8 O11_2 1_555 1_555
N2_2 C46_2 1_555 1_555
O5_2 C33_2 1_555 1_555
C13_2 C14_2 1_555 1_555
C30_2 C33_2 1_555 1_555
C31_2 C32_2 1_555 1_555
C36_2 C37_2 1_555 1_555
C49_2 C50_2 1_555 1_555
C51_2 C52_2 1_555 1_555
C53_2 C54_2 1_555 1_555
N2_3 C45_3 1_555 1_555
N3_3 C9_3 1_555 1_555
N4_2 C9_3 1_555 1_555
C9_3 H9_3 1_555 1_555
H31_3 C45_3 1_555 1_555
C47_3 N2_3 1_555 1_555
C48_3 C47_3 1_555 1_555
C49_3 C48_3 1_555 1_555
C50_3 N3_3 1_555 1_555
C51_3 C50_3 1_555 1_555
H35_3 C51_3 1_555 1_555
C52_3 C47_3 1_555 1_555
H36_3 C52_3 1_555 1_555
C53_3 N3_3 1_555 1_555
C54_3 N4_2 1_555 1_555
H38_3 C54_3 1_555 1_555
Mn5_2 N4_2 1_555 1_555
C49_3 C50_3 1_555 1_555
C51_3 C52_3 1_555 1_555
C53_3 C54_3 1_555 1_555
Mn5_2 O1_3 1_555 1_555
Mn10_2 O2_3 1_555 1_555
O1_3 C16_3 1_555 1_555
O2_3 C16_3 1_555 1_555
O3_3 C20_3 1_555 1_555
O6_3 C25_3 1_555 1_555
O13_2 C38_3 1_555 1_555
O14_2 C38_3 1_555 1_555
O17 Mn5_2 1_555 1_555
H3 O17 1_555 1_555
H4 O17 1_555 1_555
C16_3 C17_3 1_555 1_555
C17_3 C18_3 1_555 1_555
C18_3 H14_3 1_555 1_555
C19_3 C18_3 1_555 1_555
H15_3 C19_3 1_555 1_555
C20_3 C19_3 1_555 1_555
C21_3 C20_3 1_555 1_555
H16_3 C21_3 1_555 1_555
C22_3 C17_3 1_555 1_555
H17_3 C22_3 1_555 1_555
C23_3 O3_3 1_555 1_555
C24_3 H18_3 1_555 1_555
C25_3 C24_3 1_555 1_555
C26_3 C25_3 1_555 1_555
H19_3 C26_3 1_555 1_555
C27_3 O6_3 1_555 1_555
C28_3 C27_3 1_555 1_555
H20_3 C28_3 1_555 1_555
C29_3 C28_3 1_555 1_555
H21_3 C29_3 1_555 1_555
C30_3 C29_3 1_555 1_555
C31_3 C30_3 1_555 1_555
H22_3 C31_3 1_555 1_555
C32_3 C27_3 1_555 1_555
H23_3 C32_3 1_555 1_555
C33_3 O4_3 1_555 1_555
C35_3 C24_3 1_555 1_555
H24_3 C35_3 1_555 1_555
C36_3 C35_3 1_555 1_555
C37_3 C26_3 1_555 1_555
H25_3 C37_3 1_555 1_555
C38_3 C39_3 1_555 1_555
C39_3 C40_3 1_555 1_555
C40_3 H26_3 1_555 1_555
C41_3 C23_3 1_555 1_555
H27_3 C41_3 1_555 1_555
C42_3 C23_3 1_555 1_555
H28_3 C42_3 1_555 1_555
C43_3 C39_3 1_555 1_555
H29_3 C43_3 1_555 1_555
C44_3 H30_3 1_555 1_555
Mn7 O14_2 1_555 1_555
Mn10 O13_2 1_555 1_555
Mn10_2 O5_3 1_555 1_555
O5_3 C33_3 1_555 1_555
C21_3 C22_3 1_555 1_555
C30_3 C33_3 1_555 1_555
C31_3 C32_3 1_555 1_555
C36_3 C37_3 1_555 1_555
C40_3 C41_3 1_555 1_555
C42_3 C43_3 1_555 1_555
Mn7_2 N1_3 1_555 1_555
O20_2 C15_3 1_555 1_555
O21_2 C15_3 1_555 1_555
O15_3 Mn7_2 1_555 1_555
H1_3 O15_3 1_555 1_555
H2_3 O15_3 1_555 1_555
O16_3 C5_3 1_555 1_555
C1_2 O11_3 1_555 1_555
C2_3 C1_2 1_555 1_555
C3_3 C2_3 1_555 1_555
H5_3 C3_3 1_555 1_555
C4_3 C3_3 1_555 1_555
H6_3 C4_3 1_555 1_555
C5_3 C4_3 1_555 1_555
C6_2 C5_3 1_555 1_555
H7_2 C6_2 1_555 1_555
C7_2 C2_3 1_555 1_555
H8_2 C7_2 1_555 1_555
C8_3 O16_3 1_555 1_555
C10_3 C8_3 1_555 1_555
H10_3 C10_3 1_555 1_555
C11_3 C10_3 1_555 1_555
H11_3 C11_3 1_555 1_555
C12_3 C11_3 1_555 1_555
C13_3 C12_3 1_555 1_555
H12_3 C13_3 1_555 1_555
C14_3 C8_3 1_555 1_555
H13_3 C14_3 1_555 1_555
C15_3 C12_3 1_555 1_555
O23_2 Mn7_2 1_555 1_555
O12_2 C1_2 1_555 1_555
C6_2 C7_2 1_555 1_555
C13_3 C14_3 1_555 1_555
O18_2 C34_3 1_555 1_555
O19_2 C34_3 1_555 1_555
Mn5 O1_4 1_555 1_555
Mn7 N1_4 1_555 1_555
Mn10 O2_4 1_555 1_555
N1_4 C44_4 1_555 1_555
O1_4 C16_4 1_555 1_555
O2_4 C16_4 1_555 1_555
O3_4 C20_4 1_555 1_555
O4_4 Mn7 1_555 1_555
O5_4 Mn7 1_555 1_555
O6_4 C25_4 1_555 1_555
O20 C15_4 1_555 1_555
O21 C15_4 1_555 1_555
O11_4 Mn5 1_555 1_555
O12_3 Mn5 1_555 1_555
O22_2 C38_4 1_555 1_555
O23_2 C38_4 1_555 1_555
O15_4 Mn7 1_555 1_555
H1_4 O15_4 1_555 1_555
H2_4 O15_4 1_555 1_555
O16_4 C5_4 1_555 1_555
O17_2 Mn5 1_555 1_555
H3_2 O17_2 1_555 1_555
H4_2 O17_2 1_555 1_555
C1_3 O11_4 1_555 1_555
C2_4 C1_3 1_555 1_555
C3_4 C2_4 1_555 1_555
H5_4 C3_4 1_555 1_555
C4_4 C3_4 1_555 1_555
H6_4 C4_4 1_555 1_555
C5_4 C4_4 1_555 1_555
C6_3 C5_4 1_555 1_555
H7_3 C6_3 1_555 1_555
C7_3 C2_4 1_555 1_555
H8_3 C7_3 1_555 1_555
C8_4 O16_4 1_555 1_555
C10_4 C8_4 1_555 1_555
H10_4 C10_4 1_555 1_555
C11_4 C10_4 1_555 1_555
H11_4 C11_4 1_555 1_555
C12_4 C11_4 1_555 1_555
C13_4 C12_4 1_555 1_555
H12_4 C13_4 1_555 1_555
C14_4 C8_4 1_555 1_555
H13_4 C14_4 1_555 1_555
C15_4 C12_4 1_555 1_555
C16_4 C17_4 1_555 1_555
C17_4 C18_4 1_555 1_555
C18_4 H14_4 1_555 1_555
C19_4 C18_4 1_555 1_555
H15_4 C19_4 1_555 1_555
C20_4 C19_4 1_555 1_555
C21_4 C20_4 1_555 1_555
H16_4 C21_4 1_555 1_555
C22_4 C17_4 1_555 1_555
H17_4 C22_4 1_555 1_555
C23_4 O3_4 1_555 1_555
C24_4 H18_4 1_555 1_555
C25_4 C24_4 1_555 1_555
C26_4 C25_4 1_555 1_555
H19_4 C26_4 1_555 1_555
C27_4 O6_4 1_555 1_555
C28_4 C27_4 1_555 1_555
H20_4 C28_4 1_555 1_555
C29_4 C28_4 1_555 1_555
H21_4 C29_4 1_555 1_555
C30_4 C29_4 1_555 1_555
C31_4 C30_4 1_555 1_555
H22_4 C31_4 1_555 1_555
C32_4 C27_4 1_555 1_555
H23_4 C32_4 1_555 1_555
C33_4 O4_4 1_555 1_555
C35_4 C24_4 1_555 1_555
H24_4 C35_4 1_555 1_555
C36_4 C35_4 1_555 1_555
C37_4 C26_4 1_555 1_555
H25_4 C37_4 1_555 1_555
C38_4 C39_4 1_555 1_555
C39_4 C40_4 1_555 1_555
C40_4 H26_4 1_555 1_555
C41_4 C23_4 1_555 1_555
H27_4 C41_4 1_555 1_555
C42_4 C23_4 1_555 1_555
H28_4 C42_4 1_555 1_555
C43_4 C39_4 1_555 1_555
H29_4 C43_4 1_555 1_555
C44_4 H30_4 1_555 1_555
N5_2 Mn5 1_555 1_555
Mn10 O5_4 1_555 1_555
Mn10 O11_4 1_555 1_555
O5_4 C33_4 1_555 1_555
O12_3 C1_3 1_555 1_555
C6_3 C7_3 1_555 1_555
C13_4 C14_4 1_555 1_555
C21_4 C22_4 1_555 1_555
C30_4 C33_4 1_555 1_555
C31_4 C32_4 1_555 1_555
C36_4 C37_4 1_555 1_555
C40_4 C41_4 1_555 1_555
C42_4 C43_4 1_555 1_555
N2_4 C45_4 1_555 1_555
N3_4 C9_4 1_555 1_555
N5_2 C9_4 1_555 1_555
C9_4 H9_4 1_555 1_555
H31_4 C45_4 1_555 1_555
H32_3 C46_3 1_555 1_555
C47_4 N2_4 1_555 1_555
C48_4 C47_4 1_555 1_555
H33_2 C48_4 1_555 1_555
C49_4 C48_4 1_555 1_555
H34_2 C49_4 1_555 1_555
C50_4 N3_4 1_555 1_555
C51_4 C50_4 1_555 1_555
H35_4 C51_4 1_555 1_555
C52_4 C47_4 1_555 1_555
H36_4 C52_4 1_555 1_555
C53_4 N3_4 1_555 1_555
H37_3 C53_4 1_555 1_555
C54_4 N5_2 1_555 1_555
H38_4 C54_4 1_555 1_555
N2_4 C46_3 1_555 1_555
C49_4 C50_4 1_555 1_555
C51_4 C52_4 1_555 1_555
C53_4 C54_4 1_555 1_555
O18 C34_4 1_555 1_555
O19 C34_4 1_555 1_555
H7_4 C6_4 1_555 1_555
H8_4 C7_4 1_555 1_555
O12_4 C1_4 1_555 1_555
C6_4 C7_4 1_555 1_555
H3_3 O17_3 1_555 1_555
H4_3 O17_3 1_555 1_555
H3_4 O17_4 1_555 1_555
H4_4 O17_4 1_555 1_555
H32_4 C46_4 1_555 1_555

#END
