
###############################################################################
#
# This file contains modified crystal structure data generated from the
# MOF subset of the Cambridge Structural Database (CSD) v543 
# hosted by the Cambridge Crystallographic Data Centre (CCDC).
#
# This work is licensed under the Creative Commons
# Attribution-NonCommercial-ShareAlike 4.0 International License.
# To view a copy of this license, visit
# http://creativecommons.org/licenses/by-nc-sa/4.0/
# or send a letter to
# Creative Commons, PO Box 1866, Mountain View, CA 94042, USA.
#
# CIF created using the CSD Python API on 29 September 2022
# The structure has been converted into the P1 space group
# The structure has a 3D framework
# The original CSD entry QITYOI is in the triclinic crystal system
# The framework has been calculated to contain at least 10.0% void space
# The void calculation uses a probe of radius 1.32A, grid spacing 0.4
#
###############################################################################

data_QITYOI
_chemical_formula_moiety         '(C18 H28 O14 Pr2)n'
_symmetry_cell_setting           triclinic
_symmetry_space_group_name_H-M   'P 1'
_symmetry_Int_Tables_number      1
_space_group_name_Hall           'P 1'
loop_
_symmetry_equiv_pos_site_id
_symmetry_equiv_pos_as_xyz
1 x,y,z
_cell_length_a                   7.8538(5)
_cell_length_b                   11.0219(7)
_cell_length_c                   11.6693(8)
_cell_angle_alpha                108.6740(10)
_cell_angle_beta                 105.8120(10)
_cell_angle_gamma                104.1080(10)
_cell_volume                     857.899
loop_
_atom_site_label
_atom_site_type_symbol
_atom_site_fract_x
_atom_site_fract_y
_atom_site_fract_z
_atom_site_U_iso_or_equiv
_atom_site_thermal_displace_type
Pr3 Pr 0.27462(6) 0.02108(4) 0.06542(4) 0.0162 Uani
O1 O 0.0682(5) 0.1493(4) 0.0183(3) 0.0221 Uani
O3 O 0.5405(7) 0.0235(5) 0.2420(4) 0.0256 Uani
H1 H 0.2308 0.4052 0.0514 0.0450 Uiso
H14 H 0.631(18) 0.047(14) 0.221(12) 0.3000 Uiso
O14 O 0.5899(6) 0.1440(4) 0.0478(3) 0.0230 Uani
O18 O 0.1654(6) 0.0895(4) 0.2431(4) 0.0284 Uani
O20 O 0.5001(6) 0.2716(4) 0.1888(4) 0.0309 Uani
O4 O 0.4101(6) 0.8560(4) 0.9522(3) 0.0230 Uani
O6 O 0.4999(6) 0.7284(4) 0.8112(4) 0.0309 Uani
C2 C 0.1682(9) 0.3366(6) 0.9617(6) 0.0381 Uani
H2 H 0.2622 0.3027 0.9379 0.0450 Uiso
C3 C 0.1004(9) 0.4062(5) 0.8735(6) 0.0289 Uani
H4 H 0.0666 0.3459 0.7829 0.0350 Uiso
C5 C 0.2070(8) 0.6175(5) 0.8233(5) 0.0244 Uani
H7 H 0.1033 0.6468 0.8339 0.0290 Uiso
H8 H 0.1678 0.5565 0.7321 0.0290 Uiso
C6 C 0.0144(9) 0.2186(6) 0.9559(6) 0.0219 Uani
C7 C 0.0037(9) 0.0134(6) 0.5680(5) 0.0341 Uani
H9 H 0.1270 0.0813 0.6302 0.0410 Uiso
C8 C 0.2553(9) 0.5427(6) 0.9095(6) 0.0334 Uani
H11 H 0.2839 0.6031 0.9992 0.0410 Uiso
H12 H 0.3695 0.5254 0.9062 0.0410 Uiso
C9 C 0.3810(9) 0.7410(6) 0.8625(6) 0.0247 Uani
Pr4 Pr 0.72538(6) 0.97892(4) 0.93458(4) 0.0162 Uani
C10 C 0.0180(10) 0.0811(6) 0.2656(5) 0.0215 Uani
C13 C 0.0299(9) 0.1149(6) 0.4038(5) 0.0252 Uani
H19 H 0.1543 0.1827 0.4642 0.0300 Uiso
H13 H 0.516(9) 0.966(6) 0.270(6) 0.0400 Uiso
O22 O 0.1561(6) 0.8085(4) 0.1044(4) 0.0343 Uani
H17 H 0.0121 0.5772 0.1176 0.0350 Uiso
O2 O 0.1468(6) 0.9601(4) 0.8235(4) 0.0356 Uani
H6 H 0.0643 0.8455 0.5825 0.0300 Uiso
H24 H 0.0916 0.9480 0.4186 0.0410 Uiso
O10 O 0.8532(6) 0.0399(4) 0.1765(4) 0.0356 Uani
O7 O 0.8439(6) 0.1915(4) 0.8956(4) 0.0343 Uani
H3 H 0.9879 0.4228 0.8824 0.0350 Uiso
H10 H 0.9084 0.0520 0.5814 0.0410 Uiso
H20 H 0.9357 0.1545 0.4175 0.0300 Uiso
H27 H 0.484(9) 0.034(6) 0.730(6) 0.0400 Uiso
C11 C 0.8318(9) 0.6634(6) 0.0383(6) 0.0381 Uani
H16 H 0.7378 0.6973 0.0621 0.0450 Uiso
C12 C 0.8996(9) 0.5938(5) 0.1265(6) 0.0289 Uani
H18 H 0.9334 0.6541 0.2171 0.0350 Uiso
C14 C 0.7930(8) 0.3825(5) 0.1767(5) 0.0244 Uani
H21 H 0.8967 0.3532 0.1661 0.0290 Uiso
H22 H 0.8322 0.4435 0.2679 0.0290 Uiso
C15 C 0.9856(9) 0.7814(6) 0.0441(6) 0.0219 Uani
C17 C 0.7447(9) 0.4573(6) 0.0905(6) 0.0334 Uani
H25 H 0.7161 0.3969 0.0008 0.0410 Uiso
H26 H 0.6305 0.4746 0.0938 0.0410 Uiso
C18 C 0.6190(9) 0.2590(6) 0.1375(6) 0.0247 Uani
O5 O 0.8346(6) 0.9105(4) 0.7569(4) 0.0284 Uani
C1 C 0.9820(10) 0.9189(6) 0.7344(5) 0.0215 Uani
C4 C 0.9701(9) 0.8851(6) 0.5962(5) 0.0252 Uani
H5 H 0.8457 0.8173 0.5358 0.0300 Uiso
O8 O 0.9318(5) 0.8507(4) 0.9817(3) 0.0221 Uani
O11 O 0.4595(7) 0.9765(5) 0.7580(4) 0.0256 Uani
H15 H 0.7692 0.5948 0.9486 0.0450 Uiso
C16 C 0.9963(9) 0.9866(6) 0.4320(5) 0.0341 Uani
H23 H 0.8730 0.9187 0.3698 0.0410 Uiso
H28 H 0.369(18) 0.953(14) 0.779(12) 0.3000 Uiso
loop_
_atom_site_aniso_label
_atom_site_aniso_U_11
_atom_site_aniso_U_22
_atom_site_aniso_U_33
_atom_site_aniso_U_23
_atom_site_aniso_U_13
_atom_site_aniso_U_12
Pr3 0.0143 0.01773 0.02106 0.01184 0.00895 0.00538
O1 0.024 0.019 0.031 0.0167 0.013 0.0088
O3 0.025 0.033 0.024 0.018 0.009 0.011
O14 0.026 0.015 0.027 0.0062 0.014 0.0049
O18 0.022 0.042 0.028 0.017 0.015 0.013
O20 0.031 0.021 0.046 0.011 0.027 0.008
O4 0.026 0.015 0.027 0.0062 0.014 0.0049
O6 0.031 0.021 0.046 0.011 0.027 0.008
C2 0.03 0.033 0.058 0.034 0.016 0.003
C3 0.027 0.02 0.041 0.019 0.013 0.002
C5 0.017 0.02 0.034 0.011 0.01 0.003
C6 0.025 0.019 0.025 0.007 0.016 0.009
C7 0.035 0.045 0.027 0.016 0.017 0.015
C8 0.028 0.03 0.044 0.023 0.013 0.004
C9 0.024 0.022 0.028 0.016 0.005 0.006
Pr4 0.0143 0.01773 0.02106 0.01184 0.00895 0.00538
C10 0.027 0.028 0.014 0.011 0.007 0.015
C13 0.024 0.038 0.02 0.013 0.013 0.015
O22 0.015 0.044 0.055 0.038 0.008 0.011
O2 0.022 0.068 0.022 0.023 0.01 0.017
O10 0.022 0.068 0.022 0.023 0.01 0.017
O7 0.015 0.044 0.055 0.038 0.008 0.011
C11 0.03 0.033 0.058 0.034 0.016 0.003
C12 0.027 0.02 0.041 0.019 0.013 0.002
C14 0.017 0.02 0.034 0.011 0.01 0.003
C15 0.025 0.019 0.025 0.007 0.016 0.009
C17 0.028 0.03 0.044 0.023 0.013 0.004
C18 0.024 0.022 0.028 0.016 0.005 0.006
O5 0.022 0.042 0.028 0.017 0.015 0.013
C1 0.027 0.028 0.014 0.011 0.007 0.015
C4 0.024 0.038 0.02 0.013 0.013 0.015
O8 0.024 0.019 0.031 0.0167 0.013 0.0088
O11 0.025 0.033 0.024 0.018 0.009 0.011
C16 0.035 0.045 0.027 0.016 0.017 0.015
loop_
_geom_bond_atom_site_label_1
_geom_bond_atom_site_label_2
_geom_bond_site_symmetry_1
_geom_bond_site_symmetry_2
Pr3 O1 1_555 1_555
O3 Pr3 1_555 1_555
H14 O3 1_555 1_555
O14 Pr3 1_555 1_555
O18 Pr3 1_555 1_555
O20 Pr3 1_555 1_555
O4 C9 1_555 1_555
O6 C9 1_555 1_555
H2 C2 1_555 1_555
C3 C2 1_555 1_555
H4 C3 1_555 1_555
C5 H7 1_555 1_555
H8 C5 1_555 1_555
C6 C2 1_555 1_555
H9 C7 1_555 1_555
C8 C3 1_555 1_555
H11 C8 1_555 1_555
H12 C8 1_555 1_555
C9 C5 1_555 1_555
Pr4 O4 1_555 1_555
O18 C10 1_555 1_555
C10 C13 1_555 1_555
C13 H19 1_555 1_555
O6 Pr4 1_555 1_555
C5 C8 1_555 1_555
O14 C18 1_555 1_555
H16 C11 1_555 1_555
C12 C11 1_555 1_555
H18 C12 1_555 1_555
C14 H21 1_555 1_555
H22 C14 1_555 1_555
C17 C12 1_555 1_555
H25 C17 1_555 1_555
H26 C17 1_555 1_555
C18 O20 1_555 1_555
C11 C15 1_555 1_555
C14 C17 1_555 1_555
C14 C18 1_555 1_555
O5 C1 1_555 1_555
C4 C1 1_555 1_555
H5 C4 1_555 1_555
O11 Pr4 1_555 1_555
H23 C16 1_555 1_555
H28 O11 1_555 1_555
O5 Pr4 1_555 1_555
Pr4 O8 1_555 1_555

#END
