
###############################################################################
#
# This file contains modified crystal structure data generated from the
# MOF subset of the Cambridge Structural Database (CSD) v543 
# hosted by the Cambridge Crystallographic Data Centre (CCDC).
#
# This work is licensed under the Creative Commons
# Attribution-NonCommercial-ShareAlike 4.0 International License.
# To view a copy of this license, visit
# http://creativecommons.org/licenses/by-nc-sa/4.0/
# or send a letter to
# Creative Commons, PO Box 1866, Mountain View, CA 94042, USA.
#
# CIF created using the CSD Python API on 29 September 2022
# The structure has been converted into the P1 space group
# The structure has a 3D framework
# The original CSD entry QIVBUT is in the orthorhombic crystal system
# The original CSD entry QIVBUT is in a Sohncke space group
# The framework has been calculated to contain at least 10.0% void space
# The void calculation uses a probe of radius 1.32A, grid spacing 0.4
#
###############################################################################

data_QIVBUT
_chemical_formula_moiety         '(C66 H48 Cd5 Fe4 N12 O11 S4)n'
_symmetry_cell_setting           triclinic
_symmetry_space_group_name_H-M   'P 1'
_symmetry_Int_Tables_number      1
_space_group_name_Hall           'P 1'
loop_
_symmetry_equiv_pos_site_id
_symmetry_equiv_pos_as_xyz
1 x,y,z
_cell_length_a                   11.831(3)
_cell_length_b                   13.490(4)
_cell_length_c                   11.700(3)
_cell_angle_alpha                90
_cell_angle_beta                 90
_cell_angle_gamma                90
_cell_volume                     1867.32
loop_
_atom_site_label
_atom_site_type_symbol
_atom_site_fract_x
_atom_site_fract_y
_atom_site_fract_z
Cd3 Cd 0.0000 0.0000 0.71745(5)
Cd3_2 Cd 0.0000 1.0000 0.71745(5)
N2 N 0.0000 0.0000 0.5190(7)
C11 C 0.0530(9) 0.0728(7) 0.4609(8)
H9 H 0.0904 0.1226 0.5008
H10 H 0.0879 0.1255 0.3016
C13 C 0.0000 0.0000 0.2822(8)
C14 C 0.0000 0.0000 0.1544(8)
C28 C 0.0525(10) 0.0742(7) 0.3409(7)
Fe1 Fe 0.0000 0.5000 0.78724(15)
S1 S 0.0370(2) 0.26011(13) 0.7216(2)
O2 O 0.0844(7) 0.2845(5) 0.6105(7)
O3 O 0.1219(9) 0.2504(5) 0.8119(7)
N1 N 0.2007(5) 0.0030(6) 0.7139(5)
N3 N 0.0000 0.0000 0.9163(6)
C6 C 0.2633(8) 0.0463(8) 0.7967(8)
H5 H 0.2258 0.0790 0.8555
C7 C 0.3769(8) 0.0445(8) 0.7984(9)
H6 H 0.4157 0.0744 0.8583
Cd3_3 Cd 1.0000 0.0000 0.71745(5)
O5 O 0.0335(6) 0.8273(4) 0.7163(6)
C17 C 0.0493(8) 0.6407(6) 0.7607(8)
C18 C 0.1065(10) 0.5775(6) 0.6851(10)
H13 H 0.1049 0.5803 0.6015
C19 C 0.1725(8) 0.5128(8) 0.7534(12)
H14 H 0.2208 0.4595 0.7241
C20 C 0.1465(14) 0.5288(7) 0.8699(13)
H15 H 0.1772 0.4923 0.9353
C21 C 0.0731(11) 0.6131(6) 0.8744(9)
H16 H 0.0437 0.6449 0.9436
C24 C 0.5638(6) 0.0014(9) 0.7118(7)
C25 C 0.6241(8) 0.0433(8) 0.6252(9)
H19 H 0.5874 0.0728 0.5636
C26 C 0.7429(9) 0.0411(8) 0.6306(9)
H20 H 0.7837 0.0721 0.5728
N2_2 N 0.0000 1.0000 0.5190(7)
C13_2 C 0.0000 1.0000 0.2822(8)
C14_2 C 0.0000 1.0000 0.1544(8)
C15 C 0.0464(12) 0.9216(8) 0.0928(7)
H11 H 0.0792 0.8683 0.1308
N3_2 N 0.0000 1.0000 0.9163(6)
C8 C 0.4362(6) 0.9986(9) 0.7118(7)
C9 C 0.3759(8) 0.9567(8) 0.6252(9)
H7 H 0.4126 0.9272 0.5636
C10 C 0.2571(9) 0.9589(8) 0.6306(9)
H8 H 0.2163 0.9279 0.5728
C16 C 0.0433(10) 0.9238(7) 0.9733(7)
H12 H 0.0723 0.8703 0.9325
Cd3_4 Cd 1.0000 1.0000 0.71745(5)
N5 N 0.7993(5) 0.9970(6) 0.7139(5)
C22 C 0.7367(8) 0.9537(8) 0.7967(8)
H17 H 0.7742 0.9210 0.8555
C23 C 0.6231(8) 0.9555(8) 0.7984(9)
H18 H 0.5843 0.9256 0.8583
N2_3 N 1.0000 0.0000 0.5190(7)
C13_3 C 1.0000 0.0000 0.2822(8)
C14_3 C 1.0000 0.0000 0.1544(8)
C29 C 0.9536(12) 0.0784(8) 0.0928(7)
H23 H 0.9208 0.1317 0.1308
Fe1_2 Fe 1.0000 0.5000 0.78724(15)
O1 O 0.9665(6) 0.1727(4) 0.7163(6)
N3_3 N 1.0000 0.0000 0.9163(6)
C1 C 0.9507(8) 0.3593(6) 0.7607(8)
C2 C 0.8935(10) 0.4225(6) 0.6851(10)
H1 H 0.8951 0.4197 0.6015
C3 C 0.8275(8) 0.4872(8) 0.7534(12)
H2 H 0.7792 0.5405 0.7241
C4 C 0.8535(14) 0.4712(7) 0.8699(13)
H3 H 0.8228 0.5077 0.9353
C5 C 0.9269(11) 0.3869(6) 0.8744(9)
H4 H 0.9563 0.3551 0.9436
S2 S 0.9630(2) 0.73989(13) 0.7216(2)
O6 O 0.9156(7) 0.7155(5) 0.6105(7)
O7 O 0.8781(9) 0.7496(5) 0.8119(7)
C30 C 0.9567(10) 0.0762(7) 0.9733(7)
H24 H 0.9277 0.1297 0.9325
N2_4 N 1.0000 1.0000 0.5190(7)
C12 C 0.9475(10) 0.9258(7) 0.3409(7)
C13_4 C 1.0000 1.0000 0.2822(8)
C14_4 C 1.0000 1.0000 0.1544(8)
C27 C 0.9470(9) 0.9272(7) 0.4609(8)
H21 H 0.9096 0.8774 0.5008
H22 H 0.9121 0.8745 0.3016
N3_4 N 1.0000 1.0000 0.9163(6)
Fe1_3 Fe 0.5000 0.0000 0.21276(15)
H2_2 H 0.7208 0.0405 0.2759
H3_2 H 0.6772 0.0077 0.0647
Cd2 Cd 0.5000 0.5000 0.28255(5)
S2_2 S 0.5370(2) 0.23989(13) 0.2784(2)
O5_2 O 0.4665(6) 0.3273(4) 0.2837(6)
O6_2 O 0.5844(7) 0.2155(5) 0.3895(7)
O7_2 O 0.6219(9) 0.2496(5) 0.1881(7)
C17_2 C 0.4507(8) 0.1407(6) 0.2393(8)
C18_2 C 0.3935(10) 0.0775(6) 0.3149(10)
H13_2 H 0.3951 0.0803 0.3985
C19_2 C 0.3275(8) 0.0128(8) 0.2466(12)
C20_2 C 0.3535(14) 0.0288(7) 0.1301(13)
C21_2 C 0.4269(11) 0.1131(6) 0.1256(9)
H16_2 H 0.4563 0.1449 0.0564
Fe1_4 Fe 0.5000 1.0000 0.21276(15)
S1_2 S 0.4630(2) 0.76011(13) 0.2784(2)
O1_2 O 0.5335(6) 0.6727(4) 0.2837(6)
O2_2 O 0.4156(7) 0.7845(5) 0.3895(7)
O3_2 O 0.3781(9) 0.7504(5) 0.1881(7)
N1_2 N 0.2993(5) 0.5030(6) 0.2861(5)
N3_5 N 0.5000 0.5000 0.0837(6)
C1_2 C 0.5493(8) 0.8593(6) 0.2393(8)
C2_2 C 0.6065(10) 0.9225(6) 0.3149(10)
H1_2 H 0.6049 0.9197 0.3985
C3_2 C 0.6725(8) 0.9872(8) 0.2466(12)
C4_2 C 0.6465(14) 0.9712(7) 0.1301(13)
C5_2 C 0.5731(11) 0.8869(6) 0.1256(9)
H4_2 H 0.5437 0.8551 0.0564
C6_2 C 0.2367(8) 0.5463(8) 0.2033(8)
H5_2 H 0.2742 0.5790 0.1445
C7_2 C 0.1231(8) 0.5445(8) 0.2016(9)
H6_2 H 0.0843 0.5744 0.1417
C8_2 C 0.0638(6) 0.4986(9) 0.2882(7)
C9_2 C 0.1241(8) 0.4567(8) 0.3748(9)
H7_2 H 0.0874 0.4272 0.4364
C10_2 C 0.2429(9) 0.4589(8) 0.3694(9)
H8_2 H 0.2837 0.4279 0.4272
C16_2 C 0.4567(10) 0.4238(7) 0.0267(7)
H12_2 H 0.4277 0.3703 0.0675
N4 N 0.7007(5) 0.4970(6) 0.2861(5)
N6 N 0.5000 0.5000 0.4810(7)
H14_2 H 0.2792 0.9595 0.2759
H15_2 H 0.3228 0.9923 0.0647
C30_2 C 0.5433(10) 0.5762(7) 0.0267(7)
H24_2 H 0.5723 0.6297 0.0675
C11_2 C 0.4470(9) 0.5728(7) 0.5391(8)
H9_2 H 0.4096 0.6226 0.4992
C12_2 C 0.5525(10) 0.4258(7) 0.6591(7)
H10_2 H 0.4121 0.6255 0.6984
C13_5 C 0.5000 0.5000 0.7178(8)
C14_5 C 0.5000 0.5000 0.8456(8)
C15_2 C 0.4536(12) 0.4216(8) 0.9072(7)
H11_2 H 0.4208 0.3683 0.8692
C27_2 C 0.5530(9) 0.4272(7) 0.5391(8)
H21_2 H 0.5904 0.3774 0.4992
C28_2 C 0.4475(10) 0.5742(7) 0.6591(7)
H22_2 H 0.5879 0.3745 0.6984
C29_2 C 0.5464(12) 0.5784(8) 0.9072(7)
H23_2 H 0.5792 0.6317 0.8692
C22_2 C 0.7633(8) 0.4537(8) 0.2033(8)
H17_2 H 0.7258 0.4210 0.1445
C23_2 C 0.8769(8) 0.4555(8) 0.2016(9)
H18_2 H 0.9157 0.4256 0.1417
C24_2 C 0.9362(6) 0.5014(9) 0.2882(7)
C25_2 C 0.8759(8) 0.5433(8) 0.3748(9)
H19_2 H 0.9126 0.5728 0.4364
C26_2 C 0.7571(9) 0.5411(8) 0.3694(9)
H20_2 H 0.7163 0.5721 0.4272
loop_
_geom_bond_atom_site_label_1
_geom_bond_atom_site_label_2
_geom_bond_site_symmetry_1
_geom_bond_site_symmetry_2
N2 C11 1_555 1_555
C11 H9 1_555 1_555
H10 C28 1_555 1_555
C13 C14 1_555 1_555
Cd3 N2 1_555 1_555
C28 C11 1_555 1_555
C13 C28 1_555 1_555
O2 S1 1_555 1_555
O3 S1 1_555 1_555
N1 Cd3 1_555 1_555
N3 Cd3 1_555 1_555
C6 N1 1_555 1_555
H5 C6 1_555 1_555
C7 C6 1_555 1_555
H6 C7 1_555 1_555
Cd3_2 O5 1_555 1_555
C17 Fe1 1_555 1_555
C18 Fe1 1_555 1_555
H13 C18 1_555 1_555
C19 Fe1 1_555 1_555
H14 C19 1_555 1_555
C20 Fe1 1_555 1_555
H15 C20 1_555 1_555
C21 Fe1 1_555 1_555
H16 C21 1_555 1_555
C25 C24 1_555 1_555
H19 C25 1_555 1_555
H20 C26 1_555 1_555
C17 C18 1_555 1_555
C17 C21 1_555 1_555
C18 C19 1_555 1_555
C19 C20 1_555 1_555
C20 C21 1_555 1_555
C25 C26 1_555 1_555
C13_2 C14_2 1_555 1_555
C14_2 C15 1_555 1_555
C15 H11 1_555 1_555
Cd3_2 N2_2 1_555 1_555
N3_2 Cd3_2 1_555 1_555
C9 C8 1_555 1_555
H7 C9 1_555 1_555
H8 C10 1_555 1_555
C16 N3_2 1_555 1_555
H12 C16 1_555 1_555
Cd3_4 N5 1_555 1_555
N5 C22 1_555 1_555
C22 H17 1_555 1_555
C23 C22 1_555 1_555
H18 C23 1_555 1_555
C9 C10 1_555 1_555
C13_3 C14_3 1_555 1_555
Cd3_3 N2_3 1_555 1_555
C29 C14_3 1_555 1_555
H23 C29 1_555 1_555
Cd3_3 O1 1_555 1_555
Fe1_2 C1 1_555 1_555
N3_3 Cd3_3 1_555 1_555
C2 Fe1_2 1_555 1_555
H1 C2 1_555 1_555
C3 Fe1_2 1_555 1_555
H2 C3 1_555 1_555
C4 Fe1_2 1_555 1_555
H3 C4 1_555 1_555
C5 Fe1_2 1_555 1_555
H4 C5 1_555 1_555
O6 S2 1_555 1_555
O7 S2 1_555 1_555
C30 N3_3 1_555 1_555
H24 C30 1_555 1_555
C1 C2 1_555 1_555
C1 C5 1_555 1_555
C2 C3 1_555 1_555
C3 C4 1_555 1_555
C4 C5 1_555 1_555
C12 C13_4 1_555 1_555
C13_4 C14_4 1_555 1_555
Cd3_4 N2_4 1_555 1_555
C27 N2_4 1_555 1_555
H21 C27 1_555 1_555
H22 C12 1_555 1_555
C12 C27 1_555 1_555
N3_4 Cd3_4 1_555 1_555
Cd2 O5_2 1_555 1_555
S2_2 O5_2 1_555 1_555
O6_2 S2_2 1_555 1_555
O7_2 S2_2 1_555 1_555
C17_2 Fe1_3 1_555 1_555
C18_2 Fe1_3 1_555 1_555
H13_2 C18_2 1_555 1_555
C19_2 Fe1_3 1_555 1_555
C20_2 Fe1_3 1_555 1_555
C21_2 Fe1_3 1_555 1_555
H16_2 C21_2 1_555 1_555
S2_2 C17_2 1_555 1_555
C17_2 C18_2 1_555 1_555
C17_2 C21_2 1_555 1_555
C18_2 C19_2 1_555 1_555
C19_2 C20_2 1_555 1_555
C20_2 C21_2 1_555 1_555
Cd2 O1_2 1_555 1_555
Fe1_4 C1_2 1_555 1_555
S1_2 O1_2 1_555 1_555
O2_2 S1_2 1_555 1_555
O3_2 S1_2 1_555 1_555
N1_2 Cd2 1_555 1_555
N3_5 Cd2 1_555 1_555
C1_2 S1_2 1_555 1_555
C2_2 Fe1_4 1_555 1_555
H1_2 C2_2 1_555 1_555
C3_2 Fe1_4 1_555 1_555
C4_2 Fe1_4 1_555 1_555
C5_2 Fe1_4 1_555 1_555
H4_2 C5_2 1_555 1_555
C6_2 N1_2 1_555 1_555
H5_2 C6_2 1_555 1_555
C7_2 C6_2 1_555 1_555
H6_2 C7_2 1_555 1_555
C8_2 C7_2 1_555 1_555
C9_2 C8_2 1_555 1_555
H7_2 C9_2 1_555 1_555
C10_2 N1_2 1_555 1_555
H8_2 C10_2 1_555 1_555
C16_2 N3_5 1_555 1_555
H12_2 C16_2 1_555 1_555
N4 Cd2 1_555 1_555
N6 Cd2 1_555 1_555
C30_2 N3_5 1_555 1_555
H24_2 C30_2 1_555 1_555
C1_2 C2_2 1_555 1_555
C1_2 C5_2 1_555 1_555
C2_2 C3_2 1_555 1_555
C3_2 C4_2 1_555 1_555
C4_2 C5_2 1_555 1_555
C9_2 C10_2 1_555 1_555
N6 C11_2 1_555 1_555
C11_2 H9_2 1_555 1_555
C12_2 C13_5 1_555 1_555
H10_2 C28_2 1_555 1_555
C13_5 C14_5 1_555 1_555
C14_5 C15_2 1_555 1_555
C15_2 H11_2 1_555 1_555
C27_2 N6 1_555 1_555
H21_2 C27_2 1_555 1_555
C28_2 C11_2 1_555 1_555
H22_2 C12_2 1_555 1_555
C29_2 C14_5 1_555 1_555
H23_2 C29_2 1_555 1_555
C12_2 C27_2 1_555 1_555
C13_5 C28_2 1_555 1_555
N4 C22_2 1_555 1_555
C22_2 H17_2 1_555 1_555
C23_2 C22_2 1_555 1_555
H18_2 C23_2 1_555 1_555
C25_2 C24_2 1_555 1_555
H19_2 C25_2 1_555 1_555
C26_2 N4 1_555 1_555
H20_2 C26_2 1_555 1_555
C23_2 C24_2 1_555 1_555
C25_2 C26_2 1_555 1_555

#END
