
###############################################################################
#
# This file contains modified crystal structure data generated from the
# MOF subset of the Cambridge Structural Database (CSD) v543 
# hosted by the Cambridge Crystallographic Data Centre (CCDC).
#
# This work is licensed under the Creative Commons
# Attribution-NonCommercial-ShareAlike 4.0 International License.
# To view a copy of this license, visit
# http://creativecommons.org/licenses/by-nc-sa/4.0/
# or send a letter to
# Creative Commons, PO Box 1866, Mountain View, CA 94042, USA.
#
# CIF created using the CSD Python API on 29 September 2022
# The structure has been converted into the P1 space group
# The structure has a 3D framework
# The original CSD entry QIVLUE is in the orthorhombic crystal system
# The framework has been calculated to contain at least 10.0% void space
# The void calculation uses a probe of radius 1.32A, grid spacing 0.4
#
###############################################################################

data_QIVLUE
_chemical_formula_moiety         '(C320 H64 Li16 O250 Zn16)n'
_symmetry_cell_setting           triclinic
_symmetry_space_group_name_H-M   'P 1'
_symmetry_Int_Tables_number      1
_space_group_name_Hall           'P 1'
loop_
_symmetry_equiv_pos_site_id
_symmetry_equiv_pos_as_xyz
1 x,y,z
_cell_length_a                   19.9292(5)
_cell_length_b                   25.9815(8)
_cell_length_c                   29.2054(10)
_cell_angle_alpha                90
_cell_angle_beta                 90
_cell_angle_gamma                90
_cell_volume                     15122.3
loop_
_atom_site_label
_atom_site_type_symbol
_atom_site_fract_x
_atom_site_fract_y
_atom_site_fract_z
O1 O 0.17210(7) 0.26923(7) 0.21158(6)
O3 O 0.00208(7) 0.27989(7) 0.13012(6)
O6 O 0.10915(8) 0.32991(7) 0.17827(5)
C2 C 0.05581(11) 0.26874(9) 0.22607(7)
C3 C 0.11634(10) 0.29140(9) 0.20298(7)
C10 C 0.06335(11) 0.24081(10) 0.26624(8)
H2 H 0.1064 0.2346 0.2773
Li1 Li 0.1250 0.3718(2) 0.1250
O11 O 0.05669(8) 0.15623(6) 0.33695(5)
C13 C 0.00883(11) 0.22190(9) 0.29041(8)
C14 C 0.02203(11) 0.19602(9) 0.33574(8)
Zn3 Zn 0.250076(12) 0.303058(11) 0.182576(9)
Zn4 Zn 0.000076(12) 0.196942(11) 0.432576(9)
O17 O 0.07790(7) 0.26923(7) 0.03842(6)
O23 O 0.14085(8) 0.32991(7) 0.07173(5)
O25 O 0.05625(8) 0.41680(6) 0.09608(5)
O26 O 0.19375(8) 0.41680(6) 0.15392(5)
Li6 Li 0.1250 0.1250 0.37875(18)
Zn1 Zn 0.999924(12) 0.303058(11) 0.067424(9)
O2 O 0.92191(7) 0.27226(7) 0.03645(6)
O4 O 0.94331(8) 0.34377(6) 0.16305(5)
O5 O 0.85594(8) 0.31375(7) 0.08597(6)
O7 O 0.75448(7) 0.37759(7) 0.04448(6)
O8 O 0.69375(8) 0.33320(6) 0.09608(5)
C1 C 0.86484(11) 0.28676(9) 0.05157(8)
C4 C 0.80481(11) 0.26849(9) 0.02486(8)
C5 C 0.99117(11) 0.27810(9) 0.20959(8)
C6 C 0.72927(11) 0.33687(10) 0.06109(8)
C7 C 0.97797(11) 0.30398(9) 0.16426(8)
C8 C 0.74158(11) 0.29024(10) 0.03160(8)
Li2 Li 0.8750 0.3750 0.12125(18)
O9 O 0.82790(7) 0.23077(7) 0.28842(6)
O10 O 0.99792(7) 0.22011(7) 0.36988(6)
O12 O 0.89085(8) 0.17009(7) 0.32173(5)
C11 C 0.94419(11) 0.23126(9) 0.27393(7)
C12 C 0.88366(10) 0.20860(9) 0.29702(7)
C15 C 0.93665(11) 0.25919(10) 0.23376(8)
H3 H 0.8936 0.2654 0.2227
C20 C 0.68778(11) 0.27156(10) 0.00657(8)
H4 H 0.6456 0.2861 0.0108
Zn2 Zn 0.750076(12) 0.446942(11) 0.067424(9)
Zn7 Zn 0.749924(12) 0.196942(11) 0.317424(9)
O18 O 0.67210(7) 0.48077(7) 0.03842(6)
O19 O 0.82809(7) 0.47774(7) 0.03645(6)
O20 O 0.74792(7) 0.47011(7) 0.13012(6)
O21 O 0.80669(8) 0.40623(6) 0.16305(5)
O22 O 0.89406(8) 0.43625(7) 0.08597(6)
O24 O 0.99552(7) 0.37241(7) 0.04448(6)
Li3 Li 0.6250 0.3782(2) 0.1250
Li4 Li 0.8750 0.1282(2) 0.3750
C9 C 0.81222(11) 0.22844(10) 0.99343(8)
H1 H 0.8544 0.2139 0.9892
O13 O 0.57809(7) 0.22774(7) 0.96355(6)
O14 O 0.64406(8) 0.18625(7) 0.91403(6)
O15 O 0.74552(7) 0.12241(7) 0.95552(6)
O16 O 0.80625(8) 0.16680(6) 0.90392(5)
C16 C 0.63516(11) 0.21324(9) 0.94843(8)
C17 C 0.69519(11) 0.23151(9) 0.97514(8)
C18 C 0.77073(11) 0.16313(10) 0.93891(8)
C19 C 0.75842(11) 0.20976(10) 0.96840(8)
Zn5 Zn 0.500076(12) 0.196942(11) 0.932576(9)
Zn6 Zn 0.749924(12) 0.053058(11) 0.932576(9)
Li5 Li 0.8750 0.1218(2) 0.8750
Li7 Li 0.6250 0.1250 0.87875(18)
C6_2 C 0.02073(11) 0.41313(10) 0.06109(8)
C8_2 C 0.00842(11) 0.45976(10) 0.03160(8)
C20_2 C 0.06222(11) 0.47844(10) 0.00657(8)
H4_2 H 0.1044 0.4639 0.0108
Zn7_2 Zn 0.000076(12) 0.553058(11) 0.317424(9)
O13_2 O 0.17191(7) 0.52226(7) 0.96355(6)
O14_2 O 0.10594(8) 0.56375(7) 0.91403(6)
O15_2 O 0.00448(7) 0.62759(7) 0.95552(6)
C16_2 C 0.11484(11) 0.53676(9) 0.94843(8)
C17_2 C 0.05481(11) 0.51849(9) 0.97514(8)
Zn5_2 Zn 0.249924(12) 0.553058(11) 0.932576(9)
Zn6_2 Zn 0.000076(12) 0.696942(11) 0.932576(9)
Li7_2 Li 0.1250 0.6250 0.87875(18)
O1_2 O 0.57790(7) 0.48077(7) 0.21158(6)
O6_2 O 0.64085(8) 0.42009(7) 0.17827(5)
C1_2 C 0.88516(11) 0.46324(9) 0.05157(8)
C2_2 C 0.69419(11) 0.48126(9) 0.22607(7)
C3_2 C 0.63366(10) 0.45860(9) 0.20298(7)
C4_2 C 0.94519(11) 0.48151(9) 0.02486(8)
C5_2 C 0.75883(11) 0.47190(9) 0.20959(8)
C7_2 C 0.77203(11) 0.44602(9) 0.16426(8)
C10_2 C 0.68665(11) 0.50919(10) 0.26624(8)
H2_2 H 0.6436 0.5154 0.2773
O9_2 O 0.92210(7) 0.51923(7) 0.28842(6)
O10_2 O 0.75208(7) 0.52989(7) 0.36988(6)
O11_2 O 0.69331(8) 0.59377(6) 0.33695(5)
O12_2 O 0.85915(8) 0.57991(7) 0.32173(5)
C11_2 C 0.80581(11) 0.51874(9) 0.27393(7)
C12_2 C 0.86634(10) 0.54140(9) 0.29702(7)
C13_2 C 0.74117(11) 0.52810(9) 0.29041(8)
C14_2 C 0.72797(11) 0.55398(9) 0.33574(8)
C15_2 C 0.81335(11) 0.49081(10) 0.23376(8)
H3_2 H 0.8564 0.4846 0.2227
Zn3_2 Zn 0.499924(12) 0.446942(11) 0.182576(9)
Zn4_2 Zn 0.749924(12) 0.553058(11) 0.432576(9)
O23_2 O 0.60915(8) 0.42009(7) 0.07173(5)
O26_2 O 0.55625(8) 0.33320(6) 0.15392(5)
Li4_2 Li 0.8750 0.6218(2) 0.3750
Li6_2 Li 0.6250 0.6250 0.37875(18)
C9_2 C 0.93778(11) 0.52156(10) 0.99343(8)
H1_2 H 0.8956 0.5361 0.9892
O16_2 O 0.94375(8) 0.58320(6) 0.90392(5)
C18_2 C 0.97927(11) 0.58687(10) 0.93891(8)
C19_2 C 0.99158(11) 0.54024(10) 0.96840(8)
Li5_2 Li 0.8750 0.6282(2) 0.8750
O8_2 O 0.05625(8) 0.33320(6) 0.65392(5)
C6_3 C 0.02073(11) 0.33687(10) 0.68891(8)
C8_3 C 0.00842(11) 0.29024(10) 0.71840(8)
O13_3 O 0.17191(7) 0.22774(7) 0.78645(6)
O14_3 O 0.10594(8) 0.18625(7) 0.83597(6)
O15_3 O 0.00448(7) 0.12241(7) 0.79448(6)
C16_3 C 0.11484(11) 0.21324(9) 0.80157(8)
C17_3 C 0.05481(11) 0.23151(9) 0.77486(8)
C20_3 C 0.06222(11) 0.27156(10) 0.74343(8)
H4_3 H 0.1044 0.2861 0.7392
Zn5_3 Zn 0.249924(12) 0.196942(11) 0.817424(9)
Zn6_3 Zn 0.000076(12) 0.053058(11) 0.817424(9)
O18_2 O 0.07790(7) 0.48077(7) 0.71158(6)
O20_2 O 0.00208(7) 0.47011(7) 0.61988(6)
Li3_2 Li 0.1250 0.3782(2) 0.6250
Li7_3 Li 0.1250 0.1250 0.87125(18)
Zn1_2 Zn 0.750076(12) 0.303058(11) 0.682576(9)
O1_3 O 0.57790(7) 0.26923(7) 0.53842(6)
O2_2 O 0.82809(7) 0.27226(7) 0.71355(6)
O3_2 O 0.74792(7) 0.27989(7) 0.61988(6)
O4_2 O 0.80669(8) 0.34377(6) 0.58695(5)
O5_2 O 0.89406(8) 0.31375(7) 0.66403(6)
O6_3 O 0.64085(8) 0.32991(7) 0.57173(5)
O7_2 O 0.99552(7) 0.37759(7) 0.70552(6)
C1_3 C 0.88516(11) 0.28676(9) 0.69843(8)
C2_3 C 0.69419(11) 0.26874(9) 0.52393(7)
C3_3 C 0.63366(10) 0.29140(9) 0.54702(7)
C4_3 C 0.94519(11) 0.26849(9) 0.72514(8)
C5_3 C 0.75883(11) 0.27810(9) 0.54041(8)
C7_3 C 0.77203(11) 0.30398(9) 0.58574(8)
C9_3 C 0.93778(11) 0.22844(10) 0.75657(8)
H1_3 H 0.8956 0.2139 0.7608
C10_3 C 0.68665(11) 0.24081(10) 0.48376(8)
H2_3 H 0.6436 0.2346 0.4727
Li1_2 Li 0.6250 0.3718(2) 0.6250
Li2_2 Li 0.8750 0.3750 0.62875(18)
O9_3 O 0.92210(7) 0.23077(7) 0.46158(6)
O10_3 O 0.75208(7) 0.22011(7) 0.38012(6)
O11_3 O 0.69331(8) 0.15623(6) 0.41305(5)
O12_3 O 0.85915(8) 0.17009(7) 0.42827(5)
C11_3 C 0.80581(11) 0.23126(9) 0.47607(7)
C12_3 C 0.86634(10) 0.20860(9) 0.45298(7)
C13_3 C 0.74117(11) 0.22190(9) 0.45959(8)
C14_3 C 0.72797(11) 0.19602(9) 0.41426(8)
C15_3 C 0.81335(11) 0.25919(10) 0.51624(8)
H3_3 H 0.8564 0.2654 0.5273
O16_3 O 0.94375(8) 0.16680(6) 0.84608(5)
C18_3 C 0.97927(11) 0.16313(10) 0.81109(8)
C19_3 C 0.99158(11) 0.20976(10) 0.78160(8)
Zn2_2 Zn 0.999924(12) 0.446942(11) 0.682576(9)
Zn3_3 Zn 0.499924(12) 0.303058(11) 0.567424(9)
O17_2 O 0.67210(7) 0.26923(7) 0.71158(6)
O19_2 O 0.92191(7) 0.47774(7) 0.71355(6)
O21_2 O 0.94331(8) 0.40623(6) 0.58695(5)
O22_2 O 0.85594(8) 0.43625(7) 0.66403(6)
O23_3 O 0.60915(8) 0.32991(7) 0.67827(5)
O24_2 O 0.75448(7) 0.37241(7) 0.70552(6)
O25_2 O 0.69375(8) 0.41680(6) 0.65392(5)
O26_3 O 0.55625(8) 0.41680(6) 0.59608(5)
Li6_3 Li 0.6250 0.1250 0.37125(18)
O1_4 O 0.17210(7) 0.48077(7) 0.53842(6)
O6_4 O 0.10915(8) 0.42009(7) 0.57173(5)
C2_4 C 0.05581(11) 0.48126(9) 0.52393(7)
C3_4 C 0.11634(10) 0.45860(9) 0.54702(7)
C10_4 C 0.06335(11) 0.50919(10) 0.48376(8)
H2_4 H 0.1064 0.5154 0.4727
O11_4 O 0.05669(8) 0.59377(6) 0.41305(5)
C13_4 C 0.00883(11) 0.52810(9) 0.45959(8)
C14_4 C 0.02203(11) 0.55398(9) 0.41426(8)
Zn3_4 Zn 0.250076(12) 0.446942(11) 0.567424(9)
O23_4 O 0.14085(8) 0.42009(7) 0.67827(5)
O26_4 O 0.19375(8) 0.33320(6) 0.59608(5)
Li6_4 Li 0.1250 0.6250 0.37125(18)
C1_4 C 0.86484(11) 0.46324(9) 0.69843(8)
C4_4 C 0.80481(11) 0.48151(9) 0.72514(8)
C5_4 C 0.99117(11) 0.47190(9) 0.54041(8)
C6_4 C 0.72927(11) 0.41313(10) 0.68891(8)
C7_4 C 0.97797(11) 0.44602(9) 0.58574(8)
C8_4 C 0.74158(11) 0.45976(10) 0.71840(8)
C9_4 C 0.81222(11) 0.52156(10) 0.75657(8)
H1_4 H 0.8544 0.5361 0.7608
O9_4 O 0.82790(7) 0.51923(7) 0.46158(6)
O10_4 O 0.99792(7) 0.52989(7) 0.38012(6)
O12_4 O 0.89085(8) 0.57991(7) 0.42827(5)
C11_4 C 0.94419(11) 0.51874(9) 0.47607(7)
C12_4 C 0.88366(10) 0.54140(9) 0.45298(7)
C15_4 C 0.93665(11) 0.49081(10) 0.51624(8)
H3_4 H 0.8936 0.4846 0.5273
O13_4 O 0.57809(7) 0.52226(7) 0.78645(6)
O14_4 O 0.64406(8) 0.56375(7) 0.83597(6)
O15_4 O 0.74552(7) 0.62759(7) 0.79448(6)
O16_4 O 0.80625(8) 0.58320(6) 0.84608(5)
C16_4 C 0.63516(11) 0.53676(9) 0.80157(8)
C17_4 C 0.69519(11) 0.51849(9) 0.77486(8)
C18_4 C 0.77073(11) 0.58687(10) 0.81109(8)
C19_4 C 0.75842(11) 0.54024(10) 0.78160(8)
C20_4 C 0.68778(11) 0.47844(10) 0.74343(8)
H4_4 H 0.6456 0.4639 0.7392
Zn5_4 Zn 0.500076(12) 0.553058(11) 0.817424(9)
Zn6_4 Zn 0.749924(12) 0.696942(11) 0.817424(9)
Li7_4 Li 0.6250 0.6250 0.87125(18)
O1_5 O 0.17210(7) 0.76923(7) 0.71158(6)
O3_3 O 0.00208(7) 0.77989(7) 0.63012(6)
O6_5 O 0.10915(8) 0.82991(7) 0.67827(5)
C2_5 C 0.05581(11) 0.76874(9) 0.72607(7)
C3_5 C 0.11634(10) 0.79140(9) 0.70298(7)
C10_5 C 0.06335(11) 0.74081(10) 0.76624(8)
H2_5 H 0.1064 0.7346 0.7773
Li1_3 Li 0.1250 0.8718(2) 0.6250
O11_5 O 0.05669(8) 0.65623(6) 0.83695(5)
C13_5 C 0.00883(11) 0.72190(9) 0.79041(8)
C14_5 C 0.02203(11) 0.69602(9) 0.83574(8)
Zn3_5 Zn 0.250076(12) 0.803058(11) 0.682576(9)
O17_3 O 0.07790(7) 0.76923(7) 0.53842(6)
O23_5 O 0.14085(8) 0.82991(7) 0.57173(5)
O25_3 O 0.05625(8) 0.91680(6) 0.59608(5)
O26_5 O 0.19375(8) 0.91680(6) 0.65392(5)
Zn1_3 Zn 0.999924(12) 0.803058(11) 0.567424(9)
O2_3 O 0.92191(7) 0.77226(7) 0.53645(6)
O4_3 O 0.94331(8) 0.84377(6) 0.66305(5)
O5_3 O 0.85594(8) 0.81375(7) 0.58597(6)
O7_3 O 0.75448(7) 0.87759(7) 0.54448(6)
O8_3 O 0.69375(8) 0.83320(6) 0.59608(5)
C1_5 C 0.86484(11) 0.78676(9) 0.55157(8)
C4_5 C 0.80481(11) 0.76849(9) 0.52486(8)
C5_5 C 0.99117(11) 0.77810(9) 0.70959(8)
C6_5 C 0.72927(11) 0.83687(10) 0.56109(8)
C7_5 C 0.97797(11) 0.80398(9) 0.66426(8)
C8_5 C 0.74158(11) 0.79024(10) 0.53160(8)
C9_5 C 0.81222(11) 0.72844(10) 0.49343(8)
H1_5 H 0.8544 0.7139 0.4892
Li2_3 Li 0.8750 0.8750 0.62125(18)
O9_5 O 0.82790(7) 0.73077(7) 0.78842(6)
O10_5 O 0.99792(7) 0.72011(7) 0.86988(6)
O12_5 O 0.89085(8) 0.67009(7) 0.82173(5)
C11_5 C 0.94419(11) 0.73126(9) 0.77393(7)
C12_5 C 0.88366(10) 0.70860(9) 0.79702(7)
C15_5 C 0.93665(11) 0.75919(10) 0.73376(8)
H3_5 H 0.8936 0.7654 0.7227
O13_5 O 0.57809(7) 0.72774(7) 0.46355(6)
O14_5 O 0.64406(8) 0.68625(7) 0.41403(6)
O15_5 O 0.74552(7) 0.62241(7) 0.45552(6)
O16_5 O 0.80625(8) 0.66680(6) 0.40392(5)
C16_5 C 0.63516(11) 0.71324(9) 0.44843(8)
C17_5 C 0.69519(11) 0.73151(9) 0.47514(8)
C18_5 C 0.77073(11) 0.66313(10) 0.43891(8)
C19_5 C 0.75842(11) 0.70976(10) 0.46840(8)
C20_5 C 0.68778(11) 0.77156(10) 0.50657(8)
H4_5 H 0.6456 0.7861 0.5108
Zn2_3 Zn 0.750076(12) 0.946942(11) 0.567424(9)
Zn5_5 Zn 0.500076(12) 0.696942(11) 0.432576(9)
O18_3 O 0.67210(7) 0.98077(7) 0.53842(6)
O19_3 O 0.82809(7) 0.97774(7) 0.53645(6)
O20_3 O 0.74792(7) 0.97011(7) 0.63012(6)
O21_3 O 0.80669(8) 0.90623(6) 0.66305(5)
O22_3 O 0.89406(8) 0.93625(7) 0.58597(6)
O24_3 O 0.99552(7) 0.87241(7) 0.54448(6)
Li3_3 Li 0.6250 0.8782(2) 0.6250
O13_6 O 0.17191(7) 0.02226(7) 0.46355(6)
O14_6 O 0.10594(8) 0.06375(7) 0.41403(6)
O15_6 O 0.00448(7) 0.12759(7) 0.45552(6)
C16_6 C 0.11484(11) 0.03676(9) 0.44843(8)
C17_6 C 0.05481(11) 0.01849(9) 0.47514(8)
Zn5_6 Zn 0.249924(12) 0.053058(11) 0.432576(9)
C6_6 C 0.02073(11) 0.91313(10) 0.56109(8)
C8_6 C 0.00842(11) 0.95976(10) 0.53160(8)
C20_6 C 0.06222(11) 0.97844(10) 0.50657(8)
H4_6 H 0.1044 0.9639 0.5108
C9_6 C 0.93778(11) 0.02156(10) 0.49343(8)
H1_6 H 0.8956 0.0361 0.4892
C10_6 C 0.68665(11) 0.00919(10) 0.76624(8)
H2_6 H 0.6436 0.0154 0.7773
O9_6 O 0.92210(7) 0.01923(7) 0.78842(6)
O10_6 O 0.75208(7) 0.02989(7) 0.86988(6)
O11_6 O 0.69331(8) 0.09377(6) 0.83695(5)
O12_6 O 0.85915(8) 0.07991(7) 0.82173(5)
C11_6 C 0.80581(11) 0.01874(9) 0.77393(7)
C12_6 C 0.86634(10) 0.04140(9) 0.79702(7)
C13_6 C 0.74117(11) 0.02810(9) 0.79041(8)
C14_6 C 0.72797(11) 0.05398(9) 0.83574(8)
O16_6 O 0.94375(8) 0.08320(6) 0.40392(5)
C18_6 C 0.97927(11) 0.08687(10) 0.43891(8)
C19_6 C 0.99158(11) 0.04024(10) 0.46840(8)
O1_6 O 0.57790(7) 0.98077(7) 0.71158(6)
O6_6 O 0.64085(8) 0.92009(7) 0.67827(5)
C1_6 C 0.88516(11) 0.96324(9) 0.55157(8)
C2_6 C 0.69419(11) 0.98126(9) 0.72607(7)
C3_6 C 0.63366(10) 0.95860(9) 0.70298(7)
C4_6 C 0.94519(11) 0.98151(9) 0.52486(8)
C5_6 C 0.75883(11) 0.97190(9) 0.70959(8)
C7_6 C 0.77203(11) 0.94602(9) 0.66426(8)
C15_6 C 0.81335(11) 0.99081(10) 0.73376(8)
H3_6 H 0.8564 0.9846 0.7227
Zn3_6 Zn 0.499924(12) 0.946942(11) 0.682576(9)
O23_6 O 0.60915(8) 0.92009(7) 0.57173(5)
O26_6 O 0.55625(8) 0.83320(6) 0.65392(5)
O8_4 O 0.05625(8) 0.83320(6) 0.15392(5)
C6_7 C 0.02073(11) 0.83687(10) 0.18891(8)
C8_7 C 0.00842(11) 0.79024(10) 0.21840(8)
O13_7 O 0.17191(7) 0.72774(7) 0.28645(6)
O14_7 O 0.10594(8) 0.68625(7) 0.33597(6)
O15_7 O 0.00448(7) 0.62241(7) 0.29448(6)
C16_7 C 0.11484(11) 0.71324(9) 0.30157(8)
C17_7 C 0.05481(11) 0.73151(9) 0.27486(8)
C20_7 C 0.06222(11) 0.77156(10) 0.24343(8)
H4_7 H 0.1044 0.7861 0.2392
Zn5_7 Zn 0.249924(12) 0.696942(11) 0.317424(9)
O18_4 O 0.07790(7) 0.98077(7) 0.21158(6)
O20_4 O 0.00208(7) 0.97011(7) 0.11988(6)
Li3_4 Li 0.1250 0.8782(2) 0.1250
Zn1_4 Zn 0.750076(12) 0.803058(11) 0.182576(9)
O1_7 O 0.57790(7) 0.76923(7) 0.03842(6)
O2_4 O 0.82809(7) 0.77226(7) 0.21355(6)
O3_4 O 0.74792(7) 0.77989(7) 0.11988(6)
O4_4 O 0.80669(8) 0.84377(6) 0.08695(5)
O5_4 O 0.89406(8) 0.81375(7) 0.16403(6)
O6_7 O 0.64085(8) 0.82991(7) 0.07173(5)
O7_4 O 0.99552(7) 0.87759(7) 0.20552(6)
C1_7 C 0.88516(11) 0.78676(9) 0.19843(8)
C2_7 C 0.69419(11) 0.76874(9) 0.02393(7)
C3_7 C 0.63366(10) 0.79140(9) 0.04702(7)
C4_7 C 0.94519(11) 0.76849(9) 0.22514(8)
C5_7 C 0.75883(11) 0.77810(9) 0.04041(8)
C7_7 C 0.77203(11) 0.80398(9) 0.08574(8)
C9_7 C 0.93778(11) 0.72844(10) 0.25657(8)
H1_7 H 0.8956 0.7139 0.2608
Li1_4 Li 0.6250 0.8718(2) 0.1250
Li2_4 Li 0.8750 0.8750 0.12875(18)
C15_7 C 0.81335(11) 0.75919(10) 0.01624(8)
H3_7 H 0.8564 0.7654 0.0273
O16_7 O 0.94375(8) 0.66680(6) 0.34608(5)
C18_7 C 0.97927(11) 0.66313(10) 0.31109(8)
C19_7 C 0.99158(11) 0.70976(10) 0.28160(8)
Zn2_4 Zn 0.999924(12) 0.946942(11) 0.182576(9)
Zn3_7 Zn 0.499924(12) 0.803058(11) 0.067424(9)
O17_4 O 0.67210(7) 0.76923(7) 0.21158(6)
O19_4 O 0.92191(7) 0.97774(7) 0.21355(6)
O21_4 O 0.94331(8) 0.90623(6) 0.08695(5)
O22_4 O 0.85594(8) 0.93625(7) 0.16403(6)
O23_7 O 0.60915(8) 0.82991(7) 0.17827(5)
O24_4 O 0.75448(7) 0.87241(7) 0.20552(6)
O25_4 O 0.69375(8) 0.91680(6) 0.15392(5)
O26_7 O 0.55625(8) 0.91680(6) 0.09608(5)
C10_7 C 0.68665(11) 0.74081(10) 0.98376(8)
H2_7 H 0.6436 0.7346 0.9727
O9_7 O 0.92210(7) 0.73077(7) 0.96158(6)
O10_7 O 0.75208(7) 0.72011(7) 0.88012(6)
O11_7 O 0.69331(8) 0.65623(6) 0.91305(5)
O12_7 O 0.85915(8) 0.67009(7) 0.92827(5)
C11_7 C 0.80581(11) 0.73126(9) 0.97607(7)
C12_7 C 0.86634(10) 0.70860(9) 0.95298(7)
C13_7 C 0.74117(11) 0.72190(9) 0.95959(8)
C14_7 C 0.72797(11) 0.69602(9) 0.91426(8)
C10_8 C 0.06335(11) 0.00919(10) 0.98376(8)
H2_8 H 0.1064 0.0154 0.9727
O11_8 O 0.05669(8) 0.09377(6) 0.91305(5)
C13_8 C 0.00883(11) 0.02810(9) 0.95959(8)
C14_8 C 0.02203(11) 0.05398(9) 0.91426(8)
O1_8 O 0.17210(7) 0.98077(7) 0.03842(6)
O6_8 O 0.10915(8) 0.92009(7) 0.07173(5)
C2_8 C 0.05581(11) 0.98126(9) 0.02393(7)
C3_8 C 0.11634(10) 0.95860(9) 0.04702(7)
Zn3_8 Zn 0.250076(12) 0.946942(11) 0.067424(9)
O23_8 O 0.14085(8) 0.92009(7) 0.17827(5)
O26_8 O 0.19375(8) 0.83320(6) 0.09608(5)
C9_8 C 0.81222(11) 0.02156(10) 0.25657(8)
H1_8 H 0.8544 0.0361 0.2608
O13_8 O 0.57809(7) 0.02226(7) 0.28645(6)
O14_8 O 0.64406(8) 0.06375(7) 0.33597(6)
O15_8 O 0.74552(7) 0.12759(7) 0.29448(6)
O16_8 O 0.80625(8) 0.08320(6) 0.34608(5)
C16_8 C 0.63516(11) 0.03676(9) 0.30157(8)
C17_8 C 0.69519(11) 0.01849(9) 0.27486(8)
C18_8 C 0.77073(11) 0.08687(10) 0.31109(8)
C19_8 C 0.75842(11) 0.04024(10) 0.28160(8)
Zn5_8 Zn 0.500076(12) 0.053058(11) 0.317424(9)
O9_8 O 0.82790(7) 0.01923(7) 0.96158(6)
O10_8 O 0.99792(7) 0.02989(7) 0.88012(6)
O12_8 O 0.89085(8) 0.07991(7) 0.92827(5)
C11_8 C 0.94419(11) 0.01874(9) 0.97607(7)
C12_8 C 0.88366(10) 0.04140(9) 0.95298(7)
C1_8 C 0.86484(11) 0.96324(9) 0.19843(8)
C4_8 C 0.80481(11) 0.98151(9) 0.22514(8)
C5_8 C 0.99117(11) 0.97190(9) 0.04041(8)
C6_8 C 0.72927(11) 0.91313(10) 0.18891(8)
C7_8 C 0.97797(11) 0.94602(9) 0.08574(8)
C8_8 C 0.74158(11) 0.95976(10) 0.21840(8)
C15_8 C 0.93665(11) 0.99081(10) 0.01624(8)
H3_8 H 0.8936 0.9846 0.0273
C20_8 C 0.68778(11) 0.97844(10) 0.24343(8)
H4_8 H 0.6456 0.9639 0.2392
O2_5 O 0.42191(7) 0.27226(7) 0.53645(6)
O3_5 O 0.50208(7) 0.27989(7) 0.63012(6)
O4_5 O 0.44331(8) 0.34377(6) 0.66305(5)
O5_5 O 0.35594(8) 0.31375(7) 0.58597(6)
O7_5 O 0.25448(7) 0.37759(7) 0.54448(6)
C1_9 C 0.36484(11) 0.28676(9) 0.55157(8)
C2_9 C 0.55581(11) 0.26874(9) 0.72607(7)
C3_9 C 0.61634(10) 0.29140(9) 0.70298(7)
C4_9 C 0.30481(11) 0.26849(9) 0.52486(8)
C5_9 C 0.49117(11) 0.27810(9) 0.70959(8)
C6_9 C 0.22927(11) 0.33687(10) 0.56109(8)
C7_9 C 0.47797(11) 0.30398(9) 0.66426(8)
C8_9 C 0.24158(11) 0.29024(10) 0.53160(8)
C9_9 C 0.31222(11) 0.22844(10) 0.49343(8)
H1_9 H 0.3544 0.2139 0.4892
C10_9 C 0.56335(11) 0.24081(10) 0.76624(8)
H2_9 H 0.6064 0.2346 0.7773
Li2_5 Li 0.3750 0.3750 0.62125(18)
O9_9 O 0.32790(7) 0.23077(7) 0.78842(6)
O10_9 O 0.49792(7) 0.22011(7) 0.86988(6)
O11_9 O 0.55669(8) 0.15623(6) 0.83695(5)
O12_9 O 0.39085(8) 0.17009(7) 0.82173(5)
C11_9 C 0.44419(11) 0.23126(9) 0.77393(7)
C12_9 C 0.38366(10) 0.20860(9) 0.79702(7)
C13_9 C 0.50883(11) 0.22190(9) 0.79041(8)
C14_9 C 0.52203(11) 0.19602(9) 0.83574(8)
C15_9 C 0.43665(11) 0.25919(10) 0.73376(8)
H3_9 H 0.3936 0.2654 0.7227
O13_9 O 0.07809(7) 0.22774(7) 0.46355(6)
O14_9 O 0.14406(8) 0.18625(7) 0.41403(6)
O15_9 O 0.24552(7) 0.12241(7) 0.45552(6)
O16_9 O 0.30625(8) 0.16680(6) 0.40392(5)
C16_9 C 0.13516(11) 0.21324(9) 0.44843(8)
C17_9 C 0.19519(11) 0.23151(9) 0.47514(8)
C18_9 C 0.27073(11) 0.16313(10) 0.43891(8)
C19_9 C 0.25842(11) 0.20976(10) 0.46840(8)
C20_9 C 0.18778(11) 0.27156(10) 0.50657(8)
H4_9 H 0.1456 0.2861 0.5108
O19_5 O 0.32809(7) 0.47774(7) 0.53645(6)
O20_5 O 0.24792(7) 0.47011(7) 0.63012(6)
O21_5 O 0.30669(8) 0.40623(6) 0.66305(5)
O22_5 O 0.39406(8) 0.43625(7) 0.58597(6)
O24_5 O 0.49552(7) 0.37241(7) 0.54448(6)
Li4_3 Li 0.3750 0.1282(2) 0.8750
Li5_3 Li 0.3750 0.1218(2) 0.3750
C1_10 C 0.38516(11) 0.46324(9) 0.55157(8)
C2_10 C 0.19419(11) 0.48126(9) 0.72607(7)
C3_10 C 0.13366(10) 0.45860(9) 0.70298(7)
C4_10 C 0.44519(11) 0.48151(9) 0.52486(8)
C5_10 C 0.25883(11) 0.47190(9) 0.70959(8)
C6_10 C 0.52073(11) 0.41313(10) 0.56109(8)
C7_10 C 0.27203(11) 0.44602(9) 0.66426(8)
C8_10 C 0.50842(11) 0.45976(10) 0.53160(8)
C9_10 C 0.43778(11) 0.52156(10) 0.49343(8)
H1_10 H 0.3956 0.5361 0.4892
C10_10 C 0.18665(11) 0.50919(10) 0.76624(8)
H2_10 H 0.1436 0.5154 0.7773
O9_10 O 0.42210(7) 0.51923(7) 0.78842(6)
O10_10 O 0.25208(7) 0.52989(7) 0.86988(6)
O11_10 O 0.19331(8) 0.59377(6) 0.83695(5)
O12_10 O 0.35915(8) 0.57991(7) 0.82173(5)
C11_10 C 0.30581(11) 0.51874(9) 0.77393(7)
C12_10 C 0.36634(10) 0.54140(9) 0.79702(7)
C13_10 C 0.24117(11) 0.52810(9) 0.79041(8)
C14_10 C 0.22797(11) 0.55398(9) 0.83574(8)
C15_10 C 0.31335(11) 0.49081(10) 0.73376(8)
H3_10 H 0.3564 0.4846 0.7227
O13_10 O 0.67191(7) 0.52226(7) 0.46355(6)
O14_10 O 0.60594(8) 0.56375(7) 0.41403(6)
O15_10 O 0.50448(7) 0.62759(7) 0.45552(6)
O16_10 O 0.44375(8) 0.58320(6) 0.40392(5)
C16_10 C 0.61484(11) 0.53676(9) 0.44843(8)
C17_10 C 0.55481(11) 0.51849(9) 0.47514(8)
C18_10 C 0.47927(11) 0.58687(10) 0.43891(8)
C19_10 C 0.49158(11) 0.54024(10) 0.46840(8)
C20_10 C 0.56222(11) 0.47844(10) 0.50657(8)
H4_10 H 0.6044 0.4639 0.5108
Li4_4 Li 0.3750 0.6218(2) 0.8750
Li5_4 Li 0.3750 0.6282(2) 0.3750
O2_6 O 0.32809(7) 0.27226(7) 0.21355(6)
O3_6 O 0.24792(7) 0.27989(7) 0.11988(6)
O4_6 O 0.30669(8) 0.34377(6) 0.08695(5)
O5_6 O 0.39406(8) 0.31375(7) 0.16403(6)
O7_6 O 0.49552(7) 0.37759(7) 0.20552(6)
C1_11 C 0.38516(11) 0.28676(9) 0.19843(8)
C2_11 C 0.19419(11) 0.26874(9) 0.02393(7)
C3_11 C 0.13366(10) 0.29140(9) 0.04702(7)
C4_11 C 0.44519(11) 0.26849(9) 0.22514(8)
C5_11 C 0.25883(11) 0.27810(9) 0.04041(8)
C6_11 C 0.52073(11) 0.33687(10) 0.18891(8)
C7_11 C 0.27203(11) 0.30398(9) 0.08574(8)
C8_11 C 0.50842(11) 0.29024(10) 0.21840(8)
C9_11 C 0.43778(11) 0.22844(10) 0.25657(8)
H1_11 H 0.3956 0.2139 0.2608
Li2_6 Li 0.3750 0.3750 0.12875(18)
C15_11 C 0.31335(11) 0.25919(10) 0.01624(8)
H3_11 H 0.3564 0.2654 0.0273
O13_11 O 0.67191(7) 0.22774(7) 0.28645(6)
O14_11 O 0.60594(8) 0.18625(7) 0.33597(6)
O15_11 O 0.50448(7) 0.12241(7) 0.29448(6)
O16_11 O 0.44375(8) 0.16680(6) 0.34608(5)
C16_11 C 0.61484(11) 0.21324(9) 0.30157(8)
C17_11 C 0.55481(11) 0.23151(9) 0.27486(8)
C18_11 C 0.47927(11) 0.16313(10) 0.31109(8)
C19_11 C 0.49158(11) 0.20976(10) 0.28160(8)
C20_11 C 0.56222(11) 0.27156(10) 0.24343(8)
H4_11 H 0.6044 0.2861 0.2392
O19_6 O 0.42191(7) 0.47774(7) 0.21355(6)
O20_6 O 0.50208(7) 0.47011(7) 0.11988(6)
O21_6 O 0.44331(8) 0.40623(6) 0.08695(5)
O22_6 O 0.35594(8) 0.43625(7) 0.16403(6)
O24_6 O 0.25448(7) 0.37241(7) 0.20552(6)
C10_11 C 0.18665(11) 0.24081(10) 0.98376(8)
H2_11 H 0.1436 0.2346 0.9727
O9_11 O 0.42210(7) 0.23077(7) 0.96158(6)
O10_11 O 0.25208(7) 0.22011(7) 0.88012(6)
O11_11 O 0.19331(8) 0.15623(6) 0.91305(5)
O12_11 O 0.35915(8) 0.17009(7) 0.92827(5)
C11_11 C 0.30581(11) 0.23126(9) 0.97607(7)
C12_11 C 0.36634(10) 0.20860(9) 0.95298(7)
C13_11 C 0.24117(11) 0.22190(9) 0.95959(8)
C14_11 C 0.22797(11) 0.19602(9) 0.91426(8)
C1_12 C 0.36484(11) 0.46324(9) 0.19843(8)
C2_12 C 0.55581(11) 0.48126(9) 0.02393(7)
C3_12 C 0.61634(10) 0.45860(9) 0.04702(7)
C4_12 C 0.30481(11) 0.48151(9) 0.22514(8)
C5_12 C 0.49117(11) 0.47190(9) 0.04041(8)
C6_12 C 0.22927(11) 0.41313(10) 0.18891(8)
C7_12 C 0.47797(11) 0.44602(9) 0.08574(8)
C8_12 C 0.24158(11) 0.45976(10) 0.21840(8)
C9_12 C 0.31222(11) 0.52156(10) 0.25657(8)
H1_12 H 0.3544 0.5361 0.2608
C15_12 C 0.43665(11) 0.49081(10) 0.01624(8)
H3_12 H 0.3936 0.4846 0.0273
O13_12 O 0.07809(7) 0.52226(7) 0.28645(6)
O14_12 O 0.14406(8) 0.56375(7) 0.33597(6)
O15_12 O 0.24552(7) 0.62759(7) 0.29448(6)
O16_12 O 0.30625(8) 0.58320(6) 0.34608(5)
C16_12 C 0.13516(11) 0.53676(9) 0.30157(8)
C17_12 C 0.19519(11) 0.51849(9) 0.27486(8)
C18_12 C 0.27073(11) 0.58687(10) 0.31109(8)
C19_12 C 0.25842(11) 0.54024(10) 0.28160(8)
C20_12 C 0.18778(11) 0.47844(10) 0.24343(8)
H4_12 H 0.1456 0.4639 0.2392
C10_12 C 0.56335(11) 0.50919(10) 0.98376(8)
H2_12 H 0.6064 0.5154 0.9727
O9_12 O 0.32790(7) 0.51923(7) 0.96158(6)
O10_12 O 0.49792(7) 0.52989(7) 0.88012(6)
O11_12 O 0.55669(8) 0.59377(6) 0.91305(5)
O12_12 O 0.39085(8) 0.57991(7) 0.92827(5)
C11_12 C 0.44419(11) 0.51874(9) 0.97607(7)
C12_12 C 0.38366(10) 0.54140(9) 0.95298(7)
C13_12 C 0.50883(11) 0.52810(9) 0.95959(8)
C14_12 C 0.52203(11) 0.55398(9) 0.91426(8)
O2_7 O 0.42191(7) 0.77226(7) 0.03645(6)
O3_7 O 0.50208(7) 0.77989(7) 0.13012(6)
O4_7 O 0.44331(8) 0.84377(6) 0.16305(5)
O5_7 O 0.35594(8) 0.81375(7) 0.08597(6)
O7_7 O 0.25448(7) 0.87759(7) 0.04448(6)
C1_13 C 0.36484(11) 0.78676(9) 0.05157(8)
C2_13 C 0.55581(11) 0.76874(9) 0.22607(7)
C3_13 C 0.61634(10) 0.79140(9) 0.20298(7)
C4_13 C 0.30481(11) 0.76849(9) 0.02486(8)
C5_13 C 0.49117(11) 0.77810(9) 0.20959(8)
C6_13 C 0.22927(11) 0.83687(10) 0.06109(8)
C7_13 C 0.47797(11) 0.80398(9) 0.16426(8)
C8_13 C 0.24158(11) 0.79024(10) 0.03160(8)
C10_13 C 0.56335(11) 0.74081(10) 0.26624(8)
H2_13 H 0.6064 0.7346 0.2773
Li2_7 Li 0.3750 0.8750 0.12125(18)
O9_13 O 0.32790(7) 0.73077(7) 0.28842(6)
O10_13 O 0.49792(7) 0.72011(7) 0.36988(6)
O11_13 O 0.55669(8) 0.65623(6) 0.33695(5)
O12_13 O 0.39085(8) 0.67009(7) 0.32173(5)
C11_13 C 0.44419(11) 0.73126(9) 0.27393(7)
C12_13 C 0.38366(10) 0.70860(9) 0.29702(7)
C13_13 C 0.50883(11) 0.72190(9) 0.29041(8)
C14_13 C 0.52203(11) 0.69602(9) 0.33574(8)
C15_13 C 0.43665(11) 0.75919(10) 0.23376(8)
H3_13 H 0.3936 0.7654 0.2227
C20_13 C 0.18778(11) 0.77156(10) 0.00657(8)
H4_13 H 0.1456 0.7861 0.0108
O19_7 O 0.32809(7) 0.97774(7) 0.03645(6)
O20_7 O 0.24792(7) 0.97011(7) 0.13012(6)
O21_7 O 0.30669(8) 0.90623(6) 0.16305(5)
O22_7 O 0.39406(8) 0.93625(7) 0.08597(6)
O24_7 O 0.49552(7) 0.87241(7) 0.04448(6)
C9_13 C 0.31222(11) 0.72844(10) 0.99343(8)
H1_13 H 0.3544 0.7139 0.9892
O13_13 O 0.07809(7) 0.72774(7) 0.96355(6)
O14_13 O 0.14406(8) 0.68625(7) 0.91403(6)
O15_13 O 0.24552(7) 0.62241(7) 0.95552(6)
O16_13 O 0.30625(8) 0.66680(6) 0.90392(5)
C16_13 C 0.13516(11) 0.71324(9) 0.94843(8)
C17_13 C 0.19519(11) 0.73151(9) 0.97514(8)
C18_13 C 0.27073(11) 0.66313(10) 0.93891(8)
C19_13 C 0.25842(11) 0.70976(10) 0.96840(8)
C10_14 C 0.18665(11) 0.00919(10) 0.26624(8)
H2_14 H 0.1436 0.0154 0.2773
O9_14 O 0.42210(7) 0.01923(7) 0.28842(6)
O10_14 O 0.25208(7) 0.02989(7) 0.36988(6)
O11_14 O 0.19331(8) 0.09377(6) 0.33695(5)
O12_14 O 0.35915(8) 0.07991(7) 0.32173(5)
C11_14 C 0.30581(11) 0.01874(9) 0.27393(7)
C12_14 C 0.36634(10) 0.04140(9) 0.29702(7)
C13_14 C 0.24117(11) 0.02810(9) 0.29041(8)
C14_14 C 0.22797(11) 0.05398(9) 0.33574(8)
C9_14 C 0.43778(11) 0.02156(10) 0.99343(8)
H1_14 H 0.3956 0.0361 0.9892
O13_14 O 0.67191(7) 0.02226(7) 0.96355(6)
O14_14 O 0.60594(8) 0.06375(7) 0.91403(6)
O15_14 O 0.50448(7) 0.12759(7) 0.95552(6)
O16_14 O 0.44375(8) 0.08320(6) 0.90392(5)
C16_14 C 0.61484(11) 0.03676(9) 0.94843(8)
C17_14 C 0.55481(11) 0.01849(9) 0.97514(8)
C18_14 C 0.47927(11) 0.08687(10) 0.93891(8)
C19_14 C 0.49158(11) 0.04024(10) 0.96840(8)
C1_14 C 0.38516(11) 0.96324(9) 0.05157(8)
C2_14 C 0.19419(11) 0.98126(9) 0.22607(7)
C3_14 C 0.13366(10) 0.95860(9) 0.20298(7)
C4_14 C 0.44519(11) 0.98151(9) 0.02486(8)
C5_14 C 0.25883(11) 0.97190(9) 0.20959(8)
C6_14 C 0.52073(11) 0.91313(10) 0.06109(8)
C7_14 C 0.27203(11) 0.94602(9) 0.16426(8)
C8_14 C 0.50842(11) 0.95976(10) 0.03160(8)
C15_14 C 0.31335(11) 0.99081(10) 0.23376(8)
H3_14 H 0.3564 0.9846 0.2227
C20_14 C 0.56222(11) 0.97844(10) 0.00657(8)
H4_14 H 0.6044 0.9639 0.0108
O2_8 O 0.32809(7) 0.77226(7) 0.71355(6)
O3_8 O 0.24792(7) 0.77989(7) 0.61988(6)
O4_8 O 0.30669(8) 0.84377(6) 0.58695(5)
O5_8 O 0.39406(8) 0.81375(7) 0.66403(6)
O7_8 O 0.49552(7) 0.87759(7) 0.70552(6)
C1_15 C 0.38516(11) 0.78676(9) 0.69843(8)
C2_15 C 0.19419(11) 0.76874(9) 0.52393(7)
C3_15 C 0.13366(10) 0.79140(9) 0.54702(7)
C4_15 C 0.44519(11) 0.76849(9) 0.72514(8)
C5_15 C 0.25883(11) 0.77810(9) 0.54041(8)
C6_15 C 0.52073(11) 0.83687(10) 0.68891(8)
C7_15 C 0.27203(11) 0.80398(9) 0.58574(8)
C8_15 C 0.50842(11) 0.79024(10) 0.71840(8)
C9_15 C 0.43778(11) 0.72844(10) 0.75657(8)
H1_15 H 0.3956 0.7139 0.7608
C10_15 C 0.18665(11) 0.74081(10) 0.48376(8)
H2_15 H 0.1436 0.7346 0.4727
Li2_8 Li 0.3750 0.8750 0.62875(18)
O9_15 O 0.42210(7) 0.73077(7) 0.46158(6)
O10_15 O 0.25208(7) 0.72011(7) 0.38012(6)
O11_15 O 0.19331(8) 0.65623(6) 0.41305(5)
O12_15 O 0.35915(8) 0.67009(7) 0.42827(5)
C11_15 C 0.30581(11) 0.73126(9) 0.47607(7)
C12_15 C 0.36634(10) 0.70860(9) 0.45298(7)
C13_15 C 0.24117(11) 0.72190(9) 0.45959(8)
C14_15 C 0.22797(11) 0.69602(9) 0.41426(8)
C15_15 C 0.31335(11) 0.75919(10) 0.51624(8)
H3_15 H 0.3564 0.7654 0.5273
O13_15 O 0.67191(7) 0.72774(7) 0.78645(6)
O14_15 O 0.60594(8) 0.68625(7) 0.83597(6)
O15_15 O 0.50448(7) 0.62241(7) 0.79448(6)
O16_15 O 0.44375(8) 0.66680(6) 0.84608(5)
C16_15 C 0.61484(11) 0.71324(9) 0.80157(8)
C17_15 C 0.55481(11) 0.73151(9) 0.77486(8)
C18_15 C 0.47927(11) 0.66313(10) 0.81109(8)
C19_15 C 0.49158(11) 0.70976(10) 0.78160(8)
C20_15 C 0.56222(11) 0.77156(10) 0.74343(8)
H4_15 H 0.6044 0.7861 0.7392
O19_8 O 0.42191(7) 0.97774(7) 0.71355(6)
O20_8 O 0.50208(7) 0.97011(7) 0.61988(6)
O21_8 O 0.44331(8) 0.90623(6) 0.58695(5)
O22_8 O 0.35594(8) 0.93625(7) 0.66403(6)
O24_8 O 0.25448(7) 0.87241(7) 0.70552(6)
C9_16 C 0.31222(11) 0.02156(10) 0.75657(8)
H1_16 H 0.3544 0.0361 0.7608
C10_16 C 0.56335(11) 0.00919(10) 0.48376(8)
H2_16 H 0.6064 0.0154 0.4727
O9_16 O 0.32790(7) 0.01923(7) 0.46158(6)
O10_16 O 0.49792(7) 0.02989(7) 0.38012(6)
O11_16 O 0.55669(8) 0.09377(6) 0.41305(5)
O12_16 O 0.39085(8) 0.07991(7) 0.42827(5)
C11_16 C 0.44419(11) 0.01874(9) 0.47607(7)
C12_16 C 0.38366(10) 0.04140(9) 0.45298(7)
C13_16 C 0.50883(11) 0.02810(9) 0.45959(8)
C14_16 C 0.52203(11) 0.05398(9) 0.41426(8)
O13_16 O 0.07809(7) 0.02226(7) 0.78645(6)
O14_16 O 0.14406(8) 0.06375(7) 0.83597(6)
O15_16 O 0.24552(7) 0.12759(7) 0.79448(6)
O16_16 O 0.30625(8) 0.08320(6) 0.84608(5)
C16_16 C 0.13516(11) 0.03676(9) 0.80157(8)
C17_16 C 0.19519(11) 0.01849(9) 0.77486(8)
C18_16 C 0.27073(11) 0.08687(10) 0.81109(8)
C19_16 C 0.25842(11) 0.04024(10) 0.78160(8)
C1_16 C 0.36484(11) 0.96324(9) 0.69843(8)
C2_16 C 0.55581(11) 0.98126(9) 0.52393(7)
C3_16 C 0.61634(10) 0.95860(9) 0.54702(7)
C4_16 C 0.30481(11) 0.98151(9) 0.72514(8)
C5_16 C 0.49117(11) 0.97190(9) 0.54041(8)
C6_16 C 0.22927(11) 0.91313(10) 0.68891(8)
C7_16 C 0.47797(11) 0.94602(9) 0.58574(8)
C8_16 C 0.24158(11) 0.95976(10) 0.71840(8)
C15_16 C 0.43665(11) 0.99081(10) 0.51624(8)
H3_16 H 0.3936 0.9846 0.5273
C20_16 C 0.18778(11) 0.97844(10) 0.74343(8)
H4_16 H 0.1456 0.9639 0.7392
loop_
_geom_bond_atom_site_label_1
_geom_bond_atom_site_label_2
_geom_bond_site_symmetry_1
_geom_bond_site_symmetry_2
O1 C3 1_555 1_555
O6 C3 1_555 1_555
C2 C3 1_555 1_555
C10 C2 1_555 1_555
H2 C10 1_555 1_555
Li1 O6 1_555 1_555
O11 C14 1_555 1_555
C13 C10 1_555 1_555
C14 C13 1_555 1_555
Zn3 O1 1_555 1_555
O23 Li1 1_555 1_555
O25 Li1 1_555 1_555
O26 Li1 1_555 1_555
Li6 O11 1_555 1_555
Zn1 O2 1_555 1_555
O2 C1 1_555 1_555
O4 C7 1_555 1_555
O5 C1 1_555 1_555
O7 C6 1_555 1_555
O8 C6 1_555 1_555
C1 C4 1_555 1_555
C4 C8 1_555 1_555
C6 C8 1_555 1_555
C8 C20 1_555 1_555
Li2 O4 1_555 1_555
O9 C12 1_555 1_555
O12 C12 1_555 1_555
C11 C12 1_555 1_555
C15 C5 1_555 1_555
H3 C15 1_555 1_555
H4 C20 1_555 1_555
Zn2 O7 1_555 1_555
Zn7 O9 1_555 1_555
O18 Zn2 1_555 1_555
O19 Zn2 1_555 1_555
O20 Zn2 1_555 1_555
O21 Li2 1_555 1_555
O22 Li2 1_555 1_555
O24 Zn1 1_555 1_555
Li3 O8 1_555 1_555
Li4 O12 1_555 1_555
O5 Li2 1_555 1_555
C5 C7 1_555 1_555
C11 C15 1_555 1_555
H1 C9 1_555 1_555
O13 C16 1_555 1_555
O14 C16 1_555 1_555
O15 C18 1_555 1_555
O16 C18 1_555 1_555
C16 C17 1_555 1_555
C17 C19 1_555 1_555
C18 C19 1_555 1_555
C19 C9 1_555 1_555
Zn5 O13 1_555 1_555
Zn6 O15 1_555 1_555
Li5 O16 1_555 1_555
Li7 O14 1_555 1_555
O25 C6_2 1_555 1_555
C6_2 C8_2 1_555 1_555
C8_2 C20_2 1_555 1_555
H4_2 C20_2 1_555 1_555
O13_2 C16_2 1_555 1_555
O14_2 C16_2 1_555 1_555
C16_2 C17_2 1_555 1_555
Zn5_2 O13_2 1_555 1_555
Zn6_2 O15_2 1_555 1_555
Li7_2 O14_2 1_555 1_555
O1_2 C3_2 1_555 1_555
O19 C1_2 1_555 1_555
O21 C7_2 1_555 1_555
O22 C1_2 1_555 1_555
O6_2 C3_2 1_555 1_555
C1_2 C4_2 1_555 1_555
C2_2 C3_2 1_555 1_555
C5_2 C2_2 1_555 1_555
C7_2 O20 1_555 1_555
C10_2 C2_2 1_555 1_555
H2_2 C10_2 1_555 1_555
Li3 O6_2 1_555 1_555
O9_2 C12_2 1_555 1_555
O10_2 C14_2 1_555 1_555
O11_2 C14_2 1_555 1_555
O12_2 C12_2 1_555 1_555
C11_2 C12_2 1_555 1_555
C13_2 C10_2 1_555 1_555
C14_2 C13_2 1_555 1_555
C15_2 C5_2 1_555 1_555
H3_2 C15_2 1_555 1_555
Zn3_2 O1_2 1_555 1_555
Zn4_2 O10_2 1_555 1_555
O23_2 Li3 1_555 1_555
O26_2 Li3 1_555 1_555
Li4_2 O12_2 1_555 1_555
Li6_2 O11_2 1_555 1_555
C5_2 C7_2 1_555 1_555
C11_2 C13_2 1_555 1_555
C11_2 C15_2 1_555 1_555
H1_2 C9_2 1_555 1_555
O16_2 C18_2 1_555 1_555
C18_2 C19_2 1_555 1_555
C19_2 C9_2 1_555 1_555
Li5_2 O16_2 1_555 1_555
O8_2 C6_3 1_555 1_555
C6_3 C8_3 1_555 1_555
C8_3 C20_3 1_555 1_555
O13_3 C16_3 1_555 1_555
O14_3 C16_3 1_555 1_555
C16_3 C17_3 1_555 1_555
C20_3 C17_3 1_555 1_555
H4_3 C20_3 1_555 1_555
Zn5_3 O13_3 1_555 1_555
Zn6_3 O15_3 1_555 1_555
Li3_2 O8_2 1_555 1_555
Li7_3 O14_3 1_555 1_555
Zn1_2 O2_2 1_555 1_555
O1_3 C3_3 1_555 1_555
O2_2 C1_3 1_555 1_555
O3_2 Zn1_2 1_555 1_555
O4_2 C7_3 1_555 1_555
O5_2 C1_3 1_555 1_555
O6_3 C3_3 1_555 1_555
C1_3 C4_3 1_555 1_555
C2_3 C3_3 1_555 1_555
C5_3 C2_3 1_555 1_555
C7_3 O3_2 1_555 1_555
C9_3 C4_3 1_555 1_555
H1_3 C9_3 1_555 1_555
C10_3 C2_3 1_555 1_555
H2_3 C10_3 1_555 1_555
Li1_2 O6_3 1_555 1_555
Li2_2 O4_2 1_555 1_555
O9_3 C12_3 1_555 1_555
O10_3 C14_3 1_555 1_555
O11_3 C14_3 1_555 1_555
O12_3 C12_3 1_555 1_555
C11_3 C12_3 1_555 1_555
C13_3 C10_3 1_555 1_555
C14_3 C13_3 1_555 1_555
C15_3 C5_3 1_555 1_555
H3_3 C15_3 1_555 1_555
O16_3 C18_3 1_555 1_555
C18_3 C19_3 1_555 1_555
C19_3 C9_3 1_555 1_555
Zn2_2 O7_2 1_555 1_555
Zn3_3 O1_3 1_555 1_555
Zn7 O10_3 1_555 1_555
O17_2 Zn1_2 1_555 1_555
O19_2 Zn2_2 1_555 1_555
O21_2 Li2_2 1_555 1_555
O22_2 Li2_2 1_555 1_555
O23_3 Li1_2 1_555 1_555
O24_2 Zn1_2 1_555 1_555
O25_2 Li1_2 1_555 1_555
O26_3 Li1_2 1_555 1_555
Li4 O12_3 1_555 1_555
Li5 O16_3 1_555 1_555
Li6_3 O11_3 1_555 1_555
O5_2 Li2_2 1_555 1_555
C5_3 C7_3 1_555 1_555
C11_3 C13_3 1_555 1_555
C11_3 C15_3 1_555 1_555
O1_4 C3_4 1_555 1_555
O6_4 C3_4 1_555 1_555
C2_4 C3_4 1_555 1_555
C10_4 C2_4 1_555 1_555
H2_4 C10_4 1_555 1_555
Li3_2 O6_4 1_555 1_555
O11_4 C14_4 1_555 1_555
C13_4 C10_4 1_555 1_555
C14_4 C13_4 1_555 1_555
Zn3_4 O1_4 1_555 1_555
O23_4 Li3_2 1_555 1_555
O26_4 Li3_2 1_555 1_555
Li6_4 O11_4 1_555 1_555
O19_2 C1_4 1_555 1_555
O21_2 C7_4 1_555 1_555
O22_2 C1_4 1_555 1_555
O24_2 C6_4 1_555 1_555
O25_2 C6_4 1_555 1_555
C1_4 C4_4 1_555 1_555
C4_4 C8_4 1_555 1_555
C6_4 C8_4 1_555 1_555
C8_4 C20_4 1_555 1_555
C9_4 C4_4 1_555 1_555
H1_4 C9_4 1_555 1_555
O9_4 C12_4 1_555 1_555
O12_4 C12_4 1_555 1_555
C11_4 C12_4 1_555 1_555
C15_4 C5_4 1_555 1_555
H3_4 C15_4 1_555 1_555
O13_4 C16_4 1_555 1_555
O14_4 C16_4 1_555 1_555
O15_4 C18_4 1_555 1_555
O16_4 C18_4 1_555 1_555
C16_4 C17_4 1_555 1_555
C17_4 C19_4 1_555 1_555
C18_4 C19_4 1_555 1_555
C19_4 C9_4 1_555 1_555
C20_4 C17_4 1_555 1_555
H4_4 C20_4 1_555 1_555
Zn5_4 O13_4 1_555 1_555
Zn6_4 O15_4 1_555 1_555
Zn4_2 O9_4 1_555 1_555
Li4_2 O12_4 1_555 1_555
Li5_2 O16_4 1_555 1_555
Li7_4 O14_4 1_555 1_555
C5_4 C7_4 1_555 1_555
C11_4 C15_4 1_555 1_555
O1_5 C3_5 1_555 1_555
O6_5 C3_5 1_555 1_555
C2_5 C3_5 1_555 1_555
C10_5 C2_5 1_555 1_555
H2_5 C10_5 1_555 1_555
Li1_3 O6_5 1_555 1_555
O11_5 C14_5 1_555 1_555
C13_5 C10_5 1_555 1_555
C14_5 C13_5 1_555 1_555
Zn3_5 O1_5 1_555 1_555
O23_5 Li1_3 1_555 1_555
O25_3 Li1_3 1_555 1_555
O26_5 Li1_3 1_555 1_555
Li7_2 O11_5 1_555 1_555
Zn1_3 O2_3 1_555 1_555
O2_3 C1_5 1_555 1_555
O4_3 C7_5 1_555 1_555
O5_3 C1_5 1_555 1_555
O7_3 C6_5 1_555 1_555
O8_3 C6_5 1_555 1_555
C1_5 C4_5 1_555 1_555
C4_5 C8_5 1_555 1_555
C6_5 C8_5 1_555 1_555
C8_5 C20_5 1_555 1_555
C9_5 C4_5 1_555 1_555
H1_5 C9_5 1_555 1_555
Li2_3 O4_3 1_555 1_555
O9_5 C12_5 1_555 1_555
O12_5 C12_5 1_555 1_555
C11_5 C12_5 1_555 1_555
C15_5 C5_5 1_555 1_555
H3_5 C15_5 1_555 1_555
O13_5 C16_5 1_555 1_555
O14_5 C16_5 1_555 1_555
O15_5 C18_5 1_555 1_555
O16_5 C18_5 1_555 1_555
C16_5 C17_5 1_555 1_555
C17_5 C19_5 1_555 1_555
C18_5 C19_5 1_555 1_555
C19_5 C9_5 1_555 1_555
C20_5 C17_5 1_555 1_555
H4_5 C20_5 1_555 1_555
Zn2_3 O7_3 1_555 1_555
Zn5_5 O13_5 1_555 1_555
Zn4_2 O15_5 1_555 1_555
Zn6_4 O9_5 1_555 1_555
O18_3 Zn2_3 1_555 1_555
O19_3 Zn2_3 1_555 1_555
O20_3 Zn2_3 1_555 1_555
O21_3 Li2_3 1_555 1_555
O22_3 Li2_3 1_555 1_555
O24_3 Zn1_3 1_555 1_555
Li3_3 O8_3 1_555 1_555
Li5_2 O12_5 1_555 1_555
Li4_2 O16_5 1_555 1_555
Li6_2 O14_5 1_555 1_555
O5_3 Li2_3 1_555 1_555
C5_5 C7_5 1_555 1_555
C11_5 C15_5 1_555 1_555
O13_6 C16_6 1_555 1_555
O14_6 C16_6 1_555 1_555
C16_6 C17_6 1_555 1_555
Zn5_6 O13_6 1_555 1_555
Zn4 O15_6 1_555 1_555
Li6 O14_6 1_555 1_555
O25_3 C6_6 1_555 1_555
C6_6 C8_6 1_555 1_555
C8_6 C20_6 1_555 1_555
H4_6 C20_6 1_555 1_555
H1_6 C9_6 1_555 1_555
H2_6 C10_6 1_555 1_555
O9_6 C12_6 1_555 1_555
O10_6 C14_6 1_555 1_555
O11_6 C14_6 1_555 1_555
O12_6 C12_6 1_555 1_555
C11_6 C12_6 1_555 1_555
C13_6 C10_6 1_555 1_555
C14_6 C13_6 1_555 1_555
O16_6 C18_6 1_555 1_555
C18_6 C19_6 1_555 1_555
C19_6 C9_6 1_555 1_555
Zn6 O10_6 1_555 1_555
Li5 O12_6 1_555 1_555
Li4 O16_6 1_555 1_555
Li7 O11_6 1_555 1_555
C11_6 C13_6 1_555 1_555
O1_6 C3_6 1_555 1_555
O19_3 C1_6 1_555 1_555
O21_3 C7_6 1_555 1_555
O22_3 C1_6 1_555 1_555
O6_6 C3_6 1_555 1_555
C1_6 C4_6 1_555 1_555
C2_6 C3_6 1_555 1_555
C5_6 C2_6 1_555 1_555
C7_6 O20_3 1_555 1_555
Li3_3 O6_6 1_555 1_555
C15_6 C5_6 1_555 1_555
H3_6 C15_6 1_555 1_555
Zn3_6 O1_6 1_555 1_555
O23_6 Li3_3 1_555 1_555
O26_6 Li3_3 1_555 1_555
C5_6 C7_6 1_555 1_555
O8_4 C6_7 1_555 1_555
C6_7 C8_7 1_555 1_555
C8_7 C20_7 1_555 1_555
O13_7 C16_7 1_555 1_555
O14_7 C16_7 1_555 1_555
C16_7 C17_7 1_555 1_555
C20_7 C17_7 1_555 1_555
H4_7 C20_7 1_555 1_555
Zn5_7 O13_7 1_555 1_555
Zn7_2 O15_7 1_555 1_555
Li3_4 O8_4 1_555 1_555
Li6_4 O14_7 1_555 1_555
Zn1_4 O2_4 1_555 1_555
O1_7 C3_7 1_555 1_555
O2_4 C1_7 1_555 1_555
O3_4 Zn1_4 1_555 1_555
O4_4 C7_7 1_555 1_555
O5_4 C1_7 1_555 1_555
O6_7 C3_7 1_555 1_555
C1_7 C4_7 1_555 1_555
C2_7 C3_7 1_555 1_555
C5_7 C2_7 1_555 1_555
C7_7 O3_4 1_555 1_555
C9_7 C4_7 1_555 1_555
H1_7 C9_7 1_555 1_555
Li1_4 O6_7 1_555 1_555
Li2_4 O4_4 1_555 1_555
C15_7 C5_7 1_555 1_555
H3_7 C15_7 1_555 1_555
O16_7 C18_7 1_555 1_555
C18_7 C19_7 1_555 1_555
C19_7 C9_7 1_555 1_555
Zn2_4 O7_4 1_555 1_555
Zn3_7 O1_7 1_555 1_555
O17_4 Zn1_4 1_555 1_555
O19_4 Zn2_4 1_555 1_555
O21_4 Li2_4 1_555 1_555
O22_4 Li2_4 1_555 1_555
O23_7 Li1_4 1_555 1_555
O24_4 Zn1_4 1_555 1_555
O25_4 Li1_4 1_555 1_555
O26_7 Li1_4 1_555 1_555
Li4_2 O16_7 1_555 1_555
O5_4 Li2_4 1_555 1_555
C5_7 C7_7 1_555 1_555
H2_7 C10_7 1_555 1_555
O9_7 C12_7 1_555 1_555
O10_7 C14_7 1_555 1_555
O11_7 C14_7 1_555 1_555
O12_7 C12_7 1_555 1_555
C11_7 C12_7 1_555 1_555
C13_7 C10_7 1_555 1_555
C14_7 C13_7 1_555 1_555
Zn6_4 O10_7 1_555 1_555
Li5_2 O12_7 1_555 1_555
Li7_4 O11_7 1_555 1_555
C11_7 C13_7 1_555 1_555
H2_8 C10_8 1_555 1_555
O11_8 C14_8 1_555 1_555
C13_8 C10_8 1_555 1_555
C14_8 C13_8 1_555 1_555
Li7_3 O11_8 1_555 1_555
O1_8 C3_8 1_555 1_555
O6_8 C3_8 1_555 1_555
C2_8 C3_8 1_555 1_555
Li3_4 O6_8 1_555 1_555
Zn3_8 O1_8 1_555 1_555
O23_8 Li3_4 1_555 1_555
O26_8 Li3_4 1_555 1_555
H1_8 C9_8 1_555 1_555
O13_8 C16_8 1_555 1_555
O14_8 C16_8 1_555 1_555
O15_8 C18_8 1_555 1_555
O16_8 C18_8 1_555 1_555
C16_8 C17_8 1_555 1_555
C17_8 C19_8 1_555 1_555
C18_8 C19_8 1_555 1_555
C19_8 C9_8 1_555 1_555
Zn5_8 O13_8 1_555 1_555
Zn7 O15_8 1_555 1_555
Li4 O16_8 1_555 1_555
Li6_3 O14_8 1_555 1_555
O9_8 C12_8 1_555 1_555
O12_8 C12_8 1_555 1_555
C11_8 C12_8 1_555 1_555
Zn6 O9_8 1_555 1_555
Li5 O12_8 1_555 1_555
O19_4 C1_8 1_555 1_555
O21_4 C7_8 1_555 1_555
O22_4 C1_8 1_555 1_555
O24_4 C6_8 1_555 1_555
O25_4 C6_8 1_555 1_555
C1_8 C4_8 1_555 1_555
C4_8 C8_8 1_555 1_555
C6_8 C8_8 1_555 1_555
C8_8 C20_8 1_555 1_555
C15_8 C5_8 1_555 1_555
H3_8 C15_8 1_555 1_555
H4_8 C20_8 1_555 1_555
C5_8 C7_8 1_555 1_555
Zn3_3 O2_5 1_555 1_555
O17_2 C3_9 1_555 1_555
O2_5 C1_9 1_555 1_555
O3_5 Zn3_3 1_555 1_555
O4_5 C7_9 1_555 1_555
O5_5 C1_9 1_555 1_555
O23_3 C3_9 1_555 1_555
O7_5 C6_9 1_555 1_555
O26_4 C6_9 1_555 1_555
C1_9 C4_9 1_555 1_555
C2_9 C3_9 1_555 1_555
C4_9 C8_9 1_555 1_555
C5_9 C2_9 1_555 1_555
C6_9 C8_9 1_555 1_555
C7_9 O3_5 1_555 1_555
C8_9 C20_9 1_555 1_555
C9_9 C4_9 1_555 1_555
H1_9 C9_9 1_555 1_555
C10_9 C2_9 1_555 1_555
H2_9 C10_9 1_555 1_555
Li2_5 O4_5 1_555 1_555
O9_9 C12_9 1_555 1_555
O10_9 C14_9 1_555 1_555
O11_9 C14_9 1_555 1_555
O12_9 C12_9 1_555 1_555
C11_9 C12_9 1_555 1_555
C13_9 C10_9 1_555 1_555
C14_9 C13_9 1_555 1_555
C15_9 C5_9 1_555 1_555
H3_9 C15_9 1_555 1_555
O13_9 C16_9 1_555 1_555
O14_9 C16_9 1_555 1_555
O15_9 C18_9 1_555 1_555
O16_9 C18_9 1_555 1_555
C16_9 C17_9 1_555 1_555
C17_9 C19_9 1_555 1_555
C18_9 C19_9 1_555 1_555
C19_9 C9_9 1_555 1_555
C20_9 C17_9 1_555 1_555
H4_9 C20_9 1_555 1_555
Zn3_4 O7_5 1_555 1_555
Zn5 O10_9 1_555 1_555
Zn4 O13_9 1_555 1_555
Zn5_6 O15_9 1_555 1_555
Zn5_3 O9_9 1_555 1_555
O19_5 Zn3_4 1_555 1_555
O20_5 Zn3_4 1_555 1_555
O21_5 Li2_5 1_555 1_555
O22_5 Li2_5 1_555 1_555
O24_5 Zn3_3 1_555 1_555
Li4_3 O12_9 1_555 1_555
Li5_3 O16_9 1_555 1_555
Li7 O11_9 1_555 1_555
Li6 O14_9 1_555 1_555
O5_5 Li2_5 1_555 1_555
C5_9 C7_9 1_555 1_555
C11_9 C13_9 1_555 1_555
C11_9 C15_9 1_555 1_555
O18_2 C3_10 1_555 1_555
O19_5 C1_10 1_555 1_555
O21_5 C7_10 1_555 1_555
O22_5 C1_10 1_555 1_555
O23_4 C3_10 1_555 1_555
O24_5 C6_10 1_555 1_555
O26_3 C6_10 1_555 1_555
C1_10 C4_10 1_555 1_555
C2_10 C3_10 1_555 1_555
C4_10 C8_10 1_555 1_555
C5_10 C2_10 1_555 1_555
C6_10 C8_10 1_555 1_555
C7_10 O20_5 1_555 1_555
C8_10 C20_10 1_555 1_555
C9_10 C4_10 1_555 1_555
H1_10 C9_10 1_555 1_555
C10_10 C2_10 1_555 1_555
H2_10 C10_10 1_555 1_555
O9_10 C12_10 1_555 1_555
O10_10 C14_10 1_555 1_555
O11_10 C14_10 1_555 1_555
O12_10 C12_10 1_555 1_555
C11_10 C12_10 1_555 1_555
C13_10 C10_10 1_555 1_555
C14_10 C13_10 1_555 1_555
C15_10 C5_10 1_555 1_555
H3_10 C15_10 1_555 1_555
O13_10 C16_10 1_555 1_555
O14_10 C16_10 1_555 1_555
O15_10 C18_10 1_555 1_555
O16_10 C18_10 1_555 1_555
C16_10 C17_10 1_555 1_555
C17_10 C19_10 1_555 1_555
C18_10 C19_10 1_555 1_555
C19_10 C9_10 1_555 1_555
C20_10 C17_10 1_555 1_555
H4_10 C20_10 1_555 1_555
Zn5_2 O10_10 1_555 1_555
Zn4_2 O13_10 1_555 1_555
Zn5_5 O15_10 1_555 1_555
Zn5_4 O9_10 1_555 1_555
Li4_4 O12_10 1_555 1_555
Li5_4 O16_10 1_555 1_555
Li7_2 O11_10 1_555 1_555
Li6_2 O14_10 1_555 1_555
C5_10 C7_10 1_555 1_555
C11_10 C13_10 1_555 1_555
C11_10 C15_10 1_555 1_555
Zn3 O2_6 1_555 1_555
O17 C3_11 1_555 1_555
O2_6 C1_11 1_555 1_555
O3_6 Zn3 1_555 1_555
O4_6 C7_11 1_555 1_555
O5_6 C1_11 1_555 1_555
O23 C3_11 1_555 1_555
O7_6 C6_11 1_555 1_555
O26_2 C6_11 1_555 1_555
C1_11 C4_11 1_555 1_555
C2_11 C3_11 1_555 1_555
C4_11 C8_11 1_555 1_555
C5_11 C2_11 1_555 1_555
C6_11 C8_11 1_555 1_555
C7_11 O3_6 1_555 1_555
C8_11 C20_11 1_555 1_555
C9_11 C4_11 1_555 1_555
H1_11 C9_11 1_555 1_555
Li2_6 O4_6 1_555 1_555
C15_11 C5_11 1_555 1_555
H3_11 C15_11 1_555 1_555
O13_11 C16_11 1_555 1_555
O14_11 C16_11 1_555 1_555
O15_11 C18_11 1_555 1_555
O16_11 C18_11 1_555 1_555
C16_11 C17_11 1_555 1_555
C17_11 C19_11 1_555 1_555
C18_11 C19_11 1_555 1_555
C19_11 C9_11 1_555 1_555
C20_11 C17_11 1_555 1_555
H4_11 C20_11 1_555 1_555
Zn3_2 O7_6 1_555 1_555
Zn7 O13_11 1_555 1_555
Zn5_8 O15_11 1_555 1_555
O19_6 Zn3_2 1_555 1_555
O20_6 Zn3_2 1_555 1_555
O21_6 Li2_6 1_555 1_555
O22_6 Li2_6 1_555 1_555
O24_6 Zn3 1_555 1_555
Li5_3 O16_11 1_555 1_555
Li6_3 O14_11 1_555 1_555
O5_6 Li2_6 1_555 1_555
C5_11 C7_11 1_555 1_555
H2_11 C10_11 1_555 1_555
O9_11 C12_11 1_555 1_555
O10_11 C14_11 1_555 1_555
O11_11 C14_11 1_555 1_555
O12_11 C12_11 1_555 1_555
C11_11 C12_11 1_555 1_555
C13_11 C10_11 1_555 1_555
C14_11 C13_11 1_555 1_555
Zn5_3 O10_11 1_555 1_555
Zn5 O9_11 1_555 1_555
Li4_3 O12_11 1_555 1_555
Li7_3 O11_11 1_555 1_555
C11_11 C13_11 1_555 1_555
O18 C3_12 1_555 1_555
O19_6 C1_12 1_555 1_555
O21_6 C7_12 1_555 1_555
O22_6 C1_12 1_555 1_555
O23_2 C3_12 1_555 1_555
O24_6 C6_12 1_555 1_555
O26 C6_12 1_555 1_555
C1_12 C4_12 1_555 1_555
C2_12 C3_12 1_555 1_555
C4_12 C8_12 1_555 1_555
C5_12 C2_12 1_555 1_555
C6_12 C8_12 1_555 1_555
C7_12 O20_6 1_555 1_555
C8_12 C20_12 1_555 1_555
C9_12 C4_12 1_555 1_555
H1_12 C9_12 1_555 1_555
C15_12 C5_12 1_555 1_555
H3_12 C15_12 1_555 1_555
O13_12 C16_12 1_555 1_555
O14_12 C16_12 1_555 1_555
O15_12 C18_12 1_555 1_555
O16_12 C18_12 1_555 1_555
C16_12 C17_12 1_555 1_555
C17_12 C19_12 1_555 1_555
C18_12 C19_12 1_555 1_555
C19_12 C9_12 1_555 1_555
C20_12 C17_12 1_555 1_555
H4_12 C20_12 1_555 1_555
Zn7_2 O13_12 1_555 1_555
Zn5_7 O15_12 1_555 1_555
Li5_4 O16_12 1_555 1_555
Li6_4 O14_12 1_555 1_555
C5_12 C7_12 1_555 1_555
H2_12 C10_12 1_555 1_555
O9_12 C12_12 1_555 1_555
O10_12 C14_12 1_555 1_555
O11_12 C14_12 1_555 1_555
O12_12 C12_12 1_555 1_555
C11_12 C12_12 1_555 1_555
C13_12 C10_12 1_555 1_555
C14_12 C13_12 1_555 1_555
Zn5_4 O10_12 1_555 1_555
Zn5_2 O9_12 1_555 1_555
Li4_4 O12_12 1_555 1_555
Li7_4 O11_12 1_555 1_555
C11_12 C13_12 1_555 1_555
Zn3_7 O2_7 1_555 1_555
O17_4 C3_13 1_555 1_555
O2_7 C1_13 1_555 1_555
O3_7 Zn3_7 1_555 1_555
O4_7 C7_13 1_555 1_555
O5_7 C1_13 1_555 1_555
O23_7 C3_13 1_555 1_555
O7_7 C6_13 1_555 1_555
O26_8 C6_13 1_555 1_555
C1_13 C4_13 1_555 1_555
C2_13 C3_13 1_555 1_555
C4_13 C8_13 1_555 1_555
C5_13 C2_13 1_555 1_555
C6_13 C8_13 1_555 1_555
C7_13 O3_7 1_555 1_555
C8_13 C20_13 1_555 1_555
C10_13 C2_13 1_555 1_555
H2_13 C10_13 1_555 1_555
Li2_7 O4_7 1_555 1_555
O9_13 C12_13 1_555 1_555
O10_13 C14_13 1_555 1_555
O11_13 C14_13 1_555 1_555
O12_13 C12_13 1_555 1_555
C11_13 C12_13 1_555 1_555
C13_13 C10_13 1_555 1_555
C14_13 C13_13 1_555 1_555
C15_13 C5_13 1_555 1_555
H3_13 C15_13 1_555 1_555
H4_13 C20_13 1_555 1_555
Zn3_8 O7_7 1_555 1_555
Zn5_5 O10_13 1_555 1_555
Zn5_7 O9_13 1_555 1_555
O19_7 Zn3_8 1_555 1_555
O20_7 Zn3_8 1_555 1_555
O21_7 Li2_7 1_555 1_555
O22_7 Li2_7 1_555 1_555
O24_7 Zn3_7 1_555 1_555
Li5_4 O12_13 1_555 1_555
Li6_2 O11_13 1_555 1_555
O5_7 Li2_7 1_555 1_555
C5_13 C7_13 1_555 1_555
C11_13 C13_13 1_555 1_555
C11_13 C15_13 1_555 1_555
H1_13 C9_13 1_555 1_555
O13_13 C16_13 1_555 1_555
O14_13 C16_13 1_555 1_555
O15_13 C18_13 1_555 1_555
O16_13 C18_13 1_555 1_555
C16_13 C17_13 1_555 1_555
C17_13 C19_13 1_555 1_555
C18_13 C19_13 1_555 1_555
C19_13 C9_13 1_555 1_555
Zn6_2 O13_13 1_555 1_555
Zn5_2 O15_13 1_555 1_555
Li4_4 O16_13 1_555 1_555
Li7_2 O14_13 1_555 1_555
H2_14 C10_14 1_555 1_555
O9_14 C12_14 1_555 1_555
O10_14 C14_14 1_555 1_555
O11_14 C14_14 1_555 1_555
O12_14 C12_14 1_555 1_555
C11_14 C12_14 1_555 1_555
C13_14 C10_14 1_555 1_555
C14_14 C13_14 1_555 1_555
Zn5_6 O10_14 1_555 1_555
Zn5_8 O9_14 1_555 1_555
Li5_3 O12_14 1_555 1_555
Li6 O11_14 1_555 1_555
C11_14 C13_14 1_555 1_555
H1_14 C9_14 1_555 1_555
O13_14 C16_14 1_555 1_555
O14_14 C16_14 1_555 1_555
O15_14 C18_14 1_555 1_555
O16_14 C18_14 1_555 1_555
C16_14 C17_14 1_555 1_555
C17_14 C19_14 1_555 1_555
C18_14 C19_14 1_555 1_555
C19_14 C9_14 1_555 1_555
Zn6 O13_14 1_555 1_555
Zn5 O15_14 1_555 1_555
Li4_3 O16_14 1_555 1_555
Li7 O14_14 1_555 1_555
O18_4 C3_14 1_555 1_555
O19_7 C1_14 1_555 1_555
O21_7 C7_14 1_555 1_555
O22_7 C1_14 1_555 1_555
O23_8 C3_14 1_555 1_555
O24_7 C6_14 1_555 1_555
O26_7 C6_14 1_555 1_555
C1_14 C4_14 1_555 1_555
C2_14 C3_14 1_555 1_555
C4_14 C8_14 1_555 1_555
C5_14 C2_14 1_555 1_555
C6_14 C8_14 1_555 1_555
C7_14 O20_7 1_555 1_555
C8_14 C20_14 1_555 1_555
C15_14 C5_14 1_555 1_555
H3_14 C15_14 1_555 1_555
H4_14 C20_14 1_555 1_555
C5_14 C7_14 1_555 1_555
Zn3_5 O2_8 1_555 1_555
O17_3 C3_15 1_555 1_555
O2_8 C1_15 1_555 1_555
O3_8 Zn3_5 1_555 1_555
O4_8 C7_15 1_555 1_555
O5_8 C1_15 1_555 1_555
O23_5 C3_15 1_555 1_555
O7_8 C6_15 1_555 1_555
O26_6 C6_15 1_555 1_555
C1_15 C4_15 1_555 1_555
C2_15 C3_15 1_555 1_555
C4_15 C8_15 1_555 1_555
C5_15 C2_15 1_555 1_555
C6_15 C8_15 1_555 1_555
C7_15 O3_8 1_555 1_555
C8_15 C20_15 1_555 1_555
C9_15 C4_15 1_555 1_555
H1_15 C9_15 1_555 1_555
C10_15 C2_15 1_555 1_555
H2_15 C10_15 1_555 1_555
Li2_8 O4_8 1_555 1_555
O9_15 C12_15 1_555 1_555
O10_15 C14_15 1_555 1_555
O11_15 C14_15 1_555 1_555
O12_15 C12_15 1_555 1_555
C11_15 C12_15 1_555 1_555
C13_15 C10_15 1_555 1_555
C14_15 C13_15 1_555 1_555
C15_15 C5_15 1_555 1_555
H3_15 C15_15 1_555 1_555
O13_15 C16_15 1_555 1_555
O14_15 C16_15 1_555 1_555
O15_15 C18_15 1_555 1_555
O16_15 C18_15 1_555 1_555
C16_15 C17_15 1_555 1_555
C17_15 C19_15 1_555 1_555
C18_15 C19_15 1_555 1_555
C19_15 C9_15 1_555 1_555
C20_15 C17_15 1_555 1_555
H4_15 C20_15 1_555 1_555
Zn3_6 O7_8 1_555 1_555
Zn5_7 O10_15 1_555 1_555
Zn6_4 O13_15 1_555 1_555
Zn5_4 O15_15 1_555 1_555
Zn5_5 O9_15 1_555 1_555
O19_8 Zn3_6 1_555 1_555
O20_8 Zn3_6 1_555 1_555
O21_8 Li2_8 1_555 1_555
O22_8 Li2_8 1_555 1_555
O24_8 Zn3_5 1_555 1_555
Li5_4 O12_15 1_555 1_555
Li4_4 O16_15 1_555 1_555
Li6_4 O11_15 1_555 1_555
Li7_4 O14_15 1_555 1_555
O5_8 Li2_8 1_555 1_555
C5_15 C7_15 1_555 1_555
C11_15 C13_15 1_555 1_555
C11_15 C15_15 1_555 1_555
H1_16 C9_16 1_555 1_555
H2_16 C10_16 1_555 1_555
O9_16 C12_16 1_555 1_555
O10_16 C14_16 1_555 1_555
O11_16 C14_16 1_555 1_555
O12_16 C12_16 1_555 1_555
C11_16 C12_16 1_555 1_555
C13_16 C10_16 1_555 1_555
C14_16 C13_16 1_555 1_555
O13_16 C16_16 1_555 1_555
O14_16 C16_16 1_555 1_555
O15_16 C18_16 1_555 1_555
O16_16 C18_16 1_555 1_555
C16_16 C17_16 1_555 1_555
C17_16 C19_16 1_555 1_555
C18_16 C19_16 1_555 1_555
C19_16 C9_16 1_555 1_555
Zn5_8 O10_16 1_555 1_555
Zn6_3 O13_16 1_555 1_555
Zn5_3 O15_16 1_555 1_555
Zn5_6 O9_16 1_555 1_555
Li5_3 O12_16 1_555 1_555
Li4_3 O16_16 1_555 1_555
Li6_3 O11_16 1_555 1_555
Li7_3 O14_16 1_555 1_555
C11_16 C13_16 1_555 1_555
O18_3 C3_16 1_555 1_555
O19_8 C1_16 1_555 1_555
O21_8 C7_16 1_555 1_555
O22_8 C1_16 1_555 1_555
O23_6 C3_16 1_555 1_555
O24_8 C6_16 1_555 1_555
O26_5 C6_16 1_555 1_555
C1_16 C4_16 1_555 1_555
C2_16 C3_16 1_555 1_555
C4_16 C8_16 1_555 1_555
C5_16 C2_16 1_555 1_555
C6_16 C8_16 1_555 1_555
C7_16 O20_8 1_555 1_555
C8_16 C20_16 1_555 1_555
C15_16 C5_16 1_555 1_555
H3_16 C15_16 1_555 1_555
H4_16 C20_16 1_555 1_555
C5_16 C7_16 1_555 1_555

#END
