
###############################################################################
#
# This file contains modified crystal structure data generated from the
# MOF subset of the Cambridge Structural Database (CSD) v543 
# hosted by the Cambridge Crystallographic Data Centre (CCDC).
#
# This work is licensed under the Creative Commons
# Attribution-NonCommercial-ShareAlike 4.0 International License.
# To view a copy of this license, visit
# http://creativecommons.org/licenses/by-nc-sa/4.0/
# or send a letter to
# Creative Commons, PO Box 1866, Mountain View, CA 94042, USA.
#
# CIF created using the CSD Python API on 29 September 2022
# The structure has been converted into the P1 space group
# The structure has a 3D framework
# The original CSD entry QIVYUR is in the monoclinic crystal system
# The framework has been calculated to contain at least 10.0% void space
# The void calculation uses a probe of radius 1.32A, grid spacing 0.4
#
###############################################################################

data_QIVYUR
_chemical_formula_moiety         '(C72 H56 N8 O13 Zn3)n'
_symmetry_cell_setting           triclinic
_symmetry_space_group_name_H-M   'P 1'
_symmetry_Int_Tables_number      1
_space_group_name_Hall           'P 1'
loop_
_symmetry_equiv_pos_site_id
_symmetry_equiv_pos_as_xyz
1 x,y,z
_cell_length_a                   22.2190(13)
_cell_length_b                   5.5243(3)
_cell_length_c                   18.4719(10)
_cell_angle_alpha                90
_cell_angle_beta                 115.962(2)
_cell_angle_gamma                90
_cell_volume                     2038.51
loop_
_atom_site_label
_atom_site_type_symbol
_atom_site_fract_x
_atom_site_fract_y
_atom_site_fract_z
Zn3 Zn -0.0000 0.46319(3) 0.7500
C11 C 0.11380(6) 0.2795(2) 0.89869(7)
H9 H 0.1034 0.4122 0.9221
N2 N 0.07894(5) 0.24578(18) 0.81851(6)
C13 C 0.16403(6) 0.1255(2) 0.94723(7)
C14 C 0.09504(6) 0.0551(2) 0.78554(7)
H11 H 0.0718 0.0311 0.7303
O3 O 0.00169(4) 0.68198(16) 0.83506(5)
C17 C 0.00035(7) 0.9330(2) 0.96642(7)
H14 H 0.0297(9) 0.988(3) 0.9446(10)
O4 O 0.06339(6) 0.4007(2) 0.65187(6)
C16 C 0.03356(6) 0.5965(2) 0.63172(7)
C18 C 0.03677(7) 0.7373(2) 0.56509(7)
H13 H 0.0656(8) 0.678(3) 0.5440(10)
C11_2 C 0.88620(6) 0.2795(2) 0.60131(7)
H9_2 H 0.8966 0.4122 0.5779
N2_2 N 0.92106(5) 0.24578(18) 0.68149(6)
C13_2 C 0.83597(6) 0.1255(2) 0.55277(7)
H10 H 0.8131 0.1550 0.4978
C14_2 C 0.90496(6) 0.0551(2) 0.71446(7)
H11_2 H 0.9282 0.0311 0.7697
Zn3_2 Zn 1.0000 0.46319(3) 0.7500
O4_2 O 0.93661(6) 0.4007(2) 0.84813(6)
C16_2 C 0.96644(6) 0.5965(2) 0.86828(7)
C18_2 C 0.96323(7) 0.7373(2) 0.93491(7)
H13_2 H 0.9344(8) 0.678(3) 0.9560(10)
O3_2 O 0.99831(4) 0.68198(16) 0.66494(5)
C17_2 C 0.99965(7) 0.9330(2) 0.53358(7)
H14_2 H 0.9703(9) 0.988(3) 0.5554(10)
Zn1 Zn 0.5000 0.03681(3) 0.2500
C1 C 0.64490(6) 0.6073(2) 0.33038(7)
H1 H 0.6546 0.7372 0.3052
O2 O 0.56339(6) 0.0993(2) 0.15187(6)
C2 C 0.61380(6) 0.2205(2) 0.39869(7)
H2 H 0.6034 0.0878 0.4221
N1 N 0.57894(5) 0.25422(18) 0.31851(6)
C4 C 0.68058(6) 0.5756(2) 0.41339(7)
C5 C 0.66403(6) 0.3745(2) 0.44723(7)
H3 H 0.6869 0.3450 0.5022
C6 C 0.59504(6) 0.4449(2) 0.28554(7)
H4 H 0.5718 0.4689 0.2303
C9 C 0.73244(6) 0.7518(2) 0.45995(7)
H6 H 0.7404(9) 0.875(3) 0.4308(11)
C10 C 0.85510(6) 0.8927(2) 0.66962(7)
H8 H 0.8454 0.7628 0.6948
C12 C 0.81942(6) 0.9244(2) 0.58661(7)
C15 C 0.76756(6) 0.7482(2) 0.54005(7)
H12 H 0.7596(9) 0.625(3) 0.5692(11)
N3 N 0.42106(5) 0.25422(18) 0.18149(6)
C1_2 C 0.35510(6) 0.6073(2) 0.16962(7)
H1_2 H 0.3454 0.7372 0.1948
O2_2 O 0.43661(6) 0.0993(2) 0.34813(6)
C2_2 C 0.38620(6) 0.2205(2) 0.10131(7)
H2_2 H 0.3966 0.0878 0.0779
C4_2 C 0.31942(6) 0.5756(2) 0.08661(7)
C5_2 C 0.33597(6) 0.3745(2) 0.05277(7)
C6_2 C 0.40496(6) 0.4449(2) 0.21446(7)
H4_2 H 0.4282 0.4689 0.2697
C9_2 C 0.26756(6) 0.7518(2) 0.04005(7)
H6_2 H 0.2596(9) 0.875(3) 0.0692(11)
O1 O 0.49831(4) 0.81802(16) 0.16494(5)
C3 C 0.53356(6) 0.9035(2) 0.13172(7)
C7 C 0.49965(7) 0.5670(2) 0.03358(7)
C8 C 0.53677(7) 0.7627(2) 0.06509(7)
H5 H 0.5656(8) 0.822(3) 0.0440(10)
H7 H 0.4703(9) 0.512(3) 0.0554(10)
O5 O 0.50169(4) 0.81802(16) 0.33506(5)
O3_3 O 0.50169(4) 0.18198(16) 0.83506(5)
C16_3 C 0.46644(6) 0.0965(2) 0.86828(7)
C17_3 C 0.50035(7) 0.4330(2) 0.96642(7)
C18_3 C 0.46323(7) 0.2373(2) 0.93491(7)
H13_3 H 0.4344(8) 0.178(3) 0.9560(10)
H14_3 H 0.5297(9) 0.488(3) 0.9446(10)
C3_2 C 0.46644(6) 0.9035(2) 0.36828(7)
C7_2 C 0.50035(7) 0.5670(2) 0.46642(7)
C8_2 C 0.46323(7) 0.7627(2) 0.43491(7)
H5_2 H 0.4344(8) 0.822(3) 0.4560(10)
H7_2 H 0.5297(9) 0.512(3) 0.4446(10)
O3_4 O 0.49831(4) 0.18198(16) 0.66494(5)
C16_4 C 0.53356(6) 0.0965(2) 0.63172(7)
C17_4 C 0.49965(7) 0.4330(2) 0.53358(7)
C18_4 C 0.53677(7) 0.2373(2) 0.56509(7)
H13_4 H 0.5656(8) 0.178(3) 0.5440(10)
H14_4 H 0.4703(9) 0.488(3) 0.5554(10)
O4_3 O 0.43661(6) 0.9007(2) 0.84813(6)
Zn2 Zn 0.5000 0.96319(3) 0.7500
O4_4 O 0.56339(6) 0.9007(2) 0.65187(6)
C1_3 C 0.14490(6) 0.1073(2) 0.33038(7)
H1_3 H 0.1546 0.2372 0.3052
C4_3 C 0.18058(6) 0.0756(2) 0.41339(7)
C9_3 C 0.23244(6) 0.2518(2) 0.45995(7)
H6_3 H 0.2404(9) 0.375(3) 0.4308(11)
C10_2 C 0.35510(6) 0.3927(2) 0.66962(7)
H8_2 H 0.3454 0.2628 0.6948
C11_3 C 0.38620(6) 0.7795(2) 0.60131(7)
H9_3 H 0.3966 0.9122 0.5779
N2_3 N 0.42106(5) 0.74578(18) 0.68149(6)
C12_2 C 0.31942(6) 0.4244(2) 0.58661(7)
C13_3 C 0.33597(6) 0.6255(2) 0.55277(7)
H10_2 H 0.3131 0.6550 0.4978
C14_3 C 0.40496(6) 0.5551(2) 0.71446(7)
H11_3 H 0.4282 0.5311 0.7697
C15_2 C 0.26756(6) 0.2482(2) 0.54005(7)
H12_2 H 0.2596(9) 0.125(3) 0.5692(11)
C10_3 C 0.64490(6) 0.3927(2) 0.83038(7)
H8_3 H 0.6546 0.2628 0.8052
C11_4 C 0.61380(6) 0.7795(2) 0.89869(7)
H9_4 H 0.6034 0.9122 0.9221
N2_4 N 0.57894(5) 0.74578(18) 0.81851(6)
C12_3 C 0.68058(6) 0.4244(2) 0.91339(7)
C13_4 C 0.66403(6) 0.6255(2) 0.94723(7)
C14_4 C 0.59504(6) 0.5551(2) 0.78554(7)
H11_4 H 0.5718 0.5311 0.7303
C15_3 C 0.73244(6) 0.2482(2) 0.95995(7)
H12_3 H 0.7404(9) 0.125(3) 0.9308(11)
H10_3 H 0.1869 0.1550 0.0022
H3_2 H 0.3131 0.3450 0.9978
C10_4 C 0.14490(6) 0.8927(2) 0.83038(7)
H8_4 H 0.1546 0.7628 0.8052
C12_4 C 0.18058(6) 0.9244(2) 0.91339(7)
C15_4 C 0.23244(6) 0.7482(2) 0.95995(7)
H12_4 H 0.2404(9) 0.625(3) 0.9308(11)
Zn1_2 Zn -0.0000 0.53681(3) 0.2500
O2_3 O 0.06339(6) 0.5993(2) 0.15187(6)
C2_3 C 0.11380(6) 0.7205(2) 0.39869(7)
H2_3 H 0.1034 0.5878 0.4221
N1_2 N 0.07894(5) 0.75422(18) 0.31851(6)
C3_3 C 0.03356(6) 0.4035(2) 0.13172(7)
C5_3 C 0.16403(6) 0.8745(2) 0.44723(7)
H3_3 H 0.1869 0.8450 0.5022
C6_3 C 0.09504(6) 0.9449(2) 0.28554(7)
H4_3 H 0.0718 0.9689 0.2303
C8_3 C 0.03677(7) 0.2627(2) 0.06509(7)
H5_3 H 0.0656(8) 0.322(3) 0.0440(10)
O5_2 O 0.00169(4) 0.31802(16) 0.33506(5)
C7_3 C 0.00035(7) 0.0670(2) 0.46642(7)
H7_3 H 0.0297(9) 0.012(3) 0.4446(10)
Zn1_3 Zn 1.0000 0.53681(3) 0.2500
O1_2 O 0.99831(4) 0.31802(16) 0.16494(5)
C7_4 C 0.99965(7) 0.0670(2) 0.03358(7)
H7_4 H 0.9703(9) 0.012(3) 0.0554(10)
N3_2 N 0.92106(5) 0.75422(18) 0.18149(6)
O2_4 O 0.93661(6) 0.5993(2) 0.34813(6)
C2_4 C 0.88620(6) 0.7205(2) 0.10131(7)
H2_4 H 0.8966 0.5878 0.0779
C3_4 C 0.96644(6) 0.4035(2) 0.36828(7)
C5_4 C 0.83597(6) 0.8745(2) 0.05277(7)
C6_4 C 0.90496(6) 0.9449(2) 0.21446(7)
H4_4 H 0.9282 0.9689 0.2697
C8_4 C 0.96323(7) 0.2627(2) 0.43491(7)
H5_4 H 0.9344(8) 0.322(3) 0.4560(10)
C1_4 C 0.85510(6) 0.1073(2) 0.16962(7)
H1_4 H 0.8454 0.2372 0.1948
C4_4 C 0.81942(6) 0.0756(2) 0.08661(7)
C9_4 C 0.76756(6) 0.2518(2) 0.04005(7)
H6_4 H 0.7596(9) 0.375(3) 0.0692(11)
H10_4 H 0.6869 0.6550 0.0022
H3_4 H 0.8131 0.8450 0.9978
loop_
_geom_bond_atom_site_label_1
_geom_bond_atom_site_label_2
_geom_bond_site_symmetry_1
_geom_bond_site_symmetry_2
C11 H9 1_555 1_555
N2 C11 1_555 1_555
C13 C11 1_555 1_555
H11 C14 1_555 1_555
Zn3 N2 1_555 1_555
N2 C14 1_555 1_555
H14 C17 1_555 1_555
Zn3 O3 1_555 1_555
O4 C16 1_555 1_555
C16 C18 1_555 1_555
H13 C18 1_555 1_555
C11_2 H9_2 1_555 1_555
N2_2 C11_2 1_555 1_555
C13_2 C11_2 1_555 1_555
H10 C13_2 1_555 1_555
H11_2 C14_2 1_555 1_555
Zn3_2 N2_2 1_555 1_555
N2_2 C14_2 1_555 1_555
O4_2 C16_2 1_555 1_555
C16_2 C18_2 1_555 1_555
H13_2 C18_2 1_555 1_555
H14_2 C17_2 1_555 1_555
Zn3_2 O3_2 1_555 1_555
C1 H1 1_555 1_555
C2 H2 1_555 1_555
N1 Zn1 1_555 1_555
C4 C1 1_555 1_555
C5 C2 1_555 1_555
H3 C5 1_555 1_555
C6 C1 1_555 1_555
H4 C6 1_555 1_555
C9 C4 1_555 1_555
H6 C9 1_555 1_555
C10 H8 1_555 1_555
C12 C10 1_555 1_555
C15 C9 1_555 1_555
H12 C15 1_555 1_555
N3 Zn1 1_555 1_555
C2 N1 1_555 1_555
N1 C6 1_555 1_555
C4 C5 1_555 1_555
C12 C15 1_555 1_555
C1_2 H1_2 1_555 1_555
C2_2 H2_2 1_555 1_555
C4_2 C1_2 1_555 1_555
C5_2 C2_2 1_555 1_555
C6_2 C1_2 1_555 1_555
H4_2 C6_2 1_555 1_555
C9_2 C4_2 1_555 1_555
H6_2 C9_2 1_555 1_555
C2_2 N3 1_555 1_555
N3 C6_2 1_555 1_555
C4_2 C5_2 1_555 1_555
O1 C3 1_555 1_555
C3 C8 1_555 1_555
C7 C8 1_555 1_555
C8 H5 1_555 1_555
H7 C7 1_555 1_555
O3_3 C16_3 1_555 1_555
C16_3 C18_3 1_555 1_555
C18_3 C17_3 1_555 1_555
H13_3 C18_3 1_555 1_555
H14_3 C17_3 1_555 1_555
O5 C3_2 1_555 1_555
C3_2 C8_2 1_555 1_555
C7_2 C8_2 1_555 1_555
C8_2 H5_2 1_555 1_555
H7_2 C7_2 1_555 1_555
O3_4 C16_4 1_555 1_555
C16_4 C18_4 1_555 1_555
C17_4 C7_2 1_555 1_555
C18_4 C17_4 1_555 1_555
H13_4 C18_4 1_555 1_555
H14_4 C17_4 1_555 1_555
C1_3 H1_3 1_555 1_555
C4_3 C1_3 1_555 1_555
C9_3 C4_3 1_555 1_555
H6_3 C9_3 1_555 1_555
C10_2 H8_2 1_555 1_555
C11_3 H9_3 1_555 1_555
N2_3 C11_3 1_555 1_555
C12_2 C10_2 1_555 1_555
C13_3 C11_3 1_555 1_555
H10_2 C13_3 1_555 1_555
C14_3 C10_2 1_555 1_555
H11_3 C14_3 1_555 1_555
C15_2 C9_3 1_555 1_555
H12_2 C15_2 1_555 1_555
Zn2 N2_3 1_555 1_555
N2_3 C14_3 1_555 1_555
C12_2 C13_3 1_555 1_555
C12_2 C15_2 1_555 1_555
C10_3 H8_3 1_555 1_555
C11_4 H9_4 1_555 1_555
N2_4 C11_4 1_555 1_555
C12_3 C10_3 1_555 1_555
C13_4 C11_4 1_555 1_555
C14_4 C10_3 1_555 1_555
H11_4 C14_4 1_555 1_555
H12_3 C15_3 1_555 1_555
Zn2 N2_4 1_555 1_555
N2_4 C14_4 1_555 1_555
C12_3 C13_4 1_555 1_555
C12_3 C15_3 1_555 1_555
C10_4 H8_4 1_555 1_555
C12_4 C10_4 1_555 1_555
H12_4 C15_4 1_555 1_555
C12_4 C15_4 1_555 1_555
O2_3 C3_3 1_555 1_555
C2_3 H2_3 1_555 1_555
N1_2 Zn1_2 1_555 1_555
C3_3 C8_3 1_555 1_555
C5_3 C2_3 1_555 1_555
H3_3 C5_3 1_555 1_555
H4_3 C6_3 1_555 1_555
C8_3 H5_3 1_555 1_555
O5_2 Zn1_2 1_555 1_555
C2_3 N1_2 1_555 1_555
N1_2 C6_3 1_555 1_555
H7_3 C7_3 1_555 1_555
Zn1_3 O1_2 1_555 1_555
H7_4 C7_4 1_555 1_555
N3_2 Zn1_3 1_555 1_555
O2_4 C3_4 1_555 1_555
C2_4 H2_4 1_555 1_555
C3_4 C8_4 1_555 1_555
C5_4 C2_4 1_555 1_555
H4_4 C6_4 1_555 1_555
C8_4 H5_4 1_555 1_555
C2_4 N3_2 1_555 1_555
N3_2 C6_4 1_555 1_555
C1_4 H1_4 1_555 1_555
C4_4 C1_4 1_555 1_555
C9_4 C4_4 1_555 1_555
H6_4 C9_4 1_555 1_555

#END
