
###############################################################################
#
# This file contains modified crystal structure data generated from the
# MOF subset of the Cambridge Structural Database (CSD) v543 
# hosted by the Cambridge Crystallographic Data Centre (CCDC).
#
# This work is licensed under the Creative Commons
# Attribution-NonCommercial-ShareAlike 4.0 International License.
# To view a copy of this license, visit
# http://creativecommons.org/licenses/by-nc-sa/4.0/
# or send a letter to
# Creative Commons, PO Box 1866, Mountain View, CA 94042, USA.
#
# CIF created using the CSD Python API on 29 September 2022
# The structure has been converted into the P1 space group
# The structure has a 3D framework
# The original CSD entry QIVZEC is in the triclinic crystal system
# The framework has been calculated to contain at least 10.0% void space
# The void calculation uses a probe of radius 1.32A, grid spacing 0.4
#
###############################################################################

data_QIVZEC
_chemical_formula_moiety         '(C160 H144 N32 O30 Zn8)n'
_symmetry_cell_setting           triclinic
_symmetry_space_group_name_H-M   'P 1'
_symmetry_Int_Tables_number      1
_space_group_name_Hall           'P 1'
loop_
_symmetry_equiv_pos_site_id
_symmetry_equiv_pos_as_xyz
1 x,y,z
_cell_length_a                   10.7575(4)
_cell_length_b                   15.3180(6)
_cell_length_c                   29.3906(13)
_cell_angle_alpha                81.1120(10)
_cell_angle_beta                 87.7110(10)
_cell_angle_gamma                84.5360(10)
_cell_volume                     4761.62
loop_
_atom_site_label
_atom_site_type_symbol
_atom_site_fract_x
_atom_site_fract_y
_atom_site_fract_z
O6 O 0.05136(19) 0.08478(14) 0.17797(8)
C35 C 0.0426(3) 0.0017(2) 0.18548(10)
Zn10 Zn 0.20491(3) 0.14310(2) 0.190246(12)
O11 O 0.0814(2) 0.47568(14) 0.69245(8)
O13 O 0.09825(19) 0.62212(14) 0.68110(8)
O14 O 0.1314(2) 0.94335(15) 0.18750(8)
C42 C 0.0373(3) 0.5551(2) 0.68861(10)
Zn5 Zn 0.27361(3) 0.64965(2) 0.691799(12)
Zn8 Zn 0.30113(3) 0.87076(2) 0.179057(12)
Zn12 Zn 0.23574(3) 0.39167(2) 0.683583(12)
N1 N 0.1901(2) 0.09368(16) 0.26199(9)
O1 O 0.3099(2) 0.26608(16) 0.20332(9)
O3 O 0.4108(2) 0.75120(14) 0.16935(8)
O5 O 0.3672(2) 0.06957(15) 0.18156(8)
O7 O 0.1480(2) 0.28671(14) 0.66787(8)
O9 O 0.2090(2) 0.74303(15) 0.16594(8)
O10 O 0.3481(2) 0.24194(15) 0.67309(9)
O12 O 0.1072(2) 0.26647(14) 0.19679(8)
C3 C 0.1567(3) 0.0190(2) 0.35455(11)
C9 C 0.3179(3) 0.7070(2) 0.16803(11)
C12 C 0.8116(3) 0.0243(2) 0.19312(11)
H4 H 0.8183 0.0842 0.1938
C20 C 0.5827(3) 0.0466(2) 0.19139(11)
H10 H 0.5864 0.1070 0.1911
C32 C 0.0765(3) 0.0882(2) 0.33355(11)
H19 H 0.0091 0.1112 0.3502
C36 C 0.2030(3) 0.3063(2) 0.19910(11)
C47 C 0.2371(3) 0.2264(2) 0.67032(12)
C52 C 0.2873(3) 0.0639(2) 0.68221(12)
H30 H 0.3700 0.0739 0.6859
C53 C 0.0966(3) 0.1233(2) 0.28782(11)
H31 H 0.0416 0.1700 0.2746
C55 C 0.4587(3) 0.0128(2) 0.18828(10)
C56 C 0.2574(3) 0.5540(2) 0.17994(12)
H33 H 0.1751 0.5786 0.1812
C61 C 0.2773(3) 0.4578(2) 0.18673(12)
H42 H 0.3590 0.4320 0.1855
C64 C 0.1870(3) 0.4051(2) 0.19446(12)
H44 H 0.1062 0.4316 0.1973
C65 C 0.3441(3) 0.6092(2) 0.17226(13)
H45 H 0.4265 0.5860 0.1693
C68 C 0.2684(3) 0.0268(2) 0.28254(12)
H48 H 0.3353 0.0053 0.2652
C72 C 0.2055(3) 0.1334(2) 0.67288(13)
H56 H 0.1236 0.1238 0.6676
C75 C 0.0323(4) 0.0077(3) 0.43133(14)
H59 H 0.0402 0.0675 0.4361
N17 N 0.2322(2) 0.19785(17) 0.11788(9)
C28 C 0.3459(3) 0.2081(2) 0.09906(12)
H16 H 0.4149 0.1886 0.1172
C31 C 0.2655(3) 0.2788(2) 0.02624(11)
C45 C 0.3662(3) 0.2461(2) 0.05419(12)
H25 H 0.4474 0.2500 0.0425
C46 C 0.1351(3) 0.2280(2) 0.09088(11)
H26 H 0.0550 0.2212 0.1032
C51 C 0.2288(4) 0.0286(2) 0.04372(13)
H29 H 0.1766 0.0794 0.0338
C59 C 0.1474(3) 0.2685(2) 0.04601(12)
H38 H 0.0768 0.2890 0.0289
H52 H 0.1777 0.0223 0.1097
N2 N 0.2456(2) 0.60058(17) 0.76373(9)
N3 N 0.2872(2) 0.70377(16) 0.61896(9)
N4 N 0.2761(2) 0.81712(16) 0.25016(9)
N5 N 0.2169(2) 0.33340(16) 0.75476(9)
N6 N 0.2600(2) 0.44175(18) 0.61158(9)
O2 O 0.1899(2) 0.79567(15) 0.69770(8)
O4 O 0.41003(19) 0.41831(14) 0.69598(7)
N7 N 0.2563(3) 0.10749(18) 0.95382(9)
O8 O 0.42351(19) 0.56508(14) 0.68172(8)
N8 N 0.2677(3) 0.14849(18) 0.90886(9)
N11 N 0.2867(3) 0.61496(19) 0.45531(9)
N12 N 0.2148(3) 0.8768(2) 0.46307(10)
C1 C 0.1847(3) 0.2392(2) 0.84347(10)
C2 C 0.3041(3) 0.7836(2) 0.52647(11)
N13 N 0.3085(3) 0.64938(18) 0.40952(9)
O15 O 0.3879(2) 0.74778(14) 0.70463(8)
O16 O 0.45327(19) 0.93063(14) 0.19170(8)
C4 C 0.1842(3) 0.5281(2) 0.85444(11)
C5 C 0.3028(3) 0.2460(2) 0.82284(11)
H1 H 0.3732 0.2187 0.8384
C6 C 0.1389(3) 0.7567(2) 0.31031(11)
H2 H 0.0582 0.7438 0.3197
C7 C 0.1686(3) 0.1883(2) 0.89007(11)
C8 C 0.1632(3) 0.7959(2) 0.26614(11)
H3 H 0.0971 0.8085 0.2460
C10 C 0.2368(3) 0.7363(2) 0.34121(11)
N14 N 0.1921(3) 0.3755(2) 0.96110(10)
N15 N 0.2281(3) 0.9169(2) 0.41711(10)
C11 C 0.3128(3) 0.8273(2) 0.47765(12)
C13 C 0.2144(3) 0.6931(2) 0.38896(11)
C14 C 0.9155(3) 0.9713(2) 0.19096(11)
H5 H 0.9083 0.9108 0.1930
C15 C 0.3706(3) 0.79775(19) 0.27955(10)
H6 H 0.4501 0.8117 0.2691
C16 C 0.6852(3) 0.5315(2) 0.69163(11)
C17 C 0.8199(3) 0.5125(2) 0.69236(11)
H7 H 0.8521 0.4536 0.6937
C18 C 0.3148(3) 0.2933(2) 0.77937(11)
H8 H 0.3946 0.2978 0.7663
C19 C 0.3368(3) 0.9024(2) 0.69681(12)
H9 H 0.4195 0.9106 0.7018
N16 N 0.2183(3) 0.4152(2) 0.91632(10)
C21 C 0.2846(3) 0.3228(2) 0.97832(11)
C22 C 0.3550(3) 0.75790(19) 0.32472(11)
H11 H 0.4230 0.7456 0.3440
C23 C 0.4056(3) 0.3047(2) 0.95345(12)
H12 H 0.3917 0.3106 0.9210
H13 H 0.4406 0.2456 0.9644
H14 H 0.4625 0.3464 0.9589
C24 C 0.1525(3) 0.4870(2) 0.90219(12)
C25 C 0.0826(3) 0.2817(2) 0.81818(11)
H15 H 0.0018 0.2793 0.8306
C26 C 0.3008(3) 0.8107(2) 0.70023(11)
C27 C 0.1406(3) 0.9771(2) 0.40309(11)
C29 C 0.1034(3) 0.3267(2) 0.77488(11)
H17 H 0.0346 0.3543 0.7585
C30 C 0.6882(3) 0.9940(2) 0.19451(11)
H18 H 0.6823 0.9331 0.1978
C33 C 0.2745(4) 0.4866(2) 0.82856(12)
H20 H 0.3164 0.4330 0.8411
C34 C 0.9001(3) 0.5736(2) 0.69118(11)
H21 H 0.8678 0.6318 0.6920
C37 C 0.6074(3) 0.4687(2) 0.69246(11)
C38 C 0.2568(3) 0.9730(2) 0.68702(12)
H22 H 0.1742 0.9635 0.6829
C40 C 0.2065(4) 0.5424(2) 0.54349(12)
H23 H 0.1574 0.5923 0.5301
C41 C 0.3026(4) 0.5240(2) 0.78443(12)
H24 H 0.3644 0.4946 0.7679
C43 C 0.2930(4) 0.4997(2) 0.51708(12)
C44 C 0.3107(4) 0.5319(2) 0.46731(12)
C48 C 0.4082(3) 0.7410(2) 0.54997(12)
H27 H 0.4860 0.7381 0.5350
C49 C 0.1916(3) 0.7842(2) 0.55093(12)
H28 H 0.1193 0.8120 0.5368
C50 C 0.4689(3) 0.4862(2) 0.68973(10)
C54 C 0.1864(3) 0.7440(2) 0.59597(11)
H32 H 0.1093 0.7446 0.6114
C57 C 0.3956(3) 0.7031(2) 0.59548(11)
H34 H 0.4666 0.6756 0.6105
C58 C 0.4314(3) 0.8118(2) 0.45039(12)
H35 H 0.4168 0.8314 0.4183
H36 H 0.4588 0.7496 0.4551
H37 H 0.4946 0.8443 0.4603
C60 C 0.0856(3) 0.7028(3) 0.41014(13)
H39 H 0.0370 0.6586 0.4017
H40 H 0.0463 0.7608 0.3993
H41 H 0.0909 0.6951 0.4431
C62 C 0.3087(4) 0.0291(2) 0.96310(12)
C63 C 0.1274(3) 0.6080(2) 0.83328(12)
H43 H 0.0672 0.6397 0.8494
C66 C 0.1591(3) 0.6410(2) 0.78866(12)
H46 H 0.1180 0.6944 0.7752
C67 C 0.2552(4) 0.9886(2) 0.32751(12)
H47 H 0.3122 0.9424 0.3399
C69 C 0.0538(4) 0.5315(3) 0.92972(15)
H49 H 0.0791 0.5875 0.9349
H50 H 0.0413 0.4948 0.9588
C71 C 0.0421(4) 0.1862(4) 0.91242(14)
H55 H 0.0498 0.1654 0.9448
C73 C 0.1921(4) 0.5116(2) 0.58963(12)
H57 H 0.1314 0.5413 0.6065
H60 H 0.0304 0.9698 0.4606
C76 C 0.3532(6) 0.4690(3) 0.43490(15)
H62 H 0.2839 0.4388 0.4278
H63 H 0.4171 0.4264 0.4489
H64 H 0.3861 0.5011 0.4071
H67 H 0.3950 0.0188 0.9012
C79 C 0.3641(5) 0.4273(3) 0.54006(14)
H69 H 0.4249 0.3960 0.5240
C80 C 0.3448(4) 0.4016(3) 0.58655(14)
H70 H 0.3945 0.3531 0.6011
H71 H 0.655(3) 0.594(2) 0.6912(10)
H72 H 0.638(4) 0.406(3) 0.6945(13)
N18 N 0.2987(2) 0.92099(17) 0.10685(9)
C39 C 0.3045(3) 0.9898(2) 0.01242(12)
C70 C 0.2294(4) 0.9934(2) 0.08950(12)
C74 C 0.3717(5) 0.8823(3) 0.07702(14)
H58 H 0.4225 0.8315 0.0880
C78 C 0.3761(5) 0.9137(3) 0.03045(15)
H68 H 0.4279 0.8832 0.0110
C77 C 0.3736(5) 0.9783(3) 0.92798(14)
H65 H 0.3191 0.9376 0.9196
H66 H 0.4482 0.9459 0.9407
H61 H 0.9564 0.0056 0.4156
H51 H 0.9772 0.5411 0.9133
H53 H 0.9949 0.1471 0.8989
H54 H 0.9999 0.2449 0.9080
H51_2 H 0.0228 0.4589 0.0867
H53_2 H 0.0051 0.8529 0.1011
H54_2 H 0.0001 0.7551 0.0920
H61_2 H 0.0436 0.9944 0.5844
C77_2 C 0.6264(5) 0.0217(3) 0.07202(14)
H65_2 H 0.6809 0.0624 0.0804
H66_2 H 0.5518 0.0541 0.0593
N10 N 0.7013(2) 0.07901(17) 0.89315(9)
C39_2 C 0.6955(3) 0.0102(2) 0.98758(12)
C70_2 C 0.7706(4) 0.0066(2) 0.91050(12)
C74_2 C 0.6283(5) 0.1177(3) 0.92298(14)
H58_2 H 0.5775 0.1685 0.9120
C78_2 C 0.6239(5) 0.0863(3) 0.96955(15)
H68_2 H 0.5721 0.1168 0.9890
Zn6 Zn 0.69887(3) 0.12924(2) 0.820943(12)
Zn1 Zn 0.72639(3) 0.35035(2) 0.308201(12)
Zn4 Zn 0.76426(3) 0.60833(2) 0.316417(12)
N2_2 N 0.7544(2) 0.39942(17) 0.23627(9)
N3_2 N 0.7128(2) 0.29623(16) 0.38104(9)
N4_2 N 0.7239(2) 0.18288(16) 0.74984(9)
N5_2 N 0.7831(2) 0.66660(16) 0.24524(9)
N6_2 N 0.7400(2) 0.55825(18) 0.38842(9)
O2_2 O 0.8101(2) 0.20433(15) 0.30230(8)
O4_2 O 0.58997(19) 0.58169(14) 0.30402(7)
N7_2 N 0.7437(3) 0.89251(18) 0.04618(9)
O8_2 O 0.57649(19) 0.43492(14) 0.31828(8)
N8_2 N 0.7323(3) 0.85151(18) 0.09114(9)
N11_2 N 0.7133(3) 0.38504(19) 0.54469(9)
N12_2 N 0.7852(3) 0.1232(2) 0.53693(10)
C1_2 C 0.8153(3) 0.7608(2) 0.15653(10)
C2_2 C 0.6959(3) 0.2164(2) 0.47353(11)
N13_2 N 0.6915(3) 0.35062(18) 0.59048(9)
O15_2 O 0.6121(2) 0.25222(14) 0.29537(8)
O16_2 O 0.54673(19) 0.06937(14) 0.80830(8)
C4_2 C 0.8158(3) 0.4719(2) 0.14556(11)
C5_2 C 0.6972(3) 0.7540(2) 0.17716(11)
H1_2 H 0.6268 0.7813 0.1616
C6_2 C 0.8611(3) 0.2433(2) 0.68969(11)
H2_2 H 0.9418 0.2562 0.6803
C7_2 C 0.8314(3) 0.8117(2) 0.10993(11)
C8_2 C 0.8368(3) 0.2041(2) 0.73386(11)
H3_2 H 0.9029 0.1915 0.7540
C10_2 C 0.7632(3) 0.2637(2) 0.65879(11)
N14_2 N 0.8079(3) 0.6245(2) 0.03890(10)
N15_2 N 0.7719(3) 0.0831(2) 0.58289(10)
C11_2 C 0.6872(3) 0.1727(2) 0.52235(12)
C13_2 C 0.7856(3) 0.3069(2) 0.61104(11)
C14_2 C 0.0845(3) 0.0287(2) 0.80904(11)
H5_2 H 0.0917 0.0892 0.8070
C15_2 C 0.6294(3) 0.20225(19) 0.72045(10)
H6_2 H 0.5499 0.1883 0.7309
C16_2 C 0.3148(3) 0.4685(2) 0.30837(11)
C17_2 C 0.1801(3) 0.4875(2) 0.30764(11)
H7_2 H 0.1479 0.5464 0.3063
C18_2 C 0.6852(3) 0.7067(2) 0.22063(11)
H8_2 H 0.6054 0.7022 0.2337
C19_2 C 0.6632(3) 0.0976(2) 0.30319(12)
H9_2 H 0.5805 0.0894 0.2982
N16_2 N 0.7817(3) 0.5848(2) 0.08368(10)
C21_2 C 0.7154(3) 0.6772(2) 0.02168(11)
C22_2 C 0.6450(3) 0.24210(19) 0.67528(11)
H11_2 H 0.5770 0.2544 0.6560
C23_2 C 0.5944(3) 0.6953(2) 0.04655(12)
H12_2 H 0.6083 0.6894 0.0790
H13_2 H 0.5594 0.7544 0.0356
H14_2 H 0.5375 0.6536 0.0411
C24_2 C 0.8475(3) 0.5130(2) 0.09781(12)
C25_2 C 0.9174(3) 0.7183(2) 0.18182(11)
H15_2 H 0.9982 0.7207 0.1694
C26_2 C 0.6992(3) 0.1893(2) 0.29977(11)
C27_2 C 0.8594(3) 0.0229(2) 0.59691(11)
C29_2 C 0.8966(3) 0.6733(2) 0.22512(11)
H17_2 H 0.9654 0.6457 0.2415
C30_2 C 0.3118(3) 0.0060(2) 0.80549(11)
H18_2 H 0.3177 0.0669 0.8022
C33_2 C 0.7255(4) 0.5134(2) 0.17144(12)
H20_2 H 0.6836 0.5670 0.1589
C34_2 C 0.0999(3) 0.4264(2) 0.30882(11)
H21_2 H 0.1322 0.3682 0.3080
C37_2 C 0.3926(3) 0.5313(2) 0.30754(11)
C38_2 C 0.7432(3) 0.0270(2) 0.31298(12)
H22_2 H 0.8258 0.0365 0.3171
C40_2 C 0.7935(4) 0.4576(2) 0.45651(12)
H23_2 H 0.8426 0.4077 0.4699
C41_2 C 0.6974(4) 0.4760(2) 0.21557(12)
H24_2 H 0.6356 0.5054 0.2321
C43_2 C 0.7070(4) 0.5003(2) 0.48292(12)
C44_2 C 0.6893(4) 0.4681(2) 0.53269(12)
C48_2 C 0.5918(3) 0.2590(2) 0.45003(12)
H27_2 H 0.5140 0.2619 0.4650
C49_2 C 0.8084(3) 0.2158(2) 0.44907(12)
H28_2 H 0.8807 0.1880 0.4632
C50_2 C 0.5311(3) 0.5138(2) 0.31027(10)
C54_2 C 0.8136(3) 0.2560(2) 0.40403(11)
H32_2 H 0.8907 0.2554 0.3886
C57_2 C 0.6044(3) 0.2969(2) 0.40452(11)
H34_2 H 0.5334 0.3244 0.3895
C58_2 C 0.5686(3) 0.1882(2) 0.54961(12)
H35_2 H 0.5832 0.1686 0.5817
H36_2 H 0.5412 0.2504 0.5449
H37_2 H 0.5054 0.1557 0.5397
C60_2 C 0.9144(3) 0.2972(3) 0.58986(13)
H39_2 H 0.9630 0.3414 0.5983
H40_2 H 0.9537 0.2392 0.6007
H41_2 H 0.9091 0.3049 0.5569
C62_2 C 0.6913(4) 0.9709(2) 0.03690(12)
C63_2 C 0.8726(3) 0.3920(2) 0.16672(12)
H43_2 H 0.9328 0.3603 0.1506
C66_2 C 0.8409(3) 0.3590(2) 0.21134(12)
H46_2 H 0.8820 0.3056 0.2248
C67_2 C 0.7448(4) 0.0114(2) 0.67249(12)
H47_2 H 0.6878 0.0576 0.6601
C69_2 C 0.9462(4) 0.4685(3) 0.07028(15)
H49_2 H 0.9209 0.4125 0.0651
H50_2 H 0.9587 0.5052 0.0412
C71_2 C 0.9579(4) 0.8138(4) 0.08758(14)
H55_2 H 0.9502 0.8346 0.0552
C73_2 C 0.8079(4) 0.4884(2) 0.41037(12)
H57_2 H 0.8686 0.4587 0.3935
H60_2 H 0.9696 0.0302 0.5394
C76_2 C 0.6468(6) 0.5310(3) 0.56510(15)
H62_2 H 0.7161 0.5612 0.5722
H63_2 H 0.5829 0.5736 0.5511
H64_2 H 0.6139 0.4989 0.5929
H67_2 H 0.6050 0.9812 0.0988
C79_2 C 0.6359(5) 0.5727(3) 0.45994(14)
H69_2 H 0.5751 0.6040 0.4760
C80_2 C 0.6552(4) 0.5984(3) 0.41345(14)
H70_2 H 0.6055 0.6469 0.3989
H71_2 H 0.345(3) 0.406(2) 0.3088(10)
H72_2 H 0.362(4) 0.594(3) 0.3055(13)
O17 O 0.5892(2) 0.24880(14) 0.83065(8)
O19 O 0.8520(2) 0.71329(14) 0.33213(8)
O20 O 0.7910(2) 0.25697(15) 0.83406(8)
O21 O 0.6519(2) 0.75806(15) 0.32691(9)
O22 O 0.9186(2) 0.52432(14) 0.30755(8)
O23 O 0.90175(19) 0.37788(14) 0.31890(8)
O24 O 0.8686(2) 0.05665(15) 0.81250(8)
N9 N 0.7678(2) 0.80215(17) 0.88212(9)
C28_2 C 0.6541(3) 0.7919(2) 0.90094(12)
H16_2 H 0.5851 0.8114 0.8828
C31_2 C 0.7345(3) 0.7212(2) 0.97376(11)
C45_2 C 0.6338(3) 0.7539(2) 0.94581(12)
H25_2 H 0.5526 0.7500 0.9575
C46_2 C 0.8649(3) 0.7720(2) 0.90912(11)
H26_2 H 0.9450 0.7788 0.8968
C51_2 C 0.7712(4) 0.9714(2) 0.95628(13)
H29_2 H 0.8234 0.9206 0.9662
C59_2 C 0.8526(3) 0.7315(2) 0.95399(12)
H38_2 H 0.9232 0.7110 0.9711
H52_2 H 0.8223 0.9777 0.8903
Zn9 Zn 0.79509(3) 0.85690(2) 0.809754(12)
N1_2 N 0.8099(2) 0.90632(16) 0.73801(9)
O1_2 O 0.6901(2) 0.73392(16) 0.79668(9)
O5_2 O 0.6328(2) 0.93043(15) 0.81844(8)
O12_2 O 0.8928(2) 0.73353(14) 0.80321(8)
C3_2 C 0.8433(3) 0.9810(2) 0.64545(11)
C9_2 C 0.6821(3) 0.2930(2) 0.83197(11)
C12_2 C 0.1884(3) 0.9757(2) 0.80688(11)
H4_2 H 0.1817 0.9158 0.8062
C20_2 C 0.4173(3) 0.9534(2) 0.80861(11)
H10_2 H 0.4136 0.8930 0.8089
C32_2 C 0.9235(3) 0.9118(2) 0.66645(11)
H19_2 H 0.9909 0.8888 0.6498
C36_2 C 0.7970(3) 0.6937(2) 0.80090(11)
C47_2 C 0.7629(3) 0.7736(2) 0.32968(12)
C52_2 C 0.7127(3) 0.9361(2) 0.31779(12)
H30_2 H 0.6300 0.9261 0.3141
C53_2 C 0.9034(3) 0.8767(2) 0.71218(11)
H31_2 H 0.9584 0.8300 0.7254
C55_2 C 0.5413(3) 0.9872(2) 0.81172(10)
C56_2 C 0.7426(3) 0.4460(2) 0.82006(12)
H33_2 H 0.8249 0.4214 0.8188
C61_2 C 0.7227(3) 0.5422(2) 0.81327(12)
H42_2 H 0.6410 0.5680 0.8145
C64_2 C 0.8130(3) 0.5949(2) 0.80554(12)
H44_2 H 0.8938 0.5684 0.8027
C65_2 C 0.6559(3) 0.3908(2) 0.82774(13)
H45_2 H 0.5735 0.4140 0.8307
C68_2 C 0.7316(3) 0.9732(2) 0.71746(12)
H48_2 H 0.6647 0.9947 0.7348
C72_2 C 0.7945(3) 0.8666(2) 0.32712(13)
H56_2 H 0.8764 0.8762 0.3324
C75_2 C 0.9677(4) 0.9923(3) 0.56867(14)
H59_2 H 0.9598 0.9325 0.5639
O18 O 0.94864(19) 0.91522(14) 0.82203(8)
C42_2 C 0.9627(3) 0.4449(2) 0.31139(10)
C35_2 C 0.9574(3) 0.9983(2) 0.81452(10)
loop_
_geom_bond_atom_site_label_1
_geom_bond_atom_site_label_2
_geom_bond_site_symmetry_1
_geom_bond_site_symmetry_2
O6 C35 1_555 1_555
Zn10 O6 1_555 1_555
O11 C42 1_555 1_555
O13 C42 1_555 1_555
Zn5 O13 1_555 1_555
Zn8 O14 1_555 1_555
Zn12 O11 1_555 1_555
Zn10 N1 1_555 1_555
N1 C53 1_555 1_555
O1 Zn10 1_555 1_555
O3 C9 1_555 1_555
O5 Zn10 1_555 1_555
O7 C47 1_555 1_555
O9 C9 1_555 1_555
O10 C47 1_555 1_555
O12 Zn10 1_555 1_555
C9 C65 1_555 1_555
C12 H4 1_555 1_555
C20 H10 1_555 1_555
C32 C3 1_555 1_555
H19 C32 1_555 1_555
C36 O1 1_555 1_555
C47 C72 1_555 1_555
H30 C52 1_555 1_555
C53 C32 1_555 1_555
H31 C53 1_555 1_555
C55 O5 1_555 1_555
C56 H33 1_555 1_555
C61 C56 1_555 1_555
H42 C61 1_555 1_555
C64 C36 1_555 1_555
H44 C64 1_555 1_555
C65 C56 1_555 1_555
H45 C65 1_555 1_555
C68 N1 1_555 1_555
H48 C68 1_555 1_555
C72 C52 1_555 1_555
H56 C72 1_555 1_555
C75 H59 1_555 1_555
Zn8 O3 1_555 1_555
Zn12 O7 1_555 1_555
N17 Zn10 1_555 1_555
O9 Zn8 1_555 1_555
O10 Zn12 1_555 1_555
O12 C36 1_555 1_555
C20 C55 1_555 1_555
C61 C64 1_555 1_555
N17 C28 1_555 1_555
C28 H16 1_555 1_555
C45 C28 1_555 1_555
H25 C45 1_555 1_555
C46 N17 1_555 1_555
H26 C46 1_555 1_555
C51 H29 1_555 1_555
C59 C31 1_555 1_555
H38 C59 1_555 1_555
C31 C45 1_555 1_555
C46 C59 1_555 1_555
Zn5 N2 1_555 1_555
Zn8 N4 1_555 1_555
Zn12 N5 1_555 1_555
N2 C41 1_555 1_555
N3 Zn5 1_555 1_555
N4 C8 1_555 1_555
N5 C18 1_555 1_555
N6 Zn12 1_555 1_555
O2 Zn5 1_555 1_555
O4 Zn12 1_555 1_555
N7 N8 1_555 1_555
O8 Zn5 1_555 1_555
N8 C7 1_555 1_555
N11 N13 1_555 1_555
N12 N15 1_555 1_555
C1 C5 1_555 1_555
C2 C11 1_555 1_555
N13 C13 1_555 1_555
O15 Zn5 1_555 1_555
O16 Zn8 1_555 1_555
C4 C24 1_555 1_555
C5 H1 1_555 1_555
C6 H2 1_555 1_555
C7 C1 1_555 1_555
C8 C6 1_555 1_555
H3 C8 1_555 1_555
C10 C6 1_555 1_555
N14 N16 1_555 1_555
N15 C27 1_555 1_555
C11 N12 1_555 1_555
C13 C10 1_555 1_555
H5 C14 1_555 1_555
C15 N4 1_555 1_555
H6 C15 1_555 1_555
C16 C17 1_555 1_555
C17 H7 1_555 1_555
C18 C5 1_555 1_555
H8 C18 1_555 1_555
C19 H9 1_555 1_555
N16 C24 1_555 1_555
C21 N14 1_555 1_555
C22 C10 1_555 1_555
H11 C22 1_555 1_555
C23 C21 1_555 1_555
H12 C23 1_555 1_555
H13 C23 1_555 1_555
H14 C23 1_555 1_555
C24 C69 1_555 1_555
C25 C1 1_555 1_555
H15 C25 1_555 1_555
C26 O2 1_555 1_555
C29 N5 1_555 1_555
H17 C29 1_555 1_555
H18 C30 1_555 1_555
C33 C4 1_555 1_555
H20 C33 1_555 1_555
C34 C17 1_555 1_555
H21 C34 1_555 1_555
C37 C16 1_555 1_555
C38 C19 1_555 1_555
H22 C38 1_555 1_555
C40 H23 1_555 1_555
C41 C33 1_555 1_555
H24 C41 1_555 1_555
C43 C40 1_555 1_555
C44 N11 1_555 1_555
C48 C2 1_555 1_555
H27 C48 1_555 1_555
C49 C2 1_555 1_555
H28 C49 1_555 1_555
C50 O4 1_555 1_555
C54 N3 1_555 1_555
H32 C54 1_555 1_555
C57 N3 1_555 1_555
H34 C57 1_555 1_555
C58 C11 1_555 1_555
H35 C58 1_555 1_555
H36 C58 1_555 1_555
H37 C58 1_555 1_555
C60 C13 1_555 1_555
H39 C60 1_555 1_555
H40 C60 1_555 1_555
H41 C60 1_555 1_555
C62 N7 1_555 1_555
C63 C4 1_555 1_555
H43 C63 1_555 1_555
C66 N2 1_555 1_555
H46 C66 1_555 1_555
H47 C67 1_555 1_555
C69 H49 1_555 1_555
H50 C69 1_555 1_555
C71 C7 1_555 1_555
H55 C71 1_555 1_555
C73 N6 1_555 1_555
H57 C73 1_555 1_555
C76 C44 1_555 1_555
H62 C76 1_555 1_555
H63 C76 1_555 1_555
H64 C76 1_555 1_555
C79 C43 1_555 1_555
H69 C79 1_555 1_555
C80 N6 1_555 1_555
H70 C80 1_555 1_555
H71 C16 1_555 1_555
H72 C37 1_555 1_555
N18 Zn8 1_555 1_555
O8 C50 1_555 1_555
O15 C26 1_555 1_555
C15 C22 1_555 1_555
C19 C26 1_555 1_555
C25 C29 1_555 1_555
C37 C50 1_555 1_555
C40 C73 1_555 1_555
C43 C44 1_555 1_555
C48 C57 1_555 1_555
C49 C54 1_555 1_555
C63 C66 1_555 1_555
C79 C80 1_555 1_555
N18 C70 1_555 1_555
C74 N18 1_555 1_555
H58 C74 1_555 1_555
C78 C39 1_555 1_555
H68 C78 1_555 1_555
C74 C78 1_555 1_555
H65 C77 1_555 1_555
H66 C77 1_555 1_555
H65_2 C77_2 1_555 1_555
H66_2 C77_2 1_555 1_555
N10 C70_2 1_555 1_555
C74_2 N10 1_555 1_555
H58_2 C74_2 1_555 1_555
C78_2 C39_2 1_555 1_555
H68_2 C78_2 1_555 1_555
Zn6 N10 1_555 1_555
C74_2 C78_2 1_555 1_555
Zn1 N2_2 1_555 1_555
Zn6 N4_2 1_555 1_555
Zn4 N5_2 1_555 1_555
N2_2 C41_2 1_555 1_555
N3_2 Zn1 1_555 1_555
N4_2 C8_2 1_555 1_555
N5_2 C18_2 1_555 1_555
N6_2 Zn4 1_555 1_555
O2_2 Zn1 1_555 1_555
O4_2 Zn4 1_555 1_555
N7_2 N8_2 1_555 1_555
O8_2 Zn1 1_555 1_555
N8_2 C7_2 1_555 1_555
N11_2 N13_2 1_555 1_555
N12_2 N15_2 1_555 1_555
C1_2 C5_2 1_555 1_555
C2_2 C11_2 1_555 1_555
N13_2 C13_2 1_555 1_555
O15_2 Zn1 1_555 1_555
O16_2 Zn6 1_555 1_555
C4_2 C24_2 1_555 1_555
C5_2 H1_2 1_555 1_555
C6_2 H2_2 1_555 1_555
C7_2 C1_2 1_555 1_555
C8_2 C6_2 1_555 1_555
H3_2 C8_2 1_555 1_555
C10_2 C6_2 1_555 1_555
N14_2 N16_2 1_555 1_555
N15_2 C27_2 1_555 1_555
C11_2 N12_2 1_555 1_555
C13_2 C10_2 1_555 1_555
H5_2 C14_2 1_555 1_555
C15_2 N4_2 1_555 1_555
H6_2 C15_2 1_555 1_555
C16_2 C17_2 1_555 1_555
C17_2 H7_2 1_555 1_555
C18_2 C5_2 1_555 1_555
H8_2 C18_2 1_555 1_555
C19_2 H9_2 1_555 1_555
N16_2 C24_2 1_555 1_555
C21_2 N14_2 1_555 1_555
C22_2 C10_2 1_555 1_555
H11_2 C22_2 1_555 1_555
C23_2 C21_2 1_555 1_555
H12_2 C23_2 1_555 1_555
H13_2 C23_2 1_555 1_555
H14_2 C23_2 1_555 1_555
C24_2 C69_2 1_555 1_555
C25_2 C1_2 1_555 1_555
H15_2 C25_2 1_555 1_555
C26_2 O2_2 1_555 1_555
C29_2 N5_2 1_555 1_555
H17_2 C29_2 1_555 1_555
H18_2 C30_2 1_555 1_555
C33_2 C4_2 1_555 1_555
H20_2 C33_2 1_555 1_555
C34_2 C17_2 1_555 1_555
H21_2 C34_2 1_555 1_555
C37_2 C16_2 1_555 1_555
C38_2 C19_2 1_555 1_555
H22_2 C38_2 1_555 1_555
C40_2 H23_2 1_555 1_555
C41_2 C33_2 1_555 1_555
H24_2 C41_2 1_555 1_555
C43_2 C40_2 1_555 1_555
C44_2 N11_2 1_555 1_555
C48_2 C2_2 1_555 1_555
H27_2 C48_2 1_555 1_555
C49_2 C2_2 1_555 1_555
H28_2 C49_2 1_555 1_555
C50_2 O4_2 1_555 1_555
C54_2 N3_2 1_555 1_555
H32_2 C54_2 1_555 1_555
C57_2 N3_2 1_555 1_555
H34_2 C57_2 1_555 1_555
C58_2 C11_2 1_555 1_555
H35_2 C58_2 1_555 1_555
H36_2 C58_2 1_555 1_555
H37_2 C58_2 1_555 1_555
C60_2 C13_2 1_555 1_555
H39_2 C60_2 1_555 1_555
H40_2 C60_2 1_555 1_555
H41_2 C60_2 1_555 1_555
C62_2 N7_2 1_555 1_555
C63_2 C4_2 1_555 1_555
H43_2 C63_2 1_555 1_555
C66_2 N2_2 1_555 1_555
H46_2 C66_2 1_555 1_555
H47_2 C67_2 1_555 1_555
C69_2 H49_2 1_555 1_555
H50_2 C69_2 1_555 1_555
C71_2 C7_2 1_555 1_555
H55_2 C71_2 1_555 1_555
C73_2 N6_2 1_555 1_555
H57_2 C73_2 1_555 1_555
C76_2 C44_2 1_555 1_555
H62_2 C76_2 1_555 1_555
H63_2 C76_2 1_555 1_555
H64_2 C76_2 1_555 1_555
C79_2 C43_2 1_555 1_555
H69_2 C79_2 1_555 1_555
C80_2 N6_2 1_555 1_555
H70_2 C80_2 1_555 1_555
H71_2 C16_2 1_555 1_555
H72_2 C37_2 1_555 1_555
O17 Zn6 1_555 1_555
O19 Zn4 1_555 1_555
O20 Zn6 1_555 1_555
O21 Zn4 1_555 1_555
O22 Zn4 1_555 1_555
O23 Zn1 1_555 1_555
O24 Zn6 1_555 1_555
O8_2 C50_2 1_555 1_555
O15_2 C26_2 1_555 1_555
C15_2 C22_2 1_555 1_555
C19_2 C26_2 1_555 1_555
C25_2 C29_2 1_555 1_555
C37_2 C50_2 1_555 1_555
C40_2 C73_2 1_555 1_555
C43_2 C44_2 1_555 1_555
C48_2 C57_2 1_555 1_555
C49_2 C54_2 1_555 1_555
C63_2 C66_2 1_555 1_555
C79_2 C80_2 1_555 1_555
N9 C28_2 1_555 1_555
C28_2 H16_2 1_555 1_555
C45_2 C28_2 1_555 1_555
H25_2 C45_2 1_555 1_555
C46_2 N9 1_555 1_555
H26_2 C46_2 1_555 1_555
C51_2 H29_2 1_555 1_555
C59_2 C31_2 1_555 1_555
H38_2 C59_2 1_555 1_555
Zn9 N9 1_555 1_555
C31_2 C45_2 1_555 1_555
C46_2 C59_2 1_555 1_555
Zn9 N1_2 1_555 1_555
N1_2 C53_2 1_555 1_555
O1_2 Zn9 1_555 1_555
O17 C9_2 1_555 1_555
O5_2 Zn9 1_555 1_555
O19 C47_2 1_555 1_555
O20 C9_2 1_555 1_555
O21 C47_2 1_555 1_555
O12_2 Zn9 1_555 1_555
C9_2 C65_2 1_555 1_555
C12_2 H4_2 1_555 1_555
C20_2 H10_2 1_555 1_555
C32_2 C3_2 1_555 1_555
H19_2 C32_2 1_555 1_555
C36_2 O1_2 1_555 1_555
C47_2 C72_2 1_555 1_555
H30_2 C52_2 1_555 1_555
C53_2 C32_2 1_555 1_555
H31_2 C53_2 1_555 1_555
C55_2 O5_2 1_555 1_555
C56_2 H33_2 1_555 1_555
C61_2 C56_2 1_555 1_555
H42_2 C61_2 1_555 1_555
C64_2 C36_2 1_555 1_555
H44_2 C64_2 1_555 1_555
C65_2 C56_2 1_555 1_555
H45_2 C65_2 1_555 1_555
C68_2 N1_2 1_555 1_555
H48_2 C68_2 1_555 1_555
C72_2 C52_2 1_555 1_555
H56_2 C72_2 1_555 1_555
C75_2 H59_2 1_555 1_555
O18 Zn9 1_555 1_555
O12_2 C36_2 1_555 1_555
C20_2 C55_2 1_555 1_555
C61_2 C64_2 1_555 1_555
O22 C42_2 1_555 1_555
O23 C42_2 1_555 1_555
O18 C35_2 1_555 1_555

#END
