
###############################################################################
#
# This file contains modified crystal structure data generated from the
# MOF subset of the Cambridge Structural Database (CSD) v543 
# hosted by the Cambridge Crystallographic Data Centre (CCDC).
#
# This work is licensed under the Creative Commons
# Attribution-NonCommercial-ShareAlike 4.0 International License.
# To view a copy of this license, visit
# http://creativecommons.org/licenses/by-nc-sa/4.0/
# or send a letter to
# Creative Commons, PO Box 1866, Mountain View, CA 94042, USA.
#
# CIF created using the CSD Python API on 29 September 2022
# The structure has been converted into the P1 space group
# The structure has a 3D framework
# The original CSD entry QIWBOQ is in the rhombohedral crystal system
# The framework has been calculated to contain at least 10.0% void space
# The void calculation uses a probe of radius 1.32A, grid spacing 0.4
# The framework is charged, counterions have been retained in the structure
#
###############################################################################

data_QIWBOQ
_chemical_formula_moiety         '(C476 H310 N166 O136 Zn36 27-)n'
_symmetry_cell_setting           triclinic
_symmetry_space_group_name_H-M   'P 1'
_symmetry_Int_Tables_number      1
_space_group_name_Hall           'P 1'
loop_
_symmetry_equiv_pos_site_id
_symmetry_equiv_pos_as_xyz
1 x,y,z
_cell_length_a                   21.5586(3)
_cell_length_b                   21.5586(3)
_cell_length_c                   62.2218(15)
_cell_angle_alpha                90
_cell_angle_beta                 90
_cell_angle_gamma                120
_cell_volume                     25044.6
loop_
_atom_site_label
_atom_site_type_symbol
_atom_site_fract_x
_atom_site_fract_y
_atom_site_fract_z
Zn6 Zn 0.29860(5) 0.05477(3) 0.49156(2)
C1 C 0.2536(6) 0.5263(5) 0.38388(17)
C2 C 0.2716(5) 0.5500(4) 0.36263(16)
H1 H 0.258194 0.581461 0.356893
C3 C 0.3084(5) 0.5273(5) 0.35036(16)
H2 H 0.319810 0.543099 0.336243
C4 C 0.3283(4) 0.4832(4) 0.35817(17)
C5 C 0.3104(5) 0.4576(4) 0.37922(17)
H3 H 0.322749 0.424778 0.384410
C6 C 0.2744(6) 0.4808(5) 0.39232(16)
H4 H 0.264429 0.465884 0.406554
C7 C 0.3696(5) 0.4618(5) 0.3440(2)
C8 C 0.2139(7) 0.5556(6) 0.3965(2)
H5 H 0.246189 0.605991 0.399375
H6 H 0.174834 0.551872 0.387752
C9 C 0.1203(7) 0.4536(7) 0.416667
C10 C 0.0890(6) 0.4191(6) 0.43576(10)
H7 H 0.111192 0.440263 0.448679
C11 C 0.0264(7) 0.3551(7) 0.43619(13)
C13 C 0.0043(8) 0.3253(8) 0.4583(2)
N1 N 0.5739(5) 0.4481(5) 0.3120(2)
N2 N 0.6372(4) 0.5040(5) 0.3138(2)
N3 N 0.5272(3) 0.4593(3) 0.32292(10)
C14 C 0.5664(3) 0.5159(3) 0.33346(9)
H9 H 0.549623 0.533423 0.342682
N4 N 0.6353(3) 0.5456(3) 0.32902(11)
N5 N 0.1852(7) 0.5185(7) 0.416667
O1 O 0.3772(3) 0.4152(3) 0.34797(12)
O2 O 0.3932(5) 0.4915(6) 0.32631(13)
O3 O 0.0365(5) 0.3605(5) 0.47452(9)
Zn1 Zn 0.42283(4) 0.38810(3) 0.32489(2)
C15 C 0.1930(5) 0.5869(6) 0.44945(17)
C16 C 0.2167(4) 0.6049(5) 0.47070(16)
H10 H 0.248128 0.591527 0.476440
C17 C 0.1940(5) 0.6417(5) 0.48297(16)
H11 H 0.209766 0.653143 0.497090
C18 C 0.1499(4) 0.6616(4) 0.47516(17)
C19 C 0.1243(4) 0.6437(5) 0.45411(17)
H12 H 0.091445 0.656082 0.448923
C20 C 0.1475(5) 0.6077(6) 0.44101(16)
H13 H 0.132551 0.597762 0.426779
C21 C 0.1285(5) 0.7029(5) 0.4893(2)
C22 C 0.2223(6) 0.5472(7) 0.4368(2)
H14 H 0.272658 0.579522 0.433958
H15 H 0.218539 0.508167 0.445581
C23 C 0.0858(6) 0.4223(6) 0.39757(10)
H16 H 0.106930 0.444525 0.384654
C24 C 0.0218(7) 0.3597(7) 0.39714(13)
O5 O 0.0819(3) 0.7105(3) 0.48536(12)
O6 O 0.1582(6) 0.7265(5) 0.50702(13)
O7 O 0.0272(5) 0.3698(5) 0.35881(9)
N6 N 0.1148(5) 0.9072(5) 0.5213(2)
N7 N 0.1707(5) 0.9705(4) 0.5195(2)
N8 N 0.1260(3) 0.8605(3) 0.51041(10)
C26 C 0.1826(3) 0.8997(3) 0.49987(9)
H17 H 0.200090 0.882956 0.490651
N9 N 0.2123(3) 0.9686(3) 0.50431(11)
Zn2 Zn 0.05477(3) 0.75616(4) 0.50844(2)
N10 N 0.4230(4) 0.3020(3) 0.33765(11)
O10 O 0.3062(5) 0.2968(5) 0.30785(9)
O11 O 0.0436(6) 0.7306(6) 0.54188(18)
O12 O 0.3973(6) 0.3769(6) 0.29145(18)
Zn4 Zn 0.72143(3) 0.63194(5) 0.34178(2)
C12 C 0.9898(7) 0.3231(7) 0.416667
H8 H 0.946630 0.279959 0.416666
O4 O 0.9564(6) 0.2694(6) 0.45812(18)
C25 C 0.9920(8) 0.3376(8) 0.3750(2)
O8 O 0.9361(6) 0.2897(6) 0.37521(18)
N11 N 0.9686(3) 0.7564(4) 0.49569(11)
O9 O 0.9635(5) 0.6395(5) 0.52548(9)
Zn3 Zn 0.91050(4) 0.27857(3) 0.34178(2)
Zn5 Zn 0.94523(3) 0.24384(4) 0.49156(2)
N1_2 N 0.5519(5) 0.1258(7) 0.3120(2)
N2_2 N 0.4960(5) 0.1332(6) 0.3138(2)
N3_2 N 0.5407(3) 0.0679(4) 0.32292(10)
C14_2 C 0.4841(3) 0.0505(4) 0.33346(9)
H9_2 H 0.466577 0.016200 0.342682
N4_2 N 0.4544(3) 0.0897(4) 0.32902(11)
Zn1_2 Zn 0.61190(3) 0.03473(5) 0.32489(2)
N10_2 N 0.6980(3) 0.1211(5) 0.33765(11)
O10_2 O 0.7032(5) 0.0093(7) 0.30785(9)
O12_2 O 0.6231(6) 0.0203(8) 0.29145(18)
Zn4_2 Zn 0.36806(5) 0.08950(6) 0.34178(2)
C1_2 C 0.4737(5) 0.7273(8) 0.38388(17)
C2_2 C 0.4500(4) 0.7216(6) 0.36263(16)
H1_2 H 0.418539 0.676733 0.356893
C3_2 C 0.4727(5) 0.7811(7) 0.35036(16)
H2_2 H 0.456901 0.776711 0.336243
C4_2 C 0.5168(4) 0.8451(6) 0.35817(17)
C5_2 C 0.5424(4) 0.8528(6) 0.37922(17)
H3_2 H 0.575222 0.897971 0.384410
C6_2 C 0.5192(5) 0.7936(8) 0.39232(16)
H4_2 H 0.534116 0.798545 0.406554
C7_2 C 0.5382(5) 0.9078(7) 0.3440(2)
C8_2 C 0.4444(6) 0.6583(9) 0.3965(2)
H5_2 H 0.394009 0.640198 0.399375
H6_2 H 0.448128 0.622962 0.387752
C9_2 C 0.5464(7) 0.6667(10) 0.416667
C10_2 C 0.5809(6) 0.6699(8) 0.43576(10)
H7_2 H 0.559737 0.670929 0.448679
C11_2 C 0.6449(7) 0.6713(10) 0.43619(13)
C12_2 C 0.6769(7) 0.6667(10) 0.416667
H8_2 H 0.720041 0.666671 0.416666
C13_2 C 0.6747(8) 0.6790(11) 0.4583(2)
N5_2 N 0.4815(7) 0.6667(10) 0.416667
O1_2 O 0.5848(3) 0.9620(4) 0.34797(12)
O2_2 O 0.5085(6) 0.9017(8) 0.32631(13)
O3_2 O 0.6395(5) 0.6760(7) 0.47452(9)
O4_2 O 0.7306(6) 0.6870(8) 0.45812(18)
C15_2 C 0.4131(6) 0.6060(8) 0.44945(17)
C16_2 C 0.3951(5) 0.6117(6) 0.47070(16)
H10_2 H 0.408473 0.656600 0.476440
C17_2 C 0.3583(5) 0.5522(7) 0.48297(16)
H11_2 H 0.346857 0.556622 0.497090
C18_2 C 0.3384(4) 0.4882(6) 0.47516(17)
C19_2 C 0.3563(5) 0.4805(6) 0.45411(17)
H12_2 H 0.343918 0.435362 0.448923
C20_2 C 0.3923(6) 0.5397(8) 0.44101(16)
H13_2 H 0.402238 0.534788 0.426779
C21_2 C 0.2971(5) 0.4255(7) 0.4893(2)
C22_2 C 0.4528(7) 0.6750(9) 0.4368(2)
H14_2 H 0.420478 0.693135 0.433958
H15_2 H 0.491833 0.710371 0.445581
C23_2 C 0.5777(6) 0.6634(8) 0.39757(10)
H16_2 H 0.555475 0.662404 0.384654
C24_2 C 0.6403(7) 0.6620(10) 0.39714(13)
C25_2 C 0.6624(8) 0.6543(11) 0.3750(2)
O5_2 O 0.2895(3) 0.3713(4) 0.48536(12)
O6_2 O 0.2735(5) 0.4316(8) 0.50702(13)
O7_2 O 0.6302(5) 0.6573(7) 0.35881(9)
O8_2 O 0.7103(6) 0.6463(8) 0.37521(18)
N6_2 N 0.0928(5) 0.2075(7) 0.5213(2)
N7_2 N 0.0295(4) 0.2001(6) 0.5195(2)
N8_2 N 0.1395(3) 0.2654(4) 0.51041(10)
C26_2 C 0.1003(3) 0.2828(4) 0.49987(9)
H17_2 H 0.117044 0.317133 0.490651
N9_2 N 0.0314(3) 0.2436(4) 0.50431(11)
Zn2_2 Zn 0.24384(4) 0.29860(5) 0.50844(2)
N11_2 N 0.2436(4) 0.2123(5) 0.49569(11)
O9_2 O 0.3605(5) 0.3240(7) 0.52548(9)
O11_2 O 0.2694(6) 0.3130(8) 0.54188(18)
Zn5_2 Zn 0.75616(4) 0.70140(5) 0.49156(2)
C12_3 C 0.3333(10) 0.0102(7) 0.416667
H8_3 H 0.333329 0.053370 0.416666
O4_3 O 0.3130(8) 0.0436(6) 0.45812(18)
C25_3 C 0.3457(11) 0.0080(8) 0.3750(2)
O8_3 O 0.3537(8) 0.0639(6) 0.37521(18)
N11_3 N 0.7877(5) 0.0314(3) 0.49569(11)
O9_3 O 0.6760(7) 0.0365(5) 0.52548(9)
C1_3 C 0.2727(8) 0.7464(6) 0.38388(17)
C2_3 C 0.2784(6) 0.7284(5) 0.36263(16)
H1_3 H 0.323267 0.741806 0.356893
C3_3 C 0.2189(7) 0.6916(5) 0.35036(16)
H2_3 H 0.223289 0.680190 0.336243
C4_3 C 0.1549(6) 0.6717(4) 0.35817(17)
C5_3 C 0.1472(6) 0.6896(5) 0.37922(17)
H3_3 H 0.102029 0.677251 0.384410
C6_3 C 0.2064(8) 0.7256(6) 0.39232(16)
H4_3 H 0.201455 0.735571 0.406554
C7_3 C 0.0922(7) 0.6304(5) 0.3440(2)
C8_3 C 0.3417(9) 0.7861(7) 0.3965(2)
H5_3 H 0.359802 0.753811 0.399375
H6_3 H 0.377038 0.825166 0.387752
C9_3 C 0.3333(10) 0.8797(7) 0.416667
C10_3 C 0.3301(8) 0.9110(6) 0.43576(10)
H7_3 H 0.329071 0.888808 0.448679
C11_3 C 0.3287(10) 0.9736(7) 0.43619(13)
C13_3 C 0.3210(11) 0.9957(8) 0.4583(2)
N5_3 N 0.3333(10) 0.8148(7) 0.416667
O1_3 O 0.0380(4) 0.6228(3) 0.34797(12)
O2_3 O 0.0983(8) 0.6068(5) 0.32631(13)
O3_3 O 0.3240(7) 0.9635(5) 0.47452(9)
C15_3 C 0.3940(8) 0.8070(5) 0.44945(17)
C16_3 C 0.3883(6) 0.7833(4) 0.47070(16)
H10_3 H 0.343400 0.751872 0.476440
C17_3 C 0.4478(7) 0.8060(5) 0.48297(16)
H11_3 H 0.443378 0.790234 0.497090
C18_3 C 0.5118(6) 0.8501(4) 0.47516(17)
C19_3 C 0.5195(6) 0.8757(4) 0.45411(17)
H12_3 H 0.564638 0.908555 0.448923
C20_3 C 0.4603(8) 0.8525(5) 0.44101(16)
H13_3 H 0.465212 0.867449 0.426779
C21_3 C 0.5745(7) 0.8715(5) 0.4893(2)
C22_3 C 0.3250(9) 0.7777(6) 0.4368(2)
H14_3 H 0.306865 0.727342 0.433958
H15_3 H 0.289629 0.781461 0.445581
C23_3 C 0.3366(8) 0.9142(6) 0.39757(10)
H16_3 H 0.337596 0.893070 0.384654
C24_3 C 0.3380(10) 0.9782(7) 0.39714(13)
O5_3 O 0.6287(4) 0.9181(3) 0.48536(12)
O6_3 O 0.5684(8) 0.8418(6) 0.50702(13)
O7_3 O 0.3427(7) 0.9728(5) 0.35881(9)
N6_3 N 0.7925(7) 0.8852(5) 0.5213(2)
N7_3 N 0.7999(6) 0.8293(5) 0.5195(2)
N8_3 N 0.7346(4) 0.8740(3) 0.51041(10)
C26_3 C 0.7172(4) 0.8174(3) 0.49987(9)
H17_3 H 0.682867 0.799910 0.490651
N9_3 N 0.7564(4) 0.7877(3) 0.50431(11)
Zn2_3 Zn 0.70140(5) 0.94523(3) 0.50844(2)
O11_3 O 0.6870(8) 0.9564(6) 0.54188(18)
N1_3 N 0.8742(7) 0.4261(5) 0.3120(2)
N2_3 N 0.8668(6) 0.3628(4) 0.3138(2)
N3_3 N 0.9321(4) 0.4728(3) 0.32292(10)
C14_3 C 0.9495(4) 0.4336(3) 0.33346(9)
H9_3 H 0.983800 0.450377 0.342682
N4_3 N 0.9103(4) 0.3647(3) 0.32902(11)
Zn1_3 Zn 0.96527(5) 0.57717(4) 0.32489(2)
N10_3 N 0.8789(5) 0.5770(4) 0.33765(11)
O10_3 O 0.9907(7) 0.6938(5) 0.30785(9)
O12_3 O 0.9797(8) 0.6027(6) 0.29145(18)
Zn6_2 Zn 0.05477(3) 0.29860(5) 0.00844(2)
C1_4 C 0.5263(5) 0.2536(6) 0.11612(17)
C2_4 C 0.5500(4) 0.2716(5) 0.13737(16)
H1_4 H 0.581461 0.258194 0.143107
C3_4 C 0.5273(5) 0.3084(5) 0.14964(16)
H2_4 H 0.543099 0.319810 0.163757
C4_4 C 0.4832(4) 0.3283(4) 0.14183(17)
C5_4 C 0.4576(4) 0.3104(5) 0.12078(17)
H3_4 H 0.424778 0.322749 0.115590
C6_4 C 0.4808(5) 0.2744(6) 0.10768(16)
H4_4 H 0.465884 0.264429 0.093446
C7_4 C 0.4618(5) 0.3696(5) 0.1560(2)
C8_4 C 0.5556(6) 0.2139(7) 0.1035(2)
H5_4 H 0.605991 0.246189 0.100625
H6_4 H 0.551872 0.174834 0.112248
C9_4 C 0.4536(7) 0.1203(7) 0.083333
C10_4 C 0.4191(6) 0.0890(6) 0.06424(10)
H7_4 H 0.440263 0.111192 0.051321
C11_4 C 0.3551(7) 0.0264(7) 0.06381(13)
C13_4 C 0.3253(8) 0.0043(8) 0.0417(2)
N1_4 N 0.4481(5) 0.5739(5) 0.1880(2)
N2_4 N 0.5040(5) 0.6372(4) 0.1862(2)
N3_4 N 0.4593(3) 0.5272(3) 0.17708(10)
C14_4 C 0.5159(3) 0.5664(3) 0.16654(9)
H9_4 H 0.533423 0.549623 0.157318
N4_4 N 0.5456(3) 0.6353(3) 0.17098(11)
N5_4 N 0.5185(7) 0.1852(7) 0.083333
O1_4 O 0.4152(3) 0.3772(3) 0.15203(12)
O2_4 O 0.4915(6) 0.3932(5) 0.17369(13)
O3_4 O 0.3605(5) 0.0365(5) 0.02548(9)
Zn1_4 Zn 0.38810(3) 0.42283(4) 0.17511(2)
C15_4 C 0.5869(6) 0.1930(5) 0.05055(17)
C16_4 C 0.6049(5) 0.2167(4) 0.02930(16)
H10_4 H 0.591527 0.248128 0.023560
C17_4 C 0.6417(5) 0.1940(5) 0.01703(16)
H11_4 H 0.653143 0.209766 0.002910
C18_4 C 0.6616(4) 0.1499(4) 0.02484(17)
C19_4 C 0.6437(5) 0.1243(4) 0.04589(17)
H12_4 H 0.656082 0.091445 0.051077
C20_4 C 0.6077(6) 0.1475(5) 0.05899(16)
H13_4 H 0.597762 0.132551 0.073221
C21_4 C 0.7029(5) 0.1285(5) 0.0107(2)
C22_4 C 0.5472(7) 0.2223(6) 0.0632(2)
H14_4 H 0.579522 0.272658 0.066042
H15_4 H 0.508167 0.218539 0.054419
C23_4 C 0.4223(6) 0.0858(6) 0.10243(10)
H16_4 H 0.444525 0.106930 0.115346
C24_4 C 0.3597(7) 0.0218(7) 0.10286(13)
O5_4 O 0.7105(3) 0.0819(3) 0.01464(12)
O7_4 O 0.3698(5) 0.0272(5) 0.14119(9)
C26_4 C 0.8997(3) 0.1826(3) 0.00013(9)
H17_4 H 0.882956 0.200090 0.009349
N10_4 N 0.3020(3) 0.4230(4) 0.16235(11)
O10_4 O 0.2968(5) 0.3062(5) 0.19215(9)
O12_4 O 0.3769(6) 0.3973(6) 0.20855(18)
Zn4_3 Zn 0.63194(5) 0.72143(3) 0.15822(2)
O6_4 O 0.7265(5) 0.1582(6) 0.99298(13)
N6_4 N 0.9072(5) 0.1148(5) 0.9787(2)
N7_4 N 0.9705(4) 0.1707(5) 0.9805(2)
N8_4 N 0.8605(3) 0.1260(3) 0.98959(10)
N9_4 N 0.9686(3) 0.2123(3) 0.99569(11)
Zn2_4 Zn 0.75616(4) 0.05477(3) 0.99156(2)
O11_4 O 0.7306(6) 0.0436(6) 0.95812(18)
C12_4 C 0.3231(7) 0.9898(7) 0.083333
H8_4 H 0.279959 0.946630 0.083334
O4_4 O 0.2694(6) 0.9564(6) 0.04188(18)
C25_4 C 0.3376(8) 0.9920(8) 0.1250(2)
O8_4 O 0.2897(6) 0.9361(6) 0.12479(18)
N11_4 N 0.7564(4) 0.9686(3) 0.00431(11)
Zn3_2 Zn 0.27857(3) 0.91050(4) 0.15822(2)
Zn5_3 Zn 0.24384(4) 0.94523(3) 0.00844(2)
O9_4 O 0.6395(5) 0.9635(5) 0.97452(9)
N1_5 N 0.1258(7) 0.5519(5) 0.1880(2)
N2_5 N 0.1332(6) 0.4960(5) 0.1862(2)
N3_5 N 0.0679(4) 0.5407(3) 0.17708(10)
C14_5 C 0.0505(4) 0.4841(3) 0.16654(9)
H9_5 H 0.016200 0.466577 0.157318
N4_5 N 0.0897(4) 0.4544(3) 0.17098(11)
Zn1_5 Zn 0.03473(5) 0.61190(3) 0.17511(2)
N10_5 N 0.1211(5) 0.6980(3) 0.16235(11)
O10_5 O 0.0093(7) 0.7032(5) 0.19215(9)
O12_5 O 0.0203(8) 0.6231(6) 0.20855(18)
Zn4_4 Zn 0.08950(6) 0.36806(5) 0.15822(2)
C1_5 C 0.7273(8) 0.4737(5) 0.11612(17)
C2_5 C 0.7216(6) 0.4500(4) 0.13737(16)
H1_5 H 0.676733 0.418539 0.143107
C3_5 C 0.7811(7) 0.4727(5) 0.14964(16)
H2_5 H 0.776711 0.456901 0.163757
C4_5 C 0.8451(6) 0.5168(4) 0.14183(17)
C5_5 C 0.8528(6) 0.5424(4) 0.12078(17)
H3_5 H 0.897971 0.575222 0.115590
C6_5 C 0.7936(8) 0.5192(5) 0.10768(16)
H4_5 H 0.798545 0.534116 0.093446
C7_5 C 0.9078(7) 0.5382(5) 0.1560(2)
C8_5 C 0.6583(9) 0.4444(6) 0.1035(2)
H5_5 H 0.640198 0.394009 0.100625
H6_5 H 0.622962 0.448128 0.112248
C9_5 C 0.6667(10) 0.5464(7) 0.083333
C10_5 C 0.6699(8) 0.5809(6) 0.06424(10)
H7_5 H 0.670929 0.559737 0.051321
C11_5 C 0.6713(10) 0.6449(7) 0.06381(13)
C12_5 C 0.6667(10) 0.6769(7) 0.083333
H8_5 H 0.666671 0.720041 0.083334
C13_5 C 0.6790(11) 0.6747(8) 0.0417(2)
N5_5 N 0.6667(10) 0.4815(7) 0.083333
O1_5 O 0.9620(4) 0.5848(3) 0.15203(12)
O2_5 O 0.9017(8) 0.5085(6) 0.17369(13)
O3_5 O 0.6760(7) 0.6395(5) 0.02548(9)
O4_5 O 0.6870(8) 0.7306(6) 0.04188(18)
C15_5 C 0.6060(8) 0.4131(6) 0.05055(17)
C16_5 C 0.6117(6) 0.3951(5) 0.02930(16)
H10_5 H 0.656600 0.408473 0.023560
C17_5 C 0.5522(7) 0.3583(5) 0.01703(16)
H11_5 H 0.556622 0.346857 0.002910
C18_5 C 0.4882(6) 0.3384(4) 0.02484(17)
C19_5 C 0.4805(6) 0.3563(5) 0.04589(17)
H12_5 H 0.435362 0.343918 0.051077
C20_5 C 0.5397(8) 0.3923(6) 0.05899(16)
H13_5 H 0.534788 0.402238 0.073221
C21_5 C 0.4255(7) 0.2971(5) 0.0107(2)
C22_5 C 0.6750(9) 0.4528(7) 0.0632(2)
H14_5 H 0.693135 0.420478 0.066042
H15_5 H 0.710371 0.491833 0.054419
C23_5 C 0.6634(8) 0.5777(6) 0.10243(10)
H16_5 H 0.662404 0.555475 0.115346
C24_5 C 0.6620(10) 0.6403(7) 0.10286(13)
C25_5 C 0.6543(11) 0.6624(8) 0.1250(2)
O5_5 O 0.3713(4) 0.2895(3) 0.01464(12)
O7_5 O 0.6573(7) 0.6302(5) 0.14119(9)
O8_5 O 0.6463(8) 0.7103(6) 0.12479(18)
C26_5 C 0.2828(4) 0.1003(3) 0.00013(9)
H17_5 H 0.317133 0.117044 0.009349
N11_5 N 0.2123(5) 0.2436(4) 0.00431(11)
Zn5_4 Zn 0.70140(5) 0.75616(4) 0.00844(2)
O6_5 O 0.4316(8) 0.2735(5) 0.99298(13)
N6_5 N 0.2075(7) 0.0928(5) 0.9787(2)
N7_5 N 0.2001(6) 0.0295(4) 0.9805(2)
N8_5 N 0.2654(4) 0.1395(3) 0.98959(10)
N9_5 N 0.2436(4) 0.0314(3) 0.99569(11)
Zn2_5 Zn 0.29860(5) 0.24384(4) 0.99156(2)
O9_5 O 0.3240(7) 0.3605(5) 0.97452(9)
O11_5 O 0.3130(8) 0.2694(6) 0.95812(18)
C12_6 C 0.0102(7) 0.3333(10) 0.083333
H8_6 H 0.053370 0.333329 0.083334
O4_6 O 0.0436(6) 0.3130(8) 0.04188(18)
C25_6 C 0.0080(8) 0.3457(11) 0.1250(2)
O8_6 O 0.0639(6) 0.3537(8) 0.12479(18)
N11_6 N 0.0314(3) 0.7877(5) 0.00431(11)
O9_6 O 0.0365(5) 0.6760(7) 0.97452(9)
C1_6 C 0.7464(6) 0.2727(8) 0.11612(17)
C2_6 C 0.7284(5) 0.2784(6) 0.13737(16)
H1_6 H 0.741806 0.323267 0.143107
C3_6 C 0.6916(5) 0.2189(7) 0.14964(16)
H2_6 H 0.680190 0.223289 0.163757
C4_6 C 0.6717(4) 0.1549(6) 0.14183(17)
C5_6 C 0.6896(5) 0.1472(6) 0.12078(17)
H3_6 H 0.677251 0.102029 0.115590
C6_6 C 0.7256(6) 0.2064(8) 0.10768(16)
H4_6 H 0.735571 0.201455 0.093446
C7_6 C 0.6304(5) 0.0922(7) 0.1560(2)
C8_6 C 0.7861(7) 0.3417(9) 0.1035(2)
H5_6 H 0.753811 0.359802 0.100625
H6_6 H 0.825166 0.377038 0.112248
C9_6 C 0.8797(7) 0.3333(10) 0.083333
C10_6 C 0.9110(6) 0.3301(8) 0.06424(10)
H7_6 H 0.888808 0.329071 0.051321
C11_6 C 0.9736(7) 0.3287(10) 0.06381(13)
C13_6 C 0.9957(8) 0.3210(11) 0.0417(2)
N5_6 N 0.8148(7) 0.3333(10) 0.083333
O1_6 O 0.6228(3) 0.0380(4) 0.15203(12)
O2_6 O 0.6068(5) 0.0983(8) 0.17369(13)
O3_6 O 0.9635(5) 0.3240(7) 0.02548(9)
C15_6 C 0.8070(5) 0.3940(8) 0.05055(17)
C16_6 C 0.7833(4) 0.3883(6) 0.02930(16)
H10_6 H 0.751872 0.343400 0.023560
C17_6 C 0.8060(5) 0.4478(7) 0.01703(16)
H11_6 H 0.790234 0.443378 0.002910
C18_6 C 0.8501(4) 0.5118(6) 0.02484(17)
C19_6 C 0.8757(4) 0.5195(6) 0.04589(17)
H12_6 H 0.908555 0.564638 0.051077
C20_6 C 0.8525(5) 0.4603(8) 0.05899(16)
H13_6 H 0.867449 0.465212 0.073221
C21_6 C 0.8715(5) 0.5745(7) 0.0107(2)
C22_6 C 0.7777(6) 0.3250(9) 0.0632(2)
H14_6 H 0.727342 0.306865 0.066042
H15_6 H 0.781461 0.289629 0.054419
C23_6 C 0.9142(6) 0.3366(8) 0.10243(10)
H16_6 H 0.893070 0.337596 0.115346
C24_6 C 0.9782(7) 0.3380(10) 0.10286(13)
O5_6 O 0.9181(3) 0.6287(4) 0.01464(12)
O7_6 O 0.9728(5) 0.3427(7) 0.14119(9)
C26_6 C 0.8174(3) 0.7172(4) 0.00013(9)
H17_6 H 0.799910 0.682867 0.009349
O6_6 O 0.8418(6) 0.5684(8) 0.99298(13)
N6_6 N 0.8852(5) 0.7925(7) 0.9787(2)
N7_6 N 0.8293(5) 0.7999(6) 0.9805(2)
N8_6 N 0.8740(3) 0.7346(4) 0.98959(10)
N9_6 N 0.7877(3) 0.7564(4) 0.99569(11)
Zn2_6 Zn 0.94523(3) 0.70140(5) 0.99156(2)
O11_6 O 0.9564(6) 0.6870(8) 0.95812(18)
N1_6 N 0.4261(5) 0.8742(7) 0.1880(2)
N2_6 N 0.3628(4) 0.8668(6) 0.1862(2)
N3_6 N 0.4728(3) 0.9321(4) 0.17708(10)
C14_6 C 0.4336(3) 0.9495(4) 0.16654(9)
H9_6 H 0.450377 0.983800 0.157318
N4_6 N 0.3647(3) 0.9103(4) 0.17098(11)
Zn1_6 Zn 0.57717(4) 0.96527(5) 0.17511(2)
N10_6 N 0.5770(4) 0.8789(5) 0.16235(11)
O10_6 O 0.6938(5) 0.9907(7) 0.19215(9)
O12_6 O 0.6027(6) 0.9797(8) 0.20855(18)
C7_7 C 0.0363(5) 0.7951(5) 0.6773(2)
N1_7 N 0.2406(5) 0.7814(5) 0.6453(2)
N2_7 N 0.3039(4) 0.8373(5) 0.6471(2)
N3_7 N 0.1939(3) 0.7926(3) 0.65625(10)
C14_7 C 0.2331(3) 0.8492(3) 0.66679(9)
H9_7 H 0.216290 0.866756 0.676015
N4_7 N 0.3020(3) 0.8789(3) 0.66235(11)
O1_7 O 0.0439(3) 0.7485(3) 0.68130(12)
O2_7 O 0.0599(5) 0.8248(6) 0.65964(13)
Zn1_7 Zn 0.08950(4) 0.72143(3) 0.65822(2)
N10_7 N 0.0897(4) 0.6353(3) 0.67098(11)
O12_7 O 0.0639(6) 0.7103(6) 0.62479(18)
Zn4_5 Zn 0.38810(3) 0.96527(5) 0.67511(2)
C21_7 C 0.7951(5) 0.0363(5) 0.8227(2)
O5_7 O 0.7485(3) 0.0439(3) 0.81870(12)
O6_7 O 0.8248(6) 0.0599(5) 0.84036(13)
N6_7 N 0.7814(5) 0.2406(5) 0.8547(2)
N7_7 N 0.8373(5) 0.3039(4) 0.8529(2)
N8_7 N 0.7926(3) 0.1939(3) 0.84375(10)
C26_7 C 0.8492(3) 0.2331(3) 0.83321(9)
H17_7 H 0.866756 0.216290 0.823985
N9_7 N 0.8789(3) 0.3020(3) 0.83765(11)
Zn2_7 Zn 0.72143(3) 0.08950(4) 0.84178(2)
N11_7 N 0.6353(3) 0.0897(4) 0.82902(11)
O11_7 O 0.7103(6) 0.0639(6) 0.87521(18)
Zn6_3 Zn 0.96527(5) 0.38810(3) 0.82489(2)
C1_7 C 0.9203(6) 0.8596(5) 0.71721(17)
C2_7 C 0.9383(5) 0.8833(4) 0.69596(16)
H1_7 H 0.924861 0.914794 0.690226
C3_7 C 0.9751(5) 0.8606(5) 0.68369(16)
H2_7 H 0.986477 0.876432 0.669576
C4_7 C 0.9950(4) 0.8165(4) 0.69150(17)
C5_7 C 0.9771(5) 0.7909(4) 0.71255(17)
H3_7 H 0.989416 0.758111 0.717743
C6_7 C 0.9411(6) 0.8141(5) 0.72565(16)
H4_7 H 0.931096 0.799217 0.739887
C8_7 C 0.8806(7) 0.8889(6) 0.7298(2)
H5_7 H 0.912856 0.939324 0.732708
H6_7 H 0.841501 0.885205 0.721085
C9_7 C 0.7870(7) 0.7869(7) 0.750000
C10_7 C 0.7557(6) 0.7524(6) 0.76909(10)
H7_7 H 0.777859 0.773596 0.782012
C11_7 C 0.6931(7) 0.6884(7) 0.76952(13)
C12_7 C 0.6565(7) 0.6564(7) 0.750000
H8_7 H 0.613297 0.613292 0.749999
C13_7 C 0.6710(8) 0.6586(8) 0.7916(2)
N5_7 N 0.8519(7) 0.8518(7) 0.750000
O3_7 O 0.7032(5) 0.6938(5) 0.80785(9)
O4_7 O 0.6231(6) 0.6027(6) 0.79145(18)
C15_7 C 0.8596(5) 0.9203(6) 0.78279(17)
C16_7 C 0.8833(4) 0.9383(5) 0.80404(16)
H10_7 H 0.914794 0.924861 0.809774
C17_7 C 0.8606(5) 0.9751(5) 0.81631(16)
H11_7 H 0.876432 0.986477 0.830424
C18_7 C 0.8165(4) 0.9950(4) 0.80850(17)
C19_7 C 0.7909(4) 0.9771(5) 0.78745(17)
H12_7 H 0.758111 0.989416 0.782257
C20_7 C 0.8141(5) 0.9411(6) 0.77435(16)
H13_7 H 0.799217 0.931096 0.760113
C22_7 C 0.8889(6) 0.8806(7) 0.7702(2)
H14_7 H 0.939324 0.912856 0.767292
H15_7 H 0.885205 0.841501 0.778915
C23_7 C 0.7524(6) 0.7557(6) 0.73091(10)
H16_7 H 0.773596 0.777859 0.717988
C24_7 C 0.6884(7) 0.6931(7) 0.73048(13)
C25_7 C 0.6586(8) 0.6710(8) 0.7084(2)
O7_7 O 0.6938(5) 0.7032(5) 0.69215(9)
O8_7 O 0.6027(6) 0.6231(6) 0.70855(18)
O9_7 O 0.6302(5) 0.9728(5) 0.85881(9)
O10_7 O 0.9728(5) 0.6302(5) 0.64119(9)
Zn3_3 Zn 0.57717(4) 0.61190(3) 0.67511(2)
Zn5_5 Zn 0.61190(3) 0.57717(4) 0.82489(2)
C1_8 C 0.1404(5) 0.0606(8) 0.71721(17)
C2_8 C 0.1167(4) 0.0549(6) 0.69596(16)
H1_8 H 0.085206 0.010066 0.690226
C3_8 C 0.1394(5) 0.1144(7) 0.68369(16)
H2_8 H 0.123568 0.110044 0.669576
C4_8 C 0.1835(4) 0.1784(6) 0.69150(17)
C5_8 C 0.2091(4) 0.1861(6) 0.71255(17)
H3_8 H 0.241889 0.231304 0.717743
C6_8 C 0.1859(5) 0.1269(8) 0.72565(16)
H4_8 H 0.200783 0.131878 0.739887
C7_8 C 0.2049(5) 0.2411(7) 0.6773(2)
C9_8 C 0.2131(7) 0.0000(10) 0.750000
C10_8 C 0.2476(6) 0.0032(8) 0.76909(10)
H7_8 H 0.226404 0.004262 0.782012
C11_8 C 0.3116(7) 0.0046(10) 0.76952(13)
C12_8 C 0.3436(7) 0.0000(10) 0.750000
H8_8 H 0.386708 0.000004 0.749999
C13_8 C 0.3414(8) 0.0123(11) 0.7916(2)
N1_8 N 0.2186(5) 0.4591(7) 0.6453(2)
N2_8 N 0.1627(5) 0.4665(6) 0.6471(2)
N3_8 N 0.2074(3) 0.4012(4) 0.65625(10)
C14_8 C 0.1508(3) 0.3838(4) 0.66679(9)
H9_8 H 0.133244 0.349533 0.676015
N4_8 N 0.1211(3) 0.4230(4) 0.66235(11)
N5_8 N 0.1482(7) 0.0000(10) 0.750000
O1_8 O 0.2515(3) 0.2953(4) 0.68130(12)
O2_8 O 0.1752(6) 0.2350(8) 0.65964(13)
O3_8 O 0.3062(5) 0.0093(7) 0.80785(9)
O4_8 O 0.3973(6) 0.0203(8) 0.79145(18)
Zn1_8 Zn 0.27857(3) 0.36806(5) 0.65822(2)
C22_8 C 0.1194(7) 0.0084(9) 0.7702(2)
H14_8 H 0.087144 0.026469 0.767292
H15_8 H 0.158499 0.043705 0.778915
N10_8 N 0.3647(3) 0.4544(5) 0.67098(11)
O10_8 O 0.3698(5) 0.3427(7) 0.64119(9)
O12_8 O 0.2897(6) 0.3537(8) 0.62479(18)
Zn4_6 Zn 0.03473(5) 0.42283(6) 0.67511(2)
Zn5_6 Zn 0.42283(4) 0.03473(5) 0.82489(2)
C8_8 C 0.1111(6) 0.9916(9) 0.7298(2)
H5_8 H 0.060676 0.973531 0.732708
H6_8 H 0.114795 0.956295 0.721085
C9_9 C 0.2131(7) 1.0000(10) 0.750000
C12_9 C 0.3436(7) 1.0000(10) 0.750000
H8_9 H 0.386708 1.000004 0.749999
N5_9 N 0.1482(7) 1.0000(10) 0.750000
C15_8 C 0.0797(6) 0.9394(8) 0.78279(17)
C16_8 C 0.0617(5) 0.9451(6) 0.80404(16)
H10_8 H 0.075139 0.989934 0.809774
C17_8 C 0.0249(5) 0.8856(7) 0.81631(16)
H11_8 H 0.013523 0.889956 0.830424
C18_8 C 0.0050(4) 0.8216(6) 0.80850(17)
C19_8 C 0.0229(5) 0.8139(6) 0.78745(17)
H12_8 H 0.010584 0.768696 0.782257
C20_8 C 0.0589(6) 0.8731(8) 0.77435(16)
H13_8 H 0.068904 0.868122 0.760113
C23_8 C 0.2443(6) 0.9968(8) 0.73091(10)
H16_8 H 0.222141 0.995738 0.717988
C24_8 C 0.3069(7) 0.9954(10) 0.73048(13)
C25_8 C 0.3290(8) 0.9877(11) 0.7084(2)
O7_8 O 0.2968(5) 0.9907(7) 0.69215(9)
O8_8 O 0.3769(6) 0.9797(8) 0.70855(18)
O9_8 O 0.0272(5) 0.6573(7) 0.85881(9)
C21_8 C 0.9637(5) 0.7589(7) 0.8227(2)
O5_8 O 0.9561(3) 0.7047(4) 0.81870(12)
O6_8 O 0.9401(5) 0.7650(8) 0.84036(13)
N6_8 N 0.7594(5) 0.5409(7) 0.8547(2)
N7_8 N 0.6961(4) 0.5335(6) 0.8529(2)
N8_8 N 0.8061(3) 0.5988(4) 0.84375(10)
C26_8 C 0.7669(3) 0.6162(4) 0.83321(9)
H17_8 H 0.783710 0.650467 0.823985
N9_8 N 0.6980(3) 0.5770(4) 0.83765(11)
Zn2_8 Zn 0.91050(4) 0.63194(5) 0.84178(2)
N11_8 N 0.9103(4) 0.5456(5) 0.82902(11)
O11_8 O 0.9361(6) 0.6463(8) 0.87521(18)
C8_9 C 0.0084(9) 0.1194(7) 0.7298(2)
H5_9 H 0.026469 0.087144 0.732708
H6_9 H 0.043705 0.158499 0.721085
C9_10 C -0.0000(10) 0.2130(7) 0.750000
C12_10 C -0.0000(10) 0.3435(7) 0.750000
H8_10 H -0.000004 0.386703 0.749999
N5_10 N -0.0000(10) 0.1481(7) 0.750000
C15_9 C 0.0606(8) 0.1404(5) 0.78279(17)
C16_9 C 0.0549(6) 0.1167(4) 0.80404(16)
H10_9 H 0.010066 0.085206 0.809774
C17_9 C 0.1144(7) 0.1394(5) 0.81631(16)
H11_9 H 0.110044 0.123568 0.830424
C18_9 C 0.1784(6) 0.1835(4) 0.80850(17)
C19_9 C 0.1861(6) 0.2091(4) 0.78745(17)
H12_9 H 0.231304 0.241889 0.782257
C20_9 C 0.1269(8) 0.1859(5) 0.77435(16)
H13_9 H 0.131878 0.200783 0.760113
C21_9 C 0.2411(7) 0.2049(5) 0.8227(2)
C23_9 C 0.0032(8) 0.2476(6) 0.73091(10)
H16_9 H 0.004262 0.226404 0.717988
C24_9 C 0.0046(10) 0.3116(7) 0.73048(13)
C25_9 C 0.0123(11) 0.3414(8) 0.7084(2)
O5_9 O 0.2953(4) 0.2515(3) 0.81870(12)
O6_9 O 0.2350(8) 0.1752(6) 0.84036(13)
O7_9 O 0.0093(7) 0.3062(5) 0.69215(9)
O8_9 O 0.0203(8) 0.3973(6) 0.70855(18)
N6_9 N 0.4591(7) 0.2186(5) 0.8547(2)
N7_9 N 0.4665(6) 0.1627(5) 0.8529(2)
N8_9 N 0.4012(4) 0.2074(3) 0.84375(10)
C26_9 C 0.3838(4) 0.1508(3) 0.83321(9)
H17_9 H 0.349533 0.133244 0.823985
N9_9 N 0.4230(4) 0.1211(3) 0.83765(11)
Zn2_9 Zn 0.36806(5) 0.27857(3) 0.84178(2)
N11_9 N 0.4544(5) 0.3647(3) 0.82902(11)
O9_9 O 0.3427(7) 0.3698(5) 0.85881(9)
O11_9 O 0.3537(8) 0.2897(6) 0.87521(18)
C1_9 C 0.9394(8) 0.0797(6) 0.71721(17)
C2_9 C 0.9451(6) 0.0617(5) 0.69596(16)
H1_9 H 0.989934 0.075139 0.690226
C3_9 C 0.8856(7) 0.0249(5) 0.68369(16)
H2_9 H 0.889956 0.013523 0.669576
C4_9 C 0.8216(6) 0.0050(4) 0.69150(17)
C5_9 C 0.8139(6) 0.0229(5) 0.71255(17)
H3_9 H 0.768696 0.010584 0.717743
C6_9 C 0.8731(8) 0.0589(6) 0.72565(16)
H4_9 H 0.868122 0.068904 0.739887
C9_11 C 1.0000(10) 0.2130(7) 0.750000
C10_9 C 0.9968(8) 0.2443(6) 0.76909(10)
H7_9 H 0.995738 0.222141 0.782012
C11_9 C 0.9954(10) 0.3069(7) 0.76952(13)
C12_11 C 1.0000(10) 0.3435(7) 0.750000
H8_11 H 0.999996 0.386703 0.749999
C13_9 C 0.9877(11) 0.3290(8) 0.7916(2)
N5_11 N 1.0000(10) 0.1481(7) 0.750000
O3_9 O 0.9907(7) 0.2968(5) 0.80785(9)
O4_9 O 0.9797(8) 0.3769(6) 0.79145(18)
C22_9 C 0.9916(9) 0.1111(6) 0.7702(2)
H14_9 H 0.973531 0.060676 0.767292
H15_9 H 0.956295 0.114795 0.778915
O10_9 O 0.6573(7) 0.0272(5) 0.64119(9)
C7_9 C 0.7589(7) 0.9637(5) 0.6773(2)
N1_9 N 0.5409(7) 0.7594(5) 0.6453(2)
N2_9 N 0.5335(6) 0.6961(4) 0.6471(2)
N3_9 N 0.5988(4) 0.8061(3) 0.65625(10)
C14_9 C 0.6162(4) 0.7669(3) 0.66679(9)
H9_9 H 0.650467 0.783710 0.676015
N4_9 N 0.5770(4) 0.6980(3) 0.66235(11)
O1_9 O 0.7047(4) 0.9561(3) 0.68130(12)
O2_9 O 0.7650(8) 0.9401(5) 0.65964(13)
Zn1_9 Zn 0.63194(5) 0.91050(4) 0.65822(2)
N10_9 N 0.5456(5) 0.9103(4) 0.67098(11)
O12_9 O 0.6463(8) 0.9361(6) 0.62479(18)
C12_12 C 0.0102(7) 0.6769(7) 0.583333
H8_12 H 0.053370 0.720041 0.583334
C25_10 C 0.0080(8) 0.6624(8) 0.6250(2)
C1_10 C 0.7464(6) 0.4737(5) 0.61612(17)
C2_10 C 0.7284(5) 0.4500(4) 0.63737(16)
H1_10 H 0.741806 0.418539 0.643107
C3_10 C 0.6916(5) 0.4727(5) 0.64964(16)
H2_10 H 0.680190 0.456901 0.663757
C4_10 C 0.6717(4) 0.5168(4) 0.64183(17)
C5_10 C 0.6896(5) 0.5424(4) 0.62078(17)
H3_10 H 0.677251 0.575222 0.615590
C6_10 C 0.7256(6) 0.5192(5) 0.60768(16)
H4_10 H 0.735571 0.534116 0.593446
C7_10 C 0.6304(5) 0.5382(5) 0.6560(2)
C8_10 C 0.7861(7) 0.4444(6) 0.6035(2)
H5_10 H 0.753811 0.394009 0.600625
H6_10 H 0.825166 0.448128 0.612248
C9_12 C 0.8797(7) 0.5464(7) 0.583333
C10_10 C 0.9110(6) 0.5809(6) 0.56424(10)
H7_10 H 0.888808 0.559737 0.551321
C11_10 C 0.9736(7) 0.6449(7) 0.56381(13)
C13_10 C 0.9957(8) 0.6747(8) 0.5417(2)
N1_10 N 0.4261(5) 0.5519(5) 0.6880(2)
N2_10 N 0.3628(4) 0.4960(5) 0.6862(2)
N3_10 N 0.4728(3) 0.5407(3) 0.67708(10)
C14_10 C 0.4336(3) 0.4841(3) 0.66654(9)
H9_10 H 0.450377 0.466577 0.657318
N5_12 N 0.8148(7) 0.4815(7) 0.583333
O1_10 O 0.6228(3) 0.5848(3) 0.65203(12)
O2_10 O 0.6068(5) 0.5085(6) 0.67369(13)
C15_10 C 0.8070(5) 0.4131(6) 0.55055(17)
C16_10 C 0.7833(4) 0.3951(5) 0.52930(16)
H10_10 H 0.751872 0.408473 0.523560
C17_10 C 0.8060(5) 0.3583(5) 0.51703(16)
H11_10 H 0.790234 0.346857 0.502910
C18_10 C 0.8501(4) 0.3384(4) 0.52484(17)
C19_10 C 0.8757(4) 0.3563(5) 0.54589(17)
H12_10 H 0.908555 0.343918 0.551077
C20_10 C 0.8525(5) 0.3923(6) 0.55899(16)
H13_10 H 0.867449 0.402238 0.573221
C21_10 C 0.8715(5) 0.2971(5) 0.5107(2)
C22_10 C 0.7777(6) 0.4528(7) 0.5632(2)
H14_10 H 0.727342 0.420478 0.566042
H15_10 H 0.781461 0.491833 0.554419
C23_10 C 0.9142(6) 0.5777(6) 0.60243(10)
H16_10 H 0.893070 0.555475 0.615346
C24_10 C 0.9782(7) 0.6403(7) 0.60286(13)
O5_10 O 0.9181(3) 0.2895(3) 0.51464(12)
O6_10 O 0.8418(6) 0.2735(5) 0.49298(13)
N6_10 N 0.8852(5) 0.0928(5) 0.4787(2)
N7_10 N 0.8293(5) 0.0295(4) 0.4805(2)
N8_10 N 0.8740(3) 0.1395(3) 0.48959(10)
C26_10 C 0.8174(3) 0.1003(3) 0.50013(9)
H17_10 H 0.799910 0.117044 0.509349
C1_11 C 0.5263(5) 0.2727(8) 0.61612(17)
C2_11 C 0.5500(4) 0.2784(6) 0.63737(16)
H1_11 H 0.581461 0.323267 0.643107
C3_11 C 0.5273(5) 0.2189(7) 0.64964(16)
H2_11 H 0.543099 0.223289 0.663757
C4_11 C 0.4832(4) 0.1549(6) 0.64183(17)
C5_11 C 0.4576(4) 0.1472(6) 0.62078(17)
H3_11 H 0.424778 0.102029 0.615590
C6_11 C 0.4808(5) 0.2064(8) 0.60768(16)
H4_11 H 0.465884 0.201455 0.593446
C7_11 C 0.4618(5) 0.0922(7) 0.6560(2)
C8_11 C 0.5556(6) 0.3417(9) 0.6035(2)
H5_11 H 0.605991 0.359802 0.600625
H6_11 H 0.551872 0.377038 0.612248
C9_13 C 0.4536(7) 0.3333(10) 0.583333
C10_11 C 0.4191(6) 0.3301(8) 0.56424(10)
H7_11 H 0.440263 0.329071 0.551321
C11_11 C 0.3551(7) 0.3287(10) 0.56381(13)
C12_13 C 0.3231(7) 0.3333(10) 0.583333
H8_13 H 0.279959 0.333329 0.583334
C13_11 C 0.3253(8) 0.3210(11) 0.5417(2)
N5_13 N 0.5185(7) 0.3333(10) 0.583333
O1_11 O 0.4152(3) 0.0380(4) 0.65203(12)
O2_11 O 0.4915(6) 0.0983(8) 0.67369(13)
C15_11 C 0.5869(6) 0.3940(8) 0.55055(17)
C16_11 C 0.6049(5) 0.3883(6) 0.52930(16)
H10_11 H 0.591527 0.343400 0.523560
C17_11 C 0.6417(5) 0.4478(7) 0.51703(16)
H11_11 H 0.653143 0.443378 0.502910
C18_11 C 0.6616(4) 0.5118(6) 0.52484(17)
C19_11 C 0.6437(5) 0.5195(6) 0.54589(17)
H12_11 H 0.656082 0.564638 0.551077
C20_11 C 0.6077(6) 0.4603(8) 0.55899(16)
H13_11 H 0.597762 0.465212 0.573221
C21_11 C 0.7029(5) 0.5745(7) 0.5107(2)
C22_11 C 0.5472(7) 0.3250(9) 0.5632(2)
H14_11 H 0.579522 0.306865 0.566042
H15_11 H 0.508167 0.289629 0.554419
C23_11 C 0.4223(6) 0.3366(8) 0.60243(10)
H16_11 H 0.444525 0.337596 0.615346
C24_11 C 0.3597(7) 0.3380(10) 0.60286(13)
C25_11 C 0.3376(8) 0.3457(11) 0.6250(2)
O5_11 O 0.7105(3) 0.6287(4) 0.51464(12)
O6_11 O 0.7265(5) 0.5684(8) 0.49298(13)
N6_11 N 0.9072(5) 0.7925(7) 0.4787(2)
N7_11 N 0.9705(4) 0.7999(6) 0.4805(2)
N8_11 N 0.8605(3) 0.7346(4) 0.48959(10)
C26_11 C 0.8997(3) 0.7172(4) 0.50013(9)
H17_11 H 0.882956 0.682867 0.509349
N1_11 N 0.4481(5) 0.8742(7) 0.6880(2)
N2_11 N 0.5040(5) 0.8668(6) 0.6862(2)
N3_11 N 0.4593(3) 0.9321(4) 0.67708(10)
C14_11 C 0.5159(3) 0.9495(4) 0.66654(9)
H9_11 H 0.533423 0.983800 0.657318
N1_12 N 0.1258(7) 0.5739(5) 0.6880(2)
N2_12 N 0.1332(6) 0.6372(4) 0.6862(2)
N3_12 N 0.0679(4) 0.5272(3) 0.67708(10)
C14_12 C 0.0505(4) 0.5664(3) 0.66654(9)
H9_12 H 0.016200 0.549623 0.657318
C1_12 C 0.7273(8) 0.2536(6) 0.61612(17)
C2_12 C 0.7216(6) 0.2716(5) 0.63737(16)
H1_12 H 0.676733 0.258194 0.643107
C3_12 C 0.7811(7) 0.3084(5) 0.64964(16)
H2_12 H 0.776711 0.319810 0.663757
C4_12 C 0.8451(6) 0.3283(4) 0.64183(17)
C5_12 C 0.8528(6) 0.3104(5) 0.62078(17)
H3_12 H 0.897971 0.322749 0.615590
C6_12 C 0.7936(8) 0.2744(6) 0.60768(16)
H4_12 H 0.798545 0.264429 0.593446
C7_12 C 0.9078(7) 0.3696(5) 0.6560(2)
C8_12 C 0.6583(9) 0.2139(7) 0.6035(2)
H5_12 H 0.640198 0.246189 0.600625
H6_12 H 0.622962 0.174834 0.612248
C9_14 C 0.6667(10) 0.1203(7) 0.583333
C10_12 C 0.6699(8) 0.0890(6) 0.56424(10)
H7_12 H 0.670929 0.111192 0.551321
C11_12 C 0.6713(10) 0.0264(7) 0.56381(13)
C13_12 C 0.6790(11) 0.0043(8) 0.5417(2)
N5_14 N 0.6667(10) 0.1852(7) 0.583333
O1_12 O 0.9620(4) 0.3772(3) 0.65203(12)
O2_12 O 0.9017(8) 0.3932(5) 0.67369(13)
C15_12 C 0.6060(8) 0.1930(5) 0.55055(17)
C16_12 C 0.6117(6) 0.2167(4) 0.52930(16)
H10_12 H 0.656600 0.248128 0.523560
C17_12 C 0.5522(7) 0.1940(5) 0.51703(16)
H11_12 H 0.556622 0.209766 0.502910
C18_12 C 0.4882(6) 0.1499(4) 0.52484(17)
C19_12 C 0.4805(6) 0.1243(4) 0.54589(17)
H12_12 H 0.435362 0.091445 0.551077
C20_12 C 0.5397(8) 0.1475(5) 0.55899(16)
H13_12 H 0.534788 0.132551 0.573221
C21_12 C 0.4255(7) 0.1285(5) 0.5107(2)
C22_12 C 0.6750(9) 0.2223(6) 0.5632(2)
H14_12 H 0.693135 0.272658 0.566042
H15_12 H 0.710371 0.218539 0.554419
C23_12 C 0.6634(8) 0.0858(6) 0.60243(10)
H16_12 H 0.662404 0.106930 0.615346
C24_12 C 0.6620(10) 0.0218(7) 0.60286(13)
O5_12 O 0.3713(4) 0.0819(3) 0.51464(12)
O6_12 O 0.4316(8) 0.1582(6) 0.49298(13)
N6_12 N 0.2075(7) 0.1148(5) 0.4787(2)
N7_12 N 0.2001(6) 0.1707(5) 0.4805(2)
N8_12 N 0.2654(4) 0.1260(3) 0.48959(10)
C26_12 C 0.2828(4) 0.1826(3) 0.50013(9)
H17_12 H 0.317133 0.200090 0.509349
C12_14 C 0.6667(10) 0.9898(7) 0.583333
H8_14 H 0.666671 0.946630 0.583334
C25_12 C 0.6543(11) 0.9920(8) 0.6250(2)
C12_15 C 0.6769(7) 0.0102(7) 0.916667
H8_15 H 0.720041 0.053370 0.916666
C25_13 C 0.6624(8) 0.0080(8) 0.8750(2)
O6_13 O 0.2735(5) 0.8418(6) 0.00702(13)
N6_13 N 0.0928(5) 0.8852(5) 0.0213(2)
N7_13 N 0.0295(4) 0.8293(5) 0.0195(2)
N8_13 N 0.1395(3) 0.8740(3) 0.01041(10)
C1_13 C 0.4737(5) 0.7464(6) 0.88388(17)
C2_13 C 0.4500(4) 0.7284(5) 0.86263(16)
H1_13 H 0.418539 0.741806 0.856893
C3_13 C 0.4727(5) 0.6916(5) 0.85036(16)
H2_13 H 0.456901 0.680190 0.836243
C4_13 C 0.5168(4) 0.6717(4) 0.85817(17)
C5_13 C 0.5424(4) 0.6896(5) 0.87922(17)
H3_13 H 0.575222 0.677251 0.884410
C6_13 C 0.5192(5) 0.7256(6) 0.89232(16)
H4_13 H 0.534116 0.735571 0.906554
C7_13 C 0.5382(5) 0.6304(5) 0.8440(2)
C8_13 C 0.4444(6) 0.7861(7) 0.8965(2)
H5_13 H 0.394009 0.753811 0.899375
H6_13 H 0.448128 0.825166 0.887752
C9_15 C 0.5464(7) 0.8797(7) 0.916667
C10_13 C 0.5809(6) 0.9110(6) 0.93576(10)
H7_13 H 0.559737 0.888808 0.948679
C11_13 C 0.6449(7) 0.9736(7) 0.93619(13)
C13_13 C 0.6747(8) 0.9957(8) 0.9583(2)
N1_13 N 0.5519(5) 0.4261(5) 0.8120(2)
N2_13 N 0.4960(5) 0.3628(4) 0.8138(2)
N3_13 N 0.5407(3) 0.4728(3) 0.82292(10)
C14_13 C 0.4841(3) 0.4336(3) 0.83346(9)
H9_13 H 0.466577 0.450377 0.842682
N5_15 N 0.4815(7) 0.8148(7) 0.916667
O1_13 O 0.5848(3) 0.6228(3) 0.84797(12)
O2_13 O 0.5085(6) 0.6068(5) 0.82631(13)
C15_13 C 0.4131(6) 0.8070(5) 0.94945(17)
C16_13 C 0.3951(5) 0.7833(4) 0.97070(16)
H10_13 H 0.408473 0.751872 0.976440
C17_13 C 0.3583(5) 0.8060(5) 0.98297(16)
H11_13 H 0.346857 0.790234 0.997090
C18_13 C 0.3384(4) 0.8501(4) 0.97516(17)
C19_13 C 0.3563(5) 0.8757(4) 0.95411(17)
H12_13 H 0.343918 0.908555 0.948923
C20_13 C 0.3923(6) 0.8525(5) 0.94101(16)
H13_13 H 0.402238 0.867449 0.926779
C21_13 C 0.2971(5) 0.8715(5) 0.9893(2)
C22_13 C 0.4528(7) 0.7777(6) 0.9368(2)
H14_13 H 0.420478 0.727342 0.933958
H15_13 H 0.491833 0.781461 0.945581
C23_13 C 0.5777(6) 0.9142(6) 0.89757(10)
H16_13 H 0.555475 0.893070 0.884654
C24_13 C 0.6403(7) 0.9782(7) 0.89714(13)
O5_13 O 0.2895(3) 0.9181(3) 0.98536(12)
C26_13 C 0.1003(3) 0.8174(3) 0.99987(9)
H17_13 H 0.117044 0.799910 0.990651
O6_14 O 0.5684(8) 0.7265(5) 0.00702(13)
N6_14 N 0.7925(7) 0.9072(5) 0.0213(2)
N7_14 N 0.7999(6) 0.9705(4) 0.0195(2)
N8_14 N 0.7346(4) 0.8605(3) 0.01041(10)
C1_14 C 0.2727(8) 0.5263(5) 0.88388(17)
C2_14 C 0.2784(6) 0.5500(4) 0.86263(16)
H1_14 H 0.323267 0.581461 0.856893
C3_14 C 0.2189(7) 0.5273(5) 0.85036(16)
H2_14 H 0.223289 0.543099 0.836243
C4_14 C 0.1549(6) 0.4832(4) 0.85817(17)
C5_14 C 0.1472(6) 0.4576(4) 0.87922(17)
H3_14 H 0.102029 0.424778 0.884410
C6_14 C 0.2064(8) 0.4808(5) 0.89232(16)
H4_14 H 0.201455 0.465884 0.906554
C7_14 C 0.0922(7) 0.4618(5) 0.8440(2)
C8_14 C 0.3417(9) 0.5556(6) 0.8965(2)
H5_14 H 0.359802 0.605991 0.899375
H6_14 H 0.377038 0.551872 0.887752
C9_16 C 0.3333(10) 0.4536(7) 0.916667
C10_14 C 0.3301(8) 0.4191(6) 0.93576(10)
H7_14 H 0.329071 0.440263 0.948679
C11_14 C 0.3287(10) 0.3551(7) 0.93619(13)
C12_16 C 0.3333(10) 0.3231(7) 0.916667
H8_16 H 0.333329 0.279959 0.916666
C13_14 C 0.3210(11) 0.3253(8) 0.9583(2)
N5_16 N 0.3333(10) 0.5185(7) 0.916667
O1_14 O 0.0380(4) 0.4152(3) 0.84797(12)
O2_14 O 0.0983(8) 0.4915(6) 0.82631(13)
C15_14 C 0.3940(8) 0.5869(6) 0.94945(17)
C16_14 C 0.3883(6) 0.6049(5) 0.97070(16)
H10_14 H 0.343400 0.591527 0.976440
C17_14 C 0.4478(7) 0.6417(5) 0.98297(16)
H11_14 H 0.443378 0.653143 0.997090
C18_14 C 0.5118(6) 0.6616(4) 0.97516(17)
C19_14 C 0.5195(6) 0.6437(5) 0.95411(17)
H12_14 H 0.564638 0.656082 0.948923
C20_14 C 0.4603(8) 0.6077(6) 0.94101(16)
H13_14 H 0.465212 0.597762 0.926779
C21_14 C 0.5745(7) 0.7029(5) 0.9893(2)
C22_14 C 0.3250(9) 0.5472(7) 0.9368(2)
H14_14 H 0.306865 0.579522 0.933958
H15_14 H 0.289629 0.508167 0.945581
C23_14 C 0.3366(8) 0.4223(6) 0.89757(10)
H16_14 H 0.337596 0.444525 0.884654
C24_14 C 0.3380(10) 0.3597(7) 0.89714(13)
C25_14 C 0.3457(11) 0.3376(8) 0.8750(2)
O5_14 O 0.6287(4) 0.7105(3) 0.98536(12)
C26_14 C 0.7172(4) 0.8997(3) 0.99987(9)
H17_14 H 0.682867 0.882956 0.990651
N1_14 N 0.8742(7) 0.4481(5) 0.8120(2)
N2_14 N 0.8668(6) 0.5040(5) 0.8138(2)
N3_14 N 0.9321(4) 0.4593(3) 0.82292(10)
C14_14 C 0.9495(4) 0.5159(3) 0.83346(9)
H9_14 H 0.983800 0.533423 0.842682
N1_15 N 0.5739(5) 0.1258(7) 0.8120(2)
N2_15 N 0.6372(4) 0.1332(6) 0.8138(2)
N3_15 N 0.5272(3) 0.0679(4) 0.82292(10)
C14_15 C 0.5664(3) 0.0505(4) 0.83346(9)
H9_15 H 0.549623 0.016200 0.842682
O6_15 O 0.1582(6) 0.4316(8) 0.00702(13)
N6_15 N 0.1148(5) 0.2075(7) 0.0213(2)
N7_15 N 0.1707(5) 0.2001(6) 0.0195(2)
N8_15 N 0.1260(3) 0.2654(4) 0.01041(10)
C1_15 C 0.2536(6) 0.7273(8) 0.88388(17)
C2_15 C 0.2716(5) 0.7216(6) 0.86263(16)
H1_15 H 0.258194 0.676733 0.856893
C3_15 C 0.3084(5) 0.7811(7) 0.85036(16)
H2_15 H 0.319810 0.776711 0.836243
C4_15 C 0.3283(4) 0.8451(6) 0.85817(17)
C5_15 C 0.3104(5) 0.8528(6) 0.87922(17)
H3_15 H 0.322749 0.897971 0.884410
C6_15 C 0.2744(6) 0.7936(8) 0.89232(16)
H4_15 H 0.264429 0.798545 0.906554
C7_15 C 0.3696(5) 0.9078(7) 0.8440(2)
C8_15 C 0.2139(7) 0.6583(9) 0.8965(2)
H5_15 H 0.246189 0.640198 0.899375
H6_15 H 0.174834 0.622962 0.887752
C9_17 C 0.1203(7) 0.6667(10) 0.916667
C10_15 C 0.0890(6) 0.6699(8) 0.93576(10)
H7_15 H 0.111192 0.670929 0.948679
C11_15 C 0.0264(7) 0.6713(10) 0.93619(13)
C13_15 C 0.0043(8) 0.6790(11) 0.9583(2)
N5_17 N 0.1852(7) 0.6667(10) 0.916667
O1_15 O 0.3772(3) 0.9620(4) 0.84797(12)
O2_15 O 0.3932(5) 0.9017(8) 0.82631(13)
C15_15 C 0.1930(5) 0.6060(8) 0.94945(17)
C16_15 C 0.2167(4) 0.6117(6) 0.97070(16)
H10_15 H 0.248128 0.656600 0.976440
C17_15 C 0.1940(5) 0.5522(7) 0.98297(16)
H11_15 H 0.209766 0.556622 0.997090
C18_15 C 0.1499(4) 0.4882(6) 0.97516(17)
C19_15 C 0.1243(4) 0.4805(6) 0.95411(17)
H12_15 H 0.091445 0.435362 0.948923
C20_15 C 0.1475(5) 0.5397(8) 0.94101(16)
H13_15 H 0.132551 0.534788 0.926779
C21_15 C 0.1285(5) 0.4255(7) 0.9893(2)
C22_15 C 0.2223(6) 0.6750(9) 0.9368(2)
H14_15 H 0.272658 0.693135 0.933958
H15_15 H 0.218539 0.710371 0.945581
C23_15 C 0.0858(6) 0.6634(8) 0.89757(10)
H16_15 H 0.106930 0.662404 0.884654
C24_15 C 0.0218(7) 0.6620(10) 0.89714(13)
O5_15 O 0.0819(3) 0.3713(4) 0.98536(12)
C26_15 C 0.1826(3) 0.2828(4) 0.99987(9)
H17_15 H 0.200090 0.317133 0.990651
C12_17 C 0.9898(7) 0.6667(10) 0.916667
H8_17 H 0.946630 0.666671 0.916666
C25_15 C 0.9920(8) 0.6543(11) 0.8750(2)
C1_16 C 0.0797(6) 0.1404(5) 0.28279(17)
C2_16 C 0.0617(5) 0.1167(4) 0.30404(16)
H1_16 H 0.075139 0.085206 0.309774
C3_16 C 0.0249(5) 0.1394(5) 0.31631(16)
H2_16 H 0.013523 0.123568 0.330424
C4_16 C 0.0050(4) 0.1835(4) 0.30850(17)
C5_16 C 0.0229(5) 0.2091(4) 0.28745(17)
H3_16 H 0.010584 0.241889 0.282257
C6_16 C 0.0589(6) 0.1859(5) 0.27435(16)
H4_16 H 0.068904 0.200783 0.260113
C8_16 C 0.1194(7) 0.1111(6) 0.2702(2)
H5_16 H 0.087144 0.060676 0.267292
H6_16 H 0.158499 0.114795 0.278915
C9_18 C 0.2130(7) 0.2131(7) 0.250000
C10_16 C 0.2443(6) 0.2476(6) 0.23091(10)
H7_16 H 0.222141 0.226404 0.217988
C11_16 C 0.3069(7) 0.3116(7) 0.23048(13)
C12_18 C 0.3435(7) 0.3436(7) 0.250000
H8_18 H 0.386703 0.386708 0.250001
C13_16 C 0.3290(8) 0.3414(8) 0.2084(2)
N5_18 N 0.1481(7) 0.1482(7) 0.250000
C15_16 C 0.1404(5) 0.0797(6) 0.21721(17)
C16_16 C 0.1167(4) 0.0617(5) 0.19596(16)
H10_16 H 0.085206 0.075139 0.190226
C17_16 C 0.1394(5) 0.0249(5) 0.18369(16)
H11_16 H 0.123568 0.013523 0.169576
C18_16 C 0.1835(4) 0.0050(4) 0.19150(17)
C19_16 C 0.2091(4) 0.0229(5) 0.21255(17)
H12_16 H 0.241889 0.010584 0.217743
C20_16 C 0.1859(5) 0.0589(6) 0.22565(16)
H13_16 H 0.200783 0.068904 0.239887
C22_16 C 0.1111(6) 0.1194(7) 0.2298(2)
H14_16 H 0.060676 0.087144 0.232708
H15_16 H 0.114795 0.158499 0.221085
C23_16 C 0.2476(6) 0.2443(6) 0.26909(10)
H16_16 H 0.226404 0.222141 0.282012
C24_16 C 0.3116(7) 0.3069(7) 0.26952(13)
C25_16 C 0.3414(8) 0.3290(8) 0.2916(2)
C21_16 C 0.2049(5) 0.9637(5) 0.1773(2)
O5_16 O 0.2515(3) 0.9561(3) 0.18130(12)
O6_16 O 0.1752(6) 0.9401(5) 0.15964(13)
N6_16 N 0.2186(5) 0.7594(5) 0.1453(2)
N7_16 N 0.1627(5) 0.6961(4) 0.1471(2)
N8_16 N 0.2074(3) 0.8061(3) 0.15625(10)
C26_16 C 0.1508(3) 0.7669(3) 0.16679(9)
H17_16 H 0.133244 0.783710 0.176015
C7_16 C 0.9637(5) 0.2049(5) 0.3227(2)
N1_16 N 0.7594(5) 0.2186(5) 0.3547(2)
N2_16 N 0.6961(4) 0.1627(5) 0.3529(2)
N3_16 N 0.8061(3) 0.2074(3) 0.34375(10)
C14_16 C 0.7669(3) 0.1508(3) 0.33321(9)
H9_16 H 0.783710 0.133244 0.323985
O1_16 O 0.9561(3) 0.2515(3) 0.31870(12)
O2_16 O 0.9401(5) 0.1752(6) 0.34036(13)
C21_17 C 0.0363(5) 0.2411(7) 0.1773(2)
O5_17 O 0.0439(3) 0.2953(4) 0.18130(12)
O6_17 O 0.0599(5) 0.2350(8) 0.15964(13)
N6_17 N 0.2406(5) 0.4591(7) 0.1453(2)
N7_17 N 0.3039(4) 0.4665(6) 0.1471(2)
N8_17 N 0.1939(3) 0.4012(4) 0.15625(10)
C26_17 C 0.2331(3) 0.3838(4) 0.16679(9)
H17_17 H 0.216290 0.349533 0.176015
C8_17 C 0.8889(6) 0.0084(9) 0.2702(2)
H5_17 H 0.939324 0.026469 0.267292
H6_17 H 0.885205 0.043705 0.278915
C9_19 C 0.7869(7) -0.0000(10) 0.250000
C12_19 C 0.6564(7) -0.0000(10) 0.250000
H8_19 H 0.613292 -0.000004 0.250001
N5_19 N 0.8518(7) -0.0000(10) 0.250000
C15_17 C 0.9203(6) 0.0606(8) 0.21721(17)
C16_17 C 0.9383(5) 0.0549(6) 0.19596(16)
H10_17 H 0.924861 0.010066 0.190226
C17_17 C 0.9751(5) 0.1144(7) 0.18369(16)
H11_17 H 0.986477 0.110044 0.169576
C18_17 C 0.9950(4) 0.1784(6) 0.19150(17)
C19_17 C 0.9771(5) 0.1861(6) 0.21255(17)
H12_17 H 0.989416 0.231304 0.217743
C20_17 C 0.9411(6) 0.1269(8) 0.22565(16)
H13_17 H 0.931096 0.131878 0.239887
C23_17 C 0.7557(6) 0.0032(8) 0.26909(10)
H16_17 H 0.777859 0.004262 0.282012
C24_17 C 0.6931(7) 0.0046(10) 0.26952(13)
C25_17 C 0.6710(8) 0.0123(11) 0.2916(2)
C1_17 C 0.8596(5) 0.9394(8) 0.28279(17)
C2_17 C 0.8833(4) 0.9451(6) 0.30404(16)
H1_17 H 0.914794 0.989934 0.309774
C3_17 C 0.8606(5) 0.8856(7) 0.31631(16)
H2_17 H 0.876432 0.889956 0.330424
C4_17 C 0.8165(4) 0.8216(6) 0.30850(17)
C5_17 C 0.7909(4) 0.8139(6) 0.28745(17)
H3_17 H 0.758111 0.768696 0.282257
C6_17 C 0.8141(5) 0.8731(8) 0.27435(16)
H4_17 H 0.799217 0.868122 0.260113
C7_17 C 0.7951(5) 0.7589(7) 0.3227(2)
C9_20 C 0.7869(7) 1.0000(10) 0.250000
C10_17 C 0.7524(6) 0.9968(8) 0.23091(10)
H7_17 H 0.773596 0.995738 0.217988
C11_17 C 0.6884(7) 0.9954(10) 0.23048(13)
C12_20 C 0.6564(7) 1.0000(10) 0.250000
H8_20 H 0.613292 0.999996 0.250001
C13_17 C 0.6586(8) 0.9877(11) 0.2084(2)
N1_17 N 0.7814(5) 0.5409(7) 0.3547(2)
N2_17 N 0.8373(5) 0.5335(6) 0.3529(2)
N3_17 N 0.7926(3) 0.5988(4) 0.34375(10)
C14_17 C 0.8492(3) 0.6162(4) 0.33321(9)
H9_17 H 0.866756 0.650467 0.323985
N5_20 N 0.8518(7) 1.0000(10) 0.250000
O1_17 O 0.7485(3) 0.7047(4) 0.31870(12)
O2_17 O 0.8248(6) 0.7650(8) 0.34036(13)
C22_17 C 0.8806(7) 0.9916(9) 0.2298(2)
H14_17 H 0.912856 0.973531 0.232708
H15_17 H 0.841501 0.956295 0.221085
C7_18 C 0.2411(7) 0.0363(5) 0.3227(2)
N1_18 N 0.4591(7) 0.2406(5) 0.3547(2)
N2_18 N 0.4665(6) 0.3039(4) 0.3529(2)
N3_18 N 0.4012(4) 0.1939(3) 0.34375(10)
C14_18 C 0.3838(4) 0.2331(3) 0.33321(9)
H9_18 H 0.349533 0.216290 0.323985
O1_18 O 0.2953(4) 0.0439(3) 0.31870(12)
O2_18 O 0.2350(8) 0.0599(5) 0.34036(13)
C1_18 C 0.0606(8) 0.9203(6) 0.28279(17)
C2_18 C 0.0549(6) 0.9383(5) 0.30404(16)
H1_18 H 0.010066 0.924861 0.309774
C3_18 C 0.1144(7) 0.9751(5) 0.31631(16)
H2_18 H 0.110044 0.986477 0.330424
C4_18 C 0.1784(6) 0.9950(4) 0.30850(17)
C5_18 C 0.1861(6) 0.9771(5) 0.28745(17)
H3_18 H 0.231304 0.989416 0.282257
C6_18 C 0.1269(8) 0.9411(6) 0.27435(16)
H4_18 H 0.131878 0.931096 0.260113
C9_21 C 0.0000(10) 0.7870(7) 0.250000
C10_18 C 0.0032(8) 0.7557(6) 0.23091(10)
H7_18 H 0.004262 0.777859 0.217988
C11_18 C 0.0046(10) 0.6931(7) 0.23048(13)
C12_21 C 0.0000(10) 0.6565(7) 0.250000
H8_21 H 0.000004 0.613297 0.250001
C13_18 C 0.0123(11) 0.6710(8) 0.2084(2)
N5_21 N 0.0000(10) 0.8519(7) 0.250000
C22_18 C 0.0084(9) 0.8889(6) 0.2298(2)
H14_18 H 0.026469 0.939324 0.232708
H15_18 H 0.043705 0.885205 0.221085
C8_18 C 0.9916(9) 0.8806(7) 0.2702(2)
H5_18 H 0.973531 0.912856 0.267292
H6_18 H 0.956295 0.841501 0.278915
C9_22 C 1.0000(10) 0.7870(7) 0.250000
C12_22 C 1.0000(10) 0.6565(7) 0.250000
H8_22 H 1.000004 0.613297 0.250001
N5_22 N 1.0000(10) 0.8519(7) 0.250000
C15_18 C 0.9394(8) 0.8596(5) 0.21721(17)
C16_18 C 0.9451(6) 0.8833(4) 0.19596(16)
H10_18 H 0.989934 0.914794 0.190226
C17_18 C 0.8856(7) 0.8606(5) 0.18369(16)
H11_18 H 0.889956 0.876432 0.169576
C18_18 C 0.8216(6) 0.8165(4) 0.19150(17)
C19_18 C 0.8139(6) 0.7909(4) 0.21255(17)
H12_18 H 0.768696 0.758111 0.217743
C20_18 C 0.8731(8) 0.8141(5) 0.22565(16)
H13_18 H 0.868122 0.799217 0.239887
C21_18 C 0.7589(7) 0.7951(5) 0.1773(2)
C23_18 C 0.9968(8) 0.7524(6) 0.26909(10)
H16_18 H 0.995738 0.773596 0.282012
C24_18 C 0.9954(10) 0.6884(7) 0.26952(13)
C25_18 C 0.9877(11) 0.6586(8) 0.2916(2)
O5_18 O 0.7047(4) 0.7485(3) 0.18130(12)
O6_18 O 0.7650(8) 0.8248(6) 0.15964(13)
N6_18 N 0.5409(7) 0.7814(5) 0.1453(2)
N7_18 N 0.5335(6) 0.8373(5) 0.1471(2)
N8_18 N 0.5988(4) 0.7926(3) 0.15625(10)
C26_18 C 0.6162(4) 0.8492(3) 0.16679(9)
H17_18 H 0.650467 0.866756 0.176015
loop_
_geom_bond_atom_site_label_1
_geom_bond_atom_site_label_2
_geom_bond_site_symmetry_1
_geom_bond_site_symmetry_2
C1 C2 1_555 1_555
C2 H1 1_555 1_555
C3 C2 1_555 1_555
H2 C3 1_555 1_555
C4 C3 1_555 1_555
C5 C4 1_555 1_555
H3 C5 1_555 1_555
C6 C1 1_555 1_555
H4 C6 1_555 1_555
C7 C4 1_555 1_555
C8 C1 1_555 1_555
H5 C8 1_555 1_555
H6 C8 1_555 1_555
C9 C10 1_555 1_555
C10 H7 1_555 1_555
C11 C10 1_555 1_555
C13 C11 1_555 1_555
N1 N2 1_555 1_555
N2 N4 1_555 1_555
N3 N1 1_555 1_555
C14 N3 1_555 1_555
H9 C14 1_555 1_555
N4 C14 1_555 1_555
N5 C8 1_555 1_555
O1 C7 1_555 1_555
O2 C7 1_555 1_555
O3 C13 1_555 1_555
Zn1 N3 1_555 1_555
C15 C16 1_555 1_555
C16 H10 1_555 1_555
C17 C16 1_555 1_555
H11 C17 1_555 1_555
C18 C17 1_555 1_555
C19 C18 1_555 1_555
H12 C19 1_555 1_555
C20 C15 1_555 1_555
H13 C20 1_555 1_555
C21 C18 1_555 1_555
C22 N5 1_555 1_555
H14 C22 1_555 1_555
H15 C22 1_555 1_555
C23 C9 1_555 1_555
H16 C23 1_555 1_555
O5 C21 1_555 1_555
O6 C21 1_555 1_555
N6 N7 1_555 1_555
N7 N9 1_555 1_555
N8 N6 1_555 1_555
C26 N8 1_555 1_555
H17 C26 1_555 1_555
N9 C26 1_555 1_555
Zn2 O5 1_555 1_555
N10 Zn1 1_555 1_555
O10 Zn1 1_555 1_555
O11 Zn2 1_555 1_555
O12 Zn1 1_555 1_555
Zn4 N4 1_555 1_555
C5 C6 1_555 1_555
C9 N5 1_555 1_555
O1 Zn1 1_555 1_555
C15 C22 1_555 1_555
C19 C20 1_555 1_555
C23 C24 1_555 1_555
N8 Zn2 1_555 1_555
H8 C12 1_555 1_555
O8 C25 1_555 1_555
O4 Zn5 1_555 1_555
O8 Zn3 1_555 1_555
N1_2 N2_2 1_555 1_555
N2_2 N4_2 1_555 1_555
N3_2 N1_2 1_555 1_555
C14_2 N3_2 1_555 1_555
H9_2 C14_2 1_555 1_555
N4_2 C14_2 1_555 1_555
Zn1_2 N3_2 1_555 1_555
N10_2 Zn1_2 1_555 1_555
O10_2 Zn1_2 1_555 1_555
O12_2 Zn1_2 1_555 1_555
Zn4_2 N4_2 1_555 1_555
C1_2 C2_2 1_555 1_555
C2_2 H1_2 1_555 1_555
C3_2 C2_2 1_555 1_555
H2_2 C3_2 1_555 1_555
C4_2 C3_2 1_555 1_555
C5_2 C4_2 1_555 1_555
H3_2 C5_2 1_555 1_555
C6_2 C1_2 1_555 1_555
H4_2 C6_2 1_555 1_555
C7_2 C4_2 1_555 1_555
C8_2 C1_2 1_555 1_555
H5_2 C8_2 1_555 1_555
H6_2 C8_2 1_555 1_555
C9_2 C10_2 1_555 1_555
C10_2 H7_2 1_555 1_555
C11_2 C10_2 1_555 1_555
C12_2 C11_2 1_555 1_555
H8_2 C12_2 1_555 1_555
C13_2 C11_2 1_555 1_555
N5_2 C8_2 1_555 1_555
O1_2 C7_2 1_555 1_555
O2_2 C7_2 1_555 1_555
O3_2 C13_2 1_555 1_555
O4_2 C13_2 1_555 1_555
C15_2 C16_2 1_555 1_555
C16_2 H10_2 1_555 1_555
C17_2 C16_2 1_555 1_555
H11_2 C17_2 1_555 1_555
C18_2 C17_2 1_555 1_555
C19_2 C18_2 1_555 1_555
H12_2 C19_2 1_555 1_555
C20_2 C15_2 1_555 1_555
H13_2 C20_2 1_555 1_555
C21_2 C18_2 1_555 1_555
C22_2 N5_2 1_555 1_555
H14_2 C22_2 1_555 1_555
H15_2 C22_2 1_555 1_555
C23_2 C9_2 1_555 1_555
H16_2 C23_2 1_555 1_555
C24_2 C12_2 1_555 1_555
C25_2 C24_2 1_555 1_555
O5_2 C21_2 1_555 1_555
O6_2 C21_2 1_555 1_555
O7_2 C25_2 1_555 1_555
O8_2 C25_2 1_555 1_555
N6_2 N7_2 1_555 1_555
N7_2 N9_2 1_555 1_555
N8_2 N6_2 1_555 1_555
C26_2 N8_2 1_555 1_555
H17_2 C26_2 1_555 1_555
N9_2 C26_2 1_555 1_555
Zn2_2 O5_2 1_555 1_555
N11_2 Zn2_2 1_555 1_555
O9_2 Zn2_2 1_555 1_555
O11_2 Zn2_2 1_555 1_555
Zn4 O7_2 1_555 1_555
Zn5_2 O3_2 1_555 1_555
C5_2 C6_2 1_555 1_555
C9_2 N5_2 1_555 1_555
O4_2 Zn5_2 1_555 1_555
C15_2 C22_2 1_555 1_555
C19_2 C20_2 1_555 1_555
C23_2 C24_2 1_555 1_555
O8_2 Zn4 1_555 1_555
N8_2 Zn2_2 1_555 1_555
H8_3 C12_3 1_555 1_555
O8_3 C25_3 1_555 1_555
O4_3 Zn6 1_555 1_555
O8_3 Zn4_2 1_555 1_555
C1_3 C2_3 1_555 1_555
C2_3 H1_3 1_555 1_555
C3_3 C2_3 1_555 1_555
H2_3 C3_3 1_555 1_555
C4_3 C3_3 1_555 1_555
C5_3 C4_3 1_555 1_555
H3_3 C5_3 1_555 1_555
C6_3 C1_3 1_555 1_555
H4_3 C6_3 1_555 1_555
C7_3 C4_3 1_555 1_555
C8_3 C1_3 1_555 1_555
H5_3 C8_3 1_555 1_555
H6_3 C8_3 1_555 1_555
C9_3 C10_3 1_555 1_555
C10_3 H7_3 1_555 1_555
C11_3 C10_3 1_555 1_555
C13_3 C11_3 1_555 1_555
N5_3 C8_3 1_555 1_555
O1_3 C7_3 1_555 1_555
O2_3 C7_3 1_555 1_555
O3_3 C13_3 1_555 1_555
C15_3 C16_3 1_555 1_555
C16_3 H10_3 1_555 1_555
C17_3 C16_3 1_555 1_555
H11_3 C17_3 1_555 1_555
C18_3 C17_3 1_555 1_555
C19_3 C18_3 1_555 1_555
H12_3 C19_3 1_555 1_555
C20_3 C15_3 1_555 1_555
H13_3 C20_3 1_555 1_555
C21_3 C18_3 1_555 1_555
C22_3 N5_3 1_555 1_555
H14_3 C22_3 1_555 1_555
H15_3 C22_3 1_555 1_555
C23_3 C9_3 1_555 1_555
H16_3 C23_3 1_555 1_555
O5_3 C21_3 1_555 1_555
O6_3 C21_3 1_555 1_555
N6_3 N7_3 1_555 1_555
N7_3 N9_3 1_555 1_555
N8_3 N6_3 1_555 1_555
C26_3 N8_3 1_555 1_555
H17_3 C26_3 1_555 1_555
N9_3 C26_3 1_555 1_555
Zn2_3 O5_3 1_555 1_555
O11_3 Zn2_3 1_555 1_555
Zn5_2 N9_3 1_555 1_555
C5_3 C6_3 1_555 1_555
C9_3 N5_3 1_555 1_555
C15_3 C22_3 1_555 1_555
C19_3 C20_3 1_555 1_555
C23_3 C24_3 1_555 1_555
N8_3 Zn2_3 1_555 1_555
N1_3 N2_3 1_555 1_555
N2_3 N4_3 1_555 1_555
N3_3 N1_3 1_555 1_555
C14_3 N3_3 1_555 1_555
H9_3 C14_3 1_555 1_555
N4_3 C14_3 1_555 1_555
Zn1_3 N3_3 1_555 1_555
N10_3 Zn1_3 1_555 1_555
O10_3 Zn1_3 1_555 1_555
O12_3 Zn1_3 1_555 1_555
Zn3 N4_3 1_555 1_555
C1_4 C2_4 1_555 1_555
C2_4 H1_4 1_555 1_555
C3_4 C2_4 1_555 1_555
H2_4 C3_4 1_555 1_555
C4_4 C3_4 1_555 1_555
C5_4 C4_4 1_555 1_555
H3_4 C5_4 1_555 1_555
C6_4 C1_4 1_555 1_555
H4_4 C6_4 1_555 1_555
C7_4 C4_4 1_555 1_555
C8_4 C1_4 1_555 1_555
H5_4 C8_4 1_555 1_555
H6_4 C8_4 1_555 1_555
C9_4 C10_4 1_555 1_555
C10_4 H7_4 1_555 1_555
C11_4 C10_4 1_555 1_555
C13_4 C11_4 1_555 1_555
N1_4 N2_4 1_555 1_555
N2_4 N4_4 1_555 1_555
N3_4 N1_4 1_555 1_555
C14_4 N3_4 1_555 1_555
H9_4 C14_4 1_555 1_555
N4_4 C14_4 1_555 1_555
N5_4 C8_4 1_555 1_555
O1_4 C7_4 1_555 1_555
O2_4 C7_4 1_555 1_555
O3_4 C13_4 1_555 1_555
Zn1_4 N3_4 1_555 1_555
C15_4 C16_4 1_555 1_555
C16_4 H10_4 1_555 1_555
C17_4 C16_4 1_555 1_555
H11_4 C17_4 1_555 1_555
C18_4 C17_4 1_555 1_555
C19_4 C18_4 1_555 1_555
H12_4 C19_4 1_555 1_555
C20_4 C15_4 1_555 1_555
H13_4 C20_4 1_555 1_555
C21_4 C18_4 1_555 1_555
C22_4 N5_4 1_555 1_555
H14_4 C22_4 1_555 1_555
H15_4 C22_4 1_555 1_555
C23_4 C9_4 1_555 1_555
H16_4 C23_4 1_555 1_555
O5_4 C21_4 1_555 1_555
H17_4 C26_4 1_555 1_555
N10_4 Zn1_4 1_555 1_555
O10_4 Zn1_4 1_555 1_555
O12_4 Zn1_4 1_555 1_555
Zn4_3 N4_4 1_555 1_555
C5_4 C6_4 1_555 1_555
C9_4 N5_4 1_555 1_555
O1_4 Zn1_4 1_555 1_555
C15_4 C22_4 1_555 1_555
C19_4 C20_4 1_555 1_555
C23_4 C24_4 1_555 1_555
N6_4 N7_4 1_555 1_555
N7_4 N9_4 1_555 1_555
N8_4 N6_4 1_555 1_555
O11_4 Zn2_4 1_555 1_555
N8_4 Zn2_4 1_555 1_555
H8_4 C12_4 1_555 1_555
O8_4 C25_4 1_555 1_555
O4_4 Zn5_3 1_555 1_555
O8_4 Zn3_2 1_555 1_555
N1_5 N2_5 1_555 1_555
N2_5 N4_5 1_555 1_555
N3_5 N1_5 1_555 1_555
C14_5 N3_5 1_555 1_555
H9_5 C14_5 1_555 1_555
N4_5 C14_5 1_555 1_555
Zn1_5 N3_5 1_555 1_555
N10_5 Zn1_5 1_555 1_555
O10_5 Zn1_5 1_555 1_555
O12_5 Zn1_5 1_555 1_555
Zn4_4 N4_5 1_555 1_555
C1_5 C2_5 1_555 1_555
C2_5 H1_5 1_555 1_555
C3_5 C2_5 1_555 1_555
H2_5 C3_5 1_555 1_555
C4_5 C3_5 1_555 1_555
C5_5 C4_5 1_555 1_555
H3_5 C5_5 1_555 1_555
C6_5 C1_5 1_555 1_555
H4_5 C6_5 1_555 1_555
C7_5 C4_5 1_555 1_555
C8_5 C1_5 1_555 1_555
H5_5 C8_5 1_555 1_555
H6_5 C8_5 1_555 1_555
C9_5 C10_5 1_555 1_555
C10_5 H7_5 1_555 1_555
C11_5 C10_5 1_555 1_555
C12_5 C11_5 1_555 1_555
H8_5 C12_5 1_555 1_555
C13_5 C11_5 1_555 1_555
N5_5 C8_5 1_555 1_555
O1_5 C7_5 1_555 1_555
O2_5 C7_5 1_555 1_555
O3_5 C13_5 1_555 1_555
O4_5 C13_5 1_555 1_555
C15_5 C16_5 1_555 1_555
C16_5 H10_5 1_555 1_555
C17_5 C16_5 1_555 1_555
H11_5 C17_5 1_555 1_555
C18_5 C17_5 1_555 1_555
C19_5 C18_5 1_555 1_555
H12_5 C19_5 1_555 1_555
C20_5 C15_5 1_555 1_555
H13_5 C20_5 1_555 1_555
C21_5 C18_5 1_555 1_555
C22_5 N5_5 1_555 1_555
H14_5 C22_5 1_555 1_555
H15_5 C22_5 1_555 1_555
C23_5 C9_5 1_555 1_555
H16_5 C23_5 1_555 1_555
C24_5 C12_5 1_555 1_555
C25_5 C24_5 1_555 1_555
O5_5 C21_5 1_555 1_555
O7_5 C25_5 1_555 1_555
O8_5 C25_5 1_555 1_555
H17_5 C26_5 1_555 1_555
Zn4_3 O7_5 1_555 1_555
Zn5_4 O3_5 1_555 1_555
C5_5 C6_5 1_555 1_555
C9_5 N5_5 1_555 1_555
O4_5 Zn5_4 1_555 1_555
C15_5 C22_5 1_555 1_555
C19_5 C20_5 1_555 1_555
C23_5 C24_5 1_555 1_555
O8_5 Zn4_3 1_555 1_555
N6_5 N7_5 1_555 1_555
N7_5 N9_5 1_555 1_555
N8_5 N6_5 1_555 1_555
O9_5 Zn2_5 1_555 1_555
O11_5 Zn2_5 1_555 1_555
N8_5 Zn2_5 1_555 1_555
H8_6 C12_6 1_555 1_555
O8_6 C25_6 1_555 1_555
O4_6 Zn6_2 1_555 1_555
O8_6 Zn4_4 1_555 1_555
C1_6 C2_6 1_555 1_555
C2_6 H1_6 1_555 1_555
C3_6 C2_6 1_555 1_555
H2_6 C3_6 1_555 1_555
C4_6 C3_6 1_555 1_555
C5_6 C4_6 1_555 1_555
H3_6 C5_6 1_555 1_555
C6_6 C1_6 1_555 1_555
H4_6 C6_6 1_555 1_555
C7_6 C4_6 1_555 1_555
C8_6 C1_6 1_555 1_555
H5_6 C8_6 1_555 1_555
H6_6 C8_6 1_555 1_555
C9_6 C10_6 1_555 1_555
C10_6 H7_6 1_555 1_555
C11_6 C10_6 1_555 1_555
C13_6 C11_6 1_555 1_555
N5_6 C8_6 1_555 1_555
O1_6 C7_6 1_555 1_555
O2_6 C7_6 1_555 1_555
O3_6 C13_6 1_555 1_555
C15_6 C16_6 1_555 1_555
C16_6 H10_6 1_555 1_555
C17_6 C16_6 1_555 1_555
H11_6 C17_6 1_555 1_555
C18_6 C17_6 1_555 1_555
C19_6 C18_6 1_555 1_555
H12_6 C19_6 1_555 1_555
C20_6 C15_6 1_555 1_555
H13_6 C20_6 1_555 1_555
C21_6 C18_6 1_555 1_555
C22_6 N5_6 1_555 1_555
H14_6 C22_6 1_555 1_555
H15_6 C22_6 1_555 1_555
C23_6 C9_6 1_555 1_555
H16_6 C23_6 1_555 1_555
O5_6 C21_6 1_555 1_555
H17_6 C26_6 1_555 1_555
C5_6 C6_6 1_555 1_555
C9_6 N5_6 1_555 1_555
C15_6 C22_6 1_555 1_555
C19_6 C20_6 1_555 1_555
C23_6 C24_6 1_555 1_555
N6_6 N7_6 1_555 1_555
N7_6 N9_6 1_555 1_555
N8_6 N6_6 1_555 1_555
O11_6 Zn2_6 1_555 1_555
N8_6 Zn2_6 1_555 1_555
N1_6 N2_6 1_555 1_555
N2_6 N4_6 1_555 1_555
N3_6 N1_6 1_555 1_555
C14_6 N3_6 1_555 1_555
H9_6 C14_6 1_555 1_555
N4_6 C14_6 1_555 1_555
Zn1_6 N3_6 1_555 1_555
N10_6 Zn1_6 1_555 1_555
O10_6 Zn1_6 1_555 1_555
O12_6 Zn1_6 1_555 1_555
Zn3_2 N4_6 1_555 1_555
N1_7 N2_7 1_555 1_555
N2_7 N4_7 1_555 1_555
N3_7 N1_7 1_555 1_555
C14_7 N3_7 1_555 1_555
H9_7 C14_7 1_555 1_555
N4_7 C14_7 1_555 1_555
O1_7 C7_7 1_555 1_555
O2_7 C7_7 1_555 1_555
Zn1_7 N3_7 1_555 1_555
N10_7 Zn1_7 1_555 1_555
O12_7 Zn1_7 1_555 1_555
Zn4_5 N4_7 1_555 1_555
O1_7 Zn1_7 1_555 1_555
O5_7 C21_7 1_555 1_555
O6_7 C21_7 1_555 1_555
N6_7 N7_7 1_555 1_555
N7_7 N9_7 1_555 1_555
N8_7 N6_7 1_555 1_555
C26_7 N8_7 1_555 1_555
H17_7 C26_7 1_555 1_555
N9_7 C26_7 1_555 1_555
Zn2_7 O5_7 1_555 1_555
N11_7 Zn2_7 1_555 1_555
O11_7 Zn2_7 1_555 1_555
Zn6_3 N9_7 1_555 1_555
N8_7 Zn2_7 1_555 1_555
C1_7 C2_7 1_555 1_555
C2_7 H1_7 1_555 1_555
C3_7 C2_7 1_555 1_555
H2_7 C3_7 1_555 1_555
C4_7 C3_7 1_555 1_555
C5_7 C4_7 1_555 1_555
H3_7 C5_7 1_555 1_555
C6_7 C1_7 1_555 1_555
H4_7 C6_7 1_555 1_555
C8_7 C1_7 1_555 1_555
H5_7 C8_7 1_555 1_555
H6_7 C8_7 1_555 1_555
C9_7 C10_7 1_555 1_555
C10_7 H7_7 1_555 1_555
C11_7 C10_7 1_555 1_555
C12_7 C11_7 1_555 1_555
H8_7 C12_7 1_555 1_555
C13_7 C11_7 1_555 1_555
N5_7 C8_7 1_555 1_555
O3_7 C13_7 1_555 1_555
O4_7 C13_7 1_555 1_555
C15_7 C16_7 1_555 1_555
C16_7 H10_7 1_555 1_555
C17_7 C16_7 1_555 1_555
H11_7 C17_7 1_555 1_555
C18_7 C17_7 1_555 1_555
C19_7 C18_7 1_555 1_555
H12_7 C19_7 1_555 1_555
C20_7 C15_7 1_555 1_555
H13_7 C20_7 1_555 1_555
C22_7 N5_7 1_555 1_555
H14_7 C22_7 1_555 1_555
H15_7 C22_7 1_555 1_555
C23_7 C9_7 1_555 1_555
H16_7 C23_7 1_555 1_555
C24_7 C12_7 1_555 1_555
C25_7 C24_7 1_555 1_555
O7_7 C25_7 1_555 1_555
O8_7 C25_7 1_555 1_555
Zn3_3 O7_7 1_555 1_555
Zn5_5 O3_7 1_555 1_555
C5_7 C6_7 1_555 1_555
C9_7 N5_7 1_555 1_555
O4_7 Zn5_5 1_555 1_555
C15_7 C22_7 1_555 1_555
C19_7 C20_7 1_555 1_555
C23_7 C24_7 1_555 1_555
O8_7 Zn3_3 1_555 1_555
C1_8 C2_8 1_555 1_555
C2_8 H1_8 1_555 1_555
C3_8 C2_8 1_555 1_555
H2_8 C3_8 1_555 1_555
C4_8 C3_8 1_555 1_555
C5_8 C4_8 1_555 1_555
H3_8 C5_8 1_555 1_555
C6_8 C1_8 1_555 1_555
H4_8 C6_8 1_555 1_555
C7_8 C4_8 1_555 1_555
C9_8 C10_8 1_555 1_555
C10_8 H7_8 1_555 1_555
C11_8 C10_8 1_555 1_555
C12_8 C11_8 1_555 1_555
H8_8 C12_8 1_555 1_555
C13_8 C11_8 1_555 1_555
N1_8 N2_8 1_555 1_555
N2_8 N4_8 1_555 1_555
N3_8 N1_8 1_555 1_555
C14_8 N3_8 1_555 1_555
H9_8 C14_8 1_555 1_555
N4_8 C14_8 1_555 1_555
O1_8 C7_8 1_555 1_555
O2_8 C7_8 1_555 1_555
O3_8 C13_8 1_555 1_555
O4_8 C13_8 1_555 1_555
Zn1_8 N3_8 1_555 1_555
C22_8 N5_8 1_555 1_555
H14_8 C22_8 1_555 1_555
H15_8 C22_8 1_555 1_555
N10_8 Zn1_8 1_555 1_555
O10_8 Zn1_8 1_555 1_555
O12_8 Zn1_8 1_555 1_555
Zn4_6 N4_8 1_555 1_555
Zn5_6 O3_8 1_555 1_555
C5_8 C6_8 1_555 1_555
C9_8 N5_8 1_555 1_555
O1_8 Zn1_8 1_555 1_555
O4_8 Zn5_6 1_555 1_555
H5_8 C8_8 1_555 1_555
H6_8 C8_8 1_555 1_555
H8_9 C12_9 1_555 1_555
N5_9 C8_8 1_555 1_555
C15_8 C16_8 1_555 1_555
C16_8 H10_8 1_555 1_555
C17_8 C16_8 1_555 1_555
H11_8 C17_8 1_555 1_555
C18_8 C17_8 1_555 1_555
C19_8 C18_8 1_555 1_555
H12_8 C19_8 1_555 1_555
C20_8 C15_8 1_555 1_555
H13_8 C20_8 1_555 1_555
C23_8 C9_9 1_555 1_555
H16_8 C23_8 1_555 1_555
C24_8 C12_9 1_555 1_555
C25_8 C24_8 1_555 1_555
O7_8 C25_8 1_555 1_555
O8_8 C25_8 1_555 1_555
Zn4_5 O7_8 1_555 1_555
C9_9 N5_9 1_555 1_555
C19_8 C20_8 1_555 1_555
C23_8 C24_8 1_555 1_555
O8_8 Zn4_5 1_555 1_555
O5_8 C21_8 1_555 1_555
O6_8 C21_8 1_555 1_555
N6_8 N7_8 1_555 1_555
N7_8 N9_8 1_555 1_555
N8_8 N6_8 1_555 1_555
C26_8 N8_8 1_555 1_555
H17_8 C26_8 1_555 1_555
N9_8 C26_8 1_555 1_555
Zn2_8 O5_8 1_555 1_555
N11_8 Zn2_8 1_555 1_555
O11_8 Zn2_8 1_555 1_555
Zn5_5 N9_8 1_555 1_555
N8_8 Zn2_8 1_555 1_555
H5_9 C8_9 1_555 1_555
H6_9 C8_9 1_555 1_555
H8_10 C12_10 1_555 1_555
N5_10 C8_9 1_555 1_555
C15_9 C16_9 1_555 1_555
C16_9 H10_9 1_555 1_555
C17_9 C16_9 1_555 1_555
H11_9 C17_9 1_555 1_555
C18_9 C17_9 1_555 1_555
C19_9 C18_9 1_555 1_555
H12_9 C19_9 1_555 1_555
C20_9 C15_9 1_555 1_555
H13_9 C20_9 1_555 1_555
C21_9 C18_9 1_555 1_555
C23_9 C9_10 1_555 1_555
H16_9 C23_9 1_555 1_555
C24_9 C12_10 1_555 1_555
C25_9 C24_9 1_555 1_555
O5_9 C21_9 1_555 1_555
O6_9 C21_9 1_555 1_555
O7_9 C25_9 1_555 1_555
O8_9 C25_9 1_555 1_555
N6_9 N7_9 1_555 1_555
N7_9 N9_9 1_555 1_555
N8_9 N6_9 1_555 1_555
C26_9 N8_9 1_555 1_555
H17_9 C26_9 1_555 1_555
N9_9 C26_9 1_555 1_555
Zn2_9 O5_9 1_555 1_555
N11_9 Zn2_9 1_555 1_555
O9_9 Zn2_9 1_555 1_555
O11_9 Zn2_9 1_555 1_555
Zn4_6 O7_9 1_555 1_555
Zn5_6 N9_9 1_555 1_555
C9_10 N5_10 1_555 1_555
C19_9 C20_9 1_555 1_555
C23_9 C24_9 1_555 1_555
O8_9 Zn4_6 1_555 1_555
N8_9 Zn2_9 1_555 1_555
C1_9 C2_9 1_555 1_555
C2_9 H1_9 1_555 1_555
C3_9 C2_9 1_555 1_555
H2_9 C3_9 1_555 1_555
C4_9 C3_9 1_555 1_555
C5_9 C4_9 1_555 1_555
H3_9 C5_9 1_555 1_555
C6_9 C1_9 1_555 1_555
H4_9 C6_9 1_555 1_555
C9_11 C10_9 1_555 1_555
C10_9 H7_9 1_555 1_555
C11_9 C10_9 1_555 1_555
C12_11 C11_9 1_555 1_555
H8_11 C12_11 1_555 1_555
C13_9 C11_9 1_555 1_555
O3_9 C13_9 1_555 1_555
O4_9 C13_9 1_555 1_555
C22_9 N5_11 1_555 1_555
H14_9 C22_9 1_555 1_555
H15_9 C22_9 1_555 1_555
Zn6_3 O3_9 1_555 1_555
C5_9 C6_9 1_555 1_555
C9_11 N5_11 1_555 1_555
O4_9 Zn6_3 1_555 1_555
N1_9 N2_9 1_555 1_555
N2_9 N4_9 1_555 1_555
N3_9 N1_9 1_555 1_555
C14_9 N3_9 1_555 1_555
H9_9 C14_9 1_555 1_555
N4_9 C14_9 1_555 1_555
O1_9 C7_9 1_555 1_555
O2_9 C7_9 1_555 1_555
Zn1_9 N3_9 1_555 1_555
N10_9 Zn1_9 1_555 1_555
O12_9 Zn1_9 1_555 1_555
Zn3_3 N4_9 1_555 1_555
O1_9 Zn1_9 1_555 1_555
H8_12 C12_12 1_555 1_555
O12_7 C25_10 1_555 1_555
C1_10 C2_10 1_555 1_555
C2_10 H1_10 1_555 1_555
C3_10 C2_10 1_555 1_555
H2_10 C3_10 1_555 1_555
C4_10 C3_10 1_555 1_555
C5_10 C4_10 1_555 1_555
H3_10 C5_10 1_555 1_555
C6_10 C1_10 1_555 1_555
H4_10 C6_10 1_555 1_555
C7_10 C4_10 1_555 1_555
C8_10 C1_10 1_555 1_555
H5_10 C8_10 1_555 1_555
H6_10 C8_10 1_555 1_555
C9_12 C10_10 1_555 1_555
C10_10 H7_10 1_555 1_555
C11_10 C10_10 1_555 1_555
C13_10 C11_10 1_555 1_555
N1_10 N2_10 1_555 1_555
N2_10 N10_8 1_555 1_555
N3_10 N1_10 1_555 1_555
C14_10 N3_10 1_555 1_555
H9_10 C14_10 1_555 1_555
N10_8 C14_10 1_555 1_555
N5_12 C8_10 1_555 1_555
O1_10 C7_10 1_555 1_555
O2_10 C7_10 1_555 1_555
O9 C13_10 1_555 1_555
Zn3_3 N3_10 1_555 1_555
C15_10 C16_10 1_555 1_555
C16_10 H10_10 1_555 1_555
C17_10 C16_10 1_555 1_555
H11_10 C17_10 1_555 1_555
C18_10 C17_10 1_555 1_555
C19_10 C18_10 1_555 1_555
H12_10 C19_10 1_555 1_555
C20_10 C15_10 1_555 1_555
H13_10 C20_10 1_555 1_555
C21_10 C18_10 1_555 1_555
C22_10 N5_12 1_555 1_555
H14_10 C22_10 1_555 1_555
H15_10 C22_10 1_555 1_555
C23_10 C9_12 1_555 1_555
H16_10 C23_10 1_555 1_555
O5_10 C21_10 1_555 1_555
O6_10 C21_10 1_555 1_555
N6_10 N7_10 1_555 1_555
N7_10 N11_3 1_555 1_555
N8_10 N6_10 1_555 1_555
C26_10 N8_10 1_555 1_555
H17_10 C26_10 1_555 1_555
N11_3 C26_10 1_555 1_555
Zn5 O5_10 1_555 1_555
C5_10 C6_10 1_555 1_555
C9_12 N5_12 1_555 1_555
O1_10 Zn3_3 1_555 1_555
C15_10 C22_10 1_555 1_555
C19_10 C20_10 1_555 1_555
C23_10 C24_10 1_555 1_555
N8_10 Zn5 1_555 1_555
C1_11 C2_11 1_555 1_555
C2_11 H1_11 1_555 1_555
C3_11 C2_11 1_555 1_555
H2_11 C3_11 1_555 1_555
C4_11 C3_11 1_555 1_555
C5_11 C4_11 1_555 1_555
H3_11 C5_11 1_555 1_555
C6_11 C1_11 1_555 1_555
H4_11 C6_11 1_555 1_555
C7_11 C4_11 1_555 1_555
C8_11 C1_11 1_555 1_555
H5_11 C8_11 1_555 1_555
H6_11 C8_11 1_555 1_555
C9_13 C10_11 1_555 1_555
C10_11 H7_11 1_555 1_555
C11_11 C10_11 1_555 1_555
C12_13 C11_11 1_555 1_555
H8_13 C12_13 1_555 1_555
C13_11 C11_11 1_555 1_555
N5_13 C8_11 1_555 1_555
O1_11 C7_11 1_555 1_555
O2_11 C7_11 1_555 1_555
O9_2 C13_11 1_555 1_555
O11_2 C13_11 1_555 1_555
C15_11 C16_11 1_555 1_555
C16_11 H10_11 1_555 1_555
C17_11 C16_11 1_555 1_555
H11_11 C17_11 1_555 1_555
C18_11 C17_11 1_555 1_555
C19_11 C18_11 1_555 1_555
H12_11 C19_11 1_555 1_555
C20_11 C15_11 1_555 1_555
H13_11 C20_11 1_555 1_555
C21_11 C18_11 1_555 1_555
C22_11 N5_13 1_555 1_555
H14_11 C22_11 1_555 1_555
H15_11 C22_11 1_555 1_555
C23_11 C9_13 1_555 1_555
H16_11 C23_11 1_555 1_555
C24_11 C12_13 1_555 1_555
C25_11 C24_11 1_555 1_555
O5_11 C21_11 1_555 1_555
O6_11 C21_11 1_555 1_555
O10_8 C25_11 1_555 1_555
O12_8 C25_11 1_555 1_555
N6_11 N7_11 1_555 1_555
N7_11 N11 1_555 1_555
N8_11 N6_11 1_555 1_555
C26_11 N8_11 1_555 1_555
H17_11 C26_11 1_555 1_555
N11 C26_11 1_555 1_555
Zn5_2 O5_11 1_555 1_555
C5_11 C6_11 1_555 1_555
C9_13 N5_13 1_555 1_555
C15_11 C22_11 1_555 1_555
C19_11 C20_11 1_555 1_555
C23_11 C24_11 1_555 1_555
N8_11 Zn5_2 1_555 1_555
N1_11 N2_11 1_555 1_555
N2_11 N10_9 1_555 1_555
N3_11 N1_11 1_555 1_555
C14_11 N3_11 1_555 1_555
H9_11 C14_11 1_555 1_555
N10_9 C14_11 1_555 1_555
Zn4_5 N3_11 1_555 1_555
N1_12 N2_12 1_555 1_555
N2_12 N10_7 1_555 1_555
N3_12 N1_12 1_555 1_555
C14_12 N3_12 1_555 1_555
H9_12 C14_12 1_555 1_555
N10_7 C14_12 1_555 1_555
Zn4_6 N3_12 1_555 1_555
C1_12 C2_12 1_555 1_555
C2_12 H1_12 1_555 1_555
C3_12 C2_12 1_555 1_555
H2_12 C3_12 1_555 1_555
C4_12 C3_12 1_555 1_555
C5_12 C4_12 1_555 1_555
H3_12 C5_12 1_555 1_555
C6_12 C1_12 1_555 1_555
H4_12 C6_12 1_555 1_555
C7_12 C4_12 1_555 1_555
C8_12 C1_12 1_555 1_555
H5_12 C8_12 1_555 1_555
H6_12 C8_12 1_555 1_555
C9_14 C10_12 1_555 1_555
C10_12 H7_12 1_555 1_555
C11_12 C10_12 1_555 1_555
C13_12 C11_12 1_555 1_555
N5_14 C8_12 1_555 1_555
O1_12 C7_12 1_555 1_555
O2_12 C7_12 1_555 1_555
O9_3 C13_12 1_555 1_555
C15_12 C16_12 1_555 1_555
C16_12 H10_12 1_555 1_555
C17_12 C16_12 1_555 1_555
H11_12 C17_12 1_555 1_555
C18_12 C17_12 1_555 1_555
C19_12 C18_12 1_555 1_555
H12_12 C19_12 1_555 1_555
C20_12 C15_12 1_555 1_555
H13_12 C20_12 1_555 1_555
C21_12 C18_12 1_555 1_555
C22_12 N5_14 1_555 1_555
H14_12 C22_12 1_555 1_555
H15_12 C22_12 1_555 1_555
C23_12 C9_14 1_555 1_555
H16_12 C23_12 1_555 1_555
O5_12 C21_12 1_555 1_555
O6_12 C21_12 1_555 1_555
N6_12 N7_12 1_555 1_555
N7_12 N11_2 1_555 1_555
N8_12 N6_12 1_555 1_555
C26_12 N8_12 1_555 1_555
H17_12 C26_12 1_555 1_555
N11_2 C26_12 1_555 1_555
Zn6 O5_12 1_555 1_555
C5_12 C6_12 1_555 1_555
C9_14 N5_14 1_555 1_555
C15_12 C22_12 1_555 1_555
C19_12 C20_12 1_555 1_555
C23_12 C24_12 1_555 1_555
N8_12 Zn6 1_555 1_555
H8_14 C12_14 1_555 1_555
O12_9 C25_12 1_555 1_555
H8_15 C12_15 1_555 1_555
O11_7 C25_13 1_555 1_555
N6_13 N7_13 1_555 1_555
N7_13 N11_6 1_555 1_555
N8_13 N6_13 1_555 1_555
N8_13 Zn5_3 1_555 1_555
C1_13 C2_13 1_555 1_555
C2_13 H1_13 1_555 1_555
C3_13 C2_13 1_555 1_555
H2_13 C3_13 1_555 1_555
C4_13 C3_13 1_555 1_555
C5_13 C4_13 1_555 1_555
H3_13 C5_13 1_555 1_555
C6_13 C1_13 1_555 1_555
H4_13 C6_13 1_555 1_555
C7_13 C4_13 1_555 1_555
C8_13 C1_13 1_555 1_555
H5_13 C8_13 1_555 1_555
H6_13 C8_13 1_555 1_555
C9_15 C10_13 1_555 1_555
C10_13 H7_13 1_555 1_555
C11_13 C10_13 1_555 1_555
C13_13 C11_13 1_555 1_555
N1_13 N2_13 1_555 1_555
N2_13 N11_9 1_555 1_555
N3_13 N1_13 1_555 1_555
C14_13 N3_13 1_555 1_555
H9_13 C14_13 1_555 1_555
N11_9 C14_13 1_555 1_555
N5_15 C8_13 1_555 1_555
O1_13 C7_13 1_555 1_555
O2_13 C7_13 1_555 1_555
O9_4 C13_13 1_555 1_555
Zn5_5 N3_13 1_555 1_555
C15_13 C16_13 1_555 1_555
C16_13 H10_13 1_555 1_555
C17_13 C16_13 1_555 1_555
H11_13 C17_13 1_555 1_555
C18_13 C17_13 1_555 1_555
C19_13 C18_13 1_555 1_555
H12_13 C19_13 1_555 1_555
C20_13 C15_13 1_555 1_555
H13_13 C20_13 1_555 1_555
C21_13 C18_13 1_555 1_555
C22_13 N5_15 1_555 1_555
H14_13 C22_13 1_555 1_555
H15_13 C22_13 1_555 1_555
C23_13 C9_15 1_555 1_555
H16_13 C23_13 1_555 1_555
O5_13 C21_13 1_555 1_555
H17_13 C26_13 1_555 1_555
C5_13 C6_13 1_555 1_555
C9_15 N5_15 1_555 1_555
O1_13 Zn5_5 1_555 1_555
C15_13 C22_13 1_555 1_555
C19_13 C20_13 1_555 1_555
C23_13 C24_13 1_555 1_555
N6_14 N7_14 1_555 1_555
N7_14 N11_4 1_555 1_555
N8_14 N6_14 1_555 1_555
N8_14 Zn5_4 1_555 1_555
C1_14 C2_14 1_555 1_555
C2_14 H1_14 1_555 1_555
C3_14 C2_14 1_555 1_555
H2_14 C3_14 1_555 1_555
C4_14 C3_14 1_555 1_555
C5_14 C4_14 1_555 1_555
H3_14 C5_14 1_555 1_555
C6_14 C1_14 1_555 1_555
H4_14 C6_14 1_555 1_555
C7_14 C4_14 1_555 1_555
C8_14 C1_14 1_555 1_555
H5_14 C8_14 1_555 1_555
H6_14 C8_14 1_555 1_555
C9_16 C10_14 1_555 1_555
C10_14 H7_14 1_555 1_555
C11_14 C10_14 1_555 1_555
C12_16 C11_14 1_555 1_555
H8_16 C12_16 1_555 1_555
C13_14 C11_14 1_555 1_555
N5_16 C8_14 1_555 1_555
O1_14 C7_14 1_555 1_555
O2_14 C7_14 1_555 1_555
O9_5 C13_14 1_555 1_555
O11_5 C13_14 1_555 1_555
C15_14 C16_14 1_555 1_555
C16_14 H10_14 1_555 1_555
C17_14 C16_14 1_555 1_555
H11_14 C17_14 1_555 1_555
C18_14 C17_14 1_555 1_555
C19_14 C18_14 1_555 1_555
H12_14 C19_14 1_555 1_555
C20_14 C15_14 1_555 1_555
H13_14 C20_14 1_555 1_555
C21_14 C18_14 1_555 1_555
C22_14 N5_16 1_555 1_555
H14_14 C22_14 1_555 1_555
H15_14 C22_14 1_555 1_555
C23_14 C9_16 1_555 1_555
H16_14 C23_14 1_555 1_555
C24_14 C12_16 1_555 1_555
C25_14 C24_14 1_555 1_555
O5_14 C21_14 1_555 1_555
O9_9 C25_14 1_555 1_555
O11_9 C25_14 1_555 1_555
H17_14 C26_14 1_555 1_555
C5_14 C6_14 1_555 1_555
C9_16 N5_16 1_555 1_555
C15_14 C22_14 1_555 1_555
C19_14 C20_14 1_555 1_555
C23_14 C24_14 1_555 1_555
N1_14 N2_14 1_555 1_555
N2_14 N11_8 1_555 1_555
N3_14 N1_14 1_555 1_555
C14_14 N3_14 1_555 1_555
H9_14 C14_14 1_555 1_555
N11_8 C14_14 1_555 1_555
Zn6_3 N3_14 1_555 1_555
N1_15 N2_15 1_555 1_555
N2_15 N11_7 1_555 1_555
N3_15 N1_15 1_555 1_555
C14_15 N3_15 1_555 1_555
H9_15 C14_15 1_555 1_555
N11_7 C14_15 1_555 1_555
Zn5_6 N3_15 1_555 1_555
N6_15 N7_15 1_555 1_555
N7_15 N11_5 1_555 1_555
N8_15 N6_15 1_555 1_555
N8_15 Zn6_2 1_555 1_555
C1_15 C2_15 1_555 1_555
C2_15 H1_15 1_555 1_555
C3_15 C2_15 1_555 1_555
H2_15 C3_15 1_555 1_555
C4_15 C3_15 1_555 1_555
C5_15 C4_15 1_555 1_555
H3_15 C5_15 1_555 1_555
C6_15 C1_15 1_555 1_555
H4_15 C6_15 1_555 1_555
C7_15 C4_15 1_555 1_555
C8_15 C1_15 1_555 1_555
H5_15 C8_15 1_555 1_555
H6_15 C8_15 1_555 1_555
C9_17 C10_15 1_555 1_555
C10_15 H7_15 1_555 1_555
C11_15 C10_15 1_555 1_555
C13_15 C11_15 1_555 1_555
N5_17 C8_15 1_555 1_555
O1_15 C7_15 1_555 1_555
O2_15 C7_15 1_555 1_555
O9_6 C13_15 1_555 1_555
C15_15 C16_15 1_555 1_555
C16_15 H10_15 1_555 1_555
C17_15 C16_15 1_555 1_555
H11_15 C17_15 1_555 1_555
C18_15 C17_15 1_555 1_555
C19_15 C18_15 1_555 1_555
H12_15 C19_15 1_555 1_555
C20_15 C15_15 1_555 1_555
H13_15 C20_15 1_555 1_555
C21_15 C18_15 1_555 1_555
C22_15 N5_17 1_555 1_555
H14_15 C22_15 1_555 1_555
H15_15 C22_15 1_555 1_555
C23_15 C9_17 1_555 1_555
H16_15 C23_15 1_555 1_555
O5_15 C21_15 1_555 1_555
H17_15 C26_15 1_555 1_555
C5_15 C6_15 1_555 1_555
C9_17 N5_17 1_555 1_555
C15_15 C22_15 1_555 1_555
C19_15 C20_15 1_555 1_555
C23_15 C24_15 1_555 1_555
H8_17 C12_17 1_555 1_555
O11_8 C25_15 1_555 1_555
C1_16 C2_16 1_555 1_555
C2_16 H1_16 1_555 1_555
C3_16 C2_16 1_555 1_555
H2_16 C3_16 1_555 1_555
C4_16 C3_16 1_555 1_555
C5_16 C4_16 1_555 1_555
H3_16 C5_16 1_555 1_555
C6_16 C1_16 1_555 1_555
H4_16 C6_16 1_555 1_555
C8_16 C1_16 1_555 1_555
H5_16 C8_16 1_555 1_555
H6_16 C8_16 1_555 1_555
C9_18 C10_16 1_555 1_555
C10_16 H7_16 1_555 1_555
C11_16 C10_16 1_555 1_555
C12_18 C11_16 1_555 1_555
H8_18 C12_18 1_555 1_555
C13_16 C11_16 1_555 1_555
N5_18 C8_16 1_555 1_555
O10_4 C13_16 1_555 1_555
O12_4 C13_16 1_555 1_555
C15_16 C16_16 1_555 1_555
C16_16 H10_16 1_555 1_555
C17_16 C16_16 1_555 1_555
H11_16 C17_16 1_555 1_555
C18_16 C17_16 1_555 1_555
C19_16 C18_16 1_555 1_555
H12_16 C19_16 1_555 1_555
C20_16 C15_16 1_555 1_555
H13_16 C20_16 1_555 1_555
C22_16 N5_18 1_555 1_555
H14_16 C22_16 1_555 1_555
H15_16 C22_16 1_555 1_555
C23_16 C9_18 1_555 1_555
H16_16 C23_16 1_555 1_555
C24_16 C12_18 1_555 1_555
C25_16 C24_16 1_555 1_555
O10 C25_16 1_555 1_555
O12 C25_16 1_555 1_555
C5_16 C6_16 1_555 1_555
C9_18 N5_18 1_555 1_555
C15_16 C22_16 1_555 1_555
C19_16 C20_16 1_555 1_555
C23_16 C24_16 1_555 1_555
O5_16 C21_16 1_555 1_555
O6_16 C21_16 1_555 1_555
N6_16 N7_16 1_555 1_555
N7_16 N10_5 1_555 1_555
N8_16 N6_16 1_555 1_555
C26_16 N8_16 1_555 1_555
H17_16 C26_16 1_555 1_555
N10_5 C26_16 1_555 1_555
Zn3_2 O5_16 1_555 1_555
N8_16 Zn3_2 1_555 1_555
N1_16 N2_16 1_555 1_555
N2_16 N10_2 1_555 1_555
N3_16 N1_16 1_555 1_555
C14_16 N3_16 1_555 1_555
H9_16 C14_16 1_555 1_555
N10_2 C14_16 1_555 1_555
O1_16 C7_16 1_555 1_555
O2_16 C7_16 1_555 1_555
Zn3 N3_16 1_555 1_555
O1_16 Zn3 1_555 1_555
O5_17 C21_17 1_555 1_555
O6_17 C21_17 1_555 1_555
N6_17 N7_17 1_555 1_555
N7_17 N10_4 1_555 1_555
N8_17 N6_17 1_555 1_555
C26_17 N8_17 1_555 1_555
H17_17 C26_17 1_555 1_555
N10_4 C26_17 1_555 1_555
Zn4_4 O5_17 1_555 1_555
N8_17 Zn4_4 1_555 1_555
H5_17 C8_17 1_555 1_555
H6_17 C8_17 1_555 1_555
H8_19 C12_19 1_555 1_555
N5_19 C8_17 1_555 1_555
C15_17 C16_17 1_555 1_555
C16_17 H10_17 1_555 1_555
C17_17 C16_17 1_555 1_555
H11_17 C17_17 1_555 1_555
C18_17 C17_17 1_555 1_555
C19_17 C18_17 1_555 1_555
H12_17 C19_17 1_555 1_555
C20_17 C15_17 1_555 1_555
H13_17 C20_17 1_555 1_555
C23_17 C9_19 1_555 1_555
H16_17 C23_17 1_555 1_555
C24_17 C12_19 1_555 1_555
C25_17 C24_17 1_555 1_555
O10_2 C25_17 1_555 1_555
O12_2 C25_17 1_555 1_555
C9_19 N5_19 1_555 1_555
C19_17 C20_17 1_555 1_555
C23_17 C24_17 1_555 1_555
C1_17 C2_17 1_555 1_555
C2_17 H1_17 1_555 1_555
C3_17 C2_17 1_555 1_555
H2_17 C3_17 1_555 1_555
C4_17 C3_17 1_555 1_555
C5_17 C4_17 1_555 1_555
H3_17 C5_17 1_555 1_555
C6_17 C1_17 1_555 1_555
H4_17 C6_17 1_555 1_555
C7_17 C4_17 1_555 1_555
C9_20 C10_17 1_555 1_555
C10_17 H7_17 1_555 1_555
C11_17 C10_17 1_555 1_555
C12_20 C11_17 1_555 1_555
H8_20 C12_20 1_555 1_555
C13_17 C11_17 1_555 1_555
N1_17 N2_17 1_555 1_555
N2_17 N10_3 1_555 1_555
N3_17 N1_17 1_555 1_555
C14_17 N3_17 1_555 1_555
H9_17 C14_17 1_555 1_555
N10_3 C14_17 1_555 1_555
O1_17 C7_17 1_555 1_555
O2_17 C7_17 1_555 1_555
O10_6 C13_17 1_555 1_555
O12_6 C13_17 1_555 1_555
Zn4 N3_17 1_555 1_555
C22_17 N5_20 1_555 1_555
H14_17 C22_17 1_555 1_555
H15_17 C22_17 1_555 1_555
C5_17 C6_17 1_555 1_555
C9_20 N5_20 1_555 1_555
O1_17 Zn4 1_555 1_555
N1_18 N2_18 1_555 1_555
N2_18 N10 1_555 1_555
N3_18 N1_18 1_555 1_555
C14_18 N3_18 1_555 1_555
H9_18 C14_18 1_555 1_555
N10 C14_18 1_555 1_555
O1_18 C7_18 1_555 1_555
O2_18 C7_18 1_555 1_555
Zn4_2 N3_18 1_555 1_555
O1_18 Zn4_2 1_555 1_555
C1_18 C2_18 1_555 1_555
C2_18 H1_18 1_555 1_555
C3_18 C2_18 1_555 1_555
H2_18 C3_18 1_555 1_555
C4_18 C3_18 1_555 1_555
C5_18 C4_18 1_555 1_555
H3_18 C5_18 1_555 1_555
C6_18 C1_18 1_555 1_555
H4_18 C6_18 1_555 1_555
C9_21 C10_18 1_555 1_555
C10_18 H7_18 1_555 1_555
C11_18 C10_18 1_555 1_555
C12_21 C11_18 1_555 1_555
H8_21 C12_21 1_555 1_555
C13_18 C11_18 1_555 1_555
O10_5 C13_18 1_555 1_555
O12_5 C13_18 1_555 1_555
C22_18 N5_21 1_555 1_555
H14_18 C22_18 1_555 1_555
H15_18 C22_18 1_555 1_555
C5_18 C6_18 1_555 1_555
C9_21 N5_21 1_555 1_555
H5_18 C8_18 1_555 1_555
H6_18 C8_18 1_555 1_555
H8_22 C12_22 1_555 1_555
N5_22 C8_18 1_555 1_555
C15_18 C16_18 1_555 1_555
C16_18 H10_18 1_555 1_555
C17_18 C16_18 1_555 1_555
H11_18 C17_18 1_555 1_555
C18_18 C17_18 1_555 1_555
C19_18 C18_18 1_555 1_555
H12_18 C19_18 1_555 1_555
C20_18 C15_18 1_555 1_555
H13_18 C20_18 1_555 1_555
C21_18 C18_18 1_555 1_555
C23_18 C9_22 1_555 1_555
H16_18 C23_18 1_555 1_555
C24_18 C12_22 1_555 1_555
C25_18 C24_18 1_555 1_555
O5_18 C21_18 1_555 1_555
O6_18 C21_18 1_555 1_555
O10_3 C25_18 1_555 1_555
O12_3 C25_18 1_555 1_555
N6_18 N7_18 1_555 1_555
N7_18 N10_6 1_555 1_555
N8_18 N6_18 1_555 1_555
C26_18 N8_18 1_555 1_555
H17_18 C26_18 1_555 1_555
N10_6 C26_18 1_555 1_555
Zn4_3 O5_18 1_555 1_555
C9_22 N5_22 1_555 1_555
C19_18 C20_18 1_555 1_555
C23_18 C24_18 1_555 1_555
N8_18 Zn4_3 1_555 1_555

#END
