
###############################################################################
#
# This file contains modified crystal structure data generated from the
# MOF subset of the Cambridge Structural Database (CSD) v543 
# hosted by the Cambridge Crystallographic Data Centre (CCDC).
#
# This work is licensed under the Creative Commons
# Attribution-NonCommercial-ShareAlike 4.0 International License.
# To view a copy of this license, visit
# http://creativecommons.org/licenses/by-nc-sa/4.0/
# or send a letter to
# Creative Commons, PO Box 1866, Mountain View, CA 94042, USA.
#
# CIF created using the CSD Python API on 29 September 2022
# The structure has been converted into the P1 space group
# The structure has a 3D framework
# The original CSD entry QIWCUW is in the monoclinic crystal system
# The framework has been calculated to contain at least 10.0% void space
# The void calculation uses a probe of radius 1.32A, grid spacing 0.4
#
###############################################################################

data_QIWCUW
_chemical_formula_moiety         '(C168 H104 N32 O32 Zn4)n'
_symmetry_cell_setting           triclinic
_symmetry_space_group_name_H-M   'P 1'
_symmetry_Int_Tables_number      1
_space_group_name_Hall           'P 1'
loop_
_symmetry_equiv_pos_site_id
_symmetry_equiv_pos_as_xyz
1 x,y,z
_cell_length_a                   23.269(5)
_cell_length_b                   10.602(2)
_cell_length_c                   24.340(5)
_cell_angle_alpha                90
_cell_angle_beta                 111.28(3)
_cell_angle_gamma                90
_cell_volume                     5595.22
loop_
_atom_site_label
_atom_site_type_symbol
_atom_site_fract_x
_atom_site_fract_y
_atom_site_fract_z
O7 O 0.20147(17) 0.0168(3) 0.88776(14)
H15 H 0.2243 0.0819 0.6060
H18 H 0.1700 0.0516 0.7774
H21 H 0.1764 0.0405 0.6840
Zn8 Zn 0.25900(2) 0.07409(5) 0.48991(2)
Zn1 Zn 0.24100(2) 0.42591(5) 0.51009(2)
O1 O 0.23090(16) 0.6401(3) 0.08343(14)
N1 N 0.17080(16) 0.6991(3) 0.49040(15)
O3 O 0.29853(17) 0.4832(3) 0.11224(14)
N2 N 0.17673(18) 0.5831(3) 0.51648(16)
C1 C 0.2644(2) 0.5648(4) 0.1227(2)
N3 N 0.25075(18) 0.5439(4) 0.44354(15)
C3 C 0.2610(3) 0.5735(4) 0.1828(2)
C4 C 0.1280(2) 0.5738(4) 0.5325(2)
H1 H 0.1191 0.5024 0.5516
C5 C 0.2484(2) 0.5946(4) 0.35281(19)
C6 C 0.2613(2) 0.5006(4) 0.39720(19)
H2 H 0.2757 0.4181 0.3940
C7 C 0.2533(3) 0.5854(4) 0.2941(2)
C8 C 0.2135(3) 0.6567(5) 0.2472(2)
H3 H 0.1835 0.7098 0.2535
C9 C 0.1210(2) 0.7601(5) 0.4912(2)
H4 H 0.1085 0.8424 0.4762
C10 C 0.3003(3) 0.5020(5) 0.2291(2)
H5 H 0.3300 0.4484 0.2226
C11 C 0.0911(2) 0.6838(5) 0.5173(2)
C13 C 0.0085(3) 0.6253(5) 0.5547(2)
H7 H 0.0322 0.5542 0.5737
C14 C 0.2965(2) 0.5083(5) 0.2845(2)
H8 H 0.3236 0.4595 0.3160
C17 C 0.0312(2) 0.7082(5) 0.5241(2)
C18 C 0.2173(3) 0.6504(5) 0.1923(2)
H10 H 0.1900 0.6988 0.1608
H11 H 0.0112 0.8707 0.4765
N4 N 0.22998(17) 0.6638(3) 0.42950(15)
C20 C 0.21968(19) 0.7441(4) 0.47313(17)
H12 H 0.2081 0.8299 0.4555
C21 C 0.2286(2) 0.6980(4) 0.37576(18)
H13 H 0.2165 0.7776 0.3572
O5 O 0.26910(16) 0.8599(3) 0.91657(14)
O6 O 0.67304(14) 0.8267(3) 0.45280(14)
N5 N 0.32920(16) 0.8009(3) 0.50960(15)
N6 N 0.32327(18) 0.9169(3) 0.48352(16)
C22 C 0.2356(2) 0.9352(4) 0.8773(2)
N7 N 0.24925(18) 0.9561(4) 0.55646(15)
C23 C 0.6485(2) 0.7330(4) 0.4684(2)
C24 C 0.2390(3) 0.9265(4) 0.8172(2)
C25 C 0.3720(2) 0.9262(4) 0.4675(2)
H14 H 0.3809 0.9976 0.4484
C26 C 0.2516(2) 0.9054(4) 0.64719(19)
C27 C 0.2387(2) 0.9994(4) 0.60280(19)
C28 C 0.2467(3) 0.9146(4) 0.7059(2)
C29 C 0.2865(3) 0.8433(5) 0.7528(2)
H16 H 0.3165 0.7902 0.7465
C30 C 0.3790(2) 0.7399(5) 0.5088(2)
H17 H 0.3915 0.6576 0.5238
C31 C 0.1997(3) 0.9980(5) 0.7709(2)
C32 C 0.4089(2) 0.8162(5) 0.4827(2)
C33 C 0.5613(3) 0.6655(6) 0.4980(3)
H19 H 0.5844 0.5926 0.5155
C34 C 0.4915(3) 0.8747(5) 0.4453(2)
H20 H 0.4678 0.9458 0.4263
C35 C 0.2035(2) 0.9917(5) 0.7155(2)
C36 C 0.5492(2) 0.8543(5) 0.4421(2)
H22 H 0.5649 0.9128 0.4215
C37 C 0.5840(2) 0.7504(5) 0.4684(2)
C38 C 0.4688(2) 0.7918(5) 0.4759(2)
C39 C 0.2827(3) 0.8496(5) 0.8077(2)
H23 H 0.3100 0.8012 0.8392
C40 C 0.5041(3) 0.6871(6) 0.5023(3)
H24 H 0.4888 0.6293 0.5235
O8 O 0.67448(15) 0.6288(3) 0.48516(15)
N8 N 0.27002(17) 0.8362(3) 0.57050(15)
C41 C 0.28032(19) 0.7559(4) 0.52687(17)
H25 H 0.2919 0.6701 0.5445
C42 C 0.2714(2) 0.8020(4) 0.62424(18)
H26 H 0.2835 0.7224 0.6428
Zn4 Zn 0.74100(2) 0.92591(5) 0.51009(2)
Zn5 Zn 0.25900(2) 0.92591(5) 0.98991(2)
Zn6 Zn 0.75900(2) 0.57409(5) 0.48991(2)
Zn7 Zn 0.24100(2) 0.57409(5) 0.01009(2)
O10 O 0.23090(16) 0.3599(3) 0.58343(14)
O11 O 0.17304(14) 0.3267(3) 0.45280(14)
O13 O 0.29853(17) 0.5168(3) 0.61224(14)
O14 O 0.32552(15) 0.3712(3) 0.51484(15)
O2 O 0.82696(14) 0.6733(3) 0.54720(14)
C2 C 0.8515(2) 0.7670(4) 0.5316(2)
C12 C 0.9387(3) 0.8345(6) 0.5020(3)
H6 H 0.9156 0.9074 0.4845
C15 C 0.9508(2) 0.6457(5) 0.5579(2)
H9 H 0.9351 0.5872 0.5785
C16 C 0.9160(2) 0.7496(5) 0.5316(2)
C19 C 0.9959(3) 0.8129(6) 0.4977(3)
O4 O 0.82552(15) 0.8712(3) 0.51484(15)
O9 O 0.76910(16) 0.6401(3) 0.41657(14)
O12 O 0.70147(17) 0.4832(3) 0.38776(14)
N9 N 0.82327(18) 0.4169(3) 0.48352(16)
N10 N 0.74925(18) 0.4561(4) 0.55646(15)
H6_2 H 0.0844 0.9074 0.0155
C19_2 C 0.0041(3) 0.8129(6) 0.0023(3)
N9_2 N 0.17673(18) 0.4169(3) 0.01648(16)
O15 O 0.32552(15) 0.6288(3) 0.01484(15)
O2_2 O 0.17304(14) 0.6733(3) 0.95280(14)
C2_2 C 0.1485(2) 0.7670(4) 0.9684(2)
C12_2 C 0.0613(3) 0.8345(6) 0.9980(3)
C15_2 C 0.0492(2) 0.6457(5) 0.9421(2)
H9_2 H 0.0649 0.5872 0.9215
C16_2 C 0.0840(2) 0.7496(5) 0.9684(2)
O4_2 O 0.17448(15) 0.8712(3) 0.98516(15)
N10_2 N 0.25075(18) 0.4561(4) 0.94354(15)
Zn8_2 Zn 0.74100(2) 0.07409(5) 0.01009(2)
O7_2 O 0.79853(17) 0.0168(3) 0.61224(14)
H15_2 H 0.7757 0.0819 0.8940
H18_2 H 0.8300 0.0516 0.7226
H21_2 H 0.8236 0.0405 0.8160
N1_2 N 0.82920(16) 0.6991(3) 0.00960(15)
C1_2 C 0.7356(2) 0.5648(4) 0.3773(2)
N3_2 N 0.74925(18) 0.5439(4) 0.05646(15)
C3_2 C 0.7390(3) 0.5735(4) 0.3172(2)
C5_2 C 0.7516(2) 0.5946(4) 0.14719(19)
C6_2 C 0.7387(2) 0.5006(4) 0.10280(19)
H2_2 H 0.7243 0.4181 0.1060
C7_2 C 0.7467(3) 0.5854(4) 0.2059(2)
C8_2 C 0.7865(3) 0.6567(5) 0.2528(2)
H3_2 H 0.8165 0.7098 0.2465
C9_2 C 0.8790(2) 0.7601(5) 0.0088(2)
H4_2 H 0.8915 0.8424 0.0238
C10_2 C 0.6997(3) 0.5020(5) 0.2709(2)
H5_2 H 0.6700 0.4484 0.2774
C14_2 C 0.7035(2) 0.5083(5) 0.2155(2)
H8_2 H 0.6764 0.4595 0.1840
C18_2 C 0.7827(3) 0.6504(5) 0.3077(2)
H10_2 H 0.8100 0.6988 0.3392
H11_2 H 0.9888 0.8707 0.0235
N4_2 N 0.77002(17) 0.6638(3) 0.07050(15)
C20_2 C 0.78032(19) 0.7441(4) 0.02687(17)
H12_2 H 0.7919 0.8299 0.0445
C21_2 C 0.7714(2) 0.6980(4) 0.12424(18)
H13_2 H 0.7835 0.7776 0.1428
O6_2 O 0.32696(14) 0.8267(3) 0.04720(14)
N6_2 N 0.67673(18) 0.9169(3) 0.01648(16)
C23_2 C 0.3515(2) 0.7330(4) 0.0316(2)
C25_2 C 0.6280(2) 0.9262(4) 0.0325(2)
H14_2 H 0.6191 0.9976 0.0516
C32_2 C 0.5911(2) 0.8162(5) 0.0173(2)
C33_2 C 0.4387(3) 0.6655(6) 0.0020(3)
C34_2 C 0.5085(3) 0.8747(5) 0.0547(2)
H20_2 H 0.5322 0.9458 0.0737
C36_2 C 0.4508(2) 0.8543(5) 0.0579(2)
H22_2 H 0.4351 0.9128 0.0785
C37_2 C 0.4160(2) 0.7504(5) 0.0316(2)
C38_2 C 0.5312(2) 0.7918(5) 0.0241(2)
O11_2 O 0.82696(14) 0.3267(3) 0.04720(14)
Zn1_2 Zn 0.75900(2) 0.42591(5) 0.98991(2)
N2_2 N 0.82327(18) 0.5831(3) 0.98352(16)
C4_2 C 0.8720(2) 0.5738(4) 0.9675(2)
H1_2 H 0.8809 0.5024 0.9484
C11_2 C 0.9089(2) 0.6838(5) 0.9827(2)
C13_2 C 0.9915(3) 0.6253(5) 0.9453(2)
H7_2 H 0.9678 0.5542 0.9263
C17_2 C 0.9688(2) 0.7082(5) 0.9759(2)
O5_2 O 0.73090(16) 0.8599(3) 0.58343(14)
N5_2 N 0.67080(16) 0.8009(3) 0.99040(15)
C22_2 C 0.7644(2) 0.9352(4) 0.6227(2)
N7_2 N 0.75075(18) 0.9561(4) 0.94354(15)
C24_2 C 0.7610(3) 0.9265(4) 0.6828(2)
C26_2 C 0.7484(2) 0.9054(4) 0.85281(19)
C27_2 C 0.7613(2) 0.9994(4) 0.89720(19)
C28_2 C 0.7533(3) 0.9146(4) 0.7941(2)
C29_2 C 0.7135(3) 0.8433(5) 0.7472(2)
H16_2 H 0.6835 0.7902 0.7535
C30_2 C 0.6210(2) 0.7399(5) 0.9912(2)
H17_2 H 0.6085 0.6576 0.9762
C31_2 C 0.8003(3) 0.9980(5) 0.7291(2)
H19_2 H 0.4156 0.5926 0.9845
C35_2 C 0.7965(2) 0.9917(5) 0.7845(2)
C39_2 C 0.7173(3) 0.8496(5) 0.6923(2)
H23_2 H 0.6900 0.8012 0.6608
C40_2 C 0.4959(3) 0.6871(6) 0.9977(3)
H24_2 H 0.5112 0.6293 0.9765
N8_2 N 0.72998(17) 0.8362(3) 0.92950(15)
C41_2 C 0.71968(19) 0.7559(4) 0.97313(17)
H25_2 H 0.7081 0.6701 0.9555
C42_2 C 0.7286(2) 0.8020(4) 0.87576(18)
H26_2 H 0.7165 0.7224 0.8572
O10_2 O 0.76910(16) 0.3599(3) 0.91657(14)
O13_2 O 0.70147(17) 0.5168(3) 0.88776(14)
O14_2 O 0.67448(15) 0.3712(3) 0.98516(15)
C23_3 C 0.1485(2) 0.2330(4) 0.4684(2)
C33_3 C 0.0613(3) 0.1655(6) 0.4980(3)
H19_3 H 0.0844 0.0926 0.5155
C36_3 C 0.0492(2) 0.3543(5) 0.4421(2)
H22_3 H 0.0649 0.4128 0.4215
C37_3 C 0.0840(2) 0.2504(5) 0.4684(2)
C40_3 C 0.0041(3) 0.1871(6) 0.5023(3)
O8_2 O 0.17448(15) 0.1288(3) 0.48516(15)
O1_2 O 0.73090(16) 0.1401(3) 0.08343(14)
O2_3 O 0.32696(14) 0.1733(3) 0.54720(14)
N1_3 N 0.67080(16) 0.1991(3) 0.49040(15)
N2_3 N 0.67673(18) 0.0831(3) 0.51648(16)
C1_3 C 0.7644(2) 0.0648(4) 0.1227(2)
N3_3 N 0.75075(18) 0.0439(4) 0.44354(15)
C2_3 C 0.3515(2) 0.2670(4) 0.5316(2)
C3_3 C 0.7610(3) 0.0735(4) 0.1828(2)
C4_3 C 0.6280(2) 0.0738(4) 0.5325(2)
H1_3 H 0.6191 0.0024 0.5516
C5_3 C 0.7484(2) 0.0946(4) 0.35281(19)
C6_3 C 0.7613(2) 0.0006(4) 0.39720(19)
C7_3 C 0.7533(3) 0.0854(4) 0.2941(2)
C8_3 C 0.7135(3) 0.1567(5) 0.2472(2)
H3_3 H 0.6835 0.2098 0.2535
C9_3 C 0.6210(2) 0.2601(5) 0.4912(2)
H4_3 H 0.6085 0.3424 0.4762
C10_3 C 0.8003(3) 0.0020(5) 0.2291(2)
C11_3 C 0.5911(2) 0.1838(5) 0.5173(2)
C12_3 C 0.4387(3) 0.3345(6) 0.5020(3)
H6_3 H 0.4156 0.4074 0.4845
C13_3 C 0.5085(3) 0.1253(5) 0.5547(2)
H7_3 H 0.5322 0.0542 0.5737
C14_3 C 0.7965(2) 0.0083(5) 0.2845(2)
C15_3 C 0.4508(2) 0.1457(5) 0.5579(2)
H9_3 H 0.4351 0.0872 0.5785
C16_3 C 0.4160(2) 0.2496(5) 0.5316(2)
C17_3 C 0.5312(2) 0.2082(5) 0.5241(2)
C18_3 C 0.7173(3) 0.1504(5) 0.1923(2)
H10_3 H 0.6900 0.1988 0.1608
C19_3 C 0.4959(3) 0.3129(6) 0.4977(3)
H11_3 H 0.5112 0.3707 0.4765
N4_3 N 0.72998(17) 0.1638(3) 0.42950(15)
C20_3 C 0.71968(19) 0.2441(4) 0.47313(17)
H12_3 H 0.7081 0.3299 0.4555
C21_3 C 0.7286(2) 0.1980(4) 0.37576(18)
H13_3 H 0.7165 0.2776 0.3572
N5_3 N 0.82920(16) 0.3009(3) 0.50960(15)
C22_3 C 0.7356(2) 0.4352(4) 0.8773(2)
C24_3 C 0.7390(3) 0.4265(4) 0.8172(2)
C25_3 C 0.8720(2) 0.4262(4) 0.4675(2)
H14_3 H 0.8809 0.4976 0.4484
C26_3 C 0.7516(2) 0.4054(4) 0.64719(19)
C27_3 C 0.7387(2) 0.4994(4) 0.60280(19)
H15_3 H 0.7243 0.5819 0.6060
C28_3 C 0.7467(3) 0.4146(4) 0.7059(2)
C29_3 C 0.7865(3) 0.3433(5) 0.7528(2)
H16_3 H 0.8165 0.2902 0.7465
C30_3 C 0.8790(2) 0.2399(5) 0.5088(2)
H17_3 H 0.8915 0.1576 0.5238
C31_3 C 0.6997(3) 0.4980(5) 0.7709(2)
H18_3 H 0.6700 0.5516 0.7774
C32_3 C 0.9089(2) 0.3162(5) 0.4827(2)
C34_3 C 0.9915(3) 0.3747(5) 0.4453(2)
H20_3 H 0.9678 0.4458 0.4263
C35_3 C 0.7035(2) 0.4917(5) 0.7155(2)
H21_3 H 0.6764 0.5405 0.6840
C38_3 C 0.9688(2) 0.2918(5) 0.4759(2)
C39_3 C 0.7827(3) 0.3496(5) 0.8077(2)
H23_3 H 0.8100 0.3012 0.8392
H24_3 H 0.9888 0.1293 0.5235
N8_3 N 0.77002(17) 0.3362(3) 0.57050(15)
C41_3 C 0.78032(19) 0.2559(4) 0.52687(17)
H25_3 H 0.7919 0.1701 0.5445
C42_3 C 0.7714(2) 0.3020(4) 0.62424(18)
H26_3 H 0.7835 0.2224 0.6428
O9_2 O 0.26910(16) 0.1401(3) 0.41657(14)
O3_2 O 0.79853(17) 0.9832(3) 0.11224(14)
H2_3 H 0.7757 0.9181 0.3940
H5_3 H 0.8300 0.9484 0.2226
H8_3 H 0.8236 0.9595 0.3160
O12_2 O 0.20147(17) 0.9832(3) 0.38776(14)
N1_4 N 0.32920(16) 0.1991(3) 0.00960(15)
C1_4 C 0.2356(2) 0.0648(4) 0.3773(2)
N3_4 N 0.24925(18) 0.0439(4) 0.05646(15)
C3_4 C 0.2390(3) 0.0735(4) 0.3172(2)
C5_4 C 0.2516(2) 0.0946(4) 0.14719(19)
C6_4 C 0.2387(2) 0.0006(4) 0.10280(19)
C7_4 C 0.2467(3) 0.0854(4) 0.2059(2)
C8_4 C 0.2865(3) 0.1567(5) 0.2528(2)
H3_4 H 0.3165 0.2098 0.2465
C9_4 C 0.3790(2) 0.2601(5) 0.0088(2)
H4_4 H 0.3915 0.3424 0.0238
C10_4 C 0.1997(3) 0.0020(5) 0.2709(2)
H6_4 H 0.5844 0.4074 0.0155
C14_4 C 0.2035(2) 0.0083(5) 0.2155(2)
C18_4 C 0.2827(3) 0.1504(5) 0.3077(2)
H10_4 H 0.3100 0.1988 0.3392
C19_4 C 0.5041(3) 0.3129(6) 0.0023(3)
H11_4 H 0.4888 0.3707 0.0235
N4_4 N 0.27002(17) 0.1638(3) 0.07050(15)
C20_4 C 0.28032(19) 0.2441(4) 0.02687(17)
H12_4 H 0.2919 0.3299 0.0445
C21_4 C 0.2714(2) 0.1980(4) 0.12424(18)
H13_4 H 0.2835 0.2776 0.1428
C25_4 C 0.1280(2) 0.4262(4) 0.0325(2)
H14_4 H 0.1191 0.4976 0.0516
C32_4 C 0.0911(2) 0.3162(5) 0.0173(2)
C34_4 C 0.0085(3) 0.3747(5) 0.0547(2)
H20_4 H 0.0322 0.4458 0.0737
C38_4 C 0.0312(2) 0.2918(5) 0.0241(2)
O15_2 O 0.82552(15) 0.1288(3) 0.01484(15)
O2_4 O 0.67304(14) 0.1733(3) 0.95280(14)
N2_4 N 0.32327(18) 0.0831(3) 0.98352(16)
C2_4 C 0.6485(2) 0.2670(4) 0.9684(2)
C4_4 C 0.3720(2) 0.0738(4) 0.9675(2)
H1_4 H 0.3809 0.0024 0.9484
C11_4 C 0.4089(2) 0.1838(5) 0.9827(2)
C12_4 C 0.5613(3) 0.3345(6) 0.9980(3)
C13_4 C 0.4915(3) 0.1253(5) 0.9453(2)
H7_4 H 0.4678 0.0542 0.9263
C15_4 C 0.5492(2) 0.1457(5) 0.9421(2)
H9_4 H 0.5649 0.0872 0.9215
C16_4 C 0.5840(2) 0.2496(5) 0.9684(2)
C17_4 C 0.4688(2) 0.2082(5) 0.9759(2)
N5_4 N 0.17080(16) 0.3009(3) 0.99040(15)
C22_4 C 0.2644(2) 0.4352(4) 0.6227(2)
C24_4 C 0.2610(3) 0.4265(4) 0.6828(2)
C26_4 C 0.2484(2) 0.4054(4) 0.85281(19)
C27_4 C 0.2613(2) 0.4994(4) 0.89720(19)
H15_4 H 0.2757 0.5819 0.8940
C28_4 C 0.2533(3) 0.4146(4) 0.7941(2)
C29_4 C 0.2135(3) 0.3433(5) 0.7472(2)
H16_4 H 0.1835 0.2902 0.7535
C30_4 C 0.1210(2) 0.2399(5) 0.9912(2)
H17_4 H 0.1085 0.1576 0.9762
C31_4 C 0.3003(3) 0.4980(5) 0.7291(2)
H18_4 H 0.3300 0.5516 0.7226
C35_4 C 0.2965(2) 0.4917(5) 0.7845(2)
H21_4 H 0.3236 0.5405 0.8160
C39_4 C 0.2173(3) 0.3496(5) 0.6923(2)
H23_4 H 0.1900 0.3012 0.6608
H24_4 H 0.0112 0.1293 0.9765
N8_4 N 0.22998(17) 0.3362(3) 0.92950(15)
C41_4 C 0.21968(19) 0.2559(4) 0.97313(17)
H25_4 H 0.2081 0.1701 0.9555
C42_4 C 0.2286(2) 0.3020(4) 0.87576(18)
H26_4 H 0.2165 0.2224 0.8572
H2_4 H 0.2243 0.9181 0.1060
H5_4 H 0.1700 0.9484 0.2774
H8_4 H 0.1764 0.9595 0.1840
C23_4 C 0.8515(2) 0.2330(4) 0.0316(2)
C33_4 C 0.9387(3) 0.1655(6) 0.0020(3)
C36_4 C 0.9508(2) 0.3543(5) 0.0579(2)
H22_4 H 0.9351 0.4128 0.0785
C37_4 C 0.9160(2) 0.2504(5) 0.0316(2)
H19_4 H 0.9156 0.0926 0.9845
C40_4 C 0.9959(3) 0.1871(6) 0.9977(3)
loop_
_geom_bond_atom_site_label_1
_geom_bond_atom_site_label_2
_geom_bond_site_symmetry_1
_geom_bond_site_symmetry_2
Zn1 N2 1_555 1_555
O1 C1 1_555 1_555
N1 N2 1_555 1_555
O3 C1 1_555 1_555
N2 C4 1_555 1_555
C1 C3 1_555 1_555
N3 Zn1 1_555 1_555
C3 C10 1_555 1_555
C4 H1 1_555 1_555
C5 C6 1_555 1_555
C6 N3 1_555 1_555
H2 C6 1_555 1_555
C7 C5 1_555 1_555
C8 C7 1_555 1_555
H3 C8 1_555 1_555
C9 N1 1_555 1_555
H4 C9 1_555 1_555
C10 H5 1_555 1_555
C11 C4 1_555 1_555
C13 H7 1_555 1_555
C14 C7 1_555 1_555
H8 C14 1_555 1_555
C17 C11 1_555 1_555
C18 C3 1_555 1_555
H10 C18 1_555 1_555
N4 N3 1_555 1_555
C20 N1 1_555 1_555
H12 C20 1_555 1_555
C21 C5 1_555 1_555
H13 C21 1_555 1_555
O5 C22 1_555 1_555
O6 C23 1_555 1_555
N5 N6 1_555 1_555
N6 C25 1_555 1_555
C22 C24 1_555 1_555
N7 C27 1_555 1_555
C23 C37 1_555 1_555
C24 C31 1_555 1_555
C25 H14 1_555 1_555
C26 C27 1_555 1_555
C28 C26 1_555 1_555
C29 C28 1_555 1_555
H16 C29 1_555 1_555
C30 N5 1_555 1_555
H17 C30 1_555 1_555
C32 C25 1_555 1_555
C33 H19 1_555 1_555
C34 H20 1_555 1_555
C35 C28 1_555 1_555
C36 C34 1_555 1_555
H22 C36 1_555 1_555
C37 C33 1_555 1_555
C38 C32 1_555 1_555
C39 C24 1_555 1_555
H23 C39 1_555 1_555
C40 C33 1_555 1_555
H24 C40 1_555 1_555
O8 C23 1_555 1_555
N8 N7 1_555 1_555
C41 C20 1_555 1_555
H25 C41 1_555 1_555
C42 C26 1_555 1_555
H26 C42 1_555 1_555
Zn4 O6 1_555 1_555
Zn5 O5 1_555 1_555
Zn6 O8 1_555 1_555
Zn7 O1 1_555 1_555
O10 Zn1 1_555 1_555
O11 Zn1 1_555 1_555
O13 Zn1 1_555 1_555
O14 Zn1 1_555 1_555
O3 Zn7 1_555 1_555
C8 C18 1_555 1_555
C9 C11 1_555 1_555
C10 C14 1_555 1_555
C13 C17 1_555 1_555
N4 C20 1_555 1_555
N4 C21 1_555 1_555
N5 C41 1_555 1_555
C29 C39 1_555 1_555
C30 C32 1_555 1_555
C31 C35 1_555 1_555
C34 C38 1_555 1_555
C36 C37 1_555 1_555
C38 C40 1_555 1_555
N8 C41 1_555 1_555
N8 C42 1_555 1_555
O2 C2 1_555 1_555
C2 C16 1_555 1_555
C12 H6 1_555 1_555
H9 C15 1_555 1_555
C16 C12 1_555 1_555
C19 C12 1_555 1_555
O4 C2 1_555 1_555
Zn6 O2 1_555 1_555
Zn4 O4 1_555 1_555
O9 Zn6 1_555 1_555
O12 Zn6 1_555 1_555
N9 Zn6 1_555 1_555
N10 Zn6 1_555 1_555
C15 C16 1_555 1_555
N9_2 Zn7 1_555 1_555
O15 Zn7 1_555 1_555
O2_2 C2_2 1_555 1_555
C2_2 C16_2 1_555 1_555
H9_2 C15_2 1_555 1_555
C16_2 C12_2 1_555 1_555
O4_2 C2_2 1_555 1_555
Zn5 O4_2 1_555 1_555
C15_2 C16_2 1_555 1_555
O9 C1_2 1_555 1_555
O12 C1_2 1_555 1_555
C1_2 C3_2 1_555 1_555
C3_2 C10_2 1_555 1_555
C5_2 C6_2 1_555 1_555
C6_2 N3_2 1_555 1_555
H2_2 C6_2 1_555 1_555
C7_2 C5_2 1_555 1_555
C8_2 C7_2 1_555 1_555
H3_2 C8_2 1_555 1_555
C9_2 N1_2 1_555 1_555
H4_2 C9_2 1_555 1_555
C10_2 H5_2 1_555 1_555
C14_2 C7_2 1_555 1_555
H8_2 C14_2 1_555 1_555
C18_2 C3_2 1_555 1_555
H10_2 C18_2 1_555 1_555
N4_2 N3_2 1_555 1_555
C20_2 N1_2 1_555 1_555
H12_2 C20_2 1_555 1_555
C21_2 C5_2 1_555 1_555
H13_2 C21_2 1_555 1_555
O6_2 C23_2 1_555 1_555
N6_2 C25_2 1_555 1_555
C23_2 C37_2 1_555 1_555
C25_2 H14_2 1_555 1_555
C32_2 C25_2 1_555 1_555
C34_2 H20_2 1_555 1_555
C36_2 C34_2 1_555 1_555
H22_2 C36_2 1_555 1_555
C37_2 C33_2 1_555 1_555
C38_2 C32_2 1_555 1_555
O15 C23_2 1_555 1_555
C8_2 C18_2 1_555 1_555
C10_2 C14_2 1_555 1_555
N4_2 C20_2 1_555 1_555
N4_2 C21_2 1_555 1_555
C34_2 C38_2 1_555 1_555
C36_2 C37_2 1_555 1_555
Zn1_2 N2_2 1_555 1_555
N2_2 C4_2 1_555 1_555
C4_2 H1_2 1_555 1_555
C11_2 C4_2 1_555 1_555
C13_2 H7_2 1_555 1_555
C17_2 C11_2 1_555 1_555
O5_2 C22_2 1_555 1_555
C22_2 C24_2 1_555 1_555
N7_2 C27_2 1_555 1_555
C24_2 C31_2 1_555 1_555
C26_2 C27_2 1_555 1_555
C28_2 C26_2 1_555 1_555
C29_2 C28_2 1_555 1_555
H16_2 C29_2 1_555 1_555
C30_2 N5_2 1_555 1_555
H17_2 C30_2 1_555 1_555
C35_2 C28_2 1_555 1_555
C39_2 C24_2 1_555 1_555
H23_2 C39_2 1_555 1_555
H24_2 C40_2 1_555 1_555
N8_2 N7_2 1_555 1_555
H25_2 C41_2 1_555 1_555
C42_2 C26_2 1_555 1_555
H26_2 C42_2 1_555 1_555
Zn4 O5_2 1_555 1_555
O10_2 Zn1_2 1_555 1_555
O13_2 Zn1_2 1_555 1_555
O14_2 Zn1_2 1_555 1_555
C13_2 C17_2 1_555 1_555
N5_2 C41_2 1_555 1_555
C29_2 C39_2 1_555 1_555
C31_2 C35_2 1_555 1_555
N8_2 C41_2 1_555 1_555
N8_2 C42_2 1_555 1_555
O11 C23_3 1_555 1_555
C23_3 C37_3 1_555 1_555
C33_3 H19_3 1_555 1_555
H22_3 C36_3 1_555 1_555
C37_3 C33_3 1_555 1_555
C40_3 C33_3 1_555 1_555
O8_2 C23_3 1_555 1_555
Zn8 O8_2 1_555 1_555
C36_3 C37_3 1_555 1_555
O1_2 C1_3 1_555 1_555
O2_3 C2_3 1_555 1_555
N1_3 N2_3 1_555 1_555
N2_3 C4_3 1_555 1_555
C1_3 C3_3 1_555 1_555
C2_3 C16_3 1_555 1_555
C3_3 C10_3 1_555 1_555
C4_3 H1_3 1_555 1_555
C5_3 C6_3 1_555 1_555
C6_3 N3_3 1_555 1_555
C7_3 C5_3 1_555 1_555
C8_3 C7_3 1_555 1_555
H3_3 C8_3 1_555 1_555
C9_3 N1_3 1_555 1_555
H4_3 C9_3 1_555 1_555
C11_3 C4_3 1_555 1_555
C12_3 H6_3 1_555 1_555
C13_3 H7_3 1_555 1_555
C14_3 C7_3 1_555 1_555
C15_3 C13_3 1_555 1_555
H9_3 C15_3 1_555 1_555
C16_3 C12_3 1_555 1_555
C17_3 C11_3 1_555 1_555
C18_3 C3_3 1_555 1_555
H10_3 C18_3 1_555 1_555
C19_3 C12_3 1_555 1_555
H11_3 C19_3 1_555 1_555
O14 C2_3 1_555 1_555
N4_3 N3_3 1_555 1_555
C20_3 N1_3 1_555 1_555
H12_3 C20_3 1_555 1_555
C21_3 C5_3 1_555 1_555
H13_3 C21_3 1_555 1_555
O10_2 C22_3 1_555 1_555
N5_3 N9 1_555 1_555
O13_2 C22_3 1_555 1_555
N9 C25_3 1_555 1_555
C22_3 C24_3 1_555 1_555
N10 C27_3 1_555 1_555
C24_3 C31_3 1_555 1_555
C25_3 H14_3 1_555 1_555
C26_3 C27_3 1_555 1_555
C27_3 H15_3 1_555 1_555
C28_3 C26_3 1_555 1_555
C29_3 C28_3 1_555 1_555
H16_3 C29_3 1_555 1_555
C30_3 N5_3 1_555 1_555
H17_3 C30_3 1_555 1_555
C31_3 H18_3 1_555 1_555
C32_3 C25_3 1_555 1_555
C34_3 H20_3 1_555 1_555
C35_3 C28_3 1_555 1_555
H21_3 C35_3 1_555 1_555
C38_3 C32_3 1_555 1_555
C39_3 C24_3 1_555 1_555
H23_3 C39_3 1_555 1_555
N8_3 N10 1_555 1_555
C41_3 C20_3 1_555 1_555
H25_3 C41_3 1_555 1_555
C42_3 C26_3 1_555 1_555
H26_3 C42_3 1_555 1_555
Zn8 O2_3 1_555 1_555
Zn8_2 O1_2 1_555 1_555
O9_2 Zn8 1_555 1_555
C8_3 C18_3 1_555 1_555
C9_3 C11_3 1_555 1_555
C10_3 C14_3 1_555 1_555
C13_3 C17_3 1_555 1_555
C15_3 C16_3 1_555 1_555
C17_3 C19_3 1_555 1_555
N4_3 C20_3 1_555 1_555
N4_3 C21_3 1_555 1_555
N5_3 C41_3 1_555 1_555
C29_3 C39_3 1_555 1_555
C30_3 C32_3 1_555 1_555
C31_3 C35_3 1_555 1_555
C34_3 C38_3 1_555 1_555
N8_3 C41_3 1_555 1_555
N8_3 C42_3 1_555 1_555
O9_2 C1_4 1_555 1_555
C1_4 C3_4 1_555 1_555
C3_4 C10_4 1_555 1_555
C5_4 C6_4 1_555 1_555
C6_4 N3_4 1_555 1_555
C7_4 C5_4 1_555 1_555
C8_4 C7_4 1_555 1_555
H3_4 C8_4 1_555 1_555
C9_4 N1_4 1_555 1_555
H4_4 C9_4 1_555 1_555
C14_4 C7_4 1_555 1_555
C18_4 C3_4 1_555 1_555
H10_4 C18_4 1_555 1_555
H11_4 C19_4 1_555 1_555
N4_4 N3_4 1_555 1_555
C20_4 N1_4 1_555 1_555
H12_4 C20_4 1_555 1_555
C21_4 C5_4 1_555 1_555
H13_4 C21_4 1_555 1_555
N9_2 C25_4 1_555 1_555
C25_4 H14_4 1_555 1_555
C32_4 C25_4 1_555 1_555
C34_4 H20_4 1_555 1_555
C38_4 C32_4 1_555 1_555
O15_2 Zn8_2 1_555 1_555
C8_4 C18_4 1_555 1_555
C10_4 C14_4 1_555 1_555
N4_4 C20_4 1_555 1_555
N4_4 C21_4 1_555 1_555
C34_4 C38_4 1_555 1_555
O2_4 C2_4 1_555 1_555
N2_4 C4_4 1_555 1_555
C2_4 C16_4 1_555 1_555
C4_4 H1_4 1_555 1_555
C11_4 C4_4 1_555 1_555
C13_4 H7_4 1_555 1_555
C15_4 C13_4 1_555 1_555
H9_4 C15_4 1_555 1_555
C16_4 C12_4 1_555 1_555
C17_4 C11_4 1_555 1_555
O14_2 C2_4 1_555 1_555
O10 C22_4 1_555 1_555
O13 C22_4 1_555 1_555
C22_4 C24_4 1_555 1_555
N10_2 C27_4 1_555 1_555
C24_4 C31_4 1_555 1_555
C26_4 C27_4 1_555 1_555
C27_4 H15_4 1_555 1_555
C28_4 C26_4 1_555 1_555
C29_4 C28_4 1_555 1_555
H16_4 C29_4 1_555 1_555
C30_4 N5_4 1_555 1_555
H17_4 C30_4 1_555 1_555
C31_4 H18_4 1_555 1_555
C35_4 C28_4 1_555 1_555
H21_4 C35_4 1_555 1_555
C39_4 C24_4 1_555 1_555
H23_4 C39_4 1_555 1_555
N8_4 N10_2 1_555 1_555
H25_4 C41_4 1_555 1_555
C42_4 C26_4 1_555 1_555
H26_4 C42_4 1_555 1_555
C13_4 C17_4 1_555 1_555
C15_4 C16_4 1_555 1_555
N5_4 C41_4 1_555 1_555
C29_4 C39_4 1_555 1_555
C31_4 C35_4 1_555 1_555
N8_4 C41_4 1_555 1_555
N8_4 C42_4 1_555 1_555
O11_2 C23_4 1_555 1_555
C23_4 C37_4 1_555 1_555
H22_4 C36_4 1_555 1_555
C37_4 C33_4 1_555 1_555
O15_2 C23_4 1_555 1_555
C36_4 C37_4 1_555 1_555

#END
