
###############################################################################
#
# This file contains modified crystal structure data generated from the
# MOF subset of the Cambridge Structural Database (CSD) v543 
# hosted by the Cambridge Crystallographic Data Centre (CCDC).
#
# This work is licensed under the Creative Commons
# Attribution-NonCommercial-ShareAlike 4.0 International License.
# To view a copy of this license, visit
# http://creativecommons.org/licenses/by-nc-sa/4.0/
# or send a letter to
# Creative Commons, PO Box 1866, Mountain View, CA 94042, USA.
#
# CIF created using the CSD Python API on 29 September 2022
# The structure has been converted into the P1 space group
# The structure has a 3D framework
# The original CSD entry QIWCOQ is in the orthorhombic crystal system
# The framework has been calculated to contain at least 10.0% void space
# The void calculation uses a probe of radius 1.32A, grid spacing 0.4
# H atom positions have been added when not included in the experimental data
# Generated hydrogen atom positions removed from atoms on special positions
#
###############################################################################

data_QIWCOQ
_chemical_formula_moiety         '(C86 H70 Cu4 N16 O22)n'
_symmetry_cell_setting           triclinic
_symmetry_space_group_name_H-M   'P 1'
_symmetry_Int_Tables_number      1
_space_group_name_Hall           'P 1'
loop_
_symmetry_equiv_pos_site_id
_symmetry_equiv_pos_as_xyz
1 x,y,z
_cell_length_a                   11.9272(15)
_cell_length_b                   13.954(3)
_cell_length_c                   20.185(2)
_cell_angle_alpha                90
_cell_angle_beta                 90
_cell_angle_gamma                90
_cell_volume                     3359.43
loop_
_atom_site_label
_atom_site_type_symbol
_atom_site_fract_x
_atom_site_fract_y
_atom_site_fract_z
O10 O 0.5884(9) 0.0332(11) 0.0000
N9 N 0.8130(5) 0.0084(5) 0.0675(3)
H29 H 0.582491 0.0642272 0.0441348
O10_2 O 0.5884(9) 0.0332(11) 1.0000
N12 N 0.8130(5) 0.0084(5) 0.9325(3)
H30 H 0.600703 0.0829481 0.965583
Cu3 Cu 0.26257(10) 0.07272(10) -0.0000
Cu4 Cu 0.73743(10) 0.92728(10) -0.0000
O1 O 0.3216(5) 0.1533(5) 0.0721(2)
O2 O 0.1508(5) 0.2086(4) 0.0744(2)
N1 N 0.3130(5) 0.4916(5) 0.4325(3)
N2 N 0.4067(5) 0.4361(4) 0.4416(2)
C1 C 0.2452(7) 0.2001(7) 0.0960(4)
C2 C 0.2765(7) 0.2538(7) 0.1610(3)
C3 C 0.2024(9) 0.3138(8) 0.1840(5)
H1 H 0.1355 0.3259 0.1599
C4 C 0.2222(9) 0.3617(8) 0.2460(5)
H2 H 0.1673 0.4019 0.2657
C5 C 0.3225(8) 0.3467(7) 0.2745(5)
C6 C 0.3996(7) 0.2885(9) 0.2511(4)
H3 H 0.4690 0.2788 0.2732
C7 C 0.3732(8) 0.2413(8) 0.1912(4)
H4 H 0.4268 0.1992 0.1721
C8 C 0.3393(7) 0.3964(6) 0.3439(4)
C9 C 0.2743(8) 0.4644(6) 0.3741(4)
H5 H 0.2078 0.4896 0.3549
C10 C 0.4256(6) 0.3790(5) 0.3903(3)
H6 H 0.4857 0.3348 0.3857
C11 C 0.4747(7) 0.4492(6) 0.5000
H7 H 0.5366 0.4010 0.5000
O4 O 0.6784(5) 0.8467(5) 0.0721(2)
O5 O 0.8492(5) 0.7914(4) 0.0744(2)
N3 N 0.6870(5) 0.5084(5) 0.4325(3)
N4 N 0.5933(5) 0.5639(4) 0.4416(2)
C12 C 0.7548(7) 0.7999(7) 0.0960(4)
C13 C 0.7235(7) 0.7462(7) 0.1610(3)
C14 C 0.7976(9) 0.6862(8) 0.1840(5)
H8 H 0.8645 0.6741 0.1599
C15 C 0.7778(9) 0.6383(8) 0.2460(5)
H9 H 0.8327 0.5981 0.2657
C16 C 0.6775(8) 0.6533(7) 0.2745(5)
C17 C 0.6004(7) 0.7115(9) 0.2511(4)
H10 H 0.5310 0.7212 0.2732
C18 C 0.6268(8) 0.7587(8) 0.1912(4)
H11 H 0.5732 0.8008 0.1721
C19 C 0.6607(7) 0.6036(6) 0.3439(4)
C20 C 0.7257(8) 0.5356(6) 0.3741(4)
H12 H 0.7922 0.5104 0.3549
C21 C 0.5744(6) 0.6210(5) 0.3903(3)
H13 H 0.5143 0.6652 0.3857
C22 C 0.5253(7) 0.5508(6) 0.5000
H14 H 0.4634 0.5990 0.5000
O6 O 0.6784(5) 0.8467(5) 0.9279(2)
O7 O 0.8492(5) 0.7914(4) 0.9256(2)
N5 N 0.6870(5) 0.5084(5) 0.5675(3)
N6 N 0.5933(5) 0.5639(4) 0.5584(2)
C23 C 0.7548(7) 0.7999(7) 0.9040(4)
C24 C 0.7235(7) 0.7462(7) 0.8390(3)
C25 C 0.7976(9) 0.6862(8) 0.8160(5)
H15 H 0.8645 0.6741 0.8401
C26 C 0.7778(9) 0.6383(8) 0.7540(5)
H16 H 0.8327 0.5981 0.7343
C27 C 0.6775(8) 0.6533(7) 0.7255(5)
C28 C 0.6004(7) 0.7115(9) 0.7489(4)
H17 H 0.5310 0.7212 0.7268
C29 C 0.6268(8) 0.7587(8) 0.8088(4)
H18 H 0.5732 0.8008 0.8279
C30 C 0.6607(7) 0.6036(6) 0.6561(4)
C31 C 0.7257(8) 0.5356(6) 0.6259(4)
H19 H 0.7922 0.5104 0.6451
C32 C 0.5744(6) 0.6210(5) 0.6097(3)
H20 H 0.5143 0.6652 0.6143
O8 O 0.3216(5) 0.1533(5) 0.9279(2)
O9 O 0.1508(5) 0.2086(4) 0.9256(2)
N7 N 0.3130(5) 0.4916(5) 0.5675(3)
N8 N 0.4067(5) 0.4361(4) 0.5584(2)
C33 C 0.2452(7) 0.2001(7) 0.9040(4)
C34 C 0.2765(7) 0.2538(7) 0.8390(3)
C35 C 0.2024(9) 0.3138(8) 0.8160(5)
H21 H 0.1355 0.3259 0.8401
C36 C 0.2222(9) 0.3617(8) 0.7540(5)
H22 H 0.1673 0.4019 0.7343
C37 C 0.3225(8) 0.3467(7) 0.7255(5)
C38 C 0.3996(7) 0.2885(9) 0.7489(4)
H23 H 0.4690 0.2788 0.7268
C39 C 0.3732(8) 0.2413(8) 0.8088(4)
H24 H 0.4268 0.1992 0.8279
C40 C 0.3393(7) 0.3964(6) 0.6561(4)
C41 C 0.2743(8) 0.4644(6) 0.6259(4)
H25 H 0.2078 0.4896 0.6451
C42 C 0.4256(6) 0.3790(5) 0.6097(3)
H26 H 0.4857 0.3348 0.6143
Cu3_2 Cu 0.26257(10) 0.07272(10) 1.0000
Cu4_2 Cu 0.73743(10) 0.92728(10) 1.0000
Cu5 Cu 0.76257(10) 0.42728(10) 0.5000
Cu6 Cu 0.23743(10) 0.57272(10) 0.5000
O3 O 0.4116(9) 0.9668(11) 0.0000
N10 N 0.1870(5) 0.9916(5) 0.0675(3)
H27 H 0.417509 0.935773 0.0441348
O3_2 O 0.4116(9) 0.9668(11) 1.0000
N11 N 0.1870(5) 0.9916(5) 0.9325(3)
H28 H 0.399297 0.917052 0.965583
H7_2 H 0.0366 0.0990 0.0000
H7_3 H 0.0366 0.0990 1.0000
O4_2 O 0.1784(5) 0.6533(5) 0.4279(2)
O5_2 O 0.3492(5) 0.7086(4) 0.4256(2)
N4_2 N 0.0933(5) 0.9361(4) 0.0584(2)
C12_2 C 0.2548(7) 0.7001(7) 0.4040(4)
C13_2 C 0.2235(7) 0.7538(7) 0.3390(3)
C14_2 C 0.2976(9) 0.8138(8) 0.3160(5)
H8_2 H 0.3645 0.8259 0.3401
C15_2 C 0.2778(9) 0.8617(8) 0.2540(5)
H9_2 H 0.3327 0.9019 0.2343
C16_2 C 0.1775(8) 0.8467(7) 0.2255(5)
C17_2 C 0.1004(7) 0.7885(9) 0.2489(4)
H10_2 H 0.0310 0.7788 0.2268
C18_2 C 0.1268(8) 0.7413(8) 0.3088(4)
H11_2 H 0.0732 0.6992 0.3279
C19_2 C 0.1607(7) 0.8964(6) 0.1561(4)
C20_2 C 0.2257(8) 0.9644(6) 0.1259(4)
H12_2 H 0.2922 0.9896 0.1451
C21_2 C 0.0744(6) 0.8790(5) 0.1097(3)
H13_2 H 0.0143 0.8348 0.1143
C22_2 C 0.0253(7) 0.9492(6) 0.0000
O10_3 O 0.0884(9) 0.4668(11) 0.5000
O11 O 0.1784(5) 0.6533(5) 0.5721(2)
O13 O 0.3492(5) 0.7086(4) 0.5744(2)
C22_3 C 0.0253(7) 0.9492(6) 1.0000
N6_2 N 0.0933(5) 0.9361(4) 0.9416(2)
C23_2 C 0.2548(7) 0.7001(7) 0.5960(4)
C24_2 C 0.2235(7) 0.7538(7) 0.6610(3)
C25_2 C 0.2976(9) 0.8138(8) 0.6840(5)
H15_2 H 0.3645 0.8259 0.6599
C26_2 C 0.2778(9) 0.8617(8) 0.7460(5)
H16_2 H 0.3327 0.9019 0.7657
C27_2 C 0.1775(8) 0.8467(7) 0.7745(5)
C28_2 C 0.1004(7) 0.7885(9) 0.7511(4)
H17_2 H 0.0310 0.7788 0.7732
C29_2 C 0.1268(8) 0.7413(8) 0.6912(4)
H18_2 H 0.0732 0.6992 0.6721
C30_2 C 0.1607(7) 0.8964(6) 0.8439(4)
C31_2 C 0.2257(8) 0.9644(6) 0.8741(4)
H19_2 H 0.2922 0.9896 0.8549
C32_2 C 0.0744(6) 0.8790(5) 0.8903(3)
H20_2 H 0.0143 0.8348 0.8857
O1_2 O 0.8216(5) 0.3467(5) 0.4279(2)
O2_2 O 0.6508(5) 0.2914(4) 0.4256(2)
O3_3 O 0.9116(9) 0.5332(11) 0.5000
N2_2 N 0.9067(5) 0.0639(4) 0.0584(2)
C1_2 C 0.7452(7) 0.2999(7) 0.4040(4)
C2_2 C 0.7765(7) 0.2462(7) 0.3390(3)
C3_2 C 0.7024(9) 0.1862(8) 0.3160(5)
H1_2 H 0.6355 0.1741 0.3401
C4_2 C 0.7222(9) 0.1383(8) 0.2540(5)
H2_2 H 0.6673 0.0981 0.2343
C5_2 C 0.8225(8) 0.1533(7) 0.2255(5)
C6_2 C 0.8996(7) 0.2115(9) 0.2489(4)
H3_2 H 0.9690 0.2212 0.2268
C7_2 C 0.8732(8) 0.2587(8) 0.3088(4)
H4_2 H 0.9268 0.3008 0.3279
C8_2 C 0.8393(7) 0.1036(6) 0.1561(4)
C9_2 C 0.7743(8) 0.0356(6) 0.1259(4)
H5_2 H 0.7078 0.0104 0.1451
C10_2 C 0.9256(6) 0.1210(5) 0.1097(3)
H6_2 H 0.9857 0.1652 0.1143
C11_2 C 0.9747(7) 0.0508(6) 0.0000
O12 O 0.8216(5) 0.3467(5) 0.5721(2)
O14 O 0.6508(5) 0.2914(4) 0.5744(2)
C11_3 C 0.9747(7) 0.0508(6) 1.0000
N8_2 N 0.9067(5) 0.0639(4) 0.9416(2)
C33_2 C 0.7452(7) 0.2999(7) 0.5960(4)
C34_2 C 0.7765(7) 0.2462(7) 0.6610(3)
C35_2 C 0.7024(9) 0.1862(8) 0.6840(5)
H21_2 H 0.6355 0.1741 0.6599
C36_2 C 0.7222(9) 0.1383(8) 0.7460(5)
H22_2 H 0.6673 0.0981 0.7657
C37_2 C 0.8225(8) 0.1533(7) 0.7745(5)
C38_2 C 0.8996(7) 0.2115(9) 0.7511(4)
H23_2 H 0.9690 0.2212 0.7732
C39_2 C 0.8732(8) 0.2587(8) 0.6912(4)
H24_2 H 0.9268 0.3008 0.6721
C40_2 C 0.8393(7) 0.1036(6) 0.8439(4)
C41_2 C 0.7743(8) 0.0356(6) 0.8741(4)
H25_2 H 0.7078 0.0104 0.8549
C42_2 C 0.9256(6) 0.1210(5) 0.8903(3)
H26_2 H 0.9857 0.1652 0.8857
H14_2 H 0.9634 0.9010 0.0000
H14_3 H 0.9634 0.9010 1.0000
H28_2 H 0.600703 0.0829481 0.0344172
H27_2 H 0.582491 0.0642272 0.955865
H30_2 H 0.399297 0.917052 0.0344172
H29_2 H 0.417509 0.935773 0.955865
loop_
_geom_bond_atom_site_label_1
_geom_bond_atom_site_label_2
_geom_bond_site_symmetry_1
_geom_bond_site_symmetry_2
O10 H29 1_555 1_555
O10_2 H30 1_555 1_555
Cu3 O1 1_555 1_555
O1 C1 1_555 1_555
O2 Cu3 1_555 1_555
N1 N2 1_555 1_555
N2 C10 1_555 1_555
C1 O2 1_555 1_555
C2 C1 1_555 1_555
C3 C2 1_555 1_555
H1 C3 1_555 1_555
C4 C3 1_555 1_555
H2 C4 1_555 1_555
C5 C4 1_555 1_555
C6 C5 1_555 1_555
H3 C6 1_555 1_555
C7 C2 1_555 1_555
H4 C7 1_555 1_555
C8 C5 1_555 1_555
C9 N1 1_555 1_555
H5 C9 1_555 1_555
C10 C8 1_555 1_555
H6 C10 1_555 1_555
C11 N2 1_555 1_555
H7 C11 1_555 1_555
O4 C12 1_555 1_555
O5 C12 1_555 1_555
N3 N4 1_555 1_555
N4 C21 1_555 1_555
C12 C13 1_555 1_555
C13 C14 1_555 1_555
C14 H8 1_555 1_555
C15 C14 1_555 1_555
H9 C15 1_555 1_555
C16 C15 1_555 1_555
C17 C16 1_555 1_555
H10 C17 1_555 1_555
C18 C13 1_555 1_555
H11 C18 1_555 1_555
C19 C16 1_555 1_555
C20 N3 1_555 1_555
H12 C20 1_555 1_555
C21 C19 1_555 1_555
H13 C21 1_555 1_555
C22 C11 1_555 1_555
H14 C22 1_555 1_555
O6 C23 1_555 1_555
O7 C23 1_555 1_555
N5 N6 1_555 1_555
N6 C22 1_555 1_555
C23 C24 1_555 1_555
C24 C25 1_555 1_555
C25 H15 1_555 1_555
C26 C25 1_555 1_555
H16 C26 1_555 1_555
C27 C26 1_555 1_555
C28 C27 1_555 1_555
H17 C28 1_555 1_555
C29 C24 1_555 1_555
H18 C29 1_555 1_555
C30 C27 1_555 1_555
C31 N5 1_555 1_555
H19 C31 1_555 1_555
C32 N6 1_555 1_555
H20 C32 1_555 1_555
O8 C33 1_555 1_555
O9 C33 1_555 1_555
N7 N8 1_555 1_555
N8 C11 1_555 1_555
C33 C34 1_555 1_555
C34 C35 1_555 1_555
C35 H21 1_555 1_555
C36 C35 1_555 1_555
H22 C36 1_555 1_555
C37 C36 1_555 1_555
C38 C37 1_555 1_555
H23 C38 1_555 1_555
C39 C34 1_555 1_555
H24 C39 1_555 1_555
C40 C37 1_555 1_555
C41 N7 1_555 1_555
H25 C41 1_555 1_555
C42 N8 1_555 1_555
H26 C42 1_555 1_555
Cu4 O4 1_555 1_555
Cu3_2 O8 1_555 1_555
Cu4_2 O6 1_555 1_555
Cu5 N3 1_555 1_555
Cu6 N1 1_555 1_555
C6 C7 1_555 1_555
C8 C9 1_555 1_555
O5 Cu4 1_555 1_555
N4 C22 1_555 1_555
C17 C18 1_555 1_555
C19 C20 1_555 1_555
O7 Cu4_2 1_555 1_555
N5 Cu5 1_555 1_555
C28 C29 1_555 1_555
C30 C31 1_555 1_555
C30 C32 1_555 1_555
O9 Cu3_2 1_555 1_555
N7 Cu6 1_555 1_555
C38 C39 1_555 1_555
C40 C41 1_555 1_555
C40 C42 1_555 1_555
O3 H27 1_555 1_555
O3_2 H28 1_555 1_555
O4_2 C12_2 1_555 1_555
O5_2 C12_2 1_555 1_555
N10 N4_2 1_555 1_555
N4_2 C21_2 1_555 1_555
C12_2 C13_2 1_555 1_555
C13_2 C14_2 1_555 1_555
C14_2 H8_2 1_555 1_555
C15_2 C14_2 1_555 1_555
H9_2 C15_2 1_555 1_555
C16_2 C15_2 1_555 1_555
C17_2 C16_2 1_555 1_555
H10_2 C17_2 1_555 1_555
C18_2 C13_2 1_555 1_555
H11_2 C18_2 1_555 1_555
C19_2 C16_2 1_555 1_555
C20_2 N10 1_555 1_555
H12_2 C20_2 1_555 1_555
C21_2 C19_2 1_555 1_555
H13_2 C21_2 1_555 1_555
Cu6 O4_2 1_555 1_555
O10_3 Cu6 1_555 1_555
O11 Cu6 1_555 1_555
O13 Cu6 1_555 1_555
O5_2 Cu6 1_555 1_555
N4_2 C22_2 1_555 1_555
C17_2 C18_2 1_555 1_555
C19_2 C20_2 1_555 1_555
O11 C23_2 1_555 1_555
O13 C23_2 1_555 1_555
N11 N6_2 1_555 1_555
N6_2 C22_3 1_555 1_555
C23_2 C24_2 1_555 1_555
C24_2 C25_2 1_555 1_555
C25_2 H15_2 1_555 1_555
C26_2 C25_2 1_555 1_555
H16_2 C26_2 1_555 1_555
C27_2 C26_2 1_555 1_555
C28_2 C27_2 1_555 1_555
H17_2 C28_2 1_555 1_555
C29_2 C24_2 1_555 1_555
H18_2 C29_2 1_555 1_555
C30_2 C27_2 1_555 1_555
C31_2 N11 1_555 1_555
H19_2 C31_2 1_555 1_555
C32_2 N6_2 1_555 1_555
H20_2 C32_2 1_555 1_555
C28_2 C29_2 1_555 1_555
C30_2 C31_2 1_555 1_555
C30_2 C32_2 1_555 1_555
Cu5 O1_2 1_555 1_555
O1_2 C1_2 1_555 1_555
O2_2 Cu5 1_555 1_555
O3_3 Cu5 1_555 1_555
N9 N2_2 1_555 1_555
N2_2 C10_2 1_555 1_555
C1_2 O2_2 1_555 1_555
C2_2 C1_2 1_555 1_555
C3_2 C2_2 1_555 1_555
H1_2 C3_2 1_555 1_555
C4_2 C3_2 1_555 1_555
H2_2 C4_2 1_555 1_555
C5_2 C4_2 1_555 1_555
C6_2 C5_2 1_555 1_555
H3_2 C6_2 1_555 1_555
C7_2 C2_2 1_555 1_555
H4_2 C7_2 1_555 1_555
C8_2 C5_2 1_555 1_555
C9_2 N9 1_555 1_555
H5_2 C9_2 1_555 1_555
C10_2 C8_2 1_555 1_555
H6_2 C10_2 1_555 1_555
C11_2 N2_2 1_555 1_555
O12 Cu5 1_555 1_555
O14 Cu5 1_555 1_555
C6_2 C7_2 1_555 1_555
C8_2 C9_2 1_555 1_555
O12 C33_2 1_555 1_555
O14 C33_2 1_555 1_555
N12 N8_2 1_555 1_555
N8_2 C11_3 1_555 1_555
C33_2 C34_2 1_555 1_555
C34_2 C35_2 1_555 1_555
C35_2 H21_2 1_555 1_555
C36_2 C35_2 1_555 1_555
H22_2 C36_2 1_555 1_555
C37_2 C36_2 1_555 1_555
C38_2 C37_2 1_555 1_555
H23_2 C38_2 1_555 1_555
C39_2 C34_2 1_555 1_555
H24_2 C39_2 1_555 1_555
C40_2 C37_2 1_555 1_555
C41_2 N12 1_555 1_555
H25_2 C41_2 1_555 1_555
C42_2 N8_2 1_555 1_555
H26_2 C42_2 1_555 1_555
C38_2 C39_2 1_555 1_555
C40_2 C41_2 1_555 1_555
C40_2 C42_2 1_555 1_555
O10 H28_2 1_555 1_555
O10_2 H27_2 1_555 1_555
O3 H30_2 1_555 1_555
O3_2 H29_2 1_555 1_555

#END
