
###############################################################################
#
# This file contains modified crystal structure data generated from the
# MOF subset of the Cambridge Structural Database (CSD) v543 
# hosted by the Cambridge Crystallographic Data Centre (CCDC).
#
# This work is licensed under the Creative Commons
# Attribution-NonCommercial-ShareAlike 4.0 International License.
# To view a copy of this license, visit
# http://creativecommons.org/licenses/by-nc-sa/4.0/
# or send a letter to
# Creative Commons, PO Box 1866, Mountain View, CA 94042, USA.
#
# CIF created using the CSD Python API on 29 September 2022
# The structure has been converted into the P1 space group
# The structure has a 3D framework
# The original CSD entry QIWDAD is in the monoclinic crystal system
# The framework has been calculated to contain at least 10.0% void space
# The void calculation uses a probe of radius 1.32A, grid spacing 0.4
#
###############################################################################

data_QIWDAD
_chemical_formula_moiety         '(C168 H104 Cd4 N32 O32)n'
_symmetry_cell_setting           triclinic
_symmetry_space_group_name_H-M   'P 1'
_symmetry_Int_Tables_number      1
_space_group_name_Hall           'P 1'
loop_
_symmetry_equiv_pos_site_id
_symmetry_equiv_pos_as_xyz
1 x,y,z
_cell_length_a                   23.324(3)
_cell_length_b                   10.2514(6)
_cell_length_c                   25.426(2)
_cell_angle_alpha                90
_cell_angle_beta                 116.190(15)
_cell_angle_gamma                90
_cell_volume                     5455.31
loop_
_atom_site_label
_atom_site_type_symbol
_atom_site_fract_x
_atom_site_fract_y
_atom_site_fract_z
Cd1 Cd 0.24596(2) 0.08663(4) 0.527390(17)
C17 C 0.2470(3) 0.0106(6) 0.3972(2)
H9 H 0.2593 0.0970 0.3933
H12 H 0.3157 0.0406 0.3249
H13 H 0.3211 0.0429 0.2357
O10 O 0.2924(2) 0.0098(4) 0.62940(16)
O11 O 0.32049(19) 0.2606(4) 0.53669(16)
O12 O 0.17951(19) 0.2394(4) 0.46331(16)
O14 O 0.3523(2) 0.0572(4) 0.5414(2)
O17 O 0.2200(2) 0.1661(4) 0.59840(17)
C1 C 0.2164(3) 0.7571(5) 0.4731(2)
H1 H 0.2034 0.6688 0.4551
N1 N 0.1761(2) 0.9174(4) 0.5204(2)
O1 O 0.2924(2) 0.9902(4) 0.12940(16)
C2 C 0.2549(3) 0.9137(6) 0.1371(3)
C3 C 0.2509(3) 0.9151(6) 0.1945(3)
N2 N 0.1693(2) 0.7987(4) 0.49242(19)
C4 C 0.1274(3) 0.9206(6) 0.5341(3)
H2 H 0.1194 0.9912 0.5542
N3 N 0.2378(2) 0.9692(4) 0.4426(2)
O4 O 0.2200(2) 0.8339(4) 0.09840(17)
C7 C 0.0062(3) 0.8623(6) 0.5490(3)
H3 H 0.0278 0.9416 0.5652
C8 C 0.1192(3) 0.7339(6) 0.4901(3)
H4 H 0.1057 0.6498 0.4735
C10 C 0.0898(3) 0.8106(6) 0.5161(3)
C11 C 0.0300(3) 0.7812(6) 0.5214(3)
H7 H 0.0014 0.6317 0.4630
C14 C 0.2365(3) 0.9117(6) 0.3559(3)
C15 C 0.2418(4) 0.9155(6) 0.3004(3)
C16 C 0.2199(3) 0.8049(6) 0.3787(2)
H8 H 0.2103 0.7204 0.3617
C18 C 0.2048(4) 0.8423(6) 0.2012(3)
H10 H 0.1761 0.7910 0.1694
C19 C 0.1997(4) 0.8425(7) 0.2526(3)
H11 H 0.1672 0.7924 0.2559
C20 C 0.2867(4) 0.9891(7) 0.2933(3)
C21 C 0.2903(4) 0.9893(7) 0.2401(3)
N4 N 0.2198(2) 0.8417(5) 0.42947(19)
C22 C 0.2836(3) 0.7429(5) 0.5269(2)
H14 H 0.2966 0.8312 0.5449
N5 N 0.3239(2) 0.5826(4) 0.4796(2)
O5 O 0.2076(2) 0.5098(4) 0.87060(16)
C23 C 0.2451(3) 0.5863(6) 0.8629(3)
C24 C 0.2491(3) 0.5849(6) 0.8055(3)
O6 O 0.67951(19) 0.7394(4) 0.46331(16)
N6 N 0.3307(2) 0.7013(4) 0.50758(19)
C25 C 0.3726(3) 0.5794(6) 0.4659(3)
H15 H 0.3806 0.5088 0.4458
O7 O 0.6477(2) 0.9428(4) 0.4586(2)
N7 N 0.2622(2) 0.5308(4) 0.5574(2)
O8 O 0.2800(2) 0.6661(4) 0.90160(17)
C26 C 0.6400(3) 0.8218(6) 0.4628(2)
C27 C 0.5795(3) 0.7819(6) 0.4675(3)
C28 C 0.4938(3) 0.6377(6) 0.4510(3)
H16 H 0.4722 0.5584 0.4348
C29 C 0.3808(3) 0.7661(6) 0.5099(3)
H17 H 0.3943 0.8502 0.5265
C30 C 0.5489(3) 0.6677(6) 0.4457(3)
H18 H 0.5652 0.6085 0.4269
C31 C 0.4102(3) 0.6894(6) 0.4839(3)
C32 C 0.4700(3) 0.7188(6) 0.4786(3)
C33 C 0.5605(5) 0.8584(11) 0.5021(6)
H19 H 0.5835 0.9353 0.5201
C34 C 0.5087(5) 0.8220(9) 0.5097(5)
H20 H 0.4986 0.8683 0.5370
C35 C 0.2635(3) 0.5883(6) 0.6441(3)
C36 C 0.2582(4) 0.5845(6) 0.6996(3)
C37 C 0.2801(3) 0.6951(6) 0.6213(2)
H21 H 0.2897 0.7796 0.6383
C38 C 0.2530(3) 0.4894(6) 0.6028(2)
H22 H 0.2407 0.4030 0.6067
C39 C 0.2952(4) 0.6577(6) 0.7988(3)
H23 H 0.3239 0.7090 0.8306
C40 C 0.3003(4) 0.6575(7) 0.7474(3)
H24 H 0.3328 0.7076 0.7441
C41 C 0.2133(4) 0.5109(7) 0.7067(3)
H25 H 0.1843 0.4594 0.6751
C42 C 0.2097(4) 0.5107(7) 0.7599(3)
H26 H 0.1789 0.4571 0.7643
N8 N 0.2802(2) 0.6583(5) 0.57053(19)
Cd4 Cd 0.74596(2) 0.58663(4) 0.527390(17)
Cd5 Cd 0.25404(2) 0.58663(4) 0.972610(17)
Cd6 Cd 0.75404(2) 0.91337(4) 0.472610(17)
Cd7 Cd 0.24596(2) 0.91337(4) 0.027390(17)
Cd8 Cd 0.25404(2) 0.41337(4) 0.472610(17)
N9 N 0.8239(2) 0.0826(4) 0.4796(2)
N10 N 0.7622(2) 0.0308(4) 0.5574(2)
O2 O 0.82049(19) 0.7606(4) 0.53669(16)
O3 O 0.8523(2) 0.5572(4) 0.5414(2)
C5 C 0.8600(3) 0.6782(6) 0.5372(2)
C6 C 0.9205(3) 0.7181(6) 0.5325(3)
C9 C 0.9511(3) 0.8323(6) 0.5543(3)
H5 H 0.9348 0.8915 0.5731
C12 C 0.9395(5) 0.6416(11) 0.4979(6)
H6 H 0.9165 0.5647 0.4799
C13 C 0.9913(5) 0.6780(9) 0.4903(5)
O9 O 0.7076(2) 0.9902(4) 0.37060(16)
O16 O 0.7800(2) 0.8339(4) 0.40160(17)
N9_2 N 0.1761(2) 0.0826(4) 0.0204(2)
N10_2 N 0.2378(2) 0.0308(4) 0.9426(2)
C12_2 C 0.0605(5) 0.6416(11) 0.0021(6)
H6_2 H 0.0835 0.5647 0.0201
C13_2 C 0.0087(5) 0.6780(9) 0.0097(5)
O13 O 0.32049(19) 0.7394(4) 0.03669(16)
O15 O 0.3523(2) 0.9428(4) 0.0414(2)
O2_2 O 0.17951(19) 0.7606(4) 0.96331(16)
O3_2 O 0.1477(2) 0.5572(4) 0.9586(2)
C5_2 C 0.1400(3) 0.6782(6) 0.9628(2)
C6_2 C 0.0795(3) 0.7181(6) 0.9675(3)
C9_2 C 0.0489(3) 0.8323(6) 0.9457(3)
H5_2 H 0.0652 0.8915 0.9269
C17_2 C 0.7530(3) 0.0106(6) 0.1028(2)
H9_2 H 0.7407 0.0970 0.1067
H12_2 H 0.6843 0.0406 0.1751
H13_2 H 0.6789 0.0429 0.2643
O12_2 O 0.82049(19) 0.2394(4) 0.03669(16)
Cd1_2 Cd 0.75404(2) 0.08663(4) 0.972610(17)
O10_2 O 0.7076(2) 0.0098(4) 0.87060(16)
O11_2 O 0.67951(19) 0.2606(4) 0.96331(16)
O14_2 O 0.6477(2) 0.0572(4) 0.9586(2)
O17_2 O 0.7800(2) 0.1661(4) 0.90160(17)
C1_2 C 0.7836(3) 0.7571(5) 0.0269(2)
H1_2 H 0.7966 0.6688 0.0449
C2_2 C 0.7451(3) 0.9137(6) 0.3629(3)
C3_2 C 0.7491(3) 0.9151(6) 0.3055(3)
N2_2 N 0.8307(2) 0.7987(4) 0.00758(19)
N3_2 N 0.7622(2) 0.9692(4) 0.0574(2)
C8_2 C 0.8808(3) 0.7339(6) 0.0099(3)
H4_2 H 0.8943 0.6498 0.0265
H7_2 H 0.9986 0.6317 0.0370
C14_2 C 0.7635(3) 0.9117(6) 0.1441(3)
C15_2 C 0.7582(4) 0.9155(6) 0.1996(3)
C16_2 C 0.7801(3) 0.8049(6) 0.1213(2)
H8_2 H 0.7897 0.7204 0.1383
C18_2 C 0.7952(4) 0.8423(6) 0.2988(3)
H10_2 H 0.8239 0.7910 0.3306
C19_2 C 0.8003(4) 0.8425(7) 0.2474(3)
H11_2 H 0.8328 0.7924 0.2441
C20_2 C 0.7133(4) 0.9891(7) 0.2067(3)
C21_2 C 0.7097(4) 0.9893(7) 0.2599(3)
N4_2 N 0.7802(2) 0.8417(5) 0.07053(19)
N5_2 N 0.6761(2) 0.5826(4) 0.0204(2)
C25_2 C 0.6274(3) 0.5794(6) 0.0341(3)
H15_2 H 0.6194 0.5088 0.0542
C26_2 C 0.3600(3) 0.8218(6) 0.0372(2)
C27_2 C 0.4205(3) 0.7819(6) 0.0325(3)
C28_2 C 0.5062(3) 0.6377(6) 0.0490(3)
H16_2 H 0.5278 0.5584 0.0652
C30_2 C 0.4511(3) 0.6677(6) 0.0543(3)
H18_2 H 0.4348 0.6085 0.0731
C31_2 C 0.5898(3) 0.6894(6) 0.0161(3)
C32_2 C 0.5300(3) 0.7188(6) 0.0214(3)
Cd8_2 Cd 0.74596(2) 0.41337(4) 0.027390(17)
N1_2 N 0.8239(2) 0.9174(4) 0.9796(2)
C4_2 C 0.8726(3) 0.9206(6) 0.9659(3)
H2_2 H 0.8806 0.9912 0.9458
C7_2 C 0.9938(3) 0.8623(6) 0.9510(3)
H3_2 H 0.9722 0.9416 0.9348
C10_2 C 0.9102(3) 0.8106(6) 0.9839(3)
C11_2 C 0.9700(3) 0.7812(6) 0.9786(3)
C22_2 C 0.7164(3) 0.7429(5) 0.9731(2)
H14_2 H 0.7034 0.8312 0.9551
O5_2 O 0.7924(2) 0.5098(4) 0.62940(16)
C23_2 C 0.7549(3) 0.5863(6) 0.6371(3)
C24_2 C 0.7509(3) 0.5849(6) 0.6945(3)
N6_2 N 0.6693(2) 0.7013(4) 0.99242(19)
N7_2 N 0.7378(2) 0.5308(4) 0.9426(2)
O8_2 O 0.7200(2) 0.6661(4) 0.59840(17)
C29_2 C 0.6192(3) 0.7661(6) 0.9901(3)
H17_2 H 0.6057 0.8502 0.9735
C33_2 C 0.4395(5) 0.8584(11) 0.9979(6)
H19_2 H 0.4165 0.9353 0.9799
C34_2 C 0.4913(5) 0.8220(9) 0.9903(5)
H20_2 H 0.5014 0.8683 0.9630
C35_2 C 0.7365(3) 0.5883(6) 0.8559(3)
C36_2 C 0.7418(4) 0.5845(6) 0.8004(3)
C37_2 C 0.7199(3) 0.6951(6) 0.8787(2)
H21_2 H 0.7103 0.7796 0.8617
C38_2 C 0.7470(3) 0.4894(6) 0.8972(2)
H22_2 H 0.7593 0.4030 0.8933
C39_2 C 0.7048(4) 0.6577(6) 0.7012(3)
H23_2 H 0.6761 0.7090 0.6694
C40_2 C 0.6997(4) 0.6575(7) 0.7526(3)
H24_2 H 0.6672 0.7076 0.7559
C41_2 C 0.7867(4) 0.5109(7) 0.7933(3)
H25_2 H 0.8157 0.4594 0.8249
C42_2 C 0.7903(4) 0.5107(7) 0.7401(3)
H26_2 H 0.8211 0.4571 0.7357
N8_2 N 0.7198(2) 0.6583(5) 0.92947(19)
O7_2 O 0.1477(2) 0.4428(4) 0.4586(2)
C26_3 C 0.1400(3) 0.3218(6) 0.4628(2)
C27_3 C 0.0795(3) 0.2819(6) 0.4675(3)
C30_3 C 0.0489(3) 0.1677(6) 0.4457(3)
H18_3 H 0.0652 0.1085 0.4269
C33_3 C 0.0605(5) 0.3584(11) 0.5021(6)
H19_3 H 0.0835 0.4353 0.5201
C34_3 C 0.0087(5) 0.3220(9) 0.5097(5)
C1_3 C 0.7164(3) 0.2571(5) 0.4731(2)
H1_3 H 0.7034 0.1688 0.4551
N1_3 N 0.6761(2) 0.4174(4) 0.5204(2)
O1_2 O 0.7924(2) 0.4902(4) 0.12940(16)
C2_3 C 0.7549(3) 0.4137(6) 0.1371(3)
C3_3 C 0.7509(3) 0.4151(6) 0.1945(3)
N2_3 N 0.6693(2) 0.2987(4) 0.49242(19)
C4_3 C 0.6274(3) 0.4206(6) 0.5341(3)
H2_3 H 0.6194 0.4912 0.5542
N3_3 N 0.7378(2) 0.4692(4) 0.4426(2)
O4_2 O 0.7200(2) 0.3339(4) 0.09840(17)
C5_3 C 0.3600(3) 0.1782(6) 0.5372(2)
C6_3 C 0.4205(3) 0.2181(6) 0.5325(3)
C7_3 C 0.5062(3) 0.3623(6) 0.5490(3)
H3_3 H 0.5278 0.4416 0.5652
C8_3 C 0.6192(3) 0.2339(6) 0.4901(3)
H4_3 H 0.6057 0.1498 0.4735
C9_3 C 0.4511(3) 0.3323(6) 0.5543(3)
H5_3 H 0.4348 0.3915 0.5731
C10_3 C 0.5898(3) 0.3106(6) 0.5161(3)
C11_3 C 0.5300(3) 0.2812(6) 0.5214(3)
C12_3 C 0.4395(5) 0.1416(11) 0.4979(6)
H6_3 H 0.4165 0.0647 0.4799
C13_3 C 0.4913(5) 0.1780(9) 0.4903(5)
H7_3 H 0.5014 0.1317 0.4630
C14_3 C 0.7365(3) 0.4117(6) 0.3559(3)
C15_3 C 0.7418(4) 0.4155(6) 0.3004(3)
C16_3 C 0.7199(3) 0.3049(6) 0.3787(2)
H8_3 H 0.7103 0.2204 0.3617
C17_3 C 0.7470(3) 0.5106(6) 0.3972(2)
H9_3 H 0.7593 0.5970 0.3933
C18_3 C 0.7048(4) 0.3423(6) 0.2012(3)
H10_3 H 0.6761 0.2910 0.1694
C19_3 C 0.6997(4) 0.3425(7) 0.2526(3)
H11_3 H 0.6672 0.2924 0.2559
C20_3 C 0.7867(4) 0.4891(7) 0.2933(3)
H12_3 H 0.8157 0.5406 0.3249
C21_3 C 0.7903(4) 0.4893(7) 0.2401(3)
H13_3 H 0.8211 0.5429 0.2357
N4_3 N 0.7198(2) 0.3417(5) 0.42947(19)
C22_3 C 0.7836(3) 0.2429(5) 0.5269(2)
H14_3 H 0.7966 0.3312 0.5449
C23_3 C 0.7451(3) 0.0863(6) 0.8629(3)
C24_3 C 0.7491(3) 0.0849(6) 0.8055(3)
N6_3 N 0.8307(2) 0.2013(4) 0.50758(19)
C25_3 C 0.8726(3) 0.0794(6) 0.4659(3)
H15_3 H 0.8806 0.0088 0.4458
C28_3 C 0.9938(3) 0.1377(6) 0.4510(3)
H16_3 H 0.9722 0.0584 0.4348
C29_3 C 0.8808(3) 0.2661(6) 0.5099(3)
H17_3 H 0.8943 0.3502 0.5265
C31_3 C 0.9102(3) 0.1894(6) 0.4839(3)
C32_3 C 0.9700(3) 0.2188(6) 0.4786(3)
H20_3 H 0.9986 0.3683 0.5370
C35_3 C 0.7635(3) 0.0883(6) 0.6441(3)
C36_3 C 0.7582(4) 0.0845(6) 0.6996(3)
C37_3 C 0.7801(3) 0.1951(6) 0.6213(2)
H21_3 H 0.7897 0.2796 0.6383
C39_3 C 0.7952(4) 0.1577(6) 0.7988(3)
H23_3 H 0.8239 0.2090 0.8306
C40_3 C 0.8003(4) 0.1575(7) 0.7474(3)
H24_3 H 0.8328 0.2076 0.7441
C41_3 C 0.7133(4) 0.0109(7) 0.7067(3)
C42_3 C 0.7097(4) 0.0107(7) 0.7599(3)
N8_3 N 0.7802(2) 0.1583(5) 0.57053(19)
O9_2 O 0.2076(2) 0.4902(4) 0.37060(16)
O16_2 O 0.2800(2) 0.3339(4) 0.40160(17)
C38_3 C 0.7530(3) 0.9894(6) 0.6028(2)
H22_3 H 0.7407 0.9030 0.6067
H25_3 H 0.6843 0.9594 0.6751
H26_3 H 0.6789 0.9571 0.7643
C1_4 C 0.2836(3) 0.2571(5) 0.0269(2)
H1_4 H 0.2966 0.1688 0.0449
C2_4 C 0.2451(3) 0.4137(6) 0.3629(3)
C3_4 C 0.2491(3) 0.4151(6) 0.3055(3)
N2_4 N 0.3307(2) 0.2987(4) 0.00758(19)
N3_4 N 0.2622(2) 0.4692(4) 0.0574(2)
C8_4 C 0.3808(3) 0.2339(6) 0.0099(3)
H4_4 H 0.3943 0.1498 0.0265
C12_4 C 0.5605(5) 0.1416(11) 0.0021(6)
H6_4 H 0.5835 0.0647 0.0201
C13_4 C 0.5087(5) 0.1780(9) 0.0097(5)
H7_4 H 0.4986 0.1317 0.0370
C14_4 C 0.2635(3) 0.4117(6) 0.1441(3)
C15_4 C 0.2582(4) 0.4155(6) 0.1996(3)
C16_4 C 0.2801(3) 0.3049(6) 0.1213(2)
H8_4 H 0.2897 0.2204 0.1383
C17_4 C 0.2530(3) 0.5106(6) 0.1028(2)
H9_4 H 0.2407 0.5970 0.1067
C18_4 C 0.2952(4) 0.3423(6) 0.2988(3)
H10_4 H 0.3239 0.2910 0.3306
C19_4 C 0.3003(4) 0.3425(7) 0.2474(3)
H11_4 H 0.3328 0.2924 0.2441
C20_4 C 0.2133(4) 0.4891(7) 0.2067(3)
H12_4 H 0.1843 0.5406 0.1751
C21_4 C 0.2097(4) 0.4893(7) 0.2599(3)
H13_4 H 0.1789 0.5429 0.2643
N4_4 N 0.2802(2) 0.3417(5) 0.07053(19)
C25_4 C 0.1274(3) 0.0794(6) 0.0341(3)
H15_4 H 0.1194 0.0088 0.0542
C28_4 C 0.0062(3) 0.1377(6) 0.0490(3)
H16_4 H 0.0278 0.0584 0.0652
C31_4 C 0.0898(3) 0.1894(6) 0.0161(3)
C32_4 C 0.0300(3) 0.2188(6) 0.0214(3)
O15_2 O 0.8523(2) 0.4428(4) 0.0414(2)
N1_4 N 0.3239(2) 0.4174(4) 0.9796(2)
C4_4 C 0.3726(3) 0.4206(6) 0.9659(3)
H2_4 H 0.3806 0.4912 0.9458
C5_4 C 0.6400(3) 0.1782(6) 0.9628(2)
C6_4 C 0.5795(3) 0.2181(6) 0.9675(3)
C7_4 C 0.4938(3) 0.3623(6) 0.9510(3)
H3_4 H 0.4722 0.4416 0.9348
C9_4 C 0.5489(3) 0.3323(6) 0.9457(3)
H5_4 H 0.5652 0.3915 0.9269
C10_4 C 0.4102(3) 0.3106(6) 0.9839(3)
C11_4 C 0.4700(3) 0.2812(6) 0.9786(3)
C22_4 C 0.2164(3) 0.2429(5) 0.9731(2)
H14_4 H 0.2034 0.3312 0.9551
C23_4 C 0.2549(3) 0.0863(6) 0.6371(3)
C24_4 C 0.2509(3) 0.0849(6) 0.6945(3)
N6_4 N 0.1693(2) 0.2013(4) 0.99242(19)
C29_4 C 0.1192(3) 0.2661(6) 0.9901(3)
H17_4 H 0.1057 0.3502 0.9735
H20_4 H 0.0014 0.3683 0.9630
C35_4 C 0.2365(3) 0.0883(6) 0.8559(3)
C36_4 C 0.2418(4) 0.0845(6) 0.8004(3)
C37_4 C 0.2199(3) 0.1951(6) 0.8787(2)
H21_4 H 0.2103 0.2796 0.8617
C39_4 C 0.2048(4) 0.1577(6) 0.7012(3)
H23_4 H 0.1761 0.2090 0.6694
C40_4 C 0.1997(4) 0.1575(7) 0.7526(3)
H24_4 H 0.1672 0.2076 0.7559
C41_4 C 0.2867(4) 0.0109(7) 0.7933(3)
C42_4 C 0.2903(4) 0.0107(7) 0.7401(3)
N8_4 N 0.2198(2) 0.1583(5) 0.92947(19)
C38_4 C 0.2470(3) 0.9894(6) 0.8972(2)
H22_4 H 0.2593 0.9030 0.8933
H25_4 H 0.3157 0.9594 0.8249
H26_4 H 0.3211 0.9571 0.7357
C26_4 C 0.8600(3) 0.3218(6) 0.0372(2)
C27_4 C 0.9205(3) 0.2819(6) 0.0325(3)
C30_4 C 0.9511(3) 0.1677(6) 0.0543(3)
H18_4 H 0.9348 0.1085 0.0731
C33_4 C 0.9395(5) 0.3584(11) 0.9979(6)
H19_4 H 0.9165 0.4353 0.9799
C34_4 C 0.9913(5) 0.3220(9) 0.9903(5)
loop_
_geom_bond_atom_site_label_1
_geom_bond_atom_site_label_2
_geom_bond_site_symmetry_1
_geom_bond_site_symmetry_2
H9 C17 1_555 1_555
O10 Cd1 1_555 1_555
O11 Cd1 1_555 1_555
O12 Cd1 1_555 1_555
O14 Cd1 1_555 1_555
O17 Cd1 1_555 1_555
C1 H1 1_555 1_555
N1 N2 1_555 1_555
O1 C2 1_555 1_555
C2 C3 1_555 1_555
C3 C18 1_555 1_555
N2 C1 1_555 1_555
C4 N1 1_555 1_555
H2 C4 1_555 1_555
O4 C2 1_555 1_555
C7 H3 1_555 1_555
C8 N2 1_555 1_555
H4 C8 1_555 1_555
C10 C4 1_555 1_555
C11 C7 1_555 1_555
C14 C15 1_555 1_555
C15 C19 1_555 1_555
C16 C14 1_555 1_555
H8 C16 1_555 1_555
C18 H10 1_555 1_555
C19 C18 1_555 1_555
H11 C19 1_555 1_555
C20 C15 1_555 1_555
C21 C3 1_555 1_555
N4 C1 1_555 1_555
C22 C1 1_555 1_555
H14 C22 1_555 1_555
N5 N6 1_555 1_555
O5 C23 1_555 1_555
C23 C24 1_555 1_555
C24 C39 1_555 1_555
O6 C26 1_555 1_555
N6 C22 1_555 1_555
C25 N5 1_555 1_555
H15 C25 1_555 1_555
O7 C26 1_555 1_555
N7 C38 1_555 1_555
O8 C23 1_555 1_555
C26 C27 1_555 1_555
C27 C30 1_555 1_555
C28 H16 1_555 1_555
C29 N6 1_555 1_555
H17 C29 1_555 1_555
C30 C28 1_555 1_555
H18 C30 1_555 1_555
C31 C25 1_555 1_555
C32 C28 1_555 1_555
C33 C27 1_555 1_555
H19 C33 1_555 1_555
C34 C32 1_555 1_555
H20 C34 1_555 1_555
C35 C36 1_555 1_555
C36 C40 1_555 1_555
C37 C35 1_555 1_555
H21 C37 1_555 1_555
C38 C35 1_555 1_555
H22 C38 1_555 1_555
C39 H23 1_555 1_555
C40 C39 1_555 1_555
H24 C40 1_555 1_555
C41 C36 1_555 1_555
H25 C41 1_555 1_555
C42 C24 1_555 1_555
H26 C42 1_555 1_555
N8 C22 1_555 1_555
Cd4 O6 1_555 1_555
Cd5 O5 1_555 1_555
Cd6 O6 1_555 1_555
Cd7 O1 1_555 1_555
Cd8 N5 1_555 1_555
N3 N4 1_555 1_555
O4 Cd7 1_555 1_555
C8 C10 1_555 1_555
C10 C11 1_555 1_555
C16 N4 1_555 1_555
C20 C21 1_555 1_555
O7 Cd6 1_555 1_555
N7 N8 1_555 1_555
N7 Cd8 1_555 1_555
O8 Cd5 1_555 1_555
C29 C31 1_555 1_555
C31 C32 1_555 1_555
C33 C34 1_555 1_555
C37 N8 1_555 1_555
C41 C42 1_555 1_555
O2 C5 1_555 1_555
O3 C5 1_555 1_555
C5 C6 1_555 1_555
C6 C9 1_555 1_555
H5 C9 1_555 1_555
C12 C6 1_555 1_555
H6 C12 1_555 1_555
Cd6 O2 1_555 1_555
Cd4 O2 1_555 1_555
O9 Cd6 1_555 1_555
O16 Cd6 1_555 1_555
O3 Cd4 1_555 1_555
C12 C13 1_555 1_555
H6_2 C12_2 1_555 1_555
O13 Cd7 1_555 1_555
O15 Cd7 1_555 1_555
C12_2 C13_2 1_555 1_555
O2_2 C5_2 1_555 1_555
O3_2 C5_2 1_555 1_555
C5_2 C6_2 1_555 1_555
C6_2 C9_2 1_555 1_555
H5_2 C9_2 1_555 1_555
Cd5 O2_2 1_555 1_555
O3_2 Cd5 1_555 1_555
H9_2 C17_2 1_555 1_555
O10_2 Cd1_2 1_555 1_555
O11_2 Cd1_2 1_555 1_555
O14_2 Cd1_2 1_555 1_555
O17_2 Cd1_2 1_555 1_555
C1_2 H1_2 1_555 1_555
O9 C2_2 1_555 1_555
C2_2 C3_2 1_555 1_555
C3_2 C18_2 1_555 1_555
N2_2 C1_2 1_555 1_555
O16 C2_2 1_555 1_555
C8_2 N2_2 1_555 1_555
H4_2 C8_2 1_555 1_555
C14_2 C15_2 1_555 1_555
C15_2 C19_2 1_555 1_555
C16_2 C14_2 1_555 1_555
H8_2 C16_2 1_555 1_555
C18_2 H10_2 1_555 1_555
C19_2 C18_2 1_555 1_555
H11_2 C19_2 1_555 1_555
C20_2 C15_2 1_555 1_555
C21_2 C3_2 1_555 1_555
N4_2 C1_2 1_555 1_555
O13 C26_2 1_555 1_555
C25_2 N5_2 1_555 1_555
H15_2 C25_2 1_555 1_555
O15 C26_2 1_555 1_555
C26_2 C27_2 1_555 1_555
C27_2 C30_2 1_555 1_555
C28_2 H16_2 1_555 1_555
C30_2 C28_2 1_555 1_555
H18_2 C30_2 1_555 1_555
C31_2 C25_2 1_555 1_555
C32_2 C28_2 1_555 1_555
Cd8_2 N5_2 1_555 1_555
N3_2 N4_2 1_555 1_555
C16_2 N4_2 1_555 1_555
C20_2 C21_2 1_555 1_555
C31_2 C32_2 1_555 1_555
C4_2 N1_2 1_555 1_555
H2_2 C4_2 1_555 1_555
C7_2 H3_2 1_555 1_555
C10_2 C4_2 1_555 1_555
C11_2 C7_2 1_555 1_555
H14_2 C22_2 1_555 1_555
O5_2 C23_2 1_555 1_555
C23_2 C24_2 1_555 1_555
C24_2 C39_2 1_555 1_555
N6_2 C22_2 1_555 1_555
N7_2 C38_2 1_555 1_555
O8_2 C23_2 1_555 1_555
C29_2 N6_2 1_555 1_555
H17_2 C29_2 1_555 1_555
H19_2 C33_2 1_555 1_555
H20_2 C34_2 1_555 1_555
C35_2 C36_2 1_555 1_555
C36_2 C40_2 1_555 1_555
C37_2 C35_2 1_555 1_555
H21_2 C37_2 1_555 1_555
C38_2 C35_2 1_555 1_555
H22_2 C38_2 1_555 1_555
C39_2 H23_2 1_555 1_555
C40_2 C39_2 1_555 1_555
H24_2 C40_2 1_555 1_555
C41_2 C36_2 1_555 1_555
H25_2 C41_2 1_555 1_555
C42_2 C24_2 1_555 1_555
H26_2 C42_2 1_555 1_555
N8_2 C22_2 1_555 1_555
Cd4 O5_2 1_555 1_555
C10_2 C11_2 1_555 1_555
N7_2 N8_2 1_555 1_555
O8_2 Cd4 1_555 1_555
C33_2 C34_2 1_555 1_555
C37_2 N8_2 1_555 1_555
C41_2 C42_2 1_555 1_555
O12 C26_3 1_555 1_555
O7_2 C26_3 1_555 1_555
C26_3 C27_3 1_555 1_555
C27_3 C30_3 1_555 1_555
H18_3 C30_3 1_555 1_555
C33_3 C27_3 1_555 1_555
H19_3 C33_3 1_555 1_555
Cd8 O12 1_555 1_555
O7_2 Cd8 1_555 1_555
C33_3 C34_3 1_555 1_555
Cd4 N1_3 1_555 1_555
C1_3 H1_3 1_555 1_555
N1_3 N2_3 1_555 1_555
O1_2 C2_3 1_555 1_555
C2_3 C3_3 1_555 1_555
C3_3 C18_3 1_555 1_555
O11 C5_3 1_555 1_555
N2_3 C1_3 1_555 1_555
C4_3 N1_3 1_555 1_555
H2_3 C4_3 1_555 1_555
O14 C5_3 1_555 1_555
N3_3 Cd4 1_555 1_555
O4_2 C2_3 1_555 1_555
C5_3 C6_3 1_555 1_555
C6_3 C9_3 1_555 1_555
C7_3 H3_3 1_555 1_555
C8_3 N2_3 1_555 1_555
H4_3 C8_3 1_555 1_555
C9_3 C7_3 1_555 1_555
H5_3 C9_3 1_555 1_555
C10_3 C4_3 1_555 1_555
C11_3 C7_3 1_555 1_555
C12_3 C6_3 1_555 1_555
H6_3 C12_3 1_555 1_555
C13_3 C11_3 1_555 1_555
H7_3 C13_3 1_555 1_555
C14_3 C15_3 1_555 1_555
C15_3 C19_3 1_555 1_555
C16_3 C14_3 1_555 1_555
H8_3 C16_3 1_555 1_555
C17_3 N3_3 1_555 1_555
H9_3 C17_3 1_555 1_555
C18_3 H10_3 1_555 1_555
C19_3 C18_3 1_555 1_555
H11_3 C19_3 1_555 1_555
C20_3 C15_3 1_555 1_555
H12_3 C20_3 1_555 1_555
C21_3 C3_3 1_555 1_555
H13_3 C21_3 1_555 1_555
N4_3 C1_3 1_555 1_555
C22_3 C1_3 1_555 1_555
H14_3 C22_3 1_555 1_555
N9 N6_3 1_555 1_555
O10_2 C23_3 1_555 1_555
C23_3 C24_3 1_555 1_555
C24_3 C39_3 1_555 1_555
N6_3 C22_3 1_555 1_555
C25_3 N9 1_555 1_555
H15_3 C25_3 1_555 1_555
O17_2 C23_3 1_555 1_555
C28_3 H16_3 1_555 1_555
C29_3 N6_3 1_555 1_555
H17_3 C29_3 1_555 1_555
C31_3 C25_3 1_555 1_555
C32_3 C28_3 1_555 1_555
C35_3 C36_3 1_555 1_555
C36_3 C40_3 1_555 1_555
C37_3 C35_3 1_555 1_555
H21_3 C37_3 1_555 1_555
C39_3 H23_3 1_555 1_555
C40_3 C39_3 1_555 1_555
H24_3 C40_3 1_555 1_555
C41_3 C36_3 1_555 1_555
C42_3 C24_3 1_555 1_555
N8_3 C22_3 1_555 1_555
Cd8 O11 1_555 1_555
Cd8_2 O1_2 1_555 1_555
O9_2 Cd8 1_555 1_555
O16_2 Cd8 1_555 1_555
N3_3 N4_3 1_555 1_555
O4_2 Cd8_2 1_555 1_555
C8_3 C10_3 1_555 1_555
C10_3 C11_3 1_555 1_555
C12_3 C13_3 1_555 1_555
C14_3 C17_3 1_555 1_555
C16_3 N4_3 1_555 1_555
C20_3 C21_3 1_555 1_555
N10 N8_3 1_555 1_555
C29_3 C31_3 1_555 1_555
C31_3 C32_3 1_555 1_555
C37_3 N8_3 1_555 1_555
C41_3 C42_3 1_555 1_555
H22_3 C38_3 1_555 1_555
C1_4 H1_4 1_555 1_555
O9_2 C2_4 1_555 1_555
C2_4 C3_4 1_555 1_555
C3_4 C18_4 1_555 1_555
N2_4 C1_4 1_555 1_555
O16_2 C2_4 1_555 1_555
C8_4 N2_4 1_555 1_555
H4_4 C8_4 1_555 1_555
H6_4 C12_4 1_555 1_555
H7_4 C13_4 1_555 1_555
C14_4 C15_4 1_555 1_555
C15_4 C19_4 1_555 1_555
C16_4 C14_4 1_555 1_555
H8_4 C16_4 1_555 1_555
C17_4 N3_4 1_555 1_555
H9_4 C17_4 1_555 1_555
C18_4 H10_4 1_555 1_555
C19_4 C18_4 1_555 1_555
H11_4 C19_4 1_555 1_555
C20_4 C15_4 1_555 1_555
H12_4 C20_4 1_555 1_555
C21_4 C3_4 1_555 1_555
H13_4 C21_4 1_555 1_555
N4_4 C1_4 1_555 1_555
C25_4 N9_2 1_555 1_555
H15_4 C25_4 1_555 1_555
C28_4 H16_4 1_555 1_555
C31_4 C25_4 1_555 1_555
C32_4 C28_4 1_555 1_555
O12_2 Cd8_2 1_555 1_555
O15_2 Cd8_2 1_555 1_555
N3_4 N4_4 1_555 1_555
C12_4 C13_4 1_555 1_555
C14_4 C17_4 1_555 1_555
C16_4 N4_4 1_555 1_555
C20_4 C21_4 1_555 1_555
C31_4 C32_4 1_555 1_555
Cd5 N1_4 1_555 1_555
O11_2 C5_4 1_555 1_555
C4_4 N1_4 1_555 1_555
H2_4 C4_4 1_555 1_555
O14_2 C5_4 1_555 1_555
C5_4 C6_4 1_555 1_555
C6_4 C9_4 1_555 1_555
C7_4 H3_4 1_555 1_555
C9_4 C7_4 1_555 1_555
H5_4 C9_4 1_555 1_555
C10_4 C4_4 1_555 1_555
C11_4 C7_4 1_555 1_555
H14_4 C22_4 1_555 1_555
O10 C23_4 1_555 1_555
C23_4 C24_4 1_555 1_555
C24_4 C39_4 1_555 1_555
N6_4 C22_4 1_555 1_555
O17 C23_4 1_555 1_555
C29_4 N6_4 1_555 1_555
H17_4 C29_4 1_555 1_555
C35_4 C36_4 1_555 1_555
C36_4 C40_4 1_555 1_555
C37_4 C35_4 1_555 1_555
H21_4 C37_4 1_555 1_555
C39_4 H23_4 1_555 1_555
C40_4 C39_4 1_555 1_555
H24_4 C40_4 1_555 1_555
C41_4 C36_4 1_555 1_555
C42_4 C24_4 1_555 1_555
N8_4 C22_4 1_555 1_555
C10_4 C11_4 1_555 1_555
N10_2 N8_4 1_555 1_555
C37_4 N8_4 1_555 1_555
C41_4 C42_4 1_555 1_555
H22_4 C38_4 1_555 1_555
O12_2 C26_4 1_555 1_555
O15_2 C26_4 1_555 1_555
C26_4 C27_4 1_555 1_555
C27_4 C30_4 1_555 1_555
H18_4 C30_4 1_555 1_555
H19_4 C33_4 1_555 1_555
C33_4 C34_4 1_555 1_555

#END
