
###############################################################################
#
# This file contains modified crystal structure data generated from the
# MOF subset of the Cambridge Structural Database (CSD) v543 
# hosted by the Cambridge Crystallographic Data Centre (CCDC).
#
# This work is licensed under the Creative Commons
# Attribution-NonCommercial-ShareAlike 4.0 International License.
# To view a copy of this license, visit
# http://creativecommons.org/licenses/by-nc-sa/4.0/
# or send a letter to
# Creative Commons, PO Box 1866, Mountain View, CA 94042, USA.
#
# CIF created using the CSD Python API on 29 September 2022
# The structure has been converted into the P1 space group
# The structure has a 3D framework
# The original CSD entry QIWGOU is in the monoclinic crystal system
# The framework has been calculated to contain at least 10.0% void space
# The void calculation uses a probe of radius 1.32A, grid spacing 0.4
# H atom positions have been added when not included in the experimental data
#
###############################################################################

data_QIWGOU
_chemical_formula_moiety         '(C288 H220 N48 O136 Ru8 Sr15)n'
_symmetry_cell_setting           triclinic
_symmetry_space_group_name_H-M   'P 1'
_symmetry_Int_Tables_number      1
_space_group_name_Hall           'P 1'
loop_
_symmetry_equiv_pos_site_id
_symmetry_equiv_pos_as_xyz
1 x,y,z
_cell_length_a                   24.750(5)
_cell_length_b                   15.008(3)
_cell_length_c                   25.792(6)
_cell_angle_alpha                90
_cell_angle_beta                 111.957(2)
_cell_angle_gamma                90
_cell_volume                     8885.47
loop_
_atom_site_label
_atom_site_type_symbol
_atom_site_fract_x
_atom_site_fract_y
_atom_site_fract_z
O30 O 0.3121(3) 0.4299(3) 0.04988(19)
O31 O 0.3819(2) 0.6135(4) 0.0399(2)
Sr6 Sr 0.767288(18) 0.21521(3) 0.000142(19)
O44 O 0.24988(16) 0.6164(3) 0.02900(15)
H42 H 0.335175 0.376706 0.0480379
H43 H 0.332991 0.462979 0.0850541
H46 H 0.419543 0.594275 0.0380844
H47 H 0.377518 0.678949 0.0342433
Ru1 Ru 0.373778(15) 0.06079(2) 0.805764(15)
O1 O 0.0751(3) 0.0086(10) 0.7012(4)
O3 O 0.17874(18) 0.2910(3) 0.8955(2)
O4 O 0.25278(19) 0.3872(3) 0.92456(19)
O9 O 0.37612(16) 0.4588(3) 0.65640(16)
O10 O 0.46897(16) 0.4440(3) 0.71225(15)
O11 O 0.65731(16) 0.2411(3) 0.91976(16)
O12 O 0.67500(17) 0.1075(3) 0.95823(19)
N1 N 0.28795(16) 0.0359(3) 0.75695(17)
N2 N 0.33217(17) 0.1457(3) 0.84123(18)
N5 N 0.38481(16) 0.1691(3) 0.76111(16)
N6 N 0.45857(17) 0.0961(3) 0.85216(16)
C4 C 0.1893(3) 0.0560(4) 0.7496(3)
C5 C 0.2482(2) 0.0749(4) 0.7751(2)
C6 C 0.2730(2) 0.1391(3) 0.8213(2)
C7 C 0.2395(3) 0.1898(4) 0.8423(3)
C8 C 0.2664(3) 0.2521(3) 0.8842(3)
C9 C 0.3265(3) 0.2586(4) 0.9048(3)
C10 C 0.3579(3) 0.2044(4) 0.8824(3)
C12 C 0.2295(3) 0.3146(4) 0.9040(3)
C25 C 0.34351(19) 0.2053(3) 0.7158(2)
C26 C 0.3513(2) 0.2863(3) 0.6926(2)
C27 C 0.40427(19) 0.3307(3) 0.71658(19)
C28 C 0.44725(19) 0.2923(3) 0.76309(19)
C29 C 0.43671(18) 0.2127(3) 0.78447(18)
C30 C 0.48010(18) 0.1670(3) 0.83352(19)
C31 C 0.5382(2) 0.1928(4) 0.85835(19)
C32 C 0.57638(19) 0.1429(3) 0.90259(19)
C33 C 0.5538(3) 0.0707(4) 0.9218(3)
C34 C 0.4955(3) 0.0502(4) 0.8964(3)
C35 C 0.4167(2) 0.4182(3) 0.69352(19)
C36 C 0.6409(2) 0.1662(4) 0.9284(2)
H3 H 0.1623 0.0821 0.7633
H4 H 0.1984 0.1825 0.8283
H5 H 0.3461 0.2996 0.9338
H6 H 0.3992 0.2091 0.8969
H7 H 0.4359 0.0273 0.7212
H12 H 0.3415 0.0096 0.9084
H13 H 0.3076 0.1747 0.6989
H14 H 0.3210 0.3105 0.6610
H15 H 0.4839 0.3211 0.7801
H16 H 0.5518 0.2440 0.8453
H17 H 0.5784 0.0359 0.9522
H18 H 0.4805 0.0017 0.9105
Sr3 Sr 0.29813(2) 0.53442(3) 0.963456(19)
O28 O 0.3893(2) 0.4585(4) 0.9610(2)
O29 O 0.1898(3) 0.5520(4) 0.8955(2)
O36 O 0.28314(18) 0.7187(3) 0.94123(17)
O37 O 0.3226(3) 0.6369(3) 0.8924(2)
Sr8 Sr 0.515047(18) 0.55575(3) 0.792030(18)
Sr13 Sr 0.454720(17) 0.56520(3) 0.630510(17)
H48 H 0.164239 0.517439 0.91
H49 H 0.178683 0.615909 0.892724
H52 H 0.382855 0.441294 0.921957
H53 H 0.422783 0.500227 0.975194
O42 O 0.34269(16) 0.7589(3) 0.08024(16)
O43 O 0.32500(17) 0.8925(3) 0.04177(19)
O49 O 0.1846(3) 0.8164(3) 0.0652(3)
Sr1 Sr 0.232712(18) 0.78479(3) 0.999858(19)
O2 O 0.0867(3) 0.9372(5) 0.6320(2)
O7 O 0.44286(15) 0.6538(3) 0.71573(14)
O8 O 0.46745(18) 0.7389(3) 0.65709(16)
O13 O 0.21216(18) 0.9264(4) 0.9433(2)
N3 N 0.40525(17) 0.9604(3) 0.77073(17)
N4 N 0.36532(19) 0.9520(3) 0.85118(17)
C1 C 0.2684(2) 0.9811(3) 0.7123(2)
C2 C 0.2099(3) 0.9613(4) 0.6853(3)
C3 C 0.1697(2) 0.9984(5) 0.7038(3)
C11 C 0.1058(3) 0.9786(8) 0.6766(3)
C13 C 0.4298(2) 0.9691(3) 0.7324(2)
C14 C 0.4467(2) 0.8971(3) 0.70851(19)
C15 C 0.43643(19) 0.8107(3) 0.72378(18)
C16 C 0.4126(3) 0.8010(3) 0.7638(2)
C17 C 0.3970(2) 0.8755(3) 0.7865(2)
C18 C 0.3717(2) 0.8712(3) 0.8296(2)
C19 C 0.3548(3) 0.7920(3) 0.8482(2)
C20 C 0.3322(3) 0.7948(3) 0.8898(3)
C21 C 0.3281(3) 0.8771(4) 0.9131(3)
C22 C 0.3448(3) 0.9537(4) 0.8925(3)
C23 C 0.4508(2) 0.7293(3) 0.69678(19)
C24 C 0.3109(3) 0.7103(4) 0.9085(3)
H1 H 0.2958 0.9552 0.6990
H2 H 0.1977 0.9221 0.6541
H8 H 0.4649 0.9059 0.6824
H9 H 0.4068 0.7432 0.7759
H10 H 0.3588 0.7365 0.8322
H11 H 0.3142 0.8809 0.9427
O21 O 0.1077(3) 0.8102(4) 0.9151(3)
O22 O 0.14704(19) 0.6812(4) 0.9418(3)
C55 C 0.0016(2) 0.7296(4) 0.8434(3)
C56 C 0.04729(19) 0.6833(4) 0.8830(3)
C57 C 0.0396(2) 0.5939(4) 0.8923(3)
C60 C 0.1044(3) 0.7287(4) 0.9165(3)
H28 H 0.0060 0.7904 0.8356
H29 H 0.0712 0.5602 0.9172
O32 O 0.3587(2) 0.6381(4) 0.5694(2)
O33 O 0.4277(3) 0.4597(4) 0.5474(2)
O34 O 0.5090(3) 0.6378(4) 0.5730(2)
O45 O 0.55455(15) 0.4721(3) 0.65310(17)
O46 O 0.55570(14) 0.5806(3) 0.71250(15)
H37 H 0.188155 0.912593 0.903682
H38 H 0.190729 0.968577 0.95833
H44 H 0.549668 0.651561 0.59799
H45 H 0.509341 0.596027 0.543267
H50 H 0.363189 0.703903 0.571445
H51 H 0.348004 0.618322 0.530077
H54 H 0.391012 0.480221 0.517698
H55 H 0.45943 0.459016 0.532619
Sr10 Sr 0.984953(18) 0.05575(3) 0.707970(18)
H41 H 0.786047 0.865189 0.00133347
Ru2 Ru 0.855635(15) 0.55601(2) 0.795133(17)
O17 O 0.7045(3) 0.7617(5) 0.9444(3)
O18 O 0.7736(3) 0.8662(4) 0.9600(3)
O19 O 0.8098(2) 0.9462(3) 0.63149(16)
O20 O 0.9047(3) 0.9528(4) 0.6821(2)
O23 O 0.9459(3) 0.2888(4) 0.6168(3)
O24 O 0.9224(3) 0.1836(3) 0.6669(2)
O25 O 0.8694(3) 0.1176(3) 0.89382(19)
O26 O 0.8154(3) 0.1836(3) 0.9348(3)
O27 O 0.5301(3) 0.4955(6) 0.8953(3)
N7 N 0.76754(15) 0.5311(3) 0.76242(18)
N8 N 0.82753(16) 0.6353(3) 0.84637(18)
N9 N 0.85093(16) 0.6704(3) 0.74978(17)
N10 N 0.93991(16) 0.5995(3) 0.82871(18)
N11 N 0.87718(17) 0.4665(3) 0.74533(18)
N12 N 0.86541(17) 0.4396(3) 0.84005(18)
C37 C 0.7394(2) 0.4745(4) 0.7204(2)
C38 C 0.6785(2) 0.4668(4) 0.6969(2)
C39 C 0.64602(18) 0.5209(4) 0.7183(2)
C40 C 0.67440(19) 0.5761(4) 0.7635(2)
C41 C 0.73536(18) 0.5792(3) 0.7852(2)
C42 C 0.76903(19) 0.6362(3) 0.8328(2)
C43 C 0.7429(3) 0.6857(4) 0.8627(3)
C44 C 0.7772(3) 0.7393(4) 0.9066(3)
C45 C 0.8369(3) 0.7399(4) 0.9196(3)
C46 C 0.8608(3) 0.6865(4) 0.8893(3)
C47 C 0.58035(19) 0.5234(4) 0.69284(19)
C48 C 0.7485(3) 0.7923(5) 0.9397(3)
C49 C 0.8043(2) 0.6990(4) 0.7057(3)
C50 C 0.8038(2) 0.7786(4) 0.6794(2)
C51 C 0.85303(19) 0.8319(3) 0.69811(18)
C52 C 0.9012(2) 0.8051(3) 0.7443(2)
C53 C 0.89921(19) 0.7240(3) 0.7691(2)
C54 C 0.94900(19) 0.6851(3) 0.8154(2)
C58 C 0.9858(2) 0.5538(4) 0.8653(3)
C59 C 0.8557(3) 0.9173(4) 0.6677(2)
C61 C 0.8842(3) 0.4863(4) 0.6970(3)
C62 C 0.9001(3) 0.4238(4) 0.6664(3)
C63 C 0.9085(3) 0.3350(4) 0.6847(3)
C64 C 0.9004(2) 0.3143(4) 0.7340(3)
C65 C 0.88496(19) 0.3804(4) 0.7634(2)
C66 C 0.87418(19) 0.3657(4) 0.8155(2)
C67 C 0.8714(3) 0.2813(4) 0.8377(2)
C68 C 0.8584(2) 0.2744(4) 0.8857(2)
C69 C 0.8529(3) 0.3514(4) 0.9120(3)
C70 C 0.8564(3) 0.4343(4) 0.8887(3)
C71 C 0.9273(3) 0.2636(5) 0.6535(3)
C72 C 0.8476(3) 0.1842(4) 0.9070(3)
H19 H 0.7619 0.4380 0.7060
H20 H 0.6600 0.4261 0.6673
H21 H 0.6528 0.6115 0.7794
H22 H 0.7020 0.6830 0.8530
H23 H 0.8615 0.7767 0.9489
H24 H 0.9018 0.6862 0.8994
H25 H 0.7705 0.6625 0.6924
H26 H 0.7702 0.7970 0.6487
H27 H 0.9348 0.8419 0.7586
H30 H 0.9809 0.4929 0.8726
H31 H 0.8778 0.5458 0.6837
H32 H 0.9055 0.4406 0.6332
H33 H 0.9056 0.2548 0.7476
H34 H 0.8782 0.2292 0.8201
H35 H 0.8466 0.3485 0.9461
H36 H 0.8524 0.4873 0.9070
O35 O 0.4249(3) 0.5086(10) 0.7988(4)
O47 O 0.5953(3) 0.4528(4) 0.8179(2)
O48 O 0.5776(3) 0.6836(3) 0.8331(2)
H39 H 0.56327 0.527358 0.923546
H40 H 0.494118 0.50642 0.902794
O38 O 0.05714(15) 0.1538(3) 0.78427(14)
Sr12 Sr 0.045280(17) 0.06520(3) 0.869490(17)
H40_2 H 0.00588244 0.00641996 0.597206
O40 O 0.03103(16) 0.9440(3) 0.78775(15)
Sr3_2 Sr 0.20187(2) 0.03442(3) 0.536544(19)
O29_2 O 0.3102(3) 0.0520(4) 0.6045(2)
O31_2 O 0.1181(2) 0.1135(4) 0.4601(2)
O36_2 O 0.21686(18) 0.2187(3) 0.55877(17)
O37_2 O 0.1774(3) 0.1369(3) 0.6076(2)
O44_2 O 0.25012(16) 0.1164(3) 0.47100(15)
H46_2 H 0.0804573 0.0942755 0.461916
H47_2 H 0.122482 0.178949 0.465757
H48_2 H 0.335761 0.0174386 0.59
H49_2 H 0.321317 0.115909 0.607276
H53_2 H 0.0772175 0.000226538 0.524806
Ru1_2 Ru 0.126222(15) 0.56079(2) 0.694236(15)
Sr1_2 Sr 0.267288(18) 0.28479(3) 0.500142(19)
O2_2 O 0.4133(3) 0.4372(5) 0.8680(2)
O3_2 O 0.32126(18) 0.7910(3) 0.6045(2)
O4_2 O 0.24722(19) 0.8872(3) 0.57544(19)
O8_2 O 0.03255(18) 0.2389(3) 0.84291(16)
O9_2 O 0.12388(16) 0.9588(3) 0.84360(16)
O13_2 O 0.28784(18) 0.4264(4) 0.5567(2)
N1_2 N 0.21205(16) 0.5359(3) 0.74305(17)
N2_2 N 0.16783(17) 0.6457(3) 0.65877(18)
N3_2 N 0.09475(17) 0.4604(3) 0.72927(17)
N4_2 N 0.13468(19) 0.4520(3) 0.64882(17)
N5_2 N 0.11519(16) 0.6691(3) 0.73889(16)
N6_2 N 0.04143(17) 0.5961(3) 0.64784(16)
C1_2 C 0.2316(2) 0.4811(3) 0.7877(2)
C2_2 C 0.2901(3) 0.4613(4) 0.8147(3)
C3_2 C 0.3303(2) 0.4984(5) 0.7962(3)
C4_2 C 0.3107(3) 0.5560(4) 0.7504(3)
C5_2 C 0.2518(2) 0.5749(4) 0.7249(2)
C6_2 C 0.2270(2) 0.6391(3) 0.6787(2)
C7_2 C 0.2605(3) 0.6898(4) 0.6577(3)
C8_2 C 0.2336(3) 0.7521(3) 0.6158(3)
C9_2 C 0.1735(3) 0.7586(4) 0.5952(3)
C10_2 C 0.1421(3) 0.7044(4) 0.6176(3)
C11_2 C 0.3942(3) 0.4786(8) 0.8234(3)
C12_2 C 0.2705(3) 0.8146(4) 0.5960(3)
C13_2 C 0.0702(2) 0.4691(3) 0.7676(2)
C14_2 C 0.0533(2) 0.3971(3) 0.79149(19)
C15_2 C 0.06357(19) 0.3107(3) 0.77622(18)
C16_2 C 0.0874(3) 0.3010(3) 0.7362(2)
C17_2 C 0.1030(2) 0.3755(3) 0.7135(2)
C18_2 C 0.1283(2) 0.3712(3) 0.6704(2)
C19_2 C 0.1452(3) 0.2920(3) 0.6518(2)
C20_2 C 0.1678(3) 0.2948(3) 0.6102(3)
C21_2 C 0.1719(3) 0.3771(4) 0.5869(3)
C22_2 C 0.1552(3) 0.4537(4) 0.6075(3)
C23_2 C 0.0492(2) 0.2293(3) 0.80322(19)
C24_2 C 0.1891(3) 0.2103(4) 0.5915(3)
C25_2 C 0.15649(19) 0.7053(3) 0.7842(2)
C26_2 C 0.1487(2) 0.7863(3) 0.8074(2)
C27_2 C 0.09573(19) 0.8307(3) 0.78342(19)
C28_2 C 0.05275(19) 0.7923(3) 0.73691(19)
C29_2 C 0.06329(18) 0.7127(3) 0.71553(18)
C30_2 C 0.01990(18) 0.6670(3) 0.66648(19)
C34_2 C 0.0045(3) 0.5502(4) 0.6036(3)
C35_2 C 0.0833(2) 0.9182(3) 0.80648(19)
H1_2 H 0.2042 0.4552 0.8010
H2_2 H 0.3023 0.4221 0.8459
H3_2 H 0.3377 0.5821 0.7367
H4_2 H 0.3016 0.6825 0.6717
H5_2 H 0.1539 0.7996 0.5662
H6_2 H 0.1008 0.7091 0.6031
H7_2 H 0.0641 0.5273 0.7788
H8_2 H 0.0351 0.4059 0.8176
H9_2 H 0.0932 0.2432 0.7241
H10_2 H 0.1412 0.2365 0.6678
H11_2 H 0.1858 0.3809 0.5573
H12_2 H 0.1585 0.5096 0.5916
H13_2 H 0.1924 0.6747 0.8011
H14_2 H 0.1790 0.8105 0.8390
H15_2 H 0.0161 0.8211 0.7199
H18_2 H 0.0195 0.5017 0.5895
Ru2_2 Ru 0.644365(15) 0.05601(2) 0.704867(17)
O16 O 0.94430(14) 0.0806(3) 0.78750(15)
O17_2 O 0.7955(3) 0.2617(5) 0.5556(3)
O18_2 O 0.7264(3) 0.3662(4) 0.5400(3)
O19_2 O 0.6902(2) 0.4462(3) 0.86851(16)
O21_2 O 0.3923(3) 0.3102(4) 0.5849(3)
O22_2 O 0.35296(19) 0.1812(4) 0.5582(3)
N7_2 N 0.73246(15) 0.0311(3) 0.73758(18)
N8_2 N 0.67247(16) 0.1353(3) 0.65363(18)
N9_2 N 0.64907(16) 0.1704(3) 0.75022(17)
N10_2 N 0.56009(16) 0.0995(3) 0.67129(18)
C39_2 C 0.85398(18) 0.0209(4) 0.7817(2)
C40_2 C 0.82560(19) 0.0761(4) 0.7365(2)
C41_2 C 0.76464(18) 0.0792(3) 0.7148(2)
C42_2 C 0.73097(19) 0.1362(3) 0.6672(2)
C43_2 C 0.7571(3) 0.1857(4) 0.6373(3)
C44_2 C 0.7228(3) 0.2393(4) 0.5934(3)
C45_2 C 0.6631(3) 0.2399(4) 0.5804(3)
C46_2 C 0.6392(3) 0.1865(4) 0.6107(3)
C47_2 C 0.91965(19) 0.0234(4) 0.80716(19)
C48_2 C 0.7515(3) 0.2923(5) 0.5603(3)
C49_2 C 0.6957(2) 0.1990(4) 0.7943(3)
C50_2 C 0.6962(2) 0.2786(4) 0.8206(2)
C51_2 C 0.64697(19) 0.3319(3) 0.80189(18)
C52_2 C 0.5988(2) 0.3051(3) 0.7557(2)
C53_2 C 0.60079(19) 0.2240(3) 0.7309(2)
C54_2 C 0.55100(19) 0.1851(3) 0.6846(2)
C55_2 C 0.4984(2) 0.2296(4) 0.6566(3)
C56_2 C 0.45271(19) 0.1833(4) 0.6170(3)
C57_2 C 0.4604(2) 0.0939(4) 0.6077(3)
C58_2 C 0.5142(2) 0.0538(4) 0.6347(3)
C59_2 C 0.6443(3) 0.4173(4) 0.8323(2)
C60_2 C 0.3956(3) 0.2287(4) 0.5835(3)
H21_2 H 0.8472 0.1115 0.7206
H22_2 H 0.7980 0.1830 0.6470
H23_2 H 0.6385 0.2767 0.5511
H24_2 H 0.5982 0.1862 0.6006
H25_2 H 0.7295 0.1625 0.8076
H26_2 H 0.7298 0.2970 0.8513
H27_2 H 0.5652 0.3419 0.7414
H28_2 H 0.4940 0.2904 0.6644
H29_2 H 0.4288 0.0602 0.5828
H31_2 H 0.6222 0.0458 0.8163
O28_2 O 0.1107(2) 0.9585(4) 0.5390(2)
O30_2 O 0.1879(3) 0.9299(3) 0.45012(19)
O32_2 O 0.1413(2) 0.1381(4) 0.9306(2)
O42_2 O 0.15731(16) 0.2589(3) 0.41976(16)
O43_2 O 0.17500(17) 0.3925(3) 0.45823(19)
O49_2 O 0.3154(3) 0.3164(3) 0.4348(3)
H37_2 H 0.311845 0.412593 0.596318
H38_2 H 0.309271 0.468577 0.54167
H39_2 H 0.93673 0.0273583 0.576454
H41_2 H 0.713953 0.365189 0.498667
H42_2 H 0.164825 0.876706 0.451962
H43_2 H 0.167009 0.962979 0.414946
H50_2 H 0.136811 0.203903 0.928555
H51_2 H 0.151996 0.118322 0.969923
H52_2 H 0.117145 0.941294 0.578043
O15 O 0.94545(15) 0.9721(3) 0.84690(17)
O23_2 O 0.5541(3) 0.7888(4) 0.8832(3)
O25_2 O 0.6306(3) 0.6176(3) 0.60618(19)
O26_2 O 0.6846(3) 0.6836(3) 0.5652(3)
O27_2 O 0.9699(3) 0.9955(6) 0.6047(3)
N11_2 N 0.62282(17) 0.9665(3) 0.75467(18)
N12_2 N 0.63459(17) 0.9396(3) 0.65995(18)
C37_2 C 0.7606(2) 0.9745(4) 0.7796(2)
C38_2 C 0.8215(2) 0.9668(4) 0.8031(2)
C61_2 C 0.6158(3) 0.9863(4) 0.8030(3)
C62_2 C 0.5999(3) 0.9238(4) 0.8336(3)
C63_2 C 0.5915(3) 0.8350(4) 0.8153(3)
C64_2 C 0.5996(2) 0.8143(4) 0.7660(3)
C65_2 C 0.61504(19) 0.8804(4) 0.7366(2)
C66_2 C 0.62582(19) 0.8657(4) 0.6845(2)
C67_2 C 0.6286(3) 0.7813(4) 0.6623(2)
C68_2 C 0.6416(2) 0.7744(4) 0.6143(2)
C69_2 C 0.6471(3) 0.8514(4) 0.5880(3)
C70_2 C 0.6436(3) 0.9343(4) 0.6113(3)
C71_2 C 0.5727(3) 0.7636(5) 0.8465(3)
C72_2 C 0.6524(3) 0.6842(4) 0.5930(3)
H19_2 H 0.7381 0.9380 0.7940
H20_2 H 0.8400 0.9261 0.8327
H30_2 H 0.5191 0.9929 0.6274
H32_2 H 0.5945 0.9406 0.8668
H33_2 H 0.5944 0.7548 0.7524
H34_2 H 0.6218 0.7292 0.6799
H35_2 H 0.6534 0.8485 0.5539
H36_2 H 0.6476 0.9873 0.5930
O33_2 O 0.0723(3) 0.9597(4) 0.9526(2)
Sr5 Sr 0.732712(18) 0.71521(3) 0.499858(19)
H54_2 H 0.108988 0.980221 0.982302
H55_2 H 0.0405702 0.959016 0.967381
O11_2 O 0.84269(16) 0.7411(3) 0.58024(16)
O12_2 O 0.82500(17) 0.6075(3) 0.54177(19)
C31_2 C 0.9618(2) 0.6928(4) 0.64165(19)
C32_2 C 0.92362(19) 0.6429(3) 0.59741(19)
C33_2 C 0.9462(3) 0.5707(4) 0.5782(3)
C36_2 C 0.8591(2) 0.6662(4) 0.5716(2)
H16_2 H 0.9482 0.7440 0.6547
H17_2 H 0.9216 0.5359 0.5478
O34_2 O 0.9910(3) 0.1378(4) 0.9270(2)
H44_2 H 0.950332 0.151561 0.90201
H45_2 H 0.990659 0.0960265 0.956733
Ru2_3 Ru 0.144365(15) 0.44399(2) 0.204867(17)
Sr2 Sr 0.484953(18) 0.44425(3) 0.207970(18)
O15_2 O 0.44545(15) 0.5279(3) 0.34690(17)
O16_2 O 0.44430(14) 0.4194(3) 0.28750(15)
O17_3 O 0.2955(3) 0.2383(5) 0.0556(3)
O18_3 O 0.2264(3) 0.1338(4) 0.0400(3)
O19_3 O 0.1902(2) 0.0538(3) 0.36851(16)
O20_2 O 0.0953(3) 0.0472(4) 0.3179(2)
O23_3 O 0.0541(3) 0.7112(4) 0.3832(3)
O24_2 O 0.0776(3) 0.8164(3) 0.3331(2)
O25_3 O 0.1306(3) 0.8824(3) 0.10618(19)
O27_3 O 0.4699(3) 0.5045(6) 0.1047(3)
N7_3 N 0.23246(15) 0.4689(3) 0.23758(18)
N8_3 N 0.17247(16) 0.3647(3) 0.15363(18)
N9_3 N 0.14907(16) 0.3296(3) 0.25022(17)
N10_3 N 0.06009(16) 0.4005(3) 0.17129(18)
N11_3 N 0.12282(17) 0.5335(3) 0.25467(18)
N12_3 N 0.13459(17) 0.5604(3) 0.15995(18)
C37_3 C 0.2606(2) 0.5255(4) 0.2796(2)
C38_3 C 0.3215(2) 0.5332(4) 0.3031(2)
C39_3 C 0.35398(18) 0.4791(4) 0.2817(2)
C40_3 C 0.32560(19) 0.4239(4) 0.2365(2)
C41_3 C 0.26464(18) 0.4208(3) 0.2148(2)
C42_3 C 0.23097(19) 0.3638(3) 0.1672(2)
C43_3 C 0.2571(3) 0.3143(4) 0.1373(3)
C44_3 C 0.2228(3) 0.2607(4) 0.0934(3)
C45_3 C 0.1631(3) 0.2601(4) 0.0804(3)
C46_3 C 0.1392(3) 0.3135(4) 0.1107(3)
C47_3 C 0.41965(19) 0.4766(4) 0.30716(19)
C48_3 C 0.2515(3) 0.2077(5) 0.0603(3)
C49_3 C 0.1957(2) 0.3010(4) 0.2943(3)
C50_3 C 0.1962(2) 0.2214(4) 0.3206(2)
C51_3 C 0.14697(19) 0.1681(3) 0.30189(18)
C52_3 C 0.0988(2) 0.1949(3) 0.2557(2)
C53_3 C 0.10079(19) 0.2760(3) 0.2309(2)
C54_3 C 0.05100(19) 0.3149(3) 0.1846(2)
C58_3 C 0.0142(2) 0.4462(4) 0.1347(3)
C59_3 C 0.1443(3) 0.0827(4) 0.3323(2)
C61_3 C 0.1158(3) 0.5137(4) 0.3030(3)
C62_3 C 0.0999(3) 0.5762(4) 0.3336(3)
C63_3 C 0.0915(3) 0.6650(4) 0.3153(3)
C64_3 C 0.0996(2) 0.6857(4) 0.2660(3)
C65_3 C 0.11504(19) 0.6196(4) 0.2366(2)
C66_3 C 0.12582(19) 0.6343(4) 0.1845(2)
C67_3 C 0.1286(3) 0.7187(4) 0.1623(2)
C68_3 C 0.1416(2) 0.7256(4) 0.1143(2)
C69_3 C 0.1471(3) 0.6486(4) 0.0880(3)
C70_3 C 0.1436(3) 0.5657(4) 0.1113(3)
C71_3 C 0.0727(3) 0.7364(5) 0.3465(3)
C72_3 C 0.1524(3) 0.8158(4) 0.0930(3)
H19_3 H 0.2381 0.5620 0.2940
H20_3 H 0.3400 0.5739 0.3327
H21_3 H 0.3472 0.3885 0.2206
H22_3 H 0.2980 0.3170 0.1470
H23_3 H 0.1385 0.2233 0.0511
H24_3 H 0.0982 0.3138 0.1006
H25_3 H 0.2295 0.3375 0.3076
H26_3 H 0.2298 0.2030 0.3513
H27_3 H 0.0652 0.1581 0.2414
H30_3 H 0.0191 0.5071 0.1274
H31_3 H 0.1222 0.4542 0.3163
H32_3 H 0.0945 0.5594 0.3668
H33_3 H 0.0944 0.7452 0.2524
H34_3 H 0.1218 0.7708 0.1799
H35_3 H 0.1534 0.6515 0.0539
H36_3 H 0.1476 0.5127 0.0930
O35_2 O 0.5751(3) 0.4914(10) 0.2012(4)
O38_2 O 0.55714(15) 0.3462(3) 0.28427(14)
O40_2 O 0.53103(16) 0.5560(3) 0.28775(15)
Sr9 Sr 0.015047(18) 0.94425(3) 0.292030(18)
O47_2 O 0.4047(3) 0.5472(4) 0.1821(2)
O48_2 O 0.4224(3) 0.3164(3) 0.1669(2)
Sr12_2 Sr 0.545280(17) 0.43480(3) 0.369490(17)
H39_3 H 0.43673 0.472642 0.0764542
H40_3 H 0.505882 0.49358 0.097206
H41_3 H 0.213953 0.134811 0.998667
O2_3 O 0.9133(3) 0.0628(5) 0.3680(2)
O5 O 0.71686(18) 0.2813(3) 0.05877(17)
O6 O 0.6774(3) 0.3631(3) 0.1076(2)
O8_3 O 0.53255(18) 0.2611(3) 0.34291(16)
O13_3 O 0.78784(18) 0.0736(4) 0.0567(2)
N3_3 N 0.59475(17) 0.0396(3) 0.22927(17)
N4_3 N 0.63468(19) 0.0480(3) 0.14882(17)
C1_3 C 0.7316(2) 0.0189(3) 0.2877(2)
C2_3 C 0.7901(3) 0.0387(4) 0.3147(3)
C3_3 C 0.8303(2) 0.0016(5) 0.2962(3)
C11_3 C 0.8942(3) 0.0214(8) 0.3234(3)
C13_3 C 0.5702(2) 0.0309(3) 0.2676(2)
C14_3 C 0.5533(2) 0.1029(3) 0.29149(19)
C15_3 C 0.56357(19) 0.1893(3) 0.27622(18)
C16_3 C 0.5874(3) 0.1990(3) 0.2362(2)
C17_3 C 0.6030(2) 0.1245(3) 0.2135(2)
C18_3 C 0.6283(2) 0.1288(3) 0.1704(2)
C19_3 C 0.6452(3) 0.2080(3) 0.1518(2)
C20_3 C 0.6678(3) 0.2052(3) 0.1102(3)
C21_3 C 0.6719(3) 0.1229(4) 0.0869(3)
C22_3 C 0.6552(3) 0.0463(4) 0.1075(3)
C23_3 C 0.5492(2) 0.2707(3) 0.30322(19)
C24_3 C 0.6891(3) 0.2897(4) 0.0915(3)
H1_3 H 0.7042 0.0448 0.3010
H2_3 H 0.8023 0.0779 0.3459
H8_3 H 0.5351 0.0941 0.3176
H9_3 H 0.5932 0.2568 0.2241
H10_3 H 0.6412 0.2635 0.1678
H11_3 H 0.6858 0.1191 0.0573
O21_3 O 0.8923(3) 0.1898(4) 0.0849(3)
O22_3 O 0.85296(19) 0.3188(4) 0.0582(3)
C55_3 C 0.9984(2) 0.2704(4) 0.1566(3)
C56_3 C 0.95271(19) 0.3167(4) 0.1170(3)
C57_3 C 0.9604(2) 0.4061(4) 0.1077(3)
C60_3 C 0.8956(3) 0.2713(4) 0.0835(3)
H28_3 H 0.9940 0.2096 0.1644
H29_3 H 0.9288 0.4398 0.0828
O32_3 O 0.6413(2) 0.3619(4) 0.4306(2)
O33_3 O 0.5723(3) 0.5403(4) 0.4526(2)
O34_3 O 0.4910(3) 0.3622(4) 0.4270(2)
O39 O 0.62388(16) 0.5412(3) 0.34360(16)
Sr11 Sr 0.70187(2) 0.46558(3) 0.036544(19)
H37_3 H 0.811845 0.0874066 0.0963178
H38_3 H 0.809271 0.0314234 0.0416698
H44_3 H 0.450332 0.348439 0.40201
H45_3 H 0.490659 0.403973 0.456733
H50_3 H 0.636811 0.296097 0.428555
H51_3 H 0.651996 0.381678 0.469923
H54_3 H 0.608988 0.519779 0.482302
H55_3 H 0.54057 0.540984 0.467381
O14 O 0.75012(16) 0.3836(3) 0.97100(15)
Ru1_3 Ru 0.626222(15) 0.93921(2) 0.194236(15)
O1_2 O 0.9249(3) 0.9914(10) 0.2988(4)
O3_3 O 0.82126(18) 0.7090(3) 0.1045(2)
O4_3 O 0.74722(19) 0.6128(3) 0.07544(19)
N1_3 N 0.71205(16) 0.9641(3) 0.24305(17)
N2_3 N 0.66783(17) 0.8543(3) 0.15877(18)
N5_3 N 0.61519(16) 0.8309(3) 0.23889(16)
N6_3 N 0.54143(17) 0.9039(3) 0.14784(16)
C4_3 C 0.8107(3) 0.9440(4) 0.2504(3)
C5_3 C 0.7518(2) 0.9251(4) 0.2249(2)
C6_3 C 0.7270(2) 0.8609(3) 0.1787(2)
C7_3 C 0.7605(3) 0.8102(4) 0.1577(3)
C8_3 C 0.7336(3) 0.7479(3) 0.1158(3)
C9_3 C 0.6735(3) 0.7414(4) 0.0952(3)
C10_3 C 0.6421(3) 0.7956(4) 0.1176(3)
C12_3 C 0.7705(3) 0.6854(4) 0.0960(3)
C25_3 C 0.65649(19) 0.7947(3) 0.2842(2)
C26_3 C 0.6487(2) 0.7137(3) 0.3074(2)
C27_3 C 0.59573(19) 0.6693(3) 0.28342(19)
C28_3 C 0.55275(19) 0.7077(3) 0.23691(19)
C29_3 C 0.56329(18) 0.7873(3) 0.21553(18)
C30_3 C 0.51990(18) 0.8330(3) 0.16648(19)
C31_3 C 0.4618(2) 0.8072(4) 0.14165(19)
C32_3 C 0.42362(19) 0.8571(3) 0.09741(19)
C33_3 C 0.4462(3) 0.9293(4) 0.0782(3)
C34_3 C 0.5045(3) 0.9498(4) 0.1036(3)
C35_3 C 0.5833(2) 0.5818(3) 0.30648(19)
C36_3 C 0.3591(2) 0.8338(4) 0.0716(2)
H3_3 H 0.8377 0.9179 0.2367
H4_3 H 0.8016 0.8175 0.1717
H5_3 H 0.6539 0.7004 0.0662
H6_3 H 0.6008 0.7909 0.1031
H7_3 H 0.5641 0.9727 0.2788
H12_3 H 0.6585 0.9904 0.0916
H13_3 H 0.6924 0.8253 0.3011
H14_3 H 0.6790 0.6895 0.3390
H15_3 H 0.5161 0.6789 0.2199
H16_3 H 0.4482 0.7560 0.1547
H17_3 H 0.4216 0.9641 0.0478
H18_3 H 0.5195 0.9983 0.0895
O28_3 O 0.6107(2) 0.5415(4) 0.0390(2)
O29_3 O 0.8102(3) 0.4480(4) 0.1045(2)
H48_3 H 0.835761 0.482561 0.0900001
H49_3 H 0.821317 0.384091 0.107276
H52_3 H 0.617145 0.558706 0.078043
H53_3 H 0.577217 0.499773 0.0248059
O30_3 O 0.6879(3) 0.5701(3) 0.95012(19)
O31_3 O 0.6181(2) 0.3865(4) 0.9601(2)
H42_3 H 0.664825 0.623294 0.951962
H43_3 H 0.667009 0.537021 0.914946
H46_3 H 0.580457 0.405725 0.961916
H47_3 H 0.622482 0.321051 0.965757
O45_2 O 0.05455(15) 0.0279(3) 0.15310(17)
C31_4 C 0.0382(2) 0.3072(4) 0.35835(19)
C32_4 C 0.07638(19) 0.3571(3) 0.40259(19)
C33_4 C 0.0538(3) 0.4293(4) 0.4218(3)
C36_4 C 0.1409(2) 0.3338(4) 0.4284(2)
H16_4 H 0.0518 0.2560 0.3453
H17_4 H 0.0784 0.4641 0.4522
O34_4 O 0.0090(3) 0.8622(4) 0.0730(2)
O46_2 O 0.05570(14) 0.9194(3) 0.21250(15)
H44_4 H 0.049668 0.848439 0.0979903
H45_4 H 0.00934133 0.903973 0.0432673
O23_4 O 0.4459(3) 0.2112(4) 0.1168(3)
O25_4 O 0.3694(3) 0.3824(3) 0.39382(19)
O27_4 O 0.0301(3) 0.0045(6) 0.3953(3)
N11_4 N 0.37718(17) 0.0335(3) 0.24533(18)
N12_4 N 0.36541(17) 0.0604(3) 0.34005(18)
C37_4 C 0.2394(2) 0.0255(4) 0.2204(2)
C38_4 C 0.1785(2) 0.0332(4) 0.1969(2)
C61_4 C 0.3842(3) 0.0137(4) 0.1970(3)
C62_4 C 0.4001(3) 0.0762(4) 0.1664(3)
C63_4 C 0.4085(3) 0.1650(4) 0.1847(3)
C64_4 C 0.4004(2) 0.1857(4) 0.2340(3)
C65_4 C 0.38496(19) 0.1196(4) 0.2634(2)
C66_4 C 0.37418(19) 0.1343(4) 0.3155(2)
C67_4 C 0.3714(3) 0.2187(4) 0.3377(2)
C68_4 C 0.3584(2) 0.2256(4) 0.3857(2)
C69_4 C 0.3529(3) 0.1486(4) 0.4120(3)
C70_4 C 0.3564(3) 0.0657(4) 0.3887(3)
C71_4 C 0.4273(3) 0.2364(5) 0.1535(3)
C72_4 C 0.3476(3) 0.3158(4) 0.4070(3)
H19_4 H 0.2619 0.0620 0.2060
H20_4 H 0.1600 0.0739 0.1673
H30_4 H 0.4809 0.0071 0.3726
H32_4 H 0.4055 0.0594 0.1332
H33_4 H 0.4056 0.2452 0.2476
H34_4 H 0.3782 0.2708 0.3201
H35_4 H 0.3466 0.1515 0.4461
H36_4 H 0.3524 0.0127 0.4070
O33_4 O 0.9277(3) 0.0403(4) 0.0474(2)
O39_2 O 0.87612(16) 0.0412(3) 0.15640(16)
O41 O 0.96897(16) 0.0560(3) 0.21225(15)
H54_4 H 0.891012 0.0197789 0.0176978
H55_4 H 0.95943 0.0409845 0.0326189
Ru1_4 Ru 0.873778(15) 0.43921(2) 0.305764(15)
O2_4 O 0.5867(3) 0.5628(5) 0.1320(2)
O3_4 O 0.67874(18) 0.2090(3) 0.3955(2)
O4_4 O 0.75278(19) 0.1128(3) 0.42456(19)
O5_2 O 0.78314(18) 0.7813(3) 0.44123(17)
O6_2 O 0.8226(3) 0.8631(3) 0.3924(2)
O7_2 O 0.94286(15) 0.8462(3) 0.21573(14)
O8_4 O 0.96745(18) 0.7611(3) 0.15709(16)
O13_4 O 0.71216(18) 0.5736(4) 0.4433(2)
O14_2 O 0.74988(16) 0.8836(3) 0.52900(15)
N1_4 N 0.78795(16) 0.4641(3) 0.25695(17)
N2_4 N 0.83217(17) 0.3543(3) 0.34123(18)
N3_4 N 0.90525(17) 0.5396(3) 0.27073(17)
N4_4 N 0.86532(19) 0.5480(3) 0.35118(17)
N5_4 N 0.88481(16) 0.3309(3) 0.26111(16)
N6_4 N 0.95857(17) 0.4039(3) 0.35216(16)
C1_4 C 0.7684(2) 0.5189(3) 0.2123(2)
C2_4 C 0.7099(3) 0.5387(4) 0.1853(3)
C3_4 C 0.6697(2) 0.5016(5) 0.2038(3)
C4_4 C 0.6893(3) 0.4440(4) 0.2496(3)
C5_4 C 0.7482(2) 0.4251(4) 0.2751(2)
C6_4 C 0.7730(2) 0.3609(3) 0.3213(2)
C7_4 C 0.7395(3) 0.3102(4) 0.3423(3)
C8_4 C 0.7664(3) 0.2479(3) 0.3842(3)
C9_4 C 0.8265(3) 0.2414(4) 0.4048(3)
C10_4 C 0.8579(3) 0.2956(4) 0.3824(3)
C11_4 C 0.6058(3) 0.5214(8) 0.1766(3)
C12_4 C 0.7295(3) 0.1854(4) 0.4040(3)
C13_4 C 0.9298(2) 0.5309(3) 0.2324(2)
C14_4 C 0.9467(2) 0.6029(3) 0.20851(19)
C15_4 C 0.93643(19) 0.6893(3) 0.22378(18)
C16_4 C 0.9126(3) 0.6990(3) 0.2638(2)
C17_4 C 0.8970(2) 0.6245(3) 0.2865(2)
C18_4 C 0.8717(2) 0.6288(3) 0.3296(2)
C19_4 C 0.8548(3) 0.7080(3) 0.3482(2)
C20_4 C 0.8322(3) 0.7052(3) 0.3898(3)
C21_4 C 0.8281(3) 0.6229(4) 0.4131(3)
C22_4 C 0.8448(3) 0.5463(4) 0.3925(3)
C23_4 C 0.9508(2) 0.7707(3) 0.19678(19)
C24_4 C 0.8109(3) 0.7897(4) 0.4085(3)
C25_4 C 0.84351(19) 0.2947(3) 0.2158(2)
C26_4 C 0.8513(2) 0.2137(3) 0.1926(2)
C27_4 C 0.90427(19) 0.1693(3) 0.21658(19)
C28_4 C 0.94725(19) 0.2077(3) 0.26309(19)
C29_4 C 0.93671(18) 0.2873(3) 0.28447(18)
C30_4 C 0.98010(18) 0.3330(3) 0.33352(19)
C34_4 C 0.9955(3) 0.4498(4) 0.3964(3)
C35_4 C 0.9167(2) 0.0818(3) 0.19352(19)
H1_4 H 0.7958 0.5448 0.1990
H2_4 H 0.6977 0.5779 0.1541
H3_4 H 0.6623 0.4179 0.2633
H4_4 H 0.6984 0.3175 0.3283
H5_4 H 0.8461 0.2004 0.4338
H6_4 H 0.8992 0.2909 0.3969
H7_4 H 0.9359 0.4727 0.2212
H8_4 H 0.9649 0.5941 0.1824
H9_4 H 0.9068 0.7568 0.2759
H10_4 H 0.8588 0.7635 0.3322
H11_4 H 0.8142 0.6191 0.4427
H12_4 H 0.8415 0.4904 0.4084
H13_4 H 0.8076 0.3253 0.1989
H14_4 H 0.8210 0.1895 0.1610
H15_4 H 0.9839 0.1789 0.2801
H18_4 H 0.9805 0.4983 0.4105
Ru2_4 Ru 0.355635(15) 0.94399(2) 0.295133(17)
O17_4 O 0.2045(3) 0.7383(5) 0.4444(3)
O18_4 O 0.2736(3) 0.6338(4) 0.4600(3)
O19_4 O 0.3098(2) 0.5538(3) 0.13149(16)
O21_4 O 0.6077(3) 0.6898(4) 0.4151(3)
O22_4 O 0.64704(19) 0.8188(4) 0.4418(3)
N7_4 N 0.26754(15) 0.9689(3) 0.26242(18)
N8_4 N 0.32753(16) 0.8647(3) 0.34637(18)
N9_4 N 0.35093(16) 0.8296(3) 0.24978(17)
N10_4 N 0.43991(16) 0.9005(3) 0.32871(18)
C39_4 C 0.14602(18) 0.9791(4) 0.2183(2)
C40_4 C 0.17440(19) 0.9239(4) 0.2635(2)
C41_4 C 0.23536(18) 0.9208(3) 0.2852(2)
C42_4 C 0.26903(19) 0.8638(3) 0.3328(2)
C43_4 C 0.2429(3) 0.8143(4) 0.3627(3)
C44_4 C 0.2772(3) 0.7607(4) 0.4066(3)
C45_4 C 0.3369(3) 0.7601(4) 0.4196(3)
C46_4 C 0.3608(3) 0.8135(4) 0.3893(3)
C47_4 C 0.08035(19) 0.9766(4) 0.19284(19)
C48_4 C 0.2485(3) 0.7077(5) 0.4397(3)
C49_4 C 0.3043(2) 0.8010(4) 0.2057(3)
C50_4 C 0.3038(2) 0.7214(4) 0.1794(2)
C51_4 C 0.35303(19) 0.6681(3) 0.19811(18)
C52_4 C 0.4012(2) 0.6949(3) 0.2443(2)
C53_4 C 0.39921(19) 0.7760(3) 0.2691(2)
C54_4 C 0.44900(19) 0.8149(3) 0.3154(2)
C55_4 C 0.5016(2) 0.7704(4) 0.3434(3)
C56_4 C 0.54729(19) 0.8167(4) 0.3830(3)
C57_4 C 0.5396(2) 0.9061(4) 0.3923(3)
C58_4 C 0.4858(2) 0.9462(4) 0.3653(3)
C59_4 C 0.3557(3) 0.5827(4) 0.1677(2)
C60_4 C 0.6044(3) 0.7713(4) 0.4165(3)
H21_4 H 0.1528 0.8885 0.2794
H22_4 H 0.2020 0.8170 0.3530
H23_4 H 0.3615 0.7233 0.4489
H24_4 H 0.4018 0.8138 0.3994
H25_4 H 0.2705 0.8375 0.1924
H26_4 H 0.2702 0.7030 0.1487
H27_4 H 0.4348 0.6581 0.2586
H28_4 H 0.5060 0.7096 0.3356
H29_4 H 0.5712 0.9398 0.4172
H31_4 H 0.3778 0.9542 0.1837
O28_4 O 0.8893(2) 0.0415(4) 0.4610(2)
O30_4 O 0.8121(3) 0.0701(3) 0.54988(19)
Sr4 Sr 0.954720(17) 0.93480(3) 0.130510(17)
O32_4 O 0.8587(2) 0.8619(4) 0.0694(2)
Sr11_2 Sr 0.79813(2) 0.96558(3) 0.463456(19)
H37_4 H 0.688155 0.587407 0.403682
H38_4 H 0.690729 0.531423 0.45833
H39_4 H 0.0632698 0.972642 0.423546
H41_4 H 0.286047 0.634811 0.501333
H42_4 H 0.835175 0.123294 0.548038
H43_4 H 0.832991 0.0370214 0.585054
H50_4 H 0.863189 0.796097 0.0714445
H51_4 H 0.848004 0.881678 0.0300769
H52_4 H 0.882855 0.0587057 0.421957
O29_4 O 0.6898(3) 0.9480(4) 0.3955(2)
O31_4 O 0.8819(2) 0.8865(4) 0.5399(2)
H46_4 H 0.919543 0.905725 0.538084
H47_4 H 0.877518 0.821051 0.534243
H48_4 H 0.664239 0.982561 0.41
H49_4 H 0.678683 0.884091 0.392724
H53_4 H 0.922783 0.999773 0.475194
H40_4 H 0.994118 0.99358 0.402794
loop_
_geom_bond_atom_site_label_1
_geom_bond_atom_site_label_2
_geom_bond_site_symmetry_1
_geom_bond_site_symmetry_2
O30 H42 1_555 1_555
O30 H43 1_555 1_555
O31 H46 1_555 1_555
O31 H47 1_555 1_555
Ru1 N1 1_555 1_555
O3 C12 1_555 1_555
O4 C12 1_555 1_555
O9 C35 1_555 1_555
O10 C35 1_555 1_555
O11 C36 1_555 1_555
O12 C36 1_555 1_555
N2 Ru1 1_555 1_555
N5 Ru1 1_555 1_555
N6 Ru1 1_555 1_555
C4 C5 1_555 1_555
C5 N1 1_555 1_555
C6 N2 1_555 1_555
C7 C6 1_555 1_555
C8 C7 1_555 1_555
C9 C8 1_555 1_555
C10 N2 1_555 1_555
C12 C8 1_555 1_555
C25 N5 1_555 1_555
C26 C25 1_555 1_555
C27 C26 1_555 1_555
C28 C27 1_555 1_555
C29 N5 1_555 1_555
C30 N6 1_555 1_555
C31 C30 1_555 1_555
C32 C31 1_555 1_555
C33 C32 1_555 1_555
C34 N6 1_555 1_555
C35 C27 1_555 1_555
C36 C32 1_555 1_555
H3 C4 1_555 1_555
H4 C7 1_555 1_555
H5 C9 1_555 1_555
H6 C10 1_555 1_555
H13 C25 1_555 1_555
H14 C26 1_555 1_555
H15 C28 1_555 1_555
H16 C31 1_555 1_555
H17 C33 1_555 1_555
H18 C34 1_555 1_555
Sr3 O4 1_555 1_555
O28 Sr3 1_555 1_555
O29 Sr3 1_555 1_555
O36 Sr3 1_555 1_555
O37 Sr3 1_555 1_555
Sr8 O10 1_555 1_555
Sr13 O9 1_555 1_555
O10 Sr13 1_555 1_555
C5 C6 1_555 1_555
C9 C10 1_555 1_555
C28 C29 1_555 1_555
C29 C30 1_555 1_555
C33 C34 1_555 1_555
O29 H48 1_555 1_555
O29 H49 1_555 1_555
O28 H52 1_555 1_555
O28 H53 1_555 1_555
Sr1 O36 1_555 1_555
O2 C11 1_555 1_555
O36 C24 1_555 1_555
O37 C24 1_555 1_555
O7 C23 1_555 1_555
O8 C23 1_555 1_555
O13 Sr1 1_555 1_555
C1 C2 1_555 1_555
C2 C3 1_555 1_555
C11 C3 1_555 1_555
C13 N3 1_555 1_555
C14 C13 1_555 1_555
C15 C14 1_555 1_555
C16 C15 1_555 1_555
C17 N3 1_555 1_555
C18 N4 1_555 1_555
C19 C18 1_555 1_555
C20 C19 1_555 1_555
C21 C20 1_555 1_555
C22 N4 1_555 1_555
C23 C15 1_555 1_555
C24 C20 1_555 1_555
H1 C1 1_555 1_555
H2 C2 1_555 1_555
H8 C14 1_555 1_555
H9 C16 1_555 1_555
H10 C19 1_555 1_555
H11 C21 1_555 1_555
O21 C60 1_555 1_555
O22 Sr1 1_555 1_555
C56 C55 1_555 1_555
C57 C56 1_555 1_555
C60 O22 1_555 1_555
H28 C55 1_555 1_555
H29 C57 1_555 1_555
Sr13 O7 1_555 1_555
O32 Sr13 1_555 1_555
O33 Sr13 1_555 1_555
O34 Sr13 1_555 1_555
Sr8 O7 1_555 1_555
O45 Sr13 1_555 1_555
O46 Sr13 1_555 1_555
O8 Sr13 1_555 1_555
C16 C17 1_555 1_555
C17 C18 1_555 1_555
C21 C22 1_555 1_555
C56 C60 1_555 1_555
Sr8 O46 1_555 1_555
O13 H37 1_555 1_555
O13 H38 1_555 1_555
O34 H44 1_555 1_555
O34 H45 1_555 1_555
O32 H50 1_555 1_555
O32 H51 1_555 1_555
O33 H54 1_555 1_555
O33 H55 1_555 1_555
Ru2 N7 1_555 1_555
O45 C47 1_555 1_555
O46 C47 1_555 1_555
O17 C48 1_555 1_555
O18 C48 1_555 1_555
O19 C59 1_555 1_555
O20 C59 1_555 1_555
O23 C71 1_555 1_555
O24 C71 1_555 1_555
O25 C72 1_555 1_555
O26 C72 1_555 1_555
O27 Sr8 1_555 1_555
N7 C37 1_555 1_555
N8 Ru2 1_555 1_555
N9 Ru2 1_555 1_555
N10 Ru2 1_555 1_555
N11 Ru2 1_555 1_555
N12 Ru2 1_555 1_555
C37 C38 1_555 1_555
C38 C39 1_555 1_555
C39 C40 1_555 1_555
C40 C41 1_555 1_555
C41 N7 1_555 1_555
C42 N8 1_555 1_555
C43 C42 1_555 1_555
C44 C43 1_555 1_555
C45 C44 1_555 1_555
C46 N8 1_555 1_555
C47 C39 1_555 1_555
C48 C44 1_555 1_555
C49 N9 1_555 1_555
C50 C49 1_555 1_555
C51 C50 1_555 1_555
C52 C51 1_555 1_555
C53 N9 1_555 1_555
C54 N10 1_555 1_555
C58 N10 1_555 1_555
C59 C51 1_555 1_555
C61 N11 1_555 1_555
C62 C61 1_555 1_555
C63 C62 1_555 1_555
C64 C63 1_555 1_555
C65 N11 1_555 1_555
C66 N12 1_555 1_555
C67 C66 1_555 1_555
C68 C67 1_555 1_555
C69 C68 1_555 1_555
C70 N12 1_555 1_555
C71 C63 1_555 1_555
C72 C68 1_555 1_555
H19 C37 1_555 1_555
H20 C38 1_555 1_555
H21 C40 1_555 1_555
H22 C43 1_555 1_555
H23 C45 1_555 1_555
H24 C46 1_555 1_555
H25 C49 1_555 1_555
H26 C50 1_555 1_555
H27 C52 1_555 1_555
H30 C58 1_555 1_555
H31 C61 1_555 1_555
H32 C62 1_555 1_555
H33 C64 1_555 1_555
H34 C67 1_555 1_555
H35 C69 1_555 1_555
H36 C70 1_555 1_555
O35 Sr8 1_555 1_555
Sr10 O24 1_555 1_555
O47 Sr8 1_555 1_555
O48 Sr8 1_555 1_555
C41 C42 1_555 1_555
C45 C46 1_555 1_555
C52 C53 1_555 1_555
C53 C54 1_555 1_555
C64 C65 1_555 1_555
C65 C66 1_555 1_555
C69 C70 1_555 1_555
O27 H39 1_555 1_555
O27 H40 1_555 1_555
O38 Sr12 1_555 1_555
O29_2 Sr3_2 1_555 1_555
O31_2 Sr3_2 1_555 1_555
O36_2 Sr3_2 1_555 1_555
O37_2 Sr3_2 1_555 1_555
O44_2 Sr3_2 1_555 1_555
O31_2 H46_2 1_555 1_555
O31_2 H47_2 1_555 1_555
O29_2 H48_2 1_555 1_555
O29_2 H49_2 1_555 1_555
Ru1_2 N1_2 1_555 1_555
Sr1_2 O36_2 1_555 1_555
O35 C11_2 1_555 1_555
O2_2 C11_2 1_555 1_555
O3_2 C12_2 1_555 1_555
O4_2 C12_2 1_555 1_555
O36_2 C24_2 1_555 1_555
O37_2 C24_2 1_555 1_555
O38 C23_2 1_555 1_555
O8_2 C23_2 1_555 1_555
O9_2 C35_2 1_555 1_555
O40 C35_2 1_555 1_555
O13_2 Sr1_2 1_555 1_555
O44_2 Sr1_2 1_555 1_555
N1_2 C1_2 1_555 1_555
N2_2 Ru1_2 1_555 1_555
N3_2 Ru1_2 1_555 1_555
N4_2 Ru1_2 1_555 1_555
N5_2 Ru1_2 1_555 1_555
N6_2 Ru1_2 1_555 1_555
C1_2 C2_2 1_555 1_555
C2_2 C3_2 1_555 1_555
C3_2 C4_2 1_555 1_555
C4_2 C5_2 1_555 1_555
C5_2 N1_2 1_555 1_555
C6_2 N2_2 1_555 1_555
C7_2 C6_2 1_555 1_555
C8_2 C7_2 1_555 1_555
C9_2 C8_2 1_555 1_555
C10_2 N2_2 1_555 1_555
C11_2 C3_2 1_555 1_555
C12_2 C8_2 1_555 1_555
C13_2 N3_2 1_555 1_555
C14_2 C13_2 1_555 1_555
C15_2 C14_2 1_555 1_555
C16_2 C15_2 1_555 1_555
C17_2 N3_2 1_555 1_555
C18_2 N4_2 1_555 1_555
C19_2 C18_2 1_555 1_555
C20_2 C19_2 1_555 1_555
C21_2 C20_2 1_555 1_555
C22_2 N4_2 1_555 1_555
C23_2 C15_2 1_555 1_555
C24_2 C20_2 1_555 1_555
C25_2 N5_2 1_555 1_555
C26_2 C25_2 1_555 1_555
C27_2 C26_2 1_555 1_555
C28_2 C27_2 1_555 1_555
C29_2 N5_2 1_555 1_555
C30_2 N6_2 1_555 1_555
C34_2 N6_2 1_555 1_555
C35_2 C27_2 1_555 1_555
H1_2 C1_2 1_555 1_555
H2_2 C2_2 1_555 1_555
H3_2 C4_2 1_555 1_555
H4_2 C7_2 1_555 1_555
H5_2 C9_2 1_555 1_555
H6_2 C10_2 1_555 1_555
H7_2 C13_2 1_555 1_555
H8_2 C14_2 1_555 1_555
H9_2 C16_2 1_555 1_555
H10_2 C19_2 1_555 1_555
H11_2 C21_2 1_555 1_555
H12_2 C22_2 1_555 1_555
H13_2 C25_2 1_555 1_555
H14_2 C26_2 1_555 1_555
H15_2 C28_2 1_555 1_555
H18_2 C34_2 1_555 1_555
Ru2_2 N7_2 1_555 1_555
Sr10 O16 1_555 1_555
O16 C47_2 1_555 1_555
O17_2 C48_2 1_555 1_555
O18_2 C48_2 1_555 1_555
O19_2 C59_2 1_555 1_555
O47 C59_2 1_555 1_555
O21_2 C60_2 1_555 1_555
O22_2 Sr1_2 1_555 1_555
N8_2 Ru2_2 1_555 1_555
N9_2 Ru2_2 1_555 1_555
N10_2 Ru2_2 1_555 1_555
C39_2 C40_2 1_555 1_555
C40_2 C41_2 1_555 1_555
C41_2 N7_2 1_555 1_555
C42_2 N8_2 1_555 1_555
C43_2 C42_2 1_555 1_555
C44_2 C43_2 1_555 1_555
C45_2 C44_2 1_555 1_555
C46_2 N8_2 1_555 1_555
C47_2 C39_2 1_555 1_555
C48_2 C44_2 1_555 1_555
C49_2 N9_2 1_555 1_555
C50_2 C49_2 1_555 1_555
C51_2 C50_2 1_555 1_555
C52_2 C51_2 1_555 1_555
C53_2 N9_2 1_555 1_555
C54_2 N10_2 1_555 1_555
C55_2 C54_2 1_555 1_555
C56_2 C55_2 1_555 1_555
C57_2 C56_2 1_555 1_555
C58_2 N10_2 1_555 1_555
C59_2 C51_2 1_555 1_555
C60_2 O22_2 1_555 1_555
H21_2 C40_2 1_555 1_555
H22_2 C43_2 1_555 1_555
H23_2 C45_2 1_555 1_555
H24_2 C46_2 1_555 1_555
H25_2 C49_2 1_555 1_555
H26_2 C50_2 1_555 1_555
H27_2 C52_2 1_555 1_555
H28_2 C55_2 1_555 1_555
H29_2 C57_2 1_555 1_555
O32_2 Sr12 1_555 1_555
O42_2 Sr1_2 1_555 1_555
O43_2 Sr1_2 1_555 1_555
O49_2 Sr1_2 1_555 1_555
O8_2 Sr12 1_555 1_555
C5_2 C6_2 1_555 1_555
C9_2 C10_2 1_555 1_555
C16_2 C17_2 1_555 1_555
C17_2 C18_2 1_555 1_555
C21_2 C22_2 1_555 1_555
C28_2 C29_2 1_555 1_555
C29_2 C30_2 1_555 1_555
C41_2 C42_2 1_555 1_555
C45_2 C46_2 1_555 1_555
C52_2 C53_2 1_555 1_555
C53_2 C54_2 1_555 1_555
C56_2 C60_2 1_555 1_555
C57_2 C58_2 1_555 1_555
O13_2 H37_2 1_555 1_555
O13_2 H38_2 1_555 1_555
O18_2 H41_2 1_555 1_555
O30_2 H42_2 1_555 1_555
O30_2 H43_2 1_555 1_555
O32_2 H50_2 1_555 1_555
O32_2 H51_2 1_555 1_555
O28_2 H52_2 1_555 1_555
O23_2 C71_2 1_555 1_555
O48 C71_2 1_555 1_555
O25_2 C72_2 1_555 1_555
O26_2 C72_2 1_555 1_555
C37_2 C38_2 1_555 1_555
C61_2 N11_2 1_555 1_555
C62_2 C61_2 1_555 1_555
C63_2 C62_2 1_555 1_555
C64_2 C63_2 1_555 1_555
C65_2 N11_2 1_555 1_555
C66_2 N12_2 1_555 1_555
C67_2 C66_2 1_555 1_555
C68_2 C67_2 1_555 1_555
C69_2 C68_2 1_555 1_555
C70_2 N12_2 1_555 1_555
C71_2 C63_2 1_555 1_555
C72_2 C68_2 1_555 1_555
H19_2 C37_2 1_555 1_555
H20_2 C38_2 1_555 1_555
H32_2 C62_2 1_555 1_555
H33_2 C64_2 1_555 1_555
H34_2 C67_2 1_555 1_555
H35_2 C69_2 1_555 1_555
H36_2 C70_2 1_555 1_555
Sr5 O26_2 1_555 1_555
C64_2 C65_2 1_555 1_555
C65_2 C66_2 1_555 1_555
C69_2 C70_2 1_555 1_555
O33_2 H54_2 1_555 1_555
O33_2 H55_2 1_555 1_555
O11_2 C36_2 1_555 1_555
O12_2 C36_2 1_555 1_555
C32_2 C31_2 1_555 1_555
C33_2 C32_2 1_555 1_555
C36_2 C32_2 1_555 1_555
H16_2 C31_2 1_555 1_555
H17_2 C33_2 1_555 1_555
Sr5 O11_2 1_555 1_555
O12_2 Sr5 1_555 1_555
O34_2 H44_2 1_555 1_555
O34_2 H45_2 1_555 1_555
Ru2_3 N7_3 1_555 1_555
Sr2 O16_2 1_555 1_555
O15_2 C47_3 1_555 1_555
O16_2 C47_3 1_555 1_555
O17_3 C48_3 1_555 1_555
O18_3 C48_3 1_555 1_555
O19_3 C59_3 1_555 1_555
O20_2 C59_3 1_555 1_555
O23_3 C71_3 1_555 1_555
O24_2 C71_3 1_555 1_555
O25_3 C72_3 1_555 1_555
O49 C72_3 1_555 1_555
O27_3 Sr2 1_555 1_555
N7_3 C37_3 1_555 1_555
N8_3 Ru2_3 1_555 1_555
N9_3 Ru2_3 1_555 1_555
N10_3 Ru2_3 1_555 1_555
N11_3 Ru2_3 1_555 1_555
N12_3 Ru2_3 1_555 1_555
C37_3 C38_3 1_555 1_555
C38_3 C39_3 1_555 1_555
C39_3 C40_3 1_555 1_555
C40_3 C41_3 1_555 1_555
C41_3 N7_3 1_555 1_555
C42_3 N8_3 1_555 1_555
C43_3 C42_3 1_555 1_555
C44_3 C43_3 1_555 1_555
C45_3 C44_3 1_555 1_555
C46_3 N8_3 1_555 1_555
C47_3 C39_3 1_555 1_555
C48_3 C44_3 1_555 1_555
C49_3 N9_3 1_555 1_555
C50_3 C49_3 1_555 1_555
C51_3 C50_3 1_555 1_555
C52_3 C51_3 1_555 1_555
C53_3 N9_3 1_555 1_555
C54_3 N10_3 1_555 1_555
C58_3 N10_3 1_555 1_555
C59_3 C51_3 1_555 1_555
C61_3 N11_3 1_555 1_555
C62_3 C61_3 1_555 1_555
C63_3 C62_3 1_555 1_555
C64_3 C63_3 1_555 1_555
C65_3 N11_3 1_555 1_555
C66_3 N12_3 1_555 1_555
C67_3 C66_3 1_555 1_555
C68_3 C67_3 1_555 1_555
C69_3 C68_3 1_555 1_555
C70_3 N12_3 1_555 1_555
C71_3 C63_3 1_555 1_555
C72_3 C68_3 1_555 1_555
H19_3 C37_3 1_555 1_555
H20_3 C38_3 1_555 1_555
H21_3 C40_3 1_555 1_555
H22_3 C43_3 1_555 1_555
H23_3 C45_3 1_555 1_555
H24_3 C46_3 1_555 1_555
H25_3 C49_3 1_555 1_555
H26_3 C50_3 1_555 1_555
H27_3 C52_3 1_555 1_555
H30_3 C58_3 1_555 1_555
H31_3 C61_3 1_555 1_555
H32_3 C62_3 1_555 1_555
H33_3 C64_3 1_555 1_555
H34_3 C67_3 1_555 1_555
H35_3 C69_3 1_555 1_555
H36_3 C70_3 1_555 1_555
O35_2 Sr2 1_555 1_555
O38_2 Sr2 1_555 1_555
O40_2 Sr2 1_555 1_555
Sr9 O24_2 1_555 1_555
O47_2 Sr2 1_555 1_555
O48_2 Sr2 1_555 1_555
Sr12_2 O15_2 1_555 1_555
O16_2 Sr12_2 1_555 1_555
C41_3 C42_3 1_555 1_555
C45_3 C46_3 1_555 1_555
C52_3 C53_3 1_555 1_555
C53_3 C54_3 1_555 1_555
C64_3 C65_3 1_555 1_555
C65_3 C66_3 1_555 1_555
C69_3 C70_3 1_555 1_555
O38_2 Sr12_2 1_555 1_555
O40_2 Sr12_2 1_555 1_555
O27_3 H39_3 1_555 1_555
O27_3 H40_3 1_555 1_555
Sr6 O5 1_555 1_555
O2_3 C11_3 1_555 1_555
O5 C24_3 1_555 1_555
O6 C24_3 1_555 1_555
O38_2 C23_3 1_555 1_555
O8_3 C23_3 1_555 1_555
O13_3 Sr6 1_555 1_555
C1_3 C2_3 1_555 1_555
C2_3 C3_3 1_555 1_555
C11_3 C3_3 1_555 1_555
C13_3 N3_3 1_555 1_555
C14_3 C13_3 1_555 1_555
C15_3 C14_3 1_555 1_555
C16_3 C15_3 1_555 1_555
C17_3 N3_3 1_555 1_555
C18_3 N4_3 1_555 1_555
C19_3 C18_3 1_555 1_555
C20_3 C19_3 1_555 1_555
C21_3 C20_3 1_555 1_555
C22_3 N4_3 1_555 1_555
C23_3 C15_3 1_555 1_555
C24_3 C20_3 1_555 1_555
H1_3 C1_3 1_555 1_555
H2_3 C2_3 1_555 1_555
H8_3 C14_3 1_555 1_555
H9_3 C16_3 1_555 1_555
H10_3 C19_3 1_555 1_555
H11_3 C21_3 1_555 1_555
O21_3 C60_3 1_555 1_555
O22_3 Sr6 1_555 1_555
C56_3 C55_3 1_555 1_555
C57_3 C56_3 1_555 1_555
C60_3 O22_3 1_555 1_555
H28_3 C55_3 1_555 1_555
H29_3 C57_3 1_555 1_555
O32_3 Sr12_2 1_555 1_555
O33_3 Sr12_2 1_555 1_555
O34_3 Sr12_2 1_555 1_555
O39 Sr12_2 1_555 1_555
Sr11 O5 1_555 1_555
O6 Sr11 1_555 1_555
O8_3 Sr12_2 1_555 1_555
C16_3 C17_3 1_555 1_555
C17_3 C18_3 1_555 1_555
C21_3 C22_3 1_555 1_555
C56_3 C60_3 1_555 1_555
O13_3 H37_3 1_555 1_555
O13_3 H38_3 1_555 1_555
O34_3 H44_3 1_555 1_555
O34_3 H45_3 1_555 1_555
O32_3 H50_3 1_555 1_555
O32_3 H51_3 1_555 1_555
O33_3 H54_3 1_555 1_555
O33_3 H55_3 1_555 1_555
Ru1_3 N1_3 1_555 1_555
O3_3 C12_3 1_555 1_555
O4_3 C12_3 1_555 1_555
O39 C35_3 1_555 1_555
O40_2 C35_3 1_555 1_555
O42 C36_3 1_555 1_555
O43 C36_3 1_555 1_555
N2_3 Ru1_3 1_555 1_555
N5_3 Ru1_3 1_555 1_555
N6_3 Ru1_3 1_555 1_555
C4_3 C5_3 1_555 1_555
C5_3 N1_3 1_555 1_555
C6_3 N2_3 1_555 1_555
C7_3 C6_3 1_555 1_555
C8_3 C7_3 1_555 1_555
C9_3 C8_3 1_555 1_555
C10_3 N2_3 1_555 1_555
C12_3 C8_3 1_555 1_555
C25_3 N5_3 1_555 1_555
C26_3 C25_3 1_555 1_555
C27_3 C26_3 1_555 1_555
C28_3 C27_3 1_555 1_555
C29_3 N5_3 1_555 1_555
C30_3 N6_3 1_555 1_555
C31_3 C30_3 1_555 1_555
C32_3 C31_3 1_555 1_555
C33_3 C32_3 1_555 1_555
C34_3 N6_3 1_555 1_555
C35_3 C27_3 1_555 1_555
C36_3 C32_3 1_555 1_555
H3_3 C4_3 1_555 1_555
H4_3 C7_3 1_555 1_555
H5_3 C9_3 1_555 1_555
H6_3 C10_3 1_555 1_555
H13_3 C25_3 1_555 1_555
H14_3 C26_3 1_555 1_555
H15_3 C28_3 1_555 1_555
H16_3 C31_3 1_555 1_555
H17_3 C33_3 1_555 1_555
H18_3 C34_3 1_555 1_555
Sr11 O4_3 1_555 1_555
O28_3 Sr11 1_555 1_555
O29_3 Sr11 1_555 1_555
C5_3 C6_3 1_555 1_555
C9_3 C10_3 1_555 1_555
C28_3 C29_3 1_555 1_555
C29_3 C30_3 1_555 1_555
C33_3 C34_3 1_555 1_555
O29_3 H48_3 1_555 1_555
O29_3 H49_3 1_555 1_555
O28_3 H52_3 1_555 1_555
O28_3 H53_3 1_555 1_555
O30_3 H42_3 1_555 1_555
O30_3 H43_3 1_555 1_555
O31_3 H46_3 1_555 1_555
O31_3 H47_3 1_555 1_555
O42_2 C36_4 1_555 1_555
O43_2 C36_4 1_555 1_555
C32_4 C31_4 1_555 1_555
C33_4 C32_4 1_555 1_555
C36_4 C32_4 1_555 1_555
H16_4 C31_4 1_555 1_555
H17_4 C33_4 1_555 1_555
Sr9 O46_2 1_555 1_555
O34_4 H44_4 1_555 1_555
O34_4 H45_4 1_555 1_555
O23_4 C71_4 1_555 1_555
O48_2 C71_4 1_555 1_555
O25_4 C72_4 1_555 1_555
O49_2 C72_4 1_555 1_555
C37_4 C38_4 1_555 1_555
C61_4 N11_4 1_555 1_555
C62_4 C61_4 1_555 1_555
C63_4 C62_4 1_555 1_555
C64_4 C63_4 1_555 1_555
C65_4 N11_4 1_555 1_555
C66_4 N12_4 1_555 1_555
C67_4 C66_4 1_555 1_555
C68_4 C67_4 1_555 1_555
C69_4 C68_4 1_555 1_555
C70_4 N12_4 1_555 1_555
C71_4 C63_4 1_555 1_555
C72_4 C68_4 1_555 1_555
H19_4 C37_4 1_555 1_555
H20_4 C38_4 1_555 1_555
H32_4 C62_4 1_555 1_555
H33_4 C64_4 1_555 1_555
H34_4 C67_4 1_555 1_555
H35_4 C69_4 1_555 1_555
H36_4 C70_4 1_555 1_555
C64_4 C65_4 1_555 1_555
C65_4 C66_4 1_555 1_555
C69_4 C70_4 1_555 1_555
O33_4 H54_4 1_555 1_555
O33_4 H55_4 1_555 1_555
Ru1_4 N1_4 1_555 1_555
Sr5 O5_2 1_555 1_555
O35_2 C11_4 1_555 1_555
O2_4 C11_4 1_555 1_555
O3_4 C12_4 1_555 1_555
O4_4 C12_4 1_555 1_555
O5_2 C24_4 1_555 1_555
O6_2 C24_4 1_555 1_555
O7_2 C23_4 1_555 1_555
O8_4 C23_4 1_555 1_555
O39_2 C35_4 1_555 1_555
O41 C35_4 1_555 1_555
O13_4 Sr5 1_555 1_555
O14_2 Sr5 1_555 1_555
N1_4 C1_4 1_555 1_555
N2_4 Ru1_4 1_555 1_555
N3_4 Ru1_4 1_555 1_555
N4_4 Ru1_4 1_555 1_555
N5_4 Ru1_4 1_555 1_555
N6_4 Ru1_4 1_555 1_555
C1_4 C2_4 1_555 1_555
C2_4 C3_4 1_555 1_555
C3_4 C4_4 1_555 1_555
C4_4 C5_4 1_555 1_555
C5_4 N1_4 1_555 1_555
C6_4 N2_4 1_555 1_555
C7_4 C6_4 1_555 1_555
C8_4 C7_4 1_555 1_555
C9_4 C8_4 1_555 1_555
C10_4 N2_4 1_555 1_555
C11_4 C3_4 1_555 1_555
C12_4 C8_4 1_555 1_555
C13_4 N3_4 1_555 1_555
C14_4 C13_4 1_555 1_555
C15_4 C14_4 1_555 1_555
C16_4 C15_4 1_555 1_555
C17_4 N3_4 1_555 1_555
C18_4 N4_4 1_555 1_555
C19_4 C18_4 1_555 1_555
C20_4 C19_4 1_555 1_555
C21_4 C20_4 1_555 1_555
C22_4 N4_4 1_555 1_555
C23_4 C15_4 1_555 1_555
C24_4 C20_4 1_555 1_555
C25_4 N5_4 1_555 1_555
C26_4 C25_4 1_555 1_555
C27_4 C26_4 1_555 1_555
C28_4 C27_4 1_555 1_555
C29_4 N5_4 1_555 1_555
C30_4 N6_4 1_555 1_555
C34_4 N6_4 1_555 1_555
C35_4 C27_4 1_555 1_555
H1_4 C1_4 1_555 1_555
H2_4 C2_4 1_555 1_555
H3_4 C4_4 1_555 1_555
H4_4 C7_4 1_555 1_555
H5_4 C9_4 1_555 1_555
H6_4 C10_4 1_555 1_555
H7_4 C13_4 1_555 1_555
H8_4 C14_4 1_555 1_555
H9_4 C16_4 1_555 1_555
H10_4 C19_4 1_555 1_555
H11_4 C21_4 1_555 1_555
H12_4 C22_4 1_555 1_555
H13_4 C25_4 1_555 1_555
H14_4 C26_4 1_555 1_555
H15_4 C28_4 1_555 1_555
H18_4 C34_4 1_555 1_555
Ru2_4 N7_4 1_555 1_555
O46_2 C47_4 1_555 1_555
O17_4 C48_4 1_555 1_555
O18_4 C48_4 1_555 1_555
O19_4 C59_4 1_555 1_555
O47_2 C59_4 1_555 1_555
O21_4 C60_4 1_555 1_555
O22_4 Sr5 1_555 1_555
N8_4 Ru2_4 1_555 1_555
N9_4 Ru2_4 1_555 1_555
N10_4 Ru2_4 1_555 1_555
C39_4 C40_4 1_555 1_555
C40_4 C41_4 1_555 1_555
C41_4 N7_4 1_555 1_555
C42_4 N8_4 1_555 1_555
C43_4 C42_4 1_555 1_555
C44_4 C43_4 1_555 1_555
C45_4 C44_4 1_555 1_555
C46_4 N8_4 1_555 1_555
C47_4 C39_4 1_555 1_555
C48_4 C44_4 1_555 1_555
C49_4 N9_4 1_555 1_555
C50_4 C49_4 1_555 1_555
C51_4 C50_4 1_555 1_555
C52_4 C51_4 1_555 1_555
C53_4 N9_4 1_555 1_555
C54_4 N10_4 1_555 1_555
C55_4 C54_4 1_555 1_555
C56_4 C55_4 1_555 1_555
C57_4 C56_4 1_555 1_555
C58_4 N10_4 1_555 1_555
C59_4 C51_4 1_555 1_555
C60_4 O22_4 1_555 1_555
H21_4 C40_4 1_555 1_555
H22_4 C43_4 1_555 1_555
H23_4 C45_4 1_555 1_555
H24_4 C46_4 1_555 1_555
H25_4 C49_4 1_555 1_555
H26_4 C50_4 1_555 1_555
H27_4 C52_4 1_555 1_555
H28_4 C55_4 1_555 1_555
H29_4 C57_4 1_555 1_555
Sr4 O7_2 1_555 1_555
O32_4 Sr4 1_555 1_555
Sr11_2 O5_2 1_555 1_555
O6_2 Sr11_2 1_555 1_555
O8_4 Sr4 1_555 1_555
O14_2 Sr11_2 1_555 1_555
C5_4 C6_4 1_555 1_555
C9_4 C10_4 1_555 1_555
C16_4 C17_4 1_555 1_555
C17_4 C18_4 1_555 1_555
C21_4 C22_4 1_555 1_555
C28_4 C29_4 1_555 1_555
C29_4 C30_4 1_555 1_555
C41_4 C42_4 1_555 1_555
C45_4 C46_4 1_555 1_555
C52_4 C53_4 1_555 1_555
C53_4 C54_4 1_555 1_555
C56_4 C60_4 1_555 1_555
C57_4 C58_4 1_555 1_555
O13_4 H37_4 1_555 1_555
O13_4 H38_4 1_555 1_555
O18_4 H41_4 1_555 1_555
O30_4 H42_4 1_555 1_555
O30_4 H43_4 1_555 1_555
O32_4 H50_4 1_555 1_555
O32_4 H51_4 1_555 1_555
O28_4 H52_4 1_555 1_555
O29_4 Sr11_2 1_555 1_555
O31_4 Sr11_2 1_555 1_555
O31_4 H46_4 1_555 1_555
O31_4 H47_4 1_555 1_555
O29_4 H48_4 1_555 1_555
O29_4 H49_4 1_555 1_555

#END
