
###############################################################################
#
# This file contains modified crystal structure data generated from the
# MOF subset of the Cambridge Structural Database (CSD) v543 
# hosted by the Cambridge Crystallographic Data Centre (CCDC).
#
# This work is licensed under the Creative Commons
# Attribution-NonCommercial-ShareAlike 4.0 International License.
# To view a copy of this license, visit
# http://creativecommons.org/licenses/by-nc-sa/4.0/
# or send a letter to
# Creative Commons, PO Box 1866, Mountain View, CA 94042, USA.
#
# CIF created using the CSD Python API on 29 September 2022
# The structure has been converted into the P1 space group
# The structure has a 3D framework
# The original CSD entry QIWPET is in the triclinic crystal system
# The framework has been calculated to contain at least 10.0% void space
# The void calculation uses a probe of radius 1.32A, grid spacing 0.4
#
###############################################################################

data_QIWPET
_chemical_formula_moiety         '(C20 H14 Mg5 O19)n'
_symmetry_cell_setting           triclinic
_symmetry_space_group_name_H-M   'P 1'
_symmetry_Int_Tables_number      1
_space_group_name_Hall           'P 1'
loop_
_symmetry_equiv_pos_site_id
_symmetry_equiv_pos_as_xyz
1 x,y,z
_cell_length_a                   7.3742(3)
_cell_length_b                   11.4011(6)
_cell_length_c                   11.6706(6)
_cell_angle_alpha                89.666(4)
_cell_angle_beta                 76.813(4)
_cell_angle_gamma                74.971(4)
_cell_volume                     921.159
loop_
_atom_site_label
_atom_site_type_symbol
_atom_site_fract_x
_atom_site_fract_y
_atom_site_fract_z
Mg3 Mg 0.0000 -0.0000 0.5000
C8 C 0.1640(3) 0.0248(2) 0.01798(17)
H7 H 0.2749 0.0419 0.0303
O23 O 0.0025(2) 0.17899(12) 0.51094(13)
O7 O 0.3221(2) 0.16767(14) 0.83765(12)
O8 O 0.36635(19) 0.00991(13) 0.71957(12)
C9 C 0.1288(3) 0.03399(19) 0.90564(17)
C10 C 0.2784(3) 0.07364(18) 0.81431(17)
Mg7 Mg 0.54122(9) 0.14697(6) 0.67436(6)
Mg3_2 Mg 0.0000 1.0000 0.5000
O6 O 0.2742(2) 0.92782(16) 0.22082(13)
C6 C 0.1006(3) 0.97862(18) 0.22770(17)
C7 C 0.0387(3) 0.99074(19) 0.11257(17)
Mg9 Mg 0.45878(9) 0.85303(6) 0.32564(6)
O28 O 0.02202(19) 0.97838(13) 0.67812(11)
O36 O 0.29893(18) 0.94891(12) 0.47619(11)
Mg12 Mg 0.31249(9) 0.86803(6) 0.63601(6)
Mg2 Mg 0.68751(9) 0.13197(6) 0.36399(6)
Mg3_3 Mg 1.0000 -0.0000 0.5000
O1 O 0.3264(2) 0.25246(14) 0.60626(13)
O2 O 0.3971(2) 0.22060(14) 0.41132(13)
O5 O 0.97798(19) 0.02162(13) 0.32188(11)
O9 O 0.70107(18) 0.05109(12) 0.52381(11)
O10 O 0.6121(3) 0.30367(17) 0.70135(18)
H2 H 0.532(3) 0.3695(15) 0.706(3)
H3 H 0.711(3) 0.306(2) 0.722(3)
O11 O 0.7100(3) 0.22386(16) 0.20684(16)
H4 H 0.668(4) 0.208(2) 0.1513(19)
H5 H 0.708(4) 0.2948(12) 0.218(2)
C1 C 0.2984(3) 0.27715(18) 0.50623(18)
C2 C 0.1395(3) 0.39039(18) 0.50154(17)
C3 C 0.1786(3) 0.50135(18) 0.51597(18)
H6 H 0.2993 0.5023 0.5268
O15 O 0.2260(2) 0.72651(13) 0.58020(14)
C14 C 0.0421(3) 0.61106(18) 0.51471(17)
C15 C 0.0928(3) 0.72899(18) 0.52881(18)
O25 O 0.7740(2) 0.27349(13) 0.41980(14)
O30 O 0.7258(2) 0.07218(16) 0.77918(13)
C16 C 0.8994(3) 0.02138(18) 0.77230(17)
C17 C 0.9613(3) 0.00926(19) 0.88743(17)
Mg3_4 Mg 1.0000 1.0000 0.5000
H1 H 0.6599 0.9763 0.5208
O18 O 0.6779(2) 0.83233(14) 0.16235(12)
O19 O 0.63365(19) 0.99009(13) 0.28043(12)
C19 C 0.8712(3) 0.96601(19) 0.09436(17)
C20 C 0.7216(3) 0.92636(18) 0.18569(17)
O24 O 0.9975(2) 0.82101(12) 0.48906(13)
C18 C 0.8360(3) 0.9752(2) 0.98202(17)
H9 H 0.7251 0.9581 0.9697
H10 H 0.3401 0.0237 0.4792
C4 C 0.9579(3) 0.38894(18) 0.48529(17)
C5 C 0.9072(3) 0.27101(18) 0.47119(18)
O12 O 0.6736(2) 0.74754(14) 0.39374(13)
O13 O 0.6029(2) 0.77940(14) 0.58868(13)
C11 C 0.7016(3) 0.72285(18) 0.49377(18)
C12 C 0.8605(3) 0.60961(18) 0.49846(17)
C13 C 0.8214(3) 0.49865(18) 0.48403(18)
H8 H 0.7007 0.4977 0.4732
O21 O 0.3879(3) 0.69633(17) 0.29865(18)
H11 H 0.468(3) 0.6305(15) 0.294(3)
H12 H 0.289(3) 0.694(2) 0.278(3)
O22 O 0.2900(3) 0.77614(16) 0.79316(16)
H13 H 0.332(4) 0.792(2) 0.8487(19)
H14 H 0.292(4) 0.7052(12) 0.782(2)
loop_
_geom_bond_atom_site_label_1
_geom_bond_atom_site_label_2
_geom_bond_site_symmetry_1
_geom_bond_site_symmetry_2
H7 C8 1_555 1_555
O23 Mg3 1_555 1_555
O7 C10 1_555 1_555
O8 C10 1_555 1_555
C10 C9 1_555 1_555
Mg7 O7 1_555 1_555
O8 Mg7 1_555 1_555
O6 C6 1_555 1_555
C7 C6 1_555 1_555
Mg9 O6 1_555 1_555
O28 Mg3_2 1_555 1_555
O36 Mg3_2 1_555 1_555
Mg9 O36 1_555 1_555
O28 Mg12 1_555 1_555
Mg7 O1 1_555 1_555
Mg2 O2 1_555 1_555
Mg3_3 O5 1_555 1_555
O1 C1 1_555 1_555
O2 C1 1_555 1_555
O5 Mg2 1_555 1_555
O9 Mg7 1_555 1_555
O10 Mg7 1_555 1_555
H2 O10 1_555 1_555
H3 O10 1_555 1_555
O11 Mg2 1_555 1_555
H4 O11 1_555 1_555
H5 O11 1_555 1_555
C1 C2 1_555 1_555
C2 C3 1_555 1_555
C3 H6 1_555 1_555
O15 C15 1_555 1_555
C14 C3 1_555 1_555
C15 C14 1_555 1_555
Mg12 O15 1_555 1_555
O25 Mg2 1_555 1_555
O30 Mg7 1_555 1_555
Mg2 O9 1_555 1_555
Mg3_3 O9 1_555 1_555
O30 C16 1_555 1_555
C16 C17 1_555 1_555
O18 C20 1_555 1_555
C20 O19 1_555 1_555
Mg9 O18 1_555 1_555
O24 Mg3_4 1_555 1_555
O19 Mg9 1_555 1_555
C19 C20 1_555 1_555
H9 C18 1_555 1_555
O25 C5 1_555 1_555
C5 C4 1_555 1_555
O12 C11 1_555 1_555
O13 C11 1_555 1_555
C11 C12 1_555 1_555
C12 C13 1_555 1_555
C13 C4 1_555 1_555
H8 C13 1_555 1_555
Mg9 O12 1_555 1_555
Mg12 O13 1_555 1_555
O21 Mg9 1_555 1_555
H11 O21 1_555 1_555
H12 O21 1_555 1_555
O22 Mg12 1_555 1_555
H13 O22 1_555 1_555
H14 O22 1_555 1_555
Mg12 O36 1_555 1_555

#END
