
###############################################################################
#
# This file contains modified crystal structure data generated from the
# MOF subset of the Cambridge Structural Database (CSD) v543 
# hosted by the Cambridge Crystallographic Data Centre (CCDC).
#
# This work is licensed under the Creative Commons
# Attribution-NonCommercial-ShareAlike 4.0 International License.
# To view a copy of this license, visit
# http://creativecommons.org/licenses/by-nc-sa/4.0/
# or send a letter to
# Creative Commons, PO Box 1866, Mountain View, CA 94042, USA.
#
# CIF created using the CSD Python API on 29 September 2022
# The structure has been converted into the P1 space group
# The structure has a 3D framework
# The original CSD entry QIWTAR is in the orthorhombic crystal system
# The framework has been calculated to contain at least 10.0% void space
# The void calculation uses a probe of radius 1.32A, grid spacing 0.4
#
###############################################################################

data_QIWTAR
_chemical_formula_moiety         '(C84 H68 N8 O16 Zn2)n'
_symmetry_cell_setting           triclinic
_symmetry_space_group_name_H-M   'P 1'
_symmetry_Int_Tables_number      1
_space_group_name_Hall           'P 1'
loop_
_symmetry_equiv_pos_site_id
_symmetry_equiv_pos_as_xyz
1 x,y,z
_cell_length_a                   9.676(3)
_cell_length_b                   15.470(5)
_cell_length_c                   13.547(5)
_cell_angle_alpha                90
_cell_angle_beta                 90
_cell_angle_gamma                90
_cell_volume                     2027.82
loop_
_atom_site_label
_atom_site_type_symbol
_atom_site_fract_x
_atom_site_fract_y
_atom_site_fract_z
O1 O 0.0052(4) 0.1732(2) 0.3552(3)
O2 O 0.0938(5) 0.1282(3) 0.2156(3)
C1 C 0.0859(6) 0.1233(4) 0.3066(5)
C2 C 0.1682(6) 0.0590(3) 0.3624(4)
C3 C 0.1682(7) 0.0591(4) 0.4644(4)
H1 H 0.1126 0.0993 0.4995
C4 C 0.2500 0.0000 0.5157(7)
H2 H 0.2500 0.0000 0.5858
C5 C 0.2500 -0.0000 0.3139(6)
H3 H 0.2500 -0.0000 0.2438
O3 O 0.0052(4) 0.3268(2) 0.1448(3)
O4 O 0.0938(5) 0.3718(3) 0.2844(3)
C4_2 C 0.2500 1.0000 0.5157(7)
H2_2 H 0.2500 1.0000 0.5858
C5_2 C 0.2500 1.0000 0.3139(6)
H3_2 H 0.2500 1.0000 0.2438
C16 C 0.3318(7) 0.9409(4) 0.4644(4)
C17 C 0.3318(6) 0.9410(3) 0.3624(4)
C18 C 0.4141(6) 0.8767(4) 0.3066(5)
O5 O 0.4948(4) 0.8268(2) 0.3552(3)
Zn3 Zn 0.56926(9) 0.7500 0.2500
O6 O 0.4062(5) 0.8718(3) 0.2156(3)
H10 H 0.3874 0.9007 0.4995
C11 C 0.9682(6) 0.4574(3) 0.5171(4)
H8 H 0.8889 0.4693 0.5613
H9 H 0.9335 0.4249 0.4592
C13 C 0.9260(6) 0.5959(3) 0.4291(4)
C14 C 0.8562(6) 0.6619(4) 0.4733(4)
C15 C 0.7523(6) 0.7048(3) 0.4236(4)
N2 N 0.7172(5) 0.6852(3) 0.3303(3)
O3_2 O 0.4948(4) 0.6732(2) 0.1448(3)
O4_2 O 0.4062(5) 0.6282(3) 0.2844(3)
N3 N 0.7172(5) 0.8148(3) 0.1697(3)
C19 C 0.7880(6) 0.6215(4) 0.2867(4)
C20 C 0.8916(6) 0.5765(4) 0.3331(4)
H11 H 0.9394 0.5319 0.2990
H12 H 0.7657 0.6068 0.2205
H13 H 0.7040 0.7499 0.4564
H14 H 0.8791 0.6785 0.5388
C1_2 C 0.0859(6) 0.3767(4) 0.1934(5)
C2_2 C 0.1682(6) 0.4410(3) 0.1376(4)
C3_2 C 0.1682(7) 0.4409(4) 0.0356(4)
H1_2 H 0.1126 0.4007 0.0005
C5_3 C 0.2500 0.5000 0.1861(6)
H3_3 H 0.2500 0.5000 0.2562
C16_2 C 0.3318(7) 0.5591(4) 0.0356(4)
C17_2 C 0.3318(6) 0.5590(3) 0.1376(4)
C18_2 C 0.4141(6) 0.6233(4) 0.1934(5)
H10_2 H 0.3874 0.5993 0.0005
C13_2 C 0.9260(6) 0.9041(3) 0.0709(4)
C14_2 C 0.8562(6) 0.8381(4) 0.0267(4)
C15_2 C 0.7523(6) 0.7952(3) 0.0764(4)
C19_2 C 0.7880(6) 0.8785(4) 0.2133(4)
C20_2 C 0.8916(6) 0.9235(4) 0.1669(4)
H11_2 H 0.9394 0.9681 0.2010
H12_2 H 0.7657 0.8932 0.2795
H13_2 H 0.7040 0.7501 0.0436
Zn1 Zn 0.93074(9) 0.2500 0.2500
N1 N 0.2172(5) 0.6852(3) 0.6697(3)
C6 C 0.2523(6) 0.7048(3) 0.5764(4)
H4 H 0.2040 0.7499 0.5436
C7 C 0.3562(6) 0.6619(4) 0.5267(4)
H5 H 0.3791 0.6785 0.4612
C8 C 0.4260(6) 0.5959(3) 0.5709(4)
C9 C 0.3916(6) 0.5765(4) 0.6669(4)
H6 H 0.4394 0.5319 0.7010
C10 C 0.2880(6) 0.6215(4) 0.7133(4)
H7 H 0.2657 0.6068 0.7795
C11_2 C 0.5318(6) 0.5426(3) 0.5171(4)
H8_2 H 0.6111 0.5307 0.5613
H9_2 H 0.5665 0.5751 0.4592
C12 C 0.4682(6) 0.4574(3) 0.4829(4)
C13_3 C 0.5740(6) 0.4041(3) 0.4291(4)
C14_3 C 0.6438(6) 0.3381(4) 0.4733(4)
C15_3 C 0.7477(6) 0.2952(3) 0.4236(4)
N2_2 N 0.7828(5) 0.3148(3) 0.3303(3)
Zn2 Zn 0.06926(9) 0.7500 0.7500
N3_2 N 0.7828(5) 0.1852(3) 0.1697(3)
C19_3 C 0.7120(6) 0.3785(4) 0.2867(4)
C20_3 C 0.6084(6) 0.4235(4) 0.3331(4)
H11_3 H 0.5606 0.4681 0.2990
H12_3 H 0.7343 0.3932 0.2205
H13_3 H 0.7960 0.2501 0.4564
H14_2 H 0.6209 0.3215 0.5388
H15 H 0.3889 0.4693 0.4387
H16 H 0.4335 0.4249 0.5408
C12_2 C 0.4682(6) 0.0426(3) 0.0171(4)
C13_4 C 0.5740(6) 0.0959(3) 0.0709(4)
C14_4 C 0.6438(6) 0.1619(4) 0.0267(4)
C15_4 C 0.7477(6) 0.2048(3) 0.0764(4)
C19_4 C 0.7120(6) 0.1215(4) 0.2133(4)
C20_4 C 0.6084(6) 0.0765(4) 0.1669(4)
H11_4 H 0.5606 0.0319 0.2010
H12_4 H 0.7343 0.1068 0.2795
H13_4 H 0.7960 0.2499 0.0436
H15_2 H 0.3889 0.0307 0.0613
N1_2 N 0.2172(5) 0.8148(3) 0.8303(3)
C6_2 C 0.2523(6) 0.7952(3) 0.9236(4)
H4_2 H 0.2040 0.7501 0.9564
C7_2 C 0.3562(6) 0.8381(4) 0.9733(4)
C8_2 C 0.4260(6) 0.9041(3) 0.9291(4)
C9_2 C 0.3916(6) 0.9235(4) 0.8331(4)
H6_2 H 0.4394 0.9681 0.7990
C10_2 C 0.2880(6) 0.8785(4) 0.7867(4)
H7_2 H 0.2657 0.8932 0.7205
C11_3 C 0.5318(6) 0.9574(3) 0.9829(4)
H8_3 H 0.6111 0.9693 0.9387
N1_3 N 0.2828(5) 0.3148(3) 0.6697(3)
C6_3 C 0.2477(6) 0.2952(3) 0.5764(4)
H4_3 H 0.2960 0.2501 0.5436
C7_3 C 0.1438(6) 0.3381(4) 0.5267(4)
H5_2 H 0.1209 0.3215 0.4612
C8_3 C 0.0740(6) 0.4041(3) 0.5709(4)
C9_3 C 0.1084(6) 0.4235(4) 0.6669(4)
H6_3 H 0.0606 0.4681 0.7010
C10_3 C 0.2120(6) 0.3785(4) 0.7133(4)
H7_3 H 0.2343 0.3932 0.7795
C12_3 C 0.0318(6) 0.5426(3) 0.4829(4)
Zn2_2 Zn 0.43074(9) 0.2500 0.7500
H15_3 H 0.1111 0.5307 0.4387
H16_2 H 0.0665 0.5751 0.5408
N1_4 N 0.2828(5) 0.1852(3) 0.8303(3)
C6_4 C 0.2477(6) 0.2048(3) 0.9236(4)
H4_4 H 0.2960 0.2499 0.9564
C7_4 C 0.1438(6) 0.1619(4) 0.9733(4)
C8_4 C 0.0740(6) 0.0959(3) 0.9291(4)
C9_4 C 0.1084(6) 0.0765(4) 0.8331(4)
H6_4 H 0.0606 0.0319 0.7990
C10_4 C 0.2120(6) 0.1215(4) 0.7867(4)
H7_4 H 0.2343 0.1068 0.7205
C4_3 C 0.7500 0.0000 0.4843(7)
H2_3 H 0.7500 0.0000 0.4142
C5_4 C 0.7500 0.0000 0.6861(6)
H3_4 H 0.7500 0.0000 0.7562
C16_3 C 0.6682(7) 0.0591(4) 0.5356(4)
C17_3 C 0.6682(6) 0.0590(3) 0.6376(4)
C18_3 C 0.5859(6) 0.1233(4) 0.6934(5)
O5_2 O 0.5052(4) 0.1732(2) 0.6448(3)
O6_2 O 0.5938(5) 0.1282(3) 0.7844(3)
H10_3 H 0.6126 0.0993 0.5005
O1_2 O 0.9948(4) 0.8268(2) 0.6448(3)
O2_2 O 0.9062(5) 0.8718(3) 0.7844(3)
C1_3 C 0.9141(6) 0.8767(4) 0.6934(5)
C2_3 C 0.8318(6) 0.9410(3) 0.6376(4)
C3_3 C 0.8318(7) 0.9409(4) 0.5356(4)
H1_3 H 0.8874 0.9007 0.5005
C4_4 C 0.7500 1.0000 0.4843(7)
H2_4 H 0.7500 1.0000 0.4142
C5_5 C 0.7500 1.0000 0.6861(6)
H3_5 H 0.7500 1.0000 0.7562
O3_3 O 0.9948(4) 0.6732(2) 0.8552(3)
O4_3 O 0.9062(5) 0.6282(3) 0.7156(3)
O3_4 O 0.5052(4) 0.3268(2) 0.8552(3)
O4_4 O 0.5938(5) 0.3718(3) 0.7156(3)
C1_4 C 0.9141(6) 0.6233(4) 0.8066(5)
C2_4 C 0.8318(6) 0.5590(3) 0.8624(4)
C3_4 C 0.8318(7) 0.5591(4) 0.9644(4)
H1_4 H 0.8874 0.5993 0.9995
C5_6 C 0.7500 0.5000 0.8139(6)
H3_6 H 0.7500 0.5000 0.7438
C16_4 C 0.6682(7) 0.4409(4) 0.9644(4)
C17_4 C 0.6682(6) 0.4410(3) 0.8624(4)
C18_4 C 0.5859(6) 0.3767(4) 0.8066(5)
H10_4 H 0.6126 0.4007 0.9995
C4_5 C 0.2500 0.5000 0.9843(7)
H2_5 H 0.2500 0.5000 0.9142
H14_3 H 0.8791 0.8215 0.9612
H14_4 H 0.6209 0.1785 0.9612
H16_3 H 0.4335 0.0751 0.9592
H5_3 H 0.3791 0.8215 0.0388
H9_3 H 0.5665 0.9249 0.0408
H5_4 H 0.1209 0.1785 0.0388
C4_6 C 0.7500 0.5000 0.0157(7)
H2_6 H 0.7500 0.5000 0.0858
C12_4 C 0.0318(6) 0.9574(3) 0.0171(4)
H15_4 H 0.1111 0.9693 0.0613
H16_4 H 0.0665 0.9249 0.9592
H9_4 H 0.9335 0.0751 0.0408
C11_4 C 0.9682(6) 0.0426(3) 0.9829(4)
H8_4 H 0.8889 0.0307 0.9387
loop_
_geom_bond_atom_site_label_1
_geom_bond_atom_site_label_2
_geom_bond_site_symmetry_1
_geom_bond_site_symmetry_2
O1 C1 1_555 1_555
C1 O2 1_555 1_555
C2 C1 1_555 1_555
C3 C2 1_555 1_555
H1 C3 1_555 1_555
C4 C3 1_555 1_555
H2 C4 1_555 1_555
C5 C2 1_555 1_555
H3 C5 1_555 1_555
H2_2 C4_2 1_555 1_555
H3_2 C5_2 1_555 1_555
C16 C4_2 1_555 1_555
C17 C5_2 1_555 1_555
C18 C17 1_555 1_555
O5 C18 1_555 1_555
Zn3 O5 1_555 1_555
O6 C18 1_555 1_555
H10 C16 1_555 1_555
C16 C17 1_555 1_555
Zn3 O6 1_555 1_555
H8 C11 1_555 1_555
H9 C11 1_555 1_555
C14 C13 1_555 1_555
C15 C14 1_555 1_555
N2 Zn3 1_555 1_555
O3_2 Zn3 1_555 1_555
O4_2 Zn3 1_555 1_555
N3 Zn3 1_555 1_555
C19 N2 1_555 1_555
C20 C13 1_555 1_555
H11 C20 1_555 1_555
H12 C19 1_555 1_555
H13 C15 1_555 1_555
H14 C14 1_555 1_555
C15 N2 1_555 1_555
C19 C20 1_555 1_555
O3 C1_2 1_555 1_555
C1_2 O4 1_555 1_555
C2_2 C1_2 1_555 1_555
C3_2 C2_2 1_555 1_555
H1_2 C3_2 1_555 1_555
C5_3 C2_2 1_555 1_555
H3_3 C5_3 1_555 1_555
C17_2 C5_3 1_555 1_555
C18_2 C17_2 1_555 1_555
O3_2 C18_2 1_555 1_555
O4_2 C18_2 1_555 1_555
H10_2 C16_2 1_555 1_555
C16_2 C17_2 1_555 1_555
C14_2 C13_2 1_555 1_555
C15_2 C14_2 1_555 1_555
C19_2 N3 1_555 1_555
C20_2 C13_2 1_555 1_555
H11_2 C20_2 1_555 1_555
H12_2 C19_2 1_555 1_555
H13_2 C15_2 1_555 1_555
C15_2 N3 1_555 1_555
C19_2 C20_2 1_555 1_555
N1 C6 1_555 1_555
C6 H4 1_555 1_555
C7 C6 1_555 1_555
H5 C7 1_555 1_555
C8 C7 1_555 1_555
C9 C8 1_555 1_555
H6 C9 1_555 1_555
C10 N1 1_555 1_555
H7 C10 1_555 1_555
C11_2 C8 1_555 1_555
H8_2 C11_2 1_555 1_555
H9_2 C11_2 1_555 1_555
C12 C11_2 1_555 1_555
C13_3 C12 1_555 1_555
C14_3 C13_3 1_555 1_555
C15_3 C14_3 1_555 1_555
N2_2 Zn1 1_555 1_555
Zn2 N1 1_555 1_555
N3_2 Zn1 1_555 1_555
C19_3 N2_2 1_555 1_555
C20_3 C13_3 1_555 1_555
H11_3 C20_3 1_555 1_555
H12_3 C19_3 1_555 1_555
H13_3 C15_3 1_555 1_555
H14_2 C14_3 1_555 1_555
H15 C12 1_555 1_555
H16 C12 1_555 1_555
C9 C10 1_555 1_555
C15_3 N2_2 1_555 1_555
C19_3 C20_3 1_555 1_555
C13_4 C12_2 1_555 1_555
C14_4 C13_4 1_555 1_555
C15_4 C14_4 1_555 1_555
C19_4 N3_2 1_555 1_555
C20_4 C13_4 1_555 1_555
H11_4 C20_4 1_555 1_555
H12_4 C19_4 1_555 1_555
H13_4 C15_4 1_555 1_555
H15_2 C12_2 1_555 1_555
C15_4 N3_2 1_555 1_555
C19_4 C20_4 1_555 1_555
N1_2 C6_2 1_555 1_555
C6_2 H4_2 1_555 1_555
C7_2 C6_2 1_555 1_555
C8_2 C7_2 1_555 1_555
C9_2 C8_2 1_555 1_555
H6_2 C9_2 1_555 1_555
C10_2 N1_2 1_555 1_555
H7_2 C10_2 1_555 1_555
C11_3 C8_2 1_555 1_555
H8_3 C11_3 1_555 1_555
Zn2 N1_2 1_555 1_555
C9_2 C10_2 1_555 1_555
N1_3 C6_3 1_555 1_555
C6_3 H4_3 1_555 1_555
C7_3 C6_3 1_555 1_555
H5_2 C7_3 1_555 1_555
C8_3 C7_3 1_555 1_555
C9_3 C8_3 1_555 1_555
H6_3 C9_3 1_555 1_555
C10_3 N1_3 1_555 1_555
H7_3 C10_3 1_555 1_555
Zn2_2 N1_3 1_555 1_555
H15_3 C12_3 1_555 1_555
H16_2 C12_3 1_555 1_555
C9_3 C10_3 1_555 1_555
N1_4 C6_4 1_555 1_555
C6_4 H4_4 1_555 1_555
C7_4 C6_4 1_555 1_555
C8_4 C7_4 1_555 1_555
C9_4 C8_4 1_555 1_555
H6_4 C9_4 1_555 1_555
C10_4 N1_4 1_555 1_555
H7_4 C10_4 1_555 1_555
Zn2_2 N1_4 1_555 1_555
C9_4 C10_4 1_555 1_555
H2_3 C4_3 1_555 1_555
H3_4 C5_4 1_555 1_555
C16_3 C4_3 1_555 1_555
C17_3 C5_4 1_555 1_555
C18_3 C17_3 1_555 1_555
O5_2 C18_3 1_555 1_555
Zn2_2 O5_2 1_555 1_555
O6_2 C18_3 1_555 1_555
H10_3 C16_3 1_555 1_555
C16_3 C17_3 1_555 1_555
Zn2_2 O6_2 1_555 1_555
O1_2 C1_3 1_555 1_555
C1_3 O2_2 1_555 1_555
C2_3 C1_3 1_555 1_555
C3_3 C2_3 1_555 1_555
H1_3 C3_3 1_555 1_555
C4_4 C3_3 1_555 1_555
H2_4 C4_4 1_555 1_555
C5_5 C2_3 1_555 1_555
H3_5 C5_5 1_555 1_555
O3_4 Zn2_2 1_555 1_555
O4_4 Zn2_2 1_555 1_555
O3_3 C1_4 1_555 1_555
C1_4 O4_3 1_555 1_555
C2_4 C1_4 1_555 1_555
C3_4 C2_4 1_555 1_555
H1_4 C3_4 1_555 1_555
C5_6 C2_4 1_555 1_555
H3_6 C5_6 1_555 1_555
C17_4 C5_6 1_555 1_555
C18_4 C17_4 1_555 1_555
O3_4 C18_4 1_555 1_555
O4_4 C18_4 1_555 1_555
H10_4 C16_4 1_555 1_555
C16_4 C17_4 1_555 1_555
H2_5 C4_5 1_555 1_555
H2_6 C4_6 1_555 1_555
H15_4 C12_4 1_555 1_555
H8_4 C11_4 1_555 1_555

#END
