
###############################################################################
#
# This file contains modified crystal structure data generated from the
# MOF subset of the Cambridge Structural Database (CSD) v543 
# hosted by the Cambridge Crystallographic Data Centre (CCDC).
#
# This work is licensed under the Creative Commons
# Attribution-NonCommercial-ShareAlike 4.0 International License.
# To view a copy of this license, visit
# http://creativecommons.org/licenses/by-nc-sa/4.0/
# or send a letter to
# Creative Commons, PO Box 1866, Mountain View, CA 94042, USA.
#
# CIF created using the CSD Python API on 29 September 2022
# The structure has been converted into the P1 space group
# The structure has a 3D framework
# The original CSD entry QIXNES is in the monoclinic crystal system
# The framework has been calculated to contain at least 10.0% void space
# The void calculation uses a probe of radius 1.32A, grid spacing 0.4
#
###############################################################################

data_QIXNES
_chemical_formula_moiety         '(C84 H64 O64 Y8)n'
_symmetry_cell_setting           triclinic
_symmetry_space_group_name_H-M   'P 1'
_symmetry_Int_Tables_number      1
_space_group_name_Hall           'P 1'
loop_
_symmetry_equiv_pos_site_id
_symmetry_equiv_pos_as_xyz
1 x,y,z
_cell_length_a                   9.8605(6)
_cell_length_b                   29.2100(16)
_cell_length_c                   10.8652(6)
_cell_angle_alpha                90
_cell_angle_beta                 92.2030(10)
_cell_angle_gamma                90
_cell_volume                     3127.14
loop_
_atom_site_label
_atom_site_type_symbol
_atom_site_fract_x
_atom_site_fract_y
_atom_site_fract_z
C8 C 0.0735(4) 0.23608(15) 0.0774(4)
H4 H 0.1330 0.2134 0.1059
C9 C 0.1213(4) 0.27134(14) 0.0099(4)
C15 C 0.0264(4) 0.48603(16) 0.2287(4)
H5 H 0.0574 0.4824 0.3101
C16 C 0.1173(4) 0.48905(14) 0.1391(4)
C17 C 0.2627(4) 0.47647(14) 0.1729(4)
C18 C 0.0716(4) 0.49891(13) 0.0143(4)
O2 O 0.2909(3) 0.35843(9) 0.0156(3)
O8 O 0.3553(3) 0.25522(10) 0.0492(3)
O9 O 0.3135(3) 0.49080(11) 0.2733(3)
O10 O 0.3223(3) 0.44993(10) 0.1016(3)
O11 O 0.3415(3) 0.54595(10) 0.0141(3)
O14 O 0.5491(4) 0.38864(12) 0.1468(3)
H9 H 0.591(5) 0.3634(11) 0.151(4)
H10 H 0.551(6) 0.4023(14) 0.214(3)
C30 C 0.0172(4) 0.61988(15) 0.1317(4)
C31 C 0.1581(4) 0.62826(15) 0.1292(4)
H20 H 0.2190 0.6073 0.1644
C32 C 0.2059(4) 0.66721(13) 0.0750(4)
C33 C 0.1127(4) 0.69888(13) 0.0173(4)
C40 C 0.3540(4) 0.67752(14) 0.0992(4)
O24 O 0.4373(3) 0.64555(10) 0.0963(3)
O25 O 0.3845(3) 0.71764(9) 0.1300(3)
Y6 Y 0.54552(4) 0.581445(13) 0.04159(4)
Y7 Y 0.45957(4) 0.251663(14) 0.23669(4)
Y9 Y 0.54043(4) 0.751663(14) 0.26331(4)
C1 C 0.0749(4) 0.34892(14) 0.9126(4)
H1 H 0.0133 0.4075 0.8356
C10 C 0.0300(4) 0.30705(14) 0.9662(4)
C11 C 0.2183(4) 0.36542(13) 0.9203(4)
C14 C 0.2661(4) 0.26758(13) 0.9712(4)
C19 C 0.1617(4) 0.50630(13) 0.9175(4)
C20 C 0.3104(4) 0.51416(14) 0.9411(4)
C21 C 0.1135(4) 0.51170(15) 0.7982(4)
H6 H 0.1740 0.5139 0.7349
O1 O 0.2626(3) 0.39038(10) 0.8347(3)
O7 O 0.2872(3) 0.27274(9) 0.8592(2)
O12 O 0.3931(3) 0.49032(10) 0.8839(3)
O13 O 0.5214(4) 0.42853(11) 0.7488(3)
H7 H 0.566(5) 0.4088(11) 0.709(4)
H8 H 0.556(5) 0.4547(8) 0.738(5)
Y1 Y 0.45448(4) 0.418555(13) 0.95841(4)
C34 C 0.1569(4) 0.73555(14) 0.9415(4)
C35 C 0.0646(4) 0.76665(16) 0.8951(4)
H21 H 0.0937 0.7901 0.8445
C41 C 0.2975(4) 0.73832(15) 0.8942(4)
O26 O 0.3545(3) 0.70351(10) 0.8534(3)
O27 O 0.3556(3) 0.77699(9) 0.8886(3)
O32 O 0.6826(4) 0.68280(11) 0.7625(3)
H27 H 0.689(6) 0.6666(14) 0.827(2)
H28 H 0.684(6) 0.6666(14) 0.697(2)
O33 O 0.4597(4) 0.69488(11) 0.6141(3)
H29 H 0.491(5) 0.6698(11) 0.598(5)
H30 H 0.402(5) 0.7046(16) 0.561(4)
O34 O 0.5960(4) 0.82476(10) 0.8201(3)
H31 H 0.617(5) 0.8434(13) 0.765(3)
H32 H 0.592(5) 0.8376(14) 0.889(2)
Y4 Y 0.54043(4) 0.748337(14) 0.76331(4)
O35 O 0.5627(3) 0.35445(10) 0.9037(3)
O37 O 0.3845(3) 0.78236(9) 0.6300(3)
O39 O 0.7128(3) 0.77274(9) 0.6408(2)
O42 O 0.6447(3) 0.74478(10) 0.9508(3)
O44 O 0.6585(3) 0.45405(10) 0.9859(3)
Y12 Y 0.45957(4) 0.248337(14) 0.73669(4)
C6 C 0.8431(4) 0.26445(14) 0.0585(4)
C7 C 0.9354(4) 0.23335(16) 0.1049(4)
H3 H 0.9063 0.2099 0.1555
C13 C 0.7025(4) 0.26168(15) 0.1058(4)
O5 O 0.6455(3) 0.29649(10) 0.1466(3)
O6 O 0.6444(3) 0.22301(9) 0.1114(3)
O15 O 0.3174(4) 0.31720(11) 0.2375(3)
H11 H 0.311(6) 0.3334(14) 0.173(2)
H12 H 0.316(6) 0.3334(14) 0.303(2)
O16 O 0.5403(4) 0.30512(11) 0.3859(3)
H13 H 0.509(5) 0.3302(11) 0.402(5)
H14 H 0.598(5) 0.2954(16) 0.439(4)
O17 O 0.4040(4) 0.17524(10) 0.1799(3)
H15 H 0.383(5) 0.1566(13) 0.235(3)
H16 H 0.408(5) 0.1624(14) 0.111(2)
C26 C 0.8383(4) 0.49370(13) 0.0825(4)
C27 C 0.6896(4) 0.48584(14) 0.0589(4)
C28 C 0.8865(4) 0.48830(15) 0.2018(4)
H18 H 0.8260 0.4861 0.2651
O21 O 0.6069(3) 0.50968(10) 0.1161(3)
C29 C 0.9251(4) 0.65108(14) 0.0874(4)
H19 H 0.9867 0.5925 0.1644
C38 C 0.9700(4) 0.69295(14) 0.0338(4)
C39 C 0.7817(4) 0.63458(13) 0.0797(4)
C42 C 0.7339(4) 0.73242(13) 0.0288(4)
O22 O 0.7374(3) 0.60962(10) 0.1653(3)
O28 O 0.7128(3) 0.72726(9) 0.1408(2)
O30 O 0.4786(4) 0.57147(11) 0.2512(3)
H23 H 0.434(5) 0.5912(11) 0.291(4)
H24 H 0.444(5) 0.5453(8) 0.262(5)
O38 O 0.6155(3) 0.21764(9) 0.3700(3)
O40 O 0.2872(3) 0.22726(9) 0.3592(2)
C2 C 0.9828(4) 0.38012(15) 0.8683(4)
C3 C 0.8419(4) 0.37174(15) 0.8708(4)
H2 H 0.7810 0.3927 0.8356
C4 C 0.7941(4) 0.33279(13) 0.9250(4)
C5 C 0.8873(4) 0.30112(13) 0.9827(4)
C12 C 0.6460(4) 0.32248(14) 0.9008(4)
O4 O 0.6155(3) 0.28236(9) 0.8700(3)
C22 C 0.9736(4) 0.51397(16) 0.7713(4)
H17 H 0.9426 0.5176 0.6899
C23 C 0.8827(4) 0.51095(14) 0.8609(4)
C24 C 0.7373(4) 0.52353(14) 0.8271(4)
C25 C 0.9284(4) 0.50109(13) 0.9857(4)
O18 O 0.6865(3) 0.50920(11) 0.7267(3)
O19 O 0.6777(3) 0.55007(10) 0.8984(3)
C36 C 0.9265(4) 0.76392(15) 0.9226(4)
H22 H 0.8670 0.7866 0.8941
C37 C 0.8787(4) 0.72866(14) 0.9901(4)
O23 O 0.7091(3) 0.64157(9) 0.9844(3)
O31 O 0.4509(4) 0.61136(12) 0.8532(3)
H25 H 0.409(5) 0.6366(11) 0.849(4)
H26 H 0.449(6) 0.5977(14) 0.786(3)
C22_2 C 0.0264(4) 0.01397(16) 0.7287(4)
H17_2 H 0.0574 0.0176 0.8101
C23_2 C 0.1173(4) 0.01095(14) 0.6391(4)
C24_2 C 0.2627(4) 0.02353(14) 0.6729(4)
C25_2 C 0.0716(4) 0.00109(13) 0.5143(4)
O18_2 O 0.3135(3) 0.00920(11) 0.7733(3)
O19_2 O 0.3223(3) 0.05007(10) 0.6016(3)
O21_2 O 0.3931(3) 0.00968(10) 0.3839(3)
C29_2 C 0.0749(4) 0.15108(14) 0.4126(4)
H19_2 H 0.0133 0.0925 0.3356
C36_2 C 0.0735(4) 0.26392(15) 0.5774(4)
H22_2 H 0.1330 0.2866 0.6059
C37_2 C 0.1213(4) 0.22866(14) 0.5099(4)
C38_2 C 0.0300(4) 0.19295(14) 0.4662(4)
C39_2 C 0.2183(4) 0.13458(13) 0.4203(4)
C42_2 C 0.2661(4) 0.23242(13) 0.4712(4)
O22_2 O 0.2626(3) 0.10962(10) 0.3347(3)
O23_2 O 0.2909(3) 0.14157(9) 0.5156(3)
O29 O 0.3553(3) 0.24478(10) 0.5492(3)
O30_2 O 0.5214(4) 0.07147(11) 0.2488(3)
H23_2 H 0.566(5) 0.0912(11) 0.209(4)
H24_2 H 0.556(5) 0.0453(8) 0.238(5)
O31_2 O 0.5491(4) 0.11136(12) 0.6468(3)
H25_2 H 0.591(5) 0.1366(11) 0.651(4)
H26_2 H 0.551(6) 0.0977(14) 0.714(3)
Y3 Y 0.45448(4) 0.081445(13) 0.45841(4)
O36 O 0.5627(3) 0.14555(10) 0.4037(3)
O43 O 0.6585(3) 0.04595(10) 0.4859(3)
C2_2 C 0.0172(4) 0.88012(15) 0.6317(4)
C3_2 C 0.1581(4) 0.87174(15) 0.6292(4)
H2_2 H 0.2190 0.8927 0.6644
C4_2 C 0.2059(4) 0.83279(13) 0.5750(4)
C5_2 C 0.1127(4) 0.80112(13) 0.5173(4)
C6_2 C 0.1569(4) 0.76445(14) 0.4415(4)
C7_2 C 0.0646(4) 0.73335(16) 0.3951(4)
H3_2 H 0.0937 0.7099 0.3445
C12_2 C 0.3540(4) 0.82248(14) 0.5992(4)
C13_2 C 0.2975(4) 0.76168(15) 0.3942(4)
O3 O 0.4373(3) 0.85445(10) 0.5963(3)
O5_2 O 0.3545(3) 0.79649(10) 0.3534(3)
O6_2 O 0.3556(3) 0.72301(9) 0.3886(3)
O15_2 O 0.6826(4) 0.81720(11) 0.2625(3)
H11_2 H 0.689(6) 0.8334(14) 0.327(2)
H12_2 H 0.684(6) 0.8334(14) 0.197(2)
O16_2 O 0.4597(4) 0.80512(11) 0.1141(3)
H13_2 H 0.491(5) 0.8302(11) 0.098(5)
H14_2 H 0.402(5) 0.7954(16) 0.061(4)
O17_2 O 0.5960(4) 0.67524(10) 0.3201(3)
H15_2 H 0.617(5) 0.6566(13) 0.265(3)
H16_2 H 0.592(5) 0.6624(14) 0.389(2)
C26_2 C 0.1617(4) 0.99370(13) 0.4175(4)
C27_2 C 0.3104(4) 0.98584(14) 0.4411(4)
C28_2 C 0.1135(4) 0.98830(15) 0.2982(4)
H18_2 H 0.1740 0.9861 0.2349
O20 O 0.3415(3) 0.95405(10) 0.5141(3)
O41 O 0.6447(3) 0.75522(10) 0.4508(3)
Y5 Y 0.54552(4) 0.918555(13) 0.54159(4)
C19_2 C 0.8383(4) 0.00630(13) 0.5825(4)
C20_2 C 0.6896(4) 0.01416(14) 0.5589(4)
C21_2 C 0.8865(4) 0.01170(15) 0.7018(4)
H6_2 H 0.8260 0.0139 0.7651
C30_2 C 0.9828(4) 0.11988(15) 0.3683(4)
C31_2 C 0.8419(4) 0.12826(15) 0.3708(4)
H20_2 H 0.7810 0.1073 0.3356
C32_2 C 0.7941(4) 0.16721(13) 0.4250(4)
C33_2 C 0.8873(4) 0.19888(13) 0.4827(4)
C34_2 C 0.8431(4) 0.23555(14) 0.5585(4)
C35_2 C 0.9354(4) 0.26665(16) 0.6049(4)
H21_2 H 0.9063 0.2901 0.6555
C40_2 C 0.6460(4) 0.17752(14) 0.4008(4)
C41_2 C 0.7025(4) 0.23832(15) 0.6058(4)
O26_2 O 0.6455(3) 0.20351(10) 0.6466(3)
O27_2 O 0.6444(3) 0.27699(9) 0.6114(3)
O32_2 O 0.3174(4) 0.18280(11) 0.7375(3)
H27_2 H 0.311(6) 0.1666(14) 0.673(2)
H28_2 H 0.316(6) 0.1666(14) 0.803(2)
O33_2 O 0.5403(4) 0.19488(11) 0.8859(3)
H29_2 H 0.509(5) 0.1698(11) 0.902(5)
H30_2 H 0.598(5) 0.2046(16) 0.939(4)
O34_2 O 0.4040(4) 0.32476(10) 0.6799(3)
H31_2 H 0.383(5) 0.3434(13) 0.735(3)
H32_2 H 0.408(5) 0.3376(14) 0.611(2)
C1_2 C 0.9251(4) 0.84892(14) 0.5874(4)
H1_2 H 0.9867 0.9075 0.6644
C8_2 C 0.9265(4) 0.73608(15) 0.4226(4)
H4_2 H 0.8670 0.7134 0.3941
C9_2 C 0.8787(4) 0.77134(14) 0.4901(4)
C10_2 C 0.9700(4) 0.80705(14) 0.5338(4)
C11_2 C 0.7817(4) 0.86542(13) 0.5797(4)
C14_2 C 0.7339(4) 0.76758(13) 0.5288(4)
C15_2 C 0.9736(4) 0.98603(16) 0.2713(4)
H5_2 H 0.9426 0.9824 0.1899
C16_2 C 0.8827(4) 0.98905(14) 0.3609(4)
C17_2 C 0.7373(4) 0.97647(14) 0.3271(4)
C18_2 C 0.9284(4) 0.99891(13) 0.4857(4)
O1_2 O 0.7374(3) 0.89038(10) 0.6653(3)
O2_2 O 0.7091(3) 0.85843(9) 0.4844(3)
O9_2 O 0.6865(3) 0.99080(11) 0.2267(3)
O10_2 O 0.6777(3) 0.94993(10) 0.3984(3)
O12_2 O 0.6069(3) 0.99032(10) 0.6161(3)
O13_2 O 0.4786(4) 0.92853(11) 0.7512(3)
H7_2 H 0.434(5) 0.9088(11) 0.791(4)
H8_2 H 0.444(5) 0.9547(8) 0.762(5)
O14_2 O 0.4509(4) 0.88864(12) 0.3532(3)
H9_2 H 0.409(5) 0.8634(11) 0.349(4)
H10_2 H 0.449(6) 0.9023(14) 0.286(3)
loop_
_geom_bond_atom_site_label_1
_geom_bond_atom_site_label_2
_geom_bond_site_symmetry_1
_geom_bond_site_symmetry_2
H4 C8 1_555 1_555
C9 C8 1_555 1_555
C15 H5 1_555 1_555
C16 C15 1_555 1_555
C17 C16 1_555 1_555
C18 C16 1_555 1_555
O9 C17 1_555 1_555
O10 C17 1_555 1_555
O14 H9 1_555 1_555
H10 O14 1_555 1_555
C31 C30 1_555 1_555
H20 C31 1_555 1_555
C32 C31 1_555 1_555
C33 C32 1_555 1_555
C40 C32 1_555 1_555
O24 C40 1_555 1_555
O25 C40 1_555 1_555
Y6 O11 1_555 1_555
Y7 O8 1_555 1_555
Y9 O25 1_555 1_555
O24 Y6 1_555 1_555
C10 C1 1_555 1_555
C11 C1 1_555 1_555
C20 C19 1_555 1_555
C21 C19 1_555 1_555
H6 C21 1_555 1_555
O1 C11 1_555 1_555
O7 C14 1_555 1_555
O12 C20 1_555 1_555
O13 H7 1_555 1_555
H8 O13 1_555 1_555
Y1 O1 1_555 1_555
C35 C34 1_555 1_555
H21 C35 1_555 1_555
C41 C34 1_555 1_555
O26 C41 1_555 1_555
O27 C41 1_555 1_555
O32 H27 1_555 1_555
H28 O32 1_555 1_555
O33 H29 1_555 1_555
H30 O33 1_555 1_555
O34 H31 1_555 1_555
H32 O34 1_555 1_555
Y4 O26 1_555 1_555
O35 Y1 1_555 1_555
O37 Y4 1_555 1_555
O39 Y4 1_555 1_555
O42 Y4 1_555 1_555
O44 Y1 1_555 1_555
Y12 O7 1_555 1_555
O12 Y1 1_555 1_555
O13 Y1 1_555 1_555
O27 Y4 1_555 1_555
O32 Y4 1_555 1_555
O33 Y4 1_555 1_555
O34 Y4 1_555 1_555
C7 C6 1_555 1_555
H3 C7 1_555 1_555
C13 C6 1_555 1_555
O5 C13 1_555 1_555
O6 C13 1_555 1_555
O15 H11 1_555 1_555
H12 O15 1_555 1_555
O16 H13 1_555 1_555
H14 O16 1_555 1_555
O17 H15 1_555 1_555
H16 O17 1_555 1_555
Y7 O5 1_555 1_555
C27 C26 1_555 1_555
H18 C28 1_555 1_555
O21 C27 1_555 1_555
C38 C29 1_555 1_555
C39 C29 1_555 1_555
O22 C39 1_555 1_555
O28 C42 1_555 1_555
O30 H23 1_555 1_555
H24 O30 1_555 1_555
O38 Y7 1_555 1_555
O40 Y7 1_555 1_555
Y9 O28 1_555 1_555
O6 Y7 1_555 1_555
O15 Y7 1_555 1_555
O16 Y7 1_555 1_555
O17 Y7 1_555 1_555
C26 C28 1_555 1_555
O21 Y6 1_555 1_555
O22 Y6 1_555 1_555
O30 Y6 1_555 1_555
C3 C2 1_555 1_555
H2 C3 1_555 1_555
C4 C3 1_555 1_555
C5 C4 1_555 1_555
C12 C4 1_555 1_555
O35 C12 1_555 1_555
O4 C12 1_555 1_555
H17 C22 1_555 1_555
C23 C22 1_555 1_555
C24 C23 1_555 1_555
O18 C24 1_555 1_555
O19 C24 1_555 1_555
H22 C36 1_555 1_555
C37 C36 1_555 1_555
O31 H25 1_555 1_555
H26 O31 1_555 1_555
Y12 O4 1_555 1_555
C23 C25 1_555 1_555
H17_2 C22_2 1_555 1_555
C23_2 C22_2 1_555 1_555
C24_2 C23_2 1_555 1_555
O18_2 C24_2 1_555 1_555
O19_2 C24_2 1_555 1_555
H22_2 C36_2 1_555 1_555
C37_2 C36_2 1_555 1_555
C38_2 C29_2 1_555 1_555
C39_2 C29_2 1_555 1_555
C42_2 C37_2 1_555 1_555
O22_2 C39_2 1_555 1_555
O23_2 C39_2 1_555 1_555
O40 C42_2 1_555 1_555
O29 C42_2 1_555 1_555
O30_2 H23_2 1_555 1_555
H24_2 O30_2 1_555 1_555
O31_2 H25_2 1_555 1_555
H26_2 O31_2 1_555 1_555
Y3 O19_2 1_555 1_555
O36 Y3 1_555 1_555
O43 Y3 1_555 1_555
Y12 O29 1_555 1_555
C23_2 C25_2 1_555 1_555
O21_2 Y3 1_555 1_555
C37_2 C38_2 1_555 1_555
O22_2 Y3 1_555 1_555
O23_2 Y3 1_555 1_555
O30_2 Y3 1_555 1_555
O31_2 Y3 1_555 1_555
C3_2 C2_2 1_555 1_555
H2_2 C3_2 1_555 1_555
C4_2 C3_2 1_555 1_555
C5_2 C4_2 1_555 1_555
C6_2 C5_2 1_555 1_555
C7_2 C6_2 1_555 1_555
H3_2 C7_2 1_555 1_555
C12_2 C4_2 1_555 1_555
C13_2 C6_2 1_555 1_555
O3 C12_2 1_555 1_555
O37 C12_2 1_555 1_555
O5_2 C13_2 1_555 1_555
O6_2 C13_2 1_555 1_555
O15_2 H11_2 1_555 1_555
H12_2 O15_2 1_555 1_555
O16_2 H13_2 1_555 1_555
H14_2 O16_2 1_555 1_555
O17_2 H15_2 1_555 1_555
H16_2 O17_2 1_555 1_555
Y9 O5_2 1_555 1_555
C27_2 C26_2 1_555 1_555
H18_2 C28_2 1_555 1_555
O20 C27_2 1_555 1_555
O41 Y9 1_555 1_555
Y5 O3 1_555 1_555
O6_2 Y9 1_555 1_555
O15_2 Y9 1_555 1_555
O16_2 Y9 1_555 1_555
O17_2 Y9 1_555 1_555
C26_2 C28_2 1_555 1_555
O20 Y5 1_555 1_555
C20_2 C19_2 1_555 1_555
C21_2 C19_2 1_555 1_555
H6_2 C21_2 1_555 1_555
O43 C20_2 1_555 1_555
C31_2 C30_2 1_555 1_555
H20_2 C31_2 1_555 1_555
C32_2 C31_2 1_555 1_555
C33_2 C32_2 1_555 1_555
C34_2 C33_2 1_555 1_555
C35_2 C34_2 1_555 1_555
H21_2 C35_2 1_555 1_555
C40_2 C32_2 1_555 1_555
C41_2 C34_2 1_555 1_555
O36 C40_2 1_555 1_555
O38 C40_2 1_555 1_555
O26_2 C41_2 1_555 1_555
O27_2 C41_2 1_555 1_555
O32_2 H27_2 1_555 1_555
H28_2 O32_2 1_555 1_555
O33_2 H29_2 1_555 1_555
H30_2 O33_2 1_555 1_555
O34_2 H31_2 1_555 1_555
H32_2 O34_2 1_555 1_555
Y12 O26_2 1_555 1_555
O27_2 Y12 1_555 1_555
O32_2 Y12 1_555 1_555
O33_2 Y12 1_555 1_555
O34_2 Y12 1_555 1_555
H4_2 C8_2 1_555 1_555
C9_2 C8_2 1_555 1_555
C10_2 C1_2 1_555 1_555
C11_2 C1_2 1_555 1_555
C14_2 C9_2 1_555 1_555
C15_2 H5_2 1_555 1_555
C16_2 C15_2 1_555 1_555
C17_2 C16_2 1_555 1_555
C18_2 C16_2 1_555 1_555
O1_2 C11_2 1_555 1_555
O2_2 C11_2 1_555 1_555
O39 C14_2 1_555 1_555
O41 C14_2 1_555 1_555
O9_2 C17_2 1_555 1_555
O10_2 C17_2 1_555 1_555
O13_2 H7_2 1_555 1_555
H8_2 O13_2 1_555 1_555
O14_2 H9_2 1_555 1_555
H10_2 O14_2 1_555 1_555
Y5 O1_2 1_555 1_555
C9_2 C10_2 1_555 1_555
O2_2 Y5 1_555 1_555
O10_2 Y5 1_555 1_555
O12_2 Y5 1_555 1_555
O13_2 Y5 1_555 1_555
O14_2 Y5 1_555 1_555

#END
