
###############################################################################
#
# This file contains modified crystal structure data generated from the
# MOF subset of the Cambridge Structural Database (CSD) v543 
# hosted by the Cambridge Crystallographic Data Centre (CCDC).
#
# This work is licensed under the Creative Commons
# Attribution-NonCommercial-ShareAlike 4.0 International License.
# To view a copy of this license, visit
# http://creativecommons.org/licenses/by-nc-sa/4.0/
# or send a letter to
# Creative Commons, PO Box 1866, Mountain View, CA 94042, USA.
#
# CIF created using the CSD Python API on 29 September 2022
# The structure has been converted into the P1 space group
# The structure has a 3D framework
# The original CSD entry QIXSOG is in the monoclinic crystal system
# The framework has been calculated to contain at least 10.0% void space
# The void calculation uses a probe of radius 1.32A, grid spacing 0.4
# The framework is charged, counterions have been retained in the structure
# H atom positions have been added when not included in the experimental data
#
###############################################################################

data_QIXSOG
_chemical_formula_moiety         '(C92 H60 Cu4 Mn4 N48 S48 2+)n'
_symmetry_cell_setting           triclinic
_symmetry_space_group_name_H-M   'P 1'
_symmetry_Int_Tables_number      1
_space_group_name_Hall           'P 1'
loop_
_symmetry_equiv_pos_site_id
_symmetry_equiv_pos_as_xyz
1 x,y,z
_cell_length_a                   31.951(2)
_cell_length_b                   10.636(6)
_cell_length_c                   12.368(7)
_cell_angle_alpha                90
_cell_angle_beta                 96.03(4)
_cell_angle_gamma                90
_cell_volume                     4179.77
loop_
_atom_site_label
_atom_site_type_symbol
_atom_site_fract_x
_atom_site_fract_y
_atom_site_fract_z
Mn3 Mn 0.25042(3) 0.74825(8) 0.00059(7)
Mn1 Mn 0.24958(3) 0.24825(8) 0.49941(7)
C1 C 0.0745(2) 0.2547(6) 0.4349(5)
C2 C 0.1449(2) 0.2439(6) 0.4852(5)
C3 C 0.3532(2) 0.2509(7) 0.5381(5)
C4 C 0.4205(2) 0.2384(9) 0.6261(7)
C6 C 0.2498(2) 0.5431(7) 0.5902(5)
C7 C 0.2532(2) 0.6695(6) 0.7376(5)
N1 N 0.04354(18) 0.2541(6) 0.3809(5)
N2 N 0.1064(2) 0.2580(7) 0.5052(5)
N3 N 0.18078(18) 0.2328(6) 0.4802(5)
N4 N 0.3183(2) 0.2607(7) 0.5209(5)
N5 N 0.3929(3) 0.2371(14) 0.5422(7)
N6 N 0.4484(2) 0.2403(7) 0.6898(6)
N8 N 0.2566(2) 0.0441(6) 0.4556(5)
N9 N 0.2458(2) 0.4511(6) 0.5425(5)
N10 N 0.2570(3) 0.6528(6) 0.6345(5)
N11 N 0.25084(19) 0.6986(6) 0.8254(5)
Cu2 Cu 0.49577(3) 0.24291(11) 0.78561(9)
Cu3 Cu 0.50423(3) 0.75709(11) 0.21439(9)
C9 C 0.4255(2) 0.7547(6) 0.0651(5)
C10 C 0.3551(2) 0.7439(6) 0.0148(5)
C13 C 0.2454(2) 0.4521(7) 0.0875(5)
C14 C 0.2502(2) 0.0431(7) 0.9098(5)
C15 C 0.2468(2) 0.1695(6) 0.7624(5)
C16 C 0.2486(2) 0.3236(6) 0.2338(5)
N13 N 0.45646(18) 0.7541(6) 0.1191(5)
N14 N 0.54354(18) 0.2459(6) 0.8809(5)
N16 N 0.31922(18) 0.7328(6) 0.0198(5)
N21 N 0.2494(3) 0.3377(6) 0.1303(5)
N22 N 0.2434(2) 0.5441(6) 0.0444(5)
N25 N 0.2430(3) 0.1528(6) 0.8655(5)
N26 N 0.24916(19) 0.1986(6) 0.6746(5)
N28 N 0.2490(2) 0.2970(6) 0.3238(5)
N29 N 0.2510(2) 0.7970(6) 0.1762(5)
N15 N 0.3936(2) 0.7580(7) 0.9948(5)
N18 N 0.1817(2) 0.7607(7) 0.9791(5)
N24 N 0.2542(2) 0.9511(6) 0.9575(5)
C5 C 0.2546(2) 0.9521(7) 0.4125(5)
C8 C 0.2514(2) 0.8236(6) 0.2662(5)
N7 N 0.2506(3) 0.8377(6) 0.3697(5)
Cu1 Cu 0.99577(3) 0.25709(11) 0.28561(9)
C11 C 0.8532(2) 0.2491(7) 0.0381(5)
C12 C 0.9205(2) 0.2616(9) 0.1261(7)
N17 N 0.8183(2) 0.2393(7) 0.0209(5)
N19 N 0.8929(3) 0.2629(14) 0.0422(7)
N20 N 0.9484(2) 0.2597(7) 0.1898(6)
Mn6 Mn 0.74958(3) 0.25175(8) 0.99941(7)
Mn6_2 Mn 0.75042(3) 0.75175(8) 0.50059(7)
C11_2 C 0.6468(2) 0.7491(7) 0.4619(5)
C12_2 C 0.5795(2) 0.7616(9) 0.3739(7)
N17_2 N 0.6817(2) 0.7393(7) 0.4791(5)
N19_2 N 0.6071(3) 0.7629(14) 0.4578(7)
N20_2 N 0.5516(2) 0.7597(7) 0.3102(6)
C3_2 C 0.1468(2) 0.7509(7) 0.9619(5)
C4_2 C 0.0795(2) 0.7384(9) 0.8739(7)
N5_2 N 0.1071(3) 0.7371(14) 0.9578(7)
N6_2 N 0.0516(2) 0.7403(7) 0.8102(6)
Cu2_2 Cu 0.00423(3) 0.74291(11) 0.71439(9)
N14_2 N 0.95646(18) 0.7459(6) 0.6191(5)
C5_2 C 0.7454(2) 0.0479(7) 0.5875(5)
C8_2 C 0.7486(2) 0.1764(6) 0.7338(5)
N7_2 N 0.7494(3) 0.1623(6) 0.6303(5)
N12 N 0.7490(2) 0.2030(6) 0.8238(5)
N23 N 0.7458(2) 0.0489(6) 0.0425(5)
N15_2 N 0.6064(2) 0.2420(7) 0.0052(5)
N27 N 0.74916(19) 0.3014(6) 0.1746(5)
C1_2 C 0.9255(2) 0.7453(6) 0.5651(5)
C2_2 C 0.8551(2) 0.7561(6) 0.5148(5)
C6_2 C 0.7502(2) 0.4569(7) 0.4098(5)
C7_2 C 0.7468(2) 0.3305(6) 0.2624(5)
N2_2 N 0.8936(2) 0.7420(7) 0.4948(5)
N3_2 N 0.81922(18) 0.7672(6) 0.5198(5)
N8_2 N 0.7434(2) 0.9559(6) 0.5444(5)
N9_2 N 0.7542(2) 0.5489(6) 0.4575(5)
N10_2 N 0.7430(3) 0.3472(6) 0.3655(5)
C9_2 C 0.5745(2) 0.2453(6) 0.9349(5)
C10_2 C 0.6449(2) 0.2561(6) 0.9852(5)
C13_2 C 0.7546(2) 0.5479(7) 0.9125(5)
C14_2 C 0.7498(2) 0.9569(7) 0.0902(5)
C15_2 C 0.7532(2) 0.8305(6) 0.2376(5)
C16_2 C 0.7514(2) 0.6764(6) 0.7662(5)
N16_2 N 0.68078(18) 0.2672(6) 0.9802(5)
N21_2 N 0.7506(3) 0.6623(6) 0.8697(5)
N22_2 N 0.7566(2) 0.4559(6) 0.9556(5)
N25_2 N 0.7570(3) 0.8472(6) 0.1345(5)
N26_2 N 0.75084(19) 0.8014(6) 0.3254(5)
N28_2 N 0.7510(2) 0.7030(6) 0.6762(5)
S1 S 0.03603(5) 0.00499(19) 0.16040(12)
S3 S 0.11984(5) 0.05521(17) 0.27145(12)
S4 S 0.14701(6) 0.1168(2) 0.01265(16)
C17 C 0.01979(19) 0.0134(6) 0.0210(5)
C18 C 0.08746(18) 0.0514(5) 0.1494(5)
C19 C 0.0978(2) 0.0762(6) 0.0489(5)
C20 C 0.1682(5) 0.0208(16) 0.2202(15)
H1 H 0.1901 0.0204 0.2809
C21 C 0.1820(5) 0.1085(19) 0.1334(12)
H3 H 0.2093 0.0811 0.1147
H4 H 0.1854 0.1924 0.1639
H25 H 0.0143229 0.0887345 0.221716
S2 S 0.05833(6) 0.0596(2) 0.94135(13)
H2 H 0.1665 0.9363 0.1905
H6 H 0.8335 0.0637 0.8095
S6 S 0.94167(6) 0.9404(2) 0.05865(13)
S5 S 0.96397(5) 0.99501(19) 0.83960(12)
S7 S 0.88016(5) 0.94479(17) 0.72855(12)
S8 S 0.85299(6) 0.8832(2) 0.98735(16)
C22 C 0.98021(19) 0.9866(6) 0.9790(5)
C23 C 0.91254(18) 0.9486(5) 0.8506(5)
C24 C 0.9022(2) 0.9238(6) 0.9511(5)
C25 C 0.8318(5) 0.9792(16) 0.7798(15)
H5 H 0.8099 0.9796 0.7191
C26 C 0.8180(5) 0.8915(19) 0.8666(12)
H7 H 0.7907 0.9189 0.8853
H8 H 0.8146 0.8076 0.8361
H25_2 H 0.985677 0.911265 0.778284
S1_2 S 0.46397(5) 0.50499(19) 0.33960(12)
S2_2 S 0.44167(6) 0.5596(2) 0.55865(13)
S3_2 S 0.38016(5) 0.55521(17) 0.22855(12)
S4_2 S 0.35299(6) 0.6168(2) 0.48735(16)
C17_2 C 0.48021(19) 0.5134(6) 0.4790(5)
C18_2 C 0.41254(18) 0.5514(5) 0.3506(5)
C19_2 C 0.4022(2) 0.5762(6) 0.4511(5)
C20_2 C 0.3318(5) 0.5208(16) 0.2798(15)
H1_2 H 0.3099 0.5204 0.2191
H2_2 H 0.3335 0.4363 0.3095
C21_2 C 0.3180(5) 0.6085(19) 0.3666(12)
H3_2 H 0.2907 0.5811 0.3853
H4_2 H 0.3146 0.6924 0.3361
S5_2 S 0.53603(5) 0.49501(19) 0.66040(12)
S6_2 S 0.55833(6) 0.4404(2) 0.44135(13)
S7_2 S 0.61984(5) 0.44479(17) 0.77145(12)
S8_2 S 0.64701(6) 0.3832(2) 0.51265(16)
C22_2 C 0.51979(19) 0.4866(6) 0.5210(5)
C23_2 C 0.58746(18) 0.4486(5) 0.6494(5)
C24_2 C 0.5978(2) 0.4238(6) 0.5489(5)
C25_2 C 0.6682(5) 0.4792(16) 0.7202(15)
H5_2 H 0.6901 0.4796 0.7809
H6_2 H 0.6665 0.5637 0.6905
C26_2 C 0.6820(5) 0.3915(19) 0.6334(12)
H7_2 H 0.7093 0.4189 0.6147
H8_2 H 0.6854 0.3076 0.6639
H25_3 H 0.514323 0.411265 0.721716
H25_4 H 0.485677 0.588735 0.278284
S9 S 0.01657(8) 0.4088(2) 0.65635(18)
S10 S 0.06351(7) 0.5764(2) 0.52603(19)
S11 S 0.08766(9) 0.3518(3) 0.8183(2)
S12 S 0.14380(8) 0.5534(2) 0.6637(2)
C27 C 0.0170(2) 0.4968(7) 0.5375(6)
C28 C 0.0687(3) 0.4370(7) 0.7008(6)
C29 C 0.0909(2) 0.5103(6) 0.6427(6)
C30 C 0.1389(4) 0.4115(14) 0.8469(11)
H9 H 0.1369 0.4913 0.8840
H10 H 0.1543 0.3545 0.8979
C31 C 0.1639(3) 0.4312(11) 0.7579(10)
H11 H 0.1654 0.3529 0.7182
H12 H 0.1923 0.4532 0.7872
H26 H 0.0111218 0.54349 0.273263
S13 S 0.98343(8) 0.5912(2) 0.34365(18)
S14 S 0.93649(7) 0.4236(2) 0.47397(19)
S15 S 0.91234(9) 0.6482(3) 0.1817(2)
S16 S 0.85620(8) 0.4466(2) 0.3363(2)
C32 C 0.9830(2) 0.5032(7) 0.4625(6)
C33 C 0.9313(3) 0.5630(7) 0.2992(6)
C34 C 0.9091(2) 0.4897(6) 0.3573(6)
C35 C 0.8611(4) 0.5885(14) 0.1531(11)
H13 H 0.8631 0.5087 0.1160
H14 H 0.8457 0.6455 0.1021
C36 C 0.8361(3) 0.5688(11) 0.2421(10)
H15 H 0.8346 0.6471 0.2818
H16 H 0.8077 0.5468 0.2128
H26_2 H 0.988878 0.45651 0.726737
S13_2 S 0.51657(8) 0.0912(2) 0.15635(18)
S15_2 S 0.58766(9) 0.1482(3) 0.3183(2)
C32_2 C 0.5170(2) 0.0032(7) 0.0375(6)
C33_2 C 0.5687(3) 0.0630(7) 0.2008(6)
C35_2 C 0.6389(4) 0.0885(14) 0.3469(11)
H13_2 H 0.6369 0.0087 0.3840
H14_2 H 0.6543 0.1455 0.3979
C36_2 C 0.6639(3) 0.0688(11) 0.2579(10)
H15_2 H 0.6654 0.1471 0.2182
H16_2 H 0.6923 0.0468 0.2872
H26_3 H 0.488878 0.04349 0.226737
S10_2 S 0.43649(7) 0.0764(2) 0.97397(19)
S12_2 S 0.35620(8) 0.0534(2) 0.8363(2)
C29_2 C 0.4091(2) 0.0103(6) 0.8573(6)
S14_2 S 0.56351(7) 0.9236(2) 0.02603(19)
S16_2 S 0.64380(8) 0.9466(2) 0.1637(2)
C34_2 C 0.5909(2) 0.9897(6) 0.1427(6)
S9_2 S 0.48343(8) 0.9088(2) 0.84365(18)
S11_2 S 0.41234(9) 0.8518(3) 0.6817(2)
C27_2 C 0.4830(2) 0.9968(7) 0.9625(6)
C28_2 C 0.4313(3) 0.9370(7) 0.7992(6)
C30_2 C 0.3611(4) 0.9115(14) 0.6531(11)
H9_2 H 0.3631 0.9913 0.6160
H10_2 H 0.3457 0.8545 0.6021
C31_2 C 0.3361(3) 0.9312(11) 0.7421(10)
H11_2 H 0.3346 0.8529 0.7818
H12_2 H 0.3077 0.9532 0.7128
H26_4 H 0.511122 0.95651 0.773263
S17 S 0.04934(7) 0.38960(16) 0.08987(16)
S18 S 0.02944(6) 0.65562(15) 0.09241(15)
S19 S 0.12762(8) 0.40607(19) 0.2350(2)
S20 S 0.10378(7) 0.72678(16) 0.24067(16)
C37 C 0.0167(2) 0.5091(6) 0.0383(5)
C38 C 0.0843(2) 0.4849(6) 0.1702(6)
C39 C 0.0748(2) 0.6086(6) 0.1709(5)
C40 C 0.1523(3) 0.5288(9) 0.3204(8)
H17 H 0.1369 0.5385 0.3834
H18 H 0.1807 0.5023 0.3462
C41 C 0.1546(3) 0.6521(8) 0.2671(8)
H19 H 0.1666 0.6412 0.1989
H20 H 0.1732 0.7066 0.3129
H27 H 0.0287474 0.302861 0.150993
S21 S 0.95066(7) 0.61040(16) 0.91013(16)
S22 S 0.97056(6) 0.34438(15) 0.90759(15)
S23 S 0.87238(8) 0.59393(19) 0.7650(2)
S24 S 0.89622(7) 0.27322(16) 0.75933(16)
C42 C 0.9833(2) 0.4909(6) 0.9617(5)
C43 C 0.9157(2) 0.5151(6) 0.8298(6)
C44 C 0.9252(2) 0.3914(6) 0.8291(5)
C45 C 0.8477(3) 0.4712(9) 0.6796(8)
H21 H 0.8631 0.4615 0.6166
H22 H 0.8193 0.4977 0.6538
C46 C 0.8454(3) 0.3479(8) 0.7329(8)
H23 H 0.8334 0.3588 0.8011
H24 H 0.8268 0.2934 0.6871
H27_2 H 0.971253 0.697139 0.849007
S18_2 S 0.47056(6) 0.15562(15) 0.40759(15)
S20_2 S 0.39622(7) 0.22678(16) 0.25933(16)
C37_2 C 0.4833(2) 0.0091(6) 0.4617(5)
C39_2 C 0.4252(2) 0.1086(6) 0.3291(5)
C40_2 C 0.3477(3) 0.0288(9) 0.1796(8)
H17_2 H 0.3631 0.0385 0.1166
H18_2 H 0.3193 0.0023 0.1538
C41_2 C 0.3454(3) 0.1521(8) 0.2329(8)
H19_2 H 0.3334 0.1412 0.3011
H20_2 H 0.3268 0.2066 0.1871
S21_2 S 0.54934(7) 0.11040(16) 0.58987(16)
S23_2 S 0.62762(8) 0.09393(19) 0.7350(2)
C43_2 C 0.5843(2) 0.0151(6) 0.6702(6)
H27_3 H 0.528747 0.197139 0.650993
S17_2 S 0.45066(7) 0.88960(16) 0.41013(16)
S19_2 S 0.37238(8) 0.90607(19) 0.2650(2)
C38_2 C 0.4157(2) 0.9849(6) 0.3298(6)
S22_2 S 0.52944(6) 0.84438(15) 0.59241(15)
S24_2 S 0.60378(7) 0.77322(16) 0.74067(16)
C42_2 C 0.5167(2) 0.9909(6) 0.5383(5)
C44_2 C 0.5748(2) 0.8914(6) 0.6709(5)
C45_2 C 0.6523(3) 0.9712(9) 0.8204(8)
H21_2 H 0.6369 0.9615 0.8834
H22_2 H 0.6807 0.9977 0.8462
C46_2 C 0.6546(3) 0.8479(8) 0.7671(8)
H23_2 H 0.6666 0.8588 0.6989
H24_2 H 0.6732 0.7934 0.8129
H27_4 H 0.471253 0.802861 0.349007
loop_
_geom_bond_atom_site_label_1
_geom_bond_atom_site_label_2
_geom_bond_site_symmetry_1
_geom_bond_site_symmetry_2
Mn1 N3 1_555 1_555
C1 N1 1_555 1_555
C2 N2 1_555 1_555
C3 N4 1_555 1_555
C4 N5 1_555 1_555
C6 N9 1_555 1_555
C7 N10 1_555 1_555
N2 C1 1_555 1_555
N3 C2 1_555 1_555
N4 Mn1 1_555 1_555
N5 C3 1_555 1_555
N6 C4 1_555 1_555
N8 Mn1 1_555 1_555
N9 Mn1 1_555 1_555
N10 C6 1_555 1_555
N11 C7 1_555 1_555
Mn3 N16 1_555 1_555
Cu2 N6 1_555 1_555
Cu3 N13 1_555 1_555
C9 N13 1_555 1_555
C13 N21 1_555 1_555
C15 N25 1_555 1_555
C16 N21 1_555 1_555
N14 Cu2 1_555 1_555
N16 C10 1_555 1_555
N22 Mn3 1_555 1_555
N25 C14 1_555 1_555
N26 Mn1 1_555 1_555
N28 Mn1 1_555 1_555
N29 Mn3 1_555 1_555
C13 N22 1_555 1_555
C15 N26 1_555 1_555
C16 N28 1_555 1_555
C5 N7 1_555 1_555
C8 N7 1_555 1_555
N29 C8 1_555 1_555
C11 N17 1_555 1_555
C12 N19 1_555 1_555
N19 C11 1_555 1_555
N20 Cu1 1_555 1_555
C12 N20 1_555 1_555
Mn6_2 N17_2 1_555 1_555
C11_2 N17_2 1_555 1_555
C12_2 N19_2 1_555 1_555
N19_2 C11_2 1_555 1_555
N20_2 Cu3 1_555 1_555
C12_2 N20_2 1_555 1_555
C3_2 N18 1_555 1_555
C4_2 N5_2 1_555 1_555
N5_2 C3_2 1_555 1_555
N6_2 C4_2 1_555 1_555
Cu2_2 N6_2 1_555 1_555
C5_2 N7_2 1_555 1_555
C8_2 N7_2 1_555 1_555
N12 C8_2 1_555 1_555
Mn6 N12 1_555 1_555
Mn6_2 N3_2 1_555 1_555
C1_2 N14_2 1_555 1_555
C2_2 N2_2 1_555 1_555
C6_2 N9_2 1_555 1_555
C7_2 N10_2 1_555 1_555
N2_2 C1_2 1_555 1_555
N3_2 C2_2 1_555 1_555
N8_2 Mn6_2 1_555 1_555
N9_2 Mn6_2 1_555 1_555
N10_2 C6_2 1_555 1_555
N27 C7_2 1_555 1_555
Mn6 N16_2 1_555 1_555
C9_2 N14 1_555 1_555
C13_2 N21_2 1_555 1_555
C15_2 N25_2 1_555 1_555
C16_2 N21_2 1_555 1_555
N16_2 C10_2 1_555 1_555
N22_2 Mn6 1_555 1_555
N25_2 C14_2 1_555 1_555
N26_2 Mn6_2 1_555 1_555
N28_2 Mn6_2 1_555 1_555
C13_2 N22_2 1_555 1_555
C15_2 N26_2 1_555 1_555
C16_2 N28_2 1_555 1_555
S1 C17 1_555 1_555
S3 C18 1_555 1_555
S4 C19 1_555 1_555
C18 S1 1_555 1_555
C20 S3 1_555 1_555
H1 C20 1_555 1_555
C21 S4 1_555 1_555
H3 C21 1_555 1_555
H4 C21 1_555 1_555
C18 C19 1_555 1_555
C20 C21 1_555 1_555
S1 H25 1_555 1_555
S5 C22 1_555 1_555
S7 C23 1_555 1_555
S8 C24 1_555 1_555
C23 S5 1_555 1_555
C25 S7 1_555 1_555
H5 C25 1_555 1_555
C26 S8 1_555 1_555
H7 C26 1_555 1_555
H8 C26 1_555 1_555
C23 C24 1_555 1_555
C25 C26 1_555 1_555
S5 H25_2 1_555 1_555
S1_2 C17_2 1_555 1_555
S2_2 C17_2 1_555 1_555
S3_2 C18_2 1_555 1_555
S4_2 C19_2 1_555 1_555
C17_2 C22_2 1_555 1_555
C18_2 S1_2 1_555 1_555
C19_2 S2_2 1_555 1_555
C20_2 S3_2 1_555 1_555
H1_2 C20_2 1_555 1_555
H2_2 C20_2 1_555 1_555
C21_2 S4_2 1_555 1_555
H3_2 C21_2 1_555 1_555
H4_2 C21_2 1_555 1_555
S5_2 C22_2 1_555 1_555
S6_2 C22_2 1_555 1_555
S7_2 C23_2 1_555 1_555
S8_2 C24_2 1_555 1_555
C23_2 S5_2 1_555 1_555
C24_2 S6_2 1_555 1_555
C25_2 S7_2 1_555 1_555
H5_2 C25_2 1_555 1_555
H6_2 C25_2 1_555 1_555
C26_2 S8_2 1_555 1_555
H7_2 C26_2 1_555 1_555
H8_2 C26_2 1_555 1_555
C18_2 C19_2 1_555 1_555
C20_2 C21_2 1_555 1_555
C23_2 C24_2 1_555 1_555
C25_2 C26_2 1_555 1_555
S5_2 H25_3 1_555 1_555
S1_2 H25_4 1_555 1_555
S9 C27 1_555 1_555
S10 C27 1_555 1_555
S11 C28 1_555 1_555
S12 C29 1_555 1_555
C28 S9 1_555 1_555
C29 S10 1_555 1_555
C30 S11 1_555 1_555
H9 C30 1_555 1_555
H10 C30 1_555 1_555
C31 S12 1_555 1_555
H11 C31 1_555 1_555
H12 C31 1_555 1_555
C28 C29 1_555 1_555
C30 C31 1_555 1_555
S13 C32 1_555 1_555
S14 C32 1_555 1_555
S15 C33 1_555 1_555
S16 C34 1_555 1_555
C33 S13 1_555 1_555
C34 S14 1_555 1_555
C35 S15 1_555 1_555
H13 C35 1_555 1_555
H14 C35 1_555 1_555
C36 S16 1_555 1_555
H15 C36 1_555 1_555
H16 C36 1_555 1_555
C33 C34 1_555 1_555
C35 C36 1_555 1_555
S13_2 C32_2 1_555 1_555
S15_2 C33_2 1_555 1_555
C33_2 S13_2 1_555 1_555
C35_2 S15_2 1_555 1_555
H13_2 C35_2 1_555 1_555
H14_2 C35_2 1_555 1_555
H15_2 C36_2 1_555 1_555
H16_2 C36_2 1_555 1_555
C35_2 C36_2 1_555 1_555
S13_2 H26_3 1_555 1_555
S12_2 C29_2 1_555 1_555
C29_2 S10_2 1_555 1_555
S16_2 C34_2 1_555 1_555
C34_2 S14_2 1_555 1_555
S9_2 C27_2 1_555 1_555
S11_2 C28_2 1_555 1_555
C28_2 S9_2 1_555 1_555
C30_2 S11_2 1_555 1_555
H9_2 C30_2 1_555 1_555
H10_2 C30_2 1_555 1_555
H11_2 C31_2 1_555 1_555
H12_2 C31_2 1_555 1_555
C30_2 C31_2 1_555 1_555
S9_2 H26_4 1_555 1_555
S17 C37 1_555 1_555
S18 C37 1_555 1_555
S19 C38 1_555 1_555
S20 C39 1_555 1_555
C38 S17 1_555 1_555
C39 S18 1_555 1_555
C40 S19 1_555 1_555
H17 C40 1_555 1_555
H18 C40 1_555 1_555
C41 S20 1_555 1_555
H19 C41 1_555 1_555
H20 C41 1_555 1_555
C38 C39 1_555 1_555
C40 C41 1_555 1_555
S17 H27 1_555 1_555
S21 C42 1_555 1_555
S22 C42 1_555 1_555
S23 C43 1_555 1_555
S24 C44 1_555 1_555
C43 S21 1_555 1_555
C44 S22 1_555 1_555
C45 S23 1_555 1_555
H21 C45 1_555 1_555
H22 C45 1_555 1_555
C46 S24 1_555 1_555
H23 C46 1_555 1_555
H24 C46 1_555 1_555
C43 C44 1_555 1_555
C45 C46 1_555 1_555
S21 H27_2 1_555 1_555
S18_2 C37_2 1_555 1_555
S20_2 C39_2 1_555 1_555
C39_2 S18_2 1_555 1_555
H17_2 C40_2 1_555 1_555
H18_2 C40_2 1_555 1_555
C41_2 S20_2 1_555 1_555
H19_2 C41_2 1_555 1_555
H20_2 C41_2 1_555 1_555
S23_2 C43_2 1_555 1_555
C43_2 S21_2 1_555 1_555
C40_2 C41_2 1_555 1_555
S21_2 H27_3 1_555 1_555
S19_2 C38_2 1_555 1_555
C38_2 S17_2 1_555 1_555
S22_2 C42_2 1_555 1_555
S24_2 C44_2 1_555 1_555
C44_2 S22_2 1_555 1_555
H21_2 C45_2 1_555 1_555
H22_2 C45_2 1_555 1_555
C46_2 S24_2 1_555 1_555
H23_2 C46_2 1_555 1_555
H24_2 C46_2 1_555 1_555
C45_2 C46_2 1_555 1_555
S17_2 H27_4 1_555 1_555

#END
