
###############################################################################
#
# This file contains modified crystal structure data generated from the
# MOF subset of the Cambridge Structural Database (CSD) v543 
# hosted by the Cambridge Crystallographic Data Centre (CCDC).
#
# This work is licensed under the Creative Commons
# Attribution-NonCommercial-ShareAlike 4.0 International License.
# To view a copy of this license, visit
# http://creativecommons.org/licenses/by-nc-sa/4.0/
# or send a letter to
# Creative Commons, PO Box 1866, Mountain View, CA 94042, USA.
#
# CIF created using the CSD Python API on 29 September 2022
# The structure has been converted into the P1 space group
# The structure has a 3D framework
# The original CSD entry QIXSOG01 is in the monoclinic crystal system
# The framework has been calculated to contain at least 10.0% void space
# The void calculation uses a probe of radius 1.32A, grid spacing 0.4
# The framework is charged, counterions have been retained in the structure
# H atom positions have been added when not included in the experimental data
#
###############################################################################

data_QIXSOG01
_chemical_formula_moiety         '(C92 H60 Cu4 Mn4 N48 S48 2+)n'
_symmetry_cell_setting           triclinic
_symmetry_space_group_name_H-M   'P 1'
_symmetry_Int_Tables_number      1
_space_group_name_Hall           'P 1'
loop_
_symmetry_equiv_pos_site_id
_symmetry_equiv_pos_as_xyz
1 x,y,z
_cell_length_a                   31.936(2)
_cell_length_b                   10.664(6)
_cell_length_c                   12.361(7)
_cell_angle_alpha                90
_cell_angle_beta                 96.20(4)
_cell_angle_gamma                90
_cell_volume                     4185.11
loop_
_atom_site_label
_atom_site_type_symbol
_atom_site_fract_x
_atom_site_fract_y
_atom_site_fract_z
Mn3 Mn 0.25047(3) 0.75010(9) 0.00042(7)
Mn1 Mn 0.24953(3) 0.25010(9) 0.49958(7)
C1 C 0.0745(2) 0.2546(7) 0.4345(6)
C2 C 0.1451(3) 0.2451(6) 0.4847(5)
C3 C 0.3526(3) 0.2520(7) 0.5384(6)
C4 C 0.4201(3) 0.2397(9) 0.6267(7)
C6 C 0.2505(2) 0.5440(7) 0.5905(5)
C7 C 0.2527(2) 0.6713(6) 0.7383(6)
N1 N 0.0431(2) 0.2541(6) 0.3800(5)
N2 N 0.10618(19) 0.2558(7) 0.5034(5)
N3 N 0.1804(2) 0.2352(6) 0.4799(5)
N4 N 0.3180(2) 0.2615(6) 0.5216(5)
N5 N 0.3926(3) 0.2377(13) 0.5433(7)
N6 N 0.4486(2) 0.2402(7) 0.6900(6)
N8 N 0.2562(2) 0.0476(6) 0.4554(5)
N9 N 0.2461(2) 0.4515(6) 0.5440(5)
N10 N 0.2563(3) 0.6537(6) 0.6352(5)
N11 N 0.2511(2) 0.6998(6) 0.8256(5)
Cu2 Cu 0.49565(3) 0.24262(11) 0.78498(10)
Cu3 Cu 0.50435(3) 0.75738(11) 0.21502(10)
C9 C 0.4255(2) 0.7546(7) 0.0655(6)
C10 C 0.3549(3) 0.7451(6) 0.0153(5)
C13 C 0.2447(2) 0.4561(8) 0.0891(5)
C14 C 0.2495(2) 0.0440(7) 0.9095(5)
C15 C 0.2473(2) 0.1713(6) 0.7617(6)
C16 C 0.2482(2) 0.3270(6) 0.2348(6)
N13 N 0.4569(2) 0.7541(6) 0.1200(5)
N14 N 0.5431(2) 0.2459(6) 0.8800(5)
N16 N 0.3196(2) 0.7352(6) 0.0201(5)
N21 N 0.2495(3) 0.3429(6) 0.1310(5)
N22 N 0.2438(2) 0.5476(6) 0.0446(5)
N25 N 0.2437(3) 0.1537(6) 0.8648(5)
N26 N 0.2489(2) 0.1998(6) 0.6744(5)
N28 N 0.2488(2) 0.2994(6) 0.3248(5)
N29 N 0.2512(2) 0.7994(6) 0.1752(5)
N15 N 0.39382(19) 0.7558(7) 0.9966(5)
N18 N 0.1820(2) 0.7615(6) 0.9784(5)
N24 N 0.2539(2) 0.9515(6) 0.9560(5)
C5 C 0.2553(2) 0.9561(8) 0.4109(5)
C8 C 0.2518(2) 0.8270(6) 0.2652(6)
N7 N 0.2505(3) 0.8429(6) 0.3690(5)
Cu1 Cu 0.99565(3) 0.25738(11) 0.28498(10)
C11 C 0.8526(3) 0.2480(7) 0.0384(6)
C12 C 0.9201(3) 0.2603(9) 0.1267(7)
N17 N 0.8180(2) 0.2385(6) 0.0216(5)
N19 N 0.8926(3) 0.2623(13) 0.0433(7)
N20 N 0.9486(2) 0.2598(7) 0.1900(6)
Mn6 Mn 0.74953(3) 0.24990(9) 0.99958(7)
Mn6_2 Mn 0.75047(3) 0.74990(9) 0.50042(7)
C11_2 C 0.6474(3) 0.7480(7) 0.4616(6)
C12_2 C 0.5799(3) 0.7603(9) 0.3733(7)
N17_2 N 0.6820(2) 0.7385(6) 0.4784(5)
N19_2 N 0.6074(3) 0.7623(13) 0.4567(7)
N20_2 N 0.5514(2) 0.7598(7) 0.3100(6)
C3_2 C 0.1474(3) 0.7520(7) 0.9616(6)
C4_2 C 0.0799(3) 0.7397(9) 0.8733(7)
N5_2 N 0.1074(3) 0.7377(13) 0.9567(7)
N6_2 N 0.0514(2) 0.7402(7) 0.8100(6)
Cu2_2 Cu 0.00435(3) 0.74262(11) 0.71502(10)
N14_2 N 0.9569(2) 0.7459(6) 0.6200(5)
C5_2 C 0.7447(2) 0.0439(8) 0.5891(5)
C8_2 C 0.7482(2) 0.1730(6) 0.7348(6)
N7_2 N 0.7495(3) 0.1571(6) 0.6310(5)
N12 N 0.7488(2) 0.2006(6) 0.8248(5)
N23 N 0.7461(2) 0.0485(6) 0.0440(5)
N15_2 N 0.60618(19) 0.2442(7) 0.0034(5)
N27 N 0.7489(2) 0.3002(6) 0.1744(5)
C1_2 C 0.9255(2) 0.7454(7) 0.5655(6)
C2_2 C 0.8549(3) 0.7549(6) 0.5153(5)
C6_2 C 0.7495(2) 0.4560(7) 0.4095(5)
C7_2 C 0.7473(2) 0.3287(6) 0.2617(6)
N2_2 N 0.89382(19) 0.7442(7) 0.4966(5)
N3_2 N 0.8196(2) 0.7648(6) 0.5201(5)
N8_2 N 0.7438(2) 0.9524(6) 0.5446(5)
N9_2 N 0.7539(2) 0.5485(6) 0.4560(5)
N10_2 N 0.7437(3) 0.3463(6) 0.3648(5)
C9_2 C 0.5745(2) 0.2454(7) 0.9345(6)
C10_2 C 0.6451(3) 0.2549(6) 0.9847(5)
C13_2 C 0.7553(2) 0.5439(8) 0.9109(5)
C14_2 C 0.7505(2) 0.9560(7) 0.0905(5)
C15_2 C 0.7527(2) 0.8287(6) 0.2383(6)
C16_2 C 0.7518(2) 0.6730(6) 0.7652(6)
N16_2 N 0.6804(2) 0.2648(6) 0.9799(5)
N21_2 N 0.7505(3) 0.6571(6) 0.8690(5)
N22_2 N 0.7562(2) 0.4524(6) 0.9554(5)
N25_2 N 0.7563(3) 0.8463(6) 0.1352(5)
N26_2 N 0.7511(2) 0.8002(6) 0.3256(5)
N28_2 N 0.7512(2) 0.7006(6) 0.6752(5)
S1 S 0.03619(6) 0.0046(2) 0.16000(14)
S3 S 0.12002(6) 0.05636(19) 0.27048(14)
S4 S 0.14679(7) 0.1200(3) 0.01245(18)
C17 C 0.0198(2) 0.0145(6) 0.0212(5)
C18 C 0.0875(2) 0.0542(6) 0.1493(5)
C19 C 0.0975(2) 0.0780(6) 0.0502(5)
C20 C 0.1672(5) 0.019(2) 0.216(2)
H1 H 0.1895 0.0115 0.2752
C21 C 0.1814(6) 0.1109(19) 0.1345(13)
H3 H 0.2091 0.0866 0.1168
H4 H 0.1838 0.1934 0.1677
H27 H 0.0140747 0.0857748 0.222363
S2 S 0.05821(6) 0.0622(2) 0.94109(14)
H2 H 0.1639 0.9378 0.1808
H6 H 0.8361 0.0622 0.8192
S6 S 0.94179(6) 0.9378(2) 0.05891(14)
S5 S 0.96381(6) 0.9954(2) 0.84000(14)
S7 S 0.87998(6) 0.94364(19) 0.72952(14)
S8 S 0.85321(7) 0.8800(3) 0.98755(18)
C22 C 0.9802(2) 0.9855(6) 0.9788(5)
C23 C 0.9125(2) 0.9458(6) 0.8507(5)
C24 C 0.9025(2) 0.9220(6) 0.9498(5)
C25 C 0.8328(5) 0.981(2) 0.784(2)
H5 H 0.8105 0.9885 0.7248
C26 C 0.8186(6) 0.8891(19) 0.8655(13)
H7 H 0.7909 0.9134 0.8832
H8 H 0.8162 0.8066 0.8323
H27_2 H 0.985925 0.914225 0.777637
S1_2 S 0.46381(6) 0.5046(2) 0.34000(14)
S2_2 S 0.44179(6) 0.5622(2) 0.55891(14)
S3_2 S 0.37998(6) 0.55636(19) 0.22952(14)
S4_2 S 0.35321(7) 0.6200(3) 0.48755(18)
C17_2 C 0.4802(2) 0.5145(6) 0.4788(5)
C18_2 C 0.4125(2) 0.5542(6) 0.3507(5)
C19_2 C 0.4025(2) 0.5780(6) 0.4498(5)
C20_2 C 0.3328(5) 0.519(2) 0.284(2)
H1_2 H 0.3105 0.5115 0.2248
H2_2 H 0.3361 0.4378 0.3192
C21_2 C 0.3186(6) 0.6109(19) 0.3655(13)
H3_2 H 0.2909 0.5866 0.3832
H4_2 H 0.3162 0.6934 0.3323
S5_2 S 0.53619(6) 0.4954(2) 0.66000(14)
S6_2 S 0.55821(6) 0.4378(2) 0.44109(14)
S7_2 S 0.62002(6) 0.44364(19) 0.77048(14)
S8_2 S 0.64679(7) 0.3800(3) 0.51245(18)
C22_2 C 0.5198(2) 0.4855(6) 0.5212(5)
C23_2 C 0.5875(2) 0.4458(6) 0.6493(5)
C24_2 C 0.5975(2) 0.4220(6) 0.5502(5)
C25_2 C 0.6672(5) 0.481(2) 0.716(2)
H5_2 H 0.6895 0.4885 0.7752
H6_2 H 0.6639 0.5622 0.6808
C26_2 C 0.6814(6) 0.3891(19) 0.6345(13)
H7_2 H 0.7091 0.4134 0.6168
H8_2 H 0.6838 0.3066 0.6677
H27_3 H 0.514075 0.414225 0.722363
H27_4 H 0.485925 0.585775 0.277637
S9 S 0.01674(8) 0.4086(2) 0.65600(19)
S10 S 0.06330(8) 0.5781(2) 0.5267(2)
S11 S 0.08797(10) 0.3506(3) 0.8165(2)
S12 S 0.14360(8) 0.5544(3) 0.6641(2)
C27 C 0.0169(2) 0.4971(7) 0.5375(6)
C28 C 0.0694(3) 0.4351(7) 0.7001(6)
C29 C 0.0909(2) 0.5105(7) 0.6427(6)
C30 C 0.1391(5) 0.4101(15) 0.8449(12)
H9 H 0.1369 0.4882 0.8840
H10 H 0.1545 0.3520 0.8949
C31 C 0.1653(4) 0.4347(11) 0.7575(10)
H11 H 0.1685 0.3577 0.7174
H12 H 0.1931 0.4606 0.7891
H25 H 0.0105125 0.543607 0.272687
S13 S 0.98326(8) 0.5914(2) 0.34400(19)
S14 S 0.93670(8) 0.4219(2) 0.4733(2)
S15 S 0.91203(10) 0.6494(3) 0.1835(2)
S16 S 0.85640(8) 0.4456(3) 0.3359(2)
C32 C 0.9831(2) 0.5029(7) 0.4625(6)
C33 C 0.9306(3) 0.5649(7) 0.2999(6)
C34 C 0.9091(2) 0.4895(7) 0.3573(6)
C35 C 0.8609(5) 0.5899(15) 0.1551(12)
H13 H 0.8631 0.5118 0.1160
H14 H 0.8455 0.6480 0.1051
C36 C 0.8347(4) 0.5653(11) 0.2425(10)
H15 H 0.8315 0.6423 0.2826
H16 H 0.8069 0.5394 0.2109
H25_2 H 0.989487 0.456393 0.727313
S13_2 S 0.51674(8) 0.0914(2) 0.15600(19)
S15_2 S 0.58797(10) 0.1494(3) 0.3165(2)
C32_2 C 0.5169(2) 0.0029(7) 0.0375(6)
C33_2 C 0.5694(3) 0.0649(7) 0.2001(6)
C35_2 C 0.6391(5) 0.0899(15) 0.3449(12)
H13_2 H 0.6369 0.0118 0.3840
H14_2 H 0.6545 0.1480 0.3949
C36_2 C 0.6653(4) 0.0653(11) 0.2575(10)
H15_2 H 0.6685 0.1423 0.2174
H16_2 H 0.6931 0.0394 0.2891
H25_3 H 0.489487 0.043607 0.227313
S10_2 S 0.43670(8) 0.0781(2) 0.9733(2)
S12_2 S 0.35640(8) 0.0544(3) 0.8359(2)
C29_2 C 0.4091(2) 0.0105(7) 0.8573(6)
S14_2 S 0.56330(8) 0.9219(2) 0.0267(2)
S16_2 S 0.64360(8) 0.9456(3) 0.1641(2)
C34_2 C 0.5909(2) 0.9895(7) 0.1427(6)
S9_2 S 0.48326(8) 0.9086(2) 0.84400(19)
S11_2 S 0.41203(10) 0.8506(3) 0.6835(2)
C27_2 C 0.4831(2) 0.9971(7) 0.9625(6)
C28_2 C 0.4306(3) 0.9351(7) 0.7999(6)
C30_2 C 0.3609(5) 0.9101(15) 0.6551(12)
H9_2 H 0.3631 0.9882 0.6160
H10_2 H 0.3455 0.8520 0.6051
C31_2 C 0.3347(4) 0.9347(11) 0.7425(10)
H11_2 H 0.3315 0.8577 0.7826
H12_2 H 0.3069 0.9606 0.7109
H25_4 H 0.510513 0.956393 0.772687
S17 S 0.04984(7) 0.39081(18) 0.08846(17)
S18 S 0.02964(6) 0.65548(17) 0.09146(15)
S19 S 0.12778(8) 0.4074(2) 0.2351(2)
S20 S 0.10382(7) 0.72722(18) 0.24061(17)
C37 C 0.0170(2) 0.5096(6) 0.0383(5)
C38 C 0.0851(2) 0.4848(6) 0.1690(6)
C39 C 0.0749(2) 0.6089(7) 0.1703(6)
C40 C 0.1526(3) 0.5296(9) 0.3200(9)
H17 H 0.1377 0.5382 0.3839
H18 H 0.1812 0.5039 0.3445
C41 C 0.1541(3) 0.6527(8) 0.2675(8)
H19 H 0.1662 0.6427 0.1994
H20 H 0.1726 0.7071 0.3138
H26 H 0.0295275 0.30354 0.149405
S21 S 0.95016(7) 0.60919(18) 0.91154(17)
S22 S 0.97036(6) 0.34452(17) 0.90854(15)
S23 S 0.87222(8) 0.5926(2) 0.7649(2)
S24 S 0.89618(7) 0.27278(18) 0.75939(17)
C42 C 0.9830(2) 0.4904(6) 0.9617(5)
C43 C 0.9149(2) 0.5152(6) 0.8310(6)
C44 C 0.9251(2) 0.3911(7) 0.8297(6)
C45 C 0.8474(3) 0.4704(9) 0.6800(9)
H21 H 0.8623 0.4618 0.6161
H22 H 0.8188 0.4961 0.6555
C46 C 0.8459(3) 0.3473(8) 0.7325(8)
H23 H 0.8338 0.3573 0.8006
H24 H 0.8274 0.2929 0.6862
H26_2 H 0.970472 0.69646 0.850595
S18_2 S 0.47036(6) 0.15548(17) 0.40854(15)
S20_2 S 0.39618(7) 0.22722(18) 0.25939(17)
C37_2 C 0.4830(2) 0.0096(6) 0.4617(5)
C39_2 C 0.4251(2) 0.1089(7) 0.3297(6)
C40_2 C 0.3474(3) 0.0296(9) 0.1800(9)
H17_2 H 0.3623 0.0382 0.1161
H18_2 H 0.3188 0.0039 0.1555
C41_2 C 0.3459(3) 0.1527(8) 0.2325(8)
H19_2 H 0.3338 0.1427 0.3006
H20_2 H 0.3274 0.2071 0.1862
S21_2 S 0.54984(7) 0.10919(18) 0.58846(17)
S23_2 S 0.62778(8) 0.0926(2) 0.7351(2)
C43_2 C 0.5851(2) 0.0152(6) 0.6690(6)
H26_3 H 0.529528 0.19646 0.649405
S17_2 S 0.45016(7) 0.89081(18) 0.41154(17)
S19_2 S 0.37222(8) 0.9074(2) 0.2649(2)
C38_2 C 0.4149(2) 0.9848(6) 0.3310(6)
S22_2 S 0.52964(6) 0.84452(17) 0.59146(15)
S24_2 S 0.60382(7) 0.77278(18) 0.74061(17)
C42_2 C 0.5170(2) 0.9904(6) 0.5383(5)
C44_2 C 0.5749(2) 0.8911(7) 0.6703(6)
C45_2 C 0.6526(3) 0.9704(9) 0.8200(9)
H21_2 H 0.6377 0.9618 0.8839
H22_2 H 0.6812 0.9961 0.8445
C46_2 C 0.6541(3) 0.8473(8) 0.7675(8)
H23_2 H 0.6662 0.8573 0.6994
H24_2 H 0.6726 0.7929 0.8138
H26_4 H 0.470472 0.80354 0.350595
loop_
_geom_bond_atom_site_label_1
_geom_bond_atom_site_label_2
_geom_bond_site_symmetry_1
_geom_bond_site_symmetry_2
Mn1 N3 1_555 1_555
C1 N1 1_555 1_555
C2 N2 1_555 1_555
C3 N4 1_555 1_555
C4 N5 1_555 1_555
C6 N9 1_555 1_555
C7 N10 1_555 1_555
N2 C1 1_555 1_555
N3 C2 1_555 1_555
N4 Mn1 1_555 1_555
N5 C3 1_555 1_555
N6 C4 1_555 1_555
N8 Mn1 1_555 1_555
N9 Mn1 1_555 1_555
N10 C6 1_555 1_555
N11 C7 1_555 1_555
Mn3 N16 1_555 1_555
Cu2 N6 1_555 1_555
Cu3 N13 1_555 1_555
C9 N13 1_555 1_555
C13 N21 1_555 1_555
C15 N25 1_555 1_555
C16 N21 1_555 1_555
N14 Cu2 1_555 1_555
N16 C10 1_555 1_555
N22 Mn3 1_555 1_555
N25 C14 1_555 1_555
N26 Mn1 1_555 1_555
N28 Mn1 1_555 1_555
N29 Mn3 1_555 1_555
C13 N22 1_555 1_555
C15 N26 1_555 1_555
C16 N28 1_555 1_555
C5 N7 1_555 1_555
C8 N7 1_555 1_555
N29 C8 1_555 1_555
C11 N17 1_555 1_555
C12 N19 1_555 1_555
N19 C11 1_555 1_555
N20 Cu1 1_555 1_555
C12 N20 1_555 1_555
Mn6_2 N17_2 1_555 1_555
C11_2 N17_2 1_555 1_555
C12_2 N19_2 1_555 1_555
N19_2 C11_2 1_555 1_555
N20_2 Cu3 1_555 1_555
C12_2 N20_2 1_555 1_555
C3_2 N18 1_555 1_555
C4_2 N5_2 1_555 1_555
N5_2 C3_2 1_555 1_555
N6_2 C4_2 1_555 1_555
Cu2_2 N6_2 1_555 1_555
C5_2 N7_2 1_555 1_555
C8_2 N7_2 1_555 1_555
N12 C8_2 1_555 1_555
Mn6 N12 1_555 1_555
Mn6_2 N3_2 1_555 1_555
C1_2 N14_2 1_555 1_555
C2_2 N2_2 1_555 1_555
C6_2 N9_2 1_555 1_555
C7_2 N10_2 1_555 1_555
N2_2 C1_2 1_555 1_555
N3_2 C2_2 1_555 1_555
N8_2 Mn6_2 1_555 1_555
N9_2 Mn6_2 1_555 1_555
N10_2 C6_2 1_555 1_555
N27 C7_2 1_555 1_555
Mn6 N16_2 1_555 1_555
C9_2 N14 1_555 1_555
C13_2 N21_2 1_555 1_555
C15_2 N25_2 1_555 1_555
C16_2 N21_2 1_555 1_555
N16_2 C10_2 1_555 1_555
N22_2 Mn6 1_555 1_555
N25_2 C14_2 1_555 1_555
N26_2 Mn6_2 1_555 1_555
N28_2 Mn6_2 1_555 1_555
C13_2 N22_2 1_555 1_555
C15_2 N26_2 1_555 1_555
C16_2 N28_2 1_555 1_555
S1 C17 1_555 1_555
S3 C18 1_555 1_555
S4 C19 1_555 1_555
C18 S1 1_555 1_555
C20 S3 1_555 1_555
H1 C20 1_555 1_555
C21 S4 1_555 1_555
H3 C21 1_555 1_555
H4 C21 1_555 1_555
C18 C19 1_555 1_555
C20 C21 1_555 1_555
S1 H27 1_555 1_555
S5 C22 1_555 1_555
S7 C23 1_555 1_555
S8 C24 1_555 1_555
C23 S5 1_555 1_555
C25 S7 1_555 1_555
H5 C25 1_555 1_555
C26 S8 1_555 1_555
H7 C26 1_555 1_555
H8 C26 1_555 1_555
C23 C24 1_555 1_555
C25 C26 1_555 1_555
S5 H27_2 1_555 1_555
S1_2 C17_2 1_555 1_555
S2_2 C17_2 1_555 1_555
S3_2 C18_2 1_555 1_555
S4_2 C19_2 1_555 1_555
C17_2 C22_2 1_555 1_555
C18_2 S1_2 1_555 1_555
C19_2 S2_2 1_555 1_555
C20_2 S3_2 1_555 1_555
H1_2 C20_2 1_555 1_555
H2_2 C20_2 1_555 1_555
C21_2 S4_2 1_555 1_555
H3_2 C21_2 1_555 1_555
H4_2 C21_2 1_555 1_555
S5_2 C22_2 1_555 1_555
S6_2 C22_2 1_555 1_555
S7_2 C23_2 1_555 1_555
S8_2 C24_2 1_555 1_555
C23_2 S5_2 1_555 1_555
C24_2 S6_2 1_555 1_555
C25_2 S7_2 1_555 1_555
H5_2 C25_2 1_555 1_555
H6_2 C25_2 1_555 1_555
C26_2 S8_2 1_555 1_555
H7_2 C26_2 1_555 1_555
H8_2 C26_2 1_555 1_555
C18_2 C19_2 1_555 1_555
C20_2 C21_2 1_555 1_555
C23_2 C24_2 1_555 1_555
C25_2 C26_2 1_555 1_555
S5_2 H27_3 1_555 1_555
S1_2 H27_4 1_555 1_555
S9 C27 1_555 1_555
S10 C27 1_555 1_555
S11 C28 1_555 1_555
S12 C29 1_555 1_555
C28 S9 1_555 1_555
C29 S10 1_555 1_555
C30 S11 1_555 1_555
H9 C30 1_555 1_555
H10 C30 1_555 1_555
C31 S12 1_555 1_555
H11 C31 1_555 1_555
H12 C31 1_555 1_555
C28 C29 1_555 1_555
C30 C31 1_555 1_555
S13 C32 1_555 1_555
S14 C32 1_555 1_555
S15 C33 1_555 1_555
S16 C34 1_555 1_555
C33 S13 1_555 1_555
C34 S14 1_555 1_555
C35 S15 1_555 1_555
H13 C35 1_555 1_555
H14 C35 1_555 1_555
C36 S16 1_555 1_555
H15 C36 1_555 1_555
H16 C36 1_555 1_555
C33 C34 1_555 1_555
C35 C36 1_555 1_555
S13_2 C32_2 1_555 1_555
S15_2 C33_2 1_555 1_555
C33_2 S13_2 1_555 1_555
C35_2 S15_2 1_555 1_555
H13_2 C35_2 1_555 1_555
H14_2 C35_2 1_555 1_555
H15_2 C36_2 1_555 1_555
H16_2 C36_2 1_555 1_555
C35_2 C36_2 1_555 1_555
S13_2 H25_3 1_555 1_555
S12_2 C29_2 1_555 1_555
C29_2 S10_2 1_555 1_555
S16_2 C34_2 1_555 1_555
C34_2 S14_2 1_555 1_555
S9_2 C27_2 1_555 1_555
S11_2 C28_2 1_555 1_555
C28_2 S9_2 1_555 1_555
C30_2 S11_2 1_555 1_555
H9_2 C30_2 1_555 1_555
H10_2 C30_2 1_555 1_555
H11_2 C31_2 1_555 1_555
H12_2 C31_2 1_555 1_555
C30_2 C31_2 1_555 1_555
S9_2 H25_4 1_555 1_555
S17 C37 1_555 1_555
S18 C37 1_555 1_555
S19 C38 1_555 1_555
S20 C39 1_555 1_555
C38 S17 1_555 1_555
C39 S18 1_555 1_555
C40 S19 1_555 1_555
H17 C40 1_555 1_555
H18 C40 1_555 1_555
C41 S20 1_555 1_555
H19 C41 1_555 1_555
H20 C41 1_555 1_555
C38 C39 1_555 1_555
C40 C41 1_555 1_555
S17 H26 1_555 1_555
S21 C42 1_555 1_555
S22 C42 1_555 1_555
S23 C43 1_555 1_555
S24 C44 1_555 1_555
C43 S21 1_555 1_555
C44 S22 1_555 1_555
C45 S23 1_555 1_555
H21 C45 1_555 1_555
H22 C45 1_555 1_555
C46 S24 1_555 1_555
H23 C46 1_555 1_555
H24 C46 1_555 1_555
C43 C44 1_555 1_555
C45 C46 1_555 1_555
S21 H26_2 1_555 1_555
S18_2 C37_2 1_555 1_555
S20_2 C39_2 1_555 1_555
C39_2 S18_2 1_555 1_555
H17_2 C40_2 1_555 1_555
H18_2 C40_2 1_555 1_555
C41_2 S20_2 1_555 1_555
H19_2 C41_2 1_555 1_555
H20_2 C41_2 1_555 1_555
S23_2 C43_2 1_555 1_555
C43_2 S21_2 1_555 1_555
C40_2 C41_2 1_555 1_555
S21_2 H26_3 1_555 1_555
S19_2 C38_2 1_555 1_555
C38_2 S17_2 1_555 1_555
S22_2 C42_2 1_555 1_555
S24_2 C44_2 1_555 1_555
C44_2 S22_2 1_555 1_555
H21_2 C45_2 1_555 1_555
H22_2 C45_2 1_555 1_555
C46_2 S24_2 1_555 1_555
H23_2 C46_2 1_555 1_555
H24_2 C46_2 1_555 1_555
C45_2 C46_2 1_555 1_555
S17_2 H26_4 1_555 1_555

#END
