
###############################################################################
#
# This file contains modified crystal structure data generated from the
# MOF subset of the Cambridge Structural Database (CSD) v543 
# hosted by the Cambridge Crystallographic Data Centre (CCDC).
#
# This work is licensed under the Creative Commons
# Attribution-NonCommercial-ShareAlike 4.0 International License.
# To view a copy of this license, visit
# http://creativecommons.org/licenses/by-nc-sa/4.0/
# or send a letter to
# Creative Commons, PO Box 1866, Mountain View, CA 94042, USA.
#
# CIF created using the CSD Python API on 29 September 2022
# The structure has been converted into the P1 space group
# The structure has a 3D framework
# The original CSD entry QIYFAI is in the orthorhombic crystal system
# The framework has been calculated to contain at least 10.0% void space
# The void calculation uses a probe of radius 1.32A, grid spacing 0.4
# H atom positions have been added when not included in the experimental data
#
###############################################################################

data_QIYFAI
_chemical_formula_moiety         '(C276 H200 Dy8 O84)n'
_symmetry_cell_setting           triclinic
_symmetry_space_group_name_H-M   'P 1'
_symmetry_Int_Tables_number      1
_space_group_name_Hall           'P 1'
loop_
_symmetry_equiv_pos_site_id
_symmetry_equiv_pos_as_xyz
1 x,y,z
_cell_length_a                   19.1250(4)
_cell_length_b                   14.0164(3)
_cell_length_c                   30.3182(7)
_cell_angle_alpha                90
_cell_angle_beta                 90
_cell_angle_gamma                90
_cell_volume                     8127.21
loop_
_atom_site_label
_atom_site_type_symbol
_atom_site_fract_x
_atom_site_fract_y
_atom_site_fract_z
O5 O 0.02080(19) 0.0229(3) 0.85254(14)
H18 H 0.0082 0.0073 0.7272
C23 C 0.0250(3) 0.0041(3) 0.8121(2)
Dy5 Dy 0.140670(13) 0.045191(17) 0.874341(10)
O6 O 0.08292(18) 0.9895(3) 0.79573(15)
H45 H 0.0110 0.3751 0.5958
H46 H 0.0105 0.2881 0.5263
Dy7 Dy 0.178504(14) 0.971497(17) 0.751279(10)
Dy1 Dy 0.640670(13) 0.454809(17) 0.874341(10)
Dy2 Dy 0.678504(14) 0.528503(17) 0.751279(10)
O1 O 0.6632(2) 0.6182(3) 0.86479(13)
O2 O 0.6961(2) 0.6578(2) 0.79637(12)
O3 O 0.7303(2) 0.8338(3) 0.77888(13)
H1 H 0.6933 0.8101 0.7706
O7 O 0.62470(19) 0.3270(2) 0.82427(12)
O8 O 0.66116(17) 0.3654(2) 0.75584(13)
O9 O 0.5906(2) 0.1523(3) 0.84212(12)
H3 H 0.6136 0.1996 0.8487
O11 O 0.29724(18) 0.0075(3) 0.76579(13)
O12 O 0.23428(17) 0.0269(2) 0.82594(13)
O13 O 0.6528(3) 0.4763(3) 0.68191(15)
O14 O 0.5955(3) 0.5793(4) 0.64077(15)
O15 O 0.6991(2) 0.3220(3) 0.64856(12)
H5 H 0.6952 0.3652 0.6666
O16 O 0.7405(2) 0.0603(3) 0.51229(17)
H6 H 0.7552 0.0092 0.5030
O18 O 0.9163(2) 0.0384(3) 0.43376(14)
O19 O 0.7220(2) 0.3294(3) 0.89391(15)
H7 H 0.7477 0.3431 0.9188
H8 H 0.7541 0.3174 0.8720
O20 O 0.5760(3) 0.3372(3) 0.91424(16)
O21 O 0.6054(2) 0.6498(3) 0.72186(14)
H9 H 0.5719 0.6677 0.7412
H10 H 0.5831 0.6304 0.6972
O22 O 0.7531(3) 0.6252(4) 0.7044(2)
C1 C 0.7117(3) 0.9049(5) 0.9590(2)
H11 H 0.6993 0.8559 0.9781
C2 C 0.7242(4) 0.9915(6) 0.9753(3)
C5 C 0.7388(3) 0.9582(3) 0.8833(2)
C6 C 0.7169(3) 0.8854(4) 0.9137(2)
C7 C 0.7023(3) 0.7932(4) 0.8957(2)
H15 H 0.6897 0.7439 0.9146
C8 C 0.7060(3) 0.7759(3) 0.85272(19)
C9 C 0.7279(2) 0.8482(4) 0.8231(2)
C10 C 0.7443(2) 0.9372(3) 0.8390(2)
H19 H 0.7347 0.9974 0.7136
C22 C 0.6888(3) 0.6755(4) 0.83695(18)
C24 C 0.6034(3) 0.0792(5) 0.6625(2)
H23 H 0.6141 0.1279 0.6428
C28 C 0.5805(2) 0.0255(3) 0.7379(2)
C29 C 0.6007(3) 0.0983(4) 0.70811(18)
C30 C 0.6175(3) 0.1890(4) 0.72433(16)
H27 H 0.6300 0.2366 0.7045
C31 C 0.6162(2) 0.2098(3) 0.76804(18)
C32 C 0.5954(2) 0.1371(3) 0.79903(17)
C33 C 0.5773(2) 0.0461(3) 0.78362(19)
C37 C 0.3594(3) 0.0083(3) 0.8355(2)
C38 C 0.3539(3) 0.0084(4) 0.8796(2)
H30 H 0.3098 0.0137 0.8923
C39 C 0.4129(3) 0.0008(6) 0.9076(2)
H34 H 0.3614 0.0051 0.9664
C45 C 0.6359(3) 0.3080(3) 0.78436(18)
C46 C 0.2946(2) 0.0166(3) 0.80850(19)
C47 C 0.5868(5) 0.4314(7) 0.4874(2)
H35 H 0.5617 0.4879 0.4854
C48 C 0.5929(4) 0.3763(7) 0.4522(2)
H36 H 0.5766 0.3974 0.4250
C49 C 0.6223(4) 0.2909(7) 0.4558(2)
H37 H 0.6222 0.2508 0.4314
C50 C 0.6536(3) 0.2588(6) 0.4952(2)
H38 H 0.6747 0.1991 0.4969
C51 C 0.6518(3) 0.3197(5) 0.53173(19)
C52 C 0.6174(4) 0.4063(6) 0.52768(19)
C53 C 0.6112(4) 0.4684(5) 0.5659(2)
H39 H 0.5898 0.5277 0.5631
C54 C 0.6371(4) 0.4395(5) 0.6067(2)
C55 C 0.6735(3) 0.3504(5) 0.61009(18)
C56 C 0.6829(3) 0.2892(4) 0.57392(18)
C57 C 0.7209(3) 0.1937(5) 0.57960(19)
H40 H 0.6896 0.1427 0.5706
H41 H 0.7312 0.1847 0.6106
C58 C 0.7895(3) 0.1849(4) 0.55320(19)
C59 C 0.7953(3) 0.1187(4) 0.52037(19)
C60 C 0.8567(3) 0.1133(4) 0.49365(18)
C61 C 0.9126(3) 0.1682(5) 0.5021(2)
H42 H 0.9528 0.1626 0.4850
C62 C 0.9100(3) 0.2342(5) 0.5370(2)
C63 C 0.8488(3) 0.2417(5) 0.56348(19)
C64 C 0.8511(4) 0.3061(6) 0.6009(2)
H43 H 0.8127 0.3119 0.6195
C65 C 0.9089(5) 0.3572(7) 0.6082(3)
H44 H 0.9074 0.4034 0.6302
C66 C 0.9704(5) 0.3462(7) 0.5855(3)
C67 C 0.9722(5) 0.2890(7) 0.5451(3)
C68 C 0.6251(4) 0.5040(5) 0.6443(2)
C69 C 0.8622(3) 0.0477(4) 0.45538(18)
O23 O 0.52080(19) 0.4771(3) 0.85254(14)
O24 O 0.58292(18) 0.5105(3) 0.79573(15)
O25 O 0.79724(18) 0.4925(3) 0.76579(13)
O26 O 0.73428(17) 0.4731(2) 0.82594(13)
O27 O 0.6935(2) 0.4990(3) 0.94293(15)
O28 O 0.5837(2) 0.5384(3) 0.93376(14)
H47 H 0.525164 0.34804 0.909849
H48 H 0.588657 0.272678 0.903321
H49 H 0.798564 0.63618 0.719382
H50 H 0.76119 0.591538 0.676036
O10 O 0.43155(19) 0.9888(3) 0.77109(14)
H4 H 0.3940 0.9725 0.7605
O17 O 0.8065(2) 0.9990(3) 0.44293(15)
C25 C 0.5902(4) 0.9882(5) 0.6471(2)
H24 H 0.5938 0.9753 0.6170
C26 C 0.5715(4) 0.9160(5) 0.6759(2)
H25 H 0.5614 0.8555 0.6651
C27 C 0.5679(3) 0.9327(4) 0.7195(2)
H26 H 0.5570 0.8826 0.7384
C34 C 0.5558(2) 0.9723(3) 0.8174(2)
H28 H 0.5920 0.9693 0.8398
H29 H 0.5545 0.9106 0.8030
C35 C 0.4846(3) 0.9880(4) 0.8410(2)
C36 C 0.4255(2) 0.9950(3) 0.81586(18)
C40 C 0.4795(3) 0.9869(4) 0.8865(2)
C41 C 0.5379(3) 0.9751(6) 0.9166(2)
H31 H 0.5831 0.9710 0.9054
C42 C 0.5277(4) 0.9698(9) 0.9605(3)
H32 H 0.5662 0.9591 0.9786
C43 C 0.4627(4) 0.9797(9) 0.9801(3)
C44 C 0.4052(4) 0.9965(7) 0.9537(3)
Dy3 Dy 0.859330(13) 0.954809(17) 0.374341(10)
O10_2 O 0.56845(19) 0.0112(3) 0.27109(14)
H4_2 H 0.6060 0.0275 0.2605
C25_2 C 0.4098(4) 0.0118(5) 0.1471(2)
H24_2 H 0.4062 0.0247 0.1170
C26_2 C 0.4285(4) 0.0840(5) 0.1759(2)
H25_2 H 0.4386 0.1445 0.1651
C27_2 C 0.4321(3) 0.0673(4) 0.2195(2)
H26_2 H 0.4430 0.1174 0.2384
C34_2 C 0.4442(2) 0.0277(3) 0.3174(2)
H28_2 H 0.4080 0.0307 0.3398
H29_2 H 0.4455 0.0894 0.3030
C35_2 C 0.5154(3) 0.0120(4) 0.3410(2)
C36_2 C 0.5745(2) 0.0050(3) 0.31586(18)
C40_2 C 0.5205(3) 0.0131(4) 0.3865(2)
C41_2 C 0.4621(3) 0.0249(6) 0.4166(2)
H31_2 H 0.4169 0.0290 0.4054
C42_2 C 0.4723(4) 0.0302(9) 0.4605(3)
H32_2 H 0.4338 0.0409 0.4786
C43_2 C 0.5373(4) 0.0203(9) 0.4801(3)
H33 H 0.5422 0.0250 0.5105
C44_2 C 0.5948(4) 0.0035(7) 0.4537(3)
Dy6 Dy 0.821496(14) 0.028503(17) 0.251279(10)
O17_2 O 0.1935(2) 0.0010(3) 0.94293(15)
Dy1_2 Dy 0.359330(13) 0.545191(17) 0.374341(10)
Dy2_2 Dy 0.321496(14) 0.471497(17) 0.251279(10)
O1_2 O 0.3368(2) 0.3818(3) 0.36479(13)
O2_2 O 0.3039(2) 0.3422(2) 0.29637(12)
O3_2 O 0.2697(2) 0.1662(3) 0.27888(13)
H1_2 H 0.3067 0.1899 0.2706
O7_2 O 0.37530(19) 0.6730(2) 0.32427(12)
O8_2 O 0.33884(17) 0.6346(2) 0.25584(13)
O9_2 O 0.4094(2) 0.8477(3) 0.34212(12)
H3_2 H 0.3864 0.8004 0.3487
O11_2 O 0.70276(18) 0.9925(3) 0.26579(13)
O12_2 O 0.76572(17) 0.9731(2) 0.32594(13)
O13_2 O 0.3472(3) 0.5237(3) 0.18191(15)
O14_2 O 0.4045(3) 0.4207(4) 0.14077(15)
O15_2 O 0.3009(2) 0.6780(3) 0.14856(12)
H5_2 H 0.3048 0.6348 0.1666
O16_2 O 0.2595(2) 0.9397(3) 0.01229(17)
H6_2 H 0.2448 0.9908 0.0030
O19_2 O 0.2780(2) 0.6706(3) 0.39391(15)
H7_2 H 0.2523 0.6569 0.4188
H8_2 H 0.2459 0.6826 0.3720
O20_2 O 0.4240(3) 0.6628(3) 0.41424(16)
O21_2 O 0.3946(2) 0.3502(3) 0.22186(14)
H9_2 H 0.4281 0.3323 0.2412
H10_2 H 0.4169 0.3696 0.1972
O22_2 O 0.2469(3) 0.3748(4) 0.2044(2)
C1_2 C 0.2883(3) 0.0951(5) 0.4590(2)
H11_2 H 0.3007 0.1441 0.4781
C2_2 C 0.2758(4) 0.0085(6) 0.4753(3)
C5_2 C 0.2612(3) 0.0418(3) 0.3833(2)
C6_2 C 0.2831(3) 0.1146(4) 0.4137(2)
C7_2 C 0.2977(3) 0.2068(4) 0.3957(2)
H15_2 H 0.3103 0.2561 0.4146
C8_2 C 0.2940(3) 0.2241(3) 0.35272(19)
C9_2 C 0.2721(2) 0.1518(4) 0.3231(2)
C10_2 C 0.2557(2) 0.0628(3) 0.3390(2)
H19_2 H 0.2653 0.0026 0.2136
C22_2 C 0.3112(3) 0.3245(4) 0.33695(18)
C24_2 C 0.3966(3) 0.9208(5) 0.1625(2)
H23_2 H 0.3859 0.8721 0.1428
C28_2 C 0.4195(2) 0.9745(3) 0.2379(2)
C29_2 C 0.3993(3) 0.9017(4) 0.20811(18)
C30_2 C 0.3825(3) 0.8110(4) 0.22433(16)
H27_2 H 0.3700 0.7634 0.2045
C31_2 C 0.3838(2) 0.7902(3) 0.26804(18)
C32_2 C 0.4046(2) 0.8629(3) 0.29903(17)
C33_2 C 0.4227(2) 0.9539(3) 0.28362(19)
C37_2 C 0.6406(3) 0.9917(3) 0.3355(2)
C38_2 C 0.6461(3) 0.9916(4) 0.3796(2)
H30_2 H 0.6902 0.9863 0.3923
C39_2 C 0.5871(3) 0.9992(6) 0.4076(2)
H34_2 H 0.6386 0.9949 0.4664
C45_2 C 0.3641(3) 0.6920(3) 0.28436(18)
C46_2 C 0.7054(2) 0.9834(3) 0.30850(19)
C51_2 C 0.3482(3) 0.6803(5) 0.03173(19)
C52_2 C 0.3826(4) 0.5937(6) 0.02768(19)
C53_2 C 0.3888(4) 0.5316(5) 0.0659(2)
H39_2 H 0.4102 0.4723 0.0631
C54_2 C 0.3629(4) 0.5605(5) 0.1067(2)
C55_2 C 0.3265(3) 0.6496(5) 0.11009(18)
C56_2 C 0.3171(3) 0.7108(4) 0.07392(18)
C57_2 C 0.2791(3) 0.8063(5) 0.07960(19)
H40_2 H 0.3104 0.8573 0.0706
H41_2 H 0.2688 0.8153 0.1106
C58_2 C 0.2105(3) 0.8151(4) 0.05320(19)
C59_2 C 0.2047(3) 0.8813(4) 0.02037(19)
C61_2 C 0.0874(3) 0.8318(5) 0.0021(2)
C62_2 C 0.0900(3) 0.7658(5) 0.0370(2)
C63_2 C 0.1512(3) 0.7583(5) 0.06348(19)
C64_2 C 0.1489(4) 0.6939(6) 0.1009(2)
H43_2 H 0.1873 0.6881 0.1195
C65_2 C 0.0911(5) 0.6428(7) 0.1082(3)
H44_2 H 0.0926 0.5966 0.1302
C66_2 C 0.0296(5) 0.6538(7) 0.0855(3)
C67_2 C 0.0278(5) 0.7110(7) 0.0451(3)
C68_2 C 0.3749(4) 0.4960(5) 0.1443(2)
O23_2 O 0.47920(19) 0.5229(3) 0.35254(14)
O24_2 O 0.41708(18) 0.4895(3) 0.29573(15)
O25_2 O 0.20276(18) 0.5075(3) 0.26579(13)
O26_2 O 0.26572(17) 0.5269(2) 0.32594(13)
O27_2 O 0.3065(2) 0.5010(3) 0.44293(15)
O28_2 O 0.4163(2) 0.4616(3) 0.43376(14)
H47_2 H 0.474836 0.65196 0.409849
H48_2 H 0.411343 0.727322 0.403321
H49_2 H 0.201436 0.36382 0.219382
H50_2 H 0.23881 0.408462 0.176036
O18_2 O 0.0837(2) 0.9616(3) 0.93376(14)
C47_2 C 0.4132(5) 0.5686(7) 0.9874(2)
H35_2 H 0.4383 0.5121 0.9854
C48_2 C 0.4071(4) 0.6237(7) 0.9522(2)
H36_2 H 0.4234 0.6026 0.9250
C49_2 C 0.3777(4) 0.7091(7) 0.9558(2)
H37_2 H 0.3778 0.7492 0.9314
C50_2 C 0.3464(3) 0.7412(6) 0.9952(2)
H38_2 H 0.3253 0.8009 0.9969
C60_2 C 0.1433(3) 0.8867(4) 0.99365(18)
H42_2 H 0.0472 0.8374 0.9850
C69_2 C 0.1378(3) 0.9523(4) 0.95538(18)
O6_2 O 0.91708(18) 0.0105(3) 0.29573(15)
H45_2 H 0.9890 0.6249 0.0958
H46_2 H 0.9895 0.7119 0.0263
O5_2 O 0.97920(19) 0.9771(3) 0.35254(14)
H18_2 H 0.9918 0.9927 0.2272
C23_2 C 0.9750(3) 0.9959(3) 0.3121(2)
O10_3 O 0.06845(19) 0.4888(3) 0.27109(14)
H4_3 H 0.1060 0.4725 0.2605
C35_3 C 0.0154(3) 0.4880(4) 0.3410(2)
C36_3 C 0.0745(2) 0.4950(3) 0.31586(18)
C37_3 C 0.1406(3) 0.5083(3) 0.3355(2)
C38_3 C 0.1461(3) 0.5084(4) 0.3796(2)
H30_3 H 0.1902 0.5137 0.3923
C39_3 C 0.0871(3) 0.5008(6) 0.4076(2)
C40_3 C 0.0205(3) 0.4869(4) 0.3865(2)
C43_3 C 0.0373(4) 0.4797(9) 0.4801(3)
H33_2 H 0.0422 0.4750 0.5105
C44_3 C 0.0948(4) 0.4965(7) 0.4537(3)
H34_3 H 0.1386 0.5051 0.4664
C46_3 C 0.2054(2) 0.5166(3) 0.30850(19)
O1_3 O 0.8368(2) 0.1182(3) 0.36479(13)
O2_3 O 0.8039(2) 0.1578(2) 0.29637(12)
O3_3 O 0.7697(2) 0.3338(3) 0.27888(13)
H1_3 H 0.8067 0.3101 0.2706
O4 O 0.6131(2) 0.5138(3) 0.34906(15)
H2 H 0.5744 0.5240 0.3597
O14_3 O 0.9045(3) 0.0793(4) 0.14077(15)
O21_3 O 0.8946(2) 0.1498(3) 0.22186(14)
H9_3 H 0.9281 0.1677 0.2412
H10_3 H 0.9169 0.1304 0.1972
O22_3 O 0.7469(3) 0.1252(4) 0.2044(2)
C1_3 C 0.7883(3) 0.4049(5) 0.4590(2)
H11_3 H 0.8007 0.3559 0.4781
C2_3 C 0.7758(4) 0.4915(6) 0.4753(3)
H12 H 0.7795 0.5030 0.5054
C3 C 0.7565(4) 0.5671(5) 0.4452(3)
H13 H 0.7505 0.6288 0.4560
C4 C 0.7475(4) 0.5504(4) 0.4036(3)
H14 H 0.7315 0.5998 0.3858
C5_3 C 0.7612(3) 0.4582(3) 0.3833(2)
C6_3 C 0.7831(3) 0.3854(4) 0.4137(2)
C7_3 C 0.7977(3) 0.2932(4) 0.3957(2)
H15_3 H 0.8103 0.2439 0.4146
C8_3 C 0.7940(3) 0.2759(3) 0.35272(19)
C9_3 C 0.7721(2) 0.3482(4) 0.3231(2)
C10_3 C 0.7557(2) 0.4372(3) 0.3390(2)
C11 C 0.7378(2) 0.5174(3) 0.3029(2)
H16 H 0.7746 0.5177 0.2809
H17 H 0.7380 0.5792 0.3173
C12 C 0.6683(3) 0.5044(3) 0.2798(2)
C13 C 0.6078(3) 0.5070(3) 0.3050(2)
C14 C 0.5396(3) 0.5029(4) 0.28455(19)
C15 C 0.5357(3) 0.5058(4) 0.2404(2)
H18_3 H 0.4918 0.5073 0.2272
C16 C 0.5949(3) 0.5066(4) 0.2133(2)
C17 C 0.6627(3) 0.5029(4) 0.2330(3)
C18 C 0.7200(4) 0.5032(6) 0.2027(3)
H19_3 H 0.7653 0.4974 0.2136
C19 C 0.7111(5) 0.5113(7) 0.1602(3)
H20 H 0.7506 0.5153 0.1424
C20 C 0.6459(5) 0.5143(8) 0.1400(3)
H21 H 0.6412 0.5188 0.1095
C21 C 0.5886(5) 0.5103(7) 0.1674(3)
H22 H 0.5441 0.5101 0.1549
C22_3 C 0.8112(3) 0.1755(4) 0.33695(18)
C23_3 C 0.4750(3) 0.5041(3) 0.3121(2)
H39_3 H 0.9102 0.0277 0.0631
C68_3 C 0.8749(4) 0.0040(5) 0.1443(2)
H49_3 H 0.701436 0.13618 0.219382
H50_3 H 0.73881 0.0915376 0.176036
O7_3 O 0.87530(19) 0.8270(2) 0.32427(12)
O8_3 O 0.83884(17) 0.8654(2) 0.25584(13)
O9_3 O 0.9094(2) 0.6523(3) 0.34212(12)
H3_3 H 0.8864 0.6996 0.3487
O13_3 O 0.8472(3) 0.9763(3) 0.18191(15)
O15_3 O 0.8009(2) 0.8220(3) 0.14856(12)
H5_3 H 0.8048 0.8652 0.1666
O16_3 O 0.7595(2) 0.5603(3) 0.01229(17)
H6_3 H 0.7448 0.5092 0.0030
O19_3 O 0.7780(2) 0.8294(3) 0.39391(15)
H7_3 H 0.7523 0.8431 0.4188
H8_3 H 0.7459 0.8174 0.3720
O20_3 O 0.9240(3) 0.8372(3) 0.41424(16)
C24_3 C 0.8966(3) 0.5792(5) 0.1625(2)
H23_3 H 0.8859 0.6279 0.1428
C25_3 C 0.9098(4) 0.4882(5) 0.1471(2)
H24_3 H 0.9062 0.4753 0.1170
C26_3 C 0.9285(4) 0.4160(5) 0.1759(2)
H25_3 H 0.9386 0.3555 0.1651
C27_3 C 0.9321(3) 0.4327(4) 0.2195(2)
H26_3 H 0.9430 0.3826 0.2384
C28_3 C 0.9195(2) 0.5255(3) 0.2379(2)
C29_3 C 0.8993(3) 0.5983(4) 0.20811(18)
C30_3 C 0.8825(3) 0.6890(4) 0.22433(16)
H27_3 H 0.8700 0.7366 0.2045
C31_3 C 0.8838(2) 0.7098(3) 0.26804(18)
C32_3 C 0.9046(2) 0.6371(3) 0.29903(17)
C33_3 C 0.9227(2) 0.5461(3) 0.28362(19)
C34_3 C 0.9442(2) 0.4723(3) 0.3174(2)
H28_3 H 0.9080 0.4693 0.3398
H29_3 H 0.9455 0.4106 0.3030
C41_3 C 0.9621(3) 0.4751(6) 0.4166(2)
H31_3 H 0.9169 0.4710 0.4054
C42_3 C 0.9723(4) 0.4698(9) 0.4605(3)
H32_3 H 0.9338 0.4591 0.4786
C45_3 C 0.8641(3) 0.8080(3) 0.28436(18)
C51_3 C 0.8482(3) 0.8197(5) 0.03173(19)
C52_3 C 0.8826(4) 0.9063(6) 0.02768(19)
C53_3 C 0.8888(4) 0.9684(5) 0.0659(2)
C54_3 C 0.8629(4) 0.9395(5) 0.1067(2)
C55_3 C 0.8265(3) 0.8504(5) 0.11009(18)
C56_3 C 0.8171(3) 0.7892(4) 0.07392(18)
C57_3 C 0.7791(3) 0.6937(5) 0.07960(19)
H40_3 H 0.8104 0.6427 0.0706
H41_3 H 0.7688 0.6847 0.1106
C58_3 C 0.7105(3) 0.6849(4) 0.05320(19)
C59_3 C 0.7047(3) 0.6187(4) 0.02037(19)
C61_3 C 0.5874(3) 0.6682(5) 0.0021(2)
C62_3 C 0.5900(3) 0.7342(5) 0.0370(2)
C63_3 C 0.6512(3) 0.7417(5) 0.06348(19)
C64_3 C 0.6489(4) 0.8061(6) 0.1009(2)
H43_3 H 0.6873 0.8119 0.1195
C65_3 C 0.5911(5) 0.8572(7) 0.1082(3)
H44_3 H 0.5926 0.9034 0.1302
C66_3 C 0.5296(5) 0.8462(7) 0.0855(3)
H45_3 H 0.4890 0.8751 0.0958
C67_3 C 0.5278(5) 0.7890(7) 0.0451(3)
H46_3 H 0.4895 0.7881 0.0263
H47_3 H 0.974836 0.84804 0.409849
H48_3 H 0.911343 0.772678 0.403321
C47_3 C 0.9132(5) 0.9314(7) 0.9874(2)
H35_3 H 0.9383 0.9879 0.9854
C48_3 C 0.9071(4) 0.8763(7) 0.9522(2)
H36_3 H 0.9234 0.8974 0.9250
C49_3 C 0.8777(4) 0.7909(7) 0.9558(2)
H37_3 H 0.8778 0.7508 0.9314
C50_3 C 0.8464(3) 0.7588(6) 0.9952(2)
H38_3 H 0.8253 0.6991 0.9969
C60_3 C 0.6433(3) 0.6133(4) 0.99365(18)
H42_3 H 0.5472 0.6626 0.9850
C69_3 C 0.6378(3) 0.5477(4) 0.95538(18)
O7_4 O 0.12470(19) 0.1730(2) 0.82427(12)
O8_4 O 0.16116(17) 0.1346(2) 0.75584(13)
O9_4 O 0.0906(2) 0.3477(3) 0.84212(12)
H3_4 H 0.1136 0.3004 0.8487
O13_4 O 0.1528(3) 0.0237(3) 0.68191(15)
O15_4 O 0.1991(2) 0.1780(3) 0.64856(12)
H5_4 H 0.1952 0.1348 0.6666
O16_4 O 0.2405(2) 0.4397(3) 0.51229(17)
H6_4 H 0.2552 0.4908 0.5030
O19_4 O 0.2220(2) 0.1706(3) 0.89391(15)
H7_4 H 0.2477 0.1569 0.9188
H8_4 H 0.2541 0.1826 0.8720
O20_4 O 0.0760(3) 0.1628(3) 0.91424(16)
C24_4 C 0.1034(3) 0.4208(5) 0.6625(2)
H23_4 H 0.1141 0.3721 0.6428
C25_4 C 0.0902(4) 0.5118(5) 0.6471(2)
H24_4 H 0.0938 0.5247 0.6170
C26_4 C 0.0715(4) 0.5840(5) 0.6759(2)
H25_4 H 0.0614 0.6445 0.6651
C27_4 C 0.0679(3) 0.5673(4) 0.7195(2)
H26_4 H 0.0570 0.6174 0.7384
C28_4 C 0.0805(2) 0.4745(3) 0.7379(2)
C29_4 C 0.1007(3) 0.4017(4) 0.70811(18)
C30_4 C 0.1175(3) 0.3110(4) 0.72433(16)
H27_4 H 0.1300 0.2634 0.7045
C31_4 C 0.1162(2) 0.2902(3) 0.76804(18)
C32_4 C 0.0954(2) 0.3629(3) 0.79903(17)
C33_4 C 0.0773(2) 0.4539(3) 0.78362(19)
C34_4 C 0.0558(2) 0.5277(3) 0.8174(2)
H28_4 H 0.0920 0.5307 0.8398
H29_4 H 0.0545 0.5894 0.8030
C41_4 C 0.0379(3) 0.5249(6) 0.9166(2)
H31_4 H 0.0831 0.5290 0.9054
C42_4 C 0.0277(4) 0.5302(9) 0.9605(3)
H32_4 H 0.0662 0.5409 0.9786
C45_4 C 0.1359(3) 0.1920(3) 0.78436(18)
C47_4 C 0.0868(5) 0.0686(7) 0.4874(2)
H35_4 H 0.0617 0.0121 0.4854
C48_4 C 0.0929(4) 0.1237(7) 0.4522(2)
H36_4 H 0.0766 0.1026 0.4250
C49_4 C 0.1223(4) 0.2091(7) 0.4558(2)
H37_4 H 0.1222 0.2492 0.4314
C50_4 C 0.1536(3) 0.2412(6) 0.4952(2)
H38_4 H 0.1747 0.3009 0.4969
C51_4 C 0.1518(3) 0.1803(5) 0.53173(19)
C52_4 C 0.1174(4) 0.0937(6) 0.52768(19)
C53_4 C 0.1112(4) 0.0316(5) 0.5659(2)
C54_4 C 0.1371(4) 0.0605(5) 0.6067(2)
C55_4 C 0.1735(3) 0.1496(5) 0.61009(18)
C56_4 C 0.1829(3) 0.2108(4) 0.57392(18)
C57_4 C 0.2209(3) 0.3063(5) 0.57960(19)
H40_4 H 0.1896 0.3573 0.5706
H41_4 H 0.2312 0.3153 0.6106
C58_4 C 0.2895(3) 0.3151(4) 0.55320(19)
C59_4 C 0.2953(3) 0.3813(4) 0.52037(19)
C60_4 C 0.3567(3) 0.3867(4) 0.49365(18)
C61_4 C 0.4126(3) 0.3318(5) 0.5021(2)
H42_4 H 0.4528 0.3374 0.4850
C62_4 C 0.4100(3) 0.2658(5) 0.5370(2)
C63_4 C 0.3488(3) 0.2583(5) 0.56348(19)
C64_4 C 0.3511(4) 0.1939(6) 0.6009(2)
H43_4 H 0.3127 0.1881 0.6195
C65_4 C 0.4089(5) 0.1428(7) 0.6082(3)
H44_4 H 0.4074 0.0966 0.6302
C66_4 C 0.4704(5) 0.1538(7) 0.5855(3)
H45_4 H 0.5110 0.1249 0.5958
C67_4 C 0.4722(5) 0.2110(7) 0.5451(3)
H46_4 H 0.5105 0.2119 0.5263
C69_4 C 0.3622(3) 0.4523(4) 0.45538(18)
H47_4 H 0.0251642 0.15196 0.909849
H48_4 H 0.0886567 0.227322 0.903321
O1_4 O 0.1632(2) 0.8818(3) 0.86479(13)
O2_4 O 0.1961(2) 0.8422(2) 0.79637(12)
O3_4 O 0.2303(2) 0.6662(3) 0.77888(13)
H1_4 H 0.1933 0.6899 0.7706
O4_2 O 0.3869(2) 0.4862(3) 0.84906(15)
H2_2 H 0.4256 0.4760 0.8597
O14_4 O 0.0955(3) 0.9207(4) 0.64077(15)
O21_4 O 0.1054(2) 0.8502(3) 0.72186(14)
H9_4 H 0.0719 0.8323 0.7412
H10_4 H 0.0831 0.8696 0.6972
O22_4 O 0.2531(3) 0.8748(4) 0.7044(2)
C1_4 C 0.2117(3) 0.5951(5) 0.9590(2)
H11_4 H 0.1993 0.6441 0.9781
C2_4 C 0.2242(4) 0.5085(6) 0.9753(3)
C3_2 C 0.2435(4) 0.4329(5) 0.9452(3)
H13_2 H 0.2495 0.3712 0.9560
C4_2 C 0.2525(4) 0.4496(4) 0.9036(3)
H14_2 H 0.2685 0.4002 0.8858
C5_4 C 0.2388(3) 0.5418(3) 0.8833(2)
C6_4 C 0.2169(3) 0.6146(4) 0.9137(2)
C7_4 C 0.2023(3) 0.7068(4) 0.8957(2)
H15_4 H 0.1897 0.7561 0.9146
C8_4 C 0.2060(3) 0.7241(3) 0.85272(19)
C9_4 C 0.2279(2) 0.6518(4) 0.8231(2)
C10_4 C 0.2443(2) 0.5628(3) 0.8390(2)
C11_2 C 0.2622(2) 0.4826(3) 0.8029(2)
H16_2 H 0.2254 0.4823 0.7809
H17_2 H 0.2620 0.4208 0.8173
C12_2 C 0.3317(3) 0.4956(3) 0.7798(2)
C13_2 C 0.3922(3) 0.4930(3) 0.8050(2)
C14_2 C 0.4604(3) 0.4971(4) 0.78455(19)
C15_2 C 0.4643(3) 0.4942(4) 0.7404(2)
H18_4 H 0.5082 0.4927 0.7272
C16_2 C 0.4051(3) 0.4934(4) 0.7133(2)
C17_2 C 0.3373(3) 0.4971(4) 0.7330(3)
C18_2 C 0.2800(4) 0.4968(6) 0.7027(3)
H19_4 H 0.2347 0.5026 0.7136
C19_2 C 0.2889(5) 0.4887(7) 0.6602(3)
H20_2 H 0.2494 0.4847 0.6424
C20_2 C 0.3541(5) 0.4857(8) 0.6400(3)
H21_2 H 0.3588 0.4812 0.6095
C21_2 C 0.4114(5) 0.4897(7) 0.6674(3)
H22_2 H 0.4559 0.4899 0.6549
C22_4 C 0.1888(3) 0.8245(4) 0.83695(18)
C23_4 C 0.5250(3) 0.4959(3) 0.8121(2)
H39_4 H 0.0898 0.9723 0.5631
C68_4 C 0.1251(4) 0.9960(5) 0.6443(2)
H49_4 H 0.298564 0.86382 0.719382
H50_4 H 0.26119 0.908462 0.676036
O10_4 O 0.93155(19) 0.5112(3) 0.77109(14)
H4_4 H 0.8940 0.5275 0.7605
C35_4 C 0.9846(3) 0.5120(4) 0.8410(2)
C36_4 C 0.9255(2) 0.5050(3) 0.81586(18)
C37_4 C 0.8594(3) 0.4917(3) 0.8355(2)
C38_4 C 0.8539(3) 0.4916(4) 0.8796(2)
H30_4 H 0.8098 0.4863 0.8923
C39_4 C 0.9129(3) 0.4992(6) 0.9076(2)
C40_4 C 0.9795(3) 0.5131(4) 0.8865(2)
C43_4 C 0.9627(4) 0.5203(9) 0.9801(3)
C44_4 C 0.9052(4) 0.5035(7) 0.9537(3)
H34_4 H 0.8614 0.4949 0.9664
C46_4 C 0.7946(2) 0.4834(3) 0.80850(19)
H12_2 H 0.7205 0.0030 0.0054
O4_3 O 0.8869(2) 0.0138(3) 0.84906(15)
H2_3 H 0.9256 0.0240 0.8597
C3_3 C 0.7435(4) 0.0671(5) 0.9452(3)
H13_3 H 0.7495 0.1288 0.9560
C4_3 C 0.7525(4) 0.0504(4) 0.9036(3)
H14_3 H 0.7685 0.0998 0.8858
C11_3 C 0.7622(2) 0.0174(3) 0.8029(2)
H16_3 H 0.7254 0.0177 0.7809
H17_3 H 0.7620 0.0792 0.8173
C12_3 C 0.8317(3) 0.0044(3) 0.7798(2)
C13_3 C 0.8922(3) 0.0070(3) 0.8050(2)
C14_3 C 0.9604(3) 0.0029(4) 0.78455(19)
C15_3 C 0.9643(3) 0.0058(4) 0.7404(2)
C16_3 C 0.9051(3) 0.0066(4) 0.7133(2)
C17_3 C 0.8373(3) 0.0029(4) 0.7330(3)
C18_3 C 0.7800(4) 0.0032(6) 0.7027(3)
C19_3 C 0.7889(5) 0.0113(7) 0.6602(3)
H20_3 H 0.7494 0.0153 0.6424
C20_3 C 0.8541(5) 0.0143(8) 0.6400(3)
H21_3 H 0.8588 0.0188 0.6095
C21_3 C 0.9114(5) 0.0103(7) 0.6674(3)
H22_3 H 0.9559 0.0101 0.6549
H33_3 H 0.4578 0.9750 0.0105
O4_4 O 0.1131(2) 0.9862(3) 0.34906(15)
H2_4 H 0.0744 0.9760 0.3597
H12_3 H 0.2795 0.9970 0.5054
C3_4 C 0.2565(4) 0.9329(5) 0.4452(3)
H13_4 H 0.2505 0.8712 0.4560
C4_4 C 0.2475(4) 0.9496(4) 0.4036(3)
H14_4 H 0.2315 0.9002 0.3858
C11_4 C 0.2378(2) 0.9826(3) 0.3029(2)
H16_4 H 0.2746 0.9823 0.2809
H17_4 H 0.2380 0.9208 0.3173
C12_4 C 0.1683(3) 0.9956(3) 0.2798(2)
C13_4 C 0.1078(3) 0.9930(3) 0.3050(2)
C14_4 C 0.0396(3) 0.9971(4) 0.28455(19)
C15_4 C 0.0357(3) 0.9942(4) 0.2404(2)
C16_4 C 0.0949(3) 0.9934(4) 0.2133(2)
C17_4 C 0.1627(3) 0.9971(4) 0.2330(3)
C18_4 C 0.2200(4) 0.9968(6) 0.2027(3)
C19_4 C 0.2111(5) 0.9887(7) 0.1602(3)
H20_4 H 0.2506 0.9847 0.1424
C20_4 C 0.1459(5) 0.9857(8) 0.1400(3)
H21_4 H 0.1412 0.9812 0.1095
C21_4 C 0.0886(5) 0.9897(7) 0.1674(3)
H22_4 H 0.0441 0.9899 0.1549
H12_4 H 0.2205 0.4970 0.0054
H33_4 H 0.9578 0.5250 0.0105
loop_
_geom_bond_atom_site_label_1
_geom_bond_atom_site_label_2
_geom_bond_site_symmetry_1
_geom_bond_site_symmetry_2
O5 C23 1_555 1_555
Dy5 O5 1_555 1_555
Dy7 O6 1_555 1_555
Dy1 O1 1_555 1_555
Dy2 O2 1_555 1_555
O1 C22 1_555 1_555
O2 C22 1_555 1_555
O3 H1 1_555 1_555
O7 Dy1 1_555 1_555
O8 Dy2 1_555 1_555
O9 H3 1_555 1_555
O11 C46 1_555 1_555
O12 C46 1_555 1_555
O13 Dy2 1_555 1_555
O14 C68 1_555 1_555
O15 H5 1_555 1_555
O16 H6 1_555 1_555
O18 C69 1_555 1_555
O19 Dy1 1_555 1_555
H7 O19 1_555 1_555
H8 O19 1_555 1_555
O20 Dy1 1_555 1_555
O21 Dy2 1_555 1_555
H9 O21 1_555 1_555
H10 O21 1_555 1_555
O22 Dy2 1_555 1_555
C1 H11 1_555 1_555
C2 C1 1_555 1_555
C6 C1 1_555 1_555
C7 C6 1_555 1_555
H15 C7 1_555 1_555
C8 C7 1_555 1_555
C9 O3 1_555 1_555
C10 C5 1_555 1_555
C22 C8 1_555 1_555
C24 H23 1_555 1_555
C29 C24 1_555 1_555
C30 C29 1_555 1_555
H27 C30 1_555 1_555
C31 C30 1_555 1_555
C32 O9 1_555 1_555
C33 C28 1_555 1_555
C38 C37 1_555 1_555
H30 C38 1_555 1_555
C39 C38 1_555 1_555
C45 O7 1_555 1_555
C46 C37 1_555 1_555
C47 H35 1_555 1_555
C48 C47 1_555 1_555
H36 C48 1_555 1_555
C49 C48 1_555 1_555
H37 C49 1_555 1_555
C50 C49 1_555 1_555
H38 C50 1_555 1_555
C51 C50 1_555 1_555
C52 C47 1_555 1_555
C53 C52 1_555 1_555
H39 C53 1_555 1_555
C54 C53 1_555 1_555
C55 O15 1_555 1_555
C56 C51 1_555 1_555
C57 C56 1_555 1_555
H40 C57 1_555 1_555
H41 C57 1_555 1_555
C58 C57 1_555 1_555
C59 O16 1_555 1_555
C60 C59 1_555 1_555
C61 C60 1_555 1_555
H42 C61 1_555 1_555
C62 C61 1_555 1_555
C63 C58 1_555 1_555
C64 C63 1_555 1_555
H43 C64 1_555 1_555
C65 C64 1_555 1_555
H44 C65 1_555 1_555
C66 C65 1_555 1_555
C67 C62 1_555 1_555
C68 O13 1_555 1_555
C69 C60 1_555 1_555
Dy5 O12 1_555 1_555
O23 Dy1 1_555 1_555
O24 Dy1 1_555 1_555
O25 Dy2 1_555 1_555
O26 Dy1 1_555 1_555
O27 Dy1 1_555 1_555
O28 Dy1 1_555 1_555
Dy2 O24 1_555 1_555
Dy2 O26 1_555 1_555
O8 C45 1_555 1_555
C5 C6 1_555 1_555
C8 C9 1_555 1_555
C9 C10 1_555 1_555
C28 C29 1_555 1_555
C31 C32 1_555 1_555
C31 C45 1_555 1_555
C32 C33 1_555 1_555
C51 C52 1_555 1_555
C54 C55 1_555 1_555
C54 C68 1_555 1_555
C55 C56 1_555 1_555
C58 C59 1_555 1_555
C62 C63 1_555 1_555
C66 C67 1_555 1_555
O20 H47 1_555 1_555
O20 H48 1_555 1_555
O22 H49 1_555 1_555
O22 H50 1_555 1_555
O10 H4 1_555 1_555
H24 C25 1_555 1_555
C26 C25 1_555 1_555
H25 C26 1_555 1_555
C27 C26 1_555 1_555
H26 C27 1_555 1_555
H28 C34 1_555 1_555
H29 C34 1_555 1_555
C35 C34 1_555 1_555
C36 O10 1_555 1_555
C40 C35 1_555 1_555
C41 C40 1_555 1_555
H31 C41 1_555 1_555
C42 C41 1_555 1_555
H32 C42 1_555 1_555
C43 C42 1_555 1_555
Dy3 O17 1_555 1_555
C35 C36 1_555 1_555
C43 C44 1_555 1_555
O10_2 H4_2 1_555 1_555
H24_2 C25_2 1_555 1_555
C26_2 C25_2 1_555 1_555
H25_2 C26_2 1_555 1_555
C27_2 C26_2 1_555 1_555
H26_2 C27_2 1_555 1_555
H28_2 C34_2 1_555 1_555
H29_2 C34_2 1_555 1_555
C35_2 C34_2 1_555 1_555
C36_2 O10_2 1_555 1_555
C40_2 C35_2 1_555 1_555
C41_2 C40_2 1_555 1_555
H31_2 C41_2 1_555 1_555
C42_2 C41_2 1_555 1_555
H32_2 C42_2 1_555 1_555
C43_2 C42_2 1_555 1_555
H33 C43_2 1_555 1_555
C35_2 C36_2 1_555 1_555
C43_2 C44_2 1_555 1_555
Dy5 O17_2 1_555 1_555
Dy1_2 O1_2 1_555 1_555
Dy2_2 O2_2 1_555 1_555
O1_2 C22_2 1_555 1_555
O2_2 C22_2 1_555 1_555
O3_2 H1_2 1_555 1_555
O7_2 Dy1_2 1_555 1_555
O8_2 Dy2_2 1_555 1_555
O9_2 H3_2 1_555 1_555
O11_2 C46_2 1_555 1_555
O12_2 C46_2 1_555 1_555
O13_2 Dy2_2 1_555 1_555
O14_2 C68_2 1_555 1_555
O15_2 H5_2 1_555 1_555
O16_2 H6_2 1_555 1_555
O19_2 Dy1_2 1_555 1_555
H7_2 O19_2 1_555 1_555
H8_2 O19_2 1_555 1_555
O20_2 Dy1_2 1_555 1_555
O21_2 Dy2_2 1_555 1_555
H9_2 O21_2 1_555 1_555
H10_2 O21_2 1_555 1_555
O22_2 Dy2_2 1_555 1_555
C1_2 H11_2 1_555 1_555
C2_2 C1_2 1_555 1_555
C6_2 C1_2 1_555 1_555
C7_2 C6_2 1_555 1_555
H15_2 C7_2 1_555 1_555
C8_2 C7_2 1_555 1_555
C9_2 O3_2 1_555 1_555
C10_2 C5_2 1_555 1_555
C22_2 C8_2 1_555 1_555
C24_2 H23_2 1_555 1_555
C29_2 C24_2 1_555 1_555
C30_2 C29_2 1_555 1_555
H27_2 C30_2 1_555 1_555
C31_2 C30_2 1_555 1_555
C32_2 O9_2 1_555 1_555
C33_2 C28_2 1_555 1_555
C38_2 C37_2 1_555 1_555
H30_2 C38_2 1_555 1_555
C39_2 C38_2 1_555 1_555
C45_2 O7_2 1_555 1_555
C46_2 C37_2 1_555 1_555
C53_2 C52_2 1_555 1_555
H39_2 C53_2 1_555 1_555
C54_2 C53_2 1_555 1_555
C55_2 O15_2 1_555 1_555
C56_2 C51_2 1_555 1_555
C57_2 C56_2 1_555 1_555
H40_2 C57_2 1_555 1_555
H41_2 C57_2 1_555 1_555
C58_2 C57_2 1_555 1_555
C59_2 O16_2 1_555 1_555
C62_2 C61_2 1_555 1_555
C63_2 C58_2 1_555 1_555
C64_2 C63_2 1_555 1_555
H43_2 C64_2 1_555 1_555
C65_2 C64_2 1_555 1_555
H44_2 C65_2 1_555 1_555
C66_2 C65_2 1_555 1_555
C67_2 C62_2 1_555 1_555
C68_2 O13_2 1_555 1_555
Dy3 O12_2 1_555 1_555
O23_2 Dy1_2 1_555 1_555
O24_2 Dy1_2 1_555 1_555
O25_2 Dy2_2 1_555 1_555
O26_2 Dy1_2 1_555 1_555
O27_2 Dy1_2 1_555 1_555
O28_2 Dy1_2 1_555 1_555
Dy2_2 O24_2 1_555 1_555
Dy2_2 O26_2 1_555 1_555
O8_2 C45_2 1_555 1_555
C5_2 C6_2 1_555 1_555
C8_2 C9_2 1_555 1_555
C9_2 C10_2 1_555 1_555
C28_2 C29_2 1_555 1_555
C31_2 C32_2 1_555 1_555
C31_2 C45_2 1_555 1_555
C32_2 C33_2 1_555 1_555
C51_2 C52_2 1_555 1_555
C54_2 C55_2 1_555 1_555
C54_2 C68_2 1_555 1_555
C55_2 C56_2 1_555 1_555
C58_2 C59_2 1_555 1_555
C62_2 C63_2 1_555 1_555
C66_2 C67_2 1_555 1_555
O20_2 H47_2 1_555 1_555
O20_2 H48_2 1_555 1_555
O22_2 H49_2 1_555 1_555
O22_2 H50_2 1_555 1_555
O18_2 C69_2 1_555 1_555
C47_2 H35_2 1_555 1_555
C48_2 C47_2 1_555 1_555
H36_2 C48_2 1_555 1_555
C49_2 C48_2 1_555 1_555
H37_2 C49_2 1_555 1_555
C50_2 C49_2 1_555 1_555
H38_2 C50_2 1_555 1_555
C69_2 C60_2 1_555 1_555
Dy6 O6_2 1_555 1_555
O5_2 C23_2 1_555 1_555
Dy3 O5_2 1_555 1_555
O10_3 H4_3 1_555 1_555
O25_2 C46_3 1_555 1_555
O26_2 C46_3 1_555 1_555
C36_3 O10_3 1_555 1_555
C37_3 C36_3 1_555 1_555
C38_3 C37_3 1_555 1_555
H30_3 C38_3 1_555 1_555
C39_3 C38_3 1_555 1_555
C40_3 C35_3 1_555 1_555
H33_2 C43_3 1_555 1_555
C44_3 C39_3 1_555 1_555
H34_3 C44_3 1_555 1_555
C46_3 C37_3 1_555 1_555
C35_3 C36_3 1_555 1_555
C39_3 C40_3 1_555 1_555
C43_3 C44_3 1_555 1_555
Dy6 O2_3 1_555 1_555
O1_3 C22_3 1_555 1_555
O2_3 C22_3 1_555 1_555
O3_3 H1_3 1_555 1_555
O4 H2 1_555 1_555
O23_2 C23_3 1_555 1_555
O24_2 C23_3 1_555 1_555
O14_3 C68_3 1_555 1_555
O21_3 Dy6 1_555 1_555
H9_3 O21_3 1_555 1_555
H10_3 O21_3 1_555 1_555
O22_3 Dy6 1_555 1_555
C1_3 H11_3 1_555 1_555
C2_3 C1_3 1_555 1_555
H12 C2_3 1_555 1_555
C3 C2_3 1_555 1_555
H13 C3 1_555 1_555
C4 C3 1_555 1_555
H14 C4 1_555 1_555
C5_3 C4 1_555 1_555
C6_3 C1_3 1_555 1_555
C7_3 C6_3 1_555 1_555
H15_3 C7_3 1_555 1_555
C8_3 C7_3 1_555 1_555
C9_3 O3_3 1_555 1_555
C10_3 C5_3 1_555 1_555
C11 C10_3 1_555 1_555
H16 C11 1_555 1_555
H17 C11 1_555 1_555
C12 C11 1_555 1_555
C13 O4 1_555 1_555
C14 C13 1_555 1_555
C15 C14 1_555 1_555
H18_3 C15 1_555 1_555
C16 C15 1_555 1_555
C17 C12 1_555 1_555
C18 C17 1_555 1_555
H19_3 C18 1_555 1_555
C19 C18 1_555 1_555
H20 C19 1_555 1_555
C20 C19 1_555 1_555
H21 C20 1_555 1_555
C21 C16 1_555 1_555
H22 C21 1_555 1_555
C22_3 C8_3 1_555 1_555
C23_3 C14 1_555 1_555
C5_3 C6_3 1_555 1_555
C8_3 C9_3 1_555 1_555
C9_3 C10_3 1_555 1_555
C12 C13 1_555 1_555
C16 C17 1_555 1_555
C20 C21 1_555 1_555
O22_3 H49_3 1_555 1_555
O22_3 H50_3 1_555 1_555
O7_3 Dy3 1_555 1_555
O9_3 H3_3 1_555 1_555
O15_3 H5_3 1_555 1_555
O16_3 H6_3 1_555 1_555
O19_3 Dy3 1_555 1_555
H7_3 O19_3 1_555 1_555
H8_3 O19_3 1_555 1_555
O20_3 Dy3 1_555 1_555
C24_3 H23_3 1_555 1_555
C25_3 C24_3 1_555 1_555
H24_3 C25_3 1_555 1_555
C26_3 C25_3 1_555 1_555
H25_3 C26_3 1_555 1_555
C27_3 C26_3 1_555 1_555
H26_3 C27_3 1_555 1_555
C28_3 C27_3 1_555 1_555
C29_3 C24_3 1_555 1_555
C30_3 C29_3 1_555 1_555
H27_3 C30_3 1_555 1_555
C31_3 C30_3 1_555 1_555
C32_3 O9_3 1_555 1_555
C33_3 C28_3 1_555 1_555
C34_3 C33_3 1_555 1_555
H28_3 C34_3 1_555 1_555
H29_3 C34_3 1_555 1_555
H31_3 C41_3 1_555 1_555
C42_3 C41_3 1_555 1_555
H32_3 C42_3 1_555 1_555
C45_3 O7_3 1_555 1_555
C53_3 C52_3 1_555 1_555
C54_3 C53_3 1_555 1_555
C55_3 O15_3 1_555 1_555
C56_3 C51_3 1_555 1_555
C57_3 C56_3 1_555 1_555
H40_3 C57_3 1_555 1_555
H41_3 C57_3 1_555 1_555
C58_3 C57_3 1_555 1_555
C59_3 O16_3 1_555 1_555
C62_3 C61_3 1_555 1_555
C63_3 C58_3 1_555 1_555
C64_3 C63_3 1_555 1_555
H43_3 C64_3 1_555 1_555
C65_3 C64_3 1_555 1_555
H44_3 C65_3 1_555 1_555
C66_3 C65_3 1_555 1_555
H45_3 C66_3 1_555 1_555
C67_3 C62_3 1_555 1_555
H46_3 C67_3 1_555 1_555
O8_3 C45_3 1_555 1_555
C28_3 C29_3 1_555 1_555
C31_3 C32_3 1_555 1_555
C31_3 C45_3 1_555 1_555
C32_3 C33_3 1_555 1_555
C51_3 C52_3 1_555 1_555
C54_3 C55_3 1_555 1_555
C55_3 C56_3 1_555 1_555
C58_3 C59_3 1_555 1_555
C62_3 C63_3 1_555 1_555
C66_3 C67_3 1_555 1_555
O20_3 H47_3 1_555 1_555
O20_3 H48_3 1_555 1_555
O27 C69_3 1_555 1_555
O28 C69_3 1_555 1_555
C47_3 H35_3 1_555 1_555
C48_3 C47_3 1_555 1_555
H36_3 C48_3 1_555 1_555
C49_3 C48_3 1_555 1_555
H37_3 C49_3 1_555 1_555
C50_3 C49_3 1_555 1_555
H38_3 C50_3 1_555 1_555
C69_3 C60_3 1_555 1_555
O7_4 Dy5 1_555 1_555
O9_4 H3_4 1_555 1_555
O15_4 H5_4 1_555 1_555
O16_4 H6_4 1_555 1_555
O27_2 C69_4 1_555 1_555
O28_2 C69_4 1_555 1_555
O19_4 Dy5 1_555 1_555
H7_4 O19_4 1_555 1_555
H8_4 O19_4 1_555 1_555
O20_4 Dy5 1_555 1_555
C24_4 H23_4 1_555 1_555
C25_4 C24_4 1_555 1_555
H24_4 C25_4 1_555 1_555
C26_4 C25_4 1_555 1_555
H25_4 C26_4 1_555 1_555
C27_4 C26_4 1_555 1_555
H26_4 C27_4 1_555 1_555
C28_4 C27_4 1_555 1_555
C29_4 C24_4 1_555 1_555
C30_4 C29_4 1_555 1_555
H27_4 C30_4 1_555 1_555
C31_4 C30_4 1_555 1_555
C32_4 O9_4 1_555 1_555
C33_4 C28_4 1_555 1_555
C34_4 C33_4 1_555 1_555
H28_4 C34_4 1_555 1_555
H29_4 C34_4 1_555 1_555
H31_4 C41_4 1_555 1_555
C42_4 C41_4 1_555 1_555
H32_4 C42_4 1_555 1_555
C45_4 O7_4 1_555 1_555
C47_4 H35_4 1_555 1_555
C48_4 C47_4 1_555 1_555
H36_4 C48_4 1_555 1_555
C49_4 C48_4 1_555 1_555
H37_4 C49_4 1_555 1_555
C50_4 C49_4 1_555 1_555
H38_4 C50_4 1_555 1_555
C51_4 C50_4 1_555 1_555
C52_4 C47_4 1_555 1_555
C53_4 C52_4 1_555 1_555
C54_4 C53_4 1_555 1_555
C55_4 O15_4 1_555 1_555
C56_4 C51_4 1_555 1_555
C57_4 C56_4 1_555 1_555
H40_4 C57_4 1_555 1_555
H41_4 C57_4 1_555 1_555
C58_4 C57_4 1_555 1_555
C59_4 O16_4 1_555 1_555
C60_4 C59_4 1_555 1_555
C61_4 C60_4 1_555 1_555
H42_4 C61_4 1_555 1_555
C62_4 C61_4 1_555 1_555
C63_4 C58_4 1_555 1_555
C64_4 C63_4 1_555 1_555
H43_4 C64_4 1_555 1_555
C65_4 C64_4 1_555 1_555
H44_4 C65_4 1_555 1_555
C66_4 C65_4 1_555 1_555
H45_4 C66_4 1_555 1_555
C67_4 C62_4 1_555 1_555
H46_4 C67_4 1_555 1_555
C69_4 C60_4 1_555 1_555
O8_4 C45_4 1_555 1_555
C28_4 C29_4 1_555 1_555
C31_4 C32_4 1_555 1_555
C31_4 C45_4 1_555 1_555
C32_4 C33_4 1_555 1_555
C51_4 C52_4 1_555 1_555
C54_4 C55_4 1_555 1_555
C55_4 C56_4 1_555 1_555
C58_4 C59_4 1_555 1_555
C62_4 C63_4 1_555 1_555
C66_4 C67_4 1_555 1_555
O20_4 H47_4 1_555 1_555
O20_4 H48_4 1_555 1_555
Dy7 O2_4 1_555 1_555
O1_4 C22_4 1_555 1_555
O2_4 C22_4 1_555 1_555
O3_4 H1_4 1_555 1_555
O4_2 H2_2 1_555 1_555
O23 C23_4 1_555 1_555
O24 C23_4 1_555 1_555
O14_4 C68_4 1_555 1_555
O21_4 Dy7 1_555 1_555
H9_4 O21_4 1_555 1_555
H10_4 O21_4 1_555 1_555
O22_4 Dy7 1_555 1_555
C1_4 H11_4 1_555 1_555
C2_4 C1_4 1_555 1_555
C3_2 C2_4 1_555 1_555
H13_2 C3_2 1_555 1_555
C4_2 C3_2 1_555 1_555
H14_2 C4_2 1_555 1_555
C5_4 C4_2 1_555 1_555
C6_4 C1_4 1_555 1_555
C7_4 C6_4 1_555 1_555
H15_4 C7_4 1_555 1_555
C8_4 C7_4 1_555 1_555
C9_4 O3_4 1_555 1_555
C10_4 C5_4 1_555 1_555
C11_2 C10_4 1_555 1_555
H16_2 C11_2 1_555 1_555
H17_2 C11_2 1_555 1_555
C12_2 C11_2 1_555 1_555
C13_2 O4_2 1_555 1_555
C14_2 C13_2 1_555 1_555
C15_2 C14_2 1_555 1_555
H18_4 C15_2 1_555 1_555
C16_2 C15_2 1_555 1_555
C17_2 C12_2 1_555 1_555
C18_2 C17_2 1_555 1_555
H19_4 C18_2 1_555 1_555
C19_2 C18_2 1_555 1_555
H20_2 C19_2 1_555 1_555
C20_2 C19_2 1_555 1_555
H21_2 C20_2 1_555 1_555
C21_2 C16_2 1_555 1_555
H22_2 C21_2 1_555 1_555
C22_4 C8_4 1_555 1_555
C23_4 C14_2 1_555 1_555
C5_4 C6_4 1_555 1_555
C8_4 C9_4 1_555 1_555
C9_4 C10_4 1_555 1_555
C12_2 C13_2 1_555 1_555
C16_2 C17_2 1_555 1_555
C20_2 C21_2 1_555 1_555
O22_4 H49_4 1_555 1_555
O22_4 H50_4 1_555 1_555
O10_4 H4_4 1_555 1_555
O25 C46_4 1_555 1_555
O26 C46_4 1_555 1_555
C36_4 O10_4 1_555 1_555
C37_4 C36_4 1_555 1_555
C38_4 C37_4 1_555 1_555
H30_4 C38_4 1_555 1_555
C39_4 C38_4 1_555 1_555
C40_4 C35_4 1_555 1_555
C44_4 C39_4 1_555 1_555
H34_4 C44_4 1_555 1_555
C46_4 C37_4 1_555 1_555
C35_4 C36_4 1_555 1_555
C39_4 C40_4 1_555 1_555
C43_4 C44_4 1_555 1_555
O4_3 H2_3 1_555 1_555
H13_3 C3_3 1_555 1_555
C4_3 C3_3 1_555 1_555
H14_3 C4_3 1_555 1_555
H16_3 C11_3 1_555 1_555
H17_3 C11_3 1_555 1_555
C12_3 C11_3 1_555 1_555
C13_3 O4_3 1_555 1_555
C14_3 C13_3 1_555 1_555
C15_3 C14_3 1_555 1_555
C16_3 C15_3 1_555 1_555
C17_3 C12_3 1_555 1_555
C18_3 C17_3 1_555 1_555
C19_3 C18_3 1_555 1_555
H20_3 C19_3 1_555 1_555
C20_3 C19_3 1_555 1_555
H21_3 C20_3 1_555 1_555
C21_3 C16_3 1_555 1_555
H22_3 C21_3 1_555 1_555
C12_3 C13_3 1_555 1_555
C16_3 C17_3 1_555 1_555
C20_3 C21_3 1_555 1_555
O4_4 H2_4 1_555 1_555
H13_4 C3_4 1_555 1_555
C4_4 C3_4 1_555 1_555
H14_4 C4_4 1_555 1_555
H16_4 C11_4 1_555 1_555
H17_4 C11_4 1_555 1_555
C12_4 C11_4 1_555 1_555
C13_4 O4_4 1_555 1_555
C14_4 C13_4 1_555 1_555
C15_4 C14_4 1_555 1_555
C16_4 C15_4 1_555 1_555
C17_4 C12_4 1_555 1_555
C18_4 C17_4 1_555 1_555
C19_4 C18_4 1_555 1_555
H20_4 C19_4 1_555 1_555
C20_4 C19_4 1_555 1_555
H21_4 C20_4 1_555 1_555
C21_4 C16_4 1_555 1_555
H22_4 C21_4 1_555 1_555
C12_4 C13_4 1_555 1_555
C16_4 C17_4 1_555 1_555
C20_4 C21_4 1_555 1_555

#END
