
###############################################################################
#
# This file contains modified crystal structure data generated from the
# MOF subset of the Cambridge Structural Database (CSD) v543 
# hosted by the Cambridge Crystallographic Data Centre (CCDC).
#
# This work is licensed under the Creative Commons
# Attribution-NonCommercial-ShareAlike 4.0 International License.
# To view a copy of this license, visit
# http://creativecommons.org/licenses/by-nc-sa/4.0/
# or send a letter to
# Creative Commons, PO Box 1866, Mountain View, CA 94042, USA.
#
# CIF created using the CSD Python API on 29 September 2022
# The structure has been converted into the P1 space group
# The structure has a 3D framework
# The original CSD entry QIYJEO is in the monoclinic crystal system
# The framework has been calculated to contain at least 10.0% void space
# The void calculation uses a probe of radius 1.32A, grid spacing 0.4
# H atom positions have been added when not included in the experimental data
#
###############################################################################

data_QIYJEO
_chemical_formula_moiety         '(C48 H158 Bi8 Mn12 N24 Na29 O333 W72)n'
_symmetry_cell_setting           triclinic
_symmetry_space_group_name_H-M   'P 1'
_symmetry_Int_Tables_number      1
_space_group_name_Hall           'P 1'
loop_
_symmetry_equiv_pos_site_id
_symmetry_equiv_pos_as_xyz
1 x,y,z
_cell_length_a                   14.975(3)
_cell_length_b                   23.151(5)
_cell_length_c                   32.488(6)
_cell_angle_alpha                90
_cell_angle_beta                 92.59(3)
_cell_angle_gamma                90
_cell_volume                     11251.6
loop_
_atom_site_label
_atom_site_type_symbol
_atom_site_fract_x
_atom_site_fract_y
_atom_site_fract_z
Bi1 Bi 0.31015(7) 0.36672(4) 0.31645(3)
Bi2 Bi 0.17519(7) 0.36617(4) 0.18248(3)
W1 W 0.36382(8) 0.38457(4) 0.12176(3)
W2 W 0.12061(8) 0.35771(5) 0.38041(3)
W3 W 0.54412(8) 0.38494(4) 0.29581(3)
W4 W 0.51769(8) 0.41886(4) 0.39383(3)
W5 W 0.20311(8) 0.48894(4) 0.36380(3)
W6 W 0.18413(8) 0.41987(4) 0.06227(3)
W8 W 0.27100(8) 0.23810(4) 0.13849(3)
W9 W 0.42578(8) 0.50213(4) 0.31961(3)
W10 W 0.02515(8) 0.48702(4) 0.18500(3)
W11 W 0.29424(8) 0.40677(5) 0.43919(3)
W12 W 0.24863(8) 0.50364(4) 0.14221(3)
W13 W 0.24821(8) 0.22641(4) 0.35427(3)
W15 W 0.44989(8) 0.24050(4) 0.31506(3)
W16 W 0.08838(8) 0.27310(4) 0.08021(3)
W17 W 0.06969(8) 0.22525(4) 0.17699(3)
W18 W 0.42175(8) 0.27378(4) 0.41328(3)
Mn1 Mn 0.0860(3) 0.28928(17) 0.28012(13)
Mn2 Mn 0.2243(3) 0.50395(17) 0.25333(14)
Mn3 Mn 0.4147(3) 0.30798(16) 0.21658(13)
Na1 Na 0.2617(9) 0.2020(5) 0.2467(4)
Na2 Na 0.0342(9) 0.4368(5) 0.2907(4)
Na3 Na 0.4240(9) 0.4622(5) 0.2140(4)
Na4 Na 0.2926(9) 0.2951(5) 0.0369(4)
Na7 Na 0.6729(9) 0.4899(5) 0.1565(4)
Na8 Na 0.1984(11) 0.4765(6) 0.5998(5)
Na9 Na 0.3040(19) 0.3432(10) 0.5486(9)
O1 O 0.1735(15) 0.4349(8) 0.0120(6)
O2 O 0.1596(16) 0.5559(9) 0.3718(7)
O3 O 0.1815(14) 0.4772(8) 0.3109(6)
O4 O 0.2128(10) 0.4947(6) 0.0832(5)
O5 O 0.0337(13) 0.2202(7) 0.1161(6)
O6 O 0.4830(12) 0.2335(7) 0.3766(5)
O7 O 0.1828(16) 0.1660(9) 0.3610(7)
O8 O 0.3489(12) 0.1914(7) 0.3298(6)
O9 O 0.3082(12) 0.3996(7) 0.0645(5)
O10 O 0.1792(12) 0.3712(7) 0.4369(5)
O11 O 0.0138(15) 0.3394(8) 0.3995(7)
O12 O 0.2426(13) 0.4795(7) 0.4233(6)
O13 O 0.5945(13) 0.3977(7) 0.3525(6)
O14 O 0.0157(17) 0.1616(10) 0.1891(8)
O16 O 0.1033(13) 0.3540(7) 0.3254(6)
O17 O 0.1813(12) 0.1873(7) 0.1605(5)
O18 O 0.4732(12) 0.2458(7) 0.4579(5)
O19 O 0.0997(14) 0.4420(8) 0.3783(6)
O20 O 0.1012(13) 0.4724(7) 0.2260(6)
O21 O 0.2551(13) 0.3981(7) 0.3710(6)
O22 O 0.4092(13) 0.4306(7) 0.4214(6)
O23 O 0.4574(12) 0.3740(7) 0.2550(5)
O26 O 0.0470(12) 0.3955(7) 0.1639(5)
O27 O 0.3548(13) 0.2934(7) 0.3508(6)
O28 O 0.1970(13) 0.2323(7) 0.0839(6)
O29 O 0.3084(13) 0.2623(7) 0.1861(6)
O30 O 0.1516(13) 0.2922(7) 0.1448(6)
O31 O 0.3628(14) 0.4682(8) 0.1278(6)
O32 O 0.5025(13) 0.4948(7) 0.3716(6)
O33 O 0.6440(16) 0.3819(9) 0.2688(7)
O34 O 0.2184(13) 0.4100(7) 0.1317(5)
O35 O 0.2086(14) 0.2528(8) 0.3040(6)
O36 O 0.1580(14) 0.3373(8) 0.0627(6)
O37 O 0.1191(14) 0.2486(8) 0.2250(6)
O38 O 0.3254(13) 0.2222(7) 0.4076(6)
O40 O 0.2723(13) 0.4873(7) 0.1947(6)
O41 O 0.5926(15) 0.4359(8) 0.4337(6)
O42 O 0.4492(15) 0.5717(8) 0.3089(7)
O43 O 0.4722(14) 0.3791(7) 0.1088(6)
O44 O 0.1774(13) 0.2839(7) 0.3832(6)
O45 O 0.0622(13) 0.4316(7) 0.0776(6)
O46 O 0.4991(14) 0.3394(7) 0.4040(6)
O47 O 0.3514(13) 0.4786(7) 0.2785(6)
O48 O 0.3115(14) 0.4147(7) 0.4912(6)
O50 O 0.0262(14) 0.3501(7) 0.2411(6)
O51 O 0.1203(13) 0.5097(7) 0.1498(6)
O52 O 0.5164(16) 0.1857(9) 0.2982(7)
O53 O 0.3482(14) 0.1858(8) 0.1241(6)
O54 O 0.5300(11) 0.3051(6) 0.3135(5)
O55 O 0.2740(14) 0.5752(8) 0.1390(6)
O56 O 0.5288(12) 0.4671(6) 0.2917(5)
O58 O 0.3717(14) 0.3762(8) 0.1765(6)
O59 O 0.0485(14) 0.2472(8) 0.0339(6)
O61 O 0.3431(15) 0.3292(8) 0.4347(7)
O62 O 0.3868(15) 0.2663(8) 0.2712(7)
O63 O 0.4311(13) 0.4080(7) 0.3367(6)
O64 O 0.3271(15) 0.5113(8) 0.3534(7)
O65 O 0.0013(15) 0.3273(8) 0.0914(7)
O66 O 0.3240(14) 0.3059(7) 0.1134(6)
O69 O 0.190(2) 0.1093(13) 0.2658(11)
O70 O 0.3763(17) 0.1395(9) 0.2235(8)
O71 O 0.559(2) 0.4318(13) 0.1865(10)
O72 O 0.4616(17) 0.5643(9) 0.2182(7)
O74 O 0.410(3) 0.2245(15) 0.0351(13)
O76 O 0.355(2) 0.4333(12) 0.6121(9)
O77 O 0.1682(19) 0.3834(10) 0.5635(8)
O78 O 0.166(2) 0.4299(13) 0.6599(10)
O79 O 0.047(3) 0.5071(16) 0.5806(13)
O80 O 0.255(2) 0.5142(11) 0.5349(9)
O81 O 0.227(2) 0.5702(12) 0.6293(10)
O87 O 0.7947(15) 0.5397(8) 0.1290(7)
O89 O 0.756(2) 0.4594(12) 0.2221(10)
O90 O 0.642(2) 0.5777(12) 0.1881(10)
N3 N 0.2212(17) 0.5963(9) 0.2544(7)
N4 N 0.2485(17) 0.6872(10) 0.2384(8)
N5 N 0.533(2) 0.2697(12) 0.1923(10)
N6 N 0.616(3) 0.2115(14) 0.1559(11)
H1 H 0.0025 0.1569 0.2795
C5 C 0.177(3) 0.6295(14) 0.2810(12)
H7 H 0.1444 0.6147 0.3025
C6 C 0.184(2) 0.6856(13) 0.2730(10)
H8 H 0.1566 0.7165 0.2856
C7 C 0.269(2) 0.6304(14) 0.2296(11)
H9 H 0.3077 0.6179 0.2101
C8 C 0.276(3) 0.7395(14) 0.2189(11)
H10 H 0.2495 0.7720 0.2323
H11 H 0.2556 0.7389 0.1904
H12 H 0.3395 0.7426 0.2209
C9 C 0.623(3) 0.297(2) 0.1914(16)
H13 H 0.6425 0.3310 0.2040
C10 C 0.533(3) 0.2227(14) 0.1711(11)
H14 H 0.4829 0.1992 0.1665
C11 C 0.672(3) 0.2594(14) 0.1675(12)
H15 H 0.7309 0.2647 0.1603
C12 C 0.658(4) 0.168(2) 0.1261(16)
H16 H 0.7210 0.1760 0.1246
H17 H 0.6297 0.1716 0.0992
H18 H 0.6504 0.1294 0.1362
W19 W 0.27100(8) 0.26190(4) 0.63849(3)
Na12 Na 0.2926(9) 0.2049(5) 0.5369(4)
Na13 Na 0.7300(9) 0.4089(5) 0.0436(4)
Na15 Na 0.5651(9) 0.5124(5) 0.0423(4)
Na18 Na 0.3040(19) 0.1568(10) 0.0486(9)
Na19 Na 0.175(3) 0.0244(14) 0.2198(12)
Na20 Na 0.825(3) 0.5244(14) 0.2802(12)
Na21 Na 0.175(3) 0.4756(14) 0.7198(12)
O94 O 0.3082(12) 0.1004(7) 0.5645(5)
O95 O 0.1970(13) 0.2677(7) 0.5839(6)
O96 O 0.1580(14) 0.1627(8) 0.5627(6)
O97 O 0.3482(14) 0.3142(8) 0.6241(6)
O98 O 0.3240(14) 0.1941(7) 0.6134(6)
O99 O 0.011(2) 0.0396(13) 0.2092(11)
O102 O 0.2186(19) 0.2797(10) 0.4941(8)
O103 O 0.410(3) 0.2755(15) 0.5351(13)
O104 O 0.3047(17) 0.1536(9) 0.4725(8)
O108 O 0.166(2) 0.0701(13) 0.1599(10)
O114 O 0.4097(15) 0.4930(9) 0.0277(7)
O116 O 0.5158(17) 0.6114(9) 0.0331(7)
O118 O 0.7240(16) 0.5173(9) 0.0502(7)
O119 O 0.5424(18) 0.5156(9) 0.1131(8)
O122 O 0.5753(15) 0.4102(8) 0.0419(7)
O124 O 0.7100(18) 0.3993(10) 0.1205(8)
O128 O 0.318(2) 0.0286(13) 0.2077(11)
H19 H 0.274665 0.589731 0.614205
H20 H 0.171524 0.593711 0.627144
H21 H 0.274202 0.481502 0.517605
H22 H 0.206885 0.536166 0.519814
H25 H 0.381407 0.425302 0.585193
H26 H 0.393489 0.461113 0.627978
H27 H 0.434273 0.160389 0.224529
H28 H 0.381027 0.104968 0.241598
H29 H 0.527461 0.569004 0.217763
H30 H 0.43275 0.58498 0.194349
H33 H 0.00503914 0.474615 0.584728
H34 H 0.0304439 0.540301 0.598042
H35 H 0.648868 0.573253 0.218479
H36 H 0.684212 0.607616 0.178881
H45 H 0.821175 0.515662 0.107366
H46 H 0.773405 0.576815 0.116784
O73 O 0.2186(19) 0.2203(10) 0.9941(8)
O75 O 0.3047(17) 0.3464(9) 0.9725(8)
O113 O 0.5903(15) 0.5070(9) 0.9723(7)
H31 H 0.362696 0.367212 0.972658
H32 H 0.301428 0.318443 0.9493
O126 O 0.244(2) 0.9594(12) 0.2779(10)
W7 W 0.94138(8) 0.35600(4) 0.20111(3)
W14 W 0.95852(8) 0.40489(4) 0.10474(3)
O15 O 0.9585(13) 0.4779(7) 0.1305(6)
O24 O 0.9310(14) 0.4395(8) 0.2067(6)
O25 O 0.8822(15) 0.4168(8) 0.0648(7)
O39 O 0.8891(14) 0.3695(8) 0.1446(6)
O49 O 0.9763(13) 0.2816(7) 0.1778(5)
O57 O 0.8415(15) 0.3384(8) 0.2229(7)
O60 O 0.9782(15) 0.5527(8) 0.1965(7)
O67 O 0.989(2) 0.5396(13) 0.2908(11)
O68 O 0.878(2) 0.4151(12) 0.3040(10)
O92 O 0.722(2) 0.3036(12) 0.0424(10)
O93 O 0.682(2) 0.5286(13) 0.2923(11)
N1 N 0.9808(18) 0.2374(10) 0.3052(8)
N2 N 0.899(2) 0.2006(12) 0.3539(9)
C1 C 0.975(2) 0.1785(12) 0.2993(10)
C2 C 0.937(3) 0.2489(17) 0.3369(13)
H2 H 0.9316 0.2859 0.3475
C3 C 0.916(3) 0.1567(17) 0.3304(13)
H3 H 0.8954 0.1191 0.3330
C4 C 0.833(3) 0.198(2) 0.3882(13)
H4 H 0.8196 0.1588 0.3941
H5 H 0.7797 0.2184 0.3797
H6 H 0.8597 0.2163 0.4124
Na11 Na 0.7383(9) 0.7020(5) 0.2533(4)
Na17 Na 0.8016(11) 0.5235(6) 0.4002(5)
O100 O 0.810(2) 0.6093(13) 0.2342(11)
O105 O 0.645(2) 0.5667(12) 0.3879(9)
O106 O 0.8318(19) 0.6166(10) 0.4365(8)
O107 O 0.834(2) 0.5701(13) 0.3401(10)
O109 O 0.953(3) 0.4929(16) 0.4194(13)
O110 O 0.745(2) 0.4858(11) 0.4651(9)
O111 O 0.773(2) 0.4298(12) 0.3707(10)
H23 H 0.845456 0.451641 0.308947
H24 H 0.849696 0.394955 0.279783
H37 H 0.463361 0.612563 0.0132862
H38 H 0.498769 0.6274 0.0599983
H39 H 0.737682 0.288253 0.0703396
H40 H 0.660383 0.29138 0.03381
H41 H 0.663052 0.569631 0.293688
H42 H 0.64704 0.508778 0.269764
O91 O 0.7201(16) 0.4173(9) 0.9702(7)
Na14 Na 0.4349(9) 0.4876(5) 0.9577(4)
O115 O 0.4842(17) 0.3886(9) 0.9669(7)
O117 O 0.2760(16) 0.4827(9) 0.9498(7)
O120 O 0.4576(18) 0.4844(9) 0.8869(8)
O121 O 0.4247(15) 0.5898(8) 0.9581(7)
H43 H 0.755329 0.385922 0.957853
H44 H 0.656595 0.414138 0.960272
Na6 Na 0.4349(9) 0.0124(5) 0.4577(4)
O60_2 O 0.0218(15) 0.0527(8) 0.3035(7)
O82 O 0.4097(15) 0.0070(9) 0.5277(7)
O83 O 0.4842(17) 0.1114(9) 0.4669(7)
O84 O 0.2760(16) 0.0173(9) 0.4498(7)
O85 O 0.4576(18) 0.0156(9) 0.3869(8)
Na17_2 Na 0.1984(11) 0.0235(6) 0.0998(5)
O105_2 O 0.355(2) 0.0667(12) 0.1121(9)
O106_2 O 0.1682(19) 0.1166(10) 0.0635(8)
O121_2 O 0.5753(15) 0.0898(8) 0.5419(7)
O123 O 0.2053(15) 0.0397(8) 0.3710(7)
O127 O 0.358(2) 0.0777(12) 0.3119(10)
H37_2 H 0.536639 0.112563 0.486714
H38_2 H 0.501231 0.1274 0.440002
H41_2 H 0.336948 0.0696314 0.206312
H42_2 H 0.35296 0.00877842 0.230236
W7_2 W 0.05862(8) 0.85600(4) 0.29889(3)
W14_2 W 0.04148(8) 0.90489(4) 0.39526(3)
Na5 Na 0.2700(9) 0.9089(5) 0.4564(4)
O15_2 O 0.0415(13) 0.9779(7) 0.3695(6)
O24_2 O 0.0690(14) 0.9395(8) 0.2933(6)
O25_2 O 0.1178(15) 0.9168(8) 0.4352(7)
O39_2 O 0.1109(14) 0.8695(8) 0.3554(6)
O49_2 O 0.0237(13) 0.7816(7) 0.3222(5)
O57_2 O 0.1585(15) 0.8384(8) 0.2771(7)
O68_2 O 0.122(2) 0.9151(12) 0.1960(10)
O86 O 0.4247(15) 0.9102(8) 0.4581(7)
O88 O 0.2900(18) 0.8993(10) 0.3795(8)
O91_2 O 0.2799(16) 0.9173(9) 0.5298(7)
O92_2 O 0.278(2) 0.8036(12) 0.4576(10)
N1_2 N 0.0192(18) 0.7374(10) 0.1948(8)
N2_2 N 0.101(2) 0.7006(12) 0.1461(9)
C1_2 C 0.025(2) 0.6785(12) 0.2007(10)
C2_2 C 0.063(3) 0.7489(17) 0.1631(13)
H2_2 H 0.0684 0.7859 0.1525
C3_2 C 0.084(3) 0.6567(17) 0.1696(13)
H3_2 H 0.1046 0.6191 0.1670
C4_2 C 0.167(3) 0.698(2) 0.1118(13)
H4_2 H 0.1804 0.6588 0.1059
H5_2 H 0.2203 0.7184 0.1203
H6_2 H 0.1403 0.7163 0.0876
Na14_2 Na 0.5651(9) 0.9876(5) 0.5423(4)
Na16 Na 0.3271(9) 0.9899(5) 0.3435(4)
O101 O 0.441(2) 0.9318(13) 0.3135(10)
O109_2 O 0.047(3) 0.9929(16) 0.0806(13)
O110_2 O 0.255(2) 0.9858(11) 0.0349(9)
O111_2 O 0.227(2) 0.9298(12) 0.1293(10)
O112 O 0.5903(15) 0.9930(9) 0.4723(7)
O115_2 O 0.5158(17) 0.8886(9) 0.5331(7)
O117_2 O 0.7240(16) 0.9827(9) 0.5502(7)
O120_2 O 0.5424(18) 0.9844(9) 0.6131(8)
H23_2 H 0.154544 0.951641 0.191053
H24_2 H 0.150304 0.894955 0.220217
H39_2 H 0.262318 0.788253 0.42966
H40_2 H 0.339617 0.79138 0.46619
H43_2 H 0.244671 0.885922 0.542147
H44_2 H 0.343405 0.914138 0.539728
W9_2 W 0.57422(8) 0.00213(4) 0.18039(3)
W12_2 W 0.75137(8) 0.00364(4) 0.35779(3)
Mn2_2 Mn 0.7757(3) 0.00395(17) 0.24667(14)
O2_2 O 0.8404(16) 0.0559(9) 0.1282(7)
O42_2 O 0.5508(15) 0.0717(8) 0.1911(7)
O51_2 O 0.8797(13) 0.0097(7) 0.3502(6)
O55_2 O 0.7260(14) 0.0752(8) 0.3610(6)
O64_2 O 0.6729(15) 0.0113(8) 0.1466(7)
O72_2 O 0.5384(17) 0.0643(9) 0.2818(7)
N3_2 N 0.7788(17) 0.0963(9) 0.2456(7)
N4_2 N 0.7515(17) 0.1872(10) 0.2616(8)
C5_2 C 0.823(3) 0.1295(14) 0.2190(12)
H7_2 H 0.8556 0.1147 0.1975
C6_2 C 0.816(2) 0.1856(13) 0.2270(10)
H8_2 H 0.8434 0.2165 0.2144
C7_2 C 0.731(2) 0.1304(14) 0.2704(11)
H9_2 H 0.6923 0.1179 0.2899
C8_2 C 0.724(3) 0.2395(14) 0.2811(11)
H10_2 H 0.7505 0.2720 0.2677
H11_2 H 0.7444 0.2389 0.3096
H12_2 H 0.6605 0.2426 0.2791
H29_2 H 0.472539 0.0690039 0.282237
H30_2 H 0.56725 0.0849804 0.305651
H35_2 H 0.351132 0.0732528 0.281521
H36_2 H 0.315788 0.107616 0.321119
H45_2 H 0.178825 0.0156621 0.392634
H46_2 H 0.226595 0.0768146 0.383216
O79_2 O 0.953(3) 0.0071(16) 0.9194(13)
O80_2 O 0.745(2) 0.0142(11) 0.9651(9)
O81_2 O 0.773(2) 0.0702(12) 0.8707(10)
H19_2 H 0.725335 0.0897306 0.885795
H20_2 H 0.828476 0.0937105 0.872856
H22_2 H 0.793115 0.0361659 0.980186
H34_2 H 0.969556 0.0403007 0.901958
Bi1_2 Bi 0.68985(7) 0.86672(4) 0.18355(3)
Bi2_2 Bi 0.82481(7) 0.86617(4) 0.31752(3)
W1_2 W 0.63618(8) 0.88457(4) 0.37824(3)
W2_2 W 0.87939(8) 0.85771(5) 0.11959(3)
W3_2 W 0.45588(8) 0.88494(4) 0.20419(3)
W4_2 W 0.48231(8) 0.91886(4) 0.10617(3)
W5_2 W 0.79689(8) 0.98894(4) 0.13620(3)
W6_2 W 0.81587(8) 0.91987(4) 0.43773(3)
W8_2 W 0.72900(8) 0.73810(4) 0.36151(3)
W10_2 W 0.97485(8) 0.98702(4) 0.31500(3)
W11_2 W 0.70576(8) 0.90677(5) 0.06081(3)
W13_2 W 0.75179(8) 0.72641(4) 0.14573(3)
W15_2 W 0.55011(8) 0.74050(4) 0.18494(3)
W16_2 W 0.91162(8) 0.77310(4) 0.41979(3)
W17_2 W 0.93031(8) 0.72525(4) 0.32301(3)
W18_2 W 0.57825(8) 0.77378(4) 0.08672(3)
Mn1_2 Mn 0.9140(3) 0.78928(17) 0.21988(13)
Mn3_2 Mn 0.5853(3) 0.80798(16) 0.28342(13)
Na2_2 Na 0.9658(9) 0.9368(5) 0.2093(4)
Na3_2 Na 0.5760(9) 0.9622(5) 0.2860(4)
Na4_2 Na 0.7074(9) 0.7951(5) 0.4631(4)
O1_2 O 0.8265(15) 0.9349(8) 0.4880(6)
O3_2 O 0.8185(14) 0.9772(8) 0.1891(6)
O4_2 O 0.7872(10) 0.9947(6) 0.4168(5)
O5_2 O 0.9663(13) 0.7202(7) 0.3839(6)
O6_2 O 0.5170(12) 0.7335(7) 0.1234(5)
O7_2 O 0.8172(16) 0.6660(9) 0.1390(7)
O8_2 O 0.6511(12) 0.6914(7) 0.1702(6)
O9_2 O 0.6918(12) 0.8996(7) 0.4355(5)
O10_2 O 0.8208(12) 0.8712(7) 0.0631(5)
O11_2 O 0.9862(15) 0.8394(8) 0.1005(7)
O12_2 O 0.7574(13) 0.9795(7) 0.0767(6)
O13_2 O 0.4055(13) 0.8977(7) 0.1475(6)
O14_2 O 0.9843(17) 0.6616(10) 0.3109(8)
O16_2 O 0.8967(13) 0.8540(7) 0.1746(6)
O17_2 O 0.8187(12) 0.6873(7) 0.3395(5)
O18_2 O 0.5268(12) 0.7458(7) 0.0421(5)
O19_2 O 0.9003(14) 0.9420(8) 0.1217(6)
O20_2 O 0.8988(13) 0.9724(7) 0.2740(6)
O21_2 O 0.7449(13) 0.8981(7) 0.1290(6)
O22_2 O 0.5908(13) 0.9306(7) 0.0786(6)
O23_2 O 0.5426(12) 0.8740(7) 0.2450(5)
O26_2 O 0.9530(12) 0.8955(7) 0.3361(5)
O27_2 O 0.6452(13) 0.7934(7) 0.1492(6)
O28_2 O 0.8030(13) 0.7323(7) 0.4161(6)
O29_2 O 0.6916(13) 0.7623(7) 0.3139(6)
O30_2 O 0.8484(13) 0.7922(7) 0.3552(6)
O31_2 O 0.6372(14) 0.9682(8) 0.3722(6)
O32_2 O 0.4975(13) 0.9948(7) 0.1284(6)
O33_2 O 0.3560(16) 0.8819(9) 0.2312(7)
O34_2 O 0.7816(13) 0.9100(7) 0.3683(5)
O35_2 O 0.7914(14) 0.7528(8) 0.1960(6)
O36_2 O 0.8420(14) 0.8373(8) 0.4373(6)
O37_2 O 0.8809(14) 0.7486(8) 0.2750(6)
O38_2 O 0.6746(13) 0.7222(7) 0.0924(6)
O40_2 O 0.7277(13) 0.9873(7) 0.3053(6)
O41_2 O 0.4074(15) 0.9359(8) 0.0663(6)
O43_2 O 0.5278(14) 0.8791(7) 0.3912(6)
O44_2 O 0.8226(13) 0.7839(7) 0.1168(6)
O45_2 O 0.9378(13) 0.9316(7) 0.4224(6)
O46_2 O 0.5009(14) 0.8394(7) 0.0960(6)
O47_2 O 0.6486(13) 0.9786(7) 0.2215(6)
O48_2 O 0.6885(14) 0.9147(7) 0.0088(6)
O50_2 O 0.9738(14) 0.8501(7) 0.2589(6)
O52_2 O 0.4836(16) 0.6857(9) 0.2018(7)
O53_2 O 0.6518(14) 0.6858(8) 0.3759(6)
O54_2 O 0.4700(11) 0.8051(6) 0.1865(5)
O56_2 O 0.4712(12) 0.9671(6) 0.2083(5)
O58_2 O 0.6283(14) 0.8762(8) 0.3235(6)
O59_2 O 0.9515(14) 0.7472(8) 0.4661(6)
O61_2 O 0.6569(15) 0.8292(8) 0.0653(7)
O62_2 O 0.6132(15) 0.7663(8) 0.2288(7)
O63_2 O 0.5689(13) 0.9080(7) 0.1633(6)
O65_2 O 0.9987(15) 0.8273(8) 0.4086(7)
O66_2 O 0.6760(14) 0.8059(7) 0.3866(6)
O70_2 O 0.6237(17) 0.6395(9) 0.2765(8)
O73_2 O 0.7814(19) 0.7203(10) 0.5059(8)
O74_2 O 0.590(3) 0.7245(15) 0.4649(13)
O75_2 O 0.6953(17) 0.8464(9) 0.5275(8)
N5_2 N 0.467(2) 0.7697(12) 0.3077(10)
N6_2 N 0.384(3) 0.7115(14) 0.3441(11)
H1_2 H 0.9975 0.6569 0.2205
C9_2 C 0.377(3) 0.797(2) 0.3086(16)
H13_2 H 0.3575 0.8310 0.2960
C10_2 C 0.467(3) 0.7227(14) 0.3289(11)
H14_2 H 0.5171 0.6992 0.3335
C11_2 C 0.328(3) 0.7594(14) 0.3325(12)
H15_2 H 0.2691 0.7647 0.3397
C12_2 C 0.342(4) 0.668(2) 0.3739(16)
H16_2 H 0.2790 0.6760 0.3754
H17_2 H 0.3703 0.6716 0.4008
H18_2 H 0.3496 0.6294 0.3638
Na18_2 Na 0.6960(19) 0.6568(10) 0.4514(9)
O102_2 O 0.7814(19) 0.7797(10) 0.0059(8)
O104_2 O 0.6953(17) 0.6536(9) 0.0275(8)
H27_2 H 0.565727 0.660389 0.275471
H28_2 H 0.618973 0.604968 0.258402
H31_2 H 0.637304 0.867212 0.527342
H32_2 H 0.698572 0.818443 0.5507
Na8_2 Na 0.8016(11) 0.9765(6) 0.9002(5)
Na9_2 Na 0.6960(19) 0.8432(10) 0.9514(9)
O76_2 O 0.645(2) 0.9333(12) 0.8879(9)
O77_2 O 0.8318(19) 0.8834(10) 0.9365(8)
O78_2 O 0.834(2) 0.9299(13) 0.8401(10)
W19_2 W 0.72900(8) 0.76190(4) 0.86151(3)
Na12_2 Na 0.7074(9) 0.7049(5) 0.9631(4)
Na21_2 Na 0.825(3) 0.9756(14) 0.7802(12)
O94_2 O 0.6918(12) 0.6004(7) 0.9355(5)
O95_2 O 0.8030(13) 0.7677(7) 0.9161(6)
O96_2 O 0.8420(14) 0.6627(8) 0.9373(6)
O97_2 O 0.6518(14) 0.8142(8) 0.8759(6)
O98_2 O 0.6760(14) 0.6941(7) 0.8866(6)
O103_2 O 0.590(3) 0.7755(15) 0.9649(13)
H21_2 H 0.725798 0.981502 0.982395
H25_2 H 0.618593 0.925302 0.914807
H26_2 H 0.606511 0.961113 0.872022
H33_2 H 0.994961 0.974615 0.915272
O91_3 O 0.2799(16) 0.5827(9) 0.0298(7)
H43_3 H 0.244671 0.614078 0.0421472
H44_3 H 0.343405 0.585862 0.0397279
W7_3 W 0.05862(8) 0.64400(4) 0.79889(3)
W14_3 W 0.04148(8) 0.59511(4) 0.89526(3)
Na5_2 Na 0.2700(9) 0.5911(5) 0.9564(4)
O15_3 O 0.0415(13) 0.5221(7) 0.8695(6)
O24_3 O 0.0690(14) 0.5605(8) 0.7933(6)
O25_3 O 0.1178(15) 0.5832(8) 0.9352(7)
O39_3 O 0.1109(14) 0.6305(8) 0.8554(6)
O49_3 O 0.0237(13) 0.7184(7) 0.8222(5)
O57_3 O 0.1585(15) 0.6616(8) 0.7771(7)
O60_3 O 0.0218(15) 0.4473(8) 0.8035(7)
O67_2 O 0.011(2) 0.4604(13) 0.7092(11)
O68_3 O 0.122(2) 0.5849(12) 0.6960(10)
O88_2 O 0.2900(18) 0.6007(10) 0.8795(8)
O92_3 O 0.278(2) 0.6964(12) 0.9576(10)
O93_2 O 0.318(2) 0.4714(13) 0.7077(11)
N1_3 N 0.0192(18) 0.7626(10) 0.6948(8)
N2_3 N 0.101(2) 0.7994(12) 0.6461(9)
C1_3 C 0.025(2) 0.8215(12) 0.7007(10)
C2_3 C 0.063(3) 0.7511(17) 0.6631(13)
H2_3 H 0.0684 0.7141 0.6525
C3_3 C 0.084(3) 0.8433(17) 0.6696(13)
H3_3 H 0.1046 0.8809 0.6670
C4_3 C 0.167(3) 0.802(2) 0.6118(13)
H4_3 H 0.1804 0.8412 0.6059
H5_3 H 0.2203 0.7816 0.6203
H6_3 H 0.1403 0.7837 0.5876
Na11_2 Na 0.2617(9) 0.2980(5) 0.7467(4)
Na16_2 Na 0.3271(9) 0.5101(5) 0.8435(4)
O100_2 O 0.190(2) 0.3907(13) 0.7658(11)
O101_2 O 0.441(2) 0.5682(13) 0.8135(10)
O123_2 O 0.2053(15) 0.4603(8) 0.8710(7)
O125 O 0.244(2) 0.5406(12) 0.7779(10)
O127_2 O 0.358(2) 0.4223(12) 0.8119(10)
H23_3 H 0.154544 0.548359 0.691053
H24_3 H 0.150304 0.605045 0.720217
H37_3 H 0.536639 0.387437 0.986714
H38_3 H 0.501231 0.3726 0.940002
H39_3 H 0.262318 0.711747 0.92966
H40_3 H 0.339617 0.70862 0.96619
H41_3 H 0.336948 0.430369 0.706312
H42_3 H 0.35296 0.491222 0.730236
O126_2 O 0.756(2) 0.0406(12) 0.7221(10)
H31_3 H 0.637304 0.632788 0.0273419
H32_3 H 0.698572 0.681557 0.0506998
Bi1_3 Bi 0.68985(7) 0.63328(4) 0.68355(3)
Bi2_3 Bi 0.82481(7) 0.63383(4) 0.81752(3)
W1_3 W 0.63618(8) 0.61543(4) 0.87824(3)
W2_3 W 0.87939(8) 0.64229(5) 0.61959(3)
W3_3 W 0.45588(8) 0.61506(4) 0.70419(3)
W4_3 W 0.48231(8) 0.58114(4) 0.60617(3)
W5_3 W 0.79689(8) 0.51106(4) 0.63620(3)
W6_3 W 0.81587(8) 0.58013(4) 0.93773(3)
W9_3 W 0.57422(8) 0.49787(4) 0.68039(3)
W10_3 W 0.97485(8) 0.51298(4) 0.81500(3)
W11_3 W 0.70576(8) 0.59323(5) 0.56081(3)
W12_3 W 0.75137(8) 0.49636(4) 0.85779(3)
W13_3 W 0.75179(8) 0.77359(4) 0.64573(3)
W15_3 W 0.55011(8) 0.75950(4) 0.68494(3)
W16_3 W 0.91162(8) 0.72690(4) 0.91979(3)
W17_3 W 0.93031(8) 0.77475(4) 0.82301(3)
W18_3 W 0.57825(8) 0.72622(4) 0.58672(3)
Mn1_3 Mn 0.9140(3) 0.71072(17) 0.71988(13)
Mn2_3 Mn 0.7757(3) 0.49605(17) 0.74667(14)
Mn3_3 Mn 0.5853(3) 0.69202(16) 0.78342(13)
Na1_2 Na 0.7383(9) 0.7980(5) 0.7533(4)
Na2_3 Na 0.9658(9) 0.5632(5) 0.7093(4)
Na3_3 Na 0.5760(9) 0.5378(5) 0.7860(4)
O1_3 O 0.8265(15) 0.5651(8) 0.9880(6)
O2_3 O 0.8404(16) 0.4441(9) 0.6282(7)
O3_3 O 0.8185(14) 0.5228(8) 0.6891(6)
O4_3 O 0.7872(10) 0.5053(6) 0.9168(5)
O5_3 O 0.9663(13) 0.7798(7) 0.8839(6)
O6_3 O 0.5170(12) 0.7665(7) 0.6234(5)
O7_3 O 0.8172(16) 0.8340(9) 0.6390(7)
O8_3 O 0.6511(12) 0.8086(7) 0.6702(6)
O10_3 O 0.8208(12) 0.6288(7) 0.5631(5)
O11_3 O 0.9862(15) 0.6606(8) 0.6005(7)
O12_3 O 0.7574(13) 0.5205(7) 0.5767(6)
O13_3 O 0.4055(13) 0.6023(7) 0.6475(6)
O14_3 O 0.9843(17) 0.8384(10) 0.8109(8)
O16_3 O 0.8967(13) 0.6460(7) 0.6746(6)
O17_3 O 0.8187(12) 0.8127(7) 0.8395(5)
O18_3 O 0.5268(12) 0.7542(7) 0.5421(5)
O19_3 O 0.9003(14) 0.5580(8) 0.6217(6)
O20_3 O 0.8988(13) 0.5276(7) 0.7740(6)
O21_3 O 0.7449(13) 0.6019(7) 0.6290(6)
O22_3 O 0.5908(13) 0.5694(7) 0.5786(6)
O23_3 O 0.5426(12) 0.6260(7) 0.7450(5)
O26_3 O 0.9530(12) 0.6045(7) 0.8361(5)
O27_3 O 0.6452(13) 0.7066(7) 0.6492(6)
O29_3 O 0.6916(13) 0.7377(7) 0.8139(6)
O30_3 O 0.8484(13) 0.7078(7) 0.8552(6)
O31_3 O 0.6372(14) 0.5318(8) 0.8722(6)
O32_3 O 0.4975(13) 0.5052(7) 0.6284(6)
O33_3 O 0.3560(16) 0.6181(9) 0.7312(7)
O34_3 O 0.7816(13) 0.5900(7) 0.8683(5)
O35_3 O 0.7914(14) 0.7472(8) 0.6960(6)
O37_3 O 0.8809(14) 0.7514(8) 0.7750(6)
O38_3 O 0.6746(13) 0.7778(7) 0.5924(6)
O40_3 O 0.7277(13) 0.5127(7) 0.8053(6)
O41_3 O 0.4074(15) 0.5641(8) 0.5663(6)
O42_3 O 0.5508(15) 0.4283(8) 0.6911(7)
O43_3 O 0.5278(14) 0.6209(7) 0.8912(6)
O44_3 O 0.8226(13) 0.7161(7) 0.6168(6)
O45_3 O 0.9378(13) 0.5684(7) 0.9224(6)
O46_3 O 0.5009(14) 0.6606(7) 0.5960(6)
O47_3 O 0.6486(13) 0.5214(7) 0.7215(6)
O48_3 O 0.6885(14) 0.5853(7) 0.5088(6)
O50_3 O 0.9738(14) 0.6499(7) 0.7589(6)
O51_3 O 0.8797(13) 0.4903(7) 0.8502(6)
O52_3 O 0.4836(16) 0.8143(9) 0.7018(7)
O54_3 O 0.4700(11) 0.6949(6) 0.6865(5)
O55_3 O 0.7260(14) 0.4248(8) 0.8610(6)
O56_3 O 0.4712(12) 0.5329(6) 0.7083(5)
O58_3 O 0.6283(14) 0.6238(8) 0.8235(6)
O59_3 O 0.9515(14) 0.7528(8) 0.9661(6)
O61_3 O 0.6569(15) 0.6708(8) 0.5653(7)
O62_3 O 0.6132(15) 0.7337(8) 0.7288(7)
O63_3 O 0.5689(13) 0.5920(7) 0.6633(6)
O64_3 O 0.6729(15) 0.4887(8) 0.6466(7)
O65_3 O 0.9987(15) 0.6727(8) 0.9086(7)
O69_2 O 0.810(2) 0.8907(13) 0.7342(11)
O70_3 O 0.6237(17) 0.8605(9) 0.7765(8)
O72_3 O 0.5384(17) 0.4357(9) 0.7818(7)
N3_3 N 0.7788(17) 0.4037(9) 0.7456(7)
N4_3 N 0.7515(17) 0.3128(10) 0.7616(8)
N5_3 N 0.467(2) 0.7303(12) 0.8077(10)
N6_3 N 0.384(3) 0.7885(14) 0.8441(11)
H1_3 H 0.9975 0.8431 0.7205
C5_3 C 0.823(3) 0.3705(14) 0.7190(12)
H7_3 H 0.8556 0.3853 0.6975
C6_3 C 0.816(2) 0.3144(13) 0.7270(10)
H8_3 H 0.8434 0.2835 0.7144
C7_3 C 0.731(2) 0.3696(14) 0.7704(11)
H9_3 H 0.6923 0.3821 0.7899
C8_3 C 0.724(3) 0.2605(14) 0.7811(11)
H10_3 H 0.7505 0.2280 0.7677
H11_3 H 0.7444 0.2611 0.8096
H12_3 H 0.6605 0.2574 0.7791
C9_3 C 0.377(3) 0.703(2) 0.8086(16)
H13_3 H 0.3575 0.6690 0.7960
C10_3 C 0.467(3) 0.7773(14) 0.8289(11)
H14_3 H 0.5171 0.8008 0.8335
C11_3 C 0.328(3) 0.7406(14) 0.8325(12)
H15_3 H 0.2691 0.7353 0.8397
C12_3 C 0.342(4) 0.832(2) 0.8739(16)
H16_3 H 0.2790 0.8240 0.8754
H17_3 H 0.3703 0.8284 0.9008
H18_3 H 0.3496 0.8706 0.8638
O99_2 O 0.989(2) 0.9604(13) 0.7908(11)
O128_2 O 0.682(2) 0.9714(13) 0.7923(11)
H19_3 H 0.725335 0.410269 0.385795
H20_3 H 0.828476 0.406289 0.372856
H21_3 H 0.725798 0.518498 0.482395
H22_3 H 0.793115 0.463834 0.480186
H25_3 H 0.618593 0.574698 0.414807
H26_3 H 0.606511 0.538887 0.372022
H27_3 H 0.565727 0.839611 0.775471
H28_3 H 0.618973 0.895032 0.758402
H29_3 H 0.472539 0.430996 0.782237
H30_3 H 0.56725 0.41502 0.805651
H33_3 H 0.994961 0.525385 0.415272
H34_3 H 0.969556 0.459699 0.401958
H35_3 H 0.351132 0.426747 0.781521
H36_3 H 0.315788 0.392384 0.821119
H45_3 H 0.178825 0.484338 0.892634
H46_3 H 0.226595 0.423185 0.883216
H21_4 H 0.274202 0.0184983 0.0176049
H25_4 H 0.381407 0.0746982 0.085193
H26_4 H 0.393489 0.0388866 0.127978
H33_4 H 0.00503914 0.0253853 0.0847282
Bi1_4 Bi 0.31015(7) 0.13328(4) 0.81645(3)
Bi2_4 Bi 0.17519(7) 0.13383(4) 0.68248(3)
W1_4 W 0.36382(8) 0.11543(4) 0.62176(3)
W2_4 W 0.12061(8) 0.14229(5) 0.88041(3)
W3_4 W 0.54412(8) 0.11506(4) 0.79581(3)
W4_4 W 0.51769(8) 0.08114(4) 0.89383(3)
W5_4 W 0.20311(8) 0.01106(4) 0.86380(3)
W6_4 W 0.18413(8) 0.08013(4) 0.56227(3)
W10_4 W 0.02515(8) 0.01298(4) 0.68500(3)
W11_4 W 0.29424(8) 0.09323(5) 0.93919(3)
W13_4 W 0.24821(8) 0.27359(4) 0.85427(3)
W15_4 W 0.44989(8) 0.25950(4) 0.81506(3)
W16_4 W 0.08838(8) 0.22690(4) 0.58021(3)
W17_4 W 0.06969(8) 0.27475(4) 0.67699(3)
W18_4 W 0.42175(8) 0.22622(4) 0.91328(3)
Mn1_4 Mn 0.0860(3) 0.21072(17) 0.78012(13)
Mn3_4 Mn 0.4147(3) 0.19202(16) 0.71658(13)
Na2_4 Na 0.0342(9) 0.0632(5) 0.7907(4)
Na3_4 Na 0.4240(9) 0.0378(5) 0.7140(4)
Na7_2 Na 0.6729(9) 0.0101(5) 0.6565(4)
O1_4 O 0.1735(15) 0.0651(8) 0.5120(6)
O3_4 O 0.1815(14) 0.0228(8) 0.8109(6)
O4_4 O 0.2128(10) 0.0053(6) 0.5832(5)
O5_4 O 0.0337(13) 0.2798(7) 0.6161(6)
O6_4 O 0.4830(12) 0.2665(7) 0.8766(5)
O7_4 O 0.1828(16) 0.3340(9) 0.8610(7)
O8_4 O 0.3489(12) 0.3086(7) 0.8298(6)
O10_4 O 0.1792(12) 0.1288(7) 0.9369(5)
O11_4 O 0.0138(15) 0.1606(8) 0.8995(7)
O12_4 O 0.2426(13) 0.0205(7) 0.9233(6)
O13_4 O 0.5945(13) 0.1023(7) 0.8525(6)
O14_4 O 0.0157(17) 0.3384(10) 0.6891(8)
O16_4 O 0.1033(13) 0.1460(7) 0.8254(6)
O17_4 O 0.1813(12) 0.3127(7) 0.6605(5)
O18_4 O 0.4732(12) 0.2542(7) 0.9579(5)
O19_4 O 0.0997(14) 0.0580(8) 0.8783(6)
O20_4 O 0.1012(13) 0.0276(7) 0.7260(6)
O21_4 O 0.2551(13) 0.1019(7) 0.8710(6)
O22_4 O 0.4092(13) 0.0694(7) 0.9214(6)
O23_4 O 0.4574(12) 0.1260(7) 0.7550(5)
O26_4 O 0.0470(12) 0.1045(7) 0.6639(5)
O27_4 O 0.3548(13) 0.2066(7) 0.8508(6)
O29_4 O 0.3084(13) 0.2377(7) 0.6861(6)
O30_4 O 0.1516(13) 0.2078(7) 0.6448(6)
O31_4 O 0.3628(14) 0.0318(8) 0.6278(6)
O32_4 O 0.5025(13) 0.0052(7) 0.8716(6)
O33_4 O 0.6440(16) 0.1181(9) 0.7688(7)
O34_4 O 0.2184(13) 0.0900(7) 0.6317(5)
O35_4 O 0.2086(14) 0.2472(8) 0.8040(6)
O37_4 O 0.1191(14) 0.2514(8) 0.7250(6)
O38_4 O 0.3254(13) 0.2778(7) 0.9076(6)
O40_4 O 0.2723(13) 0.0127(7) 0.6947(6)
O41_4 O 0.5926(15) 0.0641(8) 0.9337(6)
O43_4 O 0.4722(14) 0.1209(7) 0.6088(6)
O44_4 O 0.1774(13) 0.2161(7) 0.8832(6)
O45_4 O 0.0622(13) 0.0684(7) 0.5776(6)
O46_4 O 0.4991(14) 0.1606(7) 0.9040(6)
O47_4 O 0.3514(13) 0.0214(7) 0.7785(6)
O48_4 O 0.3115(14) 0.0853(7) 0.9912(6)
O50_4 O 0.0262(14) 0.1499(7) 0.7411(6)
O52_4 O 0.5164(16) 0.3143(9) 0.7982(7)
O54_4 O 0.5300(11) 0.1949(6) 0.8135(5)
O56_4 O 0.5288(12) 0.0329(6) 0.7917(5)
O58_4 O 0.3717(14) 0.1238(8) 0.6765(6)
O59_4 O 0.0485(14) 0.2528(8) 0.5339(6)
O61_4 O 0.3431(15) 0.1708(8) 0.9347(7)
O62_4 O 0.3868(15) 0.2337(8) 0.7712(7)
O63_4 O 0.4311(13) 0.0920(7) 0.8367(6)
O65_4 O 0.0013(15) 0.1727(8) 0.5914(7)
O70_4 O 0.3763(17) 0.3605(9) 0.7235(8)
O71_2 O 0.559(2) 0.0682(13) 0.6865(10)
N5_4 N 0.533(2) 0.2303(12) 0.6923(10)
N6_4 N 0.616(3) 0.2885(14) 0.6559(11)
H1_4 H 0.0025 0.3431 0.7795
C9_4 C 0.623(3) 0.203(2) 0.6914(16)
H13_4 H 0.6425 0.1690 0.7040
C10_4 C 0.533(3) 0.2773(14) 0.6711(11)
H14_4 H 0.4829 0.3008 0.6665
C11_4 C 0.672(3) 0.2406(14) 0.6675(12)
H15_4 H 0.7309 0.2353 0.6603
C12_4 C 0.658(4) 0.332(2) 0.6261(16)
H16_4 H 0.7210 0.3240 0.6246
H17_4 H 0.6297 0.3284 0.5992
H18_4 H 0.6504 0.3706 0.6362
Na13_2 Na 0.7300(9) 0.0911(5) 0.5436(4)
O124_2 O 0.7100(18) 0.1007(10) 0.6205(8)
H27_4 H 0.434273 0.339611 0.724529
H28_4 H 0.381027 0.395032 0.741598
H31_4 H 0.362696 0.132788 0.472658
H32_4 H 0.301428 0.181557 0.4493
H19_4 H 0.274665 0.910269 0.114205
H20_4 H 0.171524 0.906289 0.127144
H22_4 H 0.206885 0.963834 0.019814
H34_4 H 0.0304439 0.959699 0.0980418
W9_4 W 0.42578(8) 0.99787(4) 0.81961(3)
W12_4 W 0.24863(8) 0.99636(4) 0.64221(3)
Mn2_4 Mn 0.2243(3) 0.99605(17) 0.75333(14)
O2_4 O 0.1596(16) 0.9441(9) 0.8718(7)
O42_4 O 0.4492(15) 0.9283(8) 0.8089(7)
O51_4 O 0.1203(13) 0.9903(7) 0.6498(6)
O55_4 O 0.2740(14) 0.9248(8) 0.6390(6)
O64_4 O 0.3271(15) 0.9887(8) 0.8534(7)
O72_4 O 0.4616(17) 0.9357(9) 0.7182(7)
O87_2 O 0.7947(15) 0.9603(8) 0.6290(7)
O90_2 O 0.642(2) 0.9223(12) 0.6881(10)
N3_4 N 0.2212(17) 0.9037(9) 0.7544(7)
N4_4 N 0.2485(17) 0.8128(10) 0.7384(8)
C5_4 C 0.177(3) 0.8705(14) 0.7810(12)
H7_4 H 0.1444 0.8853 0.8025
C6_4 C 0.184(2) 0.8144(13) 0.7730(10)
H8_4 H 0.1566 0.7835 0.7856
C7_4 C 0.269(2) 0.8696(14) 0.7296(11)
H9_4 H 0.3077 0.8821 0.7101
C8_4 C 0.276(3) 0.7605(14) 0.7189(11)
H10_4 H 0.2495 0.7280 0.7323
H11_4 H 0.2556 0.7611 0.6904
H12_4 H 0.3395 0.7574 0.7209
H29_4 H 0.527461 0.930996 0.717763
H30_4 H 0.43275 0.91502 0.694349
H35_4 H 0.648868 0.926747 0.718479
H36_4 H 0.684212 0.892384 0.678881
H45_4 H 0.821175 0.984338 0.607366
H46_4 H 0.773405 0.923185 0.616784
W7_4 W 0.94138(8) 0.14400(4) 0.70111(3)
W14_4 W 0.95852(8) 0.09511(4) 0.60474(3)
O15_4 O 0.9585(13) 0.0221(7) 0.6305(6)
O24_4 O 0.9310(14) 0.0605(8) 0.7067(6)
O25_4 O 0.8822(15) 0.0832(8) 0.5648(7)
O39_4 O 0.8891(14) 0.1305(8) 0.6446(6)
O49_4 O 0.9763(13) 0.2184(7) 0.6778(5)
O57_4 O 0.8415(15) 0.1616(8) 0.7229(7)
O68_4 O 0.878(2) 0.0849(12) 0.8040(10)
O91_4 O 0.7201(16) 0.0827(9) 0.4702(7)
O92_4 O 0.722(2) 0.1964(12) 0.5424(10)
N1_4 N 0.9808(18) 0.2626(10) 0.8052(8)
N2_4 N 0.899(2) 0.2994(12) 0.8539(9)
C1_4 C 0.975(2) 0.3215(12) 0.7993(10)
C2_4 C 0.937(3) 0.2511(17) 0.8369(13)
H2_4 H 0.9316 0.2141 0.8475
C3_4 C 0.916(3) 0.3433(17) 0.8304(13)
H3_4 H 0.8954 0.3809 0.8330
C4_4 C 0.833(3) 0.302(2) 0.8882(13)
H4_4 H 0.8196 0.3412 0.8941
H5_4 H 0.7797 0.2816 0.8797
H6_4 H 0.8597 0.2837 0.9124
H23_4 H 0.845456 0.0483594 0.808947
H24_4 H 0.849696 0.105045 0.779783
H39_4 H 0.737682 0.211747 0.57034
H40_4 H 0.660383 0.20862 0.53381
H43_4 H 0.755329 0.114078 0.457853
H44_4 H 0.656595 0.0858623 0.460272
O60_4 O 0.9782(15) 0.9473(8) 0.6965(7)
H37_4 H 0.463361 0.887437 0.513286
H38_4 H 0.498769 0.8726 0.559998
H41_4 H 0.663052 0.930369 0.793688
H42_4 H 0.64704 0.991222 0.769764
loop_
_geom_bond_atom_site_label_1
_geom_bond_atom_site_label_2
_geom_bond_site_symmetry_1
_geom_bond_site_symmetry_2
Bi1 O21 1_555 1_555
Bi2 O26 1_555 1_555
W1 O9 1_555 1_555
W2 O10 1_555 1_555
W3 O13 1_555 1_555
W4 O13 1_555 1_555
W5 O2 1_555 1_555
W6 O1 1_555 1_555
W8 O17 1_555 1_555
W9 O32 1_555 1_555
W11 O10 1_555 1_555
W12 O4 1_555 1_555
W13 O7 1_555 1_555
W15 O6 1_555 1_555
W16 O5 1_555 1_555
W17 O5 1_555 1_555
W18 O6 1_555 1_555
Mn1 O16 1_555 1_555
Mn2 O3 1_555 1_555
Mn3 O23 1_555 1_555
Na1 O29 1_555 1_555
Na2 O3 1_555 1_555
Na3 O23 1_555 1_555
Na4 O9 1_555 1_555
Na7 O71 1_555 1_555
Na8 O76 1_555 1_555
Na9 O48 1_555 1_555
O3 W5 1_555 1_555
O4 W6 1_555 1_555
O8 W13 1_555 1_555
O9 W6 1_555 1_555
O11 W2 1_555 1_555
O12 W5 1_555 1_555
O14 W17 1_555 1_555
O16 W2 1_555 1_555
O17 W17 1_555 1_555
O18 W18 1_555 1_555
O19 W2 1_555 1_555
O20 W10 1_555 1_555
O21 W2 1_555 1_555
O22 W4 1_555 1_555
O23 W3 1_555 1_555
O27 Bi1 1_555 1_555
O28 W8 1_555 1_555
O29 W8 1_555 1_555
O30 Bi2 1_555 1_555
O31 W1 1_555 1_555
O32 W4 1_555 1_555
O33 W3 1_555 1_555
O34 Bi2 1_555 1_555
O35 W13 1_555 1_555
O36 W6 1_555 1_555
O37 W17 1_555 1_555
O38 W13 1_555 1_555
O40 W12 1_555 1_555
O41 W4 1_555 1_555
O42 W9 1_555 1_555
O43 W1 1_555 1_555
O44 W2 1_555 1_555
O45 W6 1_555 1_555
O46 W4 1_555 1_555
O47 W9 1_555 1_555
O48 W11 1_555 1_555
O51 W10 1_555 1_555
O52 W15 1_555 1_555
O53 W8 1_555 1_555
O54 W3 1_555 1_555
O55 W12 1_555 1_555
O56 W3 1_555 1_555
O58 W1 1_555 1_555
O59 W16 1_555 1_555
O61 W11 1_555 1_555
O62 W15 1_555 1_555
O63 Bi1 1_555 1_555
O64 W5 1_555 1_555
O66 W1 1_555 1_555
O69 Na1 1_555 1_555
O70 Na1 1_555 1_555
O71 Na3 1_555 1_555
O72 Na3 1_555 1_555
O74 Na4 1_555 1_555
O77 Na8 1_555 1_555
O78 Na8 1_555 1_555
O79 Na8 1_555 1_555
O80 Na8 1_555 1_555
O81 Na8 1_555 1_555
O87 Na7 1_555 1_555
O89 Na7 1_555 1_555
O90 Na7 1_555 1_555
N3 Mn2 1_555 1_555
N4 C6 1_555 1_555
N5 Mn3 1_555 1_555
N6 C10 1_555 1_555
C5 N3 1_555 1_555
H7 C5 1_555 1_555
C6 C5 1_555 1_555
H8 C6 1_555 1_555
C7 N3 1_555 1_555
H9 C7 1_555 1_555
C8 N4 1_555 1_555
H10 C8 1_555 1_555
H11 C8 1_555 1_555
H12 C8 1_555 1_555
C9 N5 1_555 1_555
H13 C9 1_555 1_555
C10 N5 1_555 1_555
H14 C10 1_555 1_555
C11 N6 1_555 1_555
H15 C11 1_555 1_555
C12 N6 1_555 1_555
H16 C12 1_555 1_555
H17 C12 1_555 1_555
H18 C12 1_555 1_555
W19 O95 1_555 1_555
Na12 O94 1_555 1_555
Na13 O118 1_555 1_555
Na18 O53 1_555 1_555
Na19 O69 1_555 1_555
Na20 O89 1_555 1_555
Na21 O78 1_555 1_555
O95 Na12 1_555 1_555
O96 Na12 1_555 1_555
O97 Na9 1_555 1_555
O98 W19 1_555 1_555
O99 Na19 1_555 1_555
O102 Na9 1_555 1_555
O103 Na9 1_555 1_555
O104 Na12 1_555 1_555
O108 Na19 1_555 1_555
O114 Na15 1_555 1_555
O116 Na15 1_555 1_555
O118 Na15 1_555 1_555
O119 Na7 1_555 1_555
O122 Na13 1_555 1_555
O124 Na7 1_555 1_555
O128 Na19 1_555 1_555
W1 O34 1_555 1_555
W3 O63 1_555 1_555
W4 O63 1_555 1_555
W5 O19 1_555 1_555
W5 O21 1_555 1_555
W6 O34 1_555 1_555
W8 O30 1_555 1_555
W8 O66 1_555 1_555
W9 O56 1_555 1_555
W9 O63 1_555 1_555
W9 O64 1_555 1_555
W10 O26 1_555 1_555
W11 O12 1_555 1_555
W11 O21 1_555 1_555
W11 O22 1_555 1_555
W12 O31 1_555 1_555
W12 O34 1_555 1_555
W12 O51 1_555 1_555
W13 O27 1_555 1_555
W13 O44 1_555 1_555
W15 O8 1_555 1_555
W15 O27 1_555 1_555
W15 O54 1_555 1_555
W16 O28 1_555 1_555
W16 O30 1_555 1_555
W16 O36 1_555 1_555
W16 O65 1_555 1_555
W17 O30 1_555 1_555
W18 O27 1_555 1_555
W18 O38 1_555 1_555
W18 O46 1_555 1_555
W18 O61 1_555 1_555
Mn1 O35 1_555 1_555
Mn1 O37 1_555 1_555
Mn1 O50 1_555 1_555
Mn2 O20 1_555 1_555
Mn2 O40 1_555 1_555
Mn2 O47 1_555 1_555
Mn3 O29 1_555 1_555
Mn3 O58 1_555 1_555
Mn3 O62 1_555 1_555
Na1 O35 1_555 1_555
Na1 O37 1_555 1_555
Na1 O62 1_555 1_555
Na2 O16 1_555 1_555
Na2 O20 1_555 1_555
Na2 O50 1_555 1_555
Na3 O40 1_555 1_555
Na3 O47 1_555 1_555
Na3 O58 1_555 1_555
Na4 O28 1_555 1_555
Na4 O36 1_555 1_555
Na4 O66 1_555 1_555
Na9 O77 1_555 1_555
O74 Na18 1_555 1_555
N4 C7 1_555 1_555
C9 C11 1_555 1_555
W19 O97 1_555 1_555
Na12 O98 1_555 1_555
Na12 O102 1_555 1_555
Na12 O103 1_555 1_555
Na13 O124 1_555 1_555
Na15 O119 1_555 1_555
Na15 O122 1_555 1_555
O81 H19 1_555 1_555
O81 H20 1_555 1_555
O80 H21 1_555 1_555
O80 H22 1_555 1_555
O76 H25 1_555 1_555
O76 H26 1_555 1_555
O70 H27 1_555 1_555
O70 H28 1_555 1_555
O72 H29 1_555 1_555
O72 H30 1_555 1_555
O79 H33 1_555 1_555
O79 H34 1_555 1_555
O90 H35 1_555 1_555
O90 H36 1_555 1_555
O87 H45 1_555 1_555
O87 H46 1_555 1_555
O75 H31 1_555 1_555
O75 H32 1_555 1_555
W7 O24 1_555 1_555
W14 O15 1_555 1_555
Na13 O25 1_555 1_555
Na20 O67 1_555 1_555
O25 W14 1_555 1_555
O39 W7 1_555 1_555
O49 W7 1_555 1_555
O57 W7 1_555 1_555
O92 Na13 1_555 1_555
O93 Na20 1_555 1_555
N2 C2 1_555 1_555
C1 N1 1_555 1_555
C2 N1 1_555 1_555
H2 C2 1_555 1_555
C3 N2 1_555 1_555
H3 C3 1_555 1_555
C4 N2 1_555 1_555
H4 C4 1_555 1_555
H5 C4 1_555 1_555
H6 C4 1_555 1_555
Na11 O100 1_555 1_555
Na17 O105 1_555 1_555
O100 Na20 1_555 1_555
O106 Na17 1_555 1_555
O107 Na20 1_555 1_555
O109 Na17 1_555 1_555
O110 Na17 1_555 1_555
O111 Na17 1_555 1_555
W14 O39 1_555 1_555
C1 C3 1_555 1_555
Na17 O107 1_555 1_555
O68 H23 1_555 1_555
O68 H24 1_555 1_555
O116 H37 1_555 1_555
O116 H38 1_555 1_555
O92 H39 1_555 1_555
O92 H40 1_555 1_555
O93 H41 1_555 1_555
O93 H42 1_555 1_555
O113 Na14 1_555 1_555
O115 Na14 1_555 1_555
O117 Na14 1_555 1_555
O120 Na14 1_555 1_555
O121 Na14 1_555 1_555
O91 H43 1_555 1_555
O91 H44 1_555 1_555
Na6 O82 1_555 1_555
O83 Na6 1_555 1_555
O85 Na6 1_555 1_555
Na17_2 O105_2 1_555 1_555
O106_2 Na17_2 1_555 1_555
Na6 O84 1_555 1_555
Na17_2 O108 1_555 1_555
O83 H37_2 1_555 1_555
O83 H38_2 1_555 1_555
O128 H41_2 1_555 1_555
O128 H42_2 1_555 1_555
W7_2 O24_2 1_555 1_555
W14_2 O15_2 1_555 1_555
Na5 O25_2 1_555 1_555
O25_2 W14_2 1_555 1_555
O39_2 W7_2 1_555 1_555
O49_2 W7_2 1_555 1_555
O57_2 W7_2 1_555 1_555
O86 Na5 1_555 1_555
O88 Na5 1_555 1_555
O91_2 Na5 1_555 1_555
O92_2 Na5 1_555 1_555
N2_2 C2_2 1_555 1_555
C1_2 N1_2 1_555 1_555
C2_2 N1_2 1_555 1_555
H2_2 C2_2 1_555 1_555
C3_2 N2_2 1_555 1_555
H3_2 C3_2 1_555 1_555
C4_2 N2_2 1_555 1_555
H4_2 C4_2 1_555 1_555
H5_2 C4_2 1_555 1_555
H6_2 C4_2 1_555 1_555
Na14_2 O112 1_555 1_555
O101 Na16 1_555 1_555
O115_2 Na14_2 1_555 1_555
O117_2 Na14_2 1_555 1_555
O120_2 Na14_2 1_555 1_555
W14_2 O39_2 1_555 1_555
O88 Na16 1_555 1_555
C1_2 C3_2 1_555 1_555
Na16 O126 1_555 1_555
O68_2 H23_2 1_555 1_555
O68_2 H24_2 1_555 1_555
O92_2 H39_2 1_555 1_555
O92_2 H40_2 1_555 1_555
O91_2 H43_2 1_555 1_555
O91_2 H44_2 1_555 1_555
O42_2 W9_2 1_555 1_555
O55_2 W12_2 1_555 1_555
N3_2 Mn2_2 1_555 1_555
N4_2 C6_2 1_555 1_555
C5_2 N3_2 1_555 1_555
H7_2 C5_2 1_555 1_555
C6_2 C5_2 1_555 1_555
H8_2 C6_2 1_555 1_555
C7_2 N3_2 1_555 1_555
H9_2 C7_2 1_555 1_555
C8_2 N4_2 1_555 1_555
H10_2 C8_2 1_555 1_555
H11_2 C8_2 1_555 1_555
H12_2 C8_2 1_555 1_555
W9_2 O64_2 1_555 1_555
W12_2 O51_2 1_555 1_555
N4_2 C7_2 1_555 1_555
O72_2 H29_2 1_555 1_555
O72_2 H30_2 1_555 1_555
O127 H35_2 1_555 1_555
O127 H36_2 1_555 1_555
O123 H45_2 1_555 1_555
O123 H46_2 1_555 1_555
O81_2 H19_2 1_555 1_555
O81_2 H20_2 1_555 1_555
O80_2 H22_2 1_555 1_555
O79_2 H34_2 1_555 1_555
Bi1_2 O21_2 1_555 1_555
Bi2_2 O26_2 1_555 1_555
W1_2 O9_2 1_555 1_555
W2_2 O10_2 1_555 1_555
W3_2 O13_2 1_555 1_555
W4_2 O13_2 1_555 1_555
W6_2 O1_2 1_555 1_555
W8_2 O17_2 1_555 1_555
W11_2 O10_2 1_555 1_555
W13_2 O7_2 1_555 1_555
W15_2 O6_2 1_555 1_555
W16_2 O5_2 1_555 1_555
W17_2 O5_2 1_555 1_555
W18_2 O6_2 1_555 1_555
Mn1_2 O16_2 1_555 1_555
Mn3_2 O23_2 1_555 1_555
Na11 O29_2 1_555 1_555
Na2_2 O3_2 1_555 1_555
Na3_2 O23_2 1_555 1_555
Na4_2 O9_2 1_555 1_555
O3_2 W5_2 1_555 1_555
O4_2 W6_2 1_555 1_555
O8_2 W13_2 1_555 1_555
O9_2 W6_2 1_555 1_555
O11_2 W2_2 1_555 1_555
O12_2 W5_2 1_555 1_555
O14_2 W17_2 1_555 1_555
O16_2 W2_2 1_555 1_555
O17_2 W17_2 1_555 1_555
O18_2 W18_2 1_555 1_555
O19_2 W2_2 1_555 1_555
O20_2 W10_2 1_555 1_555
O21_2 W2_2 1_555 1_555
O22_2 W4_2 1_555 1_555
O23_2 W3_2 1_555 1_555
O27_2 Bi1_2 1_555 1_555
O28_2 W8_2 1_555 1_555
O29_2 W8_2 1_555 1_555
O30_2 Bi2_2 1_555 1_555
O31_2 W1_2 1_555 1_555
O32_2 W4_2 1_555 1_555
O33_2 W3_2 1_555 1_555
O34_2 Bi2_2 1_555 1_555
O35_2 W13_2 1_555 1_555
O36_2 W6_2 1_555 1_555
O37_2 W17_2 1_555 1_555
O38_2 W13_2 1_555 1_555
O41_2 W4_2 1_555 1_555
O43_2 W1_2 1_555 1_555
O44_2 W2_2 1_555 1_555
O45_2 W6_2 1_555 1_555
O46_2 W4_2 1_555 1_555
O48_2 W11_2 1_555 1_555
O52_2 W15_2 1_555 1_555
O53_2 W8_2 1_555 1_555
O54_2 W3_2 1_555 1_555
O56_2 W3_2 1_555 1_555
O58_2 W1_2 1_555 1_555
O59_2 W16_2 1_555 1_555
O61_2 W11_2 1_555 1_555
O62_2 W15_2 1_555 1_555
O63_2 Bi1_2 1_555 1_555
O66_2 W1_2 1_555 1_555
O70_2 Na11 1_555 1_555
O101 Na3_2 1_555 1_555
O73_2 Na4_2 1_555 1_555
O74_2 Na4_2 1_555 1_555
O75_2 Na4_2 1_555 1_555
N5_2 Mn3_2 1_555 1_555
N6_2 C10_2 1_555 1_555
C9_2 N5_2 1_555 1_555
H13_2 C9_2 1_555 1_555
C10_2 N5_2 1_555 1_555
H14_2 C10_2 1_555 1_555
C11_2 N6_2 1_555 1_555
H15_2 C11_2 1_555 1_555
C12_2 N6_2 1_555 1_555
H16_2 C12_2 1_555 1_555
H17_2 C12_2 1_555 1_555
H18_2 C12_2 1_555 1_555
Na18_2 O53_2 1_555 1_555
W1_2 O34_2 1_555 1_555
W3_2 O63_2 1_555 1_555
W4_2 O63_2 1_555 1_555
W5_2 O19_2 1_555 1_555
W5_2 O21_2 1_555 1_555
W6_2 O34_2 1_555 1_555
W8_2 O30_2 1_555 1_555
W8_2 O66_2 1_555 1_555
W10_2 O26_2 1_555 1_555
W11_2 O12_2 1_555 1_555
W11_2 O21_2 1_555 1_555
W11_2 O22_2 1_555 1_555
W13_2 O27_2 1_555 1_555
W13_2 O44_2 1_555 1_555
W15_2 O8_2 1_555 1_555
W15_2 O27_2 1_555 1_555
W15_2 O54_2 1_555 1_555
W16_2 O28_2 1_555 1_555
W16_2 O30_2 1_555 1_555
W16_2 O36_2 1_555 1_555
W16_2 O65_2 1_555 1_555
W17_2 O30_2 1_555 1_555
W18_2 O27_2 1_555 1_555
W18_2 O38_2 1_555 1_555
W18_2 O46_2 1_555 1_555
W18_2 O61_2 1_555 1_555
Mn1_2 O35_2 1_555 1_555
Mn1_2 O37_2 1_555 1_555
Mn1_2 O50_2 1_555 1_555
Mn3_2 O29_2 1_555 1_555
Mn3_2 O58_2 1_555 1_555
Mn3_2 O62_2 1_555 1_555
Na11 O35_2 1_555 1_555
Na11 O37_2 1_555 1_555
Na11 O62_2 1_555 1_555
Na2_2 O16_2 1_555 1_555
Na2_2 O20_2 1_555 1_555
Na2_2 O50_2 1_555 1_555
Na3_2 O40_2 1_555 1_555
Na3_2 O47_2 1_555 1_555
Na3_2 O58_2 1_555 1_555
Na4_2 O28_2 1_555 1_555
Na4_2 O36_2 1_555 1_555
Na4_2 O66_2 1_555 1_555
O73_2 Na18_2 1_555 1_555
O74_2 Na18_2 1_555 1_555
C9_2 C11_2 1_555 1_555
O70_2 H27_2 1_555 1_555
O70_2 H28_2 1_555 1_555
O75_2 H31_2 1_555 1_555
O75_2 H32_2 1_555 1_555
Na8_2 O76_2 1_555 1_555
O77_2 Na8_2 1_555 1_555
O78_2 Na8_2 1_555 1_555
W19_2 O95_2 1_555 1_555
Na12_2 O94_2 1_555 1_555
Na21_2 O78_2 1_555 1_555
O95_2 Na12_2 1_555 1_555
O96_2 Na12_2 1_555 1_555
O97_2 Na9_2 1_555 1_555
O98_2 W19_2 1_555 1_555
O103_2 Na9_2 1_555 1_555
Na9_2 O77_2 1_555 1_555
W19_2 O97_2 1_555 1_555
Na12_2 O98_2 1_555 1_555
Na12_2 O103_2 1_555 1_555
O76_2 H25_2 1_555 1_555
O76_2 H26_2 1_555 1_555
O91_3 H43_3 1_555 1_555
O91_3 H44_3 1_555 1_555
W7_3 O24_3 1_555 1_555
W14_3 O15_3 1_555 1_555
Na5_2 O25_3 1_555 1_555
Na21 O67_2 1_555 1_555
O25_3 W14_3 1_555 1_555
O39_3 W7_3 1_555 1_555
O49_3 W7_3 1_555 1_555
O57_3 W7_3 1_555 1_555
O117 Na5_2 1_555 1_555
O121 Na5_2 1_555 1_555
O88_2 Na5_2 1_555 1_555
O92_3 Na5_2 1_555 1_555
O93_2 Na21 1_555 1_555
N2_3 C2_3 1_555 1_555
C1_3 N1_3 1_555 1_555
C2_3 N1_3 1_555 1_555
H2_3 C2_3 1_555 1_555
C3_3 N2_3 1_555 1_555
H3_3 C3_3 1_555 1_555
C4_3 N2_3 1_555 1_555
H4_3 C4_3 1_555 1_555
H5_3 C4_3 1_555 1_555
H6_3 C4_3 1_555 1_555
Na11_2 O100_2 1_555 1_555
Na16_2 O120 1_555 1_555
O100_2 Na21 1_555 1_555
O101_2 Na16_2 1_555 1_555
O123_2 Na16_2 1_555 1_555
O125 Na21 1_555 1_555
O127_2 Na16_2 1_555 1_555
W14_3 O39_3 1_555 1_555
O88_2 Na16_2 1_555 1_555
C1_3 C3_3 1_555 1_555
Na16_2 O125 1_555 1_555
O68_3 H23_3 1_555 1_555
O68_3 H24_3 1_555 1_555
O115 H37_3 1_555 1_555
O115 H38_3 1_555 1_555
O92_3 H39_3 1_555 1_555
O92_3 H40_3 1_555 1_555
O93_2 H41_3 1_555 1_555
O93_2 H42_3 1_555 1_555
O104_2 H31_3 1_555 1_555
O104_2 H32_3 1_555 1_555
Bi1_3 O21_3 1_555 1_555
Bi2_3 O26_3 1_555 1_555
W1_3 O94_2 1_555 1_555
W2_3 O10_3 1_555 1_555
W3_3 O13_3 1_555 1_555
W4_3 O13_3 1_555 1_555
W5_3 O2_3 1_555 1_555
W6_3 O1_3 1_555 1_555
W19_2 O17_3 1_555 1_555
W9_3 O32_3 1_555 1_555
W11_3 O10_3 1_555 1_555
W12_3 O4_3 1_555 1_555
W13_3 O7_3 1_555 1_555
W15_3 O6_3 1_555 1_555
W16_3 O5_3 1_555 1_555
W17_3 O5_3 1_555 1_555
W18_3 O6_3 1_555 1_555
Mn1_3 O16_3 1_555 1_555
Mn2_3 O3_3 1_555 1_555
Mn3_3 O23_3 1_555 1_555
Na1_2 O29_3 1_555 1_555
Na2_3 O3_3 1_555 1_555
Na3_3 O23_3 1_555 1_555
Na18_2 O48_3 1_555 1_555
O3_3 W5_3 1_555 1_555
O4_3 W6_3 1_555 1_555
O8_3 W13_3 1_555 1_555
O94_2 W6_3 1_555 1_555
O11_3 W2_3 1_555 1_555
O12_3 W5_3 1_555 1_555
O14_3 W17_3 1_555 1_555
O16_3 W2_3 1_555 1_555
O17_3 W17_3 1_555 1_555
O18_3 W18_3 1_555 1_555
O19_3 W2_3 1_555 1_555
O20_3 W10_3 1_555 1_555
O21_3 W2_3 1_555 1_555
O22_3 W4_3 1_555 1_555
O23_3 W3_3 1_555 1_555
O27_3 Bi1_3 1_555 1_555
O29_3 W19_2 1_555 1_555
O30_3 Bi2_3 1_555 1_555
O31_3 W1_3 1_555 1_555
O32_3 W4_3 1_555 1_555
O33_3 W3_3 1_555 1_555
O34_3 Bi2_3 1_555 1_555
O35_3 W13_3 1_555 1_555
O96_2 W6_3 1_555 1_555
O37_3 W17_3 1_555 1_555
O38_3 W13_3 1_555 1_555
O40_3 W12_3 1_555 1_555
O41_3 W4_3 1_555 1_555
O42_3 W9_3 1_555 1_555
O43_3 W1_3 1_555 1_555
O44_3 W2_3 1_555 1_555
O45_3 W6_3 1_555 1_555
O46_3 W4_3 1_555 1_555
O47_3 W9_3 1_555 1_555
O48_3 W11_3 1_555 1_555
O51_3 W10_3 1_555 1_555
O52_3 W15_3 1_555 1_555
O54_3 W3_3 1_555 1_555
O55_3 W12_3 1_555 1_555
O56_3 W3_3 1_555 1_555
O58_3 W1_3 1_555 1_555
O59_3 W16_3 1_555 1_555
O61_3 W11_3 1_555 1_555
O62_3 W15_3 1_555 1_555
O63_3 Bi1_3 1_555 1_555
O64_3 W5_3 1_555 1_555
O98_2 W1_3 1_555 1_555
O69_2 Na1_2 1_555 1_555
O70_3 Na1_2 1_555 1_555
O101_2 Na3_3 1_555 1_555
O72_3 Na3_3 1_555 1_555
N3_3 Mn2_3 1_555 1_555
N4_3 C6_3 1_555 1_555
N5_3 Mn3_3 1_555 1_555
N6_3 C10_3 1_555 1_555
C5_3 N3_3 1_555 1_555
H7_3 C5_3 1_555 1_555
C6_3 C5_3 1_555 1_555
H8_3 C6_3 1_555 1_555
C7_3 N3_3 1_555 1_555
H9_3 C7_3 1_555 1_555
C8_3 N4_3 1_555 1_555
H10_3 C8_3 1_555 1_555
H11_3 C8_3 1_555 1_555
H12_3 C8_3 1_555 1_555
C9_3 N5_3 1_555 1_555
H13_3 C9_3 1_555 1_555
C10_3 N5_3 1_555 1_555
H14_3 C10_3 1_555 1_555
C11_3 N6_3 1_555 1_555
H15_3 C11_3 1_555 1_555
C12_3 N6_3 1_555 1_555
H16_3 C12_3 1_555 1_555
H17_3 C12_3 1_555 1_555
H18_3 C12_3 1_555 1_555
Na21_2 O69_2 1_555 1_555
O99_2 Na21_2 1_555 1_555
O128_2 Na21_2 1_555 1_555
W1_3 O34_3 1_555 1_555
W3_3 O63_3 1_555 1_555
W4_3 O63_3 1_555 1_555
W5_3 O19_3 1_555 1_555
W5_3 O21_3 1_555 1_555
W6_3 O34_3 1_555 1_555
W19_2 O30_3 1_555 1_555
W9_3 O56_3 1_555 1_555
W9_3 O63_3 1_555 1_555
W9_3 O64_3 1_555 1_555
W10_3 O26_3 1_555 1_555
W11_3 O12_3 1_555 1_555
W11_3 O21_3 1_555 1_555
W11_3 O22_3 1_555 1_555
W12_3 O31_3 1_555 1_555
W12_3 O34_3 1_555 1_555
W12_3 O51_3 1_555 1_555
W13_3 O27_3 1_555 1_555
W13_3 O44_3 1_555 1_555
W15_3 O8_3 1_555 1_555
W15_3 O27_3 1_555 1_555
W15_3 O54_3 1_555 1_555
W16_3 O95_2 1_555 1_555
W16_3 O30_3 1_555 1_555
W16_3 O96_2 1_555 1_555
W16_3 O65_3 1_555 1_555
W17_3 O30_3 1_555 1_555
W18_3 O27_3 1_555 1_555
W18_3 O38_3 1_555 1_555
W18_3 O46_3 1_555 1_555
W18_3 O61_3 1_555 1_555
Mn1_3 O35_3 1_555 1_555
Mn1_3 O37_3 1_555 1_555
Mn1_3 O50_3 1_555 1_555
Mn2_3 O20_3 1_555 1_555
Mn2_3 O40_3 1_555 1_555
Mn2_3 O47_3 1_555 1_555
Mn3_3 O29_3 1_555 1_555
Mn3_3 O58_3 1_555 1_555
Mn3_3 O62_3 1_555 1_555
Na1_2 O35_3 1_555 1_555
Na1_2 O37_3 1_555 1_555
Na1_2 O62_3 1_555 1_555
Na2_3 O16_3 1_555 1_555
Na2_3 O20_3 1_555 1_555
Na2_3 O50_3 1_555 1_555
Na3_3 O40_3 1_555 1_555
Na3_3 O47_3 1_555 1_555
Na3_3 O58_3 1_555 1_555
Na18_2 O106 1_555 1_555
N4_3 C7_3 1_555 1_555
C9_3 C11_3 1_555 1_555
O111 H19_3 1_555 1_555
O111 H20_3 1_555 1_555
O110 H21_3 1_555 1_555
O110 H22_3 1_555 1_555
O105 H25_3 1_555 1_555
O105 H26_3 1_555 1_555
O70_3 H27_3 1_555 1_555
O70_3 H28_3 1_555 1_555
O72_3 H29_3 1_555 1_555
O72_3 H30_3 1_555 1_555
O109 H33_3 1_555 1_555
O109 H34_3 1_555 1_555
O127_2 H35_3 1_555 1_555
O127_2 H36_3 1_555 1_555
O123_2 H45_3 1_555 1_555
O123_2 H46_3 1_555 1_555
Na18 O106_2 1_555 1_555
O105_2 H25_4 1_555 1_555
O105_2 H26_4 1_555 1_555
Bi1_4 O21_4 1_555 1_555
Bi2_4 O26_4 1_555 1_555
W1_4 O94 1_555 1_555
W2_4 O10_4 1_555 1_555
W3_4 O13_4 1_555 1_555
W4_4 O13_4 1_555 1_555
W6_4 O1_4 1_555 1_555
W19 O17_4 1_555 1_555
W11_4 O10_4 1_555 1_555
W13_4 O7_4 1_555 1_555
W15_4 O6_4 1_555 1_555
W16_4 O5_4 1_555 1_555
W17_4 O5_4 1_555 1_555
W18_4 O6_4 1_555 1_555
Mn1_4 O16_4 1_555 1_555
Mn3_4 O23_4 1_555 1_555
Na11_2 O29_4 1_555 1_555
Na2_4 O3_4 1_555 1_555
Na3_4 O23_4 1_555 1_555
Na7_2 O71_2 1_555 1_555
O3_4 W5_4 1_555 1_555
O4_4 W6_4 1_555 1_555
O8_4 W13_4 1_555 1_555
O94 W6_4 1_555 1_555
O11_4 W2_4 1_555 1_555
O12_4 W5_4 1_555 1_555
O14_4 W17_4 1_555 1_555
O16_4 W2_4 1_555 1_555
O17_4 W17_4 1_555 1_555
O18_4 W18_4 1_555 1_555
O19_4 W2_4 1_555 1_555
O20_4 W10_4 1_555 1_555
O21_4 W2_4 1_555 1_555
O22_4 W4_4 1_555 1_555
O23_4 W3_4 1_555 1_555
O27_4 Bi1_4 1_555 1_555
O29_4 W19 1_555 1_555
O30_4 Bi2_4 1_555 1_555
O31_4 W1_4 1_555 1_555
O32_4 W4_4 1_555 1_555
O33_4 W3_4 1_555 1_555
O34_4 Bi2_4 1_555 1_555
O35_4 W13_4 1_555 1_555
O96 W6_4 1_555 1_555
O37_4 W17_4 1_555 1_555
O38_4 W13_4 1_555 1_555
O41_4 W4_4 1_555 1_555
O43_4 W1_4 1_555 1_555
O44_4 W2_4 1_555 1_555
O45_4 W6_4 1_555 1_555
O46_4 W4_4 1_555 1_555
O48_4 W11_4 1_555 1_555
O52_4 W15_4 1_555 1_555
O54_4 W3_4 1_555 1_555
O56_4 W3_4 1_555 1_555
O58_4 W1_4 1_555 1_555
O59_4 W16_4 1_555 1_555
O61_4 W11_4 1_555 1_555
O62_4 W15_4 1_555 1_555
O63_4 Bi1_4 1_555 1_555
O98 W1_4 1_555 1_555
O70_4 Na11_2 1_555 1_555
O71_2 Na3_4 1_555 1_555
O126_2 Na7_2 1_555 1_555
N5_4 Mn3_4 1_555 1_555
N6_4 C10_4 1_555 1_555
C9_4 N5_4 1_555 1_555
H13_4 C9_4 1_555 1_555
C10_4 N5_4 1_555 1_555
H14_4 C10_4 1_555 1_555
C11_4 N6_4 1_555 1_555
H15_4 C11_4 1_555 1_555
C12_4 N6_4 1_555 1_555
H16_4 C12_4 1_555 1_555
H17_4 C12_4 1_555 1_555
H18_4 C12_4 1_555 1_555
O121_2 Na13_2 1_555 1_555
O124_2 Na7_2 1_555 1_555
W1_4 O34_4 1_555 1_555
W3_4 O63_4 1_555 1_555
W4_4 O63_4 1_555 1_555
W5_4 O19_4 1_555 1_555
W5_4 O21_4 1_555 1_555
W6_4 O34_4 1_555 1_555
W19 O30_4 1_555 1_555
W10_4 O26_4 1_555 1_555
W11_4 O12_4 1_555 1_555
W11_4 O21_4 1_555 1_555
W11_4 O22_4 1_555 1_555
W13_4 O27_4 1_555 1_555
W13_4 O44_4 1_555 1_555
W15_4 O8_4 1_555 1_555
W15_4 O27_4 1_555 1_555
W15_4 O54_4 1_555 1_555
W16_4 O95 1_555 1_555
W16_4 O30_4 1_555 1_555
W16_4 O96 1_555 1_555
W16_4 O65_4 1_555 1_555
W17_4 O30_4 1_555 1_555
W18_4 O27_4 1_555 1_555
W18_4 O38_4 1_555 1_555
W18_4 O46_4 1_555 1_555
W18_4 O61_4 1_555 1_555
Mn1_4 O35_4 1_555 1_555
Mn1_4 O37_4 1_555 1_555
Mn1_4 O50_4 1_555 1_555
Mn3_4 O29_4 1_555 1_555
Mn3_4 O58_4 1_555 1_555
Mn3_4 O62_4 1_555 1_555
Na11_2 O35_4 1_555 1_555
Na11_2 O37_4 1_555 1_555
Na11_2 O62_4 1_555 1_555
Na2_4 O16_4 1_555 1_555
Na2_4 O20_4 1_555 1_555
Na2_4 O50_4 1_555 1_555
Na3_4 O40_4 1_555 1_555
Na3_4 O47_4 1_555 1_555
Na3_4 O58_4 1_555 1_555
C9_4 C11_4 1_555 1_555
Na13_2 O124_2 1_555 1_555
O70_4 H27_4 1_555 1_555
O70_4 H28_4 1_555 1_555
O104 H31_4 1_555 1_555
O104 H32_4 1_555 1_555
O111_2 H19_4 1_555 1_555
O111_2 H20_4 1_555 1_555
O110_2 H22_4 1_555 1_555
O109_2 H34_4 1_555 1_555
O42_4 W9_4 1_555 1_555
O55_4 W12_4 1_555 1_555
N3_4 Mn2_4 1_555 1_555
N4_4 C6_4 1_555 1_555
C5_4 N3_4 1_555 1_555
H7_4 C5_4 1_555 1_555
C6_4 C5_4 1_555 1_555
H8_4 C6_4 1_555 1_555
C7_4 N3_4 1_555 1_555
H9_4 C7_4 1_555 1_555
C8_4 N4_4 1_555 1_555
H10_4 C8_4 1_555 1_555
H11_4 C8_4 1_555 1_555
H12_4 C8_4 1_555 1_555
W9_4 O64_4 1_555 1_555
W12_4 O51_4 1_555 1_555
N4_4 C7_4 1_555 1_555
O72_4 H29_4 1_555 1_555
O72_4 H30_4 1_555 1_555
O90_2 H35_4 1_555 1_555
O90_2 H36_4 1_555 1_555
O87_2 H45_4 1_555 1_555
O87_2 H46_4 1_555 1_555
W7_4 O24_4 1_555 1_555
W14_4 O15_4 1_555 1_555
Na13_2 O25_4 1_555 1_555
O25_4 W14_4 1_555 1_555
O39_4 W7_4 1_555 1_555
O49_4 W7_4 1_555 1_555
O57_4 W7_4 1_555 1_555
O91_4 Na13_2 1_555 1_555
O92_4 Na13_2 1_555 1_555
N2_4 C2_4 1_555 1_555
C1_4 N1_4 1_555 1_555
C2_4 N1_4 1_555 1_555
H2_4 C2_4 1_555 1_555
C3_4 N2_4 1_555 1_555
H3_4 C3_4 1_555 1_555
C4_4 N2_4 1_555 1_555
H4_4 C4_4 1_555 1_555
H5_4 C4_4 1_555 1_555
H6_4 C4_4 1_555 1_555
W14_4 O39_4 1_555 1_555
C1_4 C3_4 1_555 1_555
O68_4 H23_4 1_555 1_555
O68_4 H24_4 1_555 1_555
O92_4 H39_4 1_555 1_555
O92_4 H40_4 1_555 1_555
O91_4 H43_4 1_555 1_555
O91_4 H44_4 1_555 1_555
O115_2 H37_4 1_555 1_555
O115_2 H38_4 1_555 1_555
O128_2 H41_4 1_555 1_555
O128_2 H42_4 1_555 1_555

#END
