
###############################################################################
#
# This file contains modified crystal structure data generated from the
# MOF subset of the Cambridge Structural Database (CSD) v543 
# hosted by the Cambridge Crystallographic Data Centre (CCDC).
#
# This work is licensed under the Creative Commons
# Attribution-NonCommercial-ShareAlike 4.0 International License.
# To view a copy of this license, visit
# http://creativecommons.org/licenses/by-nc-sa/4.0/
# or send a letter to
# Creative Commons, PO Box 1866, Mountain View, CA 94042, USA.
#
# CIF created using the CSD Python API on 29 September 2022
# The structure has been converted into the P1 space group
# The structure has a 3D framework
# The original CSD entry QIZLIW is in the monoclinic crystal system
# The framework has been calculated to contain at least 10.0% void space
# The void calculation uses a probe of radius 1.32A, grid spacing 0.4
# The framework is charged, counterions have been retained in the structure
# H atom positions have been added when not included in the experimental data
#
###############################################################################

data_QIZLIW
_chemical_formula_moiety         '(C144 H64 Cu28 O128 Se8)n'
_symmetry_cell_setting           triclinic
_symmetry_space_group_name_H-M   'P 1'
_symmetry_Int_Tables_number      1
_space_group_name_Hall           'P 1'
loop_
_symmetry_equiv_pos_site_id
_symmetry_equiv_pos_as_xyz
1 x,y,z
_cell_length_a                   41.0363(18)
_cell_length_b                   12.1733(4)
_cell_length_c                   14.1609(5)
_cell_angle_alpha                90
_cell_angle_beta                 100.869(3)
_cell_angle_gamma                90
_cell_volume                     6947.14
loop_
_atom_site_label
_atom_site_type_symbol
_atom_site_fract_x
_atom_site_fract_y
_atom_site_fract_z
Se1 Se 0.516360(19) 0.04716(6) 0.13802(5)
Cu1 Cu 0.72545(2) 0.32085(8) 0.49266(7)
Cu3 Cu 0.54928(3) 0.22512(7) 0.07950(6)
Cu4 Cu 0.54105(2) 0.21816(7) 0.32317(6)
O3 O 0.74591(15) 0.1244(6) 0.3900(4)
O4 O 0.70349(16) 0.2429(6) 0.3771(4)
O5 O 0.60557(14) 0.0376(5) 0.0198(4)
O6 O 0.59628(16) 0.1305(6) 0.1482(4)
O7 O 0.6894(2) 0.4495(8) 0.4936(8)
O14 O 0.59041(16) 0.1347(6) 0.3454(4)
O15 O 0.52311(14) 0.0899(4) 0.0295(3)
O16 O 0.53071(14) 0.1711(4) 0.1905(3)
O17 O 0.47578(13) 0.0699(4) 0.1382(3)
C4 C 0.6506(2) 0.0570(8) 0.1484(6)
C5 C 0.6665(2) 0.1185(7) 0.2267(6)
H2 H 0.6551 0.1726 0.2535
C6 C 0.6998(2) 0.0974(8) 0.2642(5)
C7 C 0.7171(2) 0.0178(8) 0.2234(6)
H3 H 0.7394 0.0054 0.2480
C8 C 0.7177(2) 0.1600(7) 0.3505(6)
C9 C 0.6142(2) 0.0771(6) 0.1028(5)
Cu7 Cu 0.77455(2) 0.17915(8) 0.50734(7)
Cu8 Cu 0.43804(2) 0.00278(7) 0.04574(6)
Cu10 Cu 0.56196(2) 0.00278(7) 0.45426(6)
Cu13 Cu 0.45895(2) 0.21816(7) 0.17683(6)
O18 O 0.70530(17) 0.2135(6) 0.5682(5)
O19 O 0.75155(16) 0.4031(6) 0.4134(5)
O20 O 0.75409(15) 0.3756(6) 0.6100(4)
O21 O 0.5578(2) 0.3692(5) 0.1307(4)
O22 O 0.54517(19) 0.3686(5) 0.2791(4)
O23 O 0.54566(18) 0.2767(5) 0.4504(4)
O26 O 0.52422(13) 0.0699(4) 0.3618(3)
H7 H 0.667646 0.416497 0.498435
H8 H 0.696842 0.498524 0.549557
O8 O 0.55790(18) 0.2764(5) 0.9591(4)
O9 O 0.55838(16) 0.1228(4) 0.8708(4)
O10 O 0.5578(2) 0.6308(5) 0.6307(4)
O11 O 0.54517(19) 0.6314(5) 0.7791(4)
O13 O 0.56214(16) 0.1273(4) 0.5404(4)
C10 C 0.5576(2) 0.2244(6) 0.8810(5)
C11 C 0.5559(2) 0.2911(7) 0.7912(5)
C12 C 0.5564(2) 0.2355(7) 0.7058(5)
H4 H 0.5586 0.1595 0.7065
C13 C 0.5538(2) 0.2920(6) 0.6195(5)
C14 C 0.5515(3) 0.4049(7) 0.6186(5)
H5 H 0.5500 0.4431 0.5611
C15 C 0.5513(3) 0.4623(7) 0.7047(5)
C16 C 0.5526(2) 0.4050(7) 0.7904(5)
H6 H 0.5513 0.4426 0.8468
C17 C 0.5513(2) 0.5856(7) 0.7060(5)
C18 C 0.5536(2) 0.2266(6) 0.5288(5)
Cu11 Cu 0.54928(3) 0.77488(7) 0.57950(6)
Cu14 Cu 0.54105(2) 0.78184(7) 0.82317(6)
O1 O 0.70530(17) 0.7865(6) 0.0682(5)
O2 O 0.74845(16) 0.9031(6) 0.0866(5)
C1 C 0.7198(2) 0.8759(8) 0.0966(6)
C2 C 0.7008(2) 0.9567(8) 0.1455(6)
C3 C 0.6674(2) 0.9752(7) 0.1086(6)
H1 H 0.6564 0.9331 0.0576
Cu5 Cu 0.77455(2) 0.82085(8) 0.00734(7)
O24 O 0.56214(16) 0.8727(4) 0.0404(4)
Cu2 Cu 0.56196(2) 0.99722(7) 0.95426(6)
Cu6 Cu 0.72545(2) 0.67915(8) 0.99266(7)
O25 O 0.59041(16) 0.8653(6) 0.8454(4)
O27 O 0.52422(13) 0.9301(4) 0.8618(3)
O12 O 0.45434(18) 0.2767(5) 0.0496(4)
Se1_2 Se 0.483640(19) 0.04716(6) 0.36198(5)
Cu1_2 Cu 0.27455(2) 0.32085(8) 0.00734(7)
Cu3_2 Cu 0.45072(3) 0.22512(7) 0.42050(6)
O3_2 O 0.25409(15) 0.1244(6) 0.1100(4)
O4_2 O 0.29651(16) 0.2429(6) 0.1229(4)
O5_2 O 0.39443(14) 0.0376(5) 0.4802(4)
O6_2 O 0.40372(16) 0.1305(6) 0.3518(4)
O7_2 O 0.3106(2) 0.4495(8) 0.0064(8)
O8_2 O 0.44210(18) 0.2764(5) 0.5409(4)
O9_2 O 0.44162(16) 0.1228(4) 0.6292(4)
O10_2 O 0.4422(2) 0.6308(5) 0.8693(4)
O11_2 O 0.45483(19) 0.6314(5) 0.7209(4)
O13_2 O 0.43786(16) 0.1273(4) 0.9596(4)
O14_2 O 0.40959(16) 0.1347(6) 0.1546(4)
O15_2 O 0.47689(14) 0.0899(4) 0.4705(3)
O16_2 O 0.46929(14) 0.1711(4) 0.3095(3)
C4_2 C 0.3494(2) 0.0570(8) 0.3516(6)
C5_2 C 0.3335(2) 0.1185(7) 0.2733(6)
H2_2 H 0.3449 0.1726 0.2465
C6_2 C 0.3002(2) 0.0974(8) 0.2358(5)
C7_2 C 0.2829(2) 0.0178(8) 0.2766(6)
H3_2 H 0.2606 0.0054 0.2520
C8_2 C 0.2823(2) 0.1600(7) 0.1495(6)
C9_2 C 0.3858(2) 0.0771(6) 0.3972(5)
C10_2 C 0.4424(2) 0.2244(6) 0.6190(5)
C11_2 C 0.4441(2) 0.2911(7) 0.7088(5)
C12_2 C 0.4436(2) 0.2355(7) 0.7942(5)
H4_2 H 0.4414 0.1595 0.7935
C13_2 C 0.4462(2) 0.2920(6) 0.8805(5)
C14_2 C 0.4485(3) 0.4049(7) 0.8814(5)
H5_2 H 0.4500 0.4431 0.9389
C15_2 C 0.4487(3) 0.4623(7) 0.7953(5)
C16_2 C 0.4474(2) 0.4050(7) 0.7096(5)
H6_2 H 0.4487 0.4426 0.6532
C17_2 C 0.4487(2) 0.5856(7) 0.7940(5)
C18_2 C 0.4464(2) 0.2266(6) 0.9712(5)
Cu11_2 Cu 0.45072(3) 0.77488(7) 0.92050(6)
Cu14_2 Cu 0.45895(2) 0.78184(7) 0.67683(6)
O19_2 O 0.24845(16) 0.4031(6) 0.0866(5)
O21_2 O 0.4422(2) 0.3692(5) 0.3693(4)
O22_2 O 0.45483(19) 0.3686(5) 0.2209(4)
H7_2 H 0.332354 0.416497 0.00156524
Cu7_2 Cu 0.22545(2) 0.17915(8) 0.99266(7)
O18_2 O 0.29470(17) 0.2135(6) 0.9318(5)
O20_2 O 0.24591(15) 0.3756(6) 0.8900(4)
H8_2 H 0.303158 0.498524 0.950443
Cu2_2 Cu 0.43804(2) 0.99722(7) 0.54574(6)
O1_2 O 0.29470(17) 0.7865(6) 0.4318(5)
O2_2 O 0.25155(16) 0.9031(6) 0.4134(5)
C1_2 C 0.2802(2) 0.8759(8) 0.4034(6)
C2_2 C 0.2992(2) 0.9567(8) 0.3545(6)
C3_2 C 0.3326(2) 0.9752(7) 0.3914(6)
H1_2 H 0.3436 0.9331 0.4424
Cu5_2 Cu 0.22545(2) 0.82085(8) 0.49266(7)
Cu6_2 Cu 0.27455(2) 0.67915(8) 0.50734(7)
O24_2 O 0.43786(16) 0.8727(4) 0.4596(4)
O25_2 O 0.40959(16) 0.8653(6) 0.6546(4)
O27_2 O 0.47578(13) 0.9301(4) 0.6382(3)
O10_3 O 0.0578(2) 0.1308(5) 0.6307(4)
O11_3 O 0.04517(19) 0.1314(5) 0.7791(4)
C17_3 C 0.0513(2) 0.0856(7) 0.7060(5)
Cu11_3 Cu 0.04928(3) 0.27488(7) 0.57950(6)
Cu14_3 Cu 0.04105(2) 0.28184(7) 0.82317(6)
Se1_3 Se 0.016360(19) 0.54716(6) 0.13802(5)
Cu3_3 Cu 0.04928(3) 0.72512(7) 0.07950(6)
Cu4_2 Cu 0.04105(2) 0.71816(7) 0.32317(6)
O1_3 O 0.20530(17) 0.2865(6) 0.0682(5)
O3_3 O 0.24591(15) 0.6244(6) 0.3900(4)
O4_3 O 0.20349(16) 0.7429(6) 0.3771(4)
O5_3 O 0.10557(14) 0.5376(5) 0.0198(4)
O6_3 O 0.09628(16) 0.6305(6) 0.1482(4)
O7_3 O 0.1894(2) 0.9495(8) 0.4936(8)
O14_3 O 0.09041(16) 0.6347(6) 0.3454(4)
O15_3 O 0.02311(14) 0.5899(4) 0.0295(3)
O16_3 O 0.03071(14) 0.6711(4) 0.1905(3)
C1_3 C 0.2198(2) 0.3759(8) 0.0966(6)
C2_3 C 0.2008(2) 0.4567(8) 0.1455(6)
C3_3 C 0.1674(2) 0.4752(7) 0.1086(6)
H1_3 H 0.1564 0.4331 0.0576
C4_3 C 0.1506(2) 0.5570(8) 0.1484(6)
C5_3 C 0.1665(2) 0.6185(7) 0.2267(6)
H2_3 H 0.1551 0.6726 0.2535
C6_3 C 0.1998(2) 0.5974(8) 0.2642(5)
C7_3 C 0.2171(2) 0.5178(8) 0.2234(6)
H3_3 H 0.2394 0.5054 0.2480
C8_3 C 0.2177(2) 0.6600(7) 0.3505(6)
C9_3 C 0.1142(2) 0.5771(6) 0.1028(5)
Cu10_2 Cu 0.06196(2) 0.50278(7) 0.45426(6)
O18_3 O 0.20530(17) 0.7135(6) 0.5682(5)
O20_3 O 0.25409(15) 0.8756(6) 0.6100(4)
O21_3 O 0.0578(2) 0.8692(5) 0.1307(4)
O22_3 O 0.04517(19) 0.8686(5) 0.2791(4)
O23_2 O 0.04566(18) 0.7767(5) 0.4504(4)
O24_3 O 0.06214(16) 0.3727(4) 0.0404(4)
O26_2 O 0.02422(13) 0.5699(4) 0.3618(3)
H7_3 H 0.167646 0.916497 0.498435
H8_3 H 0.196842 0.998524 0.549557
Cu2_3 Cu 0.06196(2) 0.49722(7) 0.95426(6)
O8_3 O 0.05790(18) 0.7764(5) 0.9591(4)
O9_3 O 0.05838(16) 0.6228(4) 0.8708(4)
O13_3 O 0.06214(16) 0.6273(4) 0.5404(4)
C10_3 C 0.0576(2) 0.7244(6) 0.8810(5)
C11_3 C 0.0559(2) 0.7911(7) 0.7912(5)
C12_3 C 0.0564(2) 0.7355(7) 0.7058(5)
H4_3 H 0.0586 0.6595 0.7065
C13_3 C 0.0538(2) 0.7920(6) 0.6195(5)
C14_3 C 0.0515(3) 0.9049(7) 0.6186(5)
H5_3 H 0.0500 0.9431 0.5611
C15_3 C 0.0513(3) 0.9623(7) 0.7047(5)
C16_3 C 0.0526(2) 0.9050(7) 0.7904(5)
H6_3 H 0.0513 0.9426 0.8468
C18_3 C 0.0536(2) 0.7266(6) 0.5288(5)
O25_3 O 0.09041(16) 0.3653(6) 0.8454(4)
O27_3 O 0.02422(13) 0.4301(4) 0.8618(3)
O17_2 O 0.97578(13) 0.5699(4) 0.1382(3)
Cu8_2 Cu 0.93804(2) 0.50278(7) 0.04574(6)
Cu13_2 Cu 0.95895(2) 0.71816(7) 0.17683(6)
O10_4 O 0.9422(2) 0.1308(5) 0.8693(4)
O11_4 O 0.95483(19) 0.1314(5) 0.7209(4)
C17_4 C 0.9487(2) 0.0856(7) 0.7940(5)
Cu11_4 Cu 0.95072(3) 0.27488(7) 0.92050(6)
Cu14_4 Cu 0.95895(2) 0.28184(7) 0.67683(6)
O12_2 O 0.95434(18) 0.7767(5) 0.0496(4)
Se1_4 Se 0.983640(19) 0.54716(6) 0.36198(5)
Cu2_4 Cu 0.93804(2) 0.49722(7) 0.54574(6)
Cu3_4 Cu 0.95072(3) 0.72512(7) 0.42050(6)
O1_4 O 0.79470(17) 0.2865(6) 0.4318(5)
O3_4 O 0.75409(15) 0.6244(6) 0.1100(4)
O4_4 O 0.79651(16) 0.7429(6) 0.1229(4)
O5_4 O 0.89443(14) 0.5376(5) 0.4802(4)
O6_4 O 0.90372(16) 0.6305(6) 0.3518(4)
O7_4 O 0.8106(2) 0.9495(8) 0.0064(8)
O8_4 O 0.94210(18) 0.7764(5) 0.5409(4)
O9_4 O 0.94162(16) 0.6228(4) 0.6292(4)
O13_4 O 0.93786(16) 0.6273(4) 0.9596(4)
O14_4 O 0.90959(16) 0.6347(6) 0.1546(4)
O15_4 O 0.97689(14) 0.5899(4) 0.4705(3)
O16_4 O 0.96929(14) 0.6711(4) 0.3095(3)
C1_4 C 0.7802(2) 0.3759(8) 0.4034(6)
C2_4 C 0.7992(2) 0.4567(8) 0.3545(6)
C3_4 C 0.8326(2) 0.4752(7) 0.3914(6)
H1_4 H 0.8436 0.4331 0.4424
C4_4 C 0.8494(2) 0.5570(8) 0.3516(6)
C5_4 C 0.8335(2) 0.6185(7) 0.2733(6)
H2_4 H 0.8449 0.6726 0.2465
C6_4 C 0.8002(2) 0.5974(8) 0.2358(5)
C7_4 C 0.7829(2) 0.5178(8) 0.2766(6)
H3_4 H 0.7606 0.5054 0.2520
C8_4 C 0.7823(2) 0.6600(7) 0.1495(6)
C9_4 C 0.8858(2) 0.5771(6) 0.3972(5)
C10_4 C 0.9424(2) 0.7244(6) 0.6190(5)
C11_4 C 0.9441(2) 0.7911(7) 0.7088(5)
C12_4 C 0.9436(2) 0.7355(7) 0.7942(5)
H4_4 H 0.9414 0.6595 0.7935
C13_4 C 0.9462(2) 0.7920(6) 0.8805(5)
C14_4 C 0.9485(3) 0.9049(7) 0.8814(5)
H5_4 H 0.9500 0.9431 0.9389
C15_4 C 0.9487(3) 0.9623(7) 0.7953(5)
C16_4 C 0.9474(2) 0.9050(7) 0.7096(5)
H6_4 H 0.9487 0.9426 0.6532
C18_4 C 0.9464(2) 0.7266(6) 0.9712(5)
O21_4 O 0.9422(2) 0.8692(5) 0.3693(4)
O22_4 O 0.95483(19) 0.8686(5) 0.2209(4)
O24_4 O 0.93786(16) 0.3727(4) 0.4596(4)
O25_4 O 0.90959(16) 0.3653(6) 0.6546(4)
O27_4 O 0.97578(13) 0.4301(4) 0.6382(3)
H7_4 H 0.832354 0.916497 0.00156524
O18_4 O 0.79470(17) 0.7135(6) 0.9318(5)
O20_4 O 0.74591(15) 0.8756(6) 0.8900(4)
H8_4 H 0.803158 0.998524 0.950443
O2_3 O 0.25155(16) 0.0969(6) 0.9134(5)
C1_5 C 0.2802(2) 0.1241(8) 0.9034(6)
C2_5 C 0.2992(2) 0.0433(8) 0.8545(6)
C3_5 C 0.3326(2) 0.0248(7) 0.8914(6)
H1_5 H 0.3436 0.0669 0.9424
O8_5 O 0.44210(18) 0.7236(5) 0.0409(4)
O9_5 O 0.44162(16) 0.8772(4) 0.1292(4)
O12_3 O 0.45434(18) 0.7233(5) 0.5496(4)
C10_5 C 0.4424(2) 0.7756(6) 0.1190(5)
C11_5 C 0.4441(2) 0.7089(7) 0.2088(5)
C12_5 C 0.4436(2) 0.7645(7) 0.2942(5)
H4_5 H 0.4414 0.8405 0.2935
C13_5 C 0.4462(2) 0.7080(6) 0.3805(5)
C14_5 C 0.4485(3) 0.5951(7) 0.3814(5)
H5_5 H 0.4500 0.5569 0.4389
C15_5 C 0.4487(3) 0.5377(7) 0.2953(5)
C16_5 C 0.4474(2) 0.5950(7) 0.2096(5)
H6_5 H 0.4487 0.5574 0.1532
C17_5 C 0.4487(2) 0.4144(7) 0.2940(5)
C18_5 C 0.4464(2) 0.7734(6) 0.4712(5)
Se1_5 Se 0.483640(19) 0.95284(6) 0.86198(5)
O4_5 O 0.29651(16) 0.7571(6) 0.6229(4)
O5_5 O 0.39443(14) 0.9624(5) 0.9802(4)
O6_5 O 0.40372(16) 0.8695(6) 0.8518(4)
O7_5 O 0.3106(2) 0.5505(8) 0.5064(8)
O15_5 O 0.47689(14) 0.9101(4) 0.9705(3)
O16_5 O 0.46929(14) 0.8289(4) 0.8095(3)
C4_5 C 0.3494(2) 0.9430(8) 0.8516(6)
C5_5 C 0.3335(2) 0.8815(7) 0.7733(6)
H2_5 H 0.3449 0.8274 0.7465
C6_5 C 0.3002(2) 0.9026(8) 0.7358(5)
C7_5 C 0.2829(2) 0.9822(8) 0.7766(6)
H3_5 H 0.2606 0.9946 0.7520
C8_5 C 0.2823(2) 0.8400(7) 0.6495(6)
C9_5 C 0.3858(2) 0.9229(6) 0.8972(5)
O19_3 O 0.24845(16) 0.5969(6) 0.5866(5)
H7_5 H 0.332354 0.583503 0.501565
H8_5 H 0.303158 0.501476 0.450443
O2_4 O 0.74845(16) 0.0969(6) 0.5866(5)
C1_6 C 0.7198(2) 0.1241(8) 0.5966(6)
C2_6 C 0.7008(2) 0.0433(8) 0.6455(6)
C3_6 C 0.6674(2) 0.0248(7) 0.6086(6)
H1_6 H 0.6564 0.0669 0.5576
H8_6 H 0.696842 0.501476 0.0495571
Se1_6 Se 0.516360(19) 0.95284(6) 0.63802(5)
O4_6 O 0.70349(16) 0.7571(6) 0.8771(4)
O5_6 O 0.60557(14) 0.9624(5) 0.5198(4)
O6_6 O 0.59628(16) 0.8695(6) 0.6482(4)
O7_6 O 0.6894(2) 0.5505(8) 0.9936(8)
O8_6 O 0.55790(18) 0.7236(5) 0.4591(4)
O9_6 O 0.55838(16) 0.8772(4) 0.3708(4)
O15_6 O 0.52311(14) 0.9101(4) 0.5295(3)
O16_6 O 0.53071(14) 0.8289(4) 0.6905(3)
C4_6 C 0.6506(2) 0.9430(8) 0.6484(6)
C5_6 C 0.6665(2) 0.8815(7) 0.7267(6)
H2_6 H 0.6551 0.8274 0.7535
C6_6 C 0.6998(2) 0.9026(8) 0.7642(5)
C7_6 C 0.7171(2) 0.9822(8) 0.7234(6)
H3_6 H 0.7394 0.9946 0.7480
C8_6 C 0.7177(2) 0.8400(7) 0.8505(6)
C9_6 C 0.6142(2) 0.9229(6) 0.6028(5)
C10_6 C 0.5576(2) 0.7756(6) 0.3810(5)
C11_6 C 0.5559(2) 0.7089(7) 0.2912(5)
C12_6 C 0.5564(2) 0.7645(7) 0.2058(5)
H4_6 H 0.5586 0.8405 0.2065
C13_6 C 0.5538(2) 0.7080(6) 0.1195(5)
C14_6 C 0.5515(3) 0.5951(7) 0.1186(5)
H5_6 H 0.5500 0.5569 0.0611
C15_6 C 0.5513(3) 0.5377(7) 0.2047(5)
C16_6 C 0.5526(2) 0.5950(7) 0.2904(5)
H6_6 H 0.5513 0.5574 0.3468
C17_6 C 0.5513(2) 0.4144(7) 0.2060(5)
C18_6 C 0.5536(2) 0.7734(6) 0.0288(5)
O19_4 O 0.75155(16) 0.5969(6) 0.9134(5)
O23_3 O 0.54566(18) 0.7233(5) 0.9504(4)
H7_6 H 0.667646 0.583503 0.998435
O8_7 O 0.94210(18) 0.2236(5) 0.0409(4)
O9_7 O 0.94162(16) 0.3772(4) 0.1292(4)
O12_4 O 0.95434(18) 0.2233(5) 0.5496(4)
C10_7 C 0.9424(2) 0.2756(6) 0.1190(5)
C11_7 C 0.9441(2) 0.2089(7) 0.2088(5)
C12_7 C 0.9436(2) 0.2645(7) 0.2942(5)
H4_7 H 0.9414 0.3405 0.2935
C13_7 C 0.9462(2) 0.2080(6) 0.3805(5)
C14_7 C 0.9485(3) 0.0951(7) 0.3814(5)
H5_7 H 0.9500 0.0569 0.4389
C15_7 C 0.9487(3) 0.0377(7) 0.2953(5)
C16_7 C 0.9474(2) 0.0950(7) 0.2096(5)
H6_7 H 0.9487 0.0574 0.1532
C18_7 C 0.9464(2) 0.2734(6) 0.4712(5)
Se1_7 Se 0.983640(19) 0.45284(6) 0.86198(5)
O4_7 O 0.79651(16) 0.2571(6) 0.6229(4)
O5_7 O 0.89443(14) 0.4624(5) 0.9802(4)
O6_7 O 0.90372(16) 0.3695(6) 0.8518(4)
O7_7 O 0.8106(2) 0.0505(8) 0.5064(8)
O15_7 O 0.97689(14) 0.4101(4) 0.9705(3)
O16_7 O 0.96929(14) 0.3289(4) 0.8095(3)
C1_7 C 0.7802(2) 0.6241(8) 0.9034(6)
C2_7 C 0.7992(2) 0.5433(8) 0.8545(6)
C3_7 C 0.8326(2) 0.5248(7) 0.8914(6)
H1_7 H 0.8436 0.5669 0.9424
C4_7 C 0.8494(2) 0.4430(8) 0.8516(6)
C5_7 C 0.8335(2) 0.3815(7) 0.7733(6)
H2_7 H 0.8449 0.3274 0.7465
C6_7 C 0.8002(2) 0.4026(8) 0.7358(5)
C7_7 C 0.7829(2) 0.4822(8) 0.7766(6)
H3_7 H 0.7606 0.4946 0.7520
C8_7 C 0.7823(2) 0.3400(7) 0.6495(6)
C9_7 C 0.8858(2) 0.4229(6) 0.8972(5)
H7_7 H 0.832354 0.0835034 0.501565
H8_7 H 0.803158 0.00147624 0.450443
C17_7 C 0.9487(2) 0.9144(7) 0.2940(5)
H8_8 H 0.196842 0.00147624 0.0495571
Se1_8 Se 0.016360(19) 0.45284(6) 0.63802(5)
O4_8 O 0.20349(16) 0.2571(6) 0.8771(4)
O5_8 O 0.10557(14) 0.4624(5) 0.5198(4)
O6_8 O 0.09628(16) 0.3695(6) 0.6482(4)
O7_8 O 0.1894(2) 0.0505(8) 0.9936(8)
O8_8 O 0.05790(18) 0.2236(5) 0.4591(4)
O9_8 O 0.05838(16) 0.3772(4) 0.3708(4)
O15_8 O 0.02311(14) 0.4101(4) 0.5295(3)
O16_8 O 0.03071(14) 0.3289(4) 0.6905(3)
C1_8 C 0.2198(2) 0.6241(8) 0.5966(6)
C2_8 C 0.2008(2) 0.5433(8) 0.6455(6)
C3_8 C 0.1674(2) 0.5248(7) 0.6086(6)
H1_8 H 0.1564 0.5669 0.5576
C4_8 C 0.1506(2) 0.4430(8) 0.6484(6)
C5_8 C 0.1665(2) 0.3815(7) 0.7267(6)
H2_8 H 0.1551 0.3274 0.7535
C6_8 C 0.1998(2) 0.4026(8) 0.7642(5)
C7_8 C 0.2171(2) 0.4822(8) 0.7234(6)
H3_8 H 0.2394 0.4946 0.7480
C8_8 C 0.2177(2) 0.3400(7) 0.8505(6)
C9_8 C 0.1142(2) 0.4229(6) 0.6028(5)
C10_8 C 0.0576(2) 0.2756(6) 0.3810(5)
C11_8 C 0.0559(2) 0.2089(7) 0.2912(5)
C12_8 C 0.0564(2) 0.2645(7) 0.2058(5)
H4_8 H 0.0586 0.3405 0.2065
C13_8 C 0.0538(2) 0.2080(6) 0.1195(5)
C14_8 C 0.0515(3) 0.0951(7) 0.1186(5)
H5_8 H 0.0500 0.0569 0.0611
C15_8 C 0.0513(3) 0.0377(7) 0.2047(5)
C16_8 C 0.0526(2) 0.0950(7) 0.2904(5)
H6_8 H 0.0513 0.0574 0.3468
C18_8 C 0.0536(2) 0.2734(6) 0.0288(5)
O23_4 O 0.04566(18) 0.2233(5) 0.9504(4)
H7_8 H 0.167646 0.0835034 0.998435
C17_8 C 0.0513(2) 0.9144(7) 0.2060(5)
loop_
_geom_bond_atom_site_label_1
_geom_bond_atom_site_label_2
_geom_bond_site_symmetry_1
_geom_bond_site_symmetry_2
Se1 O15 1_555 1_555
Cu1 O4 1_555 1_555
Cu3 O6 1_555 1_555
Cu4 O14 1_555 1_555
O3 C8 1_555 1_555
O4 C8 1_555 1_555
O5 C9 1_555 1_555
O6 C9 1_555 1_555
O7 Cu1 1_555 1_555
O14 Cu10 1_555 1_555
O16 Se1 1_555 1_555
O17 Se1 1_555 1_555
C5 C4 1_555 1_555
H2 C5 1_555 1_555
C6 C5 1_555 1_555
H3 C7 1_555 1_555
C8 C6 1_555 1_555
C9 C4 1_555 1_555
Cu7 Cu1 1_555 1_555
Cu8 O17 1_555 1_555
Cu10 O26 1_555 1_555
Cu13 O17 1_555 1_555
O18 Cu1 1_555 1_555
O19 Cu1 1_555 1_555
O20 Cu1 1_555 1_555
O21 Cu3 1_555 1_555
O22 Cu4 1_555 1_555
O23 Cu4 1_555 1_555
O26 Cu4 1_555 1_555
Cu3 O15 1_555 1_555
Cu3 O16 1_555 1_555
Cu4 O16 1_555 1_555
O3 Cu7 1_555 1_555
C6 C7 1_555 1_555
O7 H7 1_555 1_555
O7 H8 1_555 1_555
O10 C17 1_555 1_555
O11 C17 1_555 1_555
O23 C18 1_555 1_555
O13 C18 1_555 1_555
C10 O8 1_555 1_555
C11 C10 1_555 1_555
C12 C11 1_555 1_555
H4 C12 1_555 1_555
C13 C12 1_555 1_555
C14 C13 1_555 1_555
H5 C14 1_555 1_555
C15 C14 1_555 1_555
C16 C11 1_555 1_555
H6 C16 1_555 1_555
C17 C15 1_555 1_555
C18 C13 1_555 1_555
Cu10 O13 1_555 1_555
Cu11 O10 1_555 1_555
Cu14 O11 1_555 1_555
O9 C10 1_555 1_555
C15 C16 1_555 1_555
O1 C1 1_555 1_555
O2 C1 1_555 1_555
C1 C2 1_555 1_555
C2 C3 1_555 1_555
C3 H1 1_555 1_555
Cu5 O2 1_555 1_555
O25 Cu2 1_555 1_555
O27 Cu2 1_555 1_555
Cu13 O12 1_555 1_555
Se1_2 O15_2 1_555 1_555
Cu1_2 O4_2 1_555 1_555
Cu3_2 O6_2 1_555 1_555
Cu13 O14_2 1_555 1_555
O3_2 C8_2 1_555 1_555
O4_2 C8_2 1_555 1_555
O5_2 C9_2 1_555 1_555
O6_2 C9_2 1_555 1_555
O7_2 Cu1_2 1_555 1_555
O8_2 Cu3_2 1_555 1_555
O10_2 C17_2 1_555 1_555
O11_2 C17_2 1_555 1_555
O13_2 C18_2 1_555 1_555
O14_2 Cu8 1_555 1_555
O16_2 Se1_2 1_555 1_555
O26 Se1_2 1_555 1_555
C5_2 C4_2 1_555 1_555
H2_2 C5_2 1_555 1_555
C6_2 C5_2 1_555 1_555
H3_2 C7_2 1_555 1_555
C8_2 C6_2 1_555 1_555
C9_2 C4_2 1_555 1_555
C10_2 O8_2 1_555 1_555
C11_2 C10_2 1_555 1_555
C12_2 C11_2 1_555 1_555
H4_2 C12_2 1_555 1_555
C13_2 C12_2 1_555 1_555
C14_2 C13_2 1_555 1_555
H5_2 C14_2 1_555 1_555
C15_2 C14_2 1_555 1_555
C16_2 C11_2 1_555 1_555
H6_2 C16_2 1_555 1_555
C17_2 C15_2 1_555 1_555
C18_2 C13_2 1_555 1_555
Cu11_2 O10_2 1_555 1_555
Cu14_2 O11_2 1_555 1_555
O19_2 Cu1_2 1_555 1_555
O21_2 Cu3_2 1_555 1_555
O22_2 Cu13 1_555 1_555
Cu3_2 O15_2 1_555 1_555
Cu3_2 O16_2 1_555 1_555
Cu13 O16_2 1_555 1_555
O9_2 C10_2 1_555 1_555
C6_2 C7_2 1_555 1_555
C15_2 C16_2 1_555 1_555
O7_2 H7_2 1_555 1_555
O1_2 C1_2 1_555 1_555
O2_2 C1_2 1_555 1_555
C1_2 C2_2 1_555 1_555
C2_2 C3_2 1_555 1_555
C3_2 H1_2 1_555 1_555
Cu5_2 O2_2 1_555 1_555
Cu6_2 O1_2 1_555 1_555
O24_2 Cu2_2 1_555 1_555
O25_2 Cu2_2 1_555 1_555
O27_2 Cu2_2 1_555 1_555
Cu5_2 Cu6_2 1_555 1_555
O10_3 C17_3 1_555 1_555
O11_3 C17_3 1_555 1_555
Cu11_3 O10_3 1_555 1_555
Cu14_3 O11_3 1_555 1_555
Se1_3 O15_3 1_555 1_555
Cu5_2 O4_3 1_555 1_555
Cu3_3 O6_3 1_555 1_555
Cu4_2 O14_3 1_555 1_555
O1_3 C1_3 1_555 1_555
O19_2 C1_3 1_555 1_555
O3_3 C8_3 1_555 1_555
O4_3 C8_3 1_555 1_555
O5_3 C9_3 1_555 1_555
O6_3 C9_3 1_555 1_555
O7_3 Cu5_2 1_555 1_555
O14_3 Cu10_2 1_555 1_555
O16_3 Se1_3 1_555 1_555
C1_3 C2_3 1_555 1_555
C2_3 C3_3 1_555 1_555
C3_3 H1_3 1_555 1_555
C4_3 C3_3 1_555 1_555
C5_3 C4_3 1_555 1_555
H2_3 C5_3 1_555 1_555
C6_3 C5_3 1_555 1_555
C7_3 C2_3 1_555 1_555
H3_3 C7_3 1_555 1_555
C8_3 C6_3 1_555 1_555
C9_3 C4_3 1_555 1_555
Cu10_2 O26_2 1_555 1_555
O18_3 Cu5_2 1_555 1_555
O20_3 Cu5_2 1_555 1_555
O21_3 Cu3_3 1_555 1_555
O22_3 Cu4_2 1_555 1_555
O23_2 Cu4_2 1_555 1_555
O26_2 Cu4_2 1_555 1_555
Cu3_3 O15_3 1_555 1_555
Cu3_3 O16_3 1_555 1_555
Cu4_2 O16_3 1_555 1_555
O3_3 Cu6_2 1_555 1_555
C6_3 C7_3 1_555 1_555
O7_3 H7_3 1_555 1_555
O7_3 H8_3 1_555 1_555
O9_3 Cu2_3 1_555 1_555
O23_2 C18_3 1_555 1_555
O13_3 C18_3 1_555 1_555
C10_3 O8_3 1_555 1_555
C11_3 C10_3 1_555 1_555
C12_3 C11_3 1_555 1_555
H4_3 C12_3 1_555 1_555
C13_3 C12_3 1_555 1_555
C14_3 C13_3 1_555 1_555
H5_3 C14_3 1_555 1_555
C15_3 C14_3 1_555 1_555
C16_3 C11_3 1_555 1_555
H6_3 C16_3 1_555 1_555
C18_3 C13_3 1_555 1_555
Cu10_2 O13_3 1_555 1_555
O25_3 Cu2_3 1_555 1_555
O27_3 Cu2_3 1_555 1_555
O9_3 C10_3 1_555 1_555
C15_3 C16_3 1_555 1_555
Cu8_2 O17_2 1_555 1_555
Cu13_2 O17_2 1_555 1_555
O10_4 C17_4 1_555 1_555
O11_4 C17_4 1_555 1_555
Cu11_4 O10_4 1_555 1_555
Cu14_4 O11_4 1_555 1_555
Cu13_2 O12_2 1_555 1_555
Se1_4 O15_4 1_555 1_555
Cu5 O4_4 1_555 1_555
Cu2_4 O5_4 1_555 1_555
Cu3_4 O6_4 1_555 1_555
Cu13_2 O14_4 1_555 1_555
O1_4 C1_4 1_555 1_555
O19 C1_4 1_555 1_555
O3_4 C8_4 1_555 1_555
O4_4 C8_4 1_555 1_555
O5_4 C9_4 1_555 1_555
O6_4 C9_4 1_555 1_555
O7_4 Cu5 1_555 1_555
O8_4 Cu3_4 1_555 1_555
O9_4 Cu2_4 1_555 1_555
O13_4 C18_4 1_555 1_555
O14_4 Cu8_2 1_555 1_555
O15_4 Cu2_4 1_555 1_555
O16_4 Se1_4 1_555 1_555
C1_4 C2_4 1_555 1_555
C2_4 C3_4 1_555 1_555
C3_4 H1_4 1_555 1_555
C4_4 C3_4 1_555 1_555
C5_4 C4_4 1_555 1_555
H2_4 C5_4 1_555 1_555
C6_4 C5_4 1_555 1_555
C7_4 C2_4 1_555 1_555
H3_4 C7_4 1_555 1_555
C8_4 C6_4 1_555 1_555
C9_4 C4_4 1_555 1_555
C10_4 O8_4 1_555 1_555
C11_4 C10_4 1_555 1_555
C12_4 C11_4 1_555 1_555
H4_4 C12_4 1_555 1_555
C13_4 C12_4 1_555 1_555
C14_4 C13_4 1_555 1_555
H5_4 C14_4 1_555 1_555
C15_4 C14_4 1_555 1_555
C16_4 C11_4 1_555 1_555
H6_4 C16_4 1_555 1_555
C18_4 C13_4 1_555 1_555
Cu7 O1_4 1_555 1_555
O21_4 Cu3_4 1_555 1_555
O22_4 Cu13_2 1_555 1_555
O24_4 Cu2_4 1_555 1_555
O25_4 Cu2_4 1_555 1_555
O27_4 Cu2_4 1_555 1_555
Cu3_4 O15_4 1_555 1_555
Cu3_4 O16_4 1_555 1_555
Cu13_2 O16_4 1_555 1_555
O9_4 C10_4 1_555 1_555
C6_4 C7_4 1_555 1_555
C15_4 C16_4 1_555 1_555
O7_4 H7_4 1_555 1_555
O18_2 C1_5 1_555 1_555
O2_3 C1_5 1_555 1_555
C1_5 C2_5 1_555 1_555
C2_5 C3_5 1_555 1_555
C3_5 H1_5 1_555 1_555
Cu7_2 O2_3 1_555 1_555
O21_2 C17_5 1_555 1_555
O22_2 C17_5 1_555 1_555
O12_3 C18_5 1_555 1_555
O24_2 C18_5 1_555 1_555
C10_5 O8_5 1_555 1_555
C11_5 C10_5 1_555 1_555
C12_5 C11_5 1_555 1_555
H4_5 C12_5 1_555 1_555
C13_5 C12_5 1_555 1_555
C14_5 C13_5 1_555 1_555
H5_5 C14_5 1_555 1_555
C15_5 C14_5 1_555 1_555
C16_5 C11_5 1_555 1_555
H6_5 C16_5 1_555 1_555
C17_5 C15_5 1_555 1_555
C18_5 C13_5 1_555 1_555
Cu14_2 O12_3 1_555 1_555
O9_5 C10_5 1_555 1_555
C15_5 C16_5 1_555 1_555
Se1_5 O15_5 1_555 1_555
Cu6_2 O4_5 1_555 1_555
Cu11_2 O6_5 1_555 1_555
Cu14_2 O25_2 1_555 1_555
O20_3 C8_5 1_555 1_555
O4_5 C8_5 1_555 1_555
O5_5 C9_5 1_555 1_555
O6_5 C9_5 1_555 1_555
O7_5 Cu6_2 1_555 1_555
O16_5 Se1_5 1_555 1_555
O27 Se1_5 1_555 1_555
C5_5 C4_5 1_555 1_555
H2_5 C5_5 1_555 1_555
C6_5 C5_5 1_555 1_555
H3_5 C7_5 1_555 1_555
C8_5 C6_5 1_555 1_555
C9_5 C4_5 1_555 1_555
Cu14 O27 1_555 1_555
O19_3 Cu6_2 1_555 1_555
O27_2 Cu14_2 1_555 1_555
Cu11_2 O15_5 1_555 1_555
Cu11_2 O16_5 1_555 1_555
Cu14_2 O16_5 1_555 1_555
C6_5 C7_5 1_555 1_555
O7_5 H7_5 1_555 1_555
O7_5 H8_5 1_555 1_555
O18 C1_6 1_555 1_555
O2_4 C1_6 1_555 1_555
C1_6 C2_6 1_555 1_555
C2_6 C3_6 1_555 1_555
C3_6 H1_6 1_555 1_555
Cu7 O2_4 1_555 1_555
Se1_6 O15_6 1_555 1_555
Cu6 O4_6 1_555 1_555
Cu11 O6_6 1_555 1_555
Cu14 O25 1_555 1_555
O20_4 C8_6 1_555 1_555
O4_6 C8_6 1_555 1_555
O5_6 C9_6 1_555 1_555
O6_6 C9_6 1_555 1_555
O7_6 Cu6 1_555 1_555
O8_6 Cu11 1_555 1_555
O21 C17_6 1_555 1_555
O22 C17_6 1_555 1_555
O24 C18_6 1_555 1_555
O16_6 Se1_6 1_555 1_555
O27_2 Se1_6 1_555 1_555
C5_6 C4_6 1_555 1_555
H2_6 C5_6 1_555 1_555
C6_6 C5_6 1_555 1_555
H3_6 C7_6 1_555 1_555
C8_6 C6_6 1_555 1_555
C9_6 C4_6 1_555 1_555
C10_6 O8_6 1_555 1_555
C11_6 C10_6 1_555 1_555
C12_6 C11_6 1_555 1_555
H4_6 C12_6 1_555 1_555
C13_6 C12_6 1_555 1_555
C14_6 C13_6 1_555 1_555
H5_6 C14_6 1_555 1_555
C15_6 C14_6 1_555 1_555
C16_6 C11_6 1_555 1_555
H6_6 C16_6 1_555 1_555
C17_6 C15_6 1_555 1_555
C18_6 C13_6 1_555 1_555
O19_4 Cu6 1_555 1_555
O23_3 Cu14 1_555 1_555
Cu11 O15_6 1_555 1_555
Cu11 O16_6 1_555 1_555
Cu14 O16_6 1_555 1_555
O9_6 C10_6 1_555 1_555
C6_6 C7_6 1_555 1_555
C15_6 C16_6 1_555 1_555
O7_6 H7_6 1_555 1_555
Cu14_3 O27_3 1_555 1_555
O9_7 Cu8_2 1_555 1_555
O12_4 C18_7 1_555 1_555
O24_4 C18_7 1_555 1_555
C10_7 O8_7 1_555 1_555
C11_7 C10_7 1_555 1_555
C12_7 C11_7 1_555 1_555
H4_7 C12_7 1_555 1_555
C13_7 C12_7 1_555 1_555
C14_7 C13_7 1_555 1_555
H5_7 C14_7 1_555 1_555
C15_7 C14_7 1_555 1_555
C16_7 C11_7 1_555 1_555
H6_7 C16_7 1_555 1_555
C18_7 C13_7 1_555 1_555
Cu14_4 O12_4 1_555 1_555
O9_7 C10_7 1_555 1_555
C15_7 C16_7 1_555 1_555
Se1_7 O15_7 1_555 1_555
Cu7 O4_7 1_555 1_555
Cu11_4 O6_7 1_555 1_555
Cu14_4 O25_4 1_555 1_555
O18_4 C1_7 1_555 1_555
O19_4 C1_7 1_555 1_555
O20 C8_7 1_555 1_555
O4_7 C8_7 1_555 1_555
O5_7 C9_7 1_555 1_555
O6_7 C9_7 1_555 1_555
O7_7 Cu7 1_555 1_555
O16_7 Se1_7 1_555 1_555
C1_7 C2_7 1_555 1_555
C2_7 C3_7 1_555 1_555
C3_7 H1_7 1_555 1_555
C4_7 C3_7 1_555 1_555
C5_7 C4_7 1_555 1_555
H2_7 C5_7 1_555 1_555
C6_7 C5_7 1_555 1_555
C7_7 C2_7 1_555 1_555
H3_7 C7_7 1_555 1_555
C8_7 C6_7 1_555 1_555
C9_7 C4_7 1_555 1_555
O27_4 Cu14_4 1_555 1_555
Cu11_4 O15_7 1_555 1_555
Cu11_4 O16_7 1_555 1_555
Cu14_4 O16_7 1_555 1_555
C6_7 C7_7 1_555 1_555
O7_7 H7_7 1_555 1_555
O7_7 H8_7 1_555 1_555
O21_4 C17_7 1_555 1_555
O22_4 C17_7 1_555 1_555
Se1_8 O15_8 1_555 1_555
Cu7_2 O4_8 1_555 1_555
Cu10_2 O5_8 1_555 1_555
Cu11_3 O6_8 1_555 1_555
Cu14_3 O25_3 1_555 1_555
O18_3 C1_8 1_555 1_555
O19_3 C1_8 1_555 1_555
O20_2 C8_8 1_555 1_555
O4_8 C8_8 1_555 1_555
O5_8 C9_8 1_555 1_555
O6_8 C9_8 1_555 1_555
O7_8 Cu7_2 1_555 1_555
O8_8 Cu11_3 1_555 1_555
O9_8 Cu10_2 1_555 1_555
O24_3 C18_8 1_555 1_555
O15_8 Cu10_2 1_555 1_555
O16_8 Se1_8 1_555 1_555
C1_8 C2_8 1_555 1_555
C2_8 C3_8 1_555 1_555
C3_8 H1_8 1_555 1_555
C4_8 C3_8 1_555 1_555
C5_8 C4_8 1_555 1_555
H2_8 C5_8 1_555 1_555
C6_8 C5_8 1_555 1_555
C7_8 C2_8 1_555 1_555
H3_8 C7_8 1_555 1_555
C8_8 C6_8 1_555 1_555
C9_8 C4_8 1_555 1_555
C10_8 O8_8 1_555 1_555
C11_8 C10_8 1_555 1_555
C12_8 C11_8 1_555 1_555
H4_8 C12_8 1_555 1_555
C13_8 C12_8 1_555 1_555
C14_8 C13_8 1_555 1_555
H5_8 C14_8 1_555 1_555
C15_8 C14_8 1_555 1_555
C16_8 C11_8 1_555 1_555
H6_8 C16_8 1_555 1_555
C18_8 C13_8 1_555 1_555
O23_4 Cu14_3 1_555 1_555
Cu11_3 O15_8 1_555 1_555
Cu11_3 O16_8 1_555 1_555
Cu14_3 O16_8 1_555 1_555
O9_8 C10_8 1_555 1_555
C6_8 C7_8 1_555 1_555
C15_8 C16_8 1_555 1_555
O7_8 H7_8 1_555 1_555
O21_3 C17_8 1_555 1_555
O22_3 C17_8 1_555 1_555

#END
