
###############################################################################
#
# This file contains modified crystal structure data generated from the
# MOF subset of the Cambridge Structural Database (CSD) v543 
# hosted by the Cambridge Crystallographic Data Centre (CCDC).
#
# This work is licensed under the Creative Commons
# Attribution-NonCommercial-ShareAlike 4.0 International License.
# To view a copy of this license, visit
# http://creativecommons.org/licenses/by-nc-sa/4.0/
# or send a letter to
# Creative Commons, PO Box 1866, Mountain View, CA 94042, USA.
#
# CIF created using the CSD Python API on 29 September 2022
# The structure has been converted into the P1 space group
# The structure has a 3D framework
# The original CSD entry QIZLOC is in the monoclinic crystal system
# The framework has been calculated to contain at least 10.0% void space
# The void calculation uses a probe of radius 1.32A, grid spacing 0.4
# The framework is charged, counterions have been retained in the structure
#
###############################################################################

data_QIZLOC
_chemical_formula_moiety         '(C144 H48 Cu32 O112 Se8)n'
_symmetry_cell_setting           triclinic
_symmetry_space_group_name_H-M   'P 1'
_symmetry_Int_Tables_number      1
_space_group_name_Hall           'P 1'
loop_
_symmetry_equiv_pos_site_id
_symmetry_equiv_pos_as_xyz
1 x,y,z
_cell_length_a                   38.391(6)
_cell_length_b                   12.3697(11)
_cell_length_c                   14.1757(14)
_cell_angle_alpha                90
_cell_angle_beta                 90.165(10)
_cell_angle_gamma                90
_cell_volume                     6731.8
loop_
_atom_site_label
_atom_site_type_symbol
_atom_site_fract_x
_atom_site_fract_y
_atom_site_fract_z
Se1 Se 0.02364(7) 0.05108(17) 0.14787(13)
Cu3 Cu 0.04228(10) 0.2412(2) 0.05900(15)
Cu4 Cu 0.04824(9) 0.2238(2) 0.30615(15)
O13 O 0.0300(4) 0.0905(10) 0.0323(7)
O14 O 0.0352(5) 0.1782(11) 0.1816(8)
Cu7 Cu 0.27607(9) 0.1893(2) 0.00833(19)
O16 O 0.2028(6) 0.2380(15) 0.0922(11)
O18 O 0.2480(6) 0.4042(17) 0.0769(13)
O19 O 0.0972(6) 0.1602(17) 0.2914(13)
O20 O 0.0468(7) 0.3786(11) 0.1020(10)
O21 O 0.0443(5) 0.3767(11) 0.2607(8)
O22 O 0.0489(6) 0.2705(12) 0.4343(9)
O24 O 0.0169(5) 0.0642(10) 0.3449(8)
Cu1 Cu 0.22393(9) 0.3107(2) 0.99167(19)
Cu2 Cu 0.05692(8) 0.0045(2) 0.93822(16)
O3 O 0.2520(6) 0.0958(17) 0.9231(13)
O4 O 0.2070(6) 0.2009(15) 0.9155(13)
O7 O 0.0486(7) 0.2869(13) 0.9349(10)
O8 O 0.0563(6) 0.1282(12) 0.8570(9)
O9 O 0.0468(7) 0.6214(11) 0.6020(10)
O10 O 0.0443(5) 0.6233(11) 0.7607(8)
O12 O 0.0539(4) 0.1190(11) 0.5218(9)
C5 C 0.1697(9) 0.014(3) 0.8543(18)
H2 H 0.1578 0.0586 0.8957
C6 C 0.2038(9) 0.0287(18) 0.8394(16)
C8 C 0.2196(9) 0.113(3) 0.8954(19)
C10 C 0.0525(9) 0.228(2) 0.8637(15)
C11 C 0.0506(7) 0.2896(17) 0.7706(12)
C12 C 0.0530(7) 0.2346(18) 0.6854(15)
H4 H 0.0562 0.1601 0.6867
C13 C 0.0509(7) 0.2829(17) 0.6030(11)
C14 C 0.0491(7) 0.3988(19) 0.5994(14)
H5 H 0.0495 0.4351 0.5420
C15 C 0.0467(7) 0.4551(17) 0.6837(13)
C16 C 0.0497(7) 0.3988(16) 0.7670(13)
H6 H 0.0511 0.4375 0.8231
C17 C 0.0452(7) 0.5772(19) 0.6803(17)
C18 C 0.0522(7) 0.220(3) 0.5119(14)
Cu10 Cu 0.04228(10) 0.7588(2) 0.55900(15)
Cu14 Cu 0.04824(9) 0.7762(2) 0.80615(15)
O17 O 0.2492(6) 0.3696(15) 0.8837(12)
O23 O 0.0539(4) 0.8810(11) 0.0218(9)
O1 O 0.2028(6) 0.7620(15) 0.5922(11)
O2 O 0.2508(6) 0.8696(15) 0.6163(12)
O5 O 0.1022(5) 0.9698(16) 0.8958(13)
O6 O 0.0972(6) 0.8398(17) 0.7914(13)
C1 C 0.2193(8) 0.832(2) 0.6352(16)
C2 C 0.2030(8) 0.888(2) 0.7167(16)
C3 C 0.1690(8) 0.872(2) 0.7360(17)
H1 H 0.1569 0.8220 0.7000
C4 C 0.1512(7) 0.9268(18) 0.8062(16)
C7 C 0.2200(8) 0.969(2) 0.7674(16)
H3 H 0.2431 0.9847 0.7528
C9 C 0.1119(8) 0.907(2) 0.8323(19)
Cu5 Cu 0.27607(9) 0.8107(2) 0.50833(19)
Cu6 Cu 0.22393(9) 0.6893(2) 0.49167(19)
Cu9 Cu 0.05692(8) 0.9955(2) 0.43822(16)
O25 O 0.0169(5) 0.9358(10) 0.8449(8)
O15 O 0.9831(5) 0.0642(10) 0.1551(8)
Cu12 Cu 0.95176(9) 0.2238(2) 0.19385(15)
Cu8 Cu 0.94308(8) 0.9955(2) 0.06178(16)
O11 O 0.9511(6) 0.2705(12) 0.0657(9)
Se1_2 Se 0.97636(7) 0.05108(17) 0.35213(13)
Cu1_2 Cu 0.77607(9) 0.3107(2) 0.50833(19)
Cu2_2 Cu 0.94308(8) 0.0045(2) 0.56178(16)
Cu3_2 Cu 0.95772(10) 0.2412(2) 0.44100(15)
O3_2 O 0.7480(6) 0.0958(17) 0.5769(13)
O4_2 O 0.7930(6) 0.2009(15) 0.5845(13)
O7_2 O 0.9514(7) 0.2869(13) 0.5651(10)
O8_2 O 0.9437(6) 0.1282(12) 0.6430(9)
O9_2 O 0.9532(7) 0.6214(11) 0.8980(10)
O10_2 O 0.9557(5) 0.6233(11) 0.7393(8)
O12_2 O 0.9461(4) 0.1190(11) 0.9782(9)
O13_2 O 0.9700(4) 0.0905(10) 0.4677(7)
O14_2 O 0.9648(5) 0.1782(11) 0.3184(8)
C5_2 C 0.8303(9) 0.014(3) 0.6457(18)
H2_2 H 0.8422 0.0586 0.6043
C6_2 C 0.7962(9) 0.0287(18) 0.6606(16)
C8_2 C 0.7804(9) 0.113(3) 0.6046(19)
C10_2 C 0.9475(9) 0.228(2) 0.6363(15)
C11_2 C 0.9494(7) 0.2896(17) 0.7294(12)
C12_2 C 0.9470(7) 0.2346(18) 0.8146(15)
H4_2 H 0.9438 0.1601 0.8133
C13_2 C 0.9491(7) 0.2829(17) 0.8970(11)
C14_2 C 0.9509(7) 0.3988(19) 0.9006(14)
H5_2 H 0.9505 0.4351 0.9580
C15_2 C 0.9533(7) 0.4551(17) 0.8163(13)
C16_2 C 0.9503(7) 0.3988(16) 0.7330(13)
H6_2 H 0.9489 0.4375 0.6769
C17_2 C 0.9548(7) 0.5772(19) 0.8197(17)
C18_2 C 0.9478(7) 0.220(3) 0.9881(14)
Cu7_2 Cu 0.72393(9) 0.1893(2) 0.49167(19)
Cu10_2 Cu 0.95772(10) 0.7588(2) 0.94100(15)
Cu14_2 Cu 0.95176(9) 0.7762(2) 0.69385(15)
O16_2 O 0.7972(6) 0.2380(15) 0.4078(11)
O17_2 O 0.7508(6) 0.3696(15) 0.6163(12)
O18_2 O 0.7520(6) 0.4042(17) 0.4231(13)
O19_2 O 0.9028(6) 0.1602(17) 0.2086(13)
O20_2 O 0.9532(7) 0.3786(11) 0.3980(10)
O21_2 O 0.9557(5) 0.3767(11) 0.2393(8)
Cu6_2 Cu 0.77607(9) 0.6893(2) 0.00833(19)
O1_2 O 0.7972(6) 0.7620(15) 0.9078(11)
O2_2 O 0.7492(6) 0.8696(15) 0.8837(12)
O5_2 O 0.8978(5) 0.9698(16) 0.6042(13)
O6_2 O 0.9028(6) 0.8398(17) 0.7086(13)
C1_2 C 0.7807(8) 0.832(2) 0.8648(16)
C2_2 C 0.7970(8) 0.888(2) 0.7833(16)
C3_2 C 0.8310(8) 0.872(2) 0.7640(17)
H1_2 H 0.8431 0.8220 0.8000
C4_2 C 0.8488(7) 0.9268(18) 0.6938(16)
C7_2 C 0.7800(8) 0.969(2) 0.7326(16)
H3_2 H 0.7569 0.9847 0.7472
C9_2 C 0.8881(8) 0.907(2) 0.6677(19)
Cu5_2 Cu 0.72393(9) 0.8107(2) 0.99167(19)
O23_2 O 0.9461(4) 0.8810(11) 0.4782(9)
O25_2 O 0.9831(5) 0.9358(10) 0.6551(8)
O9_3 O 0.5468(7) 0.1214(11) 0.6020(10)
O10_3 O 0.5443(5) 0.1233(11) 0.7607(8)
C17_3 C 0.5452(7) 0.0772(19) 0.6803(17)
Cu10_3 Cu 0.54228(10) 0.2588(2) 0.55900(15)
Cu14_3 Cu 0.54824(9) 0.2762(2) 0.80615(15)
Se1_3 Se 0.52364(7) 0.55108(17) 0.14787(13)
Cu3_3 Cu 0.54228(10) 0.7412(2) 0.05900(15)
Cu4_2 Cu 0.54824(9) 0.7238(2) 0.30615(15)
O13_3 O 0.5300(4) 0.5905(10) 0.0323(7)
O14_3 O 0.5352(5) 0.6782(11) 0.1816(8)
O15_2 O 0.4831(5) 0.5642(10) 0.1551(8)
Cu8_2 Cu 0.44308(8) 0.4955(2) 0.06178(16)
Cu12_2 Cu 0.45176(9) 0.7238(2) 0.19385(15)
O16_3 O 0.7028(6) 0.7380(15) 0.0922(11)
O18_3 O 0.7480(6) 0.9042(17) 0.0769(13)
O19_3 O 0.5972(6) 0.6602(17) 0.2914(13)
O20_3 O 0.5468(7) 0.8786(11) 0.1020(10)
O21_3 O 0.5443(5) 0.8767(11) 0.2607(8)
O22_2 O 0.5489(6) 0.7705(12) 0.4343(9)
O23_3 O 0.5539(4) 0.3810(11) 0.0218(9)
O24_2 O 0.5169(5) 0.5642(10) 0.3449(8)
Cu2_3 Cu 0.55692(8) 0.5045(2) 0.93822(16)
O1_3 O 0.7028(6) 0.2620(15) 0.5922(11)
O3_3 O 0.7520(6) 0.5958(17) 0.9231(13)
O4_3 O 0.7070(6) 0.7009(15) 0.9155(13)
O5_3 O 0.6022(5) 0.4698(16) 0.8958(13)
O6_3 O 0.5972(6) 0.3398(17) 0.7914(13)
O7_3 O 0.5486(7) 0.7869(13) 0.9349(10)
O8_3 O 0.5563(6) 0.6282(12) 0.8570(9)
O12_3 O 0.5539(4) 0.6190(11) 0.5218(9)
C1_3 C 0.7193(8) 0.332(2) 0.6352(16)
C2_3 C 0.7030(8) 0.388(2) 0.7167(16)
C3_3 C 0.6690(8) 0.372(2) 0.7360(17)
H1_3 H 0.6569 0.3220 0.7000
C4_3 C 0.6512(7) 0.4268(18) 0.8062(16)
C5_3 C 0.6697(9) 0.514(3) 0.8543(18)
H2_3 H 0.6578 0.5586 0.8957
C6_3 C 0.7038(9) 0.5287(18) 0.8394(16)
C7_3 C 0.7200(8) 0.469(2) 0.7674(16)
H3_3 H 0.7431 0.4847 0.7528
C8_3 C 0.7196(9) 0.613(3) 0.8954(19)
C9_3 C 0.6119(8) 0.407(2) 0.8323(19)
C10_3 C 0.5525(9) 0.728(2) 0.8637(15)
C11_3 C 0.5506(7) 0.7896(17) 0.7706(12)
C12_3 C 0.5530(7) 0.7346(18) 0.6854(15)
H4_3 H 0.5562 0.6601 0.6867
C13_3 C 0.5509(7) 0.7829(17) 0.6030(11)
C14_3 C 0.5491(7) 0.8988(19) 0.5994(14)
H5_3 H 0.5495 0.9351 0.5420
C15_3 C 0.5467(7) 0.9551(17) 0.6837(13)
C16_3 C 0.5497(7) 0.8988(16) 0.7670(13)
H6_3 H 0.5511 0.9375 0.8231
C18_3 C 0.5522(7) 0.720(3) 0.5119(14)
Cu9_2 Cu 0.55692(8) 0.4955(2) 0.43822(16)
O25_3 O 0.5169(5) 0.4358(10) 0.8449(8)
O9_4 O 0.4532(7) 0.1214(11) 0.8980(10)
O10_4 O 0.4557(5) 0.1233(11) 0.7393(8)
C17_4 C 0.4548(7) 0.0772(19) 0.8197(17)
Cu10_4 Cu 0.45772(10) 0.2588(2) 0.94100(15)
Cu14_4 Cu 0.45176(9) 0.2762(2) 0.69385(15)
O11_2 O 0.4511(6) 0.7705(12) 0.0657(9)
Se1_4 Se 0.47636(7) 0.55108(17) 0.35213(13)
Cu2_4 Cu 0.44308(8) 0.5045(2) 0.56178(16)
Cu3_4 Cu 0.45772(10) 0.7412(2) 0.44100(15)
O1_4 O 0.2972(6) 0.2620(15) 0.9078(11)
O3_4 O 0.2480(6) 0.5958(17) 0.5769(13)
O4_4 O 0.2930(6) 0.7009(15) 0.5845(13)
O5_4 O 0.3978(5) 0.4698(16) 0.6042(13)
O6_4 O 0.4028(6) 0.3398(17) 0.7086(13)
O7_4 O 0.4514(7) 0.7869(13) 0.5651(10)
O8_4 O 0.4437(6) 0.6282(12) 0.6430(9)
O12_4 O 0.4461(4) 0.6190(11) 0.9782(9)
O13_4 O 0.4700(4) 0.5905(10) 0.4677(7)
O14_4 O 0.4648(5) 0.6782(11) 0.3184(8)
C1_4 C 0.2807(8) 0.332(2) 0.8648(16)
C2_4 C 0.2970(8) 0.388(2) 0.7833(16)
C3_4 C 0.3310(8) 0.372(2) 0.7640(17)
H1_4 H 0.3431 0.3220 0.8000
C4_4 C 0.3488(7) 0.4268(18) 0.6938(16)
C5_4 C 0.3303(9) 0.514(3) 0.6457(18)
H2_4 H 0.3422 0.5586 0.6043
C6_4 C 0.2962(9) 0.5287(18) 0.6606(16)
C7_4 C 0.2800(8) 0.469(2) 0.7326(16)
H3_4 H 0.2569 0.4847 0.7472
C8_4 C 0.2804(9) 0.613(3) 0.6046(19)
C9_4 C 0.3881(8) 0.407(2) 0.6677(19)
C10_4 C 0.4475(9) 0.728(2) 0.6363(15)
C11_4 C 0.4494(7) 0.7896(17) 0.7294(12)
C12_4 C 0.4470(7) 0.7346(18) 0.8146(15)
H4_4 H 0.4438 0.6601 0.8133
C13_4 C 0.4491(7) 0.7829(17) 0.8970(11)
C14_4 C 0.4509(7) 0.8988(19) 0.9006(14)
H5_4 H 0.4505 0.9351 0.9580
C15_4 C 0.4533(7) 0.9551(17) 0.8163(13)
C16_4 C 0.4503(7) 0.8988(16) 0.7330(13)
H6_4 H 0.4489 0.9375 0.6769
C18_4 C 0.4478(7) 0.720(3) 0.9881(14)
O16_4 O 0.2972(6) 0.7380(15) 0.4078(11)
O18_4 O 0.2520(6) 0.9042(17) 0.4231(13)
O19_4 O 0.4028(6) 0.6602(17) 0.2086(13)
O20_4 O 0.4532(7) 0.8786(11) 0.3980(10)
O21_4 O 0.4557(5) 0.8767(11) 0.2393(8)
O23_4 O 0.4461(4) 0.3810(11) 0.4782(9)
O25_4 O 0.4831(5) 0.4358(10) 0.6551(8)
O2_3 O 0.7492(6) 0.1304(15) 0.3837(12)
O5_5 O 0.8978(5) 0.0302(16) 0.1042(13)
C1_5 C 0.7807(8) 0.168(2) 0.3648(16)
C2_5 C 0.7970(8) 0.112(2) 0.2833(16)
C3_5 C 0.8310(8) 0.128(2) 0.2640(17)
H1_5 H 0.8431 0.1780 0.3000
C4_5 C 0.8488(7) 0.0732(18) 0.1938(16)
C7_5 C 0.7800(8) 0.031(2) 0.2326(16)
H3_5 H 0.7569 0.0153 0.2472
C9_5 C 0.8881(8) 0.093(2) 0.1677(19)
O4_5 O 0.7930(6) 0.7991(15) 0.0845(13)
O7_5 O 0.9514(7) 0.7131(13) 0.0651(10)
O8_5 O 0.9437(6) 0.8718(12) 0.1430(9)
O11_3 O 0.9511(6) 0.7295(12) 0.5657(9)
C5_5 C 0.8303(9) 0.986(3) 0.1457(18)
H2_5 H 0.8422 0.9414 0.1043
C6_5 C 0.7962(9) 0.9713(18) 0.1606(16)
C8_5 C 0.7804(9) 0.887(3) 0.1046(19)
C10_5 C 0.9475(9) 0.772(2) 0.1363(15)
C11_5 C 0.9494(7) 0.7104(17) 0.2294(12)
C12_5 C 0.9470(7) 0.7654(18) 0.3146(15)
H4_5 H 0.9438 0.8399 0.3133
C13_5 C 0.9491(7) 0.7171(17) 0.3970(11)
C14_5 C 0.9509(7) 0.6012(19) 0.4006(14)
H5_5 H 0.9505 0.5649 0.4580
C15_5 C 0.9533(7) 0.5449(17) 0.3163(13)
C16_5 C 0.9503(7) 0.6012(16) 0.2330(13)
H6_5 H 0.9489 0.5625 0.1769
C17_5 C 0.9548(7) 0.4228(19) 0.3197(17)
C18_5 C 0.9478(7) 0.780(3) 0.4881(14)
O17_3 O 0.7508(6) 0.6304(15) 0.1163(12)
Se1_5 Se 0.97636(7) 0.94892(17) 0.85213(13)
O13_5 O 0.9700(4) 0.9095(10) 0.9677(7)
O14_5 O 0.9648(5) 0.8218(11) 0.8184(8)
O2_4 O 0.2508(6) 0.1304(15) 0.1163(12)
O5_6 O 0.1022(5) 0.0302(16) 0.3958(13)
C1_6 C 0.2193(8) 0.168(2) 0.1352(16)
C2_6 C 0.2030(8) 0.112(2) 0.2167(16)
C3_6 C 0.1690(8) 0.128(2) 0.2360(17)
H1_6 H 0.1569 0.1780 0.2000
C4_6 C 0.1512(7) 0.0732(18) 0.3062(16)
C7_6 C 0.2200(8) 0.031(2) 0.2674(16)
H3_6 H 0.2431 0.0153 0.2528
C9_6 C 0.1119(8) 0.093(2) 0.3323(19)
Se1_6 Se 0.02364(7) 0.94892(17) 0.64787(13)
O4_6 O 0.2070(6) 0.7991(15) 0.4155(13)
O7_6 O 0.0486(7) 0.7131(13) 0.4349(10)
O8_6 O 0.0563(6) 0.8718(12) 0.3570(9)
O13_6 O 0.0300(4) 0.9095(10) 0.5323(7)
O14_6 O 0.0352(5) 0.8218(11) 0.6816(8)
C5_6 C 0.1697(9) 0.986(3) 0.3543(18)
H2_6 H 0.1578 0.9414 0.3957
C6_6 C 0.2038(9) 0.9713(18) 0.3394(16)
C8_6 C 0.2196(9) 0.887(3) 0.3954(19)
C10_6 C 0.0525(9) 0.772(2) 0.3637(15)
C11_6 C 0.0506(7) 0.7104(17) 0.2706(12)
C12_6 C 0.0530(7) 0.7654(18) 0.1854(15)
H4_6 H 0.0562 0.8399 0.1867
C13_6 C 0.0509(7) 0.7171(17) 0.1030(11)
C14_6 C 0.0491(7) 0.6012(19) 0.0994(14)
H5_6 H 0.0495 0.5649 0.0420
C15_6 C 0.0467(7) 0.5449(17) 0.1837(13)
C16_6 C 0.0497(7) 0.6012(16) 0.2670(13)
H6_6 H 0.0511 0.5625 0.3231
C17_6 C 0.0452(7) 0.4228(19) 0.1803(17)
C18_6 C 0.0522(7) 0.780(3) 0.0119(14)
O17_4 O 0.2492(6) 0.6304(15) 0.3837(12)
O22_3 O 0.0489(6) 0.7295(12) 0.9343(9)
O4_7 O 0.2930(6) 0.2991(15) 0.0845(13)
O5_7 O 0.3978(5) 0.5302(16) 0.1042(13)
O7_7 O 0.4514(7) 0.2131(13) 0.0651(10)
O8_7 O 0.4437(6) 0.3718(12) 0.1430(9)
O11_4 O 0.4511(6) 0.2295(12) 0.5657(9)
C1_7 C 0.2807(8) 0.668(2) 0.3648(16)
C2_7 C 0.2970(8) 0.612(2) 0.2833(16)
C3_7 C 0.3310(8) 0.628(2) 0.2640(17)
H1_7 H 0.3431 0.6780 0.3000
C4_7 C 0.3488(7) 0.5732(18) 0.1938(16)
C5_7 C 0.3303(9) 0.486(3) 0.1457(18)
H2_7 H 0.3422 0.4414 0.1043
C6_7 C 0.2962(9) 0.4713(18) 0.1606(16)
C7_7 C 0.2800(8) 0.531(2) 0.2326(16)
H3_7 H 0.2569 0.5153 0.2472
C8_7 C 0.2804(9) 0.387(3) 0.1046(19)
C9_7 C 0.3881(8) 0.593(2) 0.1677(19)
C10_7 C 0.4475(9) 0.272(2) 0.1363(15)
C11_7 C 0.4494(7) 0.2104(17) 0.2294(12)
C12_7 C 0.4470(7) 0.2654(18) 0.3146(15)
H4_7 H 0.4438 0.3399 0.3133
C13_7 C 0.4491(7) 0.2171(17) 0.3970(11)
C14_7 C 0.4509(7) 0.1012(19) 0.4006(14)
H5_7 H 0.4505 0.0649 0.4580
C15_7 C 0.4533(7) 0.0449(17) 0.3163(13)
C16_7 C 0.4503(7) 0.1012(16) 0.2330(13)
H6_7 H 0.4489 0.0625 0.1769
C18_7 C 0.4478(7) 0.280(3) 0.4881(14)
Se1_7 Se 0.47636(7) 0.44892(17) 0.85213(13)
O13_7 O 0.4700(4) 0.4095(10) 0.9677(7)
O14_7 O 0.4648(5) 0.3218(11) 0.8184(8)
C17_7 C 0.4548(7) 0.9228(19) 0.3197(17)
Se1_8 Se 0.52364(7) 0.44892(17) 0.64787(13)
O4_8 O 0.7070(6) 0.2991(15) 0.4155(13)
O5_8 O 0.6022(5) 0.5302(16) 0.3958(13)
O7_8 O 0.5486(7) 0.2131(13) 0.4349(10)
O8_8 O 0.5563(6) 0.3718(12) 0.3570(9)
O13_8 O 0.5300(4) 0.4095(10) 0.5323(7)
O14_8 O 0.5352(5) 0.3218(11) 0.6816(8)
C1_8 C 0.7193(8) 0.668(2) 0.1352(16)
C2_8 C 0.7030(8) 0.612(2) 0.2167(16)
C3_8 C 0.6690(8) 0.628(2) 0.2360(17)
H1_8 H 0.6569 0.6780 0.2000
C4_8 C 0.6512(7) 0.5732(18) 0.3062(16)
C5_8 C 0.6697(9) 0.486(3) 0.3543(18)
H2_8 H 0.6578 0.4414 0.3957
C6_8 C 0.7038(9) 0.4713(18) 0.3394(16)
C7_8 C 0.7200(8) 0.531(2) 0.2674(16)
H3_8 H 0.7431 0.5153 0.2528
C8_8 C 0.7196(9) 0.387(3) 0.3954(19)
C9_8 C 0.6119(8) 0.593(2) 0.3323(19)
C10_8 C 0.5525(9) 0.272(2) 0.3637(15)
C11_8 C 0.5506(7) 0.2104(17) 0.2706(12)
C12_8 C 0.5530(7) 0.2654(18) 0.1854(15)
H4_8 H 0.5562 0.3399 0.1867
C13_8 C 0.5509(7) 0.2171(17) 0.1030(11)
C14_8 C 0.5491(7) 0.1012(19) 0.0994(14)
H5_8 H 0.5495 0.0649 0.0420
C15_8 C 0.5467(7) 0.0449(17) 0.1837(13)
C16_8 C 0.5497(7) 0.1012(16) 0.2670(13)
H6_8 H 0.5511 0.0625 0.3231
C18_8 C 0.5522(7) 0.280(3) 0.0119(14)
O22_4 O 0.5489(6) 0.2295(12) 0.9343(9)
C17_8 C 0.5452(7) 0.9228(19) 0.1803(17)
loop_
_geom_bond_atom_site_label_1
_geom_bond_atom_site_label_2
_geom_bond_site_symmetry_1
_geom_bond_site_symmetry_2
Se1 O13 1_555 1_555
Cu4 O14 1_555 1_555
O14 Se1 1_555 1_555
O19 Cu4 1_555 1_555
O20 Cu3 1_555 1_555
O21 Cu4 1_555 1_555
O22 Cu4 1_555 1_555
O24 Cu4 1_555 1_555
Cu3 O13 1_555 1_555
Cu3 O14 1_555 1_555
Cu1 O4 1_555 1_555
O3 C8 1_555 1_555
O4 C8 1_555 1_555
O7 C10 1_555 1_555
O8 Cu2 1_555 1_555
O9 C17 1_555 1_555
O10 C17 1_555 1_555
O22 C18 1_555 1_555
O12 C18 1_555 1_555
H2 C5 1_555 1_555
C6 C5 1_555 1_555
C8 C6 1_555 1_555
C10 O8 1_555 1_555
C11 C10 1_555 1_555
C12 C11 1_555 1_555
H4 C12 1_555 1_555
C13 C12 1_555 1_555
C14 C13 1_555 1_555
H5 C14 1_555 1_555
C15 C14 1_555 1_555
C16 C11 1_555 1_555
H6 C16 1_555 1_555
C17 C15 1_555 1_555
C18 C13 1_555 1_555
Cu10 O9 1_555 1_555
Cu14 O10 1_555 1_555
O17 Cu1 1_555 1_555
C15 C16 1_555 1_555
O1 C1 1_555 1_555
O2 C1 1_555 1_555
O5 C9 1_555 1_555
O6 C9 1_555 1_555
C1 C2 1_555 1_555
C2 C3 1_555 1_555
C3 H1 1_555 1_555
C4 C3 1_555 1_555
C7 C2 1_555 1_555
H3 C7 1_555 1_555
C9 C4 1_555 1_555
Cu5 O2 1_555 1_555
Cu6 O1 1_555 1_555
Cu14 O6 1_555 1_555
Cu5 Cu6 1_555 1_555
Cu14 O25 1_555 1_555
Cu12 O15 1_555 1_555
Cu12 O11 1_555 1_555
Se1_2 O13_2 1_555 1_555
Cu1_2 O4_2 1_555 1_555
Cu3_2 O7_2 1_555 1_555
Cu12 O14_2 1_555 1_555
O3_2 C8_2 1_555 1_555
O4_2 C8_2 1_555 1_555
O7_2 C10_2 1_555 1_555
O8_2 Cu2_2 1_555 1_555
O9_2 C17_2 1_555 1_555
O10_2 C17_2 1_555 1_555
O12_2 C18_2 1_555 1_555
O13_2 Cu2_2 1_555 1_555
O14_2 Se1_2 1_555 1_555
H2_2 C5_2 1_555 1_555
C6_2 C5_2 1_555 1_555
C8_2 C6_2 1_555 1_555
C10_2 O8_2 1_555 1_555
C11_2 C10_2 1_555 1_555
C12_2 C11_2 1_555 1_555
H4_2 C12_2 1_555 1_555
C13_2 C12_2 1_555 1_555
C14_2 C13_2 1_555 1_555
H5_2 C14_2 1_555 1_555
C15_2 C14_2 1_555 1_555
C16_2 C11_2 1_555 1_555
H6_2 C16_2 1_555 1_555
C17_2 C15_2 1_555 1_555
C18_2 C13_2 1_555 1_555
Cu7_2 Cu1_2 1_555 1_555
Cu10_2 O9_2 1_555 1_555
Cu14_2 O10_2 1_555 1_555
O16_2 Cu1_2 1_555 1_555
O17_2 Cu1_2 1_555 1_555
O18_2 Cu1_2 1_555 1_555
O19_2 Cu12 1_555 1_555
O20_2 Cu3_2 1_555 1_555
O21_2 Cu12 1_555 1_555
Cu3_2 O13_2 1_555 1_555
Cu3_2 O14_2 1_555 1_555
O3_2 Cu7_2 1_555 1_555
C15_2 C16_2 1_555 1_555
O1_2 C1_2 1_555 1_555
O2_2 C1_2 1_555 1_555
O5_2 C9_2 1_555 1_555
O6_2 C9_2 1_555 1_555
C1_2 C2_2 1_555 1_555
C2_2 C3_2 1_555 1_555
C3_2 H1_2 1_555 1_555
C4_2 C3_2 1_555 1_555
C7_2 C2_2 1_555 1_555
H3_2 C7_2 1_555 1_555
C9_2 C4_2 1_555 1_555
Cu5_2 O2_2 1_555 1_555
Cu14_2 O6_2 1_555 1_555
Cu14_2 O25_2 1_555 1_555
O9_3 C17_3 1_555 1_555
O10_3 C17_3 1_555 1_555
Cu10_3 O9_3 1_555 1_555
Cu14_3 O10_3 1_555 1_555
Se1_3 O13_3 1_555 1_555
Cu4_2 O14_3 1_555 1_555
O14_3 Se1_3 1_555 1_555
O15_2 Se1_3 1_555 1_555
Cu8_2 O15_2 1_555 1_555
Cu12_2 O15_2 1_555 1_555
O19_3 Cu4_2 1_555 1_555
O20_3 Cu3_3 1_555 1_555
O21_3 Cu4_2 1_555 1_555
O22_2 Cu4_2 1_555 1_555
O24_2 Cu4_2 1_555 1_555
Cu3_3 O13_3 1_555 1_555
Cu3_3 O14_3 1_555 1_555
Cu5_2 O4_3 1_555 1_555
Cu2_3 O5_3 1_555 1_555
O1_3 C1_3 1_555 1_555
O17_2 C1_3 1_555 1_555
O3_3 C8_3 1_555 1_555
O4_3 C8_3 1_555 1_555
O5_3 C9_3 1_555 1_555
O6_3 C9_3 1_555 1_555
O7_3 C10_3 1_555 1_555
O8_3 Cu2_3 1_555 1_555
O22_2 C18_3 1_555 1_555
O12_3 C18_3 1_555 1_555
C1_3 C2_3 1_555 1_555
C2_3 C3_3 1_555 1_555
C3_3 H1_3 1_555 1_555
C4_3 C3_3 1_555 1_555
C5_3 C4_3 1_555 1_555
H2_3 C5_3 1_555 1_555
C6_3 C5_3 1_555 1_555
C7_3 C2_3 1_555 1_555
H3_3 C7_3 1_555 1_555
C8_3 C6_3 1_555 1_555
C9_3 C4_3 1_555 1_555
C10_3 O8_3 1_555 1_555
C11_3 C10_3 1_555 1_555
C12_3 C11_3 1_555 1_555
H4_3 C12_3 1_555 1_555
C13_3 C12_3 1_555 1_555
C14_3 C13_3 1_555 1_555
H5_3 C14_3 1_555 1_555
C15_3 C14_3 1_555 1_555
C16_3 C11_3 1_555 1_555
H6_3 C16_3 1_555 1_555
C18_3 C13_3 1_555 1_555
Cu7_2 O1_3 1_555 1_555
Cu9_2 O12_3 1_555 1_555
Cu14_3 O6_3 1_555 1_555
O25_3 Cu2_3 1_555 1_555
C6_3 C7_3 1_555 1_555
C15_3 C16_3 1_555 1_555
Cu14_3 O25_3 1_555 1_555
O9_4 C17_4 1_555 1_555
O10_4 C17_4 1_555 1_555
Cu10_4 O9_4 1_555 1_555
Cu14_4 O10_4 1_555 1_555
Cu12_2 O11_2 1_555 1_555
Se1_4 O13_4 1_555 1_555
Cu5 O4_4 1_555 1_555
Cu2_4 O5_4 1_555 1_555
Cu3_4 O7_4 1_555 1_555
Cu12_2 O14_4 1_555 1_555
O1_4 C1_4 1_555 1_555
O17 C1_4 1_555 1_555
O3_4 C8_4 1_555 1_555
O4_4 C8_4 1_555 1_555
O5_4 C9_4 1_555 1_555
O6_4 C9_4 1_555 1_555
O7_4 C10_4 1_555 1_555
O8_4 Cu2_4 1_555 1_555
O12_4 C18_4 1_555 1_555
O13_4 Cu2_4 1_555 1_555
O14_4 Se1_4 1_555 1_555
O24_2 Se1_4 1_555 1_555
C1_4 C2_4 1_555 1_555
C2_4 C3_4 1_555 1_555
C3_4 H1_4 1_555 1_555
C4_4 C3_4 1_555 1_555
C5_4 C4_4 1_555 1_555
H2_4 C5_4 1_555 1_555
C6_4 C5_4 1_555 1_555
C7_4 C2_4 1_555 1_555
H3_4 C7_4 1_555 1_555
C8_4 C6_4 1_555 1_555
C9_4 C4_4 1_555 1_555
C10_4 O8_4 1_555 1_555
C11_4 C10_4 1_555 1_555
C12_4 C11_4 1_555 1_555
H4_4 C12_4 1_555 1_555
C13_4 C12_4 1_555 1_555
C14_4 C13_4 1_555 1_555
H5_4 C14_4 1_555 1_555
C15_4 C14_4 1_555 1_555
C16_4 C11_4 1_555 1_555
H6_4 C16_4 1_555 1_555
C18_4 C13_4 1_555 1_555
Cu9_2 O24_2 1_555 1_555
Cu14_4 O6_4 1_555 1_555
O16_4 Cu5 1_555 1_555
O18_4 Cu5 1_555 1_555
O19_4 Cu12_2 1_555 1_555
O20_4 Cu3_4 1_555 1_555
O21_4 Cu12_2 1_555 1_555
O23_4 Cu2_4 1_555 1_555
O25_4 Cu2_4 1_555 1_555
Cu3_4 O13_4 1_555 1_555
Cu3_4 O14_4 1_555 1_555
O3_4 Cu6 1_555 1_555
C6_4 C7_4 1_555 1_555
C15_4 C16_4 1_555 1_555
Cu14_4 O25_4 1_555 1_555
O16_2 C1_5 1_555 1_555
O2_3 C1_5 1_555 1_555
O5_5 C9_5 1_555 1_555
O19_2 C9_5 1_555 1_555
C1_5 C2_5 1_555 1_555
C2_5 C3_5 1_555 1_555
C3_5 H1_5 1_555 1_555
C4_5 C3_5 1_555 1_555
C7_5 C2_5 1_555 1_555
H3_5 C7_5 1_555 1_555
C9_5 C4_5 1_555 1_555
Cu7_2 O2_3 1_555 1_555
Cu6_2 O4_5 1_555 1_555
O18_3 C8_5 1_555 1_555
O4_5 C8_5 1_555 1_555
O7_5 C10_5 1_555 1_555
O8_5 Cu8 1_555 1_555
O20_2 C17_5 1_555 1_555
O21_2 C17_5 1_555 1_555
O11_3 C18_5 1_555 1_555
O23_2 C18_5 1_555 1_555
H2_5 C5_5 1_555 1_555
C6_5 C5_5 1_555 1_555
C8_5 C6_5 1_555 1_555
C10_5 O8_5 1_555 1_555
C11_5 C10_5 1_555 1_555
C12_5 C11_5 1_555 1_555
H4_5 C12_5 1_555 1_555
C13_5 C12_5 1_555 1_555
C14_5 C13_5 1_555 1_555
H5_5 C14_5 1_555 1_555
C15_5 C14_5 1_555 1_555
C16_5 C11_5 1_555 1_555
H6_5 C16_5 1_555 1_555
C17_5 C15_5 1_555 1_555
C18_5 C13_5 1_555 1_555
Cu14_2 O11_3 1_555 1_555
O17_3 Cu6_2 1_555 1_555
C15_5 C16_5 1_555 1_555
Se1_5 O13_5 1_555 1_555
Cu14_2 O14_5 1_555 1_555
O14_5 Se1_5 1_555 1_555
Cu10_2 O13_5 1_555 1_555
Cu10_2 O14_5 1_555 1_555
O16 C1_6 1_555 1_555
O2_4 C1_6 1_555 1_555
O5_6 C9_6 1_555 1_555
O19 C9_6 1_555 1_555
C1_6 C2_6 1_555 1_555
C2_6 C3_6 1_555 1_555
C3_6 H1_6 1_555 1_555
C4_6 C3_6 1_555 1_555
C7_6 C2_6 1_555 1_555
H3_6 C7_6 1_555 1_555
C9_6 C4_6 1_555 1_555
Cu7 O2_4 1_555 1_555
Se1_6 O13_6 1_555 1_555
Cu6 O4_6 1_555 1_555
Cu10 O7_6 1_555 1_555
Cu14 O14_6 1_555 1_555
O18_4 C8_6 1_555 1_555
O4_6 C8_6 1_555 1_555
O7_6 C10_6 1_555 1_555
O8_6 Cu9 1_555 1_555
O20 C17_6 1_555 1_555
O21 C17_6 1_555 1_555
O23 C18_6 1_555 1_555
O13_6 Cu9 1_555 1_555
O14_6 Se1_6 1_555 1_555
H2_6 C5_6 1_555 1_555
C6_6 C5_6 1_555 1_555
C8_6 C6_6 1_555 1_555
C10_6 O8_6 1_555 1_555
C11_6 C10_6 1_555 1_555
C12_6 C11_6 1_555 1_555
H4_6 C12_6 1_555 1_555
C13_6 C12_6 1_555 1_555
C14_6 C13_6 1_555 1_555
H5_6 C14_6 1_555 1_555
C15_6 C14_6 1_555 1_555
C16_6 C11_6 1_555 1_555
H6_6 C16_6 1_555 1_555
C17_6 C15_6 1_555 1_555
C18_6 C13_6 1_555 1_555
O17_4 Cu6 1_555 1_555
O22_3 Cu14 1_555 1_555
Cu10 O13_6 1_555 1_555
Cu10 O14_6 1_555 1_555
C15_6 C16_6 1_555 1_555
Cu7 O4_7 1_555 1_555
Cu8_2 O5_7 1_555 1_555
O16_4 C1_7 1_555 1_555
O17_4 C1_7 1_555 1_555
O18 C8_7 1_555 1_555
O4_7 C8_7 1_555 1_555
O5_7 C9_7 1_555 1_555
O19_4 C9_7 1_555 1_555
O7_7 C10_7 1_555 1_555
O8_7 Cu8_2 1_555 1_555
O11_4 C18_7 1_555 1_555
O23_4 C18_7 1_555 1_555
C1_7 C2_7 1_555 1_555
C2_7 C3_7 1_555 1_555
C3_7 H1_7 1_555 1_555
C4_7 C3_7 1_555 1_555
C5_7 C4_7 1_555 1_555
H2_7 C5_7 1_555 1_555
C6_7 C5_7 1_555 1_555
C7_7 C2_7 1_555 1_555
H3_7 C7_7 1_555 1_555
C8_7 C6_7 1_555 1_555
C9_7 C4_7 1_555 1_555
C10_7 O8_7 1_555 1_555
C11_7 C10_7 1_555 1_555
C12_7 C11_7 1_555 1_555
H4_7 C12_7 1_555 1_555
C13_7 C12_7 1_555 1_555
C14_7 C13_7 1_555 1_555
H5_7 C14_7 1_555 1_555
C15_7 C14_7 1_555 1_555
C16_7 C11_7 1_555 1_555
H6_7 C16_7 1_555 1_555
C18_7 C13_7 1_555 1_555
Cu14_4 O11_4 1_555 1_555
C6_7 C7_7 1_555 1_555
C15_7 C16_7 1_555 1_555
Se1_7 O13_7 1_555 1_555
Cu14_4 O14_7 1_555 1_555
O14_7 Se1_7 1_555 1_555
O25_3 Se1_7 1_555 1_555
Cu10_4 O13_7 1_555 1_555
Cu10_4 O14_7 1_555 1_555
O20_4 C17_7 1_555 1_555
O21_4 C17_7 1_555 1_555
Se1_8 O13_8 1_555 1_555
Cu7_2 O4_8 1_555 1_555
Cu9_2 O5_8 1_555 1_555
Cu10_3 O7_8 1_555 1_555
Cu14_3 O14_8 1_555 1_555
O16_3 C1_8 1_555 1_555
O17_3 C1_8 1_555 1_555
O18_2 C8_8 1_555 1_555
O4_8 C8_8 1_555 1_555
O5_8 C9_8 1_555 1_555
O19_3 C9_8 1_555 1_555
O7_8 C10_8 1_555 1_555
O8_8 Cu9_2 1_555 1_555
O23_3 C18_8 1_555 1_555
O13_8 Cu9_2 1_555 1_555
O14_8 Se1_8 1_555 1_555
O25_4 Se1_8 1_555 1_555
C1_8 C2_8 1_555 1_555
C2_8 C3_8 1_555 1_555
C3_8 H1_8 1_555 1_555
C4_8 C3_8 1_555 1_555
C5_8 C4_8 1_555 1_555
H2_8 C5_8 1_555 1_555
C6_8 C5_8 1_555 1_555
C7_8 C2_8 1_555 1_555
H3_8 C7_8 1_555 1_555
C8_8 C6_8 1_555 1_555
C9_8 C4_8 1_555 1_555
C10_8 O8_8 1_555 1_555
C11_8 C10_8 1_555 1_555
C12_8 C11_8 1_555 1_555
H4_8 C12_8 1_555 1_555
C13_8 C12_8 1_555 1_555
C14_8 C13_8 1_555 1_555
H5_8 C14_8 1_555 1_555
C15_8 C14_8 1_555 1_555
C16_8 C11_8 1_555 1_555
H6_8 C16_8 1_555 1_555
C18_8 C13_8 1_555 1_555
O22_4 Cu14_3 1_555 1_555
Cu10_3 O13_8 1_555 1_555
Cu10_3 O14_8 1_555 1_555
C6_8 C7_8 1_555 1_555
C15_8 C16_8 1_555 1_555
O20_3 C17_8 1_555 1_555
O21_3 C17_8 1_555 1_555

#END
