
###############################################################################
#
# This file contains modified crystal structure data generated from the
# MOF subset of the Cambridge Structural Database (CSD) v543 
# hosted by the Cambridge Crystallographic Data Centre (CCDC).
#
# This work is licensed under the Creative Commons
# Attribution-NonCommercial-ShareAlike 4.0 International License.
# To view a copy of this license, visit
# http://creativecommons.org/licenses/by-nc-sa/4.0/
# or send a letter to
# Creative Commons, PO Box 1866, Mountain View, CA 94042, USA.
#
# CIF created using the CSD Python API on 29 September 2022
# The structure has been converted into the P1 space group
# The structure has a 3D framework
# The original CSD entry QIZNAQ is in the triclinic crystal system
# The framework has been calculated to contain at least 10.0% void space
# The void calculation uses a probe of radius 1.32A, grid spacing 0.4
#
###############################################################################

data_QIZNAQ
_chemical_formula_moiety         '(C84 H58 Cd7 N24 O16)n'
_symmetry_cell_setting           triclinic
_symmetry_space_group_name_H-M   'P 1'
_symmetry_Int_Tables_number      1
_space_group_name_Hall           'P 1'
loop_
_symmetry_equiv_pos_site_id
_symmetry_equiv_pos_as_xyz
1 x,y,z
_cell_length_a                   11.014(5)
_cell_length_b                   13.170(5)
_cell_length_c                   14.7730(8)
_cell_angle_alpha                88.002(4)
_cell_angle_beta                 83.199(4)
_cell_angle_gamma                86.478(3)
_cell_volume                     2122.97
loop_
_atom_site_label
_atom_site_type_symbol
_atom_site_fract_x
_atom_site_fract_y
_atom_site_fract_z
C14 C 0.0014(7) 0.2729(6) 0.6765(6)
H8 H 0.0707 0.2290 0.6662
C16 C 0.0469(7) 0.3444(5) 0.5187(5)
C18 C 0.0444(8) 0.3565(6) 0.3554(6)
H11 H 0.0012 0.3715 0.3057
C19 C 0.1669(8) 0.3269(6) 0.3420(6)
H12 H 0.2068 0.3199 0.2833
C20 C 0.2293(8) 0.3078(6) 0.4162(6)
H13 H 0.3122 0.2879 0.4073
C21 C 0.1716(7) 0.3175(5) 0.5043(6)
C22 C 0.2506(7) 0.3053(6) 0.5796(6)
O5 O 0.3140(5) 0.2235(4) 0.5886(4)
O6 O 0.2585(5) 0.3795(4) 0.6279(4)
Cd12 Cd 0.43593(5) 0.30943(4) 0.68311(4)
Cd1 Cd 0.5000 0.0000 0.0000
Cd2 Cd 0.21301(5) 0.09093(4) 0.15926(4)
C1 C 0.4800(6) 0.3058(5) 0.0875(5)
C2 C 0.4792(6) 0.3822(5) 0.1494(5)
H1 H 0.4265 0.3806 0.2034
C3 C 0.5567(6) 0.4609(5) 0.1310(5)
C4 C 0.6353(7) 0.4634(5) 0.0512(5)
H2 H 0.6869 0.5167 0.0387
C6 C 0.5590(6) 0.3084(5) 0.0072(5)
C7 C 0.3992(6) 0.2201(5) 0.1064(5)
C8 C 0.5555(7) 0.5427(5) 0.1987(5)
C35 C 0.3013(8) 0.0087(6) 0.4177(6)
H21 H 0.3482 0.0610 0.3920
C36 C 0.2332(8) 0.0221(6) 0.5014(6)
H22 H 0.2344 0.0826 0.5317
C41 C 0.0393(7) 0.0045(6) 0.7659(5)
H26 H 0.0381 0.0340 0.8223
C42 C 0.1278(7) 0.0135(6) 0.6956(5)
H27 H 0.1977 0.0499 0.6942
O1 O 0.4044(4) 0.1485(3) 0.0515(4)
O2 O 0.3242(5) 0.2213(4) 0.1774(4)
O3 O 0.4953(5) 0.5341(4) 0.2743(4)
O4 O 0.6162(6) 0.6193(4) 0.1775(4)
O8 O 0.0934(5) 0.1973(4) 0.0766(5)
H28 H 0.0202 0.1707 0.0609
H29 H 0.1070 0.2524 0.0688
C82 C 0.0115(7) 0.0821(6) 0.3419(6)
H54 H 0.0532 0.1242 0.3753
N24 N 0.0491(5) 0.0549(5) 0.2583(5)
Cd9 Cd 0.56407(5) 0.69057(4) 0.31689(4)
N25 N 0.7014(5) 0.0500(4) 0.0249(4)
Cd1_2 Cd 0.5000 0.0000 1.0000
C5 C 0.6372(7) 0.3863(5) 0.9898(5)
H3 H 0.5591 0.2576 0.9650
C9 C 0.7316(8) 0.3098(6) 0.8555(6)
H4 H 0.6529 0.2985 0.8355
H5 H 0.7580 0.2492 0.8888
C10 C 0.8231(7) 0.3287(6) 0.7741(6)
C11 C 0.7994(7) 0.4026(6) 0.7101(6)
H6 H 0.7313 0.4476 0.7213
C12 C 0.8747(7) 0.4111(6) 0.6295(6)
H7 H 0.8574 0.4625 0.5873
C13 C 0.9760(6) 0.3444(5) 0.6102(5)
C15 C 0.9267(8) 0.2649(6) 0.7578(6)
H9 H 0.9463 0.2164 0.8017
C17 C 0.9862(7) 0.3639(6) 0.4428(6)
H10 H 0.9029 0.3828 0.4511
O7 O 0.7198(5) 0.3935(4) 0.9129(4)
N28 N 0.5486(5) 0.0645(4) 0.8540(4)
Cd1_3 Cd 0.5000 1.0000 0.0000
C33 C 0.3757(6) 0.9078(5) 0.2827(5)
C34 C 0.3017(6) 0.9206(5) 0.3717(5)
C37 C 0.1639(6) 0.9457(5) 0.5393(5)
C38 C 0.1606(8) 0.8582(6) 0.4938(6)
H23 H 0.1117 0.8069 0.5190
C39 C 0.2301(8) 0.8452(6) 0.4101(6)
H24 H 0.2282 0.7848 0.3796
N2 N 0.2165(5) 0.9759(5) 0.0473(4)
N3 N 0.1146(6) 0.9329(5) 0.0436(5)
N7 N 0.3655(5) 0.9713(4) 0.2120(4)
N8 N 0.4514(5) 0.9355(4) 0.1460(4)
N9 N 0.5104(6) 0.8560(5) 0.1759(4)
N10 N 0.4651(6) 0.8363(4) 0.2629(4)
N11 N 0.0949(5) 0.9585(4) 0.6266(4)
N26 N 0.4483(6) 0.6704(5) 0.4518(5)
O23 O 0.6860(5) 0.7765(4) 0.4114(4)
O25 O 0.7415(5) 0.6205(4) 0.3721(4)
Cd1_4 Cd 0.5000 1.0000 1.0000
C23 C 0.2380(6) 0.8892(5) 0.9282(5)
C24 C 0.2814(6) 0.8390(5) 0.8427(5)
C25 C 0.3727(7) 0.8746(6) 0.7811(6)
H14 H 0.4120 0.9319 0.7941
C26 C 0.4073(7) 0.8263(6) 0.6999(6)
H15 H 0.4705 0.8504 0.6589
C27 C 0.3479(6) 0.7425(6) 0.6795(5)
C28 C 0.2581(7) 0.7051(6) 0.7417(6)
H16 H 0.2193 0.6474 0.7289
C29 C 0.2252(7) 0.7527(6) 0.8228(6)
H17 H 0.1646 0.7266 0.8649
C30 C 0.4398(7) 0.7330(6) 0.5191(5)
H18 H 0.4715 0.7970 0.5148
C31 C 0.3898(7) 0.5865(6) 0.4862(6)
H19 H 0.3806 0.5292 0.4533
C32 C 0.3476(7) 0.5987(6) 0.5742(6)
H20 H 0.3053 0.5524 0.6131
N1 N 0.2986(5) 0.9500(4) 0.9751(4)
N4 N 0.1253(6) 0.8779(5) 0.9692(5)
N5 N 0.3797(5) 0.6939(4) 0.5953(4)
O17 O 0.5956(4) 0.8515(3) 0.9485(4)
C65 C 0.7620(6) 0.1108(5) 0.0718(5)
C66 C 0.7186(6) 0.1610(5) 0.1573(5)
C67 C 0.6273(7) 0.1254(6) 0.2189(6)
H43 H 0.5880 0.0681 0.2059
C68 C 0.5927(7) 0.1737(6) 0.3001(6)
H44 H 0.5295 0.1496 0.3411
C69 C 0.6521(6) 0.2575(6) 0.3205(5)
C70 C 0.7419(7) 0.2949(6) 0.2583(6)
H45 H 0.7807 0.3526 0.2711
C71 C 0.7748(7) 0.2473(6) 0.1772(6)
H46 H 0.8354 0.2734 0.1351
C72 C 0.5602(7) 0.2670(6) 0.4809(5)
H47 H 0.5285 0.2030 0.4852
C73 C 0.6102(7) 0.4135(6) 0.5138(6)
H48 H 0.6194 0.4708 0.5467
C74 C 0.6524(7) 0.4013(6) 0.4258(6)
H49 H 0.6947 0.4476 0.3869
N16 N 0.8747(6) 0.1221(5) 0.0308(5)
N17 N 0.6203(5) 0.3061(4) 0.4047(4)
N18 N 0.5517(6) 0.3296(5) 0.5482(5)
C75 C 0.6243(6) 0.0922(5) 0.7173(5)
C76 C 0.6983(6) 0.0794(5) 0.6283(5)
C79 C 0.8361(6) 0.0543(5) 0.4607(5)
C80 C 0.8394(8) 0.1418(6) 0.5062(6)
H52 H 0.8883 0.1931 0.4810
C81 C 0.7699(8) 0.1548(6) 0.5899(6)
H53 H 0.7718 0.2152 0.6204
N14 N 0.7835(5) 0.0241(5) 0.9527(4)
N15 N 0.8854(6) 0.0671(5) 0.9564(5)
N19 N 0.6345(5) 0.0287(4) 0.7880(4)
N21 N 0.4896(6) 0.1440(5) 0.8241(4)
N22 N 0.5349(6) 0.1637(4) 0.7371(4)
N23 N 0.9051(5) 0.0415(4) 0.3734(4)
O19 O 0.5047(5) 0.4659(4) 0.7257(4)
O21 O 0.3838(6) 0.3807(4) 0.8225(4)
C47 C 0.3628(7) 0.6137(5) 0.0102(5)
H32 H 0.4409 0.7424 0.0350
C51 C 0.2684(8) 0.6902(6) 0.1445(6)
H33 H 0.3471 0.7015 0.1645
H34 H 0.2420 0.7508 0.1112
C52 C 0.1769(7) 0.6713(6) 0.2259(6)
C53 C 0.2006(7) 0.5974(6) 0.2899(6)
H35 H 0.2687 0.5524 0.2787
C54 C 0.1253(7) 0.5889(6) 0.3705(6)
H36 H 0.1426 0.5375 0.4127
C55 C 0.0240(6) 0.6556(5) 0.3898(5)
C57 C 0.0733(8) 0.7351(6) 0.2422(6)
H38 H 0.0537 0.7836 0.1983
C59 C 0.0138(7) 0.6361(6) 0.5572(6)
H39 H 0.0971 0.6172 0.5489
O15 O 0.2802(5) 0.6065(4) 0.0871(4)
C40 C 0.9885(7) 0.9179(6) 0.6581(6)
H25 H 0.9468 0.8758 0.6247
N12 N 0.9509(5) 0.9451(5) 0.7417(5)
Cd4 Cd 0.78699(5) 0.90907(4) 0.84074(4)
C43 C 0.5200(6) 0.6942(5) 0.9125(5)
C44 C 0.5208(6) 0.6178(5) 0.8506(5)
H30 H 0.5735 0.6194 0.7966
C45 C 0.4433(6) 0.5391(5) 0.8690(5)
C46 C 0.3647(7) 0.5366(5) 0.9488(5)
H31 H 0.3131 0.4833 0.9613
C48 C 0.4410(6) 0.6916(5) 0.9928(5)
C49 C 0.6008(6) 0.7799(5) 0.8936(5)
C50 C 0.4445(7) 0.4573(5) 0.8013(5)
C77 C 0.6987(8) 0.9913(6) 0.5823(6)
H50 H 0.6518 0.9390 0.6080
C78 C 0.7668(8) 0.9779(6) 0.4986(6)
H51 H 0.7656 0.9174 0.4683
C83 C 0.9607(7) 0.9955(6) 0.2341(5)
H55 H 0.9619 0.9660 0.1777
C84 C 0.8722(7) 0.9865(6) 0.3044(5)
H56 H 0.8023 0.9501 0.3058
O10 O 0.6758(5) 0.7787(4) 0.8226(4)
O16 O 0.9066(5) 0.8027(4) 0.9234(5)
H57 H 0.9798 0.8293 0.9391
H58 H 0.8930 0.7476 0.9312
C56 C 0.9986(7) 0.7271(6) 0.3235(6)
H37 H 0.9293 0.7710 0.3338
C58 C 0.9531(7) 0.6556(5) 0.4813(5)
C60 C 0.9556(8) 0.6435(6) 0.6446(6)
H40 H 0.9988 0.6285 0.6943
C61 C 0.8331(8) 0.6731(6) 0.6580(6)
H41 H 0.7932 0.6801 0.7167
C62 C 0.7707(8) 0.6922(6) 0.5838(6)
H42 H 0.6878 0.7121 0.5927
C63 C 0.8284(7) 0.6825(5) 0.4957(6)
C64 C 0.7494(7) 0.6947(6) 0.4204(6)
loop_
_geom_bond_atom_site_label_1
_geom_bond_atom_site_label_2
_geom_bond_site_symmetry_1
_geom_bond_site_symmetry_2
H8 C14 1_555 1_555
H11 C18 1_555 1_555
C19 C18 1_555 1_555
H12 C19 1_555 1_555
C20 C19 1_555 1_555
H13 C20 1_555 1_555
C21 C16 1_555 1_555
C22 C21 1_555 1_555
O5 C22 1_555 1_555
O6 C22 1_555 1_555
Cd12 O5 1_555 1_555
C20 C21 1_555 1_555
O6 Cd12 1_555 1_555
C1 C2 1_555 1_555
C2 H1 1_555 1_555
C3 C2 1_555 1_555
C4 C3 1_555 1_555
H2 C4 1_555 1_555
C6 C1 1_555 1_555
C7 C1 1_555 1_555
C8 C3 1_555 1_555
C35 H21 1_555 1_555
C36 C35 1_555 1_555
H22 C36 1_555 1_555
C41 H26 1_555 1_555
C42 C41 1_555 1_555
H27 C42 1_555 1_555
O1 Cd1 1_555 1_555
O2 Cd2 1_555 1_555
O3 C8 1_555 1_555
O4 C8 1_555 1_555
O8 Cd2 1_555 1_555
H28 O8 1_555 1_555
H29 O8 1_555 1_555
C82 H54 1_555 1_555
N24 Cd2 1_555 1_555
Cd9 O3 1_555 1_555
N25 Cd1 1_555 1_555
Cd2 O1 1_555 1_555
C7 O1 1_555 1_555
C7 O2 1_555 1_555
O4 Cd9 1_555 1_555
C82 N24 1_555 1_555
C9 H4 1_555 1_555
H5 C9 1_555 1_555
C10 C9 1_555 1_555
C11 C10 1_555 1_555
H6 C11 1_555 1_555
C12 C11 1_555 1_555
H7 C12 1_555 1_555
C13 C12 1_555 1_555
C15 C10 1_555 1_555
H9 C15 1_555 1_555
H10 C17 1_555 1_555
O7 C5 1_555 1_555
N28 Cd1_2 1_555 1_555
C9 O7 1_555 1_555
Cd9 N10 1_555 1_555
C33 C34 1_555 1_555
C38 C37 1_555 1_555
H23 C38 1_555 1_555
C39 C34 1_555 1_555
H24 C39 1_555 1_555
N3 N2 1_555 1_555
N8 Cd1_3 1_555 1_555
N9 N8 1_555 1_555
N10 C33 1_555 1_555
N11 C37 1_555 1_555
N26 Cd9 1_555 1_555
O23 Cd9 1_555 1_555
O25 Cd9 1_555 1_555
C33 N7 1_555 1_555
C38 C39 1_555 1_555
N7 N8 1_555 1_555
N9 N10 1_555 1_555
Cd1_4 N1 1_555 1_555
C23 C24 1_555 1_555
C24 C25 1_555 1_555
C25 H14 1_555 1_555
C26 C25 1_555 1_555
H15 C26 1_555 1_555
C27 C26 1_555 1_555
C28 C27 1_555 1_555
H16 C28 1_555 1_555
C29 C24 1_555 1_555
H17 C29 1_555 1_555
C30 H18 1_555 1_555
C31 H19 1_555 1_555
C32 C31 1_555 1_555
H20 C32 1_555 1_555
N1 C23 1_555 1_555
N4 C23 1_555 1_555
N5 C27 1_555 1_555
N26 C30 1_555 1_555
O17 Cd1_4 1_555 1_555
C28 C29 1_555 1_555
C30 N5 1_555 1_555
C31 N26 1_555 1_555
C32 N5 1_555 1_555
C65 C66 1_555 1_555
C66 C67 1_555 1_555
C67 H43 1_555 1_555
C68 C67 1_555 1_555
H44 C68 1_555 1_555
C69 C68 1_555 1_555
C70 C69 1_555 1_555
H45 C70 1_555 1_555
C71 C66 1_555 1_555
H46 C71 1_555 1_555
C72 H47 1_555 1_555
C73 H48 1_555 1_555
C74 C73 1_555 1_555
H49 C74 1_555 1_555
N25 C65 1_555 1_555
N16 C65 1_555 1_555
N17 C69 1_555 1_555
N18 C72 1_555 1_555
Cd12 N18 1_555 1_555
C70 C71 1_555 1_555
C72 N17 1_555 1_555
C73 N18 1_555 1_555
C74 N17 1_555 1_555
Cd12 N22 1_555 1_555
C75 C76 1_555 1_555
C80 C79 1_555 1_555
H52 C80 1_555 1_555
C81 C76 1_555 1_555
H53 C81 1_555 1_555
N15 N14 1_555 1_555
N28 N19 1_555 1_555
N21 N28 1_555 1_555
N22 C75 1_555 1_555
N23 C79 1_555 1_555
O19 Cd12 1_555 1_555
O21 Cd12 1_555 1_555
C75 N19 1_555 1_555
C80 C81 1_555 1_555
N21 N22 1_555 1_555
C51 H33 1_555 1_555
H34 C51 1_555 1_555
C52 C51 1_555 1_555
C53 C52 1_555 1_555
H35 C53 1_555 1_555
C54 C53 1_555 1_555
H36 C54 1_555 1_555
C55 C54 1_555 1_555
C57 C52 1_555 1_555
H38 C57 1_555 1_555
H39 C59 1_555 1_555
O15 C47 1_555 1_555
C51 O15 1_555 1_555
C40 H25 1_555 1_555
N12 C40 1_555 1_555
Cd4 N12 1_555 1_555
C43 C44 1_555 1_555
C44 H30 1_555 1_555
C45 C44 1_555 1_555
C46 C45 1_555 1_555
H31 C46 1_555 1_555
C48 C43 1_555 1_555
C49 C43 1_555 1_555
C50 C45 1_555 1_555
C77 H50 1_555 1_555
C78 C77 1_555 1_555
H51 C78 1_555 1_555
C83 H55 1_555 1_555
C84 C83 1_555 1_555
H56 C84 1_555 1_555
O17 Cd4 1_555 1_555
O10 Cd4 1_555 1_555
O19 C50 1_555 1_555
O21 C50 1_555 1_555
O16 Cd4 1_555 1_555
H57 O16 1_555 1_555
H58 O16 1_555 1_555
C49 O17 1_555 1_555
C49 O10 1_555 1_555
H37 C56 1_555 1_555
H40 C60 1_555 1_555
C61 C60 1_555 1_555
H41 C61 1_555 1_555
C62 C61 1_555 1_555
H42 C62 1_555 1_555
C63 C58 1_555 1_555
C64 C63 1_555 1_555
O23 C64 1_555 1_555
O25 C64 1_555 1_555
C62 C63 1_555 1_555

#END
