
###############################################################################
#
# This file contains modified crystal structure data generated from the
# MOF subset of the Cambridge Structural Database (CSD) v543 
# hosted by the Cambridge Crystallographic Data Centre (CCDC).
#
# This work is licensed under the Creative Commons
# Attribution-NonCommercial-ShareAlike 4.0 International License.
# To view a copy of this license, visit
# http://creativecommons.org/licenses/by-nc-sa/4.0/
# or send a letter to
# Creative Commons, PO Box 1866, Mountain View, CA 94042, USA.
#
# CIF created using the CSD Python API on 29 September 2022
# The structure has been converted into the P1 space group
# The structure has a 3D framework
# The original CSD entry QOBGEV is in the tetragonal crystal system
# The framework has been calculated to contain at least 10.0% void space
# The void calculation uses a probe of radius 1.32A, grid spacing 0.4
# The framework is charged, counterions have been retained in the structure
# H atom positions have been added when not included in the experimental data
#
###############################################################################

data_QOBGEV
_chemical_formula_moiety         '(C200 H168 N26 O128 Zn8 6-)n'
_symmetry_cell_setting           triclinic
_symmetry_space_group_name_H-M   'P 1'
_symmetry_Int_Tables_number      1
_space_group_name_Hall           'P 1'
loop_
_symmetry_equiv_pos_site_id
_symmetry_equiv_pos_as_xyz
1 x,y,z
_cell_length_a                   18.9381(3)
_cell_length_b                   18.9381(3)
_cell_length_c                   21.2008(7)
_cell_angle_alpha                90
_cell_angle_beta                 90
_cell_angle_gamma                90
_cell_volume                     7603.7
loop_
_atom_site_label
_atom_site_type_symbol
_atom_site_fract_x
_atom_site_fract_y
_atom_site_fract_z
N1 N 0.2500 0.5499(2) 0.2500
C1 C 0.3055(4) 0.5777(5) 0.2581(5)
H1 H 0.3415 0.5424 0.2629
H2 H 0.3035 0.6062 0.2956
H3 H 0.3164 0.6072 0.2226
C2 C 0.1945(4) 0.5777(5) 0.2419(5)
H4 H 0.1585 0.5424 0.2371
H5 H 0.1965 0.6062 0.2044
H6 H 0.1836 0.6072 0.2774
H9 H 0.242944 0.518957 0.288579
H10 H 0.257056 0.518957 0.211421
N1_2 N 0.2500 0.4501(2) 0.7500
C1_2 C 0.1945(4) 0.4223(5) 0.7581(5)
H1_2 H 0.1585 0.4576 0.7629
H2_2 H 0.1965 0.3938 0.7956
H3_2 H 0.1836 0.3928 0.7226
C2_2 C 0.3055(4) 0.4223(5) 0.7419(5)
H4_2 H 0.3415 0.4576 0.7371
H5_2 H 0.3035 0.3938 0.7044
H6_2 H 0.3164 0.3928 0.7774
H9_2 H 0.257056 0.481043 0.788579
H10_2 H 0.242944 0.481043 0.711421
N1_3 N 0.7001(2) -0.0000 0.5000
C1_3 C 0.6723(5) 0.0555(4) 0.5081(5)
H1_3 H 0.7076 0.0915 0.5129
H2_3 H 0.6438 0.0535 0.5456
H3_3 H 0.6428 0.0664 0.4726
H10_3 H 0.731043 0.00705621 0.461421
N1_4 N 0.7001(2) 1.0000 0.5000
C2_3 C 0.6723(5) 0.9445(4) 0.4919(5)
H4_3 H 0.7076 0.9085 0.4871
H5_3 H 0.6438 0.9465 0.4544
H6_3 H 0.6428 0.9336 0.5274
H9_3 H 0.731043 0.992944 0.538579
N1_5 N 0.7999(2) 0.0000 0.0000
H6_4 H 0.8572 0.0664 0.0274
H9_4 H 0.768957 0.00705621 0.0385787
N1_6 N 0.7999(2) 0.0000 1.0000
C2_4 C 0.8277(5) 0.0555(4) 0.9919(5)
H4_4 H 0.7924 0.0915 0.9871
H5_4 H 0.8562 0.0535 0.9544
N1_7 N 0.7999(2) 1.0000 0.0000
C1_4 C 0.8277(5) 0.9445(4) 0.0081(5)
H1_4 H 0.7924 0.9085 0.0129
H2_4 H 0.8562 0.9465 0.0456
N1_8 N 0.7999(2) 1.0000 1.0000
H3_4 H 0.8572 0.9336 0.9726
H10_4 H 0.768957 0.992944 0.961421
N1_9 N 0.7500 0.0499(2) 0.7500
C1_5 C 0.8055(4) 0.0777(5) 0.7581(5)
H1_5 H 0.8415 0.0424 0.7629
H2_5 H 0.8035 0.1062 0.7956
H3_5 H 0.8164 0.1072 0.7226
C2_5 C 0.6945(4) 0.0777(5) 0.7419(5)
H4_5 H 0.6585 0.0424 0.7371
H5_5 H 0.6965 0.1062 0.7044
H6_5 H 0.6836 0.1072 0.7774
H9_5 H 0.742944 0.0189565 0.788579
H10_5 H 0.757056 0.0189565 0.711421
N1_10 N 0.7500 0.9501(2) 0.2500
C1_6 C 0.6945(4) 0.9223(5) 0.2581(5)
H1_6 H 0.6585 0.9576 0.2629
H2_6 H 0.6965 0.8938 0.2956
H3_6 H 0.6836 0.8928 0.2226
C2_6 C 0.8055(4) 0.9223(5) 0.2419(5)
H4_6 H 0.8415 0.9576 0.2371
H5_6 H 0.8035 0.8938 0.2044
H6_6 H 0.8164 0.8928 0.2774
H9_6 H 0.757056 0.981043 0.288579
H10_6 H 0.742944 0.981043 0.211421
N1_11 N 0.2001(2) 0.5000 0.0000
C1_7 C 0.1723(5) 0.5555(4) 0.0081(5)
H1_7 H 0.2076 0.5915 0.0129
H2_7 H 0.1438 0.5535 0.0456
H6_7 H 0.1428 0.4336 0.0274
H9_7 H 0.231043 0.492944 0.0385787
N1_12 N 0.2001(2) 0.5000 1.0000
H3_7 H 0.1428 0.5664 0.9726
C2_7 C 0.1723(5) 0.4445(4) 0.9919(5)
H4_7 H 0.2076 0.4085 0.9871
H5_7 H 0.1438 0.4465 0.9544
H10_7 H 0.231043 0.507056 0.961421
N1_13 N 0.2999(2) 0.5000 0.5000
C1_8 C 0.3277(5) 0.4445(4) 0.5081(5)
H1_8 H 0.2924 0.4085 0.5129
H2_8 H 0.3562 0.4465 0.5456
H3_8 H 0.3572 0.4336 0.4726
C2_8 C 0.3277(5) 0.5555(4) 0.4919(5)
H4_8 H 0.2924 0.5915 0.4871
H5_8 H 0.3562 0.5535 0.4544
H6_8 H 0.3572 0.5664 0.5274
H9_8 H 0.268957 0.507056 0.538579
H10_8 H 0.268957 0.492944 0.461421
N1_14 N 0.7500 0.4501(2) 0.7500
C1_9 C 0.6945(4) 0.4223(5) 0.7419(5)
H1_9 H 0.6585 0.4576 0.7371
H2_9 H 0.6965 0.3938 0.7044
H3_9 H 0.6836 0.3928 0.7774
C2_9 C 0.8055(4) 0.4223(5) 0.7581(5)
H4_9 H 0.8415 0.4576 0.7629
H5_9 H 0.8035 0.3938 0.7956
H6_9 H 0.8164 0.3928 0.7226
H9_9 H 0.757056 0.481043 0.711421
H10_9 H 0.742944 0.481043 0.788579
N1_15 N 0.7500 0.5499(2) 0.2500
C1_10 C 0.8055(4) 0.5777(5) 0.2419(5)
H1_10 H 0.8415 0.5424 0.2371
H2_10 H 0.8035 0.6062 0.2044
H3_10 H 0.8164 0.6072 0.2774
C2_10 C 0.6945(4) 0.5777(5) 0.2581(5)
H4_10 H 0.6585 0.5424 0.2629
H5_10 H 0.6965 0.6062 0.2956
H6_10 H 0.6836 0.6072 0.2226
H9_10 H 0.742944 0.518957 0.211421
H10_10 H 0.757056 0.518957 0.288579
N1_16 N 0.2999(2) 0.0000 0.5000
C2_11 C 0.3277(5) 0.0555(4) 0.5081(5)
H4_11 H 0.2924 0.0915 0.5129
H5_11 H 0.3562 0.0535 0.5456
H6_11 H 0.3572 0.0664 0.4726
H9_11 H 0.268957 0.00705621 0.461421
N1_17 N 0.2999(2) 1.0000 0.5000
C1_11 C 0.3277(5) 0.9445(4) 0.4919(5)
H1_11 H 0.2924 0.9085 0.4871
H2_11 H 0.3562 0.9465 0.4544
H3_11 H 0.3572 0.9336 0.5274
H10_11 H 0.268957 0.992944 0.538579
N1_18 N 0.2001(2) -0.0000 -0.0000
H3_12 H 0.1428 0.0664 0.0274
H10_12 H 0.231043 0.00705621 0.0385787
N1_19 N 0.2001(2) -0.0000 1.0000
C1_12 C 0.1723(5) 0.0555(4) 0.9919(5)
H1_12 H 0.2076 0.0915 0.9871
H2_12 H 0.1438 0.0535 0.9544
N1_20 N 0.2001(2) 1.0000 -0.0000
C2_12 C 0.1723(5) 0.9445(4) 0.0081(5)
H4_12 H 0.2076 0.9085 0.0129
H5_12 H 0.1438 0.9465 0.0456
N1_21 N 0.2001(2) 1.0000 1.0000
H6_12 H 0.1428 0.9336 0.9726
H9_12 H 0.231043 0.992944 0.961421
N1_22 N 0.2500 0.9501(2) 0.2500
C1_13 C 0.1945(4) 0.9223(5) 0.2419(5)
H1_13 H 0.1585 0.9576 0.2371
H2_13 H 0.1965 0.8938 0.2044
H3_13 H 0.1836 0.8928 0.2774
C2_13 C 0.3055(4) 0.9223(5) 0.2581(5)
H4_13 H 0.3415 0.9576 0.2629
H5_13 H 0.3035 0.8938 0.2956
H6_13 H 0.3164 0.8928 0.2226
H9_13 H 0.257056 0.981043 0.211421
H10_13 H 0.242944 0.981043 0.288579
N1_23 N 0.2500 0.0499(2) 0.7500
C1_14 C 0.3055(4) 0.0777(5) 0.7419(5)
H1_14 H 0.3415 0.0424 0.7371
H2_14 H 0.3035 0.1062 0.7044
H3_14 H 0.3164 0.1072 0.7774
C2_14 C 0.1945(4) 0.0777(5) 0.7581(5)
H4_14 H 0.1585 0.0424 0.7629
H5_14 H 0.1965 0.1062 0.7956
H6_14 H 0.1836 0.1072 0.7226
H9_14 H 0.242944 0.0189565 0.711421
H10_14 H 0.257056 0.0189565 0.788579
N1_24 N 0.7999(2) 0.5000 -0.0000
H3_15 H 0.8572 0.4336 0.0274
C2_15 C 0.8277(5) 0.5555(4) 0.0081(5)
H4_15 H 0.7924 0.5915 0.0129
H5_15 H 0.8562 0.5535 0.0456
H10_15 H 0.768957 0.492944 0.0385787
N1_25 N 0.7999(2) 0.5000 1.0000
C1_15 C 0.8277(5) 0.4445(4) 0.9919(5)
H1_15 H 0.7924 0.4085 0.9871
H2_15 H 0.8562 0.4465 0.9544
H6_15 H 0.8572 0.5664 0.9726
H9_15 H 0.768957 0.507056 0.961421
N1_26 N 0.7001(2) 0.5000 0.5000
C1_16 C 0.6723(5) 0.5555(4) 0.4919(5)
H1_16 H 0.7076 0.5915 0.4871
H2_16 H 0.6438 0.5535 0.4544
H3_16 H 0.6428 0.5664 0.5274
C2_16 C 0.6723(5) 0.4445(4) 0.5081(5)
H4_16 H 0.7076 0.4085 0.5129
H5_16 H 0.6438 0.4465 0.5456
H6_16 H 0.6428 0.4336 0.4726
H9_16 H 0.731043 0.492944 0.461421
H10_16 H 0.731043 0.507056 0.538579
Zn3 Zn 0.27647(2) 0.02647(2) 0.1250
Zn1 Zn 0.27647(2) 0.47353(2) 0.1250
O1 O 0.28506(17) 0.56137(14) 0.07599(13)
O2 O 0.2646(3) 0.62156(16) 0.16366(15)
C3 C 0.2791(2) 0.6188(2) 0.1065(2)
C4 C 0.2836(3) 0.7500 0.1002(3)
H7 H 0.2712 0.7500 0.1427
C5 C 0.2923(2) 0.68595(18) 0.07039(17)
C7 C 0.3119(2) 0.68597(17) 0.00658(17)
O5 O 0.28506(17) 0.93863(14) 0.07599(13)
O6 O 0.2646(3) 0.87844(16) 0.16366(15)
C9 C 0.2791(2) 0.8812(2) 0.1065(2)
C10 C 0.2923(2) 0.81405(18) 0.07039(17)
C11 C 0.3119(2) 0.81403(17) 0.00658(17)
O9 O 0.18863(14) 0.46494(17) 0.17401(13)
O10 O 0.26662(16) 0.40208(15) 0.05983(13)
O11 O 0.34792(15) 0.48338(16) 0.19017(13)
O3 O 0.26662(16) 0.59792(15) 0.94017(13)
C6 C 0.3212(3) 0.7500 0.9763(2)
H8 H 0.3342 0.7500 0.9340
C8 C 0.3226(2) 0.62129(18) 0.96587(18)
O4 O 0.38171(17) 0.59970(18) 0.95516(19)
O7 O 0.26662(16) 0.90208(15) 0.94017(13)
C12 C 0.3226(2) 0.87871(18) 0.96587(18)
O8 O 0.38171(17) 0.90030(18) 0.95516(19)
Zn2 Zn 0.27647(2) 0.52647(2) 0.8750
Zn4 Zn 0.27647(2) 0.97353(2) 0.8750
Zn1_2 Zn 0.22353(2) 0.52647(2) 0.6250
O1_2 O 0.21494(17) 0.43863(14) 0.57599(13)
O2_2 O 0.2354(3) 0.37844(16) 0.66366(15)
C3_2 C 0.2209(2) 0.3812(2) 0.6065(2)
C4_2 C 0.2164(3) 0.2500 0.6002(3)
H7_2 H 0.2288 0.2500 0.6427
C5_2 C 0.2077(2) 0.31405(18) 0.57039(17)
O3_2 O 0.23338(16) 0.40208(15) 0.44017(13)
C6_2 C 0.1788(3) 0.2500 0.4763(2)
H8_2 H 0.1658 0.2500 0.4340
C7_2 C 0.1881(2) 0.31403(17) 0.50658(17)
C8_2 C 0.1774(2) 0.37871(18) 0.46587(18)
O4_2 O 0.11829(17) 0.40030(18) 0.45516(19)
O5_2 O 0.21494(17) 0.06137(14) 0.57599(13)
O6_2 O 0.2354(3) 0.12156(16) 0.66366(15)
C9_2 C 0.2209(2) 0.1188(2) 0.6065(2)
C10_2 C 0.2077(2) 0.18595(18) 0.57039(17)
O7_2 O 0.23338(16) 0.09792(15) 0.44017(13)
C11_2 C 0.1881(2) 0.18597(17) 0.50658(17)
C12_2 C 0.1774(2) 0.12129(18) 0.46587(18)
O8_2 O 0.11829(17) 0.09970(18) 0.45516(19)
Zn2_2 Zn 0.22353(2) 0.47353(2) 0.3750
Zn4_2 Zn 0.22353(2) 0.02647(2) 0.3750
O9_2 O 0.31137(14) 0.53506(17) 0.67401(13)
O10_2 O 0.23338(16) 0.59792(15) 0.55983(13)
O11_2 O 0.15208(15) 0.51662(16) 0.69017(13)
Zn3_2 Zn 0.22353(2) 0.97353(2) 0.6250
Zn1_3 Zn 0.77647(2) 0.02647(2) 0.3750
O1_3 O 0.68863(14) 0.03506(17) 0.32599(13)
O2_3 O 0.62844(16) 0.0146(3) 0.41366(15)
C3_3 C 0.6312(2) 0.0291(2) 0.3565(2)
C4_3 C 0.5000 0.0336(3) 0.3502(3)
H7_3 H 0.5000 0.0212 0.3927
C5_3 C 0.56405(18) 0.0423(2) 0.32039(17)
O3_3 O 0.65208(15) 0.01662(16) 0.19017(13)
C6_3 C 0.5000 0.0712(3) 0.2263(2)
H8_3 H 0.5000 0.0842 0.1840
C7_3 C 0.56403(17) 0.0619(2) 0.25658(17)
C8_3 C 0.62871(18) 0.0726(2) 0.21587(18)
O4_3 O 0.65030(18) 0.13171(17) 0.20516(19)
O5_3 O 0.31137(14) 0.03506(17) 0.32599(13)
O6_3 O 0.37156(16) 0.0146(3) 0.41366(15)
C9_3 C 0.3688(2) 0.0291(2) 0.3565(2)
C10_3 C 0.43595(18) 0.0423(2) 0.32039(17)
O7_3 O 0.34792(15) 0.01662(16) 0.19017(13)
C11_3 C 0.43597(17) 0.0619(2) 0.25658(17)
C12_3 C 0.37129(18) 0.0726(2) 0.21587(18)
O8_3 O 0.34970(18) 0.13171(17) 0.20516(19)
Zn2_3 Zn 0.72353(2) 0.02647(2) 0.1250
O10_3 O 0.84792(15) 0.01662(16) 0.30983(13)
O11_3 O 0.76662(16) 0.09792(15) 0.44017(13)
O9_3 O 0.78506(17) 0.93863(14) 0.42401(13)
C4_4 C 0.0000 0.9664(3) 0.8502(3)
H7_4 H 0.0000 0.9788 0.8927
C6_4 C -0.0000 0.9288(3) 0.7263(2)
H8_4 H -0.0000 0.9158 0.6840
O5_4 O 0.18863(14) 0.96494(17) 0.82599(13)
O6_4 O 0.12844(16) 0.9854(3) 0.91366(15)
C9_4 C 0.1312(2) 0.9709(2) 0.8565(2)
C10_4 C 0.06405(18) 0.9577(2) 0.82039(17)
O7_4 O 0.15208(15) 0.98338(16) 0.69017(13)
C11_4 C 0.06403(17) 0.9381(2) 0.75658(17)
C12_4 C 0.12871(18) 0.9274(2) 0.71587(18)
O8_4 O 0.15030(18) 0.86829(17) 0.70516(19)
O9_4 O 0.71494(17) 0.06137(14) 0.92401(13)
Zn1_4 Zn 0.72353(2) 0.97353(2) 0.8750
O1_4 O 0.81137(14) 0.96494(17) 0.82599(13)
O2_4 O 0.87156(16) 0.9854(3) 0.91366(15)
C3_4 C 0.8688(2) 0.9709(2) 0.8565(2)
C4_5 C 1.0000 0.9664(3) 0.8502(3)
H7_5 H 1.0000 0.9788 0.8927
C5_4 C 0.93595(18) 0.9577(2) 0.82039(17)
O3_4 O 0.84792(15) 0.98338(16) 0.69017(13)
C6_5 C 1.0000 0.9288(3) 0.7263(2)
H8_5 H 1.0000 0.9158 0.6840
C7_4 C 0.93597(17) 0.9381(2) 0.75658(17)
C8_4 C 0.87129(18) 0.9274(2) 0.71587(18)
O4_4 O 0.84970(18) 0.86829(17) 0.70516(19)
Zn2_4 Zn 0.77647(2) 0.97353(2) 0.6250
O10_4 O 0.65208(15) 0.98338(16) 0.80983(13)
O11_4 O 0.73338(16) 0.90208(15) 0.94017(13)
O1_5 O 0.21494(17) 0.56137(14) 0.42401(13)
O2_5 O 0.2354(3) 0.62156(16) 0.33634(15)
C3_5 C 0.2209(2) 0.6188(2) 0.3935(2)
C4_6 C 0.2164(3) 0.7500 0.3998(3)
H7_6 H 0.2288 0.7500 0.3573
C5_5 C 0.2077(2) 0.68595(18) 0.42961(17)
C6_6 C 0.1788(3) 0.7500 0.5237(2)
H8_6 H 0.1658 0.7500 0.5660
C7_5 C 0.1881(2) 0.68597(17) 0.49342(17)
C8_5 C 0.1774(2) 0.62129(18) 0.53413(18)
O4_5 O 0.11829(17) 0.59970(18) 0.54484(19)
O5_5 O 0.21494(17) 0.93863(14) 0.42401(13)
O6_5 O 0.2354(3) 0.87844(16) 0.33634(15)
C9_5 C 0.2209(2) 0.8812(2) 0.3935(2)
C10_5 C 0.2077(2) 0.81405(18) 0.42961(17)
O7_5 O 0.23338(16) 0.90208(15) 0.55983(13)
C11_5 C 0.1881(2) 0.81403(17) 0.49342(17)
C12_5 C 0.1774(2) 0.87871(18) 0.53413(18)
O8_5 O 0.11829(17) 0.90030(18) 0.54484(19)
O9_5 O 0.31137(14) 0.46494(17) 0.32599(13)
O11_5 O 0.15208(15) 0.48338(16) 0.30983(13)
C6_7 C 0.3212(3) 0.2500 0.0237(2)
H8_7 H 0.3342 0.2500 0.0660
C8_6 C 0.3226(2) 0.37871(18) 0.03413(18)
O4_6 O 0.38171(17) 0.40030(18) 0.04484(19)
O7_6 O 0.26662(16) 0.09792(15) 0.05983(13)
C12_6 C 0.3226(2) 0.12129(18) 0.03413(18)
O8_6 O 0.38171(17) 0.09970(18) 0.04484(19)
O1_6 O 0.28506(17) 0.43863(14) 0.92401(13)
O2_6 O 0.2646(3) 0.37844(16) 0.83634(15)
C3_6 C 0.2791(2) 0.3812(2) 0.8935(2)
C4_7 C 0.2836(3) 0.2500 0.8998(3)
H7_7 H 0.2712 0.2500 0.8573
C5_6 C 0.2923(2) 0.31405(18) 0.92961(17)
C7_6 C 0.3119(2) 0.31403(17) 0.99342(17)
O5_6 O 0.28506(17) 0.06137(14) 0.92401(13)
O6_6 O 0.2646(3) 0.12156(16) 0.83634(15)
C9_6 C 0.2791(2) 0.1188(2) 0.8935(2)
C10_6 C 0.2923(2) 0.18595(18) 0.92961(17)
C11_6 C 0.3119(2) 0.18597(17) 0.99342(17)
O9_6 O 0.18863(14) 0.53506(17) 0.82599(13)
O11_6 O 0.34792(15) 0.51662(16) 0.80983(13)
C4_8 C 0.0000 0.0336(3) 0.1498(3)
H7_8 H 0.0000 0.0212 0.1073
C6_8 C -0.0000 0.0712(3) 0.2737(2)
H8_8 H 0.0000 0.0842 0.3160
O5_7 O 0.18863(14) 0.03506(17) 0.17401(13)
O6_7 O 0.12844(16) 0.0146(3) 0.08634(15)
C9_7 C 0.1312(2) 0.0291(2) 0.1435(2)
C10_7 C 0.06405(18) 0.0423(2) 0.17961(17)
O7_7 O 0.15208(15) 0.01662(16) 0.30983(13)
C11_7 C 0.06403(17) 0.0619(2) 0.24342(17)
C12_7 C 0.12871(18) 0.0726(2) 0.28413(18)
O8_7 O 0.15030(18) 0.13171(17) 0.29484(19)
O1_7 O 0.81137(14) 0.03506(17) 0.17401(13)
O2_7 O 0.87156(16) 0.0146(3) 0.08634(15)
C3_7 C 0.8688(2) 0.0291(2) 0.1435(2)
C4_9 C 1.0000 0.0336(3) 0.1498(3)
H7_9 H 1.0000 0.0212 0.1073
C5_7 C 0.93595(18) 0.0423(2) 0.17961(17)
C6_9 C 1.0000 0.0712(3) 0.2737(2)
H8_9 H 1.0000 0.0842 0.3160
C7_7 C 0.93597(17) 0.0619(2) 0.24342(17)
C8_7 C 0.87129(18) 0.0726(2) 0.28413(18)
O4_7 O 0.84970(18) 0.13171(17) 0.29484(19)
O11_7 O 0.73338(16) 0.09792(15) 0.05983(13)
O9_7 O 0.71494(17) 0.93863(14) 0.07599(13)
O9_8 O 0.78506(17) 0.06137(14) 0.57599(13)
O1_8 O 0.68863(14) 0.96494(17) 0.67401(13)
O2_8 O 0.62844(16) 0.9854(3) 0.58634(15)
C3_8 C 0.6312(2) 0.9709(2) 0.6435(2)
C4_10 C 0.5000 0.9664(3) 0.6498(3)
H7_10 H 0.5000 0.9788 0.6073
C5_8 C 0.56405(18) 0.9577(2) 0.67961(17)
C6_10 C 0.5000 0.9288(3) 0.7737(2)
H8_10 H 0.5000 0.9158 0.8160
C7_8 C 0.56403(17) 0.9381(2) 0.74342(17)
C8_8 C 0.62871(18) 0.9274(2) 0.78413(18)
O4_8 O 0.65030(18) 0.86829(17) 0.79484(19)
O5_8 O 0.31137(14) 0.96494(17) 0.67401(13)
O6_8 O 0.37156(16) 0.9854(3) 0.58634(15)
C9_8 C 0.3688(2) 0.9709(2) 0.6435(2)
C10_8 C 0.43595(18) 0.9577(2) 0.67961(17)
O7_8 O 0.34792(15) 0.98338(16) 0.80983(13)
C11_8 C 0.43597(17) 0.9381(2) 0.74342(17)
C12_8 C 0.37129(18) 0.9274(2) 0.78413(18)
O8_8 O 0.34970(18) 0.86829(17) 0.79484(19)
O11_8 O 0.76662(16) 0.90208(15) 0.55983(13)
O2_9 O 0.7646(3) 0.12156(16) 0.66366(15)
C3_9 C 0.7791(2) 0.1188(2) 0.6065(2)
C4_11 C 0.7836(3) 0.2500 0.6002(3)
H7_11 H 0.7712 0.2500 0.6427
C5_9 C 0.7923(2) 0.18595(18) 0.57039(17)
C6_11 C 0.8212(3) 0.2500 0.4763(2)
H8_11 H 0.8342 0.2500 0.4340
C7_9 C 0.8119(2) 0.18597(17) 0.50658(17)
C8_9 C 0.8226(2) 0.12129(18) 0.46587(18)
O4_9 O 0.88171(17) 0.09970(18) 0.45516(19)
O5_9 O 0.78506(17) 0.43863(14) 0.57599(13)
O6_9 O 0.7646(3) 0.37844(16) 0.66366(15)
C9_9 C 0.7791(2) 0.3812(2) 0.6065(2)
C10_9 C 0.7923(2) 0.31405(18) 0.57039(17)
O7_9 O 0.76662(16) 0.40208(15) 0.44017(13)
C11_9 C 0.8119(2) 0.31403(17) 0.50658(17)
C12_9 C 0.8226(2) 0.37871(18) 0.46587(18)
O8_9 O 0.88171(17) 0.40030(18) 0.45516(19)
Zn3_3 Zn 0.77647(2) 0.52647(2) 0.6250
Zn4_3 Zn 0.77647(2) 0.47353(2) 0.3750
O2_10 O 0.7354(3) 0.87844(16) 0.16366(15)
C3_10 C 0.7209(2) 0.8812(2) 0.1065(2)
C4_12 C 0.7164(3) 0.7500 0.1002(3)
H7_12 H 0.7288 0.7500 0.1427
C5_10 C 0.7077(2) 0.81405(18) 0.07039(17)
C7_10 C 0.6881(2) 0.81403(17) 0.00658(17)
O5_10 O 0.71494(17) 0.56137(14) 0.07599(13)
O6_10 O 0.7354(3) 0.62156(16) 0.16366(15)
C9_10 C 0.7209(2) 0.6188(2) 0.1065(2)
C10_10 C 0.7077(2) 0.68595(18) 0.07039(17)
C11_10 C 0.6881(2) 0.68597(17) 0.00658(17)
Zn3_4 Zn 0.72353(2) 0.47353(2) 0.1250
C6_12 C 0.6788(3) 0.7500 0.9763(2)
H8_12 H 0.6658 0.7500 0.9340
C8_10 C 0.6774(2) 0.87871(18) 0.96587(18)
O4_10 O 0.61829(17) 0.90030(18) 0.95516(19)
O7_10 O 0.73338(16) 0.59792(15) 0.94017(13)
C12_10 C 0.6774(2) 0.62129(18) 0.96587(18)
O8_10 O 0.61829(17) 0.59970(18) 0.95516(19)
Zn4_4 Zn 0.72353(2) 0.52647(2) 0.8750
O2_11 O 0.12844(16) 0.5146(3) 0.91366(15)
C3_11 C 0.1312(2) 0.5291(2) 0.8565(2)
C4_13 C 0.0000 0.5336(3) 0.8502(3)
H7_13 H 0.0000 0.5212 0.8927
C5_11 C 0.06405(18) 0.5423(2) 0.82039(17)
C6_13 C -0.0000 0.5712(3) 0.7263(2)
H8_13 H 0.0000 0.5842 0.6840
C7_11 C 0.06403(17) 0.5619(2) 0.75658(17)
C8_11 C 0.12871(18) 0.5726(2) 0.71587(18)
O4_11 O 0.15030(18) 0.63171(17) 0.70516(19)
C4_14 C 1.0000 0.5336(3) 0.8502(3)
H7_14 H 1.0000 0.5212 0.8927
C6_14 C 1.0000 0.5712(3) 0.7263(2)
H8_14 H 1.0000 0.5842 0.6840
O5_11 O 0.81137(14) 0.53506(17) 0.82599(13)
O6_11 O 0.87156(16) 0.5146(3) 0.91366(15)
C9_11 C 0.8688(2) 0.5291(2) 0.8565(2)
C10_11 C 0.93595(18) 0.5423(2) 0.82039(17)
O7_11 O 0.84792(15) 0.51662(16) 0.69017(13)
C11_11 C 0.93597(17) 0.5619(2) 0.75658(17)
C12_11 C 0.87129(18) 0.5726(2) 0.71587(18)
O8_11 O 0.84970(18) 0.63171(17) 0.70516(19)
O2_12 O 0.37156(16) 0.4854(3) 0.41366(15)
C3_12 C 0.3688(2) 0.4709(2) 0.3565(2)
C4_15 C 0.5000 0.4664(3) 0.3502(3)
H7_15 H 0.5000 0.4788 0.3927
C5_12 C 0.43595(18) 0.4577(2) 0.32039(17)
C6_15 C 0.5000 0.4288(3) 0.2263(2)
H8_15 H 0.5000 0.4158 0.1840
C7_12 C 0.43597(17) 0.4381(2) 0.25658(17)
C8_12 C 0.37129(18) 0.4274(2) 0.21587(18)
O4_12 O 0.34970(18) 0.36829(17) 0.20516(19)
O5_12 O 0.68863(14) 0.46494(17) 0.32599(13)
O6_12 O 0.62844(16) 0.4854(3) 0.41366(15)
C9_12 C 0.6312(2) 0.4709(2) 0.3565(2)
C10_12 C 0.56405(18) 0.4577(2) 0.32039(17)
O7_12 O 0.65208(15) 0.48338(16) 0.19017(13)
C11_12 C 0.56403(17) 0.4381(2) 0.25658(17)
C12_12 C 0.62871(18) 0.4274(2) 0.21587(18)
O8_12 O 0.65030(18) 0.36829(17) 0.20516(19)
C6_16 C 0.6788(3) 0.2500 0.0237(2)
H8_16 H 0.6658 0.2500 0.0660
C8_13 C 0.6774(2) 0.12129(18) 0.03413(18)
O4_13 O 0.61829(17) 0.09970(18) 0.04484(19)
O7_13 O 0.73338(16) 0.40208(15) 0.05983(13)
C12_13 C 0.6774(2) 0.37871(18) 0.03413(18)
O8_13 O 0.61829(17) 0.40030(18) 0.04484(19)
O2_13 O 0.7354(3) 0.12156(16) 0.83634(15)
C3_13 C 0.7209(2) 0.1188(2) 0.8935(2)
C4_16 C 0.7164(3) 0.2500 0.8998(3)
H7_16 H 0.7288 0.2500 0.8573
C5_13 C 0.7077(2) 0.18595(18) 0.92961(17)
C7_13 C 0.6881(2) 0.18597(17) 0.99342(17)
O5_13 O 0.71494(17) 0.43863(14) 0.92401(13)
O6_13 O 0.7354(3) 0.37844(16) 0.83634(15)
C9_13 C 0.7209(2) 0.3812(2) 0.8935(2)
C10_13 C 0.7077(2) 0.31405(18) 0.92961(17)
C11_13 C 0.6881(2) 0.31403(17) 0.99342(17)
O2_14 O 0.7646(3) 0.87844(16) 0.33634(15)
C3_14 C 0.7791(2) 0.8812(2) 0.3935(2)
C4_17 C 0.7836(3) 0.7500 0.3998(3)
H7_17 H 0.7712 0.7500 0.3573
C5_14 C 0.7923(2) 0.81405(18) 0.42961(17)
C6_17 C 0.8212(3) 0.7500 0.5237(2)
H8_17 H 0.8342 0.7500 0.5660
C7_14 C 0.8119(2) 0.81403(17) 0.49342(17)
C8_14 C 0.8226(2) 0.87871(18) 0.53413(18)
O4_14 O 0.88171(17) 0.90030(18) 0.54484(19)
O5_14 O 0.78506(17) 0.56137(14) 0.42401(13)
O6_14 O 0.7646(3) 0.62156(16) 0.33634(15)
C9_14 C 0.7791(2) 0.6188(2) 0.3935(2)
C10_14 C 0.7923(2) 0.68595(18) 0.42961(17)
O7_14 O 0.76662(16) 0.59792(15) 0.55983(13)
C11_14 C 0.8119(2) 0.68597(17) 0.49342(17)
C12_14 C 0.8226(2) 0.62129(18) 0.53413(18)
O8_14 O 0.88171(17) 0.59970(18) 0.54484(19)
O2_15 O 0.37156(16) 0.5146(3) 0.58634(15)
C3_15 C 0.3688(2) 0.5291(2) 0.6435(2)
C4_18 C 0.5000 0.5336(3) 0.6498(3)
H7_18 H 0.5000 0.5212 0.6073
C5_15 C 0.43595(18) 0.5423(2) 0.67961(17)
C6_18 C 0.5000 0.5712(3) 0.7737(2)
H8_18 H 0.5000 0.5842 0.8160
C7_15 C 0.43597(17) 0.5619(2) 0.74342(17)
C8_15 C 0.37129(18) 0.5726(2) 0.78413(18)
O4_15 O 0.34970(18) 0.63171(17) 0.79484(19)
O5_15 O 0.68863(14) 0.53506(17) 0.67401(13)
O6_15 O 0.62844(16) 0.5146(3) 0.58634(15)
C9_15 C 0.6312(2) 0.5291(2) 0.6435(2)
C10_15 C 0.56405(18) 0.5423(2) 0.67961(17)
O7_15 O 0.65208(15) 0.51662(16) 0.80983(13)
C11_15 C 0.56403(17) 0.5619(2) 0.74342(17)
C12_15 C 0.62871(18) 0.5726(2) 0.78413(18)
O8_15 O 0.65030(18) 0.63171(17) 0.79484(19)
O2_16 O 0.12844(16) 0.4854(3) 0.08634(15)
C3_16 C 0.1312(2) 0.4709(2) 0.1435(2)
C4_19 C 0.0000 0.4664(3) 0.1498(3)
H7_19 H 0.0000 0.4788 0.1073
C5_16 C 0.06405(18) 0.4577(2) 0.17961(17)
C6_19 C -0.0000 0.4288(3) 0.2737(2)
H8_19 H -0.0000 0.4158 0.3160
C7_16 C 0.06403(17) 0.4381(2) 0.24342(17)
C8_16 C 0.12871(18) 0.4274(2) 0.28413(18)
O4_16 O 0.15030(18) 0.36829(17) 0.29484(19)
C4_20 C 1.0000 0.4664(3) 0.1498(3)
H7_20 H 1.0000 0.4788 0.1073
C6_20 C 1.0000 0.4288(3) 0.2737(2)
H8_20 H 1.0000 0.4158 0.3160
O5_16 O 0.81137(14) 0.46494(17) 0.17401(13)
O6_16 O 0.87156(16) 0.4854(3) 0.08634(15)
C9_16 C 0.8688(2) 0.4709(2) 0.1435(2)
C10_16 C 0.93595(18) 0.4577(2) 0.17961(17)
O7_16 O 0.84792(15) 0.48338(16) 0.30983(13)
C11_16 C 0.93597(17) 0.4381(2) 0.24342(17)
C12_16 C 0.87129(18) 0.4274(2) 0.28413(18)
O8_16 O 0.84970(18) 0.36829(17) 0.29484(19)
loop_
_geom_bond_atom_site_label_1
_geom_bond_atom_site_label_2
_geom_bond_site_symmetry_1
_geom_bond_site_symmetry_2
N1 C1 1_555 1_555
C1 H1 1_555 1_555
H2 C1 1_555 1_555
H3 C1 1_555 1_555
C2 N1 1_555 1_555
H4 C2 1_555 1_555
H5 C2 1_555 1_555
H6 C2 1_555 1_555
N1 H9 1_555 1_555
N1 H10 1_555 1_555
N1_2 C1_2 1_555 1_555
C1_2 H1_2 1_555 1_555
H2_2 C1_2 1_555 1_555
H3_2 C1_2 1_555 1_555
C2_2 N1_2 1_555 1_555
H4_2 C2_2 1_555 1_555
H5_2 C2_2 1_555 1_555
H6_2 C2_2 1_555 1_555
N1_2 H9_2 1_555 1_555
N1_2 H10_2 1_555 1_555
N1_3 C1_3 1_555 1_555
C1_3 H1_3 1_555 1_555
H2_3 C1_3 1_555 1_555
H3_3 C1_3 1_555 1_555
N1_3 H10_3 1_555 1_555
C2_3 N1_4 1_555 1_555
H4_3 C2_3 1_555 1_555
H5_3 C2_3 1_555 1_555
H6_3 C2_3 1_555 1_555
N1_4 H9_3 1_555 1_555
N1_5 H9_4 1_555 1_555
C2_4 N1_6 1_555 1_555
H4_4 C2_4 1_555 1_555
H5_4 C2_4 1_555 1_555
N1_7 C1_4 1_555 1_555
C1_4 H1_4 1_555 1_555
H2_4 C1_4 1_555 1_555
N1_8 H10_4 1_555 1_555
N1_9 C1_5 1_555 1_555
C1_5 H1_5 1_555 1_555
H2_5 C1_5 1_555 1_555
H3_5 C1_5 1_555 1_555
C2_5 N1_9 1_555 1_555
H4_5 C2_5 1_555 1_555
H5_5 C2_5 1_555 1_555
H6_5 C2_5 1_555 1_555
N1_9 H9_5 1_555 1_555
N1_9 H10_5 1_555 1_555
N1_10 C1_6 1_555 1_555
C1_6 H1_6 1_555 1_555
H2_6 C1_6 1_555 1_555
H3_6 C1_6 1_555 1_555
C2_6 N1_10 1_555 1_555
H4_6 C2_6 1_555 1_555
H5_6 C2_6 1_555 1_555
H6_6 C2_6 1_555 1_555
N1_10 H9_6 1_555 1_555
N1_10 H10_6 1_555 1_555
N1_11 C1_7 1_555 1_555
C1_7 H1_7 1_555 1_555
H2_7 C1_7 1_555 1_555
N1_11 H9_7 1_555 1_555
C2_7 N1_12 1_555 1_555
H4_7 C2_7 1_555 1_555
H5_7 C2_7 1_555 1_555
N1_12 H10_7 1_555 1_555
N1_13 C1_8 1_555 1_555
C1_8 H1_8 1_555 1_555
H2_8 C1_8 1_555 1_555
H3_8 C1_8 1_555 1_555
C2_8 N1_13 1_555 1_555
H4_8 C2_8 1_555 1_555
H5_8 C2_8 1_555 1_555
H6_8 C2_8 1_555 1_555
N1_13 H9_8 1_555 1_555
N1_13 H10_8 1_555 1_555
N1_14 C1_9 1_555 1_555
C1_9 H1_9 1_555 1_555
H2_9 C1_9 1_555 1_555
H3_9 C1_9 1_555 1_555
C2_9 N1_14 1_555 1_555
H4_9 C2_9 1_555 1_555
H5_9 C2_9 1_555 1_555
H6_9 C2_9 1_555 1_555
N1_14 H9_9 1_555 1_555
N1_14 H10_9 1_555 1_555
N1_15 C1_10 1_555 1_555
C1_10 H1_10 1_555 1_555
H2_10 C1_10 1_555 1_555
H3_10 C1_10 1_555 1_555
C2_10 N1_15 1_555 1_555
H4_10 C2_10 1_555 1_555
H5_10 C2_10 1_555 1_555
H6_10 C2_10 1_555 1_555
N1_15 H9_10 1_555 1_555
N1_15 H10_10 1_555 1_555
C2_11 N1_16 1_555 1_555
H4_11 C2_11 1_555 1_555
H5_11 C2_11 1_555 1_555
H6_11 C2_11 1_555 1_555
N1_16 H9_11 1_555 1_555
N1_17 C1_11 1_555 1_555
C1_11 H1_11 1_555 1_555
H2_11 C1_11 1_555 1_555
H3_11 C1_11 1_555 1_555
N1_17 H10_11 1_555 1_555
N1_18 H10_12 1_555 1_555
N1_19 C1_12 1_555 1_555
C1_12 H1_12 1_555 1_555
H2_12 C1_12 1_555 1_555
C2_12 N1_20 1_555 1_555
H4_12 C2_12 1_555 1_555
H5_12 C2_12 1_555 1_555
N1_21 H9_12 1_555 1_555
N1_22 C1_13 1_555 1_555
C1_13 H1_13 1_555 1_555
H2_13 C1_13 1_555 1_555
H3_13 C1_13 1_555 1_555
C2_13 N1_22 1_555 1_555
H4_13 C2_13 1_555 1_555
H5_13 C2_13 1_555 1_555
H6_13 C2_13 1_555 1_555
N1_22 H9_13 1_555 1_555
N1_22 H10_13 1_555 1_555
N1_23 C1_14 1_555 1_555
C1_14 H1_14 1_555 1_555
H2_14 C1_14 1_555 1_555
H3_14 C1_14 1_555 1_555
C2_14 N1_23 1_555 1_555
H4_14 C2_14 1_555 1_555
H5_14 C2_14 1_555 1_555
H6_14 C2_14 1_555 1_555
N1_23 H9_14 1_555 1_555
N1_23 H10_14 1_555 1_555
C2_15 N1_24 1_555 1_555
H4_15 C2_15 1_555 1_555
H5_15 C2_15 1_555 1_555
N1_24 H10_15 1_555 1_555
N1_25 C1_15 1_555 1_555
C1_15 H1_15 1_555 1_555
H2_15 C1_15 1_555 1_555
N1_25 H9_15 1_555 1_555
N1_26 C1_16 1_555 1_555
C1_16 H1_16 1_555 1_555
H2_16 C1_16 1_555 1_555
H3_16 C1_16 1_555 1_555
C2_16 N1_26 1_555 1_555
H4_16 C2_16 1_555 1_555
H5_16 C2_16 1_555 1_555
H6_16 C2_16 1_555 1_555
N1_26 H9_16 1_555 1_555
N1_26 H10_16 1_555 1_555
Zn1 O1 1_555 1_555
O1 C3 1_555 1_555
O2 C3 1_555 1_555
C3 C5 1_555 1_555
C4 H7 1_555 1_555
C5 C4 1_555 1_555
C7 C5 1_555 1_555
O5 C9 1_555 1_555
O6 C9 1_555 1_555
C9 C10 1_555 1_555
C10 C4 1_555 1_555
O9 Zn1 1_555 1_555
O10 Zn1 1_555 1_555
O11 Zn1 1_555 1_555
C10 C11 1_555 1_555
O3 C8 1_555 1_555
C6 H8 1_555 1_555
O4 C8 1_555 1_555
O7 C12 1_555 1_555
O8 C12 1_555 1_555
Zn2 O3 1_555 1_555
Zn4 O7 1_555 1_555
Zn1_2 O1_2 1_555 1_555
O1_2 C3_2 1_555 1_555
O2_2 C3_2 1_555 1_555
C3_2 C5_2 1_555 1_555
C4_2 H7_2 1_555 1_555
C5_2 C4_2 1_555 1_555
O3_2 C8_2 1_555 1_555
C6_2 H8_2 1_555 1_555
C7_2 C5_2 1_555 1_555
C8_2 C7_2 1_555 1_555
O4_2 C8_2 1_555 1_555
O5_2 C9_2 1_555 1_555
O6_2 C9_2 1_555 1_555
C9_2 C10_2 1_555 1_555
C10_2 C4_2 1_555 1_555
O7_2 C12_2 1_555 1_555
C11_2 C6_2 1_555 1_555
C12_2 C11_2 1_555 1_555
O8_2 C12_2 1_555 1_555
Zn2_2 O3_2 1_555 1_555
Zn4_2 O7_2 1_555 1_555
O9_2 Zn1_2 1_555 1_555
O10_2 Zn1_2 1_555 1_555
O11_2 Zn1_2 1_555 1_555
C6_2 C7_2 1_555 1_555
C10_2 C11_2 1_555 1_555
Zn1_3 O1_3 1_555 1_555
O1_3 C3_3 1_555 1_555
O2_3 C3_3 1_555 1_555
C3_3 C5_3 1_555 1_555
C4_3 H7_3 1_555 1_555
C5_3 C4_3 1_555 1_555
O3_3 C8_3 1_555 1_555
C6_3 H8_3 1_555 1_555
C7_3 C5_3 1_555 1_555
C8_3 C7_3 1_555 1_555
O4_3 C8_3 1_555 1_555
O5_3 C9_3 1_555 1_555
O6_3 C9_3 1_555 1_555
C9_3 C10_3 1_555 1_555
C10_3 C4_3 1_555 1_555
O7_3 C12_3 1_555 1_555
C11_3 C6_3 1_555 1_555
C12_3 C11_3 1_555 1_555
O8_3 C12_3 1_555 1_555
Zn2_3 O3_3 1_555 1_555
Zn4_2 O5_3 1_555 1_555
Zn3 O7_3 1_555 1_555
O10_3 Zn1_3 1_555 1_555
O11_3 Zn1_3 1_555 1_555
C6_3 C7_3 1_555 1_555
C10_3 C11_3 1_555 1_555
C4_4 H7_4 1_555 1_555
C6_4 H8_4 1_555 1_555
O5_4 C9_4 1_555 1_555
O6_4 C9_4 1_555 1_555
C9_4 C10_4 1_555 1_555
C10_4 C4_4 1_555 1_555
O7_4 C12_4 1_555 1_555
C11_4 C6_4 1_555 1_555
C12_4 C11_4 1_555 1_555
O8_4 C12_4 1_555 1_555
Zn4 O5_4 1_555 1_555
Zn3_2 O7_4 1_555 1_555
C10_4 C11_4 1_555 1_555
Zn1_4 O1_4 1_555 1_555
O1_4 C3_4 1_555 1_555
O2_4 C3_4 1_555 1_555
C3_4 C5_4 1_555 1_555
C4_5 H7_5 1_555 1_555
C5_4 C4_5 1_555 1_555
O3_4 C8_4 1_555 1_555
C6_5 H8_5 1_555 1_555
C7_4 C5_4 1_555 1_555
C8_4 C7_4 1_555 1_555
O4_4 C8_4 1_555 1_555
Zn2_4 O3_4 1_555 1_555
O10_4 Zn1_4 1_555 1_555
O11_4 Zn1_4 1_555 1_555
C6_5 C7_4 1_555 1_555
Zn2_2 O1_5 1_555 1_555
O1_5 C3_5 1_555 1_555
O2_5 C3_5 1_555 1_555
C3_5 C5_5 1_555 1_555
C4_6 H7_6 1_555 1_555
C5_5 C4_6 1_555 1_555
O10_2 C8_5 1_555 1_555
C6_6 H8_6 1_555 1_555
C7_5 C5_5 1_555 1_555
C8_5 C7_5 1_555 1_555
O4_5 C8_5 1_555 1_555
O5_5 C9_5 1_555 1_555
O6_5 C9_5 1_555 1_555
C9_5 C10_5 1_555 1_555
C10_5 C4_6 1_555 1_555
O7_5 C12_5 1_555 1_555
C11_5 C6_6 1_555 1_555
C12_5 C11_5 1_555 1_555
O8_5 C12_5 1_555 1_555
Zn3_2 O7_5 1_555 1_555
O9_5 Zn2_2 1_555 1_555
O11_5 Zn2_2 1_555 1_555
C6_6 C7_5 1_555 1_555
C10_5 C11_5 1_555 1_555
O10 C8_6 1_555 1_555
C6_7 H8_7 1_555 1_555
O4_6 C8_6 1_555 1_555
O7_6 C12_6 1_555 1_555
O8_6 C12_6 1_555 1_555
Zn3 O7_6 1_555 1_555
Zn2 O1_6 1_555 1_555
O1_6 C3_6 1_555 1_555
O2_6 C3_6 1_555 1_555
C3_6 C5_6 1_555 1_555
C4_7 H7_7 1_555 1_555
C5_6 C4_7 1_555 1_555
C7_6 C5_6 1_555 1_555
O5_6 C9_6 1_555 1_555
O6_6 C9_6 1_555 1_555
C9_6 C10_6 1_555 1_555
C10_6 C4_7 1_555 1_555
O9_6 Zn2 1_555 1_555
O11_6 Zn2 1_555 1_555
C10_6 C11_6 1_555 1_555
C4_8 H7_8 1_555 1_555
C6_8 H8_8 1_555 1_555
O5_7 C9_7 1_555 1_555
O6_7 C9_7 1_555 1_555
C9_7 C10_7 1_555 1_555
C10_7 C4_8 1_555 1_555
O7_7 C12_7 1_555 1_555
C11_7 C6_8 1_555 1_555
C12_7 C11_7 1_555 1_555
O8_7 C12_7 1_555 1_555
Zn3 O5_7 1_555 1_555
Zn4_2 O7_7 1_555 1_555
C10_7 C11_7 1_555 1_555
Zn2_3 O1_7 1_555 1_555
O1_7 C3_7 1_555 1_555
O2_7 C3_7 1_555 1_555
C3_7 C5_7 1_555 1_555
C4_9 H7_9 1_555 1_555
C5_7 C4_9 1_555 1_555
O10_3 C8_7 1_555 1_555
C6_9 H8_9 1_555 1_555
C7_7 C5_7 1_555 1_555
C8_7 C7_7 1_555 1_555
O4_7 C8_7 1_555 1_555
O11_7 Zn2_3 1_555 1_555
C6_9 C7_7 1_555 1_555
Zn2_4 O1_8 1_555 1_555
O1_8 C3_8 1_555 1_555
O2_8 C3_8 1_555 1_555
C3_8 C5_8 1_555 1_555
C4_10 H7_10 1_555 1_555
C5_8 C4_10 1_555 1_555
O10_4 C8_8 1_555 1_555
C6_10 H8_10 1_555 1_555
C7_8 C5_8 1_555 1_555
C8_8 C7_8 1_555 1_555
O4_8 C8_8 1_555 1_555
O5_8 C9_8 1_555 1_555
O6_8 C9_8 1_555 1_555
C9_8 C10_8 1_555 1_555
C10_8 C4_10 1_555 1_555
O7_8 C12_8 1_555 1_555
C11_8 C6_10 1_555 1_555
C12_8 C11_8 1_555 1_555
O8_8 C12_8 1_555 1_555
Zn3_2 O5_8 1_555 1_555
Zn4 O7_8 1_555 1_555
O11_8 Zn2_4 1_555 1_555
C6_10 C7_8 1_555 1_555
C10_8 C11_8 1_555 1_555
O9_8 C3_9 1_555 1_555
O2_9 C3_9 1_555 1_555
C3_9 C5_9 1_555 1_555
C4_11 H7_11 1_555 1_555
C5_9 C4_11 1_555 1_555
O11_3 C8_9 1_555 1_555
C6_11 H8_11 1_555 1_555
C7_9 C5_9 1_555 1_555
C8_9 C7_9 1_555 1_555
O4_9 C8_9 1_555 1_555
O5_9 C9_9 1_555 1_555
O6_9 C9_9 1_555 1_555
C9_9 C10_9 1_555 1_555
C10_9 C4_11 1_555 1_555
O7_9 C12_9 1_555 1_555
C11_9 C6_11 1_555 1_555
C12_9 C11_9 1_555 1_555
O8_9 C12_9 1_555 1_555
Zn3_3 O5_9 1_555 1_555
Zn4_3 O7_9 1_555 1_555
C6_11 C7_9 1_555 1_555
C10_9 C11_9 1_555 1_555
O9_7 C3_10 1_555 1_555
O2_10 C3_10 1_555 1_555
C3_10 C5_10 1_555 1_555
C4_12 H7_12 1_555 1_555
C5_10 C4_12 1_555 1_555
C7_10 C5_10 1_555 1_555
O5_10 C9_10 1_555 1_555
O6_10 C9_10 1_555 1_555
C9_10 C10_10 1_555 1_555
C10_10 C4_12 1_555 1_555
Zn3_4 O5_10 1_555 1_555
C10_10 C11_10 1_555 1_555
O11_4 C8_10 1_555 1_555
C6_12 H8_12 1_555 1_555
O4_10 C8_10 1_555 1_555
O7_10 C12_10 1_555 1_555
O8_10 C12_10 1_555 1_555
Zn4_4 O7_10 1_555 1_555
O9_6 C3_11 1_555 1_555
O2_11 C3_11 1_555 1_555
C3_11 C5_11 1_555 1_555
C4_13 H7_13 1_555 1_555
C5_11 C4_13 1_555 1_555
O11_2 C8_11 1_555 1_555
C6_13 H8_13 1_555 1_555
C7_11 C5_11 1_555 1_555
C8_11 C7_11 1_555 1_555
O4_11 C8_11 1_555 1_555
C6_13 C7_11 1_555 1_555
C4_14 H7_14 1_555 1_555
C6_14 H8_14 1_555 1_555
O5_11 C9_11 1_555 1_555
O6_11 C9_11 1_555 1_555
C9_11 C10_11 1_555 1_555
C10_11 C4_14 1_555 1_555
O7_11 C12_11 1_555 1_555
C11_11 C6_14 1_555 1_555
C12_11 C11_11 1_555 1_555
O8_11 C12_11 1_555 1_555
Zn4_4 O5_11 1_555 1_555
Zn3_3 O7_11 1_555 1_555
C10_11 C11_11 1_555 1_555
O9_5 C3_12 1_555 1_555
O2_12 C3_12 1_555 1_555
C3_12 C5_12 1_555 1_555
C4_15 H7_15 1_555 1_555
C5_12 C4_15 1_555 1_555
O11 C8_12 1_555 1_555
C6_15 H8_15 1_555 1_555
C7_12 C5_12 1_555 1_555
C8_12 C7_12 1_555 1_555
O4_12 C8_12 1_555 1_555
O5_12 C9_12 1_555 1_555
O6_12 C9_12 1_555 1_555
C9_12 C10_12 1_555 1_555
C10_12 C4_15 1_555 1_555
O7_12 C12_12 1_555 1_555
C11_12 C6_15 1_555 1_555
C12_12 C11_12 1_555 1_555
O8_12 C12_12 1_555 1_555
Zn4_3 O5_12 1_555 1_555
Zn3_4 O7_12 1_555 1_555
C6_15 C7_12 1_555 1_555
C10_12 C11_12 1_555 1_555
O11_7 C8_13 1_555 1_555
C6_16 H8_16 1_555 1_555
O4_13 C8_13 1_555 1_555
O7_13 C12_13 1_555 1_555
O8_13 C12_13 1_555 1_555
Zn3_4 O7_13 1_555 1_555
O9_4 C3_13 1_555 1_555
O2_13 C3_13 1_555 1_555
C3_13 C5_13 1_555 1_555
C4_16 H7_16 1_555 1_555
C5_13 C4_16 1_555 1_555
C7_13 C5_13 1_555 1_555
O5_13 C9_13 1_555 1_555
O6_13 C9_13 1_555 1_555
C9_13 C10_13 1_555 1_555
C10_13 C4_16 1_555 1_555
Zn4_4 O5_13 1_555 1_555
C10_13 C11_13 1_555 1_555
O9_3 C3_14 1_555 1_555
O2_14 C3_14 1_555 1_555
C3_14 C5_14 1_555 1_555
C4_17 H7_17 1_555 1_555
C5_14 C4_17 1_555 1_555
O11_8 C8_14 1_555 1_555
C6_17 H8_17 1_555 1_555
C7_14 C5_14 1_555 1_555
C8_14 C7_14 1_555 1_555
O4_14 C8_14 1_555 1_555
O5_14 C9_14 1_555 1_555
O6_14 C9_14 1_555 1_555
C9_14 C10_14 1_555 1_555
C10_14 C4_17 1_555 1_555
O7_14 C12_14 1_555 1_555
C11_14 C6_17 1_555 1_555
C12_14 C11_14 1_555 1_555
O8_14 C12_14 1_555 1_555
Zn4_3 O5_14 1_555 1_555
Zn3_3 O7_14 1_555 1_555
C6_17 C7_14 1_555 1_555
C10_14 C11_14 1_555 1_555
O9_2 C3_15 1_555 1_555
O2_15 C3_15 1_555 1_555
C3_15 C5_15 1_555 1_555
C4_18 H7_18 1_555 1_555
C5_15 C4_18 1_555 1_555
O11_6 C8_15 1_555 1_555
C6_18 H8_18 1_555 1_555
C7_15 C5_15 1_555 1_555
C8_15 C7_15 1_555 1_555
O4_15 C8_15 1_555 1_555
O5_15 C9_15 1_555 1_555
O6_15 C9_15 1_555 1_555
C9_15 C10_15 1_555 1_555
C10_15 C4_18 1_555 1_555
O7_15 C12_15 1_555 1_555
C11_15 C6_18 1_555 1_555
C12_15 C11_15 1_555 1_555
O8_15 C12_15 1_555 1_555
Zn3_3 O5_15 1_555 1_555
Zn4_4 O7_15 1_555 1_555
C6_18 C7_15 1_555 1_555
C10_15 C11_15 1_555 1_555
O9 C3_16 1_555 1_555
O2_16 C3_16 1_555 1_555
C3_16 C5_16 1_555 1_555
C4_19 H7_19 1_555 1_555
C5_16 C4_19 1_555 1_555
O11_5 C8_16 1_555 1_555
C6_19 H8_19 1_555 1_555
C7_16 C5_16 1_555 1_555
C8_16 C7_16 1_555 1_555
O4_16 C8_16 1_555 1_555
C6_19 C7_16 1_555 1_555
C4_20 H7_20 1_555 1_555
C6_20 H8_20 1_555 1_555
O5_16 C9_16 1_555 1_555
O6_16 C9_16 1_555 1_555
C9_16 C10_16 1_555 1_555
C10_16 C4_20 1_555 1_555
O7_16 C12_16 1_555 1_555
C11_16 C6_20 1_555 1_555
C12_16 C11_16 1_555 1_555
O8_16 C12_16 1_555 1_555
Zn3_4 O5_16 1_555 1_555
Zn4_3 O7_16 1_555 1_555
C10_16 C11_16 1_555 1_555

#END
