
###############################################################################
#
# This file contains modified crystal structure data generated from the
# MOF subset of the Cambridge Structural Database (CSD) v543 
# hosted by the Cambridge Crystallographic Data Centre (CCDC).
#
# This work is licensed under the Creative Commons
# Attribution-NonCommercial-ShareAlike 4.0 International License.
# To view a copy of this license, visit
# http://creativecommons.org/licenses/by-nc-sa/4.0/
# or send a letter to
# Creative Commons, PO Box 1866, Mountain View, CA 94042, USA.
#
# CIF created using the CSD Python API on 29 September 2022
# The structure has been converted into the P1 space group
# The structure has a 3D framework
# The original CSD entry QOBXUD is in the monoclinic crystal system
# The framework has been calculated to contain at least 10.0% void space
# The void calculation uses a probe of radius 1.32A, grid spacing 0.4
# The framework is charged, counterions have been retained in the structure
#
###############################################################################

data_QOBXUD
_chemical_formula_moiety         '(C208 H112 In8 N16 O64 8-)n'
_symmetry_cell_setting           triclinic
_symmetry_space_group_name_H-M   'P 1'
_symmetry_Int_Tables_number      1
_space_group_name_Hall           'P 1'
loop_
_symmetry_equiv_pos_site_id
_symmetry_equiv_pos_as_xyz
1 x,y,z
_cell_length_a                   18.4359(7)
_cell_length_b                   22.1499(6)
_cell_length_c                   20.6432(8)
_cell_angle_alpha                90
_cell_angle_beta                 106.994(4)
_cell_angle_gamma                90
_cell_volume                     8061.64
loop_
_atom_site_label
_atom_site_type_symbol
_atom_site_fract_x
_atom_site_fract_y
_atom_site_fract_z
In1 In 0.31439(2) 0.63866(2) 0.67461(2)
O1 O 0.27621(17) 0.72835(13) 0.63594(16)
O2 O 0.2982(2) 0.80520(14) 0.57459(19)
O3 O 0.35495(18) 0.82718(14) 0.27909(17)
O4 O 0.44048(19) 0.80787(15) 0.22629(17)
O5 O 0.2883(2) 0.52905(17) 0.7372(2)
O6 O 0.38181(17) 0.55838(12) 0.69751(17)
O7 O 0.63202(17) 0.47297(14) 0.57098(17)
O8 O 0.73575(16) 0.41623(14) 0.59474(15)
N1 N 0.36759(19) 0.65600(15) 0.58985(17)
N2 N 0.70198(19) 0.36206(14) 0.69737(19)
C1 C 0.3045(3) 0.75212(19) 0.5928(2)
C2 C 0.3545(2) 0.71179(17) 0.5637(2)
C3 C 0.3871(2) 0.73217(19) 0.5157(2)
H1 H 0.3764 0.7709 0.4981
C4 C 0.4359(2) 0.69503(19) 0.4934(2)
C5 C 0.4497(3) 0.63779(19) 0.5224(2)
H2 H 0.4828 0.6117 0.5099
C6 C 0.4143(2) 0.61958(19) 0.5699(2)
H3 H 0.4234 0.5810 0.5882
C7 C 0.4715(3) 0.7158(2) 0.4419(2)
C8 C 0.4307(2) 0.75072(19) 0.3871(2)
H4 H 0.3807 0.7609 0.3830
C9 C 0.5395(3) 0.7556(3) 0.3449(3)
H5 H 0.5622 0.7692 0.3128
C10 C 0.5802(3) 0.7206(3) 0.3988(3)
H6 H 0.6304 0.7108 0.4030
C11 C 0.5463(3) 0.7000(3) 0.4469(3)
H7 H 0.5736 0.6757 0.4824
C12 C 0.4640(3) 0.7704(2) 0.3387(3)
C13 C 0.4190(3) 0.8044(2) 0.2780(3)
C14 C 0.3490(3) 0.5190(2) 0.7248(3)
C15 C 0.3872(3) 0.45904(19) 0.7407(3)
C16 C 0.4551(2) 0.44726(19) 0.7252(2)
H8 H 0.4755 0.4768 0.7037
C17 C 0.4922(3) 0.39256(19) 0.7412(3)
C18 C 0.4602(3) 0.3482(2) 0.7724(4)
H9 H 0.4843 0.3112 0.7834
C19 C 0.3918(4) 0.3592(2) 0.7873(4)
H10 H 0.3705 0.3295 0.8079
C20 C 0.3563(3) 0.4142(2) 0.7712(3)
H11 H 0.3109 0.4213 0.7810
C21 C 0.5641(2) 0.38133(19) 0.7253(3)
C22 C 0.5812(2) 0.41077(18) 0.6711(2)
H12 H 0.5461 0.4368 0.6432
C23 C 0.6501(2) 0.40077(18) 0.6596(2)
C24 C 0.6855(3) 0.33229(19) 0.7473(3)
H13 H 0.7203 0.3045 0.7724
C25 C 0.6180(3) 0.3413(2) 0.7631(3)
H14 H 0.6089 0.3205 0.7991
C26 C 0.6738(2) 0.43313(19) 0.6044(2)
In2 In 0.81439(2) 0.36134(2) 0.67461(2)
In3 In 0.31439(2) 0.86134(2) 0.17461(2)
O9 O 0.35495(18) 0.67282(14) 0.77909(17)
O10 O 0.44048(19) 0.69213(15) 0.72629(17)
O11 O 0.23575(16) 0.58377(14) 0.59474(15)
N3 N 0.20198(19) 0.63794(14) 0.69737(19)
O7_2 O 0.13202(17) 0.97297(14) 0.07098(17)
O8_2 O 0.23575(16) 0.91623(14) 0.09474(15)
N2_2 N 0.20198(19) 0.86206(14) 0.19737(19)
C21_2 C 0.0641(2) 0.88133(19) 0.2253(3)
C22_2 C 0.0812(2) 0.91077(18) 0.1711(2)
H12_2 H 0.0461 0.9368 0.1432
C23_2 C 0.1501(2) 0.90077(18) 0.1596(2)
C24_2 C 0.1855(3) 0.83229(19) 0.2473(3)
H13_2 H 0.2203 0.8045 0.2724
C25_2 C 0.1180(3) 0.8413(2) 0.2631(3)
H14_2 H 0.1089 0.8205 0.2991
C26_2 C 0.1738(2) 0.93313(19) 0.1044(2)
In1_2 In 0.81439(2) 0.13866(2) 0.17461(2)
O1_2 O 0.77621(17) 0.22835(13) 0.13594(16)
O2_2 O 0.7982(2) 0.30520(14) 0.07459(19)
O5_2 O 0.7883(2) 0.02905(17) 0.2372(2)
O6_2 O 0.88181(17) 0.05838(12) 0.19751(17)
N1_2 N 0.86759(19) 0.15600(15) 0.08985(17)
C1_2 C 0.8045(3) 0.25212(19) 0.0928(2)
C2_2 C 0.8545(2) 0.21179(17) 0.0637(2)
C3_2 C 0.8871(2) 0.23217(19) 0.0157(2)
C5_2 C 0.9497(3) 0.13779(19) 0.0224(2)
H2_2 H 0.9828 0.1117 0.0099
C6_2 C 0.9143(2) 0.11958(19) 0.0699(2)
H3_2 H 0.9234 0.0810 0.0882
C14_2 C 0.8490(3) 0.0190(2) 0.2248(3)
O9_2 O 0.85495(18) 0.17282(14) 0.27909(17)
O10_2 O 0.94048(19) 0.19213(15) 0.22629(17)
O11_2 O 0.73575(16) 0.08377(14) 0.09474(15)
N3_2 N 0.70198(19) 0.13794(14) 0.19737(19)
O3_2 O 0.85495(18) 0.32718(14) 0.77909(17)
O4_2 O 0.94048(19) 0.30787(15) 0.72629(17)
H1_2 H 0.8764 0.2709 0.9981
C4_2 C 0.9359(2) 0.19503(19) 0.9934(2)
C7_2 C 0.9715(3) 0.2158(2) 0.9419(2)
C8_2 C 0.9307(2) 0.25072(19) 0.8871(2)
H4_2 H 0.8807 0.2609 0.8830
C12_2 C 0.9640(3) 0.2704(2) 0.8387(3)
C13_2 C 0.9190(3) 0.3044(2) 0.7780(3)
O7_3 O 0.13202(17) 0.52703(14) 0.57098(17)
C9_2 C 0.0395(3) 0.2444(3) 0.3449(3)
H5_2 H 0.0622 0.2308 0.3128
C10_2 C 0.0802(3) 0.2794(3) 0.3988(3)
H6_2 H 0.1304 0.2892 0.4030
C11_2 C 0.0463(3) 0.3000(3) 0.4469(3)
H7_2 H 0.0736 0.3243 0.4824
C21_3 C 0.0641(2) 0.61867(19) 0.7253(3)
C22_3 C 0.0812(2) 0.58923(18) 0.6711(2)
H12_3 H 0.0461 0.5632 0.6432
C23_3 C 0.1501(2) 0.59923(18) 0.6596(2)
C24_3 C 0.1855(3) 0.66771(19) 0.7473(3)
H13_3 H 0.2203 0.6955 0.7724
C25_3 C 0.1180(3) 0.6587(2) 0.7631(3)
H14_3 H 0.1089 0.6795 0.7991
C26_3 C 0.1738(2) 0.56687(19) 0.6044(2)
O1_3 O 0.77621(17) 0.27165(13) 0.63594(16)
O2_3 O 0.7982(2) 0.19480(14) 0.57459(19)
O5_3 O 0.7883(2) 0.47095(17) 0.7372(2)
O6_3 O 0.88181(17) 0.44162(12) 0.69751(17)
N1_3 N 0.86759(19) 0.34400(15) 0.58985(17)
C1_3 C 0.8045(3) 0.24788(19) 0.5928(2)
C2_3 C 0.8545(2) 0.28821(17) 0.5637(2)
C3_3 C 0.8871(2) 0.26783(19) 0.5157(2)
H1_3 H 0.8764 0.2291 0.4981
C4_3 C 0.9359(2) 0.30497(19) 0.4934(2)
C5_3 C 0.9497(3) 0.36221(19) 0.5224(2)
H2_3 H 0.9828 0.3883 0.5099
C6_3 C 0.9143(2) 0.38042(19) 0.5699(2)
H3_3 H 0.9234 0.4190 0.5882
C7_3 C 0.9715(3) 0.2842(2) 0.4419(2)
C8_3 C 0.9307(2) 0.24928(19) 0.3871(2)
H4_3 H 0.8807 0.2391 0.3830
C12_3 C 0.9640(3) 0.2296(2) 0.3387(3)
C13_3 C 0.9190(3) 0.1956(2) 0.2780(3)
C14_3 C 0.8490(3) 0.4810(2) 0.7248(3)
C15_2 C 0.8872(3) 0.54096(19) 0.7407(3)
C16_2 C 0.9551(2) 0.55274(19) 0.7252(2)
H8_2 H 0.9755 0.5232 0.7037
C17_2 C 0.9922(3) 0.60744(19) 0.7412(3)
C18_2 C 0.9602(3) 0.6518(2) 0.7724(4)
H9_2 H 0.9843 0.6888 0.7834
C19_2 C 0.8918(4) 0.6408(2) 0.7873(4)
H10_2 H 0.8705 0.6705 0.8079
C20_2 C 0.8563(3) 0.5858(2) 0.7712(3)
H11_2 H 0.8109 0.5787 0.7810
O7_4 O 0.63202(17) 0.02703(14) 0.07098(17)
C15_3 C 0.3872(3) 0.04096(19) 0.2407(3)
C16_3 C 0.4551(2) 0.05274(19) 0.2252(2)
H8_3 H 0.4755 0.0232 0.2037
C17_3 C 0.4922(3) 0.10744(19) 0.2412(3)
C18_3 C 0.4602(3) 0.1518(2) 0.2724(4)
H9_3 H 0.4843 0.1888 0.2834
C19_3 C 0.3918(4) 0.1408(2) 0.2873(4)
H10_3 H 0.3705 0.1705 0.3079
C20_3 C 0.3563(3) 0.0858(2) 0.2712(3)
H11_3 H 0.3109 0.0787 0.2810
C21_4 C 0.5641(2) 0.11867(19) 0.2253(3)
C22_4 C 0.5812(2) 0.08923(18) 0.1711(2)
H12_4 H 0.5461 0.0632 0.1432
C23_4 C 0.6501(2) 0.09923(18) 0.1596(2)
C24_4 C 0.6855(3) 0.16771(19) 0.2473(3)
H13_4 H 0.7203 0.1955 0.2724
C25_4 C 0.6180(3) 0.1587(2) 0.2631(3)
H14_4 H 0.6089 0.1795 0.2991
C26_4 C 0.6738(2) 0.06687(19) 0.1044(2)
O1_4 O 0.27621(17) 0.77165(13) 0.13594(16)
O2_4 O 0.2982(2) 0.69480(14) 0.07459(19)
O5_4 O 0.2883(2) 0.97095(17) 0.2372(2)
O6_4 O 0.38181(17) 0.94162(12) 0.19751(17)
N1_4 N 0.36759(19) 0.84400(15) 0.08985(17)
C1_4 C 0.3045(3) 0.74788(19) 0.0928(2)
C2_4 C 0.3545(2) 0.78821(17) 0.0637(2)
C3_4 C 0.3871(2) 0.76783(19) 0.0157(2)
C5_4 C 0.4497(3) 0.86221(19) 0.0224(2)
H2_4 H 0.4828 0.8883 0.0099
C6_4 C 0.4143(2) 0.88042(19) 0.0699(2)
H3_4 H 0.4234 0.9190 0.0882
C14_4 C 0.3490(3) 0.9810(2) 0.2248(3)
H1_4 H 0.3764 0.7291 0.9981
C4_4 C 0.4359(2) 0.80497(19) 0.9934(2)
C7_4 C 0.4715(3) 0.7842(2) 0.9419(2)
C8_4 C 0.4307(2) 0.74928(19) 0.8871(2)
H4_4 H 0.3807 0.7391 0.8830
C9_3 C 0.5395(3) 0.7444(3) 0.8449(3)
H5_3 H 0.5622 0.7308 0.8128
C10_3 C 0.5802(3) 0.7794(3) 0.8988(3)
H6_3 H 0.6304 0.7892 0.9030
C11_3 C 0.5463(3) 0.8000(3) 0.9469(3)
H7_3 H 0.5736 0.8243 0.9824
C12_4 C 0.4640(3) 0.7296(2) 0.8387(3)
C13_4 C 0.4190(3) 0.6956(2) 0.7780(3)
In1_3 In 0.18561(2) 0.63866(2) 0.32539(2)
O1_5 O 0.22379(17) 0.72835(13) 0.36406(16)
O2_5 O 0.2018(2) 0.80520(14) 0.42541(19)
O3_3 O 0.14505(18) 0.82718(14) 0.72091(17)
O4_3 O 0.05952(19) 0.80787(15) 0.77371(17)
O5_5 O 0.2117(2) 0.52905(17) 0.2628(2)
O6_5 O 0.11819(17) 0.55838(12) 0.30249(17)
N1_5 N 0.13241(19) 0.65600(15) 0.41015(17)
C1_5 C 0.1955(3) 0.75212(19) 0.4072(2)
C2_5 C 0.1455(2) 0.71179(17) 0.4363(2)
C3_5 C 0.1129(2) 0.73217(19) 0.4843(2)
H1_5 H 0.1236 0.7709 0.5019
C4_5 C 0.0641(2) 0.69503(19) 0.5066(2)
C5_5 C 0.0503(3) 0.63779(19) 0.4776(2)
H2_5 H 0.0172 0.6117 0.4901
C6_5 C 0.0857(2) 0.61958(19) 0.4301(2)
H3_5 H 0.0766 0.5810 0.4118
C7_5 C 0.0285(3) 0.7158(2) 0.5581(2)
C8_5 C 0.0693(2) 0.75072(19) 0.6129(2)
H4_5 H 0.1193 0.7609 0.6170
C12_5 C 0.0360(3) 0.7704(2) 0.6613(3)
C13_5 C 0.0810(3) 0.8044(2) 0.7220(3)
C14_5 C 0.1510(3) 0.5190(2) 0.2752(3)
C15_4 C 0.1128(3) 0.45904(19) 0.2593(3)
C16_4 C 0.0449(2) 0.44726(19) 0.2748(2)
H8_4 H 0.0245 0.4768 0.2963
C17_4 C 0.0078(3) 0.39256(19) 0.2588(3)
C18_4 C 0.0398(3) 0.3482(2) 0.2276(4)
H9_4 H 0.0157 0.3112 0.2166
C19_4 C 0.1082(4) 0.3592(2) 0.2127(4)
H10_4 H 0.1295 0.3295 0.1921
C20_4 C 0.1437(3) 0.4142(2) 0.2288(3)
H11_4 H 0.1891 0.4213 0.2190
In3_2 In 0.18561(2) 0.86134(2) 0.82539(2)
O9_3 O 0.14505(18) 0.67282(14) 0.22091(17)
O10_3 O 0.05952(19) 0.69213(15) 0.27371(17)
O11_3 O 0.26425(16) 0.58377(14) 0.40526(15)
N3_3 N 0.29802(19) 0.63794(14) 0.30263(19)
O7_5 O 0.86798(17) 0.47297(14) 0.42902(17)
O8_3 O 0.76425(16) 0.41623(14) 0.40526(15)
N2_3 N 0.79802(19) 0.36206(14) 0.30263(19)
C9_4 C 0.9605(3) 0.7556(3) 0.6551(3)
H5_4 H 0.9378 0.7692 0.6872
C10_4 C 0.9198(3) 0.7206(3) 0.6012(3)
H6_4 H 0.8696 0.7108 0.5970
C11_4 C 0.9537(3) 0.7000(3) 0.5531(3)
H7_4 H 0.9264 0.6757 0.5176
C21_5 C 0.9359(2) 0.38133(19) 0.2747(3)
C22_5 C 0.9188(2) 0.41077(18) 0.3289(2)
H12_5 H 0.9539 0.4368 0.3568
C23_5 C 0.8499(2) 0.40077(18) 0.3404(2)
C24_5 C 0.8145(3) 0.33229(19) 0.2527(3)
H13_5 H 0.7797 0.3045 0.2276
C25_5 C 0.8820(3) 0.3413(2) 0.2369(3)
H14_5 H 0.8911 0.3205 0.2009
C26_5 C 0.8262(2) 0.43313(19) 0.3956(2)
In2_2 In 0.68561(2) 0.36134(2) 0.32539(2)
O3_4 O 0.64505(18) 0.32718(14) 0.22091(17)
O4_4 O 0.55952(19) 0.30787(15) 0.27371(17)
H1_6 H 0.6236 0.2709 0.0019
C4_6 C 0.5641(2) 0.19503(19) 0.0066(2)
C7_6 C 0.5285(3) 0.2158(2) 0.0581(2)
C8_6 C 0.5693(2) 0.25072(19) 0.1129(2)
H4_6 H 0.6193 0.2609 0.1170
C9_5 C 0.4605(3) 0.2556(3) 0.1551(3)
H5_5 H 0.4378 0.2692 0.1872
C10_5 C 0.4198(3) 0.2206(3) 0.1012(3)
H6_5 H 0.3696 0.2108 0.0970
C11_5 C 0.4537(3) 0.2000(3) 0.0531(3)
H7_5 H 0.4264 0.1757 0.0176
C12_6 C 0.5360(3) 0.2704(2) 0.1613(3)
C13_6 C 0.5810(3) 0.3044(2) 0.2220(3)
In1_4 In 0.68561(2) 0.13866(2) 0.82539(2)
O1_6 O 0.72379(17) 0.22835(13) 0.86406(16)
O2_6 O 0.7018(2) 0.30520(14) 0.92541(19)
O5_6 O 0.7117(2) 0.02905(17) 0.7628(2)
O6_6 O 0.61819(17) 0.05838(12) 0.80249(17)
N1_6 N 0.63241(19) 0.15600(15) 0.91015(17)
C1_6 C 0.6955(3) 0.25212(19) 0.9072(2)
C2_6 C 0.6455(2) 0.21179(17) 0.9363(2)
C3_6 C 0.6129(2) 0.23217(19) 0.9843(2)
C5_6 C 0.5503(3) 0.13779(19) 0.9776(2)
H2_6 H 0.5172 0.1117 0.9901
C6_6 C 0.5857(2) 0.11958(19) 0.9301(2)
H3_6 H 0.5766 0.0810 0.9118
C14_6 C 0.6510(3) 0.0190(2) 0.7752(3)
O9_4 O 0.64505(18) 0.17282(14) 0.72091(17)
O10_4 O 0.55952(19) 0.19213(15) 0.77371(17)
O11_4 O 0.76425(16) 0.08377(14) 0.90526(15)
N3_4 N 0.79802(19) 0.13794(14) 0.80263(19)
O7_6 O 0.36798(17) 0.97297(14) 0.92902(17)
O8_4 O 0.26425(16) 0.91623(14) 0.90526(15)
N2_4 N 0.29802(19) 0.86206(14) 0.80263(19)
C15_5 C 0.6128(3) 0.95904(19) 0.7593(3)
C16_5 C 0.5449(2) 0.94726(19) 0.7748(2)
H8_5 H 0.5245 0.9768 0.7963
C17_5 C 0.5078(3) 0.89256(19) 0.7588(3)
C18_5 C 0.5398(3) 0.8482(2) 0.7276(4)
H9_5 H 0.5157 0.8112 0.7166
C19_5 C 0.6082(4) 0.8592(2) 0.7127(4)
H10_5 H 0.6295 0.8295 0.6921
C20_5 C 0.6437(3) 0.9142(2) 0.7288(3)
H11_5 H 0.6891 0.9213 0.7190
C21_6 C 0.4359(2) 0.88133(19) 0.7747(3)
C22_6 C 0.4188(2) 0.91077(18) 0.8289(2)
H12_6 H 0.4539 0.9368 0.8568
C23_6 C 0.3499(2) 0.90077(18) 0.8404(2)
C24_6 C 0.3145(3) 0.83229(19) 0.7527(3)
H13_6 H 0.2797 0.8045 0.7276
C25_6 C 0.3820(3) 0.8413(2) 0.7369(3)
H14_6 H 0.3911 0.8205 0.7009
C26_6 C 0.3262(2) 0.93313(19) 0.8956(2)
O1_7 O 0.72379(17) 0.27165(13) 0.36406(16)
O2_7 O 0.7018(2) 0.19480(14) 0.42541(19)
O5_7 O 0.7117(2) 0.47095(17) 0.2628(2)
O6_7 O 0.61819(17) 0.44162(12) 0.30249(17)
O7_7 O 0.36798(17) 0.52703(14) 0.42902(17)
N1_7 N 0.63241(19) 0.34400(15) 0.41015(17)
C1_7 C 0.6955(3) 0.24788(19) 0.4072(2)
C2_7 C 0.6455(2) 0.28821(17) 0.4363(2)
C3_7 C 0.6129(2) 0.26783(19) 0.4843(2)
H1_7 H 0.6236 0.2291 0.5019
C4_7 C 0.5641(2) 0.30497(19) 0.5066(2)
C5_7 C 0.5503(3) 0.36221(19) 0.4776(2)
H2_7 H 0.5172 0.3883 0.4901
C6_7 C 0.5857(2) 0.38042(19) 0.4301(2)
H3_7 H 0.5766 0.4190 0.4118
C7_7 C 0.5285(3) 0.2842(2) 0.5581(2)
C8_7 C 0.5693(2) 0.24928(19) 0.6129(2)
H4_7 H 0.6193 0.2391 0.6170
C9_6 C 0.4605(3) 0.2444(3) 0.6551(3)
H5_6 H 0.4378 0.2308 0.6872
C10_6 C 0.4198(3) 0.2794(3) 0.6012(3)
H6_6 H 0.3696 0.2892 0.5970
C11_6 C 0.4537(3) 0.3000(3) 0.5531(3)
H7_6 H 0.4264 0.3243 0.5176
C12_7 C 0.5360(3) 0.2296(2) 0.6613(3)
C13_7 C 0.5810(3) 0.1956(2) 0.7220(3)
C14_7 C 0.6510(3) 0.4810(2) 0.2752(3)
C15_6 C 0.6128(3) 0.54096(19) 0.2593(3)
C16_6 C 0.5449(2) 0.55274(19) 0.2748(2)
H8_6 H 0.5245 0.5232 0.2963
C17_6 C 0.5078(3) 0.60744(19) 0.2588(3)
C18_6 C 0.5398(3) 0.6518(2) 0.2276(4)
H9_6 H 0.5157 0.6888 0.2166
C19_6 C 0.6082(4) 0.6408(2) 0.2127(4)
H10_6 H 0.6295 0.6705 0.1921
C20_6 C 0.6437(3) 0.5858(2) 0.2288(3)
H11_6 H 0.6891 0.5787 0.2190
C21_7 C 0.4359(2) 0.61867(19) 0.2747(3)
C22_7 C 0.4188(2) 0.58923(18) 0.3289(2)
H12_7 H 0.4539 0.5632 0.3568
C23_7 C 0.3499(2) 0.59923(18) 0.3404(2)
C24_7 C 0.3145(3) 0.66771(19) 0.2527(3)
H13_7 H 0.2797 0.6955 0.2276
C25_7 C 0.3820(3) 0.6587(2) 0.2369(3)
H14_7 H 0.3911 0.6795 0.2009
C26_7 C 0.3262(2) 0.56687(19) 0.3956(2)
H1_8 H 0.1236 0.7291 0.0019
C4_8 C 0.0641(2) 0.80497(19) 0.0066(2)
C7_8 C 0.0285(3) 0.7842(2) 0.0581(2)
C8_8 C 0.0693(2) 0.74928(19) 0.1129(2)
H4_8 H 0.1193 0.7391 0.1170
C12_8 C 0.0360(3) 0.7296(2) 0.1613(3)
C13_8 C 0.0810(3) 0.6956(2) 0.2220(3)
O1_8 O 0.22379(17) 0.77165(13) 0.86406(16)
O2_8 O 0.2018(2) 0.69480(14) 0.92541(19)
O5_8 O 0.2117(2) 0.97095(17) 0.7628(2)
O6_8 O 0.11819(17) 0.94162(12) 0.80249(17)
N1_8 N 0.13241(19) 0.84400(15) 0.91015(17)
C1_8 C 0.1955(3) 0.74788(19) 0.9072(2)
C2_8 C 0.1455(2) 0.78821(17) 0.9363(2)
C3_8 C 0.1129(2) 0.76783(19) 0.9843(2)
C5_8 C 0.0503(3) 0.86221(19) 0.9776(2)
H2_8 H 0.0172 0.8883 0.9901
C6_8 C 0.0857(2) 0.88042(19) 0.9301(2)
H3_8 H 0.0766 0.9190 0.9118
C14_8 C 0.1510(3) 0.9810(2) 0.7752(3)
O7_8 O 0.86798(17) 0.02703(14) 0.92902(17)
C21_8 C 0.9359(2) 0.11867(19) 0.7747(3)
C22_8 C 0.9188(2) 0.08923(18) 0.8289(2)
H12_8 H 0.9539 0.0632 0.8568
C23_8 C 0.8499(2) 0.09923(18) 0.8404(2)
C24_8 C 0.8145(3) 0.16771(19) 0.7527(3)
H13_8 H 0.7797 0.1955 0.7276
C25_8 C 0.8820(3) 0.1587(2) 0.7369(3)
H14_8 H 0.8911 0.1795 0.7009
C26_8 C 0.8262(2) 0.06687(19) 0.8956(2)
C9_7 C 0.0395(3) 0.2556(3) 0.8449(3)
H5_7 H 0.0622 0.2692 0.8128
C10_7 C 0.0802(3) 0.2206(3) 0.8988(3)
H6_7 H 0.1304 0.2108 0.9030
C11_7 C 0.0463(3) 0.2000(3) 0.9469(3)
H7_7 H 0.0736 0.1757 0.9824
C15_7 C 0.8872(3) 0.95904(19) 0.2407(3)
C16_7 C 0.9551(2) 0.94726(19) 0.2252(2)
H8_7 H 0.9755 0.9768 0.2037
C17_7 C 0.9922(3) 0.89256(19) 0.2412(3)
C18_7 C 0.9602(3) 0.8482(2) 0.2724(4)
H9_7 H 0.9843 0.8112 0.2834
C19_7 C 0.8918(4) 0.8592(2) 0.2873(4)
H10_7 H 0.8705 0.8295 0.3079
C20_7 C 0.8563(3) 0.9142(2) 0.2712(3)
H11_7 H 0.8109 0.9213 0.2810
C15_8 C 0.1128(3) 0.04096(19) 0.7593(3)
C16_8 C 0.0449(2) 0.05274(19) 0.7748(2)
H8_8 H 0.0245 0.0232 0.7963
C17_8 C 0.0078(3) 0.10744(19) 0.7588(3)
C18_8 C 0.0398(3) 0.1518(2) 0.7276(4)
H9_8 H 0.0157 0.1888 0.7166
C19_8 C 0.1082(4) 0.1408(2) 0.7127(4)
H10_8 H 0.1295 0.1705 0.6921
C20_8 C 0.1437(3) 0.0858(2) 0.7288(3)
H11_8 H 0.1891 0.0787 0.7190
C9_8 C 0.9605(3) 0.7444(3) 0.1551(3)
H5_8 H 0.9378 0.7308 0.1872
C10_8 C 0.9198(3) 0.7794(3) 0.1012(3)
H6_8 H 0.8696 0.7892 0.0970
C11_8 C 0.9537(3) 0.8000(3) 0.0531(3)
H7_8 H 0.9264 0.8243 0.0176
loop_
_geom_bond_atom_site_label_1
_geom_bond_atom_site_label_2
_geom_bond_site_symmetry_1
_geom_bond_site_symmetry_2
In1 O1 1_555 1_555
O1 C1 1_555 1_555
O2 C1 1_555 1_555
O3 C13 1_555 1_555
O4 C13 1_555 1_555
O5 C14 1_555 1_555
O6 In1 1_555 1_555
O7 C26 1_555 1_555
O8 C26 1_555 1_555
N1 In1 1_555 1_555
N2 C23 1_555 1_555
C1 C2 1_555 1_555
C2 N1 1_555 1_555
C3 C2 1_555 1_555
H1 C3 1_555 1_555
C4 C3 1_555 1_555
C5 C4 1_555 1_555
H2 C5 1_555 1_555
C6 N1 1_555 1_555
H3 C6 1_555 1_555
C7 C4 1_555 1_555
C8 C7 1_555 1_555
H4 C8 1_555 1_555
C9 H5 1_555 1_555
C10 C9 1_555 1_555
H6 C10 1_555 1_555
C11 C7 1_555 1_555
H7 C11 1_555 1_555
C12 C8 1_555 1_555
C13 C12 1_555 1_555
C14 O6 1_555 1_555
C15 C14 1_555 1_555
C16 C15 1_555 1_555
H8 C16 1_555 1_555
C17 C16 1_555 1_555
C18 C17 1_555 1_555
H9 C18 1_555 1_555
C19 C18 1_555 1_555
H10 C19 1_555 1_555
C20 C15 1_555 1_555
H11 C20 1_555 1_555
C21 C17 1_555 1_555
C22 C21 1_555 1_555
H12 C22 1_555 1_555
C23 C22 1_555 1_555
C24 N2 1_555 1_555
H13 C24 1_555 1_555
C25 C21 1_555 1_555
H14 C25 1_555 1_555
C26 C23 1_555 1_555
In2 O8 1_555 1_555
In3 O3 1_555 1_555
O9 In1 1_555 1_555
O10 In1 1_555 1_555
O11 In1 1_555 1_555
N3 In1 1_555 1_555
O4 In3 1_555 1_555
N2 In2 1_555 1_555
C5 C6 1_555 1_555
C9 C12 1_555 1_555
C10 C11 1_555 1_555
C19 C20 1_555 1_555
C24 C25 1_555 1_555
O7_2 C26_2 1_555 1_555
O8_2 C26_2 1_555 1_555
N2_2 C23_2 1_555 1_555
C22_2 C21_2 1_555 1_555
H12_2 C22_2 1_555 1_555
C23_2 C22_2 1_555 1_555
C24_2 N2_2 1_555 1_555
H13_2 C24_2 1_555 1_555
C25_2 C21_2 1_555 1_555
H14_2 C25_2 1_555 1_555
C26_2 C23_2 1_555 1_555
In3 O8_2 1_555 1_555
N2_2 In3 1_555 1_555
C24_2 C25_2 1_555 1_555
In1_2 O1_2 1_555 1_555
O1_2 C1_2 1_555 1_555
O2_2 C1_2 1_555 1_555
O5_2 C14_2 1_555 1_555
O6_2 In1_2 1_555 1_555
N1_2 In1_2 1_555 1_555
C1_2 C2_2 1_555 1_555
C2_2 N1_2 1_555 1_555
C3_2 C2_2 1_555 1_555
H2_2 C5_2 1_555 1_555
C6_2 N1_2 1_555 1_555
H3_2 C6_2 1_555 1_555
C14_2 O6_2 1_555 1_555
O9_2 In1_2 1_555 1_555
O10_2 In1_2 1_555 1_555
O11_2 In1_2 1_555 1_555
N3_2 In1_2 1_555 1_555
C5_2 C6_2 1_555 1_555
O3_2 C13_2 1_555 1_555
O4_2 C13_2 1_555 1_555
C7_2 C4_2 1_555 1_555
C8_2 C7_2 1_555 1_555
H4_2 C8_2 1_555 1_555
C12_2 C8_2 1_555 1_555
C13_2 C12_2 1_555 1_555
In2 O3_2 1_555 1_555
O4_2 In2 1_555 1_555
O7_3 C26_3 1_555 1_555
O11 C26_3 1_555 1_555
N3 C23_3 1_555 1_555
C9_2 H5_2 1_555 1_555
C10_2 C9_2 1_555 1_555
H6_2 C10_2 1_555 1_555
H7_2 C11_2 1_555 1_555
C22_3 C21_3 1_555 1_555
H12_3 C22_3 1_555 1_555
C23_3 C22_3 1_555 1_555
C24_3 N3 1_555 1_555
H13_3 C24_3 1_555 1_555
C25_3 C21_3 1_555 1_555
H14_3 C25_3 1_555 1_555
C26_3 C23_3 1_555 1_555
C10_2 C11_2 1_555 1_555
C24_3 C25_3 1_555 1_555
In2 O1_3 1_555 1_555
O1_3 C1_3 1_555 1_555
O2_3 C1_3 1_555 1_555
O9_2 C13_3 1_555 1_555
O10_2 C13_3 1_555 1_555
O5_3 C14_3 1_555 1_555
O6_3 In2 1_555 1_555
N1_3 In2 1_555 1_555
C1_3 C2_3 1_555 1_555
C2_3 N1_3 1_555 1_555
C3_3 C2_3 1_555 1_555
H1_3 C3_3 1_555 1_555
C4_3 C3_3 1_555 1_555
C5_3 C4_3 1_555 1_555
H2_3 C5_3 1_555 1_555
C6_3 N1_3 1_555 1_555
H3_3 C6_3 1_555 1_555
C7_3 C4_3 1_555 1_555
C8_3 C7_3 1_555 1_555
H4_3 C8_3 1_555 1_555
C12_3 C8_3 1_555 1_555
C13_3 C12_3 1_555 1_555
C14_3 O6_3 1_555 1_555
C15_2 C14_3 1_555 1_555
C16_2 C15_2 1_555 1_555
H8_2 C16_2 1_555 1_555
C17_2 C16_2 1_555 1_555
C18_2 C17_2 1_555 1_555
H9_2 C18_2 1_555 1_555
C19_2 C18_2 1_555 1_555
H10_2 C19_2 1_555 1_555
C20_2 C15_2 1_555 1_555
H11_2 C20_2 1_555 1_555
C5_3 C6_3 1_555 1_555
C19_2 C20_2 1_555 1_555
O7_4 C26_4 1_555 1_555
O11_2 C26_4 1_555 1_555
N3_2 C23_4 1_555 1_555
C16_3 C15_3 1_555 1_555
H8_3 C16_3 1_555 1_555
C17_3 C16_3 1_555 1_555
C18_3 C17_3 1_555 1_555
H9_3 C18_3 1_555 1_555
C19_3 C18_3 1_555 1_555
H10_3 C19_3 1_555 1_555
C20_3 C15_3 1_555 1_555
H11_3 C20_3 1_555 1_555
C21_4 C17_3 1_555 1_555
C22_4 C21_4 1_555 1_555
H12_4 C22_4 1_555 1_555
C23_4 C22_4 1_555 1_555
C24_4 N3_2 1_555 1_555
H13_4 C24_4 1_555 1_555
C25_4 C21_4 1_555 1_555
H14_4 C25_4 1_555 1_555
C26_4 C23_4 1_555 1_555
C19_3 C20_3 1_555 1_555
C24_4 C25_4 1_555 1_555
In3 O1_4 1_555 1_555
O1_4 C1_4 1_555 1_555
O2_4 C1_4 1_555 1_555
O5_4 C14_4 1_555 1_555
O6_4 In3 1_555 1_555
N1_4 In3 1_555 1_555
C1_4 C2_4 1_555 1_555
C2_4 N1_4 1_555 1_555
C3_4 C2_4 1_555 1_555
H2_4 C5_4 1_555 1_555
C6_4 N1_4 1_555 1_555
H3_4 C6_4 1_555 1_555
C14_4 O6_4 1_555 1_555
C5_4 C6_4 1_555 1_555
O9 C13_4 1_555 1_555
O10 C13_4 1_555 1_555
C7_4 C4_4 1_555 1_555
C8_4 C7_4 1_555 1_555
H4_4 C8_4 1_555 1_555
C9_3 H5_3 1_555 1_555
C10_3 C9_3 1_555 1_555
H6_3 C10_3 1_555 1_555
C11_3 C7_4 1_555 1_555
H7_3 C11_3 1_555 1_555
C12_4 C8_4 1_555 1_555
C13_4 C12_4 1_555 1_555
C9_3 C12_4 1_555 1_555
C10_3 C11_3 1_555 1_555
In1_3 O1_5 1_555 1_555
O1_5 C1_5 1_555 1_555
O2_5 C1_5 1_555 1_555
O3_3 C13_5 1_555 1_555
O4_3 C13_5 1_555 1_555
O5_5 C14_5 1_555 1_555
O6_5 In1_3 1_555 1_555
N1_5 In1_3 1_555 1_555
C1_5 C2_5 1_555 1_555
C2_5 N1_5 1_555 1_555
C3_5 C2_5 1_555 1_555
H1_5 C3_5 1_555 1_555
C4_5 C3_5 1_555 1_555
C5_5 C4_5 1_555 1_555
H2_5 C5_5 1_555 1_555
C6_5 N1_5 1_555 1_555
H3_5 C6_5 1_555 1_555
C7_5 C4_5 1_555 1_555
C8_5 C7_5 1_555 1_555
H4_5 C8_5 1_555 1_555
C12_5 C8_5 1_555 1_555
C13_5 C12_5 1_555 1_555
C14_5 O6_5 1_555 1_555
C15_4 C14_5 1_555 1_555
C16_4 C15_4 1_555 1_555
H8_4 C16_4 1_555 1_555
C17_4 C16_4 1_555 1_555
C18_4 C17_4 1_555 1_555
H9_4 C18_4 1_555 1_555
C19_4 C18_4 1_555 1_555
H10_4 C19_4 1_555 1_555
C20_4 C15_4 1_555 1_555
H11_4 C20_4 1_555 1_555
In3_2 O3_3 1_555 1_555
O9_3 In1_3 1_555 1_555
O10_3 In1_3 1_555 1_555
O11_3 In1_3 1_555 1_555
N3_3 In1_3 1_555 1_555
O4_3 In3_2 1_555 1_555
C5_5 C6_5 1_555 1_555
C19_4 C20_4 1_555 1_555
O7_5 C26_5 1_555 1_555
O8_3 C26_5 1_555 1_555
N2_3 C23_5 1_555 1_555
C9_4 H5_4 1_555 1_555
C10_4 C9_4 1_555 1_555
H6_4 C10_4 1_555 1_555
H7_4 C11_4 1_555 1_555
C22_5 C21_5 1_555 1_555
H12_5 C22_5 1_555 1_555
C23_5 C22_5 1_555 1_555
C24_5 N2_3 1_555 1_555
H13_5 C24_5 1_555 1_555
C25_5 C21_5 1_555 1_555
H14_5 C25_5 1_555 1_555
C26_5 C23_5 1_555 1_555
In2_2 O8_3 1_555 1_555
N2_3 In2_2 1_555 1_555
C10_4 C11_4 1_555 1_555
C24_5 C25_5 1_555 1_555
O3_4 C13_6 1_555 1_555
O4_4 C13_6 1_555 1_555
C7_6 C4_6 1_555 1_555
C8_6 C7_6 1_555 1_555
H4_6 C8_6 1_555 1_555
C9_5 H5_5 1_555 1_555
C10_5 C9_5 1_555 1_555
H6_5 C10_5 1_555 1_555
C11_5 C7_6 1_555 1_555
H7_5 C11_5 1_555 1_555
C12_6 C8_6 1_555 1_555
C13_6 C12_6 1_555 1_555
In2_2 O3_4 1_555 1_555
O4_4 In2_2 1_555 1_555
C9_5 C12_6 1_555 1_555
C10_5 C11_5 1_555 1_555
In1_4 O1_6 1_555 1_555
O1_6 C1_6 1_555 1_555
O2_6 C1_6 1_555 1_555
O5_6 C14_6 1_555 1_555
O6_6 In1_4 1_555 1_555
N1_6 In1_4 1_555 1_555
C1_6 C2_6 1_555 1_555
C2_6 N1_6 1_555 1_555
C3_6 C2_6 1_555 1_555
H2_6 C5_6 1_555 1_555
C6_6 N1_6 1_555 1_555
H3_6 C6_6 1_555 1_555
C14_6 O6_6 1_555 1_555
O9_4 In1_4 1_555 1_555
O10_4 In1_4 1_555 1_555
O11_4 In1_4 1_555 1_555
N3_4 In1_4 1_555 1_555
C5_6 C6_6 1_555 1_555
O7_6 C26_6 1_555 1_555
O8_4 C26_6 1_555 1_555
N2_4 C23_6 1_555 1_555
C16_5 C15_5 1_555 1_555
H8_5 C16_5 1_555 1_555
C17_5 C16_5 1_555 1_555
C18_5 C17_5 1_555 1_555
H9_5 C18_5 1_555 1_555
C19_5 C18_5 1_555 1_555
H10_5 C19_5 1_555 1_555
C20_5 C15_5 1_555 1_555
H11_5 C20_5 1_555 1_555
C21_6 C17_5 1_555 1_555
C22_6 C21_6 1_555 1_555
H12_6 C22_6 1_555 1_555
C23_6 C22_6 1_555 1_555
C24_6 N2_4 1_555 1_555
H13_6 C24_6 1_555 1_555
C25_6 C21_6 1_555 1_555
H14_6 C25_6 1_555 1_555
C26_6 C23_6 1_555 1_555
In3_2 O8_4 1_555 1_555
N2_4 In3_2 1_555 1_555
C19_5 C20_5 1_555 1_555
C24_6 C25_6 1_555 1_555
In2_2 O1_7 1_555 1_555
O1_7 C1_7 1_555 1_555
O2_7 C1_7 1_555 1_555
O9_4 C13_7 1_555 1_555
O10_4 C13_7 1_555 1_555
O5_7 C14_7 1_555 1_555
O6_7 In2_2 1_555 1_555
O7_7 C26_7 1_555 1_555
O11_3 C26_7 1_555 1_555
N1_7 In2_2 1_555 1_555
N3_3 C23_7 1_555 1_555
C1_7 C2_7 1_555 1_555
C2_7 N1_7 1_555 1_555
C3_7 C2_7 1_555 1_555
H1_7 C3_7 1_555 1_555
C4_7 C3_7 1_555 1_555
C5_7 C4_7 1_555 1_555
H2_7 C5_7 1_555 1_555
C6_7 N1_7 1_555 1_555
H3_7 C6_7 1_555 1_555
C7_7 C4_7 1_555 1_555
C8_7 C7_7 1_555 1_555
H4_7 C8_7 1_555 1_555
C9_6 H5_6 1_555 1_555
C10_6 C9_6 1_555 1_555
H6_6 C10_6 1_555 1_555
C11_6 C7_7 1_555 1_555
H7_6 C11_6 1_555 1_555
C12_7 C8_7 1_555 1_555
C13_7 C12_7 1_555 1_555
C14_7 O6_7 1_555 1_555
C15_6 C14_7 1_555 1_555
C16_6 C15_6 1_555 1_555
H8_6 C16_6 1_555 1_555
C17_6 C16_6 1_555 1_555
C18_6 C17_6 1_555 1_555
H9_6 C18_6 1_555 1_555
C19_6 C18_6 1_555 1_555
H10_6 C19_6 1_555 1_555
C20_6 C15_6 1_555 1_555
H11_6 C20_6 1_555 1_555
C21_7 C17_6 1_555 1_555
C22_7 C21_7 1_555 1_555
H12_7 C22_7 1_555 1_555
C23_7 C22_7 1_555 1_555
C24_7 N3_3 1_555 1_555
H13_7 C24_7 1_555 1_555
C25_7 C21_7 1_555 1_555
H14_7 C25_7 1_555 1_555
C26_7 C23_7 1_555 1_555
C5_7 C6_7 1_555 1_555
C9_6 C12_7 1_555 1_555
C10_6 C11_6 1_555 1_555
C19_6 C20_6 1_555 1_555
C24_7 C25_7 1_555 1_555
O9_3 C13_8 1_555 1_555
O10_3 C13_8 1_555 1_555
C7_8 C4_8 1_555 1_555
C8_8 C7_8 1_555 1_555
H4_8 C8_8 1_555 1_555
C12_8 C8_8 1_555 1_555
C13_8 C12_8 1_555 1_555
In3_2 O1_8 1_555 1_555
O1_8 C1_8 1_555 1_555
O2_8 C1_8 1_555 1_555
O5_8 C14_8 1_555 1_555
O6_8 In3_2 1_555 1_555
N1_8 In3_2 1_555 1_555
C1_8 C2_8 1_555 1_555
C2_8 N1_8 1_555 1_555
C3_8 C2_8 1_555 1_555
H2_8 C5_8 1_555 1_555
C6_8 N1_8 1_555 1_555
H3_8 C6_8 1_555 1_555
C14_8 O6_8 1_555 1_555
C5_8 C6_8 1_555 1_555
O7_8 C26_8 1_555 1_555
O11_4 C26_8 1_555 1_555
N3_4 C23_8 1_555 1_555
C22_8 C21_8 1_555 1_555
H12_8 C22_8 1_555 1_555
C23_8 C22_8 1_555 1_555
C24_8 N3_4 1_555 1_555
H13_8 C24_8 1_555 1_555
C25_8 C21_8 1_555 1_555
H14_8 C25_8 1_555 1_555
C26_8 C23_8 1_555 1_555
C24_8 C25_8 1_555 1_555
C9_7 H5_7 1_555 1_555
C10_7 C9_7 1_555 1_555
H6_7 C10_7 1_555 1_555
H7_7 C11_7 1_555 1_555
C10_7 C11_7 1_555 1_555
C16_7 C15_7 1_555 1_555
H8_7 C16_7 1_555 1_555
C17_7 C16_7 1_555 1_555
C18_7 C17_7 1_555 1_555
H9_7 C18_7 1_555 1_555
C19_7 C18_7 1_555 1_555
H10_7 C19_7 1_555 1_555
C20_7 C15_7 1_555 1_555
H11_7 C20_7 1_555 1_555
C19_7 C20_7 1_555 1_555
C16_8 C15_8 1_555 1_555
H8_8 C16_8 1_555 1_555
C17_8 C16_8 1_555 1_555
C18_8 C17_8 1_555 1_555
H9_8 C18_8 1_555 1_555
C19_8 C18_8 1_555 1_555
H10_8 C19_8 1_555 1_555
C20_8 C15_8 1_555 1_555
H11_8 C20_8 1_555 1_555
C19_8 C20_8 1_555 1_555
C9_8 H5_8 1_555 1_555
C10_8 C9_8 1_555 1_555
H6_8 C10_8 1_555 1_555
H7_8 C11_8 1_555 1_555
C10_8 C11_8 1_555 1_555

#END
