
###############################################################################
#
# This file contains modified crystal structure data generated from the
# MOF subset of the Cambridge Structural Database (CSD) v543 
# hosted by the Cambridge Crystallographic Data Centre (CCDC).
#
# This work is licensed under the Creative Commons
# Attribution-NonCommercial-ShareAlike 4.0 International License.
# To view a copy of this license, visit
# http://creativecommons.org/licenses/by-nc-sa/4.0/
# or send a letter to
# Creative Commons, PO Box 1866, Mountain View, CA 94042, USA.
#
# CIF created using the CSD Python API on 29 September 2022
# The structure has been converted into the P1 space group
# The structure has a 3D framework
# The original CSD entry QODJIF is in the orthorhombic crystal system
# The framework has been calculated to contain at least 10.0% void space
# The void calculation uses a probe of radius 1.32A, grid spacing 0.4
#
###############################################################################

data_QODJIF
_chemical_formula_moiety         '(C192 H128 N48 O32 Zn16)n'
_symmetry_cell_setting           triclinic
_symmetry_space_group_name_H-M   'P 1'
_symmetry_Int_Tables_number      1
_space_group_name_Hall           'P 1'
loop_
_symmetry_equiv_pos_site_id
_symmetry_equiv_pos_as_xyz
1 x,y,z
_cell_length_a                   14.8436(5)
_cell_length_b                   27.5747(8)
_cell_length_c                   16.3246(5)
_cell_angle_alpha                90
_cell_angle_beta                 90
_cell_angle_gamma                90
_cell_volume                     6681.79
loop_
_atom_site_label
_atom_site_type_symbol
_atom_site_fract_x
_atom_site_fract_y
_atom_site_fract_z
Zn1 Zn 0.45340(4) 0.39700(2) 0.17137(4)
Zn2 Zn 0.54651(4) 0.29141(2) 0.28463(4)
O1 O 0.4901(5) 0.4676(2) 0.1604(4)
O2 O 0.3494(5) 0.4709(2) 0.2045(4)
O3 O 0.5002(5) 0.72265(18) 0.1657(4)
O4 O 0.3942(5) 0.72056(18) 0.2549(4)
N1 N 0.4040(3) 0.36840(15) 0.2752(3)
N2 N 0.4270(3) 0.32391(15) 0.3057(3)
N3 N 0.1278(3) 0.38203(16) 0.5742(3)
N4 N 0.5671(3) 0.36264(16) 0.1450(3)
N5 N 0.6049(3) 0.32597(15) 0.1899(3)
C1 C 0.3754(3) 0.3153(2) 0.3708(3)
H1 H 0.3775 0.2875 0.4030
C2 C 0.3166(4) 0.35526(19) 0.3834(3)
C3 C 0.3392(4) 0.3866(2) 0.3205(3)
H2 H 0.3121 0.4165 0.3115
C4 C 0.1636(4) 0.4174(2) 0.5294(4)
H3 H 0.1467 0.4492 0.5409
C5 C 0.2245(4) 0.4096(2) 0.4667(4)
H4 H 0.2476 0.4357 0.4374
C6 C 0.2507(4) 0.36322(19) 0.4479(3)
C7 C 0.2104(4) 0.3254(2) 0.4926(4)
H5 H 0.2240 0.2932 0.4807
C8 C 0.1506(4) 0.33653(19) 0.5541(4)
H6 H 0.1247 0.3112 0.5833
C9 C 0.6787(4) 0.3116(2) 0.1503(3)
H7 H 0.7179 0.2878 0.1689
C10 C 0.6892(4) 0.33703(19) 0.0777(3)
C11 C 0.6163(4) 0.3688(2) 0.0782(4)
H8 H 0.6039 0.3913 0.0373
C14 C 0.7560(4) 0.32926(19) 0.0140(3)
C15 C 0.8337(4) 0.3013(2) 0.0243(3)
H11 H 0.8478 0.2889 0.0757
C17 C 0.4253(8) 0.4890(4) 0.1864(7)
C18 C 0.4458(7) 0.6988(3) 0.2081(7)
C19 C 0.4357(5) 0.5454(2) 0.1885(4)
C20 C 0.4920(5) 0.5719(2) 0.1377(5)
H13 H 0.5277 0.5560 0.0995
C21 C 0.4953(4) 0.6218(2) 0.1436(4)
H14 H 0.5324 0.6394 0.1087
C22 C 0.4435(4) 0.6455(2) 0.2014(4)
C23 C 0.3896(5) 0.6177(2) 0.2522(4)
H15 H 0.3562 0.6330 0.2928
C24 C 0.3842(6) 0.5693(2) 0.2446(4)
H16 H 0.3450 0.5520 0.2779
Zn3 Zn 0.04660(4) 0.39700(2) 0.67137(4)
Zn4 Zn 0.45349(4) 0.79141(2) 0.21537(4)
O5 O 0.4998(5) 0.22265(18) 0.3343(4)
O6 O 0.6058(5) 0.22056(18) 0.2451(4)
N7 N 0.3722(3) 0.38203(16) 0.0742(3)
N8 N 0.6260(3) 0.30920(17) 0.3835(3)
N6 N 0.8740(3) 0.30920(17) 0.8835(3)
C12 C 0.8005(4) 0.3374(2) 0.8731(3)
H9 H 0.7893 0.3502 0.8214
C13 C 0.7425(4) 0.3478(2) 0.9345(4)
H10 H 0.6929 0.3676 0.9241
C16 C 0.8898(4) 0.2919(2) 0.9581(4)
H12 H 0.9405 0.2727 0.9664
Zn5 Zn 0.95349(4) 0.29141(2) 0.78463(4)
C18_2 C 0.5542(7) 0.1988(3) 0.2919(7)
C19_2 C 0.5643(5) 0.0454(2) 0.3115(4)
C20_2 C 0.5080(5) 0.0719(2) 0.3623(5)
H13_2 H 0.4723 0.0560 0.4005
C21_2 C 0.5047(4) 0.1218(2) 0.3564(4)
H14_2 H 0.4676 0.1394 0.3913
C22_2 C 0.5565(4) 0.1455(2) 0.2986(4)
C23_2 C 0.6104(5) 0.1177(2) 0.2478(4)
H15_2 H 0.6438 0.1330 0.2072
C24_2 C 0.6158(6) 0.0693(2) 0.2554(4)
H16_2 H 0.6550 0.0520 0.2221
Zn1_2 Zn 0.54660(4) 0.89700(2) 0.32863(4)
O1_2 O 0.5099(5) 0.9676(2) 0.3396(4)
O2_2 O 0.6506(5) 0.9709(2) 0.2955(4)
N1_2 N 0.5960(3) 0.86840(15) 0.2248(3)
N2_2 N 0.5730(3) 0.82391(15) 0.1943(3)
N4_2 N 0.4329(3) 0.86264(16) 0.3550(3)
N5_2 N 0.3951(3) 0.82597(15) 0.3101(3)
N6_2 N 0.1260(3) 0.80920(17) 0.6165(3)
C1_2 C 0.6246(3) 0.8153(2) 0.1292(3)
H1_2 H 0.6225 0.7875 0.0970
C2_2 C 0.6834(4) 0.85526(19) 0.1166(3)
C3_2 C 0.6608(4) 0.8866(2) 0.1795(3)
H2_2 H 0.6879 0.9165 0.1885
C5_2 C 0.7755(4) 0.9096(2) 0.0333(4)
H4_2 H 0.7524 0.9357 0.0626
C6_2 C 0.7493(4) 0.86322(19) 0.0521(3)
C7_2 C 0.7896(4) 0.8254(2) 0.0074(4)
H5_2 H 0.7760 0.7932 0.0193
C9_2 C 0.3213(4) 0.8116(2) 0.3497(3)
H7_2 H 0.2821 0.7878 0.3311
C10_2 C 0.3108(4) 0.83703(19) 0.4223(3)
C11_2 C 0.3837(4) 0.8688(2) 0.4218(4)
H8_2 H 0.3961 0.8913 0.4627
C12_2 C 0.1995(4) 0.8374(2) 0.6269(3)
H9_2 H 0.2107 0.8502 0.6786
C13_2 C 0.2575(4) 0.8478(2) 0.5655(4)
H10_2 H 0.3071 0.8676 0.5759
C14_2 C 0.2440(4) 0.82926(19) 0.4860(3)
C15_2 C 0.1663(4) 0.8013(2) 0.4757(3)
H11_2 H 0.1522 0.7889 0.4243
C16_2 C 0.1102(4) 0.7919(2) 0.5419(4)
H12_2 H 0.0595 0.7727 0.5336
C17_2 C 0.5747(8) 0.9890(4) 0.3136(7)
Zn5_2 Zn 0.04651(4) 0.79141(2) 0.71537(4)
N7_2 N 0.6278(3) 0.88203(16) 0.4258(3)
N8_2 N 0.3740(3) 0.80920(17) 0.1165(3)
N3_2 N 0.8722(3) 0.88203(16) 0.9258(3)
C4_2 C 0.8364(4) 0.9174(2) 0.9706(4)
H3_2 H 0.8533 0.9492 0.9591
C8_2 C 0.8494(4) 0.83653(19) 0.9459(4)
H6_2 H 0.8753 0.8112 0.9167
Zn3_2 Zn 0.95340(4) 0.89700(2) 0.82863(4)
O3_2 O 0.0002(5) 0.22265(18) 0.8343(4)
H13_3 H 0.0277 0.0560 0.9005
H14_3 H 0.0324 0.1394 0.8913
C12_3 C 0.3005(4) 0.8374(2) 0.1269(3)
H9_3 H 0.2893 0.8502 0.1786
C13_3 C 0.2425(4) 0.8478(2) 0.0655(4)
H10_3 H 0.1929 0.8676 0.0759
C16_3 C 0.3898(4) 0.7919(2) 0.0419(4)
H12_3 H 0.4405 0.7727 0.0336
N4_3 N 0.0671(3) 0.86264(16) 0.8550(3)
N5_3 N 0.1049(3) 0.82597(15) 0.8101(3)
C9_3 C 0.1787(4) 0.8116(2) 0.8497(3)
H7_3 H 0.2179 0.7878 0.8311
C10_3 C 0.1892(4) 0.83703(19) 0.9223(3)
C11_3 C 0.1163(4) 0.8688(2) 0.9218(4)
H8_3 H 0.1039 0.8913 0.9627
C14_3 C 0.2560(4) 0.82926(19) 0.9860(3)
C15_3 C 0.3337(4) 0.8013(2) 0.9757(3)
H11_3 H 0.3478 0.7889 0.9243
O6_2 O 0.1058(5) 0.72056(18) 0.7549(4)
O4_2 O 0.8942(5) 0.22056(18) 0.7451(4)
C18_3 C 0.9458(7) 0.1988(3) 0.7919(7)
C19_3 C 0.9357(5) 0.0454(2) 0.8115(4)
C20_3 C 0.9920(5) 0.0719(2) 0.8623(5)
C21_3 C 0.9953(4) 0.1218(2) 0.8564(4)
C22_3 C 0.9435(4) 0.1455(2) 0.7986(4)
C23_3 C 0.8896(5) 0.1177(2) 0.7478(4)
H15_3 H 0.8562 0.1330 0.7072
C24_3 C 0.8842(6) 0.0693(2) 0.7554(4)
H16_3 H 0.8450 0.0520 0.7221
O1_3 O 0.9901(5) 0.9676(2) 0.8396(4)
O2_3 O 0.8494(5) 0.9709(2) 0.7955(4)
N1_3 N 0.9040(3) 0.86840(15) 0.7248(3)
N2_3 N 0.9270(3) 0.82391(15) 0.6943(3)
C1_3 C 0.8754(3) 0.8153(2) 0.6292(3)
H1_3 H 0.8775 0.7875 0.5970
C2_3 C 0.8166(4) 0.85526(19) 0.6166(3)
C3_3 C 0.8392(4) 0.8866(2) 0.6795(3)
H2_3 H 0.8121 0.9165 0.6885
C4_3 C 0.6636(4) 0.9174(2) 0.4706(4)
H3_3 H 0.6467 0.9492 0.4591
C5_3 C 0.7245(4) 0.9096(2) 0.5333(4)
H4_3 H 0.7476 0.9357 0.5626
C6_3 C 0.7507(4) 0.86322(19) 0.5521(3)
C7_3 C 0.7104(4) 0.8254(2) 0.5074(4)
H5_3 H 0.7240 0.7932 0.5193
C8_3 C 0.6506(4) 0.83653(19) 0.4459(4)
H6_3 H 0.6247 0.8112 0.4167
C17_3 C 0.9253(8) 0.9890(4) 0.8136(7)
O5_2 O 0.9998(5) 0.72265(18) 0.6657(4)
C4_4 C 0.3364(4) 0.4174(2) 0.0294(4)
H3_4 H 0.3533 0.4492 0.0409
C8_4 C 0.3494(4) 0.33653(19) 0.0541(4)
H6_4 H 0.3753 0.3112 0.0833
O1_4 O 0.0099(5) 0.4676(2) 0.6604(4)
O2_4 O 0.1506(5) 0.4709(2) 0.7045(4)
N1_4 N 0.0960(3) 0.36840(15) 0.7752(3)
N2_4 N 0.0730(3) 0.32391(15) 0.8057(3)
C1_4 C 0.1246(3) 0.3153(2) 0.8708(3)
H1_4 H 0.1225 0.2875 0.9030
C2_4 C 0.1834(4) 0.35526(19) 0.8834(3)
C3_4 C 0.1608(4) 0.3866(2) 0.8205(3)
H2_4 H 0.1879 0.4165 0.8115
C5_4 C 0.2755(4) 0.4096(2) 0.9667(4)
H4_4 H 0.2524 0.4357 0.9374
C6_4 C 0.2493(4) 0.36322(19) 0.9479(3)
C7_4 C 0.2896(4) 0.3254(2) 0.9926(4)
H5_4 H 0.2760 0.2932 0.9807
C17_4 C 0.0747(8) 0.4890(4) 0.6864(7)
C18_4 C 0.0542(7) 0.6988(3) 0.7081(7)
C19_4 C 0.0643(5) 0.5454(2) 0.6885(4)
C20_4 C 0.0080(5) 0.5719(2) 0.6377(5)
C21_4 C 0.0047(4) 0.6218(2) 0.6436(4)
C22_4 C 0.0565(4) 0.6455(2) 0.7014(4)
C23_4 C 0.1104(5) 0.6177(2) 0.7522(4)
H15_4 H 0.1438 0.6330 0.7928
C24_4 C 0.1158(6) 0.5693(2) 0.7446(4)
H16_4 H 0.1550 0.5520 0.7779
N4_4 N 0.9329(3) 0.36264(16) 0.6450(3)
N5_4 N 0.8951(3) 0.32597(15) 0.6899(3)
C9_4 C 0.8213(4) 0.3116(2) 0.6503(3)
H7_4 H 0.7821 0.2878 0.6689
C10_4 C 0.8108(4) 0.33703(19) 0.5777(3)
C11_4 C 0.8837(4) 0.3688(2) 0.5782(4)
H8_4 H 0.8961 0.3913 0.5373
C12_4 C 0.6995(4) 0.3374(2) 0.3731(3)
H9_4 H 0.7107 0.3502 0.3214
C13_4 C 0.7575(4) 0.3478(2) 0.4345(4)
H10_4 H 0.8071 0.3676 0.4241
C14_4 C 0.7440(4) 0.32926(19) 0.5140(3)
C15_4 C 0.6663(4) 0.3013(2) 0.5243(3)
H11_4 H 0.6522 0.2889 0.5757
C16_4 C 0.6102(4) 0.2919(2) 0.4581(4)
H12_4 H 0.5595 0.2727 0.4664
H13_4 H 0.9723 0.5560 0.5995
H14_4 H 0.9676 0.6394 0.6087
Zn1_3 Zn 0.04660(4) 0.10300(2) 0.17137(4)
O1_5 O 0.0099(5) 0.0324(2) 0.1604(4)
O2_5 O 0.1506(5) 0.0291(2) 0.2045(4)
N1_5 N 0.0960(3) 0.13160(15) 0.2752(3)
N2_5 N 0.0730(3) 0.17609(15) 0.3057(3)
N3_3 N 0.3722(3) 0.11797(16) 0.5742(3)
C1_5 C 0.1246(3) 0.1847(2) 0.3708(3)
H1_5 H 0.1225 0.2125 0.4030
C2_5 C 0.1834(4) 0.14474(19) 0.3834(3)
C3_5 C 0.1608(4) 0.1134(2) 0.3205(3)
H2_5 H 0.1879 0.0835 0.3115
C4_5 C 0.3364(4) 0.0826(2) 0.5294(4)
H3_5 H 0.3533 0.0508 0.5409
C5_5 C 0.2755(4) 0.0904(2) 0.4667(4)
H4_5 H 0.2524 0.0643 0.4374
C6_5 C 0.2493(4) 0.13678(19) 0.4479(3)
C7_5 C 0.2896(4) 0.1746(2) 0.4926(4)
H5_5 H 0.2760 0.2068 0.4807
C8_5 C 0.3494(4) 0.16347(19) 0.5541(4)
H6_5 H 0.3753 0.1888 0.5833
C17_5 C 0.0747(8) 0.0110(4) 0.1864(7)
Zn3_3 Zn 0.45340(4) 0.10300(2) 0.67137(4)
O5_3 O 0.0002(5) 0.27735(18) 0.3343(4)
N7_3 N 0.1278(3) 0.11797(16) 0.0742(3)
O4_3 O 0.1058(5) 0.77944(18) 0.2549(4)
C18_5 C 0.0542(7) 0.8012(3) 0.2081(7)
C19_5 C 0.0643(5) 0.9546(2) 0.1885(4)
C20_5 C 0.0080(5) 0.9281(2) 0.1377(5)
C21_5 C 0.0047(4) 0.8782(2) 0.1436(4)
C22_5 C 0.0565(4) 0.8545(2) 0.2014(4)
C23_5 C 0.1104(5) 0.8823(2) 0.2522(4)
H15_5 H 0.1438 0.8670 0.2928
C24_5 C 0.1158(6) 0.9307(2) 0.2446(4)
H16_5 H 0.1550 0.9480 0.2779
Zn4_2 Zn 0.04651(4) 0.70859(2) 0.21537(4)
Zn2_2 Zn 0.95349(4) 0.20859(2) 0.28463(4)
N4_5 N 0.9329(3) 0.13736(16) 0.1450(3)
N5_5 N 0.8951(3) 0.17403(15) 0.1899(3)
C9_5 C 0.8213(4) 0.1884(2) 0.1503(3)
H7_5 H 0.7821 0.2122 0.1689
C10_5 C 0.8108(4) 0.16297(19) 0.0777(3)
C11_5 C 0.8837(4) 0.1312(2) 0.0782(4)
H8_5 H 0.8961 0.1087 0.0373
C14_5 C 0.7440(4) 0.17074(19) 0.0140(3)
C15_5 C 0.6663(4) 0.1987(2) 0.0243(3)
H11_5 H 0.6522 0.2111 0.0757
O6_3 O 0.8942(5) 0.27944(18) 0.2451(4)
N8_3 N 0.8740(3) 0.19080(17) 0.3835(3)
N6_3 N 0.6260(3) 0.19080(17) 0.8835(3)
C12_5 C 0.6995(4) 0.1626(2) 0.8731(3)
H9_5 H 0.7107 0.1498 0.8214
C13_5 C 0.7575(4) 0.1522(2) 0.9345(4)
H10_5 H 0.8071 0.1324 0.9241
C16_5 C 0.6102(4) 0.2081(2) 0.9581(4)
H12_5 H 0.5595 0.2273 0.9664
Zn5_3 Zn 0.54651(4) 0.20859(2) 0.78463(4)
O3_3 O 0.9998(5) 0.77735(18) 0.1657(4)
H13_5 H 0.9723 0.9440 0.0995
H14_5 H 0.9676 0.8606 0.1087
N4_6 N 0.0671(3) 0.63736(16) 0.3550(3)
N5_6 N 0.1049(3) 0.67403(15) 0.3101(3)
N6_4 N 0.3740(3) 0.69080(17) 0.6165(3)
C9_6 C 0.1787(4) 0.6884(2) 0.3497(3)
H7_6 H 0.2179 0.7122 0.3311
C10_6 C 0.1892(4) 0.66297(19) 0.4223(3)
C11_6 C 0.1163(4) 0.6312(2) 0.4218(4)
H8_6 H 0.1039 0.6087 0.4627
C12_6 C 0.3005(4) 0.6626(2) 0.6269(3)
H9_6 H 0.2893 0.6498 0.6786
C13_6 C 0.2425(4) 0.6522(2) 0.5655(4)
H10_6 H 0.1929 0.6324 0.5759
C14_6 C 0.2560(4) 0.67074(19) 0.4860(3)
C15_6 C 0.3337(4) 0.6987(2) 0.4757(3)
H11_6 H 0.3478 0.7111 0.4243
C16_6 C 0.3898(4) 0.7081(2) 0.5419(4)
H12_6 H 0.4405 0.7273 0.5336
H13_6 H 0.0277 0.4440 0.4005
H14_6 H 0.0324 0.3606 0.3913
Zn5_4 Zn 0.45349(4) 0.70859(2) 0.71537(4)
N8_4 N 0.1260(3) 0.69080(17) 0.1165(3)
Zn1_4 Zn 0.95340(4) 0.60300(2) 0.32863(4)
O1_6 O 0.9901(5) 0.5324(2) 0.3396(4)
O2_6 O 0.8494(5) 0.5291(2) 0.2955(4)
N1_6 N 0.9040(3) 0.63160(15) 0.2248(3)
N2_6 N 0.9270(3) 0.67609(15) 0.1943(3)
C1_6 C 0.8754(3) 0.6847(2) 0.1292(3)
H1_6 H 0.8775 0.7125 0.0970
C2_6 C 0.8166(4) 0.64474(19) 0.1166(3)
C3_6 C 0.8392(4) 0.6134(2) 0.1795(3)
H2_6 H 0.8121 0.5835 0.1885
C5_6 C 0.7245(4) 0.5904(2) 0.0333(4)
H4_6 H 0.7476 0.5643 0.0626
C6_6 C 0.7507(4) 0.63678(19) 0.0521(3)
C7_6 C 0.7104(4) 0.6746(2) 0.0074(4)
H5_6 H 0.7240 0.7068 0.0193
C17_6 C 0.9253(8) 0.5110(4) 0.3136(7)
C18_6 C 0.9458(7) 0.3012(3) 0.2919(7)
C19_6 C 0.9357(5) 0.4546(2) 0.3115(4)
C20_6 C 0.9920(5) 0.4281(2) 0.3623(5)
C21_6 C 0.9953(4) 0.3782(2) 0.3564(4)
C22_6 C 0.9435(4) 0.3545(2) 0.2986(4)
C23_6 C 0.8896(5) 0.3823(2) 0.2478(4)
H15_6 H 0.8562 0.3670 0.2072
C24_6 C 0.8842(6) 0.4307(2) 0.2554(4)
H16_6 H 0.8450 0.4480 0.2221
N7_4 N 0.8722(3) 0.61797(16) 0.4258(3)
N3_4 N 0.6278(3) 0.61797(16) 0.9258(3)
C4_6 C 0.6636(4) 0.5826(2) 0.9706(4)
H3_6 H 0.6467 0.5508 0.9591
C8_6 C 0.6506(4) 0.66347(19) 0.9459(4)
H6_6 H 0.6247 0.6888 0.9167
Zn3_4 Zn 0.54660(4) 0.60300(2) 0.82863(4)
C12_7 C 0.1995(4) 0.6626(2) 0.1269(3)
H9_7 H 0.2107 0.6498 0.1786
C13_7 C 0.2575(4) 0.6522(2) 0.0655(4)
H10_7 H 0.3071 0.6324 0.0759
C16_7 C 0.1102(4) 0.7081(2) 0.0419(4)
H12_7 H 0.0595 0.7273 0.0336
O1_7 O 0.5099(5) 0.5324(2) 0.8396(4)
O2_7 O 0.6506(5) 0.5291(2) 0.7955(4)
O3_4 O 0.4998(5) 0.27735(18) 0.8343(4)
O4_4 O 0.6058(5) 0.27944(18) 0.7451(4)
N1_7 N 0.5960(3) 0.63160(15) 0.7248(3)
N2_7 N 0.5730(3) 0.67609(15) 0.6943(3)
N4_7 N 0.4329(3) 0.63736(16) 0.8550(3)
N5_7 N 0.3951(3) 0.67403(15) 0.8101(3)
C1_7 C 0.6246(3) 0.6847(2) 0.6292(3)
H1_7 H 0.6225 0.7125 0.5970
C2_7 C 0.6834(4) 0.64474(19) 0.6166(3)
C3_7 C 0.6608(4) 0.6134(2) 0.6795(3)
H2_7 H 0.6879 0.5835 0.6885
C4_7 C 0.8364(4) 0.5826(2) 0.4706(4)
H3_7 H 0.8533 0.5508 0.4591
C5_7 C 0.7755(4) 0.5904(2) 0.5333(4)
H4_7 H 0.7524 0.5643 0.5626
C6_7 C 0.7493(4) 0.63678(19) 0.5521(3)
C7_7 C 0.7896(4) 0.6746(2) 0.5074(4)
H5_7 H 0.7760 0.7068 0.5193
C8_7 C 0.8494(4) 0.66347(19) 0.4459(4)
H6_7 H 0.8753 0.6888 0.4167
C9_7 C 0.3213(4) 0.6884(2) 0.8497(3)
H7_7 H 0.2821 0.7122 0.8311
C10_7 C 0.3108(4) 0.66297(19) 0.9223(3)
C11_7 C 0.3837(4) 0.6312(2) 0.9218(4)
H8_7 H 0.3961 0.6087 0.9627
C14_7 C 0.2440(4) 0.67074(19) 0.9860(3)
C15_7 C 0.1663(4) 0.6987(2) 0.9757(3)
H11_7 H 0.1522 0.7111 0.9243
C17_7 C 0.5747(8) 0.5110(4) 0.8136(7)
C18_7 C 0.5542(7) 0.3012(3) 0.7919(7)
C19_7 C 0.5643(5) 0.4546(2) 0.8115(4)
C20_7 C 0.5080(5) 0.4281(2) 0.8623(5)
H13_7 H 0.4723 0.4440 0.9005
C21_7 C 0.5047(4) 0.3782(2) 0.8564(4)
H14_7 H 0.4676 0.3606 0.8913
C22_7 C 0.5565(4) 0.3545(2) 0.7986(4)
C23_7 C 0.6104(5) 0.3823(2) 0.7478(4)
H15_7 H 0.6438 0.3670 0.7072
C24_7 C 0.6158(6) 0.4307(2) 0.7554(4)
H16_7 H 0.6550 0.4480 0.7221
O5_4 O 0.5002(5) 0.77735(18) 0.6657(4)
O6_4 O 0.3942(5) 0.77944(18) 0.7549(4)
C4_8 C 0.1636(4) 0.0826(2) 0.0294(4)
H3_8 H 0.1467 0.0508 0.0409
C8_8 C 0.1506(4) 0.16347(19) 0.0541(4)
H6_8 H 0.1247 0.1888 0.0833
O1_8 O 0.4901(5) 0.0324(2) 0.6604(4)
O2_8 O 0.3494(5) 0.0291(2) 0.7045(4)
N1_8 N 0.4040(3) 0.13160(15) 0.7752(3)
N2_8 N 0.4270(3) 0.17609(15) 0.8057(3)
N4_8 N 0.5671(3) 0.13736(16) 0.6450(3)
N5_8 N 0.6049(3) 0.17403(15) 0.6899(3)
C1_8 C 0.3754(3) 0.1847(2) 0.8708(3)
H1_8 H 0.3775 0.2125 0.9030
C2_8 C 0.3166(4) 0.14474(19) 0.8834(3)
C3_8 C 0.3392(4) 0.1134(2) 0.8205(3)
H2_8 H 0.3121 0.0835 0.8115
C5_8 C 0.2245(4) 0.0904(2) 0.9667(4)
H4_8 H 0.2476 0.0643 0.9374
C6_8 C 0.2507(4) 0.13678(19) 0.9479(3)
C7_8 C 0.2104(4) 0.1746(2) 0.9926(4)
H5_8 H 0.2240 0.2068 0.9807
C9_8 C 0.6787(4) 0.1884(2) 0.6503(3)
H7_8 H 0.7179 0.2122 0.6689
C10_8 C 0.6892(4) 0.16297(19) 0.5777(3)
C11_8 C 0.6163(4) 0.1312(2) 0.5782(4)
H8_8 H 0.6039 0.1087 0.5373
C12_8 C 0.8005(4) 0.1626(2) 0.3731(3)
H9_8 H 0.7893 0.1498 0.3214
C13_8 C 0.7425(4) 0.1522(2) 0.4345(4)
H10_8 H 0.6929 0.1324 0.4241
C14_8 C 0.7560(4) 0.17074(19) 0.5140(3)
C15_8 C 0.8337(4) 0.1987(2) 0.5243(3)
H11_8 H 0.8478 0.2111 0.5757
C16_8 C 0.8898(4) 0.2081(2) 0.4581(4)
H12_8 H 0.9405 0.2273 0.4664
C17_8 C 0.4253(8) 0.0110(4) 0.6864(7)
C18_8 C 0.4458(7) 0.8012(3) 0.7081(7)
C19_8 C 0.4357(5) 0.9546(2) 0.6885(4)
C20_8 C 0.4920(5) 0.9281(2) 0.6377(5)
H13_8 H 0.5277 0.9440 0.5995
C21_8 C 0.4953(4) 0.8782(2) 0.6436(4)
H14_8 H 0.5324 0.8606 0.6087
C22_8 C 0.4435(4) 0.8545(2) 0.7014(4)
C23_8 C 0.3896(5) 0.8823(2) 0.7522(4)
H15_8 H 0.3562 0.8670 0.7928
C24_8 C 0.3842(6) 0.9307(2) 0.7446(4)
H16_8 H 0.3450 0.9480 0.7779
loop_
_geom_bond_atom_site_label_1
_geom_bond_atom_site_label_2
_geom_bond_site_symmetry_1
_geom_bond_site_symmetry_2
Zn1 O1 1_555 1_555
Zn2 N2 1_555 1_555
O1 C17 1_555 1_555
O2 C17 1_555 1_555
O3 C18 1_555 1_555
O4 C18 1_555 1_555
N1 Zn1 1_555 1_555
N2 N1 1_555 1_555
N3 C4 1_555 1_555
N4 Zn1 1_555 1_555
N5 Zn2 1_555 1_555
C1 N2 1_555 1_555
H1 C1 1_555 1_555
C2 C1 1_555 1_555
C3 N1 1_555 1_555
H2 C3 1_555 1_555
C4 H3 1_555 1_555
C5 C4 1_555 1_555
H4 C5 1_555 1_555
C6 C2 1_555 1_555
C7 C6 1_555 1_555
H5 C7 1_555 1_555
C8 N3 1_555 1_555
H6 C8 1_555 1_555
C9 N5 1_555 1_555
H7 C9 1_555 1_555
C10 C9 1_555 1_555
C11 N4 1_555 1_555
H8 C11 1_555 1_555
C14 C10 1_555 1_555
C15 C14 1_555 1_555
H11 C15 1_555 1_555
C17 C19 1_555 1_555
C18 C22 1_555 1_555
C19 C20 1_555 1_555
C20 H13 1_555 1_555
C21 C20 1_555 1_555
H14 C21 1_555 1_555
C22 C21 1_555 1_555
C23 C22 1_555 1_555
H15 C23 1_555 1_555
C24 C19 1_555 1_555
H16 C24 1_555 1_555
Zn3 N3 1_555 1_555
Zn4 O3 1_555 1_555
O5 Zn2 1_555 1_555
O6 Zn2 1_555 1_555
N7 Zn1 1_555 1_555
N8 Zn2 1_555 1_555
O4 Zn4 1_555 1_555
N4 N5 1_555 1_555
C2 C3 1_555 1_555
C5 C6 1_555 1_555
C7 C8 1_555 1_555
C10 C11 1_555 1_555
C23 C24 1_555 1_555
N6 C12 1_555 1_555
C12 H9 1_555 1_555
C13 C12 1_555 1_555
H10 C13 1_555 1_555
C16 N6 1_555 1_555
H12 C16 1_555 1_555
Zn5 N6 1_555 1_555
O5 C18_2 1_555 1_555
O6 C18_2 1_555 1_555
C18_2 C22_2 1_555 1_555
C19_2 C20_2 1_555 1_555
C20_2 H13_2 1_555 1_555
C21_2 C20_2 1_555 1_555
H14_2 C21_2 1_555 1_555
C22_2 C21_2 1_555 1_555
C23_2 C22_2 1_555 1_555
H15_2 C23_2 1_555 1_555
C24_2 C19_2 1_555 1_555
H16_2 C24_2 1_555 1_555
C23_2 C24_2 1_555 1_555
Zn1_2 O1_2 1_555 1_555
Zn4 N2_2 1_555 1_555
O1_2 C17_2 1_555 1_555
O2_2 C17_2 1_555 1_555
N1_2 Zn1_2 1_555 1_555
N2_2 N1_2 1_555 1_555
N4_2 Zn1_2 1_555 1_555
N5_2 Zn4 1_555 1_555
N6_2 C12_2 1_555 1_555
C1_2 N2_2 1_555 1_555
H1_2 C1_2 1_555 1_555
C2_2 C1_2 1_555 1_555
C3_2 N1_2 1_555 1_555
H2_2 C3_2 1_555 1_555
H4_2 C5_2 1_555 1_555
C6_2 C2_2 1_555 1_555
C7_2 C6_2 1_555 1_555
H5_2 C7_2 1_555 1_555
C9_2 N5_2 1_555 1_555
H7_2 C9_2 1_555 1_555
C10_2 C9_2 1_555 1_555
C11_2 N4_2 1_555 1_555
H8_2 C11_2 1_555 1_555
C12_2 H9_2 1_555 1_555
C13_2 C12_2 1_555 1_555
H10_2 C13_2 1_555 1_555
C14_2 C10_2 1_555 1_555
C15_2 C14_2 1_555 1_555
H11_2 C15_2 1_555 1_555
C16_2 N6_2 1_555 1_555
H12_2 C16_2 1_555 1_555
Zn5_2 N6_2 1_555 1_555
N7_2 Zn1_2 1_555 1_555
N8_2 Zn4 1_555 1_555
N4_2 N5_2 1_555 1_555
C2_2 C3_2 1_555 1_555
C5_2 C6_2 1_555 1_555
C10_2 C11_2 1_555 1_555
C13_2 C14_2 1_555 1_555
C15_2 C16_2 1_555 1_555
N3_2 C4_2 1_555 1_555
C4_2 H3_2 1_555 1_555
C8_2 N3_2 1_555 1_555
H6_2 C8_2 1_555 1_555
Zn3_2 N3_2 1_555 1_555
N8_2 C12_3 1_555 1_555
C12_3 H9_3 1_555 1_555
C13_3 C12_3 1_555 1_555
H10_3 C13_3 1_555 1_555
C16_3 N8_2 1_555 1_555
H12_3 C16_3 1_555 1_555
N5_3 Zn5_2 1_555 1_555
C9_3 N5_3 1_555 1_555
H7_3 C9_3 1_555 1_555
C10_3 C9_3 1_555 1_555
C11_3 N4_3 1_555 1_555
H8_3 C11_3 1_555 1_555
C14_3 C10_3 1_555 1_555
C15_3 C14_3 1_555 1_555
H11_3 C15_3 1_555 1_555
O6_2 Zn5_2 1_555 1_555
N4_3 N5_3 1_555 1_555
C10_3 C11_3 1_555 1_555
O4_2 C18_3 1_555 1_555
C18_3 C22_3 1_555 1_555
C19_3 C20_3 1_555 1_555
C21_3 C20_3 1_555 1_555
C22_3 C21_3 1_555 1_555
C23_3 C22_3 1_555 1_555
H15_3 C23_3 1_555 1_555
C24_3 C19_3 1_555 1_555
H16_3 C24_3 1_555 1_555
O4_2 Zn5 1_555 1_555
C23_3 C24_3 1_555 1_555
Zn3_2 O1_3 1_555 1_555
O1_3 C17_3 1_555 1_555
O2_3 C17_3 1_555 1_555
N1_3 Zn3_2 1_555 1_555
N2_3 N1_3 1_555 1_555
N7_2 C4_3 1_555 1_555
C1_3 N2_3 1_555 1_555
H1_3 C1_3 1_555 1_555
C2_3 C1_3 1_555 1_555
C3_3 N1_3 1_555 1_555
H2_3 C3_3 1_555 1_555
C4_3 H3_3 1_555 1_555
C5_3 C4_3 1_555 1_555
H4_3 C5_3 1_555 1_555
C6_3 C2_3 1_555 1_555
C7_3 C6_3 1_555 1_555
H5_3 C7_3 1_555 1_555
C8_3 N7_2 1_555 1_555
H6_3 C8_3 1_555 1_555
C2_3 C3_3 1_555 1_555
C5_3 C6_3 1_555 1_555
C7_3 C8_3 1_555 1_555
N7 C4_4 1_555 1_555
C4_4 H3_4 1_555 1_555
C8_4 N7 1_555 1_555
H6_4 C8_4 1_555 1_555
Zn3 O1_4 1_555 1_555
O1_4 C17_4 1_555 1_555
O2_4 C17_4 1_555 1_555
O6_2 C18_4 1_555 1_555
N1_4 Zn3 1_555 1_555
N2_4 N1_4 1_555 1_555
C1_4 N2_4 1_555 1_555
H1_4 C1_4 1_555 1_555
C2_4 C1_4 1_555 1_555
C3_4 N1_4 1_555 1_555
H2_4 C3_4 1_555 1_555
H4_4 C5_4 1_555 1_555
C6_4 C2_4 1_555 1_555
C7_4 C6_4 1_555 1_555
H5_4 C7_4 1_555 1_555
C17_4 C19_4 1_555 1_555
C18_4 C22_4 1_555 1_555
C19_4 C20_4 1_555 1_555
C21_4 C20_4 1_555 1_555
C22_4 C21_4 1_555 1_555
C23_4 C22_4 1_555 1_555
H15_4 C23_4 1_555 1_555
C24_4 C19_4 1_555 1_555
H16_4 C24_4 1_555 1_555
C2_4 C3_4 1_555 1_555
C5_4 C6_4 1_555 1_555
C23_4 C24_4 1_555 1_555
N5_4 Zn5 1_555 1_555
N8 C12_4 1_555 1_555
C9_4 N5_4 1_555 1_555
H7_4 C9_4 1_555 1_555
C10_4 C9_4 1_555 1_555
C11_4 N4_4 1_555 1_555
H8_4 C11_4 1_555 1_555
C12_4 H9_4 1_555 1_555
C13_4 C12_4 1_555 1_555
H10_4 C13_4 1_555 1_555
C14_4 C10_4 1_555 1_555
C15_4 C14_4 1_555 1_555
H11_4 C15_4 1_555 1_555
C16_4 N8 1_555 1_555
H12_4 C16_4 1_555 1_555
N4_4 N5_4 1_555 1_555
C10_4 C11_4 1_555 1_555
C13_4 C14_4 1_555 1_555
C15_4 C16_4 1_555 1_555
Zn1_3 O1_5 1_555 1_555
O1_5 C17_5 1_555 1_555
O2_5 C17_5 1_555 1_555
N1_5 Zn1_3 1_555 1_555
N2_5 N1_5 1_555 1_555
N3_3 C4_5 1_555 1_555
C1_5 N2_5 1_555 1_555
H1_5 C1_5 1_555 1_555
C2_5 C1_5 1_555 1_555
C3_5 N1_5 1_555 1_555
H2_5 C3_5 1_555 1_555
C4_5 H3_5 1_555 1_555
C5_5 C4_5 1_555 1_555
H4_5 C5_5 1_555 1_555
C6_5 C2_5 1_555 1_555
C7_5 C6_5 1_555 1_555
H5_5 C7_5 1_555 1_555
C8_5 N3_3 1_555 1_555
H6_5 C8_5 1_555 1_555
Zn3_3 N3_3 1_555 1_555
N7_3 Zn1_3 1_555 1_555
C2_5 C3_5 1_555 1_555
C5_5 C6_5 1_555 1_555
C7_5 C8_5 1_555 1_555
O4_3 C18_5 1_555 1_555
C18_5 C22_5 1_555 1_555
C19_5 C20_5 1_555 1_555
C21_5 C20_5 1_555 1_555
C22_5 C21_5 1_555 1_555
C23_5 C22_5 1_555 1_555
H15_5 C23_5 1_555 1_555
C24_5 C19_5 1_555 1_555
H16_5 C24_5 1_555 1_555
O4_3 Zn4_2 1_555 1_555
C23_5 C24_5 1_555 1_555
N5_5 Zn2_2 1_555 1_555
C9_5 N5_5 1_555 1_555
H7_5 C9_5 1_555 1_555
C10_5 C9_5 1_555 1_555
C11_5 N4_5 1_555 1_555
H8_5 C11_5 1_555 1_555
C14_5 C10_5 1_555 1_555
C15_5 C14_5 1_555 1_555
H11_5 C15_5 1_555 1_555
O6_3 Zn2_2 1_555 1_555
N8_3 Zn2_2 1_555 1_555
N4_5 N5_5 1_555 1_555
C10_5 C11_5 1_555 1_555
N6_3 C12_5 1_555 1_555
C12_5 H9_5 1_555 1_555
C13_5 C12_5 1_555 1_555
H10_5 C13_5 1_555 1_555
C16_5 N6_3 1_555 1_555
H12_5 C16_5 1_555 1_555
Zn5_3 N6_3 1_555 1_555
N5_6 Zn4_2 1_555 1_555
N6_4 C12_6 1_555 1_555
C9_6 N5_6 1_555 1_555
H7_6 C9_6 1_555 1_555
C10_6 C9_6 1_555 1_555
C11_6 N4_6 1_555 1_555
H8_6 C11_6 1_555 1_555
C12_6 H9_6 1_555 1_555
C13_6 C12_6 1_555 1_555
H10_6 C13_6 1_555 1_555
C14_6 C10_6 1_555 1_555
C15_6 C14_6 1_555 1_555
H11_6 C15_6 1_555 1_555
C16_6 N6_4 1_555 1_555
H12_6 C16_6 1_555 1_555
Zn5_4 N6_4 1_555 1_555
N8_4 Zn4_2 1_555 1_555
N4_6 N5_6 1_555 1_555
C10_6 C11_6 1_555 1_555
C13_6 C14_6 1_555 1_555
C15_6 C16_6 1_555 1_555
Zn1_4 O1_6 1_555 1_555
O1_6 C17_6 1_555 1_555
O2_6 C17_6 1_555 1_555
O6_3 C18_6 1_555 1_555
N1_6 Zn1_4 1_555 1_555
N2_6 N1_6 1_555 1_555
C1_6 N2_6 1_555 1_555
H1_6 C1_6 1_555 1_555
C2_6 C1_6 1_555 1_555
C3_6 N1_6 1_555 1_555
H2_6 C3_6 1_555 1_555
H4_6 C5_6 1_555 1_555
C6_6 C2_6 1_555 1_555
C7_6 C6_6 1_555 1_555
H5_6 C7_6 1_555 1_555
C17_6 C19_6 1_555 1_555
C18_6 C22_6 1_555 1_555
C19_6 C20_6 1_555 1_555
C21_6 C20_6 1_555 1_555
C22_6 C21_6 1_555 1_555
C23_6 C22_6 1_555 1_555
H15_6 C23_6 1_555 1_555
C24_6 C19_6 1_555 1_555
H16_6 C24_6 1_555 1_555
N7_4 Zn1_4 1_555 1_555
C2_6 C3_6 1_555 1_555
C5_6 C6_6 1_555 1_555
C23_6 C24_6 1_555 1_555
N3_4 C4_6 1_555 1_555
C4_6 H3_6 1_555 1_555
C8_6 N3_4 1_555 1_555
H6_6 C8_6 1_555 1_555
Zn3_4 N3_4 1_555 1_555
N8_4 C12_7 1_555 1_555
C12_7 H9_7 1_555 1_555
C13_7 C12_7 1_555 1_555
H10_7 C13_7 1_555 1_555
C16_7 N8_4 1_555 1_555
H12_7 C16_7 1_555 1_555
Zn3_4 O1_7 1_555 1_555
Zn5_4 N2_7 1_555 1_555
O1_7 C17_7 1_555 1_555
O2_7 C17_7 1_555 1_555
O3_4 C18_7 1_555 1_555
O4_4 C18_7 1_555 1_555
N1_7 Zn3_4 1_555 1_555
N2_7 N1_7 1_555 1_555
N7_4 C4_7 1_555 1_555
N4_7 Zn3_4 1_555 1_555
N5_7 Zn5_4 1_555 1_555
C1_7 N2_7 1_555 1_555
H1_7 C1_7 1_555 1_555
C2_7 C1_7 1_555 1_555
C3_7 N1_7 1_555 1_555
H2_7 C3_7 1_555 1_555
C4_7 H3_7 1_555 1_555
C5_7 C4_7 1_555 1_555
H4_7 C5_7 1_555 1_555
C6_7 C2_7 1_555 1_555
C7_7 C6_7 1_555 1_555
H5_7 C7_7 1_555 1_555
C8_7 N7_4 1_555 1_555
H6_7 C8_7 1_555 1_555
C9_7 N5_7 1_555 1_555
H7_7 C9_7 1_555 1_555
C10_7 C9_7 1_555 1_555
C11_7 N4_7 1_555 1_555
H8_7 C11_7 1_555 1_555
C14_7 C10_7 1_555 1_555
C15_7 C14_7 1_555 1_555
H11_7 C15_7 1_555 1_555
C17_7 C19_7 1_555 1_555
C18_7 C22_7 1_555 1_555
C19_7 C20_7 1_555 1_555
C20_7 H13_7 1_555 1_555
C21_7 C20_7 1_555 1_555
H14_7 C21_7 1_555 1_555
C22_7 C21_7 1_555 1_555
C23_7 C22_7 1_555 1_555
H15_7 C23_7 1_555 1_555
C24_7 C19_7 1_555 1_555
H16_7 C24_7 1_555 1_555
Zn5_3 O3_4 1_555 1_555
O5_4 Zn5_4 1_555 1_555
O6_4 Zn5_4 1_555 1_555
O4_4 Zn5_3 1_555 1_555
N4_7 N5_7 1_555 1_555
C2_7 C3_7 1_555 1_555
C5_7 C6_7 1_555 1_555
C7_7 C8_7 1_555 1_555
C10_7 C11_7 1_555 1_555
C23_7 C24_7 1_555 1_555
N7_3 C4_8 1_555 1_555
C4_8 H3_8 1_555 1_555
C8_8 N7_3 1_555 1_555
H6_8 C8_8 1_555 1_555
Zn3_3 O1_8 1_555 1_555
Zn5_3 N2_8 1_555 1_555
O1_8 C17_8 1_555 1_555
O2_8 C17_8 1_555 1_555
N1_8 Zn3_3 1_555 1_555
N2_8 N1_8 1_555 1_555
N4_8 Zn3_3 1_555 1_555
N5_8 Zn5_3 1_555 1_555
N8_3 C12_8 1_555 1_555
C1_8 N2_8 1_555 1_555
H1_8 C1_8 1_555 1_555
C2_8 C1_8 1_555 1_555
C3_8 N1_8 1_555 1_555
H2_8 C3_8 1_555 1_555
H4_8 C5_8 1_555 1_555
C6_8 C2_8 1_555 1_555
C7_8 C6_8 1_555 1_555
H5_8 C7_8 1_555 1_555
C9_8 N5_8 1_555 1_555
H7_8 C9_8 1_555 1_555
C10_8 C9_8 1_555 1_555
C11_8 N4_8 1_555 1_555
H8_8 C11_8 1_555 1_555
C12_8 H9_8 1_555 1_555
C13_8 C12_8 1_555 1_555
H10_8 C13_8 1_555 1_555
C14_8 C10_8 1_555 1_555
C15_8 C14_8 1_555 1_555
H11_8 C15_8 1_555 1_555
C16_8 N8_3 1_555 1_555
H12_8 C16_8 1_555 1_555
N4_8 N5_8 1_555 1_555
C2_8 C3_8 1_555 1_555
C5_8 C6_8 1_555 1_555
C10_8 C11_8 1_555 1_555
C13_8 C14_8 1_555 1_555
C15_8 C16_8 1_555 1_555
O5_4 C18_8 1_555 1_555
O6_4 C18_8 1_555 1_555
C18_8 C22_8 1_555 1_555
C19_8 C20_8 1_555 1_555
C20_8 H13_8 1_555 1_555
C21_8 C20_8 1_555 1_555
H14_8 C21_8 1_555 1_555
C22_8 C21_8 1_555 1_555
C23_8 C22_8 1_555 1_555
H15_8 C23_8 1_555 1_555
C24_8 C19_8 1_555 1_555
H16_8 C24_8 1_555 1_555
C23_8 C24_8 1_555 1_555

#END
