
###############################################################################
#
# This file contains modified crystal structure data generated from the
# MOF subset of the Cambridge Structural Database (CSD) v543 
# hosted by the Cambridge Crystallographic Data Centre (CCDC).
#
# This work is licensed under the Creative Commons
# Attribution-NonCommercial-ShareAlike 4.0 International License.
# To view a copy of this license, visit
# http://creativecommons.org/licenses/by-nc-sa/4.0/
# or send a letter to
# Creative Commons, PO Box 1866, Mountain View, CA 94042, USA.
#
# CIF created using the CSD Python API on 29 September 2022
# The structure has been converted into the P1 space group
# The structure has a 3D framework
# The original CSD entry QOFLAA is in the tetragonal crystal system
# The framework has been calculated to contain at least 10.0% void space
# The void calculation uses a probe of radius 1.32A, grid spacing 0.4
#
###############################################################################

data_QOFLAA
_chemical_formula_moiety         '(C144 H176 Cu12 N48 O48)n'
_symmetry_cell_setting           triclinic
_symmetry_space_group_name_H-M   'P 1'
_symmetry_Int_Tables_number      1
_space_group_name_Hall           'P 1'
loop_
_symmetry_equiv_pos_site_id
_symmetry_equiv_pos_as_xyz
1 x,y,z
_cell_length_a                   18.0584(8)
_cell_length_b                   18.0584(8)
_cell_length_c                   18.3413(11)
_cell_angle_alpha                90
_cell_angle_beta                 90
_cell_angle_gamma                90
_cell_volume                     5981.2
loop_
_atom_site_label
_atom_site_type_symbol
_atom_site_fract_x
_atom_site_fract_y
_atom_site_fract_z
Cu1 Cu 0.19358(3) 0.74298(3) 0.34219(3)
O1 O 0.3884(2) 0.8285(2) 0.13296(18)
O2 O 0.45155(19) 0.92325(19) 0.18098(19)
N1 N 0.3051(2) 0.8139(2) 0.2488(2)
N2 N 0.2675(2) 0.8171(2) 0.3123(2)
O3 O 0.2837(2) 0.6762(2) 0.4056(2)
C1 C 0.4031(3) 0.8733(3) 0.1830(3)
C2 C 0.3531(3) 0.9074(3) 0.3151(3)
H1 H 0.3818 0.9473 0.3300
C3 C 0.2966(3) 0.8730(3) 0.3526(3)
H2 H 0.2807 0.8863 0.3990
C4 C 0.3572(3) 0.8682(3) 0.2494(3)
N3 N 0.3493(4) 0.5973(4) 0.3359(4)
C5 C 0.3377(4) 0.6553(5) 0.3712(3)
C6 C 0.4094(4) 0.7023(5) 0.3628(4)
H3 H 0.3977 0.7533 0.3511
H4 H 0.4386 0.7012 0.4072
C7 C 0.4487(5) 0.6672(5) 0.3035(5)
H5 H 0.5016 0.6670 0.3128
H6 H 0.4395 0.6931 0.2581
C8 C 0.4171(5) 0.5834(5) 0.2994(4)
H7 H 0.4098 0.5667 0.2497
H8 H 0.4482 0.5485 0.3255
C9 C 0.2923(5) 0.5372(5) 0.3382(7)
H9 H 0.2665 0.5391 0.3839
H10 H 0.3162 0.4900 0.3332
H11 H 0.2578 0.5440 0.2990
Cu2 Cu 0.50702(3) 0.94358(3) 0.09219(3)
Cu3 Cu 0.30642(3) 0.75702(3) 0.15781(3)
O4 O 0.1116(2) 0.6715(2) 0.36704(18)
O5 O 0.17325(19) 0.79845(19) 0.43098(19)
N4 N 0.1949(2) 0.6861(2) 0.2512(2)
Cu1_2 Cu 0.00702(3) 0.44358(3) 0.59219(3)
O3_2 O 0.0738(2) 0.5337(2) 0.6556(2)
N3_2 N 0.1527(4) 0.5993(4) 0.5859(4)
C5_2 C 0.0947(5) 0.5877(4) 0.6212(3)
C6_2 C 0.0477(5) 0.6594(4) 0.6128(4)
H4_2 H 0.0488 0.6886 0.6572
C7_2 C 0.0828(5) 0.6987(5) 0.5535(5)
H5_2 H 0.0830 0.7516 0.5628
H6_2 H 0.0569 0.6895 0.5081
C8_2 C 0.1666(5) 0.6671(5) 0.5494(4)
H7_2 H 0.1833 0.6598 0.4997
H8_2 H 0.2015 0.6982 0.5755
C9_2 C 0.2128(5) 0.5423(5) 0.5882(7)
H9_2 H 0.2109 0.5165 0.6339
H10_2 H 0.2600 0.5662 0.5832
H11_2 H 0.2060 0.5078 0.5490
O4_2 O 0.0785(2) 0.3616(2) 0.61704(18)
N4_2 N 0.0639(2) 0.4449(2) 0.5012(2)
O1_2 O 0.9215(2) 0.6384(2) 0.38296(18)
O2_2 O 0.82675(19) 0.70155(19) 0.43098(19)
N1_2 N 0.9361(2) 0.5551(2) 0.4988(2)
N2_2 N 0.9329(2) 0.5175(2) 0.5623(2)
C1_2 C 0.8767(3) 0.6531(3) 0.4330(3)
C2_2 C 0.8426(3) 0.6031(3) 0.5651(3)
H1_2 H 0.8027 0.6318 0.5800
C3_2 C 0.8770(3) 0.5466(3) 0.6026(3)
H2_2 H 0.8637 0.5307 0.6490
C4_2 C 0.8818(3) 0.6072(3) 0.4994(3)
H3_2 H 0.9967 0.6477 0.6011
Cu2_2 Cu 0.80642(3) 0.75702(3) 0.34219(3)
Cu3_2 Cu 0.99298(3) 0.55642(3) 0.40781(3)
O5_2 O 0.95155(19) 0.42325(19) 0.68098(19)
O1_3 O 0.6116(2) 0.6715(2) 0.13296(18)
O2_3 O 0.54845(19) 0.57675(19) 0.18098(19)
N1_3 N 0.6949(2) 0.6861(2) 0.2488(2)
N2_3 N 0.7325(2) 0.6829(2) 0.3123(2)
O3_3 O 0.7163(2) 0.8238(2) 0.4056(2)
C1_3 C 0.5969(3) 0.6267(3) 0.1830(3)
C2_3 C 0.6469(3) 0.5926(3) 0.3151(3)
H1_3 H 0.6182 0.5527 0.3300
C3_3 C 0.7034(3) 0.6270(3) 0.3526(3)
H2_3 H 0.7193 0.6137 0.3990
C4_3 C 0.6428(3) 0.6318(3) 0.2494(3)
N3_3 N 0.6507(4) 0.9027(4) 0.3359(4)
C5_3 C 0.6623(4) 0.8447(5) 0.3712(3)
C6_3 C 0.5906(4) 0.7977(5) 0.3628(4)
H3_3 H 0.6023 0.7467 0.3511
H4_3 H 0.5614 0.7988 0.4072
C7_3 C 0.5513(5) 0.8328(5) 0.3035(5)
H5_3 H 0.4984 0.8330 0.3128
H6_3 H 0.5605 0.8069 0.2581
C8_3 C 0.5829(5) 0.9166(5) 0.2994(4)
H7_3 H 0.5902 0.9333 0.2497
H8_3 H 0.5518 0.9515 0.3255
C9_3 C 0.7077(5) 0.9628(5) 0.3382(7)
H9_3 H 0.7335 0.9609 0.3839
H11_3 H 0.7422 0.9560 0.2990
Cu2_3 Cu 0.49298(3) 0.55642(3) 0.09219(3)
Cu3_3 Cu 0.69358(3) 0.74298(3) 0.15781(3)
O4_3 O 0.8884(2) 0.8285(2) 0.36704(18)
N4_3 N 0.8051(2) 0.8139(2) 0.2512(2)
O5_3 O 0.04845(19) 0.07675(19) 0.68098(19)
O1_4 O 0.0785(2) 0.8616(2) 0.38296(18)
N1_4 N 0.0639(2) 0.9449(2) 0.4988(2)
N2_4 N 0.0671(2) 0.9825(2) 0.5623(2)
C1_4 C 0.1233(3) 0.8469(3) 0.4330(3)
C2_4 C 0.1574(3) 0.8969(3) 0.5651(3)
H1_4 H 0.1973 0.8682 0.5800
C3_4 C 0.1230(3) 0.9534(3) 0.6026(3)
H2_4 H 0.1363 0.9693 0.6490
C4_4 C 0.1182(3) 0.8928(3) 0.4994(3)
H3_4 H 0.0033 0.8523 0.6011
Cu3_4 Cu 0.00702(3) 0.94358(3) 0.40781(3)
Cu1_3 Cu 0.99298(3) 0.05642(3) 0.59219(3)
O4_4 O 0.9215(2) 0.1384(2) 0.61704(18)
N4_4 N 0.9361(2) 0.0551(2) 0.5012(2)
H5_4 H 0.0016 0.1670 0.8128
Cu1_4 Cu 0.69358(3) 0.24298(3) 0.84219(3)
O1_5 O 0.8884(2) 0.3285(2) 0.63296(18)
N1_5 N 0.8051(2) 0.3139(2) 0.7488(2)
N2_5 N 0.7675(2) 0.3171(2) 0.8123(2)
O3_4 O 0.7837(2) 0.1762(2) 0.9056(2)
C1_5 C 0.9031(3) 0.3733(3) 0.6830(3)
C2_5 C 0.8531(3) 0.4074(3) 0.8151(3)
H1_5 H 0.8818 0.4473 0.8300
C3_5 C 0.7966(3) 0.3730(3) 0.8526(3)
H2_5 H 0.7807 0.3863 0.8990
C4_5 C 0.8572(3) 0.3682(3) 0.7494(3)
N3_4 N 0.8493(4) 0.0973(4) 0.8359(4)
C5_4 C 0.8377(4) 0.1553(5) 0.8712(3)
C6_4 C 0.9094(4) 0.2023(5) 0.8628(4)
H3_5 H 0.8977 0.2533 0.8511
H4_4 H 0.9386 0.2012 0.9072
C7_4 C 0.9487(5) 0.1672(5) 0.8035(5)
H6_4 H 0.9395 0.1931 0.7581
C8_4 C 0.9171(5) 0.0834(5) 0.7994(4)
H7_4 H 0.9098 0.0667 0.7497
H8_4 H 0.9482 0.0485 0.8255
C9_4 C 0.7923(5) 0.0372(5) 0.8382(7)
H9_4 H 0.7665 0.0391 0.8839
H11_4 H 0.7578 0.0440 0.7990
Cu3_5 Cu 0.80642(3) 0.25702(3) 0.65781(3)
O4_5 O 0.6116(2) 0.1715(2) 0.86704(18)
O5_4 O 0.67325(19) 0.29845(19) 0.93098(19)
N4_5 N 0.6949(2) 0.1861(2) 0.7512(2)
O1_6 O 0.4215(2) 0.1384(2) 0.88296(18)
O2_4 O 0.32675(19) 0.20155(19) 0.93098(19)
N1_6 N 0.4361(2) 0.0551(2) 0.9988(2)
C1_6 C 0.3767(3) 0.1531(3) 0.9330(3)
C4_6 C 0.3818(3) 0.1072(3) 0.9994(3)
H7_5 H 0.6833 0.1598 0.9997
Cu2_4 Cu 0.30642(3) 0.25702(3) 0.84219(3)
Cu3_6 Cu 0.49298(3) 0.05642(3) 0.90781(3)
O4_6 O 0.5785(2) 0.8616(2) 0.11704(18)
N4_6 N 0.5639(2) 0.9449(2) 0.0012(2)
O1_7 O 0.1116(2) 0.1715(2) 0.63296(18)
N1_7 N 0.1949(2) 0.1861(2) 0.7488(2)
N2_6 N 0.2325(2) 0.1829(2) 0.8123(2)
O3_5 O 0.2163(2) 0.3238(2) 0.9056(2)
C1_7 C 0.0969(3) 0.1267(3) 0.6830(3)
C2_6 C 0.1469(3) 0.0926(3) 0.8151(3)
H1_6 H 0.1182 0.0527 0.8300
C3_6 C 0.2034(3) 0.1270(3) 0.8526(3)
H2_6 H 0.2193 0.1137 0.8990
C4_7 C 0.1428(3) 0.1318(3) 0.7494(3)
N3_5 N 0.1507(4) 0.4027(4) 0.8359(4)
C5_5 C 0.1623(4) 0.3447(5) 0.8712(3)
C6_5 C 0.0906(4) 0.2977(5) 0.8628(4)
H3_6 H 0.1023 0.2467 0.8511
H4_5 H 0.0614 0.2988 0.9072
C7_5 C 0.0513(5) 0.3328(5) 0.8035(5)
H6_5 H 0.0605 0.3069 0.7581
C8_5 C 0.0829(5) 0.4166(5) 0.7994(4)
H7_6 H 0.0902 0.4333 0.7497
H8_5 H 0.0518 0.4515 0.8255
C9_5 C 0.2077(5) 0.4628(5) 0.8382(7)
H9_5 H 0.2335 0.4609 0.8839
H10_3 H 0.1838 0.5100 0.8332
H11_5 H 0.2422 0.4560 0.7990
Cu3_7 Cu 0.19358(3) 0.24298(3) 0.65781(3)
O4_7 O 0.3884(2) 0.3285(2) 0.86704(18)
N4_7 N 0.3051(2) 0.3139(2) 0.7512(2)
H5_5 H 0.9984 0.3330 0.8128
N2_7 N 0.5671(2) 0.4825(2) 0.0623(2)
O3_6 O 0.4262(2) 0.4663(2) 0.1556(2)
C2_7 C 0.6574(3) 0.3969(3) 0.0651(3)
H1_7 H 0.6973 0.3682 0.0800
C3_7 C 0.6230(3) 0.4534(3) 0.1026(3)
H2_7 H 0.6363 0.4693 0.1490
N3_6 N 0.3473(4) 0.4007(4) 0.0859(4)
C5_6 C 0.4053(5) 0.4123(4) 0.1212(3)
C6_6 C 0.4523(5) 0.3406(4) 0.1128(4)
H3_7 H 0.5033 0.3523 0.1011
H4_6 H 0.4512 0.3114 0.1572
C7_6 C 0.4172(5) 0.3013(5) 0.0535(5)
H5_6 H 0.4170 0.2484 0.0628
H6_6 H 0.4431 0.3105 0.0081
C8_6 C 0.3334(5) 0.3329(5) 0.0494(4)
H8_6 H 0.2985 0.3018 0.0755
C9_6 C 0.2872(5) 0.4577(5) 0.0882(7)
H9_6 H 0.2891 0.4835 0.1339
H10_4 H 0.2400 0.4338 0.0832
H11_6 H 0.2940 0.4922 0.0490
O4_8 O 0.4215(2) 0.6384(2) 0.11704(18)
N4_8 N 0.4361(2) 0.5551(2) 0.0012(2)
O1_8 O 0.5785(2) 0.3616(2) 0.88296(18)
N1_8 N 0.5639(2) 0.4449(2) 0.9988(2)
C1_8 C 0.6233(3) 0.3469(3) 0.9330(3)
C4_8 C 0.6182(3) 0.3928(3) 0.9994(3)
H7_7 H 0.3167 0.3402 0.9997
Cu3_8 Cu 0.50702(3) 0.44358(3) 0.90781(3)
O2_5 O 0.54845(19) 0.07675(19) 0.81902(19)
N2_8 N 0.7325(2) 0.1829(2) 0.6877(2)
O3_7 O 0.7163(2) 0.3238(2) 0.5944(2)
C1_9 C 0.5969(3) 0.1267(3) 0.8170(3)
C2_8 C 0.6469(3) 0.0926(3) 0.6849(3)
H1_8 H 0.6182 0.0527 0.6700
C3_8 C 0.7034(3) 0.1270(3) 0.6474(3)
H2_8 H 0.7193 0.1137 0.6010
C4_9 C 0.6428(3) 0.1318(3) 0.7506(3)
N3_7 N 0.6507(4) 0.4027(4) 0.6641(4)
C5_7 C 0.6623(4) 0.3447(5) 0.6288(3)
C6_7 C 0.5906(4) 0.2977(5) 0.6372(4)
H3_8 H 0.6023 0.2467 0.6489
H4_7 H 0.5614 0.2988 0.5928
C7_7 C 0.5513(5) 0.3328(5) 0.6965(5)
H5_7 H 0.4984 0.3330 0.6872
H6_7 H 0.5605 0.3069 0.7419
C8_7 C 0.5829(5) 0.4166(5) 0.7006(4)
H7_8 H 0.5902 0.4333 0.7503
H8_7 H 0.5518 0.4515 0.6745
C9_7 C 0.7077(5) 0.4628(5) 0.6618(7)
H9_7 H 0.7335 0.4609 0.6161
H10_5 H 0.6838 0.5100 0.6668
H11_7 H 0.7422 0.4560 0.7010
O5_5 O 0.82675(19) 0.20155(19) 0.56902(19)
O2_6 O 0.17325(19) 0.29845(19) 0.56902(19)
N2_9 N 0.0671(2) 0.4825(2) 0.4377(2)
C1_10 C 0.1233(3) 0.3469(3) 0.5670(3)
C2_9 C 0.1574(3) 0.3969(3) 0.4349(3)
H1_9 H 0.1973 0.3682 0.4200
C3_9 C 0.1230(3) 0.4534(3) 0.3974(3)
H2_9 H 0.1363 0.4693 0.3510
C4_10 C 0.1182(3) 0.3928(3) 0.5006(3)
H3_9 H 0.0033 0.3523 0.3989
O5_6 O 0.04845(19) 0.57675(19) 0.31902(19)
O3_8 O 0.9262(2) 0.4663(2) 0.3444(2)
N3_8 N 0.8473(4) 0.4007(4) 0.4141(4)
C5_8 C 0.9053(5) 0.4123(4) 0.3788(3)
C6_8 C 0.9523(5) 0.3406(4) 0.3872(4)
H4_8 H 0.9512 0.3114 0.3428
C7_8 C 0.9172(5) 0.3013(5) 0.4465(5)
H5_8 H 0.9170 0.2484 0.4372
H6_8 H 0.9431 0.3105 0.4919
C8_8 C 0.8334(5) 0.3329(5) 0.4506(4)
H7_9 H 0.8167 0.3402 0.5003
H8_8 H 0.7985 0.3018 0.4245
C9_8 C 0.7872(5) 0.4577(5) 0.4118(7)
H9_8 H 0.7891 0.4835 0.3661
H10_6 H 0.7400 0.4338 0.4168
H11_8 H 0.7940 0.4922 0.4510
O2_7 O 0.45155(19) 0.42325(19) 0.81902(19)
N2_10 N 0.2675(2) 0.3171(2) 0.6877(2)
O3_9 O 0.2837(2) 0.1762(2) 0.5944(2)
C1_11 C 0.4031(3) 0.3733(3) 0.8170(3)
C2_10 C 0.3531(3) 0.4074(3) 0.6849(3)
H1_10 H 0.3818 0.4473 0.6700
C3_10 C 0.2966(3) 0.3730(3) 0.6474(3)
H2_10 H 0.2807 0.3863 0.6010
C4_11 C 0.3572(3) 0.3682(3) 0.7506(3)
N3_9 N 0.3493(4) 0.0973(4) 0.6641(4)
C5_9 C 0.3377(4) 0.1553(5) 0.6288(3)
C6_9 C 0.4094(4) 0.2023(5) 0.6372(4)
H3_10 H 0.3977 0.2533 0.6489
H4_9 H 0.4386 0.2012 0.5928
C7_9 C 0.4487(5) 0.1672(5) 0.6965(5)
H5_9 H 0.5016 0.1670 0.6872
H6_9 H 0.4395 0.1931 0.7419
C8_9 C 0.4171(5) 0.0834(5) 0.7006(4)
H7_10 H 0.4098 0.0667 0.7503
H8_9 H 0.4482 0.0485 0.6745
C9_9 C 0.2923(5) 0.0372(5) 0.6618(7)
H9_9 H 0.2665 0.0391 0.6161
H11_9 H 0.2578 0.0440 0.7010
N2_11 N 0.9329(2) 0.0175(2) 0.4377(2)
C1_12 C 0.8767(3) 0.1531(3) 0.5670(3)
C2_11 C 0.8426(3) 0.1031(3) 0.4349(3)
H1_11 H 0.8027 0.1318 0.4200
C3_11 C 0.8770(3) 0.0466(3) 0.3974(3)
H2_11 H 0.8637 0.0307 0.3510
C4_12 C 0.8818(3) 0.1072(3) 0.5006(3)
H3_11 H 0.9967 0.1477 0.3989
O5_7 O 0.95155(19) 0.92325(19) 0.31902(19)
N2_12 N 0.2325(2) 0.6829(2) 0.1877(2)
O3_10 O 0.2163(2) 0.8238(2) 0.0944(2)
C1_13 C 0.0969(3) 0.6267(3) 0.3170(3)
C2_12 C 0.1469(3) 0.5926(3) 0.1849(3)
H1_12 H 0.1182 0.5527 0.1700
C3_12 C 0.2034(3) 0.6270(3) 0.1474(3)
H2_12 H 0.2193 0.6137 0.1010
C4_13 C 0.1428(3) 0.6318(3) 0.2506(3)
N3_10 N 0.1507(4) 0.9027(4) 0.1641(4)
C5_10 C 0.1623(4) 0.8447(5) 0.1288(3)
C6_10 C 0.0906(4) 0.7977(5) 0.1372(4)
H3_12 H 0.1023 0.7467 0.1489
H4_10 H 0.0614 0.7988 0.0928
C7_10 C 0.0513(5) 0.8328(5) 0.1965(5)
H6_10 H 0.0605 0.8069 0.2419
C8_10 C 0.0829(5) 0.9166(5) 0.2006(4)
H7_11 H 0.0902 0.9333 0.2503
H8_10 H 0.0518 0.9515 0.1745
C9_10 C 0.2077(5) 0.9628(5) 0.1618(7)
H9_10 H 0.2335 0.9609 0.1161
H11_10 H 0.2422 0.9560 0.2010
O5_8 O 0.32675(19) 0.70155(19) 0.06902(19)
H5_10 H 0.9984 0.8330 0.1872
O2_8 O 0.67325(19) 0.79845(19) 0.06902(19)
C1_14 C 0.6233(3) 0.8469(3) 0.0670(3)
C4_14 C 0.6182(3) 0.8928(3) 0.0006(3)
H7_12 H 0.3167 0.8402 0.0003
H5_11 H 0.0016 0.6670 0.1872
N2_13 N 0.7675(2) 0.8171(2) 0.1877(2)
O3_11 O 0.7837(2) 0.6762(2) 0.0944(2)
C1_15 C 0.9031(3) 0.8733(3) 0.3170(3)
C2_13 C 0.8531(3) 0.9074(3) 0.1849(3)
H1_13 H 0.8818 0.9473 0.1700
C3_13 C 0.7966(3) 0.8730(3) 0.1474(3)
H2_13 H 0.7807 0.8863 0.1010
C4_15 C 0.8572(3) 0.8682(3) 0.2506(3)
N3_11 N 0.8493(4) 0.5973(4) 0.1641(4)
C5_11 C 0.8377(4) 0.6553(5) 0.1288(3)
C6_11 C 0.9094(4) 0.7023(5) 0.1372(4)
H3_13 H 0.8977 0.7533 0.1489
H4_11 H 0.9386 0.7012 0.0928
C7_11 C 0.9487(5) 0.6672(5) 0.1965(5)
H6_11 H 0.9395 0.6931 0.2419
C8_11 C 0.9171(5) 0.5834(5) 0.2006(4)
H7_13 H 0.9098 0.5667 0.2503
H8_11 H 0.9482 0.5485 0.1745
C9_11 C 0.7923(5) 0.5372(5) 0.1618(7)
H9_11 H 0.7665 0.5391 0.1161
H10_7 H 0.8162 0.4900 0.1668
H11_11 H 0.7578 0.5440 0.2010
C1_16 C 0.3767(3) 0.6531(3) 0.0670(3)
C4_16 C 0.3818(3) 0.6072(3) 0.0006(3)
H7_14 H 0.6833 0.6598 0.0003
N2_14 N 0.4329(2) 0.5175(2) 0.9377(2)
O3_12 O 0.5738(2) 0.5337(2) 0.8444(2)
C2_14 C 0.3426(3) 0.6031(3) 0.9349(3)
H1_14 H 0.3027 0.6318 0.9200
C3_14 C 0.3770(3) 0.5466(3) 0.8974(3)
H2_14 H 0.3637 0.5307 0.8510
N3_12 N 0.6527(4) 0.5993(4) 0.9141(4)
C5_12 C 0.5947(5) 0.5877(4) 0.8788(3)
C6_12 C 0.5477(5) 0.6594(4) 0.8872(4)
H3_14 H 0.4967 0.6477 0.8989
H4_12 H 0.5488 0.6886 0.8428
C7_12 C 0.5828(5) 0.6987(5) 0.9465(5)
H5_12 H 0.5830 0.7516 0.9372
H6_12 H 0.5569 0.6895 0.9919
C8_12 C 0.6666(5) 0.6671(5) 0.9506(4)
H8_12 H 0.7015 0.6982 0.9245
C9_12 C 0.7128(5) 0.5423(5) 0.9118(7)
H9_12 H 0.7109 0.5165 0.8661
H10_8 H 0.7600 0.5662 0.9168
H11_12 H 0.7060 0.5078 0.9510
H10_9 H 0.6838 0.0100 0.3332
O3_13 O 0.9262(2) 0.9663(2) 0.6556(2)
N3_13 N 0.8473(4) 0.9007(4) 0.5859(4)
C5_13 C 0.9053(5) 0.9123(4) 0.6212(3)
C6_13 C 0.9523(5) 0.8406(4) 0.6128(4)
H4_13 H 0.9512 0.8114 0.6572
C7_13 C 0.9172(5) 0.8013(5) 0.5535(5)
H5_13 H 0.9170 0.7484 0.5628
H6_13 H 0.9431 0.8105 0.5081
C8_13 C 0.8334(5) 0.8329(5) 0.5494(4)
H7_15 H 0.8167 0.8402 0.4997
H8_13 H 0.7985 0.8018 0.5755
C9_13 C 0.7872(5) 0.9577(5) 0.5882(7)
H9_13 H 0.7891 0.9835 0.6339
H10_10 H 0.7400 0.9338 0.5832
H11_13 H 0.7940 0.9922 0.5490
H10_11 H 0.8162 0.9900 0.8332
N2_15 N 0.4329(2) 0.0175(2) 0.0623(2)
O3_14 O 0.5738(2) 0.0337(2) 0.1556(2)
C2_15 C 0.3426(3) 0.1031(3) 0.0651(3)
H1_15 H 0.3027 0.1318 0.0800
C3_15 C 0.3770(3) 0.0466(3) 0.1026(3)
H2_15 H 0.3637 0.0307 0.1490
N3_14 N 0.6527(4) 0.0993(4) 0.0859(4)
C5_14 C 0.5947(5) 0.0877(4) 0.1212(3)
C6_14 C 0.5477(5) 0.1594(4) 0.1128(4)
H3_15 H 0.4967 0.1477 0.1011
H4_14 H 0.5488 0.1886 0.1572
C7_14 C 0.5828(5) 0.1987(5) 0.0535(5)
H5_14 H 0.5830 0.2516 0.0628
H6_14 H 0.5569 0.1895 0.0081
C8_14 C 0.6666(5) 0.1671(5) 0.0494(4)
H8_14 H 0.7015 0.1982 0.0755
C9_14 C 0.7128(5) 0.0423(5) 0.0882(7)
H9_14 H 0.7109 0.0165 0.1339
H10_12 H 0.7600 0.0662 0.0832
H11_14 H 0.7060 0.0078 0.0490
H10_13 H 0.3162 0.9900 0.6668
O3_15 O 0.0738(2) 0.0337(2) 0.3444(2)
N3_15 N 0.1527(4) 0.0993(4) 0.4141(4)
C5_15 C 0.0947(5) 0.0877(4) 0.3788(3)
C6_15 C 0.0477(5) 0.1594(4) 0.3872(4)
H4_15 H 0.0488 0.1886 0.3428
C7_15 C 0.0828(5) 0.1987(5) 0.4465(5)
H5_15 H 0.0830 0.2516 0.4372
H6_15 H 0.0569 0.1895 0.4919
C8_15 C 0.1666(5) 0.1671(5) 0.4506(4)
H7_16 H 0.1833 0.1598 0.5003
H8_15 H 0.2015 0.1982 0.4245
C9_15 C 0.2128(5) 0.0423(5) 0.4118(7)
H9_15 H 0.2109 0.0165 0.3661
H10_14 H 0.2600 0.0662 0.4168
H11_15 H 0.2060 0.0078 0.4510
H10_15 H 0.1838 0.0100 0.1668
N2_16 N 0.5671(2) 0.9825(2) 0.9377(2)
O3_16 O 0.4262(2) 0.9663(2) 0.8444(2)
C2_16 C 0.6574(3) 0.8969(3) 0.9349(3)
H1_16 H 0.6973 0.8682 0.9200
C3_16 C 0.6230(3) 0.9534(3) 0.8974(3)
H2_16 H 0.6363 0.9693 0.8510
N3_16 N 0.3473(4) 0.9007(4) 0.9141(4)
C5_16 C 0.4053(5) 0.9123(4) 0.8788(3)
C6_16 C 0.4523(5) 0.8406(4) 0.8872(4)
H3_16 H 0.5033 0.8523 0.8989
H4_16 H 0.4512 0.8114 0.8428
C7_16 C 0.4172(5) 0.8013(5) 0.9465(5)
H5_16 H 0.4170 0.7484 0.9372
H6_16 H 0.4431 0.8105 0.9919
C8_16 C 0.3334(5) 0.8329(5) 0.9506(4)
H8_16 H 0.2985 0.8018 0.9245
C9_16 C 0.2872(5) 0.9577(5) 0.9118(7)
H9_16 H 0.2891 0.9835 0.8661
H10_16 H 0.2400 0.9338 0.9168
H11_16 H 0.2940 0.9922 0.9510
loop_
_geom_bond_atom_site_label_1
_geom_bond_atom_site_label_2
_geom_bond_site_symmetry_1
_geom_bond_site_symmetry_2
Cu1 N2 1_555 1_555
O1 C1 1_555 1_555
O2 C1 1_555 1_555
N1 N2 1_555 1_555
N2 C3 1_555 1_555
O3 Cu1 1_555 1_555
C1 C4 1_555 1_555
C2 H1 1_555 1_555
C3 C2 1_555 1_555
H2 C3 1_555 1_555
C4 N1 1_555 1_555
N3 C5 1_555 1_555
C5 O3 1_555 1_555
C6 C5 1_555 1_555
H3 C6 1_555 1_555
H4 C6 1_555 1_555
C7 C6 1_555 1_555
H5 C7 1_555 1_555
H6 C7 1_555 1_555
C8 N3 1_555 1_555
H7 C8 1_555 1_555
H8 C8 1_555 1_555
C9 N3 1_555 1_555
H9 C9 1_555 1_555
H10 C9 1_555 1_555
H11 C9 1_555 1_555
Cu2 O2 1_555 1_555
Cu3 O1 1_555 1_555
O4 Cu1 1_555 1_555
O5 Cu1 1_555 1_555
N4 Cu1 1_555 1_555
N1 Cu3 1_555 1_555
C2 C4 1_555 1_555
C7 C8 1_555 1_555
O3_2 Cu1_2 1_555 1_555
N3_2 C5_2 1_555 1_555
C5_2 O3_2 1_555 1_555
C6_2 C5_2 1_555 1_555
H4_2 C6_2 1_555 1_555
C7_2 C6_2 1_555 1_555
H5_2 C7_2 1_555 1_555
H6_2 C7_2 1_555 1_555
C8_2 N3_2 1_555 1_555
H7_2 C8_2 1_555 1_555
H8_2 C8_2 1_555 1_555
C9_2 N3_2 1_555 1_555
H9_2 C9_2 1_555 1_555
H10_2 C9_2 1_555 1_555
H11_2 C9_2 1_555 1_555
O4_2 Cu1_2 1_555 1_555
N4_2 Cu1_2 1_555 1_555
C7_2 C8_2 1_555 1_555
O1_2 C1_2 1_555 1_555
O2_2 C1_2 1_555 1_555
N1_2 N2_2 1_555 1_555
N2_2 C3_2 1_555 1_555
C1_2 C4_2 1_555 1_555
C2_2 H1_2 1_555 1_555
C3_2 C2_2 1_555 1_555
H2_2 C3_2 1_555 1_555
C4_2 N1_2 1_555 1_555
Cu2_2 O2_2 1_555 1_555
Cu3_2 O1_2 1_555 1_555
N1_2 Cu3_2 1_555 1_555
C2_2 C4_2 1_555 1_555
Cu2_2 N2_3 1_555 1_555
O1_3 C1_3 1_555 1_555
O2_3 C1_3 1_555 1_555
N1_3 N2_3 1_555 1_555
N2_3 C3_3 1_555 1_555
O3_3 Cu2_2 1_555 1_555
C1_3 C4_3 1_555 1_555
C2_3 H1_3 1_555 1_555
C3_3 C2_3 1_555 1_555
H2_3 C3_3 1_555 1_555
C4_3 N1_3 1_555 1_555
N3_3 C5_3 1_555 1_555
C5_3 O3_3 1_555 1_555
C6_3 C5_3 1_555 1_555
H3_3 C6_3 1_555 1_555
H4_3 C6_3 1_555 1_555
C7_3 C6_3 1_555 1_555
H5_3 C7_3 1_555 1_555
H6_3 C7_3 1_555 1_555
C8_3 N3_3 1_555 1_555
H7_3 C8_3 1_555 1_555
H8_3 C8_3 1_555 1_555
C9_3 N3_3 1_555 1_555
H9_3 C9_3 1_555 1_555
H11_3 C9_3 1_555 1_555
Cu2_3 O2_3 1_555 1_555
Cu3_3 O1_3 1_555 1_555
O4_3 Cu2_2 1_555 1_555
N4_3 Cu2_2 1_555 1_555
N1_3 Cu3_3 1_555 1_555
C2_3 C4_3 1_555 1_555
C7_3 C8_3 1_555 1_555
O1_4 C1_4 1_555 1_555
O5 C1_4 1_555 1_555
N1_4 N2_4 1_555 1_555
N2_4 C3_4 1_555 1_555
C1_4 C4_4 1_555 1_555
C2_4 H1_4 1_555 1_555
C3_4 C2_4 1_555 1_555
H2_4 C3_4 1_555 1_555
C4_4 N1_4 1_555 1_555
Cu3_4 O1_4 1_555 1_555
N1_4 Cu3_4 1_555 1_555
C2_4 C4_4 1_555 1_555
O4_4 Cu1_3 1_555 1_555
N4_4 Cu1_3 1_555 1_555
Cu1_4 N2_5 1_555 1_555
O1_5 C1_5 1_555 1_555
O5_2 C1_5 1_555 1_555
N1_5 N2_5 1_555 1_555
N2_5 C3_5 1_555 1_555
O3_4 Cu1_4 1_555 1_555
C1_5 C4_5 1_555 1_555
C2_5 H1_5 1_555 1_555
C3_5 C2_5 1_555 1_555
H2_5 C3_5 1_555 1_555
C4_5 N1_5 1_555 1_555
N3_4 C5_4 1_555 1_555
C5_4 O3_4 1_555 1_555
C6_4 C5_4 1_555 1_555
H3_5 C6_4 1_555 1_555
H4_4 C6_4 1_555 1_555
C7_4 C6_4 1_555 1_555
H6_4 C7_4 1_555 1_555
C8_4 N3_4 1_555 1_555
H7_4 C8_4 1_555 1_555
H8_4 C8_4 1_555 1_555
C9_4 N3_4 1_555 1_555
H9_4 C9_4 1_555 1_555
H11_4 C9_4 1_555 1_555
Cu3_5 O1_5 1_555 1_555
O4_5 Cu1_4 1_555 1_555
O5_4 Cu1_4 1_555 1_555
N4_5 Cu1_4 1_555 1_555
N1_5 Cu3_5 1_555 1_555
C2_5 C4_5 1_555 1_555
C7_4 C8_4 1_555 1_555
O1_6 C1_6 1_555 1_555
O2_4 C1_6 1_555 1_555
C1_6 C4_6 1_555 1_555
C4_6 N1_6 1_555 1_555
Cu2_4 O2_4 1_555 1_555
Cu3_6 O1_6 1_555 1_555
N1_6 Cu3_6 1_555 1_555
O4_6 Cu2 1_555 1_555
N4_6 Cu2 1_555 1_555
Cu2_4 N2_6 1_555 1_555
O1_7 C1_7 1_555 1_555
O5_3 C1_7 1_555 1_555
N1_7 N2_6 1_555 1_555
N2_6 C3_6 1_555 1_555
O3_5 Cu2_4 1_555 1_555
C1_7 C4_7 1_555 1_555
C2_6 H1_6 1_555 1_555
C3_6 C2_6 1_555 1_555
H2_6 C3_6 1_555 1_555
C4_7 N1_7 1_555 1_555
N3_5 C5_5 1_555 1_555
C5_5 O3_5 1_555 1_555
C6_5 C5_5 1_555 1_555
H3_6 C6_5 1_555 1_555
H4_5 C6_5 1_555 1_555
C7_5 C6_5 1_555 1_555
H6_5 C7_5 1_555 1_555
C8_5 N3_5 1_555 1_555
H7_6 C8_5 1_555 1_555
H8_5 C8_5 1_555 1_555
C9_5 N3_5 1_555 1_555
H9_5 C9_5 1_555 1_555
H10_3 C9_5 1_555 1_555
H11_5 C9_5 1_555 1_555
Cu3_7 O1_7 1_555 1_555
O4_7 Cu2_4 1_555 1_555
N4_7 Cu2_4 1_555 1_555
N1_7 Cu3_7 1_555 1_555
C2_6 C4_7 1_555 1_555
C7_5 C8_5 1_555 1_555
Cu2_3 N2_7 1_555 1_555
N2_7 C3_7 1_555 1_555
O3_6 Cu2_3 1_555 1_555
C2_7 H1_7 1_555 1_555
C3_7 C2_7 1_555 1_555
H2_7 C3_7 1_555 1_555
N3_6 C5_6 1_555 1_555
C5_6 O3_6 1_555 1_555
C6_6 C5_6 1_555 1_555
H3_7 C6_6 1_555 1_555
H4_6 C6_6 1_555 1_555
C7_6 C6_6 1_555 1_555
H5_6 C7_6 1_555 1_555
H6_6 C7_6 1_555 1_555
C8_6 N3_6 1_555 1_555
H8_6 C8_6 1_555 1_555
C9_6 N3_6 1_555 1_555
H9_6 C9_6 1_555 1_555
H10_4 C9_6 1_555 1_555
H11_6 C9_6 1_555 1_555
O4_8 Cu2_3 1_555 1_555
N4_8 Cu2_3 1_555 1_555
C7_6 C8_6 1_555 1_555
O1_8 C1_8 1_555 1_555
O5_4 C1_8 1_555 1_555
C1_8 C4_8 1_555 1_555
C4_8 N1_8 1_555 1_555
Cu3_8 O1_8 1_555 1_555
N1_8 Cu3_8 1_555 1_555
Cu3_5 N2_8 1_555 1_555
O4_5 C1_9 1_555 1_555
O2_5 C1_9 1_555 1_555
N4_5 N2_8 1_555 1_555
N2_8 C3_8 1_555 1_555
O3_7 Cu3_5 1_555 1_555
C1_9 C4_9 1_555 1_555
C2_8 H1_8 1_555 1_555
C3_8 C2_8 1_555 1_555
H2_8 C3_8 1_555 1_555
C4_9 N4_5 1_555 1_555
N3_7 C5_7 1_555 1_555
C5_7 O3_7 1_555 1_555
C6_7 C5_7 1_555 1_555
H3_8 C6_7 1_555 1_555
H4_7 C6_7 1_555 1_555
C7_7 C6_7 1_555 1_555
H5_7 C7_7 1_555 1_555
H6_7 C7_7 1_555 1_555
C8_7 N3_7 1_555 1_555
H7_8 C8_7 1_555 1_555
H8_7 C8_7 1_555 1_555
C9_7 N3_7 1_555 1_555
H9_7 C9_7 1_555 1_555
H10_5 C9_7 1_555 1_555
H11_7 C9_7 1_555 1_555
Cu3_6 O2_5 1_555 1_555
O5_5 Cu3_5 1_555 1_555
C2_8 C4_9 1_555 1_555
C7_7 C8_7 1_555 1_555
O4_2 C1_10 1_555 1_555
O2_6 C1_10 1_555 1_555
N4_2 N2_9 1_555 1_555
N2_9 C3_9 1_555 1_555
C1_10 C4_10 1_555 1_555
C2_9 H1_9 1_555 1_555
C3_9 C2_9 1_555 1_555
H2_9 C3_9 1_555 1_555
C4_10 N4_2 1_555 1_555
Cu3_7 O2_6 1_555 1_555
C2_9 C4_10 1_555 1_555
O3_8 Cu3_2 1_555 1_555
N3_8 C5_8 1_555 1_555
C5_8 O3_8 1_555 1_555
C6_8 C5_8 1_555 1_555
H4_8 C6_8 1_555 1_555
C7_8 C6_8 1_555 1_555
H5_8 C7_8 1_555 1_555
H6_8 C7_8 1_555 1_555
C8_8 N3_8 1_555 1_555
H7_9 C8_8 1_555 1_555
H8_8 C8_8 1_555 1_555
C9_8 N3_8 1_555 1_555
H9_8 C9_8 1_555 1_555
H10_6 C9_8 1_555 1_555
H11_8 C9_8 1_555 1_555
C7_8 C8_8 1_555 1_555
Cu3_7 N2_10 1_555 1_555
O4_7 C1_11 1_555 1_555
O2_7 C1_11 1_555 1_555
N4_7 N2_10 1_555 1_555
N2_10 C3_10 1_555 1_555
O3_9 Cu3_7 1_555 1_555
C1_11 C4_11 1_555 1_555
C2_10 H1_10 1_555 1_555
C3_10 C2_10 1_555 1_555
H2_10 C3_10 1_555 1_555
C4_11 N4_7 1_555 1_555
N3_9 C5_9 1_555 1_555
C5_9 O3_9 1_555 1_555
C6_9 C5_9 1_555 1_555
H3_10 C6_9 1_555 1_555
H4_9 C6_9 1_555 1_555
C7_9 C6_9 1_555 1_555
H5_9 C7_9 1_555 1_555
H6_9 C7_9 1_555 1_555
C8_9 N3_9 1_555 1_555
H7_10 C8_9 1_555 1_555
H8_9 C8_9 1_555 1_555
C9_9 N3_9 1_555 1_555
H9_9 C9_9 1_555 1_555
H11_9 C9_9 1_555 1_555
Cu3_8 O2_7 1_555 1_555
C2_10 C4_11 1_555 1_555
C7_9 C8_9 1_555 1_555
O4_4 C1_12 1_555 1_555
O5_5 C1_12 1_555 1_555
N4_4 N2_11 1_555 1_555
N2_11 C3_11 1_555 1_555
C1_12 C4_12 1_555 1_555
C2_11 H1_11 1_555 1_555
C3_11 C2_11 1_555 1_555
H2_11 C3_11 1_555 1_555
C4_12 N4_4 1_555 1_555
C2_11 C4_12 1_555 1_555
Cu3 N2_12 1_555 1_555
O4 C1_13 1_555 1_555
O5_6 C1_13 1_555 1_555
N4 N2_12 1_555 1_555
N2_12 C3_12 1_555 1_555
O3_10 Cu3 1_555 1_555
C1_13 C4_13 1_555 1_555
C2_12 H1_12 1_555 1_555
C3_12 C2_12 1_555 1_555
H2_12 C3_12 1_555 1_555
C4_13 N4 1_555 1_555
N3_10 C5_10 1_555 1_555
C5_10 O3_10 1_555 1_555
C6_10 C5_10 1_555 1_555
H3_12 C6_10 1_555 1_555
H4_10 C6_10 1_555 1_555
C7_10 C6_10 1_555 1_555
H6_10 C7_10 1_555 1_555
C8_10 N3_10 1_555 1_555
H7_11 C8_10 1_555 1_555
H8_10 C8_10 1_555 1_555
C9_10 N3_10 1_555 1_555
H9_10 C9_10 1_555 1_555
H11_10 C9_10 1_555 1_555
O5_8 Cu3 1_555 1_555
C2_12 C4_13 1_555 1_555
C7_10 C8_10 1_555 1_555
O4_6 C1_14 1_555 1_555
O2_8 C1_14 1_555 1_555
C1_14 C4_14 1_555 1_555
C4_14 N4_6 1_555 1_555
Cu3_3 O2_8 1_555 1_555
Cu3_3 N2_13 1_555 1_555
O4_3 C1_15 1_555 1_555
O5_7 C1_15 1_555 1_555
N4_3 N2_13 1_555 1_555
N2_13 C3_13 1_555 1_555
O3_11 Cu3_3 1_555 1_555
C1_15 C4_15 1_555 1_555
C2_13 H1_13 1_555 1_555
C3_13 C2_13 1_555 1_555
H2_13 C3_13 1_555 1_555
C4_15 N4_3 1_555 1_555
N3_11 C5_11 1_555 1_555
C5_11 O3_11 1_555 1_555
C6_11 C5_11 1_555 1_555
H3_13 C6_11 1_555 1_555
H4_11 C6_11 1_555 1_555
C7_11 C6_11 1_555 1_555
H6_11 C7_11 1_555 1_555
C8_11 N3_11 1_555 1_555
H7_13 C8_11 1_555 1_555
H8_11 C8_11 1_555 1_555
C9_11 N3_11 1_555 1_555
H9_11 C9_11 1_555 1_555
H10_7 C9_11 1_555 1_555
H11_11 C9_11 1_555 1_555
C2_13 C4_15 1_555 1_555
C7_11 C8_11 1_555 1_555
O4_8 C1_16 1_555 1_555
O5_8 C1_16 1_555 1_555
C1_16 C4_16 1_555 1_555
C4_16 N4_8 1_555 1_555
Cu3_8 N2_14 1_555 1_555
N2_14 C3_14 1_555 1_555
O3_12 Cu3_8 1_555 1_555
C2_14 H1_14 1_555 1_555
C3_14 C2_14 1_555 1_555
H2_14 C3_14 1_555 1_555
N3_12 C5_12 1_555 1_555
C5_12 O3_12 1_555 1_555
C6_12 C5_12 1_555 1_555
H3_14 C6_12 1_555 1_555
H4_12 C6_12 1_555 1_555
C7_12 C6_12 1_555 1_555
H5_12 C7_12 1_555 1_555
H6_12 C7_12 1_555 1_555
C8_12 N3_12 1_555 1_555
H8_12 C8_12 1_555 1_555
C9_12 N3_12 1_555 1_555
H9_12 C9_12 1_555 1_555
H10_8 C9_12 1_555 1_555
H11_12 C9_12 1_555 1_555
C7_12 C8_12 1_555 1_555
N3_13 C5_13 1_555 1_555
C5_13 O3_13 1_555 1_555
C6_13 C5_13 1_555 1_555
H4_13 C6_13 1_555 1_555
C7_13 C6_13 1_555 1_555
H5_13 C7_13 1_555 1_555
H6_13 C7_13 1_555 1_555
C8_13 N3_13 1_555 1_555
H7_15 C8_13 1_555 1_555
H8_13 C8_13 1_555 1_555
C9_13 N3_13 1_555 1_555
H9_13 C9_13 1_555 1_555
H10_10 C9_13 1_555 1_555
H11_13 C9_13 1_555 1_555
C7_13 C8_13 1_555 1_555
N2_15 C3_15 1_555 1_555
C2_15 H1_15 1_555 1_555
C3_15 C2_15 1_555 1_555
H2_15 C3_15 1_555 1_555
N3_14 C5_14 1_555 1_555
C5_14 O3_14 1_555 1_555
C6_14 C5_14 1_555 1_555
H3_15 C6_14 1_555 1_555
H4_14 C6_14 1_555 1_555
C7_14 C6_14 1_555 1_555
H5_14 C7_14 1_555 1_555
H6_14 C7_14 1_555 1_555
C8_14 N3_14 1_555 1_555
H8_14 C8_14 1_555 1_555
C9_14 N3_14 1_555 1_555
H9_14 C9_14 1_555 1_555
H10_12 C9_14 1_555 1_555
H11_14 C9_14 1_555 1_555
C7_14 C8_14 1_555 1_555
N3_15 C5_15 1_555 1_555
C5_15 O3_15 1_555 1_555
C6_15 C5_15 1_555 1_555
H4_15 C6_15 1_555 1_555
C7_15 C6_15 1_555 1_555
H5_15 C7_15 1_555 1_555
H6_15 C7_15 1_555 1_555
C8_15 N3_15 1_555 1_555
H7_16 C8_15 1_555 1_555
H8_15 C8_15 1_555 1_555
C9_15 N3_15 1_555 1_555
H9_15 C9_15 1_555 1_555
H10_14 C9_15 1_555 1_555
H11_15 C9_15 1_555 1_555
C7_15 C8_15 1_555 1_555
N2_16 C3_16 1_555 1_555
C2_16 H1_16 1_555 1_555
C3_16 C2_16 1_555 1_555
H2_16 C3_16 1_555 1_555
N3_16 C5_16 1_555 1_555
C5_16 O3_16 1_555 1_555
C6_16 C5_16 1_555 1_555
H3_16 C6_16 1_555 1_555
H4_16 C6_16 1_555 1_555
C7_16 C6_16 1_555 1_555
H5_16 C7_16 1_555 1_555
H6_16 C7_16 1_555 1_555
C8_16 N3_16 1_555 1_555
H8_16 C8_16 1_555 1_555
C9_16 N3_16 1_555 1_555
H9_16 C9_16 1_555 1_555
H10_16 C9_16 1_555 1_555
H11_16 C9_16 1_555 1_555
C7_16 C8_16 1_555 1_555

#END
