
###############################################################################
#
# This file contains modified crystal structure data generated from the
# MOF subset of the Cambridge Structural Database (CSD) v543 
# hosted by the Cambridge Crystallographic Data Centre (CCDC).
#
# This work is licensed under the Creative Commons
# Attribution-NonCommercial-ShareAlike 4.0 International License.
# To view a copy of this license, visit
# http://creativecommons.org/licenses/by-nc-sa/4.0/
# or send a letter to
# Creative Commons, PO Box 1866, Mountain View, CA 94042, USA.
#
# CIF created using the CSD Python API on 29 September 2022
# The structure has been converted into the P1 space group
# The structure has a 3D framework
# The original CSD entry QOHTUD is in the monoclinic crystal system
# The framework has been calculated to contain at least 10.0% void space
# The void calculation uses a probe of radius 1.32A, grid spacing 0.4
#
###############################################################################

data_QOHTUD
_chemical_formula_moiety         '(C144 H144 Co8 N16 O48)n'
_symmetry_cell_setting           triclinic
_symmetry_space_group_name_H-M   'P 1'
_symmetry_Int_Tables_number      1
_space_group_name_Hall           'P 1'
loop_
_symmetry_equiv_pos_site_id
_symmetry_equiv_pos_as_xyz
1 x,y,z
_cell_length_a                   37.552(3)
_cell_length_b                   13.1257(9)
_cell_length_c                   9.4044(6)
_cell_angle_alpha                90
_cell_angle_beta                 103.218(2)
_cell_angle_gamma                90
_cell_volume                     4512.59
loop_
_atom_site_label
_atom_site_type_symbol
_atom_site_fract_x
_atom_site_fract_y
_atom_site_fract_z
H11 H 0.7092 0.0189 0.5585
O3 O 0.83368(5) 0.15509(14) 0.7206(2)
O4 O 0.85737(6) 0.13247(16) 0.9598(2)
C16 C 0.83358(7) 0.1165(2) 0.8435(3)
C17 C 0.80193(8) 0.0509(2) 0.8532(3)
H13 H 0.8027 0.0149 0.9402
C18 C 0.77270(7) 0.04098(19) 0.7438(3)
H14 H 0.7735 0.0713 0.6541
Co3 Co 0.862512(9) 0.28039(2) 0.67572(4)
Co1 Co 0.637488(9) 0.78039(2) 0.82428(4)
H4 H 0.7152 0.7420 0.9897
N2 N 0.59595(6) 0.68601(18) 0.8789(3)
C6 C 0.56239(8) 0.7189(2) 0.8774(4)
H5 H 0.5565 0.7868 0.8496
C7 C 0.53587(8) 0.6591(3) 0.9143(4)
H6 H 0.5127 0.6866 0.9124
C8 C 0.54318(9) 0.5588(3) 0.9541(5)
C9 C 0.57775(10) 0.5244(3) 0.9540(7)
H7 H 0.5841 0.4564 0.9787
C10 C 0.60304(9) 0.5892(3) 0.9181(6)
H8 H 0.6266 0.5639 0.9214
C12 C 0.51672(9) 0.4888(3) 0.9959(6)
O1 O 0.67813(5) 0.87054(14) 0.7688(2)
O2 O 0.64740(5) 0.94206(15) 0.5615(2)
C13 C 0.67597(7) 0.92878(19) 0.6608(3)
C14 C 0.70944(7) 0.98436(19) 0.6462(3)
C15 C 0.73974(7) 0.98712(19) 0.7527(3)
H12 H 0.7396 0.9516 0.8394
O5 O 0.60511(5) 0.78899(14) 0.6028(2)
H15 H 0.6144(7) 0.8426(13) 0.564(2)
H16 H 0.6127(8) 0.7363(13) 0.556(2)
O6 O 0.61160(5) 0.91777(14) 0.8741(2)
H17 H 0.6293(5) 0.9572(14) 0.926(3)
H18 H 0.6040(8) 0.9528(15) 0.7912(14)
H28 H 0.4754 0.5785 0.9809
O7 O 0.82187(5) 0.37054(14) 0.7312(2)
O9 O 0.85260(5) 0.44206(15) 0.9385(2)
C31 C 0.82403(7) 0.42878(19) 0.8392(3)
C32 C 0.79056(7) 0.48436(19) 0.8538(3)
H29 H 0.7908 0.5189 0.9415
C33 C 0.76026(7) 0.48712(19) 0.7473(3)
H30 H 0.7604 0.4516 0.6606
O10 O 0.66632(5) 0.65509(14) 0.7794(2)
O12 O 0.64263(6) 0.63247(16) 0.5402(2)
C34 C 0.66642(7) 0.6165(2) 0.6565(3)
C35 C 0.69807(8) 0.5509(2) 0.6468(3)
H31 H 0.6973 0.5149 0.5598
C36 C 0.72730(7) 0.54098(19) 0.7562(3)
H32 H 0.7265 0.5713 0.8459
N1 N 0.16862(6) 0.27454(16) 0.0418(2)
C1 C 0.15386(8) 0.2892(2) 0.1576(3)
H1 H 0.1288 0.3042 0.1407
C2 C 0.17367(8) 0.2834(2) 0.2992(3)
H2 H 0.1621 0.2943 0.3765
C3 C 0.21093(8) 0.26133(19) 0.3288(3)
C4 C 0.22614(7) 0.24580(19) 0.2069(3)
H3 H 0.2511 0.2306 0.2202
C5 C 0.20444(7) 0.2529(2) 0.0694(3)
C11 C 0.23206(8) 0.2564(2) 0.4792(3)
H9 H 0.2191 0.2628 0.5532
N3 N 0.33138(6) 0.22546(16) 0.9582(2)
C19 C 0.34614(8) 0.2108(2) 0.8424(3)
H19 H 0.3712 0.1958 0.8593
C20 C 0.32633(8) 0.2166(2) 0.7008(3)
H20 H 0.3379 0.2057 0.6235
C21 C 0.28907(8) 0.23867(19) 0.6712(3)
C22 C 0.27386(7) 0.25420(19) 0.7931(3)
H21 H 0.2489 0.2694 0.7798
C23 C 0.29556(7) 0.2471(2) 0.9306(3)
C29 C 0.26794(8) 0.2436(2) 0.5208(3)
H27 H 0.2809 0.2372 0.4468
N1_2 N 0.83138(6) 0.27454(16) 0.4582(2)
C1_2 C 0.84614(8) 0.2892(2) 0.3424(3)
H1_2 H 0.8712 0.3042 0.3593
C2_2 C 0.82633(8) 0.2834(2) 0.2008(3)
H2_2 H 0.8379 0.2943 0.1235
C3_2 C 0.78907(8) 0.26133(19) 0.1712(3)
C4_2 C 0.77386(7) 0.24580(19) 0.2931(3)
H3_2 H 0.7489 0.2306 0.2798
C5_2 C 0.79556(7) 0.2529(2) 0.4306(3)
H4_2 H 0.7848 0.2420 0.5103
N2_2 N 0.90405(6) 0.18601(18) 0.6211(3)
C6_2 C 0.93761(8) 0.2189(2) 0.6226(4)
H5_2 H 0.9435 0.2868 0.6504
C7_2 C 0.96413(8) 0.1591(3) 0.5857(4)
H6_2 H 0.9873 0.1866 0.5876
C8_2 C 0.95682(9) 0.0588(3) 0.5459(5)
C9_2 C 0.92225(10) 0.0244(3) 0.5460(7)
C10_2 C 0.89696(9) 0.0892(3) 0.5819(6)
H8_2 H 0.8734 0.0639 0.5786
C11_2 C 0.76794(8) 0.2564(2) 0.0208(3)
O5_2 O 0.89489(5) 0.28899(14) 0.8972(2)
H15_2 H 0.8856(7) 0.3426(13) 0.936(2)
H16_2 H 0.8873(8) 0.2363(13) 0.944(2)
O6_2 O 0.88840(5) 0.41777(14) 0.6259(2)
H17_2 H 0.8707(5) 0.4572(14) 0.574(3)
H18_2 H 0.8960(8) 0.4528(15) 0.7088(14)
H27_2 H 0.7191 0.2372 0.0532
H7_2 H 0.9159 0.9564 0.5213
C12_2 C 0.98328(9) 0.9888(3) 0.5041(6)
H10 H 0.9754 0.9215 0.4809
Co2 Co 0.862512(9) 0.71961(2) 0.17572(4)
H22 H 0.7848 0.7580 0.0103
N5 N 0.90405(6) 0.81399(18) 0.1211(3)
O8 O 0.82187(5) 0.62946(14) 0.2312(2)
O11 O 0.83368(5) 0.84491(14) 0.2206(2)
O13 O 0.89489(5) 0.71101(14) 0.3972(2)
H33 H 0.8856(7) 0.6574(13) 0.436(2)
H34 H 0.8873(8) 0.7637(13) 0.444(2)
O14 O 0.88840(5) 0.58223(14) 0.1259(2)
H35 H 0.8707(5) 0.5428(14) 0.074(3)
H36 H 0.8960(8) 0.5472(15) 0.2088(14)
Co1_2 Co 0.137488(9) 0.28039(2) 0.82428(4)
H4_3 H 0.2152 0.2420 0.9897
N2_3 N 0.09595(6) 0.18601(18) 0.8789(3)
C6_3 C 0.06239(8) 0.2189(2) 0.8774(4)
H5_3 H 0.0565 0.2868 0.8496
C7_3 C 0.03587(8) 0.1591(3) 0.9143(4)
H6_3 H 0.0127 0.1866 0.9124
C8_3 C 0.04318(9) 0.0588(3) 0.9541(5)
C9_3 C 0.07775(10) 0.0244(3) 0.9540(7)
C10_3 C 0.10304(9) 0.0892(3) 0.9181(6)
H8_3 H 0.1266 0.0639 0.9214
O1_2 O 0.17813(5) 0.37054(14) 0.7688(2)
O2_2 O 0.14740(5) 0.44206(15) 0.5615(2)
C13_2 C 0.17597(7) 0.42878(19) 0.6608(3)
C14_2 C 0.20944(7) 0.48436(19) 0.6462(3)
H11_2 H 0.2092 0.5189 0.5585
C15_2 C 0.23974(7) 0.48712(19) 0.7527(3)
H12_2 H 0.2396 0.4516 0.8394
O3_2 O 0.33368(5) 0.65509(14) 0.7206(2)
O4_2 O 0.35737(6) 0.63247(16) 0.9598(2)
C16_2 C 0.33358(7) 0.6165(2) 0.8435(3)
C17_2 C 0.30193(8) 0.5509(2) 0.8532(3)
H13_2 H 0.3027 0.5149 0.9402
C18_2 C 0.27270(7) 0.54098(19) 0.7438(3)
H14_2 H 0.2735 0.5713 0.6541
O5_3 O 0.10511(5) 0.28899(14) 0.6028(2)
H15_3 H 0.1144(7) 0.3426(13) 0.564(2)
H16_3 H 0.1127(8) 0.2363(13) 0.556(2)
O6_3 O 0.11160(5) 0.41777(14) 0.8741(2)
H17_3 H 0.1293(5) 0.4572(14) 0.926(3)
H18_3 H 0.1040(8) 0.4528(15) 0.7912(14)
Co3_2 Co 0.362512(9) 0.78039(2) 0.67572(4)
H29_2 H 0.2908 0.0189 0.9415
O10_2 O 0.16632(5) 0.15509(14) 0.7794(2)
O12_2 O 0.14263(6) 0.13247(16) 0.5402(2)
C34_2 C 0.16642(7) 0.1165(2) 0.6565(3)
C35_2 C 0.19807(8) 0.0509(2) 0.6468(3)
H31_2 H 0.1973 0.0149 0.5598
C36_2 C 0.22730(7) 0.04098(19) 0.7562(3)
H32_2 H 0.2265 0.0713 0.8459
H7_3 H 0.0841 0.9564 0.9787
C12_3 C 0.01672(9) 0.9888(3) 0.9959(6)
O7_2 O 0.32187(5) 0.87054(14) 0.7312(2)
O9_2 O 0.35260(5) 0.94206(15) 0.9385(2)
C31_2 C 0.32403(7) 0.92878(19) 0.8392(3)
C32_2 C 0.29056(7) 0.98436(19) 0.8538(3)
C33_2 C 0.26026(7) 0.98712(19) 0.7473(3)
H30_2 H 0.2604 0.9516 0.6606
H25 H 0.9159 0.0436 0.0213
C30 C 0.98328(9) 0.0112(3) 0.0041(6)
C24 C 0.93761(8) 0.7811(2) 0.1226(4)
H23 H 0.9435 0.7132 0.1504
C25 C 0.96413(8) 0.8409(3) 0.0857(4)
H24 H 0.9873 0.8134 0.0876
C26 C 0.95682(9) 0.9412(3) 0.0459(5)
C27 C 0.92225(10) 0.9756(3) 0.0460(7)
C28 C 0.89696(9) 0.9108(3) 0.0819(6)
H26 H 0.8734 0.9361 0.0786
N1_3 N 0.33138(6) 0.77454(16) 0.4582(2)
C1_3 C 0.34614(8) 0.7892(2) 0.3424(3)
H1_3 H 0.3712 0.8042 0.3593
C2_3 C 0.32633(8) 0.7834(2) 0.2008(3)
H2_3 H 0.3379 0.7943 0.1235
C3_3 C 0.28907(8) 0.76133(19) 0.1712(3)
C4_3 C 0.27386(7) 0.74580(19) 0.2931(3)
H3_3 H 0.2489 0.7306 0.2798
C5_3 C 0.29556(7) 0.7529(2) 0.4306(3)
H4_4 H 0.2848 0.7420 0.5103
N2_4 N 0.40405(6) 0.68601(18) 0.6211(3)
C6_4 C 0.43761(8) 0.7189(2) 0.6226(4)
H5_4 H 0.4435 0.7868 0.6504
C7_4 C 0.46413(8) 0.6591(3) 0.5857(4)
H6_4 H 0.4873 0.6866 0.5876
C8_4 C 0.45682(9) 0.5588(3) 0.5459(5)
C9_4 C 0.42225(10) 0.5244(3) 0.5460(7)
H7_4 H 0.4159 0.4564 0.5213
C10_4 C 0.39696(9) 0.5892(3) 0.5819(6)
H8_4 H 0.3734 0.5639 0.5786
C11_3 C 0.26794(8) 0.7564(2) 0.0208(3)
C12_4 C 0.48328(9) 0.4888(3) 0.5041(6)
H10_2 H 0.4754 0.4215 0.4809
O5_4 O 0.39489(5) 0.78899(14) 0.8972(2)
H15_4 H 0.3856(7) 0.8426(13) 0.936(2)
H16_4 H 0.3873(8) 0.7363(13) 0.944(2)
O6_4 O 0.38840(5) 0.91777(14) 0.6259(2)
H17_4 H 0.3707(5) 0.9572(14) 0.574(3)
H18_4 H 0.3960(8) 0.9528(15) 0.7088(14)
Co4 Co 0.637488(9) 0.21961(2) 0.32428(4)
N4 N 0.59595(6) 0.31399(18) 0.3789(3)
C24_2 C 0.56239(8) 0.2811(2) 0.3774(4)
H23_2 H 0.5565 0.2132 0.3496
C25_2 C 0.53587(8) 0.3409(3) 0.4143(4)
H24_2 H 0.5127 0.3134 0.4124
C26_2 C 0.54318(9) 0.4412(3) 0.4541(5)
C27_2 C 0.57775(10) 0.4756(3) 0.4540(7)
H25_2 H 0.5841 0.5436 0.4787
C28_2 C 0.60304(9) 0.4108(3) 0.4181(6)
H26_2 H 0.6266 0.4361 0.4214
H27_3 H 0.2191 0.7372 0.0532
C30_2 C 0.51672(9) 0.5112(3) 0.4959(6)
H28_2 H 0.5246 0.5785 0.5191
H9_2 H 0.7809 0.2628 0.9468
N3_2 N 0.66862(6) 0.22546(16) 0.5418(2)
C19_2 C 0.65386(8) 0.2108(2) 0.6576(3)
H19_2 H 0.6288 0.1958 0.6407
C20_2 C 0.67367(8) 0.2166(2) 0.7992(3)
H20_2 H 0.6621 0.2057 0.8765
C21_2 C 0.71093(8) 0.23867(19) 0.8288(3)
C22_2 C 0.72614(7) 0.25420(19) 0.7069(3)
H21_2 H 0.7511 0.2694 0.7202
C23_2 C 0.70444(7) 0.2471(2) 0.5694(3)
H22_2 H 0.7152 0.2580 0.4897
C29_2 C 0.73206(8) 0.2436(2) 0.9792(3)
O8_2 O 0.67813(5) 0.12946(14) 0.2688(2)
O11_2 O 0.66632(5) 0.34491(14) 0.2794(2)
O13_2 O 0.60511(5) 0.21101(14) 0.1028(2)
H33_2 H 0.6144(7) 0.1574(13) 0.064(2)
H34_2 H 0.6127(8) 0.2637(13) 0.056(2)
O14_2 O 0.61160(5) 0.08223(14) 0.3741(2)
H35_2 H 0.6293(5) 0.0428(14) 0.426(3)
H36_2 H 0.6040(8) 0.0472(15) 0.2912(14)
O9_3 O 0.64740(5) 0.05794(15) 0.0615(2)
C31_3 C 0.67597(7) 0.07122(19) 0.1608(3)
C32_3 C 0.70944(7) 0.01564(19) 0.1462(3)
C33_3 C 0.73974(7) 0.01288(19) 0.2527(3)
H30_3 H 0.7396 0.0484 0.3394
O2_3 O 0.85260(5) 0.55794(15) 0.4385(2)
C13_3 C 0.82403(7) 0.57122(19) 0.3392(3)
C14_3 C 0.79056(7) 0.51564(19) 0.3538(3)
H11_3 H 0.7908 0.4811 0.4415
C15_3 C 0.76026(7) 0.51288(19) 0.2473(3)
H12_3 H 0.7604 0.5484 0.1606
O4_3 O 0.64263(6) 0.36753(16) 0.0402(2)
C16_3 C 0.66642(7) 0.3835(2) 0.1565(3)
C17_3 C 0.69807(8) 0.4491(2) 0.1468(3)
H13_3 H 0.6973 0.4851 0.0598
C18_3 C 0.72730(7) 0.45902(19) 0.2562(3)
H14_3 H 0.7265 0.4287 0.3459
H29_3 H 0.7092 0.9811 0.0585
O12_3 O 0.85737(6) 0.86753(16) 0.4598(2)
C34_3 C 0.83358(7) 0.8835(2) 0.3435(3)
C35_3 C 0.80193(8) 0.9491(2) 0.3532(3)
H31_3 H 0.8027 0.9851 0.4402
C36_3 C 0.77270(7) 0.95902(19) 0.2438(3)
H32_3 H 0.7735 0.9287 0.1541
N1_4 N 0.66862(6) 0.77454(16) 0.0418(2)
C1_4 C 0.65386(8) 0.7892(2) 0.1576(3)
H1_4 H 0.6288 0.8042 0.1407
C2_4 C 0.67367(8) 0.7834(2) 0.2992(3)
H2_4 H 0.6621 0.7943 0.3765
C3_4 C 0.71093(8) 0.76133(19) 0.3288(3)
C4_4 C 0.72614(7) 0.74580(19) 0.2069(3)
H3_4 H 0.7511 0.7306 0.2202
C5_4 C 0.70444(7) 0.7529(2) 0.0694(3)
C11_4 C 0.73206(8) 0.7564(2) 0.4792(3)
H9_3 H 0.7191 0.7628 0.5532
H10_3 H 0.5246 0.4215 0.0191
Co4_2 Co 0.362512(9) 0.21961(2) 0.17572(4)
N3_3 N 0.83138(6) 0.72546(16) 0.9582(2)
C19_3 C 0.84614(8) 0.7108(2) 0.8424(3)
H19_3 H 0.8712 0.6958 0.8593
C20_3 C 0.82633(8) 0.7166(2) 0.7008(3)
H20_3 H 0.8379 0.7057 0.6235
C21_3 C 0.78907(8) 0.73867(19) 0.6712(3)
C22_3 C 0.77386(7) 0.75420(19) 0.7931(3)
H21_3 H 0.7489 0.7694 0.7798
C23_3 C 0.79556(7) 0.7471(2) 0.9306(3)
N4_2 N 0.40405(6) 0.31399(18) 0.1211(3)
C24_3 C 0.43761(8) 0.2811(2) 0.1226(4)
H23_3 H 0.4435 0.2132 0.1504
C25_3 C 0.46413(8) 0.3409(3) 0.0857(4)
H24_3 H 0.4873 0.3134 0.0876
C26_3 C 0.45682(9) 0.4412(3) 0.0459(5)
C27_3 C 0.42225(10) 0.4756(3) 0.0460(7)
H25_3 H 0.4159 0.5436 0.0213
C28_3 C 0.39696(9) 0.4108(3) 0.0819(6)
H26_3 H 0.3734 0.4361 0.0786
C29_3 C 0.76794(8) 0.7436(2) 0.5208(3)
H27_4 H 0.7809 0.7372 0.4468
C30_3 C 0.48328(9) 0.5112(3) 0.0041(6)
H22_3 H 0.2848 0.2580 0.0103
O8_3 O 0.32187(5) 0.12946(14) 0.2312(2)
O11_3 O 0.33368(5) 0.34491(14) 0.2206(2)
O13_3 O 0.39489(5) 0.21101(14) 0.3972(2)
H33_3 H 0.3856(7) 0.1574(13) 0.436(2)
H34_3 H 0.3873(8) 0.2637(13) 0.444(2)
O14_3 O 0.38840(5) 0.08223(14) 0.1259(2)
H35_3 H 0.3707(5) 0.0428(14) 0.074(3)
H36_3 H 0.3960(8) 0.0472(15) 0.2088(14)
H9_4 H 0.2809 0.7628 0.9468
Co2_2 Co 0.137488(9) 0.71961(2) 0.32428(4)
N3_4 N 0.16862(6) 0.72546(16) 0.5418(2)
C19_4 C 0.15386(8) 0.7108(2) 0.6576(3)
H19_4 H 0.1288 0.6958 0.6407
C20_4 C 0.17367(8) 0.7166(2) 0.7992(3)
H20_4 H 0.1621 0.7057 0.8765
C21_4 C 0.21093(8) 0.73867(19) 0.8288(3)
C22_4 C 0.22614(7) 0.75420(19) 0.7069(3)
H21_4 H 0.2511 0.7694 0.7202
C23_4 C 0.20444(7) 0.7471(2) 0.5694(3)
H22_4 H 0.2152 0.7580 0.4897
N5_2 N 0.09595(6) 0.81399(18) 0.3789(3)
C29_4 C 0.23206(8) 0.7436(2) 0.9792(3)
O8_4 O 0.17813(5) 0.62946(14) 0.2688(2)
O11_4 O 0.16632(5) 0.84491(14) 0.2794(2)
O13_4 O 0.10511(5) 0.71101(14) 0.1028(2)
H33_4 H 0.1144(7) 0.6574(13) 0.064(2)
H34_4 H 0.1127(8) 0.7637(13) 0.056(2)
O14_4 O 0.11160(5) 0.58223(14) 0.3741(2)
H35_4 H 0.1293(5) 0.5428(14) 0.426(3)
H36_4 H 0.1040(8) 0.5472(15) 0.2912(14)
H25_4 H 0.0841 0.0436 0.4787
C30_4 C 0.01672(9) 0.0112(3) 0.4959(6)
H28_3 H 0.0246 0.0785 0.5191
C24_4 C 0.06239(8) 0.7811(2) 0.3774(4)
H23_4 H 0.0565 0.7132 0.3496
C25_4 C 0.03587(8) 0.8409(3) 0.4143(4)
H24_4 H 0.0127 0.8134 0.4124
C26_4 C 0.04318(9) 0.9412(3) 0.4541(5)
C27_4 C 0.07775(10) 0.9756(3) 0.4540(7)
C28_4 C 0.10304(9) 0.9108(3) 0.4181(6)
H26_4 H 0.1266 0.9361 0.4214
O2_4 O 0.35260(5) 0.05794(15) 0.4385(2)
C13_4 C 0.32403(7) 0.07122(19) 0.3392(3)
C14_4 C 0.29056(7) 0.01564(19) 0.3538(3)
C15_4 C 0.26026(7) 0.01288(19) 0.2473(3)
H12_4 H 0.2604 0.0484 0.1606
O9_4 O 0.14740(5) 0.55794(15) 0.0615(2)
C31_4 C 0.17597(7) 0.57122(19) 0.1608(3)
C32_4 C 0.20944(7) 0.51564(19) 0.1462(3)
H29_4 H 0.2092 0.4811 0.0585
C33_4 C 0.23974(7) 0.51288(19) 0.2527(3)
H30_4 H 0.2396 0.5484 0.3394
O12_4 O 0.35737(6) 0.36753(16) 0.4598(2)
C34_4 C 0.33358(7) 0.3835(2) 0.3435(3)
C35_4 C 0.30193(8) 0.4491(2) 0.3532(3)
H31_4 H 0.3027 0.4851 0.4402
C36_4 C 0.27270(7) 0.45902(19) 0.2438(3)
H32_4 H 0.2735 0.4287 0.1541
H11_4 H 0.2908 0.9811 0.4415
O4_4 O 0.14263(6) 0.86753(16) 0.0402(2)
C16_4 C 0.16642(7) 0.8835(2) 0.1565(3)
C17_4 C 0.19807(8) 0.9491(2) 0.1468(3)
H13_4 H 0.1973 0.9851 0.0598
C18_4 C 0.22730(7) 0.95902(19) 0.2562(3)
H14_4 H 0.2265 0.9287 0.3459
H10_4 H 0.0246 0.9215 0.0191
H28_4 H 0.9754 0.0785 0.9809
loop_
_geom_bond_atom_site_label_1
_geom_bond_atom_site_label_2
_geom_bond_site_symmetry_1
_geom_bond_site_symmetry_2
O3 C16 1_555 1_555
O4 C16 1_555 1_555
C16 C17 1_555 1_555
C17 H13 1_555 1_555
H14 C18 1_555 1_555
Co3 O3 1_555 1_555
C17 C18 1_555 1_555
N2 Co1 1_555 1_555
C6 N2 1_555 1_555
H5 C6 1_555 1_555
C7 C6 1_555 1_555
H6 C7 1_555 1_555
C8 C7 1_555 1_555
C9 C8 1_555 1_555
H7 C9 1_555 1_555
C10 N2 1_555 1_555
H8 C10 1_555 1_555
C12 C8 1_555 1_555
O1 Co1 1_555 1_555
O2 C13 1_555 1_555
C13 O1 1_555 1_555
C14 C13 1_555 1_555
C15 C14 1_555 1_555
H12 C15 1_555 1_555
O5 Co1 1_555 1_555
H15 O5 1_555 1_555
H16 O5 1_555 1_555
O6 Co1 1_555 1_555
H17 O6 1_555 1_555
H18 O6 1_555 1_555
Co3 O7 1_555 1_555
O7 C31 1_555 1_555
O9 C31 1_555 1_555
C31 C32 1_555 1_555
C32 H29 1_555 1_555
C33 C32 1_555 1_555
H30 C33 1_555 1_555
O10 Co1 1_555 1_555
O12 C34 1_555 1_555
C34 O10 1_555 1_555
C35 C34 1_555 1_555
H31 C35 1_555 1_555
C36 C33 1_555 1_555
H32 C36 1_555 1_555
C9 C10 1_555 1_555
C35 C36 1_555 1_555
N1 C1 1_555 1_555
C1 H1 1_555 1_555
C2 C1 1_555 1_555
H2 C2 1_555 1_555
C3 C2 1_555 1_555
C4 C3 1_555 1_555
H3 C4 1_555 1_555
C5 N1 1_555 1_555
C11 C3 1_555 1_555
H9 C11 1_555 1_555
N3 C19 1_555 1_555
C19 H19 1_555 1_555
C20 C19 1_555 1_555
H20 C20 1_555 1_555
C21 C20 1_555 1_555
C22 C21 1_555 1_555
H21 C22 1_555 1_555
C23 N3 1_555 1_555
C29 C11 1_555 1_555
H27 C29 1_555 1_555
C4 C5 1_555 1_555
C21 C29 1_555 1_555
C22 C23 1_555 1_555
Co3 N1_2 1_555 1_555
N1_2 C1_2 1_555 1_555
C1_2 H1_2 1_555 1_555
C2_2 C1_2 1_555 1_555
H2_2 C2_2 1_555 1_555
C3_2 C2_2 1_555 1_555
C4_2 C3_2 1_555 1_555
H3_2 C4_2 1_555 1_555
C5_2 N1_2 1_555 1_555
H4_2 C5_2 1_555 1_555
N2_2 Co3 1_555 1_555
C6_2 N2_2 1_555 1_555
H5_2 C6_2 1_555 1_555
C7_2 C6_2 1_555 1_555
H6_2 C7_2 1_555 1_555
C8_2 C7_2 1_555 1_555
C9_2 C8_2 1_555 1_555
C10_2 N2_2 1_555 1_555
H8_2 C10_2 1_555 1_555
C11_2 C3_2 1_555 1_555
O5_2 Co3 1_555 1_555
H15_2 O5_2 1_555 1_555
H16_2 O5_2 1_555 1_555
O6_2 Co3 1_555 1_555
H17_2 O6_2 1_555 1_555
H18_2 O6_2 1_555 1_555
C4_2 C5_2 1_555 1_555
C9_2 C10_2 1_555 1_555
H10 C12_2 1_555 1_555
N5 Co2 1_555 1_555
O8 Co2 1_555 1_555
O11 Co2 1_555 1_555
O13 Co2 1_555 1_555
H33 O13 1_555 1_555
H34 O13 1_555 1_555
O14 Co2 1_555 1_555
H35 O14 1_555 1_555
H36 O14 1_555 1_555
N2_3 Co1_2 1_555 1_555
C6_3 N2_3 1_555 1_555
H5_3 C6_3 1_555 1_555
C7_3 C6_3 1_555 1_555
H6_3 C7_3 1_555 1_555
C8_3 C7_3 1_555 1_555
C9_3 C8_3 1_555 1_555
C10_3 N2_3 1_555 1_555
H8_3 C10_3 1_555 1_555
O1_2 Co1_2 1_555 1_555
O2_2 C13_2 1_555 1_555
C13_2 O1_2 1_555 1_555
C14_2 C13_2 1_555 1_555
H11_2 C14_2 1_555 1_555
C15_2 C14_2 1_555 1_555
H12_2 C15_2 1_555 1_555
O3_2 C16_2 1_555 1_555
O4_2 C16_2 1_555 1_555
C16_2 C17_2 1_555 1_555
C17_2 H13_2 1_555 1_555
C18_2 C15_2 1_555 1_555
H14_2 C18_2 1_555 1_555
O5_3 Co1_2 1_555 1_555
H15_3 O5_3 1_555 1_555
H16_3 O5_3 1_555 1_555
O6_3 Co1_2 1_555 1_555
H17_3 O6_3 1_555 1_555
H18_3 O6_3 1_555 1_555
Co3_2 O3_2 1_555 1_555
O10_2 Co1_2 1_555 1_555
O12_2 C34_2 1_555 1_555
C34_2 O10_2 1_555 1_555
C35_2 C34_2 1_555 1_555
H31_2 C35_2 1_555 1_555
H32_2 C36_2 1_555 1_555
C9_3 C10_3 1_555 1_555
C17_2 C18_2 1_555 1_555
C35_2 C36_2 1_555 1_555
Co3_2 O7_2 1_555 1_555
O7_2 C31_2 1_555 1_555
O9_2 C31_2 1_555 1_555
C31_2 C32_2 1_555 1_555
C33_2 C32_2 1_555 1_555
H30_2 C33_2 1_555 1_555
N5 C24 1_555 1_555
C24 H23 1_555 1_555
C25 C24 1_555 1_555
H24 C25 1_555 1_555
C26 C25 1_555 1_555
C27 C26 1_555 1_555
C28 N5 1_555 1_555
H26 C28 1_555 1_555
C27 C28 1_555 1_555
Co3_2 N1_3 1_555 1_555
N1_3 C1_3 1_555 1_555
C1_3 H1_3 1_555 1_555
C2_3 C1_3 1_555 1_555
H2_3 C2_3 1_555 1_555
C3_3 C2_3 1_555 1_555
C4_3 C3_3 1_555 1_555
H3_3 C4_3 1_555 1_555
C5_3 N1_3 1_555 1_555
H4_4 C5_3 1_555 1_555
N2_4 Co3_2 1_555 1_555
C6_4 N2_4 1_555 1_555
H5_4 C6_4 1_555 1_555
C7_4 C6_4 1_555 1_555
H6_4 C7_4 1_555 1_555
C8_4 C7_4 1_555 1_555
C9_4 C8_4 1_555 1_555
H7_4 C9_4 1_555 1_555
C10_4 N2_4 1_555 1_555
H8_4 C10_4 1_555 1_555
C11_3 C3_3 1_555 1_555
C12_4 C8_4 1_555 1_555
H10_2 C12_4 1_555 1_555
O5_4 Co3_2 1_555 1_555
H15_4 O5_4 1_555 1_555
H16_4 O5_4 1_555 1_555
O6_4 Co3_2 1_555 1_555
H17_4 O6_4 1_555 1_555
H18_4 O6_4 1_555 1_555
Co4 N4 1_555 1_555
N4 C24_2 1_555 1_555
C24_2 H23_2 1_555 1_555
C25_2 C24_2 1_555 1_555
H24_2 C25_2 1_555 1_555
C26_2 C25_2 1_555 1_555
C27_2 C26_2 1_555 1_555
H25_2 C27_2 1_555 1_555
C28_2 N4 1_555 1_555
H26_2 C28_2 1_555 1_555
C30_2 C12_4 1_555 1_555
H28_2 C30_2 1_555 1_555
C4_3 C5_3 1_555 1_555
C9_4 C10_4 1_555 1_555
C26_2 C30_2 1_555 1_555
C27_2 C28_2 1_555 1_555
Co4 N3_2 1_555 1_555
N3_2 C19_2 1_555 1_555
C19_2 H19_2 1_555 1_555
C20_2 C19_2 1_555 1_555
H20_2 C20_2 1_555 1_555
C21_2 C20_2 1_555 1_555
C22_2 C21_2 1_555 1_555
H21_2 C22_2 1_555 1_555
C23_2 N3_2 1_555 1_555
H22_2 C23_2 1_555 1_555
O8_2 Co4 1_555 1_555
O11_2 Co4 1_555 1_555
O13_2 Co4 1_555 1_555
H33_2 O13_2 1_555 1_555
H34_2 O13_2 1_555 1_555
O14_2 Co4 1_555 1_555
H35_2 O14_2 1_555 1_555
H36_2 O14_2 1_555 1_555
C21_2 C29_2 1_555 1_555
C22_2 C23_2 1_555 1_555
O8_2 C31_3 1_555 1_555
O9_3 C31_3 1_555 1_555
C31_3 C32_3 1_555 1_555
C33_3 C32_3 1_555 1_555
H30_3 C33_3 1_555 1_555
O2_3 C13_3 1_555 1_555
C13_3 O8 1_555 1_555
C14_3 C13_3 1_555 1_555
H11_3 C14_3 1_555 1_555
C15_3 C14_3 1_555 1_555
H12_3 C15_3 1_555 1_555
O11_2 C16_3 1_555 1_555
O4_3 C16_3 1_555 1_555
C16_3 C17_3 1_555 1_555
C17_3 H13_3 1_555 1_555
C18_3 C15_3 1_555 1_555
H14_3 C18_3 1_555 1_555
O12_3 C34_3 1_555 1_555
C34_3 O11 1_555 1_555
C35_3 C34_3 1_555 1_555
H31_3 C35_3 1_555 1_555
H32_3 C36_3 1_555 1_555
C17_3 C18_3 1_555 1_555
C35_3 C36_3 1_555 1_555
N1_4 C1_4 1_555 1_555
C1_4 H1_4 1_555 1_555
C2_4 C1_4 1_555 1_555
H2_4 C2_4 1_555 1_555
C3_4 C2_4 1_555 1_555
C4_4 C3_4 1_555 1_555
H3_4 C4_4 1_555 1_555
C5_4 N1_4 1_555 1_555
C11_4 C3_4 1_555 1_555
H9_3 C11_4 1_555 1_555
Co4_2 N4_2 1_555 1_555
N3_3 C19_3 1_555 1_555
C19_3 H19_3 1_555 1_555
C20_3 C19_3 1_555 1_555
H20_3 C20_3 1_555 1_555
C21_3 C20_3 1_555 1_555
C22_3 C21_3 1_555 1_555
H21_3 C22_3 1_555 1_555
C23_3 N3_3 1_555 1_555
N4_2 C24_3 1_555 1_555
C24_3 H23_3 1_555 1_555
C25_3 C24_3 1_555 1_555
H24_3 C25_3 1_555 1_555
C26_3 C25_3 1_555 1_555
C27_3 C26_3 1_555 1_555
H25_3 C27_3 1_555 1_555
C28_3 N4_2 1_555 1_555
H26_3 C28_3 1_555 1_555
C29_3 C11_4 1_555 1_555
H27_4 C29_3 1_555 1_555
C4_4 C5_4 1_555 1_555
C21_3 C29_3 1_555 1_555
C22_3 C23_3 1_555 1_555
C26_3 C30_3 1_555 1_555
C27_3 C28_3 1_555 1_555
O8_3 Co4_2 1_555 1_555
O11_3 Co4_2 1_555 1_555
O13_3 Co4_2 1_555 1_555
H33_3 O13_3 1_555 1_555
H34_3 O13_3 1_555 1_555
O14_3 Co4_2 1_555 1_555
H35_3 O14_3 1_555 1_555
H36_3 O14_3 1_555 1_555
Co2_2 N3_4 1_555 1_555
N3_4 C19_4 1_555 1_555
C19_4 H19_4 1_555 1_555
C20_4 C19_4 1_555 1_555
H20_4 C20_4 1_555 1_555
C21_4 C20_4 1_555 1_555
C22_4 C21_4 1_555 1_555
H21_4 C22_4 1_555 1_555
C23_4 N3_4 1_555 1_555
H22_4 C23_4 1_555 1_555
N5_2 Co2_2 1_555 1_555
O8_4 Co2_2 1_555 1_555
O11_4 Co2_2 1_555 1_555
O13_4 Co2_2 1_555 1_555
H33_4 O13_4 1_555 1_555
H34_4 O13_4 1_555 1_555
O14_4 Co2_2 1_555 1_555
H35_4 O14_4 1_555 1_555
H36_4 O14_4 1_555 1_555
C21_4 C29_4 1_555 1_555
C22_4 C23_4 1_555 1_555
H28_3 C30_4 1_555 1_555
N5_2 C24_4 1_555 1_555
C24_4 H23_4 1_555 1_555
C25_4 C24_4 1_555 1_555
H24_4 C25_4 1_555 1_555
C26_4 C25_4 1_555 1_555
C27_4 C26_4 1_555 1_555
C28_4 N5_2 1_555 1_555
H26_4 C28_4 1_555 1_555
C27_4 C28_4 1_555 1_555
O2_4 C13_4 1_555 1_555
C13_4 O8_3 1_555 1_555
C14_4 C13_4 1_555 1_555
C15_4 C14_4 1_555 1_555
H12_4 C15_4 1_555 1_555
O8_4 C31_4 1_555 1_555
O9_4 C31_4 1_555 1_555
C31_4 C32_4 1_555 1_555
C32_4 H29_4 1_555 1_555
C33_4 C32_4 1_555 1_555
H30_4 C33_4 1_555 1_555
O12_4 C34_4 1_555 1_555
C34_4 O11_3 1_555 1_555
C35_4 C34_4 1_555 1_555
H31_4 C35_4 1_555 1_555
C36_4 C33_4 1_555 1_555
H32_4 C36_4 1_555 1_555
C35_4 C36_4 1_555 1_555
O11_4 C16_4 1_555 1_555
O4_4 C16_4 1_555 1_555
C16_4 C17_4 1_555 1_555
C17_4 H13_4 1_555 1_555
H14_4 C18_4 1_555 1_555
C17_4 C18_4 1_555 1_555

#END
