
###############################################################################
#
# This file contains modified crystal structure data generated from the
# MOF subset of the Cambridge Structural Database (CSD) v543 
# hosted by the Cambridge Crystallographic Data Centre (CCDC).
#
# This work is licensed under the Creative Commons
# Attribution-NonCommercial-ShareAlike 4.0 International License.
# To view a copy of this license, visit
# http://creativecommons.org/licenses/by-nc-sa/4.0/
# or send a letter to
# Creative Commons, PO Box 1866, Mountain View, CA 94042, USA.
#
# CIF created using the CSD Python API on 29 September 2022
# The structure has been converted into the P1 space group
# The structure has a 3D framework
# The original CSD entry QOHTOX is in the orthorhombic crystal system
# The framework has been calculated to contain at least 10.0% void space
# The void calculation uses a probe of radius 1.32A, grid spacing 0.4
#
###############################################################################

data_QOHTOX
_chemical_formula_moiety         '(C144 H112 Co8 N16 O30)n'
_symmetry_cell_setting           triclinic
_symmetry_space_group_name_H-M   'P 1'
_symmetry_Int_Tables_number      1
_space_group_name_Hall           'P 1'
loop_
_symmetry_equiv_pos_site_id
_symmetry_equiv_pos_as_xyz
1 x,y,z
_cell_length_a                   13.7170(6)
_cell_length_b                   14.7878(6)
_cell_length_c                   21.0282(8)
_cell_angle_alpha                90
_cell_angle_beta                 90
_cell_angle_gamma                90
_cell_volume                     4265.45
loop_
_atom_site_label
_atom_site_type_symbol
_atom_site_fract_x
_atom_site_fract_y
_atom_site_fract_z
N2 N 0.3121(3) 0.0904(2) 0.43388(17)
C6 C 0.2678(3) 0.0521(3) 0.3839(2)
H5 H 0.3070 0.0284 0.3512
C7 C 0.1683(3) 0.0453(3) 0.3777(2)
H6 H 0.1412 0.0179 0.3414
C8 C 0.1076(3) 0.0789(3) 0.4252(2)
C9 C 0.1533(3) 0.1179(3) 0.4773(2)
H7 H 0.1160 0.1417 0.5109
C10 C 0.2534(3) 0.1217(3) 0.4797(2)
H8 H 0.2824 0.1478 0.5158
C12 C 0.0019(3) 0.0731(3) 0.4181(2)
Co2 Co 0.46908(4) 0.09976(4) 0.43806(3)
N1 N 0.6257(3) 0.1025(2) 0.44423(16)
C1 C 0.6821(3) 0.0614(3) 0.4004(2)
H1 H 0.6511 0.0323 0.3662
C2 C 0.7818(3) 0.0594(3) 0.4027(2)
H2 H 0.8172 0.0293 0.3708
C3 C 0.8309(3) 0.1022(3) 0.4525(2)
C4 C 0.7736(3) 0.1453(3) 0.4977(2)
H3 H 0.8028 0.1750 0.5323
C5 C 0.6738(3) 0.1443(3) 0.4914(2)
H4 H 0.6368 0.1749 0.5223
C11 C 0.9366(3) 0.1053(3) 0.4595(2)
H9 H 0.9611 0.1325 0.4966
H10 H 0.9779 0.0444 0.3815
O1 O 0.4741(2) 0.1477(2) 0.34240(15)
O2 O 0.4705(3) 0.2511(2) 0.41648(15)
C13 C 0.4736(3) 0.2306(3) 0.3588(2)
C14 C 0.4783(3) 0.3017(3) 0.3096(2)
H11 H 0.4829 0.3623 0.3226
C15 C 0.4764(3) 0.2837(3) 0.2473(2)
H12 H 0.4697 0.2229 0.2351
O3 O 0.4556(2) 0.3729(2) 0.03115(15)
O4 O 0.5265(2) 0.4721(2) 0.09688(14)
C16 C 0.4882(3) 0.3980(3) 0.0841(2)
C17 C 0.4795(4) 0.3302(3) 0.1363(2)
H13 H 0.4705 0.2693 0.1249
C18 C 0.4838(3) 0.3503(3) 0.1974(2)
H14 H 0.4921 0.4112 0.2090
Co4 Co 0.53092(4) 0.59976(4) 0.06194(3)
O5 O 0.4556(2) 0.1271(2) 0.53115(15)
Co3 Co 0.46908(4) 0.40024(4) 0.93806(3)
O6 O 0.4735(2) 0.9721(2) 0.40312(14)
N1_2 N 0.3743(3) 0.6025(2) 0.05577(16)
C1_2 C 0.3179(3) 0.5614(3) 0.0996(2)
H1_2 H 0.3489 0.5323 0.1338
C2_2 C 0.2182(3) 0.5594(3) 0.0973(2)
H2_2 H 0.1828 0.5293 0.1292
C3_2 C 0.1691(3) 0.6022(3) 0.0475(2)
C4_2 C 0.2264(3) 0.6453(3) 0.0023(2)
C5_2 C 0.3262(3) 0.6443(3) 0.0086(2)
C11_2 C 0.0634(3) 0.6053(3) 0.0405(2)
H9_2 H 0.0389 0.6325 0.0034
H10_2 H 0.0221 0.5444 0.1185
O1_2 O 0.5259(2) 0.6477(2) 0.15760(15)
O2_2 O 0.5295(3) 0.7511(2) 0.08352(15)
C13_2 C 0.5264(3) 0.7306(3) 0.1412(2)
C14_2 C 0.5217(3) 0.8017(3) 0.1904(2)
H11_2 H 0.5171 0.8623 0.1774
C15_2 C 0.5236(3) 0.7837(3) 0.2527(2)
H12_2 H 0.5303 0.7229 0.2649
O3_2 O 0.5444(2) 0.8729(2) 0.46885(15)
C16_2 C 0.5118(3) 0.8980(3) 0.4159(2)
C17_2 C 0.5205(4) 0.8302(3) 0.3637(2)
H13_2 H 0.5295 0.7693 0.3751
C18_2 C 0.5162(3) 0.8503(3) 0.3026(2)
H14_2 H 0.5079 0.9112 0.2910
Co3_2 Co 0.53092(4) 0.90024(4) 0.56194(3)
N3 N 0.6879(3) 0.5904(2) 0.06612(17)
H3_2 H 0.1972 0.6750 0.9677
H4_2 H 0.3632 0.6749 0.9777
O5_2 O 0.5444(2) 0.6271(2) 0.96885(15)
C6_2 C 0.7322(3) 0.5521(3) 0.1161(2)
H5_2 H 0.6930 0.5284 0.1488
C7_2 C 0.8317(3) 0.5453(3) 0.1223(2)
H6_2 H 0.8588 0.5179 0.1586
C8_2 C 0.8924(3) 0.5789(3) 0.0748(2)
C9_2 C 0.8467(3) 0.6179(3) 0.0227(2)
C10_2 C 0.7466(3) 0.6217(3) 0.0203(2)
C12_2 C 0.9981(3) 0.5731(3) 0.0819(2)
O6_2 O 0.5265(2) 0.0279(2) 0.59688(14)
N1_3 N 0.3743(3) 0.8975(2) 0.55577(16)
C1_3 C 0.3179(3) 0.9386(3) 0.5996(2)
H1_3 H 0.3489 0.9677 0.6338
C2_3 C 0.2182(3) 0.9406(3) 0.5973(2)
H2_3 H 0.1828 0.9707 0.6292
C3_3 C 0.1691(3) 0.8978(3) 0.5475(2)
C4_3 C 0.2264(3) 0.8547(3) 0.5023(2)
H3_3 H 0.1972 0.8250 0.4677
C5_3 C 0.3262(3) 0.8557(3) 0.5086(2)
H4_3 H 0.3632 0.8251 0.4777
C11_3 C 0.0634(3) 0.8947(3) 0.5405(2)
H9_3 H 0.0389 0.8675 0.5034
H10_3 H 0.0221 0.9556 0.6185
O1_3 O 0.5259(2) 0.8523(2) 0.65760(15)
O2_3 O 0.5295(3) 0.7489(2) 0.58352(15)
C13_3 C 0.5264(3) 0.7694(3) 0.6412(2)
C14_3 C 0.5217(3) 0.6983(3) 0.6904(2)
H11_3 H 0.5171 0.6377 0.6774
C15_3 C 0.5236(3) 0.7163(3) 0.7527(2)
H12_3 H 0.5303 0.7771 0.7649
O4_2 O 0.4735(2) 0.5279(2) 0.90312(14)
C16_3 C 0.5118(3) 0.6020(3) 0.9159(2)
C17_3 C 0.5205(4) 0.6698(3) 0.8637(2)
H13_3 H 0.5295 0.7307 0.8751
C18_3 C 0.5162(3) 0.6497(3) 0.8026(2)
H14_3 H 0.5079 0.5888 0.7910
N3_2 N 0.6879(3) 0.9096(2) 0.56612(17)
C6_3 C 0.7322(3) 0.9479(3) 0.6161(2)
H5_3 H 0.6930 0.9716 0.6488
C7_3 C 0.8317(3) 0.9547(3) 0.6223(2)
H6_3 H 0.8588 0.9821 0.6586
C8_3 C 0.8924(3) 0.9211(3) 0.5748(2)
C9_3 C 0.8467(3) 0.8821(3) 0.5227(2)
H7_2 H 0.8840 0.8583 0.4891
C10_3 C 0.7466(3) 0.8783(3) 0.5203(2)
H8_2 H 0.7176 0.8522 0.4842
C12_3 C 0.9981(3) 0.9269(3) 0.5819(2)
N2_2 N 0.3121(3) 0.4096(2) 0.93388(17)
C6_4 C 0.2678(3) 0.4479(3) 0.8839(2)
H5_4 H 0.3070 0.4716 0.8512
C7_4 C 0.1683(3) 0.4547(3) 0.8777(2)
H6_4 H 0.1412 0.4821 0.8414
C8_4 C 0.1076(3) 0.4211(3) 0.9252(2)
C9_4 C 0.1533(3) 0.3821(3) 0.9773(2)
C10_4 C 0.2534(3) 0.3783(3) 0.9797(2)
C12_4 C 0.0019(3) 0.4269(3) 0.9181(2)
H3_4 H 0.8028 0.3250 0.0323
H4_4 H 0.6368 0.3251 0.0223
N1_4 N 0.6257(3) 0.3975(2) 0.94423(16)
C1_4 C 0.6821(3) 0.4386(3) 0.9004(2)
H1_4 H 0.6511 0.4677 0.8662
C2_4 C 0.7818(3) 0.4406(3) 0.9027(2)
H2_4 H 0.8172 0.4707 0.8708
C3_4 C 0.8309(3) 0.3978(3) 0.9525(2)
C4_4 C 0.7736(3) 0.3547(3) 0.9977(2)
C5_4 C 0.6738(3) 0.3557(3) 0.9914(2)
C11_4 C 0.9366(3) 0.3947(3) 0.9595(2)
H9_4 H 0.9611 0.3675 0.9966
H10_4 H 0.9779 0.4556 0.8815
O1_4 O 0.4741(2) 0.3523(2) 0.84240(15)
O2_4 O 0.4705(3) 0.2489(2) 0.91648(15)
C13_4 C 0.4736(3) 0.2694(3) 0.8588(2)
C14_4 C 0.4783(3) 0.1983(3) 0.8096(2)
H11_4 H 0.4829 0.1377 0.8226
C15_4 C 0.4764(3) 0.2163(3) 0.7473(2)
H12_4 H 0.4697 0.2771 0.7351
C16_4 C 0.4882(3) 0.1020(3) 0.5841(2)
C17_4 C 0.4795(4) 0.1698(3) 0.6363(2)
H13_4 H 0.4705 0.2307 0.6249
C18_4 C 0.4838(3) 0.1497(3) 0.6974(2)
H14_4 H 0.4921 0.0888 0.7090
O6_3 O 0.0265(2) 0.0279(2) 0.90312(14)
O5_3 O 0.0444(2) 0.8729(2) 0.03115(15)
Co1 Co 0.03092(4) 0.90024(4) 0.93806(3)
O1_5 O 0.0259(2) 0.8523(2) 0.84240(15)
O2_5 O 0.0295(3) 0.7489(2) 0.91648(15)
C13_5 C 0.0264(3) 0.7694(3) 0.8588(2)
C14_5 C 0.0217(3) 0.6983(3) 0.8096(2)
H11_5 H 0.0171 0.6377 0.8226
C15_5 C 0.0236(3) 0.7163(3) 0.7473(2)
H12_5 H 0.0303 0.7771 0.7351
O3_3 O 0.0444(2) 0.6271(2) 0.53115(15)
C16_5 C 0.0118(3) 0.6020(3) 0.5841(2)
C17_5 C 0.0205(4) 0.6698(3) 0.6363(2)
H13_5 H 0.0295 0.7307 0.6249
C18_5 C 0.0162(3) 0.6497(3) 0.6974(2)
H14_5 H 0.0079 0.5888 0.7090
Co3_3 Co 0.03092(4) 0.59976(4) 0.43806(3)
N3_3 N 0.1879(3) 0.9096(2) 0.93388(17)
N1_5 N 0.8743(3) 0.8975(2) 0.94423(16)
C1_5 C 0.8179(3) 0.9386(3) 0.9004(2)
H1_5 H 0.8489 0.9677 0.8662
C2_5 C 0.7182(3) 0.9406(3) 0.9027(2)
H2_5 H 0.6828 0.9707 0.8708
C3_5 C 0.6691(3) 0.8978(3) 0.9525(2)
C4_5 C 0.7264(3) 0.8547(3) 0.9977(2)
C5_5 C 0.8262(3) 0.8557(3) 0.9914(2)
C6_5 C 0.2322(3) 0.9479(3) 0.8839(2)
H5_5 H 0.1930 0.9716 0.8512
C7_5 C 0.3317(3) 0.9547(3) 0.8777(2)
H6_5 H 0.3588 0.9821 0.8414
C8_5 C 0.3924(3) 0.9211(3) 0.9252(2)
C9_5 C 0.3467(3) 0.8821(3) 0.9773(2)
C10_5 C 0.2466(3) 0.8783(3) 0.9797(2)
C11_5 C 0.5634(3) 0.8947(3) 0.9595(2)
H9_5 H 0.5389 0.8675 0.9966
C12_5 C 0.4981(3) 0.9269(3) 0.9181(2)
H10_5 H 0.5221 0.9556 0.8815
O4_3 O 0.9735(2) 0.5279(2) 0.59688(14)
Co4_2 Co 0.96908(4) 0.40024(4) 0.56194(3)
N1_6 N 0.1257(3) 0.3975(2) 0.55577(16)
C1_6 C 0.1821(3) 0.4386(3) 0.5996(2)
H1_6 H 0.1511 0.4677 0.6338
C2_6 C 0.2818(3) 0.4406(3) 0.5973(2)
H2_6 H 0.3172 0.4707 0.6292
C3_6 C 0.3309(3) 0.3978(3) 0.5475(2)
C4_6 C 0.2736(3) 0.3547(3) 0.5023(2)
H3_5 H 0.3028 0.3250 0.4677
C5_6 C 0.1738(3) 0.3557(3) 0.5086(2)
H4_5 H 0.1368 0.3251 0.4777
N2_3 N 0.8121(3) 0.4096(2) 0.56612(17)
C6_6 C 0.7678(3) 0.4479(3) 0.6161(2)
H5_6 H 0.8070 0.4716 0.6488
C7_6 C 0.6683(3) 0.4547(3) 0.6223(2)
H6_6 H 0.6412 0.4821 0.6586
C8_6 C 0.6076(3) 0.4211(3) 0.5748(2)
C9_6 C 0.6533(3) 0.3821(3) 0.5227(2)
H7_3 H 0.6160 0.3583 0.4891
C10_6 C 0.7534(3) 0.3783(3) 0.5203(2)
H8_3 H 0.7824 0.3522 0.4842
C11_6 C 0.4366(3) 0.3947(3) 0.5405(2)
H9_6 H 0.4611 0.3675 0.5034
C12_6 C 0.5019(3) 0.4269(3) 0.5819(2)
H10_6 H 0.4779 0.4556 0.6185
Co3_4 Co 0.96908(4) 0.09976(4) 0.06194(3)
O1_6 O 0.9741(2) 0.3523(2) 0.65760(15)
O2_6 O 0.9705(3) 0.2489(2) 0.58352(15)
C13_6 C 0.9736(3) 0.2694(3) 0.6412(2)
C14_6 C 0.9783(3) 0.1983(3) 0.6904(2)
H11_6 H 0.9829 0.1377 0.6774
C15_6 C 0.9764(3) 0.2163(3) 0.7527(2)
H12_6 H 0.9697 0.2771 0.7649
O3_4 O 0.9556(2) 0.1271(2) 0.96885(15)
C16_6 C 0.9882(3) 0.1020(3) 0.9159(2)
C17_6 C 0.9795(4) 0.1698(3) 0.8637(2)
H13_6 H 0.9705 0.2307 0.8751
C18_6 C 0.9838(3) 0.1497(3) 0.8026(2)
H14_6 H 0.9921 0.0888 0.7910
O5_4 O 0.9556(2) 0.3729(2) 0.46885(15)
N1_7 N 0.1257(3) 0.1025(2) 0.05577(16)
C1_7 C 0.1821(3) 0.0614(3) 0.0996(2)
H1_7 H 0.1511 0.0323 0.1338
C2_7 C 0.2818(3) 0.0594(3) 0.0973(2)
H2_7 H 0.3172 0.0293 0.1292
C3_7 C 0.3309(3) 0.1022(3) 0.0475(2)
C4_7 C 0.2736(3) 0.1453(3) 0.0023(2)
C5_7 C 0.1738(3) 0.1443(3) 0.0086(2)
N2_4 N 0.8121(3) 0.0904(2) 0.06612(17)
C6_7 C 0.7678(3) 0.0521(3) 0.1161(2)
H5_7 H 0.8070 0.0284 0.1488
C7_7 C 0.6683(3) 0.0453(3) 0.1223(2)
H6_7 H 0.6412 0.0179 0.1586
C8_7 C 0.6076(3) 0.0789(3) 0.0748(2)
C9_7 C 0.6533(3) 0.1179(3) 0.0227(2)
C10_7 C 0.7534(3) 0.1217(3) 0.0203(2)
C11_7 C 0.4366(3) 0.1053(3) 0.0405(2)
H9_7 H 0.4611 0.1325 0.0034
C12_7 C 0.5019(3) 0.0731(3) 0.0819(2)
H10_7 H 0.4779 0.0444 0.1185
O4_4 O 0.0265(2) 0.4721(2) 0.40312(14)
O1_7 O 0.9741(2) 0.1477(2) 0.15760(15)
O2_7 O 0.9705(3) 0.2511(2) 0.08352(15)
C13_7 C 0.9736(3) 0.2306(3) 0.1412(2)
C14_7 C 0.9783(3) 0.3017(3) 0.1904(2)
H11_7 H 0.9829 0.3623 0.1774
C15_7 C 0.9764(3) 0.2837(3) 0.2527(2)
H12_7 H 0.9697 0.2229 0.2649
C16_7 C 0.9882(3) 0.3980(3) 0.4159(2)
C17_7 C 0.9795(4) 0.3302(3) 0.3637(2)
H13_7 H 0.9705 0.2693 0.3751
C18_7 C 0.9838(3) 0.3503(3) 0.3026(2)
H14_7 H 0.9921 0.4112 0.2910
O6_4 O 0.9735(2) 0.9721(2) 0.09688(14)
O1_8 O 0.0259(2) 0.6477(2) 0.34240(15)
O2_8 O 0.0295(3) 0.7511(2) 0.41648(15)
C13_8 C 0.0264(3) 0.7306(3) 0.3588(2)
C14_8 C 0.0217(3) 0.8017(3) 0.3096(2)
H11_8 H 0.0171 0.8623 0.3226
C15_8 C 0.0236(3) 0.7837(3) 0.2473(2)
H12_8 H 0.0303 0.7229 0.2351
C16_8 C 0.0118(3) 0.8980(3) 0.0841(2)
C17_8 C 0.0205(4) 0.8302(3) 0.1363(2)
H13_8 H 0.0295 0.7693 0.1249
C18_8 C 0.0162(3) 0.8503(3) 0.1974(2)
H14_8 H 0.0079 0.9112 0.2090
N3_4 N 0.1879(3) 0.5904(2) 0.43388(17)
N1_8 N 0.8743(3) 0.6025(2) 0.44423(16)
C1_8 C 0.8179(3) 0.5614(3) 0.4004(2)
H1_8 H 0.8489 0.5323 0.3662
C2_8 C 0.7182(3) 0.5594(3) 0.4027(2)
H2_8 H 0.6828 0.5293 0.3708
C3_8 C 0.6691(3) 0.6022(3) 0.4525(2)
C4_8 C 0.7264(3) 0.6453(3) 0.4977(2)
H3_6 H 0.6972 0.6750 0.5323
C5_8 C 0.8262(3) 0.6443(3) 0.4914(2)
H4_6 H 0.8632 0.6749 0.5223
C6_8 C 0.2322(3) 0.5521(3) 0.3839(2)
H5_8 H 0.1930 0.5284 0.3512
C7_8 C 0.3317(3) 0.5453(3) 0.3777(2)
H6_8 H 0.3588 0.5179 0.3414
C8_8 C 0.3924(3) 0.5789(3) 0.4252(2)
C9_8 C 0.3467(3) 0.6179(3) 0.4773(2)
H7_4 H 0.3840 0.6417 0.5109
C10_8 C 0.2466(3) 0.6217(3) 0.4797(2)
H8_4 H 0.2176 0.6478 0.5158
C11_8 C 0.5634(3) 0.6053(3) 0.4595(2)
H9_8 H 0.5389 0.6325 0.4966
C12_8 C 0.4981(3) 0.5731(3) 0.4181(2)
H10_8 H 0.5221 0.5444 0.3815
H3_7 H 0.6972 0.8250 0.0323
H4_7 H 0.8632 0.8251 0.0223
H7_5 H 0.3840 0.8583 0.0109
H8_5 H 0.2176 0.8522 0.0158
H7_6 H 0.8840 0.6417 0.9891
H8_6 H 0.7176 0.6478 0.9842
H3_8 H 0.3028 0.1750 0.9677
H4_8 H 0.1368 0.1749 0.9777
H7_7 H 0.6160 0.1417 0.9891
H8_7 H 0.7824 0.1478 0.9842
H7_8 H 0.1160 0.3583 0.0109
H8_8 H 0.2824 0.3522 0.0158
loop_
_geom_bond_atom_site_label_1
_geom_bond_atom_site_label_2
_geom_bond_site_symmetry_1
_geom_bond_site_symmetry_2
N2 C6 1_555 1_555
C6 H5 1_555 1_555
C7 C6 1_555 1_555
H6 C7 1_555 1_555
C8 C7 1_555 1_555
C9 C8 1_555 1_555
H7 C9 1_555 1_555
C10 N2 1_555 1_555
H8 C10 1_555 1_555
C12 C8 1_555 1_555
Co2 N2 1_555 1_555
C9 C10 1_555 1_555
Co2 N1 1_555 1_555
N1 C1 1_555 1_555
C1 H1 1_555 1_555
C2 C1 1_555 1_555
H2 C2 1_555 1_555
C3 C2 1_555 1_555
C4 C3 1_555 1_555
H3 C4 1_555 1_555
C5 N1 1_555 1_555
H4 C5 1_555 1_555
C11 C3 1_555 1_555
H9 C11 1_555 1_555
O1 Co2 1_555 1_555
O2 Co2 1_555 1_555
C13 O1 1_555 1_555
C14 C13 1_555 1_555
H11 C14 1_555 1_555
C15 C14 1_555 1_555
H12 C15 1_555 1_555
O3 C16 1_555 1_555
O4 C16 1_555 1_555
C16 C17 1_555 1_555
C17 H13 1_555 1_555
C18 C15 1_555 1_555
H14 C18 1_555 1_555
Co4 O4 1_555 1_555
O5 Co2 1_555 1_555
C4 C5 1_555 1_555
O2 C13 1_555 1_555
C17 C18 1_555 1_555
Co4 N1_2 1_555 1_555
N1_2 C1_2 1_555 1_555
C1_2 H1_2 1_555 1_555
C2_2 C1_2 1_555 1_555
H2_2 C2_2 1_555 1_555
C3_2 C2_2 1_555 1_555
C4_2 C3_2 1_555 1_555
C5_2 N1_2 1_555 1_555
C11_2 C3_2 1_555 1_555
H9_2 C11_2 1_555 1_555
O1_2 Co4 1_555 1_555
O2_2 Co4 1_555 1_555
C13_2 O1_2 1_555 1_555
C14_2 C13_2 1_555 1_555
H11_2 C14_2 1_555 1_555
C15_2 C14_2 1_555 1_555
H12_2 C15_2 1_555 1_555
O3_2 C16_2 1_555 1_555
O6 C16_2 1_555 1_555
C16_2 C17_2 1_555 1_555
C17_2 H13_2 1_555 1_555
C18_2 C15_2 1_555 1_555
H14_2 C18_2 1_555 1_555
Co3_2 O3_2 1_555 1_555
N3 Co4 1_555 1_555
C4_2 C5_2 1_555 1_555
O2_2 C13_2 1_555 1_555
C17_2 C18_2 1_555 1_555
N3 C6_2 1_555 1_555
C6_2 H5_2 1_555 1_555
C7_2 C6_2 1_555 1_555
H6_2 C7_2 1_555 1_555
C8_2 C7_2 1_555 1_555
C9_2 C8_2 1_555 1_555
C10_2 N3 1_555 1_555
C12_2 C8_2 1_555 1_555
C9_2 C10_2 1_555 1_555
Co3_2 N1_3 1_555 1_555
N1_3 C1_3 1_555 1_555
C1_3 H1_3 1_555 1_555
C2_3 C1_3 1_555 1_555
H2_3 C2_3 1_555 1_555
C3_3 C2_3 1_555 1_555
C4_3 C3_3 1_555 1_555
H3_3 C4_3 1_555 1_555
C5_3 N1_3 1_555 1_555
H4_3 C5_3 1_555 1_555
C11_3 C3_3 1_555 1_555
H9_3 C11_3 1_555 1_555
O1_3 Co3_2 1_555 1_555
O2_3 Co3_2 1_555 1_555
C13_3 O1_3 1_555 1_555
C14_3 C13_3 1_555 1_555
H11_3 C14_3 1_555 1_555
C15_3 C14_3 1_555 1_555
H12_3 C15_3 1_555 1_555
O5_2 C16_3 1_555 1_555
O4_2 C16_3 1_555 1_555
C16_3 C17_3 1_555 1_555
C17_3 H13_3 1_555 1_555
C18_3 C15_3 1_555 1_555
H14_3 C18_3 1_555 1_555
Co3 O4_2 1_555 1_555
N3_2 Co3_2 1_555 1_555
C4_3 C5_3 1_555 1_555
O2_3 C13_3 1_555 1_555
C17_3 C18_3 1_555 1_555
N3_2 C6_3 1_555 1_555
C6_3 H5_3 1_555 1_555
C7_3 C6_3 1_555 1_555
H6_3 C7_3 1_555 1_555
C8_3 C7_3 1_555 1_555
C9_3 C8_3 1_555 1_555
H7_2 C9_3 1_555 1_555
C10_3 N3_2 1_555 1_555
H8_2 C10_3 1_555 1_555
C12_3 C8_3 1_555 1_555
C9_3 C10_3 1_555 1_555
N2_2 C6_4 1_555 1_555
C6_4 H5_4 1_555 1_555
C7_4 C6_4 1_555 1_555
H6_4 C7_4 1_555 1_555
C8_4 C7_4 1_555 1_555
C9_4 C8_4 1_555 1_555
C10_4 N2_2 1_555 1_555
C12_4 C8_4 1_555 1_555
Co3 N2_2 1_555 1_555
C9_4 C10_4 1_555 1_555
Co3 N1_4 1_555 1_555
N1_4 C1_4 1_555 1_555
C1_4 H1_4 1_555 1_555
C2_4 C1_4 1_555 1_555
H2_4 C2_4 1_555 1_555
C3_4 C2_4 1_555 1_555
C4_4 C3_4 1_555 1_555
C5_4 N1_4 1_555 1_555
C11_4 C3_4 1_555 1_555
H9_4 C11_4 1_555 1_555
O1_4 Co3 1_555 1_555
O2_4 Co3 1_555 1_555
C13_4 O1_4 1_555 1_555
C14_4 C13_4 1_555 1_555
H11_4 C14_4 1_555 1_555
C15_4 C14_4 1_555 1_555
H12_4 C15_4 1_555 1_555
O5 C16_4 1_555 1_555
O6_2 C16_4 1_555 1_555
C16_4 C17_4 1_555 1_555
C17_4 H13_4 1_555 1_555
C18_4 C15_4 1_555 1_555
H14_4 C18_4 1_555 1_555
C4_4 C5_4 1_555 1_555
O2_4 C13_4 1_555 1_555
C17_4 C18_4 1_555 1_555
O1_5 Co1 1_555 1_555
O2_5 Co1 1_555 1_555
C13_5 O1_5 1_555 1_555
C14_5 C13_5 1_555 1_555
H11_5 C14_5 1_555 1_555
C15_5 C14_5 1_555 1_555
H12_5 C15_5 1_555 1_555
O3_3 C16_5 1_555 1_555
C16_5 C17_5 1_555 1_555
C17_5 H13_5 1_555 1_555
C18_5 C15_5 1_555 1_555
H14_5 C18_5 1_555 1_555
Co3_3 O3_3 1_555 1_555
N3_3 Co1 1_555 1_555
O2_5 C13_5 1_555 1_555
C17_5 C18_5 1_555 1_555
N1_5 C1_5 1_555 1_555
C1_5 H1_5 1_555 1_555
C2_5 C1_5 1_555 1_555
H2_5 C2_5 1_555 1_555
C3_5 C2_5 1_555 1_555
C4_5 C3_5 1_555 1_555
C5_5 N1_5 1_555 1_555
N3_3 C6_5 1_555 1_555
C6_5 H5_5 1_555 1_555
C7_5 C6_5 1_555 1_555
H6_5 C7_5 1_555 1_555
C8_5 C7_5 1_555 1_555
C9_5 C8_5 1_555 1_555
C10_5 N3_3 1_555 1_555
C11_5 C3_5 1_555 1_555
H9_5 C11_5 1_555 1_555
C12_5 C8_5 1_555 1_555
H10_5 C12_5 1_555 1_555
Co4_2 O4_3 1_555 1_555
C4_5 C5_5 1_555 1_555
C9_5 C10_5 1_555 1_555
C11_5 C12_5 1_555 1_555
N1_6 C1_6 1_555 1_555
C1_6 H1_6 1_555 1_555
C2_6 C1_6 1_555 1_555
H2_6 C2_6 1_555 1_555
C3_6 C2_6 1_555 1_555
C4_6 C3_6 1_555 1_555
H3_5 C4_6 1_555 1_555
C5_6 N1_6 1_555 1_555
H4_5 C5_6 1_555 1_555
N2_3 C6_6 1_555 1_555
C6_6 H5_6 1_555 1_555
C7_6 C6_6 1_555 1_555
H6_6 C7_6 1_555 1_555
C8_6 C7_6 1_555 1_555
C9_6 C8_6 1_555 1_555
H7_3 C9_6 1_555 1_555
C10_6 N2_3 1_555 1_555
H8_3 C10_6 1_555 1_555
C11_6 C3_6 1_555 1_555
H9_6 C11_6 1_555 1_555
C12_6 C8_6 1_555 1_555
H10_6 C12_6 1_555 1_555
Co4_2 N2_3 1_555 1_555
C4_6 C5_6 1_555 1_555
C9_6 C10_6 1_555 1_555
C11_6 C12_6 1_555 1_555
O1_6 Co4_2 1_555 1_555
O2_6 Co4_2 1_555 1_555
C13_6 O1_6 1_555 1_555
C14_6 C13_6 1_555 1_555
H11_6 C14_6 1_555 1_555
C15_6 C14_6 1_555 1_555
H12_6 C15_6 1_555 1_555
O3_4 C16_6 1_555 1_555
C16_6 C17_6 1_555 1_555
C17_6 H13_6 1_555 1_555
C18_6 C15_6 1_555 1_555
H14_6 C18_6 1_555 1_555
O5_4 Co4_2 1_555 1_555
O2_6 C13_6 1_555 1_555
C17_6 C18_6 1_555 1_555
N1_7 C1_7 1_555 1_555
C1_7 H1_7 1_555 1_555
C2_7 C1_7 1_555 1_555
H2_7 C2_7 1_555 1_555
C3_7 C2_7 1_555 1_555
C4_7 C3_7 1_555 1_555
C5_7 N1_7 1_555 1_555
N2_4 C6_7 1_555 1_555
C6_7 H5_7 1_555 1_555
C7_7 C6_7 1_555 1_555
H6_7 C7_7 1_555 1_555
C8_7 C7_7 1_555 1_555
C9_7 C8_7 1_555 1_555
C10_7 N2_4 1_555 1_555
C11_7 C3_7 1_555 1_555
H9_7 C11_7 1_555 1_555
C12_7 C8_7 1_555 1_555
H10_7 C12_7 1_555 1_555
Co3_4 N2_4 1_555 1_555
Co3_3 O4_4 1_555 1_555
C4_7 C5_7 1_555 1_555
C9_7 C10_7 1_555 1_555
C11_7 C12_7 1_555 1_555
O1_7 Co3_4 1_555 1_555
O2_7 Co3_4 1_555 1_555
C13_7 O1_7 1_555 1_555
C14_7 C13_7 1_555 1_555
H11_7 C14_7 1_555 1_555
C15_7 C14_7 1_555 1_555
H12_7 C15_7 1_555 1_555
O5_4 C16_7 1_555 1_555
C16_7 C17_7 1_555 1_555
C17_7 H13_7 1_555 1_555
C18_7 C15_7 1_555 1_555
H14_7 C18_7 1_555 1_555
O2_7 C13_7 1_555 1_555
C17_7 C18_7 1_555 1_555
O1_8 Co3_3 1_555 1_555
O2_8 Co3_3 1_555 1_555
C13_8 O1_8 1_555 1_555
C14_8 C13_8 1_555 1_555
H11_8 C14_8 1_555 1_555
C15_8 C14_8 1_555 1_555
H12_8 C15_8 1_555 1_555
O5_3 C16_8 1_555 1_555
C16_8 C17_8 1_555 1_555
C17_8 H13_8 1_555 1_555
C18_8 C15_8 1_555 1_555
H14_8 C18_8 1_555 1_555
N3_4 Co3_3 1_555 1_555
O2_8 C13_8 1_555 1_555
C17_8 C18_8 1_555 1_555
N1_8 C1_8 1_555 1_555
C1_8 H1_8 1_555 1_555
C2_8 C1_8 1_555 1_555
H2_8 C2_8 1_555 1_555
C3_8 C2_8 1_555 1_555
C4_8 C3_8 1_555 1_555
H3_6 C4_8 1_555 1_555
C5_8 N1_8 1_555 1_555
H4_6 C5_8 1_555 1_555
N3_4 C6_8 1_555 1_555
C6_8 H5_8 1_555 1_555
C7_8 C6_8 1_555 1_555
H6_8 C7_8 1_555 1_555
C8_8 C7_8 1_555 1_555
C9_8 C8_8 1_555 1_555
H7_4 C9_8 1_555 1_555
C10_8 N3_4 1_555 1_555
H8_4 C10_8 1_555 1_555
C11_8 C3_8 1_555 1_555
H9_8 C11_8 1_555 1_555
C12_8 C8_8 1_555 1_555
H10_8 C12_8 1_555 1_555
C4_8 C5_8 1_555 1_555
C9_8 C10_8 1_555 1_555
C11_8 C12_8 1_555 1_555

#END
