
###############################################################################
#
# This file contains modified crystal structure data generated from the
# MOF subset of the Cambridge Structural Database (CSD) v543 
# hosted by the Cambridge Crystallographic Data Centre (CCDC).
#
# This work is licensed under the Creative Commons
# Attribution-NonCommercial-ShareAlike 4.0 International License.
# To view a copy of this license, visit
# http://creativecommons.org/licenses/by-nc-sa/4.0/
# or send a letter to
# Creative Commons, PO Box 1866, Mountain View, CA 94042, USA.
#
# CIF created using the CSD Python API on 29 September 2022
# The structure has been converted into the P1 space group
# The structure has a 3D framework
# The original CSD entry QOJTUE is in the monoclinic crystal system
# The framework has been calculated to contain at least 10.0% void space
# The void calculation uses a probe of radius 1.32A, grid spacing 0.4
#
###############################################################################

data_QOJTUE
_chemical_formula_moiety         '(C80 H56 Cu8 I8 N16)n'
_symmetry_cell_setting           triclinic
_symmetry_space_group_name_H-M   'P 1'
_symmetry_Int_Tables_number      1
_space_group_name_Hall           'P 1'
loop_
_symmetry_equiv_pos_site_id
_symmetry_equiv_pos_as_xyz
1 x,y,z
_cell_length_a                   14.081(3)
_cell_length_b                   14.413(3)
_cell_length_c                   16.420(3)
_cell_angle_alpha                90
_cell_angle_beta                 97.814(4)
_cell_angle_gamma                90
_cell_volume                     3301.49
loop_
_atom_site_label
_atom_site_type_symbol
_atom_site_fract_x
_atom_site_fract_y
_atom_site_fract_z
I1 I 0.10363(2) 0.23849(3) 0.54864(2)
Cu1 Cu 0.24771(5) 0.16115(5) 0.48069(3)
N1 N 0.1885(3) 0.1209(3) 0.3651(2)
C1 C 0.2447(4) 0.0974(4) 0.3096(3)
H1 H 0.3119 0.0958 0.3266
C2 C 0.2117(4) 0.0751(4) 0.2285(3)
C3 C 0.1122(4) 0.0783(4) 0.2041(3)
H2 H 0.0858 0.0649 0.1490
C4 C 0.0536(4) 0.1014(4) 0.2616(3)
C5 C 0.0943(4) 0.1238(4) 0.3403(3)
H3 H 0.0532 0.1421 0.3788
C7 C 0.2789(4) 0.0444(4) 0.1704(3)
C8 C 0.3705(4) 0.0779(4) 0.1726(3)
H5 H 0.3942 0.1247 0.2107
C9 C 0.4274(4) 0.0419(5) 0.1183(3)
H6 H 0.4909 0.0641 0.1182
I2 I 0.39637(2) 0.26151(3) 0.45136(2)
Cu2 Cu 0.25229(5) 0.33885(5) 0.51931(3)
N5 N 0.3034(3) 0.0599(3) 0.5595(2)
N6 N 0.3115(3) 0.3791(3) 0.6349(2)
N7 N 0.1966(3) 0.4401(3) 0.4405(2)
N2 N 0.3034(3) 0.9401(3) 0.0595(2)
C6 C 0.2476(4) 0.9762(4) 0.1130(3)
H4 H 0.1840 0.9537 0.1110
C10 C 0.3914(4) 0.9736(4) 0.0642(3)
H7 H 0.4323 0.9489 0.0280
Cu3 Cu 0.24771(5) 0.83885(5) 0.98069(3)
C11 C 0.9464(4) 0.1014(4) 0.2384(3)
C12 C 0.8878(4) 0.0783(4) 0.2959(3)
C13 C 0.7883(4) 0.0751(4) 0.2715(3)
C14 C 0.7553(4) 0.0974(4) 0.1904(3)
N3 N 0.8115(3) 0.1209(3) 0.1349(2)
C15 C 0.9057(4) 0.1238(4) 0.1597(3)
H8 H 0.9468 0.1421 0.1212
H9 H 0.6881 0.0958 0.1734
C16 C 0.7211(4) 0.0444(4) 0.3296(3)
C19 C 0.5726(4) 0.0419(5) 0.3817(3)
C20 C 0.6295(4) 0.0779(4) 0.3274(3)
H10 H 0.6058 0.1247 0.2893
H11 H 0.5091 0.0641 0.3818
H14 H 0.9142 0.0649 0.3510
Cu4 Cu 0.75229(5) 0.16115(5) 0.01931(3)
C17 C 0.7524(4) 0.9762(4) 0.3870(3)
N4 N 0.6966(3) 0.9401(3) 0.4405(2)
C18 C 0.6086(4) 0.9736(4) 0.4358(3)
H12 H 0.5677 0.9489 0.4720
H13 H 0.8160 0.9537 0.3890
Cu5 Cu 0.75229(5) 0.83885(5) 0.51931(3)
I1_2 I 0.60363(2) 0.73849(3) 0.54864(2)
Cu1_2 Cu 0.74771(5) 0.66115(5) 0.48069(3)
N1_2 N 0.6885(3) 0.6209(3) 0.3651(2)
C1_2 C 0.7447(4) 0.5974(4) 0.3096(3)
H1_2 H 0.8119 0.5958 0.3266
C2_2 C 0.7117(4) 0.5751(4) 0.2285(3)
C3_2 C 0.6122(4) 0.5783(4) 0.2041(3)
H2_2 H 0.5858 0.5649 0.1490
C4_2 C 0.5536(4) 0.6014(4) 0.2616(3)
C5_2 C 0.5943(4) 0.6238(4) 0.3403(3)
H3_2 H 0.5532 0.6421 0.3788
N2_2 N 0.8034(3) 0.4401(3) 0.0595(2)
C6_2 C 0.7476(4) 0.4762(4) 0.1130(3)
H4_2 H 0.6840 0.4537 0.1110
C7_2 C 0.7789(4) 0.5444(4) 0.1704(3)
C8_2 C 0.8705(4) 0.5779(4) 0.1726(3)
H5_2 H 0.8942 0.6247 0.2107
C9_2 C 0.9274(4) 0.5419(5) 0.1183(3)
H6_2 H 0.9909 0.5641 0.1182
C10_2 C 0.8914(4) 0.4736(4) 0.0642(3)
H7_2 H 0.9323 0.4489 0.0280
C11_2 C 0.4464(4) 0.6014(4) 0.2384(3)
C12_2 C 0.3878(4) 0.5783(4) 0.2959(3)
C13_2 C 0.2883(4) 0.5751(4) 0.2715(3)
C14_2 C 0.2553(4) 0.5974(4) 0.1904(3)
N3_2 N 0.3115(3) 0.6209(3) 0.1349(2)
C15_2 C 0.4057(4) 0.6238(4) 0.1597(3)
H8_2 H 0.4468 0.6421 0.1212
H9_2 H 0.1881 0.5958 0.1734
C16_2 C 0.2211(4) 0.5444(4) 0.3296(3)
C17_2 C 0.2524(4) 0.4762(4) 0.3870(3)
C18_2 C 0.1086(4) 0.4736(4) 0.4358(3)
C19_2 C 0.0726(4) 0.5419(5) 0.3817(3)
C20_2 C 0.1295(4) 0.5779(4) 0.3274(3)
H10_2 H 0.1058 0.6247 0.2893
H11_2 H 0.0091 0.5641 0.3818
H12_2 H 0.0677 0.4489 0.4720
H13_2 H 0.3160 0.4537 0.3890
H14_2 H 0.4142 0.5649 0.3510
I2_2 I 0.89637(2) 0.76151(3) 0.45136(2)
N5_2 N 0.8034(3) 0.5599(3) 0.5595(2)
Cu4_2 Cu 0.25229(5) 0.66115(5) 0.01931(3)
N6_2 N 0.8115(3) 0.8791(3) 0.6349(2)
Cu3_2 Cu 0.74771(5) 0.33885(5) 0.98069(3)
C6_3 C 0.2476(4) 0.0238(4) 0.6130(3)
H4_3 H 0.1840 0.0463 0.6110
C10_3 C 0.3914(4) 0.0264(4) 0.5642(3)
H7_3 H 0.4323 0.0511 0.5280
I1_3 I 0.10363(2) 0.76151(3) 0.04864(2)
N1_3 N 0.1885(3) 0.8791(3) 0.8651(2)
C1_3 C 0.2447(4) 0.9026(4) 0.8096(3)
H1_3 H 0.3119 0.9042 0.8266
C2_3 C 0.2117(4) 0.9249(4) 0.7285(3)
C3_3 C 0.1122(4) 0.9217(4) 0.7041(3)
H2_3 H 0.0858 0.9351 0.6490
C4_3 C 0.0536(4) 0.8986(4) 0.7616(3)
C5_3 C 0.0943(4) 0.8762(4) 0.8403(3)
H3_3 H 0.0532 0.8579 0.8788
C7_3 C 0.2789(4) 0.9556(4) 0.6704(3)
C8_3 C 0.3705(4) 0.9221(4) 0.6726(3)
H5_3 H 0.3942 0.8753 0.7107
C9_3 C 0.4274(4) 0.9581(5) 0.6183(3)
H6_3 H 0.4909 0.9359 0.6182
I2_3 I 0.39637(2) 0.73849(3) 0.95136(2)
N7_2 N 0.1966(3) 0.5599(3) 0.9405(2)
C17_3 C 0.7524(4) 0.0238(4) 0.8870(3)
N4_2 N 0.6966(3) 0.0599(3) 0.9405(2)
C18_3 C 0.6086(4) 0.0264(4) 0.9358(3)
H12_3 H 0.5677 0.0511 0.9720
H13_3 H 0.8160 0.0463 0.8890
C11_3 C 0.9464(4) 0.8986(4) 0.7384(3)
C12_3 C 0.8878(4) 0.9217(4) 0.7959(3)
C13_3 C 0.7883(4) 0.9249(4) 0.7715(3)
C14_3 C 0.7553(4) 0.9026(4) 0.6904(3)
C15_3 C 0.9057(4) 0.8762(4) 0.6597(3)
H8_3 H 0.9468 0.8579 0.6212
H9_3 H 0.6881 0.9042 0.6734
C16_3 C 0.7211(4) 0.9556(4) 0.8296(3)
C19_3 C 0.5726(4) 0.9581(5) 0.8817(3)
C20_3 C 0.6295(4) 0.9221(4) 0.8274(3)
H10_3 H 0.6058 0.8753 0.7893
H11_3 H 0.5091 0.9359 0.8818
H14_3 H 0.9142 0.9351 0.8510
I1_4 I 0.60363(2) 0.26151(3) 0.04864(2)
N1_4 N 0.6885(3) 0.3791(3) 0.8651(2)
C1_4 C 0.7447(4) 0.4026(4) 0.8096(3)
H1_4 H 0.8119 0.4042 0.8266
C2_4 C 0.7117(4) 0.4249(4) 0.7285(3)
C3_4 C 0.6122(4) 0.4217(4) 0.7041(3)
H2_4 H 0.5858 0.4351 0.6490
C4_4 C 0.5536(4) 0.3986(4) 0.7616(3)
C5_4 C 0.5943(4) 0.3762(4) 0.8403(3)
H3_4 H 0.5532 0.3579 0.8788
C6_4 C 0.7476(4) 0.5238(4) 0.6130(3)
H4_4 H 0.6840 0.5463 0.6110
C7_4 C 0.7789(4) 0.4556(4) 0.6704(3)
C8_4 C 0.8705(4) 0.4221(4) 0.6726(3)
H5_4 H 0.8942 0.3753 0.7107
C9_4 C 0.9274(4) 0.4581(5) 0.6183(3)
H6_4 H 0.9909 0.4359 0.6182
C10_4 C 0.8914(4) 0.5264(4) 0.5642(3)
H7_4 H 0.9323 0.5511 0.5280
C11_4 C 0.4464(4) 0.3986(4) 0.7384(3)
C12_4 C 0.3878(4) 0.4217(4) 0.7959(3)
C13_4 C 0.2883(4) 0.4249(4) 0.7715(3)
C14_4 C 0.2553(4) 0.4026(4) 0.6904(3)
C15_4 C 0.4057(4) 0.3762(4) 0.6597(3)
H8_4 H 0.4468 0.3579 0.6212
H9_4 H 0.1881 0.4042 0.6734
C16_4 C 0.2211(4) 0.4556(4) 0.8296(3)
C17_4 C 0.2524(4) 0.5238(4) 0.8870(3)
C18_4 C 0.1086(4) 0.5264(4) 0.9358(3)
C19_4 C 0.0726(4) 0.4581(5) 0.8817(3)
C20_4 C 0.1295(4) 0.4221(4) 0.8274(3)
H10_4 H 0.1058 0.3753 0.7893
H11_4 H 0.0091 0.4359 0.8818
H12_4 H 0.0677 0.5511 0.9720
H13_4 H 0.3160 0.5463 0.8890
H14_4 H 0.4142 0.4351 0.8510
I2_4 I 0.89637(2) 0.23849(3) 0.95136(2)
loop_
_geom_bond_atom_site_label_1
_geom_bond_atom_site_label_2
_geom_bond_site_symmetry_1
_geom_bond_site_symmetry_2
I1 Cu1 1_555 1_555
Cu1 N1 1_555 1_555
N1 C1 1_555 1_555
C1 H1 1_555 1_555
C2 C1 1_555 1_555
C3 C2 1_555 1_555
H2 C3 1_555 1_555
C4 C3 1_555 1_555
C5 N1 1_555 1_555
H3 C5 1_555 1_555
C7 C2 1_555 1_555
C8 C7 1_555 1_555
H5 C8 1_555 1_555
C9 C8 1_555 1_555
H6 C9 1_555 1_555
I2 Cu1 1_555 1_555
Cu2 I1 1_555 1_555
N5 Cu1 1_555 1_555
N6 Cu2 1_555 1_555
N7 Cu2 1_555 1_555
Cu1 Cu2 1_555 1_555
C4 C5 1_555 1_555
I2 Cu2 1_555 1_555
N2 C6 1_555 1_555
C6 H4 1_555 1_555
C10 N2 1_555 1_555
H7 C10 1_555 1_555
C12 C11 1_555 1_555
C13 C12 1_555 1_555
C14 C13 1_555 1_555
N3 C14 1_555 1_555
C15 C11 1_555 1_555
H8 C15 1_555 1_555
H9 C14 1_555 1_555
C16 C13 1_555 1_555
C20 C16 1_555 1_555
H10 C20 1_555 1_555
H11 C19 1_555 1_555
H14 C12 1_555 1_555
Cu4 N3 1_555 1_555
N3 C15 1_555 1_555
C19 C20 1_555 1_555
N4 C17 1_555 1_555
C18 N4 1_555 1_555
H12 C18 1_555 1_555
H13 C17 1_555 1_555
Cu5 N4 1_555 1_555
I1_2 Cu1_2 1_555 1_555
Cu1_2 N1_2 1_555 1_555
N1_2 C1_2 1_555 1_555
C1_2 H1_2 1_555 1_555
C2_2 C1_2 1_555 1_555
C3_2 C2_2 1_555 1_555
H2_2 C3_2 1_555 1_555
C4_2 C3_2 1_555 1_555
C5_2 N1_2 1_555 1_555
H3_2 C5_2 1_555 1_555
N2_2 C6_2 1_555 1_555
C6_2 H4_2 1_555 1_555
C7_2 C2_2 1_555 1_555
C8_2 C7_2 1_555 1_555
H5_2 C8_2 1_555 1_555
C9_2 C8_2 1_555 1_555
H6_2 C9_2 1_555 1_555
C10_2 N2_2 1_555 1_555
H7_2 C10_2 1_555 1_555
C11_2 C4_2 1_555 1_555
C12_2 C11_2 1_555 1_555
C13_2 C12_2 1_555 1_555
C14_2 C13_2 1_555 1_555
N3_2 C14_2 1_555 1_555
C15_2 C11_2 1_555 1_555
H8_2 C15_2 1_555 1_555
H9_2 C14_2 1_555 1_555
C16_2 C13_2 1_555 1_555
C17_2 C16_2 1_555 1_555
N7 C17_2 1_555 1_555
C18_2 N7 1_555 1_555
C19_2 C18_2 1_555 1_555
C20_2 C16_2 1_555 1_555
H10_2 C20_2 1_555 1_555
H11_2 C19_2 1_555 1_555
H12_2 C18_2 1_555 1_555
H13_2 C17_2 1_555 1_555
H14_2 C12_2 1_555 1_555
I2_2 Cu1_2 1_555 1_555
Cu5 I1_2 1_555 1_555
N5_2 Cu1_2 1_555 1_555
Cu4_2 N3_2 1_555 1_555
N6_2 Cu5 1_555 1_555
Cu1_2 Cu5 1_555 1_555
C4_2 C5_2 1_555 1_555
C6_2 C7_2 1_555 1_555
C9_2 C10_2 1_555 1_555
N3_2 C15_2 1_555 1_555
C19_2 C20_2 1_555 1_555
I2_2 Cu5 1_555 1_555
N5 C6_3 1_555 1_555
C6_3 H4_3 1_555 1_555
C10_3 N5 1_555 1_555
H7_3 C10_3 1_555 1_555
Cu4_2 I1_3 1_555 1_555
Cu3 N1_3 1_555 1_555
N1_3 C1_3 1_555 1_555
C1_3 H1_3 1_555 1_555
C2_3 C1_3 1_555 1_555
C3_3 C2_3 1_555 1_555
H2_3 C3_3 1_555 1_555
C4_3 C3_3 1_555 1_555
C5_3 N1_3 1_555 1_555
H3_3 C5_3 1_555 1_555
C7_3 C2_3 1_555 1_555
C8_3 C7_3 1_555 1_555
H5_3 C8_3 1_555 1_555
C9_3 C8_3 1_555 1_555
H6_3 C9_3 1_555 1_555
I2_3 Cu3 1_555 1_555
C4_3 C5_3 1_555 1_555
N4_2 C17_3 1_555 1_555
C18_3 N4_2 1_555 1_555
H12_3 C18_3 1_555 1_555
H13_3 C17_3 1_555 1_555
C12_3 C11_3 1_555 1_555
C13_3 C12_3 1_555 1_555
C14_3 C13_3 1_555 1_555
N6_2 C14_3 1_555 1_555
C15_3 C11_3 1_555 1_555
H8_3 C15_3 1_555 1_555
H9_3 C14_3 1_555 1_555
C16_3 C13_3 1_555 1_555
C20_3 C16_3 1_555 1_555
H10_3 C20_3 1_555 1_555
H11_3 C19_3 1_555 1_555
H14_3 C12_3 1_555 1_555
N6_2 C15_3 1_555 1_555
C19_3 C20_3 1_555 1_555
Cu4 I1_4 1_555 1_555
Cu3_2 N1_4 1_555 1_555
N1_4 C1_4 1_555 1_555
C1_4 H1_4 1_555 1_555
C2_4 C1_4 1_555 1_555
C3_4 C2_4 1_555 1_555
H2_4 C3_4 1_555 1_555
C4_4 C3_4 1_555 1_555
C5_4 N1_4 1_555 1_555
H3_4 C5_4 1_555 1_555
N5_2 C6_4 1_555 1_555
C6_4 H4_4 1_555 1_555
C7_4 C2_4 1_555 1_555
C8_4 C7_4 1_555 1_555
H5_4 C8_4 1_555 1_555
C9_4 C8_4 1_555 1_555
H6_4 C9_4 1_555 1_555
C10_4 N5_2 1_555 1_555
H7_4 C10_4 1_555 1_555
C11_4 C4_4 1_555 1_555
C12_4 C11_4 1_555 1_555
C13_4 C12_4 1_555 1_555
C14_4 C13_4 1_555 1_555
N6 C14_4 1_555 1_555
C15_4 C11_4 1_555 1_555
H8_4 C15_4 1_555 1_555
H9_4 C14_4 1_555 1_555
C16_4 C13_4 1_555 1_555
C17_4 C16_4 1_555 1_555
N7_2 C17_4 1_555 1_555
C18_4 N7_2 1_555 1_555
C19_4 C18_4 1_555 1_555
C20_4 C16_4 1_555 1_555
H10_4 C20_4 1_555 1_555
H11_4 C19_4 1_555 1_555
H12_4 C18_4 1_555 1_555
H13_4 C17_4 1_555 1_555
H14_4 C12_4 1_555 1_555
I2_4 Cu3_2 1_555 1_555
C4_4 C5_4 1_555 1_555
C6_4 C7_4 1_555 1_555
C9_4 C10_4 1_555 1_555
N6 C15_4 1_555 1_555
C19_4 C20_4 1_555 1_555

#END
