
###############################################################################
#
# This file contains modified crystal structure data generated from the
# MOF subset of the Cambridge Structural Database (CSD) v543 
# hosted by the Cambridge Crystallographic Data Centre (CCDC).
#
# This work is licensed under the Creative Commons
# Attribution-NonCommercial-ShareAlike 4.0 International License.
# To view a copy of this license, visit
# http://creativecommons.org/licenses/by-nc-sa/4.0/
# or send a letter to
# Creative Commons, PO Box 1866, Mountain View, CA 94042, USA.
#
# CIF created using the CSD Python API on 29 September 2022
# The structure has been converted into the P1 space group
# The structure has a 3D framework
# The original CSD entry QOJXUK is in the orthorhombic crystal system
# The framework has been calculated to contain at least 10.0% void space
# The void calculation uses a probe of radius 1.32A, grid spacing 0.4
#
###############################################################################

data_QOJXUK
_chemical_formula_moiety         '(C320 H224 N48 Ni16 O77)n'
_symmetry_cell_setting           triclinic
_symmetry_space_group_name_H-M   'P 1'
_symmetry_Int_Tables_number      1
_space_group_name_Hall           'P 1'
loop_
_symmetry_equiv_pos_site_id
_symmetry_equiv_pos_as_xyz
1 x,y,z
_cell_length_a                   11.723(2)
_cell_length_b                   22.957(6)
_cell_length_c                   31.011(11)
_cell_angle_alpha                90
_cell_angle_beta                 90
_cell_angle_gamma                90
_cell_volume                     8345.83
loop_
_atom_site_label
_atom_site_type_symbol
_atom_site_fract_x
_atom_site_fract_y
_atom_site_fract_z
C1 C 0.1017(2) 0.10986(15) 0.19889(10)
C2 C 0.0220(3) 0.13698(14) 0.17278(9)
C3 C 0.0549(3) 0.17169(14) 0.13834(10)
C4 C 0.1705(3) 0.17970(16) 0.12997(12)
H2 H 0.1941 0.2040 0.1068
C5 C 0.2508(3) 0.1523(2) 0.15537(13)
H3 H 0.3297 0.1574 0.1495
C6 C 0.2170(3) 0.11713(19) 0.18952(13)
H4 H 0.2729 0.0979 0.2066
C7 C 0.0645(3) 0.07056(14) 0.23517(9)
H9 H 0.0291 0.1917 0.4489
H14 H 0.034(4) 0.0356(19) 0.3394(14)
O2 O 0.14255(18) 0.04152(12) 0.25269(8)
O5 O 0.0000 0.0000 0.32216(10)
Ni6 Ni 0.11108(3) 0.219600(18) 0.539898(10)
O11 O 0.24575(19) 0.01313(10) 0.33345(6)
O5_2 O 0.0000 1.0000 0.32216(10)
H16 H 0.0569 0.8683 0.1786
C28 C 0.1500(3) 0.90290(16) 0.37552(10)
H20 H 0.1667 0.9386 0.3896
C29 C 0.1305(3) 0.85184(17) 0.39655(11)
C30 C 0.1211(3) 0.84124(19) 0.32498(12)
C31 C 0.0946(6) 0.7532(2) 0.36692(16)
H21 H 0.0862 0.7345 0.3941
C32 C 0.0902(9) 0.7222(2) 0.3294(2)
H22 H 0.0846 0.6810 0.3303
C33 C 0.1126(5) 0.8091(2) 0.28690(15)
H23 H 0.1201 0.8279 0.2598
C34 C 0.0376(3) 0.81709(15) 0.46503(10)
C35 C 0.1325(3) 0.83872(17) 0.44288(11)
C36 C 0.2280(3) 0.85151(18) 0.46747(12)
H25 H 0.2940 0.8674 0.4541
C37 C 0.2275(3) 0.8412(2) 0.51162(13)
H26 H 0.2931 0.8491 0.5286
C38 C 0.1300(3) 0.81923(17) 0.53005(11)
H27 H 0.1300 0.8116 0.5602
C39 C 0.0938(8) 0.7515(2) 0.28885(19)
H28 H 0.0828 0.7300 0.2630
C40 C 0.0340(3) 0.80024(16) 0.11109(11)
N4 N 0.0354(2) 0.80815(12) 0.50765(8)
N5 N 0.1427(2) 0.89682(14) 0.33174(9)
N6 N 0.1115(3) 0.81210(16) 0.36409(11)
Ni2 Ni 0.13892(3) 0.969600(18) 0.289898(10)
O6 O 0.03953(18) 0.92882(10) 0.24442(7)
O8 O 0.1351(2) 0.81585(17) 0.11817(11)
O9 O 0.00425(19) 0.76313(10) 0.08345(6)
N7 N 0.2854(2) 0.94185(12) 0.25765(8)
Ni4 Ni 0.11108(3) 0.719600(18) 0.039898(10)
H1 H 0.9431 0.1317 0.1786
C8 C 0.8500(3) 0.09710(16) 0.37552(10)
H5 H 0.8333 0.0614 0.3896
C9 C 0.8695(3) 0.14816(17) 0.39655(11)
C10 C 0.8789(3) 0.15876(19) 0.32498(12)
C11 C 0.9054(6) 0.2468(2) 0.36692(16)
H6 H 0.9138 0.2655 0.3941
C12 C 0.9098(9) 0.2778(2) 0.3294(2)
H7 H 0.9154 0.3190 0.3303
C13 C 0.8874(5) 0.1909(2) 0.28690(15)
H8 H 0.8799 0.1721 0.2598
C14 C 0.9624(3) 0.18291(15) 0.46503(10)
C15 C 0.8675(3) 0.16128(17) 0.44288(11)
C16 C 0.7720(3) 0.14849(18) 0.46747(12)
H10 H 0.7060 0.1326 0.4541
C17 C 0.7725(3) 0.1588(2) 0.51162(13)
H11 H 0.7069 0.1509 0.5286
C18 C 0.8700(3) 0.18077(17) 0.53005(11)
H12 H 0.8700 0.1884 0.5602
C19 C 0.9062(8) 0.2485(2) 0.28885(19)
H13 H 0.9172 0.2700 0.2630
C20 C 0.9660(3) 0.19976(16) 0.11109(11)
N1 N 0.9646(2) 0.19185(12) 0.50765(8)
N2 N 0.8573(2) 0.10318(14) 0.33174(9)
N3 N 0.8885(3) 0.18790(16) 0.36409(11)
Ni1 Ni 0.86108(3) 0.030400(18) 0.289898(10)
O1 O 0.96047(18) 0.07118(10) 0.24442(7)
O3 O 0.8649(2) 0.18415(17) 0.11817(11)
O4 O 0.99575(19) 0.23687(10) 0.08345(6)
O5_3 O 1.0000 0.0000 0.32216(10)
N8 N 0.7146(2) 0.05815(12) 0.25765(8)
Ni3 Ni 0.88892(3) 0.280400(18) 0.039898(10)
O5_4 O 1.0000 1.0000 0.32216(10)
H15 H 0.966(4) 0.9644(19) 0.3394(14)
C21 C 0.8983(2) 0.89014(15) 0.19889(10)
C22 C 0.9780(3) 0.86302(14) 0.17278(9)
C23 C 0.9451(3) 0.82831(14) 0.13834(10)
C24 C 0.8295(3) 0.82030(16) 0.12997(12)
H17 H 0.8059 0.7960 0.1068
C25 C 0.7492(3) 0.8477(2) 0.15537(13)
H18 H 0.6703 0.8426 0.1495
C26 C 0.7830(3) 0.88287(19) 0.18952(13)
H19 H 0.7271 0.9021 0.2066
C27 C 0.9355(3) 0.92944(14) 0.23517(9)
H24 H 0.9709 0.8083 0.4489
O7 O 0.85745(18) 0.95848(12) 0.25269(8)
Ni5 Ni 0.88892(3) 0.780400(18) 0.539898(10)
O10 O 0.75425(19) 0.98687(10) 0.33345(6)
C1_2 C 0.1483(2) 0.35986(15) 0.44889(10)
C2_2 C 0.2280(3) 0.38698(14) 0.42278(9)
H1_2 H 0.3069 0.3817 0.4286
C3_2 C 0.1951(3) 0.42169(14) 0.38834(10)
C4_2 C 0.0795(3) 0.42970(16) 0.37997(12)
H2_2 H 0.0559 0.4540 0.3568
C6_2 C 0.0330(3) 0.36713(19) 0.43952(13)
C7_2 C 0.1855(3) 0.32056(14) 0.48517(9)
C8_2 C 0.4000(3) 0.34710(16) 0.62552(10)
H5_2 H 0.4167 0.3114 0.6396
C9_2 C 0.3805(3) 0.39816(17) 0.64655(11)
C10_2 C 0.3711(3) 0.40876(19) 0.57498(12)
C11_2 C 0.3446(6) 0.4968(2) 0.61692(16)
H6_2 H 0.3362 0.5155 0.6441
C12_2 C 0.3402(9) 0.5278(2) 0.5794(2)
H7_2 H 0.3346 0.5690 0.5803
C13_2 C 0.3626(5) 0.4409(2) 0.53690(15)
H8_2 H 0.3701 0.4221 0.5098
C14_2 C 0.2876(3) 0.43291(15) 0.71503(10)
H9_2 H 0.2209 0.4417 0.6989
C15_2 C 0.3825(3) 0.41128(17) 0.69288(11)
C16_2 C 0.4780(3) 0.39849(18) 0.71747(12)
H10_2 H 0.5440 0.3826 0.7041
C17_2 C 0.4775(3) 0.4088(2) 0.76162(13)
H11_2 H 0.5431 0.4009 0.7786
C18_2 C 0.3800(3) 0.43077(17) 0.78005(11)
H12_2 H 0.3800 0.4384 0.8102
C19_2 C 0.3438(8) 0.4985(2) 0.53885(19)
H13_2 H 0.3328 0.5200 0.5130
C20_2 C 0.2840(3) 0.44976(16) 0.36109(11)
H14_2 H 0.216(4) 0.2856(19) 0.5894(14)
N1_2 N 0.2854(2) 0.44185(12) 0.75765(8)
N2_2 N 0.3927(2) 0.35318(14) 0.58174(9)
N3_2 N 0.3615(3) 0.43790(16) 0.61409(11)
Ni1_2 Ni 0.38892(3) 0.280400(18) 0.539898(10)
O1_2 O 0.28953(18) 0.32118(10) 0.49442(7)
O2_2 O 0.10745(18) 0.29152(12) 0.50269(8)
O3_2 O 0.3851(2) 0.43415(17) 0.36817(11)
O4_2 O 0.25425(19) 0.48687(10) 0.33345(6)
O5_5 O 0.2500 0.2500 0.57216(10)
H15_2 H 0.284(4) 0.2144(19) 0.5894(14)
C21_2 C 0.3517(2) 0.14014(15) 0.44889(10)
C22_2 C 0.2720(3) 0.11302(14) 0.42278(9)
H16_2 H 0.1931 0.1183 0.4286
C23_2 C 0.3049(3) 0.07831(14) 0.38834(10)
C24_2 C 0.4205(3) 0.07030(16) 0.37997(12)
H17_2 H 0.4441 0.0460 0.3568
C25_2 C 0.5008(3) 0.0977(2) 0.40537(13)
H18_2 H 0.5797 0.0926 0.3995
C26_2 C 0.4670(3) 0.13287(19) 0.43952(13)
H19_2 H 0.5229 0.1521 0.4566
C27_2 C 0.3145(3) 0.17944(14) 0.48517(9)
C28_2 C 0.1000(3) 0.15290(16) 0.62552(10)
H20_2 H 0.0833 0.1886 0.6396
C29_2 C 0.1195(3) 0.10184(17) 0.64655(11)
C30_2 C 0.1289(3) 0.09124(19) 0.57498(12)
C31_2 C 0.1554(6) 0.0032(2) 0.61692(16)
C33_2 C 0.1374(5) 0.0591(2) 0.53690(15)
H23_2 H 0.1299 0.0779 0.5098
C34_2 C 0.2124(3) 0.06709(15) 0.71503(10)
H24_2 H 0.2791 0.0583 0.6989
C35_2 C 0.1175(3) 0.08872(17) 0.69288(11)
C36_2 C 0.0220(3) 0.10151(18) 0.71747(12)
C37_2 C 0.0225(3) 0.0912(2) 0.76162(13)
C38_2 C 0.1200(3) 0.06923(17) 0.78005(11)
H27_2 H 0.1200 0.0616 0.8102
C39_2 C 0.1562(8) 0.0015(2) 0.53885(19)
C40_2 C 0.2160(3) 0.05024(16) 0.36109(11)
N4_2 N 0.2146(2) 0.05815(12) 0.75765(8)
N5_2 N 0.1073(2) 0.14682(14) 0.58174(9)
N6_2 N 0.1385(3) 0.06210(16) 0.61409(11)
O6_2 O 0.21047(18) 0.17882(10) 0.49442(7)
O7_2 O 0.39255(18) 0.20848(12) 0.50269(8)
O8_2 O 0.1149(2) 0.06585(17) 0.36817(11)
N8_2 N 0.5354(2) 0.30815(12) 0.50765(8)
Ni3_2 Ni 0.36108(3) 0.530400(18) 0.289898(10)
Ni5_2 Ni 0.36108(3) 0.030400(18) 0.789898(10)
Ni6_2 Ni 0.13892(3) 0.469600(18) 0.789898(10)
O10_2 O 0.49575(19) 0.23687(10) 0.58345(6)
O11_2 O 0.00425(19) 0.26313(10) 0.58345(6)
H21_2 H 0.1638 0.9845 0.6441
C32_2 C 0.1598(9) 0.9722(2) 0.5794(2)
H22_2 H 0.1654 0.9310 0.5803
H28_2 H 0.1672 0.9800 0.5130
C5_2 C 0.9992(3) 0.4023(2) 0.40537(13)
H3_2 H 0.9203 0.4074 0.3995
H4_2 H 0.9771 0.3479 0.4566
H25_2 H 0.9560 0.1174 0.7041
H26_2 H 0.9569 0.0991 0.7786
C5_3 C 0.0008(3) 0.5977(2) 0.40537(13)
H3_3 H 0.0797 0.5926 0.3995
H4_3 H 0.0229 0.6521 0.4566
H25_3 H 0.0440 0.8826 0.7041
H26_3 H 0.0431 0.9009 0.7786
H21_3 H 0.8362 0.0155 0.6441
C32_3 C 0.8402(9) 0.0278(2) 0.5794(2)
H22_3 H 0.8346 0.0690 0.5803
H28_3 H 0.8328 0.0200 0.5130
C1_3 C 0.8517(2) 0.64014(15) 0.44889(10)
C2_3 C 0.7720(3) 0.61302(14) 0.42278(9)
H1_3 H 0.6931 0.6183 0.4286
C3_3 C 0.8049(3) 0.57831(14) 0.38834(10)
C4_3 C 0.9205(3) 0.57030(16) 0.37997(12)
H2_3 H 0.9441 0.5460 0.3568
C6_3 C 0.9670(3) 0.63287(19) 0.43952(13)
C7_3 C 0.8145(3) 0.67944(14) 0.48517(9)
C8_3 C 0.6000(3) 0.65290(16) 0.62552(10)
H5_3 H 0.5833 0.6886 0.6396
C9_3 C 0.6195(3) 0.60184(17) 0.64655(11)
C10_3 C 0.6289(3) 0.59124(19) 0.57498(12)
C11_3 C 0.6554(6) 0.5032(2) 0.61692(16)
H6_3 H 0.6638 0.4845 0.6441
C12_3 C 0.6598(9) 0.4722(2) 0.5794(2)
H7_3 H 0.6654 0.4310 0.5803
C13_3 C 0.6374(5) 0.5591(2) 0.53690(15)
H8_3 H 0.6299 0.5779 0.5098
C14_3 C 0.7124(3) 0.56709(15) 0.71503(10)
H9_3 H 0.7791 0.5583 0.6989
C15_3 C 0.6175(3) 0.58872(17) 0.69288(11)
C16_3 C 0.5220(3) 0.60151(18) 0.71747(12)
H10_3 H 0.4560 0.6174 0.7041
C17_3 C 0.5225(3) 0.5912(2) 0.76162(13)
H11_3 H 0.4569 0.5991 0.7786
C18_3 C 0.6200(3) 0.56923(17) 0.78005(11)
H12_3 H 0.6200 0.5616 0.8102
C19_3 C 0.6562(8) 0.5015(2) 0.53885(19)
H13_3 H 0.6672 0.4800 0.5130
C20_3 C 0.7160(3) 0.55024(16) 0.36109(11)
H14_3 H 0.784(4) 0.7144(19) 0.5894(14)
N1_3 N 0.7146(2) 0.55815(12) 0.75765(8)
N2_3 N 0.6073(2) 0.64682(14) 0.58174(9)
N3_3 N 0.6385(3) 0.56210(16) 0.61409(11)
Ni1_3 Ni 0.61108(3) 0.719600(18) 0.539898(10)
O1_3 O 0.71047(18) 0.67882(10) 0.49442(7)
O2_3 O 0.89255(18) 0.70848(12) 0.50269(8)
O3_3 O 0.6149(2) 0.56585(17) 0.36817(11)
O4_3 O 0.74575(19) 0.51313(10) 0.33345(6)
O5_6 O 0.7500 0.7500 0.57216(10)
H15_3 H 0.716(4) 0.7856(19) 0.5894(14)
C21_3 C 0.6483(2) 0.85986(15) 0.44889(10)
C22_3 C 0.7280(3) 0.88698(14) 0.42278(9)
H16_3 H 0.8069 0.8817 0.4286
C23_3 C 0.6951(3) 0.92169(14) 0.38834(10)
C24_3 C 0.5795(3) 0.92970(16) 0.37997(12)
H17_3 H 0.5559 0.9540 0.3568
C25_3 C 0.4992(3) 0.9023(2) 0.40537(13)
H18_3 H 0.4203 0.9074 0.3995
C26_3 C 0.5330(3) 0.86713(19) 0.43952(13)
H19_3 H 0.4771 0.8479 0.4566
C27_3 C 0.6855(3) 0.82056(14) 0.48517(9)
C28_3 C 0.9000(3) 0.84710(16) 0.62552(10)
H20_3 H 0.9167 0.8114 0.6396
C29_3 C 0.8805(3) 0.89816(17) 0.64655(11)
C30_3 C 0.8711(3) 0.90876(19) 0.57498(12)
C31_3 C 0.8446(6) 0.9968(2) 0.61692(16)
C33_3 C 0.8626(5) 0.9409(2) 0.53690(15)
H23_3 H 0.8701 0.9221 0.5098
C34_3 C 0.7876(3) 0.93291(15) 0.71503(10)
H24_3 H 0.7209 0.9417 0.6989
C35_3 C 0.8825(3) 0.91128(17) 0.69288(11)
C36_3 C 0.9780(3) 0.89849(18) 0.71747(12)
C37_3 C 0.9775(3) 0.9088(2) 0.76162(13)
C38_3 C 0.8800(3) 0.93077(17) 0.78005(11)
H27_3 H 0.8800 0.9384 0.8102
C39_3 C 0.8438(8) 0.9985(2) 0.53885(19)
C40_3 C 0.7840(3) 0.94976(16) 0.36109(11)
N4_3 N 0.7854(2) 0.94185(12) 0.75765(8)
N5_3 N 0.8927(2) 0.85318(14) 0.58174(9)
N6_3 N 0.8615(3) 0.93790(16) 0.61409(11)
O6_3 O 0.78953(18) 0.82118(10) 0.49442(7)
O7_3 O 0.60745(18) 0.79152(12) 0.50269(8)
O8_3 O 0.8851(2) 0.93415(17) 0.36817(11)
N8_3 N 0.4646(2) 0.69185(12) 0.50765(8)
Ni3_3 Ni 0.63892(3) 0.469600(18) 0.289898(10)
Ni5_3 Ni 0.63892(3) 0.969600(18) 0.789898(10)
Ni6_3 Ni 0.86108(3) 0.530400(18) 0.789898(10)
O10_3 O 0.50425(19) 0.76313(10) 0.58345(6)
O11_3 O 0.99575(19) 0.73687(10) 0.58345(6)
C37_4 C 0.2275(3) 0.3412(2) 0.01162(13)
H26_4 H 0.2931 0.3491 0.0286
C38_4 C 0.1300(3) 0.31923(17) 0.03005(11)
H27_4 H 0.1300 0.3116 0.0602
N4_4 N 0.0354(2) 0.30815(12) 0.00765(8)
C1_4 C 0.1017(2) 0.60986(15) 0.69889(10)
C2_4 C 0.0220(3) 0.63698(14) 0.67278(9)
C3_4 C 0.0549(3) 0.67169(14) 0.63834(10)
C4_4 C 0.1705(3) 0.67970(16) 0.62997(12)
H2_4 H 0.1941 0.7040 0.6068
C5_4 C 0.2508(3) 0.6523(2) 0.65537(13)
H3_4 H 0.3297 0.6574 0.6495
C6_4 C 0.2170(3) 0.61713(19) 0.68952(13)
H4_4 H 0.2729 0.5979 0.7066
C7_4 C 0.0645(3) 0.57056(14) 0.73517(9)
H9_4 H 0.0291 0.6917 0.9489
H14_4 H 0.034(4) 0.5356(19) 0.8394(14)
O2_4 O 0.14255(18) 0.54152(12) 0.75269(8)
O5_7 O 0.0000 0.5000 0.82216(10)
H16_4 H 0.0569 0.3683 0.6786
C28_4 C 0.1500(3) 0.40290(16) 0.87552(10)
H20_4 H 0.1667 0.4386 0.8896
C29_4 C 0.1305(3) 0.35184(17) 0.89655(11)
C30_4 C 0.1211(3) 0.34124(19) 0.82498(12)
C31_4 C 0.0946(6) 0.2532(2) 0.86692(16)
H21_4 H 0.0862 0.2345 0.8941
C32_4 C 0.0902(9) 0.2222(2) 0.8294(2)
H22_4 H 0.0846 0.1810 0.8303
C33_4 C 0.1126(5) 0.3091(2) 0.78690(15)
H23_4 H 0.1201 0.3279 0.7598
C34_4 C 0.0376(3) 0.31709(15) 0.96503(10)
C35_4 C 0.1325(3) 0.33872(17) 0.94288(11)
C36_4 C 0.2280(3) 0.35151(18) 0.96747(12)
H25_4 H 0.2940 0.3674 0.9541
C39_4 C 0.0938(8) 0.2515(2) 0.78885(19)
H28_4 H 0.0828 0.2300 0.7630
C40_4 C 0.0340(3) 0.30024(16) 0.61109(11)
N5_4 N 0.1427(2) 0.39682(14) 0.83174(9)
N6_4 N 0.1115(3) 0.31210(16) 0.86409(11)
O6_4 O 0.03953(18) 0.42882(10) 0.74442(7)
O8_4 O 0.1351(2) 0.31585(17) 0.61817(11)
O11_4 O 0.24575(19) 0.51313(10) 0.83345(6)
C17_4 C 0.7725(3) 0.6588(2) 0.01162(13)
H11_4 H 0.7069 0.6509 0.0286
C18_4 C 0.8700(3) 0.68077(17) 0.03005(11)
H12_4 H 0.8700 0.6884 0.0602
N1_4 N 0.9646(2) 0.69185(12) 0.00765(8)
H1_4 H 0.9431 0.6317 0.6786
C8_4 C 0.8500(3) 0.59710(16) 0.87552(10)
H5_4 H 0.8333 0.5614 0.8896
C9_4 C 0.8695(3) 0.64816(17) 0.89655(11)
C10_4 C 0.8789(3) 0.65876(19) 0.82498(12)
C11_4 C 0.9054(6) 0.7468(2) 0.86692(16)
H6_4 H 0.9138 0.7655 0.8941
C12_4 C 0.9098(9) 0.7778(2) 0.8294(2)
H7_4 H 0.9154 0.8190 0.8303
C13_4 C 0.8874(5) 0.6909(2) 0.78690(15)
H8_4 H 0.8799 0.6721 0.7598
C14_4 C 0.9624(3) 0.68291(15) 0.96503(10)
C15_4 C 0.8675(3) 0.66128(17) 0.94288(11)
C16_4 C 0.7720(3) 0.64849(18) 0.96747(12)
H10_4 H 0.7060 0.6326 0.9541
C19_4 C 0.9062(8) 0.7485(2) 0.78885(19)
H13_4 H 0.9172 0.7700 0.7630
C20_4 C 0.9660(3) 0.69976(16) 0.61109(11)
N2_4 N 0.8573(2) 0.60318(14) 0.83174(9)
N3_4 N 0.8885(3) 0.68790(16) 0.86409(11)
O1_4 O 0.96047(18) 0.57118(10) 0.74442(7)
O3_4 O 0.8649(2) 0.68415(17) 0.61817(11)
O5_8 O 1.0000 0.5000 0.82216(10)
H15_4 H 0.966(4) 0.4644(19) 0.8394(14)
C21_4 C 0.8983(2) 0.39014(15) 0.69889(10)
C22_4 C 0.9780(3) 0.36302(14) 0.67278(9)
C23_4 C 0.9451(3) 0.32831(14) 0.63834(10)
C24_4 C 0.8295(3) 0.32030(16) 0.62997(12)
H17_4 H 0.8059 0.2960 0.6068
C25_4 C 0.7492(3) 0.3477(2) 0.65537(13)
H18_4 H 0.6703 0.3426 0.6495
C26_4 C 0.7830(3) 0.38287(19) 0.68952(13)
H19_4 H 0.7271 0.4021 0.7066
C27_4 C 0.9355(3) 0.42944(14) 0.73517(9)
H24_4 H 0.9709 0.3083 0.9489
O7_4 O 0.85745(18) 0.45848(12) 0.75269(8)
O10_4 O 0.75425(19) 0.48687(10) 0.83345(6)
C8_5 C 0.4000(3) 0.84710(16) 0.12552(10)
H5_5 H 0.4167 0.8114 0.1396
C9_5 C 0.3805(3) 0.89816(17) 0.14655(11)
C10_5 C 0.3711(3) 0.90876(19) 0.07498(12)
C11_5 C 0.3446(6) 0.9968(2) 0.11692(16)
C13_5 C 0.3626(5) 0.9409(2) 0.03690(15)
H8_5 H 0.3701 0.9221 0.0098
C14_5 C 0.2876(3) 0.93291(15) 0.21503(10)
H9_5 H 0.2209 0.9417 0.1989
C15_5 C 0.3825(3) 0.91128(17) 0.19288(11)
C16_5 C 0.4780(3) 0.89849(18) 0.21747(12)
H10_5 H 0.5440 0.8826 0.2041
C17_5 C 0.4775(3) 0.9088(2) 0.26162(13)
H11_5 H 0.5431 0.9009 0.2786
C18_5 C 0.3800(3) 0.93077(17) 0.28005(11)
H12_5 H 0.3800 0.9384 0.3102
C19_5 C 0.3438(8) 0.9985(2) 0.03885(19)
H14_5 H 0.216(4) 0.7856(19) 0.0894(14)
N2_5 N 0.3927(2) 0.85318(14) 0.08174(9)
N3_5 N 0.3615(3) 0.93790(16) 0.11409(11)
Ni1_4 Ni 0.38892(3) 0.780400(18) 0.039898(10)
O2_5 O 0.10745(18) 0.79152(12) 0.00269(8)
O5_9 O 0.2500 0.7500 0.07216(10)
H15_5 H 0.284(4) 0.7144(19) 0.0894(14)
C28_5 C 0.1000(3) 0.65290(16) 0.12552(10)
H20_5 H 0.0833 0.6886 0.1396
C29_5 C 0.1195(3) 0.60184(17) 0.14655(11)
C30_5 C 0.1289(3) 0.59124(19) 0.07498(12)
C31_5 C 0.1554(6) 0.5032(2) 0.11692(16)
H21_5 H 0.1638 0.4845 0.1441
C32_5 C 0.1598(9) 0.4722(2) 0.0794(2)
H22_5 H 0.1654 0.4310 0.0803
C33_5 C 0.1374(5) 0.5591(2) 0.03690(15)
H23_5 H 0.1299 0.5779 0.0098
C34_5 C 0.2124(3) 0.56709(15) 0.21503(10)
H24_5 H 0.2791 0.5583 0.1989
C35_5 C 0.1175(3) 0.58872(17) 0.19288(11)
C36_5 C 0.0220(3) 0.60151(18) 0.21747(12)
C37_5 C 0.0225(3) 0.5912(2) 0.26162(13)
C38_5 C 0.1200(3) 0.56923(17) 0.28005(11)
H27_5 H 0.1200 0.5616 0.3102
C39_5 C 0.1562(8) 0.5015(2) 0.03885(19)
H28_5 H 0.1672 0.4800 0.0130
N4_5 N 0.2146(2) 0.55815(12) 0.25765(8)
N5_5 N 0.1073(2) 0.64682(14) 0.08174(9)
N6_5 N 0.1385(3) 0.56210(16) 0.11409(11)
O7_5 O 0.39255(18) 0.70848(12) 0.00269(8)
N8_4 N 0.5354(2) 0.80815(12) 0.00765(8)
O10_5 O 0.49575(19) 0.73687(10) 0.08345(6)
C1_5 C 0.1483(2) 0.85986(15) 0.94889(10)
C2_5 C 0.2280(3) 0.88698(14) 0.92278(9)
H1_5 H 0.3069 0.8817 0.9286
C3_5 C 0.1951(3) 0.92169(14) 0.88834(10)
C4_5 C 0.0795(3) 0.92970(16) 0.87997(12)
H2_5 H 0.0559 0.9540 0.8568
C6_5 C 0.0330(3) 0.86713(19) 0.93952(13)
C7_5 C 0.1855(3) 0.82056(14) 0.98517(9)
C20_5 C 0.2840(3) 0.94976(16) 0.86109(11)
O1_5 O 0.28953(18) 0.82118(10) 0.99442(7)
O3_5 O 0.3851(2) 0.93415(17) 0.86817(11)
O4_4 O 0.25425(19) 0.98687(10) 0.83345(6)
C21_5 C 0.3517(2) 0.64014(15) 0.94889(10)
C22_5 C 0.2720(3) 0.61302(14) 0.92278(9)
H16_5 H 0.1931 0.6183 0.9286
C23_5 C 0.3049(3) 0.57831(14) 0.88834(10)
C24_5 C 0.4205(3) 0.57030(16) 0.87997(12)
H17_5 H 0.4441 0.5460 0.8568
C25_5 C 0.5008(3) 0.5977(2) 0.90537(13)
H18_5 H 0.5797 0.5926 0.8995
C26_5 C 0.4670(3) 0.63287(19) 0.93952(13)
H19_5 H 0.5229 0.6521 0.9566
C27_5 C 0.3145(3) 0.67944(14) 0.98517(9)
C40_5 C 0.2160(3) 0.55024(16) 0.86109(11)
O6_5 O 0.21047(18) 0.67882(10) 0.99442(7)
O8_5 O 0.1149(2) 0.56585(17) 0.86817(11)
H25_5 H 0.9560 0.6174 0.2041
H26_5 H 0.9569 0.5991 0.2786
H25_6 H 0.0440 0.3826 0.2041
H26_6 H 0.0431 0.4009 0.2786
C8_6 C 0.6000(3) 0.15290(16) 0.12552(10)
H5_6 H 0.5833 0.1886 0.1396
C9_6 C 0.6195(3) 0.10184(17) 0.14655(11)
C10_6 C 0.6289(3) 0.09124(19) 0.07498(12)
C11_6 C 0.6554(6) 0.0032(2) 0.11692(16)
C13_6 C 0.6374(5) 0.0591(2) 0.03690(15)
H8_6 H 0.6299 0.0779 0.0098
C14_6 C 0.7124(3) 0.06709(15) 0.21503(10)
H9_6 H 0.7791 0.0583 0.1989
C15_6 C 0.6175(3) 0.08872(17) 0.19288(11)
C16_6 C 0.5220(3) 0.10151(18) 0.21747(12)
H10_6 H 0.4560 0.1174 0.2041
C17_6 C 0.5225(3) 0.0912(2) 0.26162(13)
H11_6 H 0.4569 0.0991 0.2786
C18_6 C 0.6200(3) 0.06923(17) 0.28005(11)
H12_6 H 0.6200 0.0616 0.3102
C19_6 C 0.6562(8) 0.0015(2) 0.03885(19)
H14_6 H 0.784(4) 0.2144(19) 0.0894(14)
N2_6 N 0.6073(2) 0.14682(14) 0.08174(9)
N3_6 N 0.6385(3) 0.06210(16) 0.11409(11)
Ni1_5 Ni 0.61108(3) 0.219600(18) 0.039898(10)
O2_6 O 0.89255(18) 0.20848(12) 0.00269(8)
O5_10 O 0.7500 0.2500 0.07216(10)
H15_6 H 0.716(4) 0.2856(19) 0.0894(14)
C28_6 C 0.9000(3) 0.34710(16) 0.12552(10)
H20_6 H 0.9167 0.3114 0.1396
C29_6 C 0.8805(3) 0.39816(17) 0.14655(11)
C30_6 C 0.8711(3) 0.40876(19) 0.07498(12)
C31_6 C 0.8446(6) 0.4968(2) 0.11692(16)
H21_6 H 0.8362 0.5155 0.1441
C32_6 C 0.8402(9) 0.5278(2) 0.0794(2)
H22_6 H 0.8346 0.5690 0.0803
C33_6 C 0.8626(5) 0.4409(2) 0.03690(15)
H23_6 H 0.8701 0.4221 0.0098
C34_6 C 0.7876(3) 0.43291(15) 0.21503(10)
H24_6 H 0.7209 0.4417 0.1989
C35_6 C 0.8825(3) 0.41128(17) 0.19288(11)
C36_6 C 0.9780(3) 0.39849(18) 0.21747(12)
C37_6 C 0.9775(3) 0.4088(2) 0.26162(13)
C38_6 C 0.8800(3) 0.43077(17) 0.28005(11)
H27_6 H 0.8800 0.4384 0.3102
C39_6 C 0.8438(8) 0.4985(2) 0.03885(19)
H28_6 H 0.8328 0.5200 0.0130
N4_6 N 0.7854(2) 0.44185(12) 0.25765(8)
N5_6 N 0.8927(2) 0.35318(14) 0.08174(9)
N6_6 N 0.8615(3) 0.43790(16) 0.11409(11)
O7_6 O 0.60745(18) 0.29152(12) 0.00269(8)
N8_5 N 0.4646(2) 0.19185(12) 0.00765(8)
O10_6 O 0.50425(19) 0.26313(10) 0.08345(6)
C1_6 C 0.8517(2) 0.14014(15) 0.94889(10)
C2_6 C 0.7720(3) 0.11302(14) 0.92278(9)
H1_6 H 0.6931 0.1183 0.9286
C3_6 C 0.8049(3) 0.07831(14) 0.88834(10)
C4_6 C 0.9205(3) 0.07030(16) 0.87997(12)
H2_6 H 0.9441 0.0460 0.8568
C6_6 C 0.9670(3) 0.13287(19) 0.93952(13)
C7_6 C 0.8145(3) 0.17944(14) 0.98517(9)
C20_6 C 0.7160(3) 0.05024(16) 0.86109(11)
O1_6 O 0.71047(18) 0.17882(10) 0.99442(7)
O3_6 O 0.6149(2) 0.06585(17) 0.86817(11)
O4_5 O 0.74575(19) 0.01313(10) 0.83345(6)
C21_6 C 0.6483(2) 0.35986(15) 0.94889(10)
C22_6 C 0.7280(3) 0.38698(14) 0.92278(9)
H16_6 H 0.8069 0.3817 0.9286
C23_6 C 0.6951(3) 0.42169(14) 0.88834(10)
C24_6 C 0.5795(3) 0.42970(16) 0.87997(12)
H17_6 H 0.5559 0.4540 0.8568
C25_6 C 0.4992(3) 0.4023(2) 0.90537(13)
H18_6 H 0.4203 0.4074 0.8995
C26_6 C 0.5330(3) 0.36713(19) 0.93952(13)
H19_6 H 0.4771 0.3479 0.9566
C27_6 C 0.6855(3) 0.32056(14) 0.98517(9)
C40_6 C 0.7840(3) 0.44976(16) 0.86109(11)
O6_6 O 0.78953(18) 0.32118(10) 0.99442(7)
O8_6 O 0.8851(2) 0.43415(17) 0.86817(11)
C17_7 C 0.2725(3) 0.1588(2) 0.01162(13)
H11_7 H 0.2069 0.1509 0.0286
C18_7 C 0.3700(3) 0.18077(17) 0.03005(11)
H12_7 H 0.3700 0.1884 0.0602
C1_7 C 0.6017(2) 0.10986(15) 0.69889(10)
C2_7 C 0.5220(3) 0.13698(14) 0.67278(9)
H1_7 H 0.4431 0.1317 0.6786
C3_7 C 0.5549(3) 0.17169(14) 0.63834(10)
C4_7 C 0.6705(3) 0.17970(16) 0.62997(12)
H2_7 H 0.6941 0.2040 0.6068
C5_5 C 0.7508(3) 0.1523(2) 0.65537(13)
H3_5 H 0.8297 0.1574 0.6495
C6_7 C 0.7170(3) 0.11713(19) 0.68952(13)
H4_5 H 0.7729 0.0979 0.7066
C7_7 C 0.5645(3) 0.07056(14) 0.73517(9)
C8_7 C 0.3500(3) 0.09710(16) 0.87552(10)
H5_7 H 0.3333 0.0614 0.8896
C9_7 C 0.3695(3) 0.14816(17) 0.89655(11)
C10_7 C 0.3789(3) 0.15876(19) 0.82498(12)
C11_7 C 0.4054(6) 0.2468(2) 0.86692(16)
H6_5 H 0.4138 0.2655 0.8941
C12_5 C 0.4098(9) 0.2778(2) 0.8294(2)
H7_5 H 0.4154 0.3190 0.8303
C13_7 C 0.3874(5) 0.1909(2) 0.78690(15)
H8_7 H 0.3799 0.1721 0.7598
C14_7 C 0.4624(3) 0.18291(15) 0.96503(10)
H9_7 H 0.5291 0.1917 0.9489
C15_7 C 0.3675(3) 0.16128(17) 0.94288(11)
C16_7 C 0.2720(3) 0.14849(18) 0.96747(12)
H10_7 H 0.2060 0.1326 0.9541
C19_7 C 0.4062(8) 0.2485(2) 0.78885(19)
H13_5 H 0.4172 0.2700 0.7630
C20_7 C 0.4660(3) 0.19976(16) 0.61109(11)
H14_7 H 0.534(4) 0.0356(19) 0.8394(14)
N2_7 N 0.3573(2) 0.10318(14) 0.83174(9)
N3_7 N 0.3885(3) 0.18790(16) 0.86409(11)
O1_7 O 0.46047(18) 0.07118(10) 0.74442(7)
O2_7 O 0.64255(18) 0.04152(12) 0.75269(8)
O3_7 O 0.3649(2) 0.18415(17) 0.61817(11)
O5_11 O 0.5000 0.0000 0.82216(10)
C37_7 C 0.7275(3) 0.8412(2) 0.01162(13)
H26_7 H 0.7931 0.8491 0.0286
C38_7 C 0.6300(3) 0.81923(17) 0.03005(11)
H27_7 H 0.6300 0.8116 0.0602
O5_12 O 0.5000 1.0000 0.82216(10)
H15_7 H 0.466(4) 0.9644(19) 0.8394(14)
C21_7 C 0.3983(2) 0.89014(15) 0.69889(10)
C22_7 C 0.4780(3) 0.86302(14) 0.67278(9)
H16_7 H 0.5569 0.8683 0.6786
C23_7 C 0.4451(3) 0.82831(14) 0.63834(10)
C24_7 C 0.3295(3) 0.82030(16) 0.62997(12)
H17_7 H 0.3059 0.7960 0.6068
C25_7 C 0.2492(3) 0.8477(2) 0.65537(13)
H18_7 H 0.1703 0.8426 0.6495
C26_7 C 0.2830(3) 0.88287(19) 0.68952(13)
H19_7 H 0.2271 0.9021 0.7066
C27_7 C 0.4355(3) 0.92944(14) 0.73517(9)
C28_7 C 0.6500(3) 0.90290(16) 0.87552(10)
H20_7 H 0.6667 0.9386 0.8896
C29_7 C 0.6305(3) 0.85184(17) 0.89655(11)
C30_7 C 0.6211(3) 0.84124(19) 0.82498(12)
C31_7 C 0.5946(6) 0.7532(2) 0.86692(16)
H21_7 H 0.5862 0.7345 0.8941
C32_7 C 0.5902(9) 0.7222(2) 0.8294(2)
H22_7 H 0.5846 0.6810 0.8303
C33_7 C 0.6126(5) 0.8091(2) 0.78690(15)
H23_7 H 0.6201 0.8279 0.7598
C34_7 C 0.5376(3) 0.81709(15) 0.96503(10)
H24_7 H 0.4709 0.8083 0.9489
C35_7 C 0.6325(3) 0.83872(17) 0.94288(11)
C36_7 C 0.7280(3) 0.85151(18) 0.96747(12)
H25_7 H 0.7940 0.8674 0.9541
C39_7 C 0.5938(8) 0.7515(2) 0.78885(19)
H28_7 H 0.5828 0.7300 0.7630
C40_7 C 0.5340(3) 0.80024(16) 0.61109(11)
N5_7 N 0.6427(2) 0.89682(14) 0.83174(9)
N6_7 N 0.6115(3) 0.81210(16) 0.86409(11)
O6_7 O 0.53953(18) 0.92882(10) 0.74442(7)
O7_7 O 0.35745(18) 0.95848(12) 0.75269(8)
O8_7 O 0.6351(2) 0.81585(17) 0.61817(11)
C1_8 C 0.6017(2) 0.60986(15) 0.19889(10)
C2_8 C 0.5220(3) 0.63698(14) 0.17278(9)
H1_8 H 0.4431 0.6317 0.1786
C3_8 C 0.5549(3) 0.67169(14) 0.13834(10)
C4_8 C 0.6705(3) 0.67970(16) 0.12997(12)
H2_8 H 0.6941 0.7040 0.1068
C5_6 C 0.7508(3) 0.6523(2) 0.15537(13)
H3_6 H 0.8297 0.6574 0.1495
C6_8 C 0.7170(3) 0.61713(19) 0.18952(13)
H4_6 H 0.7729 0.5979 0.2066
C7_8 C 0.5645(3) 0.57056(14) 0.23517(9)
C8_8 C 0.3500(3) 0.59710(16) 0.37552(10)
H5_8 H 0.3333 0.5614 0.3896
C9_8 C 0.3695(3) 0.64816(17) 0.39655(11)
C10_8 C 0.3789(3) 0.65876(19) 0.32498(12)
C11_8 C 0.4054(6) 0.7468(2) 0.36692(16)
H6_6 H 0.4138 0.7655 0.3941
C12_6 C 0.4098(9) 0.7778(2) 0.3294(2)
H7_6 H 0.4154 0.8190 0.3303
C13_8 C 0.3874(5) 0.6909(2) 0.28690(15)
H8_8 H 0.3799 0.6721 0.2598
C14_8 C 0.4624(3) 0.68291(15) 0.46503(10)
H9_8 H 0.5291 0.6917 0.4489
C15_8 C 0.3675(3) 0.66128(17) 0.44288(11)
C16_8 C 0.2720(3) 0.64849(18) 0.46747(12)
H10_8 H 0.2060 0.6326 0.4541
C17_8 C 0.2725(3) 0.6588(2) 0.51162(13)
H11_8 H 0.2069 0.6509 0.5286
C18_8 C 0.3700(3) 0.68077(17) 0.53005(11)
H12_8 H 0.3700 0.6884 0.5602
C19_8 C 0.4062(8) 0.7485(2) 0.28885(19)
H13_6 H 0.4172 0.7700 0.2630
C20_8 C 0.4660(3) 0.69976(16) 0.11109(11)
H14_8 H 0.534(4) 0.5356(19) 0.3394(14)
N2_8 N 0.3573(2) 0.60318(14) 0.33174(9)
N3_8 N 0.3885(3) 0.68790(16) 0.36409(11)
O1_8 O 0.46047(18) 0.57118(10) 0.24442(7)
O2_8 O 0.64255(18) 0.54152(12) 0.25269(8)
O3_8 O 0.3649(2) 0.68415(17) 0.11817(11)
O5_13 O 0.5000 0.5000 0.32216(10)
H15_8 H 0.466(4) 0.4644(19) 0.3394(14)
C21_8 C 0.3983(2) 0.39014(15) 0.19889(10)
C22_8 C 0.4780(3) 0.36302(14) 0.17278(9)
H16_8 H 0.5569 0.3683 0.1786
C23_8 C 0.4451(3) 0.32831(14) 0.13834(10)
C24_8 C 0.3295(3) 0.32030(16) 0.12997(12)
H17_8 H 0.3059 0.2960 0.1068
C25_8 C 0.2492(3) 0.3477(2) 0.15537(13)
H18_8 H 0.1703 0.3426 0.1495
C26_8 C 0.2830(3) 0.38287(19) 0.18952(13)
H19_8 H 0.2271 0.4021 0.2066
C27_8 C 0.4355(3) 0.42944(14) 0.23517(9)
C28_8 C 0.6500(3) 0.40290(16) 0.37552(10)
H20_8 H 0.6667 0.4386 0.3896
C29_8 C 0.6305(3) 0.35184(17) 0.39655(11)
C30_8 C 0.6211(3) 0.34124(19) 0.32498(12)
C31_8 C 0.5946(6) 0.2532(2) 0.36692(16)
H21_8 H 0.5862 0.2345 0.3941
C32_8 C 0.5902(9) 0.2222(2) 0.3294(2)
H22_8 H 0.5846 0.1810 0.3303
C33_8 C 0.6126(5) 0.3091(2) 0.28690(15)
H23_8 H 0.6201 0.3279 0.2598
C34_8 C 0.5376(3) 0.31709(15) 0.46503(10)
H24_8 H 0.4709 0.3083 0.4489
C35_8 C 0.6325(3) 0.33872(17) 0.44288(11)
C36_8 C 0.7280(3) 0.35151(18) 0.46747(12)
H25_8 H 0.7940 0.3674 0.4541
C37_8 C 0.7275(3) 0.3412(2) 0.51162(13)
H26_8 H 0.7931 0.3491 0.5286
C38_8 C 0.6300(3) 0.31923(17) 0.53005(11)
H27_8 H 0.6300 0.3116 0.5602
C39_8 C 0.5938(8) 0.2515(2) 0.28885(19)
H28_8 H 0.5828 0.2300 0.2630
C40_8 C 0.5340(3) 0.30024(16) 0.11109(11)
N5_8 N 0.6427(2) 0.39682(14) 0.33174(9)
N6_8 N 0.6115(3) 0.31210(16) 0.36409(11)
O6_8 O 0.53953(18) 0.42882(10) 0.24442(7)
O7_8 O 0.35745(18) 0.45848(12) 0.25269(8)
O8_8 O 0.6351(2) 0.31585(17) 0.11817(11)
H6_7 H 0.3362 0.0155 0.1441
C12_7 C 0.3402(9) 0.0278(2) 0.0794(2)
H7_7 H 0.3346 0.0690 0.0803
H13_7 H 0.3328 0.0200 0.0130
C5_7 C 0.9992(3) 0.9023(2) 0.90537(13)
H3_7 H 0.9203 0.9074 0.8995
H4_7 H 0.9771 0.8479 0.9566
C5_8 C 0.0008(3) 0.0977(2) 0.90537(13)
H3_8 H 0.0797 0.0926 0.8995
H4_8 H 0.0229 0.1521 0.9566
H6_8 H 0.6638 0.9845 0.1441
C12_8 C 0.6598(9) 0.9722(2) 0.0794(2)
H7_8 H 0.6654 0.9310 0.0803
H13_8 H 0.6672 0.9800 0.0130
loop_
_geom_bond_atom_site_label_1
_geom_bond_atom_site_label_2
_geom_bond_site_symmetry_1
_geom_bond_site_symmetry_2
C1 C2 1_555 1_555
C3 C2 1_555 1_555
C4 C3 1_555 1_555
H2 C4 1_555 1_555
C5 C4 1_555 1_555
H3 C5 1_555 1_555
C6 C1 1_555 1_555
H4 C6 1_555 1_555
C7 C1 1_555 1_555
H14 O5 1_555 1_555
O2 C7 1_555 1_555
C5 C6 1_555 1_555
C28 H20 1_555 1_555
C29 C28 1_555 1_555
C30 C33 1_555 1_555
C31 H21 1_555 1_555
C32 C31 1_555 1_555
H22 C32 1_555 1_555
C33 H23 1_555 1_555
C35 C29 1_555 1_555
C36 C35 1_555 1_555
H25 C36 1_555 1_555
C37 C36 1_555 1_555
H26 C37 1_555 1_555
C38 C37 1_555 1_555
H27 C38 1_555 1_555
C39 C32 1_555 1_555
H28 C39 1_555 1_555
N4 C34 1_555 1_555
N5 C28 1_555 1_555
N6 C29 1_555 1_555
O8 C40 1_555 1_555
O9 C40 1_555 1_555
N7 Ni2 1_555 1_555
Ni4 O9 1_555 1_555
O5_2 Ni2 1_555 1_555
C30 N5 1_555 1_555
C30 N6 1_555 1_555
C31 N6 1_555 1_555
C33 C39 1_555 1_555
C34 C35 1_555 1_555
C38 N4 1_555 1_555
N5 Ni2 1_555 1_555
Ni2 O6 1_555 1_555
C8 H5 1_555 1_555
C9 C8 1_555 1_555
C10 C13 1_555 1_555
C11 H6 1_555 1_555
C12 C11 1_555 1_555
H7 C12 1_555 1_555
C13 H8 1_555 1_555
C15 C9 1_555 1_555
C16 C15 1_555 1_555
H10 C16 1_555 1_555
C17 C16 1_555 1_555
H11 C17 1_555 1_555
C18 C17 1_555 1_555
H12 C18 1_555 1_555
C19 C12 1_555 1_555
H13 C19 1_555 1_555
N1 C14 1_555 1_555
N2 C8 1_555 1_555
N3 C9 1_555 1_555
Ni1 N2 1_555 1_555
O3 C20 1_555 1_555
O4 C20 1_555 1_555
O5_3 Ni1 1_555 1_555
N8 Ni1 1_555 1_555
Ni3 O4 1_555 1_555
C10 N2 1_555 1_555
C10 N3 1_555 1_555
C11 N3 1_555 1_555
C13 C19 1_555 1_555
C14 C15 1_555 1_555
C18 N1 1_555 1_555
Ni1 O1 1_555 1_555
H15 O5_4 1_555 1_555
C21 C22 1_555 1_555
C23 C22 1_555 1_555
C24 C23 1_555 1_555
H17 C24 1_555 1_555
C25 C24 1_555 1_555
H18 C25 1_555 1_555
C26 C21 1_555 1_555
H19 C26 1_555 1_555
C27 C21 1_555 1_555
C25 C26 1_555 1_555
C27 O7 1_555 1_555
C1_2 C2_2 1_555 1_555
C2_2 H1_2 1_555 1_555
C3_2 C2_2 1_555 1_555
C4_2 C3_2 1_555 1_555
H2_2 C4_2 1_555 1_555
C6_2 C1_2 1_555 1_555
C7_2 C1_2 1_555 1_555
C8_2 H5_2 1_555 1_555
C9_2 C8_2 1_555 1_555
C10_2 C13_2 1_555 1_555
C11_2 H6_2 1_555 1_555
C12_2 C11_2 1_555 1_555
H7_2 C12_2 1_555 1_555
C13_2 H8_2 1_555 1_555
C14_2 H9_2 1_555 1_555
C15_2 C9_2 1_555 1_555
C16_2 C15_2 1_555 1_555
H10_2 C16_2 1_555 1_555
C17_2 C16_2 1_555 1_555
H11_2 C17_2 1_555 1_555
C18_2 C17_2 1_555 1_555
H12_2 C18_2 1_555 1_555
C19_2 C12_2 1_555 1_555
H13_2 C19_2 1_555 1_555
C20_2 C3_2 1_555 1_555
H14_2 O5_5 1_555 1_555
N1_2 C14_2 1_555 1_555
N2_2 C8_2 1_555 1_555
N3_2 C9_2 1_555 1_555
Ni1_2 N2_2 1_555 1_555
O1_2 C7_2 1_555 1_555
O2_2 C7_2 1_555 1_555
O3_2 C20_2 1_555 1_555
O4_2 C20_2 1_555 1_555
O5_5 Ni1_2 1_555 1_555
H15_2 O5_5 1_555 1_555
C21_2 C22_2 1_555 1_555
C22_2 H16_2 1_555 1_555
C23_2 C22_2 1_555 1_555
C24_2 C23_2 1_555 1_555
H17_2 C24_2 1_555 1_555
C25_2 C24_2 1_555 1_555
H18_2 C25_2 1_555 1_555
C26_2 C21_2 1_555 1_555
H19_2 C26_2 1_555 1_555
C27_2 C21_2 1_555 1_555
C28_2 H20_2 1_555 1_555
C29_2 C28_2 1_555 1_555
C30_2 C33_2 1_555 1_555
C33_2 H23_2 1_555 1_555
C34_2 H24_2 1_555 1_555
C35_2 C29_2 1_555 1_555
C36_2 C35_2 1_555 1_555
C37_2 C36_2 1_555 1_555
C38_2 C37_2 1_555 1_555
H27_2 C38_2 1_555 1_555
C40_2 C23_2 1_555 1_555
N4_2 C34_2 1_555 1_555
N5_2 C28_2 1_555 1_555
N6_2 C29_2 1_555 1_555
Ni6 O2_2 1_555 1_555
O6_2 C27_2 1_555 1_555
O7_2 Ni1_2 1_555 1_555
O8_2 C40_2 1_555 1_555
O11 C40_2 1_555 1_555
N8_2 Ni1_2 1_555 1_555
Ni3_2 O4_2 1_555 1_555
Ni5_2 N4_2 1_555 1_555
Ni6_2 N1_2 1_555 1_555
O10_2 Ni1_2 1_555 1_555
O11_2 Ni6 1_555 1_555
C10_2 N2_2 1_555 1_555
C10_2 N3_2 1_555 1_555
C11_2 N3_2 1_555 1_555
C13_2 C19_2 1_555 1_555
C14_2 C15_2 1_555 1_555
C18_2 N1_2 1_555 1_555
Ni1_2 O1_2 1_555 1_555
O5_5 Ni6 1_555 1_555
C25_2 C26_2 1_555 1_555
C27_2 O7_2 1_555 1_555
C30_2 N5_2 1_555 1_555
C30_2 N6_2 1_555 1_555
C31_2 N6_2 1_555 1_555
C33_2 C39_2 1_555 1_555
C34_2 C35_2 1_555 1_555
C38_2 N4_2 1_555 1_555
N5_2 Ni6 1_555 1_555
Ni6 O6_2 1_555 1_555
H22_2 C32_2 1_555 1_555
H3_2 C5_2 1_555 1_555
H3_3 C5_3 1_555 1_555
H22_3 C32_3 1_555 1_555
C1_3 C2_3 1_555 1_555
C2_3 H1_3 1_555 1_555
C3_3 C2_3 1_555 1_555
C4_3 C3_3 1_555 1_555
H2_3 C4_3 1_555 1_555
C6_3 C1_3 1_555 1_555
C7_3 C1_3 1_555 1_555
C8_3 H5_3 1_555 1_555
C9_3 C8_3 1_555 1_555
C10_3 C13_3 1_555 1_555
C11_3 H6_3 1_555 1_555
C12_3 C11_3 1_555 1_555
H7_3 C12_3 1_555 1_555
C13_3 H8_3 1_555 1_555
C14_3 H9_3 1_555 1_555
C15_3 C9_3 1_555 1_555
C16_3 C15_3 1_555 1_555
H10_3 C16_3 1_555 1_555
C17_3 C16_3 1_555 1_555
H11_3 C17_3 1_555 1_555
C18_3 C17_3 1_555 1_555
H12_3 C18_3 1_555 1_555
C19_3 C12_3 1_555 1_555
H13_3 C19_3 1_555 1_555
C20_3 C3_3 1_555 1_555
H14_3 O5_6 1_555 1_555
N1_3 C14_3 1_555 1_555
N2_3 C8_3 1_555 1_555
N3_3 C9_3 1_555 1_555
Ni1_3 N2_3 1_555 1_555
O1_3 C7_3 1_555 1_555
O2_3 C7_3 1_555 1_555
O3_3 C20_3 1_555 1_555
O4_3 C20_3 1_555 1_555
O5_6 Ni1_3 1_555 1_555
H15_3 O5_6 1_555 1_555
C21_3 C22_3 1_555 1_555
C22_3 H16_3 1_555 1_555
C23_3 C22_3 1_555 1_555
C24_3 C23_3 1_555 1_555
H17_3 C24_3 1_555 1_555
C25_3 C24_3 1_555 1_555
H18_3 C25_3 1_555 1_555
C26_3 C21_3 1_555 1_555
H19_3 C26_3 1_555 1_555
C27_3 C21_3 1_555 1_555
C28_3 H20_3 1_555 1_555
C29_3 C28_3 1_555 1_555
C30_3 C33_3 1_555 1_555
C33_3 H23_3 1_555 1_555
C34_3 H24_3 1_555 1_555
C35_3 C29_3 1_555 1_555
C36_3 C35_3 1_555 1_555
C37_3 C36_3 1_555 1_555
C38_3 C37_3 1_555 1_555
H27_3 C38_3 1_555 1_555
C40_3 C23_3 1_555 1_555
N4_3 C34_3 1_555 1_555
N5_3 C28_3 1_555 1_555
N6_3 C29_3 1_555 1_555
Ni5 O2_3 1_555 1_555
O6_3 C27_3 1_555 1_555
O7_3 Ni1_3 1_555 1_555
O8_3 C40_3 1_555 1_555
O10 C40_3 1_555 1_555
N8_3 Ni1_3 1_555 1_555
Ni3_3 O4_3 1_555 1_555
Ni5_3 N4_3 1_555 1_555
Ni6_3 N1_3 1_555 1_555
O10_3 Ni1_3 1_555 1_555
O11_3 Ni5 1_555 1_555
C10_3 N2_3 1_555 1_555
C10_3 N3_3 1_555 1_555
C11_3 N3_3 1_555 1_555
C13_3 C19_3 1_555 1_555
C14_3 C15_3 1_555 1_555
C18_3 N1_3 1_555 1_555
Ni1_3 O1_3 1_555 1_555
O5_6 Ni5 1_555 1_555
C25_3 C26_3 1_555 1_555
C27_3 O7_3 1_555 1_555
C30_3 N5_3 1_555 1_555
C30_3 N6_3 1_555 1_555
C31_3 N6_3 1_555 1_555
C33_3 C39_3 1_555 1_555
C34_3 C35_3 1_555 1_555
C38_3 N4_3 1_555 1_555
N5_3 Ni5 1_555 1_555
Ni5 O6_3 1_555 1_555
H26_4 C37_4 1_555 1_555
C38_4 C37_4 1_555 1_555
H27_4 C38_4 1_555 1_555
C38_4 N4_4 1_555 1_555
C1_4 C2_4 1_555 1_555
C3_4 C2_4 1_555 1_555
C4_4 C3_4 1_555 1_555
H2_4 C4_4 1_555 1_555
C5_4 C4_4 1_555 1_555
H3_4 C5_4 1_555 1_555
C6_4 C1_4 1_555 1_555
H4_4 C6_4 1_555 1_555
C7_4 C1_4 1_555 1_555
H14_4 O5_7 1_555 1_555
O2_4 C7_4 1_555 1_555
C28_4 H20_4 1_555 1_555
C29_4 C28_4 1_555 1_555
C30_4 C33_4 1_555 1_555
C31_4 H21_4 1_555 1_555
C32_4 C31_4 1_555 1_555
H22_4 C32_4 1_555 1_555
C33_4 H23_4 1_555 1_555
C35_4 C29_4 1_555 1_555
C36_4 C35_4 1_555 1_555
H25_4 C36_4 1_555 1_555
C39_4 C32_4 1_555 1_555
H28_4 C39_4 1_555 1_555
N5_4 C28_4 1_555 1_555
N6_4 C29_4 1_555 1_555
Ni6_2 O2_4 1_555 1_555
O8_4 C40_4 1_555 1_555
O11_2 C40_4 1_555 1_555
O11_4 Ni6_2 1_555 1_555
C5_4 C6_4 1_555 1_555
O5_7 Ni6_2 1_555 1_555
C30_4 N5_4 1_555 1_555
C30_4 N6_4 1_555 1_555
C31_4 N6_4 1_555 1_555
C33_4 C39_4 1_555 1_555
C34_4 C35_4 1_555 1_555
N5_4 Ni6_2 1_555 1_555
Ni6_2 O6_4 1_555 1_555
H11_4 C17_4 1_555 1_555
C18_4 C17_4 1_555 1_555
H12_4 C18_4 1_555 1_555
C18_4 N1_4 1_555 1_555
C8_4 H5_4 1_555 1_555
C9_4 C8_4 1_555 1_555
C10_4 C13_4 1_555 1_555
C11_4 H6_4 1_555 1_555
C12_4 C11_4 1_555 1_555
H7_4 C12_4 1_555 1_555
C13_4 H8_4 1_555 1_555
C15_4 C9_4 1_555 1_555
C16_4 C15_4 1_555 1_555
H10_4 C16_4 1_555 1_555
C19_4 C12_4 1_555 1_555
H13_4 C19_4 1_555 1_555
N2_4 C8_4 1_555 1_555
N3_4 C9_4 1_555 1_555
Ni6_3 N2_4 1_555 1_555
O3_4 C20_4 1_555 1_555
O11_3 C20_4 1_555 1_555
O5_8 Ni6_3 1_555 1_555
H15_4 O5_8 1_555 1_555
C21_4 C22_4 1_555 1_555
C23_4 C22_4 1_555 1_555
C24_4 C23_4 1_555 1_555
H17_4 C24_4 1_555 1_555
C25_4 C24_4 1_555 1_555
H18_4 C25_4 1_555 1_555
C26_4 C21_4 1_555 1_555
H19_4 C26_4 1_555 1_555
C27_4 C21_4 1_555 1_555
O7_4 Ni6_3 1_555 1_555
O10_4 Ni6_3 1_555 1_555
C10_4 N2_4 1_555 1_555
C10_4 N3_4 1_555 1_555
C11_4 N3_4 1_555 1_555
C13_4 C19_4 1_555 1_555
C14_4 C15_4 1_555 1_555
Ni6_3 O1_4 1_555 1_555
C25_4 C26_4 1_555 1_555
C27_4 O7_4 1_555 1_555
C8_5 H5_5 1_555 1_555
C9_5 C8_5 1_555 1_555
C10_5 C13_5 1_555 1_555
C13_5 H8_5 1_555 1_555
C14_5 H9_5 1_555 1_555
C15_5 C9_5 1_555 1_555
C16_5 C15_5 1_555 1_555
H10_5 C16_5 1_555 1_555
C17_5 C16_5 1_555 1_555
H11_5 C17_5 1_555 1_555
C18_5 C17_5 1_555 1_555
H12_5 C18_5 1_555 1_555
H14_5 O5_9 1_555 1_555
N7 C14_5 1_555 1_555
N2_5 C8_5 1_555 1_555
N3_5 C9_5 1_555 1_555
Ni1_4 N2_5 1_555 1_555
O5_9 Ni1_4 1_555 1_555
H15_5 O5_9 1_555 1_555
C28_5 H20_5 1_555 1_555
C29_5 C28_5 1_555 1_555
C30_5 C33_5 1_555 1_555
C31_5 H21_5 1_555 1_555
C32_5 C31_5 1_555 1_555
H22_5 C32_5 1_555 1_555
C33_5 H23_5 1_555 1_555
C34_5 H24_5 1_555 1_555
C35_5 C29_5 1_555 1_555
C36_5 C35_5 1_555 1_555
C37_5 C36_5 1_555 1_555
C38_5 C37_5 1_555 1_555
H27_5 C38_5 1_555 1_555
C39_5 C32_5 1_555 1_555
H28_5 C39_5 1_555 1_555
N4_5 C34_5 1_555 1_555
N5_5 C28_5 1_555 1_555
N6_5 C29_5 1_555 1_555
Ni4 O2_5 1_555 1_555
O7_5 Ni1_4 1_555 1_555
N8_4 Ni1_4 1_555 1_555
Ni3_2 N4_5 1_555 1_555
O10_5 Ni1_4 1_555 1_555
C10_5 N2_5 1_555 1_555
C10_5 N3_5 1_555 1_555
C11_5 N3_5 1_555 1_555
C13_5 C19_5 1_555 1_555
C14_5 C15_5 1_555 1_555
C18_5 N7 1_555 1_555
O5_9 Ni4 1_555 1_555
C30_5 N5_5 1_555 1_555
C30_5 N6_5 1_555 1_555
C31_5 N6_5 1_555 1_555
C33_5 C39_5 1_555 1_555
C34_5 C35_5 1_555 1_555
C38_5 N4_5 1_555 1_555
N5_5 Ni4 1_555 1_555
C1_5 C2_5 1_555 1_555
C2_5 H1_5 1_555 1_555
C3_5 C2_5 1_555 1_555
C4_5 C3_5 1_555 1_555
H2_5 C4_5 1_555 1_555
C6_5 C1_5 1_555 1_555
C7_5 C1_5 1_555 1_555
C20_5 C3_5 1_555 1_555
O1_5 C7_5 1_555 1_555
O3_5 C20_5 1_555 1_555
O4_4 C20_5 1_555 1_555
C21_5 C22_5 1_555 1_555
C22_5 H16_5 1_555 1_555
C23_5 C22_5 1_555 1_555
C24_5 C23_5 1_555 1_555
H17_5 C24_5 1_555 1_555
C25_5 C24_5 1_555 1_555
H18_5 C25_5 1_555 1_555
C26_5 C21_5 1_555 1_555
H19_5 C26_5 1_555 1_555
C27_5 C21_5 1_555 1_555
C40_5 C23_5 1_555 1_555
O6_5 C27_5 1_555 1_555
O8_5 C40_5 1_555 1_555
O11_4 C40_5 1_555 1_555
C25_5 C26_5 1_555 1_555
C8_6 H5_6 1_555 1_555
C9_6 C8_6 1_555 1_555
C10_6 C13_6 1_555 1_555
C13_6 H8_6 1_555 1_555
C14_6 H9_6 1_555 1_555
C15_6 C9_6 1_555 1_555
C16_6 C15_6 1_555 1_555
H10_6 C16_6 1_555 1_555
C17_6 C16_6 1_555 1_555
H11_6 C17_6 1_555 1_555
C18_6 C17_6 1_555 1_555
H12_6 C18_6 1_555 1_555
H14_6 O5_10 1_555 1_555
N8 C14_6 1_555 1_555
N2_6 C8_6 1_555 1_555
N3_6 C9_6 1_555 1_555
Ni1_5 N2_6 1_555 1_555
O5_10 Ni1_5 1_555 1_555
H15_6 O5_10 1_555 1_555
C28_6 H20_6 1_555 1_555
C29_6 C28_6 1_555 1_555
C30_6 C33_6 1_555 1_555
C31_6 H21_6 1_555 1_555
C32_6 C31_6 1_555 1_555
H22_6 C32_6 1_555 1_555
C33_6 H23_6 1_555 1_555
C34_6 H24_6 1_555 1_555
C35_6 C29_6 1_555 1_555
C36_6 C35_6 1_555 1_555
C37_6 C36_6 1_555 1_555
C38_6 C37_6 1_555 1_555
H27_6 C38_6 1_555 1_555
C39_6 C32_6 1_555 1_555
H28_6 C39_6 1_555 1_555
N4_6 C34_6 1_555 1_555
N5_6 C28_6 1_555 1_555
N6_6 C29_6 1_555 1_555
Ni3 O2_6 1_555 1_555
O7_6 Ni1_5 1_555 1_555
N8_5 Ni1_5 1_555 1_555
Ni3_3 N4_6 1_555 1_555
O10_6 Ni1_5 1_555 1_555
C10_6 N2_6 1_555 1_555
C10_6 N3_6 1_555 1_555
C11_6 N3_6 1_555 1_555
C13_6 C19_6 1_555 1_555
C14_6 C15_6 1_555 1_555
C18_6 N8 1_555 1_555
O5_10 Ni3 1_555 1_555
C30_6 N5_6 1_555 1_555
C30_6 N6_6 1_555 1_555
C31_6 N6_6 1_555 1_555
C33_6 C39_6 1_555 1_555
C34_6 C35_6 1_555 1_555
C38_6 N4_6 1_555 1_555
N5_6 Ni3 1_555 1_555
C1_6 C2_6 1_555 1_555
C2_6 H1_6 1_555 1_555
C3_6 C2_6 1_555 1_555
C4_6 C3_6 1_555 1_555
H2_6 C4_6 1_555 1_555
C6_6 C1_6 1_555 1_555
C7_6 C1_6 1_555 1_555
C20_6 C3_6 1_555 1_555
O1_6 C7_6 1_555 1_555
O3_6 C20_6 1_555 1_555
O4_5 C20_6 1_555 1_555
C21_6 C22_6 1_555 1_555
C22_6 H16_6 1_555 1_555
C23_6 C22_6 1_555 1_555
C24_6 C23_6 1_555 1_555
H17_6 C24_6 1_555 1_555
C25_6 C24_6 1_555 1_555
H18_6 C25_6 1_555 1_555
C26_6 C21_6 1_555 1_555
H19_6 C26_6 1_555 1_555
C27_6 C21_6 1_555 1_555
C40_6 C23_6 1_555 1_555
O6_6 C27_6 1_555 1_555
O8_6 C40_6 1_555 1_555
O10_4 C40_6 1_555 1_555
C25_6 C26_6 1_555 1_555
H11_7 C17_7 1_555 1_555
C18_7 C17_7 1_555 1_555
H12_7 C18_7 1_555 1_555
C18_7 N8_5 1_555 1_555
C1_7 C2_7 1_555 1_555
C2_7 H1_7 1_555 1_555
C3_7 C2_7 1_555 1_555
C4_7 C3_7 1_555 1_555
H2_7 C4_7 1_555 1_555
C5_5 C4_7 1_555 1_555
H3_5 C5_5 1_555 1_555
C6_7 C1_7 1_555 1_555
H4_5 C6_7 1_555 1_555
C7_7 C1_7 1_555 1_555
C8_7 H5_7 1_555 1_555
C9_7 C8_7 1_555 1_555
C10_7 C13_7 1_555 1_555
C11_7 H6_5 1_555 1_555
C12_5 C11_7 1_555 1_555
H7_5 C12_5 1_555 1_555
C13_7 H8_7 1_555 1_555
C14_7 H9_7 1_555 1_555
C15_7 C9_7 1_555 1_555
C16_7 C15_7 1_555 1_555
H10_7 C16_7 1_555 1_555
C19_7 C12_5 1_555 1_555
H13_5 C19_7 1_555 1_555
C20_7 C3_7 1_555 1_555
H14_7 O5_11 1_555 1_555
N2_7 C8_7 1_555 1_555
N3_7 C9_7 1_555 1_555
Ni5_2 N2_7 1_555 1_555
O1_7 C7_7 1_555 1_555
O2_7 C7_7 1_555 1_555
O3_7 C20_7 1_555 1_555
O10_2 C20_7 1_555 1_555
O5_11 Ni5_2 1_555 1_555
C5_5 C6_7 1_555 1_555
C10_7 N2_7 1_555 1_555
C10_7 N3_7 1_555 1_555
C11_7 N3_7 1_555 1_555
C13_7 C19_7 1_555 1_555
C14_7 C15_7 1_555 1_555
Ni5_2 O1_7 1_555 1_555
H26_7 C37_7 1_555 1_555
C38_7 C37_7 1_555 1_555
H27_7 C38_7 1_555 1_555
C38_7 N8_4 1_555 1_555
H15_7 O5_12 1_555 1_555
C21_7 C22_7 1_555 1_555
C22_7 H16_7 1_555 1_555
C23_7 C22_7 1_555 1_555
C24_7 C23_7 1_555 1_555
H17_7 C24_7 1_555 1_555
C25_7 C24_7 1_555 1_555
H18_7 C25_7 1_555 1_555
C26_7 C21_7 1_555 1_555
H19_7 C26_7 1_555 1_555
C27_7 C21_7 1_555 1_555
C28_7 H20_7 1_555 1_555
C29_7 C28_7 1_555 1_555
C30_7 C33_7 1_555 1_555
C31_7 H21_7 1_555 1_555
C32_7 C31_7 1_555 1_555
H22_7 C32_7 1_555 1_555
C33_7 H23_7 1_555 1_555
C34_7 H24_7 1_555 1_555
C35_7 C29_7 1_555 1_555
C36_7 C35_7 1_555 1_555
H25_7 C36_7 1_555 1_555
C39_7 C32_7 1_555 1_555
H28_7 C39_7 1_555 1_555
C40_7 C23_7 1_555 1_555
N5_7 C28_7 1_555 1_555
N6_7 C29_7 1_555 1_555
O6_7 C27_7 1_555 1_555
O8_7 C40_7 1_555 1_555
O10_3 C40_7 1_555 1_555
O5_12 Ni5_3 1_555 1_555
C25_7 C26_7 1_555 1_555
C27_7 O7_7 1_555 1_555
C30_7 N5_7 1_555 1_555
C30_7 N6_7 1_555 1_555
C31_7 N6_7 1_555 1_555
C33_7 C39_7 1_555 1_555
C34_7 C35_7 1_555 1_555
N5_7 Ni5_3 1_555 1_555
Ni5_3 O6_7 1_555 1_555
C1_8 C2_8 1_555 1_555
C2_8 H1_8 1_555 1_555
C3_8 C2_8 1_555 1_555
C4_8 C3_8 1_555 1_555
H2_8 C4_8 1_555 1_555
C5_6 C4_8 1_555 1_555
H3_6 C5_6 1_555 1_555
C6_8 C1_8 1_555 1_555
H4_6 C6_8 1_555 1_555
C7_8 C1_8 1_555 1_555
C8_8 H5_8 1_555 1_555
C9_8 C8_8 1_555 1_555
C10_8 C13_8 1_555 1_555
C11_8 H6_6 1_555 1_555
C12_6 C11_8 1_555 1_555
H7_6 C12_6 1_555 1_555
C13_8 H8_8 1_555 1_555
C14_8 H9_8 1_555 1_555
C15_8 C9_8 1_555 1_555
C16_8 C15_8 1_555 1_555
H10_8 C16_8 1_555 1_555
C17_8 C16_8 1_555 1_555
H11_8 C17_8 1_555 1_555
C18_8 C17_8 1_555 1_555
H12_8 C18_8 1_555 1_555
C19_8 C12_6 1_555 1_555
H13_6 C19_8 1_555 1_555
C20_8 C3_8 1_555 1_555
H14_8 O5_13 1_555 1_555
N8_3 C14_8 1_555 1_555
N2_8 C8_8 1_555 1_555
N3_8 C9_8 1_555 1_555
Ni3_2 N2_8 1_555 1_555
O1_8 C7_8 1_555 1_555
O2_8 C7_8 1_555 1_555
O3_8 C20_8 1_555 1_555
O10_5 C20_8 1_555 1_555
O5_13 Ni3_2 1_555 1_555
H15_8 O5_13 1_555 1_555
C21_8 C22_8 1_555 1_555
C22_8 H16_8 1_555 1_555
C23_8 C22_8 1_555 1_555
C24_8 C23_8 1_555 1_555
H17_8 C24_8 1_555 1_555
C25_8 C24_8 1_555 1_555
H18_8 C25_8 1_555 1_555
C26_8 C21_8 1_555 1_555
H19_8 C26_8 1_555 1_555
C27_8 C21_8 1_555 1_555
C28_8 H20_8 1_555 1_555
C29_8 C28_8 1_555 1_555
C30_8 C33_8 1_555 1_555
C31_8 H21_8 1_555 1_555
C32_8 C31_8 1_555 1_555
H22_8 C32_8 1_555 1_555
C33_8 H23_8 1_555 1_555
C34_8 H24_8 1_555 1_555
C35_8 C29_8 1_555 1_555
C36_8 C35_8 1_555 1_555
H25_8 C36_8 1_555 1_555
C37_8 C36_8 1_555 1_555
H26_8 C37_8 1_555 1_555
C38_8 C37_8 1_555 1_555
H27_8 C38_8 1_555 1_555
C39_8 C32_8 1_555 1_555
H28_8 C39_8 1_555 1_555
C40_8 C23_8 1_555 1_555
N8_2 C34_8 1_555 1_555
N5_8 C28_8 1_555 1_555
N6_8 C29_8 1_555 1_555
Ni3_3 O2_8 1_555 1_555
O6_8 C27_8 1_555 1_555
O7_8 Ni3_2 1_555 1_555
O8_8 C40_8 1_555 1_555
O10_6 C40_8 1_555 1_555
C5_6 C6_8 1_555 1_555
C10_8 N2_8 1_555 1_555
C10_8 N3_8 1_555 1_555
C11_8 N3_8 1_555 1_555
C13_8 C19_8 1_555 1_555
C14_8 C15_8 1_555 1_555
C18_8 N8_3 1_555 1_555
Ni3_2 O1_8 1_555 1_555
O5_13 Ni3_3 1_555 1_555
C25_8 C26_8 1_555 1_555
C27_8 O7_8 1_555 1_555
C30_8 N5_8 1_555 1_555
C30_8 N6_8 1_555 1_555
C31_8 N6_8 1_555 1_555
C33_8 C39_8 1_555 1_555
C34_8 C35_8 1_555 1_555
C38_8 N8_2 1_555 1_555
N5_8 Ni3_3 1_555 1_555
Ni3_3 O6_8 1_555 1_555
H7_7 C12_7 1_555 1_555
H3_7 C5_7 1_555 1_555
H3_8 C5_8 1_555 1_555
H7_8 C12_8 1_555 1_555

#END
