
###############################################################################
#
# This file contains modified crystal structure data generated from the
# MOF subset of the Cambridge Structural Database (CSD) v543 
# hosted by the Cambridge Crystallographic Data Centre (CCDC).
#
# This work is licensed under the Creative Commons
# Attribution-NonCommercial-ShareAlike 4.0 International License.
# To view a copy of this license, visit
# http://creativecommons.org/licenses/by-nc-sa/4.0/
# or send a letter to
# Creative Commons, PO Box 1866, Mountain View, CA 94042, USA.
#
# CIF created using the CSD Python API on 29 September 2022
# The structure has been converted into the P1 space group
# The structure has a 3D framework
# The original CSD entry QOKBEZ is in the monoclinic crystal system
# The framework has been calculated to contain at least 10.0% void space
# The void calculation uses a probe of radius 1.32A, grid spacing 0.4
# The framework is charged, counterions have been retained in the structure
#
###############################################################################

data_QOKBEZ
_chemical_formula_moiety         '(C128 H128 Ag16 N80 16+)n'
_symmetry_cell_setting           triclinic
_symmetry_space_group_name_H-M   'P 1'
_symmetry_Int_Tables_number      1
_space_group_name_Hall           'P 1'
loop_
_symmetry_equiv_pos_site_id
_symmetry_equiv_pos_as_xyz
1 x,y,z
_cell_length_a                   21.7793(15)
_cell_length_b                   24.0089(15)
_cell_length_c                   13.1613(8)
_cell_angle_alpha                90
_cell_angle_beta                 99.0040(10)
_cell_angle_gamma                90
_cell_volume                     6797.2
loop_
_atom_site_label
_atom_site_type_symbol
_atom_site_fract_x
_atom_site_fract_y
_atom_site_fract_z
Ag1 Ag 0.66415(4) 0.33512(3) 0.43822(7)
N1 N 0.6389(3) 0.0966(3) 0.3832(6)
C1 C 0.6168(4) 0.2150(3) 0.4427(7)
H1 H 0.6451 0.2092 0.3976
C2 C 0.5829(4) 0.1702(3) 0.4708(6)
Ag2 Ag 0.73400(4) 0.11543(3) 0.33340(8)
N2 N 0.6293(4) 0.0428(3) 0.3629(6)
C3 C 0.5401(4) 0.1793(4) 0.5360(8)
H2 H 0.5166 0.1500 0.5556
N3 N 0.5787(3) 0.0303(3) 0.3991(6)
C4 C 0.5326(4) 0.2325(4) 0.5716(8)
H3 H 0.5036 0.2399 0.6147
N4 N 0.5532(3) 0.0723(3) 0.4427(6)
C5 C 0.5691(4) 0.2746(4) 0.5418(8)
H4 H 0.5647 0.3102 0.5674
N5 N 0.6100(4) 0.2666(3) 0.4786(6)
C6 C 0.5920(4) 0.1140(3) 0.4312(6)
N6 N 0.7115(4) 0.4046(3) 0.3832(6)
C7 C 0.6779(4) 0.4447(4) 0.3291(7)
H5 H 0.6354 0.4459 0.3309
N7 N 0.5999(3) 0.5162(3) 0.1881(6)
C8 C 0.7030(4) 0.4842(3) 0.2709(6)
N8 N 0.5836(4) 0.5566(3) 0.1205(6)
C9 C 0.7669(4) 0.4835(4) 0.2738(7)
H6 H 0.7860 0.5098 0.2372
N9 N 0.6293(4) 0.5864(3) 0.0981(6)
C10 C 0.8022(4) 0.4433(4) 0.3318(8)
H7 H 0.8451 0.4425 0.3354
N10 N 0.6800(3) 0.5657(3) 0.1526(5)
C11 C 0.7727(5) 0.4046(4) 0.3838(7)
H8 H 0.7964 0.3772 0.4212
C12 C 0.6618(4) 0.5222(3) 0.2068(7)
C13 C 0.5185(5) 0.5672(4) 0.0791(9)
H9 H 0.5163 0.5933 0.0223
H10 H 0.4984 0.5843 0.1320
C14 C 0.4841(4) 0.5143(4) 0.0419(9)
H11 H 0.4414 0.5232 0.0139
H12 H 0.4839 0.4891 0.0994
H16 H 0.4675 0.0072 0.3129
N11 N 0.3611(3) 0.0966(3) 0.1168(6)
C17 C 0.3832(4) 0.2150(3) 0.0573(7)
H17 H 0.3549 0.2092 0.1024
C18 C 0.4171(4) 0.1702(3) 0.0292(6)
N12 N 0.3707(4) 0.0428(3) 0.1371(6)
N13 N 0.4213(3) 0.0303(3) 0.1009(6)
N14 N 0.4468(3) 0.0723(3) 0.0573(6)
N15 N 0.3900(4) 0.2666(3) 0.0214(6)
C22 C 0.4080(4) 0.1140(3) 0.0688(6)
H24 H 0.5325 0.0072 0.1871
Ag3 Ag 0.33585(4) 0.33512(3) 0.06178(7)
Ag4 Ag 0.26600(4) 0.11543(3) 0.16660(8)
Ag6 Ag 0.76600(4) 0.61543(3) 0.16660(8)
N21 N 0.2885(4) 0.4046(3) 0.1168(6)
N22 N 0.1800(3) 0.0657(3) 0.1526(5)
N23 N 0.8200(3) 0.0657(3) 0.3474(5)
C19 C 0.4599(4) 0.1793(4) 0.9640(8)
H18 H 0.4834 0.1500 0.9444
C20 C 0.4674(4) 0.2325(4) 0.9284(8)
H19 H 0.4964 0.2399 0.8853
C21 C 0.4309(4) 0.2746(4) 0.9582(8)
H20 H 0.4353 0.3102 0.9326
N16 N 0.2885(4) 0.5954(3) 0.6168(6)
C25 C 0.3221(4) 0.5553(4) 0.6709(7)
H25 H 0.3646 0.5541 0.6691
N17 N 0.4001(3) 0.4838(3) 0.8119(6)
C26 C 0.2970(4) 0.5158(3) 0.7291(6)
N18 N 0.4164(4) 0.4434(3) 0.8795(6)
C27 C 0.2331(4) 0.5165(4) 0.7262(7)
H26 H 0.2140 0.4902 0.7628
N19 N 0.3707(4) 0.4136(3) 0.9019(6)
C28 C 0.1978(4) 0.5567(4) 0.6682(8)
H27 H 0.1549 0.5575 0.6646
N20 N 0.3200(3) 0.4343(3) 0.8474(5)
C29 C 0.2273(5) 0.5954(4) 0.6162(7)
H28 H 0.2036 0.6228 0.5788
C30 C 0.3382(4) 0.4778(3) 0.7932(7)
C31 C 0.4815(5) 0.4328(4) 0.9209(9)
H29 H 0.4837 0.4067 0.9777
H30 H 0.5016 0.4157 0.8680
C32 C 0.5159(4) 0.4857(4) 0.9581(9)
H31 H 0.5586 0.4768 0.9861
H32 H 0.5161 0.5109 0.9006
Ag5 Ag 0.33585(4) 0.66488(3) 0.56178(7)
Ag7 Ag 0.23400(4) 0.38457(3) 0.83340(8)
C7_2 C 0.3221(4) 0.4447(4) 0.1709(7)
H5_2 H 0.3646 0.4459 0.1691
N7_2 N 0.4001(3) 0.5162(3) 0.3119(6)
C8_2 C 0.2970(4) 0.4842(3) 0.2291(6)
N8_2 N 0.4164(4) 0.5566(3) 0.3795(6)
C9_2 C 0.2331(4) 0.4835(4) 0.2262(7)
H6_2 H 0.2140 0.5098 0.2628
N9_2 N 0.3707(4) 0.5864(3) 0.4019(6)
C10_2 C 0.1978(4) 0.4433(4) 0.1682(8)
H7_2 H 0.1549 0.4425 0.1646
N10_2 N 0.3200(3) 0.5657(3) 0.3474(5)
C11_2 C 0.2273(5) 0.4046(4) 0.1162(7)
H8_2 H 0.2036 0.3772 0.0788
C12_2 C 0.3382(4) 0.5222(3) 0.2932(7)
C13_2 C 0.4815(5) 0.5672(4) 0.4209(9)
H9_2 H 0.4837 0.5933 0.4777
H10_2 H 0.5016 0.5843 0.3680
C14_2 C 0.5159(4) 0.5143(4) 0.4581(9)
H11_2 H 0.5586 0.5232 0.4861
H12_2 H 0.5161 0.4891 0.4006
N16_2 N 0.7115(4) 0.5954(3) 0.8832(6)
C25_2 C 0.6779(4) 0.5553(4) 0.8291(7)
H25_2 H 0.6354 0.5541 0.8309
N17_2 N 0.5999(3) 0.4838(3) 0.6881(6)
C26_2 C 0.7030(4) 0.5158(3) 0.7709(6)
N18_2 N 0.5836(4) 0.4434(3) 0.6205(6)
C27_2 C 0.7669(4) 0.5165(4) 0.7738(7)
H26_2 H 0.7860 0.4902 0.7372
N19_2 N 0.6293(4) 0.4136(3) 0.5981(6)
C28_2 C 0.8022(4) 0.5567(4) 0.8318(8)
H27_2 H 0.8451 0.5575 0.8354
N20_2 N 0.6800(3) 0.4343(3) 0.6526(5)
C29_2 C 0.7727(5) 0.5954(4) 0.8838(7)
H28_2 H 0.7964 0.6228 0.9212
C30_2 C 0.6618(4) 0.4778(3) 0.7068(7)
C31_2 C 0.5185(5) 0.4328(4) 0.5791(9)
H29_2 H 0.5163 0.4067 0.5223
H30_2 H 0.4984 0.4157 0.6320
C32_2 C 0.4841(4) 0.4857(4) 0.5419(9)
H31_2 H 0.4414 0.4768 0.5139
H32_2 H 0.4839 0.5109 0.5994
Ag5_2 Ag 0.66415(4) 0.66488(3) 0.93822(7)
Ag6_2 Ag 0.23400(4) 0.61543(3) 0.33340(8)
Ag7_2 Ag 0.76600(4) 0.38457(3) 0.66660(8)
N7_3 N 0.0999(3) 0.0162(3) 0.1881(6)
N8_3 N 0.0836(4) 0.0566(3) 0.1205(6)
H6_3 H 0.2860 0.0098 0.2372
N9_3 N 0.1293(4) 0.0864(3) 0.0981(6)
C12_3 C 0.1618(4) 0.0222(3) 0.2068(7)
C13_3 C 0.0185(5) 0.0672(4) 0.0791(9)
H9_3 H 0.0163 0.0933 0.0223
H32_3 H 0.0161 0.0109 0.9006
Ag1_2 Ag 0.16415(4) 0.83512(3) 0.43822(7)
N1_2 N 0.1389(3) 0.5966(3) 0.3832(6)
C1_2 C 0.1168(4) 0.7150(3) 0.4427(7)
H1_2 H 0.1451 0.7092 0.3976
C2_2 C 0.0829(4) 0.6702(3) 0.4708(6)
N2_2 N 0.1293(4) 0.5428(3) 0.3629(6)
C3_2 C 0.0401(4) 0.6793(4) 0.5360(8)
H2_2 H 0.0166 0.6500 0.5556
N3_2 N 0.0787(3) 0.5303(3) 0.3991(6)
C4_2 C 0.0326(4) 0.7325(4) 0.5716(8)
H3_2 H 0.0036 0.7399 0.6147
N4_2 N 0.0532(3) 0.5723(3) 0.4427(6)
C5_2 C 0.0691(4) 0.7746(4) 0.5418(8)
H4_2 H 0.0647 0.8102 0.5674
N5_2 N 0.1100(4) 0.7666(3) 0.4786(6)
C6_2 C 0.0920(4) 0.6140(3) 0.4312(6)
N6_2 N 0.2115(4) 0.9046(3) 0.3832(6)
C7_3 C 0.1779(4) 0.9447(4) 0.3291(7)
H5_3 H 0.1354 0.9459 0.3309
C8_3 C 0.2030(4) 0.9842(3) 0.2709(6)
C9_3 C 0.2669(4) 0.9835(4) 0.2738(7)
C10_3 C 0.3022(4) 0.9433(4) 0.3318(8)
H7_3 H 0.3451 0.9425 0.3354
C11_3 C 0.2727(5) 0.9046(4) 0.3838(7)
H8_3 H 0.2964 0.8772 0.4212
C15 C 0.0493(5) 0.4751(4) 0.3877(8)
H13 H 0.0370 0.4642 0.4525
H14 H 0.0793 0.4481 0.3709
C24 C 0.0074(5) 0.4748(4) 0.1959(8)
H23 H 0.0321 0.4420 0.1869
H24_2 H 0.0325 0.5072 0.1871
N16_3 N 0.7885(4) 0.0954(3) 0.6168(6)
C25_3 C 0.8221(4) 0.0553(4) 0.6709(7)
H25_3 H 0.8646 0.0541 0.6691
C26_3 C 0.7970(4) 0.0158(3) 0.7291(6)
C27_3 C 0.7331(4) 0.0165(4) 0.7262(7)
C28_3 C 0.6978(4) 0.0567(4) 0.6682(8)
H27_3 H 0.6549 0.0575 0.6646
C29_3 C 0.7273(5) 0.0954(4) 0.6162(7)
H28_3 H 0.7036 0.1228 0.5788
Ag5_3 Ag 0.83585(4) 0.16488(3) 0.56178(7)
H12_3 H 0.9839 0.9891 0.0994
C16 C 0.9926(5) 0.4748(4) 0.3041(8)
H15 H 0.9679 0.4420 0.3131
H16_2 H 0.9675 0.5072 0.3129
N11_2 N 0.8611(3) 0.5966(3) 0.1168(6)
C17_2 C 0.8832(4) 0.7150(3) 0.0573(7)
H17_2 H 0.8549 0.7092 0.1024
C18_2 C 0.9171(4) 0.6702(3) 0.0292(6)
N12_2 N 0.8707(4) 0.5428(3) 0.1371(6)
N13_2 N 0.9213(3) 0.5303(3) 0.1009(6)
N14_2 N 0.9468(3) 0.5723(3) 0.0573(6)
N15_2 N 0.8900(4) 0.7666(3) 0.0214(6)
C22_2 C 0.9080(4) 0.6140(3) 0.0688(6)
C23 C 0.9507(5) 0.4751(4) 0.1123(8)
H21 H 0.9630 0.4642 0.0475
H22 H 0.9207 0.4481 0.1291
Ag3_2 Ag 0.83585(4) 0.83512(3) 0.06178(7)
N21_2 N 0.7885(4) 0.9046(3) 0.1168(6)
C19_2 C 0.9599(4) 0.6793(4) 0.9640(8)
H18_2 H 0.9834 0.6500 0.9444
C20_2 C 0.9674(4) 0.7325(4) 0.9284(8)
H19_2 H 0.9964 0.7399 0.8853
C21_2 C 0.9309(4) 0.7746(4) 0.9582(8)
H20_2 H 0.9353 0.8102 0.9326
N17_3 N 0.9001(3) 0.9838(3) 0.8119(6)
N18_3 N 0.9164(4) 0.9434(3) 0.8795(6)
H26_3 H 0.7140 0.9902 0.7628
N19_3 N 0.8707(4) 0.9136(3) 0.9019(6)
N20_3 N 0.8200(3) 0.9343(3) 0.8474(5)
C30_3 C 0.8382(4) 0.9778(3) 0.7932(7)
C31_3 C 0.9815(5) 0.9328(4) 0.9209(9)
H29_3 H 0.9837 0.9067 0.9777
Ag7_3 Ag 0.73400(4) 0.88457(3) 0.83340(8)
H10_3 H 0.0016 0.0843 0.3680
C14_3 C 0.0159(4) 0.0143(4) 0.4581(9)
H11_3 H 0.0586 0.0232 0.4861
N16_4 N 0.2115(4) 0.0954(3) 0.8832(6)
C25_4 C 0.1779(4) 0.0553(4) 0.8291(7)
H25_4 H 0.1354 0.0541 0.8309
C26_4 C 0.2030(4) 0.0158(3) 0.7709(6)
C27_4 C 0.2669(4) 0.0165(4) 0.7738(7)
C28_4 C 0.3022(4) 0.0567(4) 0.8318(8)
H27_4 H 0.3451 0.0575 0.8354
C29_4 C 0.2727(5) 0.0954(4) 0.8838(7)
H28_4 H 0.2964 0.1228 0.9212
Ag5_4 Ag 0.16415(4) 0.16488(3) 0.93822(7)
H12_4 H 0.0161 0.9891 0.4006
N17_4 N 0.0999(3) 0.9838(3) 0.6881(6)
N18_4 N 0.0836(4) 0.9434(3) 0.6205(6)
H26_4 H 0.2860 0.9902 0.7372
N19_4 N 0.1293(4) 0.9136(3) 0.5981(6)
N20_4 N 0.1800(3) 0.9343(3) 0.6526(5)
C30_4 C 0.1618(4) 0.9778(3) 0.7068(7)
C31_4 C 0.0185(5) 0.9328(4) 0.5791(9)
H29_4 H 0.0163 0.9067 0.5223
Ag7_4 Ag 0.26600(4) 0.88457(3) 0.66660(8)
N7_4 N 0.9001(3) 0.0162(3) 0.3119(6)
N8_4 N 0.9164(4) 0.0566(3) 0.3795(6)
H6_4 H 0.7140 0.0098 0.2628
N9_4 N 0.8707(4) 0.0864(3) 0.4019(6)
C12_4 C 0.8382(4) 0.0222(3) 0.2932(7)
C13_4 C 0.9815(5) 0.0672(4) 0.4209(9)
H9_4 H 0.9837 0.0933 0.4777
H32_4 H 0.9839 0.0109 0.5994
C7_4 C 0.8221(4) 0.9447(4) 0.1709(7)
H5_4 H 0.8646 0.9459 0.1691
C8_4 C 0.7970(4) 0.9842(3) 0.2291(6)
C9_4 C 0.7331(4) 0.9835(4) 0.2262(7)
C10_4 C 0.6978(4) 0.9433(4) 0.1682(8)
H7_4 H 0.6549 0.9425 0.1646
C11_4 C 0.7273(5) 0.9046(4) 0.1162(7)
H8_4 H 0.7036 0.8772 0.0788
H30_3 H 0.9984 0.9157 0.6320
C32_3 C 0.9841(4) 0.9857(4) 0.5419(9)
H31_3 H 0.9414 0.9768 0.5139
C19_3 C 0.5401(4) 0.8207(4) 0.0360(8)
H18_3 H 0.5166 0.8500 0.0556
C20_3 C 0.5326(4) 0.7675(4) 0.0716(8)
H19_3 H 0.5036 0.7601 0.1147
C21_3 C 0.5691(4) 0.7254(4) 0.0418(8)
H20_3 H 0.5647 0.6898 0.0674
N1_3 N 0.3611(3) 0.9034(3) 0.6168(6)
C1_3 C 0.3832(4) 0.7850(3) 0.5573(7)
H1_3 H 0.3549 0.7908 0.6024
C2_3 C 0.4171(4) 0.8298(3) 0.5292(6)
N2_3 N 0.3707(4) 0.9572(3) 0.6371(6)
C3_3 C 0.4599(4) 0.8207(4) 0.4640(8)
H2_3 H 0.4834 0.8500 0.4444
N3_3 N 0.4213(3) 0.9697(3) 0.6009(6)
C4_3 C 0.4674(4) 0.7675(4) 0.4284(8)
H3_3 H 0.4964 0.7601 0.3853
N4_3 N 0.4468(3) 0.9277(3) 0.5573(6)
C5_3 C 0.4309(4) 0.7254(4) 0.4582(8)
H4_3 H 0.4353 0.6898 0.4326
N5_3 N 0.3900(4) 0.7334(3) 0.5214(6)
C6_3 C 0.4080(4) 0.8860(3) 0.5688(6)
H16_3 H 0.5325 0.9928 0.6871
N11_3 N 0.6389(3) 0.9034(3) 0.8832(6)
C17_3 C 0.6168(4) 0.7850(3) 0.9427(7)
H17_3 H 0.6451 0.7908 0.8976
C18_3 C 0.5829(4) 0.8298(3) 0.9708(6)
N12_3 N 0.6293(4) 0.9572(3) 0.8629(6)
N13_3 N 0.5787(3) 0.9697(3) 0.8991(6)
N14_3 N 0.5532(3) 0.9277(3) 0.9427(6)
N15_3 N 0.6100(4) 0.7334(3) 0.9786(6)
C22_3 C 0.5920(4) 0.8860(3) 0.9312(6)
H24_3 H 0.4675 0.9928 0.8129
C19_4 C 0.0401(4) 0.3207(4) 0.0360(8)
H18_4 H 0.0166 0.3500 0.0556
C20_4 C 0.0326(4) 0.2675(4) 0.0716(8)
H19_4 H 0.0036 0.2601 0.1147
C21_4 C 0.0691(4) 0.2254(4) 0.0418(8)
H20_4 H 0.0647 0.1898 0.0674
C16_2 C 0.0074(5) 0.5252(4) 0.6959(8)
H15_2 H 0.0321 0.5580 0.6869
H16_4 H 0.0325 0.4928 0.6871
N11_4 N 0.1389(3) 0.4034(3) 0.8832(6)
C17_4 C 0.1168(4) 0.2850(3) 0.9427(7)
H17_4 H 0.1451 0.2908 0.8976
C18_4 C 0.0829(4) 0.3298(3) 0.9708(6)
N12_4 N 0.1293(4) 0.4572(3) 0.8629(6)
N13_4 N 0.0787(3) 0.4697(3) 0.8991(6)
N14_4 N 0.0532(3) 0.4277(3) 0.9427(6)
N15_4 N 0.1100(4) 0.2334(3) 0.9786(6)
C22_4 C 0.0920(4) 0.3860(3) 0.9312(6)
C23_2 C 0.0493(5) 0.5249(4) 0.8877(8)
H21_2 H 0.0370 0.5358 0.9525
H22_2 H 0.0793 0.5519 0.8709
N1_4 N 0.8611(3) 0.4034(3) 0.6168(6)
C1_4 C 0.8832(4) 0.2850(3) 0.5573(7)
H1_4 H 0.8549 0.2908 0.6024
C2_4 C 0.9171(4) 0.3298(3) 0.5292(6)
N2_4 N 0.8707(4) 0.4572(3) 0.6371(6)
C3_4 C 0.9599(4) 0.3207(4) 0.4640(8)
H2_4 H 0.9834 0.3500 0.4444
N3_4 N 0.9213(3) 0.4697(3) 0.6009(6)
C4_4 C 0.9674(4) 0.2675(4) 0.4284(8)
H3_4 H 0.9964 0.2601 0.3853
N4_4 N 0.9468(3) 0.4277(3) 0.5573(6)
C5_4 C 0.9309(4) 0.2254(4) 0.4582(8)
H4_4 H 0.9353 0.1898 0.4326
N5_4 N 0.8900(4) 0.2334(3) 0.5214(6)
C6_4 C 0.9080(4) 0.3860(3) 0.5688(6)
C15_2 C 0.9507(5) 0.5249(4) 0.6123(8)
H13_2 H 0.9630 0.5358 0.5475
H14_2 H 0.9207 0.5519 0.6291
C24_2 C 0.9926(5) 0.5252(4) 0.8041(8)
H23_2 H 0.9679 0.5580 0.8131
H24_4 H 0.9675 0.4928 0.8129
C15_3 C 0.5493(5) 0.9751(4) 0.3877(8)
H13_3 H 0.5370 0.9642 0.4525
H14_3 H 0.5793 0.9481 0.3709
C16_3 C 0.4926(5) 0.9748(4) 0.3041(8)
H15_3 H 0.4679 0.9420 0.3131
C23_3 C 0.4507(5) 0.9751(4) 0.1123(8)
H21_3 H 0.4630 0.9642 0.0475
H22_3 H 0.4207 0.9481 0.1291
C24_3 C 0.5074(5) 0.9748(4) 0.1959(8)
H23_3 H 0.5321 0.9420 0.1869
H30_4 H 0.0016 0.9157 0.8680
C32_4 C 0.0159(4) 0.9857(4) 0.9581(9)
H31_4 H 0.0586 0.9768 0.9861
H10_4 H 0.9984 0.0843 0.1320
C14_4 C 0.9841(4) 0.0143(4) 0.0419(9)
H11_4 H 0.9414 0.0232 0.0139
C15_4 C 0.4507(5) 0.0249(4) 0.6123(8)
H13_4 H 0.4630 0.0358 0.5475
H14_4 H 0.4207 0.0519 0.6291
C16_4 C 0.5074(5) 0.0252(4) 0.6959(8)
H15_4 H 0.5321 0.0580 0.6869
C23_4 C 0.5493(5) 0.0249(4) 0.8877(8)
H21_4 H 0.5370 0.0358 0.9525
H22_4 H 0.5793 0.0519 0.8709
C24_4 C 0.4926(5) 0.0252(4) 0.8041(8)
H23_4 H 0.4679 0.0580 0.8131
loop_
_geom_bond_atom_site_label_1
_geom_bond_atom_site_label_2
_geom_bond_site_symmetry_1
_geom_bond_site_symmetry_2
Ag1 N5 1_555 1_555
N1 Ag2 1_555 1_555
C1 H1 1_555 1_555
C2 C1 1_555 1_555
Ag2 N23 1_555 1_555
N2 N1 1_555 1_555
C3 C2 1_555 1_555
H2 C3 1_555 1_555
N3 N2 1_555 1_555
C4 C3 1_555 1_555
H3 C4 1_555 1_555
N4 N3 1_555 1_555
C5 C4 1_555 1_555
H4 C5 1_555 1_555
N5 C1 1_555 1_555
C6 N1 1_555 1_555
N6 Ag1 1_555 1_555
C7 N6 1_555 1_555
H5 C7 1_555 1_555
N7 N8 1_555 1_555
C8 C7 1_555 1_555
N8 N9 1_555 1_555
C9 C8 1_555 1_555
H6 C9 1_555 1_555
N9 N10 1_555 1_555
C10 C9 1_555 1_555
H7 C10 1_555 1_555
N10 C12 1_555 1_555
C11 N6 1_555 1_555
H8 C11 1_555 1_555
C12 N7 1_555 1_555
C13 N8 1_555 1_555
H9 C13 1_555 1_555
H10 C13 1_555 1_555
C14 C13 1_555 1_555
H11 C14 1_555 1_555
H12 C14 1_555 1_555
N11 N12 1_555 1_555
C17 H17 1_555 1_555
C18 C17 1_555 1_555
N12 N13 1_555 1_555
N13 N14 1_555 1_555
N14 C22 1_555 1_555
N15 C17 1_555 1_555
C22 N11 1_555 1_555
Ag3 N15 1_555 1_555
Ag4 N11 1_555 1_555
Ag6 N10 1_555 1_555
N21 Ag3 1_555 1_555
N22 Ag4 1_555 1_555
C2 C6 1_555 1_555
N4 C6 1_555 1_555
C5 N5 1_555 1_555
C8 C12 1_555 1_555
C10 C11 1_555 1_555
C18 C22 1_555 1_555
H18 C19 1_555 1_555
C20 C19 1_555 1_555
H19 C20 1_555 1_555
C21 C20 1_555 1_555
H20 C21 1_555 1_555
N16 C25 1_555 1_555
C25 H25 1_555 1_555
N17 N18 1_555 1_555
C26 C25 1_555 1_555
N18 N19 1_555 1_555
C27 C26 1_555 1_555
H26 C27 1_555 1_555
N19 N20 1_555 1_555
C28 C27 1_555 1_555
H27 C28 1_555 1_555
N20 C30 1_555 1_555
C29 N16 1_555 1_555
H28 C29 1_555 1_555
C30 N17 1_555 1_555
C31 N18 1_555 1_555
H29 C31 1_555 1_555
H30 C31 1_555 1_555
H31 C32 1_555 1_555
H32 C32 1_555 1_555
Ag5 N16 1_555 1_555
Ag7 N20 1_555 1_555
C26 C30 1_555 1_555
C28 C29 1_555 1_555
C31 C32 1_555 1_555
C7_2 N21 1_555 1_555
H5_2 C7_2 1_555 1_555
N7_2 N8_2 1_555 1_555
C8_2 C7_2 1_555 1_555
N8_2 N9_2 1_555 1_555
C9_2 C8_2 1_555 1_555
H6_2 C9_2 1_555 1_555
N9_2 N10_2 1_555 1_555
C10_2 C9_2 1_555 1_555
H7_2 C10_2 1_555 1_555
N10_2 C12_2 1_555 1_555
C11_2 N21 1_555 1_555
H8_2 C11_2 1_555 1_555
C12_2 N7_2 1_555 1_555
C13_2 N8_2 1_555 1_555
H9_2 C13_2 1_555 1_555
H10_2 C13_2 1_555 1_555
C14_2 C13_2 1_555 1_555
H11_2 C14_2 1_555 1_555
H12_2 C14_2 1_555 1_555
N16_2 C25_2 1_555 1_555
C25_2 H25_2 1_555 1_555
N17_2 N18_2 1_555 1_555
C26_2 C25_2 1_555 1_555
N18_2 N19_2 1_555 1_555
C27_2 C26_2 1_555 1_555
H26_2 C27_2 1_555 1_555
N19_2 N20_2 1_555 1_555
C28_2 C27_2 1_555 1_555
H27_2 C28_2 1_555 1_555
N20_2 C30_2 1_555 1_555
C29_2 N16_2 1_555 1_555
H28_2 C29_2 1_555 1_555
C30_2 N17_2 1_555 1_555
C31_2 N18_2 1_555 1_555
H29_2 C31_2 1_555 1_555
H30_2 C31_2 1_555 1_555
C32_2 C14_2 1_555 1_555
H31_2 C32_2 1_555 1_555
H32_2 C32_2 1_555 1_555
Ag5_2 N16_2 1_555 1_555
Ag6_2 N10_2 1_555 1_555
Ag7_2 N20_2 1_555 1_555
C8_2 C12_2 1_555 1_555
C10_2 C11_2 1_555 1_555
C26_2 C30_2 1_555 1_555
C28_2 C29_2 1_555 1_555
C31_2 C32_2 1_555 1_555
N7_3 N8_3 1_555 1_555
N8_3 N9_3 1_555 1_555
N9_3 N22 1_555 1_555
N22 C12_3 1_555 1_555
C12_3 N7_3 1_555 1_555
C13_3 N8_3 1_555 1_555
H9_3 C13_3 1_555 1_555
Ag1_2 N5_2 1_555 1_555
N1_2 Ag6_2 1_555 1_555
C1_2 H1_2 1_555 1_555
C2_2 C1_2 1_555 1_555
N2_2 N1_2 1_555 1_555
C3_2 C2_2 1_555 1_555
H2_2 C3_2 1_555 1_555
N3_2 N2_2 1_555 1_555
C4_2 C3_2 1_555 1_555
H3_2 C4_2 1_555 1_555
N4_2 N3_2 1_555 1_555
C5_2 C4_2 1_555 1_555
H4_2 C5_2 1_555 1_555
N5_2 C1_2 1_555 1_555
C6_2 N1_2 1_555 1_555
N6_2 Ag1_2 1_555 1_555
C7_3 N6_2 1_555 1_555
H5_3 C7_3 1_555 1_555
C8_3 C7_3 1_555 1_555
C9_3 C8_3 1_555 1_555
C10_3 C9_3 1_555 1_555
H7_3 C10_3 1_555 1_555
C11_3 N6_2 1_555 1_555
H8_3 C11_3 1_555 1_555
C15 N3_2 1_555 1_555
H13 C15 1_555 1_555
H14 C15 1_555 1_555
H23 C24 1_555 1_555
H24_2 C24 1_555 1_555
C2_2 C6_2 1_555 1_555
N4_2 C6_2 1_555 1_555
C5_2 N5_2 1_555 1_555
C10_3 C11_3 1_555 1_555
N16_3 C25_3 1_555 1_555
C25_3 H25_3 1_555 1_555
C26_3 C25_3 1_555 1_555
C27_3 C26_3 1_555 1_555
C28_3 C27_3 1_555 1_555
H27_3 C28_3 1_555 1_555
C29_3 N16_3 1_555 1_555
H28_3 C29_3 1_555 1_555
Ag5_3 N16_3 1_555 1_555
C28_3 C29_3 1_555 1_555
H15 C16 1_555 1_555
H16_2 C16 1_555 1_555
N11_2 N12_2 1_555 1_555
C17_2 H17_2 1_555 1_555
C18_2 C17_2 1_555 1_555
N12_2 N13_2 1_555 1_555
N13_2 N14_2 1_555 1_555
N14_2 C22_2 1_555 1_555
N15_2 C17_2 1_555 1_555
C22_2 N11_2 1_555 1_555
C23 N13_2 1_555 1_555
H21 C23 1_555 1_555
H22 C23 1_555 1_555
Ag3_2 N15_2 1_555 1_555
Ag6 N11_2 1_555 1_555
N21_2 Ag3_2 1_555 1_555
C18_2 C22_2 1_555 1_555
H18_2 C19_2 1_555 1_555
C20_2 C19_2 1_555 1_555
H19_2 C20_2 1_555 1_555
C21_2 C20_2 1_555 1_555
H20_2 C21_2 1_555 1_555
N17_3 N18_3 1_555 1_555
N18_3 N19_3 1_555 1_555
N19_3 N20_3 1_555 1_555
N20_3 C30_3 1_555 1_555
C30_3 N17_3 1_555 1_555
C31_3 N18_3 1_555 1_555
H29_3 C31_3 1_555 1_555
Ag7_3 N20_3 1_555 1_555
H11_3 C14_3 1_555 1_555
N16_4 C25_4 1_555 1_555
C25_4 H25_4 1_555 1_555
C26_4 C25_4 1_555 1_555
C27_4 C26_4 1_555 1_555
C28_4 C27_4 1_555 1_555
H27_4 C28_4 1_555 1_555
C29_4 N16_4 1_555 1_555
H28_4 C29_4 1_555 1_555
Ag5_4 N16_4 1_555 1_555
C28_4 C29_4 1_555 1_555
N17_4 N18_4 1_555 1_555
N18_4 N19_4 1_555 1_555
N19_4 N20_4 1_555 1_555
N20_4 C30_4 1_555 1_555
C30_4 N17_4 1_555 1_555
C31_4 N18_4 1_555 1_555
H29_4 C31_4 1_555 1_555
Ag7_4 N20_4 1_555 1_555
N7_4 N8_4 1_555 1_555
N8_4 N9_4 1_555 1_555
N9_4 N23 1_555 1_555
N23 C12_4 1_555 1_555
C12_4 N7_4 1_555 1_555
C13_4 N8_4 1_555 1_555
H9_4 C13_4 1_555 1_555
C7_4 N21_2 1_555 1_555
H5_4 C7_4 1_555 1_555
C8_4 C7_4 1_555 1_555
C9_4 C8_4 1_555 1_555
C10_4 C9_4 1_555 1_555
H7_4 C10_4 1_555 1_555
C11_4 N21_2 1_555 1_555
H8_4 C11_4 1_555 1_555
H31_3 C32_3 1_555 1_555
C10_4 C11_4 1_555 1_555
H18_3 C19_3 1_555 1_555
C20_3 C19_3 1_555 1_555
H19_3 C20_3 1_555 1_555
C21_3 C20_3 1_555 1_555
H20_3 C21_3 1_555 1_555
Ag5 N5_3 1_555 1_555
N1_3 Ag7_4 1_555 1_555
C1_3 H1_3 1_555 1_555
C2_3 C1_3 1_555 1_555
N2_3 N1_3 1_555 1_555
C3_3 C2_3 1_555 1_555
H2_3 C3_3 1_555 1_555
N3_3 N2_3 1_555 1_555
C4_3 C3_3 1_555 1_555
H3_3 C4_3 1_555 1_555
N4_3 N3_3 1_555 1_555
C5_3 C4_3 1_555 1_555
H4_3 C5_3 1_555 1_555
N5_3 C1_3 1_555 1_555
C6_3 N1_3 1_555 1_555
N11_3 N12_3 1_555 1_555
C17_3 H17_3 1_555 1_555
C18_3 C17_3 1_555 1_555
N12_3 N13_3 1_555 1_555
N13_3 N14_3 1_555 1_555
N14_3 C22_3 1_555 1_555
N15_3 C17_3 1_555 1_555
C22_3 N11_3 1_555 1_555
Ag5_2 N15_3 1_555 1_555
Ag7_3 N11_3 1_555 1_555
C2_3 C6_3 1_555 1_555
N4_3 C6_3 1_555 1_555
C5_3 N5_3 1_555 1_555
C18_3 C22_3 1_555 1_555
H18_4 C19_4 1_555 1_555
C20_4 C19_4 1_555 1_555
H19_4 C20_4 1_555 1_555
C21_4 C20_4 1_555 1_555
H20_4 C21_4 1_555 1_555
H15_2 C16_2 1_555 1_555
H16_4 C16_2 1_555 1_555
N11_4 N12_4 1_555 1_555
C17_4 H17_4 1_555 1_555
C18_4 C17_4 1_555 1_555
N12_4 N13_4 1_555 1_555
N13_4 N14_4 1_555 1_555
N14_4 C22_4 1_555 1_555
N15_4 C17_4 1_555 1_555
C22_4 N11_4 1_555 1_555
C23_2 N13_4 1_555 1_555
H21_2 C23_2 1_555 1_555
H22_2 C23_2 1_555 1_555
Ag5_4 N15_4 1_555 1_555
Ag7 N11_4 1_555 1_555
C18_4 C22_4 1_555 1_555
Ag5_3 N5_4 1_555 1_555
N1_4 Ag7_2 1_555 1_555
C1_4 H1_4 1_555 1_555
C2_4 C1_4 1_555 1_555
N2_4 N1_4 1_555 1_555
C3_4 C2_4 1_555 1_555
H2_4 C3_4 1_555 1_555
N3_4 N2_4 1_555 1_555
C4_4 C3_4 1_555 1_555
H3_4 C4_4 1_555 1_555
N4_4 N3_4 1_555 1_555
C5_4 C4_4 1_555 1_555
H4_4 C5_4 1_555 1_555
N5_4 C1_4 1_555 1_555
C6_4 N1_4 1_555 1_555
C15_2 N3_4 1_555 1_555
H13_2 C15_2 1_555 1_555
H14_2 C15_2 1_555 1_555
H23_2 C24_2 1_555 1_555
H24_4 C24_2 1_555 1_555
C2_4 C6_4 1_555 1_555
N4_4 C6_4 1_555 1_555
C5_4 N5_4 1_555 1_555
H13_3 C15_3 1_555 1_555
H14_3 C15_3 1_555 1_555
C16_3 C15_3 1_555 1_555
H15_3 C16_3 1_555 1_555
H21_3 C23_3 1_555 1_555
H22_3 C23_3 1_555 1_555
C24_3 C16_3 1_555 1_555
H23_3 C24_3 1_555 1_555
C23_3 C24_3 1_555 1_555
H31_4 C32_4 1_555 1_555
H11_4 C14_4 1_555 1_555
H13_4 C15_4 1_555 1_555
H14_4 C15_4 1_555 1_555
C16_4 C15_4 1_555 1_555
H15_4 C16_4 1_555 1_555
H21_4 C23_4 1_555 1_555
H22_4 C23_4 1_555 1_555
C24_4 C16_4 1_555 1_555
H23_4 C24_4 1_555 1_555
C23_4 C24_4 1_555 1_555

#END
