
###############################################################################
#
# This file contains modified crystal structure data generated from the
# MOF subset of the Cambridge Structural Database (CSD) v543 
# hosted by the Cambridge Crystallographic Data Centre (CCDC).
#
# This work is licensed under the Creative Commons
# Attribution-NonCommercial-ShareAlike 4.0 International License.
# To view a copy of this license, visit
# http://creativecommons.org/licenses/by-nc-sa/4.0/
# or send a letter to
# Creative Commons, PO Box 1866, Mountain View, CA 94042, USA.
#
# CIF created using the CSD Python API on 29 September 2022
# The structure has been converted into the P1 space group
# The structure has a 3D framework
# The original CSD entry QOKCID is in the monoclinic crystal system
# The framework has been calculated to contain at least 10.0% void space
# The void calculation uses a probe of radius 1.32A, grid spacing 0.4
#
###############################################################################

data_QOKCID
_chemical_formula_moiety         '(C100 H60 O38 Zn4)n'
_symmetry_cell_setting           triclinic
_symmetry_space_group_name_H-M   'P 1'
_symmetry_Int_Tables_number      1
_space_group_name_Hall           'P 1'
loop_
_symmetry_equiv_pos_site_id
_symmetry_equiv_pos_as_xyz
1 x,y,z
_cell_length_a                   18.392(4)
_cell_length_b                   16.462(4)
_cell_length_c                   7.6238(17)
_cell_angle_alpha                90
_cell_angle_beta                 95.587(5)
_cell_angle_gamma                90
_cell_volume                     2297.29
loop_
_atom_site_label
_atom_site_type_symbol
_atom_site_fract_x
_atom_site_fract_y
_atom_site_fract_z
C1 C 0.1740(2) 0.1583(3) 0.1292(6)
C2 C 0.1823(2) 0.2404(3) 0.1768(6)
H1 H 0.2021 0.2550 0.2892
C3 C 0.1605(2) 0.2985(3) 0.0539(6)
C7 C 0.2003(3) 0.0934(3) 0.2565(7)
C13 C 0.1719(2) 0.3869(3) 0.1037(7)
O1 O 0.22514(17) 0.1162(2) 0.4097(4)
O2 O 0.19818(16) 0.01994(19) 0.2128(4)
O3 O 0.17640(17) 0.4026(2) 0.2637(5)
Zn1 Zn 0.26600(3) 0.03122(3) 0.56318(7)
O11 O 0.32360(17) 0.0974(2) 0.7363(5)
Zn4 Zn 0.23400(3) 0.46878(3) 0.43682(7)
C4 C 0.1296(2) 0.2787(3) 0.8855(6)
H2 H 0.1157 0.3192 0.8039
C5 C 0.1201(2) 0.1974(3) 0.8419(6)
C6 C 0.1420(2) 0.1360(3) 0.9632(6)
H3 H 0.1353 0.0815 0.9335
C8 C 0.0689(2) 0.2242(2) 0.5490(6)
H4 H 0.1119 0.2523 0.5160
H5 H 0.0348 0.2642 0.5862
C9 C 0.0337(2) 0.1751(3) 0.3945(6)
C10 C 0.0345(2) 0.0908(3) 0.3926(6)
H6 H 0.0582 0.0627 0.4873
C11 C 0.0000 0.0477(4) 0.2500
C12 C 0.0000 0.2168(4) 0.2500
H8 H 0.0000 0.2733 0.2500
O4 O 0.17551(16) 0.43679(18) 0.9802(4)
O5 O 0.08836(16) 0.16808(17) 0.6868(4)
Zn5 Zn 0.23400(3) 0.53122(3) 0.93682(7)
O8 O 0.19818(16) 0.98006(19) 0.7128(4)
O14 O 0.32449(16) 0.93679(18) 0.5198(4)
Zn3 Zn 0.26600(3) 0.96878(3) 0.06318(7)
C14 C 0.3260(2) 0.6583(3) 0.3708(6)
C15 C 0.3177(2) 0.7404(3) 0.3232(6)
H9 H 0.2979 0.7550 0.2108
C16 C 0.3395(2) 0.7985(3) 0.4461(6)
C17 C 0.3704(2) 0.7787(3) 0.6145(6)
H10 H 0.3843 0.8192 0.6961
C18 C 0.3799(2) 0.6974(3) 0.6581(6)
C19 C 0.3580(2) 0.6360(3) 0.5368(6)
H11 H 0.3647 0.5815 0.5665
C20 C 0.2997(3) 0.5934(3) 0.2435(7)
C21 C 0.4311(2) 0.7242(2) 0.9510(6)
H12 H 0.3881 0.7523 0.9840
H13 H 0.4652 0.7642 0.9138
C24 C 0.3281(2) 0.8869(3) 0.3963(7)
O6 O 0.27486(17) 0.6162(2) 0.0903(4)
O7 O 0.30182(16) 0.51994(19) 0.2872(4)
O10 O 0.32360(17) 0.9026(2) 0.2363(5)
O16 O 0.41164(16) 0.66808(17) 0.8132(4)
O9 O 0.30182(16) 0.48006(19) 0.7872(4)
O12 O 0.17640(17) 0.5974(2) 0.7637(5)
O15 O 0.32449(16) 0.06321(18) 0.0198(4)
C14_2 C 0.1740(2) 0.8417(3) 0.6292(6)
C15_2 C 0.1823(2) 0.7596(3) 0.6768(6)
H9_2 H 0.2021 0.7450 0.7892
C16_2 C 0.1605(2) 0.7015(3) 0.5539(6)
C17_2 C 0.1296(2) 0.7213(3) 0.3855(6)
H10_2 H 0.1157 0.6808 0.3039
C18_2 C 0.1201(2) 0.8026(3) 0.3419(6)
C19_2 C 0.1420(2) 0.8640(3) 0.4632(6)
H11_2 H 0.1353 0.9185 0.4335
C20_2 C 0.2003(3) 0.9066(3) 0.7565(7)
C21_2 C 0.0689(2) 0.7758(2) 0.0490(6)
H12_2 H 0.1119 0.7477 0.0160
H13_2 H 0.0348 0.7358 0.0862
C24_2 C 0.1719(2) 0.6131(3) 0.6037(7)
O6_2 O 0.22514(17) 0.8838(2) 0.9097(4)
O13 O 0.17551(16) 0.56321(18) 0.4802(4)
O16_2 O 0.08836(16) 0.83192(17) 0.1868(4)
C4_2 C 0.3704(2) 0.2213(3) 0.1145(6)
H2_2 H 0.3843 0.1808 0.1961
C5_2 C 0.3799(2) 0.3026(3) 0.1581(6)
C6_2 C 0.3580(2) 0.3640(3) 0.0368(6)
H3_2 H 0.3647 0.4185 0.0665
C8_2 C 0.4311(2) 0.2758(2) 0.4510(6)
H4_2 H 0.3881 0.2477 0.4840
H5_2 H 0.4652 0.2358 0.4138
C9_2 C 0.4663(2) 0.3249(3) 0.6055(6)
C10_2 C 0.4655(2) 0.4092(3) 0.6074(6)
H6_2 H 0.4418 0.4373 0.5127
C11_2 C 0.5000 0.4523(4) 0.7500
H7 H 0.5000 0.5088 0.7500
C12_2 C 0.5000 0.2832(4) 0.7500
H8_2 H 0.5000 0.2267 0.7500
O5_2 O 0.41164(16) 0.33192(17) 0.3132(4)
C22 C 0.5337(2) 0.3249(3) 0.8945(6)
C23 C 0.5345(2) 0.4092(3) 0.8926(6)
H14 H 0.5582 0.4373 0.9873
C1_2 C 0.3260(2) 0.3417(3) 0.8708(6)
C2_2 C 0.3177(2) 0.2596(3) 0.8232(6)
H1_2 H 0.2979 0.2450 0.7108
C3_2 C 0.3395(2) 0.2015(3) 0.9461(6)
C7_2 C 0.2997(3) 0.4066(3) 0.7435(7)
C13_2 C 0.3281(2) 0.1131(3) 0.8963(7)
O1_2 O 0.27486(17) 0.3838(2) 0.5903(4)
H7_2 H 0.0000 0.9912 0.2500
C11_3 C 1.0000 0.0477(4) 0.2500
C12_3 C 1.0000 0.2168(4) 0.2500
H8_3 H 1.0000 0.2733 0.2500
C22_2 C 0.9663(2) 0.1751(3) 0.1055(6)
C23_2 C 0.9655(2) 0.0908(3) 0.1074(6)
H14_2 H 0.9418 0.0627 0.0127
C14_3 C 0.8260(2) 0.1583(3) 0.3708(6)
C15_3 C 0.8177(2) 0.2404(3) 0.3232(6)
H9_3 H 0.7979 0.2550 0.2108
C16_3 C 0.8395(2) 0.2985(3) 0.4461(6)
C17_3 C 0.8704(2) 0.2787(3) 0.6145(6)
H10_3 H 0.8843 0.3192 0.6961
C18_3 C 0.8799(2) 0.1974(3) 0.6581(6)
C19_3 C 0.8580(2) 0.1360(3) 0.5368(6)
H11_3 H 0.8647 0.0815 0.5665
C20_3 C 0.7997(3) 0.0934(3) 0.2435(7)
C21_3 C 0.9311(2) 0.2242(2) 0.9510(6)
H12_3 H 0.8881 0.2523 0.9840
H13_3 H 0.9652 0.2642 0.9138
C24_3 C 0.8281(2) 0.3869(3) 0.3963(7)
O6_3 O 0.77486(17) 0.1162(2) 0.0903(4)
O7_2 O 0.80182(16) 0.01994(19) 0.2872(4)
O10_2 O 0.82360(17) 0.4026(2) 0.2363(5)
O13_2 O 0.82449(16) 0.43679(18) 0.5198(4)
O16_3 O 0.91164(16) 0.16808(17) 0.8132(4)
Zn7 Zn 0.76600(3) 0.46878(3) 0.06318(7)
Zn8 Zn 0.76600(3) 0.53122(3) 0.56318(7)
O12_2 O 0.67640(17) 0.0974(2) 0.7637(5)
Zn2 Zn 0.73400(3) 0.03122(3) 0.93682(7)
Zn6 Zn 0.73400(3) 0.96878(3) 0.43682(7)
O9_2 O 0.80182(16) 0.98006(19) 0.7872(4)
O15_2 O 0.67551(16) 0.93679(18) 0.9802(4)
C1_3 C 0.6740(2) 0.6583(3) 0.1292(6)
C2_3 C 0.6823(2) 0.7404(3) 0.1768(6)
H1_3 H 0.7021 0.7550 0.2892
C3_3 C 0.6605(2) 0.7985(3) 0.0539(6)
C7_3 C 0.7003(3) 0.5934(3) 0.2565(7)
C13_3 C 0.6719(2) 0.8869(3) 0.1037(7)
O1_3 O 0.72514(17) 0.6162(2) 0.4097(4)
O2_2 O 0.69818(16) 0.51994(19) 0.2128(4)
O3_2 O 0.67640(17) 0.9026(2) 0.2637(5)
O8_2 O 0.69818(16) 0.48006(19) 0.7128(4)
O11_2 O 0.82360(17) 0.5974(2) 0.7363(5)
C4_3 C 0.6296(2) 0.7787(3) 0.8855(6)
H2_3 H 0.6157 0.8192 0.8039
C5_3 C 0.6201(2) 0.6974(3) 0.8419(6)
C6_3 C 0.6420(2) 0.6360(3) 0.9632(6)
H3_3 H 0.6353 0.5815 0.9335
C8_3 C 0.5689(2) 0.7242(2) 0.5490(6)
H4_3 H 0.6119 0.7523 0.5160
H5_3 H 0.5348 0.7642 0.5862
C9_3 C 0.5337(2) 0.6751(3) 0.3945(6)
C10_3 C 0.5345(2) 0.5908(3) 0.3926(6)
H6_3 H 0.5582 0.5627 0.4873
C11_4 C 0.5000 0.5477(4) 0.2500
H7_3 H 0.5000 0.4912 0.2500
C12_4 C 0.5000 0.7168(4) 0.2500
H8_4 H 0.5000 0.7733 0.2500
O5_3 O 0.58836(16) 0.66808(17) 0.6868(4)
C22_3 C 0.4663(2) 0.6751(3) 0.1055(6)
C23_3 C 0.4655(2) 0.5908(3) 0.1074(6)
H14_3 H 0.4418 0.5627 0.0127
O14_2 O 0.67551(16) 0.06321(18) 0.4802(4)
C4_4 C 0.8704(2) 0.7213(3) 0.1145(6)
H2_4 H 0.8843 0.6808 0.1961
C5_4 C 0.8799(2) 0.8026(3) 0.1581(6)
C6_4 C 0.8580(2) 0.8640(3) 0.0368(6)
H3_4 H 0.8647 0.9185 0.0665
C8_4 C 0.9311(2) 0.7758(2) 0.4510(6)
H4_4 H 0.8881 0.7477 0.4840
H5_4 H 0.9652 0.7358 0.4138
C9_4 C 0.9663(2) 0.8249(3) 0.6055(6)
C10_4 C 0.9655(2) 0.9092(3) 0.6074(6)
H6_4 H 0.9418 0.9373 0.5127
C11_5 C 1.0000 0.9523(4) 0.7500
C12_5 C 1.0000 0.7832(4) 0.7500
H8_5 H 1.0000 0.7267 0.7500
O4_2 O 0.82449(16) 0.56321(18) 0.0198(4)
O5_4 O 0.91164(16) 0.83192(17) 0.3132(4)
C1_4 C 0.8260(2) 0.8417(3) 0.8708(6)
C2_4 C 0.8177(2) 0.7596(3) 0.8232(6)
H1_4 H 0.7979 0.7450 0.7108
C3_4 C 0.8395(2) 0.7015(3) 0.9461(6)
C7_4 C 0.7997(3) 0.9066(3) 0.7435(7)
C13_4 C 0.8281(2) 0.6131(3) 0.8963(7)
O1_4 O 0.77486(17) 0.8838(2) 0.5903(4)
C14_4 C 0.6740(2) 0.3417(3) 0.6292(6)
C15_4 C 0.6823(2) 0.2596(3) 0.6768(6)
H9_4 H 0.7021 0.2450 0.7892
C16_4 C 0.6605(2) 0.2015(3) 0.5539(6)
C17_4 C 0.6296(2) 0.2213(3) 0.3855(6)
H10_4 H 0.6157 0.1808 0.3039
C18_4 C 0.6201(2) 0.3026(3) 0.3419(6)
C19_4 C 0.6420(2) 0.3640(3) 0.4632(6)
H11_4 H 0.6353 0.4185 0.4335
C20_4 C 0.7003(3) 0.4066(3) 0.7565(7)
C21_4 C 0.5689(2) 0.2758(2) 0.0490(6)
H12_4 H 0.6119 0.2477 0.0160
H13_4 H 0.5348 0.2358 0.0862
C24_4 C 0.6719(2) 0.1131(3) 0.6037(7)
O6_4 O 0.72514(17) 0.3838(2) 0.9097(4)
O16_4 O 0.58836(16) 0.33192(17) 0.1868(4)
H7_4 H 1.0000 0.9912 0.2500
H7_5 H 0.0000 0.0088 0.7500
C11_6 C 0.0000 0.9523(4) 0.7500
C12_6 C 0.0000 0.7832(4) 0.7500
H8_6 H 0.0000 0.7267 0.7500
C22_4 C 0.0337(2) 0.8249(3) 0.8945(6)
C23_4 C 0.0345(2) 0.9092(3) 0.8926(6)
H14_4 H 0.0582 0.9373 0.9873
H7_6 H 1.0000 0.0088 0.7500
loop_
_geom_bond_atom_site_label_1
_geom_bond_atom_site_label_2
_geom_bond_site_symmetry_1
_geom_bond_site_symmetry_2
C1 C2 1_555 1_555
C2 H1 1_555 1_555
C3 C2 1_555 1_555
C7 C1 1_555 1_555
C13 C3 1_555 1_555
O1 C7 1_555 1_555
O2 C7 1_555 1_555
O3 C13 1_555 1_555
Zn1 O1 1_555 1_555
O11 Zn1 1_555 1_555
Zn4 O3 1_555 1_555
H2 C4 1_555 1_555
C5 C4 1_555 1_555
H3 C6 1_555 1_555
C8 H4 1_555 1_555
H5 C8 1_555 1_555
C9 C8 1_555 1_555
C10 C9 1_555 1_555
H6 C10 1_555 1_555
C11 C10 1_555 1_555
C12 C9 1_555 1_555
H8 C12 1_555 1_555
O5 C5 1_555 1_555
Zn5 O4 1_555 1_555
C5 C6 1_555 1_555
C8 O5 1_555 1_555
C14 C15 1_555 1_555
C15 H9 1_555 1_555
C16 C15 1_555 1_555
C17 C16 1_555 1_555
H10 C17 1_555 1_555
C18 C17 1_555 1_555
C19 C14 1_555 1_555
H11 C19 1_555 1_555
C20 C14 1_555 1_555
C21 H12 1_555 1_555
H13 C21 1_555 1_555
C24 C16 1_555 1_555
O6 C20 1_555 1_555
O7 C20 1_555 1_555
O10 C24 1_555 1_555
O14 C24 1_555 1_555
O16 C18 1_555 1_555
Zn4 O7 1_555 1_555
Zn3 O10 1_555 1_555
C18 C19 1_555 1_555
C21 O16 1_555 1_555
O9 Zn5 1_555 1_555
O12 Zn5 1_555 1_555
C14_2 C15_2 1_555 1_555
C15_2 H9_2 1_555 1_555
C16_2 C15_2 1_555 1_555
C17_2 C16_2 1_555 1_555
H10_2 C17_2 1_555 1_555
C18_2 C17_2 1_555 1_555
C19_2 C14_2 1_555 1_555
H11_2 C19_2 1_555 1_555
C20_2 C14_2 1_555 1_555
C21_2 H12_2 1_555 1_555
H13_2 C21_2 1_555 1_555
C24_2 C16_2 1_555 1_555
O6_2 C20_2 1_555 1_555
O8 C20_2 1_555 1_555
O12 C24_2 1_555 1_555
O13 C24_2 1_555 1_555
O16_2 C18_2 1_555 1_555
Zn4 O13 1_555 1_555
C18_2 C19_2 1_555 1_555
C21_2 O16_2 1_555 1_555
H2_2 C4_2 1_555 1_555
C5_2 C4_2 1_555 1_555
H3_2 C6_2 1_555 1_555
C8_2 H4_2 1_555 1_555
H5_2 C8_2 1_555 1_555
C9_2 C8_2 1_555 1_555
C10_2 C9_2 1_555 1_555
H6_2 C10_2 1_555 1_555
C11_2 C10_2 1_555 1_555
H7 C11_2 1_555 1_555
C12_2 C9_2 1_555 1_555
H8_2 C12_2 1_555 1_555
O5_2 C5_2 1_555 1_555
C22 C12_2 1_555 1_555
C23 C11_2 1_555 1_555
H14 C23 1_555 1_555
C5_2 C6_2 1_555 1_555
C8_2 O5_2 1_555 1_555
C22 C23 1_555 1_555
C1_2 C2_2 1_555 1_555
C2_2 H1_2 1_555 1_555
C3_2 C2_2 1_555 1_555
C7_2 C1_2 1_555 1_555
C13_2 C3_2 1_555 1_555
O1_2 C7_2 1_555 1_555
O9 C7_2 1_555 1_555
O11 C13_2 1_555 1_555
Zn4 O1_2 1_555 1_555
H8_3 C12_3 1_555 1_555
C22_2 C12_3 1_555 1_555
C23_2 C11_3 1_555 1_555
H14_2 C23_2 1_555 1_555
C22_2 C23_2 1_555 1_555
C14_3 C15_3 1_555 1_555
C15_3 H9_3 1_555 1_555
C16_3 C15_3 1_555 1_555
C17_3 C16_3 1_555 1_555
H10_3 C17_3 1_555 1_555
C18_3 C17_3 1_555 1_555
C19_3 C14_3 1_555 1_555
H11_3 C19_3 1_555 1_555
C20_3 C14_3 1_555 1_555
C21_3 H12_3 1_555 1_555
H13_3 C21_3 1_555 1_555
C24_3 C16_3 1_555 1_555
O6_3 C20_3 1_555 1_555
O7_2 C20_3 1_555 1_555
O10_2 C24_3 1_555 1_555
O13_2 C24_3 1_555 1_555
O16_3 C18_3 1_555 1_555
Zn7 O10_2 1_555 1_555
Zn8 O13_2 1_555 1_555
C18_3 C19_3 1_555 1_555
C21_3 O16_3 1_555 1_555
O12_2 Zn2 1_555 1_555
C1_3 C2_3 1_555 1_555
C2_3 H1_3 1_555 1_555
C3_3 C2_3 1_555 1_555
C7_3 C1_3 1_555 1_555
C13_3 C3_3 1_555 1_555
O1_3 C7_3 1_555 1_555
O2_2 C7_3 1_555 1_555
O3_2 C13_3 1_555 1_555
Zn8 O1_3 1_555 1_555
O8_2 Zn8 1_555 1_555
O11_2 Zn8 1_555 1_555
Zn7 O2_2 1_555 1_555
Zn6 O3_2 1_555 1_555
H2_3 C4_3 1_555 1_555
C5_3 C4_3 1_555 1_555
H3_3 C6_3 1_555 1_555
C8_3 H4_3 1_555 1_555
H5_3 C8_3 1_555 1_555
C9_3 C8_3 1_555 1_555
C10_3 C9_3 1_555 1_555
H6_3 C10_3 1_555 1_555
C11_4 C10_3 1_555 1_555
H7_3 C11_4 1_555 1_555
C12_4 C9_3 1_555 1_555
H8_4 C12_4 1_555 1_555
O5_3 C5_3 1_555 1_555
C22_3 C12_4 1_555 1_555
C23_3 C11_4 1_555 1_555
H14_3 C23_3 1_555 1_555
C5_3 C6_3 1_555 1_555
C8_3 O5_3 1_555 1_555
C22_3 C23_3 1_555 1_555
H2_4 C4_4 1_555 1_555
C5_4 C4_4 1_555 1_555
H3_4 C6_4 1_555 1_555
C8_4 H4_4 1_555 1_555
H5_4 C8_4 1_555 1_555
C9_4 C8_4 1_555 1_555
C10_4 C9_4 1_555 1_555
H6_4 C10_4 1_555 1_555
C11_5 C10_4 1_555 1_555
C12_5 C9_4 1_555 1_555
H8_5 C12_5 1_555 1_555
O5_4 C5_4 1_555 1_555
Zn7 O4_2 1_555 1_555
C5_4 C6_4 1_555 1_555
C8_4 O5_4 1_555 1_555
C1_4 C2_4 1_555 1_555
C2_4 H1_4 1_555 1_555
C3_4 C2_4 1_555 1_555
C7_4 C1_4 1_555 1_555
C13_4 C3_4 1_555 1_555
O1_4 C7_4 1_555 1_555
O9_2 C7_4 1_555 1_555
O11_2 C13_4 1_555 1_555
Zn6 O1_4 1_555 1_555
C14_4 C15_4 1_555 1_555
C15_4 H9_4 1_555 1_555
C16_4 C15_4 1_555 1_555
C17_4 C16_4 1_555 1_555
H10_4 C17_4 1_555 1_555
C18_4 C17_4 1_555 1_555
C19_4 C14_4 1_555 1_555
H11_4 C19_4 1_555 1_555
C20_4 C14_4 1_555 1_555
C21_4 H12_4 1_555 1_555
H13_4 C21_4 1_555 1_555
C24_4 C16_4 1_555 1_555
O6_4 C20_4 1_555 1_555
O8_2 C20_4 1_555 1_555
O12_2 C24_4 1_555 1_555
O14_2 C24_4 1_555 1_555
O16_4 C18_4 1_555 1_555
C18_4 C19_4 1_555 1_555
C21_4 O16_4 1_555 1_555
H8_6 C12_6 1_555 1_555
C22_4 C12_6 1_555 1_555
C23_4 C11_6 1_555 1_555
H14_4 C23_4 1_555 1_555
C22_4 C23_4 1_555 1_555

#END
