
###############################################################################
#
# This file contains modified crystal structure data generated from the
# MOF subset of the Cambridge Structural Database (CSD) v543 
# hosted by the Cambridge Crystallographic Data Centre (CCDC).
#
# This work is licensed under the Creative Commons
# Attribution-NonCommercial-ShareAlike 4.0 International License.
# To view a copy of this license, visit
# http://creativecommons.org/licenses/by-nc-sa/4.0/
# or send a letter to
# Creative Commons, PO Box 1866, Mountain View, CA 94042, USA.
#
# CIF created using the CSD Python API on 29 September 2022
# The structure has been converted into the P1 space group
# The structure has a 3D framework
# The original CSD entry QOMFAA is in the triclinic crystal system
# The original CSD entry QOMFAA is in a Sohncke space group
# The framework has been calculated to contain at least 10.0% void space
# The void calculation uses a probe of radius 1.32A, grid spacing 0.4
#
###############################################################################

data_QOMFAA
_chemical_formula_moiety         '(C24 H22 N2 O10 Zn2)n'
_symmetry_cell_setting           triclinic
_symmetry_space_group_name_H-M   'P 1'
_symmetry_Int_Tables_number      1
_space_group_name_Hall           'P 1'
loop_
_symmetry_equiv_pos_site_id
_symmetry_equiv_pos_as_xyz
1 x,y,z
_cell_length_a                   8.7651(3)
_cell_length_b                   8.7941(4)
_cell_length_c                   13.6911(6)
_cell_angle_alpha                73.567(2)
_cell_angle_beta                 73.048(2)
_cell_angle_gamma                81.472(2)
_cell_volume                     965.742
loop_
_atom_site_label
_atom_site_type_symbol
_atom_site_fract_x
_atom_site_fract_y
_atom_site_fract_z
_atom_site_U_iso_or_equiv
_atom_site_thermal_displace_type
H3 H 0.4319 0.0365 0.0175 0.0450 Uiso
H4 H 0.2349 0.0680 0.1681 0.0440 Uiso
O16 O 0.5292(7) 0.0837(6) 0.7997(4) 0.0413 Uani
Zn1 Zn 0.49606(4) 0.84875(4) 0.85522(3) 0.0166 Uani
C17 C 0.2853(9) 0.8857(13) 0.7067(7) 0.0470 Uani
C18 C 0.1155(8) 0.8819(11) 0.6987(6) 0.0462 Uani
H19 H 0.0973 0.9019 0.6309 0.0550 Uiso
H20 H 0.0140 0.8281 0.8502 0.0480 Uiso
O3 O 0.3958(6) 0.8945(8) 0.6214(4) 0.0516 Uani
O4 O 0.3039(6) 0.8863(8) 0.7928(4) 0.0467 Uani
C21 C 0.5638(11) 0.5699(10) 0.7664(6) 0.0425 Uani
C22 C 0.5506(11) 0.4048(10) 0.7753(7) 0.0493 Uani
H21 H 0.5239 0.3355 0.8441 0.0590 Uiso
C23 C 0.5728(11) 0.3444(10) 0.6952(6) 0.0457 Uani
H22 H 0.5973 0.4124 0.6259 0.0550 Uiso
C24 C 0.5607(10) 0.1675(9) 0.7093(6) 0.0380 Uani
O7 O 0.6283(7) 0.6590(6) 0.6749(5) 0.0499 Uani
O8 O 0.5063(7) 0.6190(6) 0.8492(5) 0.0490 Uani
O9 O 0.5842(7) 0.1255(6) 0.6255(4) 0.0439 Uani
Zn5 Zn 0.62406(4) 0.89932(4) 0.62001(3) 0.0159 Uani
O13 O 0.7261(6) 0.8196(7) 0.8609(4) 0.0419 Uani
C11 C 0.8048(7) 0.0705(8) 0.1801(4) 0.0444 Uani
H7 H 0.8998 0.1233 0.1279 0.0530 Uiso
C12 C 0.6648(8) 0.1923(9) 0.1940(4) 0.0546 Uani
H8 H 0.6997 0.2830 0.2108 0.0650 Uiso
C13 C 0.5266(8) 0.1253(9) 0.2827(5) 0.0581 Uani
H9 H 0.4954 0.0292 0.2713 0.0700 Uiso
H10 H 0.4335 0.2045 0.2864 0.0700 Uiso
C14 C 0.5791(7) 0.0820(8) 0.3875(4) 0.0469 Uani
H11 H 0.5891 0.1813 0.4050 0.0560 Uiso
H12 H 0.4951 0.0231 0.4454 0.0560 Uiso
C16 C 0.5190(13) 0.3924(13) 0.0924(7) 0.1144 Uani
H16 H 0.5382 0.4534 0.1370 0.1710 Uiso
H17 H 0.4074 0.3651 0.1170 0.1710 Uiso
H18 H 0.5405 0.4565 0.0191 0.1710 Uiso
O2 O 0.6228(7) 0.2495(7) 0.0983(3) 0.0830 Uani
C1 C 0.7386(5) 0.9809(6) 0.3807(3) 0.0220 Uani
C2 C 0.8482(6) 0.9838(6) 0.2818(4) 0.0263 Uani
C3 C 0.9916(8) 0.8882(9) 0.2832(5) 0.0288 Uani
C5 C 0.9066(7) 0.8149(7) 0.4702(4) 0.0418 Uani
H2 H 0.9277 0.7568 0.5354 0.0500 Uiso
C15 C 0.8078(10) 0.9812(12) 0.0287(5) 0.0788 Uani
H14 H 0.7838 0.8908 0.0084 0.1180 Uiso
H15 H 0.9223 0.9968 0.0009 0.1180 Uiso
N1 N 0.7692(6) 0.9035(7) 0.4715(4) 0.0198 Uani
O1 O 0.7646(5) 0.9498(6) 0.1421(3) 0.0544 Uani
O12 O 0.8090(6) 0.8900(8) 0.6849(4) 0.0416 Uani
C19 C 0.9949(8) 0.8520(11) 0.7824(6) 0.0402 Uani
C20 C 0.8315(8) 0.8541(10) 0.7752(6) 0.0306 Uani
C4 C 0.0187(7) 0.8046(8) 0.3779(4) 0.0472 Uani
H1 H 0.1150 0.7394 0.3798 0.0570 Uiso
C6 C 0.3508(6) 0.9635(7) 0.0480(4) 0.0376 Uani
C7 C 0.2345(6) 0.9828(7) 0.1383(4) 0.0372 Uani
C8 C 0.1175(8) 0.8742(9) 0.1839(5) 0.0302 Uani
C9 C 0.1192(6) 0.7559(7) 0.1366(4) 0.0369 Uani
H5 H 0.0382 0.6827 0.1648 0.0440 Uiso
C10 C 0.2391(6) 0.7442(6) 0.0480(4) 0.0311 Uani
H6 H 0.2416 0.6593 0.0172 0.0370 Uiso
N2 N 0.3544(6) 0.8490(7) 0.0025(4) 0.0214 Uani
H13 H 0.7465 0.0773 0.9996 0.1180 Uiso
loop_
_atom_site_aniso_label
_atom_site_aniso_U_11
_atom_site_aniso_U_22
_atom_site_aniso_U_33
_atom_site_aniso_U_23
_atom_site_aniso_U_13
_atom_site_aniso_U_12
O16 0.072 0.024 0.024 -0.0098 0.001 -0.012
Zn1 0.0162 0.0197 0.0132 -0.0057 0.0002 -0.0048
C17 0.019 0.092 0.029 -0.018 -0.001 -0.006
C18 0.021 0.099 0.024 -0.019 -0.009 -0.008
O3 0.016 0.113 0.031 -0.026 -0.0004 -0.017
O4 0.015 0.099 0.031 -0.021 -0.0086 -0.005
C21 0.074 0.025 0.023 -0.007 0 -0.011
C22 0.093 0.018 0.028 -0.007 0.004 -0.015
C23 0.089 0.019 0.019 -0.003 0.001 -0.007
C24 0.067 0.015 0.025 -0.006 -0.003 0.002
O7 0.078 0.019 0.034 -0.008 0.018 -0.01
O8 0.085 0.025 0.034 -0.015 0.004 -0.02
O9 0.083 0.023 0.022 -0.006 -0.01 0
Zn5 0.0146 0.0203 0.0125 -0.0065 0.0002 -0.0033
O13 0.019 0.08 0.023 -0.012 -0.0015 -0.002
C11 0.046 0.062 0.02 -0.01 -0.008 0.01
C12 0.062 0.07 0.019 -0.006 -0.01 0.023
C13 0.049 0.082 0.028 -0.005 -0.011 0.027
C14 0.042 0.07 0.018 -0.008 -0.003 0.013
C16 0.14 0.131 0.045 -0.016 -0.038 0.089
O2 0.097 0.109 0.023 -0.01 -0.016 0.041
C1 0.02 0.035 0.0114 -0.0076 -0.0016 -0.0047
C2 0.026 0.036 0.0164 -0.0084 -0.0027 -0.003
C3 0.028 0.045 0.014 -0.014 0.0019 -0.007
C5 0.04 0.059 0.017 -0.01 -0.0048 0.021
C15 0.078 0.129 0.042 -0.055 -0.021 0.03
N1 0.017 0.029 0.014 -0.007 -0.0037 -0.001
O1 0.049 0.09 0.033 -0.035 -0.0127 0.01
O12 0.02 0.087 0.021 -0.02 -0.0024 -0.007
C19 0.014 0.086 0.023 -0.021 0 -0.007
C20 0.013 0.061 0.021 -0.012 -0.007 -0.004
C4 0.035 0.071 0.024 -0.012 -0.002 0.02
C6 0.036 0.043 0.033 -0.022 0.014 -0.023
C7 0.041 0.043 0.03 -0.025 0.01 -0.019
C8 0.02 0.041 0.027 -0.014 0.005 -0.006
C9 0.04 0.037 0.029 -0.014 0.012 -0.02
C10 0.036 0.031 0.023 -0.0105 0.0056 -0.012
N2 0.022 0.028 0.013 -0.01 0.005 -0.008
loop_
_geom_bond_atom_site_label_1
_geom_bond_atom_site_label_2
_geom_bond_site_symmetry_1
_geom_bond_site_symmetry_2
C17 C18 1_555 1_555
C18 H19 1_555 1_555
O3 C17 1_555 1_555
O4 Zn1 1_555 1_555
C21 C22 1_555 1_555
C22 H21 1_555 1_555
C23 C22 1_555 1_555
H22 C23 1_555 1_555
C24 C23 1_555 1_555
O7 C21 1_555 1_555
O8 Zn1 1_555 1_555
O9 C24 1_555 1_555
O16 C24 1_555 1_555
Zn5 O3 1_555 1_555
O13 Zn1 1_555 1_555
C17 O4 1_555 1_555
C21 O8 1_555 1_555
O7 Zn5 1_555 1_555
H7 C11 1_555 1_555
C12 C11 1_555 1_555
H8 C12 1_555 1_555
C13 C12 1_555 1_555
H9 C13 1_555 1_555
H10 C13 1_555 1_555
H11 C14 1_555 1_555
H12 C14 1_555 1_555
C16 H16 1_555 1_555
H17 C16 1_555 1_555
H18 C16 1_555 1_555
O2 C12 1_555 1_555
C13 C14 1_555 1_555
C16 O2 1_555 1_555
Zn5 N1 1_555 1_555
C1 C2 1_555 1_555
C2 C3 1_555 1_555
H2 C5 1_555 1_555
H14 C15 1_555 1_555
H15 C15 1_555 1_555
N1 C1 1_555 1_555
O12 Zn5 1_555 1_555
C5 N1 1_555 1_555
C15 O1 1_555 1_555
C20 C19 1_555 1_555
O12 C20 1_555 1_555
O13 C20 1_555 1_555
C4 H1 1_555 1_555
C7 C6 1_555 1_555
C9 C8 1_555 1_555
H5 C9 1_555 1_555
C10 C9 1_555 1_555
H6 C10 1_555 1_555
N2 C6 1_555 1_555
C7 C8 1_555 1_555
C10 N2 1_555 1_555

#END
