
###############################################################################
#
# This file contains modified crystal structure data generated from the
# MOF subset of the Cambridge Structural Database (CSD) v543 
# hosted by the Cambridge Crystallographic Data Centre (CCDC).
#
# This work is licensed under the Creative Commons
# Attribution-NonCommercial-ShareAlike 4.0 International License.
# To view a copy of this license, visit
# http://creativecommons.org/licenses/by-nc-sa/4.0/
# or send a letter to
# Creative Commons, PO Box 1866, Mountain View, CA 94042, USA.
#
# CIF created using the CSD Python API on 29 September 2022
# The structure has been converted into the P1 space group
# The structure has a 3D framework
# The original CSD entry QOMGIK is in the monoclinic crystal system
# The framework has been calculated to contain at least 10.0% void space
# The void calculation uses a probe of radius 1.32A, grid spacing 0.4
# The framework is charged, counterions have been retained in the structure
#
###############################################################################

data_QOMGIK
_chemical_formula_moiety         '(C172 H116 N24 O32 Zn8 4+)n'
_symmetry_cell_setting           triclinic
_symmetry_space_group_name_H-M   'P 1'
_symmetry_Int_Tables_number      1
_space_group_name_Hall           'P 1'
loop_
_symmetry_equiv_pos_site_id
_symmetry_equiv_pos_as_xyz
1 x,y,z
_cell_length_a                   13.591(5)
_cell_length_b                   29.082(5)
_cell_length_c                   19.884(5)
_cell_angle_alpha                90
_cell_angle_beta                 96.667(5)
_cell_angle_gamma                90
_cell_volume                     7806.07
loop_
_atom_site_label
_atom_site_type_symbol
_atom_site_fract_x
_atom_site_fract_y
_atom_site_fract_z
N5 N 0.38870(15) 0.04239(6) 0.67576(9)
C14 C 0.18497(18) 0.04625(9) 0.68549(13)
C16 C 0.25127(19) 0.07977(9) 0.71401(14)
H6 H 0.2271 0.1052 0.7372
C17 C 0.22699(19) 0.01126(10) 0.65045(14)
C32 C 0.07933(19) 0.04914(10) 0.69221(13)
H18 H 0.0561 0.0766 0.7108
C37 C 0.34765(18) 0.07626(8) 0.70885(13)
H23 H 0.3902 0.0993 0.7300
C41 C 0.01326(18) 0.01671(10) 0.67461(14)
C42 C 0.32677(18) 0.01103(10) 0.64632(13)
H50 H 0.1724 0.0167 0.8854
H51 H 0.3382 0.0116 0.8773
Zn10 Zn 0.545006(18) 0.035097(8) 0.675391(11)
O23 O 0.50439(12) 0.01755(5) 0.83075(8)
H7 H 0.1863 0.9875 0.6294
H27 H 0.0368 0.9886 0.6581
H28 H 0.3532 0.9872 0.6211
Zn4 Zn 0.492792(18) 0.947925(8) 0.825650(11)
N11 N 0.33607(15) 0.95626(6) 0.81927(9)
C75 C 0.27324(17) 0.92550(9) 0.78748(12)
H49 H 0.2992 0.9019 0.7615
C76 C 0.1967(2) 0.99247(10) 0.85991(15)
C77 C 0.29550(19) 0.98926(9) 0.85465(14)
C80 C 0.13159(19) 0.96046(10) 0.82824(14)
C84 C 0.0260(2) 0.96322(11) 0.83642(15)
H56 H 0.0042 0.9893 0.8594
C85 C 0.17282(19) 0.92680(10) 0.79104(13)
H57 H 0.1312 0.9043 0.7677
O21 O 0.45436(16) 0.87516(6) 0.88990(8)
O22 O 0.47096(11) 0.90963(5) 0.73994(6)
N15 N 0.64970(13) 0.93967(7) 0.82951(9)
O26 O 0.50126(12) 0.94389(6) 0.92891(7)
O4 O 0.54564(16) 0.12484(6) 0.11010(8)
C12 C 0.52784(18) 0.09631(9) 0.06258(11)
O8 O 0.49874(12) 0.05611(6) 0.07109(7)
H8 H 0.5786 0.1774 0.0140
O14 O 0.54564(16) 0.37516(6) 0.11010(8)
C58 C 0.52784(18) 0.40369(9) 0.06258(11)
O16 O 0.49874(12) 0.44389(6) 0.07109(7)
H37 H 0.5786 0.3226 0.0140
Zn6 Zn 0.507208(18) 0.447925(8) 0.174350(11)
Zn7 Zn 0.507208(18) 0.052075(8) 0.174350(11)
O3 O 0.57034(11) 0.06827(5) 0.76438(7)
N1 N 0.61175(16) 0.21309(6) 0.89852(9)
C3 C 0.55412(16) 0.09007(7) 0.87590(10)
N3 N 0.70161(13) 0.02675(6) 0.67865(9)
C6 C 0.53563(15) 0.07748(7) 0.94072(10)
H1 H 0.5164 0.0469 0.9498
C8 C 0.58757(19) 0.16685(7) 0.91344(11)
C9 C 0.57889(17) 0.13435(7) 0.86128(10)
H3 H 0.5899 0.1428 0.8166
C15 C 0.54554(18) 0.11018(8) 0.99227(10)
C18 C 0.57167(19) 0.15504(8) 0.97889(11)
C20 C 0.86239(18) 0.05891(9) 0.70422(13)
H10 H 0.9020 0.0840 0.7221
C26 C 0.54272(15) 0.05539(7) 0.81960(10)
C27 C 0.90677(18) 0.02061(9) 0.67849(13)
C28 C 0.6769(2) 0.22707(8) 0.85392(12)
H15 H 0.7145 0.2077 0.8282
C39 C 0.76293(18) 0.06042(9) 0.70369(12)
H25 H 0.7347 0.0868 0.7221
C44 C 0.5735(3) 0.2500 0.92474(15)
H30 H 0.5268 0.2500 0.9568
O13 O 0.57034(11) 0.43173(5) 0.76438(7)
N8 N 0.61175(16) 0.28691(6) 0.89852(9)
C54 C 0.55412(16) 0.40993(7) 0.87590(10)
O15 O 0.50439(12) 0.48245(5) 0.83075(8)
C55 C 0.53563(15) 0.42252(7) 0.94072(10)
H35 H 0.5164 0.4531 0.9498
C56 C 0.58757(19) 0.33315(7) 0.91344(11)
C57 C 0.57889(17) 0.36565(7) 0.86128(10)
H36 H 0.5899 0.3572 0.8166
C59 C 0.54554(18) 0.38982(8) 0.99227(10)
C60 C 0.57167(19) 0.34496(8) 0.97889(11)
C61 C 0.54272(15) 0.44461(7) 0.81960(10)
C62 C 0.6769(2) 0.27293(8) 0.85392(12)
H38 H 0.7145 0.2923 0.8282
C68 C 0.25652(19) 0.01016(9) 0.34516(14)
H42 H 0.2981 0.0346 0.3627
C69 C 0.15603(19) 0.01471(10) 0.34564(15)
H43 H 0.1296 0.0421 0.3625
Zn9 Zn 0.492792(18) 0.552075(8) 0.825650(11)
Zn14 Zn 0.545006(18) 0.464903(8) 0.675391(11)
O17 O 0.55947(12) 0.10392(5) 0.62073(7)
O18 O 0.52823(11) 0.03807(5) 0.56824(7)
O24 O 0.46440(11) 0.03443(5) 0.31703(7)
O1 O 0.44053(12) 0.89608(5) 0.37927(7)
O2 O 0.47177(11) 0.96193(5) 0.43176(7)
C1 C 0.40404(16) 0.83314(7) 0.56590(10)
C2 C 0.46361(15) 0.90166(7) 0.62155(9)
C4 C 0.45483(15) 0.91942(7) 0.43286(10)
N4 N 0.37086(15) 0.78702(6) 0.57190(9)
C5 C 0.44845(16) 0.89671(7) 0.49986(10)
O7 O 0.53560(11) 0.96557(5) 0.68297(7)
C7 C 0.42799(16) 0.85791(7) 0.62541(10)
H2 H 0.4197 0.8446 0.6680
C10 C 0.49230(15) 0.92794(7) 0.68576(9)
C11 C 0.41399(17) 0.85197(7) 0.50265(10)
H4 H 0.3976 0.8346 0.4625
C13 C 0.47403(15) 0.92199(7) 0.55893(9)
H5 H 0.4982 0.9525 0.5567
C22 C 0.4138(3) 0.7500 0.54972(15)
H12 H 0.4667 0.7500 0.5224
C30 C 0.74348(19) 0.98984(9) 0.65484(14)
H16 H 0.7019 0.9654 0.6373
C31 C 0.84397(19) 0.98529(10) 0.65436(15)
H17 H 0.8704 0.9579 0.6375
C43 C 0.3016(2) 0.77289(9) 0.61332(16)
H29 H 0.2614 0.7923 0.6373
O9 O 0.44053(12) 0.60392(5) 0.37927(7)
O10 O 0.47177(11) 0.53807(5) 0.43176(7)
C45 C 0.40404(16) 0.66686(7) 0.56590(10)
C46 C 0.46361(15) 0.59834(7) 0.62155(9)
O11 O 0.47096(11) 0.59037(5) 0.73994(6)
C47 C 0.45483(15) 0.58058(7) 0.43286(10)
N7 N 0.37086(15) 0.71298(6) 0.57190(9)
C48 C 0.44845(16) 0.60329(7) 0.49986(10)
O12 O 0.53560(11) 0.53443(5) 0.68297(7)
C49 C 0.42799(16) 0.64209(7) 0.62541(10)
H31 H 0.4197 0.6554 0.6680
C50 C 0.49230(15) 0.57206(7) 0.68576(9)
C51 C 0.41399(17) 0.64803(7) 0.50265(10)
H32 H 0.3976 0.6654 0.4625
C52 C 0.47403(15) 0.57801(7) 0.55893(9)
H33 H 0.4982 0.5475 0.5567
C53 C 0.3016(2) 0.72711(9) 0.61332(16)
H34 H 0.2614 0.7077 0.6373
Zn3 Zn 0.454994(18) 0.964903(8) 0.324609(11)
N9 N 0.29839(13) 0.97325(6) 0.32135(9)
C66 C 0.13761(18) 0.94109(9) 0.29578(13)
H41 H 0.0980 0.9160 0.2779
C67 C 0.09323(18) 0.97939(9) 0.32151(13)
C72 C 0.23707(18) 0.93958(9) 0.29631(12)
H46 H 0.2653 0.9132 0.2779
C78 C 0.9603(2) 0.93291(11) 0.81468(14)
H52 H 0.9825 0.9069 0.7917
C79 C 0.85302(19) 0.93520(10) 0.82264(13)
C81 C 0.71139(19) 0.96912(10) 0.86310(13)
H53 H 0.6848 0.9918 0.8903
C82 C 0.8124(2) 0.96846(10) 0.86056(15)
H54 H 0.8537 0.9907 0.8847
C83 C 0.7901(2) 0.90386(10) 0.78968(14)
H55 H 0.8153 0.8798 0.7643
C86 C 0.69057(18) 0.90730(9) 0.79343(12)
H58 H 0.6480 0.8856 0.7692
Zn11 Zn 0.454994(18) 0.535097(8) 0.324609(11)
O19 O 0.42966(11) 0.93173(5) 0.23562(7)
N14 N 0.61130(15) 0.95761(6) 0.32424(9)
H40 H 0.8137 0.0125 0.3706
H47 H 0.9632 0.0114 0.3419
H48 H 0.6468 0.0128 0.3789
C63 C 0.81503(18) 0.95375(9) 0.31451(13)
C64 C 0.74873(19) 0.92023(9) 0.28599(14)
H39 H 0.7729 0.8948 0.2628
C65 C 0.77301(19) 0.98874(10) 0.34955(14)
C70 C 0.92067(19) 0.95086(10) 0.30779(13)
H44 H 0.9439 0.9234 0.2892
C71 C 0.65235(18) 0.92374(8) 0.29115(13)
H45 H 0.6098 0.9007 0.2700
C73 C 0.98674(18) 0.98329(10) 0.32539(14)
C74 C 0.67323(18) 0.98897(10) 0.35368(13)
N6 N 0.35030(13) 0.43967(7) 0.17049(9)
C24 C 0.0397(2) 0.43291(11) 0.18532(14)
H14 H 0.0175 0.4069 0.2083
C25 C 0.14698(19) 0.43520(10) 0.17736(13)
C33 C 0.28861(19) 0.46912(10) 0.13690(13)
H19 H 0.3152 0.4918 0.1097
C34 C 0.1876(2) 0.46846(10) 0.13944(15)
H20 H 0.1463 0.4907 0.1153
C35 C 0.2099(2) 0.40386(10) 0.21032(14)
H21 H 0.1847 0.3798 0.2357
C40 C 0.30943(18) 0.40730(9) 0.20657(12)
H26 H 0.3520 0.3856 0.2308
N10 N 0.38870(15) 0.45761(6) 0.67576(9)
C63_2 C 0.18497(18) 0.45375(9) 0.68549(13)
C64_2 C 0.25127(19) 0.42023(9) 0.71401(14)
H39_2 H 0.2271 0.3948 0.7372
C65_2 C 0.22699(19) 0.48874(10) 0.65045(14)
H40_2 H 0.1863 0.5125 0.6294
C70_2 C 0.07933(19) 0.45086(10) 0.69221(13)
H44_2 H 0.0561 0.4234 0.7108
C71_2 C 0.34765(18) 0.42374(8) 0.70885(13)
H45_2 H 0.3902 0.4007 0.7300
C73_2 C 0.01326(18) 0.48329(10) 0.67461(14)
H47_2 H 0.0368 0.5114 0.6581
C74_2 C 0.32677(18) 0.48897(10) 0.64632(13)
H48_2 H 0.3532 0.5128 0.6211
O1_2 O 0.55947(12) 0.39608(5) 0.62073(7)
O2_2 O 0.52823(11) 0.46193(5) 0.56824(7)
C1_2 C 0.59596(16) 0.33314(7) 0.43410(10)
O3_2 O 0.42966(11) 0.56827(5) 0.23562(7)
C2_2 C 0.53639(15) 0.40166(7) 0.37845(9)
N1_2 N 0.38825(16) 0.71309(6) 0.10148(9)
O5 O 0.52904(11) 0.40963(5) 0.26006(6)
C3_2 C 0.44588(16) 0.59007(7) 0.12410(10)
C4_2 C 0.54517(15) 0.41942(7) 0.56714(10)
N2 N 0.66393(15) 0.45626(6) 0.18073(9)
O6 O 0.49561(12) 0.51755(5) 0.16925(8)
N3_2 N 0.29839(13) 0.52675(6) 0.32135(9)
N4_2 N 0.62914(15) 0.28702(6) 0.42810(9)
C5_2 C 0.55155(16) 0.39671(7) 0.50014(10)
C6_2 C 0.46437(15) 0.57748(7) 0.05928(10)
H1_2 H 0.4836 0.5469 0.0502
O7_2 O 0.46440(11) 0.46557(5) 0.31703(7)
C7_2 C 0.57201(16) 0.35791(7) 0.37459(10)
H2_2 H 0.5803 0.3446 0.3320
C8_2 C 0.41243(19) 0.66685(7) 0.08656(11)
C9_2 C 0.42111(17) 0.63435(7) 0.13872(10)
H3_2 H 0.4101 0.6428 0.1834
C10_2 C 0.50770(15) 0.42794(7) 0.31424(9)
C11_2 C 0.58601(17) 0.35197(7) 0.49735(10)
H4_2 H 0.6024 0.3346 0.5375
C13_2 C 0.52597(15) 0.42199(7) 0.44107(9)
H5_2 H 0.5018 0.4525 0.4433
C15_2 C 0.45446(18) 0.61018(8) 0.00773(10)
C18_2 C 0.42833(19) 0.65504(8) 0.02111(11)
C19 C 0.72676(17) 0.42550(9) 0.21252(12)
H9 H 0.7008 0.4019 0.2385
C20_2 C 0.13761(18) 0.55891(9) 0.29578(13)
H10_2 H 0.0980 0.5840 0.2779
C21 C 0.8033(2) 0.49247(10) 0.14009(15)
H11 H 0.8276 0.5167 0.1146
C22_2 C 0.5862(3) 0.2500 0.45028(15)
H12_2 H 0.5333 0.2500 0.4776
C23 C 0.70450(19) 0.48926(9) 0.14535(14)
H13 H 0.6618 0.5116 0.1227
C26_2 C 0.45728(15) 0.55539(7) 0.18040(10)
C27_2 C 0.09323(18) 0.52061(9) 0.32151(13)
C28_2 C 0.3231(2) 0.72707(8) 0.14608(12)
H15_2 H 0.2855 0.7077 0.1718
C29 C 0.86841(19) 0.46046(10) 0.17176(14)
C30_2 C 0.25652(19) 0.48984(9) 0.34516(14)
H16_2 H 0.2981 0.4654 0.3627
C31_2 C 0.15603(19) 0.48529(10) 0.34564(15)
H17_2 H 0.1296 0.4579 0.3625
C36 C 0.9740(2) 0.46322(11) 0.16358(15)
H22 H 0.9958 0.4893 0.1406
C38 C 0.82718(19) 0.42680(10) 0.20896(13)
H24 H 0.8688 0.4043 0.2323
C39_2 C 0.23707(18) 0.56042(9) 0.29631(12)
H25_2 H 0.2653 0.5868 0.2779
C43_2 C 0.6984(2) 0.27289(9) 0.38668(16)
H29_2 H 0.7386 0.2923 0.3627
C44_2 C 0.4265(3) 0.7500 0.07526(15)
H30_2 H 0.4732 0.7500 0.0432
C45_2 C 0.59596(16) 0.16686(7) 0.43410(10)
C46_2 C 0.53639(15) 0.09834(7) 0.37845(9)
O11_2 O 0.52904(11) 0.09037(5) 0.26006(6)
C47_2 C 0.54517(15) 0.08058(7) 0.56714(10)
N7_2 N 0.62914(15) 0.21298(6) 0.42810(9)
C48_2 C 0.55155(16) 0.10329(7) 0.50014(10)
C49_2 C 0.57201(16) 0.14209(7) 0.37459(10)
H31_2 H 0.5803 0.1554 0.3320
C50_2 C 0.50770(15) 0.07206(7) 0.31424(9)
C51_2 C 0.58601(17) 0.14803(7) 0.49735(10)
H32_2 H 0.6024 0.1654 0.5375
C52_2 C 0.52597(15) 0.07801(7) 0.44107(9)
H33_2 H 0.5018 0.0475 0.4433
C53_2 C 0.6984(2) 0.22711(9) 0.38668(16)
H34_2 H 0.7386 0.2077 0.3627
N8_2 N 0.38825(16) 0.78691(6) 0.10148(9)
C54_2 C 0.44588(16) 0.90993(7) 0.12410(10)
O15_2 O 0.49561(12) 0.98245(5) 0.16925(8)
C55_2 C 0.46437(15) 0.92252(7) 0.05928(10)
H35_2 H 0.4836 0.9531 0.0502
C56_2 C 0.41243(19) 0.83315(7) 0.08656(11)
C57_2 C 0.42111(17) 0.86565(7) 0.13872(10)
H36_2 H 0.4101 0.8572 0.1834
C59_2 C 0.45446(18) 0.88982(8) 0.00773(10)
C60_2 C 0.42833(19) 0.84496(8) 0.02111(11)
C61_2 C 0.45728(15) 0.94461(7) 0.18040(10)
C62_2 C 0.3231(2) 0.77293(8) 0.14608(12)
H38_2 H 0.2855 0.7923 0.1718
N9_2 N 0.70161(13) 0.47325(6) 0.67865(9)
C66_2 C 0.86239(18) 0.44109(9) 0.70422(13)
H41_2 H 0.9020 0.4160 0.7221
C67_2 C 0.90677(18) 0.47939(9) 0.67849(13)
C68_2 C 0.74348(19) 0.51016(9) 0.65484(14)
H42_2 H 0.7019 0.5346 0.6373
C69_2 C 0.84397(19) 0.51471(10) 0.65436(15)
H43_2 H 0.8704 0.5421 0.6375
C72_2 C 0.76293(18) 0.43958(9) 0.70369(12)
H46_2 H 0.7347 0.4132 0.7221
N13 N 0.61130(15) 0.54239(6) 0.32424(9)
O4_2 O 0.45436(16) 0.62484(6) 0.88990(8)
C12_2 C 0.47216(18) 0.59631(9) 0.93742(11)
O8_2 O 0.50126(12) 0.55611(6) 0.92891(7)
H8_2 H 0.4214 0.6774 0.9860
C58_2 C 0.47216(18) 0.90369(9) 0.93742(11)
H37_2 H 0.4214 0.8226 0.9860
C14_2 C 0.81503(18) 0.54625(9) 0.31451(13)
C16_2 C 0.74873(19) 0.57977(9) 0.28599(14)
H6_2 H 0.7729 0.6052 0.2628
C17_2 C 0.77301(19) 0.51126(10) 0.34955(14)
H7_2 H 0.8137 0.4875 0.3706
C32_2 C 0.92067(19) 0.54914(10) 0.30779(13)
H18_2 H 0.9439 0.5766 0.2892
C37_2 C 0.65235(18) 0.57626(8) 0.29115(13)
H23_2 H 0.6098 0.5993 0.2700
C41_2 C 0.98674(18) 0.51671(10) 0.32539(14)
H27_2 H 0.9632 0.4886 0.3419
C42_2 C 0.67323(18) 0.51103(10) 0.35368(13)
H28_2 H 0.6468 0.4872 0.3789
N6_2 N 0.35030(13) 0.06033(7) 0.17049(9)
C24_2 C 0.0397(2) 0.06709(11) 0.18532(14)
H14_2 H 0.0175 0.0931 0.2083
C25_2 C 0.14698(19) 0.06480(10) 0.17736(13)
C33_2 C 0.28861(19) 0.03088(10) 0.13690(13)
H19_2 H 0.3152 0.0082 0.1097
C34_2 C 0.1876(2) 0.03154(10) 0.13944(15)
H20_2 H 0.1463 0.0093 0.1153
C35_2 C 0.2099(2) 0.09614(10) 0.21032(14)
H21_2 H 0.1847 0.1202 0.2357
C40_2 C 0.30943(18) 0.09270(9) 0.20657(12)
H26_2 H 0.3520 0.1144 0.2308
N2_2 N 0.66393(15) 0.04374(6) 0.18073(9)
C19_2 C 0.72676(17) 0.07450(9) 0.21252(12)
H9_2 H 0.7008 0.0981 0.2385
C21_2 C 0.8033(2) 0.00753(10) 0.14009(15)
C23_2 C 0.70450(19) 0.01074(9) 0.14535(14)
C29_2 C 0.86841(19) 0.03954(10) 0.17176(14)
C36_2 C 0.9740(2) 0.03678(11) 0.16358(15)
H22_2 H 0.9958 0.0107 0.1406
C38_2 C 0.82718(19) 0.07320(10) 0.20896(13)
H24_2 H 0.8688 0.0957 0.2323
H11_2 H 0.8276 0.9833 0.1146
H13_2 H 0.6618 0.9884 0.1227
N11_2 N 0.33607(15) 0.54374(6) 0.81927(9)
C75_2 C 0.27324(17) 0.57450(9) 0.78748(12)
H49_2 H 0.2992 0.5981 0.7615
C76_2 C 0.1967(2) 0.50753(10) 0.85991(15)
H50_2 H 0.1724 0.4833 0.8854
C77_2 C 0.29550(19) 0.51074(9) 0.85465(14)
H51_2 H 0.3382 0.4884 0.8773
C80_2 C 0.13159(19) 0.53954(10) 0.82824(14)
C84_2 C 0.0260(2) 0.53678(11) 0.83642(15)
H56_2 H 0.0042 0.5107 0.8594
C85_2 C 0.17282(19) 0.57320(10) 0.79104(13)
H57_2 H 0.1312 0.5957 0.7677
N15_2 N 0.64970(13) 0.56033(7) 0.82951(9)
C78_2 C 0.9603(2) 0.56709(11) 0.81468(14)
H52_2 H 0.9825 0.5931 0.7917
C79_2 C 0.85302(19) 0.56480(10) 0.82264(13)
C81_2 C 0.71139(19) 0.53088(10) 0.86310(13)
H53_2 H 0.6848 0.5082 0.8903
C82_2 C 0.8124(2) 0.53154(10) 0.86056(15)
H54_2 H 0.8537 0.5093 0.8847
C83_2 C 0.7901(2) 0.59614(10) 0.78968(14)
H55_2 H 0.8153 0.6202 0.7643
C86_2 C 0.69057(18) 0.59270(9) 0.79343(12)
H58_2 H 0.6480 0.6144 0.7692
loop_
_geom_bond_atom_site_label_1
_geom_bond_atom_site_label_2
_geom_bond_site_symmetry_1
_geom_bond_site_symmetry_2
N5 C37 1_555 1_555
C14 C16 1_555 1_555
C16 H6 1_555 1_555
C17 C14 1_555 1_555
C32 C14 1_555 1_555
H18 C32 1_555 1_555
C37 C16 1_555 1_555
H23 C37 1_555 1_555
C42 N5 1_555 1_555
Zn10 N5 1_555 1_555
C17 C42 1_555 1_555
C32 C41 1_555 1_555
Zn4 N11 1_555 1_555
N11 C75 1_555 1_555
C75 H49 1_555 1_555
C77 N11 1_555 1_555
C80 C76 1_555 1_555
H56 C84 1_555 1_555
C85 C75 1_555 1_555
H57 C85 1_555 1_555
O21 Zn4 1_555 1_555
O22 Zn4 1_555 1_555
N15 Zn4 1_555 1_555
O26 Zn4 1_555 1_555
C76 C77 1_555 1_555
C80 C84 1_555 1_555
C80 C85 1_555 1_555
O4 C12 1_555 1_555
C12 O8 1_555 1_555
O8 Zn7 1_555 1_555
O14 C58 1_555 1_555
C58 O16 1_555 1_555
O16 Zn6 1_555 1_555
Zn6 O14 1_555 1_555
Zn7 O4 1_555 1_555
Zn10 O3 1_555 1_555
O3 C26 1_555 1_555
N1 C8 1_555 1_555
C3 C6 1_555 1_555
N3 Zn10 1_555 1_555
C6 H1 1_555 1_555
C8 C9 1_555 1_555
C9 C3 1_555 1_555
H3 C9 1_555 1_555
C15 C6 1_555 1_555
C18 C8 1_555 1_555
C20 H10 1_555 1_555
C26 C3 1_555 1_555
C27 C20 1_555 1_555
C28 N1 1_555 1_555
H15 C28 1_555 1_555
C39 N3 1_555 1_555
H25 C39 1_555 1_555
C44 N1 1_555 1_555
H30 C44 1_555 1_555
O13 C61 1_555 1_555
N8 C44 1_555 1_555
C54 C55 1_555 1_555
O15 C61 1_555 1_555
C55 H35 1_555 1_555
C56 N8 1_555 1_555
C57 C54 1_555 1_555
H36 C57 1_555 1_555
C59 C55 1_555 1_555
C60 C56 1_555 1_555
C61 C54 1_555 1_555
C62 C28 1_555 1_555
H38 C62 1_555 1_555
H42 C68 1_555 1_555
H43 C69 1_555 1_555
Zn9 O15 1_555 1_555
Zn14 O13 1_555 1_555
O17 Zn10 1_555 1_555
O18 Zn10 1_555 1_555
O23 C26 1_555 1_555
C15 C18 1_555 1_555
C20 C39 1_555 1_555
N8 C62 1_555 1_555
C56 C57 1_555 1_555
C59 C60 1_555 1_555
C68 C69 1_555 1_555
O1 C4 1_555 1_555
O2 C4 1_555 1_555
C1 N4 1_555 1_555
C2 C7 1_555 1_555
O22 C10 1_555 1_555
C4 C5 1_555 1_555
N4 C22 1_555 1_555
C5 C11 1_555 1_555
C7 C1 1_555 1_555
H2 C7 1_555 1_555
C10 C2 1_555 1_555
C11 C1 1_555 1_555
H4 C11 1_555 1_555
C13 C2 1_555 1_555
H5 C13 1_555 1_555
C22 H12 1_555 1_555
H16 C30 1_555 1_555
H17 C31 1_555 1_555
C43 N4 1_555 1_555
H29 C43 1_555 1_555
O9 C47 1_555 1_555
O10 C47 1_555 1_555
C45 N7 1_555 1_555
C46 C49 1_555 1_555
O11 C50 1_555 1_555
C47 C48 1_555 1_555
N7 C22 1_555 1_555
C48 C51 1_555 1_555
O12 C50 1_555 1_555
C49 C45 1_555 1_555
H31 C49 1_555 1_555
C50 C46 1_555 1_555
C51 C45 1_555 1_555
H32 C51 1_555 1_555
C52 C46 1_555 1_555
H33 C52 1_555 1_555
C53 C43 1_555 1_555
H34 C53 1_555 1_555
Zn3 O1 1_555 1_555
N9 Zn3 1_555 1_555
C66 H41 1_555 1_555
C67 C66 1_555 1_555
C72 N9 1_555 1_555
H46 C72 1_555 1_555
C78 H52 1_555 1_555
C79 C78 1_555 1_555
C81 N15 1_555 1_555
H53 C81 1_555 1_555
C82 C79 1_555 1_555
H54 C82 1_555 1_555
C83 C79 1_555 1_555
H55 C83 1_555 1_555
C86 N15 1_555 1_555
H58 C86 1_555 1_555
Zn9 O11 1_555 1_555
Zn11 O9 1_555 1_555
Zn14 O12 1_555 1_555
O19 Zn3 1_555 1_555
N14 Zn3 1_555 1_555
O2 Zn3 1_555 1_555
C5 C13 1_555 1_555
O7 C10 1_555 1_555
C30 C31 1_555 1_555
O10 Zn11 1_555 1_555
N7 C53 1_555 1_555
C48 C52 1_555 1_555
C66 C72 1_555 1_555
C81 C82 1_555 1_555
C83 C86 1_555 1_555
N14 C71 1_555 1_555
C63 C64 1_555 1_555
C64 H39 1_555 1_555
C65 C63 1_555 1_555
C70 C63 1_555 1_555
H44 C70 1_555 1_555
C71 C64 1_555 1_555
H45 C71 1_555 1_555
C74 N14 1_555 1_555
C65 C74 1_555 1_555
C70 C73 1_555 1_555
N6 C33 1_555 1_555
C24 H14 1_555 1_555
C25 C24 1_555 1_555
C33 H19 1_555 1_555
C34 C25 1_555 1_555
H20 C34 1_555 1_555
C35 C25 1_555 1_555
H21 C35 1_555 1_555
C40 N6 1_555 1_555
H26 C40 1_555 1_555
N10 C71_2 1_555 1_555
C63_2 C64_2 1_555 1_555
C64_2 H39_2 1_555 1_555
C65_2 C63_2 1_555 1_555
H40_2 C65_2 1_555 1_555
C70_2 C63_2 1_555 1_555
H44_2 C70_2 1_555 1_555
C71_2 C64_2 1_555 1_555
H45_2 C71_2 1_555 1_555
H47_2 C73_2 1_555 1_555
C74_2 N10 1_555 1_555
H48_2 C74_2 1_555 1_555
Zn6 N6 1_555 1_555
Zn14 N10 1_555 1_555
C33 C34 1_555 1_555
C35 C40 1_555 1_555
C65_2 C74_2 1_555 1_555
C70_2 C73_2 1_555 1_555
Zn6 O5 1_555 1_555
Zn11 O3_2 1_555 1_555
O1_2 C4_2 1_555 1_555
O2_2 C4_2 1_555 1_555
C1_2 N4_2 1_555 1_555
O3_2 C26_2 1_555 1_555
C2_2 C7_2 1_555 1_555
N1_2 C8_2 1_555 1_555
O5 C10_2 1_555 1_555
C3_2 C6_2 1_555 1_555
C4_2 C5_2 1_555 1_555
N2 Zn6 1_555 1_555
O6 Zn6 1_555 1_555
N3_2 Zn11 1_555 1_555
N4_2 C22_2 1_555 1_555
C5_2 C11_2 1_555 1_555
C6_2 H1_2 1_555 1_555
O7_2 Zn11 1_555 1_555
C7_2 C1_2 1_555 1_555
H2_2 C7_2 1_555 1_555
C8_2 C9_2 1_555 1_555
C9_2 C3_2 1_555 1_555
H3_2 C9_2 1_555 1_555
C10_2 C2_2 1_555 1_555
C11_2 C1_2 1_555 1_555
H4_2 C11_2 1_555 1_555
C13_2 C2_2 1_555 1_555
H5_2 C13_2 1_555 1_555
C15_2 C6_2 1_555 1_555
C18_2 C8_2 1_555 1_555
C19 N2 1_555 1_555
H9 C19 1_555 1_555
C20_2 H10_2 1_555 1_555
C21 H11 1_555 1_555
C22_2 H12_2 1_555 1_555
C23 N2 1_555 1_555
H13 C23 1_555 1_555
C26_2 C3_2 1_555 1_555
C27_2 C20_2 1_555 1_555
C28_2 N1_2 1_555 1_555
H15_2 C28_2 1_555 1_555
C29 C21 1_555 1_555
C30_2 N3_2 1_555 1_555
H16_2 C30_2 1_555 1_555
C31_2 C27_2 1_555 1_555
H17_2 C31_2 1_555 1_555
H22 C36 1_555 1_555
C38 C19 1_555 1_555
H24 C38 1_555 1_555
C39_2 N3_2 1_555 1_555
H25_2 C39_2 1_555 1_555
C43_2 N4_2 1_555 1_555
H29_2 C43_2 1_555 1_555
C44_2 N1_2 1_555 1_555
H30_2 C44_2 1_555 1_555
O17 C47_2 1_555 1_555
O18 C47_2 1_555 1_555
C45_2 N7_2 1_555 1_555
C46_2 C49_2 1_555 1_555
O11_2 C50_2 1_555 1_555
C47_2 C48_2 1_555 1_555
N7_2 C22_2 1_555 1_555
C48_2 C51_2 1_555 1_555
O24 C50_2 1_555 1_555
C49_2 C45_2 1_555 1_555
H31_2 C49_2 1_555 1_555
C50_2 C46_2 1_555 1_555
C51_2 C45_2 1_555 1_555
H32_2 C51_2 1_555 1_555
C52_2 C46_2 1_555 1_555
H33_2 C52_2 1_555 1_555
C53_2 C43_2 1_555 1_555
H34_2 C53_2 1_555 1_555
O19 C61_2 1_555 1_555
N8_2 C44_2 1_555 1_555
C54_2 C55_2 1_555 1_555
O15_2 C61_2 1_555 1_555
C55_2 H35_2 1_555 1_555
C56_2 N8_2 1_555 1_555
C57_2 C54_2 1_555 1_555
H36_2 C57_2 1_555 1_555
C59_2 C55_2 1_555 1_555
C60_2 C56_2 1_555 1_555
C61_2 C54_2 1_555 1_555
C62_2 C28_2 1_555 1_555
H38_2 C62_2 1_555 1_555
Zn14 O1_2 1_555 1_555
N9_2 Zn14 1_555 1_555
C66_2 H41_2 1_555 1_555
C67_2 C66_2 1_555 1_555
C68_2 N9_2 1_555 1_555
H42_2 C68_2 1_555 1_555
C69_2 C67_2 1_555 1_555
H43_2 C69_2 1_555 1_555
C72_2 N9_2 1_555 1_555
H46_2 C72_2 1_555 1_555
Zn7 O11_2 1_555 1_555
N13 Zn11 1_555 1_555
O2_2 Zn14 1_555 1_555
O6 C26_2 1_555 1_555
C5_2 C13_2 1_555 1_555
O7_2 C10_2 1_555 1_555
C15_2 C18_2 1_555 1_555
C20_2 C39_2 1_555 1_555
C21 C23 1_555 1_555
C29 C36 1_555 1_555
C29 C38 1_555 1_555
C30_2 C31_2 1_555 1_555
N7_2 C53_2 1_555 1_555
C48_2 C52_2 1_555 1_555
N8_2 C62_2 1_555 1_555
C56_2 C57_2 1_555 1_555
C59_2 C60_2 1_555 1_555
C66_2 C72_2 1_555 1_555
C68_2 C69_2 1_555 1_555
O4_2 C12_2 1_555 1_555
C12_2 O8_2 1_555 1_555
O8_2 Zn9 1_555 1_555
O21 C58_2 1_555 1_555
C58_2 O26 1_555 1_555
Zn9 O4_2 1_555 1_555
N13 C37_2 1_555 1_555
C14_2 C16_2 1_555 1_555
C16_2 H6_2 1_555 1_555
C17_2 C14_2 1_555 1_555
H7_2 C17_2 1_555 1_555
C32_2 C14_2 1_555 1_555
H18_2 C32_2 1_555 1_555
C37_2 C16_2 1_555 1_555
H23_2 C37_2 1_555 1_555
H27_2 C41_2 1_555 1_555
C42_2 N13 1_555 1_555
H28_2 C42_2 1_555 1_555
C17_2 C42_2 1_555 1_555
C32_2 C41_2 1_555 1_555
N6_2 C33_2 1_555 1_555
C24_2 H14_2 1_555 1_555
C25_2 C24_2 1_555 1_555
C33_2 H19_2 1_555 1_555
C34_2 C25_2 1_555 1_555
H20_2 C34_2 1_555 1_555
C35_2 C25_2 1_555 1_555
H21_2 C35_2 1_555 1_555
C40_2 N6_2 1_555 1_555
H26_2 C40_2 1_555 1_555
Zn7 N6_2 1_555 1_555
C33_2 C34_2 1_555 1_555
C35_2 C40_2 1_555 1_555
N2_2 Zn7 1_555 1_555
C19_2 N2_2 1_555 1_555
H9_2 C19_2 1_555 1_555
C23_2 N2_2 1_555 1_555
C29_2 C21_2 1_555 1_555
H22_2 C36_2 1_555 1_555
C38_2 C19_2 1_555 1_555
H24_2 C38_2 1_555 1_555
C21_2 C23_2 1_555 1_555
C29_2 C36_2 1_555 1_555
C29_2 C38_2 1_555 1_555
Zn9 N11_2 1_555 1_555
N11_2 C75_2 1_555 1_555
C75_2 H49_2 1_555 1_555
C76_2 H50_2 1_555 1_555
C77_2 N11_2 1_555 1_555
H51_2 C77_2 1_555 1_555
C80_2 C76_2 1_555 1_555
H56_2 C84_2 1_555 1_555
C85_2 C75_2 1_555 1_555
H57_2 C85_2 1_555 1_555
N15_2 Zn9 1_555 1_555
C76_2 C77_2 1_555 1_555
C80_2 C84_2 1_555 1_555
C80_2 C85_2 1_555 1_555
C78_2 H52_2 1_555 1_555
C79_2 C78_2 1_555 1_555
C81_2 N15_2 1_555 1_555
H53_2 C81_2 1_555 1_555
C82_2 C79_2 1_555 1_555
H54_2 C82_2 1_555 1_555
C83_2 C79_2 1_555 1_555
H55_2 C83_2 1_555 1_555
C86_2 N15_2 1_555 1_555
H58_2 C86_2 1_555 1_555
C81_2 C82_2 1_555 1_555
C83_2 C86_2 1_555 1_555

#END
