
###############################################################################
#
# This file contains modified crystal structure data generated from the
# MOF subset of the Cambridge Structural Database (CSD) v543 
# hosted by the Cambridge Crystallographic Data Centre (CCDC).
#
# This work is licensed under the Creative Commons
# Attribution-NonCommercial-ShareAlike 4.0 International License.
# To view a copy of this license, visit
# http://creativecommons.org/licenses/by-nc-sa/4.0/
# or send a letter to
# Creative Commons, PO Box 1866, Mountain View, CA 94042, USA.
#
# CIF created using the CSD Python API on 29 September 2022
# The structure has been converted into the P1 space group
# The structure has a 3D framework
# The original CSD entry QOMGOQ is in the monoclinic crystal system
# The framework has been calculated to contain at least 10.0% void space
# The void calculation uses a probe of radius 1.32A, grid spacing 0.4
# The framework is charged, counterions have been retained in the structure
#
###############################################################################

data_QOMGOQ
_chemical_formula_moiety         '(C204 H132 N24 O32 Zn8 4+)n'
_symmetry_cell_setting           triclinic
_symmetry_space_group_name_H-M   'P 1'
_symmetry_Int_Tables_number      1
_space_group_name_Hall           'P 1'
loop_
_symmetry_equiv_pos_site_id
_symmetry_equiv_pos_as_xyz
1 x,y,z
_cell_length_a                   18.3859(11)
_cell_length_b                   28.9574(18)
_cell_length_c                   18.3999(12)
_cell_angle_alpha                90
_cell_angle_beta                 114.5400(10)
_cell_angle_gamma                90
_cell_volume                     8911.37
loop_
_atom_site_label
_atom_site_type_symbol
_atom_site_fract_x
_atom_site_fract_y
_atom_site_fract_z
Zn7 Zn 0.079122(15) 0.045094(10) 0.078422(19)
Zn1 Zn 0.079122(15) 0.454906(10) 0.078422(19)
Zn2 Zn 0.421605(15) 0.545088(10) 0.420920(19)
O1 O 0.19396(11) 0.45661(6) 0.17110(13)
O2 O 0.32881(11) 0.54334(6) 0.30614(13)
O3 O 0.06446(10) 0.52515(6) 0.08028(12)
O4 O 0.41948(10) 0.47512(6) 0.43574(12)
O5 O 0.50494(10) 0.41703(6) 0.48509(12)
O6 O 0.15303(11) 0.38662(7) 0.12699(14)
O7 O 0.37322(11) 0.61334(7) 0.34683(13)
N2 N 0.03107(14) 0.45112(8) 0.16632(17)
C1 C 0.41910(15) 0.36109(9) 0.35783(18)
H1 H 0.4660 0.3496 0.3975
C2 C 0.06718(14) 0.56444(9) 0.05681(17)
C3 C 0.14221(16) 0.63899(9) 0.08094(18)
H2 H 0.1027 0.6504 0.0338
C4 C 0.30188(15) 0.34945(8) 0.23404(18)
H3 H 0.2708 0.3301 0.1923
C5 C 0.26599(16) 0.65068(9) 0.19775(18)
H4 H 0.3080 0.6699 0.2286
C6 C 0.44338(14) 0.43544(9) 0.43298(17)
C7 C 0.32602(14) 0.58633(9) 0.29667(18)
C8 C 0.39521(14) 0.40591(9) 0.36091(17)
C9 C 0.20388(15) 0.41375(9) 0.17411(18)
C10 C 0.20597(16) 0.66630(8) 0.12863(18)
C11 C 0.27949(14) 0.39467(9) 0.23727(18)
C12 C 0.37173(16) 0.33384(8) 0.29454(19)
C13 C 0.13925(14) 0.59405(9) 0.10573(17)
C14 C 0.3520(2) 0.2500 0.2834(3)
H5 H 0.2979 0.2500 0.2726
C15 C 0.2173(2) 0.7500 0.1484(3)
H6 H 0.2277 0.7500 0.2024
C16 C 0.26230(15) 0.60510(8) 0.22057(17)
C17 C 0.19953(15) 0.57674(9) 0.17437(18)
H7 H 0.1979 0.5462 0.1894
N5 N 0.39728(13) 0.28693(7) 0.29240(16)
C18 C 0.32624(15) 0.42323(9) 0.30047(18)
H8 H 0.3112 0.4538 0.3021
N6 N 0.20847(15) 0.71306(7) 0.10262(16)
H9 H 0.1815 0.5191 0.0278
C35 C 0.47402(17) 0.27333(10) 0.3060(3)
H19 H 0.5171 0.2925 0.3136
C38 C 0.1954(2) 0.72673(10) 0.0265(2)
C42 C 0.0486(3) 0.48261(12) 0.2240(3)
H24 H 0.0842 0.5060 0.2265
C43 C 0.0176(3) 0.48255(14) 0.2793(3)
H25 H 0.0331 0.5047 0.3194
O9 O 0.19396(11) 0.04339(6) 0.17110(13)
O10 O 0.41948(10) 0.02488(6) 0.43574(12)
O11 O 0.50494(10) 0.08297(6) 0.48509(12)
O12 O 0.15303(11) 0.11338(7) 0.12699(14)
C53 C 0.41910(15) 0.13891(9) 0.35783(18)
H35 H 0.4660 0.1504 0.3975
C54 C 0.30188(15) 0.15055(8) 0.23404(18)
H36 H 0.2708 0.1699 0.1923
C55 C 0.44338(14) 0.06456(9) 0.43298(17)
C56 C 0.39521(14) 0.09409(9) 0.36091(17)
C57 C 0.20388(15) 0.08625(9) 0.17411(18)
C58 C 0.27949(14) 0.10533(9) 0.23727(18)
C59 C 0.37173(16) 0.16616(8) 0.29454(19)
N7 N 0.39728(13) 0.21307(7) 0.29240(16)
C60 C 0.32624(15) 0.07677(9) 0.30047(18)
H37 H 0.3112 0.0462 0.3021
C61 C 0.47402(17) 0.22667(10) 0.3060(3)
H38 H 0.5171 0.2075 0.3136
O13 O 0.32881(11) 0.95666(6) 0.30614(13)
O14 O 0.06446(10) 0.97485(6) 0.08028(12)
O15 O 0.37322(11) 0.88666(7) 0.34683(13)
C62 C 0.06718(14) 0.93556(9) 0.05681(17)
C63 C 0.14221(16) 0.86101(9) 0.08094(18)
H39 H 0.1027 0.8496 0.0338
C64 C 0.26599(16) 0.84932(9) 0.19775(18)
H40 H 0.3080 0.8301 0.2286
C65 C 0.32602(14) 0.91367(9) 0.29667(18)
C66 C 0.20597(16) 0.83370(8) 0.12863(18)
C67 C 0.13925(14) 0.90595(9) 0.10573(17)
C68 C 0.26230(15) 0.89490(8) 0.22057(17)
C69 C 0.19953(15) 0.92326(9) 0.17437(18)
H41 H 0.1979 0.9538 0.1894
N8 N 0.20847(15) 0.78694(7) 0.10262(16)
C70 C 0.1954(2) 0.77327(10) 0.0265(2)
Zn4 Zn 0.578395(15) 0.454912(10) 0.579080(19)
Zn10 Zn 0.578395(15) 0.045088(10) 0.579080(19)
Zn14 Zn 0.421605(15) 0.954912(10) 0.420920(19)
O18 O 0.67119(11) 0.45666(6) 0.69386(13)
O20 O 0.58052(10) 0.52488(6) 0.56426(12)
O21 O 0.49506(10) 0.58297(6) 0.51491(12)
O23 O 0.62678(11) 0.38666(7) 0.65317(13)
N13 N 0.66600(15) 0.45107(9) 0.53057(17)
N14 N 0.33400(15) 0.54893(9) 0.46943(17)
N15 N 0.48961(14) 0.46127(8) 0.62477(16)
N16 N 0.51039(14) 0.53873(8) 0.37523(16)
N1 N 0.12504(13) 0.46144(8) 0.98978(17)
O8 O 0.01506(10) 0.58296(6) 0.99549(12)
C19 C 0.17130(19) 0.49618(11) 0.9894(2)
C20 C 0.48949(18) 0.49693(11) 0.6713(2)
H10 H 0.5276 0.5200 0.6809
C21 C 0.43616(19) 0.50129(11) 0.7055(2)
H11 H 0.4384 0.5268 0.7370
C22 C 0.19299(19) 0.46752(12) 0.8798(2)
C23 C 0.3795(2) 0.46768(12) 0.6929(2)
C24 C 0.20555(18) 0.50073(11) 0.9357(2)
H12 H 0.2369 0.5263 0.9378
C27 C 0.3254(2) 0.46861(14) 0.7349(3)
C30 C 0.2347(2) 0.46885(14) 0.8249(3)
C31 C 0.4313(2) 0.43066(12) 0.6090(2)
H15 H 0.4277 0.4067 0.5740
C32 C 0.3759(2) 0.43219(14) 0.6411(3)
H16 H 0.3364 0.4097 0.6282
C36 C 0.1094(2) 0.43056(13) 0.9319(2)
H20 H 0.0743 0.4067 0.9286
C37 C 0.1412(2) 0.43155(14) 0.8768(3)
H21 H 0.1287 0.4087 0.8380
H22 H 0.1880 0.7076 0.9835
C46 C 0.2281(4) 0.4392(3) 0.7734(4)
H28 H 0.1900 0.4162 0.7641
C48 C 0.2729(4) 0.4379(2) 0.7294(4)
H30 H 0.2648 0.4136 0.6939
C49 C 0.2911(8) 0.4971(4) 0.8353(9)
H31 H 0.3075 0.5165 0.8795
C50 C 0.3297(8) 0.5008(4) 0.7852(9)
H32 H 0.3595 0.5272 0.7877
O16 O 0.01506(10) 0.91704(6) 0.99549(12)
H42 H 0.1880 0.7924 0.9835
C77 C 0.33474(19) 0.58208(12) 0.5194(2)
H47 H 0.3735 0.6050 0.5317
C78 C 0.0203(2) 0.58165(12) 0.8354(2)
H48 H 0.0339 0.6041 0.8750
C80 C 0.2240(2) 0.55158(13) 0.5386(3)
C81 C 0.0383(2) 0.55152(13) 0.7251(3)
C85 C 0.2817(2) 0.58447(14) 0.5539(3)
H51 H 0.2849 0.6088 0.5881
C86 C 0.0540(2) 0.58390(14) 0.7819(3)
H52 H 0.0883 0.6081 0.7848
C89 C 0.2203(3) 0.51747(13) 0.4830(3)
H55 H 0.1805 0.4950 0.4680
C90 C 0.0781(3) 0.55121(15) 0.6680(4)
C91 C 0.1693(3) 0.55147(14) 0.5783(4)
C94 C 0.2760(2) 0.51749(12) 0.4509(3)
H58 H 0.2730 0.4945 0.4146
C95 C 0.1169(3) 0.5207(3) 0.5726(3)
H59 H 0.1080 0.4974 0.5350
C97 C 0.0729(3) 0.5191(3) 0.6174(3)
H61 H 0.0385 0.4943 0.6112
C101 C 0.1764(10) 0.5824(3) 0.6293(11)
H65 H 0.2122 0.6065 0.6358
C102 C 0.1332(10) 0.5822(3) 0.6765(10)
H66 H 0.1439 0.6049 0.7154
C25 C 0.66526(19) 0.41792(12) 0.4806(2)
H13 H 0.6265 0.3950 0.4683
C26 C 0.9797(2) 0.41835(12) 0.1646(2)
H14 H 0.9661 0.3959 0.1250
C28 C 0.7760(2) 0.44842(13) 0.4614(3)
C29 C 0.9617(2) 0.44848(13) 0.2749(3)
C33 C 0.7183(2) 0.41553(14) 0.4461(3)
H17 H 0.7151 0.3912 0.4119
C34 C 0.9460(2) 0.41610(14) 0.2181(3)
H18 H 0.9117 0.3919 0.2152
C39 C 0.7797(3) 0.48253(13) 0.5170(3)
H23 H 0.8195 0.5050 0.5320
C40 C 0.9219(3) 0.44879(15) 0.3320(4)
C41 C 0.8307(3) 0.44853(14) 0.4217(4)
C44 C 0.7240(2) 0.48251(12) 0.5491(3)
H26 H 0.7270 0.5055 0.5854
C45 C 0.8831(3) 0.4793(3) 0.4274(3)
H27 H 0.8920 0.5026 0.4650
C47 C 0.9271(3) 0.4809(3) 0.3826(3)
H29 H 0.9615 0.5057 0.3888
C51 C 0.8236(10) 0.4176(3) 0.3707(11)
H33 H 0.7878 0.3935 0.3642
C52 C 0.8668(10) 0.4178(3) 0.3235(10)
H34 H 0.8561 0.3951 0.2846
N9 N 0.87496(13) 0.53856(8) 0.01022(17)
C71 C 0.82870(19) 0.50382(11) 0.0106(2)
C72 C 0.51051(18) 0.50307(11) 0.3287(2)
H44 H 0.4724 0.4800 0.3191
C73 C 0.56384(19) 0.49871(11) 0.2945(2)
H45 H 0.5616 0.4732 0.2630
C74 C 0.80701(19) 0.53248(12) 0.1202(2)
C75 C 0.6205(2) 0.53232(12) 0.3071(2)
C76 C 0.79445(18) 0.49927(11) 0.0643(2)
H46 H 0.7631 0.4737 0.0622
C79 C 0.6746(2) 0.53139(14) 0.2651(3)
C82 C 0.7653(2) 0.53115(14) 0.1751(3)
C83 C 0.5687(2) 0.56934(12) 0.3910(2)
H49 H 0.5723 0.5933 0.4260
C84 C 0.6241(2) 0.56781(14) 0.3589(3)
H50 H 0.6636 0.5903 0.3718
C87 C 0.8906(2) 0.56944(13) 0.0681(2)
H53 H 0.9257 0.5933 0.0714
C88 C 0.8588(2) 0.56845(14) 0.1232(3)
H54 H 0.8713 0.5913 0.1620
C96 C 0.7719(4) 0.5608(3) 0.2266(4)
H60 H 0.8100 0.5838 0.2359
C98 C 0.7271(4) 0.5621(2) 0.2706(4)
H62 H 0.7352 0.5864 0.3061
C99 C 0.7089(8) 0.5029(4) 0.1647(9)
H63 H 0.6925 0.4835 0.1205
C100 C 0.6703(8) 0.4992(4) 0.2148(9)
H64 H 0.6405 0.4728 0.2123
O24 O 0.98494(10) 0.41704(6) 0.00451(12)
Zn3 Zn 0.920878(15) 0.545094(10) 0.921578(19)
N10 N 0.96893(14) 0.54888(8) 0.83368(17)
H43 H 0.8185 0.4809 0.9722
C92 C 0.9514(3) 0.51739(12) 0.7760(3)
H56 H 0.9158 0.4940 0.7735
C93 C 0.9824(3) 0.51745(14) 0.7207(3)
H57 H 0.9669 0.4953 0.6806
Zn5 Zn 0.920878(15) 0.954906(10) 0.921578(19)
O17 O 0.80604(11) 0.54339(6) 0.82890(13)
O19 O 0.93554(10) 0.47485(6) 0.91972(12)
O22 O 0.84697(11) 0.61338(7) 0.87301(14)
N10_2 N 0.03107(14) 0.04888(8) 0.16632(17)
C92_2 C 0.0486(3) 0.01739(12) 0.2240(3)
C93_2 C 0.0176(3) 0.01745(14) 0.2793(3)
H23_2 H 0.1805 0.0050 0.4680
H26_2 H 0.2730 0.0055 0.4146
H27_2 H 0.1080 0.0026 0.5350
H29_2 H 0.0385 0.0057 0.6112
N9_2 N 0.12504(13) 0.03856(8) 0.98978(17)
N12 N 0.48961(14) 0.03873(8) 0.62477(16)
C71_2 C 0.17130(19) 0.00382(11) 0.9894(2)
C72_2 C 0.48949(18) 0.00307(11) 0.6713(2)
C74_2 C 0.19299(19) 0.03248(12) 0.8798(2)
C75_2 C 0.3795(2) 0.03232(12) 0.6929(2)
C79_2 C 0.3254(2) 0.03139(14) 0.7349(3)
C82_2 C 0.2347(2) 0.03115(14) 0.8249(3)
C83_2 C 0.4313(2) 0.06934(12) 0.6090(2)
H49_2 H 0.4277 0.0933 0.5740
C84_2 C 0.3759(2) 0.06781(14) 0.6411(3)
H50_2 H 0.3364 0.0903 0.6282
C87_2 C 0.1094(2) 0.06944(13) 0.9319(2)
H53_2 H 0.0743 0.0933 0.9286
C88_2 C 0.1412(2) 0.06845(14) 0.8768(3)
H54_2 H 0.1287 0.0913 0.8380
C96_2 C 0.2281(4) 0.0608(3) 0.7734(4)
H60_2 H 0.1900 0.0838 0.7641
C98_2 C 0.2729(4) 0.0621(2) 0.7294(4)
H62_2 H 0.2648 0.0864 0.6939
C99_2 C 0.2911(8) 0.0029(4) 0.8353(9)
H43_2 H 0.1815 0.9809 0.0278
H56_2 H 0.0842 0.9940 0.2265
H57_2 H 0.0331 0.9953 0.3194
N3 N 0.33400(15) 0.95107(9) 0.46943(17)
C25_2 C 0.33474(19) 0.91792(12) 0.5194(2)
H13_2 H 0.3735 0.8950 0.5317
C26_2 C 0.0203(2) 0.91835(12) 0.8354(2)
H14_2 H 0.0339 0.8959 0.8750
C28_2 C 0.2240(2) 0.94842(13) 0.5386(3)
C29_2 C 0.0383(2) 0.94848(13) 0.7251(3)
C33_2 C 0.2817(2) 0.91553(14) 0.5539(3)
H17_2 H 0.2849 0.8912 0.5881
C34_2 C 0.0540(2) 0.91610(14) 0.7819(3)
H18_2 H 0.0883 0.8919 0.7848
C39_2 C 0.2203(3) 0.98253(13) 0.4830(3)
C40_2 C 0.0781(3) 0.94879(15) 0.6680(4)
C41_2 C 0.1693(3) 0.94853(14) 0.5783(4)
C44_2 C 0.2760(2) 0.98251(12) 0.4509(3)
C45_2 C 0.1169(3) 0.9793(3) 0.5726(3)
C47_2 C 0.0729(3) 0.9809(3) 0.6174(3)
C51_2 C 0.1764(10) 0.9176(3) 0.6293(11)
H33_2 H 0.2122 0.8935 0.6358
C52_2 C 0.1332(10) 0.9178(3) 0.6765(10)
H34_2 H 0.1439 0.8951 0.7154
H44_2 H 0.5276 0.9800 0.6809
C73_2 C 0.43616(19) 0.99871(11) 0.7055(2)
H45_2 H 0.4384 0.9732 0.7370
C76_2 C 0.20555(18) 0.99927(11) 0.9357(2)
H46_2 H 0.2369 0.9737 0.9378
H63_2 H 0.3075 0.9835 0.8795
C100_2 C 0.3297(8) 0.9992(4) 0.7852(9)
H64_2 H 0.3595 0.9728 0.7877
O8_2 O 0.98494(10) 0.08296(6) 0.00451(12)
H10_2 H 0.4724 0.0200 0.3191
C21_2 C 0.56384(19) 0.00129(11) 0.2945(2)
H11_2 H 0.5616 0.0268 0.2630
C24_2 C 0.79445(18) 0.00073(11) 0.0643(2)
H12_2 H 0.7631 0.0263 0.0622
H22_2 H 0.8120 0.2076 0.0165
H31_2 H 0.6925 0.0165 0.1205
C50_2 C 0.6703(8) 0.0008(4) 0.2148(9)
H32_2 H 0.6405 0.0272 0.2123
H42_2 H 0.8120 0.2924 0.0165
N11 N 0.66600(15) 0.04893(9) 0.53057(17)
C77_2 C 0.66526(19) 0.08208(12) 0.4806(2)
H47_2 H 0.6265 0.1050 0.4683
C78_2 C 0.9797(2) 0.08165(12) 0.1646(2)
H48_2 H 0.9661 0.1041 0.1250
C80_2 C 0.7760(2) 0.05158(13) 0.4614(3)
C81_2 C 0.9617(2) 0.05152(13) 0.2749(3)
C85_2 C 0.7183(2) 0.08447(14) 0.4461(3)
H51_2 H 0.7151 0.1088 0.4119
C86_2 C 0.9460(2) 0.08390(14) 0.2181(3)
H52_2 H 0.9117 0.1081 0.2152
C89_2 C 0.7797(3) 0.01747(13) 0.5170(3)
C90_2 C 0.9219(3) 0.05121(15) 0.3320(4)
C91_2 C 0.8307(3) 0.05147(14) 0.4217(4)
C94_2 C 0.7240(2) 0.01749(12) 0.5491(3)
C95_2 C 0.8831(3) 0.0207(3) 0.4274(3)
C97_2 C 0.9271(3) 0.0191(3) 0.3826(3)
C101_2 C 0.8236(10) 0.0824(3) 0.3707(11)
H65_2 H 0.7878 0.1065 0.3642
C102_2 C 0.8668(10) 0.0822(3) 0.3235(10)
H66_2 H 0.8561 0.1049 0.2846
O2_2 O 0.67119(11) 0.04334(6) 0.69386(13)
O3_2 O 0.93554(10) 0.02515(6) 0.91972(12)
O7_2 O 0.62678(11) 0.11334(7) 0.65317(13)
C2_2 C 0.93282(14) 0.06444(9) 0.94319(17)
C3_2 C 0.85779(16) 0.13899(9) 0.91906(18)
H2_2 H 0.8973 0.1504 0.9662
C5_2 C 0.73401(16) 0.15068(9) 0.80225(18)
H4_2 H 0.6920 0.1699 0.7714
C7_2 C 0.67398(14) 0.08633(9) 0.70333(18)
C10_2 C 0.79403(16) 0.16630(8) 0.87137(18)
C13_2 C 0.86075(14) 0.09405(9) 0.89427(17)
C15_2 C 0.7827(2) 0.2500 0.8516(3)
H6_2 H 0.7723 0.2500 0.7976
C16_2 C 0.73770(15) 0.10510(8) 0.77943(17)
C17_2 C 0.80047(15) 0.07674(9) 0.82563(18)
H7_2 H 0.8021 0.0462 0.8106
N6_2 N 0.79153(15) 0.21306(7) 0.89738(16)
H9_2 H 0.8185 0.0191 0.9722
C38_2 C 0.8046(2) 0.22673(10) 0.9735(2)
H24_2 H 0.9158 0.0060 0.7735
H25_2 H 0.9669 0.0047 0.6806
C62_2 C 0.93282(14) 0.43556(9) 0.94319(17)
C63_2 C 0.85779(16) 0.36101(9) 0.91906(18)
H39_2 H 0.8973 0.3496 0.9662
C64_2 C 0.73401(16) 0.34932(9) 0.80225(18)
H40_2 H 0.6920 0.3301 0.7714
C65_2 C 0.67398(14) 0.41367(9) 0.70333(18)
C66_2 C 0.79403(16) 0.33370(8) 0.87137(18)
C67_2 C 0.86075(14) 0.40595(9) 0.89427(17)
C68_2 C 0.73770(15) 0.39490(8) 0.77943(17)
C69_2 C 0.80047(15) 0.42326(9) 0.82563(18)
H41_2 H 0.8021 0.4538 0.8106
N8_2 N 0.79153(15) 0.28694(7) 0.89738(16)
C70_2 C 0.8046(2) 0.27327(10) 0.9735(2)
N1_2 N 0.87496(13) 0.96144(8) 0.01022(17)
N4 N 0.51039(14) 0.96127(8) 0.37523(16)
C19_2 C 0.82870(19) 0.99618(11) 0.0106(2)
C20_2 C 0.51051(18) 0.99693(11) 0.3287(2)
C22_2 C 0.80701(19) 0.96752(12) 0.1202(2)
C23_2 C 0.6205(2) 0.96768(12) 0.3071(2)
C27_2 C 0.6746(2) 0.96861(14) 0.2651(3)
C30_2 C 0.7653(2) 0.96885(14) 0.1751(3)
C31_2 C 0.5687(2) 0.93066(12) 0.3910(2)
H15_2 H 0.5723 0.9067 0.4260
C32_2 C 0.6241(2) 0.93219(14) 0.3589(3)
H16_2 H 0.6636 0.9097 0.3718
C36_2 C 0.8906(2) 0.93056(13) 0.0681(2)
H20_2 H 0.9257 0.9067 0.0714
C37_2 C 0.8588(2) 0.93155(14) 0.1232(3)
H21_2 H 0.8713 0.9087 0.1620
C46_2 C 0.7719(4) 0.9392(3) 0.2266(4)
H28_2 H 0.8100 0.9162 0.2359
C48_2 C 0.7271(4) 0.9379(2) 0.2706(4)
H30_2 H 0.7352 0.9136 0.3061
C49_2 C 0.7089(8) 0.9971(4) 0.1647(9)
H55_2 H 0.8195 0.9950 0.5320
H58_2 H 0.7270 0.9945 0.5854
H59_2 H 0.8920 0.9974 0.4650
H61_2 H 0.9615 0.9943 0.3888
O1_2 O 0.80604(11) 0.95661(6) 0.82890(13)
O4_2 O 0.58052(10) 0.97512(6) 0.56426(12)
O5_2 O 0.49506(10) 0.91703(6) 0.51491(12)
O6_2 O 0.84697(11) 0.88662(7) 0.87301(14)
N2_2 N 0.96893(14) 0.95112(8) 0.83368(17)
C1_2 C 0.58090(15) 0.86109(9) 0.64217(18)
H1_2 H 0.5340 0.8496 0.6025
C4_2 C 0.69812(15) 0.84945(8) 0.76596(18)
H3_2 H 0.7292 0.8301 0.8077
C6_2 C 0.55662(14) 0.93544(9) 0.56702(17)
C8_2 C 0.60479(14) 0.90591(9) 0.63909(17)
C9_2 C 0.79612(15) 0.91375(9) 0.82589(18)
C11_2 C 0.72051(14) 0.89467(9) 0.76273(18)
C12_2 C 0.62827(16) 0.83384(8) 0.70546(19)
C14_2 C 0.6480(2) 0.7500 0.7166(3)
H5_2 H 0.7021 0.7500 0.7274
N5_2 N 0.60272(13) 0.78693(7) 0.70760(16)
C18_2 C 0.67376(15) 0.92323(9) 0.69953(18)
H8_2 H 0.6888 0.9538 0.6979
C35_2 C 0.52598(17) 0.77333(10) 0.6940(3)
H19_2 H 0.4829 0.7925 0.6864
C42_2 C 0.9514(3) 0.98261(12) 0.7760(3)
C43_2 C 0.9824(3) 0.98255(14) 0.7207(3)
C53_2 C 0.58090(15) 0.63891(9) 0.64217(18)
H35_2 H 0.5340 0.6504 0.6025
C54_2 C 0.69812(15) 0.65055(8) 0.76596(18)
H36_2 H 0.7292 0.6699 0.8077
C55_2 C 0.55662(14) 0.56456(9) 0.56702(17)
C56_2 C 0.60479(14) 0.59409(9) 0.63909(17)
C57_2 C 0.79612(15) 0.58625(9) 0.82589(18)
C58_2 C 0.72051(14) 0.60533(9) 0.76273(18)
C59_2 C 0.62827(16) 0.66616(8) 0.70546(19)
N7_2 N 0.60272(13) 0.71307(7) 0.70760(16)
C60_2 C 0.67376(15) 0.57677(9) 0.69953(18)
H37_2 H 0.6888 0.5462 0.6979
C61_2 C 0.52598(17) 0.72667(10) 0.6940(3)
H38_2 H 0.4829 0.7075 0.6864
loop_
_geom_bond_atom_site_label_1
_geom_bond_atom_site_label_2
_geom_bond_site_symmetry_1
_geom_bond_site_symmetry_2
Zn1 O1 1_555 1_555
Zn2 O2 1_555 1_555
O1 C9 1_555 1_555
O2 C7 1_555 1_555
O3 Zn1 1_555 1_555
O4 Zn2 1_555 1_555
O5 C6 1_555 1_555
O6 Zn1 1_555 1_555
O7 Zn2 1_555 1_555
N2 Zn1 1_555 1_555
C1 H1 1_555 1_555
C2 O3 1_555 1_555
C3 H2 1_555 1_555
C4 H3 1_555 1_555
C5 H4 1_555 1_555
C6 O4 1_555 1_555
C7 O7 1_555 1_555
C8 C1 1_555 1_555
C9 O6 1_555 1_555
C10 C3 1_555 1_555
C11 C4 1_555 1_555
C12 C1 1_555 1_555
C13 C2 1_555 1_555
C14 H5 1_555 1_555
C15 H6 1_555 1_555
C16 C5 1_555 1_555
C17 C13 1_555 1_555
H7 C17 1_555 1_555
N5 C12 1_555 1_555
C18 C8 1_555 1_555
H8 C18 1_555 1_555
N6 C10 1_555 1_555
C35 N5 1_555 1_555
H19 C35 1_555 1_555
C38 N6 1_555 1_555
C42 N2 1_555 1_555
H24 C42 1_555 1_555
H25 C43 1_555 1_555
O9 C57 1_555 1_555
O10 C55 1_555 1_555
O11 C55 1_555 1_555
O12 C57 1_555 1_555
C53 H35 1_555 1_555
C54 H36 1_555 1_555
C55 C56 1_555 1_555
C56 C53 1_555 1_555
C57 C58 1_555 1_555
C58 C54 1_555 1_555
C59 C53 1_555 1_555
N7 C14 1_555 1_555
C60 C56 1_555 1_555
H37 C60 1_555 1_555
C61 C35 1_555 1_555
H38 C61 1_555 1_555
O13 C65 1_555 1_555
O14 C62 1_555 1_555
O15 C65 1_555 1_555
C62 C67 1_555 1_555
C63 H39 1_555 1_555
C64 H40 1_555 1_555
C65 C68 1_555 1_555
C66 C63 1_555 1_555
C67 C63 1_555 1_555
C68 C64 1_555 1_555
C69 C67 1_555 1_555
H41 C69 1_555 1_555
N8 C15 1_555 1_555
C70 C38 1_555 1_555
Zn4 O5 1_555 1_555
Zn7 O9 1_555 1_555
Zn10 O11 1_555 1_555
Zn14 O13 1_555 1_555
O18 Zn4 1_555 1_555
O20 Zn4 1_555 1_555
O21 Zn2 1_555 1_555
O23 Zn4 1_555 1_555
N13 Zn4 1_555 1_555
N14 Zn2 1_555 1_555
N15 Zn4 1_555 1_555
N16 Zn2 1_555 1_555
C3 C13 1_555 1_555
C4 C12 1_555 1_555
C5 C10 1_555 1_555
C6 C8 1_555 1_555
C7 C16 1_555 1_555
C9 C11 1_555 1_555
C11 C18 1_555 1_555
C14 N5 1_555 1_555
C15 N6 1_555 1_555
C16 C17 1_555 1_555
C42 C43 1_555 1_555
O12 Zn7 1_555 1_555
C54 C59 1_555 1_555
C58 C60 1_555 1_555
C59 N7 1_555 1_555
N7 C61 1_555 1_555
O15 Zn14 1_555 1_555
C64 C66 1_555 1_555
C66 N8 1_555 1_555
C68 C69 1_555 1_555
N8 C70 1_555 1_555
N15 C20 1_555 1_555
C19 N1 1_555 1_555
C20 H10 1_555 1_555
C21 C20 1_555 1_555
H11 C21 1_555 1_555
C22 C24 1_555 1_555
C23 C21 1_555 1_555
C24 C19 1_555 1_555
H12 C24 1_555 1_555
C27 C23 1_555 1_555
C30 C22 1_555 1_555
C31 N15 1_555 1_555
H15 C31 1_555 1_555
C32 C23 1_555 1_555
H16 C32 1_555 1_555
C36 N1 1_555 1_555
H20 C36 1_555 1_555
C37 C22 1_555 1_555
H21 C37 1_555 1_555
C46 C30 1_555 1_555
H28 C46 1_555 1_555
C48 C27 1_555 1_555
H30 C48 1_555 1_555
C49 C30 1_555 1_555
H31 C49 1_555 1_555
C50 C27 1_555 1_555
H32 C50 1_555 1_555
N14 C77 1_555 1_555
C77 H47 1_555 1_555
H48 C78 1_555 1_555
C80 C85 1_555 1_555
C81 C86 1_555 1_555
C85 C77 1_555 1_555
H51 C85 1_555 1_555
C86 C78 1_555 1_555
H52 C86 1_555 1_555
C89 C80 1_555 1_555
H55 C89 1_555 1_555
C90 C81 1_555 1_555
C91 C80 1_555 1_555
C94 N14 1_555 1_555
H58 C94 1_555 1_555
C95 C91 1_555 1_555
H59 C95 1_555 1_555
C97 C90 1_555 1_555
H61 C97 1_555 1_555
C101 C91 1_555 1_555
H65 C101 1_555 1_555
C102 C90 1_555 1_555
H66 C102 1_555 1_555
C31 C32 1_555 1_555
C36 C37 1_555 1_555
C46 C48 1_555 1_555
C49 C50 1_555 1_555
C89 C94 1_555 1_555
C95 C97 1_555 1_555
C101 C102 1_555 1_555
N13 C25 1_555 1_555
C25 H13 1_555 1_555
H14 C26 1_555 1_555
C28 C33 1_555 1_555
C29 C34 1_555 1_555
C33 C25 1_555 1_555
H17 C33 1_555 1_555
C34 C26 1_555 1_555
H18 C34 1_555 1_555
C39 C28 1_555 1_555
H23 C39 1_555 1_555
C40 C29 1_555 1_555
C41 C28 1_555 1_555
C44 N13 1_555 1_555
H26 C44 1_555 1_555
C45 C41 1_555 1_555
H27 C45 1_555 1_555
C47 C40 1_555 1_555
H29 C47 1_555 1_555
C51 C41 1_555 1_555
H33 C51 1_555 1_555
C52 C40 1_555 1_555
H34 C52 1_555 1_555
N16 C72 1_555 1_555
C71 N9 1_555 1_555
C72 H44 1_555 1_555
C73 C72 1_555 1_555
H45 C73 1_555 1_555
C74 C76 1_555 1_555
C75 C73 1_555 1_555
C76 C71 1_555 1_555
H46 C76 1_555 1_555
C79 C75 1_555 1_555
C82 C74 1_555 1_555
C83 N16 1_555 1_555
H49 C83 1_555 1_555
C84 C75 1_555 1_555
H50 C84 1_555 1_555
C87 N9 1_555 1_555
H53 C87 1_555 1_555
C88 C74 1_555 1_555
H54 C88 1_555 1_555
C96 C82 1_555 1_555
H60 C96 1_555 1_555
C98 C79 1_555 1_555
H62 C98 1_555 1_555
C99 C82 1_555 1_555
H63 C99 1_555 1_555
C100 C79 1_555 1_555
H64 C100 1_555 1_555
C39 C44 1_555 1_555
C45 C47 1_555 1_555
C51 C52 1_555 1_555
C83 C84 1_555 1_555
C87 C88 1_555 1_555
C96 C98 1_555 1_555
C99 C100 1_555 1_555
N10 Zn3 1_555 1_555
C92 N10 1_555 1_555
H56 C92 1_555 1_555
H57 C93 1_555 1_555
O17 Zn3 1_555 1_555
O19 Zn3 1_555 1_555
O22 Zn3 1_555 1_555
C92 C93 1_555 1_555
N10_2 Zn7 1_555 1_555
C92_2 N10_2 1_555 1_555
C92_2 C93_2 1_555 1_555
N12 C72_2 1_555 1_555
C71_2 N9_2 1_555 1_555
C79_2 C75_2 1_555 1_555
C82_2 C74_2 1_555 1_555
C83_2 N12 1_555 1_555
H49_2 C83_2 1_555 1_555
C84_2 C75_2 1_555 1_555
H50_2 C84_2 1_555 1_555
C87_2 N9_2 1_555 1_555
H53_2 C87_2 1_555 1_555
C88_2 C74_2 1_555 1_555
H54_2 C88_2 1_555 1_555
C96_2 C82_2 1_555 1_555
H60_2 C96_2 1_555 1_555
C98_2 C79_2 1_555 1_555
H62_2 C98_2 1_555 1_555
C99_2 C82_2 1_555 1_555
Zn10 N12 1_555 1_555
C83_2 C84_2 1_555 1_555
C87_2 C88_2 1_555 1_555
C96_2 C98_2 1_555 1_555
N3 C25_2 1_555 1_555
C25_2 H13_2 1_555 1_555
H14_2 C26_2 1_555 1_555
C28_2 C33_2 1_555 1_555
C29_2 C34_2 1_555 1_555
C33_2 C25_2 1_555 1_555
H17_2 C33_2 1_555 1_555
C34_2 C26_2 1_555 1_555
H18_2 C34_2 1_555 1_555
C39_2 C28_2 1_555 1_555
C40_2 C29_2 1_555 1_555
C41_2 C28_2 1_555 1_555
C44_2 N3 1_555 1_555
C45_2 C41_2 1_555 1_555
C47_2 C40_2 1_555 1_555
C51_2 C41_2 1_555 1_555
H33_2 C51_2 1_555 1_555
C52_2 C40_2 1_555 1_555
H34_2 C52_2 1_555 1_555
H45_2 C73_2 1_555 1_555
H46_2 C76_2 1_555 1_555
H64_2 C100_2 1_555 1_555
Zn14 N3 1_555 1_555
C39_2 C44_2 1_555 1_555
C45_2 C47_2 1_555 1_555
C51_2 C52_2 1_555 1_555
H11_2 C21_2 1_555 1_555
H12_2 C24_2 1_555 1_555
H32_2 C50_2 1_555 1_555
N11 C77_2 1_555 1_555
C77_2 H47_2 1_555 1_555
H48_2 C78_2 1_555 1_555
C80_2 C85_2 1_555 1_555
C81_2 C86_2 1_555 1_555
C85_2 C77_2 1_555 1_555
H51_2 C85_2 1_555 1_555
C86_2 C78_2 1_555 1_555
H52_2 C86_2 1_555 1_555
C89_2 C80_2 1_555 1_555
C90_2 C81_2 1_555 1_555
C91_2 C80_2 1_555 1_555
C94_2 N11 1_555 1_555
C95_2 C91_2 1_555 1_555
C97_2 C90_2 1_555 1_555
C101_2 C91_2 1_555 1_555
H65_2 C101_2 1_555 1_555
C102_2 C90_2 1_555 1_555
H66_2 C102_2 1_555 1_555
Zn10 N11 1_555 1_555
C89_2 C94_2 1_555 1_555
C95_2 C97_2 1_555 1_555
C101_2 C102_2 1_555 1_555
Zn10 O2_2 1_555 1_555
O2_2 C7_2 1_555 1_555
O7_2 Zn10 1_555 1_555
C2_2 O3_2 1_555 1_555
C3_2 H2_2 1_555 1_555
C5_2 H4_2 1_555 1_555
C7_2 O7_2 1_555 1_555
C10_2 C3_2 1_555 1_555
C13_2 C2_2 1_555 1_555
C15_2 H6_2 1_555 1_555
C16_2 C5_2 1_555 1_555
C17_2 C13_2 1_555 1_555
H7_2 C17_2 1_555 1_555
N6_2 C10_2 1_555 1_555
C38_2 N6_2 1_555 1_555
O18 C65_2 1_555 1_555
O19 C62_2 1_555 1_555
O23 C65_2 1_555 1_555
C62_2 C67_2 1_555 1_555
C63_2 H39_2 1_555 1_555
C64_2 H40_2 1_555 1_555
C65_2 C68_2 1_555 1_555
C66_2 C63_2 1_555 1_555
C67_2 C63_2 1_555 1_555
C68_2 C64_2 1_555 1_555
C69_2 C67_2 1_555 1_555
H41_2 C69_2 1_555 1_555
N8_2 C15_2 1_555 1_555
C70_2 C38_2 1_555 1_555
C3_2 C13_2 1_555 1_555
C5_2 C10_2 1_555 1_555
C7_2 C16_2 1_555 1_555
C15_2 N6_2 1_555 1_555
C16_2 C17_2 1_555 1_555
C64_2 C66_2 1_555 1_555
C66_2 N8_2 1_555 1_555
C68_2 C69_2 1_555 1_555
N8_2 C70_2 1_555 1_555
N4 C20_2 1_555 1_555
C19_2 N1_2 1_555 1_555
C27_2 C23_2 1_555 1_555
C30_2 C22_2 1_555 1_555
C31_2 N4 1_555 1_555
H15_2 C31_2 1_555 1_555
C32_2 C23_2 1_555 1_555
H16_2 C32_2 1_555 1_555
C36_2 N1_2 1_555 1_555
H20_2 C36_2 1_555 1_555
C37_2 C22_2 1_555 1_555
H21_2 C37_2 1_555 1_555
C46_2 C30_2 1_555 1_555
H28_2 C46_2 1_555 1_555
C48_2 C27_2 1_555 1_555
H30_2 C48_2 1_555 1_555
C49_2 C30_2 1_555 1_555
Zn14 N4 1_555 1_555
C31_2 C32_2 1_555 1_555
C36_2 C37_2 1_555 1_555
C46_2 C48_2 1_555 1_555
Zn5 O1_2 1_555 1_555
O1_2 C9_2 1_555 1_555
O5_2 C6_2 1_555 1_555
O6_2 Zn5 1_555 1_555
N2_2 Zn5 1_555 1_555
C1_2 H1_2 1_555 1_555
C4_2 H3_2 1_555 1_555
C6_2 O4_2 1_555 1_555
C8_2 C1_2 1_555 1_555
C9_2 O6_2 1_555 1_555
C11_2 C4_2 1_555 1_555
C12_2 C1_2 1_555 1_555
C14_2 H5_2 1_555 1_555
N5_2 C12_2 1_555 1_555
C18_2 C8_2 1_555 1_555
H8_2 C18_2 1_555 1_555
C35_2 N5_2 1_555 1_555
H19_2 C35_2 1_555 1_555
C42_2 N2_2 1_555 1_555
O17 C57_2 1_555 1_555
O20 C55_2 1_555 1_555
O21 C55_2 1_555 1_555
O22 C57_2 1_555 1_555
C53_2 H35_2 1_555 1_555
C54_2 H36_2 1_555 1_555
C55_2 C56_2 1_555 1_555
C56_2 C53_2 1_555 1_555
C57_2 C58_2 1_555 1_555
C58_2 C54_2 1_555 1_555
C59_2 C53_2 1_555 1_555
N7_2 C14_2 1_555 1_555
C60_2 C56_2 1_555 1_555
H37_2 C60_2 1_555 1_555
C61_2 C35_2 1_555 1_555
H38_2 C61_2 1_555 1_555
Zn14 O5_2 1_555 1_555
C4_2 C12_2 1_555 1_555
C6_2 C8_2 1_555 1_555
C9_2 C11_2 1_555 1_555
C11_2 C18_2 1_555 1_555
C14_2 N5_2 1_555 1_555
C42_2 C43_2 1_555 1_555
C54_2 C59_2 1_555 1_555
C58_2 C60_2 1_555 1_555
C59_2 N7_2 1_555 1_555
N7_2 C61_2 1_555 1_555

#END
