
###############################################################################
#
# This file contains modified crystal structure data generated from the
# MOF subset of the Cambridge Structural Database (CSD) v543 
# hosted by the Cambridge Crystallographic Data Centre (CCDC).
#
# This work is licensed under the Creative Commons
# Attribution-NonCommercial-ShareAlike 4.0 International License.
# To view a copy of this license, visit
# http://creativecommons.org/licenses/by-nc-sa/4.0/
# or send a letter to
# Creative Commons, PO Box 1866, Mountain View, CA 94042, USA.
#
# CIF created using the CSD Python API on 29 September 2022
# The structure has been converted into the P1 space group
# The structure has a 3D framework
# The original CSD entry QOMSES is in the monoclinic crystal system
# The framework has been calculated to contain at least 10.0% void space
# The void calculation uses a probe of radius 1.32A, grid spacing 0.4
#
###############################################################################

data_QOMSES
_chemical_formula_moiety         '(C60 H60 Cu13 N56 O4)n'
_symmetry_cell_setting           triclinic
_symmetry_space_group_name_H-M   'P 1'
_symmetry_Int_Tables_number      1
_space_group_name_Hall           'P 1'
loop_
_symmetry_equiv_pos_site_id
_symmetry_equiv_pos_as_xyz
1 x,y,z
_cell_length_a                   13.0900(9)
_cell_length_b                   14.7440(8)
_cell_length_c                   15.5750(10)
_cell_angle_alpha                90
_cell_angle_beta                 91.641(7)
_cell_angle_gamma                90
_cell_volume                     3004.73
loop_
_atom_site_label
_atom_site_type_symbol
_atom_site_fract_x
_atom_site_fract_y
_atom_site_fract_z
Cu1 Cu 0.0000 0.0000 0.0000
N11 N 0.0837(4) 0.1240(3) 0.0526(3)
N12 N 0.1696(6) 0.1384(5) 0.0561(5)
N13 N 0.2557(7) 0.1533(12) 0.0593(13)
O1 O 0.0339(5) 0.3387(4) 0.0038(4)
N30 N 0.0773(4) 0.2428(3) 0.1954(3)
Cu1_2 Cu -0.0000 0.0000 1.0000
C7 C 0.3411(6) 0.2361(4) 0.7318(4)
H5 H 0.3671 0.2883 0.7579
C8 C 0.2759(6) 0.1840(4) 0.7770(4)
H6 H 0.2588 0.2007 0.8323
C9 C 0.2352(5) 0.1062(4) 0.7405(4)
C10 C 0.2652(5) 0.0849(4) 0.6578(4)
H7 H 0.2402 0.0331 0.6304
C11 C 0.3326(5) 0.1417(5) 0.6170(4)
H8 H 0.3526 0.1263 0.5621
C12 C 0.1666(4) 0.0472(4) 0.7875(4)
C13 C 0.0421(8) 0.3126(7) 0.9304(7)
H9 H 0.0726 0.2562 0.9229
H11 H 0.0056 0.4816 0.8911
C15 C 0.0112(15) 0.3061(13) 0.7766(8)
H15 H 0.0790 0.2856 0.7648
N6 N 0.3701(4) 0.2172(3) 0.6527(3)
N7 N 0.1244(4) 0.0760(3) 0.8609(3)
N8 N 0.0715(4) 0.0053(3) 0.8862(3)
N14 N 0.0125(7) 0.3555(5) 0.8615(5)
Cu7 Cu 0.47853(5) 0.29555(5) 0.60106(4)
Cu1_3 Cu 0.0000 1.0000 0.0000
C16 C 0.3909(6) 0.6888(5) 0.2446(4)
H16 H 0.4161 0.6299 0.2456
C17 C 0.3230(6) 0.7110(5) 0.1793(5)
H17 H 0.3048 0.6689 0.1371
C18 C 0.2824(5) 0.7967(4) 0.1775(4)
C19 C 0.3144(6) 0.8556(4) 0.2434(4)
H18 H 0.2901 0.9148 0.2444
C20 C 0.3807(6) 0.8264(5) 0.3056(4)
H19 H 0.3980 0.8654 0.3507
C21 C 0.2081(4) 0.8265(4) 0.1120(4)
C29 C 0.0371(13) 0.5625(9) 0.1376(10)
H25 H 0.0516 0.5432 0.1956
H27 H 0.0999 0.5687 0.1078
H28 H 0.0121 0.6535 0.2681
H29 H 0.0339 0.7450 0.2207
N15 N 0.4227(4) 0.7428(3) 0.3046(3)
N16 N 0.1619(4) 0.9067(3) 0.1125(3)
N17 N 0.1013(3) 0.9055(3) 0.0421(3)
N18 N 0.1120(3) 0.8283(3) 0.0019(3)
N19 N 0.1795(4) 0.7768(3) 0.0436(3)
Cu5 Cu 0.52147(5) 0.70445(5) 0.39894(4)
Cu1_4 Cu -0.0000 1.0000 1.0000
N9 N 0.0821(4) 0.9366(3) 0.8330(3)
N10 N 0.1418(4) 0.9628(3) 0.7689(3)
Cu3 Cu 0.02147(5) 0.79555(5) 0.89894(4)
N31 N 0.1299(4) 0.7172(3) 0.8473(3)
Cu1_5 Cu 1.0000 0.0000 0.0000
Cu2 Cu 0.97853(5) 0.20445(5) 0.10106(4)
N23 N 0.9179(4) 0.0634(3) 0.1670(3)
N24 N 0.8582(4) 0.0372(3) 0.2311(3)
N32 N 0.8701(4) 0.2828(3) 0.1527(3)
Cu1_6 Cu 1.0000 0.0000 1.0000
C1 C 0.6091(6) 0.3112(5) 0.7554(4)
H1 H 0.5839 0.3701 0.7544
C2 C 0.6770(6) 0.2890(5) 0.8207(5)
H2 H 0.6952 0.3311 0.8629
C3 C 0.7176(5) 0.2033(4) 0.8225(4)
C4 C 0.6856(6) 0.1444(4) 0.7566(4)
H3 H 0.7099 0.0852 0.7556
C5 C 0.6193(6) 0.1736(5) 0.6944(4)
H4 H 0.6020 0.1346 0.6493
C6 C 0.7919(4) 0.1735(4) 0.8880(4)
C14 C 0.9629(13) 0.4375(9) 0.8624(10)
H10 H 0.9484 0.4568 0.8044
H12 H 0.9001 0.4313 0.8922
H13 H 0.9879 0.3465 0.7319
H14 H 0.9661 0.2550 0.7793
N1 N 0.5773(4) 0.2572(3) 0.6954(3)
N2 N 0.8381(4) 0.0933(3) 0.8875(3)
N3 N 0.8987(3) 0.0945(3) 0.9579(3)
N4 N 0.8880(3) 0.1717(3) 0.9981(3)
N5 N 0.8205(4) 0.2232(3) 0.9564(3)
Cu1_7 Cu 1.0000 1.0000 0.0000
C22 C 0.6589(6) 0.7639(4) 0.2682(4)
H20 H 0.6329 0.7117 0.2421
C23 C 0.7241(6) 0.8160(4) 0.2230(4)
H21 H 0.7412 0.7993 0.1677
C24 C 0.7648(5) 0.8938(4) 0.2595(4)
C25 C 0.7348(5) 0.9151(4) 0.3422(4)
H22 H 0.7598 0.9669 0.3696
C26 C 0.6674(5) 0.8583(5) 0.3830(4)
H23 H 0.6474 0.8737 0.4379
C27 C 0.8334(4) 0.9528(4) 0.2125(4)
C28 C 0.9579(8) 0.6874(7) 0.0696(7)
H24 H 0.9274 0.7438 0.0771
H26 H 0.9944 0.5184 0.1089
C30 C 0.9888(15) 0.6939(13) 0.2234(8)
H30 H 0.9210 0.7144 0.2352
N20 N 0.6299(4) 0.7828(3) 0.3473(3)
N21 N 0.8756(4) 0.9240(3) 0.1391(3)
N22 N 0.9285(4) 0.9947(3) 0.1138(3)
N28 N 0.9875(7) 0.6445(5) 0.1385(5)
Cu1_8 Cu 1.0000 1.0000 1.0000
N25 N 0.9163(4) 0.8760(3) 0.9474(3)
N26 N 0.8304(6) 0.8616(5) 0.9439(5)
N27 N 0.7443(7) 0.8467(12) 0.9407(13)
O2 O 0.9661(5) 0.6613(4) 0.9962(4)
N29 N 0.9227(4) 0.7572(3) 0.8046(3)
Cu1_9 Cu 0.5000 0.5000 0.5000
C1_2 C 0.8909(6) 0.8112(5) 0.7446(4)
H1_2 H 0.9161 0.8701 0.7456
C2_2 C 0.8230(6) 0.7890(5) 0.6793(5)
H2_2 H 0.8048 0.8311 0.6371
C3_2 C 0.7824(5) 0.7033(4) 0.6775(4)
C4_2 C 0.8144(6) 0.6444(4) 0.7434(4)
H3_2 H 0.7901 0.5852 0.7444
C5_2 C 0.8807(6) 0.6736(5) 0.8056(4)
H4_2 H 0.8980 0.6346 0.8507
C6_2 C 0.7081(4) 0.6735(4) 0.6120(4)
C7_2 C 0.1589(6) 0.7361(4) 0.7682(4)
H5_2 H 0.1329 0.7883 0.7421
C8_2 C 0.2241(6) 0.6840(4) 0.7230(4)
H6_2 H 0.2412 0.7007 0.6677
C9_2 C 0.2648(5) 0.6062(4) 0.7595(4)
C10_2 C 0.2348(5) 0.5849(4) 0.8422(4)
H7_2 H 0.2598 0.5331 0.8696
C11_2 C 0.1674(5) 0.6417(5) 0.8830(4)
H8_2 H 0.1474 0.6263 0.9379
C12_2 C 0.3334(4) 0.5472(4) 0.7125(4)
C13_2 C 0.4579(8) 0.8126(7) 0.5696(7)
H9_2 H 0.4274 0.7562 0.5771
C14_2 C 0.5371(13) 0.9375(9) 0.6376(10)
H10_2 H 0.5516 0.9568 0.6956
H11_2 H 0.4944 0.9816 0.6089
H12_2 H 0.5999 0.9313 0.6078
C15_2 C 0.4888(15) 0.8061(13) 0.7234(8)
H13_2 H 0.5121 0.8465 0.7681
H14_2 H 0.5339 0.7550 0.7207
H15_2 H 0.4210 0.7856 0.7352
N2_2 N 0.6619(4) 0.5933(3) 0.6125(3)
N3_2 N 0.6013(3) 0.5945(3) 0.5421(3)
N4_2 N 0.6120(3) 0.6717(3) 0.5019(3)
N5_2 N 0.6795(4) 0.7232(3) 0.5436(3)
N7_2 N 0.3756(4) 0.5760(3) 0.6391(3)
N8_2 N 0.4285(4) 0.5053(3) 0.6138(3)
N9_2 N 0.4179(4) 0.4366(3) 0.6670(3)
N10_2 N 0.3582(4) 0.4628(3) 0.7311(3)
N11_2 N 0.4163(4) 0.6240(3) 0.4474(3)
N12_2 N 0.3304(6) 0.6384(5) 0.4439(5)
N13_2 N 0.2443(7) 0.6533(12) 0.4407(13)
N14_2 N 0.4875(7) 0.8555(5) 0.6385(5)
O1_2 O 0.4661(5) 0.8387(4) 0.4962(4)
C16_2 C 0.1091(6) 0.1888(5) 0.2554(4)
H16_2 H 0.0839 0.1299 0.2544
C17_2 C 0.1770(6) 0.2110(5) 0.3207(5)
H17_2 H 0.1952 0.1689 0.3629
C18_2 C 0.2176(5) 0.2967(4) 0.3225(4)
C19_2 C 0.1856(6) 0.3556(4) 0.2566(4)
H18_2 H 0.2099 0.4148 0.2556
C20_2 C 0.1193(6) 0.3264(5) 0.1944(4)
H19_2 H 0.1020 0.3654 0.1493
C21_2 C 0.2919(4) 0.3265(4) 0.3880(4)
C22_2 C 0.8411(6) 0.2639(4) 0.2318(4)
H20_2 H 0.8671 0.2117 0.2579
C23_2 C 0.7759(6) 0.3160(4) 0.2770(4)
H21_2 H 0.7588 0.2993 0.3323
C24_2 C 0.7352(5) 0.3938(4) 0.2405(4)
C25_2 C 0.7652(5) 0.4151(4) 0.1578(4)
H22_2 H 0.7402 0.4669 0.1304
C26_2 C 0.8326(5) 0.3583(5) 0.1170(4)
H23_2 H 0.8526 0.3737 0.0621
C27_2 C 0.6666(4) 0.4528(4) 0.2875(4)
C28_2 C 0.5421(8) 0.1874(7) 0.4304(7)
H24_2 H 0.5726 0.2438 0.4229
C29_2 C 0.4629(13) 0.0625(9) 0.3624(10)
H25_2 H 0.4484 0.0432 0.3044
H26_2 H 0.5056 0.0184 0.3911
H27_2 H 0.4001 0.0687 0.3922
C30_2 C 0.5112(15) 0.1939(13) 0.2766(8)
H28_2 H 0.4879 0.1535 0.2319
H29_2 H 0.4661 0.2450 0.2793
H30_2 H 0.5790 0.2144 0.2648
N16_2 N 0.3381(4) 0.4067(3) 0.3875(3)
N17_2 N 0.3987(3) 0.4055(3) 0.4579(3)
N18_2 N 0.3880(3) 0.3283(3) 0.4981(3)
N19_2 N 0.3205(4) 0.2768(3) 0.4564(3)
N21_2 N 0.6244(4) 0.4240(3) 0.3609(3)
N22_2 N 0.5715(4) 0.4947(3) 0.3862(3)
N23_2 N 0.5821(4) 0.5634(3) 0.3330(3)
N24_2 N 0.6418(4) 0.5372(3) 0.2689(3)
N25_2 N 0.5837(4) 0.3760(3) 0.5526(3)
N26_2 N 0.6696(6) 0.3616(5) 0.5561(5)
N27_2 N 0.7557(7) 0.3467(12) 0.5593(13)
N28_2 N 0.5125(7) 0.1445(5) 0.3615(5)
O2_2 O 0.5339(5) 0.1613(4) 0.5038(4)
loop_
_geom_bond_atom_site_label_1
_geom_bond_atom_site_label_2
_geom_bond_site_symmetry_1
_geom_bond_site_symmetry_2
N11 Cu1 1_555 1_555
N12 N11 1_555 1_555
N13 N12 1_555 1_555
C7 H5 1_555 1_555
C8 C7 1_555 1_555
H6 C8 1_555 1_555
C9 C8 1_555 1_555
C10 C9 1_555 1_555
H7 C10 1_555 1_555
C11 C10 1_555 1_555
H8 C11 1_555 1_555
C12 C9 1_555 1_555
C13 H9 1_555 1_555
H15 C15 1_555 1_555
N6 C7 1_555 1_555
N7 C12 1_555 1_555
N8 Cu1_2 1_555 1_555
N14 C13 1_555 1_555
Cu7 N6 1_555 1_555
C11 N6 1_555 1_555
C15 N14 1_555 1_555
N7 N8 1_555 1_555
C16 H16 1_555 1_555
C17 C16 1_555 1_555
H17 C17 1_555 1_555
C18 C17 1_555 1_555
C19 C18 1_555 1_555
H18 C19 1_555 1_555
C20 C19 1_555 1_555
H19 C20 1_555 1_555
C21 C18 1_555 1_555
C29 H25 1_555 1_555
H27 C29 1_555 1_555
N15 C16 1_555 1_555
N16 C21 1_555 1_555
N17 Cu1_3 1_555 1_555
N19 C21 1_555 1_555
Cu5 N15 1_555 1_555
C20 N15 1_555 1_555
N16 N17 1_555 1_555
N17 N18 1_555 1_555
N18 N19 1_555 1_555
Cu3 N9 1_555 1_555
N31 Cu3 1_555 1_555
N9 N10 1_555 1_555
N23 Cu2 1_555 1_555
N32 Cu2 1_555 1_555
N23 N24 1_555 1_555
Cu1_6 N3 1_555 1_555
C1 H1 1_555 1_555
C2 C1 1_555 1_555
H2 C2 1_555 1_555
C3 C2 1_555 1_555
C4 C3 1_555 1_555
H3 C4 1_555 1_555
C5 C4 1_555 1_555
H4 C5 1_555 1_555
C6 C3 1_555 1_555
C14 H10 1_555 1_555
H12 C14 1_555 1_555
N1 C1 1_555 1_555
N2 C6 1_555 1_555
N3 N2 1_555 1_555
N4 N3 1_555 1_555
N5 C6 1_555 1_555
Cu7 N1 1_555 1_555
C5 N1 1_555 1_555
N4 N5 1_555 1_555
C22 H20 1_555 1_555
C23 C22 1_555 1_555
H21 C23 1_555 1_555
C24 C23 1_555 1_555
C25 C24 1_555 1_555
H22 C25 1_555 1_555
C26 C25 1_555 1_555
H23 C26 1_555 1_555
C27 C24 1_555 1_555
C28 H24 1_555 1_555
H30 C30 1_555 1_555
N20 C22 1_555 1_555
N21 C27 1_555 1_555
N22 Cu1_7 1_555 1_555
N28 C28 1_555 1_555
Cu5 N20 1_555 1_555
C26 N20 1_555 1_555
C30 N28 1_555 1_555
N21 N22 1_555 1_555
N25 Cu1_8 1_555 1_555
N26 N25 1_555 1_555
N27 N26 1_555 1_555
Cu1_9 N3_2 1_555 1_555
Cu5 N4_2 1_555 1_555
C1_2 H1_2 1_555 1_555
C2_2 C1_2 1_555 1_555
H2_2 C2_2 1_555 1_555
C3_2 C2_2 1_555 1_555
C4_2 C3_2 1_555 1_555
H3_2 C4_2 1_555 1_555
C5_2 C4_2 1_555 1_555
H4_2 C5_2 1_555 1_555
C6_2 C3_2 1_555 1_555
C7_2 H5_2 1_555 1_555
C8_2 C7_2 1_555 1_555
H6_2 C8_2 1_555 1_555
C9_2 C8_2 1_555 1_555
C10_2 C9_2 1_555 1_555
H7_2 C10_2 1_555 1_555
C11_2 C10_2 1_555 1_555
H8_2 C11_2 1_555 1_555
C12_2 C9_2 1_555 1_555
C13_2 H9_2 1_555 1_555
C14_2 H10_2 1_555 1_555
H11_2 C14_2 1_555 1_555
H12_2 C14_2 1_555 1_555
C15_2 H13_2 1_555 1_555
H14_2 C15_2 1_555 1_555
H15_2 C15_2 1_555 1_555
N29 C1_2 1_555 1_555
N2_2 C6_2 1_555 1_555
N3_2 N2_2 1_555 1_555
N4_2 N3_2 1_555 1_555
N5_2 C6_2 1_555 1_555
N31 C7_2 1_555 1_555
N7_2 C12_2 1_555 1_555
N8_2 Cu1_9 1_555 1_555
N9_2 N8_2 1_555 1_555
N10_2 C12_2 1_555 1_555
N11_2 Cu1_9 1_555 1_555
N12_2 N11_2 1_555 1_555
N13_2 N12_2 1_555 1_555
N14_2 C13_2 1_555 1_555
O1_2 Cu5 1_555 1_555
Cu7 N9_2 1_555 1_555
C16_2 H16_2 1_555 1_555
C17_2 C16_2 1_555 1_555
H17_2 C17_2 1_555 1_555
C18_2 C17_2 1_555 1_555
C19_2 C18_2 1_555 1_555
H18_2 C19_2 1_555 1_555
C20_2 C19_2 1_555 1_555
H19_2 C20_2 1_555 1_555
C21_2 C18_2 1_555 1_555
C22_2 H20_2 1_555 1_555
C23_2 C22_2 1_555 1_555
H21_2 C23_2 1_555 1_555
C24_2 C23_2 1_555 1_555
C25_2 C24_2 1_555 1_555
H22_2 C25_2 1_555 1_555
C26_2 C25_2 1_555 1_555
H23_2 C26_2 1_555 1_555
C27_2 C24_2 1_555 1_555
C28_2 H24_2 1_555 1_555
C29_2 H25_2 1_555 1_555
H26_2 C29_2 1_555 1_555
H27_2 C29_2 1_555 1_555
C30_2 H28_2 1_555 1_555
H29_2 C30_2 1_555 1_555
H30_2 C30_2 1_555 1_555
N30 C16_2 1_555 1_555
N16_2 C21_2 1_555 1_555
N17_2 Cu1_9 1_555 1_555
N18_2 Cu7 1_555 1_555
N19_2 C21_2 1_555 1_555
N32 C22_2 1_555 1_555
N21_2 C27_2 1_555 1_555
N22_2 Cu1_9 1_555 1_555
N23_2 Cu5 1_555 1_555
N24_2 C27_2 1_555 1_555
N25_2 Cu1_9 1_555 1_555
N26_2 N25_2 1_555 1_555
N27_2 N26_2 1_555 1_555
N28_2 C28_2 1_555 1_555
O2_2 Cu7 1_555 1_555
Cu5 N11_2 1_555 1_555
C5_2 N29 1_555 1_555
C11_2 N31 1_555 1_555
C13_2 O1_2 1_555 1_555
C14_2 N14_2 1_555 1_555
C15_2 N14_2 1_555 1_555
N4_2 N5_2 1_555 1_555
N7_2 N8_2 1_555 1_555
N9_2 N10_2 1_555 1_555
Cu7 N25_2 1_555 1_555
C20_2 N30 1_555 1_555
C26_2 N32 1_555 1_555
C28_2 O2_2 1_555 1_555
C29_2 N28_2 1_555 1_555
C30_2 N28_2 1_555 1_555
N16_2 N17_2 1_555 1_555
N17_2 N18_2 1_555 1_555
N18_2 N19_2 1_555 1_555
N21_2 N22_2 1_555 1_555
N22_2 N23_2 1_555 1_555
N23_2 N24_2 1_555 1_555

#END
