
###############################################################################
#
# This file contains modified crystal structure data generated from the
# MOF subset of the Cambridge Structural Database (CSD) v543 
# hosted by the Cambridge Crystallographic Data Centre (CCDC).
#
# This work is licensed under the Creative Commons
# Attribution-NonCommercial-ShareAlike 4.0 International License.
# To view a copy of this license, visit
# http://creativecommons.org/licenses/by-nc-sa/4.0/
# or send a letter to
# Creative Commons, PO Box 1866, Mountain View, CA 94042, USA.
#
# CIF created using the CSD Python API on 29 September 2022
# The structure has been converted into the P1 space group
# The structure has a 3D framework
# The original CSD entry QOMTET is in the monoclinic crystal system
# The framework has been calculated to contain at least 10.0% void space
# The void calculation uses a probe of radius 1.32A, grid spacing 0.4
#
###############################################################################

data_QOMTET
_chemical_formula_moiety         '(C80 H52 N12 O28 S8 Zn4)n'
_symmetry_cell_setting           triclinic
_symmetry_space_group_name_H-M   'P 1'
_symmetry_Int_Tables_number      1
_space_group_name_Hall           'P 1'
loop_
_symmetry_equiv_pos_site_id
_symmetry_equiv_pos_as_xyz
1 x,y,z
_cell_length_a                   8.3800(4)
_cell_length_b                   20.9662(9)
_cell_length_c                   13.0999(6)
_cell_angle_alpha                90
_cell_angle_beta                 95.038(3)
_cell_angle_gamma                90
_cell_volume                     2292.72
loop_
_atom_site_label
_atom_site_type_symbol
_atom_site_fract_x
_atom_site_fract_y
_atom_site_fract_z
H24 H 0.0069 0.7559 0.2881
O12 O 0.2476(7) 0.7873(2) 0.0978(4)
S3 S 0.1008(2) 0.91123(8) 0.06916(13)
C37 C 0.3040(8) 0.8137(3) 0.0206(5)
Zn4 Zn 0.36230(11) 0.70894(4) 0.14444(6)
O10 O 0.2653(7) 0.8120(2) 0.7710(4)
O11 O 0.3351(8) 0.9105(3) 0.7340(4)
C33 C 0.2047(8) 0.8946(3) 0.8844(5)
C34 C 0.2772(8) 0.8707(3) 0.7883(5)
S4 S 0.0946(2) 0.96472(8) 0.85954(12)
C35 C 0.2089(8) 0.8709(3) 0.9794(5)
C36 C 0.0400(8) 0.9744(3) 0.9855(5)
O13 O 0.4249(6) 0.7972(2) 0.9820(4)
Zn3 Zn 0.36230(11) 0.79106(4) 0.64444(6)
N5 N 0.3829(6) 0.6525(2) 0.0203(4)
C30 C 0.4951(8) 0.6073(3) 0.0227(5)
H17 H 0.5523 0.5978 0.0849
O14 O 0.5905(7) 0.7188(3) 0.1930(4)
N6 N 0.7808(9) 0.7424(4) 0.3229(7)
C38 C 0.8180(15) 0.7609(7) 0.4279(10)
H20 H 0.9315 0.7671 0.4408
H21 H 0.7634 0.8000 0.4409
H22 H 0.7840 0.7281 0.4721
C39 C 0.6321(10) 0.7312(4) 0.2864(7)
H23 H 0.5528 0.7324 0.3318
C40 C 0.9052(13) 0.7477(8) 0.2508(12)
H25 H 0.9108 0.7086 0.2132
H26 H 0.8792 0.7821 0.2039
O15 O 0.2653(7) 0.6880(2) 0.2710(4)
O2 O 0.3425(7) 0.3657(3) 0.2769(4)
C1 C 0.5012(6) 0.4892(3) 0.4487(4)
O3 O 0.6902(6) 0.5236(2) 0.2153(4)
O4 O 0.7347(7) 0.1880(2) 0.2290(4)
O5 O 0.6649(8) 0.0895(3) 0.2660(4)
N1 N 0.5216(5) 0.4430(2) 0.2493(4)
C2 C 0.5554(8) 0.4118(3) 0.1556(5)
C3 C 0.6104(7) 0.4981(3) 0.2762(5)
C4 C 0.7953(8) 0.1054(3) 0.1156(5)
C5 C 0.4226(7) 0.4091(3) 0.3134(5)
C6 C 0.5989(7) 0.5229(3) 0.3828(5)
C7 C 0.6785(9) 0.5773(3) 0.4146(5)
H1 H 0.7369 0.6000 0.3695
C8 C 0.4147(7) 0.4339(3) 0.4168(5)
C9 C 0.6716(8) 0.5985(3) 0.5152(5)
H2 H 0.7265 0.6354 0.5366
C10 C 0.7228(8) 0.1293(3) 0.2117(5)
C12 C 0.6729(9) 0.3650(3) 0.1594(6)
H6 H 0.7320 0.3549 0.2207
C15 C 0.6990(8) 0.3344(3) 0.0702(6)
H9 H 0.7774 0.3030 0.0723
C16 C 0.4700(9) 0.4264(3) 0.0640(6)
H10 H 0.3914 0.4579 0.0603
S2 S 0.9054(2) 0.03528(8) 0.14046(12)
C18 C 0.7911(8) 0.1291(3) 0.0206(5)
C19 C 0.9600(8) 0.0256(3) 0.0145(5)
O7 O 0.5751(6) 0.2028(2) 0.0180(4)
O8 O 0.6575(7) 0.6343(3) 0.7231(4)
C21 C 0.4988(6) 0.5108(3) 0.5513(4)
O9 O 0.3098(6) 0.4764(2) 0.7847(4)
N4 N 0.4784(5) 0.5570(2) 0.7507(4)
C22 C 0.4446(8) 0.5882(3) 0.8444(5)
C23 C 0.3896(7) 0.5019(3) 0.7238(5)
C24 C 0.5774(7) 0.5909(3) 0.6866(5)
C25 C 0.4011(7) 0.4771(3) 0.6172(5)
C26 C 0.3215(9) 0.4227(3) 0.5854(5)
H14 H 0.2631 0.4000 0.6305
C27 C 0.5853(7) 0.5661(3) 0.5832(5)
C28 C 0.3284(8) 0.4015(3) 0.4848(5)
H15 H 0.2735 0.3646 0.4634
C29 C 0.3271(9) 0.6350(3) 0.8406(6)
H16 H 0.2680 0.6451 0.7793
C31 C 0.3010(8) 0.6656(3) 0.9298(6)
H18 H 0.2226 0.6970 0.9277
C32 C 0.5300(9) 0.5736(3) 0.9360(6)
H19 H 0.6086 0.5421 0.9397
Zn5 Zn 0.63770(11) 0.20894(4) 0.35556(6)
Zn1 Zn 0.63770(11) 0.29106(4) 0.85556(6)
O1 O 0.4095(7) 0.2812(3) 0.8070(4)
O6 O 0.7524(7) 0.2127(2) 0.9022(4)
N2 N 0.6171(6) 0.3475(2) 0.9797(4)
N3 N 0.2192(9) 0.2576(4) 0.6771(7)
C11 C 0.1820(15) 0.2391(7) 0.5721(10)
H3 H 0.0685 0.2329 0.5592
H4 H 0.2366 0.2000 0.5591
H5 H 0.2160 0.2719 0.5279
C13 C 0.3679(10) 0.2688(4) 0.7136(7)
H7 H 0.4472 0.2676 0.6682
C14 C 0.5049(8) 0.3927(3) 0.9773(5)
H8 H 0.4477 0.4022 0.9151
C17 C 0.0948(13) 0.2523(8) 0.7492(12)
H12 H 0.0892 0.2914 0.7868
H13 H 0.1208 0.2179 0.7961
S1 S 0.8992(2) 0.08877(8) 0.93084(13)
C20 C 0.6960(8) 0.1863(3) 0.9794(5)
O16 O 0.7347(7) 0.3120(2) 0.7290(4)
C9_2 C 0.3284(8) 0.0985(3) 0.9848(5)
H2_2 H 0.2735 0.1354 0.9634
O8_2 O 0.3425(7) 0.1343(3) 0.7769(4)
C21_2 C 0.5012(6) 0.0108(3) 0.9487(4)
N4_2 N 0.5216(5) 0.0570(2) 0.7493(4)
N5_2 N 0.6171(6) 0.1525(2) 0.4797(4)
C22_2 C 0.5554(8) 0.0882(3) 0.6556(5)
C23_2 C 0.6104(7) 0.0019(3) 0.7762(5)
C24_2 C 0.4226(7) 0.0909(3) 0.8134(5)
C27_2 C 0.4147(7) 0.0661(3) 0.9168(5)
C29_2 C 0.6729(9) 0.1350(3) 0.6594(6)
H16_2 H 0.7320 0.1451 0.7207
C30_2 C 0.5049(8) 0.1073(3) 0.4773(5)
H17_2 H 0.4477 0.0978 0.4151
C31_2 C 0.6990(8) 0.1656(3) 0.5702(6)
H18_2 H 0.7774 0.1970 0.5723
C32_2 C 0.4700(9) 0.0736(3) 0.5640(6)
H19_2 H 0.3914 0.0421 0.5603
O14_2 O 0.4095(7) 0.2188(3) 0.3070(4)
N6_2 N 0.2192(9) 0.2424(4) 0.1771(7)
C38_2 C 0.1820(15) 0.2609(7) 0.0721(10)
H20_2 H 0.0685 0.2671 0.0592
H21_2 H 0.2366 0.3000 0.0591
H22_2 H 0.2160 0.2281 0.0279
C39_2 C 0.3679(10) 0.2312(4) 0.2136(7)
H23_2 H 0.4472 0.2324 0.1682
C40_2 C 0.0948(13) 0.2477(8) 0.2492(12)
H25_2 H 0.0892 0.2086 0.2868
H26_2 H 0.1208 0.2821 0.2961
O17 O 0.7524(7) 0.2873(2) 0.4022(4)
O1_2 O 0.5905(7) 0.7812(3) 0.6930(4)
O2_2 O 0.6575(7) 0.8657(3) 0.2231(4)
C1_2 C 0.4988(6) 0.9892(3) 0.0513(4)
O5_2 O 0.3351(8) 0.5895(3) 0.2340(4)
O6_2 O 0.2476(7) 0.7127(2) 0.5978(4)
N1_2 N 0.4784(5) 0.9430(2) 0.2507(4)
N2_2 N 0.3829(6) 0.8475(2) 0.5203(4)
N3_2 N 0.7808(9) 0.7576(4) 0.8229(7)
C2_2 C 0.4446(8) 0.9118(3) 0.3444(5)
C3_2 C 0.3896(7) 0.9981(3) 0.2238(5)
C4_2 C 0.2047(8) 0.6054(3) 0.3844(5)
C5_2 C 0.5774(7) 0.9091(3) 0.1866(5)
C8_2 C 0.5853(7) 0.9339(3) 0.0832(5)
C10_2 C 0.2772(8) 0.6293(3) 0.2883(5)
C11_2 C 0.8180(15) 0.7391(7) 0.9279(10)
H3_2 H 0.9315 0.7329 0.9408
H4_2 H 0.7634 0.7000 0.9409
H5_2 H 0.7840 0.7719 0.9721
C12_2 C 0.3271(9) 0.8650(3) 0.3406(6)
H6_2 H 0.2680 0.8549 0.2793
C13_2 C 0.6321(10) 0.7688(4) 0.7864(7)
H7_2 H 0.5528 0.7676 0.8318
C14_2 C 0.4951(8) 0.8927(3) 0.5227(5)
H8_2 H 0.5523 0.9022 0.5849
C15_2 C 0.3010(8) 0.8344(3) 0.4298(6)
H9_2 H 0.2226 0.8030 0.4277
C16_2 C 0.5300(9) 0.9264(3) 0.4360(6)
H10_2 H 0.6086 0.9579 0.4397
C17_2 C 0.9052(13) 0.7523(8) 0.7508(12)
H12_2 H 0.9108 0.7914 0.7132
H13_2 H 0.8792 0.7179 0.7039
S1_2 S 0.1008(2) 0.58877(8) 0.56916(13)
S2_2 S 0.0946(2) 0.53528(8) 0.35954(12)
C18_2 C 0.2089(8) 0.6291(3) 0.4794(5)
C19_2 C 0.0400(8) 0.5256(3) 0.4855(5)
O7_2 O 0.4249(6) 0.7028(2) 0.4820(4)
C20_2 C 0.3040(8) 0.6863(3) 0.5206(5)
C28_2 C 0.6716(8) 0.9015(3) 0.0152(5)
H15_2 H 0.7265 0.8646 0.0366
O11_2 O 0.6649(8) 0.4105(3) 0.7660(4)
C33_2 C 0.7953(8) 0.3946(3) 0.6156(5)
C34_2 C 0.7228(8) 0.3707(3) 0.7117(5)
S3_2 S 0.8992(2) 0.41123(8) 0.43084(13)
S4_2 S 0.9054(2) 0.46472(8) 0.64046(12)
C35_2 C 0.7911(8) 0.3709(3) 0.5206(5)
C36_2 C 0.9600(8) 0.4744(3) 0.5145(5)
O13_2 O 0.5751(6) 0.2972(2) 0.5180(4)
C37_2 C 0.6960(8) 0.3137(3) 0.4794(5)
H11 H 0.9931 0.2441 0.7119
H11_2 H 0.0069 0.7441 0.7881
O3_2 O 0.3098(6) 0.0236(2) 0.2847(4)
C6_2 C 0.4011(7) 0.0229(3) 0.1172(5)
C7_2 C 0.3215(9) 0.0773(3) 0.0854(5)
H1_2 H 0.2631 0.1000 0.1305
O9_2 O 0.6902(6) 0.9764(2) 0.7153(4)
C25_2 C 0.5989(7) 0.9771(3) 0.8828(5)
C26_2 C 0.6785(9) 0.9227(3) 0.9146(5)
H14_2 H 0.7369 0.9000 0.8695
H24_2 H 0.9931 0.2559 0.2119
loop_
_geom_bond_atom_site_label_1
_geom_bond_atom_site_label_2
_geom_bond_site_symmetry_1
_geom_bond_site_symmetry_2
O12 C37 1_555 1_555
Zn4 O12 1_555 1_555
O10 C34 1_555 1_555
O11 C34 1_555 1_555
C33 C34 1_555 1_555
S4 C33 1_555 1_555
C35 C33 1_555 1_555
Zn3 O10 1_555 1_555
S4 C36 1_555 1_555
N5 C30 1_555 1_555
C30 H17 1_555 1_555
Zn4 N5 1_555 1_555
O14 Zn4 1_555 1_555
N6 C38 1_555 1_555
C38 H20 1_555 1_555
H21 C38 1_555 1_555
H22 C38 1_555 1_555
C39 O14 1_555 1_555
H23 C39 1_555 1_555
C40 N6 1_555 1_555
H25 C40 1_555 1_555
H26 C40 1_555 1_555
O15 Zn4 1_555 1_555
N6 C39 1_555 1_555
O2 C5 1_555 1_555
C1 C6 1_555 1_555
O3 C3 1_555 1_555
O4 C10 1_555 1_555
O5 C10 1_555 1_555
N1 C2 1_555 1_555
C2 C12 1_555 1_555
C3 N1 1_555 1_555
C4 C10 1_555 1_555
C5 N1 1_555 1_555
C6 C3 1_555 1_555
C7 C6 1_555 1_555
H1 C7 1_555 1_555
C8 C1 1_555 1_555
C9 C7 1_555 1_555
H2 C9 1_555 1_555
C12 H6 1_555 1_555
H9 C15 1_555 1_555
C16 C2 1_555 1_555
H10 C16 1_555 1_555
S2 C4 1_555 1_555
C18 C4 1_555 1_555
O8 C24 1_555 1_555
C21 C1 1_555 1_555
O9 C23 1_555 1_555
N4 C22 1_555 1_555
C22 C29 1_555 1_555
C23 N4 1_555 1_555
C24 N4 1_555 1_555
C25 C21 1_555 1_555
C26 C25 1_555 1_555
H14 C26 1_555 1_555
C27 C9 1_555 1_555
C28 C8 1_555 1_555
H15 C28 1_555 1_555
C29 H16 1_555 1_555
H18 C31 1_555 1_555
C32 C22 1_555 1_555
H19 C32 1_555 1_555
Zn5 O4 1_555 1_555
C5 C8 1_555 1_555
C12 C15 1_555 1_555
S2 C19 1_555 1_555
C21 C27 1_555 1_555
C23 C25 1_555 1_555
C24 C27 1_555 1_555
C26 C28 1_555 1_555
C29 C31 1_555 1_555
Zn1 O1 1_555 1_555
O1 C13 1_555 1_555
O6 Zn1 1_555 1_555
N2 Zn1 1_555 1_555
N3 C11 1_555 1_555
C11 H3 1_555 1_555
H4 C11 1_555 1_555
H5 C11 1_555 1_555
C13 N3 1_555 1_555
H7 C13 1_555 1_555
C14 N2 1_555 1_555
H8 C14 1_555 1_555
C17 N3 1_555 1_555
H12 C17 1_555 1_555
H13 C17 1_555 1_555
C20 O6 1_555 1_555
O16 Zn1 1_555 1_555
H2_2 C9_2 1_555 1_555
O8_2 C24_2 1_555 1_555
N4_2 C22_2 1_555 1_555
N5_2 C30_2 1_555 1_555
C22_2 C29_2 1_555 1_555
C23_2 N4_2 1_555 1_555
C24_2 N4_2 1_555 1_555
C27_2 C9_2 1_555 1_555
C29_2 H16_2 1_555 1_555
C30_2 H17_2 1_555 1_555
C31_2 N5_2 1_555 1_555
H18_2 C31_2 1_555 1_555
C32_2 C22_2 1_555 1_555
H19_2 C32_2 1_555 1_555
Zn5 N5_2 1_555 1_555
O14_2 Zn5 1_555 1_555
N6_2 C38_2 1_555 1_555
C38_2 H20_2 1_555 1_555
H21_2 C38_2 1_555 1_555
H22_2 C38_2 1_555 1_555
C39_2 O14_2 1_555 1_555
H23_2 C39_2 1_555 1_555
C40_2 N6_2 1_555 1_555
H25_2 C40_2 1_555 1_555
H26_2 C40_2 1_555 1_555
O17 Zn5 1_555 1_555
C21_2 C27_2 1_555 1_555
C24_2 C27_2 1_555 1_555
C29_2 C31_2 1_555 1_555
C30_2 C32_2 1_555 1_555
N6_2 C39_2 1_555 1_555
Zn3 O1_2 1_555 1_555
O1_2 C13_2 1_555 1_555
O2_2 C5_2 1_555 1_555
O15 C10_2 1_555 1_555
O5_2 C10_2 1_555 1_555
O6_2 Zn3 1_555 1_555
N1_2 C2_2 1_555 1_555
N2_2 Zn3 1_555 1_555
N3_2 C11_2 1_555 1_555
C2_2 C12_2 1_555 1_555
C3_2 N1_2 1_555 1_555
C4_2 C10_2 1_555 1_555
C5_2 N1_2 1_555 1_555
C8_2 C1_2 1_555 1_555
C11_2 H3_2 1_555 1_555
H4_2 C11_2 1_555 1_555
H5_2 C11_2 1_555 1_555
C12_2 H6_2 1_555 1_555
C13_2 N3_2 1_555 1_555
H7_2 C13_2 1_555 1_555
C14_2 N2_2 1_555 1_555
H8_2 C14_2 1_555 1_555
C15_2 N2_2 1_555 1_555
H9_2 C15_2 1_555 1_555
C16_2 C2_2 1_555 1_555
H10_2 C16_2 1_555 1_555
C17_2 N3_2 1_555 1_555
H12_2 C17_2 1_555 1_555
H13_2 C17_2 1_555 1_555
S1_2 C18_2 1_555 1_555
S2_2 C4_2 1_555 1_555
C18_2 C4_2 1_555 1_555
C19_2 S1_2 1_555 1_555
O7_2 C20_2 1_555 1_555
C20_2 O6_2 1_555 1_555
C28_2 C8_2 1_555 1_555
H15_2 C28_2 1_555 1_555
C5_2 C8_2 1_555 1_555
C12_2 C15_2 1_555 1_555
C14_2 C16_2 1_555 1_555
S2_2 C19_2 1_555 1_555
C18_2 C20_2 1_555 1_555
O16 C34_2 1_555 1_555
O11_2 C34_2 1_555 1_555
O17 C37_2 1_555 1_555
C33_2 C34_2 1_555 1_555
S3_2 C35_2 1_555 1_555
S4_2 C33_2 1_555 1_555
C35_2 C33_2 1_555 1_555
O13_2 C37_2 1_555 1_555
C37_2 C35_2 1_555 1_555
S3_2 C36_2 1_555 1_555
S4_2 C36_2 1_555 1_555
C7_2 C6_2 1_555 1_555
H1_2 C7_2 1_555 1_555
C26_2 C25_2 1_555 1_555
H14_2 C26_2 1_555 1_555

#END
