
###############################################################################
#
# This file contains modified crystal structure data generated from the
# MOF subset of the Cambridge Structural Database (CSD) v543 
# hosted by the Cambridge Crystallographic Data Centre (CCDC).
#
# This work is licensed under the Creative Commons
# Attribution-NonCommercial-ShareAlike 4.0 International License.
# To view a copy of this license, visit
# http://creativecommons.org/licenses/by-nc-sa/4.0/
# or send a letter to
# Creative Commons, PO Box 1866, Mountain View, CA 94042, USA.
#
# CIF created using the CSD Python API on 29 September 2022
# The structure has been converted into the P1 space group
# The structure has a 3D framework
# The original CSD entry QONKUB is in the monoclinic crystal system
# The framework has been calculated to contain at least 10.0% void space
# The void calculation uses a probe of radius 1.32A, grid spacing 0.4
#
###############################################################################

data_QONKUB
_chemical_formula_moiety         '(C60 H60 Cu13 N56 O4)n'
_symmetry_cell_setting           triclinic
_symmetry_space_group_name_H-M   'P 1'
_symmetry_Int_Tables_number      1
_space_group_name_Hall           'P 1'
loop_
_symmetry_equiv_pos_site_id
_symmetry_equiv_pos_as_xyz
1 x,y,z
_cell_length_a                   13.2610(18)
_cell_length_b                   15.134(2)
_cell_length_c                   15.5470(19)
_cell_angle_alpha                90
_cell_angle_beta                 93.449(13)
_cell_angle_gamma                90
_cell_volume                     3114.51
loop_
_atom_site_label
_atom_site_type_symbol
_atom_site_fract_x
_atom_site_fract_y
_atom_site_fract_z
Cu1 Cu 0.0000 0.0000 0.0000
N11 N 0.0550(4) 0.1171(4) 0.0501(3)
N12 N 0.1426(5) 0.1337(5) 0.0578(5)
N13 N 0.2251(7) 0.1517(8) 0.0643(8)
O1 O 0.0103(6) 0.3358(6) 0.0023(4)
N30 N 0.0498(4) 0.2291(4) 0.1960(4)
Cu1_2 Cu -0.0000 0.0000 1.0000
C7 C 0.3111(6) 0.2580(5) 0.7305(5)
H5 H 0.3291 0.3129 0.7534
C8 C 0.2506(6) 0.2047(5) 0.7762(4)
H6 H 0.2265 0.2248 0.8277
C9 C 0.2252(6) 0.1220(5) 0.7466(4)
C10 C 0.2611(6) 0.0976(5) 0.6675(4)
H7 H 0.2451 0.0428 0.6433
C11 C 0.3204(6) 0.1562(5) 0.6262(5)
H8 H 0.3445 0.1385 0.5740
C12 C 0.1638(5) 0.0625(4) 0.7943(4)
N6 N 0.3458(4) 0.2352(4) 0.6546(3)
N7 N 0.1160(4) 0.0873(4) 0.8640(3)
N8 N 0.0725(4) 0.0142(3) 0.8904(3)
C13 C 0.0195(9) 0.3043(10) 0.9233(7)
H9 H 0.0426 0.2471 0.9146
H12 H 0.0599 0.2905 0.7677
H14 H 0.0206 0.4712 0.9137
Cu7 Cu 0.44971(7) 0.31125(6) 0.60240(5)
Cu1_3 Cu 0.0000 1.0000 0.0000
C16 C 0.4164(6) 0.6771(6) 0.2396(5)
H16 H 0.4403 0.6194 0.2375
C17 C 0.3473(6) 0.7056(5) 0.1762(5)
H17 H 0.3251 0.6672 0.1323
C18 C 0.3112(5) 0.7899(5) 0.1774(4)
C19 C 0.3456(7) 0.8444(5) 0.2453(5)
H18 H 0.3227 0.9022 0.2493
C20 C 0.4141(6) 0.8104(5) 0.3058(5)
H19 H 0.4367 0.8469 0.3511
C21 C 0.2368(5) 0.8232(5) 0.1134(4)
N15 N 0.4502(4) 0.7291(4) 0.3040(4)
N16 N 0.2057(4) 0.7786(4) 0.0421(3)
N17 N 0.1397(4) 0.8333(4) 0.0046(3)
N18 N 0.1286(5) 0.9070(4) 0.0487(4)
N19 N 0.1918(5) 0.9020(4) 0.1191(3)
C29 C 0.0059(13) 0.6866(12) 0.2222(8)
H25 H 0.0249 0.6435 0.2655
H26 H 0.0540 0.7341 0.2247
C30 C 0.0339(13) 0.5581(7) 0.1182(12)
H28 H 0.0506 0.5263 0.1705
H30 H 0.0918 0.5604 0.0841
N28 N 0.0037(10) 0.6460(9) 0.1386(6)
Cu5 Cu 0.55029(7) 0.68875(6) 0.39760(5)
Cu1_4 Cu -0.0000 1.0000 1.0000
N9 N 0.0932(4) 0.9469(4) 0.8401(3)
N10 N 0.1517(4) 0.9758(4) 0.7781(3)
Cu3 Cu 0.05029(7) 0.81125(6) 0.89760(5)
N31 N 0.1542(4) 0.7352(4) 0.8454(3)
Cu1_5 Cu 1.0000 0.0000 0.0000
Cu2 Cu 0.94971(7) 0.18875(6) 0.10240(5)
N23 N 0.9068(4) 0.0531(4) 0.1599(3)
N24 N 0.8483(4) 0.0242(4) 0.2219(3)
N32 N 0.8458(4) 0.2648(4) 0.1546(3)
Cu1_6 Cu 1.0000 0.0000 1.0000
C1 C 0.5836(6) 0.3229(6) 0.7604(5)
H1 H 0.5597 0.3806 0.7625
C2 C 0.6527(6) 0.2944(5) 0.8238(5)
H2 H 0.6749 0.3328 0.8677
C3 C 0.6888(5) 0.2101(5) 0.8226(4)
C4 C 0.6544(7) 0.1556(5) 0.7547(5)
H3 H 0.6773 0.0978 0.7507
C5 C 0.5859(6) 0.1896(5) 0.6942(5)
H4 H 0.5633 0.1531 0.6489
C6 C 0.7632(5) 0.1768(5) 0.8866(4)
N1 N 0.5498(4) 0.2709(4) 0.6960(4)
N2 N 0.7943(4) 0.2214(4) 0.9579(3)
N3 N 0.8603(4) 0.1667(4) 0.9954(3)
N4 N 0.8714(5) 0.0930(4) 0.9513(4)
N5 N 0.8082(5) 0.0980(4) 0.8809(3)
C14 C 0.9941(13) 0.3134(12) 0.7778(8)
H10 H 0.9751 0.3565 0.7345
H11 H 0.9460 0.2659 0.7753
C15 C 0.9661(13) 0.4419(7) 0.8818(12)
H13 H 0.9494 0.4737 0.8295
H15 H 0.9082 0.4396 0.9159
N14 N 0.9963(10) 0.3540(9) 0.8614(6)
Cu1_7 Cu 1.0000 1.0000 0.0000
C22 C 0.6889(6) 0.7420(5) 0.2695(5)
H20 H 0.6709 0.6871 0.2466
C23 C 0.7494(6) 0.7953(5) 0.2238(4)
H21 H 0.7735 0.7752 0.1723
C24 C 0.7748(6) 0.8780(5) 0.2534(4)
C25 C 0.7389(6) 0.9024(5) 0.3325(4)
H22 H 0.7549 0.9572 0.3567
C26 C 0.6796(6) 0.8438(5) 0.3738(5)
H23 H 0.6555 0.8615 0.4260
C27 C 0.8362(5) 0.9375(4) 0.2057(4)
N20 N 0.6542(4) 0.7648(4) 0.3454(3)
N21 N 0.8840(4) 0.9127(4) 0.1360(3)
N22 N 0.9275(4) 0.9858(3) 0.1096(3)
C28 C 0.9805(9) 0.6957(10) 0.0767(7)
H24 H 0.9574 0.7529 0.0854
H27 H 0.9401 0.7095 0.2323
H29 H 0.9794 0.5288 0.0863
Cu1_8 Cu 1.0000 1.0000 1.0000
N25 N 0.9450(4) 0.8829(4) 0.9499(3)
N26 N 0.8574(5) 0.8663(5) 0.9422(5)
N27 N 0.7749(7) 0.8483(8) 0.9357(8)
O2 O 0.9897(6) 0.6642(6) 0.9977(4)
N29 N 0.9502(4) 0.7709(4) 0.8040(4)
Cu1_9 Cu 0.5000 0.5000 0.5000
C1_2 C 0.9164(6) 0.8229(6) 0.7396(5)
H1_2 H 0.9403 0.8806 0.7375
C2_2 C 0.8473(6) 0.7944(5) 0.6762(5)
H2_2 H 0.8251 0.8328 0.6323
C3_2 C 0.8112(5) 0.7101(5) 0.6774(4)
C4_2 C 0.8456(7) 0.6556(5) 0.7453(5)
H3_2 H 0.8227 0.5978 0.7493
C5_2 C 0.9141(6) 0.6896(5) 0.8058(5)
H4_2 H 0.9367 0.6531 0.8511
C6_2 C 0.7368(5) 0.6768(5) 0.6134(4)
C7_2 C 0.1889(6) 0.7580(5) 0.7695(5)
H5_2 H 0.1709 0.8129 0.7466
C8_2 C 0.2494(6) 0.7047(5) 0.7238(4)
H6_2 H 0.2735 0.7248 0.6723
C9_2 C 0.2748(6) 0.6220(5) 0.7534(4)
C10_2 C 0.2389(6) 0.5976(5) 0.8325(4)
H7_2 H 0.2549 0.5428 0.8567
C11_2 C 0.1796(6) 0.6562(5) 0.8738(5)
H8_2 H 0.1555 0.6385 0.9260
C12_2 C 0.3362(5) 0.5625(4) 0.7057(4)
N2_2 N 0.7057(4) 0.7214(4) 0.5421(3)
N3_2 N 0.6397(4) 0.6667(4) 0.5046(3)
N4_2 N 0.6286(5) 0.5930(4) 0.5487(4)
N5_2 N 0.6918(5) 0.5980(4) 0.6191(3)
N7_2 N 0.3840(4) 0.5873(4) 0.6360(3)
N8_2 N 0.4275(4) 0.5142(3) 0.6096(3)
N9_2 N 0.4068(4) 0.4469(4) 0.6599(3)
N10_2 N 0.3483(4) 0.4758(4) 0.7219(3)
N11_2 N 0.4450(4) 0.6171(4) 0.4499(3)
N12_2 N 0.3574(5) 0.6337(5) 0.4422(5)
N13_2 N 0.2749(7) 0.6517(8) 0.4357(8)
C13_2 C 0.4805(9) 0.8043(10) 0.5767(7)
H9_2 H 0.4574 0.7471 0.5854
C14_2 C 0.5059(13) 0.8134(12) 0.7222(8)
H10_2 H 0.5249 0.8565 0.7655
H11_2 H 0.5540 0.7659 0.7247
H12_2 H 0.4401 0.7905 0.7323
C15_2 C 0.5339(13) 0.9419(7) 0.6182(12)
H13_2 H 0.5506 0.9737 0.6705
H14_2 H 0.4794 0.9712 0.5863
H15_2 H 0.5918 0.9396 0.5841
N14_2 N 0.5037(10) 0.8540(9) 0.6386(6)
O1_2 O 0.4897(6) 0.8358(6) 0.4977(4)
C16_2 C 0.0836(6) 0.1771(6) 0.2604(5)
H16_2 H 0.0597 0.1194 0.2625
C17_2 C 0.1527(6) 0.2056(5) 0.3238(5)
H17_2 H 0.1749 0.1672 0.3677
C18_2 C 0.1888(5) 0.2899(5) 0.3226(4)
C19_2 C 0.1544(7) 0.3444(5) 0.2547(5)
H18_2 H 0.1773 0.4022 0.2507
C20_2 C 0.0859(6) 0.3104(5) 0.1942(5)
H19_2 H 0.0633 0.3469 0.1489
C21_2 C 0.2632(5) 0.3232(5) 0.3866(4)
C22_2 C 0.8111(6) 0.2420(5) 0.2305(5)
H20_2 H 0.8291 0.1871 0.2534
C23_2 C 0.7506(6) 0.2953(5) 0.2762(4)
H21_2 H 0.7265 0.2752 0.3277
C24_2 C 0.7252(6) 0.3780(5) 0.2466(4)
C25_2 C 0.7611(6) 0.4024(5) 0.1675(4)
H22_2 H 0.7451 0.4572 0.1433
C26_2 C 0.8204(6) 0.3438(5) 0.1262(5)
H23_2 H 0.8445 0.3615 0.0740
C27_2 C 0.6638(5) 0.4375(4) 0.2943(4)
N16_2 N 0.2943(4) 0.2786(4) 0.4579(3)
N17_2 N 0.3603(4) 0.3333(4) 0.4954(3)
N18_2 N 0.3714(5) 0.4070(4) 0.4513(4)
N19_2 N 0.3082(5) 0.4020(4) 0.3809(3)
N21_2 N 0.6160(4) 0.4127(4) 0.3640(3)
N22_2 N 0.5725(4) 0.4858(3) 0.3904(3)
N23_2 N 0.5932(4) 0.5531(4) 0.3401(3)
N24_2 N 0.6517(4) 0.5242(4) 0.2781(3)
N25_2 N 0.5550(4) 0.3829(4) 0.5501(3)
N26_2 N 0.6426(5) 0.3663(5) 0.5578(5)
N27_2 N 0.7251(7) 0.3483(8) 0.5643(8)
C28_2 C 0.5195(9) 0.1957(10) 0.4233(7)
H24_2 H 0.5426 0.2529 0.4146
C29_2 C 0.4941(13) 0.1866(12) 0.2778(8)
H25_2 H 0.4751 0.1435 0.2345
H26_2 H 0.4460 0.2341 0.2753
H27_2 H 0.5599 0.2095 0.2677
C30_2 C 0.4661(13) 0.0581(7) 0.3818(12)
H28_2 H 0.4494 0.0263 0.3295
H29_2 H 0.5206 0.0288 0.4137
H30_2 H 0.4082 0.0604 0.4159
N28_2 N 0.4963(10) 0.1460(9) 0.3614(6)
O2_2 O 0.5103(6) 0.1642(6) 0.5023(4)
loop_
_geom_bond_atom_site_label_1
_geom_bond_atom_site_label_2
_geom_bond_site_symmetry_1
_geom_bond_site_symmetry_2
N11 Cu1 1_555 1_555
N12 N11 1_555 1_555
N13 N12 1_555 1_555
C7 H5 1_555 1_555
C8 C7 1_555 1_555
H6 C8 1_555 1_555
C9 C8 1_555 1_555
C10 C9 1_555 1_555
H7 C10 1_555 1_555
C11 C10 1_555 1_555
H8 C11 1_555 1_555
C12 C9 1_555 1_555
N6 C7 1_555 1_555
N7 C12 1_555 1_555
N8 Cu1_2 1_555 1_555
C13 H9 1_555 1_555
Cu7 N6 1_555 1_555
C11 N6 1_555 1_555
N7 N8 1_555 1_555
C16 H16 1_555 1_555
C17 C16 1_555 1_555
H17 C17 1_555 1_555
C18 C17 1_555 1_555
C19 C18 1_555 1_555
H18 C19 1_555 1_555
C20 C19 1_555 1_555
H19 C20 1_555 1_555
C21 C18 1_555 1_555
N15 C16 1_555 1_555
N16 C21 1_555 1_555
N18 Cu1_3 1_555 1_555
N19 C21 1_555 1_555
C29 H25 1_555 1_555
H26 C29 1_555 1_555
C30 H28 1_555 1_555
H30 C30 1_555 1_555
Cu5 N15 1_555 1_555
C20 N15 1_555 1_555
N16 N17 1_555 1_555
N17 N18 1_555 1_555
N18 N19 1_555 1_555
C29 N28 1_555 1_555
C30 N28 1_555 1_555
Cu3 N9 1_555 1_555
N31 Cu3 1_555 1_555
N9 N10 1_555 1_555
N23 Cu2 1_555 1_555
N32 Cu2 1_555 1_555
N23 N24 1_555 1_555
Cu1_6 N4 1_555 1_555
C1 H1 1_555 1_555
C2 C1 1_555 1_555
H2 C2 1_555 1_555
C3 C2 1_555 1_555
C4 C3 1_555 1_555
H3 C4 1_555 1_555
C5 C4 1_555 1_555
H4 C5 1_555 1_555
C6 C3 1_555 1_555
N1 C1 1_555 1_555
N2 C6 1_555 1_555
N3 N2 1_555 1_555
N4 N3 1_555 1_555
N5 C6 1_555 1_555
C14 H10 1_555 1_555
H11 C14 1_555 1_555
C15 H13 1_555 1_555
H15 C15 1_555 1_555
Cu7 N1 1_555 1_555
C5 N1 1_555 1_555
N4 N5 1_555 1_555
C14 N14 1_555 1_555
C15 N14 1_555 1_555
C22 H20 1_555 1_555
C23 C22 1_555 1_555
H21 C23 1_555 1_555
C24 C23 1_555 1_555
C25 C24 1_555 1_555
H22 C25 1_555 1_555
C26 C25 1_555 1_555
H23 C26 1_555 1_555
C27 C24 1_555 1_555
N20 C22 1_555 1_555
N21 C27 1_555 1_555
N22 Cu1_7 1_555 1_555
C28 H24 1_555 1_555
Cu5 N20 1_555 1_555
C26 N20 1_555 1_555
N21 N22 1_555 1_555
N25 Cu1_8 1_555 1_555
N26 N25 1_555 1_555
N27 N26 1_555 1_555
Cu1_9 N4_2 1_555 1_555
Cu5 N3_2 1_555 1_555
C1_2 H1_2 1_555 1_555
C2_2 C1_2 1_555 1_555
H2_2 C2_2 1_555 1_555
C3_2 C2_2 1_555 1_555
C4_2 C3_2 1_555 1_555
H3_2 C4_2 1_555 1_555
C5_2 C4_2 1_555 1_555
H4_2 C5_2 1_555 1_555
C6_2 C3_2 1_555 1_555
C7_2 H5_2 1_555 1_555
C8_2 C7_2 1_555 1_555
H6_2 C8_2 1_555 1_555
C9_2 C8_2 1_555 1_555
C10_2 C9_2 1_555 1_555
H7_2 C10_2 1_555 1_555
C11_2 C10_2 1_555 1_555
H8_2 C11_2 1_555 1_555
C12_2 C9_2 1_555 1_555
N29 C1_2 1_555 1_555
N2_2 C6_2 1_555 1_555
N3_2 N2_2 1_555 1_555
N4_2 N3_2 1_555 1_555
N5_2 C6_2 1_555 1_555
N31 C7_2 1_555 1_555
N7_2 C12_2 1_555 1_555
N8_2 Cu1_9 1_555 1_555
N9_2 N8_2 1_555 1_555
N10_2 C12_2 1_555 1_555
N11_2 Cu1_9 1_555 1_555
N12_2 N11_2 1_555 1_555
N13_2 N12_2 1_555 1_555
C13_2 H9_2 1_555 1_555
C14_2 H10_2 1_555 1_555
H11_2 C14_2 1_555 1_555
H12_2 C14_2 1_555 1_555
C15_2 H13_2 1_555 1_555
H14_2 C15_2 1_555 1_555
H15_2 C15_2 1_555 1_555
N14_2 C13_2 1_555 1_555
O1_2 Cu5 1_555 1_555
Cu7 N9_2 1_555 1_555
C16_2 H16_2 1_555 1_555
C17_2 C16_2 1_555 1_555
H17_2 C17_2 1_555 1_555
C18_2 C17_2 1_555 1_555
C19_2 C18_2 1_555 1_555
H18_2 C19_2 1_555 1_555
C20_2 C19_2 1_555 1_555
H19_2 C20_2 1_555 1_555
C21_2 C18_2 1_555 1_555
C22_2 H20_2 1_555 1_555
C23_2 C22_2 1_555 1_555
H21_2 C23_2 1_555 1_555
C24_2 C23_2 1_555 1_555
C25_2 C24_2 1_555 1_555
H22_2 C25_2 1_555 1_555
C26_2 C25_2 1_555 1_555
H23_2 C26_2 1_555 1_555
C27_2 C24_2 1_555 1_555
N30 C16_2 1_555 1_555
N16_2 C21_2 1_555 1_555
N17_2 Cu7 1_555 1_555
N18_2 Cu1_9 1_555 1_555
N19_2 C21_2 1_555 1_555
N32 C22_2 1_555 1_555
N21_2 C27_2 1_555 1_555
N22_2 Cu1_9 1_555 1_555
N23_2 Cu5 1_555 1_555
N24_2 C27_2 1_555 1_555
N25_2 Cu1_9 1_555 1_555
N26_2 N25_2 1_555 1_555
N27_2 N26_2 1_555 1_555
C28_2 H24_2 1_555 1_555
C29_2 H25_2 1_555 1_555
H26_2 C29_2 1_555 1_555
H27_2 C29_2 1_555 1_555
C30_2 H28_2 1_555 1_555
H29_2 C30_2 1_555 1_555
H30_2 C30_2 1_555 1_555
N28_2 C28_2 1_555 1_555
O2_2 Cu7 1_555 1_555
Cu5 N11_2 1_555 1_555
C5_2 N29 1_555 1_555
C11_2 N31 1_555 1_555
N4_2 N5_2 1_555 1_555
N7_2 N8_2 1_555 1_555
N9_2 N10_2 1_555 1_555
C13_2 O1_2 1_555 1_555
C14_2 N14_2 1_555 1_555
C15_2 N14_2 1_555 1_555
Cu7 N25_2 1_555 1_555
C20_2 N30 1_555 1_555
C26_2 N32 1_555 1_555
N16_2 N17_2 1_555 1_555
N17_2 N18_2 1_555 1_555
N18_2 N19_2 1_555 1_555
N21_2 N22_2 1_555 1_555
N22_2 N23_2 1_555 1_555
N23_2 N24_2 1_555 1_555
C28_2 O2_2 1_555 1_555
C29_2 N28_2 1_555 1_555
C30_2 N28_2 1_555 1_555

#END
