
###############################################################################
#
# This file contains modified crystal structure data generated from the
# MOF subset of the Cambridge Structural Database (CSD) v543 
# hosted by the Cambridge Crystallographic Data Centre (CCDC).
#
# This work is licensed under the Creative Commons
# Attribution-NonCommercial-ShareAlike 4.0 International License.
# To view a copy of this license, visit
# http://creativecommons.org/licenses/by-nc-sa/4.0/
# or send a letter to
# Creative Commons, PO Box 1866, Mountain View, CA 94042, USA.
#
# CIF created using the CSD Python API on 29 September 2022
# The structure has been converted into the P1 space group
# The structure has a 3D framework
# The original CSD entry QONLAI is in the monoclinic crystal system
# The framework has been calculated to contain at least 10.0% void space
# The void calculation uses a probe of radius 1.32A, grid spacing 0.4
#
###############################################################################

data_QONLAI
_chemical_formula_moiety         '(C60 H60 Cu10 N56 O4)n'
_symmetry_cell_setting           triclinic
_symmetry_space_group_name_H-M   'P 1'
_symmetry_Int_Tables_number      1
_space_group_name_Hall           'P 1'
loop_
_symmetry_equiv_pos_site_id
_symmetry_equiv_pos_as_xyz
1 x,y,z
_cell_length_a                   13.1110(5)
_cell_length_b                   14.7910(4)
_cell_length_c                   15.6710(4)
_cell_angle_alpha                90
_cell_angle_beta                 92.625(2)
_cell_angle_gamma                90
_cell_volume                     3035.81
loop_
_atom_site_label
_atom_site_type_symbol
_atom_site_fract_x
_atom_site_fract_y
_atom_site_fract_z
Cu7 Cu 0.02586(3) 0.30180(3) 0.89180(2)
Cu1 Cu 0.5000 0.0000 0.5000
Cu2 Cu 0.52586(3) 0.19820(3) 0.39180(2)
C1 C 0.8874(3) 0.1789(2) 0.7999(2)
H1 H 0.9063 0.1412 0.8455
C2 C 0.8184(3) 0.1472(2) 0.7383(2)
H2 H 0.7923 0.0890 0.7416
C3 C 0.7886(3) 0.2037(2) 0.6711(2)
C4 C 0.8296(4) 0.2887(3) 0.6694(3)
H3 H 0.8106 0.3285 0.6255
C5 C 0.8992(4) 0.3152(3) 0.7329(3)
H4 H 0.9269 0.3730 0.7309
C6 C 0.7133(3) 0.1728(2) 0.60600(19)
C7 C 0.1693(3) 0.2481(2) 0.7652(2)
H5 H 0.1474 0.3027 0.7412
C8 C 0.2353(4) 0.1951(2) 0.7208(2)
H6 H 0.2573 0.2137 0.6680
C9 C 0.2684(3) 0.1135(2) 0.7559(2)
C10 C 0.2332(3) 0.0900(2) 0.8342(2)
H7 H 0.2537 0.0358 0.8598
C11 C 0.1677(3) 0.1464(2) 0.8745(2)
H8 H 0.1450 0.1293 0.9276
C12 C 0.3360(3) 0.0555(2) 0.70861(18)
C13 C 0.4675(4) 0.3116(3) 0.5640(3)
H9 H 0.4401 0.2539 0.5691
C14 C 0.4977(8) 0.3072(6) 0.7172(4)
H10 H 0.5214 0.3481 0.7613
H11 H 0.5424 0.2559 0.7162
H12 H 0.4299 0.2875 0.7283
C15 C 0.5402(9) 0.4428(5) 0.6308(5)
H13 H 0.5575 0.4639 0.6876
H14 H 0.4912 0.4830 0.6037
H15 H 0.6005 0.4411 0.5984
N1 N 0.9280(2) 0.26072(18) 0.79724(16)
N2 N 0.6854(2) 0.22122(18) 0.53608(16)
N3 N 0.6161(2) 0.16957(17) 0.49612(15)
N4 N 0.60300(19) 0.09381(16) 0.53972(14)
N5 N 0.6639(2) 0.09377(17) 0.60968(15)
N6 N 0.1354(2) 0.22434(18) 0.84097(16)
N7 N 0.3785(2) 0.08184(17) 0.63626(16)
N8 N 0.4296(2) 0.00954(15) 0.61246(16)
N11 N 0.4169(2) 0.12503(17) 0.44235(16)
N12 N 0.3306(3) 0.1356(3) 0.4281(4)
N13 N 0.2451(4) 0.1449(7) 0.4148(10)
N14 N 0.4970(4) 0.3531(3) 0.6349(2)
O1 O 0.4731(3) 0.3423(2) 0.49180(19)
N23 N 0.5812(2) 0.05732(16) 0.33302(15)
N24 N 0.6400(2) 0.03024(18) 0.27085(16)
N30 N 0.4280(2) 0.23928(18) 0.29724(16)
N32 N 0.6354(2) 0.27566(18) 0.34097(16)
Cu1_2 Cu 0.5000 1.0000 0.5000
N9 N 0.4188(2) 0.94268(16) 0.66698(15)
N10 N 0.3600(2) 0.96976(18) 0.72915(16)
Cu3 Cu 0.47414(3) 0.80180(3) 0.60820(2)
C16 C 0.1126(3) 0.8211(2) 0.2001(2)
H16 H 0.0937 0.8588 0.1545
C17 C 0.1816(3) 0.8528(2) 0.2617(2)
H17 H 0.2077 0.9110 0.2584
C18 C 0.2114(3) 0.7963(2) 0.3289(2)
C19 C 0.1704(4) 0.7113(3) 0.3306(3)
H18 H 0.1894 0.6715 0.3745
C20 C 0.1008(4) 0.6848(3) 0.2671(3)
H19 H 0.0731 0.6270 0.2691
C21 C 0.2867(3) 0.8272(2) 0.39400(19)
C22 C 0.8307(3) 0.7519(2) 0.2348(2)
H20 H 0.8526 0.6973 0.2588
C23 C 0.7647(4) 0.8049(2) 0.2792(2)
H21 H 0.7427 0.7863 0.3320
C24 C 0.7316(3) 0.8865(2) 0.2441(2)
C25 C 0.7668(3) 0.9100(2) 0.1658(2)
H22 H 0.7463 0.9642 0.1402
C26 C 0.8323(3) 0.8536(2) 0.1255(2)
H23 H 0.8550 0.8707 0.0724
C27 C 0.6640(3) 0.9445(2) 0.29139(18)
C28 C 0.5325(4) 0.6884(3) 0.4360(3)
H24 H 0.5599 0.7461 0.4309
C29 C 0.5023(8) 0.6928(6) 0.2828(4)
H25 H 0.4786 0.6519 0.2387
H26 H 0.4576 0.7441 0.2838
H27 H 0.5701 0.7125 0.2717
C30 C 0.4598(9) 0.5572(5) 0.3692(5)
H28 H 0.4425 0.5361 0.3124
H29 H 0.5088 0.5170 0.3963
H30 H 0.3995 0.5589 0.4016
N15 N 0.0720(2) 0.73928(18) 0.20276(16)
N16 N 0.3146(2) 0.77878(18) 0.46392(16)
N17 N 0.3839(2) 0.83043(17) 0.50388(15)
N18 N 0.39700(19) 0.90619(16) 0.46028(14)
N19 N 0.3361(2) 0.90623(17) 0.39032(15)
N20 N 0.8646(2) 0.77566(18) 0.15903(16)
N21 N 0.6215(2) 0.91816(17) 0.36374(16)
N22 N 0.5704(2) 0.99046(15) 0.38754(16)
N25 N 0.5831(2) 0.87497(17) 0.55765(16)
N26 N 0.6694(3) 0.8644(3) 0.5719(4)
N27 N 0.7549(4) 0.8551(7) 0.5852(10)
N28 N 0.5030(4) 0.6469(3) 0.3651(2)
O2 O 0.5269(3) 0.6577(2) 0.50820(19)
Cu5 Cu 0.97414(3) 0.69820(3) 0.10820(2)
N29 N 0.5720(2) 0.76072(18) 0.70276(16)
N31 N 0.3646(2) 0.72434(18) 0.65903(16)
Cu1_3 Cu 0.0000 0.5000 0.0000
N11_2 N 0.0831(2) 0.62503(17) 0.05765(16)
N12_2 N 0.1694(3) 0.6356(3) 0.0719(4)
N13_2 N 0.2549(4) 0.6449(7) 0.0852(10)
O1_2 O 0.0269(3) 0.8423(2) 0.00820(19)
C16_2 C 0.3874(3) 0.3211(2) 0.2999(2)
H16_2 H 0.4063 0.3588 0.3455
C17_2 C 0.3184(3) 0.3528(2) 0.2383(2)
H17_2 H 0.2923 0.4110 0.2416
C18_2 C 0.2886(3) 0.2963(2) 0.1711(2)
C19_2 C 0.3296(4) 0.2113(3) 0.1694(3)
H18_2 H 0.3106 0.1715 0.1255
C20_2 C 0.3992(4) 0.1848(3) 0.2329(3)
H19_2 H 0.4269 0.1270 0.2309
C21_2 C 0.2133(3) 0.3272(2) 0.10600(19)
H25_2 H 0.0214 0.1519 0.2613
H26_2 H 0.0424 0.2441 0.2162
C30_2 C 0.0402(9) 0.0572(5) 0.1308(5)
H28_2 H 0.0575 0.0361 0.1876
H30_2 H 0.1005 0.0589 0.0984
N16_2 N 0.1854(2) 0.27878(18) 0.03608(16)
N18_2 N 0.10300(19) 0.40619(16) 0.03972(14)
N19_2 N 0.1639(2) 0.40623(17) 0.10968(15)
Cu1_4 Cu 0.0000 0.5000 1.0000
C7_2 C 0.3307(3) 0.7481(2) 0.7348(2)
H5_2 H 0.3526 0.8027 0.7588
C8_2 C 0.2647(4) 0.6951(2) 0.7792(2)
H6_2 H 0.2427 0.7137 0.8320
C9_2 C 0.2316(3) 0.6135(2) 0.7441(2)
C10_2 C 0.2668(3) 0.5900(2) 0.6658(2)
H7_2 H 0.2463 0.5358 0.6402
C11_2 C 0.3323(3) 0.6464(2) 0.6255(2)
H8_2 H 0.3550 0.6293 0.5724
C12_2 C 0.1640(3) 0.5555(2) 0.79139(18)
C13_2 C 0.0325(4) 0.8116(3) 0.9360(3)
H9_2 H 0.0599 0.7539 0.9309
C14_2 C 0.0023(8) 0.8072(6) 0.7828(4)
H12_2 H 0.0701 0.7875 0.7717
H14_2 H 0.0088 0.9830 0.8963
N7_2 N 0.1215(2) 0.58184(17) 0.86374(16)
N8_2 N 0.0704(2) 0.50954(15) 0.88754(16)
N9_2 N 0.0812(2) 0.44268(16) 0.83302(15)
N10_2 N 0.1400(2) 0.46976(18) 0.77085(16)
N14_2 N 0.0030(4) 0.8531(3) 0.8651(2)
N17_2 N 0.1161(2) 0.33043(17) 0.99612(15)
Cu1_5 Cu 1.0000 0.5000 0.0000
N3_2 N 0.8839(2) 0.66957(17) 0.00388(15)
C22_2 C 0.6693(3) 0.2519(2) 0.2652(2)
H20_2 H 0.6474 0.1973 0.2412
C23_2 C 0.7353(4) 0.3049(2) 0.2208(2)
H21_2 H 0.7573 0.2863 0.1680
C24_2 C 0.7684(3) 0.3865(2) 0.2559(2)
C25_2 C 0.7332(3) 0.4100(2) 0.3342(2)
H22_2 H 0.7537 0.4642 0.3598
C26_2 C 0.6677(3) 0.3536(2) 0.3745(2)
H23_2 H 0.6450 0.3707 0.4276
C27_2 C 0.8360(3) 0.4445(2) 0.20861(18)
C28_2 C 0.9675(4) 0.1884(3) 0.0640(3)
H24_2 H 0.9401 0.2461 0.0691
C29_2 C 0.9977(8) 0.1928(6) 0.2172(4)
H27_2 H 0.9299 0.2125 0.2283
H29_2 H 0.9912 0.0170 0.1037
N21_2 N 0.8785(2) 0.41816(17) 0.13626(16)
N22_2 N 0.9296(2) 0.49046(15) 0.11246(16)
N23_2 N 0.9188(2) 0.55732(16) 0.16698(15)
N24_2 N 0.8600(2) 0.53024(18) 0.22915(16)
N28_2 N 0.9970(4) 0.1469(3) 0.1349(2)
Cu1_6 Cu 1.0000 0.5000 1.0000
C1_2 C 0.6126(3) 0.6789(2) 0.7001(2)
H1_2 H 0.5937 0.6412 0.6545
C2_2 C 0.6816(3) 0.6472(2) 0.7617(2)
H2_2 H 0.7077 0.5890 0.7584
C3_2 C 0.7114(3) 0.7037(2) 0.8289(2)
C4_2 C 0.6704(4) 0.7887(3) 0.8306(3)
H3_2 H 0.6894 0.8285 0.8745
C5_2 C 0.6008(4) 0.8152(3) 0.7671(3)
H4_2 H 0.5731 0.8730 0.7691
C6_2 C 0.7867(3) 0.6728(2) 0.89400(19)
H10_2 H 0.9786 0.8481 0.7387
H11_2 H 0.9576 0.7559 0.7838
C15_2 C 0.9598(9) 0.9428(5) 0.8692(5)
H13_2 H 0.9425 0.9639 0.8124
H15_2 H 0.8995 0.9411 0.9016
N2_2 N 0.8146(2) 0.72122(18) 0.96392(16)
N4_2 N 0.89700(19) 0.59381(16) 0.96028(14)
N5_2 N 0.8361(2) 0.59377(17) 0.89032(15)
N25_2 N 0.9169(2) 0.37497(17) 0.94235(16)
N26_2 N 0.8306(3) 0.3644(3) 0.9281(4)
N27_2 N 0.7451(4) 0.3551(7) 0.9148(10)
O2_2 O 0.9731(3) 0.1577(2) 0.99180(19)
loop_
_geom_bond_atom_site_label_1
_geom_bond_atom_site_label_2
_geom_bond_site_symmetry_1
_geom_bond_site_symmetry_2
Cu1 N4 1_555 1_555
Cu2 N3 1_555 1_555
C1 H1 1_555 1_555
C2 C1 1_555 1_555
H2 C2 1_555 1_555
C3 C2 1_555 1_555
C4 C3 1_555 1_555
H3 C4 1_555 1_555
C5 C4 1_555 1_555
H4 C5 1_555 1_555
C6 C3 1_555 1_555
C7 H5 1_555 1_555
C8 C7 1_555 1_555
H6 C8 1_555 1_555
C9 C8 1_555 1_555
C10 C9 1_555 1_555
H7 C10 1_555 1_555
C11 C10 1_555 1_555
H8 C11 1_555 1_555
C12 C9 1_555 1_555
C13 H9 1_555 1_555
C14 H10 1_555 1_555
H11 C14 1_555 1_555
H12 C14 1_555 1_555
C15 H13 1_555 1_555
H14 C15 1_555 1_555
H15 C15 1_555 1_555
N1 C1 1_555 1_555
N2 C6 1_555 1_555
N3 N2 1_555 1_555
N4 N3 1_555 1_555
N5 C6 1_555 1_555
N6 C7 1_555 1_555
N7 C12 1_555 1_555
N8 Cu1 1_555 1_555
N11 Cu1 1_555 1_555
N12 N11 1_555 1_555
N13 N12 1_555 1_555
N14 C13 1_555 1_555
O1 Cu2 1_555 1_555
N23 Cu2 1_555 1_555
Cu7 N6 1_555 1_555
N30 Cu2 1_555 1_555
N32 Cu2 1_555 1_555
Cu2 N11 1_555 1_555
C5 N1 1_555 1_555
C11 N6 1_555 1_555
C13 O1 1_555 1_555
C14 N14 1_555 1_555
C15 N14 1_555 1_555
N4 N5 1_555 1_555
N7 N8 1_555 1_555
N23 N24 1_555 1_555
Cu3 N9 1_555 1_555
C16 H16 1_555 1_555
C17 C16 1_555 1_555
H17 C17 1_555 1_555
C18 C17 1_555 1_555
C19 C18 1_555 1_555
H18 C19 1_555 1_555
C20 C19 1_555 1_555
H19 C20 1_555 1_555
C21 C18 1_555 1_555
C22 H20 1_555 1_555
C23 C22 1_555 1_555
H21 C23 1_555 1_555
C24 C23 1_555 1_555
C25 C24 1_555 1_555
H22 C25 1_555 1_555
C26 C25 1_555 1_555
H23 C26 1_555 1_555
C27 C24 1_555 1_555
C28 H24 1_555 1_555
C29 H25 1_555 1_555
H26 C29 1_555 1_555
H27 C29 1_555 1_555
C30 H28 1_555 1_555
H29 C30 1_555 1_555
H30 C30 1_555 1_555
N15 C16 1_555 1_555
N16 C21 1_555 1_555
N17 Cu3 1_555 1_555
N18 Cu1_2 1_555 1_555
N19 C21 1_555 1_555
N20 C22 1_555 1_555
N21 C27 1_555 1_555
N22 Cu1_2 1_555 1_555
N25 Cu1_2 1_555 1_555
N26 N25 1_555 1_555
N27 N26 1_555 1_555
N28 C28 1_555 1_555
O2 Cu3 1_555 1_555
Cu5 N20 1_555 1_555
N29 Cu3 1_555 1_555
N31 Cu3 1_555 1_555
N9 N10 1_555 1_555
Cu3 N25 1_555 1_555
C20 N15 1_555 1_555
C26 N20 1_555 1_555
C28 O2 1_555 1_555
C29 N28 1_555 1_555
C30 N28 1_555 1_555
N16 N17 1_555 1_555
N17 N18 1_555 1_555
N18 N19 1_555 1_555
N21 N22 1_555 1_555
N11_2 Cu1_3 1_555 1_555
N12_2 N11_2 1_555 1_555
N13_2 N12_2 1_555 1_555
C16_2 H16_2 1_555 1_555
C17_2 C16_2 1_555 1_555
H17_2 C17_2 1_555 1_555
C18_2 C17_2 1_555 1_555
C19_2 C18_2 1_555 1_555
H18_2 C19_2 1_555 1_555
C20_2 C19_2 1_555 1_555
H19_2 C20_2 1_555 1_555
C21_2 C18_2 1_555 1_555
C30_2 H28_2 1_555 1_555
H30_2 C30_2 1_555 1_555
N30 C16_2 1_555 1_555
N16_2 C21_2 1_555 1_555
N18_2 Cu1_3 1_555 1_555
N19_2 C21_2 1_555 1_555
C20_2 N30 1_555 1_555
N18_2 N19_2 1_555 1_555
C7_2 H5_2 1_555 1_555
C8_2 C7_2 1_555 1_555
H6_2 C8_2 1_555 1_555
C9_2 C8_2 1_555 1_555
C10_2 C9_2 1_555 1_555
H7_2 C10_2 1_555 1_555
C11_2 C10_2 1_555 1_555
H8_2 C11_2 1_555 1_555
C12_2 C9_2 1_555 1_555
C13_2 H9_2 1_555 1_555
H12_2 C14_2 1_555 1_555
N31 C7_2 1_555 1_555
N7_2 C12_2 1_555 1_555
N8_2 Cu1_4 1_555 1_555
N9_2 N8_2 1_555 1_555
N10_2 C12_2 1_555 1_555
N14_2 C13_2 1_555 1_555
Cu7 N9_2 1_555 1_555
N17_2 Cu7 1_555 1_555
C11_2 N31 1_555 1_555
C14_2 N14_2 1_555 1_555
N7_2 N8_2 1_555 1_555
N9_2 N10_2 1_555 1_555
Cu5 N3_2 1_555 1_555
C22_2 H20_2 1_555 1_555
C23_2 C22_2 1_555 1_555
H21_2 C23_2 1_555 1_555
C24_2 C23_2 1_555 1_555
C25_2 C24_2 1_555 1_555
H22_2 C25_2 1_555 1_555
C26_2 C25_2 1_555 1_555
H23_2 C26_2 1_555 1_555
C27_2 C24_2 1_555 1_555
C28_2 H24_2 1_555 1_555
H27_2 C29_2 1_555 1_555
N32 C22_2 1_555 1_555
N21_2 C27_2 1_555 1_555
N22_2 Cu1_5 1_555 1_555
N23_2 Cu5 1_555 1_555
N24_2 C27_2 1_555 1_555
N28_2 C28_2 1_555 1_555
C26_2 N32 1_555 1_555
C29_2 N28_2 1_555 1_555
N21_2 N22_2 1_555 1_555
N22_2 N23_2 1_555 1_555
N23_2 N24_2 1_555 1_555
Cu1_6 N4_2 1_555 1_555
C1_2 H1_2 1_555 1_555
C2_2 C1_2 1_555 1_555
H2_2 C2_2 1_555 1_555
C3_2 C2_2 1_555 1_555
C4_2 C3_2 1_555 1_555
H3_2 C4_2 1_555 1_555
C5_2 C4_2 1_555 1_555
H4_2 C5_2 1_555 1_555
C6_2 C3_2 1_555 1_555
C15_2 H13_2 1_555 1_555
H15_2 C15_2 1_555 1_555
N29 C1_2 1_555 1_555
N2_2 C6_2 1_555 1_555
N5_2 C6_2 1_555 1_555
N25_2 Cu1_6 1_555 1_555
N26_2 N25_2 1_555 1_555
N27_2 N26_2 1_555 1_555
C5_2 N29 1_555 1_555
N4_2 N5_2 1_555 1_555

#END
