
###############################################################################
#
# This file contains modified crystal structure data generated from the
# MOF subset of the Cambridge Structural Database (CSD) v543 
# hosted by the Cambridge Crystallographic Data Centre (CCDC).
#
# This work is licensed under the Creative Commons
# Attribution-NonCommercial-ShareAlike 4.0 International License.
# To view a copy of this license, visit
# http://creativecommons.org/licenses/by-nc-sa/4.0/
# or send a letter to
# Creative Commons, PO Box 1866, Mountain View, CA 94042, USA.
#
# CIF created using the CSD Python API on 29 September 2022
# The structure has been converted into the P1 space group
# The structure has a 3D framework
# The original CSD entry QONQAM is in the orthorhombic crystal system
# The framework has been calculated to contain at least 10.0% void space
# The void calculation uses a probe of radius 1.32A, grid spacing 0.4
# H atom positions have been added when not included in the experimental data
#
###############################################################################

data_QONQAM
_chemical_formula_moiety         '(C40 H16 Al3 O18)n'
_symmetry_cell_setting           triclinic
_symmetry_space_group_name_H-M   'P 1'
_symmetry_Int_Tables_number      1
_space_group_name_Hall           'P 1'
loop_
_symmetry_equiv_pos_site_id
_symmetry_equiv_pos_as_xyz
1 x,y,z
_cell_length_a                   6.623(2)
_cell_length_b                   16.893(3)
_cell_length_c                   12.592(2)
_cell_angle_alpha                90
_cell_angle_beta                 90
_cell_angle_gamma                90
_cell_volume                     1408.82
loop_
_atom_site_label
_atom_site_type_symbol
_atom_site_fract_x
_atom_site_fract_y
_atom_site_fract_z
_atom_site_U_iso_or_equiv
_atom_site_thermal_displace_type
Al1 Al 0.25000 0.25000 0.75000 0.0380 Uiso
O1 O 0.00000 0.25000 0.69297(13) 0.0380 Uiso
O2 O 0.15590(17) 0.16690(12) 0.84182(12) 0.0380 Uiso
C1 C 0.00000 0.05987(19) 0.95711(15) 0.0380 Uiso
C2 C 0.00000 0.12911(14) 0.88311(11) 0.0380 Uiso
O3 O 0.50000 0.25000 0.80703(13) 0.0380 Uiso
O4 O 0.34410(17) 0.16690(12) 0.65818(12) 0.0380 Uiso
O5 O 0.15590(17) 0.33310(12) 0.84182(12) 0.0380 Uiso
O6 O 0.34410(17) 0.33310(12) 0.65818(12) 0.0380 Uiso
C6 C 0.1958(4) 0.0361(2) 0.97409(15) 0.0380 Uiso
H3 H 0.329938 0.0689569 0.950453 . .
Al3 Al 0.25000 0.75000 0.25000 0.0380 Uiso
O8 O 0.15590(17) 0.83310(12) 0.15818(12) 0.0380 Uiso
C4 C 0.00000 0.94013(19) 0.04289(15) 0.0380 Uiso
C5 C 0.00000 0.87089(14) 0.11689(11) 0.0380 Uiso
C8 C 0.1958(4) 0.9639(2) 0.02591(15) 0.0380 Uiso
H4 H 0.329938 0.931043 0.0495474 . .
O1_2 O 1.00000 0.25000 0.69297(13) 0.0380 Uiso
C1_2 C 1.00000 0.05987(19) 0.95711(15) 0.0380 Uiso
C2_2 C 1.00000 0.12911(14) 0.88311(11) 0.0380 Uiso
C3 C 0.8042(4) 0.0361(2) 0.97409(15) 0.0380 Uiso
Al2 Al 0.75000 0.25000 0.75000 0.0380 Uiso
O7 O 0.84410(17) 0.16690(12) 0.84182(12) 0.0380 Uiso
H1 H 0.670062 0.0689569 0.950453 . .
Al4 Al 0.75000 0.75000 0.25000 0.0380 Uiso
O9 O 0.84410(17) 0.83310(12) 0.15818(12) 0.0380 Uiso
C4_2 C 1.00000 0.94013(19) 0.04289(15) 0.0380 Uiso
C5_2 C 1.00000 0.87089(14) 0.11689(11) 0.0380 Uiso
C7 C 0.8042(4) 0.9639(2) 0.02591(15) 0.0380 Uiso
H2 H 0.670062 0.931043 0.0495474 . .
O1_3 O 0.00000 0.75000 0.30703(13) 0.0380 Uiso
O3_2 O 0.50000 0.75000 0.19297(13) 0.0380 Uiso
O4_2 O 0.34410(17) 0.83310(12) 0.34182(12) 0.0380 Uiso
O5_2 O 0.15590(17) 0.66690(12) 0.15818(12) 0.0380 Uiso
O6_2 O 0.34410(17) 0.66690(12) 0.34182(12) 0.0380 Uiso
O1_4 O 1.00000 0.75000 0.30703(13) 0.0380 Uiso
C1_3 C -0.00000 0.55987(19) 0.04289(15) 0.0380 Uiso
C2_3 C -0.00000 0.62911(14) 0.11689(11) 0.0380 Uiso
C3_2 C 0.1958(4) 0.5361(2) 0.02591(15) 0.0380 Uiso
H1_2 H 0.329938 0.568957 0.0495474 . .
C4_3 C 0.00000 0.44013(19) 0.95711(15) 0.0380 Uiso
C5_3 C -0.00000 0.37089(14) 0.88311(11) 0.0380 Uiso
C7_2 C 0.1958(4) 0.4639(2) 0.97409(15) 0.0380 Uiso
H2_2 H 0.329938 0.431043 0.950453 . .
O2_2 O 0.84410(17) 0.66690(12) 0.15818(12) 0.0380 Uiso
C1_4 C 1.00000 0.55987(19) 0.04289(15) 0.0380 Uiso
C2_4 C 1.00000 0.62911(14) 0.11689(11) 0.0380 Uiso
O4_3 O 0.65590(17) 0.66690(12) 0.34182(12) 0.0380 Uiso
O6_3 O 0.65590(17) 0.83310(12) 0.34182(12) 0.0380 Uiso
C6_2 C 0.8042(4) 0.5361(2) 0.02591(15) 0.0380 Uiso
H3_2 H 0.670062 0.568957 0.0495474 . .
O8_2 O 0.84410(17) 0.33310(12) 0.84182(12) 0.0380 Uiso
C4_4 C 1.00000 0.44013(19) 0.95711(15) 0.0380 Uiso
C5_4 C 1.00000 0.37089(14) 0.88311(11) 0.0380 Uiso
C8_2 C 0.8042(4) 0.4639(2) 0.97409(15) 0.0380 Uiso
H4_2 H 0.670062 0.431043 0.950453 . .
O4_4 O 0.65590(17) 0.33310(12) 0.65818(12) 0.0380 Uiso
O6_4 O 0.65590(17) 0.16690(12) 0.65818(12) 0.0380 Uiso
C1_5 C 0.50000 0.55987(19) 0.45711(15) 0.0380 Uiso
C2_5 C 0.50000 0.62911(14) 0.38311(11) 0.0380 Uiso
C3_3 C 0.3042(4) 0.5361(2) 0.47409(15) 0.0380 Uiso
C4_5 C 0.50000 0.44013(19) 0.54289(15) 0.0380 Uiso
C5_5 C 0.50000 0.37089(14) 0.61689(11) 0.0380 Uiso
C6_3 C 0.6958(4) 0.5361(2) 0.47409(15) 0.0380 Uiso
C7_3 C 0.3042(4) 0.4639(2) 0.52591(15) 0.0380 Uiso
C8_3 C 0.6958(4) 0.4639(2) 0.52591(15) 0.0380 Uiso
H1_3 H 0.170062 0.568957 0.450453 . .
H2_3 H 0.170062 0.431043 0.549547 . .
H3_3 H 0.829938 0.568957 0.450453 . .
H4_3 H 0.829938 0.431043 0.549547 . .
C1_6 C 0.50000 0.05987(19) 0.54289(15) 0.0380 Uiso
C2_6 C 0.50000 0.12911(14) 0.61689(11) 0.0380 Uiso
C3_4 C 0.6958(4) 0.0361(2) 0.52591(15) 0.0380 Uiso
C6_4 C 0.3042(4) 0.0361(2) 0.52591(15) 0.0380 Uiso
H1_4 H 0.829938 0.0689569 0.549547 . .
H3_4 H 0.170062 0.0689569 0.549547 . .
C4_6 C 0.50000 0.94013(19) 0.45711(15) 0.0380 Uiso
C5_6 C 0.50000 0.87089(14) 0.38311(11) 0.0380 Uiso
C7_4 C 0.6958(4) 0.9639(2) 0.47409(15) 0.0380 Uiso
C8_4 C 0.3042(4) 0.9639(2) 0.47409(15) 0.0380 Uiso
H2_4 H 0.829938 0.931043 0.450453 . .
H4_4 H 0.170062 0.931043 0.450453 . .
loop_
_geom_bond_atom_site_label_1
_geom_bond_atom_site_label_2
_geom_bond_site_symmetry_1
_geom_bond_site_symmetry_2
Al1 O1 1_555 1_555
O2 Al1 1_555 1_555
C1 C2 1_555 1_555
C2 O2 1_555 1_555
O3 Al1 1_555 1_555
O4 Al1 1_555 1_555
O5 Al1 1_555 1_555
O6 Al1 1_555 1_555
C6 C1 1_555 1_555
C6 H3 1_555 1_555
Al3 O8 1_555 1_555
O8 C5 1_555 1_555
C4 C5 1_555 1_555
C8 C4 1_555 1_555
C8 H4 1_555 1_555
O1_2 Al2 1_555 1_555
C1_2 C2_2 1_555 1_555
C3 C1_2 1_555 1_555
Al2 O7 1_555 1_555
O7 C2_2 1_555 1_555
C3 H1 1_555 1_555
Al4 O9 1_555 1_555
O9 C5_2 1_555 1_555
C4_2 C5_2 1_555 1_555
C4_2 C7 1_555 1_555
C7 H2 1_555 1_555
Al3 O1_3 1_555 1_555
O3_2 Al3 1_555 1_555
O4_2 Al3 1_555 1_555
O5_2 Al3 1_555 1_555
O6_2 Al3 1_555 1_555
O1_4 Al4 1_555 1_555
C1_3 C2_3 1_555 1_555
C3_2 C1_3 1_555 1_555
O5_2 C2_3 1_555 1_555
C3_2 H1_2 1_555 1_555
O5 C5_3 1_555 1_555
C4_3 C5_3 1_555 1_555
C4_3 C7_2 1_555 1_555
C7_2 H2_2 1_555 1_555
O2_2 Al4 1_555 1_555
C1_4 C2_4 1_555 1_555
C2_4 O2_2 1_555 1_555
O3_2 Al4 1_555 1_555
O4_3 Al4 1_555 1_555
O6_3 Al4 1_555 1_555
C6_2 C1_4 1_555 1_555
C6_2 H3_2 1_555 1_555
Al2 O8_2 1_555 1_555
O8_2 C5_4 1_555 1_555
C4_4 C5_4 1_555 1_555
C8_2 C4_4 1_555 1_555
C8_2 H4_2 1_555 1_555
O3 Al2 1_555 1_555
O4_4 Al2 1_555 1_555
O6_4 Al2 1_555 1_555
C1_5 C2_5 1_555 1_555
C2_5 O4_3 1_555 1_555
C3_3 C1_5 1_555 1_555
O6_2 C2_5 1_555 1_555
O4_4 C5_5 1_555 1_555
O6 C5_5 1_555 1_555
C4_5 C5_5 1_555 1_555
C6_3 C1_5 1_555 1_555
C7_3 C3_3 1_555 1_555
C8_3 C4_5 1_555 1_555
C4_5 C7_3 1_555 1_555
C6_3 C8_3 1_555 1_555
C3_3 H1_3 1_555 1_555
C7_3 H2_3 1_555 1_555
C6_3 H3_3 1_555 1_555
C8_3 H4_3 1_555 1_555
C1_6 C2_6 1_555 1_555
C2_6 O4 1_555 1_555
C3_4 C1_6 1_555 1_555
O6_4 C2_6 1_555 1_555
C6_4 C1_6 1_555 1_555
C3_4 H1_4 1_555 1_555
C6_4 H3_4 1_555 1_555
O4_2 C5_6 1_555 1_555
O6_3 C5_6 1_555 1_555
C4_6 C5_6 1_555 1_555
C8_4 C4_6 1_555 1_555
C4_6 C7_4 1_555 1_555
C7_4 H2_4 1_555 1_555
C8_4 H4_4 1_555 1_555

#END
