
###############################################################################
#
# This file contains modified crystal structure data generated from the
# MOF subset of the Cambridge Structural Database (CSD) v543 
# hosted by the Cambridge Crystallographic Data Centre (CCDC).
#
# This work is licensed under the Creative Commons
# Attribution-NonCommercial-ShareAlike 4.0 International License.
# To view a copy of this license, visit
# http://creativecommons.org/licenses/by-nc-sa/4.0/
# or send a letter to
# Creative Commons, PO Box 1866, Mountain View, CA 94042, USA.
#
# CIF created using the CSD Python API on 29 September 2022
# The structure has been converted into the P1 space group
# The structure has a 3D framework
# The original CSD entry QOPCII is in the triclinic crystal system
# The framework has been calculated to contain at least 10.0% void space
# The void calculation uses a probe of radius 1.32A, grid spacing 0.4
# The framework is charged, counterions have been retained in the structure
# H atom positions have been added when not included in the experimental data
# Generated hydrogen atom positions removed from atoms on special positions
#
###############################################################################

data_QOPCII
_chemical_formula_moiety         '(C8 H26 Mn7 N2 O25 P4 1-)n'
_symmetry_cell_setting           triclinic
_symmetry_space_group_name_H-M   'P 1'
_symmetry_Int_Tables_number      1
_space_group_name_Hall           'P 1'
loop_
_symmetry_equiv_pos_site_id
_symmetry_equiv_pos_as_xyz
1 x,y,z
_cell_length_a                   5.6431(8)
_cell_length_b                   10.4832(14)
_cell_length_c                   13.3055(18)
_cell_angle_alpha                79.356(2)
_cell_angle_beta                 84.344(2)
_cell_angle_gamma                76.376(2)
_cell_volume                     750.564
loop_
_atom_site_label
_atom_site_type_symbol
_atom_site_fract_x
_atom_site_fract_y
_atom_site_fract_z
P2 P 0.2364(3) 0.22189(16) 0.47668(13)
O4 O 0.0470(9) 0.0034(6) 0.2657(4)
O8 O 0.1154(10) 0.3253(5) 0.5406(4)
O9 O 0.1072(8) 0.1065(4) 0.4876(4)
O10 O 0.3263(8) 0.4133(5) 0.3223(4)
C3 C 0.2005(12) 0.3077(6) 0.3420(5)
H4 H 0.2633 0.2456 0.2959
Mn5 Mn 0.81473(17) 0.07933(9) 0.40794(7)
Mn9 Mn 0.5000 0.0000 0.0000
Mn12 Mn 0.10593(19) 0.61407(10) 0.34020(8)
O23 O 0.5078(8) 0.1762(5) 0.4913(4)
O1 O 0.1635(9) 0.1335(5) 0.9607(4)
O3 O 0.0062(11) 0.2619(5) 0.7929(4)
Mn9_2 Mn 0.5000 -0.0000 1.0000
O36 O 0.1421(9) 0.5097(5) 0.6822(4)
O2 O 0.2691(9) 0.8518(5) 0.0806(4)
H1 H 0.1973 0.9937 0.2463
O13 O 0.4137(13) 0.6597(9) 0.3857(8)
Mn4 Mn 0.18527(17) 0.92067(9) 0.59206(7)
Mn9_3 Mn 0.5000 1.0000 0.0000
P3 P 0.0045(3) 0.85511(18) 0.12401(14)
O6 O 0.5180(9) 0.9449(6) 0.8506(4)
C1 C 0.0920(12) 0.9925(7) 0.8202(5)
H3 H 0.0643 0.9195 0.8717
C2 C 0.3611(12) 0.9641(7) 0.7864(5)
Mn9_4 Mn 0.5000 1.0000 1.0000
O20 O 0.4186(9) 0.9582(5) 0.6931(4)
O24 O 0.4922(8) 0.8238(5) 0.5087(4)
O38 O 0.2029(8) 0.7122(5) 0.6778(4)
O5 O 0.5814(9) 0.0418(5) 0.3069(4)
O11 O 0.8579(9) 0.4903(5) 0.3178(4)
O12 O 0.7971(8) 0.2878(5) 0.3222(4)
C4 C 0.9328(12) 0.3679(7) 0.3265(5)
Mn10 Mn 0.89407(19) 0.38593(10) 0.65980(8)
O21 O 0.4820(9) 0.0551(6) 0.1494(4)
C5 C 0.9080(12) 0.0075(7) 0.1798(5)
H9 H 0.9357 0.0805 0.1283
C6 C 0.6389(12) 0.0359(7) 0.2136(5)
P1 P 0.9955(3) 0.14489(18) 0.87599(14)
O16 O 0.7309(9) 0.1482(5) 0.9194(4)
H5 H 0.8027 0.0063 0.7537
O33 O 0.6737(8) 0.5867(5) 0.6777(4)
O40 O 0.5863(13) 0.3403(9) 0.6143(8)
O14 O 0.8365(9) 0.8665(5) 0.0393(4)
O18 O 0.9938(11) 0.7381(5) 0.2071(4)
O25 O 0.8846(10) 0.6747(5) 0.4594(4)
O28 O 0.8928(8) 0.8935(4) 0.5124(4)
O19 O 0.9530(9) 0.9966(6) 0.7343(4)
C8 C 0.0672(12) 0.6321(7) 0.6735(5)
P4 P 0.7636(3) 0.77811(16) 0.52332(13)
C7 C 0.7995(12) 0.6923(6) 0.6580(5)
H10 H 0.7367 0.7544 0.7041
N1 N 0.601(2) 0.6380(11) 0.1380(10)
H11 H 0.5918 0.6918 0.1844
H12 H 0.7440 0.5778 0.1455
H13 H 0.6096 0.6878 0.0755
H14 H 0.4810 0.5935 0.1553
N1_2 N 0.399(2) 0.3620(11) 0.8620(10)
H11_2 H 0.4082 0.3082 0.8156
H12_2 H 0.2560 0.4222 0.8545
H13_2 H 0.3904 0.3122 0.9245
H14_2 H 0.5190 0.4065 0.8447
loop_
_geom_bond_atom_site_label_1
_geom_bond_atom_site_label_2
_geom_bond_site_symmetry_1
_geom_bond_site_symmetry_2
P2 O8 1_555 1_555
C3 P2 1_555 1_555
H4 C3 1_555 1_555
Mn5 O23 1_555 1_555
Mn12 O10 1_555 1_555
O23 P2 1_555 1_555
P2 O9 1_555 1_555
O10 C3 1_555 1_555
O1 Mn9_2 1_555 1_555
Mn12 O13 1_555 1_555
O2 Mn9_3 1_555 1_555
P3 O2 1_555 1_555
O6 C2 1_555 1_555
H3 C1 1_555 1_555
C2 C1 1_555 1_555
Mn9_4 O6 1_555 1_555
O20 C2 1_555 1_555
O24 Mn4 1_555 1_555
O38 Mn4 1_555 1_555
Mn4 O20 1_555 1_555
O5 Mn5 1_555 1_555
O11 C4 1_555 1_555
O12 Mn5 1_555 1_555
C4 O12 1_555 1_555
O21 Mn9 1_555 1_555
H9 C5 1_555 1_555
C6 O5 1_555 1_555
O21 C6 1_555 1_555
C5 C6 1_555 1_555
O16 Mn9_2 1_555 1_555
O33 Mn10 1_555 1_555
O40 Mn10 1_555 1_555
P1 O16 1_555 1_555
Mn9_3 O14 1_555 1_555
C8 O36 1_555 1_555
O38 C8 1_555 1_555
P4 O24 1_555 1_555
O25 P4 1_555 1_555
O28 P4 1_555 1_555
C7 P4 1_555 1_555
H10 C7 1_555 1_555
O33 C7 1_555 1_555
N1 H11 1_555 1_555
H12 N1 1_555 1_555
H13 N1 1_555 1_555
H14 N1 1_555 1_555
N1_2 H11_2 1_555 1_555
H12_2 N1_2 1_555 1_555
H13_2 N1_2 1_555 1_555
H14_2 N1_2 1_555 1_555

#END
