
###############################################################################
#
# This file contains modified crystal structure data generated from the
# MOF subset of the Cambridge Structural Database (CSD) v543 
# hosted by the Cambridge Crystallographic Data Centre (CCDC).
#
# This work is licensed under the Creative Commons
# Attribution-NonCommercial-ShareAlike 4.0 International License.
# To view a copy of this license, visit
# http://creativecommons.org/licenses/by-nc-sa/4.0/
# or send a letter to
# Creative Commons, PO Box 1866, Mountain View, CA 94042, USA.
#
# CIF created using the CSD Python API on 29 September 2022
# The structure has been converted into the P1 space group
# The structure has a 3D framework
# The original CSD entry QOPPES is in the monoclinic crystal system
# The framework has been calculated to contain at least 10.0% void space
# The void calculation uses a probe of radius 1.32A, grid spacing 0.4
# H atom positions have been added when not included in the experimental data
#
###############################################################################

data_QOPPES
_chemical_formula_moiety         '(C124 H100 Co12 N12 O62)n'
_symmetry_cell_setting           triclinic
_symmetry_space_group_name_H-M   'P 1'
_symmetry_Int_Tables_number      1
_space_group_name_Hall           'P 1'
loop_
_symmetry_equiv_pos_site_id
_symmetry_equiv_pos_as_xyz
1 x,y,z
_cell_length_a                   18.148(4)
_cell_length_b                   9.6650(19)
_cell_length_c                   30.969(6)
_cell_angle_alpha                90
_cell_angle_beta                 90.39(3)
_cell_angle_gamma                90
_cell_volume                     5431.85
loop_
_atom_site_label
_atom_site_type_symbol
_atom_site_fract_x
_atom_site_fract_y
_atom_site_fract_z
C3 C 0.5531(4) 0.1918(8) 0.3152(2)
C4 C 0.4196(4) 0.0475(8) 0.3206(2)
C12 C 0.6249(4) 0.2650(7) 0.3127(2)
C14 C 0.4445(4) 0.0975(9) 0.2813(2)
H3 H 0.4167 0.0830 0.2563
C20 C 0.5106(4) 0.1691(9) 0.2790(2)
H9 H 0.5265 0.2022 0.2524
C21 C 0.4613(5) 0.0726(11) 0.3568(2)
H10 H 0.4451 0.0385 0.3832
C25 C 0.0299(4) 0.0469(11) 0.3530(2)
H14 H 0.0588 0.0424 0.3779
C26 C 0.5249(5) 0.1451(10) 0.3557(2)
H15 H 0.5504 0.1644 0.3812
C31 C 0.9025(8) 0.5255(15) 0.3645(5)
H17 H 0.9118 0.4341 0.3570
Co2 Co 0.75078(4) 0.40284(8) 0.35836(2)
O2 O 0.6560(3) 0.2976(5) 0.34786(15)
O6 O 0.6487(2) 0.2825(5) 0.27541(15)
O15 O 0.9574(8) 0.5975(19) 0.3588(7)
O16 O 0.8414(4) 0.5382(7) 0.3768(2)
Co9 Co 0.74855(4) 0.33180(7) 0.24874(2)
N2 N 0.7370(3) 0.3748(7) 0.42525(17)
O19 O 0.8278(3) 0.2531(6) 0.35283(15)
O21 O 0.7662(3) 0.4867(4) 0.29608(13)
O22 O 0.6981(4) 0.6085(5) 0.33933(18)
C1 C 0.2607(4) 0.2184(6) 0.2242(2)
C2 C 0.3488(4) 0.9674(7) 0.3218(2)
C6 C 0.3003(4) 0.4457(7) 0.2474(2)
H1 H 0.3315 0.5213 0.2443
C7 C 0.0549(4) 0.9873(8) 0.3156(2)
C9 C 0.2465(4) 0.4474(6) 0.2789(2)
C10 C 0.2376(4) 0.5661(7) 0.3087(2)
C11 C 0.1271(4) 0.9134(7) 0.3139(2)
C13 C 0.1981(5) 0.3316(7) 0.2824(2)
H2 H 0.1605 0.3321 0.3026
C16 C 0.3223(5) 0.5949(13) 0.5547(3)
H5 H 0.3620 0.5600 0.5705
C17 C 0.2074(4) 0.2202(7) 0.2559(2)
H6 H 0.1770 0.1435 0.2593
C18 C 0.0112(4) 0.9926(10) 0.2784(2)
H7 H 0.0273 0.9525 0.2529
C19 C 0.3081(4) 0.3328(7) 0.2204(2)
H8 H 0.3449 0.3325 0.1996
C23 C 0.2155(6) 0.7027(13) 0.5078(3)
H12 H 0.1764 0.7411 0.4924
C24 C 0.2096(6) 0.6850(13) 0.5521(3)
H13 H 0.1674 0.7155 0.5661
C27 C 0.2669(4) 0.0989(7) 0.1949(2)
C28 C 0.2769(5) 0.6654(9) 0.4867(2)
C29 C 0.2839(7) 0.6897(11) 0.4391(3)
C30 C 0.3299(7) 0.6116(13) 0.5112(3)
H16 H 0.3737 0.5843 0.4983
Co1 Co 0.24838(4) 0.77783(8) 0.35853(2)
Co3 Co 0.25145(4) 0.83180(7) 0.25126(2)
N1 N 0.2630(3) 0.6252(7) 0.57475(17)
O1 O 0.3092(2) 0.9690(5) 0.28938(15)
O3 O 0.1506(2) 0.8830(5) 0.27787(16)
O4 O 0.3355(3) 0.9023(6) 0.35632(15)
O7 O 0.1576(3) 0.8866(6) 0.34995(16)
O9 O 0.2720(3) 0.6775(5) 0.30146(15)
O11 O 0.3019(4) 0.1085(5) 0.16067(18)
O12 O 0.1986(4) 0.5581(6) 0.3409(2)
O13 O 0.2332(4) 0.7526(8) 0.42096(19)
O14 O 0.3353(6) 0.6439(11) 0.4191(3)
Co6 Co 0.24922(4) 0.59716(8) 0.64164(2)
O17 O 0.1925(3) 0.6922(5) 0.21530(16)
O18 O 0.3513(2) 0.7825(5) 0.22459(15)
O20 O 0.2338(3) 0.9867(4) 0.20392(13)
Co5 Co 0.24922(4) 0.90284(8) 0.14164(2)
C5 C 0.8446(3) 0.1950(7) 0.3185(2)
C8 C 0.9184(4) 0.1194(8) 0.3172(2)
C15 C 0.9419(4) 0.0600(10) 0.2801(2)
H4 H 0.9123 0.0635 0.2555
C22 C 0.9622(4) 0.1137(10) 0.3543(2)
H11 H 0.9463 0.1544 0.3797
O5 O 0.8075(3) 0.1922(5) 0.28470(16)
C5_2 C 0.1554(3) 0.6950(7) 0.1815(2)
C8_2 C 0.0816(4) 0.6194(8) 0.1828(2)
C15_2 C 0.0581(4) 0.5600(10) 0.2199(2)
H4_2 H 0.0877 0.5635 0.2445
C22_2 C 0.0378(4) 0.6137(10) 0.1457(2)
H11_2 H 0.0537 0.6544 0.1203
O8 O 0.1722(3) 0.7531(6) 0.14717(15)
C31_2 C 0.0975(8) 0.0255(15) 0.1355(5)
O15_2 O 0.0426(8) 0.0975(19) 0.1412(7)
O16_2 O 0.1586(4) 0.0382(7) 0.1232(2)
C2_2 C 0.6512(4) 0.4674(7) 0.1782(2)
C3_2 C 0.4469(4) 0.6918(8) 0.1848(2)
C4_2 C 0.5804(4) 0.5475(8) 0.1794(2)
H1_2 H 0.6685 0.0213 0.2557
C7_2 C 0.9451(4) 0.4873(8) 0.1844(2)
C10_2 C 0.7624(4) 0.0661(7) 0.1913(2)
C11_2 C 0.8729(4) 0.4134(7) 0.1861(2)
C12_2 C 0.3751(4) 0.7650(7) 0.1873(2)
C14_2 C 0.5555(4) 0.5975(9) 0.2187(2)
H3_2 H 0.5833 0.5830 0.2437
C18_2 C 0.9888(4) 0.4926(10) 0.2216(2)
H7_2 H 0.9727 0.4525 0.2471
C20_2 C 0.4894(4) 0.6691(9) 0.2210(2)
H9_2 H 0.4735 0.7022 0.2476
C21_2 C 0.5387(5) 0.5726(11) 0.1432(2)
H10_2 H 0.5549 0.5385 0.1168
H12_2 H 0.8236 0.2411 0.0076
C25_2 C 0.9701(4) 0.5469(11) 0.1470(2)
H14_2 H 0.9412 0.5424 0.1221
C26_2 C 0.4751(5) 0.6451(10) 0.1443(2)
H15_2 H 0.4496 0.6644 0.1188
C28_2 C 0.7231(5) 0.1654(9) 0.0133(2)
C29_2 C 0.7161(7) 0.1897(11) 0.0609(3)
H16_2 H 0.6263 0.0843 0.0017
H17_2 H 0.0882 0.9341 0.1430
Co1_2 Co 0.75162(4) 0.27783(8) 0.14147(2)
O1_2 O 0.6908(2) 0.4690(5) 0.21062(15)
O2_2 O 0.3440(3) 0.7976(5) 0.15214(15)
O3_2 O 0.8494(2) 0.3830(5) 0.22213(16)
O4_2 O 0.6645(3) 0.4023(6) 0.14368(15)
O7_2 O 0.8424(3) 0.3866(6) 0.15005(16)
O9_2 O 0.7280(3) 0.1775(5) 0.19854(15)
O12_2 O 0.8014(4) 0.0581(6) 0.1591(2)
O13_2 O 0.7668(4) 0.2526(8) 0.07904(19)
O14_2 O 0.6647(6) 0.1439(11) 0.0809(3)
N2_2 N 0.2630(3) 0.8748(7) 0.07475(17)
C16_2 C 0.6777(5) 0.0949(13) 0.9453(3)
H5_2 H 0.6380 0.0600 0.9295
C23_2 C 0.7845(6) 0.2027(13) 0.9922(3)
C24_2 C 0.7904(6) 0.1850(13) 0.9479(3)
H13_2 H 0.8326 0.2155 0.9339
C30_2 C 0.6701(7) 0.1116(13) 0.9888(3)
N1_2 N 0.7370(3) 0.1252(7) 0.92525(17)
Co6_2 Co 0.75078(4) 0.09716(8) 0.85836(2)
C1_2 C 0.7393(4) 0.7184(6) 0.2758(2)
C6_2 C 0.6997(4) 0.9457(7) 0.2526(2)
C9_2 C 0.7535(4) 0.9474(6) 0.2211(2)
C13_2 C 0.8019(5) 0.8316(7) 0.2176(2)
H2_2 H 0.8395 0.8321 0.1974
C17_2 C 0.7926(4) 0.7202(7) 0.2441(2)
H6_2 H 0.8230 0.6435 0.2407
C19_2 C 0.6919(4) 0.8328(7) 0.2796(2)
H8_2 H 0.6551 0.8325 0.3004
C27_2 C 0.7331(4) 0.5989(7) 0.3051(2)
C5_3 C 0.1554(3) 0.8050(7) 0.6815(2)
C8_3 C 0.0816(4) 0.8806(8) 0.6828(2)
C15_3 C 0.0581(4) 0.9400(10) 0.7199(2)
H4_3 H 0.0877 0.9365 0.7445
C22_3 C 0.0378(4) 0.8863(10) 0.6457(2)
H11_3 H 0.0537 0.8456 0.6203
O5_2 O 0.1925(3) 0.8078(5) 0.71530(16)
O8_2 O 0.1722(3) 0.7469(6) 0.64717(15)
Co8 Co 0.25145(4) 0.66820(7) 0.75126(2)
O10 O 0.7662(3) 0.0133(4) 0.79608(13)
Co7 Co 0.74855(4) 0.16820(7) 0.74874(2)
C1_3 C 0.7393(4) 0.7816(6) 0.7758(2)
C2_3 C 0.6512(4) 0.0326(7) 0.6782(2)
C6_3 C 0.6997(4) 0.5543(7) 0.7526(2)
H1_3 H 0.6685 0.4787 0.7557
C7_3 C 0.9451(4) 0.0127(8) 0.6844(2)
C9_3 C 0.7535(4) 0.5526(6) 0.7211(2)
C10_3 C 0.7624(4) 0.4339(7) 0.6913(2)
C11_3 C 0.8729(4) 0.0866(7) 0.6861(2)
C13_3 C 0.8019(5) 0.6684(7) 0.7176(2)
H2_3 H 0.8395 0.6679 0.6974
C16_3 C 0.6777(5) 0.4051(13) 0.4453(3)
H5_3 H 0.6380 0.4400 0.4295
C17_3 C 0.7926(4) 0.7798(7) 0.7441(2)
H6_3 H 0.8230 0.8565 0.7407
C18_3 C 0.9888(4) 0.0074(10) 0.7216(2)
H7_3 H 0.9727 0.0475 0.7471
C19_3 C 0.6919(4) 0.6672(7) 0.7796(2)
H8_3 H 0.6551 0.6675 0.8004
C23_3 C 0.7845(6) 0.2973(13) 0.4922(3)
H12_3 H 0.8236 0.2589 0.5076
C24_3 C 0.7904(6) 0.3150(13) 0.4479(3)
H13_3 H 0.8326 0.2845 0.4339
C27_3 C 0.7331(4) 0.9011(7) 0.8051(2)
C28_3 C 0.7231(5) 0.3346(9) 0.5133(2)
C29_3 C 0.7161(7) 0.3103(11) 0.5609(3)
C30_3 C 0.6701(7) 0.3884(13) 0.4888(3)
H16_3 H 0.6263 0.4157 0.5017
Co1_3 Co 0.75162(4) 0.22217(8) 0.64147(2)
O1_3 O 0.6908(2) 0.0310(5) 0.71062(15)
O3_3 O 0.8494(2) 0.1170(5) 0.72213(16)
O4_3 O 0.6645(3) 0.0977(6) 0.64368(15)
O7_3 O 0.8424(3) 0.1134(6) 0.65005(16)
O9_3 O 0.7280(3) 0.3225(5) 0.69854(15)
O11_2 O 0.6981(4) 0.8915(5) 0.83933(18)
O12_3 O 0.8014(4) 0.4419(6) 0.6591(2)
O13_3 O 0.7668(4) 0.2474(8) 0.57904(19)
O14_3 O 0.6647(6) 0.3561(11) 0.5809(3)
O17_2 O 0.8075(3) 0.3078(5) 0.78470(16)
O18_2 O 0.6487(2) 0.2175(5) 0.77541(15)
C3_3 C 0.4469(4) 0.8082(8) 0.6848(2)
C4_3 C 0.5804(4) 0.9525(8) 0.6794(2)
C12_3 C 0.3751(4) 0.7350(7) 0.6873(2)
C14_3 C 0.5555(4) 0.9025(9) 0.7187(2)
H3_3 H 0.5833 0.9170 0.7437
C20_3 C 0.4894(4) 0.8309(9) 0.7210(2)
H9_3 H 0.4735 0.7978 0.7476
C21_3 C 0.5387(5) 0.9274(11) 0.6432(2)
H10_3 H 0.5549 0.9615 0.6168
C25_3 C 0.9701(4) 0.9531(11) 0.6470(2)
H14_3 H 0.9412 0.9576 0.6221
C26_3 C 0.4751(5) 0.8549(10) 0.6443(2)
H15_3 H 0.4496 0.8356 0.6188
C31_3 C 0.0975(8) 0.4745(15) 0.6355(5)
H17_3 H 0.0882 0.5659 0.6430
O2_3 O 0.3440(3) 0.7024(5) 0.65214(15)
O6_2 O 0.3513(2) 0.7175(5) 0.72459(15)
O15_3 O 0.0426(8) 0.4025(19) 0.6412(7)
O16_3 O 0.1586(4) 0.4618(7) 0.6232(2)
O21_2 O 0.2338(3) 0.5133(4) 0.70392(13)
O22_2 O 0.3019(4) 0.3915(5) 0.66067(18)
C1_4 C 0.2607(4) 0.2816(6) 0.7242(2)
C6_4 C 0.3003(4) 0.0543(7) 0.7474(2)
C9_4 C 0.2465(4) 0.0526(6) 0.7789(2)
C13_4 C 0.1981(5) 0.1684(7) 0.7824(2)
H2_4 H 0.1605 0.1679 0.8026
C17_4 C 0.2074(4) 0.2798(7) 0.7559(2)
H6_4 H 0.1770 0.3565 0.7593
C19_4 C 0.3081(4) 0.1672(7) 0.7204(2)
H8_4 H 0.3449 0.1675 0.6996
C27_4 C 0.2669(4) 0.4011(7) 0.6949(2)
C16_4 C 0.3223(5) 0.9051(13) 0.0547(3)
H5_4 H 0.3620 0.9400 0.0705
C23_4 C 0.2155(6) 0.7973(13) 0.0078(3)
C24_4 C 0.2096(6) 0.8150(13) 0.0521(3)
H13_4 H 0.1674 0.7845 0.0661
C30_4 C 0.3299(7) 0.8884(13) 0.0112(3)
C2_4 C 0.3488(4) 0.5326(7) 0.8218(2)
C3_4 C 0.5531(4) 0.3082(8) 0.8152(2)
C4_4 C 0.4196(4) 0.4525(8) 0.8206(2)
H1_4 H 0.3315 0.9787 0.7443
C7_4 C 0.0549(4) 0.5127(8) 0.8156(2)
C10_4 C 0.2376(4) 0.9339(7) 0.8087(2)
C11_4 C 0.1271(4) 0.5866(7) 0.8139(2)
C12_4 C 0.6249(4) 0.2350(7) 0.8127(2)
C14_4 C 0.4445(4) 0.4025(9) 0.7813(2)
H3_4 H 0.4167 0.4170 0.7563
C18_4 C 0.0112(4) 0.5074(10) 0.7784(2)
H7_4 H 0.0273 0.5475 0.7529
C20_4 C 0.5106(4) 0.3309(9) 0.7790(2)
H9_4 H 0.5265 0.2978 0.7524
C21_4 C 0.4613(5) 0.4274(11) 0.8568(2)
H10_4 H 0.4451 0.4615 0.8832
H12_4 H 0.1764 0.7589 0.9924
C25_4 C 0.0299(4) 0.4531(11) 0.8530(2)
H14_4 H 0.0588 0.4576 0.8779
C26_4 C 0.5249(5) 0.3549(10) 0.8557(2)
H15_4 H 0.5504 0.3356 0.8812
C28_4 C 0.2769(5) 0.8346(9) 0.9867(2)
C29_4 C 0.2839(7) 0.8103(11) 0.9391(3)
H16_4 H 0.3737 0.9157 0.9983
H17_4 H 0.9118 0.0659 0.8570
Co1_4 Co 0.24838(4) 0.72217(8) 0.85853(2)
O1_4 O 0.3092(2) 0.5310(5) 0.78938(15)
O2_4 O 0.6560(3) 0.2024(5) 0.84786(15)
O3_4 O 0.1506(2) 0.6170(5) 0.77787(16)
O4_4 O 0.3355(3) 0.5977(6) 0.85632(15)
O7_4 O 0.1576(3) 0.6134(6) 0.84995(16)
O9_4 O 0.2720(3) 0.8225(5) 0.80146(15)
O12_4 O 0.1986(4) 0.9419(6) 0.8409(2)
O13_4 O 0.2332(4) 0.7474(8) 0.92096(19)
O14_4 O 0.3353(6) 0.8561(11) 0.9191(3)
O19_2 O 0.8278(3) 0.2469(6) 0.85283(15)
C31_4 C 0.9025(8) 0.9745(15) 0.8645(5)
O15_4 O 0.9574(8) 0.9025(19) 0.8588(7)
O16_4 O 0.8414(4) 0.9618(7) 0.8768(2)
C5_4 C 0.8446(3) 0.3050(7) 0.8185(2)
C8_4 C 0.9184(4) 0.3806(8) 0.8172(2)
C15_4 C 0.9419(4) 0.4400(10) 0.7801(2)
H4_4 H 0.9123 0.4365 0.7555
C22_4 C 0.9622(4) 0.3863(10) 0.8543(2)
H11_4 H 0.9463 0.3456 0.8797
N3 N 0.2689(19) 0.399(2) 0.0840(8)
H18 H 0.324829 0.399 0.084
H19 H 0.250078 0.484747 0.0685495
H20 H 0.250078 0.313253 0.0685495
H21 H 0.250616 0.399 0.114901
N3_2 N 0.7311(19) 0.899(2) 0.4160(8)
H18_2 H 0.675171 0.899 0.416
H19_2 H 0.749922 0.984747 0.431451
H20_2 H 0.749922 0.813253 0.431451
H21_2 H 0.749384 0.899 0.385099
N3_3 N 0.7311(19) 0.601(2) 0.9160(8)
H18_3 H 0.675171 0.601 0.916
H19_3 H 0.749922 0.515253 0.931451
H20_3 H 0.749922 0.686747 0.931451
H21_3 H 0.749384 0.601 0.885099
N3_4 N 0.2689(19) 0.101(2) 0.5840(8)
H18_4 H 0.324829 0.101 0.584
H19_4 H 0.250078 0.0152531 0.568549
H20_4 H 0.250078 0.186747 0.568549
H21_4 H 0.250616 0.101 0.614901
N4 N 0.491(2) 0.511(5) 0.410(5)
H22 H 0.546929 0.511 0.41
H23 H 0.472178 0.596747 0.394549
H24 H 0.472178 0.425253 0.394549
H25 H 0.472716 0.511 0.440901
N4_2 N 0.509(2) 0.011(5) 0.090(5)
H22_2 H 0.453071 0.011 0.09
H23_2 H 0.527822 0.0967469 0.105451
H25_2 H 0.527284 0.011 0.059099
H24_2 H 0.527822 0.925253 0.105451
N4_3 N 0.509(2) 0.489(5) 0.590(5)
H22_3 H 0.453071 0.489 0.59
H23_3 H 0.527822 0.403253 0.605451
H24_3 H 0.527822 0.574747 0.605451
H25_3 H 0.527284 0.489 0.559099
H24_4 H 0.472178 0.0747469 0.894549
N4_4 N 0.491(2) 0.989(5) 0.910(5)
H22_4 H 0.546929 0.989 0.91
H23_4 H 0.472178 0.903253 0.894549
H25_4 H 0.472716 0.989 0.940901
loop_
_geom_bond_atom_site_label_1
_geom_bond_atom_site_label_2
_geom_bond_site_symmetry_1
_geom_bond_site_symmetry_2
C3 C12 1_555 1_555
C4 C14 1_555 1_555
C12 O2 1_555 1_555
C14 H3 1_555 1_555
C20 C3 1_555 1_555
H9 C20 1_555 1_555
C21 C4 1_555 1_555
H10 C21 1_555 1_555
H14 C25 1_555 1_555
C26 C3 1_555 1_555
H15 C26 1_555 1_555
C31 H17 1_555 1_555
Co2 O2 1_555 1_555
O6 C12 1_555 1_555
O15 C31 1_555 1_555
O16 C31 1_555 1_555
Co9 O6 1_555 1_555
N2 Co2 1_555 1_555
O19 Co2 1_555 1_555
O21 Co2 1_555 1_555
O22 Co2 1_555 1_555
C14 C20 1_555 1_555
C21 C26 1_555 1_555
Co2 O16 1_555 1_555
Co9 O21 1_555 1_555
C1 C17 1_555 1_555
C6 H1 1_555 1_555
C7 C11 1_555 1_555
C9 C6 1_555 1_555
C10 C9 1_555 1_555
C11 O3 1_555 1_555
C13 C9 1_555 1_555
H2 C13 1_555 1_555
C16 H5 1_555 1_555
C17 C13 1_555 1_555
H6 C17 1_555 1_555
C18 C7 1_555 1_555
H7 C18 1_555 1_555
C19 C1 1_555 1_555
H8 C19 1_555 1_555
C23 H12 1_555 1_555
C24 C23 1_555 1_555
H13 C24 1_555 1_555
C27 C1 1_555 1_555
C28 C23 1_555 1_555
C29 C28 1_555 1_555
C30 C16 1_555 1_555
H16 C30 1_555 1_555
Co1 O4 1_555 1_555
Co3 O1 1_555 1_555
N1 C16 1_555 1_555
O1 C2 1_555 1_555
O3 Co3 1_555 1_555
O4 C2 1_555 1_555
O7 C11 1_555 1_555
O9 C10 1_555 1_555
O11 C27 1_555 1_555
O12 C10 1_555 1_555
O13 C29 1_555 1_555
O14 C29 1_555 1_555
Co6 N1 1_555 1_555
O17 Co3 1_555 1_555
O18 Co3 1_555 1_555
O20 Co3 1_555 1_555
C6 C19 1_555 1_555
C24 N1 1_555 1_555
C28 C30 1_555 1_555
Co1 O7 1_555 1_555
Co1 O9 1_555 1_555
Co1 O12 1_555 1_555
Co1 O13 1_555 1_555
Co3 O9 1_555 1_555
Co5 O20 1_555 1_555
C5 C8 1_555 1_555
C8 C15 1_555 1_555
C15 H4 1_555 1_555
C22 C8 1_555 1_555
H11 C22 1_555 1_555
O5 C5 1_555 1_555
O19 C5 1_555 1_555
Co9 O5 1_555 1_555
C5_2 C8_2 1_555 1_555
C8_2 C15_2 1_555 1_555
C15_2 H4_2 1_555 1_555
C22_2 C8_2 1_555 1_555
H11_2 C22_2 1_555 1_555
O17 C5_2 1_555 1_555
O8 C5_2 1_555 1_555
Co5 O8 1_555 1_555
O15_2 C31_2 1_555 1_555
O16_2 C31_2 1_555 1_555
C2_2 C4_2 1_555 1_555
C3_2 C12_2 1_555 1_555
C4_2 C14_2 1_555 1_555
C7_2 C11_2 1_555 1_555
C11_2 O3_2 1_555 1_555
C12_2 O2_2 1_555 1_555
C14_2 H3_2 1_555 1_555
C18_2 C7_2 1_555 1_555
H7_2 C18_2 1_555 1_555
C20_2 C3_2 1_555 1_555
H9_2 C20_2 1_555 1_555
C21_2 C4_2 1_555 1_555
H10_2 C21_2 1_555 1_555
C25_2 C7_2 1_555 1_555
H14_2 C25_2 1_555 1_555
C26_2 C3_2 1_555 1_555
H15_2 C26_2 1_555 1_555
C29_2 C28_2 1_555 1_555
Co1_2 O4_2 1_555 1_555
Co5 O2_2 1_555 1_555
Co9 O1_2 1_555 1_555
O1_2 C2_2 1_555 1_555
O3_2 Co9 1_555 1_555
O4_2 C2_2 1_555 1_555
O18 C12_2 1_555 1_555
O7_2 C11_2 1_555 1_555
O9_2 C10_2 1_555 1_555
O12_2 C10_2 1_555 1_555
O13_2 C29_2 1_555 1_555
O14_2 C29_2 1_555 1_555
N2_2 Co5 1_555 1_555
C14_2 C20_2 1_555 1_555
C21_2 C26_2 1_555 1_555
Co1_2 O7_2 1_555 1_555
Co1_2 O9_2 1_555 1_555
Co1_2 O12_2 1_555 1_555
Co1_2 O13_2 1_555 1_555
Co9 O9_2 1_555 1_555
C16_2 H5_2 1_555 1_555
C24_2 C23_2 1_555 1_555
H13_2 C24_2 1_555 1_555
C30_2 C16_2 1_555 1_555
N1_2 C16_2 1_555 1_555
Co6_2 N1_2 1_555 1_555
C24_2 N1_2 1_555 1_555
C1_2 C17_2 1_555 1_555
C9_2 C6_2 1_555 1_555
C13_2 C9_2 1_555 1_555
H2_2 C13_2 1_555 1_555
C17_2 C13_2 1_555 1_555
H6_2 C17_2 1_555 1_555
C19_2 C1_2 1_555 1_555
H8_2 C19_2 1_555 1_555
C27_2 C1_2 1_555 1_555
O21 C27_2 1_555 1_555
O22 C27_2 1_555 1_555
C6_2 C19_2 1_555 1_555
C5_3 C8_3 1_555 1_555
C8_3 C15_3 1_555 1_555
C15_3 H4_3 1_555 1_555
C22_3 C8_3 1_555 1_555
H11_3 C22_3 1_555 1_555
O5_2 C5_3 1_555 1_555
O8_2 C5_3 1_555 1_555
Co6 O8_2 1_555 1_555
Co8 O5_2 1_555 1_555
Co6_2 O10 1_555 1_555
Co7 O10 1_555 1_555
C1_3 C17_3 1_555 1_555
C6_3 H1_3 1_555 1_555
C7_3 C11_3 1_555 1_555
C9_3 C6_3 1_555 1_555
C10_3 C9_3 1_555 1_555
C11_3 O3_3 1_555 1_555
C13_3 C9_3 1_555 1_555
H2_3 C13_3 1_555 1_555
C16_3 H5_3 1_555 1_555
C17_3 C13_3 1_555 1_555
H6_3 C17_3 1_555 1_555
C18_3 C7_3 1_555 1_555
H7_3 C18_3 1_555 1_555
C19_3 C1_3 1_555 1_555
H8_3 C19_3 1_555 1_555
C23_3 H12_3 1_555 1_555
C24_3 C23_3 1_555 1_555
H13_3 C24_3 1_555 1_555
C27_3 C1_3 1_555 1_555
C28_3 C23_3 1_555 1_555
C29_3 C28_3 1_555 1_555
C30_3 C16_3 1_555 1_555
H16_3 C30_3 1_555 1_555
Co1_3 O4_3 1_555 1_555
Co7 O1_3 1_555 1_555
N2 C16_3 1_555 1_555
O1_3 C2_3 1_555 1_555
O3_3 Co7 1_555 1_555
O4_3 C2_3 1_555 1_555
O7_3 C11_3 1_555 1_555
O9_3 C10_3 1_555 1_555
O11_2 C27_3 1_555 1_555
O12_3 C10_3 1_555 1_555
O13_3 C29_3 1_555 1_555
O14_3 C29_3 1_555 1_555
O17_2 Co7 1_555 1_555
O18_2 Co7 1_555 1_555
C6_3 C19_3 1_555 1_555
C24_3 N2 1_555 1_555
C28_3 C30_3 1_555 1_555
Co1_3 O7_3 1_555 1_555
Co1_3 O9_3 1_555 1_555
Co1_3 O12_3 1_555 1_555
Co1_3 O13_3 1_555 1_555
Co7 O9_3 1_555 1_555
C3_3 C12_3 1_555 1_555
C4_3 C14_3 1_555 1_555
C12_3 O2_3 1_555 1_555
C14_3 H3_3 1_555 1_555
C20_3 C3_3 1_555 1_555
H9_3 C20_3 1_555 1_555
C21_3 C4_3 1_555 1_555
H10_3 C21_3 1_555 1_555
H14_3 C25_3 1_555 1_555
C26_3 C3_3 1_555 1_555
H15_3 C26_3 1_555 1_555
C31_3 H17_3 1_555 1_555
Co6 O2_3 1_555 1_555
O6_2 C12_3 1_555 1_555
O15_3 C31_3 1_555 1_555
O16_3 C31_3 1_555 1_555
Co8 O6_2 1_555 1_555
O21_2 Co6 1_555 1_555
O22_2 Co6 1_555 1_555
C14_3 C20_3 1_555 1_555
C21_3 C26_3 1_555 1_555
Co6 O16_3 1_555 1_555
Co8 O21_2 1_555 1_555
C1_4 C17_4 1_555 1_555
C9_4 C6_4 1_555 1_555
C13_4 C9_4 1_555 1_555
H2_4 C13_4 1_555 1_555
C17_4 C13_4 1_555 1_555
H6_4 C17_4 1_555 1_555
C19_4 C1_4 1_555 1_555
H8_4 C19_4 1_555 1_555
C27_4 C1_4 1_555 1_555
O21_2 C27_4 1_555 1_555
O22_2 C27_4 1_555 1_555
C6_4 C19_4 1_555 1_555
C16_4 H5_4 1_555 1_555
C24_4 C23_4 1_555 1_555
H13_4 C24_4 1_555 1_555
C30_4 C16_4 1_555 1_555
N2_2 C16_4 1_555 1_555
C24_4 N2_2 1_555 1_555
C2_4 C4_4 1_555 1_555
C3_4 C12_4 1_555 1_555
C4_4 C14_4 1_555 1_555
C7_4 C11_4 1_555 1_555
C11_4 O3_4 1_555 1_555
C12_4 O2_4 1_555 1_555
C14_4 H3_4 1_555 1_555
C18_4 C7_4 1_555 1_555
H7_4 C18_4 1_555 1_555
C20_4 C3_4 1_555 1_555
H9_4 C20_4 1_555 1_555
C21_4 C4_4 1_555 1_555
H10_4 C21_4 1_555 1_555
C25_4 C7_4 1_555 1_555
H14_4 C25_4 1_555 1_555
C26_4 C3_4 1_555 1_555
H15_4 C26_4 1_555 1_555
C29_4 C28_4 1_555 1_555
Co1_4 O4_4 1_555 1_555
Co6_2 O2_4 1_555 1_555
Co8 O1_4 1_555 1_555
O1_4 C2_4 1_555 1_555
O3_4 Co8 1_555 1_555
O4_4 C2_4 1_555 1_555
O18_2 C12_4 1_555 1_555
O7_4 C11_4 1_555 1_555
O9_4 C10_4 1_555 1_555
O12_4 C10_4 1_555 1_555
O13_4 C29_4 1_555 1_555
O14_4 C29_4 1_555 1_555
O19_2 Co6_2 1_555 1_555
C14_4 C20_4 1_555 1_555
C21_4 C26_4 1_555 1_555
Co1_4 O7_4 1_555 1_555
Co1_4 O9_4 1_555 1_555
Co1_4 O12_4 1_555 1_555
Co1_4 O13_4 1_555 1_555
Co8 O9_4 1_555 1_555
O15_4 C31_4 1_555 1_555
O16_4 C31_4 1_555 1_555
C5_4 C8_4 1_555 1_555
C8_4 C15_4 1_555 1_555
C15_4 H4_4 1_555 1_555
C22_4 C8_4 1_555 1_555
H11_4 C22_4 1_555 1_555
O17_2 C5_4 1_555 1_555
O19_2 C5_4 1_555 1_555
N3 H18 1_555 1_555
N3 H19 1_555 1_555
N3 H20 1_555 1_555
N3 H21 1_555 1_555
N3_2 H18_2 1_555 1_555
N3_2 H19_2 1_555 1_555
N3_2 H20_2 1_555 1_555
N3_2 H21_2 1_555 1_555
N3_3 H18_3 1_555 1_555
N3_3 H19_3 1_555 1_555
N3_3 H20_3 1_555 1_555
N3_3 H21_3 1_555 1_555
N3_4 H18_4 1_555 1_555
N3_4 H19_4 1_555 1_555
N3_4 H20_4 1_555 1_555
N3_4 H21_4 1_555 1_555
N4 H22 1_555 1_555
N4 H23 1_555 1_555
N4 H24 1_555 1_555
N4 H25 1_555 1_555
N4_2 H22_2 1_555 1_555
N4_2 H23_2 1_555 1_555
N4_2 H25_2 1_555 1_555
N4_3 H22_3 1_555 1_555
N4_3 H23_3 1_555 1_555
N4_3 H24_3 1_555 1_555
N4_3 H25_3 1_555 1_555
N4_4 H22_4 1_555 1_555
N4_4 H23_4 1_555 1_555
N4_4 H25_4 1_555 1_555

#END
