
###############################################################################
#
# This file contains modified crystal structure data generated from the
# MOF subset of the Cambridge Structural Database (CSD) v543 
# hosted by the Cambridge Crystallographic Data Centre (CCDC).
#
# This work is licensed under the Creative Commons
# Attribution-NonCommercial-ShareAlike 4.0 International License.
# To view a copy of this license, visit
# http://creativecommons.org/licenses/by-nc-sa/4.0/
# or send a letter to
# Creative Commons, PO Box 1866, Mountain View, CA 94042, USA.
#
# CIF created using the CSD Python API on 29 September 2022
# The structure has been converted into the P1 space group
# The structure has a 3D framework
# The original CSD entry QOPZIF is in the orthorhombic crystal system
# The original CSD entry QOPZIF is in a Sohncke space group
# The framework has been calculated to contain at least 10.0% void space
# The void calculation uses a probe of radius 1.32A, grid spacing 0.4
#
###############################################################################

data_QOPZIF
_chemical_formula_moiety         '(C132 H128 N8 O60 Zn16)n'
_symmetry_cell_setting           triclinic
_symmetry_space_group_name_H-M   'P 1'
_symmetry_Int_Tables_number      1
_space_group_name_Hall           'P 1'
loop_
_symmetry_equiv_pos_site_id
_symmetry_equiv_pos_as_xyz
1 x,y,z
_cell_length_a                   16.215(3)
_cell_length_b                   17.174(3)
_cell_length_c                   18.104(4)
_cell_angle_alpha                90
_cell_angle_beta                 90
_cell_angle_gamma                90
_cell_volume                     5041.54
loop_
_atom_site_label
_atom_site_type_symbol
_atom_site_fract_x
_atom_site_fract_y
_atom_site_fract_z
Zn3 Zn 0.11164(4) 0.73093(4) 0.17930(4)
O3 O 0.0614(3) 0.5881(3) 0.2701(3)
O4 O 0.0057(3) 0.6838(3) 0.2034(3)
C9 C 0.0029(4) 0.6210(4) 0.2386(4)
Zn9 Zn 0.18928(5) 0.57961(4) 0.27090(4)
O18 O 0.1076(3) 0.8409(3) 0.2118(3)
O20 O 0.1000(3) 0.7377(3) 0.0703(3)
O23 O 0.2097(2) 0.6745(2) 0.2058(2)
Zn1 Zn 0.72145(4) 0.24322(4) 0.23767(4)
O5 O 0.6160(3) 0.1883(3) 0.3886(3)
O6 O 0.6095(3) 0.2490(3) 0.2789(3)
O7 O 0.8924(3) 0.3409(3) 0.2882(3)
O8 O 0.7612(3) 0.3509(3) 0.2531(3)
O9 O 0.7063(3) 0.2359(3) 0.1328(2)
O10 O 0.8018(3) 0.1434(3) 0.1222(3)
O11 O 0.4000(3) 0.2623(3) 0.5703(3)
O12 O 0.2833(3) 0.3185(3) 0.5303(3)
O13 O 0.7903(2) 0.1745(2) 0.2942(2)
H1 H 0.7772 0.0689 0.0043
C4 C 0.7147(5) 0.1688(4) 0.0190(4)
H2 H 0.6390 0.2624 0.0169
C10 C 0.9201(4) 0.5805(4) 0.2419(4)
C11 C 0.9154(4) 0.5023(4) 0.2566(4)
H7 H 0.9640 0.4732 0.2663
C12 C 0.8388(4) 0.4658(4) 0.2572(4)
C13 C 0.7670(4) 0.5102(4) 0.2467(4)
H8 H 0.7149 0.4849 0.2471
C14 C 0.7702(5) 0.5899(4) 0.2358(5)
C15 C 0.8489(5) 0.6244(4) 0.2318(5)
H9 H 0.8534 0.6786 0.2221
C16 C 0.6924(6) 0.6360(5) 0.2273(6)
H10 H 0.6447 0.6014 0.2325
H11 H 0.6913 0.6604 0.1783
H12 H 0.6902 0.6765 0.2654
C17 C 0.5804(4) 0.2289(4) 0.3396(3)
C18 C 0.4946(4) 0.2587(4) 0.3560(4)
C19 C 0.4480(4) 0.2918(4) 0.3011(4)
H13 H 0.4694 0.2929 0.2523
C20 C 0.3707(4) 0.3237(4) 0.3141(4)
C21 C 0.3405(4) 0.3216(4) 0.3859(4)
H14 H 0.2879 0.3434 0.3964
C22 C 0.3862(4) 0.2879(4) 0.4429(3)
C23 C 0.4630(4) 0.2560(4) 0.4280(3)
H15 H 0.4940 0.2324 0.4665
C24 C 0.3208(5) 0.3588(5) 0.2510(4)
H16 H 0.3523 0.3550 0.2050
H17 H 0.3092 0.4137 0.2618
H18 H 0.2687 0.3304 0.2458
C25 C 0.8305(4) 0.3786(4) 0.2673(4)
C26 C 0.7452(4) 0.1832(4) 0.0967(4)
C27 C 0.3537(4) 0.2897(4) 0.5210(4)
Zn5 Zn 0.72701(4) 0.14339(4) 0.37971(4)
Zn6 Zn 0.22701(4) 0.35661(4) 0.62029(4)
Zn7 Zn 0.88836(4) 0.23093(4) 0.32070(4)
Zn8 Zn 0.38836(4) 0.26907(4) 0.67930(4)
Zn10 Zn 0.81072(5) 0.07961(4) 0.22910(4)
Zn2 Zn 0.77299(4) 0.85661(4) 0.87971(4)
Zn4 Zn 0.68928(5) 0.92039(4) 0.72910(4)
O1 O 0.7766(3) 0.9673(3) 0.9026(3)
O2 O 0.6846(4) 0.9978(3) 0.8153(3)
O14 O 0.8191(3) 0.9277(3) 0.7162(3)
N2 N 0.9171(4) 0.9410(4) 0.6253(4)
C28 C 0.8470(5) 0.9594(5) 0.6589(4)
C29 C 0.9447(6) 0.9804(7) 0.5604(5)
H21 H 0.9492 0.9431 0.5196
C30 C 0.9689(6) 0.8768(7) 0.6510(7)
H23 H 0.9435 0.8527 0.6946
H25 H 0.9741 0.8378 0.6118
H26 H 0.5897 0.9644 0.6034
O16 O 0.5614(3) 0.9119(3) 0.7299(3)
O17 O 0.8840(3) 0.8117(3) 0.8886(3)
O19 O 0.6982(3) 0.8566(3) 0.6222(3)
O21 O 0.7167(3) 0.8185(3) 0.9697(3)
O22 O 0.7097(2) 0.8255(2) 0.7942(2)
O12_2 O 0.2167(3) 0.6815(3) 0.0303(3)
C27_2 C 0.1463(4) 0.7103(4) 0.0210(4)
Zn6_2 Zn 0.27299(4) 0.64339(4) 0.12029(4)
O1_2 O 0.7234(3) 0.0327(3) 0.4026(3)
O2_2 O 0.8154(4) 0.0022(3) 0.3153(3)
O14_2 O 0.6809(3) 0.0723(3) 0.2162(3)
N2_2 N 0.5829(4) 0.0590(4) 0.1253(4)
C28_2 C 0.6530(5) 0.0406(5) 0.1589(4)
C29_2 C 0.5553(6) 0.0196(7) 0.0604(5)
H21_2 H 0.5508 0.0569 0.0196
C30_2 C 0.5311(6) 0.1232(7) 0.1510(7)
H23_2 H 0.5565 0.1473 0.1946
H24 H 0.4764 0.1033 0.1640
H25_2 H 0.5259 0.1622 0.1118
H26_2 H 0.9103 0.0356 0.1034
O16_2 O 0.9386(3) 0.0881(3) 0.2299(3)
O21_2 O 0.7833(3) 0.1815(3) 0.4697(3)
Zn1_2 Zn 0.77855(4) 0.75678(4) 0.73767(4)
O3_2 O 0.4386(3) 0.4119(3) 0.7701(3)
O4_2 O 0.4943(3) 0.3162(3) 0.7034(3)
O6_2 O 0.8905(3) 0.7510(3) 0.7789(3)
O7_2 O 0.6076(3) 0.6591(3) 0.7882(3)
O8_2 O 0.7388(3) 0.6491(3) 0.7531(3)
O9_2 O 0.7937(3) 0.7641(3) 0.6328(2)
O15 O 0.8307(3) 0.9831(3) 0.1596(3)
N1 N 0.9307(5) 0.9240(4) 0.0920(4)
C1 C 0.7767(4) 0.9882(3) 0.3740(4)
C2 C 0.7962(5) 0.9134(4) 0.4135(4)
C3 C 0.7620(5) 0.8968(4) 0.4829(4)
H1_2 H 0.7228 0.9311 0.5043
C4_2 C 0.7853(5) 0.8312(4) 0.5190(4)
C5 C 0.8433(6) 0.7816(4) 0.4892(4)
H2_2 H 0.8610 0.7376 0.5169
C6 C 0.8768(6) 0.7947(5) 0.4190(4)
C7 C 0.8536(5) 0.8621(5) 0.3824(4)
H3 H 0.8771 0.8737 0.3355
C8 C 0.9395(7) 0.7395(6) 0.3868(6)
H4 H 0.9566 0.7582 0.3380
H5 H 0.9150 0.6875 0.3820
H6 H 0.9877 0.7368 0.4194
C9_2 C 0.4971(4) 0.3790(4) 0.7386(4)
C10_2 C 0.5799(4) 0.4195(4) 0.7419(4)
C11_2 C 0.5846(4) 0.4977(4) 0.7566(4)
H7_2 H 0.5360 0.5268 0.7663
C12_2 C 0.6612(4) 0.5342(4) 0.7572(4)
C13_2 C 0.7330(4) 0.4898(4) 0.7467(4)
H8_2 H 0.7851 0.5151 0.7471
C14_2 C 0.7298(5) 0.4101(4) 0.7358(5)
C15_2 C 0.6511(5) 0.3756(4) 0.7318(5)
H9_2 H 0.6466 0.3214 0.7221
C16_2 C 0.8076(6) 0.3640(5) 0.7273(6)
H10_2 H 0.8553 0.3986 0.7325
H11_2 H 0.8087 0.3396 0.6783
H12_2 H 0.8098 0.3235 0.7654
C17_2 C 0.9196(4) 0.7711(4) 0.8396(3)
C25_2 C 0.6695(4) 0.6214(4) 0.7673(4)
C26_2 C 0.7548(4) 0.8168(4) 0.5967(4)
H19 H 0.6848 0.9999 0.1378
H20 H 0.5949 0.9788 0.0473
H22 H 0.5012 0.9961 0.0698
C31 C 0.8910(5) 0.9856(4) 0.1179(4)
C32 C 0.9059(7) 0.8450(5) 0.1107(7)
H27 H 0.8569 0.8467 0.1423
H28 H 0.9510 0.8189 0.1369
H29 H 0.8932 0.8163 0.0653
Zn7_2 Zn 0.61164(4) 0.76907(4) 0.82070(4)
Zn9_2 Zn 0.31072(5) 0.42039(4) 0.77090(4)
O18_2 O 0.3924(3) 0.1591(3) 0.7118(3)
O23_2 O 0.2903(2) 0.3255(2) 0.7058(2)
Zn1_3 Zn 0.27855(4) 0.74322(4) 0.26233(4)
O1_3 O 0.2234(3) 0.4673(3) 0.5974(3)
O2_3 O 0.3154(4) 0.4978(3) 0.6847(3)
O5_2 O 0.3840(3) 0.6883(3) 0.1114(3)
O6_3 O 0.3905(3) 0.7490(3) 0.2211(3)
O8_3 O 0.2388(3) 0.8509(3) 0.2469(3)
O9_3 O 0.2937(3) 0.7359(3) 0.3672(2)
O10_2 O 0.1982(3) 0.6434(3) 0.3778(3)
O14_3 O 0.1809(3) 0.4277(3) 0.7838(3)
O15_2 O 0.3307(3) 0.5169(3) 0.8404(3)
N1_2 N 0.4307(5) 0.5760(4) 0.9080(4)
N2_3 N 0.0829(4) 0.4410(4) 0.8747(4)
C1_2 C 0.2767(4) 0.5118(3) 0.6260(4)
C2_2 C 0.2962(5) 0.5866(4) 0.5865(4)
C3_2 C 0.2620(5) 0.6032(4) 0.5171(4)
H1_3 H 0.2228 0.5689 0.4957
C4_3 C 0.2853(5) 0.6688(4) 0.4810(4)
C5_2 C 0.3433(6) 0.7184(4) 0.5108(4)
H2_3 H 0.3610 0.7624 0.4831
C6_2 C 0.3768(6) 0.7053(5) 0.5810(4)
C7_2 C 0.3536(5) 0.6379(5) 0.6176(4)
H3_2 H 0.3771 0.6263 0.6645
C8_2 C 0.4395(7) 0.7605(6) 0.6132(6)
H4_2 H 0.4566 0.7418 0.6620
H5_2 H 0.4150 0.8125 0.6180
H6_2 H 0.4877 0.7632 0.5806
H7_3 H 0.0360 0.9732 0.2337
C12_3 C 0.1612(4) 0.9658(4) 0.2428(4)
H8_3 H 0.2851 0.9849 0.2529
C17_3 C 0.4196(4) 0.7289(4) 0.1604(3)
C18_2 C 0.5054(4) 0.7587(4) 0.1440(4)
C19_2 C 0.5520(4) 0.7918(4) 0.1989(4)
H13_2 H 0.5306 0.7929 0.2477
C20_2 C 0.6293(4) 0.8237(4) 0.1859(4)
C21_2 C 0.6595(4) 0.8216(4) 0.1141(4)
H14_2 H 0.7121 0.8434 0.1036
C22_2 C 0.6138(4) 0.7879(4) 0.0571(3)
C23_2 C 0.5370(4) 0.7560(4) 0.0720(3)
H15_2 H 0.5060 0.7324 0.0335
C24_2 C 0.6792(5) 0.8588(5) 0.2490(4)
H16_2 H 0.6477 0.8550 0.2950
H17_2 H 0.6908 0.9137 0.2382
H18_2 H 0.7313 0.8304 0.2542
C25_3 C 0.1695(4) 0.8786(4) 0.2327(4)
C26_3 C 0.2548(4) 0.6832(4) 0.4033(4)
C28_3 C 0.1530(5) 0.4594(5) 0.8411(4)
H19_2 H 0.1848 0.5001 0.8622
C29_3 C 0.0553(6) 0.4804(7) 0.9396(5)
H20_2 H 0.0949 0.5212 0.9527
H21_3 H 0.0508 0.4431 0.9804
H22_2 H 0.0012 0.5039 0.9302
C30_3 C 0.0311(6) 0.3768(7) 0.8490(7)
H23_3 H 0.0565 0.3527 0.8054
H25_3 H 0.0259 0.3378 0.8882
C31_2 C 0.3910(5) 0.5144(4) 0.8821(4)
H26_3 H 0.4103 0.4644 0.8966
C32_2 C 0.4059(7) 0.6550(5) 0.8893(7)
H27_2 H 0.3569 0.6533 0.8577
H28_2 H 0.4510 0.6811 0.8631
H29_2 H 0.3932 0.6837 0.9347
C33 C 0.5024(9) 0.5696(7) 0.9552(7)
H30 H 0.5138 0.5146 0.9652
H32 H 0.5501 0.5932 0.9305
O17_2 O 0.1160(3) 0.3117(3) 0.6114(3)
O19_2 O 0.3018(3) 0.3566(3) 0.8778(3)
O11_2 O 0.6000(3) 0.7623(3) 0.9297(3)
C27_3 C 0.6463(4) 0.7897(4) 0.9790(4)
O4_3 O 0.9943(3) 0.1838(3) 0.2966(3)
C9_3 C 0.9971(4) 0.1210(4) 0.2614(4)
O20_2 O 0.9000(3) 0.2377(3) 0.4297(3)
O1_4 O 0.2766(3) 0.5327(3) 0.0974(3)
O2_4 O 0.1846(4) 0.5022(3) 0.1847(3)
O14_4 O 0.3191(3) 0.5723(3) 0.2838(3)
O15_3 O 0.1693(3) 0.4831(3) 0.3404(3)
N1_3 N 0.0693(5) 0.4240(4) 0.4080(4)
N2_4 N 0.4171(4) 0.5590(4) 0.3747(4)
C1_3 C 0.2233(4) 0.4882(3) 0.1260(4)
C2_3 C 0.2038(5) 0.4134(4) 0.0865(4)
C3_3 C 0.2380(5) 0.3968(4) 0.0171(4)
C5_3 C 0.1567(6) 0.2816(4) 0.0108(4)
C6_3 C 0.1232(6) 0.2947(5) 0.0810(4)
C7_3 C 0.1464(5) 0.3621(5) 0.1176(4)
H3_3 H 0.1229 0.3737 0.1645
C8_3 C 0.0605(7) 0.2395(6) 0.1132(6)
H4_3 H 0.0434 0.2582 0.1620
H5_3 H 0.0850 0.1875 0.1180
H6_3 H 0.0123 0.2368 0.0806
C28_4 C 0.3470(5) 0.5406(5) 0.3411(4)
H19_3 H 0.3152 0.4999 0.3622
C29_4 C 0.4447(6) 0.5196(7) 0.4396(5)
H20_3 H 0.4051 0.4788 0.4527
H21_4 H 0.4492 0.5569 0.4804
H22_3 H 0.4988 0.4961 0.4302
C30_4 C 0.4689(6) 0.6232(7) 0.3490(7)
H23_4 H 0.4435 0.6473 0.3054
H24_2 H 0.5236 0.6033 0.3360
H25_4 H 0.4741 0.6622 0.3882
C31_3 C 0.1090(5) 0.4856(4) 0.3821(4)
H26_4 H 0.0897 0.5356 0.3966
C32_3 C 0.0941(7) 0.3450(5) 0.3893(7)
H27_3 H 0.1431 0.3467 0.3577
H28_3 H 0.0490 0.3189 0.3631
H29_3 H 0.1068 0.3163 0.4347
H31 H 0.0081 0.4032 0.5019
Zn1_4 Zn 0.22145(4) 0.25678(4) 0.76233(4)
O6_4 O 0.1095(3) 0.2510(3) 0.7211(3)
O8_4 O 0.2612(3) 0.1491(3) 0.7469(3)
O9_4 O 0.2063(3) 0.2641(3) 0.8672(2)
H1_4 H 0.2772 0.4311 0.9957
C4_4 C 0.2147(5) 0.3312(4) 0.9810(4)
H2_4 H 0.1390 0.2376 0.9831
H7_4 H 0.4640 0.0268 0.7337
C12_4 C 0.3388(4) 0.0342(4) 0.7428(4)
H8_4 H 0.2149 0.0151 0.7529
C17_4 C 0.0804(4) 0.2711(4) 0.6604(3)
C25_4 C 0.3305(4) 0.1214(4) 0.7327(4)
C26_4 C 0.2452(4) 0.3168(4) 0.9033(4)
O4_4 O 0.5057(3) 0.8162(3) 0.7966(3)
C9_4 C 0.5029(4) 0.8790(4) 0.7614(4)
C10_3 C 0.4201(4) 0.9195(4) 0.7581(4)
C11_3 C 0.4154(4) 0.9977(4) 0.7434(4)
C13_3 C 0.2670(4) 0.9898(4) 0.7533(4)
C14_3 C 0.2702(5) 0.9101(4) 0.7642(5)
C15_3 C 0.3489(5) 0.8756(4) 0.7682(5)
H9_3 H 0.3534 0.8214 0.7779
C16_3 C 0.1924(6) 0.8640(5) 0.7727(6)
H10_3 H 0.1447 0.8986 0.7675
H11_3 H 0.1913 0.8396 0.8217
H12_3 H 0.1902 0.8235 0.7346
C18_3 C 0.9946(4) 0.2413(4) 0.6440(4)
C19_3 C 0.9480(4) 0.2082(4) 0.6989(4)
H13_3 H 0.9694 0.2071 0.7477
C20_3 C 0.8707(4) 0.1763(4) 0.6859(4)
C21_3 C 0.8405(4) 0.1784(4) 0.6141(4)
H14_3 H 0.7879 0.1566 0.6036
C22_3 C 0.8862(4) 0.2121(4) 0.5571(3)
C23_3 C 0.9630(4) 0.2440(4) 0.5720(3)
H15_3 H 0.9940 0.2676 0.5335
C24_3 C 0.8208(5) 0.1412(5) 0.7490(4)
H16_3 H 0.8523 0.1450 0.7950
H17_3 H 0.8092 0.0863 0.7382
H18_3 H 0.7687 0.1696 0.7542
C27_4 C 0.8537(4) 0.2103(4) 0.4790(4)
H24_3 H 0.0236 0.8967 0.6640
O15_4 O 0.6693(3) 0.0169(3) 0.6596(3)
N1_4 N 0.5693(5) 0.0760(4) 0.5920(4)
C1_4 C 0.7233(4) 0.0118(3) 0.8740(4)
C2_4 C 0.7038(5) 0.0866(4) 0.9135(4)
C3_4 C 0.7380(5) 0.1032(4) 0.9829(4)
C5_4 C 0.6567(6) 0.2184(4) 0.9892(4)
C6_4 C 0.6232(6) 0.2053(5) 0.9190(4)
C7_4 C 0.6464(5) 0.1379(5) 0.8824(4)
H3_4 H 0.6229 0.1263 0.8355
C8_4 C 0.5605(7) 0.2605(6) 0.8868(6)
H4_4 H 0.5434 0.2418 0.8380
H5_4 H 0.5850 0.3125 0.8820
H6_4 H 0.5123 0.2632 0.9194
H19_4 H 0.8152 0.0001 0.6378
H20_4 H 0.9051 0.0212 0.5473
H22_4 H 0.9988 0.0039 0.5698
C31_4 C 0.6090(5) 0.0144(4) 0.6179(4)
C32_4 C 0.5941(7) 0.1550(5) 0.6107(7)
H27_4 H 0.6431 0.1533 0.6423
H28_4 H 0.5490 0.1811 0.6369
H29_4 H 0.6068 0.1837 0.5653
C33_2 C 0.4976(9) 0.0696(7) 0.5448(7)
H30_2 H 0.4862 0.0146 0.5348
H31_2 H 0.5081 0.0968 0.4981
H32_2 H 0.4499 0.0932 0.5695
C18_4 C 0.0054(4) 0.7413(4) 0.8560(4)
C19_4 C 0.0520(4) 0.7082(4) 0.8011(4)
H13_4 H 0.0306 0.7071 0.7523
C20_4 C 0.1293(4) 0.6763(4) 0.8141(4)
C21_4 C 0.1595(4) 0.6784(4) 0.8859(4)
H14_4 H 0.2121 0.6566 0.8964
C22_4 C 0.1138(4) 0.7121(4) 0.9429(3)
C23_4 C 0.0370(4) 0.7440(4) 0.9280(3)
H15_4 H 0.0060 0.7676 0.9665
C24_4 C 0.1792(5) 0.6412(5) 0.7510(4)
H16_4 H 0.1477 0.6450 0.7050
H17_4 H 0.1908 0.5863 0.7618
H18_4 H 0.2313 0.6696 0.7458
C33_3 C 0.0024(9) 0.9304(7) 0.0448(7)
H30_3 H 0.0138 0.9854 0.0348
H32_3 H 0.0501 0.9068 0.0695
H31_3 H 0.9919 0.9032 0.9981
C10_4 C 0.0799(4) 0.0805(4) 0.2581(4)
C11_4 C 0.0846(4) 0.0023(4) 0.2434(4)
C13_4 C 0.2330(4) 0.0102(4) 0.2533(4)
C14_4 C 0.2298(5) 0.0899(4) 0.2642(5)
C15_4 C 0.1511(5) 0.1244(4) 0.2682(5)
H9_4 H 0.1466 0.1786 0.2779
C16_4 C 0.3076(6) 0.1360(5) 0.2727(6)
H10_4 H 0.3553 0.1014 0.2675
H11_4 H 0.3087 0.1604 0.3217
H12_4 H 0.3098 0.1765 0.2346
H31_4 H 0.4919 0.5968 0.0019
H24_4 H 0.9764 0.3967 0.8360
C33_4 C 0.9976(9) 0.4304(7) 0.4552(7)
H30_4 H 0.9862 0.4854 0.4652
H32_4 H 0.9499 0.4068 0.4305
loop_
_geom_bond_atom_site_label_1
_geom_bond_atom_site_label_2
_geom_bond_site_symmetry_1
_geom_bond_site_symmetry_2
Zn3 O4 1_555 1_555
O3 C9 1_555 1_555
O4 C9 1_555 1_555
Zn9 O3 1_555 1_555
O18 Zn3 1_555 1_555
O20 Zn3 1_555 1_555
O23 Zn3 1_555 1_555
Zn9 O23 1_555 1_555
Zn1 O6 1_555 1_555
O5 C17 1_555 1_555
O6 C17 1_555 1_555
O7 C25 1_555 1_555
O8 Zn1 1_555 1_555
O9 Zn1 1_555 1_555
O10 C26 1_555 1_555
O11 C27 1_555 1_555
O12 C27 1_555 1_555
O13 Zn1 1_555 1_555
C10 C11 1_555 1_555
C11 H7 1_555 1_555
C12 C11 1_555 1_555
C13 C12 1_555 1_555
H8 C13 1_555 1_555
C14 C13 1_555 1_555
C15 C10 1_555 1_555
H9 C15 1_555 1_555
C16 C14 1_555 1_555
H10 C16 1_555 1_555
H11 C16 1_555 1_555
H12 C16 1_555 1_555
C17 C18 1_555 1_555
C18 C19 1_555 1_555
C19 H13 1_555 1_555
C20 C19 1_555 1_555
C21 C20 1_555 1_555
H14 C21 1_555 1_555
C22 C21 1_555 1_555
C23 C18 1_555 1_555
H15 C23 1_555 1_555
C24 C20 1_555 1_555
H16 C24 1_555 1_555
H17 C24 1_555 1_555
H18 C24 1_555 1_555
C25 O8 1_555 1_555
C26 O9 1_555 1_555
C27 C22 1_555 1_555
Zn5 O5 1_555 1_555
Zn6 O12 1_555 1_555
Zn7 O7 1_555 1_555
Zn8 O11 1_555 1_555
Zn10 O10 1_555 1_555
O13 Zn5 1_555 1_555
O13 Zn7 1_555 1_555
O13 Zn10 1_555 1_555
C4 C26 1_555 1_555
C12 C25 1_555 1_555
C14 C15 1_555 1_555
C22 C23 1_555 1_555
Zn2 O1 1_555 1_555
Zn4 O2 1_555 1_555
O14 Zn4 1_555 1_555
N2 C28 1_555 1_555
C28 O14 1_555 1_555
C29 N2 1_555 1_555
H21 C29 1_555 1_555
C30 N2 1_555 1_555
H23 C30 1_555 1_555
H25 C30 1_555 1_555
O16 Zn4 1_555 1_555
O17 Zn2 1_555 1_555
O19 Zn4 1_555 1_555
O21 Zn2 1_555 1_555
O22 Zn2 1_555 1_555
Zn4 O22 1_555 1_555
O20 C27_2 1_555 1_555
O12_2 C27_2 1_555 1_555
Zn6_2 O12_2 1_555 1_555
Zn5 O1_2 1_555 1_555
Zn10 O2_2 1_555 1_555
O14_2 Zn10 1_555 1_555
N2_2 C28_2 1_555 1_555
C28_2 O14_2 1_555 1_555
C29_2 N2_2 1_555 1_555
H21_2 C29_2 1_555 1_555
C30_2 N2_2 1_555 1_555
H23_2 C30_2 1_555 1_555
H24 C30_2 1_555 1_555
H25_2 C30_2 1_555 1_555
O16_2 Zn10 1_555 1_555
O21_2 Zn5 1_555 1_555
Zn1_2 O6_2 1_555 1_555
Zn8 O4_2 1_555 1_555
O3_2 C9_2 1_555 1_555
O4_2 C9_2 1_555 1_555
O17 C17_2 1_555 1_555
O6_2 C17_2 1_555 1_555
O7_2 C25_2 1_555 1_555
O8_2 Zn1_2 1_555 1_555
O9_2 Zn1_2 1_555 1_555
O19 C26_2 1_555 1_555
O22 Zn1_2 1_555 1_555
N1 C31 1_555 1_555
C1 C2 1_555 1_555
C2 C3 1_555 1_555
C3 H1_2 1_555 1_555
C4_2 C3 1_555 1_555
C5 C4_2 1_555 1_555
H2_2 C5 1_555 1_555
C6 C5 1_555 1_555
C7 C2 1_555 1_555
H3 C7 1_555 1_555
C8 C6 1_555 1_555
H4 C8 1_555 1_555
H5 C8 1_555 1_555
H6 C8 1_555 1_555
C9_2 C10_2 1_555 1_555
C10_2 C11_2 1_555 1_555
C11_2 H7_2 1_555 1_555
C12_2 C11_2 1_555 1_555
C13_2 C12_2 1_555 1_555
H8_2 C13_2 1_555 1_555
C14_2 C13_2 1_555 1_555
C15_2 C10_2 1_555 1_555
H9_2 C15_2 1_555 1_555
C16_2 C14_2 1_555 1_555
H10_2 C16_2 1_555 1_555
H11_2 C16_2 1_555 1_555
H12_2 C16_2 1_555 1_555
C25_2 O8_2 1_555 1_555
C26_2 O9_2 1_555 1_555
C31 O15 1_555 1_555
C32 N1 1_555 1_555
H27 C32 1_555 1_555
H28 C32 1_555 1_555
H29 C32 1_555 1_555
Zn7_2 O7_2 1_555 1_555
Zn9_2 O3_2 1_555 1_555
O18_2 Zn8 1_555 1_555
O23_2 Zn8 1_555 1_555
O22 Zn7_2 1_555 1_555
C4_2 C26_2 1_555 1_555
C6 C7 1_555 1_555
C12_2 C25_2 1_555 1_555
C14_2 C15_2 1_555 1_555
Zn9_2 O23_2 1_555 1_555
Zn1_3 O6_3 1_555 1_555
Zn6 O1_3 1_555 1_555
Zn9_2 O2_3 1_555 1_555
O1_3 C1_2 1_555 1_555
O2_3 C1_2 1_555 1_555
O5_2 C17_3 1_555 1_555
O6_3 C17_3 1_555 1_555
O18 C25_3 1_555 1_555
O8_3 Zn1_3 1_555 1_555
O9_3 Zn1_3 1_555 1_555
O10_2 C26_3 1_555 1_555
O23 Zn1_3 1_555 1_555
O14_3 Zn9_2 1_555 1_555
O15_2 Zn9_2 1_555 1_555
N1_2 C31_2 1_555 1_555
N2_3 C28_3 1_555 1_555
C1_2 C2_2 1_555 1_555
C2_2 C3_2 1_555 1_555
C3_2 H1_3 1_555 1_555
C4_3 C3_2 1_555 1_555
C5_2 C4_3 1_555 1_555
H2_3 C5_2 1_555 1_555
C6_2 C5_2 1_555 1_555
C7_2 C2_2 1_555 1_555
H3_2 C7_2 1_555 1_555
C8_2 C6_2 1_555 1_555
H4_2 C8_2 1_555 1_555
H5_2 C8_2 1_555 1_555
H6_2 C8_2 1_555 1_555
C17_3 C18_2 1_555 1_555
C18_2 C19_2 1_555 1_555
C19_2 H13_2 1_555 1_555
C20_2 C19_2 1_555 1_555
C21_2 C20_2 1_555 1_555
H14_2 C21_2 1_555 1_555
C22_2 C21_2 1_555 1_555
C23_2 C18_2 1_555 1_555
H15_2 C23_2 1_555 1_555
C24_2 C20_2 1_555 1_555
H16_2 C24_2 1_555 1_555
H17_2 C24_2 1_555 1_555
H18_2 C24_2 1_555 1_555
C25_3 O8_3 1_555 1_555
C26_3 O9_3 1_555 1_555
C28_3 O14_3 1_555 1_555
H19_2 C28_3 1_555 1_555
C29_3 N2_3 1_555 1_555
H20_2 C29_3 1_555 1_555
H21_3 C29_3 1_555 1_555
H22_2 C29_3 1_555 1_555
C30_3 N2_3 1_555 1_555
H23_3 C30_3 1_555 1_555
H25_3 C30_3 1_555 1_555
C31_2 O15_2 1_555 1_555
H26_3 C31_2 1_555 1_555
C32_2 N1_2 1_555 1_555
H27_2 C32_2 1_555 1_555
H28_2 C32_2 1_555 1_555
H29_2 C32_2 1_555 1_555
C33 N1_2 1_555 1_555
H30 C33 1_555 1_555
H32 C33 1_555 1_555
Zn6_2 O5_2 1_555 1_555
Zn9 O10_2 1_555 1_555
O17_2 Zn6 1_555 1_555
O19_2 Zn9_2 1_555 1_555
O23_2 Zn6 1_555 1_555
O23 Zn6_2 1_555 1_555
C4_3 C26_3 1_555 1_555
C6_2 C7_2 1_555 1_555
C12_3 C25_3 1_555 1_555
C22_2 C23_2 1_555 1_555
O11_2 C27_3 1_555 1_555
O21 C27_3 1_555 1_555
Zn7_2 O11_2 1_555 1_555
Zn7 O4_3 1_555 1_555
O16_2 C9_3 1_555 1_555
O4_3 C9_3 1_555 1_555
O20_2 Zn7 1_555 1_555
Zn6_2 O1_4 1_555 1_555
Zn9 O2_4 1_555 1_555
O1_4 C1_3 1_555 1_555
O2_4 C1_3 1_555 1_555
O14_4 Zn9 1_555 1_555
O15_3 Zn9 1_555 1_555
N1_3 C31_3 1_555 1_555
N2_4 C28_4 1_555 1_555
C1_3 C2_3 1_555 1_555
C2_3 C3_3 1_555 1_555
C6_3 C5_3 1_555 1_555
C7_3 C2_3 1_555 1_555
H3_3 C7_3 1_555 1_555
C8_3 C6_3 1_555 1_555
H4_3 C8_3 1_555 1_555
H5_3 C8_3 1_555 1_555
H6_3 C8_3 1_555 1_555
C28_4 O14_4 1_555 1_555
H19_3 C28_4 1_555 1_555
C29_4 N2_4 1_555 1_555
H20_3 C29_4 1_555 1_555
H21_4 C29_4 1_555 1_555
H22_3 C29_4 1_555 1_555
C30_4 N2_4 1_555 1_555
H23_4 C30_4 1_555 1_555
H24_2 C30_4 1_555 1_555
H25_4 C30_4 1_555 1_555
C31_3 O15_3 1_555 1_555
H26_4 C31_3 1_555 1_555
C32_3 N1_3 1_555 1_555
H27_3 C32_3 1_555 1_555
H28_3 C32_3 1_555 1_555
H29_3 C32_3 1_555 1_555
C6_3 C7_3 1_555 1_555
Zn1_4 O6_4 1_555 1_555
O17_2 C17_4 1_555 1_555
O6_4 C17_4 1_555 1_555
O18_2 C25_4 1_555 1_555
O8_4 Zn1_4 1_555 1_555
O9_4 Zn1_4 1_555 1_555
O19_2 C26_4 1_555 1_555
O23_2 Zn1_4 1_555 1_555
C25_4 O8_4 1_555 1_555
C26_4 O9_4 1_555 1_555
C4_4 C26_4 1_555 1_555
C12_4 C25_4 1_555 1_555
Zn7_2 O4_4 1_555 1_555
O16 C9_4 1_555 1_555
O4_4 C9_4 1_555 1_555
C9_4 C10_3 1_555 1_555
C10_3 C11_3 1_555 1_555
C14_3 C13_3 1_555 1_555
C15_3 C10_3 1_555 1_555
H9_3 C15_3 1_555 1_555
C16_3 C14_3 1_555 1_555
H10_3 C16_3 1_555 1_555
H11_3 C16_3 1_555 1_555
H12_3 C16_3 1_555 1_555
C14_3 C15_3 1_555 1_555
O20_2 C27_4 1_555 1_555
O21_2 C27_4 1_555 1_555
C18_3 C19_3 1_555 1_555
C19_3 H13_3 1_555 1_555
C20_3 C19_3 1_555 1_555
C21_3 C20_3 1_555 1_555
H14_3 C21_3 1_555 1_555
C22_3 C21_3 1_555 1_555
C23_3 C18_3 1_555 1_555
H15_3 C23_3 1_555 1_555
C24_3 C20_3 1_555 1_555
H16_3 C24_3 1_555 1_555
H17_3 C24_3 1_555 1_555
H18_3 C24_3 1_555 1_555
C27_4 C22_3 1_555 1_555
C22_3 C23_3 1_555 1_555
N1_4 C31_4 1_555 1_555
C1_4 C2_4 1_555 1_555
C2_4 C3_4 1_555 1_555
C6_4 C5_4 1_555 1_555
C7_4 C2_4 1_555 1_555
H3_4 C7_4 1_555 1_555
C8_4 C6_4 1_555 1_555
H4_4 C8_4 1_555 1_555
H5_4 C8_4 1_555 1_555
H6_4 C8_4 1_555 1_555
C31_4 O15_4 1_555 1_555
C32_4 N1_4 1_555 1_555
H27_4 C32_4 1_555 1_555
H28_4 C32_4 1_555 1_555
H29_4 C32_4 1_555 1_555
C33_2 N1_4 1_555 1_555
H30_2 C33_2 1_555 1_555
H31_2 C33_2 1_555 1_555
H32_2 C33_2 1_555 1_555
C6_4 C7_4 1_555 1_555
C18_4 C19_4 1_555 1_555
C19_4 H13_4 1_555 1_555
C20_4 C19_4 1_555 1_555
C21_4 C20_4 1_555 1_555
H14_4 C21_4 1_555 1_555
C22_4 C21_4 1_555 1_555
C23_4 C18_4 1_555 1_555
H15_4 C23_4 1_555 1_555
C24_4 C20_4 1_555 1_555
H16_4 C24_4 1_555 1_555
H17_4 C24_4 1_555 1_555
H18_4 C24_4 1_555 1_555
H30_3 C33_3 1_555 1_555
H32_3 C33_3 1_555 1_555
C22_4 C23_4 1_555 1_555
C10_4 C11_4 1_555 1_555
C14_4 C13_4 1_555 1_555
C15_4 C10_4 1_555 1_555
H9_4 C15_4 1_555 1_555
C16_4 C14_4 1_555 1_555
H10_4 C16_4 1_555 1_555
H11_4 C16_4 1_555 1_555
H12_4 C16_4 1_555 1_555
C14_4 C15_4 1_555 1_555
H30_4 C33_4 1_555 1_555
H32_4 C33_4 1_555 1_555

#END
