
###############################################################################
#
# This file contains modified crystal structure data generated from the
# MOF subset of the Cambridge Structural Database (CSD) v543 
# hosted by the Cambridge Crystallographic Data Centre (CCDC).
#
# This work is licensed under the Creative Commons
# Attribution-NonCommercial-ShareAlike 4.0 International License.
# To view a copy of this license, visit
# http://creativecommons.org/licenses/by-nc-sa/4.0/
# or send a letter to
# Creative Commons, PO Box 1866, Mountain View, CA 94042, USA.
#
# CIF created using the CSD Python API on 29 September 2022
# The structure has been converted into the P1 space group
# The structure has a 3D framework
# The original CSD entry QOQDAD is in the triclinic crystal system
# The framework has been calculated to contain at least 10.0% void space
# The void calculation uses a probe of radius 1.32A, grid spacing 0.4
#
###############################################################################

data_QOQDAD
_chemical_formula_moiety         '(C36 H34 Co1 N10 O18)n'
_symmetry_cell_setting           triclinic
_symmetry_space_group_name_H-M   'P 1'
_symmetry_Int_Tables_number      1
_space_group_name_Hall           'P 1'
loop_
_symmetry_equiv_pos_site_id
_symmetry_equiv_pos_as_xyz
1 x,y,z
_cell_length_a                   10.504(2)
_cell_length_b                   12.106(2)
_cell_length_c                   12.411(3)
_cell_angle_alpha                66.78(3)
_cell_angle_beta                 70.34(3)
_cell_angle_gamma                65.04(3)
_cell_volume                     1287.22
loop_
_atom_site_label
_atom_site_type_symbol
_atom_site_fract_x
_atom_site_fract_y
_atom_site_fract_z
Co8 Co 0.15904(8) 0.59047(7) 0.09112(7)
Co11 Co 0.5000 0.5000 0.0000
O2 O 0.8220(5) 0.2045(4) 0.0538(4)
O3 O 0.6971(4) 0.3990(4) 0.0648(3)
O4 O 0.8019(4) 0.3580(4) 0.7965(4)
O5 O 0.5683(4) 0.3948(4) 0.8789(4)
O9 O 0.8051(5) 0.3055(4) 0.4279(4)
N4 N 0.8145(5) 0.1425(4) 0.6019(4)
N5 N 0.8189(5) 0.1148(4) 0.4244(4)
C1 C 0.8125(6) 0.0199(6) 0.6677(6)
C2 C 0.8109(6) 0.1955(6) 0.4814(6)
C6 C 0.6808(7) 0.3520(5) 0.8084(6)
C8 C 0.8355(6) 0.1616(6) 0.2933(5)
H3 H 0.8943 0.0903 0.2612
H4 H 0.8866 0.2220 0.2617
C10 C 0.6727(6) 0.2849(6) 0.7318(6)
H6 H 0.6141 0.3465 0.6738
H7 H 0.6269 0.2216 0.7822
C11 C 0.7386(6) 0.2758(6) 0.1143(6)
C14 C 0.8207(6) 0.2200(6) 0.6660(6)
H10 H 0.8620 0.2844 0.6090
H11 H 0.8826 0.1656 0.7232
C15 C 0.6965(6) 0.2253(6) 0.2488(5)
H12 H 0.6483 0.1643 0.2704
H13 H 0.6328 0.2943 0.2829
O10 O 0.1892(4) 0.4090(4) 0.1770(4)
O15 O 0.4286(4) 0.3521(3) 0.1298(4)
O16 O 0.1799(5) 0.0757(4) 0.5704(4)
O17 O 0.1898(5) 0.0205(4) 0.2263(4)
N8 N 0.1820(5) 0.0529(4) 0.3972(4)
C27 C 0.1832(6) 0.0087(6) 0.5178(6)
C34 C 0.3221(6) 0.2003(5) 0.2773(5)
H31 H 0.3824 0.1351 0.2377
H32 H 0.3660 0.1875 0.3406
C35 C 0.3142(6) 0.3299(5) 0.1880(5)
C36 C 0.1757(6) 0.1861(5) 0.3315(6)
H33 H 0.1232 0.2185 0.2682
H34 H 0.1233 0.2377 0.3859
Co5 Co 0.84096(8) 0.40953(7) 0.90888(7)
Co11_2 Co 0.5000 0.5000 1.0000
O25 O 0.4317(4) 0.6052(4) 0.1211(4)
O19 O 0.8108(4) 0.5910(4) 0.8230(4)
O21 O 0.3029(4) 0.6010(4) 0.9352(3)
O26 O 0.5714(4) 0.6479(3) 0.8702(4)
O23 O 0.1981(4) 0.6420(4) 0.2035(4)
O7 O 0.8201(5) 0.9243(4) 0.4296(4)
O8 O 0.8102(5) 0.9795(4) 0.7737(4)
N3 N 0.8180(5) 0.9471(4) 0.6028(4)
C3 C 0.8168(6) 0.9913(6) 0.4822(6)
C16 C 0.6779(6) 0.7997(5) 0.7227(5)
H14 H 0.6176 0.8649 0.7623
H15 H 0.6340 0.8125 0.6594
C17 C 0.6858(6) 0.6701(5) 0.8120(5)
C18 C 0.8243(6) 0.8139(5) 0.6685(6)
H16 H 0.8768 0.7815 0.7318
H17 H 0.8767 0.7623 0.6141
O11 O 0.1780(5) 0.7955(4) 0.9462(4)
O18 O 0.1949(5) 0.6945(4) 0.5721(4)
N9 N 0.1855(5) 0.8575(4) 0.3981(4)
N10 N 0.1811(5) 0.8852(4) 0.5756(4)
C25 C 0.1875(6) 0.9801(6) 0.3323(6)
C26 C 0.1891(6) 0.8045(6) 0.5186(6)
C28 C 0.3192(7) 0.6480(5) 0.1916(6)
C29 C 0.1645(6) 0.8384(6) 0.7067(5)
H23 H 0.1057 0.9097 0.7388
H24 H 0.1134 0.7780 0.7383
C30 C 0.3273(6) 0.7151(6) 0.2682(6)
H25 H 0.3859 0.6535 0.3262
H26 H 0.3731 0.7784 0.2178
C31 C 0.2614(6) 0.7242(6) 0.8857(6)
C32 C 0.1793(6) 0.7800(6) 0.3340(6)
H27 H 0.1380 0.7156 0.3910
H28 H 0.1174 0.8344 0.2768
C33 C 0.3035(6) 0.7747(6) 0.7512(5)
H29 H 0.3517 0.8357 0.7296
H30 H 0.3672 0.7057 0.7171
C4 C 0.4963(6) 0.1134(5) 0.0066(5)
H1 H 0.4939 0.1891 0.0111
C23 C 0.6124(6) 0.0018(5) 0.0340(5)
H21 H 0.6876 0.0030 0.0567
N1 N 0.2666(5) 0.2253(4) 0.9443(4)
N2 N 0.0470(5) 0.3492(4) 0.9220(5)
C5 C 0.3855(6) 0.1109(5) 0.9729(5)
C7 C 0.1339(6) 0.4234(6) 0.8786(6)
H2 H 0.1039 0.5115 0.8448
C9 C 0.2688(7) 0.3484(5) 0.8927(6)
H5 H 0.3476 0.3746 0.8717
C13 C 0.1303(6) 0.2314(6) 0.9608(5)
H9 H 0.0994 0.1612 0.9954
N6 N 0.7334(5) 0.7747(4) 0.0557(4)
N7 N 0.9530(5) 0.6508(4) 0.0780(5)
C20 C 0.6145(6) 0.8891(5) 0.0271(5)
C21 C 0.8661(6) 0.5766(6) 0.1214(6)
H19 H 0.8961 0.4885 0.1552
C22 C 0.7312(7) 0.6516(5) 0.1073(6)
H20 H 0.6524 0.6254 0.1283
C24 C 0.8697(6) 0.7686(6) 0.0392(5)
H22 H 0.9006 0.8388 0.0046
C12 C 0.3876(6) 0.9982(5) 0.9660(5)
H8 H 0.3124 0.9970 0.9433
C19 C 0.5037(6) 0.8866(5) 0.9934(5)
H18 H 0.5061 0.8109 0.9889
loop_
_geom_bond_atom_site_label_1
_geom_bond_atom_site_label_2
_geom_bond_site_symmetry_1
_geom_bond_site_symmetry_2
Co11 O3 1_555 1_555
O2 C11 1_555 1_555
O3 C11 1_555 1_555
O4 C6 1_555 1_555
O5 C6 1_555 1_555
O9 C2 1_555 1_555
N4 C1 1_555 1_555
N5 C2 1_555 1_555
C2 N4 1_555 1_555
C6 C10 1_555 1_555
C8 N5 1_555 1_555
H3 C8 1_555 1_555
H4 C8 1_555 1_555
C10 H6 1_555 1_555
H7 C10 1_555 1_555
C11 C15 1_555 1_555
C14 N4 1_555 1_555
H10 C14 1_555 1_555
H11 C14 1_555 1_555
C15 C8 1_555 1_555
H12 C15 1_555 1_555
H13 C15 1_555 1_555
O10 C35 1_555 1_555
O15 Co11 1_555 1_555
O16 C27 1_555 1_555
C27 N8 1_555 1_555
C34 H31 1_555 1_555
H32 C34 1_555 1_555
C35 O15 1_555 1_555
C36 N8 1_555 1_555
H33 C36 1_555 1_555
H34 C36 1_555 1_555
Co5 O4 1_555 1_555
Co8 O10 1_555 1_555
Co11_2 O5 1_555 1_555
O25 Co11 1_555 1_555
C10 C14 1_555 1_555
C34 C35 1_555 1_555
C34 C36 1_555 1_555
O19 Co5 1_555 1_555
O21 Co11_2 1_555 1_555
O26 Co11_2 1_555 1_555
O23 Co8 1_555 1_555
O19 C17 1_555 1_555
O26 C17 1_555 1_555
O7 C3 1_555 1_555
C3 N3 1_555 1_555
C16 H14 1_555 1_555
H15 C16 1_555 1_555
C17 C16 1_555 1_555
C18 N3 1_555 1_555
H16 C18 1_555 1_555
H17 C18 1_555 1_555
O11 C31 1_555 1_555
O21 C31 1_555 1_555
O23 C28 1_555 1_555
O25 C28 1_555 1_555
O18 C26 1_555 1_555
N9 C25 1_555 1_555
N10 C26 1_555 1_555
C26 N9 1_555 1_555
C28 C30 1_555 1_555
C29 N10 1_555 1_555
H23 C29 1_555 1_555
H24 C29 1_555 1_555
C30 H25 1_555 1_555
H26 C30 1_555 1_555
C31 C33 1_555 1_555
C32 N9 1_555 1_555
H27 C32 1_555 1_555
H28 C32 1_555 1_555
C33 C29 1_555 1_555
H29 C33 1_555 1_555
H30 C33 1_555 1_555
C16 C18 1_555 1_555
C30 C32 1_555 1_555
C4 H1 1_555 1_555
C23 C4 1_555 1_555
H21 C23 1_555 1_555
N1 C5 1_555 1_555
C7 N2 1_555 1_555
H2 C7 1_555 1_555
C9 N1 1_555 1_555
H5 C9 1_555 1_555
C13 N1 1_555 1_555
H9 C13 1_555 1_555
N2 C13 1_555 1_555
C7 C9 1_555 1_555
N6 C20 1_555 1_555
N7 C21 1_555 1_555
C21 H19 1_555 1_555
C22 N6 1_555 1_555
H20 C22 1_555 1_555
C24 N6 1_555 1_555
H22 C24 1_555 1_555
N7 C24 1_555 1_555
C21 C22 1_555 1_555
H8 C12 1_555 1_555
C19 C12 1_555 1_555
H18 C19 1_555 1_555

#END
