
###############################################################################
#
# This file contains modified crystal structure data generated from the
# MOF subset of the Cambridge Structural Database (CSD) v543 
# hosted by the Cambridge Crystallographic Data Centre (CCDC).
#
# This work is licensed under the Creative Commons
# Attribution-NonCommercial-ShareAlike 4.0 International License.
# To view a copy of this license, visit
# http://creativecommons.org/licenses/by-nc-sa/4.0/
# or send a letter to
# Creative Commons, PO Box 1866, Mountain View, CA 94042, USA.
#
# CIF created using the CSD Python API on 29 September 2022
# The structure has been converted into the P1 space group
# The structure has a 3D framework
# The original CSD entry QOQDEH is in the monoclinic crystal system
# The framework has been calculated to contain at least 10.0% void space
# The void calculation uses a probe of radius 1.32A, grid spacing 0.4
# H atom positions have been added when not included in the experimental data
# Generated hydrogen atom positions removed from atoms on special positions
#
###############################################################################

data_QOQDEH
_chemical_formula_moiety         '(C312 H296 Co20 N72 O84)n'
_symmetry_cell_setting           triclinic
_symmetry_space_group_name_H-M   'P 1'
_symmetry_Int_Tables_number      1
_space_group_name_Hall           'P 1'
loop_
_symmetry_equiv_pos_site_id
_symmetry_equiv_pos_as_xyz
1 x,y,z
_cell_length_a                   26.484(13)
_cell_length_b                   17.289(7)
_cell_length_c                   21.036(10)
_cell_angle_alpha                90
_cell_angle_beta                 111.992(8)
_cell_angle_gamma                90
_cell_volume                     8931.14
loop_
_atom_site_label
_atom_site_type_symbol
_atom_site_fract_x
_atom_site_fract_y
_atom_site_fract_z
H4 H 0.0065 0.2111 0.1306
H6 H 0.0264 0.4197 0.0432
H20 H 0.0147 0.0012 0.3243
C28 C 0.01593(19) 0.2113(3) 0.0396(3)
H22 H 0.0528 0.2211 0.0507
C59 C 0.11519(17) 0.0209(3) 0.8017(2)
H48 H 0.1235 0.0716 0.7942
H49 H 0.1511 0.0047 0.9060
C20 C 0.0346(2) 0.1869(3) 0.9074(3)
H12 H 0.0645 0.1764 0.9472
C31 C 0.0406(2) 0.1883(3) 0.8451(3)
H24 H 0.0749 0.1799 0.8439
C32 C 0.0319(2) 0.3930(3) 0.8438(3)
H25 H 0.0667 0.3796 0.8466
C33 C 0.0194(2) 0.3893(3) 0.9025(3)
H26 H 0.0456 0.3732 0.9439
C40 C 0.0062(2) 0.4161(3) 0.7183(3)
N10 N 0.09697(16) 0.4016(2) 0.4794(2)
N11 N 0.04558(17) 0.4059(2) 0.5417(2)
C41 C 0.0113(2) 0.4137(3) 0.4736(3)
C42 C 0.0704(2) 0.4343(3) 0.6628(3)
H35 H 0.1048 0.4490 0.6650
C43 C 0.0318(2) 0.4097(3) 0.6011(3)
C44 C 0.04312(18) 0.4110(3) 0.4363(3)
H36 H 0.0307 0.4149 0.3888
C45 C 0.0580(2) 0.4371(3) 0.7213(3)
H37 H 0.0843 0.4529 0.7627
C46 C 0.0966(2) 0.3993(3) 0.5420(3)
H38 H 0.1276 0.3938 0.5815
C49 C 0.00327(19) 0.2021(2) 0.7162(3)
N12 N 0.06440(15) 0.1900(2) 0.4518(2)
N13 N 0.02283(15) 0.1997(2) 0.5252(2)
C50 C 0.06043(19) 0.2164(3) 0.6497(3)
H41 H 0.0944 0.2265 0.6480
C51 C 0.07034(17) 0.1862(3) 0.5168(2)
H42 H 0.1032 0.1757 0.5525
C52 C 0.01566(19) 0.2010(2) 0.5891(3)
C53 C 0.00997(19) 0.2054(3) 0.4167(3)
C54 C 0.0540(2) 0.2164(3) 0.7117(3)
H44 H 0.0840 0.2262 0.7516
Co4 Co 0.13068(2) 0.18552(3) 0.41922(3)
Co5 Co 0.16806(2) 0.38687(3) 0.45832(3)
O12 O 0.21490(13) 0.40399(18) 0.56553(15)
O13 O 0.37308(12) 0.12317(17) 0.64513(15)
O14 O 0.40563(14) 0.24376(17) 0.66464(14)
O15 O 0.17095(10) 0.27165(15) 0.48382(12)
O16 O 0.28034(12) 0.31253(16) 0.59369(13)
O17 O 0.16714(11) 0.10614(16) 0.50051(14)
O18 O 0.25412(10) 0.14371(15) 0.55251(13)
O19 O 0.31625(16) 0.0400(3) 0.74404(19)
O20 O 0.35596(18) 0.2921(3) 0.79933(19)
O21 O 0.18925(12) 0.2263(2) 0.64383(15)
O22 O 0.17674(17) 0.5081(2) 0.4491(2)
N16 N 0.25103(16) 0.1317(3) 0.69638(18)
N17 N 0.27057(18) 0.2612(3) 0.72613(19)
N18 N 0.33927(17) 0.1674(3) 0.76615(19)
C67 C 0.21341(16) 0.0995(2) 0.5457(2)
C68 C 0.40038(17) 0.1761(3) 0.6831(2)
C69 C 0.23434(19) 0.2079(3) 0.6852(2)
C70 C 0.2123(2) 0.0704(3) 0.6616(2)
H55 H 0.1756 0.0908 0.6469
H56 H 0.2155 0.0288 0.6938
C71 C 0.3977(2) 0.1471(4) 0.8011(2)
H57 H 0.4131 0.1791 0.8417
H58 H 0.4002 0.0937 0.8160
C72 C 0.2527(2) 0.3412(3) 0.7244(2)
H59 H 0.2647 0.3608 0.7709
H60 H 0.2133 0.3428 0.7052
C73 C 0.3246(2) 0.2414(4) 0.7667(2)
C74 C 0.2217(2) 0.0380(3) 0.5996(2)
H61 H 0.2585 0.0179 0.6139
C75 C 0.3037(2) 0.1081(4) 0.7370(2)
C76 C 0.4308(2) 0.1568(4) 0.7587(2)
H63 H 0.4511 0.1094 0.7614
H64 H 0.4571 0.1976 0.7789
C77 C 0.2745(2) 0.3937(3) 0.6824(2)
H65 H 0.3140 0.3933 0.7022
H66 H 0.2625 0.4463 0.6848
C78 C 0.25550(18) 0.3693(3) 0.6075(2)
Co8 Co 0.36932(2) 0.31448(3) 0.58078(3)
Co9 Co 0.2500 0.2500 0.5000
Co11 Co 0.33194(2) 0.11313(3) 0.54168(3)
O24 O 0.12692(12) 0.37683(17) 0.35487(15)
O26 O 0.09437(14) 0.25624(17) 0.33536(14)
O30 O 0.24588(10) 0.35629(15) 0.44749(13)
N19 N 0.11108(14) 0.0918(2) 0.35269(18)
Co1 Co 0.86932(2) 0.18552(3) 0.08078(3)
Co2 Co 0.7500 0.2500 0.0000
Co3 Co 0.83194(2) 0.38687(3) 0.04168(3)
O4 O 0.82905(10) 0.27165(15) 0.01618(12)
O11 O 0.82326(17) 0.5081(2) 0.0509(2)
N1 N 0.90303(16) 0.4016(2) 0.0206(2)
N3 N 0.93560(15) 0.1900(2) 0.0482(2)
N8 N 0.88892(14) 0.0918(2) 0.14731(18)
C4 C 0.98715(17) 0.0045(3) 0.4618(2)
N9 N 0.91517(15) 0.0315(2) 0.2473(2)
C11 C 0.93949(17) 0.0204(3) 0.3204(2)
C12 C 0.99003(19) 0.2054(3) 0.0833(3)
C13 C 0.86928(17) 0.0167(2) 0.1364(2)
C14 C 0.9887(2) 0.4137(3) 0.0264(3)
C24 C 0.95688(18) 0.4110(3) 0.0637(3)
H17 H 0.9693 0.4149 0.1112
C26 C 0.9936(2) 0.0061(3) 0.3508(2)
C34 C 0.9324(2) 0.0189(5) 0.4299(3)
H27 H 0.9110 0.0217 0.4562
C38 C 0.9083(2) 0.0292(5) 0.3597(3)
H32 H 0.8716 0.0419 0.3393
C39 C 0.91626(19) 0.0981(3) 0.2144(2)
H33 H 0.9340 0.1428 0.2360
C62 C 0.98265(19) 0.0014(3) 0.5785(2)
H50 H 0.9454 0.0105 0.5581
O23 O 0.87308(12) 0.37683(17) 0.14513(15)
O25 O 0.90563(14) 0.25624(17) 0.16464(14)
O28 O 0.78034(12) 0.18747(16) 0.09369(13)
O29 O 0.75412(10) 0.35629(15) 0.05251(13)
C4_2 C 0.01285(17) 0.0045(3) 0.0382(2)
N9_2 N 0.08483(15) 0.0315(2) 0.2527(2)
C11_2 C 0.06051(17) 0.0204(3) 0.1796(2)
C13_2 C 0.13072(17) 0.0167(2) 0.3636(2)
C26_2 C 0.0064(2) 0.0061(3) 0.1492(2)
C34_2 C 0.0676(2) 0.0189(5) 0.0701(3)
H27_2 H 0.0890 0.0217 0.0438
C38_2 C 0.0917(2) 0.0292(5) 0.1403(3)
H32_2 H 0.1284 0.0419 0.1607
C39_2 C 0.08374(19) 0.0981(3) 0.2856(2)
H33_2 H 0.0660 0.1428 0.2640
O27 O 0.32905(10) 0.22835(15) 0.51618(12)
O28_2 O 0.21966(12) 0.18747(16) 0.40631(13)
N14 N 0.38892(14) 0.4082(2) 0.64731(18)
C58 C 0.48715(17) 0.4955(3) 0.9618(2)
N15 N 0.41517(15) 0.4685(2) 0.7473(2)
C59_2 C 0.38481(17) 0.5209(3) 0.6983(2)
H48_2 H 0.3765 0.5716 0.7058
C60 C 0.43949(17) 0.4796(3) 0.8204(2)
C61 C 0.36928(17) 0.4833(2) 0.6364(2)
H49_2 H 0.3489 0.5047 0.5940
C62_2 C 0.51735(19) 0.5014(3) 0.9215(2)
H50_2 H 0.5546 0.5105 0.9419
C63 C 0.4936(2) 0.4939(3) 0.8508(2)
H51 H 0.5147 0.4988 0.8243
C64 C 0.4324(2) 0.4811(5) 0.9299(3)
H52 H 0.4110 0.4783 0.9562
C65 C 0.4083(2) 0.4708(5) 0.8597(3)
H53 H 0.3716 0.4581 0.8393
C66 C 0.41626(19) 0.4019(3) 0.7144(2)
H54 H 0.4340 0.3572 0.7360
C1 C 0.5062(2) 0.0839(3) 0.2183(3)
C2 C 0.50327(19) 0.2979(2) 0.2162(3)
O1 O 0.71490(13) 0.09601(18) 0.06553(15)
O6 O 0.66714(11) 0.39386(16) 0.00051(14)
O8 O 0.81625(16) 0.4600(3) 0.24404(19)
O9 O 0.85596(18) 0.2079(3) 0.29933(19)
O10 O 0.68925(12) 0.2737(2) 0.14383(15)
N2 N 0.54558(17) 0.0941(2) 0.0417(2)
N4 N 0.52283(15) 0.3003(2) 0.0252(2)
N5 N 0.75103(16) 0.3683(3) 0.19638(18)
N6 N 0.77057(18) 0.2388(3) 0.22613(19)
N7 N 0.83927(17) 0.3326(3) 0.26615(19)
C3 C 0.71341(16) 0.4005(2) 0.0457(2)
C5 C 0.56043(19) 0.2836(3) 0.1497(3)
H1 H 0.5944 0.2735 0.1480
C6 C 0.90038(17) 0.3239(3) 0.1831(2)
C7 C 0.57034(17) 0.3138(3) 0.0168(2)
H2 H 0.6032 0.3243 0.0525
C8 C 0.51566(19) 0.2990(2) 0.0891(3)
C9 C 0.73434(19) 0.2921(3) 0.1852(2)
C15 C 0.7123(2) 0.4296(3) 0.1616(2)
H7 H 0.6756 0.4092 0.1469
H8 H 0.7155 0.4712 0.1938
C16 C 0.5540(2) 0.2836(3) 0.2117(3)
H9 H 0.5840 0.2738 0.2516
C17 C 0.5704(2) 0.0657(3) 0.1628(3)
H10 H 0.6048 0.0510 0.1650
C18 C 0.5318(2) 0.0903(3) 0.1011(3)
C20_2 C 0.4654(2) 0.3131(3) 0.0926(3)
H12_2 H 0.4355 0.3236 0.0528
C21 C 0.8977(2) 0.3529(4) 0.3011(2)
H13 H 0.9131 0.3209 0.3417
H14 H 0.9002 0.4063 0.3160
C22 C 0.7527(2) 0.1588(3) 0.2244(2)
H15 H 0.7647 0.1392 0.2709
H16 H 0.7133 0.1572 0.2052
C23 C 0.8246(2) 0.2586(4) 0.2667(2)
C25 C 0.7217(2) 0.4620(3) 0.0996(2)
H18 H 0.7585 0.4821 0.1139
H19 H 0.6967 0.5044 0.0802
C27 C 0.5580(2) 0.0629(3) 0.2213(3)
H21 H 0.5843 0.0471 0.2627
C29 C 0.5966(2) 0.1007(3) 0.0420(3)
H23 H 0.6276 0.1062 0.0815
C30 C 0.8037(2) 0.3919(4) 0.2370(2)
C31_2 C 0.4594(2) 0.3117(3) 0.1549(3)
H24_2 H 0.4251 0.3201 0.1561
C32_2 C 0.4681(2) 0.1070(3) 0.1562(3)
H25_2 H 0.4333 0.1204 0.1534
C33_2 C 0.4806(2) 0.1107(3) 0.0975(3)
H26_2 H 0.4544 0.1268 0.0561
C35 C 0.9308(2) 0.3432(4) 0.2587(2)
H28 H 0.9511 0.3906 0.2614
H29 H 0.9571 0.3024 0.2789
C36 C 0.7745(2) 0.1063(3) 0.1824(2)
H30 H 0.8140 0.1067 0.2022
H31 H 0.7625 0.0537 0.1848
C37 C 0.75550(18) 0.1307(3) 0.1075(2)
C40_2 C 0.4938(2) 0.0839(3) 0.2817(3)
N10_2 N 0.40303(16) 0.0984(2) 0.5206(2)
N11_2 N 0.45442(17) 0.0941(2) 0.4583(2)
C41_2 C 0.4887(2) 0.0863(3) 0.5264(3)
H34 H 0.5264 0.0803 0.5432
C42_2 C 0.4296(2) 0.0657(3) 0.3372(3)
H35_2 H 0.3952 0.0510 0.3350
C43_2 C 0.4682(2) 0.0903(3) 0.3989(3)
C44_2 C 0.45688(18) 0.0890(3) 0.5637(3)
H36_2 H 0.4693 0.0851 0.6112
C45_2 C 0.4420(2) 0.0629(3) 0.2787(3)
H37_2 H 0.4157 0.0471 0.2373
C46_2 C 0.4034(2) 0.1007(3) 0.4580(3)
H38_2 H 0.3724 0.1062 0.4185
C47 C 0.5319(2) 0.1070(3) 0.3438(3)
H39 H 0.5667 0.1204 0.3466
C48 C 0.5194(2) 0.1107(3) 0.4025(3)
H40 H 0.5456 0.1268 0.4439
C49_2 C 0.49673(19) 0.2979(2) 0.2838(3)
N12_2 N 0.43560(15) 0.3100(2) 0.5482(2)
N13_2 N 0.47717(15) 0.3003(2) 0.4748(2)
C50_2 C 0.43957(19) 0.2836(3) 0.3503(3)
H41_2 H 0.4056 0.2735 0.3520
C51_2 C 0.42966(17) 0.3138(3) 0.4832(2)
H42_2 H 0.3968 0.3243 0.4475
C52_2 C 0.48434(19) 0.2990(2) 0.4109(3)
C53_2 C 0.49003(19) 0.2946(3) 0.5833(3)
H43 H 0.5065 0.2889 0.6306
C54_2 C 0.4460(2) 0.2836(3) 0.2883(3)
H44_2 H 0.4160 0.2738 0.2484
C55 C 0.5346(2) 0.3131(3) 0.4074(3)
H45 H 0.5645 0.3236 0.4472
C56 C 0.51593(19) 0.2887(3) 0.5396(3)
H46 H 0.5528 0.2789 0.5507
C57 C 0.5406(2) 0.3117(3) 0.3451(3)
H47 H 0.5749 0.3201 0.3439
O12_2 O 0.28510(13) 0.09601(18) 0.43447(15)
O17_2 O 0.33286(11) 0.39386(16) 0.49949(14)
O19_2 O 0.18375(16) 0.4600(3) 0.25596(19)
O20_2 O 0.14404(18) 0.2079(3) 0.20067(19)
O21_2 O 0.31075(12) 0.2737(2) 0.35617(15)
N16_2 N 0.24897(16) 0.3683(3) 0.30362(18)
N17_2 N 0.22943(18) 0.2388(3) 0.27387(19)
N18_2 N 0.16073(17) 0.3326(3) 0.23385(19)
C67_2 C 0.28659(16) 0.4005(2) 0.4543(2)
C68_2 C 0.09962(17) 0.3239(3) 0.3169(2)
C69_2 C 0.26566(19) 0.2921(3) 0.3148(2)
C70_2 C 0.2877(2) 0.4296(3) 0.3384(2)
H55_2 H 0.3244 0.4092 0.3531
H56_2 H 0.2845 0.4712 0.3062
C71_2 C 0.1023(2) 0.3529(4) 0.1989(2)
H57_2 H 0.0869 0.3209 0.1583
H58_2 H 0.0998 0.4063 0.1840
C72_2 C 0.2473(2) 0.1588(3) 0.2756(2)
H59_2 H 0.2353 0.1392 0.2291
H60_2 H 0.2867 0.1572 0.2948
C73_2 C 0.1754(2) 0.2586(4) 0.2333(2)
C74_2 C 0.2783(2) 0.4620(3) 0.4004(2)
H61_2 H 0.2415 0.4821 0.3861
H62 H 0.3033 0.5044 0.4198
C75_2 C 0.1963(2) 0.3919(4) 0.2630(2)
C76_2 C 0.0692(2) 0.3432(4) 0.2413(2)
H63_2 H 0.0489 0.3906 0.2386
H64_2 H 0.0429 0.3024 0.2211
C77_2 C 0.2255(2) 0.1063(3) 0.3176(2)
H65_2 H 0.1860 0.1067 0.2978
H66_2 H 0.2375 0.0537 0.3152
C78_2 C 0.24450(18) 0.1307(3) 0.3925(2)
C19 C 0.01735(19) 0.9986(3) 0.4215(2)
H11 H 0.0546 0.9895 0.4419
N14_2 N 0.11108(14) 0.9082(2) 0.85269(18)
C58_2 C 0.01285(17) 0.9955(3) 0.5382(2)
N15_2 N 0.08483(15) 0.9685(2) 0.7527(2)
C60_2 C 0.06051(17) 0.9796(3) 0.6796(2)
C61_2 C 0.13072(17) 0.9833(2) 0.8636(2)
C63_2 C 0.0064(2) 0.9939(3) 0.6492(2)
C64_2 C 0.0676(2) 0.9811(5) 0.5701(3)
H52_2 H 0.0890 0.9783 0.5438
C65_2 C 0.0917(2) 0.9708(5) 0.6403(3)
H53_2 H 0.1284 0.9581 0.6607
C66_2 C 0.08374(19) 0.9019(3) 0.7856(2)
H54_2 H 0.0660 0.8572 0.7640
Co6 Co 0.13068(2) 0.81448(3) 0.91922(3)
N14_3 N 0.88892(14) 0.9082(2) 0.64731(18)
C58_3 C 0.98715(17) 0.9955(3) 0.9618(2)
N15_3 N 0.91517(15) 0.9685(2) 0.7473(2)
C60_3 C 0.93949(17) 0.9796(3) 0.8204(2)
C61_3 C 0.86928(17) 0.9833(2) 0.6364(2)
C63_3 C 0.9936(2) 0.9939(3) 0.8508(2)
C64_3 C 0.9324(2) 0.9811(5) 0.9299(3)
H52_3 H 0.9110 0.9783 0.9562
C65_3 C 0.9083(2) 0.9708(5) 0.8597(3)
H53_3 H 0.8716 0.9581 0.8393
C66_3 C 0.91626(19) 0.9019(3) 0.7144(2)
H54_3 H 0.9340 0.8572 0.7360
Co6_2 Co 0.86932(2) 0.81448(3) 0.58078(3)
C1_2 C 0.4938(2) 0.9161(3) 0.7817(3)
C2_2 C 0.49673(19) 0.7021(2) 0.7838(3)
Co2_2 Co 0.2500 0.7500 1.0000
O1_2 O 0.28510(13) 0.90399(18) 0.93447(15)
O2 O 0.12692(12) 0.62317(17) 0.85487(15)
O3 O 0.09437(14) 0.74376(17) 0.83536(14)
O5 O 0.21966(12) 0.81253(16) 0.90631(13)
O6_2 O 0.33286(11) 0.60614(16) 0.99949(14)
O7 O 0.24588(10) 0.64371(15) 0.94749(13)
O8_2 O 0.18375(16) 0.5400(3) 0.75596(19)
O9_2 O 0.14404(18) 0.7921(3) 0.70067(19)
O10_2 O 0.31075(12) 0.7263(2) 0.85617(15)
N2_2 N 0.45442(17) 0.9059(2) 0.9583(2)
N4_2 N 0.47717(15) 0.6997(2) 0.9748(2)
N5_2 N 0.24897(16) 0.6317(3) 0.80362(18)
N6_2 N 0.22943(18) 0.7612(3) 0.77387(19)
N7_2 N 0.16073(17) 0.6674(3) 0.73385(19)
C3_2 C 0.28659(16) 0.5995(2) 0.9543(2)
C5_2 C 0.43957(19) 0.7164(3) 0.8503(3)
H1_2 H 0.4056 0.7265 0.8520
C6_2 C 0.09962(17) 0.6761(3) 0.8169(2)
C7_2 C 0.42966(17) 0.6862(3) 0.9832(2)
H2_2 H 0.3968 0.6757 0.9475
C8_2 C 0.48434(19) 0.7010(2) 0.9109(3)
C9_2 C 0.26566(19) 0.7079(3) 0.8148(2)
C15_2 C 0.2877(2) 0.5704(3) 0.8384(2)
H7_2 H 0.3244 0.5908 0.8531
H8_2 H 0.2845 0.5288 0.8062
C16_2 C 0.4460(2) 0.7164(3) 0.7883(3)
H9_2 H 0.4160 0.7262 0.7484
C17_2 C 0.4296(2) 0.9343(3) 0.8372(3)
H10_2 H 0.3952 0.9490 0.8350
C18_2 C 0.4682(2) 0.9097(3) 0.8989(3)
C20_3 C 0.5346(2) 0.6869(3) 0.9074(3)
H12_3 H 0.5645 0.6764 0.9472
C21_2 C 0.1023(2) 0.6471(4) 0.6989(2)
H13_2 H 0.0869 0.6791 0.6583
H14_2 H 0.0998 0.5937 0.6840
C22_2 C 0.2473(2) 0.8412(3) 0.7756(2)
H15_2 H 0.2353 0.8608 0.7291
H16_2 H 0.2867 0.8428 0.7948
C23_2 C 0.1754(2) 0.7414(4) 0.7333(2)
C25_2 C 0.2783(2) 0.5380(3) 0.9004(2)
H18_2 H 0.2415 0.5179 0.8861
H19_2 H 0.3033 0.4956 0.9198
C27_2 C 0.4420(2) 0.9371(3) 0.7787(3)
H21_2 H 0.4157 0.9529 0.7373
C29_2 C 0.4034(2) 0.8993(3) 0.9580(3)
H23_2 H 0.3724 0.8938 0.9185
C30_2 C 0.1963(2) 0.6081(4) 0.7630(2)
C31_3 C 0.5406(2) 0.6883(3) 0.8451(3)
H24_3 H 0.5749 0.6799 0.8439
C32_3 C 0.5319(2) 0.8930(3) 0.8438(3)
H25_3 H 0.5667 0.8796 0.8466
C33_3 C 0.5194(2) 0.8893(3) 0.9025(3)
H26_3 H 0.5456 0.8732 0.9439
C35_2 C 0.0692(2) 0.6568(4) 0.7413(2)
H28_2 H 0.0489 0.6094 0.7386
H29_2 H 0.0429 0.6976 0.7211
C36_2 C 0.2255(2) 0.8937(3) 0.8176(2)
H30_2 H 0.1860 0.8933 0.7978
H31_2 H 0.2375 0.9463 0.8152
C37_2 C 0.24450(18) 0.8693(3) 0.8925(2)
C40_3 C 0.5062(2) 0.9161(3) 0.7183(3)
N10_3 N 0.59697(16) 0.9016(2) 0.4794(2)
N11_3 N 0.54558(17) 0.9059(2) 0.5417(2)
C41_3 C 0.5113(2) 0.9137(3) 0.4736(3)
H34_2 H 0.4736 0.9197 0.4568
C42_3 C 0.5704(2) 0.9343(3) 0.6628(3)
H35_3 H 0.6048 0.9490 0.6650
C43_3 C 0.5318(2) 0.9097(3) 0.6011(3)
C44_3 C 0.54312(18) 0.9110(3) 0.4363(3)
H36_3 H 0.5307 0.9149 0.3888
C45_3 C 0.5580(2) 0.9371(3) 0.7213(3)
H37_3 H 0.5843 0.9529 0.7627
C46_3 C 0.5966(2) 0.8993(3) 0.5420(3)
H38_3 H 0.6276 0.8938 0.5815
C47_2 C 0.4681(2) 0.8930(3) 0.6562(3)
H39_2 H 0.4333 0.8796 0.6534
C48_2 C 0.4806(2) 0.8893(3) 0.5975(3)
H40_2 H 0.4544 0.8732 0.5561
C49_3 C 0.50327(19) 0.7021(2) 0.7162(3)
N12_3 N 0.56440(15) 0.6900(2) 0.4518(2)
N13_3 N 0.52283(15) 0.6997(2) 0.5252(2)
C50_3 C 0.56043(19) 0.7164(3) 0.6497(3)
H41_3 H 0.5944 0.7265 0.6480
C51_3 C 0.57034(17) 0.6862(3) 0.5168(2)
H42_3 H 0.6032 0.6757 0.5525
C52_3 C 0.51566(19) 0.7010(2) 0.5891(3)
C53_3 C 0.50997(19) 0.7054(3) 0.4167(3)
H43_2 H 0.4935 0.7111 0.3694
C54_3 C 0.5540(2) 0.7164(3) 0.7117(3)
H44_3 H 0.5840 0.7262 0.7516
C55_2 C 0.4654(2) 0.6869(3) 0.5926(3)
H45_2 H 0.4355 0.6764 0.5528
C56_2 C 0.48407(19) 0.7113(3) 0.4604(3)
H46_2 H 0.4472 0.7211 0.4493
C57_2 C 0.4594(2) 0.6883(3) 0.6549(3)
H47_2 H 0.4251 0.6799 0.6561
Co4_2 Co 0.63068(2) 0.68552(3) 0.41922(3)
Co5_2 Co 0.66806(2) 0.88687(3) 0.45832(3)
O12_3 O 0.71490(13) 0.90399(18) 0.56553(15)
O13_2 O 0.87308(12) 0.62317(17) 0.64513(15)
O14_2 O 0.90563(14) 0.74376(17) 0.66464(14)
O15_2 O 0.67095(10) 0.77165(15) 0.48382(12)
O16_2 O 0.78034(12) 0.81253(16) 0.59369(13)
O17_3 O 0.66714(11) 0.60614(16) 0.50051(14)
O18_2 O 0.75412(10) 0.64371(15) 0.55251(13)
O19_3 O 0.81625(16) 0.5400(3) 0.74404(19)
O20_3 O 0.85596(18) 0.7921(3) 0.79933(19)
O21_3 O 0.68925(12) 0.7263(2) 0.64383(15)
N16_3 N 0.75103(16) 0.6317(3) 0.69638(18)
N17_3 N 0.77057(18) 0.7612(3) 0.72613(19)
N18_3 N 0.83927(17) 0.6674(3) 0.76615(19)
C67_3 C 0.71341(16) 0.5995(2) 0.5457(2)
C68_3 C 0.90038(17) 0.6761(3) 0.6831(2)
C69_3 C 0.73434(19) 0.7079(3) 0.6852(2)
C70_3 C 0.7123(2) 0.5704(3) 0.6616(2)
H55_3 H 0.6756 0.5908 0.6469
H56_3 H 0.7155 0.5288 0.6938
C71_3 C 0.8977(2) 0.6471(4) 0.8011(2)
H57_3 H 0.9131 0.6791 0.8417
H58_3 H 0.9002 0.5937 0.8160
C72_3 C 0.7527(2) 0.8412(3) 0.7244(2)
H59_3 H 0.7647 0.8608 0.7709
H60_3 H 0.7133 0.8428 0.7052
C73_3 C 0.8246(2) 0.7414(4) 0.7667(2)
C74_3 C 0.7217(2) 0.5380(3) 0.5996(2)
H61_3 H 0.7585 0.5179 0.6139
H62_2 H 0.6967 0.4956 0.5802
C75_3 C 0.8037(2) 0.6081(4) 0.7370(2)
C76_3 C 0.9308(2) 0.6568(4) 0.7587(2)
H63_3 H 0.9511 0.6094 0.7614
H64_3 H 0.9571 0.6976 0.7789
C77_3 C 0.7745(2) 0.8937(3) 0.6824(2)
H65_3 H 0.8140 0.8933 0.7022
H66_3 H 0.7625 0.9463 0.6848
C78_3 C 0.75550(18) 0.8693(3) 0.6075(2)
Co9_2 Co 0.7500 0.7500 0.5000
Co10 Co 0.16806(2) 0.61313(3) 0.95832(3)
Co11_2 Co 0.83194(2) 0.61313(3) 0.54168(3)
O24_2 O 0.62692(12) 0.87683(17) 0.35487(15)
O26_2 O 0.59437(14) 0.75624(17) 0.33536(14)
O27_2 O 0.17095(10) 0.72835(15) 0.98382(12)
O30_2 O 0.74588(10) 0.85629(15) 0.44749(13)
N19_2 N 0.61108(14) 0.5918(2) 0.35269(18)
C4_3 C 0.51285(17) 0.5045(3) 0.0382(2)
N9_3 N 0.58483(15) 0.5315(2) 0.2527(2)
C10 C 0.61519(17) 0.4791(3) 0.3017(2)
H3 H 0.6235 0.4284 0.2942
C11_3 C 0.56051(17) 0.5204(3) 0.1796(2)
C13_3 C 0.63072(17) 0.5167(2) 0.3636(2)
H5 H 0.6511 0.4953 0.4060
C19_2 C 0.48265(19) 0.4986(3) 0.0785(2)
H11_2 H 0.4454 0.4895 0.0581
C26_3 C 0.5064(2) 0.5061(3) 0.1492(2)
H20_2 H 0.4853 0.5012 0.1757
C34_3 C 0.5676(2) 0.5189(5) 0.0701(3)
H27_3 H 0.5890 0.5217 0.0438
C38_3 C 0.5917(2) 0.5292(5) 0.1403(3)
H32_3 H 0.6284 0.5419 0.1607
C39_3 C 0.58374(19) 0.5981(3) 0.2856(2)
H33_3 H 0.5660 0.6428 0.2640
O27_3 O 0.82905(10) 0.72835(15) 0.51618(12)
O28_3 O 0.71966(12) 0.68747(16) 0.40631(13)
O11_2 O 0.17674(17) 0.4919(2) 0.9491(2)
N1_2 N 0.09697(16) 0.5984(2) 0.9794(2)
N3_2 N 0.06440(15) 0.8100(2) 0.9518(2)
C12_2 C 0.00997(19) 0.7946(3) 0.9167(3)
C14_2 C 0.0113(2) 0.5863(3) 0.9736(3)
C24_2 C 0.04312(18) 0.5890(3) 0.9363(3)
H17_2 H 0.0307 0.5851 0.8888
C20_4 C 0.9654(2) 0.8131(3) 0.0926(3)
H12_4 H 0.9355 0.8236 0.0528
C31_4 C 0.9594(2) 0.8117(3) 0.1549(3)
H24_4 H 0.9251 0.8201 0.1561
C32_4 C 0.9681(2) 0.6070(3) 0.1562(3)
H25_4 H 0.9333 0.6204 0.1534
C33_4 C 0.9806(2) 0.6107(3) 0.0975(3)
H26_4 H 0.9544 0.6268 0.0561
C40_4 C 0.9938(2) 0.5839(3) 0.2817(3)
N10_4 N 0.90303(16) 0.5984(2) 0.5206(2)
N11_4 N 0.95442(17) 0.5941(2) 0.4583(2)
C41_4 C 0.9887(2) 0.5863(3) 0.5264(3)
C42_4 C 0.9296(2) 0.5657(3) 0.3372(3)
H35_4 H 0.8952 0.5510 0.3350
C43_4 C 0.9682(2) 0.5903(3) 0.3989(3)
C44_4 C 0.95688(18) 0.5890(3) 0.5637(3)
H36_4 H 0.9693 0.5851 0.6112
C45_4 C 0.9420(2) 0.5629(3) 0.2787(3)
H37_4 H 0.9157 0.5471 0.2373
C46_4 C 0.9034(2) 0.6007(3) 0.4580(3)
H38_4 H 0.8724 0.6062 0.4185
C49_4 C 0.99673(19) 0.7979(2) 0.2838(3)
N12_4 N 0.93560(15) 0.8100(2) 0.5482(2)
N13_4 N 0.97717(15) 0.8003(2) 0.4748(2)
C50_4 C 0.93957(19) 0.7836(3) 0.3503(3)
H41_4 H 0.9056 0.7735 0.3520
C51_4 C 0.92966(17) 0.8138(3) 0.4832(2)
H42_4 H 0.8968 0.8243 0.4475
C52_4 C 0.98434(19) 0.7990(2) 0.4109(3)
C53_4 C 0.99003(19) 0.7946(3) 0.5833(3)
C54_4 C 0.9460(2) 0.7836(3) 0.2883(3)
H44_4 H 0.9160 0.7738 0.2484
O12_4 O 0.78510(13) 0.59601(18) 0.43447(15)
O17_4 O 0.83286(11) 0.89386(16) 0.49949(14)
O19_4 O 0.68375(16) 0.9600(3) 0.25596(19)
O20_4 O 0.64404(18) 0.7079(3) 0.20067(19)
O21_4 O 0.81075(12) 0.7737(2) 0.35617(15)
O22_2 O 0.82326(17) 0.4919(2) 0.5509(2)
N16_4 N 0.74897(16) 0.8683(3) 0.30362(18)
N17_4 N 0.72943(18) 0.7388(3) 0.27387(19)
N18_4 N 0.66073(17) 0.8326(3) 0.23385(19)
C67_4 C 0.78659(16) 0.9005(2) 0.4543(2)
C68_4 C 0.59962(17) 0.8239(3) 0.3169(2)
C69_4 C 0.76566(19) 0.7921(3) 0.3148(2)
C70_4 C 0.7877(2) 0.9296(3) 0.3384(2)
H55_4 H 0.8244 0.9092 0.3531
H56_4 H 0.7845 0.9712 0.3062
C71_4 C 0.6023(2) 0.8529(4) 0.1989(2)
H57_4 H 0.5869 0.8209 0.1583
H58_4 H 0.5998 0.9063 0.1840
C72_4 C 0.7473(2) 0.6588(3) 0.2756(2)
H59_4 H 0.7353 0.6392 0.2291
H60_4 H 0.7867 0.6572 0.2948
C73_4 C 0.6754(2) 0.7586(4) 0.2333(2)
C74_4 C 0.7783(2) 0.9620(3) 0.4004(2)
H61_4 H 0.7415 0.9821 0.3861
C75_4 C 0.6963(2) 0.8919(4) 0.2630(2)
C76_4 C 0.5692(2) 0.8432(4) 0.2413(2)
H63_4 H 0.5489 0.8906 0.2386
H64_4 H 0.5429 0.8024 0.2211
C77_4 C 0.7255(2) 0.6063(3) 0.3176(2)
H65_4 H 0.6860 0.6067 0.2978
H66_4 H 0.7375 0.5537 0.3152
C78_4 C 0.74450(18) 0.6307(3) 0.3925(2)
H62_3 H 0.1967 0.9956 0.5802
C10_2 C 0.11519(17) 0.9791(3) 0.3017(2)
H3_2 H 0.1235 0.9284 0.2942
H5_2 H 0.1511 0.9953 0.4060
C1_3 C 0.9938(2) 0.4161(3) 0.7817(3)
C2_3 C 0.99673(19) 0.2021(2) 0.7838(3)
Co2_3 Co 0.7500 0.2500 1.0000
O1_3 O 0.78510(13) 0.40399(18) 0.93447(15)
O2_2 O 0.62692(12) 0.12317(17) 0.85487(15)
O3_2 O 0.59437(14) 0.24376(17) 0.83536(14)
O5_2 O 0.71966(12) 0.31253(16) 0.90631(13)
O6_3 O 0.83286(11) 0.10614(16) 0.99949(14)
O7_2 O 0.74588(10) 0.14371(15) 0.94749(13)
O8_3 O 0.68375(16) 0.0400(3) 0.75596(19)
O9_3 O 0.64404(18) 0.2921(3) 0.70067(19)
O10_3 O 0.81075(12) 0.2263(2) 0.85617(15)
N2_3 N 0.95442(17) 0.4059(2) 0.9583(2)
N4_3 N 0.97717(15) 0.1997(2) 0.9748(2)
N5_3 N 0.74897(16) 0.1317(3) 0.80362(18)
N6_3 N 0.72943(18) 0.2612(3) 0.77387(19)
N7_3 N 0.66073(17) 0.1674(3) 0.73385(19)
C3_3 C 0.78659(16) 0.0995(2) 0.9543(2)
C5_3 C 0.93957(19) 0.2164(3) 0.8503(3)
H1_3 H 0.9056 0.2265 0.8520
C6_3 C 0.59962(17) 0.1761(3) 0.8169(2)
C7_3 C 0.92966(17) 0.1862(3) 0.9832(2)
H2_3 H 0.8968 0.1757 0.9475
C8_3 C 0.98434(19) 0.2010(2) 0.9109(3)
C9_3 C 0.76566(19) 0.2079(3) 0.8148(2)
C15_3 C 0.7877(2) 0.0704(3) 0.8384(2)
H7_3 H 0.8244 0.0908 0.8531
H8_3 H 0.7845 0.0288 0.8062
C16_3 C 0.9460(2) 0.2164(3) 0.7883(3)
H9_3 H 0.9160 0.2262 0.7484
C17_3 C 0.9296(2) 0.4343(3) 0.8372(3)
H10_3 H 0.8952 0.4490 0.8350
C18_3 C 0.9682(2) 0.4097(3) 0.8989(3)
C21_3 C 0.6023(2) 0.1471(4) 0.6989(2)
H13_3 H 0.5869 0.1791 0.6583
H14_3 H 0.5998 0.0937 0.6840
C22_3 C 0.7473(2) 0.3412(3) 0.7756(2)
H15_3 H 0.7353 0.3608 0.7291
H16_3 H 0.7867 0.3428 0.7948
C23_3 C 0.6754(2) 0.2414(4) 0.7333(2)
C25_3 C 0.7783(2) 0.0380(3) 0.9004(2)
H18_3 H 0.7415 0.0179 0.8861
C27_3 C 0.9420(2) 0.4371(3) 0.7787(3)
H21_3 H 0.9157 0.4529 0.7373
C29_3 C 0.9034(2) 0.3993(3) 0.9580(3)
H23_3 H 0.8724 0.3938 0.9185
C30_3 C 0.6963(2) 0.1081(4) 0.7630(2)
C35_3 C 0.5692(2) 0.1568(4) 0.7413(2)
H28_3 H 0.5489 0.1094 0.7386
H29_3 H 0.5429 0.1976 0.7211
C36_3 C 0.7255(2) 0.3937(3) 0.8176(2)
H30_3 H 0.6860 0.3933 0.7978
H31_3 H 0.7375 0.4463 0.8152
C37_3 C 0.74450(18) 0.3693(3) 0.8925(2)
H34_3 H 0.9736 0.4197 0.4568
C47_3 C 0.9681(2) 0.3930(3) 0.6562(3)
H39_3 H 0.9333 0.3796 0.6534
C48_3 C 0.9806(2) 0.3893(3) 0.5975(3)
H40_3 H 0.9544 0.3732 0.5561
H43_3 H 0.9935 0.2111 0.3694
C55_3 C 0.9654(2) 0.1869(3) 0.5926(3)
H45_3 H 0.9355 0.1764 0.5528
C56_3 C 0.98407(19) 0.2113(3) 0.4604(3)
H46_3 H 0.9472 0.2211 0.4493
C57_3 C 0.9594(2) 0.1883(3) 0.6549(3)
H47_3 H 0.9251 0.1799 0.6561
Co7 Co 0.63068(2) 0.31448(3) 0.91922(3)
Co10_2 Co 0.66806(2) 0.11313(3) 0.95832(3)
O27_4 O 0.67095(10) 0.22835(15) 0.98382(12)
H51_2 H 0.0147 0.9988 0.8243
H20_3 H 0.9853 0.0012 0.1757
Co1_2 Co 0.36932(2) 0.68552(3) 0.08078(3)
Co2_4 Co 0.2500 0.7500 0.0000
Co3_2 Co 0.33194(2) 0.88687(3) 0.04168(3)
O4_2 O 0.32905(10) 0.77165(15) 0.01618(12)
N1_3 N 0.40303(16) 0.9016(2) 0.0206(2)
N3_3 N 0.43560(15) 0.6900(2) 0.0482(2)
N8_2 N 0.38892(14) 0.5918(2) 0.14731(18)
C4_4 C 0.48715(17) 0.5045(3) 0.4618(2)
N9_4 N 0.41517(15) 0.5315(2) 0.2473(2)
C10_3 C 0.38481(17) 0.4791(3) 0.1983(2)
H3_3 H 0.3765 0.4284 0.2058
C11_4 C 0.43949(17) 0.5204(3) 0.3204(2)
C12_3 C 0.49003(19) 0.7054(3) 0.0833(3)
H4_2 H 0.5065 0.7111 0.1306
C13_4 C 0.36928(17) 0.5167(2) 0.1364(2)
H5_3 H 0.3489 0.4953 0.0940
C14_3 C 0.4887(2) 0.9137(3) 0.0264(3)
H6_2 H 0.5264 0.9197 0.0432
C19_3 C 0.51735(19) 0.4986(3) 0.4215(2)
H11_3 H 0.5546 0.4895 0.4419
C24_3 C 0.45688(18) 0.9110(3) 0.0637(3)
H17_3 H 0.4693 0.9149 0.1112
C26_4 C 0.4936(2) 0.5061(3) 0.3508(2)
H20_4 H 0.5147 0.5012 0.3243
C28_2 C 0.51593(19) 0.7113(3) 0.0396(3)
H22_2 H 0.5528 0.7211 0.0507
C34_4 C 0.4324(2) 0.5189(5) 0.4299(3)
H27_4 H 0.4110 0.5217 0.4562
C38_4 C 0.4083(2) 0.5292(5) 0.3597(3)
H32_4 H 0.3716 0.5419 0.3393
C39_4 C 0.41626(19) 0.5981(3) 0.2144(2)
H33_4 H 0.4340 0.6428 0.2360
N14_4 N 0.61108(14) 0.4082(2) 0.85269(18)
C58_4 C 0.51285(17) 0.4955(3) 0.5382(2)
N15_4 N 0.58483(15) 0.4685(2) 0.7527(2)
C59_3 C 0.61519(17) 0.5209(3) 0.8017(2)
H48_3 H 0.6235 0.5716 0.7942
C60_4 C 0.56051(17) 0.4796(3) 0.6796(2)
C61_4 C 0.63072(17) 0.4833(2) 0.8636(2)
H49_3 H 0.6511 0.5047 0.9060
C62_3 C 0.48265(19) 0.5014(3) 0.5785(2)
H50_3 H 0.4454 0.5105 0.5581
C63_4 C 0.5064(2) 0.4939(3) 0.6492(2)
H51_3 H 0.4853 0.4988 0.6757
C64_4 C 0.5676(2) 0.4811(5) 0.5701(3)
H52_4 H 0.5890 0.4783 0.5438
C65_4 C 0.5917(2) 0.4708(5) 0.6403(3)
H53_4 H 0.6284 0.4581 0.6607
C66_4 C 0.58374(19) 0.4019(3) 0.7856(2)
H54_4 H 0.5660 0.3572 0.7640
O23_2 O 0.37308(12) 0.87683(17) 0.14513(15)
O25_2 O 0.40563(14) 0.75624(17) 0.16464(14)
O28_4 O 0.28034(12) 0.68747(16) 0.09369(13)
O29_2 O 0.25412(10) 0.85629(15) 0.05251(13)
C1_4 C 0.0062(2) 0.5839(3) 0.2183(3)
C2_4 C 0.00327(19) 0.7979(2) 0.2162(3)
O1_4 O 0.21490(13) 0.59601(18) 0.06553(15)
O6_4 O 0.16714(11) 0.89386(16) 0.00051(14)
O8_4 O 0.31625(16) 0.9600(3) 0.24404(19)
O9_4 O 0.35596(18) 0.7079(3) 0.29933(19)
O10_4 O 0.18925(12) 0.7737(2) 0.14383(15)
N2_4 N 0.04558(17) 0.5941(2) 0.0417(2)
N4_4 N 0.02283(15) 0.8003(2) 0.0252(2)
N5_4 N 0.25103(16) 0.8683(3) 0.19638(18)
N6_4 N 0.27057(18) 0.7388(3) 0.22613(19)
N7_4 N 0.33927(17) 0.8326(3) 0.26615(19)
C3_4 C 0.21341(16) 0.9005(2) 0.0457(2)
C5_4 C 0.06043(19) 0.7836(3) 0.1497(3)
H1_4 H 0.0944 0.7735 0.1480
C6_4 C 0.40038(17) 0.8239(3) 0.1831(2)
C7_4 C 0.07034(17) 0.8138(3) 0.0168(2)
H2_4 H 0.1032 0.8243 0.0525
C8_4 C 0.01566(19) 0.7990(2) 0.0891(3)
C9_4 C 0.23434(19) 0.7921(3) 0.1852(2)
C15_4 C 0.2123(2) 0.9296(3) 0.1616(2)
H7_4 H 0.1756 0.9092 0.1469
H8_4 H 0.2155 0.9712 0.1938
C16_4 C 0.0540(2) 0.7836(3) 0.2117(3)
H9_4 H 0.0840 0.7738 0.2516
C17_4 C 0.0704(2) 0.5657(3) 0.1628(3)
H10_4 H 0.1048 0.5510 0.1650
C18_4 C 0.0318(2) 0.5903(3) 0.1011(3)
C21_4 C 0.3977(2) 0.8529(4) 0.3011(2)
H13_4 H 0.4131 0.8209 0.3417
H14_4 H 0.4002 0.9063 0.3160
C22_4 C 0.2527(2) 0.6588(3) 0.2244(2)
H15_4 H 0.2647 0.6392 0.2709
H16_4 H 0.2133 0.6572 0.2052
C23_4 C 0.3246(2) 0.7586(4) 0.2667(2)
C25_4 C 0.2217(2) 0.9620(3) 0.0996(2)
H18_4 H 0.2585 0.9821 0.1139
C27_4 C 0.0580(2) 0.5629(3) 0.2213(3)
H21_4 H 0.0843 0.5471 0.2627
C29_4 C 0.0966(2) 0.6007(3) 0.0420(3)
H23_4 H 0.1276 0.6062 0.0815
C30_4 C 0.3037(2) 0.8919(4) 0.2370(2)
C35_4 C 0.4308(2) 0.8432(4) 0.2587(2)
H28_4 H 0.4511 0.8906 0.2614
H29_4 H 0.4571 0.8024 0.2789
C36_4 C 0.2745(2) 0.6063(3) 0.1824(2)
H30_4 H 0.3140 0.6067 0.2022
H31_4 H 0.2625 0.5537 0.1848
C37_4 C 0.25550(18) 0.6307(3) 0.1075(2)
H34_4 H 0.0264 0.5803 0.5432
C47_4 C 0.0319(2) 0.6070(3) 0.3438(3)
H39_4 H 0.0667 0.6204 0.3466
C48_4 C 0.0194(2) 0.6107(3) 0.4025(3)
H40_4 H 0.0456 0.6268 0.4439
H43_4 H 0.0065 0.7889 0.6306
C55_4 C 0.0346(2) 0.8131(3) 0.4074(3)
H45_4 H 0.0645 0.8236 0.4472
C56_4 C 0.01593(19) 0.7887(3) 0.5396(3)
H46_4 H 0.0528 0.7789 0.5507
C57_4 C 0.0406(2) 0.8117(3) 0.3451(3)
H47_4 H 0.0749 0.8201 0.3439
N1_4 N 0.59697(16) 0.0984(2) 0.9794(2)
N3_4 N 0.56440(15) 0.3100(2) 0.9518(2)
C12_4 C 0.50997(19) 0.2946(3) 0.9167(3)
H4_3 H 0.4935 0.2889 0.8694
C14_4 C 0.5113(2) 0.0863(3) 0.9736(3)
H6_3 H 0.4736 0.0803 0.9568
C24_4 C 0.54312(18) 0.0890(3) 0.9363(3)
H17_4 H 0.5307 0.0851 0.8888
C28_3 C 0.48407(19) 0.2887(3) 0.9604(3)
H22_3 H 0.4472 0.2789 0.9493
C10_4 C 0.88481(17) 0.9791(3) 0.1983(2)
H3_4 H 0.8765 0.9284 0.2058
H5_4 H 0.8489 0.9953 0.0940
H51_4 H 0.9853 0.9988 0.6757
H4_4 H 0.9935 0.7889 0.8694
H6_4 H 0.9736 0.5803 0.9568
C28_4 C 0.98407(19) 0.7887(3) 0.9604(3)
H22_4 H 0.9472 0.7789 0.9493
H19_3 H 0.8033 0.9956 0.9198
C19_4 C 0.98265(19) 0.9986(3) 0.0785(2)
H11_4 H 0.9454 0.9895 0.0581
C62_4 C 0.01735(19) 0.0014(3) 0.9215(2)
H50_4 H 0.0546 0.0105 0.9419
H19_4 H 0.1967 0.0044 0.0802
C59_4 C 0.88481(17) 0.0209(3) 0.6983(2)
H48_4 H 0.8765 0.0716 0.7058
H49_4 H 0.8489 0.0047 0.5940
H62_4 H 0.8033 0.0044 0.4198
O11_3 O 0.32326(17) 0.0081(2) 0.0509(2)
O22_3 O 0.67674(17) 0.0081(2) 0.4491(2)
O22_4 O 0.32326(17) 0.9919(2) 0.5509(2)
O11_4 O 0.67674(17) 0.9919(2) 0.9491(2)
loop_
_geom_bond_atom_site_label_1
_geom_bond_atom_site_label_2
_geom_bond_site_symmetry_1
_geom_bond_site_symmetry_2
H22 C28 1_555 1_555
C59 H48 1_555 1_555
H12 C20 1_555 1_555
H24 C31 1_555 1_555
H25 C32 1_555 1_555
H26 C33 1_555 1_555
N10 C44 1_555 1_555
N11 C41 1_555 1_555
C42 H35 1_555 1_555
C43 N11 1_555 1_555
C44 C41 1_555 1_555
H36 C44 1_555 1_555
C45 C40 1_555 1_555
H37 C45 1_555 1_555
C46 N10 1_555 1_555
H38 C46 1_555 1_555
N12 C51 1_555 1_555
N13 C51 1_555 1_555
C50 H41 1_555 1_555
C51 H42 1_555 1_555
C52 N13 1_555 1_555
C53 N12 1_555 1_555
C54 C49 1_555 1_555
H44 C54 1_555 1_555
Co4 N12 1_555 1_555
Co5 N10 1_555 1_555
O12 Co5 1_555 1_555
O13 C68 1_555 1_555
O14 C68 1_555 1_555
O15 Co4 1_555 1_555
O16 C78 1_555 1_555
O17 Co4 1_555 1_555
O18 C67 1_555 1_555
O19 C75 1_555 1_555
O20 C73 1_555 1_555
O21 C69 1_555 1_555
O22 Co5 1_555 1_555
N16 C69 1_555 1_555
N17 C69 1_555 1_555
N18 C71 1_555 1_555
C67 O17 1_555 1_555
C68 C76 1_555 1_555
C70 N16 1_555 1_555
H55 C70 1_555 1_555
H56 C70 1_555 1_555
C71 H57 1_555 1_555
H58 C71 1_555 1_555
C72 N17 1_555 1_555
H59 C72 1_555 1_555
H60 C72 1_555 1_555
C73 N17 1_555 1_555
C74 C67 1_555 1_555
H61 C74 1_555 1_555
C75 N16 1_555 1_555
C76 C71 1_555 1_555
H63 C76 1_555 1_555
H64 C76 1_555 1_555
C77 C72 1_555 1_555
H65 C77 1_555 1_555
H66 C77 1_555 1_555
C78 O12 1_555 1_555
Co8 O14 1_555 1_555
Co9 O15 1_555 1_555
Co11 O13 1_555 1_555
O24 Co5 1_555 1_555
O26 Co4 1_555 1_555
O30 Co5 1_555 1_555
N19 Co4 1_555 1_555
C20 C31 1_555 1_555
C32 C33 1_555 1_555
N11 C46 1_555 1_555
C42 C43 1_555 1_555
C42 C45 1_555 1_555
C50 C52 1_555 1_555
C50 C54 1_555 1_555
Co5 O15 1_555 1_555
O16 Co9 1_555 1_555
O18 Co9 1_555 1_555
O18 Co11 1_555 1_555
N18 C73 1_555 1_555
N18 C75 1_555 1_555
C70 C74 1_555 1_555
C77 C78 1_555 1_555
Co9 O30 1_555 1_555
Co1 O4 1_555 1_555
Co2 O4 1_555 1_555
O4 Co3 1_555 1_555
O11 Co3 1_555 1_555
N1 Co3 1_555 1_555
N3 Co1 1_555 1_555
N8 Co1 1_555 1_555
C11 N9 1_555 1_555
C12 N3 1_555 1_555
C13 N8 1_555 1_555
C24 N1 1_555 1_555
H17 C24 1_555 1_555
C26 C11 1_555 1_555
C34 C4 1_555 1_555
H27 C34 1_555 1_555
C38 C11 1_555 1_555
H32 C38 1_555 1_555
C39 N8 1_555 1_555
H33 C39 1_555 1_555
H50 C62 1_555 1_555
O23 Co3 1_555 1_555
O25 Co1 1_555 1_555
O28 Co2 1_555 1_555
O29 Co2 1_555 1_555
Co3 O29 1_555 1_555
N9 C39 1_555 1_555
C14 C24 1_555 1_555
C34 C38 1_555 1_555
C11_2 N9_2 1_555 1_555
C13_2 N19 1_555 1_555
C26_2 C11_2 1_555 1_555
C34_2 C4_2 1_555 1_555
H27_2 C34_2 1_555 1_555
C38_2 C11_2 1_555 1_555
H32_2 C38_2 1_555 1_555
C39_2 N19 1_555 1_555
H33_2 C39_2 1_555 1_555
O27 Co9 1_555 1_555
O28_2 Co9 1_555 1_555
N9_2 C39_2 1_555 1_555
C34_2 C38_2 1_555 1_555
Co8 O27 1_555 1_555
Co11 O27 1_555 1_555
N14 C61 1_555 1_555
N15 C59_2 1_555 1_555
C59_2 H48_2 1_555 1_555
C60 N15 1_555 1_555
C61 C59_2 1_555 1_555
H49_2 C61 1_555 1_555
C62_2 C58 1_555 1_555
H50_2 C62_2 1_555 1_555
C63 C60 1_555 1_555
H51 C63 1_555 1_555
C64 C58 1_555 1_555
H52 C64 1_555 1_555
C65 C60 1_555 1_555
H53 C65 1_555 1_555
C66 N14 1_555 1_555
H54 C66 1_555 1_555
Co8 N14 1_555 1_555
N15 C66 1_555 1_555
C62_2 C63 1_555 1_555
C64 C65 1_555 1_555
C1 C27 1_555 1_555
C2 C16 1_555 1_555
O1 C37 1_555 1_555
O23 C6 1_555 1_555
O25 C6 1_555 1_555
O8 C30 1_555 1_555
O9 C23 1_555 1_555
O10 C9 1_555 1_555
N4 C7 1_555 1_555
N5 C9 1_555 1_555
N6 C9 1_555 1_555
N7 C21 1_555 1_555
C3 O6 1_555 1_555
C5 H1 1_555 1_555
C6 C35 1_555 1_555
H2 C7 1_555 1_555
C8 N4 1_555 1_555
C15 N5 1_555 1_555
H7 C15 1_555 1_555
H8 C15 1_555 1_555
C16 C5 1_555 1_555
H9 C16 1_555 1_555
C17 H10 1_555 1_555
C18 N2 1_555 1_555
C20_2 C8 1_555 1_555
H12_2 C20_2 1_555 1_555
C21 H13 1_555 1_555
H14 C21 1_555 1_555
C22 N6 1_555 1_555
H15 C22 1_555 1_555
H16 C22 1_555 1_555
C23 N6 1_555 1_555
C25 C3 1_555 1_555
H18 C25 1_555 1_555
H19 C25 1_555 1_555
C27 C17 1_555 1_555
H21 C27 1_555 1_555
H23 C29 1_555 1_555
C30 N5 1_555 1_555
C31_2 C2 1_555 1_555
H24_2 C31_2 1_555 1_555
C32_2 C1 1_555 1_555
H25_2 C32_2 1_555 1_555
C33_2 C18 1_555 1_555
H26_2 C33_2 1_555 1_555
C35 C21 1_555 1_555
H28 C35 1_555 1_555
H29 C35 1_555 1_555
C36 C22 1_555 1_555
H30 C36 1_555 1_555
H31 C36 1_555 1_555
C37 O28 1_555 1_555
C40_2 C1 1_555 1_555
N10_2 C44_2 1_555 1_555
N11_2 C41_2 1_555 1_555
C41_2 H34 1_555 1_555
C42_2 H35_2 1_555 1_555
C43_2 N11_2 1_555 1_555
C44_2 C41_2 1_555 1_555
H36_2 C44_2 1_555 1_555
C45_2 C40_2 1_555 1_555
H37_2 C45_2 1_555 1_555
C46_2 N10_2 1_555 1_555
H38_2 C46_2 1_555 1_555
C47 C40_2 1_555 1_555
H39 C47 1_555 1_555
C48 C43_2 1_555 1_555
H40 C48 1_555 1_555
C49_2 C2 1_555 1_555
N12_2 C51_2 1_555 1_555
N13_2 C51_2 1_555 1_555
C50_2 H41_2 1_555 1_555
C51_2 H42_2 1_555 1_555
C52_2 N13_2 1_555 1_555
C53_2 N12_2 1_555 1_555
H43 C53_2 1_555 1_555
C54_2 C49_2 1_555 1_555
H44_2 C54_2 1_555 1_555
C55 C52_2 1_555 1_555
H45 C55 1_555 1_555
C56 N13_2 1_555 1_555
H46 C56 1_555 1_555
C57 C49_2 1_555 1_555
H47 C57 1_555 1_555
Co8 N12_2 1_555 1_555
Co11 N10_2 1_555 1_555
O12_2 Co11 1_555 1_555
O24 C68_2 1_555 1_555
O26 C68_2 1_555 1_555
O28_2 C78_2 1_555 1_555
O17_2 Co8 1_555 1_555
O30 C67_2 1_555 1_555
O19_2 C75_2 1_555 1_555
O20_2 C73_2 1_555 1_555
O21_2 C69_2 1_555 1_555
N16_2 C69_2 1_555 1_555
N17_2 C69_2 1_555 1_555
N18_2 C71_2 1_555 1_555
C67_2 O17_2 1_555 1_555
C68_2 C76_2 1_555 1_555
C70_2 N16_2 1_555 1_555
H55_2 C70_2 1_555 1_555
H56_2 C70_2 1_555 1_555
C71_2 H57_2 1_555 1_555
H58_2 C71_2 1_555 1_555
C72_2 N17_2 1_555 1_555
H59_2 C72_2 1_555 1_555
H60_2 C72_2 1_555 1_555
C73_2 N17_2 1_555 1_555
C74_2 C67_2 1_555 1_555
H61_2 C74_2 1_555 1_555
H62 C74_2 1_555 1_555
C75_2 N16_2 1_555 1_555
C76_2 C71_2 1_555 1_555
H63_2 C76_2 1_555 1_555
H64_2 C76_2 1_555 1_555
C77_2 C72_2 1_555 1_555
H65_2 C77_2 1_555 1_555
H66_2 C77_2 1_555 1_555
C78_2 O12_2 1_555 1_555
O29 C3 1_555 1_555
N2 C29 1_555 1_555
N7 C23 1_555 1_555
N7 C30 1_555 1_555
C5 C8 1_555 1_555
C15 C25 1_555 1_555
C17 C18 1_555 1_555
C20_2 C31_2 1_555 1_555
C32_2 C33_2 1_555 1_555
C36 C37 1_555 1_555
N11_2 C46_2 1_555 1_555
C42_2 C43_2 1_555 1_555
C42_2 C45_2 1_555 1_555
C47 C48 1_555 1_555
C50_2 C52_2 1_555 1_555
C50_2 C54_2 1_555 1_555
C53_2 C56 1_555 1_555
C55 C57 1_555 1_555
N18_2 C73_2 1_555 1_555
N18_2 C75_2 1_555 1_555
C70_2 C74_2 1_555 1_555
C77_2 C78_2 1_555 1_555
C19 H11 1_555 1_555
N14_2 C61_2 1_555 1_555
C60_2 N15_2 1_555 1_555
C63_2 C60_2 1_555 1_555
C64_2 C58_2 1_555 1_555
H52_2 C64_2 1_555 1_555
C65_2 C60_2 1_555 1_555
H53_2 C65_2 1_555 1_555
C66_2 N14_2 1_555 1_555
H54_2 C66_2 1_555 1_555
Co6 N14_2 1_555 1_555
N15_2 C66_2 1_555 1_555
C64_2 C65_2 1_555 1_555
N14_3 C61_3 1_555 1_555
C60_3 N15_3 1_555 1_555
C63_3 C60_3 1_555 1_555
C64_3 C58_3 1_555 1_555
H52_3 C64_3 1_555 1_555
C65_3 C60_3 1_555 1_555
H53_3 C65_3 1_555 1_555
C66_3 N14_3 1_555 1_555
H54_3 C66_3 1_555 1_555
Co6_2 N14_3 1_555 1_555
N15_3 C66_3 1_555 1_555
C64_3 C65_3 1_555 1_555
C1_2 C27_2 1_555 1_555
C2_2 C16_2 1_555 1_555
O1_2 C37_2 1_555 1_555
O2 C6_2 1_555 1_555
O3 C6_2 1_555 1_555
O5 Co2_2 1_555 1_555
O7 Co2_2 1_555 1_555
O8_2 C30_2 1_555 1_555
O9_2 C23_2 1_555 1_555
O10_2 C9_2 1_555 1_555
N4_2 C7_2 1_555 1_555
N5_2 C9_2 1_555 1_555
N6_2 C9_2 1_555 1_555
N7_2 C21_2 1_555 1_555
C3_2 O6_2 1_555 1_555
C5_2 H1_2 1_555 1_555
C6_2 C35_2 1_555 1_555
H2_2 C7_2 1_555 1_555
C8_2 N4_2 1_555 1_555
C15_2 N5_2 1_555 1_555
H7_2 C15_2 1_555 1_555
H8_2 C15_2 1_555 1_555
C16_2 C5_2 1_555 1_555
H9_2 C16_2 1_555 1_555
C17_2 H10_2 1_555 1_555
C18_2 N2_2 1_555 1_555
C20_3 C8_2 1_555 1_555
H12_3 C20_3 1_555 1_555
C21_2 H13_2 1_555 1_555
H14_2 C21_2 1_555 1_555
C22_2 N6_2 1_555 1_555
H15_2 C22_2 1_555 1_555
H16_2 C22_2 1_555 1_555
C23_2 N6_2 1_555 1_555
C25_2 C3_2 1_555 1_555
H18_2 C25_2 1_555 1_555
H19_2 C25_2 1_555 1_555
C27_2 C17_2 1_555 1_555
H21_2 C27_2 1_555 1_555
H23_2 C29_2 1_555 1_555
C30_2 N5_2 1_555 1_555
C31_3 C2_2 1_555 1_555
H24_3 C31_3 1_555 1_555
C32_3 C1_2 1_555 1_555
H25_3 C32_3 1_555 1_555
C33_3 C18_2 1_555 1_555
H26_3 C33_3 1_555 1_555
C35_2 C21_2 1_555 1_555
H28_2 C35_2 1_555 1_555
H29_2 C35_2 1_555 1_555
C36_2 C22_2 1_555 1_555
H30_2 C36_2 1_555 1_555
H31_2 C36_2 1_555 1_555
C37_2 O5 1_555 1_555
C40_3 C1_2 1_555 1_555
N10_3 C44_3 1_555 1_555
N11_3 C41_3 1_555 1_555
C41_3 H34_2 1_555 1_555
C42_3 H35_3 1_555 1_555
C43_3 N11_3 1_555 1_555
C44_3 C41_3 1_555 1_555
H36_3 C44_3 1_555 1_555
C45_3 C40_3 1_555 1_555
H37_3 C45_3 1_555 1_555
C46_3 N10_3 1_555 1_555
H38_3 C46_3 1_555 1_555
C47_2 C40_3 1_555 1_555
H39_2 C47_2 1_555 1_555
C48_2 C43_3 1_555 1_555
H40_2 C48_2 1_555 1_555
C49_3 C2_2 1_555 1_555
N12_3 C51_3 1_555 1_555
N13_3 C51_3 1_555 1_555
C50_3 H41_3 1_555 1_555
C51_3 H42_3 1_555 1_555
C52_3 N13_3 1_555 1_555
C53_3 N12_3 1_555 1_555
H43_2 C53_3 1_555 1_555
C54_3 C49_3 1_555 1_555
H44_3 C54_3 1_555 1_555
C55_2 C52_3 1_555 1_555
H45_2 C55_2 1_555 1_555
C56_2 N13_3 1_555 1_555
H46_2 C56_2 1_555 1_555
C57_2 C49_3 1_555 1_555
H47_2 C57_2 1_555 1_555
Co4_2 N12_3 1_555 1_555
Co5_2 N10_3 1_555 1_555
O12_3 Co5_2 1_555 1_555
O13_2 C68_3 1_555 1_555
O14_2 C68_3 1_555 1_555
O15_2 Co4_2 1_555 1_555
O16_2 C78_3 1_555 1_555
O17_3 Co4_2 1_555 1_555
O18_2 C67_3 1_555 1_555
O19_3 C75_3 1_555 1_555
O20_3 C73_3 1_555 1_555
O21_3 C69_3 1_555 1_555
N16_3 C69_3 1_555 1_555
N17_3 C69_3 1_555 1_555
N18_3 C71_3 1_555 1_555
C67_3 O17_3 1_555 1_555
C68_3 C76_3 1_555 1_555
C70_3 N16_3 1_555 1_555
H55_3 C70_3 1_555 1_555
H56_3 C70_3 1_555 1_555
C71_3 H57_3 1_555 1_555
H58_3 C71_3 1_555 1_555
C72_3 N17_3 1_555 1_555
H59_3 C72_3 1_555 1_555
H60_3 C72_3 1_555 1_555
C73_3 N17_3 1_555 1_555
C74_3 C67_3 1_555 1_555
H61_3 C74_3 1_555 1_555
H62_2 C74_3 1_555 1_555
C75_3 N16_3 1_555 1_555
C76_3 C71_3 1_555 1_555
H63_3 C76_3 1_555 1_555
H64_3 C76_3 1_555 1_555
C77_3 C72_3 1_555 1_555
H65_3 C77_3 1_555 1_555
H66_3 C77_3 1_555 1_555
C78_3 O12_3 1_555 1_555
Co6 O3 1_555 1_555
Co6_2 O14_2 1_555 1_555
Co9_2 O15_2 1_555 1_555
Co10 O2 1_555 1_555
Co11_2 O13_2 1_555 1_555
O24_2 Co5_2 1_555 1_555
O26_2 Co4_2 1_555 1_555
O27_2 Co2_2 1_555 1_555
O30_2 Co5_2 1_555 1_555
N19_2 Co4_2 1_555 1_555
O7 C3_2 1_555 1_555
O7 Co10 1_555 1_555
N2_2 C29_2 1_555 1_555
N7_2 C23_2 1_555 1_555
N7_2 C30_2 1_555 1_555
C5_2 C8_2 1_555 1_555
C15_2 C25_2 1_555 1_555
C17_2 C18_2 1_555 1_555
C20_3 C31_3 1_555 1_555
C32_3 C33_3 1_555 1_555
C36_2 C37_2 1_555 1_555
N11_3 C46_3 1_555 1_555
C42_3 C43_3 1_555 1_555
C42_3 C45_3 1_555 1_555
C47_2 C48_2 1_555 1_555
C50_3 C52_3 1_555 1_555
C50_3 C54_3 1_555 1_555
C53_3 C56_2 1_555 1_555
C55_2 C57_2 1_555 1_555
Co5_2 O15_2 1_555 1_555
O16_2 Co9_2 1_555 1_555
O18_2 Co9_2 1_555 1_555
O18_2 Co11_2 1_555 1_555
N18_3 C73_3 1_555 1_555
N18_3 C75_3 1_555 1_555
C70_3 C74_3 1_555 1_555
C77_3 C78_3 1_555 1_555
Co6 O27_2 1_555 1_555
Co9_2 O30_2 1_555 1_555
Co10 O27_2 1_555 1_555
C4_3 C19_2 1_555 1_555
N9_3 C10 1_555 1_555
C10 H3 1_555 1_555
C11_3 N9_3 1_555 1_555
C13_3 N19_2 1_555 1_555
H5 C13_3 1_555 1_555
C19_2 H11_2 1_555 1_555
C26_3 C11_3 1_555 1_555
H20_2 C26_3 1_555 1_555
C34_3 C4_3 1_555 1_555
H27_3 C34_3 1_555 1_555
C38_3 C11_3 1_555 1_555
H32_3 C38_3 1_555 1_555
C39_3 N19_2 1_555 1_555
H33_3 C39_3 1_555 1_555
O27_3 Co9_2 1_555 1_555
O28_3 Co9_2 1_555 1_555
N9_3 C39_3 1_555 1_555
C10 C13_3 1_555 1_555
C19_2 C26_3 1_555 1_555
C34_3 C38_3 1_555 1_555
Co6_2 O27_3 1_555 1_555
Co11_2 O27_3 1_555 1_555
O11_2 Co10 1_555 1_555
N1_2 Co10 1_555 1_555
N3_2 Co6 1_555 1_555
C12_2 N3_2 1_555 1_555
C24_2 N1_2 1_555 1_555
H17_2 C24_2 1_555 1_555
C14_2 C24_2 1_555 1_555
H12_4 C20_4 1_555 1_555
H24_4 C31_4 1_555 1_555
H25_4 C32_4 1_555 1_555
H26_4 C33_4 1_555 1_555
N10_4 C44_4 1_555 1_555
N11_4 C41_4 1_555 1_555
C42_4 H35_4 1_555 1_555
C43_4 N11_4 1_555 1_555
C44_4 C41_4 1_555 1_555
H36_4 C44_4 1_555 1_555
C45_4 C40_4 1_555 1_555
H37_4 C45_4 1_555 1_555
C46_4 N10_4 1_555 1_555
H38_4 C46_4 1_555 1_555
N12_4 C51_4 1_555 1_555
N13_4 C51_4 1_555 1_555
C50_4 H41_4 1_555 1_555
C51_4 H42_4 1_555 1_555
C52_4 N13_4 1_555 1_555
C53_4 N12_4 1_555 1_555
C54_4 C49_4 1_555 1_555
H44_4 C54_4 1_555 1_555
Co6_2 N12_4 1_555 1_555
Co11_2 N10_4 1_555 1_555
O12_4 Co11_2 1_555 1_555
O24_2 C68_4 1_555 1_555
O26_2 C68_4 1_555 1_555
O28_3 C78_4 1_555 1_555
O17_4 Co6_2 1_555 1_555
O30_2 C67_4 1_555 1_555
O19_4 C75_4 1_555 1_555
O20_4 C73_4 1_555 1_555
O21_4 C69_4 1_555 1_555
O22_2 Co11_2 1_555 1_555
N16_4 C69_4 1_555 1_555
N17_4 C69_4 1_555 1_555
N18_4 C71_4 1_555 1_555
C67_4 O17_4 1_555 1_555
C68_4 C76_4 1_555 1_555
C70_4 N16_4 1_555 1_555
H55_4 C70_4 1_555 1_555
H56_4 C70_4 1_555 1_555
C71_4 H57_4 1_555 1_555
H58_4 C71_4 1_555 1_555
C72_4 N17_4 1_555 1_555
H59_4 C72_4 1_555 1_555
H60_4 C72_4 1_555 1_555
C73_4 N17_4 1_555 1_555
C74_4 C67_4 1_555 1_555
H61_4 C74_4 1_555 1_555
C75_4 N16_4 1_555 1_555
C76_4 C71_4 1_555 1_555
H63_4 C76_4 1_555 1_555
H64_4 C76_4 1_555 1_555
C77_4 C72_4 1_555 1_555
H65_4 C77_4 1_555 1_555
H66_4 C77_4 1_555 1_555
C78_4 O12_4 1_555 1_555
C20_4 C31_4 1_555 1_555
C32_4 C33_4 1_555 1_555
N11_4 C46_4 1_555 1_555
C42_4 C43_4 1_555 1_555
C42_4 C45_4 1_555 1_555
C50_4 C52_4 1_555 1_555
C50_4 C54_4 1_555 1_555
N18_4 C73_4 1_555 1_555
N18_4 C75_4 1_555 1_555
C70_4 C74_4 1_555 1_555
C77_4 C78_4 1_555 1_555
C10_2 H3_2 1_555 1_555
C1_3 C27_3 1_555 1_555
C2_3 C16_3 1_555 1_555
O1_3 C37_3 1_555 1_555
O2_2 C6_3 1_555 1_555
O3_2 C6_3 1_555 1_555
O5_2 Co2_3 1_555 1_555
O7_2 Co2_3 1_555 1_555
O8_3 C30_3 1_555 1_555
O9_3 C23_3 1_555 1_555
O10_3 C9_3 1_555 1_555
N4_3 C7_3 1_555 1_555
N5_3 C9_3 1_555 1_555
N6_3 C9_3 1_555 1_555
N7_3 C21_3 1_555 1_555
C3_3 O6_3 1_555 1_555
C5_3 H1_3 1_555 1_555
C6_3 C35_3 1_555 1_555
H2_3 C7_3 1_555 1_555
C8_3 N4_3 1_555 1_555
C15_3 N5_3 1_555 1_555
H7_3 C15_3 1_555 1_555
H8_3 C15_3 1_555 1_555
C16_3 C5_3 1_555 1_555
H9_3 C16_3 1_555 1_555
C17_3 H10_3 1_555 1_555
C18_3 N2_3 1_555 1_555
C21_3 H13_3 1_555 1_555
H14_3 C21_3 1_555 1_555
C22_3 N6_3 1_555 1_555
H15_3 C22_3 1_555 1_555
H16_3 C22_3 1_555 1_555
C23_3 N6_3 1_555 1_555
C25_3 C3_3 1_555 1_555
H18_3 C25_3 1_555 1_555
C27_3 C17_3 1_555 1_555
H21_3 C27_3 1_555 1_555
H23_3 C29_3 1_555 1_555
C30_3 N5_3 1_555 1_555
C35_3 C21_3 1_555 1_555
H28_3 C35_3 1_555 1_555
H29_3 C35_3 1_555 1_555
C36_3 C22_3 1_555 1_555
H30_3 C36_3 1_555 1_555
H31_3 C36_3 1_555 1_555
C37_3 O5_2 1_555 1_555
H39_3 C47_3 1_555 1_555
H40_3 C48_3 1_555 1_555
H45_3 C55_3 1_555 1_555
H46_3 C56_3 1_555 1_555
H47_3 C57_3 1_555 1_555
Co7 O3_2 1_555 1_555
Co10_2 O2_2 1_555 1_555
O27_4 Co2_3 1_555 1_555
O7_2 C3_3 1_555 1_555
O7_2 Co10_2 1_555 1_555
N2_3 C29_3 1_555 1_555
N7_3 C23_3 1_555 1_555
N7_3 C30_3 1_555 1_555
C5_3 C8_3 1_555 1_555
C15_3 C25_3 1_555 1_555
C17_3 C18_3 1_555 1_555
C36_3 C37_3 1_555 1_555
C47_3 C48_3 1_555 1_555
C55_3 C57_3 1_555 1_555
Co7 O27_4 1_555 1_555
Co10_2 O27_4 1_555 1_555
Co1_2 O4_2 1_555 1_555
Co2_4 O4_2 1_555 1_555
O4_2 Co3_2 1_555 1_555
N1_3 Co3_2 1_555 1_555
N3_3 Co1_2 1_555 1_555
N8_2 Co1_2 1_555 1_555
C4_4 C19_3 1_555 1_555
N9_4 C10_3 1_555 1_555
C10_3 H3_3 1_555 1_555
C11_4 N9_4 1_555 1_555
C12_3 N3_3 1_555 1_555
H4_2 C12_3 1_555 1_555
C13_4 N8_2 1_555 1_555
H5_3 C13_4 1_555 1_555
C14_3 H6_2 1_555 1_555
C19_3 H11_3 1_555 1_555
C24_3 N1_3 1_555 1_555
H17_3 C24_3 1_555 1_555
C26_4 C11_4 1_555 1_555
H20_4 C26_4 1_555 1_555
H22_2 C28_2 1_555 1_555
C34_4 C4_4 1_555 1_555
H27_4 C34_4 1_555 1_555
C38_4 C11_4 1_555 1_555
H32_4 C38_4 1_555 1_555
C39_4 N8_2 1_555 1_555
H33_4 C39_4 1_555 1_555
N14_4 C61_4 1_555 1_555
C58_4 C4_4 1_555 1_555
N15_4 C59_3 1_555 1_555
C59_3 H48_3 1_555 1_555
C60_4 N15_4 1_555 1_555
C61_4 C59_3 1_555 1_555
H49_3 C61_4 1_555 1_555
C62_3 C58_4 1_555 1_555
H50_3 C62_3 1_555 1_555
C63_4 C60_4 1_555 1_555
H51_3 C63_4 1_555 1_555
C64_4 C58_4 1_555 1_555
H52_4 C64_4 1_555 1_555
C65_4 C60_4 1_555 1_555
H53_4 C65_4 1_555 1_555
C66_4 N14_4 1_555 1_555
H54_4 C66_4 1_555 1_555
Co7 N14_4 1_555 1_555
O23_2 Co3_2 1_555 1_555
O25_2 Co1_2 1_555 1_555
O28_4 Co2_4 1_555 1_555
O29_2 Co2_4 1_555 1_555
Co3_2 O29_2 1_555 1_555
N9_4 C39_4 1_555 1_555
C10_3 C13_4 1_555 1_555
C12_3 C28_2 1_555 1_555
C14_3 C24_3 1_555 1_555
C19_3 C26_4 1_555 1_555
C34_4 C38_4 1_555 1_555
N15_4 C66_4 1_555 1_555
C62_3 C63_4 1_555 1_555
C64_4 C65_4 1_555 1_555
C1_4 C27_4 1_555 1_555
C2_4 C16_4 1_555 1_555
O1_4 C37_4 1_555 1_555
O23_2 C6_4 1_555 1_555
O25_2 C6_4 1_555 1_555
O8_4 C30_4 1_555 1_555
O9_4 C23_4 1_555 1_555
O10_4 C9_4 1_555 1_555
N4_4 C7_4 1_555 1_555
N5_4 C9_4 1_555 1_555
N6_4 C9_4 1_555 1_555
N7_4 C21_4 1_555 1_555
C3_4 O6_4 1_555 1_555
C5_4 H1_4 1_555 1_555
C6_4 C35_4 1_555 1_555
H2_4 C7_4 1_555 1_555
C8_4 N4_4 1_555 1_555
C15_4 N5_4 1_555 1_555
H7_4 C15_4 1_555 1_555
H8_4 C15_4 1_555 1_555
C16_4 C5_4 1_555 1_555
H9_4 C16_4 1_555 1_555
C17_4 H10_4 1_555 1_555
C18_4 N2_4 1_555 1_555
C21_4 H13_4 1_555 1_555
H14_4 C21_4 1_555 1_555
C22_4 N6_4 1_555 1_555
H15_4 C22_4 1_555 1_555
H16_4 C22_4 1_555 1_555
C23_4 N6_4 1_555 1_555
C25_4 C3_4 1_555 1_555
H18_4 C25_4 1_555 1_555
C27_4 C17_4 1_555 1_555
H21_4 C27_4 1_555 1_555
H23_4 C29_4 1_555 1_555
C30_4 N5_4 1_555 1_555
C35_4 C21_4 1_555 1_555
H28_4 C35_4 1_555 1_555
H29_4 C35_4 1_555 1_555
C36_4 C22_4 1_555 1_555
H30_4 C36_4 1_555 1_555
H31_4 C36_4 1_555 1_555
C37_4 O28_4 1_555 1_555
H39_4 C47_4 1_555 1_555
H40_4 C48_4 1_555 1_555
H45_4 C55_4 1_555 1_555
H46_4 C56_4 1_555 1_555
H47_4 C57_4 1_555 1_555
O29_2 C3_4 1_555 1_555
N2_4 C29_4 1_555 1_555
N7_4 C23_4 1_555 1_555
N7_4 C30_4 1_555 1_555
C5_4 C8_4 1_555 1_555
C15_4 C25_4 1_555 1_555
C17_4 C18_4 1_555 1_555
C36_4 C37_4 1_555 1_555
C47_4 C48_4 1_555 1_555
C55_4 C57_4 1_555 1_555
N1_4 Co10_2 1_555 1_555
N3_4 Co7 1_555 1_555
C12_4 N3_4 1_555 1_555
H4_3 C12_4 1_555 1_555
C14_4 H6_3 1_555 1_555
C24_4 N1_4 1_555 1_555
H17_4 C24_4 1_555 1_555
H22_3 C28_3 1_555 1_555
C12_4 C28_3 1_555 1_555
C14_4 C24_4 1_555 1_555
C10_4 H3_4 1_555 1_555
H22_4 C28_4 1_555 1_555
C19_4 H11_4 1_555 1_555
H50_4 C62_4 1_555 1_555
C59_4 H48_4 1_555 1_555

#END
