
###############################################################################
#
# This file contains modified crystal structure data generated from the
# MOF subset of the Cambridge Structural Database (CSD) v543 
# hosted by the Cambridge Crystallographic Data Centre (CCDC).
#
# This work is licensed under the Creative Commons
# Attribution-NonCommercial-ShareAlike 4.0 International License.
# To view a copy of this license, visit
# http://creativecommons.org/licenses/by-nc-sa/4.0/
# or send a letter to
# Creative Commons, PO Box 1866, Mountain View, CA 94042, USA.
#
# CIF created using the CSD Python API on 29 September 2022
# The structure has been converted into the P1 space group
# The structure has a 3D framework
# The original CSD entry QOQWOK is in the monoclinic crystal system
# The framework has been calculated to contain at least 10.0% void space
# The void calculation uses a probe of radius 1.32A, grid spacing 0.4
#
###############################################################################

data_QOQWOK
_chemical_formula_moiety         '(C96 H64 Mn6 N8 O16)n'
_symmetry_cell_setting           triclinic
_symmetry_space_group_name_H-M   'P 1'
_symmetry_Int_Tables_number      1
_space_group_name_Hall           'P 1'
loop_
_symmetry_equiv_pos_site_id
_symmetry_equiv_pos_as_xyz
1 x,y,z
_cell_length_a                   9.7821(2)
_cell_length_b                   19.9160(4)
_cell_length_c                   16.1047(4)
_cell_angle_alpha                90
_cell_angle_beta                 93.581(2)
_cell_angle_gamma                90
_cell_volume                     3131.4
loop_
_atom_site_label
_atom_site_type_symbol
_atom_site_fract_x
_atom_site_fract_y
_atom_site_fract_z
Mn2 Mn -0.0000 0.5000 0.0000
N5 N 0.0526(5) 0.5875(3) 0.0857(3)
O9 O 0.1452(5) 0.4306(2) 0.0622(3)
Mn2_2 Mn -0.0000 0.5000 1.0000
H11 H 0.0459 0.2025 0.7579
C23 C 0.0211(8) 0.3250(4) 0.8268(5)
H15 H 0.0957 0.3025 0.8041
C24 C 0.0446(8) 0.3783(4) 0.8792(5)
H16 H 0.1368 0.3917 0.8913
Mn9 Mn 0.0000 0.0000 0.5000
O13 O 0.1501(5) 0.5301(2) 0.9126(3)
Mn9_2 Mn 0.0000 1.0000 0.5000
Mn2_3 Mn 1.0000 0.5000 0.0000
O14 O 0.8499(5) 0.4699(2) 0.0874(3)
Mn1 Mn 0.5000 0.0000 0.5000
Mn2_4 Mn 1.0000 0.5000 1.0000
N1 N 0.4459(5) 0.0897(3) 0.4155(3)
N2 N 0.9474(5) 0.4125(3) 0.9143(3)
O2 O 0.3544(5) 0.4745(2) 0.0913(3)
O3 O 0.6353(5) 0.0681(2) 0.5678(3)
O4 O 0.8499(5) 0.0301(2) 0.5874(3)
C1 C 0.2628(6) 0.4300(3) 0.0969(4)
C2 C 0.2990(7) 0.3705(3) 0.1514(4)
C3 C 0.2528(8) 0.3063(3) 0.1290(4)
H1 H 0.1974 0.3003 0.0789
C4 C 0.2863(8) 0.2516(3) 0.1782(4)
H2 H 0.2590 0.2080 0.1598
C5 C 0.3598(7) 0.2591(3) 0.2546(4)
C6 C 0.4042(8) 0.3228(3) 0.2770(5)
H3 H 0.4540 0.3293 0.3289
C7 C 0.3778(8) 0.3773(3) 0.2254(5)
H4 H 0.4142 0.4200 0.2410
C8 C 0.4233(8) 0.0822(3) 0.3329(4)
H5 H 0.4264 0.0382 0.3104
C9 C 0.3958(8) 0.1351(3) 0.2792(4)
H6 H 0.3818 0.1269 0.2212
C10 C 0.3883(7) 0.2005(3) 0.3097(4)
C11 C 0.4124(7) 0.2076(3) 0.3962(4)
H7 H 0.4089 0.2508 0.4210
C12 C 0.4411(7) 0.1522(3) 0.4452(4)
H8 H 0.4585 0.1587 0.5033
C13 C 0.7575(7) 0.0720(3) 0.5961(4)
C14 C 0.7927(7) 0.1339(3) 0.6483(4)
C15 C 0.6944(8) 0.1822(4) 0.6607(5)
H9 H 0.6052 0.1777 0.6344
C16 C 0.7253(8) 0.2375(4) 0.7117(5)
H10 H 0.6564 0.2700 0.7200
C17 C 0.8550(7) 0.2459(4) 0.7503(5)
C18 C 0.9553(7) 0.1975(4) 0.7338(5)
C19 C 0.9239(7) 0.1436(3) 0.6835(5)
H12 H 0.9935 0.1122 0.6726
C20 C 0.8198(7) 0.3922(3) 0.8955(4)
H13 H 0.7475 0.4158 0.9192
C21 C 0.7861(7) 0.3390(3) 0.8436(4)
H14 H 0.6929 0.3264 0.8333
C22 C 0.8873(8) 0.3039(4) 0.8068(5)
Mn4 Mn 0.5000 0.5000 0.0000
Mn9_3 Mn 1.0000 0.0000 0.5000
O10 O 0.8548(5) 0.5694(2) 0.9378(3)
O12 O 0.3544(5) 0.0255(2) 0.5913(3)
Mn4_2 Mn 0.5000 0.5000 1.0000
Mn1_2 Mn 0.5000 1.0000 0.5000
N3 N 0.5541(5) 0.9103(3) 0.5845(3)
O6 O 0.6456(5) 0.5255(2) 0.9087(3)
O7 O 0.3647(5) 0.9319(2) 0.4322(3)
O8 O 0.1501(5) 0.9699(2) 0.4126(3)
C25 C 0.7372(6) 0.5700(3) 0.9031(4)
C26 C 0.7010(7) 0.6295(3) 0.8486(4)
C27 C 0.7472(8) 0.6937(3) 0.8710(4)
H17 H 0.8026 0.6997 0.9211
C28 C 0.7137(8) 0.7484(3) 0.8218(4)
H18 H 0.7410 0.7920 0.8402
C29 C 0.6402(7) 0.7409(3) 0.7454(4)
C30 C 0.5958(8) 0.6772(3) 0.7230(5)
H19 H 0.5460 0.6707 0.6711
C31 C 0.6222(8) 0.6227(3) 0.7746(5)
H20 H 0.5858 0.5800 0.7590
C32 C 0.5767(8) 0.9178(3) 0.6671(4)
H21 H 0.5736 0.9618 0.6896
C33 C 0.6042(8) 0.8649(3) 0.7208(4)
H22 H 0.6182 0.8731 0.7788
C34 C 0.6117(7) 0.7995(3) 0.6903(4)
C35 C 0.5876(7) 0.7924(3) 0.6038(4)
H23 H 0.5911 0.7492 0.5790
C36 C 0.5589(7) 0.8478(3) 0.5548(4)
H24 H 0.5415 0.8413 0.4967
C37 C 0.2425(7) 0.9280(3) 0.4039(4)
C38 C 0.2073(7) 0.8661(3) 0.3517(4)
C39 C 0.3056(8) 0.8178(4) 0.3393(5)
H25 H 0.3948 0.8223 0.3656
C40 C 0.2747(8) 0.7625(4) 0.2883(5)
H26 H 0.3436 0.7300 0.2800
C41 C 0.1450(7) 0.7541(4) 0.2497(5)
C42 C 0.0447(7) 0.8025(4) 0.2662(5)
C43 C 0.0761(7) 0.8564(3) 0.3165(5)
H28 H 0.0065 0.8878 0.3274
C44 C 0.1802(7) 0.6078(3) 0.1045(4)
H29 H 0.2525 0.5842 0.0808
C45 C 0.2139(7) 0.6610(3) 0.1564(4)
H30 H 0.3071 0.6736 0.1667
C46 C 0.1127(8) 0.6961(4) 0.1932(5)
Mn9_4 Mn 1.0000 1.0000 0.5000
O11 O 0.6456(5) 0.9745(2) 0.4087(3)
H27 H 0.9541 0.7975 0.2421
C47 C 0.9789(8) 0.6750(4) 0.1732(5)
H31 H 0.9043 0.6975 0.1959
C48 C 0.9554(8) 0.6217(4) 0.1208(5)
H32 H 0.8632 0.6083 0.1087
H27_2 H 0.0459 0.2975 0.2579
C47_2 C 0.0211(8) 0.1750(4) 0.3268(5)
H31_2 H 0.0957 0.1975 0.3041
C48_2 C 0.0446(8) 0.1217(4) 0.3792(5)
H32_2 H 0.1368 0.1083 0.3913
O10_2 O 0.1452(5) 0.0694(2) 0.5622(3)
N1_2 N 0.5541(5) 0.5897(3) 0.0845(3)
O1 O 0.8548(5) 0.9306(2) 0.4378(3)
C1_2 C 0.7372(6) 0.9300(3) 0.4031(4)
C2_2 C 0.7010(7) 0.8705(3) 0.3486(4)
C3_2 C 0.7472(8) 0.8063(3) 0.3710(4)
H1_2 H 0.8026 0.8003 0.4211
C4_2 C 0.7137(8) 0.7516(3) 0.3218(4)
H2_2 H 0.7410 0.7080 0.3402
C5_2 C 0.6402(7) 0.7591(3) 0.2454(4)
C6_2 C 0.5958(8) 0.8228(3) 0.2230(5)
H3_2 H 0.5460 0.8293 0.1711
C7_2 C 0.6222(8) 0.8773(3) 0.2746(5)
H4_2 H 0.5858 0.9200 0.2590
C8_2 C 0.5767(8) 0.5822(3) 0.1671(4)
H5_2 H 0.5736 0.5382 0.1896
C9_2 C 0.6042(8) 0.6351(3) 0.2208(4)
H6_2 H 0.6182 0.6269 0.2788
C10_2 C 0.6117(7) 0.7005(3) 0.1903(4)
C11_2 C 0.5876(7) 0.7076(3) 0.1038(4)
H7_2 H 0.5911 0.7508 0.0790
C12_2 C 0.5589(7) 0.6522(3) 0.0548(4)
N4 N 0.9474(5) 0.0875(3) 0.4143(3)
O7_2 O 0.6353(5) 0.4319(2) 0.0678(3)
H24_2 H 0.4585 0.3413 0.0033
C37_2 C 0.7575(7) 0.4280(3) 0.0961(4)
C38_2 C 0.7927(7) 0.3661(3) 0.1483(4)
C39_2 C 0.6944(8) 0.3178(4) 0.1607(5)
H25_2 H 0.6052 0.3223 0.1344
C40_2 C 0.7253(8) 0.2625(4) 0.2117(5)
H26_2 H 0.6564 0.2300 0.2200
C41_2 C 0.8550(7) 0.2541(4) 0.2503(5)
C42_2 C 0.9553(7) 0.3025(4) 0.2338(5)
C43_2 C 0.9239(7) 0.3564(3) 0.1835(5)
H28_2 H 0.9935 0.3878 0.1726
C44_2 C 0.8198(7) 0.1078(3) 0.3955(4)
H29_2 H 0.7475 0.0842 0.4192
C45_2 C 0.7861(7) 0.1610(3) 0.3436(4)
H30_2 H 0.6929 0.1736 0.3333
C46_2 C 0.8873(8) 0.1961(4) 0.3068(5)
N2_2 N 0.0526(5) 0.9125(3) 0.5857(3)
O3_2 O 0.3647(5) 0.5681(2) 0.9322(3)
H8_2 H 0.5415 0.6587 0.9967
C13_2 C 0.2425(7) 0.5720(3) 0.9039(4)
C14_2 C 0.2073(7) 0.6339(3) 0.8517(4)
C15_2 C 0.3056(8) 0.6822(4) 0.8393(5)
H9_2 H 0.3948 0.6777 0.8656
C16_2 C 0.2747(8) 0.7375(4) 0.7883(5)
H10_2 H 0.3436 0.7700 0.7800
C17_2 C 0.1450(7) 0.7459(4) 0.7497(5)
C18_2 C 0.0447(7) 0.6975(4) 0.7662(5)
C19_2 C 0.0761(7) 0.6436(3) 0.8165(5)
H12_2 H 0.0065 0.6122 0.8274
C20_2 C 0.1802(7) 0.8922(3) 0.6045(4)
H13_2 H 0.2525 0.9158 0.5808
C21_2 C 0.2139(7) 0.8390(3) 0.6564(4)
H14_2 H 0.3071 0.8264 0.6667
C22_2 C 0.1127(8) 0.8039(4) 0.6932(5)
N3_2 N 0.4459(5) 0.4103(3) 0.9155(3)
C25_2 C 0.2628(6) 0.0700(3) 0.5969(4)
C26_2 C 0.2990(7) 0.1295(3) 0.6514(4)
C27_2 C 0.2528(8) 0.1937(3) 0.6290(4)
H17_2 H 0.1974 0.1997 0.5789
C28_2 C 0.2863(8) 0.2484(3) 0.6782(4)
H18_2 H 0.2590 0.2920 0.6598
C29_2 C 0.3598(7) 0.2409(3) 0.7546(4)
C30_2 C 0.4042(8) 0.1772(3) 0.7770(5)
H19_2 H 0.4540 0.1707 0.8289
C31_2 C 0.3778(8) 0.1227(3) 0.7254(5)
H20_2 H 0.4142 0.0800 0.7410
C32_2 C 0.4233(8) 0.4178(3) 0.8329(4)
H21_2 H 0.4264 0.4618 0.8104
C33_2 C 0.3958(8) 0.3649(3) 0.7792(4)
H22_2 H 0.3818 0.3731 0.7212
C34_2 C 0.3883(7) 0.2995(3) 0.8097(4)
C35_2 C 0.4124(7) 0.2924(3) 0.8962(4)
H23_2 H 0.4089 0.2492 0.9210
C36_2 C 0.4411(7) 0.3478(3) 0.9452(4)
H11_2 H 0.9541 0.7025 0.7421
C23_2 C 0.9789(8) 0.8250(4) 0.6732(5)
H15_2 H 0.9043 0.8025 0.6959
C24_2 C 0.9554(8) 0.8783(4) 0.6208(5)
H16_2 H 0.8632 0.8917 0.6087
loop_
_geom_bond_atom_site_label_1
_geom_bond_atom_site_label_2
_geom_bond_site_symmetry_1
_geom_bond_site_symmetry_2
N5 Mn2 1_555 1_555
O9 Mn2 1_555 1_555
H15 C23 1_555 1_555
H16 C24 1_555 1_555
O13 Mn2_2 1_555 1_555
C23 C24 1_555 1_555
O14 Mn2_3 1_555 1_555
Mn1 N1 1_555 1_555
Mn2_4 N2 1_555 1_555
N1 C8 1_555 1_555
N2 C20 1_555 1_555
O9 C1 1_555 1_555
O2 C1 1_555 1_555
O3 Mn1 1_555 1_555
O4 C13 1_555 1_555
C1 C2 1_555 1_555
C2 C3 1_555 1_555
C3 H1 1_555 1_555
C4 C3 1_555 1_555
H2 C4 1_555 1_555
C5 C4 1_555 1_555
C6 C5 1_555 1_555
H3 C6 1_555 1_555
C7 C2 1_555 1_555
H4 C7 1_555 1_555
C8 H5 1_555 1_555
C9 C8 1_555 1_555
H6 C9 1_555 1_555
C10 C5 1_555 1_555
C11 C10 1_555 1_555
H7 C11 1_555 1_555
C12 N1 1_555 1_555
H8 C12 1_555 1_555
C13 O3 1_555 1_555
C14 C13 1_555 1_555
C15 C14 1_555 1_555
H9 C15 1_555 1_555
C16 C15 1_555 1_555
H10 C16 1_555 1_555
C17 C16 1_555 1_555
C18 C17 1_555 1_555
C19 C14 1_555 1_555
H12 C19 1_555 1_555
C20 H13 1_555 1_555
C21 C20 1_555 1_555
H14 C21 1_555 1_555
C22 C17 1_555 1_555
Mn4 O2 1_555 1_555
Mn9_3 O4 1_555 1_555
O10 Mn2_4 1_555 1_555
O12 Mn1 1_555 1_555
C6 C7 1_555 1_555
C9 C10 1_555 1_555
C11 C12 1_555 1_555
C18 C19 1_555 1_555
C21 C22 1_555 1_555
N3 Mn1_2 1_555 1_555
N5 C44 1_555 1_555
O10 C25 1_555 1_555
O6 C25 1_555 1_555
O7 Mn1_2 1_555 1_555
O8 C37 1_555 1_555
C25 C26 1_555 1_555
C26 C27 1_555 1_555
C27 H17 1_555 1_555
C28 C27 1_555 1_555
H18 C28 1_555 1_555
C29 C28 1_555 1_555
C30 C29 1_555 1_555
H19 C30 1_555 1_555
C31 C26 1_555 1_555
H20 C31 1_555 1_555
C32 N3 1_555 1_555
H21 C32 1_555 1_555
C33 C32 1_555 1_555
H22 C33 1_555 1_555
C34 C29 1_555 1_555
C35 C34 1_555 1_555
H23 C35 1_555 1_555
C36 N3 1_555 1_555
H24 C36 1_555 1_555
C37 O7 1_555 1_555
C38 C37 1_555 1_555
C39 C38 1_555 1_555
H25 C39 1_555 1_555
C40 C39 1_555 1_555
H26 C40 1_555 1_555
C41 C40 1_555 1_555
C42 C41 1_555 1_555
C43 C38 1_555 1_555
H28 C43 1_555 1_555
C44 H29 1_555 1_555
C45 C44 1_555 1_555
H30 C45 1_555 1_555
C46 C41 1_555 1_555
Mn4_2 O6 1_555 1_555
Mn9_2 O8 1_555 1_555
O11 Mn1_2 1_555 1_555
C30 C31 1_555 1_555
C33 C34 1_555 1_555
C35 C36 1_555 1_555
C42 C43 1_555 1_555
C45 C46 1_555 1_555
H31 C47 1_555 1_555
H32 C48 1_555 1_555
C47 C48 1_555 1_555
H31_2 C47_2 1_555 1_555
H32_2 C48_2 1_555 1_555
C47_2 C48_2 1_555 1_555
O10_2 Mn9 1_555 1_555
Mn4 N1_2 1_555 1_555
N1_2 C8_2 1_555 1_555
O1 C1_2 1_555 1_555
O11 C1_2 1_555 1_555
C1_2 C2_2 1_555 1_555
C2_2 C3_2 1_555 1_555
C3_2 H1_2 1_555 1_555
C4_2 C3_2 1_555 1_555
H2_2 C4_2 1_555 1_555
C5_2 C4_2 1_555 1_555
C6_2 C5_2 1_555 1_555
H3_2 C6_2 1_555 1_555
C7_2 C2_2 1_555 1_555
H4_2 C7_2 1_555 1_555
C8_2 H5_2 1_555 1_555
C9_2 C8_2 1_555 1_555
H6_2 C9_2 1_555 1_555
C10_2 C5_2 1_555 1_555
C11_2 C10_2 1_555 1_555
H7_2 C11_2 1_555 1_555
C12_2 N1_2 1_555 1_555
N4 C44_2 1_555 1_555
O7_2 Mn4 1_555 1_555
O14 C37_2 1_555 1_555
C37_2 O7_2 1_555 1_555
C38_2 C37_2 1_555 1_555
C39_2 C38_2 1_555 1_555
H25_2 C39_2 1_555 1_555
C40_2 C39_2 1_555 1_555
H26_2 C40_2 1_555 1_555
C41_2 C40_2 1_555 1_555
C42_2 C41_2 1_555 1_555
C43_2 C38_2 1_555 1_555
H28_2 C43_2 1_555 1_555
C44_2 H29_2 1_555 1_555
C45_2 C44_2 1_555 1_555
H30_2 C45_2 1_555 1_555
C46_2 C41_2 1_555 1_555
Mn9_3 N4 1_555 1_555
Mn9_4 O1 1_555 1_555
C6_2 C7_2 1_555 1_555
C9_2 C10_2 1_555 1_555
C11_2 C12_2 1_555 1_555
C42_2 C43_2 1_555 1_555
C45_2 C46_2 1_555 1_555
Mn9_2 N2_2 1_555 1_555
N2_2 C20_2 1_555 1_555
O3_2 Mn4_2 1_555 1_555
O13 C13_2 1_555 1_555
C13_2 O3_2 1_555 1_555
C14_2 C13_2 1_555 1_555
C15_2 C14_2 1_555 1_555
H9_2 C15_2 1_555 1_555
C16_2 C15_2 1_555 1_555
H10_2 C16_2 1_555 1_555
C17_2 C16_2 1_555 1_555
C18_2 C17_2 1_555 1_555
C19_2 C14_2 1_555 1_555
H12_2 C19_2 1_555 1_555
C20_2 H13_2 1_555 1_555
C21_2 C20_2 1_555 1_555
H14_2 C21_2 1_555 1_555
C22_2 C17_2 1_555 1_555
N3_2 Mn4_2 1_555 1_555
O10_2 C25_2 1_555 1_555
O12 C25_2 1_555 1_555
C25_2 C26_2 1_555 1_555
C26_2 C27_2 1_555 1_555
C27_2 H17_2 1_555 1_555
C28_2 C27_2 1_555 1_555
H18_2 C28_2 1_555 1_555
C29_2 C28_2 1_555 1_555
C30_2 C29_2 1_555 1_555
H19_2 C30_2 1_555 1_555
C31_2 C26_2 1_555 1_555
H20_2 C31_2 1_555 1_555
C32_2 N3_2 1_555 1_555
H21_2 C32_2 1_555 1_555
C33_2 C32_2 1_555 1_555
H22_2 C33_2 1_555 1_555
C34_2 C29_2 1_555 1_555
C35_2 C34_2 1_555 1_555
H23_2 C35_2 1_555 1_555
C36_2 N3_2 1_555 1_555
C18_2 C19_2 1_555 1_555
C21_2 C22_2 1_555 1_555
C30_2 C31_2 1_555 1_555
C33_2 C34_2 1_555 1_555
C35_2 C36_2 1_555 1_555
H15_2 C23_2 1_555 1_555
H16_2 C24_2 1_555 1_555
C23_2 C24_2 1_555 1_555

#END
