
###############################################################################
#
# This file contains modified crystal structure data generated from the
# MOF subset of the Cambridge Structural Database (CSD) v543 
# hosted by the Cambridge Crystallographic Data Centre (CCDC).
#
# This work is licensed under the Creative Commons
# Attribution-NonCommercial-ShareAlike 4.0 International License.
# To view a copy of this license, visit
# http://creativecommons.org/licenses/by-nc-sa/4.0/
# or send a letter to
# Creative Commons, PO Box 1866, Mountain View, CA 94042, USA.
#
# CIF created using the CSD Python API on 29 September 2022
# The structure has been converted into the P1 space group
# The structure has a 3D framework
# The original CSD entry QOQWOK01 is in the monoclinic crystal system
# The framework has been calculated to contain at least 10.0% void space
# The void calculation uses a probe of radius 1.32A, grid spacing 0.4
#
###############################################################################

data_QOQWOK01
_chemical_formula_moiety         '(C96 H64 Mn6 N8 O16)n'
_symmetry_cell_setting           triclinic
_symmetry_space_group_name_H-M   'P 1'
_symmetry_Int_Tables_number      1
_space_group_name_Hall           'P 1'
loop_
_symmetry_equiv_pos_site_id
_symmetry_equiv_pos_as_xyz
1 x,y,z
_cell_length_a                   9.8457(5)
_cell_length_b                   19.4937(10)
_cell_length_c                   16.7455(9)
_cell_angle_alpha                90
_cell_angle_beta                 94.348(4)
_cell_angle_gamma                90
_cell_volume                     3204.7
loop_
_atom_site_label
_atom_site_type_symbol
_atom_site_fract_x
_atom_site_fract_y
_atom_site_fract_z
Mn2 Mn -0.0000 0.5000 0.0000
N5 N 0.0546(4) 0.58660(19) 0.0878(2)
O9 O 0.1441(3) 0.42745(16) 0.0582(2)
Mn2_2 Mn -0.0000 0.5000 1.0000
H11 H 0.0422 0.2085 0.7482
C23 C 0.0174(6) 0.3274(3) 0.8236(4)
H15 H 0.0894 0.3065 0.8002
C24 C 0.0428(6) 0.3806(3) 0.8771(4)
H16 H 0.1327 0.3940 0.8891
Mn9 Mn 0.0000 0.0000 0.5000
O13 O 0.1502(3) 0.53341(16) 0.91974(19)
Mn9_2 Mn 0.0000 1.0000 0.5000
Mn2_3 Mn 1.0000 0.5000 0.0000
O14 O 0.8498(3) 0.46659(16) 0.08026(19)
Mn1 Mn 0.5000 0.0000 0.5000
Mn2_4 Mn 1.0000 0.5000 1.0000
N1 N 0.4450(4) 0.08905(18) 0.4142(2)
N2 N 0.9454(4) 0.41340(19) 0.9122(2)
O2 O 0.3523(3) 0.47094(16) 0.08453(19)
O3 O 0.6354(3) 0.07037(16) 0.56497(19)
O4 O 0.8498(3) 0.03341(16) 0.58026(19)
C1 C 0.2621(5) 0.4267(2) 0.0913(2)
C2 C 0.2968(4) 0.3667(2) 0.1462(3)
C3 C 0.2556(5) 0.3010(2) 0.1264(3)
H1 H 0.2056 0.2932 0.0779
C4 C 0.2869(5) 0.2464(2) 0.1770(3)
H2 H 0.2609 0.2023 0.1611
C5 C 0.3563(5) 0.2562(2) 0.2511(3)
C6 C 0.3966(6) 0.3231(3) 0.2716(3)
H3 H 0.4419 0.3315 0.3214
C7 C 0.3702(6) 0.3766(2) 0.2193(3)
H4 H 0.4022 0.4203 0.2331
C8 C 0.4267(6) 0.0794(2) 0.3354(3)
H5 H 0.4333 0.0349 0.3159
C9 C 0.3984(6) 0.1316(2) 0.2813(3)
H6 H 0.3874 0.1219 0.2269
C10 C 0.3862(5) 0.1984(2) 0.3076(3)
C11 C 0.4038(5) 0.2084(2) 0.3898(3)
H7 H 0.3954 0.2521 0.4111
C12 C 0.4338(5) 0.1532(2) 0.4398(3)
H8 H 0.4470 0.1614 0.4945
C13 C 0.7562(5) 0.0746(2) 0.5921(2)
C14 C 0.7910(5) 0.1356(2) 0.6459(3)
C15 C 0.6923(5) 0.1817(3) 0.6637(4)
H9 H 0.6035 0.1758 0.6417
C16 C 0.7232(6) 0.2367(3) 0.7142(4)
H10 H 0.6549 0.2675 0.7253
C17 C 0.8535(5) 0.2466(3) 0.7483(3)
C18 C 0.9529(5) 0.2017(3) 0.7276(4)
C19 C 0.9231(5) 0.1466(3) 0.6767(4)
H12 H 0.9922 0.1172 0.6634
C20 C 0.8187(5) 0.3922(3) 0.8945(3)
H13 H 0.7485 0.4145 0.9181
C21 C 0.7861(5) 0.3388(3) 0.8429(3)
H14 H 0.6957 0.3253 0.8337
C22 C 0.8859(5) 0.3049(3) 0.8046(3)
Mn4 Mn 0.5000 0.5000 0.0000
Mn9_3 Mn 1.0000 0.0000 0.5000
O10 O 0.8559(3) 0.57255(16) 0.9418(2)
O12 O 0.3523(3) 0.02906(16) 0.58453(19)
Mn4_2 Mn 0.5000 0.5000 1.0000
Mn1_2 Mn 0.5000 1.0000 0.5000
N3 N 0.5550(4) 0.91095(18) 0.5858(2)
O6 O 0.6477(3) 0.52906(16) 0.91547(19)
O7 O 0.3646(3) 0.92963(16) 0.43503(19)
O8 O 0.1502(3) 0.96659(16) 0.41974(19)
C25 C 0.7379(5) 0.5733(2) 0.9087(2)
C26 C 0.7032(4) 0.6333(2) 0.8538(3)
C27 C 0.7444(5) 0.6990(2) 0.8736(3)
H17 H 0.7944 0.7068 0.9221
C28 C 0.7131(5) 0.7536(2) 0.8230(3)
H18 H 0.7391 0.7977 0.8389
C29 C 0.6437(5) 0.7438(2) 0.7489(3)
C30 C 0.6034(6) 0.6769(3) 0.7284(3)
H19 H 0.5581 0.6685 0.6786
C31 C 0.6298(6) 0.6234(2) 0.7807(3)
H20 H 0.5978 0.5797 0.7669
C32 C 0.5733(6) 0.9206(2) 0.6646(3)
H21 H 0.5667 0.9651 0.6841
C33 C 0.6016(6) 0.8684(2) 0.7187(3)
H22 H 0.6126 0.8781 0.7731
C34 C 0.6138(5) 0.8016(2) 0.6924(3)
C35 C 0.5962(5) 0.7916(2) 0.6102(3)
H23 H 0.6046 0.7479 0.5889
C36 C 0.5662(5) 0.8468(2) 0.5602(3)
H24 H 0.5530 0.8386 0.5055
C37 C 0.2438(5) 0.9254(2) 0.4079(2)
C38 C 0.2090(5) 0.8644(2) 0.3541(3)
C39 C 0.3077(5) 0.8183(3) 0.3363(4)
H25 H 0.3965 0.8242 0.3583
C40 C 0.2768(6) 0.7633(3) 0.2858(4)
H26 H 0.3451 0.7325 0.2747
C41 C 0.1465(5) 0.7534(3) 0.2517(3)
C42 C 0.0471(5) 0.7983(3) 0.2724(4)
C43 C 0.0769(5) 0.8534(3) 0.3233(4)
H28 H 0.0078 0.8828 0.3366
C44 C 0.1813(5) 0.6078(3) 0.1055(3)
H29 H 0.2515 0.5855 0.0819
C45 C 0.2139(5) 0.6612(3) 0.1571(3)
H30 H 0.3043 0.6747 0.1663
C46 C 0.1141(5) 0.6951(3) 0.1954(3)
Mn9_4 Mn 1.0000 1.0000 0.5000
O11 O 0.6477(3) 0.97094(16) 0.41547(19)
H27 H 0.9578 0.7915 0.2518
C47 C 0.9826(6) 0.6726(3) 0.1764(4)
H31 H 0.9106 0.6935 0.1998
C48 C 0.9572(6) 0.6194(3) 0.1229(4)
H32 H 0.8673 0.6060 0.1109
H27_2 H 0.0422 0.2915 0.2482
C47_2 C 0.0174(6) 0.1726(3) 0.3236(4)
H31_2 H 0.0894 0.1935 0.3002
C48_2 C 0.0428(6) 0.1194(3) 0.3771(4)
H32_2 H 0.1327 0.1060 0.3891
O10_2 O 0.1441(3) 0.07255(16) 0.5582(2)
N1_2 N 0.5550(4) 0.58905(18) 0.0858(2)
O1 O 0.8559(3) 0.92745(16) 0.4418(2)
C1_2 C 0.7379(5) 0.9267(2) 0.4087(2)
C2_2 C 0.7032(4) 0.8667(2) 0.3538(3)
C3_2 C 0.7444(5) 0.8010(2) 0.3736(3)
H1_2 H 0.7944 0.7932 0.4221
C4_2 C 0.7131(5) 0.7464(2) 0.3230(3)
H2_2 H 0.7391 0.7023 0.3389
C5_2 C 0.6437(5) 0.7562(2) 0.2489(3)
C6_2 C 0.6034(6) 0.8231(3) 0.2284(3)
H3_2 H 0.5581 0.8315 0.1786
C7_2 C 0.6298(6) 0.8766(2) 0.2807(3)
H4_2 H 0.5978 0.9203 0.2669
C8_2 C 0.5733(6) 0.5794(2) 0.1646(3)
H5_2 H 0.5667 0.5349 0.1841
C9_2 C 0.6016(6) 0.6316(2) 0.2187(3)
H6_2 H 0.6126 0.6219 0.2731
C10_2 C 0.6138(5) 0.6984(2) 0.1924(3)
C11_2 C 0.5962(5) 0.7084(2) 0.1102(3)
H7_2 H 0.6046 0.7521 0.0889
C12_2 C 0.5662(5) 0.6532(2) 0.0602(3)
H8_2 H 0.5530 0.6614 0.0055
N4 N 0.9454(4) 0.08660(19) 0.4122(2)
O7_2 O 0.6354(3) 0.42963(16) 0.06497(19)
C37_2 C 0.7562(5) 0.4254(2) 0.0921(2)
C38_2 C 0.7910(5) 0.3644(2) 0.1459(3)
C39_2 C 0.6923(5) 0.3183(3) 0.1637(4)
H25_2 H 0.6035 0.3242 0.1417
C40_2 C 0.7232(6) 0.2633(3) 0.2142(4)
H26_2 H 0.6549 0.2325 0.2253
C41_2 C 0.8535(5) 0.2534(3) 0.2483(3)
C42_2 C 0.9529(5) 0.2983(3) 0.2276(4)
C43_2 C 0.9231(5) 0.3534(3) 0.1767(4)
H28_2 H 0.9922 0.3828 0.1634
C44_2 C 0.8187(5) 0.1078(3) 0.3945(3)
H29_2 H 0.7485 0.0855 0.4181
C45_2 C 0.7861(5) 0.1612(3) 0.3429(3)
H30_2 H 0.6957 0.1747 0.3337
C46_2 C 0.8859(5) 0.1951(3) 0.3046(3)
N2_2 N 0.0546(4) 0.91340(19) 0.5878(2)
O3_2 O 0.3646(3) 0.57037(16) 0.93503(19)
C13_2 C 0.2438(5) 0.5746(2) 0.9079(2)
C14_2 C 0.2090(5) 0.6356(2) 0.8541(3)
C15_2 C 0.3077(5) 0.6817(3) 0.8363(4)
H9_2 H 0.3965 0.6758 0.8583
C16_2 C 0.2768(6) 0.7367(3) 0.7858(4)
H10_2 H 0.3451 0.7675 0.7747
C17_2 C 0.1465(5) 0.7466(3) 0.7517(3)
C18_2 C 0.0471(5) 0.7017(3) 0.7724(4)
C19_2 C 0.0769(5) 0.6466(3) 0.8233(4)
H12_2 H 0.0078 0.6172 0.8366
C20_2 C 0.1813(5) 0.8922(3) 0.6055(3)
H13_2 H 0.2515 0.9145 0.5819
C21_2 C 0.2139(5) 0.8388(3) 0.6571(3)
H14_2 H 0.3043 0.8253 0.6663
C22_2 C 0.1141(5) 0.8049(3) 0.6954(3)
N3_2 N 0.4450(4) 0.41095(18) 0.9142(2)
C25_2 C 0.2621(5) 0.0733(2) 0.5913(2)
C26_2 C 0.2968(4) 0.1333(2) 0.6462(3)
C27_2 C 0.2556(5) 0.1990(2) 0.6264(3)
H17_2 H 0.2056 0.2068 0.5779
C28_2 C 0.2869(5) 0.2536(2) 0.6770(3)
H18_2 H 0.2609 0.2977 0.6611
C29_2 C 0.3563(5) 0.2438(2) 0.7511(3)
C30_2 C 0.3966(6) 0.1769(3) 0.7716(3)
H19_2 H 0.4419 0.1685 0.8214
C31_2 C 0.3702(6) 0.1234(2) 0.7193(3)
H20_2 H 0.4022 0.0797 0.7331
C32_2 C 0.4267(6) 0.4206(2) 0.8354(3)
H21_2 H 0.4333 0.4651 0.8159
C33_2 C 0.3984(6) 0.3684(2) 0.7813(3)
H22_2 H 0.3874 0.3781 0.7269
C34_2 C 0.3862(5) 0.3016(2) 0.8076(3)
C35_2 C 0.4038(5) 0.2916(2) 0.8898(3)
H23_2 H 0.3954 0.2479 0.9111
C36_2 C 0.4338(5) 0.3468(2) 0.9398(3)
H24_2 H 0.4470 0.3386 0.9945
H11_2 H 0.9578 0.7085 0.7518
C23_2 C 0.9826(6) 0.8274(3) 0.6764(4)
H15_2 H 0.9106 0.8065 0.6998
C24_2 C 0.9572(6) 0.8806(3) 0.6229(4)
H16_2 H 0.8673 0.8940 0.6109
loop_
_geom_bond_atom_site_label_1
_geom_bond_atom_site_label_2
_geom_bond_site_symmetry_1
_geom_bond_site_symmetry_2
N5 Mn2 1_555 1_555
O9 Mn2 1_555 1_555
H15 C23 1_555 1_555
H16 C24 1_555 1_555
O13 Mn2_2 1_555 1_555
C23 C24 1_555 1_555
O14 Mn2_3 1_555 1_555
Mn1 N1 1_555 1_555
Mn2_4 N2 1_555 1_555
N1 C8 1_555 1_555
N2 C20 1_555 1_555
O9 C1 1_555 1_555
O2 C1 1_555 1_555
O3 Mn1 1_555 1_555
O4 C13 1_555 1_555
C1 C2 1_555 1_555
C2 C3 1_555 1_555
C3 H1 1_555 1_555
C4 C3 1_555 1_555
H2 C4 1_555 1_555
C5 C4 1_555 1_555
C6 C5 1_555 1_555
H3 C6 1_555 1_555
C7 C2 1_555 1_555
H4 C7 1_555 1_555
C8 H5 1_555 1_555
C9 C8 1_555 1_555
H6 C9 1_555 1_555
C10 C5 1_555 1_555
C11 C10 1_555 1_555
H7 C11 1_555 1_555
C12 N1 1_555 1_555
H8 C12 1_555 1_555
C13 O3 1_555 1_555
C14 C13 1_555 1_555
C15 C14 1_555 1_555
H9 C15 1_555 1_555
C16 C15 1_555 1_555
H10 C16 1_555 1_555
C17 C16 1_555 1_555
C18 C17 1_555 1_555
C19 C14 1_555 1_555
H12 C19 1_555 1_555
C20 H13 1_555 1_555
C21 C20 1_555 1_555
H14 C21 1_555 1_555
C22 C17 1_555 1_555
Mn4 O2 1_555 1_555
Mn9_3 O4 1_555 1_555
O10 Mn2_4 1_555 1_555
O12 Mn1 1_555 1_555
C6 C7 1_555 1_555
C9 C10 1_555 1_555
C11 C12 1_555 1_555
C18 C19 1_555 1_555
C21 C22 1_555 1_555
N3 Mn1_2 1_555 1_555
N5 C44 1_555 1_555
O10 C25 1_555 1_555
O6 C25 1_555 1_555
O7 Mn1_2 1_555 1_555
O8 C37 1_555 1_555
C25 C26 1_555 1_555
C26 C27 1_555 1_555
C27 H17 1_555 1_555
C28 C27 1_555 1_555
H18 C28 1_555 1_555
C29 C28 1_555 1_555
C30 C29 1_555 1_555
H19 C30 1_555 1_555
C31 C26 1_555 1_555
H20 C31 1_555 1_555
C32 N3 1_555 1_555
H21 C32 1_555 1_555
C33 C32 1_555 1_555
H22 C33 1_555 1_555
C34 C29 1_555 1_555
C35 C34 1_555 1_555
H23 C35 1_555 1_555
C36 N3 1_555 1_555
H24 C36 1_555 1_555
C37 O7 1_555 1_555
C38 C37 1_555 1_555
C39 C38 1_555 1_555
H25 C39 1_555 1_555
C40 C39 1_555 1_555
H26 C40 1_555 1_555
C41 C40 1_555 1_555
C42 C41 1_555 1_555
C43 C38 1_555 1_555
H28 C43 1_555 1_555
C44 H29 1_555 1_555
C45 C44 1_555 1_555
H30 C45 1_555 1_555
C46 C41 1_555 1_555
Mn4_2 O6 1_555 1_555
Mn9_2 O8 1_555 1_555
O11 Mn1_2 1_555 1_555
C30 C31 1_555 1_555
C33 C34 1_555 1_555
C35 C36 1_555 1_555
C42 C43 1_555 1_555
C45 C46 1_555 1_555
H31 C47 1_555 1_555
H32 C48 1_555 1_555
C47 C48 1_555 1_555
H31_2 C47_2 1_555 1_555
H32_2 C48_2 1_555 1_555
C47_2 C48_2 1_555 1_555
O10_2 Mn9 1_555 1_555
Mn4 N1_2 1_555 1_555
N1_2 C8_2 1_555 1_555
O1 C1_2 1_555 1_555
O11 C1_2 1_555 1_555
C1_2 C2_2 1_555 1_555
C2_2 C3_2 1_555 1_555
C3_2 H1_2 1_555 1_555
C4_2 C3_2 1_555 1_555
H2_2 C4_2 1_555 1_555
C5_2 C4_2 1_555 1_555
C6_2 C5_2 1_555 1_555
H3_2 C6_2 1_555 1_555
C7_2 C2_2 1_555 1_555
H4_2 C7_2 1_555 1_555
C8_2 H5_2 1_555 1_555
C9_2 C8_2 1_555 1_555
H6_2 C9_2 1_555 1_555
C10_2 C5_2 1_555 1_555
C11_2 C10_2 1_555 1_555
H7_2 C11_2 1_555 1_555
C12_2 N1_2 1_555 1_555
H8_2 C12_2 1_555 1_555
N4 C44_2 1_555 1_555
O7_2 Mn4 1_555 1_555
O14 C37_2 1_555 1_555
C37_2 O7_2 1_555 1_555
C38_2 C37_2 1_555 1_555
C39_2 C38_2 1_555 1_555
H25_2 C39_2 1_555 1_555
C40_2 C39_2 1_555 1_555
H26_2 C40_2 1_555 1_555
C41_2 C40_2 1_555 1_555
C42_2 C41_2 1_555 1_555
C43_2 C38_2 1_555 1_555
H28_2 C43_2 1_555 1_555
C44_2 H29_2 1_555 1_555
C45_2 C44_2 1_555 1_555
H30_2 C45_2 1_555 1_555
C46_2 C41_2 1_555 1_555
Mn9_3 N4 1_555 1_555
Mn9_4 O1 1_555 1_555
C6_2 C7_2 1_555 1_555
C9_2 C10_2 1_555 1_555
C11_2 C12_2 1_555 1_555
C42_2 C43_2 1_555 1_555
C45_2 C46_2 1_555 1_555
Mn9_2 N2_2 1_555 1_555
N2_2 C20_2 1_555 1_555
O3_2 Mn4_2 1_555 1_555
O13 C13_2 1_555 1_555
C13_2 O3_2 1_555 1_555
C14_2 C13_2 1_555 1_555
C15_2 C14_2 1_555 1_555
H9_2 C15_2 1_555 1_555
C16_2 C15_2 1_555 1_555
H10_2 C16_2 1_555 1_555
C17_2 C16_2 1_555 1_555
C18_2 C17_2 1_555 1_555
C19_2 C14_2 1_555 1_555
H12_2 C19_2 1_555 1_555
C20_2 H13_2 1_555 1_555
C21_2 C20_2 1_555 1_555
H14_2 C21_2 1_555 1_555
C22_2 C17_2 1_555 1_555
N3_2 Mn4_2 1_555 1_555
O10_2 C25_2 1_555 1_555
O12 C25_2 1_555 1_555
C25_2 C26_2 1_555 1_555
C26_2 C27_2 1_555 1_555
C27_2 H17_2 1_555 1_555
C28_2 C27_2 1_555 1_555
H18_2 C28_2 1_555 1_555
C29_2 C28_2 1_555 1_555
C30_2 C29_2 1_555 1_555
H19_2 C30_2 1_555 1_555
C31_2 C26_2 1_555 1_555
H20_2 C31_2 1_555 1_555
C32_2 N3_2 1_555 1_555
H21_2 C32_2 1_555 1_555
C33_2 C32_2 1_555 1_555
H22_2 C33_2 1_555 1_555
C34_2 C29_2 1_555 1_555
C35_2 C34_2 1_555 1_555
H23_2 C35_2 1_555 1_555
C36_2 N3_2 1_555 1_555
H24_2 C36_2 1_555 1_555
C18_2 C19_2 1_555 1_555
C21_2 C22_2 1_555 1_555
C30_2 C31_2 1_555 1_555
C33_2 C34_2 1_555 1_555
C35_2 C36_2 1_555 1_555
H15_2 C23_2 1_555 1_555
H16_2 C24_2 1_555 1_555
C23_2 C24_2 1_555 1_555

#END
