
###############################################################################
#
# This file contains modified crystal structure data generated from the
# MOF subset of the Cambridge Structural Database (CSD) v543 
# hosted by the Cambridge Crystallographic Data Centre (CCDC).
#
# This work is licensed under the Creative Commons
# Attribution-NonCommercial-ShareAlike 4.0 International License.
# To view a copy of this license, visit
# http://creativecommons.org/licenses/by-nc-sa/4.0/
# or send a letter to
# Creative Commons, PO Box 1866, Mountain View, CA 94042, USA.
#
# CIF created using the CSD Python API on 29 September 2022
# The structure has been converted into the P1 space group
# The structure has a 3D framework
# The original CSD entry QOSJEP is in the monoclinic crystal system
# The framework has been calculated to contain at least 10.0% void space
# The void calculation uses a probe of radius 1.32A, grid spacing 0.4
#
###############################################################################

data_QOSJEP
_chemical_formula_moiety         '(C64 H60 Cu4 Er4 N8 O50)n'
_symmetry_cell_setting           triclinic
_symmetry_space_group_name_H-M   'P 1'
_symmetry_Int_Tables_number      1
_space_group_name_Hall           'P 1'
loop_
_symmetry_equiv_pos_site_id
_symmetry_equiv_pos_as_xyz
1 x,y,z
_cell_length_a                   10.632(2)
_cell_length_b                   13.862(3)
_cell_length_c                   19.498(4)
_cell_angle_alpha                90
_cell_angle_beta                 99.98(3)
_cell_angle_gamma                90
_cell_volume                     2830.15
loop_
_atom_site_label
_atom_site_type_symbol
_atom_site_fract_x
_atom_site_fract_y
_atom_site_fract_z
O3 O 0.1959(3) 0.4391(2) 0.82397(19)
C3 C 0.0181(4) 0.3446(3) 0.7721(3)
O4 O 0.1007(3) 0.4761(2) 0.71587(19)
C4 C 0.0396(5) 0.2611(4) 0.7375(3)
H2 H 0.1049 0.2592 0.7113
C7 C 0.1109(5) 0.4277(3) 0.7724(3)
Cu3 Cu 0.24343(5) 0.56790(4) 0.71058(3)
O1 O 0.7840(3) 0.4236(2) 0.87866(19)
Er1 Er 0.155016(19) 0.067076(15) 0.555911(12)
Cu1 Cu 0.75657(5) 0.06790(4) 0.78942(3)
N1 N 0.8710(4) 0.1798(3) 0.7796(2)
C1 C 0.8489(4) 0.2607(3) 0.8124(3)
H1 H 0.7839 0.2605 0.8388
O2 O 0.9425(3) 0.5083(2) 0.84891(19)
C2 C 0.9171(4) 0.3447(3) 0.8093(3)
N2 N 0.3583(4) 0.4553(3) 0.7060(2)
O5 O 0.2867(3) 0.1329(2) 0.65912(19)
C5 C 0.9648(5) 0.1803(3) 0.7413(3)
H3 H 0.9796 0.1251 0.7167
C6 C 0.8796(5) 0.4313(3) 0.8475(3)
O6 O 0.2699(3) 0.2228(3) 0.5641(2)
O7 O 0.6116(3) 0.1584(2) 0.78135(19)
C8 C 0.3150(5) 0.3790(4) 0.6669(3)
H4 H 0.2394 0.3857 0.6351
O8 O 0.5862(3) 0.1526(3) 0.6650(2)
C9 C 0.3759(5) 0.2915(3) 0.6710(3)
O10 O 0.0029(3) 0.1913(2) 0.57095(19)
C10 C 0.4908(4) 0.2813(3) 0.7166(2)
C11 C 0.5388(4) 0.3606(3) 0.7559(3)
H5 H 0.6165 0.3564 0.7861
O11 O 0.7952(5) 0.0843(3) 0.9058(2)
H6 H 0.762(7) 0.064(5) 0.940(3)
H7 H 0.864(4) 0.107(5) 0.929(3)
C12 C 0.4705(5) 0.4456(3) 0.7500(3)
H8 H 0.5028 0.4981 0.7773
O12 O 0.3529(3) 0.0280(3) 0.5298(2)
H10 H 0.378(6) 0.053(4) 0.495(2)
O13 O 0.1335(4) 0.1339(3) 0.4455(2)
H11 H 0.165(7) 0.112(5) 0.412(3)
H12 H 0.139(6) 0.1945(10) 0.442(3)
C13 C 0.5679(4) 0.1888(3) 0.7191(3)
C14 C 0.3086(4) 0.2099(4) 0.6280(3)
Er2 Er 0.844984(19) 0.567076(15) 0.944089(12)
O15 O 0.0575(3) 0.0083(2) 0.65109(19)
H9 H 0.413(6) 0.994(5) 0.552(4)
O14 O 0.2160(3) 0.9236(2) 0.62134(19)
N3 N 0.6417(4) 0.9553(3) 0.7940(2)
O16 O 0.8993(3) 0.9761(2) 0.78413(19)
O17 O 0.0797(3) 0.9390(2) 0.48137(19)
N1_2 N 0.1290(4) 0.6798(3) 0.7204(2)
C1_2 C 0.1511(4) 0.7607(3) 0.6876(3)
H1_2 H 0.2161 0.7605 0.6612
C2_2 C 0.0829(4) 0.8447(3) 0.6907(3)
O5_2 O 0.7133(3) 0.6329(2) 0.84088(19)
C5_2 C 0.0352(5) 0.6803(3) 0.7587(3)
H3_2 H 0.0204 0.6251 0.7833
C6_2 C 0.1204(5) 0.9313(3) 0.6525(3)
O6_2 O 0.7301(3) 0.7228(3) 0.9359(2)
O7_2 O 0.3884(3) 0.6584(2) 0.71865(19)
C8_2 C 0.6850(5) 0.8790(4) 0.8331(3)
H4_2 H 0.7606 0.8857 0.8649
O8_2 O 0.4138(3) 0.6526(3) 0.8350(2)
C9_2 C 0.6241(5) 0.7915(3) 0.8290(3)
O10_2 O 0.9971(3) 0.6913(2) 0.92905(19)
C10_2 C 0.5092(4) 0.7813(3) 0.7834(2)
C11_2 C 0.4612(4) 0.8606(3) 0.7441(3)
H5_2 H 0.3835 0.8564 0.7139
O11_2 O 0.2048(5) 0.5843(3) 0.5942(2)
H6_2 H 0.238(7) 0.564(5) 0.560(3)
H7_2 H 0.136(4) 0.607(5) 0.571(3)
C12_2 C 0.5295(5) 0.9456(3) 0.7500(3)
H8_2 H 0.4972 0.9981 0.7227
O12_2 O 0.6471(3) 0.5280(3) 0.9702(2)
H9_2 H 0.587(6) 0.494(5) 0.948(4)
C13_2 C 0.4321(4) 0.6888(3) 0.7809(3)
C14_2 C 0.6914(4) 0.7099(4) 0.8720(3)
O3_2 O 0.8041(3) 0.9391(2) 0.67603(19)
C3_2 C 0.9819(4) 0.8446(3) 0.7279(3)
C4_2 C 0.9604(5) 0.7611(4) 0.7625(3)
H2_2 H 0.8951 0.7592 0.7887
C7_2 C 0.8891(5) 0.9277(3) 0.7276(3)
C15 C 0.2261(5) 0.8138(4) 0.4620(3)
H13 H 0.2602 0.7983 0.5096
H14 H 0.2221 0.7564 0.4342
H15 H 0.2803 0.8603 0.4451
C16 C 0.0949(5) 0.8549(4) 0.4576(3)
H13_2 H 0.7398 0.2983 0.9904
O9 O 0.9203(3) 0.0610(2) 0.51863(19)
C15_2 C 0.7739(5) 0.1862(4) 0.5380(3)
H13_3 H 0.7398 0.2017 0.4904
H14_2 H 0.7779 0.2436 0.5658
H15_2 H 0.7197 0.1397 0.5549
C16_2 C 0.9051(5) 0.1451(4) 0.5424(3)
Er3 Er 0.844984(19) 0.932924(15) 0.444089(12)
H13_4 H 0.2602 0.7017 0.0096
Er3_2 Er 0.155016(19) 0.432924(15) 0.055911(12)
H9_3 H 0.587(6) 0.006(5) 0.448(4)
O14_2 O 0.7840(3) 0.0764(2) 0.37866(19)
N3_2 N 0.3583(4) 0.0447(3) 0.2060(2)
O16_2 O 0.1007(3) 0.0239(2) 0.21587(19)
O1_2 O 0.2160(3) 0.5764(2) 0.12134(19)
Cu1_2 Cu 0.24343(5) 0.93210(4) 0.21058(3)
N1_3 N 0.1290(4) 0.8202(3) 0.2204(2)
C1_3 C 0.1511(4) 0.7393(3) 0.1876(3)
H1_3 H 0.2161 0.7395 0.1612
O2_2 O 0.0575(3) 0.4917(2) 0.15109(19)
C2_3 C 0.0829(4) 0.6553(3) 0.1907(3)
N2_2 N 0.6417(4) 0.5447(3) 0.2940(2)
O5_3 O 0.7133(3) 0.8671(2) 0.34088(19)
C5_3 C 0.0352(5) 0.8197(3) 0.2587(3)
H3_3 H 0.0204 0.8749 0.2833
C6_3 C 0.1204(5) 0.5687(3) 0.1525(3)
O6_3 O 0.7301(3) 0.7772(3) 0.4359(2)
O7_3 O 0.3884(3) 0.8416(2) 0.21865(19)
C8_3 C 0.6850(5) 0.6210(4) 0.3331(3)
H4_3 H 0.7606 0.6143 0.3649
O8_3 O 0.4138(3) 0.8474(3) 0.3350(2)
C9_3 C 0.6241(5) 0.7085(3) 0.3290(3)
O10_3 O 0.9971(3) 0.8087(2) 0.42905(19)
C10_3 C 0.5092(4) 0.7187(3) 0.2834(2)
C11_3 C 0.4612(4) 0.6394(3) 0.2441(3)
H5_3 H 0.3835 0.6436 0.2139
O11_3 O 0.2048(5) 0.9157(3) 0.0942(2)
H6_3 H 0.238(7) 0.936(5) 0.060(3)
H7_3 H 0.136(4) 0.893(5) 0.071(3)
C12_3 C 0.5295(5) 0.5544(3) 0.2500(3)
H8_3 H 0.4972 0.5019 0.2227
O12_3 O 0.6471(3) 0.9720(3) 0.4702(2)
H10_2 H 0.622(6) 0.947(4) 0.505(2)
O13_2 O 0.8665(4) 0.8661(3) 0.5545(2)
H11_2 H 0.835(7) 0.888(5) 0.588(3)
H12_2 H 0.861(6) 0.8055(10) 0.558(3)
C13_3 C 0.4321(4) 0.8112(3) 0.2809(3)
C14_3 C 0.6914(4) 0.7901(4) 0.3720(3)
Cu2 Cu 0.75657(5) 0.43210(4) 0.28942(3)
O15_2 O 0.9425(3) 0.9917(2) 0.34891(19)
O3_3 O 0.8041(3) 0.5609(2) 0.17603(19)
C3_3 C 0.9819(4) 0.6554(3) 0.2279(3)
O4_2 O 0.8993(3) 0.5239(2) 0.28413(19)
C4_3 C 0.9604(5) 0.7389(4) 0.2625(3)
H2_3 H 0.8951 0.7408 0.2887
C7_3 C 0.8891(5) 0.5723(3) 0.2276(3)
O3_4 O 0.1959(3) 0.0609(2) 0.32397(19)
C3_4 C 0.0181(4) 0.1554(3) 0.2721(3)
C4_4 C 0.0396(5) 0.2389(4) 0.2375(3)
H2_4 H 0.1049 0.2408 0.2113
C7_4 C 0.1109(5) 0.0723(3) 0.2724(3)
N1_4 N 0.8710(4) 0.3202(3) 0.2796(2)
C1_4 C 0.8489(4) 0.2393(3) 0.3124(3)
H1_4 H 0.7839 0.2395 0.3388
C2_4 C 0.9171(4) 0.1553(3) 0.3093(3)
O5_4 O 0.2867(3) 0.3671(2) 0.15912(19)
C5_4 C 0.9648(5) 0.3197(3) 0.2413(3)
H3_4 H 0.9796 0.3749 0.2167
C6_4 C 0.8796(5) 0.0687(3) 0.3475(3)
O6_4 O 0.2699(3) 0.2772(3) 0.0641(2)
O7_4 O 0.6116(3) 0.3416(2) 0.28135(19)
C8_4 C 0.3150(5) 0.1210(4) 0.1669(3)
H4_4 H 0.2394 0.1143 0.1351
O8_4 O 0.5862(3) 0.3474(3) 0.1650(2)
C9_4 C 0.3759(5) 0.2085(3) 0.1710(3)
O10_4 O 0.0029(3) 0.3087(2) 0.07095(19)
C10_4 C 0.4908(4) 0.2187(3) 0.2166(2)
C11_4 C 0.5388(4) 0.1394(3) 0.2559(3)
H5_4 H 0.6165 0.1436 0.2861
O11_4 O 0.7952(5) 0.4157(3) 0.4058(2)
H6_4 H 0.762(7) 0.436(5) 0.440(3)
H7_4 H 0.864(4) 0.393(5) 0.429(3)
C12_4 C 0.4705(5) 0.0544(3) 0.2500(3)
H8_4 H 0.5028 0.0019 0.2773
O12_4 O 0.3529(3) 0.4720(3) 0.0298(2)
H9_4 H 0.413(6) 0.506(5) 0.052(4)
C13_4 C 0.5679(4) 0.3112(3) 0.2191(3)
C14_4 C 0.3086(4) 0.2901(4) 0.1280(3)
O9_2 O 0.0797(3) 0.5610(2) 0.98137(19)
C15_3 C 0.2261(5) 0.6862(4) 0.9620(3)
H14_3 H 0.2221 0.7436 0.9342
H15_3 H 0.2803 0.6397 0.9451
C16_3 C 0.0949(5) 0.6451(4) 0.9576(3)
H10_3 H 0.378(6) 0.447(4) 0.995(2)
O13_3 O 0.1335(4) 0.3661(3) 0.9455(2)
H11_3 H 0.165(7) 0.388(5) 0.912(3)
H12_3 H 0.139(6) 0.3055(10) 0.942(3)
H10_4 H 0.622(6) 0.553(4) 0.005(2)
O13_4 O 0.8665(4) 0.6339(3) 0.0545(2)
H11_4 H 0.835(7) 0.612(5) 0.088(3)
H12_4 H 0.861(6) 0.6945(10) 0.058(3)
O17_2 O 0.9203(3) 0.4390(2) 0.01863(19)
C15_4 C 0.7739(5) 0.3138(4) 0.0380(3)
H14_4 H 0.7779 0.2564 0.0658
H15_4 H 0.7197 0.3603 0.0549
C16_4 C 0.9051(5) 0.3549(4) 0.0424(3)
loop_
_geom_bond_atom_site_label_1
_geom_bond_atom_site_label_2
_geom_bond_site_symmetry_1
_geom_bond_site_symmetry_2
O3 C7 1_555 1_555
O4 C7 1_555 1_555
C4 C3 1_555 1_555
H2 C4 1_555 1_555
C7 C3 1_555 1_555
Cu3 O4 1_555 1_555
O1 C6 1_555 1_555
Er1 O5 1_555 1_555
Cu1 N1 1_555 1_555
N1 C1 1_555 1_555
C1 H1 1_555 1_555
O2 C6 1_555 1_555
C2 C1 1_555 1_555
N2 C8 1_555 1_555
O5 C14 1_555 1_555
C5 N1 1_555 1_555
H3 C5 1_555 1_555
C6 C2 1_555 1_555
O6 Er1 1_555 1_555
O7 Cu1 1_555 1_555
C8 H4 1_555 1_555
O8 C13 1_555 1_555
C9 C8 1_555 1_555
O10 Er1 1_555 1_555
C10 C9 1_555 1_555
C11 C10 1_555 1_555
H5 C11 1_555 1_555
O11 Cu1 1_555 1_555
H6 O11 1_555 1_555
H7 O11 1_555 1_555
C12 N2 1_555 1_555
H8 C12 1_555 1_555
O12 Er1 1_555 1_555
H10 O12 1_555 1_555
O13 Er1 1_555 1_555
H11 O13 1_555 1_555
H12 O13 1_555 1_555
C13 O7 1_555 1_555
C14 O6 1_555 1_555
Er2 O1 1_555 1_555
Cu3 N2 1_555 1_555
O15 Er1 1_555 1_555
O2 Er2 1_555 1_555
C9 C14 1_555 1_555
C10 C13 1_555 1_555
C11 C12 1_555 1_555
O14 C6_2 1_555 1_555
Er2 O5_2 1_555 1_555
Cu3 N1_2 1_555 1_555
N1_2 C1_2 1_555 1_555
C1_2 H1_2 1_555 1_555
C2_2 C1_2 1_555 1_555
N3 C8_2 1_555 1_555
O5_2 C14_2 1_555 1_555
C5_2 N1_2 1_555 1_555
H3_2 C5_2 1_555 1_555
C6_2 C2_2 1_555 1_555
O6_2 Er2 1_555 1_555
O7_2 Cu3 1_555 1_555
C8_2 H4_2 1_555 1_555
O8_2 C13_2 1_555 1_555
C9_2 C8_2 1_555 1_555
O10_2 Er2 1_555 1_555
C10_2 C9_2 1_555 1_555
C11_2 C10_2 1_555 1_555
H5_2 C11_2 1_555 1_555
O11_2 Cu3 1_555 1_555
H6_2 O11_2 1_555 1_555
H7_2 O11_2 1_555 1_555
C12_2 N3 1_555 1_555
H8_2 C12_2 1_555 1_555
O12_2 Er2 1_555 1_555
H9_2 O12_2 1_555 1_555
C13_2 O7_2 1_555 1_555
C14_2 O6_2 1_555 1_555
C9_2 C14_2 1_555 1_555
C10_2 C13_2 1_555 1_555
C11_2 C12_2 1_555 1_555
O3_2 C7_2 1_555 1_555
O16 C7_2 1_555 1_555
C4_2 C3_2 1_555 1_555
H2_2 C4_2 1_555 1_555
C7_2 C3_2 1_555 1_555
C15 H13 1_555 1_555
H14 C15 1_555 1_555
H15 C15 1_555 1_555
C16 O17 1_555 1_555
C15 C16 1_555 1_555
C15_2 H13_3 1_555 1_555
H14_2 C15_2 1_555 1_555
H15_2 C15_2 1_555 1_555
C16_2 O9 1_555 1_555
C15_2 C16_2 1_555 1_555
O1_2 C6_3 1_555 1_555
Er3 O5_3 1_555 1_555
Cu1_2 N1_3 1_555 1_555
N1_3 C1_3 1_555 1_555
C1_3 H1_3 1_555 1_555
O2_2 C6_3 1_555 1_555
C2_3 C1_3 1_555 1_555
N2_2 C8_3 1_555 1_555
O5_3 C14_3 1_555 1_555
C5_3 N1_3 1_555 1_555
H3_3 C5_3 1_555 1_555
C6_3 C2_3 1_555 1_555
O6_3 Er3 1_555 1_555
O7_3 Cu1_2 1_555 1_555
C8_3 H4_3 1_555 1_555
O8_3 C13_3 1_555 1_555
C9_3 C8_3 1_555 1_555
O10_3 Er3 1_555 1_555
C10_3 C9_3 1_555 1_555
C11_3 C10_3 1_555 1_555
H5_3 C11_3 1_555 1_555
O11_3 Cu1_2 1_555 1_555
H6_3 O11_3 1_555 1_555
H7_3 O11_3 1_555 1_555
C12_3 N2_2 1_555 1_555
H8_3 C12_3 1_555 1_555
O12_3 Er3 1_555 1_555
H10_2 O12_3 1_555 1_555
O13_2 Er3 1_555 1_555
H11_2 O13_2 1_555 1_555
H12_2 O13_2 1_555 1_555
C13_3 O7_3 1_555 1_555
C14_3 O6_3 1_555 1_555
Er3_2 O1_2 1_555 1_555
Cu2 N2_2 1_555 1_555
O15_2 Er3 1_555 1_555
O2_2 Er3_2 1_555 1_555
C9_3 C14_3 1_555 1_555
C10_3 C13_3 1_555 1_555
C11_3 C12_3 1_555 1_555
O3_3 C7_3 1_555 1_555
O4_2 C7_3 1_555 1_555
C4_3 C3_3 1_555 1_555
H2_3 C4_3 1_555 1_555
C7_3 C3_3 1_555 1_555
Cu2 O4_2 1_555 1_555
O3_4 C7_4 1_555 1_555
O16_2 C7_4 1_555 1_555
C4_4 C3_4 1_555 1_555
H2_4 C4_4 1_555 1_555
C7_4 C3_4 1_555 1_555
O14_2 C6_4 1_555 1_555
Er3_2 O5_4 1_555 1_555
Cu2 N1_4 1_555 1_555
N1_4 C1_4 1_555 1_555
C1_4 H1_4 1_555 1_555
C2_4 C1_4 1_555 1_555
N3_2 C8_4 1_555 1_555
O5_4 C14_4 1_555 1_555
C5_4 N1_4 1_555 1_555
H3_4 C5_4 1_555 1_555
C6_4 C2_4 1_555 1_555
O6_4 Er3_2 1_555 1_555
O7_4 Cu2 1_555 1_555
C8_4 H4_4 1_555 1_555
O8_4 C13_4 1_555 1_555
C9_4 C8_4 1_555 1_555
O10_4 Er3_2 1_555 1_555
C10_4 C9_4 1_555 1_555
C11_4 C10_4 1_555 1_555
H5_4 C11_4 1_555 1_555
O11_4 Cu2 1_555 1_555
H6_4 O11_4 1_555 1_555
H7_4 O11_4 1_555 1_555
C12_4 N3_2 1_555 1_555
H8_4 C12_4 1_555 1_555
O12_4 Er3_2 1_555 1_555
H9_4 O12_4 1_555 1_555
C13_4 O7_4 1_555 1_555
C14_4 O6_4 1_555 1_555
C9_4 C14_4 1_555 1_555
C10_4 C13_4 1_555 1_555
C11_4 C12_4 1_555 1_555
H14_3 C15_3 1_555 1_555
H15_3 C15_3 1_555 1_555
C16_3 O9_2 1_555 1_555
C15_3 C16_3 1_555 1_555
H11_3 O13_3 1_555 1_555
H12_3 O13_3 1_555 1_555
H11_4 O13_4 1_555 1_555
H12_4 O13_4 1_555 1_555
H14_4 C15_4 1_555 1_555
H15_4 C15_4 1_555 1_555
C16_4 O17_2 1_555 1_555
C15_4 C16_4 1_555 1_555

#END
