
###############################################################################
#
# This file contains modified crystal structure data generated from the
# MOF subset of the Cambridge Structural Database (CSD) v543 
# hosted by the Cambridge Crystallographic Data Centre (CCDC).
#
# This work is licensed under the Creative Commons
# Attribution-NonCommercial-ShareAlike 4.0 International License.
# To view a copy of this license, visit
# http://creativecommons.org/licenses/by-nc-sa/4.0/
# or send a letter to
# Creative Commons, PO Box 1866, Mountain View, CA 94042, USA.
#
# CIF created using the CSD Python API on 29 September 2022
# The structure has been converted into the P1 space group
# The structure has a 3D framework
# The original CSD entry QOSJUF is in the monoclinic crystal system
# The framework has been calculated to contain at least 10.0% void space
# The void calculation uses a probe of radius 1.32A, grid spacing 0.4
#
###############################################################################

data_QOSJUF
_chemical_formula_moiety         '(C64 H60 Cu4 Ho4 N8 O52)n'
_symmetry_cell_setting           triclinic
_symmetry_space_group_name_H-M   'P 1'
_symmetry_Int_Tables_number      1
_space_group_name_Hall           'P 1'
loop_
_symmetry_equiv_pos_site_id
_symmetry_equiv_pos_as_xyz
1 x,y,z
_cell_length_a                   10.792(2)
_cell_length_b                   13.889(3)
_cell_length_c                   19.739(4)
_cell_angle_alpha                90
_cell_angle_beta                 100.91(3)
_cell_angle_gamma                90
_cell_volume                     2905.2
loop_
_atom_site_label
_atom_site_type_symbol
_atom_site_fract_x
_atom_site_fract_y
_atom_site_fract_z
Cu1 Cu 0.24238(7) 0.06994(5) 0.21499(4)
Ho1 Ho 0.15432(3) 0.56839(2) 0.057145(14)
N2 N 0.1322(5) 0.1830(4) 0.2238(3)
O5 O 0.2003(5) 0.0843(5) 0.0967(3)
H1 H 0.2434(9) 0.0399(11) 0.0827(14)
H2 H 0.1248(9) 0.0983(19) 0.099(2)
O8 O 0.0578(5) 0.5091(3) 0.1510(3)
O9 O 0.2121(4) 0.4236(3) 0.1230(3)
O11 O 0.0007(5) 0.6912(4) 0.0698(3)
O13 O 0.3523(5) 0.5294(4) 0.0324(3)
H5 H 0.4004 0.4946 0.0705
H6 H 0.3960 0.5875 0.0251
C8 C 0.0392(6) 0.1841(5) 0.2610(4)
H10 H 0.0265 0.1298 0.2863
C11 C 0.0836(6) 0.3483(5) 0.1923(3)
C12 C 0.1514(6) 0.2632(5) 0.1900(3)
H12 H 0.2138 0.2624 0.1632
C14 C 0.1193(7) 0.4325(6) 0.1521(3)
O14 O 0.2649(5) 0.7256(4) 0.0684(3)
O15 O 0.2855(5) 0.6337(3) 0.1611(3)
O16 O 0.3869(5) 0.1595(4) 0.2208(3)
O12 O 0.1354(5) 0.6351(4) 0.9468(3)
H3 H 0.2120 0.6241 0.9299
H4 H 0.0661 0.6053 0.9164
O18 O 0.0801(5) 0.4391(4) 0.9821(3)
N1 N 0.3549(5) 0.9562(4) 0.2108(3)
O3 O 0.6131(5) 0.6595(4) 0.2792(3)
O4 O 0.5843(6) 0.6600(5) 0.1637(3)
C1 C 0.4672(6) 0.9468(5) 0.2529(4)
H7 H 0.5000 0.9990 0.2800
C2 C 0.5364(6) 0.8623(5) 0.2576(4)
H8 H 0.6142 0.8589 0.2873
C3 C 0.4904(6) 0.7826(5) 0.2181(4)
C4 C 0.3723(6) 0.7925(5) 0.1741(3)
C5 C 0.3096(6) 0.8803(5) 0.1709(3)
H9 H 0.2335 0.8871 0.1401
C6 C 0.5675(7) 0.6934(5) 0.2183(4)
C7 C 0.3065(6) 0.7124(5) 0.1309(3)
Cu3 Cu 0.75762(7) 0.56994(5) 0.28501(4)
O17 O 0.0992(4) 0.9798(3) 0.2192(3)
O6 O 0.8077(5) 0.4409(5) 0.1746(3)
O7 O 0.9008(4) 0.4798(3) 0.2808(3)
O10 O 0.9199(5) 0.5609(4) 0.0179(3)
C9 C 0.9612(7) 0.2647(5) 0.2626(4)
H11 H 0.8958 0.2626 0.2872
C10 C 0.9828(6) 0.3478(5) 0.2270(3)
C13 C 0.8901(6) 0.4309(5) 0.2259(4)
C15 C 0.9032(7) 0.6445(5) 0.0404(4)
C16 C 0.7756(9) 0.6854(7) 0.0354(6)
H14 H 0.7821 0.7528 0.0464
H15 H 0.7329 0.6529 0.0673
H13 H 0.7289 0.6772 0.9893
Ho3 Ho 0.84568(3) 0.43161(2) 0.942855(14)
O10_2 O 0.0801(5) 0.0609(4) 0.4821(3)
C15_2 C 0.0968(7) 0.1445(5) 0.4596(4)
C16_2 C 0.2244(9) 0.1854(7) 0.4646(6)
H13_2 H 0.2711 0.1772 0.5107
H14_2 H 0.2179 0.2528 0.4536
H15_2 H 0.2671 0.1529 0.4327
O6_2 O 0.1923(5) 0.9409(5) 0.3254(3)
C9_2 C 0.0388(7) 0.7647(5) 0.2374(4)
H11_2 H 0.1042 0.7626 0.2128
C10_2 C 0.0172(6) 0.8478(5) 0.2730(3)
C13_2 C 0.1099(6) 0.9309(5) 0.2741(4)
Ho3_2 Ho 0.15432(3) 0.93161(2) 0.557145(14)
Ho1_2 Ho 0.84568(3) 0.06839(2) 0.442855(14)
O8_2 O 0.9422(5) 0.0091(3) 0.3490(3)
O11_2 O 0.9993(5) 0.1912(4) 0.4302(3)
O12_2 O 0.8646(5) 0.1351(4) 0.5532(3)
H3_2 H 0.7880 0.1241 0.5701
H4_2 H 0.9339 0.1053 0.5836
O13_2 O 0.6477(5) 0.0294(4) 0.4676(3)
H6_2 H 0.6040 0.0875 0.4749
O14_2 O 0.7351(5) 0.2256(4) 0.4316(3)
O15_2 O 0.7145(5) 0.1337(3) 0.3389(3)
N1_2 N 0.6451(5) 0.4562(4) 0.2892(3)
N2_2 N 0.8678(5) 0.6830(4) 0.2762(3)
O4_2 O 0.4157(6) 0.1600(5) 0.3363(3)
O5_2 O 0.7997(5) 0.5843(5) 0.4033(3)
H1_2 H 0.7566(9) 0.5399(11) 0.4173(14)
H2_2 H 0.8752(9) 0.5983(19) 0.401(2)
O9_2 O 0.7879(4) 0.9236(3) 0.3770(3)
H5_2 H 0.5996 0.9946 0.4295
C1_2 C 0.5328(6) 0.4468(5) 0.2471(4)
H7_2 H 0.5000 0.4990 0.2200
C2_2 C 0.4636(6) 0.3623(5) 0.2424(4)
H8_2 H 0.3858 0.3589 0.2127
C3_2 C 0.5096(6) 0.2826(5) 0.2819(4)
C4_2 C 0.6277(6) 0.2925(5) 0.3259(3)
C5_2 C 0.6904(6) 0.3803(5) 0.3291(3)
H9_2 H 0.7665 0.3871 0.3599
C6_2 C 0.4325(7) 0.1934(5) 0.2817(4)
C7_2 C 0.6935(6) 0.2124(5) 0.3691(3)
C8_2 C 0.9608(6) 0.6841(5) 0.2390(4)
H10_2 H 0.9735 0.6298 0.2137
C11_2 C 0.9164(6) 0.8483(5) 0.3077(3)
C12_2 C 0.8486(6) 0.7632(5) 0.3100(3)
H12_2 H 0.7862 0.7624 0.3368
C14_2 C 0.8807(7) 0.9325(6) 0.3479(3)
O18_2 O 0.9199(5) 0.9391(4) 0.5179(3)
H13_3 H 0.2711 0.3228 0.0107
O6_3 O 0.1923(5) 0.5591(5) 0.8254(3)
O7_2 O 0.0992(4) 0.5202(3) 0.7192(3)
C9_3 C 0.0388(7) 0.7353(5) 0.7374(4)
H11_3 H 0.1042 0.7374 0.7128
C10_3 C 0.0172(6) 0.6522(5) 0.7730(3)
C13_3 C 0.1099(6) 0.5691(5) 0.7741(4)
C15_3 C 0.0968(7) 0.3555(5) 0.9596(4)
C16_3 C 0.2244(9) 0.3146(7) 0.9646(6)
H14_3 H 0.2179 0.2472 0.9536
H15_3 H 0.2671 0.3471 0.9327
Cu2 Cu 0.24238(7) 0.43006(5) 0.71499(4)
N1_3 N 0.6451(5) 0.0438(4) 0.7892(3)
O1 O 0.7351(5) 0.2744(4) 0.9316(3)
O2 O 0.7145(5) 0.3663(3) 0.8389(3)
O3_2 O 0.3869(5) 0.3405(4) 0.7208(3)
O4_3 O 0.4157(6) 0.3400(5) 0.8363(3)
C1_3 C 0.5328(6) 0.0532(5) 0.7471(4)
H7_3 H 0.5000 0.0010 0.7200
C2_3 C 0.4636(6) 0.1377(5) 0.7424(4)
H8_3 H 0.3858 0.1411 0.7127
C3_3 C 0.5096(6) 0.2174(5) 0.7819(4)
C4_3 C 0.6277(6) 0.2075(5) 0.8259(3)
C5_3 C 0.6904(6) 0.1197(5) 0.8291(3)
H9_3 H 0.7665 0.1129 0.8599
C6_3 C 0.4325(7) 0.3066(5) 0.7817(4)
C7_3 C 0.6935(6) 0.2876(5) 0.8691(3)
O17_2 O 0.9008(4) 0.0202(3) 0.7808(3)
O12_3 O 0.8646(5) 0.3649(4) 0.0532(3)
H3_3 H 0.7880 0.3759 0.0701
H4_3 H 0.9339 0.3947 0.0836
Cu1_2 Cu 0.75762(7) 0.93006(5) 0.78501(4)
N2_3 N 0.8678(5) 0.8170(4) 0.7762(3)
O5_3 O 0.7997(5) 0.9157(5) 0.9033(3)
H1_3 H 0.7566(9) 0.9601(11) 0.9173(14)
H2_3 H 0.8752(9) 0.9017(19) 0.901(2)
O8_3 O 0.9422(5) 0.4909(3) 0.8490(3)
O9_3 O 0.7879(4) 0.5764(3) 0.8770(3)
O11_3 O 0.9993(5) 0.3088(4) 0.9302(3)
O13_3 O 0.6477(5) 0.4706(4) 0.9676(3)
H5_3 H 0.5996 0.5054 0.9295
H6_3 H 0.6040 0.4125 0.9749
C8_3 C 0.9608(6) 0.8159(5) 0.7390(4)
H10_3 H 0.9735 0.8702 0.7137
C11_3 C 0.9164(6) 0.6517(5) 0.8077(3)
C12_3 C 0.8486(6) 0.7368(5) 0.8100(3)
H12_3 H 0.7862 0.7376 0.8368
C14_3 C 0.8807(7) 0.5675(6) 0.8479(3)
O16_2 O 0.6131(5) 0.8405(4) 0.7792(3)
N1_4 N 0.3549(5) 0.5438(4) 0.7108(3)
N2_4 N 0.1322(5) 0.3170(4) 0.7238(3)
O1_2 O 0.2649(5) 0.7744(4) 0.5684(3)
O2_2 O 0.2855(5) 0.8663(3) 0.6611(3)
O4_4 O 0.5843(6) 0.8400(5) 0.6637(3)
O5_4 O 0.2003(5) 0.4157(5) 0.5967(3)
H1_4 H 0.2434(9) 0.4601(11) 0.5827(14)
H2_4 H 0.1248(9) 0.4017(19) 0.599(2)
O9_4 O 0.2121(4) 0.0764(3) 0.6230(3)
H5_4 H 0.4004 0.0054 0.5705
C1_4 C 0.4672(6) 0.5532(5) 0.7529(4)
H7_4 H 0.5000 0.5010 0.7800
C2_4 C 0.5364(6) 0.6377(5) 0.7576(4)
H8_4 H 0.6142 0.6411 0.7873
C3_4 C 0.4904(6) 0.7174(5) 0.7181(4)
C4_4 C 0.3723(6) 0.7075(5) 0.6741(3)
C5_4 C 0.3096(6) 0.6197(5) 0.6709(3)
H9_4 H 0.2335 0.6129 0.6401
C6_4 C 0.5675(7) 0.8066(5) 0.7183(4)
C7_4 C 0.3065(6) 0.7876(5) 0.6309(3)
C8_4 C 0.0392(6) 0.3159(5) 0.7610(4)
H10_4 H 0.0265 0.3702 0.7863
C11_4 C 0.0836(6) 0.1517(5) 0.6923(3)
C12_4 C 0.1514(6) 0.2368(5) 0.6900(3)
H12_4 H 0.2138 0.2376 0.6632
C14_4 C 0.1193(7) 0.0675(6) 0.6521(3)
O8_4 O 0.0578(5) 0.9909(3) 0.6510(3)
O11_4 O 0.0007(5) 0.8088(4) 0.5698(3)
O12_4 O 0.1354(5) 0.8649(4) 0.4468(3)
H3_4 H 0.2120 0.8759 0.4299
H4_4 H 0.0661 0.8947 0.4164
O13_4 O 0.3523(5) 0.9706(4) 0.5324(3)
H6_4 H 0.3960 0.9125 0.5251
O6_4 O 0.8077(5) 0.0591(5) 0.6746(3)
C9_4 C 0.9612(7) 0.2353(5) 0.7626(4)
H11_4 H 0.8958 0.2374 0.7872
C10_4 C 0.9828(6) 0.1522(5) 0.7270(3)
C13_4 C 0.8901(6) 0.0691(5) 0.7259(4)
C15_4 C 0.9032(7) 0.8555(5) 0.5404(4)
C16_4 C 0.7756(9) 0.8146(7) 0.5354(6)
H13_4 H 0.7289 0.8228 0.4893
H14_4 H 0.7821 0.7472 0.5464
H15_4 H 0.7329 0.8471 0.5673
loop_
_geom_bond_atom_site_label_1
_geom_bond_atom_site_label_2
_geom_bond_site_symmetry_1
_geom_bond_site_symmetry_2
Ho1 O8 1_555 1_555
N2 Cu1 1_555 1_555
O5 Cu1 1_555 1_555
H1 O5 1_555 1_555
H2 O5 1_555 1_555
O8 C14 1_555 1_555
O9 Ho1 1_555 1_555
O11 Ho1 1_555 1_555
O13 Ho1 1_555 1_555
H5 O13 1_555 1_555
H6 O13 1_555 1_555
C8 N2 1_555 1_555
H10 C8 1_555 1_555
C12 N2 1_555 1_555
H12 C12 1_555 1_555
C14 O9 1_555 1_555
O14 Ho1 1_555 1_555
O15 Ho1 1_555 1_555
O16 Cu1 1_555 1_555
C11 C12 1_555 1_555
C11 C14 1_555 1_555
H3 O12 1_555 1_555
H4 O12 1_555 1_555
N1 C1 1_555 1_555
O14 C7 1_555 1_555
O15 C7 1_555 1_555
O3 C6 1_555 1_555
O4 C6 1_555 1_555
C1 H7 1_555 1_555
C2 C1 1_555 1_555
H8 C2 1_555 1_555
C3 C2 1_555 1_555
C4 C3 1_555 1_555
C5 N1 1_555 1_555
H9 C5 1_555 1_555
C6 C3 1_555 1_555
C7 C4 1_555 1_555
Cu3 O3 1_555 1_555
C4 C5 1_555 1_555
O6 C13 1_555 1_555
O7 C13 1_555 1_555
H11 C9 1_555 1_555
C10 C9 1_555 1_555
C13 C10 1_555 1_555
C15 O10 1_555 1_555
C16 C15 1_555 1_555
H14 C16 1_555 1_555
H15 C16 1_555 1_555
Cu3 O7 1_555 1_555
C15_2 O10_2 1_555 1_555
C16_2 C15_2 1_555 1_555
H13_2 C16_2 1_555 1_555
H14_2 C16_2 1_555 1_555
H15_2 C16_2 1_555 1_555
O6_2 C13_2 1_555 1_555
O17 C13_2 1_555 1_555
H11_2 C9_2 1_555 1_555
C10_2 C9_2 1_555 1_555
C13_2 C10_2 1_555 1_555
Ho1_2 O8_2 1_555 1_555
O11_2 Ho1_2 1_555 1_555
O12_2 Ho1_2 1_555 1_555
H3_2 O12_2 1_555 1_555
H4_2 O12_2 1_555 1_555
O13_2 Ho1_2 1_555 1_555
H6_2 O13_2 1_555 1_555
O14_2 Ho1_2 1_555 1_555
O15_2 Ho1_2 1_555 1_555
Cu3 N1_2 1_555 1_555
N1_2 C1_2 1_555 1_555
N2_2 Cu3 1_555 1_555
O14_2 C7_2 1_555 1_555
O15_2 C7_2 1_555 1_555
O16 C6_2 1_555 1_555
O4_2 C6_2 1_555 1_555
O5_2 Cu3 1_555 1_555
H1_2 O5_2 1_555 1_555
H2_2 O5_2 1_555 1_555
C1_2 H7_2 1_555 1_555
C2_2 C1_2 1_555 1_555
H8_2 C2_2 1_555 1_555
C3_2 C2_2 1_555 1_555
C4_2 C3_2 1_555 1_555
C5_2 N1_2 1_555 1_555
H9_2 C5_2 1_555 1_555
C6_2 C3_2 1_555 1_555
C7_2 C4_2 1_555 1_555
C8_2 N2_2 1_555 1_555
H10_2 C8_2 1_555 1_555
C12_2 N2_2 1_555 1_555
H12_2 C12_2 1_555 1_555
C14_2 O9_2 1_555 1_555
C4_2 C5_2 1_555 1_555
C11_2 C12_2 1_555 1_555
C11_2 C14_2 1_555 1_555
O6_3 C13_3 1_555 1_555
O7_2 C13_3 1_555 1_555
H11_3 C9_3 1_555 1_555
C10_3 C9_3 1_555 1_555
C13_3 C10_3 1_555 1_555
C15_3 O18 1_555 1_555
C16_3 C15_3 1_555 1_555
H14_3 C16_3 1_555 1_555
H15_3 C16_3 1_555 1_555
Cu2 O7_2 1_555 1_555
N1_3 C1_3 1_555 1_555
O1 C7_3 1_555 1_555
O2 C7_3 1_555 1_555
O3_2 C6_3 1_555 1_555
O4_3 C6_3 1_555 1_555
C1_3 H7_3 1_555 1_555
C2_3 C1_3 1_555 1_555
H8_3 C2_3 1_555 1_555
C3_3 C2_3 1_555 1_555
C4_3 C3_3 1_555 1_555
C5_3 N1_3 1_555 1_555
H9_3 C5_3 1_555 1_555
C6_3 C3_3 1_555 1_555
C7_3 C4_3 1_555 1_555
Cu2 O3_2 1_555 1_555
Ho3 O1 1_555 1_555
O2 Ho3 1_555 1_555
C4_3 C5_3 1_555 1_555
H3_3 O12_3 1_555 1_555
H4_3 O12_3 1_555 1_555
Ho3 O8_3 1_555 1_555
N2_3 Cu1_2 1_555 1_555
O5_3 Cu1_2 1_555 1_555
H1_3 O5_3 1_555 1_555
H2_3 O5_3 1_555 1_555
O8_3 C14_3 1_555 1_555
O9_3 Ho3 1_555 1_555
O11_3 Ho3 1_555 1_555
O13_3 Ho3 1_555 1_555
H5_3 O13_3 1_555 1_555
H6_3 O13_3 1_555 1_555
C8_3 N2_3 1_555 1_555
H10_3 C8_3 1_555 1_555
C12_3 N2_3 1_555 1_555
H12_3 C12_3 1_555 1_555
C14_3 O9_3 1_555 1_555
O16_2 Cu1_2 1_555 1_555
C11_3 C12_3 1_555 1_555
C11_3 C14_3 1_555 1_555
Cu2 N1_4 1_555 1_555
N1_4 C1_4 1_555 1_555
N2_4 Cu2 1_555 1_555
O1_2 C7_4 1_555 1_555
O2_2 C7_4 1_555 1_555
O16_2 C6_4 1_555 1_555
O4_4 C6_4 1_555 1_555
O5_4 Cu2 1_555 1_555
H1_4 O5_4 1_555 1_555
H2_4 O5_4 1_555 1_555
C1_4 H7_4 1_555 1_555
C2_4 C1_4 1_555 1_555
H8_4 C2_4 1_555 1_555
C3_4 C2_4 1_555 1_555
C4_4 C3_4 1_555 1_555
C5_4 N1_4 1_555 1_555
H9_4 C5_4 1_555 1_555
C6_4 C3_4 1_555 1_555
C7_4 C4_4 1_555 1_555
C8_4 N2_4 1_555 1_555
H10_4 C8_4 1_555 1_555
C12_4 N2_4 1_555 1_555
H12_4 C12_4 1_555 1_555
C14_4 O9_4 1_555 1_555
Ho3_2 O1_2 1_555 1_555
O2_2 Ho3_2 1_555 1_555
C4_4 C5_4 1_555 1_555
C11_4 C12_4 1_555 1_555
C11_4 C14_4 1_555 1_555
Ho3_2 O8_4 1_555 1_555
O11_4 Ho3_2 1_555 1_555
O12_4 Ho3_2 1_555 1_555
H3_4 O12_4 1_555 1_555
H4_4 O12_4 1_555 1_555
O13_4 Ho3_2 1_555 1_555
H6_4 O13_4 1_555 1_555
O6_4 C13_4 1_555 1_555
O17_2 C13_4 1_555 1_555
H11_4 C9_4 1_555 1_555
C10_4 C9_4 1_555 1_555
C13_4 C10_4 1_555 1_555
C15_4 O18_2 1_555 1_555
C16_4 C15_4 1_555 1_555
H13_4 C16_4 1_555 1_555
H14_4 C16_4 1_555 1_555
H15_4 C16_4 1_555 1_555

#END
