
###############################################################################
#
# This file contains modified crystal structure data generated from the
# MOF subset of the Cambridge Structural Database (CSD) v543 
# hosted by the Cambridge Crystallographic Data Centre (CCDC).
#
# This work is licensed under the Creative Commons
# Attribution-NonCommercial-ShareAlike 4.0 International License.
# To view a copy of this license, visit
# http://creativecommons.org/licenses/by-nc-sa/4.0/
# or send a letter to
# Creative Commons, PO Box 1866, Mountain View, CA 94042, USA.
#
# CIF created using the CSD Python API on 29 September 2022
# The structure has been converted into the P1 space group
# The structure has a 3D framework
# The original CSD entry QOSLES is in the tetragonal crystal system
# The original CSD entry QOSLES is in a Sohncke space group
# The framework has been calculated to contain at least 10.0% void space
# The void calculation uses a probe of radius 1.32A, grid spacing 0.4
# The framework is charged, counterions have been retained in the structure
# H atom positions have been added when not included in the experimental data
# Generated hydrogen atom positions removed from atoms on special positions
#
###############################################################################

data_QOSLES
_chemical_formula_moiety         '(C192 H168 In13 N48 O64 5+)n'
_symmetry_cell_setting           triclinic
_symmetry_space_group_name_H-M   'P 1'
_symmetry_Int_Tables_number      1
_space_group_name_Hall           'P 1'
loop_
_symmetry_equiv_pos_site_id
_symmetry_equiv_pos_as_xyz
1 x,y,z
_cell_length_a                   19.5190(4)
_cell_length_b                   19.5190(4)
_cell_length_c                   49.1068(12)
_cell_angle_alpha                90
_cell_angle_beta                 90
_cell_angle_gamma                90
_cell_volume                     18709.3
loop_
_atom_site_label
_atom_site_type_symbol
_atom_site_fract_x
_atom_site_fract_y
_atom_site_fract_z
In8 In 0.03181(2) 0.93044(2) 0.71674(2)
In11 In 0.05921(2) 0.94079(2) 0.2500
In6 In 0.93044(2) 0.03181(2) 0.28326(2)
In10 In 0.94079(2) 0.05921(2) 0.7500
C1 C 0.4878(2) 0.5751(3) 0.55702(10)
C2 C 0.4751(3) 0.6229(3) 0.57992(10)
C3 C 0.4217(3) 0.6110(3) 0.59749(11)
H1 H 0.3944 0.5723 0.5954
C4 C 0.4089(3) 0.6566(3) 0.61809(11)
H2 H 0.3727 0.6493 0.6301
C5 C 0.4486(3) 0.7112(3) 0.62080(12)
C6 C 0.4999(3) 0.7250(3) 0.60288(11)
H3 H 0.5263 0.7643 0.6048
C7 C 0.5114(3) 0.6818(3) 0.58277(11)
H4 H 0.5455 0.6919 0.5702
C8 C 0.4751(3) 0.7965(3) 0.65758(12)
C9 C 0.5741(3) 0.8377(3) 0.66917(12)
C10 C 0.4836(3) 0.8690(3) 0.69119(12)
C11 C 0.6965(3) 0.8695(3) 0.67589(12)
C12 C 0.7593(2) 0.8465(3) 0.66814(11)
H5 H 0.7634 0.8111 0.6555
C13 C 0.8152(3) 0.8754(3) 0.67889(11)
H6 H 0.8581 0.8637 0.6721
C14 C 0.8102(2) 0.9236(3) 0.70034(11)
C15 C 0.7491(2) 0.9424(3) 0.70717(10)
H7 H 0.7452 0.9732 0.7215
C16 C 0.6905(3) 0.9213(3) 0.69536(11)
H8 H 0.6483 0.9403 0.6999
C17 C 0.3881(2) 0.9189(3) 0.71752(12)
C18 C 0.3369(3) 0.9018(3) 0.70058(12)
H9 H 0.3460 0.8830 0.6836
C19 C 0.2693(3) 0.9130(3) 0.70920(11)
H10 H 0.2337 0.9029 0.6972
C20 C 0.2537(2) 0.9373(3) 0.73382(10)
C21 C 0.3069(2) 0.9589(3) 0.74931(11)
H11 H 0.2982 0.9824 0.7654
C22 C 0.3725(2) 0.9468(3) 0.74179(11)
H12 H 0.4077 0.9581 0.7537
In1 In 0.46819(2) 0.43044(2) 0.53326(2)
In2 In 0.55921(2) 0.55921(2) 0.5000
N1 N 0.5384(2) 0.7956(3) 0.65253(9)
N2 N 0.5498(2) 0.8769(3) 0.68775(10)
N3 N 0.4413(2) 0.8317(3) 0.67616(9)
N4 N 0.6413(2) 0.8403(3) 0.66300(9)
H13 H 0.6516 0.8197 0.6481
N5 N 0.45504(19) 0.9089(2) 0.71090(9)
H14 H 0.4839 0.9312 0.7207
N6 N 0.4341(2) 0.7560(2) 0.64249(9)
H15 H 0.3914 0.7579 0.6469
O1 O 0.52855(16) 0.59428(16) 0.53934(6)
O2 O 0.45794(16) 0.51910(18) 0.55819(6)
C23 C 0.8728(2) 0.9494(3) 0.71359(11)
O3 O 0.92836(15) 0.92368(18) 0.70539(6)
O4 O 0.86615(15) 0.99307(18) 0.73118(7)
C24 C 0.1808(2) 0.9475(3) 0.74076(11)
O5 O 0.16799(15) 0.97092(18) 0.76312(7)
O6 O 0.14009(14) 0.93025(18) 0.72366(6)
O7 O 0.44745(17) 0.37500(19) 0.56929(7)
O8 O 0.64052(18) 0.64052(18) 0.5000
O9 O 0.48594(14) 0.48594(14) 0.5000
C25 C 0.5751(3) 0.4878(2) 0.44298(10)
C26 C 0.6229(3) 0.4751(3) 0.42008(10)
C27 C 0.6110(3) 0.4217(3) 0.40251(11)
H16 H 0.5723 0.3944 0.4046
C28 C 0.6566(3) 0.4089(3) 0.38191(11)
H17 H 0.6493 0.3727 0.3699
C29 C 0.7112(3) 0.4486(3) 0.37920(12)
C30 C 0.7250(3) 0.4999(3) 0.39712(11)
H18 H 0.7643 0.5263 0.3952
C31 C 0.6818(3) 0.5114(3) 0.41723(11)
H19 H 0.6919 0.5455 0.4298
C32 C 0.7965(3) 0.4751(3) 0.34242(12)
C33 C 0.8377(3) 0.5741(3) 0.33083(12)
C34 C 0.8690(3) 0.4836(3) 0.30881(12)
C35 C 0.8695(3) 0.6965(3) 0.32411(12)
C36 C 0.8465(3) 0.7593(2) 0.33186(11)
H20 H 0.8111 0.7634 0.3445
C37 C 0.8754(3) 0.8152(3) 0.32111(11)
H21 H 0.8637 0.8581 0.3279
C38 C 0.9236(3) 0.8102(2) 0.29966(11)
C39 C 0.9424(3) 0.7491(2) 0.29283(10)
H22 H 0.9732 0.7452 0.2785
C40 C 0.9213(3) 0.6905(3) 0.30464(11)
H23 H 0.9403 0.6483 0.3001
C41 C 0.9189(3) 0.3881(2) 0.28248(12)
C42 C 0.9018(3) 0.3369(3) 0.29942(12)
H24 H 0.8830 0.3460 0.3164
C43 C 0.9130(3) 0.2693(3) 0.29080(11)
H25 H 0.9029 0.2337 0.3028
C44 C 0.9373(3) 0.2537(2) 0.26618(10)
C45 C 0.9589(3) 0.3069(2) 0.25069(11)
H26 H 0.9824 0.2982 0.2346
C46 C 0.9468(3) 0.3725(2) 0.25821(11)
H27 H 0.9581 0.4077 0.2463
In3 In 0.43044(2) 0.46819(2) 0.46674(2)
N7 N 0.7956(3) 0.5384(2) 0.34747(9)
N8 N 0.8769(3) 0.5498(2) 0.31225(10)
N9 N 0.8317(3) 0.4413(2) 0.32384(9)
N10 N 0.8403(3) 0.6413(2) 0.33700(9)
H28 H 0.8197 0.6516 0.3519
N11 N 0.9089(2) 0.45504(19) 0.28910(9)
H29 H 0.9312 0.4839 0.2793
N12 N 0.7560(2) 0.4341(2) 0.35751(9)
H30 H 0.7579 0.3914 0.3531
O10 O 0.59428(16) 0.52855(16) 0.46066(6)
O11 O 0.51910(18) 0.45794(16) 0.44181(6)
C47 C 0.9494(3) 0.8728(2) 0.28641(11)
O12 O 0.92368(18) 0.92836(15) 0.29461(6)
O13 O 0.99307(18) 0.86615(15) 0.26882(7)
C48 C 0.9475(3) 0.1808(2) 0.25924(11)
O14 O 0.97092(18) 0.16799(15) 0.23688(7)
O15 O 0.93025(18) 0.14009(14) 0.27634(6)
O16 O 0.37500(19) 0.44745(17) 0.43071(7)
In4 In 0.06956(2) 0.96819(2) 0.78326(2)
In9 In 0.96819(2) 0.06956(2) 0.21674(2)
O17 O 0.42368(18) 0.57164(15) 0.45539(6)
O18 O 0.57164(15) 0.42368(18) 0.54461(6)
O19 O 0.49307(18) 0.63385(15) 0.48118(7)
O20 O 0.63385(15) 0.49307(18) 0.51882(7)
O21 O 0.47092(18) 0.33201(15) 0.51312(7)
O22 O 0.33201(15) 0.47092(18) 0.48688(7)
O23 O 0.43025(18) 0.35991(14) 0.47366(6)
O24 O 0.35991(14) 0.43025(18) 0.52634(6)
C1_2 C 0.5122(2) 0.4249(3) 0.05702(10)
C2_2 C 0.5249(3) 0.3771(3) 0.07992(10)
C3_2 C 0.5783(3) 0.3890(3) 0.09749(11)
H1_2 H 0.6056 0.4277 0.0954
C4_2 C 0.5911(3) 0.3434(3) 0.11809(11)
H2_2 H 0.6273 0.3507 0.1301
C5_2 C 0.5514(3) 0.2888(3) 0.12080(12)
C6_2 C 0.5001(3) 0.2750(3) 0.10288(11)
H3_2 H 0.4737 0.2357 0.1048
C7_2 C 0.4886(3) 0.3182(3) 0.08277(11)
H4_2 H 0.4545 0.3081 0.0702
C8_2 C 0.5249(3) 0.2035(3) 0.15758(12)
C9_2 C 0.4259(3) 0.1623(3) 0.16917(12)
C10_2 C 0.5164(3) 0.1310(3) 0.19119(12)
C11_2 C 0.3035(3) 0.1305(3) 0.17589(12)
C12_2 C 0.2407(2) 0.1535(3) 0.16814(11)
H5_2 H 0.2366 0.1889 0.1555
C13_2 C 0.1848(3) 0.1246(3) 0.17889(11)
H6_2 H 0.1419 0.1363 0.1721
C14_2 C 0.1898(2) 0.0764(3) 0.20034(11)
C15_2 C 0.2509(2) 0.0576(3) 0.20717(10)
H7_2 H 0.2548 0.0268 0.2215
C16_2 C 0.3095(3) 0.0787(3) 0.19536(11)
H8_2 H 0.3517 0.0597 0.1999
C17_2 C 0.6119(2) 0.0811(3) 0.21752(12)
C18_2 C 0.6631(3) 0.0982(3) 0.20058(12)
H9_2 H 0.6540 0.1170 0.1836
C19_2 C 0.7307(3) 0.0870(3) 0.20920(11)
H10_2 H 0.7663 0.0971 0.1972
C20_2 C 0.7463(2) 0.0627(3) 0.23382(10)
C21_2 C 0.6931(2) 0.0411(3) 0.24931(11)
H11_2 H 0.7018 0.0176 0.2654
C22_2 C 0.6275(2) 0.0532(3) 0.24179(11)
H12_2 H 0.5923 0.0419 0.2537
In1_2 In 0.53181(2) 0.56956(2) 0.03326(2)
In2_2 In 0.44079(2) 0.44079(2) 0.0000
N1_2 N 0.4616(2) 0.2044(3) 0.15253(9)
N2_2 N 0.4502(2) 0.1231(3) 0.18775(10)
N3_2 N 0.5587(2) 0.1683(3) 0.17616(9)
N4_2 N 0.3587(2) 0.1597(3) 0.16300(9)
H13_2 H 0.3484 0.1803 0.1481
N5_2 N 0.54496(19) 0.0911(2) 0.21090(9)
H14_2 H 0.5161 0.0688 0.2207
N6_2 N 0.5659(2) 0.2440(2) 0.14249(9)
H15_2 H 0.6086 0.2421 0.1469
O1_2 O 0.47145(16) 0.40572(16) 0.03934(6)
O2_2 O 0.54206(16) 0.48090(18) 0.05819(6)
C23_2 C 0.1272(2) 0.0506(3) 0.21359(11)
O3_2 O 0.07164(15) 0.07632(18) 0.20539(6)
O4_2 O 0.13385(15) 0.00693(18) 0.23118(7)
C24_2 C 0.8192(2) 0.0525(3) 0.24076(11)
O5_2 O 0.83201(15) 0.02908(18) 0.26312(7)
O6_2 O 0.85991(14) 0.06975(18) 0.22366(6)
O7_2 O 0.55255(17) 0.62500(19) 0.06929(7)
O8_2 O 0.35948(18) 0.35948(18) 0.0000
O9_2 O 0.51406(14) 0.51406(14) 0.0000
O18_2 O 0.42836(15) 0.57632(18) 0.04461(6)
O20_2 O 0.36615(15) 0.50693(18) 0.01882(7)
O21_2 O 0.52908(18) 0.66799(15) 0.01312(7)
O24_2 O 0.64009(14) 0.56975(18) 0.02634(6)
H33 H 0.328111 0.366867 0.0156464
In2_3 In 0.44079(2) 0.44079(2) 1.0000
O8_3 O 0.35948(18) 0.35948(18) 1.0000
O9_3 O 0.51406(14) 0.51406(14) 1.0000
C25_2 C 0.4249(3) 0.5122(2) 0.94298(10)
C26_2 C 0.3771(3) 0.5249(3) 0.92008(10)
C27_2 C 0.3890(3) 0.5783(3) 0.90251(11)
H16_2 H 0.4277 0.6056 0.9046
C28_2 C 0.3434(3) 0.5911(3) 0.88191(11)
H17_2 H 0.3507 0.6273 0.8699
C29_2 C 0.2888(3) 0.5514(3) 0.87920(12)
C30_2 C 0.2750(3) 0.5001(3) 0.89712(11)
H18_2 H 0.2357 0.4737 0.8952
C31_2 C 0.3182(3) 0.4886(3) 0.91723(11)
H19_2 H 0.3081 0.4545 0.9298
C32_2 C 0.2035(3) 0.5249(3) 0.84242(12)
C33_2 C 0.1623(3) 0.4259(3) 0.83083(12)
C34_2 C 0.1310(3) 0.5164(3) 0.80881(12)
C35_2 C 0.1305(3) 0.3035(3) 0.82411(12)
C36_2 C 0.1535(3) 0.2407(2) 0.83186(11)
H20_2 H 0.1889 0.2366 0.8445
C37_2 C 0.1246(3) 0.1848(3) 0.82111(11)
H21_2 H 0.1363 0.1419 0.8279
C38_2 C 0.0764(3) 0.1898(2) 0.79966(11)
C39_2 C 0.0576(3) 0.2509(2) 0.79283(10)
H22_2 H 0.0268 0.2548 0.7785
C40_2 C 0.0787(3) 0.3095(3) 0.80464(11)
H23_2 H 0.0597 0.3517 0.8001
C41_2 C 0.0811(3) 0.6119(2) 0.78248(12)
C42_2 C 0.0982(3) 0.6631(3) 0.79942(12)
H24_2 H 0.1170 0.6540 0.8164
C43_2 C 0.0870(3) 0.7307(3) 0.79080(11)
H25_2 H 0.0971 0.7663 0.8028
C44_2 C 0.0627(3) 0.7463(2) 0.76618(10)
C45_2 C 0.0411(3) 0.6931(2) 0.75069(11)
H26_2 H 0.0176 0.7018 0.7346
C46_2 C 0.0532(3) 0.6275(2) 0.75821(11)
H27_2 H 0.0419 0.5923 0.7463
In3_2 In 0.56956(2) 0.53181(2) 0.96674(2)
N7_2 N 0.2044(3) 0.4616(2) 0.84747(9)
N8_2 N 0.1231(3) 0.4502(2) 0.81225(10)
N9_2 N 0.1683(3) 0.5587(2) 0.82384(9)
N10_2 N 0.1597(3) 0.3587(2) 0.83700(9)
H28_2 H 0.1803 0.3484 0.8519
N11_2 N 0.0911(2) 0.54496(19) 0.78910(9)
H29_2 H 0.0688 0.5161 0.7793
N12_2 N 0.2440(2) 0.5659(2) 0.85751(9)
H30_2 H 0.2421 0.6086 0.8531
O10_2 O 0.40572(16) 0.47145(16) 0.96066(6)
O11_2 O 0.48090(18) 0.54206(16) 0.94181(6)
C47_2 C 0.0506(3) 0.1272(2) 0.78641(11)
O12_2 O 0.07632(18) 0.07164(15) 0.79461(6)
O13_2 O 0.00693(18) 0.13385(15) 0.76882(7)
C48_2 C 0.0525(3) 0.8192(2) 0.75924(11)
O14_2 O 0.02908(18) 0.83201(15) 0.73688(7)
O15_2 O 0.06975(18) 0.85991(14) 0.77634(6)
O16_2 O 0.62500(19) 0.55255(17) 0.93071(7)
O17_2 O 0.57632(18) 0.42836(15) 0.95539(6)
O19_2 O 0.50693(18) 0.36615(15) 0.98118(7)
O22_2 O 0.66799(15) 0.52908(18) 0.98688(7)
O23_2 O 0.56975(18) 0.64009(14) 0.97366(6)
H34 H 0.333073 0.361905 0.982743
C25_3 C 0.0122(2) 0.0751(3) 0.69298(10)
C26_3 C 0.0249(3) 0.1229(3) 0.67008(10)
C27_3 C 0.0783(3) 0.1110(3) 0.65251(11)
H16_3 H 0.1056 0.0723 0.6546
C28_3 C 0.0911(3) 0.1566(3) 0.63191(11)
H17_3 H 0.1273 0.1493 0.6199
C29_3 C 0.0514(3) 0.2112(3) 0.62920(12)
C30_3 C 0.0001(3) 0.2250(3) 0.64712(11)
C32_3 C 0.0249(3) 0.2965(3) 0.59242(12)
C34_3 C 0.0164(3) 0.3690(3) 0.55881(12)
C41_3 C 0.1119(2) 0.4189(3) 0.53248(12)
C42_3 C 0.1631(3) 0.4018(3) 0.54942(12)
H24_3 H 0.1540 0.3830 0.5664
C43_3 C 0.2307(3) 0.4130(3) 0.54080(11)
H25_3 H 0.2663 0.4029 0.5528
C44_3 C 0.2463(2) 0.4373(3) 0.51618(10)
C45_3 C 0.1931(2) 0.4589(3) 0.50069(11)
H26_3 H 0.2018 0.4824 0.4846
C46_3 C 0.1275(2) 0.4468(3) 0.50821(11)
H27_3 H 0.0923 0.4581 0.4963
N9_3 N 0.0587(2) 0.3317(3) 0.57384(9)
N11_3 N 0.04496(19) 0.4089(2) 0.53910(9)
H29_3 H 0.0161 0.4312 0.5293
N12_3 N 0.0659(2) 0.2560(2) 0.60751(9)
H30_3 H 0.1086 0.2579 0.6031
O11_3 O 0.04206(16) 0.01910(18) 0.69181(6)
C48_3 C 0.3192(2) 0.4475(3) 0.50924(11)
O7_3 O 0.12500(19) 0.94745(17) 0.81929(7)
O9_4 O 0.01406(14) 0.98594(14) 0.7500
O16_3 O 0.05255(17) 0.87500(19) 0.68071(7)
H3_3 H 0.7357 0.0263 0.8548
C7_3 C 0.8182(3) 0.0114(3) 0.83277(11)
H4_3 H 0.8081 0.0455 0.8202
C9_3 C 0.6623(3) 0.0741(3) 0.91917(12)
C11_3 C 0.6305(3) 0.1965(3) 0.92589(12)
C12_3 C 0.6535(3) 0.2593(2) 0.91814(11)
H5_3 H 0.6889 0.2634 0.9055
C13_3 C 0.6246(3) 0.3152(3) 0.92889(11)
H6_3 H 0.6363 0.3581 0.9221
C14_3 C 0.5764(3) 0.3102(2) 0.95034(11)
C15_3 C 0.5576(3) 0.2491(2) 0.95717(10)
H7_3 H 0.5268 0.2452 0.9715
C16_3 C 0.5787(3) 0.1905(3) 0.94536(11)
H8_3 H 0.5597 0.1483 0.9499
N1_3 N 0.7044(3) 0.0384(2) 0.90253(9)
N2_3 N 0.6231(3) 0.0498(2) 0.93775(10)
N4_3 N 0.6597(3) 0.1413(2) 0.91300(9)
H13_3 H 0.6803 0.1516 0.8981
O1_3 O 0.90572(16) 0.02855(16) 0.78934(6)
C23_3 C 0.5506(3) 0.3728(2) 0.96359(11)
O8_4 O 0.85948(18) 0.14052(18) 0.7500
H18_3 H 0.9737 0.2643 0.6452
C31_3 C 0.9886(3) 0.1818(3) 0.66723(11)
H19_3 H 0.9545 0.1919 0.6798
C33_3 C 0.9259(3) 0.3377(3) 0.58083(12)
C35_3 C 0.8035(3) 0.3695(3) 0.57411(12)
C36_3 C 0.7407(2) 0.3465(3) 0.58186(11)
H20_3 H 0.7366 0.3111 0.5945
C37_3 C 0.6848(3) 0.3754(3) 0.57111(11)
H21_3 H 0.6419 0.3637 0.5779
C38_3 C 0.6898(2) 0.4236(3) 0.54966(11)
C39_3 C 0.7509(2) 0.4424(3) 0.54283(10)
H22_3 H 0.7548 0.4732 0.5285
C40_3 C 0.8095(3) 0.4213(3) 0.55464(11)
H23_3 H 0.8517 0.4403 0.5501
N7_3 N 0.9616(2) 0.2956(3) 0.59747(9)
N8_3 N 0.9502(2) 0.3769(3) 0.56225(10)
N10_3 N 0.8587(2) 0.3403(3) 0.58700(9)
H28_3 H 0.8484 0.3197 0.6019
O10_3 O 0.97145(16) 0.09428(16) 0.71066(6)
C47_3 C 0.6272(2) 0.4494(3) 0.53641(11)
H11_3 H 0.5176 0.7982 0.0154
H12_3 H 0.5419 0.9077 0.0037
C1_3 C 0.9249(3) 0.9878(2) 0.80702(10)
C2_3 C 0.8771(3) 0.9751(3) 0.82992(10)
C3_3 C 0.8890(3) 0.9217(3) 0.84749(11)
H1_3 H 0.9277 0.8944 0.8454
C4_3 C 0.8434(3) 0.9089(3) 0.86809(11)
H2_3 H 0.8507 0.8727 0.8801
C5_3 C 0.7888(3) 0.9486(3) 0.87080(12)
C6_3 C 0.7750(3) 0.9999(3) 0.85288(11)
C8_3 C 0.7035(3) 0.9751(3) 0.90758(12)
C10_3 C 0.6310(3) 0.9836(3) 0.94119(12)
C17_3 C 0.5811(3) 0.8881(2) 0.96752(12)
C18_3 C 0.5982(3) 0.8369(3) 0.95058(12)
H9_3 H 0.6170 0.8460 0.9336
C19_3 C 0.5870(3) 0.7693(3) 0.95920(11)
H10_3 H 0.5971 0.7337 0.9472
C20_3 C 0.5627(3) 0.7537(2) 0.98382(10)
C21_3 C 0.5411(3) 0.8069(2) 0.99931(11)
C22_3 C 0.5532(3) 0.8725(2) 0.99179(11)
N3_3 N 0.6683(3) 0.9413(2) 0.92616(9)
N5_3 N 0.5911(2) 0.95504(19) 0.96090(9)
H14_3 H 0.5688 0.9839 0.9707
N6_3 N 0.7440(2) 0.9341(2) 0.89249(9)
H15_3 H 0.7421 0.8914 0.8969
O2_3 O 0.98090(18) 0.95794(16) 0.80819(6)
C24_3 C 0.5525(3) 0.6808(2) 0.99076(11)
C1_4 C 0.0751(3) 0.0122(2) 0.30702(10)
C2_4 C 0.1229(3) 0.0249(3) 0.32992(10)
C3_4 C 0.1110(3) 0.0783(3) 0.34749(11)
H1_4 H 0.0723 0.1056 0.3454
C4_4 C 0.1566(3) 0.0911(3) 0.36809(11)
H2_4 H 0.1493 0.1273 0.3801
C5_4 C 0.2112(3) 0.0514(3) 0.37080(12)
C6_4 C 0.2250(3) 0.0001(3) 0.35288(11)
C8_4 C 0.2965(3) 0.0249(3) 0.40758(12)
C10_4 C 0.3690(3) 0.0164(3) 0.44119(12)
C17_4 C 0.4189(3) 0.1119(2) 0.46752(12)
C18_4 C 0.4018(3) 0.1631(3) 0.45058(12)
H9_4 H 0.3830 0.1540 0.4336
C19_4 C 0.4130(3) 0.2307(3) 0.45920(11)
H10_4 H 0.4029 0.2663 0.4472
C20_4 C 0.4373(3) 0.2463(2) 0.48382(10)
C21_4 C 0.4589(3) 0.1931(2) 0.49931(11)
H11_4 H 0.4824 0.2018 0.5154
C22_4 C 0.4468(3) 0.1275(2) 0.49179(11)
H12_4 H 0.4581 0.0923 0.5037
N3_4 N 0.3317(3) 0.0587(2) 0.42616(9)
N5_4 N 0.4089(2) 0.04496(19) 0.46090(9)
H14_4 H 0.4312 0.0161 0.4707
N6_4 N 0.2560(2) 0.0659(2) 0.39249(9)
H15_4 H 0.2579 0.1086 0.3969
O2_4 O 0.01910(18) 0.04206(16) 0.30819(6)
C24_4 C 0.4475(3) 0.3192(2) 0.49076(11)
H3_4 H 0.2643 0.9737 0.3548
C7_4 C 0.1818(3) 0.9886(3) 0.33277(11)
H4_4 H 0.1919 0.9545 0.3202
C9_4 C 0.3377(3) 0.9259(3) 0.41917(12)
C11_4 C 0.3695(3) 0.8035(3) 0.42589(12)
C12_4 C 0.3465(3) 0.7407(2) 0.41814(11)
H5_4 H 0.3111 0.7366 0.4055
C13_4 C 0.3754(3) 0.6848(3) 0.42889(11)
H6_4 H 0.3637 0.6419 0.4221
C14_4 C 0.4236(3) 0.6898(2) 0.45034(11)
C15_4 C 0.4424(3) 0.7509(2) 0.45717(10)
H7_4 H 0.4732 0.7548 0.4715
C16_4 C 0.4213(3) 0.8095(3) 0.44536(11)
H8_4 H 0.4403 0.8517 0.4499
N1_4 N 0.2956(3) 0.9616(2) 0.40253(9)
N2_4 N 0.3769(3) 0.9502(2) 0.43775(10)
N4_4 N 0.3403(3) 0.8587(2) 0.41300(9)
H13_4 H 0.3197 0.8484 0.3981
O1_4 O 0.09428(16) 0.97145(16) 0.28934(6)
C23_4 C 0.4494(3) 0.6272(2) 0.46359(11)
O8_5 O 0.14052(18) 0.85948(18) 0.2500
H18_4 H 0.0263 0.7357 0.1452
C31_4 C 0.0114(3) 0.8182(3) 0.16723(11)
H19_4 H 0.0455 0.8081 0.1798
C33_4 C 0.0741(3) 0.6623(3) 0.08083(12)
C35_4 C 0.1965(3) 0.6305(3) 0.07411(12)
C36_4 C 0.2593(2) 0.6535(3) 0.08186(11)
H20_4 H 0.2634 0.6889 0.0945
C37_4 C 0.3152(3) 0.6246(3) 0.07111(11)
H21_4 H 0.3581 0.6363 0.0779
C38_4 C 0.3102(2) 0.5764(3) 0.04966(11)
C39_4 C 0.2491(2) 0.5576(3) 0.04283(10)
H22_4 H 0.2452 0.5268 0.0285
C40_4 C 0.1905(3) 0.5787(3) 0.05464(11)
H23_4 H 0.1483 0.5597 0.0501
N7_4 N 0.0384(2) 0.7044(3) 0.09747(9)
N8_4 N 0.0498(2) 0.6231(3) 0.06225(10)
N10_4 N 0.1413(2) 0.6597(3) 0.08700(9)
H28_4 H 0.1516 0.6803 0.1019
O10_4 O 0.02855(16) 0.90572(16) 0.21066(6)
C47_4 C 0.3728(2) 0.5506(3) 0.03641(11)
O7_4 O 0.87500(19) 0.05255(17) 0.31929(7)
O9_5 O 0.98594(14) 0.01406(14) 0.2500
O16_4 O 0.94745(17) 0.12500(19) 0.18071(7)
C25_4 C 0.9878(2) 0.9249(3) 0.19298(10)
C26_4 C 0.9751(3) 0.8771(3) 0.17008(10)
C27_4 C 0.9217(3) 0.8890(3) 0.15251(11)
H16_4 H 0.8944 0.9277 0.1546
C28_4 C 0.9089(3) 0.8434(3) 0.13191(11)
H17_4 H 0.8727 0.8507 0.1199
C29_4 C 0.9486(3) 0.7888(3) 0.12920(12)
C30_4 C 0.9999(3) 0.7750(3) 0.14712(11)
C32_4 C 0.9751(3) 0.7035(3) 0.09242(12)
C34_4 C 0.9836(3) 0.6310(3) 0.05881(12)
C41_4 C 0.8881(2) 0.5811(3) 0.03248(12)
C42_4 C 0.8369(3) 0.5982(3) 0.04942(12)
H24_4 H 0.8460 0.6170 0.0664
C43_4 C 0.7693(3) 0.5870(3) 0.04080(11)
H25_4 H 0.7337 0.5971 0.0528
C44_4 C 0.7537(2) 0.5627(3) 0.01618(10)
C45_4 C 0.8069(2) 0.5411(3) 0.00069(11)
C46_4 C 0.8725(2) 0.5532(3) 0.00821(11)
N9_4 N 0.9413(2) 0.6683(3) 0.07384(9)
N11_4 N 0.95504(19) 0.5911(2) 0.03910(9)
H29_4 H 0.9839 0.5688 0.0293
N12_4 N 0.9341(2) 0.7440(2) 0.10751(9)
H30_4 H 0.8914 0.7421 0.1031
O11_4 O 0.95794(16) 0.98090(18) 0.19181(6)
C48_4 C 0.6808(2) 0.5525(3) 0.00924(11)
H26_4 H 0.7982 0.5176 0.9846
H27_4 H 0.9077 0.5419 0.9963
H34_2 H 0.361905 0.333073 0.0172567
H33_2 H 0.366867 0.328111 0.984354
loop_
_geom_bond_atom_site_label_1
_geom_bond_atom_site_label_2
_geom_bond_site_symmetry_1
_geom_bond_site_symmetry_2
C1 C2 1_555 1_555
C2 C3 1_555 1_555
C3 H1 1_555 1_555
C4 C3 1_555 1_555
H2 C4 1_555 1_555
C5 C4 1_555 1_555
C6 C5 1_555 1_555
H3 C6 1_555 1_555
C7 C2 1_555 1_555
H4 C7 1_555 1_555
C8 N1 1_555 1_555
C9 N1 1_555 1_555
C10 N2 1_555 1_555
C11 C12 1_555 1_555
C12 H5 1_555 1_555
C13 C12 1_555 1_555
H6 C13 1_555 1_555
C14 C13 1_555 1_555
C15 C14 1_555 1_555
H7 C15 1_555 1_555
C16 C11 1_555 1_555
H8 C16 1_555 1_555
C17 C18 1_555 1_555
C18 H9 1_555 1_555
C19 C18 1_555 1_555
H10 C19 1_555 1_555
C20 C19 1_555 1_555
C21 C20 1_555 1_555
H11 C21 1_555 1_555
C22 C17 1_555 1_555
H12 C22 1_555 1_555
In1 O2 1_555 1_555
In2 O1 1_555 1_555
N2 C9 1_555 1_555
N3 C8 1_555 1_555
N4 C9 1_555 1_555
H13 N4 1_555 1_555
N5 C10 1_555 1_555
H14 N5 1_555 1_555
N6 C5 1_555 1_555
H15 N6 1_555 1_555
O1 C1 1_555 1_555
O2 C1 1_555 1_555
C23 C14 1_555 1_555
O3 C23 1_555 1_555
O4 C23 1_555 1_555
C24 C20 1_555 1_555
O5 C24 1_555 1_555
O6 C24 1_555 1_555
O7 In1 1_555 1_555
O8 In2 1_555 1_555
O9 In1 1_555 1_555
C25 C26 1_555 1_555
C26 C27 1_555 1_555
C27 H16 1_555 1_555
C28 C27 1_555 1_555
H17 C28 1_555 1_555
C29 C28 1_555 1_555
C30 C29 1_555 1_555
H18 C30 1_555 1_555
C31 C26 1_555 1_555
H19 C31 1_555 1_555
C32 N7 1_555 1_555
C33 N7 1_555 1_555
C34 N8 1_555 1_555
C35 C36 1_555 1_555
C36 H20 1_555 1_555
C37 C36 1_555 1_555
H21 C37 1_555 1_555
C38 C37 1_555 1_555
C39 C38 1_555 1_555
H22 C39 1_555 1_555
C40 C35 1_555 1_555
H23 C40 1_555 1_555
C41 C42 1_555 1_555
C42 H24 1_555 1_555
C43 C42 1_555 1_555
H25 C43 1_555 1_555
C44 C43 1_555 1_555
C45 C44 1_555 1_555
H26 C45 1_555 1_555
C46 C41 1_555 1_555
H27 C46 1_555 1_555
In3 O9 1_555 1_555
N8 C33 1_555 1_555
N9 C32 1_555 1_555
N10 C33 1_555 1_555
H28 N10 1_555 1_555
N11 C34 1_555 1_555
H29 N11 1_555 1_555
N12 C29 1_555 1_555
H30 N12 1_555 1_555
O10 In2 1_555 1_555
O11 C25 1_555 1_555
C47 C38 1_555 1_555
O12 C47 1_555 1_555
O13 C47 1_555 1_555
C48 C44 1_555 1_555
O14 C48 1_555 1_555
O15 C48 1_555 1_555
O16 In3 1_555 1_555
In4 O5 1_555 1_555
In6 O15 1_555 1_555
In8 O6 1_555 1_555
In9 O14 1_555 1_555
O17 In3 1_555 1_555
O18 In1 1_555 1_555
O19 In2 1_555 1_555
O20 In2 1_555 1_555
O21 In1 1_555 1_555
O22 In3 1_555 1_555
O23 In3 1_555 1_555
O24 In1 1_555 1_555
C6 C7 1_555 1_555
C8 N6 1_555 1_555
C10 N3 1_555 1_555
C11 N4 1_555 1_555
C15 C16 1_555 1_555
C17 N5 1_555 1_555
C21 C22 1_555 1_555
In2 O9 1_555 1_555
C25 O10 1_555 1_555
C30 C31 1_555 1_555
C32 N12 1_555 1_555
C34 N9 1_555 1_555
C35 N10 1_555 1_555
C39 C40 1_555 1_555
C41 N11 1_555 1_555
C45 C46 1_555 1_555
In3 O11 1_555 1_555
C1_2 C2_2 1_555 1_555
C2_2 C3_2 1_555 1_555
C3_2 H1_2 1_555 1_555
C4_2 C3_2 1_555 1_555
H2_2 C4_2 1_555 1_555
C5_2 C4_2 1_555 1_555
C6_2 C5_2 1_555 1_555
H3_2 C6_2 1_555 1_555
C7_2 C2_2 1_555 1_555
H4_2 C7_2 1_555 1_555
C8_2 N1_2 1_555 1_555
C9_2 N1_2 1_555 1_555
C10_2 N2_2 1_555 1_555
C11_2 C12_2 1_555 1_555
C12_2 H5_2 1_555 1_555
C13_2 C12_2 1_555 1_555
H6_2 C13_2 1_555 1_555
C14_2 C13_2 1_555 1_555
C15_2 C14_2 1_555 1_555
H7_2 C15_2 1_555 1_555
C16_2 C11_2 1_555 1_555
H8_2 C16_2 1_555 1_555
C17_2 C18_2 1_555 1_555
C18_2 H9_2 1_555 1_555
C19_2 C18_2 1_555 1_555
H10_2 C19_2 1_555 1_555
C20_2 C19_2 1_555 1_555
C21_2 C20_2 1_555 1_555
H11_2 C21_2 1_555 1_555
C22_2 C17_2 1_555 1_555
H12_2 C22_2 1_555 1_555
In1_2 O2_2 1_555 1_555
In2_2 O1_2 1_555 1_555
N2_2 C9_2 1_555 1_555
N3_2 C8_2 1_555 1_555
N4_2 C9_2 1_555 1_555
H13_2 N4_2 1_555 1_555
N5_2 C10_2 1_555 1_555
H14_2 N5_2 1_555 1_555
N6_2 C5_2 1_555 1_555
H15_2 N6_2 1_555 1_555
O1_2 C1_2 1_555 1_555
O2_2 C1_2 1_555 1_555
C23_2 C14_2 1_555 1_555
O3_2 C23_2 1_555 1_555
O4_2 C23_2 1_555 1_555
C24_2 C20_2 1_555 1_555
O5_2 C24_2 1_555 1_555
O6_2 C24_2 1_555 1_555
O7_2 In1_2 1_555 1_555
O8_2 In2_2 1_555 1_555
O9_2 In1_2 1_555 1_555
In6 O5_2 1_555 1_555
In9 O6_2 1_555 1_555
O18_2 In1_2 1_555 1_555
O20_2 In2_2 1_555 1_555
O21_2 In1_2 1_555 1_555
O24_2 In1_2 1_555 1_555
C6_2 C7_2 1_555 1_555
C8_2 N6_2 1_555 1_555
C10_2 N3_2 1_555 1_555
C11_2 N4_2 1_555 1_555
C15_2 C16_2 1_555 1_555
C17_2 N5_2 1_555 1_555
C21_2 C22_2 1_555 1_555
In2_2 O9_2 1_555 1_555
O8_2 H33 1_555 1_555
O8_3 In2_3 1_555 1_555
C25_2 C26_2 1_555 1_555
C26_2 C27_2 1_555 1_555
C27_2 H16_2 1_555 1_555
C28_2 C27_2 1_555 1_555
H17_2 C28_2 1_555 1_555
C29_2 C28_2 1_555 1_555
C30_2 C29_2 1_555 1_555
H18_2 C30_2 1_555 1_555
C31_2 C26_2 1_555 1_555
H19_2 C31_2 1_555 1_555
C32_2 N7_2 1_555 1_555
C33_2 N7_2 1_555 1_555
C34_2 N8_2 1_555 1_555
C35_2 C36_2 1_555 1_555
C36_2 H20_2 1_555 1_555
C37_2 C36_2 1_555 1_555
H21_2 C37_2 1_555 1_555
C38_2 C37_2 1_555 1_555
C39_2 C38_2 1_555 1_555
H22_2 C39_2 1_555 1_555
C40_2 C35_2 1_555 1_555
H23_2 C40_2 1_555 1_555
C41_2 C42_2 1_555 1_555
C42_2 H24_2 1_555 1_555
C43_2 C42_2 1_555 1_555
H25_2 C43_2 1_555 1_555
C44_2 C43_2 1_555 1_555
C45_2 C44_2 1_555 1_555
H26_2 C45_2 1_555 1_555
C46_2 C41_2 1_555 1_555
H27_2 C46_2 1_555 1_555
In3_2 O9_3 1_555 1_555
N8_2 C33_2 1_555 1_555
N9_2 C32_2 1_555 1_555
N10_2 C33_2 1_555 1_555
H28_2 N10_2 1_555 1_555
N11_2 C34_2 1_555 1_555
H29_2 N11_2 1_555 1_555
N12_2 C29_2 1_555 1_555
H30_2 N12_2 1_555 1_555
O10_2 In2_3 1_555 1_555
O11_2 C25_2 1_555 1_555
C47_2 C38_2 1_555 1_555
O12_2 C47_2 1_555 1_555
O13_2 C47_2 1_555 1_555
C48_2 C44_2 1_555 1_555
O14_2 C48_2 1_555 1_555
O15_2 C48_2 1_555 1_555
O16_2 In3_2 1_555 1_555
In4 O15_2 1_555 1_555
In8 O14_2 1_555 1_555
O17_2 In3_2 1_555 1_555
O19_2 In2_3 1_555 1_555
O22_2 In3_2 1_555 1_555
O23_2 In3_2 1_555 1_555
In2_3 O9_3 1_555 1_555
C25_2 O10_2 1_555 1_555
C30_2 C31_2 1_555 1_555
C32_2 N12_2 1_555 1_555
C34_2 N9_2 1_555 1_555
C35_2 N10_2 1_555 1_555
C39_2 C40_2 1_555 1_555
C41_2 N11_2 1_555 1_555
C45_2 C46_2 1_555 1_555
In3_2 O11_2 1_555 1_555
O8_3 H34 1_555 1_555
C25_3 C26_3 1_555 1_555
C26_3 C27_3 1_555 1_555
C27_3 H16_3 1_555 1_555
C28_3 C27_3 1_555 1_555
H17_3 C28_3 1_555 1_555
C29_3 C28_3 1_555 1_555
C30_3 C29_3 1_555 1_555
C41_3 C42_3 1_555 1_555
C42_3 H24_3 1_555 1_555
C43_3 C42_3 1_555 1_555
H25_3 C43_3 1_555 1_555
C44_3 C43_3 1_555 1_555
C45_3 C44_3 1_555 1_555
H26_3 C45_3 1_555 1_555
C46_3 C41_3 1_555 1_555
H27_3 C46_3 1_555 1_555
N9_3 C32_3 1_555 1_555
N11_3 C34_3 1_555 1_555
H29_3 N11_3 1_555 1_555
N12_3 C29_3 1_555 1_555
H30_3 N12_3 1_555 1_555
O11_3 C25_3 1_555 1_555
C48_3 C44_3 1_555 1_555
O22 C48_3 1_555 1_555
O24 C48_3 1_555 1_555
C32_3 N12_3 1_555 1_555
C34_3 N9_3 1_555 1_555
C41_3 N11_3 1_555 1_555
C45_3 C46_3 1_555 1_555
O7_3 In4 1_555 1_555
O9_4 In4 1_555 1_555
In8 O9_4 1_555 1_555
O16_3 In8 1_555 1_555
H4_3 C7_3 1_555 1_555
C9_3 N1_3 1_555 1_555
C11_3 C12_3 1_555 1_555
C12_3 H5_3 1_555 1_555
C13_3 C12_3 1_555 1_555
H6_3 C13_3 1_555 1_555
C14_3 C13_3 1_555 1_555
C15_3 C14_3 1_555 1_555
H7_3 C15_3 1_555 1_555
C16_3 C11_3 1_555 1_555
H8_3 C16_3 1_555 1_555
In10 O1_3 1_555 1_555
N2_3 C9_3 1_555 1_555
N4_3 C9_3 1_555 1_555
H13_3 N4_3 1_555 1_555
C23_3 C14_3 1_555 1_555
O17_2 C23_3 1_555 1_555
O19_2 C23_3 1_555 1_555
O8_4 In10 1_555 1_555
H19_3 C31_3 1_555 1_555
C33_3 N7_3 1_555 1_555
C35_3 C36_3 1_555 1_555
C36_3 H20_3 1_555 1_555
C37_3 C36_3 1_555 1_555
H21_3 C37_3 1_555 1_555
C38_3 C37_3 1_555 1_555
C39_3 C38_3 1_555 1_555
H22_3 C39_3 1_555 1_555
C40_3 C35_3 1_555 1_555
H23_3 C40_3 1_555 1_555
N8_3 C33_3 1_555 1_555
N10_3 C33_3 1_555 1_555
H28_3 N10_3 1_555 1_555
O10_3 In10 1_555 1_555
C47_3 C38_3 1_555 1_555
O18 C47_3 1_555 1_555
O20 C47_3 1_555 1_555
C11_3 N4_3 1_555 1_555
C15_3 C16_3 1_555 1_555
C35_3 N10_3 1_555 1_555
C39_3 C40_3 1_555 1_555
C1_3 C2_3 1_555 1_555
C2_3 C3_3 1_555 1_555
C3_3 H1_3 1_555 1_555
C4_3 C3_3 1_555 1_555
H2_3 C4_3 1_555 1_555
C5_3 C4_3 1_555 1_555
C6_3 C5_3 1_555 1_555
C17_3 C18_3 1_555 1_555
C18_3 H9_3 1_555 1_555
C19_3 C18_3 1_555 1_555
H10_3 C19_3 1_555 1_555
C20_3 C19_3 1_555 1_555
C21_3 C20_3 1_555 1_555
C22_3 C17_3 1_555 1_555
N3_3 C8_3 1_555 1_555
N5_3 C10_3 1_555 1_555
H14_3 N5_3 1_555 1_555
N6_3 C5_3 1_555 1_555
H15_3 N6_3 1_555 1_555
O2_3 C1_3 1_555 1_555
C24_3 C20_3 1_555 1_555
O23_2 C24_3 1_555 1_555
C8_3 N6_3 1_555 1_555
C10_3 N3_3 1_555 1_555
C17_3 N5_3 1_555 1_555
C21_3 C22_3 1_555 1_555
C1_4 C2_4 1_555 1_555
C2_4 C3_4 1_555 1_555
C3_4 H1_4 1_555 1_555
C4_4 C3_4 1_555 1_555
H2_4 C4_4 1_555 1_555
C5_4 C4_4 1_555 1_555
C6_4 C5_4 1_555 1_555
C17_4 C18_4 1_555 1_555
C18_4 H9_4 1_555 1_555
C19_4 C18_4 1_555 1_555
H10_4 C19_4 1_555 1_555
C20_4 C19_4 1_555 1_555
C21_4 C20_4 1_555 1_555
H11_4 C21_4 1_555 1_555
C22_4 C17_4 1_555 1_555
H12_4 C22_4 1_555 1_555
N3_4 C8_4 1_555 1_555
N5_4 C10_4 1_555 1_555
H14_4 N5_4 1_555 1_555
N6_4 C5_4 1_555 1_555
H15_4 N6_4 1_555 1_555
O2_4 C1_4 1_555 1_555
C24_4 C20_4 1_555 1_555
O21 C24_4 1_555 1_555
O23 C24_4 1_555 1_555
C8_4 N6_4 1_555 1_555
C10_4 N3_4 1_555 1_555
C17_4 N5_4 1_555 1_555
C21_4 C22_4 1_555 1_555
H4_4 C7_4 1_555 1_555
C9_4 N1_4 1_555 1_555
C11_4 C12_4 1_555 1_555
C12_4 H5_4 1_555 1_555
C13_4 C12_4 1_555 1_555
H6_4 C13_4 1_555 1_555
C14_4 C13_4 1_555 1_555
C15_4 C14_4 1_555 1_555
H7_4 C15_4 1_555 1_555
C16_4 C11_4 1_555 1_555
H8_4 C16_4 1_555 1_555
In11 O1_4 1_555 1_555
N2_4 C9_4 1_555 1_555
N4_4 C9_4 1_555 1_555
H13_4 N4_4 1_555 1_555
C23_4 C14_4 1_555 1_555
O17 C23_4 1_555 1_555
O19 C23_4 1_555 1_555
O8_5 In11 1_555 1_555
H19_4 C31_4 1_555 1_555
C33_4 N7_4 1_555 1_555
C35_4 C36_4 1_555 1_555
C36_4 H20_4 1_555 1_555
C37_4 C36_4 1_555 1_555
H21_4 C37_4 1_555 1_555
C38_4 C37_4 1_555 1_555
C39_4 C38_4 1_555 1_555
H22_4 C39_4 1_555 1_555
C40_4 C35_4 1_555 1_555
H23_4 C40_4 1_555 1_555
N8_4 C33_4 1_555 1_555
N10_4 C33_4 1_555 1_555
H28_4 N10_4 1_555 1_555
O10_4 In11 1_555 1_555
C47_4 C38_4 1_555 1_555
O18_2 C47_4 1_555 1_555
O20_2 C47_4 1_555 1_555
C11_4 N4_4 1_555 1_555
C15_4 C16_4 1_555 1_555
C35_4 N10_4 1_555 1_555
C39_4 C40_4 1_555 1_555
O7_4 In6 1_555 1_555
O9_5 In6 1_555 1_555
In9 O9_5 1_555 1_555
O16_4 In9 1_555 1_555
C25_4 C26_4 1_555 1_555
C26_4 C27_4 1_555 1_555
C27_4 H16_4 1_555 1_555
C28_4 C27_4 1_555 1_555
H17_4 C28_4 1_555 1_555
C29_4 C28_4 1_555 1_555
C30_4 C29_4 1_555 1_555
C41_4 C42_4 1_555 1_555
C42_4 H24_4 1_555 1_555
C43_4 C42_4 1_555 1_555
H25_4 C43_4 1_555 1_555
C44_4 C43_4 1_555 1_555
C45_4 C44_4 1_555 1_555
C46_4 C41_4 1_555 1_555
N9_4 C32_4 1_555 1_555
N11_4 C34_4 1_555 1_555
H29_4 N11_4 1_555 1_555
N12_4 C29_4 1_555 1_555
H30_4 N12_4 1_555 1_555
O11_4 C25_4 1_555 1_555
C48_4 C44_4 1_555 1_555
O24_2 C48_4 1_555 1_555
C32_4 N12_4 1_555 1_555
C34_4 N9_4 1_555 1_555
C41_4 N11_4 1_555 1_555
C45_4 C46_4 1_555 1_555
O8_2 H34_2 1_555 1_555
O8_3 H33_2 1_555 1_555

#END
