
###############################################################################
#
# This file contains modified crystal structure data generated from the
# MOF subset of the Cambridge Structural Database (CSD) v543 
# hosted by the Cambridge Crystallographic Data Centre (CCDC).
#
# This work is licensed under the Creative Commons
# Attribution-NonCommercial-ShareAlike 4.0 International License.
# To view a copy of this license, visit
# http://creativecommons.org/licenses/by-nc-sa/4.0/
# or send a letter to
# Creative Commons, PO Box 1866, Mountain View, CA 94042, USA.
#
# CIF created using the CSD Python API on 29 September 2022
# The structure has been converted into the P1 space group
# The structure has a 3D framework
# The original CSD entry QOSXAY is in the triclinic crystal system
# The framework has been calculated to contain at least 10.0% void space
# The void calculation uses a probe of radius 1.32A, grid spacing 0.4
# H atom positions have been added when not included in the experimental data
#
###############################################################################

data_QOSXAY
_chemical_formula_moiety         '(C18 H36 N6 Ni6 O16 P6)n'
_symmetry_cell_setting           triclinic
_symmetry_space_group_name_H-M   'P 1'
_symmetry_Int_Tables_number      1
_space_group_name_Hall           'P 1'
loop_
_symmetry_equiv_pos_site_id
_symmetry_equiv_pos_as_xyz
1 x,y,z
_cell_length_a                   6.03475(5)
_cell_length_b                   14.91565(22)
_cell_length_c                   16.15721(21)
_cell_angle_alpha                112.5721(7)
_cell_angle_beta                 95.7025(11)
_cell_angle_gamma                96.4950(11)
_cell_volume                     1318.06
loop_
_atom_site_label
_atom_site_type_symbol
_atom_site_fract_x
_atom_site_fract_y
_atom_site_fract_z
_atom_site_U_iso_or_equiv
_atom_site_thermal_displace_type
O3 O 0.1991(21) 0.5139(12) 0.7002(11) 0.0334 Uiso
Ni10 Ni 0.0450(7) 0.24891(33) 0.60997(31) 0.0334 Uiso
Ni15 Ni 0.4713(7) 0.4463(4) 0.69252(33) 0.0334 Uiso
O22 O 0.1379(22) 0.2935(12) 0.7477(10) 0.0334 Uiso
Ni6 Ni 0.1818(7) 0.6730(4) 0.22118(32) 0.0334 Uiso
N6 N 0.003(4) 0.5746(18) 0.0692(16) 0.0334 Uiso
C16 C 0.167(4) 0.5949(23) 0.0071(24) 0.0334 Uiso
H1 H 0.143916 0.451275 0.0866975 . .
H3 H 0.191363 0.671202 0.0144479 . .
H4 H 0.330622 0.573073 0.0166689 . .
Ni1 Ni 0.8182(7) 0.3270(4) 0.77882(32) 0.0334 Uiso
P1 P 0.3439(16) 0.3518(7) 0.8197(7) 0.0334 Uiso
P2 P 0.9585(17) 0.4559(8) 0.6550(7) 0.0334 Uiso
P3 P 0.5076(17) 0.2006(7) 0.5772(7) 0.0334 Uiso
O1 O 0.3841(27) 0.2911(9) 0.6019(12) 0.0334 Uiso
O2 O 0.5629(26) 0.1704(12) 0.4806(8) 0.0334 Uiso
O4 O 0.9675(26) 0.3638(11) 0.5684(9) 0.0334 Uiso
O5 O 0.5279(24) 0.2885(11) 0.8181(13) 0.0334 Uiso
O6 O 0.4453(26) 0.4554(9) 0.8268(12) 0.0334 Uiso
O8 O 0.7293(21) 0.2181(14) 0.6403(11) 0.0334 Uiso
O9 O 0.8173(27) 0.4424(14) 0.7242(11) 0.0334 Uiso
N1 N 0.568(4) 0.4902(23) 0.5746(19) 0.0334 Uiso
N2 N 0.073(4) 0.0838(19) 0.5539(19) 0.0334 Uiso
C1 C 0.020(5) 0.5261(27) 0.9199(21) 0.0334 Uiso
C2 C 0.425(4) 0.5716(25) 0.5907(23) 0.0334 Uiso
C4 C 0.049(5) 0.0670(26) 0.4523(25) 0.0334 Uiso
C5 C 0.313(4) 0.1024(14) 0.5913(18) 0.0334 Uiso
C6 C 0.204(4) 0.3693(20) 0.9219(12) 0.0334 Uiso
C8 C 0.534(5) 0.4112(23) 0.4929(28) 0.0334 Uiso
C9 C 0.819(4) 0.5415(17) 0.6159(18) 0.0334 Uiso
Ni18 Ni 0.5287(7) 0.5537(4) 0.30748(33) 0.0334 Uiso
P5 P 0.0415(17) 0.5441(8) 0.3450(7) 0.0334 Uiso
O15 O 0.0325(26) 0.6362(11) 0.4316(9) 0.0334 Uiso
O29 O 0.1827(27) 0.5576(14) 0.2758(11) 0.0334 Uiso
N4 N 0.432(4) 0.5098(23) 0.4254(19) 0.0334 Uiso
C11 C 0.575(4) 0.4284(25) 0.4093(23) 0.0334 Uiso
C17 C 0.466(5) 0.5888(23) 0.5071(28) 0.0334 Uiso
C18 C 0.181(4) 0.4585(17) 0.3841(18) 0.0334 Uiso
H7 H 0.510967 0.36407 0.346725 . .
H8 H 0.752142 0.453502 0.410125 . .
H9 H 0.641223 0.623825 0.518902 . .
H10 H 0.355104 0.639232 0.500543 . .
H11 H 0.177177 0.388808 0.327026 . .
H12 H 0.0949503 0.445345 0.43551 . .
H21 H 0.323291 0.121548 0.663906 . .
H22 H 0.377031 0.0337232 0.559826 . .
H24 H 0.10061 0.521871 0.861421 . .
H25 H 0.489033 0.63593 0.653275 . .
H26 H 0.247858 0.546498 0.589875 . .
H27 H 0.358777 0.376175 0.481098 . .
H28 H 0.644896 0.360768 0.499457 . .
H29 H 0.170203 0.119223 0.440776 . .
H31 H 0.90505 0.554655 0.56449 . .
H32 H 0.822823 0.611192 0.672974 . .
H33 H 0.330309 0.410421 0.981806 . .
H34 H 0.14582 0.296726 0.920262 . .
O28 O 0.2707(21) 0.7819(14) 0.3597(11) 0.0334 Uiso
C12 C 0.102(5) 0.9621(29) 0.4113(21) 0.0334 Uiso
H6 H 0.121118 0.928912 0.574029 . .
H13 H 0.27166 0.957048 0.437229 . .
H14 H 0.0784385 0.931898 0.337454 . .
Ni11 Ni 0.9550(7) 0.75109(33) 0.39003(31) 0.0334 Uiso
P4 P 0.6561(16) 0.6482(7) 0.1803(7) 0.0334 Uiso
O18 O 0.4721(24) 0.7115(11) 0.1819(13) 0.0334 Uiso
O19 O 0.5547(26) 0.5446(9) 0.1732(12) 0.0334 Uiso
O21 O 0.8621(22) 0.7065(12) 0.2523(10) 0.0334 Uiso
C10 C 0.980(5) 0.4739(27) 0.0801(21) 0.0334 Uiso
C15 C 0.796(4) 0.6307(20) 0.0781(12) 0.0334 Uiso
H2 H 0.89939 0.478129 0.138579 . .
H17 H 0.85418 0.703274 0.0797378 . .
H18 H 0.669691 0.589579 0.0181941 . .
N3 N 0.997(4) 0.4254(18) 0.9308(16) 0.0334 Uiso
C3 C 0.898(5) 0.0379(29) 0.5887(21) 0.0334 Uiso
C7 C 0.833(4) 0.4051(23) 0.9929(24) 0.0334 Uiso
O12 O 0.8009(21) 0.4861(12) 0.2998(11) 0.0334 Uiso
H19 H 0.808637 0.328798 0.985552 . .
H20 H 0.669378 0.426927 0.983331 . .
H23 H 0.856084 0.548725 0.913303 . .
H30 H 0.878882 0.0710882 0.425971 . .
H35 H 0.72834 0.0429522 0.562771 . .
H36 H 0.921562 0.0681015 0.662546 . .
P6 P 0.4924(17) 0.7994(7) 0.4228(7) 0.0334 Uiso
O10 O 0.6159(27) 0.7089(9) 0.3981(12) 0.0334 Uiso
O11 O 0.4371(26) 0.8296(12) 0.5194(8) 0.0334 Uiso
N5 N 0.927(4) 0.9162(19) 0.4461(19) 0.0334 Uiso
C13 C 0.951(5) 0.9330(26) 0.5477(25) 0.0334 Uiso
C14 C 0.687(4) 0.8976(14) 0.4087(18) 0.0334 Uiso
H5 H 0.829797 0.880777 0.559224 . .
H15 H 0.622969 0.966277 0.440174 . .
H16 H 0.676709 0.878452 0.336094 . .
loop_
_geom_bond_atom_site_label_1
_geom_bond_atom_site_label_2
_geom_bond_site_symmetry_1
_geom_bond_site_symmetry_2
O3 Ni15 1_555 1_555
Ni10 O22 1_555 1_555
C16 N6 1_555 1_555
C16 H3 1_555 1_555
C16 H4 1_555 1_555
Ni1 O5 1_555 1_555
Ni10 O1 1_555 1_555
Ni15 O1 1_555 1_555
P1 O5 1_555 1_555
P3 O1 1_555 1_555
O2 P3 1_555 1_555
O4 P2 1_555 1_555
O6 Ni15 1_555 1_555
O8 Ni1 1_555 1_555
O9 Ni1 1_555 1_555
N1 C2 1_555 1_555
N2 Ni10 1_555 1_555
C2 C17 1_555 1_555
C4 N2 1_555 1_555
C5 P3 1_555 1_555
C6 P1 1_555 1_555
C8 N1 1_555 1_555
C9 P2 1_555 1_555
Ni6 O29 1_555 1_555
Ni18 O29 1_555 1_555
O15 P5 1_555 1_555
O29 P5 1_555 1_555
N4 C11 1_555 1_555
C11 C8 1_555 1_555
C17 N4 1_555 1_555
C18 P5 1_555 1_555
Ni15 O9 1_555 1_555
P1 O6 1_555 1_555
P1 O22 1_555 1_555
P2 O9 1_555 1_555
P3 O8 1_555 1_555
N1 C9 1_555 1_555
N2 C5 1_555 1_555
N4 C18 1_555 1_555
C11 H7 1_555 1_555
C11 H8 1_555 1_555
C17 H9 1_555 1_555
C17 H10 1_555 1_555
C18 H11 1_555 1_555
C18 H12 1_555 1_555
C5 H21 1_555 1_555
C5 H22 1_555 1_555
C1 H24 1_555 1_555
C2 H25 1_555 1_555
C2 H26 1_555 1_555
C8 H27 1_555 1_555
C8 H28 1_555 1_555
C4 H29 1_555 1_555
C9 H31 1_555 1_555
C9 H32 1_555 1_555
C6 H33 1_555 1_555
C6 H34 1_555 1_555
C12 H13 1_555 1_555
C12 H14 1_555 1_555
Ni6 O18 1_555 1_555
Ni11 O21 1_555 1_555
Ni18 O19 1_555 1_555
P4 O18 1_555 1_555
O19 P4 1_555 1_555
O21 P4 1_555 1_555
O28 Ni6 1_555 1_555
C15 P4 1_555 1_555
C10 H2 1_555 1_555
C15 H17 1_555 1_555
C15 H18 1_555 1_555
C7 N3 1_555 1_555
Ni18 O12 1_555 1_555
C7 H19 1_555 1_555
C7 H20 1_555 1_555
C3 H35 1_555 1_555
C3 H36 1_555 1_555
Ni11 O10 1_555 1_555
Ni18 O10 1_555 1_555
P6 O10 1_555 1_555
O11 P6 1_555 1_555
O28 P6 1_555 1_555
N5 Ni11 1_555 1_555
C14 P6 1_555 1_555
N5 C13 1_555 1_555
N5 C14 1_555 1_555
C13 H5 1_555 1_555
C14 H15 1_555 1_555
C14 H16 1_555 1_555

#END
