
###############################################################################
#
# This file contains modified crystal structure data generated from the
# MOF subset of the Cambridge Structural Database (CSD) v543 
# hosted by the Cambridge Crystallographic Data Centre (CCDC).
#
# This work is licensed under the Creative Commons
# Attribution-NonCommercial-ShareAlike 4.0 International License.
# To view a copy of this license, visit
# http://creativecommons.org/licenses/by-nc-sa/4.0/
# or send a letter to
# Creative Commons, PO Box 1866, Mountain View, CA 94042, USA.
#
# CIF created using the CSD Python API on 29 September 2022
# The structure has been converted into the P1 space group
# The structure has a 3D framework
# The original CSD entry QOSYED is in the tetragonal crystal system
# The framework has been calculated to contain at least 10.0% void space
# The void calculation uses a probe of radius 1.32A, grid spacing 0.4
#
###############################################################################

data_QOSYED
_chemical_formula_moiety         '(C192 H192 Co16 N60)n'
_symmetry_cell_setting           triclinic
_symmetry_space_group_name_H-M   'P 1'
_symmetry_Int_Tables_number      1
_space_group_name_Hall           'P 1'
loop_
_symmetry_equiv_pos_site_id
_symmetry_equiv_pos_as_xyz
1 x,y,z
_cell_length_a                   16.6286(2)
_cell_length_b                   16.6286(2)
_cell_length_c                   21.4148(4)
_cell_angle_alpha                90
_cell_angle_beta                 90
_cell_angle_gamma                90
_cell_volume                     5921.41
loop_
_atom_site_label
_atom_site_type_symbol
_atom_site_fract_x
_atom_site_fract_y
_atom_site_fract_z
Co1 Co 0.79887(5) 0.09104(5) 0.60703(4)
N1 N 0.7334(3) 0.0383(3) 0.6721(2)
N2 N 0.6905(3) 0.0174(3) 0.7713(2)
N3 N 0.8003(4) 0.3415(4) 0.6254(3)
N4 N 0.7838(4) 0.2094(5) 0.6129(4)
C7 C 0.7190(4) 0.0692(4) 0.7290(3)
H3 H 0.7285 0.1242 0.7385
C10 C 0.8262(5) 0.2696(5) 0.6328(3)
H10 H 0.8763 0.2603 0.6527
C11 C 0.7368(7) 0.3295(8) 0.5852(8)
H11 H 0.7059 0.3706 0.5658
C12 C 0.7262(7) 0.2515(8) 0.5782(8)
H12 H 0.6855 0.2274 0.5533
Co2 Co 0.65896(5) 0.04887(5) 0.85703(4)
Co3 Co 0.84104(5) 0.45113(5) 0.64297(4)
N5 N 0.7674(3) 0.0595(3) 0.5213(2)
N6 N 0.9085(4) 0.0503(4) 0.6246(3)
Co1_2 Co 0.70113(5) 0.90896(5) 0.10703(4)
N1_2 N 0.7666(3) 0.9617(3) 0.1721(2)
N2_2 N 0.8095(3) 0.9826(3) 0.2713(2)
N3_2 N 0.6997(4) 0.6585(4) 0.1254(3)
N4_2 N 0.7162(4) 0.7906(5) 0.1129(4)
C7_2 C 0.7810(4) 0.9308(4) 0.2290(3)
H3_2 H 0.7715 0.8758 0.2385
C10_2 C 0.6738(5) 0.7304(5) 0.1328(3)
H10_2 H 0.6237 0.7397 0.1527
C11_2 C 0.7632(7) 0.6705(8) 0.0852(8)
H11_2 H 0.7941 0.6294 0.0658
C12_2 C 0.7738(7) 0.7485(8) 0.0782(8)
H12_2 H 0.8145 0.7726 0.0533
Co2_2 Co 0.84104(5) 0.95113(5) 0.35703(4)
Co3_2 Co 0.65896(5) 0.54887(5) 0.14297(4)
N5_2 N 0.7326(3) 0.9405(3) 0.0213(2)
N6_2 N 0.5915(4) 0.9497(4) 0.1246(3)
N3_3 N 0.4085(4) 0.0503(4) 0.8754(3)
N4_3 N 0.5406(5) 0.0338(4) 0.8629(4)
C10_3 C 0.4804(5) 0.0762(5) 0.8828(3)
H10_3 H 0.4897 0.1263 0.9027
Co3_3 Co 0.29887(5) 0.09104(5) 0.89297(4)
N6_3 N 0.6997(4) 0.1585(4) 0.8746(3)
C2 C 0.8818(5) 0.9095(5) 0.0086(4)
H1 H 0.8899 0.8909 0.0501
N3_4 N 0.0915(4) 0.9497(4) 0.3754(3)
C10_4 C 0.0196(5) 0.9238(5) 0.3828(3)
H10_4 H 0.0103 0.8737 0.4027
Co3_4 Co 0.20113(5) 0.90896(5) 0.39297(4)
N1_3 N 0.7883(3) 0.0166(3) 0.4221(2)
C1 C 0.6943(4) 0.0641(4) 0.4897(3)
C2_2 C 0.6182(5) 0.0905(5) 0.5086(4)
H1_2 H 0.6101 0.1091 0.5501
C3 C 0.5535(5) 0.0892(5) 0.4661(4)
C4 C 0.5662(6) 0.0595(6) 0.4061(4)
C5 C 0.6417(6) 0.0338(6) 0.3863(4)
H2 H 0.6497 0.0145 0.3450
C6 C 0.7062(4) 0.0372(4) 0.4291(3)
C7_3 C 0.8192(4) 0.0310(4) 0.4790(3)
H3_3 H 0.8742 0.0215 0.4885
C8 C 0.4724(5) 0.1196(6) 0.4862(6)
H4 H 0.4791 0.1592 0.5197
H5 H 0.4399 0.0745 0.5014
H6 H 0.4453 0.1449 0.4506
C9 C 0.4956(6) 0.0572(8) 0.3617(5)
H7 H 0.4809 0.1122 0.3498
H8 H 0.4498 0.0312 0.3822
H9 H 0.5104 0.0267 0.3243
H12_3 H 0.9774 0.0645 0.3033
N4_4 N 0.9594(5) 0.9662(4) 0.3629(4)
N6_4 N 0.8003(4) 0.8415(4) 0.3746(3)
Co1_3 Co 0.29887(5) 0.59104(5) 0.10703(4)
N1_4 N 0.2334(3) 0.5383(3) 0.1721(2)
N2_3 N 0.1905(3) 0.5174(3) 0.2713(2)
N3_5 N 0.3003(4) 0.8415(4) 0.1254(3)
N4_5 N 0.2838(4) 0.7094(5) 0.1129(4)
C1_2 C 0.1859(4) 0.4443(4) 0.2397(3)
C2_3 C 0.1595(5) 0.3682(5) 0.2586(4)
H1_3 H 0.1409 0.3601 0.3001
C3_2 C 0.1608(5) 0.3035(5) 0.2161(4)
C4_2 C 0.1905(6) 0.3162(6) 0.1561(4)
C5_2 C 0.2162(6) 0.3917(6) 0.1363(4)
H2_2 H 0.2355 0.3997 0.0950
C6_2 C 0.2128(4) 0.4562(4) 0.1791(3)
C7_4 C 0.2190(4) 0.5692(4) 0.2290(3)
H3_4 H 0.2285 0.6242 0.2385
C8_2 C 0.1304(6) 0.2224(5) 0.2362(6)
H4_2 H 0.0908 0.2291 0.2697
H5_2 H 0.1755 0.1899 0.2514
H6_2 H 0.1051 0.1953 0.2006
C9_2 C 0.1928(8) 0.2456(6) 0.1117(5)
H7_2 H 0.1378 0.2309 0.0998
H8_2 H 0.2188 0.1998 0.1322
H9_2 H 0.2233 0.2604 0.0743
C10_5 C 0.3262(5) 0.7696(5) 0.1328(3)
H10_5 H 0.3763 0.7603 0.1527
C11_3 C 0.2368(7) 0.8295(8) 0.0852(8)
H11_3 H 0.2059 0.8706 0.0658
C12_3 C 0.2262(7) 0.7515(8) 0.0782(8)
H12_4 H 0.1855 0.7274 0.0533
Co2_3 Co 0.15896(5) 0.54887(5) 0.35703(4)
Co3_5 Co 0.34104(5) 0.95113(5) 0.14297(4)
N5_3 N 0.2674(3) 0.5595(3) 0.0213(2)
N6_5 N 0.4085(4) 0.5503(4) 0.1246(3)
Co1_4 Co 0.20113(5) 0.40896(5) 0.60703(4)
N1_5 N 0.2666(3) 0.4617(3) 0.6721(2)
N2_4 N 0.3095(3) 0.4826(3) 0.7713(2)
N3_6 N 0.1997(4) 0.1585(4) 0.6254(3)
N4_6 N 0.2162(4) 0.2906(5) 0.6129(4)
C1_3 C 0.3141(4) 0.5557(4) 0.7397(3)
C2_4 C 0.3405(5) 0.6318(5) 0.7586(4)
H1_4 H 0.3591 0.6399 0.8001
C3_3 C 0.3392(5) 0.6965(5) 0.7161(4)
C4_3 C 0.3095(6) 0.6838(6) 0.6561(4)
C5_3 C 0.2838(6) 0.6083(6) 0.6363(4)
H2_3 H 0.2645 0.6003 0.5950
C6_3 C 0.2872(4) 0.5438(4) 0.6791(3)
C7_5 C 0.2810(4) 0.4308(4) 0.7290(3)
H3_5 H 0.2715 0.3758 0.7385
C8_3 C 0.3696(6) 0.7776(5) 0.7362(6)
H4_3 H 0.4092 0.7709 0.7697
H5_3 H 0.3245 0.8101 0.7514
H6_3 H 0.3949 0.8047 0.7006
C9_3 C 0.3072(8) 0.7544(6) 0.6117(5)
H7_3 H 0.3622 0.7691 0.5998
H8_3 H 0.2812 0.8002 0.6322
H9_3 H 0.2767 0.7396 0.5743
C10_6 C 0.1738(5) 0.2304(5) 0.6328(3)
H10_6 H 0.1237 0.2397 0.6527
C11_4 C 0.2632(7) 0.1705(8) 0.5852(8)
H11_4 H 0.2941 0.1294 0.5658
C12_4 C 0.2738(7) 0.2485(8) 0.5782(8)
H12_5 H 0.3145 0.2726 0.5533
Co2_4 Co 0.34104(5) 0.45113(5) 0.85703(4)
Co3_6 Co 0.15896(5) 0.04887(5) 0.64297(4)
N5_4 N 0.2326(3) 0.4405(3) 0.5213(2)
N6_6 N 0.0915(4) 0.4497(4) 0.6246(3)
N1_6 N 0.2117(3) 0.4834(3) 0.4221(2)
N4_7 N 0.0406(5) 0.5338(4) 0.3629(4)
C1_4 C 0.3057(4) 0.4359(4) 0.4897(3)
C2_5 C 0.3818(5) 0.4095(5) 0.5086(4)
H1_5 H 0.3899 0.3909 0.5501
C3_4 C 0.4465(5) 0.4108(5) 0.4661(4)
C4_4 C 0.4338(6) 0.4405(6) 0.4061(4)
C5_4 C 0.3583(6) 0.4662(6) 0.3863(4)
H2_4 H 0.3503 0.4855 0.3450
C6_4 C 0.2938(4) 0.4628(4) 0.4291(3)
C7_6 C 0.1808(4) 0.4690(4) 0.4790(3)
H3_6 H 0.1258 0.4785 0.4885
C8_4 C 0.5276(5) 0.3804(6) 0.4862(6)
H4_4 H 0.5209 0.3408 0.5197
H5_4 H 0.5601 0.4255 0.5014
H6_4 H 0.5547 0.3551 0.4506
C9_4 C 0.5044(6) 0.4428(8) 0.3617(5)
H7_4 H 0.5191 0.3878 0.3498
H8_4 H 0.5502 0.4688 0.3822
H9_4 H 0.4896 0.4733 0.3243
H12_6 H 0.0226 0.4355 0.3033
N6_7 N 0.1997(4) 0.6585(4) 0.3746(3)
N3_7 N 0.9085(4) 0.5503(4) 0.3754(3)
C10_7 C 0.9804(5) 0.5762(5) 0.3828(3)
H10_7 H 0.9897 0.6263 0.4027
C11_5 C 0.9205(8) 0.4868(7) 0.3352(8)
H11_5 H 0.8794 0.4559 0.3158
C12_5 C 0.9985(8) 0.4762(7) 0.3282(8)
Co3_7 Co 0.79887(5) 0.59104(5) 0.39297(4)
C2_6 C 0.1182(5) 0.5905(5) 0.0086(4)
H1_6 H 0.1101 0.6091 0.0501
N1_7 N 0.2883(3) 0.5166(3) 0.9221(2)
N3_8 N 0.5915(4) 0.4497(4) 0.8754(3)
N4_8 N 0.4594(5) 0.4662(4) 0.8629(4)
C1_5 C 0.1943(4) 0.5641(4) 0.9897(3)
C3_5 C 0.0535(5) 0.5892(5) 0.9661(4)
C4_5 C 0.0662(6) 0.5595(6) 0.9061(4)
C5_5 C 0.1417(6) 0.5338(6) 0.8863(4)
H2_5 H 0.1497 0.5145 0.8450
C6_5 C 0.2062(4) 0.5372(4) 0.9291(3)
C7_7 C 0.3192(4) 0.5310(4) 0.9790(3)
H3_7 H 0.3742 0.5215 0.9885
H9_5 H 0.0104 0.5267 0.8243
C10_8 C 0.5196(5) 0.4238(5) 0.8828(3)
H10_8 H 0.5103 0.3737 0.9027
C11_6 C 0.5795(8) 0.5132(7) 0.8352(8)
H11_6 H 0.6206 0.5441 0.8158
C12_6 C 0.5015(8) 0.5238(7) 0.8282(8)
H12_7 H 0.4774 0.5645 0.8033
Co3_8 Co 0.70113(5) 0.40896(5) 0.89297(4)
N6_8 N 0.3003(4) 0.3415(4) 0.8746(3)
N1_8 N 0.2666(3) 0.9617(3) 0.3279(2)
N2_5 N 0.3095(3) 0.9826(3) 0.2287(2)
N4_9 N 0.2162(4) 0.7906(5) 0.3871(4)
C7_8 C 0.2810(4) 0.9308(4) 0.2710(3)
H3_8 H 0.2715 0.8758 0.2615
C10_9 C 0.1738(5) 0.7304(5) 0.3672(3)
H10_9 H 0.1237 0.7397 0.3473
C11_7 C 0.2632(7) 0.6705(8) 0.4148(8)
H11_7 H 0.2941 0.6294 0.4342
C12_7 C 0.2738(7) 0.7485(8) 0.4218(8)
H12_8 H 0.3145 0.7726 0.4467
N5_5 N 0.2326(3) 0.9405(3) 0.4787(2)
N1_9 N 0.2334(3) 0.0383(3) 0.8279(2)
N2_6 N 0.1905(3) 0.0174(3) 0.7287(2)
N4_10 N 0.2838(4) 0.2094(5) 0.8871(4)
C7_9 C 0.2190(4) 0.0692(4) 0.7710(3)
H3_9 H 0.2285 0.1242 0.7615
C10_10 C 0.3262(5) 0.2696(5) 0.8672(3)
H10_10 H 0.3763 0.2603 0.8473
C11_8 C 0.2368(7) 0.3295(8) 0.9148(8)
H11_8 H 0.2059 0.3706 0.9342
C12_8 C 0.2262(7) 0.2515(8) 0.9218(8)
H12_9 H 0.1855 0.2274 0.9467
N5_6 N 0.2674(3) 0.0595(3) 0.9787(2)
C2_7 C 0.1182(5) 0.0905(5) 0.9914(4)
H1_7 H 0.1101 0.1091 0.9499
N4_11 N 0.4594(5) 0.9662(4) 0.1371(4)
C10_11 C 0.5196(5) 0.9238(5) 0.1172(3)
H10_11 H 0.5103 0.8737 0.0973
N4_12 N 0.0406(5) 0.0338(4) 0.6371(4)
N1_10 N 0.2117(3) 0.9834(3) 0.5779(2)
C1_6 C 0.3057(4) 0.9359(4) 0.5103(3)
C2_8 C 0.3818(5) 0.9095(5) 0.4914(4)
H1_8 H 0.3899 0.8909 0.4499
C3_6 C 0.4465(5) 0.9108(5) 0.5339(4)
C4_6 C 0.4338(6) 0.9405(6) 0.5939(4)
C5_6 C 0.3583(6) 0.9662(6) 0.6137(4)
H2_6 H 0.3503 0.9855 0.6550
C6_6 C 0.2938(4) 0.9628(4) 0.5709(3)
C7_10 C 0.1808(4) 0.9690(4) 0.5210(3)
H3_10 H 0.1258 0.9785 0.5115
C8_5 C 0.5276(5) 0.8804(6) 0.5138(6)
H4_5 H 0.5209 0.8408 0.4803
H5_5 H 0.5601 0.9255 0.4986
H6_5 H 0.5547 0.8551 0.5494
C9_5 C 0.5044(6) 0.9428(8) 0.6383(5)
H7_5 H 0.5191 0.8878 0.6502
H8_5 H 0.5502 0.9688 0.6178
H9_6 H 0.4896 0.9733 0.6757
H12_10 H 0.0226 0.9355 0.6967
C10_12 C 0.9804(5) 0.0762(5) 0.6172(3)
H10_12 H 0.9897 0.1263 0.5973
N1_11 N 0.7666(3) 0.4617(3) 0.8279(2)
N2_7 N 0.8095(3) 0.4826(3) 0.7287(2)
N4_13 N 0.7162(4) 0.2906(5) 0.8871(4)
C1_7 C 0.8141(4) 0.5557(4) 0.7603(3)
C2_9 C 0.8405(5) 0.6318(5) 0.7414(4)
H1_9 H 0.8591 0.6399 0.6999
C3_7 C 0.8392(5) 0.6965(5) 0.7839(4)
C4_7 C 0.8095(6) 0.6838(6) 0.8439(4)
C5_7 C 0.7838(6) 0.6083(6) 0.8637(4)
H2_7 H 0.7645 0.6003 0.9050
C6_7 C 0.7872(4) 0.5438(4) 0.8209(3)
C7_11 C 0.7810(4) 0.4308(4) 0.7710(3)
H3_11 H 0.7715 0.3758 0.7615
C8_6 C 0.8696(6) 0.7776(5) 0.7638(6)
H4_6 H 0.9092 0.7709 0.7303
H5_6 H 0.8245 0.8101 0.7486
H6_6 H 0.8949 0.8047 0.7994
C9_6 C 0.8072(8) 0.7544(6) 0.8883(5)
H7_6 H 0.8622 0.7691 0.9002
H8_6 H 0.7812 0.8002 0.8678
H9_7 H 0.7767 0.7396 0.9257
C10_13 C 0.6738(5) 0.2304(5) 0.8672(3)
H10_13 H 0.6237 0.2397 0.8473
C11_9 C 0.7632(7) 0.1705(8) 0.9148(8)
H11_9 H 0.7941 0.1294 0.9342
C12_9 C 0.7738(7) 0.2485(8) 0.9218(8)
H12_11 H 0.8145 0.2726 0.9467
N5_7 N 0.7326(3) 0.4405(3) 0.9787(2)
N1_12 N 0.7334(3) 0.5383(3) 0.3279(2)
N2_8 N 0.6905(3) 0.5174(3) 0.2287(2)
N4_14 N 0.7838(4) 0.7094(5) 0.3871(4)
C1_8 C 0.6859(4) 0.4443(4) 0.2603(3)
C2_10 C 0.6595(5) 0.3682(5) 0.2414(4)
H1_10 H 0.6409 0.3601 0.1999
C3_8 C 0.6608(5) 0.3035(5) 0.2839(4)
C4_8 C 0.6905(6) 0.3162(6) 0.3439(4)
C5_8 C 0.7162(6) 0.3917(6) 0.3637(4)
H2_8 H 0.7355 0.3997 0.4050
C6_8 C 0.7128(4) 0.4562(4) 0.3209(3)
C7_12 C 0.7190(4) 0.5692(4) 0.2710(3)
H3_12 H 0.7285 0.6242 0.2615
C8_7 C 0.6304(6) 0.2224(5) 0.2638(6)
H4_7 H 0.5908 0.2291 0.2303
H5_7 H 0.6755 0.1899 0.2486
H6_7 H 0.6051 0.1953 0.2994
C9_7 C 0.6928(8) 0.2456(6) 0.3883(5)
H7_7 H 0.6378 0.2309 0.4002
H8_7 H 0.7188 0.1998 0.3678
H9_8 H 0.7233 0.2604 0.4257
C10_14 C 0.8262(5) 0.7696(5) 0.3672(3)
H10_14 H 0.8763 0.7603 0.3473
C11_10 C 0.7368(7) 0.8295(8) 0.4148(8)
H11_10 H 0.7059 0.8706 0.4342
C12_10 C 0.7262(7) 0.7515(8) 0.4218(8)
H12_12 H 0.6855 0.7274 0.4467
N5_8 N 0.7674(3) 0.5595(3) 0.4787(2)
C10_15 C 0.0196(5) 0.4238(5) 0.6172(3)
H10_15 H 0.0103 0.3737 0.5973
C11_11 C 0.0795(8) 0.5132(7) 0.6648(8)
H11_11 H 0.1206 0.5441 0.6842
C12_11 C 0.0015(8) 0.5238(7) 0.6718(8)
N1_13 N 0.7883(3) 0.5166(3) 0.5779(2)
N4_15 N 0.9594(5) 0.4662(4) 0.6371(4)
C1_9 C 0.6943(4) 0.5641(4) 0.5103(3)
C2_11 C 0.6182(5) 0.5905(5) 0.4914(4)
H1_11 H 0.6101 0.6091 0.4499
C3_9 C 0.5535(5) 0.5892(5) 0.5339(4)
C4_9 C 0.5662(6) 0.5595(6) 0.5939(4)
C5_9 C 0.6417(6) 0.5338(6) 0.6137(4)
H2_9 H 0.6497 0.5145 0.6550
C6_9 C 0.7062(4) 0.5372(4) 0.5709(3)
C7_13 C 0.8192(4) 0.5310(4) 0.5210(3)
H3_13 H 0.8742 0.5215 0.5115
C8_8 C 0.4724(5) 0.6196(6) 0.5138(6)
H4_8 H 0.4791 0.6592 0.4803
H5_8 H 0.4399 0.5745 0.4986
H6_8 H 0.4453 0.6449 0.5494
C9_8 C 0.4956(6) 0.5572(8) 0.6383(5)
H7_8 H 0.4809 0.6122 0.6502
H8_8 H 0.4498 0.5312 0.6178
H9_9 H 0.5104 0.5267 0.6757
H12_13 H 0.9774 0.5645 0.6967
N1_14 N 0.7117(3) 0.4834(3) 0.0779(2)
N4_16 N 0.5406(5) 0.5338(4) 0.1371(4)
C1_10 C 0.8057(4) 0.4359(4) 0.0103(3)
C3_10 C 0.9465(5) 0.4108(5) 0.0339(4)
C4_10 C 0.9338(6) 0.4405(6) 0.0939(4)
C5_10 C 0.8583(6) 0.4662(6) 0.1137(4)
H2_10 H 0.8503 0.4855 0.1550
C6_10 C 0.7938(4) 0.4628(4) 0.0709(3)
C7_14 C 0.6808(4) 0.4690(4) 0.0210(3)
H3_14 H 0.6258 0.4785 0.0115
H9_10 H 0.9896 0.4733 0.1757
C10_16 C 0.4804(5) 0.5762(5) 0.1172(3)
H10_16 H 0.4897 0.6263 0.0973
C11_12 C 0.4205(8) 0.4868(7) 0.1648(8)
H11_12 H 0.3794 0.4559 0.1842
C12_12 C 0.4985(8) 0.4762(7) 0.1718(8)
H12_14 H 0.5226 0.4355 0.1967
C2_12 C 0.8818(5) 0.4095(5) 0.9914(4)
H1_12 H 0.8899 0.3909 0.9499
C1_11 C 0.6859(4) 0.9443(4) 0.7397(3)
C2_13 C 0.6595(5) 0.8682(5) 0.7586(4)
H1_13 H 0.6409 0.8601 0.8001
C3_11 C 0.6608(5) 0.8035(5) 0.7161(4)
C4_11 C 0.6905(6) 0.8162(6) 0.6561(4)
C5_11 C 0.7162(6) 0.8917(6) 0.6363(4)
H2_11 H 0.7355 0.8997 0.5950
C6_11 C 0.7128(4) 0.9562(4) 0.6791(3)
C8_9 C 0.6304(6) 0.7224(5) 0.7362(6)
H4_9 H 0.5908 0.7291 0.7697
H5_9 H 0.6755 0.6899 0.7514
H6_9 H 0.6051 0.6953 0.7006
C9_9 C 0.6928(8) 0.7456(6) 0.6117(5)
H7_9 H 0.6378 0.7309 0.5998
H8_9 H 0.7188 0.6998 0.6322
H9_11 H 0.7233 0.7604 0.5743
C1_12 C 0.8141(4) 0.0557(4) 0.2397(3)
C2_14 C 0.8405(5) 0.1318(5) 0.2586(4)
H1_14 H 0.8591 0.1399 0.3001
C3_12 C 0.8392(5) 0.1965(5) 0.2161(4)
C4_12 C 0.8095(6) 0.1838(6) 0.1561(4)
C5_12 C 0.7838(6) 0.1083(6) 0.1363(4)
H2_12 H 0.7645 0.1003 0.0950
C6_12 C 0.7872(4) 0.0438(4) 0.1791(3)
C8_10 C 0.8696(6) 0.2776(5) 0.2362(6)
H4_10 H 0.9092 0.2709 0.2697
H5_10 H 0.8245 0.3101 0.2514
H6_10 H 0.8949 0.3047 0.2006
C9_10 C 0.8072(8) 0.2544(6) 0.1117(5)
H7_10 H 0.8622 0.2691 0.0998
H8_10 H 0.7812 0.3002 0.1322
H9_12 H 0.7767 0.2396 0.0743
H4_11 H 0.0209 0.8408 0.0197
H5_11 H 0.0601 0.9255 0.0014
C8_11 C 0.0276(5) 0.8804(6) 0.9862(6)
H6_11 H 0.0547 0.8551 0.9506
C9_11 C 0.0044(6) 0.9428(8) 0.8617(5)
H7_11 H 0.0191 0.8878 0.8498
H8_11 H 0.0502 0.9688 0.8822
N1_15 N 0.7117(3) 0.9834(3) 0.9221(2)
C1_13 C 0.8057(4) 0.9359(4) 0.9897(3)
C3_13 C 0.9465(5) 0.9108(5) 0.9661(4)
C4_13 C 0.9338(6) 0.9405(6) 0.9061(4)
C5_13 C 0.8583(6) 0.9662(6) 0.8863(4)
H2_13 H 0.8503 0.9855 0.8450
C6_13 C 0.7938(4) 0.9628(4) 0.9291(3)
C7_15 C 0.6808(4) 0.9690(4) 0.9790(3)
H3_15 H 0.6258 0.9785 0.9885
H9_13 H 0.9896 0.9733 0.8243
C11_13 C 0.4205(8) 0.9868(7) 0.8352(8)
H11_13 H 0.3794 0.9559 0.8158
C12_13 C 0.4985(8) 0.9762(7) 0.8282(8)
H12_15 H 0.5226 0.9355 0.8033
C11_14 C 0.0795(8) 0.0132(7) 0.3352(8)
H11_14 H 0.1206 0.0441 0.3158
C12_14 C 0.0015(8) 0.0238(7) 0.3282(8)
H4_12 H 0.9791 0.6592 0.0197
H5_12 H 0.9399 0.5745 0.0014
C8_12 C 0.9724(5) 0.6196(6) 0.9862(6)
H6_12 H 0.9453 0.6449 0.9506
C9_12 C 0.9956(6) 0.5572(8) 0.8617(5)
H7_12 H 0.9809 0.6122 0.8498
H8_12 H 0.9498 0.5312 0.8822
C1_14 C 0.3141(4) 0.0557(4) 0.2603(3)
C2_15 C 0.3405(5) 0.1318(5) 0.2414(4)
H1_15 H 0.3591 0.1399 0.1999
C3_14 C 0.3392(5) 0.1965(5) 0.2839(4)
C4_14 C 0.3095(6) 0.1838(6) 0.3439(4)
C5_14 C 0.2838(6) 0.1083(6) 0.3637(4)
H2_14 H 0.2645 0.1003 0.4050
C6_14 C 0.2872(4) 0.0438(4) 0.3209(3)
C8_13 C 0.3696(6) 0.2776(5) 0.2638(6)
H4_13 H 0.4092 0.2709 0.2303
H5_13 H 0.3245 0.3101 0.2486
H6_13 H 0.3949 0.3047 0.2994
C9_13 C 0.3072(8) 0.2544(6) 0.3883(5)
H7_13 H 0.3622 0.2691 0.4002
H8_13 H 0.2812 0.3002 0.3678
H9_14 H 0.2767 0.2396 0.4257
C1_15 C 0.1859(4) 0.9443(4) 0.7603(3)
C2_16 C 0.1595(5) 0.8682(5) 0.7414(4)
H1_16 H 0.1409 0.8601 0.6999
C3_15 C 0.1608(5) 0.8035(5) 0.7839(4)
C4_15 C 0.1905(6) 0.8162(6) 0.8439(4)
C5_15 C 0.2162(6) 0.8917(6) 0.8637(4)
H2_15 H 0.2355 0.8997 0.9050
C6_15 C 0.2128(4) 0.9562(4) 0.8209(3)
C8_14 C 0.1304(6) 0.7224(5) 0.7638(6)
H4_14 H 0.0908 0.7291 0.7303
H5_14 H 0.1755 0.6899 0.7486
H6_14 H 0.1051 0.6953 0.7994
C9_14 C 0.1928(8) 0.7456(6) 0.8883(5)
H7_14 H 0.1378 0.7309 0.9002
H8_14 H 0.2188 0.6998 0.8678
H9_15 H 0.2233 0.7604 0.9257
N1_16 N 0.2883(3) 0.0166(3) 0.0779(2)
C1_16 C 0.1943(4) 0.0641(4) 0.0103(3)
C3_16 C 0.0535(5) 0.0892(5) 0.0339(4)
C4_16 C 0.0662(6) 0.0595(6) 0.0939(4)
C5_16 C 0.1417(6) 0.0338(6) 0.1137(4)
H2_16 H 0.1497 0.0145 0.1550
C6_16 C 0.2062(4) 0.0372(4) 0.0709(3)
C7_16 C 0.3192(4) 0.0310(4) 0.0210(3)
H3_16 H 0.3742 0.0215 0.0115
H9_16 H 0.0104 0.0267 0.1757
C11_15 C 0.5795(8) 0.0132(7) 0.1648(8)
H11_15 H 0.6206 0.0441 0.1842
C12_15 C 0.5015(8) 0.0238(7) 0.1718(8)
H12_16 H 0.4774 0.0645 0.1967
C8_15 C 0.9724(5) 0.1196(6) 0.0138(6)
H6_15 H 0.9453 0.1449 0.0494
C9_15 C 0.9956(6) 0.0572(8) 0.1383(5)
H7_15 H 0.9809 0.1122 0.1502
H8_15 H 0.9498 0.0312 0.1178
H4_15 H 0.9791 0.1592 0.9803
H5_15 H 0.9399 0.0745 0.9986
C11_16 C 0.9205(8) 0.9868(7) 0.6648(8)
H11_16 H 0.8794 0.9559 0.6842
C12_16 C 0.9985(8) 0.9762(7) 0.6718(8)
C8_16 C 0.0276(5) 0.3804(6) 0.0138(6)
H6_16 H 0.0547 0.3551 0.0494
C9_16 C 0.0044(6) 0.4428(8) 0.1383(5)
H7_16 H 0.0191 0.3878 0.1502
H8_16 H 0.0502 0.4688 0.1178
H4_16 H 0.0209 0.3408 0.9803
H5_16 H 0.0601 0.4255 0.9986
loop_
_geom_bond_atom_site_label_1
_geom_bond_atom_site_label_2
_geom_bond_site_symmetry_1
_geom_bond_site_symmetry_2
Co1 N1 1_555 1_555
N3 C10 1_555 1_555
N4 Co1 1_555 1_555
C7 N1 1_555 1_555
H3 C7 1_555 1_555
C10 N4 1_555 1_555
H10 C10 1_555 1_555
C11 N3 1_555 1_555
H11 C11 1_555 1_555
C12 N4 1_555 1_555
H12 C12 1_555 1_555
Co2 N2 1_555 1_555
Co3 N3 1_555 1_555
N5 Co1 1_555 1_555
N6 Co1 1_555 1_555
N2 C7 1_555 1_555
C11 C12 1_555 1_555
Co1_2 N1_2 1_555 1_555
N3_2 C10_2 1_555 1_555
N4_2 Co1_2 1_555 1_555
C7_2 N1_2 1_555 1_555
H3_2 C7_2 1_555 1_555
C10_2 N4_2 1_555 1_555
H10_2 C10_2 1_555 1_555
C11_2 N3_2 1_555 1_555
H11_2 C11_2 1_555 1_555
C12_2 N4_2 1_555 1_555
H12_2 C12_2 1_555 1_555
Co2_2 N2_2 1_555 1_555
Co3_2 N3_2 1_555 1_555
N5_2 Co1_2 1_555 1_555
N6_2 Co1_2 1_555 1_555
N2_2 C7_2 1_555 1_555
C11_2 C12_2 1_555 1_555
N3_3 C10_3 1_555 1_555
N4_3 Co2 1_555 1_555
C10_3 N4_3 1_555 1_555
H10_3 C10_3 1_555 1_555
Co3_3 N3_3 1_555 1_555
N6_3 Co2 1_555 1_555
C2 H1 1_555 1_555
N3_4 C10_4 1_555 1_555
H10_4 C10_4 1_555 1_555
Co3_4 N3_4 1_555 1_555
N1_3 C6 1_555 1_555
N5 C1 1_555 1_555
C1 C2_2 1_555 1_555
C2_2 H1_2 1_555 1_555
C3 C2_2 1_555 1_555
C4 C3 1_555 1_555
C5 C4 1_555 1_555
H2 C5 1_555 1_555
C6 C1 1_555 1_555
C7_3 N1_3 1_555 1_555
H3_3 C7_3 1_555 1_555
C8 C3 1_555 1_555
H4 C8 1_555 1_555
H5 C8 1_555 1_555
H6 C8 1_555 1_555
C9 C4 1_555 1_555
H7 C9 1_555 1_555
H8 C9 1_555 1_555
H9 C9 1_555 1_555
N5 C7_3 1_555 1_555
C5 C6 1_555 1_555
N4_4 Co2_2 1_555 1_555
N6_4 Co2_2 1_555 1_555
Co1_3 N1_4 1_555 1_555
N1_4 C6_2 1_555 1_555
N2_3 C1_2 1_555 1_555
N3_5 C10_5 1_555 1_555
N4_5 Co1_3 1_555 1_555
C1_2 C2_3 1_555 1_555
C2_3 H1_3 1_555 1_555
C3_2 C2_3 1_555 1_555
C4_2 C3_2 1_555 1_555
C5_2 C4_2 1_555 1_555
H2_2 C5_2 1_555 1_555
C6_2 C1_2 1_555 1_555
C7_4 N1_4 1_555 1_555
H3_4 C7_4 1_555 1_555
C8_2 C3_2 1_555 1_555
H4_2 C8_2 1_555 1_555
H5_2 C8_2 1_555 1_555
H6_2 C8_2 1_555 1_555
C9_2 C4_2 1_555 1_555
H7_2 C9_2 1_555 1_555
H8_2 C9_2 1_555 1_555
H9_2 C9_2 1_555 1_555
C10_5 N4_5 1_555 1_555
H10_5 C10_5 1_555 1_555
C11_3 N3_5 1_555 1_555
H11_3 C11_3 1_555 1_555
C12_3 N4_5 1_555 1_555
H12_4 C12_3 1_555 1_555
Co2_3 N2_3 1_555 1_555
Co3_5 N3_5 1_555 1_555
N5_3 Co1_3 1_555 1_555
N6_5 Co1_3 1_555 1_555
N2_3 C7_4 1_555 1_555
C5_2 C6_2 1_555 1_555
C11_3 C12_3 1_555 1_555
Co1_4 N1_5 1_555 1_555
N1_5 C6_3 1_555 1_555
N2_4 C1_3 1_555 1_555
N3_6 C10_6 1_555 1_555
N4_6 Co1_4 1_555 1_555
C1_3 C2_4 1_555 1_555
C2_4 H1_4 1_555 1_555
C3_3 C2_4 1_555 1_555
C4_3 C3_3 1_555 1_555
C5_3 C4_3 1_555 1_555
H2_3 C5_3 1_555 1_555
C6_3 C1_3 1_555 1_555
C7_5 N1_5 1_555 1_555
H3_5 C7_5 1_555 1_555
C8_3 C3_3 1_555 1_555
H4_3 C8_3 1_555 1_555
H5_3 C8_3 1_555 1_555
H6_3 C8_3 1_555 1_555
C9_3 C4_3 1_555 1_555
H7_3 C9_3 1_555 1_555
H8_3 C9_3 1_555 1_555
H9_3 C9_3 1_555 1_555
C10_6 N4_6 1_555 1_555
H10_6 C10_6 1_555 1_555
C11_4 N3_6 1_555 1_555
H11_4 C11_4 1_555 1_555
C12_4 N4_6 1_555 1_555
H12_5 C12_4 1_555 1_555
Co2_4 N2_4 1_555 1_555
Co3_6 N3_6 1_555 1_555
N5_4 Co1_4 1_555 1_555
N6_6 Co1_4 1_555 1_555
N2_4 C7_5 1_555 1_555
C5_3 C6_3 1_555 1_555
C11_4 C12_4 1_555 1_555
Co2_3 N1_6 1_555 1_555
N1_6 C6_4 1_555 1_555
N5_4 C1_4 1_555 1_555
N4_7 Co2_3 1_555 1_555
C1_4 C2_5 1_555 1_555
C2_5 H1_5 1_555 1_555
C3_4 C2_5 1_555 1_555
C4_4 C3_4 1_555 1_555
C5_4 C4_4 1_555 1_555
H2_4 C5_4 1_555 1_555
C6_4 C1_4 1_555 1_555
C7_6 N1_6 1_555 1_555
H3_6 C7_6 1_555 1_555
C8_4 C3_4 1_555 1_555
H4_4 C8_4 1_555 1_555
H5_4 C8_4 1_555 1_555
H6_4 C8_4 1_555 1_555
C9_4 C4_4 1_555 1_555
H7_4 C9_4 1_555 1_555
H8_4 C9_4 1_555 1_555
H9_4 C9_4 1_555 1_555
N6_7 Co2_3 1_555 1_555
N5_4 C7_6 1_555 1_555
C5_4 C6_4 1_555 1_555
N3_7 C10_7 1_555 1_555
H10_7 C10_7 1_555 1_555
C11_5 N3_7 1_555 1_555
H11_5 C11_5 1_555 1_555
Co3_7 N3_7 1_555 1_555
C11_5 C12_5 1_555 1_555
C2_6 H1_6 1_555 1_555
Co2_4 N1_7 1_555 1_555
N1_7 C6_5 1_555 1_555
N3_8 C10_8 1_555 1_555
N4_8 Co2_4 1_555 1_555
C4_5 C3_5 1_555 1_555
C5_5 C4_5 1_555 1_555
H2_5 C5_5 1_555 1_555
C6_5 C1_5 1_555 1_555
C7_7 N1_7 1_555 1_555
H3_7 C7_7 1_555 1_555
C10_8 N4_8 1_555 1_555
H10_8 C10_8 1_555 1_555
C11_6 N3_8 1_555 1_555
H11_6 C11_6 1_555 1_555
C12_6 N4_8 1_555 1_555
H12_7 C12_6 1_555 1_555
Co3_8 N3_8 1_555 1_555
N6_8 Co2_4 1_555 1_555
C5_5 C6_5 1_555 1_555
C11_6 C12_6 1_555 1_555
Co3_4 N1_8 1_555 1_555
N6_7 C10_9 1_555 1_555
N4_9 Co3_4 1_555 1_555
C7_8 N1_8 1_555 1_555
H3_8 C7_8 1_555 1_555
C10_9 N4_9 1_555 1_555
H10_9 C10_9 1_555 1_555
C11_7 N6_7 1_555 1_555
H11_7 C11_7 1_555 1_555
C12_7 N4_9 1_555 1_555
H12_8 C12_7 1_555 1_555
Co3_5 N2_5 1_555 1_555
N5_5 Co3_4 1_555 1_555
N2_5 C7_8 1_555 1_555
C11_7 C12_7 1_555 1_555
Co3_3 N1_9 1_555 1_555
N6_8 C10_10 1_555 1_555
N4_10 Co3_3 1_555 1_555
C7_9 N1_9 1_555 1_555
H3_9 C7_9 1_555 1_555
C10_10 N4_10 1_555 1_555
H10_10 C10_10 1_555 1_555
C11_8 N6_8 1_555 1_555
H11_8 C11_8 1_555 1_555
C12_8 N4_10 1_555 1_555
H12_9 C12_8 1_555 1_555
Co3_6 N2_6 1_555 1_555
N5_6 Co3_3 1_555 1_555
N2_6 C7_9 1_555 1_555
C11_8 C12_8 1_555 1_555
C2_7 H1_7 1_555 1_555
N6_2 C10_11 1_555 1_555
N4_11 Co3_5 1_555 1_555
C10_11 N4_11 1_555 1_555
H10_11 C10_11 1_555 1_555
N4_12 Co3_6 1_555 1_555
N1_10 C6_6 1_555 1_555
N5_5 C1_6 1_555 1_555
C1_6 C2_8 1_555 1_555
C2_8 H1_8 1_555 1_555
C3_6 C2_8 1_555 1_555
C4_6 C3_6 1_555 1_555
C5_6 C4_6 1_555 1_555
H2_6 C5_6 1_555 1_555
C6_6 C1_6 1_555 1_555
C7_10 N1_10 1_555 1_555
H3_10 C7_10 1_555 1_555
C8_5 C3_6 1_555 1_555
H4_5 C8_5 1_555 1_555
H5_5 C8_5 1_555 1_555
H6_5 C8_5 1_555 1_555
C9_5 C4_6 1_555 1_555
H7_5 C9_5 1_555 1_555
H8_5 C9_5 1_555 1_555
H9_6 C9_5 1_555 1_555
N5_5 C7_10 1_555 1_555
C5_6 C6_6 1_555 1_555
N6 C10_12 1_555 1_555
H10_12 C10_12 1_555 1_555
Co3_8 N1_11 1_555 1_555
N1_11 C6_7 1_555 1_555
N2_7 C1_7 1_555 1_555
N6_3 C10_13 1_555 1_555
N4_13 Co3_8 1_555 1_555
C1_7 C2_9 1_555 1_555
C2_9 H1_9 1_555 1_555
C3_7 C2_9 1_555 1_555
C4_7 C3_7 1_555 1_555
C5_7 C4_7 1_555 1_555
H2_7 C5_7 1_555 1_555
C6_7 C1_7 1_555 1_555
C7_11 N1_11 1_555 1_555
H3_11 C7_11 1_555 1_555
C8_6 C3_7 1_555 1_555
H4_6 C8_6 1_555 1_555
H5_6 C8_6 1_555 1_555
H6_6 C8_6 1_555 1_555
C9_6 C4_7 1_555 1_555
H7_6 C9_6 1_555 1_555
H8_6 C9_6 1_555 1_555
H9_7 C9_6 1_555 1_555
C10_13 N4_13 1_555 1_555
H10_13 C10_13 1_555 1_555
C11_9 N6_3 1_555 1_555
H11_9 C11_9 1_555 1_555
C12_9 N4_13 1_555 1_555
H12_11 C12_9 1_555 1_555
Co3 N2_7 1_555 1_555
N5_7 Co3_8 1_555 1_555
N2_7 C7_11 1_555 1_555
C5_7 C6_7 1_555 1_555
C11_9 C12_9 1_555 1_555
Co3_7 N1_12 1_555 1_555
N1_12 C6_8 1_555 1_555
N2_8 C1_8 1_555 1_555
N6_4 C10_14 1_555 1_555
N4_14 Co3_7 1_555 1_555
C1_8 C2_10 1_555 1_555
C2_10 H1_10 1_555 1_555
C3_8 C2_10 1_555 1_555
C4_8 C3_8 1_555 1_555
C5_8 C4_8 1_555 1_555
H2_8 C5_8 1_555 1_555
C6_8 C1_8 1_555 1_555
C7_12 N1_12 1_555 1_555
H3_12 C7_12 1_555 1_555
C8_7 C3_8 1_555 1_555
H4_7 C8_7 1_555 1_555
H5_7 C8_7 1_555 1_555
H6_7 C8_7 1_555 1_555
C9_7 C4_8 1_555 1_555
H7_7 C9_7 1_555 1_555
H8_7 C9_7 1_555 1_555
H9_8 C9_7 1_555 1_555
C10_14 N4_14 1_555 1_555
H10_14 C10_14 1_555 1_555
C11_10 N6_4 1_555 1_555
H11_10 C11_10 1_555 1_555
C12_10 N4_14 1_555 1_555
H12_12 C12_10 1_555 1_555
Co3_2 N2_8 1_555 1_555
N5_8 Co3_7 1_555 1_555
N2_8 C7_12 1_555 1_555
C5_8 C6_8 1_555 1_555
C11_10 C12_10 1_555 1_555
N6_6 C10_15 1_555 1_555
H10_15 C10_15 1_555 1_555
C11_11 N6_6 1_555 1_555
H11_11 C11_11 1_555 1_555
C11_11 C12_11 1_555 1_555
Co3 N1_13 1_555 1_555
N1_13 C6_9 1_555 1_555
N5_8 C1_9 1_555 1_555
N4_15 Co3 1_555 1_555
C1_9 C2_11 1_555 1_555
C2_11 H1_11 1_555 1_555
C3_9 C2_11 1_555 1_555
C4_9 C3_9 1_555 1_555
C5_9 C4_9 1_555 1_555
H2_9 C5_9 1_555 1_555
C6_9 C1_9 1_555 1_555
C7_13 N1_13 1_555 1_555
H3_13 C7_13 1_555 1_555
C8_8 C3_9 1_555 1_555
H4_8 C8_8 1_555 1_555
H5_8 C8_8 1_555 1_555
H6_8 C8_8 1_555 1_555
C9_8 C4_9 1_555 1_555
H7_8 C9_8 1_555 1_555
H8_8 C9_8 1_555 1_555
H9_9 C9_8 1_555 1_555
N5_8 C7_13 1_555 1_555
C5_9 C6_9 1_555 1_555
Co3_2 N1_14 1_555 1_555
N1_14 C6_10 1_555 1_555
N6_5 C10_16 1_555 1_555
N4_16 Co3_2 1_555 1_555
C4_10 C3_10 1_555 1_555
C5_10 C4_10 1_555 1_555
H2_10 C5_10 1_555 1_555
C6_10 C1_10 1_555 1_555
C7_14 N1_14 1_555 1_555
H3_14 C7_14 1_555 1_555
C10_16 N4_16 1_555 1_555
H10_16 C10_16 1_555 1_555
C11_12 N6_5 1_555 1_555
H11_12 C11_12 1_555 1_555
C12_12 N4_16 1_555 1_555
H12_14 C12_12 1_555 1_555
C5_10 C6_10 1_555 1_555
C11_12 C12_12 1_555 1_555
C2_12 H1_12 1_555 1_555
C1_11 C2_13 1_555 1_555
C2_13 H1_13 1_555 1_555
C3_11 C2_13 1_555 1_555
C4_11 C3_11 1_555 1_555
C5_11 C4_11 1_555 1_555
H2_11 C5_11 1_555 1_555
C6_11 C1_11 1_555 1_555
C8_9 C3_11 1_555 1_555
H4_9 C8_9 1_555 1_555
H5_9 C8_9 1_555 1_555
H6_9 C8_9 1_555 1_555
C9_9 C4_11 1_555 1_555
H7_9 C9_9 1_555 1_555
H8_9 C9_9 1_555 1_555
H9_11 C9_9 1_555 1_555
C5_11 C6_11 1_555 1_555
C1_12 C2_14 1_555 1_555
C2_14 H1_14 1_555 1_555
C3_12 C2_14 1_555 1_555
C4_12 C3_12 1_555 1_555
C5_12 C4_12 1_555 1_555
H2_12 C5_12 1_555 1_555
C6_12 C1_12 1_555 1_555
C8_10 C3_12 1_555 1_555
H4_10 C8_10 1_555 1_555
H5_10 C8_10 1_555 1_555
H6_10 C8_10 1_555 1_555
C9_10 C4_12 1_555 1_555
H7_10 C9_10 1_555 1_555
H8_10 C9_10 1_555 1_555
H9_12 C9_10 1_555 1_555
C5_12 C6_12 1_555 1_555
H6_11 C8_11 1_555 1_555
H7_11 C9_11 1_555 1_555
H8_11 C9_11 1_555 1_555
N1_15 C6_13 1_555 1_555
C4_13 C3_13 1_555 1_555
C5_13 C4_13 1_555 1_555
H2_13 C5_13 1_555 1_555
C6_13 C1_13 1_555 1_555
C7_15 N1_15 1_555 1_555
H3_15 C7_15 1_555 1_555
H11_13 C11_13 1_555 1_555
H12_15 C12_13 1_555 1_555
C5_13 C6_13 1_555 1_555
C11_13 C12_13 1_555 1_555
H11_14 C11_14 1_555 1_555
C11_14 C12_14 1_555 1_555
H6_12 C8_12 1_555 1_555
H7_12 C9_12 1_555 1_555
H8_12 C9_12 1_555 1_555
C1_14 C2_15 1_555 1_555
C2_15 H1_15 1_555 1_555
C3_14 C2_15 1_555 1_555
C4_14 C3_14 1_555 1_555
C5_14 C4_14 1_555 1_555
H2_14 C5_14 1_555 1_555
C6_14 C1_14 1_555 1_555
C8_13 C3_14 1_555 1_555
H4_13 C8_13 1_555 1_555
H5_13 C8_13 1_555 1_555
H6_13 C8_13 1_555 1_555
C9_13 C4_14 1_555 1_555
H7_13 C9_13 1_555 1_555
H8_13 C9_13 1_555 1_555
H9_14 C9_13 1_555 1_555
C5_14 C6_14 1_555 1_555
C1_15 C2_16 1_555 1_555
C2_16 H1_16 1_555 1_555
C3_15 C2_16 1_555 1_555
C4_15 C3_15 1_555 1_555
C5_15 C4_15 1_555 1_555
H2_15 C5_15 1_555 1_555
C6_15 C1_15 1_555 1_555
C8_14 C3_15 1_555 1_555
H4_14 C8_14 1_555 1_555
H5_14 C8_14 1_555 1_555
H6_14 C8_14 1_555 1_555
C9_14 C4_15 1_555 1_555
H7_14 C9_14 1_555 1_555
H8_14 C9_14 1_555 1_555
H9_15 C9_14 1_555 1_555
C5_15 C6_15 1_555 1_555
N1_16 C6_16 1_555 1_555
C4_16 C3_16 1_555 1_555
C5_16 C4_16 1_555 1_555
H2_16 C5_16 1_555 1_555
C6_16 C1_16 1_555 1_555
C7_16 N1_16 1_555 1_555
H3_16 C7_16 1_555 1_555
H11_15 C11_15 1_555 1_555
H12_16 C12_15 1_555 1_555
C5_16 C6_16 1_555 1_555
C11_15 C12_15 1_555 1_555
H6_15 C8_15 1_555 1_555
H7_15 C9_15 1_555 1_555
H8_15 C9_15 1_555 1_555
H11_16 C11_16 1_555 1_555
C11_16 C12_16 1_555 1_555
H6_16 C8_16 1_555 1_555
H7_16 C9_16 1_555 1_555
H8_16 C9_16 1_555 1_555

#END
