
###############################################################################
#
# This file contains modified crystal structure data generated from the
# MOF subset of the Cambridge Structural Database (CSD) v543 
# hosted by the Cambridge Crystallographic Data Centre (CCDC).
#
# This work is licensed under the Creative Commons
# Attribution-NonCommercial-ShareAlike 4.0 International License.
# To view a copy of this license, visit
# http://creativecommons.org/licenses/by-nc-sa/4.0/
# or send a letter to
# Creative Commons, PO Box 1866, Mountain View, CA 94042, USA.
#
# CIF created using the CSD Python API on 29 September 2022
# The structure has been converted into the P1 space group
# The structure has a 3D framework
# The original CSD entry QOSYIH is in the tetragonal crystal system
# The framework has been calculated to contain at least 10.0% void space
# The void calculation uses a probe of radius 1.32A, grid spacing 0.4
#
###############################################################################

data_QOSYIH
_chemical_formula_moiety         '(C192 H192 N64 Zn16)n'
_symmetry_cell_setting           triclinic
_symmetry_space_group_name_H-M   'P 1'
_symmetry_Int_Tables_number      1
_space_group_name_Hall           'P 1'
loop_
_symmetry_equiv_pos_site_id
_symmetry_equiv_pos_as_xyz
1 x,y,z
_cell_length_a                   16.7862(2)
_cell_length_b                   16.7862(2)
_cell_length_c                   21.3384(5)
_cell_angle_alpha                90
_cell_angle_beta                 90
_cell_angle_gamma                90
_cell_volume                     6012.66
loop_
_atom_site_label
_atom_site_type_symbol
_atom_site_fract_x
_atom_site_fract_y
_atom_site_fract_z
Zn1 Zn 0.19883(9) 0.40812(9) 0.10773(7)
N1 N 0.2289(6) 0.4425(6) 0.0228(5)
N3 N 0.2117(8) 0.2905(7) 0.1103(6)
C4 C 0.1709(8) 0.2308(8) 0.1338(6)
H3 H 0.1241 0.2395 0.1579
N4 N 0.1965(8) 0.1607(7) 0.1233(6)
C6 C 0.3774(13) 0.4133(14) 0.0137(10)
H4 H 0.3838 0.3978 0.0563
C8 C 0.2585(17) 0.1691(16) 0.0841(19)
H5 H 0.2907 0.1279 0.0670
H9 H 0.5248 0.3663 0.0340
C12 C 0.2662(16) 0.2532(14) 0.0735(15)
H12 H 0.3027 0.2782 0.0457
Zn3 Zn 0.15812(9) 0.05117(9) 0.14227(7)
N5 N 0.2637(7) 0.4593(7) 0.1735(5)
N6 N 0.0893(7) 0.4465(8) 0.1267(6)
C1 C 0.1798(8) 0.4724(8) 0.9805(6)
H1 H 0.1257 0.4836 0.9903
N2 N 0.2093(7) 0.4863(7) 0.9235(5)
C2 C 0.3001(9) 0.4366(9) 0.9902(7)
C3 C 0.3545(13) 0.4628(13) 0.8876(10)
H2 H 0.3453 0.4788 0.8455
C5 C 0.2884(10) 0.4608(10) 0.9294(7)
C7 C 0.4442(16) 0.4137(17) 0.9718(12)
C9 C 0.4988(17) 0.4333(15) 0.8609(12)
H6 H 0.5029 0.3774 0.8481
H7 H 0.5483 0.4496 0.8816
H8 H 0.4899 0.4666 0.8238
C10 C 0.5252(18) 0.3822(11) 0.9898(12)
H10 H 0.5654 0.4238 0.9834
H11 H 0.5382 0.3359 0.9637
C11 C 0.4312(15) 0.4428(13) 0.9049(12)
Zn2 Zn 0.15812(9) 0.55117(9) 0.85773(7)
Zn1_2 Zn 0.30117(9) 0.59188(9) 0.60773(7)
C1_2 C 0.3202(8) 0.5276(8) 0.4805(6)
H1_2 H 0.3743 0.5164 0.4903
N1_2 N 0.2711(6) 0.5575(6) 0.5228(5)
N2_2 N 0.2907(7) 0.5137(7) 0.4235(5)
C2_2 C 0.1999(9) 0.5634(9) 0.4902(7)
N3_2 N 0.2883(8) 0.7095(7) 0.6103(6)
C3_2 C 0.1455(13) 0.5372(13) 0.3876(10)
H2_2 H 0.1547 0.5212 0.3455
C4_2 C 0.3291(8) 0.7692(8) 0.6338(6)
H3_2 H 0.3759 0.7605 0.6579
N4_2 N 0.3035(8) 0.8393(7) 0.6233(6)
C5_2 C 0.2116(10) 0.5392(10) 0.4294(7)
C6_2 C 0.1226(13) 0.5867(14) 0.5137(10)
H4_2 H 0.1162 0.6022 0.5563
C7_2 C 0.0558(16) 0.5863(17) 0.4718(12)
C8_2 C 0.2415(17) 0.8309(16) 0.5841(19)
H5_2 H 0.2093 0.8721 0.5670
C9_2 C 0.0012(17) 0.5667(15) 0.3609(12)
H8_2 H 0.0101 0.5334 0.3238
C11_2 C 0.0688(15) 0.5572(13) 0.4049(12)
C12_2 C 0.2338(16) 0.7468(14) 0.5735(15)
H12_2 H 0.1973 0.7218 0.5457
Zn2_2 Zn 0.34188(9) 0.44883(9) 0.35773(7)
Zn3_2 Zn 0.34188(9) 0.94883(9) 0.64227(7)
N5_2 N 0.2363(7) 0.5407(7) 0.6735(5)
N6_2 N 0.4107(7) 0.5535(8) 0.6267(6)
C1_3 C 0.2776(8) 0.4298(8) 0.2305(6)
H1_3 H 0.2664 0.3757 0.2403
N1_3 N 0.3075(6) 0.4789(6) 0.2728(5)
C2_3 C 0.3134(9) 0.5501(9) 0.2402(7)
N3_3 N 0.4595(7) 0.4617(8) 0.3603(6)
C3_3 C 0.2872(13) 0.6045(13) 0.1376(10)
H2_3 H 0.2712 0.5953 0.0955
C4_3 C 0.5192(8) 0.4209(8) 0.3838(6)
H3_3 H 0.5105 0.3741 0.4079
N4_3 N 0.5893(7) 0.4465(8) 0.3733(6)
C5_3 C 0.2892(10) 0.5384(10) 0.1794(7)
C6_3 C 0.3367(14) 0.6274(13) 0.2637(10)
H4_3 H 0.3522 0.6338 0.3063
C7_3 C 0.3363(17) 0.6942(16) 0.2218(12)
C8_3 C 0.5809(16) 0.5085(17) 0.3341(19)
H5_3 H 0.6221 0.5407 0.3170
C9_3 C 0.3167(15) 0.7488(17) 0.1109(12)
H6_2 H 0.3726 0.7529 0.0981
H7_2 H 0.3004 0.7983 0.1316
H8_3 H 0.2834 0.7399 0.0738
C10_2 C 0.3678(11) 0.7752(18) 0.2398(12)
H9_2 H 0.3837 0.7748 0.2840
H10_2 H 0.3262 0.8154 0.2334
H11_2 H 0.4141 0.7882 0.2137
C11_3 C 0.3072(13) 0.6812(15) 0.1549(12)
C12_3 C 0.4968(14) 0.5162(16) 0.3235(15)
H12_3 H 0.4718 0.5527 0.2957
Zn3_3 Zn 0.69883(9) 0.40812(9) 0.39227(7)
N6_3 N 0.3035(8) 0.3393(7) 0.3767(6)
C1_4 C 0.2224(8) 0.5702(8) 0.7305(6)
H1_4 H 0.2336 0.6243 0.7403
N1_4 N 0.1925(6) 0.5211(6) 0.7728(5)
C2_4 C 0.1866(9) 0.4499(9) 0.7402(7)
N3_4 N 0.0405(7) 0.5383(8) 0.8603(6)
C3_4 C 0.2128(13) 0.3955(13) 0.6376(10)
H2_4 H 0.2288 0.4047 0.5955
C5_4 C 0.2108(10) 0.4616(10) 0.6794(7)
C6_4 C 0.1633(14) 0.3726(13) 0.7637(10)
H4_4 H 0.1478 0.3662 0.8063
C7_4 C 0.1637(17) 0.3058(16) 0.7218(12)
C9_4 C 0.1833(15) 0.2512(17) 0.6109(12)
H6_3 H 0.1274 0.2471 0.5981
H7_3 H 0.1996 0.2017 0.6316
H8_4 H 0.2166 0.2601 0.5738
C10_3 C 0.1322(11) 0.2248(18) 0.7398(12)
H9_3 H 0.1163 0.2252 0.7840
H10_3 H 0.1738 0.1846 0.7334
H11_3 H 0.0859 0.2118 0.7137
C11_4 C 0.1928(13) 0.3188(15) 0.6549(12)
C12_4 C 0.0032(14) 0.4838(16) 0.8235(15)
H12_4 H 0.0282 0.4473 0.7957
N6_4 N 0.1965(8) 0.6607(7) 0.8767(6)
C4_4 C 0.9808(8) 0.5791(8) 0.8838(6)
H3_4 H 0.9895 0.6259 0.9079
N4_4 N 0.9107(7) 0.5535(8) 0.8733(6)
C8_4 C 0.9191(16) 0.4915(17) 0.8341(19)
H5_4 H 0.8779 0.4593 0.8170
Zn3_4 Zn 0.80117(9) 0.59188(9) 0.89227(7)
Zn2_3 Zn 0.65812(9) 0.05117(9) 0.35773(7)
Zn1_3 Zn 0.69883(9) 0.90812(9) 0.60773(7)
C1_5 C 0.6798(8) 0.9724(8) 0.4805(6)
H1_5 H 0.6257 0.9836 0.4903
N1_5 N 0.7289(6) 0.9425(6) 0.5228(5)
N2_3 N 0.7093(7) 0.9863(7) 0.4235(5)
C2_5 C 0.8001(9) 0.9366(9) 0.4902(7)
N3_5 N 0.7117(8) 0.7905(7) 0.6103(6)
C3_5 C 0.8545(13) 0.9628(13) 0.3876(10)
H2_5 H 0.8453 0.9788 0.3455
C4_5 C 0.6709(8) 0.7308(8) 0.6338(6)
H3_5 H 0.6241 0.7395 0.6579
N4_5 N 0.6965(8) 0.6607(7) 0.6233(6)
C5_5 C 0.7884(10) 0.9608(10) 0.4294(7)
C6_5 C 0.8774(13) 0.9133(14) 0.5137(10)
H4_5 H 0.8838 0.8978 0.5563
C7_5 C 0.9442(16) 0.9137(17) 0.4718(12)
C8_5 C 0.7585(17) 0.6691(16) 0.5841(19)
H5_5 H 0.7907 0.6279 0.5670
C9_5 C 0.9988(17) 0.9333(15) 0.3609(12)
H8_5 H 0.9899 0.9666 0.3238
C11_5 C 0.9312(15) 0.9428(13) 0.4049(12)
C12_5 C 0.7662(16) 0.7532(14) 0.5735(15)
H12_5 H 0.8027 0.7782 0.5457
Zn3_5 Zn 0.65812(9) 0.55117(9) 0.64227(7)
N5_3 N 0.7637(7) 0.9593(7) 0.6735(5)
N6_5 N 0.5893(7) 0.9465(8) 0.6267(6)
Zn1_4 Zn 0.80117(9) 0.09188(9) 0.10773(7)
N1_6 N 0.7711(6) 0.0575(6) 0.0228(5)
N3_6 N 0.7883(8) 0.2095(7) 0.1103(6)
C4_6 C 0.8291(8) 0.2692(8) 0.1338(6)
H3_6 H 0.8759 0.2605 0.1579
N4_6 N 0.8035(8) 0.3393(7) 0.1233(6)
C6_6 C 0.6226(13) 0.0867(14) 0.0137(10)
H4_6 H 0.6162 0.1022 0.0563
C8_6 C 0.7415(17) 0.3309(16) 0.0841(19)
H5_6 H 0.7093 0.3721 0.0670
H9_4 H 0.4752 0.1337 0.0340
C12_6 C 0.7338(16) 0.2468(14) 0.0735(15)
H12_6 H 0.6973 0.2218 0.0457
Zn3_6 Zn 0.84188(9) 0.44883(9) 0.14227(7)
N5_4 N 0.7363(7) 0.0407(7) 0.1735(5)
N6_6 N 0.9107(7) 0.0535(8) 0.1267(6)
Zn2_4 Zn 0.84188(9) 0.94883(9) 0.85773(7)
C4_7 C 0.0192(8) 0.9209(8) 0.8838(6)
H3_7 H 0.0105 0.8741 0.9079
N4_7 N 0.0893(7) 0.9465(8) 0.8733(6)
Zn3_7 Zn 0.19883(9) 0.90812(9) 0.89227(7)
C1_6 C 0.7776(8) 0.9298(8) 0.7305(6)
H1_6 H 0.7664 0.8757 0.7403
N1_7 N 0.8075(6) 0.9789(6) 0.7728(5)
N3_7 N 0.9595(7) 0.9617(8) 0.8603(6)
N6_7 N 0.8035(8) 0.8393(7) 0.8767(6)
C1_7 C 0.7224(8) 0.0702(8) 0.2305(6)
H1_7 H 0.7336 0.1243 0.2403
N1_8 N 0.6925(6) 0.0211(6) 0.2728(5)
N3_8 N 0.5405(7) 0.0383(8) 0.3603(6)
C4_8 C 0.4808(8) 0.0791(8) 0.3838(6)
H3_8 H 0.4895 0.1259 0.4079
N4_8 N 0.4107(7) 0.0535(8) 0.3733(6)
Zn3_8 Zn 0.30117(9) 0.09188(9) 0.39227(7)
N6_8 N 0.6965(8) 0.1607(7) 0.3767(6)
C2_6 C 0.6866(9) 0.9499(9) 0.2402(7)
C3_6 C 0.7128(13) 0.8955(13) 0.1376(10)
H2_6 H 0.7288 0.9047 0.0955
C5_6 C 0.7108(10) 0.9616(10) 0.1794(7)
C6_7 C 0.6633(14) 0.8726(13) 0.2637(10)
H4_7 H 0.6478 0.8662 0.3063
C7_6 C 0.6637(17) 0.8058(16) 0.2218(12)
C8_7 C 0.4191(16) 0.9915(17) 0.3341(19)
H5_7 H 0.3779 0.9593 0.3170
C9_6 C 0.6833(15) 0.7512(17) 0.1109(12)
H6_4 H 0.6274 0.7471 0.0981
H7_4 H 0.6996 0.7017 0.1316
H8_6 H 0.7166 0.7601 0.0738
C10_4 C 0.6322(11) 0.7248(18) 0.2398(12)
H9_5 H 0.6163 0.7252 0.2840
H10_4 H 0.6738 0.6846 0.2334
H11_4 H 0.5859 0.7118 0.2137
C11_6 C 0.6928(13) 0.8188(15) 0.1549(12)
C12_7 C 0.5032(14) 0.9838(16) 0.3235(15)
H12_7 H 0.5282 0.9473 0.2957
C1_8 C 0.8202(8) 0.5276(8) 0.0195(6)
H1_8 H 0.8743 0.5164 0.0097
N2_4 N 0.7907(7) 0.5137(7) 0.0765(5)
C2_7 C 0.6999(9) 0.5634(9) 0.0098(7)
C3_7 C 0.6455(13) 0.5372(13) 0.1124(10)
H2_7 H 0.6547 0.5212 0.1545
C5_7 C 0.7116(10) 0.5392(10) 0.0706(7)
C7_7 C 0.5558(16) 0.5863(17) 0.0282(12)
C9_7 C 0.5012(17) 0.5667(15) 0.1391(12)
H6_5 H 0.4971 0.6226 0.1519
H7_5 H 0.4517 0.5504 0.1184
H8_7 H 0.5101 0.5334 0.1762
C10_5 C 0.4748(18) 0.6178(11) 0.0102(12)
H10_5 H 0.4346 0.5762 0.0166
H11_5 H 0.4618 0.6641 0.0363
C11_7 C 0.5688(15) 0.5572(13) 0.0951(12)
N1_9 N 0.7711(6) 0.5575(6) 0.9772(5)
N3_9 N 0.7883(8) 0.7095(7) 0.8897(6)
C4_9 C 0.8291(8) 0.7692(8) 0.8662(6)
H3_9 H 0.8759 0.7605 0.8421
C6_8 C 0.6226(13) 0.5867(14) 0.9863(10)
H4_8 H 0.6162 0.6022 0.9437
C8_8 C 0.7415(17) 0.8309(16) 0.9159(19)
H5_8 H 0.7093 0.8721 0.9330
H9_6 H 0.4752 0.6337 0.9660
C12_8 C 0.7338(16) 0.7468(14) 0.9265(15)
H12_8 H 0.6973 0.7218 0.9543
N5_5 N 0.7363(7) 0.5407(7) 0.8265(5)
C1_9 C 0.6798(8) 0.4724(8) 0.5195(6)
H1_9 H 0.6257 0.4836 0.5097
N1_10 N 0.7289(6) 0.4425(6) 0.4772(5)
N2_5 N 0.7093(7) 0.4863(7) 0.5765(5)
C2_8 C 0.8001(9) 0.4366(9) 0.5098(7)
N3_10 N 0.7117(8) 0.2905(7) 0.3897(6)
C3_8 C 0.8545(13) 0.4628(13) 0.6124(10)
H2_8 H 0.8453 0.4788 0.6545
C4_10 C 0.6709(8) 0.2308(8) 0.3662(6)
H3_10 H 0.6241 0.2395 0.3421
C5_8 C 0.7884(10) 0.4608(10) 0.5706(7)
C6_9 C 0.8774(13) 0.4133(14) 0.4863(10)
H4_9 H 0.8838 0.3978 0.4437
C7_8 C 0.9442(16) 0.4137(17) 0.5282(12)
C8_9 C 0.7585(17) 0.1691(16) 0.4159(19)
H5_9 H 0.7907 0.1279 0.4330
C9_8 C 0.9988(17) 0.4333(15) 0.6391(12)
H8_8 H 0.9899 0.4666 0.6762
C11_8 C 0.9312(15) 0.4428(13) 0.5951(12)
C12_9 C 0.7662(16) 0.2532(14) 0.4265(15)
H12_9 H 0.8027 0.2782 0.4543
N5_6 N 0.7637(7) 0.4593(7) 0.3265(5)
C1_10 C 0.7224(8) 0.5702(8) 0.7695(6)
H1_10 H 0.7336 0.6243 0.7597
N1_11 N 0.6925(6) 0.5211(6) 0.7272(5)
C2_9 C 0.6866(9) 0.4499(9) 0.7598(7)
N3_11 N 0.5405(7) 0.5383(8) 0.6397(6)
C3_9 C 0.7128(13) 0.3955(13) 0.8624(10)
H2_9 H 0.7288 0.4047 0.9045
C4_11 C 0.4808(8) 0.5791(8) 0.6162(6)
H3_11 H 0.4895 0.6259 0.5921
C5_9 C 0.7108(10) 0.4616(10) 0.8206(7)
C6_10 C 0.6633(14) 0.3726(13) 0.7363(10)
H4_10 H 0.6478 0.3662 0.6937
C7_9 C 0.6637(17) 0.3058(16) 0.7782(12)
C8_10 C 0.4191(16) 0.4915(17) 0.6659(19)
H5_10 H 0.3779 0.4593 0.6830
C9_9 C 0.6833(15) 0.2512(17) 0.8891(12)
H6_6 H 0.6274 0.2471 0.9019
H7_6 H 0.6996 0.2017 0.8684
H8_9 H 0.7166 0.2601 0.9262
C10_6 C 0.6322(11) 0.2248(18) 0.7602(12)
H9_7 H 0.6163 0.2252 0.7160
H10_6 H 0.6738 0.1846 0.7666
H11_6 H 0.5859 0.2118 0.7863
C11_9 C 0.6928(13) 0.3188(15) 0.8451(12)
C12_10 C 0.5032(14) 0.4838(16) 0.6765(15)
H12_10 H 0.5282 0.4473 0.7043
C4_12 C 0.0192(8) 0.4209(8) 0.1162(6)
H3_12 H 0.0105 0.3741 0.0921
C8_11 C 0.0809(16) 0.5085(17) 0.1659(19)
H5_11 H 0.1221 0.5407 0.1830
C1_11 C 0.7776(8) 0.4298(8) 0.2695(6)
H1_11 H 0.7664 0.3757 0.2597
N1_12 N 0.8075(6) 0.4789(6) 0.2272(5)
C2_10 C 0.8134(9) 0.5501(9) 0.2598(7)
N3_12 N 0.9595(7) 0.4617(8) 0.1397(6)
C3_10 C 0.7872(13) 0.6045(13) 0.3624(10)
H2_10 H 0.7712 0.5953 0.4045
C5_10 C 0.7892(10) 0.5384(10) 0.3206(7)
C6_11 C 0.8367(14) 0.6274(13) 0.2363(10)
H4_11 H 0.8522 0.6338 0.1937
C7_10 C 0.8363(17) 0.6942(16) 0.2782(12)
C9_10 C 0.8167(15) 0.7488(17) 0.3891(12)
H6_7 H 0.8726 0.7529 0.4019
H7_7 H 0.8004 0.7983 0.3684
H8_10 H 0.7834 0.7399 0.4262
C10_7 C 0.8678(11) 0.7752(18) 0.2602(12)
H9_8 H 0.8837 0.7748 0.2160
H10_7 H 0.8262 0.8154 0.2666
H11_7 H 0.9141 0.7882 0.2863
C11_10 C 0.8072(13) 0.6812(15) 0.3451(12)
C12_11 C 0.9968(14) 0.5162(16) 0.1765(15)
H12_11 H 0.9718 0.5527 0.2043
C1_12 C 0.3202(8) 0.0276(8) 0.5195(6)
H1_12 H 0.3743 0.0164 0.5097
N1_13 N 0.2711(6) 0.0575(6) 0.4772(5)
N2_6 N 0.2907(7) 0.0137(7) 0.5765(5)
C2_11 C 0.1999(9) 0.0634(9) 0.5098(7)
N3_13 N 0.2883(8) 0.2095(7) 0.3897(6)
C3_11 C 0.1455(13) 0.0372(13) 0.6124(10)
H2_11 H 0.1547 0.0212 0.6545
C4_13 C 0.3291(8) 0.2692(8) 0.3662(6)
H3_13 H 0.3759 0.2605 0.3421
C5_11 C 0.2116(10) 0.0392(10) 0.5706(7)
C6_12 C 0.1226(13) 0.0867(14) 0.4863(10)
H4_12 H 0.1162 0.1022 0.4437
C7_11 C 0.0558(16) 0.0863(17) 0.5282(12)
C8_12 C 0.2415(17) 0.3309(16) 0.4159(19)
H5_12 H 0.2093 0.3721 0.4330
C9_11 C 0.0012(17) 0.0667(15) 0.6391(12)
H8_11 H 0.0101 0.0334 0.6762
C11_11 C 0.0688(15) 0.0572(13) 0.5951(12)
C12_12 C 0.2338(16) 0.2468(14) 0.4265(15)
H12_12 H 0.1973 0.2218 0.4543
N5_7 N 0.2363(7) 0.0407(7) 0.3265(5)
N1_14 N 0.2289(6) 0.9425(6) 0.9772(5)
N3_14 N 0.2117(8) 0.7905(7) 0.8897(6)
C4_14 C 0.1709(8) 0.7308(8) 0.8662(6)
H3_14 H 0.1241 0.7395 0.8421
C6_13 C 0.3774(13) 0.9133(14) 0.9863(10)
H4_13 H 0.3838 0.8978 0.9437
C8_13 C 0.2585(17) 0.6691(16) 0.9159(19)
H5_13 H 0.2907 0.6279 0.9330
H9_9 H 0.5248 0.8663 0.9660
C12_13 C 0.2662(16) 0.7532(14) 0.9265(15)
H12_13 H 0.3027 0.7782 0.9543
N5_8 N 0.2637(7) 0.9593(7) 0.8265(5)
C1_13 C 0.2224(8) 0.0702(8) 0.2695(6)
H1_13 H 0.2336 0.1243 0.2597
N1_15 N 0.1925(6) 0.0211(6) 0.2272(5)
N3_15 N 0.0405(7) 0.0383(8) 0.1397(6)
C4_15 C 0.9808(8) 0.0791(8) 0.1162(6)
H3_15 H 0.9895 0.1259 0.0921
C2_12 C 0.3134(9) 0.0501(9) 0.7598(7)
C3_12 C 0.2872(13) 0.1045(13) 0.8624(10)
H2_12 H 0.2712 0.0953 0.9045
C5_12 C 0.2892(10) 0.0384(10) 0.8206(7)
C6_14 C 0.3367(14) 0.1274(13) 0.7363(10)
H4_14 H 0.3522 0.1338 0.6937
C7_12 C 0.3363(17) 0.1942(16) 0.7782(12)
C8_14 C 0.5809(16) 0.0085(17) 0.6659(19)
H5_14 H 0.6221 0.0407 0.6830
C9_12 C 0.3167(15) 0.2488(17) 0.8891(12)
H6_8 H 0.3726 0.2529 0.9019
H7_8 H 0.3004 0.2983 0.8684
H8_12 H 0.2834 0.2399 0.9262
C10_8 C 0.3678(11) 0.2752(18) 0.7602(12)
H9_10 H 0.3837 0.2748 0.7160
H10_8 H 0.3262 0.3154 0.7666
H11_8 H 0.4141 0.2882 0.7863
C11_12 C 0.3072(13) 0.1812(15) 0.8451(12)
C12_14 C 0.4968(14) 0.0162(16) 0.6765(15)
H12_14 H 0.4718 0.0527 0.7043
C1_14 C 0.2776(8) 0.9298(8) 0.7695(6)
H1_14 H 0.2664 0.8757 0.7597
N1_16 N 0.3075(6) 0.9789(6) 0.7272(5)
N3_16 N 0.4595(7) 0.9617(8) 0.6397(6)
C4_16 C 0.5192(8) 0.9209(8) 0.6162(6)
H3_16 H 0.5105 0.8741 0.5921
H6_9 H 0.9971 0.6226 0.3481
H7_9 H 0.9517 0.5504 0.3816
C10_9 C 0.9748(18) 0.6178(11) 0.4898(12)
H9_11 H 0.9752 0.6337 0.5340
H10_9 H 0.9346 0.5762 0.4834
H11_9 H 0.9618 0.6641 0.4637
H6_10 H 0.0029 0.8774 0.3481
H7_10 H 0.0483 0.9496 0.3816
C10_10 C 0.0252(18) 0.8822(11) 0.4898(12)
H9_12 H 0.0248 0.8663 0.5340
H10_10 H 0.0654 0.9238 0.4834
H11_10 H 0.0382 0.8359 0.4637
C1_15 C 0.8202(8) 0.0276(8) 0.9805(6)
H1_15 H 0.8743 0.0164 0.9903
N2_7 N 0.7907(7) 0.0137(7) 0.9235(5)
C2_13 C 0.6999(9) 0.0634(9) 0.9902(7)
C3_13 C 0.6455(13) 0.0372(13) 0.8876(10)
H2_13 H 0.6547 0.0212 0.8455
C5_13 C 0.7116(10) 0.0392(10) 0.9294(7)
C7_13 C 0.5558(16) 0.0863(17) 0.9718(12)
C9_13 C 0.5012(17) 0.0667(15) 0.8609(12)
H6_11 H 0.4971 0.1226 0.8481
H7_11 H 0.4517 0.0504 0.8816
H8_13 H 0.5101 0.0334 0.8238
C10_11 C 0.4748(18) 0.1178(11) 0.9898(12)
H10_11 H 0.4346 0.0762 0.9834
H11_11 H 0.4618 0.1641 0.9637
C11_13 C 0.5688(15) 0.0572(13) 0.9049(12)
C2_14 C 0.8134(9) 0.0501(9) 0.7402(7)
C3_14 C 0.7872(13) 0.1045(13) 0.6376(10)
H2_14 H 0.7712 0.0953 0.5955
C5_14 C 0.7892(10) 0.0384(10) 0.6794(7)
C6_15 C 0.8367(14) 0.1274(13) 0.7637(10)
H4_15 H 0.8522 0.1338 0.8063
C7_14 C 0.8363(17) 0.1942(16) 0.7218(12)
C9_14 C 0.8167(15) 0.2488(17) 0.6109(12)
H6_12 H 0.8726 0.2529 0.5981
H7_12 H 0.8004 0.2983 0.6316
H8_14 H 0.7834 0.2399 0.5738
C10_12 C 0.8678(11) 0.2752(18) 0.7398(12)
H9_13 H 0.8837 0.2748 0.7840
H10_12 H 0.8262 0.3154 0.7334
H11_12 H 0.9141 0.2882 0.7137
C11_14 C 0.8072(13) 0.1812(15) 0.6549(12)
C12_15 C 0.9968(14) 0.0162(16) 0.8235(15)
H12_15 H 0.9718 0.0527 0.7957
C8_15 C 0.0809(16) 0.0085(17) 0.8341(19)
H5_15 H 0.1221 0.0407 0.8170
H6_13 H 0.0029 0.3774 0.6519
H7_13 H 0.0483 0.4496 0.6184
C10_13 C 0.0252(18) 0.3822(11) 0.5102(12)
H9_14 H 0.0248 0.3663 0.4660
H10_13 H 0.0654 0.4238 0.5166
H11_13 H 0.0382 0.3359 0.5363
H6_14 H 0.9971 0.1226 0.6519
H7_14 H 0.9517 0.0504 0.6184
C10_14 C 0.9748(18) 0.1178(11) 0.5102(12)
H9_15 H 0.9752 0.1337 0.4660
H10_14 H 0.9346 0.0762 0.5166
H11_14 H 0.9618 0.1641 0.5363
C1_16 C 0.1798(8) 0.9724(8) 0.0195(6)
H1_16 H 0.1257 0.9836 0.0097
N2_8 N 0.2093(7) 0.9863(7) 0.0765(5)
C2_15 C 0.3001(9) 0.9366(9) 0.0098(7)
C3_15 C 0.3545(13) 0.9628(13) 0.1124(10)
H2_15 H 0.3453 0.9788 0.1545
C5_15 C 0.2884(10) 0.9608(10) 0.0706(7)
C7_15 C 0.4442(16) 0.9137(17) 0.0282(12)
C9_15 C 0.4988(17) 0.9333(15) 0.1391(12)
H6_15 H 0.5029 0.8774 0.1519
H7_15 H 0.5483 0.9496 0.1184
H8_15 H 0.4899 0.9666 0.1762
C10_15 C 0.5252(18) 0.8822(11) 0.0102(12)
H10_15 H 0.5654 0.9238 0.0166
H11_15 H 0.5382 0.8359 0.0363
C11_15 C 0.4312(15) 0.9428(13) 0.0951(12)
C2_16 C 0.1866(9) 0.9499(9) 0.2598(7)
C3_16 C 0.2128(13) 0.8955(13) 0.3624(10)
H2_16 H 0.2288 0.9047 0.4045
C5_16 C 0.2108(10) 0.9616(10) 0.3206(7)
C6_16 C 0.1633(14) 0.8726(13) 0.2363(10)
H4_16 H 0.1478 0.8662 0.1937
C7_16 C 0.1637(17) 0.8058(16) 0.2782(12)
C9_16 C 0.1833(15) 0.7512(17) 0.3891(12)
H6_16 H 0.1274 0.7471 0.4019
H7_16 H 0.1996 0.7017 0.3684
H8_16 H 0.2166 0.7601 0.4262
C10_16 C 0.1322(11) 0.7248(18) 0.2602(12)
H9_16 H 0.1163 0.7252 0.2160
H10_16 H 0.1738 0.6846 0.2666
H11_16 H 0.0859 0.7118 0.2863
C11_16 C 0.1928(13) 0.8188(15) 0.3451(12)
C12_16 C 0.0032(14) 0.9838(16) 0.1765(15)
H12_16 H 0.0282 0.9473 0.2043
C8_16 C 0.9191(16) 0.9915(17) 0.1659(19)
H5_16 H 0.8779 0.9593 0.1830
loop_
_geom_bond_atom_site_label_1
_geom_bond_atom_site_label_2
_geom_bond_site_symmetry_1
_geom_bond_site_symmetry_2
Zn1 N1 1_555 1_555
N3 Zn1 1_555 1_555
C4 N3 1_555 1_555
H3 C4 1_555 1_555
N4 C4 1_555 1_555
H4 C6 1_555 1_555
C8 N4 1_555 1_555
H5 C8 1_555 1_555
C12 N3 1_555 1_555
H12 C12 1_555 1_555
Zn3 N4 1_555 1_555
N5 Zn1 1_555 1_555
N6 Zn1 1_555 1_555
C8 C12 1_555 1_555
C1 H1 1_555 1_555
N2 C1 1_555 1_555
C3 H2 1_555 1_555
C5 N2 1_555 1_555
C9 H6 1_555 1_555
H7 C9 1_555 1_555
H8 C9 1_555 1_555
C10 C7 1_555 1_555
H10 C10 1_555 1_555
H11 C10 1_555 1_555
C11 C3 1_555 1_555
Zn2 N2 1_555 1_555
C2 C5 1_555 1_555
C3 C5 1_555 1_555
C7 C11 1_555 1_555
C9 C11 1_555 1_555
Zn1_2 N1_2 1_555 1_555
C1_2 H1_2 1_555 1_555
N1_2 C1_2 1_555 1_555
N2_2 C1_2 1_555 1_555
C2_2 N1_2 1_555 1_555
N3_2 Zn1_2 1_555 1_555
C3_2 H2_2 1_555 1_555
C4_2 N3_2 1_555 1_555
H3_2 C4_2 1_555 1_555
N4_2 C4_2 1_555 1_555
C5_2 N2_2 1_555 1_555
C6_2 C2_2 1_555 1_555
H4_2 C6_2 1_555 1_555
C7_2 C6_2 1_555 1_555
C8_2 N4_2 1_555 1_555
H5_2 C8_2 1_555 1_555
H8_2 C9_2 1_555 1_555
C11_2 C3_2 1_555 1_555
C12_2 N3_2 1_555 1_555
H12_2 C12_2 1_555 1_555
Zn2_2 N2_2 1_555 1_555
Zn3_2 N4_2 1_555 1_555
N5_2 Zn1_2 1_555 1_555
N6_2 Zn1_2 1_555 1_555
C2_2 C5_2 1_555 1_555
C3_2 C5_2 1_555 1_555
C7_2 C11_2 1_555 1_555
C8_2 C12_2 1_555 1_555
C9_2 C11_2 1_555 1_555
Zn2_2 N1_3 1_555 1_555
C1_3 H1_3 1_555 1_555
N1_3 C1_3 1_555 1_555
N5 C1_3 1_555 1_555
C2_3 N1_3 1_555 1_555
N3_3 Zn2_2 1_555 1_555
C3_3 H2_3 1_555 1_555
C4_3 N3_3 1_555 1_555
H3_3 C4_3 1_555 1_555
N4_3 C4_3 1_555 1_555
C5_3 N5 1_555 1_555
C6_3 C2_3 1_555 1_555
H4_3 C6_3 1_555 1_555
C7_3 C6_3 1_555 1_555
C8_3 N4_3 1_555 1_555
H5_3 C8_3 1_555 1_555
C9_3 H6_2 1_555 1_555
H7_2 C9_3 1_555 1_555
H8_3 C9_3 1_555 1_555
C10_2 C7_3 1_555 1_555
H9_2 C10_2 1_555 1_555
H10_2 C10_2 1_555 1_555
H11_2 C10_2 1_555 1_555
C11_3 C3_3 1_555 1_555
C12_3 N3_3 1_555 1_555
H12_3 C12_3 1_555 1_555
Zn3_3 N4_3 1_555 1_555
N6_3 Zn2_2 1_555 1_555
C2_3 C5_3 1_555 1_555
C3_3 C5_3 1_555 1_555
C7_3 C11_3 1_555 1_555
C8_3 C12_3 1_555 1_555
C9_3 C11_3 1_555 1_555
Zn2 N1_4 1_555 1_555
C1_4 H1_4 1_555 1_555
N1_4 C1_4 1_555 1_555
N5_2 C1_4 1_555 1_555
C2_4 N1_4 1_555 1_555
N3_4 Zn2 1_555 1_555
C3_4 H2_4 1_555 1_555
C5_4 N5_2 1_555 1_555
C6_4 C2_4 1_555 1_555
H4_4 C6_4 1_555 1_555
C7_4 C6_4 1_555 1_555
C9_4 H6_3 1_555 1_555
H7_3 C9_4 1_555 1_555
H8_4 C9_4 1_555 1_555
C10_3 C7_4 1_555 1_555
H9_3 C10_3 1_555 1_555
H10_3 C10_3 1_555 1_555
H11_3 C10_3 1_555 1_555
C11_4 C3_4 1_555 1_555
C12_4 N3_4 1_555 1_555
H12_4 C12_4 1_555 1_555
N6_4 Zn2 1_555 1_555
C2_4 C5_4 1_555 1_555
C3_4 C5_4 1_555 1_555
C7_4 C11_4 1_555 1_555
C9_4 C11_4 1_555 1_555
H3_4 C4_4 1_555 1_555
N4_4 C4_4 1_555 1_555
C8_4 N4_4 1_555 1_555
H5_4 C8_4 1_555 1_555
Zn3_4 N4_4 1_555 1_555
Zn1_3 N1_5 1_555 1_555
C1_5 H1_5 1_555 1_555
N1_5 C1_5 1_555 1_555
N2_3 C1_5 1_555 1_555
C2_5 N1_5 1_555 1_555
N3_5 Zn1_3 1_555 1_555
C3_5 H2_5 1_555 1_555
C4_5 N3_5 1_555 1_555
H3_5 C4_5 1_555 1_555
N4_5 C4_5 1_555 1_555
C5_5 N2_3 1_555 1_555
C6_5 C2_5 1_555 1_555
H4_5 C6_5 1_555 1_555
C7_5 C6_5 1_555 1_555
C8_5 N4_5 1_555 1_555
H5_5 C8_5 1_555 1_555
H8_5 C9_5 1_555 1_555
C11_5 C3_5 1_555 1_555
C12_5 N3_5 1_555 1_555
H12_5 C12_5 1_555 1_555
Zn3_5 N4_5 1_555 1_555
N5_3 Zn1_3 1_555 1_555
N6_5 Zn1_3 1_555 1_555
C2_5 C5_5 1_555 1_555
C3_5 C5_5 1_555 1_555
C7_5 C11_5 1_555 1_555
C8_5 C12_5 1_555 1_555
C9_5 C11_5 1_555 1_555
Zn1_4 N1_6 1_555 1_555
N3_6 Zn1_4 1_555 1_555
C4_6 N3_6 1_555 1_555
H3_6 C4_6 1_555 1_555
N4_6 C4_6 1_555 1_555
H4_6 C6_6 1_555 1_555
C8_6 N4_6 1_555 1_555
H5_6 C8_6 1_555 1_555
C12_6 N3_6 1_555 1_555
H12_6 C12_6 1_555 1_555
Zn3_6 N4_6 1_555 1_555
N5_4 Zn1_4 1_555 1_555
N6_6 Zn1_4 1_555 1_555
C8_6 C12_6 1_555 1_555
H3_7 C4_7 1_555 1_555
N4_7 C4_7 1_555 1_555
Zn3_7 N4_7 1_555 1_555
Zn2_4 N1_7 1_555 1_555
C1_6 H1_6 1_555 1_555
N1_7 C1_6 1_555 1_555
N5_3 C1_6 1_555 1_555
N3_7 Zn2_4 1_555 1_555
N6_7 Zn2_4 1_555 1_555
Zn2_3 N1_8 1_555 1_555
C1_7 H1_7 1_555 1_555
N1_8 C1_7 1_555 1_555
N5_4 C1_7 1_555 1_555
N3_8 Zn2_3 1_555 1_555
C4_8 N3_8 1_555 1_555
H3_8 C4_8 1_555 1_555
N4_8 C4_8 1_555 1_555
Zn3_8 N4_8 1_555 1_555
N6_8 Zn2_3 1_555 1_555
C3_6 H2_6 1_555 1_555
C6_7 C2_6 1_555 1_555
H4_7 C6_7 1_555 1_555
C7_6 C6_7 1_555 1_555
H5_7 C8_7 1_555 1_555
C9_6 H6_4 1_555 1_555
H7_4 C9_6 1_555 1_555
H8_6 C9_6 1_555 1_555
C10_4 C7_6 1_555 1_555
H9_5 C10_4 1_555 1_555
H10_4 C10_4 1_555 1_555
H11_4 C10_4 1_555 1_555
C11_6 C3_6 1_555 1_555
H12_7 C12_7 1_555 1_555
C2_6 C5_6 1_555 1_555
C3_6 C5_6 1_555 1_555
C7_6 C11_6 1_555 1_555
C8_7 C12_7 1_555 1_555
C9_6 C11_6 1_555 1_555
C1_8 H1_8 1_555 1_555
N2_4 C1_8 1_555 1_555
C3_7 H2_7 1_555 1_555
C5_7 N2_4 1_555 1_555
C9_7 H6_5 1_555 1_555
H7_5 C9_7 1_555 1_555
H8_7 C9_7 1_555 1_555
C10_5 C7_7 1_555 1_555
H10_5 C10_5 1_555 1_555
H11_5 C10_5 1_555 1_555
C11_7 C3_7 1_555 1_555
Zn3_6 N2_4 1_555 1_555
C2_7 C5_7 1_555 1_555
C3_7 C5_7 1_555 1_555
C7_7 C11_7 1_555 1_555
C9_7 C11_7 1_555 1_555
Zn3_4 N1_9 1_555 1_555
N3_9 Zn3_4 1_555 1_555
C4_9 N3_9 1_555 1_555
H3_9 C4_9 1_555 1_555
N6_7 C4_9 1_555 1_555
H4_8 C6_8 1_555 1_555
C8_8 N6_7 1_555 1_555
H5_8 C8_8 1_555 1_555
C12_8 N3_9 1_555 1_555
H12_8 C12_8 1_555 1_555
N5_5 Zn3_4 1_555 1_555
C8_8 C12_8 1_555 1_555
Zn3_3 N1_10 1_555 1_555
C1_9 H1_9 1_555 1_555
N1_10 C1_9 1_555 1_555
N2_5 C1_9 1_555 1_555
C2_8 N1_10 1_555 1_555
N3_10 Zn3_3 1_555 1_555
C3_8 H2_8 1_555 1_555
C4_10 N3_10 1_555 1_555
H3_10 C4_10 1_555 1_555
N6_8 C4_10 1_555 1_555
C5_8 N2_5 1_555 1_555
C6_9 C2_8 1_555 1_555
H4_9 C6_9 1_555 1_555
C7_8 C6_9 1_555 1_555
C8_9 N6_8 1_555 1_555
H5_9 C8_9 1_555 1_555
H8_8 C9_8 1_555 1_555
C11_8 C3_8 1_555 1_555
C12_9 N3_10 1_555 1_555
H12_9 C12_9 1_555 1_555
Zn3_5 N2_5 1_555 1_555
N5_6 Zn3_3 1_555 1_555
C2_8 C5_8 1_555 1_555
C3_8 C5_8 1_555 1_555
C7_8 C11_8 1_555 1_555
C8_9 C12_9 1_555 1_555
C9_8 C11_8 1_555 1_555
Zn3_5 N1_11 1_555 1_555
C1_10 H1_10 1_555 1_555
N1_11 C1_10 1_555 1_555
N5_5 C1_10 1_555 1_555
C2_9 N1_11 1_555 1_555
N3_11 Zn3_5 1_555 1_555
C3_9 H2_9 1_555 1_555
C4_11 N3_11 1_555 1_555
H3_11 C4_11 1_555 1_555
N6_2 C4_11 1_555 1_555
C5_9 N5_5 1_555 1_555
C6_10 C2_9 1_555 1_555
H4_10 C6_10 1_555 1_555
C7_9 C6_10 1_555 1_555
C8_10 N6_2 1_555 1_555
H5_10 C8_10 1_555 1_555
C9_9 H6_6 1_555 1_555
H7_6 C9_9 1_555 1_555
H8_9 C9_9 1_555 1_555
C10_6 C7_9 1_555 1_555
H9_7 C10_6 1_555 1_555
H10_6 C10_6 1_555 1_555
H11_6 C10_6 1_555 1_555
C11_9 C3_9 1_555 1_555
C12_10 N3_11 1_555 1_555
H12_10 C12_10 1_555 1_555
C2_9 C5_9 1_555 1_555
C3_9 C5_9 1_555 1_555
C7_9 C11_9 1_555 1_555
C8_10 C12_10 1_555 1_555
C9_9 C11_9 1_555 1_555
H3_12 C4_12 1_555 1_555
N6 C4_12 1_555 1_555
C8_11 N6 1_555 1_555
H5_11 C8_11 1_555 1_555
Zn3_6 N1_12 1_555 1_555
C1_11 H1_11 1_555 1_555
N1_12 C1_11 1_555 1_555
N5_6 C1_11 1_555 1_555
C2_10 N1_12 1_555 1_555
N3_12 Zn3_6 1_555 1_555
C3_10 H2_10 1_555 1_555
C5_10 N5_6 1_555 1_555
C6_11 C2_10 1_555 1_555
H4_11 C6_11 1_555 1_555
C7_10 C6_11 1_555 1_555
C9_10 H6_7 1_555 1_555
H7_7 C9_10 1_555 1_555
H8_10 C9_10 1_555 1_555
C10_7 C7_10 1_555 1_555
H9_8 C10_7 1_555 1_555
H10_7 C10_7 1_555 1_555
H11_7 C10_7 1_555 1_555
C11_10 C3_10 1_555 1_555
C12_11 N3_12 1_555 1_555
H12_11 C12_11 1_555 1_555
C2_10 C5_10 1_555 1_555
C3_10 C5_10 1_555 1_555
C7_10 C11_10 1_555 1_555
C9_10 C11_10 1_555 1_555
Zn3_8 N1_13 1_555 1_555
C1_12 H1_12 1_555 1_555
N1_13 C1_12 1_555 1_555
N2_6 C1_12 1_555 1_555
C2_11 N1_13 1_555 1_555
N3_13 Zn3_8 1_555 1_555
C3_11 H2_11 1_555 1_555
C4_13 N3_13 1_555 1_555
H3_13 C4_13 1_555 1_555
N6_3 C4_13 1_555 1_555
C5_11 N2_6 1_555 1_555
C6_12 C2_11 1_555 1_555
H4_12 C6_12 1_555 1_555
C7_11 C6_12 1_555 1_555
C8_12 N6_3 1_555 1_555
H5_12 C8_12 1_555 1_555
H8_11 C9_11 1_555 1_555
C11_11 C3_11 1_555 1_555
C12_12 N3_13 1_555 1_555
H12_12 C12_12 1_555 1_555
N5_7 Zn3_8 1_555 1_555
C2_11 C5_11 1_555 1_555
C3_11 C5_11 1_555 1_555
C7_11 C11_11 1_555 1_555
C8_12 C12_12 1_555 1_555
C9_11 C11_11 1_555 1_555
Zn3_7 N1_14 1_555 1_555
N3_14 Zn3_7 1_555 1_555
C4_14 N3_14 1_555 1_555
H3_14 C4_14 1_555 1_555
N6_4 C4_14 1_555 1_555
H4_13 C6_13 1_555 1_555
C8_13 N6_4 1_555 1_555
H5_13 C8_13 1_555 1_555
C12_13 N3_14 1_555 1_555
H12_13 C12_13 1_555 1_555
N5_8 Zn3_7 1_555 1_555
C8_13 C12_13 1_555 1_555
Zn3 N1_15 1_555 1_555
C1_13 H1_13 1_555 1_555
N1_15 C1_13 1_555 1_555
N5_7 C1_13 1_555 1_555
N3_15 Zn3 1_555 1_555
H3_15 C4_15 1_555 1_555
N6_6 C4_15 1_555 1_555
C3_12 H2_12 1_555 1_555
C6_14 C2_12 1_555 1_555
H4_14 C6_14 1_555 1_555
C7_12 C6_14 1_555 1_555
H5_14 C8_14 1_555 1_555
C9_12 H6_8 1_555 1_555
H7_8 C9_12 1_555 1_555
H8_12 C9_12 1_555 1_555
C10_8 C7_12 1_555 1_555
H9_10 C10_8 1_555 1_555
H10_8 C10_8 1_555 1_555
H11_8 C10_8 1_555 1_555
C11_12 C3_12 1_555 1_555
H12_14 C12_14 1_555 1_555
C2_12 C5_12 1_555 1_555
C3_12 C5_12 1_555 1_555
C7_12 C11_12 1_555 1_555
C8_14 C12_14 1_555 1_555
C9_12 C11_12 1_555 1_555
Zn3_2 N1_16 1_555 1_555
C1_14 H1_14 1_555 1_555
N1_16 C1_14 1_555 1_555
N5_8 C1_14 1_555 1_555
N3_16 Zn3_2 1_555 1_555
C4_16 N3_16 1_555 1_555
H3_16 C4_16 1_555 1_555
N6_5 C4_16 1_555 1_555
H9_11 C10_9 1_555 1_555
H10_9 C10_9 1_555 1_555
H11_9 C10_9 1_555 1_555
H9_12 C10_10 1_555 1_555
H10_10 C10_10 1_555 1_555
H11_10 C10_10 1_555 1_555
C1_15 H1_15 1_555 1_555
N2_7 C1_15 1_555 1_555
C3_13 H2_13 1_555 1_555
C5_13 N2_7 1_555 1_555
C9_13 H6_11 1_555 1_555
H7_11 C9_13 1_555 1_555
H8_13 C9_13 1_555 1_555
C10_11 C7_13 1_555 1_555
H10_11 C10_11 1_555 1_555
H11_11 C10_11 1_555 1_555
C11_13 C3_13 1_555 1_555
C2_13 C5_13 1_555 1_555
C3_13 C5_13 1_555 1_555
C7_13 C11_13 1_555 1_555
C9_13 C11_13 1_555 1_555
C3_14 H2_14 1_555 1_555
C6_15 C2_14 1_555 1_555
H4_15 C6_15 1_555 1_555
C7_14 C6_15 1_555 1_555
C9_14 H6_12 1_555 1_555
H7_12 C9_14 1_555 1_555
H8_14 C9_14 1_555 1_555
C10_12 C7_14 1_555 1_555
H9_13 C10_12 1_555 1_555
H10_12 C10_12 1_555 1_555
H11_12 C10_12 1_555 1_555
C11_14 C3_14 1_555 1_555
H12_15 C12_15 1_555 1_555
C2_14 C5_14 1_555 1_555
C3_14 C5_14 1_555 1_555
C7_14 C11_14 1_555 1_555
C9_14 C11_14 1_555 1_555
H5_15 C8_15 1_555 1_555
H9_14 C10_13 1_555 1_555
H10_13 C10_13 1_555 1_555
H11_13 C10_13 1_555 1_555
H9_15 C10_14 1_555 1_555
H10_14 C10_14 1_555 1_555
H11_14 C10_14 1_555 1_555
C1_16 H1_16 1_555 1_555
N2_8 C1_16 1_555 1_555
C3_15 H2_15 1_555 1_555
C5_15 N2_8 1_555 1_555
C9_15 H6_15 1_555 1_555
H7_15 C9_15 1_555 1_555
H8_15 C9_15 1_555 1_555
C10_15 C7_15 1_555 1_555
H10_15 C10_15 1_555 1_555
H11_15 C10_15 1_555 1_555
C11_15 C3_15 1_555 1_555
C2_15 C5_15 1_555 1_555
C3_15 C5_15 1_555 1_555
C7_15 C11_15 1_555 1_555
C9_15 C11_15 1_555 1_555
C3_16 H2_16 1_555 1_555
C6_16 C2_16 1_555 1_555
H4_16 C6_16 1_555 1_555
C7_16 C6_16 1_555 1_555
C9_16 H6_16 1_555 1_555
H7_16 C9_16 1_555 1_555
H8_16 C9_16 1_555 1_555
C10_16 C7_16 1_555 1_555
H9_16 C10_16 1_555 1_555
H10_16 C10_16 1_555 1_555
H11_16 C10_16 1_555 1_555
C11_16 C3_16 1_555 1_555
H12_16 C12_16 1_555 1_555
C2_16 C5_16 1_555 1_555
C3_16 C5_16 1_555 1_555
C7_16 C11_16 1_555 1_555
C9_16 C11_16 1_555 1_555
H5_16 C8_16 1_555 1_555

#END
