
###############################################################################
#
# This file contains modified crystal structure data generated from the
# MOF subset of the Cambridge Structural Database (CSD) v543 
# hosted by the Cambridge Crystallographic Data Centre (CCDC).
#
# This work is licensed under the Creative Commons
# Attribution-NonCommercial-ShareAlike 4.0 International License.
# To view a copy of this license, visit
# http://creativecommons.org/licenses/by-nc-sa/4.0/
# or send a letter to
# Creative Commons, PO Box 1866, Mountain View, CA 94042, USA.
#
# CIF created using the CSD Python API on 29 September 2022
# The structure has been converted into the P1 space group
# The structure has a 3D framework
# The original CSD entry QOTBAE is in the tetragonal crystal system
# The framework has been calculated to contain at least 10.0% void space
# The void calculation uses a probe of radius 1.32A, grid spacing 0.4
#
###############################################################################

data_QOTBAE
_chemical_formula_moiety         '(C96 H64 N48 O32 Zn16)n'
_symmetry_cell_setting           triclinic
_symmetry_space_group_name_H-M   'P 1'
_symmetry_Int_Tables_number      1
_space_group_name_Hall           'P 1'
loop_
_symmetry_equiv_pos_site_id
_symmetry_equiv_pos_as_xyz
1 x,y,z
_cell_length_a                   13.4761(19)
_cell_length_b                   13.4761(19)
_cell_length_c                   27.254(5)
_cell_angle_alpha                90
_cell_angle_beta                 90
_cell_angle_gamma                90
_cell_volume                     4949.47
loop_
_atom_site_label
_atom_site_type_symbol
_atom_site_fract_x
_atom_site_fract_y
_atom_site_fract_z
N5 N 0.5391(3) 0.3766(3) 0.00321(13)
C12 C 0.5619(3) 0.2820(3) 0.00135(15)
H8 H 0.6062 0.2515 0.0227
Zn6 Zn 0.59002(4) 0.47750(4) 0.052666(18)
O1 O 0.1398(3) 0.0554(3) 0.86644(13)
N3 N 0.3916(3) 0.0275(3) 0.96584(13)
C3 C 0.1184(6) 0.0203(5) 0.7643(2)
H1 H 0.1627 0.0698 0.7736
C5 C 0.3059(3) 0.0384(3) 0.94404(15)
H3 H 0.2960 0.0786 0.9167
C10 C 0.1030(5) 0.0008(5) 0.7151(2)
H6 H 0.1401 0.0346 0.6917
Zn2 Zn 0.52250(4) 0.09002(4) 0.947334(18)
N4 N 0.5145(3) 0.2344(3) 0.96543(13)
N6 N 0.4725(3) 0.3916(3) 0.96584(13)
C11 C 0.4616(3) 0.3059(3) 0.94404(15)
H7 H 0.4214 0.2960 0.9167
Zn3 Zn 0.40998(4) 0.52250(4) 0.947334(18)
O5 O 0.4446(3) 0.1398(3) 0.86644(13)
O6 O 0.5747(3) 0.0484(3) 0.88338(15)
N7 N 0.6234(3) 0.0391(3) 0.99679(13)
N9 N 0.0275(3) 0.1084(3) 0.96584(13)
N2 N 0.3766(3) 0.9609(3) 0.00321(13)
C6 C 0.2820(3) 0.9381(3) 0.00135(15)
H4 H 0.2515 0.8938 0.0227
Zn5 Zn 0.47750(4) 0.90998(4) 0.052666(18)
Zn1 Zn 0.09002(4) 0.97750(4) 0.947334(18)
O2 O 0.0484(3) 0.9253(3) 0.88338(15)
N1 N 0.2344(3) 0.9855(3) 0.96543(13)
C1 C 0.0883(5) 0.9852(5) 0.8534(2)
C2 C 0.0680(5) 0.9664(5) 0.7999(2)
O4 O 0.0747(3) 0.9516(3) 0.61662(15)
C7 C 0.0148(5) 0.9117(5) 0.6466(2)
C8 C 0.0336(5) 0.9320(5) 0.7001(2)
Zn4 Zn 0.02250(4) 0.90998(4) 0.552666(18)
N8 N 0.0391(3) 0.8766(3) 0.99679(13)
C4 C 0.9992(5) 0.8970(5) 0.7849(2)
H2 H 0.9654 0.8599 0.8083
O3 O 0.9446(3) 0.8602(3) 0.63356(13)
C9 C 0.9797(5) 0.8816(6) 0.7357(2)
H5 H 0.9302 0.8373 0.7264
N5_2 N 0.1234(3) 0.5391(3) 0.00321(13)
C12_2 C 0.2180(3) 0.5619(3) 0.00135(15)
H8_2 H 0.2485 0.6062 0.0227
Zn6_2 Zn 0.02250(4) 0.59002(4) 0.052666(18)
C1_2 C 0.5148(5) 0.0883(5) 0.8534(2)
C2_2 C 0.5336(5) 0.0680(5) 0.7999(2)
C3_2 C 0.4797(5) 0.1184(6) 0.7643(2)
H1_2 H 0.4302 0.1627 0.7736
O4_2 O 0.5484(3) 0.0747(3) 0.61662(15)
C7_2 C 0.5883(5) 0.0148(5) 0.6466(2)
C8_2 C 0.5680(5) 0.0336(5) 0.7001(2)
C10_2 C 0.4992(5) 0.1030(5) 0.7151(2)
H6_2 H 0.4654 0.1401 0.6917
N4_2 N 0.2656(3) 0.5145(3) 0.96543(13)
N6_2 N 0.1084(3) 0.4725(3) 0.96584(13)
C11_2 C 0.1941(3) 0.4616(3) 0.94404(15)
H7_2 H 0.2040 0.4214 0.9167
Zn4_2 Zn 0.59002(4) 0.02250(4) 0.552666(18)
O5_2 O 0.3602(3) 0.4446(3) 0.86644(13)
O6_2 O 0.4516(3) 0.5747(3) 0.88338(15)
N7_2 N 0.4609(3) 0.6234(3) 0.99679(13)
C4_2 C 0.6030(5) 0.9992(5) 0.7849(2)
H2_2 H 0.6401 0.9654 0.8083
O3_2 O 0.6398(3) 0.9446(3) 0.63356(13)
C9_2 C 0.6184(6) 0.9797(5) 0.7357(2)
H5_2 H 0.6627 0.9302 0.7264
Zn3_2 Zn 0.97750(4) 0.40998(4) 0.947334(18)
C1_3 C 0.4117(5) 0.5148(5) 0.8534(2)
C2_3 C 0.4320(5) 0.5336(5) 0.7999(2)
C3_3 C 0.3816(6) 0.4797(5) 0.7643(2)
H1_3 H 0.3373 0.4302 0.7736
C4_3 C 0.5008(5) 0.6030(5) 0.7849(2)
H2_3 H 0.5346 0.6401 0.8083
O3_3 O 0.5554(3) 0.6398(3) 0.63356(13)
O4_3 O 0.4253(3) 0.5484(3) 0.61662(15)
C7_3 C 0.4852(5) 0.5883(5) 0.6466(2)
C8_3 C 0.4664(5) 0.5680(5) 0.7001(2)
C9_3 C 0.5203(5) 0.6184(6) 0.7357(2)
H5_3 H 0.5698 0.6627 0.7264
C10_3 C 0.3970(5) 0.4992(5) 0.7151(2)
H6_3 H 0.3599 0.4654 0.6917
C11_3 C 0.0384(3) 0.1941(3) 0.94404(15)
H7_3 H 0.0786 0.2040 0.9167
Zn4_3 Zn 0.47750(4) 0.59002(4) 0.552666(18)
O5_3 O 0.0554(3) 0.3602(3) 0.86644(13)
N5_3 N 0.9609(3) 0.1234(3) 0.00321(13)
C12_3 C 0.9381(3) 0.2180(3) 0.00135(15)
H8_3 H 0.8938 0.2485 0.0227
Zn6_3 Zn 0.90998(4) 0.02250(4) 0.052666(18)
N4_3 N 0.9855(3) 0.2656(3) 0.96543(13)
O6_3 O 0.9253(3) 0.4516(3) 0.88338(15)
N7_3 N 0.8766(3) 0.4609(3) 0.99679(13)
C3_4 C 0.0203(5) 0.3816(6) 0.7643(2)
H1_4 H 0.0698 0.3373 0.7736
C10_4 C 0.0008(5) 0.3970(5) 0.7151(2)
H6_4 H 0.0346 0.3599 0.6917
C1_4 C 0.9852(5) 0.4117(5) 0.8534(2)
C2_4 C 0.9664(5) 0.4320(5) 0.7999(2)
C4_4 C 0.8970(5) 0.5008(5) 0.7849(2)
H2_4 H 0.8599 0.5346 0.8083
O3_4 O 0.8602(3) 0.5554(3) 0.63356(13)
O4_4 O 0.9516(3) 0.4253(3) 0.61662(15)
C7_4 C 0.9117(5) 0.4852(5) 0.6466(2)
C8_4 C 0.9320(5) 0.4664(5) 0.7001(2)
C9_4 C 0.8816(6) 0.5203(5) 0.7357(2)
H5_4 H 0.8373 0.5698 0.7264
Zn4_4 Zn 0.90998(4) 0.47750(4) 0.552666(18)
N4_4 N 0.0145(3) 0.7656(3) 0.53457(13)
N5_4 N 0.0391(3) 0.6234(3) 0.49679(13)
C12_4 C 0.0619(3) 0.7180(3) 0.49865(15)
H8_4 H 0.1062 0.7485 0.4773
Zn6_4 Zn 0.09002(4) 0.52250(4) 0.447334(18)
N7_4 N 0.1234(3) 0.9609(3) 0.50321(13)
N1_2 N 0.7344(3) 0.0145(3) 0.53457(13)
N2_2 N 0.8766(3) 0.0391(3) 0.49679(13)
C6_2 C 0.7820(3) 0.0619(3) 0.49865(15)
H4_2 H 0.7515 0.1062 0.4773
Zn5_2 Zn 0.97750(4) 0.09002(4) 0.447334(18)
N8_2 N 0.5391(3) 0.1234(3) 0.50321(13)
N3_2 N 0.8916(3) 0.9725(3) 0.53416(13)
C5_2 C 0.8059(3) 0.9616(3) 0.55596(15)
H3_2 H 0.7960 0.9214 0.5833
N6_3 N 0.9725(3) 0.6084(3) 0.53416(13)
C11_4 C 0.9616(3) 0.6941(3) 0.55596(15)
H7_4 H 0.9214 0.7040 0.5833
N9_2 N 0.5275(3) 0.8916(3) 0.53416(13)
N1_3 N 0.4855(3) 0.7344(3) 0.53457(13)
N2_3 N 0.4609(3) 0.8766(3) 0.49679(13)
C5_3 C 0.5384(3) 0.8059(3) 0.55596(15)
H3_3 H 0.5786 0.7960 0.5833
C6_3 C 0.4381(3) 0.7820(3) 0.49865(15)
H4_3 H 0.3938 0.7515 0.4773
Zn5_3 Zn 0.40998(4) 0.97750(4) 0.447334(18)
N8_3 N 0.3766(3) 0.5391(3) 0.50321(13)
N9_3 N 0.6084(3) 0.5275(3) 0.53416(13)
N1_4 N 0.7656(3) 0.4855(3) 0.53457(13)
N2_4 N 0.6234(3) 0.4609(3) 0.49679(13)
C5_4 C 0.6941(3) 0.5384(3) 0.55596(15)
H3_4 H 0.7040 0.5786 0.5833
C6_4 C 0.7180(3) 0.4381(3) 0.49865(15)
H4_4 H 0.7485 0.3938 0.4773
Zn5_4 Zn 0.52250(4) 0.40998(4) 0.447334(18)
N8_4 N 0.9609(3) 0.3766(3) 0.50321(13)
C4_5 C 0.0008(5) 0.1030(5) 0.2151(2)
H2_5 H 0.0346 0.1401 0.1917
O3_5 O 0.0554(3) 0.1398(3) 0.36644(13)
C9_5 C 0.0203(5) 0.1184(6) 0.2643(2)
H5_5 H 0.0698 0.1627 0.2736
O2_2 O 0.9516(3) 0.0747(3) 0.11662(15)
N1_5 N 0.7656(3) 0.0145(3) 0.03457(13)
C1_5 C 0.9117(5) 0.0148(5) 0.1466(2)
C2_5 C 0.9320(5) 0.0336(5) 0.2001(2)
O4_5 O 0.9253(3) 0.0484(3) 0.38338(15)
C7_5 C 0.9852(5) 0.0883(5) 0.3534(2)
C8_5 C 0.9664(5) 0.0680(5) 0.2999(2)
C6_5 C 0.7180(3) 0.0619(3) 0.99865(15)
H4_5 H 0.7485 0.1062 0.9773
O1_2 O 0.8602(3) 0.9446(3) 0.13356(13)
N3_3 N 0.6084(3) 0.9725(3) 0.03416(13)
C3_5 C 0.8816(6) 0.9797(5) 0.2357(2)
H1_5 H 0.8373 0.9302 0.2264
C5_5 C 0.6941(3) 0.9616(3) 0.05596(15)
H3_5 H 0.7040 0.9214 0.0833
C10_5 C 0.8970(5) 0.9992(5) 0.2849(2)
H6_5 H 0.8599 0.9654 0.3083
N4_5 N 0.4855(3) 0.7656(3) 0.03457(13)
N6_4 N 0.5275(3) 0.6084(3) 0.03416(13)
C11_5 C 0.5384(3) 0.6941(3) 0.05596(15)
H7_5 H 0.5786 0.7040 0.0833
O5_4 O 0.5554(3) 0.8602(3) 0.13356(13)
O6_4 O 0.4253(3) 0.9516(3) 0.11662(15)
N9_4 N 0.9725(3) 0.8916(3) 0.03416(13)
C12_5 C 0.4381(3) 0.7180(3) 0.99865(15)
H8_5 H 0.3938 0.7485 0.9773
C4_6 C 0.3970(5) 0.0008(5) 0.2151(2)
H2_6 H 0.3599 0.0346 0.1917
O3_6 O 0.3602(3) 0.0554(3) 0.36644(13)
C9_6 C 0.3816(6) 0.0203(5) 0.2643(2)
H5_6 H 0.3373 0.0698 0.2736
C1_6 C 0.4852(5) 0.9117(5) 0.1466(2)
C2_6 C 0.4664(5) 0.9320(5) 0.2001(2)
C3_6 C 0.5203(5) 0.8816(6) 0.2357(2)
H1_6 H 0.5698 0.8373 0.2264
O4_6 O 0.4516(3) 0.9253(3) 0.38338(15)
C7_6 C 0.4117(5) 0.9852(5) 0.3534(2)
C8_6 C 0.4320(5) 0.9664(5) 0.2999(2)
C10_6 C 0.5008(5) 0.8970(5) 0.2849(2)
H6_6 H 0.5346 0.8599 0.3083
N4_6 N 0.7344(3) 0.4855(3) 0.03457(13)
N6_5 N 0.8916(3) 0.5275(3) 0.03416(13)
C11_6 C 0.8059(3) 0.5384(3) 0.05596(15)
H7_6 H 0.7960 0.5786 0.0833
O5_5 O 0.6398(3) 0.5554(3) 0.13356(13)
O6_5 O 0.5484(3) 0.4253(3) 0.11662(15)
C12_6 C 0.7820(3) 0.4381(3) 0.99865(15)
H8_6 H 0.7515 0.3938 0.9773
N4_7 N 0.0145(3) 0.7344(3) 0.03457(13)
O6_6 O 0.0747(3) 0.5484(3) 0.11662(15)
C12_7 C 0.0619(3) 0.7820(3) 0.99865(15)
H8_7 H 0.1062 0.7515 0.9773
C1_7 C 0.5883(5) 0.4852(5) 0.1466(2)
C2_7 C 0.5680(5) 0.4664(5) 0.2001(2)
C3_7 C 0.6184(6) 0.5203(5) 0.2357(2)
H1_7 H 0.6627 0.5698 0.2264
C4_7 C 0.4992(5) 0.3970(5) 0.2151(2)
H2_7 H 0.4654 0.3599 0.1917
O3_7 O 0.4446(3) 0.3602(3) 0.36644(13)
O4_7 O 0.5747(3) 0.4516(3) 0.38338(15)
C7_7 C 0.5148(5) 0.4117(5) 0.3534(2)
C8_7 C 0.5336(5) 0.4320(5) 0.2999(2)
C9_7 C 0.4797(5) 0.3816(6) 0.2643(2)
H5_7 H 0.4302 0.3373 0.2736
C10_7 C 0.6030(5) 0.5008(5) 0.2849(2)
H6_7 H 0.6401 0.5346 0.3083
C11_7 C 0.9616(3) 0.8059(3) 0.05596(15)
H7_7 H 0.9214 0.7960 0.0833
O5_6 O 0.9446(3) 0.6398(3) 0.13356(13)
C1_8 C 0.0148(5) 0.5883(5) 0.1466(2)
C2_8 C 0.0336(5) 0.5680(5) 0.2001(2)
C4_8 C 0.1030(5) 0.4992(5) 0.2151(2)
H2_8 H 0.1401 0.4654 0.1917
O3_8 O 0.1398(3) 0.4446(3) 0.36644(13)
O4_8 O 0.0484(3) 0.5747(3) 0.38338(15)
C7_8 C 0.0883(5) 0.5148(5) 0.3534(2)
C8_8 C 0.0680(5) 0.5336(5) 0.2999(2)
C9_8 C 0.1184(6) 0.4797(5) 0.2643(2)
H5_8 H 0.1627 0.4302 0.2736
C3_8 C 0.9797(5) 0.6184(6) 0.2357(2)
H1_8 H 0.9302 0.6627 0.2264
C10_8 C 0.9992(5) 0.6030(5) 0.2849(2)
H6_8 H 0.9654 0.6401 0.3083
N3_4 N 0.1084(3) 0.0275(3) 0.46584(13)
C5_6 C 0.1941(3) 0.0384(3) 0.44404(15)
H3_6 H 0.2040 0.0786 0.4167
N6_6 N 0.0275(3) 0.3916(3) 0.46584(13)
C11_8 C 0.0384(3) 0.3059(3) 0.44404(15)
H7_8 H 0.0786 0.2960 0.4167
N9_5 N 0.4725(3) 0.1084(3) 0.46584(13)
N1_6 N 0.2656(3) 0.9855(3) 0.46543(13)
C6_6 C 0.2180(3) 0.9381(3) 0.50135(15)
H4_6 H 0.2485 0.8938 0.5227
N4_8 N 0.9855(3) 0.2344(3) 0.46543(13)
C12_8 C 0.9381(3) 0.2820(3) 0.50135(15)
H8_8 H 0.8938 0.2515 0.5227
N1_7 N 0.5145(3) 0.2656(3) 0.46543(13)
C5_7 C 0.4616(3) 0.1941(3) 0.44404(15)
H3_7 H 0.4214 0.2040 0.4167
C6_7 C 0.5619(3) 0.2180(3) 0.50135(15)
H4_7 H 0.6062 0.2485 0.5227
N9_6 N 0.3916(3) 0.4725(3) 0.46584(13)
N1_8 N 0.2344(3) 0.5145(3) 0.46543(13)
C5_8 C 0.3059(3) 0.4616(3) 0.44404(15)
H3_8 H 0.2960 0.4214 0.4167
C6_8 C 0.2820(3) 0.5619(3) 0.50135(15)
H4_8 H 0.2515 0.6062 0.5227
loop_
_geom_bond_atom_site_label_1
_geom_bond_atom_site_label_2
_geom_bond_site_symmetry_1
_geom_bond_site_symmetry_2
H8 C12 1_555 1_555
Zn6 N5 1_555 1_555
N5 C12 1_555 1_555
N3 C5 1_555 1_555
H1 C3 1_555 1_555
H3 C5 1_555 1_555
C10 C3 1_555 1_555
H6 C10 1_555 1_555
Zn2 N3 1_555 1_555
N4 Zn2 1_555 1_555
N6 C11 1_555 1_555
C11 N4 1_555 1_555
H7 C11 1_555 1_555
Zn3 N6 1_555 1_555
O5 Zn2 1_555 1_555
O6 Zn2 1_555 1_555
N7 Zn2 1_555 1_555
H4 C6 1_555 1_555
Zn5 N2 1_555 1_555
N2 C6 1_555 1_555
O2 Zn1 1_555 1_555
N1 Zn1 1_555 1_555
C1 O2 1_555 1_555
C2 C1 1_555 1_555
O4 C7 1_555 1_555
C7 C8 1_555 1_555
N8 Zn1 1_555 1_555
O4 Zn4 1_555 1_555
H2 C4 1_555 1_555
C9 C4 1_555 1_555
H5 C9 1_555 1_555
H8_2 C12_2 1_555 1_555
Zn6_2 N5_2 1_555 1_555
N5_2 C12_2 1_555 1_555
O5 C1_2 1_555 1_555
C1_2 O6 1_555 1_555
C2_2 C1_2 1_555 1_555
C3_2 C2_2 1_555 1_555
H1_2 C3_2 1_555 1_555
O4_2 C7_2 1_555 1_555
C7_2 C8_2 1_555 1_555
C10_2 C3_2 1_555 1_555
H6_2 C10_2 1_555 1_555
N4_2 Zn3 1_555 1_555
N6_2 C11_2 1_555 1_555
C11_2 N4_2 1_555 1_555
H7_2 C11_2 1_555 1_555
O5_2 Zn3 1_555 1_555
O6_2 Zn3 1_555 1_555
N7_2 Zn3 1_555 1_555
O4_2 Zn4_2 1_555 1_555
C8_2 C10_2 1_555 1_555
H2_2 C4_2 1_555 1_555
C9_2 C4_2 1_555 1_555
H5_2 C9_2 1_555 1_555
O5_2 C1_3 1_555 1_555
C1_3 O6_2 1_555 1_555
C2_3 C1_3 1_555 1_555
C3_3 C2_3 1_555 1_555
H1_3 C3_3 1_555 1_555
C4_3 C2_3 1_555 1_555
H2_3 C4_3 1_555 1_555
O3_3 C7_3 1_555 1_555
O4_3 C7_3 1_555 1_555
C7_3 C8_3 1_555 1_555
C8_3 C9_3 1_555 1_555
C9_3 C4_3 1_555 1_555
H5_3 C9_3 1_555 1_555
C10_3 C3_3 1_555 1_555
H6_3 C10_3 1_555 1_555
N9 C11_3 1_555 1_555
H7_3 C11_3 1_555 1_555
Zn4_3 O3_3 1_555 1_555
O4_3 Zn4_3 1_555 1_555
C8_3 C10_3 1_555 1_555
H8_3 C12_3 1_555 1_555
Zn6_3 N5_3 1_555 1_555
N5_3 C12_3 1_555 1_555
N4_3 Zn3_2 1_555 1_555
O6_3 Zn3_2 1_555 1_555
N7_3 Zn3_2 1_555 1_555
H1_4 C3_4 1_555 1_555
C10_4 C3_4 1_555 1_555
H6_4 C10_4 1_555 1_555
C1_4 O6_3 1_555 1_555
C2_4 C1_4 1_555 1_555
C4_4 C2_4 1_555 1_555
H2_4 C4_4 1_555 1_555
O3_4 C7_4 1_555 1_555
O4_4 C7_4 1_555 1_555
C7_4 C8_4 1_555 1_555
C8_4 C9_4 1_555 1_555
C9_4 C4_4 1_555 1_555
H5_4 C9_4 1_555 1_555
Zn4_4 O3_4 1_555 1_555
O4_4 Zn4_4 1_555 1_555
N4_4 Zn4 1_555 1_555
C12_4 N4_4 1_555 1_555
H8_4 C12_4 1_555 1_555
Zn6_4 N5_4 1_555 1_555
N7_4 Zn4 1_555 1_555
N5_4 C12_4 1_555 1_555
N1_2 Zn4_2 1_555 1_555
C6_2 N1_2 1_555 1_555
H4_2 C6_2 1_555 1_555
Zn5_2 N2_2 1_555 1_555
N8_2 Zn4_2 1_555 1_555
N2_2 C6_2 1_555 1_555
N3_2 C5_2 1_555 1_555
H3_2 C5_2 1_555 1_555
N6_3 C11_4 1_555 1_555
H7_4 C11_4 1_555 1_555
Zn4_4 N6_3 1_555 1_555
N1_3 Zn4_3 1_555 1_555
N2_3 N9_2 1_555 1_555
N9_2 C5_3 1_555 1_555
C5_3 N1_3 1_555 1_555
H3_3 C5_3 1_555 1_555
C6_3 N1_3 1_555 1_555
H4_3 C6_3 1_555 1_555
Zn5_3 N2_3 1_555 1_555
N8_3 Zn4_3 1_555 1_555
N9_3 Zn4_3 1_555 1_555
N2_3 C6_3 1_555 1_555
N1_4 Zn4_4 1_555 1_555
N2_4 N9_3 1_555 1_555
N9_3 C5_4 1_555 1_555
C5_4 N1_4 1_555 1_555
H3_4 C5_4 1_555 1_555
C6_4 N1_4 1_555 1_555
H4_4 C6_4 1_555 1_555
Zn5_4 N2_4 1_555 1_555
N8_4 Zn4_4 1_555 1_555
N2_4 C6_4 1_555 1_555
H2_5 C4_5 1_555 1_555
C9_5 C4_5 1_555 1_555
H5_5 C9_5 1_555 1_555
O2_2 Zn6_3 1_555 1_555
N1_5 Zn6_3 1_555 1_555
C1_5 O2_2 1_555 1_555
C2_5 C1_5 1_555 1_555
O4_5 C7_5 1_555 1_555
C7_5 C8_5 1_555 1_555
O4_5 Zn5_2 1_555 1_555
H4_5 C6_5 1_555 1_555
N7 C6_5 1_555 1_555
N3_3 C5_5 1_555 1_555
H1_5 C3_5 1_555 1_555
H3_5 C5_5 1_555 1_555
C10_5 C3_5 1_555 1_555
H6_5 C10_5 1_555 1_555
Zn5 N3_3 1_555 1_555
N4_5 Zn5 1_555 1_555
N6_4 C11_5 1_555 1_555
C11_5 N4_5 1_555 1_555
H7_5 C11_5 1_555 1_555
Zn6 N6_4 1_555 1_555
O5_4 Zn5 1_555 1_555
O6_4 Zn5 1_555 1_555
H8_5 C12_5 1_555 1_555
N7_2 C12_5 1_555 1_555
H2_6 C4_6 1_555 1_555
C9_6 C4_6 1_555 1_555
H5_6 C9_6 1_555 1_555
O5_4 C1_6 1_555 1_555
C1_6 O6_4 1_555 1_555
C2_6 C1_6 1_555 1_555
C3_6 C2_6 1_555 1_555
H1_6 C3_6 1_555 1_555
O4_6 C7_6 1_555 1_555
C7_6 C8_6 1_555 1_555
C10_6 C3_6 1_555 1_555
H6_6 C10_6 1_555 1_555
N4_6 Zn6 1_555 1_555
N6_5 C11_6 1_555 1_555
C11_6 N4_6 1_555 1_555
H7_6 C11_6 1_555 1_555
O5_5 Zn6 1_555 1_555
O6_5 Zn6 1_555 1_555
O4_6 Zn5_3 1_555 1_555
C8_6 C10_6 1_555 1_555
H8_6 C12_6 1_555 1_555
N7_3 C12_6 1_555 1_555
N4_7 Zn6_2 1_555 1_555
O6_6 Zn6_2 1_555 1_555
H8_7 C12_7 1_555 1_555
N8 C12_7 1_555 1_555
O5_5 C1_7 1_555 1_555
C1_7 O6_5 1_555 1_555
C2_7 C1_7 1_555 1_555
C3_7 C2_7 1_555 1_555
H1_7 C3_7 1_555 1_555
C4_7 C2_7 1_555 1_555
H2_7 C4_7 1_555 1_555
O3_7 C7_7 1_555 1_555
O4_7 C7_7 1_555 1_555
C7_7 C8_7 1_555 1_555
C8_7 C9_7 1_555 1_555
C9_7 C4_7 1_555 1_555
H5_7 C9_7 1_555 1_555
C10_7 C3_7 1_555 1_555
H6_7 C10_7 1_555 1_555
N9_4 C11_7 1_555 1_555
H7_7 C11_7 1_555 1_555
Zn5_4 O3_7 1_555 1_555
O4_7 Zn5_4 1_555 1_555
C8_7 C10_7 1_555 1_555
C1_8 O6_6 1_555 1_555
C2_8 C1_8 1_555 1_555
C4_8 C2_8 1_555 1_555
H2_8 C4_8 1_555 1_555
O3_8 C7_8 1_555 1_555
O4_8 C7_8 1_555 1_555
C7_8 C8_8 1_555 1_555
C8_8 C9_8 1_555 1_555
C9_8 C4_8 1_555 1_555
H5_8 C9_8 1_555 1_555
Zn6_4 O3_8 1_555 1_555
O4_8 Zn6_4 1_555 1_555
H1_8 C3_8 1_555 1_555
C10_8 C3_8 1_555 1_555
H6_8 C10_8 1_555 1_555
N3_4 C5_6 1_555 1_555
H3_6 C5_6 1_555 1_555
N6_6 C11_8 1_555 1_555
H7_8 C11_8 1_555 1_555
Zn6_4 N6_6 1_555 1_555
N1_6 Zn5_3 1_555 1_555
C6_6 N1_6 1_555 1_555
H4_6 C6_6 1_555 1_555
N7_4 C6_6 1_555 1_555
N4_8 Zn5_2 1_555 1_555
C12_8 N4_8 1_555 1_555
H8_8 C12_8 1_555 1_555
N8_4 C12_8 1_555 1_555
N1_7 Zn5_4 1_555 1_555
N8_2 N9_5 1_555 1_555
N9_5 C5_7 1_555 1_555
C5_7 N1_7 1_555 1_555
H3_7 C5_7 1_555 1_555
C6_7 N1_7 1_555 1_555
H4_7 C6_7 1_555 1_555
N9_6 Zn5_4 1_555 1_555
N8_2 C6_7 1_555 1_555
N1_8 Zn6_4 1_555 1_555
N8_3 N9_6 1_555 1_555
N9_6 C5_8 1_555 1_555
C5_8 N1_8 1_555 1_555
H3_8 C5_8 1_555 1_555
C6_8 N1_8 1_555 1_555
H4_8 C6_8 1_555 1_555
N8_3 C6_8 1_555 1_555

#END
