
###############################################################################
#
# This file contains modified crystal structure data generated from the
# MOF subset of the Cambridge Structural Database (CSD) v543 
# hosted by the Cambridge Crystallographic Data Centre (CCDC).
#
# This work is licensed under the Creative Commons
# Attribution-NonCommercial-ShareAlike 4.0 International License.
# To view a copy of this license, visit
# http://creativecommons.org/licenses/by-nc-sa/4.0/
# or send a letter to
# Creative Commons, PO Box 1866, Mountain View, CA 94042, USA.
#
# CIF created using the CSD Python API on 29 September 2022
# The structure has been converted into the P1 space group
# The structure has a 3D framework
# The original CSD entry QOTBOT is in the triclinic crystal system
# The framework has been calculated to contain at least 10.0% void space
# The void calculation uses a probe of radius 1.32A, grid spacing 0.4
# The framework is charged, counterions have been retained in the structure
#
###############################################################################

data_QOTBOT
_chemical_formula_moiety         '(C116 H100 Ca7 N18 O28)n'
_symmetry_cell_setting           triclinic
_symmetry_space_group_name_H-M   'P 1'
_symmetry_Int_Tables_number      1
_space_group_name_Hall           'P 1'
loop_
_symmetry_equiv_pos_site_id
_symmetry_equiv_pos_as_xyz
1 x,y,z
_cell_length_a                   17.0982(5)
_cell_length_b                   17.2327(5)
_cell_length_c                   17.9411(3)
_cell_angle_alpha                93.378(2)
_cell_angle_beta                 113.121(2)
_cell_angle_gamma                118.414(3)
_cell_volume                     4073.87
loop_
_atom_site_label
_atom_site_type_symbol
_atom_site_fract_x
_atom_site_fract_y
_atom_site_fract_z
H3 H 0.7659 0.3624 0.0243
H5 H 0.9785 0.3368 0.0133
N1 N 0.8781(3) 0.3523(2) 0.03169(19)
H7 H 0.8626 0.3071 0.0556
H8 H 0.9258 0.4055 0.0733
C1 C 0.7906(4) 0.3550(4) 0.9864(4)
H1 H 0.7390 0.2983 0.9407
H2 H 0.8076 0.4062 0.9636
C2 C 0.9195(4) 0.3373(4) 0.9787(3)
H4 H 0.8695 0.2790 0.9348
H6 H 0.9376 0.3863 0.9534
C1_2 C 0.2094(4) 0.6450(4) 0.0136(4)
H1_2 H 0.2610 0.7017 0.0593
H2_2 H 0.1924 0.5938 0.0364
C2_2 C 0.0805(4) 0.6627(4) 0.0213(3)
H4_2 H 0.1305 0.7210 0.0652
H6_2 H 0.0624 0.6137 0.0466
H3_2 H 0.2341 0.6376 0.9757
H5_2 H 0.0215 0.6632 0.9867
N1_2 N 0.1219(3) 0.6477(2) 0.96831(19)
H7_2 H 0.1374 0.6929 0.9444
H8_2 H 0.0742 0.5945 0.9267
C73 C 0.0215(2) 0.7792(2) 0.8470(2)
O19 O 0.06689(17) 0.86414(16) 0.8608(2)
O20 O 0.05666(13) 0.73287(14) 0.83387(12)
Ca10 Ca 0.05668(4) 0.65141(4) 0.72333(4)
Ca16 Ca 0.22681(3) 0.88210(3) 0.87898(3)
Ca3 Ca 0.5000 0.0000 0.0000
Ca13 Ca 0.77319(3) 0.11790(3) 0.12102(3)
O47 O 0.63371(13) 0.14378(12) 0.09825(13)
C10 C 0.8592(3) 0.1987(3) 0.3418(2)
C11 C 0.7953(3) 0.1356(2) 0.3767(2)
C12 C 0.7064(3) 0.0525(3) 0.3251(2)
H13 H 0.6868 0.0329 0.2678
C14 C 0.6724(3) 0.0267(2) 0.44240(19)
C15 C 0.7619(3) 0.1093(3) 0.4943(2)
H15 H 0.7815 0.1288 0.5517
C16 C 0.8229(3) 0.1635(3) 0.4621(2)
H16 H 0.8833 0.2193 0.4980
C17 C 0.6802(2) 0.0718(2) 0.93715(17)
C18 C 0.6490(2) 0.0418(2) 0.84421(17)
C19 C 0.7176(3) 0.0849(3) 0.8148(2)
H17 H 0.7833 0.1335 0.8529
C20 C 0.6905(3) 0.0573(3) 0.7301(2)
H18 H 0.7373 0.0881 0.7114
Ca3_2 Ca 0.5000 0.0000 1.0000
N3 N 0.6330(2) 0.00244(19) 0.55749(16)
O3 O 0.83115(18) 0.17420(19) 0.26410(14)
O4 O 0.9362(3) 0.2745(2) 0.38971(18)
O5 O 0.76389(18) 0.14311(17) 0.98569(13)
O6 O 0.62104(15) 0.02116(14) 0.96290(12)
Ca8 Ca 0.94332(4) 0.34859(4) 0.27667(4)
O38 O 0.4171(2) 0.04939(17) 0.89993(15)
O44 O 0.77852(14) 0.27712(13) 0.14976(15)
O48 O 0.93311(17) 0.13586(16) 0.1392(2)
O51 O 0.94334(13) 0.26713(14) 0.16613(12)
C27 C 0.6384(3) 0.9203(2) 0.1147(2)
C28 C 0.5967(2) 0.8223(2) 0.1198(2)
C29 C 0.5044(3) 0.7737(2) 0.1196(3)
H21 H 0.4689 0.8016 0.1173
C30 C 0.4655(3) 0.6840(2) 0.1228(3)
H22 H 0.4035 0.6518 0.1223
C31 C 0.5168(2) 0.6409(2) 0.1267(3)
C32 C 0.6080(3) 0.6891(2) 0.1262(3)
H23 H 0.6430 0.6608 0.1272
C33 C 0.6475(3) 0.7798(3) 0.1241(3)
H24 H 0.7101 0.8124 0.1256
C34 C 0.68538(18) 0.23006(17) 0.12526(16)
C35 C 0.63278(19) 0.27922(18) 0.12725(18)
C36 C 0.6851(2) 0.3752(2) 0.1486(3)
H25 H 0.7531 0.4093 0.1625
C37 C 0.6367(2) 0.4203(2) 0.1494(3)
H26 H 0.6721 0.4846 0.1635
C38 C 0.5349(2) 0.3697(2) 0.1290(2)
C39 C 0.4836(2) 0.2742(2) 0.1102(2)
H27 H 0.4168 0.2404 0.0997
C40 C 0.5314(2) 0.22887(19) 0.1071(2)
H28 H 0.4955 0.1645 0.0915
C42 C 0.0776(2) 0.2722(2) 0.1510(2)
C43 C 0.1147(3) 0.2243(2) 0.1289(3)
H29 H 0.0787 0.1601 0.1156
C44 C 0.2048(3) 0.2707(3) 0.1262(4)
H30 H 0.2307 0.2379 0.1138
C45 C 0.2569(2) 0.3658(2) 0.1417(3)
C46 C 0.2195(2) 0.4136(2) 0.1627(3)
H31 H 0.2541 0.4776 0.1736
C47 C 0.1299(2) 0.3670(2) 0.1677(3)
H32 H 0.1054 0.4000 0.1823
C48 C 0.4741(2) 0.5442(2) 0.1303(3)
C49 C 0.4824(2) 0.4174(2) 0.1306(2)
C50 C 0.3520(2) 0.4151(2) 0.1357(3)
Ca3_3 Ca 0.5000 1.0000 0.0000
N5 N 0.5252(2) 0.50492(18) 0.1285(2)
N6 N 0.3958(2) 0.36932(18) 0.1338(2)
N7 N 0.3876(2) 0.50256(18) 0.1343(2)
O7 O 0.5829(2) 0.95061(17) 0.10007(15)
O8 O 0.7271(2) 0.96606(17) 0.1258(2)
O37 O 0.37896(15) 0.97884(14) 0.03710(12)
C3 C 0.0576(3) 0.5323(2) 0.2115(2)
C4 C 0.1595(3) 0.6162(2) 0.2738(2)
C5 C 0.1837(3) 0.6467(3) 0.3581(2)
H9 H 0.1358 0.6160 0.3759
C6 C 0.2780(3) 0.7219(3) 0.4148(2)
H10 H 0.2935 0.7410 0.4711
C7 C 0.3505(3) 0.7698(2) 0.3902(2)
C8 C 0.3260(3) 0.7392(3) 0.3062(2)
H11 H 0.3735 0.7701 0.2881
C9 C 0.2315(3) 0.6633(3) 0.2495(2)
H12 H 0.2162 0.6436 0.1935
C13 C 0.6459(3) 0.9977(3) 0.3572(2)
H14 H 0.5868 0.9409 0.3218
C21 C 0.5934(2) 0.9838(2) 0.67294(18)
C22 C 0.5237(2) 0.9406(2) 0.70207(19)
H19 H 0.4580 0.8920 0.6640
C23 C 0.5510(2) 0.9687(2) 0.78613(19)
H20 H 0.5037 0.9389 0.8047
C24 C 0.4510(2) 0.8516(2) 0.45033(19)
C25 C 0.6031(2) 0.9710(2) 0.47518(18)
C26 C 0.5646(2) 0.9524(2) 0.58205(18)
C51 C 0.1746(5) 0.3731(6) 0.3733(4)
C52 C 0.1309(8) 0.2677(7) 0.3731(6)
H33 H 0.1480 0.2393 0.3397
H34 H 0.0586 0.2347 0.3491
H35 H 0.1600 0.2659 0.4304
C53 C 0.3019(5) 0.5184(5) 0.3928(6)
H36 H 0.3035 0.5227 0.3403
H37 H 0.3685 0.5607 0.4397
H38 H 0.2558 0.5337 0.3959
C54 C 0.3316(8) 0.3851(9) 0.4145(9)
H39 H 0.3664 0.3954 0.4746
H40 H 0.3803 0.4146 0.3950
H41 H 0.2894 0.3198 0.3855
Ca3_4 Ca 0.5000 1.0000 1.0000
N2 N 0.5139(2) 0.8960(2) 0.41948(16)
N4 N 0.4718(2) 0.8774(2) 0.53130(16)
N8 N 0.2681(5) 0.4244(7) 0.3967(5)
O1 O 0.0019(2) 0.48035(18) 0.23822(19)
O2 O 0.0367(2) 0.5185(2) 0.13461(18)
O13 O 0.1134(2) 0.3963(2) 0.35294(19)
C59 C 0.3616(3) 0.0797(2) 0.8853(2)
C60 C 0.4033(2) 0.1777(2) 0.8802(2)
C61 C 0.4956(3) 0.2263(2) 0.8804(3)
H51 H 0.5311 0.1984 0.8827
C62 C 0.5345(3) 0.3160(2) 0.8772(3)
H52 H 0.5965 0.3482 0.8777
C63 C 0.4832(2) 0.3591(2) 0.8733(3)
C64 C 0.3920(3) 0.3109(2) 0.8738(3)
H53 H 0.3570 0.3392 0.8728
C65 C 0.3525(3) 0.2202(3) 0.8759(3)
H54 H 0.2899 0.1876 0.8744
C66 C 0.31462(18) 0.76994(17) 0.87474(16)
C67 C 0.36722(19) 0.72078(18) 0.87275(18)
C68 C 0.3149(2) 0.6248(2) 0.8514(3)
H55 H 0.2469 0.5907 0.8375
C69 C 0.3633(2) 0.5797(2) 0.8506(3)
H56 H 0.3279 0.5154 0.8365
C70 C 0.4651(2) 0.6303(2) 0.8710(2)
C71 C 0.5164(2) 0.7258(2) 0.8898(2)
H57 H 0.5832 0.7596 0.9003
C72 C 0.4686(2) 0.77113(19) 0.8929(2)
H58 H 0.5045 0.8355 0.9085
C74 C 0.9224(2) 0.7278(2) 0.8490(2)
C75 C 0.8853(3) 0.7757(2) 0.8711(3)
H59 H 0.9213 0.8399 0.8844
C76 C 0.7952(3) 0.7293(3) 0.8738(4)
H60 H 0.7693 0.7621 0.8862
C77 C 0.7431(2) 0.6342(2) 0.8583(3)
C78 C 0.7805(2) 0.5864(2) 0.8373(3)
H61 H 0.7459 0.5224 0.8264
C79 C 0.8701(2) 0.6330(2) 0.8323(3)
H62 H 0.8946 0.6000 0.8177
C80 C 0.5259(2) 0.4558(2) 0.8697(3)
C81 C 0.5176(2) 0.5826(2) 0.8694(2)
C82 C 0.6480(2) 0.5849(2) 0.8643(3)
N10 N 0.4748(2) 0.49508(18) 0.8715(2)
N11 N 0.6042(2) 0.63068(18) 0.8662(2)
N12 N 0.6124(2) 0.49744(18) 0.8657(2)
O16 O 0.2729(2) 0.03394(17) 0.8742(2)
O17 O 0.22148(14) 0.72288(13) 0.85024(15)
O18 O 0.36629(13) 0.85622(12) 0.90175(13)
C41 C 0.9785(2) 0.2208(2) 0.1530(2)
C55 C 0.8727(7) 0.4576(8) 0.3780(6)
C56 C 0.9397(8) 0.5644(7) 0.4057(8)
H42 H 0.9653 0.5836 0.3667
H43 H 0.9953 0.5866 0.4619
H44 H 0.9001 0.5893 0.4059
C57 C 0.7242(8) 0.3209(7) 0.3569(6)
H45 H 0.6646 0.3041 0.3056
H46 H 0.7053 0.2981 0.3986
H47 H 0.7578 0.2942 0.3451
C58 C 0.7761(9) 0.4837(9) 0.4393(9)
H48 H 0.8289 0.5144 0.4973
H49 H 0.7132 0.4407 0.4377
H50 H 0.7697 0.5288 0.4129
N9 N 0.8010(7) 0.4341(8) 0.3936(6)
O14 O 0.8826(4) 0.4084(4) 0.3384(3)
C111 C 0.1273(7) 0.5424(8) 0.6220(6)
C112 C 0.0603(8) 0.4356(7) 0.5943(8)
H84 H 0.0347 0.4164 0.6333
H85 H 0.0047 0.4134 0.5381
H86 H 0.0999 0.4107 0.5941
C113 C 0.2758(8) 0.6791(7) 0.6431(6)
H87 H 0.3354 0.6959 0.6944
H88 H 0.2947 0.7019 0.6014
H89 H 0.2422 0.7058 0.6549
C114 C 0.2239(9) 0.5163(9) 0.5607(9)
H90 H 0.1711 0.4856 0.5027
H91 H 0.2868 0.5593 0.5623
H92 H 0.2303 0.4712 0.5871
N17 N 0.1990(7) 0.5659(8) 0.6064(6)
O28 O 0.1174(4) 0.5916(4) 0.6616(3)
O29 O 0.16885(18) 0.82580(19) 0.73590(14)
O31 O 0.0638(3) 0.7255(2) 0.61029(18)
C83 C 0.9424(3) 0.4677(2) 0.7885(2)
C84 C 0.8405(3) 0.3838(2) 0.7262(2)
C85 C 0.8163(3) 0.3533(3) 0.6419(2)
H63 H 0.8642 0.3840 0.6241
C86 C 0.7220(3) 0.2781(3) 0.5852(2)
H64 H 0.7065 0.2590 0.5289
C87 C 0.6495(3) 0.2302(2) 0.6098(2)
C88 C 0.6740(3) 0.2608(3) 0.6938(2)
H65 H 0.6265 0.2299 0.7119
C89 C 0.7685(3) 0.3367(3) 0.7505(2)
H66 H 0.7838 0.3564 0.8065
C93 C 0.3541(3) 0.0023(3) 0.6428(2)
H68 H 0.4132 0.0591 0.6782
C101 C 0.4066(2) 0.0162(2) 0.32706(18)
C102 C 0.4763(2) 0.0594(2) 0.29793(19)
H73 H 0.5420 0.1080 0.3360
C103 C 0.4490(2) 0.0313(2) 0.21387(19)
H74 H 0.4963 0.0611 0.1953
C104 C 0.5490(2) 0.1484(2) 0.54967(19)
C105 C 0.3969(2) 0.0290(2) 0.52482(18)
C106 C 0.4354(2) 0.0476(2) 0.41795(18)
C107 C 0.8254(5) 0.6269(6) 0.6267(4)
C108 C 0.8691(8) 0.7323(7) 0.6269(6)
H75 H 0.8520 0.7607 0.6603
H76 H 0.9414 0.7653 0.6509
H77 H 0.8400 0.7341 0.5696
C109 C 0.6981(5) 0.4816(5) 0.6072(6)
H78 H 0.6965 0.4773 0.6597
H79 H 0.6315 0.4393 0.5603
H80 H 0.7442 0.4663 0.6041
C110 C 0.6684(8) 0.6149(9) 0.5855(9)
H81 H 0.6336 0.6046 0.5254
H82 H 0.6197 0.5854 0.6050
H83 H 0.7106 0.6802 0.6145
N13 N 0.4861(2) 0.1040(2) 0.58052(16)
N15 N 0.5282(2) 0.1226(2) 0.46870(16)
N16 N 0.7319(5) 0.5756(7) 0.6033(5)
O21 O 0.9981(2) 0.51965(18) 0.76178(19)
O22 O 0.9633(2) 0.4815(2) 0.86539(18)
O27 O 0.8866(2) 0.6037(2) 0.64706(19)
O33 O 0.23611(18) 0.85689(17) 0.01431(13)
C90 C 0.1408(3) 0.8013(3) 0.6582(2)
C91 C 0.2047(3) 0.8644(2) 0.6233(2)
C92 C 0.2936(3) 0.9475(3) 0.6749(2)
H67 H 0.3132 0.9671 0.7322
C94 C 0.3276(3) 0.9733(2) 0.55760(19)
C95 C 0.2381(3) 0.8907(3) 0.5057(2)
H69 H 0.2185 0.8712 0.4483
C96 C 0.1771(3) 0.8365(3) 0.5379(2)
H70 H 0.1167 0.7807 0.5020
C97 C 0.3198(2) 0.9282(2) 0.06285(17)
C98 C 0.3510(2) 0.9582(2) 0.15579(17)
C99 C 0.2824(3) 0.9151(3) 0.1852(2)
H71 H 0.2167 0.8665 0.1471
C100 C 0.3095(3) 0.9427(3) 0.2699(2)
H72 H 0.2627 0.9119 0.2886
N14 N 0.3670(2) 0.99756(19) 0.44251(16)
loop_
_geom_bond_atom_site_label_1
_geom_bond_atom_site_label_2
_geom_bond_site_symmetry_1
_geom_bond_site_symmetry_2
H7 N1 1_555 1_555
H8 N1 1_555 1_555
C1 H1 1_555 1_555
H2 C1 1_555 1_555
C2 H4 1_555 1_555
H6 C2 1_555 1_555
C1_2 H1_2 1_555 1_555
H2_2 C1_2 1_555 1_555
C2_2 H4_2 1_555 1_555
H6_2 C2_2 1_555 1_555
H7_2 N1_2 1_555 1_555
H8_2 N1_2 1_555 1_555
O19 C73 1_555 1_555
O20 C73 1_555 1_555
Ca10 O20 1_555 1_555
Ca16 O19 1_555 1_555
O20 Ca16 1_555 1_555
O47 Ca3 1_555 1_555
Ca13 O47 1_555 1_555
C10 C11 1_555 1_555
C11 C12 1_555 1_555
C12 H13 1_555 1_555
C15 C14 1_555 1_555
H15 C15 1_555 1_555
C16 C11 1_555 1_555
H16 C16 1_555 1_555
C17 C18 1_555 1_555
C18 C19 1_555 1_555
C19 H17 1_555 1_555
C20 C19 1_555 1_555
H18 C20 1_555 1_555
Ca13 O3 1_555 1_555
Ca3_2 O6 1_555 1_555
O3 C10 1_555 1_555
O4 C10 1_555 1_555
O5 C17 1_555 1_555
O6 C17 1_555 1_555
Ca8 O3 1_555 1_555
O38 Ca3_2 1_555 1_555
O44 Ca13 1_555 1_555
O48 Ca13 1_555 1_555
O51 Ca13 1_555 1_555
C15 C16 1_555 1_555
O4 Ca8 1_555 1_555
Ca8 O44 1_555 1_555
Ca8 O51 1_555 1_555
C27 C28 1_555 1_555
C28 C29 1_555 1_555
C29 H21 1_555 1_555
C30 C29 1_555 1_555
H22 C30 1_555 1_555
C31 C30 1_555 1_555
C32 C31 1_555 1_555
H23 C32 1_555 1_555
C33 C28 1_555 1_555
H24 C33 1_555 1_555
C34 C35 1_555 1_555
C35 C36 1_555 1_555
C36 H25 1_555 1_555
C37 C36 1_555 1_555
H26 C37 1_555 1_555
C38 C37 1_555 1_555
C39 C38 1_555 1_555
H27 C39 1_555 1_555
C40 C35 1_555 1_555
H28 C40 1_555 1_555
C42 C43 1_555 1_555
C43 H29 1_555 1_555
C44 C43 1_555 1_555
H30 C44 1_555 1_555
C45 C44 1_555 1_555
C46 C45 1_555 1_555
H31 C46 1_555 1_555
C47 C42 1_555 1_555
H32 C47 1_555 1_555
C48 C31 1_555 1_555
C49 C38 1_555 1_555
C50 C45 1_555 1_555
N5 C48 1_555 1_555
N6 C49 1_555 1_555
N7 C48 1_555 1_555
O7 C27 1_555 1_555
O8 C27 1_555 1_555
O44 C34 1_555 1_555
O47 C34 1_555 1_555
O37 Ca3_3 1_555 1_555
C32 C33 1_555 1_555
C39 C40 1_555 1_555
C46 C47 1_555 1_555
C49 N5 1_555 1_555
C50 N6 1_555 1_555
C50 N7 1_555 1_555
Ca3_3 O7 1_555 1_555
C3 C4 1_555 1_555
C4 C5 1_555 1_555
C5 H9 1_555 1_555
C6 C5 1_555 1_555
H10 C6 1_555 1_555
C7 C6 1_555 1_555
C8 C7 1_555 1_555
H11 C8 1_555 1_555
C9 C4 1_555 1_555
H12 C9 1_555 1_555
H14 C13 1_555 1_555
C22 C21 1_555 1_555
H19 C22 1_555 1_555
H20 C23 1_555 1_555
C24 C7 1_555 1_555
C26 C21 1_555 1_555
C51 C52 1_555 1_555
C52 H33 1_555 1_555
H34 C52 1_555 1_555
H35 C52 1_555 1_555
C53 H36 1_555 1_555
H37 C53 1_555 1_555
H38 C53 1_555 1_555
C54 H39 1_555 1_555
H40 C54 1_555 1_555
H41 C54 1_555 1_555
N2 C24 1_555 1_555
N4 C24 1_555 1_555
N8 C51 1_555 1_555
O1 C3 1_555 1_555
O2 C3 1_555 1_555
O13 C51 1_555 1_555
C59 C60 1_555 1_555
C60 C61 1_555 1_555
C61 H51 1_555 1_555
C62 C61 1_555 1_555
H52 C62 1_555 1_555
C63 C62 1_555 1_555
C64 C63 1_555 1_555
H53 C64 1_555 1_555
C65 C60 1_555 1_555
H54 C65 1_555 1_555
C66 C67 1_555 1_555
C67 C68 1_555 1_555
C68 H55 1_555 1_555
C69 C68 1_555 1_555
H56 C69 1_555 1_555
C70 C69 1_555 1_555
C71 C70 1_555 1_555
H57 C71 1_555 1_555
C72 C67 1_555 1_555
H58 C72 1_555 1_555
C74 C75 1_555 1_555
C75 H59 1_555 1_555
C76 C75 1_555 1_555
H60 C76 1_555 1_555
C77 C76 1_555 1_555
C78 C77 1_555 1_555
H61 C78 1_555 1_555
C79 C74 1_555 1_555
H62 C79 1_555 1_555
C80 C63 1_555 1_555
C81 C70 1_555 1_555
C82 C77 1_555 1_555
N10 C80 1_555 1_555
N11 C81 1_555 1_555
N12 C80 1_555 1_555
O38 C59 1_555 1_555
O16 C59 1_555 1_555
O17 C66 1_555 1_555
O18 Ca3_4 1_555 1_555
Ca10 O17 1_555 1_555
Ca16 O17 1_555 1_555
C8 C9 1_555 1_555
C22 C23 1_555 1_555
C25 N2 1_555 1_555
C26 N4 1_555 1_555
C53 N8 1_555 1_555
C54 N8 1_555 1_555
C64 C65 1_555 1_555
C66 O18 1_555 1_555
C71 C72 1_555 1_555
C78 C79 1_555 1_555
C81 N10 1_555 1_555
C82 N11 1_555 1_555
C82 N12 1_555 1_555
O18 Ca16 1_555 1_555
O48 C41 1_555 1_555
O51 C41 1_555 1_555
C55 C56 1_555 1_555
C56 H42 1_555 1_555
H43 C56 1_555 1_555
H44 C56 1_555 1_555
C57 H45 1_555 1_555
H46 C57 1_555 1_555
H47 C57 1_555 1_555
C58 H48 1_555 1_555
H49 C58 1_555 1_555
H50 C58 1_555 1_555
N9 C55 1_555 1_555
O14 C55 1_555 1_555
C57 N9 1_555 1_555
C58 N9 1_555 1_555
Ca8 O14 1_555 1_555
C111 C112 1_555 1_555
C112 H84 1_555 1_555
H85 C112 1_555 1_555
H86 C112 1_555 1_555
C113 H87 1_555 1_555
H88 C113 1_555 1_555
H89 C113 1_555 1_555
C114 H90 1_555 1_555
H91 C114 1_555 1_555
H92 C114 1_555 1_555
N17 C111 1_555 1_555
O28 C111 1_555 1_555
O29 Ca10 1_555 1_555
O31 Ca10 1_555 1_555
C113 N17 1_555 1_555
C114 N17 1_555 1_555
Ca10 O28 1_555 1_555
C83 C84 1_555 1_555
C84 C85 1_555 1_555
C85 H63 1_555 1_555
C86 C85 1_555 1_555
H64 C86 1_555 1_555
C87 C86 1_555 1_555
C88 C87 1_555 1_555
H65 C88 1_555 1_555
C89 C84 1_555 1_555
H66 C89 1_555 1_555
H68 C93 1_555 1_555
C102 C101 1_555 1_555
H73 C102 1_555 1_555
H74 C103 1_555 1_555
C104 C87 1_555 1_555
C106 C101 1_555 1_555
C107 C108 1_555 1_555
C108 H75 1_555 1_555
H76 C108 1_555 1_555
H77 C108 1_555 1_555
C109 H78 1_555 1_555
H79 C109 1_555 1_555
H80 C109 1_555 1_555
C110 H81 1_555 1_555
H82 C110 1_555 1_555
H83 C110 1_555 1_555
N13 C104 1_555 1_555
N15 C104 1_555 1_555
N16 C107 1_555 1_555
O21 C83 1_555 1_555
O22 C83 1_555 1_555
O27 C107 1_555 1_555
C88 C89 1_555 1_555
C102 C103 1_555 1_555
C105 N13 1_555 1_555
C106 N15 1_555 1_555
C109 N16 1_555 1_555
C110 N16 1_555 1_555
C90 C91 1_555 1_555
C91 C92 1_555 1_555
C92 H67 1_555 1_555
C95 C94 1_555 1_555
H69 C95 1_555 1_555
C96 C91 1_555 1_555
H70 C96 1_555 1_555
C97 C98 1_555 1_555
C98 C99 1_555 1_555
C99 H71 1_555 1_555
C100 C99 1_555 1_555
H72 C100 1_555 1_555
O29 C90 1_555 1_555
O31 C90 1_555 1_555
O33 C97 1_555 1_555
O37 C97 1_555 1_555
C95 C96 1_555 1_555
Ca16 O29 1_555 1_555

#END
