
###############################################################################
#
# This file contains modified crystal structure data generated from the
# MOF subset of the Cambridge Structural Database (CSD) v543 
# hosted by the Cambridge Crystallographic Data Centre (CCDC).
#
# This work is licensed under the Creative Commons
# Attribution-NonCommercial-ShareAlike 4.0 International License.
# To view a copy of this license, visit
# http://creativecommons.org/licenses/by-nc-sa/4.0/
# or send a letter to
# Creative Commons, PO Box 1866, Mountain View, CA 94042, USA.
#
# CIF created using the CSD Python API on 29 September 2022
# The structure has been converted into the P1 space group
# The structure has a 3D framework
# The original CSD entry QOTKOC is in the hexagonal crystal system
# The framework has been calculated to contain at least 10.0% void space
# The void calculation uses a probe of radius 1.32A, grid spacing 0.4
# The framework is charged, counterions have been retained in the structure
# H atom positions have been added when not included in the experimental data
# Generated hydrogen atom positions removed from atoms on special positions
#
###############################################################################

data_QOTKOC
_chemical_formula_moiety         '(C322 H264 In18 O72 14+)n'
_symmetry_cell_setting           triclinic
_symmetry_space_group_name_H-M   'P 1'
_symmetry_Int_Tables_number      1
_space_group_name_Hall           'P 1'
loop_
_symmetry_equiv_pos_site_id
_symmetry_equiv_pos_as_xyz
1 x,y,z
_cell_length_a                   30.358(4)
_cell_length_b                   30.358
_cell_length_c                   35.177(4)
_cell_angle_alpha                90
_cell_angle_beta                 90
_cell_angle_gamma                120
_cell_volume                     28076
loop_
_atom_site_label
_atom_site_type_symbol
_atom_site_fract_x
_atom_site_fract_y
_atom_site_fract_z
In1 In 0.59235(4) 0.27878(4) 0.0000
O1 O 0.5727(2) 0.3163(2) 0.04319(15)
O2 O 0.6343(3) 0.3997(3) 0.04134(16)
O3 O 0.6667 0.3333 0.0000
O4 O 0.5114(3) 0.2193(3) 0.0000
C1 C 0.5957(5) 0.3635(5) 0.0521(4)
C2 C 0.5677(6) 0.3702(7) 0.0865(5)
C3 C 0.5830(6) 0.4156(6) 0.1018(4)
H1 H 0.6142 0.4427 0.0924
C4 C 0.5595(6) 0.4278(6) 0.1292(5)
H2 H 0.5700 0.4621 0.1355
C5 C 0.5193(6) 0.3872(7) 0.1476(4)
C6 C 0.4983(4) 0.3394(5) 0.1328(4)
H3 H 0.4666 0.3121 0.1412
C7 C 0.5275(5) 0.3341(5) 0.1042(4)
H4 H 0.5170 0.3003 0.0966
C8 C 0.4888(4) 0.4001(4) 0.1784(3)
C9 C 0.5097(3) 0.4481(4) 0.2001(3)
H5 H 0.5433 0.4746 0.1947
C10 C 0.4829(4) 0.4558(3) 0.2274(3)
C11 C 0.4369(4) 0.4175(4) 0.2360(2)
C12 C 0.4115(4) 0.3715(4) 0.2165(3)
H6 H 0.3768 0.3478 0.2216
C13 C 0.4395(5) 0.3606(4) 0.1881(3)
H7 H 0.4252 0.3281 0.1764
C14 C 0.5000 0.5000 0.2500
O5 O 0.4273(2) 0.6837(2) 0.04319(15)
O6 O 0.3657(3) 0.6003(3) 0.04134(16)
C15 C 0.4043(5) 0.6365(5) 0.0521(4)
C16 C 0.4323(6) 0.6298(7) 0.0865(5)
C17 C 0.4170(6) 0.5844(6) 0.1018(4)
H8 H 0.3858 0.5573 0.0924
C18 C 0.4405(6) 0.5722(6) 0.1292(5)
H9 H 0.4300 0.5379 0.1355
C19 C 0.4807(6) 0.6128(7) 0.1476(4)
C20 C 0.5017(4) 0.6606(5) 0.1328(4)
H10 H 0.5334 0.6879 0.1412
C21 C 0.4725(5) 0.6659(5) 0.1042(4)
H11 H 0.4830 0.6997 0.0966
C22 C 0.5112(4) 0.5999(4) 0.1784(3)
C23 C 0.4903(3) 0.5519(4) 0.2001(3)
H12 H 0.4567 0.5254 0.1947
C24 C 0.5171(4) 0.5442(3) 0.2274(3)
C25 C 0.5631(4) 0.5825(4) 0.2360(2)
C26 C 0.5885(4) 0.6285(4) 0.2165(3)
H13 H 0.6232 0.6522 0.2216
C27 C 0.5605(5) 0.6394(4) 0.1881(3)
H14 H 0.5748 0.6719 0.1764
O7 O 0.3163(2) 0.5727(2) 0.45681(15)
O8 O 0.3997(3) 0.6343(3) 0.45866(16)
C28 C 0.3635(5) 0.5957(5) 0.4479(4)
C29 C 0.3702(7) 0.5677(6) 0.4135(5)
C30 C 0.4156(6) 0.5830(6) 0.3982(4)
H15 H 0.4427 0.6142 0.4076
C31 C 0.4278(6) 0.5595(6) 0.3708(5)
H16 H 0.4621 0.5700 0.3645
C32 C 0.3872(7) 0.5193(6) 0.3524(4)
C33 C 0.3394(5) 0.4983(4) 0.3672(4)
H17 H 0.3121 0.4666 0.3588
C34 C 0.3341(5) 0.5275(5) 0.3958(4)
H18 H 0.3003 0.5170 0.4034
C35 C 0.4001(4) 0.4888(4) 0.3216(3)
C36 C 0.4481(4) 0.5097(3) 0.2999(3)
H19 H 0.4746 0.5433 0.3053
C37 C 0.4558(3) 0.4829(4) 0.2726(3)
C38 C 0.4175(4) 0.4369(4) 0.2640(2)
C39 C 0.3715(4) 0.4115(4) 0.2835(3)
H20 H 0.3478 0.3768 0.2784
C40 C 0.3606(4) 0.4395(5) 0.3119(3)
H21 H 0.3281 0.4252 0.3236
O9 O 0.6837(2) 0.4273(2) 0.45681(15)
O10 O 0.6003(3) 0.3657(3) 0.45866(16)
C41 C 0.6365(5) 0.4043(5) 0.4479(4)
C42 C 0.6298(7) 0.4323(6) 0.4135(5)
C43 C 0.5844(6) 0.4170(6) 0.3982(4)
H22 H 0.5573 0.3858 0.4076
C44 C 0.5722(6) 0.4405(6) 0.3708(5)
H23 H 0.5379 0.4300 0.3645
C45 C 0.6128(7) 0.4807(6) 0.3524(4)
C46 C 0.6606(5) 0.5017(4) 0.3672(4)
H24 H 0.6879 0.5334 0.3588
C47 C 0.6659(5) 0.4725(5) 0.3958(4)
H25 H 0.6997 0.4830 0.4034
C48 C 0.5999(4) 0.5112(4) 0.3216(3)
C49 C 0.5519(4) 0.4903(3) 0.2999(3)
H26 H 0.5254 0.4567 0.3053
C50 C 0.5442(3) 0.5171(4) 0.2726(3)
C51 C 0.5825(4) 0.5631(4) 0.2640(2)
C52 C 0.6285(4) 0.5885(4) 0.2835(3)
H27 H 0.6522 0.6232 0.2784
C53 C 0.6394(4) 0.5605(5) 0.3119(3)
H28 H 0.6719 0.5748 0.3236
In2 In 0.31357(6) 0.59235(4) 0.0000
O11 O 0.2564(3) 0.5727(2) 0.04319(15)
O12 O 0.2346(4) 0.6343(3) 0.04134(16)
O13 O 0.3334 0.6667 0.0000
O14 O 0.2921(4) 0.5114(3) 0.0000
C54 C 0.2322(7) 0.5957(5) 0.0521(4)
C55 C 0.1975(9) 0.5677(6) 0.0865(5)
C56 C 0.1674(8) 0.5830(6) 0.1018(4)
H29 H 0.1715 0.6142 0.0924
C57 C 0.1317(8) 0.5595(6) 0.1292(5)
H30 H 0.1079 0.5700 0.1355
C58 C 0.1321(9) 0.5193(6) 0.1476(4)
C59 C 0.1589(6) 0.4983(4) 0.1328(4)
H31 H 0.1545 0.4666 0.1412
C60 C 0.1934(7) 0.5275(5) 0.1042(4)
H32 H 0.2167 0.5170 0.0966
C61 C 0.0887(6) 0.4888(4) 0.1784(3)
C62 C 0.0616(5) 0.5097(3) 0.2001(3)
H33 H 0.0687 0.5433 0.1947
C63 C 0.0271(5) 0.4829(4) 0.2274(3)
C64 C 0.0194(6) 0.4369(4) 0.2360(2)
C65 C 0.0400(6) 0.4115(4) 0.2165(3)
H34 H 0.0290 0.3768 0.2216
C66 C 0.0789(6) 0.4395(5) 0.1881(3)
H35 H 0.0971 0.4252 0.1764
C67 C 0.0000 0.5000 0.2500
O19 O 0.2564(3) 0.6837(2) 0.45681(15)
O20 O 0.2346(4) 0.6003(3) 0.45866(16)
C94 C 0.2322(7) 0.6365(5) 0.4479(4)
C95 C 0.1975(9) 0.6298(7) 0.4135(5)
C96 C 0.1674(8) 0.5844(6) 0.3982(4)
H50 H 0.1715 0.5573 0.4076
C97 C 0.1317(8) 0.5722(6) 0.3708(5)
H51 H 0.1079 0.5379 0.3645
C98 C 0.1321(9) 0.6128(7) 0.3524(4)
C99 C 0.1589(6) 0.6606(5) 0.3672(4)
H52 H 0.1545 0.6879 0.3588
C100 C 0.1934(7) 0.6659(5) 0.3958(4)
H53 H 0.2167 0.6997 0.4034
C101 C 0.0887(6) 0.5999(4) 0.3216(3)
C102 C 0.0616(5) 0.5519(4) 0.2999(3)
H54 H 0.0687 0.5254 0.3053
C103 C 0.0271(5) 0.5442(3) 0.2726(3)
C104 C 0.0194(6) 0.5825(4) 0.2640(2)
C105 C 0.0400(6) 0.6285(4) 0.2835(3)
H55 H 0.0290 0.6522 0.2784
C106 C 0.0789(6) 0.6394(4) 0.3119(3)
H56 H 0.0971 0.6719 0.3236
In3 In 0.72122(4) 0.31357(6) 0.0000
O21 O 0.6837(2) 0.2564(3) 0.04319(15)
O22 O 0.6003(3) 0.2346(4) 0.04134(16)
O23 O 0.7807(3) 0.2921(4) 0.0000
C107 C 0.6365(5) 0.2322(7) 0.0521(4)
C108 C 0.6298(7) 0.1975(9) 0.0865(5)
C109 C 0.5844(6) 0.1674(8) 0.1018(4)
H57 H 0.5573 0.1715 0.0924
C110 C 0.5722(6) 0.1317(8) 0.1292(5)
H58 H 0.5379 0.1079 0.1355
C111 C 0.6128(7) 0.1321(9) 0.1476(4)
C112 C 0.6606(5) 0.1589(6) 0.1328(4)
H59 H 0.6879 0.1545 0.1412
C113 C 0.6659(5) 0.1934(7) 0.1042(4)
H60 H 0.6997 0.2167 0.0966
C114 C 0.5999(4) 0.0887(6) 0.1784(3)
C115 C 0.5519(4) 0.0616(5) 0.2001(3)
H61 H 0.5254 0.0687 0.1947
C116 C 0.5442(3) 0.0271(5) 0.2274(3)
C117 C 0.5825(4) 0.0194(6) 0.2360(2)
C118 C 0.6285(4) 0.0400(6) 0.2165(3)
H62 H 0.6522 0.0290 0.2216
C119 C 0.6394(4) 0.0789(6) 0.1881(3)
H63 H 0.6719 0.0971 0.1764
C120 C 0.5000 0.0000 0.2500
O28 O 0.5727(2) 0.2564(3) 0.45681(15)
O29 O 0.6343(3) 0.2346(4) 0.45866(16)
C147 C 0.5957(5) 0.2322(7) 0.4479(4)
C148 C 0.5677(6) 0.1975(9) 0.4135(5)
C149 C 0.5830(6) 0.1674(8) 0.3982(4)
H78 H 0.6142 0.1715 0.4076
C150 C 0.5595(6) 0.1317(8) 0.3708(5)
H79 H 0.5700 0.1079 0.3645
C151 C 0.5193(6) 0.1321(9) 0.3524(4)
C152 C 0.4983(4) 0.1589(6) 0.3672(4)
H80 H 0.4666 0.1545 0.3588
C153 C 0.5275(5) 0.1934(7) 0.3958(4)
H81 H 0.5170 0.2167 0.4034
C154 C 0.4888(4) 0.0887(6) 0.3216(3)
C155 C 0.5097(3) 0.0616(5) 0.2999(3)
H82 H 0.5433 0.0687 0.3053
C156 C 0.4829(4) 0.0271(5) 0.2726(3)
C157 C 0.4369(4) 0.0194(6) 0.2640(2)
C158 C 0.4115(4) 0.0400(6) 0.2835(3)
H83 H 0.3768 0.0290 0.2784
C159 C 0.4395(5) 0.0789(6) 0.3119(3)
H84 H 0.4252 0.0971 0.3236
In4 In 0.40765(4) 0.72122(4) 0.0000
O30 O 0.4886(3) 0.7807(3) 0.0000
In9 In 0.68643(6) 0.40765(4) 0.0000
In10 In 0.27878(4) 0.68643(6) 0.0000
In12 In 0.31357(6) 0.72122(4) 0.5000
In14 In 0.40765(4) 0.68643(6) 0.5000
In15 In 0.27878(4) 0.59235(4) 0.5000
In17 In 0.72122(4) 0.40765(4) 0.5000
In19 In 0.68643(6) 0.27878(4) 0.5000
In20 In 0.59235(4) 0.31357(6) 0.5000
O41 O 0.7654(4) 0.3657(3) 0.04134(16)
O42 O 0.3997(3) 0.7654(4) 0.04134(16)
In1_2 In 0.59235(4) 0.27878(4) 1.0000
O3_2 O 0.6667 0.3333 1.0000
O4_2 O 0.5114(3) 0.2193(3) 1.0000
In2_2 In 0.31357(6) 0.59235(4) 1.0000
O13_2 O 0.3334 0.6667 1.0000
O14_2 O 0.2921(4) 0.5114(3) 1.0000
In3_2 In 0.72122(4) 0.31357(6) 1.0000
O23_2 O 0.7807(3) 0.2921(4) 1.0000
In4_2 In 0.40765(4) 0.72122(4) 1.0000
O30_2 O 0.4886(3) 0.7807(3) 1.0000
In9_2 In 0.68643(6) 0.40765(4) 1.0000
In10_2 In 0.27878(4) 0.68643(6) 1.0000
O33 O 0.4273(2) 0.6837(2) 0.95681(15)
O36 O 0.5727(2) 0.3163(2) 0.95681(15)
O37 O 0.2564(3) 0.5727(2) 0.95681(15)
O38 O 0.6837(2) 0.2564(3) 0.95681(15)
O43 O 0.3657(3) 0.6003(3) 0.95866(16)
O44 O 0.7654(4) 0.3657(3) 0.95866(16)
O45 O 0.3997(3) 0.7654(4) 0.95866(16)
O48 O 0.6003(3) 0.2346(4) 0.95866(16)
C120_2 C 0.5000 1.0000 0.2500
O24 O 0.3163(2) 0.7436(3) 0.04319(15)
C121 C 0.3635(5) 0.7678(7) 0.0521(4)
C122 C 0.3702(7) 0.8025(9) 0.0865(5)
C123 C 0.4156(6) 0.8326(8) 0.1018(4)
H64 H 0.4427 0.8285 0.0924
C124 C 0.4278(6) 0.8683(8) 0.1292(5)
H65 H 0.4621 0.8921 0.1355
C125 C 0.3872(7) 0.8679(9) 0.1476(4)
C126 C 0.3394(5) 0.8411(6) 0.1328(4)
H66 H 0.3121 0.8455 0.1412
C127 C 0.3341(5) 0.8066(7) 0.1042(4)
H67 H 0.3003 0.7833 0.0966
C128 C 0.4001(4) 0.9113(6) 0.1784(3)
C129 C 0.4481(4) 0.9384(5) 0.2001(3)
H68 H 0.4746 0.9313 0.1947
C130 C 0.4558(3) 0.9729(5) 0.2274(3)
C131 C 0.4175(4) 0.9806(6) 0.2360(2)
C132 C 0.3715(4) 0.9600(6) 0.2165(3)
H69 H 0.3478 0.9710 0.2216
C133 C 0.3606(4) 0.9211(6) 0.1881(3)
H70 H 0.3281 0.9029 0.1764
O26 O 0.4273(2) 0.7436(3) 0.45681(15)
O27 O 0.3657(3) 0.7654(4) 0.45866(16)
C134 C 0.4043(5) 0.7678(7) 0.4479(4)
C135 C 0.4323(6) 0.8025(9) 0.4135(5)
C136 C 0.4170(6) 0.8326(8) 0.3982(4)
H71 H 0.3858 0.8285 0.4076
C137 C 0.4405(6) 0.8683(8) 0.3708(5)
H72 H 0.4300 0.8921 0.3645
C138 C 0.4807(6) 0.8679(9) 0.3524(4)
C139 C 0.5017(4) 0.8411(6) 0.3672(4)
H73 H 0.5334 0.8455 0.3588
C140 C 0.4725(5) 0.8066(7) 0.3958(4)
H74 H 0.4830 0.7833 0.4034
C141 C 0.5112(4) 0.9113(6) 0.3216(3)
C142 C 0.4903(3) 0.9384(5) 0.2999(3)
H75 H 0.4567 0.9313 0.3053
C143 C 0.5171(4) 0.9729(5) 0.2726(3)
C144 C 0.5631(4) 0.9806(6) 0.2640(2)
C145 C 0.5885(4) 0.9600(6) 0.2835(3)
H76 H 0.6232 0.9710 0.2784
C146 C 0.5605(5) 0.9211(6) 0.3119(3)
H77 H 0.5748 0.9029 0.3236
O32 O 0.2193(3) 0.7079(4) 0.0000
O32_2 O 0.2193(3) 0.7079(4) 1.0000
O35 O 0.3163(2) 0.7436(3) 0.95681(15)
O47 O 0.2346(4) 0.6343(3) 0.95866(16)
C67_2 C 1.0000 0.5000 0.2500
O15 O 0.7436(3) 0.4273(2) 0.04319(15)
C68 C 0.7678(7) 0.4043(5) 0.0521(4)
C69 C 0.8025(9) 0.4323(6) 0.0865(5)
C70 C 0.8326(8) 0.4170(6) 0.1018(4)
H36 H 0.8285 0.3858 0.0924
C71 C 0.8683(8) 0.4405(6) 0.1292(5)
H37 H 0.8921 0.4300 0.1355
C72 C 0.8679(9) 0.4807(6) 0.1476(4)
C73 C 0.8411(6) 0.5017(4) 0.1328(4)
H38 H 0.8455 0.5334 0.1412
C74 C 0.8066(7) 0.4725(5) 0.1042(4)
H39 H 0.7833 0.4830 0.0966
C75 C 0.9113(6) 0.5112(4) 0.1784(3)
C76 C 0.9384(5) 0.4903(3) 0.2001(3)
H40 H 0.9313 0.4567 0.1947
C77 C 0.9729(5) 0.5171(4) 0.2274(3)
C78 C 0.9806(6) 0.5631(4) 0.2360(2)
C79 C 0.9600(6) 0.5885(4) 0.2165(3)
H41 H 0.9710 0.6232 0.2216
C80 C 0.9211(6) 0.5605(5) 0.1881(3)
H42 H 0.9029 0.5748 0.1764
O17 O 0.7436(3) 0.3163(2) 0.45681(15)
O18 O 0.7654(4) 0.3997(3) 0.45866(16)
C81 C 0.7678(7) 0.3635(5) 0.4479(4)
C82 C 0.8025(9) 0.3702(7) 0.4135(5)
C83 C 0.8326(8) 0.4156(6) 0.3982(4)
H43 H 0.8285 0.4427 0.4076
C84 C 0.8683(8) 0.4278(6) 0.3708(5)
H44 H 0.8921 0.4621 0.3645
C85 C 0.8679(9) 0.3872(7) 0.3524(4)
C86 C 0.8411(6) 0.3394(5) 0.3672(4)
H45 H 0.8455 0.3121 0.3588
C87 C 0.8066(7) 0.3341(5) 0.3958(4)
H46 H 0.7833 0.3003 0.4034
C88 C 0.9113(6) 0.4001(4) 0.3216(3)
C89 C 0.9384(5) 0.4481(4) 0.2999(3)
H47 H 0.9313 0.4746 0.3053
C90 C 0.9729(5) 0.4558(3) 0.2726(3)
C91 C 0.9806(6) 0.4175(4) 0.2640(2)
C92 C 0.9600(6) 0.3715(4) 0.2835(3)
H48 H 0.9710 0.3478 0.2784
C93 C 0.9211(6) 0.3606(4) 0.3119(3)
H49 H 0.9029 0.3281 0.3236
O31 O 0.7079(4) 0.4886(3) 0.0000
O31_2 O 0.7079(4) 0.4886(3) 1.0000
O34 O 0.7436(3) 0.4273(2) 0.95681(15)
O46 O 0.6343(3) 0.3997(3) 0.95866(16)
O32_3 O 0.5114(5) 0.2921(4) 0.5000
O35_2 O 0.5727(4) 0.2564(3) 0.54319(15)
O47_2 O 0.6003(5) 0.3657(3) 0.54134(16)
O50 O 0.6667 0.3333 0.5000
O3_3 O 0.3334 0.6667 0.5000
O4_3 O 0.2921(4) 0.7807(3) 0.5000
O23_3 O 0.4886(5) 0.7079(4) 0.5000
O36_2 O 0.2564(3) 0.6837(2) 0.54319(15)
O38_2 O 0.4273(4) 0.7436(3) 0.54319(15)
O44_2 O 0.3997(5) 0.6343(3) 0.54134(16)
O48_2 O 0.3657(5) 0.7654(4) 0.54134(16)
O14_3 O 0.7807(5) 0.4886(3) 0.5000
O30_3 O 0.7079(4) 0.2193(3) 0.5000
O31_3 O 0.2193(5) 0.5114(3) 0.5000
O33_2 O 0.7436(3) 0.3163(2) 0.54319(15)
O34_2 O 0.3163(4) 0.5727(2) 0.54319(15)
O37_2 O 0.6837(4) 0.4273(2) 0.54319(15)
O43_2 O 0.7654(4) 0.3997(3) 0.54134(16)
O45_2 O 0.6343(5) 0.2346(4) 0.54134(16)
O46_2 O 0.2346(4) 0.6003(3) 0.54134(16)
C67_3 C -0.0000 0.5000 0.7500
C68_2 C 0.2322(7) 0.5957(5) 0.9479(4)
C69_2 C 0.1975(9) 0.5677(6) 0.9135(5)
C70_2 C 0.1674(8) 0.5830(6) 0.8982(4)
H36_2 H 0.1715 0.6142 0.9076
C71_2 C 0.1317(8) 0.5595(6) 0.8708(5)
H37_2 H 0.1079 0.5700 0.8645
C72_2 C 0.1321(9) 0.5193(6) 0.8524(4)
C73_2 C 0.1589(6) 0.4983(4) 0.8672(4)
H38_2 H 0.1545 0.4666 0.8588
C74_2 C 0.1934(7) 0.5275(5) 0.8958(4)
H39_2 H 0.2167 0.5170 0.9034
C75_2 C 0.0887(6) 0.4888(4) 0.8216(3)
C76_2 C 0.0616(5) 0.5097(3) 0.7999(3)
H40_2 H 0.0687 0.5433 0.8053
C77_2 C 0.0271(5) 0.4829(4) 0.7726(3)
C78_2 C 0.0194(6) 0.4369(4) 0.7640(2)
C79_2 C 0.0400(6) 0.4115(4) 0.7835(3)
H41_2 H 0.0290 0.3768 0.7784
C80_2 C 0.0789(6) 0.4395(5) 0.8119(3)
H42_2 H 0.0971 0.4252 0.8236
C81_2 C 0.2322(7) 0.6365(5) 0.5521(4)
C82_2 C 0.1975(9) 0.6298(7) 0.5865(5)
C83_2 C 0.1674(8) 0.5844(6) 0.6018(4)
H43_2 H 0.1715 0.5573 0.5924
C84_2 C 0.1317(8) 0.5722(6) 0.6292(5)
H44_2 H 0.1079 0.5379 0.6355
C85_2 C 0.1321(9) 0.6128(7) 0.6476(4)
C86_2 C 0.1589(6) 0.6606(5) 0.6328(4)
H45_2 H 0.1545 0.6879 0.6412
C87_2 C 0.1934(7) 0.6659(5) 0.6042(4)
H46_2 H 0.2167 0.6997 0.5966
C88_2 C 0.0887(6) 0.5999(4) 0.6784(3)
C89_2 C 0.0616(5) 0.5519(4) 0.7001(3)
H47_2 H 0.0687 0.5254 0.6947
C90_2 C 0.0271(5) 0.5442(3) 0.7274(3)
C91_2 C 0.0194(6) 0.5825(4) 0.7360(2)
C92_2 C 0.0400(6) 0.6285(4) 0.7165(3)
H48_2 H 0.0290 0.6522 0.7216
C93_2 C 0.0789(6) 0.6394(4) 0.6881(3)
H49_2 H 0.0971 0.6719 0.6764
C120_3 C 0.5000 0.0000 0.7500
C121_2 C 0.6365(5) 0.2322(7) 0.9479(4)
C122_2 C 0.6298(7) 0.1975(9) 0.9135(5)
C123_2 C 0.5844(6) 0.1674(8) 0.8982(4)
H64_2 H 0.5573 0.1715 0.9076
C124_2 C 0.5722(6) 0.1317(8) 0.8708(5)
H65_2 H 0.5379 0.1079 0.8645
C125_2 C 0.6128(7) 0.1321(9) 0.8524(4)
C126_2 C 0.6606(5) 0.1589(6) 0.8672(4)
H66_2 H 0.6879 0.1545 0.8588
C127_2 C 0.6659(5) 0.1934(7) 0.8958(4)
H67_2 H 0.6997 0.2167 0.9034
C128_2 C 0.5999(4) 0.0887(6) 0.8216(3)
C129_2 C 0.5519(4) 0.0616(5) 0.7999(3)
H68_2 H 0.5254 0.0687 0.8053
C130_2 C 0.5442(3) 0.0271(5) 0.7726(3)
C131_2 C 0.5825(4) 0.0194(6) 0.7640(2)
C132_2 C 0.6285(4) 0.0400(6) 0.7835(3)
H69_2 H 0.6522 0.0290 0.7784
C133_2 C 0.6394(4) 0.0789(6) 0.8119(3)
H70_2 H 0.6719 0.0971 0.8236
C134_2 C 0.5957(5) 0.2322(7) 0.5521(4)
C135_2 C 0.5677(6) 0.1975(9) 0.5865(5)
C136_2 C 0.5830(6) 0.1674(8) 0.6018(4)
H71_2 H 0.6142 0.1715 0.5924
C137_2 C 0.5595(6) 0.1317(8) 0.6292(5)
H72_2 H 0.5700 0.1079 0.6355
C138_2 C 0.5193(6) 0.1321(9) 0.6476(4)
C139_2 C 0.4983(4) 0.1589(6) 0.6328(4)
H73_2 H 0.4666 0.1545 0.6412
C140_2 C 0.5275(5) 0.1934(7) 0.6042(4)
H74_2 H 0.5170 0.2167 0.5966
C141_2 C 0.4888(4) 0.0887(6) 0.6784(3)
C142_2 C 0.5097(3) 0.0616(5) 0.7001(3)
H75_2 H 0.5433 0.0687 0.6947
C143_2 C 0.4829(4) 0.0271(5) 0.7274(3)
C144_2 C 0.4369(4) 0.0194(6) 0.7360(2)
C145_2 C 0.4115(4) 0.0400(6) 0.7165(3)
H76_2 H 0.3768 0.0290 0.7216
C146_2 C 0.4395(5) 0.0789(6) 0.6881(3)
H77_2 H 0.4252 0.0971 0.6764
C1_2 C 0.4043(5) 0.6365(5) 0.9479(4)
C2_2 C 0.4323(6) 0.6298(7) 0.9135(5)
C3_2 C 0.4170(6) 0.5844(6) 0.8982(4)
H1_2 H 0.3858 0.5573 0.9076
C4_2 C 0.4405(6) 0.5722(6) 0.8708(5)
H2_2 H 0.4300 0.5379 0.8645
C5_2 C 0.4807(6) 0.6128(7) 0.8524(4)
C6_2 C 0.5017(4) 0.6606(5) 0.8672(4)
H3_2 H 0.5334 0.6879 0.8588
C7_2 C 0.4725(5) 0.6659(5) 0.8958(4)
H4_2 H 0.4830 0.6997 0.9034
C8_2 C 0.5112(4) 0.5999(4) 0.8216(3)
C9_2 C 0.4903(3) 0.5519(4) 0.7999(3)
H5_2 H 0.4567 0.5254 0.8053
C10_2 C 0.5171(4) 0.5442(3) 0.7726(3)
C11_2 C 0.5631(4) 0.5825(4) 0.7640(2)
C12_2 C 0.5885(4) 0.6285(4) 0.7835(3)
H6_2 H 0.6232 0.6522 0.7784
C13_2 C 0.5605(5) 0.6394(4) 0.8119(3)
H7_2 H 0.5748 0.6719 0.8236
C14_2 C 0.5000 0.5000 0.7500
C15_2 C 0.5957(5) 0.3635(5) 0.9479(4)
C16_2 C 0.5677(6) 0.3702(7) 0.9135(5)
C17_2 C 0.5830(6) 0.4156(6) 0.8982(4)
H8_2 H 0.6142 0.4427 0.9076
C18_2 C 0.5595(6) 0.4278(6) 0.8708(5)
H9_2 H 0.5700 0.4621 0.8645
C19_2 C 0.5193(6) 0.3872(7) 0.8524(4)
C20_2 C 0.4983(4) 0.3394(5) 0.8672(4)
H10_2 H 0.4666 0.3121 0.8588
C21_2 C 0.5275(5) 0.3341(5) 0.8958(4)
H11_2 H 0.5170 0.3003 0.9034
C22_2 C 0.4888(4) 0.4001(4) 0.8216(3)
C23_2 C 0.5097(3) 0.4481(4) 0.7999(3)
H12_2 H 0.5433 0.4746 0.8053
C24_2 C 0.4829(4) 0.4558(3) 0.7726(3)
C25_2 C 0.4369(4) 0.4175(4) 0.7640(2)
C26_2 C 0.4115(4) 0.3715(4) 0.7835(3)
H13_2 H 0.3768 0.3478 0.7784
C27_2 C 0.4395(5) 0.3606(4) 0.8119(3)
H14_2 H 0.4252 0.3281 0.8236
C28_2 C 0.6365(5) 0.4043(5) 0.5521(4)
C29_2 C 0.6298(7) 0.4323(6) 0.5865(5)
C30_2 C 0.5844(6) 0.4170(6) 0.6018(4)
H15_2 H 0.5573 0.3858 0.5924
C31_2 C 0.5722(6) 0.4405(6) 0.6292(5)
H16_2 H 0.5379 0.4300 0.6355
C32_2 C 0.6128(7) 0.4807(6) 0.6476(4)
C33_2 C 0.6606(5) 0.5017(4) 0.6328(4)
H17_2 H 0.6879 0.5334 0.6412
C34_2 C 0.6659(5) 0.4725(5) 0.6042(4)
H18_2 H 0.6997 0.4830 0.5966
C35_2 C 0.5999(4) 0.5112(4) 0.6784(3)
C36_2 C 0.5519(4) 0.4903(3) 0.7001(3)
H19_2 H 0.5254 0.4567 0.6947
C37_2 C 0.5442(3) 0.5171(4) 0.7274(3)
C38_2 C 0.5825(4) 0.5631(4) 0.7360(2)
C39_2 C 0.6285(4) 0.5885(4) 0.7165(3)
H20_2 H 0.6522 0.6232 0.7216
C40_2 C 0.6394(4) 0.5605(5) 0.6881(3)
H21_2 H 0.6719 0.5748 0.6764
C41_2 C 0.3635(5) 0.5957(5) 0.5521(4)
C42_2 C 0.3702(7) 0.5677(6) 0.5865(5)
C43_2 C 0.4156(6) 0.5830(6) 0.6018(4)
H22_2 H 0.4427 0.6142 0.5924
C44_2 C 0.4278(6) 0.5595(6) 0.6292(5)
H23_2 H 0.4621 0.5700 0.6355
C45_2 C 0.3872(7) 0.5193(6) 0.6476(4)
C46_2 C 0.3394(5) 0.4983(4) 0.6328(4)
H24_2 H 0.3121 0.4666 0.6412
C47_2 C 0.3341(5) 0.5275(5) 0.6042(4)
H25_2 H 0.3003 0.5170 0.5966
C48_2 C 0.4001(4) 0.4888(4) 0.6784(3)
C49_2 C 0.4481(4) 0.5097(3) 0.7001(3)
H26_2 H 0.4746 0.5433 0.6947
C50_2 C 0.4558(3) 0.4829(4) 0.7274(3)
C51_2 C 0.4175(4) 0.4369(4) 0.7360(2)
C52_2 C 0.3715(4) 0.4115(4) 0.7165(3)
H27_2 H 0.3478 0.3768 0.7216
C53_2 C 0.3606(4) 0.4395(5) 0.6881(3)
H28_2 H 0.3281 0.4252 0.6764
C54_2 C 0.7678(7) 0.4043(5) 0.9479(4)
C55_2 C 0.8025(9) 0.4323(6) 0.9135(5)
C56_2 C 0.8326(8) 0.4170(6) 0.8982(4)
H29_2 H 0.8285 0.3858 0.9076
C57_2 C 0.8683(8) 0.4405(6) 0.8708(5)
H30_2 H 0.8921 0.4300 0.8645
C58_2 C 0.8679(9) 0.4807(6) 0.8524(4)
C59_2 C 0.8411(6) 0.5017(4) 0.8672(4)
H31_2 H 0.8455 0.5334 0.8588
C60_2 C 0.8066(7) 0.4725(5) 0.8958(4)
H32_2 H 0.7833 0.4830 0.9034
C61_2 C 0.9113(6) 0.5112(4) 0.8216(3)
C62_2 C 0.9384(5) 0.4903(3) 0.7999(3)
H33_2 H 0.9313 0.4567 0.8053
C63_2 C 0.9729(5) 0.5171(4) 0.7726(3)
C64_2 C 0.9806(6) 0.5631(4) 0.7640(2)
C65_2 C 0.9600(6) 0.5885(4) 0.7835(3)
H34_2 H 0.9710 0.6232 0.7784
C66_2 C 0.9211(6) 0.5605(5) 0.8119(3)
H35_2 H 0.9029 0.5748 0.8236
C67_4 C 1.0000 0.5000 0.7500
C94_2 C 0.7678(7) 0.3635(5) 0.5521(4)
C95_2 C 0.8025(9) 0.3702(7) 0.5865(5)
C96_2 C 0.8326(8) 0.4156(6) 0.6018(4)
H50_2 H 0.8285 0.4427 0.5924
C97_2 C 0.8683(8) 0.4278(6) 0.6292(5)
H51_2 H 0.8921 0.4621 0.6355
C98_2 C 0.8679(9) 0.3872(7) 0.6476(4)
C99_2 C 0.8411(6) 0.3394(5) 0.6328(4)
H52_2 H 0.8455 0.3121 0.6412
C100_2 C 0.8066(7) 0.3341(5) 0.6042(4)
H53_2 H 0.7833 0.3003 0.5966
C101_2 C 0.9113(6) 0.4001(4) 0.6784(3)
C102_2 C 0.9384(5) 0.4481(4) 0.7001(3)
H54_2 H 0.9313 0.4746 0.6947
C103_2 C 0.9729(5) 0.4558(3) 0.7274(3)
C104_2 C 0.9806(6) 0.4175(4) 0.7360(2)
C105_2 C 0.9600(6) 0.3715(4) 0.7165(3)
H55_2 H 0.9710 0.3478 0.7216
C106_2 C 0.9211(6) 0.3606(4) 0.6881(3)
H56_2 H 0.9029 0.3281 0.6764
C107_2 C 0.3635(5) 0.7678(7) 0.9479(4)
C108_2 C 0.3702(7) 0.8025(9) 0.9135(5)
C109_2 C 0.4156(6) 0.8326(8) 0.8982(4)
H57_2 H 0.4427 0.8285 0.9076
C110_2 C 0.4278(6) 0.8683(8) 0.8708(5)
H58_2 H 0.4621 0.8921 0.8645
C111_2 C 0.3872(7) 0.8679(9) 0.8524(4)
C112_2 C 0.3394(5) 0.8411(6) 0.8672(4)
H59_2 H 0.3121 0.8455 0.8588
C113_2 C 0.3341(5) 0.8066(7) 0.8958(4)
H60_2 H 0.3003 0.7833 0.9034
C114_2 C 0.4001(4) 0.9113(6) 0.8216(3)
C115_2 C 0.4481(4) 0.9384(5) 0.7999(3)
H61_2 H 0.4746 0.9313 0.8053
C116_2 C 0.4558(3) 0.9729(5) 0.7726(3)
C117_2 C 0.4175(4) 0.9806(6) 0.7640(2)
C118_2 C 0.3715(4) 0.9600(6) 0.7835(3)
H62_2 H 0.3478 0.9710 0.7784
C119_2 C 0.3606(4) 0.9211(6) 0.8119(3)
H63_2 H 0.3281 0.9029 0.8236
C120_4 C 0.5000 1.0000 0.7500
C147_2 C 0.4043(5) 0.7678(7) 0.5521(4)
C148_2 C 0.4323(6) 0.8025(9) 0.5865(5)
C149_2 C 0.4170(6) 0.8326(8) 0.6018(4)
H78_2 H 0.3858 0.8285 0.5924
C150_2 C 0.4405(6) 0.8683(8) 0.6292(5)
H79_2 H 0.4300 0.8921 0.6355
C151_2 C 0.4807(6) 0.8679(9) 0.6476(4)
C152_2 C 0.5017(4) 0.8411(6) 0.6328(4)
H80_2 H 0.5334 0.8455 0.6412
C153_2 C 0.4725(5) 0.8066(7) 0.6042(4)
H81_2 H 0.4830 0.7833 0.5966
C154_2 C 0.5112(4) 0.9113(6) 0.6784(3)
C155_2 C 0.4903(3) 0.9384(5) 0.7001(3)
H82_2 H 0.4567 0.9313 0.6947
C156_2 C 0.5171(4) 0.9729(5) 0.7274(3)
C157_2 C 0.5631(4) 0.9806(6) 0.7360(2)
C158_2 C 0.5885(4) 0.9600(6) 0.7165(3)
H83_2 H 0.6232 0.9710 0.7216
C159_2 C 0.5605(5) 0.9211(6) 0.6881(3)
H84_2 H 0.5748 0.9029 0.6764
loop_
_geom_bond_atom_site_label_1
_geom_bond_atom_site_label_2
_geom_bond_site_symmetry_1
_geom_bond_site_symmetry_2
In1 O1 1_555 1_555
O1 C1 1_555 1_555
O2 C1 1_555 1_555
O3 In1 1_555 1_555
O4 In1 1_555 1_555
C1 C2 1_555 1_555
C2 C3 1_555 1_555
C3 H1 1_555 1_555
C4 C3 1_555 1_555
H2 C4 1_555 1_555
C5 C4 1_555 1_555
C6 C5 1_555 1_555
H3 C6 1_555 1_555
C7 C2 1_555 1_555
H4 C7 1_555 1_555
C8 C5 1_555 1_555
C9 C8 1_555 1_555
H5 C9 1_555 1_555
C10 C9 1_555 1_555
C11 C10 1_555 1_555
C12 C11 1_555 1_555
H6 C12 1_555 1_555
C13 C8 1_555 1_555
H7 C13 1_555 1_555
C14 C10 1_555 1_555
O5 C15 1_555 1_555
O6 C15 1_555 1_555
C15 C16 1_555 1_555
C16 C17 1_555 1_555
C17 H8 1_555 1_555
C18 C17 1_555 1_555
H9 C18 1_555 1_555
C19 C18 1_555 1_555
C20 C19 1_555 1_555
H10 C20 1_555 1_555
C21 C16 1_555 1_555
H11 C21 1_555 1_555
C22 C19 1_555 1_555
C23 C22 1_555 1_555
H12 C23 1_555 1_555
C24 C14 1_555 1_555
C25 C24 1_555 1_555
C26 C25 1_555 1_555
H13 C26 1_555 1_555
C27 C22 1_555 1_555
H14 C27 1_555 1_555
O7 C28 1_555 1_555
O8 C28 1_555 1_555
C28 C29 1_555 1_555
C29 C30 1_555 1_555
C30 H15 1_555 1_555
C31 C30 1_555 1_555
H16 C31 1_555 1_555
C32 C31 1_555 1_555
C33 C32 1_555 1_555
H17 C33 1_555 1_555
C34 C29 1_555 1_555
H18 C34 1_555 1_555
C35 C32 1_555 1_555
C36 C35 1_555 1_555
H19 C36 1_555 1_555
C37 C14 1_555 1_555
C38 C11 1_555 1_555
C39 C38 1_555 1_555
H20 C39 1_555 1_555
C40 C35 1_555 1_555
H21 C40 1_555 1_555
O9 C41 1_555 1_555
O10 C41 1_555 1_555
C41 C42 1_555 1_555
C42 C43 1_555 1_555
C43 H22 1_555 1_555
C44 C43 1_555 1_555
H23 C44 1_555 1_555
C45 C44 1_555 1_555
C46 C45 1_555 1_555
H24 C46 1_555 1_555
C47 C42 1_555 1_555
H25 C47 1_555 1_555
C48 C45 1_555 1_555
C49 C48 1_555 1_555
H26 C49 1_555 1_555
C50 C14 1_555 1_555
C51 C25 1_555 1_555
C52 C51 1_555 1_555
H27 C52 1_555 1_555
C53 C48 1_555 1_555
H28 C53 1_555 1_555
In2 O6 1_555 1_555
O11 In2 1_555 1_555
O12 C54 1_555 1_555
O13 In2 1_555 1_555
O14 In2 1_555 1_555
C54 O11 1_555 1_555
C55 C54 1_555 1_555
C56 C55 1_555 1_555
H29 C56 1_555 1_555
C57 C56 1_555 1_555
H30 C57 1_555 1_555
C58 C57 1_555 1_555
C59 C58 1_555 1_555
H31 C59 1_555 1_555
C60 C55 1_555 1_555
H32 C60 1_555 1_555
C61 C58 1_555 1_555
C62 C61 1_555 1_555
H33 C62 1_555 1_555
C63 C62 1_555 1_555
C64 C63 1_555 1_555
C65 C64 1_555 1_555
H34 C65 1_555 1_555
C66 C61 1_555 1_555
H35 C66 1_555 1_555
C67 C63 1_555 1_555
O19 C94 1_555 1_555
O20 C94 1_555 1_555
C94 C95 1_555 1_555
C95 C96 1_555 1_555
C96 H50 1_555 1_555
C97 C96 1_555 1_555
H51 C97 1_555 1_555
C98 C97 1_555 1_555
C99 C98 1_555 1_555
H52 C99 1_555 1_555
C100 C95 1_555 1_555
H53 C100 1_555 1_555
C101 C98 1_555 1_555
C102 C101 1_555 1_555
H54 C102 1_555 1_555
C103 C67 1_555 1_555
C105 C104 1_555 1_555
H55 C105 1_555 1_555
C106 C101 1_555 1_555
H56 C106 1_555 1_555
In3 O3 1_555 1_555
O21 In3 1_555 1_555
O22 In1 1_555 1_555
O23 In3 1_555 1_555
C107 O21 1_555 1_555
C108 C107 1_555 1_555
C109 C108 1_555 1_555
H57 C109 1_555 1_555
C110 C109 1_555 1_555
H58 C110 1_555 1_555
C111 C110 1_555 1_555
C112 C111 1_555 1_555
H59 C112 1_555 1_555
C113 C108 1_555 1_555
H60 C113 1_555 1_555
C114 C111 1_555 1_555
C115 C114 1_555 1_555
H61 C115 1_555 1_555
C116 C115 1_555 1_555
C117 C116 1_555 1_555
C118 C117 1_555 1_555
H62 C118 1_555 1_555
C119 C114 1_555 1_555
H63 C119 1_555 1_555
C120 C116 1_555 1_555
O28 C147 1_555 1_555
O29 C147 1_555 1_555
C147 C148 1_555 1_555
C148 C149 1_555 1_555
C149 H78 1_555 1_555
C150 C149 1_555 1_555
H79 C150 1_555 1_555
C151 C150 1_555 1_555
C152 C151 1_555 1_555
H80 C152 1_555 1_555
C153 C148 1_555 1_555
H81 C153 1_555 1_555
C154 C151 1_555 1_555
C155 C154 1_555 1_555
H82 C155 1_555 1_555
C156 C120 1_555 1_555
C158 C157 1_555 1_555
H83 C158 1_555 1_555
C159 C154 1_555 1_555
H84 C159 1_555 1_555
In4 O5 1_555 1_555
O30 In4 1_555 1_555
In9 O2 1_555 1_555
In10 O12 1_555 1_555
In12 O19 1_555 1_555
In14 O8 1_555 1_555
In15 O7 1_555 1_555
In17 O9 1_555 1_555
In19 O29 1_555 1_555
In20 O10 1_555 1_555
O41 In3 1_555 1_555
O42 In4 1_555 1_555
O3 In9 1_555 1_555
C6 C7 1_555 1_555
C12 C13 1_555 1_555
C20 C21 1_555 1_555
C23 C24 1_555 1_555
C26 C27 1_555 1_555
C33 C34 1_555 1_555
C36 C37 1_555 1_555
C37 C38 1_555 1_555
C39 C40 1_555 1_555
C46 C47 1_555 1_555
C49 C50 1_555 1_555
C50 C51 1_555 1_555
C52 C53 1_555 1_555
O13 In4 1_555 1_555
O13 In10 1_555 1_555
C59 C60 1_555 1_555
C65 C66 1_555 1_555
O20 In15 1_555 1_555
C99 C100 1_555 1_555
C102 C103 1_555 1_555
C103 C104 1_555 1_555
C105 C106 1_555 1_555
O22 C107 1_555 1_555
C112 C113 1_555 1_555
C118 C119 1_555 1_555
O28 In20 1_555 1_555
C152 C153 1_555 1_555
C155 C156 1_555 1_555
C156 C157 1_555 1_555
C158 C159 1_555 1_555
O3_2 In1_2 1_555 1_555
O4_2 In1_2 1_555 1_555
O13_2 In2_2 1_555 1_555
O14_2 In2_2 1_555 1_555
In3_2 O3_2 1_555 1_555
O23_2 In3_2 1_555 1_555
O30_2 In4_2 1_555 1_555
O33 In4_2 1_555 1_555
O36 In1_2 1_555 1_555
O37 In2_2 1_555 1_555
O38 In3_2 1_555 1_555
O43 In2_2 1_555 1_555
O44 In3_2 1_555 1_555
O45 In4_2 1_555 1_555
O48 In1_2 1_555 1_555
O3_2 In9_2 1_555 1_555
O13_2 In4_2 1_555 1_555
O13_2 In10_2 1_555 1_555
O24 C121 1_555 1_555
O42 C121 1_555 1_555
C121 C122 1_555 1_555
C122 C123 1_555 1_555
C123 H64 1_555 1_555
C124 C123 1_555 1_555
H65 C124 1_555 1_555
C125 C124 1_555 1_555
C126 C125 1_555 1_555
H66 C126 1_555 1_555
C127 C122 1_555 1_555
H67 C127 1_555 1_555
C128 C125 1_555 1_555
C129 C128 1_555 1_555
H68 C129 1_555 1_555
C130 C120_2 1_555 1_555
C131 C130 1_555 1_555
C132 C131 1_555 1_555
H69 C132 1_555 1_555
C133 C128 1_555 1_555
H70 C133 1_555 1_555
O26 C134 1_555 1_555
O27 C134 1_555 1_555
C134 C135 1_555 1_555
C135 C136 1_555 1_555
C136 H71 1_555 1_555
C137 C136 1_555 1_555
H72 C137 1_555 1_555
C138 C137 1_555 1_555
C139 C138 1_555 1_555
H73 C139 1_555 1_555
C140 C135 1_555 1_555
H74 C140 1_555 1_555
C141 C138 1_555 1_555
C142 C141 1_555 1_555
H75 C142 1_555 1_555
C143 C120_2 1_555 1_555
C145 C144 1_555 1_555
H76 C145 1_555 1_555
C146 C141 1_555 1_555
H77 C146 1_555 1_555
In10 O24 1_555 1_555
O32 In10 1_555 1_555
In12 O27 1_555 1_555
In14 O26 1_555 1_555
C126 C127 1_555 1_555
C129 C130 1_555 1_555
C132 C133 1_555 1_555
C139 C140 1_555 1_555
C142 C143 1_555 1_555
C143 C144 1_555 1_555
C145 C146 1_555 1_555
O32_2 In10_2 1_555 1_555
O35 In10_2 1_555 1_555
O47 In10_2 1_555 1_555
O15 C68 1_555 1_555
O41 C68 1_555 1_555
C68 C69 1_555 1_555
C69 C70 1_555 1_555
C70 H36 1_555 1_555
C71 C70 1_555 1_555
H37 C71 1_555 1_555
C72 C71 1_555 1_555
C73 C72 1_555 1_555
H38 C73 1_555 1_555
C74 C69 1_555 1_555
H39 C74 1_555 1_555
C75 C72 1_555 1_555
C76 C75 1_555 1_555
H40 C76 1_555 1_555
C77 C67_2 1_555 1_555
C78 C77 1_555 1_555
C79 C78 1_555 1_555
H41 C79 1_555 1_555
C80 C75 1_555 1_555
H42 C80 1_555 1_555
O17 C81 1_555 1_555
O18 C81 1_555 1_555
C81 C82 1_555 1_555
C82 C83 1_555 1_555
C83 H43 1_555 1_555
C84 C83 1_555 1_555
H44 C84 1_555 1_555
C85 C84 1_555 1_555
C86 C85 1_555 1_555
H45 C86 1_555 1_555
C87 C82 1_555 1_555
H46 C87 1_555 1_555
C88 C85 1_555 1_555
C89 C88 1_555 1_555
H47 C89 1_555 1_555
C90 C67_2 1_555 1_555
C92 C91 1_555 1_555
H48 C92 1_555 1_555
C93 C88 1_555 1_555
H49 C93 1_555 1_555
In9 O15 1_555 1_555
O31 In9 1_555 1_555
In17 O18 1_555 1_555
In19 O17 1_555 1_555
C73 C74 1_555 1_555
C76 C77 1_555 1_555
C79 C80 1_555 1_555
C86 C87 1_555 1_555
C89 C90 1_555 1_555
C90 C91 1_555 1_555
C92 C93 1_555 1_555
O31_2 In9_2 1_555 1_555
O34 In9_2 1_555 1_555
O46 In9_2 1_555 1_555
O32_3 In20 1_555 1_555
O35_2 In20 1_555 1_555
O47_2 In20 1_555 1_555
O50 In20 1_555 1_555
In19 O50 1_555 1_555
O3_3 In12 1_555 1_555
O4_3 In12 1_555 1_555
In14 O3_3 1_555 1_555
O23_3 In14 1_555 1_555
O36_2 In12 1_555 1_555
O38_2 In14 1_555 1_555
O44_2 In14 1_555 1_555
O48_2 In12 1_555 1_555
O3_3 In15 1_555 1_555
O50 In17 1_555 1_555
O14_3 In17 1_555 1_555
O30_3 In19 1_555 1_555
O31_3 In15 1_555 1_555
O33_2 In19 1_555 1_555
O34_2 In15 1_555 1_555
O37_2 In17 1_555 1_555
O43_2 In17 1_555 1_555
O45_2 In19 1_555 1_555
O46_2 In15 1_555 1_555
O37 C68_2 1_555 1_555
O47 C68_2 1_555 1_555
C68_2 C69_2 1_555 1_555
C69_2 C70_2 1_555 1_555
C70_2 H36_2 1_555 1_555
C71_2 C70_2 1_555 1_555
H37_2 C71_2 1_555 1_555
C72_2 C71_2 1_555 1_555
C73_2 C72_2 1_555 1_555
H38_2 C73_2 1_555 1_555
C74_2 C69_2 1_555 1_555
H39_2 C74_2 1_555 1_555
C75_2 C72_2 1_555 1_555
C76_2 C75_2 1_555 1_555
H40_2 C76_2 1_555 1_555
C77_2 C67_3 1_555 1_555
C78_2 C77_2 1_555 1_555
C79_2 C78_2 1_555 1_555
H41_2 C79_2 1_555 1_555
C80_2 C75_2 1_555 1_555
H42_2 C80_2 1_555 1_555
O36_2 C81_2 1_555 1_555
O46_2 C81_2 1_555 1_555
C81_2 C82_2 1_555 1_555
C82_2 C83_2 1_555 1_555
C83_2 H43_2 1_555 1_555
C84_2 C83_2 1_555 1_555
H44_2 C84_2 1_555 1_555
C85_2 C84_2 1_555 1_555
C86_2 C85_2 1_555 1_555
H45_2 C86_2 1_555 1_555
C87_2 C82_2 1_555 1_555
H46_2 C87_2 1_555 1_555
C88_2 C85_2 1_555 1_555
C89_2 C88_2 1_555 1_555
H47_2 C89_2 1_555 1_555
C90_2 C67_3 1_555 1_555
C92_2 C91_2 1_555 1_555
H48_2 C92_2 1_555 1_555
C93_2 C88_2 1_555 1_555
H49_2 C93_2 1_555 1_555
C73_2 C74_2 1_555 1_555
C76_2 C77_2 1_555 1_555
C79_2 C80_2 1_555 1_555
C86_2 C87_2 1_555 1_555
C89_2 C90_2 1_555 1_555
C90_2 C91_2 1_555 1_555
C92_2 C93_2 1_555 1_555
O38 C121_2 1_555 1_555
O48 C121_2 1_555 1_555
C121_2 C122_2 1_555 1_555
C122_2 C123_2 1_555 1_555
C123_2 H64_2 1_555 1_555
C124_2 C123_2 1_555 1_555
H65_2 C124_2 1_555 1_555
C125_2 C124_2 1_555 1_555
C126_2 C125_2 1_555 1_555
H66_2 C126_2 1_555 1_555
C127_2 C122_2 1_555 1_555
H67_2 C127_2 1_555 1_555
C128_2 C125_2 1_555 1_555
C129_2 C128_2 1_555 1_555
H68_2 C129_2 1_555 1_555
C130_2 C120_3 1_555 1_555
C131_2 C130_2 1_555 1_555
C132_2 C131_2 1_555 1_555
H69_2 C132_2 1_555 1_555
C133_2 C128_2 1_555 1_555
H70_2 C133_2 1_555 1_555
O35_2 C134_2 1_555 1_555
O45_2 C134_2 1_555 1_555
C134_2 C135_2 1_555 1_555
C135_2 C136_2 1_555 1_555
C136_2 H71_2 1_555 1_555
C137_2 C136_2 1_555 1_555
H72_2 C137_2 1_555 1_555
C138_2 C137_2 1_555 1_555
C139_2 C138_2 1_555 1_555
H73_2 C139_2 1_555 1_555
C140_2 C135_2 1_555 1_555
H74_2 C140_2 1_555 1_555
C141_2 C138_2 1_555 1_555
C142_2 C141_2 1_555 1_555
H75_2 C142_2 1_555 1_555
C143_2 C120_3 1_555 1_555
C145_2 C144_2 1_555 1_555
H76_2 C145_2 1_555 1_555
C146_2 C141_2 1_555 1_555
H77_2 C146_2 1_555 1_555
C126_2 C127_2 1_555 1_555
C129_2 C130_2 1_555 1_555
C132_2 C133_2 1_555 1_555
C139_2 C140_2 1_555 1_555
C142_2 C143_2 1_555 1_555
C143_2 C144_2 1_555 1_555
C145_2 C146_2 1_555 1_555
O33 C1_2 1_555 1_555
O43 C1_2 1_555 1_555
C1_2 C2_2 1_555 1_555
C2_2 C3_2 1_555 1_555
C3_2 H1_2 1_555 1_555
C4_2 C3_2 1_555 1_555
H2_2 C4_2 1_555 1_555
C5_2 C4_2 1_555 1_555
C6_2 C5_2 1_555 1_555
H3_2 C6_2 1_555 1_555
C7_2 C2_2 1_555 1_555
H4_2 C7_2 1_555 1_555
C8_2 C5_2 1_555 1_555
C9_2 C8_2 1_555 1_555
H5_2 C9_2 1_555 1_555
C10_2 C9_2 1_555 1_555
C11_2 C10_2 1_555 1_555
C12_2 C11_2 1_555 1_555
H6_2 C12_2 1_555 1_555
C13_2 C8_2 1_555 1_555
H7_2 C13_2 1_555 1_555
C14_2 C10_2 1_555 1_555
O36 C15_2 1_555 1_555
O46 C15_2 1_555 1_555
C15_2 C16_2 1_555 1_555
C16_2 C17_2 1_555 1_555
C17_2 H8_2 1_555 1_555
C18_2 C17_2 1_555 1_555
H9_2 C18_2 1_555 1_555
C19_2 C18_2 1_555 1_555
C20_2 C19_2 1_555 1_555
H10_2 C20_2 1_555 1_555
C21_2 C16_2 1_555 1_555
H11_2 C21_2 1_555 1_555
C22_2 C19_2 1_555 1_555
C23_2 C22_2 1_555 1_555
H12_2 C23_2 1_555 1_555
C24_2 C14_2 1_555 1_555
C25_2 C24_2 1_555 1_555
C26_2 C25_2 1_555 1_555
H13_2 C26_2 1_555 1_555
C27_2 C22_2 1_555 1_555
H14_2 C27_2 1_555 1_555
O37_2 C28_2 1_555 1_555
O47_2 C28_2 1_555 1_555
C28_2 C29_2 1_555 1_555
C29_2 C30_2 1_555 1_555
C30_2 H15_2 1_555 1_555
C31_2 C30_2 1_555 1_555
H16_2 C31_2 1_555 1_555
C32_2 C31_2 1_555 1_555
C33_2 C32_2 1_555 1_555
H17_2 C33_2 1_555 1_555
C34_2 C29_2 1_555 1_555
H18_2 C34_2 1_555 1_555
C35_2 C32_2 1_555 1_555
C36_2 C35_2 1_555 1_555
H19_2 C36_2 1_555 1_555
C37_2 C14_2 1_555 1_555
C38_2 C11_2 1_555 1_555
C39_2 C38_2 1_555 1_555
H20_2 C39_2 1_555 1_555
C40_2 C35_2 1_555 1_555
H21_2 C40_2 1_555 1_555
O34_2 C41_2 1_555 1_555
O44_2 C41_2 1_555 1_555
C41_2 C42_2 1_555 1_555
C42_2 C43_2 1_555 1_555
C43_2 H22_2 1_555 1_555
C44_2 C43_2 1_555 1_555
H23_2 C44_2 1_555 1_555
C45_2 C44_2 1_555 1_555
C46_2 C45_2 1_555 1_555
H24_2 C46_2 1_555 1_555
C47_2 C42_2 1_555 1_555
H25_2 C47_2 1_555 1_555
C48_2 C45_2 1_555 1_555
C49_2 C48_2 1_555 1_555
H26_2 C49_2 1_555 1_555
C50_2 C14_2 1_555 1_555
C51_2 C25_2 1_555 1_555
C52_2 C51_2 1_555 1_555
H27_2 C52_2 1_555 1_555
C53_2 C48_2 1_555 1_555
H28_2 C53_2 1_555 1_555
O44 C54_2 1_555 1_555
C54_2 O34 1_555 1_555
C55_2 C54_2 1_555 1_555
C56_2 C55_2 1_555 1_555
H29_2 C56_2 1_555 1_555
C57_2 C56_2 1_555 1_555
H30_2 C57_2 1_555 1_555
C58_2 C57_2 1_555 1_555
C59_2 C58_2 1_555 1_555
H31_2 C59_2 1_555 1_555
C60_2 C55_2 1_555 1_555
H32_2 C60_2 1_555 1_555
C61_2 C58_2 1_555 1_555
C62_2 C61_2 1_555 1_555
H33_2 C62_2 1_555 1_555
C63_2 C62_2 1_555 1_555
C64_2 C63_2 1_555 1_555
C65_2 C64_2 1_555 1_555
H34_2 C65_2 1_555 1_555
C66_2 C61_2 1_555 1_555
H35_2 C66_2 1_555 1_555
C67_4 C63_2 1_555 1_555
O33_2 C94_2 1_555 1_555
O43_2 C94_2 1_555 1_555
C94_2 C95_2 1_555 1_555
C95_2 C96_2 1_555 1_555
C96_2 H50_2 1_555 1_555
C97_2 C96_2 1_555 1_555
H51_2 C97_2 1_555 1_555
C98_2 C97_2 1_555 1_555
C99_2 C98_2 1_555 1_555
H52_2 C99_2 1_555 1_555
C100_2 C95_2 1_555 1_555
H53_2 C100_2 1_555 1_555
C101_2 C98_2 1_555 1_555
C102_2 C101_2 1_555 1_555
H54_2 C102_2 1_555 1_555
C103_2 C67_4 1_555 1_555
C105_2 C104_2 1_555 1_555
H55_2 C105_2 1_555 1_555
C106_2 C101_2 1_555 1_555
H56_2 C106_2 1_555 1_555
C107_2 O35 1_555 1_555
C108_2 C107_2 1_555 1_555
C109_2 C108_2 1_555 1_555
H57_2 C109_2 1_555 1_555
C110_2 C109_2 1_555 1_555
H58_2 C110_2 1_555 1_555
C111_2 C110_2 1_555 1_555
C112_2 C111_2 1_555 1_555
H59_2 C112_2 1_555 1_555
C113_2 C108_2 1_555 1_555
H60_2 C113_2 1_555 1_555
C114_2 C111_2 1_555 1_555
C115_2 C114_2 1_555 1_555
H61_2 C115_2 1_555 1_555
C116_2 C115_2 1_555 1_555
C117_2 C116_2 1_555 1_555
C118_2 C117_2 1_555 1_555
H62_2 C118_2 1_555 1_555
C119_2 C114_2 1_555 1_555
H63_2 C119_2 1_555 1_555
C120_4 C116_2 1_555 1_555
O38_2 C147_2 1_555 1_555
O48_2 C147_2 1_555 1_555
C147_2 C148_2 1_555 1_555
C148_2 C149_2 1_555 1_555
C149_2 H78_2 1_555 1_555
C150_2 C149_2 1_555 1_555
H79_2 C150_2 1_555 1_555
C151_2 C150_2 1_555 1_555
C152_2 C151_2 1_555 1_555
H80_2 C152_2 1_555 1_555
C153_2 C148_2 1_555 1_555
H81_2 C153_2 1_555 1_555
C154_2 C151_2 1_555 1_555
C155_2 C154_2 1_555 1_555
H82_2 C155_2 1_555 1_555
C156_2 C120_4 1_555 1_555
C158_2 C157_2 1_555 1_555
H83_2 C158_2 1_555 1_555
C159_2 C154_2 1_555 1_555
H84_2 C159_2 1_555 1_555
C6_2 C7_2 1_555 1_555
C12_2 C13_2 1_555 1_555
C20_2 C21_2 1_555 1_555
C23_2 C24_2 1_555 1_555
C26_2 C27_2 1_555 1_555
C33_2 C34_2 1_555 1_555
C36_2 C37_2 1_555 1_555
C37_2 C38_2 1_555 1_555
C39_2 C40_2 1_555 1_555
C46_2 C47_2 1_555 1_555
C49_2 C50_2 1_555 1_555
C50_2 C51_2 1_555 1_555
C52_2 C53_2 1_555 1_555
C59_2 C60_2 1_555 1_555
C65_2 C66_2 1_555 1_555
C99_2 C100_2 1_555 1_555
C102_2 C103_2 1_555 1_555
C103_2 C104_2 1_555 1_555
C105_2 C106_2 1_555 1_555
O45 C107_2 1_555 1_555
C112_2 C113_2 1_555 1_555
C118_2 C119_2 1_555 1_555
C152_2 C153_2 1_555 1_555
C155_2 C156_2 1_555 1_555
C156_2 C157_2 1_555 1_555
C158_2 C159_2 1_555 1_555

#END
