
###############################################################################
#
# This file contains modified crystal structure data generated from the
# MOF subset of the Cambridge Structural Database (CSD) v543 
# hosted by the Cambridge Crystallographic Data Centre (CCDC).
#
# This work is licensed under the Creative Commons
# Attribution-NonCommercial-ShareAlike 4.0 International License.
# To view a copy of this license, visit
# http://creativecommons.org/licenses/by-nc-sa/4.0/
# or send a letter to
# Creative Commons, PO Box 1866, Mountain View, CA 94042, USA.
#
# CIF created using the CSD Python API on 29 September 2022
# The structure has been converted into the P1 space group
# The structure has a 3D framework
# The original CSD entry QOTKOC03 is in the hexagonal crystal system
# The framework has been calculated to contain at least 10.0% void space
# The void calculation uses a probe of radius 1.32A, grid spacing 0.4
# The framework is charged, counterions have been retained in the structure
# H atom positions have been added when not included in the experimental data
# Generated hydrogen atom positions removed from atoms on special positions
#
###############################################################################

data_QOTKOC03
_chemical_formula_moiety         '(C322 H264 In18 O72)n'
_symmetry_cell_setting           triclinic
_symmetry_space_group_name_H-M   'P 1'
_symmetry_Int_Tables_number      1
_space_group_name_Hall           'P 1'
loop_
_symmetry_equiv_pos_site_id
_symmetry_equiv_pos_as_xyz
1 x,y,z
_cell_length_a                   32.1375(10)
_cell_length_b                   32.137
_cell_length_c                   33.4133(12)
_cell_angle_alpha                90
_cell_angle_beta                 90
_cell_angle_gamma                120
_cell_volume                     29886
loop_
_atom_site_label
_atom_site_type_symbol
_atom_site_fract_x
_atom_site_fract_y
_atom_site_fract_z
In1 In 0.31315(2) 0.59577(2) 0.0000
O1 O 0.29176(8) 0.52077(7) 0.0000
O2 O 0.3333 0.6667 0.0000
C1 C -0.0000 0.5000 0.2500
C2 C 0.19808(12) 0.56972(13) 0.08976(9)
C3 C 0.12736(13) 0.51857(13) 0.14695(10)
C4 C 0.02951(11) 0.48522(12) 0.22528(9)
C5 C 0.06425(11) 0.51147(10) 0.19720(9)
H1 H 0.0713 0.5429 0.1911
C6 C 0.08880(12) 0.49236(13) 0.17791(10)
C7 C 0.07687(12) 0.44509(14) 0.18636(10)
H2 H 0.0932 0.4316 0.1731
C8 C 0.01788(10) 0.43835(13) 0.23442(8)
C9 C 0.19344(13) 0.52923(15) 0.10632(12)
H3 H 0.2140 0.5179 0.0982
C10 C 0.15852(14) 0.50414(12) 0.13523(11)
H4 H 0.1565 0.4766 0.1469
C11 C 0.16698(14) 0.58523(12) 0.10250(11)
H5 H 0.1697 0.6136 0.0920
C12 C 0.13240(13) 0.55930(16) 0.13034(12)
H6 H 0.1114 0.5701 0.1383
C13 C 0.04036(12) 0.41700(11) 0.21471(10)
H7 H 0.0318 0.3849 0.2199
O3 O 0.25905(7) 0.57731(6) 0.04528(6)
O4 O 0.23891(6) 0.63543(7) 0.04514(5)
C14 C 0.23629(11) 0.59628(12) 0.05713(10)
C41 C 0.19808(12) 0.62836(18) 0.41024(9)
C42 C 0.12736(13) 0.60879(18) 0.35305(10)
C43 C 0.02951(11) 0.54429(16) 0.27472(9)
C44 C 0.06425(11) 0.55278(15) 0.30280(9)
H22 H 0.0713 0.5284 0.3089
C45 C 0.08880(12) 0.59644(18) 0.32209(10)
C46 C 0.07687(12) 0.63178(18) 0.31364(10)
H23 H 0.0932 0.6616 0.3269
C47 C 0.01788(10) 0.57953(16) 0.26558(8)
C48 C 0.19344(13) 0.66421(20) 0.39368(12)
H24 H 0.2140 0.6961 0.4018
C49 C 0.15852(14) 0.65438(18) 0.36477(11)
H25 H 0.1565 0.6799 0.3531
C50 C 0.16698(14) 0.58175(18) 0.39750(11)
H26 H 0.1697 0.5561 0.4080
C51 C 0.13240(13) 0.57310(21) 0.36966(12)
H27 H 0.1114 0.5413 0.3617
C52 C 0.04036(12) 0.62336(16) 0.28529(10)
H28 H 0.0318 0.6469 0.2801
O9 O 0.25905(7) 0.68174(9) 0.45472(6)
O10 O 0.23891(6) 0.60348(9) 0.45486(5)
C53 C 0.23629(11) 0.64001(16) 0.44287(10)
In3 In 0.40423(2) 0.71738(3) 0.0000
O21 O 0.47923(7) 0.77099(11) 0.0000
C107 C 0.5000 0.5000 0.2500
C108 C 0.43028(13) 0.62836(18) 0.08976(9)
C109 C 0.48143(13) 0.60879(18) 0.14695(10)
C110 C 0.51478(12) 0.54429(16) 0.22528(9)
C111 C 0.48853(10) 0.55278(15) 0.19720(9)
H57 H 0.4571 0.5284 0.1911
C112 C 0.50764(13) 0.59644(18) 0.17791(10)
C113 C 0.55491(14) 0.63178(18) 0.18636(10)
H58 H 0.5684 0.6616 0.1731
C114 C 0.56165(13) 0.57953(16) 0.23442(8)
C115 C 0.47077(15) 0.66421(20) 0.10632(12)
H59 H 0.4821 0.6961 0.0982
C116 C 0.49586(12) 0.65438(18) 0.13523(11)
H60 H 0.5234 0.6799 0.1469
C117 C 0.41477(12) 0.58175(18) 0.10250(11)
H61 H 0.3864 0.5561 0.0920
C118 C 0.44070(16) 0.57310(21) 0.13034(12)
H62 H 0.4299 0.5413 0.1383
C119 C 0.58300(11) 0.62336(16) 0.21471(10)
H63 H 0.6151 0.6469 0.2199
O22 O 0.42269(6) 0.68174(9) 0.04528(6)
O23 O 0.36457(7) 0.60348(9) 0.04514(5)
C120 C 0.40372(12) 0.64001(16) 0.05713(10)
C121 C 0.56972(13) 0.37164(18) 0.08976(9)
C122 C 0.51857(13) 0.39121(18) 0.14695(10)
C123 C 0.48522(12) 0.45571(16) 0.22528(9)
C124 C 0.51147(10) 0.44722(15) 0.19720(9)
H64 H 0.5429 0.4716 0.1911
C125 C 0.49236(13) 0.40356(18) 0.17791(10)
C126 C 0.44509(14) 0.36822(18) 0.18636(10)
H65 H 0.4316 0.3384 0.1731
C127 C 0.43835(13) 0.42047(16) 0.23442(8)
C128 C 0.52923(15) 0.33579(20) 0.10632(12)
H66 H 0.5179 0.3039 0.0982
C129 C 0.50414(12) 0.34562(18) 0.13523(11)
H67 H 0.4766 0.3201 0.1469
C130 C 0.58523(12) 0.41825(18) 0.10250(11)
H68 H 0.6136 0.4439 0.0920
C131 C 0.55930(16) 0.42690(21) 0.13034(12)
H69 H 0.5701 0.4587 0.1383
C132 C 0.41700(11) 0.37664(16) 0.21471(10)
H70 H 0.3849 0.3531 0.2199
O24 O 0.57731(6) 0.31826(9) 0.04528(6)
O25 O 0.63543(7) 0.39652(9) 0.04514(5)
C133 C 0.59628(12) 0.35999(16) 0.05713(10)
C134 C 0.62836(18) 0.43028(13) 0.41024(9)
C135 C 0.60879(18) 0.48143(13) 0.35305(10)
C136 C 0.54429(16) 0.51478(12) 0.27472(9)
C137 C 0.55278(15) 0.48853(10) 0.30280(9)
H71 H 0.5284 0.4571 0.3089
C138 C 0.59644(18) 0.50764(13) 0.32209(10)
C139 C 0.63178(18) 0.55491(14) 0.31364(10)
H72 H 0.6616 0.5684 0.3269
C140 C 0.57953(16) 0.56165(13) 0.26558(8)
C141 C 0.66421(20) 0.47077(15) 0.39368(12)
H73 H 0.6961 0.4821 0.4018
C142 C 0.65438(18) 0.49586(12) 0.36477(11)
H74 H 0.6799 0.5234 0.3531
C143 C 0.58175(18) 0.41477(12) 0.39750(11)
H75 H 0.5561 0.3864 0.4080
C144 C 0.57310(21) 0.44070(16) 0.36966(12)
H76 H 0.5413 0.4299 0.3617
C145 C 0.62336(16) 0.58300(11) 0.28529(10)
H77 H 0.6469 0.6151 0.2801
O26 O 0.68174(9) 0.42269(6) 0.45472(6)
O27 O 0.60348(9) 0.36457(7) 0.45486(5)
C146 C 0.64001(16) 0.40372(12) 0.44287(10)
C147 C 0.37164(18) 0.56972(13) 0.41024(9)
C148 C 0.39121(18) 0.51857(13) 0.35305(10)
C149 C 0.45571(16) 0.48522(12) 0.27472(9)
C150 C 0.44722(15) 0.51147(10) 0.30280(9)
H78 H 0.4716 0.5429 0.3089
C151 C 0.40356(18) 0.49236(13) 0.32209(10)
C152 C 0.36822(18) 0.44509(14) 0.31364(10)
H79 H 0.3384 0.4316 0.3269
C153 C 0.42047(16) 0.43835(13) 0.26558(8)
C154 C 0.33579(20) 0.52923(15) 0.39368(12)
H80 H 0.3039 0.5179 0.4018
C155 C 0.34562(18) 0.50414(12) 0.36477(11)
H81 H 0.3201 0.4766 0.3531
C156 C 0.41825(18) 0.58523(12) 0.39750(11)
H82 H 0.4439 0.6136 0.4080
C157 C 0.42690(21) 0.55930(16) 0.36966(12)
H83 H 0.4587 0.5701 0.3617
C158 C 0.37664(16) 0.41700(11) 0.28529(10)
H84 H 0.3531 0.3849 0.2801
O28 O 0.31826(9) 0.57731(6) 0.45472(6)
O29 O 0.39652(9) 0.63543(7) 0.45486(5)
C159 C 0.35999(16) 0.59628(12) 0.44287(10)
In8 In 0.68685(2) 0.40423(2) 0.0000
In9 In 0.28262(3) 0.68685(2) 0.0000
In10 In 0.59577(2) 0.28262(3) 0.0000
In12 In 0.71738(3) 0.40423(2) 0.5000
In15 In 0.59577(2) 0.31315(2) 0.5000
In17 In 0.40423(2) 0.68685(2) 0.5000
In18 In 0.28262(3) 0.59577(2) 0.5000
In20 In 0.31315(2) 0.71738(3) 0.5000
O42 O 0.39652(9) 0.76109(6) 0.04514(5)
In1_2 In 0.31315(2) 0.59577(2) 1.0000
O1_2 O 0.29176(8) 0.52077(7) 1.0000
O2_2 O 0.3333 0.6667 1.0000
In3_2 In 0.40423(2) 0.71738(3) 1.0000
O21_2 O 0.47923(7) 0.77099(11) 1.0000
In8_2 In 0.68685(2) 0.40423(2) 1.0000
In9_2 In 0.28262(3) 0.68685(2) 1.0000
In10_2 In 0.59577(2) 0.28262(3) 1.0000
O38 O 0.25905(7) 0.57731(6) 0.95472(6)
O40 O 0.42269(6) 0.68174(9) 0.95472(6)
O45 O 0.39652(9) 0.76109(6) 0.95486(5)
O49 O 0.36457(7) 0.60348(9) 0.95486(5)
C1_2 C 1.0000 0.5000 0.2500
C15 C 0.80192(12) 0.43028(13) 0.08976(9)
C16 C 0.87264(13) 0.48143(13) 0.14695(10)
C17 C 0.97049(11) 0.51478(12) 0.22528(9)
C18 C 0.93575(11) 0.48853(10) 0.19720(9)
H8 H 0.9287 0.4571 0.1911
C19 C 0.91120(12) 0.50764(13) 0.17791(10)
C20 C 0.92313(12) 0.55491(14) 0.18636(10)
H9 H 0.9068 0.5684 0.1731
C21 C 0.98212(10) 0.56165(13) 0.23442(8)
C22 C 0.80656(13) 0.47077(15) 0.10632(12)
H10 H 0.7860 0.4821 0.0982
C23 C 0.84148(14) 0.49586(12) 0.13523(11)
H11 H 0.8435 0.5234 0.1469
C24 C 0.83302(14) 0.41477(12) 0.10250(11)
H12 H 0.8303 0.3864 0.0920
C25 C 0.86760(13) 0.44070(16) 0.13034(12)
H13 H 0.8886 0.4299 0.1383
C26 C 0.95964(12) 0.58300(11) 0.21471(10)
H14 H 0.9682 0.6151 0.2199
O5 O 0.74095(7) 0.42269(6) 0.04528(6)
O6 O 0.76109(6) 0.36457(7) 0.04514(5)
C27 C 0.76371(11) 0.40372(12) 0.05713(10)
C28 C 0.80192(12) 0.37164(18) 0.41024(9)
C29 C 0.87264(13) 0.39121(18) 0.35305(10)
C30 C 0.97049(11) 0.45571(16) 0.27472(9)
C31 C 0.93575(11) 0.44722(15) 0.30280(9)
H15 H 0.9287 0.4716 0.3089
C32 C 0.91120(12) 0.40356(18) 0.32209(10)
C33 C 0.92313(12) 0.36822(18) 0.31364(10)
H16 H 0.9068 0.3384 0.3269
C34 C 0.98212(10) 0.42047(16) 0.26558(8)
C35 C 0.80656(13) 0.33579(20) 0.39368(12)
H17 H 0.7860 0.3039 0.4018
C36 C 0.84148(14) 0.34562(18) 0.36477(11)
H18 H 0.8435 0.3201 0.3531
C37 C 0.83302(14) 0.41825(18) 0.39750(11)
H19 H 0.8303 0.4439 0.4080
C38 C 0.86760(13) 0.42690(21) 0.36966(12)
H20 H 0.8886 0.4587 0.3617
C39 C 0.95964(12) 0.37664(16) 0.28529(10)
H21 H 0.9682 0.3531 0.2801
O7 O 0.74095(7) 0.31826(9) 0.45472(6)
O8 O 0.76109(6) 0.39652(9) 0.45486(5)
C40 C 0.76371(11) 0.35999(16) 0.44287(10)
In2 In 0.71738(3) 0.31315(2) 0.0000
O11 O 0.77099(11) 0.29176(8) 0.0000
O12 O 0.6666 0.3333 0.0000
C54 C 0.5000 0.0000 0.2500
C55 C 0.62836(18) 0.19808(12) 0.08976(9)
C56 C 0.60879(18) 0.12736(13) 0.14695(10)
C57 C 0.54429(16) 0.02951(11) 0.22528(9)
C58 C 0.55278(15) 0.06425(11) 0.19720(9)
H29 H 0.5284 0.0713 0.1911
C59 C 0.59644(18) 0.08880(12) 0.17791(10)
C60 C 0.63178(18) 0.07687(12) 0.18636(10)
H30 H 0.6616 0.0932 0.1731
C61 C 0.57953(16) 0.01788(10) 0.23442(8)
C62 C 0.66421(20) 0.19344(13) 0.10632(12)
H31 H 0.6961 0.2140 0.0982
C63 C 0.65438(18) 0.15852(14) 0.13523(11)
H32 H 0.6799 0.1565 0.1469
C64 C 0.58175(18) 0.16698(14) 0.10250(11)
H33 H 0.5561 0.1697 0.0920
C65 C 0.57310(21) 0.13240(13) 0.13034(12)
H34 H 0.5413 0.1114 0.1383
C66 C 0.62336(16) 0.04036(12) 0.21471(10)
H35 H 0.6469 0.0318 0.2199
O13 O 0.68174(9) 0.25905(7) 0.04528(6)
O14 O 0.60348(9) 0.23891(6) 0.04514(5)
C67 C 0.64001(16) 0.23629(11) 0.05713(10)
C94 C 0.56972(13) 0.19808(12) 0.41024(9)
C95 C 0.51857(13) 0.12736(13) 0.35305(10)
C96 C 0.48522(12) 0.02951(11) 0.27472(9)
C97 C 0.51147(10) 0.06425(11) 0.30280(9)
H50 H 0.5429 0.0713 0.3089
C98 C 0.49236(13) 0.08880(12) 0.32209(10)
C99 C 0.44509(14) 0.07687(12) 0.31364(10)
H51 H 0.4316 0.0932 0.3269
C100 C 0.43835(13) 0.01788(10) 0.26558(8)
C101 C 0.52923(15) 0.19344(13) 0.39368(12)
H52 H 0.5179 0.2140 0.4018
C102 C 0.50414(12) 0.15852(14) 0.36477(11)
H53 H 0.4766 0.1565 0.3531
C103 C 0.58523(12) 0.16698(14) 0.39750(11)
H54 H 0.6136 0.1697 0.4080
C104 C 0.55930(16) 0.13240(13) 0.36966(12)
H55 H 0.5701 0.1114 0.3617
C105 C 0.41700(11) 0.04036(12) 0.28529(10)
H56 H 0.3849 0.0318 0.2801
O19 O 0.57731(6) 0.25905(7) 0.45472(6)
O20 O 0.63543(7) 0.23891(6) 0.45486(5)
C106 C 0.59628(12) 0.23629(11) 0.44287(10)
O30 O 0.70824(8) 0.47923(7) 0.0000
O32 O 0.52077(7) 0.22901(11) 0.0000
In13 In 0.68685(2) 0.28262(3) 0.5000
In2_2 In 0.71738(3) 0.31315(2) 1.0000
O11_2 O 0.77099(11) 0.29176(8) 1.0000
O12_2 O 0.6666 0.3333 1.0000
O30_2 O 0.70824(8) 0.47923(7) 1.0000
O32_2 O 0.52077(7) 0.22901(11) 1.0000
O35 O 0.74095(7) 0.42269(6) 0.95472(6)
O37 O 0.57731(6) 0.31826(9) 0.95472(6)
O39 O 0.68174(9) 0.25905(7) 0.95472(6)
O44 O 0.76109(6) 0.36457(7) 0.95486(5)
O46 O 0.63543(7) 0.39652(9) 0.95486(5)
O48 O 0.60348(9) 0.23891(6) 0.95486(5)
C54_2 C 0.5000 1.0000 0.2500
C68 C 0.37164(18) 0.80192(12) 0.08976(9)
C69 C 0.39121(18) 0.87264(13) 0.14695(10)
C70 C 0.45571(16) 0.97049(11) 0.22528(9)
C71 C 0.44722(15) 0.93575(11) 0.19720(9)
H36 H 0.4716 0.9287 0.1911
C72 C 0.40356(18) 0.91120(12) 0.17791(10)
C73 C 0.36822(18) 0.92313(12) 0.18636(10)
H37 H 0.3384 0.9068 0.1731
C74 C 0.42047(16) 0.98212(10) 0.23442(8)
C75 C 0.33579(20) 0.80656(13) 0.10632(12)
H38 H 0.3039 0.7860 0.0982
C76 C 0.34562(18) 0.84148(14) 0.13523(11)
H39 H 0.3201 0.8435 0.1469
C77 C 0.41825(18) 0.83302(14) 0.10250(11)
H40 H 0.4439 0.8303 0.0920
C78 C 0.42690(21) 0.86760(13) 0.13034(12)
H41 H 0.4587 0.8886 0.1383
C79 C 0.37664(16) 0.95964(12) 0.21471(10)
H42 H 0.3531 0.9682 0.2199
O15 O 0.31826(9) 0.74095(7) 0.04528(6)
C80 C 0.35999(16) 0.76371(11) 0.05713(10)
C81 C 0.43028(13) 0.80192(12) 0.41024(9)
C82 C 0.48143(13) 0.87264(13) 0.35305(10)
C83 C 0.51478(12) 0.97049(11) 0.27472(9)
C84 C 0.48853(10) 0.93575(11) 0.30280(9)
H43 H 0.4571 0.9287 0.3089
C85 C 0.50764(13) 0.91120(12) 0.32209(10)
C86 C 0.55491(14) 0.92313(12) 0.31364(10)
H44 H 0.5684 0.9068 0.3269
C87 C 0.56165(13) 0.98212(10) 0.26558(8)
C88 C 0.47077(15) 0.80656(13) 0.39368(12)
H45 H 0.4821 0.7860 0.4018
C89 C 0.49586(12) 0.84148(14) 0.36477(11)
H46 H 0.5234 0.8435 0.3531
C90 C 0.41477(12) 0.83302(14) 0.39750(11)
H47 H 0.3864 0.8303 0.4080
C91 C 0.44070(16) 0.86760(13) 0.36966(12)
H48 H 0.4299 0.8886 0.3617
C92 C 0.58300(11) 0.95964(12) 0.28529(10)
H49 H 0.6151 0.9682 0.2801
O17 O 0.42269(6) 0.74095(7) 0.45472(6)
O18 O 0.36457(7) 0.76109(6) 0.45486(5)
C93 C 0.40372(12) 0.76371(11) 0.44287(10)
O31 O 0.22901(11) 0.70824(8) 0.0000
O31_2 O 0.22901(11) 0.70824(8) 1.0000
O36 O 0.31826(9) 0.74095(7) 0.95472(6)
O47 O 0.23891(6) 0.63543(7) 0.95486(5)
O31_3 O 0.52077(14) 0.29176(8) 0.5000
O33 O 0.6666 0.3333 0.5000
O36_2 O 0.57731(11) 0.25905(7) 0.54528(6)
O47_2 O 0.60348(9) 0.36457(7) 0.54514(5)
O1_3 O 0.77099(11) 0.47923(7) 0.5000
O11_3 O 0.47923(14) 0.70824(8) 0.5000
O12_3 O 0.3333 0.6667 0.5000
O21_3 O 0.70824(13) 0.22901(11) 0.5000
O30_3 O 0.22901(11) 0.52077(7) 0.5000
O32_3 O 0.29176(13) 0.77099(11) 0.5000
O35_2 O 0.31826(9) 0.57731(6) 0.54528(6)
O37_2 O 0.25905(11) 0.68174(9) 0.54528(6)
O38_2 O 0.68174(9) 0.42269(6) 0.54528(6)
O39_2 O 0.42269(11) 0.74095(7) 0.54528(6)
O40_2 O 0.74095(11) 0.31826(9) 0.54528(6)
O44_2 O 0.39652(9) 0.63543(7) 0.54514(5)
O45_2 O 0.63543(11) 0.23891(6) 0.54514(5)
O46_2 O 0.23891(11) 0.60348(9) 0.54514(5)
O48_2 O 0.36457(11) 0.76109(6) 0.54514(5)
O49_2 O 0.76109(11) 0.39652(9) 0.54514(5)
C54_3 C 0.5000 0.0000 0.7500
C68_2 C 0.62836(18) 0.19808(12) 0.91024(9)
C69_2 C 0.60879(18) 0.12736(13) 0.85305(10)
C70_2 C 0.54429(16) 0.02951(11) 0.77472(9)
C71_2 C 0.55278(15) 0.06425(11) 0.80280(9)
H36_2 H 0.5284 0.0713 0.8089
C72_2 C 0.59644(18) 0.08880(12) 0.82209(10)
C73_2 C 0.63178(18) 0.07687(12) 0.81364(10)
H37_2 H 0.6616 0.0932 0.8269
C74_2 C 0.57953(16) 0.01788(10) 0.76558(8)
C75_2 C 0.66421(20) 0.19344(13) 0.89368(12)
H38_2 H 0.6961 0.2140 0.9018
C76_2 C 0.65438(18) 0.15852(14) 0.86477(11)
H39_2 H 0.6799 0.1565 0.8531
C77_2 C 0.58175(18) 0.16698(14) 0.89750(11)
H40_2 H 0.5561 0.1697 0.9080
C78_2 C 0.57310(21) 0.13240(13) 0.86966(12)
H41_2 H 0.5413 0.1114 0.8617
C79_2 C 0.62336(16) 0.04036(12) 0.78529(10)
H42_2 H 0.6469 0.0318 0.7801
C80_2 C 0.64001(16) 0.23629(11) 0.94287(10)
C81_2 C 0.56972(13) 0.19808(12) 0.58976(9)
C82_2 C 0.51857(13) 0.12736(13) 0.64695(10)
C83_2 C 0.48522(12) 0.02951(11) 0.72528(9)
C84_2 C 0.51147(10) 0.06425(11) 0.69720(9)
H43_2 H 0.5429 0.0713 0.6911
C85_2 C 0.49236(13) 0.08880(12) 0.67791(10)
C86_2 C 0.44509(14) 0.07687(12) 0.68636(10)
H44_2 H 0.4316 0.0932 0.6731
C87_2 C 0.43835(13) 0.01788(10) 0.73442(8)
C88_2 C 0.52923(15) 0.19344(13) 0.60632(12)
H45_2 H 0.5179 0.2140 0.5982
C89_2 C 0.50414(12) 0.15852(14) 0.63523(11)
H46_2 H 0.4766 0.1565 0.6469
C90_2 C 0.58523(12) 0.16698(14) 0.60250(11)
H47_2 H 0.6136 0.1697 0.5920
C91_2 C 0.55930(16) 0.13240(13) 0.63034(12)
H48_2 H 0.5701 0.1114 0.6383
C92_2 C 0.41700(11) 0.04036(12) 0.71471(10)
H49_2 H 0.3849 0.0318 0.7199
C93_2 C 0.59628(12) 0.23629(11) 0.55713(10)
C1_3 C 0.0000 0.5000 0.7500
C15_2 C 0.19808(12) 0.56972(13) 0.91024(9)
C16_2 C 0.12736(13) 0.51857(13) 0.85305(10)
C17_2 C 0.02951(11) 0.48522(12) 0.77472(9)
C18_2 C 0.06425(11) 0.51147(10) 0.80280(9)
H8_2 H 0.0713 0.5429 0.8089
C19_2 C 0.08880(12) 0.49236(13) 0.82209(10)
C20_2 C 0.07687(12) 0.44509(14) 0.81364(10)
H9_2 H 0.0932 0.4316 0.8269
C21_2 C 0.01788(10) 0.43835(13) 0.76558(8)
C22_2 C 0.19344(13) 0.52923(15) 0.89368(12)
H10_2 H 0.2140 0.5179 0.9018
C23_2 C 0.15852(14) 0.50414(12) 0.86477(11)
H11_2 H 0.1565 0.4766 0.8531
C24_2 C 0.16698(14) 0.58523(12) 0.89750(11)
H12_2 H 0.1697 0.6136 0.9080
C25_2 C 0.13240(13) 0.55930(16) 0.86966(12)
H13_2 H 0.1114 0.5701 0.8617
C26_2 C 0.04036(12) 0.41700(11) 0.78529(10)
H14_2 H 0.0318 0.3849 0.7801
C27_2 C 0.23629(11) 0.59628(12) 0.94287(10)
C28_2 C 0.19808(12) 0.62836(18) 0.58976(9)
C29_2 C 0.12736(13) 0.60879(18) 0.64695(10)
C30_2 C 0.02951(11) 0.54429(16) 0.72528(9)
C31_2 C 0.06425(11) 0.55278(15) 0.69720(9)
H15_2 H 0.0713 0.5284 0.6911
C32_2 C 0.08880(12) 0.59644(18) 0.67791(10)
C33_2 C 0.07687(12) 0.63178(18) 0.68636(10)
H16_2 H 0.0932 0.6616 0.6731
C34_2 C 0.01788(10) 0.57953(16) 0.73442(8)
C35_2 C 0.19344(13) 0.66421(20) 0.60632(12)
H17_2 H 0.2140 0.6961 0.5982
C36_2 C 0.15852(14) 0.65438(18) 0.63523(11)
H18_2 H 0.1565 0.6799 0.6469
C37_2 C 0.16698(14) 0.58175(18) 0.60250(11)
H19_2 H 0.1697 0.5561 0.5920
C38_2 C 0.13240(13) 0.57310(21) 0.63034(12)
H20_2 H 0.1114 0.5413 0.6383
C39_2 C 0.04036(12) 0.62336(16) 0.71471(10)
H21_2 H 0.0318 0.6469 0.7199
C40_2 C 0.23629(11) 0.64001(16) 0.55713(10)
C54_4 C 0.5000 1.0000 0.7500
C55_2 C 0.37164(18) 0.80192(12) 0.91024(9)
C56_2 C 0.39121(18) 0.87264(13) 0.85305(10)
C57_2 C 0.45571(16) 0.97049(11) 0.77472(9)
C58_2 C 0.44722(15) 0.93575(11) 0.80280(9)
H29_2 H 0.4716 0.9287 0.8089
C59_2 C 0.40356(18) 0.91120(12) 0.82209(10)
C60_2 C 0.36822(18) 0.92313(12) 0.81364(10)
H30_2 H 0.3384 0.9068 0.8269
C61_2 C 0.42047(16) 0.98212(10) 0.76558(8)
C62_2 C 0.33579(20) 0.80656(13) 0.89368(12)
H31_2 H 0.3039 0.7860 0.9018
C63_2 C 0.34562(18) 0.84148(14) 0.86477(11)
H32_2 H 0.3201 0.8435 0.8531
C64_2 C 0.41825(18) 0.83302(14) 0.89750(11)
H33_2 H 0.4439 0.8303 0.9080
C65_2 C 0.42690(21) 0.86760(13) 0.86966(12)
H34_2 H 0.4587 0.8886 0.8617
C66_2 C 0.37664(16) 0.95964(12) 0.78529(10)
H35_2 H 0.3531 0.9682 0.7801
C67_2 C 0.35999(16) 0.76371(11) 0.94287(10)
C94_2 C 0.43028(13) 0.80192(12) 0.58976(9)
C95_2 C 0.48143(13) 0.87264(13) 0.64695(10)
C96_2 C 0.51478(12) 0.97049(11) 0.72528(9)
C97_2 C 0.48853(10) 0.93575(11) 0.69720(9)
H50_2 H 0.4571 0.9287 0.6911
C98_2 C 0.50764(13) 0.91120(12) 0.67791(10)
C99_2 C 0.55491(14) 0.92313(12) 0.68636(10)
H51_2 H 0.5684 0.9068 0.6731
C100_2 C 0.56165(13) 0.98212(10) 0.73442(8)
C101_2 C 0.47077(15) 0.80656(13) 0.60632(12)
H52_2 H 0.4821 0.7860 0.5982
C102_2 C 0.49586(12) 0.84148(14) 0.63523(11)
H53_2 H 0.5234 0.8435 0.6469
C103_2 C 0.41477(12) 0.83302(14) 0.60250(11)
H54_2 H 0.3864 0.8303 0.5920
C104_2 C 0.44070(16) 0.86760(13) 0.63034(12)
H55_2 H 0.4299 0.8886 0.6383
C105_2 C 0.58300(11) 0.95964(12) 0.71471(10)
H56_2 H 0.6151 0.9682 0.7199
C106_2 C 0.40372(12) 0.76371(11) 0.55713(10)
C1_4 C 1.0000 0.5000 0.7500
C2_2 C 0.80192(12) 0.43028(13) 0.91024(9)
C3_2 C 0.87264(13) 0.48143(13) 0.85305(10)
C4_2 C 0.97049(11) 0.51478(12) 0.77472(9)
C5_2 C 0.93575(11) 0.48853(10) 0.80280(9)
H1_2 H 0.9287 0.4571 0.8089
C6_2 C 0.91120(12) 0.50764(13) 0.82209(10)
C7_2 C 0.92313(12) 0.55491(14) 0.81364(10)
H2_2 H 0.9068 0.5684 0.8269
C8_2 C 0.98212(10) 0.56165(13) 0.76558(8)
C9_2 C 0.80656(13) 0.47077(15) 0.89368(12)
H3_2 H 0.7860 0.4821 0.9018
C10_2 C 0.84148(14) 0.49586(12) 0.86477(11)
H4_2 H 0.8435 0.5234 0.8531
C11_2 C 0.83302(14) 0.41477(12) 0.89750(11)
H5_2 H 0.8303 0.3864 0.9080
C12_2 C 0.86760(13) 0.44070(16) 0.86966(12)
H6_2 H 0.8886 0.4299 0.8617
C13_2 C 0.95964(12) 0.58300(11) 0.78529(10)
H7_2 H 0.9682 0.6151 0.7801
C14_2 C 0.76371(11) 0.40372(12) 0.94287(10)
C41_2 C 0.80192(12) 0.37164(18) 0.58976(9)
C42_2 C 0.87264(13) 0.39121(18) 0.64695(10)
C43_2 C 0.97049(11) 0.45571(16) 0.72528(9)
C44_2 C 0.93575(11) 0.44722(15) 0.69720(9)
H22_2 H 0.9287 0.4716 0.6911
C45_2 C 0.91120(12) 0.40356(18) 0.67791(10)
C46_2 C 0.92313(12) 0.36822(18) 0.68636(10)
H23_2 H 0.9068 0.3384 0.6731
C47_2 C 0.98212(10) 0.42047(16) 0.73442(8)
C48_2 C 0.80656(13) 0.33579(20) 0.60632(12)
H24_2 H 0.7860 0.3039 0.5982
C49_2 C 0.84148(14) 0.34562(18) 0.63523(11)
H25_2 H 0.8435 0.3201 0.6469
C50_2 C 0.83302(14) 0.41825(18) 0.60250(11)
H26_2 H 0.8303 0.4439 0.5920
C51_2 C 0.86760(13) 0.42690(21) 0.63034(12)
H27_2 H 0.8886 0.4587 0.6383
C52_2 C 0.95964(12) 0.37664(16) 0.71471(10)
H28_2 H 0.9682 0.3531 0.7199
C53_2 C 0.76371(11) 0.35999(16) 0.55713(10)
C107_2 C 0.5000 0.5000 0.7500
C108_2 C 0.56972(13) 0.37164(18) 0.91024(9)
C109_2 C 0.51857(13) 0.39121(18) 0.85305(10)
C110_2 C 0.48522(12) 0.45571(16) 0.77472(9)
C111_2 C 0.51147(10) 0.44722(15) 0.80280(9)
H57_2 H 0.5429 0.4716 0.8089
C112_2 C 0.49236(13) 0.40356(18) 0.82209(10)
C113_2 C 0.44509(14) 0.36822(18) 0.81364(10)
H58_2 H 0.4316 0.3384 0.8269
C114_2 C 0.43835(13) 0.42047(16) 0.76558(8)
C115_2 C 0.52923(15) 0.33579(20) 0.89368(12)
H59_2 H 0.5179 0.3039 0.9018
C116_2 C 0.50414(12) 0.34562(18) 0.86477(11)
H60_2 H 0.4766 0.3201 0.8531
C117_2 C 0.58523(12) 0.41825(18) 0.89750(11)
H61_2 H 0.6136 0.4439 0.9080
C118_2 C 0.55930(16) 0.42690(21) 0.86966(12)
H62_2 H 0.5701 0.4587 0.8617
C119_2 C 0.41700(11) 0.37664(16) 0.78529(10)
H63_2 H 0.3849 0.3531 0.7801
C120_2 C 0.59628(12) 0.35999(16) 0.94287(10)
C121_2 C 0.43028(13) 0.62836(18) 0.91024(9)
C122_2 C 0.48143(13) 0.60879(18) 0.85305(10)
C123_2 C 0.51478(12) 0.54429(16) 0.77472(9)
C124_2 C 0.48853(10) 0.55278(15) 0.80280(9)
H64_2 H 0.4571 0.5284 0.8089
C125_2 C 0.50764(13) 0.59644(18) 0.82209(10)
C126_2 C 0.55491(14) 0.63178(18) 0.81364(10)
H65_2 H 0.5684 0.6616 0.8269
C127_2 C 0.56165(13) 0.57953(16) 0.76558(8)
C128_2 C 0.47077(15) 0.66421(20) 0.89368(12)
H66_2 H 0.4821 0.6961 0.9018
C129_2 C 0.49586(12) 0.65438(18) 0.86477(11)
H67_2 H 0.5234 0.6799 0.8531
C130_2 C 0.41477(12) 0.58175(18) 0.89750(11)
H68_2 H 0.3864 0.5561 0.9080
C131_2 C 0.44070(16) 0.57310(21) 0.86966(12)
H69_2 H 0.4299 0.5413 0.8617
C132_2 C 0.58300(11) 0.62336(16) 0.78529(10)
H70_2 H 0.6151 0.6469 0.7801
C133_2 C 0.40372(12) 0.64001(16) 0.94287(10)
C134_2 C 0.37164(18) 0.56972(13) 0.58976(9)
C135_2 C 0.39121(18) 0.51857(13) 0.64695(10)
C136_2 C 0.45571(16) 0.48522(12) 0.72528(9)
C137_2 C 0.44722(15) 0.51147(10) 0.69720(9)
H71_2 H 0.4716 0.5429 0.6911
C138_2 C 0.40356(18) 0.49236(13) 0.67791(10)
C139_2 C 0.36822(18) 0.44509(14) 0.68636(10)
H72_2 H 0.3384 0.4316 0.6731
C140_2 C 0.42047(16) 0.43835(13) 0.73442(8)
C141_2 C 0.33579(20) 0.52923(15) 0.60632(12)
H73_2 H 0.3039 0.5179 0.5982
C142_2 C 0.34562(18) 0.50414(12) 0.63523(11)
H74_2 H 0.3201 0.4766 0.6469
C143_2 C 0.41825(18) 0.58523(12) 0.60250(11)
H75_2 H 0.4439 0.6136 0.5920
C144_2 C 0.42690(21) 0.55930(16) 0.63034(12)
H76_2 H 0.4587 0.5701 0.6383
C145_2 C 0.37664(16) 0.41700(11) 0.71471(10)
H77_2 H 0.3531 0.3849 0.7199
C146_2 C 0.35999(16) 0.59628(12) 0.55713(10)
C147_2 C 0.62836(18) 0.43028(13) 0.58976(9)
C148_2 C 0.60879(18) 0.48143(13) 0.64695(10)
C149_2 C 0.54429(16) 0.51478(12) 0.72528(9)
C150_2 C 0.55278(15) 0.48853(10) 0.69720(9)
H78_2 H 0.5284 0.4571 0.6911
C151_2 C 0.59644(18) 0.50764(13) 0.67791(10)
C152_2 C 0.63178(18) 0.55491(14) 0.68636(10)
H79_2 H 0.6616 0.5684 0.6731
C153_2 C 0.57953(16) 0.56165(13) 0.73442(8)
C154_2 C 0.66421(20) 0.47077(15) 0.60632(12)
H80_2 H 0.6961 0.4821 0.5982
C155_2 C 0.65438(18) 0.49586(12) 0.63523(11)
H81_2 H 0.6799 0.5234 0.6469
C156_2 C 0.58175(18) 0.41477(12) 0.60250(11)
H82_2 H 0.5561 0.3864 0.5920
C157_2 C 0.57310(21) 0.44070(16) 0.63034(12)
H83_2 H 0.5413 0.4299 0.6383
C158_2 C 0.62336(16) 0.58300(11) 0.71471(10)
H84_2 H 0.6469 0.6151 0.7199
C159_2 C 0.64001(16) 0.40372(12) 0.55713(10)
loop_
_geom_bond_atom_site_label_1
_geom_bond_atom_site_label_2
_geom_bond_site_symmetry_1
_geom_bond_site_symmetry_2
In1 O1 1_555 1_555
O2 In1 1_555 1_555
C1 C4 1_555 1_555
C2 C9 1_555 1_555
C3 C6 1_555 1_555
C4 C5 1_555 1_555
C5 H1 1_555 1_555
C6 C5 1_555 1_555
C7 C6 1_555 1_555
H2 C7 1_555 1_555
C8 C4 1_555 1_555
C9 H3 1_555 1_555
C10 C3 1_555 1_555
H4 C10 1_555 1_555
C11 C2 1_555 1_555
H5 C11 1_555 1_555
C12 C3 1_555 1_555
H6 C12 1_555 1_555
C13 C7 1_555 1_555
H7 C13 1_555 1_555
O3 In1 1_555 1_555
O4 C14 1_555 1_555
C14 C2 1_555 1_555
C41 C48 1_555 1_555
C42 C45 1_555 1_555
C43 C1 1_555 1_555
C44 C43 1_555 1_555
H22 C44 1_555 1_555
C45 C44 1_555 1_555
C46 C45 1_555 1_555
H23 C46 1_555 1_555
C48 H24 1_555 1_555
C49 C42 1_555 1_555
H25 C49 1_555 1_555
C50 C41 1_555 1_555
H26 C50 1_555 1_555
C51 C42 1_555 1_555
H27 C51 1_555 1_555
C52 C46 1_555 1_555
H28 C52 1_555 1_555
O9 C53 1_555 1_555
O10 C53 1_555 1_555
C53 C41 1_555 1_555
In3 O2 1_555 1_555
O21 In3 1_555 1_555
C107 C110 1_555 1_555
C108 C115 1_555 1_555
C109 C112 1_555 1_555
C110 C111 1_555 1_555
C111 H57 1_555 1_555
C112 C111 1_555 1_555
C113 C112 1_555 1_555
H58 C113 1_555 1_555
C114 C110 1_555 1_555
C115 H59 1_555 1_555
C116 C109 1_555 1_555
H60 C116 1_555 1_555
C117 C108 1_555 1_555
H61 C117 1_555 1_555
C118 C109 1_555 1_555
H62 C118 1_555 1_555
C119 C113 1_555 1_555
H63 C119 1_555 1_555
O22 In3 1_555 1_555
O23 In1 1_555 1_555
C120 C108 1_555 1_555
C121 C128 1_555 1_555
C122 C125 1_555 1_555
C123 C107 1_555 1_555
C124 C123 1_555 1_555
H64 C124 1_555 1_555
C125 C124 1_555 1_555
C126 C125 1_555 1_555
H65 C126 1_555 1_555
C127 C123 1_555 1_555
C128 H66 1_555 1_555
C129 C122 1_555 1_555
H67 C129 1_555 1_555
C130 C121 1_555 1_555
H68 C130 1_555 1_555
C131 C122 1_555 1_555
H69 C131 1_555 1_555
C132 C126 1_555 1_555
H70 C132 1_555 1_555
O24 C133 1_555 1_555
O25 C133 1_555 1_555
C133 C121 1_555 1_555
C134 C141 1_555 1_555
C135 C138 1_555 1_555
C136 C107 1_555 1_555
C137 C136 1_555 1_555
H71 C137 1_555 1_555
C138 C137 1_555 1_555
C139 C138 1_555 1_555
H72 C139 1_555 1_555
C140 C114 1_555 1_555
C141 H73 1_555 1_555
C142 C135 1_555 1_555
H74 C142 1_555 1_555
C143 C134 1_555 1_555
H75 C143 1_555 1_555
C144 C135 1_555 1_555
H76 C144 1_555 1_555
C145 C139 1_555 1_555
H77 C145 1_555 1_555
O26 C146 1_555 1_555
O27 C146 1_555 1_555
C146 C134 1_555 1_555
C147 C154 1_555 1_555
C148 C151 1_555 1_555
C149 C107 1_555 1_555
C150 C149 1_555 1_555
H78 C150 1_555 1_555
C151 C150 1_555 1_555
C152 C151 1_555 1_555
H79 C152 1_555 1_555
C153 C127 1_555 1_555
C154 H80 1_555 1_555
C155 C148 1_555 1_555
H81 C155 1_555 1_555
C156 C147 1_555 1_555
H82 C156 1_555 1_555
C157 C148 1_555 1_555
H83 C157 1_555 1_555
C158 C152 1_555 1_555
H84 C158 1_555 1_555
O28 C159 1_555 1_555
O29 C159 1_555 1_555
C159 C147 1_555 1_555
In8 O25 1_555 1_555
In9 O2 1_555 1_555
In10 O24 1_555 1_555
In12 O26 1_555 1_555
In15 O27 1_555 1_555
In17 O29 1_555 1_555
In18 O10 1_555 1_555
In20 O9 1_555 1_555
O42 In3 1_555 1_555
C8 C13 1_555 1_555
C9 C10 1_555 1_555
C11 C12 1_555 1_555
O3 C14 1_555 1_555
O4 In9 1_555 1_555
C43 C47 1_555 1_555
C47 C52 1_555 1_555
C48 C49 1_555 1_555
C50 C51 1_555 1_555
C114 C119 1_555 1_555
C115 C116 1_555 1_555
C117 C118 1_555 1_555
O22 C120 1_555 1_555
O23 C120 1_555 1_555
C127 C132 1_555 1_555
C128 C129 1_555 1_555
C130 C131 1_555 1_555
C136 C140 1_555 1_555
C140 C145 1_555 1_555
C141 C142 1_555 1_555
C143 C144 1_555 1_555
C149 C153 1_555 1_555
C153 C158 1_555 1_555
C154 C155 1_555 1_555
C156 C157 1_555 1_555
O28 In18 1_555 1_555
In1_2 O1_2 1_555 1_555
O2_2 In1_2 1_555 1_555
In3_2 O2_2 1_555 1_555
O21_2 In3_2 1_555 1_555
In9_2 O2_2 1_555 1_555
O38 In1_2 1_555 1_555
O40 In3_2 1_555 1_555
O45 In3_2 1_555 1_555
O49 In1_2 1_555 1_555
C15 C22 1_555 1_555
C16 C19 1_555 1_555
C17 C1_2 1_555 1_555
C18 C17 1_555 1_555
H8 C18 1_555 1_555
C19 C18 1_555 1_555
C20 C19 1_555 1_555
H9 C20 1_555 1_555
C21 C17 1_555 1_555
C22 H10 1_555 1_555
C23 C16 1_555 1_555
H11 C23 1_555 1_555
C24 C15 1_555 1_555
H12 C24 1_555 1_555
C25 C16 1_555 1_555
H13 C25 1_555 1_555
C26 C20 1_555 1_555
H14 C26 1_555 1_555
O5 C27 1_555 1_555
O6 C27 1_555 1_555
C27 C15 1_555 1_555
C28 C35 1_555 1_555
C29 C32 1_555 1_555
C30 C1_2 1_555 1_555
C31 C30 1_555 1_555
H15 C31 1_555 1_555
C32 C31 1_555 1_555
C33 C32 1_555 1_555
H16 C33 1_555 1_555
C35 H17 1_555 1_555
C36 C29 1_555 1_555
H18 C36 1_555 1_555
C37 C28 1_555 1_555
H19 C37 1_555 1_555
C38 C29 1_555 1_555
H20 C38 1_555 1_555
C39 C33 1_555 1_555
H21 C39 1_555 1_555
O7 C40 1_555 1_555
O8 C40 1_555 1_555
C40 C28 1_555 1_555
In2 O6 1_555 1_555
O11 In2 1_555 1_555
O12 In2 1_555 1_555
C54 C57 1_555 1_555
C55 C62 1_555 1_555
C56 C59 1_555 1_555
C57 C58 1_555 1_555
C58 H29 1_555 1_555
C59 C58 1_555 1_555
C60 C59 1_555 1_555
H30 C60 1_555 1_555
C61 C57 1_555 1_555
C62 H31 1_555 1_555
C63 C56 1_555 1_555
H32 C63 1_555 1_555
C64 C55 1_555 1_555
H33 C64 1_555 1_555
C65 C56 1_555 1_555
H34 C65 1_555 1_555
C66 C60 1_555 1_555
H35 C66 1_555 1_555
O13 In2 1_555 1_555
O14 C67 1_555 1_555
C67 C55 1_555 1_555
C94 C101 1_555 1_555
C95 C98 1_555 1_555
C96 C54 1_555 1_555
C97 C96 1_555 1_555
H50 C97 1_555 1_555
C98 C97 1_555 1_555
C99 C98 1_555 1_555
H51 C99 1_555 1_555
C101 H52 1_555 1_555
C102 C95 1_555 1_555
H53 C102 1_555 1_555
C103 C94 1_555 1_555
H54 C103 1_555 1_555
C104 C95 1_555 1_555
H55 C104 1_555 1_555
C105 C99 1_555 1_555
H56 C105 1_555 1_555
O19 C106 1_555 1_555
O20 C106 1_555 1_555
C106 C94 1_555 1_555
In8 O5 1_555 1_555
O30 In8 1_555 1_555
In10 O12 1_555 1_555
O32 In10 1_555 1_555
In12 O8 1_555 1_555
In13 O7 1_555 1_555
In15 O19 1_555 1_555
C21 C26 1_555 1_555
C22 C23 1_555 1_555
C24 C25 1_555 1_555
C30 C34 1_555 1_555
C34 C39 1_555 1_555
C35 C36 1_555 1_555
C37 C38 1_555 1_555
O12 In8 1_555 1_555
C61 C66 1_555 1_555
C62 C63 1_555 1_555
C64 C65 1_555 1_555
O13 C67 1_555 1_555
O14 In10 1_555 1_555
C96 C100 1_555 1_555
C100 C105 1_555 1_555
C101 C102 1_555 1_555
C103 C104 1_555 1_555
O20 In13 1_555 1_555
O11_2 In2_2 1_555 1_555
O12_2 In2_2 1_555 1_555
O30_2 In8_2 1_555 1_555
In10_2 O12_2 1_555 1_555
O32_2 In10_2 1_555 1_555
O35 In8_2 1_555 1_555
O37 In10_2 1_555 1_555
O39 In2_2 1_555 1_555
O44 In2_2 1_555 1_555
O46 In8_2 1_555 1_555
O48 In10_2 1_555 1_555
O12_2 In8_2 1_555 1_555
C68 C75 1_555 1_555
C69 C72 1_555 1_555
C70 C54_2 1_555 1_555
C71 C70 1_555 1_555
H36 C71 1_555 1_555
C72 C71 1_555 1_555
C73 C72 1_555 1_555
H37 C73 1_555 1_555
C74 C70 1_555 1_555
C75 H38 1_555 1_555
C76 C69 1_555 1_555
H39 C76 1_555 1_555
C77 C68 1_555 1_555
H40 C77 1_555 1_555
C78 C69 1_555 1_555
H41 C78 1_555 1_555
C79 C73 1_555 1_555
H42 C79 1_555 1_555
O15 C80 1_555 1_555
O42 C80 1_555 1_555
C80 C68 1_555 1_555
C81 C88 1_555 1_555
C82 C85 1_555 1_555
C83 C54_2 1_555 1_555
C84 C83 1_555 1_555
H43 C84 1_555 1_555
C85 C84 1_555 1_555
C86 C85 1_555 1_555
H44 C86 1_555 1_555
C88 H45 1_555 1_555
C89 C82 1_555 1_555
H46 C89 1_555 1_555
C90 C81 1_555 1_555
H47 C90 1_555 1_555
C91 C82 1_555 1_555
H48 C91 1_555 1_555
C92 C86 1_555 1_555
H49 C92 1_555 1_555
O17 C93 1_555 1_555
O18 C93 1_555 1_555
C93 C81 1_555 1_555
In9 O15 1_555 1_555
O31 In9 1_555 1_555
In17 O17 1_555 1_555
In20 O18 1_555 1_555
C74 C79 1_555 1_555
C75 C76 1_555 1_555
C77 C78 1_555 1_555
C83 C87 1_555 1_555
C87 C92 1_555 1_555
C88 C89 1_555 1_555
C90 C91 1_555 1_555
O31_2 In9_2 1_555 1_555
O36 In9_2 1_555 1_555
O47 In9_2 1_555 1_555
O31_3 In15 1_555 1_555
O33 In15 1_555 1_555
O36_2 In15 1_555 1_555
O47_2 In15 1_555 1_555
In13 O33 1_555 1_555
In12 O1_3 1_555 1_555
O33 In12 1_555 1_555
O11_3 In17 1_555 1_555
O12_3 In17 1_555 1_555
O21_3 In13 1_555 1_555
O30_3 In18 1_555 1_555
In20 O12_3 1_555 1_555
O32_3 In20 1_555 1_555
O35_2 In18 1_555 1_555
O37_2 In20 1_555 1_555
O38_2 In12 1_555 1_555
O39_2 In17 1_555 1_555
O40_2 In13 1_555 1_555
O44_2 In17 1_555 1_555
O45_2 In13 1_555 1_555
O46_2 In18 1_555 1_555
O48_2 In20 1_555 1_555
O49_2 In12 1_555 1_555
O12_3 In18 1_555 1_555
C68_2 C75_2 1_555 1_555
C69_2 C72_2 1_555 1_555
C70_2 C54_3 1_555 1_555
C71_2 C70_2 1_555 1_555
H36_2 C71_2 1_555 1_555
C72_2 C71_2 1_555 1_555
C73_2 C72_2 1_555 1_555
H37_2 C73_2 1_555 1_555
C74_2 C70_2 1_555 1_555
C75_2 H38_2 1_555 1_555
C76_2 C69_2 1_555 1_555
H39_2 C76_2 1_555 1_555
C77_2 C68_2 1_555 1_555
H40_2 C77_2 1_555 1_555
C78_2 C69_2 1_555 1_555
H41_2 C78_2 1_555 1_555
C79_2 C73_2 1_555 1_555
H42_2 C79_2 1_555 1_555
O39 C80_2 1_555 1_555
O48 C80_2 1_555 1_555
C80_2 C68_2 1_555 1_555
C81_2 C88_2 1_555 1_555
C82_2 C85_2 1_555 1_555
C83_2 C54_3 1_555 1_555
C84_2 C83_2 1_555 1_555
H43_2 C84_2 1_555 1_555
C85_2 C84_2 1_555 1_555
C86_2 C85_2 1_555 1_555
H44_2 C86_2 1_555 1_555
C88_2 H45_2 1_555 1_555
C89_2 C82_2 1_555 1_555
H46_2 C89_2 1_555 1_555
C90_2 C81_2 1_555 1_555
H47_2 C90_2 1_555 1_555
C91_2 C82_2 1_555 1_555
H48_2 C91_2 1_555 1_555
C92_2 C86_2 1_555 1_555
H49_2 C92_2 1_555 1_555
O36_2 C93_2 1_555 1_555
O45_2 C93_2 1_555 1_555
C93_2 C81_2 1_555 1_555
C74_2 C79_2 1_555 1_555
C75_2 C76_2 1_555 1_555
C77_2 C78_2 1_555 1_555
C83_2 C87_2 1_555 1_555
C87_2 C92_2 1_555 1_555
C88_2 C89_2 1_555 1_555
C90_2 C91_2 1_555 1_555
C15_2 C22_2 1_555 1_555
C16_2 C19_2 1_555 1_555
C17_2 C1_3 1_555 1_555
C18_2 C17_2 1_555 1_555
H8_2 C18_2 1_555 1_555
C19_2 C18_2 1_555 1_555
C20_2 C19_2 1_555 1_555
H9_2 C20_2 1_555 1_555
C21_2 C17_2 1_555 1_555
C22_2 H10_2 1_555 1_555
C23_2 C16_2 1_555 1_555
H11_2 C23_2 1_555 1_555
C24_2 C15_2 1_555 1_555
H12_2 C24_2 1_555 1_555
C25_2 C16_2 1_555 1_555
H13_2 C25_2 1_555 1_555
C26_2 C20_2 1_555 1_555
H14_2 C26_2 1_555 1_555
O38 C27_2 1_555 1_555
O47 C27_2 1_555 1_555
C27_2 C15_2 1_555 1_555
C28_2 C35_2 1_555 1_555
C29_2 C32_2 1_555 1_555
C30_2 C1_3 1_555 1_555
C31_2 C30_2 1_555 1_555
H15_2 C31_2 1_555 1_555
C32_2 C31_2 1_555 1_555
C33_2 C32_2 1_555 1_555
H16_2 C33_2 1_555 1_555
C35_2 H17_2 1_555 1_555
C36_2 C29_2 1_555 1_555
H18_2 C36_2 1_555 1_555
C37_2 C28_2 1_555 1_555
H19_2 C37_2 1_555 1_555
C38_2 C29_2 1_555 1_555
H20_2 C38_2 1_555 1_555
C39_2 C33_2 1_555 1_555
H21_2 C39_2 1_555 1_555
O37_2 C40_2 1_555 1_555
O46_2 C40_2 1_555 1_555
C40_2 C28_2 1_555 1_555
C54_4 C57_2 1_555 1_555
C55_2 C62_2 1_555 1_555
C56_2 C59_2 1_555 1_555
C57_2 C58_2 1_555 1_555
C58_2 H29_2 1_555 1_555
C59_2 C58_2 1_555 1_555
C60_2 C59_2 1_555 1_555
H30_2 C60_2 1_555 1_555
C61_2 C57_2 1_555 1_555
C62_2 H31_2 1_555 1_555
C63_2 C56_2 1_555 1_555
H32_2 C63_2 1_555 1_555
C64_2 C55_2 1_555 1_555
H33_2 C64_2 1_555 1_555
C65_2 C56_2 1_555 1_555
H34_2 C65_2 1_555 1_555
C66_2 C60_2 1_555 1_555
H35_2 C66_2 1_555 1_555
O45 C67_2 1_555 1_555
C67_2 C55_2 1_555 1_555
C94_2 C101_2 1_555 1_555
C95_2 C98_2 1_555 1_555
C96_2 C54_4 1_555 1_555
C97_2 C96_2 1_555 1_555
H50_2 C97_2 1_555 1_555
C98_2 C97_2 1_555 1_555
C99_2 C98_2 1_555 1_555
H51_2 C99_2 1_555 1_555
C101_2 H52_2 1_555 1_555
C102_2 C95_2 1_555 1_555
H53_2 C102_2 1_555 1_555
C103_2 C94_2 1_555 1_555
H54_2 C103_2 1_555 1_555
C104_2 C95_2 1_555 1_555
H55_2 C104_2 1_555 1_555
C105_2 C99_2 1_555 1_555
H56_2 C105_2 1_555 1_555
O39_2 C106_2 1_555 1_555
O48_2 C106_2 1_555 1_555
C106_2 C94_2 1_555 1_555
C21_2 C26_2 1_555 1_555
C22_2 C23_2 1_555 1_555
C24_2 C25_2 1_555 1_555
C30_2 C34_2 1_555 1_555
C34_2 C39_2 1_555 1_555
C35_2 C36_2 1_555 1_555
C37_2 C38_2 1_555 1_555
C61_2 C66_2 1_555 1_555
C62_2 C63_2 1_555 1_555
C64_2 C65_2 1_555 1_555
O36 C67_2 1_555 1_555
C96_2 C100_2 1_555 1_555
C100_2 C105_2 1_555 1_555
C101_2 C102_2 1_555 1_555
C103_2 C104_2 1_555 1_555
C1_4 C4_2 1_555 1_555
C2_2 C9_2 1_555 1_555
C3_2 C6_2 1_555 1_555
C4_2 C5_2 1_555 1_555
C5_2 H1_2 1_555 1_555
C6_2 C5_2 1_555 1_555
C7_2 C6_2 1_555 1_555
H2_2 C7_2 1_555 1_555
C8_2 C4_2 1_555 1_555
C9_2 H3_2 1_555 1_555
C10_2 C3_2 1_555 1_555
H4_2 C10_2 1_555 1_555
C11_2 C2_2 1_555 1_555
H5_2 C11_2 1_555 1_555
C12_2 C3_2 1_555 1_555
H6_2 C12_2 1_555 1_555
C13_2 C7_2 1_555 1_555
H7_2 C13_2 1_555 1_555
O44 C14_2 1_555 1_555
C14_2 C2_2 1_555 1_555
C41_2 C48_2 1_555 1_555
C42_2 C45_2 1_555 1_555
C43_2 C1_4 1_555 1_555
C44_2 C43_2 1_555 1_555
H22_2 C44_2 1_555 1_555
C45_2 C44_2 1_555 1_555
C46_2 C45_2 1_555 1_555
H23_2 C46_2 1_555 1_555
C48_2 H24_2 1_555 1_555
C49_2 C42_2 1_555 1_555
H25_2 C49_2 1_555 1_555
C50_2 C41_2 1_555 1_555
H26_2 C50_2 1_555 1_555
C51_2 C42_2 1_555 1_555
H27_2 C51_2 1_555 1_555
C52_2 C46_2 1_555 1_555
H28_2 C52_2 1_555 1_555
O40_2 C53_2 1_555 1_555
O49_2 C53_2 1_555 1_555
C53_2 C41_2 1_555 1_555
C107_2 C110_2 1_555 1_555
C108_2 C115_2 1_555 1_555
C109_2 C112_2 1_555 1_555
C110_2 C111_2 1_555 1_555
C111_2 H57_2 1_555 1_555
C112_2 C111_2 1_555 1_555
C113_2 C112_2 1_555 1_555
H58_2 C113_2 1_555 1_555
C114_2 C110_2 1_555 1_555
C115_2 H59_2 1_555 1_555
C116_2 C109_2 1_555 1_555
H60_2 C116_2 1_555 1_555
C117_2 C108_2 1_555 1_555
H61_2 C117_2 1_555 1_555
C118_2 C109_2 1_555 1_555
H62_2 C118_2 1_555 1_555
C119_2 C113_2 1_555 1_555
H63_2 C119_2 1_555 1_555
C120_2 C108_2 1_555 1_555
C121_2 C128_2 1_555 1_555
C122_2 C125_2 1_555 1_555
C123_2 C107_2 1_555 1_555
C124_2 C123_2 1_555 1_555
H64_2 C124_2 1_555 1_555
C125_2 C124_2 1_555 1_555
C126_2 C125_2 1_555 1_555
H65_2 C126_2 1_555 1_555
C127_2 C123_2 1_555 1_555
C128_2 H66_2 1_555 1_555
C129_2 C122_2 1_555 1_555
H67_2 C129_2 1_555 1_555
C130_2 C121_2 1_555 1_555
H68_2 C130_2 1_555 1_555
C131_2 C122_2 1_555 1_555
H69_2 C131_2 1_555 1_555
C132_2 C126_2 1_555 1_555
H70_2 C132_2 1_555 1_555
O40 C133_2 1_555 1_555
O49 C133_2 1_555 1_555
C133_2 C121_2 1_555 1_555
C134_2 C141_2 1_555 1_555
C135_2 C138_2 1_555 1_555
C136_2 C107_2 1_555 1_555
C137_2 C136_2 1_555 1_555
H71_2 C137_2 1_555 1_555
C138_2 C137_2 1_555 1_555
C139_2 C138_2 1_555 1_555
H72_2 C139_2 1_555 1_555
C140_2 C114_2 1_555 1_555
C141_2 H73_2 1_555 1_555
C142_2 C135_2 1_555 1_555
H74_2 C142_2 1_555 1_555
C143_2 C134_2 1_555 1_555
H75_2 C143_2 1_555 1_555
C144_2 C135_2 1_555 1_555
H76_2 C144_2 1_555 1_555
C145_2 C139_2 1_555 1_555
H77_2 C145_2 1_555 1_555
O35_2 C146_2 1_555 1_555
O44_2 C146_2 1_555 1_555
C146_2 C134_2 1_555 1_555
C147_2 C154_2 1_555 1_555
C148_2 C151_2 1_555 1_555
C149_2 C107_2 1_555 1_555
C150_2 C149_2 1_555 1_555
H78_2 C150_2 1_555 1_555
C151_2 C150_2 1_555 1_555
C152_2 C151_2 1_555 1_555
H79_2 C152_2 1_555 1_555
C153_2 C127_2 1_555 1_555
C154_2 H80_2 1_555 1_555
C155_2 C148_2 1_555 1_555
H81_2 C155_2 1_555 1_555
C156_2 C147_2 1_555 1_555
H82_2 C156_2 1_555 1_555
C157_2 C148_2 1_555 1_555
H83_2 C157_2 1_555 1_555
C158_2 C152_2 1_555 1_555
H84_2 C158_2 1_555 1_555
O38_2 C159_2 1_555 1_555
O47_2 C159_2 1_555 1_555
C159_2 C147_2 1_555 1_555
C8_2 C13_2 1_555 1_555
C9_2 C10_2 1_555 1_555
C11_2 C12_2 1_555 1_555
O35 C14_2 1_555 1_555
C43_2 C47_2 1_555 1_555
C47_2 C52_2 1_555 1_555
C48_2 C49_2 1_555 1_555
C50_2 C51_2 1_555 1_555
C114_2 C119_2 1_555 1_555
C115_2 C116_2 1_555 1_555
C117_2 C118_2 1_555 1_555
O37 C120_2 1_555 1_555
O46 C120_2 1_555 1_555
C127_2 C132_2 1_555 1_555
C128_2 C129_2 1_555 1_555
C130_2 C131_2 1_555 1_555
C136_2 C140_2 1_555 1_555
C140_2 C145_2 1_555 1_555
C141_2 C142_2 1_555 1_555
C143_2 C144_2 1_555 1_555
C149_2 C153_2 1_555 1_555
C153_2 C158_2 1_555 1_555
C154_2 C155_2 1_555 1_555
C156_2 C157_2 1_555 1_555

#END
