
###############################################################################
#
# This file contains modified crystal structure data generated from the
# MOF subset of the Cambridge Structural Database (CSD) v543 
# hosted by the Cambridge Crystallographic Data Centre (CCDC).
#
# This work is licensed under the Creative Commons
# Attribution-NonCommercial-ShareAlike 4.0 International License.
# To view a copy of this license, visit
# http://creativecommons.org/licenses/by-nc-sa/4.0/
# or send a letter to
# Creative Commons, PO Box 1866, Mountain View, CA 94042, USA.
#
# CIF created using the CSD Python API on 29 September 2022
# The structure has been converted into the P1 space group
# The structure has a 3D framework
# The original CSD entry QOTKOC04 is in the hexagonal crystal system
# The framework has been calculated to contain at least 10.0% void space
# The void calculation uses a probe of radius 1.32A, grid spacing 0.4
# The framework is charged, counterions have been retained in the structure
# H atom positions have been added when not included in the experimental data
# Generated hydrogen atom positions removed from atoms on special positions
#
###############################################################################

data_QOTKOC04
_chemical_formula_moiety         '(C322 H264 In18 O72)n'
_symmetry_cell_setting           triclinic
_symmetry_space_group_name_H-M   'P 1'
_symmetry_Int_Tables_number      1
_space_group_name_Hall           'P 1'
loop_
_symmetry_equiv_pos_site_id
_symmetry_equiv_pos_as_xyz
1 x,y,z
_cell_length_a                   32.0701(11)
_cell_length_b                   32.0701(11)
_cell_length_c                   33.4201(12)
_cell_angle_alpha                90
_cell_angle_beta                 90
_cell_angle_gamma                120
_cell_volume                     29767.3
loop_
_atom_site_label
_atom_site_type_symbol
_atom_site_fract_x
_atom_site_fract_y
_atom_site_fract_z
C58 C -0.0000 0.5000 0.2500
O15 O 0.25910(13) 0.57670(9) 0.04526(8)
O16 O 0.23849(13) 0.63540(10) 0.04530(7)
C68 C 0.19753(24) 0.56899(16) 0.08913(13)
C69 C 0.23670(25) 0.59661(17) 0.05669(14)
C70 C 0.06350(21) 0.51069(14) 0.19719(11)
H36 H 0.0705 0.5417 0.1906
C71 C 0.02894(20) 0.48518(15) 0.22567(11)
C72 C 0.12761(25) 0.51885(17) 0.14689(14)
C73 C 0.07688(23) 0.44426(17) 0.18566(14)
H37 H 0.0926 0.4307 0.1721
C74 C 0.08789(25) 0.49101(18) 0.17830(13)
C75 C 0.19357(25) 0.52890(18) 0.10651(15)
H38 H 0.2143 0.5179 0.0991
C76 C 0.16803(25) 0.58545(17) 0.10236(14)
H39 H 0.1721 0.6145 0.0928
C77 C 0.15812(25) 0.50399(17) 0.13562(15)
H40 H 0.1558 0.4766 0.1473
C78 C 0.04112(25) 0.41785(17) 0.21441(15)
H41 H 0.0329 0.3863 0.2202
C79 C 0.01825(22) 0.43890(15) 0.23409(11)
C80 C 0.13234(27) 0.55937(19) 0.12977(14)
H42 H 0.1110 0.5698 0.1368
O17 O 0.25910(13) 0.68240(10) 0.45474(8)
O18 O 0.23849(13) 0.60309(9) 0.45470(7)
C81 C 0.19753(24) 0.62854(18) 0.41087(13)
C82 C 0.23670(25) 0.64009(18) 0.44331(14)
C83 C 0.06350(21) 0.55281(15) 0.30281(11)
H43 H 0.0705 0.5288 0.3094
C84 C 0.02894(20) 0.54376(13) 0.27433(11)
C85 C 0.12761(25) 0.60876(19) 0.35311(14)
C86 C 0.07688(23) 0.63262(16) 0.31434(14)
H44 H 0.0926 0.6619 0.3279
C87 C 0.08789(25) 0.59688(18) 0.32170(13)
C88 C 0.19357(25) 0.66467(18) 0.39349(15)
H45 H 0.2143 0.6964 0.4009
C89 C 0.16803(25) 0.58258(18) 0.39764(14)
H46 H 0.1721 0.5576 0.4072
C90 C 0.15812(25) 0.65413(19) 0.36438(15)
H47 H 0.1558 0.6792 0.3527
C91 C 0.04112(25) 0.62327(18) 0.28559(15)
H48 H 0.0329 0.6466 0.2798
C92 C 0.01825(22) 0.57935(16) 0.26591(11)
C93 C 0.13234(27) 0.57297(19) 0.37023(14)
H49 H 0.1110 0.5412 0.3632
In7 In 0.28255(2) 0.68682(3) 0.0000
In9 In 0.31318(3) 0.59573(2) 0.0000
In17 In 0.28255(2) 0.59573(2) 0.5000
In19 In 0.31318(3) 0.71745(2) 0.5000
In7_2 In 0.28255(2) 0.68682(3) 1.0000
In9_2 In 0.31318(3) 0.59573(2) 1.0000
C111 C 0.5000 0.0000 0.2500
O24 O 0.68240(10) 0.25910(13) 0.04526(8)
O25 O 0.60309(9) 0.23849(13) 0.04530(7)
C121 C 0.62854(18) 0.19753(24) 0.08913(13)
C122 C 0.64009(18) 0.23670(25) 0.05669(14)
C123 C 0.55281(15) 0.06350(21) 0.19719(11)
H64 H 0.5288 0.0705 0.1906
C124 C 0.54376(13) 0.02894(20) 0.22567(11)
C125 C 0.60876(19) 0.12761(25) 0.14689(14)
C126 C 0.63262(16) 0.07688(23) 0.18566(14)
H65 H 0.6619 0.0926 0.1721
C127 C 0.59688(18) 0.08789(25) 0.17830(13)
C128 C 0.66467(18) 0.19357(25) 0.10651(15)
H66 H 0.6964 0.2143 0.0991
C129 C 0.58258(18) 0.16803(25) 0.10236(14)
H67 H 0.5576 0.1721 0.0928
C130 C 0.65413(19) 0.15812(25) 0.13562(15)
H68 H 0.6792 0.1558 0.1473
C131 C 0.62327(18) 0.04112(25) 0.21441(15)
H69 H 0.6466 0.0329 0.2202
C132 C 0.57935(16) 0.01825(22) 0.23409(11)
C133 C 0.57297(19) 0.13234(27) 0.12977(14)
H70 H 0.5412 0.1110 0.1368
O26 O 0.57670(9) 0.25910(13) 0.45474(8)
O27 O 0.63540(10) 0.23849(13) 0.45470(7)
C134 C 0.56899(16) 0.19753(24) 0.41087(13)
C135 C 0.59661(17) 0.23670(25) 0.44331(14)
C136 C 0.51069(14) 0.06350(21) 0.30281(11)
H71 H 0.5417 0.0705 0.3094
C137 C 0.48518(15) 0.02894(20) 0.27433(11)
C138 C 0.51885(17) 0.12761(25) 0.35311(14)
C139 C 0.44426(17) 0.07688(23) 0.31434(14)
H72 H 0.4307 0.0926 0.3279
C140 C 0.49101(18) 0.08789(25) 0.32170(13)
C141 C 0.52890(18) 0.19357(25) 0.39349(15)
H73 H 0.5179 0.2143 0.4009
C142 C 0.58545(17) 0.16803(25) 0.39764(14)
H74 H 0.6145 0.1721 0.4072
C143 C 0.50399(17) 0.15812(25) 0.36438(15)
H75 H 0.4766 0.1558 0.3527
C144 C 0.41785(17) 0.04112(25) 0.28559(15)
H76 H 0.3863 0.0329 0.2798
C145 C 0.43890(15) 0.01825(22) 0.26591(11)
C146 C 0.55937(19) 0.13234(27) 0.37023(14)
H77 H 0.5698 0.1110 0.3632
In8 In 0.59573(2) 0.28255(2) 0.0000
In10 In 0.71745(2) 0.31318(3) 0.0000
In12 In 0.68682(3) 0.28255(2) 0.5000
In14 In 0.59573(2) 0.31318(3) 0.5000
In8_2 In 0.59573(2) 0.28255(2) 1.0000
In10_2 In 0.71745(2) 0.31318(3) 1.0000
In1 In 0.40427(2) 0.71745(2) 0.0000
O1 O 0.42330(9) 0.68240(10) 0.04526(8)
O2 O 0.47932(11) 0.77121(12) 0.0000
O3 O 0.36460(10) 0.60309(9) 0.04530(7)
C1 C 0.43101(16) 0.62854(18) 0.08913(13)
C2 C 0.40339(17) 0.64009(18) 0.05669(14)
C3 C 0.48931(14) 0.55281(15) 0.19719(11)
H1 H 0.4583 0.5288 0.1906
C4 C 0.51482(15) 0.54376(13) 0.22567(11)
C5 C 0.5000 0.5000 0.2500
C6 C 0.48115(17) 0.60876(19) 0.14689(14)
C7 C 0.55574(17) 0.63262(16) 0.18566(14)
H2 H 0.5693 0.6619 0.1721
C8 C 0.50899(18) 0.59688(18) 0.17830(13)
O4 O 0.3333 0.6667 0.0000
C9 C 0.47110(18) 0.66467(18) 0.10651(15)
H3 H 0.4821 0.6964 0.0991
C10 C 0.41455(17) 0.58258(18) 0.10236(14)
H4 H 0.3855 0.5576 0.0928
C11 C 0.49601(17) 0.65413(19) 0.13562(15)
H5 H 0.5234 0.6792 0.1473
C12 C 0.58215(17) 0.62327(18) 0.21441(15)
H6 H 0.6137 0.6466 0.2202
C13 C 0.56110(15) 0.57935(16) 0.23409(11)
C14 C 0.44063(19) 0.57297(19) 0.12977(14)
H7 H 0.4302 0.5412 0.1368
O5 O 0.57670(9) 0.31760(10) 0.04526(8)
O6 O 0.63540(10) 0.39691(9) 0.04530(7)
C15 C 0.56899(16) 0.37146(18) 0.08913(13)
C16 C 0.59661(17) 0.35991(18) 0.05669(14)
C17 C 0.51069(14) 0.44719(15) 0.19719(11)
H8 H 0.5417 0.4712 0.1906
C18 C 0.48518(15) 0.45624(13) 0.22567(11)
C19 C 0.51885(17) 0.39124(19) 0.14689(14)
C20 C 0.44426(17) 0.36738(16) 0.18566(14)
H9 H 0.4307 0.3381 0.1721
C21 C 0.49101(18) 0.40312(18) 0.17830(13)
C22 C 0.52890(18) 0.33533(18) 0.10651(15)
H10 H 0.5179 0.3036 0.0991
C23 C 0.58545(17) 0.41742(18) 0.10236(14)
H11 H 0.6145 0.4424 0.0928
C24 C 0.50399(17) 0.34587(19) 0.13562(15)
H12 H 0.4766 0.3208 0.1473
C25 C 0.41785(17) 0.37673(18) 0.21441(15)
H13 H 0.3863 0.3534 0.2202
C26 C 0.43890(15) 0.42065(16) 0.23409(11)
C27 C 0.55937(19) 0.42703(19) 0.12977(14)
H14 H 0.5698 0.4588 0.1368
O7 O 0.68240(10) 0.42330(9) 0.45474(8)
O8 O 0.60309(9) 0.36460(10) 0.45470(7)
C28 C 0.62854(18) 0.43101(16) 0.41087(13)
C29 C 0.64009(18) 0.40339(17) 0.44331(14)
C30 C 0.55281(15) 0.48931(14) 0.30281(11)
H15 H 0.5288 0.4583 0.3094
C31 C 0.54376(13) 0.51482(15) 0.27433(11)
C32 C 0.60876(19) 0.48115(17) 0.35311(14)
C33 C 0.63262(16) 0.55574(17) 0.31434(14)
H16 H 0.6619 0.5693 0.3279
C34 C 0.59688(18) 0.50899(18) 0.32170(13)
C35 C 0.66467(18) 0.47110(18) 0.39349(15)
H17 H 0.6964 0.4821 0.4009
C36 C 0.58258(18) 0.41455(17) 0.39764(14)
H18 H 0.5576 0.3855 0.4072
C37 C 0.65413(19) 0.49601(17) 0.36438(15)
H19 H 0.6792 0.5234 0.3527
C38 C 0.62327(18) 0.58215(17) 0.28559(15)
H20 H 0.6466 0.6137 0.2798
C39 C 0.57935(16) 0.56110(15) 0.26591(11)
C40 C 0.57297(19) 0.44063(19) 0.37023(14)
H21 H 0.5412 0.4302 0.3632
O9 O 0.31760(10) 0.57670(9) 0.45474(8)
O10 O 0.39691(9) 0.63540(10) 0.45470(7)
C41 C 0.37146(18) 0.56899(16) 0.41087(13)
C42 C 0.35991(18) 0.59661(17) 0.44331(14)
C43 C 0.44719(15) 0.51069(14) 0.30281(11)
H22 H 0.4712 0.5417 0.3094
C44 C 0.45624(13) 0.48518(15) 0.27433(11)
C45 C 0.39124(19) 0.51885(17) 0.35311(14)
C46 C 0.36738(16) 0.44426(17) 0.31434(14)
H23 H 0.3381 0.4307 0.3279
C47 C 0.40312(18) 0.49101(18) 0.32170(13)
C48 C 0.33533(18) 0.52890(18) 0.39349(15)
H24 H 0.3036 0.5179 0.4009
C49 C 0.41742(18) 0.58545(17) 0.39764(14)
H25 H 0.4424 0.6145 0.4072
C50 C 0.34587(19) 0.50399(17) 0.36438(15)
H26 H 0.3208 0.4766 0.3527
C51 C 0.37673(18) 0.41785(17) 0.28559(15)
H27 H 0.3534 0.3863 0.2798
C52 C 0.42065(16) 0.43890(15) 0.26591(11)
C53 C 0.42703(19) 0.55937(19) 0.37023(14)
H28 H 0.4588 0.5698 0.3632
In2 In 0.68682(3) 0.40427(2) 0.0000
O11 O 0.74090(13) 0.42330(9) 0.04526(8)
O12 O 0.70811(16) 0.47932(11) 0.0000
O13 O 0.76151(13) 0.36460(10) 0.04530(7)
C54 C 0.80247(24) 0.43101(16) 0.08913(13)
C55 C 0.76330(25) 0.40339(17) 0.05669(14)
C56 C 0.93650(21) 0.48931(14) 0.19719(11)
H29 H 0.9295 0.4583 0.1906
C57 C 0.97106(20) 0.51482(15) 0.22567(11)
C58_2 C 1.0000 0.5000 0.2500
C59 C 0.87239(25) 0.48115(17) 0.14689(14)
C60 C 0.92312(23) 0.55574(17) 0.18566(14)
H30 H 0.9074 0.5693 0.1721
C61 C 0.91211(25) 0.50899(18) 0.17830(13)
O14 O 0.6666 0.3333 0.0000
C62 C 0.80643(25) 0.47110(18) 0.10651(15)
H31 H 0.7857 0.4821 0.0991
C63 C 0.83197(25) 0.41455(17) 0.10236(14)
H32 H 0.8279 0.3855 0.0928
C64 C 0.84188(25) 0.49601(17) 0.13562(15)
H33 H 0.8442 0.5234 0.1473
C65 C 0.95888(25) 0.58215(17) 0.21441(15)
H34 H 0.9671 0.6137 0.2202
C66 C 0.98175(22) 0.56110(15) 0.23409(11)
C67 C 0.86766(27) 0.44063(19) 0.12977(14)
H35 H 0.8890 0.4302 0.1368
O19 O 0.74090(13) 0.31760(10) 0.45474(8)
O20 O 0.76151(13) 0.39691(9) 0.45470(7)
C94 C 0.80247(24) 0.37146(18) 0.41087(13)
C95 C 0.76330(25) 0.35991(18) 0.44331(14)
C96 C 0.93650(21) 0.44719(15) 0.30281(11)
H50 H 0.9295 0.4712 0.3094
C97 C 0.97106(20) 0.45624(13) 0.27433(11)
C98 C 0.87239(25) 0.39124(19) 0.35311(14)
C99 C 0.92312(23) 0.36738(16) 0.31434(14)
H51 H 0.9074 0.3381 0.3279
C100 C 0.91211(25) 0.40312(18) 0.32170(13)
C101 C 0.80643(25) 0.33533(18) 0.39349(15)
H52 H 0.7857 0.3036 0.4009
C102 C 0.83197(25) 0.41742(18) 0.39764(14)
H53 H 0.8279 0.4424 0.4072
C103 C 0.84188(25) 0.34587(19) 0.36438(15)
H54 H 0.8442 0.3208 0.3527
C104 C 0.95888(25) 0.37673(18) 0.28559(15)
H55 H 0.9671 0.3534 0.2798
C105 C 0.98175(22) 0.42065(16) 0.26591(11)
C106 C 0.86766(27) 0.42703(19) 0.37023(14)
H56 H 0.8890 0.4588 0.3632
O21 O 0.31760(10) 0.74090(13) 0.04526(8)
O22 O 0.22879(12) 0.70811(16) 0.0000
O23 O 0.39691(9) 0.76151(13) 0.04530(7)
C107 C 0.37146(18) 0.80247(24) 0.08913(13)
C108 C 0.35991(18) 0.76330(25) 0.05669(14)
C109 C 0.44719(15) 0.93650(21) 0.19719(11)
H57 H 0.4712 0.9295 0.1906
C110 C 0.45624(13) 0.97106(20) 0.22567(11)
C111_2 C 0.5000 1.0000 0.2500
C112 C 0.39124(19) 0.87239(25) 0.14689(14)
C113 C 0.36738(16) 0.92312(23) 0.18566(14)
H58 H 0.3381 0.9074 0.1721
C114 C 0.40312(18) 0.91211(25) 0.17830(13)
C115 C 0.33533(18) 0.80643(25) 0.10651(15)
H59 H 0.3036 0.7857 0.0991
C116 C 0.41742(18) 0.83197(25) 0.10236(14)
H60 H 0.4424 0.8279 0.0928
C117 C 0.34587(19) 0.84188(25) 0.13562(15)
H61 H 0.3208 0.8442 0.1473
C118 C 0.37673(18) 0.95888(25) 0.21441(15)
H62 H 0.3534 0.9671 0.2202
C119 C 0.42065(16) 0.98175(22) 0.23409(11)
C120 C 0.42703(19) 0.86766(27) 0.12977(14)
H63 H 0.4588 0.8890 0.1368
O28 O 0.42330(9) 0.74090(13) 0.45474(8)
O29 O 0.36460(10) 0.76151(13) 0.45470(7)
C147 C 0.43101(16) 0.80247(24) 0.41087(13)
C148 C 0.40339(17) 0.76330(25) 0.44331(14)
C149 C 0.48931(14) 0.93650(21) 0.30281(11)
H78 H 0.4583 0.9295 0.3094
C150 C 0.51482(15) 0.97106(20) 0.27433(11)
C151 C 0.48115(17) 0.87239(25) 0.35311(14)
C152 C 0.55574(17) 0.92312(23) 0.31434(14)
H79 H 0.5693 0.9074 0.3279
C153 C 0.50899(18) 0.91211(25) 0.32170(13)
C154 C 0.47110(18) 0.80643(25) 0.39349(15)
H80 H 0.4821 0.7857 0.4009
C155 C 0.41455(17) 0.83197(25) 0.39764(14)
H81 H 0.3855 0.8279 0.4072
C156 C 0.49601(17) 0.84188(25) 0.36438(15)
H82 H 0.5234 0.8442 0.3527
C157 C 0.58215(17) 0.95888(25) 0.28559(15)
H83 H 0.6137 0.9671 0.2798
C158 C 0.56110(15) 0.98175(22) 0.26591(11)
C159 C 0.44063(19) 0.86766(27) 0.37023(14)
H84 H 0.4302 0.8890 0.3632
O30 O 0.52068(11) 0.22879(12) 0.0000
O31 O 0.29189(16) 0.52068(11) 0.0000
O32 O 0.77121(12) 0.29189(16) 0.0000
In15 In 0.71745(2) 0.40427(2) 0.5000
In20 In 0.40427(2) 0.68682(3) 0.5000
In1_2 In 0.40427(2) 0.71745(2) 1.0000
O2_2 O 0.47932(11) 0.77121(12) 1.0000
O4_2 O 0.3333 0.6667 1.0000
In2_2 In 0.68682(3) 0.40427(2) 1.0000
O12_2 O 0.70811(16) 0.47932(11) 1.0000
O14_2 O 0.6666 0.3333 1.0000
O22_2 O 0.22879(12) 0.70811(16) 1.0000
O30_2 O 0.52068(11) 0.22879(12) 1.0000
O31_2 O 0.29189(16) 0.52068(11) 1.0000
O32_2 O 0.77121(12) 0.29189(16) 1.0000
O35 O 0.57670(9) 0.31760(10) 0.95474(8)
O36 O 0.25910(13) 0.57670(9) 0.95474(8)
O37 O 0.68240(10) 0.25910(13) 0.95474(8)
O38 O 0.42330(9) 0.68240(10) 0.95474(8)
O39 O 0.74090(13) 0.42330(9) 0.95474(8)
O40 O 0.31760(10) 0.74090(13) 0.95474(8)
O43 O 0.63540(10) 0.39691(9) 0.95470(7)
O44 O 0.23849(13) 0.63540(10) 0.95470(7)
O45 O 0.60309(9) 0.23849(13) 0.95470(7)
O46 O 0.36460(10) 0.60309(9) 0.95470(7)
O47 O 0.76151(13) 0.36460(10) 0.95470(7)
O48 O 0.39691(9) 0.76151(13) 0.95470(7)
O12_3 O 0.22879(19) 0.52068(11) 0.5000
O14_3 O 0.3333 0.6667 0.5000
O30_3 O 0.29189(16) 0.77121(12) 0.5000
O32_3 O 0.47932(20) 0.70811(16) 0.5000
O35_2 O 0.25910(13) 0.68240(10) 0.54526(8)
O37_2 O 0.42330(16) 0.74090(13) 0.54526(8)
O39_2 O 0.31760(16) 0.57670(9) 0.54526(8)
O43_2 O 0.23849(13) 0.60309(9) 0.54530(7)
O45_2 O 0.36460(16) 0.76151(13) 0.54530(7)
O47_2 O 0.39691(16) 0.63540(10) 0.54530(7)
O2_3 O 0.70811(16) 0.22879(12) 0.5000
O4_3 O 0.6666 0.3333 0.5000
O22_3 O 0.52068(20) 0.29189(16) 0.5000
O31_3 O 0.77121(19) 0.47932(11) 0.5000
O36_2 O 0.68240(16) 0.42330(9) 0.54526(8)
O38_2 O 0.74090(13) 0.31760(10) 0.54526(8)
O40_2 O 0.57670(16) 0.25910(13) 0.54526(8)
O44_2 O 0.60309(16) 0.36460(10) 0.54530(7)
O46_2 O 0.76151(13) 0.39691(9) 0.54530(7)
O48_2 O 0.63540(16) 0.23849(13) 0.54530(7)
C1_2 C 0.56899(16) 0.37146(18) 0.91087(13)
C2_2 C 0.59661(17) 0.35991(18) 0.94331(14)
C3_2 C 0.51069(14) 0.44719(15) 0.80281(11)
H1_2 H 0.5417 0.4712 0.8094
C4_2 C 0.48518(15) 0.45624(13) 0.77433(11)
C5_2 C 0.5000 0.5000 0.7500
C6_2 C 0.51885(17) 0.39124(19) 0.85311(14)
C7_2 C 0.44426(17) 0.36738(16) 0.81434(14)
H2_2 H 0.4307 0.3381 0.8279
C8_2 C 0.49101(18) 0.40312(18) 0.82170(13)
C9_2 C 0.52890(18) 0.33533(18) 0.89349(15)
H3_2 H 0.5179 0.3036 0.9009
C10_2 C 0.58545(17) 0.41742(18) 0.89764(14)
H4_2 H 0.6145 0.4424 0.9072
C11_2 C 0.50399(17) 0.34587(19) 0.86438(15)
H5_2 H 0.4766 0.3208 0.8527
C12_2 C 0.41785(17) 0.37673(18) 0.78559(15)
H6_2 H 0.3863 0.3534 0.7798
C13_2 C 0.43890(15) 0.42065(16) 0.76591(11)
C14_2 C 0.55937(19) 0.42703(19) 0.87023(14)
H7_2 H 0.5698 0.4588 0.8632
C15_2 C 0.43101(16) 0.62854(18) 0.91087(13)
C16_2 C 0.40339(17) 0.64009(18) 0.94331(14)
C17_2 C 0.48931(14) 0.55281(15) 0.80281(11)
H8_2 H 0.4583 0.5288 0.8094
C18_2 C 0.51482(15) 0.54376(13) 0.77433(11)
C19_2 C 0.48115(17) 0.60876(19) 0.85311(14)
C20_2 C 0.55574(17) 0.63262(16) 0.81434(14)
H9_2 H 0.5693 0.6619 0.8279
C21_2 C 0.50899(18) 0.59688(18) 0.82170(13)
C22_2 C 0.47110(18) 0.66467(18) 0.89349(15)
H10_2 H 0.4821 0.6964 0.9009
C23_2 C 0.41455(17) 0.58258(18) 0.89764(14)
H11_2 H 0.3855 0.5576 0.9072
C24_2 C 0.49601(17) 0.65413(19) 0.86438(15)
H12_2 H 0.5234 0.6792 0.8527
C25_2 C 0.58215(17) 0.62327(18) 0.78559(15)
H13_2 H 0.6137 0.6466 0.7798
C26_2 C 0.56110(15) 0.57935(16) 0.76591(11)
C27_2 C 0.44063(19) 0.57297(19) 0.87023(14)
H14_2 H 0.4302 0.5412 0.8632
C28_2 C 0.37146(18) 0.56899(16) 0.58913(13)
C29_2 C 0.35991(18) 0.59661(17) 0.55669(14)
C30_2 C 0.44719(15) 0.51069(14) 0.69719(11)
H15_2 H 0.4712 0.5417 0.6906
C31_2 C 0.45624(13) 0.48518(15) 0.72567(11)
C32_2 C 0.39124(19) 0.51885(17) 0.64689(14)
C33_2 C 0.36738(16) 0.44426(17) 0.68566(14)
H16_2 H 0.3381 0.4307 0.6721
C34_2 C 0.40312(18) 0.49101(18) 0.67830(13)
C35_2 C 0.33533(18) 0.52890(18) 0.60651(15)
H17_2 H 0.3036 0.5179 0.5991
C36_2 C 0.41742(18) 0.58545(17) 0.60236(14)
H18_2 H 0.4424 0.6145 0.5928
C37_2 C 0.34587(19) 0.50399(17) 0.63562(15)
H19_2 H 0.3208 0.4766 0.6473
C38_2 C 0.37673(18) 0.41785(17) 0.71441(15)
H20_2 H 0.3534 0.3863 0.7202
C39_2 C 0.42065(16) 0.43890(15) 0.73409(11)
C40_2 C 0.42703(19) 0.55937(19) 0.62977(14)
H21_2 H 0.4588 0.5698 0.6368
C41_2 C 0.62854(18) 0.43101(16) 0.58913(13)
C42_2 C 0.64009(18) 0.40339(17) 0.55669(14)
C43_2 C 0.55281(15) 0.48931(14) 0.69719(11)
H22_2 H 0.5288 0.4583 0.6906
C44_2 C 0.54376(13) 0.51482(15) 0.72567(11)
C45_2 C 0.60876(19) 0.48115(17) 0.64689(14)
C46_2 C 0.63262(16) 0.55574(17) 0.68566(14)
H23_2 H 0.6619 0.5693 0.6721
C47_2 C 0.59688(18) 0.50899(18) 0.67830(13)
C48_2 C 0.66467(18) 0.47110(18) 0.60651(15)
H24_2 H 0.6964 0.4821 0.5991
C49_2 C 0.58258(18) 0.41455(17) 0.60236(14)
H25_2 H 0.5576 0.3855 0.5928
C50_2 C 0.65413(19) 0.49601(17) 0.63562(15)
H26_2 H 0.6792 0.5234 0.6473
C51_2 C 0.62327(18) 0.58215(17) 0.71441(15)
H27_2 H 0.6466 0.6137 0.7202
C52_2 C 0.57935(16) 0.56110(15) 0.73409(11)
C53_2 C 0.57297(19) 0.44063(19) 0.62977(14)
H28_2 H 0.5412 0.4302 0.6368
C54_2 C 0.19753(24) 0.56899(16) 0.91087(13)
C55_2 C 0.23670(25) 0.59661(17) 0.94331(14)
C56_2 C 0.06350(21) 0.51069(14) 0.80281(11)
H29_2 H 0.0705 0.5417 0.8094
C57_2 C 0.02894(20) 0.48518(15) 0.77433(11)
C58_3 C 0.0000 0.5000 0.7500
C59_2 C 0.12761(25) 0.51885(17) 0.85311(14)
C60_2 C 0.07688(23) 0.44426(17) 0.81434(14)
H30_2 H 0.0926 0.4307 0.8279
C61_2 C 0.08789(25) 0.49101(18) 0.82170(13)
C62_2 C 0.19357(25) 0.52890(18) 0.89349(15)
H31_2 H 0.2143 0.5179 0.9009
C63_2 C 0.16803(25) 0.58545(17) 0.89764(14)
H32_2 H 0.1721 0.6145 0.9072
C64_2 C 0.15812(25) 0.50399(17) 0.86438(15)
H33_2 H 0.1558 0.4766 0.8527
C65_2 C 0.04112(25) 0.41785(17) 0.78559(15)
H34_2 H 0.0329 0.3863 0.7798
C66_2 C 0.01825(22) 0.43890(15) 0.76591(11)
C67_2 C 0.13234(27) 0.55937(19) 0.87023(14)
H35_2 H 0.1110 0.5698 0.8632
C94_2 C 0.19753(24) 0.62854(18) 0.58913(13)
C95_2 C 0.23670(25) 0.64009(18) 0.55669(14)
C96_2 C 0.06350(21) 0.55281(15) 0.69719(11)
H50_2 H 0.0705 0.5288 0.6906
C97_2 C 0.02894(20) 0.54376(13) 0.72567(11)
C98_2 C 0.12761(25) 0.60876(19) 0.64689(14)
C99_2 C 0.07688(23) 0.63262(16) 0.68566(14)
H51_2 H 0.0926 0.6619 0.6721
C100_2 C 0.08789(25) 0.59688(18) 0.67830(13)
C101_2 C 0.19357(25) 0.66467(18) 0.60651(15)
H52_2 H 0.2143 0.6964 0.5991
C102_2 C 0.16803(25) 0.58258(18) 0.60236(14)
H53_2 H 0.1721 0.5576 0.5928
C103_2 C 0.15812(25) 0.65413(19) 0.63562(15)
H54_2 H 0.1558 0.6792 0.6473
C104_2 C 0.04112(25) 0.62327(18) 0.71441(15)
H55_2 H 0.0329 0.6466 0.7202
C105_2 C 0.01825(22) 0.57935(16) 0.73409(11)
C106_2 C 0.13234(27) 0.57297(19) 0.62977(14)
H56_2 H 0.1110 0.5412 0.6368
C107_2 C 0.62854(18) 0.19753(24) 0.91087(13)
C108_2 C 0.64009(18) 0.23670(25) 0.94331(14)
C109_2 C 0.55281(15) 0.06350(21) 0.80281(11)
H57_2 H 0.5288 0.0705 0.8094
C110_2 C 0.54376(13) 0.02894(20) 0.77433(11)
C111_3 C 0.5000 0.0000 0.7500
C112_2 C 0.60876(19) 0.12761(25) 0.85311(14)
C113_2 C 0.63262(16) 0.07688(23) 0.81434(14)
H58_2 H 0.6619 0.0926 0.8279
C114_2 C 0.59688(18) 0.08789(25) 0.82170(13)
C115_2 C 0.66467(18) 0.19357(25) 0.89349(15)
H59_2 H 0.6964 0.2143 0.9009
C116_2 C 0.58258(18) 0.16803(25) 0.89764(14)
H60_2 H 0.5576 0.1721 0.9072
C117_2 C 0.65413(19) 0.15812(25) 0.86438(15)
H61_2 H 0.6792 0.1558 0.8527
C118_2 C 0.62327(18) 0.04112(25) 0.78559(15)
H62_2 H 0.6466 0.0329 0.7798
C119_2 C 0.57935(16) 0.01825(22) 0.76591(11)
C120_2 C 0.57297(19) 0.13234(27) 0.87023(14)
H63_2 H 0.5412 0.1110 0.8632
C147_2 C 0.56899(16) 0.19753(24) 0.58913(13)
C148_2 C 0.59661(17) 0.23670(25) 0.55669(14)
C149_2 C 0.51069(14) 0.06350(21) 0.69719(11)
H78_2 H 0.5417 0.0705 0.6906
C150_2 C 0.48518(15) 0.02894(20) 0.72567(11)
C151_2 C 0.51885(17) 0.12761(25) 0.64689(14)
C152_2 C 0.44426(17) 0.07688(23) 0.68566(14)
H79_2 H 0.4307 0.0926 0.6721
C153_2 C 0.49101(18) 0.08789(25) 0.67830(13)
C154_2 C 0.52890(18) 0.19357(25) 0.60651(15)
H80_2 H 0.5179 0.2143 0.5991
C155_2 C 0.58545(17) 0.16803(25) 0.60236(14)
H81_2 H 0.6145 0.1721 0.5928
C156_2 C 0.50399(17) 0.15812(25) 0.63562(15)
H82_2 H 0.4766 0.1558 0.6473
C157_2 C 0.41785(17) 0.04112(25) 0.71441(15)
H83_2 H 0.3863 0.0329 0.7202
C158_2 C 0.43890(15) 0.01825(22) 0.73409(11)
C159_2 C 0.55937(19) 0.13234(27) 0.62977(14)
H84_2 H 0.5698 0.1110 0.6368
C111_4 C 0.5000 1.0000 0.7500
C121_2 C 0.37146(18) 0.80247(24) 0.91087(13)
C122_2 C 0.35991(18) 0.76330(25) 0.94331(14)
C123_2 C 0.44719(15) 0.93650(21) 0.80281(11)
H64_2 H 0.4712 0.9295 0.8094
C124_2 C 0.45624(13) 0.97106(20) 0.77433(11)
C125_2 C 0.39124(19) 0.87239(25) 0.85311(14)
C126_2 C 0.36738(16) 0.92312(23) 0.81434(14)
H65_2 H 0.3381 0.9074 0.8279
C127_2 C 0.40312(18) 0.91211(25) 0.82170(13)
C128_2 C 0.33533(18) 0.80643(25) 0.89349(15)
H66_2 H 0.3036 0.7857 0.9009
C129_2 C 0.41742(18) 0.83197(25) 0.89764(14)
H67_2 H 0.4424 0.8279 0.9072
C130_2 C 0.34587(19) 0.84188(25) 0.86438(15)
H68_2 H 0.3208 0.8442 0.8527
C131_2 C 0.37673(18) 0.95888(25) 0.78559(15)
H69_2 H 0.3534 0.9671 0.7798
C132_2 C 0.42065(16) 0.98175(22) 0.76591(11)
C133_2 C 0.42703(19) 0.86766(27) 0.87023(14)
H70_2 H 0.4588 0.8890 0.8632
C134_2 C 0.43101(16) 0.80247(24) 0.58913(13)
C135_2 C 0.40339(17) 0.76330(25) 0.55669(14)
C136_2 C 0.48931(14) 0.93650(21) 0.69719(11)
H71_2 H 0.4583 0.9295 0.6906
C137_2 C 0.51482(15) 0.97106(20) 0.72567(11)
C138_2 C 0.48115(17) 0.87239(25) 0.64689(14)
C139_2 C 0.55574(17) 0.92312(23) 0.68566(14)
H72_2 H 0.5693 0.9074 0.6721
C140_2 C 0.50899(18) 0.91211(25) 0.67830(13)
C141_2 C 0.47110(18) 0.80643(25) 0.60651(15)
H73_2 H 0.4821 0.7857 0.5991
C142_2 C 0.41455(17) 0.83197(25) 0.60236(14)
H74_2 H 0.3855 0.8279 0.5928
C143_2 C 0.49601(17) 0.84188(25) 0.63562(15)
H75_2 H 0.5234 0.8442 0.6473
C144_2 C 0.58215(17) 0.95888(25) 0.71441(15)
H76_2 H 0.6137 0.9671 0.7202
C145_2 C 0.56110(15) 0.98175(22) 0.73409(11)
C146_2 C 0.44063(19) 0.86766(27) 0.62977(14)
H77_2 H 0.4302 0.8890 0.6368
C58_4 C 1.0000 0.5000 0.7500
C68_2 C 0.80247(24) 0.43101(16) 0.91087(13)
C69_2 C 0.76330(25) 0.40339(17) 0.94331(14)
C70_2 C 0.93650(21) 0.48931(14) 0.80281(11)
H36_2 H 0.9295 0.4583 0.8094
C71_2 C 0.97106(20) 0.51482(15) 0.77433(11)
C72_2 C 0.87239(25) 0.48115(17) 0.85311(14)
C73_2 C 0.92312(23) 0.55574(17) 0.81434(14)
H37_2 H 0.9074 0.5693 0.8279
C74_2 C 0.91211(25) 0.50899(18) 0.82170(13)
C75_2 C 0.80643(25) 0.47110(18) 0.89349(15)
H38_2 H 0.7857 0.4821 0.9009
C76_2 C 0.83197(25) 0.41455(17) 0.89764(14)
H39_2 H 0.8279 0.3855 0.9072
C77_2 C 0.84188(25) 0.49601(17) 0.86438(15)
H40_2 H 0.8442 0.5234 0.8527
C78_2 C 0.95888(25) 0.58215(17) 0.78559(15)
H41_2 H 0.9671 0.6137 0.7798
C79_2 C 0.98175(22) 0.56110(15) 0.76591(11)
C80_2 C 0.86766(27) 0.44063(19) 0.87023(14)
H42_2 H 0.8890 0.4302 0.8632
C81_2 C 0.80247(24) 0.37146(18) 0.58913(13)
C82_2 C 0.76330(25) 0.35991(18) 0.55669(14)
C83_2 C 0.93650(21) 0.44719(15) 0.69719(11)
H43_2 H 0.9295 0.4712 0.6906
C84_2 C 0.97106(20) 0.45624(13) 0.72567(11)
C85_2 C 0.87239(25) 0.39124(19) 0.64689(14)
C86_2 C 0.92312(23) 0.36738(16) 0.68566(14)
H44_2 H 0.9074 0.3381 0.6721
C87_2 C 0.91211(25) 0.40312(18) 0.67830(13)
C88_2 C 0.80643(25) 0.33533(18) 0.60651(15)
H45_2 H 0.7857 0.3036 0.5991
C89_2 C 0.83197(25) 0.41742(18) 0.60236(14)
H46_2 H 0.8279 0.4424 0.5928
C90_2 C 0.84188(25) 0.34587(19) 0.63562(15)
H47_2 H 0.8442 0.3208 0.6473
C91_2 C 0.95888(25) 0.37673(18) 0.71441(15)
H48_2 H 0.9671 0.3534 0.7202
C92_2 C 0.98175(22) 0.42065(16) 0.73409(11)
C93_2 C 0.86766(27) 0.42703(19) 0.62977(14)
H49_2 H 0.8890 0.4588 0.6368
loop_
_geom_bond_atom_site_label_1
_geom_bond_atom_site_label_2
_geom_bond_site_symmetry_1
_geom_bond_site_symmetry_2
O15 C69 1_555 1_555
O16 C69 1_555 1_555
C68 C69 1_555 1_555
C70 H36 1_555 1_555
C71 C58 1_555 1_555
C72 C74 1_555 1_555
C73 H37 1_555 1_555
C74 C70 1_555 1_555
C75 C68 1_555 1_555
H38 C75 1_555 1_555
C76 C68 1_555 1_555
H39 C76 1_555 1_555
C77 C72 1_555 1_555
H40 C77 1_555 1_555
C78 C73 1_555 1_555
H41 C78 1_555 1_555
C79 C71 1_555 1_555
C80 C72 1_555 1_555
H42 C80 1_555 1_555
O17 C82 1_555 1_555
O18 C82 1_555 1_555
C81 C82 1_555 1_555
C83 H43 1_555 1_555
C84 C58 1_555 1_555
C85 C87 1_555 1_555
C86 H44 1_555 1_555
C87 C83 1_555 1_555
C88 C81 1_555 1_555
H45 C88 1_555 1_555
C89 C81 1_555 1_555
H46 C89 1_555 1_555
C90 C85 1_555 1_555
H47 C90 1_555 1_555
C91 C86 1_555 1_555
H48 C91 1_555 1_555
C93 C85 1_555 1_555
H49 C93 1_555 1_555
In7 O16 1_555 1_555
In9 O15 1_555 1_555
In17 O18 1_555 1_555
In19 O17 1_555 1_555
C70 C71 1_555 1_555
C73 C74 1_555 1_555
C75 C77 1_555 1_555
C76 C80 1_555 1_555
C78 C79 1_555 1_555
C83 C84 1_555 1_555
C84 C92 1_555 1_555
C86 C87 1_555 1_555
C88 C90 1_555 1_555
C89 C93 1_555 1_555
C91 C92 1_555 1_555
O24 C122 1_555 1_555
O25 C122 1_555 1_555
C121 C122 1_555 1_555
C123 H64 1_555 1_555
C124 C111 1_555 1_555
C125 C127 1_555 1_555
C126 H65 1_555 1_555
C127 C123 1_555 1_555
C128 C121 1_555 1_555
H66 C128 1_555 1_555
C129 C121 1_555 1_555
H67 C129 1_555 1_555
C130 C125 1_555 1_555
H68 C130 1_555 1_555
C131 C126 1_555 1_555
H69 C131 1_555 1_555
C132 C124 1_555 1_555
C133 C125 1_555 1_555
H70 C133 1_555 1_555
O26 C135 1_555 1_555
O27 C135 1_555 1_555
C134 C135 1_555 1_555
C136 H71 1_555 1_555
C137 C111 1_555 1_555
C138 C140 1_555 1_555
C139 H72 1_555 1_555
C140 C136 1_555 1_555
C141 C134 1_555 1_555
H73 C141 1_555 1_555
C142 C134 1_555 1_555
H74 C142 1_555 1_555
C143 C138 1_555 1_555
H75 C143 1_555 1_555
C144 C139 1_555 1_555
H76 C144 1_555 1_555
C146 C138 1_555 1_555
H77 C146 1_555 1_555
In8 O25 1_555 1_555
In10 O24 1_555 1_555
In12 O27 1_555 1_555
In14 O26 1_555 1_555
C123 C124 1_555 1_555
C126 C127 1_555 1_555
C128 C130 1_555 1_555
C129 C133 1_555 1_555
C131 C132 1_555 1_555
C136 C137 1_555 1_555
C137 C145 1_555 1_555
C139 C140 1_555 1_555
C141 C143 1_555 1_555
C142 C146 1_555 1_555
C144 C145 1_555 1_555
In1 O1 1_555 1_555
O1 C2 1_555 1_555
O2 In1 1_555 1_555
O3 C2 1_555 1_555
C1 C2 1_555 1_555
C3 H1 1_555 1_555
C4 C3 1_555 1_555
C5 C4 1_555 1_555
C6 C8 1_555 1_555
C7 H2 1_555 1_555
C8 C3 1_555 1_555
O4 In1 1_555 1_555
C9 C1 1_555 1_555
H3 C9 1_555 1_555
C10 C1 1_555 1_555
H4 C10 1_555 1_555
C11 C6 1_555 1_555
H5 C11 1_555 1_555
C12 C7 1_555 1_555
H6 C12 1_555 1_555
C13 C4 1_555 1_555
C14 C6 1_555 1_555
H7 C14 1_555 1_555
O5 C16 1_555 1_555
O6 C16 1_555 1_555
C15 C16 1_555 1_555
C17 H8 1_555 1_555
C18 C5 1_555 1_555
C19 C21 1_555 1_555
C20 H9 1_555 1_555
C21 C17 1_555 1_555
C22 C15 1_555 1_555
H10 C22 1_555 1_555
C23 C15 1_555 1_555
H11 C23 1_555 1_555
C24 C19 1_555 1_555
H12 C24 1_555 1_555
C25 C20 1_555 1_555
H13 C25 1_555 1_555
C26 C18 1_555 1_555
C27 C19 1_555 1_555
H14 C27 1_555 1_555
O7 C29 1_555 1_555
O8 C29 1_555 1_555
C28 C29 1_555 1_555
C30 H15 1_555 1_555
C31 C5 1_555 1_555
C32 C34 1_555 1_555
C33 H16 1_555 1_555
C34 C30 1_555 1_555
C35 C28 1_555 1_555
H17 C35 1_555 1_555
C36 C28 1_555 1_555
H18 C36 1_555 1_555
C37 C32 1_555 1_555
H19 C37 1_555 1_555
C38 C33 1_555 1_555
H20 C38 1_555 1_555
C39 C13 1_555 1_555
C40 C32 1_555 1_555
H21 C40 1_555 1_555
O9 C42 1_555 1_555
O10 C42 1_555 1_555
C41 C42 1_555 1_555
C43 H22 1_555 1_555
C44 C5 1_555 1_555
C45 C47 1_555 1_555
C46 H23 1_555 1_555
C47 C43 1_555 1_555
C48 C41 1_555 1_555
H24 C48 1_555 1_555
C49 C41 1_555 1_555
H25 C49 1_555 1_555
C50 C45 1_555 1_555
H26 C50 1_555 1_555
C51 C46 1_555 1_555
H27 C51 1_555 1_555
C52 C26 1_555 1_555
C53 C45 1_555 1_555
H28 C53 1_555 1_555
In2 O6 1_555 1_555
O11 In2 1_555 1_555
O12 In2 1_555 1_555
O13 C55 1_555 1_555
C54 C55 1_555 1_555
C55 O11 1_555 1_555
C56 H29 1_555 1_555
C57 C56 1_555 1_555
C58_2 C57 1_555 1_555
C59 C61 1_555 1_555
C60 H30 1_555 1_555
C61 C56 1_555 1_555
O14 In2 1_555 1_555
C62 C54 1_555 1_555
H31 C62 1_555 1_555
C63 C54 1_555 1_555
H32 C63 1_555 1_555
C64 C59 1_555 1_555
H33 C64 1_555 1_555
C65 C60 1_555 1_555
H34 C65 1_555 1_555
C66 C57 1_555 1_555
C67 C59 1_555 1_555
H35 C67 1_555 1_555
O19 C95 1_555 1_555
O20 C95 1_555 1_555
C94 C95 1_555 1_555
C96 H50 1_555 1_555
C97 C58_2 1_555 1_555
C98 C100 1_555 1_555
C99 H51 1_555 1_555
C100 C96 1_555 1_555
C101 C94 1_555 1_555
H52 C101 1_555 1_555
C102 C94 1_555 1_555
H53 C102 1_555 1_555
C103 C98 1_555 1_555
H54 C103 1_555 1_555
C104 C99 1_555 1_555
H55 C104 1_555 1_555
C106 C98 1_555 1_555
H56 C106 1_555 1_555
In7 O4 1_555 1_555
O21 In7 1_555 1_555
O22 In7 1_555 1_555
O23 In1 1_555 1_555
C107 C108 1_555 1_555
C108 O21 1_555 1_555
C109 H57 1_555 1_555
C110 C109 1_555 1_555
C111_2 C110 1_555 1_555
C112 C114 1_555 1_555
C113 H58 1_555 1_555
C114 C109 1_555 1_555
C115 C107 1_555 1_555
H59 C115 1_555 1_555
C116 C107 1_555 1_555
H60 C116 1_555 1_555
C117 C112 1_555 1_555
H61 C117 1_555 1_555
C118 C113 1_555 1_555
H62 C118 1_555 1_555
C119 C110 1_555 1_555
C120 C112 1_555 1_555
H63 C120 1_555 1_555
O28 C148 1_555 1_555
O29 C148 1_555 1_555
C147 C148 1_555 1_555
C149 H78 1_555 1_555
C150 C111_2 1_555 1_555
C151 C153 1_555 1_555
C152 H79 1_555 1_555
C153 C149 1_555 1_555
C154 C147 1_555 1_555
H80 C154 1_555 1_555
C155 C147 1_555 1_555
H81 C155 1_555 1_555
C156 C151 1_555 1_555
H82 C156 1_555 1_555
C157 C152 1_555 1_555
H83 C157 1_555 1_555
C159 C151 1_555 1_555
H84 C159 1_555 1_555
In8 O5 1_555 1_555
O30 In8 1_555 1_555
In9 O3 1_555 1_555
O31 In9 1_555 1_555
In10 O13 1_555 1_555
O32 In10 1_555 1_555
In12 O19 1_555 1_555
In14 O8 1_555 1_555
In15 O7 1_555 1_555
In17 O9 1_555 1_555
In19 O29 1_555 1_555
In20 O10 1_555 1_555
C7 C8 1_555 1_555
O4 In9 1_555 1_555
C9 C11 1_555 1_555
C10 C14 1_555 1_555
C12 C13 1_555 1_555
C17 C18 1_555 1_555
C20 C21 1_555 1_555
C22 C24 1_555 1_555
C23 C27 1_555 1_555
C25 C26 1_555 1_555
C30 C31 1_555 1_555
C31 C39 1_555 1_555
C33 C34 1_555 1_555
C35 C37 1_555 1_555
C36 C40 1_555 1_555
C38 C39 1_555 1_555
C43 C44 1_555 1_555
C44 C52 1_555 1_555
C46 C47 1_555 1_555
C48 C50 1_555 1_555
C49 C53 1_555 1_555
C51 C52 1_555 1_555
C60 C61 1_555 1_555
O14 In8 1_555 1_555
O14 In10 1_555 1_555
C62 C64 1_555 1_555
C63 C67 1_555 1_555
C65 C66 1_555 1_555
O20 In15 1_555 1_555
C96 C97 1_555 1_555
C97 C105 1_555 1_555
C99 C100 1_555 1_555
C101 C103 1_555 1_555
C102 C106 1_555 1_555
C104 C105 1_555 1_555
O23 C108 1_555 1_555
C113 C114 1_555 1_555
C115 C117 1_555 1_555
C116 C120 1_555 1_555
C118 C119 1_555 1_555
O28 In20 1_555 1_555
C149 C150 1_555 1_555
C150 C158 1_555 1_555
C152 C153 1_555 1_555
C154 C156 1_555 1_555
C155 C159 1_555 1_555
C157 C158 1_555 1_555
O2_2 In1_2 1_555 1_555
O4_2 In1_2 1_555 1_555
O12_2 In2_2 1_555 1_555
O14_2 In2_2 1_555 1_555
In7_2 O4_2 1_555 1_555
O22_2 In7_2 1_555 1_555
O30_2 In8_2 1_555 1_555
O31_2 In9_2 1_555 1_555
O32_2 In10_2 1_555 1_555
O35 In8_2 1_555 1_555
O36 In9_2 1_555 1_555
O37 In10_2 1_555 1_555
O38 In1_2 1_555 1_555
O39 In2_2 1_555 1_555
O40 In7_2 1_555 1_555
O43 In2_2 1_555 1_555
O44 In7_2 1_555 1_555
O45 In8_2 1_555 1_555
O46 In9_2 1_555 1_555
O47 In10_2 1_555 1_555
O48 In1_2 1_555 1_555
O4_2 In9_2 1_555 1_555
O14_2 In8_2 1_555 1_555
O14_2 In10_2 1_555 1_555
O12_3 In17 1_555 1_555
O14_3 In17 1_555 1_555
O30_3 In19 1_555 1_555
O32_3 In20 1_555 1_555
O35_2 In19 1_555 1_555
O37_2 In20 1_555 1_555
O39_2 In17 1_555 1_555
O43_2 In17 1_555 1_555
O45_2 In19 1_555 1_555
O47_2 In20 1_555 1_555
O14_3 In19 1_555 1_555
O14_3 In20 1_555 1_555
O2_3 In12 1_555 1_555
O4_3 In12 1_555 1_555
In14 O4_3 1_555 1_555
O22_3 In14 1_555 1_555
O31_3 In15 1_555 1_555
O36_2 In15 1_555 1_555
O38_2 In12 1_555 1_555
O40_2 In14 1_555 1_555
O44_2 In14 1_555 1_555
O46_2 In15 1_555 1_555
O48_2 In12 1_555 1_555
O4_3 In15 1_555 1_555
O35 C2_2 1_555 1_555
O43 C2_2 1_555 1_555
C1_2 C2_2 1_555 1_555
C3_2 H1_2 1_555 1_555
C4_2 C3_2 1_555 1_555
C5_2 C4_2 1_555 1_555
C6_2 C8_2 1_555 1_555
C7_2 H2_2 1_555 1_555
C8_2 C3_2 1_555 1_555
C9_2 C1_2 1_555 1_555
H3_2 C9_2 1_555 1_555
C10_2 C1_2 1_555 1_555
H4_2 C10_2 1_555 1_555
C11_2 C6_2 1_555 1_555
H5_2 C11_2 1_555 1_555
C12_2 C7_2 1_555 1_555
H6_2 C12_2 1_555 1_555
C13_2 C4_2 1_555 1_555
C14_2 C6_2 1_555 1_555
H7_2 C14_2 1_555 1_555
O38 C16_2 1_555 1_555
O46 C16_2 1_555 1_555
C15_2 C16_2 1_555 1_555
C17_2 H8_2 1_555 1_555
C18_2 C5_2 1_555 1_555
C19_2 C21_2 1_555 1_555
C20_2 H9_2 1_555 1_555
C21_2 C17_2 1_555 1_555
C22_2 C15_2 1_555 1_555
H10_2 C22_2 1_555 1_555
C23_2 C15_2 1_555 1_555
H11_2 C23_2 1_555 1_555
C24_2 C19_2 1_555 1_555
H12_2 C24_2 1_555 1_555
C25_2 C20_2 1_555 1_555
H13_2 C25_2 1_555 1_555
C26_2 C18_2 1_555 1_555
C27_2 C19_2 1_555 1_555
H14_2 C27_2 1_555 1_555
O39_2 C29_2 1_555 1_555
O47_2 C29_2 1_555 1_555
C28_2 C29_2 1_555 1_555
C30_2 H15_2 1_555 1_555
C31_2 C5_2 1_555 1_555
C32_2 C34_2 1_555 1_555
C33_2 H16_2 1_555 1_555
C34_2 C30_2 1_555 1_555
C35_2 C28_2 1_555 1_555
H17_2 C35_2 1_555 1_555
C36_2 C28_2 1_555 1_555
H18_2 C36_2 1_555 1_555
C37_2 C32_2 1_555 1_555
H19_2 C37_2 1_555 1_555
C38_2 C33_2 1_555 1_555
H20_2 C38_2 1_555 1_555
C39_2 C13_2 1_555 1_555
C40_2 C32_2 1_555 1_555
H21_2 C40_2 1_555 1_555
O36_2 C42_2 1_555 1_555
O44_2 C42_2 1_555 1_555
C41_2 C42_2 1_555 1_555
C43_2 H22_2 1_555 1_555
C44_2 C5_2 1_555 1_555
C45_2 C47_2 1_555 1_555
C46_2 H23_2 1_555 1_555
C47_2 C43_2 1_555 1_555
C48_2 C41_2 1_555 1_555
H24_2 C48_2 1_555 1_555
C49_2 C41_2 1_555 1_555
H25_2 C49_2 1_555 1_555
C50_2 C45_2 1_555 1_555
H26_2 C50_2 1_555 1_555
C51_2 C46_2 1_555 1_555
H27_2 C51_2 1_555 1_555
C52_2 C26_2 1_555 1_555
C53_2 C45_2 1_555 1_555
H28_2 C53_2 1_555 1_555
O44 C55_2 1_555 1_555
C54_2 C55_2 1_555 1_555
C55_2 O36 1_555 1_555
C56_2 H29_2 1_555 1_555
C57_2 C56_2 1_555 1_555
C58_3 C57_2 1_555 1_555
C59_2 C61_2 1_555 1_555
C60_2 H30_2 1_555 1_555
C61_2 C56_2 1_555 1_555
C62_2 C54_2 1_555 1_555
H31_2 C62_2 1_555 1_555
C63_2 C54_2 1_555 1_555
H32_2 C63_2 1_555 1_555
C64_2 C59_2 1_555 1_555
H33_2 C64_2 1_555 1_555
C65_2 C60_2 1_555 1_555
H34_2 C65_2 1_555 1_555
C66_2 C57_2 1_555 1_555
C67_2 C59_2 1_555 1_555
H35_2 C67_2 1_555 1_555
O35_2 C95_2 1_555 1_555
O43_2 C95_2 1_555 1_555
C94_2 C95_2 1_555 1_555
C96_2 H50_2 1_555 1_555
C97_2 C58_3 1_555 1_555
C98_2 C100_2 1_555 1_555
C99_2 H51_2 1_555 1_555
C100_2 C96_2 1_555 1_555
C101_2 C94_2 1_555 1_555
H52_2 C101_2 1_555 1_555
C102_2 C94_2 1_555 1_555
H53_2 C102_2 1_555 1_555
C103_2 C98_2 1_555 1_555
H54_2 C103_2 1_555 1_555
C104_2 C99_2 1_555 1_555
H55_2 C104_2 1_555 1_555
C106_2 C98_2 1_555 1_555
H56_2 C106_2 1_555 1_555
C107_2 C108_2 1_555 1_555
C108_2 O37 1_555 1_555
C109_2 H57_2 1_555 1_555
C110_2 C109_2 1_555 1_555
C111_3 C110_2 1_555 1_555
C112_2 C114_2 1_555 1_555
C113_2 H58_2 1_555 1_555
C114_2 C109_2 1_555 1_555
C115_2 C107_2 1_555 1_555
H59_2 C115_2 1_555 1_555
C116_2 C107_2 1_555 1_555
H60_2 C116_2 1_555 1_555
C117_2 C112_2 1_555 1_555
H61_2 C117_2 1_555 1_555
C118_2 C113_2 1_555 1_555
H62_2 C118_2 1_555 1_555
C119_2 C110_2 1_555 1_555
C120_2 C112_2 1_555 1_555
H63_2 C120_2 1_555 1_555
O40_2 C148_2 1_555 1_555
O48_2 C148_2 1_555 1_555
C147_2 C148_2 1_555 1_555
C149_2 H78_2 1_555 1_555
C150_2 C111_3 1_555 1_555
C151_2 C153_2 1_555 1_555
C152_2 H79_2 1_555 1_555
C153_2 C149_2 1_555 1_555
C154_2 C147_2 1_555 1_555
H80_2 C154_2 1_555 1_555
C155_2 C147_2 1_555 1_555
H81_2 C155_2 1_555 1_555
C156_2 C151_2 1_555 1_555
H82_2 C156_2 1_555 1_555
C157_2 C152_2 1_555 1_555
H83_2 C157_2 1_555 1_555
C159_2 C151_2 1_555 1_555
H84_2 C159_2 1_555 1_555
C7_2 C8_2 1_555 1_555
C9_2 C11_2 1_555 1_555
C10_2 C14_2 1_555 1_555
C12_2 C13_2 1_555 1_555
C17_2 C18_2 1_555 1_555
C20_2 C21_2 1_555 1_555
C22_2 C24_2 1_555 1_555
C23_2 C27_2 1_555 1_555
C25_2 C26_2 1_555 1_555
C30_2 C31_2 1_555 1_555
C31_2 C39_2 1_555 1_555
C33_2 C34_2 1_555 1_555
C35_2 C37_2 1_555 1_555
C36_2 C40_2 1_555 1_555
C38_2 C39_2 1_555 1_555
C43_2 C44_2 1_555 1_555
C44_2 C52_2 1_555 1_555
C46_2 C47_2 1_555 1_555
C48_2 C50_2 1_555 1_555
C49_2 C53_2 1_555 1_555
C51_2 C52_2 1_555 1_555
C60_2 C61_2 1_555 1_555
C62_2 C64_2 1_555 1_555
C63_2 C67_2 1_555 1_555
C65_2 C66_2 1_555 1_555
C96_2 C97_2 1_555 1_555
C97_2 C105_2 1_555 1_555
C99_2 C100_2 1_555 1_555
C101_2 C103_2 1_555 1_555
C102_2 C106_2 1_555 1_555
C104_2 C105_2 1_555 1_555
O45 C108_2 1_555 1_555
C113_2 C114_2 1_555 1_555
C115_2 C117_2 1_555 1_555
C116_2 C120_2 1_555 1_555
C118_2 C119_2 1_555 1_555
C149_2 C150_2 1_555 1_555
C150_2 C158_2 1_555 1_555
C152_2 C153_2 1_555 1_555
C154_2 C156_2 1_555 1_555
C155_2 C159_2 1_555 1_555
C157_2 C158_2 1_555 1_555
O40 C122_2 1_555 1_555
O48 C122_2 1_555 1_555
C121_2 C122_2 1_555 1_555
C123_2 H64_2 1_555 1_555
C124_2 C111_4 1_555 1_555
C125_2 C127_2 1_555 1_555
C126_2 H65_2 1_555 1_555
C127_2 C123_2 1_555 1_555
C128_2 C121_2 1_555 1_555
H66_2 C128_2 1_555 1_555
C129_2 C121_2 1_555 1_555
H67_2 C129_2 1_555 1_555
C130_2 C125_2 1_555 1_555
H68_2 C130_2 1_555 1_555
C131_2 C126_2 1_555 1_555
H69_2 C131_2 1_555 1_555
C132_2 C124_2 1_555 1_555
C133_2 C125_2 1_555 1_555
H70_2 C133_2 1_555 1_555
O37_2 C135_2 1_555 1_555
O45_2 C135_2 1_555 1_555
C134_2 C135_2 1_555 1_555
C136_2 H71_2 1_555 1_555
C137_2 C111_4 1_555 1_555
C138_2 C140_2 1_555 1_555
C139_2 H72_2 1_555 1_555
C140_2 C136_2 1_555 1_555
C141_2 C134_2 1_555 1_555
H73_2 C141_2 1_555 1_555
C142_2 C134_2 1_555 1_555
H74_2 C142_2 1_555 1_555
C143_2 C138_2 1_555 1_555
H75_2 C143_2 1_555 1_555
C144_2 C139_2 1_555 1_555
H76_2 C144_2 1_555 1_555
C146_2 C138_2 1_555 1_555
H77_2 C146_2 1_555 1_555
C123_2 C124_2 1_555 1_555
C126_2 C127_2 1_555 1_555
C128_2 C130_2 1_555 1_555
C129_2 C133_2 1_555 1_555
C131_2 C132_2 1_555 1_555
C136_2 C137_2 1_555 1_555
C137_2 C145_2 1_555 1_555
C139_2 C140_2 1_555 1_555
C141_2 C143_2 1_555 1_555
C142_2 C146_2 1_555 1_555
C144_2 C145_2 1_555 1_555
O39 C69_2 1_555 1_555
O47 C69_2 1_555 1_555
C68_2 C69_2 1_555 1_555
C70_2 H36_2 1_555 1_555
C71_2 C58_4 1_555 1_555
C72_2 C74_2 1_555 1_555
C73_2 H37_2 1_555 1_555
C74_2 C70_2 1_555 1_555
C75_2 C68_2 1_555 1_555
H38_2 C75_2 1_555 1_555
C76_2 C68_2 1_555 1_555
H39_2 C76_2 1_555 1_555
C77_2 C72_2 1_555 1_555
H40_2 C77_2 1_555 1_555
C78_2 C73_2 1_555 1_555
H41_2 C78_2 1_555 1_555
C79_2 C71_2 1_555 1_555
C80_2 C72_2 1_555 1_555
H42_2 C80_2 1_555 1_555
O38_2 C82_2 1_555 1_555
O46_2 C82_2 1_555 1_555
C81_2 C82_2 1_555 1_555
C83_2 H43_2 1_555 1_555
C84_2 C58_4 1_555 1_555
C85_2 C87_2 1_555 1_555
C86_2 H44_2 1_555 1_555
C87_2 C83_2 1_555 1_555
C88_2 C81_2 1_555 1_555
H45_2 C88_2 1_555 1_555
C89_2 C81_2 1_555 1_555
H46_2 C89_2 1_555 1_555
C90_2 C85_2 1_555 1_555
H47_2 C90_2 1_555 1_555
C91_2 C86_2 1_555 1_555
H48_2 C91_2 1_555 1_555
C93_2 C85_2 1_555 1_555
H49_2 C93_2 1_555 1_555
C70_2 C71_2 1_555 1_555
C73_2 C74_2 1_555 1_555
C75_2 C77_2 1_555 1_555
C76_2 C80_2 1_555 1_555
C78_2 C79_2 1_555 1_555
C83_2 C84_2 1_555 1_555
C84_2 C92_2 1_555 1_555
C86_2 C87_2 1_555 1_555
C88_2 C90_2 1_555 1_555
C89_2 C93_2 1_555 1_555
C91_2 C92_2 1_555 1_555

#END
