
###############################################################################
#
# This file contains modified crystal structure data generated from the
# MOF subset of the Cambridge Structural Database (CSD) v543 
# hosted by the Cambridge Crystallographic Data Centre (CCDC).
#
# This work is licensed under the Creative Commons
# Attribution-NonCommercial-ShareAlike 4.0 International License.
# To view a copy of this license, visit
# http://creativecommons.org/licenses/by-nc-sa/4.0/
# or send a letter to
# Creative Commons, PO Box 1866, Mountain View, CA 94042, USA.
#
# CIF created using the CSD Python API on 29 September 2022
# The structure has been converted into the P1 space group
# The structure has a 3D framework
# The original CSD entry QOTKOC01 is in the hexagonal crystal system
# The framework has been calculated to contain at least 10.0% void space
# The void calculation uses a probe of radius 1.32A, grid spacing 0.4
# The framework is charged, counterions have been retained in the structure
# H atom positions have been added when not included in the experimental data
# Generated hydrogen atom positions removed from atoms on special positions
#
###############################################################################

data_QOTKOC01
_chemical_formula_moiety         '(C322 H264 In18 O71 2+)n'
_symmetry_cell_setting           triclinic
_symmetry_space_group_name_H-M   'P 1'
_symmetry_Int_Tables_number      1
_space_group_name_Hall           'P 1'
loop_
_symmetry_equiv_pos_site_id
_symmetry_equiv_pos_as_xyz
1 x,y,z
_cell_length_a                   30.346(4)
_cell_length_b                   30.346
_cell_length_c                   35.303(4)
_cell_angle_alpha                90
_cell_angle_beta                 90
_cell_angle_gamma                120
_cell_volume                     28154.3
loop_
_atom_site_label
_atom_site_type_symbol
_atom_site_fract_x
_atom_site_fract_y
_atom_site_fract_z
In2 In 0.31345(6) 0.72127(4) 0.0000
O11 O 0.2338(3) 0.5999(2) 0.04152(16)
O12 O 0.25605(28) 0.6833(2) 0.04295(14)
O13 O 0.3334 0.6667 0.0000
O14 O 0.2923(4) 0.7806(2) 0.0000
C54 C 0.2320(7) 0.6360(5) 0.0525(4)
C55 C 0.1964(8) 0.6288(6) 0.0860(4)
C56 C 0.1673(8) 0.5835(6) 0.1014(4)
H29 H 0.1703 0.5559 0.0917
C57 C 0.1334(7) 0.5734(5) 0.1300(4)
H30 H 0.1116 0.5394 0.1381
C58 C 0.1309(9) 0.6133(7) 0.1474(4)
C59 C 0.1583(6) 0.6603(5) 0.1322(3)
H31 H 0.1545 0.6881 0.1403
C60 C 0.1931(6) 0.6654(4) 0.1036(3)
H32 H 0.2167 0.6991 0.0961
C61 C 0.0878(7) 0.5975(5) 0.1793(4)
C62 C 0.0606(5) 0.5524(4) 0.2010(3)
H33 H 0.0673 0.5256 0.1957
C63 C 0.0264(5) 0.5438(3) 0.2282(2)
C64 C 0.0195(6) 0.5823(4) 0.2352(2)
C65 C 0.0405(6) 0.6282(4) 0.2168(3)
H34 H 0.0302 0.6522 0.2229
C66 C 0.0792(6) 0.6397(4) 0.1877(3)
H35 H 0.0972 0.6718 0.1753
C67 C 0.0000 0.5000 0.2500
O19 O 0.2338(3) 0.6339(2) 0.45848(16)
O20 O 0.25605(28) 0.57275(19) 0.45705(14)
C94 C 0.2320(7) 0.5960(5) 0.4475(4)
C95 C 0.1964(8) 0.5676(6) 0.4140(4)
C96 C 0.1673(8) 0.5838(5) 0.3986(4)
H50 H 0.1703 0.6144 0.4083
C97 C 0.1334(7) 0.5600(5) 0.3700(4)
H51 H 0.1116 0.5722 0.3619
C98 C 0.1309(9) 0.5176(6) 0.3526(4)
C99 C 0.1583(6) 0.4980(4) 0.3678(3)
H52 H 0.1545 0.4664 0.3597
C100 C 0.1931(6) 0.5277(5) 0.3964(3)
H53 H 0.2167 0.5176 0.4039
C101 C 0.0878(7) 0.4903(5) 0.3207(4)
C102 C 0.0606(5) 0.5082(3) 0.2990(3)
H54 H 0.0673 0.5417 0.3043
C103 C 0.0264(5) 0.4826(4) 0.2718(2)
C104 C 0.0195(6) 0.4372(4) 0.2648(2)
C105 C 0.0405(6) 0.4123(4) 0.2832(3)
H55 H 0.0302 0.3780 0.2771
C106 C 0.0792(6) 0.4395(5) 0.3123(3)
H56 H 0.0972 0.4254 0.3247
In8 In 0.27873(4) 0.59218(4) 0.0000
In10 In 0.40782(4) 0.68655(6) 0.0000
In12 In 0.31345(6) 0.59218(4) 0.5000
In14 In 0.27873(4) 0.68655(6) 0.5000
O35 O 0.3661(2) 0.7662(3) 0.04152(16)
In2_2 In 0.31345(6) 0.72127(4) 1.0000
O13_2 O 0.3334 0.6667 1.0000
O14_2 O 0.2923(4) 0.7806(2) 1.0000
In8_2 In 0.27873(4) 0.59218(4) 1.0000
In10_2 In 0.40782(4) 0.68655(6) 1.0000
O38 O 0.3661(2) 0.7662(3) 0.95848(16)
O46 O 0.25605(28) 0.6833(2) 0.95705(14)
In1 In 0.72127(4) 0.40782(4) 0.0000
O1 O 0.5999(2) 0.3661(2) 0.04152(16)
O2 O 0.6833(2) 0.42725(19) 0.04295(14)
O3 O 0.6667 0.3333 0.0000
O4 O 0.7806(2) 0.4883(3) 0.0000
C1 C 0.6360(5) 0.4040(5) 0.0525(4)
C2 C 0.6288(6) 0.4324(6) 0.0860(4)
C3 C 0.5835(6) 0.4162(5) 0.1014(4)
H1 H 0.5559 0.3856 0.0917
C4 C 0.5734(5) 0.4400(5) 0.1300(4)
H2 H 0.5394 0.4278 0.1381
C5 C 0.6133(7) 0.4824(6) 0.1474(4)
C6 C 0.6603(5) 0.5020(4) 0.1322(3)
H3 H 0.6881 0.5336 0.1403
C7 C 0.6654(4) 0.4723(5) 0.1036(3)
H4 H 0.6991 0.4824 0.0961
C8 C 0.5975(5) 0.5097(5) 0.1793(4)
C9 C 0.5524(4) 0.4918(3) 0.2010(3)
H5 H 0.5256 0.4583 0.1957
C10 C 0.5438(3) 0.5174(4) 0.2282(2)
C11 C 0.5823(4) 0.5628(4) 0.2352(2)
C12 C 0.6282(4) 0.5877(4) 0.2168(3)
H6 H 0.6522 0.6220 0.2229
C13 C 0.6397(4) 0.5605(5) 0.1877(3)
H7 H 0.6718 0.5746 0.1753
C14 C 0.5000 0.5000 0.2500
O5 O 0.4001(2) 0.6339(2) 0.04152(16)
O6 O 0.3167(2) 0.57275(19) 0.04295(14)
C15 C 0.3640(5) 0.5960(5) 0.0525(4)
C16 C 0.3712(6) 0.5676(6) 0.0860(4)
C17 C 0.4165(6) 0.5838(5) 0.1014(4)
H8 H 0.4441 0.6144 0.0917
C18 C 0.4266(5) 0.5600(5) 0.1300(4)
H9 H 0.4606 0.5722 0.1381
C19 C 0.3867(7) 0.5176(6) 0.1474(4)
C20 C 0.3397(5) 0.4980(4) 0.1322(3)
H10 H 0.3119 0.4664 0.1403
C21 C 0.3346(4) 0.5277(5) 0.1036(3)
H11 H 0.3009 0.5176 0.0961
C22 C 0.4025(5) 0.4903(5) 0.1793(4)
C23 C 0.4476(4) 0.5082(3) 0.2010(3)
H12 H 0.4744 0.5417 0.1957
C24 C 0.4562(3) 0.4826(4) 0.2282(2)
C25 C 0.4177(4) 0.4372(4) 0.2352(2)
C26 C 0.3718(4) 0.4123(4) 0.2168(3)
H13 H 0.3478 0.3780 0.2229
C27 C 0.3603(4) 0.4395(5) 0.1877(3)
H14 H 0.3282 0.4254 0.1753
O7 O 0.3661(2) 0.5999(2) 0.45848(16)
O8 O 0.42725(19) 0.6833(2) 0.45705(14)
C28 C 0.4040(5) 0.6360(5) 0.4475(4)
C29 C 0.4324(6) 0.6288(6) 0.4140(4)
C30 C 0.4162(5) 0.5835(6) 0.3986(4)
H15 H 0.3856 0.5559 0.4083
C31 C 0.4400(5) 0.5734(5) 0.3700(4)
H16 H 0.4278 0.5394 0.3619
C32 C 0.4824(6) 0.6133(7) 0.3526(4)
C33 C 0.5020(4) 0.6603(5) 0.3678(3)
H17 H 0.5336 0.6881 0.3597
C34 C 0.4723(5) 0.6654(4) 0.3964(3)
H18 H 0.4824 0.6991 0.4039
C35 C 0.5097(5) 0.5975(5) 0.3207(4)
C36 C 0.4918(3) 0.5524(4) 0.2990(3)
H19 H 0.4583 0.5256 0.3043
C37 C 0.5174(4) 0.5438(3) 0.2718(2)
C38 C 0.5628(4) 0.5823(4) 0.2648(2)
C39 C 0.5877(4) 0.6282(4) 0.2832(3)
H20 H 0.6220 0.6522 0.2771
C40 C 0.5605(5) 0.6397(4) 0.3123(3)
H21 H 0.5746 0.6718 0.3247
O9 O 0.6339(2) 0.4001(2) 0.45848(16)
O10 O 0.57275(19) 0.3167(2) 0.45705(14)
C41 C 0.5960(5) 0.3640(5) 0.4475(4)
C42 C 0.5676(6) 0.3712(6) 0.4140(4)
C43 C 0.5838(5) 0.4165(6) 0.3986(4)
H22 H 0.6144 0.4441 0.4083
C44 C 0.5600(5) 0.4266(5) 0.3700(4)
H23 H 0.5722 0.4606 0.3619
C45 C 0.5176(6) 0.3867(7) 0.3526(4)
C46 C 0.4980(4) 0.3397(5) 0.3678(3)
H24 H 0.4664 0.3119 0.3597
C47 C 0.5277(5) 0.3346(4) 0.3964(3)
H25 H 0.5176 0.3009 0.4039
C48 C 0.4903(5) 0.4025(5) 0.3207(4)
C49 C 0.5082(3) 0.4476(4) 0.2990(3)
H26 H 0.5417 0.4744 0.3043
C50 C 0.4826(4) 0.4562(3) 0.2718(2)
C51 C 0.4372(4) 0.4177(4) 0.2648(2)
C52 C 0.4123(4) 0.3718(4) 0.2832(3)
H27 H 0.3780 0.3478 0.2771
C53 C 0.4395(5) 0.3603(4) 0.3123(3)
H28 H 0.4254 0.3282 0.3247
C67_2 C 1.0000 0.5000 0.2500
O15 O 0.7662(3) 0.4001(2) 0.04152(16)
O16 O 0.74395(28) 0.3167(2) 0.04295(14)
C68 C 0.7680(7) 0.3640(5) 0.0525(4)
C69 C 0.8036(8) 0.3712(6) 0.0860(4)
C70 C 0.8327(8) 0.4165(6) 0.1014(4)
H36 H 0.8297 0.4441 0.0917
C71 C 0.8666(7) 0.4266(5) 0.1300(4)
H37 H 0.8884 0.4606 0.1381
C72 C 0.8691(9) 0.3867(7) 0.1474(4)
C73 C 0.8417(6) 0.3397(5) 0.1322(3)
H38 H 0.8455 0.3119 0.1403
C74 C 0.8069(6) 0.3346(4) 0.1036(3)
H39 H 0.7833 0.3009 0.0961
C75 C 0.9122(7) 0.4025(5) 0.1793(4)
C76 C 0.9394(5) 0.4476(4) 0.2010(3)
H40 H 0.9327 0.4744 0.1957
C77 C 0.9736(5) 0.4562(3) 0.2282(2)
C78 C 0.9805(6) 0.4177(4) 0.2352(2)
C79 C 0.9595(6) 0.3718(4) 0.2168(3)
H41 H 0.9698 0.3478 0.2229
C80 C 0.9208(6) 0.3603(4) 0.1877(3)
H42 H 0.9028 0.3282 0.1753
O17 O 0.7662(3) 0.3661(2) 0.45848(16)
O18 O 0.74395(28) 0.42725(19) 0.45705(14)
C81 C 0.7680(7) 0.4040(5) 0.4475(4)
C82 C 0.8036(8) 0.4324(6) 0.4140(4)
C83 C 0.8327(8) 0.4162(5) 0.3986(4)
H43 H 0.8297 0.3856 0.4083
C84 C 0.8666(7) 0.4400(5) 0.3700(4)
H44 H 0.8884 0.4278 0.3619
C85 C 0.8691(9) 0.4824(6) 0.3526(4)
C86 C 0.8417(6) 0.5020(4) 0.3678(3)
H45 H 0.8455 0.5336 0.3597
C87 C 0.8069(6) 0.4723(5) 0.3964(3)
H46 H 0.7833 0.4824 0.4039
C88 C 0.9122(7) 0.5097(5) 0.3207(4)
C89 C 0.9394(5) 0.4918(3) 0.2990(3)
H47 H 0.9327 0.4583 0.3043
C90 C 0.9736(5) 0.5174(4) 0.2718(2)
C91 C 0.9805(6) 0.5628(4) 0.2648(2)
C92 C 0.9595(6) 0.5877(4) 0.2832(3)
H48 H 0.9698 0.6220 0.2771
C93 C 0.9208(6) 0.5605(5) 0.3123(3)
H49 H 0.9028 0.5746 0.3247
In3 In 0.59218(4) 0.31345(6) 0.0000
O21 O 0.6339(2) 0.2338(3) 0.04152(16)
O22 O 0.57275(19) 0.25605(28) 0.04295(14)
O23 O 0.5117(3) 0.2923(4) 0.0000
C107 C 0.5960(5) 0.2320(7) 0.0525(4)
C108 C 0.5676(6) 0.1964(8) 0.0860(4)
C109 C 0.5838(5) 0.1673(8) 0.1014(4)
H57 H 0.6144 0.1703 0.0917
C110 C 0.5600(5) 0.1334(7) 0.1300(4)
H58 H 0.5722 0.1116 0.1381
C111 C 0.5176(6) 0.1309(9) 0.1474(4)
C112 C 0.4980(4) 0.1583(6) 0.1322(3)
H59 H 0.4664 0.1545 0.1403
C113 C 0.5277(5) 0.1931(6) 0.1036(3)
H60 H 0.5176 0.2167 0.0961
C114 C 0.4903(5) 0.0878(7) 0.1793(4)
C115 C 0.5082(3) 0.0606(5) 0.2010(3)
H61 H 0.5417 0.0673 0.1957
C116 C 0.4826(4) 0.0264(5) 0.2282(2)
C117 C 0.4372(4) 0.0195(6) 0.2352(2)
C118 C 0.4123(4) 0.0405(6) 0.2168(3)
H62 H 0.3780 0.0302 0.2229
C119 C 0.4395(5) 0.0792(6) 0.1877(3)
H63 H 0.4254 0.0972 0.1753
C120 C 0.5000 0.0000 0.2500
O28 O 0.5999(2) 0.2338(3) 0.45848(16)
O29 O 0.6833(2) 0.25605(28) 0.45705(14)
C147 C 0.6360(5) 0.2320(7) 0.4475(4)
C148 C 0.6288(6) 0.1964(8) 0.4140(4)
C149 C 0.5835(6) 0.1673(8) 0.3986(4)
H78 H 0.5559 0.1703 0.4083
C150 C 0.5734(5) 0.1334(7) 0.3700(4)
H79 H 0.5394 0.1116 0.3619
C151 C 0.6133(7) 0.1309(9) 0.3526(4)
C152 C 0.6603(5) 0.1583(6) 0.3678(3)
H80 H 0.6881 0.1545 0.3597
C153 C 0.6654(4) 0.1931(6) 0.3964(3)
H81 H 0.6991 0.2167 0.4039
C154 C 0.5975(5) 0.0878(7) 0.3207(4)
C155 C 0.5524(4) 0.0606(5) 0.2990(3)
H82 H 0.5256 0.0673 0.3043
C156 C 0.5438(3) 0.0264(5) 0.2718(2)
C157 C 0.5823(4) 0.0195(6) 0.2648(2)
C158 C 0.6282(4) 0.0405(6) 0.2832(3)
H83 H 0.6522 0.0302 0.2771
C159 C 0.6397(4) 0.0792(6) 0.3123(3)
H84 H 0.6718 0.0972 0.3247
O30 O 0.2194(2) 0.5117(3) 0.0000
In6 In 0.68655(6) 0.27873(4) 0.0000
O32 O 0.7077(4) 0.2194(2) 0.0000
In16 In 0.40782(4) 0.72127(4) 0.5000
In17 In 0.59218(4) 0.27873(4) 0.5000
In18 In 0.68655(6) 0.40782(4) 0.5000
In19 In 0.72127(4) 0.31345(6) 0.5000
In1_2 In 0.72127(4) 0.40782(4) 1.0000
O3_2 O 0.6667 0.3333 1.0000
O4_2 O 0.7806(2) 0.4883(3) 1.0000
In3_2 In 0.59218(4) 0.31345(6) 1.0000
O23_2 O 0.5117(3) 0.2923(4) 1.0000
O30_2 O 0.2194(2) 0.5117(3) 1.0000
In6_2 In 0.68655(6) 0.27873(4) 1.0000
O32_2 O 0.7077(4) 0.2194(2) 1.0000
O37 O 0.7662(3) 0.4001(2) 0.95848(16)
O39 O 0.5999(2) 0.3661(2) 0.95848(16)
O40 O 0.2338(3) 0.5999(2) 0.95848(16)
O41 O 0.6339(2) 0.2338(3) 0.95848(16)
O42 O 0.3167(2) 0.57275(19) 0.95705(14)
O43 O 0.74395(28) 0.3167(2) 0.95705(14)
O45 O 0.6833(2) 0.42725(19) 0.95705(14)
O47 O 0.57275(19) 0.25605(28) 0.95705(14)
C120_2 C 0.5000 1.0000 0.2500
O25 O 0.42725(19) 0.74395(28) 0.04295(14)
C121 C 0.4040(5) 0.7680(7) 0.0525(4)
C122 C 0.4324(6) 0.8036(8) 0.0860(4)
C123 C 0.4162(5) 0.8327(8) 0.1014(4)
H64 H 0.3856 0.8297 0.0917
C124 C 0.4400(5) 0.8666(7) 0.1300(4)
H65 H 0.4278 0.8884 0.1381
C125 C 0.4824(6) 0.8691(9) 0.1474(4)
C126 C 0.5020(4) 0.8417(6) 0.1322(3)
H66 H 0.5336 0.8455 0.1403
C127 C 0.4723(5) 0.8069(6) 0.1036(3)
H67 H 0.4824 0.7833 0.0961
C128 C 0.5097(5) 0.9122(7) 0.1793(4)
C129 C 0.4918(3) 0.9394(5) 0.2010(3)
H68 H 0.4583 0.9327 0.1957
C130 C 0.5174(4) 0.9736(5) 0.2282(2)
C131 C 0.5628(4) 0.9805(6) 0.2352(2)
C132 C 0.5877(4) 0.9595(6) 0.2168(3)
H69 H 0.6220 0.9698 0.2229
C133 C 0.5605(5) 0.9208(6) 0.1877(3)
H70 H 0.5746 0.9028 0.1753
O26 O 0.4001(2) 0.7662(3) 0.45848(16)
O27 O 0.3167(2) 0.74395(28) 0.45705(14)
C134 C 0.3640(5) 0.7680(7) 0.4475(4)
C135 C 0.3712(6) 0.8036(8) 0.4140(4)
C136 C 0.4165(6) 0.8327(8) 0.3986(4)
H71 H 0.4441 0.8297 0.4083
C137 C 0.4266(5) 0.8666(7) 0.3700(4)
H72 H 0.4606 0.8884 0.3619
C138 C 0.3867(7) 0.8691(9) 0.3526(4)
C139 C 0.3397(5) 0.8417(6) 0.3678(3)
H73 H 0.3119 0.8455 0.3597
C140 C 0.3346(4) 0.8069(6) 0.3964(3)
H74 H 0.3009 0.7833 0.4039
C141 C 0.4025(5) 0.9122(7) 0.3207(4)
C142 C 0.4476(4) 0.9394(5) 0.2990(3)
H75 H 0.4744 0.9327 0.3043
C143 C 0.4562(3) 0.9736(5) 0.2718(2)
C144 C 0.4177(4) 0.9805(6) 0.2648(2)
C145 C 0.3718(4) 0.9595(6) 0.2832(3)
H76 H 0.3478 0.9698 0.2771
C146 C 0.3603(4) 0.9208(6) 0.3123(3)
H77 H 0.3282 0.9028 0.3247
O31 O 0.4883(3) 0.7077(4) 0.0000
O31_2 O 0.4883(3) 0.7077(4) 1.0000
O36 O 0.4001(2) 0.6339(2) 0.95848(16)
O44 O 0.42725(19) 0.74395(28) 0.95705(14)
O31_3 O 0.7806(5) 0.2923(4) 0.5000
O36_2 O 0.7662(3) 0.3661(2) 0.54152(16)
O44_2 O 0.68330(34) 0.25605(28) 0.54295(14)
O48 O 0.6667 0.3333 0.5000
O3_3 O 0.3334 0.6667 0.5000
O4_3 O 0.2923(4) 0.5117(3) 0.5000
O14_3 O 0.5117(4) 0.2194(2) 0.5000
O23_3 O 0.2194(5) 0.7077(4) 0.5000
O32_3 O 0.4883(4) 0.7806(2) 0.5000
O37_2 O 0.3661(4) 0.5999(2) 0.54152(16)
O38_2 O 0.5999(4) 0.2338(3) 0.54152(16)
O39_2 O 0.2338(3) 0.6339(2) 0.54152(16)
O41_2 O 0.4001(4) 0.7662(3) 0.54152(16)
O43_2 O 0.42725(34) 0.6833(2) 0.54295(14)
O45_2 O 0.25605(28) 0.57275(19) 0.54295(14)
O46_2 O 0.57275(34) 0.3167(2) 0.54295(14)
O47_2 O 0.31670(34) 0.74395(28) 0.54295(14)
O30_3 O 0.7077(4) 0.4883(3) 0.5000
O40_2 O 0.6339(4) 0.4001(2) 0.54152(16)
O42_2 O 0.74395(28) 0.42725(19) 0.54295(14)
C120_3 C 0.5000 0.0000 0.7500
C121_2 C 0.5960(5) 0.2320(7) 0.9475(4)
C122_2 C 0.5676(6) 0.1964(8) 0.9140(4)
C123_2 C 0.5838(5) 0.1673(8) 0.8986(4)
H64_2 H 0.6144 0.1703 0.9083
C124_2 C 0.5600(5) 0.1334(7) 0.8700(4)
H65_2 H 0.5722 0.1116 0.8619
C125_2 C 0.5176(6) 0.1309(9) 0.8526(4)
C126_2 C 0.4980(4) 0.1583(6) 0.8678(3)
H66_2 H 0.4664 0.1545 0.8597
C127_2 C 0.5277(5) 0.1931(6) 0.8964(3)
H67_2 H 0.5176 0.2167 0.9039
C128_2 C 0.4903(5) 0.0878(7) 0.8207(4)
C129_2 C 0.5082(3) 0.0606(5) 0.7990(3)
H68_2 H 0.5417 0.0673 0.8043
C130_2 C 0.4826(4) 0.0264(5) 0.7718(2)
C131_2 C 0.4372(4) 0.0195(6) 0.7648(2)
C132_2 C 0.4123(4) 0.0405(6) 0.7832(3)
H69_2 H 0.3780 0.0302 0.7771
C133_2 C 0.4395(5) 0.0792(6) 0.8123(3)
H70_2 H 0.4254 0.0972 0.8247
C134_2 C 0.6360(5) 0.2320(7) 0.5525(4)
C135_2 C 0.6288(6) 0.1964(8) 0.5860(4)
C136_2 C 0.5835(6) 0.1673(8) 0.6014(4)
H71_2 H 0.5559 0.1703 0.5917
C137_2 C 0.5734(5) 0.1334(7) 0.6300(4)
H72_2 H 0.5394 0.1116 0.6381
C138_2 C 0.6133(7) 0.1309(9) 0.6474(4)
C139_2 C 0.6603(5) 0.1583(6) 0.6322(3)
H73_2 H 0.6881 0.1545 0.6403
C140_2 C 0.6654(4) 0.1931(6) 0.6036(3)
H74_2 H 0.6991 0.2167 0.5961
C141_2 C 0.5975(5) 0.0878(7) 0.6793(4)
C142_2 C 0.5524(4) 0.0606(5) 0.7010(3)
H75_2 H 0.5256 0.0673 0.6957
C143_2 C 0.5438(3) 0.0264(5) 0.7282(2)
C144_2 C 0.5823(4) 0.0195(6) 0.7352(2)
C145_2 C 0.6282(4) 0.0405(6) 0.7168(3)
H76_2 H 0.6522 0.0302 0.7229
C146_2 C 0.6397(4) 0.0792(6) 0.6877(3)
H77_2 H 0.6718 0.0972 0.6753
C1_2 C 0.3640(5) 0.5960(5) 0.9475(4)
C2_2 C 0.3712(6) 0.5676(6) 0.9140(4)
C3_2 C 0.4165(6) 0.5838(5) 0.8986(4)
H1_2 H 0.4441 0.6144 0.9083
C4_2 C 0.4266(5) 0.5600(5) 0.8700(4)
H2_2 H 0.4606 0.5722 0.8619
C5_2 C 0.3867(7) 0.5176(6) 0.8526(4)
C6_2 C 0.3397(5) 0.4980(4) 0.8678(3)
H3_2 H 0.3119 0.4664 0.8597
C7_2 C 0.3346(4) 0.5277(5) 0.8964(3)
H4_2 H 0.3009 0.5176 0.9039
C8_2 C 0.4025(5) 0.4903(5) 0.8207(4)
C9_2 C 0.4476(4) 0.5082(3) 0.7990(3)
H5_2 H 0.4744 0.5417 0.8043
C10_2 C 0.4562(3) 0.4826(4) 0.7718(2)
C11_2 C 0.4177(4) 0.4372(4) 0.7648(2)
C12_2 C 0.3718(4) 0.4123(4) 0.7832(3)
H6_2 H 0.3478 0.3780 0.7771
C13_2 C 0.3603(4) 0.4395(5) 0.8123(3)
H7_2 H 0.3282 0.4254 0.8247
C14_2 C 0.5000 0.5000 0.7500
C15_2 C 0.6360(5) 0.4040(5) 0.9475(4)
C16_2 C 0.6288(6) 0.4324(6) 0.9140(4)
C17_2 C 0.5835(6) 0.4162(5) 0.8986(4)
H8_2 H 0.5559 0.3856 0.9083
C18_2 C 0.5734(5) 0.4400(5) 0.8700(4)
H9_2 H 0.5394 0.4278 0.8619
C19_2 C 0.6133(7) 0.4824(6) 0.8526(4)
C20_2 C 0.6603(5) 0.5020(4) 0.8678(3)
H10_2 H 0.6881 0.5336 0.8597
C21_2 C 0.6654(4) 0.4723(5) 0.8964(3)
H11_2 H 0.6991 0.4824 0.9039
C22_2 C 0.5975(5) 0.5097(5) 0.8207(4)
C23_2 C 0.5524(4) 0.4918(3) 0.7990(3)
H12_2 H 0.5256 0.4583 0.8043
C24_2 C 0.5438(3) 0.5174(4) 0.7718(2)
C25_2 C 0.5823(4) 0.5628(4) 0.7648(2)
C26_2 C 0.6282(4) 0.5877(4) 0.7832(3)
H13_2 H 0.6522 0.6220 0.7771
C27_2 C 0.6397(4) 0.5605(5) 0.8123(3)
H14_2 H 0.6718 0.5746 0.8247
C28_2 C 0.5960(5) 0.3640(5) 0.5525(4)
C29_2 C 0.5676(6) 0.3712(6) 0.5860(4)
C30_2 C 0.5838(5) 0.4165(6) 0.6014(4)
H15_2 H 0.6144 0.4441 0.5917
C31_2 C 0.5600(5) 0.4266(5) 0.6300(4)
H16_2 H 0.5722 0.4606 0.6381
C32_2 C 0.5176(6) 0.3867(7) 0.6474(4)
C33_2 C 0.4980(4) 0.3397(5) 0.6322(3)
H17_2 H 0.4664 0.3119 0.6403
C34_2 C 0.5277(5) 0.3346(4) 0.6036(3)
H18_2 H 0.5176 0.3009 0.5961
C35_2 C 0.4903(5) 0.4025(5) 0.6793(4)
C36_2 C 0.5082(3) 0.4476(4) 0.7010(3)
H19_2 H 0.5417 0.4744 0.6957
C37_2 C 0.4826(4) 0.4562(3) 0.7282(2)
C38_2 C 0.4372(4) 0.4177(4) 0.7352(2)
C39_2 C 0.4123(4) 0.3718(4) 0.7168(3)
H20_2 H 0.3780 0.3478 0.7229
C40_2 C 0.4395(5) 0.3603(4) 0.6877(3)
H21_2 H 0.4254 0.3282 0.6753
C41_2 C 0.4040(5) 0.6360(5) 0.5525(4)
C42_2 C 0.4324(6) 0.6288(6) 0.5860(4)
C43_2 C 0.4162(5) 0.5835(6) 0.6014(4)
H22_2 H 0.3856 0.5559 0.5917
C44_2 C 0.4400(5) 0.5734(5) 0.6300(4)
H23_2 H 0.4278 0.5394 0.6381
C45_2 C 0.4824(6) 0.6133(7) 0.6474(4)
C46_2 C 0.5020(4) 0.6603(5) 0.6322(3)
H24_2 H 0.5336 0.6881 0.6403
C47_2 C 0.4723(5) 0.6654(4) 0.6036(3)
H25_2 H 0.4824 0.6991 0.5961
C48_2 C 0.5097(5) 0.5975(5) 0.6793(4)
C49_2 C 0.4918(3) 0.5524(4) 0.7010(3)
H26_2 H 0.4583 0.5256 0.6957
C50_2 C 0.5174(4) 0.5438(3) 0.7282(2)
C51_2 C 0.5628(4) 0.5823(4) 0.7352(2)
C52_2 C 0.5877(4) 0.6282(4) 0.7168(3)
H27_2 H 0.6220 0.6522 0.7229
C53_2 C 0.5605(5) 0.6397(4) 0.6877(3)
H28_2 H 0.5746 0.6718 0.6753
C67_3 C -0.0000 0.5000 0.7500
C68_2 C 0.2320(7) 0.6360(5) 0.9475(4)
C69_2 C 0.1964(8) 0.6288(6) 0.9140(4)
C70_2 C 0.1673(8) 0.5835(6) 0.8986(4)
H36_2 H 0.1703 0.5559 0.9083
C71_2 C 0.1334(7) 0.5734(5) 0.8700(4)
H37_2 H 0.1116 0.5394 0.8619
C72_2 C 0.1309(9) 0.6133(7) 0.8526(4)
C73_2 C 0.1583(6) 0.6603(5) 0.8678(3)
H38_2 H 0.1545 0.6881 0.8597
C74_2 C 0.1931(6) 0.6654(4) 0.8964(3)
H39_2 H 0.2167 0.6991 0.9039
C75_2 C 0.0878(7) 0.5975(5) 0.8207(4)
C76_2 C 0.0606(5) 0.5524(4) 0.7990(3)
H40_2 H 0.0673 0.5256 0.8043
C77_2 C 0.0264(5) 0.5438(3) 0.7718(2)
C78_2 C 0.0195(6) 0.5823(4) 0.7648(2)
C79_2 C 0.0405(6) 0.6282(4) 0.7832(3)
H41_2 H 0.0302 0.6522 0.7771
C80_2 C 0.0792(6) 0.6397(4) 0.8123(3)
H42_2 H 0.0972 0.6718 0.8247
C81_2 C 0.2320(7) 0.5960(5) 0.5525(4)
C82_2 C 0.1964(8) 0.5676(6) 0.5860(4)
C83_2 C 0.1673(8) 0.5838(5) 0.6014(4)
H43_2 H 0.1703 0.6144 0.5917
C84_2 C 0.1334(7) 0.5600(5) 0.6300(4)
H44_2 H 0.1116 0.5722 0.6381
C85_2 C 0.1309(9) 0.5176(6) 0.6474(4)
C86_2 C 0.1583(6) 0.4980(4) 0.6322(3)
H45_2 H 0.1545 0.4664 0.6403
C87_2 C 0.1931(6) 0.5277(5) 0.6036(3)
H46_2 H 0.2167 0.5176 0.5961
C88_2 C 0.0878(7) 0.4903(5) 0.6793(4)
C89_2 C 0.0606(5) 0.5082(3) 0.7010(3)
H47_2 H 0.0673 0.5417 0.6957
C90_2 C 0.0264(5) 0.4826(4) 0.7282(2)
C91_2 C 0.0195(6) 0.4372(4) 0.7352(2)
C92_2 C 0.0405(6) 0.4123(4) 0.7168(3)
H48_2 H 0.0302 0.3780 0.7229
C93_2 C 0.0792(6) 0.4395(5) 0.6877(3)
H49_2 H 0.0972 0.4254 0.6753
C107_2 C 0.4040(5) 0.7680(7) 0.9475(4)
C108_2 C 0.4324(6) 0.8036(8) 0.9140(4)
C109_2 C 0.4162(5) 0.8327(8) 0.8986(4)
H57_2 H 0.3856 0.8297 0.9083
C110_2 C 0.4400(5) 0.8666(7) 0.8700(4)
H58_2 H 0.4278 0.8884 0.8619
C111_2 C 0.4824(6) 0.8691(9) 0.8526(4)
C112_2 C 0.5020(4) 0.8417(6) 0.8678(3)
H59_2 H 0.5336 0.8455 0.8597
C113_2 C 0.4723(5) 0.8069(6) 0.8964(3)
H60_2 H 0.4824 0.7833 0.9039
C114_2 C 0.5097(5) 0.9122(7) 0.8207(4)
C115_2 C 0.4918(3) 0.9394(5) 0.7990(3)
H61_2 H 0.4583 0.9327 0.8043
C116_2 C 0.5174(4) 0.9736(5) 0.7718(2)
C117_2 C 0.5628(4) 0.9805(6) 0.7648(2)
C118_2 C 0.5877(4) 0.9595(6) 0.7832(3)
H62_2 H 0.6220 0.9698 0.7771
C119_2 C 0.5605(5) 0.9208(6) 0.8123(3)
H63_2 H 0.5746 0.9028 0.8247
C120_4 C 0.5000 1.0000 0.7500
C147_2 C 0.3640(5) 0.7680(7) 0.5525(4)
C148_2 C 0.3712(6) 0.8036(8) 0.5860(4)
C149_2 C 0.4165(6) 0.8327(8) 0.6014(4)
H78_2 H 0.4441 0.8297 0.5917
C150_2 C 0.4266(5) 0.8666(7) 0.6300(4)
H79_2 H 0.4606 0.8884 0.6381
C151_2 C 0.3867(7) 0.8691(9) 0.6474(4)
C152_2 C 0.3397(5) 0.8417(6) 0.6322(3)
H80_2 H 0.3119 0.8455 0.6403
C153_2 C 0.3346(4) 0.8069(6) 0.6036(3)
H81_2 H 0.3009 0.7833 0.5961
C154_2 C 0.4025(5) 0.9122(7) 0.6793(4)
C155_2 C 0.4476(4) 0.9394(5) 0.7010(3)
H82_2 H 0.4744 0.9327 0.6957
C156_2 C 0.4562(3) 0.9736(5) 0.7282(2)
C157_2 C 0.4177(4) 0.9805(6) 0.7352(2)
C158_2 C 0.3718(4) 0.9595(6) 0.7168(3)
H83_2 H 0.3478 0.9698 0.7229
C159_2 C 0.3603(4) 0.9208(6) 0.6877(3)
H84_2 H 0.3282 0.9028 0.6753
C54_2 C 0.7680(7) 0.3640(5) 0.9475(4)
C55_2 C 0.8036(8) 0.3712(6) 0.9140(4)
C56_2 C 0.8327(8) 0.4165(6) 0.8986(4)
H29_2 H 0.8297 0.4441 0.9083
C57_2 C 0.8666(7) 0.4266(5) 0.8700(4)
H30_2 H 0.8884 0.4606 0.8619
C58_2 C 0.8691(9) 0.3867(7) 0.8526(4)
C59_2 C 0.8417(6) 0.3397(5) 0.8678(3)
H31_2 H 0.8455 0.3119 0.8597
C60_2 C 0.8069(6) 0.3346(4) 0.8964(3)
H32_2 H 0.7833 0.3009 0.9039
C61_2 C 0.9122(7) 0.4025(5) 0.8207(4)
C62_2 C 0.9394(5) 0.4476(4) 0.7990(3)
H33_2 H 0.9327 0.4744 0.8043
C63_2 C 0.9736(5) 0.4562(3) 0.7718(2)
C64_2 C 0.9805(6) 0.4177(4) 0.7648(2)
C65_2 C 0.9595(6) 0.3718(4) 0.7832(3)
H34_2 H 0.9698 0.3478 0.7771
C66_2 C 0.9208(6) 0.3603(4) 0.8123(3)
H35_2 H 0.9028 0.3282 0.8247
C67_4 C 1.0000 0.5000 0.7500
C94_2 C 0.7680(7) 0.4040(5) 0.5525(4)
C95_2 C 0.8036(8) 0.4324(6) 0.5860(4)
C96_2 C 0.8327(8) 0.4162(5) 0.6014(4)
H50_2 H 0.8297 0.3856 0.5917
C97_2 C 0.8666(7) 0.4400(5) 0.6300(4)
H51_2 H 0.8884 0.4278 0.6381
C98_2 C 0.8691(9) 0.4824(6) 0.6474(4)
C99_2 C 0.8417(6) 0.5020(4) 0.6322(3)
H52_2 H 0.8455 0.5336 0.6403
C100_2 C 0.8069(6) 0.4723(5) 0.6036(3)
H53_2 H 0.7833 0.4824 0.5961
C101_2 C 0.9122(7) 0.5097(5) 0.6793(4)
C102_2 C 0.9394(5) 0.4918(3) 0.7010(3)
H54_2 H 0.9327 0.4583 0.6957
C103_2 C 0.9736(5) 0.5174(4) 0.7282(2)
C104_2 C 0.9805(6) 0.5628(4) 0.7352(2)
C105_2 C 0.9595(6) 0.5877(4) 0.7168(3)
H55_2 H 0.9698 0.6220 0.7229
C106_2 C 0.9208(6) 0.5605(5) 0.6877(3)
H56_2 H 0.9028 0.5746 0.6753
loop_
_geom_bond_atom_site_label_1
_geom_bond_atom_site_label_2
_geom_bond_site_symmetry_1
_geom_bond_site_symmetry_2
In2 O12 1_555 1_555
O11 C54 1_555 1_555
O12 C54 1_555 1_555
O13 In2 1_555 1_555
O14 In2 1_555 1_555
C54 C55 1_555 1_555
C55 C56 1_555 1_555
C56 H29 1_555 1_555
C57 C56 1_555 1_555
H30 C57 1_555 1_555
C58 C57 1_555 1_555
C59 C58 1_555 1_555
H31 C59 1_555 1_555
C60 C55 1_555 1_555
H32 C60 1_555 1_555
C61 C58 1_555 1_555
C62 C61 1_555 1_555
H33 C62 1_555 1_555
C63 C62 1_555 1_555
C64 C63 1_555 1_555
C65 C64 1_555 1_555
H34 C65 1_555 1_555
C66 C61 1_555 1_555
H35 C66 1_555 1_555
C67 C63 1_555 1_555
O19 C94 1_555 1_555
O20 C94 1_555 1_555
C94 C95 1_555 1_555
C95 C96 1_555 1_555
C96 H50 1_555 1_555
C97 C96 1_555 1_555
H51 C97 1_555 1_555
C98 C97 1_555 1_555
C99 C98 1_555 1_555
H52 C99 1_555 1_555
C100 C95 1_555 1_555
H53 C100 1_555 1_555
C101 C98 1_555 1_555
C102 C101 1_555 1_555
H54 C102 1_555 1_555
C103 C67 1_555 1_555
C105 C104 1_555 1_555
H55 C105 1_555 1_555
C106 C101 1_555 1_555
H56 C106 1_555 1_555
In8 O11 1_555 1_555
In10 O13 1_555 1_555
In12 O20 1_555 1_555
In14 O19 1_555 1_555
O35 In2 1_555 1_555
O13 In8 1_555 1_555
C59 C60 1_555 1_555
C65 C66 1_555 1_555
C99 C100 1_555 1_555
C102 C103 1_555 1_555
C103 C104 1_555 1_555
C105 C106 1_555 1_555
O13_2 In2_2 1_555 1_555
O14_2 In2_2 1_555 1_555
In10_2 O13_2 1_555 1_555
O38 In2_2 1_555 1_555
O46 In2_2 1_555 1_555
O13_2 In8_2 1_555 1_555
In1 O2 1_555 1_555
O1 C1 1_555 1_555
O2 C1 1_555 1_555
O3 In1 1_555 1_555
O4 In1 1_555 1_555
C1 C2 1_555 1_555
C2 C3 1_555 1_555
C3 H1 1_555 1_555
C4 C3 1_555 1_555
H2 C4 1_555 1_555
C5 C4 1_555 1_555
C6 C5 1_555 1_555
H3 C6 1_555 1_555
C7 C2 1_555 1_555
H4 C7 1_555 1_555
C8 C5 1_555 1_555
C9 C8 1_555 1_555
H5 C9 1_555 1_555
C10 C9 1_555 1_555
C11 C10 1_555 1_555
C12 C11 1_555 1_555
H6 C12 1_555 1_555
C13 C8 1_555 1_555
H7 C13 1_555 1_555
C14 C10 1_555 1_555
O5 C15 1_555 1_555
O6 C15 1_555 1_555
C15 C16 1_555 1_555
C16 C17 1_555 1_555
C17 H8 1_555 1_555
C18 C17 1_555 1_555
H9 C18 1_555 1_555
C19 C18 1_555 1_555
C20 C19 1_555 1_555
H10 C20 1_555 1_555
C21 C16 1_555 1_555
H11 C21 1_555 1_555
C22 C19 1_555 1_555
C23 C22 1_555 1_555
H12 C23 1_555 1_555
C24 C14 1_555 1_555
C25 C24 1_555 1_555
C26 C25 1_555 1_555
H13 C26 1_555 1_555
C27 C22 1_555 1_555
H14 C27 1_555 1_555
O7 C28 1_555 1_555
O8 C28 1_555 1_555
C28 C29 1_555 1_555
C29 C30 1_555 1_555
C30 H15 1_555 1_555
C31 C30 1_555 1_555
H16 C31 1_555 1_555
C32 C31 1_555 1_555
C33 C32 1_555 1_555
H17 C33 1_555 1_555
C34 C29 1_555 1_555
H18 C34 1_555 1_555
C35 C32 1_555 1_555
C36 C35 1_555 1_555
H19 C36 1_555 1_555
C37 C14 1_555 1_555
C38 C11 1_555 1_555
C39 C38 1_555 1_555
H20 C39 1_555 1_555
C40 C35 1_555 1_555
H21 C40 1_555 1_555
O9 C41 1_555 1_555
O10 C41 1_555 1_555
C41 C42 1_555 1_555
C42 C43 1_555 1_555
C43 H22 1_555 1_555
C44 C43 1_555 1_555
H23 C44 1_555 1_555
C45 C44 1_555 1_555
C46 C45 1_555 1_555
H24 C46 1_555 1_555
C47 C42 1_555 1_555
H25 C47 1_555 1_555
C48 C45 1_555 1_555
C49 C48 1_555 1_555
H26 C49 1_555 1_555
C50 C14 1_555 1_555
C51 C25 1_555 1_555
C52 C51 1_555 1_555
H27 C52 1_555 1_555
C53 C48 1_555 1_555
H28 C53 1_555 1_555
O15 In1 1_555 1_555
O16 C68 1_555 1_555
C68 O15 1_555 1_555
C69 C68 1_555 1_555
C70 C69 1_555 1_555
H36 C70 1_555 1_555
C71 C70 1_555 1_555
H37 C71 1_555 1_555
C72 C71 1_555 1_555
C73 C72 1_555 1_555
H38 C73 1_555 1_555
C74 C69 1_555 1_555
H39 C74 1_555 1_555
C75 C72 1_555 1_555
C76 C75 1_555 1_555
H40 C76 1_555 1_555
C77 C67_2 1_555 1_555
C78 C77 1_555 1_555
C79 C78 1_555 1_555
H41 C79 1_555 1_555
C80 C75 1_555 1_555
H42 C80 1_555 1_555
O17 C81 1_555 1_555
O18 C81 1_555 1_555
C81 C82 1_555 1_555
C82 C83 1_555 1_555
C83 H43 1_555 1_555
C84 C83 1_555 1_555
H44 C84 1_555 1_555
C85 C84 1_555 1_555
C86 C85 1_555 1_555
H45 C86 1_555 1_555
C87 C82 1_555 1_555
H46 C87 1_555 1_555
C88 C85 1_555 1_555
C89 C88 1_555 1_555
H47 C89 1_555 1_555
C90 C67_2 1_555 1_555
C92 C91 1_555 1_555
H48 C92 1_555 1_555
C93 C88 1_555 1_555
H49 C93 1_555 1_555
In3 O1 1_555 1_555
O21 C107 1_555 1_555
O22 In3 1_555 1_555
O23 In3 1_555 1_555
C107 O22 1_555 1_555
C108 C107 1_555 1_555
C109 C108 1_555 1_555
H57 C109 1_555 1_555
C110 C109 1_555 1_555
H58 C110 1_555 1_555
C111 C110 1_555 1_555
C112 C111 1_555 1_555
H59 C112 1_555 1_555
C113 C108 1_555 1_555
H60 C113 1_555 1_555
C114 C111 1_555 1_555
C115 C114 1_555 1_555
H61 C115 1_555 1_555
C116 C115 1_555 1_555
C117 C116 1_555 1_555
C118 C117 1_555 1_555
H62 C118 1_555 1_555
C119 C114 1_555 1_555
H63 C119 1_555 1_555
C120 C116 1_555 1_555
O28 C147 1_555 1_555
O29 C147 1_555 1_555
C147 C148 1_555 1_555
C148 C149 1_555 1_555
C149 H78 1_555 1_555
C150 C149 1_555 1_555
H79 C150 1_555 1_555
C151 C150 1_555 1_555
C152 C151 1_555 1_555
H80 C152 1_555 1_555
C153 C148 1_555 1_555
H81 C153 1_555 1_555
C154 C151 1_555 1_555
C155 C154 1_555 1_555
H82 C155 1_555 1_555
C156 C120 1_555 1_555
C158 C157 1_555 1_555
H83 C158 1_555 1_555
C159 C154 1_555 1_555
H84 C159 1_555 1_555
In8 O6 1_555 1_555
O30 In8 1_555 1_555
In6 O3 1_555 1_555
O32 In6 1_555 1_555
In10 O5 1_555 1_555
In12 O7 1_555 1_555
In16 O8 1_555 1_555
In17 O10 1_555 1_555
In18 O9 1_555 1_555
In19 O17 1_555 1_555
O3 In3 1_555 1_555
C6 C7 1_555 1_555
C12 C13 1_555 1_555
C20 C21 1_555 1_555
C23 C24 1_555 1_555
C26 C27 1_555 1_555
C33 C34 1_555 1_555
C36 C37 1_555 1_555
C37 C38 1_555 1_555
C39 C40 1_555 1_555
C46 C47 1_555 1_555
C49 C50 1_555 1_555
C50 C51 1_555 1_555
C52 C53 1_555 1_555
O16 In6 1_555 1_555
C73 C74 1_555 1_555
C76 C77 1_555 1_555
C79 C80 1_555 1_555
O18 In18 1_555 1_555
C86 C87 1_555 1_555
C89 C90 1_555 1_555
C90 C91 1_555 1_555
C92 C93 1_555 1_555
O21 In6 1_555 1_555
C112 C113 1_555 1_555
C118 C119 1_555 1_555
O28 In17 1_555 1_555
O29 In19 1_555 1_555
C152 C153 1_555 1_555
C155 C156 1_555 1_555
C156 C157 1_555 1_555
C158 C159 1_555 1_555
O3_2 In1_2 1_555 1_555
O4_2 In1_2 1_555 1_555
O23_2 In3_2 1_555 1_555
O30_2 In8_2 1_555 1_555
In6_2 O3_2 1_555 1_555
O32_2 In6_2 1_555 1_555
O37 In1_2 1_555 1_555
O39 In3_2 1_555 1_555
O40 In8_2 1_555 1_555
O41 In6_2 1_555 1_555
O42 In8_2 1_555 1_555
O43 In6_2 1_555 1_555
O45 In1_2 1_555 1_555
O47 In3_2 1_555 1_555
O3_2 In3_2 1_555 1_555
O35 C121 1_555 1_555
O25 C121 1_555 1_555
C121 C122 1_555 1_555
C122 C123 1_555 1_555
C123 H64 1_555 1_555
C124 C123 1_555 1_555
H65 C124 1_555 1_555
C125 C124 1_555 1_555
C126 C125 1_555 1_555
H66 C126 1_555 1_555
C127 C122 1_555 1_555
H67 C127 1_555 1_555
C128 C125 1_555 1_555
C129 C128 1_555 1_555
H68 C129 1_555 1_555
C130 C120_2 1_555 1_555
C131 C130 1_555 1_555
C132 C131 1_555 1_555
H69 C132 1_555 1_555
C133 C128 1_555 1_555
H70 C133 1_555 1_555
O26 C134 1_555 1_555
O27 C134 1_555 1_555
C134 C135 1_555 1_555
C135 C136 1_555 1_555
C136 H71 1_555 1_555
C137 C136 1_555 1_555
H72 C137 1_555 1_555
C138 C137 1_555 1_555
C139 C138 1_555 1_555
H73 C139 1_555 1_555
C140 C135 1_555 1_555
H74 C140 1_555 1_555
C141 C138 1_555 1_555
C142 C141 1_555 1_555
H75 C142 1_555 1_555
C143 C120_2 1_555 1_555
C145 C144 1_555 1_555
H76 C145 1_555 1_555
C146 C141 1_555 1_555
H77 C146 1_555 1_555
In10 O25 1_555 1_555
O31 In10 1_555 1_555
In14 O27 1_555 1_555
In16 O26 1_555 1_555
C126 C127 1_555 1_555
C129 C130 1_555 1_555
C132 C133 1_555 1_555
C139 C140 1_555 1_555
C142 C143 1_555 1_555
C143 C144 1_555 1_555
C145 C146 1_555 1_555
O31_2 In10_2 1_555 1_555
O36 In10_2 1_555 1_555
O44 In10_2 1_555 1_555
O31_3 In19 1_555 1_555
O36_2 In19 1_555 1_555
O44_2 In19 1_555 1_555
O48 In19 1_555 1_555
In17 O48 1_555 1_555
O3_3 In12 1_555 1_555
O4_3 In12 1_555 1_555
O14_3 In17 1_555 1_555
O23_3 In14 1_555 1_555
In16 O3_3 1_555 1_555
O32_3 In16 1_555 1_555
O37_2 In12 1_555 1_555
O38_2 In17 1_555 1_555
O39_2 In14 1_555 1_555
O41_2 In16 1_555 1_555
O43_2 In16 1_555 1_555
O45_2 In12 1_555 1_555
O46_2 In17 1_555 1_555
O47_2 In14 1_555 1_555
O3_3 In14 1_555 1_555
O48 In18 1_555 1_555
O30_3 In18 1_555 1_555
O40_2 In18 1_555 1_555
O42_2 In18 1_555 1_555
O41 C121_2 1_555 1_555
O47 C121_2 1_555 1_555
C121_2 C122_2 1_555 1_555
C122_2 C123_2 1_555 1_555
C123_2 H64_2 1_555 1_555
C124_2 C123_2 1_555 1_555
H65_2 C124_2 1_555 1_555
C125_2 C124_2 1_555 1_555
C126_2 C125_2 1_555 1_555
H66_2 C126_2 1_555 1_555
C127_2 C122_2 1_555 1_555
H67_2 C127_2 1_555 1_555
C128_2 C125_2 1_555 1_555
C129_2 C128_2 1_555 1_555
H68_2 C129_2 1_555 1_555
C130_2 C120_3 1_555 1_555
C131_2 C130_2 1_555 1_555
C132_2 C131_2 1_555 1_555
H69_2 C132_2 1_555 1_555
C133_2 C128_2 1_555 1_555
H70_2 C133_2 1_555 1_555
O38_2 C134_2 1_555 1_555
O44_2 C134_2 1_555 1_555
C134_2 C135_2 1_555 1_555
C135_2 C136_2 1_555 1_555
C136_2 H71_2 1_555 1_555
C137_2 C136_2 1_555 1_555
H72_2 C137_2 1_555 1_555
C138_2 C137_2 1_555 1_555
C139_2 C138_2 1_555 1_555
H73_2 C139_2 1_555 1_555
C140_2 C135_2 1_555 1_555
H74_2 C140_2 1_555 1_555
C141_2 C138_2 1_555 1_555
C142_2 C141_2 1_555 1_555
H75_2 C142_2 1_555 1_555
C143_2 C120_3 1_555 1_555
C145_2 C144_2 1_555 1_555
H76_2 C145_2 1_555 1_555
C146_2 C141_2 1_555 1_555
H77_2 C146_2 1_555 1_555
C126_2 C127_2 1_555 1_555
C129_2 C130_2 1_555 1_555
C132_2 C133_2 1_555 1_555
C139_2 C140_2 1_555 1_555
C142_2 C143_2 1_555 1_555
C143_2 C144_2 1_555 1_555
C145_2 C146_2 1_555 1_555
O36 C1_2 1_555 1_555
O42 C1_2 1_555 1_555
C1_2 C2_2 1_555 1_555
C2_2 C3_2 1_555 1_555
C3_2 H1_2 1_555 1_555
C4_2 C3_2 1_555 1_555
H2_2 C4_2 1_555 1_555
C5_2 C4_2 1_555 1_555
C6_2 C5_2 1_555 1_555
H3_2 C6_2 1_555 1_555
C7_2 C2_2 1_555 1_555
H4_2 C7_2 1_555 1_555
C8_2 C5_2 1_555 1_555
C9_2 C8_2 1_555 1_555
H5_2 C9_2 1_555 1_555
C10_2 C9_2 1_555 1_555
C11_2 C10_2 1_555 1_555
C12_2 C11_2 1_555 1_555
H6_2 C12_2 1_555 1_555
C13_2 C8_2 1_555 1_555
H7_2 C13_2 1_555 1_555
C14_2 C10_2 1_555 1_555
O39 C15_2 1_555 1_555
O45 C15_2 1_555 1_555
C15_2 C16_2 1_555 1_555
C16_2 C17_2 1_555 1_555
C17_2 H8_2 1_555 1_555
C18_2 C17_2 1_555 1_555
H9_2 C18_2 1_555 1_555
C19_2 C18_2 1_555 1_555
C20_2 C19_2 1_555 1_555
H10_2 C20_2 1_555 1_555
C21_2 C16_2 1_555 1_555
H11_2 C21_2 1_555 1_555
C22_2 C19_2 1_555 1_555
C23_2 C22_2 1_555 1_555
H12_2 C23_2 1_555 1_555
C24_2 C14_2 1_555 1_555
C25_2 C24_2 1_555 1_555
C26_2 C25_2 1_555 1_555
H13_2 C26_2 1_555 1_555
C27_2 C22_2 1_555 1_555
H14_2 C27_2 1_555 1_555
O40_2 C28_2 1_555 1_555
O46_2 C28_2 1_555 1_555
C28_2 C29_2 1_555 1_555
C29_2 C30_2 1_555 1_555
C30_2 H15_2 1_555 1_555
C31_2 C30_2 1_555 1_555
H16_2 C31_2 1_555 1_555
C32_2 C31_2 1_555 1_555
C33_2 C32_2 1_555 1_555
H17_2 C33_2 1_555 1_555
C34_2 C29_2 1_555 1_555
H18_2 C34_2 1_555 1_555
C35_2 C32_2 1_555 1_555
C36_2 C35_2 1_555 1_555
H19_2 C36_2 1_555 1_555
C37_2 C14_2 1_555 1_555
C38_2 C11_2 1_555 1_555
C39_2 C38_2 1_555 1_555
H20_2 C39_2 1_555 1_555
C40_2 C35_2 1_555 1_555
H21_2 C40_2 1_555 1_555
O37_2 C41_2 1_555 1_555
O43_2 C41_2 1_555 1_555
C41_2 C42_2 1_555 1_555
C42_2 C43_2 1_555 1_555
C43_2 H22_2 1_555 1_555
C44_2 C43_2 1_555 1_555
H23_2 C44_2 1_555 1_555
C45_2 C44_2 1_555 1_555
C46_2 C45_2 1_555 1_555
H24_2 C46_2 1_555 1_555
C47_2 C42_2 1_555 1_555
H25_2 C47_2 1_555 1_555
C48_2 C45_2 1_555 1_555
C49_2 C48_2 1_555 1_555
H26_2 C49_2 1_555 1_555
C50_2 C14_2 1_555 1_555
C51_2 C25_2 1_555 1_555
C52_2 C51_2 1_555 1_555
H27_2 C52_2 1_555 1_555
C53_2 C48_2 1_555 1_555
H28_2 C53_2 1_555 1_555
O46 C68_2 1_555 1_555
C68_2 O40 1_555 1_555
C69_2 C68_2 1_555 1_555
C70_2 C69_2 1_555 1_555
H36_2 C70_2 1_555 1_555
C71_2 C70_2 1_555 1_555
H37_2 C71_2 1_555 1_555
C72_2 C71_2 1_555 1_555
C73_2 C72_2 1_555 1_555
H38_2 C73_2 1_555 1_555
C74_2 C69_2 1_555 1_555
H39_2 C74_2 1_555 1_555
C75_2 C72_2 1_555 1_555
C76_2 C75_2 1_555 1_555
H40_2 C76_2 1_555 1_555
C77_2 C67_3 1_555 1_555
C78_2 C77_2 1_555 1_555
C79_2 C78_2 1_555 1_555
H41_2 C79_2 1_555 1_555
C80_2 C75_2 1_555 1_555
H42_2 C80_2 1_555 1_555
O39_2 C81_2 1_555 1_555
O45_2 C81_2 1_555 1_555
C81_2 C82_2 1_555 1_555
C82_2 C83_2 1_555 1_555
C83_2 H43_2 1_555 1_555
C84_2 C83_2 1_555 1_555
H44_2 C84_2 1_555 1_555
C85_2 C84_2 1_555 1_555
C86_2 C85_2 1_555 1_555
H45_2 C86_2 1_555 1_555
C87_2 C82_2 1_555 1_555
H46_2 C87_2 1_555 1_555
C88_2 C85_2 1_555 1_555
C89_2 C88_2 1_555 1_555
H47_2 C89_2 1_555 1_555
C90_2 C67_3 1_555 1_555
C92_2 C91_2 1_555 1_555
H48_2 C92_2 1_555 1_555
C93_2 C88_2 1_555 1_555
H49_2 C93_2 1_555 1_555
O38 C107_2 1_555 1_555
C107_2 O44 1_555 1_555
C108_2 C107_2 1_555 1_555
C109_2 C108_2 1_555 1_555
H57_2 C109_2 1_555 1_555
C110_2 C109_2 1_555 1_555
H58_2 C110_2 1_555 1_555
C111_2 C110_2 1_555 1_555
C112_2 C111_2 1_555 1_555
H59_2 C112_2 1_555 1_555
C113_2 C108_2 1_555 1_555
H60_2 C113_2 1_555 1_555
C114_2 C111_2 1_555 1_555
C115_2 C114_2 1_555 1_555
H61_2 C115_2 1_555 1_555
C116_2 C115_2 1_555 1_555
C117_2 C116_2 1_555 1_555
C118_2 C117_2 1_555 1_555
H62_2 C118_2 1_555 1_555
C119_2 C114_2 1_555 1_555
H63_2 C119_2 1_555 1_555
C120_4 C116_2 1_555 1_555
O41_2 C147_2 1_555 1_555
O47_2 C147_2 1_555 1_555
C147_2 C148_2 1_555 1_555
C148_2 C149_2 1_555 1_555
C149_2 H78_2 1_555 1_555
C150_2 C149_2 1_555 1_555
H79_2 C150_2 1_555 1_555
C151_2 C150_2 1_555 1_555
C152_2 C151_2 1_555 1_555
H80_2 C152_2 1_555 1_555
C153_2 C148_2 1_555 1_555
H81_2 C153_2 1_555 1_555
C154_2 C151_2 1_555 1_555
C155_2 C154_2 1_555 1_555
H82_2 C155_2 1_555 1_555
C156_2 C120_4 1_555 1_555
C158_2 C157_2 1_555 1_555
H83_2 C158_2 1_555 1_555
C159_2 C154_2 1_555 1_555
H84_2 C159_2 1_555 1_555
C6_2 C7_2 1_555 1_555
C12_2 C13_2 1_555 1_555
C20_2 C21_2 1_555 1_555
C23_2 C24_2 1_555 1_555
C26_2 C27_2 1_555 1_555
C33_2 C34_2 1_555 1_555
C36_2 C37_2 1_555 1_555
C37_2 C38_2 1_555 1_555
C39_2 C40_2 1_555 1_555
C46_2 C47_2 1_555 1_555
C49_2 C50_2 1_555 1_555
C50_2 C51_2 1_555 1_555
C52_2 C53_2 1_555 1_555
C73_2 C74_2 1_555 1_555
C76_2 C77_2 1_555 1_555
C79_2 C80_2 1_555 1_555
C86_2 C87_2 1_555 1_555
C89_2 C90_2 1_555 1_555
C90_2 C91_2 1_555 1_555
C92_2 C93_2 1_555 1_555
C112_2 C113_2 1_555 1_555
C118_2 C119_2 1_555 1_555
C152_2 C153_2 1_555 1_555
C155_2 C156_2 1_555 1_555
C156_2 C157_2 1_555 1_555
C158_2 C159_2 1_555 1_555
O37 C54_2 1_555 1_555
O43 C54_2 1_555 1_555
C54_2 C55_2 1_555 1_555
C55_2 C56_2 1_555 1_555
C56_2 H29_2 1_555 1_555
C57_2 C56_2 1_555 1_555
H30_2 C57_2 1_555 1_555
C58_2 C57_2 1_555 1_555
C59_2 C58_2 1_555 1_555
H31_2 C59_2 1_555 1_555
C60_2 C55_2 1_555 1_555
H32_2 C60_2 1_555 1_555
C61_2 C58_2 1_555 1_555
C62_2 C61_2 1_555 1_555
H33_2 C62_2 1_555 1_555
C63_2 C62_2 1_555 1_555
C64_2 C63_2 1_555 1_555
C65_2 C64_2 1_555 1_555
H34_2 C65_2 1_555 1_555
C66_2 C61_2 1_555 1_555
H35_2 C66_2 1_555 1_555
C67_4 C63_2 1_555 1_555
O36_2 C94_2 1_555 1_555
O42_2 C94_2 1_555 1_555
C94_2 C95_2 1_555 1_555
C95_2 C96_2 1_555 1_555
C96_2 H50_2 1_555 1_555
C97_2 C96_2 1_555 1_555
H51_2 C97_2 1_555 1_555
C98_2 C97_2 1_555 1_555
C99_2 C98_2 1_555 1_555
H52_2 C99_2 1_555 1_555
C100_2 C95_2 1_555 1_555
H53_2 C100_2 1_555 1_555
C101_2 C98_2 1_555 1_555
C102_2 C101_2 1_555 1_555
H54_2 C102_2 1_555 1_555
C103_2 C67_4 1_555 1_555
C105_2 C104_2 1_555 1_555
H55_2 C105_2 1_555 1_555
C106_2 C101_2 1_555 1_555
H56_2 C106_2 1_555 1_555
C59_2 C60_2 1_555 1_555
C65_2 C66_2 1_555 1_555
C99_2 C100_2 1_555 1_555
C102_2 C103_2 1_555 1_555
C103_2 C104_2 1_555 1_555
C105_2 C106_2 1_555 1_555

#END
