
###############################################################################
#
# This file contains modified crystal structure data generated from the
# MOF subset of the Cambridge Structural Database (CSD) v543 
# hosted by the Cambridge Crystallographic Data Centre (CCDC).
#
# This work is licensed under the Creative Commons
# Attribution-NonCommercial-ShareAlike 4.0 International License.
# To view a copy of this license, visit
# http://creativecommons.org/licenses/by-nc-sa/4.0/
# or send a letter to
# Creative Commons, PO Box 1866, Mountain View, CA 94042, USA.
#
# CIF created using the CSD Python API on 29 September 2022
# The structure has been converted into the P1 space group
# The structure has a 3D framework
# The original CSD entry QOTKOC02 is in the hexagonal crystal system
# The framework has been calculated to contain at least 10.0% void space
# The void calculation uses a probe of radius 1.32A, grid spacing 0.4
# The framework is charged, counterions have been retained in the structure
# H atom positions have been added when not included in the experimental data
# Generated hydrogen atom positions removed from atoms on special positions
#
###############################################################################

data_QOTKOC02
_chemical_formula_moiety         '(C322 H264 In18 O72 2+)n'
_symmetry_cell_setting           triclinic
_symmetry_space_group_name_H-M   'P 1'
_symmetry_Int_Tables_number      1
_space_group_name_Hall           'P 1'
loop_
_symmetry_equiv_pos_site_id
_symmetry_equiv_pos_as_xyz
1 x,y,z
_cell_length_a                   32.2456(13)
_cell_length_b                   32.246
_cell_length_c                   33.3066(13)
_cell_angle_alpha                90
_cell_angle_beta                 90
_cell_angle_gamma                120
_cell_volume                     29992.1
loop_
_atom_site_label
_atom_site_type_symbol
_atom_site_fract_x
_atom_site_fract_y
_atom_site_fract_z
C14 C 0.5000 -0.0000 0.2500
O5 O 0.63617(9) 0.23953(8) 0.04554(7)
O6 O 0.57702(9) 0.25966(9) 0.04595(7)
C15 C 0.59664(17) 0.23786(17) 0.05656(14)
C16 C 0.5697(2) 0.19871(18) 0.08993(14)
C17 C 0.58574(18) 0.1690(2) 0.10279(16)
H8 H 0.6149 0.1728 0.0924
C18 C 0.5612(2) 0.1349(2) 0.12973(18)
H9 H 0.5731 0.1143 0.1373
C19 C 0.5197(2) 0.12796(17) 0.14709(13)
C20 C 0.50618(17) 0.1600(2) 0.13504(16)
H10 H 0.4788 0.1584 0.1472
C21 C 0.5305(2) 0.1949(2) 0.10581(18)
H11 H 0.5191 0.2156 0.0975
C22 C 0.49299(17) 0.08941(15) 0.17848(12)
C23 C 0.51005(13) 0.06412(13) 0.19726(11)
H12 H 0.5414 0.0706 0.1906
C24 C 0.48511(14) 0.02989(13) 0.22518(10)
C25 C 0.43886(15) 0.01790(13) 0.23456(11)
C26 C 0.41727(16) 0.04006(16) 0.21545(14)
H13 H 0.3849 0.0312 0.2208
C27 C 0.44606(18) 0.07752(15) 0.18681(12)
H14 H 0.4326 0.0942 0.1736
O7 O 0.60336(12) 0.23953(8) 0.45446(7)
O8 O 0.68264(13) 0.25966(9) 0.45405(7)
C28 C 0.64122(24) 0.23786(17) 0.44344(14)
C29 C 0.62901(27) 0.19871(18) 0.41007(14)
C30 C 0.58326(27) 0.1690(2) 0.39721(16)
H15 H 0.5579 0.1728 0.4076
C31 C 0.5737(3) 0.1349(2) 0.37027(18)
H16 H 0.5412 0.1143 0.3627
C32 C 0.60826(26) 0.12796(17) 0.35291(13)
C33 C 0.65382(26) 0.1600(2) 0.36496(16)
H17 H 0.6796 0.1584 0.3528
C34 C 0.6644(3) 0.1949(2) 0.39419(18)
H18 H 0.6965 0.2156 0.4025
C35 C 0.59642(23) 0.08941(15) 0.32152(12)
C36 C 0.55407(18) 0.06412(13) 0.30274(11)
H19 H 0.5292 0.0706 0.3094
C37 C 0.54478(19) 0.02989(13) 0.27482(10)
C38 C 0.57904(20) 0.01790(13) 0.26544(11)
C39 C 0.62279(23) 0.04006(16) 0.28455(14)
H20 H 0.6463 0.0312 0.2792
C40 C 0.63146(23) 0.07752(15) 0.31319(12)
H21 H 0.6616 0.0942 0.3264
In2 In 0.59599(3) 0.31316(2) 0.0000
O11 O 0.60336(12) 0.36383(9) 0.04554(7)
O12 O 0.68264(13) 0.42298(9) 0.04595(7)
O13 O 0.6666 0.3333 0.0000
O14 O 0.52112(16) 0.29153(11) 0.0000
C54 C 0.64122(24) 0.40336(17) 0.05656(14)
C55 C 0.62901(27) 0.4303(2) 0.08993(14)
C56 C 0.58326(27) 0.41426(18) 0.10279(16)
H29 H 0.5579 0.3851 0.0924
C57 C 0.5737(3) 0.4388(2) 0.12973(18)
H30 H 0.5412 0.4269 0.1373
C58 C 0.60826(26) 0.4803(2) 0.14709(13)
C59 C 0.65382(26) 0.49382(17) 0.13504(16)
H31 H 0.6796 0.5212 0.1472
C60 C 0.6644(3) 0.4695(2) 0.10581(18)
H32 H 0.6965 0.4809 0.0975
C61 C 0.59642(23) 0.50701(17) 0.17848(12)
C62 C 0.55407(18) 0.48995(13) 0.19726(11)
H33 H 0.5292 0.4586 0.1906
C63 C 0.54478(19) 0.51489(14) 0.22518(10)
C64 C 0.57904(20) 0.56114(15) 0.23456(11)
C65 C 0.62279(23) 0.58273(16) 0.21545(14)
H34 H 0.6463 0.6151 0.2208
C66 C 0.63146(23) 0.55394(18) 0.18681(12)
H35 H 0.6616 0.5674 0.1736
C67 C 0.5000 0.5000 0.2500
O15 O 0.39664(12) 0.63617(9) 0.04554(7)
O16 O 0.31736(13) 0.57702(9) 0.04595(7)
C68 C 0.35878(24) 0.59664(17) 0.05656(14)
C69 C 0.37099(27) 0.5697(2) 0.08993(14)
C70 C 0.41674(27) 0.58574(18) 0.10279(16)
H36 H 0.4421 0.6149 0.0924
C71 C 0.4263(3) 0.5612(2) 0.12973(18)
H37 H 0.4588 0.5731 0.1373
C72 C 0.39174(26) 0.5197(2) 0.14709(13)
C73 C 0.34618(26) 0.50618(17) 0.13504(16)
H38 H 0.3204 0.4788 0.1472
C74 C 0.3356(3) 0.5305(2) 0.10581(18)
H39 H 0.3035 0.5191 0.0975
C75 C 0.40358(23) 0.49299(17) 0.17848(12)
C76 C 0.44593(18) 0.51005(13) 0.19726(11)
H40 H 0.4708 0.5414 0.1906
C77 C 0.45522(19) 0.48511(14) 0.22518(10)
C78 C 0.42096(20) 0.43886(15) 0.23456(11)
C79 C 0.37721(23) 0.41727(16) 0.21545(14)
H41 H 0.3537 0.3849 0.2208
C80 C 0.36854(23) 0.44606(18) 0.18681(12)
H42 H 0.3384 0.4326 0.1736
O17 O 0.36383(9) 0.60336(12) 0.45446(7)
O18 O 0.42298(9) 0.68264(13) 0.45405(7)
C81 C 0.40336(17) 0.64122(24) 0.44344(14)
C82 C 0.4303(2) 0.62901(27) 0.41007(14)
C83 C 0.41426(18) 0.58326(27) 0.39721(16)
H43 H 0.3851 0.5579 0.4076
C84 C 0.4388(2) 0.5737(3) 0.37027(18)
H44 H 0.4269 0.5412 0.3627
C85 C 0.4803(2) 0.60826(26) 0.35291(13)
C86 C 0.49382(17) 0.65382(26) 0.36496(16)
H45 H 0.5212 0.6796 0.3528
C87 C 0.4695(2) 0.6644(3) 0.39419(18)
H46 H 0.4809 0.6965 0.4025
C88 C 0.50701(17) 0.59642(23) 0.32152(12)
C89 C 0.48995(13) 0.55407(18) 0.30274(11)
H47 H 0.4586 0.5292 0.3094
C90 C 0.51489(14) 0.54478(19) 0.27482(10)
C91 C 0.56114(15) 0.57904(20) 0.26544(11)
C92 C 0.58273(16) 0.62279(23) 0.28455(14)
H48 H 0.6151 0.6463 0.2792
C93 C 0.55394(18) 0.63146(23) 0.31319(12)
H49 H 0.5674 0.6616 0.3264
O19 O 0.63617(9) 0.39664(12) 0.45446(7)
O20 O 0.57702(9) 0.31736(13) 0.45405(7)
C94 C 0.59664(17) 0.35878(24) 0.44344(14)
C95 C 0.5697(2) 0.37099(27) 0.41007(14)
C96 C 0.58574(18) 0.41674(27) 0.39721(16)
H50 H 0.6149 0.4421 0.4076
C97 C 0.5612(2) 0.4263(3) 0.37027(18)
H51 H 0.5731 0.4588 0.3627
C98 C 0.5197(2) 0.39174(26) 0.35291(13)
C99 C 0.50618(17) 0.34618(26) 0.36496(16)
H52 H 0.4788 0.3204 0.3528
C100 C 0.5305(2) 0.3356(3) 0.39419(18)
H53 H 0.5191 0.3035 0.4025
C101 C 0.49299(17) 0.40358(23) 0.32152(12)
C102 C 0.51005(13) 0.44593(18) 0.30274(11)
H54 H 0.5414 0.4708 0.3094
C103 C 0.48511(14) 0.45522(19) 0.27482(10)
C104 C 0.43886(15) 0.42096(20) 0.26544(11)
C105 C 0.41727(16) 0.37721(23) 0.28455(14)
H55 H 0.3849 0.3537 0.2792
C106 C 0.44606(18) 0.36854(23) 0.31319(12)
H56 H 0.4326 0.3384 0.3264
In4 In 0.68684(2) 0.28283(2) 0.0000
O30 O 0.70847(11) 0.22959(11) 0.0000
In7 In 0.28283(2) 0.59599(3) 0.0000
In9 In 0.40401(3) 0.68684(2) 0.0000
In10 In 0.71717(2) 0.40401(3) 0.0000
In11 In 0.59599(3) 0.28283(2) 0.5000
In13 In 0.68684(2) 0.40401(3) 0.5000
In15 In 0.71717(2) 0.31316(2) 0.5000
In18 In 0.40401(3) 0.71717(2) 0.5000
In20 In 0.31316(2) 0.59599(3) 0.5000
O42 O 0.74034(9) 0.31736(13) 0.04595(7)
In2_2 In 0.59599(3) 0.31316(2) 1.0000
O13_2 O 0.6666 0.3333 1.0000
O14_2 O 0.52112(16) 0.29153(11) 1.0000
In4_2 In 0.68684(2) 0.28283(2) 1.0000
O30_2 O 0.70847(11) 0.22959(11) 1.0000
In7_2 In 0.28283(2) 0.59599(3) 1.0000
In9_2 In 0.40401(3) 0.68684(2) 1.0000
In10_2 In 0.71717(2) 0.40401(3) 1.0000
O34 O 0.63617(9) 0.23953(8) 0.95446(7)
O38 O 0.60336(12) 0.36383(9) 0.95446(7)
O43 O 0.57702(9) 0.25966(9) 0.95405(7)
O45 O 0.74034(9) 0.31736(13) 0.95405(7)
In1 In 0.31316(2) 0.71717(2) 0.0000
O1 O 0.36383(9) 0.76047(8) 0.04554(7)
O2 O 0.42298(9) 0.74034(9) 0.04595(7)
O3 O 0.3333 0.6667 0.0000
O4 O 0.29153(11) 0.77041(11) 0.0000
C1 C 0.40336(17) 0.76214(17) 0.05656(14)
C2 C 0.4303(2) 0.80129(18) 0.08993(14)
C3 C 0.41426(18) 0.8310(2) 0.10279(16)
H1 H 0.3851 0.8272 0.0924
C4 C 0.4388(2) 0.8651(2) 0.12973(18)
H2 H 0.4269 0.8857 0.1373
C5 C 0.4803(2) 0.87204(17) 0.14709(13)
C6 C 0.49382(17) 0.8400(2) 0.13504(16)
H3 H 0.5212 0.8416 0.1472
C7 C 0.4695(2) 0.8051(2) 0.10581(18)
H4 H 0.4809 0.7844 0.0975
C8 C 0.50701(17) 0.91059(15) 0.17848(12)
C9 C 0.48995(13) 0.93588(13) 0.19726(11)
H5 H 0.4586 0.9294 0.1906
C10 C 0.51489(14) 0.97011(13) 0.22518(10)
C11 C 0.56114(15) 0.98210(13) 0.23456(11)
C12 C 0.58273(16) 0.95994(16) 0.21545(14)
H6 H 0.6151 0.9688 0.2208
C13 C 0.55394(18) 0.92248(15) 0.18681(12)
H7 H 0.5674 0.9058 0.1736
C14_2 C 0.5000 1.0000 0.2500
O9 O 0.39664(12) 0.76047(8) 0.45446(7)
O10 O 0.31736(13) 0.74034(9) 0.45405(7)
C41 C 0.35878(24) 0.76214(17) 0.44344(14)
C42 C 0.37099(27) 0.80129(18) 0.41007(14)
C43 C 0.41674(27) 0.8310(2) 0.39721(16)
H22 H 0.4421 0.8272 0.4076
C44 C 0.4263(3) 0.8651(2) 0.37027(18)
H23 H 0.4588 0.8857 0.3627
C45 C 0.39174(26) 0.87204(17) 0.35291(13)
C46 C 0.34618(26) 0.8400(2) 0.36496(16)
H24 H 0.3204 0.8416 0.3528
C47 C 0.3356(3) 0.8051(2) 0.39419(18)
H25 H 0.3035 0.7844 0.4025
C48 C 0.40358(23) 0.91059(15) 0.32152(12)
C49 C 0.44593(18) 0.93588(13) 0.30274(11)
H26 H 0.4708 0.9294 0.3094
C50 C 0.45522(19) 0.97011(13) 0.27482(10)
C51 C 0.42096(20) 0.98210(13) 0.26544(11)
C52 C 0.37721(23) 0.95994(16) 0.28455(14)
H27 H 0.3537 0.9688 0.2792
C53 C 0.36854(23) 0.92248(15) 0.31319(12)
H28 H 0.3384 0.9058 0.3264
O21 O 0.23953(8) 0.60336(12) 0.04554(7)
O22 O 0.25966(9) 0.68264(13) 0.04595(7)
O23 O 0.22959(11) 0.52112(16) 0.0000
C107 C 0.23786(17) 0.64122(24) 0.05656(14)
C108 C 0.19871(18) 0.62901(27) 0.08993(14)
C109 C 0.1690(2) 0.58326(27) 0.10279(16)
H57 H 0.1728 0.5579 0.0924
C110 C 0.1349(2) 0.5737(3) 0.12973(18)
H58 H 0.1143 0.5412 0.1373
C111 C 0.12796(17) 0.60826(26) 0.14709(13)
C112 C 0.1600(2) 0.65382(26) 0.13504(16)
H59 H 0.1584 0.6796 0.1472
C113 C 0.1949(2) 0.6644(3) 0.10581(18)
H60 H 0.2156 0.6965 0.0975
C114 C 0.08941(15) 0.59642(23) 0.17848(12)
C115 C 0.06412(13) 0.55407(18) 0.19726(11)
H61 H 0.0706 0.5292 0.1906
C116 C 0.02989(13) 0.54478(19) 0.22518(10)
C117 C 0.01790(13) 0.57904(20) 0.23456(11)
C118 C 0.04006(16) 0.62279(23) 0.21545(14)
H62 H 0.0312 0.6463 0.2208
C119 C 0.07752(15) 0.63146(23) 0.18681(12)
H63 H 0.0942 0.6616 0.1736
C120 C -0.0000 0.5000 0.2500
O28 O 0.23953(8) 0.63617(9) 0.45446(7)
O29 O 0.25966(9) 0.57702(9) 0.45405(7)
C147 C 0.23786(17) 0.59664(17) 0.44344(14)
C148 C 0.19871(18) 0.5697(2) 0.41007(14)
C149 C 0.1690(2) 0.58574(18) 0.39721(16)
H78 H 0.1728 0.6149 0.4076
C150 C 0.1349(2) 0.5612(2) 0.37027(18)
H79 H 0.1143 0.5731 0.3627
C151 C 0.12796(17) 0.5197(2) 0.35291(13)
C152 C 0.1600(2) 0.50618(17) 0.36496(16)
H80 H 0.1584 0.4788 0.3528
C153 C 0.1949(2) 0.5305(2) 0.39419(18)
H81 H 0.2156 0.5191 0.4025
C154 C 0.08941(15) 0.49299(17) 0.32152(12)
C155 C 0.06412(13) 0.51005(13) 0.30274(11)
H82 H 0.0706 0.5414 0.3094
C156 C 0.02989(13) 0.48511(14) 0.27482(10)
C157 C 0.01790(13) 0.43886(15) 0.26544(11)
C158 C 0.04006(16) 0.41727(16) 0.28455(14)
H83 H 0.0312 0.3849 0.2792
C159 C 0.07752(15) 0.44606(18) 0.31319(12)
H84 H 0.0942 0.4326 0.3264
O31 O 0.47888(16) 0.70847(11) 0.0000
In16 In 0.28283(2) 0.68684(2) 0.5000
In1_2 In 0.31316(2) 0.71717(2) 1.0000
O3_2 O 0.3333 0.6667 1.0000
O4_2 O 0.29153(11) 0.77041(11) 1.0000
O23_2 O 0.22959(11) 0.52112(16) 1.0000
O31_2 O 0.47888(16) 0.70847(11) 1.0000
O35 O 0.39664(12) 0.63617(9) 0.95446(7)
O37 O 0.36383(9) 0.76047(8) 0.95446(7)
O39 O 0.23953(8) 0.60336(12) 0.95446(7)
O44 O 0.31736(13) 0.57702(9) 0.95405(7)
O46 O 0.42298(9) 0.74034(9) 0.95405(7)
O48 O 0.25966(9) 0.68264(13) 0.95405(7)
C120_2 C 1.0000 0.5000 0.2500
O24 O 0.76047(8) 0.39664(12) 0.04554(7)
C121 C 0.76214(17) 0.35878(24) 0.05656(14)
C122 C 0.80129(18) 0.37099(27) 0.08993(14)
C123 C 0.8310(2) 0.41674(27) 0.10279(16)
H64 H 0.8272 0.4421 0.0924
C124 C 0.8651(2) 0.4263(3) 0.12973(18)
H65 H 0.8857 0.4588 0.1373
C125 C 0.87204(17) 0.39174(26) 0.14709(13)
C126 C 0.8400(2) 0.34618(26) 0.13504(16)
H66 H 0.8416 0.3204 0.1472
C127 C 0.8051(2) 0.3356(3) 0.10581(18)
H67 H 0.7844 0.3035 0.0975
C128 C 0.91059(15) 0.40358(23) 0.17848(12)
C129 C 0.93588(13) 0.44593(18) 0.19726(11)
H68 H 0.9294 0.4708 0.1906
C130 C 0.97011(13) 0.45522(19) 0.22518(10)
C131 C 0.98210(13) 0.42096(20) 0.23456(11)
C132 C 0.95994(16) 0.37721(23) 0.21545(14)
H69 H 0.9688 0.3537 0.2208
C133 C 0.92248(15) 0.36854(23) 0.18681(12)
H70 H 0.9058 0.3384 0.1736
O26 O 0.76047(8) 0.36383(9) 0.45446(7)
O27 O 0.74034(9) 0.42298(9) 0.45405(7)
C134 C 0.76214(17) 0.40336(17) 0.44344(14)
C135 C 0.80129(18) 0.4303(2) 0.41007(14)
C136 C 0.8310(2) 0.41426(18) 0.39721(16)
H71 H 0.8272 0.3851 0.4076
C137 C 0.8651(2) 0.4388(2) 0.37027(18)
H72 H 0.8857 0.4269 0.3627
C138 C 0.87204(17) 0.4803(2) 0.35291(13)
C139 C 0.8400(2) 0.49382(17) 0.36496(16)
H73 H 0.8416 0.5212 0.3528
C140 C 0.8051(2) 0.4695(2) 0.39419(18)
H74 H 0.7844 0.4809 0.4025
C141 C 0.91059(15) 0.50701(17) 0.32152(12)
C142 C 0.93588(13) 0.48995(13) 0.30274(11)
H75 H 0.9294 0.4586 0.3094
C143 C 0.97011(13) 0.51489(14) 0.27482(10)
C144 C 0.98210(13) 0.56114(15) 0.26544(11)
C145 C 0.95994(16) 0.58273(16) 0.28455(14)
H76 H 0.9688 0.6151 0.2792
C146 C 0.92248(15) 0.55394(18) 0.31319(12)
H77 H 0.9058 0.5674 0.3264
O32 O 0.77041(11) 0.47888(16) 0.0000
O32_2 O 0.77041(11) 0.47888(16) 1.0000
O36 O 0.76047(8) 0.39664(12) 0.95446(7)
O47 O 0.68264(13) 0.42298(9) 0.95405(7)
O3_3 O 0.6666 0.3333 0.5000
O4_3 O 0.52112(16) 0.22959(11) 0.5000
O23_3 O 0.70847(19) 0.47888(16) 0.5000
O31_3 O 0.77041(19) 0.29153(11) 0.5000
O32_3 O 0.29153(19) 0.52112(16) 0.5000
O35_2 O 0.76047(15) 0.36383(9) 0.54554(7)
O36_2 O 0.36383(14) 0.60336(12) 0.54554(7)
O37_2 O 0.60336(12) 0.23953(8) 0.54554(7)
O39_2 O 0.63617(14) 0.39664(12) 0.54554(7)
O44_2 O 0.74034(16) 0.42298(9) 0.54595(7)
O46_2 O 0.68264(13) 0.25966(9) 0.54595(7)
O47_2 O 0.25966(16) 0.57702(9) 0.54595(7)
O48_2 O 0.57702(16) 0.31736(13) 0.54595(7)
O49 O 0.3333 0.6667 0.5000
O14_3 O 0.22959(19) 0.70847(11) 0.5000
O30_3 O 0.47888(16) 0.77041(11) 0.5000
O34_2 O 0.39664(12) 0.76047(8) 0.54554(7)
O38_2 O 0.23953(15) 0.63617(9) 0.54554(7)
O43_2 O 0.31736(13) 0.74034(9) 0.54595(7)
O45_2 O 0.42298(16) 0.68264(13) 0.54595(7)
C120_3 C 0.0000 0.5000 0.7500
C121_2 C 0.23786(17) 0.64122(24) 0.94344(14)
C122_2 C 0.19871(18) 0.62901(27) 0.91007(14)
C123_2 C 0.1690(2) 0.58326(27) 0.89721(16)
H64_2 H 0.1728 0.5579 0.9076
C124_2 C 0.1349(2) 0.5737(3) 0.87027(18)
H65_2 H 0.1143 0.5412 0.8627
C125_2 C 0.12796(17) 0.60826(26) 0.85291(13)
C126_2 C 0.1600(2) 0.65382(26) 0.86496(16)
H66_2 H 0.1584 0.6796 0.8528
C127_2 C 0.1949(2) 0.6644(3) 0.89419(18)
H67_2 H 0.2156 0.6965 0.9025
C128_2 C 0.08941(15) 0.59642(23) 0.82152(12)
C129_2 C 0.06412(13) 0.55407(18) 0.80274(11)
H68_2 H 0.0706 0.5292 0.8094
C130_2 C 0.02989(13) 0.54478(19) 0.77482(10)
C131_2 C 0.01790(13) 0.57904(20) 0.76544(11)
C132_2 C 0.04006(16) 0.62279(23) 0.78455(14)
H69_2 H 0.0312 0.6463 0.7792
C133_2 C 0.07752(15) 0.63146(23) 0.81319(12)
H70_2 H 0.0942 0.6616 0.8264
C134_2 C 0.23786(17) 0.59664(17) 0.55656(14)
C135_2 C 0.19871(18) 0.5697(2) 0.58993(14)
C136_2 C 0.1690(2) 0.58574(18) 0.60279(16)
H71_2 H 0.1728 0.6149 0.5924
C137_2 C 0.1349(2) 0.5612(2) 0.62973(18)
H72_2 H 0.1143 0.5731 0.6373
C138_2 C 0.12796(17) 0.5197(2) 0.64709(13)
C139_2 C 0.1600(2) 0.50618(17) 0.63504(16)
H73_2 H 0.1584 0.4788 0.6472
C140_2 C 0.1949(2) 0.5305(2) 0.60581(18)
H74_2 H 0.2156 0.5191 0.5975
C141_2 C 0.08941(15) 0.49299(17) 0.67848(12)
C142_2 C 0.06412(13) 0.51005(13) 0.69726(11)
H75_2 H 0.0706 0.5414 0.6906
C143_2 C 0.02989(13) 0.48511(14) 0.72518(10)
C144_2 C 0.01790(13) 0.43886(15) 0.73456(11)
C145_2 C 0.04006(16) 0.41727(16) 0.71545(14)
H76_2 H 0.0312 0.3849 0.7208
C146_2 C 0.07752(15) 0.44606(18) 0.68681(12)
H77_2 H 0.0942 0.4326 0.6736
C1_2 C 0.59664(17) 0.23786(17) 0.94344(14)
C2_2 C 0.5697(2) 0.19871(18) 0.91007(14)
C3_2 C 0.58574(18) 0.1690(2) 0.89721(16)
H1_2 H 0.6149 0.1728 0.9076
C4_2 C 0.5612(2) 0.1349(2) 0.87027(18)
H2_2 H 0.5731 0.1143 0.8627
C5_2 C 0.5197(2) 0.12796(17) 0.85291(13)
C6_2 C 0.50618(17) 0.1600(2) 0.86496(16)
H3_2 H 0.4788 0.1584 0.8528
C7_2 C 0.5305(2) 0.1949(2) 0.89419(18)
H4_2 H 0.5191 0.2156 0.9025
C8_2 C 0.49299(17) 0.08941(15) 0.82152(12)
C9_2 C 0.51005(13) 0.06412(13) 0.80274(11)
H5_2 H 0.5414 0.0706 0.8094
C10_2 C 0.48511(14) 0.02989(13) 0.77482(10)
C11_2 C 0.43886(15) 0.01790(13) 0.76544(11)
C12_2 C 0.41727(16) 0.04006(16) 0.78455(14)
H6_2 H 0.3849 0.0312 0.7792
C13_2 C 0.44606(18) 0.07752(15) 0.81319(12)
H7_2 H 0.4326 0.0942 0.8264
C14_3 C 0.5000 -0.0000 0.7500
C41_2 C 0.64122(24) 0.23786(17) 0.55656(14)
C42_2 C 0.62901(27) 0.19871(18) 0.58993(14)
C43_2 C 0.58326(27) 0.1690(2) 0.60279(16)
H22_2 H 0.5579 0.1728 0.5924
C44_2 C 0.5737(3) 0.1349(2) 0.62973(18)
H23_2 H 0.5412 0.1143 0.6373
C45_2 C 0.60826(26) 0.12796(17) 0.64709(13)
C46_2 C 0.65382(26) 0.1600(2) 0.63504(16)
H24_2 H 0.6796 0.1584 0.6472
C47_2 C 0.6644(3) 0.1949(2) 0.60581(18)
H25_2 H 0.6965 0.2156 0.5975
C48_2 C 0.59642(23) 0.08941(15) 0.67848(12)
C49_2 C 0.55407(18) 0.06412(13) 0.69726(11)
H26_2 H 0.5292 0.0706 0.6906
C50_2 C 0.54478(19) 0.02989(13) 0.72518(10)
C51_2 C 0.57904(20) 0.01790(13) 0.73456(11)
C52_2 C 0.62279(23) 0.04006(16) 0.71545(14)
H27_2 H 0.6463 0.0312 0.7208
C53_2 C 0.63146(23) 0.07752(15) 0.68681(12)
H28_2 H 0.6616 0.0942 0.6736
C107_2 C 0.76214(17) 0.35878(24) 0.94344(14)
C108_2 C 0.80129(18) 0.37099(27) 0.91007(14)
C109_2 C 0.8310(2) 0.41674(27) 0.89721(16)
H57_2 H 0.8272 0.4421 0.9076
C110_2 C 0.8651(2) 0.4263(3) 0.87027(18)
H58_2 H 0.8857 0.4588 0.8627
C111_2 C 0.87204(17) 0.39174(26) 0.85291(13)
C112_2 C 0.8400(2) 0.34618(26) 0.86496(16)
H59_2 H 0.8416 0.3204 0.8528
C113_2 C 0.8051(2) 0.3356(3) 0.89419(18)
H60_2 H 0.7844 0.3035 0.9025
C114_2 C 0.91059(15) 0.40358(23) 0.82152(12)
C115_2 C 0.93588(13) 0.44593(18) 0.80274(11)
H61_2 H 0.9294 0.4708 0.8094
C116_2 C 0.97011(13) 0.45522(19) 0.77482(10)
C117_2 C 0.98210(13) 0.42096(20) 0.76544(11)
C118_2 C 0.95994(16) 0.37721(23) 0.78455(14)
H62_2 H 0.9688 0.3537 0.7792
C119_2 C 0.92248(15) 0.36854(23) 0.81319(12)
H63_2 H 0.9058 0.3384 0.8264
C120_4 C 1.0000 0.5000 0.7500
C147_2 C 0.76214(17) 0.40336(17) 0.55656(14)
C148_2 C 0.80129(18) 0.4303(2) 0.58993(14)
C149_2 C 0.8310(2) 0.41426(18) 0.60279(16)
H78_2 H 0.8272 0.3851 0.5924
C150_2 C 0.8651(2) 0.4388(2) 0.62973(18)
H79_2 H 0.8857 0.4269 0.6373
C151_2 C 0.87204(17) 0.4803(2) 0.64709(13)
C152_2 C 0.8400(2) 0.49382(17) 0.63504(16)
H80_2 H 0.8416 0.5212 0.6472
C153_2 C 0.8051(2) 0.4695(2) 0.60581(18)
H81_2 H 0.7844 0.4809 0.5975
C154_2 C 0.91059(15) 0.50701(17) 0.67848(12)
C155_2 C 0.93588(13) 0.48995(13) 0.69726(11)
H82_2 H 0.9294 0.4586 0.6906
C156_2 C 0.97011(13) 0.51489(14) 0.72518(10)
C157_2 C 0.98210(13) 0.56114(15) 0.73456(11)
C158_2 C 0.95994(16) 0.58273(16) 0.71545(14)
H83_2 H 0.9688 0.6151 0.7208
C159_2 C 0.92248(15) 0.55394(18) 0.68681(12)
H84_2 H 0.9058 0.5674 0.6736
C14_4 C 0.5000 1.0000 0.7500
C15_2 C 0.40336(17) 0.76214(17) 0.94344(14)
C16_2 C 0.4303(2) 0.80129(18) 0.91007(14)
C17_2 C 0.41426(18) 0.8310(2) 0.89721(16)
H8_2 H 0.3851 0.8272 0.9076
C18_2 C 0.4388(2) 0.8651(2) 0.87027(18)
H9_2 H 0.4269 0.8857 0.8627
C19_2 C 0.4803(2) 0.87204(17) 0.85291(13)
C20_2 C 0.49382(17) 0.8400(2) 0.86496(16)
H10_2 H 0.5212 0.8416 0.8528
C21_2 C 0.4695(2) 0.8051(2) 0.89419(18)
H11_2 H 0.4809 0.7844 0.9025
C22_2 C 0.50701(17) 0.91059(15) 0.82152(12)
C23_2 C 0.48995(13) 0.93588(13) 0.80274(11)
H12_2 H 0.4586 0.9294 0.8094
C24_2 C 0.51489(14) 0.97011(13) 0.77482(10)
C25_2 C 0.56114(15) 0.98210(13) 0.76544(11)
C26_2 C 0.58273(16) 0.95994(16) 0.78455(14)
H13_2 H 0.6151 0.9688 0.7792
C27_2 C 0.55394(18) 0.92248(15) 0.81319(12)
H14_2 H 0.5674 0.9058 0.8264
C28_2 C 0.35878(24) 0.76214(17) 0.55656(14)
C29_2 C 0.37099(27) 0.80129(18) 0.58993(14)
C30_2 C 0.41674(27) 0.8310(2) 0.60279(16)
H15_2 H 0.4421 0.8272 0.5924
C31_2 C 0.4263(3) 0.8651(2) 0.62973(18)
H16_2 H 0.4588 0.8857 0.6373
C32_2 C 0.39174(26) 0.87204(17) 0.64709(13)
C33_2 C 0.34618(26) 0.8400(2) 0.63504(16)
H17_2 H 0.3204 0.8416 0.6472
C34_2 C 0.3356(3) 0.8051(2) 0.60581(18)
H18_2 H 0.3035 0.7844 0.5975
C35_2 C 0.40358(23) 0.91059(15) 0.67848(12)
C36_2 C 0.44593(18) 0.93588(13) 0.69726(11)
H19_2 H 0.4708 0.9294 0.6906
C37_2 C 0.45522(19) 0.97011(13) 0.72518(10)
C38_2 C 0.42096(20) 0.98210(13) 0.73456(11)
C39_2 C 0.37721(23) 0.95994(16) 0.71545(14)
H20_2 H 0.3537 0.9688 0.7208
C40_2 C 0.36854(23) 0.92248(15) 0.68681(12)
H21_2 H 0.3384 0.9058 0.6736
C54_2 C 0.35878(24) 0.59664(17) 0.94344(14)
C55_2 C 0.37099(27) 0.5697(2) 0.91007(14)
C56_2 C 0.41674(27) 0.58574(18) 0.89721(16)
H29_2 H 0.4421 0.6149 0.9076
C57_2 C 0.4263(3) 0.5612(2) 0.87027(18)
H30_2 H 0.4588 0.5731 0.8627
C58_2 C 0.39174(26) 0.5197(2) 0.85291(13)
C59_2 C 0.34618(26) 0.50618(17) 0.86496(16)
H31_2 H 0.3204 0.4788 0.8528
C60_2 C 0.3356(3) 0.5305(2) 0.89419(18)
H32_2 H 0.3035 0.5191 0.9025
C61_2 C 0.40358(23) 0.49299(17) 0.82152(12)
C62_2 C 0.44593(18) 0.51005(13) 0.80274(11)
H33_2 H 0.4708 0.5414 0.8094
C63_2 C 0.45522(19) 0.48511(14) 0.77482(10)
C64_2 C 0.42096(20) 0.43886(15) 0.76544(11)
C65_2 C 0.37721(23) 0.41727(16) 0.78455(14)
H34_2 H 0.3537 0.3849 0.7792
C66_2 C 0.36854(23) 0.44606(18) 0.81319(12)
H35_2 H 0.3384 0.4326 0.8264
C67_2 C 0.5000 0.5000 0.7500
C68_2 C 0.64122(24) 0.40336(17) 0.94344(14)
C69_2 C 0.62901(27) 0.4303(2) 0.91007(14)
C70_2 C 0.58326(27) 0.41426(18) 0.89721(16)
H36_2 H 0.5579 0.3851 0.9076
C71_2 C 0.5737(3) 0.4388(2) 0.87027(18)
H37_2 H 0.5412 0.4269 0.8627
C72_2 C 0.60826(26) 0.4803(2) 0.85291(13)
C73_2 C 0.65382(26) 0.49382(17) 0.86496(16)
H38_2 H 0.6796 0.5212 0.8528
C74_2 C 0.6644(3) 0.4695(2) 0.89419(18)
H39_2 H 0.6965 0.4809 0.9025
C75_2 C 0.59642(23) 0.50701(17) 0.82152(12)
C76_2 C 0.55407(18) 0.48995(13) 0.80274(11)
H40_2 H 0.5292 0.4586 0.8094
C77_2 C 0.54478(19) 0.51489(14) 0.77482(10)
C78_2 C 0.57904(20) 0.56114(15) 0.76544(11)
C79_2 C 0.62279(23) 0.58273(16) 0.78455(14)
H41_2 H 0.6463 0.6151 0.7792
C80_2 C 0.63146(23) 0.55394(18) 0.81319(12)
H42_2 H 0.6616 0.5674 0.8264
C81_2 C 0.59664(17) 0.35878(24) 0.55656(14)
C82_2 C 0.5697(2) 0.37099(27) 0.58993(14)
C83_2 C 0.58574(18) 0.41674(27) 0.60279(16)
H43_2 H 0.6149 0.4421 0.5924
C84_2 C 0.5612(2) 0.4263(3) 0.62973(18)
H44_2 H 0.5731 0.4588 0.6373
C85_2 C 0.5197(2) 0.39174(26) 0.64709(13)
C86_2 C 0.50618(17) 0.34618(26) 0.63504(16)
H45_2 H 0.4788 0.3204 0.6472
C87_2 C 0.5305(2) 0.3356(3) 0.60581(18)
H46_2 H 0.5191 0.3035 0.5975
C88_2 C 0.49299(17) 0.40358(23) 0.67848(12)
C89_2 C 0.51005(13) 0.44593(18) 0.69726(11)
H47_2 H 0.5414 0.4708 0.6906
C90_2 C 0.48511(14) 0.45522(19) 0.72518(10)
C91_2 C 0.43886(15) 0.42096(20) 0.73456(11)
C92_2 C 0.41727(16) 0.37721(23) 0.71545(14)
H48_2 H 0.3849 0.3537 0.7208
C93_2 C 0.44606(18) 0.36854(23) 0.68681(12)
H49_2 H 0.4326 0.3384 0.6736
C94_2 C 0.40336(17) 0.64122(24) 0.55656(14)
C95_2 C 0.4303(2) 0.62901(27) 0.58993(14)
C96_2 C 0.41426(18) 0.58326(27) 0.60279(16)
H50_2 H 0.3851 0.5579 0.5924
C97_2 C 0.4388(2) 0.5737(3) 0.62973(18)
H51_2 H 0.4269 0.5412 0.6373
C98_2 C 0.4803(2) 0.60826(26) 0.64709(13)
C99_2 C 0.49382(17) 0.65382(26) 0.63504(16)
H52_2 H 0.5212 0.6796 0.6472
C100_2 C 0.4695(2) 0.6644(3) 0.60581(18)
H53_2 H 0.4809 0.6965 0.5975
C101_2 C 0.50701(17) 0.59642(23) 0.67848(12)
C102_2 C 0.48995(13) 0.55407(18) 0.69726(11)
H54_2 H 0.4586 0.5292 0.6906
C103_2 C 0.51489(14) 0.54478(19) 0.72518(10)
C104_2 C 0.56114(15) 0.57904(20) 0.73456(11)
C105_2 C 0.58273(16) 0.62279(23) 0.71545(14)
H55_2 H 0.6151 0.6463 0.7208
C106_2 C 0.55394(18) 0.63146(23) 0.68681(12)
H56_2 H 0.5674 0.6616 0.6736
loop_
_geom_bond_atom_site_label_1
_geom_bond_atom_site_label_2
_geom_bond_site_symmetry_1
_geom_bond_site_symmetry_2
O5 C15 1_555 1_555
O6 C15 1_555 1_555
C15 C16 1_555 1_555
C16 C17 1_555 1_555
C17 H8 1_555 1_555
C18 C17 1_555 1_555
H9 C18 1_555 1_555
C19 C18 1_555 1_555
C20 C19 1_555 1_555
H10 C20 1_555 1_555
C21 C16 1_555 1_555
H11 C21 1_555 1_555
C22 C19 1_555 1_555
C23 C22 1_555 1_555
H12 C23 1_555 1_555
C24 C14 1_555 1_555
C25 C24 1_555 1_555
C26 C25 1_555 1_555
H13 C26 1_555 1_555
C27 C22 1_555 1_555
H14 C27 1_555 1_555
O7 C28 1_555 1_555
O8 C28 1_555 1_555
C28 C29 1_555 1_555
C29 C30 1_555 1_555
C30 H15 1_555 1_555
C31 C30 1_555 1_555
H16 C31 1_555 1_555
C32 C31 1_555 1_555
C33 C32 1_555 1_555
H17 C33 1_555 1_555
C34 C29 1_555 1_555
H18 C34 1_555 1_555
C35 C32 1_555 1_555
C36 C35 1_555 1_555
H19 C36 1_555 1_555
C37 C14 1_555 1_555
C39 C38 1_555 1_555
H20 C39 1_555 1_555
C40 C35 1_555 1_555
H21 C40 1_555 1_555
In2 O6 1_555 1_555
O11 In2 1_555 1_555
O12 C54 1_555 1_555
O13 In2 1_555 1_555
O14 In2 1_555 1_555
C54 O11 1_555 1_555
C55 C54 1_555 1_555
C56 C55 1_555 1_555
H29 C56 1_555 1_555
C57 C56 1_555 1_555
H30 C57 1_555 1_555
C58 C57 1_555 1_555
C59 C58 1_555 1_555
H31 C59 1_555 1_555
C60 C55 1_555 1_555
H32 C60 1_555 1_555
C61 C58 1_555 1_555
C62 C61 1_555 1_555
H33 C62 1_555 1_555
C63 C62 1_555 1_555
C64 C63 1_555 1_555
C65 C64 1_555 1_555
H34 C65 1_555 1_555
C66 C61 1_555 1_555
H35 C66 1_555 1_555
C67 C63 1_555 1_555
O15 C68 1_555 1_555
O16 C68 1_555 1_555
C68 C69 1_555 1_555
C69 C70 1_555 1_555
C70 H36 1_555 1_555
C71 C70 1_555 1_555
H37 C71 1_555 1_555
C72 C71 1_555 1_555
C73 C72 1_555 1_555
H38 C73 1_555 1_555
C74 C69 1_555 1_555
H39 C74 1_555 1_555
C75 C72 1_555 1_555
C76 C75 1_555 1_555
H40 C76 1_555 1_555
C77 C67 1_555 1_555
C78 C77 1_555 1_555
C79 C78 1_555 1_555
H41 C79 1_555 1_555
C80 C75 1_555 1_555
H42 C80 1_555 1_555
O17 C81 1_555 1_555
O18 C81 1_555 1_555
C81 C82 1_555 1_555
C82 C83 1_555 1_555
C83 H43 1_555 1_555
C84 C83 1_555 1_555
H44 C84 1_555 1_555
C85 C84 1_555 1_555
C86 C85 1_555 1_555
H45 C86 1_555 1_555
C87 C82 1_555 1_555
H46 C87 1_555 1_555
C88 C85 1_555 1_555
C89 C88 1_555 1_555
H47 C89 1_555 1_555
C90 C67 1_555 1_555
C91 C64 1_555 1_555
C92 C91 1_555 1_555
H48 C92 1_555 1_555
C93 C88 1_555 1_555
H49 C93 1_555 1_555
O19 C94 1_555 1_555
O20 C94 1_555 1_555
C94 C95 1_555 1_555
C95 C96 1_555 1_555
C96 H50 1_555 1_555
C97 C96 1_555 1_555
H51 C97 1_555 1_555
C98 C97 1_555 1_555
C99 C98 1_555 1_555
H52 C99 1_555 1_555
C100 C95 1_555 1_555
H53 C100 1_555 1_555
C101 C98 1_555 1_555
C102 C101 1_555 1_555
H54 C102 1_555 1_555
C103 C67 1_555 1_555
C104 C78 1_555 1_555
C105 C104 1_555 1_555
H55 C105 1_555 1_555
C106 C101 1_555 1_555
H56 C106 1_555 1_555
In4 O5 1_555 1_555
O30 In4 1_555 1_555
In7 O16 1_555 1_555
In9 O15 1_555 1_555
In10 O12 1_555 1_555
In11 O7 1_555 1_555
In13 O19 1_555 1_555
In15 O8 1_555 1_555
In18 O18 1_555 1_555
In20 O17 1_555 1_555
O42 In4 1_555 1_555
C20 C21 1_555 1_555
C23 C24 1_555 1_555
C26 C27 1_555 1_555
C33 C34 1_555 1_555
C36 C37 1_555 1_555
C37 C38 1_555 1_555
C39 C40 1_555 1_555
O13 In4 1_555 1_555
O13 In10 1_555 1_555
C59 C60 1_555 1_555
C65 C66 1_555 1_555
C73 C74 1_555 1_555
C76 C77 1_555 1_555
C79 C80 1_555 1_555
C86 C87 1_555 1_555
C89 C90 1_555 1_555
C90 C91 1_555 1_555
C92 C93 1_555 1_555
O20 In11 1_555 1_555
C99 C100 1_555 1_555
C102 C103 1_555 1_555
C103 C104 1_555 1_555
C105 C106 1_555 1_555
O13_2 In2_2 1_555 1_555
O14_2 In2_2 1_555 1_555
O30_2 In4_2 1_555 1_555
O34 In4_2 1_555 1_555
O38 In2_2 1_555 1_555
O43 In2_2 1_555 1_555
O45 In4_2 1_555 1_555
O13_2 In4_2 1_555 1_555
O13_2 In10_2 1_555 1_555
In1 O1 1_555 1_555
O1 C1 1_555 1_555
O2 C1 1_555 1_555
O3 In1 1_555 1_555
O4 In1 1_555 1_555
C1 C2 1_555 1_555
C2 C3 1_555 1_555
C3 H1 1_555 1_555
C4 C3 1_555 1_555
H2 C4 1_555 1_555
C5 C4 1_555 1_555
C6 C5 1_555 1_555
H3 C6 1_555 1_555
C7 C2 1_555 1_555
H4 C7 1_555 1_555
C8 C5 1_555 1_555
C9 C8 1_555 1_555
H5 C9 1_555 1_555
C10 C9 1_555 1_555
C11 C10 1_555 1_555
C12 C11 1_555 1_555
H6 C12 1_555 1_555
C13 C8 1_555 1_555
H7 C13 1_555 1_555
C14_2 C10 1_555 1_555
O9 C41 1_555 1_555
O10 C41 1_555 1_555
C41 C42 1_555 1_555
C42 C43 1_555 1_555
C43 H22 1_555 1_555
C44 C43 1_555 1_555
H23 C44 1_555 1_555
C45 C44 1_555 1_555
C46 C45 1_555 1_555
H24 C46 1_555 1_555
C47 C42 1_555 1_555
H25 C47 1_555 1_555
C48 C45 1_555 1_555
C49 C48 1_555 1_555
H26 C49 1_555 1_555
C50 C14_2 1_555 1_555
C52 C51 1_555 1_555
H27 C52 1_555 1_555
C53 C48 1_555 1_555
H28 C53 1_555 1_555
In7 O3 1_555 1_555
O21 In7 1_555 1_555
O22 In1 1_555 1_555
O23 In7 1_555 1_555
C107 O21 1_555 1_555
C108 C107 1_555 1_555
C109 C108 1_555 1_555
H57 C109 1_555 1_555
C110 C109 1_555 1_555
H58 C110 1_555 1_555
C111 C110 1_555 1_555
C112 C111 1_555 1_555
H59 C112 1_555 1_555
C113 C108 1_555 1_555
H60 C113 1_555 1_555
C114 C111 1_555 1_555
C115 C114 1_555 1_555
H61 C115 1_555 1_555
C116 C115 1_555 1_555
C117 C116 1_555 1_555
C118 C117 1_555 1_555
H62 C118 1_555 1_555
C119 C114 1_555 1_555
H63 C119 1_555 1_555
C120 C116 1_555 1_555
O28 C147 1_555 1_555
O29 C147 1_555 1_555
C147 C148 1_555 1_555
C148 C149 1_555 1_555
C149 H78 1_555 1_555
C150 C149 1_555 1_555
H79 C150 1_555 1_555
C151 C150 1_555 1_555
C152 C151 1_555 1_555
H80 C152 1_555 1_555
C153 C148 1_555 1_555
H81 C153 1_555 1_555
C154 C151 1_555 1_555
C155 C154 1_555 1_555
H82 C155 1_555 1_555
C156 C120 1_555 1_555
C158 C157 1_555 1_555
H83 C158 1_555 1_555
C159 C154 1_555 1_555
H84 C159 1_555 1_555
In9 O2 1_555 1_555
O31 In9 1_555 1_555
In16 O10 1_555 1_555
In18 O9 1_555 1_555
In20 O29 1_555 1_555
O3 In9 1_555 1_555
C6 C7 1_555 1_555
C12 C13 1_555 1_555
C46 C47 1_555 1_555
C49 C50 1_555 1_555
C50 C51 1_555 1_555
C52 C53 1_555 1_555
O22 C107 1_555 1_555
C112 C113 1_555 1_555
C118 C119 1_555 1_555
O28 In16 1_555 1_555
C152 C153 1_555 1_555
C155 C156 1_555 1_555
C156 C157 1_555 1_555
C158 C159 1_555 1_555
O3_2 In1_2 1_555 1_555
O4_2 In1_2 1_555 1_555
In7_2 O3_2 1_555 1_555
O23_2 In7_2 1_555 1_555
O31_2 In9_2 1_555 1_555
O35 In9_2 1_555 1_555
O37 In1_2 1_555 1_555
O39 In7_2 1_555 1_555
O44 In7_2 1_555 1_555
O46 In9_2 1_555 1_555
O48 In1_2 1_555 1_555
O3_2 In9_2 1_555 1_555
O24 C121 1_555 1_555
O42 C121 1_555 1_555
C121 C122 1_555 1_555
C122 C123 1_555 1_555
C123 H64 1_555 1_555
C124 C123 1_555 1_555
H65 C124 1_555 1_555
C125 C124 1_555 1_555
C126 C125 1_555 1_555
H66 C126 1_555 1_555
C127 C122 1_555 1_555
H67 C127 1_555 1_555
C128 C125 1_555 1_555
C129 C128 1_555 1_555
H68 C129 1_555 1_555
C130 C120_2 1_555 1_555
C131 C130 1_555 1_555
C132 C131 1_555 1_555
H69 C132 1_555 1_555
C133 C128 1_555 1_555
H70 C133 1_555 1_555
O26 C134 1_555 1_555
O27 C134 1_555 1_555
C134 C135 1_555 1_555
C135 C136 1_555 1_555
C136 H71 1_555 1_555
C137 C136 1_555 1_555
H72 C137 1_555 1_555
C138 C137 1_555 1_555
C139 C138 1_555 1_555
H73 C139 1_555 1_555
C140 C135 1_555 1_555
H74 C140 1_555 1_555
C141 C138 1_555 1_555
C142 C141 1_555 1_555
H75 C142 1_555 1_555
C143 C120_2 1_555 1_555
C145 C144 1_555 1_555
H76 C145 1_555 1_555
C146 C141 1_555 1_555
H77 C146 1_555 1_555
In10 O24 1_555 1_555
O32 In10 1_555 1_555
In13 O27 1_555 1_555
In15 O26 1_555 1_555
C126 C127 1_555 1_555
C129 C130 1_555 1_555
C132 C133 1_555 1_555
C139 C140 1_555 1_555
C142 C143 1_555 1_555
C143 C144 1_555 1_555
C145 C146 1_555 1_555
O32_2 In10_2 1_555 1_555
O36 In10_2 1_555 1_555
O47 In10_2 1_555 1_555
O3_3 In11 1_555 1_555
O4_3 In11 1_555 1_555
In13 O3_3 1_555 1_555
O23_3 In13 1_555 1_555
O31_3 In15 1_555 1_555
O32_3 In20 1_555 1_555
O35_2 In15 1_555 1_555
O36_2 In20 1_555 1_555
O37_2 In11 1_555 1_555
O39_2 In13 1_555 1_555
O44_2 In13 1_555 1_555
O46_2 In15 1_555 1_555
O47_2 In20 1_555 1_555
O48_2 In11 1_555 1_555
O49 In20 1_555 1_555
O3_3 In15 1_555 1_555
In18 O49 1_555 1_555
O49 In16 1_555 1_555
O14_3 In16 1_555 1_555
O30_3 In18 1_555 1_555
O34_2 In18 1_555 1_555
O38_2 In16 1_555 1_555
O43_2 In16 1_555 1_555
O45_2 In18 1_555 1_555
O39 C121_2 1_555 1_555
O48 C121_2 1_555 1_555
C121_2 C122_2 1_555 1_555
C122_2 C123_2 1_555 1_555
C123_2 H64_2 1_555 1_555
C124_2 C123_2 1_555 1_555
H65_2 C124_2 1_555 1_555
C125_2 C124_2 1_555 1_555
C126_2 C125_2 1_555 1_555
H66_2 C126_2 1_555 1_555
C127_2 C122_2 1_555 1_555
H67_2 C127_2 1_555 1_555
C128_2 C125_2 1_555 1_555
C129_2 C128_2 1_555 1_555
H68_2 C129_2 1_555 1_555
C130_2 C120_3 1_555 1_555
C131_2 C130_2 1_555 1_555
C132_2 C131_2 1_555 1_555
H69_2 C132_2 1_555 1_555
C133_2 C128_2 1_555 1_555
H70_2 C133_2 1_555 1_555
O38_2 C134_2 1_555 1_555
O47_2 C134_2 1_555 1_555
C134_2 C135_2 1_555 1_555
C135_2 C136_2 1_555 1_555
C136_2 H71_2 1_555 1_555
C137_2 C136_2 1_555 1_555
H72_2 C137_2 1_555 1_555
C138_2 C137_2 1_555 1_555
C139_2 C138_2 1_555 1_555
H73_2 C139_2 1_555 1_555
C140_2 C135_2 1_555 1_555
H74_2 C140_2 1_555 1_555
C141_2 C138_2 1_555 1_555
C142_2 C141_2 1_555 1_555
H75_2 C142_2 1_555 1_555
C143_2 C120_3 1_555 1_555
C145_2 C144_2 1_555 1_555
H76_2 C145_2 1_555 1_555
C146_2 C141_2 1_555 1_555
H77_2 C146_2 1_555 1_555
C126_2 C127_2 1_555 1_555
C129_2 C130_2 1_555 1_555
C132_2 C133_2 1_555 1_555
C139_2 C140_2 1_555 1_555
C142_2 C143_2 1_555 1_555
C143_2 C144_2 1_555 1_555
C145_2 C146_2 1_555 1_555
O34 C1_2 1_555 1_555
O43 C1_2 1_555 1_555
C1_2 C2_2 1_555 1_555
C2_2 C3_2 1_555 1_555
C3_2 H1_2 1_555 1_555
C4_2 C3_2 1_555 1_555
H2_2 C4_2 1_555 1_555
C5_2 C4_2 1_555 1_555
C6_2 C5_2 1_555 1_555
H3_2 C6_2 1_555 1_555
C7_2 C2_2 1_555 1_555
H4_2 C7_2 1_555 1_555
C8_2 C5_2 1_555 1_555
C9_2 C8_2 1_555 1_555
H5_2 C9_2 1_555 1_555
C10_2 C9_2 1_555 1_555
C11_2 C10_2 1_555 1_555
C12_2 C11_2 1_555 1_555
H6_2 C12_2 1_555 1_555
C13_2 C8_2 1_555 1_555
H7_2 C13_2 1_555 1_555
C14_3 C10_2 1_555 1_555
O37_2 C41_2 1_555 1_555
O46_2 C41_2 1_555 1_555
C41_2 C42_2 1_555 1_555
C42_2 C43_2 1_555 1_555
C43_2 H22_2 1_555 1_555
C44_2 C43_2 1_555 1_555
H23_2 C44_2 1_555 1_555
C45_2 C44_2 1_555 1_555
C46_2 C45_2 1_555 1_555
H24_2 C46_2 1_555 1_555
C47_2 C42_2 1_555 1_555
H25_2 C47_2 1_555 1_555
C48_2 C45_2 1_555 1_555
C49_2 C48_2 1_555 1_555
H26_2 C49_2 1_555 1_555
C50_2 C14_3 1_555 1_555
C52_2 C51_2 1_555 1_555
H27_2 C52_2 1_555 1_555
C53_2 C48_2 1_555 1_555
H28_2 C53_2 1_555 1_555
C107_2 O36 1_555 1_555
C108_2 C107_2 1_555 1_555
C109_2 C108_2 1_555 1_555
H57_2 C109_2 1_555 1_555
C110_2 C109_2 1_555 1_555
H58_2 C110_2 1_555 1_555
C111_2 C110_2 1_555 1_555
C112_2 C111_2 1_555 1_555
H59_2 C112_2 1_555 1_555
C113_2 C108_2 1_555 1_555
H60_2 C113_2 1_555 1_555
C114_2 C111_2 1_555 1_555
C115_2 C114_2 1_555 1_555
H61_2 C115_2 1_555 1_555
C116_2 C115_2 1_555 1_555
C117_2 C116_2 1_555 1_555
C118_2 C117_2 1_555 1_555
H62_2 C118_2 1_555 1_555
C119_2 C114_2 1_555 1_555
H63_2 C119_2 1_555 1_555
C120_4 C116_2 1_555 1_555
O35_2 C147_2 1_555 1_555
O44_2 C147_2 1_555 1_555
C147_2 C148_2 1_555 1_555
C148_2 C149_2 1_555 1_555
C149_2 H78_2 1_555 1_555
C150_2 C149_2 1_555 1_555
H79_2 C150_2 1_555 1_555
C151_2 C150_2 1_555 1_555
C152_2 C151_2 1_555 1_555
H80_2 C152_2 1_555 1_555
C153_2 C148_2 1_555 1_555
H81_2 C153_2 1_555 1_555
C154_2 C151_2 1_555 1_555
C155_2 C154_2 1_555 1_555
H82_2 C155_2 1_555 1_555
C156_2 C120_4 1_555 1_555
C158_2 C157_2 1_555 1_555
H83_2 C158_2 1_555 1_555
C159_2 C154_2 1_555 1_555
H84_2 C159_2 1_555 1_555
C6_2 C7_2 1_555 1_555
C12_2 C13_2 1_555 1_555
C46_2 C47_2 1_555 1_555
C49_2 C50_2 1_555 1_555
C50_2 C51_2 1_555 1_555
C52_2 C53_2 1_555 1_555
O45 C107_2 1_555 1_555
C112_2 C113_2 1_555 1_555
C118_2 C119_2 1_555 1_555
C152_2 C153_2 1_555 1_555
C155_2 C156_2 1_555 1_555
C156_2 C157_2 1_555 1_555
C158_2 C159_2 1_555 1_555
O37 C15_2 1_555 1_555
O46 C15_2 1_555 1_555
C15_2 C16_2 1_555 1_555
C16_2 C17_2 1_555 1_555
C17_2 H8_2 1_555 1_555
C18_2 C17_2 1_555 1_555
H9_2 C18_2 1_555 1_555
C19_2 C18_2 1_555 1_555
C20_2 C19_2 1_555 1_555
H10_2 C20_2 1_555 1_555
C21_2 C16_2 1_555 1_555
H11_2 C21_2 1_555 1_555
C22_2 C19_2 1_555 1_555
C23_2 C22_2 1_555 1_555
H12_2 C23_2 1_555 1_555
C24_2 C14_4 1_555 1_555
C25_2 C24_2 1_555 1_555
C26_2 C25_2 1_555 1_555
H13_2 C26_2 1_555 1_555
C27_2 C22_2 1_555 1_555
H14_2 C27_2 1_555 1_555
O34_2 C28_2 1_555 1_555
O43_2 C28_2 1_555 1_555
C28_2 C29_2 1_555 1_555
C29_2 C30_2 1_555 1_555
C30_2 H15_2 1_555 1_555
C31_2 C30_2 1_555 1_555
H16_2 C31_2 1_555 1_555
C32_2 C31_2 1_555 1_555
C33_2 C32_2 1_555 1_555
H17_2 C33_2 1_555 1_555
C34_2 C29_2 1_555 1_555
H18_2 C34_2 1_555 1_555
C35_2 C32_2 1_555 1_555
C36_2 C35_2 1_555 1_555
H19_2 C36_2 1_555 1_555
C37_2 C14_4 1_555 1_555
C39_2 C38_2 1_555 1_555
H20_2 C39_2 1_555 1_555
C40_2 C35_2 1_555 1_555
H21_2 C40_2 1_555 1_555
O44 C54_2 1_555 1_555
C54_2 O35 1_555 1_555
C55_2 C54_2 1_555 1_555
C56_2 C55_2 1_555 1_555
H29_2 C56_2 1_555 1_555
C57_2 C56_2 1_555 1_555
H30_2 C57_2 1_555 1_555
C58_2 C57_2 1_555 1_555
C59_2 C58_2 1_555 1_555
H31_2 C59_2 1_555 1_555
C60_2 C55_2 1_555 1_555
H32_2 C60_2 1_555 1_555
C61_2 C58_2 1_555 1_555
C62_2 C61_2 1_555 1_555
H33_2 C62_2 1_555 1_555
C63_2 C62_2 1_555 1_555
C64_2 C63_2 1_555 1_555
C65_2 C64_2 1_555 1_555
H34_2 C65_2 1_555 1_555
C66_2 C61_2 1_555 1_555
H35_2 C66_2 1_555 1_555
C67_2 C63_2 1_555 1_555
O38 C68_2 1_555 1_555
O47 C68_2 1_555 1_555
C68_2 C69_2 1_555 1_555
C69_2 C70_2 1_555 1_555
C70_2 H36_2 1_555 1_555
C71_2 C70_2 1_555 1_555
H37_2 C71_2 1_555 1_555
C72_2 C71_2 1_555 1_555
C73_2 C72_2 1_555 1_555
H38_2 C73_2 1_555 1_555
C74_2 C69_2 1_555 1_555
H39_2 C74_2 1_555 1_555
C75_2 C72_2 1_555 1_555
C76_2 C75_2 1_555 1_555
H40_2 C76_2 1_555 1_555
C77_2 C67_2 1_555 1_555
C78_2 C77_2 1_555 1_555
C79_2 C78_2 1_555 1_555
H41_2 C79_2 1_555 1_555
C80_2 C75_2 1_555 1_555
H42_2 C80_2 1_555 1_555
O39_2 C81_2 1_555 1_555
O48_2 C81_2 1_555 1_555
C81_2 C82_2 1_555 1_555
C82_2 C83_2 1_555 1_555
C83_2 H43_2 1_555 1_555
C84_2 C83_2 1_555 1_555
H44_2 C84_2 1_555 1_555
C85_2 C84_2 1_555 1_555
C86_2 C85_2 1_555 1_555
H45_2 C86_2 1_555 1_555
C87_2 C82_2 1_555 1_555
H46_2 C87_2 1_555 1_555
C88_2 C85_2 1_555 1_555
C89_2 C88_2 1_555 1_555
H47_2 C89_2 1_555 1_555
C90_2 C67_2 1_555 1_555
C91_2 C64_2 1_555 1_555
C92_2 C91_2 1_555 1_555
H48_2 C92_2 1_555 1_555
C93_2 C88_2 1_555 1_555
H49_2 C93_2 1_555 1_555
O36_2 C94_2 1_555 1_555
O45_2 C94_2 1_555 1_555
C94_2 C95_2 1_555 1_555
C95_2 C96_2 1_555 1_555
C96_2 H50_2 1_555 1_555
C97_2 C96_2 1_555 1_555
H51_2 C97_2 1_555 1_555
C98_2 C97_2 1_555 1_555
C99_2 C98_2 1_555 1_555
H52_2 C99_2 1_555 1_555
C100_2 C95_2 1_555 1_555
H53_2 C100_2 1_555 1_555
C101_2 C98_2 1_555 1_555
C102_2 C101_2 1_555 1_555
H54_2 C102_2 1_555 1_555
C103_2 C67_2 1_555 1_555
C104_2 C78_2 1_555 1_555
C105_2 C104_2 1_555 1_555
H55_2 C105_2 1_555 1_555
C106_2 C101_2 1_555 1_555
H56_2 C106_2 1_555 1_555
C20_2 C21_2 1_555 1_555
C23_2 C24_2 1_555 1_555
C26_2 C27_2 1_555 1_555
C33_2 C34_2 1_555 1_555
C36_2 C37_2 1_555 1_555
C37_2 C38_2 1_555 1_555
C39_2 C40_2 1_555 1_555
C59_2 C60_2 1_555 1_555
C65_2 C66_2 1_555 1_555
C73_2 C74_2 1_555 1_555
C76_2 C77_2 1_555 1_555
C79_2 C80_2 1_555 1_555
C86_2 C87_2 1_555 1_555
C89_2 C90_2 1_555 1_555
C90_2 C91_2 1_555 1_555
C92_2 C93_2 1_555 1_555
C99_2 C100_2 1_555 1_555
C102_2 C103_2 1_555 1_555
C103_2 C104_2 1_555 1_555
C105_2 C106_2 1_555 1_555

#END
