
###############################################################################
#
# This file contains modified crystal structure data generated from the
# MOF subset of the Cambridge Structural Database (CSD) v543 
# hosted by the Cambridge Crystallographic Data Centre (CCDC).
#
# This work is licensed under the Creative Commons
# Attribution-NonCommercial-ShareAlike 4.0 International License.
# To view a copy of this license, visit
# http://creativecommons.org/licenses/by-nc-sa/4.0/
# or send a letter to
# Creative Commons, PO Box 1866, Mountain View, CA 94042, USA.
#
# CIF created using the CSD Python API on 29 September 2022
# The structure has been converted into the P1 space group
# The structure has a 3D framework
# The original CSD entry QOTLOD03 is in the hexagonal crystal system
# The framework has been calculated to contain at least 10.0% void space
# The void calculation uses a probe of radius 1.32A, grid spacing 0.4
# The framework is charged, counterions have been retained in the structure
# H atom positions have been added when not included in the experimental data
# Generated hydrogen atom positions removed from atoms on special positions
#
###############################################################################

data_QOTLOD03
_chemical_formula_moiety         '(C322 H264 Fe18 O72 2+)n'
_symmetry_cell_setting           triclinic
_symmetry_space_group_name_H-M   'P 1'
_symmetry_Int_Tables_number      1
_space_group_name_Hall           'P 1'
loop_
_symmetry_equiv_pos_site_id
_symmetry_equiv_pos_as_xyz
1 x,y,z
_cell_length_a                   31.3244(10)
_cell_length_b                   31.324
_cell_length_c                   33.2713(13)
_cell_angle_alpha                90
_cell_angle_beta                 90
_cell_angle_gamma                120
_cell_volume                     28272.3
loop_
_atom_site_label
_atom_site_type_symbol
_atom_site_fract_x
_atom_site_fract_y
_atom_site_fract_z
Fe4 Fe 0.59834(2) 0.28396(2) 0.0000
O30 O 0.52538(7) 0.23154(8) 0.0000
Fe10 Fe 0.71604(2) 0.31438(3) 0.0000
O34 O 0.6666 0.3333 0.0000
O35 O 0.60510(6) 0.24260(5) 0.04287(4)
O48 O 0.57982(8) 0.31650(5) 0.04328(4)
C1 C 0.5000 0.0000 0.7500
O5 O 0.60510(6) 0.24260(5) 0.95713(4)
C15 C 0.54598(7) 0.03060(7) 0.77498(5)
C16 C 0.60098(8) 0.09132(8) 0.82236(6)
C17 C 0.63052(8) 0.20196(8) 0.91219(5)
C18 C 0.61000(9) 0.12948(8) 0.85358(6)
O6 O 0.68350(5) 0.26332(6) 0.95672(4)
C19 C 0.64029(9) 0.23839(7) 0.94422(6)
C20 C 0.58202(9) 0.01933(8) 0.76535(6)
C21 C 0.55472(7) 0.06651(7) 0.80335(5)
H8 H 0.5301 0.0741 0.8098
C22 C 0.63591(10) 0.07855(10) 0.81310(7)
H9 H 0.6664 0.0942 0.8265
C23 C 0.58340(11) 0.16995(11) 0.90025(8)
H10 H 0.5572 0.1723 0.9117
C24 C 0.57337(10) 0.13398(11) 0.87147(9)
H11 H 0.5405 0.1122 0.8642
C25 C 0.66734(10) 0.19768(11) 0.89486(8)
H12 H 0.7001 0.2192 0.9027
C26 C 0.62720(9) 0.04334(10) 0.78460(7)
H13 H 0.6518 0.0356 0.7782
C27 C 0.65782(10) 0.16229(11) 0.86582(8)
H14 H 0.6842 0.1605 0.8542
O7 O 0.63750(8) 0.24260(5) 0.54287(4)
C28 C 0.48462(10) 0.03060(7) 0.72502(5)
C29 C 0.49034(11) 0.09132(8) 0.67764(6)
C30 C 0.57144(11) 0.20196(8) 0.58781(5)
C31 C 0.51948(12) 0.12948(8) 0.64642(6)
O8 O 0.57982(8) 0.26332(6) 0.54328(4)
C32 C 0.59810(11) 0.23839(7) 0.55578(6)
C33 C 0.43731(12) 0.01933(8) 0.73465(6)
C34 C 0.51179(10) 0.06651(7) 0.69665(5)
H15 H 0.5440 0.0741 0.6902
C35 C 0.44264(14) 0.07855(10) 0.68690(7)
H16 H 0.4278 0.0942 0.6735
C36 C 0.58655(16) 0.16995(11) 0.59975(8)
H17 H 0.6151 0.1723 0.5883
C37 C 0.56061(15) 0.13398(11) 0.62853(9)
H18 H 0.5717 0.1122 0.6358
C38 C 0.53034(15) 0.19768(11) 0.60514(8)
H19 H 0.5191 0.2192 0.5973
C39 C 0.41614(13) 0.04334(10) 0.71540(7)
H20 H 0.3838 0.0356 0.7218
C40 C 0.50447(15) 0.16229(11) 0.63418(8)
H21 H 0.4763 0.1605 0.6458
Fe4_2 Fe 0.59834(2) 0.28396(2) 1.0000
O30_2 O 0.52538(7) 0.23154(8) 1.0000
Fe10_2 Fe 0.71604(2) 0.31438(3) 1.0000
Fe12 Fe 0.68562(3) 0.28396(2) 0.5000
Fe14 Fe 0.59834(2) 0.31438(3) 0.5000
O34_2 O 0.6666 0.3333 1.0000
O41 O 0.57982(8) 0.31650(5) 0.95672(4)
Fe1 Fe 0.40166(2) 0.71604(2) 0.0000
O1 O 0.47462(7) 0.76846(8) 0.0000
O2 O 0.3333 0.6667 0.0000
Fe2 Fe 0.68562(3) 0.40166(2) 0.0000
O11 O 0.70616(11) 0.47462(7) 0.0000
Fe3 Fe 0.28396(2) 0.68562(3) 0.0000
O21 O 0.23154(8) 0.70616(11) 0.0000
Fe5 Fe 0.31438(3) 0.59834(2) 0.0000
O31 O 0.29384(11) 0.52538(7) 0.0000
O36 O 0.36250(8) 0.60510(6) 0.04287(4)
O38 O 0.39490(6) 0.75740(5) 0.04287(4)
O39 O 0.63750(8) 0.39490(6) 0.04287(4)
O40 O 0.24260(5) 0.63750(8) 0.04287(4)
O45 O 0.42018(8) 0.68350(5) 0.04328(4)
O46 O 0.73668(6) 0.42018(8) 0.04328(4)
O47 O 0.31650(5) 0.73668(6) 0.04328(4)
O49 O 0.26332(6) 0.57982(8) 0.04328(4)
Fe1_2 Fe 0.40166(2) 0.71604(2) 1.0000
C1_2 C 0.5000 1.0000 0.7500
O1_2 O 0.47462(7) 0.76846(8) 1.0000
O2_2 O 0.3333 0.6667 1.0000
O3 O 0.39490(6) 0.75740(5) 0.95713(4)
C2 C 0.45402(7) 0.96940(7) 0.77498(5)
C3 C 0.39902(8) 0.90868(8) 0.82236(6)
C4 C 0.36948(8) 0.79804(8) 0.91219(5)
C5 C 0.39000(9) 0.87052(8) 0.85358(6)
O4 O 0.31650(5) 0.73668(6) 0.95672(4)
C6 C 0.35971(9) 0.76161(7) 0.94422(6)
C7 C 0.41798(9) 0.98067(8) 0.76535(6)
C8 C 0.44528(7) 0.93349(7) 0.80335(5)
H1 H 0.4699 0.9259 0.8098
C9 C 0.36409(10) 0.92145(10) 0.81310(7)
H2 H 0.3336 0.9058 0.8265
C10 C 0.41660(11) 0.83005(11) 0.90025(8)
H3 H 0.4428 0.8277 0.9117
C11 C 0.42663(10) 0.86602(11) 0.87147(9)
H4 H 0.4595 0.8878 0.8642
C12 C 0.33266(10) 0.80232(11) 0.89486(8)
H5 H 0.2999 0.7808 0.9027
C13 C 0.37280(9) 0.95666(10) 0.78460(7)
H6 H 0.3482 0.9644 0.7782
C14 C 0.34218(10) 0.83771(11) 0.86582(8)
H7 H 0.3158 0.8395 0.8542
O9 O 0.36250(8) 0.75740(5) 0.54287(4)
C41 C 0.51538(10) 0.96940(7) 0.72502(5)
C42 C 0.50966(11) 0.90868(8) 0.67764(6)
C43 C 0.42856(11) 0.79804(8) 0.58781(5)
C44 C 0.48052(12) 0.87052(8) 0.64642(6)
O10 O 0.42018(8) 0.73668(6) 0.54328(4)
C45 C 0.40190(11) 0.76161(7) 0.55578(6)
C46 C 0.56269(12) 0.98067(8) 0.73465(6)
C47 C 0.48821(10) 0.93349(7) 0.69665(5)
H22 H 0.4560 0.9259 0.6902
C48 C 0.55736(14) 0.92145(10) 0.68690(7)
H23 H 0.5722 0.9058 0.6735
C49 C 0.41345(16) 0.83005(11) 0.59975(8)
H24 H 0.3849 0.8277 0.5883
C50 C 0.43939(15) 0.86602(11) 0.62853(9)
H25 H 0.4283 0.8878 0.6358
C51 C 0.46966(15) 0.80232(11) 0.60514(8)
H26 H 0.4809 0.7808 0.5973
C52 C 0.58386(13) 0.95666(10) 0.71540(7)
H27 H 0.6162 0.9644 0.7218
C53 C 0.49553(15) 0.83771(11) 0.63418(8)
H28 H 0.5237 0.8395 0.6458
Fe2_2 Fe 0.68562(3) 0.40166(2) 1.0000
C54 C 0.5000 0.5000 0.7500
O11_2 O 0.70616(11) 0.47462(7) 1.0000
O13 O 0.63750(8) 0.39490(6) 0.95713(4)
C55 C 0.48462(10) 0.45402(7) 0.77498(5)
C56 C 0.49034(11) 0.39902(8) 0.82236(6)
C57 C 0.57144(11) 0.36948(8) 0.91219(5)
C58 C 0.51948(12) 0.39000(9) 0.85358(6)
C59 C 0.59810(11) 0.35971(9) 0.94422(6)
C60 C 0.43731(12) 0.41798(9) 0.76535(6)
C61 C 0.51179(10) 0.44528(7) 0.80335(5)
H29 H 0.5440 0.4699 0.8098
C62 C 0.44264(14) 0.36409(10) 0.81310(7)
H30 H 0.4278 0.3336 0.8265
C63 C 0.58655(16) 0.41660(11) 0.90025(8)
H31 H 0.6151 0.4428 0.9117
C64 C 0.56061(15) 0.42663(10) 0.87147(9)
H32 H 0.5717 0.4595 0.8642
C65 C 0.53034(15) 0.33266(10) 0.89486(8)
H33 H 0.5191 0.2999 0.9027
C66 C 0.41614(13) 0.37280(9) 0.78460(7)
H34 H 0.3838 0.3482 0.7782
C67 C 0.50447(15) 0.34218(10) 0.86582(8)
H35 H 0.4763 0.3158 0.8542
O15 O 0.36250(8) 0.60510(6) 0.95713(4)
C68 C 0.51538(10) 0.54598(7) 0.77498(5)
C69 C 0.50966(11) 0.60098(8) 0.82236(6)
C70 C 0.42856(11) 0.63052(8) 0.91219(5)
C71 C 0.48052(12) 0.61000(9) 0.85358(6)
O16 O 0.42018(8) 0.68350(5) 0.95672(4)
C72 C 0.40190(11) 0.64029(9) 0.94422(6)
C73 C 0.56269(12) 0.58202(9) 0.76535(6)
C74 C 0.48821(10) 0.55472(7) 0.80335(5)
H36 H 0.4560 0.5301 0.8098
C75 C 0.55736(14) 0.63591(10) 0.81310(7)
H37 H 0.5722 0.6664 0.8265
C76 C 0.41345(16) 0.58340(11) 0.90025(8)
H38 H 0.3849 0.5572 0.9117
C77 C 0.43939(15) 0.57337(10) 0.87147(9)
H39 H 0.4283 0.5405 0.8642
C78 C 0.46966(15) 0.66734(10) 0.89486(8)
H40 H 0.4809 0.7001 0.9027
C79 C 0.58386(13) 0.62720(9) 0.78460(7)
H41 H 0.6162 0.6518 0.7782
C80 C 0.49553(15) 0.65782(10) 0.86582(8)
H42 H 0.5237 0.6842 0.8542
O17 O 0.39490(6) 0.63750(8) 0.54287(4)
C81 C 0.45402(7) 0.48462(10) 0.72502(5)
C82 C 0.39902(8) 0.49034(11) 0.67764(6)
C83 C 0.36948(8) 0.57144(11) 0.58781(5)
C84 C 0.39000(9) 0.51948(12) 0.64642(6)
O18 O 0.31650(5) 0.57982(8) 0.54328(4)
C85 C 0.35971(9) 0.59810(11) 0.55578(6)
C86 C 0.41798(9) 0.43731(12) 0.73465(6)
C87 C 0.44528(7) 0.51179(10) 0.69665(5)
H43 H 0.4699 0.5440 0.6902
C88 C 0.36409(10) 0.44264(14) 0.68690(7)
H44 H 0.3336 0.4278 0.6735
C89 C 0.41660(11) 0.58655(16) 0.59975(8)
H45 H 0.4428 0.6151 0.5883
C90 C 0.42663(10) 0.56061(15) 0.62853(9)
H46 H 0.4595 0.5717 0.6358
C91 C 0.33266(10) 0.53034(15) 0.60514(8)
H47 H 0.2999 0.5191 0.5973
C92 C 0.37280(9) 0.41614(13) 0.71540(7)
H48 H 0.3482 0.3838 0.7218
C93 C 0.34218(10) 0.50447(15) 0.63418(8)
H49 H 0.3158 0.4763 0.6458
O19 O 0.60510(6) 0.36250(8) 0.54287(4)
C94 C 0.54598(7) 0.51538(10) 0.72502(5)
C95 C 0.60098(8) 0.50966(11) 0.67764(6)
C96 C 0.63052(8) 0.42856(11) 0.58781(5)
C97 C 0.61000(9) 0.48052(12) 0.64642(6)
O20 O 0.68350(5) 0.42018(8) 0.54328(4)
C98 C 0.64029(9) 0.40190(11) 0.55578(6)
C99 C 0.58202(9) 0.56269(12) 0.73465(6)
C100 C 0.55472(7) 0.48821(10) 0.69665(5)
H50 H 0.5301 0.4560 0.6902
C101 C 0.63591(10) 0.55736(14) 0.68690(7)
H51 H 0.6664 0.5722 0.6735
C102 C 0.58340(11) 0.41345(16) 0.59975(8)
H52 H 0.5572 0.3849 0.5883
C103 C 0.57337(10) 0.43939(15) 0.62853(9)
H53 H 0.5405 0.4283 0.6358
C104 C 0.66734(10) 0.46966(15) 0.60514(8)
H54 H 0.7001 0.4809 0.5973
C105 C 0.62720(9) 0.58386(13) 0.71540(7)
H55 H 0.6518 0.6162 0.7218
C106 C 0.65782(10) 0.49553(15) 0.63418(8)
H56 H 0.6842 0.5237 0.6458
Fe3_2 Fe 0.28396(2) 0.68562(3) 1.0000
C107 C 0.0000 0.5000 0.7500
O21_2 O 0.23154(8) 0.70616(11) 1.0000
O22 O 0.24260(5) 0.63750(8) 0.95713(4)
C108 C 0.03060(7) 0.48462(10) 0.77498(5)
C109 C 0.09132(8) 0.49034(11) 0.82236(6)
C110 C 0.20196(8) 0.57144(11) 0.91219(5)
C111 C 0.12948(8) 0.51948(12) 0.85358(6)
O23 O 0.26332(6) 0.57982(8) 0.95672(4)
C112 C 0.23839(7) 0.59810(11) 0.94422(6)
C113 C 0.01933(8) 0.43731(12) 0.76535(6)
C114 C 0.06651(7) 0.51179(10) 0.80335(5)
H57 H 0.0741 0.5440 0.8098
C115 C 0.07855(10) 0.44264(14) 0.81310(7)
H58 H 0.0942 0.4278 0.8265
C116 C 0.16995(11) 0.58655(16) 0.90025(8)
H59 H 0.1723 0.6151 0.9117
C117 C 0.13398(11) 0.56061(15) 0.87147(9)
H60 H 0.1122 0.5717 0.8642
C118 C 0.19768(11) 0.53034(15) 0.89486(8)
H61 H 0.2192 0.5191 0.9027
C119 C 0.04334(10) 0.41614(13) 0.78460(7)
H62 H 0.0356 0.3838 0.7782
C120 C 0.16229(11) 0.50447(15) 0.86582(8)
H63 H 0.1605 0.4763 0.8542
O28 O 0.24260(5) 0.60510(6) 0.54287(4)
C147 C 0.03060(7) 0.54598(7) 0.72502(5)
C148 C 0.09132(8) 0.60098(8) 0.67764(6)
C149 C 0.20196(8) 0.63052(8) 0.58781(5)
C150 C 0.12948(8) 0.61000(9) 0.64642(6)
O29 O 0.26332(6) 0.68350(5) 0.54328(4)
C151 C 0.23839(7) 0.64029(9) 0.55578(6)
C152 C 0.01933(8) 0.58202(9) 0.73465(6)
C153 C 0.06651(7) 0.55472(7) 0.69665(5)
H78 H 0.0741 0.5301 0.6902
C154 C 0.07855(10) 0.63591(10) 0.68690(7)
H79 H 0.0942 0.6664 0.6735
C155 C 0.16995(11) 0.58340(11) 0.59975(8)
H80 H 0.1723 0.5572 0.5883
C156 C 0.13398(11) 0.57337(10) 0.62853(9)
H81 H 0.1122 0.5405 0.6358
C157 C 0.19768(11) 0.66734(10) 0.60514(8)
H82 H 0.2192 0.7001 0.5973
C158 C 0.04334(10) 0.62720(9) 0.71540(7)
H83 H 0.0356 0.6518 0.7218
C159 C 0.16229(11) 0.65782(10) 0.63418(8)
H84 H 0.1605 0.6842 0.6458
Fe5_2 Fe 0.31438(3) 0.59834(2) 1.0000
O31_2 O 0.29384(11) 0.52538(7) 1.0000
Fe16 Fe 0.71604(2) 0.40166(2) 0.5000
Fe17 Fe 0.28396(2) 0.59834(2) 0.5000
Fe18 Fe 0.31438(3) 0.71604(2) 0.5000
Fe19 Fe 0.40166(2) 0.68562(3) 0.5000
O43 O 0.73668(6) 0.42018(8) 0.95672(4)
O32 O 0.76846(8) 0.29384(11) 0.0000
O37 O 0.75740(5) 0.36250(8) 0.04287(4)
O44 O 0.68350(5) 0.26332(6) 0.04328(4)
C107_2 C 1.0000 0.5000 0.7500
O24 O 0.75740(5) 0.36250(8) 0.95713(4)
C121 C 0.96940(7) 0.51538(10) 0.77498(5)
C122 C 0.90868(8) 0.50966(11) 0.82236(6)
C123 C 0.79804(8) 0.42856(11) 0.91219(5)
C124 C 0.87052(8) 0.48052(12) 0.85358(6)
C125 C 0.76161(7) 0.40190(11) 0.94422(6)
C126 C 0.98067(8) 0.56269(12) 0.76535(6)
C127 C 0.93349(7) 0.48821(10) 0.80335(5)
H64 H 0.9259 0.4560 0.8098
C128 C 0.92145(10) 0.55736(14) 0.81310(7)
H65 H 0.9058 0.5722 0.8265
C129 C 0.83005(11) 0.41345(16) 0.90025(8)
H66 H 0.8277 0.3849 0.9117
C130 C 0.86602(11) 0.43939(15) 0.87147(9)
H67 H 0.8878 0.4283 0.8642
C131 C 0.80232(11) 0.46966(15) 0.89486(8)
H68 H 0.7808 0.4809 0.9027
C132 C 0.95666(10) 0.58386(13) 0.78460(7)
H69 H 0.9644 0.6162 0.7782
C133 C 0.83771(11) 0.49553(15) 0.86582(8)
H70 H 0.8395 0.5237 0.8542
O26 O 0.75740(5) 0.39490(6) 0.54287(4)
C134 C 0.96940(7) 0.45402(7) 0.72502(5)
C135 C 0.90868(8) 0.39902(8) 0.67764(6)
C136 C 0.79804(8) 0.36948(8) 0.58781(5)
C137 C 0.87052(8) 0.39000(9) 0.64642(6)
O27 O 0.73668(6) 0.31650(5) 0.54328(4)
C138 C 0.76161(7) 0.35971(9) 0.55578(6)
C139 C 0.98067(8) 0.41798(9) 0.73465(6)
C140 C 0.93349(7) 0.44528(7) 0.69665(5)
H71 H 0.9259 0.4699 0.6902
C141 C 0.92145(10) 0.36409(10) 0.68690(7)
H72 H 0.9058 0.3336 0.6735
C142 C 0.83005(11) 0.41660(11) 0.59975(8)
H73 H 0.8277 0.4428 0.5883
C143 C 0.86602(11) 0.42663(10) 0.62853(9)
H74 H 0.8878 0.4595 0.6358
C144 C 0.80232(11) 0.33266(10) 0.60514(8)
H75 H 0.7808 0.2999 0.5973
C145 C 0.95666(10) 0.37280(9) 0.71540(7)
H76 H 0.9644 0.3482 0.7218
C146 C 0.83771(11) 0.34218(10) 0.63418(8)
H77 H 0.8395 0.3158 0.6458
O32_2 O 0.76846(8) 0.29384(11) 1.0000
O11_3 O 0.23154(13) 0.52538(7) 0.5000
O12 O 0.3333 0.6667 0.5000
O39_2 O 0.24260(10) 0.60510(6) 0.45713(4)
O46_2 O 0.31650(10) 0.57982(8) 0.45672(4)
O1_3 O 0.70616(11) 0.23154(8) 0.5000
O2_3 O 0.6666 0.3333 0.5000
O21_3 O 0.52538(14) 0.29384(11) 0.5000
O31_3 O 0.76846(13) 0.47462(7) 0.5000
O32_3 O 0.47462(14) 0.70616(11) 0.5000
O36_2 O 0.75740(10) 0.39490(6) 0.45713(4)
O37_2 O 0.39490(9) 0.63750(8) 0.45713(4)
O38_2 O 0.63750(8) 0.24260(5) 0.45713(4)
O40_2 O 0.60510(9) 0.36250(8) 0.45713(4)
O44_2 O 0.42018(8) 0.73668(6) 0.45672(4)
O45_2 O 0.73668(9) 0.31650(5) 0.45672(4)
O47_2 O 0.57982(8) 0.26332(6) 0.45672(4)
O49_2 O 0.68350(10) 0.42018(8) 0.45672(4)
O30_3 O 0.29384(11) 0.76846(8) 0.5000
O35_2 O 0.36250(8) 0.75740(5) 0.45713(4)
O48_2 O 0.26332(9) 0.68350(5) 0.45672(4)
C107_3 C -0.0000 0.5000 0.2500
C121_2 C 0.03060(7) 0.48462(10) 0.22502(5)
C122_2 C 0.09132(8) 0.49034(11) 0.17764(6)
C123_2 C 0.20196(8) 0.57144(11) 0.08781(5)
C124_2 C 0.12948(8) 0.51948(12) 0.14642(6)
C125_2 C 0.23839(7) 0.59810(11) 0.05578(6)
C126_2 C 0.01933(8) 0.43731(12) 0.23465(6)
C127_2 C 0.06651(7) 0.51179(10) 0.19665(5)
H64_2 H 0.0741 0.5440 0.1902
C128_2 C 0.07855(10) 0.44264(14) 0.18690(7)
H65_2 H 0.0942 0.4278 0.1735
C129_2 C 0.16995(11) 0.58655(16) 0.09975(8)
H66_2 H 0.1723 0.6151 0.0883
C130_2 C 0.13398(11) 0.56061(15) 0.12853(9)
H67_2 H 0.1122 0.5717 0.1358
C131_2 C 0.19768(11) 0.53034(15) 0.10514(8)
H68_2 H 0.2192 0.5191 0.0973
C132_2 C 0.04334(10) 0.41614(13) 0.21540(7)
H69_2 H 0.0356 0.3838 0.2218
C133_2 C 0.16229(11) 0.50447(15) 0.13418(8)
H70_2 H 0.1605 0.4763 0.1458
C134_2 C 0.03060(7) 0.54598(7) 0.27498(5)
C135_2 C 0.09132(8) 0.60098(8) 0.32236(6)
C136_2 C 0.20196(8) 0.63052(8) 0.41219(5)
C137_2 C 0.12948(8) 0.61000(9) 0.35358(6)
C138_2 C 0.23839(7) 0.64029(9) 0.44422(6)
C139_2 C 0.01933(8) 0.58202(9) 0.26535(6)
C140_2 C 0.06651(7) 0.55472(7) 0.30335(5)
H71_2 H 0.0741 0.5301 0.3098
C141_2 C 0.07855(10) 0.63591(10) 0.31310(7)
H72_2 H 0.0942 0.6664 0.3265
C142_2 C 0.16995(11) 0.58340(11) 0.40025(8)
H73_2 H 0.1723 0.5572 0.4117
C143_2 C 0.13398(11) 0.57337(10) 0.37147(9)
H74_2 H 0.1122 0.5405 0.3642
C144_2 C 0.19768(11) 0.66734(10) 0.39486(8)
H75_2 H 0.2192 0.7001 0.4027
C145_2 C 0.04334(10) 0.62720(9) 0.28460(7)
H76_2 H 0.0356 0.6518 0.2782
C146_2 C 0.16229(11) 0.65782(10) 0.36582(8)
H77_2 H 0.1605 0.6842 0.3542
C1_3 C 0.5000 0.0000 0.2500
C2_2 C 0.54598(7) 0.03060(7) 0.22502(5)
C3_2 C 0.60098(8) 0.09132(8) 0.17764(6)
C4_2 C 0.63052(8) 0.20196(8) 0.08781(5)
C5_2 C 0.61000(9) 0.12948(8) 0.14642(6)
C6_2 C 0.64029(9) 0.23839(7) 0.05578(6)
C7_2 C 0.58202(9) 0.01933(8) 0.23465(6)
C8_2 C 0.55472(7) 0.06651(7) 0.19665(5)
H1_2 H 0.5301 0.0741 0.1902
C9_2 C 0.63591(10) 0.07855(10) 0.18690(7)
H2_2 H 0.6664 0.0942 0.1735
C10_2 C 0.58340(11) 0.16995(11) 0.09975(8)
H3_2 H 0.5572 0.1723 0.0883
C11_2 C 0.57337(10) 0.13398(11) 0.12853(9)
H4_2 H 0.5405 0.1122 0.1358
C12_2 C 0.66734(10) 0.19768(11) 0.10514(8)
H5_2 H 0.7001 0.2192 0.0973
C13_2 C 0.62720(9) 0.04334(10) 0.21540(7)
H6_2 H 0.6518 0.0356 0.2218
C14_2 C 0.65782(10) 0.16229(11) 0.13418(8)
H7_2 H 0.6842 0.1605 0.1458
C41_2 C 0.48462(10) 0.03060(7) 0.27498(5)
C42_2 C 0.49034(11) 0.09132(8) 0.32236(6)
C43_2 C 0.57144(11) 0.20196(8) 0.41219(5)
C44_2 C 0.51948(12) 0.12948(8) 0.35358(6)
C45_2 C 0.59810(11) 0.23839(7) 0.44422(6)
C46_2 C 0.43731(12) 0.01933(8) 0.26535(6)
C47_2 C 0.51179(10) 0.06651(7) 0.30335(5)
H22_2 H 0.5440 0.0741 0.3098
C48_2 C 0.44264(14) 0.07855(10) 0.31310(7)
H23_2 H 0.4278 0.0942 0.3265
C49_2 C 0.58655(16) 0.16995(11) 0.40025(8)
H24_2 H 0.6151 0.1723 0.4117
C50_2 C 0.56061(15) 0.13398(11) 0.37147(9)
H25_2 H 0.5717 0.1122 0.3642
C51_2 C 0.53034(15) 0.19768(11) 0.39486(8)
H26_2 H 0.5191 0.2192 0.4027
C52_2 C 0.41614(13) 0.04334(10) 0.28460(7)
H27_2 H 0.3838 0.0356 0.2782
C53_2 C 0.50447(15) 0.16229(11) 0.36582(8)
H28_2 H 0.4763 0.1605 0.3542
C54_2 C 0.5000 0.5000 0.2500
C55_2 C 0.51538(10) 0.54598(7) 0.22502(5)
C56_2 C 0.50966(11) 0.60098(8) 0.17764(6)
C57_2 C 0.42856(11) 0.63052(8) 0.08781(5)
C58_2 C 0.48052(12) 0.61000(9) 0.14642(6)
C59_2 C 0.40190(11) 0.64029(9) 0.05578(6)
C60_2 C 0.56269(12) 0.58202(9) 0.23465(6)
C61_2 C 0.48821(10) 0.55472(7) 0.19665(5)
H29_2 H 0.4560 0.5301 0.1902
C62_2 C 0.55736(14) 0.63591(10) 0.18690(7)
H30_2 H 0.5722 0.6664 0.1735
C63_2 C 0.41345(16) 0.58340(11) 0.09975(8)
H31_2 H 0.3849 0.5572 0.0883
C64_2 C 0.43939(15) 0.57337(10) 0.12853(9)
H32_2 H 0.4283 0.5405 0.1358
C65_2 C 0.46966(15) 0.66734(10) 0.10514(8)
H33_2 H 0.4809 0.7001 0.0973
C66_2 C 0.58386(13) 0.62720(9) 0.21540(7)
H34_2 H 0.6162 0.6518 0.2218
C67_2 C 0.49553(15) 0.65782(10) 0.13418(8)
H35_2 H 0.5237 0.6842 0.1458
C68_2 C 0.48462(10) 0.45402(7) 0.22502(5)
C69_2 C 0.49034(11) 0.39902(8) 0.17764(6)
C70_2 C 0.57144(11) 0.36948(8) 0.08781(5)
C71_2 C 0.51948(12) 0.39000(9) 0.14642(6)
C72_2 C 0.59810(11) 0.35971(9) 0.05578(6)
C73_2 C 0.43731(12) 0.41798(9) 0.23465(6)
C74_2 C 0.51179(10) 0.44528(7) 0.19665(5)
H36_2 H 0.5440 0.4699 0.1902
C75_2 C 0.44264(14) 0.36409(10) 0.18690(7)
H37_2 H 0.4278 0.3336 0.1735
C76_2 C 0.58655(16) 0.41660(11) 0.09975(8)
H38_2 H 0.6151 0.4428 0.0883
C77_2 C 0.56061(15) 0.42663(10) 0.12853(9)
H39_2 H 0.5717 0.4595 0.1358
C78_2 C 0.53034(15) 0.33266(10) 0.10514(8)
H40_2 H 0.5191 0.2999 0.0973
C79_2 C 0.41614(13) 0.37280(9) 0.21540(7)
H41_2 H 0.3838 0.3482 0.2218
C80_2 C 0.50447(15) 0.34218(10) 0.13418(8)
H42_2 H 0.4763 0.3158 0.1458
C81_2 C 0.54598(7) 0.51538(10) 0.27498(5)
C82_2 C 0.60098(8) 0.50966(11) 0.32236(6)
C83_2 C 0.63052(8) 0.42856(11) 0.41219(5)
C84_2 C 0.61000(9) 0.48052(12) 0.35358(6)
C85_2 C 0.64029(9) 0.40190(11) 0.44422(6)
C86_2 C 0.58202(9) 0.56269(12) 0.26535(6)
C87_2 C 0.55472(7) 0.48821(10) 0.30335(5)
H43_2 H 0.5301 0.4560 0.3098
C88_2 C 0.63591(10) 0.55736(14) 0.31310(7)
H44_2 H 0.6664 0.5722 0.3265
C89_2 C 0.58340(11) 0.41345(16) 0.40025(8)
H45_2 H 0.5572 0.3849 0.4117
C90_2 C 0.57337(10) 0.43939(15) 0.37147(9)
H46_2 H 0.5405 0.4283 0.3642
C91_2 C 0.66734(10) 0.46966(15) 0.39486(8)
H47_2 H 0.7001 0.4809 0.4027
C92_2 C 0.62720(9) 0.58386(13) 0.28460(7)
H48_2 H 0.6518 0.6162 0.2782
C93_2 C 0.65782(10) 0.49553(15) 0.36582(8)
H49_2 H 0.6842 0.5237 0.3542
C94_2 C 0.45402(7) 0.48462(10) 0.27498(5)
C95_2 C 0.39902(8) 0.49034(11) 0.32236(6)
C96_2 C 0.36948(8) 0.57144(11) 0.41219(5)
C97_2 C 0.39000(9) 0.51948(12) 0.35358(6)
C98_2 C 0.35971(9) 0.59810(11) 0.44422(6)
C99_2 C 0.41798(9) 0.43731(12) 0.26535(6)
C100_2 C 0.44528(7) 0.51179(10) 0.30335(5)
H50_2 H 0.4699 0.5440 0.3098
C101_2 C 0.36409(10) 0.44264(14) 0.31310(7)
H51_2 H 0.3336 0.4278 0.3265
C102_2 C 0.41660(11) 0.58655(16) 0.40025(8)
H52_2 H 0.4428 0.6151 0.4117
C103_2 C 0.42663(10) 0.56061(15) 0.37147(9)
H53_2 H 0.4595 0.5717 0.3642
C104_2 C 0.33266(10) 0.53034(15) 0.39486(8)
H54_2 H 0.2999 0.5191 0.4027
C105_2 C 0.37280(9) 0.41614(13) 0.28460(7)
H55_2 H 0.3482 0.3838 0.2782
C106_2 C 0.34218(10) 0.50447(15) 0.36582(8)
H56_2 H 0.3158 0.4763 0.3542
C107_4 C 1.0000 0.5000 0.2500
C108_2 C 0.96940(7) 0.51538(10) 0.22502(5)
C109_2 C 0.90868(8) 0.50966(11) 0.17764(6)
C110_2 C 0.79804(8) 0.42856(11) 0.08781(5)
C111_2 C 0.87052(8) 0.48052(12) 0.14642(6)
C112_2 C 0.76161(7) 0.40190(11) 0.05578(6)
C113_2 C 0.98067(8) 0.56269(12) 0.23465(6)
C114_2 C 0.93349(7) 0.48821(10) 0.19665(5)
H57_2 H 0.9259 0.4560 0.1902
C115_2 C 0.92145(10) 0.55736(14) 0.18690(7)
H58_2 H 0.9058 0.5722 0.1735
C116_2 C 0.83005(11) 0.41345(16) 0.09975(8)
H59_2 H 0.8277 0.3849 0.0883
C117_2 C 0.86602(11) 0.43939(15) 0.12853(9)
H60_2 H 0.8878 0.4283 0.1358
C118_2 C 0.80232(11) 0.46966(15) 0.10514(8)
H61_2 H 0.7808 0.4809 0.0973
C119_2 C 0.95666(10) 0.58386(13) 0.21540(7)
H62_2 H 0.9644 0.6162 0.2218
C120_2 C 0.83771(11) 0.49553(15) 0.13418(8)
H63_2 H 0.8395 0.5237 0.1458
C147_2 C 0.96940(7) 0.45402(7) 0.27498(5)
C148_2 C 0.90868(8) 0.39902(8) 0.32236(6)
C149_2 C 0.79804(8) 0.36948(8) 0.41219(5)
C150_2 C 0.87052(8) 0.39000(9) 0.35358(6)
C151_2 C 0.76161(7) 0.35971(9) 0.44422(6)
C152_2 C 0.98067(8) 0.41798(9) 0.26535(6)
C153_2 C 0.93349(7) 0.44528(7) 0.30335(5)
H78_2 H 0.9259 0.4699 0.3098
C154_2 C 0.92145(10) 0.36409(10) 0.31310(7)
H79_2 H 0.9058 0.3336 0.3265
C155_2 C 0.83005(11) 0.41660(11) 0.40025(8)
H80_2 H 0.8277 0.4428 0.4117
C156_2 C 0.86602(11) 0.42663(10) 0.37147(9)
H81_2 H 0.8878 0.4595 0.3642
C157_2 C 0.80232(11) 0.33266(10) 0.39486(8)
H82_2 H 0.7808 0.2999 0.4027
C158_2 C 0.95666(10) 0.37280(9) 0.28460(7)
H83_2 H 0.9644 0.3482 0.2782
C159_2 C 0.83771(11) 0.34218(10) 0.36582(8)
H84_2 H 0.8395 0.3158 0.3542
C1_4 C 0.5000 1.0000 0.2500
C15_2 C 0.45402(7) 0.96940(7) 0.22502(5)
C16_2 C 0.39902(8) 0.90868(8) 0.17764(6)
C17_2 C 0.36948(8) 0.79804(8) 0.08781(5)
C18_2 C 0.39000(9) 0.87052(8) 0.14642(6)
C19_2 C 0.35971(9) 0.76161(7) 0.05578(6)
C20_2 C 0.41798(9) 0.98067(8) 0.23465(6)
C21_2 C 0.44528(7) 0.93349(7) 0.19665(5)
H8_2 H 0.4699 0.9259 0.1902
C22_2 C 0.36409(10) 0.92145(10) 0.18690(7)
H9_2 H 0.3336 0.9058 0.1735
C23_2 C 0.41660(11) 0.83005(11) 0.09975(8)
H10_2 H 0.4428 0.8277 0.0883
C24_2 C 0.42663(10) 0.86602(11) 0.12853(9)
H11_2 H 0.4595 0.8878 0.1358
C25_2 C 0.33266(10) 0.80232(11) 0.10514(8)
H12_2 H 0.2999 0.7808 0.0973
C26_2 C 0.37280(9) 0.95666(10) 0.21540(7)
H13_2 H 0.3482 0.9644 0.2218
C27_2 C 0.34218(10) 0.83771(11) 0.13418(8)
H14_2 H 0.3158 0.8395 0.1458
C28_2 C 0.51538(10) 0.96940(7) 0.27498(5)
C29_2 C 0.50966(11) 0.90868(8) 0.32236(6)
C30_2 C 0.42856(11) 0.79804(8) 0.41219(5)
C31_2 C 0.48052(12) 0.87052(8) 0.35358(6)
C32_2 C 0.40190(11) 0.76161(7) 0.44422(6)
C33_2 C 0.56269(12) 0.98067(8) 0.26535(6)
C34_2 C 0.48821(10) 0.93349(7) 0.30335(5)
H15_2 H 0.4560 0.9259 0.3098
C35_2 C 0.55736(14) 0.92145(10) 0.31310(7)
H16_2 H 0.5722 0.9058 0.3265
C36_2 C 0.41345(16) 0.83005(11) 0.40025(8)
H17_2 H 0.3849 0.8277 0.4117
C37_2 C 0.43939(15) 0.86602(11) 0.37147(9)
H18_2 H 0.4283 0.8878 0.3642
C38_2 C 0.46966(15) 0.80232(11) 0.39486(8)
H19_2 H 0.4809 0.7808 0.4027
C39_2 C 0.58386(13) 0.95666(10) 0.28460(7)
H20_2 H 0.6162 0.9644 0.2782
C40_2 C 0.49553(15) 0.83771(11) 0.36582(8)
H21_2 H 0.5237 0.8395 0.3542
loop_
_geom_bond_atom_site_label_1
_geom_bond_atom_site_label_2
_geom_bond_site_symmetry_1
_geom_bond_site_symmetry_2
O30 Fe4 1_555 1_555
O34 Fe4 1_555 1_555
O35 Fe4 1_555 1_555
O48 Fe4 1_555 1_555
Fe10 O34 1_555 1_555
O5 C19 1_555 1_555
C15 C1 1_555 1_555
C16 C18 1_555 1_555
C17 C19 1_555 1_555
C18 C24 1_555 1_555
O6 C19 1_555 1_555
C20 C15 1_555 1_555
C21 C15 1_555 1_555
H8 C21 1_555 1_555
C22 C16 1_555 1_555
H9 C22 1_555 1_555
C23 C17 1_555 1_555
H10 C23 1_555 1_555
C24 C23 1_555 1_555
H11 C24 1_555 1_555
C25 C17 1_555 1_555
H12 C25 1_555 1_555
C26 C20 1_555 1_555
H13 C26 1_555 1_555
C27 C18 1_555 1_555
H14 C27 1_555 1_555
O7 C32 1_555 1_555
C28 C1 1_555 1_555
C29 C31 1_555 1_555
C30 C32 1_555 1_555
C31 C37 1_555 1_555
O8 C32 1_555 1_555
C34 C28 1_555 1_555
H15 C34 1_555 1_555
C35 C29 1_555 1_555
H16 C35 1_555 1_555
C36 C30 1_555 1_555
H17 C36 1_555 1_555
C37 C36 1_555 1_555
H18 C37 1_555 1_555
C38 C30 1_555 1_555
H19 C38 1_555 1_555
C39 C33 1_555 1_555
H20 C39 1_555 1_555
C40 C31 1_555 1_555
H21 C40 1_555 1_555
Fe4_2 O5 1_555 1_555
O30_2 Fe4_2 1_555 1_555
Fe10_2 O6 1_555 1_555
Fe12 O7 1_555 1_555
Fe14 O8 1_555 1_555
O34_2 Fe4_2 1_555 1_555
O41 Fe4_2 1_555 1_555
C16 C21 1_555 1_555
C22 C26 1_555 1_555
C25 C27 1_555 1_555
C28 C33 1_555 1_555
C29 C34 1_555 1_555
C35 C39 1_555 1_555
C38 C40 1_555 1_555
Fe10_2 O34_2 1_555 1_555
Fe1 O1 1_555 1_555
O2 Fe1 1_555 1_555
Fe2 O11 1_555 1_555
O34 Fe2 1_555 1_555
Fe3 O2 1_555 1_555
O21 Fe3 1_555 1_555
Fe5 O2 1_555 1_555
O31 Fe5 1_555 1_555
O36 Fe5 1_555 1_555
O38 Fe1 1_555 1_555
O39 Fe2 1_555 1_555
O40 Fe3 1_555 1_555
O45 Fe1 1_555 1_555
O46 Fe2 1_555 1_555
O47 Fe3 1_555 1_555
O49 Fe5 1_555 1_555
Fe1_2 O1_2 1_555 1_555
C1_2 C2 1_555 1_555
O2_2 Fe1_2 1_555 1_555
O3 Fe1_2 1_555 1_555
C2 C7 1_555 1_555
C3 C5 1_555 1_555
C4 C6 1_555 1_555
C5 C11 1_555 1_555
O4 C6 1_555 1_555
C6 O3 1_555 1_555
C7 C13 1_555 1_555
C8 C2 1_555 1_555
H1 C8 1_555 1_555
C9 C3 1_555 1_555
H2 C9 1_555 1_555
C10 C4 1_555 1_555
H3 C10 1_555 1_555
C11 C10 1_555 1_555
H4 C11 1_555 1_555
C12 C4 1_555 1_555
H5 C12 1_555 1_555
C13 C9 1_555 1_555
H6 C13 1_555 1_555
C14 C5 1_555 1_555
H7 C14 1_555 1_555
O9 C45 1_555 1_555
C41 C1_2 1_555 1_555
C42 C44 1_555 1_555
C43 C45 1_555 1_555
C44 C50 1_555 1_555
O10 C45 1_555 1_555
C47 C41 1_555 1_555
H22 C47 1_555 1_555
C48 C42 1_555 1_555
H23 C48 1_555 1_555
C49 C43 1_555 1_555
H24 C49 1_555 1_555
C50 C49 1_555 1_555
H25 C50 1_555 1_555
C51 C43 1_555 1_555
H26 C51 1_555 1_555
C52 C46 1_555 1_555
H27 C52 1_555 1_555
C53 C44 1_555 1_555
H28 C53 1_555 1_555
Fe2_2 O11_2 1_555 1_555
C54 C55 1_555 1_555
O34_2 Fe2_2 1_555 1_555
O13 Fe2_2 1_555 1_555
C55 C60 1_555 1_555
C56 C58 1_555 1_555
C57 C59 1_555 1_555
C58 C64 1_555 1_555
O41 C59 1_555 1_555
C59 O13 1_555 1_555
C60 C66 1_555 1_555
C61 C55 1_555 1_555
H29 C61 1_555 1_555
C62 C56 1_555 1_555
H30 C62 1_555 1_555
C63 C57 1_555 1_555
H31 C63 1_555 1_555
C64 C63 1_555 1_555
H32 C64 1_555 1_555
C65 C57 1_555 1_555
H33 C65 1_555 1_555
C66 C62 1_555 1_555
H34 C66 1_555 1_555
C67 C58 1_555 1_555
H35 C67 1_555 1_555
O15 C72 1_555 1_555
C68 C54 1_555 1_555
C69 C71 1_555 1_555
C70 C72 1_555 1_555
C71 C77 1_555 1_555
O16 Fe1_2 1_555 1_555
C72 O16 1_555 1_555
C73 C68 1_555 1_555
C74 C68 1_555 1_555
H36 C74 1_555 1_555
C75 C69 1_555 1_555
H37 C75 1_555 1_555
C76 C70 1_555 1_555
H38 C76 1_555 1_555
C77 C76 1_555 1_555
H39 C77 1_555 1_555
C78 C70 1_555 1_555
H40 C78 1_555 1_555
C79 C73 1_555 1_555
H41 C79 1_555 1_555
C80 C71 1_555 1_555
H42 C80 1_555 1_555
O17 C85 1_555 1_555
C81 C54 1_555 1_555
C82 C84 1_555 1_555
C83 C85 1_555 1_555
C84 C90 1_555 1_555
O18 C85 1_555 1_555
C86 C60 1_555 1_555
C87 C81 1_555 1_555
H43 C87 1_555 1_555
C88 C82 1_555 1_555
H44 C88 1_555 1_555
C89 C83 1_555 1_555
H45 C89 1_555 1_555
C90 C89 1_555 1_555
H46 C90 1_555 1_555
C91 C83 1_555 1_555
H47 C91 1_555 1_555
C92 C86 1_555 1_555
H48 C92 1_555 1_555
C93 C84 1_555 1_555
H49 C93 1_555 1_555
O19 C98 1_555 1_555
C94 C54 1_555 1_555
C95 C97 1_555 1_555
C96 C98 1_555 1_555
C97 C103 1_555 1_555
O20 C98 1_555 1_555
C99 C73 1_555 1_555
C100 C94 1_555 1_555
H50 C100 1_555 1_555
C101 C95 1_555 1_555
H51 C101 1_555 1_555
C102 C96 1_555 1_555
H52 C102 1_555 1_555
C103 C102 1_555 1_555
H53 C103 1_555 1_555
C104 C96 1_555 1_555
H54 C104 1_555 1_555
C105 C99 1_555 1_555
H55 C105 1_555 1_555
C106 C97 1_555 1_555
H56 C106 1_555 1_555
Fe3_2 O2_2 1_555 1_555
C107 C108 1_555 1_555
O21_2 Fe3_2 1_555 1_555
O22 Fe3_2 1_555 1_555
C108 C113 1_555 1_555
C109 C111 1_555 1_555
C110 C112 1_555 1_555
C111 C117 1_555 1_555
O23 C112 1_555 1_555
C112 O22 1_555 1_555
C113 C119 1_555 1_555
C114 C108 1_555 1_555
H57 C114 1_555 1_555
C115 C109 1_555 1_555
H58 C115 1_555 1_555
C116 C110 1_555 1_555
H59 C116 1_555 1_555
C117 C116 1_555 1_555
H60 C117 1_555 1_555
C118 C110 1_555 1_555
H61 C118 1_555 1_555
C119 C115 1_555 1_555
H62 C119 1_555 1_555
C120 C111 1_555 1_555
H63 C120 1_555 1_555
O28 C151 1_555 1_555
C147 C107 1_555 1_555
C148 C150 1_555 1_555
C149 C151 1_555 1_555
C150 C156 1_555 1_555
O29 C151 1_555 1_555
C153 C147 1_555 1_555
H78 C153 1_555 1_555
C154 C148 1_555 1_555
H79 C154 1_555 1_555
C155 C149 1_555 1_555
H80 C155 1_555 1_555
C156 C155 1_555 1_555
H81 C156 1_555 1_555
C157 C149 1_555 1_555
H82 C157 1_555 1_555
C158 C152 1_555 1_555
H83 C158 1_555 1_555
C159 C150 1_555 1_555
H84 C159 1_555 1_555
Fe5_2 O2_2 1_555 1_555
O31_2 Fe5_2 1_555 1_555
Fe14 O19 1_555 1_555
Fe16 O20 1_555 1_555
Fe17 O18 1_555 1_555
Fe18 O9 1_555 1_555
Fe19 O10 1_555 1_555
O43 Fe2_2 1_555 1_555
C3 C8 1_555 1_555
O4 Fe3_2 1_555 1_555
C12 C14 1_555 1_555
C41 C46 1_555 1_555
C42 C47 1_555 1_555
C48 C52 1_555 1_555
C51 C53 1_555 1_555
C56 C61 1_555 1_555
C65 C67 1_555 1_555
O15 Fe5_2 1_555 1_555
C69 C74 1_555 1_555
C75 C79 1_555 1_555
C78 C80 1_555 1_555
O17 Fe19 1_555 1_555
C81 C86 1_555 1_555
C82 C87 1_555 1_555
C88 C92 1_555 1_555
C91 C93 1_555 1_555
C94 C99 1_555 1_555
C95 C100 1_555 1_555
C101 C105 1_555 1_555
C104 C106 1_555 1_555
C109 C114 1_555 1_555
O23 Fe5_2 1_555 1_555
C118 C120 1_555 1_555
O28 Fe17 1_555 1_555
C147 C152 1_555 1_555
C148 C153 1_555 1_555
O29 Fe18 1_555 1_555
C154 C158 1_555 1_555
C157 C159 1_555 1_555
O32 Fe10 1_555 1_555
O37 Fe10 1_555 1_555
O44 Fe10 1_555 1_555
O24 C125 1_555 1_555
C121 C107_2 1_555 1_555
C122 C124 1_555 1_555
C123 C125 1_555 1_555
C124 C130 1_555 1_555
O43 C125 1_555 1_555
C126 C121 1_555 1_555
C127 C121 1_555 1_555
H64 C127 1_555 1_555
C128 C122 1_555 1_555
H65 C128 1_555 1_555
C129 C123 1_555 1_555
H66 C129 1_555 1_555
C130 C129 1_555 1_555
H67 C130 1_555 1_555
C131 C123 1_555 1_555
H68 C131 1_555 1_555
C132 C126 1_555 1_555
H69 C132 1_555 1_555
C133 C124 1_555 1_555
H70 C133 1_555 1_555
O26 C138 1_555 1_555
C134 C107_2 1_555 1_555
C135 C137 1_555 1_555
C136 C138 1_555 1_555
C137 C143 1_555 1_555
O27 C138 1_555 1_555
C140 C134 1_555 1_555
H71 C140 1_555 1_555
C141 C135 1_555 1_555
H72 C141 1_555 1_555
C142 C136 1_555 1_555
H73 C142 1_555 1_555
C143 C142 1_555 1_555
H74 C143 1_555 1_555
C144 C136 1_555 1_555
H75 C144 1_555 1_555
C145 C139 1_555 1_555
H76 C145 1_555 1_555
C146 C137 1_555 1_555
H77 C146 1_555 1_555
Fe10_2 O24 1_555 1_555
O32_2 Fe10_2 1_555 1_555
Fe12 O27 1_555 1_555
Fe16 O26 1_555 1_555
C122 C127 1_555 1_555
C128 C132 1_555 1_555
C131 C133 1_555 1_555
C134 C139 1_555 1_555
C135 C140 1_555 1_555
C141 C145 1_555 1_555
C144 C146 1_555 1_555
Fe17 O11_3 1_555 1_555
O12 Fe17 1_555 1_555
Fe18 O12 1_555 1_555
Fe19 O12 1_555 1_555
O39_2 Fe17 1_555 1_555
O46_2 Fe17 1_555 1_555
Fe12 O1_3 1_555 1_555
O2_3 Fe12 1_555 1_555
Fe14 O2_3 1_555 1_555
O21_3 Fe14 1_555 1_555
Fe16 O2_3 1_555 1_555
O31_3 Fe16 1_555 1_555
O32_3 Fe19 1_555 1_555
O36_2 Fe16 1_555 1_555
O37_2 Fe19 1_555 1_555
O38_2 Fe12 1_555 1_555
O40_2 Fe14 1_555 1_555
O44_2 Fe19 1_555 1_555
O45_2 Fe12 1_555 1_555
O47_2 Fe14 1_555 1_555
O49_2 Fe16 1_555 1_555
O30_3 Fe18 1_555 1_555
O35_2 Fe18 1_555 1_555
O48_2 Fe18 1_555 1_555
O40 C125_2 1_555 1_555
C121_2 C107_3 1_555 1_555
C122_2 C124_2 1_555 1_555
C123_2 C125_2 1_555 1_555
C124_2 C130_2 1_555 1_555
O49 C125_2 1_555 1_555
C126_2 C121_2 1_555 1_555
C127_2 C121_2 1_555 1_555
H64_2 C127_2 1_555 1_555
C128_2 C122_2 1_555 1_555
H65_2 C128_2 1_555 1_555
C129_2 C123_2 1_555 1_555
H66_2 C129_2 1_555 1_555
C130_2 C129_2 1_555 1_555
H67_2 C130_2 1_555 1_555
C131_2 C123_2 1_555 1_555
H68_2 C131_2 1_555 1_555
C132_2 C126_2 1_555 1_555
H69_2 C132_2 1_555 1_555
C133_2 C124_2 1_555 1_555
H70_2 C133_2 1_555 1_555
O39_2 C138_2 1_555 1_555
C134_2 C107_3 1_555 1_555
C135_2 C137_2 1_555 1_555
C136_2 C138_2 1_555 1_555
C137_2 C143_2 1_555 1_555
O48_2 C138_2 1_555 1_555
C140_2 C134_2 1_555 1_555
H71_2 C140_2 1_555 1_555
C141_2 C135_2 1_555 1_555
H72_2 C141_2 1_555 1_555
C142_2 C136_2 1_555 1_555
H73_2 C142_2 1_555 1_555
C143_2 C142_2 1_555 1_555
H74_2 C143_2 1_555 1_555
C144_2 C136_2 1_555 1_555
H75_2 C144_2 1_555 1_555
C145_2 C139_2 1_555 1_555
H76_2 C145_2 1_555 1_555
C146_2 C137_2 1_555 1_555
H77_2 C146_2 1_555 1_555
C122_2 C127_2 1_555 1_555
C128_2 C132_2 1_555 1_555
C131_2 C133_2 1_555 1_555
C134_2 C139_2 1_555 1_555
C135_2 C140_2 1_555 1_555
C141_2 C145_2 1_555 1_555
C144_2 C146_2 1_555 1_555
C1_3 C2_2 1_555 1_555
C2_2 C7_2 1_555 1_555
C3_2 C5_2 1_555 1_555
C4_2 C6_2 1_555 1_555
C5_2 C11_2 1_555 1_555
O44 C6_2 1_555 1_555
C6_2 O35 1_555 1_555
C7_2 C13_2 1_555 1_555
C8_2 C2_2 1_555 1_555
H1_2 C8_2 1_555 1_555
C9_2 C3_2 1_555 1_555
H2_2 C9_2 1_555 1_555
C10_2 C4_2 1_555 1_555
H3_2 C10_2 1_555 1_555
C11_2 C10_2 1_555 1_555
H4_2 C11_2 1_555 1_555
C12_2 C4_2 1_555 1_555
H5_2 C12_2 1_555 1_555
C13_2 C9_2 1_555 1_555
H6_2 C13_2 1_555 1_555
C14_2 C5_2 1_555 1_555
H7_2 C14_2 1_555 1_555
O38_2 C45_2 1_555 1_555
C41_2 C1_3 1_555 1_555
C42_2 C44_2 1_555 1_555
C43_2 C45_2 1_555 1_555
C44_2 C50_2 1_555 1_555
O47_2 C45_2 1_555 1_555
C47_2 C41_2 1_555 1_555
H22_2 C47_2 1_555 1_555
C48_2 C42_2 1_555 1_555
H23_2 C48_2 1_555 1_555
C49_2 C43_2 1_555 1_555
H24_2 C49_2 1_555 1_555
C50_2 C49_2 1_555 1_555
H25_2 C50_2 1_555 1_555
C51_2 C43_2 1_555 1_555
H26_2 C51_2 1_555 1_555
C52_2 C46_2 1_555 1_555
H27_2 C52_2 1_555 1_555
C53_2 C44_2 1_555 1_555
H28_2 C53_2 1_555 1_555
C54_2 C55_2 1_555 1_555
C55_2 C60_2 1_555 1_555
C56_2 C58_2 1_555 1_555
C57_2 C59_2 1_555 1_555
C58_2 C64_2 1_555 1_555
O45 C59_2 1_555 1_555
C59_2 O36 1_555 1_555
C60_2 C66_2 1_555 1_555
C61_2 C55_2 1_555 1_555
H29_2 C61_2 1_555 1_555
C62_2 C56_2 1_555 1_555
H30_2 C62_2 1_555 1_555
C63_2 C57_2 1_555 1_555
H31_2 C63_2 1_555 1_555
C64_2 C63_2 1_555 1_555
H32_2 C64_2 1_555 1_555
C65_2 C57_2 1_555 1_555
H33_2 C65_2 1_555 1_555
C66_2 C62_2 1_555 1_555
H34_2 C66_2 1_555 1_555
C67_2 C58_2 1_555 1_555
H35_2 C67_2 1_555 1_555
O39 C72_2 1_555 1_555
C68_2 C54_2 1_555 1_555
C69_2 C71_2 1_555 1_555
C70_2 C72_2 1_555 1_555
C71_2 C77_2 1_555 1_555
C72_2 O48 1_555 1_555
C73_2 C68_2 1_555 1_555
C74_2 C68_2 1_555 1_555
H36_2 C74_2 1_555 1_555
C75_2 C69_2 1_555 1_555
H37_2 C75_2 1_555 1_555
C76_2 C70_2 1_555 1_555
H38_2 C76_2 1_555 1_555
C77_2 C76_2 1_555 1_555
H39_2 C77_2 1_555 1_555
C78_2 C70_2 1_555 1_555
H40_2 C78_2 1_555 1_555
C79_2 C73_2 1_555 1_555
H41_2 C79_2 1_555 1_555
C80_2 C71_2 1_555 1_555
H42_2 C80_2 1_555 1_555
O40_2 C85_2 1_555 1_555
C81_2 C54_2 1_555 1_555
C82_2 C84_2 1_555 1_555
C83_2 C85_2 1_555 1_555
C84_2 C90_2 1_555 1_555
O49_2 C85_2 1_555 1_555
C86_2 C60_2 1_555 1_555
C87_2 C81_2 1_555 1_555
H43_2 C87_2 1_555 1_555
C88_2 C82_2 1_555 1_555
H44_2 C88_2 1_555 1_555
C89_2 C83_2 1_555 1_555
H45_2 C89_2 1_555 1_555
C90_2 C89_2 1_555 1_555
H46_2 C90_2 1_555 1_555
C91_2 C83_2 1_555 1_555
H47_2 C91_2 1_555 1_555
C92_2 C86_2 1_555 1_555
H48_2 C92_2 1_555 1_555
C93_2 C84_2 1_555 1_555
H49_2 C93_2 1_555 1_555
O37_2 C98_2 1_555 1_555
C94_2 C54_2 1_555 1_555
C95_2 C97_2 1_555 1_555
C96_2 C98_2 1_555 1_555
C97_2 C103_2 1_555 1_555
O46_2 C98_2 1_555 1_555
C99_2 C73_2 1_555 1_555
C100_2 C94_2 1_555 1_555
H50_2 C100_2 1_555 1_555
C101_2 C95_2 1_555 1_555
H51_2 C101_2 1_555 1_555
C102_2 C96_2 1_555 1_555
H52_2 C102_2 1_555 1_555
C103_2 C102_2 1_555 1_555
H53_2 C103_2 1_555 1_555
C104_2 C96_2 1_555 1_555
H54_2 C104_2 1_555 1_555
C105_2 C99_2 1_555 1_555
H55_2 C105_2 1_555 1_555
C106_2 C97_2 1_555 1_555
H56_2 C106_2 1_555 1_555
C107_4 C108_2 1_555 1_555
C108_2 C113_2 1_555 1_555
C109_2 C111_2 1_555 1_555
C110_2 C112_2 1_555 1_555
C111_2 C117_2 1_555 1_555
O46 C112_2 1_555 1_555
C112_2 O37 1_555 1_555
C113_2 C119_2 1_555 1_555
C114_2 C108_2 1_555 1_555
H57_2 C114_2 1_555 1_555
C115_2 C109_2 1_555 1_555
H58_2 C115_2 1_555 1_555
C116_2 C110_2 1_555 1_555
H59_2 C116_2 1_555 1_555
C117_2 C116_2 1_555 1_555
H60_2 C117_2 1_555 1_555
C118_2 C110_2 1_555 1_555
H61_2 C118_2 1_555 1_555
C119_2 C115_2 1_555 1_555
H62_2 C119_2 1_555 1_555
C120_2 C111_2 1_555 1_555
H63_2 C120_2 1_555 1_555
O36_2 C151_2 1_555 1_555
C147_2 C107_4 1_555 1_555
C148_2 C150_2 1_555 1_555
C149_2 C151_2 1_555 1_555
C150_2 C156_2 1_555 1_555
O45_2 C151_2 1_555 1_555
C153_2 C147_2 1_555 1_555
H78_2 C153_2 1_555 1_555
C154_2 C148_2 1_555 1_555
H79_2 C154_2 1_555 1_555
C155_2 C149_2 1_555 1_555
H80_2 C155_2 1_555 1_555
C156_2 C155_2 1_555 1_555
H81_2 C156_2 1_555 1_555
C157_2 C149_2 1_555 1_555
H82_2 C157_2 1_555 1_555
C158_2 C152_2 1_555 1_555
H83_2 C158_2 1_555 1_555
C159_2 C150_2 1_555 1_555
H84_2 C159_2 1_555 1_555
C3_2 C8_2 1_555 1_555
C12_2 C14_2 1_555 1_555
C41_2 C46_2 1_555 1_555
C42_2 C47_2 1_555 1_555
C48_2 C52_2 1_555 1_555
C51_2 C53_2 1_555 1_555
C56_2 C61_2 1_555 1_555
C65_2 C67_2 1_555 1_555
C69_2 C74_2 1_555 1_555
C75_2 C79_2 1_555 1_555
C78_2 C80_2 1_555 1_555
C81_2 C86_2 1_555 1_555
C82_2 C87_2 1_555 1_555
C88_2 C92_2 1_555 1_555
C91_2 C93_2 1_555 1_555
C94_2 C99_2 1_555 1_555
C95_2 C100_2 1_555 1_555
C101_2 C105_2 1_555 1_555
C104_2 C106_2 1_555 1_555
C109_2 C114_2 1_555 1_555
C118_2 C120_2 1_555 1_555
C147_2 C152_2 1_555 1_555
C148_2 C153_2 1_555 1_555
C154_2 C158_2 1_555 1_555
C157_2 C159_2 1_555 1_555
O38 C19_2 1_555 1_555
C15_2 C1_4 1_555 1_555
C16_2 C18_2 1_555 1_555
C17_2 C19_2 1_555 1_555
C18_2 C24_2 1_555 1_555
O47 C19_2 1_555 1_555
C20_2 C15_2 1_555 1_555
C21_2 C15_2 1_555 1_555
H8_2 C21_2 1_555 1_555
C22_2 C16_2 1_555 1_555
H9_2 C22_2 1_555 1_555
C23_2 C17_2 1_555 1_555
H10_2 C23_2 1_555 1_555
C24_2 C23_2 1_555 1_555
H11_2 C24_2 1_555 1_555
C25_2 C17_2 1_555 1_555
H12_2 C25_2 1_555 1_555
C26_2 C20_2 1_555 1_555
H13_2 C26_2 1_555 1_555
C27_2 C18_2 1_555 1_555
H14_2 C27_2 1_555 1_555
O35_2 C32_2 1_555 1_555
C28_2 C1_4 1_555 1_555
C29_2 C31_2 1_555 1_555
C30_2 C32_2 1_555 1_555
C31_2 C37_2 1_555 1_555
O44_2 C32_2 1_555 1_555
C34_2 C28_2 1_555 1_555
H15_2 C34_2 1_555 1_555
C35_2 C29_2 1_555 1_555
H16_2 C35_2 1_555 1_555
C36_2 C30_2 1_555 1_555
H17_2 C36_2 1_555 1_555
C37_2 C36_2 1_555 1_555
H18_2 C37_2 1_555 1_555
C38_2 C30_2 1_555 1_555
H19_2 C38_2 1_555 1_555
C39_2 C33_2 1_555 1_555
H20_2 C39_2 1_555 1_555
C40_2 C31_2 1_555 1_555
H21_2 C40_2 1_555 1_555
C16_2 C21_2 1_555 1_555
C22_2 C26_2 1_555 1_555
C25_2 C27_2 1_555 1_555
C28_2 C33_2 1_555 1_555
C29_2 C34_2 1_555 1_555
C35_2 C39_2 1_555 1_555
C38_2 C40_2 1_555 1_555

#END
