
###############################################################################
#
# This file contains modified crystal structure data generated from the
# MOF subset of the Cambridge Structural Database (CSD) v543 
# hosted by the Cambridge Crystallographic Data Centre (CCDC).
#
# This work is licensed under the Creative Commons
# Attribution-NonCommercial-ShareAlike 4.0 International License.
# To view a copy of this license, visit
# http://creativecommons.org/licenses/by-nc-sa/4.0/
# or send a letter to
# Creative Commons, PO Box 1866, Mountain View, CA 94042, USA.
#
# CIF created using the CSD Python API on 29 September 2022
# The structure has been converted into the P1 space group
# The structure has a 3D framework
# The original CSD entry QOTLOD01 is in the hexagonal crystal system
# The framework has been calculated to contain at least 10.0% void space
# The void calculation uses a probe of radius 1.32A, grid spacing 0.4
# The framework is charged, counterions have been retained in the structure
# H atom positions have been added when not included in the experimental data
# Generated hydrogen atom positions removed from atoms on special positions
#
###############################################################################

data_QOTLOD01
_chemical_formula_moiety         '(C322 H264 Fe18 O72 16+)n'
_symmetry_cell_setting           triclinic
_symmetry_space_group_name_H-M   'P 1'
_symmetry_Int_Tables_number      1
_space_group_name_Hall           'P 1'
loop_
_symmetry_equiv_pos_site_id
_symmetry_equiv_pos_as_xyz
1 x,y,z
_cell_length_a                   28.8433(9)
_cell_length_b                   28.843
_cell_length_c                   35.7152(15)
_cell_angle_alpha                90
_cell_angle_beta                 90
_cell_angle_gamma                120
_cell_volume                     25731.7
loop_
_atom_site_label
_atom_site_type_symbol
_atom_site_fract_x
_atom_site_fract_y
_atom_site_fract_z
C67 C 0.5000 0.0000 0.2500
O15 O 0.63332(18) 0.23544(13) 0.04006(10)
O16 O 0.57209(21) 0.25936(14) 0.03988(10)
C68 C 0.5924(4) 0.2339(2) 0.05357(17)
C69 C 0.5668(4) 0.1993(2) 0.08514(17)
C70 C 0.5237(4) 0.1960(3) 0.1022(2)
H36 H 0.5102 0.2180 0.0932
C71 C 0.4974(4) 0.1620(3) 0.1324(3)
H37 H 0.4672 0.1619 0.1430
C72 C 0.5136(4) 0.1299(2) 0.14681(18)
C73 C 0.5564(4) 0.1326(3) 0.1299(2)
H38 H 0.5678 0.1084 0.1377
C74 C 0.5836(5) 0.1676(4) 0.1027(2)
H39 H 0.6166 0.1709 0.0949
C75 C 0.4879(4) 0.0934(2) 0.17732(19)
C76 C 0.4366(3) 0.0823(2) 0.18749(17)
H40 H 0.4211 0.1005 0.1752
C77 C 0.4085(4) 0.0458(3) 0.21478(19)
H41 H 0.3728 0.0374 0.2198
C78 C 0.43065(34) 0.01995(17) 0.23588(12)
C79 C 0.48256(27) 0.03179(19) 0.22658(14)
C80 C 0.5107(3) 0.0678(2) 0.19846(17)
H42 H 0.5461 0.0757 0.1930
O17 O 0.60212(13) 0.23544(13) 0.45994(10)
O18 O 0.68727(15) 0.25936(14) 0.46012(10)
C81 C 0.6415(3) 0.2339(2) 0.44643(17)
C82 C 0.6325(3) 0.1993(2) 0.41486(17)
C83 C 0.6723(3) 0.1960(3) 0.3978(2)
H43 H 0.7078 0.2180 0.4068
C84 C 0.6646(3) 0.1620(3) 0.3676(3)
H44 H 0.6947 0.1619 0.3570
C85 C 0.6163(4) 0.1299(2) 0.35319(18)
C86 C 0.5762(3) 0.1326(3) 0.3701(2)
H45 H 0.5406 0.1084 0.3623
C87 C 0.5840(3) 0.1676(4) 0.3973(2)
H46 H 0.5543 0.1709 0.4051
C88 C 0.6055(3) 0.0934(2) 0.32268(19)
C89 C 0.6457(2) 0.0823(2) 0.31251(17)
H47 H 0.6794 0.1005 0.3248
C90 C 0.6373(2) 0.0458(3) 0.28522(19)
H48 H 0.6646 0.0374 0.2802
C91 C 0.5893(3) 0.01995(17) 0.26412(12)
C92 C 0.54923(19) 0.03179(19) 0.27342(14)
C93 C 0.5571(2) 0.0678(2) 0.30154(17)
H49 H 0.5296 0.0757 0.3070
Fe7 Fe 0.59307(3) 0.31460(4) 0.0000
Fe9 Fe 0.68540(4) 0.27847(3) 0.0000
Fe17 Fe 0.59307(3) 0.27847(3) 0.5000
Fe20 Fe 0.72153(3) 0.31460(4) 0.5000
Fe7_2 Fe 0.59307(3) 0.31460(4) 1.0000
Fe9_2 Fe 0.68540(4) 0.27847(3) 1.0000
C14 C 0.0000 0.5000 0.2500
O5 O 0.23544(13) 0.60212(13) 0.04006(10)
O6 O 0.25936(14) 0.68727(15) 0.03988(10)
C15 C 0.2339(2) 0.6415(3) 0.05357(17)
C16 C 0.1993(2) 0.6325(3) 0.08514(17)
C17 C 0.1960(3) 0.6723(3) 0.1022(2)
H8 H 0.2180 0.7078 0.0932
C18 C 0.1620(3) 0.6646(3) 0.1324(3)
H9 H 0.1619 0.6947 0.1430
C19 C 0.1299(2) 0.6163(4) 0.14681(18)
C20 C 0.1326(3) 0.5762(3) 0.1299(2)
H10 H 0.1084 0.5406 0.1377
C21 C 0.1676(4) 0.5840(3) 0.1027(2)
H11 H 0.1709 0.5543 0.0949
C22 C 0.0934(2) 0.6055(3) 0.17732(19)
C23 C 0.0823(2) 0.6457(2) 0.18749(17)
H12 H 0.1005 0.6794 0.1752
C24 C 0.0458(3) 0.6373(2) 0.21478(19)
H13 H 0.0374 0.6646 0.2198
C25 C 0.01995(17) 0.5893(3) 0.23588(12)
C26 C 0.03179(19) 0.54923(19) 0.22658(14)
C27 C 0.0678(2) 0.5571(2) 0.19846(17)
H14 H 0.0757 0.5296 0.1930
O7 O 0.23544(13) 0.63332(18) 0.45994(10)
O8 O 0.25936(14) 0.57209(21) 0.46012(10)
C28 C 0.2339(2) 0.5924(4) 0.44643(17)
C29 C 0.1993(2) 0.5668(4) 0.41486(17)
C30 C 0.1960(3) 0.5237(4) 0.3978(2)
H15 H 0.2180 0.5102 0.4068
C31 C 0.1620(3) 0.4974(4) 0.3676(3)
H16 H 0.1619 0.4672 0.3570
C32 C 0.1299(2) 0.5136(4) 0.35319(18)
C33 C 0.1326(3) 0.5564(4) 0.3701(2)
H17 H 0.1084 0.5678 0.3623
C34 C 0.1676(4) 0.5836(5) 0.3973(2)
H18 H 0.1709 0.6166 0.4051
C35 C 0.0934(2) 0.4879(4) 0.32268(19)
C36 C 0.0823(2) 0.4366(3) 0.31251(17)
H19 H 0.1005 0.4211 0.3248
C37 C 0.0458(3) 0.4085(4) 0.28522(19)
H20 H 0.0374 0.3728 0.2802
C38 C 0.01995(17) 0.43065(34) 0.26412(12)
C39 C 0.03179(19) 0.48256(27) 0.27342(14)
C40 C 0.0678(2) 0.5107(3) 0.30154(17)
H21 H 0.0757 0.5461 0.3070
Fe2 Fe 0.31460(4) 0.72153(3) 0.0000
O11 O 0.36668(18) 0.76456(13) 0.04006(10)
O12 O 0.42791(21) 0.74064(14) 0.03988(10)
O13 O 0.3334 0.6667 0.0000
O14 O 0.29499(20) 0.78122(14) 0.0000
C54 C 0.4076(4) 0.7661(2) 0.05357(17)
C55 C 0.4332(4) 0.8007(2) 0.08514(17)
C56 C 0.4763(4) 0.8040(3) 0.1022(2)
H29 H 0.4898 0.7820 0.0932
C57 C 0.5026(4) 0.8380(3) 0.1324(3)
H30 H 0.5328 0.8381 0.1430
C58 C 0.4864(4) 0.8701(2) 0.14681(18)
C59 C 0.4436(4) 0.8674(3) 0.1299(2)
H31 H 0.4322 0.8916 0.1377
C60 C 0.4164(5) 0.8324(4) 0.1027(2)
H32 H 0.3834 0.8291 0.0949
C61 C 0.5121(4) 0.9066(2) 0.17732(19)
C62 C 0.5634(3) 0.9177(2) 0.18749(17)
H33 H 0.5789 0.8995 0.1752
C63 C 0.5915(4) 0.9542(3) 0.21478(19)
H34 H 0.6272 0.9626 0.2198
C64 C 0.56935(34) 0.98005(17) 0.23588(12)
C65 C 0.51744(27) 0.96821(19) 0.22658(14)
C66 C 0.4893(3) 0.9322(2) 0.19846(17)
H35 H 0.4539 0.9243 0.1930
C67_2 C 0.5000 1.0000 0.2500
O19 O 0.39788(13) 0.76456(13) 0.45994(10)
O20 O 0.31273(15) 0.74064(14) 0.46012(10)
C94 C 0.3585(3) 0.7661(2) 0.44643(17)
C95 C 0.3675(3) 0.8007(2) 0.41486(17)
C96 C 0.3277(3) 0.8040(3) 0.3978(2)
H50 H 0.2922 0.7820 0.4068
C97 C 0.3354(3) 0.8380(3) 0.3676(3)
H51 H 0.3053 0.8381 0.3570
C98 C 0.3837(4) 0.8701(2) 0.35319(18)
C99 C 0.4238(3) 0.8674(3) 0.3701(2)
H52 H 0.4594 0.8916 0.3623
C100 C 0.4160(3) 0.8324(4) 0.3973(2)
H53 H 0.4457 0.8291 0.4051
C101 C 0.3945(3) 0.9066(2) 0.32268(19)
C102 C 0.3543(2) 0.9177(2) 0.31251(17)
H54 H 0.3206 0.8995 0.3248
C103 C 0.3627(2) 0.9542(3) 0.28522(19)
H55 H 0.3354 0.9626 0.2802
C104 C 0.4107(3) 0.98005(17) 0.26412(12)
C105 C 0.45077(19) 0.96821(19) 0.27342(14)
C106 C 0.4429(2) 0.9322(2) 0.30154(17)
H56 H 0.4704 0.9243 0.3070
Fe4 Fe 0.27847(3) 0.59307(3) 0.0000
O30 O 0.21878(14) 0.51377(14) 0.0000
Fe10 Fe 0.40693(3) 0.68540(4) 0.0000
Fe12 Fe 0.31460(4) 0.59307(3) 0.5000
Fe13 Fe 0.27847(3) 0.68540(4) 0.5000
Fe15 Fe 0.40693(3) 0.72153(3) 0.5000
O42 O 0.31273(15) 0.57209(21) 0.03988(10)
Fe2_2 Fe 0.31460(4) 0.72153(3) 1.0000
O13_2 O 0.3334 0.6667 1.0000
O14_2 O 0.29499(20) 0.78122(14) 1.0000
Fe4_2 Fe 0.27847(3) 0.59307(3) 1.0000
O30_2 O 0.21878(14) 0.51377(14) 1.0000
Fe10_2 Fe 0.40693(3) 0.68540(4) 1.0000
O34 O 0.23544(13) 0.60212(13) 0.95994(10)
O38 O 0.36668(18) 0.76456(13) 0.95994(10)
O43 O 0.25936(14) 0.68727(15) 0.96012(10)
O45 O 0.31273(15) 0.57209(21) 0.96012(10)
Fe1 Fe 0.72153(3) 0.40693(3) 0.0000
O1 O 0.76456(13) 0.39788(13) 0.04006(10)
O2 O 0.74064(14) 0.31273(15) 0.03988(10)
O3 O 0.6667 0.3333 0.0000
O4 O 0.78122(14) 0.48623(14) 0.0000
C1 C 0.7661(2) 0.3585(3) 0.05357(17)
C2 C 0.8007(2) 0.3675(3) 0.08514(17)
C3 C 0.8040(3) 0.3277(3) 0.1022(2)
H1 H 0.7820 0.2922 0.0932
C4 C 0.8380(3) 0.3354(3) 0.1324(3)
H2 H 0.8381 0.3053 0.1430
C5 C 0.8701(2) 0.3837(4) 0.14681(18)
C6 C 0.8674(3) 0.4238(3) 0.1299(2)
H3 H 0.8916 0.4594 0.1377
C7 C 0.8324(4) 0.4160(3) 0.1027(2)
H4 H 0.8291 0.4457 0.0949
C8 C 0.9066(2) 0.3945(3) 0.17732(19)
C9 C 0.9177(2) 0.3543(2) 0.18749(17)
H5 H 0.8995 0.3206 0.1752
C10 C 0.9542(3) 0.3627(2) 0.21478(19)
H6 H 0.9626 0.3354 0.2198
C11 C 0.98005(17) 0.4107(3) 0.23588(12)
C12 C 0.96821(19) 0.45077(19) 0.22658(14)
C13 C 0.9322(2) 0.4429(2) 0.19846(17)
H7 H 0.9243 0.4704 0.1930
C14_2 C 1.0000 0.5000 0.2500
O9 O 0.76456(13) 0.36668(18) 0.45994(10)
O10 O 0.74064(14) 0.42791(21) 0.46012(10)
C41 C 0.7661(2) 0.4076(4) 0.44643(17)
C42 C 0.8007(2) 0.4332(4) 0.41486(17)
C43 C 0.8040(3) 0.4763(4) 0.3978(2)
H22 H 0.7820 0.4898 0.4068
C44 C 0.8380(3) 0.5026(4) 0.3676(3)
H23 H 0.8381 0.5328 0.3570
C45 C 0.8701(2) 0.4864(4) 0.35319(18)
C46 C 0.8674(3) 0.4436(4) 0.3701(2)
H24 H 0.8916 0.4322 0.3623
C47 C 0.8324(4) 0.4164(5) 0.3973(2)
H25 H 0.8291 0.3834 0.4051
C48 C 0.9066(2) 0.5121(4) 0.32268(19)
C49 C 0.9177(2) 0.5634(3) 0.31251(17)
H26 H 0.8995 0.5789 0.3248
C50 C 0.9542(3) 0.5915(4) 0.28522(19)
H27 H 0.9626 0.6272 0.2802
C51 C 0.98005(17) 0.56935(34) 0.26412(12)
C52 C 0.96821(19) 0.51744(27) 0.27342(14)
C53 C 0.9322(2) 0.4893(3) 0.30154(17)
H28 H 0.9243 0.4539 0.3070
O21 O 0.60212(13) 0.36668(18) 0.04006(10)
O22 O 0.68727(15) 0.42791(21) 0.03988(10)
O23 O 0.51377(14) 0.29499(20) 0.0000
C107 C 0.6415(3) 0.4076(4) 0.05357(17)
C108 C 0.6325(3) 0.4332(4) 0.08514(17)
C109 C 0.6723(3) 0.4763(4) 0.1022(2)
H57 H 0.7078 0.4898 0.0932
C110 C 0.6646(3) 0.5026(4) 0.1324(3)
H58 H 0.6947 0.5328 0.1430
C111 C 0.6163(4) 0.4864(4) 0.14681(18)
C112 C 0.5762(3) 0.4436(4) 0.1299(2)
H59 H 0.5406 0.4322 0.1377
C113 C 0.5840(3) 0.4164(5) 0.1027(2)
H60 H 0.5543 0.3834 0.0949
C114 C 0.6055(3) 0.5121(4) 0.17732(19)
C115 C 0.6457(2) 0.5634(3) 0.18749(17)
H61 H 0.6794 0.5789 0.1752
C116 C 0.6373(2) 0.5915(4) 0.21478(19)
H62 H 0.6646 0.6272 0.2198
C117 C 0.5893(3) 0.56935(34) 0.23588(12)
C118 C 0.54923(19) 0.51744(27) 0.22658(14)
C119 C 0.5571(2) 0.4893(3) 0.19846(17)
H63 H 0.5296 0.4539 0.1930
C120 C 0.5000 0.5000 0.2500
O24 O 0.39788(13) 0.63332(18) 0.04006(10)
C121 C 0.3585(3) 0.5924(4) 0.05357(17)
C122 C 0.3675(3) 0.5668(4) 0.08514(17)
C123 C 0.3277(3) 0.5237(4) 0.1022(2)
H64 H 0.2922 0.5102 0.0932
C124 C 0.3354(3) 0.4974(4) 0.1324(3)
H65 H 0.3053 0.4672 0.1430
C125 C 0.3837(4) 0.5136(4) 0.14681(18)
C126 C 0.4238(3) 0.5564(4) 0.1299(2)
H66 H 0.4594 0.5678 0.1377
C127 C 0.4160(3) 0.5836(5) 0.1027(2)
H67 H 0.4457 0.6166 0.0949
C128 C 0.3945(3) 0.4879(4) 0.17732(19)
C129 C 0.3543(2) 0.4366(3) 0.18749(17)
H68 H 0.3206 0.4211 0.1752
C130 C 0.3627(2) 0.4085(4) 0.21478(19)
H69 H 0.3354 0.3728 0.2198
C131 C 0.4107(3) 0.43065(34) 0.23588(12)
C132 C 0.45077(19) 0.48256(27) 0.22658(14)
C133 C 0.4429(2) 0.5107(3) 0.19846(17)
H70 H 0.4704 0.5461 0.1930
O26 O 0.36668(18) 0.60212(13) 0.45994(10)
O27 O 0.42791(21) 0.68727(15) 0.46012(10)
C134 C 0.4076(4) 0.6415(3) 0.44643(17)
C135 C 0.4332(4) 0.6325(3) 0.41486(17)
C136 C 0.4763(4) 0.6723(3) 0.3978(2)
H71 H 0.4898 0.7078 0.4068
C137 C 0.5026(4) 0.6646(3) 0.3676(3)
H72 H 0.5328 0.6947 0.3570
C138 C 0.4864(4) 0.6163(4) 0.35319(18)
C139 C 0.4436(4) 0.5762(3) 0.3701(2)
H73 H 0.4322 0.5406 0.3623
C140 C 0.4164(5) 0.5840(3) 0.3973(2)
H74 H 0.3834 0.5543 0.4051
C141 C 0.5121(4) 0.6055(3) 0.32268(19)
C142 C 0.5634(3) 0.6457(2) 0.31251(17)
H75 H 0.5789 0.6794 0.3248
C143 C 0.5915(4) 0.6373(2) 0.28522(19)
H76 H 0.6272 0.6646 0.2802
C144 C 0.56935(34) 0.5893(3) 0.26412(12)
C145 C 0.51744(27) 0.54923(19) 0.27342(14)
C146 C 0.4893(3) 0.5571(2) 0.30154(17)
H77 H 0.4539 0.5296 0.3070
O28 O 0.63332(18) 0.39788(13) 0.45994(10)
O29 O 0.57209(21) 0.31273(15) 0.46012(10)
C147 C 0.5924(4) 0.3585(3) 0.44643(17)
C148 C 0.5668(4) 0.3675(3) 0.41486(17)
C149 C 0.5237(4) 0.3277(3) 0.3978(2)
H78 H 0.5102 0.2922 0.4068
C150 C 0.4974(4) 0.3354(3) 0.3676(3)
H79 H 0.4672 0.3053 0.3570
C151 C 0.5136(4) 0.3837(4) 0.35319(18)
C152 C 0.5564(4) 0.4238(3) 0.3701(2)
H80 H 0.5678 0.4594 0.3623
C153 C 0.5836(5) 0.4160(3) 0.3973(2)
H81 H 0.6166 0.4457 0.4051
C154 C 0.4879(4) 0.3945(3) 0.32268(19)
C155 C 0.4366(3) 0.3543(2) 0.31251(17)
H82 H 0.4211 0.3206 0.3248
C156 C 0.4085(4) 0.3627(2) 0.28522(19)
H83 H 0.3728 0.3354 0.2802
C157 C 0.43065(34) 0.4107(3) 0.26412(12)
C158 C 0.48256(27) 0.45077(19) 0.27342(14)
C159 C 0.5107(3) 0.4429(2) 0.30154(17)
H84 H 0.5461 0.4704 0.3070
O31 O 0.70501(20) 0.21878(14) 0.0000
O32 O 0.48623(14) 0.70501(20) 0.0000
Fe18 Fe 0.68540(4) 0.40693(3) 0.5000
Fe1_2 Fe 0.72153(3) 0.40693(3) 1.0000
O3_2 O 0.6667 0.3333 1.0000
O4_2 O 0.78122(14) 0.48623(14) 1.0000
O23_2 O 0.51377(14) 0.29499(20) 1.0000
O31_2 O 0.70501(20) 0.21878(14) 1.0000
O32_2 O 0.48623(14) 0.70501(20) 1.0000
O35 O 0.63332(18) 0.23544(13) 0.95994(10)
O36 O 0.39788(13) 0.63332(18) 0.95994(10)
O37 O 0.76456(13) 0.39788(13) 0.95994(10)
O39 O 0.60212(13) 0.36668(18) 0.95994(10)
O44 O 0.57209(21) 0.25936(14) 0.96012(10)
O46 O 0.74064(14) 0.31273(15) 0.96012(10)
O47 O 0.42791(21) 0.74064(14) 0.96012(10)
O48 O 0.68727(15) 0.42791(21) 0.96012(10)
O3_3 O 0.3334 0.6667 0.5000
O4_3 O 0.29499(20) 0.51377(14) 0.5000
O13_3 O 0.6667 0.3333 0.5000
O14_3 O 0.51377(24) 0.21878(14) 0.5000
O23_3 O 0.21878(24) 0.70501(20) 0.5000
O30_3 O 0.70501(20) 0.48623(14) 0.5000
O31_3 O 0.48623(24) 0.78122(14) 0.5000
O34_2 O 0.63332(18) 0.39788(13) 0.54006(10)
O35_2 O 0.39788(22) 0.76456(13) 0.54006(10)
O37_2 O 0.36668(18) 0.60212(13) 0.54006(10)
O38_2 O 0.60212(22) 0.23544(13) 0.54006(10)
O39_2 O 0.23544(22) 0.63332(18) 0.54006(10)
O43_2 O 0.57209(21) 0.31273(15) 0.53988(10)
O44_2 O 0.31273(25) 0.74064(14) 0.53988(10)
O45_2 O 0.74064(26) 0.42791(21) 0.53988(10)
O46_2 O 0.42791(21) 0.68727(15) 0.53988(10)
O48_2 O 0.25936(26) 0.57209(21) 0.53988(10)
O32_3 O 0.78122(24) 0.29499(20) 0.5000
O36_2 O 0.76456(22) 0.36668(18) 0.54006(10)
O47_2 O 0.68727(25) 0.25936(14) 0.53988(10)
C1_2 C 0.2339(2) 0.6415(3) 0.94643(17)
C2_2 C 0.1993(2) 0.6325(3) 0.91486(17)
C3_2 C 0.1960(3) 0.6723(3) 0.8978(2)
H1_2 H 0.2180 0.7078 0.9068
C4_2 C 0.1620(3) 0.6646(3) 0.8676(3)
H2_2 H 0.1619 0.6947 0.8570
C5_2 C 0.1299(2) 0.6163(4) 0.85319(18)
C6_2 C 0.1326(3) 0.5762(3) 0.8701(2)
H3_2 H 0.1084 0.5406 0.8623
C7_2 C 0.1676(4) 0.5840(3) 0.8973(2)
H4_2 H 0.1709 0.5543 0.9051
C8_2 C 0.0934(2) 0.6055(3) 0.82268(19)
C9_2 C 0.0823(2) 0.6457(2) 0.81251(17)
H5_2 H 0.1005 0.6794 0.8248
C10_2 C 0.0458(3) 0.6373(2) 0.78522(19)
H6_2 H 0.0374 0.6646 0.7802
C11_2 C 0.01995(17) 0.5893(3) 0.76412(12)
C12_2 C 0.03179(19) 0.54923(19) 0.77342(14)
C13_2 C 0.0678(2) 0.5571(2) 0.80154(17)
H7_2 H 0.0757 0.5296 0.8070
C14_3 C 0.0000 0.5000 0.7500
C41_2 C 0.2339(2) 0.5924(4) 0.55357(17)
C42_2 C 0.1993(2) 0.5668(4) 0.58514(17)
C43_2 C 0.1960(3) 0.5237(4) 0.6022(2)
H22_2 H 0.2180 0.5102 0.5932
C44_2 C 0.1620(3) 0.4974(4) 0.6324(3)
H23_2 H 0.1619 0.4672 0.6430
C45_2 C 0.1299(2) 0.5136(4) 0.64681(18)
C46_2 C 0.1326(3) 0.5564(4) 0.6299(2)
H24_2 H 0.1084 0.5678 0.6377
C47_2 C 0.1676(4) 0.5836(5) 0.6027(2)
H25_2 H 0.1709 0.6166 0.5949
C48_2 C 0.0934(2) 0.4879(4) 0.67732(19)
C49_2 C 0.0823(2) 0.4366(3) 0.68749(17)
H26_2 H 0.1005 0.4211 0.6752
C50_2 C 0.0458(3) 0.4085(4) 0.71478(19)
H27_2 H 0.0374 0.3728 0.7198
C51_2 C 0.01995(17) 0.43065(34) 0.73588(12)
C52_2 C 0.03179(19) 0.48256(27) 0.72658(14)
C53_2 C 0.0678(2) 0.5107(3) 0.69846(17)
H28_2 H 0.0757 0.5461 0.6930
C107_2 C 0.3585(3) 0.5924(4) 0.94643(17)
C108_2 C 0.3675(3) 0.5668(4) 0.91486(17)
C109_2 C 0.3277(3) 0.5237(4) 0.8978(2)
H57_2 H 0.2922 0.5102 0.9068
C110_2 C 0.3354(3) 0.4974(4) 0.8676(3)
H58_2 H 0.3053 0.4672 0.8570
C111_2 C 0.3837(4) 0.5136(4) 0.85319(18)
C112_2 C 0.4238(3) 0.5564(4) 0.8701(2)
H59_2 H 0.4594 0.5678 0.8623
C113_2 C 0.4160(3) 0.5836(5) 0.8973(2)
H60_2 H 0.4457 0.6166 0.9051
C114_2 C 0.3945(3) 0.4879(4) 0.82268(19)
C115_2 C 0.3543(2) 0.4366(3) 0.81251(17)
H61_2 H 0.3206 0.4211 0.8248
C116_2 C 0.3627(2) 0.4085(4) 0.78522(19)
H62_2 H 0.3354 0.3728 0.7802
C117_2 C 0.4107(3) 0.43065(34) 0.76412(12)
C118_2 C 0.45077(19) 0.48256(27) 0.77342(14)
C119_2 C 0.4429(2) 0.5107(3) 0.80154(17)
H63_2 H 0.4704 0.5461 0.8070
C120_2 C 0.5000 0.5000 0.7500
C121_2 C 0.6415(3) 0.4076(4) 0.94643(17)
C122_2 C 0.6325(3) 0.4332(4) 0.91486(17)
C123_2 C 0.6723(3) 0.4763(4) 0.8978(2)
H64_2 H 0.7078 0.4898 0.9068
C124_2 C 0.6646(3) 0.5026(4) 0.8676(3)
H65_2 H 0.6947 0.5328 0.8570
C125_2 C 0.6163(4) 0.4864(4) 0.85319(18)
C126_2 C 0.5762(3) 0.4436(4) 0.8701(2)
H66_2 H 0.5406 0.4322 0.8623
C127_2 C 0.5840(3) 0.4164(5) 0.8973(2)
H67_2 H 0.5543 0.3834 0.9051
C128_2 C 0.6055(3) 0.5121(4) 0.82268(19)
C129_2 C 0.6457(2) 0.5634(3) 0.81251(17)
H68_2 H 0.6794 0.5789 0.8248
C130_2 C 0.6373(2) 0.5915(4) 0.78522(19)
H69_2 H 0.6646 0.6272 0.7802
C131_2 C 0.5893(3) 0.56935(34) 0.76412(12)
C132_2 C 0.54923(19) 0.51744(27) 0.77342(14)
C133_2 C 0.5571(2) 0.4893(3) 0.80154(17)
H70_2 H 0.5296 0.4539 0.8070
C134_2 C 0.5924(4) 0.3585(3) 0.55357(17)
C135_2 C 0.5668(4) 0.3675(3) 0.58514(17)
C136_2 C 0.5237(4) 0.3277(3) 0.6022(2)
H71_2 H 0.5102 0.2922 0.5932
C137_2 C 0.4974(4) 0.3354(3) 0.6324(3)
H72_2 H 0.4672 0.3053 0.6430
C138_2 C 0.5136(4) 0.3837(4) 0.64681(18)
C139_2 C 0.5564(4) 0.4238(3) 0.6299(2)
H73_2 H 0.5678 0.4594 0.6377
C140_2 C 0.5836(5) 0.4160(3) 0.6027(2)
H74_2 H 0.6166 0.4457 0.5949
C141_2 C 0.4879(4) 0.3945(3) 0.67732(19)
C142_2 C 0.4366(3) 0.3543(2) 0.68749(17)
H75_2 H 0.4211 0.3206 0.6752
C143_2 C 0.4085(4) 0.3627(2) 0.71478(19)
H76_2 H 0.3728 0.3354 0.7198
C144_2 C 0.43065(34) 0.4107(3) 0.73588(12)
C145_2 C 0.48256(27) 0.45077(19) 0.72658(14)
C146_2 C 0.5107(3) 0.4429(2) 0.69846(17)
H77_2 H 0.5461 0.4704 0.6930
C147_2 C 0.4076(4) 0.6415(3) 0.55357(17)
C148_2 C 0.4332(4) 0.6325(3) 0.58514(17)
C149_2 C 0.4763(4) 0.6723(3) 0.6022(2)
H78_2 H 0.4898 0.7078 0.5932
C150_2 C 0.5026(4) 0.6646(3) 0.6324(3)
H79_2 H 0.5328 0.6947 0.6430
C151_2 C 0.4864(4) 0.6163(4) 0.64681(18)
C152_2 C 0.4436(4) 0.5762(3) 0.6299(2)
H80_2 H 0.4322 0.5406 0.6377
C153_2 C 0.4164(5) 0.5840(3) 0.6027(2)
H81_2 H 0.3834 0.5543 0.5949
C154_2 C 0.5121(4) 0.6055(3) 0.67732(19)
C155_2 C 0.5634(3) 0.6457(2) 0.68749(17)
H82_2 H 0.5789 0.6794 0.6752
C156_2 C 0.5915(4) 0.6373(2) 0.71478(19)
H83_2 H 0.6272 0.6646 0.7198
C157_2 C 0.56935(34) 0.5893(3) 0.73588(12)
C158_2 C 0.51744(27) 0.54923(19) 0.72658(14)
C159_2 C 0.4893(3) 0.5571(2) 0.69846(17)
H84_2 H 0.4539 0.5296 0.6930
C14_4 C 1.0000 0.5000 0.7500
C15_2 C 0.7661(2) 0.3585(3) 0.94643(17)
C16_2 C 0.8007(2) 0.3675(3) 0.91486(17)
C17_2 C 0.8040(3) 0.3277(3) 0.8978(2)
H8_2 H 0.7820 0.2922 0.9068
C18_2 C 0.8380(3) 0.3354(3) 0.8676(3)
H9_2 H 0.8381 0.3053 0.8570
C19_2 C 0.8701(2) 0.3837(4) 0.85319(18)
C20_2 C 0.8674(3) 0.4238(3) 0.8701(2)
H10_2 H 0.8916 0.4594 0.8623
C21_2 C 0.8324(4) 0.4160(3) 0.8973(2)
H11_2 H 0.8291 0.4457 0.9051
C22_2 C 0.9066(2) 0.3945(3) 0.82268(19)
C23_2 C 0.9177(2) 0.3543(2) 0.81251(17)
H12_2 H 0.8995 0.3206 0.8248
C24_2 C 0.9542(3) 0.3627(2) 0.78522(19)
H13_2 H 0.9626 0.3354 0.7802
C25_2 C 0.98005(17) 0.4107(3) 0.76412(12)
C26_2 C 0.96821(19) 0.45077(19) 0.77342(14)
C27_2 C 0.9322(2) 0.4429(2) 0.80154(17)
H14_2 H 0.9243 0.4704 0.8070
C28_2 C 0.7661(2) 0.4076(4) 0.55357(17)
C29_2 C 0.8007(2) 0.4332(4) 0.58514(17)
C30_2 C 0.8040(3) 0.4763(4) 0.6022(2)
H15_2 H 0.7820 0.4898 0.5932
C31_2 C 0.8380(3) 0.5026(4) 0.6324(3)
H16_2 H 0.8381 0.5328 0.6430
C32_2 C 0.8701(2) 0.4864(4) 0.64681(18)
C33_2 C 0.8674(3) 0.4436(4) 0.6299(2)
H17_2 H 0.8916 0.4322 0.6377
C34_2 C 0.8324(4) 0.4164(5) 0.6027(2)
H18_2 H 0.8291 0.3834 0.5949
C35_2 C 0.9066(2) 0.5121(4) 0.67732(19)
C36_2 C 0.9177(2) 0.5634(3) 0.68749(17)
H19_2 H 0.8995 0.5789 0.6752
C37_2 C 0.9542(3) 0.5915(4) 0.71478(19)
H20_2 H 0.9626 0.6272 0.7198
C38_2 C 0.98005(17) 0.56935(34) 0.73588(12)
C39_2 C 0.96821(19) 0.51744(27) 0.72658(14)
C40_2 C 0.9322(2) 0.4893(3) 0.69846(17)
H21_2 H 0.9243 0.4539 0.6930
C54_2 C 0.5924(4) 0.2339(2) 0.94643(17)
C55_2 C 0.5668(4) 0.1993(2) 0.91486(17)
C56_2 C 0.5237(4) 0.1960(3) 0.8978(2)
H29_2 H 0.5102 0.2180 0.9068
C57_2 C 0.4974(4) 0.1620(3) 0.8676(3)
H30_2 H 0.4672 0.1619 0.8570
C58_2 C 0.5136(4) 0.1299(2) 0.85319(18)
C59_2 C 0.5564(4) 0.1326(3) 0.8701(2)
H31_2 H 0.5678 0.1084 0.8623
C60_2 C 0.5836(5) 0.1676(4) 0.8973(2)
H32_2 H 0.6166 0.1709 0.9051
C61_2 C 0.4879(4) 0.0934(2) 0.82268(19)
C62_2 C 0.4366(3) 0.0823(2) 0.81251(17)
H33_2 H 0.4211 0.1005 0.8248
C63_2 C 0.4085(4) 0.0458(3) 0.78522(19)
H34_2 H 0.3728 0.0374 0.7802
C64_2 C 0.43065(34) 0.01995(17) 0.76412(12)
C65_2 C 0.48256(27) 0.03179(19) 0.77342(14)
C66_2 C 0.5107(3) 0.0678(2) 0.80154(17)
H35_2 H 0.5461 0.0757 0.8070
C67_3 C 0.5000 -0.0000 0.7500
C94_2 C 0.6415(3) 0.2339(2) 0.55357(17)
C95_2 C 0.6325(3) 0.1993(2) 0.58514(17)
C96_2 C 0.6723(3) 0.1960(3) 0.6022(2)
H50_2 H 0.7078 0.2180 0.5932
C97_2 C 0.6646(3) 0.1620(3) 0.6324(3)
H51_2 H 0.6947 0.1619 0.6430
C98_2 C 0.6163(4) 0.1299(2) 0.64681(18)
C99_2 C 0.5762(3) 0.1326(3) 0.6299(2)
H52_2 H 0.5406 0.1084 0.6377
C100_2 C 0.5840(3) 0.1676(4) 0.6027(2)
H53_2 H 0.5543 0.1709 0.5949
C101_2 C 0.6055(3) 0.0934(2) 0.67732(19)
C102_2 C 0.6457(2) 0.0823(2) 0.68749(17)
H54_2 H 0.6794 0.1005 0.6752
C103_2 C 0.6373(2) 0.0458(3) 0.71478(19)
H55_2 H 0.6646 0.0374 0.7198
C104_2 C 0.5893(3) 0.01995(17) 0.73588(12)
C105_2 C 0.54923(19) 0.03179(19) 0.72658(14)
C106_2 C 0.5571(2) 0.0678(2) 0.69846(17)
H56_2 H 0.5296 0.0757 0.6930
C67_4 C 0.5000 1.0000 0.7500
C68_2 C 0.4076(4) 0.7661(2) 0.94643(17)
C69_2 C 0.4332(4) 0.8007(2) 0.91486(17)
C70_2 C 0.4763(4) 0.8040(3) 0.8978(2)
H36_2 H 0.4898 0.7820 0.9068
C71_2 C 0.5026(4) 0.8380(3) 0.8676(3)
H37_2 H 0.5328 0.8381 0.8570
C72_2 C 0.4864(4) 0.8701(2) 0.85319(18)
C73_2 C 0.4436(4) 0.8674(3) 0.8701(2)
H38_2 H 0.4322 0.8916 0.8623
C74_2 C 0.4164(5) 0.8324(4) 0.8973(2)
H39_2 H 0.3834 0.8291 0.9051
C75_2 C 0.5121(4) 0.9066(2) 0.82268(19)
C76_2 C 0.5634(3) 0.9177(2) 0.81251(17)
H40_2 H 0.5789 0.8995 0.8248
C77_2 C 0.5915(4) 0.9542(3) 0.78522(19)
H41_2 H 0.6272 0.9626 0.7802
C78_2 C 0.56935(34) 0.98005(17) 0.76412(12)
C79_2 C 0.51744(27) 0.96821(19) 0.77342(14)
C80_2 C 0.4893(3) 0.9322(2) 0.80154(17)
H42_2 H 0.4539 0.9243 0.8070
C81_2 C 0.3585(3) 0.7661(2) 0.55357(17)
C82_2 C 0.3675(3) 0.8007(2) 0.58514(17)
C83_2 C 0.3277(3) 0.8040(3) 0.6022(2)
H43_2 H 0.2922 0.7820 0.5932
C84_2 C 0.3354(3) 0.8380(3) 0.6324(3)
H44_2 H 0.3053 0.8381 0.6430
C85_2 C 0.3837(4) 0.8701(2) 0.64681(18)
C86_2 C 0.4238(3) 0.8674(3) 0.6299(2)
H45_2 H 0.4594 0.8916 0.6377
C87_2 C 0.4160(3) 0.8324(4) 0.6027(2)
H46_2 H 0.4457 0.8291 0.5949
C88_2 C 0.3945(3) 0.9066(2) 0.67732(19)
C89_2 C 0.3543(2) 0.9177(2) 0.68749(17)
H47_2 H 0.3206 0.8995 0.6752
C90_2 C 0.3627(2) 0.9542(3) 0.71478(19)
H48_2 H 0.3354 0.9626 0.7198
C91_2 C 0.4107(3) 0.98005(17) 0.73588(12)
C92_2 C 0.45077(19) 0.96821(19) 0.72658(14)
C93_2 C 0.4429(2) 0.9322(2) 0.69846(17)
H49_2 H 0.4704 0.9243 0.6930
loop_
_geom_bond_atom_site_label_1
_geom_bond_atom_site_label_2
_geom_bond_site_symmetry_1
_geom_bond_site_symmetry_2
O15 C68 1_555 1_555
O16 C68 1_555 1_555
C68 C69 1_555 1_555
C69 C70 1_555 1_555
C70 H36 1_555 1_555
C71 C70 1_555 1_555
H37 C71 1_555 1_555
C72 C71 1_555 1_555
C73 C72 1_555 1_555
H38 C73 1_555 1_555
C74 C69 1_555 1_555
H39 C74 1_555 1_555
C75 C72 1_555 1_555
C76 C75 1_555 1_555
H40 C76 1_555 1_555
C77 C76 1_555 1_555
H41 C77 1_555 1_555
C78 C77 1_555 1_555
C79 C67 1_555 1_555
C80 C75 1_555 1_555
H42 C80 1_555 1_555
O17 C81 1_555 1_555
O18 C81 1_555 1_555
C81 C82 1_555 1_555
C82 C83 1_555 1_555
C83 H43 1_555 1_555
C84 C83 1_555 1_555
H44 C84 1_555 1_555
C85 C84 1_555 1_555
C86 C85 1_555 1_555
H45 C86 1_555 1_555
C87 C82 1_555 1_555
H46 C87 1_555 1_555
C88 C85 1_555 1_555
C89 C88 1_555 1_555
H47 C89 1_555 1_555
C90 C89 1_555 1_555
H48 C90 1_555 1_555
C92 C67 1_555 1_555
C93 C88 1_555 1_555
H49 C93 1_555 1_555
Fe7 O16 1_555 1_555
Fe9 O15 1_555 1_555
Fe17 O17 1_555 1_555
Fe20 O18 1_555 1_555
C73 C74 1_555 1_555
C78 C79 1_555 1_555
C79 C80 1_555 1_555
C86 C87 1_555 1_555
C90 C91 1_555 1_555
C91 C92 1_555 1_555
C92 C93 1_555 1_555
O5 C15 1_555 1_555
O6 C15 1_555 1_555
C15 C16 1_555 1_555
C16 C17 1_555 1_555
C17 H8 1_555 1_555
C18 C17 1_555 1_555
H9 C18 1_555 1_555
C19 C18 1_555 1_555
C20 C19 1_555 1_555
H10 C20 1_555 1_555
C21 C16 1_555 1_555
H11 C21 1_555 1_555
C22 C19 1_555 1_555
C23 C22 1_555 1_555
H12 C23 1_555 1_555
C24 C23 1_555 1_555
H13 C24 1_555 1_555
C25 C24 1_555 1_555
C26 C14 1_555 1_555
C27 C22 1_555 1_555
H14 C27 1_555 1_555
O7 C28 1_555 1_555
O8 C28 1_555 1_555
C28 C29 1_555 1_555
C29 C30 1_555 1_555
C30 H15 1_555 1_555
C31 C30 1_555 1_555
H16 C31 1_555 1_555
C32 C31 1_555 1_555
C33 C32 1_555 1_555
H17 C33 1_555 1_555
C34 C29 1_555 1_555
H18 C34 1_555 1_555
C35 C32 1_555 1_555
C36 C35 1_555 1_555
H19 C36 1_555 1_555
C37 C36 1_555 1_555
H20 C37 1_555 1_555
C39 C14 1_555 1_555
C40 C35 1_555 1_555
H21 C40 1_555 1_555
Fe2 O6 1_555 1_555
O11 Fe2 1_555 1_555
O12 C54 1_555 1_555
O13 Fe2 1_555 1_555
O14 Fe2 1_555 1_555
C54 O11 1_555 1_555
C55 C54 1_555 1_555
C56 C55 1_555 1_555
H29 C56 1_555 1_555
C57 C56 1_555 1_555
H30 C57 1_555 1_555
C58 C57 1_555 1_555
C59 C58 1_555 1_555
H31 C59 1_555 1_555
C60 C55 1_555 1_555
H32 C60 1_555 1_555
C61 C58 1_555 1_555
C62 C61 1_555 1_555
H33 C62 1_555 1_555
C63 C62 1_555 1_555
H34 C63 1_555 1_555
C64 C63 1_555 1_555
C65 C64 1_555 1_555
C66 C61 1_555 1_555
H35 C66 1_555 1_555
C67_2 C65 1_555 1_555
O19 C94 1_555 1_555
O20 C94 1_555 1_555
C94 C95 1_555 1_555
C95 C96 1_555 1_555
C96 H50 1_555 1_555
C97 C96 1_555 1_555
H51 C97 1_555 1_555
C98 C97 1_555 1_555
C99 C98 1_555 1_555
H52 C99 1_555 1_555
C100 C95 1_555 1_555
H53 C100 1_555 1_555
C101 C98 1_555 1_555
C102 C101 1_555 1_555
H54 C102 1_555 1_555
C103 C102 1_555 1_555
H55 C103 1_555 1_555
C105 C67_2 1_555 1_555
C106 C101 1_555 1_555
H56 C106 1_555 1_555
Fe4 O5 1_555 1_555
O30 Fe4 1_555 1_555
Fe10 O12 1_555 1_555
Fe12 O8 1_555 1_555
Fe13 O7 1_555 1_555
Fe15 O19 1_555 1_555
O42 Fe4 1_555 1_555
C20 C21 1_555 1_555
C25 C26 1_555 1_555
C26 C27 1_555 1_555
C33 C34 1_555 1_555
C37 C38 1_555 1_555
C38 C39 1_555 1_555
C39 C40 1_555 1_555
O13 Fe4 1_555 1_555
O13 Fe10 1_555 1_555
C59 C60 1_555 1_555
C65 C66 1_555 1_555
O20 Fe13 1_555 1_555
C99 C100 1_555 1_555
C103 C104 1_555 1_555
C104 C105 1_555 1_555
C105 C106 1_555 1_555
O13_2 Fe2_2 1_555 1_555
O14_2 Fe2_2 1_555 1_555
O30_2 Fe4_2 1_555 1_555
O34 Fe4_2 1_555 1_555
O38 Fe2_2 1_555 1_555
O43 Fe2_2 1_555 1_555
O45 Fe4_2 1_555 1_555
O13_2 Fe4_2 1_555 1_555
O13_2 Fe10_2 1_555 1_555
Fe1 O1 1_555 1_555
O1 C1 1_555 1_555
O2 C1 1_555 1_555
O3 Fe1 1_555 1_555
O4 Fe1 1_555 1_555
C1 C2 1_555 1_555
C2 C3 1_555 1_555
C3 H1 1_555 1_555
C4 C3 1_555 1_555
H2 C4 1_555 1_555
C5 C4 1_555 1_555
C6 C5 1_555 1_555
H3 C6 1_555 1_555
C7 C2 1_555 1_555
H4 C7 1_555 1_555
C8 C5 1_555 1_555
C9 C8 1_555 1_555
H5 C9 1_555 1_555
C10 C9 1_555 1_555
H6 C10 1_555 1_555
C11 C10 1_555 1_555
C12 C11 1_555 1_555
C13 C8 1_555 1_555
H7 C13 1_555 1_555
C14_2 C12 1_555 1_555
O9 C41 1_555 1_555
O10 C41 1_555 1_555
C41 C42 1_555 1_555
C42 C43 1_555 1_555
C43 H22 1_555 1_555
C44 C43 1_555 1_555
H23 C44 1_555 1_555
C45 C44 1_555 1_555
C46 C45 1_555 1_555
H24 C46 1_555 1_555
C47 C42 1_555 1_555
H25 C47 1_555 1_555
C48 C45 1_555 1_555
C49 C48 1_555 1_555
H26 C49 1_555 1_555
C50 C49 1_555 1_555
H27 C50 1_555 1_555
C52 C14_2 1_555 1_555
C53 C48 1_555 1_555
H28 C53 1_555 1_555
Fe7 O3 1_555 1_555
O21 Fe7 1_555 1_555
O22 Fe1 1_555 1_555
O23 Fe7 1_555 1_555
C107 O21 1_555 1_555
C108 C107 1_555 1_555
C109 C108 1_555 1_555
H57 C109 1_555 1_555
C110 C109 1_555 1_555
H58 C110 1_555 1_555
C111 C110 1_555 1_555
C112 C111 1_555 1_555
H59 C112 1_555 1_555
C113 C108 1_555 1_555
H60 C113 1_555 1_555
C114 C111 1_555 1_555
C115 C114 1_555 1_555
H61 C115 1_555 1_555
C116 C115 1_555 1_555
H62 C116 1_555 1_555
C117 C116 1_555 1_555
C118 C117 1_555 1_555
C119 C114 1_555 1_555
H63 C119 1_555 1_555
C120 C118 1_555 1_555
O24 C121 1_555 1_555
O42 C121 1_555 1_555
C121 C122 1_555 1_555
C122 C123 1_555 1_555
C123 H64 1_555 1_555
C124 C123 1_555 1_555
H65 C124 1_555 1_555
C125 C124 1_555 1_555
C126 C125 1_555 1_555
H66 C126 1_555 1_555
C127 C122 1_555 1_555
H67 C127 1_555 1_555
C128 C125 1_555 1_555
C129 C128 1_555 1_555
H68 C129 1_555 1_555
C130 C129 1_555 1_555
H69 C130 1_555 1_555
C131 C130 1_555 1_555
C132 C120 1_555 1_555
C133 C128 1_555 1_555
H70 C133 1_555 1_555
O26 C134 1_555 1_555
O27 C134 1_555 1_555
C134 C135 1_555 1_555
C135 C136 1_555 1_555
C136 H71 1_555 1_555
C137 C136 1_555 1_555
H72 C137 1_555 1_555
C138 C137 1_555 1_555
C139 C138 1_555 1_555
H73 C139 1_555 1_555
C140 C135 1_555 1_555
H74 C140 1_555 1_555
C141 C138 1_555 1_555
C142 C141 1_555 1_555
H75 C142 1_555 1_555
C143 C142 1_555 1_555
H76 C143 1_555 1_555
C144 C117 1_555 1_555
C145 C120 1_555 1_555
C146 C141 1_555 1_555
H77 C146 1_555 1_555
O28 C147 1_555 1_555
O29 C147 1_555 1_555
C147 C148 1_555 1_555
C148 C149 1_555 1_555
C149 H78 1_555 1_555
C150 C149 1_555 1_555
H79 C150 1_555 1_555
C151 C150 1_555 1_555
C152 C151 1_555 1_555
H80 C152 1_555 1_555
C153 C148 1_555 1_555
H81 C153 1_555 1_555
C154 C151 1_555 1_555
C155 C154 1_555 1_555
H82 C155 1_555 1_555
C156 C155 1_555 1_555
H83 C156 1_555 1_555
C157 C131 1_555 1_555
C158 C120 1_555 1_555
C159 C154 1_555 1_555
H84 C159 1_555 1_555
Fe9 O2 1_555 1_555
O31 Fe9 1_555 1_555
Fe10 O24 1_555 1_555
O32 Fe10 1_555 1_555
Fe12 O26 1_555 1_555
Fe15 O27 1_555 1_555
Fe17 O29 1_555 1_555
Fe18 O10 1_555 1_555
Fe20 O9 1_555 1_555
O3 Fe9 1_555 1_555
C6 C7 1_555 1_555
C12 C13 1_555 1_555
C46 C47 1_555 1_555
C50 C51 1_555 1_555
C51 C52 1_555 1_555
C52 C53 1_555 1_555
O22 C107 1_555 1_555
C112 C113 1_555 1_555
C118 C119 1_555 1_555
C126 C127 1_555 1_555
C131 C132 1_555 1_555
C132 C133 1_555 1_555
C139 C140 1_555 1_555
C143 C144 1_555 1_555
C144 C145 1_555 1_555
C145 C146 1_555 1_555
O28 Fe18 1_555 1_555
C152 C153 1_555 1_555
C156 C157 1_555 1_555
C157 C158 1_555 1_555
C158 C159 1_555 1_555
O3_2 Fe1_2 1_555 1_555
O4_2 Fe1_2 1_555 1_555
Fe7_2 O3_2 1_555 1_555
O23_2 Fe7_2 1_555 1_555
O31_2 Fe9_2 1_555 1_555
O32_2 Fe10_2 1_555 1_555
O35 Fe9_2 1_555 1_555
O36 Fe10_2 1_555 1_555
O37 Fe1_2 1_555 1_555
O39 Fe7_2 1_555 1_555
O44 Fe7_2 1_555 1_555
O46 Fe9_2 1_555 1_555
O47 Fe10_2 1_555 1_555
O48 Fe1_2 1_555 1_555
O3_2 Fe9_2 1_555 1_555
O3_3 Fe12 1_555 1_555
O4_3 Fe12 1_555 1_555
O13_3 Fe17 1_555 1_555
O14_3 Fe17 1_555 1_555
Fe13 O3_3 1_555 1_555
O23_3 Fe13 1_555 1_555
O30_3 Fe18 1_555 1_555
O31_3 Fe15 1_555 1_555
O34_2 Fe18 1_555 1_555
O35_2 Fe15 1_555 1_555
O37_2 Fe12 1_555 1_555
O38_2 Fe17 1_555 1_555
O39_2 Fe13 1_555 1_555
O43_2 Fe17 1_555 1_555
O44_2 Fe13 1_555 1_555
O45_2 Fe18 1_555 1_555
O46_2 Fe15 1_555 1_555
O48_2 Fe12 1_555 1_555
O3_3 Fe15 1_555 1_555
O13_3 Fe18 1_555 1_555
O13_3 Fe20 1_555 1_555
O32_3 Fe20 1_555 1_555
O36_2 Fe20 1_555 1_555
O47_2 Fe20 1_555 1_555
O34 C1_2 1_555 1_555
O43 C1_2 1_555 1_555
C1_2 C2_2 1_555 1_555
C2_2 C3_2 1_555 1_555
C3_2 H1_2 1_555 1_555
C4_2 C3_2 1_555 1_555
H2_2 C4_2 1_555 1_555
C5_2 C4_2 1_555 1_555
C6_2 C5_2 1_555 1_555
H3_2 C6_2 1_555 1_555
C7_2 C2_2 1_555 1_555
H4_2 C7_2 1_555 1_555
C8_2 C5_2 1_555 1_555
C9_2 C8_2 1_555 1_555
H5_2 C9_2 1_555 1_555
C10_2 C9_2 1_555 1_555
H6_2 C10_2 1_555 1_555
C11_2 C10_2 1_555 1_555
C12_2 C11_2 1_555 1_555
C13_2 C8_2 1_555 1_555
H7_2 C13_2 1_555 1_555
C14_3 C12_2 1_555 1_555
O39_2 C41_2 1_555 1_555
O48_2 C41_2 1_555 1_555
C41_2 C42_2 1_555 1_555
C42_2 C43_2 1_555 1_555
C43_2 H22_2 1_555 1_555
C44_2 C43_2 1_555 1_555
H23_2 C44_2 1_555 1_555
C45_2 C44_2 1_555 1_555
C46_2 C45_2 1_555 1_555
H24_2 C46_2 1_555 1_555
C47_2 C42_2 1_555 1_555
H25_2 C47_2 1_555 1_555
C48_2 C45_2 1_555 1_555
C49_2 C48_2 1_555 1_555
H26_2 C49_2 1_555 1_555
C50_2 C49_2 1_555 1_555
H27_2 C50_2 1_555 1_555
C52_2 C14_3 1_555 1_555
C53_2 C48_2 1_555 1_555
H28_2 C53_2 1_555 1_555
C107_2 O36 1_555 1_555
C108_2 C107_2 1_555 1_555
C109_2 C108_2 1_555 1_555
H57_2 C109_2 1_555 1_555
C110_2 C109_2 1_555 1_555
H58_2 C110_2 1_555 1_555
C111_2 C110_2 1_555 1_555
C112_2 C111_2 1_555 1_555
H59_2 C112_2 1_555 1_555
C113_2 C108_2 1_555 1_555
H60_2 C113_2 1_555 1_555
C114_2 C111_2 1_555 1_555
C115_2 C114_2 1_555 1_555
H61_2 C115_2 1_555 1_555
C116_2 C115_2 1_555 1_555
H62_2 C116_2 1_555 1_555
C117_2 C116_2 1_555 1_555
C118_2 C117_2 1_555 1_555
C119_2 C114_2 1_555 1_555
H63_2 C119_2 1_555 1_555
C120_2 C118_2 1_555 1_555
O39 C121_2 1_555 1_555
O48 C121_2 1_555 1_555
C121_2 C122_2 1_555 1_555
C122_2 C123_2 1_555 1_555
C123_2 H64_2 1_555 1_555
C124_2 C123_2 1_555 1_555
H65_2 C124_2 1_555 1_555
C125_2 C124_2 1_555 1_555
C126_2 C125_2 1_555 1_555
H66_2 C126_2 1_555 1_555
C127_2 C122_2 1_555 1_555
H67_2 C127_2 1_555 1_555
C128_2 C125_2 1_555 1_555
C129_2 C128_2 1_555 1_555
H68_2 C129_2 1_555 1_555
C130_2 C129_2 1_555 1_555
H69_2 C130_2 1_555 1_555
C131_2 C130_2 1_555 1_555
C132_2 C120_2 1_555 1_555
C133_2 C128_2 1_555 1_555
H70_2 C133_2 1_555 1_555
O34_2 C134_2 1_555 1_555
O43_2 C134_2 1_555 1_555
C134_2 C135_2 1_555 1_555
C135_2 C136_2 1_555 1_555
C136_2 H71_2 1_555 1_555
C137_2 C136_2 1_555 1_555
H72_2 C137_2 1_555 1_555
C138_2 C137_2 1_555 1_555
C139_2 C138_2 1_555 1_555
H73_2 C139_2 1_555 1_555
C140_2 C135_2 1_555 1_555
H74_2 C140_2 1_555 1_555
C141_2 C138_2 1_555 1_555
C142_2 C141_2 1_555 1_555
H75_2 C142_2 1_555 1_555
C143_2 C142_2 1_555 1_555
H76_2 C143_2 1_555 1_555
C144_2 C117_2 1_555 1_555
C145_2 C120_2 1_555 1_555
C146_2 C141_2 1_555 1_555
H77_2 C146_2 1_555 1_555
O37_2 C147_2 1_555 1_555
O46_2 C147_2 1_555 1_555
C147_2 C148_2 1_555 1_555
C148_2 C149_2 1_555 1_555
C149_2 H78_2 1_555 1_555
C150_2 C149_2 1_555 1_555
H79_2 C150_2 1_555 1_555
C151_2 C150_2 1_555 1_555
C152_2 C151_2 1_555 1_555
H80_2 C152_2 1_555 1_555
C153_2 C148_2 1_555 1_555
H81_2 C153_2 1_555 1_555
C154_2 C151_2 1_555 1_555
C155_2 C154_2 1_555 1_555
H82_2 C155_2 1_555 1_555
C156_2 C155_2 1_555 1_555
H83_2 C156_2 1_555 1_555
C157_2 C131_2 1_555 1_555
C158_2 C120_2 1_555 1_555
C159_2 C154_2 1_555 1_555
H84_2 C159_2 1_555 1_555
C6_2 C7_2 1_555 1_555
C12_2 C13_2 1_555 1_555
C46_2 C47_2 1_555 1_555
C50_2 C51_2 1_555 1_555
C51_2 C52_2 1_555 1_555
C52_2 C53_2 1_555 1_555
O45 C107_2 1_555 1_555
C112_2 C113_2 1_555 1_555
C118_2 C119_2 1_555 1_555
C126_2 C127_2 1_555 1_555
C131_2 C132_2 1_555 1_555
C132_2 C133_2 1_555 1_555
C139_2 C140_2 1_555 1_555
C143_2 C144_2 1_555 1_555
C144_2 C145_2 1_555 1_555
C145_2 C146_2 1_555 1_555
C152_2 C153_2 1_555 1_555
C156_2 C157_2 1_555 1_555
C157_2 C158_2 1_555 1_555
C158_2 C159_2 1_555 1_555
O37 C15_2 1_555 1_555
O46 C15_2 1_555 1_555
C15_2 C16_2 1_555 1_555
C16_2 C17_2 1_555 1_555
C17_2 H8_2 1_555 1_555
C18_2 C17_2 1_555 1_555
H9_2 C18_2 1_555 1_555
C19_2 C18_2 1_555 1_555
C20_2 C19_2 1_555 1_555
H10_2 C20_2 1_555 1_555
C21_2 C16_2 1_555 1_555
H11_2 C21_2 1_555 1_555
C22_2 C19_2 1_555 1_555
C23_2 C22_2 1_555 1_555
H12_2 C23_2 1_555 1_555
C24_2 C23_2 1_555 1_555
H13_2 C24_2 1_555 1_555
C25_2 C24_2 1_555 1_555
C26_2 C14_4 1_555 1_555
C27_2 C22_2 1_555 1_555
H14_2 C27_2 1_555 1_555
O36_2 C28_2 1_555 1_555
O45_2 C28_2 1_555 1_555
C28_2 C29_2 1_555 1_555
C29_2 C30_2 1_555 1_555
C30_2 H15_2 1_555 1_555
C31_2 C30_2 1_555 1_555
H16_2 C31_2 1_555 1_555
C32_2 C31_2 1_555 1_555
C33_2 C32_2 1_555 1_555
H17_2 C33_2 1_555 1_555
C34_2 C29_2 1_555 1_555
H18_2 C34_2 1_555 1_555
C35_2 C32_2 1_555 1_555
C36_2 C35_2 1_555 1_555
H19_2 C36_2 1_555 1_555
C37_2 C36_2 1_555 1_555
H20_2 C37_2 1_555 1_555
C39_2 C14_4 1_555 1_555
C40_2 C35_2 1_555 1_555
H21_2 C40_2 1_555 1_555
O44 C54_2 1_555 1_555
C54_2 O35 1_555 1_555
C55_2 C54_2 1_555 1_555
C56_2 C55_2 1_555 1_555
H29_2 C56_2 1_555 1_555
C57_2 C56_2 1_555 1_555
H30_2 C57_2 1_555 1_555
C58_2 C57_2 1_555 1_555
C59_2 C58_2 1_555 1_555
H31_2 C59_2 1_555 1_555
C60_2 C55_2 1_555 1_555
H32_2 C60_2 1_555 1_555
C61_2 C58_2 1_555 1_555
C62_2 C61_2 1_555 1_555
H33_2 C62_2 1_555 1_555
C63_2 C62_2 1_555 1_555
H34_2 C63_2 1_555 1_555
C64_2 C63_2 1_555 1_555
C65_2 C64_2 1_555 1_555
C66_2 C61_2 1_555 1_555
H35_2 C66_2 1_555 1_555
C67_3 C65_2 1_555 1_555
O38_2 C94_2 1_555 1_555
O47_2 C94_2 1_555 1_555
C94_2 C95_2 1_555 1_555
C95_2 C96_2 1_555 1_555
C96_2 H50_2 1_555 1_555
C97_2 C96_2 1_555 1_555
H51_2 C97_2 1_555 1_555
C98_2 C97_2 1_555 1_555
C99_2 C98_2 1_555 1_555
H52_2 C99_2 1_555 1_555
C100_2 C95_2 1_555 1_555
H53_2 C100_2 1_555 1_555
C101_2 C98_2 1_555 1_555
C102_2 C101_2 1_555 1_555
H54_2 C102_2 1_555 1_555
C103_2 C102_2 1_555 1_555
H55_2 C103_2 1_555 1_555
C105_2 C67_3 1_555 1_555
C106_2 C101_2 1_555 1_555
H56_2 C106_2 1_555 1_555
C20_2 C21_2 1_555 1_555
C25_2 C26_2 1_555 1_555
C26_2 C27_2 1_555 1_555
C33_2 C34_2 1_555 1_555
C37_2 C38_2 1_555 1_555
C38_2 C39_2 1_555 1_555
C39_2 C40_2 1_555 1_555
C59_2 C60_2 1_555 1_555
C65_2 C66_2 1_555 1_555
C99_2 C100_2 1_555 1_555
C103_2 C104_2 1_555 1_555
C104_2 C105_2 1_555 1_555
C105_2 C106_2 1_555 1_555
O38 C68_2 1_555 1_555
O47 C68_2 1_555 1_555
C68_2 C69_2 1_555 1_555
C69_2 C70_2 1_555 1_555
C70_2 H36_2 1_555 1_555
C71_2 C70_2 1_555 1_555
H37_2 C71_2 1_555 1_555
C72_2 C71_2 1_555 1_555
C73_2 C72_2 1_555 1_555
H38_2 C73_2 1_555 1_555
C74_2 C69_2 1_555 1_555
H39_2 C74_2 1_555 1_555
C75_2 C72_2 1_555 1_555
C76_2 C75_2 1_555 1_555
H40_2 C76_2 1_555 1_555
C77_2 C76_2 1_555 1_555
H41_2 C77_2 1_555 1_555
C78_2 C77_2 1_555 1_555
C79_2 C67_4 1_555 1_555
C80_2 C75_2 1_555 1_555
H42_2 C80_2 1_555 1_555
O35_2 C81_2 1_555 1_555
O44_2 C81_2 1_555 1_555
C81_2 C82_2 1_555 1_555
C82_2 C83_2 1_555 1_555
C83_2 H43_2 1_555 1_555
C84_2 C83_2 1_555 1_555
H44_2 C84_2 1_555 1_555
C85_2 C84_2 1_555 1_555
C86_2 C85_2 1_555 1_555
H45_2 C86_2 1_555 1_555
C87_2 C82_2 1_555 1_555
H46_2 C87_2 1_555 1_555
C88_2 C85_2 1_555 1_555
C89_2 C88_2 1_555 1_555
H47_2 C89_2 1_555 1_555
C90_2 C89_2 1_555 1_555
H48_2 C90_2 1_555 1_555
C92_2 C67_4 1_555 1_555
C93_2 C88_2 1_555 1_555
H49_2 C93_2 1_555 1_555
C73_2 C74_2 1_555 1_555
C78_2 C79_2 1_555 1_555
C79_2 C80_2 1_555 1_555
C86_2 C87_2 1_555 1_555
C90_2 C91_2 1_555 1_555
C91_2 C92_2 1_555 1_555
C92_2 C93_2 1_555 1_555

#END
