
###############################################################################
#
# This file contains modified crystal structure data generated from the
# MOF subset of the Cambridge Structural Database (CSD) v543 
# hosted by the Cambridge Crystallographic Data Centre (CCDC).
#
# This work is licensed under the Creative Commons
# Attribution-NonCommercial-ShareAlike 4.0 International License.
# To view a copy of this license, visit
# http://creativecommons.org/licenses/by-nc-sa/4.0/
# or send a letter to
# Creative Commons, PO Box 1866, Mountain View, CA 94042, USA.
#
# CIF created using the CSD Python API on 29 September 2022
# The structure has been converted into the P1 space group
# The structure has a 3D framework
# The original CSD entry QOTLOD05 is in the hexagonal crystal system
# The framework has been calculated to contain at least 10.0% void space
# The void calculation uses a probe of radius 1.32A, grid spacing 0.4
# The framework is charged, counterions have been retained in the structure
# H atom positions have been added when not included in the experimental data
# Generated hydrogen atom positions removed from atoms on special positions
#
###############################################################################

data_QOTLOD05
_chemical_formula_moiety         '(C322 H264 Fe18 O72 2+)n'
_symmetry_cell_setting           triclinic
_symmetry_space_group_name_H-M   'P 1'
_symmetry_Int_Tables_number      1
_space_group_name_Hall           'P 1'
loop_
_symmetry_equiv_pos_site_id
_symmetry_equiv_pos_as_xyz
1 x,y,z
_cell_length_a                   31.2164(8)
_cell_length_b                   31.2164(8)
_cell_length_c                   33.3866(11)
_cell_angle_alpha                90
_cell_angle_beta                 90
_cell_angle_gamma                120
_cell_volume                     28175.3
loop_
_atom_site_label
_atom_site_type_symbol
_atom_site_fract_x
_atom_site_fract_y
_atom_site_fract_z
Fe4 Fe 0.59810(2) 0.28363(2) 0.0000
O30 O 0.52464(8) 0.23030(8) 0.0000
Fe10 Fe 0.71637(2) 0.31447(3) 0.0000
O34 O 0.6666 0.3333 0.0000
O35 O 0.60453(6) 0.24224(6) 0.04238(4)
O48 O 0.57944(8) 0.31636(6) 0.04317(5)
C1 C 0.5000 0.0000 0.7500
O5 O 0.60453(6) 0.24224(6) 0.95762(4)
C15 C 0.54596(8) 0.03034(8) 0.77488(5)
C16 C 0.61051(10) 0.12981(9) 0.85337(6)
C17 C 0.60072(10) 0.09175(9) 0.82229(6)
C18 C 0.63061(9) 0.20176(8) 0.91225(6)
C19 C 0.55469(8) 0.06645(8) 0.80320(6)
H8 H 0.5300 0.0738 0.8094
O6 O 0.68364(6) 0.26308(6) 0.95683(5)
C20 C 0.63976(10) 0.23841(8) 0.94442(6)
C21 C 0.58207(10) 0.01948(9) 0.76482(6)
C22 C 0.58354(12) 0.16900(12) 0.90100(8)
H9 H 0.5575 0.1707 0.9128
C23 C 0.63652(11) 0.07931(11) 0.81294(7)
H10 H 0.6669 0.0953 0.8260
C24 C 0.65834(11) 0.16279(12) 0.86530(8)
H11 H 0.6846 0.1612 0.8537
C25 C 0.66764(10) 0.19801(11) 0.89410(8)
H12 H 0.7002 0.2199 0.9014
C26 C 0.57347(10) 0.13314(11) 0.87232(9)
H13 H 0.5407 0.1108 0.8658
C27 C 0.62769(11) 0.04327(11) 0.78429(8)
H14 H 0.6519 0.0352 0.7783
O7 O 0.63771(8) 0.24224(6) 0.54238(4)
C28 C 0.48438(11) 0.03034(8) 0.72512(5)
C29 C 0.51930(13) 0.12981(9) 0.64663(6)
C30 C 0.49103(13) 0.09175(9) 0.67771(6)
C31 C 0.57115(12) 0.20176(8) 0.58775(6)
C32 C 0.51176(11) 0.06645(8) 0.69680(6)
H15 H 0.5438 0.0738 0.6906
O8 O 0.57944(8) 0.26308(6) 0.54317(5)
C33 C 0.59865(13) 0.23841(8) 0.55558(6)
C34 C 0.43741(13) 0.01948(9) 0.73518(6)
C35 C 0.58546(17) 0.16900(12) 0.59900(8)
H16 H 0.6132 0.1707 0.5872
C36 C 0.44279(16) 0.07931(11) 0.68706(7)
H17 H 0.4284 0.0953 0.6740
C37 C 0.50445(16) 0.16279(12) 0.63470(8)
H18 H 0.4766 0.1612 0.6463
C38 C 0.53037(15) 0.19801(11) 0.60590(8)
H19 H 0.5197 0.2199 0.5986
C39 C 0.55967(15) 0.13314(11) 0.62768(9)
H20 H 0.5701 0.1108 0.6342
C40 C 0.41558(16) 0.04327(11) 0.71571(8)
H21 H 0.3833 0.0352 0.7217
Fe4_2 Fe 0.59810(2) 0.28363(2) 1.0000
O30_2 O 0.52464(8) 0.23030(8) 1.0000
Fe10_2 Fe 0.71637(2) 0.31447(3) 1.0000
Fe12 Fe 0.68553(3) 0.28363(2) 0.5000
Fe14 Fe 0.59810(2) 0.31447(3) 0.5000
O34_2 O 0.6666 0.3333 1.0000
O41 O 0.57944(8) 0.31636(6) 0.95683(5)
Fe1 Fe 0.40190(2) 0.71637(2) 0.0000
O1 O 0.47536(8) 0.76970(8) 0.0000
O2 O 0.3333 0.6667 0.0000
Fe2 Fe 0.68553(3) 0.40190(2) 0.0000
O11 O 0.70566(11) 0.47536(8) 0.0000
Fe3 Fe 0.28363(2) 0.68553(3) 0.0000
O21 O 0.23030(8) 0.70566(11) 0.0000
Fe5 Fe 0.31447(3) 0.59810(2) 0.0000
O31 O 0.29434(11) 0.52464(8) 0.0000
O36 O 0.36229(8) 0.60453(6) 0.04238(4)
O38 O 0.39547(6) 0.75776(6) 0.04238(4)
O39 O 0.63771(8) 0.39547(6) 0.04238(4)
O40 O 0.24224(6) 0.63771(8) 0.04238(4)
O45 O 0.42056(8) 0.68364(6) 0.04317(5)
O46 O 0.73692(6) 0.42056(8) 0.04317(5)
O47 O 0.31636(6) 0.73692(6) 0.04317(5)
O49 O 0.26308(6) 0.57944(8) 0.04317(5)
Fe1_2 Fe 0.40190(2) 0.71637(2) 1.0000
C1_2 C 0.5000 1.0000 0.7500
O1_2 O 0.47536(8) 0.76970(8) 1.0000
O2_2 O 0.3333 0.6667 1.0000
O3 O 0.39547(6) 0.75776(6) 0.95762(4)
C2 C 0.45404(8) 0.96966(8) 0.77488(5)
C3 C 0.38949(10) 0.87019(9) 0.85337(6)
C4 C 0.39928(10) 0.90825(9) 0.82229(6)
C5 C 0.36939(9) 0.79824(8) 0.91225(6)
C6 C 0.44531(8) 0.93355(8) 0.80320(6)
H1 H 0.4700 0.9262 0.8094
O4 O 0.31636(6) 0.73692(6) 0.95683(5)
C7 C 0.36024(10) 0.76159(8) 0.94442(6)
C8 C 0.41793(10) 0.98052(9) 0.76482(6)
C9 C 0.41646(12) 0.83100(12) 0.90100(8)
H2 H 0.4425 0.8293 0.9128
C10 C 0.36348(11) 0.92069(11) 0.81294(7)
H3 H 0.3331 0.9047 0.8260
C11 C 0.34166(11) 0.83721(12) 0.86530(8)
H4 H 0.3154 0.8388 0.8537
C12 C 0.33236(10) 0.80199(11) 0.89410(8)
H5 H 0.2998 0.7801 0.9014
C13 C 0.42653(10) 0.86686(11) 0.87232(9)
H6 H 0.4593 0.8892 0.8658
C14 C 0.37231(11) 0.95673(11) 0.78429(8)
H7 H 0.3481 0.9648 0.7783
O9 O 0.36229(8) 0.75776(6) 0.54238(4)
C41 C 0.51562(11) 0.96966(8) 0.72512(5)
C42 C 0.48070(13) 0.87019(9) 0.64663(6)
C43 C 0.50897(13) 0.90825(9) 0.67771(6)
C44 C 0.42885(12) 0.79824(8) 0.58775(6)
C45 C 0.48824(11) 0.93355(8) 0.69680(6)
H22 H 0.4562 0.9262 0.6906
O10 O 0.42056(8) 0.73692(6) 0.54317(5)
C46 C 0.40135(13) 0.76159(8) 0.55558(6)
C47 C 0.56259(13) 0.98052(9) 0.73518(6)
C48 C 0.41454(17) 0.83100(12) 0.59900(8)
H23 H 0.3868 0.8293 0.5872
C49 C 0.55721(16) 0.92069(11) 0.68706(7)
H24 H 0.5716 0.9047 0.6740
C50 C 0.49555(16) 0.83721(12) 0.63470(8)
H25 H 0.5234 0.8388 0.6463
C51 C 0.46963(15) 0.80199(11) 0.60590(8)
H26 H 0.4803 0.7801 0.5986
C52 C 0.44033(15) 0.86686(11) 0.62768(9)
H27 H 0.4299 0.8892 0.6342
C53 C 0.58442(16) 0.95673(11) 0.71571(8)
H28 H 0.6167 0.9648 0.7217
Fe2_2 Fe 0.68553(3) 0.40190(2) 1.0000
C54 C 0.5000 0.5000 0.7500
O11_2 O 0.70566(11) 0.47536(8) 1.0000
O13 O 0.63771(8) 0.39547(6) 0.95762(4)
C55 C 0.48438(11) 0.45404(8) 0.77488(5)
C56 C 0.51930(13) 0.38949(10) 0.85337(6)
C57 C 0.49103(13) 0.39928(10) 0.82229(6)
C58 C 0.57115(12) 0.36939(9) 0.91225(6)
C59 C 0.51176(11) 0.44531(8) 0.80320(6)
H29 H 0.5438 0.4700 0.8094
C60 C 0.59865(13) 0.36024(10) 0.94442(6)
C61 C 0.43741(13) 0.41793(10) 0.76482(6)
C62 C 0.58546(17) 0.41646(12) 0.90100(8)
H30 H 0.6132 0.4425 0.9128
C63 C 0.44279(16) 0.36348(11) 0.81294(7)
H31 H 0.4284 0.3331 0.8260
C64 C 0.50445(16) 0.34166(11) 0.86530(8)
H32 H 0.4766 0.3154 0.8537
C65 C 0.53037(15) 0.33236(10) 0.89410(8)
H33 H 0.5197 0.2998 0.9014
C66 C 0.55967(15) 0.42653(10) 0.87232(9)
H34 H 0.5701 0.4593 0.8658
C67 C 0.41558(16) 0.37231(11) 0.78429(8)
H35 H 0.3833 0.3481 0.7783
O15 O 0.36229(8) 0.60453(6) 0.95762(4)
C68 C 0.51562(11) 0.54596(8) 0.77488(5)
C69 C 0.48070(13) 0.61051(10) 0.85337(6)
C70 C 0.50897(13) 0.60072(10) 0.82229(6)
C71 C 0.42885(12) 0.63061(9) 0.91225(6)
C72 C 0.48824(11) 0.55469(8) 0.80320(6)
H36 H 0.4562 0.5300 0.8094
O16 O 0.42056(8) 0.68364(6) 0.95683(5)
C73 C 0.40135(13) 0.63976(10) 0.94442(6)
C74 C 0.56259(13) 0.58207(10) 0.76482(6)
C75 C 0.41454(17) 0.58354(12) 0.90100(8)
H37 H 0.3868 0.5575 0.9128
C76 C 0.55721(16) 0.63652(11) 0.81294(7)
H38 H 0.5716 0.6669 0.8260
C77 C 0.49555(16) 0.65834(11) 0.86530(8)
H39 H 0.5234 0.6846 0.8537
C78 C 0.46963(15) 0.66764(10) 0.89410(8)
H40 H 0.4803 0.7002 0.9014
C79 C 0.44033(15) 0.57347(10) 0.87232(9)
H41 H 0.4299 0.5407 0.8658
C80 C 0.58442(16) 0.62769(11) 0.78429(8)
H42 H 0.6167 0.6519 0.7783
O17 O 0.39547(6) 0.63771(8) 0.54238(4)
C81 C 0.45404(8) 0.48438(11) 0.72512(5)
C82 C 0.38949(10) 0.51930(13) 0.64663(6)
C83 C 0.39928(10) 0.49103(13) 0.67771(6)
C84 C 0.36939(9) 0.57115(12) 0.58775(6)
C85 C 0.44531(8) 0.51176(11) 0.69680(6)
H43 H 0.4700 0.5438 0.6906
O18 O 0.31636(6) 0.57944(8) 0.54317(5)
C86 C 0.36024(10) 0.59865(13) 0.55558(6)
C87 C 0.41793(10) 0.43741(13) 0.73518(6)
C88 C 0.41646(12) 0.58546(17) 0.59900(8)
H44 H 0.4425 0.6132 0.5872
C89 C 0.36348(11) 0.44279(16) 0.68706(7)
H45 H 0.3331 0.4284 0.6740
C90 C 0.34166(11) 0.50445(16) 0.63470(8)
H46 H 0.3154 0.4766 0.6463
C91 C 0.33236(10) 0.53037(15) 0.60590(8)
H47 H 0.2998 0.5197 0.5986
C92 C 0.42653(10) 0.55967(15) 0.62768(9)
H48 H 0.4593 0.5701 0.6342
C93 C 0.37231(11) 0.41558(16) 0.71571(8)
H49 H 0.3481 0.3833 0.7217
O19 O 0.60453(6) 0.36229(8) 0.54238(4)
C94 C 0.54596(8) 0.51562(11) 0.72512(5)
C95 C 0.61051(10) 0.48070(13) 0.64663(6)
C96 C 0.60072(10) 0.50897(13) 0.67771(6)
C97 C 0.63061(9) 0.42885(12) 0.58775(6)
C98 C 0.55469(8) 0.48824(11) 0.69680(6)
H50 H 0.5300 0.4562 0.6906
O20 O 0.68364(6) 0.42056(8) 0.54317(5)
C99 C 0.63976(10) 0.40135(13) 0.55558(6)
C100 C 0.58207(10) 0.56259(13) 0.73518(6)
C101 C 0.58354(12) 0.41454(17) 0.59900(8)
H51 H 0.5575 0.3868 0.5872
C102 C 0.63652(11) 0.55721(16) 0.68706(7)
H52 H 0.6669 0.5716 0.6740
C103 C 0.65834(11) 0.49555(16) 0.63470(8)
H53 H 0.6846 0.5234 0.6463
C104 C 0.66764(10) 0.46963(15) 0.60590(8)
H54 H 0.7002 0.4803 0.5986
C105 C 0.57347(10) 0.44033(15) 0.62768(9)
H55 H 0.5407 0.4299 0.6342
C106 C 0.62769(11) 0.58442(16) 0.71571(8)
H56 H 0.6519 0.6167 0.7217
Fe3_2 Fe 0.28363(2) 0.68553(3) 1.0000
C107 C -0.0000 0.5000 0.7500
O21_2 O 0.23030(8) 0.70566(11) 1.0000
O22 O 0.24224(6) 0.63771(8) 0.95762(4)
C108 C 0.03034(8) 0.48438(11) 0.77488(5)
C109 C 0.12981(9) 0.51930(13) 0.85337(6)
C110 C 0.09175(9) 0.49103(13) 0.82229(6)
C111 C 0.20176(8) 0.57115(12) 0.91225(6)
C112 C 0.06645(8) 0.51176(11) 0.80320(6)
H57 H 0.0738 0.5438 0.8094
O23 O 0.26308(6) 0.57944(8) 0.95683(5)
C113 C 0.23841(8) 0.59865(13) 0.94442(6)
C114 C 0.01948(9) 0.43741(13) 0.76482(6)
C115 C 0.16900(12) 0.58546(17) 0.90100(8)
H58 H 0.1707 0.6132 0.9128
C116 C 0.07931(11) 0.44279(16) 0.81294(7)
H59 H 0.0953 0.4284 0.8260
C117 C 0.16279(12) 0.50445(16) 0.86530(8)
H60 H 0.1612 0.4766 0.8537
C118 C 0.19801(11) 0.53037(15) 0.89410(8)
H61 H 0.2199 0.5197 0.9014
C119 C 0.13314(11) 0.55967(15) 0.87232(9)
H62 H 0.1108 0.5701 0.8658
C120 C 0.04327(11) 0.41558(16) 0.78429(8)
H63 H 0.0352 0.3833 0.7783
O28 O 0.24224(6) 0.60453(6) 0.54238(4)
C147 C 0.03034(8) 0.54596(8) 0.72512(5)
C148 C 0.12981(9) 0.61051(10) 0.64663(6)
C149 C 0.09175(9) 0.60072(10) 0.67771(6)
C150 C 0.20176(8) 0.63061(9) 0.58775(6)
C151 C 0.06645(8) 0.55469(8) 0.69680(6)
H78 H 0.0738 0.5300 0.6906
O29 O 0.26308(6) 0.68364(6) 0.54317(5)
C152 C 0.23841(8) 0.63976(10) 0.55558(6)
C153 C 0.01948(9) 0.58207(10) 0.73518(6)
C154 C 0.16900(12) 0.58354(12) 0.59900(8)
H79 H 0.1707 0.5575 0.5872
C155 C 0.07931(11) 0.63652(11) 0.68706(7)
H80 H 0.0953 0.6669 0.6740
C156 C 0.16279(12) 0.65834(11) 0.63470(8)
H81 H 0.1612 0.6846 0.6463
C157 C 0.19801(11) 0.66764(10) 0.60590(8)
H82 H 0.2199 0.7002 0.5986
C158 C 0.13314(11) 0.57347(10) 0.62768(9)
H83 H 0.1108 0.5407 0.6342
C159 C 0.04327(11) 0.62769(11) 0.71571(8)
H84 H 0.0352 0.6519 0.7217
Fe5_2 Fe 0.31447(3) 0.59810(2) 1.0000
O31_2 O 0.29434(11) 0.52464(8) 1.0000
Fe16 Fe 0.71637(2) 0.40190(2) 0.5000
Fe17 Fe 0.28363(2) 0.59810(2) 0.5000
Fe18 Fe 0.31447(3) 0.71637(2) 0.5000
Fe19 Fe 0.40190(2) 0.68553(3) 0.5000
O43 O 0.73692(6) 0.42056(8) 0.95683(5)
O32 O 0.76970(8) 0.29434(11) 0.0000
O37 O 0.75776(6) 0.36229(8) 0.04238(4)
O44 O 0.68364(6) 0.26308(6) 0.04317(5)
C107_2 C 1.0000 0.5000 0.7500
O24 O 0.75776(6) 0.36229(8) 0.95762(4)
C121 C 0.96966(8) 0.51562(11) 0.77488(5)
C122 C 0.87019(9) 0.48070(13) 0.85337(6)
C123 C 0.90825(9) 0.50897(13) 0.82229(6)
C124 C 0.79824(8) 0.42885(12) 0.91225(6)
C125 C 0.93355(8) 0.48824(11) 0.80320(6)
H64 H 0.9262 0.4562 0.8094
C126 C 0.76159(8) 0.40135(13) 0.94442(6)
C127 C 0.98052(9) 0.56259(13) 0.76482(6)
C128 C 0.83100(12) 0.41454(17) 0.90100(8)
H65 H 0.8293 0.3868 0.9128
C129 C 0.92069(11) 0.55721(16) 0.81294(7)
H66 H 0.9047 0.5716 0.8260
C130 C 0.83721(12) 0.49555(16) 0.86530(8)
H67 H 0.8388 0.5234 0.8537
C131 C 0.80199(11) 0.46963(15) 0.89410(8)
H68 H 0.7801 0.4803 0.9014
C132 C 0.86686(11) 0.44033(15) 0.87232(9)
H69 H 0.8892 0.4299 0.8658
C133 C 0.95673(11) 0.58442(16) 0.78429(8)
H70 H 0.9648 0.6167 0.7783
O26 O 0.75776(6) 0.39547(6) 0.54238(4)
C134 C 0.96966(8) 0.45404(8) 0.72512(5)
C135 C 0.87019(9) 0.38949(10) 0.64663(6)
C136 C 0.90825(9) 0.39928(10) 0.67771(6)
C137 C 0.79824(8) 0.36939(9) 0.58775(6)
C138 C 0.93355(8) 0.44531(8) 0.69680(6)
H71 H 0.9262 0.4700 0.6906
O27 O 0.73692(6) 0.31636(6) 0.54317(5)
C139 C 0.76159(8) 0.36024(10) 0.55558(6)
C140 C 0.98052(9) 0.41793(10) 0.73518(6)
C141 C 0.83100(12) 0.41646(12) 0.59900(8)
H72 H 0.8293 0.4425 0.5872
C142 C 0.92069(11) 0.36348(11) 0.68706(7)
H73 H 0.9047 0.3331 0.6740
C143 C 0.83721(12) 0.34166(11) 0.63470(8)
H74 H 0.8388 0.3154 0.6463
C144 C 0.80199(11) 0.33236(10) 0.60590(8)
H75 H 0.7801 0.2998 0.5986
C145 C 0.86686(11) 0.42653(10) 0.62768(9)
H76 H 0.8892 0.4593 0.6342
C146 C 0.95673(11) 0.37231(11) 0.71571(8)
H77 H 0.9648 0.3481 0.7217
O32_2 O 0.76970(8) 0.29434(11) 1.0000
O11_3 O 0.23030(14) 0.52464(8) 0.5000
O12 O 0.3333 0.6667 0.5000
O39_2 O 0.24224(10) 0.60453(6) 0.45762(4)
O46_2 O 0.31636(10) 0.57944(8) 0.45683(5)
O1_3 O 0.70566(11) 0.23030(8) 0.5000
O2_3 O 0.6666 0.3333 0.5000
O21_3 O 0.52464(14) 0.29434(11) 0.5000
O31_3 O 0.76970(14) 0.47536(8) 0.5000
O32_3 O 0.47536(14) 0.70566(11) 0.5000
O36_2 O 0.75776(10) 0.39547(6) 0.45762(4)
O37_2 O 0.39547(10) 0.63771(8) 0.45762(4)
O38_2 O 0.63771(8) 0.24224(6) 0.45762(4)
O40_2 O 0.60453(10) 0.36229(8) 0.45762(4)
O44_2 O 0.42056(8) 0.73692(6) 0.45683(5)
O45_2 O 0.73692(10) 0.31636(6) 0.45683(5)
O47_2 O 0.57944(8) 0.26308(6) 0.45683(5)
O49_2 O 0.68364(10) 0.42056(8) 0.45683(5)
O30_3 O 0.29434(11) 0.76970(8) 0.5000
O35_2 O 0.36229(8) 0.75776(6) 0.45762(4)
O48_2 O 0.26308(10) 0.68364(6) 0.45683(5)
C107_3 C -0.0000 0.5000 0.2500
C121_2 C 0.03034(8) 0.48438(11) 0.22512(5)
C122_2 C 0.12981(9) 0.51930(13) 0.14663(6)
C123_2 C 0.09175(9) 0.49103(13) 0.17771(6)
C124_2 C 0.20176(8) 0.57115(12) 0.08775(6)
C125_2 C 0.06645(8) 0.51176(11) 0.19680(6)
H64_2 H 0.0738 0.5438 0.1906
C126_2 C 0.23841(8) 0.59865(13) 0.05558(6)
C127_2 C 0.01948(9) 0.43741(13) 0.23518(6)
C128_2 C 0.16900(12) 0.58546(17) 0.09900(8)
H65_2 H 0.1707 0.6132 0.0872
C129_2 C 0.07931(11) 0.44279(16) 0.18706(7)
H66_2 H 0.0953 0.4284 0.1740
C130_2 C 0.16279(12) 0.50445(16) 0.13470(8)
H67_2 H 0.1612 0.4766 0.1463
C131_2 C 0.19801(11) 0.53037(15) 0.10590(8)
H68_2 H 0.2199 0.5197 0.0986
C132_2 C 0.13314(11) 0.55967(15) 0.12768(9)
H69_2 H 0.1108 0.5701 0.1342
C133_2 C 0.04327(11) 0.41558(16) 0.21571(8)
H70_2 H 0.0352 0.3833 0.2217
C134_2 C 0.03034(8) 0.54596(8) 0.27488(5)
C135_2 C 0.12981(9) 0.61051(10) 0.35337(6)
C136_2 C 0.09175(9) 0.60072(10) 0.32229(6)
C137_2 C 0.20176(8) 0.63061(9) 0.41225(6)
C138_2 C 0.06645(8) 0.55469(8) 0.30320(6)
H71_2 H 0.0738 0.5300 0.3094
C139_2 C 0.23841(8) 0.63976(10) 0.44442(6)
C140_2 C 0.01948(9) 0.58207(10) 0.26482(6)
C141_2 C 0.16900(12) 0.58354(12) 0.40100(8)
H72_2 H 0.1707 0.5575 0.4128
C142_2 C 0.07931(11) 0.63652(11) 0.31294(7)
H73_2 H 0.0953 0.6669 0.3260
C143_2 C 0.16279(12) 0.65834(11) 0.36530(8)
H74_2 H 0.1612 0.6846 0.3537
C144_2 C 0.19801(11) 0.66764(10) 0.39410(8)
H75_2 H 0.2199 0.7002 0.4014
C145_2 C 0.13314(11) 0.57347(10) 0.37232(9)
H76_2 H 0.1108 0.5407 0.3658
C146_2 C 0.04327(11) 0.62769(11) 0.28429(8)
H77_2 H 0.0352 0.6519 0.2783
C1_3 C 0.5000 -0.0000 0.2500
C2_2 C 0.54596(8) 0.03034(8) 0.22512(5)
C3_2 C 0.61051(10) 0.12981(9) 0.14663(6)
C4_2 C 0.60072(10) 0.09175(9) 0.17771(6)
C5_2 C 0.63061(9) 0.20176(8) 0.08775(6)
C6_2 C 0.55469(8) 0.06645(8) 0.19680(6)
H1_2 H 0.5300 0.0738 0.1906
C7_2 C 0.63976(10) 0.23841(8) 0.05558(6)
C8_2 C 0.58207(10) 0.01948(9) 0.23518(6)
C9_2 C 0.58354(12) 0.16900(12) 0.09900(8)
H2_2 H 0.5575 0.1707 0.0872
C10_2 C 0.63652(11) 0.07931(11) 0.18706(7)
H3_2 H 0.6669 0.0953 0.1740
C11_2 C 0.65834(11) 0.16279(12) 0.13470(8)
H4_2 H 0.6846 0.1612 0.1463
C12_2 C 0.66764(10) 0.19801(11) 0.10590(8)
H5_2 H 0.7002 0.2199 0.0986
C13_2 C 0.57347(10) 0.13314(11) 0.12768(9)
H6_2 H 0.5407 0.1108 0.1342
C14_2 C 0.62769(11) 0.04327(11) 0.21571(8)
H7_2 H 0.6519 0.0352 0.2217
C41_2 C 0.48438(11) 0.03034(8) 0.27488(5)
C42_2 C 0.51930(13) 0.12981(9) 0.35337(6)
C43_2 C 0.49103(13) 0.09175(9) 0.32229(6)
C44_2 C 0.57115(12) 0.20176(8) 0.41225(6)
C45_2 C 0.51176(11) 0.06645(8) 0.30320(6)
H22_2 H 0.5438 0.0738 0.3094
C46_2 C 0.59865(13) 0.23841(8) 0.44442(6)
C47_2 C 0.43741(13) 0.01948(9) 0.26482(6)
C48_2 C 0.58546(17) 0.16900(12) 0.40100(8)
H23_2 H 0.6132 0.1707 0.4128
C49_2 C 0.44279(16) 0.07931(11) 0.31294(7)
H24_2 H 0.4284 0.0953 0.3260
C50_2 C 0.50445(16) 0.16279(12) 0.36530(8)
H25_2 H 0.4766 0.1612 0.3537
C51_2 C 0.53037(15) 0.19801(11) 0.39410(8)
H26_2 H 0.5197 0.2199 0.4014
C52_2 C 0.55967(15) 0.13314(11) 0.37232(9)
H27_2 H 0.5701 0.1108 0.3658
C53_2 C 0.41558(16) 0.04327(11) 0.28429(8)
H28_2 H 0.3833 0.0352 0.2783
C54_2 C 0.5000 0.5000 0.2500
C55_2 C 0.51562(11) 0.54596(8) 0.22512(5)
C56_2 C 0.48070(13) 0.61051(10) 0.14663(6)
C57_2 C 0.50897(13) 0.60072(10) 0.17771(6)
C58_2 C 0.42885(12) 0.63061(9) 0.08775(6)
C59_2 C 0.48824(11) 0.55469(8) 0.19680(6)
H29_2 H 0.4562 0.5300 0.1906
C60_2 C 0.40135(13) 0.63976(10) 0.05558(6)
C61_2 C 0.56259(13) 0.58207(10) 0.23518(6)
C62_2 C 0.41454(17) 0.58354(12) 0.09900(8)
H30_2 H 0.3868 0.5575 0.0872
C63_2 C 0.55721(16) 0.63652(11) 0.18706(7)
H31_2 H 0.5716 0.6669 0.1740
C64_2 C 0.49555(16) 0.65834(11) 0.13470(8)
H32_2 H 0.5234 0.6846 0.1463
C65_2 C 0.46963(15) 0.66764(10) 0.10590(8)
H33_2 H 0.4803 0.7002 0.0986
C66_2 C 0.44033(15) 0.57347(10) 0.12768(9)
H34_2 H 0.4299 0.5407 0.1342
C67_2 C 0.58442(16) 0.62769(11) 0.21571(8)
H35_2 H 0.6167 0.6519 0.2217
C68_2 C 0.48438(11) 0.45404(8) 0.22512(5)
C69_2 C 0.51930(13) 0.38949(10) 0.14663(6)
C70_2 C 0.49103(13) 0.39928(10) 0.17771(6)
C71_2 C 0.57115(12) 0.36939(9) 0.08775(6)
C72_2 C 0.51176(11) 0.44531(8) 0.19680(6)
H36_2 H 0.5438 0.4700 0.1906
C73_2 C 0.59865(13) 0.36024(10) 0.05558(6)
C74_2 C 0.43741(13) 0.41793(10) 0.23518(6)
C75_2 C 0.58546(17) 0.41646(12) 0.09900(8)
H37_2 H 0.6132 0.4425 0.0872
C76_2 C 0.44279(16) 0.36348(11) 0.18706(7)
H38_2 H 0.4284 0.3331 0.1740
C77_2 C 0.50445(16) 0.34166(11) 0.13470(8)
H39_2 H 0.4766 0.3154 0.1463
C78_2 C 0.53037(15) 0.33236(10) 0.10590(8)
H40_2 H 0.5197 0.2998 0.0986
C79_2 C 0.55967(15) 0.42653(10) 0.12768(9)
H41_2 H 0.5701 0.4593 0.1342
C80_2 C 0.41558(16) 0.37231(11) 0.21571(8)
H42_2 H 0.3833 0.3481 0.2217
C81_2 C 0.54596(8) 0.51562(11) 0.27488(5)
C82_2 C 0.61051(10) 0.48070(13) 0.35337(6)
C83_2 C 0.60072(10) 0.50897(13) 0.32229(6)
C84_2 C 0.63061(9) 0.42885(12) 0.41225(6)
C85_2 C 0.55469(8) 0.48824(11) 0.30320(6)
H43_2 H 0.5300 0.4562 0.3094
C86_2 C 0.63976(10) 0.40135(13) 0.44442(6)
C87_2 C 0.58207(10) 0.56259(13) 0.26482(6)
C88_2 C 0.58354(12) 0.41454(17) 0.40100(8)
H44_2 H 0.5575 0.3868 0.4128
C89_2 C 0.63652(11) 0.55721(16) 0.31294(7)
H45_2 H 0.6669 0.5716 0.3260
C90_2 C 0.65834(11) 0.49555(16) 0.36530(8)
H46_2 H 0.6846 0.5234 0.3537
C91_2 C 0.66764(10) 0.46963(15) 0.39410(8)
H47_2 H 0.7002 0.4803 0.4014
C92_2 C 0.57347(10) 0.44033(15) 0.37232(9)
H48_2 H 0.5407 0.4299 0.3658
C93_2 C 0.62769(11) 0.58442(16) 0.28429(8)
H49_2 H 0.6519 0.6167 0.2783
C94_2 C 0.45404(8) 0.48438(11) 0.27488(5)
C95_2 C 0.38949(10) 0.51930(13) 0.35337(6)
C96_2 C 0.39928(10) 0.49103(13) 0.32229(6)
C97_2 C 0.36939(9) 0.57115(12) 0.41225(6)
C98_2 C 0.44531(8) 0.51176(11) 0.30320(6)
H50_2 H 0.4700 0.5438 0.3094
C99_2 C 0.36024(10) 0.59865(13) 0.44442(6)
C100_2 C 0.41793(10) 0.43741(13) 0.26482(6)
C101_2 C 0.41646(12) 0.58546(17) 0.40100(8)
H51_2 H 0.4425 0.6132 0.4128
C102_2 C 0.36348(11) 0.44279(16) 0.31294(7)
H52_2 H 0.3331 0.4284 0.3260
C103_2 C 0.34166(11) 0.50445(16) 0.36530(8)
H53_2 H 0.3154 0.4766 0.3537
C104_2 C 0.33236(10) 0.53037(15) 0.39410(8)
H54_2 H 0.2998 0.5197 0.4014
C105_2 C 0.42653(10) 0.55967(15) 0.37232(9)
H55_2 H 0.4593 0.5701 0.3658
C106_2 C 0.37231(11) 0.41558(16) 0.28429(8)
H56_2 H 0.3481 0.3833 0.2783
C107_4 C 1.0000 0.5000 0.2500
C108_2 C 0.96966(8) 0.51562(11) 0.22512(5)
C109_2 C 0.87019(9) 0.48070(13) 0.14663(6)
C110_2 C 0.90825(9) 0.50897(13) 0.17771(6)
C111_2 C 0.79824(8) 0.42885(12) 0.08775(6)
C112_2 C 0.93355(8) 0.48824(11) 0.19680(6)
H57_2 H 0.9262 0.4562 0.1906
C113_2 C 0.76159(8) 0.40135(13) 0.05558(6)
C114_2 C 0.98052(9) 0.56259(13) 0.23518(6)
C115_2 C 0.83100(12) 0.41454(17) 0.09900(8)
H58_2 H 0.8293 0.3868 0.0872
C116_2 C 0.92069(11) 0.55721(16) 0.18706(7)
H59_2 H 0.9047 0.5716 0.1740
C117_2 C 0.83721(12) 0.49555(16) 0.13470(8)
H60_2 H 0.8388 0.5234 0.1463
C118_2 C 0.80199(11) 0.46963(15) 0.10590(8)
H61_2 H 0.7801 0.4803 0.0986
C119_2 C 0.86686(11) 0.44033(15) 0.12768(9)
H62_2 H 0.8892 0.4299 0.1342
C120_2 C 0.95673(11) 0.58442(16) 0.21571(8)
H63_2 H 0.9648 0.6167 0.2217
C147_2 C 0.96966(8) 0.45404(8) 0.27488(5)
C148_2 C 0.87019(9) 0.38949(10) 0.35337(6)
C149_2 C 0.90825(9) 0.39928(10) 0.32229(6)
C150_2 C 0.79824(8) 0.36939(9) 0.41225(6)
C151_2 C 0.93355(8) 0.44531(8) 0.30320(6)
H78_2 H 0.9262 0.4700 0.3094
C152_2 C 0.76159(8) 0.36024(10) 0.44442(6)
C153_2 C 0.98052(9) 0.41793(10) 0.26482(6)
C154_2 C 0.83100(12) 0.41646(12) 0.40100(8)
H79_2 H 0.8293 0.4425 0.4128
C155_2 C 0.92069(11) 0.36348(11) 0.31294(7)
H80_2 H 0.9047 0.3331 0.3260
C156_2 C 0.83721(12) 0.34166(11) 0.36530(8)
H81_2 H 0.8388 0.3154 0.3537
C157_2 C 0.80199(11) 0.33236(10) 0.39410(8)
H82_2 H 0.7801 0.2998 0.4014
C158_2 C 0.86686(11) 0.42653(10) 0.37232(9)
H83_2 H 0.8892 0.4593 0.3658
C159_2 C 0.95673(11) 0.37231(11) 0.28429(8)
H84_2 H 0.9648 0.3481 0.2783
C1_4 C 0.5000 1.0000 0.2500
C15_2 C 0.45404(8) 0.96966(8) 0.22512(5)
C16_2 C 0.38949(10) 0.87019(9) 0.14663(6)
C17_2 C 0.39928(10) 0.90825(9) 0.17771(6)
C18_2 C 0.36939(9) 0.79824(8) 0.08775(6)
C19_2 C 0.44531(8) 0.93355(8) 0.19680(6)
H8_2 H 0.4700 0.9262 0.1906
C20_2 C 0.36024(10) 0.76159(8) 0.05558(6)
C21_2 C 0.41793(10) 0.98052(9) 0.23518(6)
C22_2 C 0.41646(12) 0.83100(12) 0.09900(8)
H9_2 H 0.4425 0.8293 0.0872
C23_2 C 0.36348(11) 0.92069(11) 0.18706(7)
H10_2 H 0.3331 0.9047 0.1740
C24_2 C 0.34166(11) 0.83721(12) 0.13470(8)
H11_2 H 0.3154 0.8388 0.1463
C25_2 C 0.33236(10) 0.80199(11) 0.10590(8)
H12_2 H 0.2998 0.7801 0.0986
C26_2 C 0.42653(10) 0.86686(11) 0.12768(9)
H13_2 H 0.4593 0.8892 0.1342
C27_2 C 0.37231(11) 0.95673(11) 0.21571(8)
H14_2 H 0.3481 0.9648 0.2217
C28_2 C 0.51562(11) 0.96966(8) 0.27488(5)
C29_2 C 0.48070(13) 0.87019(9) 0.35337(6)
C30_2 C 0.50897(13) 0.90825(9) 0.32229(6)
C31_2 C 0.42885(12) 0.79824(8) 0.41225(6)
C32_2 C 0.48824(11) 0.93355(8) 0.30320(6)
H15_2 H 0.4562 0.9262 0.3094
C33_2 C 0.40135(13) 0.76159(8) 0.44442(6)
C34_2 C 0.56259(13) 0.98052(9) 0.26482(6)
C35_2 C 0.41454(17) 0.83100(12) 0.40100(8)
H16_2 H 0.3868 0.8293 0.4128
C36_2 C 0.55721(16) 0.92069(11) 0.31294(7)
H17_2 H 0.5716 0.9047 0.3260
C37_2 C 0.49555(16) 0.83721(12) 0.36530(8)
H18_2 H 0.5234 0.8388 0.3537
C38_2 C 0.46963(15) 0.80199(11) 0.39410(8)
H19_2 H 0.4803 0.7801 0.4014
C39_2 C 0.44033(15) 0.86686(11) 0.37232(9)
H20_2 H 0.4299 0.8892 0.3658
C40_2 C 0.58442(16) 0.95673(11) 0.28429(8)
H21_2 H 0.6167 0.9648 0.2783
loop_
_geom_bond_atom_site_label_1
_geom_bond_atom_site_label_2
_geom_bond_site_symmetry_1
_geom_bond_site_symmetry_2
O30 Fe4 1_555 1_555
O34 Fe4 1_555 1_555
O35 Fe4 1_555 1_555
O48 Fe4 1_555 1_555
Fe10 O34 1_555 1_555
O5 C20 1_555 1_555
C15 C1 1_555 1_555
C16 C17 1_555 1_555
C17 C19 1_555 1_555
C18 C20 1_555 1_555
C19 C15 1_555 1_555
H8 C19 1_555 1_555
O6 C20 1_555 1_555
C21 C15 1_555 1_555
C22 C18 1_555 1_555
H9 C22 1_555 1_555
C23 C17 1_555 1_555
H10 C23 1_555 1_555
C24 C16 1_555 1_555
H11 C24 1_555 1_555
C25 C18 1_555 1_555
H12 C25 1_555 1_555
C26 C16 1_555 1_555
H13 C26 1_555 1_555
C27 C21 1_555 1_555
H14 C27 1_555 1_555
O7 C33 1_555 1_555
C28 C1 1_555 1_555
C29 C30 1_555 1_555
C30 C32 1_555 1_555
C31 C33 1_555 1_555
C32 C28 1_555 1_555
H15 C32 1_555 1_555
O8 C33 1_555 1_555
C35 C31 1_555 1_555
H16 C35 1_555 1_555
C36 C30 1_555 1_555
H17 C36 1_555 1_555
C37 C29 1_555 1_555
H18 C37 1_555 1_555
C38 C31 1_555 1_555
H19 C38 1_555 1_555
C39 C29 1_555 1_555
H20 C39 1_555 1_555
C40 C34 1_555 1_555
H21 C40 1_555 1_555
Fe4_2 O5 1_555 1_555
O30_2 Fe4_2 1_555 1_555
Fe10_2 O6 1_555 1_555
Fe12 O7 1_555 1_555
Fe14 O8 1_555 1_555
O34_2 Fe4_2 1_555 1_555
O41 Fe4_2 1_555 1_555
C22 C26 1_555 1_555
C23 C27 1_555 1_555
C24 C25 1_555 1_555
C28 C34 1_555 1_555
C35 C39 1_555 1_555
C36 C40 1_555 1_555
C37 C38 1_555 1_555
Fe10_2 O34_2 1_555 1_555
Fe1 O1 1_555 1_555
O2 Fe1 1_555 1_555
Fe2 O11 1_555 1_555
O34 Fe2 1_555 1_555
Fe3 O2 1_555 1_555
O21 Fe3 1_555 1_555
Fe5 O2 1_555 1_555
O31 Fe5 1_555 1_555
O36 Fe5 1_555 1_555
O38 Fe1 1_555 1_555
O39 Fe2 1_555 1_555
O40 Fe3 1_555 1_555
O45 Fe1 1_555 1_555
O46 Fe2 1_555 1_555
O47 Fe3 1_555 1_555
O49 Fe5 1_555 1_555
Fe1_2 O1_2 1_555 1_555
C1_2 C2 1_555 1_555
O2_2 Fe1_2 1_555 1_555
O3 Fe1_2 1_555 1_555
C2 C6 1_555 1_555
C3 C4 1_555 1_555
C4 C6 1_555 1_555
C5 C7 1_555 1_555
C6 H1 1_555 1_555
O4 C7 1_555 1_555
C7 O3 1_555 1_555
C8 C2 1_555 1_555
C9 C5 1_555 1_555
H2 C9 1_555 1_555
C10 C4 1_555 1_555
H3 C10 1_555 1_555
C11 C3 1_555 1_555
H4 C11 1_555 1_555
C12 C5 1_555 1_555
H5 C12 1_555 1_555
C13 C3 1_555 1_555
H6 C13 1_555 1_555
C14 C8 1_555 1_555
H7 C14 1_555 1_555
O9 C46 1_555 1_555
C41 C1_2 1_555 1_555
C42 C43 1_555 1_555
C43 C45 1_555 1_555
C44 C46 1_555 1_555
C45 C41 1_555 1_555
H22 C45 1_555 1_555
O10 C46 1_555 1_555
C48 C44 1_555 1_555
H23 C48 1_555 1_555
C49 C43 1_555 1_555
H24 C49 1_555 1_555
C50 C42 1_555 1_555
H25 C50 1_555 1_555
C51 C44 1_555 1_555
H26 C51 1_555 1_555
C52 C42 1_555 1_555
H27 C52 1_555 1_555
C53 C47 1_555 1_555
H28 C53 1_555 1_555
Fe2_2 O11_2 1_555 1_555
C54 C55 1_555 1_555
O34_2 Fe2_2 1_555 1_555
O13 Fe2_2 1_555 1_555
C55 C59 1_555 1_555
C56 C57 1_555 1_555
C57 C59 1_555 1_555
C58 C60 1_555 1_555
C59 H29 1_555 1_555
O41 C60 1_555 1_555
C60 O13 1_555 1_555
C61 C55 1_555 1_555
C62 C58 1_555 1_555
H30 C62 1_555 1_555
C63 C57 1_555 1_555
H31 C63 1_555 1_555
C64 C56 1_555 1_555
H32 C64 1_555 1_555
C65 C58 1_555 1_555
H33 C65 1_555 1_555
C66 C56 1_555 1_555
H34 C66 1_555 1_555
C67 C61 1_555 1_555
H35 C67 1_555 1_555
O15 C73 1_555 1_555
C68 C54 1_555 1_555
C69 C70 1_555 1_555
C70 C72 1_555 1_555
C71 C73 1_555 1_555
C72 C68 1_555 1_555
H36 C72 1_555 1_555
O16 Fe1_2 1_555 1_555
C73 O16 1_555 1_555
C74 C68 1_555 1_555
C75 C71 1_555 1_555
H37 C75 1_555 1_555
C76 C70 1_555 1_555
H38 C76 1_555 1_555
C77 C69 1_555 1_555
H39 C77 1_555 1_555
C78 C71 1_555 1_555
H40 C78 1_555 1_555
C79 C69 1_555 1_555
H41 C79 1_555 1_555
C80 C74 1_555 1_555
H42 C80 1_555 1_555
O17 C86 1_555 1_555
C81 C54 1_555 1_555
C82 C83 1_555 1_555
C83 C85 1_555 1_555
C84 C86 1_555 1_555
C85 C81 1_555 1_555
H43 C85 1_555 1_555
O18 C86 1_555 1_555
C87 C61 1_555 1_555
C88 C84 1_555 1_555
H44 C88 1_555 1_555
C89 C83 1_555 1_555
H45 C89 1_555 1_555
C90 C82 1_555 1_555
H46 C90 1_555 1_555
C91 C84 1_555 1_555
H47 C91 1_555 1_555
C92 C82 1_555 1_555
H48 C92 1_555 1_555
C93 C87 1_555 1_555
H49 C93 1_555 1_555
O19 C99 1_555 1_555
C94 C54 1_555 1_555
C95 C96 1_555 1_555
C96 C98 1_555 1_555
C97 C99 1_555 1_555
C98 C94 1_555 1_555
H50 C98 1_555 1_555
O20 C99 1_555 1_555
C100 C74 1_555 1_555
C101 C97 1_555 1_555
H51 C101 1_555 1_555
C102 C96 1_555 1_555
H52 C102 1_555 1_555
C103 C95 1_555 1_555
H53 C103 1_555 1_555
C104 C97 1_555 1_555
H54 C104 1_555 1_555
C105 C95 1_555 1_555
H55 C105 1_555 1_555
C106 C100 1_555 1_555
H56 C106 1_555 1_555
Fe3_2 O2_2 1_555 1_555
C107 C108 1_555 1_555
O21_2 Fe3_2 1_555 1_555
O22 Fe3_2 1_555 1_555
C108 C112 1_555 1_555
C109 C110 1_555 1_555
C110 C112 1_555 1_555
C111 C113 1_555 1_555
C112 H57 1_555 1_555
O23 C113 1_555 1_555
C113 O22 1_555 1_555
C114 C108 1_555 1_555
C115 C111 1_555 1_555
H58 C115 1_555 1_555
C116 C110 1_555 1_555
H59 C116 1_555 1_555
C117 C109 1_555 1_555
H60 C117 1_555 1_555
C118 C111 1_555 1_555
H61 C118 1_555 1_555
C119 C109 1_555 1_555
H62 C119 1_555 1_555
C120 C114 1_555 1_555
H63 C120 1_555 1_555
O28 C152 1_555 1_555
C147 C107 1_555 1_555
C148 C149 1_555 1_555
C149 C151 1_555 1_555
C150 C152 1_555 1_555
C151 C147 1_555 1_555
H78 C151 1_555 1_555
O29 C152 1_555 1_555
C154 C150 1_555 1_555
H79 C154 1_555 1_555
C155 C149 1_555 1_555
H80 C155 1_555 1_555
C156 C148 1_555 1_555
H81 C156 1_555 1_555
C157 C150 1_555 1_555
H82 C157 1_555 1_555
C158 C148 1_555 1_555
H83 C158 1_555 1_555
C159 C153 1_555 1_555
H84 C159 1_555 1_555
Fe5_2 O2_2 1_555 1_555
O31_2 Fe5_2 1_555 1_555
Fe14 O19 1_555 1_555
Fe16 O20 1_555 1_555
Fe17 O18 1_555 1_555
Fe18 O9 1_555 1_555
Fe19 O10 1_555 1_555
O43 Fe2_2 1_555 1_555
O4 Fe3_2 1_555 1_555
C9 C13 1_555 1_555
C10 C14 1_555 1_555
C11 C12 1_555 1_555
C41 C47 1_555 1_555
C48 C52 1_555 1_555
C49 C53 1_555 1_555
C50 C51 1_555 1_555
C62 C66 1_555 1_555
C63 C67 1_555 1_555
C64 C65 1_555 1_555
O15 Fe5_2 1_555 1_555
C75 C79 1_555 1_555
C76 C80 1_555 1_555
C77 C78 1_555 1_555
O17 Fe19 1_555 1_555
C81 C87 1_555 1_555
C88 C92 1_555 1_555
C89 C93 1_555 1_555
C90 C91 1_555 1_555
C94 C100 1_555 1_555
C101 C105 1_555 1_555
C102 C106 1_555 1_555
C103 C104 1_555 1_555
O23 Fe5_2 1_555 1_555
C115 C119 1_555 1_555
C116 C120 1_555 1_555
C117 C118 1_555 1_555
O28 Fe17 1_555 1_555
C147 C153 1_555 1_555
O29 Fe18 1_555 1_555
C154 C158 1_555 1_555
C155 C159 1_555 1_555
C156 C157 1_555 1_555
O32 Fe10 1_555 1_555
O37 Fe10 1_555 1_555
O44 Fe10 1_555 1_555
O24 C126 1_555 1_555
C121 C107_2 1_555 1_555
C122 C123 1_555 1_555
C123 C125 1_555 1_555
C124 C126 1_555 1_555
C125 C121 1_555 1_555
H64 C125 1_555 1_555
O43 C126 1_555 1_555
C127 C121 1_555 1_555
C128 C124 1_555 1_555
H65 C128 1_555 1_555
C129 C123 1_555 1_555
H66 C129 1_555 1_555
C130 C122 1_555 1_555
H67 C130 1_555 1_555
C131 C124 1_555 1_555
H68 C131 1_555 1_555
C132 C122 1_555 1_555
H69 C132 1_555 1_555
C133 C127 1_555 1_555
H70 C133 1_555 1_555
O26 C139 1_555 1_555
C134 C107_2 1_555 1_555
C135 C136 1_555 1_555
C136 C138 1_555 1_555
C137 C139 1_555 1_555
C138 C134 1_555 1_555
H71 C138 1_555 1_555
O27 C139 1_555 1_555
C141 C137 1_555 1_555
H72 C141 1_555 1_555
C142 C136 1_555 1_555
H73 C142 1_555 1_555
C143 C135 1_555 1_555
H74 C143 1_555 1_555
C144 C137 1_555 1_555
H75 C144 1_555 1_555
C145 C135 1_555 1_555
H76 C145 1_555 1_555
C146 C140 1_555 1_555
H77 C146 1_555 1_555
Fe10_2 O24 1_555 1_555
O32_2 Fe10_2 1_555 1_555
Fe12 O27 1_555 1_555
Fe16 O26 1_555 1_555
C128 C132 1_555 1_555
C129 C133 1_555 1_555
C130 C131 1_555 1_555
C134 C140 1_555 1_555
C141 C145 1_555 1_555
C142 C146 1_555 1_555
C143 C144 1_555 1_555
Fe17 O11_3 1_555 1_555
O12 Fe17 1_555 1_555
Fe18 O12 1_555 1_555
Fe19 O12 1_555 1_555
O39_2 Fe17 1_555 1_555
O46_2 Fe17 1_555 1_555
Fe12 O1_3 1_555 1_555
O2_3 Fe12 1_555 1_555
Fe14 O2_3 1_555 1_555
O21_3 Fe14 1_555 1_555
Fe16 O2_3 1_555 1_555
O31_3 Fe16 1_555 1_555
O32_3 Fe19 1_555 1_555
O36_2 Fe16 1_555 1_555
O37_2 Fe19 1_555 1_555
O38_2 Fe12 1_555 1_555
O40_2 Fe14 1_555 1_555
O44_2 Fe19 1_555 1_555
O45_2 Fe12 1_555 1_555
O47_2 Fe14 1_555 1_555
O49_2 Fe16 1_555 1_555
O30_3 Fe18 1_555 1_555
O35_2 Fe18 1_555 1_555
O48_2 Fe18 1_555 1_555
O40 C126_2 1_555 1_555
C121_2 C107_3 1_555 1_555
C122_2 C123_2 1_555 1_555
C123_2 C125_2 1_555 1_555
C124_2 C126_2 1_555 1_555
C125_2 C121_2 1_555 1_555
H64_2 C125_2 1_555 1_555
O49 C126_2 1_555 1_555
C127_2 C121_2 1_555 1_555
C128_2 C124_2 1_555 1_555
H65_2 C128_2 1_555 1_555
C129_2 C123_2 1_555 1_555
H66_2 C129_2 1_555 1_555
C130_2 C122_2 1_555 1_555
H67_2 C130_2 1_555 1_555
C131_2 C124_2 1_555 1_555
H68_2 C131_2 1_555 1_555
C132_2 C122_2 1_555 1_555
H69_2 C132_2 1_555 1_555
C133_2 C127_2 1_555 1_555
H70_2 C133_2 1_555 1_555
O39_2 C139_2 1_555 1_555
C134_2 C107_3 1_555 1_555
C135_2 C136_2 1_555 1_555
C136_2 C138_2 1_555 1_555
C137_2 C139_2 1_555 1_555
C138_2 C134_2 1_555 1_555
H71_2 C138_2 1_555 1_555
O48_2 C139_2 1_555 1_555
C141_2 C137_2 1_555 1_555
H72_2 C141_2 1_555 1_555
C142_2 C136_2 1_555 1_555
H73_2 C142_2 1_555 1_555
C143_2 C135_2 1_555 1_555
H74_2 C143_2 1_555 1_555
C144_2 C137_2 1_555 1_555
H75_2 C144_2 1_555 1_555
C145_2 C135_2 1_555 1_555
H76_2 C145_2 1_555 1_555
C146_2 C140_2 1_555 1_555
H77_2 C146_2 1_555 1_555
C128_2 C132_2 1_555 1_555
C129_2 C133_2 1_555 1_555
C130_2 C131_2 1_555 1_555
C134_2 C140_2 1_555 1_555
C141_2 C145_2 1_555 1_555
C142_2 C146_2 1_555 1_555
C143_2 C144_2 1_555 1_555
C1_3 C2_2 1_555 1_555
C2_2 C6_2 1_555 1_555
C3_2 C4_2 1_555 1_555
C4_2 C6_2 1_555 1_555
C5_2 C7_2 1_555 1_555
C6_2 H1_2 1_555 1_555
O44 C7_2 1_555 1_555
C7_2 O35 1_555 1_555
C8_2 C2_2 1_555 1_555
C9_2 C5_2 1_555 1_555
H2_2 C9_2 1_555 1_555
C10_2 C4_2 1_555 1_555
H3_2 C10_2 1_555 1_555
C11_2 C3_2 1_555 1_555
H4_2 C11_2 1_555 1_555
C12_2 C5_2 1_555 1_555
H5_2 C12_2 1_555 1_555
C13_2 C3_2 1_555 1_555
H6_2 C13_2 1_555 1_555
C14_2 C8_2 1_555 1_555
H7_2 C14_2 1_555 1_555
O38_2 C46_2 1_555 1_555
C41_2 C1_3 1_555 1_555
C42_2 C43_2 1_555 1_555
C43_2 C45_2 1_555 1_555
C44_2 C46_2 1_555 1_555
C45_2 C41_2 1_555 1_555
H22_2 C45_2 1_555 1_555
O47_2 C46_2 1_555 1_555
C48_2 C44_2 1_555 1_555
H23_2 C48_2 1_555 1_555
C49_2 C43_2 1_555 1_555
H24_2 C49_2 1_555 1_555
C50_2 C42_2 1_555 1_555
H25_2 C50_2 1_555 1_555
C51_2 C44_2 1_555 1_555
H26_2 C51_2 1_555 1_555
C52_2 C42_2 1_555 1_555
H27_2 C52_2 1_555 1_555
C53_2 C47_2 1_555 1_555
H28_2 C53_2 1_555 1_555
C54_2 C55_2 1_555 1_555
C55_2 C59_2 1_555 1_555
C56_2 C57_2 1_555 1_555
C57_2 C59_2 1_555 1_555
C58_2 C60_2 1_555 1_555
C59_2 H29_2 1_555 1_555
O45 C60_2 1_555 1_555
C60_2 O36 1_555 1_555
C61_2 C55_2 1_555 1_555
C62_2 C58_2 1_555 1_555
H30_2 C62_2 1_555 1_555
C63_2 C57_2 1_555 1_555
H31_2 C63_2 1_555 1_555
C64_2 C56_2 1_555 1_555
H32_2 C64_2 1_555 1_555
C65_2 C58_2 1_555 1_555
H33_2 C65_2 1_555 1_555
C66_2 C56_2 1_555 1_555
H34_2 C66_2 1_555 1_555
C67_2 C61_2 1_555 1_555
H35_2 C67_2 1_555 1_555
O39 C73_2 1_555 1_555
C68_2 C54_2 1_555 1_555
C69_2 C70_2 1_555 1_555
C70_2 C72_2 1_555 1_555
C71_2 C73_2 1_555 1_555
C72_2 C68_2 1_555 1_555
H36_2 C72_2 1_555 1_555
C73_2 O48 1_555 1_555
C74_2 C68_2 1_555 1_555
C75_2 C71_2 1_555 1_555
H37_2 C75_2 1_555 1_555
C76_2 C70_2 1_555 1_555
H38_2 C76_2 1_555 1_555
C77_2 C69_2 1_555 1_555
H39_2 C77_2 1_555 1_555
C78_2 C71_2 1_555 1_555
H40_2 C78_2 1_555 1_555
C79_2 C69_2 1_555 1_555
H41_2 C79_2 1_555 1_555
C80_2 C74_2 1_555 1_555
H42_2 C80_2 1_555 1_555
O40_2 C86_2 1_555 1_555
C81_2 C54_2 1_555 1_555
C82_2 C83_2 1_555 1_555
C83_2 C85_2 1_555 1_555
C84_2 C86_2 1_555 1_555
C85_2 C81_2 1_555 1_555
H43_2 C85_2 1_555 1_555
O49_2 C86_2 1_555 1_555
C87_2 C61_2 1_555 1_555
C88_2 C84_2 1_555 1_555
H44_2 C88_2 1_555 1_555
C89_2 C83_2 1_555 1_555
H45_2 C89_2 1_555 1_555
C90_2 C82_2 1_555 1_555
H46_2 C90_2 1_555 1_555
C91_2 C84_2 1_555 1_555
H47_2 C91_2 1_555 1_555
C92_2 C82_2 1_555 1_555
H48_2 C92_2 1_555 1_555
C93_2 C87_2 1_555 1_555
H49_2 C93_2 1_555 1_555
O37_2 C99_2 1_555 1_555
C94_2 C54_2 1_555 1_555
C95_2 C96_2 1_555 1_555
C96_2 C98_2 1_555 1_555
C97_2 C99_2 1_555 1_555
C98_2 C94_2 1_555 1_555
H50_2 C98_2 1_555 1_555
O46_2 C99_2 1_555 1_555
C100_2 C74_2 1_555 1_555
C101_2 C97_2 1_555 1_555
H51_2 C101_2 1_555 1_555
C102_2 C96_2 1_555 1_555
H52_2 C102_2 1_555 1_555
C103_2 C95_2 1_555 1_555
H53_2 C103_2 1_555 1_555
C104_2 C97_2 1_555 1_555
H54_2 C104_2 1_555 1_555
C105_2 C95_2 1_555 1_555
H55_2 C105_2 1_555 1_555
C106_2 C100_2 1_555 1_555
H56_2 C106_2 1_555 1_555
C107_4 C108_2 1_555 1_555
C108_2 C112_2 1_555 1_555
C109_2 C110_2 1_555 1_555
C110_2 C112_2 1_555 1_555
C111_2 C113_2 1_555 1_555
C112_2 H57_2 1_555 1_555
O46 C113_2 1_555 1_555
C113_2 O37 1_555 1_555
C114_2 C108_2 1_555 1_555
C115_2 C111_2 1_555 1_555
H58_2 C115_2 1_555 1_555
C116_2 C110_2 1_555 1_555
H59_2 C116_2 1_555 1_555
C117_2 C109_2 1_555 1_555
H60_2 C117_2 1_555 1_555
C118_2 C111_2 1_555 1_555
H61_2 C118_2 1_555 1_555
C119_2 C109_2 1_555 1_555
H62_2 C119_2 1_555 1_555
C120_2 C114_2 1_555 1_555
H63_2 C120_2 1_555 1_555
O36_2 C152_2 1_555 1_555
C147_2 C107_4 1_555 1_555
C148_2 C149_2 1_555 1_555
C149_2 C151_2 1_555 1_555
C150_2 C152_2 1_555 1_555
C151_2 C147_2 1_555 1_555
H78_2 C151_2 1_555 1_555
O45_2 C152_2 1_555 1_555
C154_2 C150_2 1_555 1_555
H79_2 C154_2 1_555 1_555
C155_2 C149_2 1_555 1_555
H80_2 C155_2 1_555 1_555
C156_2 C148_2 1_555 1_555
H81_2 C156_2 1_555 1_555
C157_2 C150_2 1_555 1_555
H82_2 C157_2 1_555 1_555
C158_2 C148_2 1_555 1_555
H83_2 C158_2 1_555 1_555
C159_2 C153_2 1_555 1_555
H84_2 C159_2 1_555 1_555
C9_2 C13_2 1_555 1_555
C10_2 C14_2 1_555 1_555
C11_2 C12_2 1_555 1_555
C41_2 C47_2 1_555 1_555
C48_2 C52_2 1_555 1_555
C49_2 C53_2 1_555 1_555
C50_2 C51_2 1_555 1_555
C62_2 C66_2 1_555 1_555
C63_2 C67_2 1_555 1_555
C64_2 C65_2 1_555 1_555
C75_2 C79_2 1_555 1_555
C76_2 C80_2 1_555 1_555
C77_2 C78_2 1_555 1_555
C81_2 C87_2 1_555 1_555
C88_2 C92_2 1_555 1_555
C89_2 C93_2 1_555 1_555
C90_2 C91_2 1_555 1_555
C94_2 C100_2 1_555 1_555
C101_2 C105_2 1_555 1_555
C102_2 C106_2 1_555 1_555
C103_2 C104_2 1_555 1_555
C115_2 C119_2 1_555 1_555
C116_2 C120_2 1_555 1_555
C117_2 C118_2 1_555 1_555
C147_2 C153_2 1_555 1_555
C154_2 C158_2 1_555 1_555
C155_2 C159_2 1_555 1_555
C156_2 C157_2 1_555 1_555
O38 C20_2 1_555 1_555
C15_2 C1_4 1_555 1_555
C16_2 C17_2 1_555 1_555
C17_2 C19_2 1_555 1_555
C18_2 C20_2 1_555 1_555
C19_2 C15_2 1_555 1_555
H8_2 C19_2 1_555 1_555
O47 C20_2 1_555 1_555
C21_2 C15_2 1_555 1_555
C22_2 C18_2 1_555 1_555
H9_2 C22_2 1_555 1_555
C23_2 C17_2 1_555 1_555
H10_2 C23_2 1_555 1_555
C24_2 C16_2 1_555 1_555
H11_2 C24_2 1_555 1_555
C25_2 C18_2 1_555 1_555
H12_2 C25_2 1_555 1_555
C26_2 C16_2 1_555 1_555
H13_2 C26_2 1_555 1_555
C27_2 C21_2 1_555 1_555
H14_2 C27_2 1_555 1_555
O35_2 C33_2 1_555 1_555
C28_2 C1_4 1_555 1_555
C29_2 C30_2 1_555 1_555
C30_2 C32_2 1_555 1_555
C31_2 C33_2 1_555 1_555
C32_2 C28_2 1_555 1_555
H15_2 C32_2 1_555 1_555
O44_2 C33_2 1_555 1_555
C35_2 C31_2 1_555 1_555
H16_2 C35_2 1_555 1_555
C36_2 C30_2 1_555 1_555
H17_2 C36_2 1_555 1_555
C37_2 C29_2 1_555 1_555
H18_2 C37_2 1_555 1_555
C38_2 C31_2 1_555 1_555
H19_2 C38_2 1_555 1_555
C39_2 C29_2 1_555 1_555
H20_2 C39_2 1_555 1_555
C40_2 C34_2 1_555 1_555
H21_2 C40_2 1_555 1_555
C22_2 C26_2 1_555 1_555
C23_2 C27_2 1_555 1_555
C24_2 C25_2 1_555 1_555
C28_2 C34_2 1_555 1_555
C35_2 C39_2 1_555 1_555
C36_2 C40_2 1_555 1_555
C37_2 C38_2 1_555 1_555

#END
