
###############################################################################
#
# This file contains modified crystal structure data generated from the
# MOF subset of the Cambridge Structural Database (CSD) v543 
# hosted by the Cambridge Crystallographic Data Centre (CCDC).
#
# This work is licensed under the Creative Commons
# Attribution-NonCommercial-ShareAlike 4.0 International License.
# To view a copy of this license, visit
# http://creativecommons.org/licenses/by-nc-sa/4.0/
# or send a letter to
# Creative Commons, PO Box 1866, Mountain View, CA 94042, USA.
#
# CIF created using the CSD Python API on 29 September 2022
# The structure has been converted into the P1 space group
# The structure has a 3D framework
# The original CSD entry QOTLOD02 is in the hexagonal crystal system
# The framework has been calculated to contain at least 10.0% void space
# The void calculation uses a probe of radius 1.32A, grid spacing 0.4
# The framework is charged, counterions have been retained in the structure
# H atom positions have been added when not included in the experimental data
# Generated hydrogen atom positions removed from atoms on special positions
#
###############################################################################

data_QOTLOD02
_chemical_formula_moiety         '(C322 H264 Fe18 O70 2+)n'
_symmetry_cell_setting           triclinic
_symmetry_space_group_name_H-M   'P 1'
_symmetry_Int_Tables_number      1
_space_group_name_Hall           'P 1'
loop_
_symmetry_equiv_pos_site_id
_symmetry_equiv_pos_as_xyz
1 x,y,z
_cell_length_a                   29.2327(15)
_cell_length_b                   29.233
_cell_length_c                   35.385(2)
_cell_angle_alpha                90
_cell_angle_beta                 90
_cell_angle_gamma                120
_cell_volume                     26187.4
loop_
_atom_site_label
_atom_site_type_symbol
_atom_site_fract_x
_atom_site_fract_y
_atom_site_fract_z
C4 C 0.0000 0.5000 0.2500
O5 O 0.26008(19) 0.57303(17) 0.04179(12)
O6 O 0.23662(19) 0.63448(18) 0.04131(12)
C15 C 0.1295(3) 0.5165(5) 0.1465(3)
C16 C 0.2006(3) 0.5664(4) 0.0852(3)
C17 C 0.0210(2) 0.4357(4) 0.23448(16)
C18 C 0.0312(3) 0.4836(4) 0.22682(19)
C19 C 0.0931(3) 0.4872(4) 0.1791(2)
C20 C 0.0677(3) 0.5107(2) 0.19812(18)
H8 H 0.0754 0.5452 0.1913
C21 C 0.1340(4) 0.5590(6) 0.1322(4)
H9 H 0.1126 0.5728 0.1411
C22 C 0.0815(3) 0.4375(5) 0.1872(2)
H10 H 0.0975 0.4215 0.1732
C23 C 0.1718(5) 0.5854(3) 0.1027(4)
H11 H 0.1772 0.6188 0.0946
C24 C 0.0455(4) 0.4092(3) 0.2164(3)
H12 H 0.0379 0.3748 0.2236
C25 C 0.2380(3) 0.5967(3) 0.0505(2)
C26 C 0.1580(5) 0.4973(3) 0.1328(3)
H13 H 0.1547 0.4656 0.1427
C27 C 0.1962(4) 0.5264(6) 0.1012(3)
H14 H 0.2184 0.5134 0.0929
O7 O 0.26008(19) 0.68705(25) 0.45821(12)
O8 O 0.23662(19) 0.60214(26) 0.45869(12)
C28 C 0.1295(3) 0.6130(6) 0.3535(3)
C29 C 0.2006(3) 0.6342(5) 0.4148(3)
C30 C 0.0210(2) 0.5853(4) 0.26552(16)
C31 C 0.0312(3) 0.5476(5) 0.27318(19)
C32 C 0.0931(3) 0.6059(5) 0.3209(2)
C33 C 0.0677(3) 0.5570(4) 0.30188(18)
H15 H 0.0754 0.5302 0.3087
C34 C 0.1340(4) 0.5750(7) 0.3678(4)
H16 H 0.1126 0.5398 0.3589
C35 C 0.0815(3) 0.6440(6) 0.3128(2)
H17 H 0.0975 0.6760 0.3268
C36 C 0.1718(5) 0.5864(6) 0.3973(4)
H18 H 0.1772 0.5584 0.4054
C37 C 0.0455(4) 0.6363(5) 0.2836(3)
H19 H 0.0379 0.6631 0.2764
C38 C 0.2380(3) 0.6413(4) 0.4495(2)
C39 C 0.1580(5) 0.6607(6) 0.3672(3)
H20 H 0.1547 0.6891 0.3573
C40 C 0.1962(4) 0.6698(7) 0.3988(3)
H21 H 0.2184 0.7050 0.4071
Fe4 Fe 0.27958(4) 0.68549(4) 0.0000
O30 O 0.22297(18) 0.70530(17) 0.0000
Fe10 Fe 0.31451(4) 0.59409(6) 0.0000
Fe14 Fe 0.27958(4) 0.59409(6) 0.5000
Fe16 Fe 0.31451(4) 0.72042(4) 0.5000
O33 O 0.31295(25) 0.73992(19) 0.04179(12)
O49 O 0.3334 0.6667 0.0000
Fe4_2 Fe 0.27958(4) 0.68549(4) 1.0000
O30_2 O 0.22297(18) 0.70530(17) 1.0000
Fe10_2 Fe 0.31451(4) 0.59409(6) 1.0000
O40 O 0.31295(25) 0.73992(19) 0.95821(12)
O42 O 0.23662(19) 0.63448(18) 0.95869(12)
O49_2 O 0.3334 0.6667 1.0000
Fe1 Fe 0.72042(4) 0.31451(4) 0.0000
O1 O 0.73992(19) 0.42697(17) 0.04179(12)
O2 O 0.77703(18) 0.29470(17) 0.0000
O3 O 0.76338(19) 0.36552(18) 0.04131(12)
C1 C 0.8705(3) 0.4835(5) 0.1465(3)
C2 C 0.7994(3) 0.4336(4) 0.0852(3)
C3 C 0.9790(2) 0.5643(4) 0.23448(16)
C4_2 C 1.0000 0.5000 0.2500
C5 C 0.9688(3) 0.5164(4) 0.22682(19)
O4 O 0.6667 0.3333 0.0000
C6 C 0.9069(3) 0.5128(4) 0.1791(2)
C7 C 0.9323(3) 0.4893(2) 0.19812(18)
H1 H 0.9246 0.4548 0.1913
C8 C 0.8660(4) 0.4410(6) 0.1322(4)
H2 H 0.8874 0.4272 0.1411
C9 C 0.9185(3) 0.5625(5) 0.1872(2)
H3 H 0.9025 0.5785 0.1732
C10 C 0.8282(5) 0.4146(3) 0.1027(4)
H4 H 0.8228 0.3812 0.0946
C11 C 0.9545(4) 0.5908(3) 0.2164(3)
H5 H 0.9621 0.6252 0.2236
C12 C 0.7620(3) 0.4033(3) 0.0505(2)
C13 C 0.8420(5) 0.5027(3) 0.1328(3)
H6 H 0.8453 0.5344 0.1427
C14 C 0.8038(4) 0.4736(6) 0.1012(3)
H7 H 0.7816 0.4866 0.0929
O9 O 0.73992(19) 0.31295(25) 0.45821(12)
O10 O 0.76338(19) 0.39786(26) 0.45869(12)
C41 C 0.8705(3) 0.3870(6) 0.3535(3)
C42 C 0.7994(3) 0.3658(5) 0.4148(3)
C43 C 0.9790(2) 0.4147(4) 0.26552(16)
C44 C 0.9688(3) 0.4524(5) 0.27318(19)
C45 C 0.9069(3) 0.3941(5) 0.3209(2)
C46 C 0.9323(3) 0.4430(4) 0.30188(18)
H22 H 0.9246 0.4698 0.3087
C47 C 0.8660(4) 0.4250(7) 0.3678(4)
H23 H 0.8874 0.4602 0.3589
C48 C 0.9185(3) 0.3560(6) 0.3128(2)
H24 H 0.9025 0.3240 0.3268
C49 C 0.8282(5) 0.4136(6) 0.3973(4)
H25 H 0.8228 0.4416 0.4054
C50 C 0.9545(4) 0.3637(5) 0.2836(3)
H26 H 0.9621 0.3369 0.2764
C51 C 0.7620(3) 0.3587(4) 0.4495(2)
C52 C 0.8420(5) 0.3393(6) 0.3672(3)
H27 H 0.8453 0.3109 0.3573
C53 C 0.8038(4) 0.3302(7) 0.3988(3)
H28 H 0.7816 0.2950 0.4071
C57 C 0.5000 -0.0000 0.2500
O15 O 0.68705(25) 0.26008(19) 0.04179(12)
O16 O 0.60214(26) 0.23662(19) 0.04131(12)
C68 C 0.6130(6) 0.1295(3) 0.1465(3)
C69 C 0.6342(5) 0.2006(3) 0.0852(3)
C70 C 0.5853(4) 0.0210(2) 0.23448(16)
C71 C 0.5476(5) 0.0312(3) 0.22682(19)
C72 C 0.6059(5) 0.0931(3) 0.1791(2)
C73 C 0.5570(4) 0.0677(3) 0.19812(18)
H36 H 0.5302 0.0754 0.1913
C74 C 0.5750(7) 0.1340(4) 0.1322(4)
H37 H 0.5398 0.1126 0.1411
C75 C 0.6440(6) 0.0815(3) 0.1872(2)
H38 H 0.6760 0.0975 0.1732
C76 C 0.5864(6) 0.1718(5) 0.1027(4)
H39 H 0.5584 0.1772 0.0946
C77 C 0.6363(5) 0.0455(4) 0.2164(3)
H40 H 0.6631 0.0379 0.2236
C78 C 0.6413(4) 0.2380(3) 0.0505(2)
C79 C 0.6607(6) 0.1580(5) 0.1328(3)
H41 H 0.6891 0.1547 0.1427
C80 C 0.6698(7) 0.1962(4) 0.1012(3)
H42 H 0.7050 0.2184 0.0929
O17 O 0.57303(17) 0.26008(19) 0.45821(12)
O18 O 0.63448(18) 0.23662(19) 0.45869(12)
C81 C 0.5165(5) 0.1295(3) 0.3535(3)
C82 C 0.5664(4) 0.2006(3) 0.4148(3)
C83 C 0.4357(4) 0.0210(2) 0.26552(16)
C84 C 0.4836(4) 0.0312(3) 0.27318(19)
C85 C 0.4872(4) 0.0931(3) 0.3209(2)
C86 C 0.5107(2) 0.0677(3) 0.30188(18)
H43 H 0.5452 0.0754 0.3087
C87 C 0.5590(6) 0.1340(4) 0.3678(4)
H44 H 0.5728 0.1126 0.3589
C88 C 0.4375(5) 0.0815(3) 0.3128(2)
H45 H 0.4215 0.0975 0.3268
C89 C 0.5854(3) 0.1718(5) 0.3973(4)
H46 H 0.6188 0.1772 0.4054
C90 C 0.4092(3) 0.0455(4) 0.2836(3)
H47 H 0.3748 0.0379 0.2764
C91 C 0.5967(3) 0.2380(3) 0.4495(2)
C92 C 0.4973(3) 0.1580(5) 0.3672(3)
H48 H 0.4656 0.1547 0.3573
C93 C 0.5264(6) 0.1962(4) 0.3988(3)
H49 H 0.5134 0.2184 0.4071
Fe3 Fe 0.68549(4) 0.40591(6) 0.0000
O21 O 0.57303(17) 0.31295(25) 0.04179(12)
O22 O 0.70530(17) 0.48233(25) 0.0000
O23 O 0.63448(18) 0.39786(26) 0.04131(12)
C107 C 0.5165(5) 0.3870(6) 0.1465(3)
C108 C 0.5664(4) 0.3658(5) 0.0852(3)
C109 C 0.4357(4) 0.4147(4) 0.23448(16)
C110 C 0.5000 0.5000 0.2500
C111 C 0.4836(4) 0.4524(5) 0.22682(19)
C112 C 0.4872(4) 0.3941(5) 0.1791(2)
C113 C 0.5107(2) 0.4430(4) 0.19812(18)
H57 H 0.5452 0.4698 0.1913
C114 C 0.5590(6) 0.4250(7) 0.1322(4)
H58 H 0.5728 0.4602 0.1411
C115 C 0.4375(5) 0.3560(6) 0.1872(2)
H59 H 0.4215 0.3240 0.1732
C116 C 0.5854(3) 0.4136(6) 0.1027(4)
H60 H 0.6188 0.4416 0.0946
C117 C 0.4092(3) 0.3637(5) 0.2164(3)
H61 H 0.3748 0.3369 0.2236
C118 C 0.5967(3) 0.3587(4) 0.0505(2)
C119 C 0.4973(3) 0.3393(6) 0.1328(3)
H62 H 0.4656 0.3109 0.1427
C120 C 0.5264(6) 0.3302(7) 0.1012(3)
H63 H 0.5134 0.2950 0.0929
O24 O 0.42697(17) 0.68705(25) 0.04179(12)
O25 O 0.36552(18) 0.60214(26) 0.04131(12)
C121 C 0.4835(5) 0.6130(6) 0.1465(3)
C122 C 0.4336(4) 0.6342(5) 0.0852(3)
C123 C 0.5643(4) 0.5853(4) 0.23448(16)
C124 C 0.5164(4) 0.5476(5) 0.22682(19)
C125 C 0.5128(4) 0.6059(5) 0.1791(2)
C126 C 0.4893(2) 0.5570(4) 0.19812(18)
H64 H 0.4548 0.5302 0.1913
C127 C 0.4410(6) 0.5750(7) 0.1322(4)
H65 H 0.4272 0.5398 0.1411
C128 C 0.5625(5) 0.6440(6) 0.1872(2)
H66 H 0.5785 0.6760 0.1732
C129 C 0.4146(3) 0.5864(6) 0.1027(4)
H67 H 0.3812 0.5584 0.0946
C130 C 0.5908(3) 0.6363(5) 0.2164(3)
H68 H 0.6252 0.6631 0.2236
C131 C 0.4033(3) 0.6413(4) 0.0505(2)
C132 C 0.5027(3) 0.6607(6) 0.1328(3)
H69 H 0.5344 0.6891 0.1427
C133 C 0.4736(6) 0.6698(7) 0.1012(3)
H70 H 0.4866 0.7050 0.0929
O26 O 0.31295(25) 0.57303(17) 0.45821(12)
O27 O 0.39786(26) 0.63448(18) 0.45869(12)
C134 C 0.3870(6) 0.5165(5) 0.3535(3)
C135 C 0.3658(5) 0.5664(4) 0.4148(3)
C136 C 0.4147(4) 0.4357(4) 0.26552(16)
C137 C 0.4524(5) 0.4836(4) 0.27318(19)
C138 C 0.3941(5) 0.4872(4) 0.3209(2)
C139 C 0.4430(4) 0.5107(2) 0.30188(18)
H71 H 0.4698 0.5452 0.3087
C140 C 0.4250(7) 0.5590(6) 0.3678(4)
H72 H 0.4602 0.5728 0.3589
C141 C 0.3560(6) 0.4375(5) 0.3128(2)
H73 H 0.3240 0.4215 0.3268
C142 C 0.4136(6) 0.5854(3) 0.3973(4)
H74 H 0.4416 0.6188 0.4054
C143 C 0.3637(5) 0.4092(3) 0.2836(3)
H75 H 0.3369 0.3748 0.2764
C144 C 0.3587(4) 0.5967(3) 0.4495(2)
C145 C 0.3393(6) 0.4973(3) 0.3672(3)
H76 H 0.3109 0.4656 0.3573
C146 C 0.3302(7) 0.5264(6) 0.3988(3)
H77 H 0.2950 0.5134 0.4071
O28 O 0.68705(25) 0.42697(17) 0.45821(12)
O29 O 0.60214(26) 0.36552(18) 0.45869(12)
C147 C 0.6130(6) 0.4835(5) 0.3535(3)
C148 C 0.6342(5) 0.4336(4) 0.4148(3)
C149 C 0.5853(4) 0.5643(4) 0.26552(16)
C150 C 0.5476(5) 0.5164(4) 0.27318(19)
C151 C 0.6059(5) 0.5128(4) 0.3209(2)
C152 C 0.5570(4) 0.4893(2) 0.30188(18)
H78 H 0.5302 0.4548 0.3087
C153 C 0.5750(7) 0.4410(6) 0.3678(4)
H79 H 0.5398 0.4272 0.3589
C154 C 0.6440(6) 0.5625(5) 0.3128(2)
H80 H 0.6760 0.5785 0.3268
C155 C 0.5864(6) 0.4146(3) 0.3973(4)
H81 H 0.5584 0.3812 0.4054
C156 C 0.6363(5) 0.5908(3) 0.2836(3)
H82 H 0.6631 0.6252 0.2764
C157 C 0.6413(4) 0.4033(3) 0.4495(2)
C158 C 0.6607(6) 0.5027(3) 0.3672(3)
H83 H 0.6891 0.5344 0.3573
C159 C 0.6698(7) 0.4736(6) 0.3988(3)
H84 H 0.7050 0.4866 0.4071
Fe5 Fe 0.59409(6) 0.27958(4) 0.0000
O31 O 0.51767(25) 0.22297(18) 0.0000
O32 O 0.29470(17) 0.51767(25) 0.0000
Fe7 Fe 0.40591(6) 0.72042(4) 0.0000
Fe12 Fe 0.40591(6) 0.68549(4) 0.5000
Fe17 Fe 0.68549(4) 0.27958(4) 0.5000
Fe18 Fe 0.59409(6) 0.31451(4) 0.5000
Fe19 Fe 0.72042(4) 0.40591(6) 0.5000
Fe1_2 Fe 0.72042(4) 0.31451(4) 1.0000
O2_2 O 0.77703(18) 0.29470(17) 1.0000
O4_2 O 0.6667 0.3333 1.0000
Fe3_2 Fe 0.68549(4) 0.40591(6) 1.0000
O22_2 O 0.70530(17) 0.48233(25) 1.0000
Fe5_2 Fe 0.59409(6) 0.27958(4) 1.0000
O31_2 O 0.51767(25) 0.22297(18) 1.0000
O32_2 O 0.29470(17) 0.51767(25) 1.0000
Fe7_2 Fe 0.40591(6) 0.72042(4) 1.0000
O36 O 0.26008(19) 0.57303(17) 0.95821(12)
O37 O 0.68705(25) 0.26008(19) 0.95821(12)
O39 O 0.73992(19) 0.42697(17) 0.95821(12)
O41 O 0.57303(17) 0.31295(25) 0.95821(12)
O43 O 0.60214(26) 0.23662(19) 0.95869(12)
O44 O 0.36552(18) 0.60214(26) 0.95869(12)
O45 O 0.76338(19) 0.36552(18) 0.95869(12)
O47 O 0.63448(18) 0.39786(26) 0.95869(12)
O12 O 0.48233(25) 0.77703(18) 0.0000
O13 O 0.39786(26) 0.76338(19) 0.04131(12)
C54 C 0.3870(6) 0.8705(3) 0.1465(3)
C55 C 0.3658(5) 0.7994(3) 0.0852(3)
C56 C 0.4147(4) 0.9790(2) 0.23448(16)
C57_2 C 0.5000 1.0000 0.2500
C58 C 0.4524(5) 0.9688(3) 0.22682(19)
C59 C 0.3941(5) 0.9069(3) 0.1791(2)
C60 C 0.4430(4) 0.9323(3) 0.19812(18)
H29 H 0.4698 0.9246 0.1913
C61 C 0.4250(7) 0.8660(4) 0.1322(4)
H30 H 0.4602 0.8874 0.1411
C62 C 0.3560(6) 0.9185(3) 0.1872(2)
H31 H 0.3240 0.9025 0.1732
C63 C 0.4136(6) 0.8282(5) 0.1027(4)
H32 H 0.4416 0.8228 0.0946
C64 C 0.3637(5) 0.9545(4) 0.2164(3)
H33 H 0.3369 0.9621 0.2236
C65 C 0.3587(4) 0.7620(3) 0.0505(2)
C66 C 0.3393(6) 0.8420(5) 0.1328(3)
H34 H 0.3109 0.8453 0.1427
C67 C 0.3302(7) 0.8038(4) 0.1012(3)
H35 H 0.2950 0.7816 0.0929
O19 O 0.42697(17) 0.73992(19) 0.45821(12)
O20 O 0.36552(18) 0.76338(19) 0.45869(12)
C94 C 0.4835(5) 0.8705(3) 0.3535(3)
C95 C 0.4336(4) 0.7994(3) 0.4148(3)
C96 C 0.5643(4) 0.9790(2) 0.26552(16)
C97 C 0.5164(4) 0.9688(3) 0.27318(19)
C98 C 0.5128(4) 0.9069(3) 0.3209(2)
C99 C 0.4893(2) 0.9323(3) 0.30188(18)
H50 H 0.4548 0.9246 0.3087
C100 C 0.4410(6) 0.8660(4) 0.3678(4)
H51 H 0.4272 0.8874 0.3589
C101 C 0.5625(5) 0.9185(3) 0.3128(2)
H52 H 0.5785 0.9025 0.3268
C102 C 0.4146(3) 0.8282(5) 0.3973(4)
H53 H 0.3812 0.8228 0.4054
C103 C 0.5908(3) 0.9545(4) 0.2836(3)
H54 H 0.6252 0.9621 0.2764
C104 C 0.4033(3) 0.7620(3) 0.4495(2)
C105 C 0.5027(3) 0.8420(5) 0.3672(3)
H55 H 0.5344 0.8453 0.3573
C106 C 0.4736(6) 0.8038(4) 0.3988(3)
H56 H 0.4866 0.7816 0.4071
O12_2 O 0.48233(25) 0.77703(18) 1.0000
O38 O 0.42697(17) 0.68705(25) 0.95821(12)
O46 O 0.39786(26) 0.76338(19) 0.95869(12)
O12_3 O 0.70530(31) 0.22297(18) 0.5000
O14 O 0.6667 0.3333 0.5000
O38_2 O 0.73992(30) 0.31295(25) 0.54179(12)
O46_2 O 0.63448(32) 0.23662(19) 0.54131(12)
O2_3 O 0.48233(25) 0.70530(17) 0.5000
O4_3 O 0.3334 0.6667 0.5000
O22_3 O 0.22297(30) 0.51767(25) 0.5000
O30_3 O 0.51767(25) 0.29470(17) 0.5000
O31_3 O 0.29470(31) 0.77703(18) 0.5000
O37_2 O 0.42697(31) 0.73992(19) 0.54179(12)
O39_2 O 0.31295(25) 0.57303(17) 0.54179(12)
O40_2 O 0.57303(31) 0.26008(19) 0.54179(12)
O41_2 O 0.26008(30) 0.68705(25) 0.54179(12)
O42_2 O 0.60214(26) 0.36552(18) 0.54131(12)
O43_2 O 0.36552(32) 0.76338(19) 0.54131(12)
O45_2 O 0.39786(26) 0.63448(18) 0.54131(12)
O47_2 O 0.23662(32) 0.60214(26) 0.54131(12)
O32_3 O 0.77703(30) 0.48233(25) 0.5000
O36_2 O 0.68705(25) 0.42697(17) 0.54179(12)
O44_2 O 0.76338(32) 0.39786(26) 0.54131(12)
C54_2 C 0.6130(6) 0.1295(3) 0.8535(3)
C55_2 C 0.6342(5) 0.2006(3) 0.9148(3)
C56_2 C 0.5853(4) 0.0210(2) 0.76552(16)
C57_3 C 0.5000 0.0000 0.7500
C58_2 C 0.5476(5) 0.0312(3) 0.77318(19)
C59_2 C 0.6059(5) 0.0931(3) 0.8209(2)
C60_2 C 0.5570(4) 0.0677(3) 0.80188(18)
H29_2 H 0.5302 0.0754 0.8087
C61_2 C 0.5750(7) 0.1340(4) 0.8678(4)
H30_2 H 0.5398 0.1126 0.8589
C62_2 C 0.6440(6) 0.0815(3) 0.8128(2)
H31_2 H 0.6760 0.0975 0.8268
C63_2 C 0.5864(6) 0.1718(5) 0.8973(4)
H32_2 H 0.5584 0.1772 0.9054
C64_2 C 0.6363(5) 0.0455(4) 0.7836(3)
H33_2 H 0.6631 0.0379 0.7764
C65_2 C 0.6413(4) 0.2380(3) 0.9495(2)
C66_2 C 0.6607(6) 0.1580(5) 0.8672(3)
H34_2 H 0.6891 0.1547 0.8573
C67_2 C 0.6698(7) 0.1962(4) 0.8988(3)
H35_2 H 0.7050 0.2184 0.9071
C94_2 C 0.5165(5) 0.1295(3) 0.6465(3)
C95_2 C 0.5664(4) 0.2006(3) 0.5852(3)
C96_2 C 0.4357(4) 0.0210(2) 0.73448(16)
C97_2 C 0.4836(4) 0.0312(3) 0.72682(19)
C98_2 C 0.4872(4) 0.0931(3) 0.6791(2)
C99_2 C 0.5107(2) 0.0677(3) 0.69812(18)
H50_2 H 0.5452 0.0754 0.6913
C100_2 C 0.5590(6) 0.1340(4) 0.6322(4)
H51_2 H 0.5728 0.1126 0.6411
C101_2 C 0.4375(5) 0.0815(3) 0.6872(2)
H52_2 H 0.4215 0.0975 0.6732
C102_2 C 0.5854(3) 0.1718(5) 0.6027(4)
H53_2 H 0.6188 0.1772 0.5946
C103_2 C 0.4092(3) 0.0455(4) 0.7164(3)
H54_2 H 0.3748 0.0379 0.7236
C104_2 C 0.5967(3) 0.2380(3) 0.5505(2)
C105_2 C 0.4973(3) 0.1580(5) 0.6328(3)
H55_2 H 0.4656 0.1547 0.6427
C106_2 C 0.5264(6) 0.1962(4) 0.6012(3)
H56_2 H 0.5134 0.2184 0.5929
C1_2 C 0.1295(3) 0.5165(5) 0.8535(3)
C2_2 C 0.2006(3) 0.5664(4) 0.9148(3)
C3_2 C 0.0210(2) 0.4357(4) 0.76552(16)
C4_3 C -0.0000 0.5000 0.7500
C5_2 C 0.0312(3) 0.4836(4) 0.77318(19)
C6_2 C 0.0931(3) 0.4872(4) 0.8209(2)
C7_2 C 0.0677(3) 0.5107(2) 0.80188(18)
H1_2 H 0.0754 0.5452 0.8087
C8_2 C 0.1340(4) 0.5590(6) 0.8678(4)
H2_2 H 0.1126 0.5728 0.8589
C9_2 C 0.0815(3) 0.4375(5) 0.8128(2)
H3_2 H 0.0975 0.4215 0.8268
C10_2 C 0.1718(5) 0.5854(3) 0.8973(4)
H4_2 H 0.1772 0.6188 0.9054
C11_2 C 0.0455(4) 0.4092(3) 0.7836(3)
H5_2 H 0.0379 0.3748 0.7764
C12_2 C 0.2380(3) 0.5967(3) 0.9495(2)
C13_2 C 0.1580(5) 0.4973(3) 0.8672(3)
H6_2 H 0.1547 0.4656 0.8573
C14_2 C 0.1962(4) 0.5264(6) 0.8988(3)
H7_2 H 0.2184 0.5134 0.9071
C41_2 C 0.1295(3) 0.6130(6) 0.6465(3)
C42_2 C 0.2006(3) 0.6342(5) 0.5852(3)
C43_2 C 0.0210(2) 0.5853(4) 0.73448(16)
C44_2 C 0.0312(3) 0.5476(5) 0.72682(19)
C45_2 C 0.0931(3) 0.6059(5) 0.6791(2)
C46_2 C 0.0677(3) 0.5570(4) 0.69812(18)
H22_2 H 0.0754 0.5302 0.6913
C47_2 C 0.1340(4) 0.5750(7) 0.6322(4)
H23_2 H 0.1126 0.5398 0.6411
C48_2 C 0.0815(3) 0.6440(6) 0.6872(2)
H24_2 H 0.0975 0.6760 0.6732
C49_2 C 0.1718(5) 0.5864(6) 0.6027(4)
H25_2 H 0.1772 0.5584 0.5946
C50_2 C 0.0455(4) 0.6363(5) 0.7164(3)
H26_2 H 0.0379 0.6631 0.7236
C51_2 C 0.2380(3) 0.6413(4) 0.5505(2)
C52_2 C 0.1580(5) 0.6607(6) 0.6328(3)
H27_2 H 0.1547 0.6891 0.6427
C53_2 C 0.1962(4) 0.6698(7) 0.6012(3)
H28_2 H 0.2184 0.7050 0.5929
C57_4 C 0.5000 1.0000 0.7500
C68_2 C 0.3870(6) 0.8705(3) 0.8535(3)
C69_2 C 0.3658(5) 0.7994(3) 0.9148(3)
C70_2 C 0.4147(4) 0.9790(2) 0.76552(16)
C71_2 C 0.4524(5) 0.9688(3) 0.77318(19)
C72_2 C 0.3941(5) 0.9069(3) 0.8209(2)
C73_2 C 0.4430(4) 0.9323(3) 0.80188(18)
H36_2 H 0.4698 0.9246 0.8087
C74_2 C 0.4250(7) 0.8660(4) 0.8678(4)
H37_2 H 0.4602 0.8874 0.8589
C75_2 C 0.3560(6) 0.9185(3) 0.8128(2)
H38_2 H 0.3240 0.9025 0.8268
C76_2 C 0.4136(6) 0.8282(5) 0.8973(4)
H39_2 H 0.4416 0.8228 0.9054
C77_2 C 0.3637(5) 0.9545(4) 0.7836(3)
H40_2 H 0.3369 0.9621 0.7764
C78_2 C 0.3587(4) 0.7620(3) 0.9495(2)
C79_2 C 0.3393(6) 0.8420(5) 0.8672(3)
H41_2 H 0.3109 0.8453 0.8573
C80_2 C 0.3302(7) 0.8038(4) 0.8988(3)
H42_2 H 0.2950 0.7816 0.9071
C81_2 C 0.4835(5) 0.8705(3) 0.6465(3)
C82_2 C 0.4336(4) 0.7994(3) 0.5852(3)
C83_2 C 0.5643(4) 0.9790(2) 0.73448(16)
C84_2 C 0.5164(4) 0.9688(3) 0.72682(19)
C85_2 C 0.5128(4) 0.9069(3) 0.6791(2)
C86_2 C 0.4893(2) 0.9323(3) 0.69812(18)
H43_2 H 0.4548 0.9246 0.6913
C87_2 C 0.4410(6) 0.8660(4) 0.6322(4)
H44_2 H 0.4272 0.8874 0.6411
C88_2 C 0.5625(5) 0.9185(3) 0.6872(2)
H45_2 H 0.5785 0.9025 0.6732
C89_2 C 0.4146(3) 0.8282(5) 0.6027(4)
H46_2 H 0.3812 0.8228 0.5946
C90_2 C 0.5908(3) 0.9545(4) 0.7164(3)
H47_2 H 0.6252 0.9621 0.7236
C91_2 C 0.4033(3) 0.7620(3) 0.5505(2)
C92_2 C 0.5027(3) 0.8420(5) 0.6328(3)
H48_2 H 0.5344 0.8453 0.6427
C93_2 C 0.4736(6) 0.8038(4) 0.6012(3)
H49_2 H 0.4866 0.7816 0.5929
C107_2 C 0.4835(5) 0.6130(6) 0.8535(3)
C108_2 C 0.4336(4) 0.6342(5) 0.9148(3)
C109_2 C 0.5643(4) 0.5853(4) 0.76552(16)
C110_2 C 0.5000 0.5000 0.7500
C111_2 C 0.5164(4) 0.5476(5) 0.77318(19)
C112_2 C 0.5128(4) 0.6059(5) 0.8209(2)
C113_2 C 0.4893(2) 0.5570(4) 0.80188(18)
H57_2 H 0.4548 0.5302 0.8087
C114_2 C 0.4410(6) 0.5750(7) 0.8678(4)
H58_2 H 0.4272 0.5398 0.8589
C115_2 C 0.5625(5) 0.6440(6) 0.8128(2)
H59_2 H 0.5785 0.6760 0.8268
C116_2 C 0.4146(3) 0.5864(6) 0.8973(4)
H60_2 H 0.3812 0.5584 0.9054
C117_2 C 0.5908(3) 0.6363(5) 0.7836(3)
H61_2 H 0.6252 0.6631 0.7764
C118_2 C 0.4033(3) 0.6413(4) 0.9495(2)
C119_2 C 0.5027(3) 0.6607(6) 0.8672(3)
H62_2 H 0.5344 0.6891 0.8573
C120_2 C 0.4736(6) 0.6698(7) 0.8988(3)
H63_2 H 0.4866 0.7050 0.9071
C121_2 C 0.5165(5) 0.3870(6) 0.8535(3)
C122_2 C 0.5664(4) 0.3658(5) 0.9148(3)
C123_2 C 0.4357(4) 0.4147(4) 0.76552(16)
C124_2 C 0.4836(4) 0.4524(5) 0.77318(19)
C125_2 C 0.4872(4) 0.3941(5) 0.8209(2)
C126_2 C 0.5107(2) 0.4430(4) 0.80188(18)
H64_2 H 0.5452 0.4698 0.8087
C127_2 C 0.5590(6) 0.4250(7) 0.8678(4)
H65_2 H 0.5728 0.4602 0.8589
C128_2 C 0.4375(5) 0.3560(6) 0.8128(2)
H66_2 H 0.4215 0.3240 0.8268
C129_2 C 0.5854(3) 0.4136(6) 0.8973(4)
H67_2 H 0.6188 0.4416 0.9054
C130_2 C 0.4092(3) 0.3637(5) 0.7836(3)
H68_2 H 0.3748 0.3369 0.7764
C131_2 C 0.5967(3) 0.3587(4) 0.9495(2)
C132_2 C 0.4973(3) 0.3393(6) 0.8672(3)
H69_2 H 0.4656 0.3109 0.8573
C133_2 C 0.5264(6) 0.3302(7) 0.8988(3)
H70_2 H 0.5134 0.2950 0.9071
C134_2 C 0.6130(6) 0.4835(5) 0.6465(3)
C135_2 C 0.6342(5) 0.4336(4) 0.5852(3)
C136_2 C 0.5853(4) 0.5643(4) 0.73448(16)
C137_2 C 0.5476(5) 0.5164(4) 0.72682(19)
C138_2 C 0.6059(5) 0.5128(4) 0.6791(2)
C139_2 C 0.5570(4) 0.4893(2) 0.69812(18)
H71_2 H 0.5302 0.4548 0.6913
C140_2 C 0.5750(7) 0.4410(6) 0.6322(4)
H72_2 H 0.5398 0.4272 0.6411
C141_2 C 0.6440(6) 0.5625(5) 0.6872(2)
H73_2 H 0.6760 0.5785 0.6732
C142_2 C 0.5864(6) 0.4146(3) 0.6027(4)
H74_2 H 0.5584 0.3812 0.5946
C143_2 C 0.6363(5) 0.5908(3) 0.7164(3)
H75_2 H 0.6631 0.6252 0.7236
C144_2 C 0.6413(4) 0.4033(3) 0.5505(2)
C145_2 C 0.6607(6) 0.5027(3) 0.6328(3)
H76_2 H 0.6891 0.5344 0.6427
C146_2 C 0.6698(7) 0.4736(6) 0.6012(3)
H77_2 H 0.7050 0.4866 0.5929
C147_2 C 0.3870(6) 0.5165(5) 0.6465(3)
C148_2 C 0.3658(5) 0.5664(4) 0.5852(3)
C149_2 C 0.4147(4) 0.4357(4) 0.73448(16)
C150_2 C 0.4524(5) 0.4836(4) 0.72682(19)
C151_2 C 0.3941(5) 0.4872(4) 0.6791(2)
C152_2 C 0.4430(4) 0.5107(2) 0.69812(18)
H78_2 H 0.4698 0.5452 0.6913
C153_2 C 0.4250(7) 0.5590(6) 0.6322(4)
H79_2 H 0.4602 0.5728 0.6411
C154_2 C 0.3560(6) 0.4375(5) 0.6872(2)
H80_2 H 0.3240 0.4215 0.6732
C155_2 C 0.4136(6) 0.5854(3) 0.6027(4)
H81_2 H 0.4416 0.6188 0.5946
C156_2 C 0.3637(5) 0.4092(3) 0.7164(3)
H82_2 H 0.3369 0.3748 0.7236
C157_2 C 0.3587(4) 0.5967(3) 0.5505(2)
C158_2 C 0.3393(6) 0.4973(3) 0.6328(3)
H83_2 H 0.3109 0.4656 0.6427
C159_2 C 0.3302(7) 0.5264(6) 0.6012(3)
H84_2 H 0.2950 0.5134 0.5929
C4_4 C 1.0000 0.5000 0.7500
C15_2 C 0.8705(3) 0.4835(5) 0.8535(3)
C16_2 C 0.7994(3) 0.4336(4) 0.9148(3)
C17_2 C 0.9790(2) 0.5643(4) 0.76552(16)
C18_2 C 0.9688(3) 0.5164(4) 0.77318(19)
C19_2 C 0.9069(3) 0.5128(4) 0.8209(2)
C20_2 C 0.9323(3) 0.4893(2) 0.80188(18)
H8_2 H 0.9246 0.4548 0.8087
C21_2 C 0.8660(4) 0.4410(6) 0.8678(4)
H9_2 H 0.8874 0.4272 0.8589
C22_2 C 0.9185(3) 0.5625(5) 0.8128(2)
H10_2 H 0.9025 0.5785 0.8268
C23_2 C 0.8282(5) 0.4146(3) 0.8973(4)
H11_2 H 0.8228 0.3812 0.9054
C24_2 C 0.9545(4) 0.5908(3) 0.7836(3)
H12_2 H 0.9621 0.6252 0.7764
C25_2 C 0.7620(3) 0.4033(3) 0.9495(2)
C26_2 C 0.8420(5) 0.5027(3) 0.8672(3)
H13_2 H 0.8453 0.5344 0.8573
C27_2 C 0.8038(4) 0.4736(6) 0.8988(3)
H14_2 H 0.7816 0.4866 0.9071
C28_2 C 0.8705(3) 0.3870(6) 0.6465(3)
C29_2 C 0.7994(3) 0.3658(5) 0.5852(3)
C30_2 C 0.9790(2) 0.4147(4) 0.73448(16)
C31_2 C 0.9688(3) 0.4524(5) 0.72682(19)
C32_2 C 0.9069(3) 0.3941(5) 0.6791(2)
C33_2 C 0.9323(3) 0.4430(4) 0.69812(18)
H15_2 H 0.9246 0.4698 0.6913
C34_2 C 0.8660(4) 0.4250(7) 0.6322(4)
H16_2 H 0.8874 0.4602 0.6411
C35_2 C 0.9185(3) 0.3560(6) 0.6872(2)
H17_2 H 0.9025 0.3240 0.6732
C36_2 C 0.8282(5) 0.4136(6) 0.6027(4)
H18_2 H 0.8228 0.4416 0.5946
C37_2 C 0.9545(4) 0.3637(5) 0.7164(3)
H19_2 H 0.9621 0.3369 0.7236
C38_2 C 0.7620(3) 0.3587(4) 0.5505(2)
C39_2 C 0.8420(5) 0.3393(6) 0.6328(3)
H20_2 H 0.8453 0.3109 0.6427
C40_2 C 0.8038(4) 0.3302(7) 0.6012(3)
H21_2 H 0.7816 0.2950 0.5929
loop_
_geom_bond_atom_site_label_1
_geom_bond_atom_site_label_2
_geom_bond_site_symmetry_1
_geom_bond_site_symmetry_2
O5 C25 1_555 1_555
O6 C25 1_555 1_555
C15 C19 1_555 1_555
C16 C23 1_555 1_555
C17 C18 1_555 1_555
C18 C4 1_555 1_555
C19 C20 1_555 1_555
C20 C18 1_555 1_555
H8 C20 1_555 1_555
C21 C15 1_555 1_555
H9 C21 1_555 1_555
C22 C19 1_555 1_555
H10 C22 1_555 1_555
C23 C21 1_555 1_555
H11 C23 1_555 1_555
C24 C17 1_555 1_555
H12 C24 1_555 1_555
C25 C16 1_555 1_555
C26 C15 1_555 1_555
H13 C26 1_555 1_555
C27 C16 1_555 1_555
H14 C27 1_555 1_555
O7 C38 1_555 1_555
O8 C38 1_555 1_555
C28 C32 1_555 1_555
C29 C36 1_555 1_555
C31 C4 1_555 1_555
C32 C33 1_555 1_555
C33 C31 1_555 1_555
H15 C33 1_555 1_555
C34 C28 1_555 1_555
H16 C34 1_555 1_555
C35 C32 1_555 1_555
H17 C35 1_555 1_555
C36 C34 1_555 1_555
H18 C36 1_555 1_555
C37 C30 1_555 1_555
H19 C37 1_555 1_555
C38 C29 1_555 1_555
C39 C28 1_555 1_555
H20 C39 1_555 1_555
C40 C29 1_555 1_555
H21 C40 1_555 1_555
Fe4 O6 1_555 1_555
O30 Fe4 1_555 1_555
Fe10 O5 1_555 1_555
Fe14 O8 1_555 1_555
Fe16 O7 1_555 1_555
O33 Fe4 1_555 1_555
O49 Fe4 1_555 1_555
C22 C24 1_555 1_555
C26 C27 1_555 1_555
C30 C31 1_555 1_555
C35 C37 1_555 1_555
C39 C40 1_555 1_555
Fe10 O49 1_555 1_555
O30_2 Fe4_2 1_555 1_555
O40 Fe4_2 1_555 1_555
O42 Fe4_2 1_555 1_555
O49_2 Fe4_2 1_555 1_555
Fe10_2 O49_2 1_555 1_555
Fe1 O2 1_555 1_555
O1 C12 1_555 1_555
O3 Fe1 1_555 1_555
C1 C6 1_555 1_555
C2 C10 1_555 1_555
C3 C5 1_555 1_555
C4_2 C5 1_555 1_555
C5 C7 1_555 1_555
O4 Fe1 1_555 1_555
C6 C7 1_555 1_555
C7 H1 1_555 1_555
C8 C1 1_555 1_555
H2 C8 1_555 1_555
C9 C6 1_555 1_555
H3 C9 1_555 1_555
C10 C8 1_555 1_555
H4 C10 1_555 1_555
C11 C3 1_555 1_555
H5 C11 1_555 1_555
C12 O3 1_555 1_555
C13 C1 1_555 1_555
H6 C13 1_555 1_555
C14 C2 1_555 1_555
H7 C14 1_555 1_555
O9 C51 1_555 1_555
O10 C51 1_555 1_555
C41 C45 1_555 1_555
C42 C49 1_555 1_555
C44 C4_2 1_555 1_555
C45 C46 1_555 1_555
C46 C44 1_555 1_555
H22 C46 1_555 1_555
C47 C41 1_555 1_555
H23 C47 1_555 1_555
C48 C45 1_555 1_555
H24 C48 1_555 1_555
C49 C47 1_555 1_555
H25 C49 1_555 1_555
C50 C43 1_555 1_555
H26 C50 1_555 1_555
C51 C42 1_555 1_555
C52 C41 1_555 1_555
H27 C52 1_555 1_555
C53 C42 1_555 1_555
H28 C53 1_555 1_555
O15 Fe1 1_555 1_555
O16 C78 1_555 1_555
C68 C72 1_555 1_555
C69 C76 1_555 1_555
C70 C71 1_555 1_555
C71 C57 1_555 1_555
C72 C73 1_555 1_555
C73 C71 1_555 1_555
H36 C73 1_555 1_555
C74 C68 1_555 1_555
H37 C74 1_555 1_555
C75 C72 1_555 1_555
H38 C75 1_555 1_555
C76 C74 1_555 1_555
H39 C76 1_555 1_555
C77 C70 1_555 1_555
H40 C77 1_555 1_555
C78 O15 1_555 1_555
C79 C68 1_555 1_555
H41 C79 1_555 1_555
C80 C69 1_555 1_555
H42 C80 1_555 1_555
O17 C91 1_555 1_555
O18 C91 1_555 1_555
C81 C85 1_555 1_555
C82 C89 1_555 1_555
C84 C57 1_555 1_555
C85 C86 1_555 1_555
C86 C84 1_555 1_555
H43 C86 1_555 1_555
C87 C81 1_555 1_555
H44 C87 1_555 1_555
C88 C85 1_555 1_555
H45 C88 1_555 1_555
C89 C87 1_555 1_555
H46 C89 1_555 1_555
C90 C83 1_555 1_555
H47 C90 1_555 1_555
C91 C82 1_555 1_555
C92 C81 1_555 1_555
H48 C92 1_555 1_555
C93 C82 1_555 1_555
H49 C93 1_555 1_555
Fe3 O1 1_555 1_555
O21 C118 1_555 1_555
O22 Fe3 1_555 1_555
O23 Fe3 1_555 1_555
C107 C112 1_555 1_555
C108 C116 1_555 1_555
C109 C111 1_555 1_555
C110 C111 1_555 1_555
C111 C113 1_555 1_555
C112 C113 1_555 1_555
C113 H57 1_555 1_555
C114 C107 1_555 1_555
H58 C114 1_555 1_555
C115 C112 1_555 1_555
H59 C115 1_555 1_555
C116 C114 1_555 1_555
H60 C116 1_555 1_555
C117 C109 1_555 1_555
H61 C117 1_555 1_555
C118 O23 1_555 1_555
C119 C107 1_555 1_555
H62 C119 1_555 1_555
C120 C108 1_555 1_555
H63 C120 1_555 1_555
O24 C131 1_555 1_555
O25 C131 1_555 1_555
C121 C125 1_555 1_555
C122 C129 1_555 1_555
C123 C124 1_555 1_555
C124 C110 1_555 1_555
C125 C126 1_555 1_555
C126 C124 1_555 1_555
H64 C126 1_555 1_555
C127 C121 1_555 1_555
H65 C127 1_555 1_555
C128 C125 1_555 1_555
H66 C128 1_555 1_555
C129 C127 1_555 1_555
H67 C129 1_555 1_555
C130 C123 1_555 1_555
H68 C130 1_555 1_555
C131 C122 1_555 1_555
C132 C121 1_555 1_555
H69 C132 1_555 1_555
C133 C122 1_555 1_555
H70 C133 1_555 1_555
O26 C144 1_555 1_555
O27 C144 1_555 1_555
C134 C138 1_555 1_555
C135 C142 1_555 1_555
C136 C109 1_555 1_555
C137 C110 1_555 1_555
C138 C139 1_555 1_555
C139 C137 1_555 1_555
H71 C139 1_555 1_555
C140 C134 1_555 1_555
H72 C140 1_555 1_555
C141 C138 1_555 1_555
H73 C141 1_555 1_555
C142 C140 1_555 1_555
H74 C142 1_555 1_555
C143 C136 1_555 1_555
H75 C143 1_555 1_555
C144 C135 1_555 1_555
C145 C134 1_555 1_555
H76 C145 1_555 1_555
C146 C135 1_555 1_555
H77 C146 1_555 1_555
O28 C157 1_555 1_555
O29 C157 1_555 1_555
C147 C151 1_555 1_555
C148 C155 1_555 1_555
C149 C123 1_555 1_555
C150 C110 1_555 1_555
C151 C152 1_555 1_555
C152 C150 1_555 1_555
H78 C152 1_555 1_555
C153 C147 1_555 1_555
H79 C153 1_555 1_555
C154 C151 1_555 1_555
H80 C154 1_555 1_555
C155 C153 1_555 1_555
H81 C155 1_555 1_555
C156 C149 1_555 1_555
H82 C156 1_555 1_555
C157 C148 1_555 1_555
C158 C147 1_555 1_555
H83 C158 1_555 1_555
C159 C148 1_555 1_555
H84 C159 1_555 1_555
Fe5 O4 1_555 1_555
O31 Fe5 1_555 1_555
Fe10 O25 1_555 1_555
O32 Fe10 1_555 1_555
Fe7 O24 1_555 1_555
Fe12 O27 1_555 1_555
Fe14 O26 1_555 1_555
Fe17 O9 1_555 1_555
Fe18 O17 1_555 1_555
Fe19 O10 1_555 1_555
C2 C12 1_555 1_555
O4 Fe3 1_555 1_555
C9 C11 1_555 1_555
C13 C14 1_555 1_555
C43 C44 1_555 1_555
C48 C50 1_555 1_555
C52 C53 1_555 1_555
O16 Fe5 1_555 1_555
C69 C78 1_555 1_555
C75 C77 1_555 1_555
C79 C80 1_555 1_555
O18 Fe17 1_555 1_555
C83 C84 1_555 1_555
C88 C90 1_555 1_555
C92 C93 1_555 1_555
O21 Fe5 1_555 1_555
C108 C118 1_555 1_555
C115 C117 1_555 1_555
C119 C120 1_555 1_555
C128 C130 1_555 1_555
C132 C133 1_555 1_555
C136 C137 1_555 1_555
C141 C143 1_555 1_555
C145 C146 1_555 1_555
O28 Fe19 1_555 1_555
O29 Fe18 1_555 1_555
C149 C150 1_555 1_555
C154 C156 1_555 1_555
C158 C159 1_555 1_555
Fe7 O49 1_555 1_555
Fe1_2 O2_2 1_555 1_555
O4_2 Fe1_2 1_555 1_555
O22_2 Fe3_2 1_555 1_555
Fe5_2 O4_2 1_555 1_555
O31_2 Fe5_2 1_555 1_555
O32_2 Fe10_2 1_555 1_555
O36 Fe10_2 1_555 1_555
O37 Fe1_2 1_555 1_555
O39 Fe3_2 1_555 1_555
O41 Fe5_2 1_555 1_555
O43 Fe5_2 1_555 1_555
O44 Fe10_2 1_555 1_555
O45 Fe1_2 1_555 1_555
O47 Fe3_2 1_555 1_555
O4_2 Fe3_2 1_555 1_555
Fe7_2 O49_2 1_555 1_555
Fe7 O12 1_555 1_555
O33 C65 1_555 1_555
O13 Fe7 1_555 1_555
C54 C59 1_555 1_555
C55 C63 1_555 1_555
C56 C58 1_555 1_555
C57_2 C58 1_555 1_555
C58 C60 1_555 1_555
C59 C60 1_555 1_555
C60 H29 1_555 1_555
C61 C54 1_555 1_555
H30 C61 1_555 1_555
C62 C59 1_555 1_555
H31 C62 1_555 1_555
C63 C61 1_555 1_555
H32 C63 1_555 1_555
C64 C56 1_555 1_555
H33 C64 1_555 1_555
C65 O13 1_555 1_555
C66 C54 1_555 1_555
H34 C66 1_555 1_555
C67 C55 1_555 1_555
H35 C67 1_555 1_555
O19 C104 1_555 1_555
O20 C104 1_555 1_555
C94 C98 1_555 1_555
C95 C102 1_555 1_555
C97 C57_2 1_555 1_555
C98 C99 1_555 1_555
C99 C97 1_555 1_555
H50 C99 1_555 1_555
C100 C94 1_555 1_555
H51 C100 1_555 1_555
C101 C98 1_555 1_555
H52 C101 1_555 1_555
C102 C100 1_555 1_555
H53 C102 1_555 1_555
C103 C96 1_555 1_555
H54 C103 1_555 1_555
C104 C95 1_555 1_555
C105 C94 1_555 1_555
H55 C105 1_555 1_555
C106 C95 1_555 1_555
H56 C106 1_555 1_555
Fe12 O19 1_555 1_555
Fe16 O20 1_555 1_555
C55 C65 1_555 1_555
C62 C64 1_555 1_555
C66 C67 1_555 1_555
C96 C97 1_555 1_555
C101 C103 1_555 1_555
C105 C106 1_555 1_555
Fe7_2 O12_2 1_555 1_555
O38 Fe7_2 1_555 1_555
O46 Fe7_2 1_555 1_555
Fe17 O12_3 1_555 1_555
O14 Fe17 1_555 1_555
Fe19 O14 1_555 1_555
O38_2 Fe17 1_555 1_555
O46_2 Fe17 1_555 1_555
O14 Fe18 1_555 1_555
Fe12 O2_3 1_555 1_555
O4_3 Fe12 1_555 1_555
O22_3 Fe14 1_555 1_555
O30_3 Fe18 1_555 1_555
Fe16 O4_3 1_555 1_555
O31_3 Fe16 1_555 1_555
O37_2 Fe12 1_555 1_555
O39_2 Fe14 1_555 1_555
O40_2 Fe18 1_555 1_555
O41_2 Fe16 1_555 1_555
O42_2 Fe18 1_555 1_555
O43_2 Fe16 1_555 1_555
O45_2 Fe12 1_555 1_555
O47_2 Fe14 1_555 1_555
O4_3 Fe14 1_555 1_555
O32_3 Fe19 1_555 1_555
O36_2 Fe19 1_555 1_555
O44_2 Fe19 1_555 1_555
O37 C65_2 1_555 1_555
C54_2 C59_2 1_555 1_555
C55_2 C63_2 1_555 1_555
C56_2 C58_2 1_555 1_555
C57_3 C58_2 1_555 1_555
C58_2 C60_2 1_555 1_555
C59_2 C60_2 1_555 1_555
C60_2 H29_2 1_555 1_555
C61_2 C54_2 1_555 1_555
H30_2 C61_2 1_555 1_555
C62_2 C59_2 1_555 1_555
H31_2 C62_2 1_555 1_555
C63_2 C61_2 1_555 1_555
H32_2 C63_2 1_555 1_555
C64_2 C56_2 1_555 1_555
H33_2 C64_2 1_555 1_555
C65_2 O43 1_555 1_555
C66_2 C54_2 1_555 1_555
H34_2 C66_2 1_555 1_555
C67_2 C55_2 1_555 1_555
H35_2 C67_2 1_555 1_555
O40_2 C104_2 1_555 1_555
O46_2 C104_2 1_555 1_555
C94_2 C98_2 1_555 1_555
C95_2 C102_2 1_555 1_555
C97_2 C57_3 1_555 1_555
C98_2 C99_2 1_555 1_555
C99_2 C97_2 1_555 1_555
H50_2 C99_2 1_555 1_555
C100_2 C94_2 1_555 1_555
H51_2 C100_2 1_555 1_555
C101_2 C98_2 1_555 1_555
H52_2 C101_2 1_555 1_555
C102_2 C100_2 1_555 1_555
H53_2 C102_2 1_555 1_555
C103_2 C96_2 1_555 1_555
H54_2 C103_2 1_555 1_555
C104_2 C95_2 1_555 1_555
C105_2 C94_2 1_555 1_555
H55_2 C105_2 1_555 1_555
C106_2 C95_2 1_555 1_555
H56_2 C106_2 1_555 1_555
C55_2 C65_2 1_555 1_555
C62_2 C64_2 1_555 1_555
C66_2 C67_2 1_555 1_555
C96_2 C97_2 1_555 1_555
C101_2 C103_2 1_555 1_555
C105_2 C106_2 1_555 1_555
O36 C12_2 1_555 1_555
C1_2 C6_2 1_555 1_555
C2_2 C10_2 1_555 1_555
C3_2 C5_2 1_555 1_555
C4_3 C5_2 1_555 1_555
C5_2 C7_2 1_555 1_555
C6_2 C7_2 1_555 1_555
C7_2 H1_2 1_555 1_555
C8_2 C1_2 1_555 1_555
H2_2 C8_2 1_555 1_555
C9_2 C6_2 1_555 1_555
H3_2 C9_2 1_555 1_555
C10_2 C8_2 1_555 1_555
H4_2 C10_2 1_555 1_555
C11_2 C3_2 1_555 1_555
H5_2 C11_2 1_555 1_555
C12_2 O42 1_555 1_555
C13_2 C1_2 1_555 1_555
H6_2 C13_2 1_555 1_555
C14_2 C2_2 1_555 1_555
H7_2 C14_2 1_555 1_555
O41_2 C51_2 1_555 1_555
O47_2 C51_2 1_555 1_555
C41_2 C45_2 1_555 1_555
C42_2 C49_2 1_555 1_555
C44_2 C4_3 1_555 1_555
C45_2 C46_2 1_555 1_555
C46_2 C44_2 1_555 1_555
H22_2 C46_2 1_555 1_555
C47_2 C41_2 1_555 1_555
H23_2 C47_2 1_555 1_555
C48_2 C45_2 1_555 1_555
H24_2 C48_2 1_555 1_555
C49_2 C47_2 1_555 1_555
H25_2 C49_2 1_555 1_555
C50_2 C43_2 1_555 1_555
H26_2 C50_2 1_555 1_555
C51_2 C42_2 1_555 1_555
C52_2 C41_2 1_555 1_555
H27_2 C52_2 1_555 1_555
C53_2 C42_2 1_555 1_555
H28_2 C53_2 1_555 1_555
O46 C78_2 1_555 1_555
C68_2 C72_2 1_555 1_555
C69_2 C76_2 1_555 1_555
C70_2 C71_2 1_555 1_555
C71_2 C57_4 1_555 1_555
C72_2 C73_2 1_555 1_555
C73_2 C71_2 1_555 1_555
H36_2 C73_2 1_555 1_555
C74_2 C68_2 1_555 1_555
H37_2 C74_2 1_555 1_555
C75_2 C72_2 1_555 1_555
H38_2 C75_2 1_555 1_555
C76_2 C74_2 1_555 1_555
H39_2 C76_2 1_555 1_555
C77_2 C70_2 1_555 1_555
H40_2 C77_2 1_555 1_555
C78_2 O40 1_555 1_555
C79_2 C68_2 1_555 1_555
H41_2 C79_2 1_555 1_555
C80_2 C69_2 1_555 1_555
H42_2 C80_2 1_555 1_555
O37_2 C91_2 1_555 1_555
O43_2 C91_2 1_555 1_555
C81_2 C85_2 1_555 1_555
C82_2 C89_2 1_555 1_555
C84_2 C57_4 1_555 1_555
C85_2 C86_2 1_555 1_555
C86_2 C84_2 1_555 1_555
H43_2 C86_2 1_555 1_555
C87_2 C81_2 1_555 1_555
H44_2 C87_2 1_555 1_555
C88_2 C85_2 1_555 1_555
H45_2 C88_2 1_555 1_555
C89_2 C87_2 1_555 1_555
H46_2 C89_2 1_555 1_555
C90_2 C83_2 1_555 1_555
H47_2 C90_2 1_555 1_555
C91_2 C82_2 1_555 1_555
C92_2 C81_2 1_555 1_555
H48_2 C92_2 1_555 1_555
C93_2 C82_2 1_555 1_555
H49_2 C93_2 1_555 1_555
O38 C118_2 1_555 1_555
C107_2 C112_2 1_555 1_555
C108_2 C116_2 1_555 1_555
C109_2 C111_2 1_555 1_555
C110_2 C111_2 1_555 1_555
C111_2 C113_2 1_555 1_555
C112_2 C113_2 1_555 1_555
C113_2 H57_2 1_555 1_555
C114_2 C107_2 1_555 1_555
H58_2 C114_2 1_555 1_555
C115_2 C112_2 1_555 1_555
H59_2 C115_2 1_555 1_555
C116_2 C114_2 1_555 1_555
H60_2 C116_2 1_555 1_555
C117_2 C109_2 1_555 1_555
H61_2 C117_2 1_555 1_555
C118_2 O44 1_555 1_555
C119_2 C107_2 1_555 1_555
H62_2 C119_2 1_555 1_555
C120_2 C108_2 1_555 1_555
H63_2 C120_2 1_555 1_555
O41 C131_2 1_555 1_555
O47 C131_2 1_555 1_555
C121_2 C125_2 1_555 1_555
C122_2 C129_2 1_555 1_555
C123_2 C124_2 1_555 1_555
C124_2 C110_2 1_555 1_555
C125_2 C126_2 1_555 1_555
C126_2 C124_2 1_555 1_555
H64_2 C126_2 1_555 1_555
C127_2 C121_2 1_555 1_555
H65_2 C127_2 1_555 1_555
C128_2 C125_2 1_555 1_555
H66_2 C128_2 1_555 1_555
C129_2 C127_2 1_555 1_555
H67_2 C129_2 1_555 1_555
C130_2 C123_2 1_555 1_555
H68_2 C130_2 1_555 1_555
C131_2 C122_2 1_555 1_555
C132_2 C121_2 1_555 1_555
H69_2 C132_2 1_555 1_555
C133_2 C122_2 1_555 1_555
H70_2 C133_2 1_555 1_555
O36_2 C144_2 1_555 1_555
O42_2 C144_2 1_555 1_555
C134_2 C138_2 1_555 1_555
C135_2 C142_2 1_555 1_555
C136_2 C109_2 1_555 1_555
C137_2 C110_2 1_555 1_555
C138_2 C139_2 1_555 1_555
C139_2 C137_2 1_555 1_555
H71_2 C139_2 1_555 1_555
C140_2 C134_2 1_555 1_555
H72_2 C140_2 1_555 1_555
C141_2 C138_2 1_555 1_555
H73_2 C141_2 1_555 1_555
C142_2 C140_2 1_555 1_555
H74_2 C142_2 1_555 1_555
C143_2 C136_2 1_555 1_555
H75_2 C143_2 1_555 1_555
C144_2 C135_2 1_555 1_555
C145_2 C134_2 1_555 1_555
H76_2 C145_2 1_555 1_555
C146_2 C135_2 1_555 1_555
H77_2 C146_2 1_555 1_555
O39_2 C157_2 1_555 1_555
O45_2 C157_2 1_555 1_555
C147_2 C151_2 1_555 1_555
C148_2 C155_2 1_555 1_555
C149_2 C123_2 1_555 1_555
C150_2 C110_2 1_555 1_555
C151_2 C152_2 1_555 1_555
C152_2 C150_2 1_555 1_555
H78_2 C152_2 1_555 1_555
C153_2 C147_2 1_555 1_555
H79_2 C153_2 1_555 1_555
C154_2 C151_2 1_555 1_555
H80_2 C154_2 1_555 1_555
C155_2 C153_2 1_555 1_555
H81_2 C155_2 1_555 1_555
C156_2 C149_2 1_555 1_555
H82_2 C156_2 1_555 1_555
C157_2 C148_2 1_555 1_555
C158_2 C147_2 1_555 1_555
H83_2 C158_2 1_555 1_555
C159_2 C148_2 1_555 1_555
H84_2 C159_2 1_555 1_555
C2_2 C12_2 1_555 1_555
C9_2 C11_2 1_555 1_555
C13_2 C14_2 1_555 1_555
C43_2 C44_2 1_555 1_555
C48_2 C50_2 1_555 1_555
C52_2 C53_2 1_555 1_555
C69_2 C78_2 1_555 1_555
C75_2 C77_2 1_555 1_555
C79_2 C80_2 1_555 1_555
C83_2 C84_2 1_555 1_555
C88_2 C90_2 1_555 1_555
C92_2 C93_2 1_555 1_555
C108_2 C118_2 1_555 1_555
C115_2 C117_2 1_555 1_555
C119_2 C120_2 1_555 1_555
C128_2 C130_2 1_555 1_555
C132_2 C133_2 1_555 1_555
C136_2 C137_2 1_555 1_555
C141_2 C143_2 1_555 1_555
C145_2 C146_2 1_555 1_555
C149_2 C150_2 1_555 1_555
C154_2 C156_2 1_555 1_555
C158_2 C159_2 1_555 1_555
O39 C25_2 1_555 1_555
O45 C25_2 1_555 1_555
C15_2 C19_2 1_555 1_555
C16_2 C23_2 1_555 1_555
C17_2 C18_2 1_555 1_555
C18_2 C4_4 1_555 1_555
C19_2 C20_2 1_555 1_555
C20_2 C18_2 1_555 1_555
H8_2 C20_2 1_555 1_555
C21_2 C15_2 1_555 1_555
H9_2 C21_2 1_555 1_555
C22_2 C19_2 1_555 1_555
H10_2 C22_2 1_555 1_555
C23_2 C21_2 1_555 1_555
H11_2 C23_2 1_555 1_555
C24_2 C17_2 1_555 1_555
H12_2 C24_2 1_555 1_555
C25_2 C16_2 1_555 1_555
C26_2 C15_2 1_555 1_555
H13_2 C26_2 1_555 1_555
C27_2 C16_2 1_555 1_555
H14_2 C27_2 1_555 1_555
O38_2 C38_2 1_555 1_555
O44_2 C38_2 1_555 1_555
C28_2 C32_2 1_555 1_555
C29_2 C36_2 1_555 1_555
C31_2 C4_4 1_555 1_555
C32_2 C33_2 1_555 1_555
C33_2 C31_2 1_555 1_555
H15_2 C33_2 1_555 1_555
C34_2 C28_2 1_555 1_555
H16_2 C34_2 1_555 1_555
C35_2 C32_2 1_555 1_555
H17_2 C35_2 1_555 1_555
C36_2 C34_2 1_555 1_555
H18_2 C36_2 1_555 1_555
C37_2 C30_2 1_555 1_555
H19_2 C37_2 1_555 1_555
C38_2 C29_2 1_555 1_555
C39_2 C28_2 1_555 1_555
H20_2 C39_2 1_555 1_555
C40_2 C29_2 1_555 1_555
H21_2 C40_2 1_555 1_555
C22_2 C24_2 1_555 1_555
C26_2 C27_2 1_555 1_555
C30_2 C31_2 1_555 1_555
C35_2 C37_2 1_555 1_555
C39_2 C40_2 1_555 1_555

#END
