
###############################################################################
#
# This file contains modified crystal structure data generated from the
# MOF subset of the Cambridge Structural Database (CSD) v543 
# hosted by the Cambridge Crystallographic Data Centre (CCDC).
#
# This work is licensed under the Creative Commons
# Attribution-NonCommercial-ShareAlike 4.0 International License.
# To view a copy of this license, visit
# http://creativecommons.org/licenses/by-nc-sa/4.0/
# or send a letter to
# Creative Commons, PO Box 1866, Mountain View, CA 94042, USA.
#
# CIF created using the CSD Python API on 29 September 2022
# The structure has been converted into the P1 space group
# The structure has a 3D framework
# The original CSD entry QOTLOD04 is in the hexagonal crystal system
# The framework has been calculated to contain at least 10.0% void space
# The void calculation uses a probe of radius 1.32A, grid spacing 0.4
# The framework is charged, counterions have been retained in the structure
# H atom positions have been added when not included in the experimental data
# Generated hydrogen atom positions removed from atoms on special positions
#
###############################################################################

data_QOTLOD04
_chemical_formula_moiety         '(C322 H264 Fe18 O72 2+)n'
_symmetry_cell_setting           triclinic
_symmetry_space_group_name_H-M   'P 1'
_symmetry_Int_Tables_number      1
_space_group_name_Hall           'P 1'
loop_
_symmetry_equiv_pos_site_id
_symmetry_equiv_pos_as_xyz
1 x,y,z
_cell_length_a                   31.4730(7)
_cell_length_b                   31.473
_cell_length_c                   33.1372(10)
_cell_angle_alpha                90
_cell_angle_beta                 90
_cell_angle_gamma                120
_cell_volume                     28426.5
loop_
_atom_site_label
_atom_site_type_symbol
_atom_site_fract_x
_atom_site_fract_y
_atom_site_fract_z
C120 C 0.5000 0.0000 0.2500
O24 O 0.63786(9) 0.24280(12) 0.04313(6)
O25 O 0.57988(8) 0.26322(12) 0.04321(7)
C121 C 0.59844(13) 0.23845(20) 0.05589(11)
C122 C 0.57249(13) 0.20244(19) 0.08748(10)
C123 C 0.53187(19) 0.19781(25) 0.10463(14)
H64 H 0.5208 0.2197 0.0969
C124 C 0.50484(16) 0.16133(24) 0.13400(14)
H65 H 0.4760 0.1591 0.1452
C125 C 0.51953(14) 0.12919(20) 0.14660(10)
C126 C 0.56098(18) 0.13512(24) 0.12976(15)
H66 H 0.5734 0.1144 0.1379
C127 C 0.58622(15) 0.17130(24) 0.10040(14)
H67 H 0.6150 0.1736 0.0891
C128 C 0.49131(13) 0.09127(18) 0.17736(10)
C129 C 0.44413(15) 0.07933(20) 0.18651(11)
H68 H 0.4297 0.0956 0.1730
C130 C 0.41702(13) 0.04370(19) 0.21513(12)
H69 H 0.3845 0.0360 0.2214
C131 C 0.43830(12) 0.01901(18) 0.23494(9)
C132 C 0.48525(11) 0.03092(15) 0.22546(9)
C133 C 0.51166(11) 0.06624(16) 0.19698(10)
H70 H 0.5441 0.0737 0.1906
O26 O 0.60494(8) 0.24280(12) 0.45687(6)
O27 O 0.68334(9) 0.26322(12) 0.45679(7)
C134 C 0.64001(15) 0.23845(20) 0.44411(11)
C135 C 0.62995(14) 0.20244(19) 0.41252(10)
C136 C 0.66594(17) 0.19781(25) 0.39537(14)
H71 H 0.6989 0.2197 0.4031
C137 C 0.65649(18) 0.16133(24) 0.36600(14)
H72 H 0.6831 0.1591 0.3548
C138 C 0.60966(14) 0.12919(20) 0.35340(10)
C139 C 0.57414(16) 0.13512(24) 0.37024(15)
H73 H 0.5410 0.1144 0.3621
C140 C 0.58508(19) 0.17130(24) 0.39960(14)
H74 H 0.5586 0.1736 0.4109
C141 C 0.59996(12) 0.09127(18) 0.32264(10)
C142 C 0.63520(13) 0.07933(20) 0.31349(11)
H75 H 0.6659 0.0956 0.3270
C143 C 0.62668(14) 0.04370(19) 0.28487(12)
H76 H 0.6515 0.0360 0.2786
C144 C 0.58071(13) 0.01901(18) 0.26506(9)
C145 C 0.54567(10) 0.03092(15) 0.27454(9)
C146 C 0.55458(11) 0.06624(16) 0.30302(10)
H77 H 0.5296 0.0737 0.3094
Fe7 Fe 0.68565(3) 0.28426(2) 0.0000
Fe10 Fe 0.59861(2) 0.31435(3) 0.0000
Fe14 Fe 0.71574(2) 0.31435(3) 0.5000
Fe16 Fe 0.59861(2) 0.28426(2) 0.5000
Fe7_2 Fe 0.68565(3) 0.28426(2) 1.0000
Fe10_2 Fe 0.59861(2) 0.31435(3) 1.0000
Fe1 Fe 0.28426(2) 0.59861(2) 0.0000
O1 O 0.39506(8) 0.63786(9) 0.04313(6)
O2 O 0.31666(9) 0.57988(8) 0.04321(7)
O3 O 0.3333 0.6667 0.0000
O4 O 0.23220(10) 0.52593(10) 0.0000
C1 C 0.35999(15) 0.59844(13) 0.05589(11)
C2 C 0.37005(14) 0.57249(13) 0.08748(10)
C3 C 0.33406(17) 0.53187(19) 0.10463(14)
H1 H 0.3011 0.5208 0.0969
C4 C 0.34351(18) 0.50484(16) 0.13400(14)
H2 H 0.3169 0.4760 0.1452
C5 C 0.39034(14) 0.51953(14) 0.14660(10)
C6 C 0.42586(16) 0.56098(18) 0.12976(15)
H3 H 0.4590 0.5734 0.1379
C7 C 0.41492(19) 0.58622(15) 0.10040(14)
H4 H 0.4414 0.6150 0.0891
C8 C 0.40004(12) 0.49131(13) 0.17736(10)
C9 C 0.36480(13) 0.44413(15) 0.18651(11)
H5 H 0.3341 0.4297 0.1730
C10 C 0.37332(14) 0.41702(13) 0.21513(12)
H6 H 0.3485 0.3845 0.2214
C11 C 0.41929(13) 0.43830(12) 0.23494(9)
C12 C 0.45433(10) 0.48525(11) 0.22546(9)
C13 C 0.44542(11) 0.51166(11) 0.19698(10)
H7 H 0.4704 0.5441 0.1906
C14 C 0.5000 0.5000 0.2500
O5 O 0.60494(8) 0.36214(9) 0.04313(6)
O6 O 0.68334(9) 0.42012(8) 0.04321(7)
C15 C 0.64001(15) 0.40156(13) 0.05589(11)
C16 C 0.62995(14) 0.42751(13) 0.08748(10)
C17 C 0.66594(17) 0.46813(19) 0.10463(14)
H8 H 0.6989 0.4792 0.0969
C18 C 0.65649(18) 0.49516(16) 0.13400(14)
H9 H 0.6831 0.5240 0.1452
C19 C 0.60966(14) 0.48047(14) 0.14660(10)
C20 C 0.57414(16) 0.43902(18) 0.12976(15)
H10 H 0.5410 0.4266 0.1379
C21 C 0.58508(19) 0.41378(15) 0.10040(14)
H11 H 0.5586 0.3850 0.0891
C22 C 0.59996(12) 0.50869(13) 0.17736(10)
C23 C 0.63520(13) 0.55587(15) 0.18651(11)
H12 H 0.6659 0.5703 0.1730
C24 C 0.62668(14) 0.58298(13) 0.21513(12)
H13 H 0.6515 0.6155 0.2214
C25 C 0.58071(13) 0.56170(12) 0.23494(9)
C26 C 0.54567(10) 0.51475(11) 0.22546(9)
C27 C 0.55458(11) 0.48834(11) 0.19698(10)
H14 H 0.5296 0.4559 0.1906
O7 O 0.63786(9) 0.39506(8) 0.45687(6)
O8 O 0.57988(8) 0.31666(9) 0.45679(7)
C28 C 0.59844(13) 0.35999(15) 0.44411(11)
C29 C 0.57249(13) 0.37005(14) 0.41252(10)
C30 C 0.53187(19) 0.33406(17) 0.39537(14)
H15 H 0.5208 0.3011 0.4031
C31 C 0.50484(16) 0.34351(18) 0.36600(14)
H16 H 0.4760 0.3169 0.3548
C32 C 0.51953(14) 0.39034(14) 0.35340(10)
C33 C 0.56098(18) 0.42586(16) 0.37024(15)
H17 H 0.5734 0.4590 0.3621
C34 C 0.58622(15) 0.41492(19) 0.39960(14)
H18 H 0.6150 0.4414 0.4109
C35 C 0.49131(13) 0.40004(12) 0.32264(10)
C36 C 0.44413(15) 0.36480(13) 0.31349(11)
H19 H 0.4297 0.3341 0.3270
C37 C 0.41702(13) 0.37332(14) 0.28487(12)
H20 H 0.3845 0.3485 0.2786
C38 C 0.43830(12) 0.41929(13) 0.26506(9)
C39 C 0.48525(11) 0.45433(10) 0.27454(9)
C40 C 0.51166(11) 0.44542(11) 0.30302(10)
H21 H 0.5441 0.4704 0.3094
O9 O 0.36214(9) 0.60494(8) 0.45687(6)
O10 O 0.42012(8) 0.68334(9) 0.45679(7)
C41 C 0.40156(13) 0.64001(15) 0.44411(11)
C42 C 0.42751(13) 0.62995(14) 0.41252(10)
C43 C 0.46813(19) 0.66594(17) 0.39537(14)
H22 H 0.4792 0.6989 0.4031
C44 C 0.49516(16) 0.65649(18) 0.36600(14)
H23 H 0.5240 0.6831 0.3548
C45 C 0.48047(14) 0.60966(14) 0.35340(10)
C46 C 0.43902(18) 0.57414(16) 0.37024(15)
H24 H 0.4266 0.5410 0.3621
C47 C 0.41378(15) 0.58508(19) 0.39960(14)
H25 H 0.3850 0.5586 0.4109
C48 C 0.50869(13) 0.59996(12) 0.32264(10)
C49 C 0.55587(15) 0.63520(13) 0.31349(11)
H26 H 0.5703 0.6659 0.3270
C50 C 0.58298(13) 0.62668(14) 0.28487(12)
H27 H 0.6155 0.6515 0.2786
C51 C 0.56170(12) 0.58071(13) 0.26506(9)
C52 C 0.51475(11) 0.54567(10) 0.27454(9)
C53 C 0.48834(11) 0.55458(11) 0.30302(10)
H28 H 0.4559 0.5296 0.3094
C67 C -0.0000 0.5000 0.2500
O15 O 0.24280(12) 0.60494(8) 0.04313(6)
O16 O 0.26322(12) 0.68334(9) 0.04321(7)
C68 C 0.23845(20) 0.64001(15) 0.05589(11)
C69 C 0.20244(19) 0.62995(14) 0.08748(10)
C70 C 0.19781(25) 0.66594(17) 0.10463(14)
H36 H 0.2197 0.6989 0.0969
C71 C 0.16133(24) 0.65649(18) 0.13400(14)
H37 H 0.1591 0.6831 0.1452
C72 C 0.12919(20) 0.60966(14) 0.14660(10)
C73 C 0.13512(24) 0.57414(16) 0.12976(15)
H38 H 0.1144 0.5410 0.1379
C74 C 0.17130(24) 0.58508(19) 0.10040(14)
H39 H 0.1736 0.5586 0.0891
C75 C 0.09127(18) 0.59996(12) 0.17736(10)
C76 C 0.07933(20) 0.63520(13) 0.18651(11)
H40 H 0.0956 0.6659 0.1730
C77 C 0.04370(19) 0.62668(14) 0.21513(12)
H41 H 0.0360 0.6515 0.2214
C78 C 0.01901(18) 0.58071(13) 0.23494(9)
C79 C 0.03092(15) 0.54567(10) 0.22546(9)
C80 C 0.06624(16) 0.55458(11) 0.19698(10)
H42 H 0.0737 0.5296 0.1906
O17 O 0.24280(12) 0.63786(9) 0.45687(6)
O18 O 0.26322(12) 0.57988(8) 0.45679(7)
C81 C 0.23845(20) 0.59844(13) 0.44411(11)
C82 C 0.20244(19) 0.57249(13) 0.41252(10)
C83 C 0.19781(25) 0.53187(19) 0.39537(14)
H43 H 0.2197 0.5208 0.4031
C84 C 0.16133(24) 0.50484(16) 0.36600(14)
H44 H 0.1591 0.4760 0.3548
C85 C 0.12919(20) 0.51953(14) 0.35340(10)
C86 C 0.13512(24) 0.56098(18) 0.37024(15)
H45 H 0.1144 0.5734 0.3621
C87 C 0.17130(24) 0.58622(15) 0.39960(14)
H46 H 0.1736 0.6150 0.4109
C88 C 0.09127(18) 0.49131(13) 0.32264(10)
C89 C 0.07933(20) 0.44413(15) 0.31349(11)
H47 H 0.0956 0.4297 0.3270
C90 C 0.04370(19) 0.41702(13) 0.28487(12)
H48 H 0.0360 0.3845 0.2786
C91 C 0.01901(18) 0.43830(12) 0.26506(9)
C92 C 0.03092(15) 0.48525(11) 0.27454(9)
C93 C 0.06624(16) 0.51166(11) 0.30302(10)
H49 H 0.0737 0.5441 0.3094
Fe3 Fe 0.40139(2) 0.68565(3) 0.0000
O21 O 0.36214(9) 0.75720(12) 0.04313(6)
O22 O 0.42012(8) 0.73678(12) 0.04321(7)
O23 O 0.47407(10) 0.70627(14) 0.0000
C107 C 0.40156(13) 0.76155(20) 0.05589(11)
C108 C 0.42751(13) 0.79756(19) 0.08748(10)
C109 C 0.46813(19) 0.80219(25) 0.10463(14)
H57 H 0.4792 0.7803 0.0969
C110 C 0.49516(16) 0.83867(24) 0.13400(14)
H58 H 0.5240 0.8409 0.1452
C111 C 0.48047(14) 0.87081(20) 0.14660(10)
C112 C 0.43902(18) 0.86488(24) 0.12976(15)
H59 H 0.4266 0.8856 0.1379
C113 C 0.41378(15) 0.82870(24) 0.10040(14)
H60 H 0.3850 0.8264 0.0891
C114 C 0.50869(13) 0.90873(18) 0.17736(10)
C115 C 0.55587(15) 0.92067(20) 0.18651(11)
H61 H 0.5703 0.9044 0.1730
C116 C 0.58298(13) 0.95630(19) 0.21513(12)
H62 H 0.6155 0.9640 0.2214
C117 C 0.56170(12) 0.98099(18) 0.23494(9)
C118 C 0.51475(11) 0.96908(15) 0.22546(9)
C119 C 0.48834(11) 0.93376(16) 0.19698(10)
H63 H 0.4559 0.9263 0.1906
C120_2 C 0.5000 1.0000 0.2500
O28 O 0.39506(8) 0.75720(12) 0.45687(6)
O29 O 0.31666(9) 0.73678(12) 0.45679(7)
C147 C 0.35999(15) 0.76155(20) 0.44411(11)
C148 C 0.37005(14) 0.79756(19) 0.41252(10)
C149 C 0.33406(17) 0.80219(25) 0.39537(14)
H78 H 0.3011 0.7803 0.4031
C150 C 0.34351(18) 0.83867(24) 0.36600(14)
H79 H 0.3169 0.8409 0.3548
C151 C 0.39034(14) 0.87081(20) 0.35340(10)
C152 C 0.42586(16) 0.86488(24) 0.37024(15)
H80 H 0.4590 0.8856 0.3621
C153 C 0.41492(19) 0.82870(24) 0.39960(14)
H81 H 0.4414 0.8264 0.4109
C154 C 0.40004(12) 0.90873(18) 0.32264(10)
C155 C 0.36480(13) 0.92067(20) 0.31349(11)
H82 H 0.3341 0.9044 0.3270
C156 C 0.37332(14) 0.95630(19) 0.28487(12)
H83 H 0.3485 0.9640 0.2786
C157 C 0.41929(13) 0.98099(18) 0.26506(9)
C158 C 0.45433(10) 0.96908(15) 0.27454(9)
C159 C 0.44542(11) 0.93376(16) 0.30302(10)
H84 H 0.4704 0.9263 0.3094
Fe4 Fe 0.71574(2) 0.40139(2) 0.0000
O30 O 0.76780(10) 0.47407(10) 0.0000
Fe5 Fe 0.31435(3) 0.71574(2) 0.0000
O31 O 0.29373(14) 0.76780(10) 0.0000
O32 O 0.52593(10) 0.29373(14) 0.0000
Fe12 Fe 0.68565(3) 0.40139(2) 0.5000
Fe17 Fe 0.40139(2) 0.71574(2) 0.5000
Fe18 Fe 0.31435(3) 0.59861(2) 0.5000
Fe19 Fe 0.28426(2) 0.68565(3) 0.5000
O33 O 0.75720(12) 0.39506(8) 0.04313(6)
O48 O 0.6666 0.3333 0.0000
Fe1_2 Fe 0.28426(2) 0.59861(2) 1.0000
O3_2 O 0.3333 0.6667 1.0000
O4_2 O 0.23220(10) 0.52593(10) 1.0000
Fe3_2 Fe 0.40139(2) 0.68565(3) 1.0000
O23_2 O 0.47407(10) 0.70627(14) 1.0000
Fe4_2 Fe 0.71574(2) 0.40139(2) 1.0000
O30_2 O 0.76780(10) 0.47407(10) 1.0000
Fe5_2 Fe 0.31435(3) 0.71574(2) 1.0000
O31_2 O 0.29373(14) 0.76780(10) 1.0000
O32_2 O 0.52593(10) 0.29373(14) 1.0000
O35 O 0.60494(8) 0.36214(9) 0.95687(6)
O36 O 0.24280(12) 0.60494(8) 0.95687(6)
O38 O 0.39506(8) 0.63786(9) 0.95687(6)
O39 O 0.75720(12) 0.39506(8) 0.95687(6)
O40 O 0.36214(9) 0.75720(12) 0.95687(6)
O42 O 0.68334(9) 0.42012(8) 0.95679(7)
O43 O 0.26322(12) 0.68334(9) 0.95679(7)
O44 O 0.57988(8) 0.26322(12) 0.95679(7)
O45 O 0.31666(9) 0.57988(8) 0.95679(7)
O47 O 0.42012(8) 0.73678(12) 0.95679(7)
O48_2 O 0.6666 0.3333 1.0000
O12 O 0.73678(12) 0.31666(9) 0.04321(7)
O14 O 0.70627(14) 0.23220(10) 0.0000
C54 C 0.76155(20) 0.35999(15) 0.05589(11)
C55 C 0.79756(19) 0.37005(14) 0.08748(10)
C56 C 0.80219(25) 0.33406(17) 0.10463(14)
H29 H 0.7803 0.3011 0.0969
C57 C 0.83867(24) 0.34351(18) 0.13400(14)
H30 H 0.8409 0.3169 0.1452
C58 C 0.87081(20) 0.39034(14) 0.14660(10)
C59 C 0.86488(24) 0.42586(16) 0.12976(15)
H31 H 0.8856 0.4590 0.1379
C60 C 0.82870(24) 0.41492(19) 0.10040(14)
H32 H 0.8264 0.4414 0.0891
C61 C 0.90873(18) 0.40004(12) 0.17736(10)
C62 C 0.92067(20) 0.36480(13) 0.18651(11)
H33 H 0.9044 0.3341 0.1730
C63 C 0.95630(19) 0.37332(14) 0.21513(12)
H34 H 0.9640 0.3485 0.2214
C64 C 0.98099(18) 0.41929(13) 0.23494(9)
C65 C 0.96908(15) 0.45433(10) 0.22546(9)
C66 C 0.93376(16) 0.44542(11) 0.19698(10)
H35 H 0.9263 0.4704 0.1906
C67_2 C 1.0000 0.5000 0.2500
O19 O 0.75720(12) 0.36214(9) 0.45687(6)
O20 O 0.73678(12) 0.42012(8) 0.45679(7)
C94 C 0.76155(20) 0.40156(13) 0.44411(11)
C95 C 0.79756(19) 0.42751(13) 0.41252(10)
C96 C 0.80219(25) 0.46813(19) 0.39537(14)
H50 H 0.7803 0.4792 0.4031
C97 C 0.83867(24) 0.49516(16) 0.36600(14)
H51 H 0.8409 0.5240 0.3548
C98 C 0.87081(20) 0.48047(14) 0.35340(10)
C99 C 0.86488(24) 0.43902(18) 0.37024(15)
H52 H 0.8856 0.4266 0.3621
C100 C 0.82870(24) 0.41378(15) 0.39960(14)
H53 H 0.8264 0.3850 0.4109
C101 C 0.90873(18) 0.50869(13) 0.32264(10)
C102 C 0.92067(20) 0.55587(15) 0.31349(11)
H54 H 0.9044 0.5703 0.3270
C103 C 0.95630(19) 0.58298(13) 0.28487(12)
H55 H 0.9640 0.6155 0.2786
C104 C 0.98099(18) 0.56170(12) 0.26506(9)
C105 C 0.96908(15) 0.51475(11) 0.27454(9)
C106 C 0.93376(16) 0.48834(11) 0.30302(10)
H56 H 0.9263 0.4559 0.3094
O14_2 O 0.70627(14) 0.23220(10) 1.0000
O37 O 0.63786(9) 0.24280(12) 0.95687(6)
O46 O 0.73678(12) 0.31666(9) 0.95679(7)
O30_3 O 0.29373(14) 0.52593(10) 0.5000
O32_3 O 0.23220(17) 0.70627(14) 0.5000
O35_2 O 0.24280(12) 0.63786(9) 0.54313(6)
O39_2 O 0.36214(14) 0.60494(8) 0.54313(6)
O42_2 O 0.26322(12) 0.57988(8) 0.54321(7)
O44_2 O 0.31666(14) 0.73678(12) 0.54321(7)
O48_3 O 0.3333 0.6667 0.5000
O3_3 O 0.6666 0.3333 0.5000
O4_3 O 0.70627(14) 0.47407(10) 0.5000
O14_3 O 0.47407(17) 0.76780(10) 0.5000
O23_3 O 0.76780(17) 0.29373(14) 0.5000
O31_3 O 0.52593(17) 0.23220(10) 0.5000
O36_2 O 0.63786(14) 0.39506(8) 0.54313(6)
O37_2 O 0.39506(15) 0.75720(12) 0.54313(6)
O38_2 O 0.75720(12) 0.36214(9) 0.54313(6)
O40_2 O 0.60494(15) 0.24280(12) 0.54313(6)
O43_2 O 0.57988(15) 0.31666(9) 0.54321(7)
O45_2 O 0.73678(12) 0.42012(8) 0.54321(7)
O46_2 O 0.42012(15) 0.68334(9) 0.54321(7)
O47_2 O 0.68334(14) 0.26322(12) 0.54321(7)
C54_2 C 0.23845(20) 0.64001(15) 0.94411(11)
C55_2 C 0.20244(19) 0.62995(14) 0.91252(10)
C56_2 C 0.19781(25) 0.66594(17) 0.89537(14)
H29_2 H 0.2197 0.6989 0.9031
C57_2 C 0.16133(24) 0.65649(18) 0.86600(14)
H30_2 H 0.1591 0.6831 0.8548
C58_2 C 0.12919(20) 0.60966(14) 0.85340(10)
C59_2 C 0.13512(24) 0.57414(16) 0.87024(15)
H31_2 H 0.1144 0.5410 0.8621
C60_2 C 0.17130(24) 0.58508(19) 0.89960(14)
H32_2 H 0.1736 0.5586 0.9109
C61_2 C 0.09127(18) 0.59996(12) 0.82264(10)
C62_2 C 0.07933(20) 0.63520(13) 0.81349(11)
H33_2 H 0.0956 0.6659 0.8270
C63_2 C 0.04370(19) 0.62668(14) 0.78487(12)
H34_2 H 0.0360 0.6515 0.7786
C64_2 C 0.01901(18) 0.58071(13) 0.76506(9)
C65_2 C 0.03092(15) 0.54567(10) 0.77454(9)
C66_2 C 0.06624(16) 0.55458(11) 0.80302(10)
H35_2 H 0.0737 0.5296 0.8094
C67_3 C -0.0000 0.5000 0.7500
C94_2 C 0.23845(20) 0.59844(13) 0.55589(11)
C95_2 C 0.20244(19) 0.57249(13) 0.58748(10)
C96_2 C 0.19781(25) 0.53187(19) 0.60463(14)
H50_2 H 0.2197 0.5208 0.5969
C97_2 C 0.16133(24) 0.50484(16) 0.63400(14)
H51_2 H 0.1591 0.4760 0.6452
C98_2 C 0.12919(20) 0.51953(14) 0.64660(10)
C99_2 C 0.13512(24) 0.56098(18) 0.62976(15)
H52_2 H 0.1144 0.5734 0.6379
C100_2 C 0.17130(24) 0.58622(15) 0.60040(14)
H53_2 H 0.1736 0.6150 0.5891
C101_2 C 0.09127(18) 0.49131(13) 0.67736(10)
C102_2 C 0.07933(20) 0.44413(15) 0.68651(11)
H54_2 H 0.0956 0.4297 0.6730
C103_2 C 0.04370(19) 0.41702(13) 0.71513(12)
H55_2 H 0.0360 0.3845 0.7214
C104_2 C 0.01901(18) 0.43830(12) 0.73494(9)
C105_2 C 0.03092(15) 0.48525(11) 0.72546(9)
C106_2 C 0.06624(16) 0.51166(11) 0.69698(10)
H56_2 H 0.0737 0.5441 0.6906
C1_2 C 0.64001(15) 0.40156(13) 0.94411(11)
C2_2 C 0.62995(14) 0.42751(13) 0.91252(10)
C3_2 C 0.66594(17) 0.46813(19) 0.89537(14)
H1_2 H 0.6989 0.4792 0.9031
C4_2 C 0.65649(18) 0.49516(16) 0.86600(14)
H2_2 H 0.6831 0.5240 0.8548
C5_2 C 0.60966(14) 0.48047(14) 0.85340(10)
C6_2 C 0.57414(16) 0.43902(18) 0.87024(15)
H3_2 H 0.5410 0.4266 0.8621
C7_2 C 0.58508(19) 0.41378(15) 0.89960(14)
H4_2 H 0.5586 0.3850 0.9109
C8_2 C 0.59996(12) 0.50869(13) 0.82264(10)
C9_2 C 0.63520(13) 0.55587(15) 0.81349(11)
H5_2 H 0.6659 0.5703 0.8270
C10_2 C 0.62668(14) 0.58298(13) 0.78487(12)
H6_2 H 0.6515 0.6155 0.7786
C11_2 C 0.58071(13) 0.56170(12) 0.76506(9)
C12_2 C 0.54567(10) 0.51475(11) 0.77454(9)
C13_2 C 0.55458(11) 0.48834(11) 0.80302(10)
H7_2 H 0.5296 0.4559 0.8094
C14_2 C 0.5000 0.5000 0.7500
C15_2 C 0.35999(15) 0.59844(13) 0.94411(11)
C16_2 C 0.37005(14) 0.57249(13) 0.91252(10)
C17_2 C 0.33406(17) 0.53187(19) 0.89537(14)
H8_2 H 0.3011 0.5208 0.9031
C18_2 C 0.34351(18) 0.50484(16) 0.86600(14)
H9_2 H 0.3169 0.4760 0.8548
C19_2 C 0.39034(14) 0.51953(14) 0.85340(10)
C20_2 C 0.42586(16) 0.56098(18) 0.87024(15)
H10_2 H 0.4590 0.5734 0.8621
C21_2 C 0.41492(19) 0.58622(15) 0.89960(14)
H11_2 H 0.4414 0.6150 0.9109
C22_2 C 0.40004(12) 0.49131(13) 0.82264(10)
C23_2 C 0.36480(13) 0.44413(15) 0.81349(11)
H12_2 H 0.3341 0.4297 0.8270
C24_2 C 0.37332(14) 0.41702(13) 0.78487(12)
H13_2 H 0.3485 0.3845 0.7786
C25_2 C 0.41929(13) 0.43830(12) 0.76506(9)
C26_2 C 0.45433(10) 0.48525(11) 0.77454(9)
C27_2 C 0.44542(11) 0.51166(11) 0.80302(10)
H14_2 H 0.4704 0.5441 0.8094
C28_2 C 0.40156(13) 0.64001(15) 0.55589(11)
C29_2 C 0.42751(13) 0.62995(14) 0.58748(10)
C30_2 C 0.46813(19) 0.66594(17) 0.60463(14)
H15_2 H 0.4792 0.6989 0.5969
C31_2 C 0.49516(16) 0.65649(18) 0.63400(14)
H16_2 H 0.5240 0.6831 0.6452
C32_2 C 0.48047(14) 0.60966(14) 0.64660(10)
C33_2 C 0.43902(18) 0.57414(16) 0.62976(15)
H17_2 H 0.4266 0.5410 0.6379
C34_2 C 0.41378(15) 0.58508(19) 0.60040(14)
H18_2 H 0.3850 0.5586 0.5891
C35_2 C 0.50869(13) 0.59996(12) 0.67736(10)
C36_2 C 0.55587(15) 0.63520(13) 0.68651(11)
H19_2 H 0.5703 0.6659 0.6730
C37_2 C 0.58298(13) 0.62668(14) 0.71513(12)
H20_2 H 0.6155 0.6515 0.7214
C38_2 C 0.56170(12) 0.58071(13) 0.73494(9)
C39_2 C 0.51475(11) 0.54567(10) 0.72546(9)
C40_2 C 0.48834(11) 0.55458(11) 0.69698(10)
H21_2 H 0.4559 0.5296 0.6906
C41_2 C 0.59844(13) 0.35999(15) 0.55589(11)
C42_2 C 0.57249(13) 0.37005(14) 0.58748(10)
C43_2 C 0.53187(19) 0.33406(17) 0.60463(14)
H22_2 H 0.5208 0.3011 0.5969
C44_2 C 0.50484(16) 0.34351(18) 0.63400(14)
H23_2 H 0.4760 0.3169 0.6452
C45_2 C 0.51953(14) 0.39034(14) 0.64660(10)
C46_2 C 0.56098(18) 0.42586(16) 0.62976(15)
H24_2 H 0.5734 0.4590 0.6379
C47_2 C 0.58622(15) 0.41492(19) 0.60040(14)
H25_2 H 0.6150 0.4414 0.5891
C48_2 C 0.49131(13) 0.40004(12) 0.67736(10)
C49_2 C 0.44413(15) 0.36480(13) 0.68651(11)
H26_2 H 0.4297 0.3341 0.6730
C50_2 C 0.41702(13) 0.37332(14) 0.71513(12)
H27_2 H 0.3845 0.3485 0.7214
C51_2 C 0.43830(12) 0.41929(13) 0.73494(9)
C52_2 C 0.48525(11) 0.45433(10) 0.72546(9)
C53_2 C 0.51166(11) 0.44542(11) 0.69698(10)
H28_2 H 0.5441 0.4704 0.6906
C67_4 C 1.0000 0.5000 0.7500
C68_2 C 0.76155(20) 0.35999(15) 0.94411(11)
C69_2 C 0.79756(19) 0.37005(14) 0.91252(10)
C70_2 C 0.80219(25) 0.33406(17) 0.89537(14)
H36_2 H 0.7803 0.3011 0.9031
C71_2 C 0.83867(24) 0.34351(18) 0.86600(14)
H37_2 H 0.8409 0.3169 0.8548
C72_2 C 0.87081(20) 0.39034(14) 0.85340(10)
C73_2 C 0.86488(24) 0.42586(16) 0.87024(15)
H38_2 H 0.8856 0.4590 0.8621
C74_2 C 0.82870(24) 0.41492(19) 0.89960(14)
H39_2 H 0.8264 0.4414 0.9109
C75_2 C 0.90873(18) 0.40004(12) 0.82264(10)
C76_2 C 0.92067(20) 0.36480(13) 0.81349(11)
H40_2 H 0.9044 0.3341 0.8270
C77_2 C 0.95630(19) 0.37332(14) 0.78487(12)
H41_2 H 0.9640 0.3485 0.7786
C78_2 C 0.98099(18) 0.41929(13) 0.76506(9)
C79_2 C 0.96908(15) 0.45433(10) 0.77454(9)
C80_2 C 0.93376(16) 0.44542(11) 0.80302(10)
H42_2 H 0.9263 0.4704 0.8094
C81_2 C 0.76155(20) 0.40156(13) 0.55589(11)
C82_2 C 0.79756(19) 0.42751(13) 0.58748(10)
C83_2 C 0.80219(25) 0.46813(19) 0.60463(14)
H43_2 H 0.7803 0.4792 0.5969
C84_2 C 0.83867(24) 0.49516(16) 0.63400(14)
H44_2 H 0.8409 0.5240 0.6452
C85_2 C 0.87081(20) 0.48047(14) 0.64660(10)
C86_2 C 0.86488(24) 0.43902(18) 0.62976(15)
H45_2 H 0.8856 0.4266 0.6379
C87_2 C 0.82870(24) 0.41378(15) 0.60040(14)
H46_2 H 0.8264 0.3850 0.5891
C88_2 C 0.90873(18) 0.50869(13) 0.67736(10)
C89_2 C 0.92067(20) 0.55587(15) 0.68651(11)
H47_2 H 0.9044 0.5703 0.6730
C90_2 C 0.95630(19) 0.58298(13) 0.71513(12)
H48_2 H 0.9640 0.6155 0.7214
C91_2 C 0.98099(18) 0.56170(12) 0.73494(9)
C92_2 C 0.96908(15) 0.51475(11) 0.72546(9)
C93_2 C 0.93376(16) 0.48834(11) 0.69698(10)
H49_2 H 0.9263 0.4559 0.6906
C107_2 C 0.59844(13) 0.23845(20) 0.94411(11)
C108_2 C 0.57249(13) 0.20244(19) 0.91252(10)
C109_2 C 0.53187(19) 0.19781(25) 0.89537(14)
H57_2 H 0.5208 0.2197 0.9031
C110_2 C 0.50484(16) 0.16133(24) 0.86600(14)
H58_2 H 0.4760 0.1591 0.8548
C111_2 C 0.51953(14) 0.12919(20) 0.85340(10)
C112_2 C 0.56098(18) 0.13512(24) 0.87024(15)
H59_2 H 0.5734 0.1144 0.8621
C113_2 C 0.58622(15) 0.17130(24) 0.89960(14)
H60_2 H 0.6150 0.1736 0.9109
C114_2 C 0.49131(13) 0.09127(18) 0.82264(10)
C115_2 C 0.44413(15) 0.07933(20) 0.81349(11)
H61_2 H 0.4297 0.0956 0.8270
C116_2 C 0.41702(13) 0.04370(19) 0.78487(12)
H62_2 H 0.3845 0.0360 0.7786
C117_2 C 0.43830(12) 0.01901(18) 0.76506(9)
C118_2 C 0.48525(11) 0.03092(15) 0.77454(9)
C119_2 C 0.51166(11) 0.06624(16) 0.80302(10)
H63_2 H 0.5441 0.0737 0.8094
C120_3 C 0.5000 0.0000 0.7500
C147_2 C 0.64001(15) 0.23845(20) 0.55589(11)
C148_2 C 0.62995(14) 0.20244(19) 0.58748(10)
C149_2 C 0.66594(17) 0.19781(25) 0.60463(14)
H78_2 H 0.6989 0.2197 0.5969
C150_2 C 0.65649(18) 0.16133(24) 0.63400(14)
H79_2 H 0.6831 0.1591 0.6452
C151_2 C 0.60966(14) 0.12919(20) 0.64660(10)
C152_2 C 0.57414(16) 0.13512(24) 0.62976(15)
H80_2 H 0.5410 0.1144 0.6379
C153_2 C 0.58508(19) 0.17130(24) 0.60040(14)
H81_2 H 0.5586 0.1736 0.5891
C154_2 C 0.59996(12) 0.09127(18) 0.67736(10)
C155_2 C 0.63520(13) 0.07933(20) 0.68651(11)
H82_2 H 0.6659 0.0956 0.6730
C156_2 C 0.62668(14) 0.04370(19) 0.71513(12)
H83_2 H 0.6515 0.0360 0.7214
C157_2 C 0.58071(13) 0.01901(18) 0.73494(9)
C158_2 C 0.54567(10) 0.03092(15) 0.72546(9)
C159_2 C 0.55458(11) 0.06624(16) 0.69698(10)
H84_2 H 0.5296 0.0737 0.6906
C120_4 C 0.5000 1.0000 0.7500
C121_2 C 0.40156(13) 0.76155(20) 0.94411(11)
C122_2 C 0.42751(13) 0.79756(19) 0.91252(10)
C123_2 C 0.46813(19) 0.80219(25) 0.89537(14)
H64_2 H 0.4792 0.7803 0.9031
C124_2 C 0.49516(16) 0.83867(24) 0.86600(14)
H65_2 H 0.5240 0.8409 0.8548
C125_2 C 0.48047(14) 0.87081(20) 0.85340(10)
C126_2 C 0.43902(18) 0.86488(24) 0.87024(15)
H66_2 H 0.4266 0.8856 0.8621
C127_2 C 0.41378(15) 0.82870(24) 0.89960(14)
H67_2 H 0.3850 0.8264 0.9109
C128_2 C 0.50869(13) 0.90873(18) 0.82264(10)
C129_2 C 0.55587(15) 0.92067(20) 0.81349(11)
H68_2 H 0.5703 0.9044 0.8270
C130_2 C 0.58298(13) 0.95630(19) 0.78487(12)
H69_2 H 0.6155 0.9640 0.7786
C131_2 C 0.56170(12) 0.98099(18) 0.76506(9)
C132_2 C 0.51475(11) 0.96908(15) 0.77454(9)
C133_2 C 0.48834(11) 0.93376(16) 0.80302(10)
H70_2 H 0.4559 0.9263 0.8094
C134_2 C 0.35999(15) 0.76155(20) 0.55589(11)
C135_2 C 0.37005(14) 0.79756(19) 0.58748(10)
C136_2 C 0.33406(17) 0.80219(25) 0.60463(14)
H71_2 H 0.3011 0.7803 0.5969
C137_2 C 0.34351(18) 0.83867(24) 0.63400(14)
H72_2 H 0.3169 0.8409 0.6452
C138_2 C 0.39034(14) 0.87081(20) 0.64660(10)
C139_2 C 0.42586(16) 0.86488(24) 0.62976(15)
H73_2 H 0.4590 0.8856 0.6379
C140_2 C 0.41492(19) 0.82870(24) 0.60040(14)
H74_2 H 0.4414 0.8264 0.5891
C141_2 C 0.40004(12) 0.90873(18) 0.67736(10)
C142_2 C 0.36480(13) 0.92067(20) 0.68651(11)
H75_2 H 0.3341 0.9044 0.6730
C143_2 C 0.37332(14) 0.95630(19) 0.71513(12)
H76_2 H 0.3485 0.9640 0.7214
C144_2 C 0.41929(13) 0.98099(18) 0.73494(9)
C145_2 C 0.45433(10) 0.96908(15) 0.72546(9)
C146_2 C 0.44542(11) 0.93376(16) 0.69698(10)
H77_2 H 0.4704 0.9263 0.6906
loop_
_geom_bond_atom_site_label_1
_geom_bond_atom_site_label_2
_geom_bond_site_symmetry_1
_geom_bond_site_symmetry_2
O24 C121 1_555 1_555
O25 C121 1_555 1_555
C121 C122 1_555 1_555
C122 C123 1_555 1_555
C123 H64 1_555 1_555
C124 C123 1_555 1_555
H65 C124 1_555 1_555
C125 C124 1_555 1_555
C126 C125 1_555 1_555
H66 C126 1_555 1_555
C127 C122 1_555 1_555
H67 C127 1_555 1_555
C128 C125 1_555 1_555
C129 C128 1_555 1_555
H68 C129 1_555 1_555
C130 C129 1_555 1_555
H69 C130 1_555 1_555
C131 C130 1_555 1_555
C132 C120 1_555 1_555
C133 C128 1_555 1_555
H70 C133 1_555 1_555
O26 C134 1_555 1_555
O27 C134 1_555 1_555
C134 C135 1_555 1_555
C135 C136 1_555 1_555
C136 H71 1_555 1_555
C137 C136 1_555 1_555
H72 C137 1_555 1_555
C138 C137 1_555 1_555
C139 C138 1_555 1_555
H73 C139 1_555 1_555
C140 C135 1_555 1_555
H74 C140 1_555 1_555
C141 C138 1_555 1_555
C142 C141 1_555 1_555
H75 C142 1_555 1_555
C143 C142 1_555 1_555
H76 C143 1_555 1_555
C145 C120 1_555 1_555
C146 C141 1_555 1_555
H77 C146 1_555 1_555
Fe7 O24 1_555 1_555
Fe10 O25 1_555 1_555
Fe14 O27 1_555 1_555
Fe16 O26 1_555 1_555
C126 C127 1_555 1_555
C131 C132 1_555 1_555
C132 C133 1_555 1_555
C139 C140 1_555 1_555
C143 C144 1_555 1_555
C144 C145 1_555 1_555
C145 C146 1_555 1_555
Fe1 O2 1_555 1_555
O1 C1 1_555 1_555
O2 C1 1_555 1_555
O3 Fe1 1_555 1_555
O4 Fe1 1_555 1_555
C1 C2 1_555 1_555
C2 C3 1_555 1_555
C3 H1 1_555 1_555
C4 C3 1_555 1_555
H2 C4 1_555 1_555
C5 C4 1_555 1_555
C6 C5 1_555 1_555
H3 C6 1_555 1_555
C7 C2 1_555 1_555
H4 C7 1_555 1_555
C8 C5 1_555 1_555
C9 C8 1_555 1_555
H5 C9 1_555 1_555
C10 C9 1_555 1_555
H6 C10 1_555 1_555
C11 C10 1_555 1_555
C12 C11 1_555 1_555
C13 C8 1_555 1_555
H7 C13 1_555 1_555
C14 C12 1_555 1_555
O5 C15 1_555 1_555
O6 C15 1_555 1_555
C15 C16 1_555 1_555
C16 C17 1_555 1_555
C17 H8 1_555 1_555
C18 C17 1_555 1_555
H9 C18 1_555 1_555
C19 C18 1_555 1_555
C20 C19 1_555 1_555
H10 C20 1_555 1_555
C21 C16 1_555 1_555
H11 C21 1_555 1_555
C22 C19 1_555 1_555
C23 C22 1_555 1_555
H12 C23 1_555 1_555
C24 C23 1_555 1_555
H13 C24 1_555 1_555
C25 C24 1_555 1_555
C26 C14 1_555 1_555
C27 C22 1_555 1_555
H14 C27 1_555 1_555
O7 C28 1_555 1_555
O8 C28 1_555 1_555
C28 C29 1_555 1_555
C29 C30 1_555 1_555
C30 H15 1_555 1_555
C31 C30 1_555 1_555
H16 C31 1_555 1_555
C32 C31 1_555 1_555
C33 C32 1_555 1_555
H17 C33 1_555 1_555
C34 C29 1_555 1_555
H18 C34 1_555 1_555
C35 C32 1_555 1_555
C36 C35 1_555 1_555
H19 C36 1_555 1_555
C37 C36 1_555 1_555
H20 C37 1_555 1_555
C38 C11 1_555 1_555
C39 C14 1_555 1_555
C40 C35 1_555 1_555
H21 C40 1_555 1_555
O9 C41 1_555 1_555
O10 C41 1_555 1_555
C41 C42 1_555 1_555
C42 C43 1_555 1_555
C43 H22 1_555 1_555
C44 C43 1_555 1_555
H23 C44 1_555 1_555
C45 C44 1_555 1_555
C46 C45 1_555 1_555
H24 C46 1_555 1_555
C47 C42 1_555 1_555
H25 C47 1_555 1_555
C48 C45 1_555 1_555
C49 C48 1_555 1_555
H26 C49 1_555 1_555
C50 C49 1_555 1_555
H27 C50 1_555 1_555
C51 C25 1_555 1_555
C52 C14 1_555 1_555
C53 C48 1_555 1_555
H28 C53 1_555 1_555
O15 Fe1 1_555 1_555
O16 C68 1_555 1_555
C68 O15 1_555 1_555
C69 C68 1_555 1_555
C70 C69 1_555 1_555
H36 C70 1_555 1_555
C71 C70 1_555 1_555
H37 C71 1_555 1_555
C72 C71 1_555 1_555
C73 C72 1_555 1_555
H38 C73 1_555 1_555
C74 C69 1_555 1_555
H39 C74 1_555 1_555
C75 C72 1_555 1_555
C76 C75 1_555 1_555
H40 C76 1_555 1_555
C77 C76 1_555 1_555
H41 C77 1_555 1_555
C78 C77 1_555 1_555
C79 C67 1_555 1_555
C80 C75 1_555 1_555
H42 C80 1_555 1_555
O17 C81 1_555 1_555
O18 C81 1_555 1_555
C81 C82 1_555 1_555
C82 C83 1_555 1_555
C83 H43 1_555 1_555
C84 C83 1_555 1_555
H44 C84 1_555 1_555
C85 C84 1_555 1_555
C86 C85 1_555 1_555
H45 C86 1_555 1_555
C87 C82 1_555 1_555
H46 C87 1_555 1_555
C88 C85 1_555 1_555
C89 C88 1_555 1_555
H47 C89 1_555 1_555
C90 C89 1_555 1_555
H48 C90 1_555 1_555
C92 C67 1_555 1_555
C93 C88 1_555 1_555
H49 C93 1_555 1_555
Fe3 O1 1_555 1_555
O21 C107 1_555 1_555
O22 Fe3 1_555 1_555
O23 Fe3 1_555 1_555
C107 O22 1_555 1_555
C108 C107 1_555 1_555
C109 C108 1_555 1_555
H57 C109 1_555 1_555
C110 C109 1_555 1_555
H58 C110 1_555 1_555
C111 C110 1_555 1_555
C112 C111 1_555 1_555
H59 C112 1_555 1_555
C113 C108 1_555 1_555
H60 C113 1_555 1_555
C114 C111 1_555 1_555
C115 C114 1_555 1_555
H61 C115 1_555 1_555
C116 C115 1_555 1_555
H62 C116 1_555 1_555
C117 C116 1_555 1_555
C118 C117 1_555 1_555
C119 C114 1_555 1_555
H63 C119 1_555 1_555
C120_2 C118 1_555 1_555
O28 C147 1_555 1_555
O29 C147 1_555 1_555
C147 C148 1_555 1_555
C148 C149 1_555 1_555
C149 H78 1_555 1_555
C150 C149 1_555 1_555
H79 C150 1_555 1_555
C151 C150 1_555 1_555
C152 C151 1_555 1_555
H80 C152 1_555 1_555
C153 C148 1_555 1_555
H81 C153 1_555 1_555
C154 C151 1_555 1_555
C155 C154 1_555 1_555
H82 C155 1_555 1_555
C156 C155 1_555 1_555
H83 C156 1_555 1_555
C158 C120_2 1_555 1_555
C159 C154 1_555 1_555
H84 C159 1_555 1_555
Fe4 O6 1_555 1_555
O30 Fe4 1_555 1_555
Fe5 O3 1_555 1_555
O31 Fe5 1_555 1_555
Fe10 O5 1_555 1_555
O32 Fe10 1_555 1_555
Fe12 O7 1_555 1_555
Fe16 O8 1_555 1_555
Fe17 O10 1_555 1_555
Fe18 O9 1_555 1_555
Fe19 O17 1_555 1_555
O33 Fe4 1_555 1_555
O48 Fe4 1_555 1_555
O3 Fe3 1_555 1_555
C6 C7 1_555 1_555
C12 C13 1_555 1_555
C20 C21 1_555 1_555
C25 C26 1_555 1_555
C26 C27 1_555 1_555
C33 C34 1_555 1_555
C37 C38 1_555 1_555
C38 C39 1_555 1_555
C39 C40 1_555 1_555
C46 C47 1_555 1_555
C50 C51 1_555 1_555
C51 C52 1_555 1_555
C52 C53 1_555 1_555
O16 Fe5 1_555 1_555
C73 C74 1_555 1_555
C78 C79 1_555 1_555
C79 C80 1_555 1_555
O18 Fe18 1_555 1_555
C86 C87 1_555 1_555
C90 C91 1_555 1_555
C91 C92 1_555 1_555
C92 C93 1_555 1_555
O21 Fe5 1_555 1_555
C112 C113 1_555 1_555
C118 C119 1_555 1_555
O28 Fe17 1_555 1_555
O29 Fe19 1_555 1_555
C152 C153 1_555 1_555
C156 C157 1_555 1_555
C157 C158 1_555 1_555
C158 C159 1_555 1_555
Fe10 O48 1_555 1_555
O3_2 Fe1_2 1_555 1_555
O4_2 Fe1_2 1_555 1_555
O23_2 Fe3_2 1_555 1_555
O30_2 Fe4_2 1_555 1_555
Fe5_2 O3_2 1_555 1_555
O31_2 Fe5_2 1_555 1_555
O32_2 Fe10_2 1_555 1_555
O35 Fe10_2 1_555 1_555
O36 Fe1_2 1_555 1_555
O38 Fe3_2 1_555 1_555
O39 Fe4_2 1_555 1_555
O40 Fe5_2 1_555 1_555
O42 Fe4_2 1_555 1_555
O43 Fe5_2 1_555 1_555
O44 Fe10_2 1_555 1_555
O45 Fe1_2 1_555 1_555
O47 Fe3_2 1_555 1_555
O48_2 Fe4_2 1_555 1_555
O3_2 Fe3_2 1_555 1_555
Fe10_2 O48_2 1_555 1_555
Fe7 O12 1_555 1_555
O33 C54 1_555 1_555
O12 C54 1_555 1_555
O48 Fe7 1_555 1_555
O14 Fe7 1_555 1_555
C54 C55 1_555 1_555
C55 C56 1_555 1_555
C56 H29 1_555 1_555
C57 C56 1_555 1_555
H30 C57 1_555 1_555
C58 C57 1_555 1_555
C59 C58 1_555 1_555
H31 C59 1_555 1_555
C60 C55 1_555 1_555
H32 C60 1_555 1_555
C61 C58 1_555 1_555
C62 C61 1_555 1_555
H33 C62 1_555 1_555
C63 C62 1_555 1_555
H34 C63 1_555 1_555
C64 C63 1_555 1_555
C65 C64 1_555 1_555
C66 C61 1_555 1_555
H35 C66 1_555 1_555
C67_2 C65 1_555 1_555
O19 C94 1_555 1_555
O20 C94 1_555 1_555
C94 C95 1_555 1_555
C95 C96 1_555 1_555
C96 H50 1_555 1_555
C97 C96 1_555 1_555
H51 C97 1_555 1_555
C98 C97 1_555 1_555
C99 C98 1_555 1_555
H52 C99 1_555 1_555
C100 C95 1_555 1_555
H53 C100 1_555 1_555
C101 C98 1_555 1_555
C102 C101 1_555 1_555
H54 C102 1_555 1_555
C103 C102 1_555 1_555
H55 C103 1_555 1_555
C105 C67_2 1_555 1_555
C106 C101 1_555 1_555
H56 C106 1_555 1_555
Fe12 O20 1_555 1_555
Fe14 O19 1_555 1_555
C59 C60 1_555 1_555
C65 C66 1_555 1_555
C99 C100 1_555 1_555
C103 C104 1_555 1_555
C104 C105 1_555 1_555
C105 C106 1_555 1_555
O48_2 Fe7_2 1_555 1_555
O14_2 Fe7_2 1_555 1_555
O37 Fe7_2 1_555 1_555
O46 Fe7_2 1_555 1_555
O30_3 Fe18 1_555 1_555
O32_3 Fe19 1_555 1_555
O35_2 Fe19 1_555 1_555
O39_2 Fe18 1_555 1_555
O42_2 Fe18 1_555 1_555
O44_2 Fe19 1_555 1_555
O48_3 Fe18 1_555 1_555
Fe19 O48_3 1_555 1_555
O3_3 Fe12 1_555 1_555
O4_3 Fe12 1_555 1_555
O48_3 Fe17 1_555 1_555
O14_3 Fe17 1_555 1_555
O23_3 Fe14 1_555 1_555
Fe16 O3_3 1_555 1_555
O31_3 Fe16 1_555 1_555
O36_2 Fe12 1_555 1_555
O37_2 Fe17 1_555 1_555
O38_2 Fe14 1_555 1_555
O40_2 Fe16 1_555 1_555
O43_2 Fe16 1_555 1_555
O45_2 Fe12 1_555 1_555
O46_2 Fe17 1_555 1_555
O47_2 Fe14 1_555 1_555
O3_3 Fe14 1_555 1_555
O36 C54_2 1_555 1_555
O43 C54_2 1_555 1_555
C54_2 C55_2 1_555 1_555
C55_2 C56_2 1_555 1_555
C56_2 H29_2 1_555 1_555
C57_2 C56_2 1_555 1_555
H30_2 C57_2 1_555 1_555
C58_2 C57_2 1_555 1_555
C59_2 C58_2 1_555 1_555
H31_2 C59_2 1_555 1_555
C60_2 C55_2 1_555 1_555
H32_2 C60_2 1_555 1_555
C61_2 C58_2 1_555 1_555
C62_2 C61_2 1_555 1_555
H33_2 C62_2 1_555 1_555
C63_2 C62_2 1_555 1_555
H34_2 C63_2 1_555 1_555
C64_2 C63_2 1_555 1_555
C65_2 C64_2 1_555 1_555
C66_2 C61_2 1_555 1_555
H35_2 C66_2 1_555 1_555
C67_3 C65_2 1_555 1_555
O35_2 C94_2 1_555 1_555
O42_2 C94_2 1_555 1_555
C94_2 C95_2 1_555 1_555
C95_2 C96_2 1_555 1_555
C96_2 H50_2 1_555 1_555
C97_2 C96_2 1_555 1_555
H51_2 C97_2 1_555 1_555
C98_2 C97_2 1_555 1_555
C99_2 C98_2 1_555 1_555
H52_2 C99_2 1_555 1_555
C100_2 C95_2 1_555 1_555
H53_2 C100_2 1_555 1_555
C101_2 C98_2 1_555 1_555
C102_2 C101_2 1_555 1_555
H54_2 C102_2 1_555 1_555
C103_2 C102_2 1_555 1_555
H55_2 C103_2 1_555 1_555
C105_2 C67_3 1_555 1_555
C106_2 C101_2 1_555 1_555
H56_2 C106_2 1_555 1_555
C59_2 C60_2 1_555 1_555
C65_2 C66_2 1_555 1_555
C99_2 C100_2 1_555 1_555
C103_2 C104_2 1_555 1_555
C104_2 C105_2 1_555 1_555
C105_2 C106_2 1_555 1_555
O35 C1_2 1_555 1_555
O42 C1_2 1_555 1_555
C1_2 C2_2 1_555 1_555
C2_2 C3_2 1_555 1_555
C3_2 H1_2 1_555 1_555
C4_2 C3_2 1_555 1_555
H2_2 C4_2 1_555 1_555
C5_2 C4_2 1_555 1_555
C6_2 C5_2 1_555 1_555
H3_2 C6_2 1_555 1_555
C7_2 C2_2 1_555 1_555
H4_2 C7_2 1_555 1_555
C8_2 C5_2 1_555 1_555
C9_2 C8_2 1_555 1_555
H5_2 C9_2 1_555 1_555
C10_2 C9_2 1_555 1_555
H6_2 C10_2 1_555 1_555
C11_2 C10_2 1_555 1_555
C12_2 C11_2 1_555 1_555
C13_2 C8_2 1_555 1_555
H7_2 C13_2 1_555 1_555
C14_2 C12_2 1_555 1_555
O38 C15_2 1_555 1_555
O45 C15_2 1_555 1_555
C15_2 C16_2 1_555 1_555
C16_2 C17_2 1_555 1_555
C17_2 H8_2 1_555 1_555
C18_2 C17_2 1_555 1_555
H9_2 C18_2 1_555 1_555
C19_2 C18_2 1_555 1_555
C20_2 C19_2 1_555 1_555
H10_2 C20_2 1_555 1_555
C21_2 C16_2 1_555 1_555
H11_2 C21_2 1_555 1_555
C22_2 C19_2 1_555 1_555
C23_2 C22_2 1_555 1_555
H12_2 C23_2 1_555 1_555
C24_2 C23_2 1_555 1_555
H13_2 C24_2 1_555 1_555
C25_2 C24_2 1_555 1_555
C26_2 C14_2 1_555 1_555
C27_2 C22_2 1_555 1_555
H14_2 C27_2 1_555 1_555
O39_2 C28_2 1_555 1_555
O46_2 C28_2 1_555 1_555
C28_2 C29_2 1_555 1_555
C29_2 C30_2 1_555 1_555
C30_2 H15_2 1_555 1_555
C31_2 C30_2 1_555 1_555
H16_2 C31_2 1_555 1_555
C32_2 C31_2 1_555 1_555
C33_2 C32_2 1_555 1_555
H17_2 C33_2 1_555 1_555
C34_2 C29_2 1_555 1_555
H18_2 C34_2 1_555 1_555
C35_2 C32_2 1_555 1_555
C36_2 C35_2 1_555 1_555
H19_2 C36_2 1_555 1_555
C37_2 C36_2 1_555 1_555
H20_2 C37_2 1_555 1_555
C38_2 C11_2 1_555 1_555
C39_2 C14_2 1_555 1_555
C40_2 C35_2 1_555 1_555
H21_2 C40_2 1_555 1_555
O36_2 C41_2 1_555 1_555
O43_2 C41_2 1_555 1_555
C41_2 C42_2 1_555 1_555
C42_2 C43_2 1_555 1_555
C43_2 H22_2 1_555 1_555
C44_2 C43_2 1_555 1_555
H23_2 C44_2 1_555 1_555
C45_2 C44_2 1_555 1_555
C46_2 C45_2 1_555 1_555
H24_2 C46_2 1_555 1_555
C47_2 C42_2 1_555 1_555
H25_2 C47_2 1_555 1_555
C48_2 C45_2 1_555 1_555
C49_2 C48_2 1_555 1_555
H26_2 C49_2 1_555 1_555
C50_2 C49_2 1_555 1_555
H27_2 C50_2 1_555 1_555
C51_2 C25_2 1_555 1_555
C52_2 C14_2 1_555 1_555
C53_2 C48_2 1_555 1_555
H28_2 C53_2 1_555 1_555
O46 C68_2 1_555 1_555
C68_2 O39 1_555 1_555
C69_2 C68_2 1_555 1_555
C70_2 C69_2 1_555 1_555
H36_2 C70_2 1_555 1_555
C71_2 C70_2 1_555 1_555
H37_2 C71_2 1_555 1_555
C72_2 C71_2 1_555 1_555
C73_2 C72_2 1_555 1_555
H38_2 C73_2 1_555 1_555
C74_2 C69_2 1_555 1_555
H39_2 C74_2 1_555 1_555
C75_2 C72_2 1_555 1_555
C76_2 C75_2 1_555 1_555
H40_2 C76_2 1_555 1_555
C77_2 C76_2 1_555 1_555
H41_2 C77_2 1_555 1_555
C78_2 C77_2 1_555 1_555
C79_2 C67_4 1_555 1_555
C80_2 C75_2 1_555 1_555
H42_2 C80_2 1_555 1_555
O38_2 C81_2 1_555 1_555
O45_2 C81_2 1_555 1_555
C81_2 C82_2 1_555 1_555
C82_2 C83_2 1_555 1_555
C83_2 H43_2 1_555 1_555
C84_2 C83_2 1_555 1_555
H44_2 C84_2 1_555 1_555
C85_2 C84_2 1_555 1_555
C86_2 C85_2 1_555 1_555
H45_2 C86_2 1_555 1_555
C87_2 C82_2 1_555 1_555
H46_2 C87_2 1_555 1_555
C88_2 C85_2 1_555 1_555
C89_2 C88_2 1_555 1_555
H47_2 C89_2 1_555 1_555
C90_2 C89_2 1_555 1_555
H48_2 C90_2 1_555 1_555
C92_2 C67_4 1_555 1_555
C93_2 C88_2 1_555 1_555
H49_2 C93_2 1_555 1_555
O37 C107_2 1_555 1_555
C107_2 O44 1_555 1_555
C108_2 C107_2 1_555 1_555
C109_2 C108_2 1_555 1_555
H57_2 C109_2 1_555 1_555
C110_2 C109_2 1_555 1_555
H58_2 C110_2 1_555 1_555
C111_2 C110_2 1_555 1_555
C112_2 C111_2 1_555 1_555
H59_2 C112_2 1_555 1_555
C113_2 C108_2 1_555 1_555
H60_2 C113_2 1_555 1_555
C114_2 C111_2 1_555 1_555
C115_2 C114_2 1_555 1_555
H61_2 C115_2 1_555 1_555
C116_2 C115_2 1_555 1_555
H62_2 C116_2 1_555 1_555
C117_2 C116_2 1_555 1_555
C118_2 C117_2 1_555 1_555
C119_2 C114_2 1_555 1_555
H63_2 C119_2 1_555 1_555
C120_3 C118_2 1_555 1_555
O40_2 C147_2 1_555 1_555
O47_2 C147_2 1_555 1_555
C147_2 C148_2 1_555 1_555
C148_2 C149_2 1_555 1_555
C149_2 H78_2 1_555 1_555
C150_2 C149_2 1_555 1_555
H79_2 C150_2 1_555 1_555
C151_2 C150_2 1_555 1_555
C152_2 C151_2 1_555 1_555
H80_2 C152_2 1_555 1_555
C153_2 C148_2 1_555 1_555
H81_2 C153_2 1_555 1_555
C154_2 C151_2 1_555 1_555
C155_2 C154_2 1_555 1_555
H82_2 C155_2 1_555 1_555
C156_2 C155_2 1_555 1_555
H83_2 C156_2 1_555 1_555
C158_2 C120_3 1_555 1_555
C159_2 C154_2 1_555 1_555
H84_2 C159_2 1_555 1_555
C6_2 C7_2 1_555 1_555
C12_2 C13_2 1_555 1_555
C20_2 C21_2 1_555 1_555
C25_2 C26_2 1_555 1_555
C26_2 C27_2 1_555 1_555
C33_2 C34_2 1_555 1_555
C37_2 C38_2 1_555 1_555
C38_2 C39_2 1_555 1_555
C39_2 C40_2 1_555 1_555
C46_2 C47_2 1_555 1_555
C50_2 C51_2 1_555 1_555
C51_2 C52_2 1_555 1_555
C52_2 C53_2 1_555 1_555
C73_2 C74_2 1_555 1_555
C78_2 C79_2 1_555 1_555
C79_2 C80_2 1_555 1_555
C86_2 C87_2 1_555 1_555
C90_2 C91_2 1_555 1_555
C91_2 C92_2 1_555 1_555
C92_2 C93_2 1_555 1_555
C112_2 C113_2 1_555 1_555
C118_2 C119_2 1_555 1_555
C152_2 C153_2 1_555 1_555
C156_2 C157_2 1_555 1_555
C157_2 C158_2 1_555 1_555
C158_2 C159_2 1_555 1_555
O40 C121_2 1_555 1_555
O47 C121_2 1_555 1_555
C121_2 C122_2 1_555 1_555
C122_2 C123_2 1_555 1_555
C123_2 H64_2 1_555 1_555
C124_2 C123_2 1_555 1_555
H65_2 C124_2 1_555 1_555
C125_2 C124_2 1_555 1_555
C126_2 C125_2 1_555 1_555
H66_2 C126_2 1_555 1_555
C127_2 C122_2 1_555 1_555
H67_2 C127_2 1_555 1_555
C128_2 C125_2 1_555 1_555
C129_2 C128_2 1_555 1_555
H68_2 C129_2 1_555 1_555
C130_2 C129_2 1_555 1_555
H69_2 C130_2 1_555 1_555
C131_2 C130_2 1_555 1_555
C132_2 C120_4 1_555 1_555
C133_2 C128_2 1_555 1_555
H70_2 C133_2 1_555 1_555
O37_2 C134_2 1_555 1_555
O44_2 C134_2 1_555 1_555
C134_2 C135_2 1_555 1_555
C135_2 C136_2 1_555 1_555
C136_2 H71_2 1_555 1_555
C137_2 C136_2 1_555 1_555
H72_2 C137_2 1_555 1_555
C138_2 C137_2 1_555 1_555
C139_2 C138_2 1_555 1_555
H73_2 C139_2 1_555 1_555
C140_2 C135_2 1_555 1_555
H74_2 C140_2 1_555 1_555
C141_2 C138_2 1_555 1_555
C142_2 C141_2 1_555 1_555
H75_2 C142_2 1_555 1_555
C143_2 C142_2 1_555 1_555
H76_2 C143_2 1_555 1_555
C145_2 C120_4 1_555 1_555
C146_2 C141_2 1_555 1_555
H77_2 C146_2 1_555 1_555
C126_2 C127_2 1_555 1_555
C131_2 C132_2 1_555 1_555
C132_2 C133_2 1_555 1_555
C139_2 C140_2 1_555 1_555
C143_2 C144_2 1_555 1_555
C144_2 C145_2 1_555 1_555
C145_2 C146_2 1_555 1_555

#END
