
###############################################################################
#
# This file contains modified crystal structure data generated from the
# MOF subset of the Cambridge Structural Database (CSD) v543 
# hosted by the Cambridge Crystallographic Data Centre (CCDC).
#
# This work is licensed under the Creative Commons
# Attribution-NonCommercial-ShareAlike 4.0 International License.
# To view a copy of this license, visit
# http://creativecommons.org/licenses/by-nc-sa/4.0/
# or send a letter to
# Creative Commons, PO Box 1866, Mountain View, CA 94042, USA.
#
# CIF created using the CSD Python API on 29 September 2022
# The structure has been converted into the P1 space group
# The structure has a 3D framework
# The original CSD entry QOTWON is in the tetragonal crystal system
# The framework has been calculated to contain at least 10.0% void space
# The void calculation uses a probe of radius 1.32A, grid spacing 0.4
#
###############################################################################

data_QOTWON
_chemical_formula_moiety         '(C128 H206 Mn44 O140)n'
_symmetry_cell_setting           triclinic
_symmetry_space_group_name_H-M   'P 1'
_symmetry_Int_Tables_number      1
_space_group_name_Hall           'P 1'
loop_
_symmetry_equiv_pos_site_id
_symmetry_equiv_pos_as_xyz
1 x,y,z
_cell_length_a                   24.0204(2)
_cell_length_b                   24.0204(2)
_cell_length_c                   12.7228(2)
_cell_angle_alpha                90
_cell_angle_beta                 90
_cell_angle_gamma                90
_cell_volume                     7340.8
loop_
_atom_site_label
_atom_site_type_symbol
_atom_site_fract_x
_atom_site_fract_y
_atom_site_fract_z
Mn1 Mn 0.267944(16) 0.049636(16) 0.46969(3)
Mn2 Mn 0.290758(16) 0.117161(16) 0.25595(3)
Mn3 Mn 0.2500 0.2500 0.2500
O1 O 0.22615(7) 0.07441(7) 0.33364(14)
H1 H 0.1990 0.0959 0.3458
O2 O 0.27235(9) 0.13777(8) 0.51097(15)
O3 O 0.28125(8) 0.18957(7) 0.36614(15)
C1 C 0.27343(12) 0.18321(11) 0.4656(2)
C2 C 0.26522(19) 0.23462(13) 0.5308(3)
H2 H 0.2420 0.2257 0.5918
H3 H 0.2469 0.2633 0.4884
H4 H 0.3015 0.2484 0.5548
O4 O 0.34808(7) 0.07367(8) 0.36532(15)
O5 O 0.41988(7) 0.02608(8) 0.42805(15)
C3 C 0.39879(11) 0.07019(11) 0.3889(2)
C4 C 0.43583(13) 0.11991(13) 0.3700(3)
H5 H 0.4327 0.1316 0.2964
H6 H 0.4745 0.1099 0.3854
H7 H 0.4243 0.1506 0.4159
O7 O 0.28617(8) 0.04179(8) 0.15878(15)
C5 C 0.31976(12) 0.01202(12) 0.1066(2)
C6 C 0.38067(15) 0.02455(19) 0.1142(5)
H8 H 0.3966 0.0047 0.1744
H9 H 0.3860 0.0647 0.1235
H10 H 0.3993 0.0125 0.0496
O8 O 0.35411(8) 0.15689(8) 0.17058(17)
O9 O 0.32818(8) 0.24605(8) 0.16405(17)
C7 C 0.36237(12) 0.20695(12) 0.1486(2)
C8 C 0.41832(16) 0.22125(15) 0.1014(4)
H11 H 0.4416 0.1878 0.0989
H12 H 0.4366 0.2496 0.1447
H13 H 0.4130 0.2356 0.0300
Mn4 Mn 0.299636(16) 0.482056(16) 0.28031(3)
Mn5 Mn 0.367161(16) 0.459242(16) 0.49405(3)
O10 O 0.32441(7) 0.52385(7) 0.41636(14)
H14 H 0.3459 0.5510 0.4042
O11 O 0.38777(8) 0.47765(9) 0.23903(15)
O12 O 0.43957(7) 0.46875(8) 0.38386(15)
C9 C 0.43321(11) 0.47657(12) 0.2844(2)
C10 C 0.48462(13) 0.48478(19) 0.2192(3)
H15 H 0.4757 0.5080 0.1582
H16 H 0.5133 0.5031 0.2616
H17 H 0.4984 0.4485 0.1952
O13 O 0.32367(8) 0.40192(7) 0.38468(15)
O14 O 0.27608(8) 0.33012(7) 0.32195(15)
C11 C 0.32019(11) 0.35121(11) 0.3611(2)
C12 C 0.36991(13) 0.31417(13) 0.3800(3)
H18 H 0.3816 0.3173 0.4536
H19 H 0.3599 0.2755 0.3646
H20 H 0.4006 0.3257 0.3341
O15 O 0.22197(9) 0.44404(8) 0.69910(18)
O16 O 0.29179(8) 0.46383(8) 0.59122(15)
C13 C 0.26202(12) 0.43024(12) 0.6434(2)
C14 C 0.27455(19) 0.36933(15) 0.6358(5)
H21 H 0.2547 0.3534 0.5756
H22 H 0.3147 0.3640 0.6265
H23 H 0.2625 0.3507 0.7004
O17 O 0.40689(8) 0.39589(8) 0.57942(17)
O18 O 0.49605(8) 0.42182(8) 0.58595(17)
C15 C 0.45695(12) 0.38763(12) 0.6014(2)
C16 C 0.47125(15) 0.33168(16) 0.6486(4)
H24 H 0.4378 0.3084 0.6511
H25 H 0.4996 0.3134 0.6053
H26 H 0.4856 0.3370 0.7200
Mn7 Mn 0.200364(16) 0.017944(16) 0.21969(3)
Mn8 Mn 0.200364(16) 0.517944(16) 0.78031(3)
Mn9 Mn 0.267944(16) 0.549636(16) 0.53031(3)
Mn11 Mn 0.209242(16) 0.382839(16) 0.24405(3)
Mn12 Mn 0.5000 0.5000 0.5000
Mn13 Mn 0.5000 0.0000 0.5000
O19 O 0.32441(7) 0.02385(7) 0.58364(14)
O20 O 0.27385(7) 0.42559(7) 0.16636(14)
O21 O 0.21875(8) 0.31043(7) 0.13386(15)
O22 O 0.22392(8) 0.16988(7) 0.17805(15)
O23 O 0.41988(7) 0.52608(8) 0.57195(15)
O24 O 0.19404(8) 0.02803(9) 0.55090(18)
O25 O 0.27803(9) 0.55596(8) 0.19910(18)
O27 O 0.21383(8) 0.45821(8) 0.34122(15)
O28 O 0.17182(8) 0.25395(8) 0.33595(17)
O6 O 0.30596(8) 0.97197(9) 0.05090(18)
Mn10 Mn 0.367161(16) 0.959242(16) 0.50595(3)
Mn13_2 Mn 0.5000 1.0000 0.5000
O26 O 0.29179(8) 0.96383(8) 0.40878(15)
Mn6 Mn 0.232056(16) 0.950364(16) 0.96969(3)
Mn10_2 Mn 0.132839(16) 0.040758(16) 0.00595(3)
Mn13_3 Mn 0.0000 -0.0000 -0.0000
Mn13_4 Mn 0.0000 0.0000 1.0000
O26_2 O 0.20821(8) 0.03617(8) 0.90878(15)
O2_2 O 0.22765(9) 0.86223(8) 0.01097(15)
C2_2 C 0.23478(19) 0.76538(13) 0.0308(3)
H2_2 H 0.2580 0.7743 0.0918
H4_2 H 0.1985 0.7516 0.0548
O16_2 O 0.20821(8) 0.53617(8) 0.09122(15)
C13_2 C 0.23798(12) 0.56976(12) 0.1434(2)
C14_2 C 0.22545(19) 0.63067(15) 0.1358(5)
H21_2 H 0.2453 0.6466 0.0756
H22_2 H 0.1853 0.6360 0.1265
H23_2 H 0.2375 0.6493 0.2004
O17_2 O 0.09311(8) 0.60411(8) 0.07942(17)
O18_2 O 0.00395(8) 0.57818(8) 0.08595(17)
C15_2 C 0.04305(12) 0.61237(12) 0.1014(2)
C16_2 C 0.02875(15) 0.66832(16) 0.1486(4)
H24_2 H 0.0622 0.6916 0.1511
H25_2 H 0.0004 0.6866 0.1053
H26_2 H 0.0144 0.6630 0.2200
Mn9_2 Mn 0.232056(16) 0.450364(16) 0.03031(3)
Mn12_2 Mn 0.0000 0.5000 -0.0000
Mn13_5 Mn 0.0000 1.0000 -0.0000
O19_2 O 0.17559(7) 0.97615(7) 0.08364(14)
O23_2 O 0.08012(7) 0.47392(8) 0.07195(15)
Mn2_2 Mn 0.209242(16) 0.882839(16) 0.75595(3)
Mn3_2 Mn 0.2500 0.7500 0.7500
O1_2 O 0.27385(7) 0.92559(7) 0.83364(14)
H1_2 H 0.3010 0.9041 0.8458
O3_2 O 0.21875(8) 0.81043(7) 0.86614(15)
C1_2 C 0.22657(12) 0.81679(11) 0.9656(2)
H3_2 H 0.2531 0.7367 0.9884
O4_2 O 0.15192(7) 0.92633(8) 0.86532(15)
O5_2 O 0.08012(7) 0.97392(8) 0.92805(15)
C3_2 C 0.10121(11) 0.92981(11) 0.8889(2)
C4_2 C 0.06417(13) 0.88009(13) 0.8700(3)
H5_2 H 0.0673 0.8684 0.7964
H6_2 H 0.0255 0.8901 0.8854
H7_2 H 0.0757 0.8494 0.9159
O7_2 O 0.21383(8) 0.95821(8) 0.65878(15)
C5_2 C 0.18024(12) 0.98798(12) 0.6066(2)
C6_2 C 0.11933(15) 0.97545(19) 0.6142(5)
H8_2 H 0.1034 0.9953 0.6744
H9_2 H 0.1140 0.9353 0.6235
H10_2 H 0.1007 0.9875 0.5496
O8_2 O 0.14589(8) 0.84311(8) 0.67058(17)
O9_2 O 0.17182(8) 0.75395(8) 0.66405(17)
C7_2 C 0.13763(12) 0.79305(12) 0.6486(2)
C8_2 C 0.08168(16) 0.77875(15) 0.6014(4)
H11_2 H 0.0584 0.8122 0.5989
H12_2 H 0.0634 0.7504 0.6447
H13_2 H 0.0870 0.7644 0.5300
Mn5_2 Mn 0.132839(16) 0.540758(16) 0.99405(3)
O10_2 O 0.17559(7) 0.47615(7) 0.91636(14)
H14_2 H 0.1541 0.4490 0.9042
O11_2 O 0.11223(8) 0.52235(9) 0.73903(15)
O12_2 O 0.06043(7) 0.53125(8) 0.88386(15)
C9_2 C 0.06679(11) 0.52343(12) 0.7844(2)
C10_2 C 0.01538(13) 0.51522(19) 0.7192(3)
H15_2 H 0.0243 0.4920 0.6582
H17_2 H 0.0016 0.5515 0.6952
O13_2 O 0.17633(8) 0.59808(7) 0.88468(15)
O14_2 O 0.22392(8) 0.66988(7) 0.82195(15)
C11_2 C 0.17981(11) 0.64879(11) 0.8611(2)
C12_2 C 0.13009(13) 0.68583(13) 0.8800(3)
H18_2 H 0.1184 0.6827 0.9536
H19_2 H 0.1401 0.7245 0.8646
H20_2 H 0.0994 0.6743 0.8341
Mn7_2 Mn 0.299636(16) 0.982056(16) 0.71969(3)
Mn11_2 Mn 0.290758(16) 0.617161(16) 0.74405(3)
Mn12_3 Mn 0.0000 0.5000 1.0000
Mn13_6 Mn 0.0000 1.0000 1.0000
O20_2 O 0.22615(7) 0.57441(7) 0.66636(14)
O21_2 O 0.28125(8) 0.68957(7) 0.63386(15)
O22_2 O 0.27608(8) 0.83012(7) 0.67805(15)
O27_2 O 0.28617(8) 0.54179(8) 0.84122(15)
O28_2 O 0.32818(8) 0.74605(8) 0.83595(17)
Mn13_7 Mn 1.0000 -0.0000 -0.0000
Mn13_8 Mn 1.0000 0.0000 1.0000
Mn12_4 Mn 1.0000 0.5000 -0.0000
Mn13_9 Mn 1.0000 1.0000 -0.0000
H16_2 H 0.9867 0.4969 0.7616
Mn12_5 Mn 1.0000 0.5000 1.0000
Mn13_10 Mn 1.0000 1.0000 1.0000
Mn1_2 Mn 0.700364(16) 0.517944(16) 0.71969(3)
Mn2_3 Mn 0.632839(16) 0.540758(16) 0.50595(3)
O1_3 O 0.67559(7) 0.47615(7) 0.58364(14)
H1_3 H 0.6541 0.4490 0.5958
O2_3 O 0.61223(8) 0.52235(9) 0.76097(15)
O3_3 O 0.56043(7) 0.53125(8) 0.61614(15)
C1_3 C 0.56679(11) 0.52343(12) 0.7156(2)
C2_3 C 0.51538(13) 0.51522(19) 0.7808(3)
H2_3 H 0.5243 0.4920 0.8418
H3_3 H 0.4867 0.4969 0.7384
H4_3 H 0.5016 0.5515 0.8048
O4_3 O 0.67633(8) 0.59808(7) 0.61532(15)
O5_3 O 0.72392(8) 0.66988(7) 0.67805(15)
C3_3 C 0.67981(11) 0.64879(11) 0.6389(2)
C4_3 C 0.63009(13) 0.68583(13) 0.6200(3)
H5_3 H 0.6184 0.6827 0.5464
H6_3 H 0.6401 0.7245 0.6354
H7_3 H 0.5994 0.6743 0.6659
O6_2 O 0.77803(9) 0.55596(8) 0.30090(18)
O7_3 O 0.70821(8) 0.53617(8) 0.40878(15)
C5_3 C 0.73798(12) 0.56976(12) 0.3566(2)
C6_3 C 0.72545(19) 0.63067(15) 0.3642(5)
H8_3 H 0.7453 0.6466 0.4244
H9_3 H 0.6853 0.6360 0.3735
H10_3 H 0.7375 0.6493 0.2996
O8_3 O 0.59311(8) 0.60411(8) 0.42058(17)
O9_3 O 0.50395(8) 0.57818(8) 0.41405(17)
C7_3 C 0.54305(12) 0.61237(12) 0.3986(2)
C8_3 C 0.52875(15) 0.66832(16) 0.3514(4)
H11_3 H 0.5622 0.6916 0.3489
H12_3 H 0.5004 0.6866 0.3947
H13_3 H 0.5144 0.6630 0.2800
H14_3 H 0.1990 0.5959 0.6542
O11_3 O 0.27235(9) 0.63777(8) 0.48903(15)
C9_3 C 0.27343(12) 0.68321(11) 0.5344(2)
C10_3 C 0.26522(19) 0.73462(13) 0.4692(3)
H15_3 H 0.2420 0.7257 0.4082
H16_3 H 0.2469 0.7633 0.5116
H17_3 H 0.3015 0.7484 0.4452
O13_3 O 0.34808(7) 0.57367(8) 0.63468(15)
C11_3 C 0.39879(11) 0.57019(11) 0.6111(2)
C12_3 C 0.43583(13) 0.61991(13) 0.6300(3)
H18_3 H 0.4327 0.6316 0.7036
H19_3 H 0.4745 0.6099 0.6146
H20_3 H 0.4243 0.6506 0.5841
O15_2 O 0.30596(8) 0.47197(9) 0.94910(18)
C13_3 C 0.31976(12) 0.51202(12) 0.8934(2)
C14_3 C 0.38067(15) 0.52455(19) 0.8858(5)
H21_3 H 0.3966 0.5047 0.8256
H22_3 H 0.3860 0.5647 0.8765
H23_3 H 0.3993 0.5125 0.9504
O17_3 O 0.35411(8) 0.65689(8) 0.82942(17)
C15_3 C 0.36237(12) 0.70695(12) 0.8514(2)
C16_3 C 0.41832(16) 0.72125(15) 0.8986(4)
H24_3 H 0.4416 0.6878 0.9011
H25_3 H 0.4366 0.7496 0.8553
H26_3 H 0.4130 0.7356 0.9700
Mn6_2 Mn 0.799636(16) 0.482056(16) 0.21969(3)
Mn7_3 Mn 0.732056(16) 0.450364(16) 0.46969(3)
Mn10_3 Mn 0.790758(16) 0.617161(16) 0.75595(3)
Mn13_11 Mn 0.7500 0.7500 0.7500
O19_3 O 0.72615(7) 0.57441(7) 0.83364(14)
O22_3 O 0.58012(7) 0.47392(8) 0.42805(15)
O24_2 O 0.72197(9) 0.44404(8) 0.80090(18)
O25_2 O 0.19404(8) 0.52803(9) 0.44910(18)
O26_3 O 0.78617(8) 0.54179(8) 0.65878(15)
H3_4 H 0.0133 0.5031 0.2384
H14_4 H 0.3010 0.4041 0.1542
C9_4 C 0.22657(12) 0.31679(11) 0.0344(2)
H16_4 H 0.2531 0.2367 0.0116
O13_4 O 0.15192(7) 0.42633(8) 0.13468(15)
C11_4 C 0.10121(11) 0.42981(11) 0.1111(2)
C12_4 C 0.06417(13) 0.38009(13) 0.1300(3)
H18_4 H 0.0673 0.3684 0.2036
H19_4 H 0.0255 0.3901 0.1146
H20_4 H 0.0757 0.3494 0.0841
C13_4 C 0.18024(12) 0.48798(12) 0.3934(2)
C14_4 C 0.11933(15) 0.47545(19) 0.3858(5)
H21_4 H 0.1034 0.4953 0.3256
H22_4 H 0.1140 0.4353 0.3765
H23_4 H 0.1007 0.4875 0.4504
O17_4 O 0.14589(8) 0.34311(8) 0.32942(17)
C15_4 C 0.13763(12) 0.29305(12) 0.3514(2)
C16_4 C 0.08168(16) 0.27875(15) 0.3986(4)
H24_4 H 0.0584 0.3122 0.4011
H25_4 H 0.0634 0.2504 0.3553
H26_4 H 0.0870 0.2644 0.4700
O11_4 O 0.22765(9) 0.36223(8) 0.98903(15)
C10_4 C 0.23478(19) 0.26538(13) 0.9692(3)
H15_4 H 0.2580 0.2743 0.9082
H17_4 H 0.1985 0.2516 0.9452
Mn2_4 Mn 0.867161(16) 0.459242(16) 0.00595(3)
O1_4 O 0.82441(7) 0.52385(7) 0.08364(14)
H1_4 H 0.8459 0.5510 0.0958
O2_4 O 0.88777(8) 0.47765(9) 0.26097(15)
O3_4 O 0.93957(7) 0.46875(8) 0.11614(15)
C1_4 C 0.93321(11) 0.47657(12) 0.2156(2)
C2_4 C 0.98462(13) 0.48478(19) 0.2808(3)
H2_4 H 0.9757 0.5080 0.3418
H4_4 H 0.9984 0.4485 0.3048
O4_4 O 0.82367(8) 0.40192(7) 0.11532(15)
O5_4 O 0.77608(8) 0.33012(7) 0.17805(15)
C3_4 C 0.82019(11) 0.35121(11) 0.1389(2)
C4_4 C 0.86991(13) 0.31417(13) 0.1200(3)
H5_4 H 0.8816 0.3173 0.0464
H6_4 H 0.8599 0.2755 0.1354
H7_4 H 0.9006 0.3257 0.1659
Mn10_4 Mn 0.709242(16) 0.382839(16) 0.25595(3)
Mn13_12 Mn 0.7500 0.2500 0.2500
O19_4 O 0.77385(7) 0.42559(7) 0.33364(14)
O26_4 O 0.71383(8) 0.45821(8) 0.15878(15)
O7_4 O 0.79179(8) 0.46383(8) 0.90878(15)
C5_4 C 0.76202(12) 0.43024(12) 0.8566(2)
C6_4 C 0.77455(19) 0.36933(15) 0.8642(5)
H8_4 H 0.7547 0.3534 0.9244
H9_4 H 0.8147 0.3640 0.8735
H10_4 H 0.7625 0.3507 0.7996
O8_4 O 0.90689(8) 0.39589(8) 0.92058(17)
O9_4 O 0.99605(8) 0.42182(8) 0.91405(17)
C7_4 C 0.95695(12) 0.38763(12) 0.8986(2)
C8_4 C 0.97125(15) 0.33168(16) 0.8514(4)
H11_4 H 0.9378 0.3084 0.8489
H12_4 H 0.9996 0.3134 0.8947
H13_4 H 0.9856 0.3370 0.7800
Mn7_4 Mn 0.767944(16) 0.549636(16) 0.96969(3)
O22_4 O 0.91988(7) 0.52608(8) 0.92805(15)
H16_5 H 0.0133 0.0031 0.7616
Mn8_2 Mn 0.700364(16) 0.017944(16) 0.28031(3)
Mn9_3 Mn 0.767944(16) 0.049636(16) 0.03031(3)
O23_3 O 0.91988(7) 0.02608(8) 0.07195(15)
O10_3 O 0.82441(7) 0.02385(7) 0.91636(14)
H14_5 H 0.8459 0.0510 0.9042
H15_5 H 0.9757 0.0080 0.6582
O25_3 O 0.77803(9) 0.05596(8) 0.69910(18)
O2_5 O 0.77235(9) 0.63777(8) 0.01097(15)
C2_5 C 0.76522(19) 0.73462(13) 0.0308(3)
H2_5 H 0.7420 0.7257 0.0918
H4_5 H 0.8015 0.7484 0.0548
O15_3 O 0.72197(9) 0.94404(8) 0.19910(18)
O16_3 O 0.79179(8) 0.96383(8) 0.09122(15)
C13_5 C 0.76202(12) 0.93024(12) 0.1434(2)
C14_5 C 0.77455(19) 0.86933(15) 0.1358(5)
H21_5 H 0.7547 0.8534 0.0756
H22_5 H 0.8147 0.8640 0.1265
H23_5 H 0.7625 0.8507 0.2004
O17_5 O 0.90689(8) 0.89589(8) 0.07942(17)
O18_3 O 0.99605(8) 0.92182(8) 0.08595(17)
C15_5 C 0.95695(12) 0.88763(12) 0.1014(2)
C16_5 C 0.97125(15) 0.83168(16) 0.1486(4)
H24_5 H 0.9378 0.8084 0.1511
H25_5 H 0.9996 0.8134 0.1053
H26_5 H 0.9856 0.8370 0.2200
O24_3 O 0.69404(8) 0.52803(9) 0.05090(18)
H1_5 H 0.6990 0.5959 0.8458
O3_5 O 0.78125(8) 0.68957(7) 0.86614(15)
C1_5 C 0.77343(12) 0.68321(11) 0.9656(2)
H3_5 H 0.7469 0.7633 0.9884
O4_5 O 0.84808(7) 0.57367(8) 0.86532(15)
C3_5 C 0.89879(11) 0.57019(11) 0.8889(2)
C4_5 C 0.93583(13) 0.61991(13) 0.8700(3)
H5_5 H 0.9327 0.6316 0.7964
H6_5 H 0.9745 0.6099 0.8854
H7_5 H 0.9243 0.6506 0.9159
O6_3 O 0.80596(8) 0.47197(9) 0.55090(18)
C5_5 C 0.81976(12) 0.51202(12) 0.6066(2)
C6_5 C 0.88067(15) 0.52455(19) 0.6142(5)
H8_5 H 0.8966 0.5047 0.6744
H9_5 H 0.8860 0.5647 0.6235
H10_5 H 0.8993 0.5125 0.5496
O8_5 O 0.85411(8) 0.65689(8) 0.67058(17)
O9_5 O 0.82818(8) 0.74605(8) 0.66405(17)
C7_5 C 0.86237(12) 0.70695(12) 0.6486(2)
C8_5 C 0.91832(16) 0.72125(15) 0.6014(4)
H11_5 H 0.9416 0.6878 0.5989
H12_5 H 0.9366 0.7496 0.6447
H13_5 H 0.9130 0.7356 0.5300
Mn4_2 Mn 0.799636(16) 0.982056(16) 0.78031(3)
Mn5_3 Mn 0.867161(16) 0.959242(16) 0.99405(3)
O11_5 O 0.88777(8) 0.97765(9) 0.73903(15)
O12_3 O 0.93957(7) 0.96875(8) 0.88386(15)
C9_5 C 0.93321(11) 0.97657(12) 0.7844(2)
C10_5 C 0.98462(13) 0.98478(19) 0.7192(3)
H17_5 H 0.9984 0.9485 0.6952
O13_5 O 0.82367(8) 0.90192(7) 0.88468(15)
O14_3 O 0.77608(8) 0.83012(7) 0.82195(15)
C11_5 C 0.82019(11) 0.85121(11) 0.8611(2)
C12_5 C 0.86991(13) 0.81417(13) 0.8800(3)
H18_5 H 0.8816 0.8173 0.9536
H19_5 H 0.8599 0.7755 0.8646
H20_5 H 0.9006 0.8257 0.8341
Mn11_3 Mn 0.709242(16) 0.882839(16) 0.74405(3)
O20_3 O 0.77385(7) 0.92559(7) 0.66636(14)
O21_3 O 0.71875(8) 0.81043(7) 0.63386(15)
O27_3 O 0.71383(8) 0.95821(8) 0.84122(15)
O28_3 O 0.67182(8) 0.75395(8) 0.83595(17)
H1_6 H 0.8010 0.4041 0.3458
O2_6 O 0.72765(9) 0.36223(8) 0.51097(15)
O3_6 O 0.71875(8) 0.31043(7) 0.36614(15)
C1_6 C 0.72657(12) 0.31679(11) 0.4656(2)
C2_6 C 0.73478(19) 0.26538(13) 0.5308(3)
H2_6 H 0.7580 0.2743 0.5918
H3_6 H 0.7531 0.2367 0.4884
H4_6 H 0.6985 0.2516 0.5548
O4_6 O 0.65192(7) 0.42633(8) 0.36532(15)
C3_6 C 0.60121(11) 0.42981(11) 0.3889(2)
C4_6 C 0.56417(13) 0.38009(13) 0.3700(3)
H5_6 H 0.5673 0.3684 0.2964
H6_6 H 0.5255 0.3901 0.3854
H7_6 H 0.5757 0.3494 0.4159
C5_6 C 0.68024(12) 0.48798(12) 0.1066(2)
C6_6 C 0.61933(15) 0.47545(19) 0.1142(5)
H8_6 H 0.6034 0.4953 0.1744
H9_6 H 0.6140 0.4353 0.1235
H10_6 H 0.6007 0.4875 0.0496
O8_6 O 0.64589(8) 0.34311(8) 0.17058(17)
O9_6 O 0.67182(8) 0.25395(8) 0.16405(17)
C7_6 C 0.63763(12) 0.29305(12) 0.1486(2)
C8_6 C 0.58168(16) 0.27875(15) 0.1014(4)
H11_6 H 0.5584 0.3122 0.0989
H12_6 H 0.5634 0.2504 0.1447
H13_6 H 0.5870 0.2644 0.0300
Mn5_4 Mn 0.632839(16) 0.040758(16) 0.49405(3)
O11_6 O 0.61223(8) 0.02235(9) 0.23903(15)
O12_4 O 0.56043(7) 0.03125(8) 0.38386(15)
C9_6 C 0.56679(11) 0.02343(12) 0.2844(2)
C10_6 C 0.51538(13) 0.01522(19) 0.2192(3)
H17_6 H 0.5016 0.0515 0.1952
O13_6 O 0.67633(8) 0.09808(7) 0.38468(15)
O14_4 O 0.72392(8) 0.16988(7) 0.32195(15)
C11_6 C 0.67981(11) 0.14879(11) 0.3611(2)
C12_6 C 0.63009(13) 0.18583(13) 0.3800(3)
H18_6 H 0.6184 0.1827 0.4536
H19_6 H 0.6401 0.2245 0.3646
H20_6 H 0.5994 0.1743 0.3341
O16_4 O 0.70821(8) 0.03617(8) 0.59122(15)
C13_6 C 0.73798(12) 0.06976(12) 0.6434(2)
C14_6 C 0.72545(19) 0.13067(15) 0.6358(5)
H21_6 H 0.7453 0.1466 0.5756
H22_6 H 0.6853 0.1360 0.6265
H23_6 H 0.7375 0.1493 0.7004
O17_6 O 0.59311(8) 0.10411(8) 0.57942(17)
O18_4 O 0.50395(8) 0.07818(8) 0.58595(17)
C15_6 C 0.54305(12) 0.11237(12) 0.6014(2)
C16_6 C 0.52875(15) 0.16832(16) 0.6486(4)
H24_6 H 0.5622 0.1916 0.6511
H25_6 H 0.5004 0.1866 0.6053
H26_6 H 0.5144 0.1630 0.7200
Mn11_4 Mn 0.790758(16) 0.117161(16) 0.24405(3)
O20_4 O 0.72615(7) 0.07441(7) 0.16636(14)
O21_4 O 0.78125(8) 0.18957(7) 0.13386(15)
O27_4 O 0.78617(8) 0.04179(8) 0.34122(15)
O28_4 O 0.82818(8) 0.24605(8) 0.33595(17)
O10_4 O 0.67559(7) 0.97615(7) 0.41636(14)
H14_6 H 0.6541 0.9490 0.4042
H15_6 H 0.5243 0.9920 0.1582
H16_6 H 0.4867 0.9969 0.2616
Mn9_4 Mn 0.732056(16) 0.950364(16) 0.53031(3)
O23_4 O 0.58012(7) 0.97392(8) 0.57195(15)
O2_7 O 0.11223(8) 0.02235(9) 0.26097(15)
O3_7 O 0.06043(7) 0.03125(8) 0.11614(15)
C1_7 C 0.06679(11) 0.02343(12) 0.2156(2)
C2_7 C 0.01538(13) 0.01522(19) 0.2808(3)
H4_7 H 0.0016 0.0515 0.3048
O4_7 O 0.17633(8) 0.09808(7) 0.11532(15)
C3_7 C 0.17981(11) 0.14879(11) 0.1389(2)
C4_7 C 0.13009(13) 0.18583(13) 0.1200(3)
H5_7 H 0.1184 0.1827 0.0464
H6_7 H 0.1401 0.2245 0.1354
H7_7 H 0.0994 0.1743 0.1659
O6_4 O 0.27803(9) 0.05596(8) 0.80090(18)
C5_7 C 0.23798(12) 0.06976(12) 0.8566(2)
C6_7 C 0.22545(19) 0.13067(15) 0.8642(5)
H8_7 H 0.2453 0.1466 0.9244
H9_7 H 0.1853 0.1360 0.8735
H10_7 H 0.2375 0.1493 0.7996
O8_7 O 0.09311(8) 0.10411(8) 0.92058(17)
O9_7 O 0.00395(8) 0.07818(8) 0.91405(17)
C7_7 C 0.04305(12) 0.11237(12) 0.8986(2)
C8_7 C 0.02875(15) 0.16832(16) 0.8514(4)
H11_7 H 0.0622 0.1916 0.8489
H12_7 H 0.0004 0.1866 0.8947
H13_7 H 0.0144 0.1630 0.7800
H1_7 H 0.1541 0.9490 0.0958
H2_7 H 0.0243 0.9920 0.3418
O24_4 O 0.22197(9) 0.94404(8) 0.30090(18)
H14_7 H 0.6990 0.0959 0.1542
C9_7 C 0.77343(12) 0.18321(11) 0.0344(2)
H16_7 H 0.7469 0.2633 0.0116
O13_7 O 0.84808(7) 0.07367(8) 0.13468(15)
C11_7 C 0.89879(11) 0.07019(11) 0.1111(2)
C12_7 C 0.93583(13) 0.11991(13) 0.1300(3)
H18_7 H 0.9327 0.1316 0.2036
H19_7 H 0.9745 0.1099 0.1146
H20_7 H 0.9243 0.1506 0.0841
C13_7 C 0.81976(12) 0.01202(12) 0.3934(2)
C14_7 C 0.88067(15) 0.02455(19) 0.3858(5)
H21_7 H 0.8966 0.0047 0.3256
H22_7 H 0.8860 0.0647 0.3765
H23_7 H 0.8993 0.0125 0.4504
O17_7 O 0.85411(8) 0.15689(8) 0.32942(17)
C15_7 C 0.86237(12) 0.20695(12) 0.3514(2)
C16_7 C 0.91832(16) 0.22125(15) 0.3986(4)
H24_7 H 0.9416 0.1878 0.4011
H25_7 H 0.9366 0.2496 0.3553
H26_7 H 0.9130 0.2356 0.4700
O11_7 O 0.77235(9) 0.13777(8) 0.98903(15)
C10_7 C 0.76522(19) 0.23462(13) 0.9692(3)
H15_7 H 0.7420 0.2257 0.9082
H17_7 H 0.8015 0.2484 0.9452
O25_4 O 0.69404(8) 0.02803(9) 0.94910(18)
H3_7 H 0.9867 0.9969 0.2384
O15_4 O 0.80596(8) 0.97197(9) 0.44910(18)
H1_8 H 0.3459 0.0510 0.5958
H2_8 H 0.4757 0.0080 0.8418
H3_8 H 0.5133 0.0031 0.7384
O2_8 O 0.38777(8) 0.97765(9) 0.76097(15)
O3_8 O 0.43957(7) 0.96875(8) 0.61614(15)
C1_8 C 0.43321(11) 0.97657(12) 0.7156(2)
C2_8 C 0.48462(13) 0.98478(19) 0.7808(3)
H4_8 H 0.4984 0.9485 0.8048
O4_8 O 0.32367(8) 0.90192(7) 0.61532(15)
C3_8 C 0.32019(11) 0.85121(11) 0.6389(2)
C4_8 C 0.36991(13) 0.81417(13) 0.6200(3)
H5_8 H 0.3816 0.8173 0.5464
H6_8 H 0.3599 0.7755 0.6354
H7_8 H 0.4006 0.8257 0.6659
C5_8 C 0.26202(12) 0.93024(12) 0.3566(2)
C6_8 C 0.27455(19) 0.86933(15) 0.3642(5)
H8_8 H 0.2547 0.8534 0.4244
H9_8 H 0.3147 0.8640 0.3735
H10_8 H 0.2625 0.8507 0.2996
O8_8 O 0.40689(8) 0.89589(8) 0.42058(17)
O9_8 O 0.49605(8) 0.92182(8) 0.41405(17)
C7_8 C 0.45695(12) 0.88763(12) 0.3986(2)
C8_8 C 0.47125(15) 0.83168(16) 0.3514(4)
H11_8 H 0.4378 0.8084 0.3489
H12_8 H 0.4996 0.8134 0.3947
H13_8 H 0.4856 0.8370 0.2800
H14_8 H 0.8010 0.9041 0.6542
O11_8 O 0.72765(9) 0.86223(8) 0.48903(15)
C9_8 C 0.72657(12) 0.81679(11) 0.5344(2)
C10_8 C 0.73478(19) 0.76538(13) 0.4692(3)
H15_8 H 0.7580 0.7743 0.4082
H16_8 H 0.7531 0.7367 0.5116
H17_8 H 0.6985 0.7516 0.4452
O13_8 O 0.65192(7) 0.92633(8) 0.63468(15)
C11_8 C 0.60121(11) 0.92981(11) 0.6111(2)
C12_8 C 0.56417(13) 0.88009(13) 0.6300(3)
H18_8 H 0.5673 0.8684 0.7036
H19_8 H 0.5255 0.8901 0.6146
H20_8 H 0.5757 0.8494 0.5841
C13_8 C 0.68024(12) 0.98798(12) 0.8934(2)
C14_8 C 0.61933(15) 0.97545(19) 0.8858(5)
H21_8 H 0.6034 0.9953 0.8256
H22_8 H 0.6140 0.9353 0.8765
H23_8 H 0.6007 0.9875 0.9504
O17_8 O 0.64589(8) 0.84311(8) 0.82942(17)
C15_8 C 0.63763(12) 0.79305(12) 0.8514(2)
C16_8 C 0.58168(16) 0.77875(15) 0.8986(4)
H24_8 H 0.5584 0.8122 0.9011
H25_8 H 0.5634 0.7504 0.8553
H26_8 H 0.5870 0.7644 0.9700
loop_
_geom_bond_atom_site_label_1
_geom_bond_atom_site_label_2
_geom_bond_site_symmetry_1
_geom_bond_site_symmetry_2
Mn1 O1 1_555 1_555
Mn2 O1 1_555 1_555
Mn3 O3 1_555 1_555
O1 H1 1_555 1_555
O2 Mn1 1_555 1_555
O3 Mn2 1_555 1_555
C1 O2 1_555 1_555
C2 C1 1_555 1_555
H2 C2 1_555 1_555
H3 C2 1_555 1_555
H4 C2 1_555 1_555
O4 Mn1 1_555 1_555
O5 C3 1_555 1_555
C3 O4 1_555 1_555
C4 C3 1_555 1_555
H5 C4 1_555 1_555
H6 C4 1_555 1_555
H7 C4 1_555 1_555
O7 Mn2 1_555 1_555
C5 O7 1_555 1_555
C6 C5 1_555 1_555
H8 C6 1_555 1_555
H9 C6 1_555 1_555
H10 C6 1_555 1_555
O8 Mn2 1_555 1_555
O9 Mn3 1_555 1_555
C7 O8 1_555 1_555
C8 C7 1_555 1_555
H11 C8 1_555 1_555
H12 C8 1_555 1_555
H13 C8 1_555 1_555
Mn4 O10 1_555 1_555
Mn5 O10 1_555 1_555
O10 H14 1_555 1_555
O11 Mn4 1_555 1_555
O12 Mn5 1_555 1_555
C9 O11 1_555 1_555
C10 C9 1_555 1_555
H15 C10 1_555 1_555
H16 C10 1_555 1_555
H17 C10 1_555 1_555
O13 Mn4 1_555 1_555
O14 Mn3 1_555 1_555
C11 O13 1_555 1_555
C12 C11 1_555 1_555
H18 C12 1_555 1_555
H19 C12 1_555 1_555
H20 C12 1_555 1_555
O15 C13 1_555 1_555
O16 Mn5 1_555 1_555
C13 O16 1_555 1_555
C14 C13 1_555 1_555
H21 C14 1_555 1_555
H22 C14 1_555 1_555
H23 C14 1_555 1_555
O17 Mn5 1_555 1_555
O18 C15 1_555 1_555
C15 O17 1_555 1_555
C16 C15 1_555 1_555
H24 C16 1_555 1_555
H25 C16 1_555 1_555
H26 C16 1_555 1_555
Mn7 O1 1_555 1_555
Mn8 O15 1_555 1_555
Mn9 O10 1_555 1_555
Mn11 O14 1_555 1_555
Mn12 O12 1_555 1_555
Mn13 O5 1_555 1_555
O19 Mn1 1_555 1_555
O20 Mn4 1_555 1_555
O21 Mn3 1_555 1_555
O22 Mn2 1_555 1_555
O23 Mn5 1_555 1_555
O24 Mn1 1_555 1_555
O25 Mn4 1_555 1_555
O27 Mn4 1_555 1_555
O28 Mn3 1_555 1_555
Mn2 O4 1_555 1_555
Mn3 O22 1_555 1_555
O3 C1 1_555 1_555
O7 Mn7 1_555 1_555
O9 C7 1_555 1_555
Mn5 O13 1_555 1_555
O12 C9 1_555 1_555
O14 C11 1_555 1_555
O16 Mn9 1_555 1_555
O18 Mn12 1_555 1_555
Mn11 O20 1_555 1_555
Mn11 O21 1_555 1_555
Mn11 O27 1_555 1_555
Mn12 O23 1_555 1_555
Mn10 O26 1_555 1_555
H2_2 C2_2 1_555 1_555
H4_2 C2_2 1_555 1_555
O25 C13_2 1_555 1_555
C13_2 O16_2 1_555 1_555
C14_2 C13_2 1_555 1_555
H21_2 C14_2 1_555 1_555
H22_2 C14_2 1_555 1_555
H23_2 C14_2 1_555 1_555
O18_2 C15_2 1_555 1_555
C15_2 O17_2 1_555 1_555
C16_2 C15_2 1_555 1_555
H24_2 C16_2 1_555 1_555
H25_2 C16_2 1_555 1_555
H26_2 C16_2 1_555 1_555
O16_2 Mn9_2 1_555 1_555
O18_2 Mn12_2 1_555 1_555
Mn12_2 O23_2 1_555 1_555
Mn6 O1_2 1_555 1_555
Mn2_2 O1_2 1_555 1_555
Mn3_2 O3_2 1_555 1_555
O1_2 H1_2 1_555 1_555
O3_2 Mn2_2 1_555 1_555
O4_2 Mn6 1_555 1_555
O5_2 C3_2 1_555 1_555
C3_2 O4_2 1_555 1_555
C4_2 C3_2 1_555 1_555
H5_2 C4_2 1_555 1_555
H6_2 C4_2 1_555 1_555
H7_2 C4_2 1_555 1_555
O7_2 Mn2_2 1_555 1_555
C5_2 O7_2 1_555 1_555
C6_2 C5_2 1_555 1_555
H8_2 C6_2 1_555 1_555
H9_2 C6_2 1_555 1_555
H10_2 C6_2 1_555 1_555
O8_2 Mn2_2 1_555 1_555
O9_2 Mn3_2 1_555 1_555
C7_2 O8_2 1_555 1_555
C8_2 C7_2 1_555 1_555
H11_2 C8_2 1_555 1_555
H12_2 C8_2 1_555 1_555
H13_2 C8_2 1_555 1_555
Mn8 O10_2 1_555 1_555
Mn5_2 O10_2 1_555 1_555
O10_2 H14_2 1_555 1_555
O11_2 Mn8 1_555 1_555
O12_2 Mn5_2 1_555 1_555
C9_2 O11_2 1_555 1_555
C10_2 C9_2 1_555 1_555
H15_2 C10_2 1_555 1_555
H17_2 C10_2 1_555 1_555
O13_2 Mn8 1_555 1_555
O14_2 Mn3_2 1_555 1_555
C11_2 O13_2 1_555 1_555
C12_2 C11_2 1_555 1_555
H18_2 C12_2 1_555 1_555
H19_2 C12_2 1_555 1_555
H20_2 C12_2 1_555 1_555
Mn7_2 O1_2 1_555 1_555
Mn11_2 O14_2 1_555 1_555
Mn12_3 O12_2 1_555 1_555
Mn13_6 O5_2 1_555 1_555
O20_2 Mn8 1_555 1_555
O21_2 Mn3_2 1_555 1_555
O22_2 Mn2_2 1_555 1_555
O27_2 Mn8 1_555 1_555
O28_2 Mn3_2 1_555 1_555
Mn2_2 O4_2 1_555 1_555
Mn3_2 O22_2 1_555 1_555
O3_2 C1_2 1_555 1_555
O7_2 Mn7_2 1_555 1_555
O9_2 C7_2 1_555 1_555
Mn5_2 O13_2 1_555 1_555
O12_2 C9_2 1_555 1_555
O14_2 C11_2 1_555 1_555
Mn11_2 O20_2 1_555 1_555
Mn11_2 O21_2 1_555 1_555
Mn11_2 O27_2 1_555 1_555
Mn1_2 O1_3 1_555 1_555
Mn2_3 O1_3 1_555 1_555
Mn12 O3_3 1_555 1_555
O1_3 H1_3 1_555 1_555
O2_3 Mn1_2 1_555 1_555
O3_3 Mn2_3 1_555 1_555
C1_3 O2_3 1_555 1_555
C2_3 C1_3 1_555 1_555
H2_3 C2_3 1_555 1_555
H3_3 C2_3 1_555 1_555
H4_3 C2_3 1_555 1_555
O4_3 Mn1_2 1_555 1_555
O5_3 C3_3 1_555 1_555
C3_3 O4_3 1_555 1_555
C4_3 C3_3 1_555 1_555
H5_3 C4_3 1_555 1_555
H6_3 C4_3 1_555 1_555
H7_3 C4_3 1_555 1_555
O6_2 C5_3 1_555 1_555
O7_3 Mn2_3 1_555 1_555
C5_3 O7_3 1_555 1_555
C6_3 C5_3 1_555 1_555
H8_3 C6_3 1_555 1_555
H9_3 C6_3 1_555 1_555
H10_3 C6_3 1_555 1_555
O8_3 Mn2_3 1_555 1_555
O9_3 Mn12 1_555 1_555
C7_3 O8_3 1_555 1_555
C8_3 C7_3 1_555 1_555
H11_3 C8_3 1_555 1_555
H12_3 C8_3 1_555 1_555
H13_3 C8_3 1_555 1_555
Mn9 O20_2 1_555 1_555
O20_2 H14_3 1_555 1_555
O11_3 Mn9 1_555 1_555
C9_3 O11_3 1_555 1_555
C10_3 C9_3 1_555 1_555
H15_3 C10_3 1_555 1_555
H16_3 C10_3 1_555 1_555
H17_3 C10_3 1_555 1_555
O13_3 Mn9 1_555 1_555
C11_3 O13_3 1_555 1_555
C12_3 C11_3 1_555 1_555
H18_3 C12_3 1_555 1_555
H19_3 C12_3 1_555 1_555
H20_3 C12_3 1_555 1_555
O15_2 C13_3 1_555 1_555
C13_3 O27_2 1_555 1_555
C14_3 C13_3 1_555 1_555
H21_3 C14_3 1_555 1_555
H22_3 C14_3 1_555 1_555
H23_3 C14_3 1_555 1_555
O17_3 Mn11_2 1_555 1_555
O28_2 C15_3 1_555 1_555
C15_3 O17_3 1_555 1_555
C16_3 C15_3 1_555 1_555
H24_3 C16_3 1_555 1_555
H25_3 C16_3 1_555 1_555
H26_3 C16_3 1_555 1_555
Mn6_2 O6_2 1_555 1_555
Mn7_3 O1_3 1_555 1_555
Mn10_3 O5_3 1_555 1_555
Mn13_11 O5_3 1_555 1_555
O19_3 Mn1_2 1_555 1_555
O22_3 Mn2_3 1_555 1_555
O24_2 Mn1_2 1_555 1_555
O25_2 Mn9 1_555 1_555
O26_3 Mn1_2 1_555 1_555
Mn2_3 O4_3 1_555 1_555
Mn12 O22_3 1_555 1_555
O3_3 C1_3 1_555 1_555
O7_3 Mn7_3 1_555 1_555
O9_3 C7_3 1_555 1_555
Mn11_2 O13_3 1_555 1_555
O21_2 C9_3 1_555 1_555
O23 C11_3 1_555 1_555
Mn10_3 O19_3 1_555 1_555
Mn10_3 O26_3 1_555 1_555
Mn9_2 O20 1_555 1_555
O20 H14_4 1_555 1_555
O13_4 Mn9_2 1_555 1_555
C11_4 O13_4 1_555 1_555
C12_4 C11_4 1_555 1_555
H18_4 C12_4 1_555 1_555
H19_4 C12_4 1_555 1_555
H20_4 C12_4 1_555 1_555
O25_2 C13_4 1_555 1_555
C13_4 O27 1_555 1_555
C14_4 C13_4 1_555 1_555
H21_4 C14_4 1_555 1_555
H22_4 C14_4 1_555 1_555
H23_4 C14_4 1_555 1_555
O17_4 Mn11 1_555 1_555
O28 C15_4 1_555 1_555
C15_4 O17_4 1_555 1_555
C16_4 C15_4 1_555 1_555
H24_4 C16_4 1_555 1_555
H25_4 C16_4 1_555 1_555
H26_4 C16_4 1_555 1_555
Mn11 O13_4 1_555 1_555
O21 C9_4 1_555 1_555
O23_2 C11_4 1_555 1_555
H15_4 C10_4 1_555 1_555
H17_4 C10_4 1_555 1_555
Mn6_2 O1_4 1_555 1_555
Mn2_4 O1_4 1_555 1_555
Mn12_4 O3_4 1_555 1_555
O1_4 H1_4 1_555 1_555
O2_4 Mn6_2 1_555 1_555
O3_4 Mn2_4 1_555 1_555
C1_4 O2_4 1_555 1_555
C2_4 C1_4 1_555 1_555
H2_4 C2_4 1_555 1_555
H4_4 C2_4 1_555 1_555
O4_4 Mn6_2 1_555 1_555
O5_4 C3_4 1_555 1_555
C3_4 O4_4 1_555 1_555
C4_4 C3_4 1_555 1_555
H5_4 C4_4 1_555 1_555
H6_4 C4_4 1_555 1_555
H7_4 C4_4 1_555 1_555
Mn10_4 O5_4 1_555 1_555
Mn13_12 O5_4 1_555 1_555
O19_4 Mn6_2 1_555 1_555
O26_4 Mn6_2 1_555 1_555
Mn2_4 O4_4 1_555 1_555
O3_4 C1_4 1_555 1_555
Mn10_4 O19_4 1_555 1_555
Mn10_4 O26_4 1_555 1_555
O24_2 C5_4 1_555 1_555
C5_4 O7_4 1_555 1_555
C6_4 C5_4 1_555 1_555
H8_4 C6_4 1_555 1_555
H9_4 C6_4 1_555 1_555
H10_4 C6_4 1_555 1_555
O9_4 Mn12_5 1_555 1_555
C7_4 O8_4 1_555 1_555
C8_4 C7_4 1_555 1_555
H11_4 C8_4 1_555 1_555
H12_4 C8_4 1_555 1_555
H13_4 C8_4 1_555 1_555
Mn12_5 O22_4 1_555 1_555
O7_4 Mn7_4 1_555 1_555
O9_4 C7_4 1_555 1_555
Mn13_7 O23_3 1_555 1_555
O10_3 H14_5 1_555 1_555
H2_5 C2_5 1_555 1_555
H4_5 C2_5 1_555 1_555
O15_3 C13_5 1_555 1_555
C13_5 O16_3 1_555 1_555
C14_5 C13_5 1_555 1_555
H21_5 C14_5 1_555 1_555
H22_5 C14_5 1_555 1_555
H23_5 C14_5 1_555 1_555
O18_3 C15_5 1_555 1_555
C15_5 O17_5 1_555 1_555
C16_5 C15_5 1_555 1_555
H24_5 C16_5 1_555 1_555
H25_5 C16_5 1_555 1_555
H26_5 C16_5 1_555 1_555
O18_3 Mn13_9 1_555 1_555
Mn7_4 O19_3 1_555 1_555
Mn13_11 O3_5 1_555 1_555
O19_3 H1_5 1_555 1_555
O3_5 Mn10_3 1_555 1_555
O4_5 Mn7_4 1_555 1_555
O22_4 C3_5 1_555 1_555
C3_5 O4_5 1_555 1_555
C4_5 C3_5 1_555 1_555
H5_5 C4_5 1_555 1_555
H6_5 C4_5 1_555 1_555
H7_5 C4_5 1_555 1_555
O6_3 C5_5 1_555 1_555
C5_5 O26_3 1_555 1_555
C6_5 C5_5 1_555 1_555
H8_5 C6_5 1_555 1_555
H9_5 C6_5 1_555 1_555
H10_5 C6_5 1_555 1_555
O8_5 Mn10_3 1_555 1_555
O9_5 Mn13_11 1_555 1_555
C7_5 O8_5 1_555 1_555
C8_5 C7_5 1_555 1_555
H11_5 C8_5 1_555 1_555
H12_5 C8_5 1_555 1_555
H13_5 C8_5 1_555 1_555
O11_5 Mn4_2 1_555 1_555
O12_3 Mn5_3 1_555 1_555
C9_5 O11_5 1_555 1_555
C10_5 C9_5 1_555 1_555
H17_5 C10_5 1_555 1_555
O13_5 Mn4_2 1_555 1_555
O14_3 Mn13_11 1_555 1_555
C11_5 O13_5 1_555 1_555
C12_5 C11_5 1_555 1_555
H18_5 C12_5 1_555 1_555
H19_5 C12_5 1_555 1_555
H20_5 C12_5 1_555 1_555
Mn7_3 O6_3 1_555 1_555
Mn11_3 O14_3 1_555 1_555
Mn13_10 O12_3 1_555 1_555
O20_3 Mn4_2 1_555 1_555
O21_3 Mn13_11 1_555 1_555
O27_3 Mn4_2 1_555 1_555
O28_3 Mn13_11 1_555 1_555
Mn10_3 O4_5 1_555 1_555
O3_5 C1_5 1_555 1_555
O9_5 C7_5 1_555 1_555
Mn5_3 O13_5 1_555 1_555
O12_3 C9_5 1_555 1_555
O14_3 C11_5 1_555 1_555
Mn11_3 O20_3 1_555 1_555
Mn11_3 O21_3 1_555 1_555
Mn11_3 O27_3 1_555 1_555
Mn7_3 O19_4 1_555 1_555
Mn13_12 O3_6 1_555 1_555
O19_4 H1_6 1_555 1_555
O2_6 Mn7_3 1_555 1_555
O3_6 Mn10_4 1_555 1_555
C1_6 O2_6 1_555 1_555
C2_6 C1_6 1_555 1_555
H2_6 C2_6 1_555 1_555
H3_6 C2_6 1_555 1_555
H4_6 C2_6 1_555 1_555
O4_6 Mn7_3 1_555 1_555
O22_3 C3_6 1_555 1_555
C3_6 O4_6 1_555 1_555
C4_6 C3_6 1_555 1_555
H5_6 C4_6 1_555 1_555
H6_6 C4_6 1_555 1_555
H7_6 C4_6 1_555 1_555
O24_3 C5_6 1_555 1_555
C5_6 O26_4 1_555 1_555
C6_6 C5_6 1_555 1_555
H8_6 C6_6 1_555 1_555
H9_6 C6_6 1_555 1_555
H10_6 C6_6 1_555 1_555
O8_6 Mn10_4 1_555 1_555
O9_6 Mn13_12 1_555 1_555
C7_6 O8_6 1_555 1_555
C8_6 C7_6 1_555 1_555
H11_6 C8_6 1_555 1_555
H12_6 C8_6 1_555 1_555
H13_6 C8_6 1_555 1_555
O11_6 Mn8_2 1_555 1_555
O12_4 Mn5_4 1_555 1_555
C9_6 O11_6 1_555 1_555
C10_6 C9_6 1_555 1_555
H17_6 C10_6 1_555 1_555
O13_6 Mn8_2 1_555 1_555
O14_4 Mn13_12 1_555 1_555
C11_6 O13_6 1_555 1_555
C12_6 C11_6 1_555 1_555
H18_6 C12_6 1_555 1_555
H19_6 C12_6 1_555 1_555
H20_6 C12_6 1_555 1_555
O25_3 C13_6 1_555 1_555
O16_4 Mn5_4 1_555 1_555
C13_6 O16_4 1_555 1_555
C14_6 C13_6 1_555 1_555
H21_6 C14_6 1_555 1_555
H22_6 C14_6 1_555 1_555
H23_6 C14_6 1_555 1_555
O17_6 Mn5_4 1_555 1_555
O18_4 C15_6 1_555 1_555
C15_6 O17_6 1_555 1_555
C16_6 C15_6 1_555 1_555
H24_6 C16_6 1_555 1_555
H25_6 C16_6 1_555 1_555
H26_6 C16_6 1_555 1_555
Mn11_4 O14_4 1_555 1_555
Mn13 O12_4 1_555 1_555
O20_4 Mn8_2 1_555 1_555
O21_4 Mn13_12 1_555 1_555
O27_4 Mn8_2 1_555 1_555
O28_4 Mn13_12 1_555 1_555
Mn10_4 O4_6 1_555 1_555
O3_6 C1_6 1_555 1_555
O9_6 C7_6 1_555 1_555
Mn5_4 O13_6 1_555 1_555
O12_4 C9_6 1_555 1_555
O14_4 C11_6 1_555 1_555
O18_4 Mn13 1_555 1_555
Mn11_4 O20_4 1_555 1_555
Mn11_4 O21_4 1_555 1_555
Mn11_4 O27_4 1_555 1_555
O10_4 H14_6 1_555 1_555
Mn9_4 O10_4 1_555 1_555
Mn13_2 O23_4 1_555 1_555
Mn13_3 O3_7 1_555 1_555
O2_7 Mn7 1_555 1_555
O3_7 Mn10_2 1_555 1_555
C1_7 O2_7 1_555 1_555
C2_7 C1_7 1_555 1_555
H4_7 C2_7 1_555 1_555
O4_7 Mn7 1_555 1_555
O22 C3_7 1_555 1_555
C3_7 O4_7 1_555 1_555
C4_7 C3_7 1_555 1_555
H5_7 C4_7 1_555 1_555
H6_7 C4_7 1_555 1_555
H7_7 C4_7 1_555 1_555
Mn10_2 O4_7 1_555 1_555
O3_7 C1_7 1_555 1_555
O6_4 C5_7 1_555 1_555
C5_7 O26_2 1_555 1_555
C6_7 C5_7 1_555 1_555
H8_7 C6_7 1_555 1_555
H9_7 C6_7 1_555 1_555
H10_7 C6_7 1_555 1_555
O9_7 Mn13_4 1_555 1_555
C7_7 O8_7 1_555 1_555
C8_7 C7_7 1_555 1_555
H11_7 C8_7 1_555 1_555
H12_7 C8_7 1_555 1_555
H13_7 C8_7 1_555 1_555
O9_7 C7_7 1_555 1_555
O19_2 H1_7 1_555 1_555
Mn9_3 O20_4 1_555 1_555
O20_4 H14_7 1_555 1_555
O13_7 Mn9_3 1_555 1_555
C11_7 O13_7 1_555 1_555
C12_7 C11_7 1_555 1_555
H18_7 C12_7 1_555 1_555
H19_7 C12_7 1_555 1_555
H20_7 C12_7 1_555 1_555
C13_7 O27_4 1_555 1_555
C14_7 C13_7 1_555 1_555
H21_7 C14_7 1_555 1_555
H22_7 C14_7 1_555 1_555
H23_7 C14_7 1_555 1_555
O17_7 Mn11_4 1_555 1_555
O28_4 C15_7 1_555 1_555
C15_7 O17_7 1_555 1_555
C16_7 C15_7 1_555 1_555
H24_7 C16_7 1_555 1_555
H25_7 C16_7 1_555 1_555
H26_7 C16_7 1_555 1_555
Mn11_4 O13_7 1_555 1_555
O21_4 C9_7 1_555 1_555
O23_3 C11_7 1_555 1_555
H15_7 C10_7 1_555 1_555
H17_7 C10_7 1_555 1_555
Mn9_4 O15_4 1_555 1_555
O19 H1_8 1_555 1_555
Mn13_2 O3_8 1_555 1_555
O2_8 Mn7_2 1_555 1_555
O3_8 Mn10 1_555 1_555
C1_8 O2_8 1_555 1_555
C2_8 C1_8 1_555 1_555
H4_8 C2_8 1_555 1_555
O4_8 Mn7_2 1_555 1_555
O22_2 C3_8 1_555 1_555
C3_8 O4_8 1_555 1_555
C4_8 C3_8 1_555 1_555
H5_8 C4_8 1_555 1_555
H6_8 C4_8 1_555 1_555
H7_8 C4_8 1_555 1_555
O24_4 C5_8 1_555 1_555
C5_8 O26 1_555 1_555
C6_8 C5_8 1_555 1_555
H8_8 C6_8 1_555 1_555
H9_8 C6_8 1_555 1_555
H10_8 C6_8 1_555 1_555
O8_8 Mn10 1_555 1_555
O9_8 Mn13_2 1_555 1_555
C7_8 O8_8 1_555 1_555
C8_8 C7_8 1_555 1_555
H11_8 C8_8 1_555 1_555
H12_8 C8_8 1_555 1_555
H13_8 C8_8 1_555 1_555
Mn9_4 O20_3 1_555 1_555
O20_3 H14_8 1_555 1_555
O11_8 Mn9_4 1_555 1_555
C9_8 O11_8 1_555 1_555
C10_8 C9_8 1_555 1_555
H15_8 C10_8 1_555 1_555
H16_8 C10_8 1_555 1_555
H17_8 C10_8 1_555 1_555
O13_8 Mn9_4 1_555 1_555
C11_8 O13_8 1_555 1_555
C12_8 C11_8 1_555 1_555
H18_8 C12_8 1_555 1_555
H19_8 C12_8 1_555 1_555
H20_8 C12_8 1_555 1_555
C13_8 O27_3 1_555 1_555
C14_8 C13_8 1_555 1_555
H21_8 C14_8 1_555 1_555
H22_8 C14_8 1_555 1_555
H23_8 C14_8 1_555 1_555
O17_8 Mn11_3 1_555 1_555
O28_3 C15_8 1_555 1_555
C15_8 O17_8 1_555 1_555
C16_8 C15_8 1_555 1_555
H24_8 C16_8 1_555 1_555
H25_8 C16_8 1_555 1_555
H26_8 C16_8 1_555 1_555
Mn10 O4_8 1_555 1_555
O3_8 C1_8 1_555 1_555
O9_8 C7_8 1_555 1_555
Mn11_3 O13_8 1_555 1_555
O21_3 C9_8 1_555 1_555
O23_4 C11_8 1_555 1_555

#END
