
###############################################################################
#
# This file contains modified crystal structure data generated from the
# MOF subset of the Cambridge Structural Database (CSD) v543 
# hosted by the Cambridge Crystallographic Data Centre (CCDC).
#
# This work is licensed under the Creative Commons
# Attribution-NonCommercial-ShareAlike 4.0 International License.
# To view a copy of this license, visit
# http://creativecommons.org/licenses/by-nc-sa/4.0/
# or send a letter to
# Creative Commons, PO Box 1866, Mountain View, CA 94042, USA.
#
# CIF created using the CSD Python API on 29 September 2022
# The structure has been converted into the P1 space group
# The structure has a 3D framework
# The original CSD entry QOTZEG is in the tetragonal crystal system
# The original CSD entry QOTZEG is in a Sohncke space group
# The framework has been calculated to contain at least 10.0% void space
# The void calculation uses a probe of radius 1.32A, grid spacing 0.4
# H atom positions have been added when not included in the experimental data
#
###############################################################################

data_QOTZEG
_chemical_formula_moiety         '(C36 H20 La3 O26)n'
_symmetry_cell_setting           triclinic
_symmetry_space_group_name_H-M   'P 1'
_symmetry_Int_Tables_number      1
_space_group_name_Hall           'P 1'
loop_
_symmetry_equiv_pos_site_id
_symmetry_equiv_pos_as_xyz
1 x,y,z
_cell_length_a                   10.4380(15)
_cell_length_b                   10.4380(15)
_cell_length_c                   13.853(3)
_cell_angle_alpha                90
_cell_angle_beta                 90
_cell_angle_gamma                90
_cell_volume                     1509.31
loop_
_atom_site_label
_atom_site_type_symbol
_atom_site_fract_x
_atom_site_fract_y
_atom_site_fract_z
C8 C 0.1293(6) 0.5689(6) 0.5359(5)
O6 O 0.1888(5) 0.5961(6) 0.6104(3)
O7 O 0.1808(4) 0.5403(5) 0.4555(5)
La3 La 0.39317(3) 0.63319(3) 0.68913(5)
La6 La 0.36681(3) 0.39317(3) 0.43913(5)
C1 C 0.7079(6) 0.4723(6) 0.3821(4)
C2 C 0.7806(5) 0.5099(6) 0.4688(4)
C3 C 0.9128(5) 0.5242(5) 0.4618(4)
H1 H 0.9539 0.5088 0.4026
C4 C 0.9843(6) 0.5612(6) 0.5416(5)
C5 C 0.9224(6) 0.5835(6) 0.6300(4)
H2 H 0.9699 0.6103 0.6840
C6 C 0.7938(6) 0.5663(6) 0.6373(5)
C7 C 0.7222(5) 0.5254(6) 0.5584(4)
H3 H 0.6343 0.5083 0.5656
C9 C 0.7326(6) 0.5883(6) 0.7343(5)
La1 La 0.60683(3) 0.36681(3) 0.18913(5)
O1 O 0.7355(6) 0.2014(6) 0.2801(4)
O2 O 0.7565(5) 0.4922(6) 0.2994(4)
O3 O 0.5956(4) 0.4206(5) 0.3884(3)
O4 O 0.6126(4) 0.5575(4) 0.7468(3)
O5 O 0.7980(4) 0.6318(5) 0.8017(3)
La4 La 0.63319(3) 0.60683(3) 0.93913(5)
O8 O 0.5794(5) 0.5956(4) 0.1384(3)
O9 O 0.3874(4) 0.4425(4) 0.2468(3)
O11 O 0.6318(5) 0.2020(4) 0.0517(3)
O12 O 0.8112(5) 0.4039(6) 0.1104(3)
O13 O 0.4597(5) 0.1808(4) 0.2055(5)
H4 H 0.720318 0.211383 0.350462
H5 H 0.708772 0.114288 0.259501
O10 O 0.5575(4) 0.3874(4) 0.9968(3)
C4_2 C 0.0157(6) 0.4388(6) 0.0416(5)
C5_2 C 0.0776(6) 0.4165(6) 0.1300(4)
H2_2 H 0.0301 0.3897 0.1840
C6_2 C 0.2062(6) 0.4337(6) 0.1373(5)
C7_2 C 0.2778(5) 0.4746(6) 0.0584(4)
H3_2 H 0.3657 0.4917 0.0656
C9_2 C 0.2674(6) 0.4117(6) 0.2343(5)
O5_2 O 0.2020(4) 0.3682(5) 0.3017(3)
C1_2 C 0.2921(6) 0.5277(6) 0.8821(4)
C2_2 C 0.2194(5) 0.4901(6) 0.9688(4)
C3_2 C 0.0872(5) 0.4758(5) 0.9618(4)
H1_2 H 0.0461 0.4912 0.9026
O1_2 O 0.2645(6) 0.7986(6) 0.7801(4)
O2_2 O 0.2435(5) 0.5078(6) 0.7994(4)
O3_2 O 0.4044(4) 0.5794(5) 0.8884(3)
O8_2 O 0.4206(5) 0.4044(4) 0.6384(3)
O10_2 O 0.4425(4) 0.6126(4) 0.4968(3)
O11_2 O 0.3682(5) 0.7980(4) 0.5517(3)
O13_2 O 0.5403(5) 0.8192(4) 0.7055(5)
H4_2 H 0.279682 0.788617 0.850462
H5_2 H 0.291228 0.885712 0.759501
C8_2 C 0.8707(6) 0.4311(6) 0.0359(5)
O7_2 O 0.8192(4) 0.4597(5) 0.9555(5)
C8_3 C 0.4311(6) 0.1293(6) 0.2859(5)
O6_2 O 0.4039(6) 0.1888(5) 0.3604(3)
C1_3 C 0.5277(6) 0.7079(6) 0.1321(4)
C2_3 C 0.4901(6) 0.7806(5) 0.2188(4)
C3_3 C 0.4758(5) 0.9128(5) 0.2118(4)
H1_3 H 0.4912 0.9539 0.1526
C4_3 C 0.4388(6) 0.9843(6) 0.2916(5)
C5_3 C 0.4165(6) 0.9224(6) 0.3800(4)
H2_3 H 0.3897 0.9699 0.4340
C6_3 C 0.4337(6) 0.7938(6) 0.3873(5)
C7_3 C 0.4746(6) 0.7222(5) 0.3084(4)
H3_3 H 0.4917 0.6343 0.3156
C9_3 C 0.4117(6) 0.7326(6) 0.4843(5)
O1_3 O 0.7986(6) 0.7355(6) 0.0301(4)
O2_3 O 0.5078(6) 0.7565(5) 0.0494(4)
H4_3 H 0.788617 0.720318 0.100462
H5_3 H 0.885712 0.708772 0.00950088
O12_2 O 0.5961(6) 0.8112(5) 0.8604(3)
C1_4 C 0.4723(6) 0.2921(6) 0.6321(4)
C2_4 C 0.5099(6) 0.2194(5) 0.7188(4)
C3_4 C 0.5242(5) 0.0872(5) 0.7118(4)
H1_4 H 0.5088 0.0461 0.6526
C4_4 C 0.5612(6) 0.0157(6) 0.7916(5)
C5_4 C 0.5835(6) 0.0776(6) 0.8800(4)
H2_4 H 0.6103 0.0301 0.9340
C6_4 C 0.5663(6) 0.2062(6) 0.8873(5)
C7_4 C 0.5254(6) 0.2778(5) 0.8084(4)
H3_4 H 0.5083 0.3657 0.8156
C9_4 C 0.5883(6) 0.2674(6) 0.9843(5)
O1_4 O 0.2014(6) 0.2645(6) 0.5301(4)
O2_4 O 0.4922(6) 0.2435(5) 0.5494(4)
H4_4 H 0.211383 0.279682 0.600462
H5_4 H 0.114288 0.291228 0.509501
C8_4 C 0.5689(6) 0.8707(6) 0.7859(5)
loop_
_geom_bond_atom_site_label_1
_geom_bond_atom_site_label_2
_geom_bond_site_symmetry_1
_geom_bond_site_symmetry_2
O6 C8 1_555 1_555
O7 C8 1_555 1_555
La3 O6 1_555 1_555
La6 O7 1_555 1_555
C1 C2 1_555 1_555
C2 C3 1_555 1_555
C3 H1 1_555 1_555
C4 C3 1_555 1_555
C5 C4 1_555 1_555
H2 C5 1_555 1_555
C6 C5 1_555 1_555
C7 C2 1_555 1_555
H3 C7 1_555 1_555
C9 C6 1_555 1_555
La1 O1 1_555 1_555
O2 C1 1_555 1_555
O3 C1 1_555 1_555
O4 C9 1_555 1_555
O5 C9 1_555 1_555
La3 O4 1_555 1_555
La4 O4 1_555 1_555
La6 O3 1_555 1_555
O8 La1 1_555 1_555
O9 La1 1_555 1_555
O11 La1 1_555 1_555
O12 La1 1_555 1_555
O13 La1 1_555 1_555
C6 C7 1_555 1_555
La1 O2 1_555 1_555
La1 O3 1_555 1_555
O5 La4 1_555 1_555
La6 O9 1_555 1_555
O1 H4 1_555 1_555
O1 H5 1_555 1_555
C5_2 C4_2 1_555 1_555
H2_2 C5_2 1_555 1_555
C6_2 C5_2 1_555 1_555
H3_2 C7_2 1_555 1_555
C9_2 C6_2 1_555 1_555
O9 C9_2 1_555 1_555
O5_2 C9_2 1_555 1_555
C6_2 C7_2 1_555 1_555
O5_2 La6 1_555 1_555
C1_2 C2_2 1_555 1_555
C2_2 C3_2 1_555 1_555
C3_2 H1_2 1_555 1_555
La3 O1_2 1_555 1_555
O2_2 C1_2 1_555 1_555
O3_2 C1_2 1_555 1_555
La4 O3_2 1_555 1_555
O8_2 La3 1_555 1_555
O10_2 La3 1_555 1_555
O11_2 La3 1_555 1_555
O13_2 La3 1_555 1_555
La3 O2_2 1_555 1_555
La3 O3_2 1_555 1_555
O1_2 H4_2 1_555 1_555
O1_2 H5_2 1_555 1_555
O12 C8_2 1_555 1_555
La4 O7_2 1_555 1_555
O6_2 C8_3 1_555 1_555
O13 C8_3 1_555 1_555
La6 O6_2 1_555 1_555
C1_3 C2_3 1_555 1_555
C2_3 C3_3 1_555 1_555
C3_3 H1_3 1_555 1_555
C4_3 C3_3 1_555 1_555
C5_3 C4_3 1_555 1_555
H2_3 C5_3 1_555 1_555
C6_3 C5_3 1_555 1_555
C7_3 C2_3 1_555 1_555
H3_3 C7_3 1_555 1_555
C9_3 C6_3 1_555 1_555
O2_3 C1_3 1_555 1_555
O8 C1_3 1_555 1_555
O10_2 C9_3 1_555 1_555
O11_2 C9_3 1_555 1_555
La6 O10_2 1_555 1_555
C6_3 C7_3 1_555 1_555
O1_3 H4_3 1_555 1_555
O1_3 H5_3 1_555 1_555
O10 La4 1_555 1_555
O12_2 La4 1_555 1_555
C1_4 C2_4 1_555 1_555
C2_4 C3_4 1_555 1_555
C3_4 H1_4 1_555 1_555
C4_4 C3_4 1_555 1_555
C5_4 C4_4 1_555 1_555
H2_4 C5_4 1_555 1_555
C6_4 C5_4 1_555 1_555
C7_4 C2_4 1_555 1_555
H3_4 C7_4 1_555 1_555
C9_4 C6_4 1_555 1_555
La6 O1_4 1_555 1_555
O2_4 C1_4 1_555 1_555
O8_2 C1_4 1_555 1_555
O10 C9_4 1_555 1_555
C6_4 C7_4 1_555 1_555
La6 O2_4 1_555 1_555
La6 O8_2 1_555 1_555
O1_4 H4_4 1_555 1_555
O1_4 H5_4 1_555 1_555
O12_2 C8_4 1_555 1_555
O13_2 C8_4 1_555 1_555

#END
