
###############################################################################
#
# This file contains modified crystal structure data generated from the
# MOF subset of the Cambridge Structural Database (CSD) v543 
# hosted by the Cambridge Crystallographic Data Centre (CCDC).
#
# This work is licensed under the Creative Commons
# Attribution-NonCommercial-ShareAlike 4.0 International License.
# To view a copy of this license, visit
# http://creativecommons.org/licenses/by-nc-sa/4.0/
# or send a letter to
# Creative Commons, PO Box 1866, Mountain View, CA 94042, USA.
#
# CIF created using the CSD Python API on 29 September 2022
# The structure has been converted into the P1 space group
# The structure has a 3D framework
# The original CSD entry QOVDEL is in the rhombohedral crystal system
# The framework has been calculated to contain at least 10.0% void space
# The void calculation uses a probe of radius 1.32A, grid spacing 0.4
# H atom positions have been added when not included in the experimental data
# Generated hydrogen atom positions removed from atoms on special positions
#
###############################################################################

data_QOVDEL
_chemical_formula_moiety         '(C54 H162 N18 Ni18 O67 P18)n'
_symmetry_cell_setting           triclinic
_symmetry_space_group_name_H-M   'P 1'
_symmetry_Int_Tables_number      1
_space_group_name_Hall           'P 1'
loop_
_symmetry_equiv_pos_site_id
_symmetry_equiv_pos_as_xyz
1 x,y,z
_cell_length_a                   27.91436(12)
_cell_length_b                   27.91436(12)
_cell_length_c                   6.165502(21)
_cell_angle_alpha                90
_cell_angle_beta                 90
_cell_angle_gamma                120
_cell_volume                     4160.59
loop_
_atom_site_label
_atom_site_type_symbol
_atom_site_fract_x
_atom_site_fract_y
_atom_site_fract_z
_atom_site_U_iso_or_equiv
_atom_site_thermal_displace_type
Ni3 Ni 0.39045(10) 0.02848(7) 0.05249(26) 0.0199 Uiso
Ni8 Ni 0.69530(7) 0.05711(10) 0.61417(26) 0.0199 Uiso
O11 O 0.32179(29) 0.04518(41) 0.0413(10) 0.0199 Uiso
O14 O 0.71184(41) 0.05672(29) 0.2921(10) 0.0199 Uiso
C6 C 0.5625(4) 0.0156(4) 0.2839(16) 0.0199 Uiso
H3 H 0.795995 0.034262 0.140058 . .
H4 H 0.798536 0.000809769 0.350672 . .
H7 H 0.51696 0.0655059 0.157501 . .
H13 H 0.599942 0.0560004 0.280588 . .
H14 H 0.529605 0.0189622 0.364631 . .
Ni1 Ni 0.30485(7) 0.02863(7) 0.71916(26) 0.0199 Uiso
P1 P 0.42397(12) 0.03900(15) 0.5700(6) 0.0199 Uiso
O1 O 0.47878(25) 0.09348(24) 0.5018(10) 0.0199 Uiso
O2 O 0.38754(28) 0.05301(30) 0.7339(10) 0.0199 Uiso
O3 O 0.22133(26) 0.00233(23) 0.7869(11) 0.0199 Uiso
O4 O 0.39005(29) 0.01154(29) 0.3746(10) 0.0199 Uiso
N1 N 0.4549(4) 0.0074(4) 0.9465(15) 0.0199 Uiso
C2 C 0.5109(5) 0.0562(5) 0.9848(17) 0.0199 Uiso
O7 O 0.28032(30) 0.00120(41) 0.4006(10) 0.0199 Uiso
N3 N 0.3259(4) 0.1142(6) 0.6132(15) 0.0199 Uiso
C4 C 0.5536(4) 0.0419(4) 0.9027(15) 0.0199 Uiso
H1 H 0.219149 0.0296639 0.883363 . .
H8 H 0.514952 0.0919314 0.897292 . .
H11 H 0.59529 0.0770468 0.919555 . .
H12 H 0.545983 0.0289968 0.733555 . .
C1 C 0.4464(4) 0.9581(4) 0.0973(15) 0.0199 Uiso
Ni2 Ni 0.69515(7) 0.97137(7) 0.28084(26) 0.0199 Uiso
Ni7 Ni 0.60955(10) 0.97152(7) 0.94751(26) 0.0199 Uiso
P2 P 0.57603(12) 0.96100(15) 0.4300(6) 0.0199 Uiso
O5 O 0.52122(25) 0.90652(24) 0.4982(10) 0.0199 Uiso
O6 O 0.61246(28) 0.94699(30) 0.2661(10) 0.0199 Uiso
O8 O 0.71968(30) 0.99880(41) 0.5994(10) 0.0199 Uiso
O9 O 0.77867(26) 0.99767(23) 0.2131(11) 0.0199 Uiso
O10 O 0.60995(29) 0.98846(29) 0.6254(10) 0.0199 Uiso
N2 N 0.5451(4) 0.9926(4) 0.0535(15) 0.0199 Uiso
N4 N 0.6741(4) 0.8858(6) 0.3868(15) 0.0199 Uiso
C5 C 0.4891(5) 0.9438(5) 0.0152(17) 0.0199 Uiso
H9 H 0.40471 0.922953 0.0804447 . .
H10 H 0.454017 0.971003 0.266445 . .
H16 H 0.485048 0.908069 0.102708 . .
C3 C 0.4375(4) 0.9844(4) 0.7161(16) 0.0199 Uiso
Ni5 Ni 0.30470(7) 0.94289(10) 0.38583(26) 0.0199 Uiso
O12 O 0.28816(41) 0.94328(29) 0.7079(10) 0.0199 Uiso
O13 O 0.67821(29) 0.95482(41) 0.9587(10) 0.0199 Uiso
H2 H 0.201464 0.99919 0.649328 . .
H5 H 0.470395 0.981038 0.635369 . .
H6 H 0.400058 0.944 0.719412 . .
H15 H 0.48304 0.934494 0.842499 . .
C1_2 C 0.0419(4) 0.4883(6) 0.0973(15) 0.0199 Uiso
Ni2_2 Ni 0.02863(7) 0.72378(10) 0.28084(26) 0.0199 Uiso
Ni7_2 Ni 0.02848(7) 0.63804(12) 0.94751(26) 0.0199 Uiso
P2_2 P 0.03900(15) 0.61503(19) 0.4300(6) 0.0199 Uiso
O5_2 O 0.09348(24) 0.61470(35) 0.4982(10) 0.0199 Uiso
O6_2 O 0.05301(30) 0.66547(41) 0.2661(10) 0.0199 Uiso
O8_2 O 0.00120(41) 0.72087(51) 0.5994(10) 0.0199 Uiso
O9_2 O 0.00233(23) 0.78100(35) 0.2131(11) 0.0199 Uiso
O10_2 O 0.01154(29) 0.62149(41) 0.6254(10) 0.0199 Uiso
N2_2 N 0.0074(4) 0.5525(6) 0.0535(15) 0.0199 Uiso
N4_2 N 0.1142(6) 0.7882(7) 0.3868(15) 0.0199 Uiso
C5_2 C 0.0562(5) 0.5453(7) 0.0152(17) 0.0199 Uiso
H9_2 H 0.0770468 0.481757 0.0804447 . .
H10_2 H 0.0289968 0.483014 0.266445 . .
H16_2 H 0.0919314 0.57698 0.102708 . .
C3_2 C 0.0156(4) 0.4531(6) 0.7161(16) 0.0199 Uiso
Ni5_2 Ni 0.05711(10) 0.36182(12) 0.38583(26) 0.0199 Uiso
O12_2 O 0.05672(29) 0.34487(50) 0.7079(10) 0.0199 Uiso
O13_2 O 0.04518(41) 0.72338(50) 0.9587(10) 0.0199 Uiso
H2_2 H 0.000809769 0.202274 0.649328 . .
H5_2 H 0.0189622 0.489357 0.635369 . .
H6_2 H 0.0560004 0.456059 0.719412 . .
H15_2 H 0.0655059 0.548546 0.842499 . .
Ni3_2 Ni 0.97152(7) 0.36196(12) 0.05249(26) 0.0199 Uiso
Ni8_2 Ni 0.94289(10) 0.63818(12) 0.61417(26) 0.0199 Uiso
O11_2 O 0.95482(41) 0.27662(50) 0.0413(10) 0.0199 Uiso
O14_2 O 0.94328(29) 0.65513(50) 0.2921(10) 0.0199 Uiso
C6_2 C 0.9844(4) 0.5469(6) 0.2839(16) 0.0199 Uiso
H3_2 H 0.965738 0.761733 0.140058 . .
H4_2 H 0.99919 0.797726 0.350672 . .
H7_2 H 0.934494 0.451454 0.157501 . .
H13_2 H 0.944 0.543941 0.280588 . .
H14_2 H 0.981038 0.510643 0.364631 . .
Ni1_2 Ni 0.97137(7) 0.27622(10) 0.71916(26) 0.0199 Uiso
P1_2 P 0.96100(15) 0.38497(19) 0.5700(6) 0.0199 Uiso
O1_2 O 0.90652(24) 0.38530(35) 0.5018(10) 0.0199 Uiso
O2_2 O 0.94699(30) 0.33453(41) 0.7339(10) 0.0199 Uiso
O3_2 O 0.99767(23) 0.21900(35) 0.7869(11) 0.0199 Uiso
O4_2 O 0.98846(29) 0.37851(41) 0.3746(10) 0.0199 Uiso
N1_2 N 0.9926(4) 0.4475(6) 0.9465(15) 0.0199 Uiso
C2_2 C 0.9438(5) 0.4547(7) 0.9848(17) 0.0199 Uiso
O7_2 O 0.99880(41) 0.27913(51) 0.4006(10) 0.0199 Uiso
N3_2 N 0.8858(6) 0.2118(7) 0.6132(15) 0.0199 Uiso
C4_2 C 0.9581(4) 0.5117(6) 0.9027(15) 0.0199 Uiso
H1_2 H 0.970336 0.189485 0.883363 . .
H8_2 H 0.908069 0.42302 0.897292 . .
H11_2 H 0.922953 0.518243 0.919555 . .
H12_2 H 0.971003 0.516986 0.733555 . .
C1_3 C 0.5117(6) 0.5536(4) 0.0973(15) 0.0199 Uiso
Ni2_3 Ni 0.27622(10) 0.30485(7) 0.28084(26) 0.0199 Uiso
Ni3_3 Ni 0.63804(12) 0.60955(10) 0.05249(26) 0.0199 Uiso
Ni7_3 Ni 0.36196(12) 0.39045(10) 0.94751(26) 0.0199 Uiso
Ni8_3 Ni 0.36182(12) 0.30470(7) 0.61417(26) 0.0199 Uiso
P2_3 P 0.38497(19) 0.42397(12) 0.4300(6) 0.0199 Uiso
O5_3 O 0.38530(35) 0.47878(25) 0.4982(10) 0.0199 Uiso
O6_3 O 0.33453(41) 0.38754(28) 0.2661(10) 0.0199 Uiso
O8_3 O 0.27913(51) 0.28032(30) 0.5994(10) 0.0199 Uiso
O9_3 O 0.21900(35) 0.22133(26) 0.2131(11) 0.0199 Uiso
O10_3 O 0.37851(41) 0.39005(29) 0.6254(10) 0.0199 Uiso
O11_3 O 0.72338(50) 0.67821(29) 0.0413(10) 0.0199 Uiso
O14_3 O 0.34487(50) 0.28816(41) 0.2921(10) 0.0199 Uiso
N2_3 N 0.4475(6) 0.4549(4) 0.0535(15) 0.0199 Uiso
N4_3 N 0.2118(7) 0.3259(4) 0.3868(15) 0.0199 Uiso
C5_3 C 0.4547(7) 0.5109(5) 0.0152(17) 0.0199 Uiso
C6_3 C 0.4531(6) 0.4375(4) 0.2839(16) 0.0199 Uiso
H7_3 H 0.548546 0.48304 0.157501 . .
H9_3 H 0.518243 0.59529 0.0804447 . .
H10_3 H 0.516986 0.545983 0.266445 . .
H13_3 H 0.456059 0.400058 0.280588 . .
H14_3 H 0.489357 0.470395 0.364631 . .
H16_3 H 0.42302 0.514952 0.102708 . .
Ni1_3 Ni 0.72378(10) 0.69515(7) 0.71916(26) 0.0199 Uiso
P1_3 P 0.61503(19) 0.57603(12) 0.5700(6) 0.0199 Uiso
O1_3 O 0.61470(35) 0.52122(25) 0.5018(10) 0.0199 Uiso
O2_3 O 0.66547(41) 0.61246(28) 0.7339(10) 0.0199 Uiso
O3_3 O 0.78100(35) 0.77867(26) 0.7869(11) 0.0199 Uiso
O4_3 O 0.62149(41) 0.60995(29) 0.3746(10) 0.0199 Uiso
N1_3 N 0.5525(6) 0.5451(4) 0.9465(15) 0.0199 Uiso
C2_3 C 0.5453(7) 0.4891(5) 0.9848(17) 0.0199 Uiso
C3_3 C 0.5469(6) 0.5625(4) 0.7161(16) 0.0199 Uiso
Ni5_3 Ni 0.63818(12) 0.69530(7) 0.38583(26) 0.0199 Uiso
O7_3 O 0.72087(51) 0.71968(30) 0.4006(10) 0.0199 Uiso
O12_3 O 0.65513(50) 0.71184(41) 0.7079(10) 0.0199 Uiso
O13_3 O 0.27662(50) 0.32179(29) 0.9587(10) 0.0199 Uiso
N3_3 N 0.7882(7) 0.6741(4) 0.6132(15) 0.0199 Uiso
C4_3 C 0.4883(6) 0.4464(4) 0.9027(15) 0.0199 Uiso
H5_3 H 0.510643 0.529605 0.635369 . .
H6_3 H 0.543941 0.599942 0.719412 . .
H8_3 H 0.57698 0.485048 0.897292 . .
H11_3 H 0.481757 0.40471 0.919555 . .
H12_3 H 0.483014 0.454017 0.733555 . .
H15_3 H 0.451454 0.51696 0.842499 . .
H4_3 H 0.131869 0.667476 0.0173388 . .
O9_4 O 0.11200(26) 0.66434(23) 0.8798(11) 0.0199 Uiso
H3_3 H 0.129328 0.700929 0.806725 . .
P2_4 P 0.90936(12) 0.62767(15) 0.0967(6) 0.0199 Uiso
O5_4 O 0.85455(25) 0.57319(24) 0.1649(10) 0.0199 Uiso
H14_4 H 0.862938 0.685629 0.0312972 . .
P1_4 P 0.75730(12) 0.70567(15) 0.2367(6) 0.0199 Uiso
O1_4 O 0.81211(25) 0.76015(24) 0.1685(10) 0.0199 Uiso
O3_4 O 0.55466(26) 0.66900(23) 0.4536(11) 0.0199 Uiso
C1_4 C 0.7797(4) 0.6248(4) 0.7640(15) 0.0199 Uiso
C2_4 C 0.8442(5) 0.7229(5) 0.6515(17) 0.0199 Uiso
C3_4 C 0.7708(4) 0.6511(4) 0.3828(16) 0.0199 Uiso
O6_4 O 0.94579(28) 0.61366(30) 0.9328(10) 0.0199 Uiso
O7_4 O 0.61366(30) 0.66786(41) 0.0672(10) 0.0199 Uiso
N2_4 N 0.8784(4) 0.6593(4) 0.7202(15) 0.0199 Uiso
N3_4 N 0.6593(4) 0.7808(6) 0.2798(15) 0.0199 Uiso
C4_4 C 0.8869(4) 0.7086(4) 0.5694(15) 0.0199 Uiso
C5_4 C 0.8224(5) 0.6105(5) 0.6819(17) 0.0199 Uiso
C6_4 C 0.8958(4) 0.6823(4) 0.9506(16) 0.0199 Uiso
H5_4 H 0.803729 0.647704 0.302036 . .
H6_4 H 0.733392 0.610666 0.386079 . .
H7_4 H 0.850293 0.732173 0.824167 . .
H8_4 H 0.848285 0.758598 0.563959 . .
H9_4 H 0.738043 0.58962 0.747111 . .
H10_4 H 0.78735 0.63767 0.933112 . .
H11_4 H 0.928623 0.743714 0.586222 . .
H12_4 H 0.879316 0.695663 0.400222 . .
H13_4 H 0.933275 0.722667 0.947255 . .
H15_4 H 0.816373 0.601161 0.509166 . .
H16_4 H 0.818382 0.574735 0.769375 . .
P2_5 P 0.37233(15) 0.28170(19) 0.0967(6) 0.0199 Uiso
O5_5 O 0.42681(24) 0.28137(35) 0.1649(10) 0.0199 Uiso
H4_4 H 0.332524 0.464393 0.0173388 . .
H14_5 H 0.314371 0.177309 0.0312972 . .
P1_5 P 0.29433(15) 0.05164(19) 0.2367(6) 0.0199 Uiso
O1_5 O 0.23985(24) 0.05197(35) 0.1685(10) 0.0199 Uiso
C1_5 C 0.3752(4) 0.1550(6) 0.7640(15) 0.0199 Uiso
C2_5 C 0.2771(5) 0.1214(7) 0.6515(17) 0.0199 Uiso
C3_5 C 0.3489(4) 0.1198(6) 0.3828(16) 0.0199 Uiso
O6_5 O 0.38634(30) 0.33214(41) 0.9328(10) 0.0199 Uiso
O9_5 O 0.33566(23) 0.44767(35) 0.8798(11) 0.0199 Uiso
N2_5 N 0.3407(4) 0.2192(6) 0.7202(15) 0.0199 Uiso
C4_5 C 0.2914(4) 0.1784(6) 0.5694(15) 0.0199 Uiso
C5_5 C 0.3895(5) 0.2120(7) 0.6819(17) 0.0199 Uiso
C6_5 C 0.3177(4) 0.2136(6) 0.9506(16) 0.0199 Uiso
H3_4 H 0.299071 0.428399 0.806725 . .
H5_5 H 0.352296 0.156024 0.302036 . .
H6_5 H 0.389334 0.122725 0.386079 . .
H7_5 H 0.267827 0.118121 0.824167 . .
H8_5 H 0.241402 0.0896869 0.563959 . .
H9_5 H 0.41038 0.148423 0.747111 . .
H10_5 H 0.36233 0.14968 0.933112 . .
H11_5 H 0.256286 0.18491 0.586222 . .
H12_5 H 0.304337 0.183653 0.400222 . .
H13_5 H 0.277333 0.210608 0.947255 . .
H15_5 H 0.398839 0.215213 0.509166 . .
H16_5 H 0.425265 0.243646 0.769375 . .
O3_5 O 0.33100(23) 0.88567(35) 0.4536(11) 0.0199 Uiso
O7_5 O 0.33214(41) 0.94579(51) 0.0672(10) 0.0199 Uiso
N3_5 N 0.2192(6) 0.8784(7) 0.2798(15) 0.0199 Uiso
O3_6 O 0.11433(35) 0.44534(26) 0.4536(11) 0.0199 Uiso
O7_6 O 0.05421(51) 0.38634(30) 0.0672(10) 0.0199 Uiso
N3_6 N 0.1216(7) 0.3407(4) 0.2798(15) 0.0199 Uiso
P2_6 P 0.71830(19) 0.09064(12) 0.0967(6) 0.0199 Uiso
O5_6 O 0.71863(35) 0.14545(25) 0.1649(10) 0.0199 Uiso
H14_6 H 0.822691 0.137062 0.0312972 . .
P1_6 P 0.94836(19) 0.24270(12) 0.2367(6) 0.0199 Uiso
O1_6 O 0.94803(35) 0.18789(25) 0.1685(10) 0.0199 Uiso
C1_6 C 0.8450(6) 0.2203(4) 0.7640(15) 0.0199 Uiso
C2_6 C 0.8786(7) 0.1558(5) 0.6515(17) 0.0199 Uiso
C3_6 C 0.8802(6) 0.2292(4) 0.3828(16) 0.0199 Uiso
O6_6 O 0.66786(41) 0.05421(28) 0.9328(10) 0.0199 Uiso
N2_6 N 0.7808(6) 0.1216(4) 0.7202(15) 0.0199 Uiso
C4_6 C 0.8216(6) 0.1131(4) 0.5694(15) 0.0199 Uiso
C5_6 C 0.7880(7) 0.1776(5) 0.6819(17) 0.0199 Uiso
C6_6 C 0.7864(6) 0.1042(4) 0.9506(16) 0.0199 Uiso
H5_6 H 0.843976 0.196271 0.302036 . .
H6_6 H 0.877275 0.266608 0.386079 . .
H7_6 H 0.881879 0.149707 0.824167 . .
H8_6 H 0.910313 0.151715 0.563959 . .
H9_6 H 0.851577 0.261957 0.747111 . .
H10_6 H 0.85032 0.21265 0.933112 . .
H11_6 H 0.81509 0.0713765 0.586222 . .
H12_6 H 0.816347 0.120684 0.400222 . .
H13_6 H 0.789392 0.066725 0.947255 . .
H15_6 H 0.784787 0.183627 0.509166 . .
H16_6 H 0.756354 0.181618 0.769375 . .
H4_5 H 0.535607 0.868131 0.0173388 . .
O9_6 O 0.55233(35) 0.88800(26) 0.8798(11) 0.0199 Uiso
H3_5 H 0.571601 0.870672 0.806725 . .
C1_7 C 0.1131(4) 0.2914(4) 0.4306(15) 0.0199 Uiso
C2_7 C 0.1776(5) 0.3895(5) 0.3181(17) 0.0199 Uiso
C3_7 C 0.1042(4) 0.3177(4) 0.0494(16) 0.0199 Uiso
P2_7 P 0.24270(12) 0.29433(15) 0.7633(6) 0.0199 Uiso
O5_7 O 0.18789(25) 0.23985(24) 0.8315(10) 0.0199 Uiso
O9_7 O 0.44534(26) 0.33100(23) 0.5464(11) 0.0199 Uiso
C4_7 C 0.2203(4) 0.3752(4) 0.2360(15) 0.0199 Uiso
C5_7 C 0.1558(5) 0.2771(5) 0.3485(17) 0.0199 Uiso
C6_7 C 0.2292(4) 0.3489(4) 0.6172(16) 0.0199 Uiso
H6_7 H 0.066725 0.277333 0.0527454 . .
H7_7 H 0.183627 0.398839 0.490834 . .
H8_7 H 0.181618 0.425265 0.230625 . .
H9_7 H 0.0713765 0.256286 0.413778 . .
H10_7 H 0.120684 0.304337 0.599778 . .
H11_7 H 0.261957 0.41038 0.252889 . .
H12_7 H 0.21265 0.36233 0.0668885 . .
H13_7 H 0.266608 0.389334 0.613921 . .
H14_7 H 0.196271 0.352296 0.697964 . .
H15_7 H 0.149707 0.267827 0.175833 . .
H16_7 H 0.151715 0.241402 0.436041 . .
P1_7 P 0.09064(12) 0.37233(15) 0.9033(6) 0.0199 Uiso
O1_7 O 0.14545(25) 0.42681(24) 0.8351(10) 0.0199 Uiso
H5_7 H 0.137062 0.314371 0.968703 . .
O3_7 O 0.88800(26) 0.33566(23) 0.1202(11) 0.0199 Uiso
H1_3 H 0.885816 0.362997 0.216696 . .
H2_3 H 0.868131 0.332524 0.982661 . .
O9_8 O 0.66900(23) 0.11433(35) 0.5464(11) 0.0199 Uiso
O3_8 O 0.66434(23) 0.55233(35) 0.1202(11) 0.0199 Uiso
C1_8 C 0.7086(4) 0.8216(6) 0.4306(15) 0.0199 Uiso
C2_8 C 0.6105(5) 0.7880(7) 0.3181(17) 0.0199 Uiso
C3_8 C 0.6823(4) 0.7864(6) 0.0494(16) 0.0199 Uiso
P2_8 P 0.70567(15) 0.94836(19) 0.7633(6) 0.0199 Uiso
O5_8 O 0.76015(24) 0.94803(35) 0.8315(10) 0.0199 Uiso
C4_8 C 0.6248(4) 0.8450(6) 0.2360(15) 0.0199 Uiso
C5_8 C 0.7229(5) 0.8786(7) 0.3485(17) 0.0199 Uiso
C6_8 C 0.6511(4) 0.8802(6) 0.6172(16) 0.0199 Uiso
H1_4 H 0.637003 0.522819 0.216696 . .
H6_8 H 0.722667 0.789392 0.0527454 . .
H7_8 H 0.601161 0.784787 0.490834 . .
H8_8 H 0.574735 0.756354 0.230625 . .
H9_8 H 0.743714 0.81509 0.413778 . .
H10_8 H 0.695663 0.816347 0.599778 . .
H11_8 H 0.58962 0.851577 0.252889 . .
H12_8 H 0.63767 0.85032 0.0668885 . .
H13_8 H 0.610666 0.877275 0.613921 . .
H14_8 H 0.647704 0.843976 0.697964 . .
H15_8 H 0.732173 0.881879 0.175833 . .
H16_8 H 0.758598 0.910313 0.436041 . .
P1_8 P 0.62767(15) 0.71830(19) 0.9033(6) 0.0199 Uiso
O1_8 O 0.57319(24) 0.71863(35) 0.8351(10) 0.0199 Uiso
H2_4 H 0.667476 0.535607 0.982661 . .
H5_8 H 0.685629 0.822691 0.968703 . .
O3_9 O 0.44767(35) 0.11200(26) 0.1202(11) 0.0199 Uiso
H1_5 H 0.477181 0.114184 0.216696 . .
H2_5 H 0.464393 0.131869 0.982661 . .
C1_9 C 0.1784(6) 0.8869(4) 0.4306(15) 0.0199 Uiso
C2_9 C 0.2120(7) 0.8224(5) 0.3181(17) 0.0199 Uiso
C3_9 C 0.2136(6) 0.8958(4) 0.0494(16) 0.0199 Uiso
P2_9 P 0.05164(19) 0.75730(12) 0.7633(6) 0.0199 Uiso
O5_9 O 0.05197(35) 0.81211(25) 0.8315(10) 0.0199 Uiso
C4_9 C 0.1550(6) 0.7797(4) 0.2360(15) 0.0199 Uiso
C5_9 C 0.1214(7) 0.8442(5) 0.3485(17) 0.0199 Uiso
C6_9 C 0.1198(6) 0.7708(4) 0.6172(16) 0.0199 Uiso
H6_9 H 0.210608 0.933275 0.0527454 . .
H7_9 H 0.215213 0.816373 0.490834 . .
H8_9 H 0.243646 0.818382 0.230625 . .
H9_9 H 0.18491 0.928623 0.413778 . .
H10_9 H 0.183653 0.879316 0.599778 . .
H11_9 H 0.148423 0.738043 0.252889 . .
H12_9 H 0.14968 0.78735 0.0668885 . .
H13_9 H 0.122725 0.733392 0.613921 . .
H14_9 H 0.156024 0.803729 0.697964 . .
H15_9 H 0.118121 0.850293 0.175833 . .
H16_9 H 0.0896869 0.848285 0.436041 . .
P1_9 P 0.28170(19) 0.90936(12) 0.9033(6) 0.0199 Uiso
O1_9 O 0.28137(35) 0.85455(25) 0.8351(10) 0.0199 Uiso
H5_9 H 0.177309 0.862938 0.968703 . .
O9_9 O 0.88567(35) 0.55466(26) 0.5464(11) 0.0199 Uiso
H1_6 H 0.780851 0.970336 0.116637 . .
H3_6 H 0.204005 0.965738 0.859942 . .
H1_7 H 0.0296639 0.810515 0.116637 . .
H3_7 H 0.034262 0.238267 0.859942 . .
H3_8 H 0.870672 0.299071 0.193275 . .
H3_9 H 0.700929 0.571601 0.193275 . .
H3_10 H 0.428399 0.129328 0.193275 . .
H1_8 H 0.114184 0.637003 0.783304 . .
H1_9 H 0.362997 0.477181 0.783304 . .
H1_10 H 0.522819 0.885816 0.783304 . .
loop_
_geom_bond_atom_site_label_1
_geom_bond_atom_site_label_2
_geom_bond_site_symmetry_1
_geom_bond_site_symmetry_2
Ni3 O11 1_555 1_555
Ni8 O14 1_555 1_555
C6 H13 1_555 1_555
C6 H14 1_555 1_555
Ni1 O2 1_555 1_555
P1 O1 1_555 1_555
O2 P1 1_555 1_555
O3 Ni1 1_555 1_555
O4 P1 1_555 1_555
C2 N1 1_555 1_555
Ni3 O4 1_555 1_555
O7 Ni1 1_555 1_555
N3 Ni1 1_555 1_555
C4 C2 1_555 1_555
O3 H1 1_555 1_555
C2 H8 1_555 1_555
C4 H11 1_555 1_555
C4 H12 1_555 1_555
C1 C5 1_555 1_555
Ni2 O6 1_555 1_555
Ni7 O10 1_555 1_555
P2 O5 1_555 1_555
O6 P2 1_555 1_555
O8 Ni2 1_555 1_555
O9 Ni2 1_555 1_555
N4 Ni2 1_555 1_555
C5 N2 1_555 1_555
P2 O10 1_555 1_555
C1 H9 1_555 1_555
C1 H10 1_555 1_555
C5 H16 1_555 1_555
Ni5 O12 1_555 1_555
Ni7 O13 1_555 1_555
C3 H5 1_555 1_555
C3 H6 1_555 1_555
C1_2 C5_2 1_555 1_555
Ni2_2 O6_2 1_555 1_555
Ni7_2 O10_2 1_555 1_555
P2_2 O5_2 1_555 1_555
O6_2 P2_2 1_555 1_555
O8_2 Ni2_2 1_555 1_555
O9_2 Ni2_2 1_555 1_555
N4_2 Ni2_2 1_555 1_555
C5_2 N2_2 1_555 1_555
P2_2 O10_2 1_555 1_555
C1_2 H9_2 1_555 1_555
C1_2 H10_2 1_555 1_555
C5_2 H16_2 1_555 1_555
Ni5_2 O12_2 1_555 1_555
Ni7_2 O13_2 1_555 1_555
C3_2 H5_2 1_555 1_555
C3_2 H6_2 1_555 1_555
Ni3_2 O11_2 1_555 1_555
Ni8_2 O14_2 1_555 1_555
C6_2 H13_2 1_555 1_555
C6_2 H14_2 1_555 1_555
Ni1_2 O2_2 1_555 1_555
P1_2 O1_2 1_555 1_555
O2_2 P1_2 1_555 1_555
O3_2 Ni1_2 1_555 1_555
O4_2 P1_2 1_555 1_555
C2_2 N1_2 1_555 1_555
Ni3_2 O4_2 1_555 1_555
O7_2 Ni1_2 1_555 1_555
N3_2 Ni1_2 1_555 1_555
C4_2 C2_2 1_555 1_555
O3_2 H1_2 1_555 1_555
C2_2 H8_2 1_555 1_555
C4_2 H11_2 1_555 1_555
C4_2 H12_2 1_555 1_555
C1_3 C5_3 1_555 1_555
Ni2_3 O6_3 1_555 1_555
Ni7_3 O10_3 1_555 1_555
Ni8_3 O8_3 1_555 1_555
P2_3 O5_3 1_555 1_555
O6_3 P2_3 1_555 1_555
O8_3 Ni2_3 1_555 1_555
O9_3 Ni2_3 1_555 1_555
O10_3 Ni8_3 1_555 1_555
O14_3 Ni2_3 1_555 1_555
N4_3 Ni2_3 1_555 1_555
C5_3 N2_3 1_555 1_555
C6_3 P2_3 1_555 1_555
Ni3_3 O11_3 1_555 1_555
Ni8_3 O14_3 1_555 1_555
P2_3 O10_3 1_555 1_555
N2_3 C6_3 1_555 1_555
C1_3 H9_3 1_555 1_555
C1_3 H10_3 1_555 1_555
C6_3 H13_3 1_555 1_555
C6_3 H14_3 1_555 1_555
C5_3 H16_3 1_555 1_555
Ni1_3 O2_3 1_555 1_555
P1_3 O1_3 1_555 1_555
O2_3 P1_3 1_555 1_555
O3_3 Ni1_3 1_555 1_555
O4_3 P1_3 1_555 1_555
C2_3 N1_3 1_555 1_555
C3_3 P1_3 1_555 1_555
Ni3_3 O4_3 1_555 1_555
Ni5_3 O4_3 1_555 1_555
O7_3 Ni1_3 1_555 1_555
O12_3 Ni1_3 1_555 1_555
N3_3 Ni1_3 1_555 1_555
C4_3 C2_3 1_555 1_555
N1_3 C3_3 1_555 1_555
Ni5_3 O7_3 1_555 1_555
Ni5_3 O12_3 1_555 1_555
Ni7_3 O13_3 1_555 1_555
C3_3 H5_3 1_555 1_555
C3_3 H6_3 1_555 1_555
C2_3 H8_3 1_555 1_555
C4_3 H11_3 1_555 1_555
C4_3 H12_3 1_555 1_555
O9_4 Ni7_2 1_555 1_555
O9_4 H3_3 1_555 1_555
P2_4 O5_4 1_555 1_555
P2_4 O14_2 1_555 1_555
P1_4 O1_4 1_555 1_555
O7_3 P1_4 1_555 1_555
O3_4 Ni5_3 1_555 1_555
O11_3 P1_4 1_555 1_555
N3_3 C1_4 1_555 1_555
C1_4 C5_4 1_555 1_555
C2_4 N3_3 1_555 1_555
C3_4 P1_4 1_555 1_555
Ni8_2 O6_4 1_555 1_555
O7_4 Ni5_3 1_555 1_555
N2_4 Ni8_2 1_555 1_555
N3_4 Ni5_3 1_555 1_555
C4_4 C2_4 1_555 1_555
C5_4 N2_4 1_555 1_555
N3_3 C3_4 1_555 1_555
Ni3_3 O7_4 1_555 1_555
N2_4 C4_4 1_555 1_555
N2_4 C6_4 1_555 1_555
C3_4 H5_4 1_555 1_555
C3_4 H6_4 1_555 1_555
C2_4 H7_4 1_555 1_555
C2_4 H8_4 1_555 1_555
C1_4 H9_4 1_555 1_555
C1_4 H10_4 1_555 1_555
C4_4 H11_4 1_555 1_555
C4_4 H12_4 1_555 1_555
C6_4 H13_4 1_555 1_555
C5_4 H15_4 1_555 1_555
C5_4 H16_4 1_555 1_555
P2_5 O5_5 1_555 1_555
P2_5 O14_3 1_555 1_555
P1_5 O1_5 1_555 1_555
O7 P1_5 1_555 1_555
O11 P1_5 1_555 1_555
N3 C1_5 1_555 1_555
C1_5 C5_5 1_555 1_555
C2_5 N3 1_555 1_555
C3_5 P1_5 1_555 1_555
Ni7_3 O6_5 1_555 1_555
Ni8_3 O6_5 1_555 1_555
O9_5 Ni7_3 1_555 1_555
N2_5 Ni8_3 1_555 1_555
C4_5 C2_5 1_555 1_555
C5_5 N2_5 1_555 1_555
N3 C3_5 1_555 1_555
N2_5 C4_5 1_555 1_555
N2_5 C6_5 1_555 1_555
O9_5 H3_4 1_555 1_555
C3_5 H5_5 1_555 1_555
C3_5 H6_5 1_555 1_555
C2_5 H7_5 1_555 1_555
C2_5 H8_5 1_555 1_555
C1_5 H9_5 1_555 1_555
C1_5 H10_5 1_555 1_555
C4_5 H11_5 1_555 1_555
C4_5 H12_5 1_555 1_555
C6_5 H13_5 1_555 1_555
C5_5 H15_5 1_555 1_555
C5_5 H16_5 1_555 1_555
O3_5 Ni5 1_555 1_555
O7_5 Ni5 1_555 1_555
N3_5 Ni5 1_555 1_555
O3_6 Ni5_2 1_555 1_555
O7_6 Ni5_2 1_555 1_555
N3_6 Ni5_2 1_555 1_555
P2_6 O5_6 1_555 1_555
P2_6 O14 1_555 1_555
P1_6 O1_6 1_555 1_555
O7_2 P1_6 1_555 1_555
O11_2 P1_6 1_555 1_555
N3_2 C1_6 1_555 1_555
C1_6 C5_6 1_555 1_555
C2_6 N3_2 1_555 1_555
C3_6 P1_6 1_555 1_555
Ni8 O6_6 1_555 1_555
N2_6 Ni8 1_555 1_555
C4_6 C2_6 1_555 1_555
C5_6 N2_6 1_555 1_555
N3_2 C3_6 1_555 1_555
N2_6 C4_6 1_555 1_555
N2_6 C6_6 1_555 1_555
C3_6 H5_6 1_555 1_555
C3_6 H6_6 1_555 1_555
C2_6 H7_6 1_555 1_555
C2_6 H8_6 1_555 1_555
C1_6 H9_6 1_555 1_555
C1_6 H10_6 1_555 1_555
C4_6 H11_6 1_555 1_555
C4_6 H12_6 1_555 1_555
C6_6 H13_6 1_555 1_555
C5_6 H15_6 1_555 1_555
C5_6 H16_6 1_555 1_555
O9_6 Ni7 1_555 1_555
O9_6 H3_5 1_555 1_555
N3_6 C1_7 1_555 1_555
C1_7 C5_7 1_555 1_555
C2_7 N3_6 1_555 1_555
P2_7 O5_7 1_555 1_555
O8_3 P2_7 1_555 1_555
O9_7 Ni8_3 1_555 1_555
C4_7 C2_7 1_555 1_555
C5_7 N4_3 1_555 1_555
C6_7 P2_7 1_555 1_555
N3_6 C3_7 1_555 1_555
P2_7 O13_3 1_555 1_555
N4_3 C4_7 1_555 1_555
N4_3 C6_7 1_555 1_555
C3_7 H6_7 1_555 1_555
C2_7 H7_7 1_555 1_555
C2_7 H8_7 1_555 1_555
C1_7 H9_7 1_555 1_555
C1_7 H10_7 1_555 1_555
C4_7 H11_7 1_555 1_555
C4_7 H12_7 1_555 1_555
C6_7 H13_7 1_555 1_555
C6_7 H14_7 1_555 1_555
C5_7 H15_7 1_555 1_555
C5_7 H16_7 1_555 1_555
P1_7 O1_7 1_555 1_555
O12_2 P1_7 1_555 1_555
O3_7 Ni3_2 1_555 1_555
O3_7 H1_3 1_555 1_555
O9_8 Ni8 1_555 1_555
O3_8 Ni3_3 1_555 1_555
N3_4 C1_8 1_555 1_555
C1_8 C5_8 1_555 1_555
C2_8 N3_4 1_555 1_555
P2_8 O5_8 1_555 1_555
O8 P2_8 1_555 1_555
C4_8 C2_8 1_555 1_555
C5_8 N4 1_555 1_555
C6_8 P2_8 1_555 1_555
N3_4 C3_8 1_555 1_555
P2_8 O13 1_555 1_555
N4 C4_8 1_555 1_555
N4 C6_8 1_555 1_555
O3_8 H1_4 1_555 1_555
C3_8 H6_8 1_555 1_555
C2_8 H7_8 1_555 1_555
C2_8 H8_8 1_555 1_555
C1_8 H9_8 1_555 1_555
C1_8 H10_8 1_555 1_555
C4_8 H11_8 1_555 1_555
C4_8 H12_8 1_555 1_555
C6_8 H13_8 1_555 1_555
C6_8 H14_8 1_555 1_555
C5_8 H15_8 1_555 1_555
C5_8 H16_8 1_555 1_555
P1_8 O1_8 1_555 1_555
O12_3 P1_8 1_555 1_555
O3_9 Ni3 1_555 1_555
O3_9 H1_5 1_555 1_555
N3_5 C1_9 1_555 1_555
C1_9 C5_9 1_555 1_555
C2_9 N3_5 1_555 1_555
P2_9 O5_9 1_555 1_555
O8_2 P2_9 1_555 1_555
C4_9 C2_9 1_555 1_555
C5_9 N4_2 1_555 1_555
C6_9 P2_9 1_555 1_555
N3_5 C3_9 1_555 1_555
P2_9 O13_2 1_555 1_555
N4_2 C4_9 1_555 1_555
N4_2 C6_9 1_555 1_555
C3_9 H6_9 1_555 1_555
C2_9 H7_9 1_555 1_555
C2_9 H8_9 1_555 1_555
C1_9 H9_9 1_555 1_555
C1_9 H10_9 1_555 1_555
C4_9 H11_9 1_555 1_555
C4_9 H12_9 1_555 1_555
C6_9 H13_9 1_555 1_555
C6_9 H14_9 1_555 1_555
C5_9 H15_9 1_555 1_555
C5_9 H16_9 1_555 1_555
P1_9 O1_9 1_555 1_555
O12 P1_9 1_555 1_555
O9_9 Ni8_2 1_555 1_555
O9 H1_6 1_555 1_555
O9_2 H1_7 1_555 1_555
O3_7 H3_8 1_555 1_555
O3_8 H3_9 1_555 1_555
O3_9 H3_10 1_555 1_555
O9_4 H1_8 1_555 1_555
O9_5 H1_9 1_555 1_555
O9_6 H1_10 1_555 1_555

#END
