
###############################################################################
#
# This file contains modified crystal structure data generated from the
# MOF subset of the Cambridge Structural Database (CSD) v543 
# hosted by the Cambridge Crystallographic Data Centre (CCDC).
#
# This work is licensed under the Creative Commons
# Attribution-NonCommercial-ShareAlike 4.0 International License.
# To view a copy of this license, visit
# http://creativecommons.org/licenses/by-nc-sa/4.0/
# or send a letter to
# Creative Commons, PO Box 1866, Mountain View, CA 94042, USA.
#
# CIF created using the CSD Python API on 29 September 2022
# The structure has been converted into the P1 space group
# The structure has a 3D framework
# The original CSD entry QOVDAH is in the rhombohedral crystal system
# The framework has been calculated to contain at least 10.0% void space
# The void calculation uses a probe of radius 1.32A, grid spacing 0.4
# H atom positions have been added when not included in the experimental data
# Generated hydrogen atom positions removed from atoms on special positions
#
###############################################################################

data_QOVDAH
_chemical_formula_moiety         '(C54 H162 N18 Ni18 O66 P18)n'
_symmetry_cell_setting           triclinic
_symmetry_space_group_name_H-M   'P 1'
_symmetry_Int_Tables_number      1
_space_group_name_Hall           'P 1'
loop_
_symmetry_equiv_pos_site_id
_symmetry_equiv_pos_as_xyz
1 x,y,z
_cell_length_a                   27.83424(11)
_cell_length_b                   27.83424(11)
_cell_length_c                   6.242081(26)
_cell_angle_alpha                90
_cell_angle_beta                 90
_cell_angle_gamma                120
_cell_volume                     4188.12
loop_
_atom_site_label
_atom_site_type_symbol
_atom_site_fract_x
_atom_site_fract_y
_atom_site_fract_z
Ni2 Ni 0.36321(5) 0.30627(5) 0.61412(22)
Ni7 Ni 0.27640(7) 0.30346(5) 0.28079(22)
P2 P 0.37265(11) 0.28238(12) 0.0958(5)
O5 O 0.42600(21) 0.28270(22) 0.1502(10)
O6 O 0.44361(22) 0.32744(19) 0.5535(10)
O7 O 0.34273(22) 0.28755(23) 0.2837(9)
O9 O 0.37911(23) 0.38851(32) 0.6171(9)
N4 N 0.34176(28) 0.22208(29) 0.7103(12)
O13 O 0.28014(31) 0.28276(22) 0.6021(9)
O14 O 0.38391(22) 0.33071(22) 0.9354(9)
H14 H 0.316663 0.179463 0.0133382
P1 P 0.29402(11) 0.05095(12) 0.2375(5)
O1 O 0.24067(21) 0.05063(22) 0.1831(10)
O3 O 0.32394(22) 0.04578(23) 0.0496(9)
N1 N 0.32491(28) 0.11125(29) 0.6230(12)
C1 C 0.2781(4) 0.1198(4) 0.6450(14)
O4 O 0.28276(22) 0.00262(22) 0.3979(9)
C2 C 0.37743(34) 0.1573(4) 0.7449(12)
C3 C 0.3467(4) 0.1170(4) 0.3949(13)
Ni3 Ni 0.39027(7) 0.02987(5) 0.05254(22)
Ni4 Ni 0.30346(5) 0.02706(5) 0.71921(22)
Ni8 Ni 0.36039(5) 0.39027(7) 0.94746(22)
C4 C 0.3886(4) 0.2135(4) 0.6883(14)
C5 C 0.28924(34) 0.1760(4) 0.5884(12)
C6 C 0.3200(4) 0.2163(4) 0.9384(13)
H5 H 0.350004 0.153871 0.319995
H6 H 0.387297 0.120138 0.396615
H7 H 0.402274 0.221514 0.522172
H8 H 0.421648 0.24315 0.791853
H9 H 0.41334 0.153565 0.701879
H10 H 0.370262 0.151195 0.916784
H11 H 0.264393 0.111819 0.811161
H12 H 0.245018 0.0901833 0.541481
H13 H 0.27937 0.213195 0.936718
H15 H 0.253326 0.179768 0.631454
H16 H 0.296404 0.182139 0.416549
O2 O 0.22306(22) 0.00589(19) 0.7798(10)
O11 O 0.38653(31) 0.05057(22) 0.7312(9)
H3 H 0.222053 0.0383185 0.840854
Ni5 Ni 0.30627(5) 0.94307(7) 0.38588(22)
O8 O 0.28755(23) 0.94483(32) 0.7163(9)
H4 H 0.201493 0.994363 0.644303
Ni5_2 Ni 0.05693(7) 0.36321(9) 0.38588(22)
O8_2 O 0.05517(32) 0.34273(39) 0.7163(9)
H4_2 H 0.00563695 0.20713 0.644303
Ni2_2 Ni 0.69373(5) 0.05693(7) 0.61412(22)
P2_2 P 0.71762(12) 0.09026(16) 0.0958(5)
O5_2 O 0.71730(22) 0.14329(30) 0.1502(10)
O6_2 O 0.67256(19) 0.11616(29) 0.5535(10)
O7_2 O 0.71245(23) 0.05517(32) 0.2837(9)
N4_2 N 0.77792(29) 0.11967(40) 0.7103(12)
O14_2 O 0.66929(22) 0.05319(31) 0.9354(9)
H14_2 H 0.820537 0.1372 0.0133382
P1_2 P 0.94905(12) 0.24307(16) 0.2375(5)
O1_2 O 0.94937(22) 0.19004(30) 0.1831(10)
O3_2 O 0.95422(23) 0.27816(32) 0.0496(9)
N1_2 N 0.88875(29) 0.21366(40) 0.6230(12)
C1_2 C 0.8802(4) 0.1583(6) 0.6450(14)
O4_2 O 0.99738(22) 0.28014(31) 0.3979(9)
C2_2 C 0.8427(4) 0.22013(52) 0.7449(12)
C3_2 C 0.8830(4) 0.2297(6) 0.3949(13)
Ni3_2 Ni 0.97013(5) 0.36039(9) 0.05254(22)
Ni4_2 Ni 0.97294(5) 0.27640(7) 0.71921(22)
C4_2 C 0.7865(4) 0.1750(6) 0.6883(14)
C5_2 C 0.8240(4) 0.11320(52) 0.5884(12)
C6_2 C 0.7837(4) 0.1036(6) 0.9384(13)
H5_2 H 0.846129 0.196133 0.319995
H6_2 H 0.879862 0.267159 0.396615
H7_2 H 0.778486 0.18076 0.522172
H8_2 H 0.75685 0.178498 0.791853
H9_2 H 0.846435 0.259776 0.701879
H10_2 H 0.848805 0.219068 0.916784
H11_2 H 0.888181 0.152574 0.811161
H12_2 H 0.909817 0.154835 0.541481
H13_2 H 0.786805 0.0661743 0.936718
H15_2 H 0.820232 0.0735577 0.631454
H16_2 H 0.817861 0.114266 0.416549
O2_2 O 0.99411(19) 0.21717(29) 0.7798(10)
O11_2 O 0.94943(22) 0.33595(38) 0.7312(9)
H3_2 H 0.961682 0.183735 0.840854
Ni7_2 Ni 0.69654(5) 0.97294(9) 0.28079(22)
O9_2 O 0.61149(32) 0.99061(39) 0.6171(9)
O13_2 O 0.71724(22) 0.99738(38) 0.6021(9)
Ni8_2 Ni 0.60973(7) 0.97013(9) 0.94746(22)
Ni7_3 Ni 0.02706(9) 0.72360(7) 0.28079(22)
O9_3 O 0.00939(39) 0.62089(23) 0.6171(9)
O13_3 O 0.00262(38) 0.71986(31) 0.6021(9)
Ni8_3 Ni 0.02987(9) 0.63961(5) 0.94746(22)
Ni2_3 Ni 0.94307(7) 0.63679(5) 0.61412(22)
P2_3 P 0.90974(16) 0.62735(11) 0.0958(5)
O5_3 O 0.85671(30) 0.57400(21) 0.1502(10)
O6_3 O 0.88384(29) 0.55639(22) 0.5535(10)
O7_3 O 0.94483(32) 0.65727(22) 0.2837(9)
N4_3 N 0.88033(40) 0.65824(28) 0.7103(12)
O14_3 O 0.94681(31) 0.61609(22) 0.9354(9)
H14_3 H 0.8628 0.683337 0.0133382
P1_3 P 0.75693(16) 0.70598(11) 0.2375(5)
O1_3 O 0.80996(30) 0.75933(21) 0.1831(10)
O3_3 O 0.72184(32) 0.67606(22) 0.0496(9)
N1_3 N 0.78634(40) 0.67509(28) 0.6230(12)
C1_3 C 0.8417(6) 0.7219(4) 0.6450(14)
O4_3 O 0.71986(31) 0.71724(22) 0.3979(9)
C2_3 C 0.77987(52) 0.62257(34) 0.7449(12)
C3_3 C 0.7703(6) 0.6533(4) 0.3949(13)
Ni3_3 Ni 0.63961(9) 0.60973(7) 0.05254(22)
Ni4_3 Ni 0.72360(7) 0.69654(5) 0.71921(22)
Ni5_3 Ni 0.63679(9) 0.69373(5) 0.38588(22)
C4_3 C 0.8250(6) 0.6114(4) 0.6883(14)
C5_3 C 0.88680(52) 0.71076(34) 0.5884(12)
C6_3 C 0.8964(6) 0.6800(4) 0.9384(13)
H5_3 H 0.803867 0.649996 0.319995
H6_3 H 0.732841 0.612703 0.396615
H7_3 H 0.81924 0.597726 0.522172
H8_3 H 0.821502 0.578352 0.791853
H9_3 H 0.740224 0.58666 0.701879
H10_3 H 0.780932 0.629738 0.916784
H11_3 H 0.847426 0.735607 0.811161
H12_3 H 0.845165 0.754982 0.541481
H13_3 H 0.933826 0.72063 0.936718
H15_3 H 0.926442 0.746674 0.631454
H16_3 H 0.885734 0.703596 0.416549
O2_3 O 0.78283(29) 0.77694(22) 0.7798(10)
O8_3 O 0.65727(39) 0.71245(23) 0.7163(9)
O11_3 O 0.66405(38) 0.61347(31) 0.7312(9)
H1 H 0.793417 0.025294 0.116328
H2 H 0.798507 0.00563695 0.355697
O6_4 O 0.77694(22) 0.99411(19) 0.2202(10)
N4_4 N 0.67509(28) 0.88875(29) 0.3770(12)
O13_4 O 0.61347(31) 0.94943(22) 0.2688(9)
N1_4 N 0.65824(28) 0.77792(29) 0.2897(12)
C1_4 C 0.6114(4) 0.7865(4) 0.3117(14)
O4_4 O 0.61609(22) 0.66929(22) 0.0646(9)
C2_4 C 0.71076(34) 0.8240(4) 0.4116(12)
C3_4 C 0.6800(4) 0.7837(4) 0.0616(13)
P2_4 P 0.70598(11) 0.94905(12) 0.7625(5)
O5_4 O 0.75933(21) 0.94937(22) 0.8169(10)
O7_4 O 0.67606(22) 0.95422(23) 0.9504(9)
C4_4 C 0.7219(4) 0.8802(4) 0.3550(14)
C5_4 C 0.62257(34) 0.8427(4) 0.2551(12)
C6_4 C 0.6533(4) 0.8830(4) 0.6051(13)
H6_4 H 0.72063 0.786805 0.0632819
H7_4 H 0.735607 0.888181 0.188839
H8_4 H 0.754982 0.909817 0.458519
H9_4 H 0.746674 0.820232 0.368546
H10_4 H 0.703596 0.817861 0.583451
H11_4 H 0.597726 0.778486 0.477828
H12_4 H 0.578352 0.75685 0.208147
H13_4 H 0.612703 0.879862 0.603385
H14_4 H 0.649996 0.846129 0.680005
H15_4 H 0.58666 0.846435 0.298121
H16_4 H 0.629738 0.848805 0.0832161
P1_4 P 0.62735(11) 0.71762(12) 0.9042(5)
O1_4 O 0.57400(21) 0.71730(22) 0.8498(10)
O2_4 O 0.55639(22) 0.67256(19) 0.4465(10)
O8_4 O 0.62089(23) 0.61149(32) 0.3829(9)
H5_4 H 0.683337 0.820537 0.986662
O8_5 O 0.38851(32) 0.00939(39) 0.3829(9)
O6_5 O 0.00589(19) 0.78283(29) 0.2202(10)
N4_5 N 0.11125(29) 0.78634(40) 0.3770(12)
O13_5 O 0.05057(22) 0.66405(38) 0.2688(9)
N1_5 N 0.22208(29) 0.88033(40) 0.2897(12)
C1_5 C 0.2135(4) 0.8250(6) 0.3117(14)
O4_5 O 0.33071(22) 0.94681(31) 0.0646(9)
C2_5 C 0.1760(4) 0.88680(52) 0.4116(12)
C3_5 C 0.2163(4) 0.8964(6) 0.0616(13)
P2_5 P 0.05095(12) 0.75693(16) 0.7625(5)
O5_5 O 0.05063(22) 0.80996(30) 0.8169(10)
O7_5 O 0.04578(23) 0.72184(32) 0.9504(9)
C4_5 C 0.1198(4) 0.8417(6) 0.3550(14)
C5_5 C 0.1573(4) 0.77987(52) 0.2551(12)
C6_5 C 0.1170(4) 0.7703(6) 0.6051(13)
H6_5 H 0.213195 0.933826 0.0632819
H7_5 H 0.111819 0.847426 0.188839
H8_5 H 0.0901833 0.845165 0.458519
H9_5 H 0.179768 0.926442 0.368546
H10_5 H 0.182139 0.885734 0.583451
H11_5 H 0.221514 0.81924 0.477828
H12_5 H 0.24315 0.821502 0.208147
H13_5 H 0.120138 0.732841 0.603385
H14_5 H 0.153871 0.803867 0.680005
H15_5 H 0.153565 0.740224 0.298121
H16_5 H 0.151195 0.780932 0.0832161
P1_5 P 0.28238(12) 0.90974(16) 0.9042(5)
O1_5 O 0.28270(22) 0.85671(30) 0.8498(10)
O2_5 O 0.32744(19) 0.88384(29) 0.4465(10)
H5_5 H 0.179463 0.8628 0.986662
H1_2 H 0.974706 0.768123 0.116328
H2_2 H 0.994363 0.79287 0.355697
O6_6 O 0.21717(29) 0.22306(22) 0.2202(10)
N4_6 N 0.21366(40) 0.32491(28) 0.3770(12)
O13_6 O 0.33595(38) 0.38653(31) 0.2688(9)
N1_6 N 0.11967(40) 0.34176(28) 0.2897(12)
C1_6 C 0.1750(6) 0.3886(4) 0.3117(14)
O4_6 O 0.05319(31) 0.38391(22) 0.0646(9)
C2_6 C 0.11320(52) 0.28924(34) 0.4116(12)
C3_6 C 0.1036(6) 0.3200(4) 0.0616(13)
P2_6 P 0.24307(16) 0.29402(11) 0.7625(5)
O5_6 O 0.19004(30) 0.24067(21) 0.8169(10)
O7_6 O 0.27816(32) 0.32394(22) 0.9504(9)
C4_6 C 0.1583(6) 0.2781(4) 0.3550(14)
C5_6 C 0.22013(52) 0.37743(34) 0.2551(12)
C6_6 C 0.2297(6) 0.3467(4) 0.6051(13)
H6_6 H 0.0661743 0.27937 0.0632819
H7_6 H 0.152574 0.264393 0.188839
H8_6 H 0.154835 0.245018 0.458519
H9_6 H 0.0735577 0.253326 0.368546
H10_6 H 0.114266 0.296404 0.583451
H11_6 H 0.18076 0.402274 0.477828
H12_6 H 0.178498 0.421648 0.208147
H13_6 H 0.267159 0.387297 0.603385
H14_6 H 0.196133 0.350004 0.680005
H15_6 H 0.259776 0.41334 0.298121
H16_6 H 0.219068 0.370262 0.0832161
P1_6 P 0.09026(16) 0.37265(11) 0.9042(5)
O1_6 O 0.14329(30) 0.42600(21) 0.8498(10)
O2_6 O 0.11616(29) 0.44361(22) 0.4465(10)
H5_6 H 0.1372 0.316663 0.986662
O8_6 O 0.99061(39) 0.37911(23) 0.3829(9)
N4_7 N 0.00842(28) 0.55542(29) 0.0437(12)
H2_3 H 0.13184 0.672304 0.0223638
C2_7 C 0.04410(34) 0.4906(4) 0.0782(12)
P2_7 P 0.03931(11) 0.61572(12) 0.4292(5)
O5_7 O 0.09266(21) 0.61604(22) 0.4836(10)
O6_7 O 0.11027(22) 0.66078(19) 0.8869(10)
C4_7 C 0.0552(4) 0.5469(4) 0.0217(14)
H1_3 H 0.126751 0.691961 0.782994
H8_7 H 0.0883151 0.576483 0.125186
H9_7 H 0.0800071 0.486898 0.0352123
H10_7 H 0.036929 0.484528 0.250117
C3_7 C 0.0134(4) 0.4503(4) 0.7282(13)
H5_7 H 0.0166704 0.487204 0.653328
H6_7 H 0.0539638 0.453471 0.729949
H7_7 H 0.0689404 0.554847 0.855506
C6_7 C 0.9866(4) 0.5497(4) 0.2718(13)
H11_7 H 0.93106 0.445153 0.144494
H13_7 H 0.946036 0.546529 0.270051
H14_7 H 0.98333 0.512796 0.346672
P1_7 P 0.96069(11) 0.38428(12) 0.5708(5)
O1_7 O 0.90734(21) 0.38396(22) 0.5164(10)
O2_7 O 0.88973(22) 0.33922(19) 0.1131(10)
N1_7 N 0.99158(28) 0.44458(29) 0.9563(12)
C1_7 C 0.9448(4) 0.4531(4) 0.9783(14)
C5_7 C 0.95590(34) 0.5094(4) 0.9218(12)
H3_3 H 0.88872 0.371652 0.174187
H12_7 H 0.911685 0.423517 0.874814
H15_7 H 0.919993 0.513102 0.964788
H16_7 H 0.963071 0.515472 0.749883
H4_3 H 0.86816 0.327696 0.977636
N4_8 N 0.44458(29) 0.45301(40) 0.0437(12)
H2_4 H 0.327696 0.459537 0.0223638
C2_8 C 0.5094(4) 0.55346(52) 0.0782(12)
P2_8 P 0.38428(12) 0.42360(16) 0.4292(5)
O5_8 O 0.38396(22) 0.47663(30) 0.4836(10)
O6_8 O 0.33922(19) 0.44950(29) 0.8869(10)
C4_8 C 0.4531(4) 0.5084(6) 0.0217(14)
C6_8 C 0.4503(4) 0.4370(6) 0.2718(13)
H1_4 H 0.308039 0.43479 0.782994
H8_8 H 0.423517 0.511832 0.125186
H9_8 H 0.513102 0.593109 0.0352123
H10_8 H 0.515472 0.552401 0.250117
H11_8 H 0.554847 0.485907 0.144494
H13_8 H 0.453471 0.399508 0.270051
H14_8 H 0.487204 0.470534 0.346672
P1_8 P 0.61572(12) 0.57640(16) 0.5708(5)
O1_8 O 0.61604(22) 0.52337(30) 0.5164(10)
O2_8 O 0.66078(19) 0.55050(29) 0.1131(10)
N1_8 N 0.55542(29) 0.54699(40) 0.9563(12)
C1_8 C 0.5469(4) 0.4916(6) 0.9783(14)
C3_8 C 0.5497(4) 0.5630(6) 0.7282(13)
C5_8 C 0.4906(4) 0.44654(52) 0.9218(12)
H3_4 H 0.628348 0.517068 0.174187
H5_8 H 0.512796 0.529466 0.653328
H6_8 H 0.546529 0.600492 0.729949
H7_8 H 0.445153 0.514093 0.855506
H12_8 H 0.576483 0.488168 0.874814
H15_8 H 0.486898 0.406891 0.964788
H16_8 H 0.484528 0.447599 0.749883
H4_4 H 0.672304 0.540463 0.977636
C6_9 C 0.5630(6) 0.0134(4) 0.2718(13)
H11_9 H 0.514093 0.0689404 0.144494
H13_9 H 0.600492 0.0539638 0.270051
H14_9 H 0.529466 0.0166704 0.346672
P1_9 P 0.42360(16) 0.03931(11) 0.5708(5)
O1_9 O 0.47663(30) 0.09266(21) 0.5164(10)
O2_9 O 0.44950(29) 0.11027(22) 0.1131(10)
N1_9 N 0.45301(40) 0.00842(28) 0.9563(12)
C1_9 C 0.5084(6) 0.0552(4) 0.9783(14)
C5_9 C 0.55346(52) 0.04410(34) 0.9218(12)
H3_5 H 0.482932 0.11128 0.174187
H12_9 H 0.511832 0.0883151 0.874814
H15_9 H 0.593109 0.0800071 0.964788
H16_9 H 0.552401 0.036929 0.749883
H4_5 H 0.459537 0.13184 0.977636
N4_9 N 0.54699(40) 0.99158(28) 0.0437(12)
H2_5 H 0.540463 0.86816 0.0223638
C2_9 C 0.44654(52) 0.95590(34) 0.0782(12)
P2_9 P 0.57640(16) 0.96069(11) 0.4292(5)
O5_9 O 0.52337(30) 0.90734(21) 0.4836(10)
O6_9 O 0.55050(29) 0.88973(22) 0.8869(10)
C4_9 C 0.4916(6) 0.9448(4) 0.0217(14)
H1_5 H 0.56521 0.873249 0.782994
H8_9 H 0.488168 0.911685 0.125186
H9_9 H 0.406891 0.919993 0.0352123
H10_9 H 0.447599 0.963071 0.250117
C3_9 C 0.4370(6) 0.9866(4) 0.7282(13)
H5_9 H 0.470534 0.98333 0.653328
H6_9 H 0.399508 0.946036 0.729949
H7_9 H 0.485907 0.93106 0.855506
H3_6 H 0.777947 0.961682 0.159146
H3_7 H 0.0383185 0.816265 0.159146
H1_6 H 0.206583 0.974706 0.883672
H1_7 H 0.025294 0.231877 0.883672
H3_8 H 0.11128 0.628348 0.825813
H1_8 H 0.873249 0.308039 0.217006
H3_9 H 0.371652 0.482932 0.825813
H1_9 H 0.691961 0.56521 0.217006
H1_10 H 0.43479 0.126751 0.217006
H3_10 H 0.517068 0.88872 0.825813
loop_
_geom_bond_atom_site_label_1
_geom_bond_atom_site_label_2
_geom_bond_site_symmetry_1
_geom_bond_site_symmetry_2
Ni2 O6 1_555 1_555
Ni7 O7 1_555 1_555
P2 O5 1_555 1_555
O7 Ni2 1_555 1_555
O9 Ni2 1_555 1_555
N4 Ni2 1_555 1_555
O13 Ni2 1_555 1_555
O14 Ni2 1_555 1_555
Ni7 O13 1_555 1_555
P2 O7 1_555 1_555
P1 O1 1_555 1_555
N1 C1 1_555 1_555
C1 C5 1_555 1_555
O4 P1 1_555 1_555
C2 N1 1_555 1_555
C3 P1 1_555 1_555
Ni3 O3 1_555 1_555
Ni4 N1 1_555 1_555
Ni8 O14 1_555 1_555
N4 C4 1_555 1_555
C4 C2 1_555 1_555
C5 N4 1_555 1_555
P1 O3 1_555 1_555
N1 C3 1_555 1_555
O4 Ni4 1_555 1_555
N4 C6 1_555 1_555
C3 H5 1_555 1_555
C3 H6 1_555 1_555
C4 H7 1_555 1_555
C4 H8 1_555 1_555
C2 H9 1_555 1_555
C2 H10 1_555 1_555
C1 H11 1_555 1_555
C1 H12 1_555 1_555
C6 H13 1_555 1_555
C5 H15 1_555 1_555
C5 H16 1_555 1_555
Ni4 O2 1_555 1_555
O11 Ni4 1_555 1_555
O2 H3 1_555 1_555
Ni2_2 O6_2 1_555 1_555
P2_2 O5_2 1_555 1_555
O7_2 Ni2_2 1_555 1_555
N4_2 Ni2_2 1_555 1_555
O14_2 Ni2_2 1_555 1_555
P2_2 O7_2 1_555 1_555
P1_2 O1_2 1_555 1_555
N1_2 C1_2 1_555 1_555
C1_2 C5_2 1_555 1_555
O4_2 P1_2 1_555 1_555
C2_2 N1_2 1_555 1_555
C3_2 P1_2 1_555 1_555
Ni3_2 O3_2 1_555 1_555
Ni4_2 N1_2 1_555 1_555
N4_2 C4_2 1_555 1_555
C4_2 C2_2 1_555 1_555
C5_2 N4_2 1_555 1_555
P1_2 O3_2 1_555 1_555
N1_2 C3_2 1_555 1_555
O4_2 Ni4_2 1_555 1_555
N4_2 C6_2 1_555 1_555
C3_2 H5_2 1_555 1_555
C3_2 H6_2 1_555 1_555
C4_2 H7_2 1_555 1_555
C4_2 H8_2 1_555 1_555
C2_2 H9_2 1_555 1_555
C2_2 H10_2 1_555 1_555
C1_2 H11_2 1_555 1_555
C1_2 H12_2 1_555 1_555
C6_2 H13_2 1_555 1_555
C5_2 H15_2 1_555 1_555
C5_2 H16_2 1_555 1_555
Ni4_2 O2_2 1_555 1_555
O11_2 Ni4_2 1_555 1_555
O2_2 H3_2 1_555 1_555
Ni7_2 O13_2 1_555 1_555
Ni7_3 O13_3 1_555 1_555
Ni2_3 O6_3 1_555 1_555
P2_3 O5_3 1_555 1_555
O7_3 Ni2_3 1_555 1_555
N4_3 Ni2_3 1_555 1_555
O14_3 Ni2_3 1_555 1_555
P2_3 O7_3 1_555 1_555
P1_3 O1_3 1_555 1_555
N1_3 C1_3 1_555 1_555
C1_3 C5_3 1_555 1_555
O4_3 P1_3 1_555 1_555
C2_3 N1_3 1_555 1_555
C3_3 P1_3 1_555 1_555
Ni3_3 O3_3 1_555 1_555
Ni4_3 N1_3 1_555 1_555
Ni5_3 O4_3 1_555 1_555
N4_3 C4_3 1_555 1_555
C4_3 C2_3 1_555 1_555
C5_3 N4_3 1_555 1_555
P1_3 O3_3 1_555 1_555
N1_3 C3_3 1_555 1_555
O4_3 Ni4_3 1_555 1_555
N4_3 C6_3 1_555 1_555
C3_3 H5_3 1_555 1_555
C3_3 H6_3 1_555 1_555
C4_3 H7_3 1_555 1_555
C4_3 H8_3 1_555 1_555
C2_3 H9_3 1_555 1_555
C2_3 H10_3 1_555 1_555
C1_3 H11_3 1_555 1_555
C1_3 H12_3 1_555 1_555
C6_3 H13_3 1_555 1_555
C5_3 H15_3 1_555 1_555
C5_3 H16_3 1_555 1_555
Ni4_3 O2_3 1_555 1_555
O8_3 Ni4_3 1_555 1_555
O11_3 Ni4_3 1_555 1_555
Ni7_2 O6_4 1_555 1_555
N4_4 Ni7_2 1_555 1_555
O13_4 Ni7_2 1_555 1_555
N1_4 C1_4 1_555 1_555
C1_4 C5_4 1_555 1_555
C2_4 N1_4 1_555 1_555
Ni5_3 N1_4 1_555 1_555
Ni3_3 O4_4 1_555 1_555
Ni8_2 O7_4 1_555 1_555
P2_4 O5_4 1_555 1_555
N4_4 C4_4 1_555 1_555
C4_4 C2_4 1_555 1_555
C5_4 N4_4 1_555 1_555
C6_4 P2_4 1_555 1_555
N1_4 C3_4 1_555 1_555
O4_4 Ni5_3 1_555 1_555
P2_4 O7_4 1_555 1_555
P2_4 O13_2 1_555 1_555
N4_4 C6_4 1_555 1_555
C3_4 H6_4 1_555 1_555
C4_4 H7_4 1_555 1_555
C4_4 H8_4 1_555 1_555
C2_4 H9_4 1_555 1_555
C2_4 H10_4 1_555 1_555
C1_4 H11_4 1_555 1_555
C1_4 H12_4 1_555 1_555
C6_4 H13_4 1_555 1_555
C6_4 H14_4 1_555 1_555
C5_4 H15_4 1_555 1_555
C5_4 H16_4 1_555 1_555
Ni5_3 O2_4 1_555 1_555
P1_4 O1_4 1_555 1_555
O8_3 Ni5_3 1_555 1_555
O8_4 Ni5_3 1_555 1_555
P1_4 O8_3 1_555 1_555
Ni7_3 O6_5 1_555 1_555
N4_5 Ni7_3 1_555 1_555
O13_5 Ni7_3 1_555 1_555
N1_5 C1_5 1_555 1_555
C1_5 C5_5 1_555 1_555
C2_5 N1_5 1_555 1_555
Ni5 N1_5 1_555 1_555
Ni8_3 O7_5 1_555 1_555
P2_5 O5_5 1_555 1_555
N4_5 C4_5 1_555 1_555
C4_5 C2_5 1_555 1_555
C5_5 N4_5 1_555 1_555
C6_5 P2_5 1_555 1_555
N1_5 C3_5 1_555 1_555
O4_5 Ni5 1_555 1_555
P2_5 O7_5 1_555 1_555
P2_5 O13_3 1_555 1_555
N4_5 C6_5 1_555 1_555
C3_5 H6_5 1_555 1_555
C4_5 H7_5 1_555 1_555
C4_5 H8_5 1_555 1_555
C2_5 H9_5 1_555 1_555
C2_5 H10_5 1_555 1_555
C1_5 H11_5 1_555 1_555
C1_5 H12_5 1_555 1_555
C6_5 H13_5 1_555 1_555
C6_5 H14_5 1_555 1_555
C5_5 H15_5 1_555 1_555
C5_5 H16_5 1_555 1_555
Ni5 O2_5 1_555 1_555
P1_5 O1_5 1_555 1_555
O8 Ni5 1_555 1_555
P1_5 O8 1_555 1_555
Ni7 O6_6 1_555 1_555
N4_6 Ni7 1_555 1_555
O13_6 Ni7 1_555 1_555
N1_6 C1_6 1_555 1_555
C1_6 C5_6 1_555 1_555
C2_6 N1_6 1_555 1_555
Ni5_2 N1_6 1_555 1_555
Ni8 O7_6 1_555 1_555
P2_6 O5_6 1_555 1_555
N4_6 C4_6 1_555 1_555
C4_6 C2_6 1_555 1_555
C5_6 N4_6 1_555 1_555
C6_6 P2_6 1_555 1_555
N1_6 C3_6 1_555 1_555
O4_6 Ni5_2 1_555 1_555
P2_6 O7_6 1_555 1_555
P2_6 O13 1_555 1_555
N4_6 C6_6 1_555 1_555
C3_6 H6_6 1_555 1_555
C4_6 H7_6 1_555 1_555
C4_6 H8_6 1_555 1_555
C2_6 H9_6 1_555 1_555
C2_6 H10_6 1_555 1_555
C1_6 H11_6 1_555 1_555
C1_6 H12_6 1_555 1_555
C6_6 H13_6 1_555 1_555
C6_6 H14_6 1_555 1_555
C5_6 H15_6 1_555 1_555
C5_6 H16_6 1_555 1_555
Ni5_2 O2_6 1_555 1_555
P1_6 O1_6 1_555 1_555
O8_2 Ni5_2 1_555 1_555
P1_6 O8_2 1_555 1_555
Ni8_3 O6_7 1_555 1_555
P2_7 O5_7 1_555 1_555
O9_3 Ni8_3 1_555 1_555
N4_7 C4_7 1_555 1_555
C4_7 C2_7 1_555 1_555
P2_7 O9_3 1_555 1_555
P2_7 O13_5 1_555 1_555
O6_7 H1_3 1_555 1_555
C4_7 H8_7 1_555 1_555
C2_7 H9_7 1_555 1_555
C2_7 H10_7 1_555 1_555
C3_7 H5_7 1_555 1_555
C3_7 H6_7 1_555 1_555
C6_7 H13_7 1_555 1_555
C6_7 H14_7 1_555 1_555
Ni3_2 O2_7 1_555 1_555
P1_7 O1_7 1_555 1_555
O8_6 Ni3_2 1_555 1_555
N1_7 C1_7 1_555 1_555
C1_7 C5_7 1_555 1_555
O11_2 P1_7 1_555 1_555
P1_7 O8_6 1_555 1_555
O2_7 H3_3 1_555 1_555
C1_7 H12_7 1_555 1_555
C5_7 H15_7 1_555 1_555
C5_7 H16_7 1_555 1_555
Ni8 O6_8 1_555 1_555
P2_8 O5_8 1_555 1_555
O9 Ni8 1_555 1_555
N4_8 C4_8 1_555 1_555
C4_8 C2_8 1_555 1_555
C6_8 P2_8 1_555 1_555
P2_8 O9 1_555 1_555
P2_8 O13_6 1_555 1_555
N4_8 C6_8 1_555 1_555
O6_8 H1_4 1_555 1_555
C4_8 H8_8 1_555 1_555
C2_8 H9_8 1_555 1_555
C2_8 H10_8 1_555 1_555
C6_8 H13_8 1_555 1_555
C6_8 H14_8 1_555 1_555
Ni3_3 O2_8 1_555 1_555
P1_8 O1_8 1_555 1_555
O8_4 Ni3_3 1_555 1_555
N1_8 C1_8 1_555 1_555
C1_8 C5_8 1_555 1_555
O11_3 P1_8 1_555 1_555
C3_8 P1_8 1_555 1_555
P1_8 O8_4 1_555 1_555
N1_8 C3_8 1_555 1_555
O2_8 H3_4 1_555 1_555
C3_8 H5_8 1_555 1_555
C3_8 H6_8 1_555 1_555
C1_8 H12_8 1_555 1_555
C5_8 H15_8 1_555 1_555
C5_8 H16_8 1_555 1_555
C6_9 H13_9 1_555 1_555
C6_9 H14_9 1_555 1_555
Ni3 O2_9 1_555 1_555
P1_9 O1_9 1_555 1_555
O8_5 Ni3 1_555 1_555
N1_9 C1_9 1_555 1_555
C1_9 C5_9 1_555 1_555
O11 P1_9 1_555 1_555
P1_9 O8_5 1_555 1_555
O2_9 H3_5 1_555 1_555
C1_9 H12_9 1_555 1_555
C5_9 H15_9 1_555 1_555
C5_9 H16_9 1_555 1_555
Ni8_2 O6_9 1_555 1_555
P2_9 O5_9 1_555 1_555
O9_2 Ni8_2 1_555 1_555
N4_9 C4_9 1_555 1_555
C4_9 C2_9 1_555 1_555
P2_9 O9_2 1_555 1_555
P2_9 O13_4 1_555 1_555
O6_9 H1_5 1_555 1_555
C4_9 H8_9 1_555 1_555
C2_9 H9_9 1_555 1_555
C2_9 H10_9 1_555 1_555
C3_9 H5_9 1_555 1_555
C3_9 H6_9 1_555 1_555
O6_4 H3_6 1_555 1_555
O6_5 H3_7 1_555 1_555
O6_7 H3_8 1_555 1_555
O2_7 H1_8 1_555 1_555
O6_8 H3_9 1_555 1_555
O2_8 H1_9 1_555 1_555
O2_9 H1_10 1_555 1_555
O6_9 H3_10 1_555 1_555

#END
