
###############################################################################
#
# This file contains modified crystal structure data generated from the
# MOF subset of the Cambridge Structural Database (CSD) v543 
# hosted by the Cambridge Crystallographic Data Centre (CCDC).
#
# This work is licensed under the Creative Commons
# Attribution-NonCommercial-ShareAlike 4.0 International License.
# To view a copy of this license, visit
# http://creativecommons.org/licenses/by-nc-sa/4.0/
# or send a letter to
# Creative Commons, PO Box 1866, Mountain View, CA 94042, USA.
#
# CIF created using the CSD Python API on 29 September 2022
# The structure has been converted into the P1 space group
# The structure has a 3D framework
# The original CSD entry QOVGAK is in the tetragonal crystal system
# The framework has been calculated to contain at least 10.0% void space
# The void calculation uses a probe of radius 1.32A, grid spacing 0.4
#
###############################################################################

data_QOVGAK
_chemical_formula_moiety         '(C96 Ag24 F144 N82)n'
_symmetry_cell_setting           triclinic
_symmetry_space_group_name_H-M   'P 1'
_symmetry_Int_Tables_number      1
_space_group_name_Hall           'P 1'
loop_
_symmetry_equiv_pos_site_id
_symmetry_equiv_pos_as_xyz
1 x,y,z
_cell_length_a                   13.0539(5)
_cell_length_b                   13.0539(5)
_cell_length_c                   40.304(3)
_cell_angle_alpha                90
_cell_angle_beta                 90
_cell_angle_gamma                90
_cell_volume                     6867.98
loop_
_atom_site_label
_atom_site_type_symbol
_atom_site_fract_x
_atom_site_fract_y
_atom_site_fract_z
Ag1 Ag 0.0000 0.5000 0.100722(17)
N1 N 0.0000 0.5000 0.15562(18)
N3 N 0.0089(6) 0.6325(5) 0.06352(13)
N5 N 0.0626(5) 0.7598(5) 0.03101(15)
C4 C 0.0860(7) 0.6945(7) 0.0548(2)
C5 C 0.1912(8) 0.6958(8) 0.0706(3)
F4 F 0.2131(6) 0.7862(5) 0.0822(2)
F5 F 0.2628(5) 0.6791(8) 0.04905(18)
F6 F 0.1991(5) 0.6285(5) 0.09359(17)
Ag3 Ag 0.14323(5) 0.61820(5) 0.244901(14)
Ag6 Ag 0.14323(5) 0.88180(5) 0.005099(14)
Ag7 Ag 0.11820(5) 0.35677(5) 0.255099(14)
N6 N 0.0485(5) 0.4820(5) 0.20835(15)
N8 N 0.0180(5) 0.5485(5) 0.29165(15)
N10 N 0.0356(5) 0.2599(5) 0.02270(16)
N12 N 0.2599(5) 0.5356(5) 0.27270(16)
N15 N 0.0626(5) 0.7402(5) 0.21899(15)
C7 C 0.0730(7) 0.4715(6) 0.17640(19)
C8 C 0.1732(7) 0.4286(7) 0.1658(2)
C9 C 0.0637(6) 0.3348(6) 0.04272(19)
C12 C 0.1690(8) 0.3813(8) 0.0412(3)
F10 F 0.1626(5) 0.3332(5) 0.1538(2)
F11 F 0.2152(4) 0.4819(5) 0.14143(13)
F12 F 0.2401(5) 0.4204(7) 0.19001(15)
F16 F 0.2051(5) 0.4011(7) 0.07144(16)
F17 F 0.1656(6) 0.4728(5) 0.0260(2)
F18 F 0.2344(5) 0.3252(5) 0.02528(19)
Ag8 Ag 0.11820(5) 0.14323(5) 0.994901(14)
Ag1_2 Ag 1.0000 0.5000 0.100722(17)
Ag2 Ag 0.85677(5) 0.38180(5) 0.244901(14)
N1_2 N 1.0000 0.5000 0.15562(18)
N2 N 0.9515(5) 0.5180(5) 0.20835(15)
N4 N 0.9644(5) 0.7401(5) 0.02270(16)
C1 C 0.9270(7) 0.5285(6) 0.17640(19)
C2 C 0.8268(7) 0.5714(7) 0.1658(2)
C3 C 0.9363(6) 0.6652(6) 0.04272(19)
C6 C 0.8310(8) 0.6187(8) 0.0412(3)
F1 F 0.8374(5) 0.6668(5) 0.1538(2)
F2 F 0.7848(4) 0.5181(5) 0.14143(13)
F3 F 0.7599(5) 0.5796(7) 0.19001(15)
F7 F 0.7949(5) 0.5989(7) 0.07144(16)
F8 F 0.8344(6) 0.5272(5) 0.0260(2)
F9 F 0.7656(5) 0.6748(5) 0.02528(19)
Ag4 Ag 0.88180(5) 0.64323(5) 0.255099(14)
Ag9 Ag 0.85677(5) 0.11820(5) 0.005099(14)
N7 N 0.9820(5) 0.4515(5) 0.29165(15)
N9 N 0.9911(6) 0.3675(5) 0.06352(13)
N11 N 0.7401(5) 0.4644(5) 0.27270(16)
N13 N 0.9374(5) 0.2402(5) 0.03101(15)
N14 N 0.9374(5) 0.2598(5) 0.21899(15)
C10 C 0.9140(7) 0.3055(7) 0.0548(2)
C11 C 0.8088(8) 0.3042(8) 0.0706(3)
F13 F 0.7869(6) 0.2138(5) 0.0822(2)
F14 F 0.7372(5) 0.3209(8) 0.04905(18)
F15 F 0.8009(5) 0.3715(5) 0.09359(17)
Ag5 Ag 0.88180(5) 0.85677(5) 0.994901(14)
Ag1_3 Ag 0.5000 0.0000 0.899278(17)
Ag2_2 Ag 0.38180(5) 0.14323(5) 0.755099(14)
N1_3 N 0.5000 0.0000 0.84438(18)
N2_2 N 0.5180(5) 0.0485(5) 0.79165(15)
N4_2 N 0.7401(5) 0.0356(5) 0.97730(16)
C1_2 C 0.5285(6) 0.0730(7) 0.82360(19)
C2_2 C 0.5714(7) 0.1732(7) 0.8342(2)
C3_2 C 0.6652(6) 0.0637(6) 0.95728(19)
C6_2 C 0.6187(8) 0.1690(8) 0.9588(3)
F1_2 F 0.6668(5) 0.1626(5) 0.8462(2)
F2_2 F 0.5181(5) 0.2152(4) 0.85857(13)
F3_2 F 0.5796(7) 0.2401(5) 0.80999(15)
F7_2 F 0.5989(7) 0.2051(5) 0.92856(16)
F8_2 F 0.5272(5) 0.1656(6) 0.9740(2)
F9_2 F 0.6748(5) 0.2344(5) 0.97472(19)
Ag4_2 Ag 0.64323(5) 0.11820(5) 0.744901(14)
N7_2 N 0.4515(5) 0.0180(5) 0.70835(15)
N9_2 N 0.3675(5) 0.0089(6) 0.93648(13)
N11_2 N 0.4644(5) 0.2599(5) 0.72730(16)
N13_2 N 0.2402(5) 0.0626(5) 0.96899(15)
N14_2 N 0.2598(5) 0.0626(5) 0.78101(15)
C10_2 C 0.3055(7) 0.0860(7) 0.9452(2)
C11_2 C 0.3042(8) 0.1912(8) 0.9294(3)
F13_2 F 0.2138(5) 0.2131(6) 0.9178(2)
F14_2 F 0.3209(8) 0.2628(5) 0.95095(18)
F15_2 F 0.3715(5) 0.1991(5) 0.90641(17)
Ag1_4 Ag 0.5000 1.0000 0.899278(17)
N1_4 N 0.5000 1.0000 0.84438(18)
N3_2 N 0.6325(5) 0.9911(6) 0.93648(13)
N5_2 N 0.7598(5) 0.9374(5) 0.96899(15)
C4_2 C 0.6945(7) 0.9140(7) 0.9452(2)
C5_2 C 0.6958(8) 0.8088(8) 0.9294(3)
F4_2 F 0.7862(5) 0.7869(6) 0.9178(2)
F5_2 F 0.6791(8) 0.7372(5) 0.95095(18)
F6_2 F 0.6285(5) 0.8009(5) 0.90641(17)
Ag3_2 Ag 0.61820(5) 0.85677(5) 0.755099(14)
Ag7_2 Ag 0.35677(5) 0.88180(5) 0.744901(14)
N6_2 N 0.4820(5) 0.9515(5) 0.79165(15)
N8_2 N 0.5485(5) 0.9820(5) 0.70835(15)
N10_2 N 0.2599(5) 0.9644(5) 0.97730(16)
N12_2 N 0.5356(5) 0.7401(5) 0.72730(16)
N15_2 N 0.7402(5) 0.9374(5) 0.78101(15)
C7_2 C 0.4715(6) 0.9270(7) 0.82360(19)
C8_2 C 0.4286(7) 0.8268(7) 0.8342(2)
C9_2 C 0.3348(6) 0.9363(6) 0.95728(19)
C12_2 C 0.3813(8) 0.8310(8) 0.9588(3)
F10_2 F 0.3332(5) 0.8374(5) 0.8462(2)
F11_2 F 0.4819(5) 0.7848(4) 0.85857(13)
F12_2 F 0.4204(7) 0.7599(5) 0.80999(15)
F16_2 F 0.4011(7) 0.7949(5) 0.92856(16)
F17_2 F 0.4728(5) 0.8344(6) 0.9740(2)
F18_2 F 0.3252(5) 0.7656(5) 0.97472(19)
Ag1_5 Ag 0.5000 0.5000 0.649278(17)
Ag2_3 Ag 0.64323(5) 0.38180(5) 0.505099(14)
N1_5 N 0.5000 0.5000 0.59438(18)
N2_3 N 0.5485(5) 0.5180(5) 0.54165(15)
N3_3 N 0.4911(6) 0.6325(5) 0.68648(13)
N5_3 N 0.4374(5) 0.7598(5) 0.71899(15)
C1_3 C 0.5730(7) 0.5285(6) 0.57360(19)
C2_3 C 0.6732(7) 0.5714(7) 0.5842(2)
C3_3 C 0.5637(6) 0.6652(6) 0.70728(19)
C4_3 C 0.4140(7) 0.6945(7) 0.6952(2)
C5_3 C 0.3088(8) 0.6958(8) 0.6794(3)
C6_3 C 0.6690(8) 0.6187(8) 0.7088(3)
F1_3 F 0.6626(5) 0.6668(5) 0.5962(2)
F2_3 F 0.7152(4) 0.5181(5) 0.60857(13)
F3_3 F 0.7401(5) 0.5796(7) 0.55999(15)
F4_3 F 0.2869(6) 0.7862(5) 0.6678(2)
F5_3 F 0.2372(5) 0.6791(8) 0.70095(18)
F6_3 F 0.3009(5) 0.6285(5) 0.65641(17)
F7_3 F 0.7051(5) 0.5989(7) 0.67856(16)
F8_3 F 0.6656(6) 0.5272(5) 0.7240(2)
F9_3 F 0.7344(5) 0.6748(5) 0.72472(19)
Ag3_3 Ag 0.35677(5) 0.61820(5) 0.505099(14)
Ag4_3 Ag 0.61820(5) 0.64323(5) 0.494901(14)
Ag7_3 Ag 0.38180(5) 0.35677(5) 0.494901(14)
N6_3 N 0.4515(5) 0.4820(5) 0.54165(15)
N7_3 N 0.5180(5) 0.4515(5) 0.45835(15)
N8_3 N 0.4820(5) 0.5485(5) 0.45835(15)
N9_3 N 0.5089(6) 0.3675(5) 0.68648(13)
N11_3 N 0.7599(5) 0.4644(5) 0.47730(16)
N12_3 N 0.2401(5) 0.5356(5) 0.47730(16)
N13_3 N 0.5626(5) 0.2402(5) 0.71899(15)
N14_3 N 0.5626(5) 0.2598(5) 0.53101(15)
N15_3 N 0.4374(5) 0.7402(5) 0.53101(15)
C7_3 C 0.4270(7) 0.4715(6) 0.57360(19)
C8_3 C 0.3268(7) 0.4286(7) 0.5842(2)
C9_3 C 0.4363(6) 0.3348(6) 0.70728(19)
C10_3 C 0.5860(7) 0.3055(7) 0.6952(2)
C11_3 C 0.6912(8) 0.3042(8) 0.6794(3)
C12_3 C 0.3310(8) 0.3813(8) 0.7088(3)
F10_3 F 0.3374(5) 0.3332(5) 0.5962(2)
F11_3 F 0.2848(4) 0.4819(5) 0.60857(13)
F12_3 F 0.2599(5) 0.4204(7) 0.55999(15)
F13_3 F 0.7131(6) 0.2138(5) 0.6678(2)
F14_3 F 0.7628(5) 0.3209(8) 0.70095(18)
F15_3 F 0.6991(5) 0.3715(5) 0.65641(17)
F16_3 F 0.2949(5) 0.4011(7) 0.67856(16)
F17_3 F 0.3344(6) 0.4728(5) 0.7240(2)
F18_3 F 0.2656(5) 0.3252(5) 0.72472(19)
N7_4 N 0.0485(5) 0.0180(5) 0.04165(15)
Ag1_6 Ag 0.0000 0.0000 0.850722(17)
N1_6 N 0.0000 0.0000 0.90562(18)
N9_4 N 0.1325(5) 0.0089(6) 0.81352(13)
C10_4 C 0.1945(7) 0.0860(7) 0.8048(2)
C11_4 C 0.1958(8) 0.1912(8) 0.8206(3)
F13_4 F 0.2862(5) 0.2131(6) 0.8322(2)
F14_4 F 0.1791(8) 0.2628(5) 0.79905(18)
F15_4 F 0.1285(5) 0.1991(5) 0.84359(17)
Ag1_7 Ag 0.0000 1.0000 0.850722(17)
N1_7 N 0.0000 1.0000 0.90562(18)
N6_4 N 0.0180(5) 0.9515(5) 0.95835(15)
N10_3 N 0.2401(5) 0.9644(5) 0.77270(16)
C7_4 C 0.0285(6) 0.9270(7) 0.92640(19)
C8_4 C 0.0714(7) 0.8268(7) 0.9158(2)
C9_4 C 0.1652(6) 0.9363(6) 0.79272(19)
C12_4 C 0.1187(8) 0.8310(8) 0.7912(3)
F10_4 F 0.1668(5) 0.8374(5) 0.9038(2)
F11_4 F 0.0181(5) 0.7848(4) 0.89143(13)
F12_4 F 0.0796(7) 0.7599(5) 0.94001(15)
F16_4 F 0.0989(7) 0.7949(5) 0.82144(16)
F17_4 F 0.0272(5) 0.8344(6) 0.7760(2)
F18_4 F 0.1748(5) 0.7656(5) 0.77528(19)
Ag1_8 Ag 1.0000 0.0000 0.850722(17)
N1_8 N 1.0000 0.0000 0.90562(18)
N2_4 N 0.9820(5) 0.0485(5) 0.95835(15)
N4_3 N 0.7599(5) 0.0356(5) 0.77270(16)
C1_4 C 0.9715(6) 0.0730(7) 0.92640(19)
C2_4 C 0.9286(7) 0.1732(7) 0.9158(2)
C3_4 C 0.8348(6) 0.0637(6) 0.79272(19)
C6_4 C 0.8813(8) 0.1690(8) 0.7912(3)
F1_4 F 0.8332(5) 0.1626(5) 0.9038(2)
F2_4 F 0.9819(5) 0.2152(4) 0.89143(13)
F3_4 F 0.9204(7) 0.2401(5) 0.94001(15)
F7_4 F 0.9011(7) 0.2051(5) 0.82144(16)
F8_4 F 0.9728(5) 0.1656(6) 0.7760(2)
F9_4 F 0.8252(5) 0.2344(5) 0.77528(19)
N8_4 N 0.9515(5) 0.9820(5) 0.04165(15)
Ag1_9 Ag 1.0000 1.0000 0.850722(17)
N1_9 N 1.0000 1.0000 0.90562(18)
N3_4 N 0.8675(5) 0.9911(6) 0.81352(13)
C4_4 C 0.8055(7) 0.9140(7) 0.8048(2)
C5_4 C 0.8042(8) 0.8088(8) 0.8206(3)
F4_4 F 0.7138(5) 0.7869(6) 0.8322(2)
F5_4 F 0.8209(8) 0.7372(5) 0.79905(18)
F6_4 F 0.8715(5) 0.8009(5) 0.84359(17)
Ag1_10 Ag 0.5000 -0.0000 0.600722(17)
N1_10 N 0.5000 -0.0000 0.65562(18)
N3_5 N 0.5089(6) 0.1325(5) 0.56352(13)
N4_4 N 0.4644(5) 0.2401(5) 0.52270(16)
C1_5 C 0.4270(7) 0.0285(6) 0.67640(19)
C2_5 C 0.3268(7) 0.0714(7) 0.6658(2)
C3_5 C 0.4363(6) 0.1652(6) 0.54272(19)
C4_5 C 0.5860(7) 0.1945(7) 0.5548(2)
C5_5 C 0.6912(8) 0.1958(8) 0.5706(3)
C6_5 C 0.3310(8) 0.1187(8) 0.5412(3)
F1_5 F 0.3374(5) 0.1668(5) 0.6538(2)
F2_5 F 0.2848(4) 0.0181(5) 0.64143(13)
F3_5 F 0.2599(5) 0.0796(7) 0.69001(15)
F4_5 F 0.7131(6) 0.2862(5) 0.5822(2)
F5_5 F 0.7628(5) 0.1791(8) 0.54905(18)
F6_5 F 0.6991(5) 0.1285(5) 0.59359(17)
F7_5 F 0.2949(5) 0.0989(7) 0.57144(16)
F8_5 F 0.3344(6) 0.0272(5) 0.5260(2)
F9_5 F 0.2656(5) 0.1748(5) 0.52528(19)
Ag1_11 Ag 0.5000 1.0000 0.600722(17)
N1_11 N 0.5000 1.0000 0.65562(18)
N9_5 N 0.4911(6) 0.8675(5) 0.56352(13)
N10_4 N 0.5356(5) 0.7599(5) 0.52270(16)
C7_5 C 0.5730(7) 0.9715(6) 0.67640(19)
C8_5 C 0.6732(7) 0.9286(7) 0.6658(2)
C9_5 C 0.5637(6) 0.8348(6) 0.54272(19)
C10_5 C 0.4140(7) 0.8055(7) 0.5548(2)
C11_5 C 0.3088(8) 0.8042(8) 0.5706(3)
C12_5 C 0.6690(8) 0.8813(8) 0.5412(3)
F10_5 F 0.6626(5) 0.8332(5) 0.6538(2)
F11_5 F 0.7152(4) 0.9819(5) 0.64143(13)
F12_5 F 0.7401(5) 0.9204(7) 0.69001(15)
F13_5 F 0.2869(6) 0.7138(5) 0.5822(2)
F14_5 F 0.2372(5) 0.8209(8) 0.54905(18)
F15_5 F 0.3009(5) 0.8715(5) 0.59359(17)
F16_5 F 0.7051(5) 0.9011(7) 0.57144(16)
F17_5 F 0.6656(6) 0.9728(5) 0.5260(2)
F18_5 F 0.7344(5) 0.8252(5) 0.52528(19)
Ag1_12 Ag -0.0000 0.5000 0.399278(17)
N1_12 N -0.0000 0.5000 0.34438(18)
N3_6 N 0.1325(5) 0.4911(6) 0.43648(13)
N5_4 N 0.2598(5) 0.4374(5) 0.46899(15)
C1_6 C 0.0285(6) 0.5730(7) 0.32360(19)
C2_6 C 0.0714(7) 0.6732(7) 0.3342(2)
C3_6 C 0.1652(6) 0.5637(6) 0.45728(19)
C4_6 C 0.1945(7) 0.4140(7) 0.4452(2)
C5_6 C 0.1958(8) 0.3088(8) 0.4294(3)
C6_6 C 0.1187(8) 0.6690(8) 0.4588(3)
F1_6 F 0.1668(5) 0.6626(5) 0.3462(2)
F2_6 F 0.0181(5) 0.7152(4) 0.35857(13)
F3_6 F 0.0796(7) 0.7401(5) 0.30999(15)
F4_6 F 0.2862(5) 0.2869(6) 0.4178(2)
F5_6 F 0.1791(8) 0.2372(5) 0.45095(18)
F6_6 F 0.1285(5) 0.3009(5) 0.40641(17)
F7_6 F 0.0989(7) 0.7051(5) 0.42856(16)
F8_6 F 0.0272(5) 0.6656(6) 0.4740(2)
F9_6 F 0.1748(5) 0.7344(5) 0.47472(19)
N12_4 N 0.0356(5) 0.2401(5) 0.22730(16)
N15_4 N 0.2402(5) 0.4374(5) 0.28101(15)
Ag1_13 Ag 1.0000 0.5000 0.399278(17)
N1_13 N 1.0000 0.5000 0.34438(18)
N9_6 N 0.8675(5) 0.5089(6) 0.43648(13)
N11_4 N 0.9644(5) 0.7599(5) 0.22730(16)
N13_4 N 0.7402(5) 0.5626(5) 0.46899(15)
N14_4 N 0.7598(5) 0.5626(5) 0.28101(15)
C7_6 C 0.9715(6) 0.4270(7) 0.32360(19)
C8_6 C 0.9286(7) 0.3268(7) 0.3342(2)
C9_6 C 0.8348(6) 0.4363(6) 0.45728(19)
C10_6 C 0.8055(7) 0.5860(7) 0.4452(2)
C11_6 C 0.8042(8) 0.6912(8) 0.4294(3)
C12_6 C 0.8813(8) 0.3310(8) 0.4588(3)
F10_6 F 0.8332(5) 0.3374(5) 0.3462(2)
F11_6 F 0.9819(5) 0.2848(4) 0.35857(13)
F12_6 F 0.9204(7) 0.2599(5) 0.30999(15)
F13_6 F 0.7138(5) 0.7131(6) 0.4178(2)
F14_6 F 0.8209(8) 0.7628(5) 0.45095(18)
F15_6 F 0.8715(5) 0.6991(5) 0.40641(17)
F16_6 F 0.9011(7) 0.2949(5) 0.42856(16)
F17_6 F 0.9728(5) 0.3344(6) 0.4740(2)
F18_6 F 0.8252(5) 0.2656(5) 0.47472(19)
Ag1_14 Ag -0.0000 -0.0000 0.149278(17)
N1_14 N -0.0000 -0.0000 0.09438(18)
C1_7 C 0.0730(7) 0.0285(6) 0.07360(19)
C2_7 C 0.1732(7) 0.0714(7) 0.0842(2)
C3_7 C 0.0637(6) 0.1652(6) 0.20728(19)
C6_7 C 0.1690(8) 0.1187(8) 0.2088(3)
F1_7 F 0.1626(5) 0.1668(5) 0.0962(2)
F2_7 F 0.2152(4) 0.0181(5) 0.10857(13)
F3_7 F 0.2401(5) 0.0796(7) 0.05999(15)
F7_7 F 0.2051(5) 0.0989(7) 0.17856(16)
F8_7 F 0.1656(6) 0.0272(5) 0.2240(2)
F9_7 F 0.2344(5) 0.1748(5) 0.22472(19)
Ag1_15 Ag 0.0000 1.0000 0.149278(17)
N1_15 N 0.0000 1.0000 0.09438(18)
N9_7 N 0.0089(6) 0.8675(5) 0.18648(13)
C10_7 C 0.0860(7) 0.8055(7) 0.1952(2)
C11_7 C 0.1912(8) 0.8042(8) 0.1794(3)
F13_7 F 0.2131(6) 0.7138(5) 0.1678(2)
F14_7 F 0.2628(5) 0.8209(8) 0.20095(18)
F15_7 F 0.1991(5) 0.8715(5) 0.15641(17)
Ag1_16 Ag 1.0000 -0.0000 0.149278(17)
N1_16 N 1.0000 -0.0000 0.09438(18)
N3_7 N 0.9911(6) 0.1325(5) 0.18648(13)
C4_7 C 0.9140(7) 0.1945(7) 0.1952(2)
C5_7 C 0.8088(8) 0.1958(8) 0.1794(3)
F4_7 F 0.7869(6) 0.2862(5) 0.1678(2)
F5_7 F 0.7372(5) 0.1791(8) 0.20095(18)
F6_7 F 0.8009(5) 0.1285(5) 0.15641(17)
Ag1_17 Ag 1.0000 1.0000 0.149278(17)
N1_17 N 1.0000 1.0000 0.09438(18)
C7_7 C 0.9270(7) 0.9715(6) 0.07360(19)
C8_7 C 0.8268(7) 0.9286(7) 0.0842(2)
C9_7 C 0.9363(6) 0.8348(6) 0.20728(19)
C12_7 C 0.8310(8) 0.8813(8) 0.2088(3)
F10_7 F 0.8374(5) 0.8332(5) 0.0962(2)
F11_7 F 0.7848(4) 0.9819(5) 0.10857(13)
F12_7 F 0.7599(5) 0.9204(7) 0.05999(15)
F16_7 F 0.7949(5) 0.9011(7) 0.17856(16)
F17_7 F 0.8344(6) 0.9728(5) 0.2240(2)
F18_7 F 0.7656(5) 0.8252(5) 0.22472(19)
Ag1_18 Ag 0.5000 0.5000 0.350722(17)
N1_18 N 0.5000 0.5000 0.40562(18)
N3_8 N 0.3675(5) 0.4911(6) 0.31352(13)
C1_8 C 0.4715(6) 0.5730(7) 0.42640(19)
C2_8 C 0.4286(7) 0.6732(7) 0.4158(2)
C3_8 C 0.3348(6) 0.5637(6) 0.29272(19)
C4_8 C 0.3055(7) 0.4140(7) 0.3048(2)
C5_8 C 0.3042(8) 0.3088(8) 0.3206(3)
C6_8 C 0.3813(8) 0.6690(8) 0.2912(3)
F1_8 F 0.3332(5) 0.6626(5) 0.4038(2)
F2_8 F 0.4819(5) 0.7152(4) 0.39143(13)
F3_8 F 0.4204(7) 0.7401(5) 0.44001(15)
F4_8 F 0.2138(5) 0.2869(6) 0.3322(2)
F5_8 F 0.3209(8) 0.2372(5) 0.29905(18)
F6_8 F 0.3715(5) 0.3009(5) 0.34359(17)
F7_8 F 0.4011(7) 0.7051(5) 0.32144(16)
F8_8 F 0.4728(5) 0.6656(6) 0.2760(2)
F9_8 F 0.3252(5) 0.7344(5) 0.27528(19)
N9_8 N 0.6325(5) 0.5089(6) 0.31352(13)
C7_8 C 0.5285(6) 0.4270(7) 0.42640(19)
C8_8 C 0.5714(7) 0.3268(7) 0.4158(2)
C9_8 C 0.6652(6) 0.4363(6) 0.29272(19)
C10_8 C 0.6945(7) 0.5860(7) 0.3048(2)
C11_8 C 0.6958(8) 0.6912(8) 0.3206(3)
C12_8 C 0.6187(8) 0.3310(8) 0.2912(3)
F10_8 F 0.6668(5) 0.3374(5) 0.4038(2)
F11_8 F 0.5181(5) 0.2848(4) 0.39143(13)
F12_8 F 0.5796(7) 0.2599(5) 0.44001(15)
F13_8 F 0.7862(5) 0.7131(6) 0.3322(2)
F14_8 F 0.6791(8) 0.7628(5) 0.29905(18)
F15_8 F 0.6285(5) 0.6991(5) 0.34359(17)
F16_8 F 0.5989(7) 0.2949(5) 0.32144(16)
F17_8 F 0.5272(5) 0.3344(6) 0.2760(2)
F18_8 F 0.6748(5) 0.2656(5) 0.27528(19)
loop_
_geom_bond_atom_site_label_1
_geom_bond_atom_site_label_2
_geom_bond_site_symmetry_1
_geom_bond_site_symmetry_2
Ag1 N1 1_555 1_555
N3 Ag1 1_555 1_555
N5 C4 1_555 1_555
C4 N3 1_555 1_555
C5 C4 1_555 1_555
F4 C5 1_555 1_555
F5 C5 1_555 1_555
F6 C5 1_555 1_555
Ag3 N6 1_555 1_555
Ag6 N5 1_555 1_555
Ag7 N6 1_555 1_555
N8 Ag3 1_555 1_555
N12 Ag3 1_555 1_555
N15 Ag3 1_555 1_555
C7 N1 1_555 1_555
C8 C7 1_555 1_555
C12 C9 1_555 1_555
F10 C8 1_555 1_555
F11 C8 1_555 1_555
F12 C8 1_555 1_555
F16 C12 1_555 1_555
F17 C12 1_555 1_555
F18 C12 1_555 1_555
N6 C7 1_555 1_555
N10 C9 1_555 1_555
Ag1_2 N1_2 1_555 1_555
Ag2 N2 1_555 1_555
N1_2 C1 1_555 1_555
N2 C1 1_555 1_555
C1 C2 1_555 1_555
C2 F1 1_555 1_555
C6 C3 1_555 1_555
F2 C2 1_555 1_555
F3 C2 1_555 1_555
F7 C6 1_555 1_555
F8 C6 1_555 1_555
F9 C6 1_555 1_555
Ag4 N2 1_555 1_555
Ag9 N13 1_555 1_555
N7 Ag2 1_555 1_555
N9 Ag1_2 1_555 1_555
N11 Ag2 1_555 1_555
N13 C10 1_555 1_555
N14 Ag2 1_555 1_555
C10 N9 1_555 1_555
C11 C10 1_555 1_555
F13 C11 1_555 1_555
F14 C11 1_555 1_555
F15 C11 1_555 1_555
N4 C3 1_555 1_555
Ag1_3 N1_3 1_555 1_555
Ag2_2 N2_2 1_555 1_555
N1_3 C1_2 1_555 1_555
N2_2 C1_2 1_555 1_555
C1_2 C2_2 1_555 1_555
C2_2 F1_2 1_555 1_555
C6_2 C3_2 1_555 1_555
F2_2 C2_2 1_555 1_555
F3_2 C2_2 1_555 1_555
F7_2 C6_2 1_555 1_555
F8_2 C6_2 1_555 1_555
F9_2 C6_2 1_555 1_555
Ag4_2 N2_2 1_555 1_555
Ag8 N13_2 1_555 1_555
N7_2 Ag2_2 1_555 1_555
N9_2 Ag1_3 1_555 1_555
N11_2 Ag2_2 1_555 1_555
N13_2 C10_2 1_555 1_555
N14_2 Ag2_2 1_555 1_555
C10_2 N9_2 1_555 1_555
C11_2 C10_2 1_555 1_555
F13_2 C11_2 1_555 1_555
F14_2 C11_2 1_555 1_555
F15_2 C11_2 1_555 1_555
N4_2 C3_2 1_555 1_555
Ag1_4 N1_4 1_555 1_555
N3_2 Ag1_4 1_555 1_555
N5_2 C4_2 1_555 1_555
C4_2 N3_2 1_555 1_555
C5_2 C4_2 1_555 1_555
F4_2 C5_2 1_555 1_555
F5_2 C5_2 1_555 1_555
F6_2 C5_2 1_555 1_555
Ag3_2 N6_2 1_555 1_555
Ag5 N5_2 1_555 1_555
Ag7_2 N6_2 1_555 1_555
N8_2 Ag3_2 1_555 1_555
N12_2 Ag3_2 1_555 1_555
N15_2 Ag3_2 1_555 1_555
C7_2 N1_4 1_555 1_555
C8_2 C7_2 1_555 1_555
C12_2 C9_2 1_555 1_555
F10_2 C8_2 1_555 1_555
F11_2 C8_2 1_555 1_555
F12_2 C8_2 1_555 1_555
F16_2 C12_2 1_555 1_555
F17_2 C12_2 1_555 1_555
F18_2 C12_2 1_555 1_555
N6_2 C7_2 1_555 1_555
N10_2 C9_2 1_555 1_555
Ag1_5 N1_5 1_555 1_555
Ag2_3 N2_3 1_555 1_555
N1_5 C1_3 1_555 1_555
N2_3 C1_3 1_555 1_555
N3_3 Ag1_5 1_555 1_555
N12_2 N5_3 1_555 1_555
N5_3 C4_3 1_555 1_555
C1_3 C2_3 1_555 1_555
C2_3 F1_3 1_555 1_555
C3_3 N3_3 1_555 1_555
C4_3 N3_3 1_555 1_555
C5_3 C4_3 1_555 1_555
C6_3 C3_3 1_555 1_555
F2_3 C2_3 1_555 1_555
F3_3 C2_3 1_555 1_555
F4_3 C5_3 1_555 1_555
F5_3 C5_3 1_555 1_555
F6_3 C5_3 1_555 1_555
F7_3 C6_3 1_555 1_555
F8_3 C6_3 1_555 1_555
F9_3 C6_3 1_555 1_555
Ag3_3 N6_3 1_555 1_555
Ag4_3 N2_3 1_555 1_555
Ag7_2 N5_3 1_555 1_555
Ag7_3 N6_3 1_555 1_555
Ag4_2 N13_3 1_555 1_555
N6_3 N2_3 1_555 1_555
N7_3 Ag2_3 1_555 1_555
N8_3 Ag3_3 1_555 1_555
N9_3 Ag1_5 1_555 1_555
N11_2 N13_3 1_555 1_555
N11_3 Ag2_3 1_555 1_555
N12_3 Ag3_3 1_555 1_555
N13_3 C10_3 1_555 1_555
N14_3 Ag2_3 1_555 1_555
N15_3 Ag3_3 1_555 1_555
C7_3 N1_5 1_555 1_555
C8_3 C7_3 1_555 1_555
C9_3 N9_3 1_555 1_555
C10_3 N9_3 1_555 1_555
C11_3 C10_3 1_555 1_555
C12_3 C9_3 1_555 1_555
F10_3 C8_3 1_555 1_555
F11_3 C8_3 1_555 1_555
F12_3 C8_3 1_555 1_555
F13_3 C11_3 1_555 1_555
F14_3 C11_3 1_555 1_555
F15_3 C11_3 1_555 1_555
F16_3 C12_3 1_555 1_555
F17_3 C12_3 1_555 1_555
F18_3 C12_3 1_555 1_555
N12_2 C3_3 1_555 1_555
Ag4_3 N8_3 1_555 1_555
Ag7_3 N7_3 1_555 1_555
N6_3 C7_3 1_555 1_555
N7_3 N8_3 1_555 1_555
N11_2 C9_3 1_555 1_555
Ag1_6 N1_6 1_555 1_555
N9_4 Ag1_6 1_555 1_555
N14_2 C10_4 1_555 1_555
C10_4 N9_4 1_555 1_555
C11_4 C10_4 1_555 1_555
F13_4 C11_4 1_555 1_555
F14_4 C11_4 1_555 1_555
F15_4 C11_4 1_555 1_555
Ag1_7 N1_7 1_555 1_555
Ag7_2 N10_3 1_555 1_555
C7_4 N1_7 1_555 1_555
C8_4 C7_4 1_555 1_555
C12_4 C9_4 1_555 1_555
F10_4 C8_4 1_555 1_555
F11_4 C8_4 1_555 1_555
F12_4 C8_4 1_555 1_555
F16_4 C12_4 1_555 1_555
F17_4 C12_4 1_555 1_555
F18_4 C12_4 1_555 1_555
N6_4 C7_4 1_555 1_555
N10_3 C9_4 1_555 1_555
Ag1_8 N1_8 1_555 1_555
N1_8 C1_4 1_555 1_555
N2_4 C1_4 1_555 1_555
C1_4 C2_4 1_555 1_555
C2_4 F1_4 1_555 1_555
C6_4 C3_4 1_555 1_555
F2_4 C2_4 1_555 1_555
F3_4 C2_4 1_555 1_555
F7_4 C6_4 1_555 1_555
F8_4 C6_4 1_555 1_555
F9_4 C6_4 1_555 1_555
Ag4_2 N4_3 1_555 1_555
N4_3 C3_4 1_555 1_555
Ag1_9 N1_9 1_555 1_555
N3_4 Ag1_9 1_555 1_555
N15_2 C4_4 1_555 1_555
C4_4 N3_4 1_555 1_555
C5_4 C4_4 1_555 1_555
F4_4 C5_4 1_555 1_555
F5_4 C5_4 1_555 1_555
F6_4 C5_4 1_555 1_555
Ag1_10 N1_10 1_555 1_555
N1_10 C1_5 1_555 1_555
N7_2 C1_5 1_555 1_555
N3_5 Ag1_10 1_555 1_555
N4_4 N14_3 1_555 1_555
N14_3 C4_5 1_555 1_555
C1_5 C2_5 1_555 1_555
C2_5 F1_5 1_555 1_555
C3_5 N3_5 1_555 1_555
C4_5 N3_5 1_555 1_555
C5_5 C4_5 1_555 1_555
C6_5 C3_5 1_555 1_555
F2_5 C2_5 1_555 1_555
F3_5 C2_5 1_555 1_555
F4_5 C5_5 1_555 1_555
F5_5 C5_5 1_555 1_555
F6_5 C5_5 1_555 1_555
F7_5 C6_5 1_555 1_555
F8_5 C6_5 1_555 1_555
F9_5 C6_5 1_555 1_555
Ag7_3 N4_4 1_555 1_555
N4_4 C3_5 1_555 1_555
Ag1_11 N1_11 1_555 1_555
Ag4_3 N10_4 1_555 1_555
N9_5 Ag1_11 1_555 1_555
N10_4 N15_3 1_555 1_555
N15_3 C10_5 1_555 1_555
C7_5 N1_11 1_555 1_555
C8_5 C7_5 1_555 1_555
C9_5 N9_5 1_555 1_555
C10_5 N9_5 1_555 1_555
C11_5 C10_5 1_555 1_555
C12_5 C9_5 1_555 1_555
F10_5 C8_5 1_555 1_555
F11_5 C8_5 1_555 1_555
F12_5 C8_5 1_555 1_555
F13_5 C11_5 1_555 1_555
F14_5 C11_5 1_555 1_555
F15_5 C11_5 1_555 1_555
F16_5 C12_5 1_555 1_555
F17_5 C12_5 1_555 1_555
F18_5 C12_5 1_555 1_555
N8_2 C7_5 1_555 1_555
N10_4 C9_5 1_555 1_555
Ag1_12 N1_12 1_555 1_555
N1_12 C1_6 1_555 1_555
N8 C1_6 1_555 1_555
N3_6 Ag1_12 1_555 1_555
N12_3 N5_4 1_555 1_555
N5_4 C4_6 1_555 1_555
C1_6 C2_6 1_555 1_555
C2_6 F1_6 1_555 1_555
C3_6 N3_6 1_555 1_555
C4_6 N3_6 1_555 1_555
C5_6 C4_6 1_555 1_555
C6_6 C3_6 1_555 1_555
F2_6 C2_6 1_555 1_555
F3_6 C2_6 1_555 1_555
F4_6 C5_6 1_555 1_555
F5_6 C5_6 1_555 1_555
F6_6 C5_6 1_555 1_555
F7_6 C6_6 1_555 1_555
F8_6 C6_6 1_555 1_555
F9_6 C6_6 1_555 1_555
Ag7_3 N5_4 1_555 1_555
N12_4 Ag7 1_555 1_555
N15_4 Ag7 1_555 1_555
N12_3 C3_6 1_555 1_555
Ag1_13 N1_13 1_555 1_555
Ag4_3 N13_4 1_555 1_555
N9_6 Ag1_13 1_555 1_555
N11_3 N13_4 1_555 1_555
N11_4 Ag4 1_555 1_555
N13_4 C10_6 1_555 1_555
N14_4 Ag4 1_555 1_555
C7_6 N1_13 1_555 1_555
C8_6 C7_6 1_555 1_555
C9_6 N9_6 1_555 1_555
C10_6 N9_6 1_555 1_555
C11_6 C10_6 1_555 1_555
C12_6 C9_6 1_555 1_555
F10_6 C8_6 1_555 1_555
F11_6 C8_6 1_555 1_555
F12_6 C8_6 1_555 1_555
F13_6 C11_6 1_555 1_555
F14_6 C11_6 1_555 1_555
F15_6 C11_6 1_555 1_555
F16_6 C12_6 1_555 1_555
F17_6 C12_6 1_555 1_555
F18_6 C12_6 1_555 1_555
N7 C7_6 1_555 1_555
N11_3 C9_6 1_555 1_555
Ag1_14 N1_14 1_555 1_555
N1_14 C1_7 1_555 1_555
N7_4 C1_7 1_555 1_555
C1_7 C2_7 1_555 1_555
C2_7 F1_7 1_555 1_555
C6_7 C3_7 1_555 1_555
F2_7 C2_7 1_555 1_555
F3_7 C2_7 1_555 1_555
F7_7 C6_7 1_555 1_555
F8_7 C6_7 1_555 1_555
F9_7 C6_7 1_555 1_555
N12_4 C3_7 1_555 1_555
Ag1_15 N1_15 1_555 1_555
N9_7 Ag1_15 1_555 1_555
N15 C10_7 1_555 1_555
C10_7 N9_7 1_555 1_555
C11_7 C10_7 1_555 1_555
F13_7 C11_7 1_555 1_555
F14_7 C11_7 1_555 1_555
F15_7 C11_7 1_555 1_555
Ag1_16 N1_16 1_555 1_555
N3_7 Ag1_16 1_555 1_555
N14 C4_7 1_555 1_555
C4_7 N3_7 1_555 1_555
C5_7 C4_7 1_555 1_555
F4_7 C5_7 1_555 1_555
F5_7 C5_7 1_555 1_555
F6_7 C5_7 1_555 1_555
Ag1_17 N1_17 1_555 1_555
C7_7 N1_17 1_555 1_555
C8_7 C7_7 1_555 1_555
C12_7 C9_7 1_555 1_555
F10_7 C8_7 1_555 1_555
F11_7 C8_7 1_555 1_555
F12_7 C8_7 1_555 1_555
F16_7 C12_7 1_555 1_555
F17_7 C12_7 1_555 1_555
F18_7 C12_7 1_555 1_555
N8_4 C7_7 1_555 1_555
N11_4 C9_7 1_555 1_555
Ag1_18 N1_18 1_555 1_555
N1_18 C1_8 1_555 1_555
N8_3 C1_8 1_555 1_555
N3_8 Ag1_18 1_555 1_555
N12 N15_4 1_555 1_555
N15_4 C4_8 1_555 1_555
C1_8 C2_8 1_555 1_555
C2_8 F1_8 1_555 1_555
C3_8 N3_8 1_555 1_555
C4_8 N3_8 1_555 1_555
C5_8 C4_8 1_555 1_555
C6_8 C3_8 1_555 1_555
F2_8 C2_8 1_555 1_555
F3_8 C2_8 1_555 1_555
F4_8 C5_8 1_555 1_555
F5_8 C5_8 1_555 1_555
F6_8 C5_8 1_555 1_555
F7_8 C6_8 1_555 1_555
F8_8 C6_8 1_555 1_555
F9_8 C6_8 1_555 1_555
N9_8 Ag1_18 1_555 1_555
N11 N14_4 1_555 1_555
N14_4 C10_8 1_555 1_555
C7_8 N1_18 1_555 1_555
C8_8 C7_8 1_555 1_555
C9_8 N9_8 1_555 1_555
C10_8 N9_8 1_555 1_555
C11_8 C10_8 1_555 1_555
C12_8 C9_8 1_555 1_555
F10_8 C8_8 1_555 1_555
F11_8 C8_8 1_555 1_555
F12_8 C8_8 1_555 1_555
F13_8 C11_8 1_555 1_555
F14_8 C11_8 1_555 1_555
F15_8 C11_8 1_555 1_555
F16_8 C12_8 1_555 1_555
F17_8 C12_8 1_555 1_555
F18_8 C12_8 1_555 1_555
N12 C3_8 1_555 1_555
N7_3 C7_8 1_555 1_555
N11 C9_8 1_555 1_555

#END
