
###############################################################################
#
# This file contains modified crystal structure data generated from the
# MOF subset of the Cambridge Structural Database (CSD) v543 
# hosted by the Cambridge Crystallographic Data Centre (CCDC).
#
# This work is licensed under the Creative Commons
# Attribution-NonCommercial-ShareAlike 4.0 International License.
# To view a copy of this license, visit
# http://creativecommons.org/licenses/by-nc-sa/4.0/
# or send a letter to
# Creative Commons, PO Box 1866, Mountain View, CA 94042, USA.
#
# CIF created using the CSD Python API on 29 September 2022
# The structure has been converted into the P1 space group
# The structure has a 3D framework
# The original CSD entry QOVHER is in the tetragonal crystal system
# The framework has been calculated to contain at least 10.0% void space
# The void calculation uses a probe of radius 1.32A, grid spacing 0.4
#
###############################################################################

data_QOVHER
_chemical_formula_moiety         '(C336 H304 N48 O122 Sr16)n'
_symmetry_cell_setting           triclinic
_symmetry_space_group_name_H-M   'P 1'
_symmetry_Int_Tables_number      1
_space_group_name_Hall           'P 1'
loop_
_symmetry_equiv_pos_site_id
_symmetry_equiv_pos_as_xyz
1 x,y,z
_cell_length_a                   28.614(4)
_cell_length_b                   28.614(4)
_cell_length_c                   13.749(3)
_cell_angle_alpha                90
_cell_angle_beta                 90
_cell_angle_gamma                90
_cell_volume                     11257.1
loop_
_atom_site_label
_atom_site_type_symbol
_atom_site_fract_x
_atom_site_fract_y
_atom_site_fract_z
H33 H 0.258252 0.157294 0.000136
Sr2 Sr 0.25294(2) 0.05966(2) 0.62568(3)
O15 O 0.2161(2) 0.13027(19) 0.5383(4)
O16 O 0.3012(2) 0.1219(2) 0.7172(4)
N5 N 0.2370(3) 0.1725(2) 0.4047(5)
C37 C 0.2118(3) 0.1396(3) 0.4496(6)
H25 H 0.190031 0.122887 0.413340
N6 N 0.2785(6) 0.1644(4) 0.8627(9)
C38 C 0.2306(4) 0.1799(4) 0.3012(7)
H26 H 0.258478 0.170707 0.267262
H27 H 0.224518 0.212382 0.289234
H28 H 0.204740 0.161544 0.278641
C39 C 0.3053(6) 0.1310(5) 0.8033(9)
H29 H 0.328532 0.114587 0.835961
C40 C 0.2717(4) 0.1992(4) 0.4571(9)
H30 H 0.274911 0.186930 0.521675
H31 H 0.262022 0.231304 0.460419
H32 H 0.301094 0.197165 0.423813
C41 C 0.2809(6) 0.1756(5) 0.9653(10)
H34 H 0.274326 0.208192 0.974437
H35 H 0.311594 0.168688 0.989450
C42 C 0.2461(7) 0.1938(5) 0.8114(11)
H36 H 0.242664 0.182751 0.745899
H37 H 0.257678 0.225291 0.810599
H38 H 0.216330 0.193027 0.843568
Sr5 Sr 0.19034(2) 0.00294(2) 0.37568(3)
O17 O 0.26101(12) 0.04776(12) 0.4301(2)
O21 O 0.24194(13) 0.04715(12) 0.8223(3)
O23 O 0.32048(14) 0.07951(15) 0.5080(2)
O26 O 0.18689(15) 0.08418(16) 0.7420(3)
Sr1 Sr 0.74706(2) 0.44034(2) 0.62568(3)
O1 O 0.70224(12) 0.51101(12) 0.6801(2)
O2 O 0.74194(13) 0.54715(12) 0.3223(3)
O3 O 0.67049(15) 0.57048(14) 0.7580(2)
O4 O 0.68689(15) 0.58418(16) 0.2420(3)
N1 N 0.58728(15) 0.66370(15) 0.4970(3)
C1 C 0.68221(17) 0.55001(18) 0.6812(3)
C2 C 0.67038(17) 0.57328(17) 0.5864(3)
C3 C 0.70474(18) 0.56974(18) 0.3196(4)
C4 C 0.67962(18) 0.58142(18) 0.4124(3)
C5 C 0.69235(18) 0.56020(17) 0.5002(3)
H1 H 0.715483 0.537373 0.500946
O5 O 0.53201(16) 0.60694(15) 0.4920(4)
C6 C 0.63637(18) 0.60753(18) 0.5848(4)
H2 H 0.621937 0.616682 0.642356
O6 O 0.64326(16) 0.71977(16) 0.4949(4)
O7 O 0.7839(2) 0.36973(19) 0.5383(4)
C7 C 0.62386(18) 0.62809(18) 0.4983(4)
C8 C 0.64429(18) 0.61507(18) 0.4118(4)
H3 H 0.634658 0.628542 0.353647
C9 C 0.51772(19) 0.73265(19) 0.4943(4)
O8 O 0.6988(2) 0.3781(2) 0.7172(4)
C10 C 0.5649(2) 0.7462(2) 0.4943(4)
C11 C 0.5049(2) 0.6853(2) 0.4942(4)
C12 C 0.5414(2) 0.6483(2) 0.4935(4)
C13 C 0.6022(2) 0.7102(2) 0.4960(4)
C14 C 0.5769(2) 0.7927(2) 0.4939(4)
H4 H 0.608203 0.801335 0.494529
N2 N 0.7630(3) 0.3275(2) 0.4047(5)
C15 C 0.4582(2) 0.6727(2) 0.4925(4)
H5 H 0.449913 0.641273 0.490472
C16 C 0.7882(3) 0.3604(3) 0.4496(6)
H6 H 0.809969 0.377113 0.413340
N3 N 0.7215(6) 0.3356(4) 0.8627(9)
C17 C 0.7694(4) 0.3201(4) 0.3012(7)
H7 H 0.741522 0.329293 0.267262
H8 H 0.775482 0.287618 0.289234
H9 H 0.795260 0.338456 0.278641
C18 C 0.6947(6) 0.3690(5) 0.8033(9)
H10 H 0.671468 0.385413 0.835961
C19 C 0.7283(4) 0.3008(4) 0.4571(9)
H11 H 0.725089 0.313070 0.521675
H12 H 0.737978 0.268696 0.460419
H13 H 0.698906 0.302835 0.423813
C20 C 0.7191(6) 0.3244(5) 0.9653(10)
H15 H 0.725674 0.291808 0.974437
H16 H 0.688406 0.331312 0.989450
C21 C 0.7539(7) 0.3062(5) 0.8114(11)
H17 H 0.757336 0.317249 0.745899
H18 H 0.742322 0.274709 0.810599
H19 H 0.783670 0.306973 0.843568
O9 O 0.29776(12) 0.98899(12) 0.6801(2)
O10 O 0.25806(13) 0.95285(12) 0.3223(3)
O11 O 0.32951(15) 0.92952(14) 0.7580(2)
O12 O 0.31311(15) 0.91582(16) 0.2420(3)
N4 N 0.41272(15) 0.83630(15) 0.4970(3)
C22 C 0.31779(17) 0.94999(18) 0.6812(3)
C23 C 0.32962(17) 0.92672(17) 0.5864(3)
C24 C 0.29526(18) 0.93026(18) 0.3196(4)
C25 C 0.32038(18) 0.91858(18) 0.4124(3)
C26 C 0.30765(18) 0.93980(17) 0.5002(3)
H20 H 0.284517 0.962627 0.500946
O13 O 0.46799(16) 0.89306(15) 0.4920(4)
C27 C 0.36363(18) 0.89247(18) 0.5848(4)
H21 H 0.378063 0.883318 0.642356
O14 O 0.35674(16) 0.78023(16) 0.4949(4)
C28 C 0.37614(18) 0.87191(18) 0.4983(4)
C29 C 0.35571(18) 0.88493(18) 0.4118(4)
H22 H 0.365342 0.871458 0.353647
C30 C 0.48228(19) 0.76735(19) 0.4943(4)
C31 C 0.4351(2) 0.7538(2) 0.4943(4)
C32 C 0.4951(2) 0.8147(2) 0.4942(4)
C33 C 0.4586(2) 0.8517(2) 0.4935(4)
C34 C 0.3978(2) 0.7898(2) 0.4960(4)
C35 C 0.4231(2) 0.7073(2) 0.4939(4)
H23 H 0.391797 0.698665 0.494529
C36 C 0.5418(2) 0.8273(2) 0.4925(4)
H24 H 0.550087 0.858727 0.490472
Sr3 Sr 0.75294(2) 0.55966(2) 0.12568(3)
Sr4 Sr 0.30966(2) 0.99706(2) 0.87568(3)
Sr6 Sr 0.24706(2) 0.94034(2) 0.12568(3)
Sr7 Sr 0.80966(2) 0.49706(2) 0.37568(3)
Sr8 Sr 0.69034(2) 0.50294(2) 0.87568(3)
O18 O 0.73899(12) 0.45224(12) 0.4301(2)
O19 O 0.75806(13) 0.45285(12) 0.8223(3)
O20 O 0.20285(12) 0.99194(13) 0.5723(3)
O22 O 0.79715(12) 0.50806(13) 0.5723(3)
O24 O 0.67952(14) 0.42049(15) 0.5080(2)
O25 O 0.81311(15) 0.41582(16) 0.7420(3)
O9_2 O 0.20224(12) 0.01101(12) 0.1801(2)
O11_2 O 0.17049(15) 0.07048(14) 0.2580(2)
C22_2 C 0.18221(17) 0.05001(18) 0.1812(3)
C23_2 C 0.17038(17) 0.07328(17) 0.0864(3)
C26_2 C 0.19235(18) 0.06020(17) 0.0002(3)
H20_2 H 0.215483 0.037373 0.000946
C27_2 C 0.13637(18) 0.10753(18) 0.0848(4)
H21_2 H 0.121937 0.116682 0.142356
O20_2 O 0.29715(12) 0.00806(13) 0.0723(3)
C15_2 C 0.0418(2) 0.3273(2) 0.9925(4)
H5_2 H 0.050087 0.358727 0.990472
N4_2 N 0.08728(15) 0.16370(15) 0.9970(3)
C24_2 C 0.20474(18) 0.06974(18) 0.8196(4)
C25_2 C 0.17962(18) 0.08142(18) 0.9124(3)
O13_2 O 0.03201(16) 0.10694(15) 0.9920(4)
O14_2 O 0.14326(16) 0.21977(16) 0.9949(4)
C28_2 C 0.12386(18) 0.12809(18) 0.9983(4)
C29_2 C 0.14429(18) 0.11507(18) 0.9118(4)
H22_2 H 0.134658 0.128542 0.853647
C30_2 C 0.01772(19) 0.23265(19) 0.9943(4)
C31_2 C 0.0649(2) 0.2462(2) 0.9943(4)
C32_2 C 0.0049(2) 0.1853(2) 0.9942(4)
C33_2 C 0.0414(2) 0.1483(2) 0.9935(4)
C34_2 C 0.1022(2) 0.2102(2) 0.9960(4)
C35_2 C 0.0769(2) 0.2927(2) 0.9939(4)
H23_2 H 0.108203 0.301335 0.994529
O15_2 O 0.2839(2) 0.86973(19) 0.0383(4)
O16_2 O 0.1988(2) 0.8781(2) 0.2172(4)
N6_2 N 0.2215(6) 0.8356(4) 0.3627(9)
C39_2 C 0.1947(6) 0.8690(5) 0.3033(9)
H29_2 H 0.171468 0.885413 0.335961
H30_2 H 0.225089 0.813070 0.021675
C41_2 C 0.2191(6) 0.8244(5) 0.4653(10)
H33_2 H 0.241748 0.842706 0.500136
H34_2 H 0.225674 0.791808 0.474437
H35_2 H 0.188406 0.831312 0.489450
C42_2 C 0.2539(7) 0.8062(5) 0.3114(11)
H36_2 H 0.257336 0.817249 0.245899
H37_2 H 0.242322 0.774709 0.310599
H38_2 H 0.283670 0.806973 0.343568
O23_2 O 0.17952(14) 0.92049(15) 0.0080(2)
N5_2 N 0.2630(3) 0.8275(2) 0.9047(5)
C37_2 C 0.2882(3) 0.8604(3) 0.9496(6)
H25_2 H 0.309969 0.877113 0.913340
C38_2 C 0.2694(4) 0.8201(4) 0.8012(7)
H26_2 H 0.241522 0.829293 0.767262
H27_2 H 0.275482 0.787618 0.789234
H28_2 H 0.295260 0.838456 0.778641
C40_2 C 0.2283(4) 0.8008(4) 0.9571(9)
H31_2 H 0.237978 0.768696 0.960419
H32_2 H 0.198906 0.802835 0.923813
O17_2 O 0.23899(12) 0.95224(12) 0.9301(2)
O1_2 O 0.79776(12) 0.48899(12) 0.1801(2)
O3_2 O 0.82951(15) 0.42952(14) 0.2580(2)
C1_2 C 0.81779(17) 0.44999(18) 0.1812(3)
C2_2 C 0.82962(17) 0.42672(17) 0.0864(3)
C5_2 C 0.80765(18) 0.43980(17) 0.0002(3)
H1_2 H 0.784517 0.462627 0.000946
C6_2 C 0.86363(18) 0.39247(18) 0.0848(4)
H2_2 H 0.878063 0.383318 0.142356
O7_2 O 0.7161(2) 0.63027(19) 0.0383(4)
O8_2 O 0.8012(2) 0.6219(2) 0.2172(4)
N3_2 N 0.7785(6) 0.6644(4) 0.3627(9)
C18_2 C 0.8053(6) 0.6310(5) 0.3033(9)
H10_2 H 0.828532 0.614587 0.335961
H11_2 H 0.774911 0.686930 0.021675
C20_2 C 0.7809(6) 0.6756(5) 0.4653(10)
H14 H 0.758252 0.657294 0.500136
H15_2 H 0.774326 0.708192 0.474437
H16_2 H 0.811594 0.668688 0.489450
C21_2 C 0.7461(7) 0.6938(5) 0.3114(11)
H17_2 H 0.742664 0.682751 0.245899
H18_2 H 0.757678 0.725291 0.310599
H19_2 H 0.716330 0.693027 0.343568
O22_2 O 0.70285(12) 0.49194(13) 0.0723(3)
O24_2 O 0.82048(14) 0.57951(15) 0.0080(2)
N1_2 N 0.91272(15) 0.33630(15) 0.9970(3)
C3_2 C 0.79526(18) 0.43026(18) 0.8196(4)
C4_2 C 0.82038(18) 0.41858(18) 0.9124(3)
O5_2 O 0.96799(16) 0.39306(15) 0.9920(4)
O6_2 O 0.85674(16) 0.28023(16) 0.9949(4)
C7_2 C 0.87614(18) 0.37191(18) 0.9983(4)
C8_2 C 0.85571(18) 0.38493(18) 0.9118(4)
H3_2 H 0.865342 0.371458 0.853647
C9_2 C 0.98228(19) 0.26735(19) 0.9943(4)
C10_2 C 0.9351(2) 0.2538(2) 0.9943(4)
C11_2 C 0.9951(2) 0.3147(2) 0.9942(4)
C12_2 C 0.9586(2) 0.3517(2) 0.9935(4)
C13_2 C 0.8978(2) 0.2898(2) 0.9960(4)
C14_2 C 0.9231(2) 0.2073(2) 0.9939(4)
H4_2 H 0.891797 0.198665 0.994529
N2_2 N 0.7370(3) 0.6725(2) 0.9047(5)
C16_2 C 0.7118(3) 0.6396(3) 0.9496(6)
H6_2 H 0.690031 0.622887 0.913340
C17_2 C 0.7306(4) 0.6799(4) 0.8012(7)
H7_2 H 0.758478 0.670707 0.767262
H8_2 H 0.724518 0.712382 0.789234
H9_2 H 0.704740 0.661544 0.778641
C19_2 C 0.7717(4) 0.6992(4) 0.9571(9)
H12_2 H 0.762022 0.731304 0.960419
H13_2 H 0.801094 0.697165 0.923813
C36_2 C 0.9582(2) 0.1727(2) 0.9925(4)
H24_2 H 0.949913 0.141273 0.990472
O18_2 O 0.76101(12) 0.54776(12) 0.9301(2)
C21_3 C 0.4438(5) 0.0039(7) 0.0614(11)
H19_3 H 0.443027 0.033670 0.093568
O7_3 O 0.38027(19) 0.0339(2) 0.7883(4)
N2_3 N 0.4225(2) 0.0130(3) 0.6547(5)
C16_3 C 0.3896(3) 0.0382(3) 0.6996(6)
H6_3 H 0.372887 0.059969 0.663340
C17_3 C 0.4299(4) 0.0194(4) 0.5512(7)
H8_3 H 0.462382 0.025482 0.539234
H9_3 H 0.411544 0.045260 0.528641
H17_3 H 0.432751 0.007336 0.995899
O25_2 O 0.33418(16) 0.06311(15) 0.9920(3)
N3_3 N 0.4144(4) 0.9715(6) 0.1127(9)
C18_3 C 0.3810(5) 0.9447(6) 0.0533(9)
H10_3 H 0.364587 0.921468 0.085961
C20_3 C 0.4256(5) 0.9691(6) 0.2153(10)
H14_2 H 0.407294 0.991748 0.250136
H15_3 H 0.458192 0.975674 0.224437
H16_3 H 0.418688 0.938406 0.239450
H18_3 H 0.475291 0.992322 0.060599
O4_2 O 0.16582(16) 0.93689(15) 0.4920(3)
N1_3 N 0.08630(15) 0.83728(15) 0.7470(3)
C1_3 C 0.19999(18) 0.93221(17) 0.9312(3)
C2_3 C 0.17672(17) 0.92038(17) 0.8364(3)
C3_3 C 0.18026(18) 0.95474(18) 0.5696(4)
C4_3 C 0.16858(18) 0.92962(18) 0.6624(3)
C5_3 C 0.18980(17) 0.94235(18) 0.7502(3)
H1_3 H 0.212627 0.965483 0.750946
O5_3 O 0.14306(15) 0.78201(16) 0.7420(4)
C6_3 C 0.14247(18) 0.88637(18) 0.8348(4)
H2_3 H 0.133318 0.871937 0.892356
O6_3 O 0.03023(16) 0.89326(16) 0.7449(4)
C7_3 C 0.12191(18) 0.87386(18) 0.7483(4)
C8_3 C 0.13493(18) 0.89429(18) 0.6618(4)
H3_3 H 0.121458 0.884658 0.603647
C9_3 C 0.01735(19) 0.76772(19) 0.7443(4)
O8_3 O 0.3719(2) 0.9488(2) 0.9672(4)
C10_3 C 0.0038(2) 0.8149(2) 0.7443(4)
C11_3 C 0.0647(2) 0.7549(2) 0.7442(4)
C12_3 C 0.1017(2) 0.7914(2) 0.7435(4)
C13_3 C 0.0398(2) 0.8522(2) 0.7460(4)
C15_3 C 0.0773(2) 0.7082(2) 0.7425(4)
H5_3 H 0.108727 0.699913 0.740472
H7_3 H 0.420707 0.991522 0.517262
C19_3 C 0.4492(4) 0.9783(4) 0.7071(9)
H11_3 H 0.436930 0.975089 0.771675
H12_3 H 0.481304 0.987978 0.710419
H13_3 H 0.447165 0.948906 0.673813
C35_3 C 0.0427(2) 0.6731(2) 0.7439(4)
H23_3 H 0.051335 0.641797 0.744529
N6_3 N 0.5856(4) 0.5285(6) 0.1127(9)
C39_3 C 0.6190(5) 0.5553(6) 0.0533(9)
H29_3 H 0.635413 0.578532 0.085961
C41_3 C 0.5744(5) 0.5309(6) 0.2153(10)
H33_3 H 0.592706 0.508252 0.250136
H34_3 H 0.541808 0.524326 0.224437
H35_3 H 0.581312 0.561594 0.239450
C42_3 C 0.5562(5) 0.4961(7) 0.0614(11)
H37_3 H 0.524709 0.507678 0.060599
H38_3 H 0.556973 0.466330 0.093568
C14_3 C 0.9573(2) 0.8269(2) 0.7439(4)
H4_3 H 0.948665 0.858203 0.744529
O12_2 O 0.83418(16) 0.56311(15) 0.4920(3)
N4_3 N 0.91370(15) 0.66272(15) 0.7470(3)
C22_3 C 0.80001(18) 0.56779(17) 0.9312(3)
C23_3 C 0.82328(17) 0.57962(17) 0.8364(3)
C24_3 C 0.81974(18) 0.54526(18) 0.5696(4)
C25_3 C 0.83142(18) 0.57038(18) 0.6624(3)
C26_3 C 0.81020(17) 0.55765(18) 0.7502(3)
H20_3 H 0.787373 0.534517 0.750946
O13_3 O 0.85694(15) 0.71799(16) 0.7420(4)
C27_3 C 0.85753(18) 0.61363(18) 0.8348(4)
H21_3 H 0.866682 0.628063 0.892356
O14_3 O 0.96977(16) 0.60674(16) 0.7449(4)
C28_3 C 0.87809(18) 0.62614(18) 0.7483(4)
C29_3 C 0.86507(18) 0.60571(18) 0.6618(4)
H22_3 H 0.878542 0.615342 0.603647
C30_3 C 0.98265(19) 0.73228(19) 0.7443(4)
C31_3 C 0.9962(2) 0.6851(2) 0.7443(4)
C32_3 C 0.9353(2) 0.7451(2) 0.7442(4)
C33_3 C 0.8983(2) 0.7086(2) 0.7435(4)
C34_3 C 0.9602(2) 0.6478(2) 0.7460(4)
C36_3 C 0.9227(2) 0.7918(2) 0.7425(4)
H24_3 H 0.891273 0.800087 0.740472
O15_3 O 0.61973(19) 0.4661(2) 0.7883(4)
O16_3 O 0.6281(2) 0.5512(2) 0.9672(4)
N5_3 N 0.5775(2) 0.4870(3) 0.6547(5)
C37_3 C 0.6104(3) 0.4618(3) 0.6996(6)
H25_3 H 0.627113 0.440031 0.663340
C38_3 C 0.5701(4) 0.4806(4) 0.5512(7)
H26_3 H 0.579293 0.508478 0.517262
H27_3 H 0.537618 0.474518 0.539234
H28_3 H 0.588456 0.454740 0.528641
C40_3 C 0.5508(4) 0.5217(4) 0.7071(9)
H30_3 H 0.563070 0.524911 0.771675
H31_3 H 0.518696 0.512022 0.710419
H32_3 H 0.552835 0.551094 0.673813
H36_3 H 0.567249 0.492664 0.995899
O26_2 O 0.66582(16) 0.43689(15) 0.9920(3)
N1_4 N 0.41370(15) 0.16272(15) 0.2470(3)
C1_4 C 0.30001(18) 0.06779(17) 0.4312(3)
C2_4 C 0.32328(17) 0.07962(17) 0.3364(3)
C3_4 C 0.31974(18) 0.04526(18) 0.0696(4)
C4_4 C 0.33142(18) 0.07038(18) 0.1624(3)
C5_4 C 0.31020(17) 0.05765(18) 0.2502(3)
H1_4 H 0.287373 0.034517 0.250946
O5_4 O 0.35694(15) 0.21799(16) 0.2420(4)
C6_4 C 0.35753(18) 0.11363(18) 0.3348(4)
H2_4 H 0.366682 0.128063 0.392356
O6_4 O 0.46977(16) 0.10674(16) 0.2449(4)
C7_4 C 0.37809(18) 0.12614(18) 0.2483(4)
C8_4 C 0.36507(18) 0.10571(18) 0.1618(4)
H3_4 H 0.378542 0.115342 0.103647
C9_4 C 0.48265(19) 0.23228(19) 0.2443(4)
O8_4 O 0.1281(2) 0.0512(2) 0.4672(4)
C10_4 C 0.4962(2) 0.1851(2) 0.2443(4)
C11_4 C 0.4353(2) 0.2451(2) 0.2442(4)
C12_4 C 0.3983(2) 0.2086(2) 0.2435(4)
C13_4 C 0.4602(2) 0.1478(2) 0.2460(4)
C14_4 C 0.5427(2) 0.1731(2) 0.2439(4)
H4_4 H 0.551335 0.141797 0.244529
C15_4 C 0.4227(2) 0.2918(2) 0.2425(4)
H5_4 H 0.391273 0.300087 0.240472
N3_4 N 0.0856(4) 0.0285(6) 0.6127(9)
H7_4 H 0.079293 0.008478 0.017262
C18_4 C 0.1190(5) 0.0553(6) 0.5533(9)
H10_4 H 0.135413 0.078532 0.585961
C19_4 C 0.0508(4) 0.0217(4) 0.2071(9)
H11_4 H 0.063070 0.024911 0.271675
H12_4 H 0.018696 0.012022 0.210419
H13_4 H 0.052835 0.051094 0.173813
C20_4 C 0.0744(5) 0.0309(6) 0.7153(10)
H14_3 H 0.092706 0.008252 0.750136
H15_4 H 0.041808 0.024326 0.724437
H16_4 H 0.081312 0.061594 0.739450
H18_4 H 0.024709 0.007678 0.560599
N4_4 N 0.58630(15) 0.33728(15) 0.2470(3)
C22_4 C 0.69999(18) 0.43221(17) 0.4312(3)
C23_4 C 0.67672(17) 0.42038(17) 0.3364(3)
C24_4 C 0.68026(18) 0.45474(18) 0.0696(4)
C25_4 C 0.66858(18) 0.42962(18) 0.1624(3)
C26_4 C 0.68980(17) 0.44235(18) 0.2502(3)
H20_4 H 0.712627 0.465483 0.250946
O13_4 O 0.64306(15) 0.28201(16) 0.2420(4)
C27_4 C 0.64247(18) 0.38637(18) 0.3348(4)
H21_4 H 0.633318 0.371937 0.392356
O14_4 O 0.53023(16) 0.39326(16) 0.2449(4)
C28_4 C 0.62191(18) 0.37386(18) 0.2483(4)
C29_4 C 0.63493(18) 0.39429(18) 0.1618(4)
H22_4 H 0.621458 0.384658 0.103647
C30_4 C 0.51735(19) 0.26772(19) 0.2443(4)
C31_4 C 0.5038(2) 0.3149(2) 0.2443(4)
C32_4 C 0.5647(2) 0.2549(2) 0.2442(4)
C33_4 C 0.6017(2) 0.2914(2) 0.2435(4)
C34_4 C 0.5398(2) 0.3522(2) 0.2460(4)
C35_4 C 0.4573(2) 0.3269(2) 0.2439(4)
H23_4 H 0.448665 0.358203 0.244529
C36_4 C 0.5773(2) 0.2082(2) 0.2425(4)
H24_4 H 0.608727 0.199913 0.240472
O15_4 O 0.88027(19) 0.5339(2) 0.2883(4)
O16_4 O 0.8719(2) 0.4488(2) 0.4672(4)
N5_4 N 0.9225(2) 0.5130(3) 0.1547(5)
C37_4 C 0.8896(3) 0.5382(3) 0.1996(6)
H25_4 H 0.872887 0.559969 0.163340
N6_4 N 0.9144(4) 0.4715(6) 0.6127(9)
C38_4 C 0.9299(4) 0.5194(4) 0.0512(7)
H26_4 H 0.920707 0.491522 0.017262
H27_4 H 0.962382 0.525482 0.039234
H28_4 H 0.911544 0.545260 0.028641
C39_4 C 0.8810(5) 0.4447(6) 0.5533(9)
H29_4 H 0.864587 0.421468 0.585961
C40_4 C 0.9492(4) 0.4783(4) 0.2071(9)
H30_4 H 0.936930 0.475089 0.271675
H31_4 H 0.981304 0.487978 0.210419
H32_4 H 0.947165 0.448906 0.173813
C41_4 C 0.9256(5) 0.4691(6) 0.7153(10)
H33_4 H 0.907294 0.491748 0.750136
H34_4 H 0.958192 0.475674 0.724437
H35_4 H 0.918688 0.438406 0.739450
C42_4 C 0.9438(5) 0.5039(7) 0.5614(11)
H36_4 H 0.932751 0.507336 0.495899
H37_4 H 0.975291 0.492322 0.560599
H38_4 H 0.943027 0.533670 0.593568
O7_4 O 0.11973(19) 0.9661(2) 0.2883(4)
N2_4 N 0.0775(2) 0.9870(3) 0.1547(5)
C16_4 C 0.1104(3) 0.9618(3) 0.1996(6)
H6_4 H 0.127113 0.940031 0.163340
C17_4 C 0.0701(4) 0.9806(4) 0.0512(7)
H8_4 H 0.037618 0.974518 0.039234
H9_4 H 0.088456 0.954740 0.028641
C21_4 C 0.0562(5) 0.9961(7) 0.5614(11)
H17_4 H 0.067249 0.992664 0.495899
H19_4 H 0.056973 0.966330 0.593568
H14_4 H 0.741748 0.342706 0.000136
Sr1_2 Sr 0.25294(2) 0.55966(2) 0.37432(3)
O1_3 O 0.29776(12) 0.48899(12) 0.3199(2)
O2_2 O 0.25806(13) 0.45285(12) 0.6777(3)
O3_3 O 0.32951(15) 0.42952(14) 0.2420(2)
O4_3 O 0.31311(15) 0.41582(16) 0.7580(3)
N1_5 N 0.41272(15) 0.33630(15) 0.5030(3)
C1_5 C 0.31779(17) 0.44999(18) 0.3188(3)
C2_5 C 0.32962(17) 0.42672(17) 0.4136(3)
C3_5 C 0.29526(18) 0.43026(18) 0.6804(4)
C4_5 C 0.32038(18) 0.41858(18) 0.5876(3)
C5_5 C 0.30765(18) 0.43980(17) 0.4998(3)
H1_5 H 0.284517 0.462627 0.499054
O5_5 O 0.46799(16) 0.39306(15) 0.5080(4)
C6_5 C 0.36363(18) 0.39247(18) 0.4152(4)
H2_5 H 0.378063 0.383318 0.357644
O6_5 O 0.35674(16) 0.28023(16) 0.5051(4)
O7_5 O 0.2161(2) 0.63027(19) 0.4617(4)
C7_5 C 0.37614(18) 0.37191(18) 0.5017(4)
C8_5 C 0.35571(18) 0.38493(18) 0.5882(4)
H3_5 H 0.365342 0.371458 0.646353
C9_5 C 0.48228(19) 0.26735(19) 0.5057(4)
O8_5 O 0.3012(2) 0.6219(2) 0.2828(4)
C10_5 C 0.4351(2) 0.2538(2) 0.5057(4)
C11_5 C 0.4951(2) 0.3147(2) 0.5058(4)
C12_5 C 0.4586(2) 0.3517(2) 0.5065(4)
C13_5 C 0.3978(2) 0.2898(2) 0.5040(4)
C14_5 C 0.4231(2) 0.2073(2) 0.5061(4)
H4_5 H 0.391797 0.198665 0.505471
N2_5 N 0.2370(3) 0.6725(2) 0.5953(5)
C15_5 C 0.5418(2) 0.3273(2) 0.5075(4)
H5_5 H 0.550087 0.358727 0.509528
C16_5 C 0.2118(3) 0.6396(3) 0.5504(6)
H6_5 H 0.190031 0.622887 0.586660
N3_5 N 0.2785(6) 0.6644(4) 0.1373(9)
C17_5 C 0.2306(4) 0.6799(4) 0.6988(7)
H7_5 H 0.258478 0.670707 0.732738
H8_5 H 0.224518 0.712382 0.710766
H9_5 H 0.204740 0.661544 0.721359
C18_5 C 0.3053(6) 0.6310(5) 0.1967(9)
H10_5 H 0.328532 0.614587 0.164039
C19_5 C 0.2717(4) 0.6992(4) 0.5429(9)
H11_5 H 0.274911 0.686930 0.478325
H12_5 H 0.262022 0.731304 0.539581
H13_5 H 0.301094 0.697165 0.576187
C20_5 C 0.2809(6) 0.6756(5) 0.0347(10)
H15_5 H 0.274326 0.708192 0.025563
H16_5 H 0.311594 0.668688 0.010550
C21_5 C 0.2461(7) 0.6938(5) 0.1886(11)
H17_5 H 0.242664 0.682751 0.254101
H18_5 H 0.257678 0.725291 0.189401
H19_5 H 0.216330 0.693027 0.156432
O9_3 O 0.70224(12) 0.01101(12) 0.3199(2)
O10_2 O 0.74194(13) 0.04715(12) 0.6777(3)
O11_3 O 0.67049(15) 0.07048(14) 0.2420(2)
O12_3 O 0.68689(15) 0.08418(16) 0.7580(3)
N4_5 N 0.58728(15) 0.16370(15) 0.5030(3)
C22_5 C 0.68221(17) 0.05001(18) 0.3188(3)
C23_5 C 0.67038(17) 0.07328(17) 0.4136(3)
C24_5 C 0.70474(18) 0.06974(18) 0.6804(4)
C25_5 C 0.67962(18) 0.08142(18) 0.5876(3)
C26_5 C 0.69235(18) 0.06020(17) 0.4998(3)
H20_5 H 0.715483 0.037373 0.499054
O13_5 O 0.53201(16) 0.10694(15) 0.5080(4)
C27_5 C 0.63637(18) 0.10753(18) 0.4152(4)
H21_5 H 0.621937 0.116682 0.357644
O14_5 O 0.64326(16) 0.21977(16) 0.5051(4)
C28_5 C 0.62386(18) 0.12809(18) 0.5017(4)
C29_5 C 0.64429(18) 0.11507(18) 0.5882(4)
H22_5 H 0.634658 0.128542 0.646353
C30_5 C 0.51772(19) 0.23265(19) 0.5057(4)
C31_5 C 0.5649(2) 0.2462(2) 0.5057(4)
C32_5 C 0.5049(2) 0.1853(2) 0.5058(4)
C33_5 C 0.5414(2) 0.1483(2) 0.5065(4)
C34_5 C 0.6022(2) 0.2102(2) 0.5040(4)
C35_5 C 0.5769(2) 0.2927(2) 0.5061(4)
H23_5 H 0.608203 0.301335 0.505471
C36_5 C 0.4582(2) 0.1727(2) 0.5075(4)
H24_5 H 0.449913 0.141273 0.509528
Sr3_2 Sr 0.24706(2) 0.44034(2) 0.87432(3)
Sr4_2 Sr 0.69034(2) 0.00294(2) 0.12432(3)
Sr6_2 Sr 0.75294(2) 0.05966(2) 0.87432(3)
Sr7_2 Sr 0.19034(2) 0.50294(2) 0.62432(3)
Sr8_2 Sr 0.30966(2) 0.49706(2) 0.12432(3)
O18_3 O 0.26101(12) 0.54776(12) 0.5699(2)
O19_2 O 0.24194(13) 0.54715(12) 0.1777(3)
O20_3 O 0.79715(12) 0.00806(13) 0.4277(3)
O22_3 O 0.20285(12) 0.49194(13) 0.4277(3)
O24_3 O 0.32048(14) 0.57951(15) 0.4920(2)
O25_3 O 0.18689(15) 0.58418(16) 0.2580(3)
Sr2_2 Sr 0.74706(2) 0.94034(2) 0.37432(3)
O15_5 O 0.7839(2) 0.86973(19) 0.4617(4)
O16_5 O 0.6988(2) 0.8781(2) 0.2828(4)
N5_5 N 0.7630(3) 0.8275(2) 0.5953(5)
C37_5 C 0.7882(3) 0.8604(3) 0.5504(6)
H25_5 H 0.809969 0.877113 0.586660
N6_5 N 0.7215(6) 0.8356(4) 0.1373(9)
C38_5 C 0.7694(4) 0.8201(4) 0.6988(7)
H26_5 H 0.741522 0.829293 0.732738
H27_5 H 0.775482 0.787618 0.710766
H28_5 H 0.795260 0.838456 0.721359
C39_5 C 0.6947(6) 0.8690(5) 0.1967(9)
H29_5 H 0.671468 0.885413 0.164039
C40_5 C 0.7283(4) 0.8008(4) 0.5429(9)
H30_5 H 0.725089 0.813070 0.478325
H31_5 H 0.737978 0.768696 0.539581
H32_5 H 0.698906 0.802835 0.576187
C41_5 C 0.7191(6) 0.8244(5) 0.0347(10)
H34_5 H 0.725674 0.791808 0.025563
H35_5 H 0.688406 0.831312 0.010550
C42_5 C 0.7539(7) 0.8062(5) 0.1886(11)
H36_5 H 0.757336 0.817249 0.254101
H37_5 H 0.742322 0.774709 0.189401
H38_5 H 0.783670 0.806973 0.156432
Sr5_2 Sr 0.80966(2) 0.99706(2) 0.62432(3)
O17_3 O 0.73899(12) 0.95224(12) 0.5699(2)
O21_2 O 0.75806(13) 0.95285(12) 0.1777(3)
O23_3 O 0.67952(14) 0.92049(15) 0.4920(2)
O26_3 O 0.81311(15) 0.91582(16) 0.2580(3)
N1_6 N 0.08728(15) 0.66370(15) 0.0030(3)
C3_6 C 0.20474(18) 0.56974(18) 0.1804(4)
C4_6 C 0.17962(18) 0.58142(18) 0.0876(3)
O5_6 O 0.03201(16) 0.60694(15) 0.0080(4)
O6_6 O 0.14326(16) 0.71977(16) 0.0051(4)
C7_6 C 0.12386(18) 0.62809(18) 0.0017(4)
C8_6 C 0.14429(18) 0.61507(18) 0.0882(4)
H3_6 H 0.134658 0.628542 0.146353
C9_6 C 0.01772(19) 0.73265(19) 0.0057(4)
C10_6 C 0.0649(2) 0.7462(2) 0.0057(4)
C11_6 C 0.0049(2) 0.6853(2) 0.0058(4)
C12_6 C 0.0414(2) 0.6483(2) 0.0065(4)
C13_6 C 0.1022(2) 0.7102(2) 0.0040(4)
C14_6 C 0.0769(2) 0.7927(2) 0.0061(4)
H4_6 H 0.108203 0.801335 0.005471
N2_6 N 0.2630(3) 0.3275(2) 0.0953(5)
C16_6 C 0.2882(3) 0.3604(3) 0.0504(6)
H6_6 H 0.309969 0.377113 0.086660
C17_6 C 0.2694(4) 0.3201(4) 0.1988(7)
H7_6 H 0.241522 0.329293 0.232738
H8_6 H 0.275482 0.287618 0.210766
H9_6 H 0.295260 0.338456 0.221359
C19_6 C 0.2283(4) 0.3008(4) 0.0429(9)
H12_6 H 0.237978 0.268696 0.039581
H13_6 H 0.198906 0.302835 0.076187
C36_6 C 0.0418(2) 0.8273(2) 0.0075(4)
H24_6 H 0.050087 0.858727 0.009528
O18_4 O 0.23899(12) 0.45224(12) 0.0699(2)
O1_4 O 0.20224(12) 0.51101(12) 0.8199(2)
O3_4 O 0.17049(15) 0.57048(14) 0.7420(2)
C1_6 C 0.18221(17) 0.55001(18) 0.8188(3)
C2_6 C 0.17038(17) 0.57328(17) 0.9136(3)
C5_6 C 0.19235(18) 0.56020(17) 0.9998(3)
H1_6 H 0.215483 0.537373 0.999054
C6_6 C 0.13637(18) 0.60753(18) 0.9152(4)
H2_6 H 0.121937 0.616682 0.857644
O7_6 O 0.2839(2) 0.36973(19) 0.9617(4)
O8_6 O 0.1988(2) 0.3781(2) 0.7828(4)
N3_6 N 0.2215(6) 0.3356(4) 0.6373(9)
C18_6 C 0.1947(6) 0.3690(5) 0.6967(9)
H10_6 H 0.171468 0.385413 0.664039
H11_6 H 0.225089 0.313070 0.978325
C20_6 C 0.2191(6) 0.3244(5) 0.5347(10)
H14_5 H 0.241748 0.342706 0.499864
H15_6 H 0.225674 0.291808 0.525563
H16_6 H 0.188406 0.331312 0.510550
C21_6 C 0.2539(7) 0.3062(5) 0.6886(11)
H17_6 H 0.257336 0.317249 0.754101
H18_6 H 0.242322 0.274709 0.689401
H19_6 H 0.283670 0.306973 0.656432
O22_4 O 0.29715(12) 0.50806(13) 0.9277(3)
O24_4 O 0.17952(14) 0.42049(15) 0.9920(2)
N5_6 N 0.7370(3) 0.1725(2) 0.0953(5)
C37_6 C 0.7118(3) 0.1396(3) 0.0504(6)
H25_6 H 0.690031 0.122887 0.086660
C38_6 C 0.7306(4) 0.1799(4) 0.1988(7)
H26_6 H 0.758478 0.170707 0.232738
H27_6 H 0.724518 0.212382 0.210766
H28_6 H 0.704740 0.161544 0.221359
C40_6 C 0.7717(4) 0.1992(4) 0.0429(9)
H31_6 H 0.762022 0.231304 0.039581
H32_6 H 0.801094 0.197165 0.076187
O17_4 O 0.76101(12) 0.04776(12) 0.0699(2)
O15_6 O 0.7161(2) 0.13027(19) 0.9617(4)
O16_6 O 0.8012(2) 0.1219(2) 0.7828(4)
N6_6 N 0.7785(6) 0.1644(4) 0.6373(9)
C39_6 C 0.8053(6) 0.1310(5) 0.6967(9)
H29_6 H 0.828532 0.114587 0.664039
H30_6 H 0.774911 0.186930 0.978325
C41_6 C 0.7809(6) 0.1756(5) 0.5347(10)
H33_5 H 0.758252 0.157294 0.499864
H34_6 H 0.774326 0.208192 0.525563
H35_6 H 0.811594 0.168688 0.510550
C42_6 C 0.7461(7) 0.1938(5) 0.6886(11)
H36_6 H 0.742664 0.182751 0.754101
H37_6 H 0.757678 0.225291 0.689401
H38_6 H 0.716330 0.193027 0.656432
O23_4 O 0.82048(14) 0.07951(15) 0.9920(2)
C15_6 C 0.9582(2) 0.6727(2) 0.0075(4)
H5_6 H 0.949913 0.641273 0.009528
N4_6 N 0.91272(15) 0.83630(15) 0.0030(3)
C24_6 C 0.79526(18) 0.93026(18) 0.1804(4)
C25_6 C 0.82038(18) 0.91858(18) 0.0876(3)
O13_6 O 0.96799(16) 0.89306(15) 0.0080(4)
O14_6 O 0.85674(16) 0.78023(16) 0.0051(4)
C28_6 C 0.87614(18) 0.87191(18) 0.0017(4)
C29_6 C 0.85571(18) 0.88493(18) 0.0882(4)
H22_6 H 0.865342 0.871458 0.146353
C30_6 C 0.98228(19) 0.76735(19) 0.0057(4)
C31_6 C 0.9351(2) 0.7538(2) 0.0057(4)
C32_6 C 0.9951(2) 0.8147(2) 0.0058(4)
C33_6 C 0.9586(2) 0.8517(2) 0.0065(4)
C34_6 C 0.8978(2) 0.7898(2) 0.0040(4)
C35_6 C 0.9231(2) 0.7073(2) 0.0061(4)
H23_6 H 0.891797 0.698665 0.005471
O9_4 O 0.79776(12) 0.98899(12) 0.8199(2)
O11_4 O 0.82951(15) 0.92952(14) 0.7420(2)
C22_6 C 0.81779(17) 0.94999(18) 0.8188(3)
C23_6 C 0.82962(17) 0.92672(17) 0.9136(3)
C26_6 C 0.80765(18) 0.93980(17) 0.9998(3)
H20_6 H 0.784517 0.962627 0.999054
C27_6 C 0.86363(18) 0.89247(18) 0.9152(4)
H21_6 H 0.878063 0.883318 0.857644
O20_4 O 0.70285(12) 0.99194(13) 0.9277(3)
C14_7 C 0.0427(2) 0.1731(2) 0.2561(4)
H4_7 H 0.051335 0.141797 0.255471
O12_4 O 0.16582(16) 0.43689(15) 0.5080(3)
N4_7 N 0.08630(15) 0.33728(15) 0.2530(3)
C22_7 C 0.19999(18) 0.43221(17) 0.0688(3)
C23_7 C 0.17672(17) 0.42038(17) 0.1636(3)
C24_7 C 0.18026(18) 0.45474(18) 0.4304(4)
C25_7 C 0.16858(18) 0.42962(18) 0.3376(3)
C26_7 C 0.18980(17) 0.44235(18) 0.2498(3)
H20_7 H 0.212627 0.465483 0.249054
O13_7 O 0.14306(15) 0.28201(16) 0.2580(4)
C27_7 C 0.14247(18) 0.38637(18) 0.1652(4)
H21_7 H 0.133318 0.371937 0.107644
O14_7 O 0.03023(16) 0.39326(16) 0.2551(4)
C28_7 C 0.12191(18) 0.37386(18) 0.2517(4)
C29_7 C 0.13493(18) 0.39429(18) 0.3382(4)
H22_7 H 0.121458 0.384658 0.396353
C30_7 C 0.01735(19) 0.26772(19) 0.2557(4)
C31_7 C 0.0038(2) 0.3149(2) 0.2557(4)
C32_7 C 0.0647(2) 0.2549(2) 0.2558(4)
C33_7 C 0.1017(2) 0.2914(2) 0.2565(4)
C34_7 C 0.0398(2) 0.3522(2) 0.2540(4)
C36_7 C 0.0773(2) 0.2082(2) 0.2575(4)
H24_7 H 0.108727 0.199913 0.259528
O15_7 O 0.38027(19) 0.5339(2) 0.2117(4)
O16_7 O 0.3719(2) 0.4488(2) 0.0328(4)
N5_7 N 0.4225(2) 0.5130(3) 0.3453(5)
C37_7 C 0.3896(3) 0.5382(3) 0.3004(6)
H25_7 H 0.372887 0.559969 0.336660
C38_7 C 0.4299(4) 0.5194(4) 0.4488(7)
H26_7 H 0.420707 0.491522 0.482738
H27_7 H 0.462382 0.525482 0.460766
H28_7 H 0.411544 0.545260 0.471359
C40_7 C 0.4492(4) 0.4783(4) 0.2929(9)
H30_7 H 0.436930 0.475089 0.228325
H31_7 H 0.481304 0.487978 0.289581
H32_7 H 0.447165 0.448906 0.326187
H36_7 H 0.432751 0.507336 0.004101
O26_4 O 0.33418(16) 0.56311(15) 0.0080(3)
N6_7 N 0.4144(4) 0.4715(6) 0.8873(9)
C39_7 C 0.3810(5) 0.4447(6) 0.9467(9)
H29_7 H 0.364587 0.421468 0.914039
C41_7 C 0.4256(5) 0.4691(6) 0.7847(10)
H33_6 H 0.407294 0.491748 0.749864
H34_7 H 0.458192 0.475674 0.775563
H35_7 H 0.418688 0.438406 0.760550
C42_7 C 0.4438(5) 0.5039(7) 0.9386(11)
H37_7 H 0.475291 0.492322 0.939401
H38_7 H 0.443027 0.533670 0.906432
O4_4 O 0.83418(16) 0.06311(15) 0.5080(3)
N1_7 N 0.91370(15) 0.16272(15) 0.2530(3)
C1_7 C 0.80001(18) 0.06779(17) 0.0688(3)
C2_7 C 0.82328(17) 0.07962(17) 0.1636(3)
C3_7 C 0.81974(18) 0.04526(18) 0.4304(4)
C4_7 C 0.83142(18) 0.07038(18) 0.3376(3)
C5_7 C 0.81020(17) 0.05765(18) 0.2498(3)
H1_7 H 0.787373 0.034517 0.249054
O5_7 O 0.85694(15) 0.21799(16) 0.2580(4)
C6_7 C 0.85753(18) 0.11363(18) 0.1652(4)
H2_7 H 0.866682 0.128063 0.107644
O6_7 O 0.96977(16) 0.10674(16) 0.2551(4)
C7_7 C 0.87809(18) 0.12614(18) 0.2517(4)
C8_7 C 0.86507(18) 0.10571(18) 0.3382(4)
H3_7 H 0.878542 0.115342 0.396353
C9_7 C 0.98265(19) 0.23228(19) 0.2557(4)
O8_7 O 0.6281(2) 0.0512(2) 0.0328(4)
C10_7 C 0.9962(2) 0.1851(2) 0.2557(4)
C11_7 C 0.9353(2) 0.2451(2) 0.2558(4)
C12_7 C 0.8983(2) 0.2086(2) 0.2565(4)
C13_7 C 0.9602(2) 0.1478(2) 0.2540(4)
C15_7 C 0.9227(2) 0.2918(2) 0.2575(4)
H5_7 H 0.891273 0.300087 0.259528
H7_7 H 0.579293 0.008478 0.482738
C19_7 C 0.5508(4) 0.0217(4) 0.2929(9)
H11_7 H 0.563070 0.024911 0.228325
H12_7 H 0.518696 0.012022 0.289581
H13_7 H 0.552835 0.051094 0.326187
C35_7 C 0.9573(2) 0.3269(2) 0.2561(4)
H23_7 H 0.948665 0.358203 0.255471
N3_7 N 0.5856(4) 0.0285(6) 0.8873(9)
C18_7 C 0.6190(5) 0.0553(6) 0.9467(9)
H10_7 H 0.635413 0.078532 0.914039
C20_7 C 0.5744(5) 0.0309(6) 0.7847(10)
H14_6 H 0.592706 0.008252 0.749864
H15_7 H 0.541808 0.024326 0.775563
H16_7 H 0.581312 0.061594 0.760550
H18_7 H 0.524709 0.007678 0.939401
O7_7 O 0.61973(19) 0.9661(2) 0.2117(4)
N2_7 N 0.5775(2) 0.9870(3) 0.3453(5)
C16_7 C 0.6104(3) 0.9618(3) 0.3004(6)
H6_7 H 0.627113 0.940031 0.336660
C17_7 C 0.5701(4) 0.9806(4) 0.4488(7)
H8_7 H 0.537618 0.974518 0.460766
H9_7 H 0.588456 0.954740 0.471359
H17_7 H 0.567249 0.992664 0.004101
O25_4 O 0.66582(16) 0.93689(15) 0.0080(3)
C21_7 C 0.5562(5) 0.9961(7) 0.9386(11)
H19_7 H 0.556973 0.966330 0.906432
O7_8 O 0.88027(19) 0.0339(2) 0.7117(4)
N2_8 N 0.9225(2) 0.0130(3) 0.8453(5)
C16_8 C 0.8896(3) 0.0382(3) 0.8004(6)
H6_8 H 0.872887 0.059969 0.836660
C17_8 C 0.9299(4) 0.0194(4) 0.9488(7)
H8_8 H 0.962382 0.025482 0.960766
H9_8 H 0.911544 0.045260 0.971359
C21_8 C 0.9438(5) 0.0039(7) 0.4386(11)
H17_8 H 0.932751 0.007336 0.504101
H19_8 H 0.943027 0.033670 0.406432
N1_8 N 0.58630(15) 0.83728(15) 0.7530(3)
C1_8 C 0.69999(18) 0.93221(17) 0.5688(3)
C2_8 C 0.67672(17) 0.92038(17) 0.6636(3)
C3_8 C 0.68026(18) 0.95474(18) 0.9304(4)
C4_8 C 0.66858(18) 0.92962(18) 0.8376(3)
C5_8 C 0.68980(17) 0.94235(18) 0.7498(3)
H1_8 H 0.712627 0.965483 0.749054
O5_8 O 0.64306(15) 0.78201(16) 0.7580(4)
C6_8 C 0.64247(18) 0.88637(18) 0.6652(4)
H2_8 H 0.633318 0.871937 0.607644
O6_8 O 0.53023(16) 0.89326(16) 0.7551(4)
C7_8 C 0.62191(18) 0.87386(18) 0.7517(4)
C8_8 C 0.63493(18) 0.89429(18) 0.8382(4)
H3_8 H 0.621458 0.884658 0.896353
C9_8 C 0.51735(19) 0.76772(19) 0.7557(4)
O8_8 O 0.8719(2) 0.9488(2) 0.5328(4)
C10_8 C 0.5038(2) 0.8149(2) 0.7557(4)
C11_8 C 0.5647(2) 0.7549(2) 0.7558(4)
C12_8 C 0.6017(2) 0.7914(2) 0.7565(4)
C13_8 C 0.5398(2) 0.8522(2) 0.7540(4)
C14_8 C 0.4573(2) 0.8269(2) 0.7561(4)
H4_8 H 0.448665 0.858203 0.755471
C15_8 C 0.5773(2) 0.7082(2) 0.7575(4)
H5_8 H 0.608727 0.699913 0.759528
N3_8 N 0.9144(4) 0.9715(6) 0.3873(9)
H7_8 H 0.920707 0.991522 0.982738
C18_8 C 0.8810(5) 0.9447(6) 0.4467(9)
H10_8 H 0.864587 0.921468 0.414039
C19_8 C 0.9492(4) 0.9783(4) 0.7929(9)
H11_8 H 0.936930 0.975089 0.728325
H12_8 H 0.981304 0.987978 0.789581
H13_8 H 0.947165 0.948906 0.826187
C20_8 C 0.9256(5) 0.9691(6) 0.2847(10)
H14_7 H 0.907294 0.991748 0.249864
H15_8 H 0.958192 0.975674 0.275563
H16_8 H 0.918688 0.938406 0.260550
H18_8 H 0.975291 0.992322 0.439401
N4_8 N 0.41370(15) 0.66272(15) 0.7530(3)
C22_8 C 0.30001(18) 0.56779(17) 0.5688(3)
C23_8 C 0.32328(17) 0.57962(17) 0.6636(3)
C24_8 C 0.31974(18) 0.54526(18) 0.9304(4)
C25_8 C 0.33142(18) 0.57038(18) 0.8376(3)
C26_8 C 0.31020(17) 0.55765(18) 0.7498(3)
H20_8 H 0.287373 0.534517 0.749054
O13_8 O 0.35694(15) 0.71799(16) 0.7580(4)
C27_8 C 0.35753(18) 0.61363(18) 0.6652(4)
H21_8 H 0.366682 0.628063 0.607644
O14_8 O 0.46977(16) 0.60674(16) 0.7551(4)
C28_8 C 0.37809(18) 0.62614(18) 0.7517(4)
C29_8 C 0.36507(18) 0.60571(18) 0.8382(4)
H22_8 H 0.378542 0.615342 0.896353
C30_8 C 0.48265(19) 0.73228(19) 0.7557(4)
C31_8 C 0.4962(2) 0.6851(2) 0.7557(4)
C32_8 C 0.4353(2) 0.7451(2) 0.7558(4)
C33_8 C 0.3983(2) 0.7086(2) 0.7565(4)
C34_8 C 0.4602(2) 0.6478(2) 0.7540(4)
C35_8 C 0.5427(2) 0.6731(2) 0.7561(4)
H23_8 H 0.551335 0.641797 0.755471
C36_8 C 0.4227(2) 0.7918(2) 0.7575(4)
H24_8 H 0.391273 0.800087 0.759528
O15_8 O 0.11973(19) 0.4661(2) 0.7117(4)
O16_8 O 0.1281(2) 0.5512(2) 0.5328(4)
N5_8 N 0.0775(2) 0.4870(3) 0.8453(5)
C37_8 C 0.1104(3) 0.4618(3) 0.8004(6)
H25_8 H 0.127113 0.440031 0.836660
N6_8 N 0.0856(4) 0.5285(6) 0.3873(9)
C38_8 C 0.0701(4) 0.4806(4) 0.9488(7)
H26_8 H 0.079293 0.508478 0.982738
H27_8 H 0.037618 0.474518 0.960766
H28_8 H 0.088456 0.454740 0.971359
C39_8 C 0.1190(5) 0.5553(6) 0.4467(9)
H29_8 H 0.135413 0.578532 0.414039
C40_8 C 0.0508(4) 0.5217(4) 0.7929(9)
H30_8 H 0.063070 0.524911 0.728325
H31_8 H 0.018696 0.512022 0.789581
H32_8 H 0.052835 0.551094 0.826187
C41_8 C 0.0744(5) 0.5309(6) 0.2847(10)
H33_7 H 0.092706 0.508252 0.249864
H34_8 H 0.041808 0.524326 0.275563
H35_8 H 0.081312 0.561594 0.260550
C42_8 C 0.0562(5) 0.4961(7) 0.4386(11)
H36_8 H 0.067249 0.492664 0.504101
H37_8 H 0.024709 0.507678 0.439401
H38_8 H 0.056973 0.466330 0.406432
H14_8 H 0.258252 0.657294 0.999864
H33_8 H 0.741748 0.842706 0.999864
loop_
_geom_bond_atom_site_label_1
_geom_bond_atom_site_label_2
_geom_bond_site_symmetry_1
_geom_bond_site_symmetry_2
O15 Sr2 1_555 1_555
O16 Sr2 1_555 1_555
N5 C37 1_555 1_555
C37 O15 1_555 1_555
H25 C37 1_555 1_555
N6 C39 1_555 1_555
C38 N5 1_555 1_555
H26 C38 1_555 1_555
H27 C38 1_555 1_555
H28 C38 1_555 1_555
C39 O16 1_555 1_555
H29 C39 1_555 1_555
C40 N5 1_555 1_555
H30 C40 1_555 1_555
H31 C40 1_555 1_555
H32 C40 1_555 1_555
C41 N6 1_555 1_555
H34 C41 1_555 1_555
H35 C41 1_555 1_555
C42 N6 1_555 1_555
H36 C42 1_555 1_555
H37 C42 1_555 1_555
H38 C42 1_555 1_555
O17 Sr2 1_555 1_555
O21 Sr2 1_555 1_555
O23 Sr2 1_555 1_555
O26 Sr2 1_555 1_555
Sr5 O17 1_555 1_555
Sr1 O1 1_555 1_555
O1 C1 1_555 1_555
O2 C3 1_555 1_555
O3 C1 1_555 1_555
O4 C3 1_555 1_555
N1 C7 1_555 1_555
C1 C2 1_555 1_555
C2 C5 1_555 1_555
C3 C4 1_555 1_555
C4 C5 1_555 1_555
C5 H1 1_555 1_555
O5 C12 1_555 1_555
C6 C2 1_555 1_555
H2 C6 1_555 1_555
O6 C13 1_555 1_555
O7 Sr1 1_555 1_555
C7 C6 1_555 1_555
C8 C4 1_555 1_555
H3 C8 1_555 1_555
C9 C10 1_555 1_555
O8 Sr1 1_555 1_555
C10 C13 1_555 1_555
C11 C9 1_555 1_555
C12 N1 1_555 1_555
C13 N1 1_555 1_555
C14 C10 1_555 1_555
H4 C14 1_555 1_555
N2 C16 1_555 1_555
C15 C11 1_555 1_555
H5 C15 1_555 1_555
C16 O7 1_555 1_555
H6 C16 1_555 1_555
N3 C18 1_555 1_555
C17 N2 1_555 1_555
H7 C17 1_555 1_555
H8 C17 1_555 1_555
H9 C17 1_555 1_555
C18 O8 1_555 1_555
H10 C18 1_555 1_555
C19 N2 1_555 1_555
H11 C19 1_555 1_555
H12 C19 1_555 1_555
H13 C19 1_555 1_555
C20 N3 1_555 1_555
H15 C20 1_555 1_555
H16 C20 1_555 1_555
C21 N3 1_555 1_555
H17 C21 1_555 1_555
H18 C21 1_555 1_555
H19 C21 1_555 1_555
O9 C22 1_555 1_555
O10 C24 1_555 1_555
O11 C22 1_555 1_555
O12 C24 1_555 1_555
N4 C28 1_555 1_555
C22 C23 1_555 1_555
C23 C26 1_555 1_555
C24 C25 1_555 1_555
C25 C26 1_555 1_555
C26 H20 1_555 1_555
O13 C33 1_555 1_555
C27 C23 1_555 1_555
H21 C27 1_555 1_555
O14 C34 1_555 1_555
C28 C27 1_555 1_555
C29 C25 1_555 1_555
H22 C29 1_555 1_555
C30 C9 1_555 1_555
C31 C30 1_555 1_555
C32 C30 1_555 1_555
C33 N4 1_555 1_555
C34 N4 1_555 1_555
C35 C15 1_555 1_555
H23 C35 1_555 1_555
C36 C14 1_555 1_555
H24 C36 1_555 1_555
Sr3 O2 1_555 1_555
Sr4 O9 1_555 1_555
Sr6 O10 1_555 1_555
Sr7 O2 1_555 1_555
Sr8 O1 1_555 1_555
O18 Sr1 1_555 1_555
O19 Sr1 1_555 1_555
O22 Sr1 1_555 1_555
O24 Sr1 1_555 1_555
O25 Sr1 1_555 1_555
O3 Sr8 1_555 1_555
O4 Sr3 1_555 1_555
C7 C8 1_555 1_555
C11 C12 1_555 1_555
O11 Sr4 1_555 1_555
O12 Sr6 1_555 1_555
C28 C29 1_555 1_555
C31 C34 1_555 1_555
C31 C35 1_555 1_555
C32 C33 1_555 1_555
C32 C36 1_555 1_555
Sr7 O18 1_555 1_555
Sr7 O22 1_555 1_555
Sr8 O19 1_555 1_555
O9_2 C22_2 1_555 1_555
O11_2 C22_2 1_555 1_555
C22_2 C23_2 1_555 1_555
C23_2 C26_2 1_555 1_555
C26_2 H20_2 1_555 1_555
C27_2 C23_2 1_555 1_555
H21_2 C27_2 1_555 1_555
Sr5 O9_2 1_555 1_555
O11_2 Sr5 1_555 1_555
H5_2 C15_2 1_555 1_555
O21 C24_2 1_555 1_555
O26 C24_2 1_555 1_555
N4_2 C28_2 1_555 1_555
C24_2 C25_2 1_555 1_555
O13_2 C33_2 1_555 1_555
O14_2 C34_2 1_555 1_555
C29_2 C25_2 1_555 1_555
H22_2 C29_2 1_555 1_555
C31_2 C30_2 1_555 1_555
C32_2 C30_2 1_555 1_555
C33_2 N4_2 1_555 1_555
C34_2 N4_2 1_555 1_555
C35_2 C15_2 1_555 1_555
H23_2 C35_2 1_555 1_555
C28_2 C29_2 1_555 1_555
C31_2 C34_2 1_555 1_555
C31_2 C35_2 1_555 1_555
C32_2 C33_2 1_555 1_555
O15_2 Sr6 1_555 1_555
O16_2 Sr6 1_555 1_555
N6_2 C39_2 1_555 1_555
C39_2 O16_2 1_555 1_555
H29_2 C39_2 1_555 1_555
C41_2 N6_2 1_555 1_555
H33_2 C41_2 1_555 1_555
H34_2 C41_2 1_555 1_555
H35_2 C41_2 1_555 1_555
C42_2 N6_2 1_555 1_555
H36_2 C42_2 1_555 1_555
H37_2 C42_2 1_555 1_555
H38_2 C42_2 1_555 1_555
O23_2 Sr6 1_555 1_555
N5_2 C37_2 1_555 1_555
H25_2 C37_2 1_555 1_555
C38_2 N5_2 1_555 1_555
H26_2 C38_2 1_555 1_555
H27_2 C38_2 1_555 1_555
H28_2 C38_2 1_555 1_555
C40_2 N5_2 1_555 1_555
H31_2 C40_2 1_555 1_555
H32_2 C40_2 1_555 1_555
Sr4 O17_2 1_555 1_555
Sr3 O1_2 1_555 1_555
O1_2 C1_2 1_555 1_555
O3_2 C1_2 1_555 1_555
C1_2 C2_2 1_555 1_555
C2_2 C5_2 1_555 1_555
C5_2 H1_2 1_555 1_555
C6_2 C2_2 1_555 1_555
H2_2 C6_2 1_555 1_555
O7_2 Sr3 1_555 1_555
O8_2 Sr3 1_555 1_555
N3_2 C18_2 1_555 1_555
C18_2 O8_2 1_555 1_555
H10_2 C18_2 1_555 1_555
C20_2 N3_2 1_555 1_555
H14 C20_2 1_555 1_555
H15_2 C20_2 1_555 1_555
H16_2 C20_2 1_555 1_555
C21_2 N3_2 1_555 1_555
H17_2 C21_2 1_555 1_555
H18_2 C21_2 1_555 1_555
H19_2 C21_2 1_555 1_555
Sr7 O1_2 1_555 1_555
O22_2 Sr3 1_555 1_555
O24_2 Sr3 1_555 1_555
O3_2 Sr7 1_555 1_555
O19 C3_2 1_555 1_555
O25 C3_2 1_555 1_555
N1_2 C7_2 1_555 1_555
C3_2 C4_2 1_555 1_555
O5_2 C12_2 1_555 1_555
O6_2 C13_2 1_555 1_555
C8_2 C4_2 1_555 1_555
H3_2 C8_2 1_555 1_555
C9_2 C10_2 1_555 1_555
C10_2 C13_2 1_555 1_555
C11_2 C9_2 1_555 1_555
C12_2 N1_2 1_555 1_555
C13_2 N1_2 1_555 1_555
C14_2 C10_2 1_555 1_555
H4_2 C14_2 1_555 1_555
N2_2 C16_2 1_555 1_555
H6_2 C16_2 1_555 1_555
C17_2 N2_2 1_555 1_555
H7_2 C17_2 1_555 1_555
H8_2 C17_2 1_555 1_555
H9_2 C17_2 1_555 1_555
C19_2 N2_2 1_555 1_555
H12_2 C19_2 1_555 1_555
H13_2 C19_2 1_555 1_555
C36_2 C14_2 1_555 1_555
H24_2 C36_2 1_555 1_555
C7_2 C8_2 1_555 1_555
C11_2 C12_2 1_555 1_555
Sr8 O18_2 1_555 1_555
H19_3 C21_3 1_555 1_555
N2_3 C16_3 1_555 1_555
C16_3 O7_3 1_555 1_555
H6_3 C16_3 1_555 1_555
C17_3 N2_3 1_555 1_555
H8_3 C17_3 1_555 1_555
H9_3 C17_3 1_555 1_555
N3_3 C18_3 1_555 1_555
H10_3 C18_3 1_555 1_555
C20_3 N3_3 1_555 1_555
H14_2 C20_3 1_555 1_555
H15_3 C20_3 1_555 1_555
H16_3 C20_3 1_555 1_555
O17_2 C1_3 1_555 1_555
O20 C3_3 1_555 1_555
O4_2 C3_3 1_555 1_555
N1_3 C7_3 1_555 1_555
C1_3 C2_3 1_555 1_555
C2_3 C5_3 1_555 1_555
C3_3 C4_3 1_555 1_555
C4_3 C5_3 1_555 1_555
C5_3 H1_3 1_555 1_555
O5_3 C12_3 1_555 1_555
C6_3 C2_3 1_555 1_555
H2_3 C6_3 1_555 1_555
O6_3 C13_3 1_555 1_555
C7_3 C6_3 1_555 1_555
C8_3 C4_3 1_555 1_555
H3_3 C8_3 1_555 1_555
C9_3 C10_3 1_555 1_555
O8_3 Sr4 1_555 1_555
C10_3 C13_3 1_555 1_555
C11_3 C9_3 1_555 1_555
C12_3 N1_3 1_555 1_555
C13_3 N1_3 1_555 1_555
C15_3 C11_3 1_555 1_555
H5_3 C15_3 1_555 1_555
H11_3 C19_3 1_555 1_555
H12_3 C19_3 1_555 1_555
H13_3 C19_3 1_555 1_555
C35_3 C15_3 1_555 1_555
H23_3 C35_3 1_555 1_555
C7_3 C8_3 1_555 1_555
C11_3 C12_3 1_555 1_555
N6_3 C39_3 1_555 1_555
H29_3 C39_3 1_555 1_555
C41_3 N6_3 1_555 1_555
H33_3 C41_3 1_555 1_555
H34_3 C41_3 1_555 1_555
H35_3 C41_3 1_555 1_555
C42_3 N6_3 1_555 1_555
H37_3 C42_3 1_555 1_555
H38_3 C42_3 1_555 1_555
H4_3 C14_3 1_555 1_555
O18_2 C22_3 1_555 1_555
O22 C24_3 1_555 1_555
O12_2 C24_3 1_555 1_555
N4_3 C28_3 1_555 1_555
C22_3 C23_3 1_555 1_555
C23_3 C26_3 1_555 1_555
C24_3 C25_3 1_555 1_555
C25_3 C26_3 1_555 1_555
C26_3 H20_3 1_555 1_555
O13_3 C33_3 1_555 1_555
C27_3 C23_3 1_555 1_555
H21_3 C27_3 1_555 1_555
O14_3 C34_3 1_555 1_555
C28_3 C27_3 1_555 1_555
C29_3 C25_3 1_555 1_555
H22_3 C29_3 1_555 1_555
C31_3 C30_3 1_555 1_555
C32_3 C30_3 1_555 1_555
C33_3 N4_3 1_555 1_555
C34_3 N4_3 1_555 1_555
C36_3 C14_3 1_555 1_555
H24_3 C36_3 1_555 1_555
O15_3 Sr8 1_555 1_555
O16_3 Sr8 1_555 1_555
N5_3 C37_3 1_555 1_555
C37_3 O15_3 1_555 1_555
H25_3 C37_3 1_555 1_555
C38_3 N5_3 1_555 1_555
H26_3 C38_3 1_555 1_555
H27_3 C38_3 1_555 1_555
H28_3 C38_3 1_555 1_555
C40_3 N5_3 1_555 1_555
H30_3 C40_3 1_555 1_555
H31_3 C40_3 1_555 1_555
H32_3 C40_3 1_555 1_555
O26_2 Sr8 1_555 1_555
O12_2 Sr7 1_555 1_555
C28_3 C29_3 1_555 1_555
C31_3 C34_3 1_555 1_555
C32_3 C33_3 1_555 1_555
C32_3 C36_3 1_555 1_555
O17 C1_4 1_555 1_555
O20_2 C3_4 1_555 1_555
O23 C1_4 1_555 1_555
N1_4 C7_4 1_555 1_555
C1_4 C2_4 1_555 1_555
C2_4 C5_4 1_555 1_555
C3_4 C4_4 1_555 1_555
C4_4 C5_4 1_555 1_555
C5_4 H1_4 1_555 1_555
O5_4 C12_4 1_555 1_555
C6_4 C2_4 1_555 1_555
H2_4 C6_4 1_555 1_555
O6_4 C13_4 1_555 1_555
C7_4 C6_4 1_555 1_555
C8_4 C4_4 1_555 1_555
H3_4 C8_4 1_555 1_555
C9_4 C10_4 1_555 1_555
O8_4 Sr5 1_555 1_555
C10_4 C13_4 1_555 1_555
C11_4 C9_4 1_555 1_555
C12_4 N1_4 1_555 1_555
C13_4 N1_4 1_555 1_555
C14_4 C10_4 1_555 1_555
H4_4 C14_4 1_555 1_555
C15_4 C11_4 1_555 1_555
H5_4 C15_4 1_555 1_555
N3_4 C18_4 1_555 1_555
C18_4 O8_4 1_555 1_555
H10_4 C18_4 1_555 1_555
H11_4 C19_4 1_555 1_555
H12_4 C19_4 1_555 1_555
H13_4 C19_4 1_555 1_555
C20_4 N3_4 1_555 1_555
H14_3 C20_4 1_555 1_555
H15_4 C20_4 1_555 1_555
H16_4 C20_4 1_555 1_555
O18 C22_4 1_555 1_555
O22_2 C24_4 1_555 1_555
O24 C22_4 1_555 1_555
N4_4 C28_4 1_555 1_555
C22_4 C23_4 1_555 1_555
C23_4 C26_4 1_555 1_555
C24_4 C25_4 1_555 1_555
C25_4 C26_4 1_555 1_555
C26_4 H20_4 1_555 1_555
O13_4 C33_4 1_555 1_555
C27_4 C23_4 1_555 1_555
H21_4 C27_4 1_555 1_555
O14_4 C34_4 1_555 1_555
C28_4 C27_4 1_555 1_555
C29_4 C25_4 1_555 1_555
H22_4 C29_4 1_555 1_555
C30_4 C9_4 1_555 1_555
C31_4 C30_4 1_555 1_555
C32_4 C30_4 1_555 1_555
C33_4 N4_4 1_555 1_555
C34_4 N4_4 1_555 1_555
C35_4 C15_4 1_555 1_555
H23_4 C35_4 1_555 1_555
C36_4 C14_4 1_555 1_555
H24_4 C36_4 1_555 1_555
O15_4 Sr7 1_555 1_555
O16_4 Sr7 1_555 1_555
N5_4 C37_4 1_555 1_555
C37_4 O15_4 1_555 1_555
H25_4 C37_4 1_555 1_555
N6_4 C39_4 1_555 1_555
C38_4 N5_4 1_555 1_555
H26_4 C38_4 1_555 1_555
H27_4 C38_4 1_555 1_555
H28_4 C38_4 1_555 1_555
C39_4 O16_4 1_555 1_555
H29_4 C39_4 1_555 1_555
C40_4 N5_4 1_555 1_555
H30_4 C40_4 1_555 1_555
H31_4 C40_4 1_555 1_555
H32_4 C40_4 1_555 1_555
C41_4 N6_4 1_555 1_555
H33_4 C41_4 1_555 1_555
H34_4 C41_4 1_555 1_555
H35_4 C41_4 1_555 1_555
C42_4 N6_4 1_555 1_555
H36_4 C42_4 1_555 1_555
H37_4 C42_4 1_555 1_555
H38_4 C42_4 1_555 1_555
C7_4 C8_4 1_555 1_555
C11_4 C12_4 1_555 1_555
C28_4 C29_4 1_555 1_555
C31_4 C34_4 1_555 1_555
C31_4 C35_4 1_555 1_555
C32_4 C33_4 1_555 1_555
C32_4 C36_4 1_555 1_555
N2_4 C16_4 1_555 1_555
C16_4 O7_4 1_555 1_555
H6_4 C16_4 1_555 1_555
C17_4 N2_4 1_555 1_555
H8_4 C17_4 1_555 1_555
H9_4 C17_4 1_555 1_555
H17_4 C21_4 1_555 1_555
H19_4 C21_4 1_555 1_555
Sr1_2 O1_3 1_555 1_555
O1_3 C1_5 1_555 1_555
O2_2 C3_5 1_555 1_555
O3_3 C1_5 1_555 1_555
O4_3 C3_5 1_555 1_555
N1_5 C7_5 1_555 1_555
C1_5 C2_5 1_555 1_555
C2_5 C5_5 1_555 1_555
C3_5 C4_5 1_555 1_555
C4_5 C5_5 1_555 1_555
C5_5 H1_5 1_555 1_555
O5_5 C12_5 1_555 1_555
C6_5 C2_5 1_555 1_555
H2_5 C6_5 1_555 1_555
O6_5 C13_5 1_555 1_555
O7_5 Sr1_2 1_555 1_555
C7_5 C6_5 1_555 1_555
C8_5 C4_5 1_555 1_555
H3_5 C8_5 1_555 1_555
C9_5 C10_5 1_555 1_555
O8_5 Sr1_2 1_555 1_555
C10_5 C13_5 1_555 1_555
C11_5 C9_5 1_555 1_555
C12_5 N1_5 1_555 1_555
C13_5 N1_5 1_555 1_555
C14_5 C10_5 1_555 1_555
H4_5 C14_5 1_555 1_555
N2_5 C16_5 1_555 1_555
C15_5 C11_5 1_555 1_555
H5_5 C15_5 1_555 1_555
C16_5 O7_5 1_555 1_555
H6_5 C16_5 1_555 1_555
N3_5 C18_5 1_555 1_555
C17_5 N2_5 1_555 1_555
H7_5 C17_5 1_555 1_555
H8_5 C17_5 1_555 1_555
H9_5 C17_5 1_555 1_555
C18_5 O8_5 1_555 1_555
H10_5 C18_5 1_555 1_555
C19_5 N2_5 1_555 1_555
H11_5 C19_5 1_555 1_555
H12_5 C19_5 1_555 1_555
H13_5 C19_5 1_555 1_555
C20_5 N3_5 1_555 1_555
H15_5 C20_5 1_555 1_555
H16_5 C20_5 1_555 1_555
C21_5 N3_5 1_555 1_555
H17_5 C21_5 1_555 1_555
H18_5 C21_5 1_555 1_555
H19_5 C21_5 1_555 1_555
O9_3 C22_5 1_555 1_555
O10_2 C24_5 1_555 1_555
O11_3 C22_5 1_555 1_555
O12_3 C24_5 1_555 1_555
N4_5 C28_5 1_555 1_555
C22_5 C23_5 1_555 1_555
C23_5 C26_5 1_555 1_555
C24_5 C25_5 1_555 1_555
C25_5 C26_5 1_555 1_555
C26_5 H20_5 1_555 1_555
O13_5 C33_5 1_555 1_555
C27_5 C23_5 1_555 1_555
H21_5 C27_5 1_555 1_555
O14_5 C34_5 1_555 1_555
C28_5 C27_5 1_555 1_555
C29_5 C25_5 1_555 1_555
H22_5 C29_5 1_555 1_555
C30_5 C9_5 1_555 1_555
C31_5 C30_5 1_555 1_555
C32_5 C30_5 1_555 1_555
C33_5 N4_5 1_555 1_555
C34_5 N4_5 1_555 1_555
C35_5 C15_5 1_555 1_555
H23_5 C35_5 1_555 1_555
C36_5 C14_5 1_555 1_555
H24_5 C36_5 1_555 1_555
Sr3_2 O2_2 1_555 1_555
Sr4_2 O9_3 1_555 1_555
Sr6_2 O10_2 1_555 1_555
Sr7_2 O2_2 1_555 1_555
Sr8_2 O1_3 1_555 1_555
O18_3 Sr1_2 1_555 1_555
O19_2 Sr1_2 1_555 1_555
O22_3 Sr1_2 1_555 1_555
O24_3 Sr1_2 1_555 1_555
O25_3 Sr1_2 1_555 1_555
O3_3 Sr8_2 1_555 1_555
O4_3 Sr3_2 1_555 1_555
C7_5 C8_5 1_555 1_555
C11_5 C12_5 1_555 1_555
O11_3 Sr4_2 1_555 1_555
O12_3 Sr6_2 1_555 1_555
C28_5 C29_5 1_555 1_555
C31_5 C34_5 1_555 1_555
C31_5 C35_5 1_555 1_555
C32_5 C33_5 1_555 1_555
C32_5 C36_5 1_555 1_555
Sr7_2 O18_3 1_555 1_555
Sr7_2 O22_3 1_555 1_555
Sr8_2 O19_2 1_555 1_555
O15_5 Sr2_2 1_555 1_555
O16_5 Sr2_2 1_555 1_555
N5_5 C37_5 1_555 1_555
C37_5 O15_5 1_555 1_555
H25_5 C37_5 1_555 1_555
N6_5 C39_5 1_555 1_555
C38_5 N5_5 1_555 1_555
H26_5 C38_5 1_555 1_555
H27_5 C38_5 1_555 1_555
H28_5 C38_5 1_555 1_555
C39_5 O16_5 1_555 1_555
H29_5 C39_5 1_555 1_555
C40_5 N5_5 1_555 1_555
H30_5 C40_5 1_555 1_555
H31_5 C40_5 1_555 1_555
H32_5 C40_5 1_555 1_555
C41_5 N6_5 1_555 1_555
H34_5 C41_5 1_555 1_555
H35_5 C41_5 1_555 1_555
C42_5 N6_5 1_555 1_555
H36_5 C42_5 1_555 1_555
H37_5 C42_5 1_555 1_555
H38_5 C42_5 1_555 1_555
O17_3 Sr2_2 1_555 1_555
O21_2 Sr2_2 1_555 1_555
O23_3 Sr2_2 1_555 1_555
O26_3 Sr2_2 1_555 1_555
Sr5_2 O17_3 1_555 1_555
O19_2 C3_6 1_555 1_555
O25_3 C3_6 1_555 1_555
N1_6 C7_6 1_555 1_555
C3_6 C4_6 1_555 1_555
O5_6 C12_6 1_555 1_555
O6_6 C13_6 1_555 1_555
C8_6 C4_6 1_555 1_555
H3_6 C8_6 1_555 1_555
C9_6 C10_6 1_555 1_555
C10_6 C13_6 1_555 1_555
C11_6 C9_6 1_555 1_555
C12_6 N1_6 1_555 1_555
C13_6 N1_6 1_555 1_555
C14_6 C10_6 1_555 1_555
H4_6 C14_6 1_555 1_555
N2_6 C16_6 1_555 1_555
H6_6 C16_6 1_555 1_555
C17_6 N2_6 1_555 1_555
H7_6 C17_6 1_555 1_555
H8_6 C17_6 1_555 1_555
H9_6 C17_6 1_555 1_555
C19_6 N2_6 1_555 1_555
H12_6 C19_6 1_555 1_555
H13_6 C19_6 1_555 1_555
C36_6 C14_6 1_555 1_555
H24_6 C36_6 1_555 1_555
C7_6 C8_6 1_555 1_555
C11_6 C12_6 1_555 1_555
Sr8_2 O18_4 1_555 1_555
Sr3_2 O1_4 1_555 1_555
O1_4 C1_6 1_555 1_555
O3_4 C1_6 1_555 1_555
C1_6 C2_6 1_555 1_555
C2_6 C5_6 1_555 1_555
C5_6 H1_6 1_555 1_555
C6_6 C2_6 1_555 1_555
H2_6 C6_6 1_555 1_555
O7_6 Sr3_2 1_555 1_555
O8_6 Sr3_2 1_555 1_555
N3_6 C18_6 1_555 1_555
C18_6 O8_6 1_555 1_555
H10_6 C18_6 1_555 1_555
C20_6 N3_6 1_555 1_555
H14_5 C20_6 1_555 1_555
H15_6 C20_6 1_555 1_555
H16_6 C20_6 1_555 1_555
C21_6 N3_6 1_555 1_555
H17_6 C21_6 1_555 1_555
H18_6 C21_6 1_555 1_555
H19_6 C21_6 1_555 1_555
Sr7_2 O1_4 1_555 1_555
O22_4 Sr3_2 1_555 1_555
O24_4 Sr3_2 1_555 1_555
O3_4 Sr7_2 1_555 1_555
N5_6 C37_6 1_555 1_555
H25_6 C37_6 1_555 1_555
C38_6 N5_6 1_555 1_555
H26_6 C38_6 1_555 1_555
H27_6 C38_6 1_555 1_555
H28_6 C38_6 1_555 1_555
C40_6 N5_6 1_555 1_555
H31_6 C40_6 1_555 1_555
H32_6 C40_6 1_555 1_555
Sr4_2 O17_4 1_555 1_555
O15_6 Sr6_2 1_555 1_555
O16_6 Sr6_2 1_555 1_555
N6_6 C39_6 1_555 1_555
C39_6 O16_6 1_555 1_555
H29_6 C39_6 1_555 1_555
C41_6 N6_6 1_555 1_555
H33_5 C41_6 1_555 1_555
H34_6 C41_6 1_555 1_555
H35_6 C41_6 1_555 1_555
C42_6 N6_6 1_555 1_555
H36_6 C42_6 1_555 1_555
H37_6 C42_6 1_555 1_555
H38_6 C42_6 1_555 1_555
O23_4 Sr6_2 1_555 1_555
H5_6 C15_6 1_555 1_555
O21_2 C24_6 1_555 1_555
O26_3 C24_6 1_555 1_555
N4_6 C28_6 1_555 1_555
C24_6 C25_6 1_555 1_555
O13_6 C33_6 1_555 1_555
O14_6 C34_6 1_555 1_555
C29_6 C25_6 1_555 1_555
H22_6 C29_6 1_555 1_555
C31_6 C30_6 1_555 1_555
C32_6 C30_6 1_555 1_555
C33_6 N4_6 1_555 1_555
C34_6 N4_6 1_555 1_555
C35_6 C15_6 1_555 1_555
H23_6 C35_6 1_555 1_555
C28_6 C29_6 1_555 1_555
C31_6 C34_6 1_555 1_555
C31_6 C35_6 1_555 1_555
C32_6 C33_6 1_555 1_555
O9_4 C22_6 1_555 1_555
O11_4 C22_6 1_555 1_555
C22_6 C23_6 1_555 1_555
C23_6 C26_6 1_555 1_555
C26_6 H20_6 1_555 1_555
C27_6 C23_6 1_555 1_555
H21_6 C27_6 1_555 1_555
Sr5_2 O9_4 1_555 1_555
O11_4 Sr5_2 1_555 1_555
H4_7 C14_7 1_555 1_555
O18_4 C22_7 1_555 1_555
O22_3 C24_7 1_555 1_555
O12_4 C24_7 1_555 1_555
N4_7 C28_7 1_555 1_555
C22_7 C23_7 1_555 1_555
C23_7 C26_7 1_555 1_555
C24_7 C25_7 1_555 1_555
C25_7 C26_7 1_555 1_555
C26_7 H20_7 1_555 1_555
O13_7 C33_7 1_555 1_555
C27_7 C23_7 1_555 1_555
H21_7 C27_7 1_555 1_555
O14_7 C34_7 1_555 1_555
C28_7 C27_7 1_555 1_555
C29_7 C25_7 1_555 1_555
H22_7 C29_7 1_555 1_555
C31_7 C30_7 1_555 1_555
C32_7 C30_7 1_555 1_555
C33_7 N4_7 1_555 1_555
C34_7 N4_7 1_555 1_555
C36_7 C14_7 1_555 1_555
H24_7 C36_7 1_555 1_555
O15_7 Sr8_2 1_555 1_555
O16_7 Sr8_2 1_555 1_555
N5_7 C37_7 1_555 1_555
C37_7 O15_7 1_555 1_555
H25_7 C37_7 1_555 1_555
C38_7 N5_7 1_555 1_555
H26_7 C38_7 1_555 1_555
H27_7 C38_7 1_555 1_555
H28_7 C38_7 1_555 1_555
C40_7 N5_7 1_555 1_555
H30_7 C40_7 1_555 1_555
H31_7 C40_7 1_555 1_555
H32_7 C40_7 1_555 1_555
O26_4 Sr8_2 1_555 1_555
O12_4 Sr7_2 1_555 1_555
C28_7 C29_7 1_555 1_555
C31_7 C34_7 1_555 1_555
C32_7 C33_7 1_555 1_555
C32_7 C36_7 1_555 1_555
N6_7 C39_7 1_555 1_555
H29_7 C39_7 1_555 1_555
C41_7 N6_7 1_555 1_555
H33_6 C41_7 1_555 1_555
H34_7 C41_7 1_555 1_555
H35_7 C41_7 1_555 1_555
C42_7 N6_7 1_555 1_555
H37_7 C42_7 1_555 1_555
H38_7 C42_7 1_555 1_555
O17_4 C1_7 1_555 1_555
O20_3 C3_7 1_555 1_555
O4_4 C3_7 1_555 1_555
N1_7 C7_7 1_555 1_555
C1_7 C2_7 1_555 1_555
C2_7 C5_7 1_555 1_555
C3_7 C4_7 1_555 1_555
C4_7 C5_7 1_555 1_555
C5_7 H1_7 1_555 1_555
O5_7 C12_7 1_555 1_555
C6_7 C2_7 1_555 1_555
H2_7 C6_7 1_555 1_555
O6_7 C13_7 1_555 1_555
C7_7 C6_7 1_555 1_555
C8_7 C4_7 1_555 1_555
H3_7 C8_7 1_555 1_555
C9_7 C10_7 1_555 1_555
O8_7 Sr4_2 1_555 1_555
C10_7 C13_7 1_555 1_555
C11_7 C9_7 1_555 1_555
C12_7 N1_7 1_555 1_555
C13_7 N1_7 1_555 1_555
C15_7 C11_7 1_555 1_555
H5_7 C15_7 1_555 1_555
H11_7 C19_7 1_555 1_555
H12_7 C19_7 1_555 1_555
H13_7 C19_7 1_555 1_555
C35_7 C15_7 1_555 1_555
H23_7 C35_7 1_555 1_555
C7_7 C8_7 1_555 1_555
C11_7 C12_7 1_555 1_555
N3_7 C18_7 1_555 1_555
H10_7 C18_7 1_555 1_555
C20_7 N3_7 1_555 1_555
H14_6 C20_7 1_555 1_555
H15_7 C20_7 1_555 1_555
H16_7 C20_7 1_555 1_555
N2_7 C16_7 1_555 1_555
C16_7 O7_7 1_555 1_555
H6_7 C16_7 1_555 1_555
C17_7 N2_7 1_555 1_555
H8_7 C17_7 1_555 1_555
H9_7 C17_7 1_555 1_555
H19_7 C21_7 1_555 1_555
N2_8 C16_8 1_555 1_555
C16_8 O7_8 1_555 1_555
H6_8 C16_8 1_555 1_555
C17_8 N2_8 1_555 1_555
H8_8 C17_8 1_555 1_555
H9_8 C17_8 1_555 1_555
H17_8 C21_8 1_555 1_555
H19_8 C21_8 1_555 1_555
O17_3 C1_8 1_555 1_555
O20_4 C3_8 1_555 1_555
O23_3 C1_8 1_555 1_555
N1_8 C7_8 1_555 1_555
C1_8 C2_8 1_555 1_555
C2_8 C5_8 1_555 1_555
C3_8 C4_8 1_555 1_555
C4_8 C5_8 1_555 1_555
C5_8 H1_8 1_555 1_555
O5_8 C12_8 1_555 1_555
C6_8 C2_8 1_555 1_555
H2_8 C6_8 1_555 1_555
O6_8 C13_8 1_555 1_555
C7_8 C6_8 1_555 1_555
C8_8 C4_8 1_555 1_555
H3_8 C8_8 1_555 1_555
C9_8 C10_8 1_555 1_555
O8_8 Sr5_2 1_555 1_555
C10_8 C13_8 1_555 1_555
C11_8 C9_8 1_555 1_555
C12_8 N1_8 1_555 1_555
C13_8 N1_8 1_555 1_555
C14_8 C10_8 1_555 1_555
H4_8 C14_8 1_555 1_555
C15_8 C11_8 1_555 1_555
H5_8 C15_8 1_555 1_555
N3_8 C18_8 1_555 1_555
C18_8 O8_8 1_555 1_555
H10_8 C18_8 1_555 1_555
H11_8 C19_8 1_555 1_555
H12_8 C19_8 1_555 1_555
H13_8 C19_8 1_555 1_555
C20_8 N3_8 1_555 1_555
H14_7 C20_8 1_555 1_555
H15_8 C20_8 1_555 1_555
H16_8 C20_8 1_555 1_555
O18_3 C22_8 1_555 1_555
O22_4 C24_8 1_555 1_555
O24_3 C22_8 1_555 1_555
N4_8 C28_8 1_555 1_555
C22_8 C23_8 1_555 1_555
C23_8 C26_8 1_555 1_555
C24_8 C25_8 1_555 1_555
C25_8 C26_8 1_555 1_555
C26_8 H20_8 1_555 1_555
O13_8 C33_8 1_555 1_555
C27_8 C23_8 1_555 1_555
H21_8 C27_8 1_555 1_555
O14_8 C34_8 1_555 1_555
C28_8 C27_8 1_555 1_555
C29_8 C25_8 1_555 1_555
H22_8 C29_8 1_555 1_555
C30_8 C9_8 1_555 1_555
C31_8 C30_8 1_555 1_555
C32_8 C30_8 1_555 1_555
C33_8 N4_8 1_555 1_555
C34_8 N4_8 1_555 1_555
C35_8 C15_8 1_555 1_555
H23_8 C35_8 1_555 1_555
C36_8 C14_8 1_555 1_555
H24_8 C36_8 1_555 1_555
O15_8 Sr7_2 1_555 1_555
O16_8 Sr7_2 1_555 1_555
N5_8 C37_8 1_555 1_555
C37_8 O15_8 1_555 1_555
H25_8 C37_8 1_555 1_555
N6_8 C39_8 1_555 1_555
C38_8 N5_8 1_555 1_555
H26_8 C38_8 1_555 1_555
H27_8 C38_8 1_555 1_555
H28_8 C38_8 1_555 1_555
C39_8 O16_8 1_555 1_555
H29_8 C39_8 1_555 1_555
C40_8 N5_8 1_555 1_555
H30_8 C40_8 1_555 1_555
H31_8 C40_8 1_555 1_555
H32_8 C40_8 1_555 1_555
C41_8 N6_8 1_555 1_555
H33_7 C41_8 1_555 1_555
H34_8 C41_8 1_555 1_555
H35_8 C41_8 1_555 1_555
C42_8 N6_8 1_555 1_555
H36_8 C42_8 1_555 1_555
H37_8 C42_8 1_555 1_555
H38_8 C42_8 1_555 1_555
C7_8 C8_8 1_555 1_555
C11_8 C12_8 1_555 1_555
C28_8 C29_8 1_555 1_555
C31_8 C34_8 1_555 1_555
C31_8 C35_8 1_555 1_555
C32_8 C33_8 1_555 1_555
C32_8 C36_8 1_555 1_555

#END
