
###############################################################################
#
# This file contains modified crystal structure data generated from the
# MOF subset of the Cambridge Structural Database (CSD) v543 
# hosted by the Cambridge Crystallographic Data Centre (CCDC).
#
# This work is licensed under the Creative Commons
# Attribution-NonCommercial-ShareAlike 4.0 International License.
# To view a copy of this license, visit
# http://creativecommons.org/licenses/by-nc-sa/4.0/
# or send a letter to
# Creative Commons, PO Box 1866, Mountain View, CA 94042, USA.
#
# CIF created using the CSD Python API on 29 September 2022
# The structure has been converted into the P1 space group
# The structure has a 3D framework
# The original CSD entry QOVSUR is in the trigonal crystal system
# The framework has been calculated to contain at least 10.0% void space
# The void calculation uses a probe of radius 1.32A, grid spacing 0.4
#
###############################################################################

data_QOVSUR
_chemical_formula_moiety         '(C276 H232 Cd12 N106 O58 2-)n'
_symmetry_cell_setting           triclinic
_symmetry_space_group_name_H-M   'P 1'
_symmetry_Int_Tables_number      1
_space_group_name_Hall           'P 1'
loop_
_symmetry_equiv_pos_site_id
_symmetry_equiv_pos_as_xyz
1 x,y,z
_cell_length_a                   19.5639(4)
_cell_length_b                   19.5639(4)
_cell_length_c                   26.8732(9)
_cell_angle_alpha                90
_cell_angle_beta                 90
_cell_angle_gamma                120
_cell_volume                     8907.6
loop_
_atom_site_label
_atom_site_type_symbol
_atom_site_fract_x
_atom_site_fract_y
_atom_site_fract_z
O1 O 0.5162(3) 0.0325(7) 0.7500
N1 N 0.4754(4) 0.9509(8) 0.7500
O2 O 0.4412(6) 0.9303(5) 0.7126(4)
O3 O 0.4891(8) 0.9303(5) 0.7874(4)
N1_2 N 0.0491(8) 0.5245(9) 0.7500
O2_2 O 0.0697(5) 0.5109(8) 0.7126(4)
O3_2 O 0.0697(5) 0.5588(9) 0.7874(4)
O1_2 O 0.9675(7) 0.4837(8) 0.7500
N1_3 N 0.4755(9) 0.5246(4) 0.7500
O1_3 O 0.5163(8) 0.4838(3) 0.7500
O2_3 O 0.4891(8) 0.5588(6) 0.7126(4)
O3_3 O 0.4412(9) 0.5109(8) 0.7874(4)
N1_4 N 0.5246(4) 0.0491(8) 0.2500
O2_4 O 0.5588(6) 0.0697(5) 0.2874(4)
O3_4 O 0.5109(8) 0.0697(5) 0.2126(4)
O1_4 O 0.4838(3) 0.9675(7) 0.2500
O1_5 O 0.0325(7) 0.5163(8) 0.2500
N1_5 N 0.9509(8) 0.4755(9) 0.2500
O2_5 O 0.9303(5) 0.4891(8) 0.2874(4)
O3_5 O 0.9303(5) 0.4412(9) 0.2126(4)
N1_6 N 0.5245(9) 0.4754(4) 0.2500
O1_6 O 0.4837(8) 0.5162(3) 0.2500
O2_6 O 0.5109(8) 0.4412(6) 0.2874(4)
O3_6 O 0.5588(9) 0.4891(8) 0.2126(4)
N2 N 0.6667 0.3333 0.5428(9)
O4 O 0.5987(9) 0.2764(9) 0.5397(7)
O5 O 0.7236(9) 0.3223(13) 0.5397(7)
O6 O 0.6777(13) 0.4013(9) 0.5397(7)
N2_2 N 0.6667 0.3333 0.9572(9)
O4_2 O 0.7236(9) 0.4013(9) 0.9603(7)
O5_2 O 0.6777(13) 0.2764(9) 0.9603(7)
O6_2 O 0.5987(9) 0.3223(13) 0.9603(7)
N2_3 N 0.3333 0.6667 0.4572(9)
O4_3 O 0.4013(9) 0.7236(9) 0.4603(7)
O5_3 O 0.2764(9) 0.6777(13) 0.4603(7)
O6_3 O 0.3223(13) 0.5987(9) 0.4603(7)
N2_4 N 0.3333 0.6667 0.0428(9)
O4_4 O 0.2764(9) 0.5987(9) 0.0397(7)
O5_4 O 0.3223(13) 0.7236(9) 0.0397(7)
O6_4 O 0.4013(9) 0.6777(13) 0.0397(7)
O7 O 0.6667 0.3333 0.661(2)
H1 H 0.6667 0.3333 0.6292
O7_2 O 0.6667 0.3333 0.839(2)
H1_2 H 0.6667 0.3333 0.8708
O7_3 O 0.3333 0.6667 0.339(2)
H1_3 H 0.3333 0.6667 0.3708
O7_4 O 0.3333 0.6667 0.161(2)
H1_4 H 0.3333 0.6667 0.1292
Cd1 Cd 0.289930(19) 0.01014(2) 0.361439(12)
C4 C 0.3817(3) 0.0885(3) 0.56840(16)
C5 C 0.4561(3) 0.0979(3) 0.56760(17)
H5 H 0.4835 0.1066 0.5379
C6 C 0.4892(3) 0.0941(3) 0.61247(17)
C7 C 0.4496(3) 0.0819(4) 0.65666(18)
H6 H 0.4726 0.0796 0.6864
C8 C 0.3749(3) 0.0732(3) 0.65621(17)
C9 C 0.3396(3) 0.0769(3) 0.61224(16)
H7 H 0.2898 0.0719 0.6122
C10 C 0.2866(3) 0.1075(4) 0.51495(19)
H8 H 0.2671 0.1289 0.5380
C11 C 0.2658(3) 0.0906(4) 0.46703(19)
H9 H 0.2283 0.0990 0.4513
C12 C 0.3535(3) 0.0576(4) 0.47880(18)
H10 H 0.3887 0.0394 0.4741
C13 C 0.6291(4) 0.1484(5) 0.5814(3)
H11 H 0.6341 0.1885 0.5605
C14 C 0.6830(4) 0.1246(5) 0.5890(3)
H12 H 0.7322 0.1468 0.5738
C15 C 0.5822(3) 0.0483(4) 0.6317(2)
H13 H 0.5470 0.0056 0.6510
C16 C 0.2412(6) 0.0032(6) 0.7004(4)
C18 C 0.3470(3) 0.0459(4) 0.74649(17)
H16 H 0.3949 0.0494 0.7545
C19 C 0.6178(4) 0.3661(4) 0.3223(3)
H17 H 0.5853 0.3881 0.3209
C20 C 0.5860(4) 0.2855(4) 0.3233(3)
C21 C 0.4483(6) 0.2532(7) 0.3055(5)
H18 H 0.4572 0.2986 0.2889
C22 C 0.3767(6) 0.1880(6) 0.3177(5)
H19 H 0.3278 0.1842 0.3134
C23 C 0.4642(3) 0.1610(4) 0.3380(2)
H20 H 0.4889 0.1333 0.3482
N3 N 0.3072(3) 0.0593(3) 0.44402(15)
N4 N 0.3431(3) 0.0860(3) 0.52248(14)
N5 N 0.6548(2) 0.0646(3) 0.62154(15)
N6 N 0.5652(2) 0.0998(3) 0.61142(15)
N7 N 0.2944(3) 0.0303(3) 0.77921(16)
N8 N 0.3304(3) 0.0567(4) 0.70088(15)
N9 N 0.3880(3) 0.1302(3) 0.3368(2)
N10 N 0.5034(3) 0.2357(3) 0.3234(3)
O8 O 0.20255(18) 0.05852(18) 0.35486(11)
C24 C 0.0747(2) 0.0742(3) 0.37434(16)
H21 H 0.0777 0.0772 0.3383
H22 H 0.1209 0.1202 0.3875
C25 C 0.0004(2) 0.0749(3) 0.39157(16)
H23 H 0.0004 0.0744 0.4280
C26 C 0.0019(2) 0.1500(3) 0.37529(16)
O11 O 0.06296(18) 0.21591(25) 0.38453(11)
C30 C 0.6339(4) 0.2517(6) 0.3223(3)
H27 H 0.6119 0.1972 0.3209
C31 C 0.7145(4) 0.3005(6) 0.3233(3)
C32 C 0.7468(7) 0.1951(9) 0.3055(5)
H28 H 0.7014 0.1586 0.2889
C33 C 0.8120(6) 0.1887(8) 0.3177(5)
H29 H 0.8158 0.1436 0.3134
C34 C 0.8390(4) 0.3032(5) 0.3380(2)
H30 H 0.8667 0.3556 0.3482
N11 N 0.8698(3) 0.2578(4) 0.3368(2)
N12 N 0.7643(3) 0.2677(4) 0.3234(3)
C35 C 0.7483(6) 0.3822(4) 0.3223(3)
H31 H 0.8028 0.4147 0.3209
C36 C 0.6995(6) 0.4140(4) 0.3233(3)
C37 C 0.8049(9) 0.5517(6) 0.3055(5)
H32 H 0.8414 0.5428 0.2889
C38 C 0.8113(8) 0.6233(6) 0.3177(5)
H33 H 0.8564 0.6722 0.3134
C39 C 0.6968(5) 0.5358(3) 0.3380(2)
H34 H 0.6444 0.5111 0.3482
N13 N 0.7422(4) 0.6120(3) 0.3368(2)
N14 N 0.7323(4) 0.4966(3) 0.3234(3)
H44 H 0.0154 0.2236 0.6728
C53 C 0.0113(6) 0.2320(8) 0.7487(4)
H45 H 0.0418 0.2114 0.7610
Cd4 Cd 0.98986(2) 0.279790(28) 0.361439(12)
Cd5 Cd 0.720210(28) 0.710070(19) 0.361439(12)
Cd7 Cd 0.01014(2) 0.720210(28) 0.638561(12)
Cd9 Cd 0.01014(2) 0.289930(19) 0.861439(12)
N28 N 0.0646(3) 0.4098(4) 0.37846(15)
N30 N 0.0303(3) 0.2944(3) 0.27921(16)
C2 C 0.0745(2) 0.9996(2) 0.39157(16)
H4 H 0.0740 0.9996 0.4280
C3 C 0.1481(2) 0.9981(2) 0.37529(16)
H14 H 0.2082 0.9846 0.6728
C17 C 0.2207(6) 0.9887(6) 0.7487(4)
H15 H 0.1696 0.9582 0.7610
O9 O 0.15295(18) 0.93704(18) 0.38453(11)
Cd6 Cd 0.710070(19) 0.98986(2) 0.638561(12)
Cd10 Cd 0.279790(28) 0.98986(2) 0.861439(12)
N27 N 0.3452(2) 0.9354(3) 0.37846(15)
N31 N 0.2641(4) 0.9697(3) 0.27921(16)
O10 O 0.94148(18) 0.14403(25) 0.35486(11)
C27 C 0.9258(3) 0.0005(2) 0.37434(16)
H24 H 0.9228 0.0005 0.3383
H25 H 0.8798 0.0007 0.3875
C40 C 0.9115(3) 0.2932(4) 0.56840(16)
C41 C 0.9021(3) 0.3582(4) 0.56760(17)
H35 H 0.8934 0.3769 0.5379
C42 C 0.9059(3) 0.3951(4) 0.61247(17)
C43 C 0.9181(4) 0.3677(5) 0.65666(18)
H36 H 0.9204 0.3930 0.6864
C44 C 0.9268(3) 0.3017(4) 0.65621(17)
C45 C 0.9231(3) 0.2627(4) 0.61224(16)
H37 H 0.9281 0.2179 0.6122
C46 C 0.8925(4) 0.1791(5) 0.51495(19)
H38 H 0.8711 0.1382 0.5380
C47 C 0.9094(4) 0.1752(5) 0.46703(19)
H39 H 0.9010 0.1293 0.4513
C48 C 0.9424(4) 0.2959(5) 0.47880(18)
H40 H 0.9606 0.3493 0.4741
C49 C 0.8516(5) 0.4807(6) 0.5814(3)
H41 H 0.8115 0.4456 0.5605
C50 C 0.8754(5) 0.5584(6) 0.5890(3)
H42 H 0.8532 0.5854 0.5738
C51 C 0.9517(4) 0.5339(5) 0.6317(2)
H43 H 0.9944 0.5414 0.6510
C52 C 0.9968(6) 0.2380(8) 0.7004(4)
C54 C 0.9541(4) 0.3011(5) 0.74649(17)
H46 H 0.9506 0.3455 0.7545
N15 N 0.9407(3) 0.2479(4) 0.44402(15)
N16 N 0.9140(3) 0.2571(4) 0.52248(14)
N17 N 0.9354(3) 0.5902(4) 0.62154(15)
N18 N 0.9002(3) 0.4654(4) 0.61142(15)
N19 N 0.9697(3) 0.2641(4) 0.77921(16)
N20 N 0.9433(4) 0.2737(5) 0.70088(15)
C1 C 0.9995(2) 0.9253(2) 0.37434(16)
H2 H 0.9995 0.9223 0.3383
H3 H 0.9993 0.8791 0.3875
C28 C 0.9251(3) 0.9255(2) 0.39157(16)
H26 H 0.9256 0.9260 0.4280
C29 C 0.8500(3) 0.8519(2) 0.37529(16)
O12 O 0.85597(25) 0.79745(18) 0.35486(11)
O13 O 0.78409(25) 0.84705(18) 0.38453(11)
C55 C 0.7068(4) 0.6183(3) 0.56840(16)
C56 C 0.6418(4) 0.5439(3) 0.56760(17)
H47 H 0.6231 0.5165 0.5379
C57 C 0.6049(4) 0.5108(3) 0.61247(17)
C58 C 0.6323(5) 0.5504(3) 0.65666(18)
H48 H 0.6070 0.5274 0.6864
C59 C 0.6983(4) 0.6251(3) 0.65621(17)
C60 C 0.7373(4) 0.6604(3) 0.61224(16)
H49 H 0.7821 0.7102 0.6122
C61 C 0.8209(5) 0.7134(3) 0.51495(19)
H50 H 0.8618 0.7329 0.5380
C62 C 0.8248(5) 0.7342(3) 0.46703(19)
H51 H 0.8707 0.7717 0.4513
C63 C 0.7041(5) 0.6465(3) 0.47880(18)
H52 H 0.6507 0.6113 0.4741
C64 C 0.5193(6) 0.3709(4) 0.5814(3)
H53 H 0.5544 0.3659 0.5605
C65 C 0.4416(6) 0.3170(4) 0.5890(3)
H54 H 0.4146 0.2678 0.5738
C66 C 0.4661(5) 0.4178(3) 0.6317(2)
H55 H 0.4586 0.4530 0.6510
C67 C 0.7620(8) 0.7588(6) 0.7004(4)
H56 H 0.7764 0.7918 0.6728
C68 C 0.7680(8) 0.7793(6) 0.7487(4)
H57 H 0.7886 0.8304 0.7610
C69 C 0.6989(5) 0.6530(3) 0.74649(17)
H58 H 0.6545 0.6051 0.7545
N21 N 0.7521(4) 0.6928(3) 0.44402(15)
N22 N 0.7429(4) 0.6569(3) 0.52248(14)
N23 N 0.4098(4) 0.3452(2) 0.62154(15)
N24 N 0.5346(4) 0.4348(2) 0.61142(15)
N25 N 0.7359(4) 0.7056(3) 0.77921(16)
N26 N 0.7263(5) 0.6696(3) 0.70088(15)
Cd8 Cd 0.279790(28) 0.289930(19) 0.638561(12)
Cd11 Cd 0.710070(19) 0.720210(28) 0.861439(12)
N29 N 0.5902(4) 0.6548(2) 0.37846(15)
N32 N 0.7056(3) 0.7359(4) 0.27921(16)
C1_2 C 0.0747(2) 0.0005(2) 0.12566(16)
H2_2 H 0.0777 0.0005 0.1617
H3_2 H 0.1209 0.0007 0.1125
C28_2 C 0.0745(2) 0.0749(3) 0.10843(16)
H26_2 H 0.0740 0.0744 0.0720
C29_2 C 0.1481(2) 0.1500(3) 0.12471(16)
O12_2 O 0.20255(18) 0.14403(25) 0.14514(11)
O13_2 O 0.15295(18) 0.21591(25) 0.11547(11)
Cd3 Cd 0.289930(19) 0.279790(28) 0.138561(12)
C62_2 C 0.2658(3) 0.1752(5) 0.03297(19)
H51_2 H 0.2283 0.1293 0.0487
C63_2 C 0.3535(3) 0.2959(5) 0.02120(18)
H52_2 H 0.3887 0.3493 0.0259
N21_2 N 0.3072(3) 0.2479(4) 0.05598(15)
N29_2 N 0.3452(2) 0.4098(4) 0.12154(15)
N32_2 N 0.2641(4) 0.2944(3) 0.22079(16)
N34 N 0.3880(3) 0.2578(4) 0.1632(2)
C55_2 C 0.3817(3) 0.2932(4) 0.93160(16)
C56_2 C 0.4561(3) 0.3582(4) 0.93240(17)
H47_2 H 0.4835 0.3769 0.9621
C57_2 C 0.4892(3) 0.3951(4) 0.88753(17)
C58_2 C 0.4496(3) 0.3677(5) 0.84334(18)
H48_2 H 0.4726 0.3930 0.8136
C59_2 C 0.3749(3) 0.3017(4) 0.84379(17)
C60_2 C 0.3396(3) 0.2627(4) 0.88776(16)
H49_2 H 0.2898 0.2179 0.8878
C61_2 C 0.2866(3) 0.1791(5) 0.98505(19)
H50_2 H 0.2671 0.1382 0.9620
C64_2 C 0.6291(4) 0.4807(6) 0.9186(3)
H53_2 H 0.6341 0.4456 0.9395
C65_2 C 0.6830(4) 0.5584(6) 0.9110(3)
H54_2 H 0.7322 0.5854 0.9262
C66_2 C 0.5822(3) 0.5339(5) 0.8683(2)
H55_2 H 0.5470 0.5414 0.8490
C67_2 C 0.2412(6) 0.2380(8) 0.7996(4)
H56_2 H 0.2082 0.2236 0.8272
C68_2 C 0.2207(6) 0.2320(8) 0.7513(4)
H57_2 H 0.1696 0.2114 0.7390
C69_2 C 0.3470(3) 0.3011(5) 0.75351(17)
H58_2 H 0.3949 0.3455 0.7455
N22_2 N 0.3431(3) 0.2571(4) 0.97752(14)
N23_2 N 0.6548(2) 0.5902(4) 0.87846(15)
N24_2 N 0.5652(2) 0.4654(4) 0.88858(15)
N25_2 N 0.2944(3) 0.2641(4) 0.72079(16)
N26_2 N 0.3304(3) 0.2737(5) 0.79912(15)
C2_2 C 0.0004(2) 0.9255(2) 0.10843(16)
H4_2 H 0.0004 0.9260 0.0720
C3_2 C 0.0019(2) 0.8519(2) 0.12471(16)
O9_2 O 0.06296(18) 0.84705(18) 0.11547(11)
N27_2 N 0.0646(3) 0.6548(2) 0.12154(15)
N31_2 N 0.0303(3) 0.7359(4) 0.22079(16)
H14_2 H 0.0154 0.7918 0.8272
C17_2 C 0.0113(6) 0.7793(6) 0.7513(4)
H15_2 H 0.0418 0.8304 0.7390
O10_2 O 0.85597(25) 0.05852(18) 0.14514(11)
C27_2 C 0.9995(2) 0.0742(3) 0.12566(16)
H24_2 H 0.9995 0.0772 0.1617
H25_2 H 0.9993 0.1202 0.1125
Cd2 Cd 0.720210(28) 0.01014(2) 0.138561(12)
C47_2 C 0.8248(5) 0.0906(4) 0.03297(19)
H39_2 H 0.8707 0.0990 0.0487
C48_2 C 0.7041(5) 0.0576(4) 0.02120(18)
H40_2 H 0.6507 0.0394 0.0259
N15_2 N 0.7521(4) 0.0593(3) 0.05598(15)
N33 N 0.7422(4) 0.1302(3) 0.1632(2)
C40_2 C 0.7068(4) 0.0885(3) 0.93160(16)
C41_2 C 0.6418(4) 0.0979(3) 0.93240(17)
H35_2 H 0.6231 0.1066 0.9621
C42_2 C 0.6049(4) 0.0941(3) 0.88753(17)
C43_2 C 0.6323(5) 0.0819(4) 0.84334(18)
H36_2 H 0.6070 0.0796 0.8136
C44_2 C 0.6983(4) 0.0732(3) 0.84379(17)
C45_2 C 0.7373(4) 0.0769(3) 0.88776(16)
H37_2 H 0.7821 0.0719 0.8878
C46_2 C 0.8209(5) 0.1075(4) 0.98505(19)
H38_2 H 0.8618 0.1289 0.9620
C49_2 C 0.5193(6) 0.1484(5) 0.9186(3)
H41_2 H 0.5544 0.1885 0.9395
C50_2 C 0.4416(6) 0.1246(5) 0.9110(3)
H42_2 H 0.4146 0.1468 0.9262
C51_2 C 0.4661(5) 0.0483(4) 0.8683(2)
H43_2 H 0.4586 0.0056 0.8490
C52_2 C 0.7620(8) 0.0032(6) 0.7996(4)
C54_2 C 0.6989(5) 0.0459(4) 0.75351(17)
H46_2 H 0.6545 0.0494 0.7455
N16_2 N 0.7429(4) 0.0860(3) 0.97752(14)
N17_2 N 0.4098(4) 0.0646(3) 0.87846(15)
N18_2 N 0.5346(4) 0.0998(3) 0.88858(15)
N19_2 N 0.7359(4) 0.0303(3) 0.72079(16)
N20_2 N 0.7263(5) 0.0567(4) 0.79912(15)
Cd1_2 Cd 0.98986(2) 0.710070(19) 0.138561(12)
C11_2 C 0.9094(4) 0.7342(3) 0.03297(19)
H9_2 H 0.9010 0.7717 0.0487
C12_2 C 0.9424(4) 0.6465(3) 0.02120(18)
H10_2 H 0.9606 0.6113 0.0259
C19_2 C 0.6339(4) 0.3822(4) 0.1777(3)
H17_2 H 0.6119 0.4147 0.1791
C20_2 C 0.7145(4) 0.4140(4) 0.1767(3)
C21_2 C 0.7468(7) 0.5517(6) 0.1945(5)
H18_2 H 0.7014 0.5428 0.2111
C22_2 C 0.8120(6) 0.6233(6) 0.1823(5)
H19_2 H 0.8158 0.6722 0.1866
C23_2 C 0.8390(4) 0.5358(3) 0.1620(2)
H20_2 H 0.8667 0.5111 0.1518
N3_2 N 0.9407(3) 0.6928(3) 0.05598(15)
N9_2 N 0.8698(3) 0.6120(3) 0.1632(2)
N10_2 N 0.7643(3) 0.4966(3) 0.1766(3)
O8_2 O 0.94148(18) 0.79745(18) 0.14514(11)
C24_2 C 0.9258(3) 0.9253(2) 0.12566(16)
H21_2 H 0.9228 0.9223 0.1617
H22_2 H 0.8798 0.8791 0.1125
C25_2 C 0.9251(3) 0.9996(2) 0.10843(16)
H23_2 H 0.9256 0.9996 0.0720
C26_2 C 0.8500(3) 0.9981(2) 0.12471(16)
O11_2 O 0.78409(25) 0.93704(18) 0.11547(11)
C30_2 C 0.7483(6) 0.3661(4) 0.1777(3)
H27_2 H 0.8028 0.3881 0.1791
C31_2 C 0.6995(6) 0.2855(4) 0.1767(3)
C32_2 C 0.8049(9) 0.2532(7) 0.1945(5)
H28_2 H 0.8414 0.2986 0.2111
C33_2 C 0.8113(8) 0.1880(6) 0.1823(5)
H29_2 H 0.8564 0.1842 0.1866
C34_2 C 0.6968(5) 0.1610(4) 0.1620(2)
H30_2 H 0.6444 0.1333 0.1518
N12_2 N 0.7323(4) 0.2357(3) 0.1766(3)
C35_2 C 0.6178(4) 0.2517(6) 0.1777(3)
H31_2 H 0.5853 0.1972 0.1791
C36_2 C 0.5860(4) 0.3005(6) 0.1767(3)
C37_2 C 0.4483(6) 0.1951(9) 0.1945(5)
H32_2 H 0.4572 0.1586 0.2111
C38_2 C 0.3767(6) 0.1887(8) 0.1823(5)
H33_2 H 0.3278 0.1436 0.1866
C39_2 C 0.4642(3) 0.3032(5) 0.1620(2)
H34_2 H 0.4889 0.3556 0.1518
N14_2 N 0.5034(3) 0.2677(4) 0.1766(3)
N28_2 N 0.5902(4) 0.9354(3) 0.12154(15)
N30_2 N 0.7056(3) 0.9697(3) 0.22079(16)
C4_2 C 0.9115(3) 0.6183(3) 0.93160(16)
C5_2 C 0.9021(3) 0.5439(3) 0.93240(17)
H5_2 H 0.8934 0.5165 0.9621
C6_2 C 0.9059(3) 0.5108(3) 0.88753(17)
C7_2 C 0.9181(4) 0.5504(3) 0.84334(18)
H6_2 H 0.9204 0.5274 0.8136
C8_2 C 0.9268(3) 0.6251(3) 0.84379(17)
C9_2 C 0.9231(3) 0.6604(3) 0.88776(16)
H7_2 H 0.9281 0.7102 0.8878
C10_2 C 0.8925(4) 0.7134(3) 0.98505(19)
H8_2 H 0.8711 0.7329 0.9620
C13_2 C 0.8516(5) 0.3709(4) 0.9186(3)
H11_2 H 0.8115 0.3659 0.9395
C14_2 C 0.8754(5) 0.3170(4) 0.9110(3)
H12_2 H 0.8532 0.2678 0.9262
C15_2 C 0.9517(4) 0.4178(3) 0.8683(2)
H13_2 H 0.9944 0.4530 0.8490
C16_2 C 0.9968(6) 0.7588(6) 0.7996(4)
C18_2 C 0.9541(4) 0.6530(3) 0.75351(17)
H16_2 H 0.9506 0.6051 0.7455
N4_2 N 0.9140(3) 0.6569(3) 0.97752(14)
N5_2 N 0.9354(3) 0.3452(2) 0.87846(15)
N6_2 N 0.9002(3) 0.4348(2) 0.88858(15)
N7_2 N 0.9697(3) 0.7056(3) 0.72079(16)
N8_2 N 0.9433(4) 0.6696(3) 0.79912(15)
H44_2 H 0.7764 0.9846 0.8272
C53_2 C 0.7680(8) 0.9887(6) 0.7513(4)
H45_2 H 0.7886 0.9582 0.7390
C1_3 C 0.0005(2) 0.0747(2) 0.62566(16)
H2_3 H 0.0005 0.0777 0.6617
H3_3 H 0.0007 0.1209 0.6125
C28_3 C 0.0749(3) 0.0745(2) 0.60843(16)
H26_3 H 0.0744 0.0740 0.5720
C29_3 C 0.1500(3) 0.1481(2) 0.62471(16)
O12_3 O 0.14403(25) 0.20255(18) 0.64514(11)
O13_3 O 0.21591(25) 0.15295(18) 0.61547(11)
C55_3 C 0.2932(4) 0.3817(3) 0.43160(16)
C56_3 C 0.3582(4) 0.4561(3) 0.43240(17)
H47_3 H 0.3769 0.4835 0.4621
C57_3 C 0.3951(4) 0.4892(3) 0.38753(17)
C58_3 C 0.3677(5) 0.4496(3) 0.34334(18)
H48_3 H 0.3930 0.4726 0.3136
C59_3 C 0.3017(4) 0.3749(3) 0.34379(17)
C60_3 C 0.2627(4) 0.3396(3) 0.38776(16)
H49_3 H 0.2179 0.2898 0.3878
C61_3 C 0.1791(5) 0.2866(3) 0.48505(19)
H50_3 H 0.1382 0.2671 0.4620
C62_3 C 0.1752(5) 0.2658(3) 0.53297(19)
H51_3 H 0.1293 0.2283 0.5487
C63_3 C 0.2959(5) 0.3535(3) 0.52120(18)
H52_3 H 0.3493 0.3887 0.5259
C64_3 C 0.4807(6) 0.6291(4) 0.4186(3)
H53_3 H 0.4456 0.6341 0.4395
C65_3 C 0.5584(6) 0.6830(4) 0.4110(3)
H54_3 H 0.5854 0.7322 0.4262
C66_3 C 0.5339(5) 0.5822(3) 0.3683(2)
H55_3 H 0.5414 0.5470 0.3490
C67_3 C 0.2380(8) 0.2412(6) 0.2996(4)
H56_3 H 0.2236 0.2082 0.3272
C68_3 C 0.2320(8) 0.2207(6) 0.2513(4)
H57_3 H 0.2114 0.1696 0.2390
C69_3 C 0.3011(5) 0.3470(3) 0.25351(17)
H58_3 H 0.3455 0.3949 0.2455
N21_3 N 0.2479(4) 0.3072(3) 0.55598(15)
N22_3 N 0.2571(4) 0.3431(3) 0.47752(14)
N24_3 N 0.4654(4) 0.5652(2) 0.38858(15)
N26_3 N 0.2737(5) 0.3304(3) 0.29912(15)
N34_2 N 0.2578(4) 0.3880(3) 0.6632(2)
O10_3 O 0.05852(18) 0.85597(25) 0.64514(11)
C27_3 C 0.0742(3) 0.9995(2) 0.62566(16)
H24_3 H 0.0772 0.9995 0.6617
H25_3 H 0.1202 0.9993 0.6125
C40_3 C 0.0885(3) 0.7068(4) 0.43160(16)
C41_3 C 0.0979(3) 0.6418(4) 0.43240(17)
H35_3 H 0.1066 0.6231 0.4621
C42_3 C 0.0941(3) 0.6049(4) 0.38753(17)
C43_3 C 0.0819(4) 0.6323(5) 0.34334(18)
H36_3 H 0.0796 0.6070 0.3136
C44_3 C 0.0732(3) 0.6983(4) 0.34379(17)
C45_3 C 0.0769(3) 0.7373(4) 0.38776(16)
H37_3 H 0.0719 0.7821 0.3878
C46_3 C 0.1075(4) 0.8209(5) 0.48505(19)
H38_3 H 0.1289 0.8618 0.4620
C47_3 C 0.0906(4) 0.8248(5) 0.53297(19)
H39_3 H 0.0990 0.8707 0.5487
C48_3 C 0.0576(4) 0.7041(5) 0.52120(18)
H40_3 H 0.0394 0.6507 0.5259
C49_3 C 0.1484(5) 0.5193(6) 0.4186(3)
H41_3 H 0.1885 0.5544 0.4395
C50_3 C 0.1246(5) 0.4416(6) 0.4110(3)
H42_3 H 0.1468 0.4146 0.4262
C51_3 C 0.0483(4) 0.4661(5) 0.3683(2)
H43_3 H 0.0056 0.4586 0.3490
C52_3 C 0.0032(6) 0.7620(8) 0.2996(4)
C54_3 C 0.0459(4) 0.6989(5) 0.25351(17)
H46_3 H 0.0494 0.6545 0.2455
N15_3 N 0.0593(3) 0.7521(4) 0.55598(15)
N16_3 N 0.0860(3) 0.7429(4) 0.47752(14)
N18_3 N 0.0998(3) 0.5346(4) 0.38858(15)
N20_3 N 0.0567(4) 0.7263(5) 0.29912(15)
N33_2 N 0.1302(3) 0.7422(4) 0.6632(2)
C2_3 C 0.9255(2) 0.0004(2) 0.60843(16)
H4_3 H 0.9260 0.0004 0.5720
C3_3 C 0.8519(2) 0.0019(2) 0.62471(16)
H14_3 H 0.7918 0.0154 0.3272
C17_3 C 0.7793(6) 0.0113(6) 0.2513(4)
H15_3 H 0.8304 0.0418 0.2390
O9_3 O 0.84705(18) 0.06296(18) 0.61547(11)
C4_3 C 0.6183(3) 0.9115(3) 0.43160(16)
C5_3 C 0.5439(3) 0.9021(3) 0.43240(17)
H5_3 H 0.5165 0.8934 0.4621
C6_3 C 0.5108(3) 0.9059(3) 0.38753(17)
C7_3 C 0.5504(3) 0.9181(4) 0.34334(18)
H6_3 H 0.5274 0.9204 0.3136
C8_3 C 0.6251(3) 0.9268(3) 0.34379(17)
C9_3 C 0.6604(3) 0.9231(3) 0.38776(16)
H7_3 H 0.7102 0.9281 0.3878
C10_3 C 0.7134(3) 0.8925(4) 0.48505(19)
H8_3 H 0.7329 0.8711 0.4620
C11_3 C 0.7342(3) 0.9094(4) 0.53297(19)
H9_3 H 0.7717 0.9010 0.5487
C12_3 C 0.6465(3) 0.9424(4) 0.52120(18)
H10_3 H 0.6113 0.9606 0.5259
C13_3 C 0.3709(4) 0.8516(5) 0.4186(3)
H11_3 H 0.3659 0.8115 0.4395
C14_3 C 0.3170(4) 0.8754(5) 0.4110(3)
H12_3 H 0.2678 0.8532 0.4262
C15_3 C 0.4178(3) 0.9517(4) 0.3683(2)
H13_3 H 0.4530 0.9944 0.3490
C16_3 C 0.7588(6) 0.9968(6) 0.2996(4)
C18_3 C 0.6530(3) 0.9541(4) 0.25351(17)
H16_3 H 0.6051 0.9506 0.2455
C19_3 C 0.3822(4) 0.6339(4) 0.6777(3)
H17_3 H 0.4147 0.6119 0.6791
C20_3 C 0.4140(4) 0.7145(4) 0.6767(3)
C21_3 C 0.5517(6) 0.7468(7) 0.6945(5)
H18_3 H 0.5428 0.7014 0.7111
C22_3 C 0.6233(6) 0.8120(6) 0.6823(5)
H19_3 H 0.6722 0.8158 0.6866
C23_3 C 0.5358(3) 0.8390(4) 0.6620(2)
H20_3 H 0.5111 0.8667 0.6518
N3_3 N 0.6928(3) 0.9407(3) 0.55598(15)
N4_3 N 0.6569(3) 0.9140(3) 0.47752(14)
N6_3 N 0.4348(2) 0.9002(3) 0.38858(15)
N8_3 N 0.6696(3) 0.9433(4) 0.29912(15)
N9_3 N 0.6120(3) 0.8698(3) 0.6632(2)
N10_3 N 0.4966(3) 0.7643(3) 0.6766(3)
O8_3 O 0.79745(18) 0.94148(18) 0.64514(11)
C24_3 C 0.9253(2) 0.9258(3) 0.62566(16)
H21_3 H 0.9223 0.9228 0.6617
H22_3 H 0.8791 0.8798 0.6125
C25_3 C 0.9996(2) 0.9251(3) 0.60843(16)
H23_3 H 0.9996 0.9256 0.5720
C26_3 C 0.9981(2) 0.8500(3) 0.62471(16)
O11_3 O 0.93704(18) 0.78409(25) 0.61547(11)
C30_3 C 0.3661(4) 0.7483(6) 0.6777(3)
H27_3 H 0.3881 0.8028 0.6791
C31_3 C 0.2855(4) 0.6995(6) 0.6767(3)
C32_3 C 0.2532(7) 0.8049(9) 0.6945(5)
H28_3 H 0.2986 0.8414 0.7111
C33_3 C 0.1880(6) 0.8113(8) 0.6823(5)
H29_3 H 0.1842 0.8564 0.6866
C34_3 C 0.1610(4) 0.6968(5) 0.6620(2)
H30_3 H 0.1333 0.6444 0.6518
N12_3 N 0.2357(3) 0.7323(4) 0.6766(3)
C35_3 C 0.2517(6) 0.6178(4) 0.6777(3)
H31_3 H 0.1972 0.5853 0.6791
C36_3 C 0.3005(6) 0.5860(4) 0.6767(3)
C37_3 C 0.1951(9) 0.4483(6) 0.6945(5)
H32_3 H 0.1586 0.4572 0.7111
C38_3 C 0.1887(8) 0.3767(6) 0.6823(5)
H33_3 H 0.1436 0.3278 0.6866
C39_3 C 0.3032(5) 0.4642(3) 0.6620(2)
H34_3 H 0.3556 0.4889 0.6518
N14_3 N 0.2677(4) 0.5034(3) 0.6766(3)
H44_3 H 0.9846 0.7764 0.3272
C53_3 C 0.9887(6) 0.7680(8) 0.2513(4)
H45_3 H 0.9582 0.7886 0.2390
C4_4 C 0.0885(3) 0.3817(3) 0.06840(16)
C5_4 C 0.0979(3) 0.4561(3) 0.06760(17)
H5_4 H 0.1066 0.4835 0.0379
C6_4 C 0.0941(3) 0.4892(3) 0.11247(17)
C7_4 C 0.0819(4) 0.4496(3) 0.15666(18)
H6_4 H 0.0796 0.4726 0.1864
C8_4 C 0.0732(3) 0.3749(3) 0.15621(17)
C9_4 C 0.0769(3) 0.3396(3) 0.11224(16)
H7_4 H 0.0719 0.2898 0.1122
C10_4 C 0.1075(4) 0.2866(3) 0.01495(19)
H8_4 H 0.1289 0.2671 0.0380
C13_4 C 0.1484(5) 0.6291(4) 0.0814(3)
H11_4 H 0.1885 0.6341 0.0605
C14_4 C 0.1246(5) 0.6830(4) 0.0890(3)
H12_4 H 0.1468 0.7322 0.0738
C15_4 C 0.0483(4) 0.5822(3) 0.1317(2)
H13_4 H 0.0056 0.5470 0.1510
C16_4 C 0.0032(6) 0.2412(6) 0.2004(4)
C18_4 C 0.0459(4) 0.3470(3) 0.24649(17)
H16_4 H 0.0494 0.3949 0.2545
N4_4 N 0.0860(3) 0.3431(3) 0.02248(14)
N6_4 N 0.0998(3) 0.5652(2) 0.11142(15)
N8_4 N 0.0567(4) 0.3304(3) 0.20088(15)
H44_4 H 0.2236 0.0154 0.1728
C53_4 C 0.2320(8) 0.0113(6) 0.2487(4)
H45_4 H 0.2114 0.0418 0.2610
C11_4 C 0.0906(4) 0.2658(3) 0.96703(19)
H9_4 H 0.0990 0.2283 0.9513
C12_4 C 0.0576(4) 0.3535(3) 0.97880(18)
H10_4 H 0.0394 0.3887 0.9741
C19_4 C 0.3661(4) 0.6178(4) 0.8223(3)
H17_4 H 0.3881 0.5853 0.8209
C20_4 C 0.2855(4) 0.5860(4) 0.8233(3)
C21_4 C 0.2532(7) 0.4483(6) 0.8055(5)
H18_4 H 0.2986 0.4572 0.7889
C22_4 C 0.1880(6) 0.3767(6) 0.8177(5)
H19_4 H 0.1842 0.3278 0.8134
C23_4 C 0.1610(4) 0.4642(3) 0.8380(2)
H20_4 H 0.1333 0.4889 0.8482
N3_4 N 0.0593(3) 0.3072(3) 0.94402(15)
N9_4 N 0.1302(3) 0.3880(3) 0.8368(2)
N10_4 N 0.2357(3) 0.5034(3) 0.8234(3)
O8_4 O 0.05852(18) 0.20255(18) 0.85486(11)
C24_4 C 0.0742(3) 0.0747(2) 0.87434(16)
H21_4 H 0.0772 0.0777 0.8383
H22_4 H 0.1202 0.1209 0.8875
C25_4 C 0.0749(3) 0.0004(2) 0.89157(16)
H23_4 H 0.0744 0.0004 0.9280
C26_4 C 0.1500(3) 0.0019(2) 0.87529(16)
O11_4 O 0.21591(25) 0.06296(18) 0.88453(11)
C30_4 C 0.2517(6) 0.6339(4) 0.8223(3)
H27_4 H 0.1972 0.6119 0.8209
C31_4 C 0.3005(6) 0.7145(4) 0.8233(3)
C32_4 C 0.1951(9) 0.7468(7) 0.8055(5)
H28_4 H 0.1586 0.7014 0.7889
C33_4 C 0.1887(8) 0.8120(6) 0.8177(5)
H29_4 H 0.1436 0.8158 0.8134
C34_4 C 0.3032(5) 0.8390(4) 0.8380(2)
H30_4 H 0.3556 0.8667 0.8482
N11_2 N 0.2578(4) 0.8698(3) 0.8368(2)
N12_4 N 0.2677(4) 0.7643(3) 0.8234(3)
C35_4 C 0.3822(4) 0.7483(6) 0.8223(3)
H31_4 H 0.4147 0.8028 0.8209
C36_4 C 0.4140(4) 0.6995(6) 0.8233(3)
C37_4 C 0.5517(6) 0.8049(9) 0.8055(5)
H32_4 H 0.5428 0.8414 0.7889
C38_4 C 0.6233(6) 0.8113(8) 0.8177(5)
H33_4 H 0.6722 0.8564 0.8134
C39_4 C 0.5358(3) 0.6968(5) 0.8380(2)
H34_4 H 0.5111 0.6444 0.8482
N13_2 N 0.6120(3) 0.7422(4) 0.8368(2)
N14_4 N 0.4966(3) 0.7323(4) 0.8234(3)
C40_4 C 0.2932(4) 0.9115(3) 0.06840(16)
C41_4 C 0.3582(4) 0.9021(3) 0.06760(17)
H35_4 H 0.3769 0.8934 0.0379
C42_4 C 0.3951(4) 0.9059(3) 0.11247(17)
C43_4 C 0.3677(5) 0.9181(4) 0.15666(18)
H36_4 H 0.3930 0.9204 0.1864
C44_4 C 0.3017(4) 0.9268(3) 0.15621(17)
C45_4 C 0.2627(4) 0.9231(3) 0.11224(16)
H37_4 H 0.2179 0.9281 0.1122
C46_4 C 0.1791(5) 0.8925(4) 0.01495(19)
H38_4 H 0.1382 0.8711 0.0380
C49_4 C 0.4807(6) 0.8516(5) 0.0814(3)
H41_4 H 0.4456 0.8115 0.0605
C50_4 C 0.5584(6) 0.8754(5) 0.0890(3)
H42_4 H 0.5854 0.8532 0.0738
C51_4 C 0.5339(5) 0.9517(4) 0.1317(2)
H43_4 H 0.5414 0.9944 0.1510
C52_4 C 0.2380(8) 0.9968(6) 0.2004(4)
C54_4 C 0.3011(5) 0.9541(4) 0.24649(17)
H46_4 H 0.3455 0.9506 0.2545
N16_4 N 0.2571(4) 0.9140(3) 0.02248(14)
N18_4 N 0.4654(4) 0.9002(3) 0.11142(15)
N20_4 N 0.2737(5) 0.9433(4) 0.20088(15)
O10_4 O 0.14403(25) 0.94148(18) 0.85486(11)
C27_4 C 0.0005(2) 0.9258(3) 0.87434(16)
H24_4 H 0.0005 0.9228 0.8383
H25_4 H 0.0007 0.8798 0.8875
C47_4 C 0.1752(5) 0.9094(4) 0.96703(19)
H39_4 H 0.1293 0.9010 0.9513
C48_4 C 0.2959(5) 0.9424(4) 0.97880(18)
H40_4 H 0.3493 0.9606 0.9741
N15_4 N 0.2479(4) 0.9407(3) 0.94402(15)
H14_4 H 0.9846 0.2082 0.1728
C17_4 C 0.9887(6) 0.2207(6) 0.2487(4)
H15_4 H 0.9582 0.1696 0.2610
C2_4 C 0.9996(2) 0.0745(2) 0.89157(16)
H4_4 H 0.9996 0.0740 0.9280
C3_4 C 0.9981(2) 0.1481(2) 0.87529(16)
O9_4 O 0.93704(18) 0.15295(18) 0.88453(11)
C55_4 C 0.6183(3) 0.7068(4) 0.06840(16)
C56_4 C 0.5439(3) 0.6418(4) 0.06760(17)
H47_4 H 0.5165 0.6231 0.0379
C57_4 C 0.5108(3) 0.6049(4) 0.11247(17)
C58_4 C 0.5504(3) 0.6323(5) 0.15666(18)
H48_4 H 0.5274 0.6070 0.1864
C59_4 C 0.6251(3) 0.6983(4) 0.15621(17)
C60_4 C 0.6604(3) 0.7373(4) 0.11224(16)
H49_4 H 0.7102 0.7821 0.1122
C61_4 C 0.7134(3) 0.8209(5) 0.01495(19)
H50_4 H 0.7329 0.8618 0.0380
C64_4 C 0.3709(4) 0.5193(6) 0.0814(3)
H53_4 H 0.3659 0.5544 0.0605
C65_4 C 0.3170(4) 0.4416(6) 0.0890(3)
H54_4 H 0.2678 0.4146 0.0738
C66_4 C 0.4178(3) 0.4661(5) 0.1317(2)
H55_4 H 0.4530 0.4586 0.1510
C67_4 C 0.7588(6) 0.7620(8) 0.2004(4)
H56_4 H 0.7918 0.7764 0.1728
C68_4 C 0.7793(6) 0.7680(8) 0.2487(4)
H57_4 H 0.8304 0.7886 0.2610
C69_4 C 0.6530(3) 0.6989(5) 0.24649(17)
H58_4 H 0.6051 0.6545 0.2545
N22_4 N 0.6569(3) 0.7429(4) 0.02248(14)
N24_4 N 0.4348(2) 0.5346(4) 0.11142(15)
N26_4 N 0.6696(3) 0.7263(5) 0.20088(15)
C1_4 C 0.9253(2) 0.9995(2) 0.87434(16)
H2_4 H 0.9223 0.9995 0.8383
H3_4 H 0.8791 0.9993 0.8875
C28_4 C 0.9255(2) 0.9251(3) 0.89157(16)
H26_4 H 0.9260 0.9256 0.9280
C29_4 C 0.8519(2) 0.8500(3) 0.87529(16)
O12_4 O 0.79745(18) 0.85597(25) 0.85486(11)
O13_4 O 0.84705(18) 0.78409(25) 0.88453(11)
C62_4 C 0.7342(3) 0.8248(5) 0.96703(19)
H51_4 H 0.7717 0.8707 0.9513
C63_4 C 0.6465(3) 0.7041(5) 0.97880(18)
H52_4 H 0.6113 0.6507 0.9741
N21_4 N 0.6928(3) 0.7521(4) 0.94402(15)
loop_
_geom_bond_atom_site_label_1
_geom_bond_atom_site_label_2
_geom_bond_site_symmetry_1
_geom_bond_site_symmetry_2
O2 N1 1_555 1_555
O3 N1 1_555 1_555
O2_2 N1_2 1_555 1_555
O3_2 N1_2 1_555 1_555
N1_3 O1_3 1_555 1_555
O2_3 N1_3 1_555 1_555
O3_3 N1_3 1_555 1_555
O2_4 N1_4 1_555 1_555
O3_4 N1_4 1_555 1_555
O2_5 N1_5 1_555 1_555
O3_5 N1_5 1_555 1_555
N1_6 O1_6 1_555 1_555
O2_6 N1_6 1_555 1_555
O3_6 N1_6 1_555 1_555
N2 O4 1_555 1_555
O5 N2 1_555 1_555
O6 N2 1_555 1_555
N2_2 O4_2 1_555 1_555
O5_2 N2_2 1_555 1_555
O6_2 N2_2 1_555 1_555
N2_3 O4_3 1_555 1_555
O5_3 N2_3 1_555 1_555
O6_3 N2_3 1_555 1_555
N2_4 O4_4 1_555 1_555
O5_4 N2_4 1_555 1_555
O6_4 N2_4 1_555 1_555
O7 H1 1_555 1_555
O7_2 H1_2 1_555 1_555
O7_3 H1_3 1_555 1_555
O7_4 H1_4 1_555 1_555
Cd1 N3 1_555 1_555
C4 C5 1_555 1_555
C5 H5 1_555 1_555
C6 C5 1_555 1_555
C7 C6 1_555 1_555
H6 C7 1_555 1_555
C8 C7 1_555 1_555
C9 C4 1_555 1_555
H7 C9 1_555 1_555
C10 H8 1_555 1_555
C11 C10 1_555 1_555
H9 C11 1_555 1_555
C12 H10 1_555 1_555
C13 H11 1_555 1_555
C14 C13 1_555 1_555
H12 C14 1_555 1_555
C15 H13 1_555 1_555
C18 H16 1_555 1_555
C19 H17 1_555 1_555
C20 C19 1_555 1_555
C21 H18 1_555 1_555
C22 C21 1_555 1_555
H19 C22 1_555 1_555
C23 H20 1_555 1_555
N3 C11 1_555 1_555
N4 C4 1_555 1_555
N5 C14 1_555 1_555
N6 C6 1_555 1_555
N8 C8 1_555 1_555
N9 Cd1 1_555 1_555
N10 C20 1_555 1_555
O8 Cd1 1_555 1_555
H21 C24 1_555 1_555
H22 C24 1_555 1_555
C25 C24 1_555 1_555
H23 C25 1_555 1_555
C26 C25 1_555 1_555
O11 C26 1_555 1_555
C30 C20 1_555 1_555
H27 C30 1_555 1_555
C31 C30 1_555 1_555
C32 H28 1_555 1_555
C33 C32 1_555 1_555
H29 C33 1_555 1_555
C34 H30 1_555 1_555
N11 C33 1_555 1_555
N12 C31 1_555 1_555
C35 C31 1_555 1_555
H31 C35 1_555 1_555
C36 C19 1_555 1_555
C37 H32 1_555 1_555
C38 C37 1_555 1_555
H33 C38 1_555 1_555
C39 H34 1_555 1_555
N13 C38 1_555 1_555
N14 C36 1_555 1_555
H45 C53 1_555 1_555
Cd4 N11 1_555 1_555
Cd5 N13 1_555 1_555
C8 C9 1_555 1_555
C10 N4 1_555 1_555
C12 N3 1_555 1_555
C12 N4 1_555 1_555
C13 N6 1_555 1_555
C15 N5 1_555 1_555
C15 N6 1_555 1_555
C16 N8 1_555 1_555
C18 N7 1_555 1_555
C18 N8 1_555 1_555
C21 N10 1_555 1_555
C22 N9 1_555 1_555
C23 N9 1_555 1_555
C23 N10 1_555 1_555
C32 N12 1_555 1_555
C34 N11 1_555 1_555
C34 N12 1_555 1_555
C35 C36 1_555 1_555
C37 N14 1_555 1_555
C39 N13 1_555 1_555
C39 N14 1_555 1_555
H4 C2 1_555 1_555
C3 C2 1_555 1_555
H15 C17 1_555 1_555
C3 O9 1_555 1_555
H24 C27 1_555 1_555
H25 C27 1_555 1_555
Cd4 O10 1_555 1_555
C40 C41 1_555 1_555
C41 H35 1_555 1_555
C42 C41 1_555 1_555
C43 C42 1_555 1_555
H36 C43 1_555 1_555
C44 C43 1_555 1_555
C45 C40 1_555 1_555
H37 C45 1_555 1_555
C46 H38 1_555 1_555
C47 C46 1_555 1_555
H39 C47 1_555 1_555
C48 H40 1_555 1_555
C49 H41 1_555 1_555
C50 C49 1_555 1_555
H42 C50 1_555 1_555
C51 H43 1_555 1_555
C54 H46 1_555 1_555
N15 Cd4 1_555 1_555
N16 C40 1_555 1_555
N17 C50 1_555 1_555
N18 C42 1_555 1_555
N20 C44 1_555 1_555
C44 C45 1_555 1_555
C46 N16 1_555 1_555
C47 N15 1_555 1_555
C48 N15 1_555 1_555
C48 N16 1_555 1_555
C49 N18 1_555 1_555
C51 N17 1_555 1_555
C51 N18 1_555 1_555
C52 N20 1_555 1_555
C54 N19 1_555 1_555
C54 N20 1_555 1_555
C1 H2 1_555 1_555
H3 C1 1_555 1_555
C28 C1 1_555 1_555
H26 C28 1_555 1_555
C29 C28 1_555 1_555
O12 C29 1_555 1_555
O13 C29 1_555 1_555
Cd5 O12 1_555 1_555
C55 C56 1_555 1_555
C56 H47 1_555 1_555
C57 C56 1_555 1_555
C58 C57 1_555 1_555
H48 C58 1_555 1_555
C59 C58 1_555 1_555
C60 C55 1_555 1_555
H49 C60 1_555 1_555
C61 H50 1_555 1_555
C62 C61 1_555 1_555
H51 C62 1_555 1_555
C63 H52 1_555 1_555
C64 H53 1_555 1_555
C65 C64 1_555 1_555
H54 C65 1_555 1_555
C66 H55 1_555 1_555
C67 H56 1_555 1_555
C68 C67 1_555 1_555
H57 C68 1_555 1_555
C69 H58 1_555 1_555
N21 Cd5 1_555 1_555
N22 C55 1_555 1_555
N23 C65 1_555 1_555
N24 C57 1_555 1_555
N25 C68 1_555 1_555
N26 C59 1_555 1_555
Cd8 N23 1_555 1_555
Cd11 N25 1_555 1_555
N29 Cd5 1_555 1_555
N32 Cd5 1_555 1_555
O13 Cd5 1_555 1_555
C59 C60 1_555 1_555
C61 N22 1_555 1_555
C62 N21 1_555 1_555
C63 N21 1_555 1_555
C63 N22 1_555 1_555
C64 N24 1_555 1_555
C66 N23 1_555 1_555
C66 N24 1_555 1_555
C67 N26 1_555 1_555
C69 N25 1_555 1_555
C69 N26 1_555 1_555
C1_2 H2_2 1_555 1_555
H3_2 C1_2 1_555 1_555
C28_2 C1_2 1_555 1_555
H26_2 C28_2 1_555 1_555
C29_2 C28_2 1_555 1_555
O12_2 C29_2 1_555 1_555
O13_2 C29_2 1_555 1_555
Cd3 O12_2 1_555 1_555
H51_2 C62_2 1_555 1_555
C63_2 H52_2 1_555 1_555
N21_2 Cd3 1_555 1_555
N29_2 Cd3 1_555 1_555
N32_2 Cd3 1_555 1_555
N34 Cd3 1_555 1_555
O13_2 Cd3 1_555 1_555
C62_2 N21_2 1_555 1_555
C63_2 N21_2 1_555 1_555
C55_2 C56_2 1_555 1_555
C56_2 H47_2 1_555 1_555
C57_2 C56_2 1_555 1_555
C58_2 C57_2 1_555 1_555
H48_2 C58_2 1_555 1_555
C59_2 C58_2 1_555 1_555
C60_2 C55_2 1_555 1_555
H49_2 C60_2 1_555 1_555
C61_2 H50_2 1_555 1_555
C64_2 H53_2 1_555 1_555
C65_2 C64_2 1_555 1_555
H54_2 C65_2 1_555 1_555
C66_2 H55_2 1_555 1_555
C67_2 H56_2 1_555 1_555
C68_2 C67_2 1_555 1_555
H57_2 C68_2 1_555 1_555
C69_2 H58_2 1_555 1_555
N22_2 C55_2 1_555 1_555
N23_2 C65_2 1_555 1_555
N24_2 C57_2 1_555 1_555
N25_2 C68_2 1_555 1_555
N26_2 C59_2 1_555 1_555
Cd11 N23_2 1_555 1_555
Cd8 N25_2 1_555 1_555
C59_2 C60_2 1_555 1_555
C61_2 N22_2 1_555 1_555
C64_2 N24_2 1_555 1_555
C66_2 N23_2 1_555 1_555
C66_2 N24_2 1_555 1_555
C67_2 N26_2 1_555 1_555
C69_2 N25_2 1_555 1_555
C69_2 N26_2 1_555 1_555
H4_2 C2_2 1_555 1_555
C3_2 C2_2 1_555 1_555
C3_2 O9_2 1_555 1_555
H15_2 C17_2 1_555 1_555
H24_2 C27_2 1_555 1_555
H25_2 C27_2 1_555 1_555
Cd2 O10_2 1_555 1_555
H39_2 C47_2 1_555 1_555
C48_2 H40_2 1_555 1_555
N15_2 Cd2 1_555 1_555
N33 Cd2 1_555 1_555
C47_2 N15_2 1_555 1_555
C48_2 N15_2 1_555 1_555
C40_2 C41_2 1_555 1_555
C41_2 H35_2 1_555 1_555
C42_2 C41_2 1_555 1_555
C43_2 C42_2 1_555 1_555
H36_2 C43_2 1_555 1_555
C44_2 C43_2 1_555 1_555
C45_2 C40_2 1_555 1_555
H37_2 C45_2 1_555 1_555
C46_2 H38_2 1_555 1_555
C49_2 H41_2 1_555 1_555
C50_2 C49_2 1_555 1_555
H42_2 C50_2 1_555 1_555
C51_2 H43_2 1_555 1_555
C54_2 H46_2 1_555 1_555
N16_2 C40_2 1_555 1_555
N17_2 C50_2 1_555 1_555
N18_2 C42_2 1_555 1_555
N20_2 C44_2 1_555 1_555
C44_2 C45_2 1_555 1_555
C46_2 N16_2 1_555 1_555
C49_2 N18_2 1_555 1_555
C51_2 N17_2 1_555 1_555
C51_2 N18_2 1_555 1_555
C52_2 N20_2 1_555 1_555
C54_2 N19_2 1_555 1_555
C54_2 N20_2 1_555 1_555
Cd1_2 N3_2 1_555 1_555
H9_2 C11_2 1_555 1_555
C12_2 H10_2 1_555 1_555
C19_2 H17_2 1_555 1_555
C20_2 C19_2 1_555 1_555
C21_2 H18_2 1_555 1_555
C22_2 C21_2 1_555 1_555
H19_2 C22_2 1_555 1_555
C23_2 H20_2 1_555 1_555
N3_2 C11_2 1_555 1_555
N9_2 Cd1_2 1_555 1_555
N10_2 C20_2 1_555 1_555
O8_2 Cd1_2 1_555 1_555
H21_2 C24_2 1_555 1_555
H22_2 C24_2 1_555 1_555
C25_2 C24_2 1_555 1_555
H23_2 C25_2 1_555 1_555
C26_2 C25_2 1_555 1_555
O11_2 C26_2 1_555 1_555
C30_2 C20_2 1_555 1_555
H27_2 C30_2 1_555 1_555
C31_2 C30_2 1_555 1_555
C32_2 H28_2 1_555 1_555
C33_2 C32_2 1_555 1_555
H29_2 C33_2 1_555 1_555
C34_2 H30_2 1_555 1_555
N33 C33_2 1_555 1_555
N12_2 C31_2 1_555 1_555
C35_2 C31_2 1_555 1_555
H31_2 C35_2 1_555 1_555
C36_2 C19_2 1_555 1_555
C37_2 H32_2 1_555 1_555
C38_2 C37_2 1_555 1_555
H33_2 C38_2 1_555 1_555
C39_2 H34_2 1_555 1_555
N34 C38_2 1_555 1_555
N14_2 C36_2 1_555 1_555
C12_2 N3_2 1_555 1_555
C21_2 N10_2 1_555 1_555
C22_2 N9_2 1_555 1_555
C23_2 N9_2 1_555 1_555
C23_2 N10_2 1_555 1_555
C32_2 N12_2 1_555 1_555
C34_2 N33 1_555 1_555
C34_2 N12_2 1_555 1_555
C35_2 C36_2 1_555 1_555
C37_2 N14_2 1_555 1_555
C39_2 N34 1_555 1_555
C39_2 N14_2 1_555 1_555
C4_2 C5_2 1_555 1_555
C5_2 H5_2 1_555 1_555
C6_2 C5_2 1_555 1_555
C7_2 C6_2 1_555 1_555
H6_2 C7_2 1_555 1_555
C8_2 C7_2 1_555 1_555
C9_2 C4_2 1_555 1_555
H7_2 C9_2 1_555 1_555
C10_2 H8_2 1_555 1_555
C13_2 H11_2 1_555 1_555
C14_2 C13_2 1_555 1_555
H12_2 C14_2 1_555 1_555
C15_2 H13_2 1_555 1_555
C18_2 H16_2 1_555 1_555
N4_2 C4_2 1_555 1_555
N5_2 C14_2 1_555 1_555
N6_2 C6_2 1_555 1_555
N8_2 C8_2 1_555 1_555
H45_2 C53_2 1_555 1_555
C8_2 C9_2 1_555 1_555
C10_2 N4_2 1_555 1_555
C13_2 N6_2 1_555 1_555
C15_2 N5_2 1_555 1_555
C15_2 N6_2 1_555 1_555
C16_2 N8_2 1_555 1_555
C18_2 N7_2 1_555 1_555
C18_2 N8_2 1_555 1_555
C1_3 H2_3 1_555 1_555
H3_3 C1_3 1_555 1_555
C28_3 C1_3 1_555 1_555
H26_3 C28_3 1_555 1_555
C29_3 C28_3 1_555 1_555
O12_3 C29_3 1_555 1_555
O13_3 C29_3 1_555 1_555
Cd8 O12_3 1_555 1_555
C55_3 C56_3 1_555 1_555
C56_3 H47_3 1_555 1_555
C57_3 C56_3 1_555 1_555
C58_3 C57_3 1_555 1_555
H48_3 C58_3 1_555 1_555
C59_3 C58_3 1_555 1_555
C60_3 C55_3 1_555 1_555
H49_3 C60_3 1_555 1_555
C61_3 H50_3 1_555 1_555
C62_3 C61_3 1_555 1_555
H51_3 C62_3 1_555 1_555
C63_3 H52_3 1_555 1_555
C64_3 H53_3 1_555 1_555
C65_3 C64_3 1_555 1_555
H54_3 C65_3 1_555 1_555
C66_3 H55_3 1_555 1_555
C67_3 H56_3 1_555 1_555
C68_3 C67_3 1_555 1_555
H57_3 C68_3 1_555 1_555
C69_3 H58_3 1_555 1_555
N21_3 Cd8 1_555 1_555
N22_3 C55_3 1_555 1_555
N29 C65_3 1_555 1_555
N24_3 C57_3 1_555 1_555
N32_2 C68_3 1_555 1_555
N26_3 C59_3 1_555 1_555
N34_2 Cd8 1_555 1_555
O13_3 Cd8 1_555 1_555
C59_3 C60_3 1_555 1_555
C61_3 N22_3 1_555 1_555
C62_3 N21_3 1_555 1_555
C63_3 N21_3 1_555 1_555
C63_3 N22_3 1_555 1_555
C64_3 N24_3 1_555 1_555
C66_3 N29 1_555 1_555
C66_3 N24_3 1_555 1_555
C67_3 N26_3 1_555 1_555
C69_3 N32_2 1_555 1_555
C69_3 N26_3 1_555 1_555
H24_3 C27_3 1_555 1_555
H25_3 C27_3 1_555 1_555
Cd7 O10_3 1_555 1_555
C40_3 C41_3 1_555 1_555
C41_3 H35_3 1_555 1_555
C42_3 C41_3 1_555 1_555
C43_3 C42_3 1_555 1_555
H36_3 C43_3 1_555 1_555
C44_3 C43_3 1_555 1_555
C45_3 C40_3 1_555 1_555
H37_3 C45_3 1_555 1_555
C46_3 H38_3 1_555 1_555
C47_3 C46_3 1_555 1_555
H39_3 C47_3 1_555 1_555
C48_3 H40_3 1_555 1_555
C49_3 H41_3 1_555 1_555
C50_3 C49_3 1_555 1_555
H42_3 C50_3 1_555 1_555
C51_3 H43_3 1_555 1_555
C54_3 H46_3 1_555 1_555
N15_3 Cd7 1_555 1_555
N16_3 C40_3 1_555 1_555
N28 C50_3 1_555 1_555
N18_3 C42_3 1_555 1_555
N20_3 C44_3 1_555 1_555
N33_2 Cd7 1_555 1_555
C44_3 C45_3 1_555 1_555
C46_3 N16_3 1_555 1_555
C47_3 N15_3 1_555 1_555
C48_3 N15_3 1_555 1_555
C48_3 N16_3 1_555 1_555
C49_3 N18_3 1_555 1_555
C51_3 N28 1_555 1_555
C51_3 N18_3 1_555 1_555
C52_3 N20_3 1_555 1_555
C54_3 N31_2 1_555 1_555
C54_3 N20_3 1_555 1_555
H4_3 C2_3 1_555 1_555
C3_3 C2_3 1_555 1_555
H15_3 C17_3 1_555 1_555
C3_3 O9_3 1_555 1_555
Cd6 N3_3 1_555 1_555
C4_3 C5_3 1_555 1_555
C5_3 H5_3 1_555 1_555
C6_3 C5_3 1_555 1_555
C7_3 C6_3 1_555 1_555
H6_3 C7_3 1_555 1_555
C8_3 C7_3 1_555 1_555
C9_3 C4_3 1_555 1_555
H7_3 C9_3 1_555 1_555
C10_3 H8_3 1_555 1_555
C11_3 C10_3 1_555 1_555
H9_3 C11_3 1_555 1_555
C12_3 H10_3 1_555 1_555
C13_3 H11_3 1_555 1_555
C14_3 C13_3 1_555 1_555
H12_3 C14_3 1_555 1_555
C15_3 H13_3 1_555 1_555
C18_3 H16_3 1_555 1_555
C19_3 H17_3 1_555 1_555
C20_3 C19_3 1_555 1_555
C21_3 H18_3 1_555 1_555
C22_3 C21_3 1_555 1_555
H19_3 C22_3 1_555 1_555
C23_3 H20_3 1_555 1_555
N3_3 C11_3 1_555 1_555
N4_3 C4_3 1_555 1_555
N27 C14_3 1_555 1_555
N6_3 C6_3 1_555 1_555
N8_3 C8_3 1_555 1_555
N9_3 Cd6 1_555 1_555
N10_3 C20_3 1_555 1_555
O8_3 Cd6 1_555 1_555
H21_3 C24_3 1_555 1_555
H22_3 C24_3 1_555 1_555
C25_3 C24_3 1_555 1_555
H23_3 C25_3 1_555 1_555
C26_3 C25_3 1_555 1_555
O11_3 C26_3 1_555 1_555
C30_3 C20_3 1_555 1_555
H27_3 C30_3 1_555 1_555
C31_3 C30_3 1_555 1_555
C32_3 H28_3 1_555 1_555
C33_3 C32_3 1_555 1_555
H29_3 C33_3 1_555 1_555
C34_3 H30_3 1_555 1_555
N33_2 C33_3 1_555 1_555
N12_3 C31_3 1_555 1_555
C35_3 C31_3 1_555 1_555
H31_3 C35_3 1_555 1_555
C36_3 C19_3 1_555 1_555
C37_3 H32_3 1_555 1_555
C38_3 C37_3 1_555 1_555
H33_3 C38_3 1_555 1_555
C39_3 H34_3 1_555 1_555
N34_2 C38_3 1_555 1_555
N14_3 C36_3 1_555 1_555
H45_3 C53_3 1_555 1_555
C8_3 C9_3 1_555 1_555
C10_3 N4_3 1_555 1_555
C12_3 N3_3 1_555 1_555
C12_3 N4_3 1_555 1_555
C13_3 N6_3 1_555 1_555
C15_3 N27 1_555 1_555
C15_3 N6_3 1_555 1_555
C16_3 N8_3 1_555 1_555
C18_3 N30_2 1_555 1_555
C18_3 N8_3 1_555 1_555
C21_3 N10_3 1_555 1_555
C22_3 N9_3 1_555 1_555
C23_3 N9_3 1_555 1_555
C23_3 N10_3 1_555 1_555
C32_3 N12_3 1_555 1_555
C34_3 N33_2 1_555 1_555
C34_3 N12_3 1_555 1_555
C35_3 C36_3 1_555 1_555
C37_3 N14_3 1_555 1_555
C39_3 N34_2 1_555 1_555
C39_3 N14_3 1_555 1_555
C4_4 C5_4 1_555 1_555
C5_4 H5_4 1_555 1_555
C6_4 C5_4 1_555 1_555
C7_4 C6_4 1_555 1_555
H6_4 C7_4 1_555 1_555
C8_4 C7_4 1_555 1_555
C9_4 C4_4 1_555 1_555
H7_4 C9_4 1_555 1_555
C10_4 H8_4 1_555 1_555
C13_4 H11_4 1_555 1_555
C14_4 C13_4 1_555 1_555
H12_4 C14_4 1_555 1_555
C15_4 H13_4 1_555 1_555
C18_4 H16_4 1_555 1_555
N4_4 C4_4 1_555 1_555
N27_2 C14_4 1_555 1_555
N6_4 C6_4 1_555 1_555
N8_4 C8_4 1_555 1_555
H45_4 C53_4 1_555 1_555
C8_4 C9_4 1_555 1_555
C10_4 N4_4 1_555 1_555
C13_4 N6_4 1_555 1_555
C15_4 N27_2 1_555 1_555
C15_4 N6_4 1_555 1_555
C16_4 N8_4 1_555 1_555
C18_4 N30 1_555 1_555
C18_4 N8_4 1_555 1_555
Cd9 N3_4 1_555 1_555
H9_4 C11_4 1_555 1_555
C12_4 H10_4 1_555 1_555
C19_4 H17_4 1_555 1_555
C20_4 C19_4 1_555 1_555
C21_4 H18_4 1_555 1_555
C22_4 C21_4 1_555 1_555
H19_4 C22_4 1_555 1_555
C23_4 H20_4 1_555 1_555
N3_4 C11_4 1_555 1_555
N9_4 Cd9 1_555 1_555
N10_4 C20_4 1_555 1_555
O8_4 Cd9 1_555 1_555
H21_4 C24_4 1_555 1_555
H22_4 C24_4 1_555 1_555
C25_4 C24_4 1_555 1_555
H23_4 C25_4 1_555 1_555
C26_4 C25_4 1_555 1_555
O11_4 C26_4 1_555 1_555
C30_4 C20_4 1_555 1_555
H27_4 C30_4 1_555 1_555
C31_4 C30_4 1_555 1_555
C32_4 H28_4 1_555 1_555
C33_4 C32_4 1_555 1_555
H29_4 C33_4 1_555 1_555
C34_4 H30_4 1_555 1_555
N11_2 C33_4 1_555 1_555
N12_4 C31_4 1_555 1_555
C35_4 C31_4 1_555 1_555
H31_4 C35_4 1_555 1_555
C36_4 C19_4 1_555 1_555
C37_4 H32_4 1_555 1_555
C38_4 C37_4 1_555 1_555
H33_4 C38_4 1_555 1_555
C39_4 H34_4 1_555 1_555
N13_2 C38_4 1_555 1_555
N14_4 C36_4 1_555 1_555
Cd10 N11_2 1_555 1_555
Cd11 N13_2 1_555 1_555
C12_4 N3_4 1_555 1_555
C21_4 N10_4 1_555 1_555
C22_4 N9_4 1_555 1_555
C23_4 N9_4 1_555 1_555
C23_4 N10_4 1_555 1_555
C32_4 N12_4 1_555 1_555
C34_4 N11_2 1_555 1_555
C34_4 N12_4 1_555 1_555
C35_4 C36_4 1_555 1_555
C37_4 N14_4 1_555 1_555
C39_4 N13_2 1_555 1_555
C39_4 N14_4 1_555 1_555
C40_4 C41_4 1_555 1_555
C41_4 H35_4 1_555 1_555
C42_4 C41_4 1_555 1_555
C43_4 C42_4 1_555 1_555
H36_4 C43_4 1_555 1_555
C44_4 C43_4 1_555 1_555
C45_4 C40_4 1_555 1_555
H37_4 C45_4 1_555 1_555
C46_4 H38_4 1_555 1_555
C49_4 H41_4 1_555 1_555
C50_4 C49_4 1_555 1_555
H42_4 C50_4 1_555 1_555
C51_4 H43_4 1_555 1_555
C54_4 H46_4 1_555 1_555
N16_4 C40_4 1_555 1_555
N28_2 C50_4 1_555 1_555
N18_4 C42_4 1_555 1_555
N20_4 C44_4 1_555 1_555
C44_4 C45_4 1_555 1_555
C46_4 N16_4 1_555 1_555
C49_4 N18_4 1_555 1_555
C51_4 N28_2 1_555 1_555
C51_4 N18_4 1_555 1_555
C52_4 N20_4 1_555 1_555
C54_4 N31 1_555 1_555
C54_4 N20_4 1_555 1_555
H24_4 C27_4 1_555 1_555
H25_4 C27_4 1_555 1_555
Cd10 O10_4 1_555 1_555
H39_4 C47_4 1_555 1_555
C48_4 H40_4 1_555 1_555
N15_4 Cd10 1_555 1_555
C47_4 N15_4 1_555 1_555
C48_4 N15_4 1_555 1_555
H15_4 C17_4 1_555 1_555
H4_4 C2_4 1_555 1_555
C3_4 C2_4 1_555 1_555
C3_4 O9_4 1_555 1_555
C55_4 C56_4 1_555 1_555
C56_4 H47_4 1_555 1_555
C57_4 C56_4 1_555 1_555
C58_4 C57_4 1_555 1_555
H48_4 C58_4 1_555 1_555
C59_4 C58_4 1_555 1_555
C60_4 C55_4 1_555 1_555
H49_4 C60_4 1_555 1_555
C61_4 H50_4 1_555 1_555
C64_4 H53_4 1_555 1_555
C65_4 C64_4 1_555 1_555
H54_4 C65_4 1_555 1_555
C66_4 H55_4 1_555 1_555
C67_4 H56_4 1_555 1_555
C68_4 C67_4 1_555 1_555
H57_4 C68_4 1_555 1_555
C69_4 H58_4 1_555 1_555
N22_4 C55_4 1_555 1_555
N29_2 C65_4 1_555 1_555
N24_4 C57_4 1_555 1_555
N32 C68_4 1_555 1_555
N26_4 C59_4 1_555 1_555
C59_4 C60_4 1_555 1_555
C61_4 N22_4 1_555 1_555
C64_4 N24_4 1_555 1_555
C66_4 N29_2 1_555 1_555
C66_4 N24_4 1_555 1_555
C67_4 N26_4 1_555 1_555
C69_4 N32 1_555 1_555
C69_4 N26_4 1_555 1_555
C1_4 H2_4 1_555 1_555
H3_4 C1_4 1_555 1_555
C28_4 C1_4 1_555 1_555
H26_4 C28_4 1_555 1_555
C29_4 C28_4 1_555 1_555
O12_4 C29_4 1_555 1_555
O13_4 C29_4 1_555 1_555
Cd11 O12_4 1_555 1_555
H51_4 C62_4 1_555 1_555
C63_4 H52_4 1_555 1_555
N21_4 Cd11 1_555 1_555
O13_4 Cd11 1_555 1_555
C62_4 N21_4 1_555 1_555
C63_4 N21_4 1_555 1_555

#END
