
###############################################################################
#
# This file contains modified crystal structure data generated from the
# MOF subset of the Cambridge Structural Database (CSD) v543 
# hosted by the Cambridge Crystallographic Data Centre (CCDC).
#
# This work is licensed under the Creative Commons
# Attribution-NonCommercial-ShareAlike 4.0 International License.
# To view a copy of this license, visit
# http://creativecommons.org/licenses/by-nc-sa/4.0/
# or send a letter to
# Creative Commons, PO Box 1866, Mountain View, CA 94042, USA.
#
# CIF created using the CSD Python API on 29 September 2022
# The structure has been converted into the P1 space group
# The structure has a 3D framework
# The original CSD entry QOVWEF is in the monoclinic crystal system
# The framework has been calculated to contain at least 10.0% void space
# The void calculation uses a probe of radius 1.32A, grid spacing 0.4
#
###############################################################################

data_QOVWEF
_chemical_formula_moiety         '(C164 H116 N24 O28 Zn8)n'
_symmetry_cell_setting           triclinic
_symmetry_space_group_name_H-M   'P 1'
_symmetry_Int_Tables_number      1
_space_group_name_Hall           'P 1'
loop_
_symmetry_equiv_pos_site_id
_symmetry_equiv_pos_as_xyz
1 x,y,z
_cell_length_a                   14.092(2)
_cell_length_b                   18.273(3)
_cell_length_c                   16.325(3)
_cell_angle_alpha                90
_cell_angle_beta                 92.766(3)
_cell_angle_gamma                90
_cell_volume                     4198.84
loop_
_atom_site_label
_atom_site_type_symbol
_atom_site_fract_x
_atom_site_fract_y
_atom_site_fract_z
C10 C 0.0165(4) 0.4305(3) 0.3825(4)
C11 C 0.0919(4) 0.4397(3) 0.4373(4)
H5 H 0.1253 0.4837 0.4371
C13 C 0.0718(4) 0.3255(3) 0.4897(4)
H7 H 0.0914 0.2885 0.5258
N1 N 0.1198(3) 0.3876(2) 0.4916(3)
Zn6 Zn 0.23754(4) 0.40015(3) 0.57112(4)
C14 C 0.8534(5) 0.0158(3) 0.9504(4)
C15 C 0.9314(5) 0.0223(4) 0.9070(4)
C16 C 0.9211(4) 0.1142(4) 0.9905(4)
C19 C 1.0000 0.1242(6) 0.7500
H13 H 1.0000 0.0733 0.7500
C21 C 1.0000 0.2725(9) 0.7500
H15 H 1.0000 0.3234 0.7500
N2 N 0.9746(4) 0.0856(3) 0.9325(3)
C25 C 0.9429(5) 0.1185(5) 0.6026(4)
H19 H 0.8981 0.0804 0.6154
H20 H 0.9120 0.1510 0.5626
C26 C 0.9700(5) 0.1611(4) 0.6796(4)
C27 C 0.9692(8) 0.2361(5) 0.6800(6)
H21 H 0.9481 0.2620 0.6336
C37 C 0.9835(4) 0.4305(3) 0.1175(4)
C38 C 0.9081(4) 0.4397(3) 0.0627(4)
H26 H 0.8747 0.4837 0.0629
C40 C 0.9282(4) 0.3255(3) 0.0103(4)
N6 N 0.8802(3) 0.3876(2) 0.0084(3)
N8 N 0.6198(3) 0.1124(2) 0.9916(3)
H28 H 0.4086 0.7885 0.9742
Zn5 Zn 0.26246(4) 0.90015(3) 0.92888(4)
C1 C 0.1911(4) 0.7883(3) 0.8375(4)
C2 C 0.1886(4) 0.7187(3) 0.7890(3)
C3 C 0.2543(4) 0.6632(3) 0.8054(3)
H1 H 0.2997 0.6685 0.8483
C4 C 0.2527(4) 0.6001(3) 0.7587(4)
H2 H 0.2969 0.5633 0.7703
C5 C 0.1855(4) 0.5915(3) 0.6944(3)
C6 C 0.1975(4) 0.5303(3) 0.6351(3)
C7 C 0.1160(4) 0.6458(3) 0.6789(3)
C8 C 0.1189(4) 0.7087(3) 0.7262(3)
H3 H 0.0736 0.7450 0.7159
C9 C 0.0351(4) 0.6341(3) 0.6184(3)
H4 H 0.0002 0.5323 0.6544
C12 C 0.0060(4) 0.6875(3) 0.5631(4)
H6 H 0.0384 0.7317 0.5614
H10 H 0.0646 0.8425 0.9816
N3 N 0.1533(3) 0.9260(3) 0.9970(3)
O1 O 0.1238(4) 0.8317(3) 0.8295(4)
O2 O 0.2618(3) 0.7995(2) 0.8853(3)
O3 O 0.1961(3) 0.5447(2) 0.5607(2)
O4 O 0.2124(3) 0.4667(2) 0.6633(3)
O10 O 0.2876(3) 0.9667(2) 0.8367(3)
C14_2 C 0.6466(5) 0.4842(3) 0.0496(4)
H8 H 0.6899 0.5226 0.0543
C15_2 C 0.5686(5) 0.4777(4) 0.0930(4)
H9 H 0.5482 0.5099 0.1326
C16_2 C 0.5789(4) 0.3858(4) 0.0095(4)
C17 C 0.4429(5) 0.3815(5) 0.1026(4)
H11 H 0.3981 0.4196 0.1154
H12 H 0.4120 0.3490 0.0626
C18 C 0.4700(5) 0.3389(4) 0.1796(4)
C19_2 C 0.5000 0.3758(6) 0.2500
H13_2 H 0.5000 0.4267 0.2500
C20 C 0.4692(8) 0.2639(5) 0.1800(6)
H14 H 0.4481 0.2380 0.1336
C21_2 C 0.5000 0.2275(9) 0.2500
H15_2 H 0.5000 0.1766 0.2500
N2_2 N 0.5254(4) 0.4144(3) 0.0675(3)
C22 C 0.3534(5) 0.4842(3) 0.4504(4)
H16 H 0.3101 0.5226 0.4457
C23 C 0.4314(5) 0.4777(4) 0.4070(4)
H17 H 0.4518 0.5099 0.3674
C24 C 0.4211(4) 0.3858(4) 0.4905(4)
H18 H 0.4354 0.3425 0.5184
C25_2 C 0.5571(5) 0.3815(5) 0.3974(4)
H19_2 H 0.6019 0.4196 0.3846
H20_2 H 0.5880 0.3490 0.4374
C26_2 C 0.5300(5) 0.3389(4) 0.3204(4)
C27_2 C 0.5308(8) 0.2639(5) 0.3200(6)
H21_2 H 0.5519 0.2380 0.3664
N4 N 0.4746(4) 0.4144(3) 0.4325(3)
N5 N 0.3467(3) 0.4260(3) 0.5030(3)
C28 C 0.3089(4) 0.2883(3) 0.6625(4)
C29 C 0.3114(4) 0.2187(3) 0.7110(3)
C30 C 0.2457(4) 0.1632(3) 0.6946(3)
H22 H 0.2003 0.1685 0.6517
C31 C 0.2473(4) 0.1001(3) 0.7413(4)
H23 H 0.2031 0.0633 0.7297
C32 C 0.3145(4) 0.0915(3) 0.8056(3)
C33 C 0.3025(4) 0.0303(3) 0.8649(3)
C34 C 0.3840(4) 0.1458(3) 0.8211(3)
C35 C 0.3811(4) 0.2087(3) 0.7738(3)
H24 H 0.4264 0.2450 0.7841
C36 C 0.4649(4) 0.1341(3) 0.8816(3)
C37_2 C 0.5165(4) 0.0695(3) 0.8825(4)
H25 H 0.4998 0.0323 0.8456
C38_2 C 0.5919(4) 0.0603(3) 0.9373(4)
H26_2 H 0.6253 0.0163 0.9371
C39 C 0.4940(4) 0.1875(3) 0.9369(4)
H27 H 0.4616 0.2317 0.9386
C40_2 C 0.5718(4) 0.1745(3) 0.9897(4)
O5 O 0.3762(4) 0.3317(3) 0.6705(4)
O6 O 0.2382(3) 0.2995(2) 0.6147(3)
O7 O 0.3039(3) 0.0447(2) 0.9393(2)
C17_2 C 0.0571(5) 0.1185(5) 0.8974(4)
H11_2 H 0.1019 0.0804 0.8846
H12_2 H 0.0880 0.1510 0.9374
C18_2 C 0.0300(5) 0.1611(4) 0.8204(4)
C19_3 C -0.0000 0.1242(6) 0.7500
H13_3 H -0.0000 0.0733 0.7500
C20_2 C 0.0308(8) 0.2361(5) 0.8200(6)
H14_2 H 0.0519 0.2620 0.8664
C21_3 C -0.0000 0.2725(9) 0.7500
H15_3 H -0.0000 0.3234 0.7500
C22_2 C 0.1466(5) 0.0158(3) 0.5496(4)
C23_2 C 0.0686(5) 0.0223(4) 0.5930(4)
C24_2 C 0.0789(4) 0.1142(4) 0.5095(4)
H18_2 H 0.0646 0.1575 0.4816
N4_2 N 0.0254(4) 0.0856(3) 0.5675(3)
N5_2 N 0.1533(3) 0.0740(3) 0.4970(3)
C28_2 C 0.1911(4) 0.2117(3) 0.3375(4)
C29_2 C 0.1886(4) 0.2813(3) 0.2890(3)
C30_2 C 0.2543(4) 0.3368(3) 0.3054(3)
H22_2 H 0.2997 0.3315 0.3483
C31_2 C 0.2527(4) 0.3999(3) 0.2587(4)
H23_2 H 0.2969 0.4367 0.2703
C32_2 C 0.1855(4) 0.4085(3) 0.1944(3)
C33_2 C 0.1975(4) 0.4697(3) 0.1351(3)
C34_2 C 0.1160(4) 0.3542(3) 0.1789(3)
C35_2 C 0.1189(4) 0.2913(3) 0.2262(3)
H24_2 H 0.0736 0.2550 0.2159
C36_2 C 0.0351(4) 0.3659(3) 0.1184(3)
H25_2 H 0.0002 0.4677 0.1544
C39_2 C 0.0060(4) 0.3125(3) 0.0631(4)
H27_2 H 0.0384 0.2683 0.0614
O5_2 O 0.1238(4) 0.1683(3) 0.3295(4)
O6_2 O 0.2618(3) 0.2005(2) 0.3853(3)
O7_2 O 0.1961(3) 0.4553(2) 0.0607(2)
O8 O 0.2124(3) 0.5333(2) 0.1633(3)
Zn2 Zn 0.26246(4) 0.09985(3) 0.42888(4)
N7 N 0.3802(3) 0.1124(2) 0.5084(3)
O9 O 0.2876(3) 0.0333(2) 0.3367(3)
Zn3 Zn 0.23754(4) 0.59985(3) 0.07112(4)
H28_2 H 0.9086 0.2885 0.9742
Zn5_2 Zn 0.76246(4) 0.40015(3) 0.92888(4)
C1_2 C 0.3089(4) 0.7117(3) 0.1625(4)
C2_2 C 0.3114(4) 0.7813(3) 0.2110(3)
C3_2 C 0.2457(4) 0.8368(3) 0.1946(3)
H1_2 H 0.2003 0.8315 0.1517
C4_2 C 0.2473(4) 0.8999(3) 0.2413(4)
H2_2 H 0.2031 0.9367 0.2297
C5_2 C 0.3145(4) 0.9085(3) 0.3056(3)
C6_2 C 0.3025(4) 0.9697(3) 0.3649(3)
C7_2 C 0.3840(4) 0.8542(3) 0.3211(3)
C8_2 C 0.3811(4) 0.7913(3) 0.2738(3)
H3_2 H 0.4264 0.7550 0.2841
C9_2 C 0.4649(4) 0.8659(3) 0.3816(3)
C10_2 C 0.5165(4) 0.9305(3) 0.3825(4)
H4_2 H 0.4998 0.9677 0.3456
C11_2 C 0.5919(4) 0.9397(3) 0.4373(4)
H5_2 H 0.6253 0.9837 0.4371
C12_2 C 0.4940(4) 0.8125(3) 0.4369(4)
H6_2 H 0.4616 0.7683 0.4386
C13_2 C 0.5718(4) 0.8255(3) 0.4897(4)
H7_2 H 0.5914 0.7885 0.5258
H10_2 H 0.4354 0.6575 0.0184
N1_2 N 0.6198(3) 0.8876(2) 0.4916(3)
N3_2 N 0.3467(3) 0.5740(3) 0.0030(3)
O1_2 O 0.3762(4) 0.6683(3) 0.1705(4)
O2_2 O 0.2382(3) 0.7005(2) 0.1147(3)
O3_2 O 0.3039(3) 0.9553(2) 0.4393(2)
Zn6_2 Zn 0.73754(4) 0.90015(3) 0.57112(4)
H28_3 H 0.0914 0.7115 0.0258
C17_3 C 0.9429(5) 0.8815(5) 0.1026(4)
H11_3 H 0.8981 0.9196 0.1154
H12_3 H 0.9120 0.8490 0.0626
C18_3 C 0.9700(5) 0.8389(4) 0.1796(4)
C19_4 C 1.0000 0.8758(6) 0.2500
H13_4 H 1.0000 0.9267 0.2500
C20_3 C 0.9692(8) 0.7639(5) 0.1800(6)
H14_3 H 0.9481 0.7380 0.1336
C21_4 C 1.0000 0.7275(9) 0.2500
H15_4 H 1.0000 0.6766 0.2500
C22_3 C 0.8534(5) 0.9842(3) 0.4504(4)
C23_3 C 0.9314(5) 0.9777(4) 0.4070(4)
C24_3 C 0.9211(4) 0.8858(4) 0.4905(4)
H18_3 H 0.9354 0.8425 0.5184
N4_3 N 0.9746(4) 0.9144(3) 0.4325(3)
N5_3 N 0.8467(3) 0.9260(3) 0.5030(3)
C28_3 C 0.8089(4) 0.7883(3) 0.6625(4)
C29_3 C 0.8114(4) 0.7187(3) 0.7110(3)
C30_3 C 0.7457(4) 0.6632(3) 0.6946(3)
H22_3 H 0.7003 0.6685 0.6517
C31_3 C 0.7473(4) 0.6001(3) 0.7413(4)
H23_3 H 0.7031 0.5633 0.7297
C32_3 C 0.8145(4) 0.5915(3) 0.8056(3)
C33_3 C 0.8025(4) 0.5303(3) 0.8649(3)
C34_3 C 0.8840(4) 0.6458(3) 0.8211(3)
C35_3 C 0.8811(4) 0.7087(3) 0.7738(3)
H24_3 H 0.9264 0.7450 0.7841
C36_3 C 0.9649(4) 0.6341(3) 0.8816(3)
H25_3 H 0.9998 0.5323 0.8456
C39_3 C 0.9940(4) 0.6875(3) 0.9369(4)
H27_3 H 0.9616 0.7317 0.9386
O5_3 O 0.8762(4) 0.8317(3) 0.6705(4)
O6_3 O 0.7382(3) 0.7995(2) 0.6147(3)
O7_3 O 0.8039(3) 0.5447(2) 0.9393(2)
O8_2 O 0.7876(3) 0.4667(2) 0.8367(3)
O9_2 O 0.7124(3) 0.9667(2) 0.6633(3)
C1_3 C 0.6911(4) 0.2883(3) 0.8375(4)
C2_3 C 0.6886(4) 0.2187(3) 0.7890(3)
C3_3 C 0.7543(4) 0.1632(3) 0.8054(3)
H1_3 H 0.7997 0.1685 0.8483
C4_3 C 0.7527(4) 0.1001(3) 0.7587(4)
H2_3 H 0.7969 0.0633 0.7703
C5_3 C 0.6855(4) 0.0915(3) 0.6944(3)
C6_3 C 0.6975(4) 0.0303(3) 0.6351(3)
C7_3 C 0.6160(4) 0.1458(3) 0.6789(3)
C8_3 C 0.6189(4) 0.2087(3) 0.7262(3)
H3_3 H 0.5736 0.2450 0.7159
C9_3 C 0.5351(4) 0.1341(3) 0.6184(3)
C10_3 C 0.4835(4) 0.0695(3) 0.6175(4)
H4_3 H 0.5002 0.0323 0.6544
C11_3 C 0.4081(4) 0.0603(3) 0.5627(4)
H5_3 H 0.3747 0.0163 0.5629
C12_3 C 0.5060(4) 0.1875(3) 0.5631(4)
H6_3 H 0.5384 0.2317 0.5614
C13_3 C 0.4282(4) 0.1745(3) 0.5103(4)
H7_3 H 0.4086 0.2115 0.4742
H10_3 H 0.5646 0.3425 0.9816
N3_3 N 0.6533(3) 0.4260(3) 0.9970(3)
O1_3 O 0.6238(4) 0.3317(3) 0.8295(4)
O2_3 O 0.7618(3) 0.2995(2) 0.8853(3)
O3_3 O 0.6961(3) 0.0447(2) 0.5607(2)
H16_2 H 0.1899 0.9774 0.5543
H17_2 H 0.0482 0.9901 0.6326
C1_4 C 0.8089(4) 0.2117(3) 0.1625(4)
C2_4 C 0.8114(4) 0.2813(3) 0.2110(3)
C3_4 C 0.7457(4) 0.3368(3) 0.1946(3)
H1_4 H 0.7003 0.3315 0.1517
C4_4 C 0.7473(4) 0.3999(3) 0.2413(4)
H2_4 H 0.7031 0.4367 0.2297
C5_4 C 0.8145(4) 0.4085(3) 0.3056(3)
C6_4 C 0.8025(4) 0.4697(3) 0.3649(3)
C7_4 C 0.8840(4) 0.3542(3) 0.3211(3)
C8_4 C 0.8811(4) 0.2913(3) 0.2738(3)
H3_4 H 0.9264 0.2550 0.2841
C9_4 C 0.9649(4) 0.3659(3) 0.3816(3)
H4_4 H 0.9998 0.4677 0.3456
C12_4 C 0.9940(4) 0.3125(3) 0.4369(4)
H6_4 H 0.9616 0.2683 0.4386
H10_4 H 0.9354 0.1575 0.0184
N3_4 N 0.8467(3) 0.0740(3) 0.0030(3)
O1_4 O 0.8762(4) 0.1683(3) 0.1705(4)
O2_4 O 0.7382(3) 0.2005(2) 0.1147(3)
O3_4 O 0.8039(3) 0.4553(2) 0.4393(2)
O4_2 O 0.7876(3) 0.5333(2) 0.3367(3)
Zn1 Zn 0.73754(4) 0.09985(3) 0.07112(4)
O10_2 O 0.7124(3) 0.0333(2) 0.1633(3)
Zn4 Zn 0.76246(4) 0.59985(3) 0.42888(4)
C14_3 C 0.3534(5) 0.5158(3) 0.9504(4)
H8_2 H 0.3101 0.4774 0.9457
C15_3 C 0.4314(5) 0.5223(4) 0.9070(4)
H9_2 H 0.4518 0.4901 0.8674
C16_3 C 0.4211(4) 0.6142(4) 0.9905(4)
C17_4 C 0.5571(5) 0.6185(5) 0.8974(4)
H11_4 H 0.6019 0.5804 0.8846
H12_4 H 0.5880 0.6510 0.9374
C18_4 C 0.5300(5) 0.6611(4) 0.8204(4)
C19_5 C 0.5000 0.6242(6) 0.7500
H13_5 H 0.5000 0.5733 0.7500
C20_4 C 0.5308(8) 0.7361(5) 0.8200(6)
H14_4 H 0.5519 0.7620 0.8664
C21_5 C 0.5000 0.7725(9) 0.7500
H15_5 H 0.5000 0.8234 0.7500
N2_3 N 0.4746(4) 0.5856(3) 0.9325(3)
C22_4 C 0.6466(5) 0.5158(3) 0.5496(4)
H16_3 H 0.6899 0.4774 0.5543
C23_4 C 0.5686(5) 0.5223(4) 0.5930(4)
H17_3 H 0.5482 0.4901 0.6326
C24_4 C 0.5789(4) 0.6142(4) 0.5095(4)
H18_4 H 0.5646 0.6575 0.4816
C25_3 C 0.4429(5) 0.6185(5) 0.6026(4)
H19_3 H 0.3981 0.5804 0.6154
H20_3 H 0.4120 0.6510 0.5626
C26_3 C 0.4700(5) 0.6611(4) 0.6796(4)
C27_3 C 0.4692(8) 0.7361(5) 0.6800(6)
H21_3 H 0.4481 0.7620 0.6336
N4_4 N 0.5254(4) 0.5856(3) 0.5675(3)
N5_4 N 0.6533(3) 0.5740(3) 0.4970(3)
C28_4 C 0.6911(4) 0.7117(3) 0.3375(4)
C29_4 C 0.6886(4) 0.7813(3) 0.2890(3)
C30_4 C 0.7543(4) 0.8368(3) 0.3054(3)
H22_4 H 0.7997 0.8315 0.3483
C31_4 C 0.7527(4) 0.8999(3) 0.2587(4)
H23_4 H 0.7969 0.9367 0.2703
C32_4 C 0.6855(4) 0.9085(3) 0.1944(3)
C33_4 C 0.6975(4) 0.9697(3) 0.1351(3)
C34_4 C 0.6160(4) 0.8542(3) 0.1789(3)
C35_4 C 0.6189(4) 0.7913(3) 0.2262(3)
H24_4 H 0.5736 0.7550 0.2159
C36_4 C 0.5351(4) 0.8659(3) 0.1184(3)
C37_3 C 0.4835(4) 0.9305(3) 0.1175(4)
H25_4 H 0.5002 0.9677 0.1544
C38_3 C 0.4081(4) 0.9397(3) 0.0627(4)
H26_3 H 0.3747 0.9837 0.0629
C39_4 C 0.5060(4) 0.8125(3) 0.0631(4)
H27_4 H 0.5384 0.7683 0.0614
C40_3 C 0.4282(4) 0.8255(3) 0.0103(4)
N6_2 N 0.3802(3) 0.8876(2) 0.0084(3)
O5_4 O 0.6238(4) 0.6683(3) 0.3295(4)
O6_4 O 0.7618(3) 0.7005(2) 0.3853(3)
O7_4 O 0.6961(3) 0.9553(2) 0.0607(2)
N7_2 N 0.8802(3) 0.6124(2) 0.5084(3)
N8_2 N 0.1198(3) 0.6124(2) 0.9916(3)
C14_4 C 0.1466(5) 0.9842(3) 0.0496(4)
C15_4 C 0.0686(5) 0.9777(4) 0.0930(4)
C16_4 C 0.0789(4) 0.8858(4) 0.0095(4)
C19_6 C -0.0000 0.8758(6) 0.2500
H13_6 H -0.0000 0.9267 0.2500
C21_6 C -0.0000 0.7275(9) 0.2500
H15_6 H -0.0000 0.6766 0.2500
N2_4 N 0.0254(4) 0.9144(3) 0.0675(3)
C25_4 C 0.0571(5) 0.8815(5) 0.3974(4)
H19_4 H 0.1019 0.9196 0.3846
H20_4 H 0.0880 0.8490 0.4374
C26_4 C 0.0300(5) 0.8389(4) 0.3204(4)
C27_4 C 0.0308(8) 0.7639(5) 0.3200(6)
H21_4 H 0.0519 0.7380 0.3664
C37_4 C 0.0165(4) 0.5695(3) 0.8825(4)
C38_4 C 0.0919(4) 0.5603(3) 0.9373(4)
H26_4 H 0.1253 0.5163 0.9371
C40_4 C 0.0718(4) 0.6745(3) 0.9897(4)
C10_4 C 0.9835(4) 0.5695(3) 0.6175(4)
C11_4 C 0.9081(4) 0.5603(3) 0.5627(4)
H5_4 H 0.8747 0.5163 0.5629
C13_4 C 0.9282(4) 0.6745(3) 0.5103(4)
H7_4 H 0.9086 0.7115 0.4742
H28_4 H 0.5914 0.2115 0.0258
H8_3 H 0.8101 0.9774 0.9457
H9_3 H 0.9518 0.9901 0.8674
H8_4 H 0.1899 0.0226 0.0543
H9_4 H 0.0482 0.0099 0.1326
H16_4 H 0.8101 0.0226 0.4457
H17_4 H 0.9518 0.0099 0.3674
loop_
_geom_bond_atom_site_label_1
_geom_bond_atom_site_label_2
_geom_bond_site_symmetry_1
_geom_bond_site_symmetry_2
C11 C10 1_555 1_555
H5 C11 1_555 1_555
H7 C13 1_555 1_555
N1 C11 1_555 1_555
Zn6 N1 1_555 1_555
C13 N1 1_555 1_555
C15 C14 1_555 1_555
H13 C19 1_555 1_555
H15 C21 1_555 1_555
N2 C15 1_555 1_555
C25 H19 1_555 1_555
H20 C25 1_555 1_555
C26 C19 1_555 1_555
C27 C21 1_555 1_555
H21 C27 1_555 1_555
C38 C37 1_555 1_555
H26 C38 1_555 1_555
N6 C38 1_555 1_555
C16 N2 1_555 1_555
C25 C26 1_555 1_555
C26 C27 1_555 1_555
C40 N6 1_555 1_555
C1 C2 1_555 1_555
C2 C3 1_555 1_555
C3 H1 1_555 1_555
C4 C3 1_555 1_555
H2 C4 1_555 1_555
C5 C4 1_555 1_555
C6 C5 1_555 1_555
C7 C5 1_555 1_555
C8 C2 1_555 1_555
H3 C8 1_555 1_555
C9 C7 1_555 1_555
C12 C9 1_555 1_555
H6 C12 1_555 1_555
O1 C1 1_555 1_555
O2 C1 1_555 1_555
O3 C6 1_555 1_555
O4 C6 1_555 1_555
Zn5 N3 1_555 1_555
O10 Zn5 1_555 1_555
Zn6 O4 1_555 1_555
C7 C8 1_555 1_555
O2 Zn5 1_555 1_555
C14_2 H8 1_555 1_555
C15_2 C14_2 1_555 1_555
H9 C15_2 1_555 1_555
C17 H11 1_555 1_555
H12 C17 1_555 1_555
C18 C17 1_555 1_555
C19_2 C18 1_555 1_555
H13_2 C19_2 1_555 1_555
C20 C18 1_555 1_555
H14 C20 1_555 1_555
C21_2 C20 1_555 1_555
H15_2 C21_2 1_555 1_555
N2_2 C15_2 1_555 1_555
C22 H16 1_555 1_555
C23 C22 1_555 1_555
H17 C23 1_555 1_555
C24 H18 1_555 1_555
C25_2 H19_2 1_555 1_555
H20_2 C25_2 1_555 1_555
C26_2 C19_2 1_555 1_555
C27_2 C21_2 1_555 1_555
H21_2 C27_2 1_555 1_555
N4 C23 1_555 1_555
N5 C22 1_555 1_555
C28 C29 1_555 1_555
C29 C30 1_555 1_555
C30 H22 1_555 1_555
C31 C30 1_555 1_555
H23 C31 1_555 1_555
C32 C31 1_555 1_555
C33 C32 1_555 1_555
C34 C32 1_555 1_555
C35 C29 1_555 1_555
H24 C35 1_555 1_555
C36 C34 1_555 1_555
C37_2 C36 1_555 1_555
H25 C37_2 1_555 1_555
C38_2 C37_2 1_555 1_555
H26_2 C38_2 1_555 1_555
C39 C36 1_555 1_555
H27 C39 1_555 1_555
C40_2 C39 1_555 1_555
N8 C38_2 1_555 1_555
O5 C28 1_555 1_555
O6 C28 1_555 1_555
O7 C33 1_555 1_555
Zn6 N5 1_555 1_555
C16_2 N2_2 1_555 1_555
C17 N2_2 1_555 1_555
C24 N4 1_555 1_555
C24 N5 1_555 1_555
C25_2 C26_2 1_555 1_555
C25_2 N4 1_555 1_555
C26_2 C27_2 1_555 1_555
C34 C35 1_555 1_555
C40_2 N8 1_555 1_555
O6 Zn6 1_555 1_555
C17_2 H11_2 1_555 1_555
H12_2 C17_2 1_555 1_555
C18_2 C17_2 1_555 1_555
C19_3 C18_2 1_555 1_555
H13_3 C19_3 1_555 1_555
C20_2 C18_2 1_555 1_555
H14_2 C20_2 1_555 1_555
C21_3 C20_2 1_555 1_555
H15_3 C21_3 1_555 1_555
C23_2 C22_2 1_555 1_555
C24_2 H18_2 1_555 1_555
N4_2 C23_2 1_555 1_555
N5_2 C22_2 1_555 1_555
C28_2 C29_2 1_555 1_555
C29_2 C30_2 1_555 1_555
C30_2 H22_2 1_555 1_555
C31_2 C30_2 1_555 1_555
H23_2 C31_2 1_555 1_555
C32_2 C31_2 1_555 1_555
C33_2 C32_2 1_555 1_555
C34_2 C32_2 1_555 1_555
C35_2 C29_2 1_555 1_555
H24_2 C35_2 1_555 1_555
C36_2 C34_2 1_555 1_555
C39_2 C36_2 1_555 1_555
H27_2 C39_2 1_555 1_555
O5_2 C28_2 1_555 1_555
O6_2 C28_2 1_555 1_555
O7_2 C33_2 1_555 1_555
O8 C33_2 1_555 1_555
Zn2 N5_2 1_555 1_555
N7 Zn2 1_555 1_555
O9 Zn2 1_555 1_555
Zn3 O8 1_555 1_555
C24_2 N4_2 1_555 1_555
C24_2 N5_2 1_555 1_555
C34_2 C35_2 1_555 1_555
O6_2 Zn2 1_555 1_555
C1_2 C2_2 1_555 1_555
C2_2 C3_2 1_555 1_555
C3_2 H1_2 1_555 1_555
C4_2 C3_2 1_555 1_555
H2_2 C4_2 1_555 1_555
C5_2 C4_2 1_555 1_555
C6_2 C5_2 1_555 1_555
C7_2 C5_2 1_555 1_555
C8_2 C2_2 1_555 1_555
H3_2 C8_2 1_555 1_555
C9_2 C7_2 1_555 1_555
C10_2 C9_2 1_555 1_555
H4_2 C10_2 1_555 1_555
C11_2 C10_2 1_555 1_555
H5_2 C11_2 1_555 1_555
C12_2 C9_2 1_555 1_555
H6_2 C12_2 1_555 1_555
C13_2 C12_2 1_555 1_555
H7_2 C13_2 1_555 1_555
N1_2 C11_2 1_555 1_555
O1_2 C1_2 1_555 1_555
O2_2 C1_2 1_555 1_555
O3_2 C6_2 1_555 1_555
Zn3 N3_2 1_555 1_555
Zn6_2 N1_2 1_555 1_555
C7_2 C8_2 1_555 1_555
C13_2 N1_2 1_555 1_555
O2_2 Zn3 1_555 1_555
C17_3 H11_3 1_555 1_555
H12_3 C17_3 1_555 1_555
C18_3 C17_3 1_555 1_555
C19_4 C18_3 1_555 1_555
H13_4 C19_4 1_555 1_555
C20_3 C18_3 1_555 1_555
H14_3 C20_3 1_555 1_555
C21_4 C20_3 1_555 1_555
H15_4 C21_4 1_555 1_555
C23_3 C22_3 1_555 1_555
C24_3 H18_3 1_555 1_555
N4_3 C23_3 1_555 1_555
N5_3 C22_3 1_555 1_555
C28_3 C29_3 1_555 1_555
C29_3 C30_3 1_555 1_555
C30_3 H22_3 1_555 1_555
C31_3 C30_3 1_555 1_555
H23_3 C31_3 1_555 1_555
C32_3 C31_3 1_555 1_555
C33_3 C32_3 1_555 1_555
C34_3 C32_3 1_555 1_555
C35_3 C29_3 1_555 1_555
H24_3 C35_3 1_555 1_555
C36_3 C34_3 1_555 1_555
C39_3 C36_3 1_555 1_555
H27_3 C39_3 1_555 1_555
O5_3 C28_3 1_555 1_555
O6_3 C28_3 1_555 1_555
O7_3 C33_3 1_555 1_555
O8_2 C33_3 1_555 1_555
Zn6_2 N5_3 1_555 1_555
O9_2 Zn6_2 1_555 1_555
Zn5_2 O8_2 1_555 1_555
C24_3 N4_3 1_555 1_555
C24_3 N5_3 1_555 1_555
C34_3 C35_3 1_555 1_555
O6_3 Zn6_2 1_555 1_555
C1_3 C2_3 1_555 1_555
C2_3 C3_3 1_555 1_555
C3_3 H1_3 1_555 1_555
C4_3 C3_3 1_555 1_555
H2_3 C4_3 1_555 1_555
C5_3 C4_3 1_555 1_555
C6_3 C5_3 1_555 1_555
C7_3 C5_3 1_555 1_555
C8_3 C2_3 1_555 1_555
H3_3 C8_3 1_555 1_555
C9_3 C7_3 1_555 1_555
C10_3 C9_3 1_555 1_555
H4_3 C10_3 1_555 1_555
C11_3 C10_3 1_555 1_555
H5_3 C11_3 1_555 1_555
C12_3 C9_3 1_555 1_555
H6_3 C12_3 1_555 1_555
C13_3 C12_3 1_555 1_555
H7_3 C13_3 1_555 1_555
N7 C11_3 1_555 1_555
O1_3 C1_3 1_555 1_555
O2_3 C1_3 1_555 1_555
O3_3 C6_3 1_555 1_555
Zn5_2 N3_3 1_555 1_555
C7_3 C8_3 1_555 1_555
C13_3 N7 1_555 1_555
O2_3 Zn5_2 1_555 1_555
C1_4 C2_4 1_555 1_555
C2_4 C3_4 1_555 1_555
C3_4 H1_4 1_555 1_555
C4_4 C3_4 1_555 1_555
H2_4 C4_4 1_555 1_555
C5_4 C4_4 1_555 1_555
C6_4 C5_4 1_555 1_555
C7_4 C5_4 1_555 1_555
C8_4 C2_4 1_555 1_555
H3_4 C8_4 1_555 1_555
C9_4 C7_4 1_555 1_555
C12_4 C9_4 1_555 1_555
H6_4 C12_4 1_555 1_555
O1_4 C1_4 1_555 1_555
O2_4 C1_4 1_555 1_555
O3_4 C6_4 1_555 1_555
O4_2 C6_4 1_555 1_555
Zn1 N3_4 1_555 1_555
O10_2 Zn1 1_555 1_555
Zn4 O4_2 1_555 1_555
C7_4 C8_4 1_555 1_555
O2_4 Zn1 1_555 1_555
C14_3 H8_2 1_555 1_555
C15_3 C14_3 1_555 1_555
H9_2 C15_3 1_555 1_555
C17_4 H11_4 1_555 1_555
H12_4 C17_4 1_555 1_555
C18_4 C17_4 1_555 1_555
C19_5 C18_4 1_555 1_555
H13_5 C19_5 1_555 1_555
C20_4 C18_4 1_555 1_555
H14_4 C20_4 1_555 1_555
C21_5 C20_4 1_555 1_555
H15_5 C21_5 1_555 1_555
N2_3 C15_3 1_555 1_555
C22_4 H16_3 1_555 1_555
C23_4 C22_4 1_555 1_555
H17_3 C23_4 1_555 1_555
C24_4 H18_4 1_555 1_555
C25_3 H19_3 1_555 1_555
H20_3 C25_3 1_555 1_555
C26_3 C19_5 1_555 1_555
C27_3 C21_5 1_555 1_555
H21_3 C27_3 1_555 1_555
N4_4 C23_4 1_555 1_555
N5_4 C22_4 1_555 1_555
C28_4 C29_4 1_555 1_555
C29_4 C30_4 1_555 1_555
C30_4 H22_4 1_555 1_555
C31_4 C30_4 1_555 1_555
H23_4 C31_4 1_555 1_555
C32_4 C31_4 1_555 1_555
C33_4 C32_4 1_555 1_555
C34_4 C32_4 1_555 1_555
C35_4 C29_4 1_555 1_555
H24_4 C35_4 1_555 1_555
C36_4 C34_4 1_555 1_555
C37_3 C36_4 1_555 1_555
H25_4 C37_3 1_555 1_555
C38_3 C37_3 1_555 1_555
H26_3 C38_3 1_555 1_555
C39_4 C36_4 1_555 1_555
H27_4 C39_4 1_555 1_555
C40_3 C39_4 1_555 1_555
N6_2 C38_3 1_555 1_555
O5_4 C28_4 1_555 1_555
O6_4 C28_4 1_555 1_555
O7_4 C33_4 1_555 1_555
Zn4 N5_4 1_555 1_555
N7_2 Zn4 1_555 1_555
C16_3 N2_3 1_555 1_555
C17_4 N2_3 1_555 1_555
C24_4 N4_4 1_555 1_555
C24_4 N5_4 1_555 1_555
C25_3 C26_3 1_555 1_555
C25_3 N4_4 1_555 1_555
C26_3 C27_3 1_555 1_555
C34_4 C35_4 1_555 1_555
C40_3 N6_2 1_555 1_555
O6_4 Zn4 1_555 1_555
C15_4 C14_4 1_555 1_555
H13_6 C19_6 1_555 1_555
H15_6 C21_6 1_555 1_555
N2_4 C15_4 1_555 1_555
C25_4 H19_4 1_555 1_555
H20_4 C25_4 1_555 1_555
C26_4 C19_6 1_555 1_555
C27_4 C21_6 1_555 1_555
H21_4 C27_4 1_555 1_555
C38_4 C37_4 1_555 1_555
H26_4 C38_4 1_555 1_555
N8_2 C38_4 1_555 1_555
C16_4 N2_4 1_555 1_555
C25_4 C26_4 1_555 1_555
C26_4 C27_4 1_555 1_555
C40_4 N8_2 1_555 1_555
C11_4 C10_4 1_555 1_555
H5_4 C11_4 1_555 1_555
H7_4 C13_4 1_555 1_555
N7_2 C11_4 1_555 1_555
C13_4 N7_2 1_555 1_555

#END
