
###############################################################################
#
# This file contains modified crystal structure data generated from the
# MOF subset of the Cambridge Structural Database (CSD) v543 
# hosted by the Cambridge Crystallographic Data Centre (CCDC).
#
# This work is licensed under the Creative Commons
# Attribution-NonCommercial-ShareAlike 4.0 International License.
# To view a copy of this license, visit
# http://creativecommons.org/licenses/by-nc-sa/4.0/
# or send a letter to
# Creative Commons, PO Box 1866, Mountain View, CA 94042, USA.
#
# CIF created using the CSD Python API on 29 September 2022
# The structure has been converted into the P1 space group
# The structure has a 3D framework
# The original CSD entry QOVWOP is in the monoclinic crystal system
# The framework has been calculated to contain at least 10.0% void space
# The void calculation uses a probe of radius 1.32A, grid spacing 0.4
#
###############################################################################

data_QOVWOP
_chemical_formula_moiety         '(C160 H112 Cd8 N24 O24)n'
_symmetry_cell_setting           triclinic
_symmetry_space_group_name_H-M   'P 1'
_symmetry_Int_Tables_number      1
_space_group_name_Hall           'P 1'
loop_
_symmetry_equiv_pos_site_id
_symmetry_equiv_pos_as_xyz
1 x,y,z
_cell_length_a                   11.979(2)
_cell_length_b                   18.789(4)
_cell_length_c                   18.662(5)
_cell_angle_alpha                90
_cell_angle_beta                 96.494(2)
_cell_angle_gamma                90
_cell_volume                     4173.37
loop_
_atom_site_label
_atom_site_type_symbol
_atom_site_fract_x
_atom_site_fract_y
_atom_site_fract_z
C23 C 0.0706(3) 0.0854(2) 0.0235(2)
H17 H 0.1073 0.0438 0.0397
N7 N 0.3954(3) 0.10961(16) 0.00187(17)
C15 C 0.5292(4) 0.3925(2) 0.9578(3)
H9 H 0.5734 0.4151 0.9268
C16 C 0.4294(3) 0.4146(2) 0.9765(2)
H10 H 0.3927 0.4562 0.9603
C17 C 0.6534(3) 0.2882(2) 0.9954(2)
C18 C 0.6731(3) 0.2478(2) 0.9356(2)
C20 C 0.5923(4) 0.2440(3) 0.8685(3)
H12 H 0.5183 0.2341 0.8811
H13 H 0.6149 0.2068 0.8380
H14 H 0.5918 0.2886 0.8435
N2 N 0.5519(3) 0.32968(17) 0.99389(19)
C26 C 0.7736(3) 0.2096(2) 0.9422(2)
H18 H 0.7916 0.1821 0.9037
C28 C 0.8758(4) 0.3730(2) 0.5683(2)
H22 H 0.8019 0.3645 0.5767
C29 C 0.9585(4) 0.3670(3) 0.6252(2)
H23 H 0.9400 0.3545 0.6707
N6 N 0.8954(3) 0.39039(16) 0.50187(17)
Cd3 Cd 0.75209(2) 0.382910(13) 0.410170(13)
N8 N 0.1046(3) 0.39039(16) 0.99813(17)
C1 C 0.3758(4) 0.1270(2) 0.0683(2)
H1 H 0.3019 0.1355 0.0767
C2 C 0.4585(4) 0.1330(3) 0.1252(2)
H2 H 0.4400 0.1455 0.1707
C3 C 0.5694(3) 0.12032(17) 0.1148(2)
C4 C 0.5909(3) 0.1010(2) 0.0453(2)
H3 H 0.6638 0.0915 0.0356
C6 C 0.6588(3) 0.13040(19) 0.17534(19)
C7 C 0.6602(3) 0.19322(19) 0.21546(19)
H5 H 0.6062 0.2279 0.2027
C8 C 0.7402(3) 0.2048(2) 0.27376(19)
C9 C 0.8220(3) 0.1536(2) 0.2923(2)
H6 H 0.8759 0.1608 0.3316
C10 C 0.8230(3) 0.0920(2) 0.2521(2)
H7 H 0.8791 0.0583 0.2638
C11 C 0.7417(3) 0.07942(19) 0.19468(19)
C12 C 0.7420(3) 0.00833(19) 0.15749(18)
C13 C 0.7367(3) 0.2701(2) 0.3192(2)
C14 C 0.5337(3) 0.3169(2) 0.4682(2)
H8 H 0.5386 0.2772 0.4390
C15_2 C 0.4708(4) 0.3925(2) 0.5422(3)
H9_2 H 0.4266 0.4151 0.5732
C16_2 C 0.5706(3) 0.4146(2) 0.5235(2)
H10_2 H 0.6073 0.4562 0.5397
C17_2 C 0.3466(3) 0.2882(2) 0.5046(2)
C18_2 C 0.3269(3) 0.2478(2) 0.5644(2)
C19 C 0.2736(3) 0.2904(2) 0.4422(2)
H11 H 0.2916 0.3179 0.4037
C20_2 C 0.4077(4) 0.2440(3) 0.6315(3)
H12_2 H 0.4817 0.2341 0.6189
H13_2 H 0.3851 0.2068 0.6620
H14_2 H 0.4082 0.2886 0.6565
N2_2 N 0.4481(3) 0.32968(17) 0.50611(19)
N3 N 0.6100(3) 0.36683(18) 0.47709(18)
O3 O 0.6637(3) 0.31684(18) 0.30291(19)
O4 O 0.8053(3) 0.27532(18) 0.37439(17)
C22 C 0.0292(4) 0.1075(2) 0.4578(3)
H16 H 0.0734 0.0849 0.4268
C24 C 0.1534(3) 0.2118(2) 0.4954(2)
C25 C 0.1731(3) 0.2522(2) 0.4356(2)
C26_2 C 0.2264(3) 0.2096(2) 0.5578(2)
H18_2 H 0.2084 0.1821 0.5963
C27 C 0.0923(4) 0.2560(3) 0.3685(3)
H19 H 0.0183 0.2659 0.3811
H20 H 0.1149 0.2932 0.3380
H21 H 0.0918 0.2114 0.3435
N4 N 0.0519(3) 0.17032(17) 0.49389(19)
C28_2 C 0.1242(4) 0.3730(2) 0.9317(2)
H22_2 H 0.1981 0.3645 0.9233
C29_2 C 0.0415(4) 0.3670(3) 0.8748(2)
H23_2 H 0.0600 0.3545 0.8293
O9 O 0.8412(2) 0.46873(15) 0.34348(16)
O11 O 0.6733(3) 0.49098(16) 0.37063(19)
O1 O 0.6588(2) 0.96873(15) 0.15652(16)
O2 O 0.8267(3) 0.99098(16) 0.12937(19)
Cd4 Cd 0.74791(2) 0.882910(13) 0.089830(13)
C3_2 C 0.9306(3) 0.62032(17) 0.3852(2)
C4_2 C 0.9091(3) 0.6010(2) 0.4547(2)
H3_2 H 0.8362 0.5915 0.4644
C5 C 0.9974(3) 0.5964(2) 0.5084(2)
H4 H 0.9820 0.5834 0.5543
C6_2 C 0.8412(3) 0.63040(19) 0.32466(19)
C7_2 C 0.8398(3) 0.69322(19) 0.28454(19)
H5_2 H 0.8938 0.7279 0.2973
C8_2 C 0.7598(3) 0.7048(2) 0.22624(19)
C9_2 C 0.6780(3) 0.6536(2) 0.2077(2)
H6_2 H 0.6241 0.6608 0.1684
C10_2 C 0.6770(3) 0.5920(2) 0.2479(2)
H7_2 H 0.6209 0.5583 0.2362
C11_2 C 0.7583(3) 0.57942(19) 0.30532(19)
C12_2 C 0.7580(3) 0.50833(19) 0.34251(18)
C13_2 C 0.7633(3) 0.7701(2) 0.1808(2)
C14_2 C 0.9663(3) 0.8169(2) 0.0318(2)
H8_2 H 0.9614 0.7772 0.0610
N3_2 N 0.8900(3) 0.86683(18) 0.02291(18)
O3_2 O 0.8363(3) 0.81684(18) 0.19709(19)
O4_2 O 0.6947(3) 0.77532(18) 0.12561(17)
C32 C 0.4974(3) 0.9036(2) 0.0084(2)
H25 H 0.4820 0.9166 0.0543
C21 C 0.0337(3) 0.1831(2) 0.9682(2)
H15 H 0.0386 0.2228 0.9390
N5 N 0.1100(3) 0.13317(18) 0.97709(18)
C30 C 0.0694(3) 0.37968(17) 0.6148(2)
C31 C 0.0909(3) 0.3990(2) 0.5453(2)
H24 H 0.1638 0.4085 0.5356
C32_2 C 0.0026(3) 0.4036(2) 0.4916(2)
H25_2 H 0.0180 0.4166 0.4457
C33 C 0.1588(3) 0.36960(19) 0.67534(19)
C34 C 0.1602(3) 0.30678(19) 0.71546(19)
H26 H 0.1062 0.2721 0.7027
C35 C 0.2402(3) 0.2952(2) 0.77376(19)
C36 C 0.3220(3) 0.3464(2) 0.7923(2)
H27 H 0.3759 0.3392 0.8316
C37 C 0.3230(3) 0.4080(2) 0.7521(2)
H28 H 0.3791 0.4417 0.7638
C38 C 0.2417(3) 0.42058(19) 0.69468(19)
C39 C 0.2420(3) 0.49167(19) 0.65749(18)
C40 C 0.2367(3) 0.2299(2) 0.8192(2)
Cd2 Cd 0.25209(2) 0.117090(13) 0.910170(13)
O5 O 0.1588(2) 0.53127(15) 0.65652(16)
O6 O 0.3267(3) 0.50902(16) 0.62937(19)
O7 O 0.1637(3) 0.18316(18) 0.80291(19)
O8 O 0.3053(3) 0.22468(18) 0.87439(17)
Cd5 Cd 0.24791(2) 0.617090(13) 0.589830(13)
O10 O 0.3412(2) 0.03127(15) 0.84348(16)
O12 O 0.1733(3) 0.00902(16) 0.87063(19)
C5_2 C 0.5026(3) 0.0964(2) 0.9916(2)
H4_2 H 0.5180 0.0834 0.9457
C1_2 C 0.1242(4) 0.6270(2) 0.4317(2)
H1_2 H 0.1981 0.6355 0.4233
C2_2 C 0.0415(4) 0.6330(3) 0.3748(2)
H2_2 H 0.0600 0.6455 0.3293
C19_2 C 0.2264(3) 0.7904(2) 0.0578(2)
H11_2 H 0.2084 0.8179 0.0963
N1 N 0.1046(3) 0.60961(16) 0.49813(17)
C22_2 C 0.4708(4) 0.6075(2) 0.0422(3)
H16_2 H 0.4266 0.5849 0.0732
C23_2 C 0.5706(3) 0.5854(2) 0.0235(2)
H17_2 H 0.6073 0.5438 0.0397
C24_2 C 0.3466(3) 0.7118(2) 0.0046(2)
C25_2 C 0.3269(3) 0.7522(2) 0.0644(2)
C27_2 C 0.4077(4) 0.7560(3) 0.1315(3)
H19_2 H 0.4817 0.7659 0.1189
H20_2 H 0.3851 0.7932 0.1620
H21_2 H 0.4082 0.7114 0.1565
N4_2 N 0.4481(3) 0.67032(17) 0.00611(19)
N7_2 N 0.8954(3) 0.60961(16) 0.00187(17)
C16_3 C 0.9294(3) 0.9146(2) 0.9765(2)
H10_3 H 0.8927 0.9562 0.9603
N8_2 N 0.6046(3) 0.89039(16) 0.99813(17)
C1_3 C 0.8758(4) 0.6270(2) 0.0683(2)
H1_3 H 0.8019 0.6355 0.0767
C2_3 C 0.9585(4) 0.6330(3) 0.1252(2)
H2_3 H 0.9400 0.6455 0.1707
C15_3 C 0.9708(4) 0.8925(2) 0.5422(3)
H9_3 H 0.9266 0.9151 0.5732
C17_3 C 0.8466(3) 0.7882(2) 0.5046(2)
C18_3 C 0.8269(3) 0.7478(2) 0.5644(2)
C19_3 C 0.7736(3) 0.7904(2) 0.4422(2)
H11_3 H 0.7916 0.8179 0.4037
C20_3 C 0.9077(4) 0.7440(3) 0.6315(3)
H12_3 H 0.9817 0.7341 0.6189
H13_3 H 0.8851 0.7068 0.6620
H14_3 H 0.9082 0.7886 0.6565
N2_3 N 0.9481(3) 0.82968(17) 0.50611(19)
C21_2 C 0.4663(3) 0.6831(2) 0.5318(2)
H15_2 H 0.4614 0.7228 0.5610
C22_3 C 0.5292(4) 0.6075(2) 0.4578(3)
H16_3 H 0.5734 0.5849 0.4268
C23_3 C 0.4294(3) 0.5854(2) 0.4765(2)
H17_3 H 0.3927 0.5438 0.4603
C24_3 C 0.6534(3) 0.7118(2) 0.4954(2)
C25_3 C 0.6731(3) 0.7522(2) 0.4356(2)
C26_3 C 0.7264(3) 0.7096(2) 0.5578(2)
H18_3 H 0.7084 0.6821 0.5963
C27_3 C 0.5923(4) 0.7560(3) 0.3685(3)
H19_3 H 0.5183 0.7659 0.3811
H20_3 H 0.6149 0.7932 0.3380
H21_3 H 0.5918 0.7114 0.3435
N4_3 N 0.5519(3) 0.67032(17) 0.49389(19)
N5_2 N 0.3900(3) 0.63317(18) 0.52291(18)
C28_3 C 0.6242(4) 0.8730(2) 0.9317(2)
H22_3 H 0.6981 0.8645 0.9233
C29_3 C 0.5415(4) 0.8670(3) 0.8748(2)
H23_3 H 0.5600 0.8545 0.8293
C30_2 C 0.4306(3) 0.87968(17) 0.8852(2)
C31_2 C 0.4091(3) 0.8990(2) 0.9547(2)
H24_2 H 0.3362 0.9085 0.9644
C33_2 C 0.3412(3) 0.86960(19) 0.82466(19)
C34_2 C 0.3398(3) 0.80678(19) 0.78454(19)
H26_2 H 0.3938 0.7721 0.7973
C35_2 C 0.2598(3) 0.7952(2) 0.72624(19)
C36_2 C 0.1780(3) 0.8464(2) 0.7077(2)
H27_2 H 0.1241 0.8392 0.6684
C37_2 C 0.1770(3) 0.9080(2) 0.7479(2)
H28_2 H 0.1209 0.9417 0.7362
C38_2 C 0.2583(3) 0.92058(19) 0.80532(19)
C39_2 C 0.2580(3) 0.99167(19) 0.84251(18)
C40_2 C 0.2633(3) 0.7299(2) 0.6808(2)
O7_2 O 0.3363(3) 0.68316(18) 0.69709(19)
O8_2 O 0.1947(3) 0.72468(18) 0.62561(17)
C1_4 C 0.6242(4) 0.1270(2) 0.4317(2)
H1_4 H 0.6981 0.1355 0.4233
C2_4 C 0.5415(4) 0.1330(3) 0.3748(2)
H2_4 H 0.5600 0.1455 0.3293
C3_3 C 0.4306(3) 0.12032(17) 0.3852(2)
C4_3 C 0.4091(3) 0.1010(2) 0.4547(2)
H3_3 H 0.3362 0.0915 0.4644
C5_3 C 0.4974(3) 0.0964(2) 0.5084(2)
H4_3 H 0.4820 0.0834 0.5543
C6_3 C 0.3412(3) 0.13040(19) 0.32466(19)
C7_3 C 0.3398(3) 0.19322(19) 0.28454(19)
H5_3 H 0.3938 0.2279 0.2973
C8_3 C 0.2598(3) 0.2048(2) 0.22624(19)
C9_3 C 0.1780(3) 0.1536(2) 0.2077(2)
H6_3 H 0.1241 0.1608 0.1684
C10_3 C 0.1770(3) 0.0920(2) 0.2479(2)
H7_3 H 0.1209 0.0583 0.2362
C11_3 C 0.2583(3) 0.07942(19) 0.30532(19)
C12_3 C 0.2580(3) 0.00833(19) 0.34251(18)
C13_3 C 0.2633(3) 0.2701(2) 0.1808(2)
C14_3 C 0.4663(3) 0.3169(2) 0.0318(2)
H8_3 H 0.4614 0.2772 0.0610
C19_4 C 0.7264(3) 0.2904(2) 0.0578(2)
H11_4 H 0.7084 0.3179 0.0963
Cd1 Cd 0.24791(2) 0.382910(13) 0.089830(13)
N1_2 N 0.6046(3) 0.10961(16) 0.49813(17)
N3_3 N 0.3900(3) 0.36683(18) 0.02291(18)
O3_3 O 0.3363(3) 0.31684(18) 0.19709(19)
O4_3 O 0.1947(3) 0.27532(18) 0.12561(17)
C22_4 C 0.9708(4) 0.1075(2) 0.0422(3)
H16_4 H 0.9266 0.0849 0.0732
C24_4 C 0.8466(3) 0.2118(2) 0.0046(2)
C25_4 C 0.8269(3) 0.2522(2) 0.0644(2)
C27_4 C 0.9077(4) 0.2560(3) 0.1315(3)
H19_4 H 0.9817 0.2659 0.1189
H20_4 H 0.8851 0.2932 0.1620
H21_4 H 0.9082 0.2114 0.1565
N4_4 N 0.9481(3) 0.17032(17) 0.00611(19)
Cd6 Cd 0.74791(2) 0.117090(13) 0.589830(13)
O9_2 O 0.1588(2) 0.46873(15) 0.15652(16)
O11_2 O 0.3267(3) 0.49098(16) 0.12937(19)
O1_2 O 0.3412(2) 0.96873(15) 0.34348(16)
O2_2 O 0.1733(3) 0.99098(16) 0.37063(19)
Cd4_2 Cd 0.25209(2) 0.882910(13) 0.410170(13)
C21_3 C 0.9663(3) 0.1831(2) 0.5318(2)
H15_3 H 0.9614 0.2228 0.5610
C23_4 C 0.9294(3) 0.0854(2) 0.4765(2)
H17_4 H 0.8927 0.0438 0.4603
N5_3 N 0.8900(3) 0.13317(18) 0.52291(18)
C30_3 C 0.9306(3) 0.37968(17) 0.8852(2)
C31_3 C 0.9091(3) 0.3990(2) 0.9547(2)
H24_3 H 0.8362 0.4085 0.9644
C33_3 C 0.8412(3) 0.36960(19) 0.82466(19)
C34_3 C 0.8398(3) 0.30678(19) 0.78454(19)
H26_3 H 0.8938 0.2721 0.7973
C35_3 C 0.7598(3) 0.2952(2) 0.72624(19)
C36_3 C 0.6780(3) 0.3464(2) 0.7077(2)
H27_3 H 0.6241 0.3392 0.6684
C37_3 C 0.6770(3) 0.4080(2) 0.7479(2)
H28_3 H 0.6209 0.4417 0.7362
C38_3 C 0.7583(3) 0.42058(19) 0.80532(19)
C39_3 C 0.7580(3) 0.49167(19) 0.84251(18)
C40_3 C 0.7633(3) 0.2299(2) 0.6808(2)
O5_2 O 0.8412(2) 0.53127(15) 0.84348(16)
O6_2 O 0.6733(3) 0.50902(16) 0.87063(19)
O7_3 O 0.8363(3) 0.18316(18) 0.69709(19)
O8_3 O 0.6947(3) 0.22468(18) 0.62561(17)
Cd5_2 Cd 0.75209(2) 0.617090(13) 0.910170(13)
O10_2 O 0.6588(2) 0.03127(15) 0.65652(16)
O12_2 O 0.8267(3) 0.00902(16) 0.62937(19)
C15_4 C 0.0292(4) 0.8925(2) 0.9578(3)
H9_4 H 0.0734 0.9151 0.9268
C17_4 C 0.1534(3) 0.7882(2) 0.9954(2)
C18_4 C 0.1731(3) 0.7478(2) 0.9356(2)
C20_4 C 0.0923(4) 0.7440(3) 0.8685(3)
H12_4 H 0.0183 0.7341 0.8811
H13_4 H 0.1149 0.7068 0.8380
H14_4 H 0.0918 0.7886 0.8435
N2_4 N 0.0519(3) 0.82968(17) 0.99389(19)
C21_4 C 0.5337(3) 0.6831(2) 0.9682(2)
H15_4 H 0.5386 0.7228 0.9390
C26_4 C 0.2736(3) 0.7096(2) 0.9422(2)
H18_4 H 0.2916 0.6821 0.9037
N5_4 N 0.6100(3) 0.63317(18) 0.97709(18)
C28_4 C 0.3758(4) 0.8730(2) 0.5683(2)
H22_4 H 0.3019 0.8645 0.5767
C29_4 C 0.4585(4) 0.8670(3) 0.6252(2)
H23_4 H 0.4400 0.8545 0.6707
C30_4 C 0.5694(3) 0.87968(17) 0.6148(2)
C31_4 C 0.5909(3) 0.8990(2) 0.5453(2)
H24_4 H 0.6638 0.9085 0.5356
C32_3 C 0.5026(3) 0.9036(2) 0.4916(2)
H25_3 H 0.5180 0.9166 0.4457
C33_4 C 0.6588(3) 0.86960(19) 0.67534(19)
C34_4 C 0.6602(3) 0.80678(19) 0.71546(19)
H26_4 H 0.6062 0.7721 0.7027
C35_4 C 0.7402(3) 0.7952(2) 0.77376(19)
C36_4 C 0.8220(3) 0.8464(2) 0.7923(2)
H27_4 H 0.8759 0.8392 0.8316
C37_4 C 0.8230(3) 0.9080(2) 0.7521(2)
H28_4 H 0.8791 0.9417 0.7638
C38_4 C 0.7417(3) 0.92058(19) 0.69468(19)
C39_4 C 0.7420(3) 0.99167(19) 0.65749(18)
C40_4 C 0.7367(3) 0.7299(2) 0.8192(2)
N6_2 N 0.3954(3) 0.89039(16) 0.50187(17)
O7_4 O 0.6637(3) 0.68316(18) 0.80291(19)
O8_4 O 0.8053(3) 0.72468(18) 0.87439(17)
C3_4 C 0.0694(3) 0.62032(17) 0.1148(2)
C4_4 C 0.0909(3) 0.6010(2) 0.0453(2)
H3_4 H 0.1638 0.5915 0.0356
C6_4 C 0.1588(3) 0.63040(19) 0.17534(19)
C7_4 C 0.1602(3) 0.69322(19) 0.21546(19)
H5_4 H 0.1062 0.7279 0.2027
C8_4 C 0.2402(3) 0.7048(2) 0.27376(19)
C9_4 C 0.3220(3) 0.6536(2) 0.2923(2)
H6_4 H 0.3759 0.6608 0.3316
C10_4 C 0.3230(3) 0.5920(2) 0.2521(2)
H7_4 H 0.3791 0.5583 0.2638
C11_4 C 0.2417(3) 0.57942(19) 0.19468(19)
C12_4 C 0.2420(3) 0.50833(19) 0.15749(18)
C13_4 C 0.2367(3) 0.7701(2) 0.3192(2)
C14_4 C 0.0337(3) 0.8169(2) 0.4682(2)
H8_4 H 0.0386 0.7772 0.4390
C16_4 C 0.0706(3) 0.9146(2) 0.5235(2)
H10_4 H 0.1073 0.9562 0.5397
N3_4 N 0.1100(3) 0.86683(18) 0.47709(18)
O3_4 O 0.1637(3) 0.81684(18) 0.30291(19)
O4_4 O 0.3053(3) 0.77532(18) 0.37439(17)
C32_4 C 0.9974(3) 0.4036(2) 0.0084(2)
H25_4 H 0.9820 0.4166 0.0543
C5_4 C 0.0026(3) 0.5964(2) 0.9916(2)
H4_4 H 0.0180 0.5834 0.9457
loop_
_geom_bond_atom_site_label_1
_geom_bond_atom_site_label_2
_geom_bond_site_symmetry_1
_geom_bond_site_symmetry_2
H17 C23 1_555 1_555
C15 H9 1_555 1_555
C16 C15 1_555 1_555
H10 C16 1_555 1_555
C17 C18 1_555 1_555
C18 C20 1_555 1_555
C20 H12 1_555 1_555
H13 C20 1_555 1_555
H14 C20 1_555 1_555
C26 C18 1_555 1_555
H18 C26 1_555 1_555
C28 H22 1_555 1_555
C29 C28 1_555 1_555
H23 C29 1_555 1_555
N6 C28 1_555 1_555
Cd3 N6 1_555 1_555
C15 N2 1_555 1_555
C17 N2 1_555 1_555
C1 H1 1_555 1_555
C2 C1 1_555 1_555
H2 C2 1_555 1_555
C3 C2 1_555 1_555
C4 C3 1_555 1_555
H3 C4 1_555 1_555
C6 C3 1_555 1_555
C7 C6 1_555 1_555
H5 C7 1_555 1_555
C8 C7 1_555 1_555
C9 C8 1_555 1_555
H6 C9 1_555 1_555
C10 C9 1_555 1_555
H7 C10 1_555 1_555
C11 C6 1_555 1_555
C12 C11 1_555 1_555
C13 C8 1_555 1_555
C14 H8 1_555 1_555
C15_2 H9_2 1_555 1_555
C16_2 C15_2 1_555 1_555
H10_2 C16_2 1_555 1_555
C17_2 C18_2 1_555 1_555
C18_2 C20_2 1_555 1_555
C19 C17_2 1_555 1_555
H11 C19 1_555 1_555
C20_2 H12_2 1_555 1_555
H13_2 C20_2 1_555 1_555
H14_2 C20_2 1_555 1_555
Cd3 N3 1_555 1_555
N7 C1 1_555 1_555
N2_2 C14 1_555 1_555
N3 C14 1_555 1_555
O3 C13 1_555 1_555
O4 C13 1_555 1_555
C22 H16 1_555 1_555
C24 C25 1_555 1_555
C25 C19 1_555 1_555
C26_2 C18_2 1_555 1_555
H18_2 C26_2 1_555 1_555
C27 C25 1_555 1_555
H19 C27 1_555 1_555
H20 C27 1_555 1_555
H21 C27 1_555 1_555
C28_2 H22_2 1_555 1_555
C29_2 C28_2 1_555 1_555
H23_2 C29_2 1_555 1_555
N8 C28_2 1_555 1_555
O9 Cd3 1_555 1_555
O11 Cd3 1_555 1_555
C10 C11 1_555 1_555
C15_2 N2_2 1_555 1_555
C16_2 N3 1_555 1_555
C17_2 N2_2 1_555 1_555
Cd3 O3 1_555 1_555
Cd3 O4 1_555 1_555
C22 N4 1_555 1_555
C24 C26_2 1_555 1_555
C24 N4 1_555 1_555
Cd4 O1 1_555 1_555
O2 Cd4 1_555 1_555
C4_2 C3_2 1_555 1_555
H3_2 C4_2 1_555 1_555
C5 C4_2 1_555 1_555
H4 C5 1_555 1_555
C6_2 C3_2 1_555 1_555
C7_2 C6_2 1_555 1_555
H5_2 C7_2 1_555 1_555
C8_2 C7_2 1_555 1_555
C9_2 C8_2 1_555 1_555
H6_2 C9_2 1_555 1_555
C10_2 C9_2 1_555 1_555
H7_2 C10_2 1_555 1_555
C11_2 C6_2 1_555 1_555
C12_2 C11_2 1_555 1_555
C13_2 C8_2 1_555 1_555
C14_2 H8_2 1_555 1_555
Cd4 N3_2 1_555 1_555
N3_2 C14_2 1_555 1_555
O9 C12_2 1_555 1_555
O11 C12_2 1_555 1_555
O3_2 C13_2 1_555 1_555
O4_2 C13_2 1_555 1_555
C10_2 C11_2 1_555 1_555
Cd4 O3_2 1_555 1_555
Cd4 O4_2 1_555 1_555
H25 C32 1_555 1_555
C21 H15 1_555 1_555
N5 C21 1_555 1_555
C31 C30 1_555 1_555
H24 C31 1_555 1_555
C32_2 C31 1_555 1_555
H25_2 C32_2 1_555 1_555
C33 C30 1_555 1_555
C34 C33 1_555 1_555
H26 C34 1_555 1_555
C35 C34 1_555 1_555
C36 C35 1_555 1_555
H27 C36 1_555 1_555
C37 C36 1_555 1_555
H28 C37 1_555 1_555
C38 C33 1_555 1_555
C39 C38 1_555 1_555
C40 C35 1_555 1_555
Cd2 N5 1_555 1_555
O5 C39 1_555 1_555
O6 C39 1_555 1_555
O7 C40 1_555 1_555
O8 C40 1_555 1_555
Cd5 O5 1_555 1_555
O10 Cd2 1_555 1_555
O12 Cd2 1_555 1_555
C37 C38 1_555 1_555
Cd2 O7 1_555 1_555
Cd2 O8 1_555 1_555
O6 Cd5 1_555 1_555
H4_2 C5_2 1_555 1_555
C1_2 H1_2 1_555 1_555
C2_2 C1_2 1_555 1_555
H2_2 C2_2 1_555 1_555
H11_2 C19_2 1_555 1_555
N1 C1_2 1_555 1_555
C22_2 H16_2 1_555 1_555
C23_2 C22_2 1_555 1_555
H17_2 C23_2 1_555 1_555
C24_2 C25_2 1_555 1_555
C25_2 C19_2 1_555 1_555
C27_2 C25_2 1_555 1_555
H19_2 C27_2 1_555 1_555
H20_2 C27_2 1_555 1_555
H21_2 C27_2 1_555 1_555
Cd5 N1 1_555 1_555
C22_2 N4_2 1_555 1_555
C24_2 N4_2 1_555 1_555
H10_3 C16_3 1_555 1_555
C1_3 H1_3 1_555 1_555
C2_3 C1_3 1_555 1_555
H2_3 C2_3 1_555 1_555
C15_3 H9_3 1_555 1_555
C17_3 C18_3 1_555 1_555
C18_3 C20_3 1_555 1_555
C19_3 C17_3 1_555 1_555
H11_3 C19_3 1_555 1_555
C20_3 H12_3 1_555 1_555
H13_3 C20_3 1_555 1_555
H14_3 C20_3 1_555 1_555
N7_2 C1_3 1_555 1_555
C21_2 H15_2 1_555 1_555
C22_3 H16_3 1_555 1_555
C23_3 C22_3 1_555 1_555
H17_3 C23_3 1_555 1_555
C24_3 C25_3 1_555 1_555
C25_3 C19_3 1_555 1_555
C26_3 C18_3 1_555 1_555
H18_3 C26_3 1_555 1_555
C27_3 C25_3 1_555 1_555
H19_3 C27_3 1_555 1_555
H20_3 C27_3 1_555 1_555
H21_3 C27_3 1_555 1_555
N4_3 C21_2 1_555 1_555
N5_2 C21_2 1_555 1_555
C28_3 H22_3 1_555 1_555
C29_3 C28_3 1_555 1_555
H23_3 C29_3 1_555 1_555
C30_2 C29_3 1_555 1_555
C31_2 C30_2 1_555 1_555
H24_2 C31_2 1_555 1_555
C33_2 C30_2 1_555 1_555
C34_2 C33_2 1_555 1_555
H26_2 C34_2 1_555 1_555
C35_2 C34_2 1_555 1_555
C36_2 C35_2 1_555 1_555
H27_2 C36_2 1_555 1_555
C37_2 C36_2 1_555 1_555
H28_2 C37_2 1_555 1_555
C38_2 C33_2 1_555 1_555
C39_2 C38_2 1_555 1_555
C40_2 C35_2 1_555 1_555
Cd5 N5_2 1_555 1_555
N8_2 C28_3 1_555 1_555
O7_2 C40_2 1_555 1_555
O8_2 C40_2 1_555 1_555
C15_3 N2_3 1_555 1_555
C17_3 N2_3 1_555 1_555
C22_3 N4_3 1_555 1_555
C23_3 N5_2 1_555 1_555
C24_3 C26_3 1_555 1_555
C24_3 N4_3 1_555 1_555
C37_2 C38_2 1_555 1_555
Cd5 O7_2 1_555 1_555
Cd5 O8_2 1_555 1_555
C1_4 H1_4 1_555 1_555
C2_4 C1_4 1_555 1_555
H2_4 C2_4 1_555 1_555
C3_3 C2_4 1_555 1_555
C4_3 C3_3 1_555 1_555
H3_3 C4_3 1_555 1_555
C5_3 C4_3 1_555 1_555
H4_3 C5_3 1_555 1_555
C6_3 C3_3 1_555 1_555
C7_3 C6_3 1_555 1_555
H5_3 C7_3 1_555 1_555
C8_3 C7_3 1_555 1_555
C9_3 C8_3 1_555 1_555
H6_3 C9_3 1_555 1_555
C10_3 C9_3 1_555 1_555
H7_3 C10_3 1_555 1_555
C11_3 C6_3 1_555 1_555
C12_3 C11_3 1_555 1_555
C13_3 C8_3 1_555 1_555
C14_3 H8_3 1_555 1_555
H11_4 C19_4 1_555 1_555
Cd1 N3_3 1_555 1_555
N1_2 C1_4 1_555 1_555
N3_3 C14_3 1_555 1_555
O3_3 C13_3 1_555 1_555
O4_3 C13_3 1_555 1_555
C22_4 H16_4 1_555 1_555
C24_4 C25_4 1_555 1_555
C25_4 C19_4 1_555 1_555
C27_4 C25_4 1_555 1_555
H19_4 C27_4 1_555 1_555
H20_4 C27_4 1_555 1_555
H21_4 C27_4 1_555 1_555
Cd6 N1_2 1_555 1_555
O9_2 Cd1 1_555 1_555
O11_2 Cd1 1_555 1_555
C5_3 N1_2 1_555 1_555
C10_3 C11_3 1_555 1_555
Cd1 O3_3 1_555 1_555
Cd1 O4_3 1_555 1_555
C22_4 N4_4 1_555 1_555
C24_4 N4_4 1_555 1_555
Cd4_2 O1_2 1_555 1_555
O2_2 Cd4_2 1_555 1_555
C21_3 H15_3 1_555 1_555
H17_4 C23_4 1_555 1_555
N5_3 C21_3 1_555 1_555
C31_3 C30_3 1_555 1_555
H24_3 C31_3 1_555 1_555
C33_3 C30_3 1_555 1_555
C34_3 C33_3 1_555 1_555
H26_3 C34_3 1_555 1_555
C35_3 C34_3 1_555 1_555
C36_3 C35_3 1_555 1_555
H27_3 C36_3 1_555 1_555
C37_3 C36_3 1_555 1_555
H28_3 C37_3 1_555 1_555
C38_3 C33_3 1_555 1_555
C39_3 C38_3 1_555 1_555
C40_3 C35_3 1_555 1_555
Cd6 N5_3 1_555 1_555
O5_2 C39_3 1_555 1_555
O6_2 C39_3 1_555 1_555
O7_3 C40_3 1_555 1_555
O8_3 C40_3 1_555 1_555
Cd5_2 O5_2 1_555 1_555
O10_2 Cd6 1_555 1_555
O12_2 Cd6 1_555 1_555
C23_4 N5_3 1_555 1_555
C37_3 C38_3 1_555 1_555
Cd6 O7_3 1_555 1_555
Cd6 O8_3 1_555 1_555
O6_2 Cd5_2 1_555 1_555
C15_4 H9_4 1_555 1_555
C17_4 C18_4 1_555 1_555
C18_4 C20_4 1_555 1_555
C20_4 H12_4 1_555 1_555
H13_4 C20_4 1_555 1_555
H14_4 C20_4 1_555 1_555
C21_4 H15_4 1_555 1_555
C26_4 C18_4 1_555 1_555
H18_4 C26_4 1_555 1_555
N5_4 C21_4 1_555 1_555
C28_4 H22_4 1_555 1_555
C29_4 C28_4 1_555 1_555
H23_4 C29_4 1_555 1_555
C30_4 C29_4 1_555 1_555
C31_4 C30_4 1_555 1_555
H24_4 C31_4 1_555 1_555
C32_3 C31_4 1_555 1_555
H25_3 C32_3 1_555 1_555
C33_4 C30_4 1_555 1_555
C34_4 C33_4 1_555 1_555
H26_4 C34_4 1_555 1_555
C35_4 C34_4 1_555 1_555
C36_4 C35_4 1_555 1_555
H27_4 C36_4 1_555 1_555
C37_4 C36_4 1_555 1_555
H28_4 C37_4 1_555 1_555
C38_4 C33_4 1_555 1_555
C39_4 C38_4 1_555 1_555
C40_4 C35_4 1_555 1_555
Cd5_2 N5_4 1_555 1_555
N6_2 C28_4 1_555 1_555
O7_4 C40_4 1_555 1_555
O8_4 C40_4 1_555 1_555
Cd4_2 N6_2 1_555 1_555
C15_4 N2_4 1_555 1_555
C17_4 N2_4 1_555 1_555
C32_3 N6_2 1_555 1_555
C37_4 C38_4 1_555 1_555
Cd5_2 O7_4 1_555 1_555
Cd5_2 O8_4 1_555 1_555
C4_4 C3_4 1_555 1_555
H3_4 C4_4 1_555 1_555
C6_4 C3_4 1_555 1_555
C7_4 C6_4 1_555 1_555
H5_4 C7_4 1_555 1_555
C8_4 C7_4 1_555 1_555
C9_4 C8_4 1_555 1_555
H6_4 C9_4 1_555 1_555
C10_4 C9_4 1_555 1_555
H7_4 C10_4 1_555 1_555
C11_4 C6_4 1_555 1_555
C12_4 C11_4 1_555 1_555
C13_4 C8_4 1_555 1_555
C14_4 H8_4 1_555 1_555
H10_4 C16_4 1_555 1_555
Cd4_2 N3_4 1_555 1_555
N3_4 C14_4 1_555 1_555
O9_2 C12_4 1_555 1_555
O11_2 C12_4 1_555 1_555
O3_4 C13_4 1_555 1_555
O4_4 C13_4 1_555 1_555
C10_4 C11_4 1_555 1_555
C16_4 N3_4 1_555 1_555
Cd4_2 O3_4 1_555 1_555
Cd4_2 O4_4 1_555 1_555
H25_4 C32_4 1_555 1_555
H4_4 C5_4 1_555 1_555

#END
