
###############################################################################
#
# This file contains modified crystal structure data generated from the
# MOF subset of the Cambridge Structural Database (CSD) v543 
# hosted by the Cambridge Crystallographic Data Centre (CCDC).
#
# This work is licensed under the Creative Commons
# Attribution-NonCommercial-ShareAlike 4.0 International License.
# To view a copy of this license, visit
# http://creativecommons.org/licenses/by-nc-sa/4.0/
# or send a letter to
# Creative Commons, PO Box 1866, Mountain View, CA 94042, USA.
#
# CIF created using the CSD Python API on 29 September 2022
# The structure has been converted into the P1 space group
# The structure has a 3D framework
# The original CSD entry QOVXEG is in the rhombohedral crystal system
# The framework has been calculated to contain at least 10.0% void space
# The void calculation uses a probe of radius 1.32A, grid spacing 0.4
#
###############################################################################

data_QOVXEG
_chemical_formula_moiety         '(C252 H180 Co18 N72)n'
_symmetry_cell_setting           triclinic
_symmetry_space_group_name_H-M   'P 1'
_symmetry_Int_Tables_number      1
_space_group_name_Hall           'P 1'
loop_
_symmetry_equiv_pos_site_id
_symmetry_equiv_pos_as_xyz
1 x,y,z
_cell_length_a                   22.4424(18)
_cell_length_b                   22.4424(18)
_cell_length_c                   15.8063(19)
_cell_angle_alpha                90
_cell_angle_beta                 90
_cell_angle_gamma                120
_cell_volume                     6894.45
loop_
_atom_site_label
_atom_site_type_symbol
_atom_site_fract_x
_atom_site_fract_y
_atom_site_fract_z
Co1 Co 0.40124(9) 0.06123(9) 0.32262(10)
C1 C 0.3392(4) 0.0284(4) 0.1542(5)
C5 C 0.3896(4) 0.1891(4) 0.3352(4)
C6 C 0.4525(4) 0.1966(4) 0.2310(4)
C7 C 0.4897(4) 0.1869(5) 0.1694(5)
C8 C 0.5263(4) 0.2421(5) 0.1140(5)
C9 C 0.4515(3) 0.2571(4) 0.2379(4)
C10 C 0.4883(4) 0.3105(4) 0.1830(5)
C11 C 0.5255(4) 0.3014(5) 0.1211(5)
N1 N 0.3666(3) 0.0093(4) 0.2154(4)
N2 N 0.4115(4) 0.1535(3) 0.2952(5)
N3 N 0.4100(3) 0.2513(4) 0.3060(4)
H1 H 0.3353 0.0676 0.1592
H4 H 0.3609 0.1717 0.3821
H5 H 0.4906 0.1460 0.1646
H6 H 0.5520 0.2376 0.0709
H7 H 0.4879 0.3516 0.1877
H8 H 0.5508 0.3369 0.0832
Co3 Co 0.39456(9) 0.32666(13) 0.34405(10)
N5 N 0.4920(5) 0.0767(3) 0.3607(4)
N6 N 0.3384(5) 0.0156(3) 0.4194(5)
Co2 Co 0.27210(9) 0.00668(13) 0.98929(10)
C5_2 C 0.7229(4) 0.8558(4) 0.0019(4)
H4_2 H 0.6942 0.8384 0.0488
Co3_2 Co 0.72790(9) 0.99332(13) 0.01071(10)
N5_2 N 0.8254(5) 0.7433(3) 0.0273(4)
N6_2 N 0.6717(5) 0.6823(3) 0.0861(5)
Co1_2 Co 0.73457(9) 0.72790(9) 0.98929(10)
C1_2 C 0.6725(4) 0.6951(4) 0.8209(5)
C2 C 0.6955(3) 0.6174(4) 0.8498(4)
C3 C 0.7149(4) 0.5740(4) 0.8854(5)
C4 C 0.7033(4) 0.5193(4) 0.8388(6)
C6_2 C 0.7858(4) 0.8633(4) 0.8977(4)
C7_2 C 0.8230(4) 0.8536(5) 0.8361(5)
C8_2 C 0.8596(4) 0.9088(5) 0.7807(5)
C9_2 C 0.7848(3) 0.9238(4) 0.9046(4)
C10_2 C 0.8216(4) 0.9772(4) 0.8497(5)
C11_2 C 0.8588(4) 0.9681(5) 0.7878(5)
C12 C 0.6651(3) 0.6049(3) 0.7706(4)
C13 C 0.6536(4) 0.5488(4) 0.7229(5)
C14 C 0.6739(4) 0.5065(4) 0.7588(6)
N1_2 N 0.6999(3) 0.6760(4) 0.8821(4)
N2_2 N 0.7448(4) 0.8202(3) 0.9619(5)
N3_2 N 0.7433(3) 0.9180(4) 0.9727(4)
N4 N 0.6510(3) 0.6561(4) 0.7528(5)
H1_2 H 0.6686 0.7343 0.8259
H2 H 0.7348 0.5820 0.9388
H3 H 0.7156 0.4885 0.8610
H5_2 H 0.8239 0.8127 0.8313
H6_2 H 0.8853 0.9043 0.7376
H9 H 0.6333 0.5403 0.6697
H10 H 0.6679 0.4682 0.7289
Co2_2 Co 0.60544(9) 0.67334(13) 0.65595(10)
Co1_3 Co 0.06791(9) 0.39456(9) 0.65595(10)
C1_3 C 0.0059(4) 0.3617(4) 0.4875(5)
C2_2 C 0.0289(3) 0.2840(4) 0.5164(4)
C3_2 C 0.0483(4) 0.2406(4) 0.5520(5)
C4_2 C 0.0367(4) 0.1859(4) 0.5054(6)
C5_3 C 0.0563(4) 0.5224(4) 0.6685(4)
C6_3 C 0.1192(4) 0.5299(4) 0.5643(4)
C7_3 C 0.1564(4) 0.5202(5) 0.5027(5)
C8_3 C 0.1930(4) 0.5754(5) 0.4473(5)
C9_3 C 0.1182(3) 0.5904(4) 0.5712(4)
C10_3 C 0.1550(4) 0.6438(4) 0.5163(5)
C11_3 C 0.1922(4) 0.6347(5) 0.4544(5)
C14_2 C 0.0073(4) 0.1731(4) 0.4254(6)
N1_3 N 0.0333(3) 0.3426(4) 0.5487(4)
N2_3 N 0.0782(4) 0.4868(3) 0.6285(5)
N3_3 N 0.0767(3) 0.5846(4) 0.6393(4)
H1_3 H 0.0020 0.4009 0.4925
H2_2 H 0.0682 0.2486 0.6054
H3_2 H 0.0490 0.1551 0.5276
H4_3 H 0.0276 0.5050 0.7154
H5_3 H 0.1573 0.4793 0.4979
H6_3 H 0.2187 0.5709 0.4042
H7_2 H 0.1546 0.6849 0.5210
H8_2 H 0.2175 0.6702 0.4165
H10_2 H 0.0013 0.1348 0.3955
Co3_3 Co 0.06123(9) 0.65999(13) 0.67738(10)
N5_3 N 0.1587(5) 0.4100(3) 0.6940(4)
N6_3 N 0.0050(5) 0.3490(3) 0.7528(5)
C12_2 C 0.9985(3) 0.2715(3) 0.4372(4)
C13_2 C 0.9870(4) 0.2154(4) 0.3895(5)
N4_2 N 0.9844(3) 0.3227(4) 0.4194(5)
H9_2 H 0.9667 0.2069 0.3363
Co2_3 Co 0.93877(9) 0.34001(13) 0.32262(10)
C2_3 C 0.0493(4) 0.4115(5) 0.1831(4)
C3_3 C 0.0927(4) 0.4743(6) 0.2187(5)
C4_3 C 0.1474(4) 0.5174(6) 0.1721(6)
C12_3 C 0.0618(3) 0.3936(4) 0.1039(4)
C13_3 C 0.1179(4) 0.4382(6) 0.0562(5)
C14_3 C 0.1602(4) 0.5008(6) 0.0921(6)
N4_3 N 0.0106(4) 0.3283(5) 0.0861(5)
H2_3 H 0.0847 0.4862 0.2721
H3_3 H 0.1782 0.5605 0.1943
H9_3 H 0.1264 0.4264 0.0030
H10_3 H 0.1985 0.5331 0.0622
C1_4 C 0.9716(4) 0.3108(6) 0.1542(5)
C5_4 C 0.8109(4) 0.2005(6) 0.3352(4)
C6_4 C 0.8034(4) 0.2559(6) 0.2310(4)
C7_4 C 0.8131(5) 0.3028(6) 0.1694(5)
C8_4 C 0.7579(5) 0.2842(6) 0.1140(5)
C9_4 C 0.7429(4) 0.1944(5) 0.2379(4)
C10_4 C 0.6895(4) 0.1778(6) 0.1830(5)
C11_4 C 0.6986(5) 0.2241(6) 0.1211(5)
N1_4 N 0.9907(4) 0.3573(5) 0.2154(4)
N2_4 N 0.8465(3) 0.2580(5) 0.2952(5)
N3_4 N 0.7487(4) 0.1587(5) 0.3060(4)
H1_4 H 0.9324 0.2677 0.1592
H4_4 H 0.8283 0.1892 0.3821
H5_4 H 0.8540 0.3446 0.1646
H6_4 H 0.7624 0.3144 0.0709
H7_3 H 0.6484 0.1363 0.1877
H8_3 H 0.6631 0.2139 0.0832
Co3_4 Co 0.67334(13) 0.06791(16) 0.34405(10)
N5_4 N 0.9233(3) 0.4154(6) 0.3607(4)
N5_5 N 0.2567(3) 0.0820(6) 0.0273(4)
C2_4 C 0.3826(4) 0.0782(5) 0.8498(4)
C3_4 C 0.4260(4) 0.1410(6) 0.8854(5)
C4_4 C 0.4807(4) 0.1841(6) 0.8388(6)
C12_4 C 0.3951(3) 0.0603(4) 0.7706(4)
C13_4 C 0.4512(4) 0.1049(6) 0.7229(5)
C14_4 C 0.4935(4) 0.1675(6) 0.7588(6)
N1_5 N 0.3240(4) 0.0240(5) 0.8821(4)
H2_4 H 0.4180 0.1529 0.9388
H3_4 H 0.5115 0.2272 0.8610
H5_5 H 0.1873 0.0113 0.8313
H9_4 H 0.4597 0.0931 0.6697
H10_4 H 0.5318 0.1998 0.7289
C1_5 C 0.3049(4) 0.9775(6) 0.8209(5)
C6_5 C 0.1367(4) 0.9226(6) 0.8977(4)
C7_5 C 0.1464(5) 0.9695(6) 0.8361(5)
C8_5 C 0.0912(5) 0.9509(6) 0.7807(5)
C9_5 C 0.0762(4) 0.8611(5) 0.9046(4)
C10_5 C 0.0228(4) 0.8445(6) 0.8497(5)
C11_5 C 0.0319(5) 0.8908(6) 0.7878(5)
N2_5 N 0.1798(3) 0.9247(5) 0.9619(5)
N3_5 N 0.0820(4) 0.8254(5) 0.9727(4)
N4_4 N 0.3439(4) 0.9950(5) 0.7528(5)
H1_5 H 0.2657 0.9344 0.8259
H6_5 H 0.0957 0.9811 0.7376
Co2_4 Co 0.32666(13) 0.93209(16) 0.65595(10)
C1_6 C 0.6383(4) 0.6441(6) 0.4875(5)
C2_5 C 0.7160(4) 0.7448(5) 0.5164(4)
C3_5 C 0.7594(4) 0.8076(6) 0.5520(5)
C4_5 C 0.8141(4) 0.8507(6) 0.5054(6)
C5_5 C 0.4776(4) 0.5338(6) 0.6685(4)
C6_6 C 0.4701(4) 0.5892(6) 0.5643(4)
C7_6 C 0.4798(5) 0.6361(6) 0.5027(5)
C8_6 C 0.4246(5) 0.6175(6) 0.4473(5)
C9_6 C 0.4096(4) 0.5277(5) 0.5712(4)
C10_6 C 0.3562(4) 0.5111(6) 0.5163(5)
C11_6 C 0.3653(5) 0.5574(6) 0.4544(5)
C12_5 C 0.7285(3) 0.7269(4) 0.4372(4)
C13_5 C 0.7846(4) 0.7715(6) 0.3895(5)
C14_5 C 0.8269(4) 0.8341(6) 0.4254(6)
N1_6 N 0.6574(4) 0.6906(5) 0.5487(4)
N2_6 N 0.5132(3) 0.5913(5) 0.6285(5)
N3_6 N 0.4154(4) 0.4920(5) 0.6393(4)
N4_5 N 0.6773(4) 0.6616(5) 0.4194(5)
H1_6 H 0.5991 0.6010 0.4925
H2_5 H 0.7514 0.8195 0.6054
H3_5 H 0.8449 0.8938 0.5276
H4_5 H 0.4950 0.5225 0.7154
H5_6 H 0.5207 0.6779 0.4979
H6_6 H 0.4291 0.6477 0.4042
H7_4 H 0.3151 0.4696 0.5210
H8_4 H 0.3298 0.5472 0.4165
H9_5 H 0.7931 0.7597 0.3363
H10_5 H 0.8652 0.8664 0.3955
Co2_5 Co 0.65999(13) 0.59876(16) 0.32262(10)
Co3_5 Co 0.34001(13) 0.40124(16) 0.67738(10)
N5_6 N 0.5900(3) 0.7487(6) 0.6940(4)
C1_7 C 0.6892(6) 0.6608(4) 0.1542(5)
C2_6 C 0.5885(5) 0.6378(3) 0.1831(4)
C3_6 C 0.5257(6) 0.6184(4) 0.2187(5)
C4_6 C 0.4826(6) 0.6300(4) 0.1721(6)
C5_6 C 0.7995(6) 0.6104(4) 0.3352(4)
C6_7 C 0.7441(6) 0.5475(4) 0.2310(4)
C7_7 C 0.6972(6) 0.5103(4) 0.1694(5)
C8_7 C 0.7158(6) 0.4737(4) 0.1140(5)
C9_7 C 0.8056(5) 0.5485(3) 0.2379(4)
C10_7 C 0.8222(6) 0.5117(4) 0.1830(5)
C11_7 C 0.7759(6) 0.4745(4) 0.1211(5)
C12_6 C 0.6064(4) 0.6682(3) 0.1039(4)
C13_6 C 0.5618(6) 0.6797(4) 0.0562(5)
C14_6 C 0.4992(6) 0.6594(4) 0.0921(6)
N1_7 N 0.6427(5) 0.6334(3) 0.2154(4)
N2_7 N 0.7420(5) 0.5885(4) 0.2952(5)
N3_7 N 0.8413(5) 0.5900(3) 0.3060(4)
H1_7 H 0.7323 0.6647 0.1592
H2_6 H 0.5138 0.5985 0.2721
H3_6 H 0.4395 0.6177 0.1943
H4_6 H 0.8108 0.6391 0.3821
H5_7 H 0.6554 0.5094 0.1646
H6_7 H 0.6856 0.4480 0.0709
H7_5 H 0.8637 0.5121 0.1877
H8_5 H 0.7861 0.4492 0.0832
H9_6 H 0.5736 0.7000 0.0030
H10_6 H 0.4669 0.6654 0.0622
Co3_6 Co 0.93209(16) 0.60544(9) 0.34405(10)
N5_7 N 0.5846(6) 0.5080(5) 0.3607(4)
C5_7 C 0.1328(6) 0.2771(4) 0.0019(4)
H4_7 H 0.1441 0.3058 0.0488
Co3_7 Co 0.26543(16) 0.27210(9) 0.01071(10)
C1_8 C 0.0225(6) 0.3275(4) 0.8209(5)
C6_8 C 0.0774(6) 0.2142(4) 0.8977(4)
C7_8 C 0.0305(6) 0.1770(4) 0.8361(5)
C8_8 C 0.0491(6) 0.1404(4) 0.7807(5)
C9_8 C 0.1389(5) 0.2152(3) 0.9046(4)
C10_8 C 0.1555(6) 0.1784(4) 0.8497(5)
C11_8 C 0.1092(6) 0.1412(4) 0.7878(5)
N2_8 N 0.0753(5) 0.2552(4) 0.9619(5)
N3_8 N 0.1746(5) 0.2567(3) 0.9727(4)
H1_8 H 0.0656 0.3314 0.8259
H6_8 H 0.0189 0.1147 0.7376
H7_6 H 0.1970 0.1788 0.8544
H8_6 H 0.1194 0.1159 0.7499
N5_8 N 0.9180(6) 0.1746(5) 0.0273(4)
C12_7 C 0.2731(4) 0.0015(3) 0.4372(4)
C13_7 C 0.2285(6) 0.0130(4) 0.3895(5)
H9_7 H 0.2403 0.0333 0.3363
C1_9 C 0.3559(6) 0.9941(4) 0.4875(5)
C2_7 C 0.2552(5) 0.9711(3) 0.5164(4)
C3_7 C 0.1924(6) 0.9517(4) 0.5520(5)
C4_7 C 0.1493(6) 0.9633(4) 0.5054(6)
C5_8 C 0.4662(6) 0.9437(4) 0.6685(4)
C6_9 C 0.4108(6) 0.8808(4) 0.5643(4)
C7_9 C 0.3639(6) 0.8436(4) 0.5027(5)
C8_9 C 0.3825(6) 0.8070(4) 0.4473(5)
C9_9 C 0.4723(5) 0.8818(3) 0.5712(4)
C10_9 C 0.4889(6) 0.8450(4) 0.5163(5)
C11_9 C 0.4426(6) 0.8078(4) 0.4544(5)
C14_7 C 0.1659(6) 0.9927(4) 0.4254(6)
N1_8 N 0.3094(5) 0.9667(3) 0.5487(4)
N2_9 N 0.4087(5) 0.9218(4) 0.6285(5)
N3_9 N 0.5080(5) 0.9233(3) 0.6393(4)
H1_9 H 0.3990 0.9980 0.4925
H2_7 H 0.1805 0.9318 0.6054
H3_7 H 0.1062 0.9510 0.5276
H4_8 H 0.4775 0.9724 0.7154
H5_8 H 0.3221 0.8427 0.4979
H6_9 H 0.3523 0.7813 0.4042
H7_7 H 0.5304 0.8454 0.5210
H8_7 H 0.4528 0.7825 0.4165
H10_7 H 0.1336 0.9987 0.3955
Co3_8 Co 0.59876(16) 0.93877(9) 0.67738(10)
N5_9 N 0.2513(6) 0.8413(5) 0.6940(4)
C1_10 C 0.6608(4) 0.9716(4) 0.8458(5)
C5_9 C 0.6104(4) 0.8109(4) 0.6648(4)
C6_10 C 0.5475(4) 0.8034(4) 0.7690(4)
C7_10 C 0.5103(4) 0.8131(5) 0.8306(5)
C8_10 C 0.4737(4) 0.7579(5) 0.8860(5)
C9_10 C 0.5485(3) 0.7429(4) 0.7621(4)
C10_10 C 0.5117(4) 0.6895(4) 0.8170(5)
C11_10 C 0.4745(4) 0.6986(5) 0.8789(5)
N1_9 N 0.6334(3) 0.9907(4) 0.7846(4)
N2_10 N 0.5885(4) 0.8465(3) 0.7048(5)
H1_10 H 0.6647 0.9324 0.8408
H4_9 H 0.6391 0.8283 0.6179
H5_9 H 0.5094 0.8540 0.8354
H6_10 H 0.4480 0.7624 0.9291
H7_8 H 0.5121 0.6484 0.8123
H8_8 H 0.4492 0.6631 0.9168
N6_4 N 0.6616(5) 0.9844(3) 0.5806(5)
C1_11 C 0.3275(4) 0.3049(4) 0.1791(5)
C2_8 C 0.3045(3) 0.3826(4) 0.1502(4)
C3_8 C 0.2851(4) 0.4260(4) 0.1146(5)
C4_8 C 0.2967(4) 0.4807(4) 0.1612(6)
C6_11 C 0.2142(4) 0.1367(4) 0.1023(4)
C7_11 C 0.1770(4) 0.1464(5) 0.1639(5)
C8_11 C 0.1404(4) 0.0912(5) 0.2193(5)
C9_11 C 0.2152(3) 0.0762(4) 0.0954(4)
C10_11 C 0.1784(4) 0.0228(4) 0.1503(5)
C11_11 C 0.1412(4) 0.0319(5) 0.2122(5)
C12_8 C 0.3349(3) 0.3951(3) 0.2294(4)
C13_8 C 0.3464(4) 0.4512(4) 0.2771(5)
C14_8 C 0.3261(4) 0.4935(4) 0.2412(6)
N1_10 N 0.3001(3) 0.3240(4) 0.1179(4)
N2_11 N 0.2552(4) 0.1798(3) 0.0381(5)
N4_6 N 0.3490(3) 0.3439(4) 0.2472(5)
H1_11 H 0.3314 0.2657 0.1741
H2_8 H 0.2652 0.4180 0.0612
H3_8 H 0.2844 0.5115 0.1390
H5_10 H 0.1761 0.1873 0.1687
H6_11 H 0.1147 0.0957 0.2624
H9_8 H 0.3667 0.4597 0.3303
H10_8 H 0.3321 0.5318 0.2711
C5_10 C 0.2771(4) 0.1442(4) 0.9981(4)
H4_10 H 0.3058 0.1616 0.9512
N6_5 N 0.3283(5) 0.3177(3) 0.9139(5)
C12_9 C 0.0015(3) 0.7285(3) 0.5628(4)
C13_9 C 0.0130(4) 0.7846(4) 0.6105(5)
N4_7 N 0.0156(3) 0.6773(4) 0.5806(5)
H9_9 H 0.0333 0.7931 0.6637
C1_12 C 0.9941(4) 0.6383(4) 0.5125(5)
C2_9 C 0.9711(3) 0.7160(4) 0.4836(4)
C3_9 C 0.9517(4) 0.7594(4) 0.4480(5)
C4_9 C 0.9633(4) 0.8141(4) 0.4946(6)
C5_11 C 0.9437(4) 0.4776(4) 0.3315(4)
C6_12 C 0.8808(4) 0.4701(4) 0.4357(4)
C7_12 C 0.8436(4) 0.4798(5) 0.4973(5)
C8_12 C 0.8070(4) 0.4246(5) 0.5527(5)
C9_12 C 0.8818(3) 0.4096(4) 0.4288(4)
C10_12 C 0.8450(4) 0.3562(4) 0.4837(5)
C11_12 C 0.8078(4) 0.3653(5) 0.5456(5)
C14_9 C 0.9927(4) 0.8269(4) 0.5746(6)
N1_11 N 0.9667(3) 0.6574(4) 0.4513(4)
N2_12 N 0.9218(4) 0.5132(3) 0.3715(5)
H1_12 H 0.9980 0.5991 0.5075
H2_9 H 0.9318 0.7514 0.3946
H3_9 H 0.9510 0.8449 0.4724
H4_11 H 0.9724 0.4950 0.2846
H5_11 H 0.8427 0.5207 0.5021
H6_12 H 0.7813 0.4291 0.5958
H7_9 H 0.8454 0.3151 0.4790
H8_9 H 0.7825 0.3298 0.5835
H10_9 H 0.9987 0.8652 0.6045
N6_6 N 0.9950(5) 0.6510(3) 0.2472(5)
C1_13 C 0.0284(4) 0.6892(6) 0.8458(5)
C5_12 C 0.1891(4) 0.7995(6) 0.6648(4)
C6_13 C 0.1966(4) 0.7441(6) 0.7690(4)
C7_13 C 0.1869(5) 0.6972(6) 0.8306(5)
C8_13 C 0.2421(5) 0.7158(6) 0.8860(5)
C9_13 C 0.2571(4) 0.8056(5) 0.7621(4)
C10_13 C 0.3105(4) 0.8222(6) 0.8170(5)
C11_13 C 0.3014(5) 0.7759(6) 0.8789(5)
N1_12 N 0.0093(4) 0.6427(5) 0.7846(4)
N2_13 N 0.1535(3) 0.7420(5) 0.7048(5)
H1_13 H 0.0676 0.7323 0.8408
H4_12 H 0.1717 0.8108 0.6179
H5_12 H 0.1460 0.6554 0.8354
H6_13 H 0.2376 0.6856 0.9291
H7_10 H 0.3516 0.8637 0.8123
H8_10 H 0.3369 0.7861 0.9168
C2_10 C 0.9507(4) 0.5885(5) 0.8169(4)
C3_10 C 0.9073(4) 0.5257(6) 0.7813(5)
C4_10 C 0.8526(4) 0.4826(6) 0.8279(6)
C12_10 C 0.9382(3) 0.6064(4) 0.8961(4)
C13_10 C 0.8821(4) 0.5618(6) 0.9438(5)
C14_10 C 0.8398(4) 0.4992(6) 0.9079(6)
N4_8 N 0.9894(4) 0.6717(5) 0.9139(5)
H2_10 H 0.9153 0.5138 0.7279
H3_10 H 0.8218 0.4395 0.8057
H9_10 H 0.8736 0.5736 0.9970
H10_10 H 0.8015 0.4669 0.9378
C1_14 C 0.6951(4) 0.0225(6) 0.1791(5)
C6_14 C 0.8633(4) 0.0774(6) 0.1023(4)
C7_14 C 0.8536(5) 0.0305(6) 0.1639(5)
C8_14 C 0.9088(5) 0.0491(6) 0.2193(5)
C9_14 C 0.9238(4) 0.1389(5) 0.0954(4)
C10_14 C 0.9772(4) 0.1555(6) 0.1503(5)
C11_14 C 0.9681(5) 0.1092(6) 0.2122(5)
N2_14 N 0.8202(3) 0.0753(5) 0.0381(5)
N4_9 N 0.6561(4) 0.0050(5) 0.2472(5)
H1_14 H 0.7343 0.0656 0.1741
H6_14 H 0.9043 0.0189 0.2624
C2_11 C 0.6174(4) 0.9218(5) 0.1502(4)
C3_11 C 0.5740(4) 0.8590(6) 0.1146(5)
C4_11 C 0.5193(4) 0.8159(6) 0.1612(6)
C12_11 C 0.6049(3) 0.9397(4) 0.2294(4)
C13_11 C 0.5488(4) 0.8951(6) 0.2771(5)
C14_11 C 0.5065(4) 0.8325(6) 0.2412(6)
N1_13 N 0.6760(4) 0.9760(5) 0.1179(4)
H2_11 H 0.5820 0.8471 0.0612
H3_11 H 0.4885 0.7728 0.1390
H5_13 H 0.8127 0.9887 0.1687
H9_11 H 0.5403 0.9069 0.3303
H10_11 H 0.4682 0.8002 0.2711
C1_15 C 0.3617(4) 0.3559(6) 0.5125(5)
C2_12 C 0.2840(4) 0.2552(5) 0.4836(4)
C3_12 C 0.2406(4) 0.1924(6) 0.4480(5)
C4_12 C 0.1859(4) 0.1493(6) 0.4946(6)
C5_13 C 0.5224(4) 0.4662(6) 0.3315(4)
C6_15 C 0.5299(4) 0.4108(6) 0.4357(4)
C7_15 C 0.5202(5) 0.3639(6) 0.4973(5)
C8_15 C 0.5754(5) 0.3825(6) 0.5527(5)
C9_15 C 0.5904(4) 0.4723(5) 0.4288(4)
C10_15 C 0.6438(4) 0.4889(6) 0.4837(5)
C11_15 C 0.6347(5) 0.4426(6) 0.5456(5)
C12_12 C 0.2715(3) 0.2731(4) 0.5628(4)
C13_12 C 0.2154(4) 0.2285(6) 0.6105(5)
C14_12 C 0.1731(4) 0.1659(6) 0.5746(6)
N1_14 N 0.3426(4) 0.3094(5) 0.4513(4)
N2_15 N 0.4868(3) 0.4087(5) 0.3715(5)
N4_10 N 0.3227(4) 0.3384(5) 0.5806(5)
H1_15 H 0.4009 0.3990 0.5075
H2_12 H 0.2486 0.1805 0.3946
H3_12 H 0.1551 0.1062 0.4724
H4_13 H 0.5050 0.4775 0.2846
H5_14 H 0.4793 0.3221 0.5021
H6_15 H 0.5709 0.3523 0.5958
H7_11 H 0.6849 0.5304 0.4790
H8_11 H 0.6702 0.4528 0.5835
H9_12 H 0.2069 0.2403 0.6637
H10_12 H 0.1348 0.1336 0.6045
C1_16 C 0.3108(6) 0.3392(4) 0.8458(5)
C2_13 C 0.4115(5) 0.3622(3) 0.8169(4)
C3_13 C 0.4743(6) 0.3816(4) 0.7813(5)
C4_13 C 0.5174(6) 0.3700(4) 0.8279(6)
C5_14 C 0.2005(6) 0.3896(4) 0.6648(4)
C6_16 C 0.2559(6) 0.4525(4) 0.7690(4)
C7_16 C 0.3028(6) 0.4897(4) 0.8306(5)
C8_16 C 0.2842(6) 0.5263(4) 0.8860(5)
C9_16 C 0.1944(5) 0.4515(3) 0.7621(4)
C10_16 C 0.1778(6) 0.4883(4) 0.8170(5)
C11_16 C 0.2241(6) 0.5255(4) 0.8789(5)
C12_13 C 0.3936(4) 0.3318(3) 0.8961(4)
C13_13 C 0.4382(6) 0.3203(4) 0.9438(5)
C14_13 C 0.5008(6) 0.3406(4) 0.9079(6)
N1_15 N 0.3573(5) 0.3666(3) 0.7846(4)
N2_16 N 0.2580(5) 0.4115(4) 0.7048(5)
H1_16 H 0.2677 0.3353 0.8408
H2_13 H 0.4862 0.4015 0.7279
H3_13 H 0.5605 0.3823 0.8057
H4_14 H 0.1892 0.3609 0.6179
H5_15 H 0.3446 0.4906 0.8354
H6_16 H 0.3144 0.5520 0.9291
H7_12 H 0.1363 0.4879 0.8123
H8_12 H 0.2139 0.5508 0.9168
H9_13 H 0.4264 0.3000 0.9970
H10_13 H 0.5331 0.3346 0.9378
C1_17 C 0.9775(6) 0.6725(4) 0.1791(5)
C6_17 C 0.9226(6) 0.7858(4) 0.1023(4)
C7_17 C 0.9695(6) 0.8230(4) 0.1639(5)
C8_17 C 0.9509(6) 0.8596(4) 0.2193(5)
C9_17 C 0.8611(5) 0.7848(3) 0.0954(4)
C10_17 C 0.8445(6) 0.8216(4) 0.1503(5)
C11_17 C 0.8908(6) 0.8588(4) 0.2122(5)
N2_17 N 0.9247(5) 0.7448(4) 0.0381(5)
H1_17 H 0.9344 0.6686 0.1741
H6_17 H 0.9811 0.8853 0.2624
H7_13 H 0.8030 0.8212 0.1456
H8_13 H 0.8806 0.8841 0.2501
C5_15 C 0.8672(6) 0.7229(4) 0.9981(4)
H4_15 H 0.8559 0.6942 0.9512
C1_18 C 0.6441(6) 0.0059(4) 0.5125(5)
C2_14 C 0.7448(5) 0.0289(3) 0.4836(4)
C3_14 C 0.8076(6) 0.0483(4) 0.4480(5)
C4_14 C 0.8507(6) 0.0367(4) 0.4946(6)
C5_16 C 0.5338(6) 0.0563(4) 0.3315(4)
C6_18 C 0.5892(6) 0.1192(4) 0.4357(4)
C7_18 C 0.6361(6) 0.1564(4) 0.4973(5)
C8_18 C 0.6175(6) 0.1930(4) 0.5527(5)
C9_18 C 0.5277(5) 0.1182(3) 0.4288(4)
C10_18 C 0.5111(6) 0.1550(4) 0.4837(5)
C11_18 C 0.5574(6) 0.1922(4) 0.5456(5)
C14_14 C 0.8341(6) 0.0073(4) 0.5746(6)
N1_16 N 0.6906(5) 0.0333(3) 0.4513(4)
N2_18 N 0.5913(5) 0.0782(4) 0.3715(5)
H1_18 H 0.6010 0.0020 0.5075
H2_14 H 0.8195 0.0682 0.3946
H3_14 H 0.8938 0.0490 0.4724
H4_16 H 0.5225 0.0276 0.2846
H5_16 H 0.6779 0.1573 0.5021
H6_18 H 0.6477 0.2187 0.5958
H7_14 H 0.4696 0.1546 0.4790
H8_14 H 0.5472 0.2175 0.5835
H10_14 H 0.8664 0.0013 0.6045
C12_14 C 0.7269(4) 0.9985(3) 0.5628(4)
C13_14 C 0.7715(6) 0.9870(4) 0.6105(5)
H9_14 H 0.7597 0.9667 0.6637
C2_15 C 0.3622(3) 0.9507(4) 0.1831(4)
C3_15 C 0.3816(4) 0.9073(4) 0.2187(5)
C4_15 C 0.3700(4) 0.8526(4) 0.1721(6)
C12_15 C 0.3318(3) 0.9382(3) 0.1039(4)
C13_15 C 0.3203(4) 0.8821(4) 0.0562(5)
C14_15 C 0.3406(4) 0.8398(4) 0.0921(6)
N4_11 N 0.3177(3) 0.9894(4) 0.0861(5)
H2_15 H 0.4015 0.9153 0.2721
H3_15 H 0.3823 0.8218 0.1943
H9_15 H 0.3000 0.8736 0.0030
H10_15 H 0.3346 0.8015 0.0622
C5_17 C 0.1442(4) 0.8672(6) 0.0019(4)
H4_17 H 0.1616 0.8559 0.0488
Co3_9 Co 0.00668(13) 0.73457(16) 0.01071(10)
C2_16 C 0.0782(5) 0.6955(3) 0.1502(4)
C3_16 C 0.1410(6) 0.7149(4) 0.1146(5)
C4_16 C 0.1841(6) 0.7033(4) 0.1612(6)
C12_16 C 0.0603(4) 0.6651(3) 0.2294(4)
C13_16 C 0.1049(6) 0.6536(4) 0.2771(5)
C14_16 C 0.1675(6) 0.6739(4) 0.2412(6)
N1_17 N 0.0240(5) 0.6999(3) 0.1179(4)
H2_16 H 0.1529 0.7348 0.0612
H3_16 H 0.2272 0.7156 0.1390
H5_17 H 0.0113 0.8239 0.1687
H9_16 H 0.0931 0.6333 0.3303
H10_16 H 0.1998 0.6679 0.2711
H7_15 H 0.8212 0.0183 0.8544
H8_15 H 0.8841 0.0036 0.7499
Co2_6 Co 0.99332(13) 0.26543(16) 0.98929(10)
C2_17 C 0.9218(5) 0.3045(3) 0.8498(4)
C3_17 C 0.8590(6) 0.2851(4) 0.8854(5)
C4_17 C 0.8159(6) 0.2967(4) 0.8388(6)
C12_17 C 0.9397(4) 0.3349(3) 0.7706(4)
C13_17 C 0.8951(6) 0.3464(4) 0.7229(5)
C14_17 C 0.8325(6) 0.3261(4) 0.7588(6)
N1_18 N 0.9760(5) 0.3001(3) 0.8821(4)
H2_17 H 0.8471 0.2652 0.9388
H3_17 H 0.7728 0.2844 0.8610
H5_18 H 0.9887 0.1761 0.8313
H9_17 H 0.9069 0.3667 0.6697
H10_17 H 0.8002 0.3321 0.7289
C2_18 C 0.6378(3) 0.0493(4) 0.8169(4)
C3_18 C 0.6184(4) 0.0927(4) 0.7813(5)
C4_18 C 0.6300(4) 0.1474(4) 0.8279(6)
C12_18 C 0.6682(3) 0.0618(3) 0.8961(4)
C13_18 C 0.6797(4) 0.1179(4) 0.9438(5)
C14_18 C 0.6594(4) 0.1602(4) 0.9079(6)
N4_12 N 0.6823(3) 0.0106(4) 0.9139(5)
H2_18 H 0.5985 0.0847 0.7279
H3_18 H 0.6177 0.1782 0.8057
H9_18 H 0.7000 0.1264 0.9970
H10_18 H 0.6654 0.1985 0.9378
C5_18 C 0.8558(4) 0.1328(6) 0.9981(4)
H4_18 H 0.8384 0.1441 0.9512
H7_16 H 0.9817 0.8030 0.8544
H8_16 H 0.9964 0.8806 0.7499
H7_17 H 0.1788 0.9817 0.1456
H8_17 H 0.1159 0.9964 0.2501
H7_18 H 0.0183 0.1970 0.1456
H8_18 H 0.0036 0.1194 0.2501
loop_
_geom_bond_atom_site_label_1
_geom_bond_atom_site_label_2
_geom_bond_site_symmetry_1
_geom_bond_site_symmetry_2
Co1 N1 1_555 1_555
C1 N1 1_555 1_555
C5 N2 1_555 1_555
C6 C7 1_555 1_555
C7 C8 1_555 1_555
C8 C11 1_555 1_555
C9 C6 1_555 1_555
C10 C9 1_555 1_555
C11 C10 1_555 1_555
N2 Co1 1_555 1_555
N3 C5 1_555 1_555
H1 C1 1_555 1_555
H4 C5 1_555 1_555
H5 C7 1_555 1_555
H6 C8 1_555 1_555
H7 C10 1_555 1_555
H8 C11 1_555 1_555
Co3 N3 1_555 1_555
N5 Co1 1_555 1_555
N6 Co1 1_555 1_555
C6 N2 1_555 1_555
C9 N3 1_555 1_555
H4_2 C5_2 1_555 1_555
Co1_2 N1_2 1_555 1_555
C1_2 N1_2 1_555 1_555
C2 C3 1_555 1_555
C3 C4 1_555 1_555
C4 C14 1_555 1_555
C6_2 C7_2 1_555 1_555
C7_2 C8_2 1_555 1_555
C8_2 C11_2 1_555 1_555
C9_2 C6_2 1_555 1_555
C10_2 C9_2 1_555 1_555
C11_2 C10_2 1_555 1_555
C12 C2 1_555 1_555
C13 C12 1_555 1_555
C14 C13 1_555 1_555
N1_2 C2 1_555 1_555
N2_2 Co1_2 1_555 1_555
N4 C1_2 1_555 1_555
H1_2 C1_2 1_555 1_555
H2 C3 1_555 1_555
H3 C4 1_555 1_555
H5_2 C7_2 1_555 1_555
H6_2 C8_2 1_555 1_555
H9 C13 1_555 1_555
H10 C14 1_555 1_555
Co2_2 N4 1_555 1_555
C6_2 N2_2 1_555 1_555
C9_2 N3_2 1_555 1_555
C12 N4 1_555 1_555
Co1_3 N1_3 1_555 1_555
C1_3 N1_3 1_555 1_555
C2_2 C3_2 1_555 1_555
C3_2 C4_2 1_555 1_555
C4_2 C14_2 1_555 1_555
C5_3 N2_3 1_555 1_555
C6_3 C7_3 1_555 1_555
C7_3 C8_3 1_555 1_555
C8_3 C11_3 1_555 1_555
C9_3 C6_3 1_555 1_555
C10_3 C9_3 1_555 1_555
C11_3 C10_3 1_555 1_555
N1_3 C2_2 1_555 1_555
N2_3 Co1_3 1_555 1_555
N3_3 C5_3 1_555 1_555
H1_3 C1_3 1_555 1_555
H2_2 C3_2 1_555 1_555
H3_2 C4_2 1_555 1_555
H4_3 C5_3 1_555 1_555
H5_3 C7_3 1_555 1_555
H6_3 C8_3 1_555 1_555
H7_2 C10_3 1_555 1_555
H8_2 C11_3 1_555 1_555
H10_2 C14_2 1_555 1_555
Co3_3 N3_3 1_555 1_555
N5_3 Co1_3 1_555 1_555
N6_3 Co1_3 1_555 1_555
C6_3 N2_3 1_555 1_555
C9_3 N3_3 1_555 1_555
C13_2 C12_2 1_555 1_555
H9_2 C13_2 1_555 1_555
Co2_3 N4_2 1_555 1_555
C12_2 N4_2 1_555 1_555
C2_3 C3_3 1_555 1_555
C3_3 C4_3 1_555 1_555
C4_3 C14_3 1_555 1_555
C12_3 C2_3 1_555 1_555
C13_3 C12_3 1_555 1_555
C14_3 C13_3 1_555 1_555
H2_3 C3_3 1_555 1_555
H3_3 C4_3 1_555 1_555
H9_3 C13_3 1_555 1_555
H10_3 C14_3 1_555 1_555
C12_3 N4_3 1_555 1_555
Co2_3 N1_4 1_555 1_555
C1_4 N1_4 1_555 1_555
C5_4 N2_4 1_555 1_555
C6_4 C7_4 1_555 1_555
C7_4 C8_4 1_555 1_555
C8_4 C11_4 1_555 1_555
C9_4 C6_4 1_555 1_555
C10_4 C9_4 1_555 1_555
C11_4 C10_4 1_555 1_555
N2_4 Co2_3 1_555 1_555
N3_4 C5_4 1_555 1_555
H1_4 C1_4 1_555 1_555
H4_4 C5_4 1_555 1_555
H5_4 C7_4 1_555 1_555
H6_4 C8_4 1_555 1_555
H7_3 C10_4 1_555 1_555
H8_3 C11_4 1_555 1_555
Co3_4 N3_4 1_555 1_555
N5_4 Co2_3 1_555 1_555
C6_4 N2_4 1_555 1_555
C9_4 N3_4 1_555 1_555
Co2 N1_5 1_555 1_555
C2_4 C3_4 1_555 1_555
C3_4 C4_4 1_555 1_555
C4_4 C14_4 1_555 1_555
C12_4 C2_4 1_555 1_555
C13_4 C12_4 1_555 1_555
C14_4 C13_4 1_555 1_555
N1_5 C2_4 1_555 1_555
H2_4 C3_4 1_555 1_555
H3_4 C4_4 1_555 1_555
H9_4 C13_4 1_555 1_555
H10_4 C14_4 1_555 1_555
C6_5 C7_5 1_555 1_555
C7_5 C8_5 1_555 1_555
C8_5 C11_5 1_555 1_555
C9_5 C6_5 1_555 1_555
C10_5 C9_5 1_555 1_555
C11_5 C10_5 1_555 1_555
N4_4 C1_5 1_555 1_555
H1_5 C1_5 1_555 1_555
H6_5 C8_5 1_555 1_555
Co2_4 N4_4 1_555 1_555
C6_5 N2_5 1_555 1_555
C9_5 N3_5 1_555 1_555
Co2_2 N1_6 1_555 1_555
C1_6 N1_6 1_555 1_555
C2_5 C3_5 1_555 1_555
C3_5 C4_5 1_555 1_555
C4_5 C14_5 1_555 1_555
C5_5 N2_6 1_555 1_555
C6_6 C7_6 1_555 1_555
C7_6 C8_6 1_555 1_555
C8_6 C11_6 1_555 1_555
C9_6 C6_6 1_555 1_555
C10_6 C9_6 1_555 1_555
C11_6 C10_6 1_555 1_555
C12_5 C2_5 1_555 1_555
C13_5 C12_5 1_555 1_555
C14_5 C13_5 1_555 1_555
N1_6 C2_5 1_555 1_555
N2_6 Co2_2 1_555 1_555
N3_6 C5_5 1_555 1_555
N4_5 C1_6 1_555 1_555
H1_6 C1_6 1_555 1_555
H2_5 C3_5 1_555 1_555
H3_5 C4_5 1_555 1_555
H4_5 C5_5 1_555 1_555
H5_6 C7_6 1_555 1_555
H6_6 C8_6 1_555 1_555
H7_4 C10_6 1_555 1_555
H8_4 C11_6 1_555 1_555
H9_5 C13_5 1_555 1_555
H10_5 C14_5 1_555 1_555
Co2_5 N4_5 1_555 1_555
Co3_5 N3_6 1_555 1_555
N5_6 Co2_2 1_555 1_555
C6_6 N2_6 1_555 1_555
C9_6 N3_6 1_555 1_555
C12_5 N4_5 1_555 1_555
Co2_5 N1_7 1_555 1_555
C1_7 N1_7 1_555 1_555
C2_6 C3_6 1_555 1_555
C3_6 C4_6 1_555 1_555
C4_6 C14_6 1_555 1_555
C5_6 N2_7 1_555 1_555
C6_7 C7_7 1_555 1_555
C7_7 C8_7 1_555 1_555
C8_7 C11_7 1_555 1_555
C9_7 C6_7 1_555 1_555
C10_7 C9_7 1_555 1_555
C11_7 C10_7 1_555 1_555
C12_6 C2_6 1_555 1_555
C13_6 C12_6 1_555 1_555
C14_6 C13_6 1_555 1_555
N1_7 C2_6 1_555 1_555
N2_7 Co2_5 1_555 1_555
N3_7 C5_6 1_555 1_555
N6_2 C1_7 1_555 1_555
H1_7 C1_7 1_555 1_555
H2_6 C3_6 1_555 1_555
H3_6 C4_6 1_555 1_555
H4_6 C5_6 1_555 1_555
H5_7 C7_7 1_555 1_555
H6_7 C8_7 1_555 1_555
H7_5 C10_7 1_555 1_555
H8_5 C11_7 1_555 1_555
H9_6 C13_6 1_555 1_555
H10_6 C14_6 1_555 1_555
Co3_6 N3_7 1_555 1_555
N5_7 Co2_5 1_555 1_555
C6_7 N2_7 1_555 1_555
C9_7 N3_7 1_555 1_555
C12_6 N6_2 1_555 1_555
H4_7 C5_7 1_555 1_555
C6_8 C7_8 1_555 1_555
C7_8 C8_8 1_555 1_555
C8_8 C11_8 1_555 1_555
C9_8 C6_8 1_555 1_555
C10_8 C9_8 1_555 1_555
C11_8 C10_8 1_555 1_555
N6_3 C1_8 1_555 1_555
H1_8 C1_8 1_555 1_555
H6_8 C8_8 1_555 1_555
H7_6 C10_8 1_555 1_555
H8_6 C11_8 1_555 1_555
C6_8 N2_8 1_555 1_555
C9_8 N3_8 1_555 1_555
C13_7 C12_7 1_555 1_555
H9_7 C13_7 1_555 1_555
C12_7 N6 1_555 1_555
Co2_4 N1_8 1_555 1_555
C1_9 N1_8 1_555 1_555
C2_7 C3_7 1_555 1_555
C3_7 C4_7 1_555 1_555
C4_7 C14_7 1_555 1_555
C5_8 N2_9 1_555 1_555
C6_9 C7_9 1_555 1_555
C7_9 C8_9 1_555 1_555
C8_9 C11_9 1_555 1_555
C9_9 C6_9 1_555 1_555
C10_9 C9_9 1_555 1_555
C11_9 C10_9 1_555 1_555
N1_8 C2_7 1_555 1_555
N2_9 Co2_4 1_555 1_555
N3_9 C5_8 1_555 1_555
H1_9 C1_9 1_555 1_555
H2_7 C3_7 1_555 1_555
H3_7 C4_7 1_555 1_555
H4_8 C5_8 1_555 1_555
H5_8 C7_9 1_555 1_555
H6_9 C8_9 1_555 1_555
H7_7 C10_9 1_555 1_555
H8_7 C11_9 1_555 1_555
H10_7 C14_7 1_555 1_555
Co3_8 N3_9 1_555 1_555
N5_9 Co2_4 1_555 1_555
C6_9 N2_9 1_555 1_555
C9_9 N3_9 1_555 1_555
Co3_8 N1_9 1_555 1_555
C1_10 N1_9 1_555 1_555
C5_9 N2_10 1_555 1_555
C6_10 C7_10 1_555 1_555
C7_10 C8_10 1_555 1_555
C8_10 C11_10 1_555 1_555
C9_10 C6_10 1_555 1_555
C10_10 C9_10 1_555 1_555
C11_10 C10_10 1_555 1_555
N2_10 Co3_8 1_555 1_555
N5_6 C5_9 1_555 1_555
H1_10 C1_10 1_555 1_555
H4_9 C5_9 1_555 1_555
H5_9 C7_10 1_555 1_555
H6_10 C8_10 1_555 1_555
H7_8 C10_10 1_555 1_555
H8_8 C11_10 1_555 1_555
N6_4 Co3_8 1_555 1_555
C6_10 N2_10 1_555 1_555
C9_10 N5_6 1_555 1_555
Co3_7 N1_10 1_555 1_555
C1_11 N1_10 1_555 1_555
C2_8 C3_8 1_555 1_555
C3_8 C4_8 1_555 1_555
C4_8 C14_8 1_555 1_555
C6_11 C7_11 1_555 1_555
C7_11 C8_11 1_555 1_555
C8_11 C11_11 1_555 1_555
C9_11 C6_11 1_555 1_555
C10_11 C9_11 1_555 1_555
C11_11 C10_11 1_555 1_555
C12_8 C2_8 1_555 1_555
C13_8 C12_8 1_555 1_555
C14_8 C13_8 1_555 1_555
N1_10 C2_8 1_555 1_555
N2_11 Co3_7 1_555 1_555
N4_6 C1_11 1_555 1_555
H1_11 C1_11 1_555 1_555
H2_8 C3_8 1_555 1_555
H3_8 C4_8 1_555 1_555
H5_10 C7_11 1_555 1_555
H6_11 C8_11 1_555 1_555
H9_8 C13_8 1_555 1_555
H10_8 C14_8 1_555 1_555
Co3 N4_6 1_555 1_555
C6_11 N2_11 1_555 1_555
C9_11 N5_5 1_555 1_555
C12_8 N4_6 1_555 1_555
H4_10 C5_10 1_555 1_555
C13_9 C12_9 1_555 1_555
H9_9 C13_9 1_555 1_555
Co3_3 N4_7 1_555 1_555
C12_9 N4_7 1_555 1_555
Co3_6 N1_11 1_555 1_555
C1_12 N1_11 1_555 1_555
C2_9 C3_9 1_555 1_555
C3_9 C4_9 1_555 1_555
C4_9 C14_9 1_555 1_555
C5_11 N2_12 1_555 1_555
C6_12 C7_12 1_555 1_555
C7_12 C8_12 1_555 1_555
C8_12 C11_12 1_555 1_555
C9_12 C6_12 1_555 1_555
C10_12 C9_12 1_555 1_555
C11_12 C10_12 1_555 1_555
N1_11 C2_9 1_555 1_555
N2_12 Co3_6 1_555 1_555
N5_4 C5_11 1_555 1_555
H1_12 C1_12 1_555 1_555
H2_9 C3_9 1_555 1_555
H3_9 C4_9 1_555 1_555
H4_11 C5_11 1_555 1_555
H5_11 C7_12 1_555 1_555
H6_12 C8_12 1_555 1_555
H7_9 C10_12 1_555 1_555
H8_9 C11_12 1_555 1_555
H10_9 C14_9 1_555 1_555
N6_6 Co3_6 1_555 1_555
C6_12 N2_12 1_555 1_555
C9_12 N5_4 1_555 1_555
Co3_3 N1_12 1_555 1_555
C1_13 N1_12 1_555 1_555
C5_12 N2_13 1_555 1_555
C6_13 C7_13 1_555 1_555
C7_13 C8_13 1_555 1_555
C8_13 C11_13 1_555 1_555
C9_13 C6_13 1_555 1_555
C10_13 C9_13 1_555 1_555
C11_13 C10_13 1_555 1_555
N2_13 Co3_3 1_555 1_555
N5_9 C5_12 1_555 1_555
H1_13 C1_13 1_555 1_555
H4_12 C5_12 1_555 1_555
H5_12 C7_13 1_555 1_555
H6_13 C8_13 1_555 1_555
H7_10 C10_13 1_555 1_555
H8_10 C11_13 1_555 1_555
C6_13 N2_13 1_555 1_555
C9_13 N5_9 1_555 1_555
C2_10 C3_10 1_555 1_555
C3_10 C4_10 1_555 1_555
C4_10 C14_10 1_555 1_555
C12_10 C2_10 1_555 1_555
C13_10 C12_10 1_555 1_555
C14_10 C13_10 1_555 1_555
H2_10 C3_10 1_555 1_555
H3_10 C4_10 1_555 1_555
H9_10 C13_10 1_555 1_555
H10_10 C14_10 1_555 1_555
C12_10 N4_8 1_555 1_555
C6_14 C7_14 1_555 1_555
C7_14 C8_14 1_555 1_555
C8_14 C11_14 1_555 1_555
C9_14 C6_14 1_555 1_555
C10_14 C9_14 1_555 1_555
C11_14 C10_14 1_555 1_555
N4_9 C1_14 1_555 1_555
H1_14 C1_14 1_555 1_555
H6_14 C8_14 1_555 1_555
Co3_4 N4_9 1_555 1_555
C6_14 N2_14 1_555 1_555
C9_14 N5_8 1_555 1_555
Co3_2 N1_13 1_555 1_555
C2_11 C3_11 1_555 1_555
C3_11 C4_11 1_555 1_555
C4_11 C14_11 1_555 1_555
C12_11 C2_11 1_555 1_555
C13_11 C12_11 1_555 1_555
C14_11 C13_11 1_555 1_555
N1_13 C2_11 1_555 1_555
H2_11 C3_11 1_555 1_555
H3_11 C4_11 1_555 1_555
H9_11 C13_11 1_555 1_555
H10_11 C14_11 1_555 1_555
Co3 N1_14 1_555 1_555
C1_15 N1_14 1_555 1_555
C2_12 C3_12 1_555 1_555
C3_12 C4_12 1_555 1_555
C4_12 C14_12 1_555 1_555
C5_13 N2_15 1_555 1_555
C6_15 C7_15 1_555 1_555
C7_15 C8_15 1_555 1_555
C8_15 C11_15 1_555 1_555
C9_15 C6_15 1_555 1_555
C10_15 C9_15 1_555 1_555
C11_15 C10_15 1_555 1_555
C12_12 C2_12 1_555 1_555
C13_12 C12_12 1_555 1_555
C14_12 C13_12 1_555 1_555
N1_14 C2_12 1_555 1_555
N2_15 Co3 1_555 1_555
N5_7 C5_13 1_555 1_555
N4_10 C1_15 1_555 1_555
H1_15 C1_15 1_555 1_555
H2_12 C3_12 1_555 1_555
H3_12 C4_12 1_555 1_555
H4_13 C5_13 1_555 1_555
H5_14 C7_15 1_555 1_555
H6_15 C8_15 1_555 1_555
H7_11 C10_15 1_555 1_555
H8_11 C11_15 1_555 1_555
H9_12 C13_12 1_555 1_555
H10_12 C14_12 1_555 1_555
Co3_5 N4_10 1_555 1_555
C6_15 N2_15 1_555 1_555
C9_15 N5_7 1_555 1_555
C12_12 N4_10 1_555 1_555
Co3_5 N1_15 1_555 1_555
C1_16 N1_15 1_555 1_555
C2_13 C3_13 1_555 1_555
C3_13 C4_13 1_555 1_555
C4_13 C14_13 1_555 1_555
C5_14 N2_16 1_555 1_555
C6_16 C7_16 1_555 1_555
C7_16 C8_16 1_555 1_555
C8_16 C11_16 1_555 1_555
C9_16 C6_16 1_555 1_555
C10_16 C9_16 1_555 1_555
C11_16 C10_16 1_555 1_555
C12_13 C2_13 1_555 1_555
C13_13 C12_13 1_555 1_555
C14_13 C13_13 1_555 1_555
N1_15 C2_13 1_555 1_555
N2_16 Co3_5 1_555 1_555
N5_3 C5_14 1_555 1_555
N6_5 C1_16 1_555 1_555
H1_16 C1_16 1_555 1_555
H2_13 C3_13 1_555 1_555
H3_13 C4_13 1_555 1_555
H4_14 C5_14 1_555 1_555
H5_15 C7_16 1_555 1_555
H6_16 C8_16 1_555 1_555
H7_12 C10_16 1_555 1_555
H8_12 C11_16 1_555 1_555
H9_13 C13_13 1_555 1_555
H10_13 C14_13 1_555 1_555
C6_16 N2_16 1_555 1_555
C9_16 N5_3 1_555 1_555
C12_13 N6_5 1_555 1_555
C6_17 C7_17 1_555 1_555
C7_17 C8_17 1_555 1_555
C8_17 C11_17 1_555 1_555
C9_17 C6_17 1_555 1_555
C10_17 C9_17 1_555 1_555
C11_17 C10_17 1_555 1_555
N6_6 C1_17 1_555 1_555
H1_17 C1_17 1_555 1_555
H6_17 C8_17 1_555 1_555
H7_13 C10_17 1_555 1_555
H8_13 C11_17 1_555 1_555
C6_17 N2_17 1_555 1_555
C9_17 N5_2 1_555 1_555
H4_15 C5_15 1_555 1_555
Co3_4 N1_16 1_555 1_555
C1_18 N1_16 1_555 1_555
C2_14 C3_14 1_555 1_555
C3_14 C4_14 1_555 1_555
C4_14 C14_14 1_555 1_555
C5_16 N2_18 1_555 1_555
C6_18 C7_18 1_555 1_555
C7_18 C8_18 1_555 1_555
C8_18 C11_18 1_555 1_555
C9_18 C6_18 1_555 1_555
C10_18 C9_18 1_555 1_555
C11_18 C10_18 1_555 1_555
N1_16 C2_14 1_555 1_555
N2_18 Co3_4 1_555 1_555
N5 C5_16 1_555 1_555
H1_18 C1_18 1_555 1_555
H2_14 C3_14 1_555 1_555
H3_14 C4_14 1_555 1_555
H4_16 C5_16 1_555 1_555
H5_16 C7_18 1_555 1_555
H6_18 C8_18 1_555 1_555
H7_14 C10_18 1_555 1_555
H8_14 C11_18 1_555 1_555
H10_14 C14_14 1_555 1_555
C6_18 N2_18 1_555 1_555
C9_18 N5 1_555 1_555
C13_14 C12_14 1_555 1_555
H9_14 C13_14 1_555 1_555
C12_14 N6_4 1_555 1_555
C2_15 C3_15 1_555 1_555
C3_15 C4_15 1_555 1_555
C4_15 C14_15 1_555 1_555
C12_15 C2_15 1_555 1_555
C13_15 C12_15 1_555 1_555
C14_15 C13_15 1_555 1_555
H2_15 C3_15 1_555 1_555
H3_15 C4_15 1_555 1_555
H9_15 C13_15 1_555 1_555
H10_15 C14_15 1_555 1_555
C12_15 N4_11 1_555 1_555
H4_17 C5_17 1_555 1_555
Co3_9 N1_17 1_555 1_555
C2_16 C3_16 1_555 1_555
C3_16 C4_16 1_555 1_555
C4_16 C14_16 1_555 1_555
C12_16 C2_16 1_555 1_555
C13_16 C12_16 1_555 1_555
C14_16 C13_16 1_555 1_555
N1_17 C2_16 1_555 1_555
H2_16 C3_16 1_555 1_555
H3_16 C4_16 1_555 1_555
H9_16 C13_16 1_555 1_555
H10_16 C14_16 1_555 1_555
Co2_6 N1_18 1_555 1_555
C2_17 C3_17 1_555 1_555
C3_17 C4_17 1_555 1_555
C4_17 C14_17 1_555 1_555
C12_17 C2_17 1_555 1_555
C13_17 C12_17 1_555 1_555
C14_17 C13_17 1_555 1_555
N1_18 C2_17 1_555 1_555
H2_17 C3_17 1_555 1_555
H3_17 C4_17 1_555 1_555
H9_17 C13_17 1_555 1_555
H10_17 C14_17 1_555 1_555
C2_18 C3_18 1_555 1_555
C3_18 C4_18 1_555 1_555
C4_18 C14_18 1_555 1_555
C12_18 C2_18 1_555 1_555
C13_18 C12_18 1_555 1_555
C14_18 C13_18 1_555 1_555
H2_18 C3_18 1_555 1_555
H3_18 C4_18 1_555 1_555
H9_18 C13_18 1_555 1_555
H10_18 C14_18 1_555 1_555
C12_18 N4_12 1_555 1_555
H4_18 C5_18 1_555 1_555

#END
