
###############################################################################
#
# This file contains modified crystal structure data generated from the
# MOF subset of the Cambridge Structural Database (CSD) v543 
# hosted by the Cambridge Crystallographic Data Centre (CCDC).
#
# This work is licensed under the Creative Commons
# Attribution-NonCommercial-ShareAlike 4.0 International License.
# To view a copy of this license, visit
# http://creativecommons.org/licenses/by-nc-sa/4.0/
# or send a letter to
# Creative Commons, PO Box 1866, Mountain View, CA 94042, USA.
#
# CIF created using the CSD Python API on 29 September 2022
# The structure has been converted into the P1 space group
# The structure has a 3D framework
# The original CSD entry QOVXEG03 is in the rhombohedral crystal system
# The framework has been calculated to contain at least 10.0% void space
# The void calculation uses a probe of radius 1.32A, grid spacing 0.4
#
###############################################################################

data_QOVXEG03
_chemical_formula_moiety         '(C252 H180 Co18 N72)n'
_symmetry_cell_setting           triclinic
_symmetry_space_group_name_H-M   'P 1'
_symmetry_Int_Tables_number      1
_space_group_name_Hall           'P 1'
loop_
_symmetry_equiv_pos_site_id
_symmetry_equiv_pos_as_xyz
1 x,y,z
_cell_length_a                   22.8401(14)
_cell_length_b                   22.8401(14)
_cell_length_c                   15.8514(15)
_cell_angle_alpha                90
_cell_angle_beta                 90
_cell_angle_gamma                120
_cell_volume                     7161.34
loop_
_atom_site_label
_atom_site_type_symbol
_atom_site_fract_x
_atom_site_fract_y
_atom_site_fract_z
Co1 Co 0.40215(3) 0.06374(3) 0.32479(4)
N1 N 0.3669(2) 0.0137(2) 0.2171(3)
C1 C 0.3385(3) 0.0327(3) 0.1570(3)
H1 H 0.3356 0.0726 0.1607
N3 N 0.4120(2) 0.1541(2) 0.2987(3)
N4 N 0.4110(2) 0.2523(2) 0.3075(3)
C8 C 0.3908(3) 0.1912(3) 0.3384(3)
H6 H 0.3624 0.1747 0.3866
C9 C 0.4508(3) 0.2562(3) 0.2380(3)
C10 C 0.4867(3) 0.3087(3) 0.1808(4)
H7 H 0.4863 0.3500 0.1844
C11 C 0.5226(4) 0.2980(4) 0.1190(5)
H8 H 0.5484 0.3327 0.0795
C12 C 0.5212(5) 0.2351(5) 0.1140(5)
H9 H 0.5443 0.2282 0.0686
C13 C 0.4887(4) 0.1845(4) 0.1705(4)
H10 H 0.4907 0.1439 0.1679
C14 C 0.4517(3) 0.1956(3) 0.2340(4)
Co3 Co 0.39707(3) 0.32826(4) 0.34188(4)
N5 N 0.3421(3) 0.0187(2) 0.4240(3)
N6 N 0.4920(3) 0.0777(2) 0.3592(3)
Co2 Co 0.26959(3) 0.00508(4) 0.99146(4)
N2 N 0.0100(2) 0.3246(3) 0.0907(3)
C2 C 0.0579(2) 0.3888(3) 0.1078(3)
C3 C 0.1152(3) 0.4359(4) 0.0587(4)
H2 H 0.1242 0.4251 0.0041
C4 C 0.1568(3) 0.4986(4) 0.0962(5)
H3 H 0.1961 0.5310 0.0669
C5 C 0.1430(3) 0.5149(4) 0.1737(5)
H4 H 0.1723 0.5587 0.1961
C6 C 0.0874(3) 0.4694(4) 0.2208(4)
H5 H 0.0790 0.4812 0.2751
C7 C 0.0455(3) 0.4077(4) 0.1872(4)
Co1_2 Co 0.93626(3) 0.33841(4) 0.32479(4)
N1_2 N 0.9863(2) 0.3532(3) 0.2171(3)
C1_2 C 0.9673(3) 0.3058(4) 0.1570(3)
H1_2 H 0.9274 0.2630 0.1607
N3_2 N 0.8459(2) 0.2579(3) 0.2987(3)
N4_2 N 0.7477(2) 0.1587(3) 0.3075(3)
C8_2 C 0.8088(3) 0.1996(4) 0.3384(3)
H6_2 H 0.8253 0.1877 0.3866
C9_2 C 0.7438(3) 0.1946(4) 0.2380(3)
C10_2 C 0.6913(3) 0.1780(4) 0.1808(4)
H7_2 H 0.6500 0.1363 0.1844
C11_2 C 0.7020(4) 0.2246(6) 0.1190(5)
H8_2 H 0.6673 0.2157 0.0795
C12_2 C 0.7649(5) 0.2861(7) 0.1140(5)
H9_2 H 0.7718 0.3161 0.0686
C13_2 C 0.8155(4) 0.3042(6) 0.1705(4)
H10_2 H 0.8561 0.3468 0.1679
C14_2 C 0.8044(3) 0.2561(4) 0.2340(4)
Co3_2 Co 0.67174(4) 0.06882(5) 0.34188(4)
N5_2 N 0.9813(2) 0.3233(4) 0.4240(3)
N6_2 N 0.9223(2) 0.4144(4) 0.3592(3)
Co1_3 Co 0.66159(4) 0.59785(3) 0.32479(4)
N1_3 N 0.6468(3) 0.6331(2) 0.2171(3)
N2_2 N 0.6754(3) 0.6854(2) 0.0907(3)
C1_3 C 0.6942(4) 0.6615(3) 0.1570(3)
H1_3 H 0.7370 0.6644 0.1607
C2_2 C 0.6112(3) 0.6691(2) 0.1078(3)
C3_2 C 0.5641(4) 0.6793(3) 0.0587(4)
H2_2 H 0.5749 0.6991 0.0041
C4_2 C 0.5014(4) 0.6582(3) 0.0962(5)
H3_2 H 0.4690 0.6651 0.0669
C5_2 C 0.4851(4) 0.6281(3) 0.1737(5)
H4_2 H 0.4413 0.6136 0.1961
C6_2 C 0.5306(4) 0.6180(3) 0.2208(4)
H5_2 H 0.5188 0.5978 0.2751
C7_2 C 0.5923(4) 0.6378(3) 0.1872(4)
N3_3 N 0.7421(3) 0.5880(2) 0.2987(3)
N4_3 N 0.8413(3) 0.5890(2) 0.3075(3)
C8_3 C 0.8004(4) 0.6092(3) 0.3384(3)
H6_3 H 0.8123 0.6376 0.3866
C9_3 C 0.8054(4) 0.5492(3) 0.2380(3)
C10_3 C 0.8220(4) 0.5133(3) 0.1808(4)
H7_3 H 0.8637 0.5137 0.1844
C11_3 C 0.7754(6) 0.4774(4) 0.1190(5)
H8_3 H 0.7843 0.4516 0.0795
C12_3 C 0.7139(7) 0.4788(5) 0.1140(5)
H9_3 H 0.6839 0.4557 0.0686
C13_3 C 0.6958(6) 0.5113(4) 0.1705(4)
H10_3 H 0.6532 0.5093 0.1679
C14_3 C 0.7439(4) 0.5483(3) 0.2340(4)
Co3_3 Co 0.93118(5) 0.60293(3) 0.34188(4)
N5_3 N 0.6767(4) 0.6579(3) 0.4240(3)
N6_3 N 0.5856(4) 0.5080(3) 0.3592(3)
Co2_2 Co 0.73548(5) 0.73041(3) 0.99146(4)
Co1_4 Co 0.06882(3) 0.39707(3) 0.65812(4)
N1_4 N 0.0336(2) 0.3470(2) 0.5504(3)
C1_4 C 0.0052(3) 0.3660(3) 0.4903(3)
H1_4 H 0.0023 0.4059 0.4940
C4_3 C 0.0085(3) 0.1765(3) 0.4295(5)
H3_3 H 0.0016 0.1372 0.4002
C5_3 C 0.0386(3) 0.1903(3) 0.5070(5)
H4_3 H 0.0531 0.1610 0.5294
C6_3 C 0.0487(3) 0.2459(3) 0.5541(4)
H5_3 H 0.0689 0.2543 0.6084
C7_3 C 0.0289(3) 0.2878(3) 0.5205(4)
N3_4 N 0.0787(2) 0.4874(2) 0.6320(3)
N4_4 N 0.0777(2) 0.5856(2) 0.6408(3)
C8_4 C 0.0575(3) 0.5245(3) 0.6717(3)
H6_4 H 0.0291 0.5080 0.7199
C9_4 C 0.1175(3) 0.5895(3) 0.5713(3)
C10_4 C 0.1534(3) 0.6420(3) 0.5141(4)
H7_4 H 0.1530 0.6833 0.5177
C11_4 C 0.1893(4) 0.6313(4) 0.4523(5)
H8_4 H 0.2151 0.6660 0.4128
C12_4 C 0.1879(5) 0.5684(5) 0.4473(5)
H9_4 H 0.2110 0.5615 0.4019
C13_4 C 0.1554(4) 0.5178(4) 0.5038(4)
H10_4 H 0.1574 0.4772 0.5012
C14_4 C 0.1184(3) 0.5289(3) 0.5673(4)
Co3_4 Co 0.06374(3) 0.66159(4) 0.67521(4)
N5_4 N 0.0087(3) 0.3521(2) 0.7574(3)
N6_4 N 0.1587(3) 0.4110(2) 0.6925(3)
C2_3 C 0.9976(2) 0.2754(2) 0.4411(3)
C3_3 C 0.9874(3) 0.2181(3) 0.3920(4)
H2_3 H 0.9676 0.2091 0.3374
Co1_5 Co 0.60293(3) 0.67174(4) 0.65812(4)
N1_5 N 0.6530(2) 0.6865(3) 0.5504(3)
C1_5 C 0.6340(3) 0.6391(4) 0.4903(3)
H1_5 H 0.5941 0.5963 0.4940
C2_4 C 0.7246(2) 0.7221(3) 0.4411(3)
C3_4 C 0.7819(3) 0.7692(4) 0.3920(4)
H2_4 H 0.7909 0.7584 0.3374
C4_4 C 0.8235(3) 0.8319(4) 0.4295(5)
H3_4 H 0.8628 0.8643 0.4002
C5_4 C 0.8097(3) 0.8482(4) 0.5070(5)
H4_4 H 0.8390 0.8920 0.5294
C6_4 C 0.7541(3) 0.8027(4) 0.5541(4)
H5_4 H 0.7457 0.8145 0.6084
C7_4 C 0.7122(3) 0.7410(4) 0.5205(4)
N3_5 N 0.5126(2) 0.5912(3) 0.6320(3)
N4_5 N 0.4144(2) 0.4920(3) 0.6408(3)
C8_5 C 0.4755(3) 0.5329(4) 0.6717(3)
H6_5 H 0.4920 0.5210 0.7199
C9_5 C 0.4105(3) 0.5279(4) 0.5713(3)
C10_5 C 0.3580(3) 0.5113(4) 0.5141(4)
H7_5 H 0.3167 0.4696 0.5177
C11_5 C 0.3687(4) 0.5579(6) 0.4523(5)
H8_5 H 0.3340 0.5490 0.4128
C12_5 C 0.4316(5) 0.6194(7) 0.4473(5)
H9_5 H 0.4385 0.6494 0.4019
C13_5 C 0.4822(4) 0.6375(6) 0.5038(4)
H10_5 H 0.5228 0.6801 0.5012
C14_5 C 0.4711(3) 0.5894(4) 0.5673(4)
Co3_5 Co 0.33841(4) 0.40215(5) 0.67521(4)
N5_5 N 0.6479(2) 0.6567(4) 0.7574(3)
N6_5 N 0.5890(2) 0.7477(4) 0.6925(3)
C2_5 C 0.2779(3) 0.0024(2) 0.4411(3)
C3_5 C 0.2308(4) 0.0126(3) 0.3920(4)
H2_5 H 0.2416 0.0324 0.3374
Co1_6 Co 0.32826(4) 0.93118(3) 0.65812(4)
N1_6 N 0.3135(3) 0.9664(2) 0.5504(3)
C1_6 C 0.3609(4) 0.9948(3) 0.4903(3)
H1_6 H 0.4037 0.9977 0.4940
C4_5 C 0.1681(4) 0.9915(3) 0.4295(5)
H3_5 H 0.1357 0.9984 0.4002
C5_5 C 0.1518(4) 0.9614(3) 0.5070(5)
H4_5 H 0.1080 0.9469 0.5294
C6_5 C 0.1973(4) 0.9513(3) 0.5541(4)
H5_5 H 0.1855 0.9311 0.6084
C7_5 C 0.2590(4) 0.9711(3) 0.5205(4)
N3_6 N 0.4088(3) 0.9213(2) 0.6320(3)
N4_6 N 0.5080(3) 0.9223(2) 0.6408(3)
C8_6 C 0.4671(4) 0.9425(3) 0.6717(3)
H6_6 H 0.4790 0.9709 0.7199
C9_6 C 0.4721(4) 0.8825(3) 0.5713(3)
C10_6 C 0.4887(4) 0.8466(3) 0.5141(4)
H7_6 H 0.5304 0.8470 0.5177
C11_6 C 0.4421(6) 0.8107(4) 0.4523(5)
H8_6 H 0.4510 0.7849 0.4128
C12_6 C 0.3806(7) 0.8121(5) 0.4473(5)
H9_6 H 0.3506 0.7890 0.4019
C13_6 C 0.3625(6) 0.8446(4) 0.5038(4)
H10_6 H 0.3199 0.8426 0.5012
C14_6 C 0.4106(4) 0.8816(3) 0.5673(4)
Co3_6 Co 0.59785(5) 0.93626(3) 0.67521(4)
N5_6 N 0.3433(4) 0.9913(3) 0.7574(3)
N6_6 N 0.2523(4) 0.8413(3) 0.6925(3)
C8_7 C 0.7241(3) 0.8579(3) 0.0051(3)
H6_7 H 0.6957 0.8414 0.0533
Co3_7 Co 0.73041(3) 0.99492(4) 0.00854(4)
N6_7 N 0.8254(3) 0.7443(2) 0.0258(3)
N1_7 N 0.7002(2) 0.6804(2) 0.8838(3)
C1_7 C 0.6718(3) 0.6994(3) 0.8237(3)
H1_7 H 0.6689 0.7393 0.8274
C2_6 C 0.6642(2) 0.6088(2) 0.7745(3)
C3_6 C 0.6540(3) 0.5515(3) 0.7254(4)
H2_6 H 0.6342 0.5425 0.6708
C4_6 C 0.6751(3) 0.5099(3) 0.7629(5)
H3_6 H 0.6682 0.4706 0.7336
C5_6 C 0.7052(3) 0.5237(3) 0.8404(5)
H4_6 H 0.7197 0.4944 0.8628
C6_6 C 0.7153(3) 0.5793(3) 0.8875(4)
H5_6 H 0.7355 0.5877 0.9418
C7_6 C 0.6955(3) 0.6212(3) 0.8539(4)
N3_7 N 0.7453(2) 0.8208(2) 0.9654(3)
N4_7 N 0.7443(2) 0.9190(2) 0.9742(3)
C9_7 C 0.7841(3) 0.9229(3) 0.9047(3)
C10_7 C 0.8200(3) 0.9754(3) 0.8475(4)
C11_7 C 0.8559(4) 0.9647(4) 0.7857(5)
H8_7 H 0.8817 0.9994 0.7462
C12_7 C 0.8545(5) 0.9018(5) 0.7807(5)
H9_7 H 0.8776 0.8949 0.7353
C13_7 C 0.8220(4) 0.8512(4) 0.8372(4)
H10_7 H 0.8240 0.8106 0.8346
C14_7 C 0.7850(3) 0.8623(3) 0.9007(4)
N6_8 N 0.2557(2) 0.0810(4) 0.0258(3)
N1_8 N 0.3196(2) 0.0199(3) 0.8838(3)
C2_7 C 0.3912(2) 0.0555(3) 0.7745(3)
C3_7 C 0.4485(3) 0.1026(4) 0.7254(4)
H2_7 H 0.4575 0.0918 0.6708
C4_7 C 0.4901(3) 0.1653(4) 0.7629(5)
H3_7 H 0.5294 0.1977 0.7336
C5_7 C 0.4763(3) 0.1816(4) 0.8404(5)
H4_7 H 0.5056 0.2254 0.8628
C6_7 C 0.4207(3) 0.1361(4) 0.8875(4)
H5_7 H 0.4123 0.1479 0.9418
C7_7 C 0.3788(3) 0.0744(4) 0.8539(4)
H10_8 H 0.1894 0.0135 0.8346
C1_8 C 0.3006(3) 0.9725(4) 0.8237(3)
H1_8 H 0.2607 0.9297 0.8274
N3_8 N 0.1792(2) 0.9246(3) 0.9654(3)
N4_8 N 0.0810(2) 0.8254(3) 0.9742(3)
C9_8 C 0.0771(3) 0.8613(4) 0.9047(3)
C10_8 C 0.0246(3) 0.8447(4) 0.8475(4)
C11_8 C 0.0353(4) 0.8913(6) 0.7857(5)
H8_8 H 0.0006 0.8824 0.7462
C12_8 C 0.0982(5) 0.9528(7) 0.7807(5)
H9_8 H 0.1051 0.9828 0.7353
C13_8 C 0.1488(4) 0.9709(6) 0.8372(4)
C14_8 C 0.1377(3) 0.9228(4) 0.9007(4)
C8_8 C 0.1337(4) 0.2759(3) 0.0051(3)
H6_8 H 0.1456 0.3043 0.0533
Co3_8 Co 0.26452(5) 0.26959(3) 0.00854(4)
C1_9 C 0.0275(4) 0.3282(3) 0.8237(3)
H1_9 H 0.0703 0.3311 0.8274
N3_9 N 0.0754(3) 0.2547(2) 0.9654(3)
N4_9 N 0.1746(3) 0.2557(2) 0.9742(3)
C9_9 C 0.1387(4) 0.2159(3) 0.9047(3)
C10_9 C 0.1553(4) 0.1800(3) 0.8475(4)
H7_7 H 0.1970 0.1804 0.8511
C11_9 C 0.1087(6) 0.1441(4) 0.7857(5)
H8_9 H 0.1176 0.1183 0.7462
C12_9 C 0.0472(7) 0.1455(5) 0.7807(5)
H9_9 H 0.0172 0.1224 0.7353
C13_9 C 0.0291(6) 0.1780(4) 0.8372(4)
C14_9 C 0.0772(4) 0.2150(3) 0.9007(4)
N6_9 N 0.9190(4) 0.1746(3) 0.0258(3)
N1_9 N 0.6331(2) 0.9863(2) 0.7829(3)
C1_10 C 0.6615(3) 0.9673(3) 0.8430(3)
H1_10 H 0.6644 0.9274 0.8393
N3_10 N 0.5880(2) 0.8459(2) 0.7013(3)
C8_9 C 0.6092(3) 0.8088(3) 0.6616(3)
H6_9 H 0.6376 0.8253 0.6134
C9_10 C 0.5492(3) 0.7438(3) 0.7620(3)
C10_10 C 0.5133(3) 0.6913(3) 0.8192(4)
H7_8 H 0.5137 0.6500 0.8156
C11_10 C 0.4774(4) 0.7020(4) 0.8810(5)
H8_10 H 0.4516 0.6673 0.9205
C12_10 C 0.4788(5) 0.7649(5) 0.8860(5)
H9_10 H 0.4557 0.7718 0.9314
C13_10 C 0.5113(4) 0.8155(4) 0.8295(4)
H10_9 H 0.5093 0.8561 0.8321
C14_10 C 0.5483(3) 0.8044(3) 0.7660(4)
N5_7 N 0.6579(3) 0.9813(2) 0.5760(3)
N1_10 N 0.0137(2) 0.6468(3) 0.7829(3)
C1_11 C 0.0327(3) 0.6942(4) 0.8430(3)
H1_11 H 0.0726 0.7370 0.8393
N3_11 N 0.1541(2) 0.7421(3) 0.7013(3)
C8_10 C 0.1912(3) 0.8004(4) 0.6616(3)
H6_10 H 0.1747 0.8123 0.6134
C9_11 C 0.2562(3) 0.8054(4) 0.7620(3)
C10_11 C 0.3087(3) 0.8220(4) 0.8192(4)
H7_9 H 0.3500 0.8637 0.8156
C11_11 C 0.2980(4) 0.7754(6) 0.8810(5)
H8_11 H 0.3327 0.7843 0.9205
C12_11 C 0.2351(5) 0.7139(7) 0.8860(5)
H9_11 H 0.2282 0.6839 0.9314
C13_11 C 0.1845(4) 0.6958(6) 0.8295(4)
H10_10 H 0.1439 0.6532 0.8321
C14_11 C 0.1956(3) 0.7439(4) 0.7660(4)
N5_8 N 0.0187(2) 0.6767(4) 0.5760(3)
N2_3 N 0.9900(2) 0.6754(3) 0.9093(3)
C2_8 C 0.9421(2) 0.6112(3) 0.8922(3)
C3_8 C 0.8848(3) 0.5641(4) 0.9413(4)
H2_8 H 0.8758 0.5749 0.9959
C4_8 C 0.8432(3) 0.5014(4) 0.9038(5)
H3_8 H 0.8039 0.4690 0.9331
C5_8 C 0.8570(3) 0.4851(4) 0.8263(5)
H4_8 H 0.8277 0.4413 0.8039
C6_8 C 0.9126(3) 0.5306(4) 0.7792(4)
H5_8 H 0.9210 0.5188 0.7249
C7_8 C 0.9545(3) 0.5923(4) 0.8128(4)
N1_11 N 0.3532(3) 0.3669(2) 0.7829(3)
N2_4 N 0.3246(3) 0.3146(2) 0.9093(3)
C1_12 C 0.3058(4) 0.3385(3) 0.8430(3)
H1_12 H 0.2630 0.3356 0.8393
C2_9 C 0.3888(3) 0.3309(2) 0.8922(3)
C3_9 C 0.4359(4) 0.3207(3) 0.9413(4)
H2_9 H 0.4251 0.3009 0.9959
C4_9 C 0.4986(4) 0.3418(3) 0.9038(5)
H3_9 H 0.5310 0.3349 0.9331
C5_9 C 0.5149(4) 0.3719(3) 0.8263(5)
H4_9 H 0.5587 0.3864 0.8039
C6_9 C 0.4694(4) 0.3820(3) 0.7792(4)
H5_9 H 0.4812 0.4022 0.7249
C7_9 C 0.4077(4) 0.3622(3) 0.8128(4)
N3_12 N 0.2579(3) 0.4120(2) 0.7013(3)
C8_11 C 0.1996(4) 0.3908(3) 0.6616(3)
H6_11 H 0.1877 0.3624 0.6134
C9_12 C 0.1946(4) 0.4508(3) 0.7620(3)
C10_12 C 0.1780(4) 0.4867(3) 0.8192(4)
H7_10 H 0.1363 0.4863 0.8156
C11_12 C 0.2246(6) 0.5226(4) 0.8810(5)
H8_12 H 0.2157 0.5484 0.9205
C12_12 C 0.2861(7) 0.5212(5) 0.8860(5)
H9_12 H 0.3161 0.5443 0.9314
C13_12 C 0.3042(6) 0.4887(4) 0.8295(4)
H10_11 H 0.3468 0.4907 0.8321
C14_12 C 0.2561(4) 0.4517(3) 0.7660(4)
N5_9 N 0.3233(4) 0.3421(3) 0.5760(3)
C2_10 C 0.0024(2) 0.7246(2) 0.5589(3)
C3_10 C 0.0126(3) 0.7819(3) 0.6080(4)
H2_10 H 0.0324 0.7909 0.6626
N1_12 N 0.9664(2) 0.6530(2) 0.4496(3)
C1_13 C 0.9948(3) 0.6340(3) 0.5097(3)
H1_13 H 0.9977 0.5941 0.5060
C4_10 C 0.9915(3) 0.8235(3) 0.5705(5)
H3_10 H 0.9984 0.8628 0.5998
C5_10 C 0.9614(3) 0.8097(3) 0.4930(5)
H4_10 H 0.9469 0.8390 0.4706
C6_10 C 0.9513(3) 0.7541(3) 0.4459(4)
H5_10 H 0.9311 0.7457 0.3916
C7_10 C 0.9711(3) 0.7122(3) 0.4795(4)
N3_13 N 0.9213(2) 0.5126(2) 0.3680(3)
C8_12 C 0.9425(3) 0.4755(3) 0.3283(3)
H6_12 H 0.9709 0.4920 0.2801
C9_13 C 0.8825(3) 0.4105(3) 0.4287(3)
C10_13 C 0.8466(3) 0.3580(3) 0.4859(4)
H7_11 H 0.8470 0.3167 0.4823
C11_13 C 0.8107(4) 0.3687(4) 0.5477(5)
H8_13 H 0.7849 0.3340 0.5872
C12_13 C 0.8121(5) 0.4316(5) 0.5527(5)
H9_13 H 0.7890 0.4385 0.5981
C13_13 C 0.8446(4) 0.4822(4) 0.4962(4)
H10_12 H 0.8426 0.5228 0.4988
C14_13 C 0.8816(3) 0.4711(3) 0.4327(4)
N5_10 N 0.9913(3) 0.6479(2) 0.2426(3)
N1_13 N 0.3470(2) 0.3135(3) 0.4496(3)
C1_14 C 0.3660(3) 0.3609(4) 0.5097(3)
H1_14 H 0.4059 0.4037 0.5060
C2_11 C 0.2754(2) 0.2779(3) 0.5589(3)
C3_11 C 0.2181(3) 0.2308(4) 0.6080(4)
H2_11 H 0.2091 0.2416 0.6626
C4_11 C 0.1765(3) 0.1681(4) 0.5705(5)
H3_11 H 0.1372 0.1357 0.5998
C5_11 C 0.1903(3) 0.1518(4) 0.4930(5)
H4_11 H 0.1610 0.1080 0.4706
C6_11 C 0.2459(3) 0.1973(4) 0.4459(4)
H5_11 H 0.2543 0.1855 0.3916
C7_11 C 0.2878(3) 0.2590(4) 0.4795(4)
N3_14 N 0.4874(2) 0.4088(3) 0.3680(3)
C8_13 C 0.5245(3) 0.4671(4) 0.3283(3)
H6_13 H 0.5080 0.4790 0.2801
C9_14 C 0.5895(3) 0.4721(4) 0.4287(3)
C10_14 C 0.6420(3) 0.4887(4) 0.4859(4)
H7_12 H 0.6833 0.5304 0.4823
C11_14 C 0.6313(4) 0.4421(6) 0.5477(5)
H8_14 H 0.6660 0.4510 0.5872
C12_14 C 0.5684(5) 0.3806(7) 0.5527(5)
H9_14 H 0.5615 0.3506 0.5981
C13_14 C 0.5178(4) 0.3625(6) 0.4962(4)
H10_13 H 0.4772 0.3199 0.4988
C14_14 C 0.5289(3) 0.4106(4) 0.4327(4)
N5_11 N 0.3521(2) 0.3433(4) 0.2426(3)
N1_14 N 0.6865(3) 0.0336(2) 0.4496(3)
C1_15 C 0.6391(4) 0.0052(3) 0.5097(3)
H1_15 H 0.5963 0.0023 0.5060
C4_12 C 0.8319(4) 0.0085(3) 0.5705(5)
H3_12 H 0.8643 0.0016 0.5998
C5_12 C 0.8482(4) 0.0386(3) 0.4930(5)
H4_12 H 0.8920 0.0531 0.4706
C6_12 C 0.8027(4) 0.0487(3) 0.4459(4)
H5_12 H 0.8145 0.0689 0.3916
C7_12 C 0.7410(4) 0.0289(3) 0.4795(4)
N3_15 N 0.5912(3) 0.0787(2) 0.3680(3)
C8_14 C 0.5329(4) 0.0575(3) 0.3283(3)
H6_14 H 0.5210 0.0291 0.2801
C9_15 C 0.5279(4) 0.1175(3) 0.4287(3)
C10_15 C 0.5113(4) 0.1534(3) 0.4859(4)
H7_13 H 0.4696 0.1530 0.4823
C11_15 C 0.5579(6) 0.1893(4) 0.5477(5)
H8_15 H 0.5490 0.2151 0.5872
C12_15 C 0.6194(7) 0.1879(5) 0.5527(5)
H9_15 H 0.6494 0.2110 0.5981
C13_15 C 0.6375(6) 0.1554(4) 0.4962(4)
H10_14 H 0.6801 0.1574 0.4988
C14_15 C 0.5894(4) 0.1184(3) 0.4327(4)
N5_12 N 0.6567(4) 0.0087(3) 0.2426(3)
C2_12 C 0.7221(3) 0.9976(2) 0.5589(3)
C3_12 C 0.7692(4) 0.9874(3) 0.6080(4)
H2_12 H 0.7584 0.9676 0.6626
N1_15 N 0.2998(2) 0.3196(2) 0.1162(3)
C1_16 C 0.3282(3) 0.3006(3) 0.1763(3)
H1_16 H 0.3311 0.2607 0.1726
C2_13 C 0.3358(2) 0.3912(2) 0.2255(3)
C3_13 C 0.3460(3) 0.4485(3) 0.2746(4)
H2_13 H 0.3658 0.4575 0.3292
C4_13 C 0.3249(3) 0.4901(3) 0.2371(5)
H3_13 H 0.3318 0.5294 0.2664
C5_13 C 0.2948(3) 0.4763(3) 0.1596(5)
H4_13 H 0.2803 0.5056 0.1372
C6_13 C 0.2847(3) 0.4207(3) 0.1125(4)
H5_13 H 0.2645 0.4123 0.0582
C7_13 C 0.3045(3) 0.3788(3) 0.1461(4)
N3_16 N 0.2547(2) 0.1792(2) 0.0346(3)
C9_16 C 0.2159(3) 0.0771(3) 0.0953(3)
C10_16 C 0.1800(3) 0.0246(3) 0.1525(4)
C11_16 C 0.1441(4) 0.0353(4) 0.2143(5)
H8_16 H 0.1183 0.0006 0.2538
C12_16 C 0.1455(5) 0.0982(5) 0.2193(5)
H9_16 H 0.1224 0.1051 0.2647
C13_16 C 0.1780(4) 0.1488(4) 0.1628(4)
H10_15 H 0.1760 0.1894 0.1654
C14_16 C 0.2150(3) 0.1377(3) 0.0993(4)
C8_15 C 0.2759(3) 0.1421(3) 0.9949(3)
H6_15 H 0.3043 0.1586 0.9467
C1_17 C 0.6994(3) 0.0275(4) 0.1763(3)
H1_17 H 0.7393 0.0703 0.1726
N3_17 N 0.8208(2) 0.0754(3) 0.0346(3)
C9_17 C 0.9229(3) 0.1387(4) 0.0953(3)
C10_17 C 0.9754(3) 0.1553(4) 0.1525(4)
C11_17 C 0.9647(4) 0.1087(6) 0.2143(5)
H8_17 H 0.9994 0.1176 0.2538
C12_17 C 0.9018(5) 0.0472(7) 0.2193(5)
H9_17 H 0.8949 0.0172 0.2647
C13_17 C 0.8512(4) 0.0291(6) 0.1628(4)
C14_17 C 0.8623(3) 0.0772(4) 0.0993(4)
N1_16 N 0.6804(2) 0.9801(3) 0.1162(3)
C2_14 C 0.6088(2) 0.9445(3) 0.2255(3)
C3_14 C 0.5515(3) 0.8974(4) 0.2746(4)
H2_14 H 0.5425 0.9082 0.3292
C4_14 C 0.5099(3) 0.8347(4) 0.2371(5)
H3_14 H 0.4706 0.8023 0.2664
C5_14 C 0.5237(3) 0.8184(4) 0.1596(5)
H4_14 H 0.4944 0.7746 0.1372
C6_14 C 0.5793(3) 0.8639(4) 0.1125(4)
H5_14 H 0.5877 0.8521 0.0582
C7_14 C 0.6212(3) 0.9256(4) 0.1461(4)
H10_16 H 0.8106 0.9865 0.1654
C1_18 C 0.9725(4) 0.6718(3) 0.1763(3)
H1_18 H 0.9297 0.6689 0.1726
N3_18 N 0.9246(3) 0.7453(2) 0.0346(3)
C9_18 C 0.8613(4) 0.7841(3) 0.0953(3)
C10_18 C 0.8447(4) 0.8200(3) 0.1525(4)
H7_14 H 0.8030 0.8196 0.1489
C11_18 C 0.8913(6) 0.8559(4) 0.2143(5)
H8_18 H 0.8824 0.8817 0.2538
C12_18 C 0.9528(7) 0.8545(5) 0.2193(5)
H9_18 H 0.9828 0.8776 0.2647
C13_18 C 0.9709(6) 0.8220(4) 0.1628(4)
C14_18 C 0.9228(4) 0.7850(3) 0.0993(4)
C8_16 C 0.8663(4) 0.7241(3) 0.9949(3)
H6_16 H 0.8544 0.6957 0.9467
N2_5 N 0.3146(2) 0.9900(2) 0.0907(3)
C2_15 C 0.3309(2) 0.9421(2) 0.1078(3)
C3_15 C 0.3207(3) 0.8848(3) 0.0587(4)
H2_15 H 0.3009 0.8758 0.0041
C4_15 C 0.3418(3) 0.8432(3) 0.0962(5)
H3_15 H 0.3349 0.8039 0.0669
C5_15 C 0.3719(3) 0.8570(3) 0.1737(5)
H4_15 H 0.3864 0.8277 0.1961
C6_15 C 0.3820(3) 0.9126(3) 0.2208(4)
H5_15 H 0.4022 0.9210 0.2751
C7_15 C 0.3622(3) 0.9545(3) 0.1872(4)
C8_17 C 0.1421(3) 0.8663(4) 0.0051(3)
H6_17 H 0.1586 0.8544 0.0533
Co3_9 Co 0.00508(4) 0.73548(5) 0.00854(4)
N1_17 N 0.0199(3) 0.7002(2) 0.1162(3)
C2_16 C 0.0555(3) 0.6642(2) 0.2255(3)
C3_16 C 0.1026(4) 0.6540(3) 0.2746(4)
H2_16 H 0.0918 0.6342 0.3292
C4_16 C 0.1653(4) 0.6751(3) 0.2371(5)
H3_16 H 0.1977 0.6682 0.2664
C5_16 C 0.1816(4) 0.7052(3) 0.1596(5)
H4_16 H 0.2254 0.7197 0.1372
C6_16 C 0.1361(4) 0.7153(3) 0.1125(4)
H5_16 H 0.1479 0.7355 0.0582
C7_16 C 0.0744(4) 0.6955(3) 0.1461(4)
H10_17 H 0.0135 0.8240 0.1654
Co2_3 Co 0.99492(4) 0.26452(5) 0.99146(4)
N1_18 N 0.9801(3) 0.2998(2) 0.8838(3)
C2_17 C 0.9445(3) 0.3358(2) 0.7745(3)
C3_17 C 0.8974(4) 0.3460(3) 0.7254(4)
H2_17 H 0.9082 0.3658 0.6708
C4_17 C 0.8347(4) 0.3249(3) 0.7629(5)
H3_17 H 0.8023 0.3318 0.7336
C5_17 C 0.8184(4) 0.2948(3) 0.8404(5)
H4_17 H 0.7746 0.2803 0.8628
C6_17 C 0.8639(4) 0.2847(3) 0.8875(4)
H5_17 H 0.8521 0.2645 0.9418
C7_17 C 0.9256(4) 0.3045(3) 0.8539(4)
H10_18 H 0.9865 0.1760 0.8346
N2_6 N 0.6854(2) 0.0100(2) 0.9093(3)
C2_18 C 0.6691(2) 0.0579(2) 0.8922(3)
C3_18 C 0.6793(3) 0.1152(3) 0.9413(4)
H2_18 H 0.6991 0.1242 0.9959
C4_18 C 0.6582(3) 0.1568(3) 0.9038(5)
H3_18 H 0.6651 0.1961 0.9331
C5_18 C 0.6281(3) 0.1430(3) 0.8263(5)
H4_18 H 0.6136 0.1723 0.8039
C6_18 C 0.6180(3) 0.0874(3) 0.7792(4)
H5_18 H 0.5978 0.0790 0.7249
C7_18 C 0.6378(3) 0.0455(3) 0.8128(4)
C8_18 C 0.8579(3) 0.1337(4) 0.9949(3)
H6_18 H 0.8414 0.1456 0.9467
H7_15 H 0.8196 0.0167 0.8511
H7_16 H 0.9833 0.8030 0.8511
H7_17 H 0.1804 0.9833 0.1489
H7_18 H 0.0167 0.1970 0.1489
loop_
_geom_bond_atom_site_label_1
_geom_bond_atom_site_label_2
_geom_bond_site_symmetry_1
_geom_bond_site_symmetry_2
Co1 N1 1_555 1_555
N1 C1 1_555 1_555
C1 H1 1_555 1_555
N3 Co1 1_555 1_555
N4 C8 1_555 1_555
C8 N3 1_555 1_555
H6 C8 1_555 1_555
C9 N4 1_555 1_555
C10 C9 1_555 1_555
H7 C10 1_555 1_555
C11 C10 1_555 1_555
H8 C11 1_555 1_555
C12 C11 1_555 1_555
H9 C12 1_555 1_555
C13 C12 1_555 1_555
H10 C13 1_555 1_555
C14 N3 1_555 1_555
Co3 N4 1_555 1_555
N5 Co1 1_555 1_555
N6 Co1 1_555 1_555
C9 C14 1_555 1_555
C13 C14 1_555 1_555
C2 N2 1_555 1_555
C3 C2 1_555 1_555
H2 C3 1_555 1_555
C4 C3 1_555 1_555
H3 C4 1_555 1_555
C5 C4 1_555 1_555
H4 C5 1_555 1_555
C6 C5 1_555 1_555
H5 C6 1_555 1_555
C2 C7 1_555 1_555
C6 C7 1_555 1_555
Co1_2 N1_2 1_555 1_555
N1_2 C1_2 1_555 1_555
C1_2 H1_2 1_555 1_555
N3_2 Co1_2 1_555 1_555
N4_2 C8_2 1_555 1_555
C8_2 N3_2 1_555 1_555
H6_2 C8_2 1_555 1_555
C9_2 N4_2 1_555 1_555
C10_2 C9_2 1_555 1_555
H7_2 C10_2 1_555 1_555
C11_2 C10_2 1_555 1_555
H8_2 C11_2 1_555 1_555
C12_2 C11_2 1_555 1_555
H9_2 C12_2 1_555 1_555
C13_2 C12_2 1_555 1_555
H10_2 C13_2 1_555 1_555
C14_2 N3_2 1_555 1_555
Co3_2 N4_2 1_555 1_555
N5_2 Co1_2 1_555 1_555
N6_2 Co1_2 1_555 1_555
C9_2 C14_2 1_555 1_555
C13_2 C14_2 1_555 1_555
Co1_3 N1_3 1_555 1_555
N1_3 C1_3 1_555 1_555
N2_2 C1_3 1_555 1_555
C1_3 H1_3 1_555 1_555
C2_2 N2_2 1_555 1_555
C3_2 C2_2 1_555 1_555
H2_2 C3_2 1_555 1_555
C4_2 C3_2 1_555 1_555
H3_2 C4_2 1_555 1_555
C5_2 C4_2 1_555 1_555
H4_2 C5_2 1_555 1_555
C6_2 C5_2 1_555 1_555
H5_2 C6_2 1_555 1_555
C7_2 N1_3 1_555 1_555
N3_3 Co1_3 1_555 1_555
N4_3 C8_3 1_555 1_555
C8_3 N3_3 1_555 1_555
H6_3 C8_3 1_555 1_555
C9_3 N4_3 1_555 1_555
C10_3 C9_3 1_555 1_555
H7_3 C10_3 1_555 1_555
C11_3 C10_3 1_555 1_555
H8_3 C11_3 1_555 1_555
C12_3 C11_3 1_555 1_555
H9_3 C12_3 1_555 1_555
C13_3 C12_3 1_555 1_555
H10_3 C13_3 1_555 1_555
C14_3 N3_3 1_555 1_555
Co3_3 N4_3 1_555 1_555
N5_3 Co1_3 1_555 1_555
N6_3 Co1_3 1_555 1_555
C2_2 C7_2 1_555 1_555
C6_2 C7_2 1_555 1_555
C9_3 C14_3 1_555 1_555
C13_3 C14_3 1_555 1_555
Co1_4 N1_4 1_555 1_555
N1_4 C1_4 1_555 1_555
C1_4 H1_4 1_555 1_555
H3_3 C4_3 1_555 1_555
C5_3 C4_3 1_555 1_555
H4_3 C5_3 1_555 1_555
C6_3 C5_3 1_555 1_555
H5_3 C6_3 1_555 1_555
C7_3 N1_4 1_555 1_555
N3_4 Co1_4 1_555 1_555
N4_4 C8_4 1_555 1_555
C8_4 N3_4 1_555 1_555
H6_4 C8_4 1_555 1_555
C9_4 N4_4 1_555 1_555
C10_4 C9_4 1_555 1_555
H7_4 C10_4 1_555 1_555
C11_4 C10_4 1_555 1_555
H8_4 C11_4 1_555 1_555
C12_4 C11_4 1_555 1_555
H9_4 C12_4 1_555 1_555
C13_4 C12_4 1_555 1_555
H10_4 C13_4 1_555 1_555
C14_4 N3_4 1_555 1_555
Co3_4 N4_4 1_555 1_555
N5_4 Co1_4 1_555 1_555
N6_4 Co1_4 1_555 1_555
C6_3 C7_3 1_555 1_555
C9_4 C14_4 1_555 1_555
C13_4 C14_4 1_555 1_555
C2_3 N5_2 1_555 1_555
C3_3 C2_3 1_555 1_555
H2_3 C3_3 1_555 1_555
Co1_5 N1_5 1_555 1_555
N1_5 C1_5 1_555 1_555
N5_3 C1_5 1_555 1_555
C1_5 H1_5 1_555 1_555
C2_4 N5_3 1_555 1_555
C3_4 C2_4 1_555 1_555
H2_4 C3_4 1_555 1_555
C4_4 C3_4 1_555 1_555
H3_4 C4_4 1_555 1_555
C5_4 C4_4 1_555 1_555
H4_4 C5_4 1_555 1_555
C6_4 C5_4 1_555 1_555
H5_4 C6_4 1_555 1_555
C7_4 N1_5 1_555 1_555
N3_5 Co1_5 1_555 1_555
N4_5 C8_5 1_555 1_555
C8_5 N3_5 1_555 1_555
H6_5 C8_5 1_555 1_555
C9_5 N4_5 1_555 1_555
C10_5 C9_5 1_555 1_555
H7_5 C10_5 1_555 1_555
C11_5 C10_5 1_555 1_555
H8_5 C11_5 1_555 1_555
C12_5 C11_5 1_555 1_555
H9_5 C12_5 1_555 1_555
C13_5 C12_5 1_555 1_555
H10_5 C13_5 1_555 1_555
C14_5 N3_5 1_555 1_555
Co3_5 N4_5 1_555 1_555
N5_5 Co1_5 1_555 1_555
N6_5 Co1_5 1_555 1_555
C2_4 C7_4 1_555 1_555
C6_4 C7_4 1_555 1_555
C9_5 C14_5 1_555 1_555
C13_5 C14_5 1_555 1_555
C2_5 N5 1_555 1_555
C3_5 C2_5 1_555 1_555
H2_5 C3_5 1_555 1_555
Co1_6 N1_6 1_555 1_555
N1_6 C1_6 1_555 1_555
C1_6 H1_6 1_555 1_555
H3_5 C4_5 1_555 1_555
C5_5 C4_5 1_555 1_555
H4_5 C5_5 1_555 1_555
C6_5 C5_5 1_555 1_555
H5_5 C6_5 1_555 1_555
C7_5 N1_6 1_555 1_555
N3_6 Co1_6 1_555 1_555
N4_6 C8_6 1_555 1_555
C8_6 N3_6 1_555 1_555
H6_6 C8_6 1_555 1_555
C9_6 N4_6 1_555 1_555
C10_6 C9_6 1_555 1_555
H7_6 C10_6 1_555 1_555
C11_6 C10_6 1_555 1_555
H8_6 C11_6 1_555 1_555
C12_6 C11_6 1_555 1_555
H9_6 C12_6 1_555 1_555
C13_6 C12_6 1_555 1_555
H10_6 C13_6 1_555 1_555
C14_6 N3_6 1_555 1_555
Co3_6 N4_6 1_555 1_555
N5_6 Co1_6 1_555 1_555
N6_6 Co1_6 1_555 1_555
C6_5 C7_5 1_555 1_555
C9_6 C14_6 1_555 1_555
C13_6 C14_6 1_555 1_555
H6_7 C8_7 1_555 1_555
Co2_2 N1_7 1_555 1_555
N1_7 C1_7 1_555 1_555
N5_5 C1_7 1_555 1_555
C1_7 H1_7 1_555 1_555
C2_6 N5_5 1_555 1_555
C3_6 C2_6 1_555 1_555
H2_6 C3_6 1_555 1_555
C4_6 C3_6 1_555 1_555
H3_6 C4_6 1_555 1_555
C5_6 C4_6 1_555 1_555
H4_6 C5_6 1_555 1_555
C6_6 C5_6 1_555 1_555
H5_6 C6_6 1_555 1_555
C7_6 N1_7 1_555 1_555
N3_7 Co2_2 1_555 1_555
C9_7 N4_7 1_555 1_555
C10_7 C9_7 1_555 1_555
C11_7 C10_7 1_555 1_555
H8_7 C11_7 1_555 1_555
C12_7 C11_7 1_555 1_555
H9_7 C12_7 1_555 1_555
C13_7 C12_7 1_555 1_555
H10_7 C13_7 1_555 1_555
C14_7 N3_7 1_555 1_555
C2_6 C7_6 1_555 1_555
C6_6 C7_6 1_555 1_555
C9_7 C14_7 1_555 1_555
C13_7 C14_7 1_555 1_555
Co2 N1_8 1_555 1_555
C3_7 C2_7 1_555 1_555
H2_7 C3_7 1_555 1_555
C4_7 C3_7 1_555 1_555
H3_7 C4_7 1_555 1_555
C5_7 C4_7 1_555 1_555
H4_7 C5_7 1_555 1_555
C6_7 C5_7 1_555 1_555
H5_7 C6_7 1_555 1_555
C7_7 N1_8 1_555 1_555
C2_7 C7_7 1_555 1_555
C6_7 C7_7 1_555 1_555
N5_6 C1_8 1_555 1_555
C1_8 H1_8 1_555 1_555
C9_8 N4_8 1_555 1_555
C10_8 C9_8 1_555 1_555
C11_8 C10_8 1_555 1_555
H8_8 C11_8 1_555 1_555
C12_8 C11_8 1_555 1_555
H9_8 C12_8 1_555 1_555
C13_8 C12_8 1_555 1_555
C14_8 N3_8 1_555 1_555
C9_8 C14_8 1_555 1_555
C13_8 C14_8 1_555 1_555
H6_8 C8_8 1_555 1_555
N5_4 C1_9 1_555 1_555
C1_9 H1_9 1_555 1_555
C9_9 N4_9 1_555 1_555
C10_9 C9_9 1_555 1_555
H7_7 C10_9 1_555 1_555
C11_9 C10_9 1_555 1_555
H8_9 C11_9 1_555 1_555
C12_9 C11_9 1_555 1_555
H9_9 C12_9 1_555 1_555
C13_9 C12_9 1_555 1_555
C14_9 N3_9 1_555 1_555
C9_9 C14_9 1_555 1_555
C13_9 C14_9 1_555 1_555
Co3_6 N1_9 1_555 1_555
N1_9 C1_10 1_555 1_555
C1_10 H1_10 1_555 1_555
N3_10 Co3_6 1_555 1_555
N6_5 C8_9 1_555 1_555
C8_9 N3_10 1_555 1_555
H6_9 C8_9 1_555 1_555
C9_10 N6_5 1_555 1_555
C10_10 C9_10 1_555 1_555
H7_8 C10_10 1_555 1_555
C11_10 C10_10 1_555 1_555
H8_10 C11_10 1_555 1_555
C12_10 C11_10 1_555 1_555
H9_10 C12_10 1_555 1_555
C13_10 C12_10 1_555 1_555
H10_9 C13_10 1_555 1_555
C14_10 N3_10 1_555 1_555
N5_7 Co3_6 1_555 1_555
C9_10 C14_10 1_555 1_555
C13_10 C14_10 1_555 1_555
Co3_4 N1_10 1_555 1_555
N1_10 C1_11 1_555 1_555
C1_11 H1_11 1_555 1_555
N3_11 Co3_4 1_555 1_555
N6_6 C8_10 1_555 1_555
C8_10 N3_11 1_555 1_555
H6_10 C8_10 1_555 1_555
C9_11 N6_6 1_555 1_555
C10_11 C9_11 1_555 1_555
H7_9 C10_11 1_555 1_555
C11_11 C10_11 1_555 1_555
H8_11 C11_11 1_555 1_555
C12_11 C11_11 1_555 1_555
H9_11 C12_11 1_555 1_555
C13_11 C12_11 1_555 1_555
H10_10 C13_11 1_555 1_555
C14_11 N3_11 1_555 1_555
N5_8 Co3_4 1_555 1_555
C9_11 C14_11 1_555 1_555
C13_11 C14_11 1_555 1_555
C2_8 N2_3 1_555 1_555
C3_8 C2_8 1_555 1_555
H2_8 C3_8 1_555 1_555
C4_8 C3_8 1_555 1_555
H3_8 C4_8 1_555 1_555
C5_8 C4_8 1_555 1_555
H4_8 C5_8 1_555 1_555
C6_8 C5_8 1_555 1_555
H5_8 C6_8 1_555 1_555
C2_8 C7_8 1_555 1_555
C6_8 C7_8 1_555 1_555
Co3_5 N1_11 1_555 1_555
N1_11 C1_12 1_555 1_555
N2_4 C1_12 1_555 1_555
C1_12 H1_12 1_555 1_555
C2_9 N2_4 1_555 1_555
C3_9 C2_9 1_555 1_555
H2_9 C3_9 1_555 1_555
C4_9 C3_9 1_555 1_555
H3_9 C4_9 1_555 1_555
C5_9 C4_9 1_555 1_555
H4_9 C5_9 1_555 1_555
C6_9 C5_9 1_555 1_555
H5_9 C6_9 1_555 1_555
C7_9 N1_11 1_555 1_555
N3_12 Co3_5 1_555 1_555
N6_4 C8_11 1_555 1_555
C8_11 N3_12 1_555 1_555
H6_11 C8_11 1_555 1_555
C9_12 N6_4 1_555 1_555
C10_12 C9_12 1_555 1_555
H7_10 C10_12 1_555 1_555
C11_12 C10_12 1_555 1_555
H8_12 C11_12 1_555 1_555
C12_12 C11_12 1_555 1_555
H9_12 C12_12 1_555 1_555
C13_12 C12_12 1_555 1_555
H10_11 C13_12 1_555 1_555
C14_12 N3_12 1_555 1_555
N5_9 Co3_5 1_555 1_555
C2_9 C7_9 1_555 1_555
C6_9 C7_9 1_555 1_555
C9_12 C14_12 1_555 1_555
C13_12 C14_12 1_555 1_555
C2_10 N5_8 1_555 1_555
C3_10 C2_10 1_555 1_555
H2_10 C3_10 1_555 1_555
Co3_3 N1_12 1_555 1_555
N1_12 C1_13 1_555 1_555
C1_13 H1_13 1_555 1_555
H3_10 C4_10 1_555 1_555
C5_10 C4_10 1_555 1_555
H4_10 C5_10 1_555 1_555
C6_10 C5_10 1_555 1_555
H5_10 C6_10 1_555 1_555
C7_10 N1_12 1_555 1_555
N3_13 Co3_3 1_555 1_555
N6_2 C8_12 1_555 1_555
C8_12 N3_13 1_555 1_555
H6_12 C8_12 1_555 1_555
C9_13 N6_2 1_555 1_555
C10_13 C9_13 1_555 1_555
H7_11 C10_13 1_555 1_555
C11_13 C10_13 1_555 1_555
H8_13 C11_13 1_555 1_555
C12_13 C11_13 1_555 1_555
H9_13 C12_13 1_555 1_555
C13_13 C12_13 1_555 1_555
H10_12 C13_13 1_555 1_555
C14_13 N3_13 1_555 1_555
N5_10 Co3_3 1_555 1_555
C6_10 C7_10 1_555 1_555
C9_13 C14_13 1_555 1_555
C13_13 C14_13 1_555 1_555
Co3 N1_13 1_555 1_555
N1_13 C1_14 1_555 1_555
N5_9 C1_14 1_555 1_555
C1_14 H1_14 1_555 1_555
C2_11 N5_9 1_555 1_555
C3_11 C2_11 1_555 1_555
H2_11 C3_11 1_555 1_555
C4_11 C3_11 1_555 1_555
H3_11 C4_11 1_555 1_555
C5_11 C4_11 1_555 1_555
H4_11 C5_11 1_555 1_555
C6_11 C5_11 1_555 1_555
H5_11 C6_11 1_555 1_555
C7_11 N1_13 1_555 1_555
N3_14 Co3 1_555 1_555
N6_3 C8_13 1_555 1_555
C8_13 N3_14 1_555 1_555
H6_13 C8_13 1_555 1_555
C9_14 N6_3 1_555 1_555
C10_14 C9_14 1_555 1_555
H7_12 C10_14 1_555 1_555
C11_14 C10_14 1_555 1_555
H8_14 C11_14 1_555 1_555
C12_14 C11_14 1_555 1_555
H9_14 C12_14 1_555 1_555
C13_14 C12_14 1_555 1_555
H10_13 C13_14 1_555 1_555
C14_14 N3_14 1_555 1_555
N5_11 Co3 1_555 1_555
C2_11 C7_11 1_555 1_555
C6_11 C7_11 1_555 1_555
C9_14 C14_14 1_555 1_555
C13_14 C14_14 1_555 1_555
Co3_2 N1_14 1_555 1_555
N1_14 C1_15 1_555 1_555
C1_15 H1_15 1_555 1_555
H3_12 C4_12 1_555 1_555
C5_12 C4_12 1_555 1_555
H4_12 C5_12 1_555 1_555
C6_12 C5_12 1_555 1_555
H5_12 C6_12 1_555 1_555
C7_12 N1_14 1_555 1_555
N3_15 Co3_2 1_555 1_555
N6 C8_14 1_555 1_555
C8_14 N3_15 1_555 1_555
H6_14 C8_14 1_555 1_555
C9_15 N6 1_555 1_555
C10_15 C9_15 1_555 1_555
H7_13 C10_15 1_555 1_555
C11_15 C10_15 1_555 1_555
H8_15 C11_15 1_555 1_555
C12_15 C11_15 1_555 1_555
H9_15 C12_15 1_555 1_555
C13_15 C12_15 1_555 1_555
H10_14 C13_15 1_555 1_555
C14_15 N3_15 1_555 1_555
N5_12 Co3_2 1_555 1_555
C6_12 C7_12 1_555 1_555
C9_15 C14_15 1_555 1_555
C13_15 C14_15 1_555 1_555
C2_12 N5_7 1_555 1_555
C3_12 C2_12 1_555 1_555
H2_12 C3_12 1_555 1_555
Co3_8 N1_15 1_555 1_555
N1_15 C1_16 1_555 1_555
N5_11 C1_16 1_555 1_555
C1_16 H1_16 1_555 1_555
C2_13 N5_11 1_555 1_555
C3_13 C2_13 1_555 1_555
H2_13 C3_13 1_555 1_555
C4_13 C3_13 1_555 1_555
H3_13 C4_13 1_555 1_555
C5_13 C4_13 1_555 1_555
H4_13 C5_13 1_555 1_555
C6_13 C5_13 1_555 1_555
H5_13 C6_13 1_555 1_555
C7_13 N1_15 1_555 1_555
N3_16 Co3_8 1_555 1_555
C9_16 N6_8 1_555 1_555
C10_16 C9_16 1_555 1_555
C11_16 C10_16 1_555 1_555
H8_16 C11_16 1_555 1_555
C12_16 C11_16 1_555 1_555
H9_16 C12_16 1_555 1_555
C13_16 C12_16 1_555 1_555
H10_15 C13_16 1_555 1_555
C14_16 N3_16 1_555 1_555
C2_13 C7_13 1_555 1_555
C6_13 C7_13 1_555 1_555
C9_16 C14_16 1_555 1_555
C13_16 C14_16 1_555 1_555
H6_15 C8_15 1_555 1_555
N5_12 C1_17 1_555 1_555
C1_17 H1_17 1_555 1_555
C9_17 N6_9 1_555 1_555
C10_17 C9_17 1_555 1_555
C11_17 C10_17 1_555 1_555
H8_17 C11_17 1_555 1_555
C12_17 C11_17 1_555 1_555
H9_17 C12_17 1_555 1_555
C13_17 C12_17 1_555 1_555
C14_17 N3_17 1_555 1_555
C9_17 C14_17 1_555 1_555
C13_17 C14_17 1_555 1_555
Co3_7 N1_16 1_555 1_555
C3_14 C2_14 1_555 1_555
H2_14 C3_14 1_555 1_555
C4_14 C3_14 1_555 1_555
H3_14 C4_14 1_555 1_555
C5_14 C4_14 1_555 1_555
H4_14 C5_14 1_555 1_555
C6_14 C5_14 1_555 1_555
H5_14 C6_14 1_555 1_555
C7_14 N1_16 1_555 1_555
C2_14 C7_14 1_555 1_555
C6_14 C7_14 1_555 1_555
N5_10 C1_18 1_555 1_555
C1_18 H1_18 1_555 1_555
C9_18 N6_7 1_555 1_555
C10_18 C9_18 1_555 1_555
H7_14 C10_18 1_555 1_555
C11_18 C10_18 1_555 1_555
H8_18 C11_18 1_555 1_555
C12_18 C11_18 1_555 1_555
H9_18 C12_18 1_555 1_555
C13_18 C12_18 1_555 1_555
C14_18 N3_18 1_555 1_555
C9_18 C14_18 1_555 1_555
C13_18 C14_18 1_555 1_555
H6_16 C8_16 1_555 1_555
C2_15 N2_5 1_555 1_555
C3_15 C2_15 1_555 1_555
H2_15 C3_15 1_555 1_555
C4_15 C3_15 1_555 1_555
H3_15 C4_15 1_555 1_555
C5_15 C4_15 1_555 1_555
H4_15 C5_15 1_555 1_555
C6_15 C5_15 1_555 1_555
H5_15 C6_15 1_555 1_555
C2_15 C7_15 1_555 1_555
C6_15 C7_15 1_555 1_555
H6_17 C8_17 1_555 1_555
Co3_9 N1_17 1_555 1_555
C3_16 C2_16 1_555 1_555
H2_16 C3_16 1_555 1_555
C4_16 C3_16 1_555 1_555
H3_16 C4_16 1_555 1_555
C5_16 C4_16 1_555 1_555
H4_16 C5_16 1_555 1_555
C6_16 C5_16 1_555 1_555
H5_16 C6_16 1_555 1_555
C7_16 N1_17 1_555 1_555
C2_16 C7_16 1_555 1_555
C6_16 C7_16 1_555 1_555
Co2_3 N1_18 1_555 1_555
C3_17 C2_17 1_555 1_555
H2_17 C3_17 1_555 1_555
C4_17 C3_17 1_555 1_555
H3_17 C4_17 1_555 1_555
C5_17 C4_17 1_555 1_555
H4_17 C5_17 1_555 1_555
C6_17 C5_17 1_555 1_555
H5_17 C6_17 1_555 1_555
C7_17 N1_18 1_555 1_555
C2_17 C7_17 1_555 1_555
C6_17 C7_17 1_555 1_555
C2_18 N2_6 1_555 1_555
C3_18 C2_18 1_555 1_555
H2_18 C3_18 1_555 1_555
C4_18 C3_18 1_555 1_555
H3_18 C4_18 1_555 1_555
C5_18 C4_18 1_555 1_555
H4_18 C5_18 1_555 1_555
C6_18 C5_18 1_555 1_555
H5_18 C6_18 1_555 1_555
C2_18 C7_18 1_555 1_555
C6_18 C7_18 1_555 1_555
H6_18 C8_18 1_555 1_555

#END
