
###############################################################################
#
# This file contains modified crystal structure data generated from the
# MOF subset of the Cambridge Structural Database (CSD) v543 
# hosted by the Cambridge Crystallographic Data Centre (CCDC).
#
# This work is licensed under the Creative Commons
# Attribution-NonCommercial-ShareAlike 4.0 International License.
# To view a copy of this license, visit
# http://creativecommons.org/licenses/by-nc-sa/4.0/
# or send a letter to
# Creative Commons, PO Box 1866, Mountain View, CA 94042, USA.
#
# CIF created using the CSD Python API on 29 September 2022
# The structure has been converted into the P1 space group
# The structure has a 3D framework
# The original CSD entry QOVXIK is in the rhombohedral crystal system
# The framework has been calculated to contain at least 10.0% void space
# The void calculation uses a probe of radius 1.32A, grid spacing 0.4
#
###############################################################################

data_QOVXIK
_chemical_formula_moiety         '(C252 H180 Co18 N72)n'
_symmetry_cell_setting           triclinic
_symmetry_space_group_name_H-M   'P 1'
_symmetry_Int_Tables_number      1
_space_group_name_Hall           'P 1'
loop_
_symmetry_equiv_pos_site_id
_symmetry_equiv_pos_as_xyz
1 x,y,z
_cell_length_a                   21.926(3)
_cell_length_b                   21.926(3)
_cell_length_c                   15.704(4)
_cell_angle_alpha                90
_cell_angle_beta                 90
_cell_angle_gamma                120
_cell_volume                     6538.22
loop_
_atom_site_label
_atom_site_type_symbol
_atom_site_fract_x
_atom_site_fract_y
_atom_site_fract_z
Co1 Co 0.39962(17) 0.05811(16) 0.3218(2)
C1 C 0.3408(5) 0.0274(5) 0.1521(9)
C5 C 0.3838(4) 0.1840(7) 0.3357(6)
C6 C 0.4491(4) 0.1918(5) 0.2314(6)
C7 C 0.4870(5) 0.1818(7) 0.1693(7)
C8 C 0.5250(5) 0.2383(9) 0.1145(6)
C9 C 0.4487(4) 0.2537(5) 0.2390(6)
C10 C 0.4869(5) 0.3084(5) 0.1841(7)
C11 C 0.5247(5) 0.2990(8) 0.1217(7)
N1 N 0.3694(4) 0.0072(5) 0.2125(7)
N2 N 0.4065(5) 0.1478(5) 0.2953(7)
N3 N 0.4060(5) 0.2478(7) 0.3073(7)
H1 H 0.3358 0.0660 0.1558
H4 H 0.3562 0.1670 0.3846
H5 H 0.4886 0.1421 0.1636
H6 H 0.5512 0.2364 0.0707
H7 H 0.4866 0.3522 0.1913
H8 H 0.5498 0.3375 0.0842
Co3 Co 0.39144(16) 0.32516(23) 0.3449(2)
N5 N 0.4915(9) 0.0727(5) 0.3594(7)
N6 N 0.3369(7) 0.0155(4) 0.4171(7)
Co2 Co 0.27522(16) 0.00818(23) 0.9885(2)
C5_2 C 0.7171(4) 0.8507(7) 0.0024(6)
H4_2 H 0.6895 0.8337 0.0513
Co3_2 Co 0.72478(16) 0.99182(23) 0.0115(2)
N5_2 N 0.8249(9) 0.7393(5) 0.0260(7)
N6_2 N 0.6702(7) 0.6822(4) 0.0838(7)
Co1_2 Co 0.73295(17) 0.72478(16) 0.9885(2)
C1_2 C 0.6741(5) 0.6941(5) 0.8188(9)
C2 C 0.6972(4) 0.6143(5) 0.8457(6)
C3 C 0.7178(4) 0.5703(7) 0.8793(8)
C4 C 0.7057(5) 0.5153(6) 0.8314(10)
C6_2 C 0.7824(4) 0.8585(5) 0.8981(6)
C7_2 C 0.8203(5) 0.8485(7) 0.8360(7)
C8_2 C 0.8583(5) 0.9050(9) 0.7812(6)
C9_2 C 0.7820(4) 0.9204(5) 0.9057(6)
C10_2 C 0.8202(5) 0.9751(5) 0.8508(7)
C11_2 C 0.8580(5) 0.9657(8) 0.7884(7)
C12 C 0.6658(4) 0.6025(5) 0.7665(6)
C13 C 0.6534(4) 0.5458(6) 0.7172(7)
C14 C 0.6743(5) 0.5024(5) 0.7521(10)
N1_2 N 0.7027(4) 0.6739(5) 0.8792(7)
N2_2 N 0.7398(5) 0.8145(5) 0.9620(7)
N3_2 N 0.7393(5) 0.9145(7) 0.9740(7)
N4 N 0.6511(4) 0.6547(6) 0.7505(7)
H1_2 H 0.6691 0.7327 0.8225
H2 H 0.7368 0.5770 0.9330
H3 H 0.7186 0.4832 0.8531
H5_2 H 0.8219 0.8088 0.8303
H6_2 H 0.8845 0.9031 0.7374
H9 H 0.6346 0.5368 0.6615
H10 H 0.6691 0.4625 0.7212
Co2_2 Co 0.60856(16) 0.67484(23) 0.6551(2)
Co1_3 Co 0.06629(17) 0.39144(16) 0.6551(2)
C1_3 C 0.0075(5) 0.3607(5) 0.4854(9)
C2_2 C 0.0306(4) 0.2809(5) 0.5123(6)
C3_2 C 0.0512(4) 0.2369(7) 0.5459(8)
C4_2 C 0.0391(5) 0.1819(6) 0.4980(10)
C5_3 C 0.0505(4) 0.5173(7) 0.6690(6)
C6_3 C 0.1158(4) 0.5251(5) 0.5647(6)
C7_3 C 0.1537(5) 0.5151(7) 0.5026(7)
C8_3 C 0.1917(5) 0.5716(9) 0.4478(6)
C9_3 C 0.1154(4) 0.5870(5) 0.5723(6)
C10_3 C 0.1536(5) 0.6417(5) 0.5174(7)
C11_3 C 0.1914(5) 0.6323(8) 0.4550(7)
C14_2 C 0.0077(5) 0.1690(5) 0.4187(10)
N1_3 N 0.0361(4) 0.3405(5) 0.5458(7)
N2_3 N 0.0732(5) 0.4811(5) 0.6286(7)
N3_3 N 0.0727(5) 0.5811(7) 0.6406(7)
H1_3 H 0.0025 0.3993 0.4891
H2_2 H 0.0702 0.2436 0.5996
H3_2 H 0.0520 0.1498 0.5197
H4_3 H 0.0229 0.5003 0.7179
H5_3 H 0.1553 0.4754 0.4969
H6_3 H 0.2179 0.5697 0.4040
H7_2 H 0.1533 0.6855 0.5246
H8_2 H 0.2165 0.6708 0.4175
H10_2 H 0.0025 0.1291 0.3878
Co3_3 Co 0.05811(16) 0.65849(23) 0.6782(2)
N5_3 N 0.1582(9) 0.4060(5) 0.6927(7)
N6_3 N 0.0035(7) 0.3489(4) 0.7505(7)
C12_2 C 0.9992(4) 0.2691(5) 0.4331(6)
C13_2 C 0.9868(4) 0.2124(6) 0.3838(7)
N4_2 N 0.9845(4) 0.3213(6) 0.4171(7)
H9_2 H 0.9680 0.2034 0.3281
Co2_3 Co 0.94189(16) 0.34151(23) 0.3218(2)
C2_3 C 0.0524(5) 0.4163(6) 0.1790(6)
C3_3 C 0.0964(7) 0.4809(8) 0.2126(8)
C4_3 C 0.1514(6) 0.5238(8) 0.1647(10)
C12_3 C 0.0642(5) 0.3967(6) 0.0998(6)
C13_3 C 0.1209(6) 0.4410(7) 0.0505(7)
C14_3 C 0.1643(5) 0.5053(7) 0.0854(10)
N4_3 N 0.0120(6) 0.3298(7) 0.0838(7)
H2_3 H 0.0897 0.4932 0.2663
H3_3 H 0.1835 0.5688 0.1864
H10_3 H 0.2042 0.5400 0.0545
C1_4 C 0.9726(5) 0.3134(7) 0.1521(9)
C5_4 C 0.8160(7) 0.1998(8) 0.3357(6)
C6_4 C 0.8082(5) 0.2573(6) 0.2314(6)
C7_4 C 0.8182(7) 0.3052(9) 0.1693(7)
C8_4 C 0.7617(9) 0.2867(10) 0.1145(6)
C9_4 C 0.7463(5) 0.1950(6) 0.2390(6)
C10_4 C 0.6916(5) 0.1785(7) 0.1841(7)
C11_4 C 0.7010(8) 0.2257(9) 0.1217(7)
N1_4 N 0.9928(5) 0.3622(6) 0.2125(7)
N2_4 N 0.8522(5) 0.2587(7) 0.2953(7)
N3_4 N 0.7522(7) 0.1582(9) 0.3073(7)
H1_4 H 0.9340 0.2698 0.1558
H4_4 H 0.8330 0.1892 0.3846
H5_4 H 0.8579 0.3465 0.1636
H6_4 H 0.7636 0.3148 0.0707
H7_3 H 0.6478 0.1344 0.1913
H8_3 H 0.6625 0.2123 0.0842
Co3_4 Co 0.67484(23) 0.06629(28) 0.3449(2)
N5_4 N 0.9273(5) 0.4189(10) 0.3594(7)
N5_5 N 0.2607(5) 0.0855(10) 0.0260(7)
C2_4 C 0.3857(5) 0.0830(6) 0.8457(6)
C3_4 C 0.4297(7) 0.1476(8) 0.8793(8)
C4_4 C 0.4847(6) 0.1905(8) 0.8314(10)
C12_4 C 0.3975(5) 0.0634(6) 0.7665(6)
C13_4 C 0.4542(6) 0.1077(7) 0.7172(7)
C14_4 C 0.4976(5) 0.1720(7) 0.7521(10)
N1_5 N 0.3261(5) 0.0289(6) 0.8792(7)
H2_4 H 0.4230 0.1599 0.9330
H3_4 H 0.5168 0.2355 0.8531
H5_5 H 0.1912 0.0132 0.8303
H9_3 H 0.4632 0.0979 0.6615
H10_4 H 0.5375 0.2067 0.7212
C1_5 C 0.3059(5) 0.9801(7) 0.8188(9)
C6_5 C 0.1415(5) 0.9240(6) 0.8981(6)
C7_5 C 0.1515(7) 0.9719(9) 0.8360(7)
C8_5 C 0.0950(9) 0.9534(10) 0.7812(6)
C9_5 C 0.0796(5) 0.8617(6) 0.9057(6)
C10_5 C 0.0249(5) 0.8452(7) 0.8508(7)
C11_5 C 0.0343(8) 0.8924(9) 0.7884(7)
N2_5 N 0.1855(5) 0.9254(7) 0.9620(7)
N3_5 N 0.0855(7) 0.8249(9) 0.9740(7)
N4_4 N 0.3453(6) 0.9965(7) 0.7505(7)
H1_5 H 0.2673 0.9365 0.8225
H6_5 H 0.0969 0.9815 0.7374
Co2_4 Co 0.32516(23) 0.93371(28) 0.6551(2)
C1_6 C 0.6393(5) 0.6467(7) 0.4854(9)
C2_5 C 0.7191(5) 0.7496(6) 0.5123(6)
C3_5 C 0.7631(7) 0.8142(8) 0.5459(8)
C4_5 C 0.8181(6) 0.8571(8) 0.4980(10)
C5_5 C 0.4827(7) 0.5331(8) 0.6690(6)
C6_6 C 0.4749(5) 0.5906(6) 0.5647(6)
C7_6 C 0.4849(7) 0.6385(9) 0.5026(7)
C8_6 C 0.4284(9) 0.6200(10) 0.4478(6)
C9_6 C 0.4130(5) 0.5283(6) 0.5723(6)
C10_6 C 0.3583(5) 0.5118(7) 0.5174(7)
C11_6 C 0.3677(8) 0.5590(9) 0.4550(7)
C12_5 C 0.7309(5) 0.7300(6) 0.4331(6)
C13_5 C 0.7876(6) 0.7743(7) 0.3838(7)
C14_5 C 0.8310(5) 0.8386(7) 0.4187(10)
N1_6 N 0.6595(5) 0.6955(6) 0.5458(7)
N2_6 N 0.5189(5) 0.5920(7) 0.6286(7)
N3_6 N 0.4189(7) 0.4915(9) 0.6406(7)
N4_5 N 0.6787(6) 0.6631(7) 0.4171(7)
H1_6 H 0.6007 0.6031 0.4891
H2_5 H 0.7564 0.8265 0.5996
H3_5 H 0.8502 0.9021 0.5197
H4_5 H 0.4997 0.5225 0.7179
H5_6 H 0.5246 0.6798 0.4969
H6_6 H 0.4303 0.6481 0.4040
H7_4 H 0.3145 0.4677 0.5246
H8_4 H 0.3292 0.5456 0.4175
H9_4 H 0.7966 0.7645 0.3281
H10_5 H 0.8709 0.8733 0.3878
Co2_5 Co 0.65849(23) 0.60038(28) 0.3218(2)
Co3_5 Co 0.34151(23) 0.39962(28) 0.6782(2)
N5_6 N 0.5940(5) 0.7522(10) 0.6927(7)
C1_7 C 0.6866(7) 0.6592(5) 0.1521(9)
C2_6 C 0.5837(6) 0.6361(4) 0.1790(6)
C3_6 C 0.5191(8) 0.6155(4) 0.2126(8)
C4_6 C 0.4762(8) 0.6276(5) 0.1647(10)
C5_6 C 0.8002(8) 0.6162(4) 0.3357(6)
C6_7 C 0.7427(6) 0.5509(4) 0.2314(6)
C7_7 C 0.6948(9) 0.5130(5) 0.1693(7)
C8_7 C 0.7133(10) 0.4750(5) 0.1145(6)
C9_7 C 0.8050(6) 0.5513(4) 0.2390(6)
C10_7 C 0.8215(7) 0.5131(5) 0.1841(7)
C11_7 C 0.7743(9) 0.4753(5) 0.1217(7)
C12_6 C 0.6033(6) 0.6675(4) 0.0998(6)
C13_6 C 0.5590(7) 0.6799(4) 0.0505(7)
C14_6 C 0.4947(7) 0.6590(5) 0.0854(10)
N1_7 N 0.6378(6) 0.6306(4) 0.2125(7)
N2_7 N 0.7413(7) 0.5935(5) 0.2953(7)
N3_7 N 0.8418(9) 0.5940(5) 0.3073(7)
H1_7 H 0.7302 0.6642 0.1558
H2_6 H 0.5068 0.5965 0.2663
H3_6 H 0.4312 0.6147 0.1864
H4_6 H 0.8108 0.6438 0.3846
H5_7 H 0.6535 0.5114 0.1636
H6_7 H 0.6852 0.4488 0.0707
H7_5 H 0.8656 0.5134 0.1913
H8_5 H 0.7877 0.4502 0.0842
H10_6 H 0.4600 0.6642 0.0545
Co3_6 Co 0.93371(28) 0.60856(16) 0.3449(2)
N5_7 N 0.5811(10) 0.5085(9) 0.3594(7)
H9_5 H 0.5688 0.6987 0.9948
C5_7 C 0.1335(8) 0.2829(4) 0.0024(6)
H4_7 H 0.1441 0.3105 0.0513
Co3_7 Co 0.26705(28) 0.27522(16) 0.0115(2)
C1_8 C 0.0199(7) 0.3259(5) 0.8188(9)
C6_8 C 0.0760(6) 0.2176(4) 0.8981(6)
C7_8 C 0.0281(9) 0.1797(5) 0.8360(7)
C8_8 C 0.0466(10) 0.1417(5) 0.7812(6)
C9_8 C 0.1383(6) 0.2180(4) 0.9057(6)
C10_8 C 0.1548(7) 0.1798(5) 0.8508(7)
C11_8 C 0.1076(9) 0.1420(5) 0.7884(7)
N2_8 N 0.0746(7) 0.2602(5) 0.9620(7)
N3_8 N 0.1751(9) 0.2607(5) 0.9740(7)
H1_8 H 0.0635 0.3309 0.8225
H6_8 H 0.0185 0.1155 0.7374
H7_6 H 0.1989 0.1801 0.8580
H8_6 H 0.1210 0.1169 0.7509
N5_8 N 0.9145(10) 0.1751(9) 0.0260(7)
C12_7 C 0.2700(6) 0.0008(4) 0.4331(6)
C13_7 C 0.2257(7) 0.0132(4) 0.3838(7)
H9_6 H 0.2355 0.0320 0.3281
C1_9 C 0.3533(7) 0.9925(5) 0.4854(9)
C2_7 C 0.2504(6) 0.9694(4) 0.5123(6)
C3_7 C 0.1858(8) 0.9488(4) 0.5459(8)
C4_7 C 0.1429(8) 0.9609(5) 0.4980(10)
C5_8 C 0.4669(8) 0.9495(4) 0.6690(6)
C6_9 C 0.4094(6) 0.8842(4) 0.5647(6)
C7_9 C 0.3615(9) 0.8463(5) 0.5026(7)
C8_9 C 0.3800(10) 0.8083(5) 0.4478(6)
C9_9 C 0.4717(6) 0.8846(4) 0.5723(6)
C10_9 C 0.4882(7) 0.8464(5) 0.5174(7)
C11_9 C 0.4410(9) 0.8086(5) 0.4550(7)
C14_7 C 0.1614(7) 0.9923(5) 0.4187(10)
N1_8 N 0.3045(6) 0.9639(4) 0.5458(7)
N2_9 N 0.4080(7) 0.9268(5) 0.6286(7)
N3_9 N 0.5085(9) 0.9273(5) 0.6406(7)
H1_9 H 0.3969 0.9975 0.4891
H2_7 H 0.1735 0.9298 0.5996
H3_7 H 0.0979 0.9480 0.5197
H4_8 H 0.4775 0.9771 0.7179
H5_8 H 0.3202 0.8447 0.4969
H6_9 H 0.3519 0.7821 0.4040
H7_7 H 0.5323 0.8467 0.5246
H8_7 H 0.4544 0.7835 0.4175
H10_7 H 0.1267 0.9975 0.3878
Co3_8 Co 0.60038(28) 0.94189(16) 0.6782(2)
N5_9 N 0.2478(10) 0.8418(9) 0.6927(7)
C1_10 C 0.6592(5) 0.9726(5) 0.8479(9)
C5_9 C 0.6162(4) 0.8160(7) 0.6643(6)
C6_10 C 0.5509(4) 0.8082(5) 0.7686(6)
C7_10 C 0.5130(5) 0.8182(7) 0.8307(7)
C8_10 C 0.4750(5) 0.7617(9) 0.8855(6)
C9_10 C 0.5513(4) 0.7463(5) 0.7610(6)
C10_10 C 0.5131(5) 0.6916(5) 0.8159(7)
C11_10 C 0.4753(5) 0.7010(8) 0.8783(7)
N1_9 N 0.6306(4) 0.9928(5) 0.7875(7)
N2_10 N 0.5935(5) 0.8522(5) 0.7047(7)
H1_10 H 0.6642 0.9340 0.8442
H4_9 H 0.6438 0.8330 0.6154
H5_9 H 0.5114 0.8579 0.8364
H6_10 H 0.4488 0.7636 0.9293
H7_8 H 0.5134 0.6478 0.8087
H8_8 H 0.4502 0.6625 0.9158
N6_4 N 0.6631(7) 0.9845(4) 0.5829(7)
C1_11 C 0.3259(5) 0.3059(5) 0.1812(9)
C2_8 C 0.3028(4) 0.3857(5) 0.1543(6)
C3_8 C 0.2822(4) 0.4297(7) 0.1207(8)
C4_8 C 0.2943(5) 0.4847(6) 0.1686(10)
C6_11 C 0.2176(4) 0.1415(5) 0.1019(6)
C7_11 C 0.1797(5) 0.1515(7) 0.1640(7)
C8_11 C 0.1417(5) 0.0950(9) 0.2188(6)
C9_11 C 0.2180(4) 0.0796(5) 0.0943(6)
C10_11 C 0.1798(5) 0.0249(5) 0.1492(7)
C11_11 C 0.1420(5) 0.0343(8) 0.2116(7)
C12_8 C 0.3342(4) 0.3975(5) 0.2335(6)
C13_8 C 0.3466(4) 0.4542(6) 0.2828(7)
C14_8 C 0.3257(5) 0.4976(5) 0.2479(10)
N1_10 N 0.2973(4) 0.3261(5) 0.1208(7)
N2_11 N 0.2602(5) 0.1855(5) 0.0380(7)
N4_6 N 0.3489(4) 0.3453(6) 0.2495(7)
H1_11 H 0.3309 0.2673 0.1775
H2_8 H 0.2632 0.4230 0.0670
H3_8 H 0.2814 0.5168 0.1469
H5_10 H 0.1781 0.1912 0.1697
H6_11 H 0.1155 0.0969 0.2626
H9_7 H 0.3654 0.4632 0.3385
H10_8 H 0.3309 0.5375 0.2788
C5_10 C 0.2829(4) 0.1493(7) 0.9976(6)
H4_10 H 0.3105 0.1663 0.9487
N6_5 N 0.3298(7) 0.3178(4) 0.9162(7)
C12_9 C 0.0008(4) 0.7309(5) 0.5669(6)
C13_9 C 0.0132(4) 0.7876(6) 0.6162(7)
N4_7 N 0.0155(4) 0.6787(6) 0.5829(7)
H9_8 H 0.0320 0.7966 0.6719
C1_12 C 0.9925(5) 0.6393(5) 0.5146(9)
C2_9 C 0.9694(4) 0.7191(5) 0.4877(6)
C3_9 C 0.9488(4) 0.7631(7) 0.4541(8)
C4_9 C 0.9609(5) 0.8181(6) 0.5020(10)
C5_11 C 0.9495(4) 0.4827(7) 0.3310(6)
C6_12 C 0.8842(4) 0.4749(5) 0.4353(6)
C7_12 C 0.8463(5) 0.4849(7) 0.4974(7)
C8_12 C 0.8083(5) 0.4284(9) 0.5522(6)
C9_12 C 0.8846(4) 0.4130(5) 0.4277(6)
C10_12 C 0.8464(5) 0.3583(5) 0.4826(7)
C11_12 C 0.8086(5) 0.3677(8) 0.5450(7)
C14_9 C 0.9923(5) 0.8310(5) 0.5813(10)
N1_11 N 0.9639(4) 0.6595(5) 0.4542(7)
N2_12 N 0.9268(5) 0.5189(5) 0.3714(7)
H1_12 H 0.9975 0.6007 0.5109
H2_9 H 0.9298 0.7564 0.4004
H3_9 H 0.9480 0.8502 0.4803
H4_11 H 0.9771 0.4997 0.2821
H5_11 H 0.8447 0.5246 0.5031
H6_12 H 0.7821 0.4303 0.5960
H7_9 H 0.8467 0.3145 0.4754
H8_9 H 0.7835 0.3292 0.5825
H10_9 H 0.9975 0.8709 0.6122
N6_6 N 0.9965(7) 0.6511(4) 0.2495(7)
C1_13 C 0.0274(5) 0.6866(7) 0.8479(9)
C5_12 C 0.1840(7) 0.8002(8) 0.6643(6)
C6_13 C 0.1918(5) 0.7427(6) 0.7686(6)
C7_13 C 0.1818(7) 0.6948(9) 0.8307(7)
C8_13 C 0.2383(9) 0.7133(10) 0.8855(6)
C9_13 C 0.2537(5) 0.8050(6) 0.7610(6)
C10_13 C 0.3084(5) 0.8215(7) 0.8159(7)
C11_13 C 0.2990(8) 0.7743(9) 0.8783(7)
N1_12 N 0.0072(5) 0.6378(6) 0.7875(7)
N2_13 N 0.1478(5) 0.7413(7) 0.7047(7)
H1_13 H 0.0660 0.7302 0.8442
H4_12 H 0.1670 0.8108 0.6154
H5_12 H 0.1421 0.6535 0.8364
H6_13 H 0.2364 0.6852 0.9293
H7_10 H 0.3522 0.8656 0.8087
H8_10 H 0.3375 0.7877 0.9158
C2_10 C 0.9476(5) 0.5837(6) 0.8210(6)
C3_10 C 0.9036(7) 0.5191(8) 0.7874(8)
C4_10 C 0.8486(6) 0.4762(8) 0.8353(10)
C12_10 C 0.9358(5) 0.6033(6) 0.9002(6)
C13_10 C 0.8791(6) 0.5590(7) 0.9495(7)
C14_10 C 0.8357(5) 0.4947(7) 0.9146(10)
N4_8 N 0.9880(6) 0.6702(7) 0.9162(7)
H2_10 H 0.9103 0.5068 0.7337
H3_10 H 0.8165 0.4312 0.8136
H10_10 H 0.7958 0.4600 0.9455
C1_14 C 0.6941(5) 0.0199(7) 0.1812(9)
C6_14 C 0.8585(5) 0.0760(6) 0.1019(6)
C7_14 C 0.8485(7) 0.0281(9) 0.1640(7)
C8_14 C 0.9050(9) 0.0466(10) 0.2188(6)
C9_14 C 0.9204(5) 0.1383(6) 0.0943(6)
C10_14 C 0.9751(5) 0.1548(7) 0.1492(7)
C11_14 C 0.9657(8) 0.1076(9) 0.2116(7)
N2_14 N 0.8145(5) 0.0746(7) 0.0380(7)
N4_9 N 0.6547(6) 0.0035(7) 0.2495(7)
H1_14 H 0.7327 0.0635 0.1775
H6_14 H 0.9031 0.0185 0.2626
C2_11 C 0.6143(5) 0.9170(6) 0.1543(6)
C3_11 C 0.5703(7) 0.8524(8) 0.1207(8)
C4_11 C 0.5153(6) 0.8095(8) 0.1686(10)
C12_11 C 0.6025(5) 0.9366(6) 0.2335(6)
C13_11 C 0.5458(6) 0.8923(7) 0.2828(7)
C14_11 C 0.5024(5) 0.8280(7) 0.2479(10)
N1_13 N 0.6739(5) 0.9711(6) 0.1208(7)
H2_11 H 0.5770 0.8401 0.0670
H3_11 H 0.4832 0.7645 0.1469
H5_13 H 0.8088 0.9868 0.1697
H9_9 H 0.5368 0.9021 0.3385
H10_11 H 0.4625 0.7933 0.2788
C1_15 C 0.3607(5) 0.3533(7) 0.5146(9)
C2_12 C 0.2809(5) 0.2504(6) 0.4877(6)
C3_12 C 0.2369(7) 0.1858(8) 0.4541(8)
C4_12 C 0.1819(6) 0.1429(8) 0.5020(10)
C5_13 C 0.5173(7) 0.4669(8) 0.3310(6)
C6_15 C 0.5251(5) 0.4094(6) 0.4353(6)
C7_15 C 0.5151(7) 0.3615(9) 0.4974(7)
C8_15 C 0.5716(9) 0.3800(10) 0.5522(6)
C9_15 C 0.5870(5) 0.4717(6) 0.4277(6)
C10_15 C 0.6417(5) 0.4882(7) 0.4826(7)
C11_15 C 0.6323(8) 0.4410(9) 0.5450(7)
C12_12 C 0.2691(5) 0.2700(6) 0.5669(6)
C13_12 C 0.2124(6) 0.2257(7) 0.6162(7)
C14_12 C 0.1690(5) 0.1614(7) 0.5813(10)
N1_14 N 0.3405(5) 0.3045(6) 0.4542(7)
N2_15 N 0.4811(5) 0.4080(7) 0.3714(7)
N4_10 N 0.3213(6) 0.3369(7) 0.5829(7)
H1_15 H 0.3993 0.3969 0.5109
H2_12 H 0.2436 0.1735 0.4004
H3_12 H 0.1498 0.0979 0.4803
H4_13 H 0.5003 0.4775 0.2821
H5_14 H 0.4754 0.3202 0.5031
H6_15 H 0.5697 0.3519 0.5960
H7_11 H 0.6855 0.5323 0.4754
H8_11 H 0.6708 0.4544 0.5825
H9_10 H 0.2034 0.2355 0.6719
H10_12 H 0.1291 0.1267 0.6122
H9_11 H 0.4312 0.3013 0.0052
C1_16 C 0.3134(7) 0.3408(5) 0.8479(9)
C2_13 C 0.4163(6) 0.3639(4) 0.8210(6)
C3_13 C 0.4809(8) 0.3845(4) 0.7874(8)
C4_13 C 0.5238(8) 0.3724(5) 0.8353(10)
C5_14 C 0.1998(8) 0.3838(4) 0.6643(6)
C6_16 C 0.2573(6) 0.4491(4) 0.7686(6)
C7_16 C 0.3052(9) 0.4870(5) 0.8307(7)
C8_16 C 0.2867(10) 0.5250(5) 0.8855(6)
C9_16 C 0.1950(6) 0.4487(4) 0.7610(6)
C10_16 C 0.1785(7) 0.4869(5) 0.8159(7)
C11_16 C 0.2257(9) 0.5247(5) 0.8783(7)
C12_13 C 0.3967(6) 0.3325(4) 0.9002(6)
C13_13 C 0.4410(7) 0.3201(4) 0.9495(7)
C14_13 C 0.5053(7) 0.3410(5) 0.9146(10)
N1_15 N 0.3622(6) 0.3694(4) 0.7875(7)
N2_16 N 0.2587(7) 0.4065(5) 0.7047(7)
H1_16 H 0.2698 0.3358 0.8442
H2_13 H 0.4932 0.4035 0.7337
H3_13 H 0.5688 0.3853 0.8136
H4_14 H 0.1892 0.3562 0.6154
H5_15 H 0.3465 0.4886 0.8364
H6_16 H 0.3148 0.5512 0.9293
H7_12 H 0.1344 0.4866 0.8087
H8_12 H 0.2123 0.5498 0.9158
H10_13 H 0.5400 0.3358 0.9455
C1_17 C 0.9801(7) 0.6741(5) 0.1812(9)
C6_17 C 0.9240(6) 0.7824(4) 0.1019(6)
C7_17 C 0.9719(9) 0.8203(5) 0.1640(7)
C8_17 C 0.9534(10) 0.8583(5) 0.2188(6)
C9_17 C 0.8617(6) 0.7820(4) 0.0943(6)
C10_17 C 0.8452(7) 0.8202(5) 0.1492(7)
C11_17 C 0.8924(9) 0.8580(5) 0.2116(7)
N2_17 N 0.9254(7) 0.7398(5) 0.0380(7)
H1_17 H 0.9365 0.6691 0.1775
H6_17 H 0.9815 0.8845 0.2626
H7_13 H 0.8011 0.8199 0.1420
H8_13 H 0.8790 0.8831 0.2491
C5_15 C 0.8665(8) 0.7171(4) 0.9976(6)
H4_15 H 0.8559 0.6895 0.9487
C1_18 C 0.6467(7) 0.0075(5) 0.5146(9)
C2_14 C 0.7496(6) 0.0306(4) 0.4877(6)
C3_14 C 0.8142(8) 0.0512(4) 0.4541(8)
C4_14 C 0.8571(8) 0.0391(5) 0.5020(10)
C5_16 C 0.5331(8) 0.0505(4) 0.3310(6)
C6_18 C 0.5906(6) 0.1158(4) 0.4353(6)
C7_18 C 0.6385(9) 0.1537(5) 0.4974(7)
C8_18 C 0.6200(10) 0.1917(5) 0.5522(6)
C9_18 C 0.5283(6) 0.1154(4) 0.4277(6)
C10_18 C 0.5118(7) 0.1536(5) 0.4826(7)
C11_18 C 0.5590(9) 0.1914(5) 0.5450(7)
C14_14 C 0.8386(7) 0.0077(5) 0.5813(10)
N1_16 N 0.6955(6) 0.0361(4) 0.4542(7)
N2_18 N 0.5920(7) 0.0732(5) 0.3714(7)
H1_18 H 0.6031 0.0025 0.5109
H2_14 H 0.8265 0.0702 0.4004
H3_14 H 0.9021 0.0520 0.4803
H4_16 H 0.5225 0.0229 0.2821
H5_16 H 0.6798 0.1553 0.5031
H6_18 H 0.6481 0.2179 0.5960
H7_14 H 0.4677 0.1533 0.4754
H8_14 H 0.5456 0.2165 0.5825
H10_14 H 0.8733 0.0025 0.6122
C12_14 C 0.7300(6) 0.9992(4) 0.5669(6)
C13_14 C 0.7743(7) 0.9868(4) 0.6162(7)
H9_12 H 0.7645 0.9680 0.6719
C2_15 C 0.3639(4) 0.9476(5) 0.1790(6)
C3_15 C 0.3845(4) 0.9036(7) 0.2126(8)
C4_15 C 0.3724(5) 0.8486(6) 0.1647(10)
C12_15 C 0.3325(4) 0.9358(5) 0.0998(6)
C13_15 C 0.3201(4) 0.8791(6) 0.0505(7)
C14_15 C 0.3410(5) 0.8357(5) 0.0854(10)
N4_11 N 0.3178(4) 0.9880(6) 0.0838(7)
H2_15 H 0.4035 0.9103 0.2663
H3_15 H 0.3853 0.8165 0.1864
H10_15 H 0.3358 0.7958 0.0545
C5_17 C 0.1493(7) 0.8665(8) 0.0024(6)
H4_17 H 0.1663 0.8559 0.0513
Co3_9 Co 0.00818(23) 0.73295(28) 0.0115(2)
C2_16 C 0.0830(6) 0.6972(4) 0.1543(6)
C3_16 C 0.1476(8) 0.7178(4) 0.1207(8)
C4_16 C 0.1905(8) 0.7057(5) 0.1686(10)
C12_16 C 0.0634(6) 0.6658(4) 0.2335(6)
C13_16 C 0.1077(7) 0.6534(4) 0.2828(7)
C14_16 C 0.1720(7) 0.6743(5) 0.2479(10)
N1_17 N 0.0289(6) 0.7027(4) 0.1208(7)
H2_16 H 0.1599 0.7368 0.0670
H3_16 H 0.2355 0.7186 0.1469
H5_17 H 0.0132 0.8219 0.1697
H9_13 H 0.0979 0.6346 0.3385
H10_16 H 0.2067 0.6691 0.2788
H9_14 H 0.3013 0.8701 0.9948
H7_15 H 0.8199 0.0189 0.8580
H8_15 H 0.8831 0.0042 0.7509
H9_15 H 0.1299 0.4312 0.9948
Co2_6 Co 0.99182(23) 0.26705(28) 0.9885(2)
C2_17 C 0.9170(6) 0.3028(4) 0.8457(6)
C3_17 C 0.8524(8) 0.2822(4) 0.8793(8)
C4_17 C 0.8095(8) 0.2943(5) 0.8314(10)
C12_17 C 0.9366(6) 0.3342(4) 0.7665(6)
C13_17 C 0.8923(7) 0.3466(4) 0.7172(7)
C14_17 C 0.8280(7) 0.3257(5) 0.7521(10)
N1_18 N 0.9711(6) 0.2973(4) 0.8792(7)
H2_17 H 0.8401 0.2632 0.9330
H3_17 H 0.7645 0.2814 0.8531
H5_18 H 0.9868 0.1781 0.8303
H9_16 H 0.9021 0.3654 0.6615
H10_17 H 0.7933 0.3309 0.7212
C2_18 C 0.6361(4) 0.0524(5) 0.8210(6)
C3_18 C 0.6155(4) 0.0964(7) 0.7874(8)
C4_18 C 0.6276(5) 0.1514(6) 0.8353(10)
C12_18 C 0.6675(4) 0.0642(5) 0.9002(6)
C13_18 C 0.6799(4) 0.1209(6) 0.9495(7)
C14_18 C 0.6590(5) 0.1643(5) 0.9146(10)
N4_12 N 0.6822(4) 0.0120(6) 0.9162(7)
H2_18 H 0.5965 0.0897 0.7337
H3_18 H 0.6147 0.1835 0.8136
H10_18 H 0.6642 0.2042 0.9455
C5_18 C 0.8507(7) 0.1335(8) 0.9976(6)
H4_18 H 0.8337 0.1441 0.9487
H7_16 H 0.9811 0.8011 0.8580
H8_16 H 0.9958 0.8790 0.7509
H9_17 H 0.6987 0.1299 0.0052
H7_17 H 0.1801 0.9811 0.1420
H8_17 H 0.1169 0.9958 0.2491
H9_18 H 0.8701 0.5688 0.0052
H7_18 H 0.0189 0.1989 0.1420
H8_18 H 0.0042 0.1210 0.2491
loop_
_geom_bond_atom_site_label_1
_geom_bond_atom_site_label_2
_geom_bond_site_symmetry_1
_geom_bond_site_symmetry_2
Co1 N1 1_555 1_555
C1 N1 1_555 1_555
C5 N2 1_555 1_555
C6 C7 1_555 1_555
C7 C8 1_555 1_555
C8 C11 1_555 1_555
C9 C6 1_555 1_555
C10 C9 1_555 1_555
C11 C10 1_555 1_555
N2 Co1 1_555 1_555
N3 C5 1_555 1_555
H1 C1 1_555 1_555
H4 C5 1_555 1_555
H5 C7 1_555 1_555
H6 C8 1_555 1_555
H7 C10 1_555 1_555
H8 C11 1_555 1_555
Co3 N3 1_555 1_555
N5 Co1 1_555 1_555
N6 Co1 1_555 1_555
C6 N2 1_555 1_555
C9 N3 1_555 1_555
H4_2 C5_2 1_555 1_555
Co1_2 N1_2 1_555 1_555
C1_2 N1_2 1_555 1_555
C2 C3 1_555 1_555
C3 C4 1_555 1_555
C4 C14 1_555 1_555
C6_2 C7_2 1_555 1_555
C7_2 C8_2 1_555 1_555
C8_2 C11_2 1_555 1_555
C9_2 C6_2 1_555 1_555
C10_2 C9_2 1_555 1_555
C11_2 C10_2 1_555 1_555
C12 C2 1_555 1_555
C13 C12 1_555 1_555
C14 C13 1_555 1_555
N1_2 C2 1_555 1_555
N2_2 Co1_2 1_555 1_555
N4 C1_2 1_555 1_555
H1_2 C1_2 1_555 1_555
H2 C3 1_555 1_555
H3 C4 1_555 1_555
H5_2 C7_2 1_555 1_555
H6_2 C8_2 1_555 1_555
H9 C13 1_555 1_555
H10 C14 1_555 1_555
Co2_2 N4 1_555 1_555
C6_2 N2_2 1_555 1_555
C9_2 N3_2 1_555 1_555
C12 N4 1_555 1_555
Co1_3 N1_3 1_555 1_555
C1_3 N1_3 1_555 1_555
C2_2 C3_2 1_555 1_555
C3_2 C4_2 1_555 1_555
C4_2 C14_2 1_555 1_555
C5_3 N2_3 1_555 1_555
C6_3 C7_3 1_555 1_555
C7_3 C8_3 1_555 1_555
C8_3 C11_3 1_555 1_555
C9_3 C6_3 1_555 1_555
C10_3 C9_3 1_555 1_555
C11_3 C10_3 1_555 1_555
N1_3 C2_2 1_555 1_555
N2_3 Co1_3 1_555 1_555
N3_3 C5_3 1_555 1_555
H1_3 C1_3 1_555 1_555
H2_2 C3_2 1_555 1_555
H3_2 C4_2 1_555 1_555
H4_3 C5_3 1_555 1_555
H5_3 C7_3 1_555 1_555
H6_3 C8_3 1_555 1_555
H7_2 C10_3 1_555 1_555
H8_2 C11_3 1_555 1_555
H10_2 C14_2 1_555 1_555
Co3_3 N3_3 1_555 1_555
N5_3 Co1_3 1_555 1_555
N6_3 Co1_3 1_555 1_555
C6_3 N2_3 1_555 1_555
C9_3 N3_3 1_555 1_555
C13_2 C12_2 1_555 1_555
H9_2 C13_2 1_555 1_555
Co2_3 N4_2 1_555 1_555
C12_2 N4_2 1_555 1_555
C2_3 C3_3 1_555 1_555
C3_3 C4_3 1_555 1_555
C4_3 C14_3 1_555 1_555
C12_3 C2_3 1_555 1_555
C13_3 C12_3 1_555 1_555
C14_3 C13_3 1_555 1_555
H2_3 C3_3 1_555 1_555
H3_3 C4_3 1_555 1_555
H10_3 C14_3 1_555 1_555
C12_3 N4_3 1_555 1_555
Co2_3 N1_4 1_555 1_555
C1_4 N1_4 1_555 1_555
C5_4 N2_4 1_555 1_555
C6_4 C7_4 1_555 1_555
C7_4 C8_4 1_555 1_555
C8_4 C11_4 1_555 1_555
C9_4 C6_4 1_555 1_555
C10_4 C9_4 1_555 1_555
C11_4 C10_4 1_555 1_555
N2_4 Co2_3 1_555 1_555
N3_4 C5_4 1_555 1_555
H1_4 C1_4 1_555 1_555
H4_4 C5_4 1_555 1_555
H5_4 C7_4 1_555 1_555
H6_4 C8_4 1_555 1_555
H7_3 C10_4 1_555 1_555
H8_3 C11_4 1_555 1_555
Co3_4 N3_4 1_555 1_555
N5_4 Co2_3 1_555 1_555
C6_4 N2_4 1_555 1_555
C9_4 N3_4 1_555 1_555
Co2 N1_5 1_555 1_555
C2_4 C3_4 1_555 1_555
C3_4 C4_4 1_555 1_555
C4_4 C14_4 1_555 1_555
C12_4 C2_4 1_555 1_555
C13_4 C12_4 1_555 1_555
C14_4 C13_4 1_555 1_555
N1_5 C2_4 1_555 1_555
H2_4 C3_4 1_555 1_555
H3_4 C4_4 1_555 1_555
H9_3 C13_4 1_555 1_555
H10_4 C14_4 1_555 1_555
C6_5 C7_5 1_555 1_555
C7_5 C8_5 1_555 1_555
C8_5 C11_5 1_555 1_555
C9_5 C6_5 1_555 1_555
C10_5 C9_5 1_555 1_555
C11_5 C10_5 1_555 1_555
N4_4 C1_5 1_555 1_555
H1_5 C1_5 1_555 1_555
H6_5 C8_5 1_555 1_555
Co2_4 N4_4 1_555 1_555
C6_5 N2_5 1_555 1_555
C9_5 N3_5 1_555 1_555
Co2_2 N1_6 1_555 1_555
C1_6 N1_6 1_555 1_555
C2_5 C3_5 1_555 1_555
C3_5 C4_5 1_555 1_555
C4_5 C14_5 1_555 1_555
C5_5 N2_6 1_555 1_555
C6_6 C7_6 1_555 1_555
C7_6 C8_6 1_555 1_555
C8_6 C11_6 1_555 1_555
C9_6 C6_6 1_555 1_555
C10_6 C9_6 1_555 1_555
C11_6 C10_6 1_555 1_555
C12_5 C2_5 1_555 1_555
C13_5 C12_5 1_555 1_555
C14_5 C13_5 1_555 1_555
N1_6 C2_5 1_555 1_555
N2_6 Co2_2 1_555 1_555
N3_6 C5_5 1_555 1_555
N4_5 C1_6 1_555 1_555
H1_6 C1_6 1_555 1_555
H2_5 C3_5 1_555 1_555
H3_5 C4_5 1_555 1_555
H4_5 C5_5 1_555 1_555
H5_6 C7_6 1_555 1_555
H6_6 C8_6 1_555 1_555
H7_4 C10_6 1_555 1_555
H8_4 C11_6 1_555 1_555
H9_4 C13_5 1_555 1_555
H10_5 C14_5 1_555 1_555
Co2_5 N4_5 1_555 1_555
Co3_5 N3_6 1_555 1_555
N5_6 Co2_2 1_555 1_555
C6_6 N2_6 1_555 1_555
C9_6 N3_6 1_555 1_555
C12_5 N4_5 1_555 1_555
Co2_5 N1_7 1_555 1_555
C1_7 N1_7 1_555 1_555
C2_6 C3_6 1_555 1_555
C3_6 C4_6 1_555 1_555
C4_6 C14_6 1_555 1_555
C5_6 N2_7 1_555 1_555
C6_7 C7_7 1_555 1_555
C7_7 C8_7 1_555 1_555
C8_7 C11_7 1_555 1_555
C9_7 C6_7 1_555 1_555
C10_7 C9_7 1_555 1_555
C11_7 C10_7 1_555 1_555
C12_6 C2_6 1_555 1_555
C13_6 C12_6 1_555 1_555
C14_6 C13_6 1_555 1_555
N1_7 C2_6 1_555 1_555
N2_7 Co2_5 1_555 1_555
N3_7 C5_6 1_555 1_555
N6_2 C1_7 1_555 1_555
H1_7 C1_7 1_555 1_555
H2_6 C3_6 1_555 1_555
H3_6 C4_6 1_555 1_555
H4_6 C5_6 1_555 1_555
H5_7 C7_7 1_555 1_555
H6_7 C8_7 1_555 1_555
H7_5 C10_7 1_555 1_555
H8_5 C11_7 1_555 1_555
H10_6 C14_6 1_555 1_555
Co3_6 N3_7 1_555 1_555
N5_7 Co2_5 1_555 1_555
C6_7 N2_7 1_555 1_555
C9_7 N3_7 1_555 1_555
C12_6 N6_2 1_555 1_555
H4_7 C5_7 1_555 1_555
C6_8 C7_8 1_555 1_555
C7_8 C8_8 1_555 1_555
C8_8 C11_8 1_555 1_555
C9_8 C6_8 1_555 1_555
C10_8 C9_8 1_555 1_555
C11_8 C10_8 1_555 1_555
N6_3 C1_8 1_555 1_555
H1_8 C1_8 1_555 1_555
H6_8 C8_8 1_555 1_555
H7_6 C10_8 1_555 1_555
H8_6 C11_8 1_555 1_555
C6_8 N2_8 1_555 1_555
C9_8 N3_8 1_555 1_555
C13_7 C12_7 1_555 1_555
H9_6 C13_7 1_555 1_555
C12_7 N6 1_555 1_555
Co2_4 N1_8 1_555 1_555
C1_9 N1_8 1_555 1_555
C2_7 C3_7 1_555 1_555
C3_7 C4_7 1_555 1_555
C4_7 C14_7 1_555 1_555
C5_8 N2_9 1_555 1_555
C6_9 C7_9 1_555 1_555
C7_9 C8_9 1_555 1_555
C8_9 C11_9 1_555 1_555
C9_9 C6_9 1_555 1_555
C10_9 C9_9 1_555 1_555
C11_9 C10_9 1_555 1_555
N1_8 C2_7 1_555 1_555
N2_9 Co2_4 1_555 1_555
N3_9 C5_8 1_555 1_555
H1_9 C1_9 1_555 1_555
H2_7 C3_7 1_555 1_555
H3_7 C4_7 1_555 1_555
H4_8 C5_8 1_555 1_555
H5_8 C7_9 1_555 1_555
H6_9 C8_9 1_555 1_555
H7_7 C10_9 1_555 1_555
H8_7 C11_9 1_555 1_555
H10_7 C14_7 1_555 1_555
Co3_8 N3_9 1_555 1_555
N5_9 Co2_4 1_555 1_555
C6_9 N2_9 1_555 1_555
C9_9 N3_9 1_555 1_555
Co3_8 N1_9 1_555 1_555
C1_10 N1_9 1_555 1_555
C5_9 N2_10 1_555 1_555
C6_10 C7_10 1_555 1_555
C7_10 C8_10 1_555 1_555
C8_10 C11_10 1_555 1_555
C9_10 C6_10 1_555 1_555
C10_10 C9_10 1_555 1_555
C11_10 C10_10 1_555 1_555
N2_10 Co3_8 1_555 1_555
N5_6 C5_9 1_555 1_555
H1_10 C1_10 1_555 1_555
H4_9 C5_9 1_555 1_555
H5_9 C7_10 1_555 1_555
H6_10 C8_10 1_555 1_555
H7_8 C10_10 1_555 1_555
H8_8 C11_10 1_555 1_555
N6_4 Co3_8 1_555 1_555
C6_10 N2_10 1_555 1_555
C9_10 N5_6 1_555 1_555
Co3_7 N1_10 1_555 1_555
C1_11 N1_10 1_555 1_555
C2_8 C3_8 1_555 1_555
C3_8 C4_8 1_555 1_555
C4_8 C14_8 1_555 1_555
C6_11 C7_11 1_555 1_555
C7_11 C8_11 1_555 1_555
C8_11 C11_11 1_555 1_555
C9_11 C6_11 1_555 1_555
C10_11 C9_11 1_555 1_555
C11_11 C10_11 1_555 1_555
C12_8 C2_8 1_555 1_555
C13_8 C12_8 1_555 1_555
C14_8 C13_8 1_555 1_555
N1_10 C2_8 1_555 1_555
N2_11 Co3_7 1_555 1_555
N4_6 C1_11 1_555 1_555
H1_11 C1_11 1_555 1_555
H2_8 C3_8 1_555 1_555
H3_8 C4_8 1_555 1_555
H5_10 C7_11 1_555 1_555
H6_11 C8_11 1_555 1_555
H9_7 C13_8 1_555 1_555
H10_8 C14_8 1_555 1_555
Co3 N4_6 1_555 1_555
C6_11 N2_11 1_555 1_555
C9_11 N5_5 1_555 1_555
C12_8 N4_6 1_555 1_555
H4_10 C5_10 1_555 1_555
C13_9 C12_9 1_555 1_555
H9_8 C13_9 1_555 1_555
Co3_3 N4_7 1_555 1_555
C12_9 N4_7 1_555 1_555
Co3_6 N1_11 1_555 1_555
C1_12 N1_11 1_555 1_555
C2_9 C3_9 1_555 1_555
C3_9 C4_9 1_555 1_555
C4_9 C14_9 1_555 1_555
C5_11 N2_12 1_555 1_555
C6_12 C7_12 1_555 1_555
C7_12 C8_12 1_555 1_555
C8_12 C11_12 1_555 1_555
C9_12 C6_12 1_555 1_555
C10_12 C9_12 1_555 1_555
C11_12 C10_12 1_555 1_555
N1_11 C2_9 1_555 1_555
N2_12 Co3_6 1_555 1_555
N5_4 C5_11 1_555 1_555
H1_12 C1_12 1_555 1_555
H2_9 C3_9 1_555 1_555
H3_9 C4_9 1_555 1_555
H4_11 C5_11 1_555 1_555
H5_11 C7_12 1_555 1_555
H6_12 C8_12 1_555 1_555
H7_9 C10_12 1_555 1_555
H8_9 C11_12 1_555 1_555
H10_9 C14_9 1_555 1_555
N6_6 Co3_6 1_555 1_555
C6_12 N2_12 1_555 1_555
C9_12 N5_4 1_555 1_555
Co3_3 N1_12 1_555 1_555
C1_13 N1_12 1_555 1_555
C5_12 N2_13 1_555 1_555
C6_13 C7_13 1_555 1_555
C7_13 C8_13 1_555 1_555
C8_13 C11_13 1_555 1_555
C9_13 C6_13 1_555 1_555
C10_13 C9_13 1_555 1_555
C11_13 C10_13 1_555 1_555
N2_13 Co3_3 1_555 1_555
N5_9 C5_12 1_555 1_555
H1_13 C1_13 1_555 1_555
H4_12 C5_12 1_555 1_555
H5_12 C7_13 1_555 1_555
H6_13 C8_13 1_555 1_555
H7_10 C10_13 1_555 1_555
H8_10 C11_13 1_555 1_555
C6_13 N2_13 1_555 1_555
C9_13 N5_9 1_555 1_555
C2_10 C3_10 1_555 1_555
C3_10 C4_10 1_555 1_555
C4_10 C14_10 1_555 1_555
C12_10 C2_10 1_555 1_555
C13_10 C12_10 1_555 1_555
C14_10 C13_10 1_555 1_555
H2_10 C3_10 1_555 1_555
H3_10 C4_10 1_555 1_555
H10_10 C14_10 1_555 1_555
C12_10 N4_8 1_555 1_555
C6_14 C7_14 1_555 1_555
C7_14 C8_14 1_555 1_555
C8_14 C11_14 1_555 1_555
C9_14 C6_14 1_555 1_555
C10_14 C9_14 1_555 1_555
C11_14 C10_14 1_555 1_555
N4_9 C1_14 1_555 1_555
H1_14 C1_14 1_555 1_555
H6_14 C8_14 1_555 1_555
Co3_4 N4_9 1_555 1_555
C6_14 N2_14 1_555 1_555
C9_14 N5_8 1_555 1_555
Co3_2 N1_13 1_555 1_555
C2_11 C3_11 1_555 1_555
C3_11 C4_11 1_555 1_555
C4_11 C14_11 1_555 1_555
C12_11 C2_11 1_555 1_555
C13_11 C12_11 1_555 1_555
C14_11 C13_11 1_555 1_555
N1_13 C2_11 1_555 1_555
H2_11 C3_11 1_555 1_555
H3_11 C4_11 1_555 1_555
H9_9 C13_11 1_555 1_555
H10_11 C14_11 1_555 1_555
Co3 N1_14 1_555 1_555
C1_15 N1_14 1_555 1_555
C2_12 C3_12 1_555 1_555
C3_12 C4_12 1_555 1_555
C4_12 C14_12 1_555 1_555
C5_13 N2_15 1_555 1_555
C6_15 C7_15 1_555 1_555
C7_15 C8_15 1_555 1_555
C8_15 C11_15 1_555 1_555
C9_15 C6_15 1_555 1_555
C10_15 C9_15 1_555 1_555
C11_15 C10_15 1_555 1_555
C12_12 C2_12 1_555 1_555
C13_12 C12_12 1_555 1_555
C14_12 C13_12 1_555 1_555
N1_14 C2_12 1_555 1_555
N2_15 Co3 1_555 1_555
N5_7 C5_13 1_555 1_555
N4_10 C1_15 1_555 1_555
H1_15 C1_15 1_555 1_555
H2_12 C3_12 1_555 1_555
H3_12 C4_12 1_555 1_555
H4_13 C5_13 1_555 1_555
H5_14 C7_15 1_555 1_555
H6_15 C8_15 1_555 1_555
H7_11 C10_15 1_555 1_555
H8_11 C11_15 1_555 1_555
H9_10 C13_12 1_555 1_555
H10_12 C14_12 1_555 1_555
Co3_5 N4_10 1_555 1_555
C6_15 N2_15 1_555 1_555
C9_15 N5_7 1_555 1_555
C12_12 N4_10 1_555 1_555
Co3_5 N1_15 1_555 1_555
C1_16 N1_15 1_555 1_555
C2_13 C3_13 1_555 1_555
C3_13 C4_13 1_555 1_555
C4_13 C14_13 1_555 1_555
C5_14 N2_16 1_555 1_555
C6_16 C7_16 1_555 1_555
C7_16 C8_16 1_555 1_555
C8_16 C11_16 1_555 1_555
C9_16 C6_16 1_555 1_555
C10_16 C9_16 1_555 1_555
C11_16 C10_16 1_555 1_555
C12_13 C2_13 1_555 1_555
C13_13 C12_13 1_555 1_555
C14_13 C13_13 1_555 1_555
N1_15 C2_13 1_555 1_555
N2_16 Co3_5 1_555 1_555
N5_3 C5_14 1_555 1_555
N6_5 C1_16 1_555 1_555
H1_16 C1_16 1_555 1_555
H2_13 C3_13 1_555 1_555
H3_13 C4_13 1_555 1_555
H4_14 C5_14 1_555 1_555
H5_15 C7_16 1_555 1_555
H6_16 C8_16 1_555 1_555
H7_12 C10_16 1_555 1_555
H8_12 C11_16 1_555 1_555
H10_13 C14_13 1_555 1_555
C6_16 N2_16 1_555 1_555
C9_16 N5_3 1_555 1_555
C12_13 N6_5 1_555 1_555
C6_17 C7_17 1_555 1_555
C7_17 C8_17 1_555 1_555
C8_17 C11_17 1_555 1_555
C9_17 C6_17 1_555 1_555
C10_17 C9_17 1_555 1_555
C11_17 C10_17 1_555 1_555
N6_6 C1_17 1_555 1_555
H1_17 C1_17 1_555 1_555
H6_17 C8_17 1_555 1_555
H7_13 C10_17 1_555 1_555
H8_13 C11_17 1_555 1_555
C6_17 N2_17 1_555 1_555
C9_17 N5_2 1_555 1_555
H4_15 C5_15 1_555 1_555
Co3_4 N1_16 1_555 1_555
C1_18 N1_16 1_555 1_555
C2_14 C3_14 1_555 1_555
C3_14 C4_14 1_555 1_555
C4_14 C14_14 1_555 1_555
C5_16 N2_18 1_555 1_555
C6_18 C7_18 1_555 1_555
C7_18 C8_18 1_555 1_555
C8_18 C11_18 1_555 1_555
C9_18 C6_18 1_555 1_555
C10_18 C9_18 1_555 1_555
C11_18 C10_18 1_555 1_555
N1_16 C2_14 1_555 1_555
N2_18 Co3_4 1_555 1_555
N5 C5_16 1_555 1_555
H1_18 C1_18 1_555 1_555
H2_14 C3_14 1_555 1_555
H3_14 C4_14 1_555 1_555
H4_16 C5_16 1_555 1_555
H5_16 C7_18 1_555 1_555
H6_18 C8_18 1_555 1_555
H7_14 C10_18 1_555 1_555
H8_14 C11_18 1_555 1_555
H10_14 C14_14 1_555 1_555
C6_18 N2_18 1_555 1_555
C9_18 N5 1_555 1_555
C13_14 C12_14 1_555 1_555
H9_12 C13_14 1_555 1_555
C12_14 N6_4 1_555 1_555
C2_15 C3_15 1_555 1_555
C3_15 C4_15 1_555 1_555
C4_15 C14_15 1_555 1_555
C12_15 C2_15 1_555 1_555
C13_15 C12_15 1_555 1_555
C14_15 C13_15 1_555 1_555
H2_15 C3_15 1_555 1_555
H3_15 C4_15 1_555 1_555
H10_15 C14_15 1_555 1_555
C12_15 N4_11 1_555 1_555
H4_17 C5_17 1_555 1_555
Co3_9 N1_17 1_555 1_555
C2_16 C3_16 1_555 1_555
C3_16 C4_16 1_555 1_555
C4_16 C14_16 1_555 1_555
C12_16 C2_16 1_555 1_555
C13_16 C12_16 1_555 1_555
C14_16 C13_16 1_555 1_555
N1_17 C2_16 1_555 1_555
H2_16 C3_16 1_555 1_555
H3_16 C4_16 1_555 1_555
H9_13 C13_16 1_555 1_555
H10_16 C14_16 1_555 1_555
Co2_6 N1_18 1_555 1_555
C2_17 C3_17 1_555 1_555
C3_17 C4_17 1_555 1_555
C4_17 C14_17 1_555 1_555
C12_17 C2_17 1_555 1_555
C13_17 C12_17 1_555 1_555
C14_17 C13_17 1_555 1_555
N1_18 C2_17 1_555 1_555
H2_17 C3_17 1_555 1_555
H3_17 C4_17 1_555 1_555
H9_16 C13_17 1_555 1_555
H10_17 C14_17 1_555 1_555
C2_18 C3_18 1_555 1_555
C3_18 C4_18 1_555 1_555
C4_18 C14_18 1_555 1_555
C12_18 C2_18 1_555 1_555
C13_18 C12_18 1_555 1_555
C14_18 C13_18 1_555 1_555
H2_18 C3_18 1_555 1_555
H3_18 C4_18 1_555 1_555
H10_18 C14_18 1_555 1_555
C12_18 N4_12 1_555 1_555
H4_18 C5_18 1_555 1_555

#END
