
###############################################################################
#
# This file contains modified crystal structure data generated from the
# MOF subset of the Cambridge Structural Database (CSD) v543 
# hosted by the Cambridge Crystallographic Data Centre (CCDC).
#
# This work is licensed under the Creative Commons
# Attribution-NonCommercial-ShareAlike 4.0 International License.
# To view a copy of this license, visit
# http://creativecommons.org/licenses/by-nc-sa/4.0/
# or send a letter to
# Creative Commons, PO Box 1866, Mountain View, CA 94042, USA.
#
# CIF created using the CSD Python API on 29 September 2022
# The structure has been converted into the P1 space group
# The structure has a 3D framework
# The original CSD entry QOVXEG01 is in the rhombohedral crystal system
# The framework has been calculated to contain at least 10.0% void space
# The void calculation uses a probe of radius 1.32A, grid spacing 0.4
#
###############################################################################

data_QOVXEG01
_chemical_formula_moiety         '(C252 H180 Co18 N68)n'
_symmetry_cell_setting           triclinic
_symmetry_space_group_name_H-M   'P 1'
_symmetry_Int_Tables_number      1
_space_group_name_Hall           'P 1'
loop_
_symmetry_equiv_pos_site_id
_symmetry_equiv_pos_as_xyz
1 x,y,z
_cell_length_a                   21.607(3)
_cell_length_b                   21.607(3)
_cell_length_c                   15.608(4)
_cell_angle_alpha                90
_cell_angle_beta                 90
_cell_angle_gamma                120
_cell_volume                     6310.54
loop_
_atom_site_label
_atom_site_type_symbol
_atom_site_fract_x
_atom_site_fract_y
_atom_site_fract_z
Co1 Co 0.3988(2) 0.0573(2) 0.3249(3)
C1 C 0.3385(5) 0.0231(5) 0.1572(11)
C5 C 0.3837(5) 0.1869(8) 0.3331(7)
C6 C 0.4481(5) 0.1899(6) 0.2287(7)
C7 C 0.4848(6) 0.1765(8) 0.1669(8)
C8 C 0.5249(5) 0.2323(11) 0.1104(7)
C9 C 0.4510(5) 0.2544(5) 0.2344(7)
C10 C 0.4912(5) 0.3084(6) 0.1776(8)
C11 C 0.5279(5) 0.2955(9) 0.1158(7)
N1 N 0.3689(4) 0.0031(6) 0.2171(8)
N2 N 0.4040(5) 0.1474(6) 0.2939(8)
N3 N 0.4087(5) 0.2514(7) 0.3026(7)
H1 H 0.3330 0.0627 0.1649
H4 H 0.3533 0.1705 0.3802
H5 H 0.4830 0.1327 0.1630
H6 H 0.5505 0.2253 0.0673
H7 H 0.4932 0.3523 0.1812
H8 H 0.5555 0.3312 0.0767
Co3 Co 0.3906(2) 0.3252(3) 0.3418(3)
N5 N 0.4906(9) 0.0754(5) 0.3641(7)
N6 N 0.3343(8) 0.0163(4) 0.4205(9)
Co2 Co 0.2760(2) 0.0082(3) 0.9916(3)
H4_2 H 0.6866 0.8372 0.0469
Co3_2 Co 0.7240(2) 0.9918(3) 0.0084(3)
N5_2 N 0.8240(9) 0.7420(5) 0.0307(7)
N6_2 N 0.6676(8) 0.6830(4) 0.0872(9)
Co1_2 Co 0.7321(2) 0.7240(2) 0.9916(3)
C1_2 C 0.6718(5) 0.6898(5) 0.8239(11)
C2 C 0.6997(3) 0.6117(5) 0.8477(6)
C3 C 0.7232(4) 0.5685(7) 0.8796(9)
C4 C 0.7137(5) 0.5147(6) 0.8294(13)
C5_2 C 0.7170(5) 0.8536(8) 0.9998(7)
C6_2 C 0.7814(5) 0.8566(6) 0.8954(7)
C7_2 C 0.8181(6) 0.8432(8) 0.8336(8)
C8_2 C 0.8582(5) 0.8990(11) 0.7771(7)
C9_2 C 0.7843(5) 0.9211(5) 0.9011(7)
C10_2 C 0.8245(5) 0.9751(6) 0.8443(8)
C11_2 C 0.8612(5) 0.9622(9) 0.7825(7)
C12 C 0.6680(4) 0.6002(6) 0.7679(6)
C13 C 0.6582(5) 0.5447(7) 0.7162(8)
C14 C 0.6821(6) 0.5022(5) 0.7494(12)
N1_2 N 0.7022(4) 0.6698(6) 0.8838(8)
N2_2 N 0.7373(5) 0.8141(6) 0.9606(8)
N3_2 N 0.7420(5) 0.9181(7) 0.9693(7)
N4 N 0.6503(4) 0.6513(7) 0.7539(9)
H1_2 H 0.6663 0.7294 0.8316
H2 H 0.7446 0.5761 0.9332
H3 H 0.7290 0.4838 0.8490
H5_2 H 0.8163 0.7994 0.8297
H6_2 H 0.8838 0.8920 0.7340
H8_2 H 0.8888 0.9979 0.7434
H9 H 0.6367 0.5367 0.6626
H10 H 0.6769 0.4636 0.7173
Co2_2 Co 0.6094(2) 0.6748(3) 0.6582(3)
Co1_3 Co 0.0655(2) 0.3906(2) 0.6582(3)
C1_3 C 0.0052(5) 0.3564(5) 0.4905(11)
C2_2 C 0.0331(3) 0.2783(5) 0.5143(6)
C3_2 C 0.0566(4) 0.2351(7) 0.5462(9)
C4_2 C 0.0471(5) 0.1813(6) 0.4960(13)
C5_3 C 0.0504(5) 0.5202(8) 0.6664(7)
C6_3 C 0.1148(5) 0.5232(6) 0.5620(7)
C7_3 C 0.1515(6) 0.5098(8) 0.5002(8)
C8_3 C 0.1916(5) 0.5656(11) 0.4437(7)
C9_3 C 0.1177(5) 0.5877(5) 0.5677(7)
C10_3 C 0.1579(5) 0.6417(6) 0.5109(8)
C11_3 C 0.1946(5) 0.6288(9) 0.4491(7)
C12_2 C 0.0014(4) 0.2668(6) 0.4345(6)
C14_2 C 0.0155(6) 0.1688(5) 0.4160(12)
N1_3 N 0.0356(4) 0.3364(6) 0.5504(8)
N2_3 N 0.0707(5) 0.4807(6) 0.6272(8)
N3_3 N 0.0754(5) 0.5847(7) 0.6359(7)
H2_2 H 0.0780 0.2427 0.5998
H3_2 H 0.0624 0.1504 0.5156
H4_3 H 0.0200 0.5038 0.7135
H5_3 H 0.1497 0.4660 0.4963
H6_3 H 0.2172 0.5586 0.4006
H7_2 H 0.1599 0.6856 0.5145
H8_3 H 0.2222 0.6645 0.4100
H10_2 H 0.0103 0.1302 0.3839
Co3_3 Co 0.0573(2) 0.6585(3) 0.6751(3)
N5_3 N 0.1573(9) 0.4087(5) 0.6974(7)
N6_3 N 0.0009(8) 0.3497(4) 0.7539(9)
C13_2 C 0.9916(5) 0.2113(7) 0.3828(8)
N4_2 N 0.9837(4) 0.3179(7) 0.4205(9)
H1_3 H 0.9997 0.3960 0.4982
H9_2 H 0.9701 0.2033 0.3292
Co2_3 Co 0.9427(2) 0.3415(3) 0.3249(3)
C2_3 C 0.0550(5) 0.4214(6) 0.1810(6)
C3_3 C 0.0982(7) 0.4881(8) 0.2129(9)
C4_3 C 0.1520(6) 0.5324(8) 0.1627(13)
C12_3 C 0.0665(6) 0.4012(7) 0.1012(6)
C13_3 C 0.1220(7) 0.4469(9) 0.0495(8)
C14_3 C 0.1645(5) 0.5133(8) 0.0827(12)
N4_3 N 0.0154(7) 0.3324(8) 0.0872(9)
H2_3 H 0.0906 0.5019 0.2665
H3_3 H 0.1829 0.5786 0.1823
H10_3 H 0.2031 0.5467 0.0506
C1_4 C 0.9769(5) 0.3154(7) 0.1572(11)
C5_4 C 0.8131(8) 0.1968(9) 0.3331(7)
C6_4 C 0.8101(6) 0.2582(8) 0.2287(7)
C7_4 C 0.8235(8) 0.3083(10) 0.1669(8)
C8_4 C 0.7677(11) 0.2926(12) 0.1104(7)
C9_4 C 0.7456(5) 0.1966(7) 0.2344(7)
C10_4 C 0.6916(6) 0.1828(8) 0.1776(8)
C11_4 C 0.7045(9) 0.2324(10) 0.1158(7)
N1_4 N 0.9969(6) 0.3658(7) 0.2171(8)
N2_4 N 0.8526(6) 0.2566(8) 0.2939(8)
N3_4 N 0.7486(7) 0.1573(9) 0.3026(7)
H1_4 H 0.9373 0.2703 0.1649
H4_4 H 0.8295 0.1828 0.3802
H5_4 H 0.8673 0.3503 0.1630
H6_4 H 0.7747 0.3252 0.0673
H7_3 H 0.6477 0.1409 0.1812
H8_4 H 0.6688 0.2243 0.0767
Co3_4 Co 0.6748(3) 0.0655(4) 0.3418(3)
N5_4 N 0.9246(5) 0.4153(10) 0.3641(7)
N5_5 N 0.2580(5) 0.0819(10) 0.0307(7)
C2_4 C 0.3883(5) 0.0881(6) 0.8477(6)
C3_4 C 0.4315(7) 0.1548(8) 0.8796(9)
C4_4 C 0.4853(6) 0.1991(8) 0.8294(13)
C12_4 C 0.3998(6) 0.0679(7) 0.7679(6)
C13_4 C 0.4553(7) 0.1136(9) 0.7162(8)
C14_4 C 0.4978(5) 0.1800(8) 0.7494(12)
N1_5 N 0.3302(6) 0.0325(7) 0.8838(8)
H2_4 H 0.4239 0.1686 0.9332
H3_4 H 0.5162 0.2453 0.8490
H5_5 H 0.2006 0.0170 0.8297
H9_3 H 0.4633 0.1001 0.6626
H10_4 H 0.5364 0.2134 0.7173
C1_5 C 0.3102(5) 0.9821(7) 0.8239(11)
C5_5 C 0.1464(8) 0.8635(9) 0.9998(7)
C6_5 C 0.1434(6) 0.9249(8) 0.8954(7)
C7_5 C 0.1568(8) 0.9750(10) 0.8336(8)
C8_5 C 0.1010(11) 0.9593(12) 0.7771(7)
C9_5 C 0.0789(5) 0.8633(7) 0.9011(7)
C10_5 C 0.0249(6) 0.8495(8) 0.8443(8)
C11_5 C 0.0378(9) 0.8991(10) 0.7825(7)
N2_5 N 0.1859(6) 0.9233(8) 0.9606(8)
N3_5 N 0.0819(7) 0.8240(9) 0.9693(7)
N4_4 N 0.3487(7) 0.9991(8) 0.7539(9)
H1_5 H 0.2706 0.9370 0.8316
H6_5 H 0.1080 0.9919 0.7340
H8_5 H 0.0021 0.8910 0.7434
Co2_4 Co 0.3252(3) 0.9345(4) 0.6582(3)
C1_6 C 0.6436(5) 0.6487(7) 0.4905(11)
C2_5 C 0.7217(5) 0.7547(6) 0.5143(6)
C3_5 C 0.7649(7) 0.8214(8) 0.5462(9)
C4_5 C 0.8187(6) 0.8657(8) 0.4960(13)
C5_6 C 0.4798(8) 0.5301(9) 0.6664(7)
C6_6 C 0.4768(6) 0.5915(8) 0.5620(7)
C7_6 C 0.4902(8) 0.6416(10) 0.5002(8)
C8_6 C 0.4344(11) 0.6259(12) 0.4437(7)
C9_6 C 0.4123(5) 0.5299(7) 0.5677(7)
C10_6 C 0.3583(6) 0.5161(8) 0.5109(8)
C11_6 C 0.3712(9) 0.5657(10) 0.4491(7)
C12_5 C 0.7332(6) 0.7345(7) 0.4345(6)
C13_5 C 0.7887(7) 0.7802(9) 0.3828(8)
C14_5 C 0.8312(5) 0.8466(8) 0.4160(12)
N1_6 N 0.6636(6) 0.6991(7) 0.5504(8)
N2_6 N 0.5193(6) 0.5899(8) 0.6272(8)
N3_6 N 0.4153(7) 0.4906(9) 0.6359(7)
N4_5 N 0.6821(7) 0.6657(8) 0.4205(9)
H1_6 H 0.6040 0.6036 0.4982
H2_5 H 0.7573 0.8352 0.5998
H3_5 H 0.8496 0.9119 0.5156
H4_5 H 0.4962 0.5161 0.7135
H5_6 H 0.5340 0.6836 0.4963
H6_6 H 0.4414 0.6585 0.4006
H7_4 H 0.3144 0.4742 0.5145
H8_6 H 0.3355 0.5576 0.4100
H9_4 H 0.7967 0.7667 0.3292
H10_5 H 0.8698 0.8800 0.3839
Co2_5 Co 0.6585(3) 0.6012(4) 0.3249(3)
Co3_5 Co 0.3415(3) 0.3988(4) 0.6751(3)
N5_6 N 0.5913(5) 0.7486(10) 0.6974(7)
C1_7 C 0.6846(7) 0.6615(5) 0.1572(11)
C2_6 C 0.5786(6) 0.6336(3) 0.1810(6)
C3_6 C 0.5119(8) 0.6101(4) 0.2129(9)
C4_6 C 0.4676(8) 0.6196(5) 0.1627(13)
C5_7 C 0.8032(9) 0.6163(5) 0.3331(7)
C6_7 C 0.7418(8) 0.5519(5) 0.2287(7)
C7_7 C 0.6917(10) 0.5152(6) 0.1669(8)
C8_7 C 0.7074(12) 0.4751(5) 0.1104(7)
C9_7 C 0.8034(7) 0.5490(5) 0.2344(7)
C10_7 C 0.8172(8) 0.5088(5) 0.1776(8)
C11_7 C 0.7676(10) 0.4721(5) 0.1158(7)
C12_6 C 0.5988(7) 0.6653(4) 0.1012(6)
C13_6 C 0.5531(9) 0.6751(5) 0.0495(8)
C14_6 C 0.4867(8) 0.6512(6) 0.0827(12)
N1_7 N 0.6342(7) 0.6311(4) 0.2171(8)
N2_7 N 0.7434(8) 0.5960(5) 0.2939(8)
N3_7 N 0.8427(9) 0.5913(5) 0.3026(7)
H1_7 H 0.7297 0.6670 0.1649
H2_6 H 0.4981 0.5887 0.2665
H3_6 H 0.4214 0.6043 0.1823
H4_6 H 0.8172 0.6467 0.3802
H5_7 H 0.6497 0.5170 0.1630
H6_7 H 0.6748 0.4495 0.0673
H7_5 H 0.8591 0.5068 0.1812
H8_7 H 0.7757 0.4445 0.0767
H10_6 H 0.4533 0.6564 0.0506
Co3_6 Co 0.9345(4) 0.6094(2) 0.3418(3)
N5_7 N 0.5847(10) 0.5094(9) 0.3641(7)
H9_5 H 0.5666 0.6966 0.9959
H4_7 H 0.1505 0.3134 0.0469
Co3_7 Co 0.2679(4) 0.2760(2) 0.0084(3)
C1_8 C 0.0179(7) 0.3282(5) 0.8239(11)
C5_8 C 0.1365(9) 0.2830(5) 0.9998(7)
C6_8 C 0.0751(8) 0.2186(5) 0.8954(7)
C7_8 C 0.0250(10) 0.1819(6) 0.8336(8)
C8_8 C 0.0407(12) 0.1418(5) 0.7771(7)
C9_8 C 0.1367(7) 0.2157(5) 0.9011(7)
C10_8 C 0.1505(8) 0.1755(5) 0.8443(8)
C11_8 C 0.1009(10) 0.1388(5) 0.7825(7)
N2_8 N 0.0767(8) 0.2627(5) 0.9606(8)
N3_8 N 0.1760(9) 0.2580(5) 0.9693(7)
H1_8 H 0.0630 0.3337 0.8316
H6_8 H 0.0081 0.1162 0.7340
H7_6 H 0.1924 0.1735 0.8479
H8_8 H 0.1090 0.1112 0.7434
N5_8 N 0.9181(10) 0.1760(9) 0.0307(7)
C13_7 C 0.2198(9) 0.0084(5) 0.3828(8)
H1_9 H 0.3964 0.0003 0.4982
H9_6 H 0.2333 0.0299 0.3292
C1_9 C 0.3513(7) 0.9948(5) 0.4905(11)
C2_7 C 0.2453(6) 0.9669(3) 0.5143(6)
C3_7 C 0.1786(8) 0.9434(4) 0.5462(9)
C4_7 C 0.1343(8) 0.9529(5) 0.4960(13)
C5_9 C 0.4699(9) 0.9496(5) 0.6664(7)
C6_9 C 0.4085(8) 0.8852(5) 0.5620(7)
C7_9 C 0.3584(10) 0.8485(6) 0.5002(8)
C8_9 C 0.3741(12) 0.8084(5) 0.4437(7)
C9_9 C 0.4701(7) 0.8823(5) 0.5677(7)
C10_9 C 0.4839(8) 0.8421(5) 0.5109(8)
C11_9 C 0.4343(10) 0.8054(5) 0.4491(7)
C12_7 C 0.2655(7) 0.9986(4) 0.4345(6)
C14_7 C 0.1534(8) 0.9845(6) 0.4160(12)
N1_8 N 0.3009(7) 0.9644(4) 0.5504(8)
N2_9 N 0.4101(8) 0.9293(5) 0.6272(8)
N3_9 N 0.5094(9) 0.9246(5) 0.6359(7)
H2_7 H 0.1648 0.9220 0.5998
H3_7 H 0.0881 0.9376 0.5156
H4_8 H 0.4839 0.9800 0.7135
H5_8 H 0.3164 0.8503 0.4963
H6_9 H 0.3415 0.7828 0.4006
H7_7 H 0.5258 0.8401 0.5145
H8_9 H 0.4424 0.7778 0.4100
H10_7 H 0.1200 0.9897 0.3839
Co3_8 Co 0.6012(4) 0.9427(2) 0.6751(3)
N5_9 N 0.2514(10) 0.8427(9) 0.6974(7)
C1_10 C 0.6615(5) 0.9769(5) 0.8428(11)
C5_10 C 0.6163(5) 0.8131(8) 0.6669(7)
C6_10 C 0.5519(5) 0.8101(6) 0.7713(7)
C7_10 C 0.5152(6) 0.8235(8) 0.8331(8)
C8_10 C 0.4751(5) 0.7677(11) 0.8896(7)
C9_10 C 0.5490(5) 0.7456(5) 0.7656(7)
C10_10 C 0.5088(5) 0.6916(6) 0.8224(8)
C11_10 C 0.4721(5) 0.7045(9) 0.8842(7)
N1_9 N 0.6311(4) 0.9969(6) 0.7829(8)
N2_10 N 0.5960(5) 0.8526(6) 0.7061(8)
H1_10 H 0.6670 0.9373 0.8351
H4_9 H 0.6467 0.8295 0.6198
H5_9 H 0.5170 0.8673 0.8370
H6_10 H 0.4495 0.7747 0.9327
H7_8 H 0.5068 0.6477 0.8188
H8_10 H 0.4445 0.6688 0.9233
N6_4 N 0.6657(8) 0.9837(4) 0.5795(9)
C1_11 C 0.3282(5) 0.3102(5) 0.1761(11)
C2_8 C 0.3003(3) 0.3883(5) 0.1523(6)
C3_8 C 0.2768(4) 0.4315(7) 0.1204(9)
C4_8 C 0.2863(5) 0.4853(6) 0.1706(13)
C5_11 C 0.2830(5) 0.1464(8) 0.0002(7)
C6_11 C 0.2186(5) 0.1434(6) 0.1046(7)
C7_11 C 0.1819(6) 0.1568(8) 0.1664(8)
C8_11 C 0.1418(5) 0.1010(11) 0.2229(7)
C9_11 C 0.2157(5) 0.0789(5) 0.0989(7)
C10_11 C 0.1755(5) 0.0249(6) 0.1557(8)
C11_11 C 0.1388(5) 0.0378(9) 0.2175(7)
C12_8 C 0.3320(4) 0.3998(6) 0.2321(6)
C13_8 C 0.3418(5) 0.4553(7) 0.2838(8)
C14_8 C 0.3179(6) 0.4978(5) 0.2506(12)
N1_10 N 0.2978(4) 0.3302(6) 0.1162(8)
N2_11 N 0.2627(5) 0.1859(6) 0.0394(8)
N4_6 N 0.3497(4) 0.3487(7) 0.2461(9)
H1_11 H 0.3337 0.2706 0.1684
H2_8 H 0.2554 0.4239 0.0668
H3_8 H 0.2710 0.5162 0.1510
H5_10 H 0.1837 0.2006 0.1703
H6_11 H 0.1162 0.1080 0.2660
H8_11 H 0.1112 0.0021 0.2566
H9_7 H 0.3633 0.4633 0.3374
H10_8 H 0.3231 0.5364 0.2827
H4_10 H 0.3134 0.1628 0.9531
N6_5 N 0.3324(8) 0.3170(4) 0.9128(9)
C13_9 C 0.0084(5) 0.7887(7) 0.6172(8)
N4_7 N 0.0163(4) 0.6821(7) 0.5795(9)
H1_12 H 0.0003 0.6040 0.5018
H9_8 H 0.0299 0.7967 0.6708
C1_12 C 0.9948(5) 0.6436(5) 0.5095(11)
C2_9 C 0.9669(3) 0.7217(5) 0.4857(6)
C3_9 C 0.9434(4) 0.7649(7) 0.4538(9)
C4_9 C 0.9529(5) 0.8187(6) 0.5040(13)
C5_12 C 0.9496(5) 0.4798(8) 0.3336(7)
C6_12 C 0.8852(5) 0.4768(6) 0.4380(7)
C7_12 C 0.8485(6) 0.4902(8) 0.4998(8)
C8_12 C 0.8084(5) 0.4344(11) 0.5563(7)
C9_12 C 0.8823(5) 0.4123(5) 0.4323(7)
C10_12 C 0.8421(5) 0.3583(6) 0.4891(8)
C11_12 C 0.8054(5) 0.3712(9) 0.5509(7)
C12_9 C 0.9986(4) 0.7332(6) 0.5655(6)
C14_9 C 0.9845(6) 0.8312(5) 0.5840(12)
N1_11 N 0.9644(4) 0.6636(6) 0.4496(8)
N2_12 N 0.9293(5) 0.5193(6) 0.3728(8)
H2_9 H 0.9220 0.7573 0.4002
H3_9 H 0.9376 0.8496 0.4844
H4_11 H 0.9800 0.4962 0.2865
H5_11 H 0.8503 0.5340 0.5037
H6_12 H 0.7828 0.4414 0.5994
H7_9 H 0.8401 0.3144 0.4855
H8_12 H 0.7778 0.3355 0.5900
H10_9 H 0.9897 0.8698 0.6161
N6_6 N 0.9991(8) 0.6503(4) 0.2461(9)
C1_13 C 0.0231(5) 0.6846(7) 0.8428(11)
C5_13 C 0.1869(8) 0.8032(9) 0.6669(7)
C6_13 C 0.1899(6) 0.7418(8) 0.7713(7)
C7_13 C 0.1765(8) 0.6917(10) 0.8331(8)
C8_13 C 0.2323(11) 0.7074(12) 0.8896(7)
C9_13 C 0.2544(5) 0.8034(7) 0.7656(7)
C10_13 C 0.3084(6) 0.8172(8) 0.8224(8)
C11_13 C 0.2955(9) 0.7676(10) 0.8842(7)
N1_12 N 0.0031(6) 0.6342(7) 0.7829(8)
N2_13 N 0.1474(6) 0.7434(8) 0.7061(8)
H1_13 H 0.0627 0.7297 0.8351
H4_12 H 0.1705 0.8172 0.6198
H5_12 H 0.1327 0.6497 0.8370
H6_13 H 0.2253 0.6748 0.9327
H7_10 H 0.3523 0.8591 0.8188
H8_13 H 0.3312 0.7757 0.9233
C2_10 C 0.9450(5) 0.5786(6) 0.8190(6)
C3_10 C 0.9018(7) 0.5119(8) 0.7871(9)
C4_10 C 0.8480(6) 0.4676(8) 0.8373(13)
C12_10 C 0.9335(6) 0.5988(7) 0.8988(6)
C13_10 C 0.8780(7) 0.5531(9) 0.9505(8)
C14_10 C 0.8355(5) 0.4867(8) 0.9173(12)
N4_8 N 0.9846(7) 0.6676(8) 0.9128(9)
H2_10 H 0.9094 0.4981 0.7335
H3_10 H 0.8171 0.4214 0.8177
H10_10 H 0.7969 0.4533 0.9494
C1_14 C 0.6898(5) 0.0179(7) 0.1761(11)
C5_14 C 0.8536(8) 0.1365(9) 0.0002(7)
C6_14 C 0.8566(6) 0.0751(8) 0.1046(7)
C7_14 C 0.8432(8) 0.0250(10) 0.1664(8)
C8_14 C 0.8990(11) 0.0407(12) 0.2229(7)
C9_14 C 0.9211(5) 0.1367(7) 0.0989(7)
C10_14 C 0.9751(6) 0.1505(8) 0.1557(8)
C11_14 C 0.9622(9) 0.1009(10) 0.2175(7)
N2_14 N 0.8141(6) 0.0767(8) 0.0394(8)
N4_9 N 0.6513(7) 0.0009(8) 0.2461(9)
H1_14 H 0.7294 0.0630 0.1684
H6_14 H 0.8920 0.0081 0.2660
H8_14 H 0.9979 0.1090 0.2566
C2_11 C 0.6117(5) 0.9119(6) 0.1523(6)
C3_11 C 0.5685(7) 0.8452(8) 0.1204(9)
C4_11 C 0.5147(6) 0.8009(8) 0.1706(13)
C12_11 C 0.6002(6) 0.9321(7) 0.2321(6)
C13_11 C 0.5447(7) 0.8864(9) 0.2838(8)
C14_11 C 0.5022(5) 0.8200(8) 0.2506(12)
N1_13 N 0.6698(6) 0.9675(7) 0.1162(8)
H2_11 H 0.5761 0.8314 0.0668
H3_11 H 0.4838 0.7547 0.1510
H5_13 H 0.7994 0.9830 0.1703
H9_9 H 0.5367 0.8999 0.3374
H10_11 H 0.4636 0.7866 0.2827
C1_15 C 0.3564(5) 0.3513(7) 0.5095(11)
C2_12 C 0.2783(5) 0.2453(6) 0.4857(6)
C3_12 C 0.2351(7) 0.1786(8) 0.4538(9)
C4_12 C 0.1813(6) 0.1343(8) 0.5040(13)
C5_15 C 0.5202(8) 0.4699(9) 0.3336(7)
C6_15 C 0.5232(6) 0.4085(8) 0.4380(7)
C7_15 C 0.5098(8) 0.3584(10) 0.4998(8)
C8_15 C 0.5656(11) 0.3741(12) 0.5563(7)
C9_15 C 0.5877(5) 0.4701(7) 0.4323(7)
C10_15 C 0.6417(6) 0.4839(8) 0.4891(8)
C11_15 C 0.6288(9) 0.4343(10) 0.5509(7)
C12_12 C 0.2668(6) 0.2655(7) 0.5655(6)
C13_12 C 0.2113(7) 0.2198(9) 0.6172(8)
C14_12 C 0.1688(5) 0.1534(8) 0.5840(12)
N1_14 N 0.3364(6) 0.3009(7) 0.4496(8)
N2_15 N 0.4807(6) 0.4101(8) 0.3728(8)
N4_10 N 0.3179(7) 0.3343(8) 0.5795(9)
H1_15 H 0.3960 0.3964 0.5018
H2_12 H 0.2427 0.1648 0.4002
H3_12 H 0.1504 0.0881 0.4844
H4_13 H 0.5038 0.4839 0.2865
H5_14 H 0.4660 0.3164 0.5037
H6_15 H 0.5586 0.3415 0.5994
H7_11 H 0.6856 0.5258 0.4855
H8_15 H 0.6645 0.4424 0.5900
H9_10 H 0.2033 0.2333 0.6708
H10_12 H 0.1302 0.1200 0.6161
H9_11 H 0.4334 0.3034 0.0041
C1_16 C 0.3154(7) 0.3385(5) 0.8428(11)
C2_13 C 0.4214(6) 0.3664(3) 0.8190(6)
C3_13 C 0.4881(8) 0.3899(4) 0.7871(9)
C4_13 C 0.5324(8) 0.3804(5) 0.8373(13)
C5_16 C 0.1968(9) 0.3837(5) 0.6669(7)
C6_16 C 0.2582(8) 0.4481(5) 0.7713(7)
C7_16 C 0.3083(10) 0.4848(6) 0.8331(8)
C8_16 C 0.2926(12) 0.5249(5) 0.8896(7)
C9_16 C 0.1966(7) 0.4510(5) 0.7656(7)
C10_16 C 0.1828(8) 0.4912(5) 0.8224(8)
C11_16 C 0.2324(10) 0.5279(5) 0.8842(7)
C12_13 C 0.4012(7) 0.3347(4) 0.8988(6)
C13_13 C 0.4469(9) 0.3249(5) 0.9505(8)
C14_13 C 0.5133(8) 0.3488(6) 0.9173(12)
N1_15 N 0.3658(7) 0.3689(4) 0.7829(8)
N2_16 N 0.2566(8) 0.4040(5) 0.7061(8)
H1_16 H 0.2703 0.3330 0.8351
H2_13 H 0.5019 0.4113 0.7335
H3_13 H 0.5786 0.3957 0.8177
H4_14 H 0.1828 0.3533 0.6198
H5_15 H 0.3503 0.4830 0.8370
H6_16 H 0.3252 0.5505 0.9327
H7_12 H 0.1409 0.4932 0.8188
H8_16 H 0.2243 0.5555 0.9233
H10_13 H 0.5467 0.3436 0.9494
C1_17 C 0.9821(7) 0.6718(5) 0.1761(11)
C5_17 C 0.8635(9) 0.7170(5) 0.0002(7)
C6_17 C 0.9249(8) 0.7814(5) 0.1046(7)
C7_17 C 0.9750(10) 0.8181(6) 0.1664(8)
C8_17 C 0.9593(12) 0.8582(5) 0.2229(7)
C9_17 C 0.8633(7) 0.7843(5) 0.0989(7)
C10_17 C 0.8495(8) 0.8245(5) 0.1557(8)
C11_17 C 0.8991(10) 0.8612(5) 0.2175(7)
N2_17 N 0.9233(8) 0.7373(5) 0.0394(8)
H1_17 H 0.9370 0.6663 0.1684
H6_17 H 0.9919 0.8838 0.2660
H7_13 H 0.8076 0.8265 0.1521
H8_17 H 0.8910 0.8888 0.2566
H4_15 H 0.8495 0.6866 0.9531
C1_18 C 0.6487(7) 0.0052(5) 0.5095(11)
C2_14 C 0.7547(6) 0.0331(3) 0.4857(6)
C3_14 C 0.8214(8) 0.0566(4) 0.4538(9)
C4_14 C 0.8657(8) 0.0471(5) 0.5040(13)
C5_18 C 0.5301(9) 0.0504(5) 0.3336(7)
C6_18 C 0.5915(8) 0.1148(5) 0.4380(7)
C7_18 C 0.6416(10) 0.1515(6) 0.4998(8)
C8_18 C 0.6259(12) 0.1916(5) 0.5563(7)
C9_18 C 0.5299(7) 0.1177(5) 0.4323(7)
C10_18 C 0.5161(8) 0.1579(5) 0.4891(8)
C11_18 C 0.5657(10) 0.1946(5) 0.5509(7)
C12_14 C 0.7345(7) 0.0014(4) 0.5655(6)
C14_14 C 0.8466(8) 0.0155(6) 0.5840(12)
N1_16 N 0.6991(7) 0.0356(4) 0.4496(8)
N2_18 N 0.5899(8) 0.0707(5) 0.3728(8)
H2_14 H 0.8352 0.0780 0.4002
H3_14 H 0.9119 0.0624 0.4844
H4_16 H 0.5161 0.0200 0.2865
H5_16 H 0.6836 0.1497 0.5037
H6_18 H 0.6585 0.2172 0.5994
H7_14 H 0.4742 0.1599 0.4855
H8_18 H 0.5576 0.2222 0.5900
H10_14 H 0.8800 0.0103 0.6161
C13_14 C 0.7802(9) 0.9916(5) 0.6172(8)
H1_18 H 0.6036 0.9997 0.5018
H9_12 H 0.7667 0.9701 0.6708
C2_15 C 0.3664(3) 0.9450(5) 0.1810(6)
C3_15 C 0.3899(4) 0.9018(7) 0.2129(9)
C4_15 C 0.3804(5) 0.8480(6) 0.1627(13)
C12_15 C 0.3347(4) 0.9335(6) 0.1012(6)
C13_15 C 0.3249(5) 0.8780(7) 0.0495(8)
C14_15 C 0.3488(6) 0.8355(5) 0.0827(12)
N4_11 N 0.3170(4) 0.9846(7) 0.0872(9)
H2_15 H 0.4113 0.9094 0.2665
H3_15 H 0.3957 0.8171 0.1823
H10_15 H 0.3436 0.7969 0.0506
H4_17 H 0.1628 0.8495 0.0469
Co3_9 Co 0.0082(3) 0.7321(4) 0.0084(3)
C2_16 C 0.0881(6) 0.6997(3) 0.1523(6)
C3_16 C 0.1548(8) 0.7232(4) 0.1204(9)
C4_16 C 0.1991(8) 0.7137(5) 0.1706(13)
C12_16 C 0.0679(7) 0.6680(4) 0.2321(6)
C13_16 C 0.1136(9) 0.6582(5) 0.2838(8)
C14_16 C 0.1800(8) 0.6821(6) 0.2506(12)
N1_17 N 0.0325(7) 0.7022(4) 0.1162(8)
H2_16 H 0.1686 0.7446 0.0668
H3_16 H 0.2453 0.7290 0.1510
H5_17 H 0.0170 0.8163 0.1703
H9_13 H 0.1001 0.6367 0.3374
H10_16 H 0.2134 0.6769 0.2827
H9_14 H 0.3034 0.8700 0.9959
H7_15 H 0.8265 0.0190 0.8479
H9_15 H 0.1300 0.4334 0.9959
Co2_6 Co 0.9918(3) 0.2679(4) 0.9916(3)
C2_17 C 0.9119(6) 0.3003(3) 0.8477(6)
C3_17 C 0.8452(8) 0.2768(4) 0.8796(9)
C4_17 C 0.8009(8) 0.2863(5) 0.8294(13)
C12_17 C 0.9321(7) 0.3320(4) 0.7679(6)
C13_17 C 0.8864(9) 0.3418(5) 0.7162(8)
C14_17 C 0.8200(8) 0.3179(6) 0.7494(12)
N1_18 N 0.9675(7) 0.2978(4) 0.8838(8)
H2_17 H 0.8314 0.2554 0.9332
H3_17 H 0.7547 0.2710 0.8490
H5_18 H 0.9830 0.1837 0.8297
H9_16 H 0.8999 0.3633 0.6626
H10_17 H 0.7866 0.3231 0.7173
C2_18 C 0.6336(3) 0.0550(5) 0.8190(6)
C3_18 C 0.6101(4) 0.0982(7) 0.7871(9)
C4_18 C 0.6196(5) 0.1520(6) 0.8373(13)
C12_18 C 0.6653(4) 0.0665(6) 0.8988(6)
C13_18 C 0.6751(5) 0.1220(7) 0.9505(8)
C14_18 C 0.6512(6) 0.1645(5) 0.9173(12)
N4_12 N 0.6830(4) 0.0154(7) 0.9128(9)
H2_18 H 0.5887 0.0906 0.7335
H3_18 H 0.6043 0.1829 0.8177
H10_18 H 0.6564 0.2031 0.9494
H4_18 H 0.8372 0.1505 0.9531
H7_16 H 0.9810 0.8076 0.8479
H9_17 H 0.6966 0.1300 0.0041
H7_17 H 0.1735 0.9810 0.1521
H9_18 H 0.8700 0.5666 0.0041
H7_18 H 0.0190 0.1924 0.1521
loop_
_geom_bond_atom_site_label_1
_geom_bond_atom_site_label_2
_geom_bond_site_symmetry_1
_geom_bond_site_symmetry_2
Co1 N1 1_555 1_555
C1 N1 1_555 1_555
C5 N2 1_555 1_555
C6 C7 1_555 1_555
C7 C8 1_555 1_555
C8 C11 1_555 1_555
C9 C6 1_555 1_555
C10 C9 1_555 1_555
C11 C10 1_555 1_555
N2 Co1 1_555 1_555
N3 C5 1_555 1_555
H1 C1 1_555 1_555
H4 C5 1_555 1_555
H5 C7 1_555 1_555
H6 C8 1_555 1_555
H7 C10 1_555 1_555
H8 C11 1_555 1_555
Co3 N3 1_555 1_555
N5 Co1 1_555 1_555
N6 Co1 1_555 1_555
C6 N2 1_555 1_555
C9 N3 1_555 1_555
Co1_2 N1_2 1_555 1_555
C1_2 N1_2 1_555 1_555
C2 C3 1_555 1_555
C3 C4 1_555 1_555
C4 C14 1_555 1_555
C5_2 N2_2 1_555 1_555
C6_2 C7_2 1_555 1_555
C7_2 C8_2 1_555 1_555
C8_2 C11_2 1_555 1_555
C9_2 C6_2 1_555 1_555
C10_2 C9_2 1_555 1_555
C11_2 C10_2 1_555 1_555
C12 C2 1_555 1_555
C13 C12 1_555 1_555
C14 C13 1_555 1_555
N1_2 C2 1_555 1_555
N2_2 Co1_2 1_555 1_555
N3_2 C5_2 1_555 1_555
N4 C1_2 1_555 1_555
H1_2 C1_2 1_555 1_555
H2 C3 1_555 1_555
H3 C4 1_555 1_555
H5_2 C7_2 1_555 1_555
H6_2 C8_2 1_555 1_555
H8_2 C11_2 1_555 1_555
H9 C13 1_555 1_555
H10 C14 1_555 1_555
Co2_2 N4 1_555 1_555
C6_2 N2_2 1_555 1_555
C9_2 N3_2 1_555 1_555
C12 N4 1_555 1_555
Co1_3 N1_3 1_555 1_555
C1_3 N1_3 1_555 1_555
C2_2 C3_2 1_555 1_555
C3_2 C4_2 1_555 1_555
C4_2 C14_2 1_555 1_555
C5_3 N2_3 1_555 1_555
C6_3 C7_3 1_555 1_555
C7_3 C8_3 1_555 1_555
C8_3 C11_3 1_555 1_555
C9_3 C6_3 1_555 1_555
C10_3 C9_3 1_555 1_555
C11_3 C10_3 1_555 1_555
C12_2 C2_2 1_555 1_555
N1_3 C2_2 1_555 1_555
N2_3 Co1_3 1_555 1_555
N3_3 C5_3 1_555 1_555
H2_2 C3_2 1_555 1_555
H3_2 C4_2 1_555 1_555
H4_3 C5_3 1_555 1_555
H5_3 C7_3 1_555 1_555
H6_3 C8_3 1_555 1_555
H7_2 C10_3 1_555 1_555
H8_3 C11_3 1_555 1_555
H10_2 C14_2 1_555 1_555
Co3_3 N3_3 1_555 1_555
N5_3 Co1_3 1_555 1_555
N6_3 Co1_3 1_555 1_555
C6_3 N2_3 1_555 1_555
C9_3 N3_3 1_555 1_555
H9_2 C13_2 1_555 1_555
Co2_3 N4_2 1_555 1_555
C2_3 C3_3 1_555 1_555
C3_3 C4_3 1_555 1_555
C4_3 C14_3 1_555 1_555
C12_3 C2_3 1_555 1_555
C13_3 C12_3 1_555 1_555
C14_3 C13_3 1_555 1_555
H2_3 C3_3 1_555 1_555
H3_3 C4_3 1_555 1_555
H10_3 C14_3 1_555 1_555
C12_3 N4_3 1_555 1_555
Co2_3 N1_4 1_555 1_555
C1_4 N1_4 1_555 1_555
C5_4 N2_4 1_555 1_555
C6_4 C7_4 1_555 1_555
C7_4 C8_4 1_555 1_555
C8_4 C11_4 1_555 1_555
C9_4 C6_4 1_555 1_555
C10_4 C9_4 1_555 1_555
C11_4 C10_4 1_555 1_555
N2_4 Co2_3 1_555 1_555
N3_4 C5_4 1_555 1_555
H1_4 C1_4 1_555 1_555
H4_4 C5_4 1_555 1_555
H5_4 C7_4 1_555 1_555
H6_4 C8_4 1_555 1_555
H7_3 C10_4 1_555 1_555
H8_4 C11_4 1_555 1_555
Co3_4 N3_4 1_555 1_555
N5_4 Co2_3 1_555 1_555
C6_4 N2_4 1_555 1_555
C9_4 N3_4 1_555 1_555
Co2 N1_5 1_555 1_555
C2_4 C3_4 1_555 1_555
C3_4 C4_4 1_555 1_555
C4_4 C14_4 1_555 1_555
C12_4 C2_4 1_555 1_555
C13_4 C12_4 1_555 1_555
C14_4 C13_4 1_555 1_555
N1_5 C2_4 1_555 1_555
H2_4 C3_4 1_555 1_555
H3_4 C4_4 1_555 1_555
H9_3 C13_4 1_555 1_555
H10_4 C14_4 1_555 1_555
C5_5 N2_5 1_555 1_555
C6_5 C7_5 1_555 1_555
C7_5 C8_5 1_555 1_555
C8_5 C11_5 1_555 1_555
C9_5 C6_5 1_555 1_555
C10_5 C9_5 1_555 1_555
C11_5 C10_5 1_555 1_555
N3_5 C5_5 1_555 1_555
N4_4 C1_5 1_555 1_555
H1_5 C1_5 1_555 1_555
H6_5 C8_5 1_555 1_555
H8_5 C11_5 1_555 1_555
Co2_4 N4_4 1_555 1_555
C6_5 N2_5 1_555 1_555
C9_5 N3_5 1_555 1_555
Co2_2 N1_6 1_555 1_555
C1_6 N1_6 1_555 1_555
C2_5 C3_5 1_555 1_555
C3_5 C4_5 1_555 1_555
C4_5 C14_5 1_555 1_555
C5_6 N2_6 1_555 1_555
C6_6 C7_6 1_555 1_555
C7_6 C8_6 1_555 1_555
C8_6 C11_6 1_555 1_555
C9_6 C6_6 1_555 1_555
C10_6 C9_6 1_555 1_555
C11_6 C10_6 1_555 1_555
C12_5 C2_5 1_555 1_555
C13_5 C12_5 1_555 1_555
C14_5 C13_5 1_555 1_555
N1_6 C2_5 1_555 1_555
N2_6 Co2_2 1_555 1_555
N3_6 C5_6 1_555 1_555
N4_5 C1_6 1_555 1_555
H1_6 C1_6 1_555 1_555
H2_5 C3_5 1_555 1_555
H3_5 C4_5 1_555 1_555
H4_5 C5_6 1_555 1_555
H5_6 C7_6 1_555 1_555
H6_6 C8_6 1_555 1_555
H7_4 C10_6 1_555 1_555
H8_6 C11_6 1_555 1_555
H9_4 C13_5 1_555 1_555
H10_5 C14_5 1_555 1_555
Co2_5 N4_5 1_555 1_555
Co3_5 N3_6 1_555 1_555
N5_6 Co2_2 1_555 1_555
C6_6 N2_6 1_555 1_555
C9_6 N3_6 1_555 1_555
C12_5 N4_5 1_555 1_555
Co2_5 N1_7 1_555 1_555
C1_7 N1_7 1_555 1_555
C2_6 C3_6 1_555 1_555
C3_6 C4_6 1_555 1_555
C4_6 C14_6 1_555 1_555
C5_7 N2_7 1_555 1_555
C6_7 C7_7 1_555 1_555
C7_7 C8_7 1_555 1_555
C8_7 C11_7 1_555 1_555
C9_7 C6_7 1_555 1_555
C10_7 C9_7 1_555 1_555
C11_7 C10_7 1_555 1_555
C12_6 C2_6 1_555 1_555
C13_6 C12_6 1_555 1_555
C14_6 C13_6 1_555 1_555
N1_7 C2_6 1_555 1_555
N2_7 Co2_5 1_555 1_555
N3_7 C5_7 1_555 1_555
N6_2 C1_7 1_555 1_555
H1_7 C1_7 1_555 1_555
H2_6 C3_6 1_555 1_555
H3_6 C4_6 1_555 1_555
H4_6 C5_7 1_555 1_555
H5_7 C7_7 1_555 1_555
H6_7 C8_7 1_555 1_555
H7_5 C10_7 1_555 1_555
H8_7 C11_7 1_555 1_555
H10_6 C14_6 1_555 1_555
Co3_6 N3_7 1_555 1_555
N5_7 Co2_5 1_555 1_555
C6_7 N2_7 1_555 1_555
C9_7 N3_7 1_555 1_555
C12_6 N6_2 1_555 1_555
C5_8 N2_8 1_555 1_555
C6_8 C7_8 1_555 1_555
C7_8 C8_8 1_555 1_555
C8_8 C11_8 1_555 1_555
C9_8 C6_8 1_555 1_555
C10_8 C9_8 1_555 1_555
C11_8 C10_8 1_555 1_555
N3_8 C5_8 1_555 1_555
N6_3 C1_8 1_555 1_555
H1_8 C1_8 1_555 1_555
H6_8 C8_8 1_555 1_555
H7_6 C10_8 1_555 1_555
H8_8 C11_8 1_555 1_555
C6_8 N2_8 1_555 1_555
C9_8 N3_8 1_555 1_555
H9_6 C13_7 1_555 1_555
Co2_4 N1_8 1_555 1_555
C1_9 N1_8 1_555 1_555
C2_7 C3_7 1_555 1_555
C3_7 C4_7 1_555 1_555
C4_7 C14_7 1_555 1_555
C5_9 N2_9 1_555 1_555
C6_9 C7_9 1_555 1_555
C7_9 C8_9 1_555 1_555
C8_9 C11_9 1_555 1_555
C9_9 C6_9 1_555 1_555
C10_9 C9_9 1_555 1_555
C11_9 C10_9 1_555 1_555
C12_7 C2_7 1_555 1_555
N1_8 C2_7 1_555 1_555
N2_9 Co2_4 1_555 1_555
N3_9 C5_9 1_555 1_555
H2_7 C3_7 1_555 1_555
H3_7 C4_7 1_555 1_555
H4_8 C5_9 1_555 1_555
H5_8 C7_9 1_555 1_555
H6_9 C8_9 1_555 1_555
H7_7 C10_9 1_555 1_555
H8_9 C11_9 1_555 1_555
H10_7 C14_7 1_555 1_555
Co3_8 N3_9 1_555 1_555
N5_9 Co2_4 1_555 1_555
C6_9 N2_9 1_555 1_555
C9_9 N3_9 1_555 1_555
Co3_8 N1_9 1_555 1_555
C1_10 N1_9 1_555 1_555
C5_10 N2_10 1_555 1_555
C6_10 C7_10 1_555 1_555
C7_10 C8_10 1_555 1_555
C8_10 C11_10 1_555 1_555
C9_10 C6_10 1_555 1_555
C10_10 C9_10 1_555 1_555
C11_10 C10_10 1_555 1_555
N2_10 Co3_8 1_555 1_555
N5_6 C5_10 1_555 1_555
H1_10 C1_10 1_555 1_555
H4_9 C5_10 1_555 1_555
H5_9 C7_10 1_555 1_555
H6_10 C8_10 1_555 1_555
H7_8 C10_10 1_555 1_555
H8_10 C11_10 1_555 1_555
N6_4 Co3_8 1_555 1_555
C6_10 N2_10 1_555 1_555
C9_10 N5_6 1_555 1_555
Co3_7 N1_10 1_555 1_555
C1_11 N1_10 1_555 1_555
C2_8 C3_8 1_555 1_555
C3_8 C4_8 1_555 1_555
C4_8 C14_8 1_555 1_555
C5_11 N2_11 1_555 1_555
C6_11 C7_11 1_555 1_555
C7_11 C8_11 1_555 1_555
C8_11 C11_11 1_555 1_555
C9_11 C6_11 1_555 1_555
C10_11 C9_11 1_555 1_555
C11_11 C10_11 1_555 1_555
C12_8 C2_8 1_555 1_555
C13_8 C12_8 1_555 1_555
C14_8 C13_8 1_555 1_555
N1_10 C2_8 1_555 1_555
N2_11 Co3_7 1_555 1_555
N5_5 C5_11 1_555 1_555
N4_6 C1_11 1_555 1_555
H1_11 C1_11 1_555 1_555
H2_8 C3_8 1_555 1_555
H3_8 C4_8 1_555 1_555
H5_10 C7_11 1_555 1_555
H6_11 C8_11 1_555 1_555
H8_11 C11_11 1_555 1_555
H9_7 C13_8 1_555 1_555
H10_8 C14_8 1_555 1_555
Co3 N4_6 1_555 1_555
C6_11 N2_11 1_555 1_555
C9_11 N5_5 1_555 1_555
C12_8 N4_6 1_555 1_555
H9_8 C13_9 1_555 1_555
Co3_3 N4_7 1_555 1_555
Co3_6 N1_11 1_555 1_555
C1_12 N1_11 1_555 1_555
C2_9 C3_9 1_555 1_555
C3_9 C4_9 1_555 1_555
C4_9 C14_9 1_555 1_555
C5_12 N2_12 1_555 1_555
C6_12 C7_12 1_555 1_555
C7_12 C8_12 1_555 1_555
C8_12 C11_12 1_555 1_555
C9_12 C6_12 1_555 1_555
C10_12 C9_12 1_555 1_555
C11_12 C10_12 1_555 1_555
C12_9 C2_9 1_555 1_555
N1_11 C2_9 1_555 1_555
N2_12 Co3_6 1_555 1_555
N5_4 C5_12 1_555 1_555
H2_9 C3_9 1_555 1_555
H3_9 C4_9 1_555 1_555
H4_11 C5_12 1_555 1_555
H5_11 C7_12 1_555 1_555
H6_12 C8_12 1_555 1_555
H7_9 C10_12 1_555 1_555
H8_12 C11_12 1_555 1_555
H10_9 C14_9 1_555 1_555
N6_6 Co3_6 1_555 1_555
C6_12 N2_12 1_555 1_555
C9_12 N5_4 1_555 1_555
Co3_3 N1_12 1_555 1_555
C1_13 N1_12 1_555 1_555
C5_13 N2_13 1_555 1_555
C6_13 C7_13 1_555 1_555
C7_13 C8_13 1_555 1_555
C8_13 C11_13 1_555 1_555
C9_13 C6_13 1_555 1_555
C10_13 C9_13 1_555 1_555
C11_13 C10_13 1_555 1_555
N2_13 Co3_3 1_555 1_555
N5_9 C5_13 1_555 1_555
H1_13 C1_13 1_555 1_555
H4_12 C5_13 1_555 1_555
H5_12 C7_13 1_555 1_555
H6_13 C8_13 1_555 1_555
H7_10 C10_13 1_555 1_555
H8_13 C11_13 1_555 1_555
C6_13 N2_13 1_555 1_555
C9_13 N5_9 1_555 1_555
C2_10 C3_10 1_555 1_555
C3_10 C4_10 1_555 1_555
C4_10 C14_10 1_555 1_555
C12_10 C2_10 1_555 1_555
C13_10 C12_10 1_555 1_555
C14_10 C13_10 1_555 1_555
H2_10 C3_10 1_555 1_555
H3_10 C4_10 1_555 1_555
H10_10 C14_10 1_555 1_555
C12_10 N4_8 1_555 1_555
C5_14 N2_14 1_555 1_555
C6_14 C7_14 1_555 1_555
C7_14 C8_14 1_555 1_555
C8_14 C11_14 1_555 1_555
C9_14 C6_14 1_555 1_555
C10_14 C9_14 1_555 1_555
C11_14 C10_14 1_555 1_555
N5_8 C5_14 1_555 1_555
N4_9 C1_14 1_555 1_555
H1_14 C1_14 1_555 1_555
H6_14 C8_14 1_555 1_555
H8_14 C11_14 1_555 1_555
Co3_4 N4_9 1_555 1_555
C6_14 N2_14 1_555 1_555
C9_14 N5_8 1_555 1_555
Co3_2 N1_13 1_555 1_555
C2_11 C3_11 1_555 1_555
C3_11 C4_11 1_555 1_555
C4_11 C14_11 1_555 1_555
C12_11 C2_11 1_555 1_555
C13_11 C12_11 1_555 1_555
C14_11 C13_11 1_555 1_555
N1_13 C2_11 1_555 1_555
H2_11 C3_11 1_555 1_555
H3_11 C4_11 1_555 1_555
H9_9 C13_11 1_555 1_555
H10_11 C14_11 1_555 1_555
Co3 N1_14 1_555 1_555
C1_15 N1_14 1_555 1_555
C2_12 C3_12 1_555 1_555
C3_12 C4_12 1_555 1_555
C4_12 C14_12 1_555 1_555
C5_15 N2_15 1_555 1_555
C6_15 C7_15 1_555 1_555
C7_15 C8_15 1_555 1_555
C8_15 C11_15 1_555 1_555
C9_15 C6_15 1_555 1_555
C10_15 C9_15 1_555 1_555
C11_15 C10_15 1_555 1_555
C12_12 C2_12 1_555 1_555
C13_12 C12_12 1_555 1_555
C14_12 C13_12 1_555 1_555
N1_14 C2_12 1_555 1_555
N2_15 Co3 1_555 1_555
N5_7 C5_15 1_555 1_555
N4_10 C1_15 1_555 1_555
H1_15 C1_15 1_555 1_555
H2_12 C3_12 1_555 1_555
H3_12 C4_12 1_555 1_555
H4_13 C5_15 1_555 1_555
H5_14 C7_15 1_555 1_555
H6_15 C8_15 1_555 1_555
H7_11 C10_15 1_555 1_555
H8_15 C11_15 1_555 1_555
H9_10 C13_12 1_555 1_555
H10_12 C14_12 1_555 1_555
Co3_5 N4_10 1_555 1_555
C6_15 N2_15 1_555 1_555
C9_15 N5_7 1_555 1_555
C12_12 N4_10 1_555 1_555
Co3_5 N1_15 1_555 1_555
C1_16 N1_15 1_555 1_555
C2_13 C3_13 1_555 1_555
C3_13 C4_13 1_555 1_555
C4_13 C14_13 1_555 1_555
C5_16 N2_16 1_555 1_555
C6_16 C7_16 1_555 1_555
C7_16 C8_16 1_555 1_555
C8_16 C11_16 1_555 1_555
C9_16 C6_16 1_555 1_555
C10_16 C9_16 1_555 1_555
C11_16 C10_16 1_555 1_555
C12_13 C2_13 1_555 1_555
C13_13 C12_13 1_555 1_555
C14_13 C13_13 1_555 1_555
N1_15 C2_13 1_555 1_555
N2_16 Co3_5 1_555 1_555
N5_3 C5_16 1_555 1_555
N6_5 C1_16 1_555 1_555
H1_16 C1_16 1_555 1_555
H2_13 C3_13 1_555 1_555
H3_13 C4_13 1_555 1_555
H4_14 C5_16 1_555 1_555
H5_15 C7_16 1_555 1_555
H6_16 C8_16 1_555 1_555
H7_12 C10_16 1_555 1_555
H8_16 C11_16 1_555 1_555
H10_13 C14_13 1_555 1_555
C6_16 N2_16 1_555 1_555
C9_16 N5_3 1_555 1_555
C12_13 N6_5 1_555 1_555
C5_17 N2_17 1_555 1_555
C6_17 C7_17 1_555 1_555
C7_17 C8_17 1_555 1_555
C8_17 C11_17 1_555 1_555
C9_17 C6_17 1_555 1_555
C10_17 C9_17 1_555 1_555
C11_17 C10_17 1_555 1_555
N5_2 C5_17 1_555 1_555
N6_6 C1_17 1_555 1_555
H1_17 C1_17 1_555 1_555
H6_17 C8_17 1_555 1_555
H7_13 C10_17 1_555 1_555
H8_17 C11_17 1_555 1_555
C6_17 N2_17 1_555 1_555
C9_17 N5_2 1_555 1_555
Co3_4 N1_16 1_555 1_555
C1_18 N1_16 1_555 1_555
C2_14 C3_14 1_555 1_555
C3_14 C4_14 1_555 1_555
C4_14 C14_14 1_555 1_555
C5_18 N2_18 1_555 1_555
C6_18 C7_18 1_555 1_555
C7_18 C8_18 1_555 1_555
C8_18 C11_18 1_555 1_555
C9_18 C6_18 1_555 1_555
C10_18 C9_18 1_555 1_555
C11_18 C10_18 1_555 1_555
C12_14 C2_14 1_555 1_555
N1_16 C2_14 1_555 1_555
N2_18 Co3_4 1_555 1_555
N5 C5_18 1_555 1_555
H2_14 C3_14 1_555 1_555
H3_14 C4_14 1_555 1_555
H4_16 C5_18 1_555 1_555
H5_16 C7_18 1_555 1_555
H6_18 C8_18 1_555 1_555
H7_14 C10_18 1_555 1_555
H8_18 C11_18 1_555 1_555
H10_14 C14_14 1_555 1_555
C6_18 N2_18 1_555 1_555
C9_18 N5 1_555 1_555
H9_12 C13_14 1_555 1_555
C2_15 C3_15 1_555 1_555
C3_15 C4_15 1_555 1_555
C4_15 C14_15 1_555 1_555
C12_15 C2_15 1_555 1_555
C13_15 C12_15 1_555 1_555
C14_15 C13_15 1_555 1_555
H2_15 C3_15 1_555 1_555
H3_15 C4_15 1_555 1_555
H10_15 C14_15 1_555 1_555
C12_15 N4_11 1_555 1_555
Co3_9 N1_17 1_555 1_555
C2_16 C3_16 1_555 1_555
C3_16 C4_16 1_555 1_555
C4_16 C14_16 1_555 1_555
C12_16 C2_16 1_555 1_555
C13_16 C12_16 1_555 1_555
C14_16 C13_16 1_555 1_555
N1_17 C2_16 1_555 1_555
H2_16 C3_16 1_555 1_555
H3_16 C4_16 1_555 1_555
H9_13 C13_16 1_555 1_555
H10_16 C14_16 1_555 1_555
Co2_6 N1_18 1_555 1_555
C2_17 C3_17 1_555 1_555
C3_17 C4_17 1_555 1_555
C4_17 C14_17 1_555 1_555
C12_17 C2_17 1_555 1_555
C13_17 C12_17 1_555 1_555
C14_17 C13_17 1_555 1_555
N1_18 C2_17 1_555 1_555
H2_17 C3_17 1_555 1_555
H3_17 C4_17 1_555 1_555
H9_16 C13_17 1_555 1_555
H10_17 C14_17 1_555 1_555
C2_18 C3_18 1_555 1_555
C3_18 C4_18 1_555 1_555
C4_18 C14_18 1_555 1_555
C12_18 C2_18 1_555 1_555
C13_18 C12_18 1_555 1_555
C14_18 C13_18 1_555 1_555
H2_18 C3_18 1_555 1_555
H3_18 C4_18 1_555 1_555
H10_18 C14_18 1_555 1_555
C12_18 N4_12 1_555 1_555

#END
