
###############################################################################
#
# This file contains modified crystal structure data generated from the
# MOF subset of the Cambridge Structural Database (CSD) v543 
# hosted by the Cambridge Crystallographic Data Centre (CCDC).
#
# This work is licensed under the Creative Commons
# Attribution-NonCommercial-ShareAlike 4.0 International License.
# To view a copy of this license, visit
# http://creativecommons.org/licenses/by-nc-sa/4.0/
# or send a letter to
# Creative Commons, PO Box 1866, Mountain View, CA 94042, USA.
#
# CIF created using the CSD Python API on 29 September 2022
# The structure has been converted into the P1 space group
# The structure has a 3D framework
# The original CSD entry QOVXEG02 is in the rhombohedral crystal system
# The framework has been calculated to contain at least 10.0% void space
# The void calculation uses a probe of radius 1.32A, grid spacing 0.4
#
###############################################################################

data_QOVXEG02
_chemical_formula_moiety         '(C252 H180 Co18 N72)n'
_symmetry_cell_setting           triclinic
_symmetry_space_group_name_H-M   'P 1'
_symmetry_Int_Tables_number      1
_space_group_name_Hall           'P 1'
loop_
_symmetry_equiv_pos_site_id
_symmetry_equiv_pos_as_xyz
1 x,y,z
_cell_length_a                   23.0110(8)
_cell_length_b                   23.0110(8)
_cell_length_c                   15.7647(7)
_cell_angle_alpha                90
_cell_angle_beta                 90
_cell_angle_gamma                120
_cell_volume                     7229.15
loop_
_atom_site_label
_atom_site_type_symbol
_atom_site_fract_x
_atom_site_fract_y
_atom_site_fract_z
Co1 Co 0.40361(2) 0.065623(19) 0.32560(2)
C1 C 0.33781(15) 0.03327(15) 0.15800(19)
C5 C 0.39309(15) 0.19221(15) 0.33969(17)
C6 C 0.45281(15) 0.19628(15) 0.23332(19)
C7 C 0.48890(19) 0.18533(18) 0.1707(2)
C8 C 0.5233(2) 0.2365(2) 0.1136(2)
C9 C 0.45173(15) 0.25596(15) 0.23785(19)
C10 C 0.48772(18) 0.30791(18) 0.1802(2)
C11 C 0.5232(2) 0.2964(2) 0.1183(2)
N1 N 0.36676(12) 0.01551(12) 0.21802(14)
N2 N 0.41394(12) 0.15530(12) 0.30014(14)
N3 N 0.41264(12) 0.25292(12) 0.30727(14)
H1 H 0.3335 0.0719 0.1614
H4 H 0.3664 0.1766 0.3891
H5 H 0.4884 0.1441 0.1674
H6 H 0.5473 0.2308 0.0682
H7 H 0.4884 0.3497 0.1842
H8 H 0.5482 0.3311 0.0780
Co3 Co 0.398956(19) 0.328680(28) 0.34107(2)
N5 N 0.49305(17) 0.07931(12) 0.35940(14)
N6 N 0.34495(17) 0.01945(12) 0.42441(14)
Co2 Co 0.267710(19) 0.004654(28) 0.99227(2)
C5_2 C 0.72642(15) 0.85888(15) 0.00636(17)
H4_2 H 0.6997 0.8433 0.0558
Co3_2 Co 0.732290(19) 0.995346(28) 0.00773(2)
N5_2 N 0.82639(17) 0.74597(12) 0.02606(14)
N6_2 N 0.67828(17) 0.68612(12) 0.09108(14)
Co1_2 Co 0.73694(2) 0.732290(19) 0.99227(2)
C1_2 C 0.67114(15) 0.69994(15) 0.82467(19)
C2 C 0.69489(15) 0.62354(15) 0.85433(19)
C3 C 0.71470(16) 0.58076(17) 0.8903(2)
C4 C 0.70185(19) 0.52463(19) 0.8452(3)
C6_2 C 0.78614(15) 0.86295(15) 0.89999(19)
C7_2 C 0.82223(19) 0.85200(18) 0.8374(2)
C8_2 C 0.8566(2) 0.9032(2) 0.7803(2)
C9_2 C 0.78506(15) 0.92263(15) 0.90452(19)
C10_2 C 0.82105(18) 0.97458(18) 0.8469(2)
C11_2 C 0.8565(2) 0.9631(2) 0.7850(2)
C12 C 0.66228(14) 0.60908(14) 0.77566(19)
C13 C 0.65034(16) 0.55243(17) 0.7295(2)
C14 C 0.6709(2) 0.51135(18) 0.7667(3)
N1_2 N 0.70009(12) 0.68218(12) 0.88469(14)
N2_2 N 0.74727(12) 0.82197(12) 0.96681(14)
N3_2 N 0.74597(12) 0.91959(12) 0.97394(14)
N4 N 0.64721(12) 0.65883(12) 0.75775(14)
H1_2 H 0.6668 0.7386 0.8281
H2 H 0.7357 0.5909 0.9443
H3 H 0.7154 0.4959 0.8682
H5_2 H 0.8217 0.8108 0.8341
H6_2 H 0.8806 0.8975 0.7349
H8_2 H 0.8815 0.9978 0.7447
H9 H 0.6276 0.5427 0.6771
H10 H 0.6642 0.4727 0.7359
Co2_2 Co 0.601044(19) 0.671320(28) 0.65893(2)
Co1_3 Co 0.07028(2) 0.398956(19) 0.65893(2)
C1_3 C 0.00448(15) 0.36660(15) 0.49133(19)
C2_2 C 0.02823(15) 0.29020(15) 0.52099(19)
C3_2 C 0.04804(16) 0.24742(17) 0.5569(2)
C4_2 C 0.03519(19) 0.19129(19) 0.5118(3)
C5_3 C 0.05976(15) 0.52554(15) 0.67302(17)
C6_3 C 0.11948(15) 0.52961(15) 0.56665(19)
C7_3 C 0.15557(19) 0.51866(18) 0.5040(2)
C8_3 C 0.1900(2) 0.5698(2) 0.4469(2)
C9_3 C 0.11840(15) 0.58929(15) 0.57118(19)
C10_3 C 0.15439(18) 0.64124(18) 0.5135(2)
C11_3 C 0.1899(2) 0.6297(2) 0.4516(2)
C14_2 C 0.0043(2) 0.17801(18) 0.4333(3)
N1_3 N 0.03343(12) 0.34884(12) 0.55135(14)
N2_3 N 0.08061(12) 0.48863(12) 0.63347(14)
N3_3 N 0.07931(12) 0.58625(12) 0.64060(14)
H1_3 H 0.0002 0.4052 0.4947
H2_2 H 0.0691 0.2575 0.6109
H3_2 H 0.0488 0.1625 0.5348
H4_3 H 0.0331 0.5099 0.7224
H5_3 H 0.1551 0.4774 0.5007
H6_3 H 0.2140 0.5641 0.4015
H7_2 H 0.1551 0.6830 0.5175
H8_3 H 0.2149 0.6644 0.4113
Co3_3 Co 0.065623(19) 0.662013(28) 0.67440(2)
N5_3 N 0.15972(17) 0.41264(12) 0.69273(14)
N6_3 N 0.01161(17) 0.35279(12) 0.75775(14)
C12_2 C 0.99562(14) 0.27574(14) 0.44232(19)
C13_2 C 0.98368(16) 0.21909(17) 0.3961(2)
N4_2 N 0.98055(12) 0.32549(12) 0.42441(14)
H9_2 H 0.9610 0.2093 0.3437
H10_2 H 0.9976 0.1393 0.4025
Co2_3 Co 0.934377(19) 0.337987(28) 0.32560(2)
C2_3 C 0.04313(15) 0.40469(21) 0.18766(19)
C3_3 C 0.08591(17) 0.46728(23) 0.2236(2)
C4_3 C 0.14204(19) 0.51056(27) 0.1785(3)
C12_3 C 0.05759(14) 0.38654(20) 0.10899(19)
C13_3 C 0.11424(17) 0.43125(23) 0.0628(2)
C14_3 C 0.15532(18) 0.49292(27) 0.1000(3)
N4_3 N 0.00784(12) 0.32172(17) 0.09108(14)
H2_3 H 0.0758 0.4782 0.2776
H3_3 H 0.1708 0.5529 0.2015
H9_3 H 0.1240 0.4183 0.0104
H10_3 H 0.1940 0.5249 0.0692
C1_4 C 0.96673(15) 0.30454(21) 0.15800(19)
C5_4 C 0.80779(15) 0.20088(21) 0.33969(17)
C6_4 C 0.80372(15) 0.25653(21) 0.23332(19)
C7_4 C 0.81467(18) 0.30357(26) 0.1707(2)
C8_4 C 0.7635(2) 0.2868(3) 0.1136(2)
C9_4 C 0.74404(15) 0.19577(21) 0.23785(19)
C10_4 C 0.69209(18) 0.17981(25) 0.1802(2)
C11_4 C 0.7036(2) 0.2268(3) 0.1183(2)
N1_4 N 0.98449(12) 0.35125(17) 0.21802(14)
N2_4 N 0.84470(12) 0.25864(17) 0.30014(14)
N3_4 N 0.74708(12) 0.15972(17) 0.30727(14)
H1_4 H 0.9281 0.2616 0.1614
H4_4 H 0.8234 0.1898 0.3891
H5_4 H 0.8559 0.3443 0.1674
H6_4 H 0.7692 0.3165 0.0682
H7_3 H 0.6503 0.1387 0.1842
H8_4 H 0.6689 0.2171 0.0780
Co3_4 Co 0.671320(28) 0.070277(34) 0.34107(2)
N5_4 N 0.92069(12) 0.41375(21) 0.35940(14)
N5_5 N 0.25403(12) 0.08041(21) 0.02606(14)
C2_4 C 0.37646(15) 0.07136(21) 0.85433(19)
C3_4 C 0.41924(17) 0.13395(23) 0.8903(2)
C4_4 C 0.47537(19) 0.17723(27) 0.8452(3)
C12_4 C 0.39092(14) 0.05321(20) 0.77566(19)
C13_4 C 0.44757(17) 0.09792(23) 0.7295(2)
C14_4 C 0.48865(18) 0.15959(27) 0.7667(3)
N1_5 N 0.31782(12) 0.01792(17) 0.88469(14)
H2_4 H 0.4091 0.1449 0.9443
H3_4 H 0.5041 0.2196 0.8682
H5_5 H 0.1892 0.0110 0.8341
H9_4 H 0.4573 0.0850 0.6771
H10_4 H 0.5273 0.1916 0.7359
C1_5 C 0.30006(15) 0.97121(21) 0.82467(19)
C6_5 C 0.13705(15) 0.92320(21) 0.89999(19)
C7_5 C 0.14800(18) 0.97024(26) 0.8374(2)
C8_5 C 0.0968(2) 0.9535(3) 0.7803(2)
C9_5 C 0.07737(15) 0.86244(21) 0.90452(19)
C10_5 C 0.02542(18) 0.84648(25) 0.8469(2)
C11_5 C 0.0369(2) 0.8935(3) 0.7850(2)
N2_5 N 0.17803(12) 0.92531(17) 0.96681(14)
N3_5 N 0.08041(12) 0.82639(17) 0.97394(14)
N4_4 N 0.34117(12) 0.98839(17) 0.75775(14)
H1_5 H 0.2614 0.9283 0.8281
H6_5 H 0.1025 0.9832 0.7349
H8_5 H 0.0022 0.8838 0.7447
Co2_4 Co 0.328680(28) 0.929723(34) 0.65893(2)
C1_6 C 0.63340(15) 0.63787(21) 0.49133(19)
C2_5 C 0.70980(15) 0.73802(21) 0.52099(19)
C3_5 C 0.75258(17) 0.80061(23) 0.5569(2)
C4_5 C 0.80871(19) 0.84389(27) 0.5118(3)
C5_5 C 0.47446(15) 0.53421(21) 0.67302(17)
C6_6 C 0.47039(15) 0.58986(21) 0.56665(19)
C7_6 C 0.48134(18) 0.63690(26) 0.5040(2)
C8_6 C 0.4302(2) 0.6201(3) 0.4469(2)
C9_6 C 0.41071(15) 0.52910(21) 0.57118(19)
C10_6 C 0.35876(18) 0.51314(25) 0.5135(2)
C11_6 C 0.3703(2) 0.5601(3) 0.4516(2)
C12_5 C 0.72426(14) 0.71987(20) 0.44232(19)
C13_5 C 0.78091(17) 0.76458(23) 0.3961(2)
C14_5 C 0.82199(18) 0.82625(27) 0.4333(3)
N1_6 N 0.65116(12) 0.68458(17) 0.55135(14)
N2_6 N 0.51137(12) 0.59197(17) 0.63347(14)
N3_6 N 0.41375(12) 0.49305(17) 0.64060(14)
N4_5 N 0.67451(12) 0.65505(17) 0.42441(14)
H1_6 H 0.5948 0.5949 0.4947
H2_5 H 0.7425 0.8115 0.6109
H3_5 H 0.8375 0.8862 0.5348
H4_5 H 0.4901 0.5231 0.7224
H5_6 H 0.5226 0.6776 0.5007
H6_6 H 0.4359 0.6498 0.4015
H7_4 H 0.3170 0.4720 0.5175
H8_6 H 0.3356 0.5504 0.4113
H9_5 H 0.7907 0.7516 0.3437
H10_5 H 0.8607 0.8582 0.4025
Co2_5 Co 0.662013(28) 0.596390(34) 0.32560(2)
Co3_5 Co 0.337987(28) 0.403610(34) 0.67440(2)
N5_6 N 0.58736(12) 0.74708(21) 0.69273(14)
C1_7 C 0.69546(21) 0.66219(15) 0.15800(19)
C2_6 C 0.59531(21) 0.63844(15) 0.18766(19)
C3_6 C 0.53272(23) 0.61863(16) 0.2236(2)
C4_6 C 0.48944(27) 0.63148(19) 0.1785(3)
C5_6 C 0.79912(21) 0.60691(15) 0.33969(17)
C6_7 C 0.74347(21) 0.54719(15) 0.23332(19)
C7_7 C 0.69643(26) 0.51110(19) 0.1707(2)
C8_7 C 0.7132(3) 0.4767(2) 0.1136(2)
C9_7 C 0.80423(21) 0.54827(15) 0.23785(19)
C10_7 C 0.82019(25) 0.51228(18) 0.1802(2)
C11_7 C 0.7732(3) 0.4768(2) 0.1183(2)
C12_6 C 0.61346(20) 0.67105(14) 0.10899(19)
C13_6 C 0.56875(23) 0.68299(16) 0.0628(2)
C14_6 C 0.50708(27) 0.6624(2) 0.1000(3)
N1_7 N 0.64875(17) 0.63324(12) 0.21802(14)
N2_7 N 0.74136(17) 0.58606(12) 0.30014(14)
N3_7 N 0.84028(17) 0.58736(12) 0.30727(14)
H1_7 H 0.7384 0.6665 0.1614
H2_6 H 0.5218 0.5976 0.2776
H3_6 H 0.4471 0.6179 0.2015
H4_6 H 0.8102 0.6336 0.3891
H5_7 H 0.6557 0.5116 0.1674
H6_7 H 0.6835 0.4527 0.0682
H7_5 H 0.8613 0.5116 0.1842
H8_7 H 0.7829 0.4518 0.0780
H9_6 H 0.5817 0.7057 0.0104
H10_6 H 0.4751 0.6691 0.0692
Co3_6 Co 0.929723(34) 0.601044(19) 0.34107(2)
N5_7 N 0.58625(21) 0.50695(17) 0.35940(14)
C5_7 C 0.13245(21) 0.27358(15) 0.00636(17)
H4_7 H 0.1435 0.3003 0.0558
Co3_7 Co 0.263057(34) 0.267710(19) 0.00773(2)
C1_8 C 0.02879(21) 0.32886(15) 0.82467(19)
C6_8 C 0.07680(21) 0.21386(15) 0.89999(19)
C7_8 C 0.02976(26) 0.17777(19) 0.8374(2)
C8_8 C 0.0465(3) 0.1434(2) 0.7803(2)
C9_8 C 0.13756(21) 0.21494(15) 0.90452(19)
C10_8 C 0.15352(25) 0.17895(18) 0.8469(2)
C11_8 C 0.1065(3) 0.1435(2) 0.7850(2)
N2_8 N 0.07469(17) 0.25273(12) 0.96681(14)
N3_8 N 0.17361(17) 0.25403(12) 0.97394(14)
H1_8 H 0.0717 0.3332 0.8281
H6_8 H 0.0168 0.1194 0.7349
H7_6 H 0.1946 0.1783 0.8509
H8_8 H 0.1162 0.1185 0.7447
N5_8 N 0.91959(21) 0.17361(17) 0.02606(14)
C12_7 C 0.28013(20) 0.00438(14) 0.44232(19)
C13_7 C 0.23542(23) 0.01632(16) 0.3961(2)
H9_7 H 0.2484 0.0390 0.3437
H10_7 H 0.1418 0.0024 0.4025
C1_9 C 0.36213(21) 0.99552(15) 0.49133(19)
C2_7 C 0.26198(21) 0.97177(15) 0.52099(19)
C3_7 C 0.19939(23) 0.95196(16) 0.5569(2)
C4_7 C 0.15611(27) 0.96481(19) 0.5118(3)
C5_8 C 0.46579(21) 0.94024(15) 0.67302(17)
C6_9 C 0.41014(21) 0.88052(15) 0.56665(19)
C7_9 C 0.36310(26) 0.84443(19) 0.5040(2)
C8_9 C 0.3799(3) 0.8100(2) 0.4469(2)
C9_9 C 0.47090(21) 0.88160(15) 0.57118(19)
C10_9 C 0.48686(25) 0.84561(18) 0.5135(2)
C11_9 C 0.4399(3) 0.8101(2) 0.4516(2)
C14_7 C 0.17375(27) 0.9957(2) 0.4333(3)
N1_8 N 0.31542(17) 0.96657(12) 0.55135(14)
N2_9 N 0.40803(17) 0.91939(12) 0.63347(14)
N3_9 N 0.50695(17) 0.92069(12) 0.64060(14)
H1_9 H 0.4051 0.9998 0.4947
H2_7 H 0.1885 0.9309 0.6109
H3_7 H 0.1138 0.9512 0.5348
H4_8 H 0.4769 0.9669 0.7224
H5_8 H 0.3224 0.8449 0.5007
H6_9 H 0.3502 0.7860 0.4015
H7_7 H 0.5280 0.8449 0.5175
H8_9 H 0.4496 0.7851 0.4113
Co3_8 Co 0.596390(34) 0.934377(19) 0.67440(2)
N5_9 N 0.25292(21) 0.84028(17) 0.69273(14)
C1_10 C 0.66219(15) 0.96673(15) 0.84200(19)
C5_9 C 0.60691(15) 0.80779(15) 0.66031(17)
C6_10 C 0.54719(15) 0.80372(15) 0.76668(19)
C7_10 C 0.51110(19) 0.81467(18) 0.8293(2)
C8_10 C 0.4767(2) 0.7635(2) 0.8864(2)
C9_10 C 0.54827(15) 0.74404(15) 0.76215(19)
C10_10 C 0.51228(18) 0.69209(18) 0.8198(2)
C11_10 C 0.4768(2) 0.7036(2) 0.8817(2)
N1_9 N 0.63324(12) 0.98449(12) 0.78198(14)
N2_10 N 0.58606(12) 0.84470(12) 0.69986(14)
H1_10 H 0.6665 0.9281 0.8386
H4_9 H 0.6336 0.8234 0.6109
H5_9 H 0.5116 0.8559 0.8326
H6_10 H 0.4527 0.7692 0.9318
H7_8 H 0.5116 0.6503 0.8158
H8_10 H 0.4518 0.6689 0.9220
N6_4 N 0.65505(17) 0.98055(12) 0.57559(14)
C1_11 C 0.32886(15) 0.30006(15) 0.17533(19)
C2_8 C 0.30511(15) 0.37646(15) 0.14567(19)
C3_8 C 0.28530(16) 0.41924(17) 0.1097(2)
C4_8 C 0.29815(19) 0.47537(19) 0.1548(3)
C6_11 C 0.21386(15) 0.13705(15) 0.10001(19)
C7_11 C 0.17777(19) 0.14800(18) 0.1626(2)
C8_11 C 0.1434(2) 0.0968(2) 0.2197(2)
C9_11 C 0.21494(15) 0.07737(15) 0.09548(19)
C10_11 C 0.17895(18) 0.02542(18) 0.1531(2)
C11_11 C 0.1435(2) 0.0369(2) 0.2150(2)
C12_8 C 0.33772(14) 0.39092(14) 0.22434(19)
C13_8 C 0.34966(16) 0.44757(17) 0.2705(2)
C14_8 C 0.3291(2) 0.48865(18) 0.2333(3)
N1_10 N 0.29991(12) 0.31782(12) 0.11531(14)
N2_11 N 0.25273(12) 0.17803(12) 0.03319(14)
N4_6 N 0.35279(12) 0.34117(12) 0.24225(14)
H1_11 H 0.3332 0.2614 0.1719
H2_8 H 0.2643 0.4091 0.0557
H3_8 H 0.2846 0.5041 0.1318
H5_10 H 0.1783 0.1892 0.1659
H6_11 H 0.1194 0.1025 0.2651
H8_11 H 0.1185 0.0022 0.2553
H9_8 H 0.3724 0.4573 0.3229
H10_8 H 0.3358 0.5273 0.2641
C5_10 C 0.27358(15) 0.14112(15) 0.99364(17)
H4_10 H 0.3003 0.1567 0.9442
N6_5 N 0.32172(17) 0.31388(12) 0.90892(14)
C12_9 C 0.00438(14) 0.72426(14) 0.55768(19)
C13_9 C 0.01632(16) 0.78091(17) 0.6039(2)
N4_7 N 0.01945(12) 0.67451(12) 0.57559(14)
H9_9 H 0.0390 0.7907 0.6563
H10_9 H 0.0024 0.8607 0.5975
C1_12 C 0.99552(15) 0.63340(15) 0.50867(19)
C2_9 C 0.97177(15) 0.70980(15) 0.47901(19)
C3_9 C 0.95196(16) 0.75258(17) 0.4431(2)
C4_9 C 0.96481(19) 0.80871(19) 0.4882(3)
C5_11 C 0.94024(15) 0.47446(15) 0.32698(17)
C6_12 C 0.88052(15) 0.47039(15) 0.43335(19)
C7_12 C 0.84443(19) 0.48134(18) 0.4960(2)
C8_12 C 0.8100(2) 0.4302(2) 0.5531(2)
C9_12 C 0.88160(15) 0.41071(15) 0.42882(19)
C10_12 C 0.84561(18) 0.35876(18) 0.4865(2)
C11_12 C 0.8101(2) 0.3703(2) 0.5484(2)
C14_9 C 0.9957(2) 0.82199(18) 0.5667(3)
N1_11 N 0.96657(12) 0.65116(12) 0.44865(14)
N2_12 N 0.91939(12) 0.51137(12) 0.36653(14)
H1_12 H 0.9998 0.5948 0.5053
H2_9 H 0.9309 0.7425 0.3891
H3_9 H 0.9512 0.8375 0.4652
H4_11 H 0.9669 0.4901 0.2776
H5_11 H 0.8449 0.5226 0.4993
H6_12 H 0.7860 0.4359 0.5985
H7_9 H 0.8449 0.3170 0.4825
H8_12 H 0.7851 0.3356 0.5887
N6_6 N 0.98839(17) 0.64721(12) 0.24225(14)
C1_13 C 0.03327(15) 0.69546(21) 0.84200(19)
C5_12 C 0.19221(15) 0.79912(21) 0.66031(17)
C6_13 C 0.19628(15) 0.74347(21) 0.76668(19)
C7_13 C 0.18533(18) 0.69643(26) 0.8293(2)
C8_13 C 0.2365(2) 0.7132(3) 0.8864(2)
C9_13 C 0.25596(15) 0.80423(21) 0.76215(19)
C10_13 C 0.30791(18) 0.82019(25) 0.8198(2)
C11_13 C 0.2964(2) 0.7732(3) 0.8817(2)
N1_12 N 0.01551(12) 0.64875(17) 0.78198(14)
N2_13 N 0.15530(12) 0.74136(17) 0.69986(14)
H1_13 H 0.0719 0.7384 0.8386
H4_12 H 0.1766 0.8102 0.6109
H5_12 H 0.1441 0.6557 0.8326
H6_13 H 0.2308 0.6835 0.9318
H7_10 H 0.3497 0.8613 0.8158
H8_13 H 0.3311 0.7829 0.9220
C2_10 C 0.95687(15) 0.59531(21) 0.81234(19)
C3_10 C 0.91409(17) 0.53272(23) 0.7764(2)
C4_10 C 0.85796(19) 0.48944(27) 0.8215(3)
C12_10 C 0.94241(14) 0.61346(20) 0.89101(19)
C13_10 C 0.88576(17) 0.56875(23) 0.9372(2)
C14_10 C 0.84468(18) 0.50708(27) 0.9000(3)
N4_8 N 0.99216(12) 0.67828(17) 0.90892(14)
H2_10 H 0.9242 0.5218 0.7224
H3_10 H 0.8292 0.4471 0.7985
H9_10 H 0.8760 0.5817 0.9896
H10_10 H 0.8060 0.4751 0.9308
C1_14 C 0.69994(15) 0.02879(21) 0.17533(19)
C6_14 C 0.86295(15) 0.07680(21) 0.10001(19)
C7_14 C 0.85200(18) 0.02976(26) 0.1626(2)
C8_14 C 0.9032(2) 0.0465(3) 0.2197(2)
C9_14 C 0.92263(15) 0.13756(21) 0.09548(19)
C10_14 C 0.97458(18) 0.15352(25) 0.1531(2)
C11_14 C 0.9631(2) 0.1065(3) 0.2150(2)
N2_14 N 0.82197(12) 0.07469(17) 0.03319(14)
N4_9 N 0.65883(12) 0.01161(17) 0.24225(14)
H1_14 H 0.7386 0.0717 0.1719
H6_14 H 0.8975 0.0168 0.2651
H8_14 H 0.9978 0.1162 0.2553
C2_11 C 0.62354(15) 0.92864(21) 0.14567(19)
C3_11 C 0.58076(17) 0.86605(23) 0.1097(2)
C4_11 C 0.52463(19) 0.82277(27) 0.1548(3)
C12_11 C 0.60908(14) 0.94679(20) 0.22434(19)
C13_11 C 0.55243(17) 0.90208(23) 0.2705(2)
C14_11 C 0.51135(18) 0.84041(27) 0.2333(3)
N1_13 N 0.68218(12) 0.98208(17) 0.11531(14)
H2_11 H 0.5909 0.8551 0.0557
H3_11 H 0.4959 0.7804 0.1318
H5_13 H 0.8108 0.9890 0.1659
H9_11 H 0.5427 0.9150 0.3229
H10_11 H 0.4727 0.8084 0.2641
C1_15 C 0.36660(15) 0.36213(21) 0.50867(19)
C2_12 C 0.29020(15) 0.26198(21) 0.47901(19)
C3_12 C 0.24742(17) 0.19939(23) 0.4431(2)
C4_12 C 0.19129(19) 0.15611(27) 0.4882(3)
C5_13 C 0.52554(15) 0.46579(21) 0.32698(17)
C6_15 C 0.52961(15) 0.41014(21) 0.43335(19)
C7_15 C 0.51866(18) 0.36310(26) 0.4960(2)
C8_15 C 0.5698(2) 0.3799(3) 0.5531(2)
C9_15 C 0.58929(15) 0.47090(21) 0.42882(19)
C10_15 C 0.64124(18) 0.48686(25) 0.4865(2)
C11_15 C 0.6297(2) 0.4399(3) 0.5484(2)
C12_12 C 0.27574(14) 0.28013(20) 0.55768(19)
C13_12 C 0.21909(17) 0.23542(23) 0.6039(2)
C14_12 C 0.17801(18) 0.17375(27) 0.5667(3)
N1_14 N 0.34884(12) 0.31542(17) 0.44865(14)
N2_15 N 0.48863(12) 0.40803(17) 0.36653(14)
N4_10 N 0.32549(12) 0.34495(17) 0.57559(14)
H1_15 H 0.4052 0.4051 0.5053
H2_12 H 0.2575 0.1885 0.3891
H3_12 H 0.1625 0.1138 0.4652
H4_13 H 0.5099 0.4769 0.2776
H5_14 H 0.4774 0.3224 0.4993
H6_15 H 0.5641 0.3502 0.5985
H7_11 H 0.6830 0.5280 0.4825
H8_15 H 0.6644 0.4496 0.5887
H9_12 H 0.2093 0.2484 0.6563
H10_12 H 0.1393 0.1418 0.5975
C1_16 C 0.30454(21) 0.33781(15) 0.84200(19)
C2_13 C 0.40469(21) 0.36156(15) 0.81234(19)
C3_13 C 0.46728(23) 0.38137(16) 0.7764(2)
C4_13 C 0.51056(27) 0.36852(19) 0.8215(3)
C5_14 C 0.20088(21) 0.39309(15) 0.66031(17)
C6_16 C 0.25653(21) 0.45281(15) 0.76668(19)
C7_16 C 0.30357(26) 0.48890(19) 0.8293(2)
C8_16 C 0.2868(3) 0.5233(2) 0.8864(2)
C9_16 C 0.19577(21) 0.45173(15) 0.76215(19)
C10_16 C 0.17981(25) 0.48772(18) 0.8198(2)
C11_16 C 0.2268(3) 0.5232(2) 0.8817(2)
C12_13 C 0.38654(20) 0.32895(14) 0.89101(19)
C13_13 C 0.43125(23) 0.31701(16) 0.9372(2)
C14_13 C 0.49292(27) 0.3376(2) 0.9000(3)
N1_15 N 0.35125(17) 0.36676(12) 0.78198(14)
N2_16 N 0.25864(17) 0.41394(12) 0.69986(14)
H1_16 H 0.2616 0.3335 0.8386
H2_13 H 0.4782 0.4024 0.7224
H3_13 H 0.5529 0.3821 0.7985
H4_14 H 0.1898 0.3664 0.6109
H5_15 H 0.3443 0.4884 0.8326
H6_16 H 0.3165 0.5473 0.9318
H7_12 H 0.1387 0.4884 0.8158
H8_16 H 0.2171 0.5482 0.9220
H9_13 H 0.4183 0.2943 0.9896
H10_13 H 0.5249 0.3309 0.9308
C1_17 C 0.97121(21) 0.67114(15) 0.17533(19)
C6_17 C 0.92320(21) 0.78614(15) 0.10001(19)
C7_17 C 0.97024(26) 0.82223(19) 0.1626(2)
C8_17 C 0.9535(3) 0.8566(2) 0.2197(2)
C9_17 C 0.86244(21) 0.78506(15) 0.09548(19)
C10_17 C 0.84648(25) 0.82105(18) 0.1531(2)
C11_17 C 0.8935(3) 0.8565(2) 0.2150(2)
N2_17 N 0.92531(17) 0.74727(12) 0.03319(14)
H1_17 H 0.9283 0.6668 0.1719
H6_17 H 0.9832 0.8806 0.2651
H7_13 H 0.8054 0.8217 0.1491
H8_17 H 0.8838 0.8815 0.2553
C5_15 C 0.86755(21) 0.72642(15) 0.99364(17)
H4_15 H 0.8565 0.6997 0.9442
C1_18 C 0.63787(21) 0.00448(15) 0.50867(19)
C2_14 C 0.73802(21) 0.02823(15) 0.47901(19)
C3_14 C 0.80061(23) 0.04804(16) 0.4431(2)
C4_14 C 0.84389(27) 0.03519(19) 0.4882(3)
C5_16 C 0.53421(21) 0.05976(15) 0.32698(17)
C6_18 C 0.58986(21) 0.11948(15) 0.43335(19)
C7_18 C 0.63690(26) 0.15557(19) 0.4960(2)
C8_18 C 0.6201(3) 0.1900(2) 0.5531(2)
C9_18 C 0.52910(21) 0.11840(15) 0.42882(19)
C10_18 C 0.51314(25) 0.15439(18) 0.4865(2)
C11_18 C 0.5601(3) 0.1899(2) 0.5484(2)
C14_14 C 0.82625(27) 0.0043(2) 0.5667(3)
N1_16 N 0.68458(17) 0.03343(12) 0.44865(14)
N2_18 N 0.59197(17) 0.08061(12) 0.36653(14)
H1_18 H 0.5949 0.0002 0.5053
H2_14 H 0.8115 0.0691 0.3891
H3_14 H 0.8862 0.0488 0.4652
H4_16 H 0.5231 0.0331 0.2776
H5_16 H 0.6776 0.1551 0.4993
H6_18 H 0.6498 0.2140 0.5985
H7_14 H 0.4720 0.1551 0.4825
H8_18 H 0.5504 0.2149 0.5887
C12_14 C 0.71987(20) 0.99562(14) 0.55768(19)
C13_14 C 0.76458(23) 0.98368(16) 0.6039(2)
H9_14 H 0.7516 0.9610 0.6563
H10_14 H 0.8582 0.9976 0.5975
C2_15 C 0.36156(15) 0.95687(15) 0.18766(19)
C3_15 C 0.38137(16) 0.91409(17) 0.2236(2)
C4_15 C 0.36852(19) 0.85796(19) 0.1785(3)
C12_15 C 0.32895(14) 0.94241(14) 0.10899(19)
C13_15 C 0.31701(16) 0.88576(17) 0.0628(2)
C14_15 C 0.3376(2) 0.84468(18) 0.1000(3)
N4_11 N 0.31388(12) 0.99216(12) 0.09108(14)
H2_15 H 0.4024 0.9242 0.2776
H3_15 H 0.3821 0.8292 0.2015
H9_15 H 0.2943 0.8760 0.0104
H10_15 H 0.3309 0.8060 0.0692
C5_17 C 0.14112(15) 0.86755(21) 0.00636(17)
H4_17 H 0.1567 0.8565 0.0558
Co3_9 Co 0.004654(28) 0.736943(34) 0.00773(2)
C2_16 C 0.07136(21) 0.69489(15) 0.14567(19)
C3_16 C 0.13395(23) 0.71470(16) 0.1097(2)
C4_16 C 0.17723(27) 0.70185(19) 0.1548(3)
C12_16 C 0.05321(20) 0.66228(14) 0.22434(19)
C13_16 C 0.09792(23) 0.65034(16) 0.2705(2)
C14_16 C 0.15959(27) 0.6709(2) 0.2333(3)
N1_17 N 0.01792(17) 0.70009(12) 0.11531(14)
H2_16 H 0.1449 0.7357 0.0557
H3_16 H 0.2196 0.7154 0.1318
H5_17 H 0.0110 0.8217 0.1659
H9_16 H 0.0850 0.6276 0.3229
H10_16 H 0.1916 0.6642 0.2641
H7_15 H 0.8217 0.0164 0.8509
Co2_6 Co 0.995346(28) 0.263057(34) 0.99227(2)
C2_17 C 0.92864(21) 0.30511(15) 0.85433(19)
C3_17 C 0.86605(23) 0.28530(16) 0.8903(2)
C4_17 C 0.82277(27) 0.29815(19) 0.8452(3)
C12_17 C 0.94679(20) 0.33772(14) 0.77566(19)
C13_17 C 0.90208(23) 0.34966(16) 0.7295(2)
C14_17 C 0.84041(27) 0.3291(2) 0.7667(3)
N1_18 N 0.98208(17) 0.29991(12) 0.88469(14)
H2_17 H 0.8551 0.2643 0.9443
H3_17 H 0.7804 0.2846 0.8682
H5_18 H 0.9890 0.1783 0.8341
H9_17 H 0.9150 0.3724 0.6771
H10_17 H 0.8084 0.3358 0.7359
C2_18 C 0.63844(15) 0.04313(15) 0.81234(19)
C3_18 C 0.61863(16) 0.08591(17) 0.7764(2)
C4_18 C 0.63148(19) 0.14204(19) 0.8215(3)
C12_18 C 0.67105(14) 0.05759(14) 0.89101(19)
C13_18 C 0.68299(16) 0.11424(17) 0.9372(2)
C14_18 C 0.6624(2) 0.15532(18) 0.9000(3)
N4_12 N 0.68612(12) 0.00784(12) 0.90892(14)
H2_18 H 0.5976 0.0758 0.7224
H3_18 H 0.6179 0.1708 0.7985
H9_18 H 0.7057 0.1240 0.9896
H10_18 H 0.6691 0.1940 0.9308
C5_18 C 0.85888(15) 0.13245(21) 0.99364(17)
H4_18 H 0.8433 0.1435 0.9442
H7_16 H 0.9836 0.8054 0.8509
H7_17 H 0.1783 0.9836 0.1491
H7_18 H 0.0164 0.1946 0.1491
loop_
_geom_bond_atom_site_label_1
_geom_bond_atom_site_label_2
_geom_bond_site_symmetry_1
_geom_bond_site_symmetry_2
Co1 N1 1_555 1_555
C1 N1 1_555 1_555
C5 N2 1_555 1_555
C6 C7 1_555 1_555
C7 C8 1_555 1_555
C8 C11 1_555 1_555
C9 C6 1_555 1_555
C10 C9 1_555 1_555
C11 C10 1_555 1_555
N2 Co1 1_555 1_555
N3 C5 1_555 1_555
H1 C1 1_555 1_555
H4 C5 1_555 1_555
H5 C7 1_555 1_555
H6 C8 1_555 1_555
H7 C10 1_555 1_555
H8 C11 1_555 1_555
Co3 N3 1_555 1_555
N5 Co1 1_555 1_555
N6 Co1 1_555 1_555
C6 N2 1_555 1_555
C9 N3 1_555 1_555
H4_2 C5_2 1_555 1_555
Co1_2 N1_2 1_555 1_555
C1_2 N1_2 1_555 1_555
C2 C3 1_555 1_555
C3 C4 1_555 1_555
C4 C14 1_555 1_555
C6_2 C7_2 1_555 1_555
C7_2 C8_2 1_555 1_555
C8_2 C11_2 1_555 1_555
C9_2 C6_2 1_555 1_555
C10_2 C9_2 1_555 1_555
C11_2 C10_2 1_555 1_555
C12 C2 1_555 1_555
C13 C12 1_555 1_555
C14 C13 1_555 1_555
N1_2 C2 1_555 1_555
N2_2 Co1_2 1_555 1_555
N4 C1_2 1_555 1_555
H1_2 C1_2 1_555 1_555
H2 C3 1_555 1_555
H3 C4 1_555 1_555
H5_2 C7_2 1_555 1_555
H6_2 C8_2 1_555 1_555
H8_2 C11_2 1_555 1_555
H9 C13 1_555 1_555
H10 C14 1_555 1_555
Co2_2 N4 1_555 1_555
C6_2 N2_2 1_555 1_555
C9_2 N3_2 1_555 1_555
C12 N4 1_555 1_555
Co1_3 N1_3 1_555 1_555
C1_3 N1_3 1_555 1_555
C2_2 C3_2 1_555 1_555
C3_2 C4_2 1_555 1_555
C4_2 C14_2 1_555 1_555
C5_3 N2_3 1_555 1_555
C6_3 C7_3 1_555 1_555
C7_3 C8_3 1_555 1_555
C8_3 C11_3 1_555 1_555
C9_3 C6_3 1_555 1_555
C10_3 C9_3 1_555 1_555
C11_3 C10_3 1_555 1_555
N1_3 C2_2 1_555 1_555
N2_3 Co1_3 1_555 1_555
N3_3 C5_3 1_555 1_555
H1_3 C1_3 1_555 1_555
H2_2 C3_2 1_555 1_555
H3_2 C4_2 1_555 1_555
H4_3 C5_3 1_555 1_555
H5_3 C7_3 1_555 1_555
H6_3 C8_3 1_555 1_555
H7_2 C10_3 1_555 1_555
H8_3 C11_3 1_555 1_555
Co3_3 N3_3 1_555 1_555
N5_3 Co1_3 1_555 1_555
N6_3 Co1_3 1_555 1_555
C6_3 N2_3 1_555 1_555
C9_3 N3_3 1_555 1_555
C13_2 C12_2 1_555 1_555
H9_2 C13_2 1_555 1_555
Co2_3 N4_2 1_555 1_555
C12_2 N4_2 1_555 1_555
C2_3 C3_3 1_555 1_555
C3_3 C4_3 1_555 1_555
C4_3 C14_3 1_555 1_555
C12_3 C2_3 1_555 1_555
C13_3 C12_3 1_555 1_555
C14_3 C13_3 1_555 1_555
H2_3 C3_3 1_555 1_555
H3_3 C4_3 1_555 1_555
H9_3 C13_3 1_555 1_555
H10_3 C14_3 1_555 1_555
C12_3 N4_3 1_555 1_555
Co2_3 N1_4 1_555 1_555
C1_4 N1_4 1_555 1_555
C5_4 N2_4 1_555 1_555
C6_4 C7_4 1_555 1_555
C7_4 C8_4 1_555 1_555
C8_4 C11_4 1_555 1_555
C9_4 C6_4 1_555 1_555
C10_4 C9_4 1_555 1_555
C11_4 C10_4 1_555 1_555
N2_4 Co2_3 1_555 1_555
N3_4 C5_4 1_555 1_555
H1_4 C1_4 1_555 1_555
H4_4 C5_4 1_555 1_555
H5_4 C7_4 1_555 1_555
H6_4 C8_4 1_555 1_555
H7_3 C10_4 1_555 1_555
H8_4 C11_4 1_555 1_555
Co3_4 N3_4 1_555 1_555
N5_4 Co2_3 1_555 1_555
C6_4 N2_4 1_555 1_555
C9_4 N3_4 1_555 1_555
Co2 N1_5 1_555 1_555
C2_4 C3_4 1_555 1_555
C3_4 C4_4 1_555 1_555
C4_4 C14_4 1_555 1_555
C12_4 C2_4 1_555 1_555
C13_4 C12_4 1_555 1_555
C14_4 C13_4 1_555 1_555
N1_5 C2_4 1_555 1_555
H2_4 C3_4 1_555 1_555
H3_4 C4_4 1_555 1_555
H9_4 C13_4 1_555 1_555
H10_4 C14_4 1_555 1_555
C6_5 C7_5 1_555 1_555
C7_5 C8_5 1_555 1_555
C8_5 C11_5 1_555 1_555
C9_5 C6_5 1_555 1_555
C10_5 C9_5 1_555 1_555
C11_5 C10_5 1_555 1_555
N4_4 C1_5 1_555 1_555
H1_5 C1_5 1_555 1_555
H6_5 C8_5 1_555 1_555
H8_5 C11_5 1_555 1_555
Co2_4 N4_4 1_555 1_555
C6_5 N2_5 1_555 1_555
C9_5 N3_5 1_555 1_555
Co2_2 N1_6 1_555 1_555
C1_6 N1_6 1_555 1_555
C2_5 C3_5 1_555 1_555
C3_5 C4_5 1_555 1_555
C4_5 C14_5 1_555 1_555
C5_5 N2_6 1_555 1_555
C6_6 C7_6 1_555 1_555
C7_6 C8_6 1_555 1_555
C8_6 C11_6 1_555 1_555
C9_6 C6_6 1_555 1_555
C10_6 C9_6 1_555 1_555
C11_6 C10_6 1_555 1_555
C12_5 C2_5 1_555 1_555
C13_5 C12_5 1_555 1_555
C14_5 C13_5 1_555 1_555
N1_6 C2_5 1_555 1_555
N2_6 Co2_2 1_555 1_555
N3_6 C5_5 1_555 1_555
N4_5 C1_6 1_555 1_555
H1_6 C1_6 1_555 1_555
H2_5 C3_5 1_555 1_555
H3_5 C4_5 1_555 1_555
H4_5 C5_5 1_555 1_555
H5_6 C7_6 1_555 1_555
H6_6 C8_6 1_555 1_555
H7_4 C10_6 1_555 1_555
H8_6 C11_6 1_555 1_555
H9_5 C13_5 1_555 1_555
H10_5 C14_5 1_555 1_555
Co2_5 N4_5 1_555 1_555
Co3_5 N3_6 1_555 1_555
N5_6 Co2_2 1_555 1_555
C6_6 N2_6 1_555 1_555
C9_6 N3_6 1_555 1_555
C12_5 N4_5 1_555 1_555
Co2_5 N1_7 1_555 1_555
C1_7 N1_7 1_555 1_555
C2_6 C3_6 1_555 1_555
C3_6 C4_6 1_555 1_555
C4_6 C14_6 1_555 1_555
C5_6 N2_7 1_555 1_555
C6_7 C7_7 1_555 1_555
C7_7 C8_7 1_555 1_555
C8_7 C11_7 1_555 1_555
C9_7 C6_7 1_555 1_555
C10_7 C9_7 1_555 1_555
C11_7 C10_7 1_555 1_555
C12_6 C2_6 1_555 1_555
C13_6 C12_6 1_555 1_555
C14_6 C13_6 1_555 1_555
N1_7 C2_6 1_555 1_555
N2_7 Co2_5 1_555 1_555
N3_7 C5_6 1_555 1_555
N6_2 C1_7 1_555 1_555
H1_7 C1_7 1_555 1_555
H2_6 C3_6 1_555 1_555
H3_6 C4_6 1_555 1_555
H4_6 C5_6 1_555 1_555
H5_7 C7_7 1_555 1_555
H6_7 C8_7 1_555 1_555
H7_5 C10_7 1_555 1_555
H8_7 C11_7 1_555 1_555
H9_6 C13_6 1_555 1_555
H10_6 C14_6 1_555 1_555
Co3_6 N3_7 1_555 1_555
N5_7 Co2_5 1_555 1_555
C6_7 N2_7 1_555 1_555
C9_7 N3_7 1_555 1_555
C12_6 N6_2 1_555 1_555
H4_7 C5_7 1_555 1_555
C6_8 C7_8 1_555 1_555
C7_8 C8_8 1_555 1_555
C8_8 C11_8 1_555 1_555
C9_8 C6_8 1_555 1_555
C10_8 C9_8 1_555 1_555
C11_8 C10_8 1_555 1_555
N6_3 C1_8 1_555 1_555
H1_8 C1_8 1_555 1_555
H6_8 C8_8 1_555 1_555
H7_6 C10_8 1_555 1_555
H8_8 C11_8 1_555 1_555
C6_8 N2_8 1_555 1_555
C9_8 N3_8 1_555 1_555
C13_7 C12_7 1_555 1_555
H9_7 C13_7 1_555 1_555
C12_7 N6 1_555 1_555
Co2_4 N1_8 1_555 1_555
C1_9 N1_8 1_555 1_555
C2_7 C3_7 1_555 1_555
C3_7 C4_7 1_555 1_555
C4_7 C14_7 1_555 1_555
C5_8 N2_9 1_555 1_555
C6_9 C7_9 1_555 1_555
C7_9 C8_9 1_555 1_555
C8_9 C11_9 1_555 1_555
C9_9 C6_9 1_555 1_555
C10_9 C9_9 1_555 1_555
C11_9 C10_9 1_555 1_555
N1_8 C2_7 1_555 1_555
N2_9 Co2_4 1_555 1_555
N3_9 C5_8 1_555 1_555
H1_9 C1_9 1_555 1_555
H2_7 C3_7 1_555 1_555
H3_7 C4_7 1_555 1_555
H4_8 C5_8 1_555 1_555
H5_8 C7_9 1_555 1_555
H6_9 C8_9 1_555 1_555
H7_7 C10_9 1_555 1_555
H8_9 C11_9 1_555 1_555
Co3_8 N3_9 1_555 1_555
N5_9 Co2_4 1_555 1_555
C6_9 N2_9 1_555 1_555
C9_9 N3_9 1_555 1_555
Co3_8 N1_9 1_555 1_555
C1_10 N1_9 1_555 1_555
C5_9 N2_10 1_555 1_555
C6_10 C7_10 1_555 1_555
C7_10 C8_10 1_555 1_555
C8_10 C11_10 1_555 1_555
C9_10 C6_10 1_555 1_555
C10_10 C9_10 1_555 1_555
C11_10 C10_10 1_555 1_555
N2_10 Co3_8 1_555 1_555
N5_6 C5_9 1_555 1_555
H1_10 C1_10 1_555 1_555
H4_9 C5_9 1_555 1_555
H5_9 C7_10 1_555 1_555
H6_10 C8_10 1_555 1_555
H7_8 C10_10 1_555 1_555
H8_10 C11_10 1_555 1_555
N6_4 Co3_8 1_555 1_555
C6_10 N2_10 1_555 1_555
C9_10 N5_6 1_555 1_555
Co3_7 N1_10 1_555 1_555
C1_11 N1_10 1_555 1_555
C2_8 C3_8 1_555 1_555
C3_8 C4_8 1_555 1_555
C4_8 C14_8 1_555 1_555
C6_11 C7_11 1_555 1_555
C7_11 C8_11 1_555 1_555
C8_11 C11_11 1_555 1_555
C9_11 C6_11 1_555 1_555
C10_11 C9_11 1_555 1_555
C11_11 C10_11 1_555 1_555
C12_8 C2_8 1_555 1_555
C13_8 C12_8 1_555 1_555
C14_8 C13_8 1_555 1_555
N1_10 C2_8 1_555 1_555
N2_11 Co3_7 1_555 1_555
N4_6 C1_11 1_555 1_555
H1_11 C1_11 1_555 1_555
H2_8 C3_8 1_555 1_555
H3_8 C4_8 1_555 1_555
H5_10 C7_11 1_555 1_555
H6_11 C8_11 1_555 1_555
H8_11 C11_11 1_555 1_555
H9_8 C13_8 1_555 1_555
H10_8 C14_8 1_555 1_555
Co3 N4_6 1_555 1_555
C6_11 N2_11 1_555 1_555
C9_11 N5_5 1_555 1_555
C12_8 N4_6 1_555 1_555
H4_10 C5_10 1_555 1_555
C13_9 C12_9 1_555 1_555
H9_9 C13_9 1_555 1_555
Co3_3 N4_7 1_555 1_555
C12_9 N4_7 1_555 1_555
Co3_6 N1_11 1_555 1_555
C1_12 N1_11 1_555 1_555
C2_9 C3_9 1_555 1_555
C3_9 C4_9 1_555 1_555
C4_9 C14_9 1_555 1_555
C5_11 N2_12 1_555 1_555
C6_12 C7_12 1_555 1_555
C7_12 C8_12 1_555 1_555
C8_12 C11_12 1_555 1_555
C9_12 C6_12 1_555 1_555
C10_12 C9_12 1_555 1_555
C11_12 C10_12 1_555 1_555
N1_11 C2_9 1_555 1_555
N2_12 Co3_6 1_555 1_555
N5_4 C5_11 1_555 1_555
H1_12 C1_12 1_555 1_555
H2_9 C3_9 1_555 1_555
H3_9 C4_9 1_555 1_555
H4_11 C5_11 1_555 1_555
H5_11 C7_12 1_555 1_555
H6_12 C8_12 1_555 1_555
H7_9 C10_12 1_555 1_555
H8_12 C11_12 1_555 1_555
N6_6 Co3_6 1_555 1_555
C6_12 N2_12 1_555 1_555
C9_12 N5_4 1_555 1_555
Co3_3 N1_12 1_555 1_555
C1_13 N1_12 1_555 1_555
C5_12 N2_13 1_555 1_555
C6_13 C7_13 1_555 1_555
C7_13 C8_13 1_555 1_555
C8_13 C11_13 1_555 1_555
C9_13 C6_13 1_555 1_555
C10_13 C9_13 1_555 1_555
C11_13 C10_13 1_555 1_555
N2_13 Co3_3 1_555 1_555
N5_9 C5_12 1_555 1_555
H1_13 C1_13 1_555 1_555
H4_12 C5_12 1_555 1_555
H5_12 C7_13 1_555 1_555
H6_13 C8_13 1_555 1_555
H7_10 C10_13 1_555 1_555
H8_13 C11_13 1_555 1_555
C6_13 N2_13 1_555 1_555
C9_13 N5_9 1_555 1_555
C2_10 C3_10 1_555 1_555
C3_10 C4_10 1_555 1_555
C4_10 C14_10 1_555 1_555
C12_10 C2_10 1_555 1_555
C13_10 C12_10 1_555 1_555
C14_10 C13_10 1_555 1_555
H2_10 C3_10 1_555 1_555
H3_10 C4_10 1_555 1_555
H9_10 C13_10 1_555 1_555
H10_10 C14_10 1_555 1_555
C12_10 N4_8 1_555 1_555
C6_14 C7_14 1_555 1_555
C7_14 C8_14 1_555 1_555
C8_14 C11_14 1_555 1_555
C9_14 C6_14 1_555 1_555
C10_14 C9_14 1_555 1_555
C11_14 C10_14 1_555 1_555
N4_9 C1_14 1_555 1_555
H1_14 C1_14 1_555 1_555
H6_14 C8_14 1_555 1_555
H8_14 C11_14 1_555 1_555
Co3_4 N4_9 1_555 1_555
C6_14 N2_14 1_555 1_555
C9_14 N5_8 1_555 1_555
Co3_2 N1_13 1_555 1_555
C2_11 C3_11 1_555 1_555
C3_11 C4_11 1_555 1_555
C4_11 C14_11 1_555 1_555
C12_11 C2_11 1_555 1_555
C13_11 C12_11 1_555 1_555
C14_11 C13_11 1_555 1_555
N1_13 C2_11 1_555 1_555
H2_11 C3_11 1_555 1_555
H3_11 C4_11 1_555 1_555
H9_11 C13_11 1_555 1_555
H10_11 C14_11 1_555 1_555
Co3 N1_14 1_555 1_555
C1_15 N1_14 1_555 1_555
C2_12 C3_12 1_555 1_555
C3_12 C4_12 1_555 1_555
C4_12 C14_12 1_555 1_555
C5_13 N2_15 1_555 1_555
C6_15 C7_15 1_555 1_555
C7_15 C8_15 1_555 1_555
C8_15 C11_15 1_555 1_555
C9_15 C6_15 1_555 1_555
C10_15 C9_15 1_555 1_555
C11_15 C10_15 1_555 1_555
C12_12 C2_12 1_555 1_555
C13_12 C12_12 1_555 1_555
C14_12 C13_12 1_555 1_555
N1_14 C2_12 1_555 1_555
N2_15 Co3 1_555 1_555
N5_7 C5_13 1_555 1_555
N4_10 C1_15 1_555 1_555
H1_15 C1_15 1_555 1_555
H2_12 C3_12 1_555 1_555
H3_12 C4_12 1_555 1_555
H4_13 C5_13 1_555 1_555
H5_14 C7_15 1_555 1_555
H6_15 C8_15 1_555 1_555
H7_11 C10_15 1_555 1_555
H8_15 C11_15 1_555 1_555
H9_12 C13_12 1_555 1_555
H10_12 C14_12 1_555 1_555
Co3_5 N4_10 1_555 1_555
C6_15 N2_15 1_555 1_555
C9_15 N5_7 1_555 1_555
C12_12 N4_10 1_555 1_555
Co3_5 N1_15 1_555 1_555
C1_16 N1_15 1_555 1_555
C2_13 C3_13 1_555 1_555
C3_13 C4_13 1_555 1_555
C4_13 C14_13 1_555 1_555
C5_14 N2_16 1_555 1_555
C6_16 C7_16 1_555 1_555
C7_16 C8_16 1_555 1_555
C8_16 C11_16 1_555 1_555
C9_16 C6_16 1_555 1_555
C10_16 C9_16 1_555 1_555
C11_16 C10_16 1_555 1_555
C12_13 C2_13 1_555 1_555
C13_13 C12_13 1_555 1_555
C14_13 C13_13 1_555 1_555
N1_15 C2_13 1_555 1_555
N2_16 Co3_5 1_555 1_555
N5_3 C5_14 1_555 1_555
N6_5 C1_16 1_555 1_555
H1_16 C1_16 1_555 1_555
H2_13 C3_13 1_555 1_555
H3_13 C4_13 1_555 1_555
H4_14 C5_14 1_555 1_555
H5_15 C7_16 1_555 1_555
H6_16 C8_16 1_555 1_555
H7_12 C10_16 1_555 1_555
H8_16 C11_16 1_555 1_555
H9_13 C13_13 1_555 1_555
H10_13 C14_13 1_555 1_555
C6_16 N2_16 1_555 1_555
C9_16 N5_3 1_555 1_555
C12_13 N6_5 1_555 1_555
C6_17 C7_17 1_555 1_555
C7_17 C8_17 1_555 1_555
C8_17 C11_17 1_555 1_555
C9_17 C6_17 1_555 1_555
C10_17 C9_17 1_555 1_555
C11_17 C10_17 1_555 1_555
N6_6 C1_17 1_555 1_555
H1_17 C1_17 1_555 1_555
H6_17 C8_17 1_555 1_555
H7_13 C10_17 1_555 1_555
H8_17 C11_17 1_555 1_555
C6_17 N2_17 1_555 1_555
C9_17 N5_2 1_555 1_555
H4_15 C5_15 1_555 1_555
Co3_4 N1_16 1_555 1_555
C1_18 N1_16 1_555 1_555
C2_14 C3_14 1_555 1_555
C3_14 C4_14 1_555 1_555
C4_14 C14_14 1_555 1_555
C5_16 N2_18 1_555 1_555
C6_18 C7_18 1_555 1_555
C7_18 C8_18 1_555 1_555
C8_18 C11_18 1_555 1_555
C9_18 C6_18 1_555 1_555
C10_18 C9_18 1_555 1_555
C11_18 C10_18 1_555 1_555
N1_16 C2_14 1_555 1_555
N2_18 Co3_4 1_555 1_555
N5 C5_16 1_555 1_555
H1_18 C1_18 1_555 1_555
H2_14 C3_14 1_555 1_555
H3_14 C4_14 1_555 1_555
H4_16 C5_16 1_555 1_555
H5_16 C7_18 1_555 1_555
H6_18 C8_18 1_555 1_555
H7_14 C10_18 1_555 1_555
H8_18 C11_18 1_555 1_555
C6_18 N2_18 1_555 1_555
C9_18 N5 1_555 1_555
C13_14 C12_14 1_555 1_555
H9_14 C13_14 1_555 1_555
C12_14 N6_4 1_555 1_555
C2_15 C3_15 1_555 1_555
C3_15 C4_15 1_555 1_555
C4_15 C14_15 1_555 1_555
C12_15 C2_15 1_555 1_555
C13_15 C12_15 1_555 1_555
C14_15 C13_15 1_555 1_555
H2_15 C3_15 1_555 1_555
H3_15 C4_15 1_555 1_555
H9_15 C13_15 1_555 1_555
H10_15 C14_15 1_555 1_555
C12_15 N4_11 1_555 1_555
H4_17 C5_17 1_555 1_555
Co3_9 N1_17 1_555 1_555
C2_16 C3_16 1_555 1_555
C3_16 C4_16 1_555 1_555
C4_16 C14_16 1_555 1_555
C12_16 C2_16 1_555 1_555
C13_16 C12_16 1_555 1_555
C14_16 C13_16 1_555 1_555
N1_17 C2_16 1_555 1_555
H2_16 C3_16 1_555 1_555
H3_16 C4_16 1_555 1_555
H9_16 C13_16 1_555 1_555
H10_16 C14_16 1_555 1_555
Co2_6 N1_18 1_555 1_555
C2_17 C3_17 1_555 1_555
C3_17 C4_17 1_555 1_555
C4_17 C14_17 1_555 1_555
C12_17 C2_17 1_555 1_555
C13_17 C12_17 1_555 1_555
C14_17 C13_17 1_555 1_555
N1_18 C2_17 1_555 1_555
H2_17 C3_17 1_555 1_555
H3_17 C4_17 1_555 1_555
H9_17 C13_17 1_555 1_555
H10_17 C14_17 1_555 1_555
C2_18 C3_18 1_555 1_555
C3_18 C4_18 1_555 1_555
C4_18 C14_18 1_555 1_555
C12_18 C2_18 1_555 1_555
C13_18 C12_18 1_555 1_555
C14_18 C13_18 1_555 1_555
H2_18 C3_18 1_555 1_555
H3_18 C4_18 1_555 1_555
H9_18 C13_18 1_555 1_555
H10_18 C14_18 1_555 1_555
C12_18 N4_12 1_555 1_555
H4_18 C5_18 1_555 1_555

#END
