
###############################################################################
#
# This file contains modified crystal structure data generated from the
# MOF subset of the Cambridge Structural Database (CSD) v543 
# hosted by the Cambridge Crystallographic Data Centre (CCDC).
#
# This work is licensed under the Creative Commons
# Attribution-NonCommercial-ShareAlike 4.0 International License.
# To view a copy of this license, visit
# http://creativecommons.org/licenses/by-nc-sa/4.0/
# or send a letter to
# Creative Commons, PO Box 1866, Mountain View, CA 94042, USA.
#
# CIF created using the CSD Python API on 29 September 2022
# The structure has been converted into the P1 space group
# The structure has a 3D framework
# The original CSD entry QOWLEU is in the rhombohedral crystal system
# The framework has been calculated to contain at least 10.0% void space
# The void calculation uses a probe of radius 1.32A, grid spacing 0.4
# H atom positions have been added when not included in the experimental data
#
###############################################################################

data_QOWLEU
_chemical_formula_moiety         '(C72 H18 Co13 N18 O66)n'
_symmetry_cell_setting           triclinic
_symmetry_space_group_name_H-M   'P 1'
_symmetry_Int_Tables_number      1
_space_group_name_Hall           'P 1'
loop_
_symmetry_equiv_pos_site_id
_symmetry_equiv_pos_as_xyz
1 x,y,z
_cell_length_a                   25.8588(8)
_cell_length_b                   25.8588(8)
_cell_length_c                   6.79228(21)
_cell_angle_alpha                90
_cell_angle_beta                 90
_cell_angle_gamma                120
_cell_volume                     3933.35
loop_
_atom_site_label
_atom_site_type_symbol
_atom_site_fract_x
_atom_site_fract_y
_atom_site_fract_z
Co1 Co 0.3669(2) 0.0497(3) 0.0184(7)
O9 O 0.3733(11) 0.1050(8) 0.251(3)
O12 O 0.4215(9) 0.0311(11) 0.169(3)
N1 N 0.4453(5) 0.1343(6) 0.930(4)
O4 O 0.5074(7) 0.1588(9) 0.886(3)
O13 O 0.3023(11) 0.0571(7) 0.835(3)
O1 O 0.2940(9) 0.9730(8) 0.148(2)
O3 O 0.2762(7) 0.9118(9) 0.502(3)
C1 C 0.246 0.9294 0.0767
C2 C 0.2072 0.8801 0.2136
C3 C 0.2218 0.8774 0.4156
C4 C 0.1535 0.8361 0.1384
Co3 Co 0.3495(4) 0.9664(2) 0.3517(7)
Co5 Co 0.2836(3) 0.9839(4) 0.6851(7)
Co7 Co 0.0497(3) 0.6828(4) 0.9816(7)
O5 O 0.0393(9) 0.6937(8) 0.519(2)
O8 O 0.1050(8) 0.7318(8) 0.749(3)
O11 O 0.0571(7) 0.7549(9) 0.165(3)
O15 O 0.0311(11) 0.6095(7) 0.831(3)
C5 C 0.087333 0.7373 0.5900
C6 C 0.1261 0.7866 0.4531
C7 C 0.1115 0.7893 0.2511
C8 C 0.1798 0.8306 0.5283
H1 H 0.189621 0.82835 0.682964
O2 O 0.2283(8) 0.9349(8) 0.918(3)
O6 O 0.3603(8) 0.9877(12) 0.815(2)
H2 H 0.143712 0.838317 0.983703
Co2 Co 0.9664(2) 0.6170(3) 0.6483(7)
Co6 Co 0.9839(4) 0.7002(2) 0.3149(7)
O7 O 0.9730(8) 0.6790(12) 0.852(2)
O10 O 0.9601(11) 0.5616(8) 0.415(3)
O14 O 0.9118(9) 0.6356(11) 0.498(3)
N2 N 0.8880(5) 0.5324(6) 0.737(4)
O16 O 0.8259(7) 0.5079(9) 0.781(3)
O1_2 O 0.0270(8) 0.3210(12) 0.148(2)
O3_2 O 0.0882(9) 0.3644(11) 0.502(3)
C1_2 C 0.0706 0.3166 0.0767
C2_2 C 0.1199 0.3271 0.2136
C3_2 C 0.1226 0.3444 0.4156
C4_2 C 0.1639 0.3174 0.1384
Co2_2 Co 0.3830(3) 0.3495(4) 0.6483(7)
Co3_2 Co 0.0336(2) 0.3830(4) 0.3517(7)
Co5_2 Co 0.0161(4) 0.2998(5) 0.6851(7)
Co6_2 Co 0.2998(2) 0.2836(4) 0.3149(7)
Co7_2 Co 0.3172(4) 0.3669(5) 0.9816(7)
O5_2 O 0.3063(8) 0.3457(12) 0.519(2)
O7_2 O 0.3210(12) 0.2940(14) 0.852(2)
O8_2 O 0.2682(8) 0.3733(11) 0.749(3)
O10_2 O 0.4384(8) 0.3984(14) 0.415(3)
O11_2 O 0.2451(9) 0.3023(11) 0.165(3)
O14_2 O 0.3644(11) 0.2762(14) 0.498(3)
O15_2 O 0.3905(7) 0.4215(13) 0.831(3)
C5_2 C 0.2627 0.350067 0.5900
C6_2 C 0.2134 0.3396 0.4531
C7_2 C 0.2107 0.3223 0.2511
C8_2 C 0.1694 0.3493 0.5283
N2_2 N 0.4676(6) 0.3557(8) 0.737(4)
O16_2 O 0.4921(9) 0.3181(11) 0.781(3)
H1_2 H 0.17165 0.361271 0.682964
O2_2 O 0.0651(8) 0.2934(11) 0.918(3)
O6_2 O 0.0123(12) 0.3727(14) 0.815(2)
H2_2 H 0.161683 0.305395 0.983703
Co1_2 Co 0.9503(3) 0.3172(4) 0.0184(7)
O9_2 O 0.8950(8) 0.2682(14) 0.251(3)
O12_2 O 0.9689(11) 0.3905(14) 0.169(3)
N1_2 N 0.8657(6) 0.3110(8) 0.930(4)
O4_2 O 0.8412(9) 0.3486(11) 0.886(3)
O13_2 O 0.9429(7) 0.2451(13) 0.835(3)
Co2_3 Co 0.6505(4) 0.0336(2) 0.6483(7)
Co6_3 Co 0.7164(4) 0.0161(4) 0.3149(7)
O7_3 O 0.7060(14) 0.0270(8) 0.852(2)
O10_3 O 0.6016(14) 0.0399(11) 0.415(3)
O14_3 O 0.7238(14) 0.0882(9) 0.498(3)
N2_3 N 0.6443(8) 0.1120(5) 0.737(4)
O16_3 O 0.6819(11) 0.1741(7) 0.781(3)
Co1_3 Co 0.6828(4) 0.6331(2) 0.0184(7)
O1_3 O 0.6790(12) 0.7060(9) 0.148(2)
O3_3 O 0.6356(11) 0.7238(7) 0.502(3)
C1_3 C 0.6834 0.754 0.0767
C2_3 C 0.6729 0.7928 0.2136
C3_3 C 0.6556 0.7782 0.4156
C4_3 C 0.6826 0.8465 0.1384
Co3_3 Co 0.6170(4) 0.6505(4) 0.3517(7)
Co5_3 Co 0.7002(5) 0.7164(3) 0.6851(7)
Co7_3 Co 0.6331(5) 0.9503(3) 0.9816(7)
O5_3 O 0.6543(12) 0.9607(9) 0.519(2)
O8_3 O 0.6267(11) 0.8950(8) 0.749(3)
O9_3 O 0.7318(14) 0.6267(11) 0.251(3)
O11_3 O 0.6977(11) 0.9429(7) 0.165(3)
O12_3 O 0.6095(14) 0.5785(9) 0.169(3)
O15_3 O 0.5785(13) 0.9689(11) 0.831(3)
C5_3 C 0.649933 0.912667 0.5900
C6_3 C 0.6604 0.8739 0.4531
C7_3 C 0.6777 0.8885 0.2511
C8_3 C 0.6507 0.8202 0.5283
H1_3 H 0.638729 0.810379 0.682964
O2_3 O 0.7066(11) 0.7717(8) 0.918(3)
N1_3 N 0.6890(8) 0.5547(5) 0.930(4)
O4_3 O 0.6514(11) 0.4926(7) 0.886(3)
O6_3 O 0.6273(14) 0.6397(8) 0.815(2)
O13_3 O 0.7549(13) 0.6977(11) 0.835(3)
H2_3 H 0.694605 0.856288 0.983703
C3_4 C 0.5551 0.5441 0.0823
O5_4 O 0.3727(9) 0.3603(8) 0.185(2)
O10_4 O 0.2934(11) 0.2283(8) 0.082(3)
C5_4 C 0.420667 0.4039 0.2566
C6_4 C 0.4595 0.4532 0.1197
C8_4 C 0.5132 0.4972 0.1949
N2_4 N 0.2214(5) 0.1990(6) 0.403(4)
O16_4 O 0.1593(7) 0.1745(9) 0.447(3)
H1_4 H 0.522955 0.495017 0.34963
O2_4 O 0.5616(8) 0.6016(8) 0.585(3)
C1_4 C 0.579333 0.5961 0.7434
C2_4 C 0.5405 0.5468 0.8803
C4_4 C 0.4868 0.5028 0.8051
N1_4 N 0.7786(5) 0.8010(6) 0.597(4)
O4_4 O 0.8407(7) 0.8255(9) 0.553(3)
O6_4 O 0.6937(8) 0.6543(12) 0.481(2)
C7_4 C 0.4449 0.4559 0.9177
H2_4 H 0.477045 0.504983 0.65037
C3_5 C 0.4559 0.0111 0.0823
O5_5 O 0.6397(8) 0.0123(12) 0.185(2)
O10_5 O 0.7717(8) 0.0651(14) 0.082(3)
C5_5 C 0.5961 0.016733 0.2566
C6_5 C 0.5468 0.0062 0.1197
C8_5 C 0.5028 0.0159 0.1949
N2_5 N 0.8010(6) 0.0223(8) 0.403(4)
H1_5 H 0.504983 0.0279381 0.34963
O4_5 O 0.1745(9) 0.0153(11) 0.553(3)
O6_5 O 0.3457(12) 0.0393(14) 0.481(2)
O16_5 O 0.8255(9) 0.9847(11) 0.447(3)
O2_5 O 0.3984(8) 0.9601(11) 0.585(3)
C1_5 C 0.4039 0.9833 0.7434
C2_5 C 0.4532 0.9938 0.8803
C4_5 C 0.4972 0.9841 0.8051
N1_5 N 0.1990(6) 0.9777(8) 0.597(4)
C7_5 C 0.5441 0.9889 0.9177
H2_5 H 0.495017 0.972062 0.65037
O16_6 O 0.0153(11) 0.8407(7) 0.447(3)
O2_6 O 0.0399(11) 0.4384(8) 0.585(3)
C1_6 C 0.0167 0.420667 0.7434
C2_6 C 0.0062 0.4595 0.8803
C4_6 C 0.0159 0.5132 0.8051
N1_6 N 0.0223(8) 0.2214(5) 0.597(4)
C7_6 C 0.0111 0.5551 0.9177
H2_6 H 0.0279381 0.522955 0.65037
C3_6 C 0.9889 0.4449 0.0823
O5_6 O 0.9877(12) 0.6273(9) 0.185(2)
O10_6 O 0.9349(14) 0.7066(11) 0.082(3)
C5_6 C 0.983267 0.579333 0.2566
C6_6 C 0.9938 0.5405 0.1197
C8_6 C 0.9841 0.4868 0.1949
N2_6 N 0.9777(8) 0.7786(5) 0.403(4)
H1_6 H 0.972062 0.477045 0.34963
O4_6 O 0.9847(11) 0.1593(7) 0.553(3)
O6_6 O 0.9607(14) 0.3063(8) 0.481(2)
N1_7 N 0.1120(5) 0.4676(6) 0.263(4)
O4_7 O 0.1741(7) 0.4921(9) 0.219(3)
H1_7 H 0.856288 0.161683 0.0162969
C1_7 C 0.912667 0.2627 0.4100
C2_7 C 0.8739 0.2134 0.5469
C3_7 C 0.8885 0.2107 0.7489
C4_7 C 0.8202 0.1694 0.4717
C5_7 C 0.754000 0.0706 0.9233
C6_7 C 0.7928 0.1199 0.7864
C7_7 C 0.7782 0.1226 0.5844
C8_7 C 0.8465 0.1639 0.8616
H2_7 H 0.810379 0.17165 0.317036
N2_7 N 0.5547(5) 0.8657(6) 0.070(4)
O16_7 O 0.4926(7) 0.8412(9) 0.114(3)
N2_8 N 0.1343(6) 0.6890(8) 0.070(4)
O16_8 O 0.1588(9) 0.6514(11) 0.114(3)
H1_8 H 0.838317 0.694605 0.0162969
C1_8 C 0.7373 0.6499 0.4100
C2_8 C 0.7866 0.6604 0.5469
C3_8 C 0.7893 0.6777 0.7489
C4_8 C 0.8306 0.6507 0.4717
N1_8 N 0.5324(6) 0.6443(8) 0.263(4)
O4_8 O 0.5079(9) 0.6819(11) 0.219(3)
C5_8 C 0.9294 0.683400 0.9233
C6_8 C 0.8801 0.6729 0.7864
C7_8 C 0.8774 0.6556 0.5844
C8_8 C 0.8361 0.6826 0.8616
H2_8 H 0.82835 0.638729 0.317036
N2_9 N 0.3110(8) 0.4453(5) 0.070(4)
O16_9 O 0.3486(11) 0.5074(7) 0.114(3)
H1_9 H 0.305395 0.143712 0.0162969
C1_9 C 0.3501 0.087333 0.4100
C2_9 C 0.3396 0.1261 0.5469
C3_9 C 0.3223 0.1115 0.7489
C4_9 C 0.3493 0.1798 0.4717
C5_9 C 0.316600 0.246000 0.9233
C6_9 C 0.3271 0.2072 0.7864
C7_9 C 0.3444 0.2218 0.5844
C8_9 C 0.3174 0.1535 0.8616
H2_9 H 0.361271 0.189621 0.317036
N1_9 N 0.3557(8) 0.8880(5) 0.263(4)
O4_9 O 0.3181(11) 0.8259(7) 0.219(3)
loop_
_geom_bond_atom_site_label_1
_geom_bond_atom_site_label_2
_geom_bond_site_symmetry_1
_geom_bond_site_symmetry_2
O9 Co1 1_555 1_555
O12 Co1 1_555 1_555
O4 N1 1_555 1_555
O1 C1 1_555 1_555
O3 C3 1_555 1_555
C1 C2 1_555 1_555
C2 C3 1_555 1_555
C3 C8 1_555 1_555
C4 C2 1_555 1_555
Co3 O1 1_555 1_555
Co5 O3 1_555 1_555
O5 C5 1_555 1_555
O8 Co7 1_555 1_555
C5 O8 1_555 1_555
C6 C5 1_555 1_555
C7 C4 1_555 1_555
C8 C6 1_555 1_555
O3 Co3 1_555 1_555
Co7 O15 1_555 1_555
O11 C7 1_555 1_555
C6 C7 1_555 1_555
C8 H1 1_555 1_555
Co5 O2 1_555 1_555
Co5 O6 1_555 1_555
O7 Co2 1_555 1_555
O10 Co2 1_555 1_555
O14 Co2 1_555 1_555
N2 Co2 1_555 1_555
O16 N2 1_555 1_555
Co6 O14 1_555 1_555
O1_2 C1_2 1_555 1_555
O3_2 C3_2 1_555 1_555
C1_2 C2_2 1_555 1_555
C2_2 C3_2 1_555 1_555
C3_2 C8_2 1_555 1_555
C4_2 C2_2 1_555 1_555
Co2_2 O5_2 1_555 1_555
Co3_2 O1_2 1_555 1_555
Co5_2 O3_2 1_555 1_555
Co6_2 O5_2 1_555 1_555
Co7_2 O7_2 1_555 1_555
O5_2 C5_2 1_555 1_555
O7_2 Co2_2 1_555 1_555
O8_2 Co7_2 1_555 1_555
O10_2 Co2_2 1_555 1_555
O11_2 Co6_2 1_555 1_555
O14_2 Co2_2 1_555 1_555
O15_2 Co2_2 1_555 1_555
C5_2 O8_2 1_555 1_555
C6_2 C5_2 1_555 1_555
C7_2 C4_2 1_555 1_555
C8_2 C6_2 1_555 1_555
N2_2 Co2_2 1_555 1_555
O16_2 N2_2 1_555 1_555
O3_2 Co3_2 1_555 1_555
Co6_2 O14_2 1_555 1_555
Co7_2 O15_2 1_555 1_555
O11_2 C7_2 1_555 1_555
C6_2 C7_2 1_555 1_555
C8_2 H1_2 1_555 1_555
Co5_2 O2_2 1_555 1_555
Co5_2 O6_2 1_555 1_555
O9_2 Co1_2 1_555 1_555
O12_2 Co1_2 1_555 1_555
O4_2 N1_2 1_555 1_555
O7_3 Co2_3 1_555 1_555
O10_3 Co2_3 1_555 1_555
O14_3 Co2_3 1_555 1_555
N2_3 Co2_3 1_555 1_555
O16_3 N2_3 1_555 1_555
Co6_3 O14_3 1_555 1_555
Co1_3 O1_3 1_555 1_555
O1_3 C1_3 1_555 1_555
O3_3 C3_3 1_555 1_555
C1_3 C2_3 1_555 1_555
C2_3 C3_3 1_555 1_555
C3_3 C8_3 1_555 1_555
C4_3 C2_3 1_555 1_555
Co3_3 O1_3 1_555 1_555
Co5_3 O3_3 1_555 1_555
O5_3 C5_3 1_555 1_555
O8_3 Co7_3 1_555 1_555
O9_3 Co1_3 1_555 1_555
O12_3 Co1_3 1_555 1_555
C5_3 O8_3 1_555 1_555
C6_3 C5_3 1_555 1_555
C7_3 C4_3 1_555 1_555
C8_3 C6_3 1_555 1_555
O3_3 Co3_3 1_555 1_555
Co3_3 O12_3 1_555 1_555
Co7_3 O15_3 1_555 1_555
O11_3 C7_3 1_555 1_555
C6_3 C7_3 1_555 1_555
C8_3 H1_3 1_555 1_555
O4_3 N1_3 1_555 1_555
Co5_3 O2_3 1_555 1_555
Co5_3 O6_3 1_555 1_555
Co5_3 O13_3 1_555 1_555
O12_3 C3_4 1_555 1_555
C3_4 C8_4 1_555 1_555
Co6_2 O5_4 1_555 1_555
O5_4 C5_4 1_555 1_555
O10_4 Co6_2 1_555 1_555
C5_4 O10_2 1_555 1_555
C6_4 C5_4 1_555 1_555
C8_4 C6_4 1_555 1_555
N2_4 Co6_2 1_555 1_555
O16_4 N2_4 1_555 1_555
C8_4 H1_4 1_555 1_555
O6_3 C1_4 1_555 1_555
O2_4 C1_4 1_555 1_555
C1_4 C2_4 1_555 1_555
C4_4 C2_4 1_555 1_555
N1_4 Co5_3 1_555 1_555
O4_4 N1_4 1_555 1_555
Co3_3 O2_4 1_555 1_555
O6_4 Co5_3 1_555 1_555
C7_4 C4_4 1_555 1_555
Co3_3 O6_4 1_555 1_555
O15_2 C7_4 1_555 1_555
C4_4 H2_4 1_555 1_555
O12 C3_5 1_555 1_555
C3_5 C8_5 1_555 1_555
Co6_3 O5_5 1_555 1_555
O5_5 C5_5 1_555 1_555
O10_5 Co6_3 1_555 1_555
C5_5 O10_3 1_555 1_555
C6_5 C5_5 1_555 1_555
C8_5 C6_5 1_555 1_555
N2_5 Co6_3 1_555 1_555
C8_5 H1_5 1_555 1_555
O6 C1_5 1_555 1_555
O2_5 C1_5 1_555 1_555
C1_5 C2_5 1_555 1_555
C4_5 C2_5 1_555 1_555
N1_5 Co5 1_555 1_555
Co3 O2_5 1_555 1_555
C7_5 C4_5 1_555 1_555
O15_3 C7_5 1_555 1_555
C4_5 H2_5 1_555 1_555
O6_2 C1_6 1_555 1_555
O2_6 C1_6 1_555 1_555
C1_6 C2_6 1_555 1_555
C4_6 C2_6 1_555 1_555
N1_6 Co5_2 1_555 1_555
Co3_2 O2_6 1_555 1_555
C7_6 C4_6 1_555 1_555
O15 C7_6 1_555 1_555
C4_6 H2_6 1_555 1_555
O12_2 C3_6 1_555 1_555
C3_6 C8_6 1_555 1_555
Co6 O5_6 1_555 1_555
O5_6 C5_6 1_555 1_555
O10_6 Co6 1_555 1_555
C5_6 O10 1_555 1_555
C6_6 C5_6 1_555 1_555
C8_6 C6_6 1_555 1_555
N2_6 Co6 1_555 1_555
C8_6 H1_6 1_555 1_555
N1_7 Co3_2 1_555 1_555
O4_7 N1_7 1_555 1_555
O6_6 C1_7 1_555 1_555
O9_2 C1_7 1_555 1_555
O13_2 C3_7 1_555 1_555
C1_7 C2_7 1_555 1_555
C2_7 C3_7 1_555 1_555
C3_7 C8_7 1_555 1_555
C4_7 C2_7 1_555 1_555
O7_3 C5_7 1_555 1_555
C6_7 C5_7 1_555 1_555
C7_7 C4_7 1_555 1_555
C8_7 C6_7 1_555 1_555
O14_3 C7_7 1_555 1_555
C6_7 C7_7 1_555 1_555
C4_7 H2_7 1_555 1_555
O16_7 N2_7 1_555 1_555
O16_8 N2_8 1_555 1_555
O6_4 C1_8 1_555 1_555
O9_3 C1_8 1_555 1_555
O13_3 C3_8 1_555 1_555
C1_8 C2_8 1_555 1_555
C2_8 C3_8 1_555 1_555
C3_8 C8_8 1_555 1_555
C4_8 C2_8 1_555 1_555
N1_8 Co3_3 1_555 1_555
O4_8 N1_8 1_555 1_555
O7 C5_8 1_555 1_555
C6_8 C5_8 1_555 1_555
C7_8 C4_8 1_555 1_555
C8_8 C6_8 1_555 1_555
O14 C7_8 1_555 1_555
C6_8 C7_8 1_555 1_555
C4_8 H2_8 1_555 1_555
O16_9 N2_9 1_555 1_555
O6_5 C1_9 1_555 1_555
O9 C1_9 1_555 1_555
O13 C3_9 1_555 1_555
C1_9 C2_9 1_555 1_555
C2_9 C3_9 1_555 1_555
C3_9 C8_9 1_555 1_555
C4_9 C2_9 1_555 1_555
O7_2 C5_9 1_555 1_555
C6_9 C5_9 1_555 1_555
C7_9 C4_9 1_555 1_555
C8_9 C6_9 1_555 1_555
O14_2 C7_9 1_555 1_555
C6_9 C7_9 1_555 1_555
C4_9 H2_9 1_555 1_555
N1_9 Co3 1_555 1_555
O4_9 N1_9 1_555 1_555

#END
