
###############################################################################
#
# This file contains modified crystal structure data generated from the
# MOF subset of the Cambridge Structural Database (CSD) v543 
# hosted by the Cambridge Crystallographic Data Centre (CCDC).
#
# This work is licensed under the Creative Commons
# Attribution-NonCommercial-ShareAlike 4.0 International License.
# To view a copy of this license, visit
# http://creativecommons.org/licenses/by-nc-sa/4.0/
# or send a letter to
# Creative Commons, PO Box 1866, Mountain View, CA 94042, USA.
#
# CIF created using the CSD Python API on 29 September 2022
# The structure has been converted into the P1 space group
# The structure has a 3D framework
# The original CSD entry QOWRAV12 is in the cubic crystal system
# The framework has been calculated to contain at least 10.0% void space
# The void calculation uses a probe of radius 1.32A, grid spacing 0.4
# H atom positions have been added when not included in the experimental data
# Generated hydrogen atom positions removed from atoms on special positions
#
###############################################################################

data_QOWRAV12
_chemical_formula_moiety         '(C432 H528 Cu48 O144)n'
_symmetry_cell_setting           triclinic
_symmetry_space_group_name_H-M   'P 1'
_symmetry_Int_Tables_number      1
_space_group_name_Hall           'P 1'
loop_
_symmetry_equiv_pos_site_id
_symmetry_equiv_pos_as_xyz
1 x,y,z
_cell_length_a                   26.925(3)
_cell_length_b                   26.925(3)
_cell_length_c                   26.925(3)
_cell_angle_alpha                90
_cell_angle_beta                 90
_cell_angle_gamma                90
_cell_volume                     19519.4
loop_
_atom_site_label
_atom_site_type_symbol
_atom_site_fract_x
_atom_site_fract_y
_atom_site_fract_z
Cu10 Cu 0.0000 0.14413(6) 0.5000
Cu16 Cu 0.0000 0.24070(7) 0.5000
Cu1 Cu 0.5000 0.0000 0.14413(6)
Cu2 Cu 0.5000 0.0000 0.24070(7)
O1 O 0.44746(17) 0.05035(19) 0.1488(2)
O2 O 0.4486(2) 0.0488(2) 0.2311(2)
C1 C 0.2940(3) 0.1447(3) 0.1970(3)
C2 C 0.4306(3) 0.0620(3) 0.1900(3)
C3 C 0.3600(3) 0.1064(3) 0.1491(3)
H1 H 0.3736 0.0980 0.1185
C4 C 0.3194(3) 0.1291(3) 0.2409(3)
H2 H 0.3059 0.1360 0.2719
C5 C 0.3150(3) 0.1337(3) 0.1509(3)
H3 H 0.2997 0.1441 0.1217
C6 C 0.3637(3) 0.1039(3) 0.2375(3)
H4 H 0.3803 0.0947 0.2664
C7 C 0.2164(3) 0.1694(3) 0.2412(3)
H5 H 0.2211 0.1426 0.2625
C8 C 0.3840(3) 0.0920(2) 0.1921(3)
C9 C 0.2491(3) 0.1767(3) 0.2019(3)
O3 O 0.5000 0.0000 0.3224(7)
O4 O 0.5000 0.0000 0.0593(19)
O5 O 0.1488(2) 0.44746(17) 0.05035(19)
O6 O 0.2311(2) 0.4486(2) 0.0488(2)
C10 C 0.1970(3) 0.2940(3) 0.1447(3)
C11 C 0.1900(3) 0.4306(3) 0.0620(3)
C12 C 0.1491(3) 0.3600(3) 0.1064(3)
H6 H 0.1185 0.3736 0.0980
C13 C 0.2409(3) 0.3194(3) 0.1291(3)
H7 H 0.2719 0.3059 0.1360
C14 C 0.1509(3) 0.3150(3) 0.1337(3)
H8 H 0.1217 0.2997 0.1441
C15 C 0.2375(3) 0.3637(3) 0.1039(3)
H9 H 0.2664 0.3803 0.0947
C16 C 0.2412(3) 0.2164(3) 0.1694(3)
H10 H 0.2625 0.2211 0.1426
C17 C 0.1921(3) 0.3840(3) 0.0920(2)
C18 C 0.2019(3) 0.2491(3) 0.1767(3)
O7 O 0.05035(19) 0.1488(2) 0.44746(17)
O8 O 0.0488(2) 0.2311(2) 0.4486(2)
C19 C 0.1447(3) 0.1970(3) 0.2940(3)
C20 C 0.0620(3) 0.1900(3) 0.4306(3)
C21 C 0.1064(3) 0.1491(3) 0.3600(3)
H11 H 0.0980 0.1185 0.3736
C22 C 0.1291(3) 0.2409(3) 0.3194(3)
H12 H 0.1360 0.2719 0.3059
C23 C 0.1337(3) 0.1509(3) 0.3150(3)
H13 H 0.1441 0.1217 0.2997
C24 C 0.1039(3) 0.2375(3) 0.3637(3)
H14 H 0.0947 0.2664 0.3803
C25 C 0.1694(3) 0.2412(3) 0.2164(3)
H15 H 0.1426 0.2625 0.2211
C26 C 0.0920(2) 0.1921(3) 0.3840(3)
C27 C 0.1767(3) 0.2019(3) 0.2491(3)
Cu3 Cu 0.14413(6) 0.5000 0.0000
Cu4 Cu 0.24070(7) 0.5000 0.0000
O9 O 0.3224(7) 0.5000 0.0000
O10 O 0.0593(19) 0.5000 0.0000
O25 O 0.55254(17) 0.05035(19) 0.1488(2)
O26 O 0.5514(2) 0.0488(2) 0.2311(2)
C82 C 0.7060(3) 0.1447(3) 0.1970(3)
C83 C 0.5694(3) 0.0620(3) 0.1900(3)
C84 C 0.6400(3) 0.1064(3) 0.1491(3)
H46 H 0.6264 0.0980 0.1185
C85 C 0.6806(3) 0.1291(3) 0.2409(3)
H47 H 0.6941 0.1360 0.2719
C86 C 0.6850(3) 0.1337(3) 0.1509(3)
H48 H 0.7003 0.1441 0.1217
C87 C 0.6363(3) 0.1039(3) 0.2375(3)
H49 H 0.6197 0.0947 0.2664
C88 C 0.7836(3) 0.1694(3) 0.2412(3)
H50 H 0.7789 0.1426 0.2625
C89 C 0.6160(3) 0.0920(2) 0.1921(3)
C90 C 0.7509(3) 0.1767(3) 0.2019(3)
O27 O 0.8512(2) 0.44746(17) 0.05035(19)
O28 O 0.7689(2) 0.4486(2) 0.0488(2)
C91 C 0.8030(3) 0.2940(3) 0.1447(3)
C92 C 0.8100(3) 0.4306(3) 0.0620(3)
C93 C 0.8509(3) 0.3600(3) 0.1064(3)
H51 H 0.8815 0.3736 0.0980
C94 C 0.7591(3) 0.3194(3) 0.1291(3)
H52 H 0.7281 0.3059 0.1360
C95 C 0.8491(3) 0.3150(3) 0.1337(3)
H53 H 0.8783 0.2997 0.1441
C96 C 0.7625(3) 0.3637(3) 0.1039(3)
H54 H 0.7336 0.3803 0.0947
C97 C 0.7588(3) 0.2164(3) 0.1694(3)
H55 H 0.7375 0.2211 0.1426
C98 C 0.8079(3) 0.3840(3) 0.0920(2)
C99 C 0.7981(3) 0.2491(3) 0.1767(3)
O29 O 0.94965(19) 0.1488(2) 0.44746(17)
O30 O 0.9512(2) 0.2311(2) 0.4486(2)
C100 C 0.8553(3) 0.1970(3) 0.2940(3)
C101 C 0.9380(3) 0.1900(3) 0.4306(3)
C102 C 0.8936(3) 0.1491(3) 0.3600(3)
H56 H 0.9020 0.1185 0.3736
C103 C 0.8709(3) 0.2409(3) 0.3194(3)
H57 H 0.8640 0.2719 0.3059
C104 C 0.8663(3) 0.1509(3) 0.3150(3)
H58 H 0.8559 0.1217 0.2997
C105 C 0.8961(3) 0.2375(3) 0.3637(3)
H59 H 0.9053 0.2664 0.3803
C106 C 0.8306(3) 0.2412(3) 0.2164(3)
H60 H 0.8574 0.2625 0.2211
C107 C 0.9080(2) 0.1921(3) 0.3840(3)
C108 C 0.8233(3) 0.2019(3) 0.2491(3)
Cu10_2 Cu 1.0000 0.14413(6) 0.5000
Cu12 Cu 0.85587(6) 0.5000 0.0000
Cu16_2 Cu 1.0000 0.24070(7) 0.5000
Cu18 Cu 0.75930(7) 0.5000 0.0000
O36 O 0.1488(2) 0.55254(17) 0.05035(19)
O42 O 0.2311(2) 0.5514(2) 0.0488(2)
Cu3_2 Cu 0.14413(6) 0.5000 1.0000
Cu4_2 Cu 0.24070(7) 0.5000 1.0000
O9_2 O 0.3224(7) 0.5000 1.0000
O10_2 O 0.0593(19) 0.5000 1.0000
O11 O 0.05035(19) 0.1488(2) 0.55254(17)
O12 O 0.0488(2) 0.2311(2) 0.5514(2)
C28 C 0.1447(3) 0.1970(3) 0.7060(3)
C29 C 0.0620(3) 0.1900(3) 0.5694(3)
C30 C 0.1064(3) 0.1491(3) 0.6400(3)
H16 H 0.0980 0.1185 0.6264
C31 C 0.1291(3) 0.2409(3) 0.6806(3)
H17 H 0.1360 0.2719 0.6941
C32 C 0.1337(3) 0.1509(3) 0.6850(3)
H18 H 0.1441 0.1217 0.7003
C33 C 0.1039(3) 0.2375(3) 0.6363(3)
H19 H 0.0947 0.2664 0.6197
C34 C 0.1694(3) 0.2412(3) 0.7836(3)
H20 H 0.1426 0.2625 0.7789
C35 C 0.0920(2) 0.1921(3) 0.6160(3)
C36 C 0.1767(3) 0.2019(3) 0.7509(3)
O13 O 0.44746(17) 0.05035(19) 0.8512(2)
O14 O 0.4486(2) 0.0488(2) 0.7689(2)
C37 C 0.2940(3) 0.1447(3) 0.8030(3)
C38 C 0.4306(3) 0.0620(3) 0.8100(3)
C39 C 0.3600(3) 0.1064(3) 0.8509(3)
H21 H 0.3736 0.0980 0.8815
C40 C 0.3194(3) 0.1291(3) 0.7591(3)
H22 H 0.3059 0.1360 0.7281
C41 C 0.3150(3) 0.1337(3) 0.8491(3)
H23 H 0.2997 0.1441 0.8783
C42 C 0.3637(3) 0.1039(3) 0.7625(3)
H24 H 0.3803 0.0947 0.7336
C43 C 0.2164(3) 0.1694(3) 0.7588(3)
H25 H 0.2211 0.1426 0.7375
C44 C 0.3840(3) 0.0920(2) 0.8079(3)
C45 C 0.2491(3) 0.1767(3) 0.7981(3)
O15 O 0.1488(2) 0.44746(17) 0.94965(19)
O16 O 0.2311(2) 0.4486(2) 0.9512(2)
C46 C 0.1970(3) 0.2940(3) 0.8553(3)
C47 C 0.1900(3) 0.4306(3) 0.9380(3)
C48 C 0.1491(3) 0.3600(3) 0.8936(3)
H26 H 0.1185 0.3736 0.9020
C49 C 0.2409(3) 0.3194(3) 0.8709(3)
H27 H 0.2719 0.3059 0.8640
C50 C 0.1509(3) 0.3150(3) 0.8663(3)
H28 H 0.1217 0.2997 0.8559
C51 C 0.2375(3) 0.3637(3) 0.8961(3)
H29 H 0.2664 0.3803 0.9053
C52 C 0.2412(3) 0.2164(3) 0.8306(3)
H30 H 0.2625 0.2211 0.8574
C53 C 0.1921(3) 0.3840(3) 0.9080(2)
C54 C 0.2019(3) 0.2491(3) 0.8233(3)
Cu5 Cu 0.5000 0.0000 0.85587(6)
Cu6 Cu 0.5000 0.0000 0.75930(7)
O23 O 0.5000 0.0000 0.6776(7)
O24 O 0.5000 0.0000 0.9407(19)
Cu12_2 Cu 0.85587(6) 0.5000 1.0000
Cu18_2 Cu 0.75930(7) 0.5000 1.0000
O31 O 0.1488(2) 0.55254(17) 0.94965(19)
O34 O 0.55254(17) 0.05035(19) 0.8512(2)
O37 O 0.2311(2) 0.5514(2) 0.9512(2)
O40 O 0.5514(2) 0.0488(2) 0.7689(2)
Cu1_2 Cu 0.5000 1.0000 0.14413(6)
Cu2_2 Cu 0.5000 1.0000 0.24070(7)
O3_2 O 0.5000 1.0000 0.3224(7)
O4_2 O 0.5000 1.0000 0.0593(19)
O17 O 0.05035(19) 0.8512(2) 0.44746(17)
O18 O 0.0488(2) 0.7689(2) 0.4486(2)
C55 C 0.1447(3) 0.8030(3) 0.2940(3)
C56 C 0.0620(3) 0.8100(3) 0.4306(3)
C57 C 0.1064(3) 0.8509(3) 0.3600(3)
H31 H 0.0980 0.8815 0.3736
C58 C 0.1291(3) 0.7591(3) 0.3194(3)
H32 H 0.1360 0.7281 0.3059
C59 C 0.1337(3) 0.8491(3) 0.3150(3)
H33 H 0.1441 0.8783 0.2997
C60 C 0.1039(3) 0.7625(3) 0.3637(3)
H34 H 0.0947 0.7336 0.3803
C61 C 0.1694(3) 0.7588(3) 0.2164(3)
H35 H 0.1426 0.7375 0.2211
C62 C 0.0920(2) 0.8079(3) 0.3840(3)
C63 C 0.1767(3) 0.7981(3) 0.2491(3)
O19 O 0.44746(17) 0.94965(19) 0.1488(2)
O20 O 0.4486(2) 0.9512(2) 0.2311(2)
C64 C 0.2940(3) 0.8553(3) 0.1970(3)
C65 C 0.4306(3) 0.9380(3) 0.1900(3)
C66 C 0.3600(3) 0.8936(3) 0.1491(3)
H36 H 0.3736 0.9020 0.1185
C67 C 0.3194(3) 0.8709(3) 0.2409(3)
H37 H 0.3059 0.8640 0.2719
C68 C 0.3150(3) 0.8663(3) 0.1509(3)
H38 H 0.2997 0.8559 0.1217
C69 C 0.3637(3) 0.8961(3) 0.2375(3)
H39 H 0.3803 0.9053 0.2664
C70 C 0.2164(3) 0.8306(3) 0.2412(3)
H40 H 0.2211 0.8574 0.2625
C71 C 0.3840(3) 0.9080(2) 0.1921(3)
C72 C 0.2491(3) 0.8233(3) 0.2019(3)
C73 C 0.1970(3) 0.7060(3) 0.1447(3)
C74 C 0.1900(3) 0.5694(3) 0.0620(3)
C75 C 0.1491(3) 0.6400(3) 0.1064(3)
H41 H 0.1185 0.6264 0.0980
C76 C 0.2409(3) 0.6806(3) 0.1291(3)
H42 H 0.2719 0.6941 0.1360
C77 C 0.1509(3) 0.6850(3) 0.1337(3)
H43 H 0.1217 0.7003 0.1441
C78 C 0.2375(3) 0.6363(3) 0.1039(3)
H44 H 0.2664 0.6197 0.0947
C79 C 0.2412(3) 0.7836(3) 0.1694(3)
H45 H 0.2625 0.7789 0.1426
C80 C 0.1921(3) 0.6160(3) 0.0920(2)
C81 C 0.2019(3) 0.7509(3) 0.1767(3)
Cu11 Cu 0.0000 0.85587(6) 0.5000
Cu17 Cu 0.0000 0.75930(7) 0.5000
O32 O 0.55254(17) 0.94965(19) 0.1488(2)
O38 O 0.5514(2) 0.9512(2) 0.2311(2)
Cu5_2 Cu 0.5000 1.0000 0.85587(6)
Cu6_2 Cu 0.5000 1.0000 0.75930(7)
O23_2 O 0.5000 1.0000 0.6776(7)
O24_2 O 0.5000 1.0000 0.9407(19)
O33 O 0.44746(17) 0.94965(19) 0.8512(2)
O35 O 0.55254(17) 0.94965(19) 0.8512(2)
O39 O 0.4486(2) 0.9512(2) 0.7689(2)
O41 O 0.5514(2) 0.9512(2) 0.7689(2)
Cu11_2 Cu 1.0000 0.85587(6) 0.5000
Cu17_2 Cu 1.0000 0.75930(7) 0.5000
O9_3 O 0.0000 0.3224(7) 0.5000
O10_3 O 0.0000 0.0593(19) 0.5000
O9_4 O 1.0000 0.3224(7) 0.5000
O10_4 O 1.0000 0.0593(19) 0.5000
O23_3 O 0.6776(7) 0.5000 0.0000
O24_3 O 0.9407(19) 0.5000 0.0000
O31_2 O 0.94965(19) 0.1488(2) 0.55254(17)
O34_2 O 0.8512(2) 0.55254(17) 0.05035(19)
O37_2 O 0.9512(2) 0.2311(2) 0.5514(2)
O40_2 O 0.7689(2) 0.5514(2) 0.0488(2)
O23_4 O 0.6776(7) 0.5000 1.0000
O24_4 O 0.9407(19) 0.5000 1.0000
O33_2 O 0.8512(2) 0.44746(17) 0.94965(19)
O35_2 O 0.8512(2) 0.55254(17) 0.94965(19)
O39_2 O 0.7689(2) 0.4486(2) 0.9512(2)
O41_2 O 0.7689(2) 0.5514(2) 0.9512(2)
O23_5 O 0.0000 0.6776(7) 0.5000
O24_5 O 0.0000 0.9407(19) 0.5000
O34_3 O 0.05035(19) 0.8512(2) 0.55254(17)
O40_3 O 0.0488(2) 0.7689(2) 0.5514(2)
O23_6 O 1.0000 0.6776(7) 0.5000
O24_6 O 1.0000 0.9407(19) 0.5000
O33_3 O 0.94965(19) 0.8512(2) 0.44746(17)
O35_3 O 0.94965(19) 0.8512(2) 0.55254(17)
O39_3 O 0.9512(2) 0.7689(2) 0.4486(2)
O41_3 O 0.9512(2) 0.7689(2) 0.5514(2)
C1_2 C 0.8553(3) 0.8030(3) 0.2940(3)
C2_2 C 0.9380(3) 0.8100(3) 0.4306(3)
C3_2 C 0.8936(3) 0.8509(3) 0.3600(3)
H1_2 H 0.9020 0.8815 0.3736
C4_2 C 0.8709(3) 0.7591(3) 0.3194(3)
H2_2 H 0.8640 0.7281 0.3059
C5_2 C 0.8663(3) 0.8491(3) 0.3150(3)
H3_2 H 0.8559 0.8783 0.2997
C6_2 C 0.8961(3) 0.7625(3) 0.3637(3)
H4_2 H 0.9053 0.7336 0.3803
C7_2 C 0.8306(3) 0.7588(3) 0.2164(3)
H5_2 H 0.8574 0.7375 0.2211
C8_2 C 0.9080(2) 0.8079(3) 0.3840(3)
C9_2 C 0.8233(3) 0.7981(3) 0.2491(3)
C10_2 C 0.7060(3) 0.8553(3) 0.1970(3)
C11_2 C 0.5694(3) 0.9380(3) 0.1900(3)
C12_2 C 0.6400(3) 0.8936(3) 0.1491(3)
H6_2 H 0.6264 0.9020 0.1185
C13_2 C 0.6806(3) 0.8709(3) 0.2409(3)
H7_2 H 0.6941 0.8640 0.2719
C14_2 C 0.6850(3) 0.8663(3) 0.1509(3)
H8_2 H 0.7003 0.8559 0.1217
C15_2 C 0.6363(3) 0.8961(3) 0.2375(3)
H9_2 H 0.6197 0.9053 0.2664
C16_2 C 0.7836(3) 0.8306(3) 0.2412(3)
H10_2 H 0.7789 0.8574 0.2625
C17_2 C 0.6160(3) 0.9080(2) 0.1921(3)
C18_2 C 0.7509(3) 0.8233(3) 0.2019(3)
C19_2 C 0.8030(3) 0.7060(3) 0.1447(3)
C20_2 C 0.8100(3) 0.5694(3) 0.0620(3)
C21_2 C 0.8509(3) 0.6400(3) 0.1064(3)
H11_2 H 0.8815 0.6264 0.0980
C22_2 C 0.7591(3) 0.6806(3) 0.1291(3)
H12_2 H 0.7281 0.6941 0.1360
C23_2 C 0.8491(3) 0.6850(3) 0.1337(3)
H13_2 H 0.8783 0.7003 0.1441
C24_2 C 0.7625(3) 0.6363(3) 0.1039(3)
H14_2 H 0.7336 0.6197 0.0947
C25_2 C 0.7588(3) 0.7836(3) 0.1694(3)
H15_2 H 0.7375 0.7789 0.1426
C26_2 C 0.8079(3) 0.6160(3) 0.0920(2)
C27_2 C 0.7981(3) 0.7509(3) 0.1767(3)
C82_2 C 0.8553(3) 0.8030(3) 0.7060(3)
C83_2 C 0.9380(3) 0.8100(3) 0.5694(3)
C84_2 C 0.8936(3) 0.8509(3) 0.6400(3)
H46_2 H 0.9020 0.8815 0.6264
C85_2 C 0.8709(3) 0.7591(3) 0.6806(3)
H47_2 H 0.8640 0.7281 0.6941
C86_2 C 0.8663(3) 0.8491(3) 0.6850(3)
H48_2 H 0.8559 0.8783 0.7003
C87_2 C 0.8961(3) 0.7625(3) 0.6363(3)
H49_2 H 0.9053 0.7336 0.6197
C88_2 C 0.8306(3) 0.7588(3) 0.7836(3)
H50_2 H 0.8574 0.7375 0.7789
C89_2 C 0.9080(2) 0.8079(3) 0.6160(3)
C90_2 C 0.8233(3) 0.7981(3) 0.7509(3)
C91_2 C 0.7060(3) 0.8553(3) 0.8030(3)
C92_2 C 0.5694(3) 0.9380(3) 0.8100(3)
C93_2 C 0.6400(3) 0.8936(3) 0.8509(3)
H51_2 H 0.6264 0.9020 0.8815
C94_2 C 0.6806(3) 0.8709(3) 0.7591(3)
H52_2 H 0.6941 0.8640 0.7281
C95_2 C 0.6850(3) 0.8663(3) 0.8491(3)
H53_2 H 0.7003 0.8559 0.8783
C96_2 C 0.6363(3) 0.8961(3) 0.7625(3)
H54_2 H 0.6197 0.9053 0.7336
C97_2 C 0.7836(3) 0.8306(3) 0.7588(3)
H55_2 H 0.7789 0.8574 0.7375
C98_2 C 0.6160(3) 0.9080(2) 0.8079(3)
C99_2 C 0.7509(3) 0.8233(3) 0.7981(3)
C100_2 C 0.8030(3) 0.7060(3) 0.8553(3)
C101_2 C 0.8100(3) 0.5694(3) 0.9380(3)
C102_2 C 0.8509(3) 0.6400(3) 0.8936(3)
H56_2 H 0.8815 0.6264 0.9020
C103_2 C 0.7591(3) 0.6806(3) 0.8709(3)
H57_2 H 0.7281 0.6941 0.8640
C104_2 C 0.8491(3) 0.6850(3) 0.8663(3)
H58_2 H 0.8783 0.7003 0.8559
C105_2 C 0.7625(3) 0.6363(3) 0.8961(3)
H59_2 H 0.7336 0.6197 0.9053
C106_2 C 0.7588(3) 0.7836(3) 0.8306(3)
H60_2 H 0.7375 0.7789 0.8574
C107_2 C 0.8079(3) 0.6160(3) 0.9080(2)
C108_2 C 0.7981(3) 0.7509(3) 0.8233(3)
C1_3 C 0.1970(3) 0.7060(3) 0.8553(3)
C2_3 C 0.1900(3) 0.5694(3) 0.9380(3)
C3_3 C 0.1491(3) 0.6400(3) 0.8936(3)
H1_3 H 0.1185 0.6264 0.9020
C4_3 C 0.2409(3) 0.6806(3) 0.8709(3)
H2_3 H 0.2719 0.6941 0.8640
C5_3 C 0.1509(3) 0.6850(3) 0.8663(3)
H3_3 H 0.1217 0.7003 0.8559
C6_3 C 0.2375(3) 0.6363(3) 0.8961(3)
H4_3 H 0.2664 0.6197 0.9053
C7_3 C 0.2412(3) 0.7836(3) 0.8306(3)
H5_3 H 0.2625 0.7789 0.8574
C8_3 C 0.1921(3) 0.6160(3) 0.9080(2)
C9_3 C 0.2019(3) 0.7509(3) 0.8233(3)
C10_3 C 0.1447(3) 0.8030(3) 0.7060(3)
C11_3 C 0.0620(3) 0.8100(3) 0.5694(3)
C12_3 C 0.1064(3) 0.8509(3) 0.6400(3)
H6_3 H 0.0980 0.8815 0.6264
C13_3 C 0.1291(3) 0.7591(3) 0.6806(3)
H7_3 H 0.1360 0.7281 0.6941
C14_3 C 0.1337(3) 0.8491(3) 0.6850(3)
H8_3 H 0.1441 0.8783 0.7003
C15_3 C 0.1039(3) 0.7625(3) 0.6363(3)
H9_3 H 0.0947 0.7336 0.6197
C16_3 C 0.1694(3) 0.7588(3) 0.7836(3)
H10_3 H 0.1426 0.7375 0.7789
C17_3 C 0.0920(2) 0.8079(3) 0.6160(3)
C18_3 C 0.1767(3) 0.7981(3) 0.7509(3)
C19_3 C 0.2940(3) 0.8553(3) 0.8030(3)
C20_3 C 0.4306(3) 0.9380(3) 0.8100(3)
C21_3 C 0.3600(3) 0.8936(3) 0.8509(3)
H11_3 H 0.3736 0.9020 0.8815
C22_3 C 0.3194(3) 0.8709(3) 0.7591(3)
H12_3 H 0.3059 0.8640 0.7281
C23_3 C 0.3150(3) 0.8663(3) 0.8491(3)
H13_3 H 0.2997 0.8559 0.8783
C24_3 C 0.3637(3) 0.8961(3) 0.7625(3)
H14_3 H 0.3803 0.9053 0.7336
C25_3 C 0.2164(3) 0.8306(3) 0.7588(3)
H15_3 H 0.2211 0.8574 0.7375
C26_3 C 0.3840(3) 0.9080(2) 0.8079(3)
C27_3 C 0.2491(3) 0.8233(3) 0.7981(3)
C1_4 C 0.8553(3) 0.1970(3) 0.7060(3)
C2_4 C 0.9380(3) 0.1900(3) 0.5694(3)
C3_4 C 0.8936(3) 0.1491(3) 0.6400(3)
H1_4 H 0.9020 0.1185 0.6264
C4_4 C 0.8709(3) 0.2409(3) 0.6806(3)
H2_4 H 0.8640 0.2719 0.6941
C5_4 C 0.8663(3) 0.1509(3) 0.6850(3)
H3_4 H 0.8559 0.1217 0.7003
C6_4 C 0.8961(3) 0.2375(3) 0.6363(3)
H4_4 H 0.9053 0.2664 0.6197
C7_4 C 0.8306(3) 0.2412(3) 0.7836(3)
H5_4 H 0.8574 0.2625 0.7789
C8_4 C 0.9080(2) 0.1921(3) 0.6160(3)
C9_4 C 0.8233(3) 0.2019(3) 0.7509(3)
C10_4 C 0.7060(3) 0.1447(3) 0.8030(3)
C11_4 C 0.5694(3) 0.0620(3) 0.8100(3)
C12_4 C 0.6400(3) 0.1064(3) 0.8509(3)
H6_4 H 0.6264 0.0980 0.8815
C13_4 C 0.6806(3) 0.1291(3) 0.7591(3)
H7_4 H 0.6941 0.1360 0.7281
C14_4 C 0.6850(3) 0.1337(3) 0.8491(3)
H8_4 H 0.7003 0.1441 0.8783
C15_4 C 0.6363(3) 0.1039(3) 0.7625(3)
H9_4 H 0.6197 0.0947 0.7336
C16_4 C 0.7836(3) 0.1694(3) 0.7588(3)
H10_4 H 0.7789 0.1426 0.7375
C17_4 C 0.6160(3) 0.0920(2) 0.8079(3)
C18_4 C 0.7509(3) 0.1767(3) 0.7981(3)
C19_4 C 0.8030(3) 0.2940(3) 0.8553(3)
C20_4 C 0.8100(3) 0.4306(3) 0.9380(3)
C21_4 C 0.8509(3) 0.3600(3) 0.8936(3)
H11_4 H 0.8815 0.3736 0.9020
C22_4 C 0.7591(3) 0.3194(3) 0.8709(3)
H12_4 H 0.7281 0.3059 0.8640
C23_4 C 0.8491(3) 0.3150(3) 0.8663(3)
H13_4 H 0.8783 0.2997 0.8559
C24_4 C 0.7625(3) 0.3637(3) 0.8961(3)
H14_4 H 0.7336 0.3803 0.9053
C25_4 C 0.7588(3) 0.2164(3) 0.8306(3)
H15_4 H 0.7375 0.2211 0.8574
C26_4 C 0.8079(3) 0.3840(3) 0.9080(2)
C27_4 C 0.7981(3) 0.2491(3) 0.8233(3)
Cu12_3 Cu 0.35587(6) 0.0000 0.5000
Cu18_3 Cu 0.25930(7) 0.0000 0.5000
Cu10_3 Cu 0.5000 0.64413(6) 0.0000
Cu16_3 Cu 0.5000 0.74070(7) 0.0000
Cu1_3 Cu 0.0000 0.5000 0.64413(6)
Cu2_3 Cu 0.0000 0.5000 0.74070(7)
O3_3 O 0.0000 0.5000 0.8224(7)
O4_3 O 0.0000 0.5000 0.5593(19)
Cu5_3 Cu 0.0000 0.5000 0.35587(6)
Cu6_3 Cu 0.0000 0.5000 0.25930(7)
O23_7 O 0.0000 0.5000 0.1776(7)
O24_7 O 0.0000 0.5000 0.4407(19)
O25_2 O 0.05254(17) 0.55035(19) 0.6488(2)
O26_2 O 0.0514(2) 0.5488(2) 0.7311(2)
C82_3 C 0.2060(3) 0.6447(3) 0.6970(3)
C83_3 C 0.0694(3) 0.5620(3) 0.6900(3)
C84_3 C 0.1400(3) 0.6064(3) 0.6491(3)
H46_3 H 0.1264 0.5980 0.6185
C85_3 C 0.1806(3) 0.6291(3) 0.7409(3)
H47_3 H 0.1941 0.6360 0.7719
C86_3 C 0.1850(3) 0.6337(3) 0.6509(3)
H48_3 H 0.2003 0.6441 0.6217
C87_3 C 0.1363(3) 0.6039(3) 0.7375(3)
H49_3 H 0.1197 0.5947 0.7664
C88_3 C 0.2836(3) 0.6694(3) 0.7412(3)
H50_3 H 0.2789 0.6426 0.7625
C89_3 C 0.1160(3) 0.5920(2) 0.6921(3)
C90_3 C 0.2509(3) 0.6767(3) 0.7019(3)
O27_2 O 0.3512(2) 0.94746(17) 0.55035(19)
O28_2 O 0.2689(2) 0.9486(2) 0.5488(2)
C91_3 C 0.3030(3) 0.7940(3) 0.6447(3)
C92_3 C 0.3100(3) 0.9306(3) 0.5620(3)
C93_3 C 0.3509(3) 0.8600(3) 0.6064(3)
H51_3 H 0.3815 0.8736 0.5980
C94_3 C 0.2591(3) 0.8194(3) 0.6291(3)
H52_3 H 0.2281 0.8059 0.6360
C95_3 C 0.3491(3) 0.8150(3) 0.6337(3)
H53_3 H 0.3783 0.7997 0.6441
C96_3 C 0.2625(3) 0.8637(3) 0.6039(3)
H54_3 H 0.2336 0.8803 0.5947
C97_3 C 0.2588(3) 0.7164(3) 0.6694(3)
H55_3 H 0.2375 0.7211 0.6426
C98_3 C 0.3079(3) 0.8840(3) 0.5920(2)
C99_3 C 0.2981(3) 0.7491(3) 0.6767(3)
O29_2 O 0.44965(19) 0.6488(2) 0.94746(17)
O30_2 O 0.4512(2) 0.7311(2) 0.9486(2)
C100_3 C 0.3553(3) 0.6970(3) 0.7940(3)
C101_3 C 0.4380(3) 0.6900(3) 0.9306(3)
C102_3 C 0.3936(3) 0.6491(3) 0.8600(3)
H56_3 H 0.4020 0.6185 0.8736
C103_3 C 0.3709(3) 0.7409(3) 0.8194(3)
H57_3 H 0.3640 0.7719 0.8059
C104_3 C 0.3663(3) 0.6509(3) 0.8150(3)
H58_3 H 0.3559 0.6217 0.7997
C105_3 C 0.3961(3) 0.7375(3) 0.8637(3)
H59_3 H 0.4053 0.7664 0.8803
C106_3 C 0.3306(3) 0.7412(3) 0.7164(3)
H60_3 H 0.3574 0.7625 0.7211
C107_3 C 0.4080(2) 0.6921(3) 0.8840(3)
C108_3 C 0.3233(3) 0.7019(3) 0.7491(3)
Cu10_4 Cu 0.5000 0.64413(6) 1.0000
Cu12_4 Cu 0.35587(6) 1.0000 0.5000
Cu16_4 Cu 0.5000 0.74070(7) 1.0000
Cu18_4 Cu 0.25930(7) 1.0000 0.5000
O32_2 O 0.05254(17) 0.44965(19) 0.6488(2)
O34_4 O 0.05254(17) 0.55035(19) 0.3512(2)
O35_4 O 0.05254(17) 0.44965(19) 0.3512(2)
O38_2 O 0.0514(2) 0.4512(2) 0.7311(2)
O40_4 O 0.0514(2) 0.5488(2) 0.2689(2)
O41_4 O 0.0514(2) 0.4512(2) 0.2689(2)
Cu3_3 Cu 0.64413(6) 0.0000 0.5000
Cu4_3 Cu 0.74070(7) 0.0000 0.5000
O9_5 O 0.8224(7) 0.0000 0.5000
O10_5 O 0.5593(19) 0.0000 0.5000
O31_3 O 0.6488(2) 0.05254(17) 0.44965(19)
O36_2 O 0.6488(2) 0.05254(17) 0.55035(19)
O37_3 O 0.7311(2) 0.0514(2) 0.4512(2)
O42_2 O 0.7311(2) 0.0514(2) 0.5488(2)
Cu11_3 Cu 0.5000 0.35587(6) 0.0000
Cu17_3 Cu 0.5000 0.25930(7) 0.0000
Cu1_4 Cu 1.0000 0.5000 0.64413(6)
Cu2_4 Cu 1.0000 0.5000 0.74070(7)
O1_2 O 0.94746(17) 0.55035(19) 0.6488(2)
O2_2 O 0.9486(2) 0.5488(2) 0.7311(2)
C1_5 C 0.7940(3) 0.6447(3) 0.6970(3)
C2_5 C 0.9306(3) 0.5620(3) 0.6900(3)
C3_5 C 0.8600(3) 0.6064(3) 0.6491(3)
H1_5 H 0.8736 0.5980 0.6185
C4_5 C 0.8194(3) 0.6291(3) 0.7409(3)
H2_5 H 0.8059 0.6360 0.7719
C5_5 C 0.8150(3) 0.6337(3) 0.6509(3)
H3_5 H 0.7997 0.6441 0.6217
C6_5 C 0.8637(3) 0.6039(3) 0.7375(3)
H4_5 H 0.8803 0.5947 0.7664
C7_5 C 0.7164(3) 0.6694(3) 0.7412(3)
H5_5 H 0.7211 0.6426 0.7625
C8_5 C 0.8840(3) 0.5920(2) 0.6921(3)
C9_5 C 0.7491(3) 0.6767(3) 0.7019(3)
O3_4 O 1.0000 0.5000 0.8224(7)
O4_4 O 1.0000 0.5000 0.5593(19)
O5_2 O 0.6488(2) 0.94746(17) 0.55035(19)
O6_2 O 0.7311(2) 0.9486(2) 0.5488(2)
C10_5 C 0.6970(3) 0.7940(3) 0.6447(3)
C11_5 C 0.6900(3) 0.9306(3) 0.5620(3)
C12_5 C 0.6491(3) 0.8600(3) 0.6064(3)
H6_5 H 0.6185 0.8736 0.5980
C13_5 C 0.7409(3) 0.8194(3) 0.6291(3)
H7_5 H 0.7719 0.8059 0.6360
C14_5 C 0.6509(3) 0.8150(3) 0.6337(3)
H8_5 H 0.6217 0.7997 0.6441
C15_5 C 0.7375(3) 0.8637(3) 0.6039(3)
H9_5 H 0.7664 0.8803 0.5947
C16_5 C 0.7412(3) 0.7164(3) 0.6694(3)
H10_5 H 0.7625 0.7211 0.6426
C17_5 C 0.6921(3) 0.8840(3) 0.5920(2)
C18_5 C 0.7019(3) 0.7491(3) 0.6767(3)
O7_2 O 0.55035(19) 0.6488(2) 0.94746(17)
O8_2 O 0.5488(2) 0.7311(2) 0.9486(2)
C19_5 C 0.6447(3) 0.6970(3) 0.7940(3)
C20_5 C 0.5620(3) 0.6900(3) 0.9306(3)
C21_5 C 0.6064(3) 0.6491(3) 0.8600(3)
H11_5 H 0.5980 0.6185 0.8736
C22_5 C 0.6291(3) 0.7409(3) 0.8194(3)
H12_5 H 0.6360 0.7719 0.8059
C23_5 C 0.6337(3) 0.6509(3) 0.8150(3)
H13_5 H 0.6441 0.6217 0.7997
C24_5 C 0.6039(3) 0.7375(3) 0.8637(3)
H14_5 H 0.5947 0.7664 0.8803
C25_5 C 0.6694(3) 0.7412(3) 0.7164(3)
H15_5 H 0.6426 0.7625 0.7211
C26_5 C 0.5920(2) 0.6921(3) 0.8840(3)
C27_5 C 0.6767(3) 0.7019(3) 0.7491(3)
Cu3_4 Cu 0.64413(6) 1.0000 0.5000
Cu4_4 Cu 0.74070(7) 1.0000 0.5000
O9_6 O 0.8224(7) 1.0000 0.5000
O10_6 O 0.5593(19) 1.0000 0.5000
O11_2 O 0.55035(19) 0.6488(2) 0.05254(17)
O12_2 O 0.5488(2) 0.7311(2) 0.0514(2)
C28_2 C 0.6447(3) 0.6970(3) 0.2060(3)
C29_2 C 0.5620(3) 0.6900(3) 0.0694(3)
C30_2 C 0.6064(3) 0.6491(3) 0.1400(3)
H16_2 H 0.5980 0.6185 0.1264
C31_2 C 0.6291(3) 0.7409(3) 0.1806(3)
H17_2 H 0.6360 0.7719 0.1941
C32_2 C 0.6337(3) 0.6509(3) 0.1850(3)
H18_2 H 0.6441 0.6217 0.2003
C33_2 C 0.6039(3) 0.7375(3) 0.1363(3)
H19_2 H 0.5947 0.7664 0.1197
C34_2 C 0.6694(3) 0.7412(3) 0.2836(3)
H20_2 H 0.6426 0.7625 0.2789
C35_2 C 0.5920(2) 0.6921(3) 0.1160(3)
C36_2 C 0.6767(3) 0.7019(3) 0.2509(3)
O13_2 O 0.94746(17) 0.55035(19) 0.3512(2)
O14_2 O 0.9486(2) 0.5488(2) 0.2689(2)
C37_2 C 0.7940(3) 0.6447(3) 0.3030(3)
C38_2 C 0.9306(3) 0.5620(3) 0.3100(3)
C39_2 C 0.8600(3) 0.6064(3) 0.3509(3)
H21_2 H 0.8736 0.5980 0.3815
C40_2 C 0.8194(3) 0.6291(3) 0.2591(3)
H22_2 H 0.8059 0.6360 0.2281
C41_2 C 0.8150(3) 0.6337(3) 0.3491(3)
H23_2 H 0.7997 0.6441 0.3783
C42_2 C 0.8637(3) 0.6039(3) 0.2625(3)
H24_2 H 0.8803 0.5947 0.2336
C43_2 C 0.7164(3) 0.6694(3) 0.2588(3)
H25_2 H 0.7211 0.6426 0.2375
C44_2 C 0.8840(3) 0.5920(2) 0.3079(3)
C45_2 C 0.7491(3) 0.6767(3) 0.2981(3)
O15_2 O 0.6488(2) 0.94746(17) 0.44965(19)
O16_2 O 0.7311(2) 0.9486(2) 0.4512(2)
C46_2 C 0.6970(3) 0.7940(3) 0.3553(3)
C47_2 C 0.6900(3) 0.9306(3) 0.4380(3)
C48_2 C 0.6491(3) 0.8600(3) 0.3936(3)
H26_2 H 0.6185 0.8736 0.4020
C49_2 C 0.7409(3) 0.8194(3) 0.3709(3)
H27_2 H 0.7719 0.8059 0.3640
C50_2 C 0.6509(3) 0.8150(3) 0.3663(3)
H28_2 H 0.6217 0.7997 0.3559
C51_2 C 0.7375(3) 0.8637(3) 0.3961(3)
H29_2 H 0.7664 0.8803 0.4053
C52_2 C 0.7412(3) 0.7164(3) 0.3306(3)
H30_2 H 0.7625 0.7211 0.3574
C53_2 C 0.6921(3) 0.8840(3) 0.4080(2)
C54_2 C 0.7019(3) 0.7491(3) 0.3233(3)
O17_2 O 0.55035(19) 0.3512(2) 0.94746(17)
O18_2 O 0.5488(2) 0.2689(2) 0.9486(2)
C55_2 C 0.6447(3) 0.3030(3) 0.7940(3)
C56_2 C 0.5620(3) 0.3100(3) 0.9306(3)
C57_2 C 0.6064(3) 0.3509(3) 0.8600(3)
H31_2 H 0.5980 0.3815 0.8736
C58_2 C 0.6291(3) 0.2591(3) 0.8194(3)
H32_2 H 0.6360 0.2281 0.8059
C59_2 C 0.6337(3) 0.3491(3) 0.8150(3)
H33_2 H 0.6441 0.3783 0.7997
C60_2 C 0.6039(3) 0.2625(3) 0.8637(3)
H34_2 H 0.5947 0.2336 0.8803
C61_2 C 0.6694(3) 0.2588(3) 0.7164(3)
H35_2 H 0.6426 0.2375 0.7211
C62_2 C 0.5920(2) 0.3079(3) 0.8840(3)
C63_2 C 0.6767(3) 0.2981(3) 0.7491(3)
O19_2 O 0.94746(17) 0.44965(19) 0.6488(2)
O20_2 O 0.9486(2) 0.4512(2) 0.7311(2)
C64_2 C 0.7940(3) 0.3553(3) 0.6970(3)
C65_2 C 0.9306(3) 0.4380(3) 0.6900(3)
C66_2 C 0.8600(3) 0.3936(3) 0.6491(3)
H36_2 H 0.8736 0.4020 0.6185
C67_2 C 0.8194(3) 0.3709(3) 0.7409(3)
H37_2 H 0.8059 0.3640 0.7719
C68_2 C 0.8150(3) 0.3663(3) 0.6509(3)
H38_2 H 0.7997 0.3559 0.6217
C69_2 C 0.8637(3) 0.3961(3) 0.7375(3)
H39_2 H 0.8803 0.4053 0.7664
C70_2 C 0.7164(3) 0.3306(3) 0.7412(3)
H40_2 H 0.7211 0.3574 0.7625
C71_2 C 0.8840(3) 0.4080(2) 0.6921(3)
C72_2 C 0.7491(3) 0.3233(3) 0.7019(3)
C73_2 C 0.6970(3) 0.2060(3) 0.6447(3)
C74_2 C 0.6900(3) 0.0694(3) 0.5620(3)
C75_2 C 0.6491(3) 0.1400(3) 0.6064(3)
H41_2 H 0.6185 0.1264 0.5980
C76_2 C 0.7409(3) 0.1806(3) 0.6291(3)
H42_2 H 0.7719 0.1941 0.6360
C77_2 C 0.6509(3) 0.1850(3) 0.6337(3)
H43_2 H 0.6217 0.2003 0.6441
C78_2 C 0.7375(3) 0.1363(3) 0.6039(3)
H44_2 H 0.7664 0.1197 0.5947
C79_2 C 0.7412(3) 0.2836(3) 0.6694(3)
H45_2 H 0.7625 0.2789 0.6426
C80_2 C 0.6921(3) 0.1160(3) 0.5920(2)
C81_2 C 0.7019(3) 0.2509(3) 0.6767(3)
Cu5_4 Cu 1.0000 0.5000 0.35587(6)
Cu6_4 Cu 1.0000 0.5000 0.25930(7)
O23_8 O 1.0000 0.5000 0.1776(7)
O24_8 O 1.0000 0.5000 0.4407(19)
Cu11_4 Cu 0.5000 0.35587(6) 1.0000
Cu17_4 Cu 0.5000 0.25930(7) 1.0000
O33_4 O 0.94746(17) 0.44965(19) 0.3512(2)
O39_4 O 0.9486(2) 0.4512(2) 0.2689(2)
O23_9 O 0.1776(7) 0.0000 0.5000
O24_9 O 0.4407(19) 0.0000 0.5000
O34_5 O 0.3512(2) 0.05254(17) 0.55035(19)
O35_5 O 0.3512(2) 0.05254(17) 0.44965(19)
O40_5 O 0.2689(2) 0.0514(2) 0.5488(2)
O41_5 O 0.2689(2) 0.0514(2) 0.4512(2)
O9_7 O 0.5000 0.8224(7) 0.0000
O10_7 O 0.5000 0.5593(19) 0.0000
O31_4 O 0.44965(19) 0.6488(2) 0.05254(17)
O37_4 O 0.4512(2) 0.7311(2) 0.0514(2)
O9_8 O 0.5000 0.8224(7) 1.0000
O10_8 O 0.5000 0.5593(19) 1.0000
O23_10 O 0.1776(7) 1.0000 0.5000
O24_10 O 0.4407(19) 1.0000 0.5000
O33_5 O 0.3512(2) 0.94746(17) 0.44965(19)
O39_5 O 0.2689(2) 0.9486(2) 0.4512(2)
O23_11 O 0.5000 0.1776(7) 0.0000
O24_11 O 0.5000 0.4407(19) 0.0000
O34_6 O 0.55035(19) 0.3512(2) 0.05254(17)
O35_6 O 0.44965(19) 0.3512(2) 0.05254(17)
O40_6 O 0.5488(2) 0.2689(2) 0.0514(2)
O41_6 O 0.4512(2) 0.2689(2) 0.0514(2)
O23_12 O 0.5000 0.1776(7) 1.0000
O24_12 O 0.5000 0.4407(19) 1.0000
O33_6 O 0.44965(19) 0.3512(2) 0.94746(17)
O39_6 O 0.4512(2) 0.2689(2) 0.9486(2)
C82_4 C 0.3553(3) 0.3030(3) 0.2060(3)
C83_4 C 0.4380(3) 0.3100(3) 0.0694(3)
C84_4 C 0.3936(3) 0.3509(3) 0.1400(3)
H46_4 H 0.4020 0.3815 0.1264
C85_4 C 0.3709(3) 0.2591(3) 0.1806(3)
H47_4 H 0.3640 0.2281 0.1941
C86_4 C 0.3663(3) 0.3491(3) 0.1850(3)
H48_4 H 0.3559 0.3783 0.2003
C87_4 C 0.3961(3) 0.2625(3) 0.1363(3)
H49_4 H 0.4053 0.2336 0.1197
C88_4 C 0.3306(3) 0.2588(3) 0.2836(3)
H50_4 H 0.3574 0.2375 0.2789
C89_4 C 0.4080(2) 0.3079(3) 0.1160(3)
C90_4 C 0.3233(3) 0.2981(3) 0.2509(3)
C91_4 C 0.2060(3) 0.3553(3) 0.3030(3)
C92_4 C 0.0694(3) 0.4380(3) 0.3100(3)
C93_4 C 0.1400(3) 0.3936(3) 0.3509(3)
H51_4 H 0.1264 0.4020 0.3815
C94_4 C 0.1806(3) 0.3709(3) 0.2591(3)
H52_4 H 0.1941 0.3640 0.2281
C95_4 C 0.1850(3) 0.3663(3) 0.3491(3)
H53_4 H 0.2003 0.3559 0.3783
C96_4 C 0.1363(3) 0.3961(3) 0.2625(3)
H54_4 H 0.1197 0.4053 0.2336
C97_4 C 0.2836(3) 0.3306(3) 0.2588(3)
H55_4 H 0.2789 0.3574 0.2375
C98_4 C 0.1160(3) 0.4080(2) 0.3079(3)
C99_4 C 0.2509(3) 0.3233(3) 0.2981(3)
C100_4 C 0.3030(3) 0.2060(3) 0.3553(3)
C101_4 C 0.3100(3) 0.0694(3) 0.4380(3)
C102_4 C 0.3509(3) 0.1400(3) 0.3936(3)
H56_4 H 0.3815 0.1264 0.4020
C103_4 C 0.2591(3) 0.1806(3) 0.3709(3)
H57_4 H 0.2281 0.1941 0.3640
C104_4 C 0.3491(3) 0.1850(3) 0.3663(3)
H58_4 H 0.3783 0.2003 0.3559
C105_4 C 0.2625(3) 0.1363(3) 0.3961(3)
H59_4 H 0.2336 0.1197 0.4053
C106_4 C 0.2588(3) 0.2836(3) 0.3306(3)
H60_4 H 0.2375 0.2789 0.3574
C107_4 C 0.3079(3) 0.1160(3) 0.4080(2)
C108_4 C 0.2981(3) 0.2509(3) 0.3233(3)
C1_6 C 0.3553(3) 0.3030(3) 0.7940(3)
C2_6 C 0.4380(3) 0.3100(3) 0.9306(3)
C3_6 C 0.3936(3) 0.3509(3) 0.8600(3)
H1_6 H 0.4020 0.3815 0.8736
C4_6 C 0.3709(3) 0.2591(3) 0.8194(3)
H2_6 H 0.3640 0.2281 0.8059
C5_6 C 0.3663(3) 0.3491(3) 0.8150(3)
H3_6 H 0.3559 0.3783 0.7997
C6_6 C 0.3961(3) 0.2625(3) 0.8637(3)
H4_6 H 0.4053 0.2336 0.8803
C7_6 C 0.3306(3) 0.2588(3) 0.7164(3)
H5_6 H 0.3574 0.2375 0.7211
C8_6 C 0.4080(2) 0.3079(3) 0.8840(3)
C9_6 C 0.3233(3) 0.2981(3) 0.7491(3)
C10_6 C 0.2060(3) 0.3553(3) 0.6970(3)
C11_6 C 0.0694(3) 0.4380(3) 0.6900(3)
C12_6 C 0.1400(3) 0.3936(3) 0.6491(3)
H6_6 H 0.1264 0.4020 0.6185
C13_6 C 0.1806(3) 0.3709(3) 0.7409(3)
H7_6 H 0.1941 0.3640 0.7719
C14_6 C 0.1850(3) 0.3663(3) 0.6509(3)
H8_6 H 0.2003 0.3559 0.6217
C15_6 C 0.1363(3) 0.3961(3) 0.7375(3)
H9_6 H 0.1197 0.4053 0.7664
C16_6 C 0.2836(3) 0.3306(3) 0.7412(3)
H10_6 H 0.2789 0.3574 0.7625
C17_6 C 0.1160(3) 0.4080(2) 0.6921(3)
C18_6 C 0.2509(3) 0.3233(3) 0.7019(3)
C19_6 C 0.3030(3) 0.2060(3) 0.6447(3)
C20_6 C 0.3100(3) 0.0694(3) 0.5620(3)
C21_6 C 0.3509(3) 0.1400(3) 0.6064(3)
H11_6 H 0.3815 0.1264 0.5980
C22_6 C 0.2591(3) 0.1806(3) 0.6291(3)
H12_6 H 0.2281 0.1941 0.6360
C23_6 C 0.3491(3) 0.1850(3) 0.6337(3)
H13_6 H 0.3783 0.2003 0.6441
C24_6 C 0.2625(3) 0.1363(3) 0.6039(3)
H14_6 H 0.2336 0.1197 0.5947
C25_6 C 0.2588(3) 0.2836(3) 0.6694(3)
H15_6 H 0.2375 0.2789 0.6426
C26_6 C 0.3079(3) 0.1160(3) 0.5920(2)
C27_6 C 0.2981(3) 0.2509(3) 0.6767(3)
C1_7 C 0.6970(3) 0.2060(3) 0.3553(3)
C2_7 C 0.6900(3) 0.0694(3) 0.4380(3)
C3_7 C 0.6491(3) 0.1400(3) 0.3936(3)
H1_7 H 0.6185 0.1264 0.4020
C4_7 C 0.7409(3) 0.1806(3) 0.3709(3)
H2_7 H 0.7719 0.1941 0.3640
C5_7 C 0.6509(3) 0.1850(3) 0.3663(3)
H3_7 H 0.6217 0.2003 0.3559
C6_7 C 0.7375(3) 0.1363(3) 0.3961(3)
H4_7 H 0.7664 0.1197 0.4053
C7_7 C 0.7412(3) 0.2836(3) 0.3306(3)
H5_7 H 0.7625 0.2789 0.3574
C8_7 C 0.6921(3) 0.1160(3) 0.4080(2)
C9_7 C 0.7019(3) 0.2509(3) 0.3233(3)
C10_7 C 0.6447(3) 0.3030(3) 0.2060(3)
C11_7 C 0.5620(3) 0.3100(3) 0.0694(3)
C12_7 C 0.6064(3) 0.3509(3) 0.1400(3)
H6_7 H 0.5980 0.3815 0.1264
C13_7 C 0.6291(3) 0.2591(3) 0.1806(3)
H7_7 H 0.6360 0.2281 0.1941
C14_7 C 0.6337(3) 0.3491(3) 0.1850(3)
H8_7 H 0.6441 0.3783 0.2003
C15_7 C 0.6039(3) 0.2625(3) 0.1363(3)
H9_7 H 0.5947 0.2336 0.1197
C16_7 C 0.6694(3) 0.2588(3) 0.2836(3)
H10_7 H 0.6426 0.2375 0.2789
C17_7 C 0.5920(2) 0.3079(3) 0.1160(3)
C18_7 C 0.6767(3) 0.2981(3) 0.2509(3)
C19_7 C 0.7940(3) 0.3553(3) 0.3030(3)
C20_7 C 0.9306(3) 0.4380(3) 0.3100(3)
C21_7 C 0.8600(3) 0.3936(3) 0.3509(3)
H11_7 H 0.8736 0.4020 0.3815
C22_7 C 0.8194(3) 0.3709(3) 0.2591(3)
H12_7 H 0.8059 0.3640 0.2281
C23_7 C 0.8150(3) 0.3663(3) 0.3491(3)
H13_7 H 0.7997 0.3559 0.3783
C24_7 C 0.8637(3) 0.3961(3) 0.2625(3)
H14_7 H 0.8803 0.4053 0.2336
C25_7 C 0.7164(3) 0.3306(3) 0.2588(3)
H15_7 H 0.7211 0.3574 0.2375
C26_7 C 0.8840(3) 0.4080(2) 0.3079(3)
C27_7 C 0.7491(3) 0.3233(3) 0.2981(3)
C1_8 C 0.3553(3) 0.6970(3) 0.2060(3)
C2_8 C 0.4380(3) 0.6900(3) 0.0694(3)
C3_8 C 0.3936(3) 0.6491(3) 0.1400(3)
H1_8 H 0.4020 0.6185 0.1264
C4_8 C 0.3709(3) 0.7409(3) 0.1806(3)
H2_8 H 0.3640 0.7719 0.1941
C5_8 C 0.3663(3) 0.6509(3) 0.1850(3)
H3_8 H 0.3559 0.6217 0.2003
C6_8 C 0.3961(3) 0.7375(3) 0.1363(3)
H4_8 H 0.4053 0.7664 0.1197
C7_8 C 0.3306(3) 0.7412(3) 0.2836(3)
H5_8 H 0.3574 0.7625 0.2789
C8_8 C 0.4080(2) 0.6921(3) 0.1160(3)
C9_8 C 0.3233(3) 0.7019(3) 0.2509(3)
C10_8 C 0.2060(3) 0.6447(3) 0.3030(3)
C11_8 C 0.0694(3) 0.5620(3) 0.3100(3)
C12_8 C 0.1400(3) 0.6064(3) 0.3509(3)
H6_8 H 0.1264 0.5980 0.3815
C13_8 C 0.1806(3) 0.6291(3) 0.2591(3)
H7_8 H 0.1941 0.6360 0.2281
C14_8 C 0.1850(3) 0.6337(3) 0.3491(3)
H8_8 H 0.2003 0.6441 0.3783
C15_8 C 0.1363(3) 0.6039(3) 0.2625(3)
H9_8 H 0.1197 0.5947 0.2336
C16_8 C 0.2836(3) 0.6694(3) 0.2588(3)
H10_8 H 0.2789 0.6426 0.2375
C17_8 C 0.1160(3) 0.5920(2) 0.3079(3)
C18_8 C 0.2509(3) 0.6767(3) 0.2981(3)
C19_8 C 0.3030(3) 0.7940(3) 0.3553(3)
C20_8 C 0.3100(3) 0.9306(3) 0.4380(3)
C21_8 C 0.3509(3) 0.8600(3) 0.3936(3)
H11_8 H 0.3815 0.8736 0.4020
C22_8 C 0.2591(3) 0.8194(3) 0.3709(3)
H12_8 H 0.2281 0.8059 0.3640
C23_8 C 0.3491(3) 0.8150(3) 0.3663(3)
H13_8 H 0.3783 0.7997 0.3559
C24_8 C 0.2625(3) 0.8637(3) 0.3961(3)
H14_8 H 0.2336 0.8803 0.4053
C25_8 C 0.2588(3) 0.7164(3) 0.3306(3)
H15_8 H 0.2375 0.7211 0.3574
C26_8 C 0.3079(3) 0.8840(3) 0.4080(2)
C27_8 C 0.2981(3) 0.7491(3) 0.3233(3)
loop_
_geom_bond_atom_site_label_1
_geom_bond_atom_site_label_2
_geom_bond_site_symmetry_1
_geom_bond_site_symmetry_2
Cu10 Cu16 1_555 1_555
Cu1 Cu2 1_555 1_555
Cu2 O2 1_555 1_555
O1 Cu1 1_555 1_555
O2 C2 1_555 1_555
C1 C4 1_555 1_555
C2 O1 1_555 1_555
C3 H1 1_555 1_555
C4 H2 1_555 1_555
C5 C1 1_555 1_555
H3 C5 1_555 1_555
C6 C4 1_555 1_555
H4 C6 1_555 1_555
C7 H5 1_555 1_555
C8 C2 1_555 1_555
C9 C1 1_555 1_555
O3 Cu2 1_555 1_555
O4 Cu1 1_555 1_555
O5 C11 1_555 1_555
O6 C11 1_555 1_555
C10 C13 1_555 1_555
C11 C17 1_555 1_555
C12 H6 1_555 1_555
C13 H7 1_555 1_555
C14 C10 1_555 1_555
H8 C14 1_555 1_555
C15 C13 1_555 1_555
H9 C15 1_555 1_555
C16 C9 1_555 1_555
H10 C16 1_555 1_555
C17 C12 1_555 1_555
C18 C10 1_555 1_555
O7 C20 1_555 1_555
O8 C20 1_555 1_555
C19 C22 1_555 1_555
C20 C26 1_555 1_555
C21 H11 1_555 1_555
C22 H12 1_555 1_555
C23 C19 1_555 1_555
H13 C23 1_555 1_555
C24 C22 1_555 1_555
H14 C24 1_555 1_555
C25 C18 1_555 1_555
H15 C25 1_555 1_555
C26 C21 1_555 1_555
C27 C7 1_555 1_555
Cu3 O5 1_555 1_555
Cu4 O6 1_555 1_555
O9 Cu4 1_555 1_555
O10 Cu3 1_555 1_555
O25 Cu1 1_555 1_555
O26 Cu2 1_555 1_555
C82 C85 1_555 1_555
C83 O25 1_555 1_555
C84 H46 1_555 1_555
C85 H47 1_555 1_555
C86 C82 1_555 1_555
H48 C86 1_555 1_555
C87 C85 1_555 1_555
H49 C87 1_555 1_555
C88 H50 1_555 1_555
C89 C83 1_555 1_555
C90 C82 1_555 1_555
O27 C92 1_555 1_555
O28 C92 1_555 1_555
C91 C94 1_555 1_555
C92 C98 1_555 1_555
C93 H51 1_555 1_555
C94 H52 1_555 1_555
C95 C91 1_555 1_555
H53 C95 1_555 1_555
C96 C94 1_555 1_555
H54 C96 1_555 1_555
C97 C90 1_555 1_555
H55 C97 1_555 1_555
C98 C93 1_555 1_555
C99 C91 1_555 1_555
O29 C101 1_555 1_555
O30 C101 1_555 1_555
C100 C103 1_555 1_555
C101 C107 1_555 1_555
C102 H56 1_555 1_555
C103 H57 1_555 1_555
C104 C100 1_555 1_555
H58 C104 1_555 1_555
C105 C103 1_555 1_555
H59 C105 1_555 1_555
C106 C99 1_555 1_555
H60 C106 1_555 1_555
C107 C102 1_555 1_555
C108 C88 1_555 1_555
Cu10 O7 1_555 1_555
Cu10_2 O29 1_555 1_555
Cu12 O27 1_555 1_555
Cu16 O8 1_555 1_555
Cu16_2 O30 1_555 1_555
Cu18 O28 1_555 1_555
O36 Cu3 1_555 1_555
O42 Cu4 1_555 1_555
C3 C5 1_555 1_555
C3 C8 1_555 1_555
C6 C8 1_555 1_555
C7 C9 1_555 1_555
C12 C14 1_555 1_555
C15 C17 1_555 1_555
C16 C18 1_555 1_555
C19 C27 1_555 1_555
C21 C23 1_555 1_555
C24 C26 1_555 1_555
C25 C27 1_555 1_555
Cu3 Cu4 1_555 1_555
O26 C83 1_555 1_555
C84 C86 1_555 1_555
C84 C89 1_555 1_555
C87 C89 1_555 1_555
C88 C90 1_555 1_555
C93 C95 1_555 1_555
C96 C98 1_555 1_555
C97 C99 1_555 1_555
C100 C108 1_555 1_555
C102 C104 1_555 1_555
C105 C107 1_555 1_555
C106 C108 1_555 1_555
Cu10_2 Cu16_2 1_555 1_555
Cu12 Cu18 1_555 1_555
O9_2 Cu4_2 1_555 1_555
O10_2 Cu3_2 1_555 1_555
O11 C29 1_555 1_555
O12 C29 1_555 1_555
C28 C31 1_555 1_555
C29 C35 1_555 1_555
C30 H16 1_555 1_555
C31 H17 1_555 1_555
C32 C28 1_555 1_555
H18 C32 1_555 1_555
C33 C31 1_555 1_555
H19 C33 1_555 1_555
C34 H20 1_555 1_555
C35 C30 1_555 1_555
C36 C28 1_555 1_555
O13 C38 1_555 1_555
O14 C38 1_555 1_555
C37 C40 1_555 1_555
C38 C44 1_555 1_555
C39 H21 1_555 1_555
C40 H22 1_555 1_555
C41 C37 1_555 1_555
H23 C41 1_555 1_555
C42 C40 1_555 1_555
H24 C42 1_555 1_555
C43 C36 1_555 1_555
H25 C43 1_555 1_555
C44 C39 1_555 1_555
C45 C37 1_555 1_555
O15 Cu3_2 1_555 1_555
O16 Cu4_2 1_555 1_555
C46 C49 1_555 1_555
C47 O15 1_555 1_555
C48 H26 1_555 1_555
C49 H27 1_555 1_555
C50 C46 1_555 1_555
H28 C50 1_555 1_555
C51 C49 1_555 1_555
H29 C51 1_555 1_555
C52 C45 1_555 1_555
H30 C52 1_555 1_555
C53 C47 1_555 1_555
C54 C34 1_555 1_555
Cu5 O13 1_555 1_555
Cu6 O14 1_555 1_555
O23 Cu6 1_555 1_555
O24 Cu5 1_555 1_555
Cu10 O11 1_555 1_555
Cu16 O12 1_555 1_555
O31 Cu3_2 1_555 1_555
O34 Cu5 1_555 1_555
O37 Cu4_2 1_555 1_555
O40 Cu6 1_555 1_555
Cu3_2 Cu4_2 1_555 1_555
C30 C32 1_555 1_555
C33 C35 1_555 1_555
C34 C36 1_555 1_555
C39 C41 1_555 1_555
C42 C44 1_555 1_555
C43 C45 1_555 1_555
O16 C47 1_555 1_555
C46 C54 1_555 1_555
C48 C50 1_555 1_555
C48 C53 1_555 1_555
C51 C53 1_555 1_555
C52 C54 1_555 1_555
Cu5 Cu6 1_555 1_555
Cu12_2 Cu18_2 1_555 1_555
Cu1_2 Cu2_2 1_555 1_555
O3_2 Cu2_2 1_555 1_555
O4_2 Cu1_2 1_555 1_555
O17 C56 1_555 1_555
O18 C56 1_555 1_555
C55 C58 1_555 1_555
C56 C62 1_555 1_555
C57 H31 1_555 1_555
C58 H32 1_555 1_555
C59 C55 1_555 1_555
H33 C59 1_555 1_555
C60 C58 1_555 1_555
H34 C60 1_555 1_555
C61 H35 1_555 1_555
C62 C57 1_555 1_555
C63 C55 1_555 1_555
O19 Cu1_2 1_555 1_555
O20 Cu2_2 1_555 1_555
C64 C67 1_555 1_555
C65 O19 1_555 1_555
C66 H36 1_555 1_555
C67 H37 1_555 1_555
C68 C64 1_555 1_555
H38 C68 1_555 1_555
C69 C67 1_555 1_555
H39 C69 1_555 1_555
C70 C63 1_555 1_555
H40 C70 1_555 1_555
C71 C65 1_555 1_555
C72 C64 1_555 1_555
O36 C74 1_555 1_555
O42 C74 1_555 1_555
C73 C76 1_555 1_555
C74 C80 1_555 1_555
C75 H41 1_555 1_555
C76 H42 1_555 1_555
C77 C73 1_555 1_555
H43 C77 1_555 1_555
C78 C76 1_555 1_555
H44 C78 1_555 1_555
C79 C72 1_555 1_555
H45 C79 1_555 1_555
C80 C75 1_555 1_555
C81 C61 1_555 1_555
Cu11 O17 1_555 1_555
Cu17 O18 1_555 1_555
O32 Cu1_2 1_555 1_555
O38 Cu2_2 1_555 1_555
C57 C59 1_555 1_555
C60 C62 1_555 1_555
C61 C63 1_555 1_555
O20 C65 1_555 1_555
C66 C68 1_555 1_555
C66 C71 1_555 1_555
C69 C71 1_555 1_555
C70 C72 1_555 1_555
C73 C81 1_555 1_555
C75 C77 1_555 1_555
C78 C80 1_555 1_555
C79 C81 1_555 1_555
Cu11 Cu17 1_555 1_555
O23_2 Cu6_2 1_555 1_555
O24_2 Cu5_2 1_555 1_555
O33 Cu5_2 1_555 1_555
O35 Cu5_2 1_555 1_555
O39 Cu6_2 1_555 1_555
O41 Cu6_2 1_555 1_555
Cu5_2 Cu6_2 1_555 1_555
Cu11_2 Cu17_2 1_555 1_555
O9_3 Cu16 1_555 1_555
O10_3 Cu10 1_555 1_555
O9_4 Cu16_2 1_555 1_555
O10_4 Cu10_2 1_555 1_555
O23_3 Cu18 1_555 1_555
O24_3 Cu12 1_555 1_555
O31_2 Cu10_2 1_555 1_555
O34_2 Cu12 1_555 1_555
O37_2 Cu16_2 1_555 1_555
O40_2 Cu18 1_555 1_555
O23_4 Cu18_2 1_555 1_555
O24_4 Cu12_2 1_555 1_555
O33_2 Cu12_2 1_555 1_555
O35_2 Cu12_2 1_555 1_555
O39_2 Cu18_2 1_555 1_555
O41_2 Cu18_2 1_555 1_555
O23_5 Cu17 1_555 1_555
O24_5 Cu11 1_555 1_555
O34_3 Cu11 1_555 1_555
O40_3 Cu17 1_555 1_555
O23_6 Cu17_2 1_555 1_555
O24_6 Cu11_2 1_555 1_555
O33_3 Cu11_2 1_555 1_555
O35_3 Cu11_2 1_555 1_555
O39_3 Cu17_2 1_555 1_555
O41_3 Cu17_2 1_555 1_555
O39_3 C2_2 1_555 1_555
C1_2 C4_2 1_555 1_555
C2_2 O33_3 1_555 1_555
C3_2 H1_2 1_555 1_555
C4_2 H2_2 1_555 1_555
C5_2 C1_2 1_555 1_555
H3_2 C5_2 1_555 1_555
C6_2 C4_2 1_555 1_555
H4_2 C6_2 1_555 1_555
C7_2 H5_2 1_555 1_555
C8_2 C2_2 1_555 1_555
C9_2 C1_2 1_555 1_555
O32 C11_2 1_555 1_555
O38 C11_2 1_555 1_555
C10_2 C13_2 1_555 1_555
C11_2 C17_2 1_555 1_555
C12_2 H6_2 1_555 1_555
C13_2 H7_2 1_555 1_555
C14_2 C10_2 1_555 1_555
H8_2 C14_2 1_555 1_555
C15_2 C13_2 1_555 1_555
H9_2 C15_2 1_555 1_555
C16_2 C9_2 1_555 1_555
H10_2 C16_2 1_555 1_555
C17_2 C12_2 1_555 1_555
C18_2 C10_2 1_555 1_555
O34_2 C20_2 1_555 1_555
O40_2 C20_2 1_555 1_555
C19_2 C22_2 1_555 1_555
C20_2 C26_2 1_555 1_555
C21_2 H11_2 1_555 1_555
C22_2 H12_2 1_555 1_555
C23_2 C19_2 1_555 1_555
H13_2 C23_2 1_555 1_555
C24_2 C22_2 1_555 1_555
H14_2 C24_2 1_555 1_555
C25_2 C18_2 1_555 1_555
H15_2 C25_2 1_555 1_555
C26_2 C21_2 1_555 1_555
C27_2 C7_2 1_555 1_555
C82_2 C85_2 1_555 1_555
C83_2 O35_3 1_555 1_555
C84_2 H46_2 1_555 1_555
C85_2 H47_2 1_555 1_555
C86_2 C82_2 1_555 1_555
H48_2 C86_2 1_555 1_555
C87_2 C85_2 1_555 1_555
H49_2 C87_2 1_555 1_555
C88_2 H50_2 1_555 1_555
C89_2 C83_2 1_555 1_555
C90_2 C82_2 1_555 1_555
O35 C92_2 1_555 1_555
O41 C92_2 1_555 1_555
C91_2 C94_2 1_555 1_555
C92_2 C98_2 1_555 1_555
C93_2 H51_2 1_555 1_555
C94_2 H52_2 1_555 1_555
C95_2 C91_2 1_555 1_555
H53_2 C95_2 1_555 1_555
C96_2 C94_2 1_555 1_555
H54_2 C96_2 1_555 1_555
C97_2 C90_2 1_555 1_555
H55_2 C97_2 1_555 1_555
C98_2 C93_2 1_555 1_555
C99_2 C91_2 1_555 1_555
O35_2 C101_2 1_555 1_555
O41_2 C101_2 1_555 1_555
C100_2 C103_2 1_555 1_555
C101_2 C107_2 1_555 1_555
C102_2 H56_2 1_555 1_555
C103_2 H57_2 1_555 1_555
C104_2 C100_2 1_555 1_555
H58_2 C104_2 1_555 1_555
C105_2 C103_2 1_555 1_555
H59_2 C105_2 1_555 1_555
C106_2 C99_2 1_555 1_555
H60_2 C106_2 1_555 1_555
C107_2 C102_2 1_555 1_555
C108_2 C88_2 1_555 1_555
C3_2 C5_2 1_555 1_555
C3_2 C8_2 1_555 1_555
C6_2 C8_2 1_555 1_555
C7_2 C9_2 1_555 1_555
C12_2 C14_2 1_555 1_555
C15_2 C17_2 1_555 1_555
C16_2 C18_2 1_555 1_555
C19_2 C27_2 1_555 1_555
C21_2 C23_2 1_555 1_555
C24_2 C26_2 1_555 1_555
C25_2 C27_2 1_555 1_555
O41_3 C83_2 1_555 1_555
C84_2 C86_2 1_555 1_555
C84_2 C89_2 1_555 1_555
C87_2 C89_2 1_555 1_555
C88_2 C90_2 1_555 1_555
C93_2 C95_2 1_555 1_555
C96_2 C98_2 1_555 1_555
C97_2 C99_2 1_555 1_555
C100_2 C108_2 1_555 1_555
C102_2 C104_2 1_555 1_555
C105_2 C107_2 1_555 1_555
C106_2 C108_2 1_555 1_555
O37 C2_3 1_555 1_555
C1_3 C4_3 1_555 1_555
C2_3 O31 1_555 1_555
C3_3 H1_3 1_555 1_555
C4_3 H2_3 1_555 1_555
C5_3 C1_3 1_555 1_555
H3_3 C5_3 1_555 1_555
C6_3 C4_3 1_555 1_555
H4_3 C6_3 1_555 1_555
C7_3 H5_3 1_555 1_555
C8_3 C2_3 1_555 1_555
C9_3 C1_3 1_555 1_555
O34_3 C11_3 1_555 1_555
O40_3 C11_3 1_555 1_555
C10_3 C13_3 1_555 1_555
C11_3 C17_3 1_555 1_555
C12_3 H6_3 1_555 1_555
C13_3 H7_3 1_555 1_555
C14_3 C10_3 1_555 1_555
H8_3 C14_3 1_555 1_555
C15_3 C13_3 1_555 1_555
H9_3 C15_3 1_555 1_555
C16_3 C9_3 1_555 1_555
H10_3 C16_3 1_555 1_555
C17_3 C12_3 1_555 1_555
C18_3 C10_3 1_555 1_555
O33 C20_3 1_555 1_555
O39 C20_3 1_555 1_555
C19_3 C22_3 1_555 1_555
C20_3 C26_3 1_555 1_555
C21_3 H11_3 1_555 1_555
C22_3 H12_3 1_555 1_555
C23_3 C19_3 1_555 1_555
H13_3 C23_3 1_555 1_555
C24_3 C22_3 1_555 1_555
H14_3 C24_3 1_555 1_555
C25_3 C18_3 1_555 1_555
H15_3 C25_3 1_555 1_555
C26_3 C21_3 1_555 1_555
C27_3 C7_3 1_555 1_555
C3_3 C5_3 1_555 1_555
C3_3 C8_3 1_555 1_555
C6_3 C8_3 1_555 1_555
C7_3 C9_3 1_555 1_555
C12_3 C14_3 1_555 1_555
C15_3 C17_3 1_555 1_555
C16_3 C18_3 1_555 1_555
C19_3 C27_3 1_555 1_555
C21_3 C23_3 1_555 1_555
C24_3 C26_3 1_555 1_555
C25_3 C27_3 1_555 1_555
O37_2 C2_4 1_555 1_555
C1_4 C4_4 1_555 1_555
C2_4 O31_2 1_555 1_555
C3_4 H1_4 1_555 1_555
C4_4 H2_4 1_555 1_555
C5_4 C1_4 1_555 1_555
H3_4 C5_4 1_555 1_555
C6_4 C4_4 1_555 1_555
H4_4 C6_4 1_555 1_555
C7_4 H5_4 1_555 1_555
C8_4 C2_4 1_555 1_555
C9_4 C1_4 1_555 1_555
O34 C11_4 1_555 1_555
O40 C11_4 1_555 1_555
C10_4 C13_4 1_555 1_555
C11_4 C17_4 1_555 1_555
C12_4 H6_4 1_555 1_555
C13_4 H7_4 1_555 1_555
C14_4 C10_4 1_555 1_555
H8_4 C14_4 1_555 1_555
C15_4 C13_4 1_555 1_555
H9_4 C15_4 1_555 1_555
C16_4 C9_4 1_555 1_555
H10_4 C16_4 1_555 1_555
C17_4 C12_4 1_555 1_555
C18_4 C10_4 1_555 1_555
O33_2 C20_4 1_555 1_555
O39_2 C20_4 1_555 1_555
C19_4 C22_4 1_555 1_555
C20_4 C26_4 1_555 1_555
C21_4 H11_4 1_555 1_555
C22_4 H12_4 1_555 1_555
C23_4 C19_4 1_555 1_555
H13_4 C23_4 1_555 1_555
C24_4 C22_4 1_555 1_555
H14_4 C24_4 1_555 1_555
C25_4 C18_4 1_555 1_555
H15_4 C25_4 1_555 1_555
C26_4 C21_4 1_555 1_555
C27_4 C7_4 1_555 1_555
C3_4 C5_4 1_555 1_555
C3_4 C8_4 1_555 1_555
C6_4 C8_4 1_555 1_555
C7_4 C9_4 1_555 1_555
C12_4 C14_4 1_555 1_555
C15_4 C17_4 1_555 1_555
C16_4 C18_4 1_555 1_555
C19_4 C27_4 1_555 1_555
C21_4 C23_4 1_555 1_555
C24_4 C26_4 1_555 1_555
C25_4 C27_4 1_555 1_555
Cu12_3 Cu18_3 1_555 1_555
Cu10_3 Cu16_3 1_555 1_555
Cu1_3 Cu2_3 1_555 1_555
O3_3 Cu2_3 1_555 1_555
O4_3 Cu1_3 1_555 1_555
O23_7 Cu6_3 1_555 1_555
O24_7 Cu5_3 1_555 1_555
O25_2 Cu1_3 1_555 1_555
O26_2 Cu2_3 1_555 1_555
C82_3 C85_3 1_555 1_555
C83_3 O25_2 1_555 1_555
C84_3 H46_3 1_555 1_555
C85_3 H47_3 1_555 1_555
C86_3 C82_3 1_555 1_555
H48_3 C86_3 1_555 1_555
C87_3 C85_3 1_555 1_555
H49_3 C87_3 1_555 1_555
C88_3 H50_3 1_555 1_555
C89_3 C83_3 1_555 1_555
C90_3 C82_3 1_555 1_555
O27_2 C92_3 1_555 1_555
O28_2 C92_3 1_555 1_555
C91_3 C94_3 1_555 1_555
C92_3 C98_3 1_555 1_555
C93_3 H51_3 1_555 1_555
C94_3 H52_3 1_555 1_555
C95_3 C91_3 1_555 1_555
H53_3 C95_3 1_555 1_555
C96_3 C94_3 1_555 1_555
H54_3 C96_3 1_555 1_555
C97_3 C90_3 1_555 1_555
H55_3 C97_3 1_555 1_555
C98_3 C93_3 1_555 1_555
C99_3 C91_3 1_555 1_555
O29_2 C101_3 1_555 1_555
O30_2 C101_3 1_555 1_555
C100_3 C103_3 1_555 1_555
C101_3 C107_3 1_555 1_555
C102_3 H56_3 1_555 1_555
C103_3 H57_3 1_555 1_555
C104_3 C100_3 1_555 1_555
H58_3 C104_3 1_555 1_555
C105_3 C103_3 1_555 1_555
H59_3 C105_3 1_555 1_555
C106_3 C99_3 1_555 1_555
H60_3 C106_3 1_555 1_555
C107_3 C102_3 1_555 1_555
C108_3 C88_3 1_555 1_555
Cu10_4 O29_2 1_555 1_555
Cu12_4 O27_2 1_555 1_555
Cu16_4 O30_2 1_555 1_555
Cu18_4 O28_2 1_555 1_555
O32_2 Cu1_3 1_555 1_555
O34_4 Cu5_3 1_555 1_555
O35_4 Cu5_3 1_555 1_555
O38_2 Cu2_3 1_555 1_555
O40_4 Cu6_3 1_555 1_555
O41_4 Cu6_3 1_555 1_555
Cu5_3 Cu6_3 1_555 1_555
O26_2 C83_3 1_555 1_555
C84_3 C86_3 1_555 1_555
C84_3 C89_3 1_555 1_555
C87_3 C89_3 1_555 1_555
C88_3 C90_3 1_555 1_555
C93_3 C95_3 1_555 1_555
C96_3 C98_3 1_555 1_555
C97_3 C99_3 1_555 1_555
C100_3 C108_3 1_555 1_555
C102_3 C104_3 1_555 1_555
C105_3 C107_3 1_555 1_555
C106_3 C108_3 1_555 1_555
Cu10_4 Cu16_4 1_555 1_555
Cu12_4 Cu18_4 1_555 1_555
O9_5 Cu4_3 1_555 1_555
O10_5 Cu3_3 1_555 1_555
O31_3 Cu3_3 1_555 1_555
O36_2 Cu3_3 1_555 1_555
O37_3 Cu4_3 1_555 1_555
O42_2 Cu4_3 1_555 1_555
Cu3_3 Cu4_3 1_555 1_555
Cu11_3 Cu17_3 1_555 1_555
Cu1_4 Cu2_4 1_555 1_555
Cu2_4 O2_2 1_555 1_555
O1_2 Cu1_4 1_555 1_555
O2_2 C2_5 1_555 1_555
C1_5 C4_5 1_555 1_555
C2_5 O1_2 1_555 1_555
C3_5 H1_5 1_555 1_555
C4_5 H2_5 1_555 1_555
C5_5 C1_5 1_555 1_555
H3_5 C5_5 1_555 1_555
C6_5 C4_5 1_555 1_555
H4_5 C6_5 1_555 1_555
C7_5 H5_5 1_555 1_555
C8_5 C2_5 1_555 1_555
C9_5 C1_5 1_555 1_555
O3_4 Cu2_4 1_555 1_555
O4_4 Cu1_4 1_555 1_555
O5_2 C11_5 1_555 1_555
O6_2 C11_5 1_555 1_555
C10_5 C13_5 1_555 1_555
C11_5 C17_5 1_555 1_555
C12_5 H6_5 1_555 1_555
C13_5 H7_5 1_555 1_555
C14_5 C10_5 1_555 1_555
H8_5 C14_5 1_555 1_555
C15_5 C13_5 1_555 1_555
H9_5 C15_5 1_555 1_555
C16_5 C9_5 1_555 1_555
H10_5 C16_5 1_555 1_555
C17_5 C12_5 1_555 1_555
C18_5 C10_5 1_555 1_555
O7_2 C20_5 1_555 1_555
O8_2 C20_5 1_555 1_555
C19_5 C22_5 1_555 1_555
C20_5 C26_5 1_555 1_555
C21_5 H11_5 1_555 1_555
C22_5 H12_5 1_555 1_555
C23_5 C19_5 1_555 1_555
H13_5 C23_5 1_555 1_555
C24_5 C22_5 1_555 1_555
H14_5 C24_5 1_555 1_555
C25_5 C18_5 1_555 1_555
H15_5 C25_5 1_555 1_555
C26_5 C21_5 1_555 1_555
C27_5 C7_5 1_555 1_555
Cu3_4 O5_2 1_555 1_555
Cu4_4 O6_2 1_555 1_555
O9_6 Cu4_4 1_555 1_555
O10_6 Cu3_4 1_555 1_555
O11_2 C29_2 1_555 1_555
O12_2 C29_2 1_555 1_555
C28_2 C31_2 1_555 1_555
C29_2 C35_2 1_555 1_555
C30_2 H16_2 1_555 1_555
C31_2 H17_2 1_555 1_555
C32_2 C28_2 1_555 1_555
H18_2 C32_2 1_555 1_555
C33_2 C31_2 1_555 1_555
H19_2 C33_2 1_555 1_555
C34_2 H20_2 1_555 1_555
C35_2 C30_2 1_555 1_555
C36_2 C28_2 1_555 1_555
O13_2 C38_2 1_555 1_555
O14_2 C38_2 1_555 1_555
C37_2 C40_2 1_555 1_555
C38_2 C44_2 1_555 1_555
C39_2 H21_2 1_555 1_555
C40_2 H22_2 1_555 1_555
C41_2 C37_2 1_555 1_555
H23_2 C41_2 1_555 1_555
C42_2 C40_2 1_555 1_555
H24_2 C42_2 1_555 1_555
C43_2 C36_2 1_555 1_555
H25_2 C43_2 1_555 1_555
C44_2 C39_2 1_555 1_555
C45_2 C37_2 1_555 1_555
O15_2 Cu3_4 1_555 1_555
O16_2 Cu4_4 1_555 1_555
C46_2 C49_2 1_555 1_555
C47_2 O15_2 1_555 1_555
C48_2 H26_2 1_555 1_555
C49_2 H27_2 1_555 1_555
C50_2 C46_2 1_555 1_555
H28_2 C50_2 1_555 1_555
C51_2 C49_2 1_555 1_555
H29_2 C51_2 1_555 1_555
C52_2 C45_2 1_555 1_555
H30_2 C52_2 1_555 1_555
C53_2 C47_2 1_555 1_555
C54_2 C34_2 1_555 1_555
O17_2 C56_2 1_555 1_555
O18_2 C56_2 1_555 1_555
C55_2 C58_2 1_555 1_555
C56_2 C62_2 1_555 1_555
C57_2 H31_2 1_555 1_555
C58_2 H32_2 1_555 1_555
C59_2 C55_2 1_555 1_555
H33_2 C59_2 1_555 1_555
C60_2 C58_2 1_555 1_555
H34_2 C60_2 1_555 1_555
C61_2 H35_2 1_555 1_555
C62_2 C57_2 1_555 1_555
C63_2 C55_2 1_555 1_555
O19_2 Cu1_4 1_555 1_555
O20_2 Cu2_4 1_555 1_555
C64_2 C67_2 1_555 1_555
C65_2 O19_2 1_555 1_555
C66_2 H36_2 1_555 1_555
C67_2 H37_2 1_555 1_555
C68_2 C64_2 1_555 1_555
H38_2 C68_2 1_555 1_555
C69_2 C67_2 1_555 1_555
H39_2 C69_2 1_555 1_555
C70_2 C63_2 1_555 1_555
H40_2 C70_2 1_555 1_555
C71_2 C65_2 1_555 1_555
C72_2 C64_2 1_555 1_555
O36_2 C74_2 1_555 1_555
O42_2 C74_2 1_555 1_555
C73_2 C76_2 1_555 1_555
C74_2 C80_2 1_555 1_555
C75_2 H41_2 1_555 1_555
C76_2 H42_2 1_555 1_555
C77_2 C73_2 1_555 1_555
H43_2 C77_2 1_555 1_555
C78_2 C76_2 1_555 1_555
H44_2 C78_2 1_555 1_555
C79_2 C72_2 1_555 1_555
H45_2 C79_2 1_555 1_555
C80_2 C75_2 1_555 1_555
C81_2 C61_2 1_555 1_555
Cu5_4 O13_2 1_555 1_555
Cu6_4 O14_2 1_555 1_555
O23_8 Cu6_4 1_555 1_555
O24_8 Cu5_4 1_555 1_555
Cu10_3 O11_2 1_555 1_555
Cu10_4 O7_2 1_555 1_555
Cu11_4 O17_2 1_555 1_555
Cu16_3 O12_2 1_555 1_555
Cu16_4 O8_2 1_555 1_555
Cu17_4 O18_2 1_555 1_555
O33_4 Cu5_4 1_555 1_555
O39_4 Cu6_4 1_555 1_555
C3_5 C5_5 1_555 1_555
C3_5 C8_5 1_555 1_555
C6_5 C8_5 1_555 1_555
C7_5 C9_5 1_555 1_555
C12_5 C14_5 1_555 1_555
C15_5 C17_5 1_555 1_555
C16_5 C18_5 1_555 1_555
C19_5 C27_5 1_555 1_555
C21_5 C23_5 1_555 1_555
C24_5 C26_5 1_555 1_555
C25_5 C27_5 1_555 1_555
Cu3_4 Cu4_4 1_555 1_555
C30_2 C32_2 1_555 1_555
C33_2 C35_2 1_555 1_555
C34_2 C36_2 1_555 1_555
C39_2 C41_2 1_555 1_555
C42_2 C44_2 1_555 1_555
C43_2 C45_2 1_555 1_555
O16_2 C47_2 1_555 1_555
C46_2 C54_2 1_555 1_555
C48_2 C50_2 1_555 1_555
C48_2 C53_2 1_555 1_555
C51_2 C53_2 1_555 1_555
C52_2 C54_2 1_555 1_555
C57_2 C59_2 1_555 1_555
C60_2 C62_2 1_555 1_555
C61_2 C63_2 1_555 1_555
O20_2 C65_2 1_555 1_555
C66_2 C68_2 1_555 1_555
C66_2 C71_2 1_555 1_555
C69_2 C71_2 1_555 1_555
C70_2 C72_2 1_555 1_555
C73_2 C81_2 1_555 1_555
C75_2 C77_2 1_555 1_555
C78_2 C80_2 1_555 1_555
C79_2 C81_2 1_555 1_555
Cu5_4 Cu6_4 1_555 1_555
Cu11_4 Cu17_4 1_555 1_555
O23_9 Cu18_3 1_555 1_555
O24_9 Cu12_3 1_555 1_555
O34_5 Cu12_3 1_555 1_555
O35_5 Cu12_3 1_555 1_555
O40_5 Cu18_3 1_555 1_555
O41_5 Cu18_3 1_555 1_555
O9_7 Cu16_3 1_555 1_555
O10_7 Cu10_3 1_555 1_555
O31_4 Cu10_3 1_555 1_555
O37_4 Cu16_3 1_555 1_555
O9_8 Cu16_4 1_555 1_555
O10_8 Cu10_4 1_555 1_555
O23_10 Cu18_4 1_555 1_555
O24_10 Cu12_4 1_555 1_555
O33_5 Cu12_4 1_555 1_555
O39_5 Cu18_4 1_555 1_555
O23_11 Cu17_3 1_555 1_555
O24_11 Cu11_3 1_555 1_555
O34_6 Cu11_3 1_555 1_555
O35_6 Cu11_3 1_555 1_555
O40_6 Cu17_3 1_555 1_555
O41_6 Cu17_3 1_555 1_555
O23_12 Cu17_4 1_555 1_555
O24_12 Cu11_4 1_555 1_555
O33_6 Cu11_4 1_555 1_555
O39_6 Cu17_4 1_555 1_555
C82_4 C85_4 1_555 1_555
C83_4 O35_6 1_555 1_555
C84_4 H46_4 1_555 1_555
C85_4 H47_4 1_555 1_555
C86_4 C82_4 1_555 1_555
H48_4 C86_4 1_555 1_555
C87_4 C85_4 1_555 1_555
H49_4 C87_4 1_555 1_555
C88_4 H50_4 1_555 1_555
C89_4 C83_4 1_555 1_555
C90_4 C82_4 1_555 1_555
O35_4 C92_4 1_555 1_555
O41_4 C92_4 1_555 1_555
C91_4 C94_4 1_555 1_555
C92_4 C98_4 1_555 1_555
C93_4 H51_4 1_555 1_555
C94_4 H52_4 1_555 1_555
C95_4 C91_4 1_555 1_555
H53_4 C95_4 1_555 1_555
C96_4 C94_4 1_555 1_555
H54_4 C96_4 1_555 1_555
C97_4 C90_4 1_555 1_555
H55_4 C97_4 1_555 1_555
C98_4 C93_4 1_555 1_555
C99_4 C91_4 1_555 1_555
O35_5 C101_4 1_555 1_555
O41_5 C101_4 1_555 1_555
C100_4 C103_4 1_555 1_555
C101_4 C107_4 1_555 1_555
C102_4 H56_4 1_555 1_555
C103_4 H57_4 1_555 1_555
C104_4 C100_4 1_555 1_555
H58_4 C104_4 1_555 1_555
C105_4 C103_4 1_555 1_555
H59_4 C105_4 1_555 1_555
C106_4 C99_4 1_555 1_555
H60_4 C106_4 1_555 1_555
C107_4 C102_4 1_555 1_555
C108_4 C88_4 1_555 1_555
O41_6 C83_4 1_555 1_555
C84_4 C86_4 1_555 1_555
C84_4 C89_4 1_555 1_555
C87_4 C89_4 1_555 1_555
C88_4 C90_4 1_555 1_555
C93_4 C95_4 1_555 1_555
C96_4 C98_4 1_555 1_555
C97_4 C99_4 1_555 1_555
C100_4 C108_4 1_555 1_555
C102_4 C104_4 1_555 1_555
C105_4 C107_4 1_555 1_555
C106_4 C108_4 1_555 1_555
O39_6 C2_6 1_555 1_555
C1_6 C4_6 1_555 1_555
C2_6 O33_6 1_555 1_555
C3_6 H1_6 1_555 1_555
C4_6 H2_6 1_555 1_555
C5_6 C1_6 1_555 1_555
H3_6 C5_6 1_555 1_555
C6_6 C4_6 1_555 1_555
H4_6 C6_6 1_555 1_555
C7_6 H5_6 1_555 1_555
C8_6 C2_6 1_555 1_555
C9_6 C1_6 1_555 1_555
O32_2 C11_6 1_555 1_555
O38_2 C11_6 1_555 1_555
C10_6 C13_6 1_555 1_555
C11_6 C17_6 1_555 1_555
C12_6 H6_6 1_555 1_555
C13_6 H7_6 1_555 1_555
C14_6 C10_6 1_555 1_555
H8_6 C14_6 1_555 1_555
C15_6 C13_6 1_555 1_555
H9_6 C15_6 1_555 1_555
C16_6 C9_6 1_555 1_555
H10_6 C16_6 1_555 1_555
C17_6 C12_6 1_555 1_555
C18_6 C10_6 1_555 1_555
O34_5 C20_6 1_555 1_555
O40_5 C20_6 1_555 1_555
C19_6 C22_6 1_555 1_555
C20_6 C26_6 1_555 1_555
C21_6 H11_6 1_555 1_555
C22_6 H12_6 1_555 1_555
C23_6 C19_6 1_555 1_555
H13_6 C23_6 1_555 1_555
C24_6 C22_6 1_555 1_555
H14_6 C24_6 1_555 1_555
C25_6 C18_6 1_555 1_555
H15_6 C25_6 1_555 1_555
C26_6 C21_6 1_555 1_555
C27_6 C7_6 1_555 1_555
C3_6 C5_6 1_555 1_555
C3_6 C8_6 1_555 1_555
C6_6 C8_6 1_555 1_555
C7_6 C9_6 1_555 1_555
C12_6 C14_6 1_555 1_555
C15_6 C17_6 1_555 1_555
C16_6 C18_6 1_555 1_555
C19_6 C27_6 1_555 1_555
C21_6 C23_6 1_555 1_555
C24_6 C26_6 1_555 1_555
C25_6 C27_6 1_555 1_555
O37_3 C2_7 1_555 1_555
C1_7 C4_7 1_555 1_555
C2_7 O31_3 1_555 1_555
C3_7 H1_7 1_555 1_555
C4_7 H2_7 1_555 1_555
C5_7 C1_7 1_555 1_555
H3_7 C5_7 1_555 1_555
C6_7 C4_7 1_555 1_555
H4_7 C6_7 1_555 1_555
C7_7 H5_7 1_555 1_555
C8_7 C2_7 1_555 1_555
C9_7 C1_7 1_555 1_555
O34_6 C11_7 1_555 1_555
O40_6 C11_7 1_555 1_555
C10_7 C13_7 1_555 1_555
C11_7 C17_7 1_555 1_555
C12_7 H6_7 1_555 1_555
C13_7 H7_7 1_555 1_555
C14_7 C10_7 1_555 1_555
H8_7 C14_7 1_555 1_555
C15_7 C13_7 1_555 1_555
H9_7 C15_7 1_555 1_555
C16_7 C9_7 1_555 1_555
H10_7 C16_7 1_555 1_555
C17_7 C12_7 1_555 1_555
C18_7 C10_7 1_555 1_555
O33_4 C20_7 1_555 1_555
O39_4 C20_7 1_555 1_555
C19_7 C22_7 1_555 1_555
C20_7 C26_7 1_555 1_555
C21_7 H11_7 1_555 1_555
C22_7 H12_7 1_555 1_555
C23_7 C19_7 1_555 1_555
H13_7 C23_7 1_555 1_555
C24_7 C22_7 1_555 1_555
H14_7 C24_7 1_555 1_555
C25_7 C18_7 1_555 1_555
H15_7 C25_7 1_555 1_555
C26_7 C21_7 1_555 1_555
C27_7 C7_7 1_555 1_555
C3_7 C5_7 1_555 1_555
C3_7 C8_7 1_555 1_555
C6_7 C8_7 1_555 1_555
C7_7 C9_7 1_555 1_555
C12_7 C14_7 1_555 1_555
C15_7 C17_7 1_555 1_555
C16_7 C18_7 1_555 1_555
C19_7 C27_7 1_555 1_555
C21_7 C23_7 1_555 1_555
C24_7 C26_7 1_555 1_555
C25_7 C27_7 1_555 1_555
O37_4 C2_8 1_555 1_555
C1_8 C4_8 1_555 1_555
C2_8 O31_4 1_555 1_555
C3_8 H1_8 1_555 1_555
C4_8 H2_8 1_555 1_555
C5_8 C1_8 1_555 1_555
H3_8 C5_8 1_555 1_555
C6_8 C4_8 1_555 1_555
H4_8 C6_8 1_555 1_555
C7_8 H5_8 1_555 1_555
C8_8 C2_8 1_555 1_555
C9_8 C1_8 1_555 1_555
O34_4 C11_8 1_555 1_555
O40_4 C11_8 1_555 1_555
C10_8 C13_8 1_555 1_555
C11_8 C17_8 1_555 1_555
C12_8 H6_8 1_555 1_555
C13_8 H7_8 1_555 1_555
C14_8 C10_8 1_555 1_555
H8_8 C14_8 1_555 1_555
C15_8 C13_8 1_555 1_555
H9_8 C15_8 1_555 1_555
C16_8 C9_8 1_555 1_555
H10_8 C16_8 1_555 1_555
C17_8 C12_8 1_555 1_555
C18_8 C10_8 1_555 1_555
O33_5 C20_8 1_555 1_555
O39_5 C20_8 1_555 1_555
C19_8 C22_8 1_555 1_555
C20_8 C26_8 1_555 1_555
C21_8 H11_8 1_555 1_555
C22_8 H12_8 1_555 1_555
C23_8 C19_8 1_555 1_555
H13_8 C23_8 1_555 1_555
C24_8 C22_8 1_555 1_555
H14_8 C24_8 1_555 1_555
C25_8 C18_8 1_555 1_555
H15_8 C25_8 1_555 1_555
C26_8 C21_8 1_555 1_555
C27_8 C7_8 1_555 1_555
C3_8 C5_8 1_555 1_555
C3_8 C8_8 1_555 1_555
C6_8 C8_8 1_555 1_555
C7_8 C9_8 1_555 1_555
C12_8 C14_8 1_555 1_555
C15_8 C17_8 1_555 1_555
C16_8 C18_8 1_555 1_555
C19_8 C27_8 1_555 1_555
C21_8 C23_8 1_555 1_555
C24_8 C26_8 1_555 1_555
C25_8 C27_8 1_555 1_555

#END
