
###############################################################################
#
# This file contains modified crystal structure data generated from the
# MOF subset of the Cambridge Structural Database (CSD) v543 
# hosted by the Cambridge Crystallographic Data Centre (CCDC).
#
# This work is licensed under the Creative Commons
# Attribution-NonCommercial-ShareAlike 4.0 International License.
# To view a copy of this license, visit
# http://creativecommons.org/licenses/by-nc-sa/4.0/
# or send a letter to
# Creative Commons, PO Box 1866, Mountain View, CA 94042, USA.
#
# CIF created using the CSD Python API on 29 September 2022
# The structure has been converted into the P1 space group
# The structure has a 3D framework
# The original CSD entry QOWRAV05 is in the cubic crystal system
# The framework has been calculated to contain at least 10.0% void space
# The void calculation uses a probe of radius 1.32A, grid spacing 0.4
# H atom positions have been added when not included in the experimental data
# Generated hydrogen atom positions removed from atoms on special positions
#
###############################################################################

data_QOWRAV05
_chemical_formula_moiety         '(C432 H528 Cu48 O144)n'
_symmetry_cell_setting           triclinic
_symmetry_space_group_name_H-M   'P 1'
_symmetry_Int_Tables_number      1
_space_group_name_Hall           'P 1'
loop_
_symmetry_equiv_pos_site_id
_symmetry_equiv_pos_as_xyz
1 x,y,z
_cell_length_a                   26.985(3)
_cell_length_b                   26.985(3)
_cell_length_c                   26.985(3)
_cell_angle_alpha                90
_cell_angle_beta                 90
_cell_angle_gamma                90
_cell_volume                     19650.2
loop_
_atom_site_label
_atom_site_type_symbol
_atom_site_fract_x
_atom_site_fract_y
_atom_site_fract_z
Cu10 Cu -0.0000 0.14440(4) 0.5000
Cu16 Cu -0.0000 0.24026(4) 0.5000
Cu1 Cu 0.5000 -0.0000 0.14440(4)
Cu2 Cu 0.5000 0.0000 0.24026(4)
O1 O 0.44764(11) 0.05013(12) 0.14894(13)
O2 O 0.44841(13) 0.04932(14) 0.23146(13)
C1 C 0.29470(19) 0.14578(17) 0.19793(19)
C2 C 0.43065(17) 0.06221(17) 0.19081(18)
C3 C 0.36024(18) 0.10707(18) 0.14947(19)
H1 H 0.3739 0.0987 0.1181
C4 C 0.31955(19) 0.13006(18) 0.24131(18)
H2 H 0.3057 0.1373 0.2729
C5 C 0.31558(18) 0.13431(19) 0.15198(19)
H3 H 0.2997 0.1448 0.1224
C6 C 0.36398(19) 0.10418(18) 0.23828(18)
H4 H 0.3806 0.0944 0.2677
C7 C 0.21669(17) 0.17021(19) 0.24202(17)
H5 H 0.2214 0.1430 0.2639
C8 C 0.38415(16) 0.09259(17) 0.19255(17)
C9 C 0.24963(18) 0.17732(18) 0.20245(17)
O3 O 0.5000 0.0000 0.3209(4)
O4 O 0.5000 0.0000 0.0575(17)
O5 O 0.14894(13) 0.44764(11) 0.05013(12)
O6 O 0.23146(13) 0.44841(13) 0.04932(14)
C10 C 0.19793(19) 0.29470(19) 0.14578(17)
C11 C 0.19081(18) 0.43065(17) 0.06221(17)
C12 C 0.14947(19) 0.36024(18) 0.10707(18)
H6 H 0.1181 0.3739 0.0987
C13 C 0.24131(18) 0.31955(19) 0.13006(18)
H7 H 0.2729 0.3057 0.1373
C14 C 0.15198(19) 0.31558(18) 0.13431(19)
H8 H 0.1224 0.2997 0.1448
C15 C 0.23828(18) 0.36398(19) 0.10418(18)
H9 H 0.2677 0.3806 0.0944
C16 C 0.24202(17) 0.21669(17) 0.17021(19)
H10 H 0.2639 0.2214 0.1430
C17 C 0.19255(17) 0.38415(16) 0.09259(17)
C18 C 0.20245(17) 0.24963(18) 0.17732(18)
O7 O 0.05013(12) 0.14894(13) 0.44764(11)
O8 O 0.04932(14) 0.23146(13) 0.44841(13)
C19 C 0.14578(17) 0.19793(19) 0.29470(19)
C20 C 0.06221(17) 0.19081(18) 0.43065(17)
C21 C 0.10707(18) 0.14947(19) 0.36024(18)
H11 H 0.0987 0.1181 0.3739
C22 C 0.13006(18) 0.24131(18) 0.31955(19)
H12 H 0.1373 0.2729 0.3057
C23 C 0.13431(19) 0.15198(19) 0.31558(18)
H13 H 0.1448 0.1224 0.2997
C24 C 0.10418(18) 0.23828(18) 0.36398(19)
H14 H 0.0944 0.2677 0.3806
C25 C 0.17021(19) 0.24202(17) 0.21669(17)
H15 H 0.1430 0.2639 0.2214
C26 C 0.09259(17) 0.19255(17) 0.38415(16)
C27 C 0.17732(18) 0.20245(17) 0.24963(18)
Cu3 Cu 0.14440(4) 0.5000 0.0000
Cu4 Cu 0.24026(4) 0.5000 0.0000
O9 O 0.3209(4) 0.5000 0.0000
O10 O 0.0575(17) 0.5000 0.0000
O25 O 0.55236(11) 0.05013(12) 0.14894(13)
O26 O 0.55159(13) 0.04932(14) 0.23146(13)
C82 C 0.70530(19) 0.14578(17) 0.19793(19)
C83 C 0.56935(17) 0.06221(17) 0.19081(18)
C84 C 0.63976(18) 0.10707(18) 0.14947(19)
H46 H 0.6261 0.0987 0.1181
C85 C 0.68045(19) 0.13006(18) 0.24131(18)
H47 H 0.6943 0.1373 0.2729
C86 C 0.68442(18) 0.13431(19) 0.15198(19)
H48 H 0.7003 0.1448 0.1224
C87 C 0.63602(19) 0.10418(18) 0.23828(18)
H49 H 0.6194 0.0944 0.2677
C88 C 0.78331(17) 0.17021(19) 0.24202(17)
H50 H 0.7786 0.1430 0.2639
C89 C 0.61585(16) 0.09259(17) 0.19255(17)
C90 C 0.75037(18) 0.17732(18) 0.20245(17)
O27 O 0.85106(13) 0.44764(11) 0.05013(12)
O28 O 0.76854(13) 0.44841(13) 0.04932(14)
C91 C 0.80207(19) 0.29470(19) 0.14578(17)
C92 C 0.80919(18) 0.43065(17) 0.06221(17)
C93 C 0.85053(19) 0.36024(18) 0.10707(18)
H51 H 0.8819 0.3739 0.0987
C94 C 0.75869(18) 0.31955(19) 0.13006(18)
H52 H 0.7271 0.3057 0.1373
C95 C 0.84802(19) 0.31558(18) 0.13431(19)
H53 H 0.8776 0.2997 0.1448
C96 C 0.76172(18) 0.36398(19) 0.10418(18)
H54 H 0.7323 0.3806 0.0944
C97 C 0.75798(17) 0.21669(17) 0.17021(19)
H55 H 0.7361 0.2214 0.1430
C98 C 0.80745(17) 0.38415(16) 0.09259(17)
C99 C 0.79755(17) 0.24963(18) 0.17732(18)
O29 O 0.94987(12) 0.14894(13) 0.44764(11)
O30 O 0.95068(14) 0.23146(13) 0.44841(13)
C100 C 0.85422(17) 0.19793(19) 0.29470(19)
C101 C 0.93779(17) 0.19081(18) 0.43065(17)
C102 C 0.89293(18) 0.14947(19) 0.36024(18)
H56 H 0.9013 0.1181 0.3739
C103 C 0.86994(18) 0.24131(18) 0.31955(19)
H57 H 0.8627 0.2729 0.3057
C104 C 0.86569(19) 0.15198(19) 0.31558(18)
H58 H 0.8552 0.1224 0.2997
C105 C 0.89582(18) 0.23828(18) 0.36398(19)
H59 H 0.9056 0.2677 0.3806
C106 C 0.82979(19) 0.24202(17) 0.21669(17)
H60 H 0.8570 0.2639 0.2214
C107 C 0.90741(17) 0.19255(17) 0.38415(16)
C108 C 0.82268(18) 0.20245(17) 0.24963(18)
Cu10_2 Cu 1.0000 0.14440(4) 0.5000
Cu12 Cu 0.85560(4) 0.5000 0.0000
Cu16_2 Cu 1.0000 0.24026(4) 0.5000
Cu18 Cu 0.75974(4) 0.5000 0.0000
O36 O 0.14894(13) 0.55236(11) 0.05013(12)
O42 O 0.23146(13) 0.55159(13) 0.04932(14)
Cu3_2 Cu 0.14440(4) 0.5000 1.0000
Cu4_2 Cu 0.24026(4) 0.5000 1.0000
O9_2 O 0.3209(4) 0.5000 1.0000
O10_2 O 0.0575(17) 0.5000 1.0000
O11 O 0.05013(12) 0.14894(13) 0.55236(11)
O12 O 0.04932(14) 0.23146(13) 0.55159(13)
C28 C 0.14578(17) 0.19793(19) 0.70530(19)
C29 C 0.06221(17) 0.19081(18) 0.56935(17)
C30 C 0.10707(18) 0.14947(19) 0.63976(18)
H16 H 0.0987 0.1181 0.6261
C31 C 0.13006(18) 0.24131(18) 0.68045(19)
H17 H 0.1373 0.2729 0.6943
C32 C 0.13431(19) 0.15198(19) 0.68442(18)
H18 H 0.1448 0.1224 0.7003
C33 C 0.10418(18) 0.23828(18) 0.63602(19)
H19 H 0.0944 0.2677 0.6194
C34 C 0.17021(19) 0.24202(17) 0.78331(17)
H20 H 0.1430 0.2639 0.7786
C35 C 0.09259(17) 0.19255(17) 0.61585(16)
C36 C 0.17732(18) 0.20245(17) 0.75037(18)
O13 O 0.44764(11) 0.05013(12) 0.85106(13)
O14 O 0.44841(13) 0.04932(14) 0.76854(13)
C37 C 0.29470(19) 0.14578(17) 0.80207(19)
C38 C 0.43065(17) 0.06221(17) 0.80919(18)
C39 C 0.36024(18) 0.10707(18) 0.85053(19)
H21 H 0.3739 0.0987 0.8819
C40 C 0.31955(19) 0.13006(18) 0.75869(18)
H22 H 0.3057 0.1373 0.7271
C41 C 0.31558(18) 0.13431(19) 0.84802(19)
H23 H 0.2997 0.1448 0.8776
C42 C 0.36398(19) 0.10418(18) 0.76172(18)
H24 H 0.3806 0.0944 0.7323
C43 C 0.21669(17) 0.17021(19) 0.75798(17)
H25 H 0.2214 0.1430 0.7361
C44 C 0.38415(16) 0.09259(17) 0.80745(17)
C45 C 0.24963(18) 0.17732(18) 0.79755(17)
O15 O 0.14894(13) 0.44764(11) 0.94987(12)
O16 O 0.23146(13) 0.44841(13) 0.95068(14)
C46 C 0.19793(19) 0.29470(19) 0.85422(17)
C47 C 0.19081(18) 0.43065(17) 0.93779(17)
C48 C 0.14947(19) 0.36024(18) 0.89293(18)
H26 H 0.1181 0.3739 0.9013
C49 C 0.24131(18) 0.31955(19) 0.86994(18)
H27 H 0.2729 0.3057 0.8627
C50 C 0.15198(19) 0.31558(18) 0.86569(19)
H28 H 0.1224 0.2997 0.8552
C51 C 0.23828(18) 0.36398(19) 0.89582(18)
H29 H 0.2677 0.3806 0.9056
C52 C 0.24202(17) 0.21669(17) 0.82979(19)
H30 H 0.2639 0.2214 0.8570
C53 C 0.19255(17) 0.38415(16) 0.90741(17)
C54 C 0.20245(17) 0.24963(18) 0.82268(18)
Cu5 Cu 0.5000 0.0000 0.85560(4)
Cu6 Cu 0.5000 -0.0000 0.75974(4)
O23 O 0.5000 0.0000 0.6791(4)
O24 O 0.5000 0.0000 0.9425(17)
Cu12_2 Cu 0.85560(4) 0.5000 1.0000
Cu18_2 Cu 0.75974(4) 0.5000 1.0000
O31 O 0.14894(13) 0.55236(11) 0.94987(12)
O34 O 0.55236(11) 0.05013(12) 0.85106(13)
O37 O 0.23146(13) 0.55159(13) 0.95068(14)
O40 O 0.55159(13) 0.04932(14) 0.76854(13)
Cu1_2 Cu 0.5000 1.0000 0.14440(4)
Cu2_2 Cu 0.5000 1.0000 0.24026(4)
O3_2 O 0.5000 1.0000 0.3209(4)
O4_2 O 0.5000 1.0000 0.0575(17)
O17 O 0.05013(12) 0.85106(13) 0.44764(11)
O18 O 0.04932(14) 0.76854(13) 0.44841(13)
C55 C 0.14578(17) 0.80207(19) 0.29470(19)
C56 C 0.06221(17) 0.80919(18) 0.43065(17)
C57 C 0.10707(18) 0.85053(19) 0.36024(18)
H31 H 0.0987 0.8819 0.3739
C58 C 0.13006(18) 0.75869(18) 0.31955(19)
H32 H 0.1373 0.7271 0.3057
C59 C 0.13431(19) 0.84802(19) 0.31558(18)
H33 H 0.1448 0.8776 0.2997
C60 C 0.10418(18) 0.76172(18) 0.36398(19)
H34 H 0.0944 0.7323 0.3806
C61 C 0.17021(19) 0.75798(17) 0.21669(17)
H35 H 0.1430 0.7361 0.2214
C62 C 0.09259(17) 0.80745(17) 0.38415(16)
C63 C 0.17732(18) 0.79755(17) 0.24963(18)
O19 O 0.44764(11) 0.94987(12) 0.14894(13)
O20 O 0.44841(13) 0.95068(14) 0.23146(13)
C64 C 0.29470(19) 0.85422(17) 0.19793(19)
C65 C 0.43065(17) 0.93779(17) 0.19081(18)
C66 C 0.36024(18) 0.89293(18) 0.14947(19)
H36 H 0.3739 0.9013 0.1181
C67 C 0.31955(19) 0.86994(18) 0.24131(18)
H37 H 0.3057 0.8627 0.2729
C68 C 0.31558(18) 0.86569(19) 0.15198(19)
H38 H 0.2997 0.8552 0.1224
C69 C 0.36398(19) 0.89582(18) 0.23828(18)
H39 H 0.3806 0.9056 0.2677
C70 C 0.21669(17) 0.82979(19) 0.24202(17)
H40 H 0.2214 0.8570 0.2639
C71 C 0.38415(16) 0.90741(17) 0.19255(17)
C72 C 0.24963(18) 0.82268(18) 0.20245(17)
C73 C 0.19793(19) 0.70530(19) 0.14578(17)
C74 C 0.19081(18) 0.56935(17) 0.06221(17)
C75 C 0.14947(19) 0.63976(18) 0.10707(18)
H41 H 0.1181 0.6261 0.0987
C76 C 0.24131(18) 0.68045(19) 0.13006(18)
H42 H 0.2729 0.6943 0.1373
C77 C 0.15198(19) 0.68442(18) 0.13431(19)
H43 H 0.1224 0.7003 0.1448
C78 C 0.23828(18) 0.63602(19) 0.10418(18)
H44 H 0.2677 0.6194 0.0944
C79 C 0.24202(17) 0.78331(17) 0.17021(19)
H45 H 0.2639 0.7786 0.1430
C80 C 0.19255(17) 0.61585(16) 0.09259(17)
C81 C 0.20245(17) 0.75037(18) 0.17732(18)
Cu11 Cu -0.0000 0.85560(4) 0.5000
Cu17 Cu -0.0000 0.75974(4) 0.5000
O32 O 0.55236(11) 0.94987(12) 0.14894(13)
O38 O 0.55159(13) 0.95068(14) 0.23146(13)
Cu5_2 Cu 0.5000 1.0000 0.85560(4)
Cu6_2 Cu 0.5000 1.0000 0.75974(4)
O23_2 O 0.5000 1.0000 0.6791(4)
O24_2 O 0.5000 1.0000 0.9425(17)
O33 O 0.44764(11) 0.94987(12) 0.85106(13)
O35 O 0.55236(11) 0.94987(12) 0.85106(13)
O39 O 0.44841(13) 0.95068(14) 0.76854(13)
O41 O 0.55159(13) 0.95068(14) 0.76854(13)
Cu11_2 Cu 1.0000 0.85560(4) 0.5000
Cu17_2 Cu 1.0000 0.75974(4) 0.5000
O9_3 O 0.0000 0.3209(4) 0.5000
O10_3 O 0.0000 0.0575(17) 0.5000
O9_4 O 1.0000 0.3209(4) 0.5000
O10_4 O 1.0000 0.0575(17) 0.5000
O23_3 O 0.6791(4) 0.5000 0.0000
O24_3 O 0.9425(17) 0.5000 0.0000
O31_2 O 0.94987(12) 0.14894(13) 0.55236(11)
O34_2 O 0.85106(13) 0.55236(11) 0.05013(12)
O37_2 O 0.95068(14) 0.23146(13) 0.55159(13)
O40_2 O 0.76854(13) 0.55159(13) 0.04932(14)
O23_4 O 0.6791(4) 0.5000 1.0000
O24_4 O 0.9425(17) 0.5000 1.0000
O33_2 O 0.85106(13) 0.44764(11) 0.94987(12)
O35_2 O 0.85106(13) 0.55236(11) 0.94987(12)
O39_2 O 0.76854(13) 0.44841(13) 0.95068(14)
O41_2 O 0.76854(13) 0.55159(13) 0.95068(14)
O23_5 O -0.0000 0.6791(4) 0.5000
O24_5 O -0.0000 0.9425(17) 0.5000
O34_3 O 0.05013(12) 0.85106(13) 0.55236(11)
O40_3 O 0.04932(14) 0.76854(13) 0.55159(13)
O23_6 O 1.0000 0.6791(4) 0.5000
O24_6 O 1.0000 0.9425(17) 0.5000
O33_3 O 0.94987(12) 0.85106(13) 0.44764(11)
O35_3 O 0.94987(12) 0.85106(13) 0.55236(11)
O39_3 O 0.95068(14) 0.76854(13) 0.44841(13)
O41_3 O 0.95068(14) 0.76854(13) 0.55159(13)
C1_2 C 0.85422(17) 0.80207(19) 0.29470(19)
C2_2 C 0.93779(17) 0.80919(18) 0.43065(17)
C3_2 C 0.89293(18) 0.85053(19) 0.36024(18)
H1_2 H 0.9013 0.8819 0.3739
C4_2 C 0.86994(18) 0.75869(18) 0.31955(19)
H2_2 H 0.8627 0.7271 0.3057
C5_2 C 0.86569(19) 0.84802(19) 0.31558(18)
H3_2 H 0.8552 0.8776 0.2997
C6_2 C 0.89582(18) 0.76172(18) 0.36398(19)
H4_2 H 0.9056 0.7323 0.3806
C7_2 C 0.82979(19) 0.75798(17) 0.21669(17)
H5_2 H 0.8570 0.7361 0.2214
C8_2 C 0.90741(17) 0.80745(17) 0.38415(16)
C9_2 C 0.82268(18) 0.79755(17) 0.24963(18)
C10_2 C 0.70530(19) 0.85422(17) 0.19793(19)
C11_2 C 0.56935(17) 0.93779(17) 0.19081(18)
C12_2 C 0.63976(18) 0.89293(18) 0.14947(19)
H6_2 H 0.6261 0.9013 0.1181
C13_2 C 0.68045(19) 0.86994(18) 0.24131(18)
H7_2 H 0.6943 0.8627 0.2729
C14_2 C 0.68442(18) 0.86569(19) 0.15198(19)
H8_2 H 0.7003 0.8552 0.1224
C15_2 C 0.63602(19) 0.89582(18) 0.23828(18)
H9_2 H 0.6194 0.9056 0.2677
C16_2 C 0.78331(17) 0.82979(19) 0.24202(17)
H10_2 H 0.7786 0.8570 0.2639
C17_2 C 0.61585(16) 0.90741(17) 0.19255(17)
C18_2 C 0.75037(18) 0.82268(18) 0.20245(17)
C19_2 C 0.80207(19) 0.70530(19) 0.14578(17)
C20_2 C 0.80919(18) 0.56935(17) 0.06221(17)
C21_2 C 0.85053(19) 0.63976(18) 0.10707(18)
H11_2 H 0.8819 0.6261 0.0987
C22_2 C 0.75869(18) 0.68045(19) 0.13006(18)
H12_2 H 0.7271 0.6943 0.1373
C23_2 C 0.84802(19) 0.68442(18) 0.13431(19)
H13_2 H 0.8776 0.7003 0.1448
C24_2 C 0.76172(18) 0.63602(19) 0.10418(18)
H14_2 H 0.7323 0.6194 0.0944
C25_2 C 0.75798(17) 0.78331(17) 0.17021(19)
H15_2 H 0.7361 0.7786 0.1430
C26_2 C 0.80745(17) 0.61585(16) 0.09259(17)
C27_2 C 0.79755(17) 0.75037(18) 0.17732(18)
C82_2 C 0.85422(17) 0.80207(19) 0.70530(19)
C83_2 C 0.93779(17) 0.80919(18) 0.56935(17)
C84_2 C 0.89293(18) 0.85053(19) 0.63976(18)
H46_2 H 0.9013 0.8819 0.6261
C85_2 C 0.86994(18) 0.75869(18) 0.68045(19)
H47_2 H 0.8627 0.7271 0.6943
C86_2 C 0.86569(19) 0.84802(19) 0.68442(18)
H48_2 H 0.8552 0.8776 0.7003
C87_2 C 0.89582(18) 0.76172(18) 0.63602(19)
H49_2 H 0.9056 0.7323 0.6194
C88_2 C 0.82979(19) 0.75798(17) 0.78331(17)
H50_2 H 0.8570 0.7361 0.7786
C89_2 C 0.90741(17) 0.80745(17) 0.61585(16)
C90_2 C 0.82268(18) 0.79755(17) 0.75037(18)
C91_2 C 0.70530(19) 0.85422(17) 0.80207(19)
C92_2 C 0.56935(17) 0.93779(17) 0.80919(18)
C93_2 C 0.63976(18) 0.89293(18) 0.85053(19)
H51_2 H 0.6261 0.9013 0.8819
C94_2 C 0.68045(19) 0.86994(18) 0.75869(18)
H52_2 H 0.6943 0.8627 0.7271
C95_2 C 0.68442(18) 0.86569(19) 0.84802(19)
H53_2 H 0.7003 0.8552 0.8776
C96_2 C 0.63602(19) 0.89582(18) 0.76172(18)
H54_2 H 0.6194 0.9056 0.7323
C97_2 C 0.78331(17) 0.82979(19) 0.75798(17)
H55_2 H 0.7786 0.8570 0.7361
C98_2 C 0.61585(16) 0.90741(17) 0.80745(17)
C99_2 C 0.75037(18) 0.82268(18) 0.79755(17)
C100_2 C 0.80207(19) 0.70530(19) 0.85422(17)
C101_2 C 0.80919(18) 0.56935(17) 0.93779(17)
C102_2 C 0.85053(19) 0.63976(18) 0.89293(18)
H56_2 H 0.8819 0.6261 0.9013
C103_2 C 0.75869(18) 0.68045(19) 0.86994(18)
H57_2 H 0.7271 0.6943 0.8627
C104_2 C 0.84802(19) 0.68442(18) 0.86569(19)
H58_2 H 0.8776 0.7003 0.8552
C105_2 C 0.76172(18) 0.63602(19) 0.89582(18)
H59_2 H 0.7323 0.6194 0.9056
C106_2 C 0.75798(17) 0.78331(17) 0.82979(19)
H60_2 H 0.7361 0.7786 0.8570
C107_2 C 0.80745(17) 0.61585(16) 0.90741(17)
C108_2 C 0.79755(17) 0.75037(18) 0.82268(18)
C1_3 C 0.19793(19) 0.70530(19) 0.85422(17)
C2_3 C 0.19081(18) 0.56935(17) 0.93779(17)
C3_3 C 0.14947(19) 0.63976(18) 0.89293(18)
H1_3 H 0.1181 0.6261 0.9013
C4_3 C 0.24131(18) 0.68045(19) 0.86994(18)
H2_3 H 0.2729 0.6943 0.8627
C5_3 C 0.15198(19) 0.68442(18) 0.86569(19)
H3_3 H 0.1224 0.7003 0.8552
C6_3 C 0.23828(18) 0.63602(19) 0.89582(18)
H4_3 H 0.2677 0.6194 0.9056
C7_3 C 0.24202(17) 0.78331(17) 0.82979(19)
H5_3 H 0.2639 0.7786 0.8570
C8_3 C 0.19255(17) 0.61585(16) 0.90741(17)
C9_3 C 0.20245(17) 0.75037(18) 0.82268(18)
C10_3 C 0.14578(17) 0.80207(19) 0.70530(19)
C11_3 C 0.06221(17) 0.80919(18) 0.56935(17)
C12_3 C 0.10707(18) 0.85053(19) 0.63976(18)
H6_3 H 0.0987 0.8819 0.6261
C13_3 C 0.13006(18) 0.75869(18) 0.68045(19)
H7_3 H 0.1373 0.7271 0.6943
C14_3 C 0.13431(19) 0.84802(19) 0.68442(18)
H8_3 H 0.1448 0.8776 0.7003
C15_3 C 0.10418(18) 0.76172(18) 0.63602(19)
H9_3 H 0.0944 0.7323 0.6194
C16_3 C 0.17021(19) 0.75798(17) 0.78331(17)
H10_3 H 0.1430 0.7361 0.7786
C17_3 C 0.09259(17) 0.80745(17) 0.61585(16)
C18_3 C 0.17732(18) 0.79755(17) 0.75037(18)
C19_3 C 0.29470(19) 0.85422(17) 0.80207(19)
C20_3 C 0.43065(17) 0.93779(17) 0.80919(18)
C21_3 C 0.36024(18) 0.89293(18) 0.85053(19)
H11_3 H 0.3739 0.9013 0.8819
C22_3 C 0.31955(19) 0.86994(18) 0.75869(18)
H12_3 H 0.3057 0.8627 0.7271
C23_3 C 0.31558(18) 0.86569(19) 0.84802(19)
H13_3 H 0.2997 0.8552 0.8776
C24_3 C 0.36398(19) 0.89582(18) 0.76172(18)
H14_3 H 0.3806 0.9056 0.7323
C25_3 C 0.21669(17) 0.82979(19) 0.75798(17)
H15_3 H 0.2214 0.8570 0.7361
C26_3 C 0.38415(16) 0.90741(17) 0.80745(17)
C27_3 C 0.24963(18) 0.82268(18) 0.79755(17)
C1_4 C 0.85422(17) 0.19793(19) 0.70530(19)
C2_4 C 0.93779(17) 0.19081(18) 0.56935(17)
C3_4 C 0.89293(18) 0.14947(19) 0.63976(18)
H1_4 H 0.9013 0.1181 0.6261
C4_4 C 0.86994(18) 0.24131(18) 0.68045(19)
H2_4 H 0.8627 0.2729 0.6943
C5_4 C 0.86569(19) 0.15198(19) 0.68442(18)
H3_4 H 0.8552 0.1224 0.7003
C6_4 C 0.89582(18) 0.23828(18) 0.63602(19)
H4_4 H 0.9056 0.2677 0.6194
C7_4 C 0.82979(19) 0.24202(17) 0.78331(17)
H5_4 H 0.8570 0.2639 0.7786
C8_4 C 0.90741(17) 0.19255(17) 0.61585(16)
C9_4 C 0.82268(18) 0.20245(17) 0.75037(18)
C10_4 C 0.70530(19) 0.14578(17) 0.80207(19)
C11_4 C 0.56935(17) 0.06221(17) 0.80919(18)
C12_4 C 0.63976(18) 0.10707(18) 0.85053(19)
H6_4 H 0.6261 0.0987 0.8819
C13_4 C 0.68045(19) 0.13006(18) 0.75869(18)
H7_4 H 0.6943 0.1373 0.7271
C14_4 C 0.68442(18) 0.13431(19) 0.84802(19)
H8_4 H 0.7003 0.1448 0.8776
C15_4 C 0.63602(19) 0.10418(18) 0.76172(18)
H9_4 H 0.6194 0.0944 0.7323
C16_4 C 0.78331(17) 0.17021(19) 0.75798(17)
H10_4 H 0.7786 0.1430 0.7361
C17_4 C 0.61585(16) 0.09259(17) 0.80745(17)
C18_4 C 0.75037(18) 0.17732(18) 0.79755(17)
C19_4 C 0.80207(19) 0.29470(19) 0.85422(17)
C20_4 C 0.80919(18) 0.43065(17) 0.93779(17)
C21_4 C 0.85053(19) 0.36024(18) 0.89293(18)
H11_4 H 0.8819 0.3739 0.9013
C22_4 C 0.75869(18) 0.31955(19) 0.86994(18)
H12_4 H 0.7271 0.3057 0.8627
C23_4 C 0.84802(19) 0.31558(18) 0.86569(19)
H13_4 H 0.8776 0.2997 0.8552
C24_4 C 0.76172(18) 0.36398(19) 0.89582(18)
H14_4 H 0.7323 0.3806 0.9056
C25_4 C 0.75798(17) 0.21669(17) 0.82979(19)
H15_4 H 0.7361 0.2214 0.8570
C26_4 C 0.80745(17) 0.38415(16) 0.90741(17)
C27_4 C 0.79755(17) 0.24963(18) 0.82268(18)
Cu12_3 Cu 0.35560(4) 0.0000 0.5000
Cu18_3 Cu 0.25974(4) 0.0000 0.5000
Cu10_3 Cu 0.5000 0.64440(4) 0.0000
Cu16_3 Cu 0.5000 0.74026(4) 0.0000
Cu1_3 Cu -0.0000 0.5000 0.64440(4)
Cu2_3 Cu -0.0000 0.5000 0.74026(4)
O3_3 O -0.0000 0.5000 0.8209(4)
O4_3 O -0.0000 0.5000 0.5575(17)
Cu5_3 Cu -0.0000 0.5000 0.35560(4)
Cu6_3 Cu -0.0000 0.5000 0.25974(4)
O23_7 O 0.0000 0.5000 0.1791(4)
O24_7 O 0.0000 0.5000 0.4425(17)
O25_2 O 0.05236(11) 0.55013(12) 0.64894(13)
O26_2 O 0.05159(13) 0.54932(14) 0.73146(13)
C82_3 C 0.20530(19) 0.64578(17) 0.69793(19)
C83_3 C 0.06935(17) 0.56221(17) 0.69081(18)
C84_3 C 0.13976(18) 0.60707(18) 0.64947(19)
H46_3 H 0.1261 0.5987 0.6181
C85_3 C 0.18045(19) 0.63006(18) 0.74131(18)
H47_3 H 0.1943 0.6373 0.7729
C86_3 C 0.18442(18) 0.63431(19) 0.65198(19)
H48_3 H 0.2003 0.6448 0.6224
C87_3 C 0.13602(19) 0.60418(18) 0.73828(18)
H49_3 H 0.1194 0.5944 0.7677
C88_3 C 0.28331(17) 0.67021(19) 0.74202(17)
H50_3 H 0.2786 0.6430 0.7639
C89_3 C 0.11585(16) 0.59259(17) 0.69255(17)
C90_3 C 0.25037(18) 0.67732(18) 0.70245(17)
O27_2 O 0.35106(13) 0.94764(11) 0.55013(12)
O28_2 O 0.26854(13) 0.94841(13) 0.54932(14)
C91_3 C 0.30207(19) 0.79470(19) 0.64578(17)
C92_3 C 0.30919(18) 0.93065(17) 0.56221(17)
C93_3 C 0.35053(19) 0.86024(18) 0.60707(18)
H51_3 H 0.3819 0.8739 0.5987
C94_3 C 0.25869(18) 0.81955(19) 0.63006(18)
H52_3 H 0.2271 0.8057 0.6373
C95_3 C 0.34802(19) 0.81558(18) 0.63431(19)
H53_3 H 0.3776 0.7997 0.6448
C96_3 C 0.26172(18) 0.86398(19) 0.60418(18)
H54_3 H 0.2323 0.8806 0.5944
C97_3 C 0.25798(17) 0.71669(17) 0.67021(19)
H55_3 H 0.2361 0.7214 0.6430
C98_3 C 0.30745(17) 0.88415(16) 0.59259(17)
C99_3 C 0.29755(17) 0.74963(18) 0.67732(18)
O29_2 O 0.44987(12) 0.64894(13) 0.94764(11)
O30_2 O 0.45068(14) 0.73146(13) 0.94841(13)
C100_3 C 0.35422(17) 0.69793(19) 0.79470(19)
C101_3 C 0.43779(17) 0.69081(18) 0.93065(17)
C102_3 C 0.39293(18) 0.64947(19) 0.86024(18)
H56_3 H 0.4013 0.6181 0.8739
C103_3 C 0.36994(18) 0.74131(18) 0.81955(19)
H57_3 H 0.3627 0.7729 0.8057
C104_3 C 0.36569(19) 0.65198(19) 0.81558(18)
H58_3 H 0.3552 0.6224 0.7997
C105_3 C 0.39582(18) 0.73828(18) 0.86398(19)
H59_3 H 0.4056 0.7677 0.8806
C106_3 C 0.32979(19) 0.74202(17) 0.71669(17)
H60_3 H 0.3570 0.7639 0.7214
C107_3 C 0.40741(17) 0.69255(17) 0.88415(16)
C108_3 C 0.32268(18) 0.70245(17) 0.74963(18)
Cu10_4 Cu 0.5000 0.64440(4) 1.0000
Cu12_4 Cu 0.35560(4) 1.0000 0.5000
Cu16_4 Cu 0.5000 0.74026(4) 1.0000
Cu18_4 Cu 0.25974(4) 1.0000 0.5000
O32_2 O 0.05236(11) 0.44987(12) 0.64894(13)
O34_4 O 0.05236(11) 0.55013(12) 0.35106(13)
O35_4 O 0.05236(11) 0.44987(12) 0.35106(13)
O38_2 O 0.05159(13) 0.45068(14) 0.73146(13)
O40_4 O 0.05159(13) 0.54932(14) 0.26854(13)
O41_4 O 0.05159(13) 0.45068(14) 0.26854(13)
Cu3_3 Cu 0.64440(4) 0.0000 0.5000
Cu4_3 Cu 0.74026(4) 0.0000 0.5000
O9_5 O 0.8209(4) 0.0000 0.5000
O10_5 O 0.5575(17) 0.0000 0.5000
O31_3 O 0.64894(13) 0.05236(11) 0.44987(12)
O36_2 O 0.64894(13) 0.05236(11) 0.55013(12)
O37_3 O 0.73146(13) 0.05159(13) 0.45068(14)
O42_2 O 0.73146(13) 0.05159(13) 0.54932(14)
Cu11_3 Cu 0.5000 0.35560(4) 0.0000
Cu17_3 Cu 0.5000 0.25974(4) 0.0000
Cu1_4 Cu 1.0000 0.5000 0.64440(4)
Cu2_4 Cu 1.0000 0.5000 0.74026(4)
O1_2 O 0.94764(11) 0.55013(12) 0.64894(13)
O2_2 O 0.94841(13) 0.54932(14) 0.73146(13)
C1_5 C 0.79470(19) 0.64578(17) 0.69793(19)
C2_5 C 0.93065(17) 0.56221(17) 0.69081(18)
C3_5 C 0.86024(18) 0.60707(18) 0.64947(19)
H1_5 H 0.8739 0.5987 0.6181
C4_5 C 0.81955(19) 0.63006(18) 0.74131(18)
H2_5 H 0.8057 0.6373 0.7729
C5_5 C 0.81558(18) 0.63431(19) 0.65198(19)
H3_5 H 0.7997 0.6448 0.6224
C6_5 C 0.86398(19) 0.60418(18) 0.73828(18)
H4_5 H 0.8806 0.5944 0.7677
C7_5 C 0.71669(17) 0.67021(19) 0.74202(17)
H5_5 H 0.7214 0.6430 0.7639
C8_5 C 0.88415(16) 0.59259(17) 0.69255(17)
C9_5 C 0.74963(18) 0.67732(18) 0.70245(17)
O3_4 O 1.0000 0.5000 0.8209(4)
O4_4 O 1.0000 0.5000 0.5575(17)
O5_2 O 0.64894(13) 0.94764(11) 0.55013(12)
O6_2 O 0.73146(13) 0.94841(13) 0.54932(14)
C10_5 C 0.69793(19) 0.79470(19) 0.64578(17)
C11_5 C 0.69081(18) 0.93065(17) 0.56221(17)
C12_5 C 0.64947(19) 0.86024(18) 0.60707(18)
H6_5 H 0.6181 0.8739 0.5987
C13_5 C 0.74131(18) 0.81955(19) 0.63006(18)
H7_5 H 0.7729 0.8057 0.6373
C14_5 C 0.65198(19) 0.81558(18) 0.63431(19)
H8_5 H 0.6224 0.7997 0.6448
C15_5 C 0.73828(18) 0.86398(19) 0.60418(18)
H9_5 H 0.7677 0.8806 0.5944
C16_5 C 0.74202(17) 0.71669(17) 0.67021(19)
H10_5 H 0.7639 0.7214 0.6430
C17_5 C 0.69255(17) 0.88415(16) 0.59259(17)
C18_5 C 0.70245(17) 0.74963(18) 0.67732(18)
O7_2 O 0.55013(12) 0.64894(13) 0.94764(11)
O8_2 O 0.54932(14) 0.73146(13) 0.94841(13)
C19_5 C 0.64578(17) 0.69793(19) 0.79470(19)
C20_5 C 0.56221(17) 0.69081(18) 0.93065(17)
C21_5 C 0.60707(18) 0.64947(19) 0.86024(18)
H11_5 H 0.5987 0.6181 0.8739
C22_5 C 0.63006(18) 0.74131(18) 0.81955(19)
H12_5 H 0.6373 0.7729 0.8057
C23_5 C 0.63431(19) 0.65198(19) 0.81558(18)
H13_5 H 0.6448 0.6224 0.7997
C24_5 C 0.60418(18) 0.73828(18) 0.86398(19)
H14_5 H 0.5944 0.7677 0.8806
C25_5 C 0.67021(19) 0.74202(17) 0.71669(17)
H15_5 H 0.6430 0.7639 0.7214
C26_5 C 0.59259(17) 0.69255(17) 0.88415(16)
C27_5 C 0.67732(18) 0.70245(17) 0.74963(18)
Cu3_4 Cu 0.64440(4) 1.0000 0.5000
Cu4_4 Cu 0.74026(4) 1.0000 0.5000
O9_6 O 0.8209(4) 1.0000 0.5000
O10_6 O 0.5575(17) 1.0000 0.5000
O11_2 O 0.55013(12) 0.64894(13) 0.05236(11)
O12_2 O 0.54932(14) 0.73146(13) 0.05159(13)
C28_2 C 0.64578(17) 0.69793(19) 0.20530(19)
C29_2 C 0.56221(17) 0.69081(18) 0.06935(17)
C30_2 C 0.60707(18) 0.64947(19) 0.13976(18)
H16_2 H 0.5987 0.6181 0.1261
C31_2 C 0.63006(18) 0.74131(18) 0.18045(19)
H17_2 H 0.6373 0.7729 0.1943
C32_2 C 0.63431(19) 0.65198(19) 0.18442(18)
H18_2 H 0.6448 0.6224 0.2003
C33_2 C 0.60418(18) 0.73828(18) 0.13602(19)
H19_2 H 0.5944 0.7677 0.1194
C34_2 C 0.67021(19) 0.74202(17) 0.28331(17)
H20_2 H 0.6430 0.7639 0.2786
C35_2 C 0.59259(17) 0.69255(17) 0.11585(16)
C36_2 C 0.67732(18) 0.70245(17) 0.25037(18)
O13_2 O 0.94764(11) 0.55013(12) 0.35106(13)
O14_2 O 0.94841(13) 0.54932(14) 0.26854(13)
C37_2 C 0.79470(19) 0.64578(17) 0.30207(19)
C38_2 C 0.93065(17) 0.56221(17) 0.30919(18)
C39_2 C 0.86024(18) 0.60707(18) 0.35053(19)
H21_2 H 0.8739 0.5987 0.3819
C40_2 C 0.81955(19) 0.63006(18) 0.25869(18)
H22_2 H 0.8057 0.6373 0.2271
C41_2 C 0.81558(18) 0.63431(19) 0.34802(19)
H23_2 H 0.7997 0.6448 0.3776
C42_2 C 0.86398(19) 0.60418(18) 0.26172(18)
H24_2 H 0.8806 0.5944 0.2323
C43_2 C 0.71669(17) 0.67021(19) 0.25798(17)
H25_2 H 0.7214 0.6430 0.2361
C44_2 C 0.88415(16) 0.59259(17) 0.30745(17)
C45_2 C 0.74963(18) 0.67732(18) 0.29755(17)
O15_2 O 0.64894(13) 0.94764(11) 0.44987(12)
O16_2 O 0.73146(13) 0.94841(13) 0.45068(14)
C46_2 C 0.69793(19) 0.79470(19) 0.35422(17)
C47_2 C 0.69081(18) 0.93065(17) 0.43779(17)
C48_2 C 0.64947(19) 0.86024(18) 0.39293(18)
H26_2 H 0.6181 0.8739 0.4013
C49_2 C 0.74131(18) 0.81955(19) 0.36994(18)
H27_2 H 0.7729 0.8057 0.3627
C50_2 C 0.65198(19) 0.81558(18) 0.36569(19)
H28_2 H 0.6224 0.7997 0.3552
C51_2 C 0.73828(18) 0.86398(19) 0.39582(18)
H29_2 H 0.7677 0.8806 0.4056
C52_2 C 0.74202(17) 0.71669(17) 0.32979(19)
H30_2 H 0.7639 0.7214 0.3570
C53_2 C 0.69255(17) 0.88415(16) 0.40741(17)
C54_2 C 0.70245(17) 0.74963(18) 0.32268(18)
O17_2 O 0.55013(12) 0.35106(13) 0.94764(11)
O18_2 O 0.54932(14) 0.26854(13) 0.94841(13)
C55_2 C 0.64578(17) 0.30207(19) 0.79470(19)
C56_2 C 0.56221(17) 0.30919(18) 0.93065(17)
C57_2 C 0.60707(18) 0.35053(19) 0.86024(18)
H31_2 H 0.5987 0.3819 0.8739
C58_2 C 0.63006(18) 0.25869(18) 0.81955(19)
H32_2 H 0.6373 0.2271 0.8057
C59_2 C 0.63431(19) 0.34802(19) 0.81558(18)
H33_2 H 0.6448 0.3776 0.7997
C60_2 C 0.60418(18) 0.26172(18) 0.86398(19)
H34_2 H 0.5944 0.2323 0.8806
C61_2 C 0.67021(19) 0.25798(17) 0.71669(17)
H35_2 H 0.6430 0.2361 0.7214
C62_2 C 0.59259(17) 0.30745(17) 0.88415(16)
C63_2 C 0.67732(18) 0.29755(17) 0.74963(18)
O19_2 O 0.94764(11) 0.44987(12) 0.64894(13)
O20_2 O 0.94841(13) 0.45068(14) 0.73146(13)
C64_2 C 0.79470(19) 0.35422(17) 0.69793(19)
C65_2 C 0.93065(17) 0.43779(17) 0.69081(18)
C66_2 C 0.86024(18) 0.39293(18) 0.64947(19)
H36_2 H 0.8739 0.4013 0.6181
C67_2 C 0.81955(19) 0.36994(18) 0.74131(18)
H37_2 H 0.8057 0.3627 0.7729
C68_2 C 0.81558(18) 0.36569(19) 0.65198(19)
H38_2 H 0.7997 0.3552 0.6224
C69_2 C 0.86398(19) 0.39582(18) 0.73828(18)
H39_2 H 0.8806 0.4056 0.7677
C70_2 C 0.71669(17) 0.32979(19) 0.74202(17)
H40_2 H 0.7214 0.3570 0.7639
C71_2 C 0.88415(16) 0.40741(17) 0.69255(17)
C72_2 C 0.74963(18) 0.32268(18) 0.70245(17)
C73_2 C 0.69793(19) 0.20530(19) 0.64578(17)
C74_2 C 0.69081(18) 0.06935(17) 0.56221(17)
C75_2 C 0.64947(19) 0.13976(18) 0.60707(18)
H41_2 H 0.6181 0.1261 0.5987
C76_2 C 0.74131(18) 0.18045(19) 0.63006(18)
H42_2 H 0.7729 0.1943 0.6373
C77_2 C 0.65198(19) 0.18442(18) 0.63431(19)
H43_2 H 0.6224 0.2003 0.6448
C78_2 C 0.73828(18) 0.13602(19) 0.60418(18)
H44_2 H 0.7677 0.1194 0.5944
C79_2 C 0.74202(17) 0.28331(17) 0.67021(19)
H45_2 H 0.7639 0.2786 0.6430
C80_2 C 0.69255(17) 0.11585(16) 0.59259(17)
C81_2 C 0.70245(17) 0.25037(18) 0.67732(18)
Cu5_4 Cu 1.0000 0.5000 0.35560(4)
Cu6_4 Cu 1.0000 0.5000 0.25974(4)
O23_8 O 1.0000 0.5000 0.1791(4)
O24_8 O 1.0000 0.5000 0.4425(17)
Cu11_4 Cu 0.5000 0.35560(4) 1.0000
Cu17_4 Cu 0.5000 0.25974(4) 1.0000
O33_4 O 0.94764(11) 0.44987(12) 0.35106(13)
O39_4 O 0.94841(13) 0.45068(14) 0.26854(13)
O23_9 O 0.1791(4) 0.0000 0.5000
O24_9 O 0.4425(17) 0.0000 0.5000
O34_5 O 0.35106(13) 0.05236(11) 0.55013(12)
O35_5 O 0.35106(13) 0.05236(11) 0.44987(12)
O40_5 O 0.26854(13) 0.05159(13) 0.54932(14)
O41_5 O 0.26854(13) 0.05159(13) 0.45068(14)
O9_7 O 0.5000 0.8209(4) 0.0000
O10_7 O 0.5000 0.5575(17) 0.0000
O31_4 O 0.44987(12) 0.64894(13) 0.05236(11)
O37_4 O 0.45068(14) 0.73146(13) 0.05159(13)
O9_8 O 0.5000 0.8209(4) 1.0000
O10_8 O 0.5000 0.5575(17) 1.0000
O23_10 O 0.1791(4) 1.0000 0.5000
O24_10 O 0.4425(17) 1.0000 0.5000
O33_5 O 0.35106(13) 0.94764(11) 0.44987(12)
O39_5 O 0.26854(13) 0.94841(13) 0.45068(14)
O23_11 O 0.5000 0.1791(4) 0.0000
O24_11 O 0.5000 0.4425(17) 0.0000
O34_6 O 0.55013(12) 0.35106(13) 0.05236(11)
O35_6 O 0.44987(12) 0.35106(13) 0.05236(11)
O40_6 O 0.54932(14) 0.26854(13) 0.05159(13)
O41_6 O 0.45068(14) 0.26854(13) 0.05159(13)
O23_12 O 0.5000 0.1791(4) 1.0000
O24_12 O 0.5000 0.4425(17) 1.0000
O33_6 O 0.44987(12) 0.35106(13) 0.94764(11)
O39_6 O 0.45068(14) 0.26854(13) 0.94841(13)
C82_4 C 0.35422(17) 0.30207(19) 0.20530(19)
C83_4 C 0.43779(17) 0.30919(18) 0.06935(17)
C84_4 C 0.39293(18) 0.35053(19) 0.13976(18)
H46_4 H 0.4013 0.3819 0.1261
C85_4 C 0.36994(18) 0.25869(18) 0.18045(19)
H47_4 H 0.3627 0.2271 0.1943
C86_4 C 0.36569(19) 0.34802(19) 0.18442(18)
H48_4 H 0.3552 0.3776 0.2003
C87_4 C 0.39582(18) 0.26172(18) 0.13602(19)
H49_4 H 0.4056 0.2323 0.1194
C88_4 C 0.32979(19) 0.25798(17) 0.28331(17)
H50_4 H 0.3570 0.2361 0.2786
C89_4 C 0.40741(17) 0.30745(17) 0.11585(16)
C90_4 C 0.32268(18) 0.29755(17) 0.25037(18)
C91_4 C 0.20530(19) 0.35422(17) 0.30207(19)
C92_4 C 0.06935(17) 0.43779(17) 0.30919(18)
C93_4 C 0.13976(18) 0.39293(18) 0.35053(19)
H51_4 H 0.1261 0.4013 0.3819
C94_4 C 0.18045(19) 0.36994(18) 0.25869(18)
H52_4 H 0.1943 0.3627 0.2271
C95_4 C 0.18442(18) 0.36569(19) 0.34802(19)
H53_4 H 0.2003 0.3552 0.3776
C96_4 C 0.13602(19) 0.39582(18) 0.26172(18)
H54_4 H 0.1194 0.4056 0.2323
C97_4 C 0.28331(17) 0.32979(19) 0.25798(17)
H55_4 H 0.2786 0.3570 0.2361
C98_4 C 0.11585(16) 0.40741(17) 0.30745(17)
C99_4 C 0.25037(18) 0.32268(18) 0.29755(17)
C100_4 C 0.30207(19) 0.20530(19) 0.35422(17)
C101_4 C 0.30919(18) 0.06935(17) 0.43779(17)
C102_4 C 0.35053(19) 0.13976(18) 0.39293(18)
H56_4 H 0.3819 0.1261 0.4013
C103_4 C 0.25869(18) 0.18045(19) 0.36994(18)
H57_4 H 0.2271 0.1943 0.3627
C104_4 C 0.34802(19) 0.18442(18) 0.36569(19)
H58_4 H 0.3776 0.2003 0.3552
C105_4 C 0.26172(18) 0.13602(19) 0.39582(18)
H59_4 H 0.2323 0.1194 0.4056
C106_4 C 0.25798(17) 0.28331(17) 0.32979(19)
H60_4 H 0.2361 0.2786 0.3570
C107_4 C 0.30745(17) 0.11585(16) 0.40741(17)
C108_4 C 0.29755(17) 0.25037(18) 0.32268(18)
C1_6 C 0.35422(17) 0.30207(19) 0.79470(19)
C2_6 C 0.43779(17) 0.30919(18) 0.93065(17)
C3_6 C 0.39293(18) 0.35053(19) 0.86024(18)
H1_6 H 0.4013 0.3819 0.8739
C4_6 C 0.36994(18) 0.25869(18) 0.81955(19)
H2_6 H 0.3627 0.2271 0.8057
C5_6 C 0.36569(19) 0.34802(19) 0.81558(18)
H3_6 H 0.3552 0.3776 0.7997
C6_6 C 0.39582(18) 0.26172(18) 0.86398(19)
H4_6 H 0.4056 0.2323 0.8806
C7_6 C 0.32979(19) 0.25798(17) 0.71669(17)
H5_6 H 0.3570 0.2361 0.7214
C8_6 C 0.40741(17) 0.30745(17) 0.88415(16)
C9_6 C 0.32268(18) 0.29755(17) 0.74963(18)
C10_6 C 0.20530(19) 0.35422(17) 0.69793(19)
C11_6 C 0.06935(17) 0.43779(17) 0.69081(18)
C12_6 C 0.13976(18) 0.39293(18) 0.64947(19)
H6_6 H 0.1261 0.4013 0.6181
C13_6 C 0.18045(19) 0.36994(18) 0.74131(18)
H7_6 H 0.1943 0.3627 0.7729
C14_6 C 0.18442(18) 0.36569(19) 0.65198(19)
H8_6 H 0.2003 0.3552 0.6224
C15_6 C 0.13602(19) 0.39582(18) 0.73828(18)
H9_6 H 0.1194 0.4056 0.7677
C16_6 C 0.28331(17) 0.32979(19) 0.74202(17)
H10_6 H 0.2786 0.3570 0.7639
C17_6 C 0.11585(16) 0.40741(17) 0.69255(17)
C18_6 C 0.25037(18) 0.32268(18) 0.70245(17)
C19_6 C 0.30207(19) 0.20530(19) 0.64578(17)
C20_6 C 0.30919(18) 0.06935(17) 0.56221(17)
C21_6 C 0.35053(19) 0.13976(18) 0.60707(18)
H11_6 H 0.3819 0.1261 0.5987
C22_6 C 0.25869(18) 0.18045(19) 0.63006(18)
H12_6 H 0.2271 0.1943 0.6373
C23_6 C 0.34802(19) 0.18442(18) 0.63431(19)
H13_6 H 0.3776 0.2003 0.6448
C24_6 C 0.26172(18) 0.13602(19) 0.60418(18)
H14_6 H 0.2323 0.1194 0.5944
C25_6 C 0.25798(17) 0.28331(17) 0.67021(19)
H15_6 H 0.2361 0.2786 0.6430
C26_6 C 0.30745(17) 0.11585(16) 0.59259(17)
C27_6 C 0.29755(17) 0.25037(18) 0.67732(18)
C1_7 C 0.69793(19) 0.20530(19) 0.35422(17)
C2_7 C 0.69081(18) 0.06935(17) 0.43779(17)
C3_7 C 0.64947(19) 0.13976(18) 0.39293(18)
H1_7 H 0.6181 0.1261 0.4013
C4_7 C 0.74131(18) 0.18045(19) 0.36994(18)
H2_7 H 0.7729 0.1943 0.3627
C5_7 C 0.65198(19) 0.18442(18) 0.36569(19)
H3_7 H 0.6224 0.2003 0.3552
C6_7 C 0.73828(18) 0.13602(19) 0.39582(18)
H4_7 H 0.7677 0.1194 0.4056
C7_7 C 0.74202(17) 0.28331(17) 0.32979(19)
H5_7 H 0.7639 0.2786 0.3570
C8_7 C 0.69255(17) 0.11585(16) 0.40741(17)
C9_7 C 0.70245(17) 0.25037(18) 0.32268(18)
C10_7 C 0.64578(17) 0.30207(19) 0.20530(19)
C11_7 C 0.56221(17) 0.30919(18) 0.06935(17)
C12_7 C 0.60707(18) 0.35053(19) 0.13976(18)
H6_7 H 0.5987 0.3819 0.1261
C13_7 C 0.63006(18) 0.25869(18) 0.18045(19)
H7_7 H 0.6373 0.2271 0.1943
C14_7 C 0.63431(19) 0.34802(19) 0.18442(18)
H8_7 H 0.6448 0.3776 0.2003
C15_7 C 0.60418(18) 0.26172(18) 0.13602(19)
H9_7 H 0.5944 0.2323 0.1194
C16_7 C 0.67021(19) 0.25798(17) 0.28331(17)
H10_7 H 0.6430 0.2361 0.2786
C17_7 C 0.59259(17) 0.30745(17) 0.11585(16)
C18_7 C 0.67732(18) 0.29755(17) 0.25037(18)
C19_7 C 0.79470(19) 0.35422(17) 0.30207(19)
C20_7 C 0.93065(17) 0.43779(17) 0.30919(18)
C21_7 C 0.86024(18) 0.39293(18) 0.35053(19)
H11_7 H 0.8739 0.4013 0.3819
C22_7 C 0.81955(19) 0.36994(18) 0.25869(18)
H12_7 H 0.8057 0.3627 0.2271
C23_7 C 0.81558(18) 0.36569(19) 0.34802(19)
H13_7 H 0.7997 0.3552 0.3776
C24_7 C 0.86398(19) 0.39582(18) 0.26172(18)
H14_7 H 0.8806 0.4056 0.2323
C25_7 C 0.71669(17) 0.32979(19) 0.25798(17)
H15_7 H 0.7214 0.3570 0.2361
C26_7 C 0.88415(16) 0.40741(17) 0.30745(17)
C27_7 C 0.74963(18) 0.32268(18) 0.29755(17)
C1_8 C 0.35422(17) 0.69793(19) 0.20530(19)
C2_8 C 0.43779(17) 0.69081(18) 0.06935(17)
C3_8 C 0.39293(18) 0.64947(19) 0.13976(18)
H1_8 H 0.4013 0.6181 0.1261
C4_8 C 0.36994(18) 0.74131(18) 0.18045(19)
H2_8 H 0.3627 0.7729 0.1943
C5_8 C 0.36569(19) 0.65198(19) 0.18442(18)
H3_8 H 0.3552 0.6224 0.2003
C6_8 C 0.39582(18) 0.73828(18) 0.13602(19)
H4_8 H 0.4056 0.7677 0.1194
C7_8 C 0.32979(19) 0.74202(17) 0.28331(17)
H5_8 H 0.3570 0.7639 0.2786
C8_8 C 0.40741(17) 0.69255(17) 0.11585(16)
C9_8 C 0.32268(18) 0.70245(17) 0.25037(18)
C10_8 C 0.20530(19) 0.64578(17) 0.30207(19)
C11_8 C 0.06935(17) 0.56221(17) 0.30919(18)
C12_8 C 0.13976(18) 0.60707(18) 0.35053(19)
H6_8 H 0.1261 0.5987 0.3819
C13_8 C 0.18045(19) 0.63006(18) 0.25869(18)
H7_8 H 0.1943 0.6373 0.2271
C14_8 C 0.18442(18) 0.63431(19) 0.34802(19)
H8_8 H 0.2003 0.6448 0.3776
C15_8 C 0.13602(19) 0.60418(18) 0.26172(18)
H9_8 H 0.1194 0.5944 0.2323
C16_8 C 0.28331(17) 0.67021(19) 0.25798(17)
H10_8 H 0.2786 0.6430 0.2361
C17_8 C 0.11585(16) 0.59259(17) 0.30745(17)
C18_8 C 0.25037(18) 0.67732(18) 0.29755(17)
C19_8 C 0.30207(19) 0.79470(19) 0.35422(17)
C20_8 C 0.30919(18) 0.93065(17) 0.43779(17)
C21_8 C 0.35053(19) 0.86024(18) 0.39293(18)
H11_8 H 0.3819 0.8739 0.4013
C22_8 C 0.25869(18) 0.81955(19) 0.36994(18)
H12_8 H 0.2271 0.8057 0.3627
C23_8 C 0.34802(19) 0.81558(18) 0.36569(19)
H13_8 H 0.3776 0.7997 0.3552
C24_8 C 0.26172(18) 0.86398(19) 0.39582(18)
H14_8 H 0.2323 0.8806 0.4056
C25_8 C 0.25798(17) 0.71669(17) 0.32979(19)
H15_8 H 0.2361 0.7214 0.3570
C26_8 C 0.30745(17) 0.88415(16) 0.40741(17)
C27_8 C 0.29755(17) 0.74963(18) 0.32268(18)
loop_
_geom_bond_atom_site_label_1
_geom_bond_atom_site_label_2
_geom_bond_site_symmetry_1
_geom_bond_site_symmetry_2
Cu10 Cu16 1_555 1_555
Cu1 Cu2 1_555 1_555
Cu2 O2 1_555 1_555
O1 Cu1 1_555 1_555
O2 C2 1_555 1_555
C1 C4 1_555 1_555
C2 O1 1_555 1_555
C3 H1 1_555 1_555
C4 H2 1_555 1_555
C5 C1 1_555 1_555
H3 C5 1_555 1_555
C6 C4 1_555 1_555
H4 C6 1_555 1_555
C7 H5 1_555 1_555
C8 C2 1_555 1_555
C9 C1 1_555 1_555
O3 Cu2 1_555 1_555
O4 Cu1 1_555 1_555
O5 C11 1_555 1_555
O6 C11 1_555 1_555
C10 C13 1_555 1_555
C11 C17 1_555 1_555
C12 H6 1_555 1_555
C13 H7 1_555 1_555
C14 C10 1_555 1_555
H8 C14 1_555 1_555
C15 C13 1_555 1_555
H9 C15 1_555 1_555
C16 C9 1_555 1_555
H10 C16 1_555 1_555
C17 C12 1_555 1_555
C18 C10 1_555 1_555
O7 C20 1_555 1_555
O8 C20 1_555 1_555
C19 C22 1_555 1_555
C20 C26 1_555 1_555
C21 H11 1_555 1_555
C22 H12 1_555 1_555
C23 C19 1_555 1_555
H13 C23 1_555 1_555
C24 C22 1_555 1_555
H14 C24 1_555 1_555
C25 C18 1_555 1_555
H15 C25 1_555 1_555
C26 C21 1_555 1_555
C27 C7 1_555 1_555
Cu3 O5 1_555 1_555
Cu4 O6 1_555 1_555
O9 Cu4 1_555 1_555
O10 Cu3 1_555 1_555
O25 Cu1 1_555 1_555
O26 Cu2 1_555 1_555
C82 C85 1_555 1_555
C83 O25 1_555 1_555
C84 H46 1_555 1_555
C85 H47 1_555 1_555
C86 C82 1_555 1_555
H48 C86 1_555 1_555
C87 C85 1_555 1_555
H49 C87 1_555 1_555
C88 H50 1_555 1_555
C89 C83 1_555 1_555
C90 C82 1_555 1_555
O27 C92 1_555 1_555
O28 C92 1_555 1_555
C91 C94 1_555 1_555
C92 C98 1_555 1_555
C93 H51 1_555 1_555
C94 H52 1_555 1_555
C95 C91 1_555 1_555
H53 C95 1_555 1_555
C96 C94 1_555 1_555
H54 C96 1_555 1_555
C97 C90 1_555 1_555
H55 C97 1_555 1_555
C98 C93 1_555 1_555
C99 C91 1_555 1_555
O29 C101 1_555 1_555
O30 C101 1_555 1_555
C100 C103 1_555 1_555
C101 C107 1_555 1_555
C102 H56 1_555 1_555
C103 H57 1_555 1_555
C104 C100 1_555 1_555
H58 C104 1_555 1_555
C105 C103 1_555 1_555
H59 C105 1_555 1_555
C106 C99 1_555 1_555
H60 C106 1_555 1_555
C107 C102 1_555 1_555
C108 C88 1_555 1_555
Cu10 O7 1_555 1_555
Cu10_2 O29 1_555 1_555
Cu12 O27 1_555 1_555
Cu16 O8 1_555 1_555
Cu16_2 O30 1_555 1_555
Cu18 O28 1_555 1_555
O36 Cu3 1_555 1_555
O42 Cu4 1_555 1_555
C3 C5 1_555 1_555
C3 C8 1_555 1_555
C6 C8 1_555 1_555
C7 C9 1_555 1_555
C12 C14 1_555 1_555
C15 C17 1_555 1_555
C16 C18 1_555 1_555
C19 C27 1_555 1_555
C21 C23 1_555 1_555
C24 C26 1_555 1_555
C25 C27 1_555 1_555
Cu3 Cu4 1_555 1_555
O26 C83 1_555 1_555
C84 C86 1_555 1_555
C84 C89 1_555 1_555
C87 C89 1_555 1_555
C88 C90 1_555 1_555
C93 C95 1_555 1_555
C96 C98 1_555 1_555
C97 C99 1_555 1_555
C100 C108 1_555 1_555
C102 C104 1_555 1_555
C105 C107 1_555 1_555
C106 C108 1_555 1_555
Cu10_2 Cu16_2 1_555 1_555
Cu12 Cu18 1_555 1_555
O9_2 Cu4_2 1_555 1_555
O10_2 Cu3_2 1_555 1_555
O11 C29 1_555 1_555
O12 C29 1_555 1_555
C28 C31 1_555 1_555
C29 C35 1_555 1_555
C30 H16 1_555 1_555
C31 H17 1_555 1_555
C32 C28 1_555 1_555
H18 C32 1_555 1_555
C33 C31 1_555 1_555
H19 C33 1_555 1_555
C34 H20 1_555 1_555
C35 C30 1_555 1_555
C36 C28 1_555 1_555
O13 C38 1_555 1_555
O14 C38 1_555 1_555
C37 C40 1_555 1_555
C38 C44 1_555 1_555
C39 H21 1_555 1_555
C40 H22 1_555 1_555
C41 C37 1_555 1_555
H23 C41 1_555 1_555
C42 C40 1_555 1_555
H24 C42 1_555 1_555
C43 C36 1_555 1_555
H25 C43 1_555 1_555
C44 C39 1_555 1_555
C45 C37 1_555 1_555
O15 Cu3_2 1_555 1_555
O16 Cu4_2 1_555 1_555
C46 C49 1_555 1_555
C47 O15 1_555 1_555
C48 H26 1_555 1_555
C49 H27 1_555 1_555
C50 C46 1_555 1_555
H28 C50 1_555 1_555
C51 C49 1_555 1_555
H29 C51 1_555 1_555
C52 C45 1_555 1_555
H30 C52 1_555 1_555
C53 C47 1_555 1_555
C54 C34 1_555 1_555
Cu5 O13 1_555 1_555
Cu6 O14 1_555 1_555
O23 Cu6 1_555 1_555
O24 Cu5 1_555 1_555
Cu10 O11 1_555 1_555
Cu16 O12 1_555 1_555
O31 Cu3_2 1_555 1_555
O34 Cu5 1_555 1_555
O37 Cu4_2 1_555 1_555
O40 Cu6 1_555 1_555
Cu3_2 Cu4_2 1_555 1_555
C30 C32 1_555 1_555
C33 C35 1_555 1_555
C34 C36 1_555 1_555
C39 C41 1_555 1_555
C42 C44 1_555 1_555
C43 C45 1_555 1_555
O16 C47 1_555 1_555
C46 C54 1_555 1_555
C48 C50 1_555 1_555
C48 C53 1_555 1_555
C51 C53 1_555 1_555
C52 C54 1_555 1_555
Cu5 Cu6 1_555 1_555
Cu12_2 Cu18_2 1_555 1_555
Cu1_2 Cu2_2 1_555 1_555
O3_2 Cu2_2 1_555 1_555
O4_2 Cu1_2 1_555 1_555
O17 C56 1_555 1_555
O18 C56 1_555 1_555
C55 C58 1_555 1_555
C56 C62 1_555 1_555
C57 H31 1_555 1_555
C58 H32 1_555 1_555
C59 C55 1_555 1_555
H33 C59 1_555 1_555
C60 C58 1_555 1_555
H34 C60 1_555 1_555
C61 H35 1_555 1_555
C62 C57 1_555 1_555
C63 C55 1_555 1_555
O19 Cu1_2 1_555 1_555
O20 Cu2_2 1_555 1_555
C64 C67 1_555 1_555
C65 O19 1_555 1_555
C66 H36 1_555 1_555
C67 H37 1_555 1_555
C68 C64 1_555 1_555
H38 C68 1_555 1_555
C69 C67 1_555 1_555
H39 C69 1_555 1_555
C70 C63 1_555 1_555
H40 C70 1_555 1_555
C71 C65 1_555 1_555
C72 C64 1_555 1_555
O36 C74 1_555 1_555
O42 C74 1_555 1_555
C73 C76 1_555 1_555
C74 C80 1_555 1_555
C75 H41 1_555 1_555
C76 H42 1_555 1_555
C77 C73 1_555 1_555
H43 C77 1_555 1_555
C78 C76 1_555 1_555
H44 C78 1_555 1_555
C79 C72 1_555 1_555
H45 C79 1_555 1_555
C80 C75 1_555 1_555
C81 C61 1_555 1_555
Cu11 O17 1_555 1_555
Cu17 O18 1_555 1_555
O32 Cu1_2 1_555 1_555
O38 Cu2_2 1_555 1_555
C57 C59 1_555 1_555
C60 C62 1_555 1_555
C61 C63 1_555 1_555
O20 C65 1_555 1_555
C66 C68 1_555 1_555
C66 C71 1_555 1_555
C69 C71 1_555 1_555
C70 C72 1_555 1_555
C73 C81 1_555 1_555
C75 C77 1_555 1_555
C78 C80 1_555 1_555
C79 C81 1_555 1_555
Cu11 Cu17 1_555 1_555
O23_2 Cu6_2 1_555 1_555
O24_2 Cu5_2 1_555 1_555
O33 Cu5_2 1_555 1_555
O35 Cu5_2 1_555 1_555
O39 Cu6_2 1_555 1_555
O41 Cu6_2 1_555 1_555
Cu5_2 Cu6_2 1_555 1_555
Cu11_2 Cu17_2 1_555 1_555
O9_3 Cu16 1_555 1_555
O10_3 Cu10 1_555 1_555
O9_4 Cu16_2 1_555 1_555
O10_4 Cu10_2 1_555 1_555
O23_3 Cu18 1_555 1_555
O24_3 Cu12 1_555 1_555
O31_2 Cu10_2 1_555 1_555
O34_2 Cu12 1_555 1_555
O37_2 Cu16_2 1_555 1_555
O40_2 Cu18 1_555 1_555
O23_4 Cu18_2 1_555 1_555
O24_4 Cu12_2 1_555 1_555
O33_2 Cu12_2 1_555 1_555
O35_2 Cu12_2 1_555 1_555
O39_2 Cu18_2 1_555 1_555
O41_2 Cu18_2 1_555 1_555
O23_5 Cu17 1_555 1_555
O24_5 Cu11 1_555 1_555
O34_3 Cu11 1_555 1_555
O40_3 Cu17 1_555 1_555
O23_6 Cu17_2 1_555 1_555
O24_6 Cu11_2 1_555 1_555
O33_3 Cu11_2 1_555 1_555
O35_3 Cu11_2 1_555 1_555
O39_3 Cu17_2 1_555 1_555
O41_3 Cu17_2 1_555 1_555
O39_3 C2_2 1_555 1_555
C1_2 C4_2 1_555 1_555
C2_2 O33_3 1_555 1_555
C3_2 H1_2 1_555 1_555
C4_2 H2_2 1_555 1_555
C5_2 C1_2 1_555 1_555
H3_2 C5_2 1_555 1_555
C6_2 C4_2 1_555 1_555
H4_2 C6_2 1_555 1_555
C7_2 H5_2 1_555 1_555
C8_2 C2_2 1_555 1_555
C9_2 C1_2 1_555 1_555
O32 C11_2 1_555 1_555
O38 C11_2 1_555 1_555
C10_2 C13_2 1_555 1_555
C11_2 C17_2 1_555 1_555
C12_2 H6_2 1_555 1_555
C13_2 H7_2 1_555 1_555
C14_2 C10_2 1_555 1_555
H8_2 C14_2 1_555 1_555
C15_2 C13_2 1_555 1_555
H9_2 C15_2 1_555 1_555
C16_2 C9_2 1_555 1_555
H10_2 C16_2 1_555 1_555
C17_2 C12_2 1_555 1_555
C18_2 C10_2 1_555 1_555
O34_2 C20_2 1_555 1_555
O40_2 C20_2 1_555 1_555
C19_2 C22_2 1_555 1_555
C20_2 C26_2 1_555 1_555
C21_2 H11_2 1_555 1_555
C22_2 H12_2 1_555 1_555
C23_2 C19_2 1_555 1_555
H13_2 C23_2 1_555 1_555
C24_2 C22_2 1_555 1_555
H14_2 C24_2 1_555 1_555
C25_2 C18_2 1_555 1_555
H15_2 C25_2 1_555 1_555
C26_2 C21_2 1_555 1_555
C27_2 C7_2 1_555 1_555
C82_2 C85_2 1_555 1_555
C83_2 O35_3 1_555 1_555
C84_2 H46_2 1_555 1_555
C85_2 H47_2 1_555 1_555
C86_2 C82_2 1_555 1_555
H48_2 C86_2 1_555 1_555
C87_2 C85_2 1_555 1_555
H49_2 C87_2 1_555 1_555
C88_2 H50_2 1_555 1_555
C89_2 C83_2 1_555 1_555
C90_2 C82_2 1_555 1_555
O35 C92_2 1_555 1_555
O41 C92_2 1_555 1_555
C91_2 C94_2 1_555 1_555
C92_2 C98_2 1_555 1_555
C93_2 H51_2 1_555 1_555
C94_2 H52_2 1_555 1_555
C95_2 C91_2 1_555 1_555
H53_2 C95_2 1_555 1_555
C96_2 C94_2 1_555 1_555
H54_2 C96_2 1_555 1_555
C97_2 C90_2 1_555 1_555
H55_2 C97_2 1_555 1_555
C98_2 C93_2 1_555 1_555
C99_2 C91_2 1_555 1_555
O35_2 C101_2 1_555 1_555
O41_2 C101_2 1_555 1_555
C100_2 C103_2 1_555 1_555
C101_2 C107_2 1_555 1_555
C102_2 H56_2 1_555 1_555
C103_2 H57_2 1_555 1_555
C104_2 C100_2 1_555 1_555
H58_2 C104_2 1_555 1_555
C105_2 C103_2 1_555 1_555
H59_2 C105_2 1_555 1_555
C106_2 C99_2 1_555 1_555
H60_2 C106_2 1_555 1_555
C107_2 C102_2 1_555 1_555
C108_2 C88_2 1_555 1_555
C3_2 C5_2 1_555 1_555
C3_2 C8_2 1_555 1_555
C6_2 C8_2 1_555 1_555
C7_2 C9_2 1_555 1_555
C12_2 C14_2 1_555 1_555
C15_2 C17_2 1_555 1_555
C16_2 C18_2 1_555 1_555
C19_2 C27_2 1_555 1_555
C21_2 C23_2 1_555 1_555
C24_2 C26_2 1_555 1_555
C25_2 C27_2 1_555 1_555
O41_3 C83_2 1_555 1_555
C84_2 C86_2 1_555 1_555
C84_2 C89_2 1_555 1_555
C87_2 C89_2 1_555 1_555
C88_2 C90_2 1_555 1_555
C93_2 C95_2 1_555 1_555
C96_2 C98_2 1_555 1_555
C97_2 C99_2 1_555 1_555
C100_2 C108_2 1_555 1_555
C102_2 C104_2 1_555 1_555
C105_2 C107_2 1_555 1_555
C106_2 C108_2 1_555 1_555
O37 C2_3 1_555 1_555
C1_3 C4_3 1_555 1_555
C2_3 O31 1_555 1_555
C3_3 H1_3 1_555 1_555
C4_3 H2_3 1_555 1_555
C5_3 C1_3 1_555 1_555
H3_3 C5_3 1_555 1_555
C6_3 C4_3 1_555 1_555
H4_3 C6_3 1_555 1_555
C7_3 H5_3 1_555 1_555
C8_3 C2_3 1_555 1_555
C9_3 C1_3 1_555 1_555
O34_3 C11_3 1_555 1_555
O40_3 C11_3 1_555 1_555
C10_3 C13_3 1_555 1_555
C11_3 C17_3 1_555 1_555
C12_3 H6_3 1_555 1_555
C13_3 H7_3 1_555 1_555
C14_3 C10_3 1_555 1_555
H8_3 C14_3 1_555 1_555
C15_3 C13_3 1_555 1_555
H9_3 C15_3 1_555 1_555
C16_3 C9_3 1_555 1_555
H10_3 C16_3 1_555 1_555
C17_3 C12_3 1_555 1_555
C18_3 C10_3 1_555 1_555
O33 C20_3 1_555 1_555
O39 C20_3 1_555 1_555
C19_3 C22_3 1_555 1_555
C20_3 C26_3 1_555 1_555
C21_3 H11_3 1_555 1_555
C22_3 H12_3 1_555 1_555
C23_3 C19_3 1_555 1_555
H13_3 C23_3 1_555 1_555
C24_3 C22_3 1_555 1_555
H14_3 C24_3 1_555 1_555
C25_3 C18_3 1_555 1_555
H15_3 C25_3 1_555 1_555
C26_3 C21_3 1_555 1_555
C27_3 C7_3 1_555 1_555
C3_3 C5_3 1_555 1_555
C3_3 C8_3 1_555 1_555
C6_3 C8_3 1_555 1_555
C7_3 C9_3 1_555 1_555
C12_3 C14_3 1_555 1_555
C15_3 C17_3 1_555 1_555
C16_3 C18_3 1_555 1_555
C19_3 C27_3 1_555 1_555
C21_3 C23_3 1_555 1_555
C24_3 C26_3 1_555 1_555
C25_3 C27_3 1_555 1_555
O37_2 C2_4 1_555 1_555
C1_4 C4_4 1_555 1_555
C2_4 O31_2 1_555 1_555
C3_4 H1_4 1_555 1_555
C4_4 H2_4 1_555 1_555
C5_4 C1_4 1_555 1_555
H3_4 C5_4 1_555 1_555
C6_4 C4_4 1_555 1_555
H4_4 C6_4 1_555 1_555
C7_4 H5_4 1_555 1_555
C8_4 C2_4 1_555 1_555
C9_4 C1_4 1_555 1_555
O34 C11_4 1_555 1_555
O40 C11_4 1_555 1_555
C10_4 C13_4 1_555 1_555
C11_4 C17_4 1_555 1_555
C12_4 H6_4 1_555 1_555
C13_4 H7_4 1_555 1_555
C14_4 C10_4 1_555 1_555
H8_4 C14_4 1_555 1_555
C15_4 C13_4 1_555 1_555
H9_4 C15_4 1_555 1_555
C16_4 C9_4 1_555 1_555
H10_4 C16_4 1_555 1_555
C17_4 C12_4 1_555 1_555
C18_4 C10_4 1_555 1_555
O33_2 C20_4 1_555 1_555
O39_2 C20_4 1_555 1_555
C19_4 C22_4 1_555 1_555
C20_4 C26_4 1_555 1_555
C21_4 H11_4 1_555 1_555
C22_4 H12_4 1_555 1_555
C23_4 C19_4 1_555 1_555
H13_4 C23_4 1_555 1_555
C24_4 C22_4 1_555 1_555
H14_4 C24_4 1_555 1_555
C25_4 C18_4 1_555 1_555
H15_4 C25_4 1_555 1_555
C26_4 C21_4 1_555 1_555
C27_4 C7_4 1_555 1_555
C3_4 C5_4 1_555 1_555
C3_4 C8_4 1_555 1_555
C6_4 C8_4 1_555 1_555
C7_4 C9_4 1_555 1_555
C12_4 C14_4 1_555 1_555
C15_4 C17_4 1_555 1_555
C16_4 C18_4 1_555 1_555
C19_4 C27_4 1_555 1_555
C21_4 C23_4 1_555 1_555
C24_4 C26_4 1_555 1_555
C25_4 C27_4 1_555 1_555
Cu12_3 Cu18_3 1_555 1_555
Cu10_3 Cu16_3 1_555 1_555
Cu1_3 Cu2_3 1_555 1_555
O3_3 Cu2_3 1_555 1_555
O4_3 Cu1_3 1_555 1_555
O23_7 Cu6_3 1_555 1_555
O24_7 Cu5_3 1_555 1_555
O25_2 Cu1_3 1_555 1_555
O26_2 Cu2_3 1_555 1_555
C82_3 C85_3 1_555 1_555
C83_3 O25_2 1_555 1_555
C84_3 H46_3 1_555 1_555
C85_3 H47_3 1_555 1_555
C86_3 C82_3 1_555 1_555
H48_3 C86_3 1_555 1_555
C87_3 C85_3 1_555 1_555
H49_3 C87_3 1_555 1_555
C88_3 H50_3 1_555 1_555
C89_3 C83_3 1_555 1_555
C90_3 C82_3 1_555 1_555
O27_2 C92_3 1_555 1_555
O28_2 C92_3 1_555 1_555
C91_3 C94_3 1_555 1_555
C92_3 C98_3 1_555 1_555
C93_3 H51_3 1_555 1_555
C94_3 H52_3 1_555 1_555
C95_3 C91_3 1_555 1_555
H53_3 C95_3 1_555 1_555
C96_3 C94_3 1_555 1_555
H54_3 C96_3 1_555 1_555
C97_3 C90_3 1_555 1_555
H55_3 C97_3 1_555 1_555
C98_3 C93_3 1_555 1_555
C99_3 C91_3 1_555 1_555
O29_2 C101_3 1_555 1_555
O30_2 C101_3 1_555 1_555
C100_3 C103_3 1_555 1_555
C101_3 C107_3 1_555 1_555
C102_3 H56_3 1_555 1_555
C103_3 H57_3 1_555 1_555
C104_3 C100_3 1_555 1_555
H58_3 C104_3 1_555 1_555
C105_3 C103_3 1_555 1_555
H59_3 C105_3 1_555 1_555
C106_3 C99_3 1_555 1_555
H60_3 C106_3 1_555 1_555
C107_3 C102_3 1_555 1_555
C108_3 C88_3 1_555 1_555
Cu10_4 O29_2 1_555 1_555
Cu12_4 O27_2 1_555 1_555
Cu16_4 O30_2 1_555 1_555
Cu18_4 O28_2 1_555 1_555
O32_2 Cu1_3 1_555 1_555
O34_4 Cu5_3 1_555 1_555
O35_4 Cu5_3 1_555 1_555
O38_2 Cu2_3 1_555 1_555
O40_4 Cu6_3 1_555 1_555
O41_4 Cu6_3 1_555 1_555
Cu5_3 Cu6_3 1_555 1_555
O26_2 C83_3 1_555 1_555
C84_3 C86_3 1_555 1_555
C84_3 C89_3 1_555 1_555
C87_3 C89_3 1_555 1_555
C88_3 C90_3 1_555 1_555
C93_3 C95_3 1_555 1_555
C96_3 C98_3 1_555 1_555
C97_3 C99_3 1_555 1_555
C100_3 C108_3 1_555 1_555
C102_3 C104_3 1_555 1_555
C105_3 C107_3 1_555 1_555
C106_3 C108_3 1_555 1_555
Cu10_4 Cu16_4 1_555 1_555
Cu12_4 Cu18_4 1_555 1_555
O9_5 Cu4_3 1_555 1_555
O10_5 Cu3_3 1_555 1_555
O31_3 Cu3_3 1_555 1_555
O36_2 Cu3_3 1_555 1_555
O37_3 Cu4_3 1_555 1_555
O42_2 Cu4_3 1_555 1_555
Cu3_3 Cu4_3 1_555 1_555
Cu11_3 Cu17_3 1_555 1_555
Cu1_4 Cu2_4 1_555 1_555
Cu2_4 O2_2 1_555 1_555
O1_2 Cu1_4 1_555 1_555
O2_2 C2_5 1_555 1_555
C1_5 C4_5 1_555 1_555
C2_5 O1_2 1_555 1_555
C3_5 H1_5 1_555 1_555
C4_5 H2_5 1_555 1_555
C5_5 C1_5 1_555 1_555
H3_5 C5_5 1_555 1_555
C6_5 C4_5 1_555 1_555
H4_5 C6_5 1_555 1_555
C7_5 H5_5 1_555 1_555
C8_5 C2_5 1_555 1_555
C9_5 C1_5 1_555 1_555
O3_4 Cu2_4 1_555 1_555
O4_4 Cu1_4 1_555 1_555
O5_2 C11_5 1_555 1_555
O6_2 C11_5 1_555 1_555
C10_5 C13_5 1_555 1_555
C11_5 C17_5 1_555 1_555
C12_5 H6_5 1_555 1_555
C13_5 H7_5 1_555 1_555
C14_5 C10_5 1_555 1_555
H8_5 C14_5 1_555 1_555
C15_5 C13_5 1_555 1_555
H9_5 C15_5 1_555 1_555
C16_5 C9_5 1_555 1_555
H10_5 C16_5 1_555 1_555
C17_5 C12_5 1_555 1_555
C18_5 C10_5 1_555 1_555
O7_2 C20_5 1_555 1_555
O8_2 C20_5 1_555 1_555
C19_5 C22_5 1_555 1_555
C20_5 C26_5 1_555 1_555
C21_5 H11_5 1_555 1_555
C22_5 H12_5 1_555 1_555
C23_5 C19_5 1_555 1_555
H13_5 C23_5 1_555 1_555
C24_5 C22_5 1_555 1_555
H14_5 C24_5 1_555 1_555
C25_5 C18_5 1_555 1_555
H15_5 C25_5 1_555 1_555
C26_5 C21_5 1_555 1_555
C27_5 C7_5 1_555 1_555
Cu3_4 O5_2 1_555 1_555
Cu4_4 O6_2 1_555 1_555
O9_6 Cu4_4 1_555 1_555
O10_6 Cu3_4 1_555 1_555
O11_2 C29_2 1_555 1_555
O12_2 C29_2 1_555 1_555
C28_2 C31_2 1_555 1_555
C29_2 C35_2 1_555 1_555
C30_2 H16_2 1_555 1_555
C31_2 H17_2 1_555 1_555
C32_2 C28_2 1_555 1_555
H18_2 C32_2 1_555 1_555
C33_2 C31_2 1_555 1_555
H19_2 C33_2 1_555 1_555
C34_2 H20_2 1_555 1_555
C35_2 C30_2 1_555 1_555
C36_2 C28_2 1_555 1_555
O13_2 C38_2 1_555 1_555
O14_2 C38_2 1_555 1_555
C37_2 C40_2 1_555 1_555
C38_2 C44_2 1_555 1_555
C39_2 H21_2 1_555 1_555
C40_2 H22_2 1_555 1_555
C41_2 C37_2 1_555 1_555
H23_2 C41_2 1_555 1_555
C42_2 C40_2 1_555 1_555
H24_2 C42_2 1_555 1_555
C43_2 C36_2 1_555 1_555
H25_2 C43_2 1_555 1_555
C44_2 C39_2 1_555 1_555
C45_2 C37_2 1_555 1_555
O15_2 Cu3_4 1_555 1_555
O16_2 Cu4_4 1_555 1_555
C46_2 C49_2 1_555 1_555
C47_2 O15_2 1_555 1_555
C48_2 H26_2 1_555 1_555
C49_2 H27_2 1_555 1_555
C50_2 C46_2 1_555 1_555
H28_2 C50_2 1_555 1_555
C51_2 C49_2 1_555 1_555
H29_2 C51_2 1_555 1_555
C52_2 C45_2 1_555 1_555
H30_2 C52_2 1_555 1_555
C53_2 C47_2 1_555 1_555
C54_2 C34_2 1_555 1_555
O17_2 C56_2 1_555 1_555
O18_2 C56_2 1_555 1_555
C55_2 C58_2 1_555 1_555
C56_2 C62_2 1_555 1_555
C57_2 H31_2 1_555 1_555
C58_2 H32_2 1_555 1_555
C59_2 C55_2 1_555 1_555
H33_2 C59_2 1_555 1_555
C60_2 C58_2 1_555 1_555
H34_2 C60_2 1_555 1_555
C61_2 H35_2 1_555 1_555
C62_2 C57_2 1_555 1_555
C63_2 C55_2 1_555 1_555
O19_2 Cu1_4 1_555 1_555
O20_2 Cu2_4 1_555 1_555
C64_2 C67_2 1_555 1_555
C65_2 O19_2 1_555 1_555
C66_2 H36_2 1_555 1_555
C67_2 H37_2 1_555 1_555
C68_2 C64_2 1_555 1_555
H38_2 C68_2 1_555 1_555
C69_2 C67_2 1_555 1_555
H39_2 C69_2 1_555 1_555
C70_2 C63_2 1_555 1_555
H40_2 C70_2 1_555 1_555
C71_2 C65_2 1_555 1_555
C72_2 C64_2 1_555 1_555
O36_2 C74_2 1_555 1_555
O42_2 C74_2 1_555 1_555
C73_2 C76_2 1_555 1_555
C74_2 C80_2 1_555 1_555
C75_2 H41_2 1_555 1_555
C76_2 H42_2 1_555 1_555
C77_2 C73_2 1_555 1_555
H43_2 C77_2 1_555 1_555
C78_2 C76_2 1_555 1_555
H44_2 C78_2 1_555 1_555
C79_2 C72_2 1_555 1_555
H45_2 C79_2 1_555 1_555
C80_2 C75_2 1_555 1_555
C81_2 C61_2 1_555 1_555
Cu5_4 O13_2 1_555 1_555
Cu6_4 O14_2 1_555 1_555
O23_8 Cu6_4 1_555 1_555
O24_8 Cu5_4 1_555 1_555
Cu10_3 O11_2 1_555 1_555
Cu10_4 O7_2 1_555 1_555
Cu11_4 O17_2 1_555 1_555
Cu16_3 O12_2 1_555 1_555
Cu16_4 O8_2 1_555 1_555
Cu17_4 O18_2 1_555 1_555
O33_4 Cu5_4 1_555 1_555
O39_4 Cu6_4 1_555 1_555
C3_5 C5_5 1_555 1_555
C3_5 C8_5 1_555 1_555
C6_5 C8_5 1_555 1_555
C7_5 C9_5 1_555 1_555
C12_5 C14_5 1_555 1_555
C15_5 C17_5 1_555 1_555
C16_5 C18_5 1_555 1_555
C19_5 C27_5 1_555 1_555
C21_5 C23_5 1_555 1_555
C24_5 C26_5 1_555 1_555
C25_5 C27_5 1_555 1_555
Cu3_4 Cu4_4 1_555 1_555
C30_2 C32_2 1_555 1_555
C33_2 C35_2 1_555 1_555
C34_2 C36_2 1_555 1_555
C39_2 C41_2 1_555 1_555
C42_2 C44_2 1_555 1_555
C43_2 C45_2 1_555 1_555
O16_2 C47_2 1_555 1_555
C46_2 C54_2 1_555 1_555
C48_2 C50_2 1_555 1_555
C48_2 C53_2 1_555 1_555
C51_2 C53_2 1_555 1_555
C52_2 C54_2 1_555 1_555
C57_2 C59_2 1_555 1_555
C60_2 C62_2 1_555 1_555
C61_2 C63_2 1_555 1_555
O20_2 C65_2 1_555 1_555
C66_2 C68_2 1_555 1_555
C66_2 C71_2 1_555 1_555
C69_2 C71_2 1_555 1_555
C70_2 C72_2 1_555 1_555
C73_2 C81_2 1_555 1_555
C75_2 C77_2 1_555 1_555
C78_2 C80_2 1_555 1_555
C79_2 C81_2 1_555 1_555
Cu5_4 Cu6_4 1_555 1_555
Cu11_4 Cu17_4 1_555 1_555
O23_9 Cu18_3 1_555 1_555
O24_9 Cu12_3 1_555 1_555
O34_5 Cu12_3 1_555 1_555
O35_5 Cu12_3 1_555 1_555
O40_5 Cu18_3 1_555 1_555
O41_5 Cu18_3 1_555 1_555
O9_7 Cu16_3 1_555 1_555
O10_7 Cu10_3 1_555 1_555
O31_4 Cu10_3 1_555 1_555
O37_4 Cu16_3 1_555 1_555
O9_8 Cu16_4 1_555 1_555
O10_8 Cu10_4 1_555 1_555
O23_10 Cu18_4 1_555 1_555
O24_10 Cu12_4 1_555 1_555
O33_5 Cu12_4 1_555 1_555
O39_5 Cu18_4 1_555 1_555
O23_11 Cu17_3 1_555 1_555
O24_11 Cu11_3 1_555 1_555
O34_6 Cu11_3 1_555 1_555
O35_6 Cu11_3 1_555 1_555
O40_6 Cu17_3 1_555 1_555
O41_6 Cu17_3 1_555 1_555
O23_12 Cu17_4 1_555 1_555
O24_12 Cu11_4 1_555 1_555
O33_6 Cu11_4 1_555 1_555
O39_6 Cu17_4 1_555 1_555
C82_4 C85_4 1_555 1_555
C83_4 O35_6 1_555 1_555
C84_4 H46_4 1_555 1_555
C85_4 H47_4 1_555 1_555
C86_4 C82_4 1_555 1_555
H48_4 C86_4 1_555 1_555
C87_4 C85_4 1_555 1_555
H49_4 C87_4 1_555 1_555
C88_4 H50_4 1_555 1_555
C89_4 C83_4 1_555 1_555
C90_4 C82_4 1_555 1_555
O35_4 C92_4 1_555 1_555
O41_4 C92_4 1_555 1_555
C91_4 C94_4 1_555 1_555
C92_4 C98_4 1_555 1_555
C93_4 H51_4 1_555 1_555
C94_4 H52_4 1_555 1_555
C95_4 C91_4 1_555 1_555
H53_4 C95_4 1_555 1_555
C96_4 C94_4 1_555 1_555
H54_4 C96_4 1_555 1_555
C97_4 C90_4 1_555 1_555
H55_4 C97_4 1_555 1_555
C98_4 C93_4 1_555 1_555
C99_4 C91_4 1_555 1_555
O35_5 C101_4 1_555 1_555
O41_5 C101_4 1_555 1_555
C100_4 C103_4 1_555 1_555
C101_4 C107_4 1_555 1_555
C102_4 H56_4 1_555 1_555
C103_4 H57_4 1_555 1_555
C104_4 C100_4 1_555 1_555
H58_4 C104_4 1_555 1_555
C105_4 C103_4 1_555 1_555
H59_4 C105_4 1_555 1_555
C106_4 C99_4 1_555 1_555
H60_4 C106_4 1_555 1_555
C107_4 C102_4 1_555 1_555
C108_4 C88_4 1_555 1_555
O41_6 C83_4 1_555 1_555
C84_4 C86_4 1_555 1_555
C84_4 C89_4 1_555 1_555
C87_4 C89_4 1_555 1_555
C88_4 C90_4 1_555 1_555
C93_4 C95_4 1_555 1_555
C96_4 C98_4 1_555 1_555
C97_4 C99_4 1_555 1_555
C100_4 C108_4 1_555 1_555
C102_4 C104_4 1_555 1_555
C105_4 C107_4 1_555 1_555
C106_4 C108_4 1_555 1_555
O39_6 C2_6 1_555 1_555
C1_6 C4_6 1_555 1_555
C2_6 O33_6 1_555 1_555
C3_6 H1_6 1_555 1_555
C4_6 H2_6 1_555 1_555
C5_6 C1_6 1_555 1_555
H3_6 C5_6 1_555 1_555
C6_6 C4_6 1_555 1_555
H4_6 C6_6 1_555 1_555
C7_6 H5_6 1_555 1_555
C8_6 C2_6 1_555 1_555
C9_6 C1_6 1_555 1_555
O32_2 C11_6 1_555 1_555
O38_2 C11_6 1_555 1_555
C10_6 C13_6 1_555 1_555
C11_6 C17_6 1_555 1_555
C12_6 H6_6 1_555 1_555
C13_6 H7_6 1_555 1_555
C14_6 C10_6 1_555 1_555
H8_6 C14_6 1_555 1_555
C15_6 C13_6 1_555 1_555
H9_6 C15_6 1_555 1_555
C16_6 C9_6 1_555 1_555
H10_6 C16_6 1_555 1_555
C17_6 C12_6 1_555 1_555
C18_6 C10_6 1_555 1_555
O34_5 C20_6 1_555 1_555
O40_5 C20_6 1_555 1_555
C19_6 C22_6 1_555 1_555
C20_6 C26_6 1_555 1_555
C21_6 H11_6 1_555 1_555
C22_6 H12_6 1_555 1_555
C23_6 C19_6 1_555 1_555
H13_6 C23_6 1_555 1_555
C24_6 C22_6 1_555 1_555
H14_6 C24_6 1_555 1_555
C25_6 C18_6 1_555 1_555
H15_6 C25_6 1_555 1_555
C26_6 C21_6 1_555 1_555
C27_6 C7_6 1_555 1_555
C3_6 C5_6 1_555 1_555
C3_6 C8_6 1_555 1_555
C6_6 C8_6 1_555 1_555
C7_6 C9_6 1_555 1_555
C12_6 C14_6 1_555 1_555
C15_6 C17_6 1_555 1_555
C16_6 C18_6 1_555 1_555
C19_6 C27_6 1_555 1_555
C21_6 C23_6 1_555 1_555
C24_6 C26_6 1_555 1_555
C25_6 C27_6 1_555 1_555
O37_3 C2_7 1_555 1_555
C1_7 C4_7 1_555 1_555
C2_7 O31_3 1_555 1_555
C3_7 H1_7 1_555 1_555
C4_7 H2_7 1_555 1_555
C5_7 C1_7 1_555 1_555
H3_7 C5_7 1_555 1_555
C6_7 C4_7 1_555 1_555
H4_7 C6_7 1_555 1_555
C7_7 H5_7 1_555 1_555
C8_7 C2_7 1_555 1_555
C9_7 C1_7 1_555 1_555
O34_6 C11_7 1_555 1_555
O40_6 C11_7 1_555 1_555
C10_7 C13_7 1_555 1_555
C11_7 C17_7 1_555 1_555
C12_7 H6_7 1_555 1_555
C13_7 H7_7 1_555 1_555
C14_7 C10_7 1_555 1_555
H8_7 C14_7 1_555 1_555
C15_7 C13_7 1_555 1_555
H9_7 C15_7 1_555 1_555
C16_7 C9_7 1_555 1_555
H10_7 C16_7 1_555 1_555
C17_7 C12_7 1_555 1_555
C18_7 C10_7 1_555 1_555
O33_4 C20_7 1_555 1_555
O39_4 C20_7 1_555 1_555
C19_7 C22_7 1_555 1_555
C20_7 C26_7 1_555 1_555
C21_7 H11_7 1_555 1_555
C22_7 H12_7 1_555 1_555
C23_7 C19_7 1_555 1_555
H13_7 C23_7 1_555 1_555
C24_7 C22_7 1_555 1_555
H14_7 C24_7 1_555 1_555
C25_7 C18_7 1_555 1_555
H15_7 C25_7 1_555 1_555
C26_7 C21_7 1_555 1_555
C27_7 C7_7 1_555 1_555
C3_7 C5_7 1_555 1_555
C3_7 C8_7 1_555 1_555
C6_7 C8_7 1_555 1_555
C7_7 C9_7 1_555 1_555
C12_7 C14_7 1_555 1_555
C15_7 C17_7 1_555 1_555
C16_7 C18_7 1_555 1_555
C19_7 C27_7 1_555 1_555
C21_7 C23_7 1_555 1_555
C24_7 C26_7 1_555 1_555
C25_7 C27_7 1_555 1_555
O37_4 C2_8 1_555 1_555
C1_8 C4_8 1_555 1_555
C2_8 O31_4 1_555 1_555
C3_8 H1_8 1_555 1_555
C4_8 H2_8 1_555 1_555
C5_8 C1_8 1_555 1_555
H3_8 C5_8 1_555 1_555
C6_8 C4_8 1_555 1_555
H4_8 C6_8 1_555 1_555
C7_8 H5_8 1_555 1_555
C8_8 C2_8 1_555 1_555
C9_8 C1_8 1_555 1_555
O34_4 C11_8 1_555 1_555
O40_4 C11_8 1_555 1_555
C10_8 C13_8 1_555 1_555
C11_8 C17_8 1_555 1_555
C12_8 H6_8 1_555 1_555
C13_8 H7_8 1_555 1_555
C14_8 C10_8 1_555 1_555
H8_8 C14_8 1_555 1_555
C15_8 C13_8 1_555 1_555
H9_8 C15_8 1_555 1_555
C16_8 C9_8 1_555 1_555
H10_8 C16_8 1_555 1_555
C17_8 C12_8 1_555 1_555
C18_8 C10_8 1_555 1_555
O33_5 C20_8 1_555 1_555
O39_5 C20_8 1_555 1_555
C19_8 C22_8 1_555 1_555
C20_8 C26_8 1_555 1_555
C21_8 H11_8 1_555 1_555
C22_8 H12_8 1_555 1_555
C23_8 C19_8 1_555 1_555
H13_8 C23_8 1_555 1_555
C24_8 C22_8 1_555 1_555
H14_8 C24_8 1_555 1_555
C25_8 C18_8 1_555 1_555
H15_8 C25_8 1_555 1_555
C26_8 C21_8 1_555 1_555
C27_8 C7_8 1_555 1_555
C3_8 C5_8 1_555 1_555
C3_8 C8_8 1_555 1_555
C6_8 C8_8 1_555 1_555
C7_8 C9_8 1_555 1_555
C12_8 C14_8 1_555 1_555
C15_8 C17_8 1_555 1_555
C16_8 C18_8 1_555 1_555
C19_8 C27_8 1_555 1_555
C21_8 C23_8 1_555 1_555
C24_8 C26_8 1_555 1_555
C25_8 C27_8 1_555 1_555

#END
