
###############################################################################
#
# This file contains modified crystal structure data generated from the
# MOF subset of the Cambridge Structural Database (CSD) v543 
# hosted by the Cambridge Crystallographic Data Centre (CCDC).
#
# This work is licensed under the Creative Commons
# Attribution-NonCommercial-ShareAlike 4.0 International License.
# To view a copy of this license, visit
# http://creativecommons.org/licenses/by-nc-sa/4.0/
# or send a letter to
# Creative Commons, PO Box 1866, Mountain View, CA 94042, USA.
#
# CIF created using the CSD Python API on 29 September 2022
# The structure has been converted into the P1 space group
# The structure has a 3D framework
# The original CSD entry QOXNEX is in the cubic crystal system
# The framework has been calculated to contain at least 10.0% void space
# The void calculation uses a probe of radius 1.32A, grid spacing 0.4
# H atom positions have been added when not included in the experimental data
# Generated hydrogen atom positions removed from atoms on special positions
#
###############################################################################

data_QOXNEX
_chemical_formula_moiety         '(C72 H104 Cu16 N96 O88 S8)n'
_symmetry_cell_setting           triclinic
_symmetry_space_group_name_H-M   'P 1'
_symmetry_Int_Tables_number      1
_space_group_name_Hall           'P 1'
loop_
_symmetry_equiv_pos_site_id
_symmetry_equiv_pos_as_xyz
1 x,y,z
_cell_length_a                   17.9174(12)
_cell_length_b                   17.9174(12)
_cell_length_c                   17.9174(12)
_cell_angle_alpha                90
_cell_angle_beta                 90
_cell_angle_gamma                90
_cell_volume                     5752.08
loop_
_atom_site_label
_atom_site_type_symbol
_atom_site_fract_x
_atom_site_fract_y
_atom_site_fract_z
Cu1 Cu 0.27407(3) 0.23221(3) 0.12756(3)
S1 S 0.28856(6) 0.28856(6) 0.28856(6)
O1 O 0.2816(3) 0.0778(3) 0.0422(3)
O2 O 0.22620(19) 0.1867(2) 0.0422(2)
O3 O 0.19413(16) 0.19413(16) 0.19413(16)
O4 O 0.31804(18) 0.28862(19) 0.21105(18)
O5 O 0.33517(17) 0.33517(17) 0.33517(17)
C1 C 0.2352(3) 0.1224(3) 0.0203(3)
Cu3 Cu 0.12756(3) 0.27407(3) 0.23221(3)
Cu4 Cu 0.23221(3) 0.12756(3) 0.27407(3)
O10 O 0.0422(2) 0.22620(19) 0.1867(2)
O12 O 0.21105(18) 0.31804(18) 0.28862(19)
O13 O 0.28862(19) 0.21105(18) 0.31804(18)
N5 N 0.3571(2) 0.2682(2) 0.0618(2)
N7 N 0.0618(2) 0.3571(2) 0.2682(2)
N8 N 0.4191(3) 0.3041(3) 0.0882(3)
N10 N 0.4604(3) 0.3252(3) 0.0335(3)
O1_2 O 0.0422(3) 0.2816(3) 0.0778(3)
C1_2 C 0.0203(3) 0.2352(3) 0.1224(3)
O10_2 O 0.1867(2) 0.0422(2) 0.22620(19)
N7_2 N 0.2682(2) 0.0618(2) 0.3571(2)
N8_2 N 0.0882(3) 0.4191(3) 0.3041(3)
N10_2 N 0.0335(3) 0.4604(3) 0.3252(3)
O1_3 O 0.0778(3) 0.0422(3) 0.2816(3)
C1_3 C 0.1224(3) 0.0203(3) 0.2352(3)
N8_3 N 0.3041(3) 0.0882(3) 0.4191(3)
N10_3 N 0.3252(3) 0.0335(3) 0.4604(3)
N4 N 0.1970(2) 0.0295(2) 0.9255(2)
C2 C 0.1805(3) 0.1029(3) 0.9560(3)
H2 H 0.1297 0.1038 0.9746
H3 H 0.1847 0.1401 0.9169
C3 C 0.2313(3) 0.0109(3) 0.8631(3)
H4 H 0.2518 0.0441 0.8289
Cu2 Cu 0.62756(3) 0.22593(3) 0.76779(3)
O6 O 0.5422(3) 0.2184(3) 0.9222(3)
O8 O 0.5422(2) 0.27380(19) 0.8133(2)
O11 O 0.69413(16) 0.30587(16) 0.80587(16)
O14 O 0.71105(18) 0.18196(18) 0.71138(19)
N6 N 0.5618(2) 0.1429(2) 0.7318(2)
N9 N 0.5882(3) 0.0809(3) 0.6959(3)
N11 N 0.5335(3) 0.0396(3) 0.6748(3)
N12 N 0.4255(2) 0.3030(2) 0.9705(2)
N13 N 0.4705(2) 0.0745(2) 0.6970(2)
C4 C 0.5203(3) 0.2648(3) 0.8776(3)
C6 C 0.4560(3) 0.3195(3) 0.8971(3)
C7 C 0.3971(3) 0.0440(3) 0.6805(3)
H6 H 0.4746 0.3703 0.8962
H7 H 0.3962 0.0254 0.6297
H8 H 0.4169 0.3153 0.8599
H9 H 0.3599 0.0831 0.6847
C8 C 0.3631(3) 0.2687(3) 0.9891(3)
C9 C 0.4891(3) 0.1369(3) 0.7313(3)
H10 H 0.3289 0.2482 0.9559
H11 H 0.4559 0.1711 0.7518
N1 N 0.2318(2) 0.9382(2) 0.8571(2)
N2 N 0.1959(3) 0.9118(3) 0.9191(3)
N3 N 0.1748(3) 0.9665(3) 0.9604(3)
Cu5 Cu 0.26779(3) 0.87244(3) 0.77407(3)
O7 O 0.4222(3) 0.9578(3) 0.7816(3)
O9 O 0.3133(2) 0.9578(2) 0.72620(19)
C5 C 0.3776(3) 0.9797(3) 0.7352(3)
N4_2 N 0.9255(2) 0.1970(2) 0.0295(2)
C2_2 C 0.9560(3) 0.1805(3) 0.1029(3)
H2_2 H 0.9746 0.1297 0.1038
H3_2 H 0.9169 0.1847 0.1401
C3_2 C 0.8631(3) 0.2313(3) 0.0109(3)
H4_2 H 0.8289 0.2518 0.0441
Cu2_2 Cu 0.76779(3) 0.62756(3) 0.22593(3)
O6_2 O 0.9222(3) 0.5422(3) 0.2184(3)
O8_2 O 0.8133(2) 0.5422(2) 0.27380(19)
O11_2 O 0.80587(16) 0.69413(16) 0.30587(16)
O14_2 O 0.71138(19) 0.71105(18) 0.18196(18)
N6_2 N 0.7318(2) 0.5618(2) 0.1429(2)
N9_2 N 0.6959(3) 0.5882(3) 0.0809(3)
N11_2 N 0.6748(3) 0.5335(3) 0.0396(3)
N12_2 N 0.9705(2) 0.4255(2) 0.3030(2)
N13_2 N 0.6970(2) 0.4705(2) 0.0745(2)
C4_2 C 0.8776(3) 0.5203(3) 0.2648(3)
C6_2 C 0.8971(3) 0.4560(3) 0.3195(3)
C7_2 C 0.6805(3) 0.3971(3) 0.0440(3)
H6_2 H 0.8962 0.4746 0.3703
H7_2 H 0.6297 0.3962 0.0254
H8_2 H 0.8599 0.4169 0.3153
H9_2 H 0.6847 0.3599 0.0831
C8_2 C 0.9891(3) 0.3631(3) 0.2687(3)
C9_2 C 0.7313(3) 0.4891(3) 0.1369(3)
H10_2 H 0.9559 0.3289 0.2482
H11_2 H 0.7518 0.4559 0.1711
N1_2 N 0.8571(2) 0.2318(2) 0.9382(2)
N2_2 N 0.9191(3) 0.1959(3) 0.9118(3)
N3_2 N 0.9604(3) 0.1748(3) 0.9665(3)
Cu5_2 Cu 0.77407(3) 0.26779(3) 0.87244(3)
O7_2 O 0.7816(3) 0.4222(3) 0.9578(3)
O9_2 O 0.72620(19) 0.3133(2) 0.9578(2)
C5_2 C 0.7352(3) 0.3776(3) 0.9797(3)
N4_3 N 0.0295(2) 0.9255(2) 0.1970(2)
C2_3 C 0.1029(3) 0.9560(3) 0.1805(3)
H2_3 H 0.1038 0.9746 0.1297
H3_3 H 0.1401 0.9169 0.1847
C3_3 C 0.0109(3) 0.8631(3) 0.2313(3)
H4_3 H 0.0441 0.8289 0.2518
Cu2_3 Cu 0.22593(3) 0.76779(3) 0.62756(3)
O6_3 O 0.2184(3) 0.9222(3) 0.5422(3)
O8_3 O 0.27380(19) 0.8133(2) 0.5422(2)
O11_3 O 0.30587(16) 0.80587(16) 0.69413(16)
O14_3 O 0.18196(18) 0.71138(19) 0.71105(18)
N6_3 N 0.1429(2) 0.7318(2) 0.5618(2)
N9_3 N 0.0809(3) 0.6959(3) 0.5882(3)
N11_3 N 0.0396(3) 0.6748(3) 0.5335(3)
N12_3 N 0.3030(2) 0.9705(2) 0.4255(2)
N13_3 N 0.0745(2) 0.6970(2) 0.4705(2)
C4_3 C 0.2648(3) 0.8776(3) 0.5203(3)
C6_3 C 0.3195(3) 0.8971(3) 0.4560(3)
C7_3 C 0.0440(3) 0.6805(3) 0.3971(3)
H6_3 H 0.3703 0.8962 0.4746
H7_3 H 0.0254 0.6297 0.3962
H8_3 H 0.3153 0.8599 0.4169
H9_3 H 0.0831 0.6847 0.3599
C8_3 C 0.2687(3) 0.9891(3) 0.3631(3)
C9_3 C 0.1369(3) 0.7313(3) 0.4891(3)
H10_3 H 0.2482 0.9559 0.3289
H11_3 H 0.1711 0.7518 0.4559
N1_3 N 0.9382(2) 0.8571(2) 0.2318(2)
N2_3 N 0.9118(3) 0.9191(3) 0.1959(3)
N3_3 N 0.9665(3) 0.9604(3) 0.1748(3)
Cu5_3 Cu 0.87244(3) 0.77407(3) 0.26779(3)
O7_3 O 0.9578(3) 0.7816(3) 0.4222(3)
O9_3 O 0.9578(2) 0.72620(19) 0.3133(2)
C5_3 C 0.9797(3) 0.7352(3) 0.3776(3)
S1_2 S 0.21144(6) 0.71144(6) 0.78856(6)
O5_2 O 0.16483(17) 0.66483(17) 0.83517(17)
Cu3_2 Cu 0.37244(3) 0.72593(3) 0.73221(3)
O10_3 O 0.4578(2) 0.77380(19) 0.6867(2)
O12_2 O 0.28895(18) 0.68196(18) 0.78862(19)
O13_2 O 0.21138(19) 0.78895(18) 0.81804(18)
N7_3 N 0.4382(2) 0.6429(2) 0.7682(2)
O14_4 O 0.78895(18) 0.81804(18) 0.21138(19)
Cu1_2 Cu 0.72593(3) 0.73221(3) 0.37244(3)
S1_3 S 0.71144(6) 0.78856(6) 0.21144(6)
O1_4 O 0.7184(3) 0.5778(3) 0.4578(3)
O2_2 O 0.77380(19) 0.6867(2) 0.4578(2)
O4_2 O 0.68196(18) 0.78862(19) 0.28895(18)
O5_3 O 0.66483(17) 0.83517(17) 0.16483(17)
N1_4 N 0.7682(2) 0.4382(2) 0.6429(2)
N2_4 N 0.8041(3) 0.4118(3) 0.5809(3)
N3_4 N 0.8252(3) 0.4665(3) 0.5396(3)
N4_4 N 0.8030(2) 0.5295(2) 0.5745(2)
C1_4 C 0.7648(3) 0.6224(3) 0.4797(3)
C2_4 C 0.8195(3) 0.6029(3) 0.5440(3)
H2_4 H 0.8703 0.6038 0.5254
H3_4 H 0.8153 0.6401 0.5831
C3_4 C 0.7687(3) 0.5109(3) 0.6369(3)
H4_4 H 0.7482 0.5441 0.6711
Cu5_4 Cu 0.73221(3) 0.37244(3) 0.72593(3)
O6_4 O 0.4578(3) 0.7184(3) 0.5778(3)
O7_4 O 0.5778(3) 0.4578(3) 0.7184(3)
O9_4 O 0.6867(2) 0.4578(2) 0.77380(19)
N5_2 N 0.6429(2) 0.7682(2) 0.4382(2)
N8_4 N 0.5809(3) 0.8041(3) 0.4118(3)
N9_4 N 0.4118(3) 0.5809(3) 0.8041(3)
N10_4 N 0.5396(3) 0.8252(3) 0.4665(3)
N11_4 N 0.4665(3) 0.5396(3) 0.8252(3)
N12_4 N 0.5745(2) 0.8030(2) 0.5295(2)
N13_4 N 0.5295(2) 0.5745(2) 0.8030(2)
C4_4 C 0.4797(3) 0.7648(3) 0.6224(3)
C5_4 C 0.6224(3) 0.4797(3) 0.7648(3)
C6_4 C 0.5440(3) 0.8195(3) 0.6029(3)
C7_4 C 0.6029(3) 0.5440(3) 0.8195(3)
H6_4 H 0.5254 0.8703 0.6038
H7_4 H 0.6038 0.5254 0.8703
H8_4 H 0.5831 0.8153 0.6401
H9_4 H 0.6401 0.5831 0.8153
C8_4 C 0.6369(3) 0.7687(3) 0.5109(3)
C9_4 C 0.5109(3) 0.6369(3) 0.7687(3)
H10_4 H 0.6711 0.7482 0.5441
H11_4 H 0.5441 0.6711 0.7482
S1_4 S 0.78856(6) 0.21144(6) 0.71144(6)
O4_3 O 0.81804(18) 0.21138(19) 0.78895(18)
O5_4 O 0.83517(17) 0.16483(17) 0.66483(17)
O13_3 O 0.78862(19) 0.28895(18) 0.68196(18)
N1_5 N 0.7682(2) 0.0618(2) 0.1429(2)
N2_5 N 0.8041(3) 0.0882(3) 0.0809(3)
N3_5 N 0.8252(3) 0.0335(3) 0.0396(3)
Cu5_5 Cu 0.73221(3) 0.12756(3) 0.22593(3)
O7_5 O 0.5778(3) 0.0422(3) 0.2184(3)
O9_5 O 0.6867(2) 0.0422(2) 0.27380(19)
C5_5 C 0.6224(3) 0.0203(3) 0.2648(3)
N4_5 N 0.8030(2) 0.9705(2) 0.0745(2)
C2_5 C 0.8195(3) 0.8971(3) 0.0440(3)
H2_5 H 0.8703 0.8962 0.0254
H3_5 H 0.8153 0.8599 0.0831
C3_5 C 0.7687(3) 0.9891(3) 0.1369(3)
H4_5 H 0.7482 0.9559 0.1711
Cu2_4 Cu 0.37244(3) 0.77407(3) 0.23221(3)
O6_5 O 0.4578(3) 0.7816(3) 0.0778(3)
O8_4 O 0.4578(2) 0.72620(19) 0.1867(2)
O11_4 O 0.30587(16) 0.69413(16) 0.19413(16)
O14_5 O 0.28895(18) 0.81804(18) 0.28862(19)
N6_4 N 0.4382(2) 0.8571(2) 0.2682(2)
N9_5 N 0.4118(3) 0.9191(3) 0.3041(3)
N11_5 N 0.4665(3) 0.9604(3) 0.3252(3)
N12_5 N 0.5745(2) 0.6970(2) 0.0295(2)
N13_5 N 0.5295(2) 0.9255(2) 0.3030(2)
C4_5 C 0.4797(3) 0.7352(3) 0.1224(3)
C6_5 C 0.5440(3) 0.6805(3) 0.1029(3)
C7_5 C 0.6029(3) 0.9560(3) 0.3195(3)
H6_5 H 0.5254 0.6297 0.1038
H7_5 H 0.6038 0.9746 0.3703
H8_5 H 0.5831 0.6847 0.1401
H9_5 H 0.6401 0.9169 0.3153
C8_5 C 0.6369(3) 0.7313(3) 0.0109(3)
C9_5 C 0.5109(3) 0.8631(3) 0.2687(3)
H10_5 H 0.6711 0.7518 0.0441
H11_5 H 0.5441 0.8289 0.2482
N1_6 N 0.1429(2) 0.7682(2) 0.0618(2)
N2_6 N 0.0809(3) 0.8041(3) 0.0882(3)
N3_6 N 0.0396(3) 0.8252(3) 0.0335(3)
Cu5_6 Cu 0.22593(3) 0.73221(3) 0.12756(3)
O7_6 O 0.2184(3) 0.5778(3) 0.0422(3)
O9_6 O 0.27380(19) 0.6867(2) 0.0422(2)
C5_6 C 0.2648(3) 0.6224(3) 0.0203(3)
N4_6 N 0.0745(2) 0.8030(2) 0.9705(2)
C2_6 C 0.0440(3) 0.8195(3) 0.8971(3)
H2_6 H 0.0254 0.8703 0.8962
H3_6 H 0.0831 0.8153 0.8599
C3_6 C 0.1369(3) 0.7687(3) 0.9891(3)
H4_6 H 0.1711 0.7482 0.9559
Cu2_5 Cu 0.23221(3) 0.37244(3) 0.77407(3)
O6_6 O 0.0778(3) 0.4578(3) 0.7816(3)
O8_5 O 0.1867(2) 0.4578(2) 0.72620(19)
O11_5 O 0.19413(16) 0.30587(16) 0.69413(16)
O14_6 O 0.28862(19) 0.28895(18) 0.81804(18)
N6_5 N 0.2682(2) 0.4382(2) 0.8571(2)
N9_6 N 0.3041(3) 0.4118(3) 0.9191(3)
N11_6 N 0.3252(3) 0.4665(3) 0.9604(3)
N12_6 N 0.0295(2) 0.5745(2) 0.6970(2)
N13_6 N 0.3030(2) 0.5295(2) 0.9255(2)
C4_6 C 0.1224(3) 0.4797(3) 0.7352(3)
C6_6 C 0.1029(3) 0.5440(3) 0.6805(3)
C7_6 C 0.3195(3) 0.6029(3) 0.9560(3)
H6_6 H 0.1038 0.5254 0.6297
H7_6 H 0.3703 0.6038 0.9746
H8_6 H 0.1401 0.5831 0.6847
H9_6 H 0.3153 0.6401 0.9169
C8_6 C 0.0109(3) 0.6369(3) 0.7313(3)
C9_6 C 0.2687(3) 0.5109(3) 0.8631(3)
H10_6 H 0.0441 0.6711 0.7518
H11_6 H 0.2482 0.5441 0.8289
N1_7 N 0.0618(2) 0.1429(2) 0.7682(2)
N2_7 N 0.0882(3) 0.0809(3) 0.8041(3)
N3_7 N 0.0335(3) 0.0396(3) 0.8252(3)
Cu5_7 Cu 0.12756(3) 0.22593(3) 0.73221(3)
O7_7 O 0.0422(3) 0.2184(3) 0.5778(3)
O9_7 O 0.0422(2) 0.27380(19) 0.6867(2)
C5_7 C 0.0203(3) 0.2648(3) 0.6224(3)
N4_7 N 0.9705(2) 0.0745(2) 0.8030(2)
C2_7 C 0.8971(3) 0.0440(3) 0.8195(3)
H2_7 H 0.8962 0.0254 0.8703
H3_7 H 0.8599 0.0831 0.8153
C3_7 C 0.9891(3) 0.1369(3) 0.7687(3)
H4_7 H 0.9559 0.1711 0.7482
Cu2_6 Cu 0.77407(3) 0.23221(3) 0.37244(3)
O6_7 O 0.7816(3) 0.0778(3) 0.4578(3)
O8_6 O 0.72620(19) 0.1867(2) 0.4578(2)
O11_6 O 0.69413(16) 0.19413(16) 0.30587(16)
O14_7 O 0.81804(18) 0.28862(19) 0.28895(18)
N6_6 N 0.8571(2) 0.2682(2) 0.4382(2)
N9_7 N 0.9191(3) 0.3041(3) 0.4118(3)
N11_7 N 0.9604(3) 0.3252(3) 0.4665(3)
N12_7 N 0.6970(2) 0.0295(2) 0.5745(2)
N13_7 N 0.9255(2) 0.3030(2) 0.5295(2)
C4_7 C 0.7352(3) 0.1224(3) 0.4797(3)
C6_7 C 0.6805(3) 0.1029(3) 0.5440(3)
C7_7 C 0.9560(3) 0.3195(3) 0.6029(3)
H6_7 H 0.6297 0.1038 0.5254
H7_7 H 0.9746 0.3703 0.6038
H8_7 H 0.6847 0.1401 0.5831
H9_7 H 0.9169 0.3153 0.6401
C8_7 C 0.7313(3) 0.0109(3) 0.6369(3)
C9_7 C 0.8631(3) 0.2687(3) 0.5109(3)
H10_7 H 0.7518 0.0441 0.6711
H11_7 H 0.8289 0.2482 0.5441
O14_8 O 0.21105(18) 0.18196(18) 0.78862(19)
S1_5 S 0.78856(6) 0.28856(6) 0.21144(6)
O5_5 O 0.83517(17) 0.33517(17) 0.16483(17)
Cu3_3 Cu 0.62756(3) 0.27407(3) 0.26779(3)
O10_4 O 0.5422(2) 0.22620(19) 0.3133(2)
O12_3 O 0.71105(18) 0.31804(18) 0.21138(19)
O13_4 O 0.78862(19) 0.21105(18) 0.18196(18)
N7_4 N 0.5618(2) 0.3571(2) 0.2318(2)
Cu1_3 Cu 0.27407(3) 0.26779(3) 0.62756(3)
S1_6 S 0.28856(6) 0.21144(6) 0.78856(6)
O1_5 O 0.2816(3) 0.4222(3) 0.5422(3)
O2_3 O 0.22620(19) 0.3133(2) 0.5422(2)
O4_4 O 0.31804(18) 0.21138(19) 0.71105(18)
O5_6 O 0.33517(17) 0.16483(17) 0.83517(17)
N1_8 N 0.2318(2) 0.5618(2) 0.3571(2)
N2_8 N 0.1959(3) 0.5882(3) 0.4191(3)
N3_8 N 0.1748(3) 0.5335(3) 0.4604(3)
N4_8 N 0.1970(2) 0.4705(2) 0.4255(2)
C1_5 C 0.2352(3) 0.3776(3) 0.5203(3)
C2_8 C 0.1805(3) 0.3971(3) 0.4560(3)
H2_8 H 0.1297 0.3962 0.4746
H3_8 H 0.1847 0.3599 0.4169
C3_8 C 0.2313(3) 0.4891(3) 0.3631(3)
H4_8 H 0.2518 0.4559 0.3289
Cu5_8 Cu 0.26779(3) 0.62756(3) 0.27407(3)
O6_8 O 0.5422(3) 0.2816(3) 0.4222(3)
O7_8 O 0.4222(3) 0.5422(3) 0.2816(3)
O9_8 O 0.3133(2) 0.5422(2) 0.22620(19)
N5_3 N 0.3571(2) 0.2318(2) 0.5618(2)
N8_5 N 0.4191(3) 0.1959(3) 0.5882(3)
N9_8 N 0.5882(3) 0.4191(3) 0.1959(3)
N10_5 N 0.4604(3) 0.1748(3) 0.5335(3)
N11_8 N 0.5335(3) 0.4604(3) 0.1748(3)
N12_8 N 0.4255(2) 0.1970(2) 0.4705(2)
N13_8 N 0.4705(2) 0.4255(2) 0.1970(2)
C4_8 C 0.5203(3) 0.2352(3) 0.3776(3)
C5_8 C 0.3776(3) 0.5203(3) 0.2352(3)
C6_8 C 0.4560(3) 0.1805(3) 0.3971(3)
C7_8 C 0.3971(3) 0.4560(3) 0.1805(3)
H6_8 H 0.4746 0.1297 0.3962
H7_8 H 0.3962 0.4746 0.1297
H8_8 H 0.4169 0.1847 0.3599
H9_8 H 0.3599 0.4169 0.1847
C8_8 C 0.3631(3) 0.2313(3) 0.4891(3)
C9_8 C 0.4891(3) 0.3631(3) 0.2313(3)
H10_8 H 0.3289 0.2518 0.4559
H11_8 H 0.4559 0.3289 0.2518
S1_7 S 0.21144(6) 0.78856(6) 0.28856(6)
O4_5 O 0.18196(18) 0.78862(19) 0.21105(18)
O5_7 O 0.16483(17) 0.83517(17) 0.33517(17)
O13_5 O 0.21138(19) 0.71105(18) 0.31804(18)
Cu1_4 Cu 0.72593(3) 0.76779(3) 0.87244(3)
S1_8 S 0.71144(6) 0.71144(6) 0.71144(6)
O1_6 O 0.7184(3) 0.9222(3) 0.9578(3)
O2_4 O 0.77380(19) 0.8133(2) 0.9578(2)
O3_2 O 0.80587(16) 0.80587(16) 0.80587(16)
O4_6 O 0.68196(18) 0.71138(19) 0.78895(18)
O5_8 O 0.66483(17) 0.66483(17) 0.66483(17)
C1_6 C 0.7648(3) 0.8776(3) 0.9797(3)
Cu3_4 Cu 0.87244(3) 0.72593(3) 0.76779(3)
Cu4_2 Cu 0.76779(3) 0.87244(3) 0.72593(3)
O10_5 O 0.9578(2) 0.77380(19) 0.8133(2)
O12_4 O 0.78895(18) 0.68196(18) 0.71138(19)
O13_6 O 0.71138(19) 0.78895(18) 0.68196(18)
N5_4 N 0.6429(2) 0.7318(2) 0.9382(2)
N7_5 N 0.9382(2) 0.6429(2) 0.7318(2)
N8_6 N 0.5809(3) 0.6959(3) 0.9118(3)
N10_6 N 0.5396(3) 0.6748(3) 0.9665(3)
O1_7 O 0.9578(3) 0.7184(3) 0.9222(3)
C1_7 C 0.9797(3) 0.7648(3) 0.8776(3)
O10_6 O 0.8133(2) 0.9578(2) 0.77380(19)
N7_6 N 0.7318(2) 0.9382(2) 0.6429(2)
N8_7 N 0.9118(3) 0.5809(3) 0.6959(3)
N10_7 N 0.9665(3) 0.5396(3) 0.6748(3)
O1_8 O 0.9222(3) 0.9578(3) 0.7184(3)
C1_8 C 0.8776(3) 0.9797(3) 0.7648(3)
N8_8 N 0.6959(3) 0.9118(3) 0.5809(3)
N10_8 N 0.6748(3) 0.9665(3) 0.5396(3)
loop_
_geom_bond_atom_site_label_1
_geom_bond_atom_site_label_2
_geom_bond_site_symmetry_1
_geom_bond_site_symmetry_2
Cu1 O2 1_555 1_555
S1 O4 1_555 1_555
O1 C1 1_555 1_555
O2 C1 1_555 1_555
O3 Cu1 1_555 1_555
O4 Cu1 1_555 1_555
O5 S1 1_555 1_555
Cu3 O3 1_555 1_555
Cu4 O3 1_555 1_555
O10 Cu3 1_555 1_555
O12 S1 1_555 1_555
O13 S1 1_555 1_555
N5 Cu1 1_555 1_555
N7 Cu3 1_555 1_555
N8 N5 1_555 1_555
N10 N8 1_555 1_555
Cu3 O12 1_555 1_555
Cu4 O13 1_555 1_555
O1_2 C1_2 1_555 1_555
O10 C1_2 1_555 1_555
O10_2 Cu4 1_555 1_555
N7_2 Cu4 1_555 1_555
N8_2 N7 1_555 1_555
N10_2 N8_2 1_555 1_555
O1_3 C1_3 1_555 1_555
O10_2 C1_3 1_555 1_555
N8_3 N7_2 1_555 1_555
N10_3 N8_3 1_555 1_555
N4 C2 1_555 1_555
C2 H2 1_555 1_555
H3 C2 1_555 1_555
H4 C3 1_555 1_555
Cu2 O8 1_555 1_555
O6 C4 1_555 1_555
O8 C4 1_555 1_555
O11 Cu2 1_555 1_555
O14 Cu2 1_555 1_555
N6 Cu2 1_555 1_555
N9 N6 1_555 1_555
N11 N9 1_555 1_555
N13 N11 1_555 1_555
C4 C6 1_555 1_555
C6 N12 1_555 1_555
C7 N13 1_555 1_555
H6 C6 1_555 1_555
H7 C7 1_555 1_555
H8 C6 1_555 1_555
H9 C7 1_555 1_555
C9 N6 1_555 1_555
H10 C8 1_555 1_555
H11 C9 1_555 1_555
N4 C3 1_555 1_555
N12 C8 1_555 1_555
N13 C9 1_555 1_555
N1 N2 1_555 1_555
N2 N3 1_555 1_555
Cu5 N1 1_555 1_555
O7 C5 1_555 1_555
O9 Cu5 1_555 1_555
C5 O9 1_555 1_555
N4_2 C2_2 1_555 1_555
C2_2 H2_2 1_555 1_555
H3_2 C2_2 1_555 1_555
H4_2 C3_2 1_555 1_555
Cu2_2 O8_2 1_555 1_555
O6_2 C4_2 1_555 1_555
O8_2 C4_2 1_555 1_555
O11_2 Cu2_2 1_555 1_555
O14_2 Cu2_2 1_555 1_555
N6_2 Cu2_2 1_555 1_555
N9_2 N6_2 1_555 1_555
N11_2 N9_2 1_555 1_555
N13_2 N11_2 1_555 1_555
C4_2 C6_2 1_555 1_555
C6_2 N12_2 1_555 1_555
C7_2 N13_2 1_555 1_555
H6_2 C6_2 1_555 1_555
H7_2 C7_2 1_555 1_555
H8_2 C6_2 1_555 1_555
H9_2 C7_2 1_555 1_555
C9_2 N6_2 1_555 1_555
H10_2 C8_2 1_555 1_555
H11_2 C9_2 1_555 1_555
N4_2 C3_2 1_555 1_555
N12_2 C8_2 1_555 1_555
N13_2 C9_2 1_555 1_555
N1_2 N2_2 1_555 1_555
N2_2 N3_2 1_555 1_555
Cu5_2 N1_2 1_555 1_555
O7_2 C5_2 1_555 1_555
O9_2 Cu5_2 1_555 1_555
C5_2 O9_2 1_555 1_555
N4_3 C2_3 1_555 1_555
C2_3 H2_3 1_555 1_555
H3_3 C2_3 1_555 1_555
H4_3 C3_3 1_555 1_555
Cu2_3 O8_3 1_555 1_555
O6_3 C4_3 1_555 1_555
O8_3 C4_3 1_555 1_555
O11_3 Cu2_3 1_555 1_555
O14_3 Cu2_3 1_555 1_555
N6_3 Cu2_3 1_555 1_555
N9_3 N6_3 1_555 1_555
N11_3 N9_3 1_555 1_555
N13_3 N11_3 1_555 1_555
C4_3 C6_3 1_555 1_555
C6_3 N12_3 1_555 1_555
C7_3 N13_3 1_555 1_555
H6_3 C6_3 1_555 1_555
H7_3 C7_3 1_555 1_555
H8_3 C6_3 1_555 1_555
H9_3 C7_3 1_555 1_555
C9_3 N6_3 1_555 1_555
H10_3 C8_3 1_555 1_555
H11_3 C9_3 1_555 1_555
N4_3 C3_3 1_555 1_555
N12_3 C8_3 1_555 1_555
N13_3 C9_3 1_555 1_555
N1_3 N2_3 1_555 1_555
N2_3 N3_3 1_555 1_555
Cu5_3 N1_3 1_555 1_555
O7_3 C5_3 1_555 1_555
O9_3 Cu5_3 1_555 1_555
C5_3 O9_3 1_555 1_555
S1_2 O14_3 1_555 1_555
O5_2 S1_2 1_555 1_555
Cu3_2 O11_3 1_555 1_555
Cu5 O11_3 1_555 1_555
O10_3 Cu3_2 1_555 1_555
O12_2 S1_2 1_555 1_555
O13_2 S1_2 1_555 1_555
N7_3 Cu3_2 1_555 1_555
Cu3_2 O12_2 1_555 1_555
Cu5 O13_2 1_555 1_555
O11_2 Cu5_3 1_555 1_555
O14_4 Cu5_3 1_555 1_555
Cu1_2 O2_2 1_555 1_555
S1_3 O4_2 1_555 1_555
O1_4 C1_4 1_555 1_555
O2_2 C1_4 1_555 1_555
O11_2 Cu1_2 1_555 1_555
O4_2 Cu1_2 1_555 1_555
O5_3 S1_3 1_555 1_555
N1_4 N2_4 1_555 1_555
N2_4 N3_4 1_555 1_555
N3_4 N4_4 1_555 1_555
N4_4 C2_4 1_555 1_555
C1_4 C2_4 1_555 1_555
C2_4 H2_4 1_555 1_555
H3_4 C2_4 1_555 1_555
C3_4 N1_4 1_555 1_555
H4_4 C3_4 1_555 1_555
Cu5_4 N1_4 1_555 1_555
O6_4 C4_4 1_555 1_555
O7_4 C5_4 1_555 1_555
O10_3 C4_4 1_555 1_555
O9_4 Cu5_4 1_555 1_555
O14_4 S1_3 1_555 1_555
O14_2 S1_3 1_555 1_555
N5_2 Cu1_2 1_555 1_555
N8_4 N5_2 1_555 1_555
N9_4 N7_3 1_555 1_555
N10_4 N8_4 1_555 1_555
N11_4 N9_4 1_555 1_555
N12_4 N10_4 1_555 1_555
N13_4 N11_4 1_555 1_555
C4_4 C6_4 1_555 1_555
C5_4 O9_4 1_555 1_555
C6_4 N12_4 1_555 1_555
C7_4 N13_4 1_555 1_555
H6_4 C6_4 1_555 1_555
H7_4 C7_4 1_555 1_555
H8_4 C6_4 1_555 1_555
H9_4 C7_4 1_555 1_555
C8_4 N5_2 1_555 1_555
C9_4 N7_3 1_555 1_555
H10_4 C8_4 1_555 1_555
H11_4 C9_4 1_555 1_555
N4_4 C3_4 1_555 1_555
N12_4 C8_4 1_555 1_555
N13_4 C9_4 1_555 1_555
C5_4 C7_4 1_555 1_555
S1_4 O4_3 1_555 1_555
O11 Cu5_2 1_555 1_555
O4_3 Cu5_2 1_555 1_555
O5_4 S1_4 1_555 1_555
Cu5_4 O11 1_555 1_555
O14 S1_4 1_555 1_555
O13_3 S1_4 1_555 1_555
Cu5_4 O13_3 1_555 1_555
N1_5 N2_5 1_555 1_555
N2_5 N3_5 1_555 1_555
Cu5_5 N1_5 1_555 1_555
O7_5 C5_5 1_555 1_555
O9_5 Cu5_5 1_555 1_555
C5_5 O9_5 1_555 1_555
N4_5 C2_5 1_555 1_555
C2_5 H2_5 1_555 1_555
H3_5 C2_5 1_555 1_555
H4_5 C3_5 1_555 1_555
Cu2_4 O8_4 1_555 1_555
O6_5 C4_5 1_555 1_555
O8_4 C4_5 1_555 1_555
O11_4 Cu2_4 1_555 1_555
O14_5 Cu2_4 1_555 1_555
N6_4 Cu2_4 1_555 1_555
N9_5 N6_4 1_555 1_555
N11_5 N9_5 1_555 1_555
N13_5 N11_5 1_555 1_555
C4_5 C6_5 1_555 1_555
C6_5 N12_5 1_555 1_555
C7_5 N13_5 1_555 1_555
H6_5 C6_5 1_555 1_555
H7_5 C7_5 1_555 1_555
H8_5 C6_5 1_555 1_555
H9_5 C7_5 1_555 1_555
C9_5 N6_4 1_555 1_555
H10_5 C8_5 1_555 1_555
H11_5 C9_5 1_555 1_555
N4_5 C3_5 1_555 1_555
N12_5 C8_5 1_555 1_555
N13_5 C9_5 1_555 1_555
N1_6 N2_6 1_555 1_555
N2_6 N3_6 1_555 1_555
Cu5_6 N1_6 1_555 1_555
O7_6 C5_6 1_555 1_555
O9_6 Cu5_6 1_555 1_555
C5_6 O9_6 1_555 1_555
N4_6 C2_6 1_555 1_555
C2_6 H2_6 1_555 1_555
H3_6 C2_6 1_555 1_555
H4_6 C3_6 1_555 1_555
Cu2_5 O8_5 1_555 1_555
O6_6 C4_6 1_555 1_555
O8_5 C4_6 1_555 1_555
O11_5 Cu2_5 1_555 1_555
O14_6 Cu2_5 1_555 1_555
N6_5 Cu2_5 1_555 1_555
N9_6 N6_5 1_555 1_555
N11_6 N9_6 1_555 1_555
N13_6 N11_6 1_555 1_555
C4_6 C6_6 1_555 1_555
C6_6 N12_6 1_555 1_555
C7_6 N13_6 1_555 1_555
H6_6 C6_6 1_555 1_555
H7_6 C7_6 1_555 1_555
H8_6 C6_6 1_555 1_555
H9_6 C7_6 1_555 1_555
C9_6 N6_5 1_555 1_555
H10_6 C8_6 1_555 1_555
H11_6 C9_6 1_555 1_555
N4_6 C3_6 1_555 1_555
N12_6 C8_6 1_555 1_555
N13_6 C9_6 1_555 1_555
N1_7 N2_7 1_555 1_555
N2_7 N3_7 1_555 1_555
Cu5_7 N1_7 1_555 1_555
O7_7 C5_7 1_555 1_555
O9_7 Cu5_7 1_555 1_555
C5_7 O9_7 1_555 1_555
N4_7 C2_7 1_555 1_555
C2_7 H2_7 1_555 1_555
H3_7 C2_7 1_555 1_555
H4_7 C3_7 1_555 1_555
Cu2_6 O8_6 1_555 1_555
O6_7 C4_7 1_555 1_555
O8_6 C4_7 1_555 1_555
O11_6 Cu2_6 1_555 1_555
O14_7 Cu2_6 1_555 1_555
N6_6 Cu2_6 1_555 1_555
N9_7 N6_6 1_555 1_555
N11_7 N9_7 1_555 1_555
N13_7 N11_7 1_555 1_555
C4_7 C6_7 1_555 1_555
C6_7 N12_7 1_555 1_555
C7_7 N13_7 1_555 1_555
H6_7 C6_7 1_555 1_555
H7_7 C7_7 1_555 1_555
H8_7 C6_7 1_555 1_555
H9_7 C7_7 1_555 1_555
C9_7 N6_6 1_555 1_555
H10_7 C8_7 1_555 1_555
H11_7 C9_7 1_555 1_555
N4_7 C3_7 1_555 1_555
N12_7 C8_7 1_555 1_555
N13_7 C9_7 1_555 1_555
O11_5 Cu5_7 1_555 1_555
O14_8 Cu5_7 1_555 1_555
S1_5 O14_7 1_555 1_555
O5_5 S1_5 1_555 1_555
Cu3_3 O11_6 1_555 1_555
Cu5_5 O11_6 1_555 1_555
O10_4 Cu3_3 1_555 1_555
O12_3 S1_5 1_555 1_555
O13_4 S1_5 1_555 1_555
N7_4 Cu3_3 1_555 1_555
Cu3_3 O12_3 1_555 1_555
Cu5_5 O13_4 1_555 1_555
Cu1_3 O2_3 1_555 1_555
S1_6 O4_4 1_555 1_555
O1_5 C1_5 1_555 1_555
O2_3 C1_5 1_555 1_555
O11_5 Cu1_3 1_555 1_555
O4_4 Cu1_3 1_555 1_555
O5_6 S1_6 1_555 1_555
N1_8 N2_8 1_555 1_555
N2_8 N3_8 1_555 1_555
N3_8 N4_8 1_555 1_555
N4_8 C2_8 1_555 1_555
C1_5 C2_8 1_555 1_555
C2_8 H2_8 1_555 1_555
H3_8 C2_8 1_555 1_555
C3_8 N1_8 1_555 1_555
H4_8 C3_8 1_555 1_555
Cu5_8 N1_8 1_555 1_555
O6_8 C4_8 1_555 1_555
O7_8 C5_8 1_555 1_555
O10_4 C4_8 1_555 1_555
O9_8 Cu5_8 1_555 1_555
O14_8 S1_6 1_555 1_555
O14_6 S1_6 1_555 1_555
N5_3 Cu1_3 1_555 1_555
N8_5 N5_3 1_555 1_555
N9_8 N7_4 1_555 1_555
N10_5 N8_5 1_555 1_555
N11_8 N9_8 1_555 1_555
N12_8 N10_5 1_555 1_555
N13_8 N11_8 1_555 1_555
C4_8 C6_8 1_555 1_555
C5_8 O9_8 1_555 1_555
C6_8 N12_8 1_555 1_555
C7_8 N13_8 1_555 1_555
H6_8 C6_8 1_555 1_555
H7_8 C7_8 1_555 1_555
H8_8 C6_8 1_555 1_555
H9_8 C7_8 1_555 1_555
C8_8 N5_3 1_555 1_555
C9_8 N7_4 1_555 1_555
H10_8 C8_8 1_555 1_555
H11_8 C9_8 1_555 1_555
N4_8 C3_8 1_555 1_555
N12_8 C8_8 1_555 1_555
N13_8 C9_8 1_555 1_555
C5_8 C7_8 1_555 1_555
S1_7 O4_5 1_555 1_555
O11_4 Cu5_6 1_555 1_555
O4_5 Cu5_6 1_555 1_555
O5_7 S1_7 1_555 1_555
Cu5_8 O11_4 1_555 1_555
O14_5 S1_7 1_555 1_555
O13_5 S1_7 1_555 1_555
Cu5_8 O13_5 1_555 1_555
Cu1_4 O2_4 1_555 1_555
S1_8 O4_6 1_555 1_555
O1_6 C1_6 1_555 1_555
O2_4 C1_6 1_555 1_555
O3_2 Cu1_4 1_555 1_555
O4_6 Cu1_4 1_555 1_555
O5_8 S1_8 1_555 1_555
Cu3_4 O3_2 1_555 1_555
Cu4_2 O3_2 1_555 1_555
O10_5 Cu3_4 1_555 1_555
O12_4 S1_8 1_555 1_555
O13_6 S1_8 1_555 1_555
N5_4 Cu1_4 1_555 1_555
N7_5 Cu3_4 1_555 1_555
N8_6 N5_4 1_555 1_555
N10_6 N8_6 1_555 1_555
Cu3_4 O12_4 1_555 1_555
Cu4_2 O13_6 1_555 1_555
O1_7 C1_7 1_555 1_555
O10_5 C1_7 1_555 1_555
O10_6 Cu4_2 1_555 1_555
N7_6 Cu4_2 1_555 1_555
N8_7 N7_5 1_555 1_555
N10_7 N8_7 1_555 1_555
O1_8 C1_8 1_555 1_555
O10_6 C1_8 1_555 1_555
N8_8 N7_6 1_555 1_555
N10_8 N8_8 1_555 1_555

#END
