
###############################################################################
#
# This file contains modified crystal structure data generated from the
# MOF subset of the Cambridge Structural Database (CSD) v543 
# hosted by the Cambridge Crystallographic Data Centre (CCDC).
#
# This work is licensed under the Creative Commons
# Attribution-NonCommercial-ShareAlike 4.0 International License.
# To view a copy of this license, visit
# http://creativecommons.org/licenses/by-nc-sa/4.0/
# or send a letter to
# Creative Commons, PO Box 1866, Mountain View, CA 94042, USA.
#
# CIF created using the CSD Python API on 29 September 2022
# The structure has been converted into the P1 space group
# The structure has a 3D framework
# The original CSD entry QOXQUS is in the tetragonal crystal system
# The original CSD entry QOXQUS is in a Sohncke space group
# The framework has been calculated to contain at least 10.0% void space
# The void calculation uses a probe of radius 1.32A, grid spacing 0.4
#
###############################################################################

data_QOXQUS
_chemical_formula_moiety         '(C224 H144 Al16 O76)n'
_symmetry_cell_setting           triclinic
_symmetry_space_group_name_H-M   'P 1'
_symmetry_Int_Tables_number      1
_space_group_name_Hall           'P 1'
loop_
_symmetry_equiv_pos_site_id
_symmetry_equiv_pos_as_xyz
1 x,y,z
_cell_length_a                   18.4641(6)
_cell_length_b                   18.4641(6)
_cell_length_c                   37.4193(12)
_cell_angle_alpha                90
_cell_angle_beta                 90
_cell_angle_gamma                90
_cell_volume                     12757.1
loop_
_atom_site_label
_atom_site_type_symbol
_atom_site_fract_x
_atom_site_fract_y
_atom_site_fract_z
Al6 Al 0.000000 0.000000 0.61465(2)
Al6_2 Al -0.000000 1.000000 0.61465(2)
C5 C 0.84519(12) 0.00762(13) 0.61435(5)
C10 C 0.70975(13) 0.00053(18) 0.62325(7)
H6 H 0.703738 0.046016 0.611756
O5 O 0.83957(8) 0.07029(9) 0.60156(4)
Al6_3 Al 1.000000 0.000000 0.61465(2)
Al10 Al 0.90998(3) 0.13653(3) 0.58029(2)
Al3 Al 0.66508(3) 0.66508(3) 0.000000
Al12 Al 0.33492(3) 0.33492(3) 0.000000
O21 O 0.61046(9) 0.62179(9) 0.03552(3)
O28 O 0.70570(9) 0.73127(9) 0.03334(4)
O30 O 0.74034(9) 0.59495(10) 0.00770(4)
Al1 Al 0.500000 0.500000 0.88535(2)
Al2 Al 0.59002(3) 0.63653(3) 0.91971(2)
Al3_2 Al 0.66508(3) 0.66508(3) 1.000000
O1 O 0.51772(7) 0.56952(8) 0.91921(4)
H1 H 0.485216 0.570734 0.938879
O2 O 0.62179(9) 0.61046(9) 0.96448(3)
H2 H 0.614829 0.560875 0.970322
O3 O 0.56588(10) 0.66676(10) 0.87289(4)
O4 O 0.51739(10) 0.56758(10) 0.84794(4)
C1 C 0.54135(13) 0.63155(14) 0.84704(6)
C2 C 0.22334(12) 0.79080(12) 0.56699(5)
C3 C 0.35727(14) 0.7922(2) 0.57424(7)
H3 H 0.362556 0.791144 0.548995
C4 C 0.54047(13) 0.66798(15) 0.81138(6)
C6 C 0.28221(13) 0.78820(17) 0.62641(6)
H4 H 0.235628 0.784437 0.637021
C7 C 0.77865(13) 0.97109(16) 0.62767(6)
C8 C 0.34332(14) 0.79349(18) 0.64790(6)
H5 H 0.338411 0.793295 0.673177
C9 C 0.28905(12) 0.78838(13) 0.58927(6)
C11 C 0.57394(15) 0.73651(17) 0.80780(7)
H7 H 0.595555 0.759426 0.827879
C12 C 0.41066(15) 0.7990(2) 0.63275(7)
C13 C 0.41756(15) 0.7974(2) 0.59565(7)
H8 H 0.464273 0.799884 0.585087
C14 C 0.50715(16) 0.63712(17) 0.78282(7)
H9 H 0.483550 0.591689 0.785362
C15 C 0.57476(16) 0.76937(18) 0.77497(7)
H10 H 0.599890 0.813920 0.772221
C16 C 0.47910(16) 0.7708(2) 0.68877(7)
H11 H 0.439199 0.742080 0.696261
C17 C 0.53857(16) 0.7769(2) 0.71102(8)
C18 C 0.65838(15) 0.8974(2) 0.65395(8)
C19 C 0.54005(14) 0.7395(2) 0.74575(7)
C20 C 0.53356(15) 0.8497(2) 0.64526(8)
H12 H 0.531039 0.875960 0.623477
C21 C 0.50753(18) 0.6722(2) 0.74967(7)
H13 H 0.485335 0.649647 0.729642
C22 C 0.78658(15) 0.90562(19) 0.64648(9)
H14 H 0.833636 0.886519 0.650552
C23 C 0.64997(15) 0.9627(2) 0.63581(8)
H15 H 0.602742 0.981592 0.631984
C24 C 0.59493(16) 0.8551(2) 0.66691(8)
C25 C 0.47572(15) 0.8054(2) 0.65574(8)
C26 C 0.59664(17) 0.8204(2) 0.69950(8)
H16 H 0.637782 0.826057 0.714493
C27 C 0.72794(17) 0.8696(2) 0.65885(10)
H17 H 0.734171 0.824818 0.670994
O6 O 0.16341(8) 0.79316(8) 0.58277(4)
O7 O 0.90257(9) 0.97275(9) 0.61755(4)
O8 O 0.23127(9) 0.79430(9) 0.53334(4)
O9 O 0.52584(10) 0.70902(10) 0.93825(5)
O10 O 0.59495(10) 0.74034(9) 0.99230(4)
C28 C 0.54142(13) 0.76066(15) 0.96653(6)
H18 H 0.517132 0.805934 0.967850
Al4 Al 0.40998(3) 0.36347(3) 0.91971(2)
O11 O 0.48228(7) 0.43048(8) 0.91921(4)
H19 H 0.514784 0.429266 0.938879
O12 O 0.37821(9) 0.38954(9) 0.96448(3)
H20 H 0.385171 0.439125 0.970322
O13 O 0.43412(10) 0.33324(10) 0.87289(4)
O14 O 0.48261(10) 0.43242(10) 0.84794(4)
C29 C 0.45865(13) 0.36845(14) 0.84704(6)
C30 C 0.77666(12) 0.20920(12) 0.56699(5)
C31 C 0.64273(14) 0.2078(2) 0.57424(7)
H21 H 0.637444 0.208856 0.548995
C32 C 0.45953(13) 0.33202(15) 0.81138(6)
C34 C 0.71779(13) 0.21180(17) 0.62641(6)
H22 H 0.764372 0.215563 0.637021
C35 C 0.22135(13) 0.02891(16) 0.62767(6)
C36 C 0.65668(14) 0.20651(18) 0.64790(6)
H23 H 0.661589 0.206705 0.673177
C37 C 0.71095(12) 0.21162(13) 0.58927(6)
C39 C 0.42606(15) 0.26349(17) 0.80780(7)
H25 H 0.404445 0.240574 0.827879
C40 C 0.58934(15) 0.2010(2) 0.63275(7)
C41 C 0.58244(15) 0.2026(2) 0.59565(7)
H26 H 0.535727 0.200116 0.585087
C42 C 0.49285(16) 0.36288(17) 0.78282(7)
H27 H 0.516450 0.408311 0.785362
C43 C 0.42524(16) 0.23063(18) 0.77497(7)
H28 H 0.400110 0.186080 0.772221
C44 C 0.52090(16) 0.2292(2) 0.68877(7)
H29 H 0.560801 0.257920 0.696261
C45 C 0.46143(16) 0.2231(2) 0.71102(8)
C46 C 0.34162(15) 0.1026(2) 0.65395(8)
C47 C 0.45995(14) 0.2605(2) 0.74575(7)
C48 C 0.46644(15) 0.1503(2) 0.64526(8)
H30 H 0.468961 0.124040 0.623477
C49 C 0.49247(18) 0.3278(2) 0.74967(7)
H31 H 0.514665 0.350353 0.729642
C50 C 0.21342(15) 0.09438(19) 0.64648(9)
H32 H 0.166364 0.113481 0.650552
C51 C 0.35003(15) 0.0373(2) 0.63581(8)
H33 H 0.397258 0.018408 0.631984
C52 C 0.40507(16) 0.1449(2) 0.66691(8)
C53 C 0.52428(15) 0.1946(2) 0.65574(8)
C54 C 0.40336(17) 0.1796(2) 0.69950(8)
H34 H 0.362218 0.173943 0.714493
C55 C 0.27206(17) 0.1304(2) 0.65885(10)
H35 H 0.265829 0.175182 0.670994
O16 O 0.83659(8) 0.20684(8) 0.58277(4)
O17 O 0.09743(9) 0.02725(9) 0.61755(4)
O18 O 0.76873(9) 0.20570(9) 0.53334(4)
O19 O 0.47416(10) 0.29098(10) 0.93825(5)
O20 O 0.40505(10) 0.25966(9) 0.99230(4)
C56 C 0.45858(13) 0.23934(15) 0.96653(6)
H36 H 0.482868 0.194066 0.967850
Al6_4 Al 1.000000 1.000000 0.61465(2)
Al8 Al 0.09002(3) 0.86347(3) 0.58029(2)
Al11 Al 0.83492(3) 0.16508(3) 0.500000
Al12_2 Al 0.33492(3) 0.33492(3) 1.000000
Al13 Al 0.16508(3) 0.83492(3) 0.500000
O22 O 0.33957(8) 0.42971(9) 0.89844(4)
O23 O 0.66043(8) 0.57029(9) 0.89844(4)
O24 O 0.66341(8) 0.70684(8) 0.91723(4)
O25 O 0.33659(8) 0.29316(8) 0.91723(4)
O26 O 0.40257(9) 0.52725(9) 0.88245(4)
O27 O 0.59743(9) 0.47275(9) 0.88245(4)
O29 O 0.73127(9) 0.70570(9) 0.96666(4)
C33 C 0.15481(12) 0.99238(13) 0.61435(5)
C38 C 0.29025(13) 0.99947(18) 0.62325(7)
H24 H 0.296262 0.953984 0.611756
O15 O 0.16043(8) 0.92971(9) 0.60156(4)
Al1_2 Al 0.000000 0.000000 0.38535(2)
H19_2 H 0.070734 0.014784 0.438879
C30_2 C 0.29080(12) 0.27666(12) 0.06699(5)
C31_2 C 0.2922(2) 0.14273(14) 0.07424(7)
H21_2 H 0.291144 0.137444 0.048995
C34_2 C 0.28820(17) 0.21779(13) 0.12641(6)
H22_2 H 0.284437 0.264372 0.137021
C36_2 C 0.29349(18) 0.15668(14) 0.14790(6)
H23_2 H 0.293295 0.161589 0.173177
C37_2 C 0.28838(13) 0.21095(12) 0.08927(6)
C40_2 C 0.2990(2) 0.08934(15) 0.13275(7)
C41_2 C 0.2974(2) 0.08244(15) 0.09565(7)
H26_2 H 0.299884 0.035727 0.085087
H27_2 H 0.091689 0.016450 0.285362
C44_2 C 0.2708(2) 0.02090(16) 0.18877(7)
H29_2 H 0.242080 0.060801 0.196261
H31_2 H 0.149647 0.014665 0.229642
C53_2 C 0.3054(2) 0.02428(15) 0.15574(8)
O16_2 O 0.29316(8) 0.33659(8) 0.08277(4)
O18_2 O 0.29430(9) 0.26873(9) 0.03334(4)
Al9 Al 0.36347(3) 0.40998(3) 0.08029(2)
O27_2 O 0.02725(9) 0.09743(9) 0.38245(4)
Al1_3 Al 0.000000 1.000000 0.38535(2)
Al4_2 Al 0.13653(3) 0.90998(3) 0.41971(2)
O11_2 O 0.06952(8) 0.98228(7) 0.41921(4)
O12_2 O 0.11046(9) 0.87821(9) 0.46448(3)
H20_2 H 0.060875 0.885171 0.470322
O13_2 O 0.16676(10) 0.93412(10) 0.37289(4)
O14_2 O 0.06758(10) 0.98261(10) 0.34794(4)
C29_2 C 0.13155(14) 0.95865(13) 0.34704(6)
C32_2 C 0.16798(15) 0.95953(13) 0.31138(6)
C33_2 C 0.50762(13) 0.65481(12) 0.11435(5)
C35_2 C 0.47109(16) 0.72135(13) 0.12767(6)
C38_2 C 0.50053(18) 0.79025(13) 0.12325(7)
H24_2 H 0.546016 0.796262 0.111756
C39_2 C 0.23651(17) 0.92606(15) 0.30780(7)
H25_2 H 0.259426 0.904445 0.327879
C42_2 C 0.13712(17) 0.99285(16) 0.28282(7)
C43_2 C 0.26937(18) 0.92524(16) 0.27497(7)
H28_2 H 0.313920 0.900110 0.272221
C45_2 C 0.2769(2) 0.96143(16) 0.21102(8)
C46_2 C 0.3974(2) 0.84162(15) 0.15395(8)
C47_2 C 0.2395(2) 0.95995(14) 0.24575(7)
C48_2 C 0.3497(2) 0.96644(15) 0.14526(8)
H30_2 H 0.375960 0.968961 0.123477
C49_2 C 0.1722(2) 0.99247(18) 0.24967(7)
C50_2 C 0.40562(19) 0.71342(15) 0.14648(9)
H32_2 H 0.386519 0.666364 0.150552
C51_2 C 0.4627(2) 0.85003(15) 0.13581(8)
H33_2 H 0.481592 0.897258 0.131984
C52_2 C 0.3551(2) 0.90507(16) 0.16691(8)
C54_2 C 0.3204(2) 0.90336(17) 0.19950(8)
H34_2 H 0.326057 0.862218 0.214493
C55_2 C 0.3696(2) 0.77206(17) 0.15885(10)
H35_2 H 0.324818 0.765829 0.170994
O15_2 O 0.57029(9) 0.66043(8) 0.10156(4)
O17_2 O 0.47275(9) 0.59743(9) 0.11755(4)
O19_2 O 0.20902(10) 0.97416(10) 0.43825(5)
O20_2 O 0.24034(9) 0.90505(10) 0.49230(4)
C56_2 C 0.26066(15) 0.95858(13) 0.46653(6)
H36_2 H 0.305934 0.982868 0.467850
Al5 Al 0.500000 0.500000 0.11465(2)
Al7 Al 0.63653(3) 0.59002(3) 0.08029(2)
O22_2 O 0.07029(9) 0.83957(8) 0.39844(4)
O25_2 O 0.20684(8) 0.83659(8) 0.41723(4)
Al1_4 Al 1.000000 0.000000 0.38535(2)
Al2_2 Al 0.86347(3) 0.09002(3) 0.41971(2)
O1_2 O 0.93048(8) 0.01772(7) 0.41921(4)
O2_2 O 0.88954(9) 0.12179(9) 0.46448(3)
H2_2 H 0.939125 0.114829 0.470322
O3_2 O 0.83324(10) 0.06588(10) 0.37289(4)
O4_2 O 0.93242(10) 0.01739(10) 0.34794(4)
C1_2 C 0.86845(14) 0.04135(13) 0.34704(6)
C4_2 C 0.83202(15) 0.04047(13) 0.31138(6)
C5_2 C 0.49238(13) 0.34519(12) 0.11435(5)
C7_2 C 0.52891(16) 0.27865(13) 0.12767(6)
C10_2 C 0.49947(18) 0.20975(13) 0.12325(7)
H6_2 H 0.453984 0.203738 0.111756
C11_2 C 0.76349(17) 0.07394(15) 0.30780(7)
H7_2 H 0.740574 0.095555 0.327879
C14_2 C 0.86288(17) 0.00715(16) 0.28282(7)
C15_2 C 0.73063(18) 0.07476(16) 0.27497(7)
H10_2 H 0.686080 0.099890 0.272221
C17_2 C 0.7231(2) 0.03857(16) 0.21102(8)
C18_2 C 0.6026(2) 0.15838(15) 0.15395(8)
C19_2 C 0.7605(2) 0.04005(14) 0.24575(7)
C20_2 C 0.6503(2) 0.03356(15) 0.14526(8)
H12_2 H 0.624040 0.031039 0.123477
C21_2 C 0.8278(2) 0.00753(18) 0.24967(7)
C22_2 C 0.59438(19) 0.28658(15) 0.14648(9)
H14_2 H 0.613481 0.333636 0.150552
C23_2 C 0.5373(2) 0.14997(15) 0.13581(8)
H15_2 H 0.518408 0.102742 0.131984
C24_2 C 0.6449(2) 0.09493(16) 0.16691(8)
C26_2 C 0.6796(2) 0.09664(17) 0.19950(8)
H16_2 H 0.673943 0.137782 0.214493
C27_2 C 0.6304(2) 0.22794(17) 0.15885(10)
H17_2 H 0.675182 0.234171 0.170994
O5_2 O 0.42971(9) 0.33957(8) 0.10156(4)
O7_2 O 0.52725(9) 0.40257(9) 0.11755(4)
O9_2 O 0.79098(10) 0.02584(10) 0.43825(5)
O10_2 O 0.75966(9) 0.09495(10) 0.49230(4)
C28_2 C 0.73934(15) 0.04142(13) 0.46653(6)
H18_2 H 0.694066 0.017132 0.467850
O21_2 O 0.87821(9) 0.11046(9) 0.53552(3)
O23_2 O 0.92971(9) 0.16043(8) 0.39844(4)
O24_2 O 0.79316(8) 0.16341(8) 0.41723(4)
O29_2 O 0.79430(9) 0.23127(9) 0.46666(4)
O30_2 O 0.90505(10) 0.24034(9) 0.50770(4)
Al1_5 Al 1.000000 1.000000 0.38535(2)
H1_2 H 0.929266 0.985216 0.438879
C2_2 C 0.70920(12) 0.72334(12) 0.06699(5)
C3_2 C 0.7078(2) 0.85727(14) 0.07424(7)
H3_2 H 0.708856 0.862556 0.048995
C6_2 C 0.71180(17) 0.78221(13) 0.12641(6)
H4_2 H 0.715563 0.735628 0.137021
C8_2 C 0.70651(18) 0.84332(14) 0.14790(6)
H5_2 H 0.706705 0.838411 0.173177
C9_2 C 0.71162(13) 0.78905(12) 0.08927(6)
C12_2 C 0.7010(2) 0.91066(15) 0.13275(7)
C13_2 C 0.7026(2) 0.91756(15) 0.09565(7)
H8_2 H 0.700116 0.964273 0.085087
H9_2 H 0.908311 0.983550 0.285362
C16_2 C 0.7292(2) 0.97910(16) 0.18877(7)
H11_2 H 0.757920 0.939199 0.196261
H13_2 H 0.850353 0.985335 0.229642
C25_2 C 0.6946(2) 0.97572(15) 0.15574(8)
O6_2 O 0.70684(8) 0.66341(8) 0.08277(4)
O26_2 O 0.97275(9) 0.90257(9) 0.38245(4)
O21_3 O 0.38954(9) 0.37821(9) 0.03552(3)
O30_3 O 0.25966(9) 0.40505(10) 0.00770(4)
O29_3 O 0.26873(9) 0.29430(9) 0.96666(4)
O21_4 O 0.12179(9) 0.88954(9) 0.53552(3)
O29_4 O 0.20570(9) 0.76873(9) 0.46666(4)
O30_4 O 0.09495(10) 0.75966(9) 0.50770(4)
H19_3 H 0.014784 0.070734 0.561121
C30_3 C 0.27666(12) 0.29080(12) 0.93301(5)
C31_3 C 0.14273(14) 0.2922(2) 0.92576(7)
H21_3 H 0.137444 0.291144 0.951005
C34_3 C 0.21779(13) 0.28820(17) 0.87359(6)
H22_3 H 0.264372 0.284437 0.862979
C36_3 C 0.15668(14) 0.29349(18) 0.85210(6)
H23_3 H 0.161589 0.293295 0.826823
C37_3 C 0.21095(12) 0.28838(13) 0.91073(6)
C40_3 C 0.08934(15) 0.2990(2) 0.86725(7)
C41_3 C 0.08244(15) 0.2974(2) 0.90435(7)
H26_3 H 0.035727 0.299884 0.914913
H27_3 H 0.016450 0.091689 0.714638
C44_3 C 0.02090(16) 0.2708(2) 0.81123(7)
H29_3 H 0.060801 0.242080 0.803739
H31_3 H 0.014665 0.149647 0.770358
C53_3 C 0.02428(15) 0.3054(2) 0.84426(8)
O1_3 O 0.01772(7) 0.93048(8) 0.58079(4)
H2_3 H 0.114829 0.939125 0.529678
O3_3 O 0.06588(10) 0.83324(10) 0.62711(4)
O4_3 O 0.01739(10) 0.93242(10) 0.65206(4)
C1_3 C 0.04135(13) 0.86845(14) 0.65296(6)
C4_3 C 0.04047(13) 0.83202(15) 0.68862(6)
C5_3 C 0.34519(12) 0.49238(13) 0.88565(5)
C7_3 C 0.27865(13) 0.52891(16) 0.87233(6)
C10_3 C 0.20975(13) 0.49947(18) 0.87675(7)
H6_3 H 0.203738 0.453984 0.888244
C11_3 C 0.07394(15) 0.76349(17) 0.69220(7)
H7_3 H 0.095555 0.740574 0.672121
C14_3 C 0.00715(16) 0.86288(17) 0.71718(7)
C15_3 C 0.07476(16) 0.73063(18) 0.72503(7)
H10_3 H 0.099890 0.686080 0.727779
C17_3 C 0.03857(16) 0.7231(2) 0.78898(8)
C18_3 C 0.15838(15) 0.6026(2) 0.84605(8)
C19_3 C 0.04005(14) 0.7605(2) 0.75425(7)
C20_3 C 0.03356(15) 0.6503(2) 0.85474(8)
H12_3 H 0.031039 0.624040 0.876523
C21_3 C 0.00753(18) 0.8278(2) 0.75033(7)
C22_3 C 0.28658(15) 0.59438(19) 0.85352(9)
H14_3 H 0.333636 0.613481 0.849448
C23_3 C 0.14997(15) 0.5373(2) 0.86419(8)
H15_3 H 0.102742 0.518408 0.868016
C24_3 C 0.09493(16) 0.6449(2) 0.83309(8)
C26_3 C 0.09664(17) 0.6796(2) 0.80050(8)
H16_3 H 0.137782 0.673943 0.785507
C27_3 C 0.22794(17) 0.6304(2) 0.84115(10)
H17_3 H 0.234171 0.675182 0.829006
O9_3 O 0.02584(10) 0.79098(10) 0.56175(5)
C28_3 C 0.04142(13) 0.73934(15) 0.53347(6)
H18_3 H 0.017132 0.694066 0.532150
O11_3 O 0.98228(7) 0.06952(8) 0.58079(4)
H20_3 H 0.885171 0.060875 0.529678
O13_3 O 0.93412(10) 0.16676(10) 0.62711(4)
O14_3 O 0.98261(10) 0.06758(10) 0.65206(4)
C29_3 C 0.95865(13) 0.13155(14) 0.65296(6)
C32_3 C 0.95953(13) 0.16798(15) 0.68862(6)
C33_3 C 0.65481(12) 0.50762(13) 0.88565(5)
C35_3 C 0.72135(13) 0.47109(16) 0.87233(6)
C38_3 C 0.79025(13) 0.50053(18) 0.87675(7)
H24_3 H 0.796262 0.546016 0.888244
C39_3 C 0.92606(15) 0.23651(17) 0.69220(7)
H25_3 H 0.904445 0.259426 0.672121
C42_3 C 0.99285(16) 0.13712(17) 0.71718(7)
C43_3 C 0.92524(16) 0.26937(18) 0.72503(7)
H28_3 H 0.900110 0.313920 0.727779
C45_3 C 0.96143(16) 0.2769(2) 0.78898(8)
C46_3 C 0.84162(15) 0.3974(2) 0.84605(8)
C47_3 C 0.95995(14) 0.2395(2) 0.75425(7)
C48_3 C 0.96644(15) 0.3497(2) 0.85474(8)
H30_3 H 0.968961 0.375960 0.876523
C49_3 C 0.99247(18) 0.1722(2) 0.75033(7)
C50_3 C 0.71342(15) 0.40562(19) 0.85352(9)
H32_3 H 0.666364 0.386519 0.849448
C51_3 C 0.85003(15) 0.4627(2) 0.86419(8)
H33_3 H 0.897258 0.481592 0.868016
C52_3 C 0.90507(16) 0.3551(2) 0.83309(8)
C54_3 C 0.90336(17) 0.3204(2) 0.80050(8)
H34_3 H 0.862218 0.326057 0.785507
C55_3 C 0.77206(17) 0.3696(2) 0.84115(10)
H35_3 H 0.765829 0.324818 0.829006
O19_3 O 0.97416(10) 0.20902(10) 0.56175(5)
C56_3 C 0.95858(13) 0.26066(15) 0.53347(6)
H36_3 H 0.982868 0.305934 0.532150
H1_3 H 0.985216 0.929266 0.561121
C2_3 C 0.72334(12) 0.70920(12) 0.93301(5)
C3_3 C 0.85727(14) 0.7078(2) 0.92576(7)
H3_3 H 0.862556 0.708856 0.951005
C6_3 C 0.78221(13) 0.71180(17) 0.87359(6)
H4_3 H 0.735628 0.715563 0.862979
C8_3 C 0.84332(14) 0.70651(18) 0.85210(6)
H5_3 H 0.838411 0.706705 0.826823
C9_3 C 0.78905(12) 0.71162(13) 0.91073(6)
C12_3 C 0.91066(15) 0.7010(2) 0.86725(7)
C13_3 C 0.91756(15) 0.7026(2) 0.90435(7)
H8_3 H 0.964273 0.700116 0.914913
H9_3 H 0.983550 0.908311 0.714638
C16_3 C 0.97910(16) 0.7292(2) 0.81123(7)
H11_3 H 0.939199 0.757920 0.803739
H13_3 H 0.985335 0.850353 0.770358
C25_3 C 0.97572(15) 0.6946(2) 0.84426(8)
C5_4 C 0.00762(13) 0.84519(12) 0.38565(5)
C10_4 C 0.00053(18) 0.70975(13) 0.37675(7)
H6_4 H 0.046016 0.703738 0.388244
O1_4 O 0.56952(8) 0.51772(7) 0.08079(4)
H1_4 H 0.570734 0.485216 0.061121
H2_4 H 0.560875 0.614829 0.029678
O3_4 O 0.66676(10) 0.56588(10) 0.12711(4)
O4_4 O 0.56758(10) 0.51739(10) 0.15206(4)
C1_4 C 0.63155(14) 0.54135(13) 0.15296(6)
C2_4 C 0.79080(12) 0.22334(12) 0.43301(5)
C3_4 C 0.7922(2) 0.35727(14) 0.42576(7)
H3_4 H 0.791144 0.362556 0.451005
C4_4 C 0.66798(15) 0.54047(13) 0.18862(6)
C6_4 C 0.78820(17) 0.28221(13) 0.37359(6)
H4_4 H 0.784437 0.235628 0.362979
C7_4 C 0.97109(16) 0.77865(13) 0.37233(6)
C8_4 C 0.79349(18) 0.34332(14) 0.35210(6)
H5_4 H 0.793295 0.338411 0.326823
C9_4 C 0.78838(13) 0.28905(12) 0.41073(6)
C11_4 C 0.73651(17) 0.57394(15) 0.19220(7)
H7_4 H 0.759426 0.595555 0.172121
C12_4 C 0.7990(2) 0.41066(15) 0.36725(7)
C13_4 C 0.7974(2) 0.41756(15) 0.40435(7)
H8_4 H 0.799884 0.464273 0.414913
C14_4 C 0.63712(17) 0.50715(16) 0.21718(7)
H9_4 H 0.591689 0.483550 0.214638
C15_4 C 0.76937(18) 0.57476(16) 0.22503(7)
H10_4 H 0.813920 0.599890 0.227779
C16_4 C 0.7708(2) 0.47910(16) 0.31123(7)
H11_4 H 0.742080 0.439199 0.303739
C17_4 C 0.7769(2) 0.53857(16) 0.28898(8)
C18_4 C 0.8974(2) 0.65838(15) 0.34605(8)
C19_4 C 0.7395(2) 0.54005(14) 0.25425(7)
C20_4 C 0.8497(2) 0.53356(15) 0.35474(8)
H12_4 H 0.875960 0.531039 0.376523
C21_4 C 0.6722(2) 0.50753(18) 0.25033(7)
H13_4 H 0.649647 0.485335 0.270358
C22_4 C 0.90562(19) 0.78658(15) 0.35352(9)
H14_4 H 0.886519 0.833636 0.349448
C23_4 C 0.9627(2) 0.64997(15) 0.36419(8)
H15_4 H 0.981592 0.602742 0.368016
C24_4 C 0.8551(2) 0.59493(16) 0.33309(8)
C25_4 C 0.8054(2) 0.47572(15) 0.34426(8)
C26_4 C 0.8204(2) 0.59664(17) 0.30050(8)
H16_4 H 0.826057 0.637782 0.285507
C27_4 C 0.8696(2) 0.72794(17) 0.34115(10)
H17_4 H 0.824818 0.734171 0.329006
O9_4 O 0.70902(10) 0.52584(10) 0.06175(5)
C28_4 C 0.76066(15) 0.54142(13) 0.03347(6)
H18_4 H 0.805934 0.517132 0.032150
O11_4 O 0.43048(8) 0.48228(7) 0.08079(4)
H19_4 H 0.429266 0.514784 0.061121
H20_4 H 0.439125 0.385171 0.029678
O13_4 O 0.33324(10) 0.43412(10) 0.12711(4)
O14_4 O 0.43242(10) 0.48261(10) 0.15206(4)
C29_4 C 0.36845(14) 0.45865(13) 0.15296(6)
C30_4 C 0.20920(12) 0.77666(12) 0.43301(5)
C31_4 C 0.2078(2) 0.64273(14) 0.42576(7)
H21_4 H 0.208856 0.637444 0.451005
C32_4 C 0.33202(15) 0.45953(13) 0.18862(6)
C34_4 C 0.21180(17) 0.71779(13) 0.37359(6)
H22_4 H 0.215563 0.764372 0.362979
C35_4 C 0.02891(16) 0.22135(13) 0.37233(6)
C36_4 C 0.20651(18) 0.65668(14) 0.35210(6)
H23_4 H 0.206705 0.661589 0.326823
C37_4 C 0.21162(13) 0.71095(12) 0.41073(6)
C39_4 C 0.26349(17) 0.42606(15) 0.19220(7)
H25_4 H 0.240574 0.404445 0.172121
C40_4 C 0.2010(2) 0.58934(15) 0.36725(7)
C41_4 C 0.2026(2) 0.58244(15) 0.40435(7)
H26_4 H 0.200116 0.535727 0.414913
C42_4 C 0.36288(17) 0.49285(16) 0.21718(7)
H27_4 H 0.408311 0.516450 0.214638
C43_4 C 0.23063(18) 0.42524(16) 0.22503(7)
H28_4 H 0.186080 0.400110 0.227779
C44_4 C 0.2292(2) 0.52090(16) 0.31123(7)
H29_4 H 0.257920 0.560801 0.303739
C45_4 C 0.2231(2) 0.46143(16) 0.28898(8)
C46_4 C 0.1026(2) 0.34162(15) 0.34605(8)
C47_4 C 0.2605(2) 0.45995(14) 0.25425(7)
C48_4 C 0.1503(2) 0.46644(15) 0.35474(8)
H30_4 H 0.124040 0.468961 0.376523
C49_4 C 0.3278(2) 0.49247(18) 0.25033(7)
H31_4 H 0.350353 0.514665 0.270358
C50_4 C 0.09438(19) 0.21342(15) 0.35352(9)
H32_4 H 0.113481 0.166364 0.349448
C51_4 C 0.0373(2) 0.35003(15) 0.36419(8)
H33_4 H 0.018408 0.397258 0.368016
C52_4 C 0.1449(2) 0.40507(16) 0.33309(8)
C53_4 C 0.1946(2) 0.52428(15) 0.34426(8)
C54_4 C 0.1796(2) 0.40336(17) 0.30050(8)
H34_4 H 0.173943 0.362218 0.285507
C55_4 C 0.1304(2) 0.27206(17) 0.34115(10)
H35_4 H 0.175182 0.265829 0.329006
O19_4 O 0.29098(10) 0.47416(10) 0.06175(5)
C56_4 C 0.23934(15) 0.45858(13) 0.03347(6)
H36_4 H 0.194066 0.482868 0.032150
C33_4 C 0.99238(13) 0.15481(12) 0.38565(5)
C38_4 C 0.99947(18) 0.29025(13) 0.37675(7)
H24_4 H 0.953984 0.296262 0.388244
loop_
_geom_bond_atom_site_label_1
_geom_bond_atom_site_label_2
_geom_bond_site_symmetry_1
_geom_bond_site_symmetry_2
C10 H6 1_555 1_555
O5 C5 1_555 1_555
Al10 O5 1_555 1_555
O21 Al3 1_555 1_555
O28 Al3 1_555 1_555
O30 Al3 1_555 1_555
Al1 O1 1_555 1_555
Al2 O1 1_555 1_555
Al3_2 O2 1_555 1_555
O1 H1 1_555 1_555
O2 Al2 1_555 1_555
H2 O2 1_555 1_555
O3 Al2 1_555 1_555
O4 Al1 1_555 1_555
C1 O3 1_555 1_555
C2 C9 1_555 1_555
C3 H3 1_555 1_555
C4 C1 1_555 1_555
C6 H4 1_555 1_555
C8 C6 1_555 1_555
H5 C8 1_555 1_555
C9 C3 1_555 1_555
C11 C4 1_555 1_555
H7 C11 1_555 1_555
C12 C8 1_555 1_555
C13 C3 1_555 1_555
H8 C13 1_555 1_555
C14 C4 1_555 1_555
H9 C14 1_555 1_555
C15 C11 1_555 1_555
H10 C15 1_555 1_555
C16 H11 1_555 1_555
C17 C16 1_555 1_555
C18 C23 1_555 1_555
C19 C15 1_555 1_555
C20 H12 1_555 1_555
C21 C14 1_555 1_555
H13 C21 1_555 1_555
C22 C7 1_555 1_555
H14 C22 1_555 1_555
H15 C23 1_555 1_555
C24 C18 1_555 1_555
C25 C12 1_555 1_555
C26 C17 1_555 1_555
H16 C26 1_555 1_555
C27 C18 1_555 1_555
H17 C27 1_555 1_555
O6 C2 1_555 1_555
O8 C2 1_555 1_555
O9 Al2 1_555 1_555
O10 Al3_2 1_555 1_555
C28 O9 1_555 1_555
H18 C28 1_555 1_555
Al4 O11 1_555 1_555
O11 Al1 1_555 1_555
H19 O11 1_555 1_555
O12 Al4 1_555 1_555
H20 O12 1_555 1_555
O13 Al4 1_555 1_555
O14 Al1 1_555 1_555
C29 O13 1_555 1_555
C30 C37 1_555 1_555
C31 H21 1_555 1_555
C32 C29 1_555 1_555
C34 H22 1_555 1_555
C36 C34 1_555 1_555
H23 C36 1_555 1_555
C37 C31 1_555 1_555
C39 C32 1_555 1_555
H25 C39 1_555 1_555
C40 C36 1_555 1_555
C41 C31 1_555 1_555
H26 C41 1_555 1_555
C42 C32 1_555 1_555
H27 C42 1_555 1_555
C43 C39 1_555 1_555
H28 C43 1_555 1_555
C44 H29 1_555 1_555
C45 C44 1_555 1_555
C46 C51 1_555 1_555
C47 C43 1_555 1_555
C48 H30 1_555 1_555
C49 C42 1_555 1_555
H31 C49 1_555 1_555
C50 C35 1_555 1_555
H32 C50 1_555 1_555
H33 C51 1_555 1_555
C52 C46 1_555 1_555
C53 C40 1_555 1_555
C54 C45 1_555 1_555
H34 C54 1_555 1_555
C55 C46 1_555 1_555
H35 C55 1_555 1_555
O16 C30 1_555 1_555
O18 C30 1_555 1_555
O19 Al4 1_555 1_555
O20 C56 1_555 1_555
C56 O19 1_555 1_555
H36 C56 1_555 1_555
Al6 O17 1_555 1_555
Al6_4 O7 1_555 1_555
Al8 O6 1_555 1_555
Al10 O16 1_555 1_555
Al11 O18 1_555 1_555
Al12_2 O12 1_555 1_555
Al13 O8 1_555 1_555
O22 Al4 1_555 1_555
O23 Al2 1_555 1_555
O24 Al2 1_555 1_555
O25 Al4 1_555 1_555
O26 Al1 1_555 1_555
O27 Al1 1_555 1_555
O29 Al3_2 1_555 1_555
O4 C1 1_555 1_555
C6 C9 1_555 1_555
C12 C13 1_555 1_555
C16 C25 1_555 1_555
C17 C19 1_555 1_555
C19 C21 1_555 1_555
C20 C24 1_555 1_555
C20 C25 1_555 1_555
C22 C27 1_555 1_555
C24 C26 1_555 1_555
O10 C28 1_555 1_555
O14 C29 1_555 1_555
C34 C37 1_555 1_555
C40 C41 1_555 1_555
C44 C53 1_555 1_555
C45 C47 1_555 1_555
C47 C49 1_555 1_555
C48 C52 1_555 1_555
C48 C53 1_555 1_555
C50 C55 1_555 1_555
C52 C54 1_555 1_555
O20 Al12_2 1_555 1_555
C38 H24 1_555 1_555
O15 C33 1_555 1_555
Al8 O15 1_555 1_555
C30_2 C37_2 1_555 1_555
C31_2 H21_2 1_555 1_555
C34_2 H22_2 1_555 1_555
C36_2 C34_2 1_555 1_555
H23_2 C36_2 1_555 1_555
C37_2 C31_2 1_555 1_555
C40_2 C36_2 1_555 1_555
C41_2 C31_2 1_555 1_555
H26_2 C41_2 1_555 1_555
C44_2 H29_2 1_555 1_555
C53_2 C40_2 1_555 1_555
O16_2 C30_2 1_555 1_555
O18_2 C30_2 1_555 1_555
Al9 O16_2 1_555 1_555
Al12 O18_2 1_555 1_555
O27_2 Al1_2 1_555 1_555
C34_2 C37_2 1_555 1_555
C40_2 C41_2 1_555 1_555
C44_2 C53_2 1_555 1_555
Al4_2 O11_2 1_555 1_555
O11_2 Al1_3 1_555 1_555
O12_2 Al4_2 1_555 1_555
H20_2 O12_2 1_555 1_555
O13_2 Al4_2 1_555 1_555
O14_2 Al1_3 1_555 1_555
C29_2 O13_2 1_555 1_555
C32_2 C29_2 1_555 1_555
C33_2 C35_2 1_555 1_555
C35_2 C38_2 1_555 1_555
C38_2 H24_2 1_555 1_555
C39_2 C32_2 1_555 1_555
H25_2 C39_2 1_555 1_555
C42_2 C32_2 1_555 1_555
C43_2 C39_2 1_555 1_555
H28_2 C43_2 1_555 1_555
C46_2 C51_2 1_555 1_555
C47_2 C43_2 1_555 1_555
C48_2 H30_2 1_555 1_555
C49_2 C42_2 1_555 1_555
C50_2 C35_2 1_555 1_555
H32_2 C50_2 1_555 1_555
C51_2 C38_2 1_555 1_555
H33_2 C51_2 1_555 1_555
C52_2 C46_2 1_555 1_555
C54_2 C45_2 1_555 1_555
H34_2 C54_2 1_555 1_555
C55_2 C46_2 1_555 1_555
H35_2 C55_2 1_555 1_555
O15_2 C33_2 1_555 1_555
O17_2 C33_2 1_555 1_555
O19_2 Al4_2 1_555 1_555
O20_2 C56_2 1_555 1_555
C56_2 O19_2 1_555 1_555
H36_2 C56_2 1_555 1_555
Al5 O17_2 1_555 1_555
Al7 O15_2 1_555 1_555
Al13 O12_2 1_555 1_555
O22_2 Al4_2 1_555 1_555
O25_2 Al4_2 1_555 1_555
O14_2 C29_2 1_555 1_555
C45_2 C47_2 1_555 1_555
C47_2 C49_2 1_555 1_555
C48_2 C52_2 1_555 1_555
C50_2 C55_2 1_555 1_555
C52_2 C54_2 1_555 1_555
O20_2 Al13 1_555 1_555
Al1_4 O1_2 1_555 1_555
Al2_2 O1_2 1_555 1_555
Al11 O2_2 1_555 1_555
O2_2 Al2_2 1_555 1_555
H2_2 O2_2 1_555 1_555
O3_2 Al2_2 1_555 1_555
O4_2 Al1_4 1_555 1_555
C1_2 O3_2 1_555 1_555
C4_2 C1_2 1_555 1_555
C5_2 C7_2 1_555 1_555
C7_2 C10_2 1_555 1_555
C10_2 H6_2 1_555 1_555
C11_2 C4_2 1_555 1_555
H7_2 C11_2 1_555 1_555
C14_2 C4_2 1_555 1_555
C15_2 C11_2 1_555 1_555
H10_2 C15_2 1_555 1_555
C18_2 C23_2 1_555 1_555
C19_2 C15_2 1_555 1_555
C20_2 H12_2 1_555 1_555
C21_2 C14_2 1_555 1_555
C22_2 C7_2 1_555 1_555
H14_2 C22_2 1_555 1_555
C23_2 C10_2 1_555 1_555
H15_2 C23_2 1_555 1_555
C24_2 C18_2 1_555 1_555
C26_2 C17_2 1_555 1_555
H16_2 C26_2 1_555 1_555
C27_2 C18_2 1_555 1_555
H17_2 C27_2 1_555 1_555
O5_2 C5_2 1_555 1_555
O7_2 C5_2 1_555 1_555
O9_2 Al2_2 1_555 1_555
O10_2 Al11 1_555 1_555
C28_2 O9_2 1_555 1_555
H18_2 C28_2 1_555 1_555
Al5 O7_2 1_555 1_555
Al9 O5_2 1_555 1_555
O21_2 Al11 1_555 1_555
O23_2 Al2_2 1_555 1_555
O24_2 Al2_2 1_555 1_555
O29_2 Al11 1_555 1_555
O30_2 Al11 1_555 1_555
O4_2 C1_2 1_555 1_555
C17_2 C19_2 1_555 1_555
C19_2 C21_2 1_555 1_555
C20_2 C24_2 1_555 1_555
C22_2 C27_2 1_555 1_555
C24_2 C26_2 1_555 1_555
O10_2 C28_2 1_555 1_555
C2_2 C9_2 1_555 1_555
C3_2 H3_2 1_555 1_555
C6_2 H4_2 1_555 1_555
C8_2 C6_2 1_555 1_555
H5_2 C8_2 1_555 1_555
C9_2 C3_2 1_555 1_555
C12_2 C8_2 1_555 1_555
C13_2 C3_2 1_555 1_555
H8_2 C13_2 1_555 1_555
C16_2 H11_2 1_555 1_555
C25_2 C12_2 1_555 1_555
O6_2 C2_2 1_555 1_555
O28 C2_2 1_555 1_555
Al7 O6_2 1_555 1_555
O26_2 Al1_5 1_555 1_555
C6_2 C9_2 1_555 1_555
C12_2 C13_2 1_555 1_555
C16_2 C25_2 1_555 1_555
O21_3 Al12 1_555 1_555
O30_3 Al12 1_555 1_555
O29_3 Al12_2 1_555 1_555
O21_4 Al13 1_555 1_555
O29_4 Al13 1_555 1_555
O30_4 Al13 1_555 1_555
C30_3 C37_3 1_555 1_555
C31_3 H21_3 1_555 1_555
C34_3 H22_3 1_555 1_555
C36_3 C34_3 1_555 1_555
H23_3 C36_3 1_555 1_555
C37_3 C31_3 1_555 1_555
C40_3 C36_3 1_555 1_555
C41_3 C31_3 1_555 1_555
H26_3 C41_3 1_555 1_555
C44_3 H29_3 1_555 1_555
C53_3 C40_3 1_555 1_555
O25 C30_3 1_555 1_555
O29_3 C30_3 1_555 1_555
C34_3 C37_3 1_555 1_555
C40_3 C41_3 1_555 1_555
C44_3 C53_3 1_555 1_555
Al6_2 O1_3 1_555 1_555
Al8 O1_3 1_555 1_555
O21_4 Al8 1_555 1_555
H2_3 O21_4 1_555 1_555
O3_3 Al8 1_555 1_555
O4_3 Al6_2 1_555 1_555
C1_3 O3_3 1_555 1_555
C4_3 C1_3 1_555 1_555
C5_3 C7_3 1_555 1_555
C7_3 C10_3 1_555 1_555
C10_3 H6_3 1_555 1_555
C11_3 C4_3 1_555 1_555
H7_3 C11_3 1_555 1_555
C14_3 C4_3 1_555 1_555
C15_3 C11_3 1_555 1_555
H10_3 C15_3 1_555 1_555
C18_3 C23_3 1_555 1_555
C19_3 C15_3 1_555 1_555
C20_3 H12_3 1_555 1_555
C21_3 C14_3 1_555 1_555
C22_3 C7_3 1_555 1_555
H14_3 C22_3 1_555 1_555
C23_3 C10_3 1_555 1_555
H15_3 C23_3 1_555 1_555
C24_3 C18_3 1_555 1_555
C26_3 C17_3 1_555 1_555
H16_3 C26_3 1_555 1_555
C27_3 C18_3 1_555 1_555
H17_3 C27_3 1_555 1_555
O22 C5_3 1_555 1_555
O26 C5_3 1_555 1_555
O9_3 Al8 1_555 1_555
C28_3 O9_3 1_555 1_555
H18_3 C28_3 1_555 1_555
O4_3 C1_3 1_555 1_555
C17_3 C19_3 1_555 1_555
C19_3 C21_3 1_555 1_555
C20_3 C24_3 1_555 1_555
C22_3 C27_3 1_555 1_555
C24_3 C26_3 1_555 1_555
O30_4 C28_3 1_555 1_555
Al10 O11_3 1_555 1_555
O11_3 Al6_3 1_555 1_555
O21_2 Al10 1_555 1_555
H20_3 O21_2 1_555 1_555
O13_3 Al10 1_555 1_555
O14_3 Al6_3 1_555 1_555
C29_3 O13_3 1_555 1_555
C32_3 C29_3 1_555 1_555
C33_3 C35_3 1_555 1_555
C35_3 C38_3 1_555 1_555
C38_3 H24_3 1_555 1_555
C39_3 C32_3 1_555 1_555
H25_3 C39_3 1_555 1_555
C42_3 C32_3 1_555 1_555
C43_3 C39_3 1_555 1_555
H28_3 C43_3 1_555 1_555
C46_3 C51_3 1_555 1_555
C47_3 C43_3 1_555 1_555
C48_3 H30_3 1_555 1_555
C49_3 C42_3 1_555 1_555
C50_3 C35_3 1_555 1_555
H32_3 C50_3 1_555 1_555
C51_3 C38_3 1_555 1_555
H33_3 C51_3 1_555 1_555
C52_3 C46_3 1_555 1_555
C54_3 C45_3 1_555 1_555
H34_3 C54_3 1_555 1_555
C55_3 C46_3 1_555 1_555
H35_3 C55_3 1_555 1_555
O23 C33_3 1_555 1_555
O27 C33_3 1_555 1_555
O19_3 Al10 1_555 1_555
O30_2 C56_3 1_555 1_555
C56_3 O19_3 1_555 1_555
H36_3 C56_3 1_555 1_555
O14_3 C29_3 1_555 1_555
C45_3 C47_3 1_555 1_555
C47_3 C49_3 1_555 1_555
C48_3 C52_3 1_555 1_555
C50_3 C55_3 1_555 1_555
C52_3 C54_3 1_555 1_555
C2_3 C9_3 1_555 1_555
C3_3 H3_3 1_555 1_555
C6_3 H4_3 1_555 1_555
C8_3 C6_3 1_555 1_555
H5_3 C8_3 1_555 1_555
C9_3 C3_3 1_555 1_555
C12_3 C8_3 1_555 1_555
C13_3 C3_3 1_555 1_555
H8_3 C13_3 1_555 1_555
C16_3 H11_3 1_555 1_555
C25_3 C12_3 1_555 1_555
O24 C2_3 1_555 1_555
O29 C2_3 1_555 1_555
C6_3 C9_3 1_555 1_555
C12_3 C13_3 1_555 1_555
C16_3 C25_3 1_555 1_555
C10_4 H6_4 1_555 1_555
O22_2 C5_4 1_555 1_555
Al5 O1_4 1_555 1_555
Al7 O1_4 1_555 1_555
O1_4 H1_4 1_555 1_555
O21 Al7 1_555 1_555
H2_4 O21 1_555 1_555
O3_4 Al7 1_555 1_555
O4_4 Al5 1_555 1_555
C1_4 O3_4 1_555 1_555
C2_4 C9_4 1_555 1_555
C3_4 H3_4 1_555 1_555
C4_4 C1_4 1_555 1_555
C6_4 H4_4 1_555 1_555
C8_4 C6_4 1_555 1_555
H5_4 C8_4 1_555 1_555
C9_4 C3_4 1_555 1_555
C11_4 C4_4 1_555 1_555
H7_4 C11_4 1_555 1_555
C12_4 C8_4 1_555 1_555
C13_4 C3_4 1_555 1_555
H8_4 C13_4 1_555 1_555
C14_4 C4_4 1_555 1_555
H9_4 C14_4 1_555 1_555
C15_4 C11_4 1_555 1_555
H10_4 C15_4 1_555 1_555
C16_4 H11_4 1_555 1_555
C17_4 C16_4 1_555 1_555
C18_4 C23_4 1_555 1_555
C19_4 C15_4 1_555 1_555
C20_4 H12_4 1_555 1_555
C21_4 C14_4 1_555 1_555
H13_4 C21_4 1_555 1_555
C22_4 C7_4 1_555 1_555
H14_4 C22_4 1_555 1_555
H15_4 C23_4 1_555 1_555
C24_4 C18_4 1_555 1_555
C25_4 C12_4 1_555 1_555
C26_4 C17_4 1_555 1_555
H16_4 C26_4 1_555 1_555
C27_4 C18_4 1_555 1_555
H17_4 C27_4 1_555 1_555
O24_2 C2_4 1_555 1_555
O29_2 C2_4 1_555 1_555
O9_4 Al7 1_555 1_555
C28_4 O9_4 1_555 1_555
H18_4 C28_4 1_555 1_555
Al9 O11_4 1_555 1_555
O11_4 Al5 1_555 1_555
H19_4 O11_4 1_555 1_555
O21_3 Al9 1_555 1_555
H20_4 O21_3 1_555 1_555
O13_4 Al9 1_555 1_555
O14_4 Al5 1_555 1_555
C29_4 O13_4 1_555 1_555
C30_4 C37_4 1_555 1_555
C31_4 H21_4 1_555 1_555
C32_4 C29_4 1_555 1_555
C34_4 H22_4 1_555 1_555
C36_4 C34_4 1_555 1_555
H23_4 C36_4 1_555 1_555
C37_4 C31_4 1_555 1_555
C39_4 C32_4 1_555 1_555
H25_4 C39_4 1_555 1_555
C40_4 C36_4 1_555 1_555
C41_4 C31_4 1_555 1_555
H26_4 C41_4 1_555 1_555
C42_4 C32_4 1_555 1_555
H27_4 C42_4 1_555 1_555
C43_4 C39_4 1_555 1_555
H28_4 C43_4 1_555 1_555
C44_4 H29_4 1_555 1_555
C45_4 C44_4 1_555 1_555
C46_4 C51_4 1_555 1_555
C47_4 C43_4 1_555 1_555
C48_4 H30_4 1_555 1_555
C49_4 C42_4 1_555 1_555
H31_4 C49_4 1_555 1_555
C50_4 C35_4 1_555 1_555
H32_4 C50_4 1_555 1_555
H33_4 C51_4 1_555 1_555
C52_4 C46_4 1_555 1_555
C53_4 C40_4 1_555 1_555
C54_4 C45_4 1_555 1_555
H34_4 C54_4 1_555 1_555
C55_4 C46_4 1_555 1_555
H35_4 C55_4 1_555 1_555
O25_2 C30_4 1_555 1_555
O29_4 C30_4 1_555 1_555
O19_4 Al9 1_555 1_555
O30_3 C56_4 1_555 1_555
C56_4 O19_4 1_555 1_555
H36_4 C56_4 1_555 1_555
O4_4 C1_4 1_555 1_555
C6_4 C9_4 1_555 1_555
C12_4 C13_4 1_555 1_555
C16_4 C25_4 1_555 1_555
C17_4 C19_4 1_555 1_555
C19_4 C21_4 1_555 1_555
C20_4 C24_4 1_555 1_555
C20_4 C25_4 1_555 1_555
C22_4 C27_4 1_555 1_555
C24_4 C26_4 1_555 1_555
O30 C28_4 1_555 1_555
O14_4 C29_4 1_555 1_555
C34_4 C37_4 1_555 1_555
C40_4 C41_4 1_555 1_555
C44_4 C53_4 1_555 1_555
C45_4 C47_4 1_555 1_555
C47_4 C49_4 1_555 1_555
C48_4 C52_4 1_555 1_555
C48_4 C53_4 1_555 1_555
C50_4 C55_4 1_555 1_555
C52_4 C54_4 1_555 1_555
C38_4 H24_4 1_555 1_555
O23_2 C33_4 1_555 1_555

#END
