
###############################################################################
#
# This file contains modified crystal structure data generated from the
# MOF subset of the Cambridge Structural Database (CSD) v543 
# hosted by the Cambridge Crystallographic Data Centre (CCDC).
#
# This work is licensed under the Creative Commons
# Attribution-NonCommercial-ShareAlike 4.0 International License.
# To view a copy of this license, visit
# http://creativecommons.org/licenses/by-nc-sa/4.0/
# or send a letter to
# Creative Commons, PO Box 1866, Mountain View, CA 94042, USA.
#
# CIF created using the CSD Python API on 29 September 2022
# The structure has been converted into the P1 space group
# The structure has a 3D framework
# The original CSD entry QOXQEC is in the tetragonal crystal system
# The original CSD entry QOXQEC is in a Sohncke space group
# The framework has been calculated to contain at least 10.0% void space
# The void calculation uses a probe of radius 1.32A, grid spacing 0.4
#
###############################################################################

data_QOXQEC
_chemical_formula_moiety         '(C224 H168 Al16 O84 P8)n'
_symmetry_cell_setting           triclinic
_symmetry_space_group_name_H-M   'P 1'
_symmetry_Int_Tables_number      1
_space_group_name_Hall           'P 1'
loop_
_symmetry_equiv_pos_site_id
_symmetry_equiv_pos_as_xyz
1 x,y,z
_cell_length_a                   18.7104(5)
_cell_length_b                   18.7104(5)
_cell_length_c                   37.1528(11)
_cell_angle_alpha                90
_cell_angle_beta                 90
_cell_angle_gamma                90
_cell_volume                     13006.4
loop_
_atom_site_label
_atom_site_type_symbol
_atom_site_fract_x
_atom_site_fract_y
_atom_site_fract_z
Al2 Al -0.000000 -0.000000 0.88430(2)
H2 H 0.068393 0.011752 0.939577
C2 C 0.29229(12) 0.20970(11) 0.58906(5)
C3 C 0.29586(11) 0.27596(11) 0.56731(5)
C7 C 0.29616(13) 0.21517(12) 0.62663(5)
H5 H 0.296325 0.260912 0.637727
C9 C 0.30123(14) 0.08656(13) 0.63140(6)
C11 C 0.29969(13) 0.15503(12) 0.64733(6)
H6 H 0.301124 0.159299 0.672795
C14 C 0.29337(14) 0.14351(12) 0.57370(6)
H7 H 0.290792 0.139554 0.548236
C15 C 0.27231(14) 0.01939(12) 0.68733(6)
H8 H 0.245802 0.059718 0.695282
C18 C 0.29809(16) 0.08254(13) 0.59402(6)
H11 H 0.299224 0.037215 0.582506
H13 H 0.090598 0.012838 0.782847
C24 C 0.30692(15) 0.02209(12) 0.65417(6)
H15 H 0.148380 0.010786 0.727446
O5 O 0.29816(7) 0.33480(7) 0.58386(3)
O9 O 0.29667(7) 0.26961(7) 0.53354(3)
O11 O 0.2788(3) 0.02800(19) 0.98507(10)
H18 H 0.282452 0.060752 0.969711
Al8 Al 0.36597(3) 0.40867(3) 0.58066(2)
Al13 Al 0.33621(3) 0.33621(3) 0.500000
O29 O 0.02957(7) 0.09574(7) 0.88145(3)
Al3 Al 0.16379(3) 0.83621(3) 0.000000
O23 O 0.12421(7) 0.89306(7) 0.03581(3)
O30 O 0.23039(7) 0.79667(7) 0.03354(3)
O32 O 0.09536(8) 0.76294(7) 0.00956(4)
Al1 Al 0.13403(3) 0.90867(3) 0.91934(2)
Al2_2 Al -0.000000 1.000000 0.88430(2)
Al3_2 Al 0.16379(3) 0.83621(3) 1.000000
O1 O 0.10694(7) 0.87579(7) 0.96419(3)
H1 H 0.057485 0.879616 0.969649
O2 O 0.06789(7) 0.98072(7) 0.91934(3)
O3 O 0.06780(8) 0.98172(8) 0.84678(3)
O4 O 0.16484(8) 0.93419(7) 0.87231(4)
C1 C 0.12989(13) 0.95863(11) 0.84618(6)
C4 C 0.49619(14) 0.78732(11) 0.62260(5)
H3 H 0.540988 0.793030 0.610914
C5 C 0.50535(12) 0.65345(11) 0.61537(5)
C6 C 0.40222(13) 0.71211(12) 0.64552(6)
H4 H 0.382530 0.665932 0.649347
C8 C 0.16805(12) 0.95878(11) 0.81077(5)
C10 C 0.39409(14) 0.83953(12) 0.65187(6)
C12 C 0.46765(12) 0.71905(11) 0.62789(5)
C13 C 0.23888(14) 0.95823(12) 0.74429(6)
C16 C 0.23425(13) 0.92667(13) 0.80749(6)
H9 H 0.255833 0.904487 0.827756
C17 C 0.45869(15) 0.84647(13) 0.63453(6)
H10 H 0.477938 0.892824 0.630675
C19 C 0.34856(15) 0.96430(13) 0.64324(6)
H12 H 0.374274 0.966150 0.621213
C20 C 0.13607(13) 0.99067(13) 0.78067(6)
C21 C 0.27569(14) 0.95903(13) 0.70902(6)
C22 C 0.35206(15) 0.90319(13) 0.66522(7)
C23 C 0.31793(14) 0.90247(13) 0.69751(6)
H14 H 0.323143 0.861946 0.712690
C25 C 0.17068(14) 0.98985(14) 0.74786(6)
C26 C 0.26956(14) 0.92689(13) 0.77413(6)
H16 H 0.315258 0.905138 0.772091
C27 C 0.36621(15) 0.77109(13) 0.65732(7)
H17 H 0.321762 0.765553 0.669360
O6 O 0.56776(8) 0.65952(7) 0.60316(3)
O7 O 0.20420(7) 0.97077(7) 0.93844(3)
O8 O 0.47043(7) 0.59574(7) 0.61855(3)
P1 P 0.25555(6) 0.95809(6) 0.96628(3)
O10 O 0.23706(7) 0.90464(8) 0.99044(4)
C28 C 0.3427(3) 0.9391(4) 0.9429(2)
H19 H 0.334295 0.933579 0.916994
H20 H 0.363436 0.894908 0.952502
H21 H 0.375876 0.978812 0.946960
Al6 Al 0.63403(3) 0.59133(3) 0.58066(2)
Al10 Al 0.500000 0.500000 0.61570(2)
O25 O 0.20184(7) 0.83480(7) 0.91614(3)
O26 O 0.06776(8) 0.84048(7) 0.89684(3)
O31 O 0.20333(7) 0.76961(7) 0.96646(3)
Al12 Al 0.83621(3) 0.16379(3) 0.000000
Al2_3 Al 1.000000 -0.000000 0.88430(2)
Al4 Al 0.86597(3) 0.09133(3) 0.91934(2)
O12 O 0.89306(7) 0.12421(7) 0.96419(3)
H22 H 0.942515 0.120384 0.969649
O13 O 0.93211(7) 0.01928(7) 0.91934(3)
O14 O 0.93220(8) 0.01828(8) 0.84678(3)
O15 O 0.83516(8) 0.06581(7) 0.87231(4)
C29 C 0.87011(13) 0.04137(11) 0.84618(6)
C32 C 0.50381(14) 0.21268(11) 0.62260(5)
H24 H 0.459012 0.206970 0.610914
C33 C 0.49465(12) 0.34655(11) 0.61537(5)
C34 C 0.59778(13) 0.28789(12) 0.64552(6)
H25 H 0.617470 0.334068 0.649347
C36 C 0.83195(12) 0.04122(11) 0.81077(5)
C38 C 0.60591(14) 0.16047(12) 0.65187(6)
C40 C 0.53235(12) 0.28095(11) 0.62789(5)
C41 C 0.76112(14) 0.04177(12) 0.74429(6)
C44 C 0.76575(13) 0.07333(13) 0.80749(6)
H30 H 0.744167 0.095513 0.827756
C45 C 0.54131(15) 0.15353(13) 0.63453(6)
H31 H 0.522062 0.107176 0.630675
C47 C 0.65144(15) 0.03570(13) 0.64324(6)
H33 H 0.625726 0.033850 0.621213
C48 C 0.86393(13) 0.00933(13) 0.78067(6)
C49 C 0.72431(14) 0.04097(13) 0.70902(6)
C50 C 0.64794(15) 0.09681(13) 0.66522(7)
C51 C 0.68207(14) 0.09753(13) 0.69751(6)
H35 H 0.676857 0.138054 0.712690
C53 C 0.82932(14) 0.01015(14) 0.74786(6)
C54 C 0.73044(14) 0.07311(13) 0.77413(6)
H37 H 0.684742 0.094862 0.772091
C55 C 0.63379(15) 0.22891(13) 0.65732(7)
H38 H 0.678238 0.234447 0.669360
O17 O 0.43224(8) 0.34048(7) 0.60316(3)
O18 O 0.79580(7) 0.02923(7) 0.93844(3)
O19 O 0.52957(7) 0.40426(7) 0.61855(3)
P2 P 0.74445(6) 0.04191(6) 0.96628(3)
O21 O 0.76294(7) 0.09536(8) 0.99044(4)
C56 C 0.6573(3) 0.0609(4) 0.9429(2)
H40 H 0.665705 0.066421 0.916994
H41 H 0.636564 0.105092 0.952502
H42 H 0.624124 0.021188 0.946960
Al12_2 Al 0.83621(3) 0.16379(3) 1.000000
O24 O 0.79816(7) 0.16520(7) 0.91614(3)
O27 O 0.93224(8) 0.15952(7) 0.89684(3)
Al2_4 Al 1.000000 1.000000 0.88430(2)
H23 H 0.931607 0.988248 0.939577
C30 C 0.70771(12) 0.79030(11) 0.58906(5)
C31 C 0.70414(11) 0.72404(11) 0.56731(5)
C35 C 0.70384(13) 0.78483(12) 0.62663(5)
H26 H 0.703675 0.739088 0.637727
C37 C 0.69877(14) 0.91344(13) 0.63140(6)
C39 C 0.70031(13) 0.84497(12) 0.64733(6)
H27 H 0.698876 0.840701 0.672795
C42 C 0.70663(14) 0.85649(12) 0.57370(6)
H28 H 0.709208 0.860446 0.548236
C43 C 0.72769(14) 0.98061(12) 0.68733(6)
H29 H 0.754198 0.940282 0.695282
C46 C 0.70191(16) 0.91746(13) 0.59402(6)
H32 H 0.700776 0.962785 0.582506
H34 H 0.909402 0.987162 0.782847
C52 C 0.69308(15) 0.97791(12) 0.65417(6)
H36 H 0.851620 0.989214 0.727446
O16 O 0.70184(7) 0.66520(7) 0.58386(3)
O20 O 0.70333(7) 0.73039(7) 0.53354(3)
O22 O 0.7212(3) 0.97200(19) 0.98507(10)
H39 H 0.717548 0.939248 0.969711
Al11 Al 0.66379(3) 0.66379(3) 0.500000
O28 O 0.97043(7) 0.90426(7) 0.88145(3)
Al10_2 Al -0.000000 0.000000 0.11570(2)
Al10_3 Al -0.000000 1.000000 0.11570(2)
H3_2 H 0.706970 0.040988 0.110914
C5_2 C 0.84655(11) 0.00535(12) 0.11537(5)
O6_2 O 0.84048(7) 0.06776(8) 0.10316(3)
Al6_2 Al 0.90867(3) 0.13403(3) 0.08066(2)
Al10_4 Al 1.000000 0.000000 0.11570(2)
Al1_2 Al 0.59133(3) 0.63403(3) 0.41934(2)
Al2_5 Al 0.500000 0.500000 0.38430(2)
O1_2 O 0.62421(7) 0.60694(7) 0.46419(3)
H1_2 H 0.620384 0.557485 0.469649
O2_2 O 0.51928(7) 0.56789(7) 0.41934(3)
H2_2 H 0.488248 0.568393 0.439577
O3_2 O 0.51828(8) 0.56780(8) 0.34678(3)
O4_2 O 0.56581(7) 0.66484(8) 0.37231(4)
C1_2 C 0.54137(11) 0.62989(13) 0.34618(6)
C2_2 C 0.29030(11) 0.79229(12) 0.08906(5)
C3_2 C 0.22404(11) 0.79586(11) 0.06731(5)
C4_2 C 0.71268(11) 0.99619(14) 0.12260(5)
C6_2 C 0.78789(12) 0.90222(13) 0.14552(6)
H4_2 H 0.834068 0.882530 0.149347
C7_2 C 0.28483(12) 0.79616(13) 0.12663(5)
H5_2 H 0.239088 0.796325 0.137727
C8_2 C 0.54122(11) 0.66805(12) 0.31077(5)
C9_2 C 0.41344(13) 0.80123(14) 0.13140(6)
C10_2 C 0.66047(12) 0.89409(14) 0.15187(6)
C11_2 C 0.34497(12) 0.79969(13) 0.14733(6)
H6_2 H 0.340701 0.801124 0.172795
C12_2 C 0.78095(11) 0.96765(12) 0.12789(5)
C13_2 C 0.54177(12) 0.73888(14) 0.24429(6)
C14_2 C 0.35649(12) 0.79337(14) 0.07370(6)
H7_2 H 0.360446 0.790792 0.048236
C15_2 C 0.48061(12) 0.77231(14) 0.18733(6)
H8_2 H 0.440282 0.745802 0.195282
C16_2 C 0.57333(13) 0.73425(13) 0.30749(6)
H9_2 H 0.595513 0.755833 0.327756
C17_2 C 0.65353(13) 0.95869(15) 0.13453(6)
H10_2 H 0.607176 0.977938 0.130675
C18_2 C 0.41746(13) 0.79809(16) 0.09402(6)
H11_2 H 0.462785 0.799224 0.082506
C19_2 C 0.53570(13) 0.84856(15) 0.14324(6)
H12_2 H 0.533850 0.874274 0.121213
C20_2 C 0.50933(13) 0.63607(13) 0.28067(6)
H13_2 H 0.487162 0.590598 0.282847
C21_2 C 0.54097(13) 0.77569(14) 0.20902(6)
C22_2 C 0.59681(13) 0.85206(15) 0.16522(7)
C23_2 C 0.59753(13) 0.81793(14) 0.19751(6)
H14_2 H 0.638054 0.823143 0.212690
C24_2 C 0.47791(12) 0.80692(15) 0.15417(6)
C25_2 C 0.51015(14) 0.67068(14) 0.24786(6)
H15_2 H 0.489214 0.648380 0.227446
C26_2 C 0.57311(13) 0.76956(14) 0.27413(6)
H16_2 H 0.594862 0.815258 0.272091
C27_2 C 0.72891(13) 0.86621(15) 0.15732(7)
H17_2 H 0.734447 0.821762 0.169360
O5_2 O 0.16520(7) 0.79816(7) 0.08386(3)
O7_2 O 0.52923(7) 0.70420(7) 0.43844(3)
O8_2 O 0.90426(7) 0.97043(7) 0.11855(3)
P1_2 P 0.54191(6) 0.75555(6) 0.46628(3)
O10_2 O 0.59536(8) 0.73706(7) 0.49044(4)
O11_2 O 0.47200(19) 0.7788(3) 0.48507(10)
H18_2 H 0.439248 0.782452 0.469711
C28_2 C 0.5609(4) 0.8427(3) 0.4429(2)
H19_2 H 0.566421 0.834295 0.416994
H20_2 H 0.605092 0.863436 0.452502
H21_2 H 0.521188 0.875876 0.446960
Al4_2 Al 0.40867(3) 0.36597(3) 0.41934(2)
O12_2 O 0.37579(7) 0.39306(7) 0.46419(3)
H22_2 H 0.379616 0.442515 0.469649
O13_2 O 0.48072(7) 0.43211(7) 0.41934(3)
H23_2 H 0.511752 0.431607 0.439577
O14_2 O 0.48172(8) 0.43220(8) 0.34678(3)
O15_2 O 0.43419(7) 0.33516(8) 0.37231(4)
C29_2 C 0.45863(11) 0.37011(13) 0.34618(6)
C30_2 C 0.70970(11) 0.20771(12) 0.08906(5)
C31_2 C 0.77596(11) 0.20414(11) 0.06731(5)
C32_2 C 0.28732(11) 0.00381(14) 0.12260(5)
C34_2 C 0.21211(12) 0.09778(13) 0.14552(6)
H25_2 H 0.165932 0.117470 0.149347
C35_2 C 0.71517(12) 0.20384(13) 0.12663(5)
H26_2 H 0.760912 0.203675 0.137727
C36_2 C 0.45878(11) 0.33195(12) 0.31077(5)
C37_2 C 0.58656(13) 0.19877(14) 0.13140(6)
C38_2 C 0.33953(12) 0.10591(14) 0.15187(6)
C39_2 C 0.65503(12) 0.20031(13) 0.14733(6)
H27_2 H 0.659299 0.198876 0.172795
C40_2 C 0.21905(11) 0.03235(12) 0.12789(5)
C41_2 C 0.45823(12) 0.26112(14) 0.24429(6)
C42_2 C 0.64351(12) 0.20663(14) 0.07370(6)
H28_2 H 0.639554 0.209208 0.048236
C43_2 C 0.51939(12) 0.22769(14) 0.18733(6)
H29_2 H 0.559718 0.254198 0.195282
C44_2 C 0.42667(13) 0.26575(13) 0.30749(6)
H30_2 H 0.404487 0.244167 0.327756
C45_2 C 0.34647(13) 0.04131(15) 0.13453(6)
H31_2 H 0.392824 0.022062 0.130675
C46_2 C 0.58254(13) 0.20191(16) 0.09402(6)
H32_2 H 0.537215 0.200776 0.082506
C47_2 C 0.46430(13) 0.15144(15) 0.14324(6)
H33_2 H 0.466150 0.125726 0.121213
C48_2 C 0.49067(13) 0.36393(13) 0.28067(6)
H34_2 H 0.512838 0.409402 0.282847
C49_2 C 0.45903(13) 0.22431(14) 0.20902(6)
C50_2 C 0.40319(13) 0.14794(15) 0.16522(7)
C51_2 C 0.40247(13) 0.18207(14) 0.19751(6)
H35_2 H 0.361946 0.176857 0.212690
C52_2 C 0.52209(12) 0.19308(15) 0.15417(6)
C53_2 C 0.48985(14) 0.32932(14) 0.24786(6)
H36_2 H 0.510786 0.351620 0.227446
C54_2 C 0.42689(13) 0.23044(14) 0.27413(6)
H37_2 H 0.405138 0.184742 0.272091
C55_2 C 0.27109(13) 0.13379(15) 0.15732(7)
H38_2 H 0.265553 0.178238 0.169360
O16_2 O 0.83480(7) 0.20184(7) 0.08386(3)
O18_2 O 0.47077(7) 0.29580(7) 0.43844(3)
O19_2 O 0.09574(7) 0.02957(7) 0.11855(3)
O20_2 O 0.76961(7) 0.20333(7) 0.03354(3)
P2_2 P 0.45809(6) 0.24445(6) 0.46628(3)
O21_2 O 0.40464(8) 0.26294(7) 0.49044(4)
O22_2 O 0.52800(19) 0.2212(3) 0.48507(10)
H39_2 H 0.560752 0.217548 0.469711
C56_2 C 0.4391(4) 0.1573(3) 0.4429(2)
H40_2 H 0.433579 0.165705 0.416994
H41_2 H 0.394908 0.136564 0.452502
H42_2 H 0.478812 0.124124 0.446960
Al8_2 Al 0.09133(3) 0.86597(3) 0.08066(2)
Al10_5 Al 1.000000 1.000000 0.11570(2)
O23_2 O 0.60694(7) 0.62421(7) 0.53581(3)
O24_2 O 0.33480(7) 0.29816(7) 0.41614(3)
O25_2 O 0.66520(7) 0.70184(7) 0.41614(3)
O26_2 O 0.65952(7) 0.56776(8) 0.39684(3)
O27_2 O 0.34048(7) 0.43224(8) 0.39684(3)
O28_2 O 0.59574(7) 0.47043(7) 0.38145(3)
O29_2 O 0.40426(7) 0.52957(7) 0.38145(3)
O31_2 O 0.73039(7) 0.70333(7) 0.46646(3)
O32_2 O 0.73706(7) 0.59536(8) 0.50956(4)
H24_2 H 0.293030 0.959012 0.110914
C33_2 C 0.15345(11) 0.99465(12) 0.11537(5)
O17_2 O 0.15952(7) 0.93224(8) 0.10316(3)
O23_3 O 0.87579(7) 0.10694(7) 0.03581(3)
O32_3 O 0.90464(8) 0.23706(7) 0.00956(4)
O31_3 O 0.79667(7) 0.23039(7) 0.96646(3)
O23_4 O 0.39306(7) 0.37579(7) 0.53581(3)
O31_4 O 0.26961(7) 0.29667(7) 0.46646(3)
O32_4 O 0.26294(7) 0.40464(8) 0.50956(4)
H3_3 H 0.040988 0.706970 0.889086
C5_3 C 0.00535(12) 0.84655(11) 0.88463(5)
H1_3 H 0.557485 0.620384 0.530351
O2_3 O 0.56789(7) 0.51928(7) 0.58066(3)
H2_3 H 0.568393 0.488248 0.560423
O3_3 O 0.56780(8) 0.51828(8) 0.65322(3)
O4_3 O 0.66484(8) 0.56581(7) 0.62769(4)
C1_3 C 0.62989(13) 0.54137(11) 0.65382(6)
C2_3 C 0.79229(12) 0.29030(11) 0.91094(5)
C3_3 C 0.79586(11) 0.22404(11) 0.93269(5)
C4_3 C 0.99619(14) 0.71268(11) 0.87740(5)
C6_3 C 0.90222(13) 0.78789(12) 0.85448(6)
H4_3 H 0.882530 0.834068 0.850653
C7_3 C 0.79616(13) 0.28483(12) 0.87337(5)
H5_3 H 0.796325 0.239088 0.862273
C8_3 C 0.66805(12) 0.54122(11) 0.68923(5)
C9_3 C 0.80123(14) 0.41344(13) 0.86860(6)
C10_3 C 0.89409(14) 0.66047(12) 0.84813(6)
C11_3 C 0.79969(13) 0.34497(12) 0.85267(6)
H6_3 H 0.801124 0.340701 0.827205
C12_3 C 0.96765(12) 0.78095(11) 0.87211(5)
C13_3 C 0.73888(14) 0.54177(12) 0.75571(6)
C14_3 C 0.79337(14) 0.35649(12) 0.92630(6)
H7_3 H 0.790792 0.360446 0.951764
C15_3 C 0.77231(14) 0.48061(12) 0.81267(6)
H8_3 H 0.745802 0.440282 0.804718
C16_3 C 0.73425(13) 0.57333(13) 0.69251(6)
H9_3 H 0.755833 0.595513 0.672244
C17_3 C 0.95869(15) 0.65353(13) 0.86547(6)
H10_3 H 0.977938 0.607176 0.869325
C18_3 C 0.79809(16) 0.41746(13) 0.90598(6)
H11_3 H 0.799224 0.462785 0.917494
C19_3 C 0.84856(15) 0.53570(13) 0.85676(6)
H12_3 H 0.874274 0.533850 0.878787
C20_3 C 0.63607(13) 0.50933(13) 0.71933(6)
H13_3 H 0.590598 0.487162 0.717153
C21_3 C 0.77569(14) 0.54097(13) 0.79098(6)
C22_3 C 0.85206(15) 0.59681(13) 0.83478(7)
C23_3 C 0.81793(14) 0.59753(13) 0.80249(6)
H14_3 H 0.823143 0.638054 0.787310
C24_3 C 0.80692(15) 0.47791(12) 0.84583(6)
C25_3 C 0.67068(14) 0.51015(14) 0.75214(6)
H15_3 H 0.648380 0.489214 0.772554
C26_3 C 0.76956(14) 0.57311(13) 0.72587(6)
H16_3 H 0.815258 0.594862 0.727909
C27_3 C 0.86621(15) 0.72891(13) 0.84268(7)
H17_3 H 0.821762 0.734447 0.830640
O7_3 O 0.70420(7) 0.52923(7) 0.56156(3)
P1_3 P 0.75555(6) 0.54191(6) 0.53372(3)
O11_3 O 0.7788(3) 0.47200(19) 0.51493(10)
H18_3 H 0.782452 0.439248 0.530289
C28_3 C 0.8427(3) 0.5609(4) 0.5571(2)
H19_3 H 0.834295 0.566421 0.583006
H20_3 H 0.863436 0.605092 0.547498
H21_3 H 0.875876 0.521188 0.553040
H22_3 H 0.442515 0.379616 0.530351
O13_3 O 0.43211(7) 0.48072(7) 0.58066(3)
H23_3 H 0.431607 0.511752 0.560423
O14_3 O 0.43220(8) 0.48172(8) 0.65322(3)
O15_3 O 0.33516(8) 0.43419(7) 0.62769(4)
C29_3 C 0.37011(13) 0.45863(11) 0.65382(6)
C30_3 C 0.20771(12) 0.70970(11) 0.91094(5)
C31_3 C 0.20414(11) 0.77596(11) 0.93269(5)
C32_3 C 0.00381(14) 0.28732(11) 0.87740(5)
C34_3 C 0.09778(13) 0.21211(12) 0.85448(6)
H25_3 H 0.117470 0.165932 0.850653
C35_3 C 0.20384(13) 0.71517(12) 0.87337(5)
H26_3 H 0.203675 0.760912 0.862273
C36_3 C 0.33195(12) 0.45878(11) 0.68923(5)
C37_3 C 0.19877(14) 0.58656(13) 0.86860(6)
C38_3 C 0.10591(14) 0.33953(12) 0.84813(6)
C39_3 C 0.20031(13) 0.65503(12) 0.85267(6)
H27_3 H 0.198876 0.659299 0.827205
C40_3 C 0.03235(12) 0.21905(11) 0.87211(5)
C41_3 C 0.26112(14) 0.45823(12) 0.75571(6)
C42_3 C 0.20663(14) 0.64351(12) 0.92630(6)
H28_3 H 0.209208 0.639554 0.951764
C43_3 C 0.22769(14) 0.51939(12) 0.81267(6)
H29_3 H 0.254198 0.559718 0.804718
C44_3 C 0.26575(13) 0.42667(13) 0.69251(6)
H30_3 H 0.244167 0.404487 0.672244
C45_3 C 0.04131(15) 0.34647(13) 0.86547(6)
H31_3 H 0.022062 0.392824 0.869325
C46_3 C 0.20191(16) 0.58254(13) 0.90598(6)
H32_3 H 0.200776 0.537215 0.917494
C47_3 C 0.15144(15) 0.46430(13) 0.85676(6)
H33_3 H 0.125726 0.466150 0.878787
C48_3 C 0.36393(13) 0.49067(13) 0.71933(6)
H34_3 H 0.409402 0.512838 0.717153
C49_3 C 0.22431(14) 0.45903(13) 0.79098(6)
C50_3 C 0.14794(15) 0.40319(13) 0.83478(7)
C51_3 C 0.18207(14) 0.40247(13) 0.80249(6)
H35_3 H 0.176857 0.361946 0.787310
C52_3 C 0.19308(15) 0.52209(12) 0.84583(6)
C53_3 C 0.32932(14) 0.48985(14) 0.75214(6)
H36_3 H 0.351620 0.510786 0.772554
C54_3 C 0.23044(14) 0.42689(13) 0.72587(6)
H37_3 H 0.184742 0.405138 0.727909
C55_3 C 0.13379(15) 0.27109(13) 0.84268(7)
H38_3 H 0.178238 0.265553 0.830640
O18_3 O 0.29580(7) 0.47077(7) 0.56156(3)
P2_3 P 0.24445(6) 0.45809(6) 0.53372(3)
O22_3 O 0.2212(3) 0.52800(19) 0.51493(10)
H39_3 H 0.217548 0.560752 0.530289
C56_3 C 0.1573(3) 0.4391(4) 0.5571(2)
H40_3 H 0.165705 0.433579 0.583006
H41_3 H 0.136564 0.394908 0.547498
H42_3 H 0.124124 0.478812 0.553040
H24_3 H 0.959012 0.293030 0.889086
C33_3 C 0.99465(12) 0.15345(11) 0.88463(5)
H2_4 H 0.011752 0.068393 0.060423
C2_4 C 0.20970(11) 0.29229(12) 0.41094(5)
C3_4 C 0.27596(11) 0.29586(11) 0.43269(5)
C7_4 C 0.21517(12) 0.29616(13) 0.37337(5)
H5_4 H 0.260912 0.296325 0.362273
C9_4 C 0.08656(13) 0.30123(14) 0.36860(6)
C11_4 C 0.15503(12) 0.29969(13) 0.35267(6)
H6_4 H 0.159299 0.301124 0.327205
C14_4 C 0.14351(12) 0.29337(14) 0.42630(6)
H7_4 H 0.139554 0.290792 0.451764
C15_4 C 0.01939(12) 0.27231(14) 0.31267(6)
H8_4 H 0.059718 0.245802 0.304718
C18_4 C 0.08254(13) 0.29809(16) 0.40598(6)
H11_4 H 0.037215 0.299224 0.417494
H13_4 H 0.012838 0.090598 0.217153
C24_4 C 0.02209(12) 0.30692(15) 0.34583(6)
H15_4 H 0.010786 0.148380 0.272554
O11_4 O 0.02800(19) 0.2788(3) 0.01493(10)
H18_4 H 0.060752 0.282452 0.030289
H22_4 H 0.120384 0.942515 0.030351
O13_4 O 0.01928(7) 0.93211(7) 0.08066(3)
O14_4 O 0.01828(8) 0.93220(8) 0.15322(3)
O15_4 O 0.06581(7) 0.83516(8) 0.12769(4)
C29_4 C 0.04137(11) 0.87011(13) 0.15382(6)
C32_4 C 0.21268(11) 0.50381(14) 0.37740(5)
H24_4 H 0.206970 0.459012 0.389086
C33_4 C 0.34655(11) 0.49465(12) 0.38463(5)
C34_4 C 0.28789(12) 0.59778(13) 0.35448(6)
H25_4 H 0.334068 0.617470 0.350653
C36_4 C 0.04122(11) 0.83195(12) 0.18923(5)
C38_4 C 0.16047(12) 0.60591(14) 0.34813(6)
C40_4 C 0.28095(11) 0.53235(12) 0.37211(5)
C41_4 C 0.04177(12) 0.76112(14) 0.25571(6)
C44_4 C 0.07333(13) 0.76575(13) 0.19251(6)
H30_4 H 0.095513 0.744167 0.172244
C45_4 C 0.15353(13) 0.54131(15) 0.36547(6)
H31_4 H 0.107176 0.522062 0.369325
C47_4 C 0.03570(13) 0.65144(15) 0.35676(6)
H33_4 H 0.033850 0.625726 0.378787
C48_4 C 0.00933(13) 0.86393(13) 0.21933(6)
C49_4 C 0.04097(13) 0.72431(14) 0.29098(6)
C50_4 C 0.09681(13) 0.64794(15) 0.33478(7)
C51_4 C 0.09753(13) 0.68207(14) 0.30249(6)
H35_4 H 0.138054 0.676857 0.287310
C53_4 C 0.01015(14) 0.82932(14) 0.25214(6)
C54_4 C 0.07311(13) 0.73044(14) 0.22587(6)
H37_4 H 0.094862 0.684742 0.227909
C55_4 C 0.22891(13) 0.63379(15) 0.34268(7)
H38_4 H 0.234447 0.678238 0.330640
O18_4 O 0.02923(7) 0.79580(7) 0.06156(3)
P2_4 P 0.04191(6) 0.74445(6) 0.03372(3)
C56_4 C 0.0609(4) 0.6573(3) 0.0571(2)
H40_4 H 0.066421 0.665705 0.083006
H41_4 H 0.105092 0.636564 0.047498
H42_4 H 0.021188 0.624124 0.053040
H1_4 H 0.879616 0.057485 0.030351
O2_4 O 0.98072(7) 0.06789(7) 0.08066(3)
O3_4 O 0.98172(8) 0.06780(8) 0.15322(3)
O4_4 O 0.93419(7) 0.16484(8) 0.12769(4)
C1_4 C 0.95863(11) 0.12989(13) 0.15382(6)
C4_4 C 0.78732(11) 0.49619(14) 0.37740(5)
H3_4 H 0.793030 0.540988 0.389086
C5_4 C 0.65345(11) 0.50535(12) 0.38463(5)
C6_4 C 0.71211(12) 0.40222(13) 0.35448(6)
H4_4 H 0.665932 0.382530 0.350653
C8_4 C 0.95878(11) 0.16805(12) 0.18923(5)
C10_4 C 0.83953(12) 0.39409(14) 0.34813(6)
C12_4 C 0.71905(11) 0.46765(12) 0.37211(5)
C13_4 C 0.95823(12) 0.23888(14) 0.25571(6)
C16_4 C 0.92667(13) 0.23425(13) 0.19251(6)
H9_4 H 0.904487 0.255833 0.172244
C17_4 C 0.84647(13) 0.45869(15) 0.36547(6)
H10_4 H 0.892824 0.477938 0.369325
C19_4 C 0.96430(13) 0.34856(15) 0.35676(6)
H12_4 H 0.966150 0.374274 0.378787
C20_4 C 0.99067(13) 0.13607(13) 0.21933(6)
C21_4 C 0.95903(13) 0.27569(14) 0.29098(6)
C22_4 C 0.90319(13) 0.35206(15) 0.33478(7)
C23_4 C 0.90247(13) 0.31793(14) 0.30249(6)
H14_4 H 0.861946 0.323143 0.287310
C25_4 C 0.98985(14) 0.17068(14) 0.25214(6)
C26_4 C 0.92689(13) 0.26956(14) 0.22587(6)
H16_4 H 0.905138 0.315258 0.227909
C27_4 C 0.77109(13) 0.36621(15) 0.34268(7)
H17_4 H 0.765553 0.321762 0.330640
O7_4 O 0.97077(7) 0.20420(7) 0.06156(3)
P1_4 P 0.95809(6) 0.25555(6) 0.03372(3)
C28_4 C 0.9391(4) 0.3427(3) 0.0571(2)
H19_4 H 0.933579 0.334295 0.083006
H20_4 H 0.894908 0.363436 0.047498
H21_4 H 0.978812 0.375876 0.053040
H23_4 H 0.988248 0.931607 0.060423
C30_4 C 0.79030(11) 0.70771(12) 0.41094(5)
C31_4 C 0.72404(11) 0.70414(11) 0.43269(5)
C35_4 C 0.78483(12) 0.70384(13) 0.37337(5)
H26_4 H 0.739088 0.703675 0.362273
C37_4 C 0.91344(13) 0.69877(14) 0.36860(6)
C39_4 C 0.84497(12) 0.70031(13) 0.35267(6)
H27_4 H 0.840701 0.698876 0.327205
C42_4 C 0.85649(12) 0.70663(14) 0.42630(6)
H28_4 H 0.860446 0.709208 0.451764
C43_4 C 0.98061(12) 0.72769(14) 0.31267(6)
H29_4 H 0.940282 0.754198 0.304718
C46_4 C 0.91746(13) 0.70191(16) 0.40598(6)
H32_4 H 0.962785 0.700776 0.417494
H34_4 H 0.987162 0.909402 0.217153
C52_4 C 0.97791(12) 0.69308(15) 0.34583(6)
H36_4 H 0.989214 0.851620 0.272554
O22_4 O 0.97200(19) 0.7212(3) 0.01493(10)
H39_4 H 0.939248 0.717548 0.030289
loop_
_geom_bond_atom_site_label_1
_geom_bond_atom_site_label_2
_geom_bond_site_symmetry_1
_geom_bond_site_symmetry_2
C2 C3 1_555 1_555
C3 O5 1_555 1_555
C7 C2 1_555 1_555
H5 C7 1_555 1_555
C9 C11 1_555 1_555
C11 C7 1_555 1_555
H6 C11 1_555 1_555
C14 C2 1_555 1_555
H7 C14 1_555 1_555
C15 H8 1_555 1_555
C18 C9 1_555 1_555
H11 C18 1_555 1_555
C24 C9 1_555 1_555
O5 Al8 1_555 1_555
O9 C3 1_555 1_555
H18 O11 1_555 1_555
Al13 O9 1_555 1_555
O29 Al2 1_555 1_555
C14 C18 1_555 1_555
C15 C24 1_555 1_555
O23 Al3 1_555 1_555
O30 Al3 1_555 1_555
O32 Al3 1_555 1_555
Al1 O1 1_555 1_555
Al2_2 O2 1_555 1_555
Al3_2 O1 1_555 1_555
O1 H1 1_555 1_555
O2 Al1 1_555 1_555
O3 Al2_2 1_555 1_555
O4 Al1 1_555 1_555
C1 O3 1_555 1_555
C4 H3 1_555 1_555
C5 C12 1_555 1_555
C6 H4 1_555 1_555
C8 C1 1_555 1_555
C10 C17 1_555 1_555
C12 C4 1_555 1_555
C13 C21 1_555 1_555
C16 C8 1_555 1_555
H9 C16 1_555 1_555
C17 C4 1_555 1_555
H10 C17 1_555 1_555
C19 H12 1_555 1_555
C20 C8 1_555 1_555
C22 C10 1_555 1_555
C23 C21 1_555 1_555
H14 C23 1_555 1_555
C25 C13 1_555 1_555
C26 C13 1_555 1_555
H16 C26 1_555 1_555
C27 C6 1_555 1_555
H17 C27 1_555 1_555
O6 C5 1_555 1_555
O7 Al1 1_555 1_555
O8 C5 1_555 1_555
P1 O7 1_555 1_555
O10 Al3_2 1_555 1_555
C28 P1 1_555 1_555
H19 C28 1_555 1_555
H20 C28 1_555 1_555
H21 C28 1_555 1_555
Al6 O6 1_555 1_555
Al10 O8 1_555 1_555
O25 Al1 1_555 1_555
O26 Al1 1_555 1_555
O31 Al3_2 1_555 1_555
O4 C1 1_555 1_555
C6 C12 1_555 1_555
C10 C27 1_555 1_555
C16 C26 1_555 1_555
C19 C22 1_555 1_555
C20 C25 1_555 1_555
C22 C23 1_555 1_555
P1 O10 1_555 1_555
Al4 O12 1_555 1_555
O12 H22 1_555 1_555
O13 Al2_3 1_555 1_555
O14 Al2_3 1_555 1_555
O15 Al4 1_555 1_555
C29 O14 1_555 1_555
C32 H24 1_555 1_555
C33 C40 1_555 1_555
C34 H25 1_555 1_555
C36 C29 1_555 1_555
C38 C45 1_555 1_555
C40 C32 1_555 1_555
C41 C49 1_555 1_555
C44 C36 1_555 1_555
H30 C44 1_555 1_555
C45 C32 1_555 1_555
H31 C45 1_555 1_555
C47 H33 1_555 1_555
C48 C36 1_555 1_555
C50 C38 1_555 1_555
C51 C49 1_555 1_555
H35 C51 1_555 1_555
C53 C41 1_555 1_555
C54 C41 1_555 1_555
H37 C54 1_555 1_555
C55 C34 1_555 1_555
H38 C55 1_555 1_555
O17 C33 1_555 1_555
O18 Al4 1_555 1_555
O19 C33 1_555 1_555
P2 O18 1_555 1_555
O21 P2 1_555 1_555
C56 P2 1_555 1_555
H40 C56 1_555 1_555
H41 C56 1_555 1_555
H42 C56 1_555 1_555
Al8 O17 1_555 1_555
Al10 O19 1_555 1_555
Al12_2 O12 1_555 1_555
O24 Al4 1_555 1_555
O27 Al4 1_555 1_555
Al4 O13 1_555 1_555
O15 C29 1_555 1_555
C34 C40 1_555 1_555
C38 C55 1_555 1_555
C44 C54 1_555 1_555
C47 C50 1_555 1_555
C48 C53 1_555 1_555
C50 C51 1_555 1_555
O21 Al12_2 1_555 1_555
C30 C31 1_555 1_555
C31 O16 1_555 1_555
C35 C30 1_555 1_555
H26 C35 1_555 1_555
C37 C39 1_555 1_555
C39 C35 1_555 1_555
H27 C39 1_555 1_555
C42 C30 1_555 1_555
H28 C42 1_555 1_555
C43 H29 1_555 1_555
C46 C37 1_555 1_555
H32 C46 1_555 1_555
C52 C37 1_555 1_555
O16 Al6 1_555 1_555
O20 C31 1_555 1_555
H39 O22 1_555 1_555
Al11 O20 1_555 1_555
O28 Al2_4 1_555 1_555
C42 C46 1_555 1_555
C43 C52 1_555 1_555
O6_2 C5_2 1_555 1_555
Al6_2 O6_2 1_555 1_555
Al1_2 O1_2 1_555 1_555
Al2_5 O2_2 1_555 1_555
Al11 O1_2 1_555 1_555
O1_2 H1_2 1_555 1_555
O2_2 Al1_2 1_555 1_555
H2_2 O2_2 1_555 1_555
O3_2 Al2_5 1_555 1_555
O4_2 Al1_2 1_555 1_555
C1_2 O3_2 1_555 1_555
C2_2 C3_2 1_555 1_555
C3_2 O5_2 1_555 1_555
C6_2 H4_2 1_555 1_555
C7_2 C2_2 1_555 1_555
H5_2 C7_2 1_555 1_555
C8_2 C1_2 1_555 1_555
C9_2 C11_2 1_555 1_555
C10_2 C17_2 1_555 1_555
C11_2 C7_2 1_555 1_555
H6_2 C11_2 1_555 1_555
C12_2 C4_2 1_555 1_555
C13_2 C21_2 1_555 1_555
C14_2 C2_2 1_555 1_555
H7_2 C14_2 1_555 1_555
C15_2 H8_2 1_555 1_555
C16_2 C8_2 1_555 1_555
H9_2 C16_2 1_555 1_555
C17_2 C4_2 1_555 1_555
H10_2 C17_2 1_555 1_555
C18_2 C9_2 1_555 1_555
H11_2 C18_2 1_555 1_555
C19_2 H12_2 1_555 1_555
C20_2 C8_2 1_555 1_555
H13_2 C20_2 1_555 1_555
C21_2 C15_2 1_555 1_555
C22_2 C10_2 1_555 1_555
C23_2 C21_2 1_555 1_555
H14_2 C23_2 1_555 1_555
C24_2 C9_2 1_555 1_555
C25_2 C13_2 1_555 1_555
H15_2 C25_2 1_555 1_555
C26_2 C13_2 1_555 1_555
H16_2 C26_2 1_555 1_555
C27_2 C6_2 1_555 1_555
H17_2 C27_2 1_555 1_555
O5_2 Al8_2 1_555 1_555
O7_2 Al1_2 1_555 1_555
O30 C3_2 1_555 1_555
P1_2 O7_2 1_555 1_555
O10_2 Al11 1_555 1_555
O11_2 P1_2 1_555 1_555
H18_2 O11_2 1_555 1_555
C28_2 P1_2 1_555 1_555
H19_2 C28_2 1_555 1_555
H20_2 C28_2 1_555 1_555
H21_2 C28_2 1_555 1_555
Al4_2 O12_2 1_555 1_555
O12_2 H22_2 1_555 1_555
O13_2 Al2_5 1_555 1_555
H23_2 O13_2 1_555 1_555
O14_2 Al2_5 1_555 1_555
O15_2 Al4_2 1_555 1_555
C29_2 O14_2 1_555 1_555
C30_2 C31_2 1_555 1_555
C31_2 O16_2 1_555 1_555
C34_2 H25_2 1_555 1_555
C35_2 C30_2 1_555 1_555
H26_2 C35_2 1_555 1_555
C36_2 C29_2 1_555 1_555
C37_2 C39_2 1_555 1_555
C38_2 C45_2 1_555 1_555
C39_2 C35_2 1_555 1_555
H27_2 C39_2 1_555 1_555
C40_2 C32_2 1_555 1_555
C41_2 C49_2 1_555 1_555
C42_2 C30_2 1_555 1_555
H28_2 C42_2 1_555 1_555
C43_2 H29_2 1_555 1_555
C44_2 C36_2 1_555 1_555
H30_2 C44_2 1_555 1_555
C45_2 C32_2 1_555 1_555
H31_2 C45_2 1_555 1_555
C46_2 C37_2 1_555 1_555
H32_2 C46_2 1_555 1_555
C47_2 H33_2 1_555 1_555
C48_2 C36_2 1_555 1_555
H34_2 C48_2 1_555 1_555
C49_2 C43_2 1_555 1_555
C50_2 C38_2 1_555 1_555
C51_2 C49_2 1_555 1_555
H35_2 C51_2 1_555 1_555
C52_2 C37_2 1_555 1_555
C53_2 C41_2 1_555 1_555
H36_2 C53_2 1_555 1_555
C54_2 C41_2 1_555 1_555
H37_2 C54_2 1_555 1_555
C55_2 C34_2 1_555 1_555
H38_2 C55_2 1_555 1_555
O16_2 Al6_2 1_555 1_555
O18_2 Al4_2 1_555 1_555
O20_2 C31_2 1_555 1_555
P2_2 O18_2 1_555 1_555
O21_2 P2_2 1_555 1_555
O22_2 P2_2 1_555 1_555
H39_2 O22_2 1_555 1_555
C56_2 P2_2 1_555 1_555
H40_2 C56_2 1_555 1_555
H41_2 C56_2 1_555 1_555
H42_2 C56_2 1_555 1_555
Al10_2 O19_2 1_555 1_555
Al10_5 O8_2 1_555 1_555
Al12 O20_2 1_555 1_555
Al13 O12_2 1_555 1_555
O23_2 Al11 1_555 1_555
O24_2 Al4_2 1_555 1_555
O25_2 Al1_2 1_555 1_555
O26_2 Al1_2 1_555 1_555
O27_2 Al4_2 1_555 1_555
O28_2 Al2_5 1_555 1_555
O29_2 Al2_5 1_555 1_555
O31_2 Al11 1_555 1_555
O32_2 Al11 1_555 1_555
O4_2 C1_2 1_555 1_555
C6_2 C12_2 1_555 1_555
C10_2 C27_2 1_555 1_555
C14_2 C18_2 1_555 1_555
C15_2 C24_2 1_555 1_555
C16_2 C26_2 1_555 1_555
C19_2 C22_2 1_555 1_555
C19_2 C24_2 1_555 1_555
C20_2 C25_2 1_555 1_555
C22_2 C23_2 1_555 1_555
P1_2 O10_2 1_555 1_555
Al4_2 O13_2 1_555 1_555
O15_2 C29_2 1_555 1_555
C34_2 C40_2 1_555 1_555
C38_2 C55_2 1_555 1_555
C42_2 C46_2 1_555 1_555
C43_2 C52_2 1_555 1_555
C44_2 C54_2 1_555 1_555
C47_2 C50_2 1_555 1_555
C47_2 C52_2 1_555 1_555
C48_2 C53_2 1_555 1_555
C50_2 C51_2 1_555 1_555
O21_2 Al13 1_555 1_555
O17_2 C33_2 1_555 1_555
Al8_2 O17_2 1_555 1_555
O23_3 Al12 1_555 1_555
O32_3 Al12 1_555 1_555
O31_3 Al12_2 1_555 1_555
O23_4 Al13 1_555 1_555
O31_4 Al13 1_555 1_555
O32_4 Al13 1_555 1_555
O26 C5_3 1_555 1_555
Al6 O23_2 1_555 1_555
Al10 O2_3 1_555 1_555
O23_2 H1_3 1_555 1_555
O2_3 Al6 1_555 1_555
H2_3 O2_3 1_555 1_555
O3_3 Al10 1_555 1_555
O4_3 Al6 1_555 1_555
C1_3 O3_3 1_555 1_555
C2_3 C3_3 1_555 1_555
C3_3 O24 1_555 1_555
C6_3 H4_3 1_555 1_555
C7_3 C2_3 1_555 1_555
H5_3 C7_3 1_555 1_555
C8_3 C1_3 1_555 1_555
C9_3 C11_3 1_555 1_555
C10_3 C17_3 1_555 1_555
C11_3 C7_3 1_555 1_555
H6_3 C11_3 1_555 1_555
C12_3 C4_3 1_555 1_555
C13_3 C21_3 1_555 1_555
C14_3 C2_3 1_555 1_555
H7_3 C14_3 1_555 1_555
C15_3 H8_3 1_555 1_555
C16_3 C8_3 1_555 1_555
H9_3 C16_3 1_555 1_555
C17_3 C4_3 1_555 1_555
H10_3 C17_3 1_555 1_555
C18_3 C9_3 1_555 1_555
H11_3 C18_3 1_555 1_555
C19_3 H12_3 1_555 1_555
C20_3 C8_3 1_555 1_555
H13_3 C20_3 1_555 1_555
C21_3 C15_3 1_555 1_555
C22_3 C10_3 1_555 1_555
C23_3 C21_3 1_555 1_555
H14_3 C23_3 1_555 1_555
C24_3 C9_3 1_555 1_555
C25_3 C13_3 1_555 1_555
H15_3 C25_3 1_555 1_555
C26_3 C13_3 1_555 1_555
H16_3 C26_3 1_555 1_555
C27_3 C6_3 1_555 1_555
H17_3 C27_3 1_555 1_555
O7_3 Al6 1_555 1_555
O31_3 C3_3 1_555 1_555
P1_3 O7_3 1_555 1_555
O11_3 P1_3 1_555 1_555
H18_3 O11_3 1_555 1_555
C28_3 P1_3 1_555 1_555
H19_3 C28_3 1_555 1_555
H20_3 C28_3 1_555 1_555
H21_3 C28_3 1_555 1_555
Al8 O23_4 1_555 1_555
O23_4 H22_3 1_555 1_555
O13_3 Al10 1_555 1_555
H23_3 O13_3 1_555 1_555
O14_3 Al10 1_555 1_555
O15_3 Al8 1_555 1_555
C29_3 O14_3 1_555 1_555
C30_3 C31_3 1_555 1_555
C31_3 O25 1_555 1_555
C34_3 H25_3 1_555 1_555
C35_3 C30_3 1_555 1_555
H26_3 C35_3 1_555 1_555
C36_3 C29_3 1_555 1_555
C37_3 C39_3 1_555 1_555
C38_3 C45_3 1_555 1_555
C39_3 C35_3 1_555 1_555
H27_3 C39_3 1_555 1_555
C40_3 C32_3 1_555 1_555
C41_3 C49_3 1_555 1_555
C42_3 C30_3 1_555 1_555
H28_3 C42_3 1_555 1_555
C43_3 H29_3 1_555 1_555
C44_3 C36_3 1_555 1_555
H30_3 C44_3 1_555 1_555
C45_3 C32_3 1_555 1_555
H31_3 C45_3 1_555 1_555
C46_3 C37_3 1_555 1_555
H32_3 C46_3 1_555 1_555
C47_3 H33_3 1_555 1_555
C48_3 C36_3 1_555 1_555
H34_3 C48_3 1_555 1_555
C49_3 C43_3 1_555 1_555
C50_3 C38_3 1_555 1_555
C51_3 C49_3 1_555 1_555
H35_3 C51_3 1_555 1_555
C52_3 C37_3 1_555 1_555
C53_3 C41_3 1_555 1_555
H36_3 C53_3 1_555 1_555
C54_3 C41_3 1_555 1_555
H37_3 C54_3 1_555 1_555
C55_3 C34_3 1_555 1_555
H38_3 C55_3 1_555 1_555
O18_3 Al8 1_555 1_555
O31 C31_3 1_555 1_555
P2_3 O18_3 1_555 1_555
O32_4 P2_3 1_555 1_555
O22_3 P2_3 1_555 1_555
H39_3 O22_3 1_555 1_555
C56_3 P2_3 1_555 1_555
H40_3 C56_3 1_555 1_555
H41_3 C56_3 1_555 1_555
H42_3 C56_3 1_555 1_555
O4_3 C1_3 1_555 1_555
C6_3 C12_3 1_555 1_555
C10_3 C27_3 1_555 1_555
C14_3 C18_3 1_555 1_555
C15_3 C24_3 1_555 1_555
C16_3 C26_3 1_555 1_555
C19_3 C22_3 1_555 1_555
C19_3 C24_3 1_555 1_555
C20_3 C25_3 1_555 1_555
C22_3 C23_3 1_555 1_555
P1_3 O32_2 1_555 1_555
Al8 O13_3 1_555 1_555
O15_3 C29_3 1_555 1_555
C34_3 C40_3 1_555 1_555
C38_3 C55_3 1_555 1_555
C42_3 C46_3 1_555 1_555
C43_3 C52_3 1_555 1_555
C44_3 C54_3 1_555 1_555
C47_3 C50_3 1_555 1_555
C47_3 C52_3 1_555 1_555
C48_3 C53_3 1_555 1_555
C50_3 C51_3 1_555 1_555
O27 C33_3 1_555 1_555
C2_4 C3_4 1_555 1_555
C3_4 O24_2 1_555 1_555
C7_4 C2_4 1_555 1_555
H5_4 C7_4 1_555 1_555
C9_4 C11_4 1_555 1_555
C11_4 C7_4 1_555 1_555
H6_4 C11_4 1_555 1_555
C14_4 C2_4 1_555 1_555
H7_4 C14_4 1_555 1_555
C15_4 H8_4 1_555 1_555
C18_4 C9_4 1_555 1_555
H11_4 C18_4 1_555 1_555
C24_4 C9_4 1_555 1_555
O31_4 C3_4 1_555 1_555
H18_4 O11_4 1_555 1_555
C14_4 C18_4 1_555 1_555
C15_4 C24_4 1_555 1_555
Al8_2 O23 1_555 1_555
O23 H22_4 1_555 1_555
O13_4 Al10_3 1_555 1_555
O14_4 Al10_3 1_555 1_555
O15_4 Al8_2 1_555 1_555
C29_4 O14_4 1_555 1_555
C32_4 H24_4 1_555 1_555
C33_4 C40_4 1_555 1_555
C34_4 H25_4 1_555 1_555
C36_4 C29_4 1_555 1_555
C38_4 C45_4 1_555 1_555
C40_4 C32_4 1_555 1_555
C41_4 C49_4 1_555 1_555
C44_4 C36_4 1_555 1_555
H30_4 C44_4 1_555 1_555
C45_4 C32_4 1_555 1_555
H31_4 C45_4 1_555 1_555
C47_4 H33_4 1_555 1_555
C48_4 C36_4 1_555 1_555
C50_4 C38_4 1_555 1_555
C51_4 C49_4 1_555 1_555
H35_4 C51_4 1_555 1_555
C53_4 C41_4 1_555 1_555
C54_4 C41_4 1_555 1_555
H37_4 C54_4 1_555 1_555
C55_4 C34_4 1_555 1_555
H38_4 C55_4 1_555 1_555
O27_2 C33_4 1_555 1_555
O18_4 Al8_2 1_555 1_555
O29_2 C33_4 1_555 1_555
P2_4 O18_4 1_555 1_555
O32 P2_4 1_555 1_555
C56_4 P2_4 1_555 1_555
H40_4 C56_4 1_555 1_555
H41_4 C56_4 1_555 1_555
H42_4 C56_4 1_555 1_555
Al8_2 O13_4 1_555 1_555
O15_4 C29_4 1_555 1_555
C34_4 C40_4 1_555 1_555
C38_4 C55_4 1_555 1_555
C44_4 C54_4 1_555 1_555
C47_4 C50_4 1_555 1_555
C48_4 C53_4 1_555 1_555
C50_4 C51_4 1_555 1_555
Al6_2 O23_3 1_555 1_555
Al10_4 O2_4 1_555 1_555
O23_3 H1_4 1_555 1_555
O2_4 Al6_2 1_555 1_555
O3_4 Al10_4 1_555 1_555
O4_4 Al6_2 1_555 1_555
C1_4 O3_4 1_555 1_555
C4_4 H3_4 1_555 1_555
C5_4 C12_4 1_555 1_555
C6_4 H4_4 1_555 1_555
C8_4 C1_4 1_555 1_555
C10_4 C17_4 1_555 1_555
C12_4 C4_4 1_555 1_555
C13_4 C21_4 1_555 1_555
C16_4 C8_4 1_555 1_555
H9_4 C16_4 1_555 1_555
C17_4 C4_4 1_555 1_555
H10_4 C17_4 1_555 1_555
C19_4 H12_4 1_555 1_555
C20_4 C8_4 1_555 1_555
C22_4 C10_4 1_555 1_555
C23_4 C21_4 1_555 1_555
H14_4 C23_4 1_555 1_555
C25_4 C13_4 1_555 1_555
C26_4 C13_4 1_555 1_555
H16_4 C26_4 1_555 1_555
C27_4 C6_4 1_555 1_555
H17_4 C27_4 1_555 1_555
O26_2 C5_4 1_555 1_555
O7_4 Al6_2 1_555 1_555
O28_2 C5_4 1_555 1_555
P1_4 O7_4 1_555 1_555
C28_4 P1_4 1_555 1_555
H19_4 C28_4 1_555 1_555
H20_4 C28_4 1_555 1_555
H21_4 C28_4 1_555 1_555
O4_4 C1_4 1_555 1_555
C6_4 C12_4 1_555 1_555
C10_4 C27_4 1_555 1_555
C16_4 C26_4 1_555 1_555
C19_4 C22_4 1_555 1_555
C20_4 C25_4 1_555 1_555
C22_4 C23_4 1_555 1_555
P1_4 O32_3 1_555 1_555
C30_4 C31_4 1_555 1_555
C31_4 O25_2 1_555 1_555
C35_4 C30_4 1_555 1_555
H26_4 C35_4 1_555 1_555
C37_4 C39_4 1_555 1_555
C39_4 C35_4 1_555 1_555
H27_4 C39_4 1_555 1_555
C42_4 C30_4 1_555 1_555
H28_4 C42_4 1_555 1_555
C43_4 H29_4 1_555 1_555
C46_4 C37_4 1_555 1_555
H32_4 C46_4 1_555 1_555
C52_4 C37_4 1_555 1_555
O31_2 C31_4 1_555 1_555
H39_4 O22_4 1_555 1_555
C42_4 C46_4 1_555 1_555
C43_4 C52_4 1_555 1_555

#END
