
###############################################################################
#
# This file contains modified crystal structure data generated from the
# MOF subset of the Cambridge Structural Database (CSD) v543 
# hosted by the Cambridge Crystallographic Data Centre (CCDC).
#
# This work is licensed under the Creative Commons
# Attribution-NonCommercial-ShareAlike 4.0 International License.
# To view a copy of this license, visit
# http://creativecommons.org/licenses/by-nc-sa/4.0/
# or send a letter to
# Creative Commons, PO Box 1866, Mountain View, CA 94042, USA.
#
# CIF created using the CSD Python API on 29 September 2022
# The structure has been converted into the P1 space group
# The structure has a 3D framework
# The original CSD entry QOXQIG is in the tetragonal crystal system
# The original CSD entry QOXQIG is in a Sohncke space group
# The framework has been calculated to contain at least 10.0% void space
# The void calculation uses a probe of radius 1.32A, grid spacing 0.4
#
###############################################################################

data_QOXQIG
_chemical_formula_moiety         '(C232 H184 Al16 O76 P8)n'
_symmetry_cell_setting           triclinic
_symmetry_space_group_name_H-M   'P 1'
_symmetry_Int_Tables_number      1
_space_group_name_Hall           'P 1'
loop_
_symmetry_equiv_pos_site_id
_symmetry_equiv_pos_as_xyz
1 x,y,z
_cell_length_a                   18.9892(8)
_cell_length_b                   18.9892(8)
_cell_length_c                   36.9796(15)
_cell_angle_alpha                90
_cell_angle_beta                 90
_cell_angle_gamma                90
_cell_volume                     13334.5
loop_
_atom_site_label
_atom_site_type_symbol
_atom_site_fract_x
_atom_site_fract_y
_atom_site_fract_z
Al9 Al 0.000000 -0.000000 0.61759(3)
Al9_2 Al 0.000000 1.000000 0.61759(3)
C2 C 0.12624(16) 0.04567(14) 0.65656(7)
C4 C 0.50061(16) 0.34749(14) 0.88515(7)
C7 C 0.46191(17) 0.28315(15) 0.87379(7)
C8 C 0.13306(19) 0.01396(17) 0.72193(8)
C10 C 0.2346(2) 0.04573(17) 0.75836(9)
C13 C 0.2730(2) 0.04409(18) 0.79332(9)
C14 C 0.49045(19) 0.21619(16) 0.87883(8)
H8 H 0.535217 0.210963 0.889974
C15 C 0.16329(18) 0.04535(15) 0.69202(8)
C16 C 0.3450(2) 0.03946(17) 0.85894(9)
H9 H 0.370079 0.037672 0.881161
C17 C 0.22965(19) 0.07714(17) 0.69496(9)
H10 H 0.250820 0.098557 0.674447
C18 C 0.2643(2) 0.07714(18) 0.72802(9)
H11 H 0.309097 0.099048 0.729939
C19 C 0.3599(2) 0.23045(18) 0.84568(10)
H12 H 0.315434 0.235870 0.834216
C21 C 0.39670(19) 0.28997(16) 0.85718(9)
H14 H 0.377019 0.335443 0.853634
C23 C 0.3115(2) 0.10181(18) 0.80541(9)
H15 H 0.313175 0.143241 0.791033
C24 C 0.3478(2) 0.10008(17) 0.83816(9)
C25 C 0.3874(2) 0.16341(17) 0.85075(9)
C26 C 0.1685(2) 0.01395(18) 0.75496(9)
C27 C 0.4532(2) 0.15705(17) 0.86750(9)
H17 H 0.472789 0.111577 0.871189
O5 O 0.56156(11) 0.34066(10) 0.89786(5)
O6 O 0.46828(10) 0.40565(10) 0.88094(5)
O7 O 0.06502(11) 0.01951(10) 0.65526(5)
O8 O 0.15900(11) 0.07254(10) 0.63018(5)
Al7 Al 0.500000 0.500000 0.88241(3)
Al11 Al 0.63105(4) 0.40629(4) 0.91772(2)
Al13 Al 0.13105(4) 0.09371(4) 0.58228(2)
Al1 Al 0.33610(4) 0.66390(4) 0.000000
H22 H 0.186835 0.470580 0.002308
H45 H 0.813165 0.529420 0.002308
Al5 Al 0.66390(4) 0.33610(4) 0.000000
O21 O 0.37654(9) 0.60731(9) 0.03594(5)
O22 O 0.27029(10) 0.70177(11) 0.03404(5)
O31 O 0.40294(12) 0.73494(10) 0.00919(5)
Al1_2 Al 0.33610(4) 0.66390(4) 1.000000
Al3 Al 0.36895(4) 0.59371(4) 0.91772(2)
O1 O 0.30396(10) 0.66844(10) 0.91425(5)
O2 O 0.43388(10) 0.52143(9) 0.91764(5)
H1 H 0.433380 0.491466 0.938210
O3 O 0.39269(9) 0.62346(9) 0.96406(5)
H2 H 0.440734 0.617224 0.970475
O4 O 0.29823(11) 0.72971(10) 0.96596(5)
C1 C 0.29969(14) 0.72525(14) 0.93196(7)
C3 C 0.29732(16) 0.79203(15) 0.91067(7)
C5 C 0.30278(18) 0.78831(16) 0.87317(8)
H3 H 0.304421 0.743865 0.861415
C6 C 0.30581(19) 0.84981(17) 0.85315(8)
H4 H 0.309174 0.847162 0.827550
H5 H 0.088093 0.992361 0.719992
C9 C 0.2982(2) 0.91786(17) 0.90742(9)
H6 H 0.296461 0.962174 0.919308
C11 C 0.2950(2) 0.85647(16) 0.92751(8)
H7 H 0.291187 0.858902 0.953095
C12 C 0.3040(2) 0.91519(16) 0.86978(8)
C20 C 0.2708(2) 0.98409(17) 0.81495(9)
H13 H 0.244514 0.944365 0.807074
C22 C 0.3062(2) 0.98109(17) 0.84788(9)
H16 H 0.147481 0.992107 0.775398
P1 P 0.24536(6) 0.54300(6) 0.96398(3)
O9 O 0.29953(11) 0.53111(10) 0.93523(5)
O10 O 0.26506(10) 0.59706(12) 0.99081(5)
C28 C 0.1638(3) 0.5705(4) 0.94245(18)
H18 H 0.170382 0.616811 0.931298
H19 H 0.126346 0.573203 0.960625
H20 H 0.150716 0.536165 0.923822
C29 C 0.2259(4) 0.4636(3) 0.98538(19)
H21 H 0.212549 0.428435 0.967235
H23 H 0.267455 0.447093 0.998638
O11 O 0.69604(10) 0.33156(10) 0.91425(5)
O12 O 0.56612(10) 0.47857(9) 0.91764(5)
H24 H 0.566620 0.508534 0.938210
O13 O 0.60731(9) 0.37654(9) 0.96406(5)
H25 H 0.559266 0.382776 0.970475
O14 O 0.70177(11) 0.27029(10) 0.96596(5)
C30 C 0.70031(14) 0.27475(14) 0.93196(7)
C32 C 0.70268(16) 0.20797(15) 0.91067(7)
C34 C 0.69722(18) 0.21169(16) 0.87317(8)
H26 H 0.695579 0.256135 0.861415
C35 C 0.69419(19) 0.15019(17) 0.85315(8)
H27 H 0.690826 0.152838 0.827550
H28 H 0.911907 0.007639 0.719992
C38 C 0.7018(2) 0.08214(17) 0.90742(9)
H29 H 0.703539 0.037826 0.919308
C40 C 0.7050(2) 0.14353(16) 0.92751(8)
H30 H 0.708813 0.141098 0.953095
C41 C 0.6960(2) 0.08481(16) 0.86978(8)
C49 C 0.7292(2) 0.01591(17) 0.81495(9)
H36 H 0.755486 0.055635 0.807074
C51 C 0.6938(2) 0.01891(17) 0.84788(9)
H39 H 0.852519 0.007893 0.775398
P2 P 0.75464(6) 0.45700(6) 0.96398(3)
O19 O 0.70047(11) 0.46889(10) 0.93523(5)
O20 O 0.73494(10) 0.40294(12) 0.99081(5)
C57 C 0.8362(3) 0.4295(4) 0.94245(18)
H41 H 0.829618 0.383189 0.931298
H42 H 0.873654 0.426797 0.960625
H43 H 0.849284 0.463835 0.923822
C58 C 0.7741(4) 0.5364(3) 0.98538(19)
H44 H 0.787451 0.571565 0.967235
H46 H 0.732545 0.552907 0.998638
Al5_2 Al 0.66390(4) 0.33610(4) 1.000000
Al9_3 Al 1.000000 -0.000000 0.61759(3)
O24 O 0.43844(11) 0.65934(10) 0.89786(5)
O26 O 0.53172(10) 0.59435(10) 0.88094(5)
O27 O 0.56502(11) 0.48049(10) 0.84474(5)
O28 O 0.43498(11) 0.51951(10) 0.84474(5)
O29 O 0.65900(11) 0.42746(10) 0.86982(5)
O30 O 0.34100(11) 0.57254(10) 0.86982(5)
C31 C 0.87376(16) 0.95433(14) 0.65656(7)
C33 C 0.49939(16) 0.65251(14) 0.88515(7)
C36 C 0.53809(17) 0.71685(15) 0.87379(7)
C37 C 0.86694(19) 0.98604(17) 0.72193(8)
C39 C 0.7654(2) 0.95427(17) 0.75836(9)
C42 C 0.7270(2) 0.95591(18) 0.79332(9)
C43 C 0.50955(19) 0.78381(16) 0.87883(8)
H31 H 0.464783 0.789037 0.889974
C44 C 0.83671(18) 0.95465(15) 0.69202(8)
C45 C 0.6550(2) 0.96054(17) 0.85894(9)
H32 H 0.629921 0.962328 0.881161
C46 C 0.77035(19) 0.92286(17) 0.69496(9)
H33 H 0.749180 0.901443 0.674447
C47 C 0.7357(2) 0.92286(18) 0.72802(9)
H34 H 0.690903 0.900952 0.729939
C48 C 0.6401(2) 0.76955(18) 0.84568(10)
H35 H 0.684566 0.764130 0.834216
C50 C 0.60330(19) 0.71003(16) 0.85718(9)
H37 H 0.622981 0.664557 0.853634
C52 C 0.6885(2) 0.89819(18) 0.80541(9)
H38 H 0.686825 0.856759 0.791033
C53 C 0.6522(2) 0.89992(17) 0.83816(9)
C54 C 0.6126(2) 0.83659(17) 0.85075(9)
C55 C 0.8315(2) 0.98605(18) 0.75496(9)
C56 C 0.5468(2) 0.84295(17) 0.86750(9)
H40 H 0.527211 0.888423 0.871189
O17 O 0.93498(11) 0.98049(10) 0.65526(5)
O18 O 0.84100(11) 0.92746(10) 0.63018(5)
Al9_4 Al 1.000000 1.000000 0.61759(3)
Al12 Al 0.86895(4) 0.90629(4) 0.58228(2)
Al6 Al 0.000000 -0.000000 0.38241(3)
Al6_2 Al 0.000000 1.000000 0.38241(3)
Al4 Al 0.09371(4) 0.13105(4) 0.41772(2)
O11_2 O 0.16844(10) 0.19604(10) 0.41425(5)
O12_2 O 0.02143(9) 0.06612(10) 0.41764(5)
O13_2 O 0.12346(9) 0.10731(9) 0.46406(5)
H25_2 H 0.117224 0.059266 0.470475
O14_2 O 0.22971(10) 0.20177(11) 0.46596(5)
C30_2 C 0.22525(14) 0.20031(14) 0.43196(7)
C31_2 C 0.54567(14) 0.37376(16) 0.15656(7)
C32_2 C 0.29203(15) 0.20268(16) 0.41067(7)
C34_2 C 0.28831(16) 0.19722(18) 0.37317(8)
H26_2 H 0.243865 0.195579 0.361415
C35_2 C 0.34981(17) 0.19419(19) 0.35315(8)
H27_2 H 0.347162 0.190826 0.327550
C36_2 C 0.78315(15) 0.03809(17) 0.37379(7)
C37_2 C 0.51396(17) 0.36694(19) 0.22193(8)
H28_2 H 0.492361 0.411907 0.219992
C38_2 C 0.41786(17) 0.2018(2) 0.40742(9)
H29_2 H 0.462174 0.203539 0.419308
C39_2 C 0.54573(17) 0.2654(2) 0.25836(9)
C40_2 C 0.35647(16) 0.2050(2) 0.42751(8)
H30_2 H 0.358902 0.208813 0.453095
C41_2 C 0.41519(16) 0.1960(2) 0.36978(8)
C42_2 C 0.54409(18) 0.2270(2) 0.29332(9)
C43_2 C 0.71619(16) 0.00955(19) 0.37883(8)
C44_2 C 0.54535(15) 0.33671(18) 0.19202(8)
C45_2 C 0.53946(17) 0.1550(2) 0.35894(9)
H32_2 H 0.537672 0.129921 0.381161
C46_2 C 0.57714(17) 0.27035(19) 0.19496(9)
H33_2 H 0.598557 0.249180 0.174447
C47_2 C 0.57714(18) 0.2357(2) 0.22802(9)
H34_2 H 0.599048 0.190903 0.229939
C48_2 C 0.73045(18) 0.1401(2) 0.34568(10)
H35_2 H 0.735870 0.184566 0.334216
C49_2 C 0.48409(17) 0.2292(2) 0.31495(9)
H36_2 H 0.444365 0.255486 0.307074
C50_2 C 0.78997(16) 0.10330(19) 0.35718(9)
H37_2 H 0.835443 0.122981 0.353634
C51_2 C 0.48109(17) 0.1938(2) 0.34788(9)
C52_2 C 0.60181(18) 0.1885(2) 0.30541(9)
H38_2 H 0.643241 0.186825 0.291033
C53_2 C 0.60008(17) 0.1522(2) 0.33816(9)
C54_2 C 0.66341(17) 0.1126(2) 0.35075(9)
C55_2 C 0.51395(18) 0.3315(2) 0.25496(9)
H39_2 H 0.492107 0.352519 0.275398
C56_2 C 0.65705(17) 0.0468(2) 0.36750(9)
H40_2 H 0.611577 0.027211 0.371189
O16 O 0.90565(10) 0.03172(10) 0.38094(5)
O17_2 O 0.51951(10) 0.43498(11) 0.15526(5)
O18_2 O 0.57254(10) 0.34100(11) 0.13018(5)
P2_2 P 0.04300(6) 0.25464(6) 0.46398(3)
O19_2 O 0.03111(10) 0.20047(11) 0.43523(5)
O20_2 O 0.09706(12) 0.23494(10) 0.49081(5)
C57_2 C 0.0705(4) 0.3362(3) 0.44245(18)
H41_2 H 0.116811 0.329618 0.431298
H42_2 H 0.073203 0.373654 0.460625
H43_2 H 0.036165 0.349284 0.423822
Al5_3 Al 0.16390(4) 0.16390(4) 0.500000
Al6_3 Al 1.000000 -0.000000 0.38241(3)
Al9_5 Al 0.500000 0.500000 0.11759(3)
Al12_2 Al 0.59371(4) 0.36895(4) 0.08228(2)
O23 O 0.15934(10) 0.06156(11) 0.39786(5)
O27_2 O 0.01951(10) 0.06502(11) 0.34474(5)
O29_2 O 0.07254(10) 0.15900(11) 0.36982(5)
H1_2 H 0.008534 0.933380 0.438210
C29_2 C 0.0364(3) 0.7259(4) 0.48538(19)
H21_2 H 0.071565 0.712549 0.467235
H22_2 H 0.029420 0.686835 0.502308
H23_2 H 0.052907 0.767455 0.498638
C33_2 C 0.84749(14) 0.99939(16) 0.38515(7)
H31_2 H 0.710963 0.964783 0.389974
O15 O 0.84066(10) 0.93844(11) 0.39786(5)
Al6_4 Al 1.000000 1.000000 0.38241(3)
Al10 Al 0.90629(4) 0.86895(4) 0.41772(2)
O25 O 0.09435(10) 0.96828(10) 0.38094(5)
C4_2 C 0.15251(14) 0.00061(16) 0.38515(7)
H8_2 H 0.289037 0.035217 0.389974
H24_2 H 0.991466 0.066620 0.438210
C58_2 C 0.9636(3) 0.2741(4) 0.48538(19)
H44_2 H 0.928435 0.287451 0.467235
H45_2 H 0.970580 0.313165 0.502308
H46_2 H 0.947093 0.232545 0.498638
Al1_3 Al 0.83610(4) 0.83610(4) 0.500000
O1_2 O 0.83156(10) 0.80396(10) 0.41425(5)
O2_2 O 0.97857(9) 0.93388(10) 0.41764(5)
O3_2 O 0.87654(9) 0.89269(9) 0.46406(5)
H2_2 H 0.882776 0.940734 0.470475
O4_2 O 0.77029(10) 0.79823(11) 0.46596(5)
C1_2 C 0.77475(14) 0.79969(14) 0.43196(7)
C2_2 C 0.45433(14) 0.62624(16) 0.15656(7)
C3_2 C 0.70797(15) 0.79732(16) 0.41067(7)
C5_2 C 0.71169(16) 0.80278(18) 0.37317(8)
H3_2 H 0.756135 0.804421 0.361415
C6_2 C 0.65019(17) 0.80581(19) 0.35315(8)
H4_2 H 0.652838 0.809174 0.327550
C7_2 C 0.21685(15) 0.96191(17) 0.37379(7)
C8_2 C 0.48604(17) 0.63306(19) 0.22193(8)
H5_2 H 0.507639 0.588093 0.219992
C9_2 C 0.58214(17) 0.7982(2) 0.40742(9)
H6_2 H 0.537826 0.796461 0.419308
C10_2 C 0.45427(17) 0.7346(2) 0.25836(9)
C11_2 C 0.64353(16) 0.7950(2) 0.42751(8)
H7_2 H 0.641098 0.791187 0.453095
C12_2 C 0.58481(16) 0.8040(2) 0.36978(8)
C13_2 C 0.45591(18) 0.7730(2) 0.29332(9)
C14_2 C 0.28381(16) 0.99045(19) 0.37883(8)
C15_2 C 0.45465(15) 0.66329(18) 0.19202(8)
C16_2 C 0.46054(17) 0.8450(2) 0.35894(9)
H9_2 H 0.462328 0.870079 0.381161
C17_2 C 0.42286(17) 0.72965(19) 0.19496(9)
H10_2 H 0.401443 0.750820 0.174447
C18_2 C 0.42286(18) 0.7643(2) 0.22802(9)
H11_2 H 0.400952 0.809097 0.229939
C19_2 C 0.26955(18) 0.8599(2) 0.34568(10)
H12_2 H 0.264130 0.815434 0.334216
C20_2 C 0.51591(17) 0.7708(2) 0.31495(9)
H13_2 H 0.555635 0.744514 0.307074
C21_2 C 0.21003(16) 0.89670(19) 0.35718(9)
H14_2 H 0.164557 0.877019 0.353634
C22_2 C 0.51891(17) 0.8062(2) 0.34788(9)
C23_2 C 0.39819(18) 0.8115(2) 0.30541(9)
H15_2 H 0.356759 0.813175 0.291033
C24_2 C 0.39992(17) 0.8478(2) 0.33816(9)
C25_2 C 0.33659(17) 0.8874(2) 0.35075(9)
C26_2 C 0.48605(18) 0.6685(2) 0.25496(9)
H16_2 H 0.507893 0.647481 0.275398
C27_2 C 0.34295(17) 0.9532(2) 0.36750(9)
H17_2 H 0.388423 0.972789 0.371189
O7_2 O 0.48049(10) 0.56502(11) 0.15526(5)
O8_2 O 0.42746(10) 0.65900(11) 0.13018(5)
P1_2 P 0.95700(6) 0.74536(6) 0.46398(3)
O9_2 O 0.96889(10) 0.79953(11) 0.43523(5)
O10_2 O 0.90294(12) 0.76506(10) 0.49081(5)
C28_2 C 0.9295(4) 0.6638(3) 0.44245(18)
H18_2 H 0.883189 0.670382 0.431298
H19_2 H 0.926797 0.626346 0.460625
H20_2 H 0.963835 0.650716 0.423822
Al13_2 Al 0.40629(4) 0.63105(4) 0.08228(2)
O21_2 O 0.89269(9) 0.87654(9) 0.53594(5)
O22_2 O 0.79823(11) 0.77029(10) 0.53404(5)
O28_2 O 0.98049(10) 0.93498(11) 0.34474(5)
O30_2 O 0.92746(10) 0.84100(11) 0.36982(5)
O31_2 O 0.76506(10) 0.90294(12) 0.50919(5)
O21_3 O 0.62346(9) 0.39269(9) 0.03594(5)
O22_3 O 0.72971(10) 0.29823(11) 0.03404(5)
O31_3 O 0.59706(12) 0.26506(10) 0.00919(5)
O21_4 O 0.10731(9) 0.12346(9) 0.53594(5)
O22_4 O 0.20177(11) 0.22971(10) 0.53404(5)
O31_4 O 0.23494(10) 0.09706(12) 0.50919(5)
O11_3 O 0.19604(10) 0.16844(10) 0.58575(5)
O12_3 O 0.06612(10) 0.02143(9) 0.58236(5)
H25_3 H 0.059266 0.117224 0.529525
C30_3 C 0.20031(14) 0.22525(14) 0.56804(7)
C31_3 C 0.37376(16) 0.54567(14) 0.84344(7)
C32_3 C 0.20268(16) 0.29203(15) 0.58933(7)
C34_3 C 0.19722(18) 0.28831(16) 0.62683(8)
H26_3 H 0.195579 0.243865 0.638585
C35_3 C 0.19419(19) 0.34981(17) 0.64685(8)
H27_3 H 0.190826 0.347162 0.672450
C36_3 C 0.03809(17) 0.78315(15) 0.62621(7)
C37_3 C 0.36694(19) 0.51396(17) 0.77807(8)
H28_3 H 0.411907 0.492361 0.780008
C38_3 C 0.2018(2) 0.41786(17) 0.59258(9)
H29_3 H 0.203539 0.462174 0.580692
C39_3 C 0.2654(2) 0.54573(17) 0.74164(9)
C40_3 C 0.2050(2) 0.35647(16) 0.57249(8)
H30_3 H 0.208813 0.358902 0.546905
C41_3 C 0.1960(2) 0.41519(16) 0.63022(8)
C42_3 C 0.2270(2) 0.54409(18) 0.70668(9)
C43_3 C 0.00955(19) 0.71619(16) 0.62117(8)
C44_3 C 0.33671(18) 0.54535(15) 0.80798(8)
C45_3 C 0.1550(2) 0.53946(17) 0.64106(9)
H32_3 H 0.129921 0.537672 0.618839
C46_3 C 0.27035(19) 0.57714(17) 0.80504(9)
H33_3 H 0.249180 0.598557 0.825553
C47_3 C 0.2357(2) 0.57714(18) 0.77198(9)
H34_3 H 0.190903 0.599048 0.770061
C48_3 C 0.1401(2) 0.73045(18) 0.65432(10)
H35_3 H 0.184566 0.735870 0.665784
C49_3 C 0.2292(2) 0.48409(17) 0.68505(9)
H36_3 H 0.255486 0.444365 0.692926
C50_3 C 0.10330(19) 0.78997(16) 0.64282(9)
H37_3 H 0.122981 0.835443 0.646366
C51_3 C 0.1938(2) 0.48109(17) 0.65212(9)
C52_3 C 0.1885(2) 0.60181(18) 0.69459(9)
H38_3 H 0.186825 0.643241 0.708967
C53_3 C 0.1522(2) 0.60008(17) 0.66184(9)
C54_3 C 0.1126(2) 0.66341(17) 0.64925(9)
C55_3 C 0.3315(2) 0.51395(18) 0.74504(9)
H39_3 H 0.352519 0.492107 0.724602
C56_3 C 0.0468(2) 0.65705(17) 0.63250(9)
H40_3 H 0.027211 0.611577 0.628811
O16_2 O 0.03172(10) 0.90565(10) 0.61906(5)
P2_3 P 0.25464(6) 0.04300(6) 0.53602(3)
O19_3 O 0.20047(11) 0.03111(10) 0.56477(5)
C57_3 C 0.3362(3) 0.0705(4) 0.55755(18)
H41_3 H 0.329618 0.116811 0.568702
H42_3 H 0.373654 0.073203 0.539375
H43_3 H 0.349284 0.036165 0.576178
O23_2 O 0.06156(11) 0.15934(10) 0.60214(5)
C4_3 C 0.00061(16) 0.15251(14) 0.61485(7)
H8_3 H 0.035217 0.289037 0.610026
H24_3 H 0.066620 0.991466 0.561790
C58_3 C 0.2741(4) 0.9636(3) 0.51462(19)
H44_3 H 0.287451 0.928435 0.532765
H45_3 H 0.313165 0.970580 0.497692
H46_3 H 0.232545 0.947093 0.501362
H1_3 H 0.933380 0.008534 0.561790
C29_3 C 0.7259(4) 0.0364(3) 0.51462(19)
H21_3 H 0.712549 0.071565 0.532765
H22_3 H 0.686835 0.029420 0.497692
H23_3 H 0.767455 0.052907 0.501362
C33_3 C 0.99939(16) 0.84749(14) 0.61485(7)
H31_3 H 0.964783 0.710963 0.610026
O15_2 O 0.93844(11) 0.84066(10) 0.60214(5)
O25_2 O 0.96828(10) 0.09435(10) 0.61906(5)
O1_3 O 0.80396(10) 0.83156(10) 0.58575(5)
O2_3 O 0.93388(10) 0.97857(9) 0.58236(5)
H2_3 H 0.940734 0.882776 0.529525
C1_3 C 0.79969(14) 0.77475(14) 0.56804(7)
C2_3 C 0.62624(16) 0.45433(14) 0.84344(7)
C3_3 C 0.79732(16) 0.70797(15) 0.58933(7)
C5_3 C 0.80278(18) 0.71169(16) 0.62683(8)
H3_3 H 0.804421 0.756135 0.638585
C6_3 C 0.80581(19) 0.65019(17) 0.64685(8)
H4_3 H 0.809174 0.652838 0.672450
C7_3 C 0.96191(17) 0.21685(15) 0.62621(7)
C8_3 C 0.63306(19) 0.48604(17) 0.77807(8)
H5_3 H 0.588093 0.507639 0.780008
C9_3 C 0.7982(2) 0.58214(17) 0.59258(9)
H6_3 H 0.796461 0.537826 0.580692
C10_3 C 0.7346(2) 0.45427(17) 0.74164(9)
C11_3 C 0.7950(2) 0.64353(16) 0.57249(8)
H7_3 H 0.791187 0.641098 0.546905
C12_3 C 0.8040(2) 0.58481(16) 0.63022(8)
C13_3 C 0.7730(2) 0.45591(18) 0.70668(9)
C14_3 C 0.99045(19) 0.28381(16) 0.62117(8)
C15_3 C 0.66329(18) 0.45465(15) 0.80798(8)
C16_3 C 0.8450(2) 0.46054(17) 0.64106(9)
H9_3 H 0.870079 0.462328 0.618839
C17_3 C 0.72965(19) 0.42286(17) 0.80504(9)
H10_3 H 0.750820 0.401443 0.825553
C18_3 C 0.7643(2) 0.42286(18) 0.77198(9)
H11_3 H 0.809097 0.400952 0.770061
C19_3 C 0.8599(2) 0.26955(18) 0.65432(10)
H12_3 H 0.815434 0.264130 0.665784
C20_3 C 0.7708(2) 0.51591(17) 0.68505(9)
H13_3 H 0.744514 0.555635 0.692926
C21_3 C 0.89670(19) 0.21003(16) 0.64282(9)
H14_3 H 0.877019 0.164557 0.646366
C22_3 C 0.8062(2) 0.51891(17) 0.65212(9)
C23_3 C 0.8115(2) 0.39819(18) 0.69459(9)
H15_3 H 0.813175 0.356759 0.708967
C24_3 C 0.8478(2) 0.39992(17) 0.66184(9)
C25_3 C 0.8874(2) 0.33659(17) 0.64925(9)
C26_3 C 0.6685(2) 0.48605(18) 0.74504(9)
H16_3 H 0.647481 0.507893 0.724602
C27_3 C 0.9532(2) 0.34295(17) 0.63250(9)
H17_3 H 0.972789 0.388423 0.628811
P1_3 P 0.74536(6) 0.95700(6) 0.53602(3)
O9_3 O 0.79953(11) 0.96889(10) 0.56477(5)
C28_3 C 0.6638(3) 0.9295(4) 0.55755(18)
H18_3 H 0.670382 0.883189 0.568702
H19_3 H 0.626346 0.926797 0.539375
H20_3 H 0.650716 0.963835 0.576178
C2_4 C 0.04567(14) 0.12624(16) 0.34344(7)
C4_4 C 0.34749(14) 0.50061(16) 0.11485(7)
C7_4 C 0.28315(15) 0.46191(17) 0.12621(7)
C8_4 C 0.01396(17) 0.13306(19) 0.27807(8)
C10_4 C 0.04573(17) 0.2346(2) 0.24164(9)
C13_4 C 0.04409(18) 0.2730(2) 0.20668(9)
C14_4 C 0.21619(16) 0.49045(19) 0.12117(8)
H8_4 H 0.210963 0.535217 0.110026
C15_4 C 0.04535(15) 0.16329(18) 0.30798(8)
C16_4 C 0.03946(17) 0.3450(2) 0.14106(9)
H9_4 H 0.037672 0.370079 0.118839
C17_4 C 0.07714(17) 0.22965(19) 0.30504(9)
H10_4 H 0.098557 0.250820 0.325553
C18_4 C 0.07714(18) 0.2643(2) 0.27198(9)
H11_4 H 0.099048 0.309097 0.270061
C19_4 C 0.23045(18) 0.3599(2) 0.15432(10)
H12_4 H 0.235870 0.315434 0.165784
C21_4 C 0.28997(16) 0.39670(19) 0.14282(9)
H14_4 H 0.335443 0.377019 0.146366
C23_4 C 0.10181(18) 0.3115(2) 0.19459(9)
H15_4 H 0.143241 0.313175 0.208967
C24_4 C 0.10008(17) 0.3478(2) 0.16184(9)
C25_4 C 0.16341(17) 0.3874(2) 0.14925(9)
C26_4 C 0.01395(18) 0.1685(2) 0.24504(9)
C27_4 C 0.15705(17) 0.4532(2) 0.13250(9)
H17_4 H 0.111577 0.472789 0.128811
O5_2 O 0.34066(10) 0.56156(11) 0.10214(5)
O6_2 O 0.40565(10) 0.46828(10) 0.11906(5)
O1_4 O 0.66844(10) 0.30396(10) 0.08575(5)
O2_4 O 0.52143(9) 0.43388(10) 0.08236(5)
H1_4 H 0.491466 0.433380 0.061790
H2_4 H 0.617224 0.440734 0.029525
C1_4 C 0.72525(14) 0.29969(14) 0.06804(7)
C3_4 C 0.79203(15) 0.29732(16) 0.08933(7)
C5_4 C 0.78831(16) 0.30278(18) 0.12683(8)
H3_4 H 0.743865 0.304421 0.138585
C6_4 C 0.84981(17) 0.30581(19) 0.14685(8)
H4_4 H 0.847162 0.309174 0.172450
H5_4 H 0.992361 0.088093 0.280008
C9_4 C 0.91786(17) 0.2982(2) 0.09258(9)
H6_4 H 0.962174 0.296461 0.080692
C11_4 C 0.85647(16) 0.2950(2) 0.07249(8)
H7_4 H 0.858902 0.291187 0.046905
C12_4 C 0.91519(16) 0.3040(2) 0.13022(8)
C20_4 C 0.98409(17) 0.2708(2) 0.18505(9)
H13_4 H 0.944365 0.244514 0.192926
C22_4 C 0.98109(17) 0.3062(2) 0.15212(9)
H16_4 H 0.992107 0.147481 0.224602
P1_4 P 0.54300(6) 0.24536(6) 0.03602(3)
O9_4 O 0.53111(10) 0.29953(11) 0.06477(5)
C28_4 C 0.5705(4) 0.1638(3) 0.05755(18)
H18_4 H 0.616811 0.170382 0.068702
H19_4 H 0.573203 0.126346 0.039375
H20_4 H 0.536165 0.150716 0.076178
C29_4 C 0.4636(3) 0.2259(4) 0.01462(19)
H21_4 H 0.428435 0.212549 0.032765
H23_4 H 0.447093 0.267455 0.001362
O11_4 O 0.33156(10) 0.69604(10) 0.08575(5)
O12_4 O 0.47857(9) 0.56612(10) 0.08236(5)
H24_4 H 0.508534 0.566620 0.061790
H25_4 H 0.382776 0.559266 0.029525
C30_4 C 0.27475(14) 0.70031(14) 0.06804(7)
C32_4 C 0.20797(15) 0.70268(16) 0.08933(7)
C34_4 C 0.21169(16) 0.69722(18) 0.12683(8)
H26_4 H 0.256135 0.695579 0.138585
C35_4 C 0.15019(17) 0.69419(19) 0.14685(8)
H27_4 H 0.152838 0.690826 0.172450
H28_4 H 0.007639 0.911907 0.280008
C38_4 C 0.08214(17) 0.7018(2) 0.09258(9)
H29_4 H 0.037826 0.703539 0.080692
C40_4 C 0.14353(16) 0.7050(2) 0.07249(8)
H30_4 H 0.141098 0.708813 0.046905
C41_4 C 0.08481(16) 0.6960(2) 0.13022(8)
C49_4 C 0.01591(17) 0.7292(2) 0.18505(9)
H36_4 H 0.055635 0.755486 0.192926
C51_4 C 0.01891(17) 0.6938(2) 0.15212(9)
H39_4 H 0.007893 0.852519 0.224602
P2_4 P 0.45700(6) 0.75464(6) 0.03602(3)
O19_4 O 0.46889(10) 0.70047(11) 0.06477(5)
C57_4 C 0.4295(4) 0.8362(3) 0.05755(18)
H41_4 H 0.383189 0.829618 0.068702
H42_4 H 0.426797 0.873654 0.039375
H43_4 H 0.463835 0.849284 0.076178
C58_4 C 0.5364(3) 0.7741(4) 0.01462(19)
H44_4 H 0.571565 0.787451 0.032765
H46_4 H 0.552907 0.732545 0.001362
O24_2 O 0.65934(10) 0.43844(11) 0.10214(5)
O26_2 O 0.59435(10) 0.53172(10) 0.11906(5)
H22_4 H 0.470580 0.186835 0.997692
H45_4 H 0.529420 0.813165 0.997692
C31_4 C 0.95433(14) 0.87376(16) 0.34344(7)
C33_4 C 0.65251(14) 0.49939(16) 0.11485(7)
C36_4 C 0.71685(15) 0.53809(17) 0.12621(7)
C37_4 C 0.98604(17) 0.86694(19) 0.27807(8)
C39_4 C 0.95427(17) 0.7654(2) 0.24164(9)
C42_4 C 0.95591(18) 0.7270(2) 0.20668(9)
C43_4 C 0.78381(16) 0.50955(19) 0.12117(8)
H31_4 H 0.789037 0.464783 0.110026
C44_4 C 0.95465(15) 0.83671(18) 0.30798(8)
C45_4 C 0.96054(17) 0.6550(2) 0.14106(9)
H32_4 H 0.962328 0.629921 0.118839
C46_4 C 0.92286(17) 0.77035(19) 0.30504(9)
H33_4 H 0.901443 0.749180 0.325553
C47_4 C 0.92286(18) 0.7357(2) 0.27198(9)
H34_4 H 0.900952 0.690903 0.270061
C48_4 C 0.76955(18) 0.6401(2) 0.15432(10)
H35_4 H 0.764130 0.684566 0.165784
C50_4 C 0.71003(16) 0.60330(19) 0.14282(9)
H37_4 H 0.664557 0.622981 0.146366
C52_4 C 0.89819(18) 0.6885(2) 0.19459(9)
H38_4 H 0.856759 0.686825 0.208967
C53_4 C 0.89992(17) 0.6522(2) 0.16184(9)
C54_4 C 0.83659(17) 0.6126(2) 0.14925(9)
C55_4 C 0.98605(18) 0.8315(2) 0.24504(9)
C56_4 C 0.84295(17) 0.5468(2) 0.13250(9)
H40_4 H 0.888423 0.527211 0.128811
loop_
_geom_bond_atom_site_label_1
_geom_bond_atom_site_label_2
_geom_bond_site_symmetry_1
_geom_bond_site_symmetry_2
C2 C15 1_555 1_555
C4 C7 1_555 1_555
C7 C14 1_555 1_555
C10 C13 1_555 1_555
C14 H8 1_555 1_555
C15 C8 1_555 1_555
C16 H9 1_555 1_555
C17 C15 1_555 1_555
H10 C17 1_555 1_555
C18 C10 1_555 1_555
H11 C18 1_555 1_555
C19 H12 1_555 1_555
C21 C7 1_555 1_555
H14 C21 1_555 1_555
C23 C13 1_555 1_555
H15 C23 1_555 1_555
C24 C16 1_555 1_555
C25 C19 1_555 1_555
C26 C8 1_555 1_555
C27 C14 1_555 1_555
H17 C27 1_555 1_555
O5 C4 1_555 1_555
O6 C4 1_555 1_555
O7 C2 1_555 1_555
O8 C2 1_555 1_555
Al7 O6 1_555 1_555
Al9 O7 1_555 1_555
Al11 O5 1_555 1_555
Al13 O8 1_555 1_555
C10 C26 1_555 1_555
C17 C18 1_555 1_555
C19 C21 1_555 1_555
C23 C24 1_555 1_555
C24 C25 1_555 1_555
C25 C27 1_555 1_555
O21 Al1 1_555 1_555
O22 Al1 1_555 1_555
O31 Al1 1_555 1_555
Al1_2 O3 1_555 1_555
Al7 O2 1_555 1_555
Al3 O1 1_555 1_555
O1 C1 1_555 1_555
O2 Al3 1_555 1_555
H1 O2 1_555 1_555
O3 Al3 1_555 1_555
H2 O3 1_555 1_555
O4 Al1_2 1_555 1_555
C1 O4 1_555 1_555
C3 C1 1_555 1_555
C5 C3 1_555 1_555
H3 C5 1_555 1_555
C6 C5 1_555 1_555
H4 C6 1_555 1_555
C9 H6 1_555 1_555
C11 C3 1_555 1_555
H7 C11 1_555 1_555
C12 C6 1_555 1_555
C20 H13 1_555 1_555
C22 C12 1_555 1_555
P1 O9 1_555 1_555
O9 Al3 1_555 1_555
O10 Al1_2 1_555 1_555
C28 P1 1_555 1_555
H18 C28 1_555 1_555
H19 C28 1_555 1_555
H20 C28 1_555 1_555
C29 P1 1_555 1_555
H21 C29 1_555 1_555
H23 C29 1_555 1_555
Al11 O11 1_555 1_555
O11 C30 1_555 1_555
O12 Al7 1_555 1_555
H24 O12 1_555 1_555
O13 Al11 1_555 1_555
H25 O13 1_555 1_555
O14 C30 1_555 1_555
C30 C32 1_555 1_555
C32 C34 1_555 1_555
C34 H26 1_555 1_555
C35 C34 1_555 1_555
H27 C35 1_555 1_555
C38 H29 1_555 1_555
C40 C32 1_555 1_555
H30 C40 1_555 1_555
C41 C35 1_555 1_555
C49 H36 1_555 1_555
C51 C41 1_555 1_555
P2 O19 1_555 1_555
O19 Al11 1_555 1_555
O20 P2 1_555 1_555
C57 P2 1_555 1_555
H41 C57 1_555 1_555
H42 C57 1_555 1_555
H43 C57 1_555 1_555
C58 P2 1_555 1_555
H44 C58 1_555 1_555
H46 C58 1_555 1_555
Al5_2 O13 1_555 1_555
O24 Al3 1_555 1_555
O26 Al7 1_555 1_555
O27 Al7 1_555 1_555
O28 Al7 1_555 1_555
O29 Al11 1_555 1_555
O30 Al3 1_555 1_555
C9 C11 1_555 1_555
C9 C12 1_555 1_555
C20 C22 1_555 1_555
P1 O10 1_555 1_555
Al11 O12 1_555 1_555
O14 Al5_2 1_555 1_555
C38 C40 1_555 1_555
C38 C41 1_555 1_555
C49 C51 1_555 1_555
O20 Al5_2 1_555 1_555
C31 C44 1_555 1_555
C33 C36 1_555 1_555
C36 C43 1_555 1_555
C39 C42 1_555 1_555
C43 H31 1_555 1_555
C44 C37 1_555 1_555
C45 H32 1_555 1_555
C46 C44 1_555 1_555
H33 C46 1_555 1_555
C47 C39 1_555 1_555
H34 C47 1_555 1_555
C48 H35 1_555 1_555
C50 C36 1_555 1_555
H37 C50 1_555 1_555
C52 C42 1_555 1_555
H38 C52 1_555 1_555
C53 C45 1_555 1_555
C54 C48 1_555 1_555
C55 C37 1_555 1_555
C56 C43 1_555 1_555
H40 C56 1_555 1_555
O24 C33 1_555 1_555
O26 C33 1_555 1_555
O17 C31 1_555 1_555
O18 C31 1_555 1_555
Al9_4 O17 1_555 1_555
Al12 O18 1_555 1_555
C39 C55 1_555 1_555
C46 C47 1_555 1_555
C48 C50 1_555 1_555
C52 C53 1_555 1_555
C53 C54 1_555 1_555
C54 C56 1_555 1_555
Al4 O11_2 1_555 1_555
O11_2 C30_2 1_555 1_555
O12_2 Al6 1_555 1_555
O13_2 Al4 1_555 1_555
H25_2 O13_2 1_555 1_555
O14_2 C30_2 1_555 1_555
C30_2 C32_2 1_555 1_555
C31_2 C44_2 1_555 1_555
C32_2 C34_2 1_555 1_555
C34_2 H26_2 1_555 1_555
C35_2 C34_2 1_555 1_555
H27_2 C35_2 1_555 1_555
C36_2 C43_2 1_555 1_555
C37_2 H28_2 1_555 1_555
C38_2 H29_2 1_555 1_555
C39_2 C42_2 1_555 1_555
C40_2 C32_2 1_555 1_555
H30_2 C40_2 1_555 1_555
C41_2 C35_2 1_555 1_555
C42_2 C49_2 1_555 1_555
C44_2 C37_2 1_555 1_555
C45_2 H32_2 1_555 1_555
C46_2 C44_2 1_555 1_555
H33_2 C46_2 1_555 1_555
C47_2 C39_2 1_555 1_555
H34_2 C47_2 1_555 1_555
C48_2 H35_2 1_555 1_555
C49_2 H36_2 1_555 1_555
C50_2 C36_2 1_555 1_555
H37_2 C50_2 1_555 1_555
C51_2 C41_2 1_555 1_555
C52_2 C42_2 1_555 1_555
H38_2 C52_2 1_555 1_555
C53_2 C45_2 1_555 1_555
C54_2 C48_2 1_555 1_555
C55_2 C37_2 1_555 1_555
H39_2 C55_2 1_555 1_555
C56_2 C43_2 1_555 1_555
H40_2 C56_2 1_555 1_555
O17_2 C31_2 1_555 1_555
O18_2 C31_2 1_555 1_555
P2_2 O19_2 1_555 1_555
O19_2 Al4 1_555 1_555
O20_2 P2_2 1_555 1_555
C57_2 P2_2 1_555 1_555
H41_2 C57_2 1_555 1_555
H42_2 C57_2 1_555 1_555
H43_2 C57_2 1_555 1_555
Al5_3 O13_2 1_555 1_555
Al6_3 O16 1_555 1_555
Al9_5 O17_2 1_555 1_555
Al12_2 O18_2 1_555 1_555
O23 Al4 1_555 1_555
O27_2 Al6 1_555 1_555
O29_2 Al4 1_555 1_555
Al4 O12_2 1_555 1_555
O14_2 Al5_3 1_555 1_555
C38_2 C40_2 1_555 1_555
C38_2 C41_2 1_555 1_555
C39_2 C55_2 1_555 1_555
C45_2 C51_2 1_555 1_555
C46_2 C47_2 1_555 1_555
C48_2 C50_2 1_555 1_555
C49_2 C51_2 1_555 1_555
C52_2 C53_2 1_555 1_555
C53_2 C54_2 1_555 1_555
C54_2 C56_2 1_555 1_555
O20_2 Al5_3 1_555 1_555
H21_2 C29_2 1_555 1_555
H22_2 C29_2 1_555 1_555
H23_2 C29_2 1_555 1_555
O15 C33_2 1_555 1_555
Al10 O15 1_555 1_555
O25 Al6_2 1_555 1_555
O23 C4_2 1_555 1_555
H44_2 C58_2 1_555 1_555
H45_2 C58_2 1_555 1_555
H46_2 C58_2 1_555 1_555
Al1_3 O3_2 1_555 1_555
Al6_4 O2_2 1_555 1_555
Al10 O1_2 1_555 1_555
O1_2 C1_2 1_555 1_555
O2_2 Al10 1_555 1_555
O3_2 Al10 1_555 1_555
H2_2 O3_2 1_555 1_555
O4_2 Al1_3 1_555 1_555
C1_2 O4_2 1_555 1_555
C2_2 C15_2 1_555 1_555
C3_2 C1_2 1_555 1_555
C5_2 C3_2 1_555 1_555
H3_2 C5_2 1_555 1_555
C6_2 C5_2 1_555 1_555
H4_2 C6_2 1_555 1_555
C7_2 C14_2 1_555 1_555
C8_2 H5_2 1_555 1_555
C9_2 H6_2 1_555 1_555
C10_2 C13_2 1_555 1_555
C11_2 C3_2 1_555 1_555
H7_2 C11_2 1_555 1_555
C12_2 C6_2 1_555 1_555
C13_2 C20_2 1_555 1_555
C15_2 C8_2 1_555 1_555
C16_2 H9_2 1_555 1_555
C17_2 C15_2 1_555 1_555
H10_2 C17_2 1_555 1_555
C18_2 C10_2 1_555 1_555
H11_2 C18_2 1_555 1_555
C19_2 H12_2 1_555 1_555
C20_2 H13_2 1_555 1_555
C21_2 C7_2 1_555 1_555
H14_2 C21_2 1_555 1_555
C22_2 C12_2 1_555 1_555
C23_2 C13_2 1_555 1_555
H15_2 C23_2 1_555 1_555
C24_2 C16_2 1_555 1_555
C25_2 C19_2 1_555 1_555
C26_2 C8_2 1_555 1_555
H16_2 C26_2 1_555 1_555
C27_2 C14_2 1_555 1_555
H17_2 C27_2 1_555 1_555
O7_2 C2_2 1_555 1_555
O8_2 C2_2 1_555 1_555
P1_2 O9_2 1_555 1_555
O9_2 Al10 1_555 1_555
O10_2 Al1_3 1_555 1_555
C28_2 P1_2 1_555 1_555
H18_2 C28_2 1_555 1_555
H19_2 C28_2 1_555 1_555
H20_2 C28_2 1_555 1_555
Al9_5 O7_2 1_555 1_555
Al13_2 O8_2 1_555 1_555
O21_2 Al1_3 1_555 1_555
O22_2 Al1_3 1_555 1_555
O28_2 Al6_4 1_555 1_555
O30_2 Al10 1_555 1_555
O31_2 Al1_3 1_555 1_555
C9_2 C11_2 1_555 1_555
C9_2 C12_2 1_555 1_555
C10_2 C26_2 1_555 1_555
C16_2 C22_2 1_555 1_555
C17_2 C18_2 1_555 1_555
C19_2 C21_2 1_555 1_555
C20_2 C22_2 1_555 1_555
C23_2 C24_2 1_555 1_555
C24_2 C25_2 1_555 1_555
C25_2 C27_2 1_555 1_555
P1_2 O10_2 1_555 1_555
O21_3 Al5 1_555 1_555
O22_3 Al5 1_555 1_555
O31_3 Al5 1_555 1_555
O21_4 Al5_3 1_555 1_555
O22_4 Al5_3 1_555 1_555
O31_4 Al5_3 1_555 1_555
Al13 O11_3 1_555 1_555
O11_3 C30_3 1_555 1_555
O12_3 Al9 1_555 1_555
O21_4 Al13 1_555 1_555
H25_3 O21_4 1_555 1_555
O22_4 C30_3 1_555 1_555
C30_3 C32_3 1_555 1_555
C31_3 C44_3 1_555 1_555
C32_3 C34_3 1_555 1_555
C34_3 H26_3 1_555 1_555
C35_3 C34_3 1_555 1_555
H27_3 C35_3 1_555 1_555
C36_3 C43_3 1_555 1_555
C37_3 H28_3 1_555 1_555
C38_3 H29_3 1_555 1_555
C39_3 C42_3 1_555 1_555
C40_3 C32_3 1_555 1_555
H30_3 C40_3 1_555 1_555
C41_3 C35_3 1_555 1_555
C42_3 C49_3 1_555 1_555
C44_3 C37_3 1_555 1_555
C45_3 H32_3 1_555 1_555
C46_3 C44_3 1_555 1_555
H33_3 C46_3 1_555 1_555
C47_3 C39_3 1_555 1_555
H34_3 C47_3 1_555 1_555
C48_3 H35_3 1_555 1_555
C49_3 H36_3 1_555 1_555
C50_3 C36_3 1_555 1_555
H37_3 C50_3 1_555 1_555
C51_3 C41_3 1_555 1_555
C52_3 C42_3 1_555 1_555
H38_3 C52_3 1_555 1_555
C53_3 C45_3 1_555 1_555
C54_3 C48_3 1_555 1_555
C55_3 C37_3 1_555 1_555
H39_3 C55_3 1_555 1_555
C56_3 C43_3 1_555 1_555
H40_3 C56_3 1_555 1_555
O28 C31_3 1_555 1_555
O30 C31_3 1_555 1_555
P2_3 O19_3 1_555 1_555
O19_3 Al13 1_555 1_555
O31_4 P2_3 1_555 1_555
C57_3 P2_3 1_555 1_555
H41_3 C57_3 1_555 1_555
H42_3 C57_3 1_555 1_555
H43_3 C57_3 1_555 1_555
Al9_2 O16_2 1_555 1_555
O23_2 Al13 1_555 1_555
Al13 O12_3 1_555 1_555
C38_3 C40_3 1_555 1_555
C38_3 C41_3 1_555 1_555
C39_3 C55_3 1_555 1_555
C45_3 C51_3 1_555 1_555
C46_3 C47_3 1_555 1_555
C48_3 C50_3 1_555 1_555
C49_3 C51_3 1_555 1_555
C52_3 C53_3 1_555 1_555
C53_3 C54_3 1_555 1_555
C54_3 C56_3 1_555 1_555
O23_2 C4_3 1_555 1_555
H44_3 C58_3 1_555 1_555
H45_3 C58_3 1_555 1_555
H46_3 C58_3 1_555 1_555
H21_3 C29_3 1_555 1_555
H22_3 C29_3 1_555 1_555
H23_3 C29_3 1_555 1_555
O15_2 C33_3 1_555 1_555
Al12 O15_2 1_555 1_555
O25_2 Al9_3 1_555 1_555
Al9_4 O2_3 1_555 1_555
Al12 O1_3 1_555 1_555
O1_3 C1_3 1_555 1_555
O2_3 Al12 1_555 1_555
O21_2 Al12 1_555 1_555
H2_3 O21_2 1_555 1_555
C1_3 O22_2 1_555 1_555
C2_3 C15_3 1_555 1_555
C3_3 C1_3 1_555 1_555
C5_3 C3_3 1_555 1_555
H3_3 C5_3 1_555 1_555
C6_3 C5_3 1_555 1_555
H4_3 C6_3 1_555 1_555
C7_3 C14_3 1_555 1_555
C8_3 H5_3 1_555 1_555
C9_3 H6_3 1_555 1_555
C10_3 C13_3 1_555 1_555
C11_3 C3_3 1_555 1_555
H7_3 C11_3 1_555 1_555
C12_3 C6_3 1_555 1_555
C13_3 C20_3 1_555 1_555
C15_3 C8_3 1_555 1_555
C16_3 H9_3 1_555 1_555
C17_3 C15_3 1_555 1_555
H10_3 C17_3 1_555 1_555
C18_3 C10_3 1_555 1_555
H11_3 C18_3 1_555 1_555
C19_3 H12_3 1_555 1_555
C20_3 H13_3 1_555 1_555
C21_3 C7_3 1_555 1_555
H14_3 C21_3 1_555 1_555
C22_3 C12_3 1_555 1_555
C23_3 C13_3 1_555 1_555
H15_3 C23_3 1_555 1_555
C24_3 C16_3 1_555 1_555
C25_3 C19_3 1_555 1_555
C26_3 C8_3 1_555 1_555
H16_3 C26_3 1_555 1_555
C27_3 C14_3 1_555 1_555
H17_3 C27_3 1_555 1_555
O27 C2_3 1_555 1_555
O29 C2_3 1_555 1_555
P1_3 O9_3 1_555 1_555
O9_3 Al12 1_555 1_555
C28_3 P1_3 1_555 1_555
H18_3 C28_3 1_555 1_555
H19_3 C28_3 1_555 1_555
H20_3 C28_3 1_555 1_555
C9_3 C11_3 1_555 1_555
C9_3 C12_3 1_555 1_555
C10_3 C26_3 1_555 1_555
C16_3 C22_3 1_555 1_555
C17_3 C18_3 1_555 1_555
C19_3 C21_3 1_555 1_555
C20_3 C22_3 1_555 1_555
C23_3 C24_3 1_555 1_555
C24_3 C25_3 1_555 1_555
C25_3 C27_3 1_555 1_555
P1_3 O31_2 1_555 1_555
C2_4 C15_4 1_555 1_555
C4_4 C7_4 1_555 1_555
C7_4 C14_4 1_555 1_555
C10_4 C13_4 1_555 1_555
C14_4 H8_4 1_555 1_555
C15_4 C8_4 1_555 1_555
C16_4 H9_4 1_555 1_555
C17_4 C15_4 1_555 1_555
H10_4 C17_4 1_555 1_555
C18_4 C10_4 1_555 1_555
H11_4 C18_4 1_555 1_555
C19_4 H12_4 1_555 1_555
C21_4 C7_4 1_555 1_555
H14_4 C21_4 1_555 1_555
C23_4 C13_4 1_555 1_555
H15_4 C23_4 1_555 1_555
C24_4 C16_4 1_555 1_555
C25_4 C19_4 1_555 1_555
C26_4 C8_4 1_555 1_555
C27_4 C14_4 1_555 1_555
H17_4 C27_4 1_555 1_555
O5_2 C4_4 1_555 1_555
O6_2 C4_4 1_555 1_555
O27_2 C2_4 1_555 1_555
O29_2 C2_4 1_555 1_555
Al9_5 O6_2 1_555 1_555
Al13_2 O5_2 1_555 1_555
C10_4 C26_4 1_555 1_555
C17_4 C18_4 1_555 1_555
C19_4 C21_4 1_555 1_555
C23_4 C24_4 1_555 1_555
C24_4 C25_4 1_555 1_555
C25_4 C27_4 1_555 1_555
Al9_5 O2_4 1_555 1_555
Al12_2 O1_4 1_555 1_555
O1_4 C1_4 1_555 1_555
O2_4 Al12_2 1_555 1_555
H1_4 O2_4 1_555 1_555
O21_3 Al12_2 1_555 1_555
H2_4 O21_3 1_555 1_555
C1_4 O22_3 1_555 1_555
C3_4 C1_4 1_555 1_555
C5_4 C3_4 1_555 1_555
H3_4 C5_4 1_555 1_555
C6_4 C5_4 1_555 1_555
H4_4 C6_4 1_555 1_555
C9_4 H6_4 1_555 1_555
C11_4 C3_4 1_555 1_555
H7_4 C11_4 1_555 1_555
C12_4 C6_4 1_555 1_555
C20_4 H13_4 1_555 1_555
C22_4 C12_4 1_555 1_555
P1_4 O9_4 1_555 1_555
O9_4 Al12_2 1_555 1_555
C28_4 P1_4 1_555 1_555
H18_4 C28_4 1_555 1_555
H19_4 C28_4 1_555 1_555
H20_4 C28_4 1_555 1_555
C29_4 P1_4 1_555 1_555
H21_4 C29_4 1_555 1_555
H23_4 C29_4 1_555 1_555
Al13_2 O11_4 1_555 1_555
O11_4 C30_4 1_555 1_555
O12_4 Al9_5 1_555 1_555
H24_4 O12_4 1_555 1_555
O21 Al13_2 1_555 1_555
H25_4 O21 1_555 1_555
O22 C30_4 1_555 1_555
C30_4 C32_4 1_555 1_555
C32_4 C34_4 1_555 1_555
C34_4 H26_4 1_555 1_555
C35_4 C34_4 1_555 1_555
H27_4 C35_4 1_555 1_555
C38_4 H29_4 1_555 1_555
C40_4 C32_4 1_555 1_555
H30_4 C40_4 1_555 1_555
C41_4 C35_4 1_555 1_555
C49_4 H36_4 1_555 1_555
C51_4 C41_4 1_555 1_555
P2_4 O19_4 1_555 1_555
O19_4 Al13_2 1_555 1_555
O31 P2_4 1_555 1_555
C57_4 P2_4 1_555 1_555
H41_4 C57_4 1_555 1_555
H42_4 C57_4 1_555 1_555
H43_4 C57_4 1_555 1_555
C58_4 P2_4 1_555 1_555
H44_4 C58_4 1_555 1_555
H46_4 C58_4 1_555 1_555
O24_2 Al12_2 1_555 1_555
O26_2 Al9_5 1_555 1_555
C9_4 C11_4 1_555 1_555
C9_4 C12_4 1_555 1_555
C20_4 C22_4 1_555 1_555
P1_4 O31_3 1_555 1_555
Al13_2 O12_4 1_555 1_555
C38_4 C40_4 1_555 1_555
C38_4 C41_4 1_555 1_555
C49_4 C51_4 1_555 1_555
C31_4 C44_4 1_555 1_555
C33_4 C36_4 1_555 1_555
C36_4 C43_4 1_555 1_555
C39_4 C42_4 1_555 1_555
C43_4 H31_4 1_555 1_555
C44_4 C37_4 1_555 1_555
C45_4 H32_4 1_555 1_555
C46_4 C44_4 1_555 1_555
H33_4 C46_4 1_555 1_555
C47_4 C39_4 1_555 1_555
H34_4 C47_4 1_555 1_555
C48_4 H35_4 1_555 1_555
C50_4 C36_4 1_555 1_555
H37_4 C50_4 1_555 1_555
C52_4 C42_4 1_555 1_555
H38_4 C52_4 1_555 1_555
C53_4 C45_4 1_555 1_555
C54_4 C48_4 1_555 1_555
C55_4 C37_4 1_555 1_555
C56_4 C43_4 1_555 1_555
H40_4 C56_4 1_555 1_555
O24_2 C33_4 1_555 1_555
O26_2 C33_4 1_555 1_555
O28_2 C31_4 1_555 1_555
O30_2 C31_4 1_555 1_555
C39_4 C55_4 1_555 1_555
C46_4 C47_4 1_555 1_555
C48_4 C50_4 1_555 1_555
C52_4 C53_4 1_555 1_555
C53_4 C54_4 1_555 1_555
C54_4 C56_4 1_555 1_555

#END
