
###############################################################################
#
# This file contains modified crystal structure data generated from the
# MOF subset of the Cambridge Structural Database (CSD) v543 
# hosted by the Cambridge Crystallographic Data Centre (CCDC).
#
# This work is licensed under the Creative Commons
# Attribution-NonCommercial-ShareAlike 4.0 International License.
# To view a copy of this license, visit
# http://creativecommons.org/licenses/by-nc-sa/4.0/
# or send a letter to
# Creative Commons, PO Box 1866, Mountain View, CA 94042, USA.
#
# CIF created using the CSD Python API on 29 September 2022
# The structure has been converted into the P1 space group
# The structure has a 3D framework
# The original CSD entry QOXRIH is in the tetragonal crystal system
# The original CSD entry QOXRIH is in a Sohncke space group
# The framework has been calculated to contain at least 10.0% void space
# The void calculation uses a probe of radius 1.32A, grid spacing 0.4
#
###############################################################################

data_QOXRIH
_chemical_formula_moiety         '(C224 H144 Al16 O76)n'
_symmetry_cell_setting           triclinic
_symmetry_space_group_name_H-M   'P 1'
_symmetry_Int_Tables_number      1
_space_group_name_Hall           'P 1'
loop_
_symmetry_equiv_pos_site_id
_symmetry_equiv_pos_as_xyz
1 x,y,z
_cell_length_a                   19.079(3)
_cell_length_b                   19.079(3)
_cell_length_c                   36.683(5)
_cell_angle_alpha                90
_cell_angle_beta                 90
_cell_angle_gamma                90
_cell_volume                     13352.9
loop_
_atom_site_label
_atom_site_type_symbol
_atom_site_fract_x
_atom_site_fract_y
_atom_site_fract_z
Al9 Al 0.000000 0.000000 0.61524(2)
C4 C 0.04766(10) 0.87526(15) 0.65469(5)
C5 C 0.34927(9) 0.50363(13) 0.88556(5)
C7 C 0.28569(11) 0.54392(16) 0.87421(7)
C8 C 0.04476(16) 0.6621(3) 0.86070(9)
H4 H 0.043559 0.637822 0.883287
C11 C 0.08029(15) 0.7743(2) 0.69471(8)
H7 H 0.102271 0.753291 0.674214
C12 C 0.04961(18) 0.7714(3) 0.75860(9)
C13 C 0.23525(15) 0.6459(2) 0.84628(10)
H8 H 0.241062 0.690113 0.834736
C14 C 0.16766(14) 0.6193(2) 0.85185(9)
C15 C 0.16013(13) 0.5533(2) 0.86793(9)
H9 H 0.114586 0.534151 0.871192
C16 C 0.04783(12) 0.83931(18) 0.69094(6)
C17 C 0.21868(12) 0.5150(2) 0.87928(8)
H10 H 0.213248 0.470260 0.890242
C18 C 0.29369(13) 0.60856(18) 0.85743(8)
H11 H 0.339259 0.627224 0.853587
C20 C 0.04884(18) 0.7334(3) 0.79414(9)
C21 C 0.10529(16) 0.6598(3) 0.83936(9)
C22 C 0.08093(18) 0.7401(2) 0.72785(9)
H13 H 0.102522 0.695405 0.729934
C24 C 0.01569(14) 0.8699(2) 0.72066(7)
C25 C 0.01653(17) 0.8354(3) 0.75441(8)
C26 C 0.10615(17) 0.6954(3) 0.80596(9)
H17 H 0.146925 0.693294 0.791132
O5 O 0.34089(7) 0.44208(9) 0.89723(4)
O6 O 0.40720(7) 0.53513(8) 0.88235(4)
O7 O 0.02219(7) 0.93590(10) 0.65358(4)
O8 O 0.07349(8) 0.84156(10) 0.62816(4)
Al7 Al 0.500000 0.500000 0.88476(2)
Al9_2 Al 0.000000 1.000000 0.61524(2)
Al11 Al 0.40170(3) 0.37295(3) 0.91898(2)
Al12 Al 0.09830(3) 0.87295(3) 0.58102(2)
Al9_3 Al 1.000000 0.000000 0.61524(2)
Al1 Al 0.66284(3) 0.66284(3) 0.000000
Al5 Al 0.33716(3) 0.33716(3) 0.000000
O21 O 0.60219(8) 0.62866(10) 0.03496(4)
O22 O 0.69496(9) 0.73318(7) 0.03263(3)
O31 O 0.7380(2) 0.5993(2) 0.01465(12)
Al1_2 Al 0.66284(3) 0.66284(3) 1.000000
Al3 Al 0.59830(3) 0.62705(3) 0.91898(2)
O1 O 0.52345(7) 0.56570(8) 0.91998(3)
H1 H 0.493791 0.568038 0.940750
O2 O 0.62866(10) 0.60219(8) 0.96504(4)
H2 H 0.626490 0.553917 0.971287
O3 O 0.67461(7) 0.68950(8) 0.91443(3)
O4 O 0.73318(7) 0.69496(9) 0.96737(3)
C1 C 0.79676(11) 0.70127(15) 0.91225(5)
C2 C 0.86125(12) 0.70433(18) 0.92968(6)
H3 H 0.863280 0.705928 0.955542
C3 C 0.73013(10) 0.69519(12) 0.93299(5)
C6 C 0.92045(14) 0.7012(2) 0.87130(7)
C9 C 0.79443(13) 0.69808(19) 0.87413(6)
H5 H 0.750411 0.696477 0.862055
C10 C 0.85524(15) 0.6972(2) 0.85403(7)
H6 H 0.852931 0.693980 0.828215
C19 C 0.92278(13) 0.7051(2) 0.90952(7)
H12 H 0.966690 0.708235 0.921625
C23 C 0.98876(17) 0.7359(3) 0.81603(9)
H14 H 0.949350 0.762387 0.808261
H15 H 0.993155 0.914101 0.718267
H16 H 0.993956 0.856314 0.774760
C27 C 0.98603(16) 0.6997(3) 0.84928(8)
O9 O 0.53831(16) 0.70237(17) 0.93581(9)
C28 C 0.5522(2) 0.7427(3) 0.96146(13)
H18 H 0.523055 0.782963 0.963264
O10 O 0.5993(2) 0.7380(2) 0.98535(12)
O11 O 0.47655(7) 0.43430(8) 0.91998(3)
H19 H 0.506209 0.431962 0.940750
O12 O 0.37134(10) 0.39781(8) 0.96504(4)
H20 H 0.373510 0.446083 0.971287
O13 O 0.32539(7) 0.31050(8) 0.91443(3)
O14 O 0.26682(7) 0.30504(9) 0.96737(3)
C29 C 0.20324(11) 0.29873(15) 0.91225(5)
C30 C 0.13875(12) 0.29567(18) 0.92968(6)
H21 H 0.136720 0.294072 0.955542
C31 C 0.26987(10) 0.30481(12) 0.93299(5)
C34 C 0.07955(14) 0.2988(2) 0.87130(7)
C37 C 0.20557(13) 0.30192(19) 0.87413(6)
H23 H 0.249589 0.303523 0.862055
C38 C 0.14476(15) 0.3028(2) 0.85403(7)
H24 H 0.147069 0.306020 0.828215
C47 C 0.07722(13) 0.2949(2) 0.90952(7)
H30 H 0.033310 0.291765 0.921625
C51 C 0.01124(17) 0.2641(3) 0.81603(9)
H32 H 0.050650 0.237613 0.808261
H33 H 0.006845 0.085899 0.718267
H34 H 0.006044 0.143686 0.774760
C55 C 0.01397(16) 0.3003(3) 0.84928(8)
O19 O 0.46169(16) 0.29763(17) 0.93581(9)
C56 C 0.4478(2) 0.2573(3) 0.96146(13)
H36 H 0.476945 0.217037 0.963264
O20 O 0.4007(2) 0.2620(2) 0.98535(12)
Al5_2 Al 0.33716(3) 0.33716(3) 1.000000
Al9_4 Al 1.000000 1.000000 0.61524(2)
O24 O 0.65911(7) 0.55792(9) 0.89723(4)
O26 O 0.59280(7) 0.46487(8) 0.88235(4)
O27 O 0.52219(7) 0.56410(10) 0.84642(4)
O28 O 0.47781(7) 0.43590(10) 0.84642(4)
O29 O 0.57349(8) 0.65844(10) 0.87184(4)
O30 O 0.42651(8) 0.34156(10) 0.87184(4)
C32 C 0.95234(10) 0.12474(15) 0.65469(5)
C33 C 0.65073(9) 0.49637(13) 0.88556(5)
C35 C 0.71431(11) 0.45608(16) 0.87421(7)
C36 C 0.95524(16) 0.3379(3) 0.86070(9)
H22 H 0.956441 0.362178 0.883287
C39 C 0.91971(15) 0.2257(2) 0.69471(8)
H25 H 0.897729 0.246709 0.674214
C40 C 0.95039(18) 0.2286(3) 0.75860(9)
C41 C 0.76475(15) 0.3541(2) 0.84628(10)
H26 H 0.758938 0.309887 0.834736
C42 C 0.83234(14) 0.3807(2) 0.85185(9)
C43 C 0.83987(13) 0.4467(2) 0.86793(9)
H27 H 0.885414 0.465849 0.871192
C44 C 0.95217(12) 0.16069(18) 0.69094(6)
C45 C 0.78132(12) 0.4850(2) 0.87928(8)
H28 H 0.786752 0.529740 0.890242
C46 C 0.70631(13) 0.39144(18) 0.85743(8)
H29 H 0.660741 0.372776 0.853587
C48 C 0.95116(18) 0.2666(3) 0.79414(9)
C49 C 0.89471(16) 0.3402(3) 0.83936(9)
C50 C 0.91907(18) 0.2599(2) 0.72785(9)
H31 H 0.897478 0.304595 0.729934
C52 C 0.98431(14) 0.1301(2) 0.72066(7)
C53 C 0.98347(17) 0.1646(3) 0.75441(8)
C54 C 0.89385(17) 0.3046(3) 0.80596(9)
H35 H 0.853075 0.306706 0.791132
O17 O 0.97781(7) 0.06410(10) 0.65358(4)
O18 O 0.92651(8) 0.15844(10) 0.62816(4)
Al13 Al 0.90170(3) 0.12705(3) 0.58102(2)
Al7_2 Al 0.000000 0.000000 0.38476(2)
H10_2 H 0.029740 0.713248 0.390242
O5_2 O 0.05792(9) 0.84089(7) 0.39723(4)
H19_2 H 0.068038 0.006209 0.440750
Al7_3 Al -0.000000 1.000000 0.38476(2)
Al11_2 Al 0.12705(3) 0.90170(3) 0.41898(2)
O26_2 O 0.03513(8) 0.09280(7) 0.38235(4)
O11_2 O 0.06570(8) 0.97655(7) 0.41998(3)
O12_2 O 0.10219(8) 0.87134(10) 0.46504(4)
H20_2 H 0.053917 0.873510 0.471287
O13_2 O 0.18950(8) 0.82539(7) 0.41443(3)
O14_2 O 0.19496(9) 0.76682(7) 0.46737(3)
C29_2 C 0.20127(15) 0.70324(11) 0.41225(5)
C30_2 C 0.20433(18) 0.63875(12) 0.42968(6)
H21_2 H 0.205928 0.636720 0.455542
C31_2 C 0.19519(12) 0.76987(10) 0.43299(5)
C32_2 C 0.37526(15) 0.45234(10) 0.15469(5)
C33_2 C 0.00363(13) 0.15073(9) 0.38556(5)
C34_2 C 0.2012(2) 0.57955(14) 0.37130(7)
C35_2 C 0.04392(16) 0.21431(11) 0.37421(7)
C36_2 C 0.1621(3) 0.45524(16) 0.36070(9)
H22_2 H 0.137822 0.456441 0.383287
C37_2 C 0.19808(19) 0.70557(13) 0.37413(6)
H23_2 H 0.196477 0.749589 0.362055
C38_2 C 0.1972(2) 0.64476(15) 0.35403(7)
H24_2 H 0.193980 0.647069 0.328215
C39_2 C 0.2743(2) 0.41971(15) 0.19471(8)
H25_2 H 0.253291 0.397729 0.174214
C40_2 C 0.2714(3) 0.45039(18) 0.25860(9)
C41_2 C 0.1459(2) 0.26475(15) 0.34628(10)
H26_2 H 0.190113 0.258938 0.334736
C42_2 C 0.1193(2) 0.33234(14) 0.35185(9)
C43_2 C 0.0533(2) 0.33987(13) 0.36793(9)
H27_2 H 0.034151 0.385414 0.371192
C44_2 C 0.33931(18) 0.45217(12) 0.19094(6)
C45_2 C 0.0150(2) 0.28132(12) 0.37928(8)
C46_2 C 0.10856(18) 0.20631(13) 0.35743(8)
H29_2 H 0.127224 0.160741 0.353587
C47_2 C 0.2051(2) 0.57722(13) 0.40952(7)
H30_2 H 0.208235 0.533310 0.421625
C48_2 C 0.2334(3) 0.45116(18) 0.29414(9)
C49_2 C 0.1598(3) 0.39471(16) 0.33936(9)
C50_2 C 0.2401(2) 0.41907(18) 0.22785(9)
H31_2 H 0.195405 0.397478 0.229934
C51_2 C 0.2359(3) 0.51124(17) 0.31603(9)
H32_2 H 0.262387 0.550650 0.308261
C52_2 C 0.3699(2) 0.48431(14) 0.22066(7)
H33_2 H 0.414101 0.506845 0.218267
C53_2 C 0.3354(3) 0.48347(17) 0.25441(8)
H34_2 H 0.356314 0.506044 0.274760
C54_2 C 0.1954(3) 0.39385(17) 0.30596(9)
H35_2 H 0.193294 0.353075 0.291132
C55_2 C 0.1997(3) 0.51397(16) 0.34928(8)
O17_2 O 0.43590(10) 0.47781(7) 0.15358(4)
O18_2 O 0.34156(10) 0.42651(8) 0.12816(4)
O19_2 O 0.20237(17) 0.96169(16) 0.43581(9)
C56_2 C 0.2427(3) 0.9478(2) 0.46146(13)
H36_2 H 0.282963 0.976945 0.463264
O20_2 O 0.2380(2) 0.9007(2) 0.48535(12)
Al5_3 Al 0.16284(3) 0.83716(3) 0.500000
Al8 Al 0.500000 0.500000 0.11524(2)
Al13_2 Al 0.37295(3) 0.40170(3) 0.08102(2)
O28_2 O 0.06410(10) 0.97781(7) 0.34642(4)
O30_2 O 0.15844(10) 0.92651(8) 0.37184(4)
Al7_4 Al 1.000000 0.000000 0.38476(2)
Al1_3 Al 0.83716(3) 0.16284(3) 0.500000
Al3_2 Al 0.87295(3) 0.09830(3) 0.41898(2)
O1_2 O 0.93430(8) 0.02345(7) 0.41998(3)
O2_2 O 0.89781(8) 0.12866(10) 0.46504(4)
H2_2 H 0.946083 0.126490 0.471287
O3_2 O 0.81050(8) 0.17461(7) 0.41443(3)
O4_2 O 0.80504(9) 0.23318(7) 0.46737(3)
C1_2 C 0.79873(15) 0.29676(11) 0.41225(5)
C2_2 C 0.79567(18) 0.36125(12) 0.42968(6)
H3_2 H 0.794072 0.363280 0.455542
C3_2 C 0.80481(12) 0.23013(10) 0.43299(5)
C4_2 C 0.62474(15) 0.54766(10) 0.15469(5)
C5_2 C 0.99637(13) 0.84927(9) 0.38556(5)
C6_2 C 0.7988(2) 0.42045(14) 0.37130(7)
C7_2 C 0.95608(16) 0.78569(11) 0.37421(7)
C8_2 C 0.8379(3) 0.54476(16) 0.36070(9)
H4_2 H 0.862178 0.543559 0.383287
C9_2 C 0.80192(19) 0.29443(13) 0.37413(6)
H5_2 H 0.803523 0.250411 0.362055
C10_2 C 0.8028(2) 0.35524(15) 0.35403(7)
H6_2 H 0.806020 0.352931 0.328215
C11_2 C 0.7257(2) 0.58029(15) 0.19471(8)
H7_2 H 0.746709 0.602271 0.174214
C12_2 C 0.7286(3) 0.54961(18) 0.25860(9)
C13_2 C 0.8541(2) 0.73525(15) 0.34628(10)
H8_2 H 0.809887 0.741062 0.334736
C14_2 C 0.8807(2) 0.66766(14) 0.35185(9)
C15_2 C 0.9467(2) 0.66013(13) 0.36793(9)
H9_2 H 0.965849 0.614586 0.371192
C16_2 C 0.66069(18) 0.54783(12) 0.19094(6)
C17_2 C 0.9850(2) 0.71868(12) 0.37928(8)
C18_2 C 0.89144(18) 0.79369(13) 0.35743(8)
H11_2 H 0.872776 0.839259 0.353587
C19_2 C 0.7949(2) 0.42278(13) 0.40952(7)
H12_2 H 0.791765 0.466690 0.421625
C20_2 C 0.7666(3) 0.54884(18) 0.29414(9)
C21_2 C 0.8402(3) 0.60529(16) 0.33936(9)
C22_2 C 0.7599(2) 0.58093(18) 0.22785(9)
H13_2 H 0.804595 0.602522 0.229934
C23_2 C 0.7641(3) 0.48876(17) 0.31603(9)
H14_2 H 0.737613 0.449350 0.308261
C24_2 C 0.6301(2) 0.51569(14) 0.22066(7)
H15_2 H 0.585899 0.493155 0.218267
C25_2 C 0.6646(3) 0.51653(17) 0.25441(8)
H16_2 H 0.643686 0.493956 0.274760
C26_2 C 0.8046(3) 0.60615(17) 0.30596(9)
H17_2 H 0.806706 0.646925 0.291132
C27_2 C 0.8003(3) 0.48603(16) 0.34928(8)
O6_2 O 0.96487(8) 0.90720(7) 0.38235(4)
O7_2 O 0.56410(10) 0.52219(7) 0.15358(4)
O8_2 O 0.65844(10) 0.57349(8) 0.12816(4)
O9_2 O 0.79763(17) 0.03831(16) 0.43581(9)
C28_2 C 0.7573(3) 0.0522(2) 0.46146(13)
H18_2 H 0.717037 0.023055 0.463264
O10_2 O 0.7620(2) 0.0993(2) 0.48535(12)
Al7_5 Al 1.000000 1.000000 0.38476(2)
Al12_2 Al 0.62705(3) 0.59830(3) 0.08102(2)
O21_2 O 0.87134(10) 0.10219(8) 0.53496(4)
O22_2 O 0.76682(7) 0.19496(9) 0.53263(3)
O24_2 O 0.94208(9) 0.15911(7) 0.39723(4)
O27_2 O 0.93590(10) 0.02219(7) 0.34642(4)
O29_2 O 0.84156(10) 0.07349(8) 0.37184(4)
O31_2 O 0.9007(2) 0.2380(2) 0.51465(12)
H1_2 H 0.931962 0.993791 0.440750
H28_2 H 0.970260 0.286752 0.390242
O21_3 O 0.39781(8) 0.37134(10) 0.03496(4)
O22_3 O 0.30504(9) 0.26682(7) 0.03263(3)
O31_3 O 0.2620(2) 0.4007(2) 0.01465(12)
O21_4 O 0.12866(10) 0.89781(8) 0.53496(4)
O22_4 O 0.23318(7) 0.80504(9) 0.53263(3)
O31_4 O 0.0993(2) 0.7620(2) 0.51465(12)
H10_3 H 0.713248 0.029740 0.609758
O5_3 O 0.84089(7) 0.05792(9) 0.60277(4)
H19_3 H 0.006209 0.068038 0.559250
O26_3 O 0.09280(7) 0.03513(8) 0.61765(4)
O1_3 O 0.02345(7) 0.93430(8) 0.58002(3)
H2_3 H 0.126490 0.946083 0.528713
O3_3 O 0.17461(7) 0.81050(8) 0.58557(3)
C1_3 C 0.29676(11) 0.79873(15) 0.58775(5)
C2_3 C 0.36125(12) 0.79567(18) 0.57032(6)
H3_3 H 0.363280 0.794072 0.544458
C3_3 C 0.23013(10) 0.80481(12) 0.56701(5)
C4_3 C 0.54766(10) 0.62474(15) 0.84531(5)
C5_3 C 0.84927(9) 0.99637(13) 0.61444(5)
C6_3 C 0.42045(14) 0.7988(2) 0.62870(7)
C7_3 C 0.78569(11) 0.95608(16) 0.62579(7)
C8_3 C 0.54476(16) 0.8379(3) 0.63930(9)
H4_3 H 0.543559 0.862178 0.616713
C9_3 C 0.29443(13) 0.80192(19) 0.62587(6)
H5_3 H 0.250411 0.803523 0.637945
C10_3 C 0.35524(15) 0.8028(2) 0.64597(7)
H6_3 H 0.352931 0.806020 0.671785
C11_3 C 0.58029(15) 0.7257(2) 0.80529(8)
H7_3 H 0.602271 0.746709 0.825786
C12_3 C 0.54961(18) 0.7286(3) 0.74140(9)
C13_3 C 0.73525(15) 0.8541(2) 0.65372(10)
H8_3 H 0.741062 0.809887 0.665264
C14_3 C 0.66766(14) 0.8807(2) 0.64815(9)
C15_3 C 0.66013(13) 0.9467(2) 0.63207(9)
H9_3 H 0.614586 0.965849 0.628808
C16_3 C 0.54783(12) 0.66069(18) 0.80906(6)
C17_3 C 0.71868(12) 0.9850(2) 0.62072(8)
C18_3 C 0.79369(13) 0.89144(18) 0.64257(8)
H11_3 H 0.839259 0.872776 0.646413
C19_3 C 0.42278(13) 0.7949(2) 0.59048(7)
H12_3 H 0.466690 0.791765 0.578375
C20_3 C 0.54884(18) 0.7666(3) 0.70586(9)
C21_3 C 0.60529(16) 0.8402(3) 0.66064(9)
C22_3 C 0.58093(18) 0.7599(2) 0.77215(9)
H13_3 H 0.602522 0.804595 0.770066
C23_3 C 0.48876(17) 0.7641(3) 0.68397(9)
H14_3 H 0.449350 0.737613 0.691739
C24_3 C 0.51569(14) 0.6301(2) 0.77934(7)
H15_3 H 0.493155 0.585899 0.781733
C25_3 C 0.51653(17) 0.6646(3) 0.74559(8)
H16_3 H 0.493956 0.643686 0.725240
C26_3 C 0.60615(17) 0.8046(3) 0.69404(9)
H17_3 H 0.646925 0.806706 0.708868
C27_3 C 0.48603(16) 0.8003(3) 0.65072(8)
O6_3 O 0.90720(7) 0.96487(8) 0.61765(4)
O9_3 O 0.03831(16) 0.79763(17) 0.56419(9)
C28_3 C 0.0522(2) 0.7573(3) 0.53854(13)
H18_3 H 0.023055 0.717037 0.536736
O24_3 O 0.15911(7) 0.94208(9) 0.60277(4)
O11_3 O 0.97655(7) 0.06570(8) 0.58002(3)
H20_3 H 0.873510 0.053917 0.528713
O13_3 O 0.82539(7) 0.18950(8) 0.58557(3)
C29_3 C 0.70324(11) 0.20127(15) 0.58775(5)
C30_3 C 0.63875(12) 0.20433(18) 0.57032(6)
H21_3 H 0.636720 0.205928 0.544458
C31_3 C 0.76987(10) 0.19519(12) 0.56701(5)
C32_3 C 0.45234(10) 0.37526(15) 0.84531(5)
C33_3 C 0.15073(9) 0.00363(13) 0.61444(5)
C34_3 C 0.57955(14) 0.2012(2) 0.62870(7)
C35_3 C 0.21431(11) 0.04392(16) 0.62579(7)
C36_3 C 0.45524(16) 0.1621(3) 0.63930(9)
H22_3 H 0.456441 0.137822 0.616713
C37_3 C 0.70557(13) 0.19808(19) 0.62587(6)
H23_3 H 0.749589 0.196477 0.637945
C38_3 C 0.64476(15) 0.1972(2) 0.64597(7)
H24_3 H 0.647069 0.193980 0.671785
C39_3 C 0.41971(15) 0.2743(2) 0.80529(8)
H25_3 H 0.397729 0.253291 0.825786
C40_3 C 0.45039(18) 0.2714(3) 0.74140(9)
C41_3 C 0.26475(15) 0.1459(2) 0.65372(10)
H26_3 H 0.258938 0.190113 0.665264
C42_3 C 0.33234(14) 0.1193(2) 0.64815(9)
C43_3 C 0.33987(13) 0.0533(2) 0.63207(9)
H27_3 H 0.385414 0.034151 0.628808
C44_3 C 0.45217(12) 0.33931(18) 0.80906(6)
C45_3 C 0.28132(12) 0.0150(2) 0.62072(8)
C46_3 C 0.20631(13) 0.10856(18) 0.64257(8)
H29_3 H 0.160741 0.127224 0.646413
C47_3 C 0.57722(13) 0.2051(2) 0.59048(7)
H30_3 H 0.533310 0.208235 0.578375
C48_3 C 0.45116(18) 0.2334(3) 0.70586(9)
C49_3 C 0.39471(16) 0.1598(3) 0.66064(9)
C50_3 C 0.41907(18) 0.2401(2) 0.77215(9)
H31_3 H 0.397478 0.195405 0.770066
C51_3 C 0.51124(17) 0.2359(3) 0.68397(9)
H32_3 H 0.550650 0.262387 0.691739
C52_3 C 0.48431(14) 0.3699(2) 0.77934(7)
H33_3 H 0.506845 0.414101 0.781733
C53_3 C 0.48347(17) 0.3354(3) 0.74559(8)
H34_3 H 0.506044 0.356314 0.725240
C54_3 C 0.39385(17) 0.1954(3) 0.69404(9)
H35_3 H 0.353075 0.193294 0.708868
C55_3 C 0.51397(16) 0.1997(3) 0.65072(8)
O19_3 O 0.96169(16) 0.20237(17) 0.56419(9)
C56_3 C 0.9478(2) 0.2427(3) 0.53854(13)
H36_3 H 0.976945 0.282963 0.536736
H1_3 H 0.993791 0.931962 0.559250
H28_3 H 0.286752 0.970260 0.609758
C4_4 C 0.87526(15) 0.04766(10) 0.34531(5)
C5_4 C 0.50363(13) 0.34927(9) 0.11444(5)
C7_4 C 0.54392(16) 0.28569(11) 0.12579(7)
C8_4 C 0.6621(3) 0.04476(16) 0.13930(9)
H4_4 H 0.637822 0.043559 0.116713
C11_4 C 0.7743(2) 0.08029(15) 0.30529(8)
H7_4 H 0.753291 0.102271 0.325786
C12_4 C 0.7714(3) 0.04961(18) 0.24140(9)
C13_4 C 0.6459(2) 0.23525(15) 0.15372(10)
H8_4 H 0.690113 0.241062 0.165264
C14_4 C 0.6193(2) 0.16766(14) 0.14815(9)
C15_4 C 0.5533(2) 0.16013(13) 0.13207(9)
H9_4 H 0.534151 0.114586 0.128808
C16_4 C 0.83931(18) 0.04783(12) 0.30906(6)
C17_4 C 0.5150(2) 0.21868(12) 0.12072(8)
H10_4 H 0.470260 0.213248 0.109758
C18_4 C 0.60856(18) 0.29369(13) 0.14257(8)
H11_4 H 0.627224 0.339259 0.146413
C20_4 C 0.7334(3) 0.04884(18) 0.20586(9)
C21_4 C 0.6598(3) 0.10529(16) 0.16064(9)
C22_4 C 0.7401(2) 0.08093(18) 0.27215(9)
H13_4 H 0.695405 0.102522 0.270066
C24_4 C 0.8699(2) 0.01569(14) 0.27934(7)
C25_4 C 0.8354(3) 0.01653(17) 0.24559(8)
C26_4 C 0.6954(3) 0.10615(17) 0.19404(9)
H17_4 H 0.693294 0.146925 0.208868
O5_4 O 0.44208(9) 0.34089(7) 0.10277(4)
O6_4 O 0.53513(8) 0.40720(7) 0.11765(4)
O1_4 O 0.56570(8) 0.52345(7) 0.08002(3)
H1_4 H 0.568038 0.493791 0.059250
H2_4 H 0.553917 0.626490 0.028713
O3_4 O 0.68950(8) 0.67461(7) 0.08557(3)
C1_4 C 0.70127(15) 0.79676(11) 0.08775(5)
C2_4 C 0.70433(18) 0.86125(12) 0.07032(6)
H3_4 H 0.705928 0.863280 0.044458
C3_4 C 0.69519(12) 0.73013(10) 0.06701(5)
C6_4 C 0.7012(2) 0.92045(14) 0.12870(7)
C9_4 C 0.69808(19) 0.79443(13) 0.12587(6)
H5_4 H 0.696477 0.750411 0.137945
C10_4 C 0.6972(2) 0.85524(15) 0.14597(7)
H6_4 H 0.693980 0.852931 0.171785
C19_4 C 0.7051(2) 0.92278(13) 0.09048(7)
H12_4 H 0.708235 0.966690 0.078375
C23_4 C 0.7359(3) 0.98876(17) 0.18397(9)
H14_4 H 0.762387 0.949350 0.191739
H15_4 H 0.914101 0.993155 0.281733
H16_4 H 0.856314 0.993956 0.225240
C27_4 C 0.6997(3) 0.98603(16) 0.15072(8)
O9_4 O 0.70237(17) 0.53831(16) 0.06419(9)
C28_4 C 0.7427(3) 0.5522(2) 0.03854(13)
H18_4 H 0.782963 0.523055 0.036736
O11_4 O 0.43430(8) 0.47655(7) 0.08002(3)
H19_4 H 0.431962 0.506209 0.059250
H20_4 H 0.446083 0.373510 0.028713
O13_4 O 0.31050(8) 0.32539(7) 0.08557(3)
C29_4 C 0.29873(15) 0.20324(11) 0.08775(5)
C30_4 C 0.29567(18) 0.13875(12) 0.07032(6)
H21_4 H 0.294072 0.136720 0.044458
C31_4 C 0.30481(12) 0.26987(10) 0.06701(5)
C34_4 C 0.2988(2) 0.07955(14) 0.12870(7)
C37_4 C 0.30192(19) 0.20557(13) 0.12587(6)
H23_4 H 0.303523 0.249589 0.137945
C38_4 C 0.3028(2) 0.14476(15) 0.14597(7)
H24_4 H 0.306020 0.147069 0.171785
C47_4 C 0.2949(2) 0.07722(13) 0.09048(7)
H30_4 H 0.291765 0.033310 0.078375
C51_4 C 0.2641(3) 0.01124(17) 0.18397(9)
H32_4 H 0.237613 0.050650 0.191739
H33_4 H 0.085899 0.006845 0.281733
H34_4 H 0.143686 0.006044 0.225240
C55_4 C 0.3003(3) 0.01397(16) 0.15072(8)
O19_4 O 0.29763(17) 0.46169(16) 0.06419(9)
C56_4 C 0.2573(3) 0.4478(2) 0.03854(13)
H36_4 H 0.217037 0.476945 0.036736
O24_4 O 0.55792(9) 0.65911(7) 0.10277(4)
O26_4 O 0.46487(8) 0.59280(7) 0.11765(4)
C32_4 C 0.12474(15) 0.95234(10) 0.34531(5)
C33_4 C 0.49637(13) 0.65073(9) 0.11444(5)
C35_4 C 0.45608(16) 0.71431(11) 0.12579(7)
C36_4 C 0.3379(3) 0.95524(16) 0.13930(9)
H22_4 H 0.362178 0.956441 0.116713
C39_4 C 0.2257(2) 0.91971(15) 0.30529(8)
H25_4 H 0.246709 0.897729 0.325786
C40_4 C 0.2286(3) 0.95039(18) 0.24140(9)
C41_4 C 0.3541(2) 0.76475(15) 0.15372(10)
H26_4 H 0.309887 0.758938 0.165264
C42_4 C 0.3807(2) 0.83234(14) 0.14815(9)
C43_4 C 0.4467(2) 0.83987(13) 0.13207(9)
H27_4 H 0.465849 0.885414 0.128808
C44_4 C 0.16069(18) 0.95217(12) 0.30906(6)
C45_4 C 0.4850(2) 0.78132(12) 0.12072(8)
H28_4 H 0.529740 0.786752 0.109758
C46_4 C 0.39144(18) 0.70631(13) 0.14257(8)
H29_4 H 0.372776 0.660741 0.146413
C48_4 C 0.2666(3) 0.95116(18) 0.20586(9)
C49_4 C 0.3402(3) 0.89471(16) 0.16064(9)
C50_4 C 0.2599(2) 0.91907(18) 0.27215(9)
H31_4 H 0.304595 0.897478 0.270066
C52_4 C 0.1301(2) 0.98431(14) 0.27934(7)
C53_4 C 0.1646(3) 0.98347(17) 0.24559(8)
C54_4 C 0.3046(3) 0.89385(17) 0.19404(9)
H35_4 H 0.306706 0.853075 0.208868
loop_
_geom_bond_atom_site_label_1
_geom_bond_atom_site_label_2
_geom_bond_site_symmetry_1
_geom_bond_site_symmetry_2
C4 C16 1_555 1_555
C5 C7 1_555 1_555
C7 C17 1_555 1_555
C8 H4 1_555 1_555
C11 H7 1_555 1_555
C12 C20 1_555 1_555
C13 H8 1_555 1_555
C14 C13 1_555 1_555
C15 C14 1_555 1_555
H9 C15 1_555 1_555
C16 C11 1_555 1_555
C17 C15 1_555 1_555
H10 C17 1_555 1_555
C18 C7 1_555 1_555
H11 C18 1_555 1_555
C21 C8 1_555 1_555
C22 C11 1_555 1_555
H13 C22 1_555 1_555
C24 C16 1_555 1_555
C25 C12 1_555 1_555
C26 C20 1_555 1_555
H17 C26 1_555 1_555
O5 C5 1_555 1_555
O6 C5 1_555 1_555
O7 C4 1_555 1_555
O8 C4 1_555 1_555
Al7 O6 1_555 1_555
Al9_2 O7 1_555 1_555
Al11 O5 1_555 1_555
Al12 O8 1_555 1_555
C12 C22 1_555 1_555
C13 C18 1_555 1_555
C14 C21 1_555 1_555
C21 C26 1_555 1_555
C24 C25 1_555 1_555
O21 Al1 1_555 1_555
O22 Al1 1_555 1_555
O31 Al1 1_555 1_555
Al1_2 O2 1_555 1_555
Al7 O1 1_555 1_555
Al3 O1 1_555 1_555
O1 H1 1_555 1_555
O2 Al3 1_555 1_555
H2 O2 1_555 1_555
O3 Al3 1_555 1_555
O4 Al1_2 1_555 1_555
C1 C2 1_555 1_555
C2 H3 1_555 1_555
C3 O3 1_555 1_555
C6 C10 1_555 1_555
C9 C1 1_555 1_555
H5 C9 1_555 1_555
C10 C9 1_555 1_555
H6 C10 1_555 1_555
C19 C2 1_555 1_555
H12 C19 1_555 1_555
C23 H14 1_555 1_555
C27 C6 1_555 1_555
O9 Al3 1_555 1_555
C28 O9 1_555 1_555
H18 C28 1_555 1_555
O10 Al1_2 1_555 1_555
Al11 O11 1_555 1_555
O11 Al7 1_555 1_555
H19 O11 1_555 1_555
O12 Al11 1_555 1_555
H20 O12 1_555 1_555
O13 Al11 1_555 1_555
O14 C31 1_555 1_555
C29 C30 1_555 1_555
C30 H21 1_555 1_555
C31 O13 1_555 1_555
C34 C38 1_555 1_555
C37 C29 1_555 1_555
H23 C37 1_555 1_555
C38 C37 1_555 1_555
H24 C38 1_555 1_555
C47 C30 1_555 1_555
H30 C47 1_555 1_555
C51 H32 1_555 1_555
C55 C34 1_555 1_555
O19 Al11 1_555 1_555
C56 O19 1_555 1_555
H36 C56 1_555 1_555
O20 C56 1_555 1_555
Al5_2 O12 1_555 1_555
O24 Al3 1_555 1_555
O26 Al7 1_555 1_555
O27 Al7 1_555 1_555
O28 Al7 1_555 1_555
O29 Al3 1_555 1_555
O30 Al11 1_555 1_555
O4 C3 1_555 1_555
C1 C3 1_555 1_555
C6 C19 1_555 1_555
C23 C27 1_555 1_555
C28 O10 1_555 1_555
O14 Al5_2 1_555 1_555
C29 C31 1_555 1_555
C34 C47 1_555 1_555
C51 C55 1_555 1_555
O20 Al5_2 1_555 1_555
C32 C44 1_555 1_555
C33 C35 1_555 1_555
C35 C45 1_555 1_555
C36 H22 1_555 1_555
C39 H25 1_555 1_555
C40 C48 1_555 1_555
C41 H26 1_555 1_555
C42 C41 1_555 1_555
C43 C42 1_555 1_555
H27 C43 1_555 1_555
C44 C39 1_555 1_555
C45 C43 1_555 1_555
H28 C45 1_555 1_555
C46 C35 1_555 1_555
H29 C46 1_555 1_555
C49 C36 1_555 1_555
C50 C39 1_555 1_555
H31 C50 1_555 1_555
C52 C44 1_555 1_555
C53 C40 1_555 1_555
C54 C48 1_555 1_555
H35 C54 1_555 1_555
O24 C33 1_555 1_555
O26 C33 1_555 1_555
O17 C32 1_555 1_555
O18 C32 1_555 1_555
Al9_3 O17 1_555 1_555
Al13 O18 1_555 1_555
C40 C50 1_555 1_555
C41 C46 1_555 1_555
C42 C49 1_555 1_555
C49 C54 1_555 1_555
C52 C53 1_555 1_555
Al11_2 O5_2 1_555 1_555
O26_2 Al7_2 1_555 1_555
Al11_2 O11_2 1_555 1_555
O11_2 Al7_3 1_555 1_555
O12_2 Al11_2 1_555 1_555
H20_2 O12_2 1_555 1_555
O13_2 Al11_2 1_555 1_555
O14_2 C31_2 1_555 1_555
C29_2 C30_2 1_555 1_555
C30_2 H21_2 1_555 1_555
C31_2 O13_2 1_555 1_555
C32_2 C44_2 1_555 1_555
C33_2 C35_2 1_555 1_555
C34_2 C38_2 1_555 1_555
C35_2 C45_2 1_555 1_555
C36_2 H22_2 1_555 1_555
C37_2 C29_2 1_555 1_555
H23_2 C37_2 1_555 1_555
C38_2 C37_2 1_555 1_555
H24_2 C38_2 1_555 1_555
C39_2 H25_2 1_555 1_555
C40_2 C48_2 1_555 1_555
C41_2 H26_2 1_555 1_555
C42_2 C41_2 1_555 1_555
C43_2 C42_2 1_555 1_555
H27_2 C43_2 1_555 1_555
C44_2 C39_2 1_555 1_555
C45_2 C43_2 1_555 1_555
C46_2 C35_2 1_555 1_555
H29_2 C46_2 1_555 1_555
C47_2 C30_2 1_555 1_555
H30_2 C47_2 1_555 1_555
C48_2 C51_2 1_555 1_555
C49_2 C36_2 1_555 1_555
C50_2 C39_2 1_555 1_555
H31_2 C50_2 1_555 1_555
C51_2 H32_2 1_555 1_555
C52_2 C44_2 1_555 1_555
H33_2 C52_2 1_555 1_555
C53_2 C40_2 1_555 1_555
H34_2 C53_2 1_555 1_555
C54_2 C48_2 1_555 1_555
H35_2 C54_2 1_555 1_555
C55_2 C34_2 1_555 1_555
O26_2 C33_2 1_555 1_555
O17_2 C32_2 1_555 1_555
O18_2 C32_2 1_555 1_555
O19_2 Al11_2 1_555 1_555
C56_2 O19_2 1_555 1_555
H36_2 C56_2 1_555 1_555
O20_2 C56_2 1_555 1_555
Al5_3 O12_2 1_555 1_555
Al8 O17_2 1_555 1_555
Al13_2 O18_2 1_555 1_555
O28_2 Al7_3 1_555 1_555
O30_2 Al11_2 1_555 1_555
O14_2 Al5_3 1_555 1_555
C29_2 C31_2 1_555 1_555
C34_2 C47_2 1_555 1_555
C36_2 C55_2 1_555 1_555
C40_2 C50_2 1_555 1_555
C41_2 C46_2 1_555 1_555
C42_2 C49_2 1_555 1_555
C49_2 C54_2 1_555 1_555
C51_2 C55_2 1_555 1_555
C52_2 C53_2 1_555 1_555
O20_2 Al5_3 1_555 1_555
Al1_3 O2_2 1_555 1_555
Al7_4 O1_2 1_555 1_555
Al3_2 O1_2 1_555 1_555
O2_2 Al3_2 1_555 1_555
H2_2 O2_2 1_555 1_555
O3_2 Al3_2 1_555 1_555
O4_2 Al1_3 1_555 1_555
C1_2 C2_2 1_555 1_555
C2_2 H3_2 1_555 1_555
C3_2 O3_2 1_555 1_555
C4_2 C16_2 1_555 1_555
C5_2 C7_2 1_555 1_555
C6_2 C10_2 1_555 1_555
C7_2 C17_2 1_555 1_555
C8_2 H4_2 1_555 1_555
C9_2 C1_2 1_555 1_555
H5_2 C9_2 1_555 1_555
C10_2 C9_2 1_555 1_555
H6_2 C10_2 1_555 1_555
C11_2 H7_2 1_555 1_555
C12_2 C20_2 1_555 1_555
C13_2 H8_2 1_555 1_555
C14_2 C13_2 1_555 1_555
C15_2 C14_2 1_555 1_555
H9_2 C15_2 1_555 1_555
C16_2 C11_2 1_555 1_555
C17_2 C15_2 1_555 1_555
C18_2 C7_2 1_555 1_555
H11_2 C18_2 1_555 1_555
C19_2 C2_2 1_555 1_555
H12_2 C19_2 1_555 1_555
C20_2 C23_2 1_555 1_555
C21_2 C8_2 1_555 1_555
C22_2 C11_2 1_555 1_555
H13_2 C22_2 1_555 1_555
C23_2 H14_2 1_555 1_555
C24_2 C16_2 1_555 1_555
H15_2 C24_2 1_555 1_555
C25_2 C12_2 1_555 1_555
H16_2 C25_2 1_555 1_555
C26_2 C20_2 1_555 1_555
H17_2 C26_2 1_555 1_555
C27_2 C6_2 1_555 1_555
O6_2 C5_2 1_555 1_555
O7_2 C4_2 1_555 1_555
O8_2 C4_2 1_555 1_555
O9_2 Al3_2 1_555 1_555
C28_2 O9_2 1_555 1_555
H18_2 C28_2 1_555 1_555
O10_2 Al1_3 1_555 1_555
Al7_5 O6_2 1_555 1_555
Al8 O7_2 1_555 1_555
Al12_2 O8_2 1_555 1_555
O21_2 Al1_3 1_555 1_555
O22_2 Al1_3 1_555 1_555
O24_2 Al3_2 1_555 1_555
O27_2 Al7_4 1_555 1_555
O29_2 Al3_2 1_555 1_555
O31_2 Al1_3 1_555 1_555
O4_2 C3_2 1_555 1_555
C1_2 C3_2 1_555 1_555
C6_2 C19_2 1_555 1_555
C8_2 C27_2 1_555 1_555
C12_2 C22_2 1_555 1_555
C13_2 C18_2 1_555 1_555
C14_2 C21_2 1_555 1_555
C21_2 C26_2 1_555 1_555
C23_2 C27_2 1_555 1_555
C24_2 C25_2 1_555 1_555
C28_2 O10_2 1_555 1_555
O21_3 Al5 1_555 1_555
O22_3 Al5 1_555 1_555
O31_3 Al5 1_555 1_555
O21_4 Al5_3 1_555 1_555
O22_4 Al5_3 1_555 1_555
O31_4 Al5_3 1_555 1_555
Al13 O5_3 1_555 1_555
O26_3 Al9 1_555 1_555
Al9_2 O1_3 1_555 1_555
Al12 O1_3 1_555 1_555
O21_4 Al12 1_555 1_555
H2_3 O21_4 1_555 1_555
O3_3 Al12 1_555 1_555
C1_3 C2_3 1_555 1_555
C2_3 H3_3 1_555 1_555
C3_3 O3_3 1_555 1_555
C4_3 C16_3 1_555 1_555
C5_3 C7_3 1_555 1_555
C6_3 C10_3 1_555 1_555
C7_3 C17_3 1_555 1_555
C8_3 H4_3 1_555 1_555
C9_3 C1_3 1_555 1_555
H5_3 C9_3 1_555 1_555
C10_3 C9_3 1_555 1_555
H6_3 C10_3 1_555 1_555
C11_3 H7_3 1_555 1_555
C12_3 C20_3 1_555 1_555
C13_3 H8_3 1_555 1_555
C14_3 C13_3 1_555 1_555
C15_3 C14_3 1_555 1_555
H9_3 C15_3 1_555 1_555
C16_3 C11_3 1_555 1_555
C17_3 C15_3 1_555 1_555
C18_3 C7_3 1_555 1_555
H11_3 C18_3 1_555 1_555
C19_3 C2_3 1_555 1_555
H12_3 C19_3 1_555 1_555
C20_3 C23_3 1_555 1_555
C21_3 C8_3 1_555 1_555
C22_3 C11_3 1_555 1_555
H13_3 C22_3 1_555 1_555
C23_3 H14_3 1_555 1_555
C24_3 C16_3 1_555 1_555
H15_3 C24_3 1_555 1_555
C25_3 C12_3 1_555 1_555
H16_3 C25_3 1_555 1_555
C26_3 C20_3 1_555 1_555
H17_3 C26_3 1_555 1_555
C27_3 C6_3 1_555 1_555
O6_3 C5_3 1_555 1_555
O27 C4_3 1_555 1_555
O29 C4_3 1_555 1_555
O9_3 Al12 1_555 1_555
C28_3 O9_3 1_555 1_555
H18_3 C28_3 1_555 1_555
Al9_4 O6_3 1_555 1_555
O24_3 Al12 1_555 1_555
O22_4 C3_3 1_555 1_555
C1_3 C3_3 1_555 1_555
C6_3 C19_3 1_555 1_555
C8_3 C27_3 1_555 1_555
C12_3 C22_3 1_555 1_555
C13_3 C18_3 1_555 1_555
C14_3 C21_3 1_555 1_555
C21_3 C26_3 1_555 1_555
C23_3 C27_3 1_555 1_555
C24_3 C25_3 1_555 1_555
C28_3 O31_4 1_555 1_555
Al13 O11_3 1_555 1_555
O11_3 Al9_3 1_555 1_555
O21_2 Al13 1_555 1_555
H20_3 O21_2 1_555 1_555
O13_3 Al13 1_555 1_555
O22_2 C31_3 1_555 1_555
C29_3 C30_3 1_555 1_555
C30_3 H21_3 1_555 1_555
C31_3 O13_3 1_555 1_555
C32_3 C44_3 1_555 1_555
C33_3 C35_3 1_555 1_555
C34_3 C38_3 1_555 1_555
C35_3 C45_3 1_555 1_555
C36_3 H22_3 1_555 1_555
C37_3 C29_3 1_555 1_555
H23_3 C37_3 1_555 1_555
C38_3 C37_3 1_555 1_555
H24_3 C38_3 1_555 1_555
C39_3 H25_3 1_555 1_555
C40_3 C48_3 1_555 1_555
C41_3 H26_3 1_555 1_555
C42_3 C41_3 1_555 1_555
C43_3 C42_3 1_555 1_555
H27_3 C43_3 1_555 1_555
C44_3 C39_3 1_555 1_555
C45_3 C43_3 1_555 1_555
C46_3 C35_3 1_555 1_555
H29_3 C46_3 1_555 1_555
C47_3 C30_3 1_555 1_555
H30_3 C47_3 1_555 1_555
C48_3 C51_3 1_555 1_555
C49_3 C36_3 1_555 1_555
C50_3 C39_3 1_555 1_555
H31_3 C50_3 1_555 1_555
C51_3 H32_3 1_555 1_555
C52_3 C44_3 1_555 1_555
H33_3 C52_3 1_555 1_555
C53_3 C40_3 1_555 1_555
H34_3 C53_3 1_555 1_555
C54_3 C48_3 1_555 1_555
H35_3 C54_3 1_555 1_555
C55_3 C34_3 1_555 1_555
O26_3 C33_3 1_555 1_555
O28 C32_3 1_555 1_555
O30 C32_3 1_555 1_555
O19_3 Al13 1_555 1_555
C56_3 O19_3 1_555 1_555
H36_3 C56_3 1_555 1_555
O31_2 C56_3 1_555 1_555
C29_3 C31_3 1_555 1_555
C34_3 C47_3 1_555 1_555
C36_3 C55_3 1_555 1_555
C40_3 C50_3 1_555 1_555
C41_3 C46_3 1_555 1_555
C42_3 C49_3 1_555 1_555
C49_3 C54_3 1_555 1_555
C51_3 C55_3 1_555 1_555
C52_3 C53_3 1_555 1_555
C4_4 C16_4 1_555 1_555
C5_4 C7_4 1_555 1_555
C7_4 C17_4 1_555 1_555
C8_4 H4_4 1_555 1_555
C11_4 H7_4 1_555 1_555
C12_4 C20_4 1_555 1_555
C13_4 H8_4 1_555 1_555
C14_4 C13_4 1_555 1_555
C15_4 C14_4 1_555 1_555
H9_4 C15_4 1_555 1_555
C16_4 C11_4 1_555 1_555
C17_4 C15_4 1_555 1_555
H10_4 C17_4 1_555 1_555
C18_4 C7_4 1_555 1_555
H11_4 C18_4 1_555 1_555
C21_4 C8_4 1_555 1_555
C22_4 C11_4 1_555 1_555
H13_4 C22_4 1_555 1_555
C24_4 C16_4 1_555 1_555
C25_4 C12_4 1_555 1_555
C26_4 C20_4 1_555 1_555
H17_4 C26_4 1_555 1_555
O5_4 C5_4 1_555 1_555
O6_4 C5_4 1_555 1_555
O27_2 C4_4 1_555 1_555
O29_2 C4_4 1_555 1_555
Al8 O6_4 1_555 1_555
Al13_2 O5_4 1_555 1_555
C12_4 C22_4 1_555 1_555
C13_4 C18_4 1_555 1_555
C14_4 C21_4 1_555 1_555
C21_4 C26_4 1_555 1_555
C24_4 C25_4 1_555 1_555
Al8 O1_4 1_555 1_555
Al12_2 O1_4 1_555 1_555
O1_4 H1_4 1_555 1_555
O21 Al12_2 1_555 1_555
H2_4 O21 1_555 1_555
O3_4 Al12_2 1_555 1_555
C1_4 C2_4 1_555 1_555
C2_4 H3_4 1_555 1_555
C3_4 O3_4 1_555 1_555
C6_4 C10_4 1_555 1_555
C9_4 C1_4 1_555 1_555
H5_4 C9_4 1_555 1_555
C10_4 C9_4 1_555 1_555
H6_4 C10_4 1_555 1_555
C19_4 C2_4 1_555 1_555
H12_4 C19_4 1_555 1_555
C23_4 H14_4 1_555 1_555
C27_4 C6_4 1_555 1_555
O9_4 Al12_2 1_555 1_555
C28_4 O9_4 1_555 1_555
H18_4 C28_4 1_555 1_555
Al13_2 O11_4 1_555 1_555
O11_4 Al8 1_555 1_555
H19_4 O11_4 1_555 1_555
O21_3 Al13_2 1_555 1_555
H20_4 O21_3 1_555 1_555
O13_4 Al13_2 1_555 1_555
O22_3 C31_4 1_555 1_555
C29_4 C30_4 1_555 1_555
C30_4 H21_4 1_555 1_555
C31_4 O13_4 1_555 1_555
C34_4 C38_4 1_555 1_555
C37_4 C29_4 1_555 1_555
H23_4 C37_4 1_555 1_555
C38_4 C37_4 1_555 1_555
H24_4 C38_4 1_555 1_555
C47_4 C30_4 1_555 1_555
H30_4 C47_4 1_555 1_555
C51_4 H32_4 1_555 1_555
C55_4 C34_4 1_555 1_555
O19_4 Al13_2 1_555 1_555
C56_4 O19_4 1_555 1_555
H36_4 C56_4 1_555 1_555
O31_3 C56_4 1_555 1_555
O24_4 Al12_2 1_555 1_555
O26_4 Al8 1_555 1_555
O22 C3_4 1_555 1_555
C1_4 C3_4 1_555 1_555
C6_4 C19_4 1_555 1_555
C23_4 C27_4 1_555 1_555
C28_4 O31 1_555 1_555
C29_4 C31_4 1_555 1_555
C34_4 C47_4 1_555 1_555
C51_4 C55_4 1_555 1_555
C32_4 C44_4 1_555 1_555
C33_4 C35_4 1_555 1_555
C35_4 C45_4 1_555 1_555
C36_4 H22_4 1_555 1_555
C39_4 H25_4 1_555 1_555
C40_4 C48_4 1_555 1_555
C41_4 H26_4 1_555 1_555
C42_4 C41_4 1_555 1_555
C43_4 C42_4 1_555 1_555
H27_4 C43_4 1_555 1_555
C44_4 C39_4 1_555 1_555
C45_4 C43_4 1_555 1_555
H28_4 C45_4 1_555 1_555
C46_4 C35_4 1_555 1_555
H29_4 C46_4 1_555 1_555
C49_4 C36_4 1_555 1_555
C50_4 C39_4 1_555 1_555
H31_4 C50_4 1_555 1_555
C52_4 C44_4 1_555 1_555
C53_4 C40_4 1_555 1_555
C54_4 C48_4 1_555 1_555
H35_4 C54_4 1_555 1_555
O24_4 C33_4 1_555 1_555
O26_4 C33_4 1_555 1_555
O28_2 C32_4 1_555 1_555
O30_2 C32_4 1_555 1_555
C40_4 C50_4 1_555 1_555
C41_4 C46_4 1_555 1_555
C42_4 C49_4 1_555 1_555
C49_4 C54_4 1_555 1_555
C52_4 C53_4 1_555 1_555

#END
