
###############################################################################
#
# This file contains modified crystal structure data generated from the
# MOF subset of the Cambridge Structural Database (CSD) v543 
# hosted by the Cambridge Crystallographic Data Centre (CCDC).
#
# This work is licensed under the Creative Commons
# Attribution-NonCommercial-ShareAlike 4.0 International License.
# To view a copy of this license, visit
# http://creativecommons.org/licenses/by-nc-sa/4.0/
# or send a letter to
# Creative Commons, PO Box 1866, Mountain View, CA 94042, USA.
#
# CIF created using the CSD Python API on 29 September 2022
# The structure has been converted into the P1 space group
# The structure has a 3D framework
# The original CSD entry QOXRAZ is in the tetragonal crystal system
# The original CSD entry QOXRAZ is in a Sohncke space group
# The framework has been calculated to contain at least 10.0% void space
# The void calculation uses a probe of radius 1.32A, grid spacing 0.4
#
###############################################################################

data_QOXRAZ
_chemical_formula_moiety         '(C224 H144 Al16 O80)n'
_symmetry_cell_setting           triclinic
_symmetry_space_group_name_H-M   'P 1'
_symmetry_Int_Tables_number      1
_space_group_name_Hall           'P 1'
loop_
_symmetry_equiv_pos_site_id
_symmetry_equiv_pos_as_xyz
1 x,y,z
_cell_length_a                   19.3331(6)
_cell_length_b                   19.3331(6)
_cell_length_c                   36.2317(12)
_cell_angle_alpha                90
_cell_angle_beta                 90
_cell_angle_gamma                90
_cell_volume                     13542.3
loop_
_atom_site_label
_atom_site_type_symbol
_atom_site_fract_x
_atom_site_fract_y
_atom_site_fract_z
Al2 Al -0.000000 0.000000 0.11612(4)
H1 H 0.003266 0.067084 0.059500
O23 O 0.09061(11) 0.03844(12) 0.11803(7)
Al2_2 Al 0.000000 1.000000 0.11612(4)
O21 O 0.02566(11) 0.93616(12) 0.08063(6)
O24 O 0.02395(12) 0.93829(13) 0.15496(6)
Al1 Al 0.83832(5) 0.16168(5) 0.000000
Al2_3 Al 1.000000 0.000000 0.11612(4)
Al3 Al 0.89847(5) 0.12201(5) 0.08185(3)
O1 O 0.97434(11) 0.06384(12) 0.08063(6)
O2 O 0.84132(12) 0.05098(13) 0.10264(7)
O3 O 0.87007(15) 0.09930(13) 0.03480(6)
H2 H 0.871877 0.051920 0.027908
H10 H 0.717547 0.021307 0.109174
O9 O 0.8982(6) 0.2358(6) 0.0163(3)
O10 O 0.9556(6) 0.2000(5) 0.0674(2)
C28 C 0.9429(4) 0.2394(5) 0.0417(3)
H18 H 0.971565 0.279300 0.040723
C29 C 0.21181(18) 0.0511(2) 0.12408(10)
C30 C 0.70061(18) 0.19624(19) 0.08742(9)
C31 C 0.14906(17) 0.00999(18) 0.11418(9)
C32 C 0.76788(18) 0.18875(18) 0.06747(10)
C33 C 0.5762(2) 0.2006(2) 0.12621(11)
C34 C 0.6385(2) 0.2049(2) 0.06865(10)
H21 H 0.638562 0.209545 0.042550
C35 C 0.4797(2) 0.3396(2) 0.24273(11)
H22 H 0.501450 0.360790 0.222116
C36 C 0.2627(2) 0.1549(2) 0.14889(12)
H23 H 0.257246 0.200066 0.158773
C37 C 0.6386(2) 0.1923(2) 0.14468(11)
H24 H 0.638803 0.188069 0.170798
C38 C 0.2045(2) 0.1165(2) 0.13916(11)
H25 H 0.159598 0.135248 0.142906
C39 C 0.4150(2) 0.2797(2) 0.30305(12)
H26 H 0.392759 0.259071 0.323660
C40 C 0.7003(2) 0.1903(2) 0.12563(10)
H27 H 0.742576 0.184789 0.138633
C41 C 0.27732(19) 0.0237(2) 0.11928(11)
C42 C 0.44889(17) 0.3789(2) 0.34350(10)
C43 C 0.4144(2) 0.2469(3) 0.26943(13)
H29 H 0.391312 0.203699 0.267079
C44 C 0.4479(2) 0.2387(3) 0.20282(12)
C45 C 0.4806(2) 0.3726(2) 0.27703(11)
H30 H 0.503828 0.415652 0.279594
C46 C 0.3287(2) 0.1277(2) 0.14426(11)
C47 C 0.44857(19) 0.3437(2) 0.30702(10)
C48 C 0.3358(2) 0.0615(2) 0.12911(12)
H31 H 0.380533 0.042397 0.125525
C49 C 0.5767(2) 0.2069(3) 0.08773(11)
H32 H 0.534379 0.212512 0.074711
C50 C 0.5102(2) 0.2024(3) 0.14785(11)
C51 C 0.3909(2) 0.1664(2) 0.15700(12)
C52 C 0.3899(2) 0.2031(3) 0.18997(13)
H33 H 0.348608 0.203904 0.204159
C53 C 0.5074(2) 0.2385(3) 0.18094(12)
H34 H 0.546940 0.263665 0.188904
C54 C 0.4517(2) 0.1670(3) 0.13594(12)
H35 H 0.453019 0.142696 0.113149
C55 C 0.4471(2) 0.2757(3) 0.23856(11)
O14 O 0.82086(12) 0.18008(13) 0.08687(6)
O16 O 0.47605(12) 0.43829(13) 0.34504(6)
O17 O 0.42186(13) 0.34718(14) 0.37044(7)
O18 O 0.76703(12) 0.19103(14) 0.03234(6)
Al8 Al 0.500000 0.500000 0.38388(4)
Al9 Al 0.39847(5) 0.37799(5) 0.41815(3)
O25 O 0.97605(12) 0.06171(13) 0.15496(6)
O27 O 0.92186(13) 0.15282(14) 0.12956(7)
Al1_2 Al 0.83832(5) 0.16168(5) 1.000000
O22 O 0.90070(13) 0.12993(15) 0.96520(6)
O28 O 0.80897(14) 0.23297(12) 0.96766(6)
O29 O 0.7642(6) 0.1018(6) 0.9837(3)
Al2_4 Al 1.000000 1.000000 0.11612(4)
C1 C 0.78819(18) 0.9489(2) 0.12408(10)
C2 C 0.29939(18) 0.80376(19) 0.08742(9)
C3 C 0.85094(17) 0.99001(18) 0.11418(9)
C4 C 0.23212(18) 0.81125(18) 0.06747(10)
C5 C 0.4238(2) 0.7994(2) 0.12621(11)
C6 C 0.3615(2) 0.7951(2) 0.06865(10)
H3 H 0.361438 0.790455 0.042550
C7 C 0.5203(2) 0.6604(2) 0.24273(11)
H4 H 0.498550 0.639210 0.222116
C8 C 0.7373(2) 0.8451(2) 0.14889(12)
H5 H 0.742754 0.799934 0.158773
C9 C 0.3614(2) 0.8077(2) 0.14468(11)
H6 H 0.361197 0.811931 0.170798
C10 C 0.7955(2) 0.8835(2) 0.13916(11)
H7 H 0.840402 0.864752 0.142906
C11 C 0.5850(2) 0.7203(2) 0.30305(12)
H8 H 0.607241 0.740929 0.323660
C12 C 0.2997(2) 0.8097(2) 0.12563(10)
H9 H 0.257424 0.815211 0.138633
C13 C 0.72268(19) 0.9763(2) 0.11928(11)
C14 C 0.55111(17) 0.6211(2) 0.34350(10)
C15 C 0.5856(2) 0.7531(3) 0.26943(13)
H11 H 0.608688 0.796301 0.267079
C16 C 0.5521(2) 0.7613(3) 0.20282(12)
C17 C 0.5194(2) 0.6274(2) 0.27703(11)
H12 H 0.496172 0.584348 0.279594
C18 C 0.6713(2) 0.8723(2) 0.14426(11)
C19 C 0.55143(19) 0.6563(2) 0.30702(10)
C20 C 0.6642(2) 0.9385(2) 0.12911(12)
H13 H 0.619467 0.957603 0.125525
C21 C 0.4233(2) 0.7931(3) 0.08773(11)
H14 H 0.465621 0.787488 0.074711
C22 C 0.4898(2) 0.7976(3) 0.14785(11)
C23 C 0.6091(2) 0.8336(2) 0.15700(12)
C24 C 0.6101(2) 0.7969(3) 0.18997(13)
H15 H 0.651392 0.796096 0.204159
C25 C 0.4926(2) 0.7615(3) 0.18094(12)
H16 H 0.453060 0.736335 0.188904
C26 C 0.5483(2) 0.8330(3) 0.13594(12)
H17 H 0.546981 0.857304 0.113149
C27 C 0.5529(2) 0.7243(3) 0.23856(11)
O4 O 0.17914(12) 0.81992(13) 0.08687(6)
O5 O 0.90939(11) 0.96156(12) 0.11803(7)
O6 O 0.52395(12) 0.56171(13) 0.34504(6)
O7 O 0.57814(13) 0.65282(14) 0.37044(7)
O8 O 0.23297(12) 0.80897(14) 0.03234(6)
Al4 Al 0.10153(5) 0.87799(5) 0.08185(3)
O12 O 0.15868(12) 0.94902(13) 0.10264(7)
O13 O 0.12993(15) 0.90070(13) 0.03480(6)
H20 H 0.128123 0.948080 0.027908
H28 H 0.282453 0.978693 0.109174
O19 O 0.1018(6) 0.7642(6) 0.0163(3)
O20 O 0.0444(6) 0.8000(5) 0.0674(2)
C56 C 0.0571(4) 0.7606(5) 0.0417(3)
H36 H 0.028435 0.720700 0.040723
Al5 Al 0.16168(5) 0.83832(5) 0.000000
Al10 Al 0.60153(5) 0.62201(5) 0.41815(3)
O26 O 0.07814(13) 0.84718(14) 0.12956(7)
Al5_2 Al 0.16168(5) 0.83832(5) 1.000000
H19 H 0.996734 0.932916 0.059500
Al7 Al 0.000000 -0.000000 0.88388(4)
Al7_2 Al 0.000000 1.000000 0.88388(4)
Al1_3 Al 0.33832(5) 0.33832(5) 0.500000
Al2_5 Al 0.500000 0.500000 0.61612(4)
Al3_2 Al 0.37799(5) 0.39847(5) 0.58185(3)
O1_2 O 0.43616(12) 0.47434(11) 0.58063(6)
H1_2 H 0.432916 0.503266 0.559500
O2_2 O 0.44902(13) 0.34132(12) 0.60264(7)
O3_2 O 0.40070(13) 0.37007(15) 0.53480(6)
H2_2 H 0.448080 0.371877 0.527908
C1_2 C 0.5511(2) 0.28819(18) 0.62408(10)
C3_2 C 0.50999(18) 0.35094(17) 0.61418(9)
C7_2 C 0.8396(2) 0.0203(2) 0.74273(11)
C8_2 C 0.6549(2) 0.2373(2) 0.64889(12)
H5_2 H 0.700066 0.242754 0.658773
C10_2 C 0.6165(2) 0.2955(2) 0.63916(11)
H7_2 H 0.635248 0.340402 0.642906
C11_2 C 0.7797(2) 0.0850(2) 0.80305(12)
H8_2 H 0.759071 0.107241 0.823660
C13_2 C 0.5237(2) 0.22268(19) 0.61928(11)
H10_2 H 0.478693 0.217547 0.609174
C14_2 C 0.8789(2) 0.05111(17) 0.84350(10)
C15_2 C 0.7469(3) 0.0856(2) 0.76943(13)
H11_2 H 0.703699 0.108688 0.767079
C16_2 C 0.7387(3) 0.0521(2) 0.70282(12)
C17_2 C 0.8726(2) 0.0194(2) 0.77703(11)
C18_2 C 0.6277(2) 0.1713(2) 0.64426(11)
C19_2 C 0.8437(2) 0.05143(19) 0.80702(10)
C20_2 C 0.5615(2) 0.1642(2) 0.62911(12)
H13_2 H 0.542397 0.119467 0.625525
C23_2 C 0.6664(2) 0.1091(2) 0.65700(12)
C24_2 C 0.7031(3) 0.1101(2) 0.68997(13)
H15_2 H 0.703904 0.151392 0.704159
C26_2 C 0.6670(3) 0.0483(2) 0.63594(12)
H17_2 H 0.642696 0.046981 0.613149
C27_2 C 0.7757(3) 0.0529(2) 0.73856(11)
O5_2 O 0.53844(12) 0.40939(11) 0.61803(7)
O6_2 O 0.93829(13) 0.02395(12) 0.84504(6)
O7_2 O 0.84718(14) 0.07814(13) 0.87044(7)
O9_2 O 0.2642(6) 0.3982(6) 0.5163(3)
O10_2 O 0.3000(5) 0.4556(6) 0.5674(2)
C28_2 C 0.2606(5) 0.4429(4) 0.5417(3)
H18_2 H 0.220700 0.471565 0.540723
C30_2 C 0.30376(19) 0.20061(18) 0.58742(9)
C32_2 C 0.31125(18) 0.26788(18) 0.56747(10)
C33_2 C 0.2994(2) 0.0762(2) 0.62621(11)
C34_2 C 0.2951(2) 0.1385(2) 0.56865(10)
H21_2 H 0.290455 0.138562 0.542550
H22_2 H 0.139210 0.001450 0.722116
C37_2 C 0.3077(2) 0.1386(2) 0.64468(11)
H24_2 H 0.311931 0.138803 0.670798
C40_2 C 0.3097(2) 0.2003(2) 0.62563(10)
H27_2 H 0.315211 0.242576 0.638633
H30_2 H 0.084348 0.003828 0.779594
C49_2 C 0.2931(3) 0.0767(2) 0.58773(11)
H32_2 H 0.287488 0.034379 0.574711
C50_2 C 0.2976(3) 0.0102(2) 0.64785(11)
C53_2 C 0.2615(3) 0.0074(2) 0.68094(12)
H34_2 H 0.236335 0.046940 0.688904
O14_2 O 0.31992(13) 0.32086(12) 0.58687(6)
O18_2 O 0.30897(14) 0.26703(12) 0.53234(6)
Al7_3 Al 1.000000 -0.000000 0.88388(4)
Al10_2 Al 0.87799(5) 0.10153(5) 0.91815(3)
O21_2 O 0.56384(12) 0.52566(11) 0.58063(6)
O22_2 O 0.37007(15) 0.40070(13) 0.46520(6)
O23_2 O 0.46156(12) 0.59061(11) 0.61803(7)
O24_2 O 0.56171(13) 0.52395(12) 0.65496(6)
O25_2 O 0.43829(13) 0.47605(12) 0.65496(6)
O27_2 O 0.34718(14) 0.42186(13) 0.62956(7)
O28_2 O 0.26703(12) 0.30897(14) 0.46766(6)
O29_2 O 0.3982(6) 0.2642(6) 0.4837(3)
C2_2 C 0.69624(19) 0.79939(18) 0.58742(9)
C4_2 C 0.68875(18) 0.73212(18) 0.56747(10)
C5_2 C 0.7006(2) 0.9238(2) 0.62621(11)
C6_2 C 0.7049(2) 0.8615(2) 0.56865(10)
H3_2 H 0.709545 0.861438 0.542550
H4_2 H 0.860790 0.998550 0.722116
C9_2 C 0.6923(2) 0.8614(2) 0.64468(11)
H6_2 H 0.688069 0.861197 0.670798
C12_2 C 0.6903(2) 0.7997(2) 0.62563(10)
H9_2 H 0.684789 0.757424 0.638633
H12_2 H 0.915652 0.996172 0.779594
C21_2 C 0.7069(3) 0.9233(2) 0.58773(11)
H14_2 H 0.712512 0.965621 0.574711
C22_2 C 0.7024(3) 0.9898(2) 0.64785(11)
C25_2 C 0.7385(3) 0.9926(2) 0.68094(12)
H16_2 H 0.763665 0.953060 0.688904
O4_2 O 0.68008(13) 0.67914(12) 0.58687(6)
O8_2 O 0.69103(14) 0.73297(12) 0.53234(6)
Al4_2 Al 0.62201(5) 0.60153(5) 0.58185(3)
H19_2 H 0.567084 0.496734 0.559500
O12_2 O 0.55098(13) 0.65868(12) 0.60264(7)
O13_2 O 0.59930(13) 0.62993(15) 0.53480(6)
H20_2 H 0.551920 0.628123 0.527908
C29_2 C 0.4489(2) 0.71181(18) 0.62408(10)
C31_2 C 0.49001(18) 0.64906(17) 0.61418(9)
C35_2 C 0.1604(2) 0.9797(2) 0.74273(11)
C36_2 C 0.3451(2) 0.7627(2) 0.64889(12)
H23_2 H 0.299934 0.757246 0.658773
C38_2 C 0.3835(2) 0.7045(2) 0.63916(11)
H25_2 H 0.364752 0.659598 0.642906
C39_2 C 0.2203(2) 0.9150(2) 0.80305(12)
H26_2 H 0.240929 0.892759 0.823660
C41_2 C 0.4763(2) 0.77732(19) 0.61928(11)
H28_2 H 0.521307 0.782453 0.609174
C42_2 C 0.1211(2) 0.94889(17) 0.84350(10)
C43_2 C 0.2531(3) 0.9144(2) 0.76943(13)
H29_2 H 0.296301 0.891312 0.767079
C44_2 C 0.2613(3) 0.9479(2) 0.70282(12)
C45_2 C 0.1274(2) 0.9806(2) 0.77703(11)
C46_2 C 0.3723(2) 0.8287(2) 0.64426(11)
C47_2 C 0.1563(2) 0.94857(19) 0.80702(10)
C48_2 C 0.4385(2) 0.8358(2) 0.62911(12)
H31_2 H 0.457603 0.880533 0.625525
C51_2 C 0.3336(2) 0.8909(2) 0.65700(12)
C52_2 C 0.2969(3) 0.8899(2) 0.68997(13)
H33_2 H 0.296096 0.848608 0.704159
C54_2 C 0.3330(3) 0.9517(2) 0.63594(12)
H35_2 H 0.357304 0.953019 0.613149
C55_2 C 0.2243(3) 0.9471(2) 0.73856(11)
O16_2 O 0.06171(13) 0.97605(12) 0.84504(6)
O17_2 O 0.15282(14) 0.92186(13) 0.87044(7)
O19_2 O 0.7358(6) 0.6018(6) 0.5163(3)
O20_2 O 0.7000(5) 0.5444(6) 0.5674(2)
C56_2 C 0.7394(5) 0.5571(4) 0.5417(3)
H36_2 H 0.779300 0.528435 0.540723
Al5_3 Al 0.66168(5) 0.66168(5) 0.500000
Al7_4 Al 1.000000 1.000000 0.88388(4)
Al9_2 Al 0.12201(5) 0.89847(5) 0.91815(3)
O26_2 O 0.65282(14) 0.57814(13) 0.62956(7)
O22_3 O 0.09930(13) 0.87007(15) 0.96520(6)
O28_3 O 0.19103(14) 0.76703(12) 0.96766(6)
O29_3 O 0.2358(6) 0.8982(6) 0.9837(3)
O22_4 O 0.62993(15) 0.59930(13) 0.46520(6)
O28_4 O 0.73297(12) 0.69103(14) 0.46766(6)
O29_4 O 0.6018(6) 0.7358(6) 0.4837(3)
O1_3 O 0.47434(11) 0.43616(12) 0.41937(6)
H1_3 H 0.503266 0.432916 0.440500
O2_3 O 0.34132(12) 0.44902(13) 0.39736(7)
H2_3 H 0.371877 0.448080 0.472092
C1_3 C 0.28819(18) 0.5511(2) 0.37592(10)
C3_3 C 0.35094(17) 0.50999(18) 0.38582(9)
C7_3 C 0.0203(2) 0.8396(2) 0.25727(11)
C8_3 C 0.2373(2) 0.6549(2) 0.35111(12)
H5_3 H 0.242754 0.700066 0.341227
C10_3 C 0.2955(2) 0.6165(2) 0.36084(11)
H7_3 H 0.340402 0.635248 0.357094
C11_3 C 0.0850(2) 0.7797(2) 0.19695(12)
H8_3 H 0.107241 0.759071 0.176340
C13_3 C 0.22268(19) 0.5237(2) 0.38072(11)
H10_3 H 0.217547 0.478693 0.390826
C14_3 C 0.05111(17) 0.8789(2) 0.15650(10)
C15_3 C 0.0856(2) 0.7469(3) 0.23057(13)
H11_3 H 0.108688 0.703699 0.232921
C16_3 C 0.0521(2) 0.7387(3) 0.29718(12)
C17_3 C 0.0194(2) 0.8726(2) 0.22297(11)
C18_3 C 0.1713(2) 0.6277(2) 0.35574(11)
C19_3 C 0.05143(19) 0.8437(2) 0.19298(10)
C20_3 C 0.1642(2) 0.5615(2) 0.37089(12)
H13_3 H 0.119467 0.542397 0.374475
C23_3 C 0.1091(2) 0.6664(2) 0.34300(12)
C24_3 C 0.1101(2) 0.7031(3) 0.31003(13)
H15_3 H 0.151392 0.703904 0.295841
C26_3 C 0.0483(2) 0.6670(3) 0.36406(12)
H17_3 H 0.046981 0.642696 0.386851
C27_3 C 0.0529(2) 0.7757(3) 0.26144(11)
O5_3 O 0.40939(11) 0.53844(12) 0.38197(7)
O10_3 O 0.4556(6) 0.3000(5) 0.4326(2)
C28_3 C 0.4429(4) 0.2606(5) 0.4583(3)
H18_3 H 0.471565 0.220700 0.459277
C30_3 C 0.20061(18) 0.30376(19) 0.41258(9)
C32_3 C 0.26788(18) 0.31125(18) 0.43253(10)
C33_3 C 0.0762(2) 0.2994(2) 0.37379(11)
C34_3 C 0.1385(2) 0.2951(2) 0.43135(10)
H21_3 H 0.138562 0.290455 0.457450
H22_3 H 0.001450 0.139210 0.277884
C37_3 C 0.1386(2) 0.3077(2) 0.35532(11)
H24_3 H 0.138803 0.311931 0.329202
C40_3 C 0.2003(2) 0.3097(2) 0.37437(10)
H27_3 H 0.242576 0.315211 0.361367
H30_3 H 0.003828 0.084348 0.220406
C49_3 C 0.0767(2) 0.2931(3) 0.41227(11)
H32_3 H 0.034379 0.287488 0.425289
C50_3 C 0.0102(2) 0.2976(3) 0.35215(11)
C53_3 C 0.0074(2) 0.2615(3) 0.31906(12)
H34_3 H 0.046940 0.236335 0.311096
O14_3 O 0.32086(12) 0.31992(13) 0.41313(6)
O21_3 O 0.52566(11) 0.56384(12) 0.41937(6)
O23_3 O 0.59061(11) 0.46156(12) 0.38197(7)
C2_3 C 0.79939(18) 0.69624(19) 0.41258(9)
C4_3 C 0.73212(18) 0.68875(18) 0.43253(10)
C5_3 C 0.9238(2) 0.7006(2) 0.37379(11)
C6_3 C 0.8615(2) 0.7049(2) 0.43135(10)
H3_3 H 0.861438 0.709545 0.457450
H4_3 H 0.998550 0.860790 0.277884
C9_3 C 0.8614(2) 0.6923(2) 0.35532(11)
H6_3 H 0.861197 0.688069 0.329202
C12_3 C 0.7997(2) 0.6903(2) 0.37437(10)
H9_3 H 0.757424 0.684789 0.361367
H12_3 H 0.996172 0.915652 0.220406
C21_3 C 0.9233(2) 0.7069(3) 0.41227(11)
H14_3 H 0.965621 0.712512 0.425289
C22_3 C 0.9898(2) 0.7024(3) 0.35215(11)
C25_3 C 0.9926(2) 0.7385(3) 0.31906(12)
H16_3 H 0.953060 0.763665 0.311096
O4_3 O 0.67914(12) 0.68008(13) 0.41313(6)
H19_3 H 0.496734 0.567084 0.440500
O12_3 O 0.65868(12) 0.55098(13) 0.39736(7)
H20_3 H 0.628123 0.551920 0.472092
C29_3 C 0.71181(18) 0.4489(2) 0.37592(10)
C31_3 C 0.64906(17) 0.49001(18) 0.38582(9)
C35_3 C 0.9797(2) 0.1604(2) 0.25727(11)
C36_3 C 0.7627(2) 0.3451(2) 0.35111(12)
H23_3 H 0.757246 0.299934 0.341227
C38_3 C 0.7045(2) 0.3835(2) 0.36084(11)
H25_3 H 0.659598 0.364752 0.357094
C39_3 C 0.9150(2) 0.2203(2) 0.19695(12)
H26_3 H 0.892759 0.240929 0.176340
C41_3 C 0.77732(19) 0.4763(2) 0.38072(11)
H28_3 H 0.782453 0.521307 0.390826
C42_3 C 0.94889(17) 0.1211(2) 0.15650(10)
C43_3 C 0.9144(2) 0.2531(3) 0.23057(13)
H29_3 H 0.891312 0.296301 0.232921
C44_3 C 0.9479(2) 0.2613(3) 0.29718(12)
C45_3 C 0.9806(2) 0.1274(2) 0.22297(11)
C46_3 C 0.8287(2) 0.3723(2) 0.35574(11)
C47_3 C 0.94857(19) 0.1563(2) 0.19298(10)
C48_3 C 0.8358(2) 0.4385(2) 0.37089(12)
H31_3 H 0.880533 0.457603 0.374475
C51_3 C 0.8909(2) 0.3336(2) 0.34300(12)
C52_3 C 0.8899(2) 0.2969(3) 0.31003(13)
H33_3 H 0.848608 0.296096 0.295841
C54_3 C 0.9517(2) 0.3330(3) 0.36406(12)
H35_3 H 0.953019 0.357304 0.386851
C55_3 C 0.9471(2) 0.2243(3) 0.26144(11)
O20_3 O 0.5444(6) 0.7000(5) 0.4326(2)
C56_3 C 0.5571(4) 0.7394(5) 0.4583(3)
H36_3 H 0.528435 0.779300 0.459277
H1_4 H 0.067084 0.003266 0.940500
O23_4 O 0.03844(12) 0.09061(11) 0.88197(7)
O1_4 O 0.06384(12) 0.97434(11) 0.91937(6)
O2_4 O 0.05098(13) 0.84132(12) 0.89736(7)
H2_4 H 0.051920 0.871877 0.972092
H10_4 H 0.021307 0.717547 0.890826
O10_4 O 0.2000(5) 0.9556(6) 0.9326(2)
C28_4 C 0.2394(5) 0.9429(4) 0.9583(3)
H18_4 H 0.279300 0.971565 0.959277
C29_4 C 0.0511(2) 0.21181(18) 0.87592(10)
C30_4 C 0.19624(19) 0.70061(18) 0.91258(9)
C31_4 C 0.00999(18) 0.14906(17) 0.88582(9)
C32_4 C 0.18875(18) 0.76788(18) 0.93253(10)
C33_4 C 0.2006(2) 0.5762(2) 0.87379(11)
C34_4 C 0.2049(2) 0.6385(2) 0.93135(10)
H21_4 H 0.209545 0.638562 0.957450
C35_4 C 0.3396(2) 0.4797(2) 0.75727(11)
H22_4 H 0.360790 0.501450 0.777884
C36_4 C 0.1549(2) 0.2627(2) 0.85111(12)
H23_4 H 0.200066 0.257246 0.841227
C37_4 C 0.1923(2) 0.6386(2) 0.85532(11)
H24_4 H 0.188069 0.638803 0.829202
C38_4 C 0.1165(2) 0.2045(2) 0.86084(11)
H25_4 H 0.135248 0.159598 0.857094
C39_4 C 0.2797(2) 0.4150(2) 0.69695(12)
H26_4 H 0.259071 0.392759 0.676340
C40_4 C 0.1903(2) 0.7003(2) 0.87437(10)
H27_4 H 0.184789 0.742576 0.861367
C41_4 C 0.0237(2) 0.27732(19) 0.88072(11)
C42_4 C 0.3789(2) 0.44889(17) 0.65650(10)
C43_4 C 0.2469(3) 0.4144(2) 0.73057(13)
H29_4 H 0.203699 0.391312 0.732921
C44_4 C 0.2387(3) 0.4479(2) 0.79718(12)
C45_4 C 0.3726(2) 0.4806(2) 0.72297(11)
H30_4 H 0.415652 0.503828 0.720406
C46_4 C 0.1277(2) 0.3287(2) 0.85574(11)
C47_4 C 0.3437(2) 0.44857(19) 0.69298(10)
C48_4 C 0.0615(2) 0.3358(2) 0.87089(12)
H31_4 H 0.042397 0.380533 0.874475
C49_4 C 0.2069(3) 0.5767(2) 0.91227(11)
H32_4 H 0.212512 0.534379 0.925289
C50_4 C 0.2024(3) 0.5102(2) 0.85215(11)
C51_4 C 0.1664(2) 0.3909(2) 0.84300(12)
C52_4 C 0.2031(3) 0.3899(2) 0.81003(13)
H33_4 H 0.203904 0.348608 0.795841
C53_4 C 0.2385(3) 0.5074(2) 0.81906(12)
H34_4 H 0.263665 0.546940 0.811096
C54_4 C 0.1670(3) 0.4517(2) 0.86406(12)
H35_4 H 0.142696 0.453019 0.886851
C55_4 C 0.2757(3) 0.4471(2) 0.76144(11)
O14_4 O 0.18008(13) 0.82086(12) 0.91313(6)
O21_4 O 0.93616(12) 0.02566(11) 0.91937(6)
C1_4 C 0.9489(2) 0.78819(18) 0.87592(10)
C2_4 C 0.80376(19) 0.29939(18) 0.91258(9)
C3_4 C 0.99001(18) 0.85094(17) 0.88582(9)
C4_4 C 0.81125(18) 0.23212(18) 0.93253(10)
C5_4 C 0.7994(2) 0.4238(2) 0.87379(11)
C6_4 C 0.7951(2) 0.3615(2) 0.93135(10)
H3_4 H 0.790455 0.361438 0.957450
C7_4 C 0.6604(2) 0.5203(2) 0.75727(11)
H4_4 H 0.639210 0.498550 0.777884
C8_4 C 0.8451(2) 0.7373(2) 0.85111(12)
H5_4 H 0.799934 0.742754 0.841227
C9_4 C 0.8077(2) 0.3614(2) 0.85532(11)
H6_4 H 0.811931 0.361197 0.829202
C10_4 C 0.8835(2) 0.7955(2) 0.86084(11)
H7_4 H 0.864752 0.840402 0.857094
C11_4 C 0.7203(2) 0.5850(2) 0.69695(12)
H8_4 H 0.740929 0.607241 0.676340
C12_4 C 0.8097(2) 0.2997(2) 0.87437(10)
H9_4 H 0.815211 0.257424 0.861367
C13_4 C 0.9763(2) 0.72268(19) 0.88072(11)
C14_4 C 0.6211(2) 0.55111(17) 0.65650(10)
C15_4 C 0.7531(3) 0.5856(2) 0.73057(13)
H11_4 H 0.796301 0.608688 0.732921
C16_4 C 0.7613(3) 0.5521(2) 0.79718(12)
C17_4 C 0.6274(2) 0.5194(2) 0.72297(11)
H12_4 H 0.584348 0.496172 0.720406
C18_4 C 0.8723(2) 0.6713(2) 0.85574(11)
C19_4 C 0.6563(2) 0.55143(19) 0.69298(10)
C20_4 C 0.9385(2) 0.6642(2) 0.87089(12)
H13_4 H 0.957603 0.619467 0.874475
C21_4 C 0.7931(3) 0.4233(2) 0.91227(11)
H14_4 H 0.787488 0.465621 0.925289
C22_4 C 0.7976(3) 0.4898(2) 0.85215(11)
C23_4 C 0.8336(2) 0.6091(2) 0.84300(12)
C24_4 C 0.7969(3) 0.6101(2) 0.81003(13)
H15_4 H 0.796096 0.651392 0.795841
C25_4 C 0.7615(3) 0.4926(2) 0.81906(12)
H16_4 H 0.736335 0.453060 0.811096
C26_4 C 0.8330(3) 0.5483(2) 0.86406(12)
H17_4 H 0.857304 0.546981 0.886851
C27_4 C 0.7243(3) 0.5529(2) 0.76144(11)
O4_4 O 0.81992(13) 0.17914(12) 0.91313(6)
O5_4 O 0.96156(12) 0.90939(11) 0.88197(7)
O12_4 O 0.94902(13) 0.15868(12) 0.89736(7)
H20_4 H 0.948080 0.128123 0.972092
H28_4 H 0.978693 0.282453 0.890826
O20_4 O 0.8000(5) 0.0444(6) 0.9326(2)
C56_4 C 0.7606(5) 0.0571(4) 0.9583(3)
H36_4 H 0.720700 0.028435 0.959277
H19_4 H 0.932916 0.996734 0.940500
loop_
_geom_bond_atom_site_label_1
_geom_bond_atom_site_label_2
_geom_bond_site_symmetry_1
_geom_bond_site_symmetry_2
O23 Al2 1_555 1_555
O21 Al2_2 1_555 1_555
O24 Al2_2 1_555 1_555
Al1 O3 1_555 1_555
Al2_3 O1 1_555 1_555
Al3 O1 1_555 1_555
O2 Al3 1_555 1_555
O3 Al3 1_555 1_555
H2 O3 1_555 1_555
O9 Al1 1_555 1_555
O10 Al3 1_555 1_555
C28 O9 1_555 1_555
H18 C28 1_555 1_555
C29 C31 1_555 1_555
C30 C32 1_555 1_555
C32 O14 1_555 1_555
C33 C37 1_555 1_555
C34 C30 1_555 1_555
H21 C34 1_555 1_555
C35 H22 1_555 1_555
C36 H23 1_555 1_555
C37 H24 1_555 1_555
C38 C29 1_555 1_555
H25 C38 1_555 1_555
C39 H26 1_555 1_555
C40 C30 1_555 1_555
H27 C40 1_555 1_555
C41 C29 1_555 1_555
C42 C47 1_555 1_555
C43 C39 1_555 1_555
H29 C43 1_555 1_555
C44 C52 1_555 1_555
C45 C35 1_555 1_555
H30 C45 1_555 1_555
C46 C36 1_555 1_555
C47 C39 1_555 1_555
C48 C41 1_555 1_555
H31 C48 1_555 1_555
C49 C33 1_555 1_555
H32 C49 1_555 1_555
C50 C33 1_555 1_555
C51 C46 1_555 1_555
C52 C51 1_555 1_555
H33 C52 1_555 1_555
C53 C44 1_555 1_555
H34 C53 1_555 1_555
C54 C50 1_555 1_555
H35 C54 1_555 1_555
C55 C35 1_555 1_555
O14 Al3 1_555 1_555
O23 C31 1_555 1_555
O16 C42 1_555 1_555
O17 C42 1_555 1_555
O18 Al1 1_555 1_555
Al8 O16 1_555 1_555
Al9 O17 1_555 1_555
O25 Al2_3 1_555 1_555
O27 Al3 1_555 1_555
O10 C28 1_555 1_555
C32 O18 1_555 1_555
C34 C49 1_555 1_555
C36 C38 1_555 1_555
C37 C40 1_555 1_555
C43 C55 1_555 1_555
C44 C55 1_555 1_555
C45 C47 1_555 1_555
C46 C48 1_555 1_555
C50 C53 1_555 1_555
C51 C54 1_555 1_555
O22 Al1_2 1_555 1_555
O28 Al1_2 1_555 1_555
O29 Al1_2 1_555 1_555
C1 C3 1_555 1_555
C2 C4 1_555 1_555
C4 O4 1_555 1_555
C5 C9 1_555 1_555
C6 C2 1_555 1_555
H3 C6 1_555 1_555
C7 H4 1_555 1_555
C8 H5 1_555 1_555
C9 H6 1_555 1_555
C10 C1 1_555 1_555
H7 C10 1_555 1_555
C11 H8 1_555 1_555
C12 C2 1_555 1_555
H9 C12 1_555 1_555
C13 C1 1_555 1_555
C14 C19 1_555 1_555
C15 C11 1_555 1_555
H11 C15 1_555 1_555
C16 C24 1_555 1_555
C17 C7 1_555 1_555
H12 C17 1_555 1_555
C18 C8 1_555 1_555
C19 C11 1_555 1_555
C20 C13 1_555 1_555
H13 C20 1_555 1_555
C21 C5 1_555 1_555
H14 C21 1_555 1_555
C22 C5 1_555 1_555
C23 C18 1_555 1_555
C24 C23 1_555 1_555
H15 C24 1_555 1_555
C25 C16 1_555 1_555
H16 C25 1_555 1_555
C26 C22 1_555 1_555
H17 C26 1_555 1_555
C27 C7 1_555 1_555
O4 Al4 1_555 1_555
O5 Al2_4 1_555 1_555
O6 C14 1_555 1_555
O7 C14 1_555 1_555
O8 C4 1_555 1_555
Al4 O21 1_555 1_555
O12 Al4 1_555 1_555
O13 Al4 1_555 1_555
H20 O13 1_555 1_555
O19 C56 1_555 1_555
O20 Al4 1_555 1_555
C56 O20 1_555 1_555
H36 C56 1_555 1_555
Al5 O8 1_555 1_555
Al8 O6 1_555 1_555
Al10 O7 1_555 1_555
O26 Al4 1_555 1_555
C3 O5 1_555 1_555
C6 C21 1_555 1_555
C8 C10 1_555 1_555
C9 C12 1_555 1_555
C15 C27 1_555 1_555
C16 C27 1_555 1_555
C17 C19 1_555 1_555
C18 C20 1_555 1_555
C22 C25 1_555 1_555
C23 C26 1_555 1_555
O13 Al5 1_555 1_555
O19 Al5 1_555 1_555
Al1_3 O3_2 1_555 1_555
Al2_5 O1_2 1_555 1_555
Al3_2 O1_2 1_555 1_555
O1_2 H1_2 1_555 1_555
O2_2 Al3_2 1_555 1_555
O3_2 Al3_2 1_555 1_555
H2_2 O3_2 1_555 1_555
C1_2 C3_2 1_555 1_555
C3_2 O2_2 1_555 1_555
C8_2 H5_2 1_555 1_555
C10_2 C1_2 1_555 1_555
H7_2 C10_2 1_555 1_555
C11_2 H8_2 1_555 1_555
C13_2 C1_2 1_555 1_555
H10_2 C13_2 1_555 1_555
C14_2 C19_2 1_555 1_555
C15_2 C11_2 1_555 1_555
H11_2 C15_2 1_555 1_555
C16_2 C24_2 1_555 1_555
C17_2 C7_2 1_555 1_555
C18_2 C8_2 1_555 1_555
C19_2 C11_2 1_555 1_555
C20_2 C13_2 1_555 1_555
H13_2 C20_2 1_555 1_555
C23_2 C18_2 1_555 1_555
C24_2 C23_2 1_555 1_555
H15_2 C24_2 1_555 1_555
H17_2 C26_2 1_555 1_555
C27_2 C7_2 1_555 1_555
O5_2 Al2_5 1_555 1_555
O6_2 C14_2 1_555 1_555
O7_2 C14_2 1_555 1_555
O9_2 Al1_3 1_555 1_555
O10_2 Al3_2 1_555 1_555
C28_2 O9_2 1_555 1_555
H18_2 C28_2 1_555 1_555
C30_2 C32_2 1_555 1_555
C32_2 O14_2 1_555 1_555
C33_2 C37_2 1_555 1_555
C34_2 C30_2 1_555 1_555
H21_2 C34_2 1_555 1_555
C37_2 H24_2 1_555 1_555
C40_2 C30_2 1_555 1_555
H27_2 C40_2 1_555 1_555
C49_2 C33_2 1_555 1_555
H32_2 C49_2 1_555 1_555
C50_2 C33_2 1_555 1_555
H34_2 C53_2 1_555 1_555
O14_2 Al3_2 1_555 1_555
O18_2 Al1_3 1_555 1_555
Al7_3 O6_2 1_555 1_555
Al10_2 O7_2 1_555 1_555
O21_2 Al2_5 1_555 1_555
O22_2 Al1_3 1_555 1_555
O23_2 Al2_5 1_555 1_555
O24_2 Al2_5 1_555 1_555
O25_2 Al2_5 1_555 1_555
O27_2 Al3_2 1_555 1_555
O28_2 Al1_3 1_555 1_555
O29_2 Al1_3 1_555 1_555
C3_2 O5_2 1_555 1_555
C8_2 C10_2 1_555 1_555
C15_2 C27_2 1_555 1_555
C16_2 C27_2 1_555 1_555
C17_2 C19_2 1_555 1_555
C18_2 C20_2 1_555 1_555
C23_2 C26_2 1_555 1_555
O10_2 C28_2 1_555 1_555
C32_2 O18_2 1_555 1_555
C34_2 C49_2 1_555 1_555
C37_2 C40_2 1_555 1_555
C50_2 C53_2 1_555 1_555
C2_2 C4_2 1_555 1_555
C4_2 O4_2 1_555 1_555
C5_2 C9_2 1_555 1_555
C6_2 C2_2 1_555 1_555
H3_2 C6_2 1_555 1_555
C9_2 H6_2 1_555 1_555
C12_2 C2_2 1_555 1_555
H9_2 C12_2 1_555 1_555
C21_2 C5_2 1_555 1_555
H14_2 C21_2 1_555 1_555
C22_2 C5_2 1_555 1_555
H16_2 C25_2 1_555 1_555
O4_2 Al4_2 1_555 1_555
O8_2 C4_2 1_555 1_555
Al4_2 O21_2 1_555 1_555
O21_2 H19_2 1_555 1_555
O12_2 Al4_2 1_555 1_555
O13_2 Al4_2 1_555 1_555
H20_2 O13_2 1_555 1_555
C29_2 C31_2 1_555 1_555
C31_2 O12_2 1_555 1_555
C36_2 H23_2 1_555 1_555
C38_2 C29_2 1_555 1_555
H25_2 C38_2 1_555 1_555
C39_2 H26_2 1_555 1_555
C41_2 C29_2 1_555 1_555
H28_2 C41_2 1_555 1_555
C42_2 C47_2 1_555 1_555
C43_2 C39_2 1_555 1_555
H29_2 C43_2 1_555 1_555
C44_2 C52_2 1_555 1_555
C45_2 C35_2 1_555 1_555
C46_2 C36_2 1_555 1_555
C47_2 C39_2 1_555 1_555
C48_2 C41_2 1_555 1_555
H31_2 C48_2 1_555 1_555
C51_2 C46_2 1_555 1_555
C52_2 C51_2 1_555 1_555
H33_2 C52_2 1_555 1_555
H35_2 C54_2 1_555 1_555
C55_2 C35_2 1_555 1_555
O23_2 C31_2 1_555 1_555
O16_2 C42_2 1_555 1_555
O17_2 C42_2 1_555 1_555
O19_2 C56_2 1_555 1_555
O20_2 Al4_2 1_555 1_555
C56_2 O20_2 1_555 1_555
H36_2 C56_2 1_555 1_555
Al5_3 O8_2 1_555 1_555
Al7_2 O16_2 1_555 1_555
Al9_2 O17_2 1_555 1_555
O26_2 Al4_2 1_555 1_555
C6_2 C21_2 1_555 1_555
C9_2 C12_2 1_555 1_555
C22_2 C25_2 1_555 1_555
O13_2 Al5_3 1_555 1_555
C36_2 C38_2 1_555 1_555
C43_2 C55_2 1_555 1_555
C44_2 C55_2 1_555 1_555
C45_2 C47_2 1_555 1_555
C46_2 C48_2 1_555 1_555
C51_2 C54_2 1_555 1_555
O19_2 Al5_3 1_555 1_555
O22_3 Al5_2 1_555 1_555
O28_3 Al5_2 1_555 1_555
O29_3 Al5_2 1_555 1_555
O22_4 Al5_3 1_555 1_555
O28_4 Al5_3 1_555 1_555
O29_4 Al5_3 1_555 1_555
Al8 O1_3 1_555 1_555
Al9 O1_3 1_555 1_555
O1_3 H1_3 1_555 1_555
O2_3 Al9 1_555 1_555
O22_2 Al9 1_555 1_555
H2_3 O22_2 1_555 1_555
C1_3 C3_3 1_555 1_555
C3_3 O2_3 1_555 1_555
C8_3 H5_3 1_555 1_555
C10_3 C1_3 1_555 1_555
H7_3 C10_3 1_555 1_555
C11_3 H8_3 1_555 1_555
C13_3 C1_3 1_555 1_555
H10_3 C13_3 1_555 1_555
C14_3 C19_3 1_555 1_555
C15_3 C11_3 1_555 1_555
H11_3 C15_3 1_555 1_555
C16_3 C24_3 1_555 1_555
C17_3 C7_3 1_555 1_555
C18_3 C8_3 1_555 1_555
C19_3 C11_3 1_555 1_555
C20_3 C13_3 1_555 1_555
H13_3 C20_3 1_555 1_555
C23_3 C18_3 1_555 1_555
C24_3 C23_3 1_555 1_555
H15_3 C24_3 1_555 1_555
H17_3 C26_3 1_555 1_555
C27_3 C7_3 1_555 1_555
O5_3 Al8 1_555 1_555
O24 C14_3 1_555 1_555
O26 C14_3 1_555 1_555
O10_3 Al9 1_555 1_555
C28_3 O29_2 1_555 1_555
H18_3 C28_3 1_555 1_555
C30_3 C32_3 1_555 1_555
C32_3 O14_3 1_555 1_555
C33_3 C37_3 1_555 1_555
C34_3 C30_3 1_555 1_555
H21_3 C34_3 1_555 1_555
C37_3 H24_3 1_555 1_555
C40_3 C30_3 1_555 1_555
H27_3 C40_3 1_555 1_555
C49_3 C33_3 1_555 1_555
H32_3 C49_3 1_555 1_555
C50_3 C33_3 1_555 1_555
H34_3 C53_3 1_555 1_555
O14_3 Al9 1_555 1_555
O21_3 Al8 1_555 1_555
O23_3 Al8 1_555 1_555
C3_3 O5_3 1_555 1_555
C8_3 C10_3 1_555 1_555
C15_3 C27_3 1_555 1_555
C16_3 C27_3 1_555 1_555
C17_3 C19_3 1_555 1_555
C18_3 C20_3 1_555 1_555
C23_3 C26_3 1_555 1_555
O10_3 C28_3 1_555 1_555
C32_3 O28_2 1_555 1_555
C34_3 C49_3 1_555 1_555
C37_3 C40_3 1_555 1_555
C50_3 C53_3 1_555 1_555
C2_3 C4_3 1_555 1_555
C4_3 O4_3 1_555 1_555
C5_3 C9_3 1_555 1_555
C6_3 C2_3 1_555 1_555
H3_3 C6_3 1_555 1_555
C9_3 H6_3 1_555 1_555
C12_3 C2_3 1_555 1_555
H9_3 C12_3 1_555 1_555
C21_3 C5_3 1_555 1_555
H14_3 C21_3 1_555 1_555
C22_3 C5_3 1_555 1_555
H16_3 C25_3 1_555 1_555
O4_3 Al10 1_555 1_555
O28_4 C4_3 1_555 1_555
Al10 O21_3 1_555 1_555
O21_3 H19_3 1_555 1_555
O12_3 Al10 1_555 1_555
O22_4 Al10 1_555 1_555
H20_3 O22_4 1_555 1_555
C29_3 C31_3 1_555 1_555
C31_3 O12_3 1_555 1_555
C36_3 H23_3 1_555 1_555
C38_3 C29_3 1_555 1_555
H25_3 C38_3 1_555 1_555
C39_3 H26_3 1_555 1_555
C41_3 C29_3 1_555 1_555
H28_3 C41_3 1_555 1_555
C42_3 C47_3 1_555 1_555
C43_3 C39_3 1_555 1_555
H29_3 C43_3 1_555 1_555
C44_3 C52_3 1_555 1_555
C45_3 C35_3 1_555 1_555
C46_3 C36_3 1_555 1_555
C47_3 C39_3 1_555 1_555
C48_3 C41_3 1_555 1_555
H31_3 C48_3 1_555 1_555
C51_3 C46_3 1_555 1_555
C52_3 C51_3 1_555 1_555
H33_3 C52_3 1_555 1_555
H35_3 C54_3 1_555 1_555
C55_3 C35_3 1_555 1_555
O23_3 C31_3 1_555 1_555
O25 C42_3 1_555 1_555
O27 C42_3 1_555 1_555
O29_4 C56_3 1_555 1_555
O20_3 Al10 1_555 1_555
C56_3 O20_3 1_555 1_555
H36_3 C56_3 1_555 1_555
C6_3 C21_3 1_555 1_555
C9_3 C12_3 1_555 1_555
C22_3 C25_3 1_555 1_555
C36_3 C38_3 1_555 1_555
C43_3 C55_3 1_555 1_555
C44_3 C55_3 1_555 1_555
C45_3 C47_3 1_555 1_555
C46_3 C48_3 1_555 1_555
C51_3 C54_3 1_555 1_555
O23_4 Al7 1_555 1_555
Al7_2 O1_4 1_555 1_555
Al9_2 O1_4 1_555 1_555
O2_4 Al9_2 1_555 1_555
O22_3 Al9_2 1_555 1_555
H2_4 O22_3 1_555 1_555
O10_4 Al9_2 1_555 1_555
C28_4 O29_3 1_555 1_555
H18_4 C28_4 1_555 1_555
C29_4 C31_4 1_555 1_555
C30_4 C32_4 1_555 1_555
C32_4 O14_4 1_555 1_555
C33_4 C37_4 1_555 1_555
C34_4 C30_4 1_555 1_555
H21_4 C34_4 1_555 1_555
C35_4 H22_4 1_555 1_555
C36_4 H23_4 1_555 1_555
C37_4 H24_4 1_555 1_555
C38_4 C29_4 1_555 1_555
H25_4 C38_4 1_555 1_555
C39_4 H26_4 1_555 1_555
C40_4 C30_4 1_555 1_555
H27_4 C40_4 1_555 1_555
C41_4 C29_4 1_555 1_555
C42_4 C47_4 1_555 1_555
C43_4 C39_4 1_555 1_555
H29_4 C43_4 1_555 1_555
C44_4 C52_4 1_555 1_555
C45_4 C35_4 1_555 1_555
H30_4 C45_4 1_555 1_555
C46_4 C36_4 1_555 1_555
C47_4 C39_4 1_555 1_555
C48_4 C41_4 1_555 1_555
H31_4 C48_4 1_555 1_555
C49_4 C33_4 1_555 1_555
H32_4 C49_4 1_555 1_555
C50_4 C33_4 1_555 1_555
C51_4 C46_4 1_555 1_555
C52_4 C51_4 1_555 1_555
H33_4 C52_4 1_555 1_555
C53_4 C44_4 1_555 1_555
H34_4 C53_4 1_555 1_555
C54_4 C50_4 1_555 1_555
H35_4 C54_4 1_555 1_555
C55_4 C35_4 1_555 1_555
O14_4 Al9_2 1_555 1_555
O23_4 C31_4 1_555 1_555
O25_2 C42_4 1_555 1_555
O27_2 C42_4 1_555 1_555
O10_4 C28_4 1_555 1_555
C32_4 O28_3 1_555 1_555
C34_4 C49_4 1_555 1_555
C36_4 C38_4 1_555 1_555
C37_4 C40_4 1_555 1_555
C43_4 C55_4 1_555 1_555
C44_4 C55_4 1_555 1_555
C45_4 C47_4 1_555 1_555
C46_4 C48_4 1_555 1_555
C50_4 C53_4 1_555 1_555
C51_4 C54_4 1_555 1_555
O21_4 Al7_3 1_555 1_555
C1_4 C3_4 1_555 1_555
C2_4 C4_4 1_555 1_555
C4_4 O4_4 1_555 1_555
C5_4 C9_4 1_555 1_555
C6_4 C2_4 1_555 1_555
H3_4 C6_4 1_555 1_555
C7_4 H4_4 1_555 1_555
C8_4 H5_4 1_555 1_555
C9_4 H6_4 1_555 1_555
C10_4 C1_4 1_555 1_555
H7_4 C10_4 1_555 1_555
C11_4 H8_4 1_555 1_555
C12_4 C2_4 1_555 1_555
H9_4 C12_4 1_555 1_555
C13_4 C1_4 1_555 1_555
C14_4 C19_4 1_555 1_555
C15_4 C11_4 1_555 1_555
H11_4 C15_4 1_555 1_555
C16_4 C24_4 1_555 1_555
C17_4 C7_4 1_555 1_555
H12_4 C17_4 1_555 1_555
C18_4 C8_4 1_555 1_555
C19_4 C11_4 1_555 1_555
C20_4 C13_4 1_555 1_555
H13_4 C20_4 1_555 1_555
C21_4 C5_4 1_555 1_555
H14_4 C21_4 1_555 1_555
C22_4 C5_4 1_555 1_555
C23_4 C18_4 1_555 1_555
C24_4 C23_4 1_555 1_555
H15_4 C24_4 1_555 1_555
C25_4 C16_4 1_555 1_555
H16_4 C25_4 1_555 1_555
C26_4 C22_4 1_555 1_555
H17_4 C26_4 1_555 1_555
C27_4 C7_4 1_555 1_555
O4_4 Al10_2 1_555 1_555
O5_4 Al7_4 1_555 1_555
O24_2 C14_4 1_555 1_555
O26_2 C14_4 1_555 1_555
O28 C4_4 1_555 1_555
Al10_2 O21_4 1_555 1_555
O12_4 Al10_2 1_555 1_555
O22 Al10_2 1_555 1_555
H20_4 O22 1_555 1_555
O29 C56_4 1_555 1_555
O20_4 Al10_2 1_555 1_555
C56_4 O20_4 1_555 1_555
H36_4 C56_4 1_555 1_555
C3_4 O5_4 1_555 1_555
C6_4 C21_4 1_555 1_555
C8_4 C10_4 1_555 1_555
C9_4 C12_4 1_555 1_555
C15_4 C27_4 1_555 1_555
C16_4 C27_4 1_555 1_555
C17_4 C19_4 1_555 1_555
C18_4 C20_4 1_555 1_555
C22_4 C25_4 1_555 1_555
C23_4 C26_4 1_555 1_555

#END
