
###############################################################################
#
# This file contains modified crystal structure data generated from the
# MOF subset of the Cambridge Structural Database (CSD) v543 
# hosted by the Cambridge Crystallographic Data Centre (CCDC).
#
# This work is licensed under the Creative Commons
# Attribution-NonCommercial-ShareAlike 4.0 International License.
# To view a copy of this license, visit
# http://creativecommons.org/licenses/by-nc-sa/4.0/
# or send a letter to
# Creative Commons, PO Box 1866, Mountain View, CA 94042, USA.
#
# CIF created using the CSD Python API on 29 September 2022
# The structure has been converted into the P1 space group
# The structure has a 3D framework
# The original CSD entry QOXRON is in the tetragonal crystal system
# The original CSD entry QOXRON is in a Sohncke space group
# The framework has been calculated to contain at least 10.0% void space
# The void calculation uses a probe of radius 1.32A, grid spacing 0.4
# H atom positions have been added when not included in the experimental data
#
###############################################################################

data_QOXRON
_chemical_formula_moiety         '(C344 H264 Al16 N24 O84)n'
_symmetry_cell_setting           triclinic
_symmetry_space_group_name_H-M   'P 1'
_symmetry_Int_Tables_number      1
_space_group_name_Hall           'P 1'
loop_
_symmetry_equiv_pos_site_id
_symmetry_equiv_pos_as_xyz
1 x,y,z
_cell_length_a                   19.4248(7)
_cell_length_b                   19.4248(7)
_cell_length_c                   35.7345(13)
_cell_angle_alpha                90
_cell_angle_beta                 90
_cell_angle_gamma                90
_cell_volume                     13483.4
loop_
_atom_site_label
_atom_site_type_symbol
_atom_site_fract_x
_atom_site_fract_y
_atom_site_fract_z
Al13 Al 0.000000 0.000000 0.61583(5)
C3 C 0.3528(2) 0.5147(3) 0.88660(12)
C5 C 0.0547(2) 0.8817(3) 0.65760(13)
C6 C 0.0572(2) 0.8495(4) 0.69503(13)
C7 C 0.2919(2) 0.5586(3) 0.87860(14)
C8 C 0.2997(2) 0.6246(4) 0.86471(15)
H4 H 0.344605 0.642887 0.861199
C10 C 0.0228(3) 0.8786(4) 0.72481(14)
C11 C 0.0240(3) 0.8459(4) 0.75943(15)
H7 H 0.000126 0.866122 0.779867
C13 C 0.2255(2) 0.5327(4) 0.88476(18)
H9 H 0.219351 0.488062 0.895067
C15 C 0.0942(3) 0.7563(4) 0.73441(16)
H11 H 0.119711 0.714943 0.737536
C17 C 0.0922(3) 0.7873(4) 0.69995(15)
H12 H 0.114822 0.766385 0.679300
C18 C 0.1164(3) 0.7133(5) 0.81474(17)
H13 H 0.157412 0.712756 0.800241
C19 C 0.0596(3) 0.7489(5) 0.80143(17)
C20 C 0.1764(3) 0.6388(4) 0.86122(17)
C21 C 0.2427(3) 0.6642(4) 0.85588(17)
H14 H 0.248915 0.709173 0.846060
C22 C 0.1152(3) 0.6783(5) 0.84867(18)
C24 C 0.0540(3) 0.6774(5) 0.86911(18)
H15 H 0.052602 0.653747 0.892375
C25 C 0.0594(3) 0.7843(4) 0.76491(15)
C27 C 0.1685(3) 0.5729(5) 0.8757(2)
H17 H 0.123568 0.555009 0.879415
O5 O 0.41117(14) 0.54180(19) 0.88214(9)
O6 O 0.02623(15) 0.9401(2) 0.65556(8)
O7 O 0.08248(19) 0.8505(3) 0.63069(9)
O8 O 0.34181(15) 0.4537(2) 0.89730(10)
Al7 Al 0.39541(6) 0.38109(8) 0.91788(3)
Al8 Al 0.10459(6) 0.88109(8) 0.58212(3)
Al11 Al 0.500000 0.500000 0.88417(5)
Al13_2 Al 0.000000 1.000000 0.61583(5)
Al13_3 Al 1.000000 0.000000 0.61583(5)
Al1 Al 0.66003(6) 0.66003(6) 0.000000
H24 H 0.557653 0.795645 0.012126
H54 H 0.442347 0.204355 0.012126
Al5 Al 0.33997(6) 0.33997(6) 0.000000
O23 O 0.68667(18) 0.73415(15) 0.03176(7)
O24 O 0.59668(17) 0.63187(18) 0.03464(8)
N7 N 0.7282(8) 0.5926(9) 0.0239(4)
Al1_2 Al 0.66003(6) 0.66003(6) 1.000000
Al2 Al 0.60459(6) 0.61891(8) 0.91788(3)
O1 O 0.73415(15) 0.68667(18) 0.96824(7)
O2 O 0.68456(17) 0.6736(2) 0.91207(8)
O3 O 0.52753(13) 0.56371(16) 0.91952(8)
H1 H 0.498810 0.568526 0.940880
O4 O 0.63187(18) 0.59668(17) 0.96536(8)
H2 H 0.631380 0.549538 0.972436
C1 C 0.7355(2) 0.6846(3) 0.93297(12)
C2 C 0.8033(2) 0.6950(3) 0.91384(12)
C4 C 0.8631(2) 0.7039(3) 0.93388(14)
H3 H 0.861174 0.706288 0.960418
C9 C 0.8674(3) 0.6962(4) 0.85689(14)
H5 H 0.868752 0.693168 0.830368
H6 H 0.998463 0.920681 0.721707
C12 C 0.8052(3) 0.6910(4) 0.87519(14)
H8 H 0.763921 0.684733 0.861364
C14 C 0.9984(3) 0.7467(4) 0.82269(16)
H10 H 0.958892 0.770620 0.813975
C16 C 0.9949(3) 0.7104(5) 0.85612(17)
C23 C 0.9287(3) 0.7058(4) 0.87683(15)
C26 C 0.9263(3) 0.7095(4) 0.91586(15)
H16 H 0.967333 0.715761 0.929902
N1 N 0.5926(9) 0.7282(8) 0.9761(4)
N2 N 0.4261(14) 0.8575(14) 0.9223(7)
N3 N 0.5594(9) 0.7023(11) 0.9405(4)
C28 C 0.3367(12) 0.8597(12) 0.8574(5)
C29 C 0.3931(10) 0.8159(12) 0.8550(4)
C30 C 0.4040(8) 0.7774(10) 0.8227(5)
H18 H 0.442535 0.747492 0.821086
C31 C 0.3584(11) 0.7827(11) 0.7929(4)
C32 C 0.3020(10) 0.8265(13) 0.7953(5)
C33 C 0.2911(10) 0.8650(13) 0.8275(6)
H19 H 0.252590 0.894957 0.829185
C34 C 0.4436(14) 0.8145(13) 0.8881(7)
H20 H 0.484889 0.838613 0.877763
C35 C 0.4700(14) 0.7402(13) 0.8937(7)
H21 H 0.431190 0.707956 0.897394
H22 H 0.497261 0.724985 0.871777
C36 C 0.5154(14) 0.7439(16) 0.9290(6)
C37 C 0.320(2) 0.896(3) 0.8941(10)
H23 H 0.289085 0.935965 0.889371
C38 C 0.386(3) 0.920(2) 0.9112(18)
C39 C 0.4637(16) 0.8511(19) 0.9547(9)
C40 C 0.5183(14) 0.7993(14) 0.9535(8)
C41 C 0.5586(7) 0.7767(6) 0.9876(5)
O9 O 0.4507(17) 0.8886(17) 0.9838(11)
O10 O 0.3804(9) 0.7511(11) 0.7606(5)
O11 O 0.2646(13) 0.8331(12) 0.7637(7)
C42 C 0.3368(17) 0.6938(15) 0.7553(10)
H25 H 0.350486 0.669314 0.732455
H26 H 0.340662 0.662722 0.776775
H27 H 0.289099 0.709497 0.752827
C43 C 0.2200(14) 0.8899(14) 0.7603(10)
H28 H 0.196365 0.887849 0.736095
H29 H 0.185921 0.888711 0.780515
H30 H 0.246668 0.932593 0.761909
O12 O 0.26585(15) 0.31333(18) 0.96824(7)
O13 O 0.31544(17) 0.3264(2) 0.91207(8)
O14 O 0.47247(13) 0.43629(16) 0.91952(8)
H31 H 0.501190 0.431474 0.940880
O15 O 0.36813(18) 0.40332(17) 0.96536(8)
H32 H 0.368620 0.450462 0.972436
C44 C 0.2645(2) 0.3154(3) 0.93297(12)
C45 C 0.1967(2) 0.3050(3) 0.91384(12)
C47 C 0.1369(2) 0.2961(3) 0.93388(14)
H33 H 0.138826 0.293712 0.960418
C52 C 0.1326(3) 0.3038(4) 0.85689(14)
H35 H 0.131248 0.306832 0.830368
H36 H 0.001537 0.079319 0.721707
C55 C 0.1948(3) 0.3090(4) 0.87519(14)
H38 H 0.236079 0.315267 0.861364
C57 C 0.0016(3) 0.2533(4) 0.82269(16)
H40 H 0.041108 0.229380 0.813975
C59 C 0.0051(3) 0.2896(5) 0.85612(17)
C66 C 0.0713(3) 0.2942(4) 0.87683(15)
C69 C 0.0737(3) 0.2905(4) 0.91586(15)
H46 H 0.032667 0.284239 0.929902
N4 N 0.4074(9) 0.2718(8) 0.9761(4)
N5 N 0.5739(14) 0.1425(14) 0.9223(7)
N6 N 0.4406(9) 0.2977(11) 0.9405(4)
C71 C 0.6633(12) 0.1403(12) 0.8574(5)
C72 C 0.6069(10) 0.1841(12) 0.8550(4)
C73 C 0.5960(8) 0.2226(10) 0.8227(5)
H48 H 0.557465 0.252508 0.821086
C74 C 0.6416(11) 0.2173(11) 0.7929(4)
C75 C 0.6980(10) 0.1735(13) 0.7953(5)
C76 C 0.7089(10) 0.1350(13) 0.8275(6)
H49 H 0.747410 0.105043 0.829185
C77 C 0.5564(14) 0.1855(13) 0.8881(7)
H50 H 0.515111 0.161387 0.877763
C78 C 0.5300(14) 0.2598(13) 0.8937(7)
H51 H 0.568810 0.292044 0.897394
H52 H 0.502739 0.275015 0.871777
C79 C 0.4846(14) 0.2561(16) 0.9290(6)
C80 C 0.680(2) 0.104(3) 0.8941(10)
H53 H 0.710915 0.064035 0.889371
C81 C 0.614(3) 0.080(2) 0.9112(18)
C82 C 0.5363(16) 0.1489(19) 0.9547(9)
C83 C 0.4817(14) 0.2007(14) 0.9535(8)
C84 C 0.4414(7) 0.2233(6) 0.9876(5)
O20 O 0.5493(17) 0.1114(17) 0.9838(11)
O21 O 0.6196(9) 0.2489(11) 0.7606(5)
O22 O 0.7354(13) 0.1669(12) 0.7637(7)
C85 C 0.6632(17) 0.3062(15) 0.7553(10)
H55 H 0.649514 0.330686 0.732455
H56 H 0.659338 0.337278 0.776775
H57 H 0.710901 0.290503 0.752827
C86 C 0.7800(14) 0.1101(14) 0.7603(10)
H58 H 0.803635 0.112151 0.736095
H59 H 0.814079 0.111289 0.780515
H60 H 0.753332 0.067407 0.761909
Al5_2 Al 0.33997(6) 0.33997(6) 1.000000
Al13_4 Al 1.000000 1.000000 0.61583(5)
O26 O 0.58883(14) 0.45820(19) 0.88214(9)
O27 O 0.52623(15) 0.5599(2) 0.84444(8)
O28 O 0.47377(15) 0.4401(2) 0.84444(8)
O29 O 0.58248(19) 0.6495(3) 0.86931(9)
O30 O 0.41752(19) 0.3505(3) 0.86931(9)
O32 O 0.65819(15) 0.5463(2) 0.89730(10)
H61 H 0.29471 0.86004 0.913011
H62 H 0.415131 0.950074 0.890934
H63 H 0.375332 0.951472 0.935744
H64 H 0.584869 0.0499261 0.890934
H65 H 0.624668 0.0485283 0.935744
H66 H 0.70529 0.13996 0.913011
C46 C 0.6472(2) 0.4853(3) 0.88660(12)
C48 C 0.9453(2) 0.1183(3) 0.65760(13)
C49 C 0.9428(2) 0.1505(4) 0.69503(13)
C50 C 0.7081(2) 0.4414(3) 0.87860(14)
C51 C 0.7003(2) 0.3754(4) 0.86471(15)
H34 H 0.655395 0.357113 0.861199
C53 C 0.9772(3) 0.1214(4) 0.72481(14)
C54 C 0.9760(3) 0.1541(4) 0.75943(15)
H37 H 0.999874 0.133878 0.779867
C56 C 0.7745(2) 0.4673(4) 0.88476(18)
H39 H 0.780649 0.511938 0.895067
C58 C 0.9058(3) 0.2437(4) 0.73441(16)
H41 H 0.880289 0.285057 0.737536
C60 C 0.9078(3) 0.2127(4) 0.69995(15)
H42 H 0.885178 0.233615 0.679300
C61 C 0.8836(3) 0.2867(5) 0.81474(17)
H43 H 0.842588 0.287244 0.800241
C62 C 0.9404(3) 0.2511(5) 0.80143(17)
C63 C 0.8236(3) 0.3612(4) 0.86122(17)
C64 C 0.7573(3) 0.3358(4) 0.85588(17)
H44 H 0.751085 0.290827 0.846060
C65 C 0.8848(3) 0.3217(5) 0.84867(18)
C67 C 0.9460(3) 0.3226(5) 0.86911(18)
H45 H 0.947398 0.346253 0.892375
C68 C 0.9406(3) 0.2157(4) 0.76491(15)
C70 C 0.8315(3) 0.4271(5) 0.8757(2)
H47 H 0.876432 0.444991 0.879415
O17 O 0.97377(15) 0.0599(2) 0.65556(8)
O18 O 0.91752(19) 0.1495(3) 0.63069(9)
Al9 Al 0.89541(6) 0.11891(8) 0.58212(3)
Al11_2 Al 0.000000 0.000000 0.38417(5)
H9_2 H 0.011938 0.719351 0.395067
O8_2 O 0.0463(2) 0.84181(15) 0.39730(10)
H31_2 H 0.068526 0.001190 0.440880
N5_2 N 0.3575(14) 0.0739(14) 0.4223(7)
C71_2 C 0.3597(12) 0.1633(12) 0.3574(5)
C72_2 C 0.3159(12) 0.1069(10) 0.3550(4)
C73_2 C 0.2774(10) 0.0960(8) 0.3227(5)
H48_2 H 0.247492 0.057465 0.321086
C74_2 C 0.2827(11) 0.1416(11) 0.2929(4)
C75_2 C 0.3265(13) 0.1980(10) 0.2953(5)
C76_2 C 0.3650(13) 0.2089(10) 0.3275(6)
H49_2 H 0.394957 0.247410 0.329185
C77_2 C 0.3145(13) 0.0564(14) 0.3881(7)
H50_2 H 0.338613 0.015111 0.377763
C78_2 C 0.2402(13) 0.0300(14) 0.3937(7)
H51_2 H 0.207956 0.068810 0.397394
H52_2 H 0.224985 0.002739 0.371777
C80_2 C 0.396(3) 0.180(2) 0.3941(10)
H53_2 H 0.435965 0.210915 0.389371
C81_2 C 0.420(2) 0.114(3) 0.4112(18)
C82_2 C 0.3511(19) 0.0363(16) 0.4547(9)
O20_2 O 0.3886(17) 0.0493(17) 0.4838(11)
O21_2 O 0.2511(11) 0.1196(9) 0.2606(5)
O22_2 O 0.3331(12) 0.2354(13) 0.2637(7)
C85_2 C 0.1938(15) 0.1632(17) 0.2553(10)
H55_2 H 0.169314 0.149514 0.232455
H56_2 H 0.162722 0.159338 0.276775
H57_2 H 0.209497 0.210901 0.252827
C86_2 C 0.3899(14) 0.2800(14) 0.2603(10)
H58_2 H 0.387849 0.303635 0.236095
H59_2 H 0.388711 0.314079 0.280515
H60_2 H 0.432593 0.253332 0.261909
Al7_2 Al 0.11891(8) 0.89541(6) 0.41788(3)
Al11_3 Al -0.000000 1.000000 0.38417(5)
O26_2 O 0.04180(19) 0.08883(14) 0.38214(9)
H64_2 H 0.450074 0.0848694 0.390934
H65_2 H 0.451472 0.124668 0.435744
H66_2 H 0.36004 0.20529 0.413011
O12_2 O 0.18667(18) 0.76585(15) 0.46824(7)
O13_2 O 0.1736(2) 0.81544(17) 0.41207(8)
O14_2 O 0.06371(16) 0.97247(13) 0.41952(8)
O15_2 O 0.09668(17) 0.86813(18) 0.46536(8)
H32_2 H 0.049538 0.868620 0.472436
C44_2 C 0.1846(3) 0.7645(2) 0.43297(12)
C45_2 C 0.1950(3) 0.6967(2) 0.41384(12)
C46_2 C 0.0147(3) 0.1472(2) 0.38660(12)
C47_2 C 0.2039(3) 0.6369(2) 0.43388(14)
H33_2 H 0.206288 0.638826 0.460418
C48_2 C 0.3817(3) 0.4453(2) 0.15760(13)
C49_2 C 0.3495(4) 0.4428(2) 0.19503(13)
C50_2 C 0.0586(3) 0.2081(2) 0.37860(14)
C51_2 C 0.1246(4) 0.2003(2) 0.36471(15)
H34_2 H 0.142887 0.155395 0.361199
C52_2 C 0.1962(4) 0.6326(3) 0.35689(14)
H35_2 H 0.193168 0.631248 0.330368
C53_2 C 0.3786(4) 0.4772(3) 0.22481(14)
H36_2 H 0.420681 0.501537 0.221707
C54_2 C 0.3459(4) 0.4760(3) 0.25943(15)
H37_2 H 0.366122 0.499874 0.279867
C55_2 C 0.1910(4) 0.6948(3) 0.37519(14)
H38_2 H 0.184733 0.736079 0.361364
C56_2 C 0.0327(4) 0.2745(2) 0.38476(18)
C57_2 C 0.2467(4) 0.5016(3) 0.32269(16)
H40_2 H 0.270620 0.541108 0.313975
C58_2 C 0.2563(4) 0.4058(3) 0.23441(16)
H41_2 H 0.214943 0.380289 0.237536
C59_2 C 0.2104(5) 0.5051(3) 0.35612(17)
C60_2 C 0.2873(4) 0.4078(3) 0.19995(15)
H42_2 H 0.266385 0.385178 0.179300
C61_2 C 0.2133(5) 0.3836(3) 0.31474(17)
H43_2 H 0.212756 0.342588 0.300241
C62_2 C 0.2489(5) 0.4404(3) 0.30143(17)
C63_2 C 0.1388(4) 0.3236(3) 0.36122(17)
C64_2 C 0.1642(4) 0.2573(3) 0.35588(17)
H44_2 H 0.209173 0.251085 0.346060
C65_2 C 0.1783(5) 0.3848(3) 0.34867(18)
C66_2 C 0.2058(4) 0.5713(3) 0.37683(15)
C67_2 C 0.1774(5) 0.4460(3) 0.36911(18)
H45_2 H 0.153747 0.447398 0.392375
C68_2 C 0.2843(4) 0.4406(3) 0.26491(15)
C69_2 C 0.2095(4) 0.5737(3) 0.41586(15)
H46_2 H 0.215761 0.532667 0.429902
C70_2 C 0.0729(5) 0.3315(3) 0.3757(2)
H47_2 H 0.055009 0.376432 0.379415
O17_2 O 0.4401(2) 0.47377(15) 0.15556(8)
O18_2 O 0.3505(3) 0.41752(19) 0.13069(9)
N4_2 N 0.2282(8) 0.9074(9) 0.4761(4)
N6_2 N 0.2023(11) 0.9406(9) 0.4405(4)
C79_2 C 0.2439(16) 0.9846(14) 0.4290(6)
C83_2 C 0.2993(14) 0.9817(14) 0.4535(8)
C84_2 C 0.2767(6) 0.9414(7) 0.4876(5)
H54_2 H 0.295645 0.942347 0.512126
Al5_3 Al 0.16003(6) 0.83997(6) 0.500000
Al9_2 Al 0.38109(8) 0.39541(6) 0.08212(3)
Al12 Al 0.500000 0.500000 0.11583(5)
O28_2 O 0.0599(2) 0.97377(15) 0.34444(8)
O30_2 O 0.1495(3) 0.91752(19) 0.36931(9)
Al11_4 Al 1.000000 0.000000 0.38417(5)
Al1_3 Al 0.83997(6) 0.16003(6) 0.500000
Al2_2 Al 0.88109(8) 0.10459(6) 0.41788(3)
O1_2 O 0.81333(18) 0.23415(15) 0.46824(7)
O2_2 O 0.8264(2) 0.18456(17) 0.41207(8)
O3_2 O 0.93629(16) 0.02753(13) 0.41952(8)
O4_2 O 0.90332(17) 0.13187(18) 0.46536(8)
H2_2 H 0.950462 0.131380 0.472436
C1_2 C 0.8154(3) 0.2355(2) 0.43297(12)
C2_2 C 0.8050(3) 0.3033(2) 0.41384(12)
C3_2 C 0.9853(3) 0.8528(2) 0.38660(12)
C4_2 C 0.7961(3) 0.3631(2) 0.43388(14)
H3_2 H 0.793712 0.361174 0.460418
C5_2 C 0.6183(3) 0.5547(2) 0.15760(13)
C6_2 C 0.6505(4) 0.5572(2) 0.19503(13)
C7_2 C 0.9414(3) 0.7919(2) 0.37860(14)
C8_2 C 0.8754(4) 0.7997(2) 0.36471(15)
H4_2 H 0.857113 0.844605 0.361199
C9_2 C 0.8038(4) 0.3674(3) 0.35689(14)
H5_2 H 0.806832 0.368752 0.330368
C10_2 C 0.6214(4) 0.5228(3) 0.22481(14)
H6_2 H 0.579319 0.498463 0.221707
C11_2 C 0.6541(4) 0.5240(3) 0.25943(15)
H7_2 H 0.633878 0.500126 0.279867
C12_2 C 0.8090(4) 0.3052(3) 0.37519(14)
H8_2 H 0.815267 0.263921 0.361364
C13_2 C 0.9673(4) 0.7255(2) 0.38476(18)
C14_2 C 0.7533(4) 0.4984(3) 0.32269(16)
H10_2 H 0.729380 0.458892 0.313975
C15_2 C 0.7437(4) 0.5942(3) 0.23441(16)
H11_2 H 0.785057 0.619711 0.237536
C16_2 C 0.7896(5) 0.4949(3) 0.35612(17)
C17_2 C 0.7127(4) 0.5922(3) 0.19995(15)
H12_2 H 0.733615 0.614822 0.179300
C18_2 C 0.7867(5) 0.6164(3) 0.31474(17)
H13_2 H 0.787244 0.657412 0.300241
C19_2 C 0.7511(5) 0.5596(3) 0.30143(17)
C20_2 C 0.8612(4) 0.6764(3) 0.36122(17)
C21_2 C 0.8358(4) 0.7427(3) 0.35588(17)
H14_2 H 0.790827 0.748915 0.346060
C22_2 C 0.8217(5) 0.6152(3) 0.34867(18)
C23_2 C 0.7942(4) 0.4287(3) 0.37683(15)
C24_2 C 0.8226(5) 0.5540(3) 0.36911(18)
H15_2 H 0.846253 0.552602 0.392375
C25_2 C 0.7157(4) 0.5594(3) 0.26491(15)
C26_2 C 0.7905(4) 0.4263(3) 0.41586(15)
H16_2 H 0.784239 0.467333 0.429902
C27_2 C 0.9271(5) 0.6685(3) 0.3757(2)
H17_2 H 0.944991 0.623568 0.379415
O5_2 O 0.95820(19) 0.91117(14) 0.38214(9)
O6_2 O 0.5599(2) 0.52623(15) 0.15556(8)
O7_2 O 0.6495(3) 0.58248(19) 0.13069(9)
N1_2 N 0.7718(8) 0.0926(9) 0.4761(4)
N3_2 N 0.7977(11) 0.0594(9) 0.4405(4)
C36_2 C 0.7561(16) 0.0154(14) 0.4290(6)
C40_2 C 0.7007(14) 0.0183(14) 0.4535(8)
C41_2 C 0.7233(6) 0.0586(7) 0.4876(5)
H24_2 H 0.704355 0.057653 0.512126
Al8_2 Al 0.61891(8) 0.60459(6) 0.08212(3)
Al11_5 Al 1.000000 1.000000 0.38417(5)
O23_2 O 0.76585(15) 0.18667(18) 0.53176(7)
O24_2 O 0.86813(18) 0.09668(17) 0.53464(8)
O27_2 O 0.9401(2) 0.02623(15) 0.34444(8)
O29_2 O 0.8505(3) 0.08248(19) 0.36931(9)
O32_2 O 0.9537(2) 0.15819(15) 0.39730(10)
N7_2 N 0.9074(9) 0.2282(8) 0.5239(4)
H1_2 H 0.931474 0.998810 0.440880
N2_2 N 0.6425(14) 0.9261(14) 0.4223(7)
C28_2 C 0.6403(12) 0.8367(12) 0.3574(5)
C29_2 C 0.6841(12) 0.8931(10) 0.3550(4)
C30_2 C 0.7226(10) 0.9040(8) 0.3227(5)
H18_2 H 0.752508 0.942535 0.321086
C31_2 C 0.7173(11) 0.8584(11) 0.2929(4)
C32_2 C 0.6735(13) 0.8020(10) 0.2953(5)
C33_2 C 0.6350(13) 0.7911(10) 0.3275(6)
H19_2 H 0.605043 0.752590 0.329185
C34_2 C 0.6855(13) 0.9436(14) 0.3881(7)
H20_2 H 0.661387 0.984889 0.377763
C35_2 C 0.7598(13) 0.9700(14) 0.3937(7)
H21_2 H 0.792044 0.931190 0.397394
H22_2 H 0.775015 0.997261 0.371777
C37_2 C 0.604(3) 0.820(2) 0.3941(10)
H23_2 H 0.564035 0.789085 0.389371
C38_2 C 0.580(2) 0.886(3) 0.4112(18)
C39_2 C 0.6489(19) 0.9637(16) 0.4547(9)
O9_2 O 0.6114(17) 0.9507(17) 0.4838(11)
O10_2 O 0.7489(11) 0.8804(9) 0.2606(5)
O11_2 O 0.6669(12) 0.7646(13) 0.2637(7)
C42_2 C 0.8062(15) 0.8368(17) 0.2553(10)
H25_2 H 0.830686 0.850486 0.232455
H26_2 H 0.837278 0.840662 0.276775
H27_2 H 0.790503 0.789099 0.252827
C43_2 C 0.6101(14) 0.7200(14) 0.2603(10)
H28_2 H 0.612151 0.696365 0.236095
H29_2 H 0.611289 0.685921 0.280515
H30_2 H 0.567407 0.746668 0.261909
H39_2 H 0.988062 0.280649 0.395067
H61_2 H 0.63996 0.79471 0.413011
H62_2 H 0.549926 0.915131 0.390934
H63_2 H 0.548528 0.875332 0.435744
O23_3 O 0.31333(18) 0.26585(15) 0.03176(7)
O24_3 O 0.40332(17) 0.36813(18) 0.03464(8)
N7_3 N 0.2718(8) 0.4074(9) 0.0239(4)
O23_4 O 0.23415(15) 0.81333(18) 0.53176(7)
O24_4 O 0.13187(18) 0.90332(17) 0.53464(8)
N7_4 N 0.0926(9) 0.7718(8) 0.5239(4)
H9_3 H 0.719351 0.011938 0.604933
O8_3 O 0.84181(15) 0.0463(2) 0.60270(10)
H31_3 H 0.001190 0.068526 0.559120
N5_3 N 0.0739(14) 0.3575(14) 0.5777(7)
C71_3 C 0.1633(12) 0.3597(12) 0.6426(5)
C72_3 C 0.1069(10) 0.3159(12) 0.6450(4)
C73_3 C 0.0960(8) 0.2774(10) 0.6773(5)
H48_3 H 0.057465 0.247492 0.678914
C74_3 C 0.1416(11) 0.2827(11) 0.7071(4)
C75_3 C 0.1980(10) 0.3265(13) 0.7047(5)
C76_3 C 0.2089(10) 0.3650(13) 0.6725(6)
H49_3 H 0.247410 0.394957 0.670815
C77_3 C 0.0564(14) 0.3145(13) 0.6119(7)
H50_3 H 0.015111 0.338613 0.622237
C78_3 C 0.0300(14) 0.2402(13) 0.6063(7)
H51_3 H 0.068810 0.207956 0.602606
H52_3 H 0.002739 0.224985 0.628223
C80_3 C 0.180(2) 0.396(3) 0.6059(10)
H53_3 H 0.210915 0.435965 0.610629
C81_3 C 0.114(3) 0.420(2) 0.5888(18)
C82_3 C 0.0363(16) 0.3511(19) 0.5453(9)
O20_3 O 0.0493(17) 0.3886(17) 0.5162(11)
O21_3 O 0.1196(9) 0.2511(11) 0.7394(5)
O22_3 O 0.2354(13) 0.3331(12) 0.7363(7)
C85_3 C 0.1632(17) 0.1938(15) 0.7447(10)
H55_3 H 0.149514 0.169314 0.767545
H56_3 H 0.159338 0.162722 0.723225
H57_3 H 0.210901 0.209497 0.747173
C86_3 C 0.2800(14) 0.3899(14) 0.7397(10)
H58_3 H 0.303635 0.387849 0.763905
H59_3 H 0.314079 0.388711 0.719485
H60_3 H 0.253332 0.432593 0.738091
O26_3 O 0.08883(14) 0.04180(19) 0.61786(9)
H64_3 H 0.0848694 0.450074 0.609066
H65_3 H 0.124668 0.451472 0.564256
H66_3 H 0.20529 0.36004 0.586989
O2_3 O 0.18456(17) 0.8264(2) 0.58793(8)
O3_3 O 0.02753(13) 0.93629(16) 0.58048(8)
H2_3 H 0.131380 0.950462 0.527564
C1_3 C 0.2355(2) 0.8154(3) 0.56703(12)
C2_3 C 0.3033(2) 0.8050(3) 0.58616(12)
C3_3 C 0.8528(2) 0.9853(3) 0.61340(12)
C4_3 C 0.3631(2) 0.7961(3) 0.56612(14)
H3_3 H 0.361174 0.793712 0.539582
C5_3 C 0.5547(2) 0.6183(3) 0.84240(13)
C6_3 C 0.5572(2) 0.6505(4) 0.80497(13)
C7_3 C 0.7919(2) 0.9414(3) 0.62140(14)
C8_3 C 0.7997(2) 0.8754(4) 0.63529(15)
H4_3 H 0.844605 0.857113 0.638801
C9_3 C 0.3674(3) 0.8038(4) 0.64311(14)
H5_3 H 0.368752 0.806832 0.669632
C10_3 C 0.5228(3) 0.6214(4) 0.77519(14)
H6_3 H 0.498463 0.579319 0.778293
C11_3 C 0.5240(3) 0.6541(4) 0.74057(15)
H7_3 H 0.500126 0.633878 0.720133
C12_3 C 0.3052(3) 0.8090(4) 0.62481(14)
H8_3 H 0.263921 0.815267 0.638636
C13_3 C 0.7255(2) 0.9673(4) 0.61524(18)
C14_3 C 0.4984(3) 0.7533(4) 0.67731(16)
H10_3 H 0.458892 0.729380 0.686025
C15_3 C 0.5942(3) 0.7437(4) 0.76559(16)
H11_3 H 0.619711 0.785057 0.762464
C16_3 C 0.4949(3) 0.7896(5) 0.64388(17)
C17_3 C 0.5922(3) 0.7127(4) 0.80005(15)
H12_3 H 0.614822 0.733615 0.820700
C18_3 C 0.6164(3) 0.7867(5) 0.68526(17)
H13_3 H 0.657412 0.787244 0.699759
C19_3 C 0.5596(3) 0.7511(5) 0.69857(17)
C20_3 C 0.6764(3) 0.8612(4) 0.63878(17)
C21_3 C 0.7427(3) 0.8358(4) 0.64412(17)
H14_3 H 0.748915 0.790827 0.653940
C22_3 C 0.6152(3) 0.8217(5) 0.65133(18)
C23_3 C 0.4287(3) 0.7942(4) 0.62317(15)
C24_3 C 0.5540(3) 0.8226(5) 0.63089(18)
H15_3 H 0.552602 0.846253 0.607625
C25_3 C 0.5594(3) 0.7157(4) 0.73509(15)
C26_3 C 0.4263(3) 0.7905(4) 0.58414(15)
H16_3 H 0.467333 0.784239 0.570098
C27_3 C 0.6685(3) 0.9271(5) 0.6243(2)
H17_3 H 0.623568 0.944991 0.620585
O5_3 O 0.91117(14) 0.95820(19) 0.61786(9)
N3_3 N 0.0594(9) 0.7977(11) 0.5595(4)
C36_3 C 0.0154(14) 0.7561(16) 0.5710(6)
C40_3 C 0.0183(14) 0.7007(14) 0.5465(8)
C41_3 C 0.0586(7) 0.7233(6) 0.5124(5)
H24_3 H 0.057653 0.704355 0.487874
O32_3 O 0.15819(15) 0.9537(2) 0.60270(10)
O13_3 O 0.81544(17) 0.1736(2) 0.58793(8)
O14_3 O 0.97247(13) 0.06371(16) 0.58048(8)
H32_3 H 0.868620 0.049538 0.527564
C44_3 C 0.7645(2) 0.1846(3) 0.56703(12)
C45_3 C 0.6967(2) 0.1950(3) 0.58616(12)
C46_3 C 0.1472(2) 0.0147(3) 0.61340(12)
C47_3 C 0.6369(2) 0.2039(3) 0.56612(14)
H33_3 H 0.638826 0.206288 0.539582
C48_3 C 0.4453(2) 0.3817(3) 0.84240(13)
C49_3 C 0.4428(2) 0.3495(4) 0.80497(13)
C50_3 C 0.2081(2) 0.0586(3) 0.62140(14)
C51_3 C 0.2003(2) 0.1246(4) 0.63529(15)
H34_3 H 0.155395 0.142887 0.638801
C52_3 C 0.6326(3) 0.1962(4) 0.64311(14)
H35_3 H 0.631248 0.193168 0.669632
C53_3 C 0.4772(3) 0.3786(4) 0.77519(14)
H36_3 H 0.501537 0.420681 0.778293
C54_3 C 0.4760(3) 0.3459(4) 0.74057(15)
H37_3 H 0.499874 0.366122 0.720133
C55_3 C 0.6948(3) 0.1910(4) 0.62481(14)
H38_3 H 0.736079 0.184733 0.638636
C56_3 C 0.2745(2) 0.0327(4) 0.61524(18)
C57_3 C 0.5016(3) 0.2467(4) 0.67731(16)
H40_3 H 0.541108 0.270620 0.686025
C58_3 C 0.4058(3) 0.2563(4) 0.76559(16)
H41_3 H 0.380289 0.214943 0.762464
C59_3 C 0.5051(3) 0.2104(5) 0.64388(17)
C60_3 C 0.4078(3) 0.2873(4) 0.80005(15)
H42_3 H 0.385178 0.266385 0.820700
C61_3 C 0.3836(3) 0.2133(5) 0.68526(17)
H43_3 H 0.342588 0.212756 0.699759
C62_3 C 0.4404(3) 0.2489(5) 0.69857(17)
C63_3 C 0.3236(3) 0.1388(4) 0.63878(17)
C64_3 C 0.2573(3) 0.1642(4) 0.64412(17)
H44_3 H 0.251085 0.209173 0.653940
C65_3 C 0.3848(3) 0.1783(5) 0.65133(18)
C66_3 C 0.5713(3) 0.2058(4) 0.62317(15)
C67_3 C 0.4460(3) 0.1774(5) 0.63089(18)
H45_3 H 0.447398 0.153747 0.607625
C68_3 C 0.4406(3) 0.2843(4) 0.73509(15)
C69_3 C 0.5737(3) 0.2095(4) 0.58414(15)
H46_3 H 0.532667 0.215761 0.570098
C70_3 C 0.3315(3) 0.0729(5) 0.6243(2)
H47_3 H 0.376432 0.055009 0.620585
N6_3 N 0.9406(9) 0.2023(11) 0.5595(4)
C79_3 C 0.9846(14) 0.2439(16) 0.5710(6)
C83_3 C 0.9817(14) 0.2993(14) 0.5465(8)
C84_3 C 0.9414(7) 0.2767(6) 0.5124(5)
H54_3 H 0.942347 0.295645 0.487874
H1_3 H 0.998810 0.931474 0.559120
N2_3 N 0.9261(14) 0.6425(14) 0.5777(7)
C28_3 C 0.8367(12) 0.6403(12) 0.6426(5)
C29_3 C 0.8931(10) 0.6841(12) 0.6450(4)
C30_3 C 0.9040(8) 0.7226(10) 0.6773(5)
H18_3 H 0.942535 0.752508 0.678914
C31_3 C 0.8584(11) 0.7173(11) 0.7071(4)
C32_3 C 0.8020(10) 0.6735(13) 0.7047(5)
C33_3 C 0.7911(10) 0.6350(13) 0.6725(6)
H19_3 H 0.752590 0.605043 0.670815
C34_3 C 0.9436(14) 0.6855(13) 0.6119(7)
H20_3 H 0.984889 0.661387 0.622237
C35_3 C 0.9700(14) 0.7598(13) 0.6063(7)
H21_3 H 0.931190 0.792044 0.602606
H22_3 H 0.997261 0.775015 0.628223
C37_3 C 0.820(2) 0.604(3) 0.6059(10)
H23_3 H 0.789085 0.564035 0.610629
C38_3 C 0.886(3) 0.580(2) 0.5888(18)
C39_3 C 0.9637(16) 0.6489(19) 0.5453(9)
O9_3 O 0.9507(17) 0.6114(17) 0.5162(11)
O10_3 O 0.8804(9) 0.7489(11) 0.7394(5)
O11_3 O 0.7646(13) 0.6669(12) 0.7363(7)
C42_3 C 0.8368(17) 0.8062(15) 0.7447(10)
H25_3 H 0.850486 0.830686 0.767545
H26_3 H 0.840662 0.837278 0.723225
H27_3 H 0.789099 0.790503 0.747173
C43_3 C 0.7200(14) 0.6101(14) 0.7397(10)
H28_3 H 0.696365 0.612151 0.763905
H29_3 H 0.685921 0.611289 0.719485
H30_3 H 0.746668 0.567407 0.738091
H39_3 H 0.280649 0.988062 0.604933
H61_3 H 0.79471 0.63996 0.586989
H62_3 H 0.915131 0.549926 0.609066
H63_3 H 0.875332 0.548528 0.564256
C3_4 C 0.5147(3) 0.3528(2) 0.11340(12)
C5_4 C 0.8817(3) 0.0547(2) 0.34240(13)
C6_4 C 0.8495(4) 0.0572(2) 0.30497(13)
C7_4 C 0.5586(3) 0.2919(2) 0.12140(14)
C8_4 C 0.6246(4) 0.2997(2) 0.13529(15)
H4_4 H 0.642887 0.344605 0.138801
C10_4 C 0.8786(4) 0.0228(3) 0.27519(14)
C11_4 C 0.8459(4) 0.0240(3) 0.24057(15)
H7_4 H 0.866122 0.000126 0.220133
C13_4 C 0.5327(4) 0.2255(2) 0.11524(18)
H9_4 H 0.488062 0.219351 0.104933
C15_4 C 0.7563(4) 0.0942(3) 0.26559(16)
H11_4 H 0.714943 0.119711 0.262464
C17_4 C 0.7873(4) 0.0922(3) 0.30005(15)
H12_4 H 0.766385 0.114822 0.320700
C18_4 C 0.7133(5) 0.1164(3) 0.18526(17)
H13_4 H 0.712756 0.157412 0.199759
C19_4 C 0.7489(5) 0.0596(3) 0.19857(17)
C20_4 C 0.6388(4) 0.1764(3) 0.13878(17)
C21_4 C 0.6642(4) 0.2427(3) 0.14412(17)
H14_4 H 0.709173 0.248915 0.153940
C22_4 C 0.6783(5) 0.1152(3) 0.15133(18)
C24_4 C 0.6774(5) 0.0540(3) 0.13089(18)
H15_4 H 0.653747 0.052602 0.107625
C25_4 C 0.7843(4) 0.0594(3) 0.23509(15)
C27_4 C 0.5729(5) 0.1685(3) 0.1243(2)
H17_4 H 0.555009 0.123568 0.120585
O5_4 O 0.54180(19) 0.41117(14) 0.11786(9)
O8_4 O 0.4537(2) 0.34181(15) 0.10270(10)
O2_4 O 0.6736(2) 0.68456(17) 0.08793(8)
O3_4 O 0.56371(16) 0.52753(13) 0.08048(8)
H1_4 H 0.568526 0.498810 0.059120
H2_4 H 0.549538 0.631380 0.027564
C1_4 C 0.6846(3) 0.7355(2) 0.06703(12)
C2_4 C 0.6950(3) 0.8033(2) 0.08616(12)
C4_4 C 0.7039(3) 0.8631(2) 0.06612(14)
H3_4 H 0.706288 0.861174 0.039582
C9_4 C 0.6962(4) 0.8674(3) 0.14311(14)
H5_4 H 0.693168 0.868752 0.169632
H6_4 H 0.920681 0.998463 0.278293
C12_4 C 0.6910(4) 0.8052(3) 0.12481(14)
H8_4 H 0.684733 0.763921 0.138636
C14_4 C 0.7467(4) 0.9984(3) 0.17731(16)
H10_4 H 0.770620 0.958892 0.186025
C16_4 C 0.7104(5) 0.9949(3) 0.14388(17)
C23_4 C 0.7058(4) 0.9287(3) 0.12317(15)
C26_4 C 0.7095(4) 0.9263(3) 0.08414(15)
H16_4 H 0.715761 0.967333 0.070098
N2_4 N 0.8575(14) 0.4261(14) 0.0777(7)
N3_4 N 0.7023(11) 0.5594(9) 0.0595(4)
C28_4 C 0.8597(12) 0.3367(12) 0.1426(5)
C29_4 C 0.8159(12) 0.3931(10) 0.1450(4)
C30_4 C 0.7774(10) 0.4040(8) 0.1773(5)
H18_4 H 0.747492 0.442535 0.178914
C31_4 C 0.7827(11) 0.3584(11) 0.2071(4)
C32_4 C 0.8265(13) 0.3020(10) 0.2047(5)
C33_4 C 0.8650(13) 0.2911(10) 0.1725(6)
H19_4 H 0.894957 0.252590 0.170815
C34_4 C 0.8145(13) 0.4436(14) 0.1119(7)
H20_4 H 0.838613 0.484889 0.122237
C35_4 C 0.7402(13) 0.4700(14) 0.1063(7)
H21_4 H 0.707956 0.431190 0.102606
H22_4 H 0.724985 0.497261 0.128223
C36_4 C 0.7439(16) 0.5154(14) 0.0710(6)
C37_4 C 0.896(3) 0.320(2) 0.1059(10)
H23_4 H 0.935965 0.289085 0.110629
C38_4 C 0.920(2) 0.386(3) 0.0888(18)
C39_4 C 0.8511(19) 0.4637(16) 0.0453(9)
C40_4 C 0.7993(14) 0.5183(14) 0.0465(8)
C41_4 C 0.7767(6) 0.5586(7) 0.0124(5)
O9_4 O 0.8886(17) 0.4507(17) 0.0162(11)
O10_4 O 0.7511(11) 0.3804(9) 0.2394(5)
O11_4 O 0.8331(12) 0.2646(13) 0.2363(7)
C42_4 C 0.6938(15) 0.3368(17) 0.2447(10)
H25_4 H 0.669314 0.350486 0.267545
H26_4 H 0.662722 0.340662 0.223225
H27_4 H 0.709497 0.289099 0.247173
C43_4 C 0.8899(14) 0.2200(14) 0.2397(10)
H28_4 H 0.887849 0.196365 0.263905
H29_4 H 0.888711 0.185921 0.219485
H30_4 H 0.932593 0.246668 0.238091
O13_4 O 0.3264(2) 0.31544(17) 0.08793(8)
O14_4 O 0.43629(16) 0.47247(13) 0.08048(8)
H31_4 H 0.431474 0.501190 0.059120
H32_4 H 0.450462 0.368620 0.027564
C44_4 C 0.3154(3) 0.2645(2) 0.06703(12)
C45_4 C 0.3050(3) 0.1967(2) 0.08616(12)
C47_4 C 0.2961(3) 0.1369(2) 0.06612(14)
H33_4 H 0.293712 0.138826 0.039582
C52_4 C 0.3038(4) 0.1326(3) 0.14311(14)
H35_4 H 0.306832 0.131248 0.169632
H36_4 H 0.079319 0.001537 0.278293
C55_4 C 0.3090(4) 0.1948(3) 0.12481(14)
H38_4 H 0.315267 0.236079 0.138636
C57_4 C 0.2533(4) 0.0016(3) 0.17731(16)
H40_4 H 0.229380 0.041108 0.186025
C59_4 C 0.2896(5) 0.0051(3) 0.14388(17)
C66_4 C 0.2942(4) 0.0713(3) 0.12317(15)
C69_4 C 0.2905(4) 0.0737(3) 0.08414(15)
H46_4 H 0.284239 0.032667 0.070098
N5_4 N 0.1425(14) 0.5739(14) 0.0777(7)
N6_4 N 0.2977(11) 0.4406(9) 0.0595(4)
C71_4 C 0.1403(12) 0.6633(12) 0.1426(5)
C72_4 C 0.1841(12) 0.6069(10) 0.1450(4)
C73_4 C 0.2226(10) 0.5960(8) 0.1773(5)
H48_4 H 0.252508 0.557465 0.178914
C74_4 C 0.2173(11) 0.6416(11) 0.2071(4)
C75_4 C 0.1735(13) 0.6980(10) 0.2047(5)
C76_4 C 0.1350(13) 0.7089(10) 0.1725(6)
H49_4 H 0.105043 0.747410 0.170815
C77_4 C 0.1855(13) 0.5564(14) 0.1119(7)
H50_4 H 0.161387 0.515111 0.122237
C78_4 C 0.2598(13) 0.5300(14) 0.1063(7)
H51_4 H 0.292044 0.568810 0.102606
H52_4 H 0.275015 0.502739 0.128223
C79_4 C 0.2561(16) 0.4846(14) 0.0710(6)
C80_4 C 0.104(3) 0.680(2) 0.1059(10)
H53_4 H 0.064035 0.710915 0.110629
C81_4 C 0.080(2) 0.614(3) 0.0888(18)
C82_4 C 0.1489(19) 0.5363(16) 0.0453(9)
C83_4 C 0.2007(14) 0.4817(14) 0.0465(8)
C84_4 C 0.2233(6) 0.4414(7) 0.0124(5)
O20_4 O 0.1114(17) 0.5493(17) 0.0162(11)
O21_4 O 0.2489(11) 0.6196(9) 0.2394(5)
O22_4 O 0.1669(12) 0.7354(13) 0.2363(7)
C85_4 C 0.3062(15) 0.6632(17) 0.2447(10)
H55_4 H 0.330686 0.649514 0.267545
H56_4 H 0.337278 0.659338 0.223225
H57_4 H 0.290503 0.710901 0.247173
C86_4 C 0.1101(14) 0.7800(14) 0.2397(10)
H58_4 H 0.112151 0.803635 0.263905
H59_4 H 0.111289 0.814079 0.219485
H60_4 H 0.067407 0.753332 0.238091
O26_4 O 0.45820(19) 0.58883(14) 0.11786(9)
O32_4 O 0.5463(2) 0.65819(15) 0.10270(10)
H61_4 H 0.86004 0.29471 0.0869889
H62_4 H 0.950074 0.415131 0.109066
H63_4 H 0.951472 0.375332 0.064256
H64_4 H 0.0499261 0.584869 0.109066
H65_4 H 0.0485283 0.624668 0.064256
H66_4 H 0.13996 0.70529 0.0869889
H24_4 H 0.795645 0.557653 0.987874
H54_4 H 0.204355 0.442347 0.987874
C46_4 C 0.4853(3) 0.6472(2) 0.11340(12)
C48_4 C 0.1183(3) 0.9453(2) 0.34240(13)
C49_4 C 0.1505(4) 0.9428(2) 0.30497(13)
C50_4 C 0.4414(3) 0.7081(2) 0.12140(14)
C51_4 C 0.3754(4) 0.7003(2) 0.13529(15)
H34_4 H 0.357113 0.655395 0.138801
C53_4 C 0.1214(4) 0.9772(3) 0.27519(14)
C54_4 C 0.1541(4) 0.9760(3) 0.24057(15)
H37_4 H 0.133878 0.999874 0.220133
C56_4 C 0.4673(4) 0.7745(2) 0.11524(18)
H39_4 H 0.511938 0.780649 0.104933
C58_4 C 0.2437(4) 0.9058(3) 0.26559(16)
H41_4 H 0.285057 0.880289 0.262464
C60_4 C 0.2127(4) 0.9078(3) 0.30005(15)
H42_4 H 0.233615 0.885178 0.320700
C61_4 C 0.2867(5) 0.8836(3) 0.18526(17)
H43_4 H 0.287244 0.842588 0.199759
C62_4 C 0.2511(5) 0.9404(3) 0.19857(17)
C63_4 C 0.3612(4) 0.8236(3) 0.13878(17)
C64_4 C 0.3358(4) 0.7573(3) 0.14412(17)
H44_4 H 0.290827 0.751085 0.153940
C65_4 C 0.3217(5) 0.8848(3) 0.15133(18)
C67_4 C 0.3226(5) 0.9460(3) 0.13089(18)
H45_4 H 0.346253 0.947398 0.107625
C68_4 C 0.2157(4) 0.9406(3) 0.23509(15)
C70_4 C 0.4271(5) 0.8315(3) 0.1243(2)
H47_4 H 0.444991 0.876432 0.120585
loop_
_geom_bond_atom_site_label_1
_geom_bond_atom_site_label_2
_geom_bond_site_symmetry_1
_geom_bond_site_symmetry_2
C3 C7 1_555 1_555
C5 C6 1_555 1_555
C6 C10 1_555 1_555
C7 C8 1_555 1_555
C8 H4 1_555 1_555
C11 C10 1_555 1_555
H7 C11 1_555 1_555
C13 C7 1_555 1_555
H9 C13 1_555 1_555
C15 H11 1_555 1_555
C17 C6 1_555 1_555
H12 C17 1_555 1_555
C18 H13 1_555 1_555
C20 C21 1_555 1_555
C21 C8 1_555 1_555
H14 C21 1_555 1_555
C22 C18 1_555 1_555
H15 C24 1_555 1_555
C25 C11 1_555 1_555
C27 C13 1_555 1_555
H17 C27 1_555 1_555
O5 C3 1_555 1_555
O6 C5 1_555 1_555
O7 C5 1_555 1_555
O8 C3 1_555 1_555
Al7 O8 1_555 1_555
Al8 O7 1_555 1_555
Al11 O5 1_555 1_555
Al13_2 O6 1_555 1_555
C15 C17 1_555 1_555
C15 C25 1_555 1_555
C18 C19 1_555 1_555
C19 C25 1_555 1_555
C20 C22 1_555 1_555
C20 C27 1_555 1_555
C22 C24 1_555 1_555
O23 Al1 1_555 1_555
O24 Al1 1_555 1_555
N7 Al1 1_555 1_555
Al1_2 O1 1_555 1_555
Al2 O2 1_555 1_555
Al11 O3 1_555 1_555
O1 C1 1_555 1_555
O2 C1 1_555 1_555
O3 Al2 1_555 1_555
H1 O3 1_555 1_555
O4 Al1_2 1_555 1_555
H2 O4 1_555 1_555
C1 C2 1_555 1_555
C2 C4 1_555 1_555
C4 H3 1_555 1_555
C9 H5 1_555 1_555
C12 C2 1_555 1_555
H8 C12 1_555 1_555
C14 H10 1_555 1_555
C16 C14 1_555 1_555
C23 C9 1_555 1_555
C26 C4 1_555 1_555
H16 C26 1_555 1_555
N1 Al1_2 1_555 1_555
N2 C34 1_555 1_555
N3 Al2 1_555 1_555
C28 C29 1_555 1_555
C29 C30 1_555 1_555
C30 H18 1_555 1_555
C31 C30 1_555 1_555
C32 C31 1_555 1_555
C33 C28 1_555 1_555
H19 C33 1_555 1_555
C34 C29 1_555 1_555
H20 C34 1_555 1_555
C35 C34 1_555 1_555
H21 C35 1_555 1_555
H22 C35 1_555 1_555
C36 N3 1_555 1_555
C37 C28 1_555 1_555
H23 C37 1_555 1_555
C38 N2 1_555 1_555
C39 N2 1_555 1_555
C40 C36 1_555 1_555
C41 N1 1_555 1_555
O9 C39 1_555 1_555
O10 C31 1_555 1_555
O11 C32 1_555 1_555
C42 O10 1_555 1_555
H25 C42 1_555 1_555
H26 C42 1_555 1_555
H27 C42 1_555 1_555
C43 O11 1_555 1_555
H28 C43 1_555 1_555
H29 C43 1_555 1_555
H30 C43 1_555 1_555
Al7 O13 1_555 1_555
O12 C44 1_555 1_555
O13 C44 1_555 1_555
O14 Al11 1_555 1_555
H31 O14 1_555 1_555
O15 Al7 1_555 1_555
H32 O15 1_555 1_555
C44 C45 1_555 1_555
C45 C47 1_555 1_555
C47 H33 1_555 1_555
C52 H35 1_555 1_555
C55 C45 1_555 1_555
H38 C55 1_555 1_555
C57 H40 1_555 1_555
C59 C57 1_555 1_555
C66 C52 1_555 1_555
C69 C47 1_555 1_555
H46 C69 1_555 1_555
N4 N6 1_555 1_555
N5 C77 1_555 1_555
N6 Al7 1_555 1_555
C71 C72 1_555 1_555
C72 C73 1_555 1_555
C73 H48 1_555 1_555
C74 C73 1_555 1_555
C75 C74 1_555 1_555
C76 C71 1_555 1_555
H49 C76 1_555 1_555
C77 C72 1_555 1_555
H50 C77 1_555 1_555
C78 C77 1_555 1_555
H51 C78 1_555 1_555
H52 C78 1_555 1_555
C79 N6 1_555 1_555
C80 C71 1_555 1_555
H53 C80 1_555 1_555
C81 N5 1_555 1_555
C82 N5 1_555 1_555
C83 C79 1_555 1_555
C84 N4 1_555 1_555
O20 C82 1_555 1_555
O21 C74 1_555 1_555
O22 C75 1_555 1_555
C85 O21 1_555 1_555
H55 C85 1_555 1_555
H56 C85 1_555 1_555
H57 C85 1_555 1_555
C86 O22 1_555 1_555
H58 C86 1_555 1_555
H59 C86 1_555 1_555
H60 C86 1_555 1_555
Al5_2 O12 1_555 1_555
O26 Al11 1_555 1_555
O27 Al11 1_555 1_555
O28 Al11 1_555 1_555
O29 Al2 1_555 1_555
O30 Al7 1_555 1_555
O32 Al2 1_555 1_555
Al2 O4 1_555 1_555
C9 C12 1_555 1_555
C16 C23 1_555 1_555
C23 C26 1_555 1_555
N1 N3 1_555 1_555
C32 C33 1_555 1_555
C35 C36 1_555 1_555
C37 C38 1_555 1_555
C39 C40 1_555 1_555
C40 C41 1_555 1_555
Al7 O14 1_555 1_555
O15 Al5_2 1_555 1_555
C52 C55 1_555 1_555
C59 C66 1_555 1_555
C66 C69 1_555 1_555
N4 Al5_2 1_555 1_555
C75 C76 1_555 1_555
C78 C79 1_555 1_555
C80 C81 1_555 1_555
C82 C83 1_555 1_555
C83 C84 1_555 1_555
C37 H61 1_555 1_555
C38 H62 1_555 1_555
C38 H63 1_555 1_555
C81 H64 1_555 1_555
C81 H65 1_555 1_555
C80 H66 1_555 1_555
C46 C50 1_555 1_555
C48 C49 1_555 1_555
C49 C53 1_555 1_555
C50 C51 1_555 1_555
C51 H34 1_555 1_555
C54 C53 1_555 1_555
H37 C54 1_555 1_555
C56 C50 1_555 1_555
H39 C56 1_555 1_555
C58 H41 1_555 1_555
C60 C49 1_555 1_555
H42 C60 1_555 1_555
C61 H43 1_555 1_555
C63 C64 1_555 1_555
C64 C51 1_555 1_555
H44 C64 1_555 1_555
C65 C61 1_555 1_555
H45 C67 1_555 1_555
C68 C54 1_555 1_555
C70 C56 1_555 1_555
H47 C70 1_555 1_555
O26 C46 1_555 1_555
O17 C48 1_555 1_555
O18 C48 1_555 1_555
O32 C46 1_555 1_555
Al9 O18 1_555 1_555
Al13_3 O17 1_555 1_555
C58 C60 1_555 1_555
C58 C68 1_555 1_555
C61 C62 1_555 1_555
C62 C68 1_555 1_555
C63 C65 1_555 1_555
C63 C70 1_555 1_555
C65 C67 1_555 1_555
N5_2 C77_2 1_555 1_555
C71_2 C72_2 1_555 1_555
C72_2 C73_2 1_555 1_555
C73_2 H48_2 1_555 1_555
C74_2 C73_2 1_555 1_555
C75_2 C74_2 1_555 1_555
C76_2 C71_2 1_555 1_555
H49_2 C76_2 1_555 1_555
C77_2 C72_2 1_555 1_555
H50_2 C77_2 1_555 1_555
C78_2 C77_2 1_555 1_555
H51_2 C78_2 1_555 1_555
H52_2 C78_2 1_555 1_555
C80_2 C71_2 1_555 1_555
H53_2 C80_2 1_555 1_555
C81_2 N5_2 1_555 1_555
C82_2 N5_2 1_555 1_555
O20_2 C82_2 1_555 1_555
O21_2 C74_2 1_555 1_555
O22_2 C75_2 1_555 1_555
C85_2 O21_2 1_555 1_555
H55_2 C85_2 1_555 1_555
H56_2 C85_2 1_555 1_555
H57_2 C85_2 1_555 1_555
C86_2 O22_2 1_555 1_555
H58_2 C86_2 1_555 1_555
H59_2 C86_2 1_555 1_555
H60_2 C86_2 1_555 1_555
Al7_2 O8_2 1_555 1_555
O26_2 Al11_2 1_555 1_555
C75_2 C76_2 1_555 1_555
C80_2 C81_2 1_555 1_555
C81_2 H64_2 1_555 1_555
C81_2 H65_2 1_555 1_555
C80_2 H66_2 1_555 1_555
Al7_2 O13_2 1_555 1_555
O12_2 C44_2 1_555 1_555
O13_2 C44_2 1_555 1_555
O14_2 Al11_3 1_555 1_555
O15_2 Al7_2 1_555 1_555
H32_2 O15_2 1_555 1_555
C44_2 C45_2 1_555 1_555
C45_2 C47_2 1_555 1_555
C46_2 C50_2 1_555 1_555
C47_2 H33_2 1_555 1_555
C48_2 C49_2 1_555 1_555
C49_2 C53_2 1_555 1_555
C50_2 C51_2 1_555 1_555
C51_2 H34_2 1_555 1_555
C52_2 H35_2 1_555 1_555
C53_2 H36_2 1_555 1_555
C54_2 C53_2 1_555 1_555
H37_2 C54_2 1_555 1_555
C55_2 C45_2 1_555 1_555
H38_2 C55_2 1_555 1_555
C56_2 C50_2 1_555 1_555
C57_2 H40_2 1_555 1_555
C58_2 H41_2 1_555 1_555
C59_2 C57_2 1_555 1_555
C60_2 C49_2 1_555 1_555
H42_2 C60_2 1_555 1_555
C61_2 H43_2 1_555 1_555
C62_2 C57_2 1_555 1_555
C63_2 C64_2 1_555 1_555
C64_2 C51_2 1_555 1_555
H44_2 C64_2 1_555 1_555
C65_2 C61_2 1_555 1_555
C66_2 C52_2 1_555 1_555
C67_2 C59_2 1_555 1_555
H45_2 C67_2 1_555 1_555
C68_2 C54_2 1_555 1_555
C69_2 C47_2 1_555 1_555
H46_2 C69_2 1_555 1_555
C70_2 C56_2 1_555 1_555
H47_2 C70_2 1_555 1_555
O26_2 C46_2 1_555 1_555
O17_2 C48_2 1_555 1_555
O18_2 C48_2 1_555 1_555
N4_2 N6_2 1_555 1_555
N6_2 Al7_2 1_555 1_555
C79_2 N6_2 1_555 1_555
C83_2 C79_2 1_555 1_555
C84_2 N4_2 1_555 1_555
H54_2 C84_2 1_555 1_555
Al5_3 O12_2 1_555 1_555
Al9_2 O18_2 1_555 1_555
Al12 O17_2 1_555 1_555
O28_2 Al11_3 1_555 1_555
O30_2 Al7_2 1_555 1_555
Al7_2 O14_2 1_555 1_555
O15_2 Al5_3 1_555 1_555
C52_2 C55_2 1_555 1_555
C58_2 C60_2 1_555 1_555
C58_2 C68_2 1_555 1_555
C59_2 C66_2 1_555 1_555
C61_2 C62_2 1_555 1_555
C62_2 C68_2 1_555 1_555
C63_2 C65_2 1_555 1_555
C63_2 C70_2 1_555 1_555
C65_2 C67_2 1_555 1_555
C66_2 C69_2 1_555 1_555
N4_2 Al5_3 1_555 1_555
C83_2 C84_2 1_555 1_555
Al1_3 O1_2 1_555 1_555
Al2_2 O2_2 1_555 1_555
Al11_4 O3_2 1_555 1_555
O1_2 C1_2 1_555 1_555
O2_2 C1_2 1_555 1_555
O3_2 Al2_2 1_555 1_555
O4_2 Al1_3 1_555 1_555
H2_2 O4_2 1_555 1_555
C1_2 C2_2 1_555 1_555
C2_2 C4_2 1_555 1_555
C3_2 C7_2 1_555 1_555
C4_2 H3_2 1_555 1_555
C5_2 C6_2 1_555 1_555
C6_2 C10_2 1_555 1_555
C7_2 C8_2 1_555 1_555
C8_2 H4_2 1_555 1_555
C9_2 H5_2 1_555 1_555
C10_2 H6_2 1_555 1_555
C11_2 C10_2 1_555 1_555
H7_2 C11_2 1_555 1_555
C12_2 C2_2 1_555 1_555
H8_2 C12_2 1_555 1_555
C13_2 C7_2 1_555 1_555
C14_2 H10_2 1_555 1_555
C15_2 H11_2 1_555 1_555
C16_2 C14_2 1_555 1_555
C17_2 C6_2 1_555 1_555
H12_2 C17_2 1_555 1_555
C18_2 H13_2 1_555 1_555
C19_2 C14_2 1_555 1_555
C20_2 C21_2 1_555 1_555
C21_2 C8_2 1_555 1_555
H14_2 C21_2 1_555 1_555
C22_2 C18_2 1_555 1_555
C23_2 C9_2 1_555 1_555
C24_2 C16_2 1_555 1_555
H15_2 C24_2 1_555 1_555
C25_2 C11_2 1_555 1_555
C26_2 C4_2 1_555 1_555
H16_2 C26_2 1_555 1_555
C27_2 C13_2 1_555 1_555
H17_2 C27_2 1_555 1_555
O5_2 C3_2 1_555 1_555
O6_2 C5_2 1_555 1_555
O7_2 C5_2 1_555 1_555
N1_2 Al1_3 1_555 1_555
N3_2 Al2_2 1_555 1_555
C36_2 N3_2 1_555 1_555
C40_2 C36_2 1_555 1_555
C41_2 N1_2 1_555 1_555
H24_2 C41_2 1_555 1_555
Al8_2 O7_2 1_555 1_555
Al11_5 O5_2 1_555 1_555
Al12 O6_2 1_555 1_555
O23_2 Al1_3 1_555 1_555
O24_2 Al1_3 1_555 1_555
O27_2 Al11_4 1_555 1_555
O29_2 Al2_2 1_555 1_555
O32_2 Al2_2 1_555 1_555
N7_2 Al1_3 1_555 1_555
Al2_2 O4_2 1_555 1_555
C9_2 C12_2 1_555 1_555
C15_2 C17_2 1_555 1_555
C15_2 C25_2 1_555 1_555
C16_2 C23_2 1_555 1_555
C18_2 C19_2 1_555 1_555
C19_2 C25_2 1_555 1_555
C20_2 C22_2 1_555 1_555
C20_2 C27_2 1_555 1_555
C22_2 C24_2 1_555 1_555
C23_2 C26_2 1_555 1_555
N1_2 N3_2 1_555 1_555
C40_2 C41_2 1_555 1_555
N2_2 C34_2 1_555 1_555
C28_2 C29_2 1_555 1_555
C29_2 C30_2 1_555 1_555
C30_2 H18_2 1_555 1_555
C31_2 C30_2 1_555 1_555
C32_2 C31_2 1_555 1_555
C33_2 C28_2 1_555 1_555
H19_2 C33_2 1_555 1_555
C34_2 C29_2 1_555 1_555
H20_2 C34_2 1_555 1_555
C35_2 C34_2 1_555 1_555
H21_2 C35_2 1_555 1_555
H22_2 C35_2 1_555 1_555
C37_2 C28_2 1_555 1_555
H23_2 C37_2 1_555 1_555
C38_2 N2_2 1_555 1_555
C39_2 N2_2 1_555 1_555
O9_2 C39_2 1_555 1_555
O10_2 C31_2 1_555 1_555
O11_2 C32_2 1_555 1_555
C42_2 O10_2 1_555 1_555
H25_2 C42_2 1_555 1_555
H26_2 C42_2 1_555 1_555
H27_2 C42_2 1_555 1_555
C43_2 O11_2 1_555 1_555
H28_2 C43_2 1_555 1_555
H29_2 C43_2 1_555 1_555
H30_2 C43_2 1_555 1_555
C32_2 C33_2 1_555 1_555
C37_2 C38_2 1_555 1_555
C37_2 H61_2 1_555 1_555
C38_2 H62_2 1_555 1_555
C38_2 H63_2 1_555 1_555
O23_3 Al5 1_555 1_555
O24_3 Al5 1_555 1_555
N7_3 Al5 1_555 1_555
O23_4 Al5_3 1_555 1_555
O24_4 Al5_3 1_555 1_555
N7_4 Al5_3 1_555 1_555
N5_3 C77_3 1_555 1_555
C71_3 C72_3 1_555 1_555
C72_3 C73_3 1_555 1_555
C73_3 H48_3 1_555 1_555
C74_3 C73_3 1_555 1_555
C75_3 C74_3 1_555 1_555
C76_3 C71_3 1_555 1_555
H49_3 C76_3 1_555 1_555
C77_3 C72_3 1_555 1_555
H50_3 C77_3 1_555 1_555
C78_3 C77_3 1_555 1_555
H51_3 C78_3 1_555 1_555
H52_3 C78_3 1_555 1_555
C80_3 C71_3 1_555 1_555
H53_3 C80_3 1_555 1_555
C81_3 N5_3 1_555 1_555
C82_3 N5_3 1_555 1_555
O20_3 C82_3 1_555 1_555
O21_3 C74_3 1_555 1_555
O22_3 C75_3 1_555 1_555
C85_3 O21_3 1_555 1_555
H55_3 C85_3 1_555 1_555
H56_3 C85_3 1_555 1_555
H57_3 C85_3 1_555 1_555
C86_3 O22_3 1_555 1_555
H58_3 C86_3 1_555 1_555
H59_3 C86_3 1_555 1_555
H60_3 C86_3 1_555 1_555
Al9 O8_3 1_555 1_555
O26_3 Al13 1_555 1_555
C75_3 C76_3 1_555 1_555
C80_3 C81_3 1_555 1_555
C81_3 H64_3 1_555 1_555
C81_3 H65_3 1_555 1_555
C80_3 H66_3 1_555 1_555
Al8 O2_3 1_555 1_555
Al13_2 O3_3 1_555 1_555
O23_4 C1_3 1_555 1_555
O2_3 C1_3 1_555 1_555
O3_3 Al8 1_555 1_555
H2_3 O24_4 1_555 1_555
C1_3 C2_3 1_555 1_555
C2_3 C4_3 1_555 1_555
C3_3 C7_3 1_555 1_555
C4_3 H3_3 1_555 1_555
C5_3 C6_3 1_555 1_555
C6_3 C10_3 1_555 1_555
C7_3 C8_3 1_555 1_555
C8_3 H4_3 1_555 1_555
C9_3 H5_3 1_555 1_555
C10_3 H6_3 1_555 1_555
C11_3 C10_3 1_555 1_555
H7_3 C11_3 1_555 1_555
C12_3 C2_3 1_555 1_555
H8_3 C12_3 1_555 1_555
C13_3 C7_3 1_555 1_555
C14_3 H10_3 1_555 1_555
C15_3 H11_3 1_555 1_555
C16_3 C14_3 1_555 1_555
C17_3 C6_3 1_555 1_555
H12_3 C17_3 1_555 1_555
C18_3 H13_3 1_555 1_555
C19_3 C14_3 1_555 1_555
C20_3 C21_3 1_555 1_555
C21_3 C8_3 1_555 1_555
H14_3 C21_3 1_555 1_555
C22_3 C18_3 1_555 1_555
C23_3 C9_3 1_555 1_555
C24_3 C16_3 1_555 1_555
H15_3 C24_3 1_555 1_555
C25_3 C11_3 1_555 1_555
C26_3 C4_3 1_555 1_555
H16_3 C26_3 1_555 1_555
C27_3 C13_3 1_555 1_555
H17_3 C27_3 1_555 1_555
O5_3 C3_3 1_555 1_555
O27 C5_3 1_555 1_555
O29 C5_3 1_555 1_555
N3_3 Al8 1_555 1_555
C36_3 N3_3 1_555 1_555
C40_3 C36_3 1_555 1_555
C41_3 N7_4 1_555 1_555
H24_3 C41_3 1_555 1_555
Al13_4 O5_3 1_555 1_555
O32_3 Al8 1_555 1_555
Al8 O24_4 1_555 1_555
C9_3 C12_3 1_555 1_555
C15_3 C17_3 1_555 1_555
C15_3 C25_3 1_555 1_555
C16_3 C23_3 1_555 1_555
C18_3 C19_3 1_555 1_555
C19_3 C25_3 1_555 1_555
C20_3 C22_3 1_555 1_555
C20_3 C27_3 1_555 1_555
C22_3 C24_3 1_555 1_555
C23_3 C26_3 1_555 1_555
N7_4 N3_3 1_555 1_555
C40_3 C41_3 1_555 1_555
Al9 O13_3 1_555 1_555
O23_2 C44_3 1_555 1_555
O13_3 C44_3 1_555 1_555
O14_3 Al13_3 1_555 1_555
O24_2 Al9 1_555 1_555
H32_3 O24_2 1_555 1_555
C44_3 C45_3 1_555 1_555
C45_3 C47_3 1_555 1_555
C46_3 C50_3 1_555 1_555
C47_3 H33_3 1_555 1_555
C48_3 C49_3 1_555 1_555
C49_3 C53_3 1_555 1_555
C50_3 C51_3 1_555 1_555
C51_3 H34_3 1_555 1_555
C52_3 H35_3 1_555 1_555
C53_3 H36_3 1_555 1_555
C54_3 C53_3 1_555 1_555
H37_3 C54_3 1_555 1_555
C55_3 C45_3 1_555 1_555
H38_3 C55_3 1_555 1_555
C56_3 C50_3 1_555 1_555
C57_3 H40_3 1_555 1_555
C58_3 H41_3 1_555 1_555
C59_3 C57_3 1_555 1_555
C60_3 C49_3 1_555 1_555
H42_3 C60_3 1_555 1_555
C61_3 H43_3 1_555 1_555
C62_3 C57_3 1_555 1_555
C63_3 C64_3 1_555 1_555
C64_3 C51_3 1_555 1_555
H44_3 C64_3 1_555 1_555
C65_3 C61_3 1_555 1_555
C66_3 C52_3 1_555 1_555
C67_3 C59_3 1_555 1_555
H45_3 C67_3 1_555 1_555
C68_3 C54_3 1_555 1_555
C69_3 C47_3 1_555 1_555
H46_3 C69_3 1_555 1_555
C70_3 C56_3 1_555 1_555
H47_3 C70_3 1_555 1_555
O26_3 C46_3 1_555 1_555
O28 C48_3 1_555 1_555
O30 C48_3 1_555 1_555
N7_2 N6_3 1_555 1_555
N6_3 Al9 1_555 1_555
C79_3 N6_3 1_555 1_555
C83_3 C79_3 1_555 1_555
C84_3 N7_2 1_555 1_555
H54_3 C84_3 1_555 1_555
Al9 O14_3 1_555 1_555
C52_3 C55_3 1_555 1_555
C58_3 C60_3 1_555 1_555
C58_3 C68_3 1_555 1_555
C59_3 C66_3 1_555 1_555
C61_3 C62_3 1_555 1_555
C62_3 C68_3 1_555 1_555
C63_3 C65_3 1_555 1_555
C63_3 C70_3 1_555 1_555
C65_3 C67_3 1_555 1_555
C66_3 C69_3 1_555 1_555
C83_3 C84_3 1_555 1_555
N2_3 C34_3 1_555 1_555
C28_3 C29_3 1_555 1_555
C29_3 C30_3 1_555 1_555
C30_3 H18_3 1_555 1_555
C31_3 C30_3 1_555 1_555
C32_3 C31_3 1_555 1_555
C33_3 C28_3 1_555 1_555
H19_3 C33_3 1_555 1_555
C34_3 C29_3 1_555 1_555
H20_3 C34_3 1_555 1_555
C35_3 C34_3 1_555 1_555
H21_3 C35_3 1_555 1_555
H22_3 C35_3 1_555 1_555
C37_3 C28_3 1_555 1_555
H23_3 C37_3 1_555 1_555
C38_3 N2_3 1_555 1_555
C39_3 N2_3 1_555 1_555
O9_3 C39_3 1_555 1_555
O10_3 C31_3 1_555 1_555
O11_3 C32_3 1_555 1_555
C42_3 O10_3 1_555 1_555
H25_3 C42_3 1_555 1_555
H26_3 C42_3 1_555 1_555
H27_3 C42_3 1_555 1_555
C43_3 O11_3 1_555 1_555
H28_3 C43_3 1_555 1_555
H29_3 C43_3 1_555 1_555
H30_3 C43_3 1_555 1_555
C32_3 C33_3 1_555 1_555
C37_3 C38_3 1_555 1_555
C37_3 H61_3 1_555 1_555
C38_3 H62_3 1_555 1_555
C38_3 H63_3 1_555 1_555
C3_4 C7_4 1_555 1_555
C5_4 C6_4 1_555 1_555
C6_4 C10_4 1_555 1_555
C7_4 C8_4 1_555 1_555
C8_4 H4_4 1_555 1_555
C11_4 C10_4 1_555 1_555
H7_4 C11_4 1_555 1_555
C13_4 C7_4 1_555 1_555
H9_4 C13_4 1_555 1_555
C15_4 H11_4 1_555 1_555
C17_4 C6_4 1_555 1_555
H12_4 C17_4 1_555 1_555
C18_4 H13_4 1_555 1_555
C20_4 C21_4 1_555 1_555
C21_4 C8_4 1_555 1_555
H14_4 C21_4 1_555 1_555
C22_4 C18_4 1_555 1_555
H15_4 C24_4 1_555 1_555
C25_4 C11_4 1_555 1_555
C27_4 C13_4 1_555 1_555
H17_4 C27_4 1_555 1_555
O5_4 C3_4 1_555 1_555
O27_2 C5_4 1_555 1_555
O29_2 C5_4 1_555 1_555
O8_4 C3_4 1_555 1_555
Al9_2 O8_4 1_555 1_555
Al12 O5_4 1_555 1_555
C15_4 C17_4 1_555 1_555
C15_4 C25_4 1_555 1_555
C18_4 C19_4 1_555 1_555
C19_4 C25_4 1_555 1_555
C20_4 C22_4 1_555 1_555
C20_4 C27_4 1_555 1_555
C22_4 C24_4 1_555 1_555
Al8_2 O2_4 1_555 1_555
Al12 O3_4 1_555 1_555
O23 C1_4 1_555 1_555
O2_4 C1_4 1_555 1_555
O3_4 Al8_2 1_555 1_555
H1_4 O3_4 1_555 1_555
H2_4 O24 1_555 1_555
C1_4 C2_4 1_555 1_555
C2_4 C4_4 1_555 1_555
C4_4 H3_4 1_555 1_555
C9_4 H5_4 1_555 1_555
C12_4 C2_4 1_555 1_555
H8_4 C12_4 1_555 1_555
C14_4 H10_4 1_555 1_555
C16_4 C14_4 1_555 1_555
C23_4 C9_4 1_555 1_555
C26_4 C4_4 1_555 1_555
H16_4 C26_4 1_555 1_555
N2_4 C34_4 1_555 1_555
N3_4 Al8_2 1_555 1_555
C28_4 C29_4 1_555 1_555
C29_4 C30_4 1_555 1_555
C30_4 H18_4 1_555 1_555
C31_4 C30_4 1_555 1_555
C32_4 C31_4 1_555 1_555
C33_4 C28_4 1_555 1_555
H19_4 C33_4 1_555 1_555
C34_4 C29_4 1_555 1_555
H20_4 C34_4 1_555 1_555
C35_4 C34_4 1_555 1_555
H21_4 C35_4 1_555 1_555
H22_4 C35_4 1_555 1_555
C36_4 N3_4 1_555 1_555
C37_4 C28_4 1_555 1_555
H23_4 C37_4 1_555 1_555
C38_4 N2_4 1_555 1_555
C39_4 N2_4 1_555 1_555
C40_4 C36_4 1_555 1_555
C41_4 N7 1_555 1_555
O9_4 C39_4 1_555 1_555
O10_4 C31_4 1_555 1_555
O11_4 C32_4 1_555 1_555
C42_4 O10_4 1_555 1_555
H25_4 C42_4 1_555 1_555
H26_4 C42_4 1_555 1_555
H27_4 C42_4 1_555 1_555
C43_4 O11_4 1_555 1_555
H28_4 C43_4 1_555 1_555
H29_4 C43_4 1_555 1_555
H30_4 C43_4 1_555 1_555
Al9_2 O13_4 1_555 1_555
O23_3 C44_4 1_555 1_555
O13_4 C44_4 1_555 1_555
O14_4 Al12 1_555 1_555
H31_4 O14_4 1_555 1_555
O24_3 Al9_2 1_555 1_555
H32_4 O24_3 1_555 1_555
C44_4 C45_4 1_555 1_555
C45_4 C47_4 1_555 1_555
C47_4 H33_4 1_555 1_555
C52_4 H35_4 1_555 1_555
C55_4 C45_4 1_555 1_555
H38_4 C55_4 1_555 1_555
C57_4 H40_4 1_555 1_555
C59_4 C57_4 1_555 1_555
C66_4 C52_4 1_555 1_555
C69_4 C47_4 1_555 1_555
H46_4 C69_4 1_555 1_555
N7_3 N6_4 1_555 1_555
N5_4 C77_4 1_555 1_555
N6_4 Al9_2 1_555 1_555
C71_4 C72_4 1_555 1_555
C72_4 C73_4 1_555 1_555
C73_4 H48_4 1_555 1_555
C74_4 C73_4 1_555 1_555
C75_4 C74_4 1_555 1_555
C76_4 C71_4 1_555 1_555
H49_4 C76_4 1_555 1_555
C77_4 C72_4 1_555 1_555
H50_4 C77_4 1_555 1_555
C78_4 C77_4 1_555 1_555
H51_4 C78_4 1_555 1_555
H52_4 C78_4 1_555 1_555
C79_4 N6_4 1_555 1_555
C80_4 C71_4 1_555 1_555
H53_4 C80_4 1_555 1_555
C81_4 N5_4 1_555 1_555
C82_4 N5_4 1_555 1_555
C83_4 C79_4 1_555 1_555
C84_4 N7_3 1_555 1_555
O20_4 C82_4 1_555 1_555
O21_4 C74_4 1_555 1_555
O22_4 C75_4 1_555 1_555
C85_4 O21_4 1_555 1_555
H55_4 C85_4 1_555 1_555
H56_4 C85_4 1_555 1_555
H57_4 C85_4 1_555 1_555
C86_4 O22_4 1_555 1_555
H58_4 C86_4 1_555 1_555
H59_4 C86_4 1_555 1_555
H60_4 C86_4 1_555 1_555
O26_4 Al12 1_555 1_555
O32_4 Al8_2 1_555 1_555
Al8_2 O24 1_555 1_555
C9_4 C12_4 1_555 1_555
C16_4 C23_4 1_555 1_555
C23_4 C26_4 1_555 1_555
N7 N3_4 1_555 1_555
C32_4 C33_4 1_555 1_555
C35_4 C36_4 1_555 1_555
C37_4 C38_4 1_555 1_555
C39_4 C40_4 1_555 1_555
C40_4 C41_4 1_555 1_555
Al9_2 O14_4 1_555 1_555
C52_4 C55_4 1_555 1_555
C59_4 C66_4 1_555 1_555
C66_4 C69_4 1_555 1_555
C75_4 C76_4 1_555 1_555
C78_4 C79_4 1_555 1_555
C80_4 C81_4 1_555 1_555
C82_4 C83_4 1_555 1_555
C83_4 C84_4 1_555 1_555
C37_4 H61_4 1_555 1_555
C38_4 H62_4 1_555 1_555
C38_4 H63_4 1_555 1_555
C81_4 H64_4 1_555 1_555
C81_4 H65_4 1_555 1_555
C80_4 H66_4 1_555 1_555
C46_4 C50_4 1_555 1_555
C48_4 C49_4 1_555 1_555
C49_4 C53_4 1_555 1_555
C50_4 C51_4 1_555 1_555
C51_4 H34_4 1_555 1_555
C54_4 C53_4 1_555 1_555
H37_4 C54_4 1_555 1_555
C56_4 C50_4 1_555 1_555
H39_4 C56_4 1_555 1_555
C58_4 H41_4 1_555 1_555
C60_4 C49_4 1_555 1_555
H42_4 C60_4 1_555 1_555
C61_4 H43_4 1_555 1_555
C63_4 C64_4 1_555 1_555
C64_4 C51_4 1_555 1_555
H44_4 C64_4 1_555 1_555
C65_4 C61_4 1_555 1_555
H45_4 C67_4 1_555 1_555
C68_4 C54_4 1_555 1_555
C70_4 C56_4 1_555 1_555
H47_4 C70_4 1_555 1_555
O26_4 C46_4 1_555 1_555
O28_2 C48_4 1_555 1_555
O30_2 C48_4 1_555 1_555
O32_4 C46_4 1_555 1_555
C58_4 C60_4 1_555 1_555
C58_4 C68_4 1_555 1_555
C61_4 C62_4 1_555 1_555
C62_4 C68_4 1_555 1_555
C63_4 C65_4 1_555 1_555
C63_4 C70_4 1_555 1_555
C65_4 C67_4 1_555 1_555

#END
