
###############################################################################
#
# This file contains modified crystal structure data generated from the
# MOF subset of the Cambridge Structural Database (CSD) v543 
# hosted by the Cambridge Crystallographic Data Centre (CCDC).
#
# This work is licensed under the Creative Commons
# Attribution-NonCommercial-ShareAlike 4.0 International License.
# To view a copy of this license, visit
# http://creativecommons.org/licenses/by-nc-sa/4.0/
# or send a letter to
# Creative Commons, PO Box 1866, Mountain View, CA 94042, USA.
#
# CIF created using the CSD Python API on 29 September 2022
# The structure has been converted into the P1 space group
# The structure has a 3D framework
# The original CSD entry QOXSAA is in the tetragonal crystal system
# The original CSD entry QOXSAA is in a Sohncke space group
# The framework has been calculated to contain at least 10.0% void space
# The void calculation uses a probe of radius 1.32A, grid spacing 0.4
#
###############################################################################

data_QOXSAA
_chemical_formula_moiety         '(C216 H136 Al16 O92 S8)n'
_symmetry_cell_setting           triclinic
_symmetry_space_group_name_H-M   'P 1'
_symmetry_Int_Tables_number      1
_space_group_name_Hall           'P 1'
loop_
_symmetry_equiv_pos_site_id
_symmetry_equiv_pos_as_xyz
1 x,y,z
_cell_length_a                   18.1729(8)
_cell_length_b                   18.1729(8)
_cell_length_c                   37.6737(17)
_cell_angle_alpha                90
_cell_angle_beta                 90
_cell_angle_gamma                90
_cell_volume                     12441.9
loop_
_atom_site_label
_atom_site_type_symbol
_atom_site_fract_x
_atom_site_fract_y
_atom_site_fract_z
Al2 Al -0.000000 -0.000000 0.10915(2)
H1 H 0.010710 0.070063 0.055197
C3 C 0.15852(10) 0.28726(11) 0.35062(4)
H3 H 0.165921 0.288495 0.325667
C4 C 0.13699(10) 0.28127(12) 0.42278(5)
H4 H 0.129752 0.279599 0.447738
C6 C 0.21865(10) 0.28045(10) 0.37272(4)
H5 H 0.266807 0.277859 0.362991
C8 C 0.27311(10) 0.28158(9) 0.43297(4)
H6 H 0.012652 0.089504 0.210347
C11 C 0.08839(10) 0.29228(12) 0.36375(4)
C12 C 0.02402(11) 0.30301(13) 0.34040(4)
C14 C 0.20859(9) 0.27738(10) 0.40924(4)
C16 C 0.07845(11) 0.28730(14) 0.40142(4)
H8 H 0.030301 0.288272 0.411221
C18 C 0.02096(10) 0.26846(12) 0.30751(4)
H9 H 0.060860 0.238406 0.300081
H11 H 0.012353 0.147191 0.265268
O7 O 0.33577(6) 0.28444(6) 0.41838(3)
O8 O 0.26132(6) 0.28387(6) 0.46598(2)
O12 O 0.00766(9) 0.31490(8) 0.02055(4)
Al5 Al 0.32609(3) 0.32609(3) 0.500000
Al11 Al 0.40880(3) 0.35786(3) 0.42271(2)
O28 O 0.09896(6) 0.02780(6) 0.11176(3)
Al2_2 Al -0.000000 1.000000 0.10915(2)
S2 S 0.02643(3) 0.75547(3) 0.01961(2)
Al4 Al 0.09120(3) 0.85786(3) 0.07729(2)
O13 O 0.01960(5) 0.92950(5) 0.07574(2)
O14 O 0.05902(6) 0.82600(6) 0.12224(3)
O15 O 0.01799(6) 0.93088(7) 0.14682(2)
O16 O 0.13105(5) 0.88439(6) 0.03462(2)
H19 H 0.129567 0.935529 0.029447
C28 C 0.03793(9) 0.86459(10) 0.14802(4)
C29 C 0.34410(9) 0.48849(10) 0.38709(4)
C32 C 0.27849(9) 0.52380(10) 0.37088(4)
C34 C 0.03894(10) 0.75894(12) 0.24958(4)
C36 C 0.00815(11) 0.86278(11) 0.21268(4)
C37 C 0.03934(10) 0.72287(12) 0.28539(4)
C40 C 0.03759(9) 0.82847(10) 0.18358(4)
C42 C 0.06816(10) 0.75885(11) 0.18715(4)
H24 H 0.088567 0.734655 0.167082
C44 C 0.15895(10) 0.59796(12) 0.34176(5)
C46 C 0.06887(10) 0.72449(11) 0.22023(4)
H27 H 0.090117 0.676984 0.222625
C47 C 0.00853(11) 0.82847(12) 0.24535(4)
C48 C 0.20799(10) 0.49480(11) 0.37444(4)
H29 H 0.200659 0.449747 0.386729
C49 C 0.03389(10) 0.65089(12) 0.35042(5)
H30 H 0.031323 0.624997 0.372292
C50 C 0.28823(10) 0.58836(11) 0.35137(5)
H31 H 0.336464 0.607451 0.348249
C51 C 0.09762(10) 0.67818(12) 0.29598(5)
H32 H 0.139065 0.671938 0.280912
C52 C 0.09496(10) 0.64254(13) 0.32885(5)
C53 C 0.14833(10) 0.53209(12) 0.35990(5)
H33 H 0.100127 0.512513 0.362369
C54 C 0.23010(10) 0.62456(12) 0.33670(5)
H34 H 0.238020 0.667813 0.323062
O17 O 0.33953(6) 0.42321(6) 0.39803(2)
O18 O 0.40104(6) 0.52780(6) 0.38824(3)
O21 O 0.10309(6) 0.74954(6) 0.00814(3)
O22 O 0.02482(6) 0.78844(6) 0.05615(3)
Al6 Al 0.17391(3) 0.82609(3) 0.000000
Al9 Al 0.500000 0.500000 0.39085(2)
O26 O 0.16047(6) 0.92321(6) 0.10197(2)
O31 O 0.16423(6) 0.78444(6) 0.08162(3)
Al6_2 Al 0.17391(3) 0.82609(3) 1.000000
Al1 Al 0.82609(3) 0.17391(3) 0.000000
Al2_3 Al 1.000000 -0.000000 0.10915(2)
S1 S 0.97357(3) 0.24453(3) 0.01961(2)
Al3 Al 0.90880(3) 0.14214(3) 0.07729(2)
O1 O 0.98040(5) 0.07050(5) 0.07574(2)
O2 O 0.94098(6) 0.17400(6) 0.12224(3)
O3 O 0.98201(6) 0.06912(7) 0.14682(2)
O4 O 0.86895(5) 0.11561(6) 0.03462(2)
H2 H 0.870433 0.064471 0.029447
C1 C 0.96207(9) 0.13541(10) 0.14802(4)
C2 C 0.65590(9) 0.51151(10) 0.38709(4)
C5 C 0.72151(9) 0.47620(10) 0.37088(4)
C7 C 0.96106(10) 0.24106(12) 0.24958(4)
C9 C 0.99185(11) 0.13722(11) 0.21268(4)
C10 C 0.96066(10) 0.27713(12) 0.28539(4)
C13 C 0.96241(9) 0.17153(10) 0.18358(4)
C15 C 0.93184(10) 0.24115(11) 0.18715(4)
H7 H 0.911433 0.265345 0.167082
C17 C 0.84105(10) 0.40204(12) 0.34176(5)
C19 C 0.93113(10) 0.27551(11) 0.22023(4)
H10 H 0.909883 0.323016 0.222625
C20 C 0.99147(11) 0.17153(12) 0.24535(4)
C21 C 0.79201(10) 0.50520(11) 0.37444(4)
H12 H 0.799341 0.550253 0.386729
C22 C 0.96611(10) 0.34911(12) 0.35042(5)
H13 H 0.968677 0.375003 0.372292
C23 C 0.71177(10) 0.41164(11) 0.35137(5)
H14 H 0.663536 0.392549 0.348249
C24 C 0.90238(10) 0.32182(12) 0.29598(5)
H15 H 0.860935 0.328062 0.280912
C25 C 0.90504(10) 0.35746(13) 0.32885(5)
C26 C 0.85167(10) 0.46791(12) 0.35990(5)
H16 H 0.899873 0.487487 0.362369
C27 C 0.76990(10) 0.37544(12) 0.33670(5)
H17 H 0.761980 0.332187 0.323062
O5 O 0.66047(6) 0.57679(6) 0.39803(2)
O6 O 0.59896(6) 0.47220(6) 0.38824(3)
O9 O 0.89691(6) 0.25046(6) 0.00814(3)
O10 O 0.97518(6) 0.21156(6) 0.05615(3)
Al13 Al 0.59120(3) 0.64214(3) 0.42271(2)
O27 O 0.83953(6) 0.07679(6) 0.10197(2)
O30 O 0.83577(6) 0.21556(6) 0.08162(3)
O33 O 0.76132(6) 0.21613(6) 0.03402(2)
Al1_2 Al 0.82609(3) 0.17391(3) 1.000000
O25 O 0.88439(6) 0.13105(5) 0.96538(2)
O32 O 0.78387(6) 0.23868(6) 0.96598(2)
O34 O 0.74954(6) 0.10309(6) 0.99186(3)
Al2_4 Al 1.000000 1.000000 0.10915(2)
H18 H 0.989290 0.929937 0.055197
C30 C 0.84148(10) 0.71274(11) 0.35062(4)
H20 H 0.834079 0.711505 0.325667
C31 C 0.86301(10) 0.71873(12) 0.42278(5)
H21 H 0.870248 0.720401 0.447738
C33 C 0.78135(10) 0.71955(10) 0.37272(4)
H22 H 0.733193 0.722141 0.362991
C35 C 0.72689(10) 0.71842(9) 0.43297(4)
H23 H 0.987348 0.910496 0.210347
C38 C 0.91161(10) 0.70772(12) 0.36375(4)
C39 C 0.97598(11) 0.69699(13) 0.34040(4)
C41 C 0.79141(9) 0.72262(10) 0.40924(4)
C43 C 0.92155(11) 0.71270(14) 0.40142(4)
H25 H 0.969699 0.711728 0.411221
C45 C 0.97904(10) 0.73154(12) 0.30751(4)
H26 H 0.939140 0.761594 0.300081
H28 H 0.987647 0.852809 0.265268
O19 O 0.66423(6) 0.71556(6) 0.41838(3)
O20 O 0.73868(6) 0.71613(6) 0.46598(2)
O24 O 0.99234(9) 0.68510(8) 0.02055(4)
Al7 Al 0.67391(3) 0.67391(3) 0.500000
O29 O 0.90104(6) 0.97220(6) 0.11176(3)
Al9_2 Al -0.000000 -0.000000 0.89085(2)
C29_2 C 0.01151(10) 0.84410(9) 0.88709(4)
C48_2 C 0.00520(11) 0.70799(10) 0.87444(4)
H29_2 H 0.050253 0.700659 0.886729
O17_2 O 0.07679(6) 0.83953(6) 0.89803(2)
Al9_3 Al -0.000000 1.000000 0.89085(2)
Al10 Al 0.14214(3) 0.90880(3) 0.92271(2)
Al9_4 Al 1.000000 -0.000000 0.89085(2)
Al2_5 Al 0.500000 0.500000 0.60915(2)
S1_2 S 0.25547(3) 0.47357(3) 0.51961(2)
Al3_2 Al 0.35786(3) 0.40880(3) 0.57729(2)
O1_2 O 0.42950(5) 0.48040(5) 0.57574(2)
H1_2 H 0.429937 0.510710 0.555197
O2_2 O 0.32600(6) 0.44098(6) 0.62224(3)
O3_2 O 0.43088(7) 0.48201(6) 0.64682(2)
O4_2 O 0.38439(6) 0.36895(5) 0.53462(2)
H2_2 H 0.435529 0.370433 0.529447
C1_2 C 0.36459(10) 0.46207(9) 0.64802(4)
C3_2 C 0.21274(11) 0.65852(10) 0.85062(4)
H3_2 H 0.211505 0.665921 0.825667
C4_2 C 0.21873(12) 0.63699(10) 0.92278(5)
H4_2 H 0.220401 0.629752 0.947738
C5_2 C 0.02380(10) 0.22151(9) 0.87088(4)
C6_2 C 0.21955(10) 0.71865(10) 0.87272(4)
H5_2 H 0.222141 0.766807 0.862991
C7_2 C 0.25894(12) 0.46106(10) 0.74958(4)
C8_2 C 0.21842(9) 0.77311(10) 0.93297(4)
C9_2 C 0.36278(11) 0.49185(11) 0.71268(4)
H6_2 H 0.410496 0.512652 0.710347
C10_2 C 0.22287(12) 0.46066(10) 0.78539(4)
C11_2 C 0.20772(12) 0.58839(10) 0.86375(4)
C12_2 C 0.19699(13) 0.52402(11) 0.84040(4)
C13_2 C 0.32847(10) 0.46241(9) 0.68358(4)
C14_2 C 0.22262(10) 0.70859(9) 0.90924(4)
C15_2 C 0.25885(11) 0.43184(10) 0.68715(4)
H7_2 H 0.234655 0.411433 0.667082
C16_2 C 0.21270(14) 0.57845(11) 0.90142(4)
H8_2 H 0.211728 0.530301 0.911221
C17_2 C 0.09796(12) 0.34105(10) 0.84176(5)
C18_2 C 0.23154(12) 0.52096(10) 0.80751(4)
H9_2 H 0.261594 0.560860 0.800081
C19_2 C 0.22449(11) 0.43113(10) 0.72023(4)
H10_2 H 0.176984 0.409883 0.722625
C20_2 C 0.32847(12) 0.49147(11) 0.74535(4)
H11_2 H 0.352809 0.512353 0.765268
C22_2 C 0.15089(12) 0.46611(10) 0.85042(5)
H13_2 H 0.124997 0.468677 0.872292
C23_2 C 0.08836(11) 0.21177(10) 0.85137(5)
H14_2 H 0.107451 0.163536 0.848249
C24_2 C 0.17818(12) 0.40238(10) 0.79598(5)
H15_2 H 0.171938 0.360935 0.780912
C25_2 C 0.14254(13) 0.40504(10) 0.82885(5)
C26_2 C 0.03209(12) 0.35167(10) 0.85990(5)
H16_2 H 0.012513 0.399873 0.862369
C27_2 C 0.12456(12) 0.26990(10) 0.83670(5)
H17_2 H 0.167813 0.261980 0.823062
O6_2 O 0.02780(6) 0.09896(6) 0.88824(3)
O7_2 O 0.21556(6) 0.83577(6) 0.91838(3)
O8_2 O 0.21613(6) 0.76132(6) 0.96598(2)
O9_2 O 0.24954(6) 0.39691(6) 0.50814(3)
O10_2 O 0.28844(6) 0.47518(6) 0.55615(3)
O11 O 0.30282(8) 0.51346(8) 0.49466(3)
O12_2 O 0.18510(8) 0.50766(9) 0.52055(4)
S2_2 S 0.74453(3) 0.52643(3) 0.51961(2)
Al4_2 Al 0.64214(3) 0.59120(3) 0.57729(2)
O13_2 O 0.57050(5) 0.51960(5) 0.57574(2)
H18_2 H 0.570063 0.489290 0.555197
O14_2 O 0.67400(6) 0.55902(6) 0.62224(3)
O15_2 O 0.56912(7) 0.51799(6) 0.64682(2)
O16_2 O 0.61561(6) 0.63105(5) 0.53462(2)
H19_2 H 0.564471 0.629567 0.529447
C28_2 C 0.63541(10) 0.53793(9) 0.64802(4)
C30_2 C 0.78726(11) 0.34148(10) 0.85062(4)
H20_2 H 0.788495 0.334079 0.825667
C31_2 C 0.78127(12) 0.36301(10) 0.92278(5)
H21_2 H 0.779599 0.370248 0.947738
C32_2 C 0.97620(10) 0.77849(9) 0.87088(4)
C33_2 C 0.78045(10) 0.28135(10) 0.87272(4)
H22_2 H 0.777859 0.233193 0.862991
C34_2 C 0.74106(12) 0.53894(10) 0.74958(4)
C35_2 C 0.78158(9) 0.22689(10) 0.93297(4)
C36_2 C 0.63722(11) 0.50815(11) 0.71268(4)
H23_2 H 0.589504 0.487348 0.710347
C37_2 C 0.77713(12) 0.53934(10) 0.78539(4)
C38_2 C 0.79228(12) 0.41161(10) 0.86375(4)
C39_2 C 0.80301(13) 0.47598(11) 0.84040(4)
C40_2 C 0.67153(10) 0.53759(9) 0.68358(4)
C41_2 C 0.77738(10) 0.29141(9) 0.90924(4)
C42_2 C 0.74115(11) 0.56816(10) 0.68715(4)
H24_2 H 0.765345 0.588567 0.667082
C43_2 C 0.78730(14) 0.42155(11) 0.90142(4)
H25_2 H 0.788272 0.469699 0.911221
C44_2 C 0.90204(12) 0.65895(10) 0.84176(5)
C45_2 C 0.76846(12) 0.47904(10) 0.80751(4)
H26_2 H 0.738406 0.439140 0.800081
C46_2 C 0.77551(11) 0.56887(10) 0.72023(4)
H27_2 H 0.823016 0.590117 0.722625
C47_2 C 0.67153(12) 0.50853(11) 0.74535(4)
H28_2 H 0.647191 0.487647 0.765268
C49_2 C 0.84911(12) 0.53389(10) 0.85042(5)
H30_2 H 0.875003 0.531323 0.872292
C50_2 C 0.91164(11) 0.78823(10) 0.85137(5)
H31_2 H 0.892549 0.836464 0.848249
C51_2 C 0.82182(12) 0.59762(10) 0.79598(5)
H32_2 H 0.828062 0.639065 0.780912
C52_2 C 0.85746(13) 0.59496(10) 0.82885(5)
C53_2 C 0.96791(12) 0.64833(10) 0.85990(5)
H33_2 H 0.987487 0.600127 0.862369
C54_2 C 0.87544(12) 0.73010(10) 0.83670(5)
H34_2 H 0.832187 0.738020 0.823062
O18_2 O 0.97220(6) 0.90104(6) 0.88824(3)
O19_2 O 0.78444(6) 0.16423(6) 0.91838(3)
O21_2 O 0.75046(6) 0.60309(6) 0.50814(3)
O22_2 O 0.71156(6) 0.52482(6) 0.55615(3)
O23 O 0.69718(8) 0.48654(8) 0.49466(3)
O24_2 O 0.81490(8) 0.49234(9) 0.52055(4)
Al9_5 Al 1.000000 1.000000 0.89085(2)
Al12 Al 0.85786(3) 0.09120(3) 0.92271(2)
O25_2 O 0.36895(5) 0.38439(6) 0.46538(2)
O26_2 O 0.57679(6) 0.66047(6) 0.60197(2)
O27_2 O 0.42321(6) 0.33953(6) 0.60197(2)
O28_2 O 0.47220(6) 0.59896(6) 0.61176(3)
O29_2 O 0.52780(6) 0.40104(6) 0.61176(3)
O30_2 O 0.28444(6) 0.33577(6) 0.58162(3)
O31_2 O 0.71556(6) 0.66423(6) 0.58162(3)
O33_2 O 0.28387(6) 0.26132(6) 0.53402(2)
O34_2 O 0.39691(6) 0.24954(6) 0.49186(3)
C2_2 C 0.98849(10) 0.15590(9) 0.88709(4)
C21_2 C 0.99480(11) 0.29201(10) 0.87444(4)
H12_2 H 0.949747 0.299341 0.886729
O5_2 O 0.92321(6) 0.16047(6) 0.89803(2)
O33_3 O 0.23868(6) 0.78387(6) 0.03402(2)
O25_3 O 0.11561(6) 0.86895(5) 0.96538(2)
O34_3 O 0.25046(6) 0.89691(6) 0.99186(3)
O25_4 O 0.63105(5) 0.61561(6) 0.46538(2)
O33_4 O 0.71613(6) 0.73868(6) 0.53402(2)
O34_4 O 0.60309(6) 0.75046(6) 0.49186(3)
C29_3 C 0.84410(9) 0.01151(10) 0.11291(4)
C48_3 C 0.70799(10) 0.00520(11) 0.12556(4)
H29_3 H 0.700659 0.050253 0.113271
S1_3 S 0.47357(3) 0.25547(3) 0.48039(2)
O1_3 O 0.48040(5) 0.42950(5) 0.42426(2)
H1_3 H 0.510710 0.429937 0.444803
O2_3 O 0.44098(6) 0.32600(6) 0.37776(3)
O3_3 O 0.48201(6) 0.43088(7) 0.35318(2)
H2_3 H 0.370433 0.435529 0.470553
C1_3 C 0.46207(9) 0.36459(10) 0.35198(4)
C3_3 C 0.65852(10) 0.21274(11) 0.14938(4)
H3_3 H 0.665921 0.211505 0.174333
C4_3 C 0.63699(10) 0.21873(12) 0.07722(5)
H4_3 H 0.629752 0.220401 0.052262
C5_3 C 0.22151(9) 0.02380(10) 0.12912(4)
C6_3 C 0.71865(10) 0.21955(10) 0.12728(4)
H5_3 H 0.766807 0.222141 0.137009
C7_3 C 0.46106(10) 0.25894(12) 0.25042(4)
C8_3 C 0.77311(10) 0.21842(9) 0.06703(4)
C9_3 C 0.49185(11) 0.36278(11) 0.28732(4)
H6_3 H 0.512652 0.410496 0.289653
C10_3 C 0.46066(10) 0.22287(12) 0.21461(4)
C11_3 C 0.58839(10) 0.20772(12) 0.13625(4)
C12_3 C 0.52402(11) 0.19699(13) 0.15960(4)
C13_3 C 0.46241(9) 0.32847(10) 0.31642(4)
C14_3 C 0.70859(9) 0.22262(10) 0.09076(4)
C15_3 C 0.43184(10) 0.25885(11) 0.31285(4)
H7_3 H 0.411433 0.234655 0.332918
C16_3 C 0.57845(11) 0.21270(14) 0.09858(4)
H8_3 H 0.530301 0.211728 0.088779
C17_3 C 0.34105(10) 0.09796(12) 0.15824(5)
C18_3 C 0.52096(10) 0.23154(12) 0.19249(4)
H9_3 H 0.560860 0.261594 0.199919
C19_3 C 0.43113(10) 0.22449(11) 0.27977(4)
H10_3 H 0.409883 0.176984 0.277375
C20_3 C 0.49147(11) 0.32847(12) 0.25465(4)
H11_3 H 0.512353 0.352809 0.234732
C22_3 C 0.46611(10) 0.15089(12) 0.14958(5)
H13_3 H 0.468677 0.124997 0.127708
C23_3 C 0.21177(10) 0.08836(11) 0.14863(5)
H14_3 H 0.163536 0.107451 0.151751
C24_3 C 0.40238(10) 0.17818(12) 0.20402(5)
H15_3 H 0.360935 0.171938 0.219088
C25_3 C 0.40504(10) 0.14254(13) 0.17115(5)
C26_3 C 0.35167(10) 0.03209(12) 0.14010(5)
H16_3 H 0.399873 0.012513 0.137631
C27_3 C 0.26990(10) 0.12456(12) 0.16330(5)
H17_3 H 0.261980 0.167813 0.176938
O10_3 O 0.47518(6) 0.28844(6) 0.44385(3)
O11_2 O 0.51346(8) 0.30282(8) 0.50534(3)
O12_3 O 0.50766(9) 0.18510(8) 0.47945(4)
S2_3 S 0.52643(3) 0.74453(3) 0.48039(2)
O13_3 O 0.51960(5) 0.57050(5) 0.42426(2)
H18_3 H 0.489290 0.570063 0.444803
O14_3 O 0.55902(6) 0.67400(6) 0.37776(3)
O15_3 O 0.51799(6) 0.56912(7) 0.35318(2)
H19_3 H 0.629567 0.564471 0.470553
C28_3 C 0.53793(9) 0.63541(10) 0.35198(4)
C30_3 C 0.34148(10) 0.78726(11) 0.14938(4)
H20_3 H 0.334079 0.788495 0.174333
C31_3 C 0.36301(10) 0.78127(12) 0.07722(5)
H21_3 H 0.370248 0.779599 0.052262
C32_3 C 0.77849(9) 0.97620(10) 0.12912(4)
C33_3 C 0.28135(10) 0.78045(10) 0.12728(4)
H22_3 H 0.233193 0.777859 0.137009
C34_3 C 0.53894(10) 0.74106(12) 0.25042(4)
C35_3 C 0.22689(10) 0.78158(9) 0.06703(4)
C36_3 C 0.50815(11) 0.63722(11) 0.28732(4)
H23_3 H 0.487348 0.589504 0.289653
C37_3 C 0.53934(10) 0.77713(12) 0.21461(4)
C38_3 C 0.41161(10) 0.79228(12) 0.13625(4)
C39_3 C 0.47598(11) 0.80301(13) 0.15960(4)
C40_3 C 0.53759(9) 0.67153(10) 0.31642(4)
C41_3 C 0.29141(9) 0.77738(10) 0.09076(4)
C42_3 C 0.56816(10) 0.74115(11) 0.31285(4)
H24_3 H 0.588567 0.765345 0.332918
C43_3 C 0.42155(11) 0.78730(14) 0.09858(4)
H25_3 H 0.469699 0.788272 0.088779
C44_3 C 0.65895(10) 0.90204(12) 0.15824(5)
C45_3 C 0.47904(10) 0.76846(12) 0.19249(4)
H26_3 H 0.439140 0.738406 0.199919
C46_3 C 0.56887(10) 0.77551(11) 0.27977(4)
H27_3 H 0.590117 0.823016 0.277375
C47_3 C 0.50853(11) 0.67153(12) 0.25465(4)
H28_3 H 0.487647 0.647191 0.234732
C49_3 C 0.53389(10) 0.84911(12) 0.14958(5)
H30_3 H 0.531323 0.875003 0.127708
C50_3 C 0.78823(10) 0.91164(11) 0.14863(5)
H31_3 H 0.836464 0.892549 0.151751
C51_3 C 0.59762(10) 0.82182(12) 0.20402(5)
H32_3 H 0.639065 0.828062 0.219088
C52_3 C 0.59496(10) 0.85746(13) 0.17115(5)
C53_3 C 0.64833(10) 0.96791(12) 0.14010(5)
H33_3 H 0.600127 0.987487 0.137631
C54_3 C 0.73010(10) 0.87544(12) 0.16330(5)
H34_3 H 0.738020 0.832187 0.176938
O22_3 O 0.52482(6) 0.71156(6) 0.44385(3)
O23_2 O 0.48654(8) 0.69718(8) 0.50534(3)
O24_3 O 0.49234(9) 0.81490(8) 0.47945(4)
C2_3 C 0.15590(9) 0.98849(10) 0.11291(4)
C21_3 C 0.29201(10) 0.99480(11) 0.12556(4)
H12_3 H 0.299341 0.949747 0.113271
H1_4 H 0.070063 0.010710 0.944803
C3_4 C 0.28726(11) 0.15852(10) 0.64938(4)
H3_4 H 0.288495 0.165921 0.674333
C4_4 C 0.28127(12) 0.13699(10) 0.57722(5)
H4_4 H 0.279599 0.129752 0.552262
C6_4 C 0.28045(10) 0.21865(10) 0.62728(4)
H5_4 H 0.277859 0.266807 0.637009
C8_4 C 0.28158(9) 0.27311(10) 0.56703(4)
H6_4 H 0.089504 0.012652 0.789653
C11_4 C 0.29228(12) 0.08839(10) 0.63625(4)
C12_4 C 0.30301(13) 0.02402(11) 0.65960(4)
C14_4 C 0.27738(10) 0.20859(9) 0.59076(4)
C16_4 C 0.28730(14) 0.07845(11) 0.59858(4)
H8_4 H 0.288272 0.030301 0.588779
C18_4 C 0.26846(12) 0.02096(10) 0.69249(4)
H9_4 H 0.238406 0.060860 0.699919
H11_4 H 0.147191 0.012353 0.734732
O12_4 O 0.31490(8) 0.00766(9) 0.97945(4)
S1_4 S 0.24453(3) 0.97357(3) 0.98039(2)
O1_4 O 0.07050(5) 0.98040(5) 0.92426(2)
O2_4 O 0.17400(6) 0.94098(6) 0.87776(3)
O3_4 O 0.06912(7) 0.98201(6) 0.85318(2)
H2_4 H 0.064471 0.870433 0.970553
C1_4 C 0.13541(10) 0.96207(9) 0.85198(4)
C2_4 C 0.51151(10) 0.65590(9) 0.61291(4)
C5_4 C 0.47620(10) 0.72151(9) 0.62912(4)
C7_4 C 0.24106(12) 0.96106(10) 0.75042(4)
C9_4 C 0.13722(11) 0.99185(11) 0.78732(4)
C10_4 C 0.27713(12) 0.96066(10) 0.71461(4)
C13_4 C 0.17153(10) 0.96241(9) 0.81642(4)
C15_4 C 0.24115(11) 0.93184(10) 0.81285(4)
H7_4 H 0.265345 0.911433 0.832918
C17_4 C 0.40204(12) 0.84105(10) 0.65824(5)
C19_4 C 0.27551(11) 0.93113(10) 0.77977(4)
H10_4 H 0.323016 0.909883 0.777375
C20_4 C 0.17153(12) 0.99147(11) 0.75465(4)
C21_4 C 0.50520(11) 0.79201(10) 0.62556(4)
H12_4 H 0.550253 0.799341 0.613271
C22_4 C 0.34911(12) 0.96611(10) 0.64958(5)
H13_4 H 0.375003 0.968677 0.627708
C23_4 C 0.41164(11) 0.71177(10) 0.64863(5)
H14_4 H 0.392549 0.663536 0.651751
C24_4 C 0.32182(12) 0.90238(10) 0.70402(5)
H15_4 H 0.328062 0.860935 0.719088
C25_4 C 0.35746(13) 0.90504(10) 0.67115(5)
C26_4 C 0.46791(12) 0.85167(10) 0.64010(5)
H16_4 H 0.487487 0.899873 0.637631
C27_4 C 0.37544(12) 0.76990(10) 0.66330(5)
H17_4 H 0.332187 0.761980 0.676938
O10_4 O 0.21156(6) 0.97518(6) 0.94385(3)
S2_4 S 0.75547(3) 0.02643(3) 0.98039(2)
O13_4 O 0.92950(5) 0.01960(5) 0.92426(2)
O14_4 O 0.82600(6) 0.05902(6) 0.87776(3)
O15_4 O 0.93088(7) 0.01799(6) 0.85318(2)
H19_4 H 0.935529 0.129567 0.970553
C28_4 C 0.86459(10) 0.03793(9) 0.85198(4)
C29_4 C 0.48849(10) 0.34410(9) 0.61291(4)
C32_4 C 0.52380(10) 0.27849(9) 0.62912(4)
C34_4 C 0.75894(12) 0.03894(10) 0.75042(4)
C36_4 C 0.86278(11) 0.00815(11) 0.78732(4)
C37_4 C 0.72287(12) 0.03934(10) 0.71461(4)
C40_4 C 0.82847(10) 0.03759(9) 0.81642(4)
C42_4 C 0.75885(11) 0.06816(10) 0.81285(4)
H24_4 H 0.734655 0.088567 0.832918
C44_4 C 0.59796(12) 0.15895(10) 0.65824(5)
C46_4 C 0.72449(11) 0.06887(10) 0.77977(4)
H27_4 H 0.676984 0.090117 0.777375
C47_4 C 0.82847(12) 0.00853(11) 0.75465(4)
C48_4 C 0.49480(11) 0.20799(10) 0.62556(4)
H29_4 H 0.449747 0.200659 0.613271
C49_4 C 0.65089(12) 0.03389(10) 0.64958(5)
H30_4 H 0.624997 0.031323 0.627708
C50_4 C 0.58836(11) 0.28823(10) 0.64863(5)
H31_4 H 0.607451 0.336464 0.651751
C51_4 C 0.67818(12) 0.09762(10) 0.70402(5)
H32_4 H 0.671938 0.139065 0.719088
C52_4 C 0.64254(13) 0.09496(10) 0.67115(5)
C53_4 C 0.53209(12) 0.14833(10) 0.64010(5)
H33_4 H 0.512513 0.100127 0.637631
C54_4 C 0.62456(12) 0.23010(10) 0.66330(5)
H34_4 H 0.667813 0.238020 0.676938
O22_4 O 0.78844(6) 0.02482(6) 0.94385(3)
H18_4 H 0.929937 0.989290 0.944803
C30_4 C 0.71274(11) 0.84148(10) 0.64938(4)
H20_4 H 0.711505 0.834079 0.674333
C31_4 C 0.71873(12) 0.86301(10) 0.57722(5)
H21_4 H 0.720401 0.870248 0.552262
C33_4 C 0.71955(10) 0.78135(10) 0.62728(4)
H22_4 H 0.722141 0.733193 0.637009
C35_4 C 0.71842(9) 0.72689(10) 0.56703(4)
H23_4 H 0.910496 0.987348 0.789653
C38_4 C 0.70772(12) 0.91161(10) 0.63625(4)
C39_4 C 0.69699(13) 0.97598(11) 0.65960(4)
C41_4 C 0.72262(10) 0.79141(9) 0.59076(4)
C43_4 C 0.71270(14) 0.92155(11) 0.59858(4)
H25_4 H 0.711728 0.969699 0.588779
C45_4 C 0.73154(12) 0.97904(10) 0.69249(4)
H26_4 H 0.761594 0.939140 0.699919
H28_4 H 0.852809 0.987647 0.734732
O24_4 O 0.68510(8) 0.99234(9) 0.97945(4)
O11_3 O 0.01346(8) 0.19718(8) 0.99466(3)
O23_3 O 0.98654(8) 0.80282(8) 0.99466(3)
O11_4 O 0.19718(8) 0.01346(8) 0.00534(3)
O23_4 O 0.80282(8) 0.98654(8) 0.00534(3)
loop_
_geom_bond_atom_site_label_1
_geom_bond_atom_site_label_2
_geom_bond_site_symmetry_1
_geom_bond_site_symmetry_2
C3 H3 1_555 1_555
C4 H4 1_555 1_555
C6 C3 1_555 1_555
H5 C6 1_555 1_555
C8 C14 1_555 1_555
C11 C3 1_555 1_555
C12 C11 1_555 1_555
C14 C4 1_555 1_555
C16 C4 1_555 1_555
H8 C16 1_555 1_555
C18 C12 1_555 1_555
H9 C18 1_555 1_555
O7 C8 1_555 1_555
O8 C8 1_555 1_555
Al5 O8 1_555 1_555
Al11 O7 1_555 1_555
O28 Al2 1_555 1_555
C6 C14 1_555 1_555
C11 C16 1_555 1_555
S2 O21 1_555 1_555
Al4 O13 1_555 1_555
O13 Al2_2 1_555 1_555
O14 Al4 1_555 1_555
O15 Al2_2 1_555 1_555
O16 Al4 1_555 1_555
H19 O16 1_555 1_555
C28 O14 1_555 1_555
C29 C32 1_555 1_555
C32 C48 1_555 1_555
C34 C37 1_555 1_555
C40 C28 1_555 1_555
C42 C40 1_555 1_555
H24 C42 1_555 1_555
C44 C52 1_555 1_555
C46 C34 1_555 1_555
H27 C46 1_555 1_555
C47 C34 1_555 1_555
C48 H29 1_555 1_555
H30 C49 1_555 1_555
C50 C32 1_555 1_555
H31 C50 1_555 1_555
C51 C37 1_555 1_555
H32 C51 1_555 1_555
C52 C49 1_555 1_555
C53 C44 1_555 1_555
H33 C53 1_555 1_555
C54 C44 1_555 1_555
H34 C54 1_555 1_555
O17 C29 1_555 1_555
O18 C29 1_555 1_555
O21 Al6 1_555 1_555
O22 S2 1_555 1_555
Al6 O16 1_555 1_555
Al9 O18 1_555 1_555
Al11 O17 1_555 1_555
O26 Al4 1_555 1_555
O31 Al4 1_555 1_555
Al4 O22 1_555 1_555
O15 C28 1_555 1_555
C36 C40 1_555 1_555
C36 C47 1_555 1_555
C42 C46 1_555 1_555
C48 C53 1_555 1_555
C50 C54 1_555 1_555
C51 C52 1_555 1_555
Al1 O4 1_555 1_555
Al2_3 O1 1_555 1_555
S1 O9 1_555 1_555
Al3 O1 1_555 1_555
O2 Al3 1_555 1_555
O3 Al2_3 1_555 1_555
O4 Al3 1_555 1_555
H2 O4 1_555 1_555
C1 O2 1_555 1_555
C2 C5 1_555 1_555
C5 C21 1_555 1_555
C7 C10 1_555 1_555
C13 C1 1_555 1_555
C15 C13 1_555 1_555
H7 C15 1_555 1_555
C17 C25 1_555 1_555
C19 C7 1_555 1_555
H10 C19 1_555 1_555
C20 C7 1_555 1_555
C21 H12 1_555 1_555
H13 C22 1_555 1_555
C23 C5 1_555 1_555
H14 C23 1_555 1_555
C24 C10 1_555 1_555
H15 C24 1_555 1_555
C25 C22 1_555 1_555
C26 C17 1_555 1_555
H16 C26 1_555 1_555
C27 C17 1_555 1_555
H17 C27 1_555 1_555
O5 C2 1_555 1_555
O6 C2 1_555 1_555
O9 Al1 1_555 1_555
O10 S1 1_555 1_555
Al9 O6 1_555 1_555
Al13 O5 1_555 1_555
O27 Al3 1_555 1_555
O30 Al3 1_555 1_555
O33 Al1 1_555 1_555
Al3 O10 1_555 1_555
O3 C1 1_555 1_555
C9 C13 1_555 1_555
C9 C20 1_555 1_555
C15 C19 1_555 1_555
C21 C26 1_555 1_555
C23 C27 1_555 1_555
C24 C25 1_555 1_555
O25 Al1_2 1_555 1_555
O32 Al1_2 1_555 1_555
O34 Al1_2 1_555 1_555
C30 H20 1_555 1_555
C31 H21 1_555 1_555
C33 C30 1_555 1_555
H22 C33 1_555 1_555
C35 C41 1_555 1_555
C38 C30 1_555 1_555
C39 C38 1_555 1_555
C41 C31 1_555 1_555
C43 C31 1_555 1_555
H25 C43 1_555 1_555
C45 C39 1_555 1_555
H26 C45 1_555 1_555
O19 C35 1_555 1_555
O20 C35 1_555 1_555
Al7 O20 1_555 1_555
Al13 O19 1_555 1_555
O29 Al2_4 1_555 1_555
C33 C41 1_555 1_555
C38 C43 1_555 1_555
C48_2 H29_2 1_555 1_555
O17_2 C29_2 1_555 1_555
Al10 O17_2 1_555 1_555
Al5 O4_2 1_555 1_555
Al2_5 O1_2 1_555 1_555
S1_2 O9_2 1_555 1_555
Al3_2 O1_2 1_555 1_555
O1_2 H1_2 1_555 1_555
O2_2 Al3_2 1_555 1_555
O3_2 Al2_5 1_555 1_555
O4_2 Al3_2 1_555 1_555
H2_2 O4_2 1_555 1_555
C1_2 O2_2 1_555 1_555
C3_2 H3_2 1_555 1_555
C4_2 H4_2 1_555 1_555
C6_2 C3_2 1_555 1_555
H5_2 C6_2 1_555 1_555
C7_2 C10_2 1_555 1_555
C8_2 C14_2 1_555 1_555
C9_2 H6_2 1_555 1_555
C10_2 C18_2 1_555 1_555
C11_2 C3_2 1_555 1_555
C12_2 C11_2 1_555 1_555
C13_2 C1_2 1_555 1_555
C14_2 C4_2 1_555 1_555
C15_2 C13_2 1_555 1_555
H7_2 C15_2 1_555 1_555
C16_2 C4_2 1_555 1_555
H8_2 C16_2 1_555 1_555
C17_2 C25_2 1_555 1_555
C18_2 C12_2 1_555 1_555
H9_2 C18_2 1_555 1_555
C19_2 C7_2 1_555 1_555
H10_2 C19_2 1_555 1_555
C20_2 C7_2 1_555 1_555
H11_2 C20_2 1_555 1_555
C22_2 C12_2 1_555 1_555
H13_2 C22_2 1_555 1_555
C23_2 C5_2 1_555 1_555
H14_2 C23_2 1_555 1_555
C24_2 C10_2 1_555 1_555
H15_2 C24_2 1_555 1_555
C25_2 C22_2 1_555 1_555
C26_2 C17_2 1_555 1_555
H16_2 C26_2 1_555 1_555
C27_2 C17_2 1_555 1_555
H17_2 C27_2 1_555 1_555
O7_2 C8_2 1_555 1_555
O8_2 C8_2 1_555 1_555
O9_2 Al5 1_555 1_555
O10_2 S1_2 1_555 1_555
O11 S1_2 1_555 1_555
O12_2 S1_2 1_555 1_555
S2_2 O21_2 1_555 1_555
Al4_2 O13_2 1_555 1_555
O13_2 Al2_5 1_555 1_555
H18_2 O13_2 1_555 1_555
O14_2 Al4_2 1_555 1_555
O15_2 Al2_5 1_555 1_555
O16_2 Al4_2 1_555 1_555
H19_2 O16_2 1_555 1_555
C28_2 O14_2 1_555 1_555
C30_2 H20_2 1_555 1_555
C31_2 H21_2 1_555 1_555
C33_2 C30_2 1_555 1_555
H22_2 C33_2 1_555 1_555
C34_2 C37_2 1_555 1_555
C35_2 C41_2 1_555 1_555
C36_2 H23_2 1_555 1_555
C37_2 C45_2 1_555 1_555
C38_2 C30_2 1_555 1_555
C39_2 C38_2 1_555 1_555
C40_2 C28_2 1_555 1_555
C41_2 C31_2 1_555 1_555
C42_2 C40_2 1_555 1_555
H24_2 C42_2 1_555 1_555
C43_2 C31_2 1_555 1_555
H25_2 C43_2 1_555 1_555
C44_2 C52_2 1_555 1_555
C45_2 C39_2 1_555 1_555
H26_2 C45_2 1_555 1_555
C46_2 C34_2 1_555 1_555
H27_2 C46_2 1_555 1_555
C47_2 C34_2 1_555 1_555
H28_2 C47_2 1_555 1_555
C49_2 C39_2 1_555 1_555
H30_2 C49_2 1_555 1_555
C50_2 C32_2 1_555 1_555
H31_2 C50_2 1_555 1_555
C51_2 C37_2 1_555 1_555
H32_2 C51_2 1_555 1_555
C52_2 C49_2 1_555 1_555
C53_2 C44_2 1_555 1_555
H33_2 C53_2 1_555 1_555
C54_2 C44_2 1_555 1_555
H34_2 C54_2 1_555 1_555
O19_2 C35_2 1_555 1_555
O32 C35_2 1_555 1_555
O21_2 Al7 1_555 1_555
O22_2 S2_2 1_555 1_555
O23 S2_2 1_555 1_555
O24_2 S2_2 1_555 1_555
Al6_2 O8_2 1_555 1_555
Al7 O16_2 1_555 1_555
Al9_2 O6_2 1_555 1_555
Al9_5 O18_2 1_555 1_555
Al10 O7_2 1_555 1_555
Al12 O19_2 1_555 1_555
O25_2 Al5 1_555 1_555
O26_2 Al4_2 1_555 1_555
O27_2 Al3_2 1_555 1_555
O28_2 Al2_5 1_555 1_555
O29_2 Al2_5 1_555 1_555
O30_2 Al3_2 1_555 1_555
O31_2 Al4_2 1_555 1_555
O33_2 Al5 1_555 1_555
O34_2 Al5 1_555 1_555
Al3_2 O10_2 1_555 1_555
O3_2 C1_2 1_555 1_555
C6_2 C14_2 1_555 1_555
C9_2 C13_2 1_555 1_555
C9_2 C20_2 1_555 1_555
C11_2 C16_2 1_555 1_555
C15_2 C19_2 1_555 1_555
C23_2 C27_2 1_555 1_555
C24_2 C25_2 1_555 1_555
Al4_2 O22_2 1_555 1_555
O15_2 C28_2 1_555 1_555
C33_2 C41_2 1_555 1_555
C36_2 C40_2 1_555 1_555
C36_2 C47_2 1_555 1_555
C38_2 C43_2 1_555 1_555
C42_2 C46_2 1_555 1_555
C50_2 C54_2 1_555 1_555
C51_2 C52_2 1_555 1_555
C21_2 H12_2 1_555 1_555
O5_2 C2_2 1_555 1_555
Al12 O5_2 1_555 1_555
O33_3 Al6 1_555 1_555
O25_3 Al6_2 1_555 1_555
O34_3 Al6_2 1_555 1_555
O25_4 Al7 1_555 1_555
O33_4 Al7 1_555 1_555
O34_4 Al7 1_555 1_555
C48_3 H29_3 1_555 1_555
O27 C29_3 1_555 1_555
Al9 O1_3 1_555 1_555
S1_3 O34_2 1_555 1_555
Al11 O1_3 1_555 1_555
O1_3 H1_3 1_555 1_555
O2_3 Al11 1_555 1_555
O3_3 Al9 1_555 1_555
O25_2 Al11 1_555 1_555
H2_3 O25_2 1_555 1_555
C1_3 O2_3 1_555 1_555
C3_3 H3_3 1_555 1_555
C4_3 H4_3 1_555 1_555
C6_3 C3_3 1_555 1_555
H5_3 C6_3 1_555 1_555
C7_3 C10_3 1_555 1_555
C8_3 C14_3 1_555 1_555
C9_3 H6_3 1_555 1_555
C10_3 C18_3 1_555 1_555
C11_3 C3_3 1_555 1_555
C12_3 C11_3 1_555 1_555
C13_3 C1_3 1_555 1_555
C14_3 C4_3 1_555 1_555
C15_3 C13_3 1_555 1_555
H7_3 C15_3 1_555 1_555
C16_3 C4_3 1_555 1_555
H8_3 C16_3 1_555 1_555
C17_3 C25_3 1_555 1_555
C18_3 C12_3 1_555 1_555
H9_3 C18_3 1_555 1_555
C19_3 C7_3 1_555 1_555
H10_3 C19_3 1_555 1_555
C20_3 C7_3 1_555 1_555
H11_3 C20_3 1_555 1_555
C22_3 C12_3 1_555 1_555
H13_3 C22_3 1_555 1_555
C23_3 C5_3 1_555 1_555
H14_3 C23_3 1_555 1_555
C24_3 C10_3 1_555 1_555
H15_3 C24_3 1_555 1_555
C25_3 C22_3 1_555 1_555
C26_3 C17_3 1_555 1_555
H16_3 C26_3 1_555 1_555
C27_3 C17_3 1_555 1_555
H17_3 C27_3 1_555 1_555
O30 C8_3 1_555 1_555
O33 C8_3 1_555 1_555
O10_3 S1_3 1_555 1_555
O11_2 S1_3 1_555 1_555
O12_3 S1_3 1_555 1_555
S2_3 O34_4 1_555 1_555
Al13 O13_3 1_555 1_555
O13_3 Al9 1_555 1_555
H18_3 O13_3 1_555 1_555
O14_3 Al13 1_555 1_555
O15_3 Al9 1_555 1_555
O25_4 Al13 1_555 1_555
H19_3 O25_4 1_555 1_555
C28_3 O14_3 1_555 1_555
C30_3 H20_3 1_555 1_555
C31_3 H21_3 1_555 1_555
C33_3 C30_3 1_555 1_555
H22_3 C33_3 1_555 1_555
C34_3 C37_3 1_555 1_555
C35_3 C41_3 1_555 1_555
C36_3 H23_3 1_555 1_555
C37_3 C45_3 1_555 1_555
C38_3 C30_3 1_555 1_555
C39_3 C38_3 1_555 1_555
C40_3 C28_3 1_555 1_555
C41_3 C31_3 1_555 1_555
C42_3 C40_3 1_555 1_555
H24_3 C42_3 1_555 1_555
C43_3 C31_3 1_555 1_555
H25_3 C43_3 1_555 1_555
C44_3 C52_3 1_555 1_555
C45_3 C39_3 1_555 1_555
H26_3 C45_3 1_555 1_555
C46_3 C34_3 1_555 1_555
H27_3 C46_3 1_555 1_555
C47_3 C34_3 1_555 1_555
H28_3 C47_3 1_555 1_555
C49_3 C39_3 1_555 1_555
H30_3 C49_3 1_555 1_555
C50_3 C32_3 1_555 1_555
H31_3 C50_3 1_555 1_555
C51_3 C37_3 1_555 1_555
H32_3 C51_3 1_555 1_555
C52_3 C49_3 1_555 1_555
C53_3 C44_3 1_555 1_555
H33_3 C53_3 1_555 1_555
C54_3 C44_3 1_555 1_555
H34_3 C54_3 1_555 1_555
O31 C35_3 1_555 1_555
O33_3 C35_3 1_555 1_555
O22_3 S2_3 1_555 1_555
O23_2 S2_3 1_555 1_555
O24_3 S2_3 1_555 1_555
Al11 O10_3 1_555 1_555
O3_3 C1_3 1_555 1_555
C6_3 C14_3 1_555 1_555
C9_3 C13_3 1_555 1_555
C9_3 C20_3 1_555 1_555
C11_3 C16_3 1_555 1_555
C15_3 C19_3 1_555 1_555
C23_3 C27_3 1_555 1_555
C24_3 C25_3 1_555 1_555
Al13 O22_3 1_555 1_555
O15_3 C28_3 1_555 1_555
C33_3 C41_3 1_555 1_555
C36_3 C40_3 1_555 1_555
C36_3 C47_3 1_555 1_555
C38_3 C43_3 1_555 1_555
C42_3 C46_3 1_555 1_555
C50_3 C54_3 1_555 1_555
C51_3 C52_3 1_555 1_555
C21_3 H12_3 1_555 1_555
O26 C2_3 1_555 1_555
C3_4 H3_4 1_555 1_555
C4_4 H4_4 1_555 1_555
C6_4 C3_4 1_555 1_555
H5_4 C6_4 1_555 1_555
C8_4 C14_4 1_555 1_555
C11_4 C3_4 1_555 1_555
C12_4 C11_4 1_555 1_555
C14_4 C4_4 1_555 1_555
C16_4 C4_4 1_555 1_555
H8_4 C16_4 1_555 1_555
C18_4 C12_4 1_555 1_555
H9_4 C18_4 1_555 1_555
O30_2 C8_4 1_555 1_555
O33_2 C8_4 1_555 1_555
C6_4 C14_4 1_555 1_555
C11_4 C16_4 1_555 1_555
Al9_3 O1_4 1_555 1_555
S1_4 O34_3 1_555 1_555
Al10 O1_4 1_555 1_555
O2_4 Al10 1_555 1_555
O3_4 Al9_3 1_555 1_555
O25_3 Al10 1_555 1_555
H2_4 O25_3 1_555 1_555
C1_4 O2_4 1_555 1_555
C2_4 C5_4 1_555 1_555
C5_4 C21_4 1_555 1_555
C7_4 C10_4 1_555 1_555
C13_4 C1_4 1_555 1_555
C15_4 C13_4 1_555 1_555
H7_4 C15_4 1_555 1_555
C17_4 C25_4 1_555 1_555
C19_4 C7_4 1_555 1_555
H10_4 C19_4 1_555 1_555
C20_4 C7_4 1_555 1_555
C21_4 H12_4 1_555 1_555
H13_4 C22_4 1_555 1_555
C23_4 C5_4 1_555 1_555
H14_4 C23_4 1_555 1_555
C24_4 C10_4 1_555 1_555
H15_4 C24_4 1_555 1_555
C25_4 C22_4 1_555 1_555
C26_4 C17_4 1_555 1_555
H16_4 C26_4 1_555 1_555
C27_4 C17_4 1_555 1_555
H17_4 C27_4 1_555 1_555
O26_2 C2_4 1_555 1_555
O28_2 C2_4 1_555 1_555
O10_4 S1_4 1_555 1_555
Al10 O10_4 1_555 1_555
O3_4 C1_4 1_555 1_555
C9_4 C13_4 1_555 1_555
C9_4 C20_4 1_555 1_555
C15_4 C19_4 1_555 1_555
C21_4 C26_4 1_555 1_555
C23_4 C27_4 1_555 1_555
C24_4 C25_4 1_555 1_555
S2_4 O34 1_555 1_555
Al12 O13_4 1_555 1_555
O13_4 Al9_4 1_555 1_555
O14_4 Al12 1_555 1_555
O15_4 Al9_4 1_555 1_555
O25 Al12 1_555 1_555
H19_4 O25 1_555 1_555
C28_4 O14_4 1_555 1_555
C29_4 C32_4 1_555 1_555
C32_4 C48_4 1_555 1_555
C34_4 C37_4 1_555 1_555
C40_4 C28_4 1_555 1_555
C42_4 C40_4 1_555 1_555
H24_4 C42_4 1_555 1_555
C44_4 C52_4 1_555 1_555
C46_4 C34_4 1_555 1_555
H27_4 C46_4 1_555 1_555
C47_4 C34_4 1_555 1_555
C48_4 H29_4 1_555 1_555
H30_4 C49_4 1_555 1_555
C50_4 C32_4 1_555 1_555
H31_4 C50_4 1_555 1_555
C51_4 C37_4 1_555 1_555
H32_4 C51_4 1_555 1_555
C52_4 C49_4 1_555 1_555
C53_4 C44_4 1_555 1_555
H33_4 C53_4 1_555 1_555
C54_4 C44_4 1_555 1_555
H34_4 C54_4 1_555 1_555
O27_2 C29_4 1_555 1_555
O29_2 C29_4 1_555 1_555
O22_4 S2_4 1_555 1_555
Al12 O22_4 1_555 1_555
O15_4 C28_4 1_555 1_555
C36_4 C40_4 1_555 1_555
C36_4 C47_4 1_555 1_555
C42_4 C46_4 1_555 1_555
C48_4 C53_4 1_555 1_555
C50_4 C54_4 1_555 1_555
C51_4 C52_4 1_555 1_555
C30_4 H20_4 1_555 1_555
C31_4 H21_4 1_555 1_555
C33_4 C30_4 1_555 1_555
H22_4 C33_4 1_555 1_555
C35_4 C41_4 1_555 1_555
C38_4 C30_4 1_555 1_555
C39_4 C38_4 1_555 1_555
C41_4 C31_4 1_555 1_555
C43_4 C31_4 1_555 1_555
H25_4 C43_4 1_555 1_555
C45_4 C39_4 1_555 1_555
H26_4 C45_4 1_555 1_555
O31_2 C35_4 1_555 1_555
O33_4 C35_4 1_555 1_555
C33_4 C41_4 1_555 1_555
C38_4 C43_4 1_555 1_555

#END
