
###############################################################################
#
# This file contains modified crystal structure data generated from the
# MOF subset of the Cambridge Structural Database (CSD) v543 
# hosted by the Cambridge Crystallographic Data Centre (CCDC).
#
# This work is licensed under the Creative Commons
# Attribution-NonCommercial-ShareAlike 4.0 International License.
# To view a copy of this license, visit
# http://creativecommons.org/licenses/by-nc-sa/4.0/
# or send a letter to
# Creative Commons, PO Box 1866, Mountain View, CA 94042, USA.
#
# CIF created using the CSD Python API on 29 September 2022
# The structure has been converted into the P1 space group
# The structure has a 3D framework
# The original CSD entry QOXSOO is in the tetragonal crystal system
# The original CSD entry QOXSOO is in a Sohncke space group
# The framework has been calculated to contain at least 10.0% void space
# The void calculation uses a probe of radius 1.32A, grid spacing 0.4
#
###############################################################################

data_QOXSOO
_chemical_formula_moiety         '(C344 H264 Al16 N24 O84)n'
_symmetry_cell_setting           triclinic
_symmetry_space_group_name_H-M   'P 1'
_symmetry_Int_Tables_number      1
_space_group_name_Hall           'P 1'
loop_
_symmetry_equiv_pos_site_id
_symmetry_equiv_pos_as_xyz
1 x,y,z
_cell_length_a                   19.3750(9)
_cell_length_b                   19.3750(9)
_cell_length_c                   35.8159(16)
_cell_angle_alpha                90
_cell_angle_beta                 90
_cell_angle_gamma                90
_cell_volume                     13445
loop_
_atom_site_label
_atom_site_type_symbol
_atom_site_fract_x
_atom_site_fract_y
_atom_site_fract_z
O18 O 0.0474(3) 0.15830(17) 0.89728(11)
H45 H 0.012096 0.281492 0.894823
Al9 Al 0.000000 0.000000 0.88452(5)
Al11 Al 0.11973(9) 0.10427(7) 0.91815(4)
Al9_2 Al 0.000000 1.000000 0.88452(5)
Al6 Al 0.83943(6) 0.83943(6) -0.000000
Al7 Al 0.16057(6) 0.16057(6) -0.000000
Al1 Al 0.33943(6) 0.66057(6) 0.500000
Al2 Al 0.500000 0.500000 0.61548(5)
Al3 Al 0.38027(9) 0.60427(7) 0.58185(4)
O1 O 0.0418(2) 0.91090(16) 0.88249(10)
O2 O 0.4400(3) 0.52585(18) 0.65507(9)
O3 O 0.40315(19) 0.63211(19) 0.53466(8)
H1 H 0.450477 0.631837 0.527722
O4 O 0.43600(19) 0.52744(15) 0.58008(8)
H2 H 0.431444 0.498780 0.558697
O5 O 0.1875(2) 0.23460(17) 0.96824(8)
O6 O 0.1747(2) 0.18416(19) 0.91231(9)
O8 O 0.3496(3) 0.5816(2) 0.63036(10)
N1 N 0.2782(11) 0.5896(10) 0.5245(6)
C1 C 0.1857(3) 0.2355(3) 0.93300(13)
N2 N 0.2950(9) 0.5598(8) 0.5574(4)
C2 C 0.0136(4) 0.8526(2) 0.88676(13)
C3 C 0.0578(4) 0.7917(2) 0.87831(16)
C4 C 0.3807(4) 0.5544(3) 0.65709(14)
C5 C 0.3488(4) 0.5567(3) 0.69447(15)
C6 C 0.1957(3) 0.3033(3) 0.91372(14)
C7 C 0.2068(5) 0.4282(3) 0.87646(17)
C8 C 0.1243(4) 0.7996(3) 0.86439(18)
H3 H 0.142830 0.844584 0.861181
C9 C 0.1638(5) 0.7426(3) 0.85515(19)
H4 H 0.208633 0.748918 0.844942
C10 C 0.2047(4) 0.3631(3) 0.93350(15)
H5 H 0.207019 0.361483 0.959984
C11 C 0.2105(5) 0.4262(3) 0.91531(18)
H6 H 0.216984 0.467490 0.929188
C12 C 0.2843(5) 0.5589(3) 0.76445(17)
C13 C 0.2563(5) 0.5940(3) 0.73373(18)
H7 H 0.215340 0.620241 0.736946
C14 C 0.3783(4) 0.5221(3) 0.72402(16)
H8 H 0.420144 0.497291 0.720744
C15 C 0.1922(4) 0.3044(3) 0.87522(15)
H9 H 0.186242 0.262726 0.861580
C16 C 0.2865(5) 0.5914(3) 0.69933(17)
H10 H 0.264973 0.613242 0.678646
C17 C 0.3459(5) 0.5237(3) 0.75885(16)
H11 H 0.366579 0.500101 0.779248
C18 C 0.1386(5) 0.6761(3) 0.86066(19)
C19 C 0.0326(5) 0.7249(3) 0.8845(2)
C20 C 0.1975(5) 0.3674(3) 0.85659(16)
H13 H 0.194650 0.368670 0.830122
C21 C 0.2482(6) 0.5593(3) 0.8006(2)
C22 C 0.1782(5) 0.5534(3) 0.8687(2)
H14 H 0.155588 0.552091 0.892184
C23 C 0.2124(6) 0.6162(3) 0.8141(2)
H15 H 0.211232 0.657230 0.799533
C24 C 0.0733(6) 0.6678(3) 0.8755(2)
H16 H 0.055881 0.622635 0.879571
C25 C 0.2471(5) 0.4980(3) 0.82224(18)
H17 H 0.271869 0.458686 0.813764
C26 C 0.2107(6) 0.4942(3) 0.85527(18)
C27 C 0.1783(6) 0.6150(3) 0.8479(2)
C28 C 0.2473(17) 0.5055(14) 0.5570(8)
C29 C 0.2277(12) 0.5474(13) 0.5045(9)
C30 C 0.1737(13) 0.4212(13) 0.5891(7)
H18 H 0.141353 0.458999 0.596553
O9 O 0.1379(17) 0.4233(16) 0.4917(10)
N3 N 0.1501(19) 0.3998(17) 0.5520(8)
C31 C 0.1634(18) 0.4353(19) 0.5197(9)
C32 C 0.2074(11) 0.4948(11) 0.5282(7)
C33 C 0.2451(10) 0.4543(10) 0.5901(7)
H19 H 0.281461 0.418802 0.587362
H20 H 0.252286 0.478961 0.613998
C34 C 0.1392(12) 0.3019(9) 0.6125(5)
C35 C 0.1659(11) 0.3674(8) 0.6191(5)
C36 C 0.1833(14) 0.3872(9) 0.6552(6)
H21 H 0.201504 0.431903 0.659738
C37 C 0.1740(15) 0.3415(13) 0.6847(5)
C38 C 0.1473(15) 0.2760(12) 0.6781(5)
C39 C 0.1299(14) 0.2562(8) 0.6420(6)
H22 H 0.111698 0.211456 0.637543
C40 C 0.132(3) 0.280(2) 0.5725(8)
H23 H 0.101392 0.239476 0.570725
H24 H 0.177827 0.267304 0.562347
C41 C 0.102(2) 0.3401(19) 0.5497(13)
H25 H 0.095764 0.325990 0.523290
H26 H 0.055985 0.353275 0.559748
O10 O 0.1269(18) 0.2334(14) 0.7068(8)
C42 C 0.099(2) 0.1680(16) 0.6992(13)
H27 H 0.087172 0.144865 0.722712
H28 H 0.056908 0.173272 0.684081
H29 H 0.132539 0.140168 0.685459
O11 O 0.177(2) 0.351(2) 0.7223(11)
C43 C 0.185(3) 0.421(2) 0.7276(15)
H30 H 0.187612 0.431233 0.754372
H31 H 0.228000 0.436348 0.715494
H32 H 0.145975 0.445840 0.716600
H33 H 0.211713 0.554717 0.479697
Al4 Al 0.61973(9) 0.39573(7) 0.58185(4)
O12 O 0.9582(2) 0.08910(16) 0.88249(10)
O13 O 0.5600(3) 0.47415(18) 0.65507(9)
O14 O 0.59685(19) 0.36789(19) 0.53466(8)
H34 H 0.549523 0.368163 0.527722
O15 O 0.56400(19) 0.47256(15) 0.58008(8)
H35 H 0.568556 0.501220 0.558697
O16 O 0.8125(2) 0.76540(17) 0.96824(8)
O17 O 0.8253(2) 0.81584(19) 0.91231(9)
O19 O 0.6504(3) 0.4184(2) 0.63036(10)
N4 N 0.7218(11) 0.4104(10) 0.5245(6)
C44 C 0.8143(3) 0.7645(3) 0.93300(13)
N5 N 0.7050(9) 0.4402(8) 0.5574(4)
C45 C 0.9864(4) 0.1474(2) 0.88676(13)
C46 C 0.9422(4) 0.2083(2) 0.87831(16)
C47 C 0.6193(4) 0.4456(3) 0.65709(14)
C48 C 0.6512(4) 0.4433(3) 0.69447(15)
C49 C 0.8043(3) 0.6967(3) 0.91372(14)
C50 C 0.7932(5) 0.5718(3) 0.87646(17)
C51 C 0.8757(4) 0.2004(3) 0.86439(18)
H36 H 0.857170 0.155416 0.861181
C52 C 0.8362(5) 0.2574(3) 0.85515(19)
H37 H 0.791367 0.251082 0.844942
C53 C 0.7953(4) 0.6369(3) 0.93350(15)
H38 H 0.792981 0.638517 0.959984
C54 C 0.7895(5) 0.5738(3) 0.91531(18)
H39 H 0.783016 0.532510 0.929188
C55 C 0.7157(5) 0.4411(3) 0.76445(17)
C56 C 0.7437(5) 0.4060(3) 0.73373(18)
H40 H 0.784660 0.379759 0.736946
C57 C 0.6217(4) 0.4779(3) 0.72402(16)
H41 H 0.579856 0.502709 0.720744
C58 C 0.8078(4) 0.6956(3) 0.87522(15)
H42 H 0.813758 0.737274 0.861580
C59 C 0.7135(5) 0.4086(3) 0.69933(17)
H43 H 0.735027 0.386758 0.678646
C60 C 0.6541(5) 0.4763(3) 0.75885(16)
H44 H 0.633421 0.499899 0.779248
C61 C 0.8614(5) 0.3239(3) 0.86066(19)
C62 C 0.9674(5) 0.2751(3) 0.8845(2)
C63 C 0.8025(5) 0.6326(3) 0.85659(16)
H46 H 0.805350 0.631330 0.830122
C64 C 0.7518(6) 0.4407(3) 0.8006(2)
C65 C 0.8218(5) 0.4466(3) 0.8687(2)
H47 H 0.844412 0.447909 0.892184
C66 C 0.7876(6) 0.3838(3) 0.8141(2)
H48 H 0.788768 0.342770 0.799533
C67 C 0.9267(6) 0.3322(3) 0.8755(2)
H49 H 0.944119 0.377365 0.879571
C68 C 0.7529(5) 0.5020(3) 0.82224(18)
H50 H 0.728131 0.541314 0.813764
C69 C 0.7893(6) 0.5058(3) 0.85527(18)
C70 C 0.8217(6) 0.3850(3) 0.8479(2)
C71 C 0.7527(17) 0.4945(14) 0.5570(8)
C72 C 0.7723(12) 0.4526(13) 0.5045(9)
C73 C 0.8263(13) 0.5788(13) 0.5891(7)
H51 H 0.858647 0.541001 0.596553
O20 O 0.8621(17) 0.5767(16) 0.4917(10)
N6 N 0.8499(19) 0.6002(17) 0.5520(8)
C74 C 0.8366(18) 0.5647(19) 0.5197(9)
C75 C 0.7926(11) 0.5052(11) 0.5282(7)
C76 C 0.7549(10) 0.5457(10) 0.5901(7)
H52 H 0.718539 0.581198 0.587362
H53 H 0.747714 0.521039 0.613998
C77 C 0.8608(12) 0.6981(9) 0.6125(5)
C78 C 0.8341(11) 0.6326(8) 0.6191(5)
C79 C 0.8167(14) 0.6128(9) 0.6552(6)
H54 H 0.798496 0.568097 0.659738
C80 C 0.8260(15) 0.6585(13) 0.6847(5)
C81 C 0.8527(15) 0.7240(12) 0.6781(5)
C82 C 0.8701(14) 0.7438(8) 0.6420(6)
H55 H 0.888302 0.788544 0.637543
C83 C 0.868(3) 0.720(2) 0.5725(8)
H56 H 0.898608 0.760524 0.570725
H57 H 0.822173 0.732696 0.562347
C84 C 0.898(2) 0.6599(19) 0.5497(13)
H58 H 0.904236 0.674010 0.523290
H59 H 0.944015 0.646725 0.559748
O21 O 0.8731(18) 0.7666(14) 0.7068(8)
C85 C 0.901(2) 0.8320(16) 0.6992(13)
H60 H 0.912828 0.855135 0.722712
H61 H 0.943092 0.826728 0.684081
H62 H 0.867461 0.859832 0.685459
O22 O 0.823(2) 0.649(2) 0.7223(11)
C86 C 0.815(3) 0.579(2) 0.7276(15)
H63 H 0.812388 0.568767 0.754372
H64 H 0.772000 0.563652 0.715494
H65 H 0.854025 0.554160 0.716600
H66 H 0.788287 0.445283 0.479697
Al5 Al 0.66057(6) 0.33943(6) 0.500000
Al6_2 Al 0.83943(6) 0.83943(6) 1.000000
Al7_2 Al 0.16057(6) 0.16057(6) 1.000000
Al9_3 Al 1.000000 0.000000 0.88452(5)
Al13 Al 0.88027(9) 0.89573(7) 0.91815(4)
O23 O 0.4582(2) 0.41090(16) 0.61751(10)
O24 O 0.5418(2) 0.58910(16) 0.61751(10)
O25 O 0.36789(19) 0.59685(19) 0.46534(8)
O26 O 0.26540(17) 0.6875(2) 0.46824(8)
O27 O 0.3125(2) 0.73460(17) 0.53176(8)
O28 O 0.3253(2) 0.68416(19) 0.58769(9)
O29 O 0.6747(2) 0.31584(19) 0.58769(9)
O30 O 0.5474(3) 0.34170(17) 0.60272(11)
O31 O 0.4526(3) 0.65830(17) 0.60272(11)
N7 N 0.4104(10) 0.7218(11) 0.4755(6)
Al9_4 Al 1.000000 1.000000 0.88452(5)
O7 O 0.9526(3) 0.84170(17) 0.89728(11)
H12 H 0.987904 0.718508 0.894823
O25_2 O 0.63211(19) 0.40315(19) 0.46534(8)
O26_2 O 0.73460(17) 0.3125(2) 0.46824(8)
O27_2 O 0.6875(2) 0.26540(17) 0.53176(8)
N7_2 N 0.5896(10) 0.2782(11) 0.4755(6)
Al2_2 Al -0.000000 0.000000 0.11548(5)
Al4_2 Al 0.10427(7) 0.11973(9) 0.08185(4)
O12_2 O 0.41090(16) 0.4582(2) 0.38249(10)
O13_2 O 0.02585(18) 0.0600(3) 0.15507(9)
O14_2 O 0.13211(19) 0.09685(19) 0.03466(8)
H34_2 H 0.131837 0.049523 0.027722
O15_2 O 0.02744(15) 0.06400(19) 0.08008(8)
O18_2 O 0.34170(17) 0.5474(3) 0.39728(11)
O19_2 O 0.0816(2) 0.1504(3) 0.13036(10)
N4_2 N 0.0896(10) 0.2218(11) 0.0245(6)
N5_2 N 0.0598(8) 0.2050(9) 0.0574(4)
C45_2 C 0.3526(2) 0.4864(4) 0.38676(13)
C46_2 C 0.2917(2) 0.4422(4) 0.37831(16)
C47_2 C 0.0544(3) 0.1193(4) 0.15709(14)
C48_2 C 0.0567(3) 0.1512(4) 0.19447(15)
C51_2 C 0.2996(3) 0.3757(4) 0.36439(18)
H36_2 H 0.344584 0.357170 0.361181
C52_2 C 0.2426(3) 0.3362(5) 0.35515(19)
H37_2 H 0.248918 0.291367 0.344942
C55_2 C 0.0589(3) 0.2157(5) 0.26445(17)
C56_2 C 0.0940(3) 0.2437(5) 0.23373(18)
H40_2 H 0.120241 0.284660 0.236946
C57_2 C 0.0221(3) 0.1217(4) 0.22402(16)
C59_2 C 0.0914(3) 0.2135(5) 0.19933(17)
H43_2 H 0.113242 0.235027 0.178646
C60_2 C 0.0237(3) 0.1541(5) 0.25885(16)
H44_2 H 0.000101 0.133421 0.279248
C61_2 C 0.1761(3) 0.3614(5) 0.36066(19)
C62_2 C 0.2249(3) 0.4674(5) 0.3845(2)
H45_2 H 0.218508 0.512096 0.394823
C64_2 C 0.0593(3) 0.2518(6) 0.3006(2)
C65_2 C 0.0534(3) 0.3218(5) 0.3687(2)
H47_2 H 0.052091 0.344412 0.392184
C66_2 C 0.1162(3) 0.2876(6) 0.3141(2)
H48_2 H 0.157230 0.288768 0.299533
C67_2 C 0.1678(3) 0.4267(6) 0.3755(2)
H49_2 H 0.122635 0.444119 0.379571
C70_2 C 0.1150(3) 0.3217(6) 0.3479(2)
C71_2 C 0.0055(14) 0.2527(17) 0.0570(8)
C72_2 C 0.0474(13) 0.2723(12) 0.0045(9)
Al9_5 Al 0.500000 0.500000 0.38452(5)
Al11_2 Al 0.39573(7) 0.61973(9) 0.41815(4)
O29_2 O 0.18416(19) 0.1747(2) 0.08769(9)
O30_2 O 0.15830(17) 0.0474(3) 0.10272(11)
H66_2 H 0.054717 0.288287 0.979697
Al2_3 Al 0.000000 1.000000 0.11548(5)
H2_2 H 0.001220 0.931444 0.058697
O6_2 O 0.31584(19) 0.6747(2) 0.41231(9)
C1_2 C 0.2645(3) 0.6857(3) 0.43300(13)
C6_2 C 0.1967(3) 0.6957(3) 0.41372(14)
C7_2 C 0.0718(3) 0.7068(5) 0.37646(17)
C10_2 C 0.1369(3) 0.7047(4) 0.43350(15)
H5_2 H 0.138517 0.707019 0.459984
C11_2 C 0.0738(3) 0.7105(5) 0.41531(18)
H6_2 H 0.032510 0.716984 0.429188
H8_2 H 0.002709 0.920144 0.220744
C15_2 C 0.1956(3) 0.6922(4) 0.37522(15)
H9_2 H 0.237274 0.686242 0.361580
C20_2 C 0.1326(3) 0.6975(5) 0.35659(16)
H13_2 H 0.131330 0.694650 0.330122
C25_2 C 0.0020(3) 0.7471(5) 0.32224(18)
H17_2 H 0.041314 0.771869 0.313764
C26_2 C 0.0058(3) 0.7107(6) 0.35527(18)
C30_2 C 0.0788(13) 0.6737(13) 0.0891(7)
H18_2 H 0.041001 0.641353 0.096553
N3_2 N 0.1002(17) 0.6501(19) 0.0520(8)
C31_2 C 0.0647(19) 0.6634(18) 0.0197(9)
C32_2 C 0.0052(11) 0.7074(11) 0.0282(7)
C33_2 C 0.0457(10) 0.7451(10) 0.0901(7)
H19_2 H 0.081198 0.781461 0.087362
H20_2 H 0.021039 0.752286 0.113998
C34_2 C 0.1981(9) 0.6392(12) 0.1125(5)
C35_2 C 0.1326(8) 0.6659(11) 0.1191(5)
C36_2 C 0.1128(9) 0.6833(14) 0.1552(6)
H21_2 H 0.068097 0.701504 0.159738
C37_2 C 0.1585(13) 0.6740(15) 0.1847(5)
C38_2 C 0.2240(12) 0.6473(15) 0.1781(5)
C39_2 C 0.2438(8) 0.6299(14) 0.1420(6)
H22_2 H 0.288544 0.611698 0.137543
C40_2 C 0.220(2) 0.632(3) 0.0725(8)
H23_2 H 0.260524 0.601392 0.070725
H24_2 H 0.232696 0.677827 0.062347
C41_2 C 0.1599(19) 0.602(2) 0.0497(13)
H25_2 H 0.174010 0.595764 0.023290
H26_2 H 0.146725 0.555985 0.059748
O10_2 O 0.2666(14) 0.6269(18) 0.2068(8)
C42_2 C 0.3320(16) 0.599(2) 0.1992(13)
H27_2 H 0.355135 0.587172 0.222712
H28_2 H 0.326728 0.556908 0.184081
H29_2 H 0.359832 0.632539 0.185459
O11_2 O 0.149(2) 0.677(2) 0.2223(11)
C43_2 C 0.079(2) 0.685(3) 0.2276(15)
H30_2 H 0.068767 0.687612 0.254372
H31_2 H 0.063652 0.728000 0.215494
H32_2 H 0.054160 0.645975 0.216600
O23_2 O 0.08910(16) 0.9582(2) 0.11751(10)
Al2_4 Al 1.000000 0.000000 0.11548(5)
H35_2 H 0.998780 0.068556 0.058697
O17_2 O 0.68416(19) 0.3253(2) 0.41231(9)
C44_2 C 0.7355(3) 0.3143(3) 0.43300(13)
C49_2 C 0.8033(3) 0.3043(3) 0.41372(14)
C50_2 C 0.9282(3) 0.2932(5) 0.37646(17)
C53_2 C 0.8631(3) 0.2953(4) 0.43350(15)
H38_2 H 0.861483 0.292981 0.459984
C54_2 C 0.9262(3) 0.2895(5) 0.41531(18)
H39_2 H 0.967490 0.283016 0.429188
H41_2 H 0.997291 0.079856 0.220744
C58_2 C 0.8044(3) 0.3078(4) 0.37522(15)
H42_2 H 0.762726 0.313758 0.361580
C63_2 C 0.8674(3) 0.3025(5) 0.35659(16)
H46_2 H 0.868670 0.305350 0.330122
C68_2 C 0.9980(3) 0.2529(5) 0.32224(18)
H50_2 H 0.958686 0.228131 0.313764
C69_2 C 0.9942(3) 0.2893(6) 0.35527(18)
C73_2 C 0.9212(13) 0.3263(13) 0.0891(7)
H51_2 H 0.958999 0.358647 0.096553
N6_2 N 0.8998(17) 0.3499(19) 0.0520(8)
C74_2 C 0.9353(19) 0.3366(18) 0.0197(9)
C75_2 C 0.9948(11) 0.2926(11) 0.0282(7)
C76_2 C 0.9543(10) 0.2549(10) 0.0901(7)
H52_2 H 0.918802 0.218539 0.087362
H53_2 H 0.978961 0.247714 0.113998
C77_2 C 0.8019(9) 0.3608(12) 0.1125(5)
C78_2 C 0.8674(8) 0.3341(11) 0.1191(5)
C79_2 C 0.8872(9) 0.3167(14) 0.1552(6)
H54_2 H 0.931903 0.298496 0.159738
C80_2 C 0.8415(13) 0.3260(15) 0.1847(5)
C81_2 C 0.7760(12) 0.3527(15) 0.1781(5)
C82_2 C 0.7562(8) 0.3701(14) 0.1420(6)
H55_2 H 0.711456 0.388302 0.137543
C83_2 C 0.780(2) 0.368(3) 0.0725(8)
H56_2 H 0.739476 0.398608 0.070725
H57_2 H 0.767304 0.322173 0.062347
C84_2 C 0.8401(19) 0.398(2) 0.0497(13)
H58_2 H 0.825990 0.404236 0.023290
H59_2 H 0.853275 0.444015 0.059748
O21_2 O 0.7334(14) 0.3731(18) 0.2068(8)
C85_2 C 0.6680(16) 0.401(2) 0.1992(13)
H60_2 H 0.644865 0.412828 0.222712
H61_2 H 0.673272 0.443092 0.184081
H62_2 H 0.640168 0.367461 0.185459
O22_2 O 0.851(2) 0.323(2) 0.2223(11)
C86_2 C 0.921(2) 0.315(3) 0.2276(15)
H63_2 H 0.931233 0.312388 0.254372
H64_2 H 0.936348 0.272000 0.215494
H65_2 H 0.945840 0.354025 0.216600
Al13_2 Al 0.60427(7) 0.38027(9) 0.41815(4)
O24_2 O 0.91090(16) 0.0418(2) 0.11751(10)
Al2_5 Al 1.000000 1.000000 0.11548(5)
Al3_2 Al 0.89573(7) 0.88027(9) 0.08185(4)
O1_2 O 0.58910(16) 0.5418(2) 0.38249(10)
O2_2 O 0.97415(18) 0.9400(3) 0.15507(9)
O3_2 O 0.86789(19) 0.90315(19) 0.03466(8)
H1_2 H 0.868163 0.950477 0.027722
O4_2 O 0.97256(15) 0.93600(19) 0.08008(8)
O7_2 O 0.65830(17) 0.4526(3) 0.39728(11)
O8_2 O 0.9184(2) 0.8496(3) 0.13036(10)
N1_2 N 0.9104(10) 0.7782(11) 0.0245(6)
N2_2 N 0.9402(8) 0.7950(9) 0.0574(4)
C2_2 C 0.6474(2) 0.5136(4) 0.38676(13)
C3_2 C 0.7083(2) 0.5578(4) 0.37831(16)
C4_2 C 0.9456(3) 0.8807(4) 0.15709(14)
C5_2 C 0.9433(3) 0.8488(4) 0.19447(15)
C8_2 C 0.7004(3) 0.6243(4) 0.36439(18)
H3_2 H 0.655416 0.642830 0.361181
C9_2 C 0.7574(3) 0.6638(5) 0.35515(19)
H4_2 H 0.751082 0.708633 0.344942
C12_2 C 0.9411(3) 0.7843(5) 0.26445(17)
C13_2 C 0.9060(3) 0.7563(5) 0.23373(18)
H7_2 H 0.879759 0.715340 0.236946
C14_2 C 0.9779(3) 0.8783(4) 0.22402(16)
C16_2 C 0.9086(3) 0.7865(5) 0.19933(17)
H10_2 H 0.886758 0.764973 0.178646
C17_2 C 0.9763(3) 0.8459(5) 0.25885(16)
H11_2 H 0.999899 0.866579 0.279248
C18_2 C 0.8239(3) 0.6386(5) 0.36066(19)
C19_2 C 0.7751(3) 0.5326(5) 0.3845(2)
H12_2 H 0.781492 0.487904 0.394823
C21_2 C 0.9407(3) 0.7482(6) 0.3006(2)
C22_2 C 0.9466(3) 0.6782(5) 0.3687(2)
H14_2 H 0.947909 0.655588 0.392184
C23_2 C 0.8838(3) 0.7124(6) 0.3141(2)
H15_2 H 0.842770 0.711232 0.299533
C24_2 C 0.8322(3) 0.5733(6) 0.3755(2)
H16_2 H 0.877365 0.555881 0.379571
C27_2 C 0.8850(3) 0.6783(6) 0.3479(2)
C28_2 C 0.9945(14) 0.7473(17) 0.0570(8)
C29_2 C 0.9526(13) 0.7277(12) 0.0045(9)
O27_3 O 0.76540(17) 0.8125(2) 0.03176(8)
O28_2 O 0.81584(19) 0.8253(2) 0.08769(9)
O31_2 O 0.84170(17) 0.9526(3) 0.10272(11)
H33_2 H 0.945283 0.711713 0.979697
O25_3 O 0.90315(19) 0.86789(19) 0.96534(8)
N7_3 N 0.7782(11) 0.9104(10) 0.9755(6)
O27_4 O 0.23460(17) 0.1875(2) 0.03176(8)
O25_4 O 0.09685(19) 0.13211(19) 0.96534(8)
N7_4 N 0.2218(11) 0.0896(10) 0.9755(6)
H33_3 H 0.288287 0.054717 0.020303
O2_3 O 0.0600(3) 0.02585(18) 0.84493(9)
H1_3 H 0.049523 0.131837 0.972278
O4_3 O 0.06400(19) 0.02744(15) 0.91992(8)
O8_3 O 0.1504(3) 0.0816(2) 0.86964(10)
N2_3 N 0.2050(9) 0.0598(8) 0.9426(4)
C2_3 C 0.4864(4) 0.3526(2) 0.61324(13)
C3_3 C 0.4422(4) 0.2917(2) 0.62169(16)
C4_3 C 0.1193(4) 0.0544(3) 0.84291(14)
C5_3 C 0.1512(4) 0.0567(3) 0.80553(15)
C8_3 C 0.3757(4) 0.2996(3) 0.63561(18)
H3_3 H 0.357170 0.344584 0.638819
C9_3 C 0.3362(5) 0.2426(3) 0.64485(19)
H4_3 H 0.291367 0.248918 0.655058
C12_3 C 0.2157(5) 0.0589(3) 0.73555(17)
C13_3 C 0.2437(5) 0.0940(3) 0.76627(18)
H7_3 H 0.284660 0.120241 0.763054
C14_3 C 0.1217(4) 0.0221(3) 0.77598(16)
C16_3 C 0.2135(5) 0.0914(3) 0.80067(17)
H10_3 H 0.235027 0.113242 0.821354
C17_3 C 0.1541(5) 0.0237(3) 0.74115(16)
H11_3 H 0.133421 0.000101 0.720752
C18_3 C 0.3614(5) 0.1761(3) 0.63934(19)
C19_3 C 0.4674(5) 0.2249(3) 0.6155(2)
H12_3 H 0.512096 0.218508 0.605177
C21_3 C 0.2518(6) 0.0593(3) 0.6994(2)
C22_3 C 0.3218(5) 0.0534(3) 0.6313(2)
H14_3 H 0.344412 0.052091 0.607816
C23_3 C 0.2876(6) 0.1162(3) 0.6859(2)
H15_3 H 0.288768 0.157230 0.700467
C24_3 C 0.4267(6) 0.1678(3) 0.6245(2)
H16_3 H 0.444119 0.122635 0.620429
C27_3 C 0.3217(6) 0.1150(3) 0.6521(2)
C28_3 C 0.2527(17) 0.0055(14) 0.9430(8)
C29_3 C 0.2723(12) 0.0474(13) 0.9955(9)
H2_3 H 0.068556 0.998780 0.941303
C1_3 C 0.3143(3) 0.7355(3) 0.56700(13)
C6_3 C 0.3043(3) 0.8033(3) 0.58628(14)
C7_3 C 0.2932(5) 0.9282(3) 0.62354(17)
C10_3 C 0.2953(4) 0.8631(3) 0.56650(15)
H5_3 H 0.292981 0.861483 0.540016
C11_3 C 0.2895(5) 0.9262(3) 0.58469(18)
H6_3 H 0.283016 0.967490 0.570812
H8_3 H 0.079856 0.997291 0.779256
C15_3 C 0.3078(4) 0.8044(3) 0.62478(15)
H9_3 H 0.313758 0.762726 0.638420
C20_3 C 0.3025(5) 0.8674(3) 0.64341(16)
H13_3 H 0.305350 0.868670 0.669878
C25_3 C 0.2529(5) 0.9980(3) 0.67776(18)
H17_3 H 0.228131 0.958686 0.686236
C26_3 C 0.2893(6) 0.9942(3) 0.64473(18)
C30_3 C 0.3263(13) 0.9212(13) 0.9109(7)
H18_3 H 0.358647 0.958999 0.903447
N3_3 N 0.3499(19) 0.8998(17) 0.9480(8)
C31_3 C 0.3366(18) 0.9353(19) 0.9803(9)
C32_3 C 0.2926(11) 0.9948(11) 0.9718(7)
C33_3 C 0.2549(10) 0.9543(10) 0.9099(7)
H19_3 H 0.218539 0.918802 0.912638
H20_3 H 0.247714 0.978961 0.886002
C34_3 C 0.3608(12) 0.8019(9) 0.8875(5)
C35_3 C 0.3341(11) 0.8674(8) 0.8809(5)
C36_3 C 0.3167(14) 0.8872(9) 0.8448(6)
H21_3 H 0.298496 0.931903 0.840262
C37_3 C 0.3260(15) 0.8415(13) 0.8153(5)
C38_3 C 0.3527(15) 0.7760(12) 0.8219(5)
C39_3 C 0.3701(14) 0.7562(8) 0.8580(6)
H22_3 H 0.388302 0.711456 0.862457
C40_3 C 0.368(3) 0.780(2) 0.9275(8)
H23_3 H 0.398608 0.739476 0.929275
H24_3 H 0.322173 0.767304 0.937653
C41_3 C 0.398(2) 0.8401(19) 0.9503(13)
H25_3 H 0.404236 0.825990 0.976710
H26_3 H 0.444015 0.853275 0.940252
O10_3 O 0.3731(18) 0.7334(14) 0.7932(8)
C42_3 C 0.401(2) 0.6680(16) 0.8008(13)
H27_3 H 0.412828 0.644865 0.777288
H28_3 H 0.443092 0.673272 0.815919
H29_3 H 0.367461 0.640168 0.814541
O11_3 O 0.323(2) 0.851(2) 0.7777(11)
C43_3 C 0.315(3) 0.921(2) 0.7724(15)
H30_3 H 0.312388 0.931233 0.745628
H31_3 H 0.272000 0.936348 0.784506
H32_3 H 0.354025 0.945840 0.783400
H35_3 H 0.931444 0.001220 0.941303
C44_3 C 0.6857(3) 0.2645(3) 0.56700(13)
C49_3 C 0.6957(3) 0.1967(3) 0.58628(14)
C50_3 C 0.7068(5) 0.0718(3) 0.62354(17)
C53_3 C 0.7047(4) 0.1369(3) 0.56650(15)
H38_3 H 0.707019 0.138517 0.540016
C54_3 C 0.7105(5) 0.0738(3) 0.58469(18)
H39_3 H 0.716984 0.032510 0.570812
H41_3 H 0.920144 0.002709 0.779256
C58_3 C 0.6922(4) 0.1956(3) 0.62478(15)
H42_3 H 0.686242 0.237274 0.638420
C63_3 C 0.6975(5) 0.1326(3) 0.64341(16)
H46_3 H 0.694650 0.131330 0.669878
C68_3 C 0.7471(5) 0.0020(3) 0.67776(18)
H50_3 H 0.771869 0.041314 0.686236
C69_3 C 0.7107(6) 0.0058(3) 0.64473(18)
C73_3 C 0.6737(13) 0.0788(13) 0.9109(7)
H51_3 H 0.641353 0.041001 0.903447
N6_3 N 0.6501(19) 0.1002(17) 0.9480(8)
C74_3 C 0.6634(18) 0.0647(19) 0.9803(9)
C75_3 C 0.7074(11) 0.0052(11) 0.9718(7)
C76_3 C 0.7451(10) 0.0457(10) 0.9099(7)
H52_3 H 0.781461 0.081198 0.912638
H53_3 H 0.752286 0.021039 0.886002
C77_3 C 0.6392(12) 0.1981(9) 0.8875(5)
C78_3 C 0.6659(11) 0.1326(8) 0.8809(5)
C79_3 C 0.6833(14) 0.1128(9) 0.8448(6)
H54_3 H 0.701504 0.068097 0.840262
C80_3 C 0.6740(15) 0.1585(13) 0.8153(5)
C81_3 C 0.6473(15) 0.2240(12) 0.8219(5)
C82_3 C 0.6299(14) 0.2438(8) 0.8580(6)
H55_3 H 0.611698 0.288544 0.862457
C83_3 C 0.632(3) 0.220(2) 0.9275(8)
H56_3 H 0.601392 0.260524 0.929275
H57_3 H 0.677827 0.232696 0.937653
C84_3 C 0.602(2) 0.1599(19) 0.9503(13)
H58_3 H 0.595764 0.174010 0.976710
H59_3 H 0.555985 0.146725 0.940252
O21_3 O 0.6269(18) 0.2666(14) 0.7932(8)
C85_3 C 0.599(2) 0.3320(16) 0.8008(13)
H60_3 H 0.587172 0.355135 0.777288
H61_3 H 0.556908 0.326728 0.815919
H62_3 H 0.632539 0.359832 0.814541
O22_3 O 0.677(2) 0.149(2) 0.7777(11)
C86_3 C 0.685(3) 0.079(2) 0.7724(15)
H63_3 H 0.687612 0.068767 0.745628
H64_3 H 0.728000 0.063652 0.784506
H65_3 H 0.645975 0.054160 0.783400
H66_3 H 0.711713 0.945283 0.020303
O13_3 O 0.9400(3) 0.97415(18) 0.84493(9)
H34_3 H 0.950477 0.868163 0.972278
O15_3 O 0.93600(19) 0.97256(15) 0.91992(8)
O19_3 O 0.8496(3) 0.9184(2) 0.86964(10)
N5_3 N 0.7950(9) 0.9402(8) 0.9426(4)
C45_3 C 0.5136(4) 0.6474(2) 0.61324(13)
C46_3 C 0.5578(4) 0.7083(2) 0.62169(16)
C47_3 C 0.8807(4) 0.9456(3) 0.84291(14)
C48_3 C 0.8488(4) 0.9433(3) 0.80553(15)
C51_3 C 0.6243(4) 0.7004(3) 0.63561(18)
H36_3 H 0.642830 0.655416 0.638819
C52_3 C 0.6638(5) 0.7574(3) 0.64485(19)
H37_3 H 0.708633 0.751082 0.655058
C55_3 C 0.7843(5) 0.9411(3) 0.73555(17)
C56_3 C 0.7563(5) 0.9060(3) 0.76627(18)
H40_3 H 0.715340 0.879759 0.763054
C57_3 C 0.8783(4) 0.9779(3) 0.77598(16)
C59_3 C 0.7865(5) 0.9086(3) 0.80067(17)
H43_3 H 0.764973 0.886758 0.821354
C60_3 C 0.8459(5) 0.9763(3) 0.74115(16)
H44_3 H 0.866579 0.999899 0.720752
C61_3 C 0.6386(5) 0.8239(3) 0.63934(19)
C62_3 C 0.5326(5) 0.7751(3) 0.6155(2)
H45_3 H 0.487904 0.781492 0.605177
C64_3 C 0.7482(6) 0.9407(3) 0.6994(2)
C65_3 C 0.6782(5) 0.9466(3) 0.6313(2)
H47_3 H 0.655588 0.947909 0.607816
C66_3 C 0.7124(6) 0.8838(3) 0.6859(2)
H48_3 H 0.711232 0.842770 0.700467
C67_3 C 0.5733(6) 0.8322(3) 0.6245(2)
H49_3 H 0.555881 0.877365 0.620429
C70_3 C 0.6783(6) 0.8850(3) 0.6521(2)
C71_3 C 0.7473(17) 0.9945(14) 0.9430(8)
C72_3 C 0.7277(12) 0.9526(13) 0.9955(9)
H45_4 H 0.281492 0.012096 0.105177
O2_4 O 0.52585(18) 0.4400(3) 0.34493(9)
H1_4 H 0.631837 0.450477 0.472278
O4_4 O 0.52744(15) 0.43600(19) 0.41992(8)
H2_4 H 0.498780 0.431444 0.441303
O8_4 O 0.5816(2) 0.3496(3) 0.36964(10)
C1_4 C 0.2355(3) 0.1857(3) 0.06700(13)
N2_4 N 0.5598(8) 0.2950(9) 0.4426(4)
C2_4 C 0.8526(2) 0.0136(4) 0.11324(13)
C3_4 C 0.7917(2) 0.0578(4) 0.12169(16)
C4_4 C 0.5544(3) 0.3807(4) 0.34291(14)
C5_4 C 0.5567(3) 0.3488(4) 0.30553(15)
C6_4 C 0.3033(3) 0.1957(3) 0.08628(14)
C7_4 C 0.4282(3) 0.2068(5) 0.12354(17)
C8_4 C 0.7996(3) 0.1243(4) 0.13561(18)
H3_4 H 0.844584 0.142830 0.138819
C9_4 C 0.7426(3) 0.1638(5) 0.14485(19)
H4_4 H 0.748918 0.208633 0.155058
C10_4 C 0.3631(3) 0.2047(4) 0.06650(15)
H5_4 H 0.361483 0.207019 0.040016
C11_4 C 0.4262(3) 0.2105(5) 0.08469(18)
H6_4 H 0.467490 0.216984 0.070812
C12_4 C 0.5589(3) 0.2843(5) 0.23555(17)
C13_4 C 0.5940(3) 0.2563(5) 0.26627(18)
H7_4 H 0.620241 0.215340 0.263054
C14_4 C 0.5221(3) 0.3783(4) 0.27598(16)
H8_4 H 0.497291 0.420144 0.279256
C15_4 C 0.3044(3) 0.1922(4) 0.12478(15)
H9_4 H 0.262726 0.186242 0.138420
C16_4 C 0.5914(3) 0.2865(5) 0.30067(17)
H10_4 H 0.613242 0.264973 0.321354
C17_4 C 0.5237(3) 0.3459(5) 0.24115(16)
H11_4 H 0.500101 0.366579 0.220752
C18_4 C 0.6761(3) 0.1386(5) 0.13934(19)
C19_4 C 0.7249(3) 0.0326(5) 0.1155(2)
C20_4 C 0.3674(3) 0.1975(5) 0.14341(16)
H13_4 H 0.368670 0.194650 0.169878
C21_4 C 0.5593(3) 0.2482(6) 0.1994(2)
C22_4 C 0.5534(3) 0.1782(5) 0.1313(2)
H14_4 H 0.552091 0.155588 0.107816
C23_4 C 0.6162(3) 0.2124(6) 0.1859(2)
H15_4 H 0.657230 0.211232 0.200467
C24_4 C 0.6678(3) 0.0733(6) 0.1245(2)
H16_4 H 0.622635 0.055881 0.120429
C25_4 C 0.4980(3) 0.2471(5) 0.17776(18)
H17_4 H 0.458686 0.271869 0.186236
C26_4 C 0.4942(3) 0.2107(6) 0.14473(18)
C27_4 C 0.6150(3) 0.1783(6) 0.1521(2)
C28_4 C 0.5055(14) 0.2473(17) 0.4430(8)
C29_4 C 0.5474(13) 0.2277(12) 0.4955(9)
C30_4 C 0.4212(13) 0.1737(13) 0.4109(7)
H18_4 H 0.458999 0.141353 0.403447
O9_2 O 0.4233(16) 0.1379(17) 0.5083(10)
N3_4 N 0.3998(17) 0.1501(19) 0.4480(8)
C31_4 C 0.4353(19) 0.1634(18) 0.4803(9)
C32_4 C 0.4948(11) 0.2074(11) 0.4718(7)
C33_4 C 0.4543(10) 0.2451(10) 0.4099(7)
H19_4 H 0.418802 0.281461 0.412638
H20_4 H 0.478961 0.252286 0.386002
C34_4 C 0.3019(9) 0.1392(12) 0.3875(5)
C35_4 C 0.3674(8) 0.1659(11) 0.3809(5)
C36_4 C 0.3872(9) 0.1833(14) 0.3448(6)
H21_4 H 0.431903 0.201504 0.340262
C37_4 C 0.3415(13) 0.1740(15) 0.3153(5)
C38_4 C 0.2760(12) 0.1473(15) 0.3219(5)
C39_4 C 0.2562(8) 0.1299(14) 0.3580(6)
H22_4 H 0.211456 0.111698 0.362457
C40_4 C 0.280(2) 0.132(3) 0.4275(8)
H23_4 H 0.239476 0.101392 0.429275
H24_4 H 0.267304 0.177827 0.437653
C41_4 C 0.3401(19) 0.102(2) 0.4503(13)
H25_4 H 0.325990 0.095764 0.476710
H26_4 H 0.353275 0.055985 0.440252
O10_4 O 0.2334(14) 0.1269(18) 0.2932(8)
C42_4 C 0.1680(16) 0.099(2) 0.3008(13)
H27_4 H 0.144865 0.087172 0.277288
H28_4 H 0.173272 0.056908 0.315919
H29_4 H 0.140168 0.132539 0.314541
O11_4 O 0.351(2) 0.177(2) 0.2777(11)
C43_4 C 0.421(2) 0.185(3) 0.2724(15)
H30_4 H 0.431233 0.187612 0.245628
H31_4 H 0.436348 0.228000 0.284506
H32_4 H 0.445840 0.145975 0.283400
H33_4 H 0.554717 0.211713 0.520303
O13_4 O 0.47415(18) 0.5600(3) 0.34493(9)
H34_4 H 0.368163 0.549523 0.472278
O15_4 O 0.47256(15) 0.56400(19) 0.41992(8)
H35_4 H 0.501220 0.568556 0.441303
O19_4 O 0.4184(2) 0.6504(3) 0.36964(10)
C44_4 C 0.7645(3) 0.8143(3) 0.06700(13)
N5_4 N 0.4402(8) 0.7050(9) 0.4426(4)
C45_4 C 0.1474(2) 0.9864(4) 0.11324(13)
C46_4 C 0.2083(2) 0.9422(4) 0.12169(16)
C47_4 C 0.4456(3) 0.6193(4) 0.34291(14)
C48_4 C 0.4433(3) 0.6512(4) 0.30553(15)
C49_4 C 0.6967(3) 0.8043(3) 0.08628(14)
C50_4 C 0.5718(3) 0.7932(5) 0.12354(17)
C51_4 C 0.2004(3) 0.8757(4) 0.13561(18)
H36_4 H 0.155416 0.857170 0.138819
C52_4 C 0.2574(3) 0.8362(5) 0.14485(19)
H37_4 H 0.251082 0.791367 0.155058
C53_4 C 0.6369(3) 0.7953(4) 0.06650(15)
H38_4 H 0.638517 0.792981 0.040016
C54_4 C 0.5738(3) 0.7895(5) 0.08469(18)
H39_4 H 0.532510 0.783016 0.070812
C55_4 C 0.4411(3) 0.7157(5) 0.23555(17)
C56_4 C 0.4060(3) 0.7437(5) 0.26627(18)
H40_4 H 0.379759 0.784660 0.263054
C57_4 C 0.4779(3) 0.6217(4) 0.27598(16)
H41_4 H 0.502709 0.579856 0.279256
C58_4 C 0.6956(3) 0.8078(4) 0.12478(15)
H42_4 H 0.737274 0.813758 0.138420
C59_4 C 0.4086(3) 0.7135(5) 0.30067(17)
H43_4 H 0.386758 0.735027 0.321354
C60_4 C 0.4763(3) 0.6541(5) 0.24115(16)
H44_4 H 0.499899 0.633421 0.220752
C61_4 C 0.3239(3) 0.8614(5) 0.13934(19)
C62_4 C 0.2751(3) 0.9674(5) 0.1155(2)
C63_4 C 0.6326(3) 0.8025(5) 0.14341(16)
H46_4 H 0.631330 0.805350 0.169878
C64_4 C 0.4407(3) 0.7518(6) 0.1994(2)
C65_4 C 0.4466(3) 0.8218(5) 0.1313(2)
H47_4 H 0.447909 0.844412 0.107816
C66_4 C 0.3838(3) 0.7876(6) 0.1859(2)
H48_4 H 0.342770 0.788768 0.200467
C67_4 C 0.3322(3) 0.9267(6) 0.1245(2)
H49_4 H 0.377365 0.944119 0.120429
C68_4 C 0.5020(3) 0.7529(5) 0.17776(18)
H50_4 H 0.541314 0.728131 0.186236
C69_4 C 0.5058(3) 0.7893(6) 0.14473(18)
C70_4 C 0.3850(3) 0.8217(6) 0.1521(2)
C71_4 C 0.4945(14) 0.7527(17) 0.4430(8)
C72_4 C 0.4526(13) 0.7723(12) 0.4955(9)
C73_4 C 0.5788(13) 0.8263(13) 0.4109(7)
H51_4 H 0.541001 0.858647 0.403447
O20_2 O 0.5767(16) 0.8621(17) 0.5083(10)
N6_4 N 0.6002(17) 0.8499(19) 0.4480(8)
C74_4 C 0.5647(19) 0.8366(18) 0.4803(9)
C75_4 C 0.5052(11) 0.7926(11) 0.4718(7)
C76_4 C 0.5457(10) 0.7549(10) 0.4099(7)
H52_4 H 0.581198 0.718539 0.412638
H53_4 H 0.521039 0.747714 0.386002
C77_4 C 0.6981(9) 0.8608(12) 0.3875(5)
C78_4 C 0.6326(8) 0.8341(11) 0.3809(5)
C79_4 C 0.6128(9) 0.8167(14) 0.3448(6)
H54_4 H 0.568097 0.798496 0.340262
C80_4 C 0.6585(13) 0.8260(15) 0.3153(5)
C81_4 C 0.7240(12) 0.8527(15) 0.3219(5)
C82_4 C 0.7438(8) 0.8701(14) 0.3580(6)
H55_4 H 0.788544 0.888302 0.362457
C83_4 C 0.720(2) 0.868(3) 0.4275(8)
H56_4 H 0.760524 0.898608 0.429275
H57_4 H 0.732696 0.822173 0.437653
C84_4 C 0.6599(19) 0.898(2) 0.4503(13)
H58_4 H 0.674010 0.904236 0.476710
H59_4 H 0.646725 0.944015 0.440252
O21_4 O 0.7666(14) 0.8731(18) 0.2932(8)
C85_4 C 0.8320(16) 0.901(2) 0.3008(13)
H60_4 H 0.855135 0.912828 0.277288
H61_4 H 0.826728 0.943092 0.315919
H62_4 H 0.859832 0.867461 0.314541
O22_4 O 0.649(2) 0.823(2) 0.2777(11)
C86_4 C 0.579(2) 0.815(3) 0.2724(15)
H63_4 H 0.568767 0.812388 0.245628
H64_4 H 0.563652 0.772000 0.284506
H65_4 H 0.554160 0.854025 0.283400
H66_4 H 0.445283 0.788287 0.520303
H12_4 H 0.718508 0.987904 0.105177
O9_3 O 0.0767(16) 0.6379(17) 0.9917(10)
O20_3 O 0.9233(16) 0.3621(17) 0.9917(10)
O9_4 O 0.3621(17) 0.9233(16) 0.0083(10)
O20_4 O 0.6379(17) 0.0767(16) 0.0083(10)
loop_
_geom_bond_atom_site_label_1
_geom_bond_atom_site_label_2
_geom_bond_site_symmetry_1
_geom_bond_site_symmetry_2
Al11 O18 1_555 1_555
Al1 O3 1_555 1_555
Al2 O2 1_555 1_555
Al3 O3 1_555 1_555
O1 C2 1_555 1_555
O2 C4 1_555 1_555
O3 H1 1_555 1_555
O4 Al2 1_555 1_555
H2 O4 1_555 1_555
O5 C1 1_555 1_555
O6 C1 1_555 1_555
O8 Al3 1_555 1_555
N1 Al1 1_555 1_555
C1 C6 1_555 1_555
N2 Al3 1_555 1_555
C2 C3 1_555 1_555
C3 C8 1_555 1_555
C4 O8 1_555 1_555
C5 C4 1_555 1_555
C6 C10 1_555 1_555
C7 C11 1_555 1_555
C8 H3 1_555 1_555
C9 C8 1_555 1_555
H4 C9 1_555 1_555
C10 H5 1_555 1_555
C11 C10 1_555 1_555
H6 C11 1_555 1_555
C12 C13 1_555 1_555
C13 H7 1_555 1_555
C14 C5 1_555 1_555
H8 C14 1_555 1_555
C15 C6 1_555 1_555
H9 C15 1_555 1_555
C16 C5 1_555 1_555
H10 C16 1_555 1_555
C17 C12 1_555 1_555
H11 C17 1_555 1_555
C18 C9 1_555 1_555
C19 C3 1_555 1_555
C20 C7 1_555 1_555
H13 C20 1_555 1_555
C21 C12 1_555 1_555
C22 H14 1_555 1_555
C23 C21 1_555 1_555
H15 C23 1_555 1_555
C24 C18 1_555 1_555
H16 C24 1_555 1_555
C25 C21 1_555 1_555
H17 C25 1_555 1_555
C26 C7 1_555 1_555
C27 C18 1_555 1_555
C28 N2 1_555 1_555
C29 N1 1_555 1_555
C30 H18 1_555 1_555
O9 C31 1_555 1_555
N3 C30 1_555 1_555
C31 N3 1_555 1_555
C32 C28 1_555 1_555
C33 C28 1_555 1_555
H19 C33 1_555 1_555
H20 C33 1_555 1_555
C34 C35 1_555 1_555
C35 C30 1_555 1_555
C36 C35 1_555 1_555
H21 C36 1_555 1_555
C37 C36 1_555 1_555
C38 C37 1_555 1_555
C39 C34 1_555 1_555
H22 C39 1_555 1_555
C40 C34 1_555 1_555
H23 C40 1_555 1_555
H24 C40 1_555 1_555
C41 N3 1_555 1_555
H25 C41 1_555 1_555
H26 C41 1_555 1_555
O10 C38 1_555 1_555
C42 O10 1_555 1_555
H27 C42 1_555 1_555
H28 C42 1_555 1_555
H29 C42 1_555 1_555
O11 C37 1_555 1_555
C43 O11 1_555 1_555
H30 C43 1_555 1_555
H31 C43 1_555 1_555
H32 C43 1_555 1_555
H33 C29 1_555 1_555
Al4 O14 1_555 1_555
O12 C45 1_555 1_555
O13 Al2 1_555 1_555
O14 H34 1_555 1_555
O15 Al2 1_555 1_555
H35 O15 1_555 1_555
O16 C44 1_555 1_555
O17 C44 1_555 1_555
O19 Al4 1_555 1_555
N4 N5 1_555 1_555
C44 C49 1_555 1_555
N5 Al4 1_555 1_555
C45 C46 1_555 1_555
C46 C51 1_555 1_555
C47 O13 1_555 1_555
C48 C47 1_555 1_555
C49 C53 1_555 1_555
C50 C54 1_555 1_555
C51 H36 1_555 1_555
C52 C51 1_555 1_555
H37 C52 1_555 1_555
C53 H38 1_555 1_555
C54 C53 1_555 1_555
H39 C54 1_555 1_555
C55 C56 1_555 1_555
C56 H40 1_555 1_555
C57 C48 1_555 1_555
H41 C57 1_555 1_555
C58 C49 1_555 1_555
H42 C58 1_555 1_555
C59 C48 1_555 1_555
H43 C59 1_555 1_555
C60 C55 1_555 1_555
H44 C60 1_555 1_555
C61 C52 1_555 1_555
C62 C46 1_555 1_555
C63 C50 1_555 1_555
H46 C63 1_555 1_555
C64 C55 1_555 1_555
C65 H47 1_555 1_555
C66 C64 1_555 1_555
H48 C66 1_555 1_555
C67 C61 1_555 1_555
H49 C67 1_555 1_555
C68 C64 1_555 1_555
H50 C68 1_555 1_555
C69 C50 1_555 1_555
C70 C61 1_555 1_555
C71 N5 1_555 1_555
C72 N4 1_555 1_555
C73 H51 1_555 1_555
O20 C74 1_555 1_555
N6 C73 1_555 1_555
C74 N6 1_555 1_555
C75 C71 1_555 1_555
C76 C71 1_555 1_555
H52 C76 1_555 1_555
H53 C76 1_555 1_555
C77 C78 1_555 1_555
C78 C73 1_555 1_555
C79 C78 1_555 1_555
H54 C79 1_555 1_555
C80 C79 1_555 1_555
C81 C80 1_555 1_555
C82 C77 1_555 1_555
H55 C82 1_555 1_555
C83 C77 1_555 1_555
H56 C83 1_555 1_555
H57 C83 1_555 1_555
C84 N6 1_555 1_555
H58 C84 1_555 1_555
H59 C84 1_555 1_555
O21 C81 1_555 1_555
C85 O21 1_555 1_555
H60 C85 1_555 1_555
H61 C85 1_555 1_555
H62 C85 1_555 1_555
O22 C80 1_555 1_555
C86 O22 1_555 1_555
H63 C86 1_555 1_555
H64 C86 1_555 1_555
H65 C86 1_555 1_555
H66 C72 1_555 1_555
Al5 O14 1_555 1_555
Al6_2 O16 1_555 1_555
Al7_2 O5 1_555 1_555
Al9_2 O1 1_555 1_555
Al9_3 O12 1_555 1_555
Al11 O6 1_555 1_555
Al13 O17 1_555 1_555
O23 Al2 1_555 1_555
O24 Al2 1_555 1_555
O25 Al1 1_555 1_555
O26 Al1 1_555 1_555
O27 Al1 1_555 1_555
O28 Al3 1_555 1_555
O29 Al4 1_555 1_555
O30 Al4 1_555 1_555
O31 Al3 1_555 1_555
N7 Al1 1_555 1_555
Al3 O4 1_555 1_555
N1 N2 1_555 1_555
C13 C16 1_555 1_555
C14 C17 1_555 1_555
C15 C20 1_555 1_555
C19 C24 1_555 1_555
C22 C26 1_555 1_555
C22 C27 1_555 1_555
C23 C27 1_555 1_555
C25 C26 1_555 1_555
C29 C32 1_555 1_555
C30 C33 1_555 1_555
C31 C32 1_555 1_555
C38 C39 1_555 1_555
C40 C41 1_555 1_555
Al4 O15 1_555 1_555
O19 C47 1_555 1_555
N4 Al5 1_555 1_555
C56 C59 1_555 1_555
C57 C60 1_555 1_555
C58 C63 1_555 1_555
C62 C67 1_555 1_555
C65 C69 1_555 1_555
C65 C70 1_555 1_555
C66 C70 1_555 1_555
C68 C69 1_555 1_555
C72 C75 1_555 1_555
C73 C76 1_555 1_555
C74 C75 1_555 1_555
C81 C82 1_555 1_555
C83 C84 1_555 1_555
Al13 O7 1_555 1_555
O25_2 Al5 1_555 1_555
O26_2 Al5 1_555 1_555
O27_2 Al5 1_555 1_555
N7_2 Al5 1_555 1_555
Al4_2 O14_2 1_555 1_555
O12_2 C45_2 1_555 1_555
O13_2 Al2_2 1_555 1_555
O14_2 H34_2 1_555 1_555
O15_2 Al2_2 1_555 1_555
O18_2 C45_2 1_555 1_555
O19_2 Al4_2 1_555 1_555
N4_2 N5_2 1_555 1_555
N5_2 Al4_2 1_555 1_555
C45_2 C46_2 1_555 1_555
C46_2 C51_2 1_555 1_555
C47_2 O13_2 1_555 1_555
C48_2 C47_2 1_555 1_555
C51_2 H36_2 1_555 1_555
C52_2 C51_2 1_555 1_555
H37_2 C52_2 1_555 1_555
C55_2 C56_2 1_555 1_555
C56_2 H40_2 1_555 1_555
C57_2 C48_2 1_555 1_555
C59_2 C48_2 1_555 1_555
H43_2 C59_2 1_555 1_555
C60_2 C55_2 1_555 1_555
H44_2 C60_2 1_555 1_555
C61_2 C52_2 1_555 1_555
C62_2 C46_2 1_555 1_555
H45_2 C62_2 1_555 1_555
C64_2 C55_2 1_555 1_555
C65_2 H47_2 1_555 1_555
C66_2 C64_2 1_555 1_555
H48_2 C66_2 1_555 1_555
C67_2 C61_2 1_555 1_555
H49_2 C67_2 1_555 1_555
C70_2 C61_2 1_555 1_555
C71_2 N5_2 1_555 1_555
C72_2 N4_2 1_555 1_555
Al7 O14_2 1_555 1_555
Al9_5 O12_2 1_555 1_555
Al11_2 O18_2 1_555 1_555
O29_2 Al4_2 1_555 1_555
O30_2 Al4_2 1_555 1_555
Al4_2 O15_2 1_555 1_555
O19_2 C47_2 1_555 1_555
N4_2 Al7 1_555 1_555
C56_2 C59_2 1_555 1_555
C57_2 C60_2 1_555 1_555
C62_2 C67_2 1_555 1_555
C65_2 C70_2 1_555 1_555
C66_2 C70_2 1_555 1_555
O26 C1_2 1_555 1_555
O6_2 C1_2 1_555 1_555
C1_2 C6_2 1_555 1_555
C6_2 C10_2 1_555 1_555
C7_2 C11_2 1_555 1_555
C10_2 H5_2 1_555 1_555
C11_2 C10_2 1_555 1_555
H6_2 C11_2 1_555 1_555
C15_2 C6_2 1_555 1_555
H9_2 C15_2 1_555 1_555
C20_2 C7_2 1_555 1_555
H13_2 C20_2 1_555 1_555
H17_2 C25_2 1_555 1_555
C26_2 C7_2 1_555 1_555
C30_2 H18_2 1_555 1_555
N3_2 C30_2 1_555 1_555
C31_2 N3_2 1_555 1_555
H19_2 C33_2 1_555 1_555
H20_2 C33_2 1_555 1_555
C34_2 C35_2 1_555 1_555
C35_2 C30_2 1_555 1_555
C36_2 C35_2 1_555 1_555
H21_2 C36_2 1_555 1_555
C37_2 C36_2 1_555 1_555
C38_2 C37_2 1_555 1_555
C39_2 C34_2 1_555 1_555
H22_2 C39_2 1_555 1_555
C40_2 C34_2 1_555 1_555
H23_2 C40_2 1_555 1_555
H24_2 C40_2 1_555 1_555
C41_2 N3_2 1_555 1_555
H25_2 C41_2 1_555 1_555
H26_2 C41_2 1_555 1_555
O10_2 C38_2 1_555 1_555
C42_2 O10_2 1_555 1_555
H27_2 C42_2 1_555 1_555
H28_2 C42_2 1_555 1_555
H29_2 C42_2 1_555 1_555
O11_2 C37_2 1_555 1_555
C43_2 O11_2 1_555 1_555
H30_2 C43_2 1_555 1_555
H31_2 C43_2 1_555 1_555
H32_2 C43_2 1_555 1_555
Al11_2 O6_2 1_555 1_555
O23_2 Al2_3 1_555 1_555
C15_2 C20_2 1_555 1_555
C25_2 C26_2 1_555 1_555
C30_2 C33_2 1_555 1_555
C31_2 C32_2 1_555 1_555
C38_2 C39_2 1_555 1_555
C40_2 C41_2 1_555 1_555
O26_2 C44_2 1_555 1_555
O17_2 C44_2 1_555 1_555
C44_2 C49_2 1_555 1_555
C49_2 C53_2 1_555 1_555
C50_2 C54_2 1_555 1_555
C53_2 H38_2 1_555 1_555
C54_2 C53_2 1_555 1_555
H39_2 C54_2 1_555 1_555
C58_2 C49_2 1_555 1_555
H42_2 C58_2 1_555 1_555
C63_2 C50_2 1_555 1_555
H46_2 C63_2 1_555 1_555
H50_2 C68_2 1_555 1_555
C69_2 C50_2 1_555 1_555
C73_2 H51_2 1_555 1_555
N6_2 C73_2 1_555 1_555
C74_2 N6_2 1_555 1_555
H52_2 C76_2 1_555 1_555
H53_2 C76_2 1_555 1_555
C77_2 C78_2 1_555 1_555
C78_2 C73_2 1_555 1_555
C79_2 C78_2 1_555 1_555
H54_2 C79_2 1_555 1_555
C80_2 C79_2 1_555 1_555
C81_2 C80_2 1_555 1_555
C82_2 C77_2 1_555 1_555
H55_2 C82_2 1_555 1_555
C83_2 C77_2 1_555 1_555
H56_2 C83_2 1_555 1_555
H57_2 C83_2 1_555 1_555
C84_2 N6_2 1_555 1_555
H58_2 C84_2 1_555 1_555
H59_2 C84_2 1_555 1_555
O21_2 C81_2 1_555 1_555
C85_2 O21_2 1_555 1_555
H60_2 C85_2 1_555 1_555
H61_2 C85_2 1_555 1_555
H62_2 C85_2 1_555 1_555
O22_2 C80_2 1_555 1_555
C86_2 O22_2 1_555 1_555
H63_2 C86_2 1_555 1_555
H64_2 C86_2 1_555 1_555
H65_2 C86_2 1_555 1_555
Al13_2 O17_2 1_555 1_555
O24_2 Al2_4 1_555 1_555
C58_2 C63_2 1_555 1_555
C68_2 C69_2 1_555 1_555
C73_2 C76_2 1_555 1_555
C74_2 C75_2 1_555 1_555
C81_2 C82_2 1_555 1_555
C83_2 C84_2 1_555 1_555
Al6 O3_2 1_555 1_555
Al2_5 O2_2 1_555 1_555
Al3_2 O3_2 1_555 1_555
O1_2 C2_2 1_555 1_555
O2_2 C4_2 1_555 1_555
O3_2 H1_2 1_555 1_555
O4_2 Al2_5 1_555 1_555
O7_2 C2_2 1_555 1_555
O8_2 Al3_2 1_555 1_555
N1_2 Al6 1_555 1_555
N2_2 Al3_2 1_555 1_555
C2_2 C3_2 1_555 1_555
C3_2 C8_2 1_555 1_555
C4_2 O8_2 1_555 1_555
C5_2 C4_2 1_555 1_555
C8_2 H3_2 1_555 1_555
C9_2 C8_2 1_555 1_555
H4_2 C9_2 1_555 1_555
C12_2 C13_2 1_555 1_555
C13_2 H7_2 1_555 1_555
C14_2 C5_2 1_555 1_555
C16_2 C5_2 1_555 1_555
H10_2 C16_2 1_555 1_555
C17_2 C12_2 1_555 1_555
H11_2 C17_2 1_555 1_555
C18_2 C9_2 1_555 1_555
C19_2 C3_2 1_555 1_555
H12_2 C19_2 1_555 1_555
C21_2 C12_2 1_555 1_555
C22_2 H14_2 1_555 1_555
C23_2 C21_2 1_555 1_555
H15_2 C23_2 1_555 1_555
C24_2 C18_2 1_555 1_555
H16_2 C24_2 1_555 1_555
C27_2 C18_2 1_555 1_555
C28_2 N2_2 1_555 1_555
C29_2 N1_2 1_555 1_555
Al9_5 O1_2 1_555 1_555
Al13_2 O7_2 1_555 1_555
O27_3 Al6 1_555 1_555
O28_2 Al3_2 1_555 1_555
O31_2 Al3_2 1_555 1_555
Al3_2 O4_2 1_555 1_555
N1_2 N2_2 1_555 1_555
C13_2 C16_2 1_555 1_555
C14_2 C17_2 1_555 1_555
C19_2 C24_2 1_555 1_555
C22_2 C27_2 1_555 1_555
C23_2 C27_2 1_555 1_555
O25_3 Al6_2 1_555 1_555
N7_3 Al6_2 1_555 1_555
O27_4 Al7 1_555 1_555
O25_4 Al7_2 1_555 1_555
N7_4 Al7_2 1_555 1_555
Al9 O2_3 1_555 1_555
Al11 O25_4 1_555 1_555
O23 C2_3 1_555 1_555
O2_3 C4_3 1_555 1_555
O25_4 H1_3 1_555 1_555
O4_3 Al9 1_555 1_555
O30 C2_3 1_555 1_555
O8_3 Al11 1_555 1_555
N2_3 Al11 1_555 1_555
C2_3 C3_3 1_555 1_555
C3_3 C8_3 1_555 1_555
C4_3 O8_3 1_555 1_555
C5_3 C4_3 1_555 1_555
C8_3 H3_3 1_555 1_555
C9_3 C8_3 1_555 1_555
H4_3 C9_3 1_555 1_555
C12_3 C13_3 1_555 1_555
C13_3 H7_3 1_555 1_555
C14_3 C5_3 1_555 1_555
C16_3 C5_3 1_555 1_555
H10_3 C16_3 1_555 1_555
C17_3 C12_3 1_555 1_555
H11_3 C17_3 1_555 1_555
C18_3 C9_3 1_555 1_555
C19_3 C3_3 1_555 1_555
H12_3 C19_3 1_555 1_555
C21_3 C12_3 1_555 1_555
C22_3 H14_3 1_555 1_555
C23_3 C21_3 1_555 1_555
H15_3 C23_3 1_555 1_555
C24_3 C18_3 1_555 1_555
H16_3 C24_3 1_555 1_555
C27_3 C18_3 1_555 1_555
C28_3 N2_3 1_555 1_555
C29_3 N7_4 1_555 1_555
Al11 O4_3 1_555 1_555
N7_4 N2_3 1_555 1_555
C13_3 C16_3 1_555 1_555
C14_3 C17_3 1_555 1_555
C19_3 C24_3 1_555 1_555
C22_3 C27_3 1_555 1_555
C23_3 C27_3 1_555 1_555
O27 C1_3 1_555 1_555
O28 C1_3 1_555 1_555
C1_3 C6_3 1_555 1_555
C6_3 C10_3 1_555 1_555
C7_3 C11_3 1_555 1_555
C10_3 H5_3 1_555 1_555
C11_3 C10_3 1_555 1_555
H6_3 C11_3 1_555 1_555
C15_3 C6_3 1_555 1_555
H9_3 C15_3 1_555 1_555
C20_3 C7_3 1_555 1_555
H13_3 C20_3 1_555 1_555
H17_3 C25_3 1_555 1_555
C26_3 C7_3 1_555 1_555
C30_3 H18_3 1_555 1_555
N3_3 C30_3 1_555 1_555
C31_3 N3_3 1_555 1_555
H19_3 C33_3 1_555 1_555
H20_3 C33_3 1_555 1_555
C34_3 C35_3 1_555 1_555
C35_3 C30_3 1_555 1_555
C36_3 C35_3 1_555 1_555
H21_3 C36_3 1_555 1_555
C37_3 C36_3 1_555 1_555
C38_3 C37_3 1_555 1_555
C39_3 C34_3 1_555 1_555
H22_3 C39_3 1_555 1_555
C40_3 C34_3 1_555 1_555
H23_3 C40_3 1_555 1_555
H24_3 C40_3 1_555 1_555
C41_3 N3_3 1_555 1_555
H25_3 C41_3 1_555 1_555
H26_3 C41_3 1_555 1_555
O10_3 C38_3 1_555 1_555
C42_3 O10_3 1_555 1_555
H27_3 C42_3 1_555 1_555
H28_3 C42_3 1_555 1_555
H29_3 C42_3 1_555 1_555
O11_3 C37_3 1_555 1_555
C43_3 O11_3 1_555 1_555
H30_3 C43_3 1_555 1_555
H31_3 C43_3 1_555 1_555
H32_3 C43_3 1_555 1_555
C15_3 C20_3 1_555 1_555
C25_3 C26_3 1_555 1_555
C30_3 C33_3 1_555 1_555
C31_3 C32_3 1_555 1_555
C38_3 C39_3 1_555 1_555
C40_3 C41_3 1_555 1_555
O27_2 C44_3 1_555 1_555
O29 C44_3 1_555 1_555
C44_3 C49_3 1_555 1_555
C49_3 C53_3 1_555 1_555
C50_3 C54_3 1_555 1_555
C53_3 H38_3 1_555 1_555
C54_3 C53_3 1_555 1_555
H39_3 C54_3 1_555 1_555
C58_3 C49_3 1_555 1_555
H42_3 C58_3 1_555 1_555
C63_3 C50_3 1_555 1_555
H46_3 C63_3 1_555 1_555
H50_3 C68_3 1_555 1_555
C69_3 C50_3 1_555 1_555
C73_3 H51_3 1_555 1_555
N6_3 C73_3 1_555 1_555
C74_3 N6_3 1_555 1_555
H52_3 C76_3 1_555 1_555
H53_3 C76_3 1_555 1_555
C77_3 C78_3 1_555 1_555
C78_3 C73_3 1_555 1_555
C79_3 C78_3 1_555 1_555
H54_3 C79_3 1_555 1_555
C80_3 C79_3 1_555 1_555
C81_3 C80_3 1_555 1_555
C82_3 C77_3 1_555 1_555
H55_3 C82_3 1_555 1_555
C83_3 C77_3 1_555 1_555
H56_3 C83_3 1_555 1_555
H57_3 C83_3 1_555 1_555
C84_3 N6_3 1_555 1_555
H58_3 C84_3 1_555 1_555
H59_3 C84_3 1_555 1_555
O21_3 C81_3 1_555 1_555
C85_3 O21_3 1_555 1_555
H60_3 C85_3 1_555 1_555
H61_3 C85_3 1_555 1_555
H62_3 C85_3 1_555 1_555
O22_3 C80_3 1_555 1_555
C86_3 O22_3 1_555 1_555
H63_3 C86_3 1_555 1_555
H64_3 C86_3 1_555 1_555
H65_3 C86_3 1_555 1_555
C58_3 C63_3 1_555 1_555
C68_3 C69_3 1_555 1_555
C73_3 C76_3 1_555 1_555
C74_3 C75_3 1_555 1_555
C81_3 C82_3 1_555 1_555
C83_3 C84_3 1_555 1_555
Al13 O25_3 1_555 1_555
O24 C45_3 1_555 1_555
O13_3 Al9_4 1_555 1_555
O25_3 H34_3 1_555 1_555
O15_3 Al9_4 1_555 1_555
O31 C45_3 1_555 1_555
O19_3 Al13 1_555 1_555
N7_3 N5_3 1_555 1_555
N5_3 Al13 1_555 1_555
C45_3 C46_3 1_555 1_555
C46_3 C51_3 1_555 1_555
C47_3 O13_3 1_555 1_555
C48_3 C47_3 1_555 1_555
C51_3 H36_3 1_555 1_555
C52_3 C51_3 1_555 1_555
H37_3 C52_3 1_555 1_555
C55_3 C56_3 1_555 1_555
C56_3 H40_3 1_555 1_555
C57_3 C48_3 1_555 1_555
C59_3 C48_3 1_555 1_555
H43_3 C59_3 1_555 1_555
C60_3 C55_3 1_555 1_555
H44_3 C60_3 1_555 1_555
C61_3 C52_3 1_555 1_555
C62_3 C46_3 1_555 1_555
H45_3 C62_3 1_555 1_555
C64_3 C55_3 1_555 1_555
C65_3 H47_3 1_555 1_555
C66_3 C64_3 1_555 1_555
H48_3 C66_3 1_555 1_555
C67_3 C61_3 1_555 1_555
H49_3 C67_3 1_555 1_555
C70_3 C61_3 1_555 1_555
C71_3 N5_3 1_555 1_555
C72_3 N7_3 1_555 1_555
Al13 O15_3 1_555 1_555
O19_3 C47_3 1_555 1_555
C56_3 C59_3 1_555 1_555
C57_3 C60_3 1_555 1_555
C62_3 C67_3 1_555 1_555
C65_3 C70_3 1_555 1_555
C66_3 C70_3 1_555 1_555
Al9_5 O2_4 1_555 1_555
Al13_2 O25_2 1_555 1_555
O24_2 C2_4 1_555 1_555
O2_4 C4_4 1_555 1_555
O25_2 H1_4 1_555 1_555
O4_4 Al9_5 1_555 1_555
H2_4 O4_4 1_555 1_555
O27_4 C1_4 1_555 1_555
O29_2 C1_4 1_555 1_555
O8_4 Al13_2 1_555 1_555
C1_4 C6_4 1_555 1_555
N2_4 Al13_2 1_555 1_555
C2_4 C3_4 1_555 1_555
C3_4 C8_4 1_555 1_555
C4_4 O8_4 1_555 1_555
C5_4 C4_4 1_555 1_555
C6_4 C10_4 1_555 1_555
C7_4 C11_4 1_555 1_555
C8_4 H3_4 1_555 1_555
C9_4 C8_4 1_555 1_555
H4_4 C9_4 1_555 1_555
C10_4 H5_4 1_555 1_555
C11_4 C10_4 1_555 1_555
H6_4 C11_4 1_555 1_555
C12_4 C13_4 1_555 1_555
C13_4 H7_4 1_555 1_555
C14_4 C5_4 1_555 1_555
H8_4 C14_4 1_555 1_555
C15_4 C6_4 1_555 1_555
H9_4 C15_4 1_555 1_555
C16_4 C5_4 1_555 1_555
H10_4 C16_4 1_555 1_555
C17_4 C12_4 1_555 1_555
H11_4 C17_4 1_555 1_555
C18_4 C9_4 1_555 1_555
C19_4 C3_4 1_555 1_555
C20_4 C7_4 1_555 1_555
H13_4 C20_4 1_555 1_555
C21_4 C12_4 1_555 1_555
C22_4 H14_4 1_555 1_555
C23_4 C21_4 1_555 1_555
H15_4 C23_4 1_555 1_555
C24_4 C18_4 1_555 1_555
H16_4 C24_4 1_555 1_555
C25_4 C21_4 1_555 1_555
H17_4 C25_4 1_555 1_555
C26_4 C7_4 1_555 1_555
C27_4 C18_4 1_555 1_555
C28_4 N2_4 1_555 1_555
C29_4 N7_2 1_555 1_555
C30_4 H18_4 1_555 1_555
O9_2 C31_4 1_555 1_555
N3_4 C30_4 1_555 1_555
C31_4 N3_4 1_555 1_555
C32_4 C28_4 1_555 1_555
C33_4 C28_4 1_555 1_555
H19_4 C33_4 1_555 1_555
H20_4 C33_4 1_555 1_555
C34_4 C35_4 1_555 1_555
C35_4 C30_4 1_555 1_555
C36_4 C35_4 1_555 1_555
H21_4 C36_4 1_555 1_555
C37_4 C36_4 1_555 1_555
C38_4 C37_4 1_555 1_555
C39_4 C34_4 1_555 1_555
H22_4 C39_4 1_555 1_555
C40_4 C34_4 1_555 1_555
H23_4 C40_4 1_555 1_555
H24_4 C40_4 1_555 1_555
C41_4 N3_4 1_555 1_555
H25_4 C41_4 1_555 1_555
H26_4 C41_4 1_555 1_555
O10_4 C38_4 1_555 1_555
C42_4 O10_4 1_555 1_555
H27_4 C42_4 1_555 1_555
H28_4 C42_4 1_555 1_555
H29_4 C42_4 1_555 1_555
O11_4 C37_4 1_555 1_555
C43_4 O11_4 1_555 1_555
H30_4 C43_4 1_555 1_555
H31_4 C43_4 1_555 1_555
H32_4 C43_4 1_555 1_555
H33_4 C29_4 1_555 1_555
Al11_2 O25 1_555 1_555
O23_2 C45_4 1_555 1_555
O13_4 Al9_5 1_555 1_555
O25 H34_4 1_555 1_555
O15_4 Al9_5 1_555 1_555
H35_4 O15_4 1_555 1_555
O27_3 C44_4 1_555 1_555
O28_2 C44_4 1_555 1_555
O19_4 Al11_2 1_555 1_555
N7 N5_4 1_555 1_555
C44_4 C49_4 1_555 1_555
N5_4 Al11_2 1_555 1_555
C45_4 C46_4 1_555 1_555
C46_4 C51_4 1_555 1_555
C47_4 O13_4 1_555 1_555
C48_4 C47_4 1_555 1_555
C49_4 C53_4 1_555 1_555
C50_4 C54_4 1_555 1_555
C51_4 H36_4 1_555 1_555
C52_4 C51_4 1_555 1_555
H37_4 C52_4 1_555 1_555
C53_4 H38_4 1_555 1_555
C54_4 C53_4 1_555 1_555
H39_4 C54_4 1_555 1_555
C55_4 C56_4 1_555 1_555
C56_4 H40_4 1_555 1_555
C57_4 C48_4 1_555 1_555
H41_4 C57_4 1_555 1_555
C58_4 C49_4 1_555 1_555
H42_4 C58_4 1_555 1_555
C59_4 C48_4 1_555 1_555
H43_4 C59_4 1_555 1_555
C60_4 C55_4 1_555 1_555
H44_4 C60_4 1_555 1_555
C61_4 C52_4 1_555 1_555
C62_4 C46_4 1_555 1_555
C63_4 C50_4 1_555 1_555
H46_4 C63_4 1_555 1_555
C64_4 C55_4 1_555 1_555
C65_4 H47_4 1_555 1_555
C66_4 C64_4 1_555 1_555
H48_4 C66_4 1_555 1_555
C67_4 C61_4 1_555 1_555
H49_4 C67_4 1_555 1_555
C68_4 C64_4 1_555 1_555
H50_4 C68_4 1_555 1_555
C69_4 C50_4 1_555 1_555
C70_4 C61_4 1_555 1_555
C71_4 N5_4 1_555 1_555
C72_4 N7 1_555 1_555
C73_4 H51_4 1_555 1_555
O20_2 C74_4 1_555 1_555
N6_4 C73_4 1_555 1_555
C74_4 N6_4 1_555 1_555
C75_4 C71_4 1_555 1_555
C76_4 C71_4 1_555 1_555
H52_4 C76_4 1_555 1_555
H53_4 C76_4 1_555 1_555
C77_4 C78_4 1_555 1_555
C78_4 C73_4 1_555 1_555
C79_4 C78_4 1_555 1_555
H54_4 C79_4 1_555 1_555
C80_4 C79_4 1_555 1_555
C81_4 C80_4 1_555 1_555
C82_4 C77_4 1_555 1_555
H55_4 C82_4 1_555 1_555
C83_4 C77_4 1_555 1_555
H56_4 C83_4 1_555 1_555
H57_4 C83_4 1_555 1_555
C84_4 N6_4 1_555 1_555
H58_4 C84_4 1_555 1_555
H59_4 C84_4 1_555 1_555
O21_4 C81_4 1_555 1_555
C85_4 O21_4 1_555 1_555
H60_4 C85_4 1_555 1_555
H61_4 C85_4 1_555 1_555
H62_4 C85_4 1_555 1_555
O22_4 C80_4 1_555 1_555
C86_4 O22_4 1_555 1_555
H63_4 C86_4 1_555 1_555
H64_4 C86_4 1_555 1_555
H65_4 C86_4 1_555 1_555
H66_4 C72_4 1_555 1_555
Al13_2 O4_4 1_555 1_555
N7_2 N2_4 1_555 1_555
C13_4 C16_4 1_555 1_555
C14_4 C17_4 1_555 1_555
C15_4 C20_4 1_555 1_555
C19_4 C24_4 1_555 1_555
C22_4 C26_4 1_555 1_555
C22_4 C27_4 1_555 1_555
C23_4 C27_4 1_555 1_555
C25_4 C26_4 1_555 1_555
C29_4 C32_4 1_555 1_555
C30_4 C33_4 1_555 1_555
C31_4 C32_4 1_555 1_555
C38_4 C39_4 1_555 1_555
C40_4 C41_4 1_555 1_555
Al11_2 O15_4 1_555 1_555
O19_4 C47_4 1_555 1_555
C56_4 C59_4 1_555 1_555
C57_4 C60_4 1_555 1_555
C58_4 C63_4 1_555 1_555
C62_4 C67_4 1_555 1_555
C65_4 C69_4 1_555 1_555
C65_4 C70_4 1_555 1_555
C66_4 C70_4 1_555 1_555
C68_4 C69_4 1_555 1_555
C72_4 C75_4 1_555 1_555
C73_4 C76_4 1_555 1_555
C74_4 C75_4 1_555 1_555
C81_4 C82_4 1_555 1_555
C83_4 C84_4 1_555 1_555

#END
