
###############################################################################
#
# This file contains modified crystal structure data generated from the
# MOF subset of the Cambridge Structural Database (CSD) v543 
# hosted by the Cambridge Crystallographic Data Centre (CCDC).
#
# This work is licensed under the Creative Commons
# Attribution-NonCommercial-ShareAlike 4.0 International License.
# To view a copy of this license, visit
# http://creativecommons.org/licenses/by-nc-sa/4.0/
# or send a letter to
# Creative Commons, PO Box 1866, Mountain View, CA 94042, USA.
#
# CIF created using the CSD Python API on 29 September 2022
# The structure has been converted into the P1 space group
# The structure has a 3D framework
# The original CSD entry QOXSUU is in the tetragonal crystal system
# The original CSD entry QOXSUU is in a Sohncke space group
# The framework has been calculated to contain at least 10.0% void space
# The void calculation uses a probe of radius 1.32A, grid spacing 0.4
#
###############################################################################

data_QOXSUU
_chemical_formula_moiety         '(C240 H160 Al16 N16 O64)n'
_symmetry_cell_setting           triclinic
_symmetry_space_group_name_H-M   'P 1'
_symmetry_Int_Tables_number      1
_space_group_name_Hall           'P 1'
loop_
_symmetry_equiv_pos_site_id
_symmetry_equiv_pos_as_xyz
1 x,y,z
_cell_length_a                   19.4481(6)
_cell_length_b                   19.4481(6)
_cell_length_c                   35.7074(13)
_cell_angle_alpha                90
_cell_angle_beta                 90
_cell_angle_gamma                90
_cell_volume                     13505.6
loop_
_atom_site_label
_atom_site_type_symbol
_atom_site_fract_x
_atom_site_fract_y
_atom_site_fract_z
Al2 Al -0.000000 -0.000000 0.11516(3)
H19 H 0.000143 0.344057 0.049088
H20 H 0.001158 0.245785 0.094573
O20 O 0.08806(11) 0.04447(11) 0.11748(6)
Al2_2 Al 0.000000 1.000000 0.11516(3)
O18 O 0.03007(9) 0.93703(10) 0.07987(5)
O22 O 0.02705(11) 0.94104(13) 0.15479(5)
Al1 Al 0.83894(5) 0.16106(5) 0.000000
Al2_3 Al 1.000000 -0.000000 0.11516(3)
Al3 Al 0.89161(5) 0.11591(5) 0.08193(2)
O1 O 0.86500(11) 0.09429(11) 0.03409(5)
H1 H 0.864582 0.047425 0.026582
O2 O 0.96993(9) 0.06297(10) 0.07987(5)
H2 H 0.998044 0.068555 0.058325
O3 O 0.76318(11) 0.18580(12) 0.03155(5)
O4 O 0.80800(12) 0.16629(12) 0.08799(5)
C1 C 0.76040(17) 0.18109(17) 0.06673(9)
C2 C 0.44347(18) 0.3836(2) 0.34281(9)
C3 C 0.44149(18) 0.3509(2) 0.30537(9)
C4 C 0.69291(17) 0.19380(19) 0.08563(9)
C5 C 0.4427(2) 0.1836(3) 0.13040(11)
H3 H 0.444034 0.158570 0.107574
C6 C 0.5018(2) 0.2170(3) 0.14259(11)
C7 C 0.14671(18) 0.02044(18) 0.11314(8)
C8 C 0.4393(2) 0.2540(2) 0.19806(10)
C9 C 0.32065(19) 0.1447(2) 0.13855(11)
C10 C 0.6269(2) 0.1978(3) 0.14194(10)
H4 H 0.625347 0.194293 0.168467
C11 C 0.4068(2) 0.2591(3) 0.26588(11)
H5 H 0.384435 0.216036 0.262937
C12 C 0.4982(2) 0.2507(3) 0.17673(10)
H6 H 0.538394 0.272720 0.185879
C13 C 0.56634(18) 0.2108(2) 0.12196(10)
C14 C 0.2557(2) 0.1676(2) 0.14365(11)
H7 H 0.249004 0.212422 0.153537
C15 C 0.1986(2) 0.1282(2) 0.13501(10)
H8 H 0.153835 0.146332 0.138781
C16 C 0.63367(19) 0.2084(2) 0.06545(10)
H9 H 0.635889 0.212780 0.038981
C17 C 0.38127(19) 0.2207(2) 0.18458(11)
H10 H 0.340193 0.221693 0.198968
C18 C 0.6892(2) 0.1900(2) 0.12342(10)
H11 H 0.729888 0.181811 0.137495
C19 C 0.4069(2) 0.2899(2) 0.30018(10)
H12 H 0.383042 0.269271 0.320494
C20 C 0.4733(2) 0.3499(2) 0.24086(10)
H13 H 0.496956 0.371068 0.220624
C21 C 0.4743(2) 0.3808(2) 0.27557(9)
H14 H 0.498010 0.423071 0.278882
C22 C 0.27209(19) 0.0410(2) 0.11425(11)
C23 C 0.5717(2) 0.2167(2) 0.08359(11)
H16 H 0.531666 0.226617 0.069317
C24 C 0.43886(19) 0.2894(2) 0.23488(10)
C25 C 0.38162(19) 0.1858(2) 0.15059(11)
C26 C 0.20648(17) 0.0637(2) 0.12117(9)
C27 C 0.3282(2) 0.0806(3) 0.12338(11)
H17 H 0.373068 0.063036 0.119055
N1 N 0.93345(16) 0.20003(16) 0.06104(8)
O7 O 0.47295(11) 0.44104(13) 0.34521(5)
O8 O 0.41347(12) 0.35270(13) 0.36946(6)
N2 N 0.90361(16) 0.22354(15) 0.02709(7)
C28 C 0.9319(3) 0.2828(3) 0.02068(14)
C29 C 0.9749(3) 0.3023(3) 0.04740(17)
C30 C 0.9746(3) 0.2478(3) 0.07226(13)
H35 H 0.721185 0.002706 0.102979
O14 O 0.84038(11) 0.04095(13) 0.10253(6)
Al8 Al 0.500000 0.500000 0.38484(3)
Al9 Al 0.39161(5) 0.38409(5) 0.41807(2)
O21 O 0.97295(11) 0.05896(13) 0.15479(5)
O23 O 0.91347(12) 0.14730(13) 0.13054(6)
Al1_2 Al 0.83894(5) 0.16106(5) 1.000000
H18 H 0.922640 0.309532 0.998991
O17 O 0.90571(11) 0.13500(11) 0.96591(5)
O19 O 0.81420(12) 0.23682(11) 0.96845(5)
N5 N 0.77646(15) 0.09639(16) 0.97291(7)
Al2_4 Al 1.000000 1.000000 0.11516(3)
H15 H 0.278815 0.997294 0.102979
O6 O 0.15962(11) 0.95905(13) 0.10253(6)
Al4 Al 0.10839(5) 0.88409(5) 0.08193(2)
O9 O 0.13500(11) 0.90571(11) 0.03409(5)
H21 H 0.135418 0.952575 0.026582
H22 H 0.001956 0.931445 0.058325
O11 O 0.23682(11) 0.81420(12) 0.03155(5)
O12 O 0.19200(12) 0.83371(12) 0.08799(5)
C31 C 0.23960(17) 0.81891(17) 0.06673(9)
C32 C 0.55653(18) 0.6164(2) 0.34281(9)
C33 C 0.55851(18) 0.6491(2) 0.30537(9)
C34 C 0.30709(17) 0.80620(19) 0.08563(9)
C35 C 0.5573(2) 0.8164(3) 0.13040(11)
H23 H 0.555966 0.841430 0.107574
C36 C 0.4982(2) 0.7830(3) 0.14259(11)
C37 C 0.85329(18) 0.97956(18) 0.11314(8)
C38 C 0.5607(2) 0.7460(2) 0.19806(10)
C39 C 0.67935(19) 0.8553(2) 0.13855(11)
C40 C 0.3731(2) 0.8022(3) 0.14194(10)
H24 H 0.374653 0.805707 0.168467
C41 C 0.5932(2) 0.7409(3) 0.26588(11)
H25 H 0.615565 0.783964 0.262937
C42 C 0.5018(2) 0.7493(3) 0.17673(10)
H26 H 0.461606 0.727280 0.185879
C43 C 0.43366(18) 0.7892(2) 0.12196(10)
C44 C 0.7443(2) 0.8324(2) 0.14365(11)
H27 H 0.750996 0.787578 0.153537
C45 C 0.8014(2) 0.8718(2) 0.13501(10)
H28 H 0.846165 0.853668 0.138781
C46 C 0.36633(19) 0.7916(2) 0.06545(10)
H29 H 0.364111 0.787220 0.038981
C47 C 0.61873(19) 0.7793(2) 0.18458(11)
H30 H 0.659807 0.778307 0.198968
C48 C 0.3108(2) 0.8100(2) 0.12342(10)
H31 H 0.270112 0.818189 0.137495
C49 C 0.5931(2) 0.7101(2) 0.30018(10)
H32 H 0.616958 0.730729 0.320494
C50 C 0.5267(2) 0.6501(2) 0.24086(10)
H33 H 0.503044 0.628932 0.220624
C51 C 0.5257(2) 0.6192(2) 0.27557(9)
H34 H 0.501990 0.576929 0.278882
C52 C 0.72791(19) 0.9590(2) 0.11425(11)
C53 C 0.4283(2) 0.7833(2) 0.08359(11)
H36 H 0.468334 0.773383 0.069317
C54 C 0.56114(19) 0.7106(2) 0.23488(10)
C55 C 0.61838(19) 0.8142(2) 0.15059(11)
C56 C 0.79352(17) 0.9363(2) 0.12117(9)
C57 C 0.6718(2) 0.9194(3) 0.12338(11)
H37 H 0.626932 0.936964 0.119055
O13 O 0.91194(11) 0.95553(11) 0.11748(6)
N3 N 0.06655(16) 0.79997(16) 0.06104(8)
O15 O 0.52705(11) 0.55896(13) 0.34521(5)
O16 O 0.58653(12) 0.64730(13) 0.36946(6)
N4 N 0.09639(16) 0.77646(15) 0.02709(7)
C58 C 0.0681(3) 0.7172(3) 0.02068(14)
C59 C 0.0251(3) 0.6977(3) 0.04740(17)
C60 C 0.0254(3) 0.7522(3) 0.07226(13)
Al5 Al 0.16106(5) 0.83894(5) 0.000000
Al10 Al 0.60839(5) 0.61591(5) 0.41807(2)
O24 O 0.08653(12) 0.85270(13) 0.13054(6)
H38 H 0.077360 0.690468 0.998991
Al5_2 Al 0.16106(5) 0.83894(5) 1.000000
H39 H 0.999857 0.655943 0.049088
H40 H 0.998842 0.754215 0.094573
Al7 Al -0.000000 -0.000000 0.88484(3)
Al7_2 Al -0.000000 1.000000 0.88484(3)
Al1_3 Al 0.33894(5) 0.33894(5) 0.500000
Al2_5 Al 0.500000 0.500000 0.61516(3)
Al3_2 Al 0.38409(5) 0.39161(5) 0.58193(2)
O1_2 O 0.40571(11) 0.36500(11) 0.53409(5)
H1_2 H 0.452575 0.364582 0.526582
O2_2 O 0.43703(10) 0.46993(9) 0.57987(5)
H2_2 H 0.431445 0.498044 0.558325
O3_2 O 0.31420(12) 0.26318(11) 0.53155(5)
O4_2 O 0.33371(12) 0.30800(12) 0.58799(5)
C1_2 C 0.31891(17) 0.26040(17) 0.56673(9)
C4_2 C 0.30620(19) 0.19291(17) 0.58563(9)
C6_2 C 0.2830(3) 0.0018(2) 0.64259(11)
C10_2 C 0.3022(3) 0.1269(2) 0.64194(10)
H4_2 H 0.305707 0.125347 0.668467
H6_2 H 0.227280 0.038394 0.685879
C13_2 C 0.2892(2) 0.06634(18) 0.62196(10)
C16_2 C 0.2916(2) 0.13367(19) 0.56545(10)
H9_2 H 0.287220 0.135889 0.538981
C18_2 C 0.3100(2) 0.1892(2) 0.62342(10)
H11_2 H 0.318189 0.229888 0.637495
C23_2 C 0.2833(2) 0.0717(2) 0.58359(11)
H16_2 H 0.273383 0.031666 0.569317
N1_2 N 0.29997(16) 0.43345(16) 0.56104(8)
N2_2 N 0.27646(15) 0.40361(16) 0.52709(7)
C28_2 C 0.2172(3) 0.4319(3) 0.52068(14)
H18_2 H 0.190468 0.422640 0.498991
C29_2 C 0.1977(3) 0.4749(3) 0.54740(17)
H19_2 H 0.155943 0.500143 0.549088
C30_2 C 0.2522(3) 0.4746(3) 0.57226(13)
H20_2 H 0.254215 0.501158 0.594573
C32_2 C 0.8836(2) 0.05653(18) 0.84281(9)
C33_2 C 0.8509(2) 0.05851(18) 0.80537(9)
C35_2 C 0.6836(3) 0.0573(2) 0.63040(11)
H23_2 H 0.658570 0.055966 0.607574
C37_2 C 0.52044(18) 0.35329(18) 0.61314(8)
C38_2 C 0.7540(2) 0.0607(2) 0.69806(10)
C39_2 C 0.6447(2) 0.17935(19) 0.63855(11)
C41_2 C 0.7591(3) 0.0932(2) 0.76588(11)
H25_2 H 0.716036 0.115565 0.762937
C42_2 C 0.7507(3) 0.0018(2) 0.67673(10)
C44_2 C 0.6676(2) 0.2443(2) 0.64365(11)
H27_2 H 0.712422 0.250996 0.653537
C45_2 C 0.6282(2) 0.3014(2) 0.63501(10)
H28_2 H 0.646332 0.346165 0.638781
C47_2 C 0.7207(2) 0.11873(19) 0.68458(11)
H30_2 H 0.721693 0.159807 0.698968
C49_2 C 0.7899(2) 0.0931(2) 0.80018(10)
H32_2 H 0.769271 0.116958 0.820494
C50_2 C 0.8499(2) 0.0267(2) 0.74086(10)
H33_2 H 0.871068 0.003044 0.720624
C51_2 C 0.8808(2) 0.0257(2) 0.77557(9)
H34_2 H 0.923071 0.001990 0.778882
C52_2 C 0.5410(2) 0.22791(19) 0.61425(11)
H35_2 H 0.497294 0.221185 0.602979
C54_2 C 0.7894(2) 0.06114(19) 0.73488(10)
C55_2 C 0.6858(2) 0.11838(19) 0.65059(11)
C56_2 C 0.5637(2) 0.29352(17) 0.62117(9)
C57_2 C 0.5806(3) 0.1718(2) 0.62338(11)
H37_2 H 0.563036 0.126932 0.619055
O13_2 O 0.54447(11) 0.41194(11) 0.61748(6)
O14_2 O 0.45905(13) 0.34038(11) 0.60253(6)
O15_2 O 0.94104(13) 0.02705(11) 0.84521(5)
O16_2 O 0.85270(13) 0.08653(12) 0.86946(6)
Al7_3 Al 1.000000 -0.000000 0.88484(3)
Al10_2 Al 0.88409(5) 0.10839(5) 0.91807(2)
O17_2 O 0.36500(11) 0.40571(11) 0.46591(5)
O18_2 O 0.56297(10) 0.53007(9) 0.57987(5)
O19_2 O 0.26318(11) 0.31420(12) 0.46845(5)
O20_2 O 0.45553(11) 0.58806(11) 0.61748(6)
O21_2 O 0.44104(13) 0.47295(11) 0.65479(5)
O22_2 O 0.55896(13) 0.52705(11) 0.65479(5)
O23_2 O 0.35270(13) 0.41347(12) 0.63054(6)
N5_2 N 0.40361(16) 0.27646(15) 0.47291(7)
C2_2 C 0.1164(2) 0.94347(18) 0.84281(9)
C3_2 C 0.1491(2) 0.94149(18) 0.80537(9)
C5_2 C 0.3164(3) 0.9427(2) 0.63040(11)
H3_2 H 0.341430 0.944034 0.607574
C7_2 C 0.47956(18) 0.64671(18) 0.61314(8)
C8_2 C 0.2460(2) 0.9393(2) 0.69806(10)
C9_2 C 0.3553(2) 0.82065(19) 0.63855(11)
C11_2 C 0.2409(3) 0.9068(2) 0.76588(11)
H5_2 H 0.283964 0.884435 0.762937
C12_2 C 0.2493(3) 0.9982(2) 0.67673(10)
C14_2 C 0.3324(2) 0.7557(2) 0.64365(11)
H7_2 H 0.287578 0.749004 0.653537
C15_2 C 0.3718(2) 0.6986(2) 0.63501(10)
H8_2 H 0.353668 0.653835 0.638781
C17_2 C 0.2793(2) 0.88127(19) 0.68458(11)
H10_2 H 0.278307 0.840193 0.698968
C19_2 C 0.2101(2) 0.9069(2) 0.80018(10)
H12_2 H 0.230729 0.883042 0.820494
C20_2 C 0.1501(2) 0.9733(2) 0.74086(10)
H13_2 H 0.128932 0.996956 0.720624
C21_2 C 0.1192(2) 0.9743(2) 0.77557(9)
H14_2 H 0.076929 0.998010 0.778882
C22_2 C 0.4590(2) 0.77209(19) 0.61425(11)
H15_2 H 0.502706 0.778815 0.602979
C24_2 C 0.2106(2) 0.93886(19) 0.73488(10)
C25_2 C 0.3142(2) 0.88162(19) 0.65059(11)
C26_2 C 0.4363(2) 0.70648(17) 0.62117(9)
C27_2 C 0.4194(3) 0.8282(2) 0.62338(11)
H17_2 H 0.436964 0.873068 0.619055
O6_2 O 0.54095(13) 0.65962(11) 0.60253(6)
O7_2 O 0.05896(13) 0.97295(11) 0.84521(5)
O8_2 O 0.14730(13) 0.91347(12) 0.86946(6)
Al4_2 Al 0.61591(5) 0.60839(5) 0.58193(2)
O9_2 O 0.59429(11) 0.63500(11) 0.53409(5)
H21_2 H 0.547425 0.635418 0.526582
H22_2 H 0.568555 0.501956 0.558325
O11_2 O 0.68580(12) 0.73682(11) 0.53155(5)
O12_2 O 0.66629(12) 0.69200(12) 0.58799(5)
C31_2 C 0.68109(17) 0.73960(17) 0.56673(9)
C34_2 C 0.69380(19) 0.80709(17) 0.58563(9)
C36_2 C 0.7170(3) 0.9982(2) 0.64259(11)
C40_2 C 0.6978(3) 0.8731(2) 0.64194(10)
H24_2 H 0.694293 0.874653 0.668467
H26_2 H 0.772720 0.961606 0.685879
C43_2 C 0.7108(2) 0.93366(18) 0.62196(10)
C46_2 C 0.7084(2) 0.86633(19) 0.56545(10)
H29_2 H 0.712780 0.864111 0.538981
C48_2 C 0.6900(2) 0.8108(2) 0.62342(10)
H31_2 H 0.681811 0.770112 0.637495
C53_2 C 0.7167(2) 0.9283(2) 0.58359(11)
H36_2 H 0.726617 0.968334 0.569317
N3_2 N 0.70003(16) 0.56655(16) 0.56104(8)
N4_2 N 0.72354(15) 0.59639(16) 0.52709(7)
C58_2 C 0.7828(3) 0.5681(3) 0.52068(14)
H38_2 H 0.809532 0.577360 0.498991
C59_2 C 0.8023(3) 0.5251(3) 0.54740(17)
H39_2 H 0.844057 0.499857 0.549088
C60_2 C 0.7478(3) 0.5254(3) 0.57226(13)
H40_2 H 0.745785 0.498842 0.594573
Al5_3 Al 0.66106(5) 0.66106(5) 0.500000
Al7_4 Al 1.000000 1.000000 0.88484(3)
Al9_2 Al 0.11591(5) 0.89161(5) 0.91807(2)
O24_2 O 0.64730(13) 0.58653(12) 0.63054(6)
O17_3 O 0.09429(11) 0.86500(11) 0.96591(5)
O19_3 O 0.18580(12) 0.76318(11) 0.96845(5)
N5_3 N 0.22354(15) 0.90361(16) 0.97291(7)
O17_4 O 0.63500(11) 0.59429(11) 0.46591(5)
O19_4 O 0.73682(11) 0.68580(12) 0.46845(5)
N5_4 N 0.59639(16) 0.72354(15) 0.47291(7)
H1_3 H 0.364582 0.452575 0.473418
O2_3 O 0.46993(9) 0.43703(10) 0.42013(5)
H2_3 H 0.498044 0.431445 0.441675
O4_3 O 0.30800(12) 0.33371(12) 0.41201(5)
C1_3 C 0.26040(17) 0.31891(17) 0.43327(9)
C4_3 C 0.19291(17) 0.30620(19) 0.41437(9)
C6_3 C 0.0018(2) 0.2830(3) 0.35741(11)
C10_3 C 0.1269(2) 0.3022(3) 0.35806(10)
H4_3 H 0.125347 0.305707 0.331533
H6_3 H 0.038394 0.227280 0.314121
C13_3 C 0.06634(18) 0.2892(2) 0.37804(10)
C16_3 C 0.13367(19) 0.2916(2) 0.43455(10)
H9_3 H 0.135889 0.287220 0.461019
C18_3 C 0.1892(2) 0.3100(2) 0.37658(10)
H11_3 H 0.229888 0.318189 0.362505
C23_3 C 0.0717(2) 0.2833(2) 0.41641(11)
H16_3 H 0.031666 0.273383 0.430683
N1_3 N 0.43345(16) 0.29997(16) 0.43896(8)
C28_3 C 0.4319(3) 0.2172(3) 0.47932(14)
H18_3 H 0.422640 0.190468 0.501009
C29_3 C 0.4749(3) 0.1977(3) 0.45260(17)
H19_3 H 0.500143 0.155943 0.450912
C30_3 C 0.4746(3) 0.2522(3) 0.42774(13)
H20_3 H 0.501158 0.254215 0.405427
C32_3 C 0.05653(18) 0.8836(2) 0.15719(9)
C33_3 C 0.05851(18) 0.8509(2) 0.19463(9)
C35_3 C 0.0573(2) 0.6836(3) 0.36960(11)
H23_3 H 0.055966 0.658570 0.392426
C37_3 C 0.35329(18) 0.52044(18) 0.38686(8)
C38_3 C 0.0607(2) 0.7540(2) 0.30194(10)
C39_3 C 0.17935(19) 0.6447(2) 0.36145(11)
C41_3 C 0.0932(2) 0.7591(3) 0.23412(11)
H25_3 H 0.115565 0.716036 0.237063
C42_3 C 0.0018(2) 0.7507(3) 0.32327(10)
C44_3 C 0.2443(2) 0.6676(2) 0.35635(11)
H27_3 H 0.250996 0.712422 0.346463
C45_3 C 0.3014(2) 0.6282(2) 0.36499(10)
H28_3 H 0.346165 0.646332 0.361219
C47_3 C 0.11873(19) 0.7207(2) 0.31542(11)
H30_3 H 0.159807 0.721693 0.301032
C49_3 C 0.0931(2) 0.7899(2) 0.19982(10)
H32_3 H 0.116958 0.769271 0.179506
C50_3 C 0.0267(2) 0.8499(2) 0.25914(10)
H33_3 H 0.003044 0.871068 0.279376
C51_3 C 0.0257(2) 0.8808(2) 0.22443(9)
H34_3 H 0.001990 0.923071 0.221118
C52_3 C 0.22791(19) 0.5410(2) 0.38575(11)
H35_3 H 0.221185 0.497294 0.397021
C54_3 C 0.06114(19) 0.7894(2) 0.26512(10)
C55_3 C 0.11838(19) 0.6858(2) 0.34941(11)
C56_3 C 0.29352(17) 0.5637(2) 0.37883(9)
C57_3 C 0.1718(2) 0.5806(3) 0.37662(11)
H37_3 H 0.126932 0.563036 0.380945
O13_3 O 0.41194(11) 0.54447(11) 0.38252(6)
O14_3 O 0.34038(11) 0.45905(13) 0.39747(6)
O18_3 O 0.53007(9) 0.56297(10) 0.42013(5)
O20_3 O 0.58806(11) 0.45553(11) 0.38252(6)
C2_3 C 0.94347(18) 0.1164(2) 0.15719(9)
C3_3 C 0.94149(18) 0.1491(2) 0.19463(9)
C5_3 C 0.9427(2) 0.3164(3) 0.36960(11)
H3_3 H 0.944034 0.341430 0.392426
C7_3 C 0.64671(18) 0.47956(18) 0.38686(8)
C8_3 C 0.9393(2) 0.2460(2) 0.30194(10)
C9_3 C 0.82065(19) 0.3553(2) 0.36145(11)
C11_3 C 0.9068(2) 0.2409(3) 0.23412(11)
H5_3 H 0.884435 0.283964 0.237063
C12_3 C 0.9982(2) 0.2493(3) 0.32327(10)
C14_3 C 0.7557(2) 0.3324(2) 0.35635(11)
H7_3 H 0.749004 0.287578 0.346463
C15_3 C 0.6986(2) 0.3718(2) 0.36499(10)
H8_3 H 0.653835 0.353668 0.361219
C17_3 C 0.88127(19) 0.2793(2) 0.31542(11)
H10_3 H 0.840193 0.278307 0.301032
C19_3 C 0.9069(2) 0.2101(2) 0.19982(10)
H12_3 H 0.883042 0.230729 0.179506
C20_3 C 0.9733(2) 0.1501(2) 0.25914(10)
H13_3 H 0.996956 0.128932 0.279376
C21_3 C 0.9743(2) 0.1192(2) 0.22443(9)
H14_3 H 0.998010 0.076929 0.221118
C22_3 C 0.77209(19) 0.4590(2) 0.38575(11)
H15_3 H 0.778815 0.502706 0.397021
C24_3 C 0.93886(19) 0.2106(2) 0.26512(10)
C25_3 C 0.88162(19) 0.3142(2) 0.34941(11)
C26_3 C 0.70648(17) 0.4363(2) 0.37883(9)
C27_3 C 0.8282(2) 0.4194(3) 0.37662(11)
H17_3 H 0.873068 0.436964 0.380945
O6_3 O 0.65962(11) 0.54095(13) 0.39747(6)
H21_3 H 0.635418 0.547425 0.473418
H22_3 H 0.501956 0.568555 0.441675
O12_3 O 0.69200(12) 0.66629(12) 0.41201(5)
C31_3 C 0.73960(17) 0.68109(17) 0.43327(9)
C34_3 C 0.80709(17) 0.69380(19) 0.41437(9)
C36_3 C 0.9982(2) 0.7170(3) 0.35741(11)
C40_3 C 0.8731(2) 0.6978(3) 0.35806(10)
H24_3 H 0.874653 0.694293 0.331533
H26_3 H 0.961606 0.772720 0.314121
C43_3 C 0.93366(18) 0.7108(2) 0.37804(10)
C46_3 C 0.86633(19) 0.7084(2) 0.43455(10)
H29_3 H 0.864111 0.712780 0.461019
C48_3 C 0.8108(2) 0.6900(2) 0.37658(10)
H31_3 H 0.770112 0.681811 0.362505
C53_3 C 0.9283(2) 0.7167(2) 0.41641(11)
H36_3 H 0.968334 0.726617 0.430683
N3_3 N 0.56655(16) 0.70003(16) 0.43896(8)
C58_3 C 0.5681(3) 0.7828(3) 0.47932(14)
H38_3 H 0.577360 0.809532 0.501009
C59_3 C 0.5251(3) 0.8023(3) 0.45260(17)
H39_3 H 0.499857 0.844057 0.450912
C60_3 C 0.5254(3) 0.7478(3) 0.42774(13)
H40_3 H 0.498842 0.745785 0.405427
H19_4 H 0.344057 0.000143 0.950912
H20_4 H 0.245785 0.001158 0.905427
O20_4 O 0.04447(11) 0.08806(11) 0.88252(6)
H18_4 H 0.309532 0.922640 0.001009
H1_4 H 0.047425 0.864582 0.973418
O2_4 O 0.06297(10) 0.96993(9) 0.92013(5)
H2_4 H 0.068555 0.998044 0.941675
O4_4 O 0.16629(12) 0.80800(12) 0.91201(5)
C1_4 C 0.18109(17) 0.76040(17) 0.93327(9)
C2_4 C 0.3836(2) 0.44347(18) 0.65719(9)
C3_4 C 0.3509(2) 0.44149(18) 0.69463(9)
C4_4 C 0.19380(19) 0.69291(17) 0.91437(9)
C5_4 C 0.1836(3) 0.4427(2) 0.86960(11)
H3_4 H 0.158570 0.444034 0.892426
C6_4 C 0.2170(3) 0.5018(2) 0.85741(11)
C7_4 C 0.02044(18) 0.14671(18) 0.88686(8)
C8_4 C 0.2540(2) 0.4393(2) 0.80194(10)
C9_4 C 0.1447(2) 0.32065(19) 0.86145(11)
C10_4 C 0.1978(3) 0.6269(2) 0.85806(10)
H4_4 H 0.194293 0.625347 0.831533
C11_4 C 0.2591(3) 0.4068(2) 0.73412(11)
H5_4 H 0.216036 0.384435 0.737063
C12_4 C 0.2507(3) 0.4982(2) 0.82327(10)
H6_4 H 0.272720 0.538394 0.814121
C13_4 C 0.2108(2) 0.56634(18) 0.87804(10)
C14_4 C 0.1676(2) 0.2557(2) 0.85635(11)
H7_4 H 0.212422 0.249004 0.846463
C15_4 C 0.1282(2) 0.1986(2) 0.86499(10)
H8_4 H 0.146332 0.153835 0.861219
C16_4 C 0.2084(2) 0.63367(19) 0.93455(10)
H9_4 H 0.212780 0.635889 0.961019
C17_4 C 0.2207(2) 0.38127(19) 0.81542(11)
H10_4 H 0.221693 0.340193 0.801032
C18_4 C 0.1900(2) 0.6892(2) 0.87658(10)
H11_4 H 0.181811 0.729888 0.862505
C19_4 C 0.2899(2) 0.4069(2) 0.69982(10)
H12_4 H 0.269271 0.383042 0.679506
C20_4 C 0.3499(2) 0.4733(2) 0.75914(10)
H13_4 H 0.371068 0.496956 0.779376
C21_4 C 0.3808(2) 0.4743(2) 0.72443(9)
H14_4 H 0.423071 0.498010 0.721118
C22_4 C 0.0410(2) 0.27209(19) 0.88575(11)
C23_4 C 0.2167(2) 0.5717(2) 0.91641(11)
H16_4 H 0.226617 0.531666 0.930683
C24_4 C 0.2894(2) 0.43886(19) 0.76512(10)
C25_4 C 0.1858(2) 0.38162(19) 0.84941(11)
C26_4 C 0.0637(2) 0.20648(17) 0.87883(9)
C27_4 C 0.0806(3) 0.3282(2) 0.87662(11)
H17_4 H 0.063036 0.373068 0.880945
N1_4 N 0.20003(16) 0.93345(16) 0.93896(8)
C28_4 C 0.2828(3) 0.9319(3) 0.97932(14)
C29_4 C 0.3023(3) 0.9749(3) 0.95260(17)
C30_4 C 0.2478(3) 0.9746(3) 0.92774(13)
H35_4 H 0.002706 0.721185 0.897021
O14_4 O 0.04095(13) 0.84038(11) 0.89747(6)
O18_4 O 0.93703(10) 0.03007(9) 0.92013(5)
H38_4 H 0.690468 0.077360 0.001009
H15_4 H 0.997294 0.278815 0.897021
O6_4 O 0.95905(13) 0.15962(11) 0.89747(6)
H21_4 H 0.952575 0.135418 0.973418
H22_4 H 0.931445 0.001956 0.941675
O12_4 O 0.83371(12) 0.19200(12) 0.91201(5)
C31_4 C 0.81891(17) 0.23960(17) 0.93327(9)
C32_4 C 0.6164(2) 0.55653(18) 0.65719(9)
C33_4 C 0.6491(2) 0.55851(18) 0.69463(9)
C34_4 C 0.80620(19) 0.30709(17) 0.91437(9)
C35_4 C 0.8164(3) 0.5573(2) 0.86960(11)
H23_4 H 0.841430 0.555966 0.892426
C36_4 C 0.7830(3) 0.4982(2) 0.85741(11)
C37_4 C 0.97956(18) 0.85329(18) 0.88686(8)
C38_4 C 0.7460(2) 0.5607(2) 0.80194(10)
C39_4 C 0.8553(2) 0.67935(19) 0.86145(11)
C40_4 C 0.8022(3) 0.3731(2) 0.85806(10)
H24_4 H 0.805707 0.374653 0.831533
C41_4 C 0.7409(3) 0.5932(2) 0.73412(11)
H25_4 H 0.783964 0.615565 0.737063
C42_4 C 0.7493(3) 0.5018(2) 0.82327(10)
H26_4 H 0.727280 0.461606 0.814121
C43_4 C 0.7892(2) 0.43366(18) 0.87804(10)
C44_4 C 0.8324(2) 0.7443(2) 0.85635(11)
H27_4 H 0.787578 0.750996 0.846463
C45_4 C 0.8718(2) 0.8014(2) 0.86499(10)
H28_4 H 0.853668 0.846165 0.861219
C46_4 C 0.7916(2) 0.36633(19) 0.93455(10)
H29_4 H 0.787220 0.364111 0.961019
C47_4 C 0.7793(2) 0.61873(19) 0.81542(11)
H30_4 H 0.778307 0.659807 0.801032
C48_4 C 0.8100(2) 0.3108(2) 0.87658(10)
H31_4 H 0.818189 0.270112 0.862505
C49_4 C 0.7101(2) 0.5931(2) 0.69982(10)
H32_4 H 0.730729 0.616958 0.679506
C50_4 C 0.6501(2) 0.5267(2) 0.75914(10)
H33_4 H 0.628932 0.503044 0.779376
C51_4 C 0.6192(2) 0.5257(2) 0.72443(9)
H34_4 H 0.576929 0.501990 0.721118
C52_4 C 0.9590(2) 0.72791(19) 0.88575(11)
C53_4 C 0.7833(2) 0.4283(2) 0.91641(11)
H36_4 H 0.773383 0.468334 0.930683
C54_4 C 0.7106(2) 0.56114(19) 0.76512(10)
C55_4 C 0.8142(2) 0.61838(19) 0.84941(11)
C56_4 C 0.9363(2) 0.79352(17) 0.87883(9)
C57_4 C 0.9194(3) 0.6718(2) 0.87662(11)
H37_4 H 0.936964 0.626932 0.880945
O13_4 O 0.95553(11) 0.91194(11) 0.88252(6)
N3_4 N 0.79997(16) 0.06655(16) 0.93896(8)
C58_4 C 0.7172(3) 0.0681(3) 0.97932(14)
C59_4 C 0.6977(3) 0.0251(3) 0.95260(17)
C60_4 C 0.7522(3) 0.0254(3) 0.92774(13)
H39_4 H 0.655943 0.999857 0.950912
H40_4 H 0.754215 0.998842 0.905427
loop_
_geom_bond_atom_site_label_1
_geom_bond_atom_site_label_2
_geom_bond_site_symmetry_1
_geom_bond_site_symmetry_2
O20 Al2 1_555 1_555
O18 Al2_2 1_555 1_555
O22 Al2_2 1_555 1_555
Al1 O1 1_555 1_555
Al2_3 O2 1_555 1_555
Al3 O1 1_555 1_555
O1 H1 1_555 1_555
O2 Al3 1_555 1_555
H2 O2 1_555 1_555
O3 Al1 1_555 1_555
O4 Al3 1_555 1_555
C1 O3 1_555 1_555
C2 C3 1_555 1_555
C3 C19 1_555 1_555
C4 C1 1_555 1_555
C5 H3 1_555 1_555
C6 C5 1_555 1_555
C7 C26 1_555 1_555
C8 C12 1_555 1_555
C9 C14 1_555 1_555
C10 H4 1_555 1_555
C11 H5 1_555 1_555
C12 C6 1_555 1_555
H6 C12 1_555 1_555
C13 C6 1_555 1_555
C14 H7 1_555 1_555
C15 C14 1_555 1_555
H8 C15 1_555 1_555
C16 C4 1_555 1_555
H9 C16 1_555 1_555
C17 C8 1_555 1_555
H10 C17 1_555 1_555
C18 C4 1_555 1_555
H11 C18 1_555 1_555
C19 C11 1_555 1_555
H12 C19 1_555 1_555
C20 H13 1_555 1_555
C21 C3 1_555 1_555
H14 C21 1_555 1_555
C23 C13 1_555 1_555
H16 C23 1_555 1_555
C24 C8 1_555 1_555
C25 C5 1_555 1_555
C26 C15 1_555 1_555
C27 C9 1_555 1_555
H17 C27 1_555 1_555
O20 C7 1_555 1_555
N1 Al3 1_555 1_555
O7 C2 1_555 1_555
O8 C2 1_555 1_555
N2 Al1 1_555 1_555
C28 N2 1_555 1_555
C29 C28 1_555 1_555
C30 N1 1_555 1_555
O14 Al3 1_555 1_555
Al8 O7 1_555 1_555
Al9 O8 1_555 1_555
O21 Al2_3 1_555 1_555
O23 Al3 1_555 1_555
O4 C1 1_555 1_555
C9 C25 1_555 1_555
C10 C13 1_555 1_555
C10 C18 1_555 1_555
C11 C24 1_555 1_555
C16 C23 1_555 1_555
C17 C25 1_555 1_555
C20 C21 1_555 1_555
C20 C24 1_555 1_555
C22 C26 1_555 1_555
C22 C27 1_555 1_555
N1 N2 1_555 1_555
C29 C30 1_555 1_555
O17 Al1_2 1_555 1_555
O19 Al1_2 1_555 1_555
N5 Al1_2 1_555 1_555
Al4 O6 1_555 1_555
O9 Al4 1_555 1_555
H21 O9 1_555 1_555
O18 Al4 1_555 1_555
H22 O18 1_555 1_555
O11 C31 1_555 1_555
O12 Al4 1_555 1_555
C31 O12 1_555 1_555
C32 C33 1_555 1_555
C33 C49 1_555 1_555
C34 C31 1_555 1_555
C35 H23 1_555 1_555
C36 C35 1_555 1_555
C37 C56 1_555 1_555
C38 C42 1_555 1_555
C39 C44 1_555 1_555
C40 H24 1_555 1_555
C41 H25 1_555 1_555
C42 C36 1_555 1_555
H26 C42 1_555 1_555
C43 C36 1_555 1_555
C44 H27 1_555 1_555
C45 C44 1_555 1_555
H28 C45 1_555 1_555
C46 C34 1_555 1_555
H29 C46 1_555 1_555
C47 C38 1_555 1_555
H30 C47 1_555 1_555
C48 C34 1_555 1_555
H31 C48 1_555 1_555
C49 C41 1_555 1_555
H32 C49 1_555 1_555
C50 H33 1_555 1_555
C51 C33 1_555 1_555
H34 C51 1_555 1_555
C53 C43 1_555 1_555
H36 C53 1_555 1_555
C54 C38 1_555 1_555
C55 C35 1_555 1_555
C56 C45 1_555 1_555
C57 C39 1_555 1_555
H37 C57 1_555 1_555
O13 Al2_4 1_555 1_555
N3 Al4 1_555 1_555
O15 C32 1_555 1_555
O16 C32 1_555 1_555
N4 N3 1_555 1_555
C58 N4 1_555 1_555
C59 C58 1_555 1_555
C60 N3 1_555 1_555
Al5 O9 1_555 1_555
Al8 O15 1_555 1_555
Al10 O16 1_555 1_555
O24 Al4 1_555 1_555
O11 Al5 1_555 1_555
C37 O13 1_555 1_555
C39 C55 1_555 1_555
C40 C43 1_555 1_555
C40 C48 1_555 1_555
C41 C54 1_555 1_555
C46 C53 1_555 1_555
C47 C55 1_555 1_555
C50 C51 1_555 1_555
C50 C54 1_555 1_555
C52 C56 1_555 1_555
C52 C57 1_555 1_555
N4 Al5 1_555 1_555
C59 C60 1_555 1_555
Al1_3 O1_2 1_555 1_555
Al2_5 O2_2 1_555 1_555
Al3_2 O1_2 1_555 1_555
O1_2 H1_2 1_555 1_555
O2_2 Al3_2 1_555 1_555
H2_2 O2_2 1_555 1_555
O3_2 Al1_3 1_555 1_555
O4_2 Al3_2 1_555 1_555
C1_2 O3_2 1_555 1_555
C4_2 C1_2 1_555 1_555
C10_2 H4_2 1_555 1_555
C13_2 C6_2 1_555 1_555
C16_2 C4_2 1_555 1_555
H9_2 C16_2 1_555 1_555
C18_2 C4_2 1_555 1_555
H11_2 C18_2 1_555 1_555
C23_2 C13_2 1_555 1_555
H16_2 C23_2 1_555 1_555
N1_2 Al3_2 1_555 1_555
N2_2 Al1_3 1_555 1_555
C28_2 N2_2 1_555 1_555
H18_2 C28_2 1_555 1_555
C29_2 C28_2 1_555 1_555
H19_2 C29_2 1_555 1_555
C30_2 N1_2 1_555 1_555
H20_2 C30_2 1_555 1_555
C32_2 C33_2 1_555 1_555
C33_2 C49_2 1_555 1_555
C35_2 H23_2 1_555 1_555
C37_2 C56_2 1_555 1_555
C38_2 C42_2 1_555 1_555
C39_2 C44_2 1_555 1_555
C41_2 H25_2 1_555 1_555
C44_2 H27_2 1_555 1_555
C45_2 C44_2 1_555 1_555
H28_2 C45_2 1_555 1_555
C47_2 C38_2 1_555 1_555
H30_2 C47_2 1_555 1_555
C49_2 C41_2 1_555 1_555
H32_2 C49_2 1_555 1_555
C50_2 H33_2 1_555 1_555
C51_2 C33_2 1_555 1_555
H34_2 C51_2 1_555 1_555
C52_2 H35_2 1_555 1_555
C54_2 C38_2 1_555 1_555
C55_2 C35_2 1_555 1_555
C56_2 C45_2 1_555 1_555
C57_2 C39_2 1_555 1_555
H37_2 C57_2 1_555 1_555
O13_2 Al2_5 1_555 1_555
O14_2 Al3_2 1_555 1_555
O15_2 C32_2 1_555 1_555
O16_2 C32_2 1_555 1_555
Al7_3 O15_2 1_555 1_555
Al10_2 O16_2 1_555 1_555
O17_2 Al1_3 1_555 1_555
O18_2 Al2_5 1_555 1_555
O19_2 Al1_3 1_555 1_555
O20_2 Al2_5 1_555 1_555
O21_2 Al2_5 1_555 1_555
O22_2 Al2_5 1_555 1_555
O23_2 Al3_2 1_555 1_555
N5_2 Al1_3 1_555 1_555
O4_2 C1_2 1_555 1_555
C10_2 C13_2 1_555 1_555
C10_2 C18_2 1_555 1_555
C16_2 C23_2 1_555 1_555
N1_2 N2_2 1_555 1_555
C29_2 C30_2 1_555 1_555
C37_2 O13_2 1_555 1_555
C37_2 O14_2 1_555 1_555
C39_2 C55_2 1_555 1_555
C41_2 C54_2 1_555 1_555
C47_2 C55_2 1_555 1_555
C50_2 C51_2 1_555 1_555
C50_2 C54_2 1_555 1_555
C52_2 C56_2 1_555 1_555
C52_2 C57_2 1_555 1_555
C2_2 C3_2 1_555 1_555
C3_2 C19_2 1_555 1_555
C5_2 H3_2 1_555 1_555
C7_2 C26_2 1_555 1_555
C8_2 C12_2 1_555 1_555
C9_2 C14_2 1_555 1_555
C11_2 H5_2 1_555 1_555
C14_2 H7_2 1_555 1_555
C15_2 C14_2 1_555 1_555
H8_2 C15_2 1_555 1_555
C17_2 C8_2 1_555 1_555
H10_2 C17_2 1_555 1_555
C19_2 C11_2 1_555 1_555
H12_2 C19_2 1_555 1_555
C20_2 H13_2 1_555 1_555
C21_2 C3_2 1_555 1_555
H14_2 C21_2 1_555 1_555
C22_2 H15_2 1_555 1_555
C24_2 C8_2 1_555 1_555
C25_2 C5_2 1_555 1_555
C26_2 C15_2 1_555 1_555
C27_2 C9_2 1_555 1_555
H17_2 C27_2 1_555 1_555
O20_2 C7_2 1_555 1_555
O6_2 C7_2 1_555 1_555
O7_2 C2_2 1_555 1_555
O8_2 C2_2 1_555 1_555
Al4_2 O6_2 1_555 1_555
O9_2 Al4_2 1_555 1_555
H21_2 O9_2 1_555 1_555
O18_2 Al4_2 1_555 1_555
H22_2 O18_2 1_555 1_555
O11_2 C31_2 1_555 1_555
O12_2 Al4_2 1_555 1_555
C31_2 O12_2 1_555 1_555
C34_2 C31_2 1_555 1_555
C40_2 H24_2 1_555 1_555
C43_2 C36_2 1_555 1_555
C46_2 C34_2 1_555 1_555
H29_2 C46_2 1_555 1_555
C48_2 C34_2 1_555 1_555
H31_2 C48_2 1_555 1_555
C53_2 C43_2 1_555 1_555
H36_2 C53_2 1_555 1_555
N3_2 Al4_2 1_555 1_555
N4_2 N3_2 1_555 1_555
C58_2 N4_2 1_555 1_555
H38_2 C58_2 1_555 1_555
C59_2 C58_2 1_555 1_555
H39_2 C59_2 1_555 1_555
C60_2 N3_2 1_555 1_555
H40_2 C60_2 1_555 1_555
Al5_3 O9_2 1_555 1_555
Al7_2 O7_2 1_555 1_555
Al9_2 O8_2 1_555 1_555
O24_2 Al4_2 1_555 1_555
C9_2 C25_2 1_555 1_555
C11_2 C24_2 1_555 1_555
C17_2 C25_2 1_555 1_555
C20_2 C21_2 1_555 1_555
C20_2 C24_2 1_555 1_555
C22_2 C26_2 1_555 1_555
C22_2 C27_2 1_555 1_555
O11_2 Al5_3 1_555 1_555
C40_2 C43_2 1_555 1_555
C40_2 C48_2 1_555 1_555
C46_2 C53_2 1_555 1_555
N4_2 Al5_3 1_555 1_555
C59_2 C60_2 1_555 1_555
O17_3 Al5_2 1_555 1_555
O19_3 Al5_2 1_555 1_555
N5_3 Al5_2 1_555 1_555
O17_4 Al5_3 1_555 1_555
O19_4 Al5_3 1_555 1_555
N5_4 Al5_3 1_555 1_555
Al8 O2_3 1_555 1_555
Al9 O17_2 1_555 1_555
O17_2 H1_3 1_555 1_555
O2_3 Al9 1_555 1_555
H2_3 O2_3 1_555 1_555
O4_3 Al9 1_555 1_555
C1_3 O19_2 1_555 1_555
C4_3 C1_3 1_555 1_555
C10_3 H4_3 1_555 1_555
C13_3 C6_3 1_555 1_555
C16_3 C4_3 1_555 1_555
H9_3 C16_3 1_555 1_555
C18_3 C4_3 1_555 1_555
H11_3 C18_3 1_555 1_555
C23_3 C13_3 1_555 1_555
H16_3 C23_3 1_555 1_555
N1_3 Al9 1_555 1_555
C28_3 N5_2 1_555 1_555
H18_3 C28_3 1_555 1_555
C29_3 C28_3 1_555 1_555
H19_3 C29_3 1_555 1_555
C30_3 N1_3 1_555 1_555
H20_3 C30_3 1_555 1_555
C32_3 C33_3 1_555 1_555
C33_3 C49_3 1_555 1_555
C35_3 H23_3 1_555 1_555
C37_3 C56_3 1_555 1_555
C38_3 C42_3 1_555 1_555
C39_3 C44_3 1_555 1_555
C41_3 H25_3 1_555 1_555
C44_3 H27_3 1_555 1_555
C45_3 C44_3 1_555 1_555
H28_3 C45_3 1_555 1_555
C47_3 C38_3 1_555 1_555
H30_3 C47_3 1_555 1_555
C49_3 C41_3 1_555 1_555
H32_3 C49_3 1_555 1_555
C50_3 H33_3 1_555 1_555
C51_3 C33_3 1_555 1_555
H34_3 C51_3 1_555 1_555
C52_3 H35_3 1_555 1_555
C54_3 C38_3 1_555 1_555
C55_3 C35_3 1_555 1_555
C56_3 C45_3 1_555 1_555
C57_3 C39_3 1_555 1_555
H37_3 C57_3 1_555 1_555
O13_3 Al8 1_555 1_555
O14_3 Al9 1_555 1_555
O22 C32_3 1_555 1_555
O24 C32_3 1_555 1_555
O18_3 Al8 1_555 1_555
O20_3 Al8 1_555 1_555
O4_3 C1_3 1_555 1_555
C10_3 C13_3 1_555 1_555
C10_3 C18_3 1_555 1_555
C16_3 C23_3 1_555 1_555
N1_3 N5_2 1_555 1_555
C29_3 C30_3 1_555 1_555
C37_3 O13_3 1_555 1_555
C37_3 O14_3 1_555 1_555
C39_3 C55_3 1_555 1_555
C41_3 C54_3 1_555 1_555
C47_3 C55_3 1_555 1_555
C50_3 C51_3 1_555 1_555
C50_3 C54_3 1_555 1_555
C52_3 C56_3 1_555 1_555
C52_3 C57_3 1_555 1_555
C2_3 C3_3 1_555 1_555
C3_3 C19_3 1_555 1_555
C5_3 H3_3 1_555 1_555
C7_3 C26_3 1_555 1_555
C8_3 C12_3 1_555 1_555
C9_3 C14_3 1_555 1_555
C11_3 H5_3 1_555 1_555
C14_3 H7_3 1_555 1_555
C15_3 C14_3 1_555 1_555
H8_3 C15_3 1_555 1_555
C17_3 C8_3 1_555 1_555
H10_3 C17_3 1_555 1_555
C19_3 C11_3 1_555 1_555
H12_3 C19_3 1_555 1_555
C20_3 H13_3 1_555 1_555
C21_3 C3_3 1_555 1_555
H14_3 C21_3 1_555 1_555
C22_3 H15_3 1_555 1_555
C24_3 C8_3 1_555 1_555
C25_3 C5_3 1_555 1_555
C26_3 C15_3 1_555 1_555
C27_3 C9_3 1_555 1_555
H17_3 C27_3 1_555 1_555
O20_3 C7_3 1_555 1_555
O6_3 C7_3 1_555 1_555
O21 C2_3 1_555 1_555
O23 C2_3 1_555 1_555
Al10 O6_3 1_555 1_555
O17_4 Al10 1_555 1_555
H21_3 O17_4 1_555 1_555
O18_3 Al10 1_555 1_555
H22_3 O18_3 1_555 1_555
O19_4 C31_3 1_555 1_555
O12_3 Al10 1_555 1_555
C31_3 O12_3 1_555 1_555
C34_3 C31_3 1_555 1_555
C40_3 H24_3 1_555 1_555
C43_3 C36_3 1_555 1_555
C46_3 C34_3 1_555 1_555
H29_3 C46_3 1_555 1_555
C48_3 C34_3 1_555 1_555
H31_3 C48_3 1_555 1_555
C53_3 C43_3 1_555 1_555
H36_3 C53_3 1_555 1_555
N3_3 Al10 1_555 1_555
N5_4 N3_3 1_555 1_555
C58_3 N5_4 1_555 1_555
H38_3 C58_3 1_555 1_555
C59_3 C58_3 1_555 1_555
H39_3 C59_3 1_555 1_555
C60_3 N3_3 1_555 1_555
H40_3 C60_3 1_555 1_555
C9_3 C25_3 1_555 1_555
C11_3 C24_3 1_555 1_555
C17_3 C25_3 1_555 1_555
C20_3 C21_3 1_555 1_555
C20_3 C24_3 1_555 1_555
C22_3 C26_3 1_555 1_555
C22_3 C27_3 1_555 1_555
C40_3 C43_3 1_555 1_555
C40_3 C48_3 1_555 1_555
C46_3 C53_3 1_555 1_555
C59_3 C60_3 1_555 1_555
O20_4 Al7 1_555 1_555
Al7_2 O2_4 1_555 1_555
Al9_2 O17_3 1_555 1_555
O17_3 H1_4 1_555 1_555
O2_4 Al9_2 1_555 1_555
H2_4 O2_4 1_555 1_555
O4_4 Al9_2 1_555 1_555
C1_4 O19_3 1_555 1_555
C2_4 C3_4 1_555 1_555
C3_4 C19_4 1_555 1_555
C4_4 C1_4 1_555 1_555
C5_4 H3_4 1_555 1_555
C6_4 C5_4 1_555 1_555
C7_4 C26_4 1_555 1_555
C8_4 C12_4 1_555 1_555
C9_4 C14_4 1_555 1_555
C10_4 H4_4 1_555 1_555
C11_4 H5_4 1_555 1_555
C12_4 C6_4 1_555 1_555
H6_4 C12_4 1_555 1_555
C13_4 C6_4 1_555 1_555
C14_4 H7_4 1_555 1_555
C15_4 C14_4 1_555 1_555
H8_4 C15_4 1_555 1_555
C16_4 C4_4 1_555 1_555
H9_4 C16_4 1_555 1_555
C17_4 C8_4 1_555 1_555
H10_4 C17_4 1_555 1_555
C18_4 C4_4 1_555 1_555
H11_4 C18_4 1_555 1_555
C19_4 C11_4 1_555 1_555
H12_4 C19_4 1_555 1_555
C20_4 H13_4 1_555 1_555
C21_4 C3_4 1_555 1_555
H14_4 C21_4 1_555 1_555
C23_4 C13_4 1_555 1_555
H16_4 C23_4 1_555 1_555
C24_4 C8_4 1_555 1_555
C25_4 C5_4 1_555 1_555
C26_4 C15_4 1_555 1_555
C27_4 C9_4 1_555 1_555
H17_4 C27_4 1_555 1_555
O20_4 C7_4 1_555 1_555
N1_4 Al9_2 1_555 1_555
O21_2 C2_4 1_555 1_555
O23_2 C2_4 1_555 1_555
C28_4 N5_3 1_555 1_555
C29_4 C28_4 1_555 1_555
C30_4 N1_4 1_555 1_555
O14_4 Al9_2 1_555 1_555
O4_4 C1_4 1_555 1_555
C9_4 C25_4 1_555 1_555
C10_4 C13_4 1_555 1_555
C10_4 C18_4 1_555 1_555
C11_4 C24_4 1_555 1_555
C16_4 C23_4 1_555 1_555
C17_4 C25_4 1_555 1_555
C20_4 C21_4 1_555 1_555
C20_4 C24_4 1_555 1_555
C22_4 C26_4 1_555 1_555
C22_4 C27_4 1_555 1_555
N1_4 N5_3 1_555 1_555
C29_4 C30_4 1_555 1_555
O18_4 Al7_3 1_555 1_555
Al10_2 O6_4 1_555 1_555
O17 Al10_2 1_555 1_555
H21_4 O17 1_555 1_555
O18_4 Al10_2 1_555 1_555
H22_4 O18_4 1_555 1_555
O19 C31_4 1_555 1_555
O12_4 Al10_2 1_555 1_555
C31_4 O12_4 1_555 1_555
C32_4 C33_4 1_555 1_555
C33_4 C49_4 1_555 1_555
C34_4 C31_4 1_555 1_555
C35_4 H23_4 1_555 1_555
C36_4 C35_4 1_555 1_555
C37_4 C56_4 1_555 1_555
C38_4 C42_4 1_555 1_555
C39_4 C44_4 1_555 1_555
C40_4 H24_4 1_555 1_555
C41_4 H25_4 1_555 1_555
C42_4 C36_4 1_555 1_555
H26_4 C42_4 1_555 1_555
C43_4 C36_4 1_555 1_555
C44_4 H27_4 1_555 1_555
C45_4 C44_4 1_555 1_555
H28_4 C45_4 1_555 1_555
C46_4 C34_4 1_555 1_555
H29_4 C46_4 1_555 1_555
C47_4 C38_4 1_555 1_555
H30_4 C47_4 1_555 1_555
C48_4 C34_4 1_555 1_555
H31_4 C48_4 1_555 1_555
C49_4 C41_4 1_555 1_555
H32_4 C49_4 1_555 1_555
C50_4 H33_4 1_555 1_555
C51_4 C33_4 1_555 1_555
H34_4 C51_4 1_555 1_555
C53_4 C43_4 1_555 1_555
H36_4 C53_4 1_555 1_555
C54_4 C38_4 1_555 1_555
C55_4 C35_4 1_555 1_555
C56_4 C45_4 1_555 1_555
C57_4 C39_4 1_555 1_555
H37_4 C57_4 1_555 1_555
O13_4 Al7_4 1_555 1_555
N3_4 Al10_2 1_555 1_555
O22_2 C32_4 1_555 1_555
O24_2 C32_4 1_555 1_555
N5 N3_4 1_555 1_555
C58_4 N5 1_555 1_555
C59_4 C58_4 1_555 1_555
C60_4 N3_4 1_555 1_555
C37_4 O13_4 1_555 1_555
C39_4 C55_4 1_555 1_555
C40_4 C43_4 1_555 1_555
C40_4 C48_4 1_555 1_555
C41_4 C54_4 1_555 1_555
C46_4 C53_4 1_555 1_555
C47_4 C55_4 1_555 1_555
C50_4 C51_4 1_555 1_555
C50_4 C54_4 1_555 1_555
C52_4 C56_4 1_555 1_555
C52_4 C57_4 1_555 1_555
C59_4 C60_4 1_555 1_555

#END
