
###############################################################################
#
# This file contains modified crystal structure data generated from the
# MOF subset of the Cambridge Structural Database (CSD) v543 
# hosted by the Cambridge Crystallographic Data Centre (CCDC).
#
# This work is licensed under the Creative Commons
# Attribution-NonCommercial-ShareAlike 4.0 International License.
# To view a copy of this license, visit
# http://creativecommons.org/licenses/by-nc-sa/4.0/
# or send a letter to
# Creative Commons, PO Box 1866, Mountain View, CA 94042, USA.
#
# CIF created using the CSD Python API on 29 September 2022
# The structure has been converted into the P1 space group
# The structure has a 3D framework
# The original CSD entry QOXTOP is in the tetragonal crystal system
# The original CSD entry QOXTOP is in a Sohncke space group
# The framework has been calculated to contain at least 10.0% void space
# The void calculation uses a probe of radius 1.32A, grid spacing 0.4
#
###############################################################################

data_QOXTOP
_chemical_formula_moiety         '(C248 H168 Al16 Br8 N16 O60)n'
_symmetry_cell_setting           triclinic
_symmetry_space_group_name_H-M   'P 1'
_symmetry_Int_Tables_number      1
_space_group_name_Hall           'P 1'
loop_
_symmetry_equiv_pos_site_id
_symmetry_equiv_pos_as_xyz
1 x,y,z
_cell_length_a                   19.4353(6)
_cell_length_b                   19.4353(6)
_cell_length_c                   35.7957(11)
_cell_angle_alpha                90
_cell_angle_beta                 90
_cell_angle_gamma                90
_cell_volume                     13521.1
loop_
_atom_site_label
_atom_site_type_symbol
_atom_site_fract_x
_atom_site_fract_y
_atom_site_fract_z
Al1 Al 0.15998(5) 0.15998(5) 0.000000
Al2 Al 0.11863(5) 0.10410(5) 0.08166(2)
Al3 Al -0.000000 0.000000 0.11598(3)
O1 O 0.06311(12) 0.02703(11) 0.08005(6)
O2 O 0.06047(13) 0.02601(12) 0.15500(6)
O3 O 0.09394(12) 0.13254(12) 0.03443(6)
H2 H 0.046719 0.133173 0.027577
O4 O 0.15054(13) 0.08075(12) 0.12969(6)
C1 C 0.11935(18) 0.05352(16) 0.15649(9)
C2 C 0.1544(2) 0.05437(17) 0.19358(9)
C4 C 0.1252(2) 0.02085(19) 0.22398(9)
C5 C 0.48624(17) 0.35279(16) 0.38588(8)
C6 C 0.1579(2) 0.0221(2) 0.25837(10)
C8 C 0.44381(19) 0.29098(17) 0.37678(9)
C9 C 0.2567(2) 0.05588(19) 0.29928(10)
C10 C 0.37775(19) 0.29808(18) 0.36229(10)
H5 H 0.358723 0.342679 0.358911
C13 C 0.2169(2) 0.0888(2) 0.19766(10)
H7 H 0.236986 0.111784 0.176938
C15 C 0.2203(2) 0.05602(19) 0.26294(10)
C17 C 0.3397(2) 0.24079(19) 0.35280(11)
H9 H 0.294956 0.246297 0.342605
C20 C 0.3288(2) 0.05296(18) 0.36707(10)
H12 H 0.353414 0.052071 0.390005
C22 C 0.4320(2) 0.16820(18) 0.37344(11)
H14 H 0.450652 0.123679 0.377686
C23 C 0.3665(2) 0.17445(18) 0.35804(10)
C24 C 0.4703(2) 0.22540(18) 0.38263(11)
H15 H 0.515028 0.220029 0.392985
C25 C 0.2909(2) 0.11382(19) 0.31239(10)
H16 H 0.289522 0.154994 0.298106
C26 C 0.3273(2) 0.11309(18) 0.34593(10)
C27 C 0.2494(2) 0.0894(2) 0.23202(11)
H17 H 0.292104 0.112723 0.234709
O5 O 0.54662(13) 0.34182(12) 0.39675(6)
O7 O 0.45846(12) 0.41133(11) 0.38185(6)
N1 N 0.19817(17) 0.05790(16) 0.05714(8)
C28 C 0.2398(3) 0.0051(2) 0.06403(13)
C29 C 0.2905(3) 0.0047(3) 0.03664(16)
N2 N 0.22188(16) 0.09222(17) 0.02513(8)
C30 C 0.2773(3) 0.0591(3) 0.01328(14)
Al9 Al 0.61863(5) 0.39590(5) 0.41834(2)
Al13 Al 0.500000 0.500000 0.38402(3)
O18 O 0.04662(13) 0.15818(12) 0.10325(6)
O21 O 0.17301(12) 0.18433(12) 0.08716(6)
O25 O 0.18462(13) 0.23485(12) 0.03141(6)
Al1_2 Al 0.15998(5) 0.15998(5) 1.000000
H18 H 0.303756 0.071182 0.991954
O17 O 0.13254(12) 0.09394(12) 0.96557(6)
O24 O 0.23485(12) 0.18462(13) 0.96859(6)
N5 N 0.09222(17) 0.22188(16) 0.97487(8)
Al3_2 Al -0.000000 1.000000 0.11598(3)
H1 H 0.067317 0.998379 0.058666
C3 C 0.2990(2) 0.92816(18) 0.37550(9)
H3 H 0.082873 0.997033 0.221178
H4 H 0.137323 0.999586 0.279100
C7 C 0.31710(17) 0.73547(17) 0.43338(8)
C11 C 0.2970(2) 0.86352(18) 0.43349(9)
H6 H 0.292249 0.862365 0.459894
C12 C 0.30823(18) 0.80322(17) 0.41387(9)
C14 C 0.2941(2) 0.99326(19) 0.35472(10)
C16 C 0.2927(2) 0.92563(18) 0.41458(10)
H8 H 0.285474 0.966943 0.428204
C18 C 0.2588(2) 0.9960(2) 0.32093(10)
H10 H 0.235534 0.956083 0.312316
C19 C 0.3144(2) 0.80458(19) 0.37514(9)
H11 H 0.321876 0.763155 0.361652
C21 C 0.3095(2) 0.86651(19) 0.35645(9)
H13 H 0.313464 0.867134 0.329998
O6 O 0.32699(12) 0.68433(12) 0.41284(6)
O8 O 0.31538(13) 0.73485(12) 0.46859(6)
Br1 Br 0.36168(6) 0.94028(7) 0.03177(3)
C31 C 0.2298(3) 0.9576(3) 0.09572(17)
H19 H 0.235004 0.982831 0.119242
H20 H 0.264233 0.920785 0.094503
H21 H 0.183609 0.937519 0.094447
Al5 Al 0.34002(5) 0.65998(5) 0.500000
Al11 Al 0.38137(5) 0.60410(5) 0.41834(2)
O23 O 0.04154(12) 0.91133(11) 0.11815(6)
Al3_3 Al 1.000000 0.000000 0.11598(3)
H22 H 0.932683 0.001621 0.058666
C34 C 0.7010(2) 0.07184(18) 0.37550(9)
H24 H 0.917127 0.002967 0.221178
H25 H 0.862677 0.000414 0.279100
C38 C 0.68290(17) 0.26453(17) 0.43338(8)
C42 C 0.7030(2) 0.13648(18) 0.43349(9)
H27 H 0.707751 0.137635 0.459894
C43 C 0.69177(18) 0.19678(17) 0.41387(9)
C45 C 0.7059(2) 0.00674(19) 0.35472(10)
C47 C 0.7073(2) 0.07437(18) 0.41458(10)
H29 H 0.714526 0.033057 0.428204
C49 C 0.7412(2) 0.0040(2) 0.32093(10)
H31 H 0.764466 0.043917 0.312316
C50 C 0.6856(2) 0.19542(19) 0.37514(9)
H32 H 0.678124 0.236845 0.361652
C52 C 0.6905(2) 0.13349(19) 0.35645(9)
H34 H 0.686536 0.132866 0.329998
O14 O 0.67301(12) 0.31567(12) 0.41284(6)
O16 O 0.68462(13) 0.26515(12) 0.46859(6)
Br2 Br 0.63832(6) 0.05972(7) 0.03177(3)
C62 C 0.7702(3) 0.0424(3) 0.09572(17)
H40 H 0.764996 0.017169 0.119242
H41 H 0.735767 0.079215 0.094503
H42 H 0.816391 0.062481 0.094447
Al7 Al 0.65998(5) 0.34002(5) 0.500000
O22 O 0.95846(12) 0.08867(11) 0.11815(6)
Al3_4 Al 1.000000 1.000000 0.11598(3)
Al4 Al 0.88137(5) 0.89590(5) 0.08166(2)
O9 O 0.93689(12) 0.97297(11) 0.08005(6)
O10 O 0.93953(13) 0.97399(12) 0.15500(6)
O11 O 0.90606(12) 0.86746(12) 0.03443(6)
H23 H 0.953281 0.866827 0.027577
O12 O 0.84946(13) 0.91925(12) 0.12969(6)
C32 C 0.88065(18) 0.94648(16) 0.15649(9)
C33 C 0.8456(2) 0.94563(17) 0.19358(9)
C35 C 0.8748(2) 0.97915(19) 0.22398(9)
C36 C 0.51376(17) 0.64721(16) 0.38588(8)
C37 C 0.8421(2) 0.9779(2) 0.25837(10)
C39 C 0.55619(19) 0.70902(17) 0.37678(9)
C40 C 0.7433(2) 0.94412(19) 0.29928(10)
C41 C 0.62225(19) 0.70192(18) 0.36229(10)
H26 H 0.641277 0.657321 0.358911
C44 C 0.7831(2) 0.9112(2) 0.19766(10)
H28 H 0.763014 0.888216 0.176938
C46 C 0.7797(2) 0.94398(19) 0.26294(10)
C48 C 0.6603(2) 0.75921(19) 0.35280(11)
H30 H 0.705044 0.753703 0.342605
C51 C 0.6712(2) 0.94704(18) 0.36707(10)
H33 H 0.646586 0.947929 0.390005
C53 C 0.5680(2) 0.83180(18) 0.37344(11)
H35 H 0.549348 0.876321 0.377686
C54 C 0.6335(2) 0.82555(18) 0.35804(10)
C55 C 0.5297(2) 0.77460(18) 0.38263(11)
H36 H 0.484972 0.779971 0.392985
C56 C 0.7091(2) 0.88618(19) 0.31239(10)
H37 H 0.710478 0.845006 0.298106
C57 C 0.6727(2) 0.88691(18) 0.34593(10)
C58 C 0.7506(2) 0.9106(2) 0.23202(11)
H38 H 0.707896 0.887277 0.234709
O13 O 0.45338(13) 0.65818(12) 0.39675(6)
O15 O 0.54154(12) 0.58867(11) 0.38185(6)
N3 N 0.80183(17) 0.94210(16) 0.05714(8)
C59 C 0.7602(3) 0.9949(2) 0.06403(13)
C60 C 0.7095(3) 0.9953(3) 0.03664(16)
N4 N 0.77812(16) 0.90778(17) 0.02513(8)
C61 C 0.7227(3) 0.9409(3) 0.01328(14)
Al6 Al 0.84002(5) 0.84002(5) 0.000000
O19 O 0.95338(13) 0.84182(12) 0.10325(6)
O20 O 0.82699(12) 0.81567(12) 0.08716(6)
H39 H 0.696244 0.928818 0.991954
Al6_2 Al 0.84002(5) 0.84002(5) 1.000000
Al12 Al 0.000000 0.000000 0.88402(3)
Al12_2 Al 0.000000 1.000000 0.88402(3)
H15_2 H 0.279971 0.015028 0.892985
O5_2 O 0.15818(12) 0.04662(13) 0.89675(6)
Al9_2 Al 0.10410(5) 0.11863(5) 0.91834(2)
Al2_2 Al 0.39590(5) 0.61863(5) 0.58166(2)
Al3_5 Al 0.500000 0.500000 0.61598(3)
O1_2 O 0.47297(11) 0.56311(12) 0.58005(6)
H1_2 H 0.501621 0.567317 0.558666
O2_2 O 0.47399(12) 0.56047(13) 0.65500(6)
O3_2 O 0.36746(12) 0.59394(12) 0.53443(6)
H2_2 H 0.366827 0.546719 0.527577
O4_2 O 0.41925(12) 0.65054(13) 0.62969(6)
C1_2 C 0.44648(16) 0.61935(18) 0.65649(9)
C2_2 C 0.44563(17) 0.6544(2) 0.69358(9)
C3_2 C 0.57184(18) 0.7990(2) 0.87550(9)
C4_2 C 0.47915(19) 0.6252(2) 0.72398(9)
H3_2 H 0.502967 0.582873 0.721178
C5_2 C 0.14721(16) 0.98624(17) 0.88588(8)
C6_2 C 0.4779(2) 0.6579(2) 0.75837(10)
H4_2 H 0.500414 0.637323 0.779100
C7_2 C 0.76453(17) 0.81710(17) 0.93338(8)
C8_2 C 0.20902(17) 0.94381(19) 0.87678(9)
C9_2 C 0.44412(19) 0.7567(2) 0.79928(10)
C10_2 C 0.20192(18) 0.87775(19) 0.86229(10)
H5_2 H 0.157321 0.858723 0.858911
C11_2 C 0.63648(18) 0.7970(2) 0.93349(9)
H6_2 H 0.637635 0.792249 0.959894
C12_2 C 0.69678(17) 0.80823(18) 0.91387(9)
C13_2 C 0.4112(2) 0.7169(2) 0.69766(10)
H7_2 H 0.388216 0.736986 0.676938
C14_2 C 0.50674(19) 0.7941(2) 0.85472(10)
C15_2 C 0.44398(19) 0.7203(2) 0.76294(10)
C16_2 C 0.57437(18) 0.7927(2) 0.91458(10)
H8_2 H 0.533057 0.785474 0.928204
C17_2 C 0.25921(19) 0.8397(2) 0.85280(11)
H9_2 H 0.253703 0.794956 0.842605
C18_2 C 0.5040(2) 0.7588(2) 0.82093(10)
H10_2 H 0.543917 0.735534 0.812316
C19_2 C 0.69542(19) 0.8144(2) 0.87514(9)
H11_2 H 0.736845 0.821876 0.861652
C20_2 C 0.44704(18) 0.8288(2) 0.86707(10)
H12_2 H 0.447929 0.853414 0.890005
C21_2 C 0.63349(19) 0.8095(2) 0.85645(9)
H13_2 H 0.632866 0.813464 0.829998
C22_2 C 0.33180(18) 0.9320(2) 0.87344(11)
H14_2 H 0.376321 0.950652 0.877686
C23_2 C 0.32555(18) 0.8665(2) 0.85804(10)
C24_2 C 0.27460(18) 0.9703(2) 0.88263(11)
C25_2 C 0.38618(19) 0.7909(2) 0.81239(10)
H16_2 H 0.345006 0.789522 0.798106
C26_2 C 0.38691(18) 0.8273(2) 0.84593(10)
C27_2 C 0.4106(2) 0.7494(2) 0.73202(11)
H17_2 H 0.387277 0.792104 0.734709
O6_2 O 0.81567(12) 0.82699(12) 0.91284(6)
O7_2 O 0.08867(11) 0.95846(12) 0.88185(6)
O8_2 O 0.76515(12) 0.81538(13) 0.96859(6)
N1_2 N 0.44210(16) 0.69817(17) 0.55714(8)
C28_2 C 0.4949(2) 0.7398(3) 0.56403(13)
C29_2 C 0.4953(3) 0.7905(3) 0.53664(16)
Br1_2 Br 0.55972(7) 0.86168(6) 0.53177(3)
N2_2 N 0.40778(17) 0.72188(16) 0.52513(8)
C30_2 C 0.4409(3) 0.7773(3) 0.51328(14)
H18_2 H 0.428818 0.803756 0.491954
C31_2 C 0.5424(3) 0.7298(3) 0.59572(17)
H19_2 H 0.517169 0.735004 0.619242
H20_2 H 0.579215 0.764233 0.594503
H21_2 H 0.562481 0.683609 0.594447
Al4_2 Al 0.60410(5) 0.38137(5) 0.58166(2)
O9_2 O 0.52703(11) 0.43689(12) 0.58005(6)
H22_2 H 0.498379 0.432683 0.558666
O10_2 O 0.52601(12) 0.43953(13) 0.65500(6)
O11_2 O 0.63254(12) 0.40606(12) 0.53443(6)
H23_2 H 0.633173 0.453281 0.527577
O12_2 O 0.58075(12) 0.34946(13) 0.62969(6)
C32_2 C 0.55352(16) 0.38065(18) 0.65649(9)
C33_2 C 0.55437(17) 0.3456(2) 0.69358(9)
C34_2 C 0.42816(18) 0.2010(2) 0.87550(9)
C35_2 C 0.52085(19) 0.3748(2) 0.72398(9)
H24_2 H 0.497033 0.417127 0.721178
C36_2 C 0.85279(16) 0.01376(17) 0.88588(8)
C37_2 C 0.5221(2) 0.3421(2) 0.75837(10)
H25_2 H 0.499586 0.362677 0.779100
C38_2 C 0.23547(17) 0.18290(17) 0.93338(8)
C39_2 C 0.79098(17) 0.05619(19) 0.87678(9)
C40_2 C 0.55588(19) 0.2433(2) 0.79928(10)
C41_2 C 0.79808(18) 0.12225(19) 0.86229(10)
H26_2 H 0.842679 0.141277 0.858911
C42_2 C 0.36352(18) 0.2030(2) 0.93349(9)
H27_2 H 0.362365 0.207751 0.959894
C43_2 C 0.30322(17) 0.19177(18) 0.91387(9)
C44_2 C 0.5888(2) 0.2831(2) 0.69766(10)
H28_2 H 0.611784 0.263014 0.676938
C45_2 C 0.49326(19) 0.2059(2) 0.85472(10)
C46_2 C 0.55602(19) 0.2797(2) 0.76294(10)
C47_2 C 0.42563(18) 0.2073(2) 0.91458(10)
H29_2 H 0.466943 0.214526 0.928204
C48_2 C 0.74079(19) 0.1603(2) 0.85280(11)
H30_2 H 0.746297 0.205044 0.842605
C49_2 C 0.4960(2) 0.2412(2) 0.82093(10)
H31_2 H 0.456083 0.264466 0.812316
C50_2 C 0.30458(19) 0.1856(2) 0.87514(9)
H32_2 H 0.263155 0.178124 0.861652
C51_2 C 0.55296(18) 0.1712(2) 0.86707(10)
H33_2 H 0.552071 0.146586 0.890005
C52_2 C 0.36651(19) 0.1905(2) 0.85645(9)
H34_2 H 0.367134 0.186536 0.829998
C53_2 C 0.66820(18) 0.0680(2) 0.87344(11)
H35_2 H 0.623679 0.049348 0.877686
C54_2 C 0.67445(18) 0.1335(2) 0.85804(10)
C55_2 C 0.72540(18) 0.0297(2) 0.88263(11)
C56_2 C 0.61382(19) 0.2091(2) 0.81239(10)
H37_2 H 0.654994 0.210478 0.798106
C57_2 C 0.61309(18) 0.1727(2) 0.84593(10)
C58_2 C 0.5894(2) 0.2506(2) 0.73202(11)
H38_2 H 0.612723 0.207896 0.734709
O14_2 O 0.18433(12) 0.17301(12) 0.91284(6)
O15_2 O 0.91133(11) 0.04154(12) 0.88185(6)
N3_2 N 0.55790(16) 0.30183(17) 0.55714(8)
C59_2 C 0.5051(2) 0.2602(3) 0.56403(13)
C60_2 C 0.5047(3) 0.2095(3) 0.53664(16)
Br2_2 Br 0.44028(7) 0.13832(6) 0.53177(3)
N4_2 N 0.59222(17) 0.27812(16) 0.52513(8)
C61_2 C 0.5591(3) 0.2227(3) 0.51328(14)
H39_2 H 0.571182 0.196244 0.491954
C62_2 C 0.4576(3) 0.2702(3) 0.59572(17)
H40_2 H 0.482831 0.264996 0.619242
H41_2 H 0.420785 0.235767 0.594503
H42_2 H 0.437519 0.316391 0.594447
Al11_2 Al 0.89590(5) 0.88137(5) 0.91834(2)
Al12_3 Al 1.000000 0.000000 0.88402(3)
O17_2 O 0.40606(12) 0.63254(12) 0.46557(6)
O18_2 O 0.34182(12) 0.54662(13) 0.60325(6)
O19_2 O 0.65818(12) 0.45338(13) 0.60325(6)
O20_2 O 0.68433(12) 0.32699(12) 0.58716(6)
O21_2 O 0.31567(12) 0.67301(12) 0.58716(6)
O22_2 O 0.41133(11) 0.45846(12) 0.61815(6)
O23_2 O 0.58867(11) 0.54154(12) 0.61815(6)
O25_2 O 0.26515(12) 0.68462(13) 0.53141(6)
N5_2 N 0.27812(16) 0.59222(17) 0.47487(8)
H36_2 H 0.720029 0.984972 0.892985
O13_2 O 0.84182(12) 0.95338(13) 0.89675(6)
Al12_4 Al 1.000000 1.000000 0.88402(3)
O25_3 O 0.81538(13) 0.76515(12) 0.03141(6)
O17_3 O 0.86746(12) 0.90606(12) 0.96557(6)
N5_3 N 0.90778(17) 0.77812(16) 0.97487(8)
O17_4 O 0.59394(12) 0.36746(12) 0.46557(6)
O25_4 O 0.73485(12) 0.31538(13) 0.53141(6)
N5_4 N 0.72188(16) 0.40778(17) 0.47487(8)
H15_3 H 0.015028 0.279971 0.107015
O1_3 O 0.56311(12) 0.47297(11) 0.41995(6)
H1_3 H 0.567317 0.501621 0.441334
O2_3 O 0.56047(13) 0.47399(12) 0.34500(6)
H2_3 H 0.546719 0.366827 0.472423
O4_3 O 0.65054(13) 0.41925(12) 0.37031(6)
C1_3 C 0.61935(18) 0.44648(16) 0.34351(9)
C2_3 C 0.6544(2) 0.44563(17) 0.30642(9)
C3_3 C 0.7990(2) 0.57184(18) 0.12450(9)
C4_3 C 0.6252(2) 0.47915(19) 0.27602(9)
H3_3 H 0.582873 0.502967 0.278822
C5_3 C 0.98624(17) 0.14721(16) 0.11412(8)
C6_3 C 0.6579(2) 0.4779(2) 0.24163(10)
H4_3 H 0.637323 0.500414 0.220900
C7_3 C 0.81710(17) 0.76453(17) 0.06662(8)
C8_3 C 0.94381(19) 0.20902(17) 0.12322(9)
C9_3 C 0.7567(2) 0.44412(19) 0.20072(10)
C10_3 C 0.87775(19) 0.20192(18) 0.13771(10)
H5_3 H 0.858723 0.157321 0.141089
C11_3 C 0.7970(2) 0.63648(18) 0.06651(9)
H6_3 H 0.792249 0.637635 0.040106
C12_3 C 0.80823(18) 0.69678(17) 0.08613(9)
C13_3 C 0.7169(2) 0.4112(2) 0.30234(10)
H7_3 H 0.736986 0.388216 0.323062
C14_3 C 0.7941(2) 0.50674(19) 0.14528(10)
C15_3 C 0.7203(2) 0.44398(19) 0.23706(10)
C16_3 C 0.7927(2) 0.57437(18) 0.08542(10)
H8_3 H 0.785474 0.533057 0.071796
C17_3 C 0.8397(2) 0.25921(19) 0.14720(11)
H9_3 H 0.794956 0.253703 0.157395
C18_3 C 0.7588(2) 0.5040(2) 0.17907(10)
H10_3 H 0.735534 0.543917 0.187684
C19_3 C 0.8144(2) 0.69542(19) 0.12486(9)
H11_3 H 0.821876 0.736845 0.138348
C20_3 C 0.8288(2) 0.44704(18) 0.13293(10)
H12_3 H 0.853414 0.447929 0.109995
C21_3 C 0.8095(2) 0.63349(19) 0.14355(9)
H13_3 H 0.813464 0.632866 0.170002
C22_3 C 0.9320(2) 0.33180(18) 0.12656(11)
H14_3 H 0.950652 0.376321 0.122314
C23_3 C 0.8665(2) 0.32555(18) 0.14196(10)
C24_3 C 0.9703(2) 0.27460(18) 0.11737(11)
C25_3 C 0.7909(2) 0.38618(19) 0.18761(10)
H16_3 H 0.789522 0.345006 0.201894
C26_3 C 0.8273(2) 0.38691(18) 0.15407(10)
C27_3 C 0.7494(2) 0.4106(2) 0.26798(11)
H17_3 H 0.792104 0.387277 0.265291
N1_3 N 0.69817(17) 0.44210(16) 0.44286(8)
C28_3 C 0.7398(3) 0.4949(2) 0.43597(13)
C29_3 C 0.7905(3) 0.4953(3) 0.46336(16)
Br1_3 Br 0.86168(6) 0.55972(7) 0.46823(3)
C30_3 C 0.7773(3) 0.4409(3) 0.48672(14)
H18_3 H 0.803756 0.428818 0.508046
C31_3 C 0.7298(3) 0.5424(3) 0.40428(17)
H19_3 H 0.735004 0.517169 0.380758
H20_3 H 0.764233 0.579215 0.405497
H21_3 H 0.683609 0.562481 0.405553
O9_3 O 0.43689(12) 0.52703(11) 0.41995(6)
H22_3 H 0.432683 0.498379 0.441334
O10_3 O 0.43953(13) 0.52601(12) 0.34500(6)
H23_3 H 0.453281 0.633173 0.472423
O12_3 O 0.34946(13) 0.58075(12) 0.37031(6)
C32_3 C 0.38065(18) 0.55352(16) 0.34351(9)
C33_3 C 0.3456(2) 0.55437(17) 0.30642(9)
C34_3 C 0.2010(2) 0.42816(18) 0.12450(9)
C35_3 C 0.3748(2) 0.52085(19) 0.27602(9)
H24_3 H 0.417127 0.497033 0.278822
C36_3 C 0.01376(17) 0.85279(16) 0.11412(8)
C37_3 C 0.3421(2) 0.5221(2) 0.24163(10)
H25_3 H 0.362677 0.499586 0.220900
C38_3 C 0.18290(17) 0.23547(17) 0.06662(8)
C39_3 C 0.05619(19) 0.79098(17) 0.12322(9)
C40_3 C 0.2433(2) 0.55588(19) 0.20072(10)
C41_3 C 0.12225(19) 0.79808(18) 0.13771(10)
H26_3 H 0.141277 0.842679 0.141089
C42_3 C 0.2030(2) 0.36352(18) 0.06651(9)
H27_3 H 0.207751 0.362365 0.040106
C43_3 C 0.19177(18) 0.30322(17) 0.08613(9)
C44_3 C 0.2831(2) 0.5888(2) 0.30234(10)
H28_3 H 0.263014 0.611784 0.323062
C45_3 C 0.2059(2) 0.49326(19) 0.14528(10)
C46_3 C 0.2797(2) 0.55602(19) 0.23706(10)
C47_3 C 0.2073(2) 0.42563(18) 0.08542(10)
H29_3 H 0.214526 0.466943 0.071796
C48_3 C 0.1603(2) 0.74079(19) 0.14720(11)
H30_3 H 0.205044 0.746297 0.157395
C49_3 C 0.2412(2) 0.4960(2) 0.17907(10)
H31_3 H 0.264466 0.456083 0.187684
C50_3 C 0.1856(2) 0.30458(19) 0.12486(9)
H32_3 H 0.178124 0.263155 0.138348
C51_3 C 0.1712(2) 0.55296(18) 0.13293(10)
H33_3 H 0.146586 0.552071 0.109995
C52_3 C 0.1905(2) 0.36651(19) 0.14355(9)
H34_3 H 0.186536 0.367134 0.170002
C53_3 C 0.0680(2) 0.66820(18) 0.12656(11)
H35_3 H 0.049348 0.623679 0.122314
C54_3 C 0.1335(2) 0.67445(18) 0.14196(10)
C55_3 C 0.0297(2) 0.72540(18) 0.11737(11)
C56_3 C 0.2091(2) 0.61382(19) 0.18761(10)
H37_3 H 0.210478 0.654994 0.201894
C57_3 C 0.1727(2) 0.61309(18) 0.15407(10)
C58_3 C 0.2506(2) 0.5894(2) 0.26798(11)
H38_3 H 0.207896 0.612723 0.265291
N3_3 N 0.30183(17) 0.55790(16) 0.44286(8)
C59_3 C 0.2602(3) 0.5051(2) 0.43597(13)
C60_3 C 0.2095(3) 0.5047(3) 0.46336(16)
Br2_3 Br 0.13832(6) 0.44028(7) 0.46823(3)
C61_3 C 0.2227(3) 0.5591(3) 0.48672(14)
H39_3 H 0.196244 0.571182 0.508046
C62_3 C 0.2702(3) 0.4576(3) 0.40428(17)
H40_3 H 0.264996 0.482831 0.380758
H41_3 H 0.235767 0.420785 0.405497
H42_3 H 0.316391 0.437519 0.405553
H36_3 H 0.984972 0.720029 0.107015
H18_4 H 0.071182 0.303756 0.008046
O1_4 O 0.02703(11) 0.06311(12) 0.91995(6)
O2_4 O 0.02601(12) 0.06047(13) 0.84500(6)
H2_4 H 0.133173 0.046719 0.972423
O4_4 O 0.08075(12) 0.15054(13) 0.87031(6)
C1_4 C 0.05352(16) 0.11935(18) 0.84351(9)
C2_4 C 0.05437(17) 0.1544(2) 0.80642(9)
C4_4 C 0.02085(19) 0.1252(2) 0.77602(9)
C5_4 C 0.35279(16) 0.48624(17) 0.61412(8)
C6_4 C 0.0221(2) 0.1579(2) 0.74163(10)
C8_4 C 0.29098(17) 0.44381(19) 0.62322(9)
C9_4 C 0.05588(19) 0.2567(2) 0.70072(10)
C10_4 C 0.29808(18) 0.37775(19) 0.63771(10)
H5_4 H 0.342679 0.358723 0.641089
C13_4 C 0.0888(2) 0.2169(2) 0.80234(10)
H7_4 H 0.111784 0.236986 0.823062
C15_4 C 0.05602(19) 0.2203(2) 0.73706(10)
C17_4 C 0.24079(19) 0.3397(2) 0.64720(11)
H9_4 H 0.246297 0.294956 0.657395
C20_4 C 0.05296(18) 0.3288(2) 0.63293(10)
H12_4 H 0.052071 0.353414 0.609995
C22_4 C 0.16820(18) 0.4320(2) 0.62656(11)
H14_4 H 0.123679 0.450652 0.622314
C23_4 C 0.17445(18) 0.3665(2) 0.64196(10)
C24_4 C 0.22540(18) 0.4703(2) 0.61737(11)
H15_4 H 0.220029 0.515028 0.607015
C25_4 C 0.11382(19) 0.2909(2) 0.68761(10)
H16_4 H 0.154994 0.289522 0.701894
C26_4 C 0.11309(18) 0.3273(2) 0.65407(10)
C27_4 C 0.0894(2) 0.2494(2) 0.76798(11)
H17_4 H 0.112723 0.292104 0.765291
N1_4 N 0.05790(16) 0.19817(17) 0.94286(8)
C28_4 C 0.0051(2) 0.2398(3) 0.93597(13)
C29_4 C 0.0047(3) 0.2905(3) 0.96336(16)
C30_4 C 0.0591(3) 0.2773(3) 0.98672(14)
H22_4 H 0.001621 0.932683 0.941334
C34_4 C 0.07184(18) 0.7010(2) 0.62450(9)
H24_4 H 0.002967 0.917127 0.778822
H25_4 H 0.000414 0.862677 0.720900
C38_4 C 0.26453(17) 0.68290(17) 0.56662(8)
C42_4 C 0.13648(18) 0.7030(2) 0.56651(9)
H27_4 H 0.137635 0.707751 0.540106
C43_4 C 0.19678(17) 0.69177(18) 0.58613(9)
C45_4 C 0.00674(19) 0.7059(2) 0.64528(10)
C47_4 C 0.07437(18) 0.7073(2) 0.58542(10)
H29_4 H 0.033057 0.714526 0.571796
C49_4 C 0.0040(2) 0.7412(2) 0.67907(10)
H31_4 H 0.043917 0.764466 0.687684
C50_4 C 0.19542(19) 0.6856(2) 0.62486(9)
H32_4 H 0.236845 0.678124 0.638348
C52_4 C 0.13349(19) 0.6905(2) 0.64355(9)
H34_4 H 0.132866 0.686536 0.670002
Br2_4 Br 0.05972(7) 0.63832(6) 0.96823(3)
C62_4 C 0.0424(3) 0.7702(3) 0.90428(17)
H40_4 H 0.017169 0.764996 0.880758
H41_4 H 0.079215 0.735767 0.905497
H42_4 H 0.062481 0.816391 0.905553
H1_4 H 0.998379 0.067317 0.941334
C3_4 C 0.92816(18) 0.2990(2) 0.62450(9)
H3_4 H 0.997033 0.082873 0.778822
H4_4 H 0.999586 0.137323 0.720900
C7_4 C 0.73547(17) 0.31710(17) 0.56662(8)
C11_4 C 0.86352(18) 0.2970(2) 0.56651(9)
H6_4 H 0.862365 0.292249 0.540106
C12_4 C 0.80322(17) 0.30823(18) 0.58613(9)
C14_4 C 0.99326(19) 0.2941(2) 0.64528(10)
C16_4 C 0.92563(18) 0.2927(2) 0.58542(10)
H8_4 H 0.966943 0.285474 0.571796
C18_4 C 0.9960(2) 0.2588(2) 0.67907(10)
H10_4 H 0.956083 0.235534 0.687684
C19_4 C 0.80458(19) 0.3144(2) 0.62486(9)
H11_4 H 0.763155 0.321876 0.638348
C21_4 C 0.86651(19) 0.3095(2) 0.64355(9)
H13_4 H 0.867134 0.313464 0.670002
Br1_4 Br 0.94028(7) 0.36168(6) 0.96823(3)
C31_4 C 0.9576(3) 0.2298(3) 0.90428(17)
H19_4 H 0.982831 0.235004 0.880758
H20_4 H 0.920785 0.264233 0.905497
H21_4 H 0.937519 0.183609 0.905553
H39_4 H 0.928818 0.696244 0.008046
O9_4 O 0.97297(11) 0.93689(12) 0.91995(6)
O10_4 O 0.97399(12) 0.93953(13) 0.84500(6)
H23_4 H 0.866827 0.953281 0.972423
O12_4 O 0.91925(12) 0.84946(13) 0.87031(6)
C32_4 C 0.94648(16) 0.88065(18) 0.84351(9)
C33_4 C 0.94563(17) 0.8456(2) 0.80642(9)
C35_4 C 0.97915(19) 0.8748(2) 0.77602(9)
C36_4 C 0.64721(16) 0.51376(17) 0.61412(8)
C37_4 C 0.9779(2) 0.8421(2) 0.74163(10)
C39_4 C 0.70902(17) 0.55619(19) 0.62322(9)
C40_4 C 0.94412(19) 0.7433(2) 0.70072(10)
C41_4 C 0.70192(18) 0.62225(19) 0.63771(10)
H26_4 H 0.657321 0.641277 0.641089
C44_4 C 0.9112(2) 0.7831(2) 0.80234(10)
H28_4 H 0.888216 0.763014 0.823062
C46_4 C 0.94398(19) 0.7797(2) 0.73706(10)
C48_4 C 0.75921(19) 0.6603(2) 0.64720(11)
H30_4 H 0.753703 0.705044 0.657395
C51_4 C 0.94704(18) 0.6712(2) 0.63293(10)
H33_4 H 0.947929 0.646586 0.609995
C53_4 C 0.83180(18) 0.5680(2) 0.62656(11)
H35_4 H 0.876321 0.549348 0.622314
C54_4 C 0.82555(18) 0.6335(2) 0.64196(10)
C55_4 C 0.77460(18) 0.5297(2) 0.61737(11)
H36_4 H 0.779971 0.484972 0.607015
C56_4 C 0.88618(19) 0.7091(2) 0.68761(10)
H37_4 H 0.845006 0.710478 0.701894
C57_4 C 0.88691(18) 0.6727(2) 0.65407(10)
C58_4 C 0.9106(2) 0.7506(2) 0.76798(11)
H38_4 H 0.887277 0.707896 0.765291
N3_4 N 0.94210(16) 0.80183(17) 0.94286(8)
C59_4 C 0.9949(2) 0.7602(3) 0.93597(13)
C60_4 C 0.9953(3) 0.7095(3) 0.96336(16)
C61_4 C 0.9409(3) 0.7227(3) 0.98672(14)
loop_
_geom_bond_atom_site_label_1
_geom_bond_atom_site_label_2
_geom_bond_site_symmetry_1
_geom_bond_site_symmetry_2
Al1 O3 1_555 1_555
Al2 O1 1_555 1_555
Al3 O1 1_555 1_555
O2 Al3 1_555 1_555
O3 Al2 1_555 1_555
H2 O3 1_555 1_555
O4 Al2 1_555 1_555
C1 O2 1_555 1_555
C2 C1 1_555 1_555
C4 C2 1_555 1_555
C5 C8 1_555 1_555
C6 C4 1_555 1_555
C8 C10 1_555 1_555
C9 C15 1_555 1_555
C10 H5 1_555 1_555
C13 C2 1_555 1_555
H7 C13 1_555 1_555
C15 C6 1_555 1_555
C17 C10 1_555 1_555
H9 C17 1_555 1_555
H12 C20 1_555 1_555
C22 H14 1_555 1_555
C23 C17 1_555 1_555
C24 C8 1_555 1_555
H15 C24 1_555 1_555
C25 C9 1_555 1_555
H16 C25 1_555 1_555
C26 C20 1_555 1_555
C27 C13 1_555 1_555
H17 C27 1_555 1_555
O5 C5 1_555 1_555
O7 C5 1_555 1_555
N1 Al2 1_555 1_555
C28 N1 1_555 1_555
C29 C28 1_555 1_555
N2 Al1 1_555 1_555
C30 C29 1_555 1_555
Al9 O5 1_555 1_555
Al13 O7 1_555 1_555
O18 Al2 1_555 1_555
O21 Al2 1_555 1_555
O25 Al1 1_555 1_555
O4 C1 1_555 1_555
C15 C27 1_555 1_555
C22 C23 1_555 1_555
C22 C24 1_555 1_555
C23 C26 1_555 1_555
C25 C26 1_555 1_555
N1 N2 1_555 1_555
N2 C30 1_555 1_555
O17 Al1_2 1_555 1_555
O24 Al1_2 1_555 1_555
N5 Al1_2 1_555 1_555
C3 C14 1_555 1_555
C7 C12 1_555 1_555
C11 H6 1_555 1_555
C12 C11 1_555 1_555
C14 C18 1_555 1_555
C16 C3 1_555 1_555
H8 C16 1_555 1_555
H10 C18 1_555 1_555
C19 C12 1_555 1_555
H11 C19 1_555 1_555
C21 C3 1_555 1_555
H13 C21 1_555 1_555
O6 C7 1_555 1_555
O8 C7 1_555 1_555
H19 C31 1_555 1_555
H20 C31 1_555 1_555
H21 C31 1_555 1_555
Al5 O8 1_555 1_555
Al11 O6 1_555 1_555
O23 Al3_2 1_555 1_555
C11 C16 1_555 1_555
C19 C21 1_555 1_555
C34 C45 1_555 1_555
C38 C43 1_555 1_555
C42 H27 1_555 1_555
C43 C42 1_555 1_555
C45 C49 1_555 1_555
C47 C34 1_555 1_555
H29 C47 1_555 1_555
H31 C49 1_555 1_555
C50 C43 1_555 1_555
H32 C50 1_555 1_555
C52 C34 1_555 1_555
H34 C52 1_555 1_555
O14 C38 1_555 1_555
O16 C38 1_555 1_555
H40 C62 1_555 1_555
H41 C62 1_555 1_555
H42 C62 1_555 1_555
Al7 O16 1_555 1_555
Al9 O14 1_555 1_555
O22 Al3_3 1_555 1_555
C42 C47 1_555 1_555
C50 C52 1_555 1_555
Al4 O9 1_555 1_555
O9 Al3_4 1_555 1_555
O10 Al3_4 1_555 1_555
O11 Al4 1_555 1_555
H23 O11 1_555 1_555
O12 Al4 1_555 1_555
C32 O10 1_555 1_555
C33 C32 1_555 1_555
C35 C33 1_555 1_555
C36 C39 1_555 1_555
C37 C35 1_555 1_555
C39 C41 1_555 1_555
C40 C46 1_555 1_555
C41 H26 1_555 1_555
C44 C33 1_555 1_555
H28 C44 1_555 1_555
C46 C37 1_555 1_555
C48 C41 1_555 1_555
H30 C48 1_555 1_555
H33 C51 1_555 1_555
C53 H35 1_555 1_555
C54 C48 1_555 1_555
C55 C39 1_555 1_555
H36 C55 1_555 1_555
C56 C40 1_555 1_555
H37 C56 1_555 1_555
C57 C51 1_555 1_555
C58 C44 1_555 1_555
H38 C58 1_555 1_555
O13 C36 1_555 1_555
O15 C36 1_555 1_555
N3 Al4 1_555 1_555
C59 N3 1_555 1_555
C60 C59 1_555 1_555
N4 N3 1_555 1_555
C61 C60 1_555 1_555
Al6 O11 1_555 1_555
Al11 O13 1_555 1_555
Al13 O15 1_555 1_555
O19 Al4 1_555 1_555
O20 Al4 1_555 1_555
O12 C32 1_555 1_555
C46 C58 1_555 1_555
C53 C54 1_555 1_555
C53 C55 1_555 1_555
C54 C57 1_555 1_555
C56 C57 1_555 1_555
N4 C61 1_555 1_555
N4 Al6 1_555 1_555
Al9_2 O5_2 1_555 1_555
Al5 O3_2 1_555 1_555
Al2_2 O1_2 1_555 1_555
Al3_5 O1_2 1_555 1_555
O1_2 H1_2 1_555 1_555
O2_2 Al3_5 1_555 1_555
O3_2 Al2_2 1_555 1_555
H2_2 O3_2 1_555 1_555
O4_2 Al2_2 1_555 1_555
C1_2 O2_2 1_555 1_555
C2_2 C1_2 1_555 1_555
C3_2 C14_2 1_555 1_555
C4_2 C2_2 1_555 1_555
H3_2 C4_2 1_555 1_555
C5_2 C8_2 1_555 1_555
C6_2 C4_2 1_555 1_555
H4_2 C6_2 1_555 1_555
C7_2 C12_2 1_555 1_555
C8_2 C10_2 1_555 1_555
C9_2 C15_2 1_555 1_555
C10_2 H5_2 1_555 1_555
C11_2 H6_2 1_555 1_555
C12_2 C11_2 1_555 1_555
C13_2 C2_2 1_555 1_555
H7_2 C13_2 1_555 1_555
C14_2 C18_2 1_555 1_555
C15_2 C6_2 1_555 1_555
C16_2 C3_2 1_555 1_555
H8_2 C16_2 1_555 1_555
C17_2 C10_2 1_555 1_555
H9_2 C17_2 1_555 1_555
C18_2 C9_2 1_555 1_555
H10_2 C18_2 1_555 1_555
C19_2 C12_2 1_555 1_555
H11_2 C19_2 1_555 1_555
C20_2 C14_2 1_555 1_555
H12_2 C20_2 1_555 1_555
C21_2 C3_2 1_555 1_555
H13_2 C21_2 1_555 1_555
C22_2 H14_2 1_555 1_555
C23_2 C17_2 1_555 1_555
C24_2 C8_2 1_555 1_555
C25_2 C9_2 1_555 1_555
H16_2 C25_2 1_555 1_555
C26_2 C20_2 1_555 1_555
C27_2 C13_2 1_555 1_555
H17_2 C27_2 1_555 1_555
O6_2 C7_2 1_555 1_555
O7_2 C5_2 1_555 1_555
O8_2 C7_2 1_555 1_555
N1_2 Al2_2 1_555 1_555
C28_2 N1_2 1_555 1_555
C29_2 C28_2 1_555 1_555
Br1_2 C29_2 1_555 1_555
N2_2 Al5 1_555 1_555
C30_2 C29_2 1_555 1_555
H18_2 C30_2 1_555 1_555
C31_2 C28_2 1_555 1_555
H19_2 C31_2 1_555 1_555
H20_2 C31_2 1_555 1_555
H21_2 C31_2 1_555 1_555
Al4_2 O9_2 1_555 1_555
O9_2 Al3_5 1_555 1_555
H22_2 O9_2 1_555 1_555
O10_2 Al3_5 1_555 1_555
O11_2 Al4_2 1_555 1_555
H23_2 O11_2 1_555 1_555
O12_2 Al4_2 1_555 1_555
C32_2 O10_2 1_555 1_555
C33_2 C32_2 1_555 1_555
C34_2 C45_2 1_555 1_555
C35_2 C33_2 1_555 1_555
H24_2 C35_2 1_555 1_555
C36_2 C39_2 1_555 1_555
C37_2 C35_2 1_555 1_555
H25_2 C37_2 1_555 1_555
C38_2 C43_2 1_555 1_555
C39_2 C41_2 1_555 1_555
C40_2 C46_2 1_555 1_555
C41_2 H26_2 1_555 1_555
C42_2 H27_2 1_555 1_555
C43_2 C42_2 1_555 1_555
C44_2 C33_2 1_555 1_555
H28_2 C44_2 1_555 1_555
C45_2 C49_2 1_555 1_555
C46_2 C37_2 1_555 1_555
C47_2 C34_2 1_555 1_555
H29_2 C47_2 1_555 1_555
C48_2 C41_2 1_555 1_555
H30_2 C48_2 1_555 1_555
C49_2 C40_2 1_555 1_555
H31_2 C49_2 1_555 1_555
C50_2 C43_2 1_555 1_555
H32_2 C50_2 1_555 1_555
C51_2 C45_2 1_555 1_555
H33_2 C51_2 1_555 1_555
C52_2 C34_2 1_555 1_555
H34_2 C52_2 1_555 1_555
C53_2 H35_2 1_555 1_555
C54_2 C48_2 1_555 1_555
C55_2 C39_2 1_555 1_555
C56_2 C40_2 1_555 1_555
H37_2 C56_2 1_555 1_555
C57_2 C51_2 1_555 1_555
C58_2 C44_2 1_555 1_555
H38_2 C58_2 1_555 1_555
O14_2 C38_2 1_555 1_555
O15_2 C36_2 1_555 1_555
O24 C38_2 1_555 1_555
N3_2 Al4_2 1_555 1_555
C59_2 N3_2 1_555 1_555
C60_2 C59_2 1_555 1_555
Br2_2 C60_2 1_555 1_555
N4_2 N3_2 1_555 1_555
C61_2 C60_2 1_555 1_555
H39_2 C61_2 1_555 1_555
C62_2 C59_2 1_555 1_555
H40_2 C62_2 1_555 1_555
H41_2 C62_2 1_555 1_555
H42_2 C62_2 1_555 1_555
Al6_2 O8_2 1_555 1_555
Al7 O11_2 1_555 1_555
Al9_2 O14_2 1_555 1_555
Al11_2 O6_2 1_555 1_555
Al12_3 O15_2 1_555 1_555
Al12_2 O7_2 1_555 1_555
O17_2 Al5 1_555 1_555
O18_2 Al2_2 1_555 1_555
O19_2 Al4_2 1_555 1_555
O20_2 Al4_2 1_555 1_555
O21_2 Al2_2 1_555 1_555
O22_2 Al3_5 1_555 1_555
O23_2 Al3_5 1_555 1_555
O25_2 Al5 1_555 1_555
N5_2 Al5 1_555 1_555
O4_2 C1_2 1_555 1_555
C11_2 C16_2 1_555 1_555
C15_2 C27_2 1_555 1_555
C19_2 C21_2 1_555 1_555
C22_2 C23_2 1_555 1_555
C22_2 C24_2 1_555 1_555
C23_2 C26_2 1_555 1_555
C25_2 C26_2 1_555 1_555
N1_2 N2_2 1_555 1_555
N2_2 C30_2 1_555 1_555
O12_2 C32_2 1_555 1_555
C42_2 C47_2 1_555 1_555
C46_2 C58_2 1_555 1_555
C50_2 C52_2 1_555 1_555
C53_2 C54_2 1_555 1_555
C53_2 C55_2 1_555 1_555
C54_2 C57_2 1_555 1_555
C56_2 C57_2 1_555 1_555
N4_2 C61_2 1_555 1_555
N4_2 Al7 1_555 1_555
Al11_2 O13_2 1_555 1_555
O25_3 Al6 1_555 1_555
O17_3 Al6_2 1_555 1_555
N5_3 Al6_2 1_555 1_555
O17_4 Al7 1_555 1_555
O25_4 Al7 1_555 1_555
N5_4 Al7 1_555 1_555
Al9 O1_3 1_555 1_555
Al13 O1_3 1_555 1_555
O1_3 H1_3 1_555 1_555
O2_3 Al13 1_555 1_555
O17_4 Al9 1_555 1_555
H2_3 O17_4 1_555 1_555
O4_3 Al9 1_555 1_555
C1_3 O2_3 1_555 1_555
C2_3 C1_3 1_555 1_555
C3_3 C14_3 1_555 1_555
C4_3 C2_3 1_555 1_555
H3_3 C4_3 1_555 1_555
C5_3 C8_3 1_555 1_555
C6_3 C4_3 1_555 1_555
H4_3 C6_3 1_555 1_555
C7_3 C12_3 1_555 1_555
C8_3 C10_3 1_555 1_555
C9_3 C15_3 1_555 1_555
C10_3 H5_3 1_555 1_555
C11_3 H6_3 1_555 1_555
C12_3 C11_3 1_555 1_555
C13_3 C2_3 1_555 1_555
H7_3 C13_3 1_555 1_555
C14_3 C18_3 1_555 1_555
C15_3 C6_3 1_555 1_555
C16_3 C3_3 1_555 1_555
H8_3 C16_3 1_555 1_555
C17_3 C10_3 1_555 1_555
H9_3 C17_3 1_555 1_555
C18_3 C9_3 1_555 1_555
H10_3 C18_3 1_555 1_555
C19_3 C12_3 1_555 1_555
H11_3 C19_3 1_555 1_555
C20_3 C14_3 1_555 1_555
H12_3 C20_3 1_555 1_555
C21_3 C3_3 1_555 1_555
H13_3 C21_3 1_555 1_555
C22_3 H14_3 1_555 1_555
C23_3 C17_3 1_555 1_555
C24_3 C8_3 1_555 1_555
C25_3 C9_3 1_555 1_555
H16_3 C25_3 1_555 1_555
C26_3 C20_3 1_555 1_555
C27_3 C13_3 1_555 1_555
H17_3 C27_3 1_555 1_555
O20 C7_3 1_555 1_555
O22 C5_3 1_555 1_555
O25_3 C7_3 1_555 1_555
N1_3 Al9 1_555 1_555
C28_3 N1_3 1_555 1_555
C29_3 C28_3 1_555 1_555
Br1_3 C29_3 1_555 1_555
C30_3 C29_3 1_555 1_555
H18_3 C30_3 1_555 1_555
C31_3 C28_3 1_555 1_555
H19_3 C31_3 1_555 1_555
H20_3 C31_3 1_555 1_555
H21_3 C31_3 1_555 1_555
Al11 O9_3 1_555 1_555
O9_3 Al13 1_555 1_555
H22_3 O9_3 1_555 1_555
O10_3 Al13 1_555 1_555
O17_2 Al11 1_555 1_555
H23_3 O17_2 1_555 1_555
O12_3 Al11 1_555 1_555
C32_3 O10_3 1_555 1_555
C33_3 C32_3 1_555 1_555
C34_3 C45_3 1_555 1_555
C35_3 C33_3 1_555 1_555
H24_3 C35_3 1_555 1_555
C36_3 C39_3 1_555 1_555
C37_3 C35_3 1_555 1_555
H25_3 C37_3 1_555 1_555
C38_3 C43_3 1_555 1_555
C39_3 C41_3 1_555 1_555
C40_3 C46_3 1_555 1_555
C41_3 H26_3 1_555 1_555
C42_3 H27_3 1_555 1_555
C43_3 C42_3 1_555 1_555
C44_3 C33_3 1_555 1_555
H28_3 C44_3 1_555 1_555
C45_3 C49_3 1_555 1_555
C46_3 C37_3 1_555 1_555
C47_3 C34_3 1_555 1_555
H29_3 C47_3 1_555 1_555
C48_3 C41_3 1_555 1_555
H30_3 C48_3 1_555 1_555
C49_3 C40_3 1_555 1_555
H31_3 C49_3 1_555 1_555
C50_3 C43_3 1_555 1_555
H32_3 C50_3 1_555 1_555
C51_3 C45_3 1_555 1_555
H33_3 C51_3 1_555 1_555
C52_3 C34_3 1_555 1_555
H34_3 C52_3 1_555 1_555
C53_3 H35_3 1_555 1_555
C54_3 C48_3 1_555 1_555
C55_3 C39_3 1_555 1_555
C56_3 C40_3 1_555 1_555
H37_3 C56_3 1_555 1_555
C57_3 C51_3 1_555 1_555
C58_3 C44_3 1_555 1_555
H38_3 C58_3 1_555 1_555
O21 C38_3 1_555 1_555
O23 C36_3 1_555 1_555
O25 C38_3 1_555 1_555
N3_3 Al11 1_555 1_555
C59_3 N3_3 1_555 1_555
C60_3 C59_3 1_555 1_555
Br2_3 C60_3 1_555 1_555
N5_2 N3_3 1_555 1_555
C61_3 C60_3 1_555 1_555
H39_3 C61_3 1_555 1_555
C62_3 C59_3 1_555 1_555
H40_3 C62_3 1_555 1_555
H41_3 C62_3 1_555 1_555
H42_3 C62_3 1_555 1_555
O4_3 C1_3 1_555 1_555
C11_3 C16_3 1_555 1_555
C15_3 C27_3 1_555 1_555
C19_3 C21_3 1_555 1_555
C22_3 C23_3 1_555 1_555
C22_3 C24_3 1_555 1_555
C23_3 C26_3 1_555 1_555
C25_3 C26_3 1_555 1_555
N1_3 N5_4 1_555 1_555
N5_4 C30_3 1_555 1_555
O12_3 C32_3 1_555 1_555
C42_3 C47_3 1_555 1_555
C46_3 C58_3 1_555 1_555
C50_3 C52_3 1_555 1_555
C53_3 C54_3 1_555 1_555
C53_3 C55_3 1_555 1_555
C54_3 C57_3 1_555 1_555
C56_3 C57_3 1_555 1_555
N5_2 C61_3 1_555 1_555
Al9_2 O1_4 1_555 1_555
Al12 O1_4 1_555 1_555
O2_4 Al12 1_555 1_555
O17 Al9_2 1_555 1_555
H2_4 O17 1_555 1_555
O4_4 Al9_2 1_555 1_555
C1_4 O2_4 1_555 1_555
C2_4 C1_4 1_555 1_555
C4_4 C2_4 1_555 1_555
C5_4 C8_4 1_555 1_555
C6_4 C4_4 1_555 1_555
C8_4 C10_4 1_555 1_555
C9_4 C15_4 1_555 1_555
C10_4 H5_4 1_555 1_555
C13_4 C2_4 1_555 1_555
H7_4 C13_4 1_555 1_555
C15_4 C6_4 1_555 1_555
C17_4 C10_4 1_555 1_555
H9_4 C17_4 1_555 1_555
H12_4 C20_4 1_555 1_555
C22_4 H14_4 1_555 1_555
C23_4 C17_4 1_555 1_555
C24_4 C8_4 1_555 1_555
H15_4 C24_4 1_555 1_555
C25_4 C9_4 1_555 1_555
H16_4 C25_4 1_555 1_555
C26_4 C20_4 1_555 1_555
C27_4 C13_4 1_555 1_555
H17_4 C27_4 1_555 1_555
O18_2 C5_4 1_555 1_555
O22_2 C5_4 1_555 1_555
N1_4 Al9_2 1_555 1_555
C28_4 N1_4 1_555 1_555
C29_4 C28_4 1_555 1_555
C30_4 C29_4 1_555 1_555
O4_4 C1_4 1_555 1_555
C15_4 C27_4 1_555 1_555
C22_4 C23_4 1_555 1_555
C22_4 C24_4 1_555 1_555
C23_4 C26_4 1_555 1_555
C25_4 C26_4 1_555 1_555
N1_4 N5 1_555 1_555
N5 C30_4 1_555 1_555
C34_4 C45_4 1_555 1_555
C38_4 C43_4 1_555 1_555
C42_4 H27_4 1_555 1_555
C43_4 C42_4 1_555 1_555
C45_4 C49_4 1_555 1_555
C47_4 C34_4 1_555 1_555
H29_4 C47_4 1_555 1_555
H31_4 C49_4 1_555 1_555
C50_4 C43_4 1_555 1_555
H32_4 C50_4 1_555 1_555
C52_4 C34_4 1_555 1_555
H34_4 C52_4 1_555 1_555
O21_2 C38_4 1_555 1_555
O25_2 C38_4 1_555 1_555
H40_4 C62_4 1_555 1_555
H41_4 C62_4 1_555 1_555
H42_4 C62_4 1_555 1_555
C42_4 C47_4 1_555 1_555
C50_4 C52_4 1_555 1_555
C3_4 C14_4 1_555 1_555
C7_4 C12_4 1_555 1_555
C11_4 H6_4 1_555 1_555
C12_4 C11_4 1_555 1_555
C14_4 C18_4 1_555 1_555
C16_4 C3_4 1_555 1_555
H8_4 C16_4 1_555 1_555
H10_4 C18_4 1_555 1_555
C19_4 C12_4 1_555 1_555
H11_4 C19_4 1_555 1_555
C21_4 C3_4 1_555 1_555
H13_4 C21_4 1_555 1_555
O20_2 C7_4 1_555 1_555
O25_4 C7_4 1_555 1_555
H19_4 C31_4 1_555 1_555
H20_4 C31_4 1_555 1_555
H21_4 C31_4 1_555 1_555
C11_4 C16_4 1_555 1_555
C19_4 C21_4 1_555 1_555
Al11_2 O9_4 1_555 1_555
O9_4 Al12_4 1_555 1_555
O10_4 Al12_4 1_555 1_555
O17_3 Al11_2 1_555 1_555
H23_4 O17_3 1_555 1_555
O12_4 Al11_2 1_555 1_555
C32_4 O10_4 1_555 1_555
C33_4 C32_4 1_555 1_555
C35_4 C33_4 1_555 1_555
C36_4 C39_4 1_555 1_555
C37_4 C35_4 1_555 1_555
C39_4 C41_4 1_555 1_555
C40_4 C46_4 1_555 1_555
C41_4 H26_4 1_555 1_555
C44_4 C33_4 1_555 1_555
H28_4 C44_4 1_555 1_555
C46_4 C37_4 1_555 1_555
C48_4 C41_4 1_555 1_555
H30_4 C48_4 1_555 1_555
H33_4 C51_4 1_555 1_555
C53_4 H35_4 1_555 1_555
C54_4 C48_4 1_555 1_555
C55_4 C39_4 1_555 1_555
H36_4 C55_4 1_555 1_555
C56_4 C40_4 1_555 1_555
H37_4 C56_4 1_555 1_555
C57_4 C51_4 1_555 1_555
C58_4 C44_4 1_555 1_555
H38_4 C58_4 1_555 1_555
O19_2 C36_4 1_555 1_555
O23_2 C36_4 1_555 1_555
N3_4 Al11_2 1_555 1_555
C59_4 N3_4 1_555 1_555
C60_4 C59_4 1_555 1_555
N5_3 N3_4 1_555 1_555
C61_4 C60_4 1_555 1_555
O12_4 C32_4 1_555 1_555
C46_4 C58_4 1_555 1_555
C53_4 C54_4 1_555 1_555
C53_4 C55_4 1_555 1_555
C54_4 C57_4 1_555 1_555
C56_4 C57_4 1_555 1_555
N5_3 C61_4 1_555 1_555

#END
