
###############################################################################
#
# This file contains modified crystal structure data generated from the
# MOF subset of the Cambridge Structural Database (CSD) v543 
# hosted by the Cambridge Crystallographic Data Centre (CCDC).
#
# This work is licensed under the Creative Commons
# Attribution-NonCommercial-ShareAlike 4.0 International License.
# To view a copy of this license, visit
# http://creativecommons.org/licenses/by-nc-sa/4.0/
# or send a letter to
# Creative Commons, PO Box 1866, Mountain View, CA 94042, USA.
#
# CIF created using the CSD Python API on 29 September 2022
# The structure has been converted into the P1 space group
# The structure has a 3D framework
# The original CSD entry QOXVEH is in the tetragonal crystal system
# The original CSD entry QOXVEH is in a Sohncke space group
# The framework has been calculated to contain at least 10.0% void space
# The void calculation uses a probe of radius 1.32A, grid spacing 0.4
#
###############################################################################

data_QOXVEH
_chemical_formula_moiety         '(C224 H144 Al16 O76)n'
_symmetry_cell_setting           triclinic
_symmetry_space_group_name_H-M   'P 1'
_symmetry_Int_Tables_number      1
_space_group_name_Hall           'P 1'
loop_
_symmetry_equiv_pos_site_id
_symmetry_equiv_pos_as_xyz
1 x,y,z
_cell_length_a                   18.5778(6)
_cell_length_b                   18.5778(6)
_cell_length_c                   37.2977(13)
_cell_angle_alpha                90
_cell_angle_beta                 90
_cell_angle_gamma                90
_cell_volume                     12872.7
loop_
_atom_site_label
_atom_site_type_symbol
_atom_site_fract_x
_atom_site_fract_y
_atom_site_fract_z
Al10 Al 0.000000 0.000000 0.88541(3)
O13 O 0.06920(14) 0.84046(12) 0.89721(5)
C29 C 0.0064(2) 0.84589(17) 0.88484(7)
H27 H 0.043963 0.706358 0.888006
Al6 Al 0.13439(5) 0.90859(5) 0.92030(2)
Al10_2 Al 0.000000 1.000000 0.88541(3)
Al10_3 Al 1.000000 0.000000 0.88541(3)
Al12 Al 0.16367(5) 0.83633(5) 0.000000
Al13 Al 0.83633(5) 0.16367(5) 0.000000
Al1 Al 0.36561(5) 0.40859(5) 0.57970(2)
Al2 Al 0.500000 0.500000 0.61459(3)
Al3 Al 0.33633(5) 0.33633(5) 0.500000
O1 O 0.43126(13) 0.48146(11) 0.58016(5)
H1 H 0.429897 0.513625 0.560375
O2 O 0.39352(13) 0.37500(12) 0.53540(5)
H2 H 0.443478 0.377983 0.530180
O4 O 0.02944(14) 0.09656(13) 0.88240(6)
O5 O 0.43219(16) 0.48080(14) 0.65193(6)
O6 O 0.20404(13) 0.83505(13) 0.91718(6)
O7 O 0.20226(14) 0.76781(14) 0.96692(6)
O8 O 0.29379(15) 0.47005(14) 0.55963(6)
O9 O 0.33290(15) 0.43521(14) 0.62612(6)
O10 O 0.26206(14) 0.40539(15) 0.51030(6)
C2 C 0.0305(2) 0.2199(2) 0.87141(9)
C3 C 0.20528(19) 0.77520(18) 0.93356(8)
C4 C 0.2091(2) 0.7094(2) 0.91082(8)
C5 C 0.3685(2) 0.45863(18) 0.65258(8)
C6 C 0.0950(3) 0.2120(2) 0.85300(12)
H3 H 0.114579 0.165355 0.849234
C7 C 0.3305(2) 0.4593(2) 0.68774(9)
C8 C 0.2032(3) 0.6560(2) 0.85216(9)
H4 H 0.202256 0.661010 0.826819
C9 C 0.1307(3) 0.2722(3) 0.84012(14)
H5 H 0.174713 0.266475 0.827496
C10 C 0.0371(3) 0.3480(2) 0.86357(12)
H6 H 0.017241 0.394515 0.867246
C11 C 0.2083(2) 0.7166(2) 0.87356(9)
H7 H 0.211285 0.762941 0.862944
C12 C 0.1030(3) 0.3409(2) 0.84540(12)
C13 C 0.2548(2) 0.4588(3) 0.53151(12)
H8 H 0.218021 0.492765 0.526234
C14 C 0.0010(3) 0.2882(2) 0.87615(10)
C15 C 0.1447(3) 0.4046(2) 0.83307(12)
C16 C 0.1993(3) 0.5879(2) 0.86748(10)
C17 C 0.2634(3) 0.4277(2) 0.69146(10)
H10 H 0.241001 0.406215 0.671207
C18 C 0.3267(3) 0.4917(3) 0.75018(10)
H11 H 0.348524 0.514097 0.770341
C19 C 0.2057(3) 0.6421(2) 0.92619(9)
H12 H 0.206685 0.637271 0.951548
C20 C 0.3626(3) 0.4919(2) 0.71725(9)
H13 H 0.408452 0.514027 0.715047
C21 C 0.2280(3) 0.5208(2) 0.81106(11)
H14 H 0.256778 0.560378 0.803665
C22 C 0.2604(3) 0.4597(2) 0.75387(11)
C23 C 0.1920(3) 0.5237(2) 0.84430(11)
C24 C 0.1506(3) 0.4648(2) 0.85452(12)
H15 H 0.125744 0.466068 0.876781
C25 C 0.2285(3) 0.4270(2) 0.72412(11)
H16 H 0.182864 0.404301 0.726383
C26 C 0.2010(4) 0.5809(2) 0.90458(11)
H17 H 0.198865 0.534497 0.915234
C27 C 0.2219(3) 0.4610(2) 0.78898(11)
C28 C 0.1801(3) 0.4033(2) 0.79998(12)
H18 H 0.175449 0.362449 0.784863
Al4 Al 0.63439(5) 0.59141(5) 0.57970(2)
O11 O 0.56874(13) 0.51854(11) 0.58016(5)
H19 H 0.570103 0.486375 0.560375
O12 O 0.60648(13) 0.62500(12) 0.53540(5)
H20 H 0.556522 0.622017 0.530180
O14 O 0.97056(14) 0.90344(13) 0.88240(6)
O15 O 0.56781(16) 0.51920(14) 0.65193(6)
O16 O 0.79596(13) 0.16495(13) 0.91718(6)
O17 O 0.79774(14) 0.23219(14) 0.96692(6)
O18 O 0.70621(15) 0.52995(14) 0.55963(6)
O19 O 0.66710(15) 0.56479(14) 0.62612(6)
O20 O 0.73794(14) 0.59461(15) 0.51030(6)
C30 C 0.9695(2) 0.7801(2) 0.87141(9)
C31 C 0.79472(19) 0.22480(18) 0.93356(8)
C32 C 0.7909(2) 0.2906(2) 0.91082(8)
C33 C 0.6315(2) 0.54137(18) 0.65258(8)
C34 C 0.9050(3) 0.7880(2) 0.85300(12)
H21 H 0.885421 0.834645 0.849234
C35 C 0.6695(2) 0.5407(2) 0.68774(9)
C36 C 0.7968(3) 0.3440(2) 0.85216(9)
H22 H 0.797744 0.338990 0.826819
C37 C 0.8693(3) 0.7278(3) 0.84012(14)
H23 H 0.825287 0.733525 0.827496
C38 C 0.9629(3) 0.6520(2) 0.86357(12)
H24 H 0.982759 0.605485 0.867246
C39 C 0.7917(2) 0.2834(2) 0.87356(9)
H25 H 0.788715 0.237059 0.862944
C40 C 0.8970(3) 0.6591(2) 0.84540(12)
C41 C 0.7452(2) 0.5412(3) 0.53151(12)
H26 H 0.781979 0.507235 0.526234
C42 C 0.9990(3) 0.7118(2) 0.87615(10)
C43 C 0.8553(3) 0.5954(2) 0.83307(12)
C44 C 0.8007(3) 0.4121(2) 0.86748(10)
C45 C 0.7366(3) 0.5723(2) 0.69146(10)
H28 H 0.758999 0.593785 0.671207
C46 C 0.6733(3) 0.5083(3) 0.75018(10)
H29 H 0.651476 0.485903 0.770341
C47 C 0.7943(3) 0.3579(2) 0.92619(9)
H30 H 0.793315 0.362729 0.951548
C48 C 0.6374(3) 0.5081(2) 0.71725(9)
H31 H 0.591548 0.485973 0.715047
C49 C 0.7720(3) 0.4792(2) 0.81106(11)
H32 H 0.743222 0.439622 0.803665
C50 C 0.7396(3) 0.5403(2) 0.75387(11)
C51 C 0.8080(3) 0.4763(2) 0.84430(11)
C52 C 0.8494(3) 0.5352(2) 0.85452(12)
H33 H 0.874256 0.533932 0.876781
C53 C 0.7715(3) 0.5730(2) 0.72412(11)
H34 H 0.817136 0.595699 0.726383
C54 C 0.7990(4) 0.4191(2) 0.90458(11)
H35 H 0.801135 0.465503 0.915234
C55 C 0.7781(3) 0.5390(2) 0.78898(11)
C56 C 0.8199(3) 0.5967(2) 0.79998(12)
H36 H 0.824551 0.637551 0.784863
Al8 Al 0.86561(5) 0.09141(5) 0.92030(2)
Al10_4 Al 1.000000 1.000000 0.88541(3)
Al11 Al 0.66367(5) 0.66367(5) 0.500000
Al12_2 Al 0.16367(5) 0.83633(5) 1.000000
Al13_2 Al 0.83633(5) 0.16367(5) 1.000000
O21 O 0.37500(12) 0.39352(13) 0.46460(5)
O22 O 0.56920(14) 0.65954(12) 0.60279(5)
O23 O 0.43080(14) 0.34046(12) 0.60279(5)
O24 O 0.47056(14) 0.59656(13) 0.61760(6)
O25 O 0.52944(14) 0.40344(13) 0.61760(6)
O26 O 0.29596(13) 0.33505(13) 0.58282(6)
O27 O 0.70404(13) 0.66495(13) 0.58282(6)
O28 O 0.26781(14) 0.29774(14) 0.46692(6)
O29 O 0.29774(14) 0.26781(14) 0.53308(6)
O30 O 0.40539(15) 0.26206(14) 0.48970(6)
O3 O 0.93080(14) 0.15954(12) 0.89721(5)
C1 C 0.9936(2) 0.15411(17) 0.88484(7)
H9 H 0.956037 0.293642 0.888006
O21_2 O 0.62500(12) 0.60648(13) 0.46460(5)
O28_2 O 0.73219(14) 0.70226(14) 0.46692(6)
O29_2 O 0.70226(14) 0.73219(14) 0.53308(6)
O30_2 O 0.59461(15) 0.73794(14) 0.48970(6)
Al2_2 Al -0.000000 -0.000000 0.11459(3)
H19_2 H 0.013625 0.070103 0.060375
O16_2 O 0.33505(13) 0.29596(13) 0.41718(6)
C31_2 C 0.27520(18) 0.29472(19) 0.43356(8)
C32_2 C 0.2094(2) 0.2909(2) 0.41082(8)
C36_2 C 0.1560(2) 0.2968(3) 0.35216(9)
H22_2 H 0.161010 0.297744 0.326819
C39_2 C 0.2166(2) 0.2917(2) 0.37356(9)
H25_2 H 0.262941 0.288715 0.362944
C44_2 C 0.0879(2) 0.3007(3) 0.36748(10)
H29_2 H 0.014097 0.151476 0.270341
C47_2 C 0.1421(2) 0.2943(3) 0.42619(9)
H30_2 H 0.137271 0.293315 0.451548
H31_2 H 0.014027 0.091548 0.215047
C49_2 C 0.0208(2) 0.2720(3) 0.31106(11)
H32_2 H 0.060378 0.243222 0.303665
C51_2 C 0.0237(2) 0.3080(3) 0.34430(11)
C54_2 C 0.0809(2) 0.2990(4) 0.40458(11)
H35_2 H 0.034497 0.301135 0.415234
Al8_2 Al 0.40859(5) 0.36561(5) 0.42030(2)
O25_2 O 0.09656(13) 0.02944(14) 0.11760(6)
Al1_2 Al 0.09141(5) 0.86561(5) 0.07970(2)
Al2_3 Al -0.000000 1.000000 0.11459(3)
O1_2 O 0.01854(11) 0.93126(13) 0.08016(5)
O2_2 O 0.12500(12) 0.89352(13) 0.03540(5)
H2_2 H 0.122017 0.943478 0.030180
O3_2 O 0.34046(12) 0.43080(14) 0.39721(5)
O4_2 O 0.40344(13) 0.52944(14) 0.38240(6)
O5_2 O 0.01920(14) 0.93219(16) 0.15193(6)
O8_2 O 0.02995(14) 0.79379(15) 0.05963(6)
O9_2 O 0.06479(14) 0.83290(15) 0.12612(6)
O10_2 O 0.09461(15) 0.76206(14) 0.01030(6)
C1_2 C 0.34589(17) 0.4936(2) 0.38484(7)
C2_2 C 0.2801(2) 0.5305(2) 0.37141(9)
C5_2 C 0.04137(18) 0.8685(2) 0.15258(8)
C6_2 C 0.2880(2) 0.5950(3) 0.35300(12)
H3_2 H 0.334645 0.614579 0.349234
C7_2 C 0.0407(2) 0.8305(2) 0.18774(9)
C9_2 C 0.2278(3) 0.6307(3) 0.34012(14)
H5_2 H 0.233525 0.674713 0.327496
C10_2 C 0.1520(2) 0.5371(3) 0.36357(12)
H6_2 H 0.105485 0.517241 0.367246
C12_2 C 0.1591(2) 0.6030(3) 0.34540(12)
C13_2 C 0.0412(3) 0.7548(2) 0.03151(12)
H8_2 H 0.007235 0.718021 0.026234
C14_2 C 0.2118(2) 0.5010(3) 0.37615(10)
H9_2 H 0.206358 0.456037 0.388006
C15_2 C 0.0954(2) 0.6447(3) 0.33307(12)
C17_2 C 0.0723(2) 0.7634(3) 0.19146(10)
H10_2 H 0.093785 0.741001 0.171207
C18_2 C 0.0083(3) 0.8267(3) 0.25018(10)
C20_2 C 0.0081(2) 0.8626(3) 0.21725(9)
C22_2 C 0.0403(2) 0.7604(3) 0.25387(11)
C24_2 C 0.0352(2) 0.6506(3) 0.35452(12)
H15_2 H 0.033932 0.625744 0.376781
C25_2 C 0.0730(2) 0.7285(3) 0.22412(11)
H16_2 H 0.095699 0.682864 0.226383
C27_2 C 0.0390(2) 0.7219(3) 0.28898(11)
C28_2 C 0.0967(2) 0.6801(3) 0.29998(12)
H18_2 H 0.137551 0.675449 0.284863
Al9 Al 0.500000 0.500000 0.38541(3)
O23_2 O 0.15954(12) 0.93080(14) 0.10279(5)
O26_2 O 0.16495(13) 0.79596(13) 0.08282(6)
O29_3 O 0.23219(14) 0.79774(14) 0.03308(6)
O21_3 O 0.10648(13) 0.87500(12) 0.96460(5)
O30_3 O 0.23794(14) 0.90539(15) 0.98970(6)
Al2_4 Al 1.000000 -0.000000 0.11459(3)
Al4_2 Al 0.90859(5) 0.13439(5) 0.07970(2)
O11_2 O 0.98146(11) 0.06874(13) 0.08016(5)
O12_2 O 0.87500(12) 0.10648(13) 0.03540(5)
H20_2 H 0.877983 0.056522 0.030180
O13_2 O 0.65954(12) 0.56920(14) 0.39721(5)
O14_2 O 0.59656(13) 0.47056(14) 0.38240(6)
O15_2 O 0.98080(14) 0.06781(16) 0.15193(6)
O18_2 O 0.97005(14) 0.20621(15) 0.05963(6)
O19_2 O 0.93521(14) 0.16710(15) 0.12612(6)
O20_2 O 0.90539(15) 0.23794(14) 0.01030(6)
C29_2 C 0.65411(17) 0.5064(2) 0.38484(7)
C30_2 C 0.7199(2) 0.4695(2) 0.37141(9)
C33_2 C 0.95863(18) 0.1315(2) 0.15258(8)
C34_2 C 0.7120(2) 0.4050(3) 0.35300(12)
H21_2 H 0.665355 0.385421 0.349234
C35_2 C 0.9593(2) 0.1695(2) 0.18774(9)
C37_2 C 0.7722(3) 0.3693(3) 0.34012(14)
H23_2 H 0.766475 0.325287 0.327496
C38_2 C 0.8480(2) 0.4629(3) 0.36357(12)
H24_2 H 0.894515 0.482759 0.367246
C40_2 C 0.8409(2) 0.3970(3) 0.34540(12)
C41_2 C 0.9588(3) 0.2452(2) 0.03151(12)
H26_2 H 0.992765 0.281979 0.026234
C42_2 C 0.7882(2) 0.4990(3) 0.37615(10)
H27_2 H 0.793642 0.543963 0.388006
C43_2 C 0.9046(2) 0.3553(3) 0.33307(12)
C45_2 C 0.9277(2) 0.2366(3) 0.19146(10)
H28_2 H 0.906215 0.258999 0.171207
C46_2 C 0.9917(3) 0.1733(3) 0.25018(10)
C48_2 C 0.9919(2) 0.1374(3) 0.21725(9)
C50_2 C 0.9597(2) 0.2396(3) 0.25387(11)
C52_2 C 0.9648(2) 0.3494(3) 0.35452(12)
H33_2 H 0.966068 0.374256 0.376781
C53_2 C 0.9270(2) 0.2715(3) 0.22412(11)
H34_2 H 0.904301 0.317136 0.226383
C55_2 C 0.9610(2) 0.2781(3) 0.28898(11)
C56_2 C 0.9033(2) 0.3199(3) 0.29998(12)
H36_2 H 0.862449 0.324551 0.284863
Al6_2 Al 0.59141(5) 0.63439(5) 0.42030(2)
O22_2 O 0.84046(12) 0.06920(14) 0.10279(5)
O27_2 O 0.83505(13) 0.20404(13) 0.08282(6)
Al2_5 Al 1.000000 1.000000 0.11459(3)
H1_2 H 0.986375 0.929897 0.060375
O6_2 O 0.66495(13) 0.70404(13) 0.41718(6)
C3_2 C 0.72480(18) 0.70528(19) 0.43356(8)
C4_2 C 0.7906(2) 0.7091(2) 0.41082(8)
C8_2 C 0.8440(2) 0.7032(3) 0.35216(9)
H4_2 H 0.838990 0.702256 0.326819
C11_2 C 0.7834(2) 0.7083(2) 0.37356(9)
H7_2 H 0.737059 0.711285 0.362944
C16_2 C 0.9121(2) 0.6993(3) 0.36748(10)
H11_2 H 0.985903 0.848524 0.270341
C19_2 C 0.8579(2) 0.7057(3) 0.42619(9)
H12_2 H 0.862729 0.706685 0.451548
H13_2 H 0.985973 0.908452 0.215047
C21_2 C 0.9792(2) 0.7280(3) 0.31106(11)
H14_2 H 0.939622 0.756778 0.303665
C23_2 C 0.9763(2) 0.6920(3) 0.34430(11)
C26_2 C 0.9191(2) 0.7010(4) 0.40458(11)
H17_2 H 0.965503 0.698865 0.415234
O24_2 O 0.90344(13) 0.97056(14) 0.11760(6)
O29_4 O 0.76781(14) 0.20226(14) 0.03308(6)
O21_4 O 0.89352(13) 0.12500(12) 0.96460(5)
O30_4 O 0.76206(14) 0.09461(15) 0.98970(6)
H1_3 H 0.070103 0.013625 0.939625
C3_3 C 0.29472(19) 0.27520(18) 0.56644(8)
C4_3 C 0.2909(2) 0.2094(2) 0.58918(8)
C8_3 C 0.2968(3) 0.1560(2) 0.64784(9)
H4_3 H 0.297744 0.161010 0.673181
C11_3 C 0.2917(2) 0.2166(2) 0.62644(9)
H7_3 H 0.288715 0.262941 0.637056
C16_3 C 0.3007(3) 0.0879(2) 0.63252(10)
H11_3 H 0.151476 0.014097 0.729659
C19_3 C 0.2943(3) 0.1421(2) 0.57381(9)
H12_3 H 0.293315 0.137271 0.548452
H13_3 H 0.091548 0.014027 0.784953
C21_3 C 0.2720(3) 0.0208(2) 0.68894(11)
H14_3 H 0.243222 0.060378 0.696335
C23_3 C 0.3080(3) 0.0237(2) 0.65570(11)
C26_3 C 0.2990(4) 0.0809(2) 0.59542(11)
H17_3 H 0.301135 0.034497 0.584766
O1_3 O 0.06874(13) 0.98146(11) 0.91984(5)
H2_3 H 0.056522 0.877983 0.969820
O5_3 O 0.06781(16) 0.98080(14) 0.84807(6)
O8_3 O 0.20621(15) 0.97005(14) 0.94037(6)
O9_3 O 0.16710(15) 0.93521(14) 0.87388(6)
C1_3 C 0.5064(2) 0.65411(17) 0.61516(7)
C2_3 C 0.4695(2) 0.7199(2) 0.62859(9)
C5_3 C 0.1315(2) 0.95863(18) 0.84742(8)
C6_3 C 0.4050(3) 0.7120(2) 0.64700(12)
H3_3 H 0.385421 0.665355 0.650766
C7_3 C 0.1695(2) 0.9593(2) 0.81226(9)
C9_3 C 0.3693(3) 0.7722(3) 0.65988(14)
H5_3 H 0.325287 0.766475 0.672504
C10_3 C 0.4629(3) 0.8480(2) 0.63643(12)
H6_3 H 0.482759 0.894515 0.632754
C12_3 C 0.3970(3) 0.8409(2) 0.65460(12)
C13_3 C 0.2452(2) 0.9588(3) 0.96849(12)
H8_3 H 0.281979 0.992765 0.973766
C14_3 C 0.4990(3) 0.7882(2) 0.62385(10)
H9_3 H 0.543963 0.793642 0.611994
C15_3 C 0.3553(3) 0.9046(2) 0.66693(12)
C17_3 C 0.2366(3) 0.9277(2) 0.80854(10)
H10_3 H 0.258999 0.906215 0.828793
C18_3 C 0.1733(3) 0.9917(3) 0.74982(10)
C20_3 C 0.1374(3) 0.9919(2) 0.78275(9)
C22_3 C 0.2396(3) 0.9597(2) 0.74613(11)
C24_3 C 0.3494(3) 0.9648(2) 0.64548(12)
H15_3 H 0.374256 0.966068 0.623219
C25_3 C 0.2715(3) 0.9270(2) 0.77588(11)
H16_3 H 0.317136 0.904301 0.773617
C27_3 C 0.2781(3) 0.9610(2) 0.71102(11)
C28_3 C 0.3199(3) 0.9033(2) 0.70002(12)
H18_3 H 0.324551 0.862449 0.715137
O11_3 O 0.93126(13) 0.01854(11) 0.91984(5)
H20_3 H 0.943478 0.122017 0.969820
O15_3 O 0.93219(16) 0.01920(14) 0.84807(6)
O18_3 O 0.79379(15) 0.02995(14) 0.94037(6)
O19_3 O 0.83290(15) 0.06479(14) 0.87388(6)
C29_3 C 0.4936(2) 0.34589(17) 0.61516(7)
C30_3 C 0.5305(2) 0.2801(2) 0.62859(9)
C33_3 C 0.8685(2) 0.04137(18) 0.84742(8)
C34_3 C 0.5950(3) 0.2880(2) 0.64700(12)
H21_3 H 0.614579 0.334645 0.650766
C35_3 C 0.8305(2) 0.0407(2) 0.81226(9)
C37_3 C 0.6307(3) 0.2278(3) 0.65988(14)
H23_3 H 0.674713 0.233525 0.672504
C38_3 C 0.5371(3) 0.1520(2) 0.63643(12)
H24_3 H 0.517241 0.105485 0.632754
C40_3 C 0.6030(3) 0.1591(2) 0.65460(12)
C41_3 C 0.7548(2) 0.0412(3) 0.96849(12)
H26_3 H 0.718021 0.007235 0.973766
C42_3 C 0.5010(3) 0.2118(2) 0.62385(10)
H27_3 H 0.456037 0.206358 0.611994
C43_3 C 0.6447(3) 0.0954(2) 0.66693(12)
C45_3 C 0.7634(3) 0.0723(2) 0.80854(10)
H28_3 H 0.741001 0.093785 0.828793
C46_3 C 0.8267(3) 0.0083(3) 0.74982(10)
C48_3 C 0.8626(3) 0.0081(2) 0.78275(9)
C50_3 C 0.7604(3) 0.0403(2) 0.74613(11)
C52_3 C 0.6506(3) 0.0352(2) 0.64548(12)
H33_3 H 0.625744 0.033932 0.623219
C53_3 C 0.7285(3) 0.0730(2) 0.77588(11)
H34_3 H 0.682864 0.095699 0.773617
C55_3 C 0.7219(3) 0.0390(2) 0.71102(11)
C56_3 C 0.6801(3) 0.0967(2) 0.70002(12)
H36_3 H 0.675449 0.137551 0.715137
H19_3 H 0.929897 0.986375 0.939625
C31_3 C 0.70528(19) 0.72480(18) 0.56644(8)
C32_3 C 0.7091(2) 0.7906(2) 0.58918(8)
C36_3 C 0.7032(3) 0.8440(2) 0.64784(9)
H22_3 H 0.702256 0.838990 0.673181
C39_3 C 0.7083(2) 0.7834(2) 0.62644(9)
H25_3 H 0.711285 0.737059 0.637056
C44_3 C 0.6993(3) 0.9121(2) 0.63252(10)
H29_3 H 0.848524 0.985903 0.729659
C47_3 C 0.7057(3) 0.8579(2) 0.57381(9)
H30_3 H 0.706685 0.862729 0.548452
H31_3 H 0.908452 0.985973 0.784953
C49_3 C 0.7280(3) 0.9792(2) 0.68894(11)
H32_3 H 0.756778 0.939622 0.696335
C51_3 C 0.6920(3) 0.9763(2) 0.65570(11)
C54_3 C 0.7010(4) 0.9191(2) 0.59542(11)
H35_3 H 0.698865 0.965503 0.584766
C29_4 C 0.84589(17) 0.0064(2) 0.11516(7)
H27_4 H 0.706358 0.043963 0.111994
O1_4 O 0.48146(11) 0.43126(13) 0.41984(5)
H1_4 H 0.513625 0.429897 0.439625
H2_4 H 0.377983 0.443478 0.469820
O5_4 O 0.48080(14) 0.43219(16) 0.34807(6)
O8_4 O 0.47005(14) 0.29379(15) 0.44037(6)
O9_4 O 0.43521(14) 0.33290(15) 0.37388(6)
C2_4 C 0.2199(2) 0.0305(2) 0.12859(9)
C3_4 C 0.77520(18) 0.20528(19) 0.06644(8)
C4_4 C 0.7094(2) 0.2091(2) 0.08918(8)
C5_4 C 0.45863(18) 0.3685(2) 0.34742(8)
C6_4 C 0.2120(2) 0.0950(3) 0.14700(12)
H3_4 H 0.165355 0.114579 0.150766
C7_4 C 0.4593(2) 0.3305(2) 0.31226(9)
C8_4 C 0.6560(2) 0.2032(3) 0.14784(9)
H4_4 H 0.661010 0.202256 0.173181
C9_4 C 0.2722(3) 0.1307(3) 0.15988(14)
H5_4 H 0.266475 0.174713 0.172504
C10_4 C 0.3480(2) 0.0371(3) 0.13643(12)
H6_4 H 0.394515 0.017241 0.132754
C11_4 C 0.7166(2) 0.2083(2) 0.12644(9)
H7_4 H 0.762941 0.211285 0.137056
C12_4 C 0.3409(2) 0.1030(3) 0.15460(12)
C13_4 C 0.4588(3) 0.2548(2) 0.46849(12)
H8_4 H 0.492765 0.218021 0.473766
C14_4 C 0.2882(2) 0.0010(3) 0.12385(10)
C15_4 C 0.4046(2) 0.1447(3) 0.16693(12)
C16_4 C 0.5879(2) 0.1993(3) 0.13252(10)
C17_4 C 0.4277(2) 0.2634(3) 0.30854(10)
H10_4 H 0.406215 0.241001 0.328793
C18_4 C 0.4917(3) 0.3267(3) 0.24982(10)
H11_4 H 0.514097 0.348524 0.229659
C19_4 C 0.6421(2) 0.2057(3) 0.07381(9)
H12_4 H 0.637271 0.206685 0.048452
C20_4 C 0.4919(2) 0.3626(3) 0.28275(9)
H13_4 H 0.514027 0.408452 0.284953
C21_4 C 0.5208(2) 0.2280(3) 0.18894(11)
H14_4 H 0.560378 0.256778 0.196335
C22_4 C 0.4597(2) 0.2604(3) 0.24613(11)
C23_4 C 0.5237(2) 0.1920(3) 0.15570(11)
C24_4 C 0.4648(2) 0.1506(3) 0.14548(12)
H15_4 H 0.466068 0.125744 0.123219
C25_4 C 0.4270(2) 0.2285(3) 0.27588(11)
H16_4 H 0.404301 0.182864 0.273617
C26_4 C 0.5809(2) 0.2010(4) 0.09542(11)
H17_4 H 0.534497 0.198865 0.084766
C27_4 C 0.4610(2) 0.2219(3) 0.21102(11)
C28_4 C 0.4033(2) 0.1801(3) 0.20002(12)
H18_4 H 0.362449 0.175449 0.215137
O11_4 O 0.51854(11) 0.56874(13) 0.41984(5)
H19_4 H 0.486375 0.570103 0.439625
H20_4 H 0.622017 0.556522 0.469820
O15_4 O 0.51920(14) 0.56781(16) 0.34807(6)
O18_4 O 0.52995(14) 0.70621(15) 0.44037(6)
O19_4 O 0.56479(14) 0.66710(15) 0.37388(6)
C30_4 C 0.7801(2) 0.9695(2) 0.12859(9)
C31_4 C 0.22480(18) 0.79472(19) 0.06644(8)
C32_4 C 0.2906(2) 0.7909(2) 0.08918(8)
C33_4 C 0.54137(18) 0.6315(2) 0.34742(8)
C34_4 C 0.7880(2) 0.9050(3) 0.14700(12)
H21_4 H 0.834645 0.885421 0.150766
C35_4 C 0.5407(2) 0.6695(2) 0.31226(9)
C36_4 C 0.3440(2) 0.7968(3) 0.14784(9)
H22_4 H 0.338990 0.797744 0.173181
C37_4 C 0.7278(3) 0.8693(3) 0.15988(14)
H23_4 H 0.733525 0.825287 0.172504
C38_4 C 0.6520(2) 0.9629(3) 0.13643(12)
H24_4 H 0.605485 0.982759 0.132754
C39_4 C 0.2834(2) 0.7917(2) 0.12644(9)
H25_4 H 0.237059 0.788715 0.137056
C40_4 C 0.6591(2) 0.8970(3) 0.15460(12)
C41_4 C 0.5412(3) 0.7452(2) 0.46849(12)
H26_4 H 0.507235 0.781979 0.473766
C42_4 C 0.7118(2) 0.9990(3) 0.12385(10)
C43_4 C 0.5954(2) 0.8553(3) 0.16693(12)
C44_4 C 0.4121(2) 0.8007(3) 0.13252(10)
C45_4 C 0.5723(2) 0.7366(3) 0.30854(10)
H28_4 H 0.593785 0.758999 0.328793
C46_4 C 0.5083(3) 0.6733(3) 0.24982(10)
H29_4 H 0.485903 0.651476 0.229659
C47_4 C 0.3579(2) 0.7943(3) 0.07381(9)
H30_4 H 0.362729 0.793315 0.048452
C48_4 C 0.5081(2) 0.6374(3) 0.28275(9)
H31_4 H 0.485973 0.591548 0.284953
C49_4 C 0.4792(2) 0.7720(3) 0.18894(11)
H32_4 H 0.439622 0.743222 0.196335
C50_4 C 0.5403(2) 0.7396(3) 0.24613(11)
C51_4 C 0.4763(2) 0.8080(3) 0.15570(11)
C52_4 C 0.5352(2) 0.8494(3) 0.14548(12)
H33_4 H 0.533932 0.874256 0.123219
C53_4 C 0.5730(2) 0.7715(3) 0.27588(11)
H34_4 H 0.595699 0.817136 0.273617
C54_4 C 0.4191(2) 0.7990(4) 0.09542(11)
H35_4 H 0.465503 0.801135 0.084766
C55_4 C 0.5390(2) 0.7781(3) 0.21102(11)
C56_4 C 0.5967(2) 0.8199(3) 0.20002(12)
H36_4 H 0.637551 0.824551 0.215137
C1_4 C 0.15411(17) 0.9936(2) 0.11516(7)
H9_4 H 0.293642 0.956037 0.111994
loop_
_geom_bond_atom_site_label_1
_geom_bond_atom_site_label_2
_geom_bond_site_symmetry_1
_geom_bond_site_symmetry_2
O13 C29 1_555 1_555
Al6 O13 1_555 1_555
Al1 O1 1_555 1_555
Al2 O1 1_555 1_555
Al3 O2 1_555 1_555
O1 H1 1_555 1_555
O2 Al1 1_555 1_555
H2 O2 1_555 1_555
O5 Al2 1_555 1_555
O6 C3 1_555 1_555
O7 C3 1_555 1_555
O8 Al1 1_555 1_555
O9 Al1 1_555 1_555
O10 Al3 1_555 1_555
C2 C6 1_555 1_555
C3 C4 1_555 1_555
C4 C11 1_555 1_555
C5 O5 1_555 1_555
C6 H3 1_555 1_555
C7 C5 1_555 1_555
C8 H4 1_555 1_555
C9 C6 1_555 1_555
H5 C9 1_555 1_555
C10 H6 1_555 1_555
C11 C8 1_555 1_555
H7 C11 1_555 1_555
C12 C9 1_555 1_555
C13 O8 1_555 1_555
H8 C13 1_555 1_555
C14 C2 1_555 1_555
C15 C12 1_555 1_555
C16 C8 1_555 1_555
C17 C7 1_555 1_555
H10 C17 1_555 1_555
C18 H11 1_555 1_555
C19 C4 1_555 1_555
H12 C19 1_555 1_555
C20 C7 1_555 1_555
H13 C20 1_555 1_555
C21 H14 1_555 1_555
C22 C18 1_555 1_555
C23 C16 1_555 1_555
C24 C15 1_555 1_555
H15 C24 1_555 1_555
C25 C17 1_555 1_555
H16 C25 1_555 1_555
C26 C16 1_555 1_555
H17 C26 1_555 1_555
C27 C21 1_555 1_555
C28 C15 1_555 1_555
H18 C28 1_555 1_555
Al4 O11 1_555 1_555
O11 Al2 1_555 1_555
H19 O11 1_555 1_555
O12 Al4 1_555 1_555
H20 O12 1_555 1_555
O15 Al2 1_555 1_555
O16 C31 1_555 1_555
O17 C31 1_555 1_555
O18 Al4 1_555 1_555
O19 Al4 1_555 1_555
O20 C41 1_555 1_555
C30 C34 1_555 1_555
C31 C32 1_555 1_555
C32 C39 1_555 1_555
C33 O15 1_555 1_555
C34 H21 1_555 1_555
C35 C33 1_555 1_555
C36 H22 1_555 1_555
C37 C34 1_555 1_555
H23 C37 1_555 1_555
C38 H24 1_555 1_555
C39 C36 1_555 1_555
H25 C39 1_555 1_555
C40 C37 1_555 1_555
C41 O18 1_555 1_555
H26 C41 1_555 1_555
C42 C30 1_555 1_555
C43 C40 1_555 1_555
C44 C36 1_555 1_555
C45 C35 1_555 1_555
H28 C45 1_555 1_555
C46 H29 1_555 1_555
C47 C32 1_555 1_555
H30 C47 1_555 1_555
C48 C35 1_555 1_555
H31 C48 1_555 1_555
C49 H32 1_555 1_555
C50 C46 1_555 1_555
C51 C44 1_555 1_555
C52 C43 1_555 1_555
H33 C52 1_555 1_555
C53 C45 1_555 1_555
H34 C53 1_555 1_555
C54 C44 1_555 1_555
H35 C54 1_555 1_555
C55 C49 1_555 1_555
C56 C43 1_555 1_555
H36 C56 1_555 1_555
Al6 O6 1_555 1_555
Al8 O16 1_555 1_555
Al10 O4 1_555 1_555
Al10_4 O14 1_555 1_555
Al11 O12 1_555 1_555
Al12_2 O7 1_555 1_555
Al13_2 O17 1_555 1_555
O21 Al3 1_555 1_555
O22 Al4 1_555 1_555
O23 Al1 1_555 1_555
O24 Al2 1_555 1_555
O25 Al2 1_555 1_555
O26 Al1 1_555 1_555
O27 Al4 1_555 1_555
O28 Al3 1_555 1_555
O29 Al3 1_555 1_555
O30 Al3 1_555 1_555
O9 C5 1_555 1_555
O10 C13 1_555 1_555
C10 C12 1_555 1_555
C10 C14 1_555 1_555
C18 C20 1_555 1_555
C19 C26 1_555 1_555
C21 C23 1_555 1_555
C22 C25 1_555 1_555
C22 C27 1_555 1_555
C23 C24 1_555 1_555
C27 C28 1_555 1_555
O19 C33 1_555 1_555
O20 Al11 1_555 1_555
C38 C40 1_555 1_555
C38 C42 1_555 1_555
C46 C48 1_555 1_555
C47 C54 1_555 1_555
C49 C51 1_555 1_555
C50 C53 1_555 1_555
C50 C55 1_555 1_555
C51 C52 1_555 1_555
C55 C56 1_555 1_555
O3 C1 1_555 1_555
Al8 O3 1_555 1_555
O21_2 Al11 1_555 1_555
O28_2 Al11 1_555 1_555
O29_2 Al11 1_555 1_555
O30_2 Al11 1_555 1_555
O16_2 C31_2 1_555 1_555
O28 C31_2 1_555 1_555
C31_2 C32_2 1_555 1_555
C32_2 C39_2 1_555 1_555
C36_2 H22_2 1_555 1_555
C39_2 C36_2 1_555 1_555
H25_2 C39_2 1_555 1_555
C44_2 C36_2 1_555 1_555
C47_2 C32_2 1_555 1_555
H30_2 C47_2 1_555 1_555
C49_2 H32_2 1_555 1_555
C51_2 C44_2 1_555 1_555
C54_2 C44_2 1_555 1_555
H35_2 C54_2 1_555 1_555
Al8_2 O16_2 1_555 1_555
O25_2 Al2_2 1_555 1_555
C47_2 C54_2 1_555 1_555
C49_2 C51_2 1_555 1_555
Al1_2 O1_2 1_555 1_555
Al2_3 O1_2 1_555 1_555
Al12 O2_2 1_555 1_555
O2_2 Al1_2 1_555 1_555
H2_2 O2_2 1_555 1_555
O3_2 C1_2 1_555 1_555
O4_2 C1_2 1_555 1_555
O5_2 Al2_3 1_555 1_555
O8_2 Al1_2 1_555 1_555
O9_2 Al1_2 1_555 1_555
O10_2 Al12 1_555 1_555
C1_2 C2_2 1_555 1_555
C2_2 C6_2 1_555 1_555
C5_2 O5_2 1_555 1_555
C6_2 H3_2 1_555 1_555
C7_2 C5_2 1_555 1_555
C9_2 C6_2 1_555 1_555
H5_2 C9_2 1_555 1_555
C10_2 H6_2 1_555 1_555
C12_2 C9_2 1_555 1_555
C13_2 O8_2 1_555 1_555
H8_2 C13_2 1_555 1_555
C14_2 C2_2 1_555 1_555
H9_2 C14_2 1_555 1_555
C15_2 C12_2 1_555 1_555
C17_2 C7_2 1_555 1_555
H10_2 C17_2 1_555 1_555
C20_2 C7_2 1_555 1_555
C22_2 C18_2 1_555 1_555
C24_2 C15_2 1_555 1_555
H15_2 C24_2 1_555 1_555
C25_2 C17_2 1_555 1_555
H16_2 C25_2 1_555 1_555
C28_2 C15_2 1_555 1_555
H18_2 C28_2 1_555 1_555
Al8_2 O3_2 1_555 1_555
Al9 O4_2 1_555 1_555
O23_2 Al1_2 1_555 1_555
O26_2 Al1_2 1_555 1_555
O29_3 Al12 1_555 1_555
O9_2 C5_2 1_555 1_555
O10_2 C13_2 1_555 1_555
C10_2 C12_2 1_555 1_555
C10_2 C14_2 1_555 1_555
C18_2 C20_2 1_555 1_555
C22_2 C25_2 1_555 1_555
C22_2 C27_2 1_555 1_555
C27_2 C28_2 1_555 1_555
O21_3 Al12_2 1_555 1_555
O30_3 Al12_2 1_555 1_555
Al4_2 O11_2 1_555 1_555
O11_2 Al2_4 1_555 1_555
O12_2 Al4_2 1_555 1_555
H20_2 O12_2 1_555 1_555
O13_2 C29_2 1_555 1_555
O14_2 C29_2 1_555 1_555
O15_2 Al2_4 1_555 1_555
O18_2 Al4_2 1_555 1_555
O19_2 Al4_2 1_555 1_555
O20_2 C41_2 1_555 1_555
C29_2 C30_2 1_555 1_555
C30_2 C34_2 1_555 1_555
C33_2 O15_2 1_555 1_555
C34_2 H21_2 1_555 1_555
C35_2 C33_2 1_555 1_555
C37_2 C34_2 1_555 1_555
H23_2 C37_2 1_555 1_555
C38_2 H24_2 1_555 1_555
C40_2 C37_2 1_555 1_555
C41_2 O18_2 1_555 1_555
H26_2 C41_2 1_555 1_555
C42_2 C30_2 1_555 1_555
H27_2 C42_2 1_555 1_555
C43_2 C40_2 1_555 1_555
C45_2 C35_2 1_555 1_555
H28_2 C45_2 1_555 1_555
C48_2 C35_2 1_555 1_555
C50_2 C46_2 1_555 1_555
C52_2 C43_2 1_555 1_555
H33_2 C52_2 1_555 1_555
C53_2 C45_2 1_555 1_555
H34_2 C53_2 1_555 1_555
C56_2 C43_2 1_555 1_555
H36_2 C56_2 1_555 1_555
Al6_2 O13_2 1_555 1_555
Al9 O14_2 1_555 1_555
Al13 O12_2 1_555 1_555
O22_2 Al4_2 1_555 1_555
O27_2 Al4_2 1_555 1_555
O19_2 C33_2 1_555 1_555
O20_2 Al13 1_555 1_555
C38_2 C40_2 1_555 1_555
C38_2 C42_2 1_555 1_555
C46_2 C48_2 1_555 1_555
C50_2 C53_2 1_555 1_555
C50_2 C55_2 1_555 1_555
C55_2 C56_2 1_555 1_555
O6_2 C3_2 1_555 1_555
O28_2 C3_2 1_555 1_555
C3_2 C4_2 1_555 1_555
C4_2 C11_2 1_555 1_555
C8_2 H4_2 1_555 1_555
C11_2 C8_2 1_555 1_555
H7_2 C11_2 1_555 1_555
C16_2 C8_2 1_555 1_555
C19_2 C4_2 1_555 1_555
H12_2 C19_2 1_555 1_555
C21_2 H14_2 1_555 1_555
C23_2 C16_2 1_555 1_555
C26_2 C16_2 1_555 1_555
H17_2 C26_2 1_555 1_555
Al6_2 O6_2 1_555 1_555
O24_2 Al2_5 1_555 1_555
C19_2 C26_2 1_555 1_555
C21_2 C23_2 1_555 1_555
O29_4 Al13 1_555 1_555
O21_4 Al13_2 1_555 1_555
O30_4 Al13_2 1_555 1_555
O26 C3_3 1_555 1_555
O29 C3_3 1_555 1_555
C3_3 C4_3 1_555 1_555
C4_3 C11_3 1_555 1_555
C8_3 H4_3 1_555 1_555
C11_3 C8_3 1_555 1_555
H7_3 C11_3 1_555 1_555
C16_3 C8_3 1_555 1_555
C19_3 C4_3 1_555 1_555
H12_3 C19_3 1_555 1_555
C21_3 H14_3 1_555 1_555
C23_3 C16_3 1_555 1_555
C26_3 C16_3 1_555 1_555
H17_3 C26_3 1_555 1_555
C19_3 C26_3 1_555 1_555
C21_3 C23_3 1_555 1_555
Al6 O1_3 1_555 1_555
Al10_2 O1_3 1_555 1_555
O21_3 Al6 1_555 1_555
H2_3 O21_3 1_555 1_555
O22 C1_3 1_555 1_555
O24 C1_3 1_555 1_555
O5_3 Al10_2 1_555 1_555
O8_3 Al6 1_555 1_555
O9_3 Al6 1_555 1_555
C1_3 C2_3 1_555 1_555
C2_3 C6_3 1_555 1_555
C5_3 O5_3 1_555 1_555
C6_3 H3_3 1_555 1_555
C7_3 C5_3 1_555 1_555
C9_3 C6_3 1_555 1_555
H5_3 C9_3 1_555 1_555
C10_3 H6_3 1_555 1_555
C12_3 C9_3 1_555 1_555
C13_3 O8_3 1_555 1_555
H8_3 C13_3 1_555 1_555
C14_3 C2_3 1_555 1_555
H9_3 C14_3 1_555 1_555
C15_3 C12_3 1_555 1_555
C17_3 C7_3 1_555 1_555
H10_3 C17_3 1_555 1_555
C20_3 C7_3 1_555 1_555
C22_3 C18_3 1_555 1_555
C24_3 C15_3 1_555 1_555
H15_3 C24_3 1_555 1_555
C25_3 C17_3 1_555 1_555
H16_3 C25_3 1_555 1_555
C28_3 C15_3 1_555 1_555
H18_3 C28_3 1_555 1_555
O9_3 C5_3 1_555 1_555
O30_3 C13_3 1_555 1_555
C10_3 C12_3 1_555 1_555
C10_3 C14_3 1_555 1_555
C18_3 C20_3 1_555 1_555
C22_3 C25_3 1_555 1_555
C22_3 C27_3 1_555 1_555
C27_3 C28_3 1_555 1_555
Al8 O11_3 1_555 1_555
O11_3 Al10_3 1_555 1_555
O21_4 Al8 1_555 1_555
H20_3 O21_4 1_555 1_555
O23 C29_3 1_555 1_555
O25 C29_3 1_555 1_555
O15_3 Al10_3 1_555 1_555
O18_3 Al8 1_555 1_555
O19_3 Al8 1_555 1_555
O30_4 C41_3 1_555 1_555
C29_3 C30_3 1_555 1_555
C30_3 C34_3 1_555 1_555
C33_3 O15_3 1_555 1_555
C34_3 H21_3 1_555 1_555
C35_3 C33_3 1_555 1_555
C37_3 C34_3 1_555 1_555
H23_3 C37_3 1_555 1_555
C38_3 H24_3 1_555 1_555
C40_3 C37_3 1_555 1_555
C41_3 O18_3 1_555 1_555
H26_3 C41_3 1_555 1_555
C42_3 C30_3 1_555 1_555
H27_3 C42_3 1_555 1_555
C43_3 C40_3 1_555 1_555
C45_3 C35_3 1_555 1_555
H28_3 C45_3 1_555 1_555
C48_3 C35_3 1_555 1_555
C50_3 C46_3 1_555 1_555
C52_3 C43_3 1_555 1_555
H33_3 C52_3 1_555 1_555
C53_3 C45_3 1_555 1_555
H34_3 C53_3 1_555 1_555
C56_3 C43_3 1_555 1_555
H36_3 C56_3 1_555 1_555
O19_3 C33_3 1_555 1_555
C38_3 C40_3 1_555 1_555
C38_3 C42_3 1_555 1_555
C46_3 C48_3 1_555 1_555
C50_3 C53_3 1_555 1_555
C50_3 C55_3 1_555 1_555
C55_3 C56_3 1_555 1_555
O27 C31_3 1_555 1_555
O29_2 C31_3 1_555 1_555
C31_3 C32_3 1_555 1_555
C32_3 C39_3 1_555 1_555
C36_3 H22_3 1_555 1_555
C39_3 C36_3 1_555 1_555
H25_3 C39_3 1_555 1_555
C44_3 C36_3 1_555 1_555
C47_3 C32_3 1_555 1_555
H30_3 C47_3 1_555 1_555
C49_3 H32_3 1_555 1_555
C51_3 C44_3 1_555 1_555
C54_3 C44_3 1_555 1_555
H35_3 C54_3 1_555 1_555
C47_3 C54_3 1_555 1_555
C49_3 C51_3 1_555 1_555
O22_2 C29_4 1_555 1_555
Al8_2 O1_4 1_555 1_555
Al9 O1_4 1_555 1_555
O1_4 H1_4 1_555 1_555
O21 Al8_2 1_555 1_555
H2_4 O21 1_555 1_555
O5_4 Al9 1_555 1_555
O27_2 C3_4 1_555 1_555
O29_4 C3_4 1_555 1_555
O8_4 Al8_2 1_555 1_555
O9_4 Al8_2 1_555 1_555
C2_4 C6_4 1_555 1_555
C3_4 C4_4 1_555 1_555
C4_4 C11_4 1_555 1_555
C5_4 O5_4 1_555 1_555
C6_4 H3_4 1_555 1_555
C7_4 C5_4 1_555 1_555
C8_4 H4_4 1_555 1_555
C9_4 C6_4 1_555 1_555
H5_4 C9_4 1_555 1_555
C10_4 H6_4 1_555 1_555
C11_4 C8_4 1_555 1_555
H7_4 C11_4 1_555 1_555
C12_4 C9_4 1_555 1_555
C13_4 O8_4 1_555 1_555
H8_4 C13_4 1_555 1_555
C14_4 C2_4 1_555 1_555
C15_4 C12_4 1_555 1_555
C16_4 C8_4 1_555 1_555
C17_4 C7_4 1_555 1_555
H10_4 C17_4 1_555 1_555
C18_4 H11_4 1_555 1_555
C19_4 C4_4 1_555 1_555
H12_4 C19_4 1_555 1_555
C20_4 C7_4 1_555 1_555
H13_4 C20_4 1_555 1_555
C21_4 H14_4 1_555 1_555
C22_4 C18_4 1_555 1_555
C23_4 C16_4 1_555 1_555
C24_4 C15_4 1_555 1_555
H15_4 C24_4 1_555 1_555
C25_4 C17_4 1_555 1_555
H16_4 C25_4 1_555 1_555
C26_4 C16_4 1_555 1_555
H17_4 C26_4 1_555 1_555
C27_4 C21_4 1_555 1_555
C28_4 C15_4 1_555 1_555
H18_4 C28_4 1_555 1_555
Al6_2 O11_4 1_555 1_555
O11_4 Al9 1_555 1_555
H19_4 O11_4 1_555 1_555
O21_2 Al6_2 1_555 1_555
H20_4 O21_2 1_555 1_555
O15_4 Al9 1_555 1_555
O26_2 C31_4 1_555 1_555
O29_3 C31_4 1_555 1_555
O18_4 Al6_2 1_555 1_555
O19_4 Al6_2 1_555 1_555
O30_2 C41_4 1_555 1_555
C30_4 C34_4 1_555 1_555
C31_4 C32_4 1_555 1_555
C32_4 C39_4 1_555 1_555
C33_4 O15_4 1_555 1_555
C34_4 H21_4 1_555 1_555
C35_4 C33_4 1_555 1_555
C36_4 H22_4 1_555 1_555
C37_4 C34_4 1_555 1_555
H23_4 C37_4 1_555 1_555
C38_4 H24_4 1_555 1_555
C39_4 C36_4 1_555 1_555
H25_4 C39_4 1_555 1_555
C40_4 C37_4 1_555 1_555
C41_4 O18_4 1_555 1_555
H26_4 C41_4 1_555 1_555
C42_4 C30_4 1_555 1_555
C43_4 C40_4 1_555 1_555
C44_4 C36_4 1_555 1_555
C45_4 C35_4 1_555 1_555
H28_4 C45_4 1_555 1_555
C46_4 H29_4 1_555 1_555
C47_4 C32_4 1_555 1_555
H30_4 C47_4 1_555 1_555
C48_4 C35_4 1_555 1_555
H31_4 C48_4 1_555 1_555
C49_4 H32_4 1_555 1_555
C50_4 C46_4 1_555 1_555
C51_4 C44_4 1_555 1_555
C52_4 C43_4 1_555 1_555
H33_4 C52_4 1_555 1_555
C53_4 C45_4 1_555 1_555
H34_4 C53_4 1_555 1_555
C54_4 C44_4 1_555 1_555
H35_4 C54_4 1_555 1_555
C55_4 C49_4 1_555 1_555
C56_4 C43_4 1_555 1_555
H36_4 C56_4 1_555 1_555
O9_4 C5_4 1_555 1_555
O30 C13_4 1_555 1_555
C10_4 C12_4 1_555 1_555
C10_4 C14_4 1_555 1_555
C18_4 C20_4 1_555 1_555
C19_4 C26_4 1_555 1_555
C21_4 C23_4 1_555 1_555
C22_4 C25_4 1_555 1_555
C22_4 C27_4 1_555 1_555
C23_4 C24_4 1_555 1_555
C27_4 C28_4 1_555 1_555
O19_4 C33_4 1_555 1_555
C38_4 C40_4 1_555 1_555
C38_4 C42_4 1_555 1_555
C46_4 C48_4 1_555 1_555
C47_4 C54_4 1_555 1_555
C49_4 C51_4 1_555 1_555
C50_4 C53_4 1_555 1_555
C50_4 C55_4 1_555 1_555
C51_4 C52_4 1_555 1_555
C55_4 C56_4 1_555 1_555
O23_2 C1_4 1_555 1_555

#END
