
###############################################################################
#
# This file contains modified crystal structure data generated from the
# MOF subset of the Cambridge Structural Database (CSD) v543 
# hosted by the Cambridge Crystallographic Data Centre (CCDC).
#
# This work is licensed under the Creative Commons
# Attribution-NonCommercial-ShareAlike 4.0 International License.
# To view a copy of this license, visit
# http://creativecommons.org/licenses/by-nc-sa/4.0/
# or send a letter to
# Creative Commons, PO Box 1866, Mountain View, CA 94042, USA.
#
# CIF created using the CSD Python API on 29 September 2022
# The structure has been converted into the P1 space group
# The structure has a 3D framework
# The original CSD entry QOYYOU is in the cubic crystal system
# The framework has been calculated to contain at least 10.0% void space
# The void calculation uses a probe of radius 1.32A, grid spacing 0.4
# H atom positions have been added when not included in the experimental data
# Generated hydrogen atom positions removed from atoms on special positions
#
###############################################################################

data_QOYYOU
_chemical_formula_moiety         '(C2688 H1392 O1536 Zn384)n'
_symmetry_cell_setting           triclinic
_symmetry_space_group_name_H-M   'P 1'
_symmetry_Int_Tables_number      1
_space_group_name_Hall           'P 1'
loop_
_symmetry_equiv_pos_site_id
_symmetry_equiv_pos_as_xyz
1 x,y,z
_cell_length_a                   52.623(3)
_cell_length_b                   52.623(3)
_cell_length_c                   52.623(3)
_cell_angle_alpha                90
_cell_angle_beta                 90
_cell_angle_gamma                90
_cell_volume                     145723
loop_
_atom_site_label
_atom_site_type_symbol
_atom_site_fract_x
_atom_site_fract_y
_atom_site_fract_z
O19 O 0.19874(12) 0.36438(12) 0.09392(11)
O20 O 0.21882(16) 0.37745(15) 0.05812(13)
O21 O 0.13746(18) 0.27334(15) 0.05211(14)
O22 O 0.13733(13) 0.29439(12) 0.08841(11)
C40 C 0.1697(2) 0.33356(19) 0.01376(18)
C41 C 0.18423(19) 0.35022(19) 0.02835(17)
H16 H 0.1941 0.3629 0.0200
C42 C 0.18472(18) 0.34884(17) 0.05464(17)
C43 C 0.2022(2) 0.36515(19) 0.06979(18)
C44 C 0.17039(18) 0.33080(17) 0.06715(16)
H17 H 0.1700 0.3302 0.0852
C45 C 0.15639(18) 0.31338(18) 0.05246(17)
C46 C 0.14259(19) 0.29214(18) 0.06586(18)
C47 C 0.1565(2) 0.31468(19) 0.02626(18)
H18 H 0.1473 0.3024 0.0167
Zn19 Zn 0.22280(3) 0.37437(3) 0.11947(2)
Zn29 Zn 0.25020(2) 0.39437(2) 0.07042(2)
Zn34 Zn 0.12687(2) 0.26855(2) 0.11862(2)
Zn46 Zn 0.12026(2) 0.24368(2) 0.06424(2)
Zn1 Zn 0.21976(2) 0.37890(2) 0.87599(2)
Zn2 Zn 0.27720(3) 0.37437(3) 0.88053(2)
Zn3 Zn 0.24899(2) 0.42790(2) 0.87944(2)
Zn4 Zn 0.24980(2) 0.39437(2) 0.92958(2)
Zn5 Zn 0.11862(2) 0.37313(2) 0.76855(2)
Zn6 Zn 0.11224(2) 0.38376(2) 0.70935(2)
Zn7 Zn 0.09781(2) 0.42855(2) 0.74644(2)
Zn8 Zn 0.06424(2) 0.37974(2) 0.74368(2)
O1 O 0.24089(15) 0.38302(19) 0.83831(13)
O2 O 0.34290(13) 0.37023(17) 0.78185(13)
O3 O 0.33466(13) 0.38467(17) 0.74299(14)
O4 O 0.15573(13) 0.37604(17) 0.75524(14)
O5 O 0.14911(14) 0.3931(2) 0.71670(19)
O6 O 0.25271(14) 0.38646(17) 0.66219(13)
O7 O 0.21180(17) 0.3796(2) 0.65316(15)
O8 O 0.19440(12) 0.40102(11) 0.85969(11)
O9 O 0.21654(14) 0.43710(12) 0.86345(15)
O10 O 0.12692(13) 0.40207(12) 0.79365(12)
O11 O 0.11558(13) 0.43939(13) 0.77680(14)
O12 O 0.11475(13) 0.55246(12) 0.78107(14)
O13 O 0.18700(14) 0.58122(14) 0.87288(14)
O14 O 0.21523(17) 0.55170(15) 0.8607(2)
O15 O 0.19694(16) 0.37479(16) 0.90851(14)
O16 O 0.22069(18) 0.37793(17) 0.94362(14)
O17 O 0.1390(2) 0.27657(18) 0.94078(16)
O18 O 0.13026(18) 0.30355(17) 0.90919(16)
O23 O 0.04068(14) 0.40836(13) 0.7433(2)
O24 O 0.06346(12) 0.44336(11) 0.74781(14)
O27 O 0.09821(10) 0.39243(10) 0.74300(10)
O28 O 0.24912(11) 0.39401(11) 0.89306(11)
C1 C 0.2617(2) 0.3758(2) 0.83172(18)
C2 C 0.2683(2) 0.3767(3) 0.80378(19)
C3 C 0.2938(2) 0.3758(2) 0.79671(19)
H1 H 0.3067 0.3742 0.8093
C4 C 0.30026(18) 0.3773(2) 0.77135(19)
C5 C 0.32818(19) 0.3778(2) 0.7649(2)
C6 C 0.2814(2) 0.3789(2) 0.75301(19)
H2 H 0.2860 0.3796 0.7356
C7 C 0.24958(18) 0.3788(3) 0.78524(19)
H3 H 0.2323 0.3799 0.7902
C8 C 0.25573(18) 0.3794(2) 0.75966(18)
C9 C 0.23546(18) 0.3805(2) 0.73980(18)
C10 C 0.24142(19) 0.3819(2) 0.71433(18)
H4 H 0.2588 0.3821 0.7094
C11 C 0.20955(19) 0.3807(2) 0.74590(18)
H5 H 0.2045 0.3791 0.7632
C12 C 0.19107(18) 0.3830(2) 0.7273(2)
C13 C 0.1632(2) 0.3834(2) 0.7337(2)
C14 C 0.1978(2) 0.3845(2) 0.7026(2)
H6 H 0.1851 0.3867 0.6899
C15 C 0.22295(19) 0.3830(2) 0.69569(18)
C16 C 0.2299(2) 0.3836(2) 0.66802(19)
C17 C 0.19782(17) 0.42453(15) 0.85589(16)
C18 C 0.17762(18) 0.43866(16) 0.84154(17)
C19 C 0.16109(17) 0.42548(16) 0.82584(16)
H7 H 0.1614 0.4074 0.8252
C20 C 0.14411(17) 0.43927(16) 0.81099(17)
C21 C 0.12749(16) 0.42571(16) 0.79229(17)
C22 C 0.14289(18) 0.46546(17) 0.81291(18)
H8 H 0.1308 0.4746 0.8031
C23 C 0.17666(18) 0.46505(17) 0.84303(18)
H9 H 0.1882 0.4738 0.8538
C24 C 0.15920(18) 0.47850(17) 0.82904(19)
C25 C 0.15759(18) 0.50731(17) 0.83082(19)
C26 C 0.13979(18) 0.52100(16) 0.81695(19)
H10 H 0.1285 0.5122 0.8059
C27 C 0.13819(19) 0.54744(18) 0.81887(19)
O29 O 0.11170(15) 0.58271(14) 0.81034(15)
C28 C 0.15457(18) 0.56039(17) 0.83470(18)
H11 H 0.1530 0.5783 0.8368
C29 C 0.1732(2) 0.54711(18) 0.8474(2)
C30 C 0.1928(2) 0.56120(18) 0.8620(2)
C31 C 0.1747(2) 0.52124(17) 0.8453(2)
H12 H 0.1879 0.5125 0.8540
C32 C 0.2012(2) 0.3705(2) 0.9310(2)
C33 C 0.1831(2) 0.3533(2) 0.94510(19)
C34 C 0.1678(2) 0.3369(2) 0.93122(19)
H13 H 0.1668 0.3381 0.9132
C35 C 0.1540(2) 0.3185(2) 0.94433(18)
C36 C 0.1395(2) 0.2985(2) 0.93015(19)
C37 C 0.1549(2) 0.3179(2) 0.97095(18)
H14 H 0.1453 0.3054 0.9797
C38 C 0.1838(2) 0.35218(19) 0.97182(18)
H15 H 0.1945 0.3635 0.9809
C39 C 0.1692(2) 0.33501(19) 0.98495(17)
C48 C 0.04304(18) 0.43151(17) 0.7463(2)
C49 C 0.01866(18) 0.44624(18) 0.7472(2)
C55 C 0.01882(18) 0.4724(2) 0.7484(2)
H21 H 0.0346 0.4812 0.7489
O30 O 0.1402(3) 0.3496(3) 0.7964(3)
O31 O 0.1300(7) 0.3775(8) 0.6729(4)
O32 O 0.27918(14) 0.36707(16) 0.84533(12)
C56 C 0.11995(19) 0.56176(19) 0.8022(2)
O33 O 0.04068(14) 0.59164(13) 0.7567(2)
O34 O 0.06346(12) 0.55664(11) 0.75219(14)
C57 C 0.04304(18) 0.56849(17) 0.7537(2)
C58 C 0.01866(18) 0.55376(18) 0.7528(2)
C64 C 0.01882(18) 0.5276(2) 0.7516(2)
H24 H 0.0346 0.5188 0.7511
Zn9 Zn 0.37599(2) 0.28024(2) 0.62110(2)
Zn10 Zn 0.38053(2) 0.22280(3) 0.62563(3)
Zn11 Zn 0.37944(2) 0.25101(2) 0.57210(2)
Zn12 Zn 0.42958(2) 0.25020(2) 0.60563(2)
Zn13 Zn 0.26855(2) 0.38138(2) 0.62687(2)
Zn14 Zn 0.20935(2) 0.38776(2) 0.61624(2)
Zn15 Zn 0.24644(2) 0.40219(2) 0.57145(2)
Zn16 Zn 0.24368(2) 0.43576(2) 0.62026(2)
O37 O 0.33831(13) 0.25911(15) 0.61698(19)
O38 O 0.28185(13) 0.15710(13) 0.62977(17)
O39 O 0.24299(14) 0.16534(13) 0.61533(17)
O40 O 0.25524(14) 0.34427(13) 0.62396(17)
O41 O 0.21670(19) 0.35089(14) 0.6069(2)
O42 O 0.16219(13) 0.24729(14) 0.61354(17)
O43 O 0.15316(15) 0.28820(17) 0.6204(2)
O44 O 0.35969(11) 0.30560(12) 0.59898(11)
O45 O 0.36345(15) 0.28346(14) 0.56290(12)
O46 O 0.29365(12) 0.37308(13) 0.59793(12)
O47 O 0.27680(14) 0.38442(13) 0.56061(13)
O48 O 0.28107(14) 0.38525(13) 0.44754(12)
O49 O 0.37288(14) 0.31300(14) 0.41878(14)
O50 O 0.3607(2) 0.28477(17) 0.44830(15)
O51 O 0.40851(14) 0.30306(16) 0.62521(16)
O52 O 0.44362(14) 0.27931(18) 0.62207(17)
O53 O 0.44078(16) 0.3610(2) 0.72343(18)
O54 O 0.40919(16) 0.36974(18) 0.69645(17)
O55 O 0.59392(11) 0.30126(12) 0.63562(12)
O56 O 0.55812(13) 0.28118(16) 0.62255(15)
O57 O 0.55211(14) 0.36254(18) 0.72666(15)
O58 O 0.58841(11) 0.36267(13) 0.70561(12)
O59 O 0.24300(10) 0.40179(10) 0.60757(10)
O60 O 0.39306(11) 0.25088(11) 0.60599(11)
C65 C 0.33172(18) 0.2383(2) 0.6242(2)
C66 C 0.30378(19) 0.2317(2) 0.6233(3)
C67 C 0.29671(19) 0.2062(2) 0.6242(2)
H25 H 0.3093 0.1933 0.6258
C68 C 0.27135(19) 0.19974(18) 0.6227(2)
C69 C 0.2649(2) 0.17182(19) 0.6222(2)
C70 C 0.25301(19) 0.2186(2) 0.6211(2)
H26 H 0.2356 0.2140 0.6204
C71 C 0.28524(19) 0.25042(18) 0.6212(3)
H27 H 0.2902 0.2677 0.6201
C72 C 0.25966(18) 0.24427(18) 0.6206(2)
C73 C 0.23980(18) 0.26454(18) 0.6195(2)
C74 C 0.21433(18) 0.25858(19) 0.6181(2)
H28 H 0.2094 0.2412 0.6179
C75 C 0.24590(18) 0.29045(19) 0.6193(2)
H29 H 0.2632 0.2955 0.6209
C76 C 0.2273(2) 0.30893(18) 0.6170(2)
C77 C 0.2337(2) 0.3368(2) 0.6166(2)
C78 C 0.2026(2) 0.3022(2) 0.6155(2)
H30 H 0.1899 0.3149 0.6133
C79 C 0.19569(18) 0.27705(19) 0.6170(2)
C80 C 0.16802(19) 0.2701(2) 0.6164(2)
C81 C 0.35589(16) 0.30218(17) 0.57547(15)
C82 C 0.34154(17) 0.32238(18) 0.56134(16)
C83 C 0.32584(16) 0.33891(17) 0.57452(16)
H31 H 0.3252 0.3386 0.5926
C84 C 0.31099(17) 0.35589(17) 0.56073(16)
C85 C 0.29229(17) 0.37251(16) 0.57429(16)
C86 C 0.31291(18) 0.35711(18) 0.53454(17)
H32 H 0.3031 0.3692 0.5254
C87 C 0.34303(18) 0.32334(18) 0.53495(17)
H33 H 0.3538 0.3118 0.5262
C88 C 0.32904(19) 0.34080(18) 0.52150(17)
C89 C 0.33082(19) 0.34241(18) 0.49269(17)
C90 C 0.31695(19) 0.36021(18) 0.47900(16)
H34 H 0.3059 0.3715 0.4878
C91 C 0.31887(19) 0.36181(19) 0.45256(18)
O61 O 0.31034(15) 0.38830(15) 0.41729(14)
C92 C 0.33470(18) 0.34543(18) 0.43961(17)
H35 H 0.3368 0.3470 0.4217
C93 C 0.3474(2) 0.3268(2) 0.45289(18)
C94 C 0.3620(2) 0.3072(2) 0.43880(18)
C95 C 0.3453(2) 0.3253(2) 0.47876(17)
H36 H 0.3540 0.3121 0.4875
C96 C 0.4310(2) 0.2988(2) 0.6295(2)
C97 C 0.44510(19) 0.3169(2) 0.6467(2)
C98 C 0.43122(19) 0.3322(2) 0.6631(2)
H37 H 0.4132 0.3332 0.6619
C99 C 0.44433(18) 0.3460(2) 0.6815(2)
C100 C 0.43015(19) 0.3605(2) 0.7015(2)
C101 C 0.47095(18) 0.3451(2) 0.6821(2)
H38 H 0.4797 0.3547 0.6946
C102 C 0.47182(18) 0.3162(2) 0.64782(19)
H39 H 0.4809 0.3055 0.6365
C103 C 0.48495(17) 0.3308(2) 0.66499(19)
C104 C 0.51376(18) 0.3303(2) 0.66644(19)
C105 C 0.52835(17) 0.31577(19) 0.64978(19)
H40 H 0.5200 0.3059 0.6371
C106 C 0.55464(17) 0.31528(18) 0.65116(17)
C107 C 0.56979(18) 0.2978(2) 0.63485(19)
C108 C 0.56715(16) 0.32961(18) 0.66920(17)
H41 H 0.5852 0.3300 0.6698
C109 C 0.55246(17) 0.34361(18) 0.68662(18)
C110 C 0.56586(18) 0.35741(19) 0.70786(18)
C111 C 0.52626(18) 0.3435(2) 0.68532(19)
H42 H 0.5167 0.3527 0.6976
O62 O 0.2964(3) 0.3598(3) 0.6504(3)
O63 O 0.1729(4) 0.3700(7) 0.6225(8)
O64 O 0.34533(12) 0.22082(14) 0.63293(16)
C112 C 0.3022(2) 0.38005(19) 0.43824(19)
Zn17 Zn 0.28024(2) 0.12110(2) 0.62401(2)
Zn18 Zn 0.37890(2) 0.37599(2) 0.78024(2)
Zn20 Zn 0.61947(2) 0.27720(3) 0.62563(3)
Zn21 Zn 0.22280(3) 0.12563(3) 0.61947(2)
Zn22 Zn 0.11947(2) 0.27720(3) 0.87437(3)
Zn23 Zn 0.37437(3) 0.38053(2) 0.72280(3)
Zn26 Zn 0.12056(2) 0.24899(2) 0.92790(2)
Zn27 Zn 0.42790(2) 0.37944(2) 0.75101(2)
Zn30 Zn 0.57042(2) 0.24980(2) 0.60563(2)
Zn32 Zn 0.12687(2) 0.23145(2) 0.61862(2)
Zn33 Zn 0.61862(2) 0.37313(2) 0.73145(2)
Zn35 Zn 0.11624(2) 0.29065(2) 0.61224(2)
Zn36 Zn 0.11224(2) 0.61624(2) 0.79065(2)
Zn37 Zn 0.20935(2) 0.61224(2) 0.88376(2)
Zn38 Zn 0.29065(2) 0.38776(2) 0.38376(2)
Zn39 Zn 0.38376(2) 0.29065(2) 0.38776(2)
Zn40 Zn 0.09781(2) 0.57145(2) 0.75356(2)
Zn41 Zn 0.25356(2) 0.40219(2) 0.42855(2)
Zn42 Zn 0.06424(2) 0.62026(2) 0.75632(2)
Zn43 Zn 0.24368(2) 0.56424(2) 0.87974(2)
Zn44 Zn 0.37974(2) 0.25632(2) 0.43576(2)
Zn45 Zn 0.56424(2) 0.37974(2) 0.75632(2)
O65 O 0.21815(13) 0.34290(13) 0.87023(17)
O66 O 0.37023(17) 0.28185(13) 0.65710(13)
O67 O 0.25701(14) 0.33466(13) 0.88467(17)
O68 O 0.38467(17) 0.24299(14) 0.66534(13)
O69 O 0.11354(17) 0.33781(13) 0.75271(14)
O70 O 0.1204(2) 0.34684(15) 0.71180(17)
O71 O 0.11475(13) 0.44754(12) 0.71893(14)
O72 O 0.21893(14) 0.38525(13) 0.55246(12)
O73 O 0.18700(14) 0.41878(14) 0.62712(14)
O74 O 0.08122(14) 0.37288(14) 0.68700(14)
O75 O 0.21523(17) 0.44830(15) 0.6393(2)
O76 O 0.05170(15) 0.3607(2) 0.71523(17)
O77 O 0.3610(2) 0.22343(18) 0.55922(16)
O78 O 0.27657(18) 0.44078(16) 0.8610(2)
O79 O 0.36974(18) 0.19645(17) 0.59081(16)
O80 O 0.30355(17) 0.40919(16) 0.86974(18)
O81 O 0.30126(12) 0.36438(12) 0.90608(11)
O82 O 0.40608(11) 0.19874(12) 0.63562(12)
O83 O 0.28118(16) 0.37745(15) 0.94188(13)
O84 O 0.44188(13) 0.21882(16) 0.62255(15)
O85 O 0.05211(14) 0.36254(18) 0.77334(15)
O86 O 0.27334(15) 0.44789(14) 0.63746(18)
O87 O 0.08841(11) 0.36267(13) 0.79439(12)
O88 O 0.29439(12) 0.41159(11) 0.63733(13)
O89 O 0.2433(2) 0.45932(14) 0.59164(13)
O90 O 0.24781(14) 0.43654(12) 0.55664(11)
O91 O 0.24678(19) 0.45119(14) 0.90782(13)
O92 O 0.40782(13) 0.25322(19) 0.54881(14)
O93 O 0.25155(14) 0.42865(11) 0.94378(12)
O94 O 0.44378(12) 0.24845(14) 0.57135(11)
O95 O 0.11170(15) 0.41729(14) 0.68966(15)
O96 O 0.18966(15) 0.38830(15) 0.58271(14)
O25 O 0.95119(14) 0.40782(13) 0.74678(19)
O26 O 0.92865(11) 0.44378(12) 0.75155(14)
C50 C 0.99579(19) 0.43314(19) 0.7475(2)
H19 H 0.9956 0.4151 0.7466
C51 C 0.97357(19) 0.44632(19) 0.7490(2)
C52 C 0.94931(18) 0.43162(18) 0.7492(2)
C53 C 0.97338(19) 0.4725(2) 0.7500(3)
H20 H 0.9577 0.4813 0.7514
C54 C 0.99617(18) 0.48598(18) 0.7490(2)
O35 O 0.95119(14) 0.59218(13) 0.75322(19)
O36 O 0.92865(11) 0.55622(12) 0.74845(14)
C59 C 0.99579(19) 0.56686(19) 0.7525(2)
H22 H 0.9956 0.5849 0.7534
C60 C 0.97357(19) 0.55368(19) 0.7510(2)
C61 C 0.94931(18) 0.56838(18) 0.7508(2)
C62 C 0.97338(19) 0.5275(2) 0.7500(3)
H23 H 0.9577 0.5187 0.7486
C63 C 0.99617(18) 0.51402(18) 0.7510(2)
Zn24 Zn 0.92790(2) 0.62056(2) 0.75101(2)
Zn25 Zn 0.92790(2) 0.37944(2) 0.74899(2)
Zn28 Zn 0.89437(2) 0.57042(2) 0.75020(2)
Zn31 Zn 0.89437(2) 0.42958(2) 0.74980(2)
Zn1_2 Zn 0.28024(2) 0.62110(2) 0.37599(2)
Zn2_2 Zn 0.22280(3) 0.62563(3) 0.38053(2)
Zn3_2 Zn 0.25101(2) 0.57210(2) 0.37944(2)
Zn4_2 Zn 0.25020(2) 0.60563(2) 0.42958(2)
Zn5_2 Zn 0.38138(2) 0.62687(2) 0.26855(2)
Zn6_2 Zn 0.38776(2) 0.61624(2) 0.20935(2)
Zn7_2 Zn 0.40219(2) 0.57145(2) 0.24644(2)
Zn8_2 Zn 0.43576(2) 0.62026(2) 0.24368(2)
O1_2 O 0.25911(15) 0.61698(19) 0.33831(13)
O2_2 O 0.15710(13) 0.62977(17) 0.28185(13)
O3_2 O 0.16534(13) 0.61533(17) 0.24299(14)
O4_2 O 0.34427(13) 0.62396(17) 0.25524(14)
O5_2 O 0.35089(14) 0.6069(2) 0.21670(19)
O6_2 O 0.24729(14) 0.61354(17) 0.16219(13)
O7_2 O 0.28820(17) 0.6204(2) 0.15316(15)
O8_2 O 0.30560(12) 0.59898(11) 0.35969(11)
O9_2 O 0.28346(14) 0.56290(12) 0.36345(15)
O10_2 O 0.37308(13) 0.59793(12) 0.29365(12)
O11_2 O 0.38442(13) 0.56061(13) 0.27680(14)
O12_2 O 0.38525(13) 0.44754(12) 0.28107(14)
O13_2 O 0.31300(14) 0.41878(14) 0.37288(14)
O14_2 O 0.28477(17) 0.44830(15) 0.3607(2)
O15_2 O 0.30306(16) 0.62521(16) 0.40851(14)
O16_2 O 0.27931(18) 0.62207(17) 0.44362(14)
O17_2 O 0.3610(2) 0.72343(18) 0.44078(16)
O18_2 O 0.36974(18) 0.69645(17) 0.40919(16)
O19_2 O 0.30126(12) 0.63562(12) 0.59392(11)
O20_2 O 0.28118(16) 0.62255(15) 0.55812(13)
O21_2 O 0.36254(18) 0.72666(15) 0.55211(14)
O22_2 O 0.36267(13) 0.70561(12) 0.58841(11)
O23_2 O 0.45932(14) 0.59164(13) 0.2433(2)
O24_2 O 0.43654(12) 0.55664(11) 0.24781(14)
O25_2 O 0.54881(14) 0.59218(13) 0.24678(19)
O26_2 O 0.57135(11) 0.55622(12) 0.25155(14)
O27_2 O 0.40179(10) 0.60757(10) 0.24300(10)
O28_2 O 0.25088(11) 0.60599(11) 0.39306(11)
C1_2 C 0.2383(2) 0.6242(2) 0.33172(18)
C2_2 C 0.2317(2) 0.6233(3) 0.30378(19)
C3_2 C 0.2062(2) 0.6242(2) 0.29671(19)
H1_2 H 0.1933 0.6258 0.3093
C4_2 C 0.19974(18) 0.6227(2) 0.27135(19)
C5_2 C 0.17182(19) 0.6222(2) 0.2649(2)
C6_2 C 0.2186(2) 0.6211(2) 0.25301(19)
H2_2 H 0.2140 0.6204 0.2356
C7_2 C 0.25042(18) 0.6212(3) 0.28524(19)
H3_2 H 0.2677 0.6201 0.2902
C8_2 C 0.24427(18) 0.6206(2) 0.25966(18)
C9_2 C 0.26454(18) 0.6195(2) 0.23980(18)
C10_2 C 0.25858(19) 0.6181(2) 0.21433(18)
H4_2 H 0.2412 0.6179 0.2094
C11_2 C 0.29045(19) 0.6193(2) 0.24590(18)
H5_2 H 0.2955 0.6209 0.2632
C12_2 C 0.30893(18) 0.6170(2) 0.2273(2)
C13_2 C 0.3368(2) 0.6166(2) 0.2337(2)
C14_2 C 0.3022(2) 0.6155(2) 0.2026(2)
H6_2 H 0.3149 0.6133 0.1899
C15_2 C 0.27705(19) 0.6170(2) 0.19569(18)
C16_2 C 0.2701(2) 0.6164(2) 0.16802(19)
C17_2 C 0.30218(17) 0.57547(15) 0.35589(16)
C18_2 C 0.32238(18) 0.56134(16) 0.34154(17)
C19_2 C 0.33891(17) 0.57452(16) 0.32584(16)
H7_2 H 0.3386 0.5926 0.3252
C20_2 C 0.35589(17) 0.56073(16) 0.31099(17)
C21_2 C 0.37251(16) 0.57429(16) 0.29229(17)
C22_2 C 0.35711(18) 0.53454(17) 0.31291(18)
H8_2 H 0.3692 0.5254 0.3031
C23_2 C 0.32334(18) 0.53495(17) 0.34303(18)
H9_2 H 0.3118 0.5262 0.3538
C24_2 C 0.34080(18) 0.52150(17) 0.32904(19)
C25_2 C 0.34241(18) 0.49269(17) 0.33082(19)
C26_2 C 0.36021(18) 0.47900(16) 0.31695(19)
H10_2 H 0.3715 0.4878 0.3059
C27_2 C 0.36181(19) 0.45256(18) 0.31887(19)
O29_2 O 0.38830(15) 0.41729(14) 0.31034(15)
C28_2 C 0.34543(18) 0.43961(17) 0.33470(18)
H11_2 H 0.3470 0.4217 0.3368
C29_2 C 0.3268(2) 0.45289(18) 0.3474(2)
C30_2 C 0.3072(2) 0.43880(18) 0.3620(2)
C31_2 C 0.3253(2) 0.47876(17) 0.3453(2)
H12_2 H 0.3121 0.4875 0.3540
C32_2 C 0.2988(2) 0.6295(2) 0.4310(2)
C33_2 C 0.3169(2) 0.6467(2) 0.44510(19)
C34_2 C 0.3322(2) 0.6631(2) 0.43122(19)
H13_2 H 0.3332 0.6619 0.4132
C35_2 C 0.3460(2) 0.6815(2) 0.44433(18)
C36_2 C 0.3605(2) 0.7015(2) 0.43015(19)
C37_2 C 0.3451(2) 0.6821(2) 0.47095(18)
H14_2 H 0.3547 0.6946 0.4797
C38_2 C 0.3162(2) 0.64782(19) 0.47182(18)
H15_2 H 0.3055 0.6365 0.4809
C39_2 C 0.3308(2) 0.66499(19) 0.48495(17)
C40_2 C 0.3303(2) 0.66644(19) 0.51376(18)
C41_2 C 0.31577(19) 0.64978(19) 0.52835(17)
H16_2 H 0.3059 0.6371 0.5200
C42_2 C 0.31528(18) 0.65116(17) 0.55464(17)
C43_2 C 0.2978(2) 0.63485(19) 0.56979(18)
C44_2 C 0.32961(18) 0.66920(17) 0.56715(16)
H17_2 H 0.3300 0.6698 0.5852
C45_2 C 0.34361(18) 0.68662(18) 0.55246(17)
C46_2 C 0.35741(19) 0.70786(18) 0.56586(18)
C47_2 C 0.3435(2) 0.68532(19) 0.52626(18)
H18_2 H 0.3527 0.6976 0.5167
C48_2 C 0.45696(18) 0.56849(17) 0.2463(2)
C49_2 C 0.48134(18) 0.55376(18) 0.2472(2)
C50_2 C 0.50421(19) 0.56686(19) 0.2475(2)
H19_2 H 0.5044 0.5849 0.2466
C51_2 C 0.52643(19) 0.55368(19) 0.2490(2)
C52_2 C 0.55069(18) 0.56838(18) 0.2492(2)
C53_2 C 0.52662(19) 0.5275(2) 0.2500(3)
H20_2 H 0.5423 0.5187 0.2514
C54_2 C 0.50383(18) 0.51402(18) 0.2490(2)
C55_2 C 0.48118(18) 0.5276(2) 0.2484(2)
H21_2 H 0.4654 0.5188 0.2489
O30_2 O 0.3598(3) 0.6504(3) 0.2964(3)
O31_2 O 0.3700(7) 0.6225(8) 0.1729(4)
O32_2 O 0.22082(14) 0.63293(16) 0.34533(12)
C56_2 C 0.38005(19) 0.43824(19) 0.3022(2)
O33_2 O 0.45932(14) 0.40836(13) 0.2567(2)
O34_2 O 0.43654(12) 0.44336(11) 0.25219(14)
O35_2 O 0.54881(14) 0.40782(13) 0.25322(19)
O36_2 O 0.57135(11) 0.44378(12) 0.24845(14)
C57_2 C 0.45696(18) 0.43151(17) 0.2537(2)
C58_2 C 0.48134(18) 0.44624(18) 0.2528(2)
C59_2 C 0.50421(19) 0.43314(19) 0.2525(2)
H22_2 H 0.5044 0.4151 0.2534
C60_2 C 0.52643(19) 0.44632(19) 0.2510(2)
C61_2 C 0.55069(18) 0.43162(18) 0.2508(2)
C62_2 C 0.52662(19) 0.4725(2) 0.2500(3)
H23_2 H 0.5423 0.4813 0.2486
C63_2 C 0.50383(18) 0.48598(18) 0.2510(2)
C64_2 C 0.48118(18) 0.4724(2) 0.2516(2)
H24_2 H 0.4654 0.4812 0.2511
Zn9_2 Zn 0.12401(2) 0.71976(2) 0.12110(2)
Zn10_2 Zn 0.11947(2) 0.77720(3) 0.12563(3)
Zn11_2 Zn 0.12056(2) 0.74899(2) 0.07210(2)
Zn12_2 Zn 0.07042(2) 0.74980(2) 0.10563(2)
Zn13_2 Zn 0.23145(2) 0.61862(2) 0.12687(2)
Zn14_2 Zn 0.29065(2) 0.61224(2) 0.11624(2)
Zn15_2 Zn 0.25356(2) 0.59781(2) 0.07145(2)
Zn16_2 Zn 0.25632(2) 0.56424(2) 0.12026(2)
O37_2 O 0.16169(13) 0.74089(15) 0.11698(19)
O38_2 O 0.21815(13) 0.84290(13) 0.12977(17)
O39_2 O 0.25701(14) 0.83466(13) 0.11533(17)
O40_2 O 0.24476(14) 0.65573(13) 0.12396(17)
O41_2 O 0.28330(19) 0.64911(14) 0.1069(2)
O42_2 O 0.33781(13) 0.75271(14) 0.11354(17)
O43_2 O 0.34684(15) 0.71180(17) 0.1204(2)
O44_2 O 0.14031(11) 0.69440(12) 0.09898(11)
O45_2 O 0.13655(15) 0.71654(14) 0.06290(12)
O46_2 O 0.20635(12) 0.62692(13) 0.09793(12)
O47_2 O 0.22320(14) 0.61558(13) 0.06061(13)
O51_2 O 0.09149(14) 0.69694(16) 0.12521(16)
O52_2 O 0.05638(14) 0.72069(18) 0.12207(17)
O53_2 O 0.05922(16) 0.6390(2) 0.22343(18)
O54_2 O 0.09081(16) 0.63026(18) 0.19645(17)
O59_2 O 0.25700(10) 0.59821(10) 0.10757(10)
O60_2 O 0.10694(11) 0.74912(11) 0.10599(11)
C65_2 C 0.16828(18) 0.7617(2) 0.1242(2)
C66_2 C 0.19622(19) 0.7683(2) 0.1233(3)
C67_2 C 0.20329(19) 0.7938(2) 0.1242(2)
H25_2 H 0.1907 0.8067 0.1258
C68_2 C 0.22865(19) 0.80026(18) 0.1227(2)
C69_2 C 0.2351(2) 0.82818(19) 0.1222(2)
C70_2 C 0.24699(19) 0.7814(2) 0.1211(2)
H26_2 H 0.2644 0.7860 0.1204
C71_2 C 0.21476(19) 0.74958(18) 0.1212(3)
H27_2 H 0.2098 0.7323 0.1201
C72_2 C 0.24034(18) 0.75573(18) 0.1206(2)
C73_2 C 0.26020(18) 0.73546(18) 0.1195(2)
C74_2 C 0.28567(18) 0.74142(19) 0.1181(2)
H28_2 H 0.2906 0.7588 0.1179
C75_2 C 0.25410(18) 0.70955(19) 0.1193(2)
H29_2 H 0.2368 0.7045 0.1209
C76_2 C 0.2727(2) 0.69107(18) 0.1170(2)
C77_2 C 0.2663(2) 0.6632(2) 0.1166(2)
C78_2 C 0.2974(2) 0.6978(2) 0.1155(2)
H30_2 H 0.3101 0.6851 0.1133
C79_2 C 0.30431(18) 0.72295(19) 0.1170(2)
C80_2 C 0.33198(19) 0.7299(2) 0.1164(2)
C81_2 C 0.14411(16) 0.69782(17) 0.07547(15)
C82_2 C 0.15846(17) 0.67762(18) 0.06134(16)
C83_2 C 0.17416(16) 0.66109(17) 0.07452(16)
H31_2 H 0.1748 0.6614 0.0926
C84_2 C 0.18901(17) 0.64411(17) 0.06073(16)
C85_2 C 0.20771(17) 0.62749(16) 0.07429(16)
C86_2 C 0.18709(18) 0.64289(18) 0.03454(17)
H32_2 H 0.1969 0.6308 0.0254
C87_2 C 0.15697(18) 0.67666(18) 0.03495(17)
H33_2 H 0.1462 0.6882 0.0262
C88_2 C 0.17096(19) 0.65920(18) 0.02150(17)
C96_2 C 0.0690(2) 0.7012(2) 0.1295(2)
C97_2 C 0.05490(19) 0.6831(2) 0.1467(2)
C98_2 C 0.06878(19) 0.6678(2) 0.1631(2)
H37_2 H 0.0868 0.6668 0.1619
C99_2 C 0.05567(18) 0.6540(2) 0.1815(2)
C100_2 C 0.06985(19) 0.6395(2) 0.2015(2)
C101_2 C 0.02905(18) 0.6549(2) 0.1821(2)
H38_2 H 0.0203 0.6453 0.1946
C102_2 C 0.02818(18) 0.6838(2) 0.14782(19)
H39_2 H 0.0191 0.6945 0.1365
C103_2 C 0.01505(17) 0.6692(2) 0.16499(19)
O62_2 O 0.2036(3) 0.6402(3) 0.1504(3)
O63_2 O 0.3271(4) 0.6300(7) 0.1225(8)
O64_2 O 0.15467(12) 0.77918(14) 0.13293(16)
Zn17_2 Zn 0.21976(2) 0.87890(2) 0.12401(2)
Zn18_2 Zn 0.12110(2) 0.62401(2) 0.28024(2)
Zn19_2 Zn 0.27720(3) 0.62563(3) 0.61947(2)
Zn21_2 Zn 0.27720(3) 0.87437(3) 0.11947(2)
Zn22_2 Zn 0.38053(2) 0.72280(3) 0.37437(3)
Zn23_2 Zn 0.12563(3) 0.61947(2) 0.22280(3)
Zn24_2 Zn 0.57210(2) 0.37944(2) 0.25101(2)
Zn25_2 Zn 0.57210(2) 0.62056(2) 0.24899(2)
Zn26_2 Zn 0.37944(2) 0.75101(2) 0.42790(2)
Zn27_2 Zn 0.07210(2) 0.62056(2) 0.25101(2)
Zn28_2 Zn 0.60563(2) 0.42958(2) 0.25020(2)
Zn29_2 Zn 0.24980(2) 0.60563(2) 0.57042(2)
Zn31_2 Zn 0.60563(2) 0.57042(2) 0.24980(2)
Zn32_2 Zn 0.37313(2) 0.76855(2) 0.11862(2)
Zn34_2 Zn 0.37313(2) 0.73145(2) 0.61862(2)
Zn35_2 Zn 0.38376(2) 0.70935(2) 0.11224(2)
Zn36_2 Zn 0.38776(2) 0.38376(2) 0.29065(2)
Zn40_2 Zn 0.40219(2) 0.42855(2) 0.25356(2)
Zn42_2 Zn 0.43576(2) 0.37974(2) 0.25632(2)
Zn43_2 Zn 0.25632(2) 0.43576(2) 0.37974(2)
Zn46_2 Zn 0.37974(2) 0.75632(2) 0.56424(2)
O65_2 O 0.28185(13) 0.65710(13) 0.37023(17)
O66_2 O 0.12977(17) 0.71815(13) 0.15710(13)
O67_2 O 0.24299(14) 0.66534(13) 0.38467(17)
O68_2 O 0.11533(17) 0.75701(14) 0.16534(13)
O69_2 O 0.38646(17) 0.66219(13) 0.25271(14)
O70_2 O 0.3796(2) 0.65316(15) 0.21180(17)
O71_2 O 0.38525(13) 0.55246(12) 0.21893(14)
O72_2 O 0.28107(14) 0.61475(13) 0.05246(12)
O73_2 O 0.31300(14) 0.58122(14) 0.12712(14)
O74_2 O 0.41878(14) 0.62712(14) 0.18700(14)
O75_2 O 0.28477(17) 0.55170(15) 0.1393(2)
O76_2 O 0.44830(15) 0.6393(2) 0.21523(17)
O77_2 O 0.1390(2) 0.77657(18) 0.05922(16)
O78_2 O 0.22343(18) 0.55922(16) 0.3610(2)
O79_2 O 0.13026(18) 0.80355(17) 0.09081(16)
O80_2 O 0.19645(17) 0.59081(16) 0.36974(18)
O81_2 O 0.19874(12) 0.63562(12) 0.40608(11)
O82_2 O 0.09392(11) 0.80126(12) 0.13562(12)
O83_2 O 0.21882(16) 0.62255(15) 0.44188(13)
O84_2 O 0.05812(13) 0.78118(16) 0.12255(15)
O85_2 O 0.44789(14) 0.63746(18) 0.27334(15)
O86_2 O 0.22666(15) 0.55211(14) 0.13746(18)
O87_2 O 0.41159(11) 0.63733(13) 0.29439(12)
O88_2 O 0.20561(12) 0.58841(11) 0.13733(13)
O89_2 O 0.2567(2) 0.54068(14) 0.09164(13)
O90_2 O 0.25219(14) 0.56346(12) 0.05664(11)
O91_2 O 0.25322(19) 0.54881(14) 0.40782(13)
O92_2 O 0.09218(13) 0.74678(19) 0.04881(14)
O93_2 O 0.24845(14) 0.57135(11) 0.44378(12)
O94_2 O 0.05622(12) 0.75155(14) 0.07135(11)
O95_2 O 0.38830(15) 0.58271(14) 0.18966(15)
O96_2 O 0.31034(15) 0.61170(15) 0.08271(14)
O48_2 O 0.21893(14) 0.61475(13) 0.94754(12)
O49_2 O 0.12712(14) 0.68700(14) 0.91878(14)
O50_2 O 0.1393(2) 0.71523(17) 0.94830(15)
C89_2 C 0.16918(19) 0.65759(18) 0.99269(17)
C90_2 C 0.18305(19) 0.63979(18) 0.97900(16)
H34_2 H 0.1941 0.6285 0.9878
C91_2 C 0.18113(19) 0.63819(19) 0.95256(18)
O61_2 O 0.18966(15) 0.61170(15) 0.91729(14)
C92_2 C 0.16530(18) 0.65457(18) 0.93961(17)
H35_2 H 0.1632 0.6530 0.9217
C93_2 C 0.1526(2) 0.6732(2) 0.95289(18)
C94_2 C 0.1380(2) 0.6928(2) 0.93880(18)
C95_2 C 0.1547(2) 0.6747(2) 0.97876(17)
H36_2 H 0.1460 0.6879 0.9875
C112_2 C 0.1978(2) 0.61995(19) 0.93824(19)
Zn39_2 Zn 0.11624(2) 0.70935(2) 0.88776(2)
Zn41_2 Zn 0.24644(2) 0.59781(2) 0.92855(2)
Zn44_2 Zn 0.12026(2) 0.74368(2) 0.93576(2)
O55_2 O 0.90608(11) 0.69874(12) 0.13562(12)
O56_2 O 0.94188(13) 0.71882(16) 0.12255(15)
O57_2 O 0.94789(14) 0.63746(18) 0.22666(15)
O58_2 O 0.91159(11) 0.63733(13) 0.20561(12)
C104_2 C 0.98624(18) 0.6697(2) 0.16644(19)
C105_2 C 0.97165(17) 0.68423(19) 0.14978(19)
H40_2 H 0.9800 0.6941 0.1371
C106_2 C 0.94536(17) 0.68472(18) 0.15116(17)
C107_2 C 0.93021(18) 0.7022(2) 0.13485(19)
C108_2 C 0.93285(16) 0.67039(18) 0.16920(17)
H41_2 H 0.9148 0.6700 0.1698
C109_2 C 0.94754(17) 0.65639(18) 0.18662(18)
C110_2 C 0.93414(18) 0.64259(19) 0.20786(18)
C111_2 C 0.97374(18) 0.6565(2) 0.18532(19)
H42_2 H 0.9833 0.6473 0.1976
Zn20_2 Zn 0.88053(2) 0.72280(3) 0.12563(3)
Zn30_2 Zn 0.92958(2) 0.75020(2) 0.10563(2)
Zn33_2 Zn 0.88138(2) 0.62687(2) 0.23145(2)
Zn45_2 Zn 0.93576(2) 0.62026(2) 0.25632(2)
O35_3 O 0.04881(14) 0.09218(13) 0.74678(19)
O36_3 O 0.07135(11) 0.05622(12) 0.75155(14)
C59_3 C 0.00421(19) 0.06686(19) 0.7475(2)
H22_3 H 0.0044 0.0849 0.7466
C60_3 C 0.02643(19) 0.05368(19) 0.7490(2)
C61_3 C 0.05069(18) 0.06838(18) 0.7492(2)
C62_3 C 0.02662(19) 0.0275(2) 0.7500(3)
H23_3 H 0.0423 0.0187 0.7514
C63_3 C 0.00383(18) 0.01402(18) 0.7490(2)
Zn24_3 Zn 0.07210(2) 0.12056(2) 0.74899(2)
Zn28_3 Zn 0.10563(2) 0.07042(2) 0.74980(2)
O25_3 O 0.04881(14) 0.90782(13) 0.75322(19)
O26_3 O 0.07135(11) 0.94378(12) 0.74845(14)
C50_3 C 0.00421(19) 0.93314(19) 0.7525(2)
H19_3 H 0.0044 0.9151 0.7534
C51_3 C 0.02643(19) 0.94632(19) 0.7510(2)
C52_3 C 0.05069(18) 0.93162(18) 0.7508(2)
C53_3 C 0.02662(19) 0.9725(2) 0.7500(3)
H20_3 H 0.0423 0.9813 0.7486
C54_3 C 0.00383(18) 0.98598(18) 0.7510(2)
Zn25_3 Zn 0.07210(2) 0.87944(2) 0.75101(2)
Zn31_3 Zn 0.10563(2) 0.92958(2) 0.75020(2)
O12_3 O 0.88525(13) 0.05246(12) 0.71893(14)
O13_3 O 0.81300(14) 0.08122(14) 0.62712(14)
O14_3 O 0.78477(17) 0.05170(15) 0.6393(2)
C25_3 C 0.84241(18) 0.00731(17) 0.66918(19)
C26_3 C 0.86021(18) 0.02100(16) 0.68305(19)
H10_3 H 0.8715 0.0122 0.6941
C27_3 C 0.86181(19) 0.04744(18) 0.68113(19)
O29_3 O 0.88830(15) 0.08271(14) 0.68966(15)
C28_3 C 0.84543(18) 0.06039(17) 0.66530(18)
H11_3 H 0.8470 0.0783 0.6632
C29_3 C 0.8268(2) 0.04711(18) 0.6526(2)
C30_3 C 0.8072(2) 0.06120(18) 0.6380(2)
C31_3 C 0.8253(2) 0.02124(17) 0.6547(2)
H12_3 H 0.8121 0.0125 0.6460
C56_3 C 0.88005(19) 0.06176(19) 0.6978(2)
O33_3 O 0.95932(14) 0.09164(13) 0.7433(2)
O34_3 O 0.93654(12) 0.05664(11) 0.74781(14)
C57_3 C 0.95696(18) 0.06849(17) 0.7463(2)
C58_3 C 0.98134(18) 0.05376(18) 0.7472(2)
C64_3 C 0.98118(18) 0.0276(2) 0.7484(2)
H24_3 H 0.9654 0.0188 0.7489
Zn36_3 Zn 0.88776(2) 0.11624(2) 0.70935(2)
Zn37_2 Zn 0.79065(2) 0.11224(2) 0.61624(2)
Zn40_3 Zn 0.90219(2) 0.07145(2) 0.74644(2)
Zn42_3 Zn 0.93576(2) 0.12026(2) 0.74368(2)
Zn43_3 Zn 0.75632(2) 0.06424(2) 0.62026(2)
O48_3 O 0.71893(14) 0.88525(13) 0.05246(12)
O49_3 O 0.62712(14) 0.81300(14) 0.08122(14)
O50_3 O 0.6393(2) 0.78477(17) 0.05170(15)
C89_3 C 0.66918(19) 0.84241(18) 0.00731(17)
C90_3 C 0.68305(19) 0.86021(18) 0.02100(16)
H34_3 H 0.6941 0.8715 0.0122
C91_3 C 0.68113(19) 0.86181(19) 0.04744(18)
O61_3 O 0.68966(15) 0.88830(15) 0.08271(14)
C92_3 C 0.66530(18) 0.84543(18) 0.06039(17)
H35_3 H 0.6632 0.8470 0.0783
C93_3 C 0.6526(2) 0.8268(2) 0.04711(18)
C94_3 C 0.6380(2) 0.8072(2) 0.06120(18)
C95_3 C 0.6547(2) 0.8253(2) 0.02124(17)
H36_3 H 0.6460 0.8121 0.0125
C112_3 C 0.6978(2) 0.88005(19) 0.06176(19)
Zn38_2 Zn 0.70935(2) 0.88776(2) 0.11624(2)
Zn39_3 Zn 0.61624(2) 0.79065(2) 0.11224(2)
Zn41_3 Zn 0.74644(2) 0.90219(2) 0.07145(2)
Zn44_3 Zn 0.62026(2) 0.75632(2) 0.06424(2)
Zn1_3 Zn 0.78024(2) 0.87890(2) 0.62401(2)
Zn2_3 Zn 0.72280(3) 0.87437(3) 0.61947(2)
Zn3_3 Zn 0.75101(2) 0.92790(2) 0.62056(2)
Zn4_3 Zn 0.75020(2) 0.89437(2) 0.57042(2)
Zn5_3 Zn 0.88138(2) 0.87313(2) 0.73145(2)
Zn6_3 Zn 0.88776(2) 0.88376(2) 0.79065(2)
Zn7_3 Zn 0.90219(2) 0.92855(2) 0.75356(2)
Zn8_3 Zn 0.93576(2) 0.87974(2) 0.75632(2)
O1_3 O 0.75911(15) 0.88302(19) 0.66169(13)
O2_3 O 0.65710(13) 0.87023(17) 0.71815(13)
O3_3 O 0.66534(13) 0.88467(17) 0.75701(14)
O4_3 O 0.84427(13) 0.87604(17) 0.74476(14)
O5_3 O 0.85089(14) 0.8931(2) 0.78330(19)
O6_3 O 0.74729(14) 0.88646(17) 0.83781(13)
O7_3 O 0.78820(17) 0.8796(2) 0.84684(15)
O8_3 O 0.80560(12) 0.90102(11) 0.64031(11)
O9_3 O 0.78346(14) 0.93710(12) 0.63655(15)
O10_3 O 0.87308(13) 0.90207(12) 0.70635(12)
O11_3 O 0.88442(13) 0.93939(13) 0.72320(14)
O15_3 O 0.80306(16) 0.87479(16) 0.59149(14)
O16_3 O 0.77931(18) 0.87793(17) 0.55638(14)
O17_3 O 0.8610(2) 0.77657(18) 0.55922(16)
O18_3 O 0.86974(18) 0.80355(17) 0.59081(16)
O19_3 O 0.80126(12) 0.86438(12) 0.40608(11)
O20_3 O 0.78118(16) 0.87745(15) 0.44188(13)
O21_3 O 0.86254(18) 0.77334(15) 0.44789(14)
O22_3 O 0.86267(13) 0.79439(12) 0.41159(11)
O23_3 O 0.95932(14) 0.90836(13) 0.7567(2)
O24_3 O 0.93654(12) 0.94336(11) 0.75219(14)
O27_3 O 0.90179(10) 0.89243(10) 0.75700(10)
O28_3 O 0.75088(11) 0.89401(11) 0.60694(11)
C1_3 C 0.7383(2) 0.8758(2) 0.66828(18)
C2_3 C 0.7317(2) 0.8767(3) 0.69622(19)
C3_3 C 0.7062(2) 0.8758(2) 0.70329(19)
H1_3 H 0.6933 0.8742 0.6907
C4_3 C 0.69974(18) 0.8773(2) 0.72865(19)
C5_3 C 0.67182(19) 0.8778(2) 0.7351(2)
C6_3 C 0.7186(2) 0.8789(2) 0.74699(19)
H2_3 H 0.7140 0.8796 0.7644
C7_3 C 0.75042(18) 0.8788(3) 0.71476(19)
H3_3 H 0.7677 0.8799 0.7098
C8_3 C 0.74427(18) 0.8794(2) 0.74034(18)
C9_3 C 0.76454(18) 0.8805(2) 0.76020(18)
C10_3 C 0.75858(19) 0.8819(2) 0.78567(18)
H4_3 H 0.7412 0.8821 0.7906
C11_3 C 0.79045(19) 0.8807(2) 0.75410(18)
H5_3 H 0.7955 0.8791 0.7368
C12_3 C 0.80893(18) 0.8830(2) 0.7727(2)
C13_3 C 0.8368(2) 0.8834(2) 0.7663(2)
C14_3 C 0.8022(2) 0.8845(2) 0.7974(2)
H6_3 H 0.8149 0.8867 0.8101
C15_3 C 0.77705(19) 0.8830(2) 0.80431(18)
C16_3 C 0.7701(2) 0.8836(2) 0.83198(19)
C17_3 C 0.80218(17) 0.92453(15) 0.64411(16)
C18_3 C 0.82238(18) 0.93866(16) 0.65846(17)
C19_3 C 0.83891(17) 0.92548(16) 0.67416(16)
H7_3 H 0.8386 0.9074 0.6748
C20_3 C 0.85589(17) 0.93927(16) 0.68901(17)
C21_3 C 0.87251(16) 0.92571(16) 0.70771(17)
C22_3 C 0.85711(18) 0.96546(17) 0.68709(18)
H8_3 H 0.8692 0.9746 0.6969
C23_3 C 0.82334(18) 0.96505(17) 0.65697(18)
H9_3 H 0.8118 0.9738 0.6462
C24_3 C 0.84080(18) 0.97850(17) 0.67096(19)
C32_3 C 0.7988(2) 0.8705(2) 0.5690(2)
C33_3 C 0.8169(2) 0.8533(2) 0.55490(19)
C34_3 C 0.8322(2) 0.8369(2) 0.56878(19)
H13_3 H 0.8332 0.8381 0.5868
C35_3 C 0.8460(2) 0.8185(2) 0.55567(18)
C36_3 C 0.8605(2) 0.7985(2) 0.56985(19)
C37_3 C 0.8451(2) 0.8179(2) 0.52905(18)
H14_3 H 0.8547 0.8054 0.5203
C38_3 C 0.8162(2) 0.85218(19) 0.52818(18)
H15_3 H 0.8055 0.8635 0.5191
C39_3 C 0.8308(2) 0.83501(19) 0.51505(17)
C40_3 C 0.8303(2) 0.83356(19) 0.48624(18)
C41_3 C 0.81577(19) 0.85022(19) 0.47165(17)
H16_3 H 0.8059 0.8629 0.4800
C42_3 C 0.81528(18) 0.84884(17) 0.44536(17)
C43_3 C 0.7978(2) 0.86515(19) 0.43021(18)
C44_3 C 0.82961(18) 0.83080(17) 0.43285(16)
H17_3 H 0.8300 0.8302 0.4148
C45_3 C 0.84361(18) 0.81338(18) 0.44754(17)
C46_3 C 0.85741(19) 0.79214(18) 0.43414(18)
C47_3 C 0.8435(2) 0.81468(19) 0.47374(18)
H18_3 H 0.8527 0.8024 0.4833
C48_3 C 0.95696(18) 0.93151(17) 0.7537(2)
C49_3 C 0.98134(18) 0.94624(18) 0.7528(2)
C55_3 C 0.98118(18) 0.9724(2) 0.7516(2)
H21_3 H 0.9654 0.9812 0.7511
O30_3 O 0.8598(3) 0.8496(3) 0.7036(3)
O31_3 O 0.8700(7) 0.8775(8) 0.8271(4)
O32_3 O 0.72082(14) 0.86707(16) 0.65467(12)
Zn9_3 Zn 0.62401(2) 0.78024(2) 0.87890(2)
Zn10_3 Zn 0.61947(2) 0.72280(3) 0.87437(3)
Zn11_3 Zn 0.62056(2) 0.75101(2) 0.92790(2)
Zn12_3 Zn 0.57042(2) 0.75020(2) 0.89437(2)
Zn13_3 Zn 0.73145(2) 0.88138(2) 0.87313(2)
Zn14_3 Zn 0.79065(2) 0.88776(2) 0.88376(2)
Zn15_3 Zn 0.75356(2) 0.90219(2) 0.92855(2)
Zn16_3 Zn 0.75632(2) 0.93576(2) 0.87974(2)
O37_3 O 0.66169(13) 0.75911(15) 0.88302(19)
O38_3 O 0.71815(13) 0.65710(13) 0.87023(17)
O39_3 O 0.75701(14) 0.66534(13) 0.88467(17)
O40_3 O 0.74476(14) 0.84427(13) 0.87604(17)
O41_3 O 0.78330(19) 0.85089(14) 0.8931(2)
O42_3 O 0.83781(13) 0.74729(14) 0.88646(17)
O43_3 O 0.84684(15) 0.78820(17) 0.8796(2)
O44_3 O 0.64031(11) 0.80560(12) 0.90102(11)
O45_3 O 0.63655(15) 0.78346(14) 0.93710(12)
O46_3 O 0.70635(12) 0.87308(13) 0.90207(12)
O47_3 O 0.72320(14) 0.88442(13) 0.93939(13)
O51_3 O 0.59149(14) 0.80306(16) 0.87479(16)
O52_3 O 0.55638(14) 0.77931(18) 0.87793(17)
O53_3 O 0.55922(16) 0.8610(2) 0.77657(18)
O54_3 O 0.59081(16) 0.86974(18) 0.80355(17)
O55_3 O 0.40608(11) 0.80126(12) 0.86438(12)
O56_3 O 0.44188(13) 0.78118(16) 0.87745(15)
O57_3 O 0.44789(14) 0.86254(18) 0.77334(15)
O58_3 O 0.41159(11) 0.86267(13) 0.79439(12)
O59_3 O 0.75700(10) 0.90179(10) 0.89243(10)
O60_3 O 0.60694(11) 0.75088(11) 0.89401(11)
C65_3 C 0.66828(18) 0.7383(2) 0.8758(2)
C66_3 C 0.69622(19) 0.7317(2) 0.8767(3)
C67_3 C 0.70329(19) 0.7062(2) 0.8758(2)
H25_3 H 0.6907 0.6933 0.8742
C68_3 C 0.72865(19) 0.69974(18) 0.8773(2)
C69_3 C 0.7351(2) 0.67182(19) 0.8778(2)
C70_3 C 0.74699(19) 0.7186(2) 0.8789(2)
H26_3 H 0.7644 0.7140 0.8796
C71_3 C 0.71476(19) 0.75042(18) 0.8788(3)
H27_3 H 0.7098 0.7677 0.8799
C72_3 C 0.74034(18) 0.74427(18) 0.8794(2)
C73_3 C 0.76020(18) 0.76454(18) 0.8805(2)
C74_3 C 0.78567(18) 0.75858(19) 0.8819(2)
H28_3 H 0.7906 0.7412 0.8821
C75_3 C 0.75410(18) 0.79045(19) 0.8807(2)
H29_3 H 0.7368 0.7955 0.8791
C76_3 C 0.7727(2) 0.80893(18) 0.8830(2)
C77_3 C 0.7663(2) 0.8368(2) 0.8834(2)
C78_3 C 0.7974(2) 0.8022(2) 0.8845(2)
H30_3 H 0.8101 0.8149 0.8867
C79_3 C 0.80431(18) 0.77705(19) 0.8830(2)
C80_3 C 0.83198(19) 0.7701(2) 0.8836(2)
C81_3 C 0.64411(16) 0.80218(17) 0.92453(15)
C82_3 C 0.65846(17) 0.82238(18) 0.93866(16)
C83_3 C 0.67416(16) 0.83891(17) 0.92548(16)
H31_3 H 0.6748 0.8386 0.9074
C84_3 C 0.68901(17) 0.85589(17) 0.93927(16)
C85_3 C 0.70771(17) 0.87251(16) 0.92571(16)
C86_3 C 0.68709(18) 0.85711(18) 0.96546(17)
H32_3 H 0.6969 0.8692 0.9746
C87_3 C 0.65697(18) 0.82334(18) 0.96505(17)
H33_3 H 0.6462 0.8118 0.9738
C88_3 C 0.67096(19) 0.84080(18) 0.97850(17)
C96_3 C 0.5690(2) 0.7988(2) 0.8705(2)
C97_3 C 0.55490(19) 0.8169(2) 0.8533(2)
C98_3 C 0.56878(19) 0.8322(2) 0.8369(2)
H37_3 H 0.5868 0.8332 0.8381
C99_3 C 0.55567(18) 0.8460(2) 0.8185(2)
C100_3 C 0.56985(19) 0.8605(2) 0.7985(2)
C101_3 C 0.52905(18) 0.8451(2) 0.8179(2)
H38_3 H 0.5203 0.8547 0.8054
C102_3 C 0.52818(18) 0.8162(2) 0.85218(19)
H39_3 H 0.5191 0.8055 0.8635
C103_3 C 0.51505(17) 0.8308(2) 0.83501(19)
C104_3 C 0.48624(18) 0.8303(2) 0.83356(19)
C105_3 C 0.47165(17) 0.81577(19) 0.85022(19)
H40_3 H 0.4800 0.8059 0.8629
C106_3 C 0.44536(17) 0.81528(18) 0.84884(17)
C107_3 C 0.43021(18) 0.7978(2) 0.86515(19)
C108_3 C 0.43285(16) 0.82961(18) 0.83080(17)
H41_3 H 0.4148 0.8300 0.8302
C109_3 C 0.44754(17) 0.84361(18) 0.81338(18)
C110_3 C 0.43414(18) 0.85741(19) 0.79214(18)
C111_3 C 0.47374(18) 0.8435(2) 0.81468(19)
H42_3 H 0.4833 0.8527 0.8024
O62_3 O 0.7036(3) 0.8598(3) 0.8496(3)
O63_3 O 0.8271(4) 0.8700(7) 0.8775(8)
O64_3 O 0.65467(12) 0.72082(14) 0.86707(16)
Zn17_3 Zn 0.71976(2) 0.62110(2) 0.87599(2)
Zn18_3 Zn 0.62110(2) 0.87599(2) 0.71976(2)
Zn19_3 Zn 0.77720(3) 0.87437(3) 0.38053(2)
Zn20_3 Zn 0.38053(2) 0.77720(3) 0.87437(3)
Zn21_3 Zn 0.77720(3) 0.62563(3) 0.88053(2)
Zn22_3 Zn 0.88053(2) 0.77720(3) 0.62563(3)
Zn23_3 Zn 0.62563(3) 0.88053(2) 0.77720(3)
Zn26_3 Zn 0.87944(2) 0.74899(2) 0.57210(2)
Zn27_3 Zn 0.57210(2) 0.87944(2) 0.74899(2)
Zn29_3 Zn 0.74980(2) 0.89437(2) 0.42958(2)
Zn30_3 Zn 0.42958(2) 0.74980(2) 0.89437(2)
Zn32_3 Zn 0.87313(2) 0.73145(2) 0.88138(2)
Zn33_3 Zn 0.38138(2) 0.87313(2) 0.76855(2)
Zn34_3 Zn 0.87313(2) 0.76855(2) 0.38138(2)
Zn35_3 Zn 0.88376(2) 0.79065(2) 0.88776(2)
Zn45_3 Zn 0.43576(2) 0.87974(2) 0.74368(2)
Zn46_3 Zn 0.87974(2) 0.74368(2) 0.43576(2)
O65_3 O 0.78185(13) 0.84290(13) 0.62977(17)
O66_3 O 0.62977(17) 0.78185(13) 0.84290(13)
O67_3 O 0.74299(14) 0.83466(13) 0.61533(17)
O68_3 O 0.61533(17) 0.74299(14) 0.83466(13)
O69_3 O 0.88646(17) 0.83781(13) 0.74729(14)
O70_3 O 0.8796(2) 0.84684(15) 0.78820(17)
O71_3 O 0.88525(13) 0.94754(12) 0.78107(14)
O72_3 O 0.78107(14) 0.88525(13) 0.94754(12)
O73_3 O 0.81300(14) 0.91878(14) 0.87288(14)
O74_3 O 0.91878(14) 0.87288(14) 0.81300(14)
O75_3 O 0.78477(17) 0.94830(15) 0.8607(2)
O76_3 O 0.94830(15) 0.8607(2) 0.78477(17)
O77_3 O 0.6390(2) 0.72343(18) 0.94078(16)
O78_3 O 0.72343(18) 0.94078(16) 0.6390(2)
O79_3 O 0.63026(18) 0.69645(17) 0.90919(16)
O80_3 O 0.69645(17) 0.90919(16) 0.63026(18)
O81_3 O 0.69874(12) 0.86438(12) 0.59392(11)
O82_3 O 0.59392(11) 0.69874(12) 0.86438(12)
O83_3 O 0.71882(16) 0.87745(15) 0.55812(13)
O84_3 O 0.55812(13) 0.71882(16) 0.87745(15)
O85_3 O 0.94789(14) 0.86254(18) 0.72666(15)
O86_3 O 0.72666(15) 0.94789(14) 0.86254(18)
O87_3 O 0.91159(11) 0.86267(13) 0.70561(12)
O88_3 O 0.70561(12) 0.91159(11) 0.86267(13)
O89_3 O 0.7567(2) 0.95932(14) 0.90836(13)
O90_3 O 0.75219(14) 0.93654(12) 0.94336(11)
O91_3 O 0.75322(19) 0.95119(14) 0.59218(13)
O92_3 O 0.59218(13) 0.75322(19) 0.95119(14)
O93_3 O 0.74845(14) 0.92865(11) 0.55622(12)
O94_3 O 0.55622(12) 0.74845(14) 0.92865(11)
O95_3 O 0.88830(15) 0.91729(14) 0.81034(15)
O96_3 O 0.81034(15) 0.88830(15) 0.91729(14)
O55_4 O 0.09392(11) 0.19874(12) 0.36438(12)
O56_4 O 0.05812(13) 0.21882(16) 0.37745(15)
O57_4 O 0.05211(14) 0.13746(18) 0.27334(15)
O58_4 O 0.08841(11) 0.13733(13) 0.29439(12)
C104_4 C 0.01376(18) 0.1697(2) 0.33356(19)
C105_4 C 0.02835(17) 0.18423(19) 0.35022(19)
H40_4 H 0.0200 0.1941 0.3629
C106_4 C 0.05464(17) 0.18472(18) 0.34884(17)
C107_4 C 0.06979(18) 0.2022(2) 0.36515(19)
C108_4 C 0.06715(16) 0.17039(18) 0.33080(17)
H41_4 H 0.0852 0.1700 0.3302
C109_4 C 0.05246(17) 0.15639(18) 0.31338(18)
C110_4 C 0.06586(18) 0.14259(19) 0.29214(18)
C111_4 C 0.02626(18) 0.1565(2) 0.31468(19)
H42_4 H 0.0167 0.1473 0.3024
Zn20_4 Zn 0.11947(2) 0.22280(3) 0.37437(3)
Zn30_4 Zn 0.07042(2) 0.25020(2) 0.39437(2)
Zn33_4 Zn 0.11862(2) 0.12687(2) 0.26855(2)
Zn45_4 Zn 0.06424(2) 0.12026(2) 0.24368(2)
Zn1_4 Zn 0.71976(2) 0.12110(2) 0.12401(2)
Zn2_4 Zn 0.77720(3) 0.12563(3) 0.11947(2)
Zn3_4 Zn 0.74899(2) 0.07210(2) 0.12056(2)
Zn4_4 Zn 0.74980(2) 0.10563(2) 0.07042(2)
Zn5_4 Zn 0.61862(2) 0.12687(2) 0.23145(2)
Zn6_4 Zn 0.61224(2) 0.11624(2) 0.29065(2)
Zn7_4 Zn 0.59781(2) 0.07145(2) 0.25356(2)
Zn8_4 Zn 0.56424(2) 0.12026(2) 0.25632(2)
O1_4 O 0.74089(15) 0.11698(19) 0.16169(13)
O2_4 O 0.84290(13) 0.12977(17) 0.21815(13)
O3_4 O 0.83466(13) 0.11533(17) 0.25701(14)
O4_4 O 0.65573(13) 0.12396(17) 0.24476(14)
O5_4 O 0.64911(14) 0.1069(2) 0.28330(19)
O6_4 O 0.75271(14) 0.11354(17) 0.33781(13)
O7_4 O 0.71180(17) 0.1204(2) 0.34684(15)
O8_4 O 0.69440(12) 0.09898(11) 0.14031(11)
O9_4 O 0.71654(14) 0.06290(12) 0.13655(15)
O10_4 O 0.62692(13) 0.09793(12) 0.20635(12)
O11_4 O 0.61558(13) 0.06061(13) 0.22320(14)
O15_4 O 0.69694(16) 0.12521(16) 0.09149(14)
O16_4 O 0.72069(18) 0.12207(17) 0.05638(14)
O17_4 O 0.6390(2) 0.22343(18) 0.05922(16)
O18_4 O 0.63026(18) 0.19645(17) 0.09081(16)
O23_4 O 0.54068(14) 0.09164(13) 0.2567(2)
O24_4 O 0.56346(12) 0.05664(11) 0.25219(14)
O25_4 O 0.45119(14) 0.09218(13) 0.25322(19)
O26_4 O 0.42865(11) 0.05622(12) 0.24845(14)
O27_4 O 0.59821(10) 0.10757(10) 0.25700(10)
O28_4 O 0.74912(11) 0.10599(11) 0.10694(11)
C1_4 C 0.7617(2) 0.1242(2) 0.16828(18)
C2_4 C 0.7683(2) 0.1233(3) 0.19622(19)
C3_4 C 0.7938(2) 0.1242(2) 0.20329(19)
H1_4 H 0.8067 0.1258 0.1907
C4_4 C 0.80026(18) 0.1227(2) 0.22865(19)
C5_4 C 0.82818(19) 0.1222(2) 0.2351(2)
C6_4 C 0.7814(2) 0.1211(2) 0.24699(19)
H2_4 H 0.7860 0.1204 0.2644
C7_4 C 0.74958(18) 0.1212(3) 0.21476(19)
H3_4 H 0.7323 0.1201 0.2098
C8_4 C 0.75573(18) 0.1206(2) 0.24034(18)
C9_4 C 0.73546(18) 0.1195(2) 0.26020(18)
C10_4 C 0.74142(19) 0.1181(2) 0.28567(18)
H4_4 H 0.7588 0.1179 0.2906
C11_4 C 0.70955(19) 0.1193(2) 0.25410(18)
H5_4 H 0.7045 0.1209 0.2368
C12_4 C 0.69107(18) 0.1170(2) 0.2727(2)
C13_4 C 0.6632(2) 0.1166(2) 0.2663(2)
C14_4 C 0.6978(2) 0.1155(2) 0.2974(2)
H6_4 H 0.6851 0.1133 0.3101
C15_4 C 0.72295(19) 0.1170(2) 0.30431(18)
C16_4 C 0.7299(2) 0.1164(2) 0.33198(19)
C17_4 C 0.69782(17) 0.07547(15) 0.14411(16)
C18_4 C 0.67762(18) 0.06134(16) 0.15846(17)
C19_4 C 0.66109(17) 0.07452(16) 0.17416(16)
H7_4 H 0.6614 0.0926 0.1748
C20_4 C 0.64411(17) 0.06073(16) 0.18901(17)
C21_4 C 0.62749(16) 0.07429(16) 0.20771(17)
C22_4 C 0.64289(18) 0.03454(17) 0.18709(18)
H8_4 H 0.6308 0.0254 0.1969
C23_4 C 0.67666(18) 0.03495(17) 0.15697(18)
H9_4 H 0.6882 0.0262 0.1462
C24_4 C 0.65920(18) 0.02150(17) 0.17096(19)
C32_4 C 0.7012(2) 0.1295(2) 0.0690(2)
C33_4 C 0.6831(2) 0.1467(2) 0.05490(19)
C34_4 C 0.6678(2) 0.1631(2) 0.06878(19)
H13_4 H 0.6668 0.1619 0.0868
C35_4 C 0.6540(2) 0.1815(2) 0.05567(18)
C36_4 C 0.6395(2) 0.2015(2) 0.06985(19)
C37_4 C 0.6549(2) 0.1821(2) 0.02905(18)
H14_4 H 0.6453 0.1946 0.0203
C38_4 C 0.6838(2) 0.14782(19) 0.02818(18)
H15_4 H 0.6945 0.1365 0.0191
C39_4 C 0.6692(2) 0.16499(19) 0.01505(17)
C48_4 C 0.54304(18) 0.06849(17) 0.2537(2)
C49_4 C 0.51866(18) 0.05376(18) 0.2528(2)
C50_4 C 0.49579(19) 0.06686(19) 0.2525(2)
H19_4 H 0.4956 0.0849 0.2534
C51_4 C 0.47357(19) 0.05368(19) 0.2510(2)
C52_4 C 0.44931(18) 0.06838(18) 0.2508(2)
C53_4 C 0.47338(19) 0.0275(2) 0.2500(3)
H20_4 H 0.4577 0.0187 0.2486
C54_4 C 0.49617(18) 0.01402(18) 0.2510(2)
C55_4 C 0.51882(18) 0.0276(2) 0.2516(2)
H21_4 H 0.5346 0.0188 0.2511
O30_4 O 0.6402(3) 0.1504(3) 0.2036(3)
O31_4 O 0.6300(7) 0.1225(8) 0.3271(4)
O32_4 O 0.77918(14) 0.13293(16) 0.15467(12)
Zn9_4 Zn 0.87599(2) 0.21976(2) 0.37890(2)
Zn10_4 Zn 0.88053(2) 0.27720(3) 0.37437(3)
Zn11_4 Zn 0.87944(2) 0.24899(2) 0.42790(2)
Zn12_4 Zn 0.92958(2) 0.24980(2) 0.39437(2)
Zn13_4 Zn 0.76855(2) 0.11862(2) 0.37313(2)
Zn14_4 Zn 0.70935(2) 0.11224(2) 0.38376(2)
Zn15_4 Zn 0.74644(2) 0.09781(2) 0.42855(2)
Zn16_4 Zn 0.74368(2) 0.06424(2) 0.37974(2)
O37_4 O 0.83831(13) 0.24089(15) 0.38302(19)
O38_4 O 0.78185(13) 0.34290(13) 0.37023(17)
O39_4 O 0.74299(14) 0.33466(13) 0.38467(17)
O40_4 O 0.75524(14) 0.15573(13) 0.37604(17)
O41_4 O 0.71670(19) 0.14911(14) 0.3931(2)
O42_4 O 0.66219(13) 0.25271(14) 0.38646(17)
O43_4 O 0.65316(15) 0.21180(17) 0.3796(2)
O44_4 O 0.85969(11) 0.19440(12) 0.40102(11)
O45_4 O 0.86345(15) 0.21654(14) 0.43710(12)
O46_4 O 0.79365(12) 0.12692(13) 0.40207(12)
O47_4 O 0.77680(14) 0.11558(13) 0.43939(13)
O48_4 O 0.78107(14) 0.11475(13) 0.55246(12)
O49_4 O 0.87288(14) 0.18700(14) 0.58122(14)
O50_4 O 0.8607(2) 0.21523(17) 0.55170(15)
O51_4 O 0.90851(14) 0.19694(16) 0.37479(16)
O52_4 O 0.94362(14) 0.22069(18) 0.37793(17)
O53_4 O 0.94078(16) 0.1390(2) 0.27657(18)
O54_4 O 0.90919(16) 0.13026(18) 0.30355(17)
O59_4 O 0.74300(10) 0.09821(10) 0.39243(10)
O60_4 O 0.89306(11) 0.24912(11) 0.39401(11)
C65_4 C 0.83172(18) 0.2617(2) 0.3758(2)
C66_4 C 0.80378(19) 0.2683(2) 0.3767(3)
C67_4 C 0.79671(19) 0.2938(2) 0.3758(2)
H25_4 H 0.8093 0.3067 0.3742
C68_4 C 0.77135(19) 0.30026(18) 0.3773(2)
C69_4 C 0.7649(2) 0.32818(19) 0.3778(2)
C70_4 C 0.75301(19) 0.2814(2) 0.3789(2)
H26_4 H 0.7356 0.2860 0.3796
C71_4 C 0.78524(19) 0.24958(18) 0.3788(3)
H27_4 H 0.7902 0.2323 0.3799
C72_4 C 0.75966(18) 0.25573(18) 0.3794(2)
C73_4 C 0.73980(18) 0.23546(18) 0.3805(2)
C74_4 C 0.71433(18) 0.24142(19) 0.3819(2)
H28_4 H 0.7094 0.2588 0.3821
C75_4 C 0.74590(18) 0.20955(19) 0.3807(2)
H29_4 H 0.7632 0.2045 0.3791
C76_4 C 0.7273(2) 0.19107(18) 0.3830(2)
C77_4 C 0.7337(2) 0.1632(2) 0.3834(2)
C78_4 C 0.7026(2) 0.1978(2) 0.3845(2)
H30_4 H 0.6899 0.1851 0.3867
C79_4 C 0.69569(18) 0.22295(19) 0.3830(2)
C80_4 C 0.66802(19) 0.2299(2) 0.3836(2)
C81_4 C 0.85589(16) 0.19782(17) 0.42453(15)
C82_4 C 0.84154(17) 0.17762(18) 0.43866(16)
C83_4 C 0.82584(16) 0.16109(17) 0.42548(16)
H31_4 H 0.8252 0.1614 0.4074
C84_4 C 0.81099(17) 0.14411(17) 0.43927(16)
C85_4 C 0.79229(17) 0.12749(16) 0.42571(16)
C86_4 C 0.81291(18) 0.14289(18) 0.46546(17)
H32_4 H 0.8031 0.1308 0.4746
C87_4 C 0.84303(18) 0.17666(18) 0.46505(17)
H33_4 H 0.8538 0.1882 0.4738
C88_4 C 0.82904(19) 0.15920(18) 0.47850(17)
C89_4 C 0.83082(19) 0.15759(18) 0.50731(17)
C90_4 C 0.81695(19) 0.13979(18) 0.52100(16)
H34_4 H 0.8059 0.1285 0.5122
C91_4 C 0.81887(19) 0.13819(19) 0.54744(18)
O61_4 O 0.81034(15) 0.11170(15) 0.58271(14)
C92_4 C 0.83470(18) 0.15457(18) 0.56039(17)
H35_4 H 0.8368 0.1530 0.5783
C93_4 C 0.8474(2) 0.1732(2) 0.54711(18)
C94_4 C 0.8620(2) 0.1928(2) 0.56120(18)
C95_4 C 0.8453(2) 0.1747(2) 0.52124(17)
H36_4 H 0.8540 0.1879 0.5125
C96_4 C 0.9310(2) 0.2012(2) 0.3705(2)
C97_4 C 0.94510(19) 0.1831(2) 0.3533(2)
C98_4 C 0.93122(19) 0.1678(2) 0.3369(2)
H37_4 H 0.9132 0.1668 0.3381
C99_4 C 0.94433(18) 0.1540(2) 0.3185(2)
C100_4 C 0.93015(19) 0.1395(2) 0.2985(2)
C101_4 C 0.97095(18) 0.1549(2) 0.3179(2)
H38_4 H 0.9797 0.1453 0.3054
C102_4 C 0.97182(18) 0.1838(2) 0.35218(19)
H39_4 H 0.9809 0.1945 0.3635
C103_4 C 0.98495(17) 0.1692(2) 0.33501(19)
O62_4 O 0.7964(3) 0.1402(3) 0.3496(3)
O63_4 O 0.6729(4) 0.1300(7) 0.3775(8)
O64_4 O 0.84533(12) 0.27918(14) 0.36707(16)
C112_4 C 0.8022(2) 0.11995(19) 0.56176(19)
Zn17_4 Zn 0.78024(2) 0.37890(2) 0.37599(2)
Zn18_4 Zn 0.87890(2) 0.12401(2) 0.21976(2)
Zn21_4 Zn 0.72280(3) 0.37437(3) 0.38053(2)
Zn22_4 Zn 0.61947(2) 0.22280(3) 0.12563(3)
Zn23_4 Zn 0.87437(3) 0.11947(2) 0.27720(3)
Zn25_4 Zn 0.42790(2) 0.12056(2) 0.25101(2)
Zn26_4 Zn 0.62056(2) 0.25101(2) 0.07210(2)
Zn27_4 Zn 0.92790(2) 0.12056(2) 0.24899(2)
Zn31_4 Zn 0.39437(2) 0.07042(2) 0.25020(2)
Zn32_4 Zn 0.62687(2) 0.26855(2) 0.38138(2)
Zn35_4 Zn 0.61624(2) 0.20935(2) 0.38776(2)
Zn39_4 Zn 0.88376(2) 0.20935(2) 0.61224(2)
Zn41_4 Zn 0.75356(2) 0.09781(2) 0.57145(2)
Zn44_4 Zn 0.87974(2) 0.24368(2) 0.56424(2)
O65_4 O 0.71815(13) 0.15710(13) 0.12977(17)
O66_4 O 0.87023(17) 0.21815(13) 0.34290(13)
O67_4 O 0.75701(14) 0.16534(13) 0.11533(17)
O68_4 O 0.88467(17) 0.25701(14) 0.33466(13)
O69_4 O 0.61354(17) 0.16219(13) 0.24729(14)
O70_4 O 0.6204(2) 0.15316(15) 0.28820(17)
O71_4 O 0.61475(13) 0.05246(12) 0.28107(14)
O72_4 O 0.71893(14) 0.11475(13) 0.44754(12)
O73_4 O 0.68700(14) 0.08122(14) 0.37288(14)
O74_4 O 0.58122(14) 0.12712(14) 0.31300(14)
O75_4 O 0.71523(17) 0.05170(15) 0.3607(2)
O76_4 O 0.55170(15) 0.1393(2) 0.28477(17)
O77_4 O 0.8610(2) 0.27657(18) 0.44078(16)
O78_4 O 0.77657(18) 0.05922(16) 0.1390(2)
O79_4 O 0.86974(18) 0.30355(17) 0.40919(16)
O80_4 O 0.80355(17) 0.09081(16) 0.13026(18)
O81_4 O 0.80126(12) 0.13562(12) 0.09392(11)
O82_4 O 0.90608(11) 0.30126(12) 0.36438(12)
O83_4 O 0.78118(16) 0.12255(15) 0.05812(13)
O84_4 O 0.94188(13) 0.28118(16) 0.37745(15)
O85_4 O 0.55211(14) 0.13746(18) 0.22666(15)
O86_4 O 0.77334(15) 0.05211(14) 0.36254(18)
O87_4 O 0.58841(11) 0.13733(13) 0.20561(12)
O88_4 O 0.79439(12) 0.08841(11) 0.36267(13)
O89_4 O 0.7433(2) 0.04068(14) 0.40836(13)
O90_4 O 0.74781(14) 0.06346(12) 0.44336(11)
O91_4 O 0.74678(19) 0.04881(14) 0.09218(13)
O92_4 O 0.90782(13) 0.24678(19) 0.45119(14)
O93_4 O 0.75155(14) 0.07135(11) 0.05622(12)
O94_4 O 0.94378(12) 0.25155(14) 0.42865(11)
O95_4 O 0.61170(15) 0.08271(14) 0.31034(15)
O96_4 O 0.68966(15) 0.11170(15) 0.41729(14)
O19_4 O 0.69874(12) 0.13562(12) 0.90608(11)
O20_4 O 0.71882(16) 0.12255(15) 0.94188(13)
O21_4 O 0.63746(18) 0.22666(15) 0.94789(14)
O22_4 O 0.63733(13) 0.20561(12) 0.91159(11)
C40_4 C 0.6697(2) 0.16644(19) 0.98624(18)
C41_4 C 0.68423(19) 0.14978(19) 0.97165(17)
H16_4 H 0.6941 0.1371 0.9800
C42_4 C 0.68472(18) 0.15116(17) 0.94536(17)
C43_4 C 0.7022(2) 0.13485(19) 0.93021(18)
C44_4 C 0.67039(18) 0.16920(17) 0.93285(16)
H17_4 H 0.6700 0.1698 0.9148
C45_4 C 0.65639(18) 0.18662(18) 0.94754(17)
C46_4 C 0.64259(19) 0.20786(18) 0.93414(18)
C47_4 C 0.6565(2) 0.18532(19) 0.97374(18)
H18_4 H 0.6473 0.1976 0.9833
Zn19_4 Zn 0.72280(3) 0.12563(3) 0.88053(2)
Zn29_4 Zn 0.75020(2) 0.10563(2) 0.92958(2)
Zn34_4 Zn 0.62687(2) 0.23145(2) 0.88138(2)
Zn46_4 Zn 0.62026(2) 0.25632(2) 0.93576(2)
O12_4 O 0.61475(13) 0.94754(12) 0.21893(14)
O13_4 O 0.68700(14) 0.91878(14) 0.12712(14)
O14_4 O 0.71523(17) 0.94830(15) 0.1393(2)
C25_4 C 0.65759(18) 0.99269(17) 0.16918(19)
C26_4 C 0.63979(18) 0.97900(16) 0.18305(19)
H10_4 H 0.6285 0.9878 0.1941
C27_4 C 0.63819(19) 0.95256(18) 0.18113(19)
O29_4 O 0.61170(15) 0.91729(14) 0.18966(15)
C28_4 C 0.65457(18) 0.93961(17) 0.16530(18)
H11_4 H 0.6530 0.9217 0.1632
C29_4 C 0.6732(2) 0.95289(18) 0.1526(2)
C30_4 C 0.6928(2) 0.93880(18) 0.1380(2)
C31_4 C 0.6747(2) 0.97876(17) 0.1547(2)
H12_4 H 0.6879 0.9875 0.1460
C56_4 C 0.61995(19) 0.93824(19) 0.1978(2)
O33_4 O 0.54068(14) 0.90836(13) 0.2433(2)
O34_4 O 0.56346(12) 0.94336(11) 0.24781(14)
O35_4 O 0.45119(14) 0.90782(13) 0.24678(19)
O36_4 O 0.42865(11) 0.94378(12) 0.25155(14)
C57_4 C 0.54304(18) 0.93151(17) 0.2463(2)
C58_4 C 0.51866(18) 0.94624(18) 0.2472(2)
C59_4 C 0.49579(19) 0.93314(19) 0.2475(2)
H22_4 H 0.4956 0.9151 0.2466
C60_4 C 0.47357(19) 0.94632(19) 0.2490(2)
C61_4 C 0.44931(18) 0.93162(18) 0.2492(2)
C62_4 C 0.47338(19) 0.9725(2) 0.2500(3)
H23_4 H 0.4577 0.9813 0.2514
C63_4 C 0.49617(18) 0.98598(18) 0.2490(2)
C64_4 C 0.51882(18) 0.9724(2) 0.2484(2)
H24_4 H 0.5346 0.9812 0.2489
Zn24_4 Zn 0.42790(2) 0.87944(2) 0.24899(2)
Zn28_4 Zn 0.39437(2) 0.92958(2) 0.24980(2)
Zn36_4 Zn 0.61224(2) 0.88376(2) 0.20935(2)
Zn40_4 Zn 0.59781(2) 0.92855(2) 0.24644(2)
Zn42_4 Zn 0.56424(2) 0.87974(2) 0.24368(2)
Zn43_4 Zn 0.74368(2) 0.93576(2) 0.12026(2)
C48_5 C 0.7463(2) 0.04304(18) 0.43151(17)
C49_5 C 0.7472(2) 0.01866(18) 0.44624(18)
C55_5 C 0.7484(2) 0.01882(18) 0.4724(2)
H21_5 H 0.7489 0.0346 0.4812
O33_5 O 0.7567(2) 0.04068(14) 0.59164(13)
O34_5 O 0.75219(14) 0.06346(12) 0.55664(11)
C57_5 C 0.7537(2) 0.04304(18) 0.56849(17)
C58_5 C 0.7528(2) 0.01866(18) 0.55376(18)
C64_5 C 0.7516(2) 0.01882(18) 0.5276(2)
H24_5 H 0.7511 0.0346 0.5188
Zn9_5 Zn 0.62110(2) 0.37599(2) 0.28024(2)
Zn10_5 Zn 0.62563(3) 0.38053(2) 0.22280(3)
Zn15_5 Zn 0.57145(2) 0.24644(2) 0.40219(2)
Zn16_5 Zn 0.62026(2) 0.24368(2) 0.43576(2)
O37_5 O 0.61698(19) 0.33831(13) 0.25911(15)
O38_5 O 0.62977(17) 0.28185(13) 0.15710(13)
O39_5 O 0.61533(17) 0.24299(14) 0.16534(13)
O40_5 O 0.62396(17) 0.25524(14) 0.34427(13)
O41_5 O 0.6069(2) 0.21670(19) 0.35089(14)
O44_5 O 0.59898(11) 0.35969(11) 0.30560(12)
O45_5 O 0.56290(12) 0.36345(15) 0.28346(14)
O46_5 O 0.59793(12) 0.29365(12) 0.37308(13)
O47_5 O 0.56061(13) 0.27680(14) 0.38442(13)
O48_5 O 0.44754(12) 0.28107(14) 0.38525(13)
O49_5 O 0.41878(14) 0.37288(14) 0.31300(14)
O50_5 O 0.44830(15) 0.3607(2) 0.28477(17)
O51_5 O 0.62521(16) 0.40851(14) 0.30306(16)
O52_5 O 0.62207(17) 0.44362(14) 0.27931(18)
O53_5 O 0.72343(18) 0.44078(16) 0.3610(2)
O54_5 O 0.69645(17) 0.40919(16) 0.36974(18)
O55_5 O 0.63562(12) 0.59392(11) 0.30126(12)
O56_5 O 0.62255(15) 0.55812(13) 0.28118(16)
O57_5 O 0.72666(15) 0.55211(14) 0.36254(18)
O58_5 O 0.70561(12) 0.58841(11) 0.36267(13)
O59_5 O 0.60757(10) 0.24300(10) 0.40179(10)
O60_5 O 0.60599(11) 0.39306(11) 0.25088(11)
C65_5 C 0.6242(2) 0.33172(18) 0.2383(2)
C66_5 C 0.6233(3) 0.30378(19) 0.2317(2)
C67_5 C 0.6242(2) 0.29671(19) 0.2062(2)
H25_5 H 0.6258 0.3093 0.1933
C68_5 C 0.6227(2) 0.27135(19) 0.19974(18)
C69_5 C 0.6222(2) 0.2649(2) 0.17182(19)
C70_5 C 0.6211(2) 0.25301(19) 0.2186(2)
H26_5 H 0.6204 0.2356 0.2140
C71_5 C 0.6212(3) 0.28524(19) 0.25042(18)
H27_5 H 0.6201 0.2902 0.2677
C72_5 C 0.6206(2) 0.25966(18) 0.24427(18)
C73_5 C 0.6195(2) 0.23980(18) 0.26454(18)
C74_5 C 0.6181(2) 0.21433(18) 0.25858(19)
H28_5 H 0.6179 0.2094 0.2412
C75_5 C 0.6193(2) 0.24590(18) 0.29045(19)
H29_5 H 0.6209 0.2632 0.2955
C76_5 C 0.6170(2) 0.2273(2) 0.30893(18)
C77_5 C 0.6166(2) 0.2337(2) 0.3368(2)
C78_5 C 0.6155(2) 0.2026(2) 0.3022(2)
H30_5 H 0.6133 0.1899 0.3149
C79_5 C 0.6170(2) 0.19569(18) 0.27705(19)
C80_5 C 0.6164(2) 0.16802(19) 0.2701(2)
C81_5 C 0.57547(15) 0.35589(16) 0.30218(17)
C82_5 C 0.56134(16) 0.34154(17) 0.32238(18)
C83_5 C 0.57452(16) 0.32584(16) 0.33891(17)
H31_5 H 0.5926 0.3252 0.3386
C84_5 C 0.56073(16) 0.31099(17) 0.35589(17)
C85_5 C 0.57429(16) 0.29229(17) 0.37251(16)
C86_5 C 0.53454(17) 0.31291(18) 0.35711(18)
H32_5 H 0.5254 0.3031 0.3692
C87_5 C 0.53495(17) 0.34303(18) 0.32334(18)
H33_5 H 0.5262 0.3538 0.3118
C88_5 C 0.52150(17) 0.32904(19) 0.34080(18)
C89_5 C 0.49269(17) 0.33082(19) 0.34241(18)
C90_5 C 0.47900(16) 0.31695(19) 0.36021(18)
H34_5 H 0.4878 0.3059 0.3715
C91_5 C 0.45256(18) 0.31887(19) 0.36181(19)
O61_5 O 0.41729(14) 0.31034(15) 0.38830(15)
C92_5 C 0.43961(17) 0.33470(18) 0.34543(18)
H35_5 H 0.4217 0.3368 0.3470
C93_5 C 0.45289(18) 0.3474(2) 0.3268(2)
C94_5 C 0.43880(18) 0.3620(2) 0.3072(2)
C95_5 C 0.47876(17) 0.3453(2) 0.3253(2)
H36_5 H 0.4875 0.3540 0.3121
C96_5 C 0.6295(2) 0.4310(2) 0.2988(2)
C97_5 C 0.6467(2) 0.44510(19) 0.3169(2)
C98_5 C 0.6631(2) 0.43122(19) 0.3322(2)
H37_5 H 0.6619 0.4132 0.3332
C99_5 C 0.6815(2) 0.44433(18) 0.3460(2)
C100_5 C 0.7015(2) 0.43015(19) 0.3605(2)
C101_5 C 0.6821(2) 0.47095(18) 0.3451(2)
H38_5 H 0.6946 0.4797 0.3547
C102_5 C 0.64782(19) 0.47182(18) 0.3162(2)
H39_5 H 0.6365 0.4809 0.3055
C103_5 C 0.66499(19) 0.48495(17) 0.3308(2)
C104_5 C 0.66644(19) 0.51376(18) 0.3303(2)
C105_5 C 0.64978(19) 0.52835(17) 0.31577(19)
H40_5 H 0.6371 0.5200 0.3059
C106_5 C 0.65116(17) 0.55464(17) 0.31528(18)
C107_5 C 0.63485(19) 0.56979(18) 0.2978(2)
C108_5 C 0.66920(17) 0.56715(16) 0.32961(18)
H41_5 H 0.6698 0.5852 0.3300
C109_5 C 0.68662(18) 0.55246(17) 0.34361(18)
C110_5 C 0.70786(18) 0.56586(18) 0.35741(19)
C111_5 C 0.68532(19) 0.52626(18) 0.3435(2)
H42_5 H 0.6976 0.5167 0.3527
O62_5 O 0.6504(3) 0.2964(3) 0.3598(3)
O63_5 O 0.6225(8) 0.1729(4) 0.3700(7)
O64_5 O 0.63293(16) 0.34533(12) 0.22082(14)
C112_5 C 0.43824(19) 0.3022(2) 0.38005(19)
Zn17_5 Zn 0.62401(2) 0.28024(2) 0.12110(2)
Zn20_5 Zn 0.62563(3) 0.61947(2) 0.27720(3)
Zn27_5 Zn 0.75101(2) 0.42790(2) 0.37944(2)
Zn33_5 Zn 0.73145(2) 0.61862(2) 0.37313(2)
Zn41_5 Zn 0.42855(2) 0.25356(2) 0.40219(2)
Zn45_5 Zn 0.75632(2) 0.56424(2) 0.37974(2)
O66_5 O 0.65710(13) 0.37023(17) 0.28185(13)
O68_5 O 0.66534(13) 0.38467(17) 0.24299(14)
O72_5 O 0.55246(12) 0.21893(14) 0.38525(13)
O73_5 O 0.62712(14) 0.18700(14) 0.41878(14)
O75_5 O 0.6393(2) 0.21523(17) 0.44830(15)
O77_5 O 0.55922(16) 0.3610(2) 0.22343(18)
O79_5 O 0.59081(16) 0.36974(18) 0.19645(17)
O82_5 O 0.63562(12) 0.40608(11) 0.19874(12)
O84_5 O 0.62255(15) 0.44188(13) 0.21882(16)
O86_5 O 0.63746(18) 0.27334(15) 0.44789(14)
O88_5 O 0.63733(13) 0.29439(12) 0.41159(11)
O89_5 O 0.59164(13) 0.2433(2) 0.45932(14)
O90_5 O 0.55664(11) 0.24781(14) 0.43654(12)
O96_5 O 0.58271(14) 0.18966(15) 0.38830(15)
O25_5 O 0.74678(19) 0.95119(14) 0.40782(13)
O26_5 O 0.75155(14) 0.92865(11) 0.44378(12)
C50_5 C 0.7475(2) 0.99579(19) 0.43314(19)
H19_5 H 0.7466 0.9956 0.4151
C51_5 C 0.7490(2) 0.97357(19) 0.44632(19)
C52_5 C 0.7492(2) 0.94931(18) 0.43162(18)
C53_5 C 0.7500(3) 0.97338(19) 0.4725(2)
H20_5 H 0.7514 0.9577 0.4813
C54_5 C 0.7490(2) 0.99617(18) 0.48598(18)
C59_5 C 0.7525(2) 0.99579(19) 0.56686(19)
H22_5 H 0.7534 0.9956 0.5849
C60_5 C 0.7510(2) 0.97357(19) 0.55368(19)
C61_5 C 0.7508(2) 0.94931(18) 0.56838(18)
C62_5 C 0.7500(3) 0.97338(19) 0.5275(2)
H23_5 H 0.7486 0.9577 0.5187
C63_5 C 0.7510(2) 0.99617(18) 0.51402(18)
Zn25_5 Zn 0.74899(2) 0.92790(2) 0.37944(2)
O25_6 O 0.24678(19) 0.54881(14) 0.59218(13)
O26_6 O 0.25155(14) 0.57135(11) 0.55622(12)
C48_6 C 0.2463(2) 0.45696(18) 0.56849(17)
C49_6 C 0.2472(2) 0.48134(18) 0.55376(18)
C50_6 C 0.2475(2) 0.50421(19) 0.56686(19)
H19_6 H 0.2466 0.5044 0.5849
C51_6 C 0.2490(2) 0.52643(19) 0.55368(19)
C52_6 C 0.2492(2) 0.55069(18) 0.56838(18)
C53_6 C 0.2500(3) 0.52662(19) 0.5275(2)
H20_6 H 0.2514 0.5423 0.5187
C54_6 C 0.2490(2) 0.50383(18) 0.51402(18)
C55_6 C 0.2484(2) 0.48118(18) 0.5276(2)
H21_6 H 0.2489 0.4654 0.5188
O33_6 O 0.2567(2) 0.45932(14) 0.40836(13)
O34_6 O 0.25219(14) 0.43654(12) 0.44336(11)
C57_6 C 0.2537(2) 0.45696(18) 0.43151(17)
C58_6 C 0.2528(2) 0.48134(18) 0.44624(18)
C59_6 C 0.2525(2) 0.50421(19) 0.43314(19)
H22_6 H 0.2534 0.5044 0.4151
C60_6 C 0.2510(2) 0.52643(19) 0.44632(19)
C61_6 C 0.2508(2) 0.55069(18) 0.43162(18)
C62_6 C 0.2500(3) 0.52662(19) 0.4725(2)
H23_6 H 0.2486 0.5423 0.4813
C63_6 C 0.2510(2) 0.50383(18) 0.48598(18)
C64_6 C 0.2516(2) 0.48118(18) 0.4724(2)
H24_6 H 0.2511 0.4654 0.4812
Zn9_6 Zn 0.12110(2) 0.12401(2) 0.71976(2)
Zn10_6 Zn 0.12563(3) 0.11947(2) 0.77720(3)
Zn15_6 Zn 0.07145(2) 0.25356(2) 0.59781(2)
Zn16_6 Zn 0.12026(2) 0.25632(2) 0.56424(2)
O37_6 O 0.11698(19) 0.16169(13) 0.74089(15)
O38_6 O 0.12977(17) 0.21815(13) 0.84290(13)
O39_6 O 0.11533(17) 0.25701(14) 0.83466(13)
O40_6 O 0.12396(17) 0.24476(14) 0.65573(13)
O41_6 O 0.1069(2) 0.28330(19) 0.64911(14)
O44_6 O 0.09898(11) 0.14031(11) 0.69440(12)
O45_6 O 0.06290(12) 0.13655(15) 0.71654(14)
O46_6 O 0.09793(12) 0.20635(12) 0.62692(13)
O47_6 O 0.06061(13) 0.22320(14) 0.61558(13)
O51_6 O 0.12521(16) 0.09149(14) 0.69694(16)
O52_6 O 0.12207(17) 0.05638(14) 0.72069(18)
O53_6 O 0.22343(18) 0.05922(16) 0.6390(2)
O54_6 O 0.19645(17) 0.09081(16) 0.63026(18)
O59_6 O 0.10757(10) 0.25700(10) 0.59821(10)
O60_6 O 0.10599(11) 0.10694(11) 0.74912(11)
C65_6 C 0.1242(2) 0.16828(18) 0.7617(2)
C66_6 C 0.1233(3) 0.19622(19) 0.7683(2)
C67_6 C 0.1242(2) 0.20329(19) 0.7938(2)
H25_6 H 0.1258 0.1907 0.8067
C68_6 C 0.1227(2) 0.22865(19) 0.80026(18)
C69_6 C 0.1222(2) 0.2351(2) 0.82818(19)
C70_6 C 0.1211(2) 0.24699(19) 0.7814(2)
H26_6 H 0.1204 0.2644 0.7860
C71_6 C 0.1212(3) 0.21476(19) 0.74958(18)
H27_6 H 0.1201 0.2098 0.7323
C72_6 C 0.1206(2) 0.24034(18) 0.75573(18)
C73_6 C 0.1195(2) 0.26020(18) 0.73546(18)
C74_6 C 0.1181(2) 0.28567(18) 0.74142(19)
H28_6 H 0.1179 0.2906 0.7588
C75_6 C 0.1193(2) 0.25410(18) 0.70955(19)
H29_6 H 0.1209 0.2368 0.7045
C76_6 C 0.1170(2) 0.2727(2) 0.69107(18)
C77_6 C 0.1166(2) 0.2663(2) 0.6632(2)
C78_6 C 0.1155(2) 0.2974(2) 0.6978(2)
H30_6 H 0.1133 0.3101 0.6851
C79_6 C 0.1170(2) 0.30431(18) 0.72295(19)
C80_6 C 0.1164(2) 0.33198(19) 0.7299(2)
C81_6 C 0.07547(15) 0.14411(16) 0.69782(17)
C82_6 C 0.06134(16) 0.15846(17) 0.67762(18)
C83_6 C 0.07452(16) 0.17416(16) 0.66109(17)
H31_6 H 0.0926 0.1748 0.6614
C84_6 C 0.06073(16) 0.18901(17) 0.64411(17)
C85_6 C 0.07429(16) 0.20771(17) 0.62749(16)
C86_6 C 0.03454(17) 0.18709(18) 0.64289(18)
H32_6 H 0.0254 0.1969 0.6308
C87_6 C 0.03495(17) 0.15697(18) 0.67666(18)
H33_6 H 0.0262 0.1462 0.6882
C88_6 C 0.02150(17) 0.17096(19) 0.65920(18)
C96_6 C 0.1295(2) 0.0690(2) 0.7012(2)
C97_6 C 0.1467(2) 0.05490(19) 0.6831(2)
C98_6 C 0.1631(2) 0.06878(19) 0.6678(2)
H37_6 H 0.1619 0.0868 0.6668
C99_6 C 0.1815(2) 0.05567(18) 0.6540(2)
C100_6 C 0.2015(2) 0.06985(19) 0.6395(2)
C101_6 C 0.1821(2) 0.02905(18) 0.6549(2)
H38_6 H 0.1946 0.0203 0.6453
C102_6 C 0.14782(19) 0.02818(18) 0.6838(2)
H39_6 H 0.1365 0.0191 0.6945
C103_6 C 0.16499(19) 0.01505(17) 0.6692(2)
O62_6 O 0.1504(3) 0.2036(3) 0.6402(3)
O63_6 O 0.1225(8) 0.3271(4) 0.6300(7)
O64_6 O 0.13293(16) 0.15467(12) 0.77918(14)
Zn17_6 Zn 0.12401(2) 0.21976(2) 0.87890(2)
Zn25_6 Zn 0.24899(2) 0.57210(2) 0.62056(2)
Zn27_6 Zn 0.25101(2) 0.07210(2) 0.62056(2)
O66_6 O 0.15710(13) 0.12977(17) 0.71815(13)
O68_6 O 0.16534(13) 0.11533(17) 0.75701(14)
O72_6 O 0.05246(12) 0.28107(14) 0.61475(13)
O73_6 O 0.12712(14) 0.31300(14) 0.58122(14)
O75_6 O 0.1393(2) 0.28477(17) 0.55170(15)
O77_6 O 0.05922(16) 0.1390(2) 0.77657(18)
O79_6 O 0.09081(16) 0.13026(18) 0.80355(17)
O82_6 O 0.13562(12) 0.09392(11) 0.80126(12)
O84_6 O 0.12255(15) 0.05812(13) 0.78118(16)
O86_6 O 0.13746(18) 0.22666(15) 0.55211(14)
O88_6 O 0.13733(13) 0.20561(12) 0.58841(11)
O89_6 O 0.09164(13) 0.2567(2) 0.54068(14)
O90_6 O 0.05664(11) 0.25219(14) 0.56346(12)
O96_6 O 0.08271(14) 0.31034(15) 0.61170(15)
O55_6 O 0.13562(12) 0.90608(11) 0.69874(12)
O56_6 O 0.12255(15) 0.94188(13) 0.71882(16)
O57_6 O 0.22666(15) 0.94789(14) 0.63746(18)
O58_6 O 0.20561(12) 0.91159(11) 0.63733(13)
C104_6 C 0.16644(19) 0.98624(18) 0.6697(2)
C105_6 C 0.14978(19) 0.97165(17) 0.68423(19)
H40_6 H 0.1371 0.9800 0.6941
C106_6 C 0.15116(17) 0.94536(17) 0.68472(18)
C107_6 C 0.13485(19) 0.93021(18) 0.7022(2)
C108_6 C 0.16920(17) 0.93285(16) 0.67039(18)
H41_6 H 0.1698 0.9148 0.6700
C109_6 C 0.18662(18) 0.94754(17) 0.65639(18)
C110_6 C 0.20786(18) 0.93414(18) 0.64259(19)
C111_6 C 0.18532(19) 0.97374(18) 0.6565(2)
H42_6 H 0.1976 0.9833 0.6473
Zn20_6 Zn 0.12563(3) 0.88053(2) 0.72280(3)
Zn33_6 Zn 0.23145(2) 0.88138(2) 0.62687(2)
Zn45_6 Zn 0.25632(2) 0.93576(2) 0.62026(2)
O48_6 O 0.94754(12) 0.21893(14) 0.61475(13)
O49_6 O 0.91878(14) 0.12712(14) 0.68700(14)
O50_6 O 0.94830(15) 0.1393(2) 0.71523(17)
C89_6 C 0.99269(17) 0.16918(19) 0.65759(18)
C90_6 C 0.97900(16) 0.18305(19) 0.63979(18)
H34_6 H 0.9878 0.1941 0.6285
C91_6 C 0.95256(18) 0.18113(19) 0.63819(19)
O61_6 O 0.91729(14) 0.18966(15) 0.61170(15)
C92_6 C 0.93961(17) 0.16530(18) 0.65457(18)
H35_6 H 0.9217 0.1632 0.6530
C93_6 C 0.95289(18) 0.1526(2) 0.6732(2)
C94_6 C 0.93880(18) 0.1380(2) 0.6928(2)
C95_6 C 0.97876(17) 0.1547(2) 0.6747(2)
H36_6 H 0.9875 0.1460 0.6879
C112_6 C 0.93824(19) 0.1978(2) 0.61995(19)
Zn41_6 Zn 0.92855(2) 0.24644(2) 0.59781(2)
O48_7 O 0.05246(12) 0.71893(14) 0.88525(13)
O49_7 O 0.08122(14) 0.62712(14) 0.81300(14)
O50_7 O 0.05170(15) 0.6393(2) 0.78477(17)
C89_7 C 0.00731(17) 0.66918(19) 0.84241(18)
C90_7 C 0.02100(16) 0.68305(19) 0.86021(18)
H34_7 H 0.0122 0.6941 0.8715
C91_7 C 0.04744(18) 0.68113(19) 0.86181(19)
O61_7 O 0.08271(14) 0.68966(15) 0.88830(15)
C92_7 C 0.06039(17) 0.66530(18) 0.84543(18)
H35_7 H 0.0783 0.6632 0.8470
C93_7 C 0.04711(18) 0.6526(2) 0.8268(2)
C94_7 C 0.06120(18) 0.6380(2) 0.8072(2)
C95_7 C 0.02124(17) 0.6547(2) 0.8253(2)
H36_7 H 0.0125 0.6460 0.8121
C112_7 C 0.06176(19) 0.6978(2) 0.88005(19)
Zn41_7 Zn 0.07145(2) 0.74644(2) 0.90219(2)
C59_7 C 0.7475(2) 0.00421(19) 0.06686(19)
H22_7 H 0.7466 0.0044 0.0849
C60_7 C 0.7490(2) 0.02643(19) 0.05368(19)
C61_7 C 0.7492(2) 0.05069(18) 0.06838(18)
C62_7 C 0.7500(3) 0.02662(19) 0.0275(2)
H23_7 H 0.7514 0.0423 0.0187
C63_7 C 0.7490(2) 0.00383(18) 0.01402(18)
O25_7 O 0.75322(19) 0.04881(14) 0.90782(13)
O26_7 O 0.74845(14) 0.07135(11) 0.94378(12)
C50_7 C 0.7525(2) 0.00421(19) 0.93314(19)
H19_7 H 0.7534 0.0044 0.9151
C51_7 C 0.7510(2) 0.02643(19) 0.94632(19)
C52_7 C 0.7508(2) 0.05069(18) 0.93162(18)
C53_7 C 0.7500(3) 0.02662(19) 0.9725(2)
H20_7 H 0.7486 0.0423 0.9813
C54_7 C 0.7510(2) 0.00383(18) 0.98598(18)
Zn25_7 Zn 0.75101(2) 0.07210(2) 0.87944(2)
O33_7 O 0.7433(2) 0.95932(14) 0.09164(13)
O34_7 O 0.74781(14) 0.93654(12) 0.05664(11)
C57_7 C 0.7463(2) 0.95696(18) 0.06849(17)
C58_7 C 0.7472(2) 0.98134(18) 0.05376(18)
C64_7 C 0.7484(2) 0.98118(18) 0.0276(2)
H24_7 H 0.7489 0.9654 0.0188
C48_7 C 0.7537(2) 0.95696(18) 0.93151(17)
C49_7 C 0.7528(2) 0.98134(18) 0.94624(18)
C55_7 C 0.7516(2) 0.98118(18) 0.9724(2)
H21_7 H 0.7511 0.9654 0.9812
Zn9_7 Zn 0.87890(2) 0.62401(2) 0.78024(2)
Zn10_7 Zn 0.87437(3) 0.61947(2) 0.72280(3)
Zn15_7 Zn 0.92855(2) 0.75356(2) 0.90219(2)
Zn16_7 Zn 0.87974(2) 0.75632(2) 0.93576(2)
O37_7 O 0.88302(19) 0.66169(13) 0.75911(15)
O38_7 O 0.87023(17) 0.71815(13) 0.65710(13)
O39_7 O 0.88467(17) 0.75701(14) 0.66534(13)
O40_7 O 0.87604(17) 0.74476(14) 0.84427(13)
O41_7 O 0.8931(2) 0.78330(19) 0.85089(14)
O44_7 O 0.90102(11) 0.64031(11) 0.80560(12)
O45_7 O 0.93710(12) 0.63655(15) 0.78346(14)
O46_7 O 0.90207(12) 0.70635(12) 0.87308(13)
O47_7 O 0.93939(13) 0.72320(14) 0.88442(13)
O51_7 O 0.87479(16) 0.59149(14) 0.80306(16)
O52_7 O 0.87793(17) 0.55638(14) 0.77931(18)
O53_7 O 0.77657(18) 0.55922(16) 0.8610(2)
O54_7 O 0.80355(17) 0.59081(16) 0.86974(18)
O55_7 O 0.86438(12) 0.40608(11) 0.80126(12)
O56_7 O 0.87745(15) 0.44188(13) 0.78118(16)
O57_7 O 0.77334(15) 0.44789(14) 0.86254(18)
O58_7 O 0.79439(12) 0.41159(11) 0.86267(13)
O59_7 O 0.89243(10) 0.75700(10) 0.90179(10)
O60_7 O 0.89401(11) 0.60694(11) 0.75088(11)
C65_7 C 0.8758(2) 0.66828(18) 0.7383(2)
C66_7 C 0.8767(3) 0.69622(19) 0.7317(2)
C67_7 C 0.8758(2) 0.70329(19) 0.7062(2)
H25_7 H 0.8742 0.6907 0.6933
C68_7 C 0.8773(2) 0.72865(19) 0.69974(18)
C69_7 C 0.8778(2) 0.7351(2) 0.67182(19)
C70_7 C 0.8789(2) 0.74699(19) 0.7186(2)
H26_7 H 0.8796 0.7644 0.7140
C71_7 C 0.8788(3) 0.71476(19) 0.75042(18)
H27_7 H 0.8799 0.7098 0.7677
C72_7 C 0.8794(2) 0.74034(18) 0.74427(18)
C73_7 C 0.8805(2) 0.76020(18) 0.76454(18)
C74_7 C 0.8819(2) 0.78567(18) 0.75858(19)
H28_7 H 0.8821 0.7906 0.7412
C75_7 C 0.8807(2) 0.75410(18) 0.79045(19)
H29_7 H 0.8791 0.7368 0.7955
C76_7 C 0.8830(2) 0.7727(2) 0.80893(18)
C77_7 C 0.8834(2) 0.7663(2) 0.8368(2)
C78_7 C 0.8845(2) 0.7974(2) 0.8022(2)
H30_7 H 0.8867 0.8101 0.8149
C79_7 C 0.8830(2) 0.80431(18) 0.77705(19)
C80_7 C 0.8836(2) 0.83198(19) 0.7701(2)
C81_7 C 0.92453(15) 0.64411(16) 0.80218(17)
C82_7 C 0.93866(16) 0.65846(17) 0.82238(18)
C83_7 C 0.92548(16) 0.67416(16) 0.83891(17)
H31_7 H 0.9074 0.6748 0.8386
C84_7 C 0.93927(16) 0.68901(17) 0.85589(17)
C85_7 C 0.92571(16) 0.70771(17) 0.87251(16)
C86_7 C 0.96546(17) 0.68709(18) 0.85711(18)
H32_7 H 0.9746 0.6969 0.8692
C87_7 C 0.96505(17) 0.65697(18) 0.82334(18)
H33_7 H 0.9738 0.6462 0.8118
C88_7 C 0.97850(17) 0.67096(19) 0.84080(18)
C96_7 C 0.8705(2) 0.5690(2) 0.7988(2)
C97_7 C 0.8533(2) 0.55490(19) 0.8169(2)
C98_7 C 0.8369(2) 0.56878(19) 0.8322(2)
H37_7 H 0.8381 0.5868 0.8332
C99_7 C 0.8185(2) 0.55567(18) 0.8460(2)
C100_7 C 0.7985(2) 0.56985(19) 0.8605(2)
C101_7 C 0.8179(2) 0.52905(18) 0.8451(2)
H38_7 H 0.8054 0.5203 0.8547
C102_7 C 0.85218(19) 0.52818(18) 0.8162(2)
H39_7 H 0.8635 0.5191 0.8055
C103_7 C 0.83501(19) 0.51505(17) 0.8308(2)
C104_7 C 0.83356(19) 0.48624(18) 0.8303(2)
C105_7 C 0.85022(19) 0.47165(17) 0.81577(19)
H40_7 H 0.8629 0.4800 0.8059
C106_7 C 0.84884(17) 0.44536(17) 0.81528(18)
C107_7 C 0.86515(19) 0.43021(18) 0.7978(2)
C108_7 C 0.83080(17) 0.43285(16) 0.82961(18)
H41_7 H 0.8302 0.4148 0.8300
C109_7 C 0.81338(18) 0.44754(17) 0.84361(18)
C110_7 C 0.79214(18) 0.43414(18) 0.85741(19)
C111_7 C 0.81468(19) 0.47374(18) 0.8435(2)
H42_7 H 0.8024 0.4833 0.8527
O62_7 O 0.8496(3) 0.7036(3) 0.8598(3)
O63_7 O 0.8775(8) 0.8271(4) 0.8700(7)
O64_7 O 0.86707(16) 0.65467(12) 0.72082(14)
Zn17_7 Zn 0.87599(2) 0.71976(2) 0.62110(2)
Zn20_7 Zn 0.87437(3) 0.38053(2) 0.77720(3)
Zn27_7 Zn 0.74899(2) 0.57210(2) 0.87944(2)
Zn33_7 Zn 0.76855(2) 0.38138(2) 0.87313(2)
Zn45_7 Zn 0.74368(2) 0.43576(2) 0.87974(2)
O66_7 O 0.84290(13) 0.62977(17) 0.78185(13)
O68_7 O 0.83466(13) 0.61533(17) 0.74299(14)
O72_7 O 0.94754(12) 0.78107(14) 0.88525(13)
O73_7 O 0.87288(14) 0.81300(14) 0.91878(14)
O75_7 O 0.8607(2) 0.78477(17) 0.94830(15)
O77_7 O 0.94078(16) 0.6390(2) 0.72343(18)
O79_7 O 0.90919(16) 0.63026(18) 0.69645(17)
O82_7 O 0.86438(12) 0.59392(11) 0.69874(12)
O84_7 O 0.87745(15) 0.55812(13) 0.71882(16)
O86_7 O 0.86254(18) 0.72666(15) 0.94789(14)
O88_7 O 0.86267(13) 0.70561(12) 0.91159(11)
O89_7 O 0.90836(13) 0.7567(2) 0.95932(14)
O90_7 O 0.94336(11) 0.75219(14) 0.93654(12)
O96_7 O 0.91729(14) 0.81034(15) 0.88830(15)
O55_8 O 0.36438(12) 0.09392(11) 0.19874(12)
O56_8 O 0.37745(15) 0.05812(13) 0.21882(16)
O57_8 O 0.27334(15) 0.05211(14) 0.13746(18)
O58_8 O 0.29439(12) 0.08841(11) 0.13733(13)
C104_8 C 0.33356(19) 0.01376(18) 0.1697(2)
C105_8 C 0.35022(19) 0.02835(17) 0.18423(19)
H40_8 H 0.3629 0.0200 0.1941
C106_8 C 0.34884(17) 0.05464(17) 0.18472(18)
C107_8 C 0.36515(19) 0.06979(18) 0.2022(2)
C108_8 C 0.33080(17) 0.06715(16) 0.17039(18)
H41_8 H 0.3302 0.0852 0.1700
C109_8 C 0.31338(18) 0.05246(17) 0.15639(18)
C110_8 C 0.29214(18) 0.06586(18) 0.14259(19)
C111_8 C 0.31468(19) 0.02626(18) 0.1565(2)
H42_8 H 0.3024 0.0167 0.1473
Zn20_8 Zn 0.37437(3) 0.11947(2) 0.22280(3)
Zn33_8 Zn 0.26855(2) 0.11862(2) 0.12687(2)
Zn45_8 Zn 0.24368(2) 0.06424(2) 0.12026(2)
O25_8 O 0.25322(19) 0.45119(14) 0.09218(13)
O26_8 O 0.24845(14) 0.42865(11) 0.05622(12)
C48_8 C 0.2537(2) 0.54304(18) 0.06849(17)
C49_8 C 0.2528(2) 0.51866(18) 0.05376(18)
C50_8 C 0.2525(2) 0.49579(19) 0.06686(19)
H19_8 H 0.2534 0.4956 0.0849
C51_8 C 0.2510(2) 0.47357(19) 0.05368(19)
C52_8 C 0.2508(2) 0.44931(18) 0.06838(18)
C53_8 C 0.2500(3) 0.47338(19) 0.0275(2)
H20_8 H 0.2486 0.4577 0.0187
C54_8 C 0.2510(2) 0.49617(18) 0.01402(18)
C55_8 C 0.2516(2) 0.51882(18) 0.0276(2)
H21_8 H 0.2511 0.5346 0.0188
Zn9_8 Zn 0.37890(2) 0.87599(2) 0.21976(2)
Zn10_8 Zn 0.37437(3) 0.88053(2) 0.27720(3)
Zn15_8 Zn 0.42855(2) 0.74644(2) 0.09781(2)
Zn16_8 Zn 0.37974(2) 0.74368(2) 0.06424(2)
O37_8 O 0.38302(19) 0.83831(13) 0.24089(15)
O38_8 O 0.37023(17) 0.78185(13) 0.34290(13)
O39_8 O 0.38467(17) 0.74299(14) 0.33466(13)
O40_8 O 0.37604(17) 0.75524(14) 0.15573(13)
O41_8 O 0.3931(2) 0.71670(19) 0.14911(14)
O44_8 O 0.40102(11) 0.85969(11) 0.19440(12)
O45_8 O 0.43710(12) 0.86345(15) 0.21654(14)
O46_8 O 0.40207(12) 0.79365(12) 0.12692(13)
O47_8 O 0.43939(13) 0.77680(14) 0.11558(13)
O48_8 O 0.55246(12) 0.78107(14) 0.11475(13)
O49_8 O 0.58122(14) 0.87288(14) 0.18700(14)
O50_8 O 0.55170(15) 0.8607(2) 0.21523(17)
O51_8 O 0.37479(16) 0.90851(14) 0.19694(16)
O52_8 O 0.37793(17) 0.94362(14) 0.22069(18)
O53_8 O 0.27657(18) 0.94078(16) 0.1390(2)
O54_8 O 0.30355(17) 0.90919(16) 0.13026(18)
O59_8 O 0.39243(10) 0.74300(10) 0.09821(10)
O60_8 O 0.39401(11) 0.89306(11) 0.24912(11)
C65_8 C 0.3758(2) 0.83172(18) 0.2617(2)
C66_8 C 0.3767(3) 0.80378(19) 0.2683(2)
C67_8 C 0.3758(2) 0.79671(19) 0.2938(2)
H25_8 H 0.3742 0.8093 0.3067
C68_8 C 0.3773(2) 0.77135(19) 0.30026(18)
C69_8 C 0.3778(2) 0.7649(2) 0.32818(19)
C70_8 C 0.3789(2) 0.75301(19) 0.2814(2)
H26_8 H 0.3796 0.7356 0.2860
C71_8 C 0.3788(3) 0.78524(19) 0.24958(18)
H27_8 H 0.3799 0.7902 0.2323
C72_8 C 0.3794(2) 0.75966(18) 0.25573(18)
C73_8 C 0.3805(2) 0.73980(18) 0.23546(18)
C74_8 C 0.3819(2) 0.71433(18) 0.24142(19)
H28_8 H 0.3821 0.7094 0.2588
C75_8 C 0.3807(2) 0.74590(18) 0.20955(19)
H29_8 H 0.3791 0.7632 0.2045
C76_8 C 0.3830(2) 0.7273(2) 0.19107(18)
C77_8 C 0.3834(2) 0.7337(2) 0.1632(2)
C78_8 C 0.3845(2) 0.7026(2) 0.1978(2)
H30_8 H 0.3867 0.6899 0.1851
C79_8 C 0.3830(2) 0.69569(18) 0.22295(19)
C80_8 C 0.3836(2) 0.66802(19) 0.2299(2)
C81_8 C 0.42453(15) 0.85589(16) 0.19782(17)
C82_8 C 0.43866(16) 0.84154(17) 0.17762(18)
C83_8 C 0.42548(16) 0.82584(16) 0.16109(17)
H31_8 H 0.4074 0.8252 0.1614
C84_8 C 0.43927(16) 0.81099(17) 0.14411(17)
C85_8 C 0.42571(16) 0.79229(17) 0.12749(16)
C86_8 C 0.46546(17) 0.81291(18) 0.14289(18)
H32_8 H 0.4746 0.8031 0.1308
C87_8 C 0.46505(17) 0.84303(18) 0.17666(18)
H33_8 H 0.4738 0.8538 0.1882
C88_8 C 0.47850(17) 0.82904(19) 0.15920(18)
C89_8 C 0.50731(17) 0.83082(19) 0.15759(18)
C90_8 C 0.52100(16) 0.81695(19) 0.13979(18)
H34_8 H 0.5122 0.8059 0.1285
C91_8 C 0.54744(18) 0.81887(19) 0.13819(19)
O61_8 O 0.58271(14) 0.81034(15) 0.11170(15)
C92_8 C 0.56039(17) 0.83470(18) 0.15457(18)
H35_8 H 0.5783 0.8368 0.1530
C93_8 C 0.54711(18) 0.8474(2) 0.1732(2)
C94_8 C 0.56120(18) 0.8620(2) 0.1928(2)
C95_8 C 0.52124(17) 0.8453(2) 0.1747(2)
H36_8 H 0.5125 0.8540 0.1879
C96_8 C 0.3705(2) 0.9310(2) 0.2012(2)
C97_8 C 0.3533(2) 0.94510(19) 0.1831(2)
C98_8 C 0.3369(2) 0.93122(19) 0.1678(2)
H37_8 H 0.3381 0.9132 0.1668
C99_8 C 0.3185(2) 0.94433(18) 0.1540(2)
C100_8 C 0.2985(2) 0.93015(19) 0.1395(2)
C101_8 C 0.3179(2) 0.97095(18) 0.1549(2)
H38_8 H 0.3054 0.9797 0.1453
C102_8 C 0.35218(19) 0.97182(18) 0.1838(2)
H39_8 H 0.3635 0.9809 0.1945
C103_8 C 0.33501(19) 0.98495(17) 0.1692(2)
O62_8 O 0.3496(3) 0.7964(3) 0.1402(3)
O63_8 O 0.3775(8) 0.6729(4) 0.1300(7)
O64_8 O 0.36707(16) 0.84533(12) 0.27918(14)
C112_8 C 0.56176(19) 0.8022(2) 0.11995(19)
Zn17_8 Zn 0.37599(2) 0.78024(2) 0.37890(2)
Zn25_8 Zn 0.25101(2) 0.42790(2) 0.12056(2)
Zn27_8 Zn 0.24899(2) 0.92790(2) 0.12056(2)
Zn41_8 Zn 0.57145(2) 0.75356(2) 0.09781(2)
O66_8 O 0.34290(13) 0.87023(17) 0.21815(13)
O68_8 O 0.33466(13) 0.88467(17) 0.25701(14)
O72_8 O 0.44754(12) 0.71893(14) 0.11475(13)
O73_8 O 0.37288(14) 0.68700(14) 0.08122(14)
O75_8 O 0.3607(2) 0.71523(17) 0.05170(15)
O77_8 O 0.44078(16) 0.8610(2) 0.27657(18)
O79_8 O 0.40919(16) 0.86974(18) 0.30355(17)
O82_8 O 0.36438(12) 0.90608(11) 0.30126(12)
O84_8 O 0.37745(15) 0.94188(13) 0.28118(16)
O86_8 O 0.36254(18) 0.77334(15) 0.05211(14)
O88_8 O 0.36267(13) 0.79439(12) 0.08841(11)
O89_8 O 0.40836(13) 0.7433(2) 0.04068(14)
O90_8 O 0.44336(11) 0.74781(14) 0.06346(12)
O96_8 O 0.41729(14) 0.68966(15) 0.11170(15)
O33_8 O 0.2433(2) 0.54068(14) 0.90836(13)
O34_8 O 0.24781(14) 0.56346(12) 0.94336(11)
C57_8 C 0.2463(2) 0.54304(18) 0.93151(17)
C58_8 C 0.2472(2) 0.51866(18) 0.94624(18)
C59_8 C 0.2475(2) 0.49579(19) 0.93314(19)
H22_8 H 0.2466 0.4956 0.9151
C60_8 C 0.2490(2) 0.47357(19) 0.94632(19)
C61_8 C 0.2492(2) 0.44931(18) 0.93162(18)
C62_8 C 0.2500(3) 0.47338(19) 0.9725(2)
H23_8 H 0.2514 0.4577 0.9813
C63_8 C 0.2490(2) 0.49617(18) 0.98598(18)
C64_8 C 0.2484(2) 0.51882(18) 0.9724(2)
H24_8 H 0.2489 0.5346 0.9812
C48_9 C 0.43151(17) 0.7463(2) 0.04304(18)
C49_9 C 0.44624(18) 0.7472(2) 0.01866(18)
C55_9 C 0.4724(2) 0.7484(2) 0.01882(18)
H21_9 H 0.4812 0.7489 0.0346
O33_9 O 0.59164(13) 0.7567(2) 0.04068(14)
O34_9 O 0.55664(11) 0.75219(14) 0.06346(12)
C57_9 C 0.56849(17) 0.7537(2) 0.04304(18)
C58_9 C 0.55376(18) 0.7528(2) 0.01866(18)
C64_9 C 0.5276(2) 0.7516(2) 0.01882(18)
H24_9 H 0.5188 0.7511 0.0346
O25_9 O 0.40782(13) 0.74678(19) 0.95119(14)
O26_9 O 0.44378(12) 0.75155(14) 0.92865(11)
C50_9 C 0.43314(19) 0.7475(2) 0.99579(19)
H19_9 H 0.4151 0.7466 0.9956
C51_9 C 0.44632(19) 0.7490(2) 0.97357(19)
C52_9 C 0.43162(18) 0.7492(2) 0.94931(18)
C53_9 C 0.4725(2) 0.7500(3) 0.97338(19)
H20_9 H 0.4813 0.7514 0.9577
C54_9 C 0.48598(18) 0.7490(2) 0.99617(18)
C59_9 C 0.56686(19) 0.7525(2) 0.99579(19)
H22_9 H 0.5849 0.7534 0.9956
C60_9 C 0.55368(19) 0.7510(2) 0.97357(19)
C61_9 C 0.56838(18) 0.7508(2) 0.94931(18)
C62_9 C 0.5275(2) 0.7500(3) 0.97338(19)
H23_9 H 0.5187 0.7486 0.9577
C63_9 C 0.51402(18) 0.7510(2) 0.99617(18)
Zn25_9 Zn 0.37944(2) 0.74899(2) 0.92790(2)
O25_10 O 0.59218(13) 0.24678(19) 0.54881(14)
O26_10 O 0.55622(12) 0.25155(14) 0.57135(11)
C48_10 C 0.56849(17) 0.2463(2) 0.45696(18)
C49_10 C 0.55376(18) 0.2472(2) 0.48134(18)
C50_10 C 0.56686(19) 0.2475(2) 0.50421(19)
H19_10 H 0.5849 0.2466 0.5044
C51_10 C 0.55368(19) 0.2490(2) 0.52643(19)
C52_10 C 0.56838(18) 0.2492(2) 0.55069(18)
C53_10 C 0.5275(2) 0.2500(3) 0.52662(19)
H20_10 H 0.5187 0.2514 0.5423
C54_10 C 0.51402(18) 0.2490(2) 0.50383(18)
C55_10 C 0.5276(2) 0.2484(2) 0.48118(18)
H21_10 H 0.5188 0.2489 0.4654
O33_10 O 0.40836(13) 0.2567(2) 0.45932(14)
O34_10 O 0.44336(11) 0.25219(14) 0.43654(12)
C57_10 C 0.43151(17) 0.2537(2) 0.45696(18)
C58_10 C 0.44624(18) 0.2528(2) 0.48134(18)
C59_10 C 0.43314(19) 0.2525(2) 0.50421(19)
H22_10 H 0.4151 0.2534 0.5044
C60_10 C 0.44632(19) 0.2510(2) 0.52643(19)
C61_10 C 0.43162(18) 0.2508(2) 0.55069(18)
C62_10 C 0.4725(2) 0.2500(3) 0.52662(19)
H23_10 H 0.4813 0.2486 0.5423
C63_10 C 0.48598(18) 0.2510(2) 0.50383(18)
C64_10 C 0.4724(2) 0.2516(2) 0.48118(18)
H24_10 H 0.4812 0.2511 0.4654
Zn25_10 Zn 0.62056(2) 0.24899(2) 0.57210(2)
C59_11 C 0.06686(19) 0.7475(2) 0.00421(19)
H22_11 H 0.0849 0.7466 0.0044
C60_11 C 0.05368(19) 0.7490(2) 0.02643(19)
C61_11 C 0.06838(18) 0.7492(2) 0.05069(18)
C62_11 C 0.0275(2) 0.7500(3) 0.02662(19)
H23_11 H 0.0187 0.7514 0.0423
C63_11 C 0.01402(18) 0.7490(2) 0.00383(18)
O33_11 O 0.09164(13) 0.7433(2) 0.95932(14)
O34_11 O 0.05664(11) 0.74781(14) 0.93654(12)
C57_11 C 0.06849(17) 0.7463(2) 0.95696(18)
C58_11 C 0.05376(18) 0.7472(2) 0.98134(18)
C64_11 C 0.0276(2) 0.7484(2) 0.98118(18)
H24_11 H 0.0188 0.7489 0.9654
O25_11 O 0.90782(13) 0.75322(19) 0.04881(14)
O26_11 O 0.94378(12) 0.74845(14) 0.07135(11)
C50_11 C 0.93314(19) 0.7525(2) 0.00421(19)
H19_11 H 0.9151 0.7534 0.0044
C51_11 C 0.94632(19) 0.7510(2) 0.02643(19)
C52_11 C 0.93162(18) 0.7508(2) 0.05069(18)
C53_11 C 0.9725(2) 0.7500(3) 0.02662(19)
H20_11 H 0.9813 0.7486 0.0423
C54_11 C 0.98598(18) 0.7510(2) 0.00383(18)
Zn25_11 Zn 0.87944(2) 0.75101(2) 0.07210(2)
C48_11 C 0.93151(17) 0.7537(2) 0.95696(18)
C49_11 C 0.94624(18) 0.7528(2) 0.98134(18)
C55_11 C 0.9724(2) 0.7516(2) 0.98118(18)
H21_11 H 0.9812 0.7511 0.9654
O25_12 O 0.09218(13) 0.25322(19) 0.45119(14)
O26_12 O 0.05622(12) 0.24845(14) 0.42865(11)
C48_12 C 0.06849(17) 0.2537(2) 0.54304(18)
C49_12 C 0.05376(18) 0.2528(2) 0.51866(18)
C50_12 C 0.06686(19) 0.2525(2) 0.49579(19)
H19_12 H 0.0849 0.2534 0.4956
C51_12 C 0.05368(19) 0.2510(2) 0.47357(19)
C52_12 C 0.06838(18) 0.2508(2) 0.44931(18)
C53_12 C 0.0275(2) 0.2500(3) 0.47338(19)
H20_12 H 0.0187 0.2486 0.4577
C54_12 C 0.01402(18) 0.2510(2) 0.49617(18)
C55_12 C 0.0276(2) 0.2516(2) 0.51882(18)
H21_12 H 0.0188 0.2511 0.5346
Zn25_12 Zn 0.12056(2) 0.25101(2) 0.42790(2)
O33_12 O 0.90836(13) 0.2433(2) 0.54068(14)
O34_12 O 0.94336(11) 0.24781(14) 0.56346(12)
C57_12 C 0.93151(17) 0.2463(2) 0.54304(18)
C58_12 C 0.94624(18) 0.2472(2) 0.51866(18)
C59_12 C 0.93314(19) 0.2475(2) 0.49579(19)
H22_12 H 0.9151 0.2466 0.4956
C60_12 C 0.94632(19) 0.2490(2) 0.47357(19)
C61_12 C 0.93162(18) 0.2492(2) 0.44931(18)
C62_12 C 0.9725(2) 0.2500(3) 0.47338(19)
H23_12 H 0.9813 0.2514 0.4577
C63_12 C 0.98598(18) 0.2490(2) 0.49617(18)
C64_12 C 0.9724(2) 0.2484(2) 0.51882(18)
H24_12 H 0.9812 0.2489 0.5346
O57_9 O 0.05211(14) 0.86254(18) 0.22666(15)
O58_9 O 0.08841(11) 0.86267(13) 0.20561(12)
C104_9 C 0.01376(18) 0.8303(2) 0.16644(19)
C105_9 C 0.02835(17) 0.81577(19) 0.14978(19)
H40_9 H 0.0200 0.8059 0.1371
C106_9 C 0.05464(17) 0.81528(18) 0.15116(17)
C107_9 C 0.06979(18) 0.7978(2) 0.13485(19)
C108_9 C 0.06715(16) 0.82961(18) 0.16920(17)
H41_9 H 0.0852 0.8300 0.1698
C109_9 C 0.05246(17) 0.84361(18) 0.18662(18)
C110_9 C 0.06586(18) 0.85741(19) 0.20786(18)
C111_9 C 0.02626(18) 0.8435(2) 0.18532(19)
H42_9 H 0.0167 0.8527 0.1976
Zn33_9 Zn 0.11862(2) 0.87313(2) 0.23145(2)
Zn45_9 Zn 0.06424(2) 0.87974(2) 0.25632(2)
C25_5 C 0.65759(18) 0.00731(17) 0.33082(19)
C26_5 C 0.63979(18) 0.02100(16) 0.31695(19)
H10_5 H 0.6285 0.0122 0.3059
C27_5 C 0.63819(19) 0.04744(18) 0.31887(19)
C28_5 C 0.65457(18) 0.06039(17) 0.33470(18)
H11_5 H 0.6530 0.0783 0.3368
C29_5 C 0.6732(2) 0.04711(18) 0.3474(2)
C30_5 C 0.6928(2) 0.06120(18) 0.3620(2)
C31_5 C 0.6747(2) 0.02124(17) 0.3453(2)
H12_5 H 0.6879 0.0125 0.3540
C56_5 C 0.61995(19) 0.06176(19) 0.3022(2)
Zn1_5 Zn 0.71976(2) 0.87890(2) 0.37599(2)
Zn5_5 Zn 0.61862(2) 0.87313(2) 0.26855(2)
O1_5 O 0.74089(15) 0.88302(19) 0.33831(13)
O2_5 O 0.84290(13) 0.87023(17) 0.28185(13)
O3_5 O 0.83466(13) 0.88467(17) 0.24299(14)
O4_5 O 0.65573(13) 0.87604(17) 0.25524(14)
O5_5 O 0.64911(14) 0.8931(2) 0.21670(19)
O6_5 O 0.75271(14) 0.88646(17) 0.16219(13)
O7_5 O 0.71180(17) 0.8796(2) 0.15316(15)
O8_5 O 0.69440(12) 0.90102(11) 0.35969(11)
O9_5 O 0.71654(14) 0.93710(12) 0.36345(15)
O10_5 O 0.62692(13) 0.90207(12) 0.29365(12)
O11_5 O 0.61558(13) 0.93939(13) 0.27680(14)
O15_5 O 0.69694(16) 0.87479(16) 0.40851(14)
O16_5 O 0.72069(18) 0.87793(17) 0.44362(14)
O17_5 O 0.6390(2) 0.77657(18) 0.44078(16)
O18_5 O 0.63026(18) 0.80355(17) 0.40919(16)
O21_5 O 0.63746(18) 0.77334(15) 0.55211(14)
O22_5 O 0.63733(13) 0.79439(12) 0.58841(11)
O27_5 O 0.59821(10) 0.89243(10) 0.24300(10)
O28_5 O 0.74912(11) 0.89401(11) 0.39306(11)
C1_5 C 0.7617(2) 0.8758(2) 0.33172(18)
C2_5 C 0.7683(2) 0.8767(3) 0.30378(19)
C3_5 C 0.7938(2) 0.8758(2) 0.29671(19)
H1_5 H 0.8067 0.8742 0.3093
C4_5 C 0.80026(18) 0.8773(2) 0.27135(19)
C5_5 C 0.82818(19) 0.8778(2) 0.2649(2)
C6_5 C 0.7814(2) 0.8789(2) 0.25301(19)
H2_5 H 0.7860 0.8796 0.2356
C7_5 C 0.74958(18) 0.8788(3) 0.28524(19)
H3_5 H 0.7323 0.8799 0.2902
C8_5 C 0.75573(18) 0.8794(2) 0.25966(18)
C9_5 C 0.73546(18) 0.8805(2) 0.23980(18)
C10_5 C 0.74142(19) 0.8819(2) 0.21433(18)
H4_5 H 0.7588 0.8821 0.2094
C11_5 C 0.70955(19) 0.8807(2) 0.24590(18)
H5_5 H 0.7045 0.8791 0.2632
C12_5 C 0.69107(18) 0.8830(2) 0.2273(2)
C13_5 C 0.6632(2) 0.8834(2) 0.2337(2)
C14_5 C 0.6978(2) 0.8845(2) 0.2026(2)
H6_5 H 0.6851 0.8867 0.1899
C15_5 C 0.72295(19) 0.8830(2) 0.19569(18)
C16_5 C 0.7299(2) 0.8836(2) 0.16802(19)
C17_5 C 0.69782(17) 0.92453(15) 0.35589(16)
C18_5 C 0.67762(18) 0.93866(16) 0.34154(17)
C19_5 C 0.66109(17) 0.92548(16) 0.32584(16)
H7_5 H 0.6614 0.9074 0.3252
C20_5 C 0.64411(17) 0.93927(16) 0.31099(17)
C21_5 C 0.62749(16) 0.92571(16) 0.29229(17)
C22_5 C 0.64289(18) 0.96546(17) 0.31291(18)
H8_5 H 0.6308 0.9746 0.3031
C23_5 C 0.67666(18) 0.96505(17) 0.34303(18)
H9_5 H 0.6882 0.9738 0.3538
C24_5 C 0.65920(18) 0.97850(17) 0.32904(19)
C32_5 C 0.7012(2) 0.8705(2) 0.4310(2)
C33_5 C 0.6831(2) 0.8533(2) 0.44510(19)
C34_5 C 0.6678(2) 0.8369(2) 0.43122(19)
H13_5 H 0.6668 0.8381 0.4132
C35_5 C 0.6540(2) 0.8185(2) 0.44433(18)
C36_5 C 0.6395(2) 0.7985(2) 0.43015(19)
C37_5 C 0.6549(2) 0.8179(2) 0.47095(18)
H14_5 H 0.6453 0.8054 0.4797
C38_5 C 0.6838(2) 0.85218(19) 0.47182(18)
H15_5 H 0.6945 0.8635 0.4809
C39_5 C 0.6692(2) 0.83501(19) 0.48495(17)
C40_5 C 0.6697(2) 0.83356(19) 0.51376(18)
C41_5 C 0.68423(19) 0.85022(19) 0.52835(17)
H16_5 H 0.6941 0.8629 0.5200
C42_5 C 0.68472(18) 0.84884(17) 0.55464(17)
C43_5 C 0.7022(2) 0.86515(19) 0.56979(18)
C44_5 C 0.67039(18) 0.83080(17) 0.56715(16)
H17_5 H 0.6700 0.8302 0.5852
C45_5 C 0.65639(18) 0.81338(18) 0.55246(17)
C46_5 C 0.64259(19) 0.79214(18) 0.56586(18)
C47_5 C 0.6565(2) 0.81468(19) 0.52626(18)
H18_5 H 0.6473 0.8024 0.5167
O30_5 O 0.6402(3) 0.8496(3) 0.2964(3)
O31_5 O 0.6300(7) 0.8775(8) 0.1729(4)
O32_5 O 0.77918(14) 0.86707(16) 0.34533(12)
Zn9_9 Zn 0.87599(2) 0.78024(2) 0.12110(2)
Zn13_5 Zn 0.76855(2) 0.88138(2) 0.12687(2)
O37_9 O 0.83831(13) 0.75911(15) 0.11698(19)
O38_9 O 0.78185(13) 0.65710(13) 0.12977(17)
O39_9 O 0.74299(14) 0.66534(13) 0.11533(17)
O40_9 O 0.75524(14) 0.84427(13) 0.12396(17)
O41_9 O 0.71670(19) 0.85089(14) 0.1069(2)
O42_5 O 0.66219(13) 0.74729(14) 0.11354(17)
O43_5 O 0.65316(15) 0.78820(17) 0.1204(2)
O44_9 O 0.85969(11) 0.80560(12) 0.09898(11)
O45_9 O 0.86345(15) 0.78346(14) 0.06290(12)
O46_9 O 0.79365(12) 0.87308(13) 0.09793(12)
O47_9 O 0.77680(14) 0.88442(13) 0.06061(13)
O51_9 O 0.90851(14) 0.80306(16) 0.12521(16)
O52_9 O 0.94362(14) 0.77931(18) 0.12207(17)
O53_9 O 0.94078(16) 0.8610(2) 0.22343(18)
O54_9 O 0.90919(16) 0.86974(18) 0.19645(17)
O59_9 O 0.74300(10) 0.90179(10) 0.10757(10)
O60_9 O 0.89306(11) 0.75088(11) 0.10599(11)
C65_9 C 0.83172(18) 0.7383(2) 0.1242(2)
C66_9 C 0.80378(19) 0.7317(2) 0.1233(3)
C67_9 C 0.79671(19) 0.7062(2) 0.1242(2)
H25_9 H 0.8093 0.6933 0.1258
C68_9 C 0.77135(19) 0.69974(18) 0.1227(2)
C69_9 C 0.7649(2) 0.67182(19) 0.1222(2)
C70_9 C 0.75301(19) 0.7186(2) 0.1211(2)
H26_9 H 0.7356 0.7140 0.1204
C71_9 C 0.78524(19) 0.75042(18) 0.1212(3)
H27_9 H 0.7902 0.7677 0.1201
C72_9 C 0.75966(18) 0.74427(18) 0.1206(2)
C73_9 C 0.73980(18) 0.76454(18) 0.1195(2)
C74_9 C 0.71433(18) 0.75858(19) 0.1181(2)
H28_9 H 0.7094 0.7412 0.1179
C75_9 C 0.74590(18) 0.79045(19) 0.1193(2)
H29_9 H 0.7632 0.7955 0.1209
C76_9 C 0.7273(2) 0.80893(18) 0.1170(2)
C77_9 C 0.7337(2) 0.8368(2) 0.1166(2)
C78_9 C 0.7026(2) 0.8022(2) 0.1155(2)
H30_9 H 0.6899 0.8149 0.1133
C79_9 C 0.69569(18) 0.77705(19) 0.1170(2)
C80_9 C 0.66802(19) 0.7701(2) 0.1164(2)
C81_9 C 0.85589(16) 0.80218(17) 0.07547(15)
C82_9 C 0.84154(17) 0.82238(18) 0.06134(16)
C83_9 C 0.82584(16) 0.83891(17) 0.07452(16)
H31_9 H 0.8252 0.8386 0.0926
C84_9 C 0.81099(17) 0.85589(17) 0.06073(16)
C85_9 C 0.79229(17) 0.87251(16) 0.07429(16)
C86_9 C 0.81291(18) 0.85711(18) 0.03454(17)
H32_9 H 0.8031 0.8692 0.0254
C87_9 C 0.84303(18) 0.82334(18) 0.03495(17)
H33_9 H 0.8538 0.8118 0.0262
C88_9 C 0.82904(19) 0.84080(18) 0.02150(17)
C96_9 C 0.9310(2) 0.7988(2) 0.1295(2)
C97_9 C 0.94510(19) 0.8169(2) 0.1467(2)
C98_9 C 0.93122(19) 0.8322(2) 0.1631(2)
H37_9 H 0.9132 0.8332 0.1619
C99_9 C 0.94433(18) 0.8460(2) 0.1815(2)
C100_9 C 0.93015(19) 0.8605(2) 0.2015(2)
C101_9 C 0.97095(18) 0.8451(2) 0.1821(2)
H38_9 H 0.9797 0.8547 0.1946
C102_9 C 0.97182(18) 0.8162(2) 0.14782(19)
H39_9 H 0.9809 0.8055 0.1365
C103_9 C 0.98495(17) 0.8308(2) 0.16499(19)
O62_9 O 0.7964(3) 0.8598(3) 0.1504(3)
O63_9 O 0.6729(4) 0.8700(7) 0.1225(8)
O64_9 O 0.84533(12) 0.72082(14) 0.13293(16)
Zn17_9 Zn 0.78024(2) 0.62110(2) 0.12401(2)
Zn18_5 Zn 0.87890(2) 0.87599(2) 0.28024(2)
Zn21_5 Zn 0.72280(3) 0.62563(3) 0.11947(2)
Zn22_5 Zn 0.61947(2) 0.77720(3) 0.37437(3)
Zn23_5 Zn 0.87437(3) 0.88053(2) 0.22280(3)
Zn26_5 Zn 0.62056(2) 0.74899(2) 0.42790(2)
Zn27_9 Zn 0.92790(2) 0.87944(2) 0.25101(2)
Zn32_5 Zn 0.62687(2) 0.73145(2) 0.11862(2)
Zn34_5 Zn 0.62687(2) 0.76855(2) 0.61862(2)
Zn46_5 Zn 0.62026(2) 0.74368(2) 0.56424(2)
O65_5 O 0.71815(13) 0.84290(13) 0.37023(17)
O66_9 O 0.87023(17) 0.78185(13) 0.15710(13)
O67_5 O 0.75701(14) 0.83466(13) 0.38467(17)
O68_9 O 0.88467(17) 0.74299(14) 0.16534(13)
O69_5 O 0.61354(17) 0.83781(13) 0.25271(14)
O70_5 O 0.6204(2) 0.84684(15) 0.21180(17)
O77_9 O 0.8610(2) 0.72343(18) 0.05922(16)
O78_5 O 0.77657(18) 0.94078(16) 0.3610(2)
O79_9 O 0.86974(18) 0.69645(17) 0.09081(16)
O80_5 O 0.80355(17) 0.90919(16) 0.36974(18)
O85_5 O 0.55211(14) 0.86254(18) 0.27334(15)
O86_9 O 0.77334(15) 0.94789(14) 0.13746(18)
O87_5 O 0.58841(11) 0.86267(13) 0.29439(12)
O88_9 O 0.79439(12) 0.91159(11) 0.13733(13)
C89_9 C 0.83082(19) 0.84241(18) 0.99269(17)
C90_9 C 0.81695(19) 0.86021(18) 0.97900(16)
H34_9 H 0.8059 0.8715 0.9878
C91_9 C 0.81887(19) 0.86181(19) 0.95256(18)
C92_9 C 0.83470(18) 0.84543(18) 0.93961(17)
H35_9 H 0.8368 0.8470 0.9217
C93_9 C 0.8474(2) 0.8268(2) 0.95289(18)
C94_9 C 0.8620(2) 0.8072(2) 0.93880(18)
C95_9 C 0.8453(2) 0.8253(2) 0.97876(17)
H36_9 H 0.8540 0.8121 0.9875
C112_9 C 0.8022(2) 0.88005(19) 0.93824(19)
O21_6 O 0.86254(18) 0.22666(15) 0.05211(14)
O22_6 O 0.86267(13) 0.20561(12) 0.08841(11)
C40_6 C 0.8303(2) 0.16644(19) 0.01376(18)
C41_6 C 0.81577(19) 0.14978(19) 0.02835(17)
H16_6 H 0.8059 0.1371 0.0200
C42_6 C 0.81528(18) 0.15116(17) 0.05464(17)
C43_6 C 0.7978(2) 0.13485(19) 0.06979(18)
C44_6 C 0.82961(18) 0.16920(17) 0.06715(16)
H17_6 H 0.8300 0.1698 0.0852
C45_6 C 0.84361(18) 0.18662(18) 0.05246(17)
C46_6 C 0.85741(19) 0.20786(18) 0.06586(18)
C47_6 C 0.8435(2) 0.18532(19) 0.02626(18)
H18_6 H 0.8527 0.1976 0.0167
Zn34_6 Zn 0.87313(2) 0.23145(2) 0.11862(2)
Zn46_6 Zn 0.87974(2) 0.25632(2) 0.06424(2)
Zn1_6 Zn 0.78024(2) 0.12110(2) 0.87599(2)
Zn5_6 Zn 0.88138(2) 0.12687(2) 0.76855(2)
O1_6 O 0.75911(15) 0.11698(19) 0.83831(13)
O2_6 O 0.65710(13) 0.12977(17) 0.78185(13)
O3_6 O 0.66534(13) 0.11533(17) 0.74299(14)
O4_6 O 0.84427(13) 0.12396(17) 0.75524(14)
O5_6 O 0.85089(14) 0.1069(2) 0.71670(19)
O6_6 O 0.74729(14) 0.11354(17) 0.66219(13)
O7_6 O 0.78820(17) 0.1204(2) 0.65316(15)
O8_6 O 0.80560(12) 0.09898(11) 0.85969(11)
O9_6 O 0.78346(14) 0.06290(12) 0.86345(15)
O10_6 O 0.87308(13) 0.09793(12) 0.79365(12)
O11_6 O 0.88442(13) 0.06061(13) 0.77680(14)
O15_6 O 0.80306(16) 0.12521(16) 0.90851(14)
O16_6 O 0.77931(18) 0.12207(17) 0.94362(14)
O17_6 O 0.8610(2) 0.22343(18) 0.94078(16)
O18_6 O 0.86974(18) 0.19645(17) 0.90919(16)
O27_6 O 0.90179(10) 0.10757(10) 0.74300(10)
O28_6 O 0.75088(11) 0.10599(11) 0.89306(11)
C1_6 C 0.7383(2) 0.1242(2) 0.83172(18)
C2_6 C 0.7317(2) 0.1233(3) 0.80378(19)
C3_6 C 0.7062(2) 0.1242(2) 0.79671(19)
H1_6 H 0.6933 0.1258 0.8093
C4_6 C 0.69974(18) 0.1227(2) 0.77135(19)
C5_6 C 0.67182(19) 0.1222(2) 0.7649(2)
C6_6 C 0.7186(2) 0.1211(2) 0.75301(19)
H2_6 H 0.7140 0.1204 0.7356
C7_6 C 0.75042(18) 0.1212(3) 0.78524(19)
H3_6 H 0.7677 0.1201 0.7902
C8_6 C 0.74427(18) 0.1206(2) 0.75966(18)
C9_6 C 0.76454(18) 0.1195(2) 0.73980(18)
C10_6 C 0.75858(19) 0.1181(2) 0.71433(18)
H4_6 H 0.7412 0.1179 0.7094
C11_6 C 0.79045(19) 0.1193(2) 0.74590(18)
H5_6 H 0.7955 0.1209 0.7632
C12_6 C 0.80893(18) 0.1170(2) 0.7273(2)
C13_6 C 0.8368(2) 0.1166(2) 0.7337(2)
C14_6 C 0.8022(2) 0.1155(2) 0.7026(2)
H6_6 H 0.8149 0.1133 0.6899
C15_6 C 0.77705(19) 0.1170(2) 0.69569(18)
C16_6 C 0.7701(2) 0.1164(2) 0.66802(19)
C17_6 C 0.80218(17) 0.07547(15) 0.85589(16)
C18_6 C 0.82238(18) 0.06134(16) 0.84154(17)
C19_6 C 0.83891(17) 0.07452(16) 0.82584(16)
H7_6 H 0.8386 0.0926 0.8252
C20_6 C 0.85589(17) 0.06073(16) 0.81099(17)
C21_6 C 0.87251(16) 0.07429(16) 0.79229(17)
C22_6 C 0.85711(18) 0.03454(17) 0.81291(18)
H8_6 H 0.8692 0.0254 0.8031
C23_6 C 0.82334(18) 0.03495(17) 0.84303(18)
H9_6 H 0.8118 0.0262 0.8538
C24_6 C 0.84080(18) 0.02150(17) 0.82904(19)
C32_6 C 0.7988(2) 0.1295(2) 0.9310(2)
C33_6 C 0.8169(2) 0.1467(2) 0.94510(19)
C34_6 C 0.8322(2) 0.1631(2) 0.93122(19)
H13_6 H 0.8332 0.1619 0.9132
C35_6 C 0.8460(2) 0.1815(2) 0.94433(18)
C36_6 C 0.8605(2) 0.2015(2) 0.93015(19)
C37_6 C 0.8451(2) 0.1821(2) 0.97095(18)
H14_6 H 0.8547 0.1946 0.9797
C38_6 C 0.8162(2) 0.14782(19) 0.97182(18)
H15_6 H 0.8055 0.1365 0.9809
C39_6 C 0.8308(2) 0.16499(19) 0.98495(17)
O30_6 O 0.8598(3) 0.1504(3) 0.7964(3)
O31_6 O 0.8700(7) 0.1225(8) 0.6729(4)
O32_6 O 0.72082(14) 0.13293(16) 0.84533(12)
Zn9_10 Zn 0.62401(2) 0.21976(2) 0.62110(2)
Zn13_6 Zn 0.73145(2) 0.11862(2) 0.62687(2)
O37_10 O 0.66169(13) 0.24089(15) 0.61698(19)
O38_10 O 0.71815(13) 0.34290(13) 0.62977(17)
O39_10 O 0.75701(14) 0.33466(13) 0.61533(17)
O40_10 O 0.74476(14) 0.15573(13) 0.62396(17)
O41_10 O 0.78330(19) 0.14911(14) 0.6069(2)
O42_6 O 0.83781(13) 0.25271(14) 0.61354(17)
O43_6 O 0.84684(15) 0.21180(17) 0.6204(2)
O44_10 O 0.64031(11) 0.19440(12) 0.59898(11)
O45_10 O 0.63655(15) 0.21654(14) 0.56290(12)
O46_10 O 0.70635(12) 0.12692(13) 0.59793(12)
O47_10 O 0.72320(14) 0.11558(13) 0.56061(13)
O51_10 O 0.59149(14) 0.19694(16) 0.62521(16)
O52_10 O 0.55638(14) 0.22069(18) 0.62207(17)
O53_10 O 0.55922(16) 0.1390(2) 0.72343(18)
O54_10 O 0.59081(16) 0.13026(18) 0.69645(17)
O57_10 O 0.44789(14) 0.13746(18) 0.72666(15)
O58_10 O 0.41159(11) 0.13733(13) 0.70561(12)
O59_10 O 0.75700(10) 0.09821(10) 0.60757(10)
O60_10 O 0.60694(11) 0.24912(11) 0.60599(11)
C65_10 C 0.66828(18) 0.2617(2) 0.6242(2)
C66_10 C 0.69622(19) 0.2683(2) 0.6233(3)
C67_10 C 0.70329(19) 0.2938(2) 0.6242(2)
H25_10 H 0.6907 0.3067 0.6258
C68_10 C 0.72865(19) 0.30026(18) 0.6227(2)
C69_10 C 0.7351(2) 0.32818(19) 0.6222(2)
C70_10 C 0.74699(19) 0.2814(2) 0.6211(2)
H26_10 H 0.7644 0.2860 0.6204
C71_10 C 0.71476(19) 0.24958(18) 0.6212(3)
H27_10 H 0.7098 0.2323 0.6201
C72_10 C 0.74034(18) 0.25573(18) 0.6206(2)
C73_10 C 0.76020(18) 0.23546(18) 0.6195(2)
C74_10 C 0.78567(18) 0.24142(19) 0.6181(2)
H28_10 H 0.7906 0.2588 0.6179
C75_10 C 0.75410(18) 0.20955(19) 0.6193(2)
H29_10 H 0.7368 0.2045 0.6209
C76_10 C 0.7727(2) 0.19107(18) 0.6170(2)
C77_10 C 0.7663(2) 0.1632(2) 0.6166(2)
C78_10 C 0.7974(2) 0.1978(2) 0.6155(2)
H30_10 H 0.8101 0.1851 0.6133
C79_10 C 0.80431(18) 0.22295(19) 0.6170(2)
C80_10 C 0.83198(19) 0.2299(2) 0.6164(2)
C81_10 C 0.64411(16) 0.19782(17) 0.57547(15)
C82_10 C 0.65846(17) 0.17762(18) 0.56134(16)
C83_10 C 0.67416(16) 0.16109(17) 0.57452(16)
H31_10 H 0.6748 0.1614 0.5926
C84_10 C 0.68901(17) 0.14411(17) 0.56073(16)
C85_10 C 0.70771(17) 0.12749(16) 0.57429(16)
C86_10 C 0.68709(18) 0.14289(18) 0.53454(17)
H32_10 H 0.6969 0.1308 0.5254
C87_10 C 0.65697(18) 0.17666(18) 0.53495(17)
H33_10 H 0.6462 0.1882 0.5262
C88_10 C 0.67096(19) 0.15920(18) 0.52150(17)
C89_10 C 0.66918(19) 0.15759(18) 0.49269(17)
C90_10 C 0.68305(19) 0.13979(18) 0.47900(16)
H34_10 H 0.6941 0.1285 0.4878
C91_10 C 0.68113(19) 0.13819(19) 0.45256(18)
C92_10 C 0.66530(18) 0.15457(18) 0.43961(17)
H35_10 H 0.6632 0.1530 0.4217
C93_10 C 0.6526(2) 0.1732(2) 0.45289(18)
C94_10 C 0.6380(2) 0.1928(2) 0.43880(18)
C95_10 C 0.6547(2) 0.1747(2) 0.47876(17)
H36_10 H 0.6460 0.1879 0.4875
C96_10 C 0.5690(2) 0.2012(2) 0.6295(2)
C97_10 C 0.55490(19) 0.1831(2) 0.6467(2)
C98_10 C 0.56878(19) 0.1678(2) 0.6631(2)
H37_10 H 0.5868 0.1668 0.6619
C99_10 C 0.55567(18) 0.1540(2) 0.6815(2)
C100_10 C 0.56985(19) 0.1395(2) 0.7015(2)
C101_10 C 0.52905(18) 0.1549(2) 0.6821(2)
H38_10 H 0.5203 0.1453 0.6946
C102_10 C 0.52818(18) 0.1838(2) 0.64782(19)
H39_10 H 0.5191 0.1945 0.6365
C103_10 C 0.51505(17) 0.1692(2) 0.66499(19)
C104_10 C 0.48624(18) 0.1697(2) 0.66644(19)
C105_10 C 0.47165(17) 0.18423(19) 0.64978(19)
H40_10 H 0.4800 0.1941 0.6371
C106_10 C 0.44536(17) 0.18472(18) 0.65116(17)
C107_10 C 0.43021(18) 0.2022(2) 0.63485(19)
C108_10 C 0.43285(16) 0.17039(18) 0.66920(17)
H41_10 H 0.4148 0.1700 0.6698
C109_10 C 0.44754(17) 0.15639(18) 0.68662(18)
C110_10 C 0.43414(18) 0.14259(19) 0.70786(18)
C111_10 C 0.47374(18) 0.1565(2) 0.68532(19)
H42_10 H 0.4833 0.1473 0.6976
O62_10 O 0.7036(3) 0.1402(3) 0.6504(3)
O63_10 O 0.8271(4) 0.1300(7) 0.6225(8)
O64_10 O 0.65467(12) 0.27918(14) 0.63293(16)
C112_10 C 0.6978(2) 0.11995(19) 0.43824(19)
Zn17_10 Zn 0.71976(2) 0.37890(2) 0.62401(2)
Zn18_6 Zn 0.62110(2) 0.12401(2) 0.78024(2)
Zn21_6 Zn 0.77720(3) 0.37437(3) 0.61947(2)
Zn22_6 Zn 0.88053(2) 0.22280(3) 0.87437(3)
Zn23_6 Zn 0.62563(3) 0.11947(2) 0.72280(3)
Zn26_6 Zn 0.87944(2) 0.25101(2) 0.92790(2)
Zn27_10 Zn 0.57210(2) 0.12056(2) 0.75101(2)
Zn32_6 Zn 0.87313(2) 0.26855(2) 0.61862(2)
Zn33_10 Zn 0.38138(2) 0.12687(2) 0.73145(2)
Zn45_10 Zn 0.43576(2) 0.12026(2) 0.75632(2)
O65_6 O 0.78185(13) 0.15710(13) 0.87023(17)
O66_10 O 0.62977(17) 0.21815(13) 0.65710(13)
O67_6 O 0.74299(14) 0.16534(13) 0.88467(17)
O68_10 O 0.61533(17) 0.25701(14) 0.66534(13)
O69_6 O 0.88646(17) 0.16219(13) 0.75271(14)
O70_6 O 0.8796(2) 0.15316(15) 0.71180(17)
O77_10 O 0.6390(2) 0.27657(18) 0.55922(16)
O78_6 O 0.72343(18) 0.05922(16) 0.8610(2)
O79_10 O 0.63026(18) 0.30355(17) 0.59081(16)
O80_6 O 0.69645(17) 0.09081(16) 0.86974(18)
O85_6 O 0.94789(14) 0.13746(18) 0.77334(15)
O86_10 O 0.72666(15) 0.05211(14) 0.63746(18)
O87_6 O 0.91159(11) 0.13733(13) 0.79439(12)
O88_10 O 0.70561(12) 0.08841(11) 0.63733(13)
C25_6 C 0.84241(18) 0.99269(17) 0.83082(19)
C26_6 C 0.86021(18) 0.97900(16) 0.81695(19)
H10_6 H 0.8715 0.9878 0.8059
C27_6 C 0.86181(19) 0.95256(18) 0.81887(19)
C28_6 C 0.84543(18) 0.93961(17) 0.83470(18)
H11_6 H 0.8470 0.9217 0.8368
C29_6 C 0.8268(2) 0.95289(18) 0.8474(2)
C30_6 C 0.8072(2) 0.93880(18) 0.8620(2)
C31_6 C 0.8253(2) 0.97876(17) 0.8453(2)
H12_6 H 0.8121 0.9875 0.8540
C56_6 C 0.88005(19) 0.93824(19) 0.8022(2)
Zn1_7 Zn 0.28024(2) 0.37890(2) 0.12401(2)
Zn5_7 Zn 0.38138(2) 0.37313(2) 0.23145(2)
O1_7 O 0.25911(15) 0.38302(19) 0.16169(13)
O2_7 O 0.15710(13) 0.37023(17) 0.21815(13)
O3_7 O 0.16534(13) 0.38467(17) 0.25701(14)
O4_7 O 0.34427(13) 0.37604(17) 0.24476(14)
O5_7 O 0.35089(14) 0.3931(2) 0.28330(19)
O6_7 O 0.24729(14) 0.38646(17) 0.33781(13)
O7_7 O 0.28820(17) 0.3796(2) 0.34684(15)
O8_7 O 0.30560(12) 0.40102(11) 0.14031(11)
O9_7 O 0.28346(14) 0.43710(12) 0.13655(15)
O10_7 O 0.37308(13) 0.40207(12) 0.20635(12)
O11_7 O 0.38442(13) 0.43939(13) 0.22320(14)
O15_7 O 0.30306(16) 0.37479(16) 0.09149(14)
O16_7 O 0.27931(18) 0.37793(17) 0.05638(14)
O17_7 O 0.3610(2) 0.27657(18) 0.05922(16)
O18_7 O 0.36974(18) 0.30355(17) 0.09081(16)
O27_7 O 0.40179(10) 0.39243(10) 0.25700(10)
O28_7 O 0.25088(11) 0.39401(11) 0.10694(11)
C1_7 C 0.2383(2) 0.3758(2) 0.16828(18)
C2_7 C 0.2317(2) 0.3767(3) 0.19622(19)
C3_7 C 0.2062(2) 0.3758(2) 0.20329(19)
H1_7 H 0.1933 0.3742 0.1907
C4_7 C 0.19974(18) 0.3773(2) 0.22865(19)
C5_7 C 0.17182(19) 0.3778(2) 0.2351(2)
C6_7 C 0.2186(2) 0.3789(2) 0.24699(19)
H2_7 H 0.2140 0.3796 0.2644
C7_7 C 0.25042(18) 0.3788(3) 0.21476(19)
H3_7 H 0.2677 0.3799 0.2098
C8_7 C 0.24427(18) 0.3794(2) 0.24034(18)
C9_7 C 0.26454(18) 0.3805(2) 0.26020(18)
C10_7 C 0.25858(19) 0.3819(2) 0.28567(18)
H4_7 H 0.2412 0.3821 0.2906
C11_7 C 0.29045(19) 0.3807(2) 0.25410(18)
H5_7 H 0.2955 0.3791 0.2368
C12_7 C 0.30893(18) 0.3830(2) 0.2727(2)
C13_7 C 0.3368(2) 0.3834(2) 0.2663(2)
C14_7 C 0.3022(2) 0.3845(2) 0.2974(2)
H6_7 H 0.3149 0.3867 0.3101
C15_7 C 0.27705(19) 0.3830(2) 0.30431(18)
C16_7 C 0.2701(2) 0.3836(2) 0.33198(19)
C17_7 C 0.30218(17) 0.42453(15) 0.14411(16)
C18_7 C 0.32238(18) 0.43866(16) 0.15846(17)
C19_7 C 0.33891(17) 0.42548(16) 0.17416(16)
H7_7 H 0.3386 0.4074 0.1748
C20_7 C 0.35589(17) 0.43927(16) 0.18901(17)
C21_7 C 0.37251(16) 0.42571(16) 0.20771(17)
C22_7 C 0.35711(18) 0.46546(17) 0.18709(18)
H8_7 H 0.3692 0.4746 0.1969
C23_7 C 0.32334(18) 0.46505(17) 0.15697(18)
H9_7 H 0.3118 0.4738 0.1462
C24_7 C 0.34080(18) 0.47850(17) 0.17096(19)
C25_7 C 0.34241(18) 0.50731(17) 0.16918(19)
C26_7 C 0.36021(18) 0.52100(16) 0.18305(19)
H10_7 H 0.3715 0.5122 0.1941
C27_7 C 0.36181(19) 0.54744(18) 0.18113(19)
C28_7 C 0.34543(18) 0.56039(17) 0.16530(18)
H11_7 H 0.3470 0.5783 0.1632
C29_7 C 0.3268(2) 0.54711(18) 0.1526(2)
C30_7 C 0.3072(2) 0.56120(18) 0.1380(2)
C31_7 C 0.3253(2) 0.52124(17) 0.1547(2)
H12_7 H 0.3121 0.5125 0.1460
C32_7 C 0.2988(2) 0.3705(2) 0.0690(2)
C33_7 C 0.3169(2) 0.3533(2) 0.05490(19)
C34_7 C 0.3322(2) 0.3369(2) 0.06878(19)
H13_7 H 0.3332 0.3381 0.0868
C35_7 C 0.3460(2) 0.3185(2) 0.05567(18)
C36_7 C 0.3605(2) 0.2985(2) 0.06985(19)
C37_7 C 0.3451(2) 0.3179(2) 0.02905(18)
H14_7 H 0.3547 0.3054 0.0203
C38_7 C 0.3162(2) 0.35218(19) 0.02818(18)
H15_7 H 0.3055 0.3635 0.0191
C39_7 C 0.3308(2) 0.33501(19) 0.01505(17)
O30_7 O 0.3598(3) 0.3496(3) 0.2036(3)
O31_7 O 0.3700(7) 0.3775(8) 0.3271(4)
O32_7 O 0.22082(14) 0.36707(16) 0.15467(12)
C56_7 C 0.38005(19) 0.56176(19) 0.1978(2)
Zn9_11 Zn 0.12401(2) 0.28024(2) 0.37890(2)
Zn13_7 Zn 0.23145(2) 0.38138(2) 0.37313(2)
O37_11 O 0.16169(13) 0.25911(15) 0.38302(19)
O38_11 O 0.21815(13) 0.15710(13) 0.37023(17)
O39_11 O 0.25701(14) 0.16534(13) 0.38467(17)
O40_11 O 0.24476(14) 0.34427(13) 0.37604(17)
O41_11 O 0.28330(19) 0.35089(14) 0.3931(2)
O42_7 O 0.33781(13) 0.24729(14) 0.38646(17)
O43_7 O 0.34684(15) 0.28820(17) 0.3796(2)
O44_11 O 0.14031(11) 0.30560(12) 0.40102(11)
O45_11 O 0.13655(15) 0.28346(14) 0.43710(12)
O46_11 O 0.20635(12) 0.37308(13) 0.40207(12)
O47_11 O 0.22320(14) 0.38442(13) 0.43939(13)
O51_11 O 0.09149(14) 0.30306(16) 0.37479(16)
O52_11 O 0.05638(14) 0.27931(18) 0.37793(17)
O53_11 O 0.05922(16) 0.3610(2) 0.27657(18)
O54_11 O 0.09081(16) 0.36974(18) 0.30355(17)
O59_11 O 0.25700(10) 0.40179(10) 0.39243(10)
O60_11 O 0.10694(11) 0.25088(11) 0.39401(11)
C65_11 C 0.16828(18) 0.2383(2) 0.3758(2)
C66_11 C 0.19622(19) 0.2317(2) 0.3767(3)
C67_11 C 0.20329(19) 0.2062(2) 0.3758(2)
H25_11 H 0.1907 0.1933 0.3742
C68_11 C 0.22865(19) 0.19974(18) 0.3773(2)
C69_11 C 0.2351(2) 0.17182(19) 0.3778(2)
C70_11 C 0.24699(19) 0.2186(2) 0.3789(2)
H26_11 H 0.2644 0.2140 0.3796
C71_11 C 0.21476(19) 0.25042(18) 0.3788(3)
H27_11 H 0.2098 0.2677 0.3799
C72_11 C 0.24034(18) 0.24427(18) 0.3794(2)
C73_11 C 0.26020(18) 0.26454(18) 0.3805(2)
C74_11 C 0.28567(18) 0.25858(19) 0.3819(2)
H28_11 H 0.2906 0.2412 0.3821
C75_11 C 0.25410(18) 0.29045(19) 0.3807(2)
H29_11 H 0.2368 0.2955 0.3791
C76_11 C 0.2727(2) 0.30893(18) 0.3830(2)
C77_11 C 0.2663(2) 0.3368(2) 0.3834(2)
C78_11 C 0.2974(2) 0.3022(2) 0.3845(2)
H30_11 H 0.3101 0.3149 0.3867
C79_11 C 0.30431(18) 0.27705(19) 0.3830(2)
C80_11 C 0.33198(19) 0.2701(2) 0.3836(2)
C81_11 C 0.14411(16) 0.30218(17) 0.42453(15)
C82_11 C 0.15846(17) 0.32238(18) 0.43866(16)
C83_11 C 0.17416(16) 0.33891(17) 0.42548(16)
H31_11 H 0.1748 0.3386 0.4074
C84_11 C 0.18901(17) 0.35589(17) 0.43927(16)
C85_11 C 0.20771(17) 0.37251(16) 0.42571(16)
C86_11 C 0.18709(18) 0.35711(18) 0.46546(17)
H32_11 H 0.1969 0.3692 0.4746
C87_11 C 0.15697(18) 0.32334(18) 0.46505(17)
H33_11 H 0.1462 0.3118 0.4738
C88_11 C 0.17096(19) 0.34080(18) 0.47850(17)
C89_11 C 0.16918(19) 0.34241(18) 0.50731(17)
C90_11 C 0.18305(19) 0.36021(18) 0.52100(16)
H34_11 H 0.1941 0.3715 0.5122
C91_11 C 0.18113(19) 0.36181(19) 0.54744(18)
C92_11 C 0.16530(18) 0.34543(18) 0.56039(17)
H35_11 H 0.1632 0.3470 0.5783
C93_11 C 0.1526(2) 0.3268(2) 0.54711(18)
C94_11 C 0.1380(2) 0.3072(2) 0.56120(18)
C95_11 C 0.1547(2) 0.3253(2) 0.52124(17)
H36_11 H 0.1460 0.3121 0.5125
C96_11 C 0.0690(2) 0.2988(2) 0.3705(2)
C97_11 C 0.05490(19) 0.3169(2) 0.3533(2)
C98_11 C 0.06878(19) 0.3322(2) 0.3369(2)
H37_11 H 0.0868 0.3332 0.3381
C99_11 C 0.05567(18) 0.3460(2) 0.3185(2)
C100_11 C 0.06985(19) 0.3605(2) 0.2985(2)
C101_11 C 0.02905(18) 0.3451(2) 0.3179(2)
H38_11 H 0.0203 0.3547 0.3054
C102_11 C 0.02818(18) 0.3162(2) 0.35218(19)
H39_11 H 0.0191 0.3055 0.3635
C103_11 C 0.01505(17) 0.3308(2) 0.33501(19)
O62_11 O 0.2036(3) 0.3598(3) 0.3496(3)
O63_11 O 0.3271(4) 0.3700(7) 0.3775(8)
O64_11 O 0.15467(12) 0.22082(14) 0.36707(16)
C112_11 C 0.1978(2) 0.38005(19) 0.56176(19)
Zn17_11 Zn 0.21976(2) 0.12110(2) 0.37599(2)
Zn18_7 Zn 0.12110(2) 0.37599(2) 0.21976(2)
Zn21_7 Zn 0.27720(3) 0.12563(3) 0.38053(2)
Zn22_7 Zn 0.38053(2) 0.27720(3) 0.12563(3)
Zn23_7 Zn 0.12563(3) 0.38053(2) 0.27720(3)
Zn26_7 Zn 0.37944(2) 0.24899(2) 0.07210(2)
Zn27_11 Zn 0.07210(2) 0.37944(2) 0.24899(2)
Zn32_7 Zn 0.37313(2) 0.23145(2) 0.38138(2)
O65_7 O 0.28185(13) 0.34290(13) 0.12977(17)
O66_11 O 0.12977(17) 0.28185(13) 0.34290(13)
O67_7 O 0.24299(14) 0.33466(13) 0.11533(17)
O68_11 O 0.11533(17) 0.24299(14) 0.33466(13)
O69_7 O 0.38646(17) 0.33781(13) 0.24729(14)
O70_7 O 0.3796(2) 0.34684(15) 0.28820(17)
O77_11 O 0.1390(2) 0.22343(18) 0.44078(16)
O78_7 O 0.22343(18) 0.44078(16) 0.1390(2)
O79_11 O 0.13026(18) 0.19645(17) 0.40919(16)
O80_7 O 0.19645(17) 0.40919(16) 0.13026(18)
O85_7 O 0.44789(14) 0.36254(18) 0.22666(15)
O86_11 O 0.22666(15) 0.44789(14) 0.36254(18)
O87_7 O 0.41159(11) 0.36267(13) 0.20561(12)
O88_11 O 0.20561(12) 0.41159(11) 0.36267(13)
O21_7 O 0.36254(18) 0.27334(15) 0.94789(14)
O22_7 O 0.36267(13) 0.29439(12) 0.91159(11)
C40_7 C 0.3303(2) 0.33356(19) 0.98624(18)
C41_7 C 0.31577(19) 0.35022(19) 0.97165(17)
H16_7 H 0.3059 0.3629 0.9800
C42_7 C 0.31528(18) 0.34884(17) 0.94536(17)
C43_7 C 0.2978(2) 0.36515(19) 0.93021(18)
C44_7 C 0.32961(18) 0.33080(17) 0.93285(16)
H17_7 H 0.3300 0.3302 0.9148
C45_7 C 0.34361(18) 0.31338(18) 0.94754(17)
C46_7 C 0.35741(19) 0.29214(18) 0.93414(18)
C47_7 C 0.3435(2) 0.31468(19) 0.97374(18)
H18_7 H 0.3527 0.3024 0.9833
Zn34_7 Zn 0.37313(2) 0.26855(2) 0.88138(2)
Zn46_7 Zn 0.37974(2) 0.24368(2) 0.93576(2)
O57_11 O 0.94789(14) 0.36254(18) 0.27334(15)
O58_11 O 0.91159(11) 0.36267(13) 0.29439(12)
C104_11 C 0.98624(18) 0.3303(2) 0.33356(19)
C105_11 C 0.97165(17) 0.31577(19) 0.35022(19)
H40_11 H 0.9800 0.3059 0.3629
C106_11 C 0.94536(17) 0.31528(18) 0.34884(17)
C107_11 C 0.93021(18) 0.2978(2) 0.36515(19)
C108_11 C 0.93285(16) 0.32961(18) 0.33080(17)
H41_11 H 0.9148 0.3300 0.3302
C109_11 C 0.94754(17) 0.34361(18) 0.31338(18)
C110_11 C 0.93414(18) 0.35741(19) 0.29214(18)
C111_11 C 0.97374(18) 0.3435(2) 0.31468(19)
H42_11 H 0.9833 0.3527 0.3024
Zn33_11 Zn 0.88138(2) 0.37313(2) 0.26855(2)
Zn45_11 Zn 0.93576(2) 0.37974(2) 0.24368(2)
C89_12 C 0.33082(19) 0.65759(18) 0.00731(17)
C90_12 C 0.31695(19) 0.63979(18) 0.02100(16)
H34_12 H 0.3059 0.6285 0.0122
C91_12 C 0.31887(19) 0.63819(19) 0.04744(18)
C92_12 C 0.33470(18) 0.65457(18) 0.06039(17)
H35_12 H 0.3368 0.6530 0.0783
C93_12 C 0.3474(2) 0.6732(2) 0.04711(18)
C94_12 C 0.3620(2) 0.6928(2) 0.06120(18)
C95_12 C 0.3453(2) 0.6747(2) 0.02124(17)
H36_12 H 0.3540 0.6879 0.0125
C112_12 C 0.3022(2) 0.61995(19) 0.06176(19)
Zn1_8 Zn 0.21976(2) 0.62110(2) 0.62401(2)
Zn5_8 Zn 0.11862(2) 0.62687(2) 0.73145(2)
O1_8 O 0.24089(15) 0.61698(19) 0.66169(13)
O2_8 O 0.34290(13) 0.62977(17) 0.71815(13)
O3_8 O 0.33466(13) 0.61533(17) 0.75701(14)
O4_8 O 0.15573(13) 0.62396(17) 0.74476(14)
O5_8 O 0.14911(14) 0.6069(2) 0.78330(19)
O6_8 O 0.25271(14) 0.61354(17) 0.83781(13)
O7_8 O 0.21180(17) 0.6204(2) 0.84684(15)
O8_8 O 0.19440(12) 0.59898(11) 0.64031(11)
O9_8 O 0.21654(14) 0.56290(12) 0.63655(15)
O10_8 O 0.12692(13) 0.59793(12) 0.70635(12)
O11_8 O 0.11558(13) 0.56061(13) 0.72320(14)
O15_8 O 0.19694(16) 0.62521(16) 0.59149(14)
O16_8 O 0.22069(18) 0.62207(17) 0.55638(14)
O17_8 O 0.1390(2) 0.72343(18) 0.55922(16)
O18_8 O 0.13026(18) 0.69645(17) 0.59081(16)
O21_8 O 0.13746(18) 0.72666(15) 0.44789(14)
O22_8 O 0.13733(13) 0.70561(12) 0.41159(11)
O27_8 O 0.09821(10) 0.60757(10) 0.75700(10)
O28_8 O 0.24912(11) 0.60599(11) 0.60694(11)
C1_8 C 0.2617(2) 0.6242(2) 0.66828(18)
C2_8 C 0.2683(2) 0.6233(3) 0.69622(19)
C3_8 C 0.2938(2) 0.6242(2) 0.70329(19)
H1_8 H 0.3067 0.6258 0.6907
C4_8 C 0.30026(18) 0.6227(2) 0.72865(19)
C5_8 C 0.32818(19) 0.6222(2) 0.7351(2)
C6_8 C 0.2814(2) 0.6211(2) 0.74699(19)
H2_8 H 0.2860 0.6204 0.7644
C7_8 C 0.24958(18) 0.6212(3) 0.71476(19)
H3_8 H 0.2323 0.6201 0.7098
C8_8 C 0.25573(18) 0.6206(2) 0.74034(18)
C9_8 C 0.23546(18) 0.6195(2) 0.76020(18)
C10_8 C 0.24142(19) 0.6181(2) 0.78567(18)
H4_8 H 0.2588 0.6179 0.7906
C11_8 C 0.20955(19) 0.6193(2) 0.75410(18)
H5_8 H 0.2045 0.6209 0.7368
C12_8 C 0.19107(18) 0.6170(2) 0.7727(2)
C13_8 C 0.1632(2) 0.6166(2) 0.7663(2)
C14_8 C 0.1978(2) 0.6155(2) 0.7974(2)
H6_8 H 0.1851 0.6133 0.8101
C15_8 C 0.22295(19) 0.6170(2) 0.80431(18)
C16_8 C 0.2299(2) 0.6164(2) 0.83198(19)
C17_8 C 0.19782(17) 0.57547(15) 0.64411(16)
C18_8 C 0.17762(18) 0.56134(16) 0.65846(17)
C19_8 C 0.16109(17) 0.57452(16) 0.67416(16)
H7_8 H 0.1614 0.5926 0.6748
C20_8 C 0.14411(17) 0.56073(16) 0.68901(17)
C21_8 C 0.12749(16) 0.57429(16) 0.70771(17)
C22_8 C 0.14289(18) 0.53454(17) 0.68709(18)
H8_8 H 0.1308 0.5254 0.6969
C23_8 C 0.17666(18) 0.53495(17) 0.65697(18)
H9_8 H 0.1882 0.5262 0.6462
C24_8 C 0.15920(18) 0.52150(17) 0.67096(19)
C25_8 C 0.15759(18) 0.49269(17) 0.66918(19)
C26_8 C 0.13979(18) 0.47900(16) 0.68305(19)
H10_8 H 0.1285 0.4878 0.6941
C27_8 C 0.13819(19) 0.45256(18) 0.68113(19)
C28_8 C 0.15457(18) 0.43961(17) 0.66530(18)
H11_8 H 0.1530 0.4217 0.6632
C29_8 C 0.1732(2) 0.45289(18) 0.6526(2)
C30_8 C 0.1928(2) 0.43880(18) 0.6380(2)
C31_8 C 0.1747(2) 0.47876(17) 0.6547(2)
H12_8 H 0.1879 0.4875 0.6460
C32_8 C 0.2012(2) 0.6295(2) 0.5690(2)
C33_8 C 0.1831(2) 0.6467(2) 0.55490(19)
C34_8 C 0.1678(2) 0.6631(2) 0.56878(19)
H13_8 H 0.1668 0.6619 0.5868
C35_8 C 0.1540(2) 0.6815(2) 0.55567(18)
C36_8 C 0.1395(2) 0.7015(2) 0.56985(19)
C37_8 C 0.1549(2) 0.6821(2) 0.52905(18)
H14_8 H 0.1453 0.6946 0.5203
C38_8 C 0.1838(2) 0.64782(19) 0.52818(18)
H15_8 H 0.1945 0.6365 0.5191
C39_8 C 0.1692(2) 0.66499(19) 0.51505(17)
C40_8 C 0.1697(2) 0.66644(19) 0.48624(18)
C41_8 C 0.18423(19) 0.64978(19) 0.47165(17)
H16_8 H 0.1941 0.6371 0.4800
C42_8 C 0.18472(18) 0.65116(17) 0.44536(17)
C43_8 C 0.2022(2) 0.63485(19) 0.43021(18)
C44_8 C 0.17039(18) 0.66920(17) 0.43285(16)
H17_8 H 0.1700 0.6698 0.4148
C45_8 C 0.15639(18) 0.68662(18) 0.44754(17)
C46_8 C 0.14259(19) 0.70786(18) 0.43414(18)
C47_8 C 0.1565(2) 0.68532(19) 0.47374(18)
H18_8 H 0.1473 0.6976 0.4833
O30_8 O 0.1402(3) 0.6504(3) 0.7036(3)
O31_8 O 0.1300(7) 0.6225(8) 0.8271(4)
O32_8 O 0.27918(14) 0.63293(16) 0.65467(12)
C56_8 C 0.11995(19) 0.43824(19) 0.6978(2)
Zn9_12 Zn 0.37599(2) 0.71976(2) 0.87890(2)
Zn13_8 Zn 0.26855(2) 0.61862(2) 0.87313(2)
O37_12 O 0.33831(13) 0.74089(15) 0.88302(19)
O38_12 O 0.28185(13) 0.84290(13) 0.87023(17)
O39_12 O 0.24299(14) 0.83466(13) 0.88467(17)
O40_12 O 0.25524(14) 0.65573(13) 0.87604(17)
O41_12 O 0.21670(19) 0.64911(14) 0.8931(2)
O42_8 O 0.16219(13) 0.75271(14) 0.88646(17)
O43_8 O 0.15316(15) 0.71180(17) 0.8796(2)
O44_12 O 0.35969(11) 0.69440(12) 0.90102(11)
O45_12 O 0.36345(15) 0.71654(14) 0.93710(12)
O46_12 O 0.29365(12) 0.62692(13) 0.90207(12)
O47_12 O 0.27680(14) 0.61558(13) 0.93939(13)
O51_12 O 0.40851(14) 0.69694(16) 0.87479(16)
O52_12 O 0.44362(14) 0.72069(18) 0.87793(17)
O53_12 O 0.44078(16) 0.6390(2) 0.77657(18)
O54_12 O 0.40919(16) 0.63026(18) 0.80355(17)
O57_12 O 0.55211(14) 0.63746(18) 0.77334(15)
O58_12 O 0.58841(11) 0.63733(13) 0.79439(12)
O59_12 O 0.24300(10) 0.59821(10) 0.89243(10)
O60_12 O 0.39306(11) 0.74912(11) 0.89401(11)
C65_12 C 0.33172(18) 0.7617(2) 0.8758(2)
C66_12 C 0.30378(19) 0.7683(2) 0.8767(3)
C67_12 C 0.29671(19) 0.7938(2) 0.8758(2)
H25_12 H 0.3093 0.8067 0.8742
C68_12 C 0.27135(19) 0.80026(18) 0.8773(2)
C69_12 C 0.2649(2) 0.82818(19) 0.8778(2)
C70_12 C 0.25301(19) 0.7814(2) 0.8789(2)
H26_12 H 0.2356 0.7860 0.8796
C71_12 C 0.28524(19) 0.74958(18) 0.8788(3)
H27_12 H 0.2902 0.7323 0.8799
C72_12 C 0.25966(18) 0.75573(18) 0.8794(2)
C73_12 C 0.23980(18) 0.73546(18) 0.8805(2)
C74_12 C 0.21433(18) 0.74142(19) 0.8819(2)
H28_12 H 0.2094 0.7588 0.8821
C75_12 C 0.24590(18) 0.70955(19) 0.8807(2)
H29_12 H 0.2632 0.7045 0.8791
C76_12 C 0.2273(2) 0.69107(18) 0.8830(2)
C77_12 C 0.2337(2) 0.6632(2) 0.8834(2)
C78_12 C 0.2026(2) 0.6978(2) 0.8845(2)
H30_12 H 0.1899 0.6851 0.8867
C79_12 C 0.19569(18) 0.72295(19) 0.8830(2)
C80_12 C 0.16802(19) 0.7299(2) 0.8836(2)
C81_12 C 0.35589(16) 0.69782(17) 0.92453(15)
C82_12 C 0.34154(17) 0.67762(18) 0.93866(16)
C83_12 C 0.32584(16) 0.66109(17) 0.92548(16)
H31_12 H 0.3252 0.6614 0.9074
C84_12 C 0.31099(17) 0.64411(17) 0.93927(16)
C85_12 C 0.29229(17) 0.62749(16) 0.92571(16)
C86_12 C 0.31291(18) 0.64289(18) 0.96546(17)
H32_12 H 0.3031 0.6308 0.9746
C87_12 C 0.34303(18) 0.67666(18) 0.96505(17)
H33_12 H 0.3538 0.6882 0.9738
C88_12 C 0.32904(19) 0.65920(18) 0.97850(17)
C96_12 C 0.4310(2) 0.7012(2) 0.8705(2)
C97_12 C 0.44510(19) 0.6831(2) 0.8533(2)
C98_12 C 0.43122(19) 0.6678(2) 0.8369(2)
H37_12 H 0.4132 0.6668 0.8381
C99_12 C 0.44433(18) 0.6540(2) 0.8185(2)
C100_12 C 0.43015(19) 0.6395(2) 0.7985(2)
C101_12 C 0.47095(18) 0.6549(2) 0.8179(2)
H38_12 H 0.4797 0.6453 0.8054
C102_12 C 0.47182(18) 0.6838(2) 0.85218(19)
H39_12 H 0.4809 0.6945 0.8635
C103_12 C 0.48495(17) 0.6692(2) 0.83501(19)
C104_12 C 0.51376(18) 0.6697(2) 0.83356(19)
C105_12 C 0.52835(17) 0.68423(19) 0.85022(19)
H40_12 H 0.5200 0.6941 0.8629
C106_12 C 0.55464(17) 0.68472(18) 0.84884(17)
C107_12 C 0.56979(18) 0.7022(2) 0.86515(19)
C108_12 C 0.56715(16) 0.67039(18) 0.83080(17)
H41_12 H 0.5852 0.6700 0.8302
C109_12 C 0.55246(17) 0.65639(18) 0.81338(18)
C110_12 C 0.56586(18) 0.64259(19) 0.79214(18)
C111_12 C 0.52626(18) 0.6565(2) 0.81468(19)
H42_12 H 0.5167 0.6473 0.8024
O62_12 O 0.2964(3) 0.6402(3) 0.8496(3)
O63_12 O 0.1729(4) 0.6300(7) 0.8775(8)
O64_12 O 0.34533(12) 0.77918(14) 0.86707(16)
Zn17_12 Zn 0.28024(2) 0.87890(2) 0.87599(2)
Zn18_8 Zn 0.37890(2) 0.62401(2) 0.71976(2)
Zn21_8 Zn 0.22280(3) 0.87437(3) 0.88053(2)
Zn22_8 Zn 0.11947(2) 0.72280(3) 0.62563(3)
Zn23_8 Zn 0.37437(3) 0.61947(2) 0.77720(3)
Zn26_8 Zn 0.12056(2) 0.75101(2) 0.57210(2)
Zn27_12 Zn 0.42790(2) 0.62056(2) 0.74899(2)
Zn32_8 Zn 0.12687(2) 0.76855(2) 0.88138(2)
Zn33_12 Zn 0.61862(2) 0.62687(2) 0.76855(2)
Zn34_8 Zn 0.12687(2) 0.73145(2) 0.38138(2)
Zn45_12 Zn 0.56424(2) 0.62026(2) 0.74368(2)
Zn46_8 Zn 0.12026(2) 0.75632(2) 0.43576(2)
O65_8 O 0.21815(13) 0.65710(13) 0.62977(17)
O66_12 O 0.37023(17) 0.71815(13) 0.84290(13)
O67_8 O 0.25701(14) 0.66534(13) 0.61533(17)
O68_12 O 0.38467(17) 0.75701(14) 0.83466(13)
O69_8 O 0.11354(17) 0.66219(13) 0.74729(14)
O70_8 O 0.1204(2) 0.65316(15) 0.78820(17)
O77_12 O 0.3610(2) 0.77657(18) 0.94078(16)
O78_8 O 0.27657(18) 0.55922(16) 0.6390(2)
O79_12 O 0.36974(18) 0.80355(17) 0.90919(16)
O80_8 O 0.30355(17) 0.59081(16) 0.63026(18)
O85_8 O 0.05211(14) 0.63746(18) 0.72666(15)
O86_12 O 0.27334(15) 0.55211(14) 0.86254(18)
O87_8 O 0.08841(11) 0.63733(13) 0.70561(12)
O88_12 O 0.29439(12) 0.58841(11) 0.86267(13)
O57_13 O 0.22666(15) 0.05211(14) 0.86254(18)
O58_13 O 0.20561(12) 0.08841(11) 0.86267(13)
C104_13 C 0.16644(19) 0.01376(18) 0.8303(2)
C105_13 C 0.14978(19) 0.02835(17) 0.81577(19)
H40_13 H 0.1371 0.0200 0.8059
C106_13 C 0.15116(17) 0.05464(17) 0.81528(18)
C107_13 C 0.13485(19) 0.06979(18) 0.7978(2)
C108_13 C 0.16920(17) 0.06715(16) 0.82961(18)
H41_13 H 0.1698 0.0852 0.8300
C109_13 C 0.18662(18) 0.05246(17) 0.84361(18)
C110_13 C 0.20786(18) 0.06586(18) 0.85741(19)
C111_13 C 0.18532(19) 0.02626(18) 0.8435(2)
H42_13 H 0.1976 0.0167 0.8527
Zn33_13 Zn 0.23145(2) 0.11862(2) 0.87313(2)
Zn45_13 Zn 0.25632(2) 0.06424(2) 0.87974(2)
Zn9_13 Zn 0.12110(2) 0.87599(2) 0.78024(2)
O37_13 O 0.11698(19) 0.83831(13) 0.75911(15)
O38_13 O 0.12977(17) 0.78185(13) 0.65710(13)
O39_13 O 0.11533(17) 0.74299(14) 0.66534(13)
O40_13 O 0.12396(17) 0.75524(14) 0.84427(13)
O41_13 O 0.1069(2) 0.71670(19) 0.85089(14)
O44_13 O 0.09898(11) 0.85969(11) 0.80560(12)
O45_13 O 0.06290(12) 0.86345(15) 0.78346(14)
O46_13 O 0.09793(12) 0.79365(12) 0.87308(13)
O47_13 O 0.06061(13) 0.77680(14) 0.88442(13)
O51_13 O 0.12521(16) 0.90851(14) 0.80306(16)
O52_13 O 0.12207(17) 0.94362(14) 0.77931(18)
O53_13 O 0.22343(18) 0.94078(16) 0.8610(2)
O54_13 O 0.19645(17) 0.90919(16) 0.86974(18)
O59_13 O 0.10757(10) 0.74300(10) 0.90179(10)
O60_13 O 0.10599(11) 0.89306(11) 0.75088(11)
C65_13 C 0.1242(2) 0.83172(18) 0.7383(2)
C66_13 C 0.1233(3) 0.80378(19) 0.7317(2)
C67_13 C 0.1242(2) 0.79671(19) 0.7062(2)
H25_13 H 0.1258 0.8093 0.6933
C68_13 C 0.1227(2) 0.77135(19) 0.69974(18)
C69_13 C 0.1222(2) 0.7649(2) 0.67182(19)
C70_13 C 0.1211(2) 0.75301(19) 0.7186(2)
H26_13 H 0.1204 0.7356 0.7140
C71_13 C 0.1212(3) 0.78524(19) 0.75042(18)
H27_13 H 0.1201 0.7902 0.7677
C72_13 C 0.1206(2) 0.75966(18) 0.74427(18)
C73_13 C 0.1195(2) 0.73980(18) 0.76454(18)
C74_13 C 0.1181(2) 0.71433(18) 0.75858(19)
H28_13 H 0.1179 0.7094 0.7412
C75_13 C 0.1193(2) 0.74590(18) 0.79045(19)
H29_13 H 0.1209 0.7632 0.7955
C76_13 C 0.1170(2) 0.7273(2) 0.80893(18)
C77_13 C 0.1166(2) 0.7337(2) 0.8368(2)
C78_13 C 0.1155(2) 0.7026(2) 0.8022(2)
H30_13 H 0.1133 0.6899 0.8149
C79_13 C 0.1170(2) 0.69569(18) 0.77705(19)
C80_13 C 0.1164(2) 0.66802(19) 0.7701(2)
C81_13 C 0.07547(15) 0.85589(16) 0.80218(17)
C82_13 C 0.06134(16) 0.84154(17) 0.82238(18)
C83_13 C 0.07452(16) 0.82584(16) 0.83891(17)
H31_13 H 0.0926 0.8252 0.8386
C84_13 C 0.06073(16) 0.81099(17) 0.85589(17)
C85_13 C 0.07429(16) 0.79229(17) 0.87251(16)
C86_13 C 0.03454(17) 0.81291(18) 0.85711(18)
H32_13 H 0.0254 0.8031 0.8692
C87_13 C 0.03495(17) 0.84303(18) 0.82334(18)
H33_13 H 0.0262 0.8538 0.8118
C88_13 C 0.02150(17) 0.82904(19) 0.84080(18)
C96_13 C 0.1295(2) 0.9310(2) 0.7988(2)
C97_13 C 0.1467(2) 0.94510(19) 0.8169(2)
C98_13 C 0.1631(2) 0.93122(19) 0.8322(2)
H37_13 H 0.1619 0.9132 0.8332
C99_13 C 0.1815(2) 0.94433(18) 0.8460(2)
C100_13 C 0.2015(2) 0.93015(19) 0.8605(2)
C101_13 C 0.1821(2) 0.97095(18) 0.8451(2)
H38_13 H 0.1946 0.9797 0.8547
C102_13 C 0.14782(19) 0.97182(18) 0.8162(2)
H39_13 H 0.1365 0.9809 0.8055
C103_13 C 0.16499(19) 0.98495(17) 0.8308(2)
O62_13 O 0.1504(3) 0.7964(3) 0.8598(3)
O63_13 O 0.1225(8) 0.6729(4) 0.8700(7)
O64_13 O 0.13293(16) 0.84533(12) 0.72082(14)
Zn17_13 Zn 0.12401(2) 0.78024(2) 0.62110(2)
Zn27_13 Zn 0.25101(2) 0.92790(2) 0.87944(2)
O66_13 O 0.15710(13) 0.87023(17) 0.78185(13)
O68_13 O 0.16534(13) 0.88467(17) 0.74299(14)
O77_13 O 0.05922(16) 0.8610(2) 0.72343(18)
O79_13 O 0.09081(16) 0.86974(18) 0.69645(17)
O86_13 O 0.13746(18) 0.77334(15) 0.94789(14)
O88_13 O 0.13733(13) 0.79439(12) 0.91159(11)
C89_13 C 0.99269(17) 0.83082(19) 0.84241(18)
C90_13 C 0.97900(16) 0.81695(19) 0.86021(18)
H34_13 H 0.9878 0.8059 0.8715
C91_13 C 0.95256(18) 0.81887(19) 0.86181(19)
C92_13 C 0.93961(17) 0.83470(18) 0.84543(18)
H35_13 H 0.9217 0.8368 0.8470
C93_13 C 0.95289(18) 0.8474(2) 0.8268(2)
C94_13 C 0.93880(18) 0.8620(2) 0.8072(2)
C95_13 C 0.97876(17) 0.8453(2) 0.8253(2)
H36_13 H 0.9875 0.8540 0.8121
C112_13 C 0.93824(19) 0.8022(2) 0.88005(19)
Zn9_14 Zn 0.62110(2) 0.62401(2) 0.21976(2)
O37_14 O 0.61698(19) 0.66169(13) 0.24089(15)
O38_14 O 0.62977(17) 0.71815(13) 0.34290(13)
O39_14 O 0.61533(17) 0.75701(14) 0.33466(13)
O40_14 O 0.62396(17) 0.74476(14) 0.15573(13)
O41_14 O 0.6069(2) 0.78330(19) 0.14911(14)
O44_14 O 0.59898(11) 0.64031(11) 0.19440(12)
O45_14 O 0.56290(12) 0.63655(15) 0.21654(14)
O46_14 O 0.59793(12) 0.70635(12) 0.12692(13)
O47_14 O 0.56061(13) 0.72320(14) 0.11558(13)
O51_14 O 0.62521(16) 0.59149(14) 0.19694(16)
O52_14 O 0.62207(17) 0.55638(14) 0.22069(18)
O53_14 O 0.72343(18) 0.55922(16) 0.1390(2)
O54_14 O 0.69645(17) 0.59081(16) 0.13026(18)
O57_14 O 0.72666(15) 0.44789(14) 0.13746(18)
O58_14 O 0.70561(12) 0.41159(11) 0.13733(13)
O59_14 O 0.60757(10) 0.75700(10) 0.09821(10)
O60_14 O 0.60599(11) 0.60694(11) 0.24912(11)
C65_14 C 0.6242(2) 0.66828(18) 0.2617(2)
C66_14 C 0.6233(3) 0.69622(19) 0.2683(2)
C67_14 C 0.6242(2) 0.70329(19) 0.2938(2)
H25_14 H 0.6258 0.6907 0.3067
C68_14 C 0.6227(2) 0.72865(19) 0.30026(18)
C69_14 C 0.6222(2) 0.7351(2) 0.32818(19)
C70_14 C 0.6211(2) 0.74699(19) 0.2814(2)
H26_14 H 0.6204 0.7644 0.2860
C71_14 C 0.6212(3) 0.71476(19) 0.24958(18)
H27_14 H 0.6201 0.7098 0.2323
C72_14 C 0.6206(2) 0.74034(18) 0.25573(18)
C73_14 C 0.6195(2) 0.76020(18) 0.23546(18)
C74_14 C 0.6181(2) 0.78567(18) 0.24142(19)
H28_14 H 0.6179 0.7906 0.2588
C75_14 C 0.6193(2) 0.75410(18) 0.20955(19)
H29_14 H 0.6209 0.7368 0.2045
C76_14 C 0.6170(2) 0.7727(2) 0.19107(18)
C77_14 C 0.6166(2) 0.7663(2) 0.1632(2)
C78_14 C 0.6155(2) 0.7974(2) 0.1978(2)
H30_14 H 0.6133 0.8101 0.1851
C79_14 C 0.6170(2) 0.80431(18) 0.22295(19)
C80_14 C 0.6164(2) 0.83198(19) 0.2299(2)
C81_14 C 0.57547(15) 0.64411(16) 0.19782(17)
C82_14 C 0.56134(16) 0.65846(17) 0.17762(18)
C83_14 C 0.57452(16) 0.67416(16) 0.16109(17)
H31_14 H 0.5926 0.6748 0.1614
C84_14 C 0.56073(16) 0.68901(17) 0.14411(17)
C85_14 C 0.57429(16) 0.70771(17) 0.12749(16)
C86_14 C 0.53454(17) 0.68709(18) 0.14289(18)
H32_14 H 0.5254 0.6969 0.1308
C87_14 C 0.53495(17) 0.65697(18) 0.17666(18)
H33_14 H 0.5262 0.6462 0.1882
C88_14 C 0.52150(17) 0.67096(19) 0.15920(18)
C89_14 C 0.49269(17) 0.66918(19) 0.15759(18)
C90_14 C 0.47900(16) 0.68305(19) 0.13979(18)
H34_14 H 0.4878 0.6941 0.1285
C91_14 C 0.45256(18) 0.68113(19) 0.13819(19)
C92_14 C 0.43961(17) 0.66530(18) 0.15457(18)
H35_14 H 0.4217 0.6632 0.1530
C93_14 C 0.45289(18) 0.6526(2) 0.1732(2)
C94_14 C 0.43880(18) 0.6380(2) 0.1928(2)
C95_14 C 0.47876(17) 0.6547(2) 0.1747(2)
H36_14 H 0.4875 0.6460 0.1879
C96_14 C 0.6295(2) 0.5690(2) 0.2012(2)
C97_14 C 0.6467(2) 0.55490(19) 0.1831(2)
C98_14 C 0.6631(2) 0.56878(19) 0.1678(2)
H37_14 H 0.6619 0.5868 0.1668
C99_14 C 0.6815(2) 0.55567(18) 0.1540(2)
C100_14 C 0.7015(2) 0.56985(19) 0.1395(2)
C101_14 C 0.6821(2) 0.52905(18) 0.1549(2)
H38_14 H 0.6946 0.5203 0.1453
C102_14 C 0.64782(19) 0.52818(18) 0.1838(2)
H39_14 H 0.6365 0.5191 0.1945
C103_14 C 0.66499(19) 0.51505(17) 0.1692(2)
C104_14 C 0.66644(19) 0.48624(18) 0.1697(2)
C105_14 C 0.64978(19) 0.47165(17) 0.18423(19)
H40_14 H 0.6371 0.4800 0.1941
C106_14 C 0.65116(17) 0.44536(17) 0.18472(18)
C107_14 C 0.63485(19) 0.43021(18) 0.2022(2)
C108_14 C 0.66920(17) 0.43285(16) 0.17039(18)
H41_14 H 0.6698 0.4148 0.1700
C109_14 C 0.68662(18) 0.44754(17) 0.15639(18)
C110_14 C 0.70786(18) 0.43414(18) 0.14259(19)
C111_14 C 0.68532(19) 0.47374(18) 0.1565(2)
H42_14 H 0.6976 0.4833 0.1473
O62_14 O 0.6504(3) 0.7036(3) 0.1402(3)
O63_14 O 0.6225(8) 0.8271(4) 0.1300(7)
O64_14 O 0.63293(16) 0.65467(12) 0.27918(14)
C112_14 C 0.43824(19) 0.6978(2) 0.11995(19)
Zn17_14 Zn 0.62401(2) 0.71976(2) 0.37890(2)
Zn27_14 Zn 0.75101(2) 0.57210(2) 0.12056(2)
Zn33_14 Zn 0.73145(2) 0.38138(2) 0.12687(2)
Zn45_14 Zn 0.75632(2) 0.43576(2) 0.12026(2)
O66_14 O 0.65710(13) 0.62977(17) 0.21815(13)
O68_14 O 0.66534(13) 0.61533(17) 0.25701(14)
O77_14 O 0.55922(16) 0.6390(2) 0.27657(18)
O79_14 O 0.59081(16) 0.63026(18) 0.30355(17)
O86_14 O 0.63746(18) 0.72666(15) 0.05211(14)
O88_14 O 0.63733(13) 0.70561(12) 0.08841(11)
Zn9_15 Zn 0.37890(2) 0.12401(2) 0.28024(2)
O37_15 O 0.38302(19) 0.16169(13) 0.25911(15)
O38_15 O 0.37023(17) 0.21815(13) 0.15710(13)
O39_15 O 0.38467(17) 0.25701(14) 0.16534(13)
O40_15 O 0.37604(17) 0.24476(14) 0.34427(13)
O41_15 O 0.3931(2) 0.28330(19) 0.35089(14)
O44_15 O 0.40102(11) 0.14031(11) 0.30560(12)
O45_15 O 0.43710(12) 0.13655(15) 0.28346(14)
O46_15 O 0.40207(12) 0.20635(12) 0.37308(13)
O47_15 O 0.43939(13) 0.22320(14) 0.38442(13)
O51_15 O 0.37479(16) 0.09149(14) 0.30306(16)
O52_15 O 0.37793(17) 0.05638(14) 0.27931(18)
O53_15 O 0.27657(18) 0.05922(16) 0.3610(2)
O54_15 O 0.30355(17) 0.09081(16) 0.36974(18)
O59_15 O 0.39243(10) 0.25700(10) 0.40179(10)
O60_15 O 0.39401(11) 0.10694(11) 0.25088(11)
C65_15 C 0.3758(2) 0.16828(18) 0.2383(2)
C66_15 C 0.3767(3) 0.19622(19) 0.2317(2)
C67_15 C 0.3758(2) 0.20329(19) 0.2062(2)
H25_15 H 0.3742 0.1907 0.1933
C68_15 C 0.3773(2) 0.22865(19) 0.19974(18)
C69_15 C 0.3778(2) 0.2351(2) 0.17182(19)
C70_15 C 0.3789(2) 0.24699(19) 0.2186(2)
H26_15 H 0.3796 0.2644 0.2140
C71_15 C 0.3788(3) 0.21476(19) 0.25042(18)
H27_15 H 0.3799 0.2098 0.2677
C72_15 C 0.3794(2) 0.24034(18) 0.24427(18)
C73_15 C 0.3805(2) 0.26020(18) 0.26454(18)
C74_15 C 0.3819(2) 0.28567(18) 0.25858(19)
H28_15 H 0.3821 0.2906 0.2412
C75_15 C 0.3807(2) 0.25410(18) 0.29045(19)
H29_15 H 0.3791 0.2368 0.2955
C76_15 C 0.3830(2) 0.2727(2) 0.30893(18)
C77_15 C 0.3834(2) 0.2663(2) 0.3368(2)
C78_15 C 0.3845(2) 0.2974(2) 0.3022(2)
H30_15 H 0.3867 0.3101 0.3149
C79_15 C 0.3830(2) 0.30431(18) 0.27705(19)
C80_15 C 0.3836(2) 0.33198(19) 0.2701(2)
C81_15 C 0.42453(15) 0.14411(16) 0.30218(17)
C82_15 C 0.43866(16) 0.15846(17) 0.32238(18)
C83_15 C 0.42548(16) 0.17416(16) 0.33891(17)
H31_15 H 0.4074 0.1748 0.3386
C84_15 C 0.43927(16) 0.18901(17) 0.35589(17)
C85_15 C 0.42571(16) 0.20771(17) 0.37251(16)
C86_15 C 0.46546(17) 0.18709(18) 0.35711(18)
H32_15 H 0.4746 0.1969 0.3692
C87_15 C 0.46505(17) 0.15697(18) 0.32334(18)
H33_15 H 0.4738 0.1462 0.3118
C88_15 C 0.47850(17) 0.17096(19) 0.34080(18)
C89_15 C 0.50731(17) 0.16918(19) 0.34241(18)
C90_15 C 0.52100(16) 0.18305(19) 0.36021(18)
H34_15 H 0.5122 0.1941 0.3715
C91_15 C 0.54744(18) 0.18113(19) 0.36181(19)
C92_15 C 0.56039(17) 0.16530(18) 0.34543(18)
H35_15 H 0.5783 0.1632 0.3470
C93_15 C 0.54711(18) 0.1526(2) 0.3268(2)
C94_15 C 0.56120(18) 0.1380(2) 0.3072(2)
C95_15 C 0.52124(17) 0.1547(2) 0.3253(2)
H36_15 H 0.5125 0.1460 0.3121
C96_15 C 0.3705(2) 0.0690(2) 0.2988(2)
C97_15 C 0.3533(2) 0.05490(19) 0.3169(2)
C98_15 C 0.3369(2) 0.06878(19) 0.3322(2)
H37_15 H 0.3381 0.0868 0.3332
C99_15 C 0.3185(2) 0.05567(18) 0.3460(2)
C100_15 C 0.2985(2) 0.06985(19) 0.3605(2)
C101_15 C 0.3179(2) 0.02905(18) 0.3451(2)
H38_15 H 0.3054 0.0203 0.3547
C102_15 C 0.35218(19) 0.02818(18) 0.3162(2)
H39_15 H 0.3635 0.0191 0.3055
C103_15 C 0.33501(19) 0.01505(17) 0.3308(2)
O62_15 O 0.3496(3) 0.2036(3) 0.3598(3)
O63_15 O 0.3775(8) 0.3271(4) 0.3700(7)
O64_15 O 0.36707(16) 0.15467(12) 0.22082(14)
C112_15 C 0.56176(19) 0.1978(2) 0.38005(19)
Zn17_15 Zn 0.37599(2) 0.21976(2) 0.12110(2)
Zn27_15 Zn 0.24899(2) 0.07210(2) 0.37944(2)
O66_15 O 0.34290(13) 0.12977(17) 0.28185(13)
O68_15 O 0.33466(13) 0.11533(17) 0.24299(14)
O77_15 O 0.44078(16) 0.1390(2) 0.22343(18)
O79_15 O 0.40919(16) 0.13026(18) 0.19645(17)
O86_15 O 0.36254(18) 0.22666(15) 0.44789(14)
O88_15 O 0.36267(13) 0.20561(12) 0.41159(11)
O57_15 O 0.27334(15) 0.94789(14) 0.36254(18)
O58_15 O 0.29439(12) 0.91159(11) 0.36267(13)
C104_15 C 0.33356(19) 0.98624(18) 0.3303(2)
C105_15 C 0.35022(19) 0.97165(17) 0.31577(19)
H40_15 H 0.3629 0.9800 0.3059
C106_15 C 0.34884(17) 0.94536(17) 0.31528(18)
C107_15 C 0.36515(19) 0.93021(18) 0.2978(2)
C108_15 C 0.33080(17) 0.93285(16) 0.32961(18)
H41_15 H 0.3302 0.9148 0.3300
C109_15 C 0.31338(18) 0.94754(17) 0.34361(18)
C110_15 C 0.29214(18) 0.93414(18) 0.35741(19)
C111_15 C 0.31468(19) 0.97374(18) 0.3435(2)
H42_15 H 0.3024 0.9833 0.3527
Zn33_15 Zn 0.26855(2) 0.88138(2) 0.37313(2)
Zn45_15 Zn 0.24368(2) 0.93576(2) 0.37974(2)
C89_16 C 0.00731(17) 0.33082(19) 0.65759(18)
C90_16 C 0.02100(16) 0.31695(19) 0.63979(18)
H34_16 H 0.0122 0.3059 0.6285
C91_16 C 0.04744(18) 0.31887(19) 0.63819(19)
C92_16 C 0.06039(17) 0.33470(18) 0.65457(18)
H35_16 H 0.0783 0.3368 0.6530
C93_16 C 0.04711(18) 0.3474(2) 0.6732(2)
C94_16 C 0.06120(18) 0.3620(2) 0.6928(2)
C95_16 C 0.02124(17) 0.3453(2) 0.6747(2)
H36_16 H 0.0125 0.3540 0.6879
C112_16 C 0.06176(19) 0.3022(2) 0.61995(19)
Zn9_16 Zn 0.87890(2) 0.37599(2) 0.71976(2)
O37_16 O 0.88302(19) 0.33831(13) 0.74089(15)
O38_16 O 0.87023(17) 0.28185(13) 0.84290(13)
O39_16 O 0.88467(17) 0.24299(14) 0.83466(13)
O40_16 O 0.87604(17) 0.25524(14) 0.65573(13)
O41_16 O 0.8931(2) 0.21670(19) 0.64911(14)
O44_16 O 0.90102(11) 0.35969(11) 0.69440(12)
O45_16 O 0.93710(12) 0.36345(15) 0.71654(14)
O46_16 O 0.90207(12) 0.29365(12) 0.62692(13)
O47_16 O 0.93939(13) 0.27680(14) 0.61558(13)
O51_16 O 0.87479(16) 0.40851(14) 0.69694(16)
O52_16 O 0.87793(17) 0.44362(14) 0.72069(18)
O53_16 O 0.77657(18) 0.44078(16) 0.6390(2)
O54_16 O 0.80355(17) 0.40919(16) 0.63026(18)
O57_16 O 0.77334(15) 0.55211(14) 0.63746(18)
O58_16 O 0.79439(12) 0.58841(11) 0.63733(13)
O59_16 O 0.89243(10) 0.24300(10) 0.59821(10)
O60_16 O 0.89401(11) 0.39306(11) 0.74912(11)
C65_16 C 0.8758(2) 0.33172(18) 0.7617(2)
C66_16 C 0.8767(3) 0.30378(19) 0.7683(2)
C67_16 C 0.8758(2) 0.29671(19) 0.7938(2)
H25_16 H 0.8742 0.3093 0.8067
C68_16 C 0.8773(2) 0.27135(19) 0.80026(18)
C69_16 C 0.8778(2) 0.2649(2) 0.82818(19)
C70_16 C 0.8789(2) 0.25301(19) 0.7814(2)
H26_16 H 0.8796 0.2356 0.7860
C71_16 C 0.8788(3) 0.28524(19) 0.74958(18)
H27_16 H 0.8799 0.2902 0.7323
C72_16 C 0.8794(2) 0.25966(18) 0.75573(18)
C73_16 C 0.8805(2) 0.23980(18) 0.73546(18)
C74_16 C 0.8819(2) 0.21433(18) 0.74142(19)
H28_16 H 0.8821 0.2094 0.7588
C75_16 C 0.8807(2) 0.24590(18) 0.70955(19)
H29_16 H 0.8791 0.2632 0.7045
C76_16 C 0.8830(2) 0.2273(2) 0.69107(18)
C77_16 C 0.8834(2) 0.2337(2) 0.6632(2)
C78_16 C 0.8845(2) 0.2026(2) 0.6978(2)
H30_16 H 0.8867 0.1899 0.6851
C79_16 C 0.8830(2) 0.19569(18) 0.72295(19)
C80_16 C 0.8836(2) 0.16802(19) 0.7299(2)
C81_16 C 0.92453(15) 0.35589(16) 0.69782(17)
C82_16 C 0.93866(16) 0.34154(17) 0.67762(18)
C83_16 C 0.92548(16) 0.32584(16) 0.66109(17)
H31_16 H 0.9074 0.3252 0.6614
C84_16 C 0.93927(16) 0.31099(17) 0.64411(17)
C85_16 C 0.92571(16) 0.29229(17) 0.62749(16)
C86_16 C 0.96546(17) 0.31291(18) 0.64289(18)
H32_16 H 0.9746 0.3031 0.6308
C87_16 C 0.96505(17) 0.34303(18) 0.67666(18)
H33_16 H 0.9738 0.3538 0.6882
C88_16 C 0.97850(17) 0.32904(19) 0.65920(18)
C96_16 C 0.8705(2) 0.4310(2) 0.7012(2)
C97_16 C 0.8533(2) 0.44510(19) 0.6831(2)
C98_16 C 0.8369(2) 0.43122(19) 0.6678(2)
H37_16 H 0.8381 0.4132 0.6668
C99_16 C 0.8185(2) 0.44433(18) 0.6540(2)
C100_16 C 0.7985(2) 0.43015(19) 0.6395(2)
C101_16 C 0.8179(2) 0.47095(18) 0.6549(2)
H38_16 H 0.8054 0.4797 0.6453
C102_16 C 0.85218(19) 0.47182(18) 0.6838(2)
H39_16 H 0.8635 0.4809 0.6945
C103_16 C 0.83501(19) 0.48495(17) 0.6692(2)
C104_16 C 0.83356(19) 0.51376(18) 0.6697(2)
C105_16 C 0.85022(19) 0.52835(17) 0.68423(19)
H40_16 H 0.8629 0.5200 0.6941
C106_16 C 0.84884(17) 0.55464(17) 0.68472(18)
C107_16 C 0.86515(19) 0.56979(18) 0.7022(2)
C108_16 C 0.83080(17) 0.56715(16) 0.67039(18)
H41_16 H 0.8302 0.5852 0.6700
C109_16 C 0.81338(18) 0.55246(17) 0.65639(18)
C110_16 C 0.79214(18) 0.56586(18) 0.64259(19)
C111_16 C 0.81468(19) 0.52626(18) 0.6565(2)
H42_16 H 0.8024 0.5167 0.6473
O62_16 O 0.8496(3) 0.2964(3) 0.6402(3)
O63_16 O 0.8775(8) 0.1729(4) 0.6300(7)
O64_16 O 0.86707(16) 0.34533(12) 0.77918(14)
Zn17_16 Zn 0.87599(2) 0.28024(2) 0.87890(2)
Zn27_16 Zn 0.74899(2) 0.42790(2) 0.62056(2)
Zn33_16 Zn 0.76855(2) 0.61862(2) 0.62687(2)
Zn45_16 Zn 0.74368(2) 0.56424(2) 0.62026(2)
O66_16 O 0.84290(13) 0.37023(17) 0.71815(13)
O68_16 O 0.83466(13) 0.38467(17) 0.75701(14)
O77_16 O 0.94078(16) 0.3610(2) 0.77657(18)
O79_16 O 0.90919(16) 0.36974(18) 0.80355(17)
O86_16 O 0.86254(18) 0.27334(15) 0.55211(14)
O88_16 O 0.86267(13) 0.29439(12) 0.58841(11)
O25_13 O 0.04881(14) 0.59218(13) 0.25322(19)
O26_13 O 0.07135(11) 0.55622(12) 0.24845(14)
C50_13 C 0.00421(19) 0.56686(19) 0.2525(2)
H19_13 H 0.0044 0.5849 0.2534
C51_13 C 0.02643(19) 0.55368(19) 0.2510(2)
C52_13 C 0.05069(18) 0.56838(18) 0.2508(2)
C53_13 C 0.02662(19) 0.5275(2) 0.2500(3)
H20_13 H 0.0423 0.5187 0.2486
C54_13 C 0.00383(18) 0.51402(18) 0.2510(2)
O35_5 O 0.04881(14) 0.40782(13) 0.24678(19)
O36_5 O 0.07135(11) 0.44378(12) 0.25155(14)
C59_13 C 0.00421(19) 0.43314(19) 0.2475(2)
H22_13 H 0.0044 0.4151 0.2466
C60_13 C 0.02643(19) 0.44632(19) 0.2490(2)
C61_13 C 0.05069(18) 0.43162(18) 0.2492(2)
C62_13 C 0.02662(19) 0.4725(2) 0.2500(3)
H23_13 H 0.0423 0.4813 0.2514
C63_13 C 0.00383(18) 0.48598(18) 0.2490(2)
Zn28_5 Zn 0.10563(2) 0.42958(2) 0.24980(2)
Zn31_5 Zn 0.10563(2) 0.57042(2) 0.25020(2)
Zn4_5 Zn 0.75020(2) 0.60563(2) 0.07042(2)
Zn6_5 Zn 0.88776(2) 0.61624(2) 0.29065(2)
Zn7_5 Zn 0.90219(2) 0.57145(2) 0.25356(2)
O1_9 O 0.75911(15) 0.61698(19) 0.16169(13)
O4_9 O 0.84427(13) 0.62396(17) 0.24476(14)
O5_9 O 0.85089(14) 0.6069(2) 0.28330(19)
O6_9 O 0.74729(14) 0.61354(17) 0.33781(13)
O7_9 O 0.78820(17) 0.6204(2) 0.34684(15)
O8_9 O 0.80560(12) 0.59898(11) 0.14031(11)
O9_9 O 0.78346(14) 0.56290(12) 0.13655(15)
O10_9 O 0.87308(13) 0.59793(12) 0.20635(12)
O11_9 O 0.88442(13) 0.56061(13) 0.22320(14)
O12_5 O 0.88525(13) 0.44754(12) 0.21893(14)
O13_5 O 0.81300(14) 0.41878(14) 0.12712(14)
O14_5 O 0.78477(17) 0.44830(15) 0.1393(2)
O15_9 O 0.80306(16) 0.62521(16) 0.09149(14)
O16_9 O 0.77931(18) 0.62207(17) 0.05638(14)
O23_5 O 0.95932(14) 0.59164(13) 0.2567(2)
O24_5 O 0.93654(12) 0.55664(11) 0.25219(14)
O27_9 O 0.90179(10) 0.60757(10) 0.25700(10)
O28_9 O 0.75088(11) 0.60599(11) 0.10694(11)
C1_9 C 0.7383(2) 0.6242(2) 0.16828(18)
C2_9 C 0.7317(2) 0.6233(3) 0.19622(19)
C3_9 C 0.7062(2) 0.6242(2) 0.20329(19)
H1_9 H 0.6933 0.6258 0.1907
C4_9 C 0.69974(18) 0.6227(2) 0.22865(19)
C5_9 C 0.67182(19) 0.6222(2) 0.2351(2)
C6_9 C 0.7186(2) 0.6211(2) 0.24699(19)
H2_9 H 0.7140 0.6204 0.2644
C7_9 C 0.75042(18) 0.6212(3) 0.21476(19)
H3_9 H 0.7677 0.6201 0.2098
C8_9 C 0.74427(18) 0.6206(2) 0.24034(18)
C9_9 C 0.76454(18) 0.6195(2) 0.26020(18)
C10_9 C 0.75858(19) 0.6181(2) 0.28567(18)
H4_9 H 0.7412 0.6179 0.2906
C11_9 C 0.79045(19) 0.6193(2) 0.25410(18)
H5_9 H 0.7955 0.6209 0.2368
C12_9 C 0.80893(18) 0.6170(2) 0.2727(2)
C13_9 C 0.8368(2) 0.6166(2) 0.2663(2)
C14_9 C 0.8022(2) 0.6155(2) 0.2974(2)
H6_9 H 0.8149 0.6133 0.3101
C15_9 C 0.77705(19) 0.6170(2) 0.30431(18)
C16_9 C 0.7701(2) 0.6164(2) 0.33198(19)
C17_9 C 0.80218(17) 0.57547(15) 0.14411(16)
C18_9 C 0.82238(18) 0.56134(16) 0.15846(17)
C19_9 C 0.83891(17) 0.57452(16) 0.17416(16)
H7_9 H 0.8386 0.5926 0.1748
C20_9 C 0.85589(17) 0.56073(16) 0.18901(17)
C21_9 C 0.87251(16) 0.57429(16) 0.20771(17)
C22_9 C 0.85711(18) 0.53454(17) 0.18709(18)
H8_9 H 0.8692 0.5254 0.1969
C23_9 C 0.82334(18) 0.53495(17) 0.15697(18)
H9_9 H 0.8118 0.5262 0.1462
C24_9 C 0.84080(18) 0.52150(17) 0.17096(19)
C25_9 C 0.84241(18) 0.49269(17) 0.16918(19)
C26_9 C 0.86021(18) 0.47900(16) 0.18305(19)
H10_9 H 0.8715 0.4878 0.1941
C27_9 C 0.86181(19) 0.45256(18) 0.18113(19)
O29_5 O 0.88830(15) 0.41729(14) 0.18966(15)
C28_9 C 0.84543(18) 0.43961(17) 0.16530(18)
H11_9 H 0.8470 0.4217 0.1632
C29_9 C 0.8268(2) 0.45289(18) 0.1526(2)
C30_9 C 0.8072(2) 0.43880(18) 0.1380(2)
C31_9 C 0.8253(2) 0.47876(17) 0.1547(2)
H12_9 H 0.8121 0.4875 0.1460
C32_9 C 0.7988(2) 0.6295(2) 0.0690(2)
C33_9 C 0.8169(2) 0.6467(2) 0.05490(19)
C34_9 C 0.8322(2) 0.6631(2) 0.06878(19)
H13_9 H 0.8332 0.6619 0.0868
C35_9 C 0.8460(2) 0.6815(2) 0.05567(18)
C36_9 C 0.8605(2) 0.7015(2) 0.06985(19)
C37_9 C 0.8451(2) 0.6821(2) 0.02905(18)
H14_9 H 0.8547 0.6946 0.0203
C38_9 C 0.8162(2) 0.64782(19) 0.02818(18)
H15_9 H 0.8055 0.6365 0.0191
C39_9 C 0.8308(2) 0.66499(19) 0.01505(17)
C48_13 C 0.95696(18) 0.56849(17) 0.2537(2)
C49_13 C 0.98134(18) 0.55376(18) 0.2528(2)
C55_13 C 0.98118(18) 0.5276(2) 0.2516(2)
H21_13 H 0.9654 0.5188 0.2511
O30_9 O 0.8598(3) 0.6504(3) 0.2036(3)
O31_9 O 0.8700(7) 0.6225(8) 0.3271(4)
O32_9 O 0.72082(14) 0.63293(16) 0.15467(12)
C56_9 C 0.88005(19) 0.43824(19) 0.1978(2)
O33_13 O 0.95932(14) 0.40836(13) 0.2433(2)
O34_13 O 0.93654(12) 0.44336(11) 0.24781(14)
C57_13 C 0.95696(18) 0.43151(17) 0.2463(2)
C58_13 C 0.98134(18) 0.44624(18) 0.2472(2)
C64_13 C 0.98118(18) 0.4724(2) 0.2484(2)
H24_13 H 0.9654 0.4812 0.2489
Zn12_5 Zn 0.57042(2) 0.74980(2) 0.39437(2)
Zn14_5 Zn 0.79065(2) 0.61224(2) 0.38376(2)
Zn15_9 Zn 0.75356(2) 0.59781(2) 0.42855(2)
O37_17 O 0.66169(13) 0.74089(15) 0.38302(19)
O40_17 O 0.74476(14) 0.65573(13) 0.37604(17)
O41_17 O 0.78330(19) 0.64911(14) 0.3931(2)
O42_9 O 0.83781(13) 0.75271(14) 0.38646(17)
O43_9 O 0.84684(15) 0.71180(17) 0.3796(2)
O44_17 O 0.64031(11) 0.69440(12) 0.40102(11)
O45_17 O 0.63655(15) 0.71654(14) 0.43710(12)
O46_17 O 0.70635(12) 0.62692(13) 0.40207(12)
O47_17 O 0.72320(14) 0.61558(13) 0.43939(13)
O48_9 O 0.71893(14) 0.61475(13) 0.55246(12)
O49_9 O 0.62712(14) 0.68700(14) 0.58122(14)
O50_9 O 0.6393(2) 0.71523(17) 0.55170(15)
O51_17 O 0.59149(14) 0.69694(16) 0.37479(16)
O52_17 O 0.55638(14) 0.72069(18) 0.37793(17)
O55_9 O 0.40608(11) 0.69874(12) 0.36438(12)
O56_9 O 0.44188(13) 0.71882(16) 0.37745(15)
O59_17 O 0.75700(10) 0.59821(10) 0.39243(10)
O60_17 O 0.60694(11) 0.74912(11) 0.39401(11)
C65_17 C 0.66828(18) 0.7617(2) 0.3758(2)
C66_17 C 0.69622(19) 0.7683(2) 0.3767(3)
C67_17 C 0.70329(19) 0.7938(2) 0.3758(2)
H25_17 H 0.6907 0.8067 0.3742
C68_17 C 0.72865(19) 0.80026(18) 0.3773(2)
C69_17 C 0.7351(2) 0.82818(19) 0.3778(2)
C70_17 C 0.74699(19) 0.7814(2) 0.3789(2)
H26_17 H 0.7644 0.7860 0.3796
C71_17 C 0.71476(19) 0.74958(18) 0.3788(3)
H27_17 H 0.7098 0.7323 0.3799
C72_17 C 0.74034(18) 0.75573(18) 0.3794(2)
C73_17 C 0.76020(18) 0.73546(18) 0.3805(2)
C74_17 C 0.78567(18) 0.74142(19) 0.3819(2)
H28_17 H 0.7906 0.7588 0.3821
C75_17 C 0.75410(18) 0.70955(19) 0.3807(2)
H29_17 H 0.7368 0.7045 0.3791
C76_17 C 0.7727(2) 0.69107(18) 0.3830(2)
C77_17 C 0.7663(2) 0.6632(2) 0.3834(2)
C78_17 C 0.7974(2) 0.6978(2) 0.3845(2)
H30_17 H 0.8101 0.6851 0.3867
C79_17 C 0.80431(18) 0.72295(19) 0.3830(2)
C80_17 C 0.83198(19) 0.7299(2) 0.3836(2)
C81_17 C 0.64411(16) 0.69782(17) 0.42453(15)
C82_17 C 0.65846(17) 0.67762(18) 0.43866(16)
C83_17 C 0.67416(16) 0.66109(17) 0.42548(16)
H31_17 H 0.6748 0.6614 0.4074
C84_17 C 0.68901(17) 0.64411(17) 0.43927(16)
C85_17 C 0.70771(17) 0.62749(16) 0.42571(16)
C86_17 C 0.68709(18) 0.64289(18) 0.46546(17)
H32_17 H 0.6969 0.6308 0.4746
C87_17 C 0.65697(18) 0.67666(18) 0.46505(17)
H33_17 H 0.6462 0.6882 0.4738
C88_17 C 0.67096(19) 0.65920(18) 0.47850(17)
C89_17 C 0.66918(19) 0.65759(18) 0.50731(17)
C90_17 C 0.68305(19) 0.63979(18) 0.52100(16)
H34_17 H 0.6941 0.6285 0.5122
C91_17 C 0.68113(19) 0.63819(19) 0.54744(18)
O61_9 O 0.68966(15) 0.61170(15) 0.58271(14)
C92_17 C 0.66530(18) 0.65457(18) 0.56039(17)
H35_17 H 0.6632 0.6530 0.5783
C93_17 C 0.6526(2) 0.6732(2) 0.54711(18)
C94_17 C 0.6380(2) 0.6928(2) 0.56120(18)
C95_17 C 0.6547(2) 0.6747(2) 0.52124(17)
H36_17 H 0.6460 0.6879 0.5125
C96_17 C 0.5690(2) 0.7012(2) 0.3705(2)
C97_17 C 0.55490(19) 0.6831(2) 0.3533(2)
C98_17 C 0.56878(19) 0.6678(2) 0.3369(2)
H37_17 H 0.5868 0.6668 0.3381
C99_17 C 0.55567(18) 0.6540(2) 0.3185(2)
C100_17 C 0.56985(19) 0.6395(2) 0.2985(2)
C101_17 C 0.52905(18) 0.6549(2) 0.3179(2)
H38_17 H 0.5203 0.6453 0.3054
C102_17 C 0.52818(18) 0.6838(2) 0.35218(19)
H39_17 H 0.5191 0.6945 0.3635
C103_17 C 0.51505(17) 0.6692(2) 0.33501(19)
C104_17 C 0.48624(18) 0.6697(2) 0.33356(19)
C105_17 C 0.47165(17) 0.68423(19) 0.35022(19)
H40_17 H 0.4800 0.6941 0.3629
C106_17 C 0.44536(17) 0.68472(18) 0.34884(17)
C107_17 C 0.43021(18) 0.7022(2) 0.36515(19)
C108_17 C 0.43285(16) 0.67039(18) 0.33080(17)
H41_17 H 0.4148 0.6700 0.3302
C109_17 C 0.44754(17) 0.65639(18) 0.31338(18)
C110_17 C 0.43414(18) 0.64259(19) 0.29214(18)
C111_17 C 0.47374(18) 0.6565(2) 0.31468(19)
H42_17 H 0.4833 0.6473 0.3024
O62_17 O 0.7036(3) 0.6402(3) 0.3496(3)
O63_17 O 0.8271(4) 0.6300(7) 0.3775(8)
O64_17 O 0.65467(12) 0.77918(14) 0.36707(16)
C112_17 C 0.6978(2) 0.61995(19) 0.56176(19)
Zn30_5 Zn 0.42958(2) 0.75020(2) 0.39437(2)
Zn35_5 Zn 0.88376(2) 0.70935(2) 0.38776(2)
Zn36_5 Zn 0.88776(2) 0.38376(2) 0.20935(2)
Zn37_3 Zn 0.79065(2) 0.38776(2) 0.11624(2)
Zn38_3 Zn 0.70935(2) 0.61224(2) 0.61624(2)
Zn39_5 Zn 0.61624(2) 0.70935(2) 0.61224(2)
Zn40_5 Zn 0.90219(2) 0.42855(2) 0.24644(2)
Zn41_9 Zn 0.74644(2) 0.59781(2) 0.57145(2)
O69_9 O 0.88646(17) 0.66219(13) 0.24729(14)
O70_9 O 0.8796(2) 0.65316(15) 0.28820(17)
O71_5 O 0.88525(13) 0.55246(12) 0.28107(14)
O72_9 O 0.78107(14) 0.61475(13) 0.44754(12)
O73_9 O 0.81300(14) 0.58122(14) 0.37288(14)
O74_5 O 0.91878(14) 0.62712(14) 0.31300(14)
O75_9 O 0.78477(17) 0.55170(15) 0.3607(2)
O76_5 O 0.94830(15) 0.6393(2) 0.28477(17)
O81_5 O 0.69874(12) 0.63562(12) 0.09392(11)
O82_9 O 0.59392(11) 0.80126(12) 0.36438(12)
O83_5 O 0.71882(16) 0.62255(15) 0.05812(13)
O84_9 O 0.55812(13) 0.78118(16) 0.37745(15)
O89_9 O 0.7567(2) 0.54068(14) 0.40836(13)
O90_9 O 0.75219(14) 0.56346(12) 0.44336(11)
O91_5 O 0.75322(19) 0.54881(14) 0.09218(13)
O92_5 O 0.59218(13) 0.74678(19) 0.45119(14)
O93_5 O 0.74845(14) 0.57135(11) 0.05622(12)
O94_5 O 0.55622(12) 0.75155(14) 0.42865(11)
O95_5 O 0.88830(15) 0.58271(14) 0.31034(15)
O96_9 O 0.81034(15) 0.61170(15) 0.41729(14)
O19_5 O 0.80126(12) 0.63562(12) 0.90608(11)
O20_5 O 0.78118(16) 0.62255(15) 0.94188(13)
C40_9 C 0.8303(2) 0.66644(19) 0.98624(18)
C41_9 C 0.81577(19) 0.64978(19) 0.97165(17)
H16_9 H 0.8059 0.6371 0.9800
C42_9 C 0.81528(18) 0.65116(17) 0.94536(17)
C43_9 C 0.7978(2) 0.63485(19) 0.93021(18)
C44_9 C 0.82961(18) 0.66920(17) 0.93285(16)
H17_9 H 0.8300 0.6698 0.9148
C45_9 C 0.84361(18) 0.68662(18) 0.94754(17)
C46_9 C 0.85741(19) 0.70786(18) 0.93414(18)
C47_9 C 0.8435(2) 0.68532(19) 0.97374(18)
H18_9 H 0.8527 0.6976 0.9833
Zn29_5 Zn 0.74980(2) 0.60563(2) 0.92958(2)
O55_10 O 0.09392(11) 0.30126(12) 0.86438(12)
O56_10 O 0.05812(13) 0.28118(16) 0.87745(15)
C104_18 C 0.01376(18) 0.3303(2) 0.83356(19)
C105_18 C 0.02835(17) 0.31577(19) 0.85022(19)
H40_18 H 0.0200 0.3059 0.8629
C106_18 C 0.05464(17) 0.31528(18) 0.84884(17)
C107_18 C 0.06979(18) 0.2978(2) 0.86515(19)
C108_18 C 0.06715(16) 0.32961(18) 0.83080(17)
H41_18 H 0.0852 0.3300 0.8302
C109_18 C 0.05246(17) 0.34361(18) 0.81338(18)
C110_18 C 0.06586(18) 0.35741(19) 0.79214(18)
C111_18 C 0.02626(18) 0.3435(2) 0.81468(19)
H42_18 H 0.0167 0.3527 0.8024
Zn30_6 Zn 0.07042(2) 0.24980(2) 0.89437(2)
O48_10 O 0.78107(14) 0.38525(13) 0.05246(12)
O49_10 O 0.87288(14) 0.31300(14) 0.08122(14)
O50_10 O 0.8607(2) 0.28477(17) 0.05170(15)
C89_18 C 0.83082(19) 0.34241(18) 0.00731(17)
C90_18 C 0.81695(19) 0.36021(18) 0.02100(16)
H34_18 H 0.8059 0.3715 0.0122
C91_18 C 0.81887(19) 0.36181(19) 0.04744(18)
O61_10 O 0.81034(15) 0.38830(15) 0.08271(14)
C92_18 C 0.83470(18) 0.34543(18) 0.06039(17)
H35_18 H 0.8368 0.3470 0.0783
C93_18 C 0.8474(2) 0.3268(2) 0.04711(18)
C94_18 C 0.8620(2) 0.3072(2) 0.06120(18)
C95_18 C 0.8453(2) 0.3253(2) 0.02124(17)
H36_18 H 0.8540 0.3121 0.0125
C112_18 C 0.8022(2) 0.38005(19) 0.06176(19)
Zn39_6 Zn 0.88376(2) 0.29065(2) 0.11224(2)
Zn41_10 Zn 0.75356(2) 0.40219(2) 0.07145(2)
Zn4_6 Zn 0.74980(2) 0.39437(2) 0.57042(2)
Zn6_6 Zn 0.61224(2) 0.38376(2) 0.79065(2)
Zn7_6 Zn 0.59781(2) 0.42855(2) 0.75356(2)
O1_10 O 0.74089(15) 0.38302(19) 0.66169(13)
O4_10 O 0.65573(13) 0.37604(17) 0.74476(14)
O5_10 O 0.64911(14) 0.3931(2) 0.78330(19)
O6_10 O 0.75271(14) 0.38646(17) 0.83781(13)
O7_10 O 0.71180(17) 0.3796(2) 0.84684(15)
O8_10 O 0.69440(12) 0.40102(11) 0.64031(11)
O9_10 O 0.71654(14) 0.43710(12) 0.63655(15)
O10_10 O 0.62692(13) 0.40207(12) 0.70635(12)
O11_10 O 0.61558(13) 0.43939(13) 0.72320(14)
O12_6 O 0.61475(13) 0.55246(12) 0.71893(14)
O13_6 O 0.68700(14) 0.58122(14) 0.62712(14)
O14_6 O 0.71523(17) 0.55170(15) 0.6393(2)
O15_10 O 0.69694(16) 0.37479(16) 0.59149(14)
O16_10 O 0.72069(18) 0.37793(17) 0.55638(14)
O19_6 O 0.69874(12) 0.36438(12) 0.40608(11)
O20_6 O 0.71882(16) 0.37745(15) 0.44188(13)
O23_6 O 0.54068(14) 0.40836(13) 0.7567(2)
O24_6 O 0.56346(12) 0.44336(11) 0.75219(14)
O25_14 O 0.45119(14) 0.40782(13) 0.75322(19)
O26_14 O 0.42865(11) 0.44378(12) 0.74845(14)
O27_10 O 0.59821(10) 0.39243(10) 0.75700(10)
O28_10 O 0.74912(11) 0.39401(11) 0.60694(11)
C1_10 C 0.7617(2) 0.3758(2) 0.66828(18)
C2_10 C 0.7683(2) 0.3767(3) 0.69622(19)
C3_10 C 0.7938(2) 0.3758(2) 0.70329(19)
H1_10 H 0.8067 0.3742 0.6907
C4_10 C 0.80026(18) 0.3773(2) 0.72865(19)
C5_10 C 0.82818(19) 0.3778(2) 0.7351(2)
C6_10 C 0.7814(2) 0.3789(2) 0.74699(19)
H2_10 H 0.7860 0.3796 0.7644
C7_10 C 0.74958(18) 0.3788(3) 0.71476(19)
H3_10 H 0.7323 0.3799 0.7098
C8_10 C 0.75573(18) 0.3794(2) 0.74034(18)
C9_10 C 0.73546(18) 0.3805(2) 0.76020(18)
C10_10 C 0.74142(19) 0.3819(2) 0.78567(18)
H4_10 H 0.7588 0.3821 0.7906
C11_10 C 0.70955(19) 0.3807(2) 0.75410(18)
H5_10 H 0.7045 0.3791 0.7368
C12_10 C 0.69107(18) 0.3830(2) 0.7727(2)
C13_10 C 0.6632(2) 0.3834(2) 0.7663(2)
C14_10 C 0.6978(2) 0.3845(2) 0.7974(2)
H6_10 H 0.6851 0.3867 0.8101
C15_10 C 0.72295(19) 0.3830(2) 0.80431(18)
C16_10 C 0.7299(2) 0.3836(2) 0.83198(19)
C17_10 C 0.69782(17) 0.42453(15) 0.64411(16)
C18_10 C 0.67762(18) 0.43866(16) 0.65846(17)
C19_10 C 0.66109(17) 0.42548(16) 0.67416(16)
H7_10 H 0.6614 0.4074 0.6748
C20_10 C 0.64411(17) 0.43927(16) 0.68901(17)
C21_10 C 0.62749(16) 0.42571(16) 0.70771(17)
C22_10 C 0.64289(18) 0.46546(17) 0.68709(18)
H8_10 H 0.6308 0.4746 0.6969
C23_10 C 0.67666(18) 0.46505(17) 0.65697(18)
H9_10 H 0.6882 0.4738 0.6462
C24_10 C 0.65920(18) 0.47850(17) 0.67096(19)
C25_10 C 0.65759(18) 0.50731(17) 0.66918(19)
C26_10 C 0.63979(18) 0.52100(16) 0.68305(19)
H10_10 H 0.6285 0.5122 0.6941
C27_10 C 0.63819(19) 0.54744(18) 0.68113(19)
O29_6 O 0.61170(15) 0.58271(14) 0.68966(15)
C28_10 C 0.65457(18) 0.56039(17) 0.66530(18)
H11_10 H 0.6530 0.5783 0.6632
C29_10 C 0.6732(2) 0.54711(18) 0.6526(2)
C30_10 C 0.6928(2) 0.56120(18) 0.6380(2)
C31_10 C 0.6747(2) 0.52124(17) 0.6547(2)
H12_10 H 0.6879 0.5125 0.6460
C32_10 C 0.7012(2) 0.3705(2) 0.5690(2)
C33_10 C 0.6831(2) 0.3533(2) 0.55490(19)
C34_10 C 0.6678(2) 0.3369(2) 0.56878(19)
H13_10 H 0.6668 0.3381 0.5868
C35_10 C 0.6540(2) 0.3185(2) 0.55567(18)
C36_10 C 0.6395(2) 0.2985(2) 0.56985(19)
C37_10 C 0.6549(2) 0.3179(2) 0.52905(18)
H14_10 H 0.6453 0.3054 0.5203
C38_10 C 0.6838(2) 0.35218(19) 0.52818(18)
H15_10 H 0.6945 0.3635 0.5191
C39_10 C 0.6692(2) 0.33501(19) 0.51505(17)
C40_10 C 0.6697(2) 0.33356(19) 0.48624(18)
C41_10 C 0.68423(19) 0.35022(19) 0.47165(17)
H16_10 H 0.6941 0.3629 0.4800
C42_10 C 0.68472(18) 0.34884(17) 0.44536(17)
C43_10 C 0.7022(2) 0.36515(19) 0.43021(18)
C44_10 C 0.67039(18) 0.33080(17) 0.43285(16)
H17_10 H 0.6700 0.3302 0.4148
C45_10 C 0.65639(18) 0.31338(18) 0.44754(17)
C46_10 C 0.64259(19) 0.29214(18) 0.43414(18)
C47_10 C 0.6565(2) 0.31468(19) 0.47374(18)
H18_10 H 0.6473 0.3024 0.4833
C48_14 C 0.54304(18) 0.43151(17) 0.7537(2)
C49_14 C 0.51866(18) 0.44624(18) 0.7528(2)
C50_14 C 0.49579(19) 0.43314(19) 0.7525(2)
H19_14 H 0.4956 0.4151 0.7534
C51_14 C 0.47357(19) 0.44632(19) 0.7510(2)
C52_14 C 0.44931(18) 0.43162(18) 0.7508(2)
C53_14 C 0.47338(19) 0.4725(2) 0.7500(3)
H20_14 H 0.4577 0.4813 0.7486
C54_14 C 0.49617(18) 0.48598(18) 0.7510(2)
C55_14 C 0.51882(18) 0.4724(2) 0.7516(2)
H21_14 H 0.5346 0.4812 0.7511
O30_10 O 0.6402(3) 0.3496(3) 0.7036(3)
O31_10 O 0.6300(7) 0.3775(8) 0.8271(4)
O32_10 O 0.77918(14) 0.36707(16) 0.65467(12)
C56_10 C 0.61995(19) 0.56176(19) 0.6978(2)
O33_14 O 0.54068(14) 0.59164(13) 0.7433(2)
O34_14 O 0.56346(12) 0.55664(11) 0.74781(14)
O35_6 O 0.45119(14) 0.59218(13) 0.74678(19)
O36_6 O 0.42865(11) 0.55622(12) 0.75155(14)
C57_14 C 0.54304(18) 0.56849(17) 0.7463(2)
C58_14 C 0.51866(18) 0.55376(18) 0.7472(2)
C59_14 C 0.49579(19) 0.56686(19) 0.7475(2)
H22_14 H 0.4956 0.5849 0.7466
C60_14 C 0.47357(19) 0.55368(19) 0.7490(2)
C61_14 C 0.44931(18) 0.56838(18) 0.7492(2)
C62_14 C 0.47338(19) 0.5275(2) 0.7500(3)
H23_14 H 0.4577 0.5187 0.7514
C63_14 C 0.49617(18) 0.51402(18) 0.7490(2)
C64_14 C 0.51882(18) 0.5276(2) 0.7484(2)
H24_14 H 0.5346 0.5188 0.7489
Zn12_6 Zn 0.92958(2) 0.25020(2) 0.89437(2)
Zn14_6 Zn 0.70935(2) 0.38776(2) 0.88376(2)
Zn15_10 Zn 0.74644(2) 0.40219(2) 0.92855(2)
O37_18 O 0.83831(13) 0.25911(15) 0.88302(19)
O40_18 O 0.75524(14) 0.34427(13) 0.87604(17)
O41_18 O 0.71670(19) 0.35089(14) 0.8931(2)
O42_10 O 0.66219(13) 0.24729(14) 0.88646(17)
O43_10 O 0.65316(15) 0.28820(17) 0.8796(2)
O44_18 O 0.85969(11) 0.30560(12) 0.90102(11)
O45_18 O 0.86345(15) 0.28346(14) 0.93710(12)
O46_18 O 0.79365(12) 0.37308(13) 0.90207(12)
O47_18 O 0.77680(14) 0.38442(13) 0.93939(13)
O51_18 O 0.90851(14) 0.30306(16) 0.87479(16)
O52_18 O 0.94362(14) 0.27931(18) 0.87793(17)
O59_18 O 0.74300(10) 0.40179(10) 0.89243(10)
O60_18 O 0.89306(11) 0.25088(11) 0.89401(11)
C65_18 C 0.83172(18) 0.2383(2) 0.8758(2)
C66_18 C 0.80378(19) 0.2317(2) 0.8767(3)
C67_18 C 0.79671(19) 0.2062(2) 0.8758(2)
H25_18 H 0.8093 0.1933 0.8742
C68_18 C 0.77135(19) 0.19974(18) 0.8773(2)
C69_18 C 0.7649(2) 0.17182(19) 0.8778(2)
C70_18 C 0.75301(19) 0.2186(2) 0.8789(2)
H26_18 H 0.7356 0.2140 0.8796
C71_18 C 0.78524(19) 0.25042(18) 0.8788(3)
H27_18 H 0.7902 0.2677 0.8799
C72_18 C 0.75966(18) 0.24427(18) 0.8794(2)
C73_18 C 0.73980(18) 0.26454(18) 0.8805(2)
C74_18 C 0.71433(18) 0.25858(19) 0.8819(2)
H28_18 H 0.7094 0.2412 0.8821
C75_18 C 0.74590(18) 0.29045(19) 0.8807(2)
H29_18 H 0.7632 0.2955 0.8791
C76_18 C 0.7273(2) 0.30893(18) 0.8830(2)
C77_18 C 0.7337(2) 0.3368(2) 0.8834(2)
C78_18 C 0.7026(2) 0.3022(2) 0.8845(2)
H30_18 H 0.6899 0.3149 0.8867
C79_18 C 0.69569(18) 0.27705(19) 0.8830(2)
C80_18 C 0.66802(19) 0.2701(2) 0.8836(2)
C81_18 C 0.85589(16) 0.30218(17) 0.92453(15)
C82_18 C 0.84154(17) 0.32238(18) 0.93866(16)
C83_18 C 0.82584(16) 0.33891(17) 0.92548(16)
H31_18 H 0.8252 0.3386 0.9074
C84_18 C 0.81099(17) 0.35589(17) 0.93927(16)
C85_18 C 0.79229(17) 0.37251(16) 0.92571(16)
C86_18 C 0.81291(18) 0.35711(18) 0.96546(17)
H32_18 H 0.8031 0.3692 0.9746
C87_18 C 0.84303(18) 0.32334(18) 0.96505(17)
H33_18 H 0.8538 0.3118 0.9738
C88_18 C 0.82904(19) 0.34080(18) 0.97850(17)
C96_18 C 0.9310(2) 0.2988(2) 0.8705(2)
C97_18 C 0.94510(19) 0.3169(2) 0.8533(2)
C98_18 C 0.93122(19) 0.3322(2) 0.8369(2)
H37_18 H 0.9132 0.3332 0.8381
C99_18 C 0.94433(18) 0.3460(2) 0.8185(2)
C100_18 C 0.93015(19) 0.3605(2) 0.7985(2)
C101_18 C 0.97095(18) 0.3451(2) 0.8179(2)
H38_18 H 0.9797 0.3547 0.8054
C102_18 C 0.97182(18) 0.3162(2) 0.85218(19)
H39_18 H 0.9809 0.3055 0.8635
C103_18 C 0.98495(17) 0.3308(2) 0.83501(19)
O62_18 O 0.7964(3) 0.3598(3) 0.8496(3)
O63_18 O 0.6729(4) 0.3700(7) 0.8775(8)
O64_18 O 0.84533(12) 0.22082(14) 0.86707(16)
Zn28_6 Zn 0.39437(2) 0.57042(2) 0.74980(2)
Zn29_6 Zn 0.75020(2) 0.39437(2) 0.42958(2)
Zn31_6 Zn 0.39437(2) 0.42958(2) 0.75020(2)
Zn35_6 Zn 0.61624(2) 0.29065(2) 0.88776(2)
Zn36_6 Zn 0.61224(2) 0.61624(2) 0.70935(2)
Zn40_6 Zn 0.59781(2) 0.57145(2) 0.74644(2)
O69_10 O 0.61354(17) 0.33781(13) 0.74729(14)
O70_10 O 0.6204(2) 0.34684(15) 0.78820(17)
O71_6 O 0.61475(13) 0.44754(12) 0.78107(14)
O72_10 O 0.71893(14) 0.38525(13) 0.94754(12)
O73_10 O 0.68700(14) 0.41878(14) 0.87288(14)
O74_6 O 0.58122(14) 0.37288(14) 0.81300(14)
O75_10 O 0.71523(17) 0.44830(15) 0.8607(2)
O76_6 O 0.55170(15) 0.3607(2) 0.78477(17)
O81_6 O 0.80126(12) 0.36438(12) 0.59392(11)
O82_10 O 0.90608(11) 0.19874(12) 0.86438(12)
O83_6 O 0.78118(16) 0.37745(15) 0.55812(13)
O84_10 O 0.94188(13) 0.21882(16) 0.87745(15)
O89_10 O 0.7433(2) 0.45932(14) 0.90836(13)
O90_10 O 0.74781(14) 0.43654(12) 0.94336(11)
O91_6 O 0.74678(19) 0.45119(14) 0.59218(13)
O92_6 O 0.90782(13) 0.25322(19) 0.95119(14)
O93_6 O 0.75155(14) 0.42865(11) 0.55622(12)
O94_6 O 0.94378(12) 0.24845(14) 0.92865(11)
O95_6 O 0.61170(15) 0.41729(14) 0.81034(15)
O96_10 O 0.68966(15) 0.38830(15) 0.91729(14)
Zn4_7 Zn 0.24980(2) 0.10563(2) 0.42958(2)
Zn6_7 Zn 0.11224(2) 0.11624(2) 0.20935(2)
Zn7_7 Zn 0.09781(2) 0.07145(2) 0.24644(2)
O1_11 O 0.24089(15) 0.11698(19) 0.33831(13)
O4_11 O 0.15573(13) 0.12396(17) 0.25524(14)
O5_11 O 0.14911(14) 0.1069(2) 0.21670(19)
O6_11 O 0.25271(14) 0.11354(17) 0.16219(13)
O7_11 O 0.21180(17) 0.1204(2) 0.15316(15)
O8_11 O 0.19440(12) 0.09898(11) 0.35969(11)
O9_11 O 0.21654(14) 0.06290(12) 0.36345(15)
O10_11 O 0.12692(13) 0.09793(12) 0.29365(12)
O11_11 O 0.11558(13) 0.06061(13) 0.27680(14)
O15_11 O 0.19694(16) 0.12521(16) 0.40851(14)
O16_11 O 0.22069(18) 0.12207(17) 0.44362(14)
O19_7 O 0.19874(12) 0.13562(12) 0.59392(11)
O20_7 O 0.21882(16) 0.12255(15) 0.55812(13)
O23_7 O 0.04068(14) 0.09164(13) 0.2433(2)
O24_7 O 0.06346(12) 0.05664(11) 0.24781(14)
O27_11 O 0.09821(10) 0.10757(10) 0.24300(10)
O28_11 O 0.24912(11) 0.10599(11) 0.39306(11)
C1_11 C 0.2617(2) 0.1242(2) 0.33172(18)
C2_11 C 0.2683(2) 0.1233(3) 0.30378(19)
C3_11 C 0.2938(2) 0.1242(2) 0.29671(19)
H1_11 H 0.3067 0.1258 0.3093
C4_11 C 0.30026(18) 0.1227(2) 0.27135(19)
C5_11 C 0.32818(19) 0.1222(2) 0.2649(2)
C6_11 C 0.2814(2) 0.1211(2) 0.25301(19)
H2_11 H 0.2860 0.1204 0.2356
C7_11 C 0.24958(18) 0.1212(3) 0.28524(19)
H3_11 H 0.2323 0.1201 0.2902
C8_11 C 0.25573(18) 0.1206(2) 0.25966(18)
C9_11 C 0.23546(18) 0.1195(2) 0.23980(18)
C10_11 C 0.24142(19) 0.1181(2) 0.21433(18)
H4_11 H 0.2588 0.1179 0.2094
C11_11 C 0.20955(19) 0.1193(2) 0.24590(18)
H5_11 H 0.2045 0.1209 0.2632
C12_11 C 0.19107(18) 0.1170(2) 0.2273(2)
C13_11 C 0.1632(2) 0.1166(2) 0.2337(2)
C14_11 C 0.1978(2) 0.1155(2) 0.2026(2)
H6_11 H 0.1851 0.1133 0.1899
C15_11 C 0.22295(19) 0.1170(2) 0.19569(18)
C16_11 C 0.2299(2) 0.1164(2) 0.16802(19)
C17_11 C 0.19782(17) 0.07547(15) 0.35589(16)
C18_11 C 0.17762(18) 0.06134(16) 0.34154(17)
C19_11 C 0.16109(17) 0.07452(16) 0.32584(16)
H7_11 H 0.1614 0.0926 0.3252
C20_11 C 0.14411(17) 0.06073(16) 0.31099(17)
C21_11 C 0.12749(16) 0.07429(16) 0.29229(17)
C22_11 C 0.14289(18) 0.03454(17) 0.31291(18)
H8_11 H 0.1308 0.0254 0.3031
C23_11 C 0.17666(18) 0.03495(17) 0.34303(18)
H9_11 H 0.1882 0.0262 0.3538
C24_11 C 0.15920(18) 0.02150(17) 0.32904(19)
C32_11 C 0.2012(2) 0.1295(2) 0.4310(2)
C33_11 C 0.1831(2) 0.1467(2) 0.44510(19)
C34_11 C 0.1678(2) 0.1631(2) 0.43122(19)
H13_11 H 0.1668 0.1619 0.4132
C35_11 C 0.1540(2) 0.1815(2) 0.44433(18)
C36_11 C 0.1395(2) 0.2015(2) 0.43015(19)
C37_11 C 0.1549(2) 0.1821(2) 0.47095(18)
H14_11 H 0.1453 0.1946 0.4797
C38_11 C 0.1838(2) 0.14782(19) 0.47182(18)
H15_11 H 0.1945 0.1365 0.4809
C39_11 C 0.1692(2) 0.16499(19) 0.48495(17)
C40_11 C 0.1697(2) 0.16644(19) 0.51376(18)
C41_11 C 0.18423(19) 0.14978(19) 0.52835(17)
H16_11 H 0.1941 0.1371 0.5200
C42_11 C 0.18472(18) 0.15116(17) 0.55464(17)
C43_11 C 0.2022(2) 0.13485(19) 0.56979(18)
C44_11 C 0.17039(18) 0.16920(17) 0.56715(16)
H17_11 H 0.1700 0.1698 0.5852
C45_11 C 0.15639(18) 0.18662(18) 0.55246(17)
C46_11 C 0.14259(19) 0.20786(18) 0.56586(18)
C47_11 C 0.1565(2) 0.18532(19) 0.52626(18)
H18_11 H 0.1473 0.1976 0.5167
C48_15 C 0.04304(18) 0.06849(17) 0.2463(2)
C49_15 C 0.01866(18) 0.05376(18) 0.2472(2)
C55_15 C 0.01882(18) 0.0276(2) 0.2484(2)
H21_15 H 0.0346 0.0188 0.2489
O30_11 O 0.1402(3) 0.1504(3) 0.2964(3)
O31_11 O 0.1300(7) 0.1225(8) 0.1729(4)
O32_11 O 0.27918(14) 0.13293(16) 0.34533(12)
Zn12_7 Zn 0.42958(2) 0.24980(2) 0.10563(2)
Zn14_7 Zn 0.20935(2) 0.11224(2) 0.11624(2)
Zn15_11 Zn 0.24644(2) 0.09781(2) 0.07145(2)
O37_19 O 0.33831(13) 0.24089(15) 0.11698(19)
O40_19 O 0.25524(14) 0.15573(13) 0.12396(17)
O41_19 O 0.21670(19) 0.14911(14) 0.1069(2)
O42_11 O 0.16219(13) 0.25271(14) 0.11354(17)
O43_11 O 0.15316(15) 0.21180(17) 0.1204(2)
O44_19 O 0.35969(11) 0.19440(12) 0.09898(11)
O45_19 O 0.36345(15) 0.21654(14) 0.06290(12)
O46_19 O 0.29365(12) 0.12692(13) 0.09793(12)
O47_19 O 0.27680(14) 0.11558(13) 0.06061(13)
O51_19 O 0.40851(14) 0.19694(16) 0.12521(16)
O52_19 O 0.44362(14) 0.22069(18) 0.12207(17)
O55_11 O 0.59392(11) 0.19874(12) 0.13562(12)
O56_11 O 0.55812(13) 0.21882(16) 0.12255(15)
O59_19 O 0.24300(10) 0.09821(10) 0.10757(10)
O60_19 O 0.39306(11) 0.24912(11) 0.10599(11)
C65_19 C 0.33172(18) 0.2617(2) 0.1242(2)
C66_19 C 0.30378(19) 0.2683(2) 0.1233(3)
C67_19 C 0.29671(19) 0.2938(2) 0.1242(2)
H25_19 H 0.3093 0.3067 0.1258
C68_19 C 0.27135(19) 0.30026(18) 0.1227(2)
C69_19 C 0.2649(2) 0.32818(19) 0.1222(2)
C70_19 C 0.25301(19) 0.2814(2) 0.1211(2)
H26_19 H 0.2356 0.2860 0.1204
C71_19 C 0.28524(19) 0.24958(18) 0.1212(3)
H27_19 H 0.2902 0.2323 0.1201
C72_19 C 0.25966(18) 0.25573(18) 0.1206(2)
C73_19 C 0.23980(18) 0.23546(18) 0.1195(2)
C74_19 C 0.21433(18) 0.24142(19) 0.1181(2)
H28_19 H 0.2094 0.2588 0.1179
C75_19 C 0.24590(18) 0.20955(19) 0.1193(2)
H29_19 H 0.2632 0.2045 0.1209
C76_19 C 0.2273(2) 0.19107(18) 0.1170(2)
C77_19 C 0.2337(2) 0.1632(2) 0.1166(2)
C78_19 C 0.2026(2) 0.1978(2) 0.1155(2)
H30_19 H 0.1899 0.1851 0.1133
C79_19 C 0.19569(18) 0.22295(19) 0.1170(2)
C80_19 C 0.16802(19) 0.2299(2) 0.1164(2)
C81_19 C 0.35589(16) 0.19782(17) 0.07547(15)
C82_19 C 0.34154(17) 0.17762(18) 0.06134(16)
C83_19 C 0.32584(16) 0.16109(17) 0.07452(16)
H31_19 H 0.3252 0.1614 0.0926
C84_19 C 0.31099(17) 0.14411(17) 0.06073(16)
C85_19 C 0.29229(17) 0.12749(16) 0.07429(16)
C86_19 C 0.31291(18) 0.14289(18) 0.03454(17)
H32_19 H 0.3031 0.1308 0.0254
C87_19 C 0.34303(18) 0.17666(18) 0.03495(17)
H33_19 H 0.3538 0.1882 0.0262
C88_19 C 0.32904(19) 0.15920(18) 0.02150(17)
C96_19 C 0.4310(2) 0.2012(2) 0.1295(2)
C97_19 C 0.44510(19) 0.1831(2) 0.1467(2)
C98_19 C 0.43122(19) 0.1678(2) 0.1631(2)
H37_19 H 0.4132 0.1668 0.1619
C99_19 C 0.44433(18) 0.1540(2) 0.1815(2)
C100_19 C 0.43015(19) 0.1395(2) 0.2015(2)
C101_19 C 0.47095(18) 0.1549(2) 0.1821(2)
H38_19 H 0.4797 0.1453 0.1946
C102_19 C 0.47182(18) 0.1838(2) 0.14782(19)
H39_19 H 0.4809 0.1945 0.1365
C103_19 C 0.48495(17) 0.1692(2) 0.16499(19)
C104_19 C 0.51376(18) 0.1697(2) 0.16644(19)
C105_19 C 0.52835(17) 0.18423(19) 0.14978(19)
H40_19 H 0.5200 0.1941 0.1371
C106_19 C 0.55464(17) 0.18472(18) 0.15116(17)
C107_19 C 0.56979(18) 0.2022(2) 0.13485(19)
C108_19 C 0.56715(16) 0.17039(18) 0.16920(17)
H41_19 H 0.5852 0.1700 0.1698
C109_19 C 0.55246(17) 0.15639(18) 0.18662(18)
C110_19 C 0.56586(18) 0.14259(19) 0.20786(18)
C111_19 C 0.52626(18) 0.1565(2) 0.18532(19)
H42_19 H 0.5167 0.1473 0.1976
O62_19 O 0.2964(3) 0.1402(3) 0.1504(3)
O63_19 O 0.1729(4) 0.1300(7) 0.1225(8)
O64_19 O 0.34533(12) 0.27918(14) 0.13293(16)
Zn29_7 Zn 0.25020(2) 0.10563(2) 0.57042(2)
Zn30_7 Zn 0.57042(2) 0.25020(2) 0.10563(2)
Zn35_7 Zn 0.11624(2) 0.20935(2) 0.11224(2)
O69_11 O 0.11354(17) 0.16219(13) 0.25271(14)
O70_11 O 0.1204(2) 0.15316(15) 0.21180(17)
O71_7 O 0.11475(13) 0.05246(12) 0.21893(14)
O72_11 O 0.21893(14) 0.11475(13) 0.05246(12)
O73_11 O 0.18700(14) 0.08122(14) 0.12712(14)
O74_7 O 0.08122(14) 0.12712(14) 0.18700(14)
O75_11 O 0.21523(17) 0.05170(15) 0.1393(2)
O76_7 O 0.05170(15) 0.1393(2) 0.21523(17)
O81_7 O 0.30126(12) 0.13562(12) 0.40608(11)
O82_11 O 0.40608(11) 0.30126(12) 0.13562(12)
O83_7 O 0.28118(16) 0.12255(15) 0.44188(13)
O84_11 O 0.44188(13) 0.28118(16) 0.12255(15)
O89_11 O 0.2433(2) 0.04068(14) 0.09164(13)
O90_11 O 0.24781(14) 0.06346(12) 0.05664(11)
O91_7 O 0.24678(19) 0.04881(14) 0.40782(13)
O92_7 O 0.40782(13) 0.24678(19) 0.04881(14)
O93_7 O 0.25155(14) 0.07135(11) 0.44378(12)
O94_7 O 0.44378(12) 0.25155(14) 0.07135(11)
O95_7 O 0.11170(15) 0.08271(14) 0.18966(15)
O96_11 O 0.18966(15) 0.11170(15) 0.08271(14)
O48_11 O 0.28107(14) 0.11475(13) 0.94754(12)
O49_11 O 0.37288(14) 0.18700(14) 0.91878(14)
O50_11 O 0.3607(2) 0.21523(17) 0.94830(15)
C89_19 C 0.33082(19) 0.15759(18) 0.99269(17)
C90_19 C 0.31695(19) 0.13979(18) 0.97900(16)
H34_19 H 0.3059 0.1285 0.9878
C91_19 C 0.31887(19) 0.13819(19) 0.95256(18)
O61_11 O 0.31034(15) 0.11170(15) 0.91729(14)
C92_19 C 0.33470(18) 0.15457(18) 0.93961(17)
H35_19 H 0.3368 0.1530 0.9217
C93_19 C 0.3474(2) 0.1732(2) 0.95289(18)
C94_19 C 0.3620(2) 0.1928(2) 0.93880(18)
C95_19 C 0.3453(2) 0.1747(2) 0.97876(17)
H36_19 H 0.3540 0.1879 0.9875
C112_19 C 0.3022(2) 0.11995(19) 0.93824(19)
Zn38_4 Zn 0.29065(2) 0.11224(2) 0.88376(2)
Zn39_7 Zn 0.38376(2) 0.20935(2) 0.88776(2)
Zn41_11 Zn 0.25356(2) 0.09781(2) 0.92855(2)
O12_7 O 0.11475(13) 0.94754(12) 0.28107(14)
O13_7 O 0.18700(14) 0.91878(14) 0.37288(14)
O14_7 O 0.21523(17) 0.94830(15) 0.3607(2)
C25_11 C 0.15759(18) 0.99269(17) 0.33082(19)
C26_11 C 0.13979(18) 0.97900(16) 0.31695(19)
H10_11 H 0.1285 0.9878 0.3059
C27_11 C 0.13819(19) 0.95256(18) 0.31887(19)
O29_7 O 0.11170(15) 0.91729(14) 0.31034(15)
C28_11 C 0.15457(18) 0.93961(17) 0.33470(18)
H11_11 H 0.1530 0.9217 0.3368
C29_11 C 0.1732(2) 0.95289(18) 0.3474(2)
C30_11 C 0.1928(2) 0.93880(18) 0.3620(2)
C31_11 C 0.1747(2) 0.97876(17) 0.3453(2)
H12_11 H 0.1879 0.9875 0.3540
C56_11 C 0.11995(19) 0.93824(19) 0.3022(2)
O33_15 O 0.04068(14) 0.90836(13) 0.2567(2)
O34_15 O 0.06346(12) 0.94336(11) 0.25219(14)
C57_15 C 0.04304(18) 0.93151(17) 0.2537(2)
C58_15 C 0.01866(18) 0.94624(18) 0.2528(2)
C64_15 C 0.01882(18) 0.9724(2) 0.2516(2)
H24_15 H 0.0346 0.9812 0.2511
Zn36_7 Zn 0.11224(2) 0.88376(2) 0.29065(2)
Zn37_4 Zn 0.20935(2) 0.88776(2) 0.38376(2)
Zn40_7 Zn 0.09781(2) 0.92855(2) 0.25356(2)
O25_15 O 0.95119(14) 0.09218(13) 0.24678(19)
O26_15 O 0.92865(11) 0.05622(12) 0.25155(14)
C50_15 C 0.99579(19) 0.06686(19) 0.2475(2)
H19_15 H 0.9956 0.0849 0.2466
C51_15 C 0.97357(19) 0.05368(19) 0.2490(2)
C52_15 C 0.94931(18) 0.06838(18) 0.2492(2)
C53_15 C 0.97338(19) 0.0275(2) 0.2500(3)
H20_15 H 0.9577 0.0187 0.2514
C54_15 C 0.99617(18) 0.01402(18) 0.2490(2)
Zn31_7 Zn 0.89437(2) 0.07042(2) 0.24980(2)
O35_7 O 0.95119(14) 0.90782(13) 0.25322(19)
O36_7 O 0.92865(11) 0.94378(12) 0.24845(14)
C59_15 C 0.99579(19) 0.93314(19) 0.2525(2)
H22_15 H 0.9956 0.9151 0.2534
C60_15 C 0.97357(19) 0.94632(19) 0.2510(2)
C61_15 C 0.94931(18) 0.93162(18) 0.2508(2)
C62_15 C 0.97338(19) 0.9725(2) 0.2500(3)
H23_15 H 0.9577 0.9813 0.2486
C63_15 C 0.99617(18) 0.98598(18) 0.2510(2)
Zn28_7 Zn 0.89437(2) 0.92958(2) 0.25020(2)
O12_8 O 0.38525(13) 0.05246(12) 0.78107(14)
O13_8 O 0.31300(14) 0.08122(14) 0.87288(14)
O14_8 O 0.28477(17) 0.05170(15) 0.8607(2)
C25_12 C 0.34241(18) 0.00731(17) 0.83082(19)
C26_12 C 0.36021(18) 0.02100(16) 0.81695(19)
H10_12 H 0.3715 0.0122 0.8059
C27_12 C 0.36181(19) 0.04744(18) 0.81887(19)
O29_8 O 0.38830(15) 0.08271(14) 0.81034(15)
C28_12 C 0.34543(18) 0.06039(17) 0.83470(18)
H11_12 H 0.3470 0.0783 0.8368
C29_12 C 0.3268(2) 0.04711(18) 0.8474(2)
C30_12 C 0.3072(2) 0.06120(18) 0.8620(2)
C31_12 C 0.3253(2) 0.02124(17) 0.8453(2)
H12_12 H 0.3121 0.0125 0.8540
C56_12 C 0.38005(19) 0.06176(19) 0.8022(2)
O33_16 O 0.45932(14) 0.09164(13) 0.7567(2)
O34_16 O 0.43654(12) 0.05664(11) 0.75219(14)
O35_8 O 0.54881(14) 0.09218(13) 0.75322(19)
O36_8 O 0.57135(11) 0.05622(12) 0.74845(14)
C57_16 C 0.45696(18) 0.06849(17) 0.7537(2)
C58_16 C 0.48134(18) 0.05376(18) 0.7528(2)
C59_16 C 0.50421(19) 0.06686(19) 0.7525(2)
H22_16 H 0.5044 0.0849 0.7534
C60_16 C 0.52643(19) 0.05368(19) 0.7510(2)
C61_16 C 0.55069(18) 0.06838(18) 0.7508(2)
C62_16 C 0.52662(19) 0.0275(2) 0.7500(3)
H23_16 H 0.5423 0.0187 0.7486
C63_16 C 0.50383(18) 0.01402(18) 0.7510(2)
C64_16 C 0.48118(18) 0.0276(2) 0.7516(2)
H24_16 H 0.4654 0.0188 0.7511
Zn28_8 Zn 0.60563(2) 0.07042(2) 0.75020(2)
Zn36_8 Zn 0.38776(2) 0.11624(2) 0.79065(2)
Zn40_8 Zn 0.40219(2) 0.07145(2) 0.75356(2)
O19_8 O 0.30126(12) 0.86438(12) 0.09392(11)
O20_8 O 0.28118(16) 0.87745(15) 0.05812(13)
C40_12 C 0.3303(2) 0.83356(19) 0.01376(18)
C41_12 C 0.31577(19) 0.85022(19) 0.02835(17)
H16_12 H 0.3059 0.8629 0.0200
C42_12 C 0.31528(18) 0.84884(17) 0.05464(17)
C43_12 C 0.2978(2) 0.86515(19) 0.06979(18)
C44_12 C 0.32961(18) 0.83080(17) 0.06715(16)
H17_12 H 0.3300 0.8302 0.0852
C45_12 C 0.34361(18) 0.81338(18) 0.05246(17)
C46_12 C 0.35741(19) 0.79214(18) 0.06586(18)
C47_12 C 0.3435(2) 0.81468(19) 0.02626(18)
H18_12 H 0.3527 0.8024 0.0167
Zn29_8 Zn 0.24980(2) 0.89437(2) 0.07042(2)
Zn4_8 Zn 0.25020(2) 0.89437(2) 0.92958(2)
Zn6_8 Zn 0.38776(2) 0.88376(2) 0.70935(2)
Zn7_8 Zn 0.40219(2) 0.92855(2) 0.74644(2)
O1_12 O 0.25911(15) 0.88302(19) 0.83831(13)
O4_12 O 0.34427(13) 0.87604(17) 0.75524(14)
O5_12 O 0.35089(14) 0.8931(2) 0.71670(19)
O6_12 O 0.24729(14) 0.88646(17) 0.66219(13)
O7_12 O 0.28820(17) 0.8796(2) 0.65316(15)
O8_12 O 0.30560(12) 0.90102(11) 0.85969(11)
O9_12 O 0.28346(14) 0.93710(12) 0.86345(15)
O10_12 O 0.37308(13) 0.90207(12) 0.79365(12)
O11_12 O 0.38442(13) 0.93939(13) 0.77680(14)
O15_12 O 0.30306(16) 0.87479(16) 0.90851(14)
O16_12 O 0.27931(18) 0.87793(17) 0.94362(14)
O23_8 O 0.45932(14) 0.90836(13) 0.7433(2)
O24_8 O 0.43654(12) 0.94336(11) 0.74781(14)
O25_16 O 0.54881(14) 0.90782(13) 0.74678(19)
O26_16 O 0.57135(11) 0.94378(12) 0.75155(14)
O27_12 O 0.40179(10) 0.89243(10) 0.74300(10)
O28_12 O 0.25088(11) 0.89401(11) 0.89306(11)
C1_12 C 0.2383(2) 0.8758(2) 0.83172(18)
C2_12 C 0.2317(2) 0.8767(3) 0.80378(19)
C3_12 C 0.2062(2) 0.8758(2) 0.79671(19)
H1_12 H 0.1933 0.8742 0.8093
C4_12 C 0.19974(18) 0.8773(2) 0.77135(19)
C5_12 C 0.17182(19) 0.8778(2) 0.7649(2)
C6_12 C 0.2186(2) 0.8789(2) 0.75301(19)
H2_12 H 0.2140 0.8796 0.7356
C7_12 C 0.25042(18) 0.8788(3) 0.78524(19)
H3_12 H 0.2677 0.8799 0.7902
C8_12 C 0.24427(18) 0.8794(2) 0.75966(18)
C9_12 C 0.26454(18) 0.8805(2) 0.73980(18)
C10_12 C 0.25858(19) 0.8819(2) 0.71433(18)
H4_12 H 0.2412 0.8821 0.7094
C11_12 C 0.29045(19) 0.8807(2) 0.74590(18)
H5_12 H 0.2955 0.8791 0.7632
C12_12 C 0.30893(18) 0.8830(2) 0.7273(2)
C13_12 C 0.3368(2) 0.8834(2) 0.7337(2)
C14_12 C 0.3022(2) 0.8845(2) 0.7026(2)
H6_12 H 0.3149 0.8867 0.6899
C15_12 C 0.27705(19) 0.8830(2) 0.69569(18)
C16_12 C 0.2701(2) 0.8836(2) 0.66802(19)
C17_12 C 0.30218(17) 0.92453(15) 0.85589(16)
C18_12 C 0.32238(18) 0.93866(16) 0.84154(17)
C19_12 C 0.33891(17) 0.92548(16) 0.82584(16)
H7_12 H 0.3386 0.9074 0.8252
C20_12 C 0.35589(17) 0.93927(16) 0.81099(17)
C21_12 C 0.37251(16) 0.92571(16) 0.79229(17)
C22_12 C 0.35711(18) 0.96546(17) 0.81291(18)
H8_12 H 0.3692 0.9746 0.8031
C23_12 C 0.32334(18) 0.96505(17) 0.84303(18)
H9_12 H 0.3118 0.9738 0.8538
C24_12 C 0.34080(18) 0.97850(17) 0.82904(19)
C32_12 C 0.2988(2) 0.8705(2) 0.9310(2)
C33_12 C 0.3169(2) 0.8533(2) 0.94510(19)
C34_12 C 0.3322(2) 0.8369(2) 0.93122(19)
H13_12 H 0.3332 0.8381 0.9132
C35_12 C 0.3460(2) 0.8185(2) 0.94433(18)
C36_12 C 0.3605(2) 0.7985(2) 0.93015(19)
C37_12 C 0.3451(2) 0.8179(2) 0.97095(18)
H14_12 H 0.3547 0.8054 0.9797
C38_12 C 0.3162(2) 0.85218(19) 0.97182(18)
H15_12 H 0.3055 0.8635 0.9809
C39_12 C 0.3308(2) 0.83501(19) 0.98495(17)
C48_16 C 0.45696(18) 0.93151(17) 0.7463(2)
C49_16 C 0.48134(18) 0.94624(18) 0.7472(2)
C50_16 C 0.50421(19) 0.93314(19) 0.7475(2)
H19_16 H 0.5044 0.9151 0.7466
C51_16 C 0.52643(19) 0.94632(19) 0.7490(2)
C52_16 C 0.55069(18) 0.93162(18) 0.7492(2)
C53_16 C 0.52662(19) 0.9725(2) 0.7500(3)
H20_16 H 0.5423 0.9813 0.7514
C54_16 C 0.50383(18) 0.98598(18) 0.7490(2)
C55_16 C 0.48118(18) 0.9724(2) 0.7484(2)
H21_16 H 0.4654 0.9812 0.7489
O30_12 O 0.3598(3) 0.8496(3) 0.7964(3)
O31_12 O 0.3700(7) 0.8775(8) 0.6729(4)
O32_12 O 0.22082(14) 0.86707(16) 0.84533(12)
Zn12_8 Zn 0.07042(2) 0.75020(2) 0.60563(2)
Zn14_8 Zn 0.29065(2) 0.88776(2) 0.61624(2)
Zn15_12 Zn 0.25356(2) 0.90219(2) 0.57145(2)
O37_20 O 0.16169(13) 0.75911(15) 0.61698(19)
O40_20 O 0.24476(14) 0.84427(13) 0.62396(17)
O41_20 O 0.28330(19) 0.85089(14) 0.6069(2)
O42_12 O 0.33781(13) 0.74729(14) 0.61354(17)
O43_12 O 0.34684(15) 0.78820(17) 0.6204(2)
O44_20 O 0.14031(11) 0.80560(12) 0.59898(11)
O45_20 O 0.13655(15) 0.78346(14) 0.56290(12)
O46_20 O 0.20635(12) 0.87308(13) 0.59793(12)
O47_20 O 0.22320(14) 0.88442(13) 0.56061(13)
O48_12 O 0.21893(14) 0.88525(13) 0.44754(12)
O49_12 O 0.12712(14) 0.81300(14) 0.41878(14)
O50_12 O 0.1393(2) 0.78477(17) 0.44830(15)
O51_20 O 0.09149(14) 0.80306(16) 0.62521(16)
O52_20 O 0.05638(14) 0.77931(18) 0.62207(17)
O59_20 O 0.25700(10) 0.90179(10) 0.60757(10)
O60_20 O 0.10694(11) 0.75088(11) 0.60599(11)
C65_20 C 0.16828(18) 0.7383(2) 0.6242(2)
C66_20 C 0.19622(19) 0.7317(2) 0.6233(3)
C67_20 C 0.20329(19) 0.7062(2) 0.6242(2)
H25_20 H 0.1907 0.6933 0.6258
C68_20 C 0.22865(19) 0.69974(18) 0.6227(2)
C69_20 C 0.2351(2) 0.67182(19) 0.6222(2)
C70_20 C 0.24699(19) 0.7186(2) 0.6211(2)
H26_20 H 0.2644 0.7140 0.6204
C71_20 C 0.21476(19) 0.75042(18) 0.6212(3)
H27_20 H 0.2098 0.7677 0.6201
C72_20 C 0.24034(18) 0.74427(18) 0.6206(2)
C73_20 C 0.26020(18) 0.76454(18) 0.6195(2)
C74_20 C 0.28567(18) 0.75858(19) 0.6181(2)
H28_20 H 0.2906 0.7412 0.6179
C75_20 C 0.25410(18) 0.79045(19) 0.6193(2)
H29_20 H 0.2368 0.7955 0.6209
C76_20 C 0.2727(2) 0.80893(18) 0.6170(2)
C77_20 C 0.2663(2) 0.8368(2) 0.6166(2)
C78_20 C 0.2974(2) 0.8022(2) 0.6155(2)
H30_20 H 0.3101 0.8149 0.6133
C79_20 C 0.30431(18) 0.77705(19) 0.6170(2)
C80_20 C 0.33198(19) 0.7701(2) 0.6164(2)
C81_20 C 0.14411(16) 0.80218(17) 0.57547(15)
C82_20 C 0.15846(17) 0.82238(18) 0.56134(16)
C83_20 C 0.17416(16) 0.83891(17) 0.57452(16)
H31_20 H 0.1748 0.8386 0.5926
C84_20 C 0.18901(17) 0.85589(17) 0.56073(16)
C85_20 C 0.20771(17) 0.87251(16) 0.57429(16)
C86_20 C 0.18709(18) 0.85711(18) 0.53454(17)
H32_20 H 0.1969 0.8692 0.5254
C87_20 C 0.15697(18) 0.82334(18) 0.53495(17)
H33_20 H 0.1462 0.8118 0.5262
C88_20 C 0.17096(19) 0.84080(18) 0.52150(17)
C89_20 C 0.16918(19) 0.84241(18) 0.49269(17)
C90_20 C 0.18305(19) 0.86021(18) 0.47900(16)
H34_20 H 0.1941 0.8715 0.4878
C91_20 C 0.18113(19) 0.86181(19) 0.45256(18)
O61_12 O 0.18966(15) 0.88830(15) 0.41729(14)
C92_20 C 0.16530(18) 0.84543(18) 0.43961(17)
H35_20 H 0.1632 0.8470 0.4217
C93_20 C 0.1526(2) 0.8268(2) 0.45289(18)
C94_20 C 0.1380(2) 0.8072(2) 0.43880(18)
C95_20 C 0.1547(2) 0.8253(2) 0.47876(17)
H36_20 H 0.1460 0.8121 0.4875
C96_20 C 0.0690(2) 0.7988(2) 0.6295(2)
C97_20 C 0.05490(19) 0.8169(2) 0.6467(2)
C98_20 C 0.06878(19) 0.8322(2) 0.6631(2)
H37_20 H 0.0868 0.8332 0.6619
C99_20 C 0.05567(18) 0.8460(2) 0.6815(2)
C100_20 C 0.06985(19) 0.8605(2) 0.7015(2)
C101_20 C 0.02905(18) 0.8451(2) 0.6821(2)
H38_20 H 0.0203 0.8547 0.6946
C102_20 C 0.02818(18) 0.8162(2) 0.64782(19)
H39_20 H 0.0191 0.8055 0.6365
C103_20 C 0.01505(17) 0.8308(2) 0.66499(19)
O62_20 O 0.2036(3) 0.8598(3) 0.6504(3)
O63_20 O 0.3271(4) 0.8700(7) 0.6225(8)
O64_20 O 0.15467(12) 0.72082(14) 0.63293(16)
C112_20 C 0.1978(2) 0.88005(19) 0.43824(19)
Zn31_8 Zn 0.60563(2) 0.92958(2) 0.74980(2)
Zn35_8 Zn 0.38376(2) 0.79065(2) 0.61224(2)
Zn39_8 Zn 0.11624(2) 0.79065(2) 0.38776(2)
Zn41_12 Zn 0.24644(2) 0.90219(2) 0.42855(2)
O69_12 O 0.38646(17) 0.83781(13) 0.75271(14)
O70_12 O 0.3796(2) 0.84684(15) 0.71180(17)
O71_8 O 0.38525(13) 0.94754(12) 0.71893(14)
O72_12 O 0.28107(14) 0.88525(13) 0.55246(12)
O73_12 O 0.31300(14) 0.91878(14) 0.62712(14)
O74_8 O 0.41878(14) 0.87288(14) 0.68700(14)
O75_12 O 0.28477(17) 0.94830(15) 0.6393(2)
O76_8 O 0.44830(15) 0.8607(2) 0.71523(17)
O81_8 O 0.19874(12) 0.86438(12) 0.90608(11)
O82_12 O 0.09392(11) 0.69874(12) 0.63562(12)
O83_8 O 0.21882(16) 0.87745(15) 0.94188(13)
O84_12 O 0.05812(13) 0.71882(16) 0.62255(15)
O89_12 O 0.2567(2) 0.95932(14) 0.59164(13)
O90_12 O 0.25219(14) 0.93654(12) 0.55664(11)
O91_8 O 0.25322(19) 0.95119(14) 0.90782(13)
O92_8 O 0.09218(13) 0.75322(19) 0.54881(14)
O93_8 O 0.24845(14) 0.92865(11) 0.94378(12)
O94_8 O 0.05622(12) 0.74845(14) 0.57135(11)
O95_8 O 0.38830(15) 0.91729(14) 0.68966(15)
O96_12 O 0.31034(15) 0.88830(15) 0.58271(14)
O55_12 O 0.90608(11) 0.80126(12) 0.63562(12)
O56_12 O 0.94188(13) 0.78118(16) 0.62255(15)
C104_20 C 0.98624(18) 0.8303(2) 0.66644(19)
C105_20 C 0.97165(17) 0.81577(19) 0.64978(19)
H40_20 H 0.9800 0.8059 0.6371
C106_20 C 0.94536(17) 0.81528(18) 0.65116(17)
C107_20 C 0.93021(18) 0.7978(2) 0.63485(19)
C108_20 C 0.93285(16) 0.82961(18) 0.66920(17)
H41_20 H 0.9148 0.8300 0.6698
C109_20 C 0.94754(17) 0.84361(18) 0.68662(18)
C110_20 C 0.93414(18) 0.85741(19) 0.70786(18)
C111_20 C 0.97374(18) 0.8435(2) 0.68532(19)
H42_20 H 0.9833 0.8527 0.6976
Zn30_8 Zn 0.92958(2) 0.74980(2) 0.60563(2)
O25_17 O 0.25322(19) 0.04881(14) 0.59218(13)
O26_17 O 0.24845(14) 0.07135(11) 0.55622(12)
C50_17 C 0.2525(2) 0.00421(19) 0.56686(19)
H19_17 H 0.2534 0.0044 0.5849
C51_17 C 0.2510(2) 0.02643(19) 0.55368(19)
C52_17 C 0.2508(2) 0.05069(18) 0.56838(18)
C53_17 C 0.2500(3) 0.02662(19) 0.5275(2)
H20_17 H 0.2486 0.0423 0.5187
C54_17 C 0.2510(2) 0.00383(18) 0.51402(18)
C59_17 C 0.2475(2) 0.00421(19) 0.43314(19)
H22_17 H 0.2466 0.0044 0.4151
C60_17 C 0.2490(2) 0.02643(19) 0.44632(19)
C61_17 C 0.2492(2) 0.05069(18) 0.43162(18)
C62_17 C 0.2500(3) 0.02662(19) 0.4725(2)
H23_17 H 0.2514 0.0423 0.4813
C63_17 C 0.2490(2) 0.00383(18) 0.48598(18)
C48_17 C 0.2537(2) 0.95696(18) 0.56849(17)
C49_17 C 0.2528(2) 0.98134(18) 0.55376(18)
C55_17 C 0.2516(2) 0.98118(18) 0.5276(2)
H21_17 H 0.2511 0.9654 0.5188
O33_17 O 0.2433(2) 0.95932(14) 0.40836(13)
O34_17 O 0.24781(14) 0.93654(12) 0.44336(11)
C57_17 C 0.2463(2) 0.95696(18) 0.43151(17)
C58_17 C 0.2472(2) 0.98134(18) 0.44624(18)
C64_17 C 0.2484(2) 0.98118(18) 0.4724(2)
H24_17 H 0.2489 0.9654 0.4812
Zn15_13 Zn 0.42855(2) 0.75356(2) 0.59781(2)
O37_21 O 0.38302(19) 0.66169(13) 0.74089(15)
O40_21 O 0.37604(17) 0.74476(14) 0.65573(13)
O41_21 O 0.3931(2) 0.78330(19) 0.64911(14)
O44_21 O 0.40102(11) 0.64031(11) 0.69440(12)
O45_21 O 0.43710(12) 0.63655(15) 0.71654(14)
O46_21 O 0.40207(12) 0.70635(12) 0.62692(13)
O47_21 O 0.43939(13) 0.72320(14) 0.61558(13)
O48_13 O 0.55246(12) 0.71893(14) 0.61475(13)
O49_13 O 0.58122(14) 0.62712(14) 0.68700(14)
O50_13 O 0.55170(15) 0.6393(2) 0.71523(17)
O51_21 O 0.37479(16) 0.59149(14) 0.69694(16)
O52_21 O 0.37793(17) 0.55638(14) 0.72069(18)
O55_13 O 0.36438(12) 0.40608(11) 0.69874(12)
O56_13 O 0.37745(15) 0.44188(13) 0.71882(16)
O59_21 O 0.39243(10) 0.75700(10) 0.59821(10)
O60_21 O 0.39401(11) 0.60694(11) 0.74912(11)
C65_21 C 0.3758(2) 0.66828(18) 0.7617(2)
C66_21 C 0.3767(3) 0.69622(19) 0.7683(2)
C67_21 C 0.3758(2) 0.70329(19) 0.7938(2)
H25_21 H 0.3742 0.6907 0.8067
C68_21 C 0.3773(2) 0.72865(19) 0.80026(18)
C69_21 C 0.3778(2) 0.7351(2) 0.82818(19)
C70_21 C 0.3789(2) 0.74699(19) 0.7814(2)
H26_21 H 0.3796 0.7644 0.7860
C71_21 C 0.3788(3) 0.71476(19) 0.74958(18)
H27_21 H 0.3799 0.7098 0.7323
C72_21 C 0.3794(2) 0.74034(18) 0.75573(18)
C73_21 C 0.3805(2) 0.76020(18) 0.73546(18)
C74_21 C 0.3819(2) 0.78567(18) 0.74142(19)
H28_21 H 0.3821 0.7906 0.7588
C75_21 C 0.3807(2) 0.75410(18) 0.70955(19)
H29_21 H 0.3791 0.7368 0.7045
C76_21 C 0.3830(2) 0.7727(2) 0.69107(18)
C77_21 C 0.3834(2) 0.7663(2) 0.6632(2)
C78_21 C 0.3845(2) 0.7974(2) 0.6978(2)
H30_21 H 0.3867 0.8101 0.6851
C79_21 C 0.3830(2) 0.80431(18) 0.72295(19)
C80_21 C 0.3836(2) 0.83198(19) 0.7299(2)
C81_21 C 0.42453(15) 0.64411(16) 0.69782(17)
C82_21 C 0.43866(16) 0.65846(17) 0.67762(18)
C83_21 C 0.42548(16) 0.67416(16) 0.66109(17)
H31_21 H 0.4074 0.6748 0.6614
C84_21 C 0.43927(16) 0.68901(17) 0.64411(17)
C85_21 C 0.42571(16) 0.70771(17) 0.62749(16)
C86_21 C 0.46546(17) 0.68709(18) 0.64289(18)
H32_21 H 0.4746 0.6969 0.6308
C87_21 C 0.46505(17) 0.65697(18) 0.67666(18)
H33_21 H 0.4738 0.6462 0.6882
C88_21 C 0.47850(17) 0.67096(19) 0.65920(18)
C89_21 C 0.50731(17) 0.66918(19) 0.65759(18)
C90_21 C 0.52100(16) 0.68305(19) 0.63979(18)
H34_21 H 0.5122 0.6941 0.6285
C91_21 C 0.54744(18) 0.68113(19) 0.63819(19)
O61_13 O 0.58271(14) 0.68966(15) 0.61170(15)
C92_21 C 0.56039(17) 0.66530(18) 0.65457(18)
H35_21 H 0.5783 0.6632 0.6530
C93_21 C 0.54711(18) 0.6526(2) 0.6732(2)
C94_21 C 0.56120(18) 0.6380(2) 0.6928(2)
C95_21 C 0.52124(17) 0.6547(2) 0.6747(2)
H36_21 H 0.5125 0.6460 0.6879
C96_21 C 0.3705(2) 0.5690(2) 0.7012(2)
C97_21 C 0.3533(2) 0.55490(19) 0.6831(2)
C98_21 C 0.3369(2) 0.56878(19) 0.6678(2)
H37_21 H 0.3381 0.5868 0.6668
C99_21 C 0.3185(2) 0.55567(18) 0.6540(2)
C100_21 C 0.2985(2) 0.56985(19) 0.6395(2)
C101_21 C 0.3179(2) 0.52905(18) 0.6549(2)
H38_21 H 0.3054 0.5203 0.6453
C102_21 C 0.35218(19) 0.52818(18) 0.6838(2)
H39_21 H 0.3635 0.5191 0.6945
C103_21 C 0.33501(19) 0.51505(17) 0.6692(2)
C104_21 C 0.33356(19) 0.48624(18) 0.6697(2)
C105_21 C 0.35022(19) 0.47165(17) 0.68423(19)
H40_21 H 0.3629 0.4800 0.6941
C106_21 C 0.34884(17) 0.44536(17) 0.68472(18)
C107_21 C 0.36515(19) 0.43021(18) 0.7022(2)
C108_21 C 0.33080(17) 0.43285(16) 0.67039(18)
H41_21 H 0.3302 0.4148 0.6700
C109_21 C 0.31338(18) 0.44754(17) 0.65639(18)
C110_21 C 0.29214(18) 0.43414(18) 0.64259(19)
C111_21 C 0.31468(19) 0.47374(18) 0.6565(2)
H42_21 H 0.3024 0.4833 0.6473
O62_21 O 0.3496(3) 0.7036(3) 0.6402(3)
O63_21 O 0.3775(8) 0.8271(4) 0.6300(7)
O64_21 O 0.36707(16) 0.65467(12) 0.77918(14)
C112_21 C 0.56176(19) 0.6978(2) 0.61995(19)
Zn41_13 Zn 0.57145(2) 0.74644(2) 0.59781(2)
O72_13 O 0.44754(12) 0.78107(14) 0.61475(13)
O73_13 O 0.37288(14) 0.81300(14) 0.58122(14)
O75_13 O 0.3607(2) 0.78477(17) 0.55170(15)
O82_13 O 0.36438(12) 0.59392(11) 0.80126(12)
O84_13 O 0.37745(15) 0.55812(13) 0.78118(16)
O89_13 O 0.40836(13) 0.7567(2) 0.54068(14)
O90_13 O 0.44336(11) 0.75219(14) 0.56346(12)
O96_13 O 0.41729(14) 0.81034(15) 0.61170(15)
O48_14 O 0.05246(12) 0.78107(14) 0.38525(13)
O49_14 O 0.08122(14) 0.87288(14) 0.31300(14)
O50_14 O 0.05170(15) 0.8607(2) 0.28477(17)
C89_22 C 0.00731(17) 0.83082(19) 0.34241(18)
C90_22 C 0.02100(16) 0.81695(19) 0.36021(18)
H34_22 H 0.0122 0.8059 0.3715
C91_22 C 0.04744(18) 0.81887(19) 0.36181(19)
O61_14 O 0.08271(14) 0.81034(15) 0.38830(15)
C92_22 C 0.06039(17) 0.83470(18) 0.34543(18)
H35_22 H 0.0783 0.8368 0.3470
C93_22 C 0.04711(18) 0.8474(2) 0.3268(2)
C94_22 C 0.06120(18) 0.8620(2) 0.3072(2)
C95_22 C 0.02124(17) 0.8453(2) 0.3253(2)
H36_22 H 0.0125 0.8540 0.3121
C112_22 C 0.06176(19) 0.8022(2) 0.38005(19)
Zn41_14 Zn 0.07145(2) 0.75356(2) 0.40219(2)
O55_14 O 0.86438(12) 0.09392(11) 0.30126(12)
O56_14 O 0.87745(15) 0.05812(13) 0.28118(16)
C104_22 C 0.83356(19) 0.01376(18) 0.3303(2)
C105_22 C 0.85022(19) 0.02835(17) 0.31577(19)
H40_22 H 0.8629 0.0200 0.3059
C106_22 C 0.84884(17) 0.05464(17) 0.31528(18)
C107_22 C 0.86515(19) 0.06979(18) 0.2978(2)
C108_22 C 0.83080(17) 0.06715(16) 0.32961(18)
H41_22 H 0.8302 0.0852 0.3300
C109_22 C 0.81338(18) 0.05246(17) 0.34361(18)
C110_22 C 0.79214(18) 0.06586(18) 0.35741(19)
C111_22 C 0.81468(19) 0.02626(18) 0.3435(2)
H42_22 H 0.8024 0.0167 0.3527
O25_18 O 0.75322(19) 0.45119(14) 0.40782(13)
O26_18 O 0.74845(14) 0.42865(11) 0.44378(12)
C48_18 C 0.7537(2) 0.54304(18) 0.43151(17)
C49_18 C 0.7528(2) 0.51866(18) 0.44624(18)
C50_18 C 0.7525(2) 0.49579(19) 0.43314(19)
H19_18 H 0.7534 0.4956 0.4151
C51_18 C 0.7510(2) 0.47357(19) 0.44632(19)
C52_18 C 0.7508(2) 0.44931(18) 0.43162(18)
C53_18 C 0.7500(3) 0.47338(19) 0.4725(2)
H20_18 H 0.7486 0.4577 0.4813
C54_18 C 0.7510(2) 0.49617(18) 0.48598(18)
C55_18 C 0.7516(2) 0.51882(18) 0.4724(2)
H21_18 H 0.7511 0.5346 0.4812
O33_18 O 0.7433(2) 0.54068(14) 0.59164(13)
O34_18 O 0.74781(14) 0.56346(12) 0.55664(11)
C57_18 C 0.7463(2) 0.54304(18) 0.56849(17)
C58_18 C 0.7472(2) 0.51866(18) 0.55376(18)
C59_18 C 0.7475(2) 0.49579(19) 0.56686(19)
H22_18 H 0.7466 0.4956 0.5849
C60_18 C 0.7490(2) 0.47357(19) 0.55368(19)
C61_18 C 0.7492(2) 0.44931(18) 0.56838(18)
C62_18 C 0.7500(3) 0.47338(19) 0.5275(2)
H23_18 H 0.7514 0.4577 0.5187
C63_18 C 0.7490(2) 0.49617(18) 0.51402(18)
C64_18 C 0.7484(2) 0.51882(18) 0.5276(2)
H24_18 H 0.7489 0.5346 0.5188
Zn15_14 Zn 0.92855(2) 0.74644(2) 0.40219(2)
O37_22 O 0.88302(19) 0.83831(13) 0.25911(15)
O40_22 O 0.87604(17) 0.75524(14) 0.34427(13)
O41_22 O 0.8931(2) 0.71670(19) 0.35089(14)
O44_22 O 0.90102(11) 0.85969(11) 0.30560(12)
O45_22 O 0.93710(12) 0.86345(15) 0.28346(14)
O46_22 O 0.90207(12) 0.79365(12) 0.37308(13)
O47_22 O 0.93939(13) 0.77680(14) 0.38442(13)
O51_22 O 0.87479(16) 0.90851(14) 0.30306(16)
O52_22 O 0.87793(17) 0.94362(14) 0.27931(18)
O59_22 O 0.89243(10) 0.74300(10) 0.40179(10)
O60_22 O 0.89401(11) 0.89306(11) 0.25088(11)
C65_22 C 0.8758(2) 0.83172(18) 0.2383(2)
C66_22 C 0.8767(3) 0.80378(19) 0.2317(2)
C67_22 C 0.8758(2) 0.79671(19) 0.2062(2)
H25_22 H 0.8742 0.8093 0.1933
C68_22 C 0.8773(2) 0.77135(19) 0.19974(18)
C69_22 C 0.8778(2) 0.7649(2) 0.17182(19)
C70_22 C 0.8789(2) 0.75301(19) 0.2186(2)
H26_22 H 0.8796 0.7356 0.2140
C71_22 C 0.8788(3) 0.78524(19) 0.25042(18)
H27_22 H 0.8799 0.7902 0.2677
C72_22 C 0.8794(2) 0.75966(18) 0.24427(18)
C73_22 C 0.8805(2) 0.73980(18) 0.26454(18)
C74_22 C 0.8819(2) 0.71433(18) 0.25858(19)
H28_22 H 0.8821 0.7094 0.2412
C75_22 C 0.8807(2) 0.74590(18) 0.29045(19)
H29_22 H 0.8791 0.7632 0.2955
C76_22 C 0.8830(2) 0.7273(2) 0.30893(18)
C77_22 C 0.8834(2) 0.7337(2) 0.3368(2)
C78_22 C 0.8845(2) 0.7026(2) 0.3022(2)
H30_22 H 0.8867 0.6899 0.3149
C79_22 C 0.8830(2) 0.69569(18) 0.27705(19)
C80_22 C 0.8836(2) 0.66802(19) 0.2701(2)
C81_22 C 0.92453(15) 0.85589(16) 0.30218(17)
C82_22 C 0.93866(16) 0.84154(17) 0.32238(18)
C83_22 C 0.92548(16) 0.82584(16) 0.33891(17)
H31_22 H 0.9074 0.8252 0.3386
C84_22 C 0.93927(16) 0.81099(17) 0.35589(17)
C85_22 C 0.92571(16) 0.79229(17) 0.37251(16)
C86_22 C 0.96546(17) 0.81291(18) 0.35711(18)
H32_22 H 0.9746 0.8031 0.3692
C87_22 C 0.96505(17) 0.84303(18) 0.32334(18)
H33_22 H 0.9738 0.8538 0.3118
C88_22 C 0.97850(17) 0.82904(19) 0.34080(18)
C96_22 C 0.8705(2) 0.9310(2) 0.2988(2)
C97_22 C 0.8533(2) 0.94510(19) 0.3169(2)
C98_22 C 0.8369(2) 0.93122(19) 0.3322(2)
H37_22 H 0.8381 0.9132 0.3332
C99_22 C 0.8185(2) 0.94433(18) 0.3460(2)
C100_22 C 0.7985(2) 0.93015(19) 0.3605(2)
C101_22 C 0.8179(2) 0.97095(18) 0.3451(2)
H38_22 H 0.8054 0.9797 0.3547
C102_22 C 0.85218(19) 0.97182(18) 0.3162(2)
H39_22 H 0.8635 0.9809 0.3055
C103_22 C 0.83501(19) 0.98495(17) 0.3308(2)
O62_22 O 0.8496(3) 0.7964(3) 0.3598(3)
O63_22 O 0.8775(8) 0.6729(4) 0.3700(7)
O64_22 O 0.86707(16) 0.84533(12) 0.22082(14)
O72_14 O 0.94754(12) 0.71893(14) 0.38525(13)
O73_14 O 0.87288(14) 0.68700(14) 0.41878(14)
O75_14 O 0.8607(2) 0.71523(17) 0.44830(15)
O82_14 O 0.86438(12) 0.90608(11) 0.19874(12)
O84_14 O 0.87745(15) 0.94188(13) 0.21882(16)
O89_14 O 0.90836(13) 0.7433(2) 0.45932(14)
O90_14 O 0.94336(11) 0.74781(14) 0.43654(12)
O96_14 O 0.91729(14) 0.68966(15) 0.38830(15)
C48_19 C 0.2463(2) 0.04304(18) 0.06849(17)
C49_19 C 0.2472(2) 0.01866(18) 0.05376(18)
C55_19 C 0.2484(2) 0.01882(18) 0.0276(2)
H21_19 H 0.2489 0.0346 0.0188
Zn15_15 Zn 0.07145(2) 0.24644(2) 0.09781(2)
O37_23 O 0.11698(19) 0.33831(13) 0.24089(15)
O40_23 O 0.12396(17) 0.25524(14) 0.15573(13)
O41_23 O 0.1069(2) 0.21670(19) 0.14911(14)
O44_23 O 0.09898(11) 0.35969(11) 0.19440(12)
O45_23 O 0.06290(12) 0.36345(15) 0.21654(14)
O46_23 O 0.09793(12) 0.29365(12) 0.12692(13)
O47_23 O 0.06061(13) 0.27680(14) 0.11558(13)
O51_23 O 0.12521(16) 0.40851(14) 0.19694(16)
O52_23 O 0.12207(17) 0.44362(14) 0.22069(18)
O55_15 O 0.13562(12) 0.59392(11) 0.19874(12)
O56_15 O 0.12255(15) 0.55812(13) 0.21882(16)
O59_23 O 0.10757(10) 0.24300(10) 0.09821(10)
O60_23 O 0.10599(11) 0.39306(11) 0.24912(11)
C65_23 C 0.1242(2) 0.33172(18) 0.2617(2)
C66_23 C 0.1233(3) 0.30378(19) 0.2683(2)
C67_23 C 0.1242(2) 0.29671(19) 0.2938(2)
H25_23 H 0.1258 0.3093 0.3067
C68_23 C 0.1227(2) 0.27135(19) 0.30026(18)
C69_23 C 0.1222(2) 0.2649(2) 0.32818(19)
C70_23 C 0.1211(2) 0.25301(19) 0.2814(2)
H26_23 H 0.1204 0.2356 0.2860
C71_23 C 0.1212(3) 0.28524(19) 0.24958(18)
H27_23 H 0.1201 0.2902 0.2323
C72_23 C 0.1206(2) 0.25966(18) 0.25573(18)
C73_23 C 0.1195(2) 0.23980(18) 0.23546(18)
C74_23 C 0.1181(2) 0.21433(18) 0.24142(19)
H28_23 H 0.1179 0.2094 0.2588
C75_23 C 0.1193(2) 0.24590(18) 0.20955(19)
H29_23 H 0.1209 0.2632 0.2045
C76_23 C 0.1170(2) 0.2273(2) 0.19107(18)
C77_23 C 0.1166(2) 0.2337(2) 0.1632(2)
C78_23 C 0.1155(2) 0.2026(2) 0.1978(2)
H30_23 H 0.1133 0.1899 0.1851
C79_23 C 0.1170(2) 0.19569(18) 0.22295(19)
C80_23 C 0.1164(2) 0.16802(19) 0.2299(2)
C81_23 C 0.07547(15) 0.35589(16) 0.19782(17)
C82_23 C 0.06134(16) 0.34154(17) 0.17762(18)
C83_23 C 0.07452(16) 0.32584(16) 0.16109(17)
H31_23 H 0.0926 0.3252 0.1614
C84_23 C 0.06073(16) 0.31099(17) 0.14411(17)
C85_23 C 0.07429(16) 0.29229(17) 0.12749(16)
C86_23 C 0.03454(17) 0.31291(18) 0.14289(18)
H32_23 H 0.0254 0.3031 0.1308
C87_23 C 0.03495(17) 0.34303(18) 0.17666(18)
H33_23 H 0.0262 0.3538 0.1882
C88_23 C 0.02150(17) 0.32904(19) 0.15920(18)
C96_23 C 0.1295(2) 0.4310(2) 0.2012(2)
C97_23 C 0.1467(2) 0.44510(19) 0.1831(2)
C98_23 C 0.1631(2) 0.43122(19) 0.1678(2)
H37_23 H 0.1619 0.4132 0.1668
C99_23 C 0.1815(2) 0.44433(18) 0.1540(2)
C100_23 C 0.2015(2) 0.43015(19) 0.1395(2)
C101_23 C 0.1821(2) 0.47095(18) 0.1549(2)
H38_23 H 0.1946 0.4797 0.1453
C102_23 C 0.14782(19) 0.47182(18) 0.1838(2)
H39_23 H 0.1365 0.4809 0.1945
C103_23 C 0.16499(19) 0.48495(17) 0.1692(2)
C104_23 C 0.16644(19) 0.51376(18) 0.1697(2)
C105_23 C 0.14978(19) 0.52835(17) 0.18423(19)
H40_23 H 0.1371 0.5200 0.1941
C106_23 C 0.15116(17) 0.55464(17) 0.18472(18)
C107_23 C 0.13485(19) 0.56979(18) 0.2022(2)
C108_23 C 0.16920(17) 0.56715(16) 0.17039(18)
H41_23 H 0.1698 0.5852 0.1700
C109_23 C 0.18662(18) 0.55246(17) 0.15639(18)
C110_23 C 0.20786(18) 0.56586(18) 0.14259(19)
C111_23 C 0.18532(19) 0.52626(18) 0.1565(2)
H42_23 H 0.1976 0.5167 0.1473
O62_23 O 0.1504(3) 0.2964(3) 0.1402(3)
O63_23 O 0.1225(8) 0.1729(4) 0.1300(7)
O64_23 O 0.13293(16) 0.34533(12) 0.27918(14)
O72_15 O 0.05246(12) 0.21893(14) 0.11475(13)
O73_15 O 0.12712(14) 0.18700(14) 0.08122(14)
O75_15 O 0.1393(2) 0.21523(17) 0.05170(15)
O82_15 O 0.13562(12) 0.40608(11) 0.30126(12)
O84_15 O 0.12255(15) 0.44188(13) 0.28118(16)
O89_15 O 0.09164(13) 0.2433(2) 0.04068(14)
O90_15 O 0.05664(11) 0.24781(14) 0.06346(12)
O96_15 O 0.08271(14) 0.18966(15) 0.11170(15)
O33_19 O 0.2567(2) 0.04068(14) 0.90836(13)
O34_19 O 0.25219(14) 0.06346(12) 0.94336(11)
C57_19 C 0.2537(2) 0.04304(18) 0.93151(17)
C58_19 C 0.2528(2) 0.01866(18) 0.94624(18)
C64_19 C 0.2516(2) 0.01882(18) 0.9724(2)
H24_19 H 0.2511 0.0346 0.9812
O25_19 O 0.24678(19) 0.95119(14) 0.09218(13)
O26_19 O 0.25155(14) 0.92865(11) 0.05622(12)
C50_19 C 0.2475(2) 0.99579(19) 0.06686(19)
H19_19 H 0.2466 0.9956 0.0849
C51_19 C 0.2490(2) 0.97357(19) 0.05368(19)
C52_19 C 0.2492(2) 0.94931(18) 0.06838(18)
C53_19 C 0.2500(3) 0.97338(19) 0.0275(2)
H20_19 H 0.2514 0.9577 0.0187
C54_19 C 0.2490(2) 0.99617(18) 0.01402(18)
C59_19 C 0.2525(2) 0.99579(19) 0.93314(19)
H22_19 H 0.2534 0.9956 0.9151
C60_19 C 0.2510(2) 0.97357(19) 0.94632(19)
C61_19 C 0.2508(2) 0.94931(18) 0.93162(18)
C62_19 C 0.2500(3) 0.97338(19) 0.9725(2)
H23_19 H 0.2486 0.9577 0.9813
C63_19 C 0.2510(2) 0.99617(18) 0.98598(18)
O48_15 O 0.94754(12) 0.28107(14) 0.11475(13)
O49_15 O 0.91878(14) 0.37288(14) 0.18700(14)
O50_15 O 0.94830(15) 0.3607(2) 0.21523(17)
C89_23 C 0.99269(17) 0.33082(19) 0.15759(18)
C90_23 C 0.97900(16) 0.31695(19) 0.13979(18)
H34_23 H 0.9878 0.3059 0.1285
C91_23 C 0.95256(18) 0.31887(19) 0.13819(19)
O61_15 O 0.91729(14) 0.31034(15) 0.11170(15)
C92_23 C 0.93961(17) 0.33470(18) 0.15457(18)
H35_23 H 0.9217 0.3368 0.1530
C93_23 C 0.95289(18) 0.3474(2) 0.1732(2)
C94_23 C 0.93880(18) 0.3620(2) 0.1928(2)
C95_23 C 0.97876(17) 0.3453(2) 0.1747(2)
H36_23 H 0.9875 0.3540 0.1879
C112_23 C 0.93824(19) 0.3022(2) 0.11995(19)
Zn41_15 Zn 0.92855(2) 0.25356(2) 0.09781(2)
O33_20 O 0.7567(2) 0.45932(14) 0.09164(13)
O34_20 O 0.75219(14) 0.43654(12) 0.05664(11)
C57_20 C 0.7537(2) 0.45696(18) 0.06849(17)
C58_20 C 0.7528(2) 0.48134(18) 0.05376(18)
C59_20 C 0.7525(2) 0.50421(19) 0.06686(19)
H22_20 H 0.7534 0.5044 0.0849
C60_20 C 0.7510(2) 0.52643(19) 0.05368(19)
C61_20 C 0.7508(2) 0.55069(18) 0.06838(18)
C62_20 C 0.7500(3) 0.52662(19) 0.0275(2)
H23_20 H 0.7486 0.5423 0.0187
C63_20 C 0.7510(2) 0.50383(18) 0.01402(18)
C64_20 C 0.7516(2) 0.48118(18) 0.0276(2)
H24_20 H 0.7511 0.4654 0.0188
O25_20 O 0.74678(19) 0.54881(14) 0.90782(13)
O26_20 O 0.75155(14) 0.57135(11) 0.94378(12)
C48_20 C 0.7463(2) 0.45696(18) 0.93151(17)
C49_20 C 0.7472(2) 0.48134(18) 0.94624(18)
C50_20 C 0.7475(2) 0.50421(19) 0.93314(19)
H19_20 H 0.7466 0.5044 0.9151
C51_20 C 0.7490(2) 0.52643(19) 0.94632(19)
C52_20 C 0.7492(2) 0.55069(18) 0.93162(18)
C53_20 C 0.7500(3) 0.52662(19) 0.9725(2)
H20_20 H 0.7514 0.5423 0.9813
C54_20 C 0.7490(2) 0.50383(18) 0.98598(18)
C55_20 C 0.7484(2) 0.48118(18) 0.9724(2)
H21_20 H 0.7489 0.4654 0.9812
Zn15_16 Zn 0.57145(2) 0.25356(2) 0.90219(2)
O37_24 O 0.61698(19) 0.16169(13) 0.75911(15)
O40_24 O 0.62396(17) 0.24476(14) 0.84427(13)
O41_24 O 0.6069(2) 0.28330(19) 0.85089(14)
O44_24 O 0.59898(11) 0.14031(11) 0.80560(12)
O45_24 O 0.56290(12) 0.13655(15) 0.78346(14)
O46_24 O 0.59793(12) 0.20635(12) 0.87308(13)
O47_24 O 0.56061(13) 0.22320(14) 0.88442(13)
O48_16 O 0.44754(12) 0.21893(14) 0.88525(13)
O49_16 O 0.41878(14) 0.12712(14) 0.81300(14)
O50_16 O 0.44830(15) 0.1393(2) 0.78477(17)
O51_24 O 0.62521(16) 0.09149(14) 0.80306(16)
O52_24 O 0.62207(17) 0.05638(14) 0.77931(18)
O59_24 O 0.60757(10) 0.25700(10) 0.90179(10)
O60_24 O 0.60599(11) 0.10694(11) 0.75088(11)
C65_24 C 0.6242(2) 0.16828(18) 0.7383(2)
C66_24 C 0.6233(3) 0.19622(19) 0.7317(2)
C67_24 C 0.6242(2) 0.20329(19) 0.7062(2)
H25_24 H 0.6258 0.1907 0.6933
C68_24 C 0.6227(2) 0.22865(19) 0.69974(18)
C69_24 C 0.6222(2) 0.2351(2) 0.67182(19)
C70_24 C 0.6211(2) 0.24699(19) 0.7186(2)
H26_24 H 0.6204 0.2644 0.7140
C71_24 C 0.6212(3) 0.21476(19) 0.75042(18)
H27_24 H 0.6201 0.2098 0.7677
C72_24 C 0.6206(2) 0.24034(18) 0.74427(18)
C73_24 C 0.6195(2) 0.26020(18) 0.76454(18)
C74_24 C 0.6181(2) 0.28567(18) 0.75858(19)
H28_24 H 0.6179 0.2906 0.7412
C75_24 C 0.6193(2) 0.25410(18) 0.79045(19)
H29_24 H 0.6209 0.2368 0.7955
C76_24 C 0.6170(2) 0.2727(2) 0.80893(18)
C77_24 C 0.6166(2) 0.2663(2) 0.8368(2)
C78_24 C 0.6155(2) 0.2974(2) 0.8022(2)
H30_24 H 0.6133 0.3101 0.8149
C79_24 C 0.6170(2) 0.30431(18) 0.77705(19)
C80_24 C 0.6164(2) 0.33198(19) 0.7701(2)
C81_24 C 0.57547(15) 0.14411(16) 0.80218(17)
C82_24 C 0.56134(16) 0.15846(17) 0.82238(18)
C83_24 C 0.57452(16) 0.17416(16) 0.83891(17)
H31_24 H 0.5926 0.1748 0.8386
C84_24 C 0.56073(16) 0.18901(17) 0.85589(17)
C85_24 C 0.57429(16) 0.20771(17) 0.87251(16)
C86_24 C 0.53454(17) 0.18709(18) 0.85711(18)
H32_24 H 0.5254 0.1969 0.8692
C87_24 C 0.53495(17) 0.15697(18) 0.82334(18)
H33_24 H 0.5262 0.1462 0.8118
C88_24 C 0.52150(17) 0.17096(19) 0.84080(18)
C89_24 C 0.49269(17) 0.16918(19) 0.84241(18)
C90_24 C 0.47900(16) 0.18305(19) 0.86021(18)
H34_24 H 0.4878 0.1941 0.8715
C91_24 C 0.45256(18) 0.18113(19) 0.86181(19)
O61_16 O 0.41729(14) 0.18966(15) 0.88830(15)
C92_24 C 0.43961(17) 0.16530(18) 0.84543(18)
H35_24 H 0.4217 0.1632 0.8470
C93_24 C 0.45289(18) 0.1526(2) 0.8268(2)
C94_24 C 0.43880(18) 0.1380(2) 0.8072(2)
C95_24 C 0.47876(17) 0.1547(2) 0.8253(2)
H36_24 H 0.4875 0.1460 0.8121
C96_24 C 0.6295(2) 0.0690(2) 0.7988(2)
C97_24 C 0.6467(2) 0.05490(19) 0.8169(2)
C98_24 C 0.6631(2) 0.06878(19) 0.8322(2)
H37_24 H 0.6619 0.0868 0.8332
C99_24 C 0.6815(2) 0.05567(18) 0.8460(2)
C100_24 C 0.7015(2) 0.06985(19) 0.8605(2)
C101_24 C 0.6821(2) 0.02905(18) 0.8451(2)
H38_24 H 0.6946 0.0203 0.8547
C102_24 C 0.64782(19) 0.02818(18) 0.8162(2)
H39_24 H 0.6365 0.0191 0.8055
C103_24 C 0.66499(19) 0.01505(17) 0.8308(2)
O62_24 O 0.6504(3) 0.2036(3) 0.8598(3)
O63_24 O 0.6225(8) 0.3271(4) 0.8700(7)
O64_24 O 0.63293(16) 0.15467(12) 0.72082(14)
C112_24 C 0.43824(19) 0.1978(2) 0.88005(19)
Zn41_16 Zn 0.42855(2) 0.24644(2) 0.90219(2)
O72_16 O 0.55246(12) 0.28107(14) 0.88525(13)
O73_16 O 0.62712(14) 0.31300(14) 0.91878(14)
O75_16 O 0.6393(2) 0.28477(17) 0.94830(15)
O82_16 O 0.63562(12) 0.09392(11) 0.69874(12)
O84_16 O 0.62255(15) 0.05812(13) 0.71882(16)
O89_16 O 0.59164(13) 0.2567(2) 0.95932(14)
O90_16 O 0.55664(11) 0.25219(14) 0.93654(12)
O96_16 O 0.58271(14) 0.31034(15) 0.88830(15)
O55_16 O 0.63562(12) 0.90608(11) 0.80126(12)
O56_16 O 0.62255(15) 0.94188(13) 0.78118(16)
C104_24 C 0.66644(19) 0.98624(18) 0.8303(2)
C105_24 C 0.64978(19) 0.97165(17) 0.81577(19)
H40_24 H 0.6371 0.9800 0.8059
C106_24 C 0.65116(17) 0.94536(17) 0.81528(18)
C107_24 C 0.63485(19) 0.93021(18) 0.7978(2)
C108_24 C 0.66920(17) 0.93285(16) 0.82961(18)
H41_24 H 0.6698 0.9148 0.8300
C109_24 C 0.68662(18) 0.94754(17) 0.84361(18)
C110_24 C 0.70786(18) 0.93414(18) 0.85741(19)
C111_24 C 0.68532(19) 0.97374(18) 0.8435(2)
H42_24 H 0.6976 0.9833 0.8527
O25_21 O 0.59218(13) 0.25322(19) 0.04881(14)
O26_21 O 0.55622(12) 0.24845(14) 0.07135(11)
C50_21 C 0.56686(19) 0.2525(2) 0.00421(19)
H19_21 H 0.5849 0.2534 0.0044
C51_21 C 0.55368(19) 0.2510(2) 0.02643(19)
C52_21 C 0.56838(18) 0.2508(2) 0.05069(18)
C53_21 C 0.5275(2) 0.2500(3) 0.02662(19)
H20_21 H 0.5187 0.2486 0.0423
C54_21 C 0.51402(18) 0.2510(2) 0.00383(18)
C59_21 C 0.43314(19) 0.2475(2) 0.00421(19)
H22_21 H 0.4151 0.2466 0.0044
C60_21 C 0.44632(19) 0.2490(2) 0.02643(19)
C61_21 C 0.43162(18) 0.2492(2) 0.05069(18)
C62_21 C 0.4725(2) 0.2500(3) 0.02662(19)
H23_21 H 0.4813 0.2514 0.0423
C63_21 C 0.48598(18) 0.2490(2) 0.00383(18)
C48_21 C 0.56849(17) 0.2537(2) 0.95696(18)
C49_21 C 0.55376(18) 0.2528(2) 0.98134(18)
C55_21 C 0.5276(2) 0.2516(2) 0.98118(18)
H21_21 H 0.5188 0.2511 0.9654
O33_21 O 0.40836(13) 0.2433(2) 0.95932(14)
O34_21 O 0.44336(11) 0.24781(14) 0.93654(12)
C57_21 C 0.43151(17) 0.2463(2) 0.95696(18)
C58_21 C 0.44624(18) 0.2472(2) 0.98134(18)
C64_21 C 0.4724(2) 0.2484(2) 0.98118(18)
H24_21 H 0.4812 0.2489 0.9654
O25_22 O 0.40782(13) 0.75322(19) 0.45119(14)
O26_22 O 0.44378(12) 0.74845(14) 0.42865(11)
C48_22 C 0.43151(17) 0.7537(2) 0.54304(18)
C49_22 C 0.44624(18) 0.7528(2) 0.51866(18)
C50_22 C 0.43314(19) 0.7525(2) 0.49579(19)
H19_22 H 0.4151 0.7534 0.4956
C51_22 C 0.44632(19) 0.7510(2) 0.47357(19)
C52_22 C 0.43162(18) 0.7508(2) 0.44931(18)
C53_22 C 0.4725(2) 0.7500(3) 0.47338(19)
H20_22 H 0.4813 0.7486 0.4577
C54_22 C 0.48598(18) 0.7510(2) 0.49617(18)
C55_22 C 0.4724(2) 0.7516(2) 0.51882(18)
H21_22 H 0.4812 0.7511 0.5346
O33_22 O 0.59164(13) 0.7433(2) 0.54068(14)
O34_22 O 0.55664(11) 0.74781(14) 0.56346(12)
C57_22 C 0.56849(17) 0.7463(2) 0.54304(18)
C58_22 C 0.55376(18) 0.7472(2) 0.51866(18)
C59_22 C 0.56686(19) 0.7475(2) 0.49579(19)
H22_22 H 0.5849 0.7466 0.4956
C60_22 C 0.55368(19) 0.7490(2) 0.47357(19)
C61_22 C 0.56838(18) 0.7492(2) 0.44931(18)
C62_22 C 0.5275(2) 0.7500(3) 0.47338(19)
H23_22 H 0.5187 0.7514 0.4577
C63_22 C 0.51402(18) 0.7490(2) 0.49617(18)
C64_22 C 0.5276(2) 0.7484(2) 0.51882(18)
H24_22 H 0.5188 0.7489 0.5346
C48_23 C 0.06849(17) 0.2463(2) 0.04304(18)
C49_23 C 0.05376(18) 0.2472(2) 0.01866(18)
C55_23 C 0.0276(2) 0.2484(2) 0.01882(18)
H21_23 H 0.0188 0.2489 0.0346
O25_23 O 0.09218(13) 0.24678(19) 0.95119(14)
O26_23 O 0.05622(12) 0.25155(14) 0.92865(11)
C50_23 C 0.06686(19) 0.2475(2) 0.99579(19)
H19_23 H 0.0849 0.2466 0.9956
C51_23 C 0.05368(19) 0.2490(2) 0.97357(19)
C52_23 C 0.06838(18) 0.2492(2) 0.94931(18)
C53_23 C 0.0275(2) 0.2500(3) 0.97338(19)
H20_23 H 0.0187 0.2514 0.9577
C54_23 C 0.01402(18) 0.2490(2) 0.99617(18)
O33_23 O 0.90836(13) 0.2567(2) 0.04068(14)
O34_23 O 0.94336(11) 0.25219(14) 0.06346(12)
C57_23 C 0.93151(17) 0.2537(2) 0.04304(18)
C58_23 C 0.94624(18) 0.2528(2) 0.01866(18)
C64_23 C 0.9724(2) 0.2516(2) 0.01882(18)
H24_23 H 0.9812 0.2511 0.0346
C59_23 C 0.93314(19) 0.2525(2) 0.99579(19)
H22_23 H 0.9151 0.2534 0.9956
C60_23 C 0.94632(19) 0.2510(2) 0.97357(19)
C61_23 C 0.93162(18) 0.2508(2) 0.94931(18)
C62_23 C 0.9725(2) 0.2500(3) 0.97338(19)
H23_23 H 0.9813 0.2486 0.9577
C63_23 C 0.98598(18) 0.2510(2) 0.99617(18)
O33_24 O 0.09164(13) 0.7567(2) 0.45932(14)
O34_24 O 0.05664(11) 0.75219(14) 0.43654(12)
C57_24 C 0.06849(17) 0.7537(2) 0.45696(18)
C58_24 C 0.05376(18) 0.7528(2) 0.48134(18)
C59_24 C 0.06686(19) 0.7525(2) 0.50421(19)
H22_24 H 0.0849 0.7534 0.5044
C60_24 C 0.05368(19) 0.7510(2) 0.52643(19)
C61_24 C 0.06838(18) 0.7508(2) 0.55069(18)
C62_24 C 0.0275(2) 0.7500(3) 0.52662(19)
H23_24 H 0.0187 0.7486 0.5423
C63_24 C 0.01402(18) 0.7510(2) 0.50383(18)
C64_24 C 0.0276(2) 0.7516(2) 0.48118(18)
H24_24 H 0.0188 0.7511 0.4654
O25_24 O 0.90782(13) 0.74678(19) 0.54881(14)
O26_24 O 0.94378(12) 0.75155(14) 0.57135(11)
C48_24 C 0.93151(17) 0.7463(2) 0.45696(18)
C49_24 C 0.94624(18) 0.7472(2) 0.48134(18)
C50_24 C 0.93314(19) 0.7475(2) 0.50421(19)
H19_24 H 0.9151 0.7466 0.5044
C51_24 C 0.94632(19) 0.7490(2) 0.52643(19)
C52_24 C 0.93162(18) 0.7492(2) 0.55069(18)
C53_24 C 0.9725(2) 0.7500(3) 0.52662(19)
H20_24 H 0.9813 0.7514 0.5423
C54_24 C 0.98598(18) 0.7490(2) 0.50383(18)
C55_24 C 0.9724(2) 0.7484(2) 0.48118(18)
H21_24 H 0.9812 0.7489 0.4654
C89_25 C 0.16918(19) 0.15759(18) 0.00731(17)
C90_25 C 0.18305(19) 0.13979(18) 0.02100(16)
H34_25 H 0.1941 0.1285 0.0122
C91_25 C 0.18113(19) 0.13819(19) 0.04744(18)
C92_25 C 0.16530(18) 0.15457(18) 0.06039(17)
H35_25 H 0.1632 0.1530 0.0783
C93_25 C 0.1526(2) 0.1732(2) 0.04711(18)
C94_25 C 0.1380(2) 0.1928(2) 0.06120(18)
C95_25 C 0.1547(2) 0.1747(2) 0.02124(17)
H36_25 H 0.1460 0.1879 0.0125
C112_25 C 0.1978(2) 0.11995(19) 0.06176(19)
O1_13 O 0.25911(15) 0.11698(19) 0.66169(13)
O4_13 O 0.34427(13) 0.12396(17) 0.74476(14)
O5_13 O 0.35089(14) 0.1069(2) 0.78330(19)
O6_13 O 0.24729(14) 0.11354(17) 0.83781(13)
O7_13 O 0.28820(17) 0.1204(2) 0.84684(15)
O8_13 O 0.30560(12) 0.09898(11) 0.64031(11)
O9_13 O 0.28346(14) 0.06290(12) 0.63655(15)
O10_13 O 0.37308(13) 0.09793(12) 0.70635(12)
O11_13 O 0.38442(13) 0.06061(13) 0.72320(14)
O15_13 O 0.30306(16) 0.12521(16) 0.59149(14)
O16_13 O 0.27931(18) 0.12207(17) 0.55638(14)
O27_13 O 0.40179(10) 0.10757(10) 0.75700(10)
O28_13 O 0.25088(11) 0.10599(11) 0.60694(11)
C1_13 C 0.2383(2) 0.1242(2) 0.66828(18)
C2_13 C 0.2317(2) 0.1233(3) 0.69622(19)
C3_13 C 0.2062(2) 0.1242(2) 0.70329(19)
H1_13 H 0.1933 0.1258 0.6907
C4_13 C 0.19974(18) 0.1227(2) 0.72865(19)
C5_13 C 0.17182(19) 0.1222(2) 0.7351(2)
C6_13 C 0.2186(2) 0.1211(2) 0.74699(19)
H2_13 H 0.2140 0.1204 0.7644
C7_13 C 0.25042(18) 0.1212(3) 0.71476(19)
H3_13 H 0.2677 0.1201 0.7098
C8_13 C 0.24427(18) 0.1206(2) 0.74034(18)
C9_13 C 0.26454(18) 0.1195(2) 0.76020(18)
C10_13 C 0.25858(19) 0.1181(2) 0.78567(18)
H4_13 H 0.2412 0.1179 0.7906
C11_13 C 0.29045(19) 0.1193(2) 0.75410(18)
H5_13 H 0.2955 0.1209 0.7368
C12_13 C 0.30893(18) 0.1170(2) 0.7727(2)
C13_13 C 0.3368(2) 0.1166(2) 0.7663(2)
C14_13 C 0.3022(2) 0.1155(2) 0.7974(2)
H6_13 H 0.3149 0.1133 0.8101
C15_13 C 0.27705(19) 0.1170(2) 0.80431(18)
C16_13 C 0.2701(2) 0.1164(2) 0.83198(19)
C17_13 C 0.30218(17) 0.07547(15) 0.64411(16)
C18_13 C 0.32238(18) 0.06134(16) 0.65846(17)
C19_13 C 0.33891(17) 0.07452(16) 0.67416(16)
H7_13 H 0.3386 0.0926 0.6748
C20_13 C 0.35589(17) 0.06073(16) 0.68901(17)
C21_13 C 0.37251(16) 0.07429(16) 0.70771(17)
C22_13 C 0.35711(18) 0.03454(17) 0.68709(18)
H8_13 H 0.3692 0.0254 0.6969
C23_13 C 0.32334(18) 0.03495(17) 0.65697(18)
H9_13 H 0.3118 0.0262 0.6462
C24_13 C 0.34080(18) 0.02150(17) 0.67096(19)
C32_13 C 0.2988(2) 0.1295(2) 0.5690(2)
C33_13 C 0.3169(2) 0.1467(2) 0.55490(19)
C34_13 C 0.3322(2) 0.1631(2) 0.56878(19)
H13_13 H 0.3332 0.1619 0.5868
C35_13 C 0.3460(2) 0.1815(2) 0.55567(18)
C36_13 C 0.3605(2) 0.2015(2) 0.56985(19)
C37_13 C 0.3451(2) 0.1821(2) 0.52905(18)
H14_13 H 0.3547 0.1946 0.5203
C38_13 C 0.3162(2) 0.14782(19) 0.52818(18)
H15_13 H 0.3055 0.1365 0.5191
C39_13 C 0.3308(2) 0.16499(19) 0.51505(17)
C40_13 C 0.3303(2) 0.16644(19) 0.48624(18)
C41_13 C 0.31577(19) 0.14978(19) 0.47165(17)
H16_13 H 0.3059 0.1371 0.4800
C42_13 C 0.31528(18) 0.15116(17) 0.44536(17)
C43_13 C 0.2978(2) 0.13485(19) 0.43021(18)
C44_13 C 0.32961(18) 0.16920(17) 0.43285(16)
H17_13 H 0.3300 0.1698 0.4148
C45_13 C 0.34361(18) 0.18662(18) 0.44754(17)
C46_13 C 0.35741(19) 0.20786(18) 0.43414(18)
C47_13 C 0.3435(2) 0.18532(19) 0.47374(18)
H18_13 H 0.3527 0.1976 0.4833
O30_13 O 0.3598(3) 0.1504(3) 0.7036(3)
O31_13 O 0.3700(7) 0.1225(8) 0.8271(4)
O32_13 O 0.22082(14) 0.13293(16) 0.65467(12)
O37_25 O 0.16169(13) 0.24089(15) 0.88302(19)
O40_25 O 0.24476(14) 0.15573(13) 0.87604(17)
O41_25 O 0.28330(19) 0.14911(14) 0.8931(2)
O42_13 O 0.33781(13) 0.25271(14) 0.88646(17)
O43_13 O 0.34684(15) 0.21180(17) 0.8796(2)
O44_25 O 0.14031(11) 0.19440(12) 0.90102(11)
O45_25 O 0.13655(15) 0.21654(14) 0.93710(12)
O46_25 O 0.20635(12) 0.12692(13) 0.90207(12)
O47_25 O 0.22320(14) 0.11558(13) 0.93939(13)
O51_25 O 0.09149(14) 0.19694(16) 0.87479(16)
O52_25 O 0.05638(14) 0.22069(18) 0.87793(17)
O59_25 O 0.25700(10) 0.09821(10) 0.89243(10)
O60_25 O 0.10694(11) 0.24912(11) 0.89401(11)
C65_25 C 0.16828(18) 0.2617(2) 0.8758(2)
C66_25 C 0.19622(19) 0.2683(2) 0.8767(3)
C67_25 C 0.20329(19) 0.2938(2) 0.8758(2)
H25_25 H 0.1907 0.3067 0.8742
C68_25 C 0.22865(19) 0.30026(18) 0.8773(2)
C69_25 C 0.2351(2) 0.32818(19) 0.8778(2)
C70_25 C 0.24699(19) 0.2814(2) 0.8789(2)
H26_25 H 0.2644 0.2860 0.8796
C71_25 C 0.21476(19) 0.24958(18) 0.8788(3)
H27_25 H 0.2098 0.2323 0.8799
C72_25 C 0.24034(18) 0.25573(18) 0.8794(2)
C73_25 C 0.26020(18) 0.23546(18) 0.8805(2)
C74_25 C 0.28567(18) 0.24142(19) 0.8819(2)
H28_25 H 0.2906 0.2588 0.8821
C75_25 C 0.25410(18) 0.20955(19) 0.8807(2)
H29_25 H 0.2368 0.2045 0.8791
C76_25 C 0.2727(2) 0.19107(18) 0.8830(2)
C77_25 C 0.2663(2) 0.1632(2) 0.8834(2)
C78_25 C 0.2974(2) 0.1978(2) 0.8845(2)
H30_25 H 0.3101 0.1851 0.8867
C79_25 C 0.30431(18) 0.22295(19) 0.8830(2)
C80_25 C 0.33198(19) 0.2299(2) 0.8836(2)
C81_25 C 0.14411(16) 0.19782(17) 0.92453(15)
C82_25 C 0.15846(17) 0.17762(18) 0.93866(16)
C83_25 C 0.17416(16) 0.16109(17) 0.92548(16)
H31_25 H 0.1748 0.1614 0.9074
C84_25 C 0.18901(17) 0.14411(17) 0.93927(16)
C85_25 C 0.20771(17) 0.12749(16) 0.92571(16)
C86_25 C 0.18709(18) 0.14289(18) 0.96546(17)
H32_25 H 0.1969 0.1308 0.9746
C87_25 C 0.15697(18) 0.17666(18) 0.96505(17)
H33_25 H 0.1462 0.1882 0.9738
C88_25 C 0.17096(19) 0.15920(18) 0.97850(17)
C96_25 C 0.0690(2) 0.2012(2) 0.8705(2)
C97_25 C 0.05490(19) 0.1831(2) 0.8533(2)
C98_25 C 0.06878(19) 0.1678(2) 0.8369(2)
H37_25 H 0.0868 0.1668 0.8381
C99_25 C 0.05567(18) 0.1540(2) 0.8185(2)
C100_25 C 0.06985(19) 0.1395(2) 0.7985(2)
C101_25 C 0.02905(18) 0.1549(2) 0.8179(2)
H38_25 H 0.0203 0.1453 0.8054
C102_25 C 0.02818(18) 0.1838(2) 0.85218(19)
H39_25 H 0.0191 0.1945 0.8635
C103_25 C 0.01505(17) 0.1692(2) 0.83501(19)
O62_25 O 0.2036(3) 0.1402(3) 0.8496(3)
O63_25 O 0.3271(4) 0.1300(7) 0.8775(8)
O64_25 O 0.15467(12) 0.27918(14) 0.86707(16)
O69_13 O 0.38646(17) 0.16219(13) 0.74729(14)
O70_13 O 0.3796(2) 0.15316(15) 0.78820(17)
C25_13 C 0.34241(18) 0.99269(17) 0.66918(19)
C26_13 C 0.36021(18) 0.97900(16) 0.68305(19)
H10_13 H 0.3715 0.9878 0.6941
C27_13 C 0.36181(19) 0.95256(18) 0.68113(19)
C28_13 C 0.34543(18) 0.93961(17) 0.66530(18)
H11_13 H 0.3470 0.9217 0.6632
C29_13 C 0.3268(2) 0.95289(18) 0.6526(2)
C30_13 C 0.3072(2) 0.93880(18) 0.6380(2)
C31_13 C 0.3253(2) 0.97876(17) 0.6547(2)
H12_13 H 0.3121 0.9875 0.6460
C56_13 C 0.38005(19) 0.93824(19) 0.6978(2)
C104_25 C 0.98624(18) 0.1697(2) 0.83356(19)
C105_25 C 0.97165(17) 0.18423(19) 0.85022(19)
H40_25 H 0.9800 0.1941 0.8629
C106_25 C 0.94536(17) 0.18472(18) 0.84884(17)
C107_25 C 0.93021(18) 0.2022(2) 0.86515(19)
C108_25 C 0.93285(16) 0.17039(18) 0.83080(17)
H41_25 H 0.9148 0.1700 0.8302
C109_25 C 0.94754(17) 0.15639(18) 0.81338(18)
C110_25 C 0.93414(18) 0.14259(19) 0.79214(18)
C111_25 C 0.97374(18) 0.1565(2) 0.81468(19)
H42_25 H 0.9833 0.1473 0.8024
C25_14 C 0.15759(18) 0.00731(17) 0.16918(19)
C26_14 C 0.13979(18) 0.02100(16) 0.18305(19)
H10_14 H 0.1285 0.0122 0.1941
C27_14 C 0.13819(19) 0.04744(18) 0.18113(19)
C28_14 C 0.15457(18) 0.06039(17) 0.16530(18)
H11_14 H 0.1530 0.0783 0.1632
C29_14 C 0.1732(2) 0.04711(18) 0.1526(2)
C30_14 C 0.1928(2) 0.06120(18) 0.1380(2)
C31_14 C 0.1747(2) 0.02124(17) 0.1547(2)
H12_14 H 0.1879 0.0125 0.1460
C56_14 C 0.11995(19) 0.06176(19) 0.1978(2)
O1_14 O 0.24089(15) 0.88302(19) 0.16169(13)
O4_14 O 0.15573(13) 0.87604(17) 0.24476(14)
O5_14 O 0.14911(14) 0.8931(2) 0.28330(19)
O6_14 O 0.25271(14) 0.88646(17) 0.33781(13)
O7_14 O 0.21180(17) 0.8796(2) 0.34684(15)
O8_14 O 0.19440(12) 0.90102(11) 0.14031(11)
O9_14 O 0.21654(14) 0.93710(12) 0.13655(15)
O10_14 O 0.12692(13) 0.90207(12) 0.20635(12)
O11_14 O 0.11558(13) 0.93939(13) 0.22320(14)
O15_14 O 0.19694(16) 0.87479(16) 0.09149(14)
O16_14 O 0.22069(18) 0.87793(17) 0.05638(14)
O27_14 O 0.09821(10) 0.89243(10) 0.25700(10)
O28_14 O 0.24912(11) 0.89401(11) 0.10694(11)
C1_14 C 0.2617(2) 0.8758(2) 0.16828(18)
C2_14 C 0.2683(2) 0.8767(3) 0.19622(19)
C3_14 C 0.2938(2) 0.8758(2) 0.20329(19)
H1_14 H 0.3067 0.8742 0.1907
C4_14 C 0.30026(18) 0.8773(2) 0.22865(19)
C5_14 C 0.32818(19) 0.8778(2) 0.2351(2)
C6_14 C 0.2814(2) 0.8789(2) 0.24699(19)
H2_14 H 0.2860 0.8796 0.2644
C7_14 C 0.24958(18) 0.8788(3) 0.21476(19)
H3_14 H 0.2323 0.8799 0.2098
C8_14 C 0.25573(18) 0.8794(2) 0.24034(18)
C9_14 C 0.23546(18) 0.8805(2) 0.26020(18)
C10_14 C 0.24142(19) 0.8819(2) 0.28567(18)
H4_14 H 0.2588 0.8821 0.2906
C11_14 C 0.20955(19) 0.8807(2) 0.25410(18)
H5_14 H 0.2045 0.8791 0.2368
C12_14 C 0.19107(18) 0.8830(2) 0.2727(2)
C13_14 C 0.1632(2) 0.8834(2) 0.2663(2)
C14_14 C 0.1978(2) 0.8845(2) 0.2974(2)
H6_14 H 0.1851 0.8867 0.3101
C15_14 C 0.22295(19) 0.8830(2) 0.30431(18)
C16_14 C 0.2299(2) 0.8836(2) 0.33198(19)
C17_14 C 0.19782(17) 0.92453(15) 0.14411(16)
C18_14 C 0.17762(18) 0.93866(16) 0.15846(17)
C19_14 C 0.16109(17) 0.92548(16) 0.17416(16)
H7_14 H 0.1614 0.9074 0.1748
C20_14 C 0.14411(17) 0.93927(16) 0.18901(17)
C21_14 C 0.12749(16) 0.92571(16) 0.20771(17)
C22_14 C 0.14289(18) 0.96546(17) 0.18709(18)
H8_14 H 0.1308 0.9746 0.1969
C23_14 C 0.17666(18) 0.96505(17) 0.15697(18)
H9_14 H 0.1882 0.9738 0.1462
C24_14 C 0.15920(18) 0.97850(17) 0.17096(19)
C32_14 C 0.2012(2) 0.8705(2) 0.0690(2)
C33_14 C 0.1831(2) 0.8533(2) 0.05490(19)
C34_14 C 0.1678(2) 0.8369(2) 0.06878(19)
H13_14 H 0.1668 0.8381 0.0868
C35_14 C 0.1540(2) 0.8185(2) 0.05567(18)
C36_14 C 0.1395(2) 0.7985(2) 0.06985(19)
C37_14 C 0.1549(2) 0.8179(2) 0.02905(18)
H14_14 H 0.1453 0.8054 0.0203
C38_14 C 0.1838(2) 0.85218(19) 0.02818(18)
H15_14 H 0.1945 0.8635 0.0191
C39_14 C 0.1692(2) 0.83501(19) 0.01505(17)
O30_14 O 0.1402(3) 0.8496(3) 0.2036(3)
O31_14 O 0.1300(7) 0.8775(8) 0.3271(4)
O32_14 O 0.27918(14) 0.86707(16) 0.15467(12)
O37_26 O 0.33831(13) 0.75911(15) 0.38302(19)
O40_26 O 0.25524(14) 0.84427(13) 0.37604(17)
O41_26 O 0.21670(19) 0.85089(14) 0.3931(2)
O42_14 O 0.16219(13) 0.74729(14) 0.38646(17)
O43_14 O 0.15316(15) 0.78820(17) 0.3796(2)
O44_26 O 0.35969(11) 0.80560(12) 0.40102(11)
O45_26 O 0.36345(15) 0.78346(14) 0.43710(12)
O46_26 O 0.29365(12) 0.87308(13) 0.40207(12)
O47_26 O 0.27680(14) 0.88442(13) 0.43939(13)
O51_26 O 0.40851(14) 0.80306(16) 0.37479(16)
O52_26 O 0.44362(14) 0.77931(18) 0.37793(17)
O59_26 O 0.24300(10) 0.90179(10) 0.39243(10)
O60_26 O 0.39306(11) 0.75088(11) 0.39401(11)
C65_26 C 0.33172(18) 0.7383(2) 0.3758(2)
C66_26 C 0.30378(19) 0.7317(2) 0.3767(3)
C67_26 C 0.29671(19) 0.7062(2) 0.3758(2)
H25_26 H 0.3093 0.6933 0.3742
C68_26 C 0.27135(19) 0.69974(18) 0.3773(2)
C69_26 C 0.2649(2) 0.67182(19) 0.3778(2)
C70_26 C 0.25301(19) 0.7186(2) 0.3789(2)
H26_26 H 0.2356 0.7140 0.3796
C71_26 C 0.28524(19) 0.75042(18) 0.3788(3)
H27_26 H 0.2902 0.7677 0.3799
C72_26 C 0.25966(18) 0.74427(18) 0.3794(2)
C73_26 C 0.23980(18) 0.76454(18) 0.3805(2)
C74_26 C 0.21433(18) 0.75858(19) 0.3819(2)
H28_26 H 0.2094 0.7412 0.3821
C75_26 C 0.24590(18) 0.79045(19) 0.3807(2)
H29_26 H 0.2632 0.7955 0.3791
C76_26 C 0.2273(2) 0.80893(18) 0.3830(2)
C77_26 C 0.2337(2) 0.8368(2) 0.3834(2)
C78_26 C 0.2026(2) 0.8022(2) 0.3845(2)
H30_26 H 0.1899 0.8149 0.3867
C79_26 C 0.19569(18) 0.77705(19) 0.3830(2)
C80_26 C 0.16802(19) 0.7701(2) 0.3836(2)
C81_26 C 0.35589(16) 0.80218(17) 0.42453(15)
C82_26 C 0.34154(17) 0.82238(18) 0.43866(16)
C83_26 C 0.32584(16) 0.83891(17) 0.42548(16)
H31_26 H 0.3252 0.8386 0.4074
C84_26 C 0.31099(17) 0.85589(17) 0.43927(16)
C85_26 C 0.29229(17) 0.87251(16) 0.42571(16)
C86_26 C 0.31291(18) 0.85711(18) 0.46546(17)
H32_26 H 0.3031 0.8692 0.4746
C87_26 C 0.34303(18) 0.82334(18) 0.46505(17)
H33_26 H 0.3538 0.8118 0.4738
C88_26 C 0.32904(19) 0.84080(18) 0.47850(17)
C89_26 C 0.33082(19) 0.84241(18) 0.50731(17)
C90_26 C 0.31695(19) 0.86021(18) 0.52100(16)
H34_26 H 0.3059 0.8715 0.5122
C91_26 C 0.31887(19) 0.86181(19) 0.54744(18)
C92_26 C 0.33470(18) 0.84543(18) 0.56039(17)
H35_26 H 0.3368 0.8470 0.5783
C93_26 C 0.3474(2) 0.8268(2) 0.54711(18)
C94_26 C 0.3620(2) 0.8072(2) 0.56120(18)
C95_26 C 0.3453(2) 0.8253(2) 0.52124(17)
H36_26 H 0.3540 0.8121 0.5125
C96_26 C 0.4310(2) 0.7988(2) 0.3705(2)
C97_26 C 0.44510(19) 0.8169(2) 0.3533(2)
C98_26 C 0.43122(19) 0.8322(2) 0.3369(2)
H37_26 H 0.4132 0.8332 0.3381
C99_26 C 0.44433(18) 0.8460(2) 0.3185(2)
C100_26 C 0.43015(19) 0.8605(2) 0.2985(2)
C101_26 C 0.47095(18) 0.8451(2) 0.3179(2)
H38_26 H 0.4797 0.8547 0.3054
C102_26 C 0.47182(18) 0.8162(2) 0.35218(19)
H39_26 H 0.4809 0.8055 0.3635
C103_26 C 0.48495(17) 0.8308(2) 0.33501(19)
C104_26 C 0.51376(18) 0.8303(2) 0.33356(19)
C105_26 C 0.52835(17) 0.81577(19) 0.35022(19)
H40_26 H 0.5200 0.8059 0.3629
C106_26 C 0.55464(17) 0.81528(18) 0.34884(17)
C107_26 C 0.56979(18) 0.7978(2) 0.36515(19)
C108_26 C 0.56715(16) 0.82961(18) 0.33080(17)
H41_26 H 0.5852 0.8300 0.3302
C109_26 C 0.55246(17) 0.84361(18) 0.31338(18)
C110_26 C 0.56586(18) 0.85741(19) 0.29214(18)
C111_26 C 0.52626(18) 0.8435(2) 0.31468(19)
H42_26 H 0.5167 0.8527 0.3024
O62_26 O 0.2964(3) 0.8598(3) 0.3496(3)
O63_26 O 0.1729(4) 0.8700(7) 0.3775(8)
O64_26 O 0.34533(12) 0.72082(14) 0.36707(16)
C112_26 C 0.3022(2) 0.88005(19) 0.56176(19)
O69_14 O 0.11354(17) 0.83781(13) 0.24729(14)
O70_14 O 0.1204(2) 0.84684(15) 0.28820(17)
C40_14 C 0.1697(2) 0.83356(19) 0.98624(18)
C41_14 C 0.18423(19) 0.85022(19) 0.97165(17)
H16_14 H 0.1941 0.8629 0.9800
C42_14 C 0.18472(18) 0.84884(17) 0.94536(17)
C43_14 C 0.2022(2) 0.86515(19) 0.93021(18)
C44_14 C 0.17039(18) 0.83080(17) 0.93285(16)
H17_14 H 0.1700 0.8302 0.9148
C45_14 C 0.15639(18) 0.81338(18) 0.94754(17)
C46_14 C 0.14259(19) 0.79214(18) 0.93414(18)
C47_14 C 0.1565(2) 0.81468(19) 0.97374(18)
H18_14 H 0.1473 0.8024 0.9833
C104_27 C 0.01376(18) 0.6697(2) 0.66644(19)
C105_27 C 0.02835(17) 0.68423(19) 0.64978(19)
H40_27 H 0.0200 0.6941 0.6371
C106_27 C 0.05464(17) 0.68472(18) 0.65116(17)
C107_27 C 0.06979(18) 0.7022(2) 0.63485(19)
C108_27 C 0.06715(16) 0.67039(18) 0.66920(17)
H41_27 H 0.0852 0.6700 0.6698
C109_27 C 0.05246(17) 0.65639(18) 0.68662(18)
C110_27 C 0.06586(18) 0.64259(19) 0.70786(18)
C111_27 C 0.02626(18) 0.6565(2) 0.68532(19)
H42_27 H 0.0167 0.6473 0.6976
C40_15 C 0.6697(2) 0.66644(19) 0.01376(18)
C41_15 C 0.68423(19) 0.64978(19) 0.02835(17)
H16_15 H 0.6941 0.6371 0.0200
C42_15 C 0.68472(18) 0.65116(17) 0.05464(17)
C43_15 C 0.7022(2) 0.63485(19) 0.06979(18)
C44_15 C 0.67039(18) 0.66920(17) 0.06715(16)
H17_15 H 0.6700 0.6698 0.0852
C45_15 C 0.65639(18) 0.68662(18) 0.05246(17)
C46_15 C 0.64259(19) 0.70786(18) 0.06586(18)
C47_15 C 0.6565(2) 0.68532(19) 0.02626(18)
H18_15 H 0.6473 0.6976 0.0167
O1_15 O 0.74089(15) 0.61698(19) 0.83831(13)
O4_15 O 0.65573(13) 0.62396(17) 0.75524(14)
O5_15 O 0.64911(14) 0.6069(2) 0.71670(19)
O6_15 O 0.75271(14) 0.61354(17) 0.66219(13)
O7_15 O 0.71180(17) 0.6204(2) 0.65316(15)
O8_15 O 0.69440(12) 0.59898(11) 0.85969(11)
O9_15 O 0.71654(14) 0.56290(12) 0.86345(15)
O10_15 O 0.62692(13) 0.59793(12) 0.79365(12)
O11_15 O 0.61558(13) 0.56061(13) 0.77680(14)
O15_15 O 0.69694(16) 0.62521(16) 0.90851(14)
O16_15 O 0.72069(18) 0.62207(17) 0.94362(14)
O27_15 O 0.59821(10) 0.60757(10) 0.74300(10)
O28_15 O 0.74912(11) 0.60599(11) 0.89306(11)
C1_15 C 0.7617(2) 0.6242(2) 0.83172(18)
C2_15 C 0.7683(2) 0.6233(3) 0.80378(19)
C3_15 C 0.7938(2) 0.6242(2) 0.79671(19)
H1_15 H 0.8067 0.6258 0.8093
C4_15 C 0.80026(18) 0.6227(2) 0.77135(19)
C5_15 C 0.82818(19) 0.6222(2) 0.7649(2)
C6_15 C 0.7814(2) 0.6211(2) 0.75301(19)
H2_15 H 0.7860 0.6204 0.7356
C7_15 C 0.74958(18) 0.6212(3) 0.78524(19)
H3_15 H 0.7323 0.6201 0.7902
C8_15 C 0.75573(18) 0.6206(2) 0.75966(18)
C9_15 C 0.73546(18) 0.6195(2) 0.73980(18)
C10_15 C 0.74142(19) 0.6181(2) 0.71433(18)
H4_15 H 0.7588 0.6179 0.7094
C11_15 C 0.70955(19) 0.6193(2) 0.74590(18)
H5_15 H 0.7045 0.6209 0.7632
C12_15 C 0.69107(18) 0.6170(2) 0.7273(2)
C13_15 C 0.6632(2) 0.6166(2) 0.7337(2)
C14_15 C 0.6978(2) 0.6155(2) 0.7026(2)
H6_15 H 0.6851 0.6133 0.6899
C15_15 C 0.72295(19) 0.6170(2) 0.69569(18)
C16_15 C 0.7299(2) 0.6164(2) 0.66802(19)
C17_15 C 0.69782(17) 0.57547(15) 0.85589(16)
C18_15 C 0.67762(18) 0.56134(16) 0.84154(17)
C19_15 C 0.66109(17) 0.57452(16) 0.82584(16)
H7_15 H 0.6614 0.5926 0.8252
C20_15 C 0.64411(17) 0.56073(16) 0.81099(17)
C21_15 C 0.62749(16) 0.57429(16) 0.79229(17)
C22_15 C 0.64289(18) 0.53454(17) 0.81291(18)
H8_15 H 0.6308 0.5254 0.8031
C23_15 C 0.67666(18) 0.53495(17) 0.84303(18)
H9_15 H 0.6882 0.5262 0.8538
C24_15 C 0.65920(18) 0.52150(17) 0.82904(19)
C25_15 C 0.65759(18) 0.49269(17) 0.83082(19)
C26_15 C 0.63979(18) 0.47900(16) 0.81695(19)
H10_15 H 0.6285 0.4878 0.8059
C27_15 C 0.63819(19) 0.45256(18) 0.81887(19)
C28_15 C 0.65457(18) 0.43961(17) 0.83470(18)
H11_15 H 0.6530 0.4217 0.8368
C29_15 C 0.6732(2) 0.45289(18) 0.8474(2)
C30_15 C 0.6928(2) 0.43880(18) 0.8620(2)
C31_15 C 0.6747(2) 0.47876(17) 0.8453(2)
H12_15 H 0.6879 0.4875 0.8540
C32_15 C 0.7012(2) 0.6295(2) 0.9310(2)
C33_15 C 0.6831(2) 0.6467(2) 0.94510(19)
C34_15 C 0.6678(2) 0.6631(2) 0.93122(19)
H13_15 H 0.6668 0.6619 0.9132
C35_15 C 0.6540(2) 0.6815(2) 0.94433(18)
C36_15 C 0.6395(2) 0.7015(2) 0.93015(19)
C37_15 C 0.6549(2) 0.6821(2) 0.97095(18)
H14_15 H 0.6453 0.6946 0.9797
C38_15 C 0.6838(2) 0.64782(19) 0.97182(18)
H15_15 H 0.6945 0.6365 0.9809
C39_15 C 0.6692(2) 0.66499(19) 0.98495(17)
O30_15 O 0.6402(3) 0.6504(3) 0.7964(3)
O31_15 O 0.6300(7) 0.6225(8) 0.6729(4)
O32_15 O 0.77918(14) 0.63293(16) 0.84533(12)
C56_15 C 0.61995(19) 0.43824(19) 0.8022(2)
O37_27 O 0.83831(13) 0.74089(15) 0.61698(19)
O40_27 O 0.75524(14) 0.65573(13) 0.62396(17)
O41_27 O 0.71670(19) 0.64911(14) 0.6069(2)
O42_15 O 0.66219(13) 0.75271(14) 0.61354(17)
O43_15 O 0.65316(15) 0.71180(17) 0.6204(2)
O44_27 O 0.85969(11) 0.69440(12) 0.59898(11)
O45_27 O 0.86345(15) 0.71654(14) 0.56290(12)
O46_27 O 0.79365(12) 0.62692(13) 0.59793(12)
O47_27 O 0.77680(14) 0.61558(13) 0.56061(13)
O51_27 O 0.90851(14) 0.69694(16) 0.62521(16)
O52_27 O 0.94362(14) 0.72069(18) 0.62207(17)
O59_27 O 0.74300(10) 0.59821(10) 0.60757(10)
O60_27 O 0.89306(11) 0.74912(11) 0.60599(11)
C65_27 C 0.83172(18) 0.7617(2) 0.6242(2)
C66_27 C 0.80378(19) 0.7683(2) 0.6233(3)
C67_27 C 0.79671(19) 0.7938(2) 0.6242(2)
H25_27 H 0.8093 0.8067 0.6258
C68_27 C 0.77135(19) 0.80026(18) 0.6227(2)
C69_27 C 0.7649(2) 0.82818(19) 0.6222(2)
C70_27 C 0.75301(19) 0.7814(2) 0.6211(2)
H26_27 H 0.7356 0.7860 0.6204
C71_27 C 0.78524(19) 0.74958(18) 0.6212(3)
H27_27 H 0.7902 0.7323 0.6201
C72_27 C 0.75966(18) 0.75573(18) 0.6206(2)
C73_27 C 0.73980(18) 0.73546(18) 0.6195(2)
C74_27 C 0.71433(18) 0.74142(19) 0.6181(2)
H28_27 H 0.7094 0.7588 0.6179
C75_27 C 0.74590(18) 0.70955(19) 0.6193(2)
H29_27 H 0.7632 0.7045 0.6209
C76_27 C 0.7273(2) 0.69107(18) 0.6170(2)
C77_27 C 0.7337(2) 0.6632(2) 0.6166(2)
C78_27 C 0.7026(2) 0.6978(2) 0.6155(2)
H30_27 H 0.6899 0.6851 0.6133
C79_27 C 0.69569(18) 0.72295(19) 0.6170(2)
C80_27 C 0.66802(19) 0.7299(2) 0.6164(2)
C81_27 C 0.85589(16) 0.69782(17) 0.57547(15)
C82_27 C 0.84154(17) 0.67762(18) 0.56134(16)
C83_27 C 0.82584(16) 0.66109(17) 0.57452(16)
H31_27 H 0.8252 0.6614 0.5926
C84_27 C 0.81099(17) 0.64411(17) 0.56073(16)
C85_27 C 0.79229(17) 0.62749(16) 0.57429(16)
C86_27 C 0.81291(18) 0.64289(18) 0.53454(17)
H32_27 H 0.8031 0.6308 0.5254
C87_27 C 0.84303(18) 0.67666(18) 0.53495(17)
H33_27 H 0.8538 0.6882 0.5262
C88_27 C 0.82904(19) 0.65920(18) 0.52150(17)
C89_27 C 0.83082(19) 0.65759(18) 0.49269(17)
C90_27 C 0.81695(19) 0.63979(18) 0.47900(16)
H34_27 H 0.8059 0.6285 0.4878
C91_27 C 0.81887(19) 0.63819(19) 0.45256(18)
C92_27 C 0.83470(18) 0.65457(18) 0.43961(17)
H35_27 H 0.8368 0.6530 0.4217
C93_27 C 0.8474(2) 0.6732(2) 0.45289(18)
C94_27 C 0.8620(2) 0.6928(2) 0.43880(18)
C95_27 C 0.8453(2) 0.6747(2) 0.47876(17)
H36_27 H 0.8540 0.6879 0.4875
C96_27 C 0.9310(2) 0.7012(2) 0.6295(2)
C97_27 C 0.94510(19) 0.6831(2) 0.6467(2)
C98_27 C 0.93122(19) 0.6678(2) 0.6631(2)
H37_27 H 0.9132 0.6668 0.6619
C99_27 C 0.94433(18) 0.6540(2) 0.6815(2)
C100_27 C 0.93015(19) 0.6395(2) 0.7015(2)
C101_27 C 0.97095(18) 0.6549(2) 0.6821(2)
H38_27 H 0.9797 0.6453 0.6946
C102_27 C 0.97182(18) 0.6838(2) 0.64782(19)
H39_27 H 0.9809 0.6945 0.6365
C103_27 C 0.98495(17) 0.6692(2) 0.66499(19)
O62_27 O 0.7964(3) 0.6402(3) 0.6504(3)
O63_27 O 0.6729(4) 0.6300(7) 0.6225(8)
O64_27 O 0.84533(12) 0.77918(14) 0.63293(16)
C112_27 C 0.8022(2) 0.61995(19) 0.43824(19)
O69_15 O 0.61354(17) 0.66219(13) 0.75271(14)
O70_15 O 0.6204(2) 0.65316(15) 0.71180(17)
O1_16 O 0.75911(15) 0.38302(19) 0.33831(13)
O4_16 O 0.84427(13) 0.37604(17) 0.25524(14)
O5_16 O 0.85089(14) 0.3931(2) 0.21670(19)
O6_16 O 0.74729(14) 0.38646(17) 0.16219(13)
O7_16 O 0.78820(17) 0.3796(2) 0.15316(15)
O8_16 O 0.80560(12) 0.40102(11) 0.35969(11)
O9_16 O 0.78346(14) 0.43710(12) 0.36345(15)
O10_16 O 0.87308(13) 0.40207(12) 0.29365(12)
O11_16 O 0.88442(13) 0.43939(13) 0.27680(14)
O15_16 O 0.80306(16) 0.37479(16) 0.40851(14)
O16_16 O 0.77931(18) 0.37793(17) 0.44362(14)
O27_16 O 0.90179(10) 0.39243(10) 0.24300(10)
O28_16 O 0.75088(11) 0.39401(11) 0.39306(11)
C1_16 C 0.7383(2) 0.3758(2) 0.33172(18)
C2_16 C 0.7317(2) 0.3767(3) 0.30378(19)
C3_16 C 0.7062(2) 0.3758(2) 0.29671(19)
H1_16 H 0.6933 0.3742 0.3093
C4_16 C 0.69974(18) 0.3773(2) 0.27135(19)
C5_16 C 0.67182(19) 0.3778(2) 0.2649(2)
C6_16 C 0.7186(2) 0.3789(2) 0.25301(19)
H2_16 H 0.7140 0.3796 0.2356
C7_16 C 0.75042(18) 0.3788(3) 0.28524(19)
H3_16 H 0.7677 0.3799 0.2902
C8_16 C 0.74427(18) 0.3794(2) 0.25966(18)
C9_16 C 0.76454(18) 0.3805(2) 0.23980(18)
C10_16 C 0.75858(19) 0.3819(2) 0.21433(18)
H4_16 H 0.7412 0.3821 0.2094
C11_16 C 0.79045(19) 0.3807(2) 0.24590(18)
H5_16 H 0.7955 0.3791 0.2632
C12_16 C 0.80893(18) 0.3830(2) 0.2273(2)
C13_16 C 0.8368(2) 0.3834(2) 0.2337(2)
C14_16 C 0.8022(2) 0.3845(2) 0.2026(2)
H6_16 H 0.8149 0.3867 0.1899
C15_16 C 0.77705(19) 0.3830(2) 0.19569(18)
C16_16 C 0.7701(2) 0.3836(2) 0.16802(19)
C17_16 C 0.80218(17) 0.42453(15) 0.35589(16)
C18_16 C 0.82238(18) 0.43866(16) 0.34154(17)
C19_16 C 0.83891(17) 0.42548(16) 0.32584(16)
H7_16 H 0.8386 0.4074 0.3252
C20_16 C 0.85589(17) 0.43927(16) 0.31099(17)
C21_16 C 0.87251(16) 0.42571(16) 0.29229(17)
C22_16 C 0.85711(18) 0.46546(17) 0.31291(18)
H8_16 H 0.8692 0.4746 0.3031
C23_16 C 0.82334(18) 0.46505(17) 0.34303(18)
H9_16 H 0.8118 0.4738 0.3538
C24_16 C 0.84080(18) 0.47850(17) 0.32904(19)
C25_16 C 0.84241(18) 0.50731(17) 0.33082(19)
C26_16 C 0.86021(18) 0.52100(16) 0.31695(19)
H10_16 H 0.8715 0.5122 0.3059
C27_16 C 0.86181(19) 0.54744(18) 0.31887(19)
C28_16 C 0.84543(18) 0.56039(17) 0.33470(18)
H11_16 H 0.8470 0.5783 0.3368
C29_16 C 0.8268(2) 0.54711(18) 0.3474(2)
C30_16 C 0.8072(2) 0.56120(18) 0.3620(2)
C31_16 C 0.8253(2) 0.52124(17) 0.3453(2)
H12_16 H 0.8121 0.5125 0.3540
C32_16 C 0.7988(2) 0.3705(2) 0.4310(2)
C33_16 C 0.8169(2) 0.3533(2) 0.44510(19)
C34_16 C 0.8322(2) 0.3369(2) 0.43122(19)
H13_16 H 0.8332 0.3381 0.4132
C35_16 C 0.8460(2) 0.3185(2) 0.44433(18)
C36_16 C 0.8605(2) 0.2985(2) 0.43015(19)
C37_16 C 0.8451(2) 0.3179(2) 0.47095(18)
H14_16 H 0.8547 0.3054 0.4797
C38_16 C 0.8162(2) 0.35218(19) 0.47182(18)
H15_16 H 0.8055 0.3635 0.4809
C39_16 C 0.8308(2) 0.33501(19) 0.48495(17)
C40_16 C 0.8303(2) 0.33356(19) 0.51376(18)
C41_16 C 0.81577(19) 0.35022(19) 0.52835(17)
H16_16 H 0.8059 0.3629 0.5200
C42_16 C 0.81528(18) 0.34884(17) 0.55464(17)
C43_16 C 0.7978(2) 0.36515(19) 0.56979(18)
C44_16 C 0.82961(18) 0.33080(17) 0.56715(16)
H17_16 H 0.8300 0.3302 0.5852
C45_16 C 0.84361(18) 0.31338(18) 0.55246(17)
C46_16 C 0.85741(19) 0.29214(18) 0.56586(18)
C47_16 C 0.8435(2) 0.31468(19) 0.52626(18)
H18_16 H 0.8527 0.3024 0.5167
O30_16 O 0.8598(3) 0.3496(3) 0.2964(3)
O31_16 O 0.8700(7) 0.3775(8) 0.1729(4)
O32_16 O 0.72082(14) 0.36707(16) 0.34533(12)
C56_16 C 0.88005(19) 0.56176(19) 0.3022(2)
O37_28 O 0.66169(13) 0.25911(15) 0.11698(19)
O40_28 O 0.74476(14) 0.34427(13) 0.12396(17)
O41_28 O 0.78330(19) 0.35089(14) 0.1069(2)
O42_16 O 0.83781(13) 0.24729(14) 0.11354(17)
O43_16 O 0.84684(15) 0.28820(17) 0.1204(2)
O44_28 O 0.64031(11) 0.30560(12) 0.09898(11)
O45_28 O 0.63655(15) 0.28346(14) 0.06290(12)
O46_28 O 0.70635(12) 0.37308(13) 0.09793(12)
O47_28 O 0.72320(14) 0.38442(13) 0.06061(13)
O51_28 O 0.59149(14) 0.30306(16) 0.12521(16)
O52_28 O 0.55638(14) 0.27931(18) 0.12207(17)
O59_28 O 0.75700(10) 0.40179(10) 0.10757(10)
O60_28 O 0.60694(11) 0.25088(11) 0.10599(11)
C65_28 C 0.66828(18) 0.2383(2) 0.1242(2)
C66_28 C 0.69622(19) 0.2317(2) 0.1233(3)
C67_28 C 0.70329(19) 0.2062(2) 0.1242(2)
H25_28 H 0.6907 0.1933 0.1258
C68_28 C 0.72865(19) 0.19974(18) 0.1227(2)
C69_28 C 0.7351(2) 0.17182(19) 0.1222(2)
C70_28 C 0.74699(19) 0.2186(2) 0.1211(2)
H26_28 H 0.7644 0.2140 0.1204
C71_28 C 0.71476(19) 0.25042(18) 0.1212(3)
H27_28 H 0.7098 0.2677 0.1201
C72_28 C 0.74034(18) 0.24427(18) 0.1206(2)
C73_28 C 0.76020(18) 0.26454(18) 0.1195(2)
C74_28 C 0.78567(18) 0.25858(19) 0.1181(2)
H28_28 H 0.7906 0.2412 0.1179
C75_28 C 0.75410(18) 0.29045(19) 0.1193(2)
H29_28 H 0.7368 0.2955 0.1209
C76_28 C 0.7727(2) 0.30893(18) 0.1170(2)
C77_28 C 0.7663(2) 0.3368(2) 0.1166(2)
C78_28 C 0.7974(2) 0.3022(2) 0.1155(2)
H30_28 H 0.8101 0.3149 0.1133
C79_28 C 0.80431(18) 0.27705(19) 0.1170(2)
C80_28 C 0.83198(19) 0.2701(2) 0.1164(2)
C81_28 C 0.64411(16) 0.30218(17) 0.07547(15)
C82_28 C 0.65846(17) 0.32238(18) 0.06134(16)
C83_28 C 0.67416(16) 0.33891(17) 0.07452(16)
H31_28 H 0.6748 0.3386 0.0926
C84_28 C 0.68901(17) 0.35589(17) 0.06073(16)
C85_28 C 0.70771(17) 0.37251(16) 0.07429(16)
C86_28 C 0.68709(18) 0.35711(18) 0.03454(17)
H32_28 H 0.6969 0.3692 0.0254
C87_28 C 0.65697(18) 0.32334(18) 0.03495(17)
H33_28 H 0.6462 0.3118 0.0262
C88_28 C 0.67096(19) 0.34080(18) 0.02150(17)
C96_28 C 0.5690(2) 0.2988(2) 0.1295(2)
C97_28 C 0.55490(19) 0.3169(2) 0.1467(2)
C98_28 C 0.56878(19) 0.3322(2) 0.1631(2)
H37_28 H 0.5868 0.3332 0.1619
C99_28 C 0.55567(18) 0.3460(2) 0.1815(2)
C100_28 C 0.56985(19) 0.3605(2) 0.2015(2)
C101_28 C 0.52905(18) 0.3451(2) 0.1821(2)
H38_28 H 0.5203 0.3547 0.1946
C102_28 C 0.52818(18) 0.3162(2) 0.14782(19)
H39_28 H 0.5191 0.3055 0.1365
C103_28 C 0.51505(17) 0.3308(2) 0.16499(19)
C104_28 C 0.48624(18) 0.3303(2) 0.16644(19)
C105_28 C 0.47165(17) 0.31577(19) 0.14978(19)
H40_28 H 0.4800 0.3059 0.1371
C106_28 C 0.44536(17) 0.31528(18) 0.15116(17)
C107_28 C 0.43021(18) 0.2978(2) 0.13485(19)
C108_28 C 0.43285(16) 0.32961(18) 0.16920(17)
H41_28 H 0.4148 0.3300 0.1698
C109_28 C 0.44754(17) 0.34361(18) 0.18662(18)
C110_28 C 0.43414(18) 0.35741(19) 0.20786(18)
C111_28 C 0.47374(18) 0.3435(2) 0.18532(19)
H42_28 H 0.4833 0.3527 0.1976
O62_28 O 0.7036(3) 0.3598(3) 0.1504(3)
O63_28 O 0.8271(4) 0.3700(7) 0.1225(8)
O64_28 O 0.65467(12) 0.22082(14) 0.13293(16)
O69_16 O 0.88646(17) 0.33781(13) 0.25271(14)
O70_16 O 0.8796(2) 0.34684(15) 0.21180(17)
C89_28 C 0.66918(19) 0.34241(18) 0.99269(17)
C90_28 C 0.68305(19) 0.36021(18) 0.97900(16)
H34_28 H 0.6941 0.3715 0.9878
C91_28 C 0.68113(19) 0.36181(19) 0.95256(18)
C92_28 C 0.66530(18) 0.34543(18) 0.93961(17)
H35_28 H 0.6632 0.3470 0.9217
C93_28 C 0.6526(2) 0.3268(2) 0.95289(18)
C94_28 C 0.6380(2) 0.3072(2) 0.93880(18)
C95_28 C 0.6547(2) 0.3253(2) 0.97876(17)
H36_28 H 0.6460 0.3121 0.9875
C112_28 C 0.6978(2) 0.38005(19) 0.93824(19)
C89_29 C 0.00731(17) 0.16918(19) 0.15759(18)
C90_29 C 0.02100(16) 0.18305(19) 0.13979(18)
H34_29 H 0.0122 0.1941 0.1285
C91_29 C 0.04744(18) 0.18113(19) 0.13819(19)
C92_29 C 0.06039(17) 0.16530(18) 0.15457(18)
H35_29 H 0.0783 0.1632 0.1530
C93_29 C 0.04711(18) 0.1526(2) 0.1732(2)
C94_29 C 0.06120(18) 0.1380(2) 0.1928(2)
C95_29 C 0.02124(17) 0.1547(2) 0.1747(2)
H36_29 H 0.0125 0.1460 0.1879
C112_29 C 0.06176(19) 0.1978(2) 0.11995(19)
O37_29 O 0.88302(19) 0.16169(13) 0.24089(15)
O40_29 O 0.87604(17) 0.24476(14) 0.15573(13)
O41_29 O 0.8931(2) 0.28330(19) 0.14911(14)
O44_29 O 0.90102(11) 0.14031(11) 0.19440(12)
O45_29 O 0.93710(12) 0.13655(15) 0.21654(14)
O46_29 O 0.90207(12) 0.20635(12) 0.12692(13)
O47_29 O 0.93939(13) 0.22320(14) 0.11558(13)
O51_29 O 0.87479(16) 0.09149(14) 0.19694(16)
O52_29 O 0.87793(17) 0.05638(14) 0.22069(18)
O59_29 O 0.89243(10) 0.25700(10) 0.09821(10)
O60_29 O 0.89401(11) 0.10694(11) 0.24912(11)
C65_29 C 0.8758(2) 0.16828(18) 0.2617(2)
C66_29 C 0.8767(3) 0.19622(19) 0.2683(2)
C67_29 C 0.8758(2) 0.20329(19) 0.2938(2)
H25_29 H 0.8742 0.1907 0.3067
C68_29 C 0.8773(2) 0.22865(19) 0.30026(18)
C69_29 C 0.8778(2) 0.2351(2) 0.32818(19)
C70_29 C 0.8789(2) 0.24699(19) 0.2814(2)
H26_29 H 0.8796 0.2644 0.2860
C71_29 C 0.8788(3) 0.21476(19) 0.24958(18)
H27_29 H 0.8799 0.2098 0.2323
C72_29 C 0.8794(2) 0.24034(18) 0.25573(18)
C73_29 C 0.8805(2) 0.26020(18) 0.23546(18)
C74_29 C 0.8819(2) 0.28567(18) 0.24142(19)
H28_29 H 0.8821 0.2906 0.2588
C75_29 C 0.8807(2) 0.25410(18) 0.20955(19)
H29_29 H 0.8791 0.2368 0.2045
C76_29 C 0.8830(2) 0.2727(2) 0.19107(18)
C77_29 C 0.8834(2) 0.2663(2) 0.1632(2)
C78_29 C 0.8845(2) 0.2974(2) 0.1978(2)
H30_29 H 0.8867 0.3101 0.1851
C79_29 C 0.8830(2) 0.30431(18) 0.22295(19)
C80_29 C 0.8836(2) 0.33198(19) 0.2299(2)
C81_29 C 0.92453(15) 0.14411(16) 0.19782(17)
C82_29 C 0.93866(16) 0.15846(17) 0.17762(18)
C83_29 C 0.92548(16) 0.17416(16) 0.16109(17)
H31_29 H 0.9074 0.1748 0.1614
C84_29 C 0.93927(16) 0.18901(17) 0.14411(17)
C85_29 C 0.92571(16) 0.20771(17) 0.12749(16)
C86_29 C 0.96546(17) 0.18709(18) 0.14289(18)
H32_29 H 0.9746 0.1969 0.1308
C87_29 C 0.96505(17) 0.15697(18) 0.17666(18)
H33_29 H 0.9738 0.1462 0.1882
C88_29 C 0.97850(17) 0.17096(19) 0.15920(18)
C96_29 C 0.8705(2) 0.0690(2) 0.2012(2)
C97_29 C 0.8533(2) 0.05490(19) 0.1831(2)
C98_29 C 0.8369(2) 0.06878(19) 0.1678(2)
H37_29 H 0.8381 0.0868 0.1668
C99_29 C 0.8185(2) 0.05567(18) 0.1540(2)
C100_29 C 0.7985(2) 0.06985(19) 0.1395(2)
C101_29 C 0.8179(2) 0.02905(18) 0.1549(2)
H38_29 H 0.8054 0.0203 0.1453
C102_29 C 0.85218(19) 0.02818(18) 0.1838(2)
H39_29 H 0.8635 0.0191 0.1945
C103_29 C 0.83501(19) 0.01505(17) 0.1692(2)
O62_29 O 0.8496(3) 0.2036(3) 0.1402(3)
O63_29 O 0.8775(8) 0.3271(4) 0.1300(7)
O64_29 O 0.86707(16) 0.15467(12) 0.27918(14)
C104_29 C 0.83356(19) 0.98624(18) 0.1697(2)
C105_29 C 0.85022(19) 0.97165(17) 0.18423(19)
H40_29 H 0.8629 0.9800 0.1941
C106_29 C 0.84884(17) 0.94536(17) 0.18472(18)
C107_29 C 0.86515(19) 0.93021(18) 0.2022(2)
C108_29 C 0.83080(17) 0.93285(16) 0.17039(18)
H41_29 H 0.8302 0.9148 0.1700
C109_29 C 0.81338(18) 0.94754(17) 0.15639(18)
C110_29 C 0.79214(18) 0.93414(18) 0.14259(19)
C111_29 C 0.81468(19) 0.97374(18) 0.1565(2)
H42_29 H 0.8024 0.9833 0.1473
O37_30 O 0.38302(19) 0.33831(13) 0.75911(15)
O40_30 O 0.37604(17) 0.25524(14) 0.84427(13)
O41_30 O 0.3931(2) 0.21670(19) 0.85089(14)
O44_30 O 0.40102(11) 0.35969(11) 0.80560(12)
O45_30 O 0.43710(12) 0.36345(15) 0.78346(14)
O46_30 O 0.40207(12) 0.29365(12) 0.87308(13)
O47_30 O 0.43939(13) 0.27680(14) 0.88442(13)
O51_30 O 0.37479(16) 0.40851(14) 0.80306(16)
O52_30 O 0.37793(17) 0.44362(14) 0.77931(18)
O59_30 O 0.39243(10) 0.24300(10) 0.90179(10)
O60_30 O 0.39401(11) 0.39306(11) 0.75088(11)
C65_30 C 0.3758(2) 0.33172(18) 0.7383(2)
C66_30 C 0.3767(3) 0.30378(19) 0.7317(2)
C67_30 C 0.3758(2) 0.29671(19) 0.7062(2)
H25_30 H 0.3742 0.3093 0.6933
C68_30 C 0.3773(2) 0.27135(19) 0.69974(18)
C69_30 C 0.3778(2) 0.2649(2) 0.67182(19)
C70_30 C 0.3789(2) 0.25301(19) 0.7186(2)
H26_30 H 0.3796 0.2356 0.7140
C71_30 C 0.3788(3) 0.28524(19) 0.75042(18)
H27_30 H 0.3799 0.2902 0.7677
C72_30 C 0.3794(2) 0.25966(18) 0.74427(18)
C73_30 C 0.3805(2) 0.23980(18) 0.76454(18)
C74_30 C 0.3819(2) 0.21433(18) 0.75858(19)
H28_30 H 0.3821 0.2094 0.7412
C75_30 C 0.3807(2) 0.24590(18) 0.79045(19)
H29_30 H 0.3791 0.2632 0.7955
C76_30 C 0.3830(2) 0.2273(2) 0.80893(18)
C77_30 C 0.3834(2) 0.2337(2) 0.8368(2)
C78_30 C 0.3845(2) 0.2026(2) 0.8022(2)
H30_30 H 0.3867 0.1899 0.8149
C79_30 C 0.3830(2) 0.19569(18) 0.77705(19)
C80_30 C 0.3836(2) 0.16802(19) 0.7701(2)
C81_30 C 0.42453(15) 0.35589(16) 0.80218(17)
C82_30 C 0.43866(16) 0.34154(17) 0.82238(18)
C83_30 C 0.42548(16) 0.32584(16) 0.83891(17)
H31_30 H 0.4074 0.3252 0.8386
C84_30 C 0.43927(16) 0.31099(17) 0.85589(17)
C85_30 C 0.42571(16) 0.29229(17) 0.87251(16)
C86_30 C 0.46546(17) 0.31291(18) 0.85711(18)
H32_30 H 0.4746 0.3031 0.8692
C87_30 C 0.46505(17) 0.34303(18) 0.82334(18)
H33_30 H 0.4738 0.3538 0.8118
C88_30 C 0.47850(17) 0.32904(19) 0.84080(18)
C89_30 C 0.50731(17) 0.33082(19) 0.84241(18)
C90_30 C 0.52100(16) 0.31695(19) 0.86021(18)
H34_30 H 0.5122 0.3059 0.8715
C91_30 C 0.54744(18) 0.31887(19) 0.86181(19)
C92_30 C 0.56039(17) 0.33470(18) 0.84543(18)
H35_30 H 0.5783 0.3368 0.8470
C93_30 C 0.54711(18) 0.3474(2) 0.8268(2)
C94_30 C 0.56120(18) 0.3620(2) 0.8072(2)
C95_30 C 0.52124(17) 0.3453(2) 0.8253(2)
H36_30 H 0.5125 0.3540 0.8121
C96_30 C 0.3705(2) 0.4310(2) 0.7988(2)
C97_30 C 0.3533(2) 0.44510(19) 0.8169(2)
C98_30 C 0.3369(2) 0.43122(19) 0.8322(2)
H37_30 H 0.3381 0.4132 0.8332
C99_30 C 0.3185(2) 0.44433(18) 0.8460(2)
C100_30 C 0.2985(2) 0.43015(19) 0.8605(2)
C101_30 C 0.3179(2) 0.47095(18) 0.8451(2)
H38_30 H 0.3054 0.4797 0.8547
C102_30 C 0.35218(19) 0.47182(18) 0.8162(2)
H39_30 H 0.3635 0.4809 0.8055
C103_30 C 0.33501(19) 0.48495(17) 0.8308(2)
C104_30 C 0.33356(19) 0.51376(18) 0.8303(2)
C105_30 C 0.35022(19) 0.52835(17) 0.81577(19)
H40_30 H 0.3629 0.5200 0.8059
C106_30 C 0.34884(17) 0.55464(17) 0.81528(18)
C107_30 C 0.36515(19) 0.56979(18) 0.7978(2)
C108_30 C 0.33080(17) 0.56715(16) 0.82961(18)
H41_30 H 0.3302 0.5852 0.8300
C109_30 C 0.31338(18) 0.55246(17) 0.84361(18)
C110_30 C 0.29214(18) 0.56586(18) 0.85741(19)
C111_30 C 0.31468(19) 0.52626(18) 0.8435(2)
H42_30 H 0.3024 0.5167 0.8527
O62_30 O 0.3496(3) 0.2964(3) 0.8598(3)
O63_30 O 0.3775(8) 0.1729(4) 0.8700(7)
O64_30 O 0.36707(16) 0.34533(12) 0.72082(14)
C112_30 C 0.56176(19) 0.3022(2) 0.88005(19)
C104_31 C 0.66644(19) 0.01376(18) 0.6697(2)
C105_31 C 0.64978(19) 0.02835(17) 0.68423(19)
H40_31 H 0.6371 0.0200 0.6941
C106_31 C 0.65116(17) 0.05464(17) 0.68472(18)
C107_31 C 0.63485(19) 0.06979(18) 0.7022(2)
C108_31 C 0.66920(17) 0.06715(16) 0.67039(18)
H41_31 H 0.6698 0.0852 0.6700
C109_31 C 0.68662(18) 0.05246(17) 0.65639(18)
C110_31 C 0.70786(18) 0.06586(18) 0.64259(19)
C111_31 C 0.68532(19) 0.02626(18) 0.6565(2)
H42_31 H 0.6976 0.0167 0.6473
O37_31 O 0.61698(19) 0.83831(13) 0.74089(15)
O40_31 O 0.62396(17) 0.75524(14) 0.65573(13)
O41_31 O 0.6069(2) 0.71670(19) 0.64911(14)
O44_31 O 0.59898(11) 0.85969(11) 0.69440(12)
O45_31 O 0.56290(12) 0.86345(15) 0.71654(14)
O46_31 O 0.59793(12) 0.79365(12) 0.62692(13)
O47_31 O 0.56061(13) 0.77680(14) 0.61558(13)
O51_31 O 0.62521(16) 0.90851(14) 0.69694(16)
O52_31 O 0.62207(17) 0.94362(14) 0.72069(18)
O59_31 O 0.60757(10) 0.74300(10) 0.59821(10)
O60_31 O 0.60599(11) 0.89306(11) 0.74912(11)
C65_31 C 0.6242(2) 0.83172(18) 0.7617(2)
C66_31 C 0.6233(3) 0.80378(19) 0.7683(2)
C67_31 C 0.6242(2) 0.79671(19) 0.7938(2)
H25_31 H 0.6258 0.8093 0.8067
C68_31 C 0.6227(2) 0.77135(19) 0.80026(18)
C69_31 C 0.6222(2) 0.7649(2) 0.82818(19)
C70_31 C 0.6211(2) 0.75301(19) 0.7814(2)
H26_31 H 0.6204 0.7356 0.7860
C71_31 C 0.6212(3) 0.78524(19) 0.74958(18)
H27_31 H 0.6201 0.7902 0.7323
C72_31 C 0.6206(2) 0.75966(18) 0.75573(18)
C73_31 C 0.6195(2) 0.73980(18) 0.73546(18)
C74_31 C 0.6181(2) 0.71433(18) 0.74142(19)
H28_31 H 0.6179 0.7094 0.7588
C75_31 C 0.6193(2) 0.74590(18) 0.70955(19)
H29_31 H 0.6209 0.7632 0.7045
C76_31 C 0.6170(2) 0.7273(2) 0.69107(18)
C77_31 C 0.6166(2) 0.7337(2) 0.6632(2)
C78_31 C 0.6155(2) 0.7026(2) 0.6978(2)
H30_31 H 0.6133 0.6899 0.6851
C79_31 C 0.6170(2) 0.69569(18) 0.72295(19)
C80_31 C 0.6164(2) 0.66802(19) 0.7299(2)
C81_31 C 0.57547(15) 0.85589(16) 0.69782(17)
C82_31 C 0.56134(16) 0.84154(17) 0.67762(18)
C83_31 C 0.57452(16) 0.82584(16) 0.66109(17)
H31_31 H 0.5926 0.8252 0.6614
C84_31 C 0.56073(16) 0.81099(17) 0.64411(17)
C85_31 C 0.57429(16) 0.79229(17) 0.62749(16)
C86_31 C 0.53454(17) 0.81291(18) 0.64289(18)
H32_31 H 0.5254 0.8031 0.6308
C87_31 C 0.53495(17) 0.84303(18) 0.67666(18)
H33_31 H 0.5262 0.8538 0.6882
C88_31 C 0.52150(17) 0.82904(19) 0.65920(18)
C89_31 C 0.49269(17) 0.83082(19) 0.65759(18)
C90_31 C 0.47900(16) 0.81695(19) 0.63979(18)
H34_31 H 0.4878 0.8059 0.6285
C91_31 C 0.45256(18) 0.81887(19) 0.63819(19)
C92_31 C 0.43961(17) 0.83470(18) 0.65457(18)
H35_31 H 0.4217 0.8368 0.6530
C93_31 C 0.45289(18) 0.8474(2) 0.6732(2)
C94_31 C 0.43880(18) 0.8620(2) 0.6928(2)
C95_31 C 0.47876(17) 0.8453(2) 0.6747(2)
H36_31 H 0.4875 0.8540 0.6879
C96_31 C 0.6295(2) 0.9310(2) 0.7012(2)
C97_31 C 0.6467(2) 0.94510(19) 0.6831(2)
C98_31 C 0.6631(2) 0.93122(19) 0.6678(2)
H37_31 H 0.6619 0.9132 0.6668
C99_31 C 0.6815(2) 0.94433(18) 0.6540(2)
C100_31 C 0.7015(2) 0.93015(19) 0.6395(2)
C101_31 C 0.6821(2) 0.97095(18) 0.6549(2)
H38_31 H 0.6946 0.9797 0.6453
C102_31 C 0.64782(19) 0.97182(18) 0.6838(2)
H39_31 H 0.6365 0.9809 0.6945
C103_31 C 0.66499(19) 0.98495(17) 0.6692(2)
O62_31 O 0.6504(3) 0.7964(3) 0.6402(3)
O63_31 O 0.6225(8) 0.6729(4) 0.6300(7)
O64_31 O 0.63293(16) 0.84533(12) 0.77918(14)
C112_31 C 0.43824(19) 0.8022(2) 0.61995(19)
O37_32 O 0.11698(19) 0.66169(13) 0.25911(15)
O40_32 O 0.12396(17) 0.74476(14) 0.34427(13)
O41_32 O 0.1069(2) 0.78330(19) 0.35089(14)
O44_32 O 0.09898(11) 0.64031(11) 0.30560(12)
O45_32 O 0.06290(12) 0.63655(15) 0.28346(14)
O46_32 O 0.09793(12) 0.70635(12) 0.37308(13)
O47_32 O 0.06061(13) 0.72320(14) 0.38442(13)
O51_32 O 0.12521(16) 0.59149(14) 0.30306(16)
O52_32 O 0.12207(17) 0.55638(14) 0.27931(18)
O59_32 O 0.10757(10) 0.75700(10) 0.40179(10)
O60_32 O 0.10599(11) 0.60694(11) 0.25088(11)
C65_32 C 0.1242(2) 0.66828(18) 0.2383(2)
C66_32 C 0.1233(3) 0.69622(19) 0.2317(2)
C67_32 C 0.1242(2) 0.70329(19) 0.2062(2)
H25_32 H 0.1258 0.6907 0.1933
C68_32 C 0.1227(2) 0.72865(19) 0.19974(18)
C69_32 C 0.1222(2) 0.7351(2) 0.17182(19)
C70_32 C 0.1211(2) 0.74699(19) 0.2186(2)
H26_32 H 0.1204 0.7644 0.2140
C71_32 C 0.1212(3) 0.71476(19) 0.25042(18)
H27_32 H 0.1201 0.7098 0.2677
C72_32 C 0.1206(2) 0.74034(18) 0.24427(18)
C73_32 C 0.1195(2) 0.76020(18) 0.26454(18)
C74_32 C 0.1181(2) 0.78567(18) 0.25858(19)
H28_32 H 0.1179 0.7906 0.2412
C75_32 C 0.1193(2) 0.75410(18) 0.29045(19)
H29_32 H 0.1209 0.7368 0.2955
C76_32 C 0.1170(2) 0.7727(2) 0.30893(18)
C77_32 C 0.1166(2) 0.7663(2) 0.3368(2)
C78_32 C 0.1155(2) 0.7974(2) 0.3022(2)
H30_32 H 0.1133 0.8101 0.3149
C79_32 C 0.1170(2) 0.80431(18) 0.27705(19)
C80_32 C 0.1164(2) 0.83198(19) 0.2701(2)
C81_32 C 0.07547(15) 0.64411(16) 0.30218(17)
C82_32 C 0.06134(16) 0.65846(17) 0.32238(18)
C83_32 C 0.07452(16) 0.67416(16) 0.33891(17)
H31_32 H 0.0926 0.6748 0.3386
C84_32 C 0.06073(16) 0.68901(17) 0.35589(17)
C85_32 C 0.07429(16) 0.70771(17) 0.37251(16)
C86_32 C 0.03454(17) 0.68709(18) 0.35711(18)
H32_32 H 0.0254 0.6969 0.3692
C87_32 C 0.03495(17) 0.65697(18) 0.32334(18)
H33_32 H 0.0262 0.6462 0.3118
C88_32 C 0.02150(17) 0.67096(19) 0.34080(18)
C96_32 C 0.1295(2) 0.5690(2) 0.2988(2)
C97_32 C 0.1467(2) 0.55490(19) 0.3169(2)
C98_32 C 0.1631(2) 0.56878(19) 0.3322(2)
H37_32 H 0.1619 0.5868 0.3332
C99_32 C 0.1815(2) 0.55567(18) 0.3460(2)
C100_32 C 0.2015(2) 0.56985(19) 0.3605(2)
C101_32 C 0.1821(2) 0.52905(18) 0.3451(2)
H38_32 H 0.1946 0.5203 0.3547
C102_32 C 0.14782(19) 0.52818(18) 0.3162(2)
H39_32 H 0.1365 0.5191 0.3055
C103_32 C 0.16499(19) 0.51505(17) 0.3308(2)
C104_32 C 0.16644(19) 0.48624(18) 0.3303(2)
C105_32 C 0.14978(19) 0.47165(17) 0.31577(19)
H40_32 H 0.1371 0.4800 0.3059
C106_32 C 0.15116(17) 0.44536(17) 0.31528(18)
C107_32 C 0.13485(19) 0.43021(18) 0.2978(2)
C108_32 C 0.16920(17) 0.43285(16) 0.32961(18)
H41_32 H 0.1698 0.4148 0.3300
C109_32 C 0.18662(18) 0.44754(17) 0.34361(18)
C110_32 C 0.20786(18) 0.43414(18) 0.35741(19)
C111_32 C 0.18532(19) 0.47374(18) 0.3435(2)
H42_32 H 0.1976 0.4833 0.3527
O62_32 O 0.1504(3) 0.7036(3) 0.3598(3)
O63_32 O 0.1225(8) 0.8271(4) 0.3700(7)
O64_32 O 0.13293(16) 0.65467(12) 0.22082(14)
C89_32 C 0.99269(17) 0.66918(19) 0.34241(18)
C90_32 C 0.97900(16) 0.68305(19) 0.36021(18)
H34_32 H 0.9878 0.6941 0.3715
C91_32 C 0.95256(18) 0.68113(19) 0.36181(19)
C92_32 C 0.93961(17) 0.66530(18) 0.34543(18)
H35_32 H 0.9217 0.6632 0.3470
C93_32 C 0.95289(18) 0.6526(2) 0.3268(2)
C94_32 C 0.93880(18) 0.6380(2) 0.3072(2)
C95_32 C 0.97876(17) 0.6547(2) 0.3253(2)
H36_32 H 0.9875 0.6460 0.3121
C112_32 C 0.93824(19) 0.6978(2) 0.38005(19)
loop_
_geom_bond_atom_site_label_1
_geom_bond_atom_site_label_2
_geom_bond_site_symmetry_1
_geom_bond_site_symmetry_2
O19 C43 1_555 1_555
O20 C43 1_555 1_555
O21 C46 1_555 1_555
O22 C46 1_555 1_555
C41 C40 1_555 1_555
H16 C41 1_555 1_555
C42 C41 1_555 1_555
C43 C42 1_555 1_555
C44 C42 1_555 1_555
H17 C44 1_555 1_555
C45 C44 1_555 1_555
C46 C45 1_555 1_555
C47 C40 1_555 1_555
H18 C47 1_555 1_555
Zn19 O19 1_555 1_555
Zn29 O20 1_555 1_555
Zn34 O22 1_555 1_555
Zn46 O21 1_555 1_555
C45 C47 1_555 1_555
Zn1 O1 1_555 1_555
Zn2 O28 1_555 1_555
Zn3 O9 1_555 1_555
Zn4 O16 1_555 1_555
Zn5 O4 1_555 1_555
Zn6 O5 1_555 1_555
Zn7 O11 1_555 1_555
Zn8 O23 1_555 1_555
O1 C1 1_555 1_555
O2 C5 1_555 1_555
O3 C5 1_555 1_555
O4 C13 1_555 1_555
O5 C13 1_555 1_555
O6 C16 1_555 1_555
O7 C16 1_555 1_555
O8 Zn1 1_555 1_555
O9 C17 1_555 1_555
O10 Zn5 1_555 1_555
O11 C21 1_555 1_555
O12 C56 1_555 1_555
O13 C30 1_555 1_555
O14 C30 1_555 1_555
O15 Zn1 1_555 1_555
O16 C32 1_555 1_555
O17 C36 1_555 1_555
O18 C36 1_555 1_555
O23 C48 1_555 1_555
O24 Zn7 1_555 1_555
O27 Zn5 1_555 1_555
O28 Zn1 1_555 1_555
C1 C2 1_555 1_555
C2 C3 1_555 1_555
C3 H1 1_555 1_555
C4 C3 1_555 1_555
C5 C4 1_555 1_555
C6 C4 1_555 1_555
H2 C6 1_555 1_555
C7 C2 1_555 1_555
H3 C7 1_555 1_555
C8 C6 1_555 1_555
C9 C8 1_555 1_555
C10 C9 1_555 1_555
H4 C10 1_555 1_555
C11 C9 1_555 1_555
H5 C11 1_555 1_555
C12 C11 1_555 1_555
C13 C12 1_555 1_555
C14 C12 1_555 1_555
H6 C14 1_555 1_555
C15 C10 1_555 1_555
C16 C15 1_555 1_555
C17 O8 1_555 1_555
C18 C17 1_555 1_555
C19 C18 1_555 1_555
H7 C19 1_555 1_555
C20 C19 1_555 1_555
C21 O10 1_555 1_555
C22 C20 1_555 1_555
H8 C22 1_555 1_555
C23 C18 1_555 1_555
H9 C23 1_555 1_555
C24 C22 1_555 1_555
C25 C24 1_555 1_555
C26 C25 1_555 1_555
H10 C26 1_555 1_555
C27 C26 1_555 1_555
O29 C56 1_555 1_555
C28 C27 1_555 1_555
H11 C28 1_555 1_555
C29 C28 1_555 1_555
C30 C29 1_555 1_555
C31 C25 1_555 1_555
H12 C31 1_555 1_555
C32 O15 1_555 1_555
C33 C32 1_555 1_555
C34 C33 1_555 1_555
H13 C34 1_555 1_555
C35 C34 1_555 1_555
C36 C35 1_555 1_555
C37 C35 1_555 1_555
H14 C37 1_555 1_555
C38 C33 1_555 1_555
H15 C38 1_555 1_555
C39 C37 1_555 1_555
C48 O24 1_555 1_555
C49 C48 1_555 1_555
C55 C49 1_555 1_555
H21 C55 1_555 1_555
O30 Zn5 1_555 1_555
O31 Zn6 1_555 1_555
O32 Zn2 1_555 1_555
C56 C27 1_555 1_555
O33 C57 1_555 1_555
O34 C57 1_555 1_555
C57 C58 1_555 1_555
C64 C58 1_555 1_555
H24 C64 1_555 1_555
Zn9 O37 1_555 1_555
Zn10 O60 1_555 1_555
Zn11 O45 1_555 1_555
Zn12 O52 1_555 1_555
Zn13 O6 1_555 1_555
Zn14 O7 1_555 1_555
Zn15 O47 1_555 1_555
Zn16 O59 1_555 1_555
O37 C65 1_555 1_555
O38 C69 1_555 1_555
O39 C69 1_555 1_555
O40 Zn13 1_555 1_555
O41 Zn14 1_555 1_555
O42 C80 1_555 1_555
O43 C80 1_555 1_555
O44 Zn9 1_555 1_555
O45 C81 1_555 1_555
O46 Zn13 1_555 1_555
O47 C85 1_555 1_555
O48 C112 1_555 1_555
O49 C94 1_555 1_555
O50 C94 1_555 1_555
O51 Zn9 1_555 1_555
O52 C96 1_555 1_555
O53 C100 1_555 1_555
O54 C100 1_555 1_555
O55 C107 1_555 1_555
O56 C107 1_555 1_555
O57 C110 1_555 1_555
O58 C110 1_555 1_555
O59 Zn13 1_555 1_555
O60 Zn9 1_555 1_555
C65 C66 1_555 1_555
C66 C67 1_555 1_555
C67 H25 1_555 1_555
C68 C67 1_555 1_555
C69 C68 1_555 1_555
C70 C68 1_555 1_555
H26 C70 1_555 1_555
C71 C66 1_555 1_555
H27 C71 1_555 1_555
C72 C70 1_555 1_555
C73 C72 1_555 1_555
C74 C73 1_555 1_555
H28 C74 1_555 1_555
C75 C73 1_555 1_555
H29 C75 1_555 1_555
C76 C75 1_555 1_555
C77 O40 1_555 1_555
C78 C76 1_555 1_555
H30 C78 1_555 1_555
C79 C74 1_555 1_555
C80 C79 1_555 1_555
C81 O44 1_555 1_555
C82 C81 1_555 1_555
C83 C82 1_555 1_555
H31 C83 1_555 1_555
C84 C83 1_555 1_555
C85 O46 1_555 1_555
C86 C84 1_555 1_555
H32 C86 1_555 1_555
C87 C82 1_555 1_555
H33 C87 1_555 1_555
C88 C86 1_555 1_555
C89 C88 1_555 1_555
C90 C89 1_555 1_555
H34 C90 1_555 1_555
C91 C90 1_555 1_555
O61 C112 1_555 1_555
C92 C91 1_555 1_555
H35 C92 1_555 1_555
C93 C92 1_555 1_555
C94 C93 1_555 1_555
C95 C89 1_555 1_555
H36 C95 1_555 1_555
C96 O51 1_555 1_555
C97 C96 1_555 1_555
C98 C97 1_555 1_555
H37 C98 1_555 1_555
C99 C98 1_555 1_555
C100 C99 1_555 1_555
C101 C99 1_555 1_555
H38 C101 1_555 1_555
C102 C97 1_555 1_555
H39 C102 1_555 1_555
C103 C101 1_555 1_555
C104 C103 1_555 1_555
C105 C104 1_555 1_555
H40 C105 1_555 1_555
C106 C105 1_555 1_555
C107 C106 1_555 1_555
C108 C106 1_555 1_555
H41 C108 1_555 1_555
C109 C108 1_555 1_555
C110 C109 1_555 1_555
C111 C104 1_555 1_555
H42 C111 1_555 1_555
O62 Zn13 1_555 1_555
O63 Zn14 1_555 1_555
O64 Zn10 1_555 1_555
C112 C91 1_555 1_555
Zn17 O38 1_555 1_555
Zn18 O2 1_555 1_555
Zn20 O55 1_555 1_555
Zn21 O39 1_555 1_555
Zn22 O18 1_555 1_555
Zn23 O3 1_555 1_555
Zn26 O17 1_555 1_555
Zn27 O53 1_555 1_555
Zn30 O56 1_555 1_555
Zn32 O42 1_555 1_555
Zn33 O58 1_555 1_555
Zn35 O43 1_555 1_555
Zn36 O29 1_555 1_555
Zn37 O13 1_555 1_555
Zn38 O61 1_555 1_555
Zn39 O49 1_555 1_555
Zn40 O12 1_555 1_555
Zn41 O48 1_555 1_555
Zn42 O33 1_555 1_555
Zn43 O14 1_555 1_555
Zn44 O50 1_555 1_555
Zn45 O57 1_555 1_555
O65 Zn1 1_555 1_555
O66 Zn9 1_555 1_555
O67 Zn2 1_555 1_555
O68 Zn10 1_555 1_555
O69 Zn5 1_555 1_555
O70 Zn6 1_555 1_555
O71 Zn7 1_555 1_555
O72 Zn15 1_555 1_555
O73 Zn14 1_555 1_555
O74 Zn6 1_555 1_555
O75 Zn16 1_555 1_555
O76 Zn8 1_555 1_555
O77 Zn11 1_555 1_555
O78 Zn3 1_555 1_555
O79 Zn10 1_555 1_555
O80 Zn2 1_555 1_555
O81 Zn2 1_555 1_555
O82 Zn10 1_555 1_555
O83 Zn4 1_555 1_555
O84 Zn12 1_555 1_555
O85 Zn8 1_555 1_555
O86 Zn16 1_555 1_555
O87 Zn5 1_555 1_555
O88 Zn13 1_555 1_555
O89 Zn16 1_555 1_555
O90 Zn15 1_555 1_555
O91 Zn3 1_555 1_555
O92 Zn11 1_555 1_555
O93 Zn4 1_555 1_555
O94 Zn12 1_555 1_555
O95 Zn6 1_555 1_555
O96 Zn14 1_555 1_555
Zn3 O28 1_555 1_555
Zn4 O28 1_555 1_555
Zn6 O27 1_555 1_555
Zn7 O27 1_555 1_555
Zn8 O27 1_555 1_555
C1 O32 1_555 1_555
C7 C8 1_555 1_555
C14 C15 1_555 1_555
C20 C21 1_555 1_555
C23 C24 1_555 1_555
C29 C31 1_555 1_555
C38 C39 1_555 1_555
O34 Zn40 1_555 1_555
Zn11 O60 1_555 1_555
Zn12 O60 1_555 1_555
Zn14 O59 1_555 1_555
Zn15 O59 1_555 1_555
O41 C77 1_555 1_555
O54 Zn23 1_555 1_555
C65 O64 1_555 1_555
C71 C72 1_555 1_555
C76 C77 1_555 1_555
C78 C79 1_555 1_555
C84 C85 1_555 1_555
C87 C88 1_555 1_555
C93 C95 1_555 1_555
C102 C103 1_555 1_555
C109 C111 1_555 1_555
O25 C52 1_555 1_555
O26 C52 1_555 1_555
H19 C50 1_555 1_555
C51 C50 1_555 1_555
C52 C51 1_555 1_555
C53 C51 1_555 1_555
H20 C53 1_555 1_555
C54 C53 1_555 1_555
O35 C61 1_555 1_555
O36 C61 1_555 1_555
C59 H22 1_555 1_555
C60 C59 1_555 1_555
C61 C60 1_555 1_555
C62 C60 1_555 1_555
H23 C62 1_555 1_555
C63 C54 1_555 1_555
Zn24 O35 1_555 1_555
Zn25 O25 1_555 1_555
Zn28 O36 1_555 1_555
Zn31 O26 1_555 1_555
C62 C63 1_555 1_555
Zn1_2 O1_2 1_555 1_555
Zn2_2 O28_2 1_555 1_555
Zn3_2 O9_2 1_555 1_555
Zn4_2 O16_2 1_555 1_555
Zn5_2 O4_2 1_555 1_555
Zn6_2 O5_2 1_555 1_555
Zn7_2 O11_2 1_555 1_555
Zn8_2 O23_2 1_555 1_555
O1_2 C1_2 1_555 1_555
O2_2 C5_2 1_555 1_555
O3_2 C5_2 1_555 1_555
O4_2 C13_2 1_555 1_555
O5_2 C13_2 1_555 1_555
O6_2 C16_2 1_555 1_555
O7_2 C16_2 1_555 1_555
O8_2 Zn1_2 1_555 1_555
O9_2 C17_2 1_555 1_555
O10_2 Zn5_2 1_555 1_555
O11_2 C21_2 1_555 1_555
O12_2 C56_2 1_555 1_555
O13_2 C30_2 1_555 1_555
O14_2 C30_2 1_555 1_555
O15_2 Zn1_2 1_555 1_555
O16_2 C32_2 1_555 1_555
O17_2 C36_2 1_555 1_555
O18_2 C36_2 1_555 1_555
O19_2 C43_2 1_555 1_555
O20_2 C43_2 1_555 1_555
O21_2 C46_2 1_555 1_555
O22_2 C46_2 1_555 1_555
O23_2 C48_2 1_555 1_555
O24_2 Zn7_2 1_555 1_555
O25_2 C52_2 1_555 1_555
O26_2 C52_2 1_555 1_555
O27_2 Zn5_2 1_555 1_555
O28_2 Zn1_2 1_555 1_555
C1_2 C2_2 1_555 1_555
C2_2 C3_2 1_555 1_555
C3_2 H1_2 1_555 1_555
C4_2 C3_2 1_555 1_555
C5_2 C4_2 1_555 1_555
C6_2 C4_2 1_555 1_555
H2_2 C6_2 1_555 1_555
C7_2 C2_2 1_555 1_555
H3_2 C7_2 1_555 1_555
C8_2 C6_2 1_555 1_555
C9_2 C8_2 1_555 1_555
C10_2 C9_2 1_555 1_555
H4_2 C10_2 1_555 1_555
C11_2 C9_2 1_555 1_555
H5_2 C11_2 1_555 1_555
C12_2 C11_2 1_555 1_555
C13_2 C12_2 1_555 1_555
C14_2 C12_2 1_555 1_555
H6_2 C14_2 1_555 1_555
C15_2 C10_2 1_555 1_555
C16_2 C15_2 1_555 1_555
C17_2 O8_2 1_555 1_555
C18_2 C17_2 1_555 1_555
C19_2 C18_2 1_555 1_555
H7_2 C19_2 1_555 1_555
C20_2 C19_2 1_555 1_555
C21_2 O10_2 1_555 1_555
C22_2 C20_2 1_555 1_555
H8_2 C22_2 1_555 1_555
C23_2 C18_2 1_555 1_555
H9_2 C23_2 1_555 1_555
C24_2 C22_2 1_555 1_555
C25_2 C24_2 1_555 1_555
C26_2 C25_2 1_555 1_555
H10_2 C26_2 1_555 1_555
C27_2 C26_2 1_555 1_555
O29_2 C56_2 1_555 1_555
C28_2 C27_2 1_555 1_555
H11_2 C28_2 1_555 1_555
C29_2 C28_2 1_555 1_555
C30_2 C29_2 1_555 1_555
C31_2 C25_2 1_555 1_555
H12_2 C31_2 1_555 1_555
C32_2 O15_2 1_555 1_555
C33_2 C32_2 1_555 1_555
C34_2 C33_2 1_555 1_555
H13_2 C34_2 1_555 1_555
C35_2 C34_2 1_555 1_555
C36_2 C35_2 1_555 1_555
C37_2 C35_2 1_555 1_555
H14_2 C37_2 1_555 1_555
C38_2 C33_2 1_555 1_555
H15_2 C38_2 1_555 1_555
C39_2 C37_2 1_555 1_555
C40_2 C39_2 1_555 1_555
C41_2 C40_2 1_555 1_555
H16_2 C41_2 1_555 1_555
C42_2 C41_2 1_555 1_555
C43_2 C42_2 1_555 1_555
C44_2 C42_2 1_555 1_555
H17_2 C44_2 1_555 1_555
C45_2 C44_2 1_555 1_555
C46_2 C45_2 1_555 1_555
C47_2 C40_2 1_555 1_555
H18_2 C47_2 1_555 1_555
C48_2 O24_2 1_555 1_555
C49_2 C48_2 1_555 1_555
C50_2 C49_2 1_555 1_555
H19_2 C50_2 1_555 1_555
C51_2 C50_2 1_555 1_555
C52_2 C51_2 1_555 1_555
C53_2 C51_2 1_555 1_555
H20_2 C53_2 1_555 1_555
C54_2 C53_2 1_555 1_555
C55_2 C49_2 1_555 1_555
H21_2 C55_2 1_555 1_555
O30_2 Zn5_2 1_555 1_555
O31_2 Zn6_2 1_555 1_555
O32_2 Zn2_2 1_555 1_555
C56_2 C27_2 1_555 1_555
O33_2 C57_2 1_555 1_555
O34_2 C57_2 1_555 1_555
O35_2 C61_2 1_555 1_555
O36_2 C61_2 1_555 1_555
C57_2 C58_2 1_555 1_555
C58_2 C59_2 1_555 1_555
C59_2 H22_2 1_555 1_555
C60_2 C59_2 1_555 1_555
C61_2 C60_2 1_555 1_555
C62_2 C60_2 1_555 1_555
H23_2 C62_2 1_555 1_555
C63_2 C54_2 1_555 1_555
C64_2 C58_2 1_555 1_555
H24_2 C64_2 1_555 1_555
Zn9_2 O37_2 1_555 1_555
Zn10_2 O60_2 1_555 1_555
Zn11_2 O45_2 1_555 1_555
Zn12_2 O52_2 1_555 1_555
Zn13_2 O6_2 1_555 1_555
Zn14_2 O7_2 1_555 1_555
Zn15_2 O47_2 1_555 1_555
Zn16_2 O59_2 1_555 1_555
O37_2 C65_2 1_555 1_555
O38_2 C69_2 1_555 1_555
O39_2 C69_2 1_555 1_555
O40_2 Zn13_2 1_555 1_555
O41_2 Zn14_2 1_555 1_555
O42_2 C80_2 1_555 1_555
O43_2 C80_2 1_555 1_555
O44_2 Zn9_2 1_555 1_555
O45_2 C81_2 1_555 1_555
O46_2 Zn13_2 1_555 1_555
O47_2 C85_2 1_555 1_555
O51_2 Zn9_2 1_555 1_555
O52_2 C96_2 1_555 1_555
O53_2 C100_2 1_555 1_555
O54_2 C100_2 1_555 1_555
O59_2 Zn13_2 1_555 1_555
O60_2 Zn9_2 1_555 1_555
C65_2 C66_2 1_555 1_555
C66_2 C67_2 1_555 1_555
C67_2 H25_2 1_555 1_555
C68_2 C67_2 1_555 1_555
C69_2 C68_2 1_555 1_555
C70_2 C68_2 1_555 1_555
H26_2 C70_2 1_555 1_555
C71_2 C66_2 1_555 1_555
H27_2 C71_2 1_555 1_555
C72_2 C70_2 1_555 1_555
C73_2 C72_2 1_555 1_555
C74_2 C73_2 1_555 1_555
H28_2 C74_2 1_555 1_555
C75_2 C73_2 1_555 1_555
H29_2 C75_2 1_555 1_555
C76_2 C75_2 1_555 1_555
C77_2 O40_2 1_555 1_555
C78_2 C76_2 1_555 1_555
H30_2 C78_2 1_555 1_555
C79_2 C74_2 1_555 1_555
C80_2 C79_2 1_555 1_555
C81_2 O44_2 1_555 1_555
C82_2 C81_2 1_555 1_555
C83_2 C82_2 1_555 1_555
H31_2 C83_2 1_555 1_555
C84_2 C83_2 1_555 1_555
C85_2 O46_2 1_555 1_555
C86_2 C84_2 1_555 1_555
H32_2 C86_2 1_555 1_555
C87_2 C82_2 1_555 1_555
H33_2 C87_2 1_555 1_555
C88_2 C86_2 1_555 1_555
C96_2 O51_2 1_555 1_555
C97_2 C96_2 1_555 1_555
C98_2 C97_2 1_555 1_555
H37_2 C98_2 1_555 1_555
C99_2 C98_2 1_555 1_555
C100_2 C99_2 1_555 1_555
C101_2 C99_2 1_555 1_555
H38_2 C101_2 1_555 1_555
C102_2 C97_2 1_555 1_555
H39_2 C102_2 1_555 1_555
C103_2 C101_2 1_555 1_555
O62_2 Zn13_2 1_555 1_555
O63_2 Zn14_2 1_555 1_555
O64_2 Zn10_2 1_555 1_555
Zn17_2 O38_2 1_555 1_555
Zn18_2 O2_2 1_555 1_555
Zn19_2 O19_2 1_555 1_555
Zn21_2 O39_2 1_555 1_555
Zn22_2 O18_2 1_555 1_555
Zn23_2 O3_2 1_555 1_555
Zn24_2 O35_2 1_555 1_555
Zn25_2 O25_2 1_555 1_555
Zn26_2 O17_2 1_555 1_555
Zn27_2 O53_2 1_555 1_555
Zn28_2 O36_2 1_555 1_555
Zn29_2 O20_2 1_555 1_555
Zn31_2 O26_2 1_555 1_555
Zn32_2 O42_2 1_555 1_555
Zn34_2 O22_2 1_555 1_555
Zn35_2 O43_2 1_555 1_555
Zn36_2 O29_2 1_555 1_555
Zn38 O13_2 1_555 1_555
Zn40_2 O12_2 1_555 1_555
Zn42_2 O33_2 1_555 1_555
Zn43_2 O14_2 1_555 1_555
Zn46_2 O21_2 1_555 1_555
O65_2 Zn1_2 1_555 1_555
O66_2 Zn9_2 1_555 1_555
O67_2 Zn2_2 1_555 1_555
O68_2 Zn10_2 1_555 1_555
O69_2 Zn5_2 1_555 1_555
O70_2 Zn6_2 1_555 1_555
O71_2 Zn7_2 1_555 1_555
O72_2 Zn15_2 1_555 1_555
O73_2 Zn14_2 1_555 1_555
O74_2 Zn6_2 1_555 1_555
O75_2 Zn16_2 1_555 1_555
O76_2 Zn8_2 1_555 1_555
O77_2 Zn11_2 1_555 1_555
O78_2 Zn3_2 1_555 1_555
O79_2 Zn10_2 1_555 1_555
O80_2 Zn2_2 1_555 1_555
O81_2 Zn2_2 1_555 1_555
O82_2 Zn10_2 1_555 1_555
O83_2 Zn4_2 1_555 1_555
O84_2 Zn12_2 1_555 1_555
O85_2 Zn8_2 1_555 1_555
O86_2 Zn16_2 1_555 1_555
O87_2 Zn5_2 1_555 1_555
O88_2 Zn13_2 1_555 1_555
O89_2 Zn16_2 1_555 1_555
O90_2 Zn15_2 1_555 1_555
O91_2 Zn3_2 1_555 1_555
O92_2 Zn11_2 1_555 1_555
O93_2 Zn4_2 1_555 1_555
O94_2 Zn12_2 1_555 1_555
O95_2 Zn6_2 1_555 1_555
O96_2 Zn14_2 1_555 1_555
Zn3_2 O28_2 1_555 1_555
Zn4_2 O28_2 1_555 1_555
Zn6_2 O27_2 1_555 1_555
Zn7_2 O27_2 1_555 1_555
Zn8_2 O27_2 1_555 1_555
C1_2 O32_2 1_555 1_555
C7_2 C8_2 1_555 1_555
C14_2 C15_2 1_555 1_555
C20_2 C21_2 1_555 1_555
C23_2 C24_2 1_555 1_555
C29_2 C31_2 1_555 1_555
C38_2 C39_2 1_555 1_555
C45_2 C47_2 1_555 1_555
C54_2 C55_2 1_555 1_555
O34_2 Zn40_2 1_555 1_555
C62_2 C63_2 1_555 1_555
C63_2 C64_2 1_555 1_555
Zn11_2 O60_2 1_555 1_555
Zn12_2 O60_2 1_555 1_555
Zn14_2 O59_2 1_555 1_555
Zn15_2 O59_2 1_555 1_555
O41_2 C77_2 1_555 1_555
O54_2 Zn23_2 1_555 1_555
C65_2 O64_2 1_555 1_555
C71_2 C72_2 1_555 1_555
C76_2 C77_2 1_555 1_555
C78_2 C79_2 1_555 1_555
C84_2 C85_2 1_555 1_555
C87_2 C88_2 1_555 1_555
C102_2 C103_2 1_555 1_555
O48_2 C112_2 1_555 1_555
O49_2 C94_2 1_555 1_555
O50_2 C94_2 1_555 1_555
C90_2 C89_2 1_555 1_555
H34_2 C90_2 1_555 1_555
C91_2 C90_2 1_555 1_555
O61_2 C112_2 1_555 1_555
C92_2 C91_2 1_555 1_555
H35_2 C92_2 1_555 1_555
C93_2 C92_2 1_555 1_555
C94_2 C93_2 1_555 1_555
C95_2 C89_2 1_555 1_555
H36_2 C95_2 1_555 1_555
C112_2 C91_2 1_555 1_555
Zn37 O61_2 1_555 1_555
Zn39_2 O49_2 1_555 1_555
Zn41_2 O48_2 1_555 1_555
Zn44_2 O50_2 1_555 1_555
C93_2 C95_2 1_555 1_555
O55_2 C107_2 1_555 1_555
O56_2 C107_2 1_555 1_555
O57_2 C110_2 1_555 1_555
O58_2 C110_2 1_555 1_555
C105_2 C104_2 1_555 1_555
H40_2 C105_2 1_555 1_555
C106_2 C105_2 1_555 1_555
C107_2 C106_2 1_555 1_555
C108_2 C106_2 1_555 1_555
H41_2 C108_2 1_555 1_555
C109_2 C108_2 1_555 1_555
C110_2 C109_2 1_555 1_555
C111_2 C104_2 1_555 1_555
H42_2 C111_2 1_555 1_555
Zn20_2 O55_2 1_555 1_555
Zn30_2 O56_2 1_555 1_555
Zn33_2 O58_2 1_555 1_555
Zn45_2 O57_2 1_555 1_555
C109_2 C111_2 1_555 1_555
O35_3 C61_3 1_555 1_555
O36_3 C61_3 1_555 1_555
C59_3 H22_3 1_555 1_555
C60_3 C59_3 1_555 1_555
C61_3 C60_3 1_555 1_555
C62_3 C60_3 1_555 1_555
H23_3 C62_3 1_555 1_555
Zn24_3 O35_3 1_555 1_555
Zn28_3 O36_3 1_555 1_555
C62_3 C63_3 1_555 1_555
O25_3 C52_3 1_555 1_555
O26_3 C52_3 1_555 1_555
H19_3 C50_3 1_555 1_555
C51_3 C50_3 1_555 1_555
C52_3 C51_3 1_555 1_555
C53_3 C51_3 1_555 1_555
H20_3 C53_3 1_555 1_555
C54_3 C53_3 1_555 1_555
Zn25_3 O25_3 1_555 1_555
Zn31_3 O26_3 1_555 1_555
O12_3 C56_3 1_555 1_555
O13_3 C30_3 1_555 1_555
O14_3 C30_3 1_555 1_555
C26_3 C25_3 1_555 1_555
H10_3 C26_3 1_555 1_555
C27_3 C26_3 1_555 1_555
O29_3 C56_3 1_555 1_555
C28_3 C27_3 1_555 1_555
H11_3 C28_3 1_555 1_555
C29_3 C28_3 1_555 1_555
C30_3 C29_3 1_555 1_555
C31_3 C25_3 1_555 1_555
H12_3 C31_3 1_555 1_555
C56_3 C27_3 1_555 1_555
O33_3 C57_3 1_555 1_555
O34_3 C57_3 1_555 1_555
C57_3 C58_3 1_555 1_555
C64_3 C58_3 1_555 1_555
H24_3 C64_3 1_555 1_555
Zn36_3 O29_3 1_555 1_555
Zn37_2 O13_3 1_555 1_555
Zn40_3 O12_3 1_555 1_555
Zn42_3 O33_3 1_555 1_555
Zn43_3 O14_3 1_555 1_555
C29_3 C31_3 1_555 1_555
O34_3 Zn40_3 1_555 1_555
O48_3 C112_3 1_555 1_555
O49_3 C94_3 1_555 1_555
O50_3 C94_3 1_555 1_555
C90_3 C89_3 1_555 1_555
H34_3 C90_3 1_555 1_555
C91_3 C90_3 1_555 1_555
O61_3 C112_3 1_555 1_555
C92_3 C91_3 1_555 1_555
H35_3 C92_3 1_555 1_555
C93_3 C92_3 1_555 1_555
C94_3 C93_3 1_555 1_555
C95_3 C89_3 1_555 1_555
H36_3 C95_3 1_555 1_555
C112_3 C91_3 1_555 1_555
Zn38_2 O61_3 1_555 1_555
Zn39_3 O49_3 1_555 1_555
Zn41_3 O48_3 1_555 1_555
Zn44_3 O50_3 1_555 1_555
C93_3 C95_3 1_555 1_555
Zn1_3 O1_3 1_555 1_555
Zn2_3 O28_3 1_555 1_555
Zn3_3 O9_3 1_555 1_555
Zn4_3 O16_3 1_555 1_555
Zn5_3 O4_3 1_555 1_555
Zn6_3 O5_3 1_555 1_555
Zn7_3 O11_3 1_555 1_555
Zn8_3 O23_3 1_555 1_555
O1_3 C1_3 1_555 1_555
O2_3 C5_3 1_555 1_555
O3_3 C5_3 1_555 1_555
O4_3 C13_3 1_555 1_555
O5_3 C13_3 1_555 1_555
O6_3 C16_3 1_555 1_555
O7_3 C16_3 1_555 1_555
O8_3 Zn1_3 1_555 1_555
O9_3 C17_3 1_555 1_555
O10_3 Zn5_3 1_555 1_555
O11_3 C21_3 1_555 1_555
O15_3 Zn1_3 1_555 1_555
O16_3 C32_3 1_555 1_555
O17_3 C36_3 1_555 1_555
O18_3 C36_3 1_555 1_555
O19_3 C43_3 1_555 1_555
O20_3 C43_3 1_555 1_555
O21_3 C46_3 1_555 1_555
O22_3 C46_3 1_555 1_555
O23_3 C48_3 1_555 1_555
O24_3 Zn7_3 1_555 1_555
O27_3 Zn5_3 1_555 1_555
O28_3 Zn1_3 1_555 1_555
C1_3 C2_3 1_555 1_555
C2_3 C3_3 1_555 1_555
C3_3 H1_3 1_555 1_555
C4_3 C3_3 1_555 1_555
C5_3 C4_3 1_555 1_555
C6_3 C4_3 1_555 1_555
H2_3 C6_3 1_555 1_555
C7_3 C2_3 1_555 1_555
H3_3 C7_3 1_555 1_555
C8_3 C6_3 1_555 1_555
C9_3 C8_3 1_555 1_555
C10_3 C9_3 1_555 1_555
H4_3 C10_3 1_555 1_555
C11_3 C9_3 1_555 1_555
H5_3 C11_3 1_555 1_555
C12_3 C11_3 1_555 1_555
C13_3 C12_3 1_555 1_555
C14_3 C12_3 1_555 1_555
H6_3 C14_3 1_555 1_555
C15_3 C10_3 1_555 1_555
C16_3 C15_3 1_555 1_555
C17_3 O8_3 1_555 1_555
C18_3 C17_3 1_555 1_555
C19_3 C18_3 1_555 1_555
H7_3 C19_3 1_555 1_555
C20_3 C19_3 1_555 1_555
C21_3 O10_3 1_555 1_555
C22_3 C20_3 1_555 1_555
H8_3 C22_3 1_555 1_555
C23_3 C18_3 1_555 1_555
H9_3 C23_3 1_555 1_555
C24_3 C22_3 1_555 1_555
C32_3 O15_3 1_555 1_555
C33_3 C32_3 1_555 1_555
C34_3 C33_3 1_555 1_555
H13_3 C34_3 1_555 1_555
C35_3 C34_3 1_555 1_555
C36_3 C35_3 1_555 1_555
C37_3 C35_3 1_555 1_555
H14_3 C37_3 1_555 1_555
C38_3 C33_3 1_555 1_555
H15_3 C38_3 1_555 1_555
C39_3 C37_3 1_555 1_555
C40_3 C39_3 1_555 1_555
C41_3 C40_3 1_555 1_555
H16_3 C41_3 1_555 1_555
C42_3 C41_3 1_555 1_555
C43_3 C42_3 1_555 1_555
C44_3 C42_3 1_555 1_555
H17_3 C44_3 1_555 1_555
C45_3 C44_3 1_555 1_555
C46_3 C45_3 1_555 1_555
C47_3 C40_3 1_555 1_555
H18_3 C47_3 1_555 1_555
C48_3 O24_3 1_555 1_555
C49_3 C48_3 1_555 1_555
C55_3 C49_3 1_555 1_555
H21_3 C55_3 1_555 1_555
O30_3 Zn5_3 1_555 1_555
O31_3 Zn6_3 1_555 1_555
O32_3 Zn2_3 1_555 1_555
Zn9_3 O37_3 1_555 1_555
Zn10_3 O60_3 1_555 1_555
Zn11_3 O45_3 1_555 1_555
Zn12_3 O52_3 1_555 1_555
Zn13_3 O6_3 1_555 1_555
Zn14_3 O7_3 1_555 1_555
Zn15_3 O47_3 1_555 1_555
Zn16_3 O59_3 1_555 1_555
O37_3 C65_3 1_555 1_555
O38_3 C69_3 1_555 1_555
O39_3 C69_3 1_555 1_555
O40_3 Zn13_3 1_555 1_555
O41_3 Zn14_3 1_555 1_555
O42_3 C80_3 1_555 1_555
O43_3 C80_3 1_555 1_555
O44_3 Zn9_3 1_555 1_555
O45_3 C81_3 1_555 1_555
O46_3 Zn13_3 1_555 1_555
O47_3 C85_3 1_555 1_555
O51_3 Zn9_3 1_555 1_555
O52_3 C96_3 1_555 1_555
O53_3 C100_3 1_555 1_555
O54_3 C100_3 1_555 1_555
O55_3 C107_3 1_555 1_555
O56_3 C107_3 1_555 1_555
O57_3 C110_3 1_555 1_555
O58_3 C110_3 1_555 1_555
O59_3 Zn13_3 1_555 1_555
O60_3 Zn9_3 1_555 1_555
C65_3 C66_3 1_555 1_555
C66_3 C67_3 1_555 1_555
C67_3 H25_3 1_555 1_555
C68_3 C67_3 1_555 1_555
C69_3 C68_3 1_555 1_555
C70_3 C68_3 1_555 1_555
H26_3 C70_3 1_555 1_555
C71_3 C66_3 1_555 1_555
H27_3 C71_3 1_555 1_555
C72_3 C70_3 1_555 1_555
C73_3 C72_3 1_555 1_555
C74_3 C73_3 1_555 1_555
H28_3 C74_3 1_555 1_555
C75_3 C73_3 1_555 1_555
H29_3 C75_3 1_555 1_555
C76_3 C75_3 1_555 1_555
C77_3 O40_3 1_555 1_555
C78_3 C76_3 1_555 1_555
H30_3 C78_3 1_555 1_555
C79_3 C74_3 1_555 1_555
C80_3 C79_3 1_555 1_555
C81_3 O44_3 1_555 1_555
C82_3 C81_3 1_555 1_555
C83_3 C82_3 1_555 1_555
H31_3 C83_3 1_555 1_555
C84_3 C83_3 1_555 1_555
C85_3 O46_3 1_555 1_555
C86_3 C84_3 1_555 1_555
H32_3 C86_3 1_555 1_555
C87_3 C82_3 1_555 1_555
H33_3 C87_3 1_555 1_555
C88_3 C86_3 1_555 1_555
C96_3 O51_3 1_555 1_555
C97_3 C96_3 1_555 1_555
C98_3 C97_3 1_555 1_555
H37_3 C98_3 1_555 1_555
C99_3 C98_3 1_555 1_555
C100_3 C99_3 1_555 1_555
C101_3 C99_3 1_555 1_555
H38_3 C101_3 1_555 1_555
C102_3 C97_3 1_555 1_555
H39_3 C102_3 1_555 1_555
C103_3 C101_3 1_555 1_555
C104_3 C103_3 1_555 1_555
C105_3 C104_3 1_555 1_555
H40_3 C105_3 1_555 1_555
C106_3 C105_3 1_555 1_555
C107_3 C106_3 1_555 1_555
C108_3 C106_3 1_555 1_555
H41_3 C108_3 1_555 1_555
C109_3 C108_3 1_555 1_555
C110_3 C109_3 1_555 1_555
C111_3 C104_3 1_555 1_555
H42_3 C111_3 1_555 1_555
O62_3 Zn13_3 1_555 1_555
O63_3 Zn14_3 1_555 1_555
O64_3 Zn10_3 1_555 1_555
Zn17_3 O38_3 1_555 1_555
Zn18_3 O2_3 1_555 1_555
Zn19_3 O19_3 1_555 1_555
Zn20_3 O55_3 1_555 1_555
Zn21_3 O39_3 1_555 1_555
Zn22_3 O18_3 1_555 1_555
Zn23_3 O3_3 1_555 1_555
Zn26_3 O17_3 1_555 1_555
Zn27_3 O53_3 1_555 1_555
Zn29_3 O20_3 1_555 1_555
Zn30_3 O56_3 1_555 1_555
Zn32_3 O42_3 1_555 1_555
Zn33_3 O58_3 1_555 1_555
Zn34_3 O22_3 1_555 1_555
Zn35_3 O43_3 1_555 1_555
Zn45_3 O57_3 1_555 1_555
Zn46_3 O21_3 1_555 1_555
O65_3 Zn1_3 1_555 1_555
O66_3 Zn9_3 1_555 1_555
O67_3 Zn2_3 1_555 1_555
O68_3 Zn10_3 1_555 1_555
O69_3 Zn5_3 1_555 1_555
O70_3 Zn6_3 1_555 1_555
O71_3 Zn7_3 1_555 1_555
O72_3 Zn15_3 1_555 1_555
O73_3 Zn14_3 1_555 1_555
O74_3 Zn6_3 1_555 1_555
O75_3 Zn16_3 1_555 1_555
O76_3 Zn8_3 1_555 1_555
O77_3 Zn11_3 1_555 1_555
O78_3 Zn3_3 1_555 1_555
O79_3 Zn10_3 1_555 1_555
O80_3 Zn2_3 1_555 1_555
O81_3 Zn2_3 1_555 1_555
O82_3 Zn10_3 1_555 1_555
O83_3 Zn4_3 1_555 1_555
O84_3 Zn12_3 1_555 1_555
O85_3 Zn8_3 1_555 1_555
O86_3 Zn16_3 1_555 1_555
O87_3 Zn5_3 1_555 1_555
O88_3 Zn13_3 1_555 1_555
O89_3 Zn16_3 1_555 1_555
O90_3 Zn15_3 1_555 1_555
O91_3 Zn3_3 1_555 1_555
O92_3 Zn11_3 1_555 1_555
O93_3 Zn4_3 1_555 1_555
O94_3 Zn12_3 1_555 1_555
O95_3 Zn6_3 1_555 1_555
O96_3 Zn14_3 1_555 1_555
Zn3_3 O28_3 1_555 1_555
Zn4_3 O28_3 1_555 1_555
Zn6_3 O27_3 1_555 1_555
Zn7_3 O27_3 1_555 1_555
Zn8_3 O27_3 1_555 1_555
C1_3 O32_3 1_555 1_555
C7_3 C8_3 1_555 1_555
C14_3 C15_3 1_555 1_555
C20_3 C21_3 1_555 1_555
C23_3 C24_3 1_555 1_555
C38_3 C39_3 1_555 1_555
C45_3 C47_3 1_555 1_555
Zn11_3 O60_3 1_555 1_555
Zn12_3 O60_3 1_555 1_555
Zn14_3 O59_3 1_555 1_555
Zn15_3 O59_3 1_555 1_555
O41_3 C77_3 1_555 1_555
O54_3 Zn23_3 1_555 1_555
C65_3 O64_3 1_555 1_555
C71_3 C72_3 1_555 1_555
C76_3 C77_3 1_555 1_555
C78_3 C79_3 1_555 1_555
C84_3 C85_3 1_555 1_555
C87_3 C88_3 1_555 1_555
C102_3 C103_3 1_555 1_555
C109_3 C111_3 1_555 1_555
O55_4 C107_4 1_555 1_555
O56_4 C107_4 1_555 1_555
O57_4 C110_4 1_555 1_555
O58_4 C110_4 1_555 1_555
C105_4 C104_4 1_555 1_555
H40_4 C105_4 1_555 1_555
C106_4 C105_4 1_555 1_555
C107_4 C106_4 1_555 1_555
C108_4 C106_4 1_555 1_555
H41_4 C108_4 1_555 1_555
C109_4 C108_4 1_555 1_555
C110_4 C109_4 1_555 1_555
C111_4 C104_4 1_555 1_555
H42_4 C111_4 1_555 1_555
Zn20_4 O55_4 1_555 1_555
Zn30_4 O56_4 1_555 1_555
Zn33_4 O58_4 1_555 1_555
Zn45_4 O57_4 1_555 1_555
C109_4 C111_4 1_555 1_555
Zn1_4 O1_4 1_555 1_555
Zn2_4 O28_4 1_555 1_555
Zn3_4 O9_4 1_555 1_555
Zn4_4 O16_4 1_555 1_555
Zn5_4 O4_4 1_555 1_555
Zn6_4 O5_4 1_555 1_555
Zn7_4 O11_4 1_555 1_555
Zn8_4 O23_4 1_555 1_555
O1_4 C1_4 1_555 1_555
O2_4 C5_4 1_555 1_555
O3_4 C5_4 1_555 1_555
O4_4 C13_4 1_555 1_555
O5_4 C13_4 1_555 1_555
O6_4 C16_4 1_555 1_555
O7_4 C16_4 1_555 1_555
O8_4 Zn1_4 1_555 1_555
O9_4 C17_4 1_555 1_555
O10_4 Zn5_4 1_555 1_555
O11_4 C21_4 1_555 1_555
O15_4 Zn1_4 1_555 1_555
O16_4 C32_4 1_555 1_555
O17_4 C36_4 1_555 1_555
O18_4 C36_4 1_555 1_555
O23_4 C48_4 1_555 1_555
O24_4 Zn7_4 1_555 1_555
O25_4 C52_4 1_555 1_555
O26_4 C52_4 1_555 1_555
O27_4 Zn5_4 1_555 1_555
O28_4 Zn1_4 1_555 1_555
C1_4 C2_4 1_555 1_555
C2_4 C3_4 1_555 1_555
C3_4 H1_4 1_555 1_555
C4_4 C3_4 1_555 1_555
C5_4 C4_4 1_555 1_555
C6_4 C4_4 1_555 1_555
H2_4 C6_4 1_555 1_555
C7_4 C2_4 1_555 1_555
H3_4 C7_4 1_555 1_555
C8_4 C6_4 1_555 1_555
C9_4 C8_4 1_555 1_555
C10_4 C9_4 1_555 1_555
H4_4 C10_4 1_555 1_555
C11_4 C9_4 1_555 1_555
H5_4 C11_4 1_555 1_555
C12_4 C11_4 1_555 1_555
C13_4 C12_4 1_555 1_555
C14_4 C12_4 1_555 1_555
H6_4 C14_4 1_555 1_555
C15_4 C10_4 1_555 1_555
C16_4 C15_4 1_555 1_555
C17_4 O8_4 1_555 1_555
C18_4 C17_4 1_555 1_555
C19_4 C18_4 1_555 1_555
H7_4 C19_4 1_555 1_555
C20_4 C19_4 1_555 1_555
C21_4 O10_4 1_555 1_555
C22_4 C20_4 1_555 1_555
H8_4 C22_4 1_555 1_555
C23_4 C18_4 1_555 1_555
H9_4 C23_4 1_555 1_555
C24_4 C22_4 1_555 1_555
C32_4 O15_4 1_555 1_555
C33_4 C32_4 1_555 1_555
C34_4 C33_4 1_555 1_555
H13_4 C34_4 1_555 1_555
C35_4 C34_4 1_555 1_555
C36_4 C35_4 1_555 1_555
C37_4 C35_4 1_555 1_555
H14_4 C37_4 1_555 1_555
C38_4 C33_4 1_555 1_555
H15_4 C38_4 1_555 1_555
C39_4 C37_4 1_555 1_555
C48_4 O24_4 1_555 1_555
C49_4 C48_4 1_555 1_555
C50_4 C49_4 1_555 1_555
H19_4 C50_4 1_555 1_555
C51_4 C50_4 1_555 1_555
C52_4 C51_4 1_555 1_555
C53_4 C51_4 1_555 1_555
H20_4 C53_4 1_555 1_555
C54_4 C53_4 1_555 1_555
C55_4 C49_4 1_555 1_555
H21_4 C55_4 1_555 1_555
O30_4 Zn5_4 1_555 1_555
O31_4 Zn6_4 1_555 1_555
O32_4 Zn2_4 1_555 1_555
Zn9_4 O37_4 1_555 1_555
Zn10_4 O60_4 1_555 1_555
Zn11_4 O45_4 1_555 1_555
Zn12_4 O52_4 1_555 1_555
Zn13_4 O6_4 1_555 1_555
Zn14_4 O7_4 1_555 1_555
Zn15_4 O47_4 1_555 1_555
Zn16_4 O59_4 1_555 1_555
O37_4 C65_4 1_555 1_555
O38_4 C69_4 1_555 1_555
O39_4 C69_4 1_555 1_555
O40_4 Zn13_4 1_555 1_555
O41_4 Zn14_4 1_555 1_555
O42_4 C80_4 1_555 1_555
O43_4 C80_4 1_555 1_555
O44_4 Zn9_4 1_555 1_555
O45_4 C81_4 1_555 1_555
O46_4 Zn13_4 1_555 1_555
O47_4 C85_4 1_555 1_555
O48_4 C112_4 1_555 1_555
O49_4 C94_4 1_555 1_555
O50_4 C94_4 1_555 1_555
O51_4 Zn9_4 1_555 1_555
O52_4 C96_4 1_555 1_555
O53_4 C100_4 1_555 1_555
O54_4 C100_4 1_555 1_555
O59_4 Zn13_4 1_555 1_555
O60_4 Zn9_4 1_555 1_555
C65_4 C66_4 1_555 1_555
C66_4 C67_4 1_555 1_555
C67_4 H25_4 1_555 1_555
C68_4 C67_4 1_555 1_555
C69_4 C68_4 1_555 1_555
C70_4 C68_4 1_555 1_555
H26_4 C70_4 1_555 1_555
C71_4 C66_4 1_555 1_555
H27_4 C71_4 1_555 1_555
C72_4 C70_4 1_555 1_555
C73_4 C72_4 1_555 1_555
C74_4 C73_4 1_555 1_555
H28_4 C74_4 1_555 1_555
C75_4 C73_4 1_555 1_555
H29_4 C75_4 1_555 1_555
C76_4 C75_4 1_555 1_555
C77_4 O40_4 1_555 1_555
C78_4 C76_4 1_555 1_555
H30_4 C78_4 1_555 1_555
C79_4 C74_4 1_555 1_555
C80_4 C79_4 1_555 1_555
C81_4 O44_4 1_555 1_555
C82_4 C81_4 1_555 1_555
C83_4 C82_4 1_555 1_555
H31_4 C83_4 1_555 1_555
C84_4 C83_4 1_555 1_555
C85_4 O46_4 1_555 1_555
C86_4 C84_4 1_555 1_555
H32_4 C86_4 1_555 1_555
C87_4 C82_4 1_555 1_555
H33_4 C87_4 1_555 1_555
C88_4 C86_4 1_555 1_555
C89_4 C88_4 1_555 1_555
C90_4 C89_4 1_555 1_555
H34_4 C90_4 1_555 1_555
C91_4 C90_4 1_555 1_555
O61_4 C112_4 1_555 1_555
C92_4 C91_4 1_555 1_555
H35_4 C92_4 1_555 1_555
C93_4 C92_4 1_555 1_555
C94_4 C93_4 1_555 1_555
C95_4 C89_4 1_555 1_555
H36_4 C95_4 1_555 1_555
C96_4 O51_4 1_555 1_555
C97_4 C96_4 1_555 1_555
C98_4 C97_4 1_555 1_555
H37_4 C98_4 1_555 1_555
C99_4 C98_4 1_555 1_555
C100_4 C99_4 1_555 1_555
C101_4 C99_4 1_555 1_555
H38_4 C101_4 1_555 1_555
C102_4 C97_4 1_555 1_555
H39_4 C102_4 1_555 1_555
C103_4 C101_4 1_555 1_555
O62_4 Zn13_4 1_555 1_555
O63_4 Zn14_4 1_555 1_555
O64_4 Zn10_4 1_555 1_555
C112_4 C91_4 1_555 1_555
Zn17_4 O38_4 1_555 1_555
Zn18_4 O2_4 1_555 1_555
Zn21_4 O39_4 1_555 1_555
Zn22_4 O18_4 1_555 1_555
Zn23_4 O3_4 1_555 1_555
Zn25_4 O25_4 1_555 1_555
Zn26_4 O17_4 1_555 1_555
Zn27_4 O53_4 1_555 1_555
Zn31_4 O26_4 1_555 1_555
Zn32_4 O42_4 1_555 1_555
Zn35_4 O43_4 1_555 1_555
Zn37_2 O61_4 1_555 1_555
Zn39_4 O49_4 1_555 1_555
Zn41_4 O48_4 1_555 1_555
Zn44_4 O50_4 1_555 1_555
O65_4 Zn1_4 1_555 1_555
O66_4 Zn9_4 1_555 1_555
O67_4 Zn2_4 1_555 1_555
O68_4 Zn10_4 1_555 1_555
O69_4 Zn5_4 1_555 1_555
O70_4 Zn6_4 1_555 1_555
O71_4 Zn7_4 1_555 1_555
O72_4 Zn15_4 1_555 1_555
O73_4 Zn14_4 1_555 1_555
O74_4 Zn6_4 1_555 1_555
O75_4 Zn16_4 1_555 1_555
O76_4 Zn8_4 1_555 1_555
O77_4 Zn11_4 1_555 1_555
O78_4 Zn3_4 1_555 1_555
O79_4 Zn10_4 1_555 1_555
O80_4 Zn2_4 1_555 1_555
O81_4 Zn2_4 1_555 1_555
O82_4 Zn10_4 1_555 1_555
O83_4 Zn4_4 1_555 1_555
O84_4 Zn12_4 1_555 1_555
O85_4 Zn8_4 1_555 1_555
O86_4 Zn16_4 1_555 1_555
O87_4 Zn5_4 1_555 1_555
O88_4 Zn13_4 1_555 1_555
O89_4 Zn16_4 1_555 1_555
O90_4 Zn15_4 1_555 1_555
O91_4 Zn3_4 1_555 1_555
O92_4 Zn11_4 1_555 1_555
O93_4 Zn4_4 1_555 1_555
O94_4 Zn12_4 1_555 1_555
O95_4 Zn6_4 1_555 1_555
O96_4 Zn14_4 1_555 1_555
Zn3_4 O28_4 1_555 1_555
Zn4_4 O28_4 1_555 1_555
Zn6_4 O27_4 1_555 1_555
Zn7_4 O27_4 1_555 1_555
Zn8_4 O27_4 1_555 1_555
C1_4 O32_4 1_555 1_555
C7_4 C8_4 1_555 1_555
C14_4 C15_4 1_555 1_555
C20_4 C21_4 1_555 1_555
C23_4 C24_4 1_555 1_555
C38_4 C39_4 1_555 1_555
C54_4 C55_4 1_555 1_555
Zn11_4 O60_4 1_555 1_555
Zn12_4 O60_4 1_555 1_555
Zn14_4 O59_4 1_555 1_555
Zn15_4 O59_4 1_555 1_555
O41_4 C77_4 1_555 1_555
O54_4 Zn23_4 1_555 1_555
C65_4 O64_4 1_555 1_555
C71_4 C72_4 1_555 1_555
C76_4 C77_4 1_555 1_555
C78_4 C79_4 1_555 1_555
C84_4 C85_4 1_555 1_555
C87_4 C88_4 1_555 1_555
C93_4 C95_4 1_555 1_555
C102_4 C103_4 1_555 1_555
O19_4 C43_4 1_555 1_555
O20_4 C43_4 1_555 1_555
O21_4 C46_4 1_555 1_555
O22_4 C46_4 1_555 1_555
C41_4 C40_4 1_555 1_555
H16_4 C41_4 1_555 1_555
C42_4 C41_4 1_555 1_555
C43_4 C42_4 1_555 1_555
C44_4 C42_4 1_555 1_555
H17_4 C44_4 1_555 1_555
C45_4 C44_4 1_555 1_555
C46_4 C45_4 1_555 1_555
C47_4 C40_4 1_555 1_555
H18_4 C47_4 1_555 1_555
Zn19_4 O19_4 1_555 1_555
Zn29_4 O20_4 1_555 1_555
Zn34_4 O22_4 1_555 1_555
Zn46_4 O21_4 1_555 1_555
C45_4 C47_4 1_555 1_555
O12_4 C56_4 1_555 1_555
O13_4 C30_4 1_555 1_555
O14_4 C30_4 1_555 1_555
C26_4 C25_4 1_555 1_555
H10_4 C26_4 1_555 1_555
C27_4 C26_4 1_555 1_555
O29_4 C56_4 1_555 1_555
C28_4 C27_4 1_555 1_555
H11_4 C28_4 1_555 1_555
C29_4 C28_4 1_555 1_555
C30_4 C29_4 1_555 1_555
C31_4 C25_4 1_555 1_555
H12_4 C31_4 1_555 1_555
C56_4 C27_4 1_555 1_555
O33_4 C57_4 1_555 1_555
O34_4 C57_4 1_555 1_555
O35_4 C61_4 1_555 1_555
O36_4 C61_4 1_555 1_555
C57_4 C58_4 1_555 1_555
C58_4 C59_4 1_555 1_555
C59_4 H22_4 1_555 1_555
C60_4 C59_4 1_555 1_555
C61_4 C60_4 1_555 1_555
C62_4 C60_4 1_555 1_555
H23_4 C62_4 1_555 1_555
C64_4 C58_4 1_555 1_555
H24_4 C64_4 1_555 1_555
Zn24_4 O35_4 1_555 1_555
Zn28_4 O36_4 1_555 1_555
Zn36_4 O29_4 1_555 1_555
Zn38_2 O13_4 1_555 1_555
Zn40_4 O12_4 1_555 1_555
Zn42_4 O33_4 1_555 1_555
Zn43_4 O14_4 1_555 1_555
C29_4 C31_4 1_555 1_555
O34_4 Zn40_4 1_555 1_555
C62_4 C63_4 1_555 1_555
C63_4 C64_4 1_555 1_555
O89_4 C48_5 1_555 1_555
C48_5 O90_4 1_555 1_555
C49_5 C48_5 1_555 1_555
C55_5 C49_5 1_555 1_555
H21_5 C55_5 1_555 1_555
O33_5 C57_5 1_555 1_555
O34_5 C57_5 1_555 1_555
C57_5 C58_5 1_555 1_555
C64_5 C58_5 1_555 1_555
H24_5 C64_5 1_555 1_555
Zn9_5 O37_5 1_555 1_555
Zn10_5 O60_5 1_555 1_555
Zn24_2 O45_5 1_555 1_555
Zn28_2 O52_5 1_555 1_555
Zn15_5 O47_5 1_555 1_555
Zn16_5 O59_5 1_555 1_555
O37_5 C65_5 1_555 1_555
O38_5 C69_5 1_555 1_555
O39_5 C69_5 1_555 1_555
O40_5 Zn32_4 1_555 1_555
O41_5 Zn35_4 1_555 1_555
O69_4 C80_5 1_555 1_555
O70_4 C80_5 1_555 1_555
O44_5 Zn9_5 1_555 1_555
O45_5 C81_5 1_555 1_555
O46_5 Zn32_4 1_555 1_555
O47_5 C85_5 1_555 1_555
O48_5 C112_5 1_555 1_555
O49_5 C94_5 1_555 1_555
O50_5 C94_5 1_555 1_555
O51_5 Zn9_5 1_555 1_555
O52_5 C96_5 1_555 1_555
O53_5 C100_5 1_555 1_555
O54_5 C100_5 1_555 1_555
O55_5 C107_5 1_555 1_555
O56_5 C107_5 1_555 1_555
O57_5 C110_5 1_555 1_555
O58_5 C110_5 1_555 1_555
O59_5 Zn32_4 1_555 1_555
O60_5 Zn9_5 1_555 1_555
C65_5 C66_5 1_555 1_555
C66_5 C67_5 1_555 1_555
C67_5 H25_5 1_555 1_555
C68_5 C67_5 1_555 1_555
C69_5 C68_5 1_555 1_555
C70_5 C68_5 1_555 1_555
H26_5 C70_5 1_555 1_555
C71_5 C66_5 1_555 1_555
H27_5 C71_5 1_555 1_555
C72_5 C70_5 1_555 1_555
C73_5 C72_5 1_555 1_555
C74_5 C73_5 1_555 1_555
H28_5 C74_5 1_555 1_555
C75_5 C73_5 1_555 1_555
H29_5 C75_5 1_555 1_555
C76_5 C75_5 1_555 1_555
C77_5 O40_5 1_555 1_555
C78_5 C76_5 1_555 1_555
H30_5 C78_5 1_555 1_555
C79_5 C74_5 1_555 1_555
C80_5 C79_5 1_555 1_555
C81_5 O44_5 1_555 1_555
C82_5 C81_5 1_555 1_555
C83_5 C82_5 1_555 1_555
H31_5 C83_5 1_555 1_555
C84_5 C83_5 1_555 1_555
C85_5 O46_5 1_555 1_555
C86_5 C84_5 1_555 1_555
H32_5 C86_5 1_555 1_555
C87_5 C82_5 1_555 1_555
H33_5 C87_5 1_555 1_555
C88_5 C86_5 1_555 1_555
C89_5 C88_5 1_555 1_555
C90_5 C89_5 1_555 1_555
H34_5 C90_5 1_555 1_555
C91_5 C90_5 1_555 1_555
O61_5 C112_5 1_555 1_555
C92_5 C91_5 1_555 1_555
H35_5 C92_5 1_555 1_555
C93_5 C92_5 1_555 1_555
C94_5 C93_5 1_555 1_555
C95_5 C89_5 1_555 1_555
H36_5 C95_5 1_555 1_555
C96_5 O51_5 1_555 1_555
C97_5 C96_5 1_555 1_555
C98_5 C97_5 1_555 1_555
H37_5 C98_5 1_555 1_555
C99_5 C98_5 1_555 1_555
C100_5 C99_5 1_555 1_555
C101_5 C99_5 1_555 1_555
H38_5 C101_5 1_555 1_555
C102_5 C97_5 1_555 1_555
H39_5 C102_5 1_555 1_555
C103_5 C101_5 1_555 1_555
C104_5 C103_5 1_555 1_555
C105_5 C104_5 1_555 1_555
H40_5 C105_5 1_555 1_555
C106_5 C105_5 1_555 1_555
C107_5 C106_5 1_555 1_555
C108_5 C106_5 1_555 1_555
H41_5 C108_5 1_555 1_555
C109_5 C108_5 1_555 1_555
C110_5 C109_5 1_555 1_555
C111_5 C104_5 1_555 1_555
H42_5 C111_5 1_555 1_555
O62_5 Zn32_4 1_555 1_555
O63_5 Zn35_4 1_555 1_555
O64_5 Zn10_5 1_555 1_555
C112_5 C91_5 1_555 1_555
Zn17_5 O38_5 1_555 1_555
Zn20_5 O55_5 1_555 1_555
Zn22_4 O39_5 1_555 1_555
Zn27_5 O53_5 1_555 1_555
Zn31_2 O56_5 1_555 1_555
Zn33_5 O58_5 1_555 1_555
Zn39 O61_5 1_555 1_555
Zn36_2 O49_5 1_555 1_555
Zn41_5 O48_5 1_555 1_555
Zn43_3 O33_5 1_555 1_555
Zn42_2 O50_5 1_555 1_555
Zn45_5 O57_5 1_555 1_555
O66_5 Zn9_5 1_555 1_555
O68_5 Zn10_5 1_555 1_555
O72_5 Zn15_5 1_555 1_555
O73_5 Zn35_4 1_555 1_555
O75_5 Zn16_5 1_555 1_555
O77_5 Zn24_2 1_555 1_555
O79_5 Zn10_5 1_555 1_555
O82_5 Zn10_5 1_555 1_555
O84_5 Zn28_2 1_555 1_555
O86_5 Zn16_5 1_555 1_555
O88_5 Zn32_4 1_555 1_555
O89_5 Zn16_5 1_555 1_555
O90_5 Zn15_5 1_555 1_555
O96_5 Zn35_4 1_555 1_555
O34_5 Zn41_4 1_555 1_555
Zn24_2 O60_5 1_555 1_555
Zn28_2 O60_5 1_555 1_555
Zn35_4 O59_5 1_555 1_555
Zn15_5 O59_5 1_555 1_555
O41_5 C77_5 1_555 1_555
O54_5 Zn21_4 1_555 1_555
C65_5 O64_5 1_555 1_555
C71_5 C72_5 1_555 1_555
C76_5 C77_5 1_555 1_555
C78_5 C79_5 1_555 1_555
C84_5 C85_5 1_555 1_555
C87_5 C88_5 1_555 1_555
C93_5 C95_5 1_555 1_555
C102_5 C103_5 1_555 1_555
C109_5 C111_5 1_555 1_555
O25_5 C52_5 1_555 1_555
O26_5 C52_5 1_555 1_555
H19_5 C50_5 1_555 1_555
C51_5 C50_5 1_555 1_555
C52_5 C51_5 1_555 1_555
C53_5 C51_5 1_555 1_555
H20_5 C53_5 1_555 1_555
C54_5 C53_5 1_555 1_555
O91_3 C61_5 1_555 1_555
O93_3 C61_5 1_555 1_555
C59_5 H22_5 1_555 1_555
C60_5 C59_5 1_555 1_555
C61_5 C60_5 1_555 1_555
C62_5 C60_5 1_555 1_555
H23_5 C62_5 1_555 1_555
C63_5 C54_5 1_555 1_555
Zn25_5 O25_5 1_555 1_555
Zn29_3 O26_5 1_555 1_555
C62_5 C63_5 1_555 1_555
O89 C48_6 1_555 1_555
O25_6 C52_6 1_555 1_555
O26_6 C52_6 1_555 1_555
C48_6 O90 1_555 1_555
C49_6 C48_6 1_555 1_555
C50_6 C49_6 1_555 1_555
H19_6 C50_6 1_555 1_555
C51_6 C50_6 1_555 1_555
C52_6 C51_6 1_555 1_555
C53_6 C51_6 1_555 1_555
H20_6 C53_6 1_555 1_555
C54_6 C53_6 1_555 1_555
C55_6 C49_6 1_555 1_555
H21_6 C55_6 1_555 1_555
O33_6 C57_6 1_555 1_555
O34_6 C57_6 1_555 1_555
O91_2 C61_6 1_555 1_555
O93_2 C61_6 1_555 1_555
C57_6 C58_6 1_555 1_555
C58_6 C59_6 1_555 1_555
C59_6 H22_6 1_555 1_555
C60_6 C59_6 1_555 1_555
C61_6 C60_6 1_555 1_555
C62_6 C60_6 1_555 1_555
H23_6 C62_6 1_555 1_555
C63_6 C54_6 1_555 1_555
C64_6 C58_6 1_555 1_555
H24_6 C64_6 1_555 1_555
Zn9_6 O37_6 1_555 1_555
Zn10_6 O60_6 1_555 1_555
Zn24_3 O45_6 1_555 1_555
Zn28_3 O52_6 1_555 1_555
Zn15_6 O47_6 1_555 1_555
Zn16_6 O59_6 1_555 1_555
O37_6 C65_6 1_555 1_555
O38_6 C69_6 1_555 1_555
O39_6 C69_6 1_555 1_555
O40_6 Zn32 1_555 1_555
O41_6 Zn35 1_555 1_555
O69 C80_6 1_555 1_555
O70 C80_6 1_555 1_555
O44_6 Zn9_6 1_555 1_555
O45_6 C81_6 1_555 1_555
O46_6 Zn32 1_555 1_555
O47_6 C85_6 1_555 1_555
O51_6 Zn9_6 1_555 1_555
O52_6 C96_6 1_555 1_555
O53_6 C100_6 1_555 1_555
O54_6 C100_6 1_555 1_555
O59_6 Zn32 1_555 1_555
O60_6 Zn9_6 1_555 1_555
C65_6 C66_6 1_555 1_555
C66_6 C67_6 1_555 1_555
C67_6 H25_6 1_555 1_555
C68_6 C67_6 1_555 1_555
C69_6 C68_6 1_555 1_555
C70_6 C68_6 1_555 1_555
H26_6 C70_6 1_555 1_555
C71_6 C66_6 1_555 1_555
H27_6 C71_6 1_555 1_555
C72_6 C70_6 1_555 1_555
C73_6 C72_6 1_555 1_555
C74_6 C73_6 1_555 1_555
H28_6 C74_6 1_555 1_555
C75_6 C73_6 1_555 1_555
H29_6 C75_6 1_555 1_555
C76_6 C75_6 1_555 1_555
C77_6 O40_6 1_555 1_555
C78_6 C76_6 1_555 1_555
H30_6 C78_6 1_555 1_555
C79_6 C74_6 1_555 1_555
C80_6 C79_6 1_555 1_555
C81_6 O44_6 1_555 1_555
C82_6 C81_6 1_555 1_555
C83_6 C82_6 1_555 1_555
H31_6 C83_6 1_555 1_555
C84_6 C83_6 1_555 1_555
C85_6 O46_6 1_555 1_555
C86_6 C84_6 1_555 1_555
H32_6 C86_6 1_555 1_555
C87_6 C82_6 1_555 1_555
H33_6 C87_6 1_555 1_555
C88_6 C86_6 1_555 1_555
C96_6 O51_6 1_555 1_555
C97_6 C96_6 1_555 1_555
C98_6 C97_6 1_555 1_555
H37_6 C98_6 1_555 1_555
C99_6 C98_6 1_555 1_555
C100_6 C99_6 1_555 1_555
C101_6 C99_6 1_555 1_555
H38_6 C101_6 1_555 1_555
C102_6 C97_6 1_555 1_555
H39_6 C102_6 1_555 1_555
C103_6 C101_6 1_555 1_555
O62_6 Zn32 1_555 1_555
O63_6 Zn35 1_555 1_555
O64_6 Zn10_6 1_555 1_555
Zn17_6 O38_6 1_555 1_555
Zn22 O39_6 1_555 1_555
Zn25_6 O25_6 1_555 1_555
Zn27_6 O53_6 1_555 1_555
Zn29_2 O26_6 1_555 1_555
Zn43_2 O33_6 1_555 1_555
O66_6 Zn9_6 1_555 1_555
O68_6 Zn10_6 1_555 1_555
O72_6 Zn15_6 1_555 1_555
O73_6 Zn35 1_555 1_555
O75_6 Zn16_6 1_555 1_555
O77_6 Zn24_3 1_555 1_555
O79_6 Zn10_6 1_555 1_555
O82_6 Zn10_6 1_555 1_555
O84_6 Zn28_3 1_555 1_555
O86_6 Zn16_6 1_555 1_555
O88_6 Zn32 1_555 1_555
O89_6 Zn16_6 1_555 1_555
O90_6 Zn15_6 1_555 1_555
O96_6 Zn35 1_555 1_555
C54_6 C55_6 1_555 1_555
O34_6 Zn41 1_555 1_555
C62_6 C63_6 1_555 1_555
C63_6 C64_6 1_555 1_555
Zn24_3 O60_6 1_555 1_555
Zn28_3 O60_6 1_555 1_555
Zn35 O59_6 1_555 1_555
Zn15_6 O59_6 1_555 1_555
O41_6 C77_6 1_555 1_555
O54_6 Zn21 1_555 1_555
C65_6 O64_6 1_555 1_555
C71_6 C72_6 1_555 1_555
C76_6 C77_6 1_555 1_555
C78_6 C79_6 1_555 1_555
C84_6 C85_6 1_555 1_555
C87_6 C88_6 1_555 1_555
C102_6 C103_6 1_555 1_555
O55_6 C107_6 1_555 1_555
O56_6 C107_6 1_555 1_555
O57_6 C110_6 1_555 1_555
O58_6 C110_6 1_555 1_555
C105_6 C104_6 1_555 1_555
H40_6 C105_6 1_555 1_555
C106_6 C105_6 1_555 1_555
C107_6 C106_6 1_555 1_555
C108_6 C106_6 1_555 1_555
H41_6 C108_6 1_555 1_555
C109_6 C108_6 1_555 1_555
C110_6 C109_6 1_555 1_555
C111_6 C104_6 1_555 1_555
H42_6 C111_6 1_555 1_555
Zn20_6 O55_6 1_555 1_555
Zn31_3 O56_6 1_555 1_555
Zn33_6 O58_6 1_555 1_555
Zn45_6 O57_6 1_555 1_555
C109_6 C111_6 1_555 1_555
O48_6 C112_6 1_555 1_555
O49_6 C94_6 1_555 1_555
O50_6 C94_6 1_555 1_555
C90_6 C89_6 1_555 1_555
H34_6 C90_6 1_555 1_555
C91_6 C90_6 1_555 1_555
O61_6 C112_6 1_555 1_555
C92_6 C91_6 1_555 1_555
H35_6 C92_6 1_555 1_555
C93_6 C92_6 1_555 1_555
C94_6 C93_6 1_555 1_555
C95_6 C89_6 1_555 1_555
H36_6 C95_6 1_555 1_555
C112_6 C91_6 1_555 1_555
Zn39_4 O61_6 1_555 1_555
Zn36_3 O49_6 1_555 1_555
Zn41_6 O48_6 1_555 1_555
Zn42_3 O50_6 1_555 1_555
C93_6 C95_6 1_555 1_555
O48_7 C112_7 1_555 1_555
O49_7 C94_7 1_555 1_555
O50_7 C94_7 1_555 1_555
C90_7 C89_7 1_555 1_555
H34_7 C90_7 1_555 1_555
C91_7 C90_7 1_555 1_555
O61_7 C112_7 1_555 1_555
C92_7 C91_7 1_555 1_555
H35_7 C92_7 1_555 1_555
C93_7 C92_7 1_555 1_555
C94_7 C93_7 1_555 1_555
C95_7 C89_7 1_555 1_555
H36_7 C95_7 1_555 1_555
C112_7 C91_7 1_555 1_555
Zn39_2 O61_7 1_555 1_555
Zn36 O49_7 1_555 1_555
Zn41_7 O48_7 1_555 1_555
Zn42 O50_7 1_555 1_555
C93_7 C95_7 1_555 1_555
O91_4 C61_7 1_555 1_555
O93_4 C61_7 1_555 1_555
C59_7 H22_7 1_555 1_555
C60_7 C59_7 1_555 1_555
C61_7 C60_7 1_555 1_555
C62_7 C60_7 1_555 1_555
H23_7 C62_7 1_555 1_555
C62_7 C63_7 1_555 1_555
O25_7 C52_7 1_555 1_555
O26_7 C52_7 1_555 1_555
H19_7 C50_7 1_555 1_555
C51_7 C50_7 1_555 1_555
C52_7 C51_7 1_555 1_555
C53_7 C51_7 1_555 1_555
H20_7 C53_7 1_555 1_555
C54_7 C53_7 1_555 1_555
Zn25_7 O25_7 1_555 1_555
Zn29_4 O26_7 1_555 1_555
O33_7 C57_7 1_555 1_555
O34_7 C57_7 1_555 1_555
C57_7 C58_7 1_555 1_555
C64_7 C58_7 1_555 1_555
H24_7 C64_7 1_555 1_555
Zn43_4 O33_7 1_555 1_555
O34_7 Zn41_3 1_555 1_555
O89_3 C48_7 1_555 1_555
C48_7 O90_3 1_555 1_555
C49_7 C48_7 1_555 1_555
C55_7 C49_7 1_555 1_555
H21_7 C55_7 1_555 1_555
Zn9_7 O37_7 1_555 1_555
Zn10_7 O60_7 1_555 1_555
Zn24 O45_7 1_555 1_555
Zn28 O52_7 1_555 1_555
Zn15_7 O47_7 1_555 1_555
Zn16_7 O59_7 1_555 1_555
O37_7 C65_7 1_555 1_555
O38_7 C69_7 1_555 1_555
O39_7 C69_7 1_555 1_555
O40_7 Zn32_3 1_555 1_555
O41_7 Zn35_3 1_555 1_555
O69_3 C80_7 1_555 1_555
O70_3 C80_7 1_555 1_555
O44_7 Zn9_7 1_555 1_555
O45_7 C81_7 1_555 1_555
O46_7 Zn32_3 1_555 1_555
O47_7 C85_7 1_555 1_555
O51_7 Zn9_7 1_555 1_555
O52_7 C96_7 1_555 1_555
O53_7 C100_7 1_555 1_555
O54_7 C100_7 1_555 1_555
O55_7 C107_7 1_555 1_555
O56_7 C107_7 1_555 1_555
O57_7 C110_7 1_555 1_555
O58_7 C110_7 1_555 1_555
O59_7 Zn32_3 1_555 1_555
O60_7 Zn9_7 1_555 1_555
C65_7 C66_7 1_555 1_555
C66_7 C67_7 1_555 1_555
C67_7 H25_7 1_555 1_555
C68_7 C67_7 1_555 1_555
C69_7 C68_7 1_555 1_555
C70_7 C68_7 1_555 1_555
H26_7 C70_7 1_555 1_555
C71_7 C66_7 1_555 1_555
H27_7 C71_7 1_555 1_555
C72_7 C70_7 1_555 1_555
C73_7 C72_7 1_555 1_555
C74_7 C73_7 1_555 1_555
H28_7 C74_7 1_555 1_555
C75_7 C73_7 1_555 1_555
H29_7 C75_7 1_555 1_555
C76_7 C75_7 1_555 1_555
C77_7 O40_7 1_555 1_555
C78_7 C76_7 1_555 1_555
H30_7 C78_7 1_555 1_555
C79_7 C74_7 1_555 1_555
C80_7 C79_7 1_555 1_555
C81_7 O44_7 1_555 1_555
C82_7 C81_7 1_555 1_555
C83_7 C82_7 1_555 1_555
H31_7 C83_7 1_555 1_555
C84_7 C83_7 1_555 1_555
C85_7 O46_7 1_555 1_555
C86_7 C84_7 1_555 1_555
H32_7 C86_7 1_555 1_555
C87_7 C82_7 1_555 1_555
H33_7 C87_7 1_555 1_555
C88_7 C86_7 1_555 1_555
C96_7 O51_7 1_555 1_555
C97_7 C96_7 1_555 1_555
C98_7 C97_7 1_555 1_555
H37_7 C98_7 1_555 1_555
C99_7 C98_7 1_555 1_555
C100_7 C99_7 1_555 1_555
C101_7 C99_7 1_555 1_555
H38_7 C101_7 1_555 1_555
C102_7 C97_7 1_555 1_555
H39_7 C102_7 1_555 1_555
C103_7 C101_7 1_555 1_555
C104_7 C103_7 1_555 1_555
C105_7 C104_7 1_555 1_555
H40_7 C105_7 1_555 1_555
C106_7 C105_7 1_555 1_555
C107_7 C106_7 1_555 1_555
C108_7 C106_7 1_555 1_555
H41_7 C108_7 1_555 1_555
C109_7 C108_7 1_555 1_555
C110_7 C109_7 1_555 1_555
C111_7 C104_7 1_555 1_555
H42_7 C111_7 1_555 1_555
O62_7 Zn32_3 1_555 1_555
O63_7 Zn35_3 1_555 1_555
O64_7 Zn10_7 1_555 1_555
Zn17_7 O38_7 1_555 1_555
Zn20_7 O55_7 1_555 1_555
Zn22_3 O39_7 1_555 1_555
Zn27_7 O53_7 1_555 1_555
Zn31 O56_7 1_555 1_555
Zn33_7 O58_7 1_555 1_555
Zn45_7 O57_7 1_555 1_555
O66_7 Zn9_7 1_555 1_555
O68_7 Zn10_7 1_555 1_555
O72_7 Zn15_7 1_555 1_555
O73_7 Zn35_3 1_555 1_555
O75_7 Zn16_7 1_555 1_555
O77_7 Zn24 1_555 1_555
O79_7 Zn10_7 1_555 1_555
O82_7 Zn10_7 1_555 1_555
O84_7 Zn28 1_555 1_555
O86_7 Zn16_7 1_555 1_555
O88_7 Zn32_3 1_555 1_555
O89_7 Zn16_7 1_555 1_555
O90_7 Zn15_7 1_555 1_555
O96_7 Zn35_3 1_555 1_555
Zn24 O60_7 1_555 1_555
Zn28 O60_7 1_555 1_555
Zn35_3 O59_7 1_555 1_555
Zn15_7 O59_7 1_555 1_555
O41_7 C77_7 1_555 1_555
O54_7 Zn21_3 1_555 1_555
C65_7 O64_7 1_555 1_555
C71_7 C72_7 1_555 1_555
C76_7 C77_7 1_555 1_555
C78_7 C79_7 1_555 1_555
C84_7 C85_7 1_555 1_555
C87_7 C88_7 1_555 1_555
C102_7 C103_7 1_555 1_555
C109_7 C111_7 1_555 1_555
O55_8 C107_8 1_555 1_555
O56_8 C107_8 1_555 1_555
O57_8 C110_8 1_555 1_555
O58_8 C110_8 1_555 1_555
C105_8 C104_8 1_555 1_555
H40_8 C105_8 1_555 1_555
C106_8 C105_8 1_555 1_555
C107_8 C106_8 1_555 1_555
C108_8 C106_8 1_555 1_555
H41_8 C108_8 1_555 1_555
C109_8 C108_8 1_555 1_555
C110_8 C109_8 1_555 1_555
C111_8 C104_8 1_555 1_555
H42_8 C111_8 1_555 1_555
Zn20_8 O55_8 1_555 1_555
Zn31_4 O56_8 1_555 1_555
Zn33_8 O58_8 1_555 1_555
Zn45_8 O57_8 1_555 1_555
C109_8 C111_8 1_555 1_555
O89_2 C48_8 1_555 1_555
O25_8 C52_8 1_555 1_555
O26_8 C52_8 1_555 1_555
C48_8 O90_2 1_555 1_555
C49_8 C48_8 1_555 1_555
C50_8 C49_8 1_555 1_555
H19_8 C50_8 1_555 1_555
C51_8 C50_8 1_555 1_555
C52_8 C51_8 1_555 1_555
C53_8 C51_8 1_555 1_555
H20_8 C53_8 1_555 1_555
C54_8 C53_8 1_555 1_555
C55_8 C49_8 1_555 1_555
H21_8 C55_8 1_555 1_555
Zn9_8 O37_8 1_555 1_555
Zn10_8 O60_8 1_555 1_555
Zn24_4 O45_8 1_555 1_555
Zn28_4 O52_8 1_555 1_555
Zn15_8 O47_8 1_555 1_555
Zn16_8 O59_8 1_555 1_555
O37_8 C65_8 1_555 1_555
O38_8 C69_8 1_555 1_555
O39_8 C69_8 1_555 1_555
O40_8 Zn32_2 1_555 1_555
O41_8 Zn35_2 1_555 1_555
O69_2 C80_8 1_555 1_555
O70_2 C80_8 1_555 1_555
O44_8 Zn9_8 1_555 1_555
O45_8 C81_8 1_555 1_555
O46_8 Zn32_2 1_555 1_555
O47_8 C85_8 1_555 1_555
O48_8 C112_8 1_555 1_555
O49_8 C94_8 1_555 1_555
O50_8 C94_8 1_555 1_555
O51_8 Zn9_8 1_555 1_555
O52_8 C96_8 1_555 1_555
O53_8 C100_8 1_555 1_555
O54_8 C100_8 1_555 1_555
O59_8 Zn32_2 1_555 1_555
O60_8 Zn9_8 1_555 1_555
C65_8 C66_8 1_555 1_555
C66_8 C67_8 1_555 1_555
C67_8 H25_8 1_555 1_555
C68_8 C67_8 1_555 1_555
C69_8 C68_8 1_555 1_555
C70_8 C68_8 1_555 1_555
H26_8 C70_8 1_555 1_555
C71_8 C66_8 1_555 1_555
H27_8 C71_8 1_555 1_555
C72_8 C70_8 1_555 1_555
C73_8 C72_8 1_555 1_555
C74_8 C73_8 1_555 1_555
H28_8 C74_8 1_555 1_555
C75_8 C73_8 1_555 1_555
H29_8 C75_8 1_555 1_555
C76_8 C75_8 1_555 1_555
C77_8 O40_8 1_555 1_555
C78_8 C76_8 1_555 1_555
H30_8 C78_8 1_555 1_555
C79_8 C74_8 1_555 1_555
C80_8 C79_8 1_555 1_555
C81_8 O44_8 1_555 1_555
C82_8 C81_8 1_555 1_555
C83_8 C82_8 1_555 1_555
H31_8 C83_8 1_555 1_555
C84_8 C83_8 1_555 1_555
C85_8 O46_8 1_555 1_555
C86_8 C84_8 1_555 1_555
H32_8 C86_8 1_555 1_555
C87_8 C82_8 1_555 1_555
H33_8 C87_8 1_555 1_555
C88_8 C86_8 1_555 1_555
C89_8 C88_8 1_555 1_555
C90_8 C89_8 1_555 1_555
H34_8 C90_8 1_555 1_555
C91_8 C90_8 1_555 1_555
O61_8 C112_8 1_555 1_555
C92_8 C91_8 1_555 1_555
H35_8 C92_8 1_555 1_555
C93_8 C92_8 1_555 1_555
C94_8 C93_8 1_555 1_555
C95_8 C89_8 1_555 1_555
H36_8 C95_8 1_555 1_555
C96_8 O51_8 1_555 1_555
C97_8 C96_8 1_555 1_555
C98_8 C97_8 1_555 1_555
H37_8 C98_8 1_555 1_555
C99_8 C98_8 1_555 1_555
C100_8 C99_8 1_555 1_555
C101_8 C99_8 1_555 1_555
H38_8 C101_8 1_555 1_555
C102_8 C97_8 1_555 1_555
H39_8 C102_8 1_555 1_555
C103_8 C101_8 1_555 1_555
O62_8 Zn32_2 1_555 1_555
O63_8 Zn35_2 1_555 1_555
O64_8 Zn10_8 1_555 1_555
C112_8 C91_8 1_555 1_555
Zn17_8 O38_8 1_555 1_555
Zn22_2 O39_8 1_555 1_555
Zn25_8 O25_8 1_555 1_555
Zn27_8 O53_8 1_555 1_555
Zn29 O26_8 1_555 1_555
Zn39_3 O61_8 1_555 1_555
Zn36_4 O49_8 1_555 1_555
Zn41_8 O48_8 1_555 1_555
Zn42_4 O50_8 1_555 1_555
O66_8 Zn9_8 1_555 1_555
O68_8 Zn10_8 1_555 1_555
O72_8 Zn15_8 1_555 1_555
O73_8 Zn35_2 1_555 1_555
O75_8 Zn16_8 1_555 1_555
O77_8 Zn24_4 1_555 1_555
O79_8 Zn10_8 1_555 1_555
O82_8 Zn10_8 1_555 1_555
O84_8 Zn28_4 1_555 1_555
O86_8 Zn16_8 1_555 1_555
O88_8 Zn32_2 1_555 1_555
O89_8 Zn16_8 1_555 1_555
O90_8 Zn15_8 1_555 1_555
O96_8 Zn35_2 1_555 1_555
C54_8 C55_8 1_555 1_555
Zn24_4 O60_8 1_555 1_555
Zn28_4 O60_8 1_555 1_555
Zn35_2 O59_8 1_555 1_555
Zn15_8 O59_8 1_555 1_555
O41_8 C77_8 1_555 1_555
O54_8 Zn21_2 1_555 1_555
C65_8 O64_8 1_555 1_555
C71_8 C72_8 1_555 1_555
C76_8 C77_8 1_555 1_555
C78_8 C79_8 1_555 1_555
C84_8 C85_8 1_555 1_555
C87_8 C88_8 1_555 1_555
C93_8 C95_8 1_555 1_555
C102_8 C103_8 1_555 1_555
O33_8 C57_8 1_555 1_555
O34_8 C57_8 1_555 1_555
O91 C61_8 1_555 1_555
O93 C61_8 1_555 1_555
C57_8 C58_8 1_555 1_555
C58_8 C59_8 1_555 1_555
C59_8 H22_8 1_555 1_555
C60_8 C59_8 1_555 1_555
C61_8 C60_8 1_555 1_555
C62_8 C60_8 1_555 1_555
H23_8 C62_8 1_555 1_555
C64_8 C58_8 1_555 1_555
H24_8 C64_8 1_555 1_555
Zn43 O33_8 1_555 1_555
O34_8 Zn41_2 1_555 1_555
C62_8 C63_8 1_555 1_555
C63_8 C64_8 1_555 1_555
O89_8 C48_9 1_555 1_555
C48_9 O90_8 1_555 1_555
C49_9 C48_9 1_555 1_555
C55_9 C49_9 1_555 1_555
H21_9 C55_9 1_555 1_555
O33_9 C57_9 1_555 1_555
O34_9 C57_9 1_555 1_555
C57_9 C58_9 1_555 1_555
C64_9 C58_9 1_555 1_555
H24_9 C64_9 1_555 1_555
Zn44_3 O33_9 1_555 1_555
O34_9 Zn41_8 1_555 1_555
O25_9 C52_9 1_555 1_555
O26_9 C52_9 1_555 1_555
H19_9 C50_9 1_555 1_555
C51_9 C50_9 1_555 1_555
C52_9 C51_9 1_555 1_555
C53_9 C51_9 1_555 1_555
H20_9 C53_9 1_555 1_555
C54_9 C53_9 1_555 1_555
O92_3 C61_9 1_555 1_555
O94_3 C61_9 1_555 1_555
C59_9 H22_9 1_555 1_555
C60_9 C59_9 1_555 1_555
C61_9 C60_9 1_555 1_555
C62_9 C60_9 1_555 1_555
H23_9 C62_9 1_555 1_555
C63_9 C54_9 1_555 1_555
Zn25_9 O25_9 1_555 1_555
Zn30_3 O26_9 1_555 1_555
C62_9 C63_9 1_555 1_555
O89_5 C48_10 1_555 1_555
O25_10 C52_10 1_555 1_555
O26_10 C52_10 1_555 1_555
C48_10 O90_5 1_555 1_555
C49_10 C48_10 1_555 1_555
C50_10 C49_10 1_555 1_555
H19_10 C50_10 1_555 1_555
C51_10 C50_10 1_555 1_555
C52_10 C51_10 1_555 1_555
C53_10 C51_10 1_555 1_555
H20_10 C53_10 1_555 1_555
C54_10 C53_10 1_555 1_555
C55_10 C49_10 1_555 1_555
H21_10 C55_10 1_555 1_555
O33_10 C57_10 1_555 1_555
O34_10 C57_10 1_555 1_555
O92 C61_10 1_555 1_555
O94 C61_10 1_555 1_555
C57_10 C58_10 1_555 1_555
C58_10 C59_10 1_555 1_555
C59_10 H22_10 1_555 1_555
C60_10 C59_10 1_555 1_555
C61_10 C60_10 1_555 1_555
C62_10 C60_10 1_555 1_555
H23_10 C62_10 1_555 1_555
C63_10 C54_10 1_555 1_555
C64_10 C58_10 1_555 1_555
H24_10 C64_10 1_555 1_555
Zn25_10 O25_10 1_555 1_555
Zn30 O26_10 1_555 1_555
Zn44 O33_10 1_555 1_555
C54_10 C55_10 1_555 1_555
O34_10 Zn41_5 1_555 1_555
C62_10 C63_10 1_555 1_555
C63_10 C64_10 1_555 1_555
O92_2 C61_11 1_555 1_555
O94_2 C61_11 1_555 1_555
C59_11 H22_11 1_555 1_555
C60_11 C59_11 1_555 1_555
C61_11 C60_11 1_555 1_555
C62_11 C60_11 1_555 1_555
H23_11 C62_11 1_555 1_555
C62_11 C63_11 1_555 1_555
O33_11 C57_11 1_555 1_555
O34_11 C57_11 1_555 1_555
C57_11 C58_11 1_555 1_555
C64_11 C58_11 1_555 1_555
H24_11 C64_11 1_555 1_555
Zn44_2 O33_11 1_555 1_555
O34_11 Zn41_7 1_555 1_555
O25_11 C52_11 1_555 1_555
O26_11 C52_11 1_555 1_555
H19_11 C50_11 1_555 1_555
C51_11 C50_11 1_555 1_555
C52_11 C51_11 1_555 1_555
C53_11 C51_11 1_555 1_555
H20_11 C53_11 1_555 1_555
C54_11 C53_11 1_555 1_555
Zn25_11 O25_11 1_555 1_555
Zn30_2 O26_11 1_555 1_555
O89_7 C48_11 1_555 1_555
C48_11 O90_7 1_555 1_555
C49_11 C48_11 1_555 1_555
C55_11 C49_11 1_555 1_555
H21_11 C55_11 1_555 1_555
O89_6 C48_12 1_555 1_555
O25_12 C52_12 1_555 1_555
O26_12 C52_12 1_555 1_555
C48_12 O90_6 1_555 1_555
C49_12 C48_12 1_555 1_555
C50_12 C49_12 1_555 1_555
H19_12 C50_12 1_555 1_555
C51_12 C50_12 1_555 1_555
C52_12 C51_12 1_555 1_555
C53_12 C51_12 1_555 1_555
H20_12 C53_12 1_555 1_555
C54_12 C53_12 1_555 1_555
C55_12 C49_12 1_555 1_555
H21_12 C55_12 1_555 1_555
Zn25_12 O25_12 1_555 1_555
Zn30_4 O26_12 1_555 1_555
C54_12 C55_12 1_555 1_555
O33_12 C57_12 1_555 1_555
O34_12 C57_12 1_555 1_555
O92_4 C61_12 1_555 1_555
O94_4 C61_12 1_555 1_555
C57_12 C58_12 1_555 1_555
C58_12 C59_12 1_555 1_555
C59_12 H22_12 1_555 1_555
C60_12 C59_12 1_555 1_555
C61_12 C60_12 1_555 1_555
C62_12 C60_12 1_555 1_555
H23_12 C62_12 1_555 1_555
C64_12 C58_12 1_555 1_555
H24_12 C64_12 1_555 1_555
Zn44_4 O33_12 1_555 1_555
O34_12 Zn41_6 1_555 1_555
C62_12 C63_12 1_555 1_555
C63_12 C64_12 1_555 1_555
O82_2 C107_9 1_555 1_555
O84_2 C107_9 1_555 1_555
O57_9 C110_9 1_555 1_555
O58_9 C110_9 1_555 1_555
C105_9 C104_9 1_555 1_555
H40_9 C105_9 1_555 1_555
C106_9 C105_9 1_555 1_555
C107_9 C106_9 1_555 1_555
C108_9 C106_9 1_555 1_555
H41_9 C108_9 1_555 1_555
C109_9 C108_9 1_555 1_555
C110_9 C109_9 1_555 1_555
C111_9 C104_9 1_555 1_555
H42_9 C111_9 1_555 1_555
Zn33_9 O58_9 1_555 1_555
Zn45_9 O57_9 1_555 1_555
C109_9 C111_9 1_555 1_555
O71_4 C56_5 1_555 1_555
O73_4 C30_5 1_555 1_555
O75_4 C30_5 1_555 1_555
C26_5 C25_5 1_555 1_555
H10_5 C26_5 1_555 1_555
C27_5 C26_5 1_555 1_555
O95_4 C56_5 1_555 1_555
C28_5 C27_5 1_555 1_555
H11_5 C28_5 1_555 1_555
C29_5 C28_5 1_555 1_555
C30_5 C29_5 1_555 1_555
C31_5 C25_5 1_555 1_555
H12_5 C31_5 1_555 1_555
C56_5 C27_5 1_555 1_555
C29_5 C31_5 1_555 1_555
Zn1_5 O1_5 1_555 1_555
Zn19_3 O28_5 1_555 1_555
Zn25_5 O9_5 1_555 1_555
Zn29_3 O16_5 1_555 1_555
Zn5_5 O4_5 1_555 1_555
Zn36_4 O5_5 1_555 1_555
Zn40_4 O11_5 1_555 1_555
O1_5 C1_5 1_555 1_555
O2_5 C5_5 1_555 1_555
O3_5 C5_5 1_555 1_555
O4_5 C13_5 1_555 1_555
O5_5 C13_5 1_555 1_555
O6_5 C16_5 1_555 1_555
O7_5 C16_5 1_555 1_555
O8_5 Zn1_5 1_555 1_555
O9_5 C17_5 1_555 1_555
O10_5 Zn5_5 1_555 1_555
O11_5 C21_5 1_555 1_555
O15_5 Zn1_5 1_555 1_555
O16_5 C32_5 1_555 1_555
O17_5 C36_5 1_555 1_555
O18_5 C36_5 1_555 1_555
O81_3 C43_5 1_555 1_555
O83_3 C43_5 1_555 1_555
O21_5 C46_5 1_555 1_555
O22_5 C46_5 1_555 1_555
O27_5 Zn5_5 1_555 1_555
O28_5 Zn1_5 1_555 1_555
C1_5 C2_5 1_555 1_555
C2_5 C3_5 1_555 1_555
C3_5 H1_5 1_555 1_555
C4_5 C3_5 1_555 1_555
C5_5 C4_5 1_555 1_555
C6_5 C4_5 1_555 1_555
H2_5 C6_5 1_555 1_555
C7_5 C2_5 1_555 1_555
H3_5 C7_5 1_555 1_555
C8_5 C6_5 1_555 1_555
C9_5 C8_5 1_555 1_555
C10_5 C9_5 1_555 1_555
H4_5 C10_5 1_555 1_555
C11_5 C9_5 1_555 1_555
H5_5 C11_5 1_555 1_555
C12_5 C11_5 1_555 1_555
C13_5 C12_5 1_555 1_555
C14_5 C12_5 1_555 1_555
H6_5 C14_5 1_555 1_555
C15_5 C10_5 1_555 1_555
C16_5 C15_5 1_555 1_555
C17_5 O8_5 1_555 1_555
C18_5 C17_5 1_555 1_555
C19_5 C18_5 1_555 1_555
H7_5 C19_5 1_555 1_555
C20_5 C19_5 1_555 1_555
C21_5 O10_5 1_555 1_555
C22_5 C20_5 1_555 1_555
H8_5 C22_5 1_555 1_555
C23_5 C18_5 1_555 1_555
H9_5 C23_5 1_555 1_555
C24_5 C22_5 1_555 1_555
C32_5 O15_5 1_555 1_555
C33_5 C32_5 1_555 1_555
C34_5 C33_5 1_555 1_555
H13_5 C34_5 1_555 1_555
C35_5 C34_5 1_555 1_555
C36_5 C35_5 1_555 1_555
C37_5 C35_5 1_555 1_555
H14_5 C37_5 1_555 1_555
C38_5 C33_5 1_555 1_555
H15_5 C38_5 1_555 1_555
C39_5 C37_5 1_555 1_555
C40_5 C39_5 1_555 1_555
C41_5 C40_5 1_555 1_555
H16_5 C41_5 1_555 1_555
C42_5 C41_5 1_555 1_555
C43_5 C42_5 1_555 1_555
C44_5 C42_5 1_555 1_555
H17_5 C44_5 1_555 1_555
C45_5 C44_5 1_555 1_555
C46_5 C45_5 1_555 1_555
C47_5 C40_5 1_555 1_555
H18_5 C47_5 1_555 1_555
O30_5 Zn5_5 1_555 1_555
O31_5 Zn36_4 1_555 1_555
O32_5 Zn19_3 1_555 1_555
Zn9_9 O37_9 1_555 1_555
Zn20_2 O60_9 1_555 1_555
Zn25_11 O45_9 1_555 1_555
Zn30_2 O52_9 1_555 1_555
Zn13_5 O6_5 1_555 1_555
Zn38_2 O7_5 1_555 1_555
Zn41_3 O47_9 1_555 1_555
Zn43_4 O59_9 1_555 1_555
O37_9 C65_9 1_555 1_555
O38_9 C69_9 1_555 1_555
O39_9 C69_9 1_555 1_555
O40_9 Zn13_5 1_555 1_555
O41_9 Zn38_2 1_555 1_555
O42_5 C80_9 1_555 1_555
O43_5 C80_9 1_555 1_555
O44_9 Zn9_9 1_555 1_555
O45_9 C81_9 1_555 1_555
O46_9 Zn13_5 1_555 1_555
O47_9 C85_9 1_555 1_555
O51_9 Zn9_9 1_555 1_555
O52_9 C96_9 1_555 1_555
O53_9 C100_9 1_555 1_555
O54_9 C100_9 1_555 1_555
O59_9 Zn13_5 1_555 1_555
O60_9 Zn9_9 1_555 1_555
C65_9 C66_9 1_555 1_555
C66_9 C67_9 1_555 1_555
C67_9 H25_9 1_555 1_555
C68_9 C67_9 1_555 1_555
C69_9 C68_9 1_555 1_555
C70_9 C68_9 1_555 1_555
H26_9 C70_9 1_555 1_555
C71_9 C66_9 1_555 1_555
H27_9 C71_9 1_555 1_555
C72_9 C70_9 1_555 1_555
C73_9 C72_9 1_555 1_555
C74_9 C73_9 1_555 1_555
H28_9 C74_9 1_555 1_555
C75_9 C73_9 1_555 1_555
H29_9 C75_9 1_555 1_555
C76_9 C75_9 1_555 1_555
C77_9 O40_9 1_555 1_555
C78_9 C76_9 1_555 1_555
H30_9 C78_9 1_555 1_555
C79_9 C74_9 1_555 1_555
C80_9 C79_9 1_555 1_555
C81_9 O44_9 1_555 1_555
C82_9 C81_9 1_555 1_555
C83_9 C82_9 1_555 1_555
H31_9 C83_9 1_555 1_555
C84_9 C83_9 1_555 1_555
C85_9 O46_9 1_555 1_555
C86_9 C84_9 1_555 1_555
H32_9 C86_9 1_555 1_555
C87_9 C82_9 1_555 1_555
H33_9 C87_9 1_555 1_555
C88_9 C86_9 1_555 1_555
C96_9 O51_9 1_555 1_555
C97_9 C96_9 1_555 1_555
C98_9 C97_9 1_555 1_555
H37_9 C98_9 1_555 1_555
C99_9 C98_9 1_555 1_555
C100_9 C99_9 1_555 1_555
C101_9 C99_9 1_555 1_555
H38_9 C101_9 1_555 1_555
C102_9 C97_9 1_555 1_555
H39_9 C102_9 1_555 1_555
C103_9 C101_9 1_555 1_555
O62_9 Zn13_5 1_555 1_555
O63_9 Zn38_2 1_555 1_555
O64_9 Zn20_2 1_555 1_555
Zn17_9 O38_9 1_555 1_555
Zn18_5 O2_5 1_555 1_555
Zn21_5 O39_9 1_555 1_555
Zn22_5 O18_5 1_555 1_555
Zn23_5 O3_5 1_555 1_555
Zn26_5 O17_5 1_555 1_555
Zn27_9 O53_9 1_555 1_555
Zn32_5 O42_5 1_555 1_555
Zn34_5 O22_5 1_555 1_555
Zn39_3 O43_5 1_555 1_555
Zn46_5 O21_5 1_555 1_555
O65_5 Zn1_5 1_555 1_555
O66_9 Zn9_9 1_555 1_555
O67_5 Zn19_3 1_555 1_555
O68_9 Zn20_2 1_555 1_555
O69_5 Zn5_5 1_555 1_555
O70_5 Zn36_4 1_555 1_555
O77_9 Zn25_11 1_555 1_555
O78_5 Zn25_5 1_555 1_555
O79_9 Zn20_2 1_555 1_555
O80_5 Zn19_3 1_555 1_555
O85_5 Zn42_4 1_555 1_555
O86_9 Zn43_4 1_555 1_555
O87_5 Zn5_5 1_555 1_555
O88_9 Zn13_5 1_555 1_555
Zn25_5 O28_5 1_555 1_555
Zn29_3 O28_5 1_555 1_555
Zn36_4 O27_5 1_555 1_555
Zn40_4 O27_5 1_555 1_555
Zn42_4 O27_5 1_555 1_555
C1_5 O32_5 1_555 1_555
C7_5 C8_5 1_555 1_555
C14_5 C15_5 1_555 1_555
C20_5 C21_5 1_555 1_555
C23_5 C24_5 1_555 1_555
C38_5 C39_5 1_555 1_555
C45_5 C47_5 1_555 1_555
Zn25_11 O60_9 1_555 1_555
Zn30_2 O60_9 1_555 1_555
Zn38_2 O59_9 1_555 1_555
Zn41_3 O59_9 1_555 1_555
O41_9 C77_9 1_555 1_555
O54_9 Zn23_5 1_555 1_555
C65_9 O64_9 1_555 1_555
C71_9 C72_9 1_555 1_555
C76_9 C77_9 1_555 1_555
C78_9 C79_9 1_555 1_555
C84_9 C85_9 1_555 1_555
C87_9 C88_9 1_555 1_555
C102_9 C103_9 1_555 1_555
O72_3 C112_9 1_555 1_555
O73_7 C94_9 1_555 1_555
O75_7 C94_9 1_555 1_555
C90_9 C89_9 1_555 1_555
H34_9 C90_9 1_555 1_555
C91_9 C90_9 1_555 1_555
O96_3 C112_9 1_555 1_555
C92_9 C91_9 1_555 1_555
H35_9 C92_9 1_555 1_555
C93_9 C92_9 1_555 1_555
C94_9 C93_9 1_555 1_555
C95_9 C89_9 1_555 1_555
H36_9 C95_9 1_555 1_555
C112_9 C91_9 1_555 1_555
C93_9 C95_9 1_555 1_555
O81_4 C43_6 1_555 1_555
O83_4 C43_6 1_555 1_555
O21_6 C46_6 1_555 1_555
O22_6 C46_6 1_555 1_555
C41_6 C40_6 1_555 1_555
H16_6 C41_6 1_555 1_555
C42_6 C41_6 1_555 1_555
C43_6 C42_6 1_555 1_555
C44_6 C42_6 1_555 1_555
H17_6 C44_6 1_555 1_555
C45_6 C44_6 1_555 1_555
C46_6 C45_6 1_555 1_555
C47_6 C40_6 1_555 1_555
H18_6 C47_6 1_555 1_555
Zn34_6 O22_6 1_555 1_555
Zn46_6 O21_6 1_555 1_555
C45_6 C47_6 1_555 1_555
Zn1_6 O1_6 1_555 1_555
Zn19_4 O28_6 1_555 1_555
Zn25_7 O9_6 1_555 1_555
Zn29_4 O16_6 1_555 1_555
Zn5_6 O4_6 1_555 1_555
Zn36_3 O5_6 1_555 1_555
Zn40_3 O11_6 1_555 1_555
O1_6 C1_6 1_555 1_555
O2_6 C5_6 1_555 1_555
O3_6 C5_6 1_555 1_555
O4_6 C13_6 1_555 1_555
O5_6 C13_6 1_555 1_555
O6_6 C16_6 1_555 1_555
O7_6 C16_6 1_555 1_555
O8_6 Zn1_6 1_555 1_555
O9_6 C17_6 1_555 1_555
O10_6 Zn5_6 1_555 1_555
O11_6 C21_6 1_555 1_555
O15_6 Zn1_6 1_555 1_555
O16_6 C32_6 1_555 1_555
O17_6 C36_6 1_555 1_555
O18_6 C36_6 1_555 1_555
O27_6 Zn5_6 1_555 1_555
O28_6 Zn1_6 1_555 1_555
C1_6 C2_6 1_555 1_555
C2_6 C3_6 1_555 1_555
C3_6 H1_6 1_555 1_555
C4_6 C3_6 1_555 1_555
C5_6 C4_6 1_555 1_555
C6_6 C4_6 1_555 1_555
H2_6 C6_6 1_555 1_555
C7_6 C2_6 1_555 1_555
H3_6 C7_6 1_555 1_555
C8_6 C6_6 1_555 1_555
C9_6 C8_6 1_555 1_555
C10_6 C9_6 1_555 1_555
H4_6 C10_6 1_555 1_555
C11_6 C9_6 1_555 1_555
H5_6 C11_6 1_555 1_555
C12_6 C11_6 1_555 1_555
C13_6 C12_6 1_555 1_555
C14_6 C12_6 1_555 1_555
H6_6 C14_6 1_555 1_555
C15_6 C10_6 1_555 1_555
C16_6 C15_6 1_555 1_555
C17_6 O8_6 1_555 1_555
C18_6 C17_6 1_555 1_555
C19_6 C18_6 1_555 1_555
H7_6 C19_6 1_555 1_555
C20_6 C19_6 1_555 1_555
C21_6 O10_6 1_555 1_555
C22_6 C20_6 1_555 1_555
H8_6 C22_6 1_555 1_555
C23_6 C18_6 1_555 1_555
H9_6 C23_6 1_555 1_555
C24_6 C22_6 1_555 1_555
C32_6 O15_6 1_555 1_555
C33_6 C32_6 1_555 1_555
C34_6 C33_6 1_555 1_555
H13_6 C34_6 1_555 1_555
C35_6 C34_6 1_555 1_555
C36_6 C35_6 1_555 1_555
C37_6 C35_6 1_555 1_555
H14_6 C37_6 1_555 1_555
C38_6 C33_6 1_555 1_555
H15_6 C38_6 1_555 1_555
C39_6 C37_6 1_555 1_555
O30_6 Zn5_6 1_555 1_555
O31_6 Zn36_3 1_555 1_555
O32_6 Zn19_4 1_555 1_555
Zn9_10 O37_10 1_555 1_555
Zn20 O60_10 1_555 1_555
Zn25_10 O45_10 1_555 1_555
Zn30 O52_10 1_555 1_555
Zn13_6 O6_6 1_555 1_555
Zn37_2 O7_6 1_555 1_555
Zn41_4 O47_10 1_555 1_555
Zn43_3 O59_10 1_555 1_555
O37_10 C65_10 1_555 1_555
O38_10 C69_10 1_555 1_555
O39_10 C69_10 1_555 1_555
O40_10 Zn13_6 1_555 1_555
O41_10 Zn37_2 1_555 1_555
O42_6 C80_10 1_555 1_555
O43_6 C80_10 1_555 1_555
O44_10 Zn9_10 1_555 1_555
O45_10 C81_10 1_555 1_555
O46_10 Zn13_6 1_555 1_555
O47_10 C85_10 1_555 1_555
O72_4 C112_10 1_555 1_555
O73_5 C94_10 1_555 1_555
O75_5 C94_10 1_555 1_555
O51_10 Zn9_10 1_555 1_555
O52_10 C96_10 1_555 1_555
O53_10 C100_10 1_555 1_555
O54_10 C100_10 1_555 1_555
O82 C107_10 1_555 1_555
O84 C107_10 1_555 1_555
O57_10 C110_10 1_555 1_555
O58_10 C110_10 1_555 1_555
O59_10 Zn13_6 1_555 1_555
O60_10 Zn9_10 1_555 1_555
C65_10 C66_10 1_555 1_555
C66_10 C67_10 1_555 1_555
C67_10 H25_10 1_555 1_555
C68_10 C67_10 1_555 1_555
C69_10 C68_10 1_555 1_555
C70_10 C68_10 1_555 1_555
H26_10 C70_10 1_555 1_555
C71_10 C66_10 1_555 1_555
H27_10 C71_10 1_555 1_555
C72_10 C70_10 1_555 1_555
C73_10 C72_10 1_555 1_555
C74_10 C73_10 1_555 1_555
H28_10 C74_10 1_555 1_555
C75_10 C73_10 1_555 1_555
H29_10 C75_10 1_555 1_555
C76_10 C75_10 1_555 1_555
C77_10 O40_10 1_555 1_555
C78_10 C76_10 1_555 1_555
H30_10 C78_10 1_555 1_555
C79_10 C74_10 1_555 1_555
C80_10 C79_10 1_555 1_555
C81_10 O44_10 1_555 1_555
C82_10 C81_10 1_555 1_555
C83_10 C82_10 1_555 1_555
H31_10 C83_10 1_555 1_555
C84_10 C83_10 1_555 1_555
C85_10 O46_10 1_555 1_555
C86_10 C84_10 1_555 1_555
H32_10 C86_10 1_555 1_555
C87_10 C82_10 1_555 1_555
H33_10 C87_10 1_555 1_555
C88_10 C86_10 1_555 1_555
C89_10 C88_10 1_555 1_555
C90_10 C89_10 1_555 1_555
H34_10 C90_10 1_555 1_555
C91_10 C90_10 1_555 1_555
O96_4 C112_10 1_555 1_555
C92_10 C91_10 1_555 1_555
H35_10 C92_10 1_555 1_555
C93_10 C92_10 1_555 1_555
C94_10 C93_10 1_555 1_555
C95_10 C89_10 1_555 1_555
H36_10 C95_10 1_555 1_555
C96_10 O51_10 1_555 1_555
C97_10 C96_10 1_555 1_555
C98_10 C97_10 1_555 1_555
H37_10 C98_10 1_555 1_555
C99_10 C98_10 1_555 1_555
C100_10 C99_10 1_555 1_555
C101_10 C99_10 1_555 1_555
H38_10 C101_10 1_555 1_555
C102_10 C97_10 1_555 1_555
H39_10 C102_10 1_555 1_555
C103_10 C101_10 1_555 1_555
C104_10 C103_10 1_555 1_555
C105_10 C104_10 1_555 1_555
H40_10 C105_10 1_555 1_555
C106_10 C105_10 1_555 1_555
C107_10 C106_10 1_555 1_555
C108_10 C106_10 1_555 1_555
H41_10 C108_10 1_555 1_555
C109_10 C108_10 1_555 1_555
C110_10 C109_10 1_555 1_555
C111_10 C104_10 1_555 1_555
H42_10 C111_10 1_555 1_555
O62_10 Zn13_6 1_555 1_555
O63_10 Zn37_2 1_555 1_555
O64_10 Zn20 1_555 1_555
C112_10 C91_10 1_555 1_555
Zn17_10 O38_10 1_555 1_555
Zn18_6 O2_6 1_555 1_555
Zn21_6 O39_10 1_555 1_555
Zn22_6 O18_6 1_555 1_555
Zn23_6 O3_6 1_555 1_555
Zn26_6 O17_6 1_555 1_555
Zn27_10 O53_10 1_555 1_555
Zn32_6 O42_6 1_555 1_555
Zn33_10 O58_10 1_555 1_555
Zn39_4 O43_6 1_555 1_555
Zn45_10 O57_10 1_555 1_555
O65_6 Zn1_6 1_555 1_555
O66_10 Zn9_10 1_555 1_555
O67_6 Zn19_4 1_555 1_555
O68_10 Zn20 1_555 1_555
O69_6 Zn5_6 1_555 1_555
O70_6 Zn36_3 1_555 1_555
O77_10 Zn25_10 1_555 1_555
O78_6 Zn25_7 1_555 1_555
O79_10 Zn20 1_555 1_555
O80_6 Zn19_4 1_555 1_555
O85_6 Zn42_3 1_555 1_555
O86_10 Zn43_3 1_555 1_555
O87_6 Zn5_6 1_555 1_555
O88_10 Zn13_6 1_555 1_555
Zn25_7 O28_6 1_555 1_555
Zn29_4 O28_6 1_555 1_555
Zn36_3 O27_6 1_555 1_555
Zn40_3 O27_6 1_555 1_555
Zn42_3 O27_6 1_555 1_555
C1_6 O32_6 1_555 1_555
C7_6 C8_6 1_555 1_555
C14_6 C15_6 1_555 1_555
C20_6 C21_6 1_555 1_555
C23_6 C24_6 1_555 1_555
C38_6 C39_6 1_555 1_555
Zn25_10 O60_10 1_555 1_555
Zn30 O60_10 1_555 1_555
Zn37_2 O59_10 1_555 1_555
Zn41_4 O59_10 1_555 1_555
O41_10 C77_10 1_555 1_555
O54_10 Zn23_6 1_555 1_555
C65_10 O64_10 1_555 1_555
C71_10 C72_10 1_555 1_555
C76_10 C77_10 1_555 1_555
C78_10 C79_10 1_555 1_555
C84_10 C85_10 1_555 1_555
C87_10 C88_10 1_555 1_555
C93_10 C95_10 1_555 1_555
C102_10 C103_10 1_555 1_555
C109_10 C111_10 1_555 1_555
O71_3 C56_6 1_555 1_555
O73_3 C30_6 1_555 1_555
O75_3 C30_6 1_555 1_555
C26_6 C25_6 1_555 1_555
H10_6 C26_6 1_555 1_555
C27_6 C26_6 1_555 1_555
O95_3 C56_6 1_555 1_555
C28_6 C27_6 1_555 1_555
H11_6 C28_6 1_555 1_555
C29_6 C28_6 1_555 1_555
C30_6 C29_6 1_555 1_555
C31_6 C25_6 1_555 1_555
H12_6 C31_6 1_555 1_555
C56_6 C27_6 1_555 1_555
C29_6 C31_6 1_555 1_555
Zn1_7 O1_7 1_555 1_555
Zn19 O28_7 1_555 1_555
Zn25_8 O9_7 1_555 1_555
Zn29 O16_7 1_555 1_555
Zn5_7 O4_7 1_555 1_555
Zn36_2 O5_7 1_555 1_555
Zn40_2 O11_7 1_555 1_555
O1_7 C1_7 1_555 1_555
O2_7 C5_7 1_555 1_555
O3_7 C5_7 1_555 1_555
O4_7 C13_7 1_555 1_555
O5_7 C13_7 1_555 1_555
O6_7 C16_7 1_555 1_555
O7_7 C16_7 1_555 1_555
O8_7 Zn1_7 1_555 1_555
O9_7 C17_7 1_555 1_555
O10_7 Zn5_7 1_555 1_555
O11_7 C21_7 1_555 1_555
O71_2 C56_7 1_555 1_555
O73_2 C30_7 1_555 1_555
O75_2 C30_7 1_555 1_555
O15_7 Zn1_7 1_555 1_555
O16_7 C32_7 1_555 1_555
O17_7 C36_7 1_555 1_555
O18_7 C36_7 1_555 1_555
O27_7 Zn5_7 1_555 1_555
O28_7 Zn1_7 1_555 1_555
C1_7 C2_7 1_555 1_555
C2_7 C3_7 1_555 1_555
C3_7 H1_7 1_555 1_555
C4_7 C3_7 1_555 1_555
C5_7 C4_7 1_555 1_555
C6_7 C4_7 1_555 1_555
H2_7 C6_7 1_555 1_555
C7_7 C2_7 1_555 1_555
H3_7 C7_7 1_555 1_555
C8_7 C6_7 1_555 1_555
C9_7 C8_7 1_555 1_555
C10_7 C9_7 1_555 1_555
H4_7 C10_7 1_555 1_555
C11_7 C9_7 1_555 1_555
H5_7 C11_7 1_555 1_555
C12_7 C11_7 1_555 1_555
C13_7 C12_7 1_555 1_555
C14_7 C12_7 1_555 1_555
H6_7 C14_7 1_555 1_555
C15_7 C10_7 1_555 1_555
C16_7 C15_7 1_555 1_555
C17_7 O8_7 1_555 1_555
C18_7 C17_7 1_555 1_555
C19_7 C18_7 1_555 1_555
H7_7 C19_7 1_555 1_555
C20_7 C19_7 1_555 1_555
C21_7 O10_7 1_555 1_555
C22_7 C20_7 1_555 1_555
H8_7 C22_7 1_555 1_555
C23_7 C18_7 1_555 1_555
H9_7 C23_7 1_555 1_555
C24_7 C22_7 1_555 1_555
C25_7 C24_7 1_555 1_555
C26_7 C25_7 1_555 1_555
H10_7 C26_7 1_555 1_555
C27_7 C26_7 1_555 1_555
O95_2 C56_7 1_555 1_555
C28_7 C27_7 1_555 1_555
H11_7 C28_7 1_555 1_555
C29_7 C28_7 1_555 1_555
C30_7 C29_7 1_555 1_555
C31_7 C25_7 1_555 1_555
H12_7 C31_7 1_555 1_555
C32_7 O15_7 1_555 1_555
C33_7 C32_7 1_555 1_555
C34_7 C33_7 1_555 1_555
H13_7 C34_7 1_555 1_555
C35_7 C34_7 1_555 1_555
C36_7 C35_7 1_555 1_555
C37_7 C35_7 1_555 1_555
H14_7 C37_7 1_555 1_555
C38_7 C33_7 1_555 1_555
H15_7 C38_7 1_555 1_555
C39_7 C37_7 1_555 1_555
O30_7 Zn5_7 1_555 1_555
O31_7 Zn36_2 1_555 1_555
O32_7 Zn19 1_555 1_555
C56_7 C27_7 1_555 1_555
Zn9_11 O37_11 1_555 1_555
Zn20_4 O60_11 1_555 1_555
Zn25_12 O45_11 1_555 1_555
Zn30_4 O52_11 1_555 1_555
Zn13_7 O6_7 1_555 1_555
Zn38 O7_7 1_555 1_555
Zn41 O47_11 1_555 1_555
Zn43_2 O59_11 1_555 1_555
O37_11 C65_11 1_555 1_555
O38_11 C69_11 1_555 1_555
O39_11 C69_11 1_555 1_555
O40_11 Zn13_7 1_555 1_555
O41_11 Zn38 1_555 1_555
O42_7 C80_11 1_555 1_555
O43_7 C80_11 1_555 1_555
O44_11 Zn9_11 1_555 1_555
O45_11 C81_11 1_555 1_555
O46_11 Zn13_7 1_555 1_555
O47_11 C85_11 1_555 1_555
O72 C112_11 1_555 1_555
O73_6 C94_11 1_555 1_555
O75_6 C94_11 1_555 1_555
O51_11 Zn9_11 1_555 1_555
O52_11 C96_11 1_555 1_555
O53_11 C100_11 1_555 1_555
O54_11 C100_11 1_555 1_555
O59_11 Zn13_7 1_555 1_555
O60_11 Zn9_11 1_555 1_555
C65_11 C66_11 1_555 1_555
C66_11 C67_11 1_555 1_555
C67_11 H25_11 1_555 1_555
C68_11 C67_11 1_555 1_555
C69_11 C68_11 1_555 1_555
C70_11 C68_11 1_555 1_555
H26_11 C70_11 1_555 1_555
C71_11 C66_11 1_555 1_555
H27_11 C71_11 1_555 1_555
C72_11 C70_11 1_555 1_555
C73_11 C72_11 1_555 1_555
C74_11 C73_11 1_555 1_555
H28_11 C74_11 1_555 1_555
C75_11 C73_11 1_555 1_555
H29_11 C75_11 1_555 1_555
C76_11 C75_11 1_555 1_555
C77_11 O40_11 1_555 1_555
C78_11 C76_11 1_555 1_555
H30_11 C78_11 1_555 1_555
C79_11 C74_11 1_555 1_555
C80_11 C79_11 1_555 1_555
C81_11 O44_11 1_555 1_555
C82_11 C81_11 1_555 1_555
C83_11 C82_11 1_555 1_555
H31_11 C83_11 1_555 1_555
C84_11 C83_11 1_555 1_555
C85_11 O46_11 1_555 1_555
C86_11 C84_11 1_555 1_555
H32_11 C86_11 1_555 1_555
C87_11 C82_11 1_555 1_555
H33_11 C87_11 1_555 1_555
C88_11 C86_11 1_555 1_555
C89_11 C88_11 1_555 1_555
C90_11 C89_11 1_555 1_555
H34_11 C90_11 1_555 1_555
C91_11 C90_11 1_555 1_555
O96 C112_11 1_555 1_555
C92_11 C91_11 1_555 1_555
H35_11 C92_11 1_555 1_555
C93_11 C92_11 1_555 1_555
C94_11 C93_11 1_555 1_555
C95_11 C89_11 1_555 1_555
H36_11 C95_11 1_555 1_555
C96_11 O51_11 1_555 1_555
C97_11 C96_11 1_555 1_555
C98_11 C97_11 1_555 1_555
H37_11 C98_11 1_555 1_555
C99_11 C98_11 1_555 1_555
C100_11 C99_11 1_555 1_555
C101_11 C99_11 1_555 1_555
H38_11 C101_11 1_555 1_555
C102_11 C97_11 1_555 1_555
H39_11 C102_11 1_555 1_555
C103_11 C101_11 1_555 1_555
O62_11 Zn13_7 1_555 1_555
O63_11 Zn38 1_555 1_555
O64_11 Zn20_4 1_555 1_555
C112_11 C91_11 1_555 1_555
Zn17_11 O38_11 1_555 1_555
Zn18_7 O2_7 1_555 1_555
Zn21_7 O39_11 1_555 1_555
Zn22_7 O18_7 1_555 1_555
Zn23_7 O3_7 1_555 1_555
Zn26_7 O17_7 1_555 1_555
Zn27_11 O53_11 1_555 1_555
Zn32_7 O42_7 1_555 1_555
Zn39 O43_7 1_555 1_555
O65_7 Zn1_7 1_555 1_555
O66_11 Zn9_11 1_555 1_555
O67_7 Zn19 1_555 1_555
O68_11 Zn20_4 1_555 1_555
O69_7 Zn5_7 1_555 1_555
O70_7 Zn36_2 1_555 1_555
O77_11 Zn25_12 1_555 1_555
O78_7 Zn25_8 1_555 1_555
O79_11 Zn20_4 1_555 1_555
O80_7 Zn19 1_555 1_555
O85_7 Zn42_2 1_555 1_555
O86_11 Zn43_2 1_555 1_555
O87_7 Zn5_7 1_555 1_555
O88_11 Zn13_7 1_555 1_555
Zn25_8 O28_7 1_555 1_555
Zn29 O28_7 1_555 1_555
Zn36_2 O27_7 1_555 1_555
Zn40_2 O27_7 1_555 1_555
Zn42_2 O27_7 1_555 1_555
C1_7 O32_7 1_555 1_555
C7_7 C8_7 1_555 1_555
C14_7 C15_7 1_555 1_555
C20_7 C21_7 1_555 1_555
C23_7 C24_7 1_555 1_555
C29_7 C31_7 1_555 1_555
C38_7 C39_7 1_555 1_555
Zn25_12 O60_11 1_555 1_555
Zn30_4 O60_11 1_555 1_555
Zn38 O59_11 1_555 1_555
Zn41 O59_11 1_555 1_555
O41_11 C77_11 1_555 1_555
O54_11 Zn23_7 1_555 1_555
C65_11 O64_11 1_555 1_555
C71_11 C72_11 1_555 1_555
C76_11 C77_11 1_555 1_555
C78_11 C79_11 1_555 1_555
C84_11 C85_11 1_555 1_555
C87_11 C88_11 1_555 1_555
C93_11 C95_11 1_555 1_555
C102_11 C103_11 1_555 1_555
O81 C43_7 1_555 1_555
O83 C43_7 1_555 1_555
O21_7 C46_7 1_555 1_555
O22_7 C46_7 1_555 1_555
C41_7 C40_7 1_555 1_555
H16_7 C41_7 1_555 1_555
C42_7 C41_7 1_555 1_555
C43_7 C42_7 1_555 1_555
C44_7 C42_7 1_555 1_555
H17_7 C44_7 1_555 1_555
C45_7 C44_7 1_555 1_555
C46_7 C45_7 1_555 1_555
C47_7 C40_7 1_555 1_555
H18_7 C47_7 1_555 1_555
Zn34_7 O22_7 1_555 1_555
Zn46_7 O21_7 1_555 1_555
C45_7 C47_7 1_555 1_555
O82_4 C107_11 1_555 1_555
O84_4 C107_11 1_555 1_555
O57_11 C110_11 1_555 1_555
O58_11 C110_11 1_555 1_555
C105_11 C104_11 1_555 1_555
H40_11 C105_11 1_555 1_555
C106_11 C105_11 1_555 1_555
C107_11 C106_11 1_555 1_555
C108_11 C106_11 1_555 1_555
H41_11 C108_11 1_555 1_555
C109_11 C108_11 1_555 1_555
C110_11 C109_11 1_555 1_555
C111_11 C104_11 1_555 1_555
H42_11 C111_11 1_555 1_555
Zn33_11 O58_11 1_555 1_555
Zn45_11 O57_11 1_555 1_555
C109_11 C111_11 1_555 1_555
O72_2 C112_12 1_555 1_555
O73_8 C94_12 1_555 1_555
O75_8 C94_12 1_555 1_555
C90_12 C89_12 1_555 1_555
H34_12 C90_12 1_555 1_555
C91_12 C90_12 1_555 1_555
O96_2 C112_12 1_555 1_555
C92_12 C91_12 1_555 1_555
H35_12 C92_12 1_555 1_555
C93_12 C92_12 1_555 1_555
C94_12 C93_12 1_555 1_555
C95_12 C89_12 1_555 1_555
H36_12 C95_12 1_555 1_555
C112_12 C91_12 1_555 1_555
C93_12 C95_12 1_555 1_555
Zn1_8 O1_8 1_555 1_555
Zn19_2 O28_8 1_555 1_555
Zn25_6 O9_8 1_555 1_555
Zn29_2 O16_8 1_555 1_555
Zn5_8 O4_8 1_555 1_555
Zn36 O5_8 1_555 1_555
Zn40 O11_8 1_555 1_555
O1_8 C1_8 1_555 1_555
O2_8 C5_8 1_555 1_555
O3_8 C5_8 1_555 1_555
O4_8 C13_8 1_555 1_555
O5_8 C13_8 1_555 1_555
O6_8 C16_8 1_555 1_555
O7_8 C16_8 1_555 1_555
O8_8 Zn1_8 1_555 1_555
O9_8 C17_8 1_555 1_555
O10_8 Zn5_8 1_555 1_555
O11_8 C21_8 1_555 1_555
O71 C56_8 1_555 1_555
O73 C30_8 1_555 1_555
O75 C30_8 1_555 1_555
O15_8 Zn1_8 1_555 1_555
O16_8 C32_8 1_555 1_555
O17_8 C36_8 1_555 1_555
O18_8 C36_8 1_555 1_555
O81_2 C43_8 1_555 1_555
O83_2 C43_8 1_555 1_555
O21_8 C46_8 1_555 1_555
O22_8 C46_8 1_555 1_555
O27_8 Zn5_8 1_555 1_555
O28_8 Zn1_8 1_555 1_555
C1_8 C2_8 1_555 1_555
C2_8 C3_8 1_555 1_555
C3_8 H1_8 1_555 1_555
C4_8 C3_8 1_555 1_555
C5_8 C4_8 1_555 1_555
C6_8 C4_8 1_555 1_555
H2_8 C6_8 1_555 1_555
C7_8 C2_8 1_555 1_555
H3_8 C7_8 1_555 1_555
C8_8 C6_8 1_555 1_555
C9_8 C8_8 1_555 1_555
C10_8 C9_8 1_555 1_555
H4_8 C10_8 1_555 1_555
C11_8 C9_8 1_555 1_555
H5_8 C11_8 1_555 1_555
C12_8 C11_8 1_555 1_555
C13_8 C12_8 1_555 1_555
C14_8 C12_8 1_555 1_555
H6_8 C14_8 1_555 1_555
C15_8 C10_8 1_555 1_555
C16_8 C15_8 1_555 1_555
C17_8 O8_8 1_555 1_555
C18_8 C17_8 1_555 1_555
C19_8 C18_8 1_555 1_555
H7_8 C19_8 1_555 1_555
C20_8 C19_8 1_555 1_555
C21_8 O10_8 1_555 1_555
C22_8 C20_8 1_555 1_555
H8_8 C22_8 1_555 1_555
C23_8 C18_8 1_555 1_555
H9_8 C23_8 1_555 1_555
C24_8 C22_8 1_555 1_555
C25_8 C24_8 1_555 1_555
C26_8 C25_8 1_555 1_555
H10_8 C26_8 1_555 1_555
C27_8 C26_8 1_555 1_555
O95 C56_8 1_555 1_555
C28_8 C27_8 1_555 1_555
H11_8 C28_8 1_555 1_555
C29_8 C28_8 1_555 1_555
C30_8 C29_8 1_555 1_555
C31_8 C25_8 1_555 1_555
H12_8 C31_8 1_555 1_555
C32_8 O15_8 1_555 1_555
C33_8 C32_8 1_555 1_555
C34_8 C33_8 1_555 1_555
H13_8 C34_8 1_555 1_555
C35_8 C34_8 1_555 1_555
C36_8 C35_8 1_555 1_555
C37_8 C35_8 1_555 1_555
H14_8 C37_8 1_555 1_555
C38_8 C33_8 1_555 1_555
H15_8 C38_8 1_555 1_555
C39_8 C37_8 1_555 1_555
C40_8 C39_8 1_555 1_555
C41_8 C40_8 1_555 1_555
H16_8 C41_8 1_555 1_555
C42_8 C41_8 1_555 1_555
C43_8 C42_8 1_555 1_555
C44_8 C42_8 1_555 1_555
H17_8 C44_8 1_555 1_555
C45_8 C44_8 1_555 1_555
C46_8 C45_8 1_555 1_555
C47_8 C40_8 1_555 1_555
H18_8 C47_8 1_555 1_555
O30_8 Zn5_8 1_555 1_555
O31_8 Zn36 1_555 1_555
O32_8 Zn19_2 1_555 1_555
C56_8 C27_8 1_555 1_555
Zn9_12 O37_12 1_555 1_555
Zn20_3 O60_12 1_555 1_555
Zn25_9 O45_12 1_555 1_555
Zn30_3 O52_12 1_555 1_555
Zn13_8 O6_8 1_555 1_555
Zn37 O7_8 1_555 1_555
Zn41_2 O47_12 1_555 1_555
Zn43 O59_12 1_555 1_555
O37_12 C65_12 1_555 1_555
O38_12 C69_12 1_555 1_555
O39_12 C69_12 1_555 1_555
O40_12 Zn13_8 1_555 1_555
O41_12 Zn37 1_555 1_555
O42_8 C80_12 1_555 1_555
O43_8 C80_12 1_555 1_555
O44_12 Zn9_12 1_555 1_555
O45_12 C81_12 1_555 1_555
O46_12 Zn13_8 1_555 1_555
O47_12 C85_12 1_555 1_555
O51_12 Zn9_12 1_555 1_555
O52_12 C96_12 1_555 1_555
O53_12 C100_12 1_555 1_555
O54_12 C100_12 1_555 1_555
O82_3 C107_12 1_555 1_555
O84_3 C107_12 1_555 1_555
O57_12 C110_12 1_555 1_555
O58_12 C110_12 1_555 1_555
O59_12 Zn13_8 1_555 1_555
O60_12 Zn9_12 1_555 1_555
C65_12 C66_12 1_555 1_555
C66_12 C67_12 1_555 1_555
C67_12 H25_12 1_555 1_555
C68_12 C67_12 1_555 1_555
C69_12 C68_12 1_555 1_555
C70_12 C68_12 1_555 1_555
H26_12 C70_12 1_555 1_555
C71_12 C66_12 1_555 1_555
H27_12 C71_12 1_555 1_555
C72_12 C70_12 1_555 1_555
C73_12 C72_12 1_555 1_555
C74_12 C73_12 1_555 1_555
H28_12 C74_12 1_555 1_555
C75_12 C73_12 1_555 1_555
H29_12 C75_12 1_555 1_555
C76_12 C75_12 1_555 1_555
C77_12 O40_12 1_555 1_555
C78_12 C76_12 1_555 1_555
H30_12 C78_12 1_555 1_555
C79_12 C74_12 1_555 1_555
C80_12 C79_12 1_555 1_555
C81_12 O44_12 1_555 1_555
C82_12 C81_12 1_555 1_555
C83_12 C82_12 1_555 1_555
H31_12 C83_12 1_555 1_555
C84_12 C83_12 1_555 1_555
C85_12 O46_12 1_555 1_555
C86_12 C84_12 1_555 1_555
H32_12 C86_12 1_555 1_555
C87_12 C82_12 1_555 1_555
H33_12 C87_12 1_555 1_555
C88_12 C86_12 1_555 1_555
C96_12 O51_12 1_555 1_555
C97_12 C96_12 1_555 1_555
C98_12 C97_12 1_555 1_555
H37_12 C98_12 1_555 1_555
C99_12 C98_12 1_555 1_555
C100_12 C99_12 1_555 1_555
C101_12 C99_12 1_555 1_555
H38_12 C101_12 1_555 1_555
C102_12 C97_12 1_555 1_555
H39_12 C102_12 1_555 1_555
C103_12 C101_12 1_555 1_555
C104_12 C103_12 1_555 1_555
C105_12 C104_12 1_555 1_555
H40_12 C105_12 1_555 1_555
C106_12 C105_12 1_555 1_555
C107_12 C106_12 1_555 1_555
C108_12 C106_12 1_555 1_555
H41_12 C108_12 1_555 1_555
C109_12 C108_12 1_555 1_555
C110_12 C109_12 1_555 1_555
C111_12 C104_12 1_555 1_555
H42_12 C111_12 1_555 1_555
O62_12 Zn13_8 1_555 1_555
O63_12 Zn37 1_555 1_555
O64_12 Zn20_3 1_555 1_555
Zn17_12 O38_12 1_555 1_555
Zn18_8 O2_8 1_555 1_555
Zn21_8 O39_12 1_555 1_555
Zn22_8 O18_8 1_555 1_555
Zn23_8 O3_8 1_555 1_555
Zn26_8 O17_8 1_555 1_555
Zn27_12 O53_12 1_555 1_555
Zn32_8 O42_8 1_555 1_555
Zn33_12 O58_12 1_555 1_555
Zn34_8 O22_8 1_555 1_555
Zn39_2 O43_8 1_555 1_555
Zn45_12 O57_12 1_555 1_555
Zn46_8 O21_8 1_555 1_555
O65_8 Zn1_8 1_555 1_555
O66_12 Zn9_12 1_555 1_555
O67_8 Zn19_2 1_555 1_555
O68_12 Zn20_3 1_555 1_555
O69_8 Zn5_8 1_555 1_555
O70_8 Zn36 1_555 1_555
O77_12 Zn25_9 1_555 1_555
O78_8 Zn25_6 1_555 1_555
O79_12 Zn20_3 1_555 1_555
O80_8 Zn19_2 1_555 1_555
O85_8 Zn42 1_555 1_555
O86_12 Zn43 1_555 1_555
O87_8 Zn5_8 1_555 1_555
O88_12 Zn13_8 1_555 1_555
Zn25_6 O28_8 1_555 1_555
Zn29_2 O28_8 1_555 1_555
Zn36 O27_8 1_555 1_555
Zn40 O27_8 1_555 1_555
Zn42 O27_8 1_555 1_555
C1_8 O32_8 1_555 1_555
C7_8 C8_8 1_555 1_555
C14_8 C15_8 1_555 1_555
C20_8 C21_8 1_555 1_555
C23_8 C24_8 1_555 1_555
C29_8 C31_8 1_555 1_555
C38_8 C39_8 1_555 1_555
C45_8 C47_8 1_555 1_555
Zn25_9 O60_12 1_555 1_555
Zn30_3 O60_12 1_555 1_555
Zn37 O59_12 1_555 1_555
Zn41_2 O59_12 1_555 1_555
O41_12 C77_12 1_555 1_555
O54_12 Zn23_8 1_555 1_555
C65_12 O64_12 1_555 1_555
C71_12 C72_12 1_555 1_555
C76_12 C77_12 1_555 1_555
C78_12 C79_12 1_555 1_555
C84_12 C85_12 1_555 1_555
C87_12 C88_12 1_555 1_555
C102_12 C103_12 1_555 1_555
C109_12 C111_12 1_555 1_555
O82_6 C107_13 1_555 1_555
O84_6 C107_13 1_555 1_555
O57_13 C110_13 1_555 1_555
O58_13 C110_13 1_555 1_555
C105_13 C104_13 1_555 1_555
H40_13 C105_13 1_555 1_555
C106_13 C105_13 1_555 1_555
C107_13 C106_13 1_555 1_555
C108_13 C106_13 1_555 1_555
H41_13 C108_13 1_555 1_555
C109_13 C108_13 1_555 1_555
C110_13 C109_13 1_555 1_555
C111_13 C104_13 1_555 1_555
H42_13 C111_13 1_555 1_555
Zn33_13 O58_13 1_555 1_555
Zn45_13 O57_13 1_555 1_555
C109_13 C111_13 1_555 1_555
Zn9_13 O37_13 1_555 1_555
Zn20_6 O60_13 1_555 1_555
Zn25_3 O45_13 1_555 1_555
Zn31_3 O52_13 1_555 1_555
Zn41_7 O47_13 1_555 1_555
Zn44_2 O59_13 1_555 1_555
O37_13 C65_13 1_555 1_555
O38_13 C69_13 1_555 1_555
O39_13 C69_13 1_555 1_555
O40_13 Zn32_8 1_555 1_555
O41_13 Zn39_2 1_555 1_555
O69_8 C80_13 1_555 1_555
O70_8 C80_13 1_555 1_555
O44_13 Zn9_13 1_555 1_555
O45_13 C81_13 1_555 1_555
O46_13 Zn32_8 1_555 1_555
O47_13 C85_13 1_555 1_555
O51_13 Zn9_13 1_555 1_555
O52_13 C96_13 1_555 1_555
O53_13 C100_13 1_555 1_555
O54_13 C100_13 1_555 1_555
O59_13 Zn32_8 1_555 1_555
O60_13 Zn9_13 1_555 1_555
C65_13 C66_13 1_555 1_555
C66_13 C67_13 1_555 1_555
C67_13 H25_13 1_555 1_555
C68_13 C67_13 1_555 1_555
C69_13 C68_13 1_555 1_555
C70_13 C68_13 1_555 1_555
H26_13 C70_13 1_555 1_555
C71_13 C66_13 1_555 1_555
H27_13 C71_13 1_555 1_555
C72_13 C70_13 1_555 1_555
C73_13 C72_13 1_555 1_555
C74_13 C73_13 1_555 1_555
H28_13 C74_13 1_555 1_555
C75_13 C73_13 1_555 1_555
H29_13 C75_13 1_555 1_555
C76_13 C75_13 1_555 1_555
C77_13 O40_13 1_555 1_555
C78_13 C76_13 1_555 1_555
H30_13 C78_13 1_555 1_555
C79_13 C74_13 1_555 1_555
C80_13 C79_13 1_555 1_555
C81_13 O44_13 1_555 1_555
C82_13 C81_13 1_555 1_555
C83_13 C82_13 1_555 1_555
H31_13 C83_13 1_555 1_555
C84_13 C83_13 1_555 1_555
C85_13 O46_13 1_555 1_555
C86_13 C84_13 1_555 1_555
H32_13 C86_13 1_555 1_555
C87_13 C82_13 1_555 1_555
H33_13 C87_13 1_555 1_555
C88_13 C86_13 1_555 1_555
C96_13 O51_13 1_555 1_555
C97_13 C96_13 1_555 1_555
C98_13 C97_13 1_555 1_555
H37_13 C98_13 1_555 1_555
C99_13 C98_13 1_555 1_555
C100_13 C99_13 1_555 1_555
C101_13 C99_13 1_555 1_555
H38_13 C101_13 1_555 1_555
C102_13 C97_13 1_555 1_555
H39_13 C102_13 1_555 1_555
C103_13 C101_13 1_555 1_555
O62_13 Zn32_8 1_555 1_555
O63_13 Zn39_2 1_555 1_555
O64_13 Zn20_6 1_555 1_555
Zn17_13 O38_13 1_555 1_555
Zn22_8 O39_13 1_555 1_555
Zn27_13 O53_13 1_555 1_555
O66_13 Zn9_13 1_555 1_555
O68_13 Zn20_6 1_555 1_555
O77_13 Zn25_3 1_555 1_555
O79_13 Zn20_6 1_555 1_555
O86_13 Zn44_2 1_555 1_555
O88_13 Zn32_8 1_555 1_555
Zn25_3 O60_13 1_555 1_555
Zn31_3 O60_13 1_555 1_555
Zn39_2 O59_13 1_555 1_555
Zn41_7 O59_13 1_555 1_555
O41_13 C77_13 1_555 1_555
O54_13 Zn21_8 1_555 1_555
C65_13 O64_13 1_555 1_555
C71_13 C72_13 1_555 1_555
C76_13 C77_13 1_555 1_555
C78_13 C79_13 1_555 1_555
C84_13 C85_13 1_555 1_555
C87_13 C88_13 1_555 1_555
C102_13 C103_13 1_555 1_555
O72_7 C112_13 1_555 1_555
O74_3 C94_13 1_555 1_555
O76_3 C94_13 1_555 1_555
C90_13 C89_13 1_555 1_555
H34_13 C90_13 1_555 1_555
C91_13 C90_13 1_555 1_555
O96_7 C112_13 1_555 1_555
C92_13 C91_13 1_555 1_555
H35_13 C92_13 1_555 1_555
C93_13 C92_13 1_555 1_555
C94_13 C93_13 1_555 1_555
C95_13 C89_13 1_555 1_555
H36_13 C95_13 1_555 1_555
C112_13 C91_13 1_555 1_555
C93_13 C95_13 1_555 1_555
Zn9_14 O37_14 1_555 1_555
Zn20_5 O60_14 1_555 1_555
Zn25_2 O45_14 1_555 1_555
Zn31_2 O52_14 1_555 1_555
Zn41_8 O47_14 1_555 1_555
Zn44_3 O59_14 1_555 1_555
O37_14 C65_14 1_555 1_555
O38_14 C69_14 1_555 1_555
O39_14 C69_14 1_555 1_555
O40_14 Zn32_5 1_555 1_555
O41_14 Zn39_3 1_555 1_555
O69_5 C80_14 1_555 1_555
O70_5 C80_14 1_555 1_555
O44_14 Zn9_14 1_555 1_555
O45_14 C81_14 1_555 1_555
O46_14 Zn32_5 1_555 1_555
O47_14 C85_14 1_555 1_555
O72_8 C112_14 1_555 1_555
O74_2 C94_14 1_555 1_555
O76_2 C94_14 1_555 1_555
O51_14 Zn9_14 1_555 1_555
O52_14 C96_14 1_555 1_555
O53_14 C100_14 1_555 1_555
O54_14 C100_14 1_555 1_555
O82_5 C107_14 1_555 1_555
O84_5 C107_14 1_555 1_555
O57_14 C110_14 1_555 1_555
O58_14 C110_14 1_555 1_555
O59_14 Zn32_5 1_555 1_555
O60_14 Zn9_14 1_555 1_555
C65_14 C66_14 1_555 1_555
C66_14 C67_14 1_555 1_555
C67_14 H25_14 1_555 1_555
C68_14 C67_14 1_555 1_555
C69_14 C68_14 1_555 1_555
C70_14 C68_14 1_555 1_555
H26_14 C70_14 1_555 1_555
C71_14 C66_14 1_555 1_555
H27_14 C71_14 1_555 1_555
C72_14 C70_14 1_555 1_555
C73_14 C72_14 1_555 1_555
C74_14 C73_14 1_555 1_555
H28_14 C74_14 1_555 1_555
C75_14 C73_14 1_555 1_555
H29_14 C75_14 1_555 1_555
C76_14 C75_14 1_555 1_555
C77_14 O40_14 1_555 1_555
C78_14 C76_14 1_555 1_555
H30_14 C78_14 1_555 1_555
C79_14 C74_14 1_555 1_555
C80_14 C79_14 1_555 1_555
C81_14 O44_14 1_555 1_555
C82_14 C81_14 1_555 1_555
C83_14 C82_14 1_555 1_555
H31_14 C83_14 1_555 1_555
C84_14 C83_14 1_555 1_555
C85_14 O46_14 1_555 1_555
C86_14 C84_14 1_555 1_555
H32_14 C86_14 1_555 1_555
C87_14 C82_14 1_555 1_555
H33_14 C87_14 1_555 1_555
C88_14 C86_14 1_555 1_555
C89_14 C88_14 1_555 1_555
C90_14 C89_14 1_555 1_555
H34_14 C90_14 1_555 1_555
C91_14 C90_14 1_555 1_555
O96_8 C112_14 1_555 1_555
C92_14 C91_14 1_555 1_555
H35_14 C92_14 1_555 1_555
C93_14 C92_14 1_555 1_555
C94_14 C93_14 1_555 1_555
C95_14 C89_14 1_555 1_555
H36_14 C95_14 1_555 1_555
C96_14 O51_14 1_555 1_555
C97_14 C96_14 1_555 1_555
C98_14 C97_14 1_555 1_555
H37_14 C98_14 1_555 1_555
C99_14 C98_14 1_555 1_555
C100_14 C99_14 1_555 1_555
C101_14 C99_14 1_555 1_555
H38_14 C101_14 1_555 1_555
C102_14 C97_14 1_555 1_555
H39_14 C102_14 1_555 1_555
C103_14 C101_14 1_555 1_555
C104_14 C103_14 1_555 1_555
C105_14 C104_14 1_555 1_555
H40_14 C105_14 1_555 1_555
C106_14 C105_14 1_555 1_555
C107_14 C106_14 1_555 1_555
C108_14 C106_14 1_555 1_555
H41_14 C108_14 1_555 1_555
C109_14 C108_14 1_555 1_555
C110_14 C109_14 1_555 1_555
C111_14 C104_14 1_555 1_555
H42_14 C111_14 1_555 1_555
O62_14 Zn32_5 1_555 1_555
O63_14 Zn39_3 1_555 1_555
O64_14 Zn20_5 1_555 1_555
C112_14 C91_14 1_555 1_555
Zn17_14 O38_14 1_555 1_555
Zn22_5 O39_14 1_555 1_555
Zn27_14 O53_14 1_555 1_555
Zn33_14 O58_14 1_555 1_555
Zn45_14 O57_14 1_555 1_555
O66_14 Zn9_14 1_555 1_555
O68_14 Zn20_5 1_555 1_555
O77_14 Zn25_2 1_555 1_555
O79_14 Zn20_5 1_555 1_555
O86_14 Zn44_3 1_555 1_555
O88_14 Zn32_5 1_555 1_555
Zn25_2 O60_14 1_555 1_555
Zn31_2 O60_14 1_555 1_555
Zn39_3 O59_14 1_555 1_555
Zn41_8 O59_14 1_555 1_555
O41_14 C77_14 1_555 1_555
O54_14 Zn21_5 1_555 1_555
C65_14 O64_14 1_555 1_555
C71_14 C72_14 1_555 1_555
C76_14 C77_14 1_555 1_555
C78_14 C79_14 1_555 1_555
C84_14 C85_14 1_555 1_555
C87_14 C88_14 1_555 1_555
C93_14 C95_14 1_555 1_555
C102_14 C103_14 1_555 1_555
C109_14 C111_14 1_555 1_555
Zn9_15 O37_15 1_555 1_555
Zn20_8 O60_15 1_555 1_555
Zn25_4 O45_15 1_555 1_555
Zn31_4 O52_15 1_555 1_555
Zn41_5 O47_15 1_555 1_555
Zn44 O59_15 1_555 1_555
O37_15 C65_15 1_555 1_555
O38_15 C69_15 1_555 1_555
O39_15 C69_15 1_555 1_555
O40_15 Zn32_7 1_555 1_555
O41_15 Zn39 1_555 1_555
O69_7 C80_15 1_555 1_555
O70_7 C80_15 1_555 1_555
O44_15 Zn9_15 1_555 1_555
O45_15 C81_15 1_555 1_555
O46_15 Zn32_7 1_555 1_555
O47_15 C85_15 1_555 1_555
O72_5 C112_15 1_555 1_555
O74_4 C94_15 1_555 1_555
O76_4 C94_15 1_555 1_555
O51_15 Zn9_15 1_555 1_555
O52_15 C96_15 1_555 1_555
O53_15 C100_15 1_555 1_555
O54_15 C100_15 1_555 1_555
O59_15 Zn32_7 1_555 1_555
O60_15 Zn9_15 1_555 1_555
C65_15 C66_15 1_555 1_555
C66_15 C67_15 1_555 1_555
C67_15 H25_15 1_555 1_555
C68_15 C67_15 1_555 1_555
C69_15 C68_15 1_555 1_555
C70_15 C68_15 1_555 1_555
H26_15 C70_15 1_555 1_555
C71_15 C66_15 1_555 1_555
H27_15 C71_15 1_555 1_555
C72_15 C70_15 1_555 1_555
C73_15 C72_15 1_555 1_555
C74_15 C73_15 1_555 1_555
H28_15 C74_15 1_555 1_555
C75_15 C73_15 1_555 1_555
H29_15 C75_15 1_555 1_555
C76_15 C75_15 1_555 1_555
C77_15 O40_15 1_555 1_555
C78_15 C76_15 1_555 1_555
H30_15 C78_15 1_555 1_555
C79_15 C74_15 1_555 1_555
C80_15 C79_15 1_555 1_555
C81_15 O44_15 1_555 1_555
C82_15 C81_15 1_555 1_555
C83_15 C82_15 1_555 1_555
H31_15 C83_15 1_555 1_555
C84_15 C83_15 1_555 1_555
C85_15 O46_15 1_555 1_555
C86_15 C84_15 1_555 1_555
H32_15 C86_15 1_555 1_555
C87_15 C82_15 1_555 1_555
H33_15 C87_15 1_555 1_555
C88_15 C86_15 1_555 1_555
C89_15 C88_15 1_555 1_555
C90_15 C89_15 1_555 1_555
H34_15 C90_15 1_555 1_555
C91_15 C90_15 1_555 1_555
O96_5 C112_15 1_555 1_555
C92_15 C91_15 1_555 1_555
H35_15 C92_15 1_555 1_555
C93_15 C92_15 1_555 1_555
C94_15 C93_15 1_555 1_555
C95_15 C89_15 1_555 1_555
H36_15 C95_15 1_555 1_555
C96_15 O51_15 1_555 1_555
C97_15 C96_15 1_555 1_555
C98_15 C97_15 1_555 1_555
H37_15 C98_15 1_555 1_555
C99_15 C98_15 1_555 1_555
C100_15 C99_15 1_555 1_555
C101_15 C99_15 1_555 1_555
H38_15 C101_15 1_555 1_555
C102_15 C97_15 1_555 1_555
H39_15 C102_15 1_555 1_555
C103_15 C101_15 1_555 1_555
O62_15 Zn32_7 1_555 1_555
O63_15 Zn39 1_555 1_555
O64_15 Zn20_8 1_555 1_555
C112_15 C91_15 1_555 1_555
Zn17_15 O38_15 1_555 1_555
Zn22_7 O39_15 1_555 1_555
Zn27_15 O53_15 1_555 1_555
O66_15 Zn9_15 1_555 1_555
O68_15 Zn20_8 1_555 1_555
O77_15 Zn25_4 1_555 1_555
O79_15 Zn20_8 1_555 1_555
O86_15 Zn44 1_555 1_555
O88_15 Zn32_7 1_555 1_555
Zn25_4 O60_15 1_555 1_555
Zn31_4 O60_15 1_555 1_555
Zn39 O59_15 1_555 1_555
Zn41_5 O59_15 1_555 1_555
O41_15 C77_15 1_555 1_555
O54_15 Zn21_7 1_555 1_555
C65_15 O64_15 1_555 1_555
C71_15 C72_15 1_555 1_555
C76_15 C77_15 1_555 1_555
C78_15 C79_15 1_555 1_555
C84_15 C85_15 1_555 1_555
C87_15 C88_15 1_555 1_555
C93_15 C95_15 1_555 1_555
C102_15 C103_15 1_555 1_555
O82_8 C107_15 1_555 1_555
O84_8 C107_15 1_555 1_555
O57_15 C110_15 1_555 1_555
O58_15 C110_15 1_555 1_555
C105_15 C104_15 1_555 1_555
H40_15 C105_15 1_555 1_555
C106_15 C105_15 1_555 1_555
C107_15 C106_15 1_555 1_555
C108_15 C106_15 1_555 1_555
H41_15 C108_15 1_555 1_555
C109_15 C108_15 1_555 1_555
C110_15 C109_15 1_555 1_555
C111_15 C104_15 1_555 1_555
H42_15 C111_15 1_555 1_555
Zn33_15 O58_15 1_555 1_555
Zn45_15 O57_15 1_555 1_555
C109_15 C111_15 1_555 1_555
O72_6 C112_16 1_555 1_555
O74 C94_16 1_555 1_555
O76 C94_16 1_555 1_555
C90_16 C89_16 1_555 1_555
H34_16 C90_16 1_555 1_555
C91_16 C90_16 1_555 1_555
O96_6 C112_16 1_555 1_555
C92_16 C91_16 1_555 1_555
H35_16 C92_16 1_555 1_555
C93_16 C92_16 1_555 1_555
C94_16 C93_16 1_555 1_555
C95_16 C89_16 1_555 1_555
H36_16 C95_16 1_555 1_555
C112_16 C91_16 1_555 1_555
C93_16 C95_16 1_555 1_555
Zn9_16 O37_16 1_555 1_555
Zn20_7 O60_16 1_555 1_555
Zn25 O45_16 1_555 1_555
Zn31 O52_16 1_555 1_555
Zn41_6 O47_16 1_555 1_555
Zn44_4 O59_16 1_555 1_555
O37_16 C65_16 1_555 1_555
O38_16 C69_16 1_555 1_555
O39_16 C69_16 1_555 1_555
O40_16 Zn32_6 1_555 1_555
O41_16 Zn39_4 1_555 1_555
O69_6 C80_16 1_555 1_555
O70_6 C80_16 1_555 1_555
O44_16 Zn9_16 1_555 1_555
O45_16 C81_16 1_555 1_555
O46_16 Zn32_6 1_555 1_555
O47_16 C85_16 1_555 1_555
O51_16 Zn9_16 1_555 1_555
O52_16 C96_16 1_555 1_555
O53_16 C100_16 1_555 1_555
O54_16 C100_16 1_555 1_555
O82_7 C107_16 1_555 1_555
O84_7 C107_16 1_555 1_555
O57_16 C110_16 1_555 1_555
O58_16 C110_16 1_555 1_555
O59_16 Zn32_6 1_555 1_555
O60_16 Zn9_16 1_555 1_555
C65_16 C66_16 1_555 1_555
C66_16 C67_16 1_555 1_555
C67_16 H25_16 1_555 1_555
C68_16 C67_16 1_555 1_555
C69_16 C68_16 1_555 1_555
C70_16 C68_16 1_555 1_555
H26_16 C70_16 1_555 1_555
C71_16 C66_16 1_555 1_555
H27_16 C71_16 1_555 1_555
C72_16 C70_16 1_555 1_555
C73_16 C72_16 1_555 1_555
C74_16 C73_16 1_555 1_555
H28_16 C74_16 1_555 1_555
C75_16 C73_16 1_555 1_555
H29_16 C75_16 1_555 1_555
C76_16 C75_16 1_555 1_555
C77_16 O40_16 1_555 1_555
C78_16 C76_16 1_555 1_555
H30_16 C78_16 1_555 1_555
C79_16 C74_16 1_555 1_555
C80_16 C79_16 1_555 1_555
C81_16 O44_16 1_555 1_555
C82_16 C81_16 1_555 1_555
C83_16 C82_16 1_555 1_555
H31_16 C83_16 1_555 1_555
C84_16 C83_16 1_555 1_555
C85_16 O46_16 1_555 1_555
C86_16 C84_16 1_555 1_555
H32_16 C86_16 1_555 1_555
C87_16 C82_16 1_555 1_555
H33_16 C87_16 1_555 1_555
C88_16 C86_16 1_555 1_555
C96_16 O51_16 1_555 1_555
C97_16 C96_16 1_555 1_555
C98_16 C97_16 1_555 1_555
H37_16 C98_16 1_555 1_555
C99_16 C98_16 1_555 1_555
C100_16 C99_16 1_555 1_555
C101_16 C99_16 1_555 1_555
H38_16 C101_16 1_555 1_555
C102_16 C97_16 1_555 1_555
H39_16 C102_16 1_555 1_555
C103_16 C101_16 1_555 1_555
C104_16 C103_16 1_555 1_555
C105_16 C104_16 1_555 1_555
H40_16 C105_16 1_555 1_555
C106_16 C105_16 1_555 1_555
C107_16 C106_16 1_555 1_555
C108_16 C106_16 1_555 1_555
H41_16 C108_16 1_555 1_555
C109_16 C108_16 1_555 1_555
C110_16 C109_16 1_555 1_555
C111_16 C104_16 1_555 1_555
H42_16 C111_16 1_555 1_555
O62_16 Zn32_6 1_555 1_555
O63_16 Zn39_4 1_555 1_555
O64_16 Zn20_7 1_555 1_555
Zn17_16 O38_16 1_555 1_555
Zn22_6 O39_16 1_555 1_555
Zn27_16 O53_16 1_555 1_555
Zn33_16 O58_16 1_555 1_555
Zn45_16 O57_16 1_555 1_555
O66_16 Zn9_16 1_555 1_555
O68_16 Zn20_7 1_555 1_555
O77_16 Zn25 1_555 1_555
O79_16 Zn20_7 1_555 1_555
O86_16 Zn44_4 1_555 1_555
O88_16 Zn32_6 1_555 1_555
Zn25 O60_16 1_555 1_555
Zn31 O60_16 1_555 1_555
Zn39_4 O59_16 1_555 1_555
Zn41_6 O59_16 1_555 1_555
O41_16 C77_16 1_555 1_555
O54_16 Zn21_6 1_555 1_555
C65_16 O64_16 1_555 1_555
C71_16 C72_16 1_555 1_555
C76_16 C77_16 1_555 1_555
C78_16 C79_16 1_555 1_555
C84_16 C85_16 1_555 1_555
C87_16 C88_16 1_555 1_555
C102_16 C103_16 1_555 1_555
C109_16 C111_16 1_555 1_555
O25_13 C52_13 1_555 1_555
O26_13 C52_13 1_555 1_555
H19_13 C50_13 1_555 1_555
C51_13 C50_13 1_555 1_555
C52_13 C51_13 1_555 1_555
C53_13 C51_13 1_555 1_555
H20_13 C53_13 1_555 1_555
C54_13 C53_13 1_555 1_555
O35_5 C61_13 1_555 1_555
O36_5 C61_13 1_555 1_555
C59_13 H22_13 1_555 1_555
C60_13 C59_13 1_555 1_555
C61_13 C60_13 1_555 1_555
C62_13 C60_13 1_555 1_555
H23_13 C62_13 1_555 1_555
C63_13 C54_13 1_555 1_555
Zn27_11 O35_5 1_555 1_555
Zn27_2 O25_13 1_555 1_555
Zn28_5 O36_5 1_555 1_555
Zn31_5 O26_13 1_555 1_555
C62_13 C63_13 1_555 1_555
Zn17_9 O1_9 1_555 1_555
Zn21_5 O28_9 1_555 1_555
Zn27_14 O9_9 1_555 1_555
Zn4_5 O16_9 1_555 1_555
Zn33_2 O4_9 1_555 1_555
Zn6_5 O5_9 1_555 1_555
Zn7_5 O11_9 1_555 1_555
Zn45_2 O23_5 1_555 1_555
O1_9 C1_9 1_555 1_555
O66_14 C5_9 1_555 1_555
O68_14 C5_9 1_555 1_555
O4_9 C13_9 1_555 1_555
O5_9 C13_9 1_555 1_555
O6_9 C16_9 1_555 1_555
O7_9 C16_9 1_555 1_555
O8_9 Zn17_9 1_555 1_555
O9_9 C17_9 1_555 1_555
O10_9 Zn33_2 1_555 1_555
O11_9 C21_9 1_555 1_555
O12_5 C56_9 1_555 1_555
O13_5 C30_9 1_555 1_555
O14_5 C30_9 1_555 1_555
O15_9 Zn17_9 1_555 1_555
O16_9 C32_9 1_555 1_555
O77_9 C36_9 1_555 1_555
O79_9 C36_9 1_555 1_555
O23_5 C48_13 1_555 1_555
O24_5 Zn7_5 1_555 1_555
O27_9 Zn33_2 1_555 1_555
O28_9 Zn17_9 1_555 1_555
C1_9 C2_9 1_555 1_555
C2_9 C3_9 1_555 1_555
C3_9 H1_9 1_555 1_555
C4_9 C3_9 1_555 1_555
C5_9 C4_9 1_555 1_555
C6_9 C4_9 1_555 1_555
H2_9 C6_9 1_555 1_555
C7_9 C2_9 1_555 1_555
H3_9 C7_9 1_555 1_555
C8_9 C6_9 1_555 1_555
C9_9 C8_9 1_555 1_555
C10_9 C9_9 1_555 1_555
H4_9 C10_9 1_555 1_555
C11_9 C9_9 1_555 1_555
H5_9 C11_9 1_555 1_555
C12_9 C11_9 1_555 1_555
C13_9 C12_9 1_555 1_555
C14_9 C12_9 1_555 1_555
H6_9 C14_9 1_555 1_555
C15_9 C10_9 1_555 1_555
C16_9 C15_9 1_555 1_555
C17_9 O8_9 1_555 1_555
C18_9 C17_9 1_555 1_555
C19_9 C18_9 1_555 1_555
H7_9 C19_9 1_555 1_555
C20_9 C19_9 1_555 1_555
C21_9 O10_9 1_555 1_555
C22_9 C20_9 1_555 1_555
H8_9 C22_9 1_555 1_555
C23_9 C18_9 1_555 1_555
H9_9 C23_9 1_555 1_555
C24_9 C22_9 1_555 1_555
C25_9 C24_9 1_555 1_555
C26_9 C25_9 1_555 1_555
H10_9 C26_9 1_555 1_555
C27_9 C26_9 1_555 1_555
O29_5 C56_9 1_555 1_555
C28_9 C27_9 1_555 1_555
H11_9 C28_9 1_555 1_555
C29_9 C28_9 1_555 1_555
C30_9 C29_9 1_555 1_555
C31_9 C25_9 1_555 1_555
H12_9 C31_9 1_555 1_555
C32_9 O15_9 1_555 1_555
C33_9 C32_9 1_555 1_555
C34_9 C33_9 1_555 1_555
H13_9 C34_9 1_555 1_555
C35_9 C34_9 1_555 1_555
C36_9 C35_9 1_555 1_555
C37_9 C35_9 1_555 1_555
H14_9 C37_9 1_555 1_555
C38_9 C33_9 1_555 1_555
H15_9 C38_9 1_555 1_555
C39_9 C37_9 1_555 1_555
C48_13 O24_5 1_555 1_555
C49_13 C48_13 1_555 1_555
C55_13 C49_13 1_555 1_555
H21_13 C55_13 1_555 1_555
O30_9 Zn33_2 1_555 1_555
O31_9 Zn6_5 1_555 1_555
O32_9 Zn21_5 1_555 1_555
C56_9 C27_9 1_555 1_555
O33_13 C57_13 1_555 1_555
O34_13 C57_13 1_555 1_555
C57_13 C58_13 1_555 1_555
C64_13 C58_13 1_555 1_555
H24_13 C64_13 1_555 1_555
Zn17_14 O37_17 1_555 1_555
Zn22_5 O60_17 1_555 1_555
Zn26_5 O45_17 1_555 1_555
Zn12_5 O52_17 1_555 1_555
Zn33_5 O6_9 1_555 1_555
Zn14_5 O7_9 1_555 1_555
Zn15_9 O47_17 1_555 1_555
Zn45_5 O59_17 1_555 1_555
O37_17 C65_17 1_555 1_555
O65_5 C69_17 1_555 1_555
O67_5 C69_17 1_555 1_555
O40_17 Zn33_5 1_555 1_555
O41_17 Zn14_5 1_555 1_555
O42_9 C80_17 1_555 1_555
O43_9 C80_17 1_555 1_555
O44_17 Zn17_14 1_555 1_555
O45_17 C81_17 1_555 1_555
O46_17 Zn33_5 1_555 1_555
O47_17 C85_17 1_555 1_555
O48_9 C112_17 1_555 1_555
O49_9 C94_17 1_555 1_555
O50_9 C94_17 1_555 1_555
O51_17 Zn17_14 1_555 1_555
O52_17 C96_17 1_555 1_555
O77_14 C100_17 1_555 1_555
O79_14 C100_17 1_555 1_555
O55_9 C107_17 1_555 1_555
O56_9 C107_17 1_555 1_555
O85_2 C110_17 1_555 1_555
O87_2 C110_17 1_555 1_555
O59_17 Zn33_5 1_555 1_555
O60_17 Zn17_14 1_555 1_555
C65_17 C66_17 1_555 1_555
C66_17 C67_17 1_555 1_555
C67_17 H25_17 1_555 1_555
C68_17 C67_17 1_555 1_555
C69_17 C68_17 1_555 1_555
C70_17 C68_17 1_555 1_555
H26_17 C70_17 1_555 1_555
C71_17 C66_17 1_555 1_555
H27_17 C71_17 1_555 1_555
C72_17 C70_17 1_555 1_555
C73_17 C72_17 1_555 1_555
C74_17 C73_17 1_555 1_555
H28_17 C74_17 1_555 1_555
C75_17 C73_17 1_555 1_555
H29_17 C75_17 1_555 1_555
C76_17 C75_17 1_555 1_555
C77_17 O40_17 1_555 1_555
C78_17 C76_17 1_555 1_555
H30_17 C78_17 1_555 1_555
C79_17 C74_17 1_555 1_555
C80_17 C79_17 1_555 1_555
C81_17 O44_17 1_555 1_555
C82_17 C81_17 1_555 1_555
C83_17 C82_17 1_555 1_555
H31_17 C83_17 1_555 1_555
C84_17 C83_17 1_555 1_555
C85_17 O46_17 1_555 1_555
C86_17 C84_17 1_555 1_555
H32_17 C86_17 1_555 1_555
C87_17 C82_17 1_555 1_555
H33_17 C87_17 1_555 1_555
C88_17 C86_17 1_555 1_555
C89_17 C88_17 1_555 1_555
C90_17 C89_17 1_555 1_555
H34_17 C90_17 1_555 1_555
C91_17 C90_17 1_555 1_555
O61_9 C112_17 1_555 1_555
C92_17 C91_17 1_555 1_555
H35_17 C92_17 1_555 1_555
C93_17 C92_17 1_555 1_555
C94_17 C93_17 1_555 1_555
C95_17 C89_17 1_555 1_555
H36_17 C95_17 1_555 1_555
C96_17 O51_17 1_555 1_555
C97_17 C96_17 1_555 1_555
C98_17 C97_17 1_555 1_555
H37_17 C98_17 1_555 1_555
C99_17 C98_17 1_555 1_555
C100_17 C99_17 1_555 1_555
C101_17 C99_17 1_555 1_555
H38_17 C101_17 1_555 1_555
C102_17 C97_17 1_555 1_555
H39_17 C102_17 1_555 1_555
C103_17 C101_17 1_555 1_555
C104_17 C103_17 1_555 1_555
C105_17 C104_17 1_555 1_555
H40_17 C105_17 1_555 1_555
C106_17 C105_17 1_555 1_555
C107_17 C106_17 1_555 1_555
C108_17 C106_17 1_555 1_555
H41_17 C108_17 1_555 1_555
C109_17 C108_17 1_555 1_555
C110_17 C109_17 1_555 1_555
C111_17 C104_17 1_555 1_555
H42_17 C111_17 1_555 1_555
O62_17 Zn33_5 1_555 1_555
O63_17 Zn14_5 1_555 1_555
O64_17 Zn22_5 1_555 1_555
C112_17 C91_17 1_555 1_555
Zn22_2 O55_9 1_555 1_555
Zn30_5 O56_9 1_555 1_555
Zn34_3 O42_9 1_555 1_555
Zn35_5 O43_9 1_555 1_555
Zn36_5 O29_5 1_555 1_555
Zn37_3 O13_5 1_555 1_555
Zn38_3 O61_9 1_555 1_555
Zn39_5 O49_9 1_555 1_555
Zn40_5 O12_5 1_555 1_555
Zn41_9 O48_9 1_555 1_555
Zn45_11 O33_13 1_555 1_555
Zn45_14 O14_5 1_555 1_555
Zn46_5 O50_9 1_555 1_555
O69_9 Zn33_2 1_555 1_555
O70_9 Zn6_5 1_555 1_555
O71_5 Zn7_5 1_555 1_555
O72_9 Zn15_9 1_555 1_555
O73_9 Zn14_5 1_555 1_555
O74_5 Zn6_5 1_555 1_555
O75_9 Zn45_5 1_555 1_555
O76_5 Zn45_2 1_555 1_555
O81_5 Zn21_5 1_555 1_555
O82_9 Zn22_5 1_555 1_555
O83_5 Zn4_5 1_555 1_555
O84_9 Zn12_5 1_555 1_555
O89_9 Zn45_5 1_555 1_555
O90_9 Zn15_9 1_555 1_555
O91_5 Zn27_14 1_555 1_555
O92_5 Zn26_5 1_555 1_555
O93_5 Zn4_5 1_555 1_555
O94_5 Zn12_5 1_555 1_555
O95_5 Zn6_5 1_555 1_555
O96_9 Zn14_5 1_555 1_555
Zn27_14 O28_9 1_555 1_555
Zn4_5 O28_9 1_555 1_555
Zn6_5 O27_9 1_555 1_555
Zn7_5 O27_9 1_555 1_555
Zn45_2 O27_9 1_555 1_555
C1_9 O32_9 1_555 1_555
C7_9 C8_9 1_555 1_555
C14_9 C15_9 1_555 1_555
C20_9 C21_9 1_555 1_555
C23_9 C24_9 1_555 1_555
C29_9 C31_9 1_555 1_555
C38_9 C39_9 1_555 1_555
O34_13 Zn40_5 1_555 1_555
Zn26_5 O60_17 1_555 1_555
Zn12_5 O60_17 1_555 1_555
Zn14_5 O59_17 1_555 1_555
Zn15_9 O59_17 1_555 1_555
O41_17 C77_17 1_555 1_555
C65_17 O64_17 1_555 1_555
C71_17 C72_17 1_555 1_555
C76_17 C77_17 1_555 1_555
C78_17 C79_17 1_555 1_555
C84_17 C85_17 1_555 1_555
C87_17 C88_17 1_555 1_555
C93_17 C95_17 1_555 1_555
C102_17 C103_17 1_555 1_555
C109_17 C111_17 1_555 1_555
O19_5 C43_9 1_555 1_555
O20_5 C43_9 1_555 1_555
O86_7 C46_9 1_555 1_555
O88_7 C46_9 1_555 1_555
C41_9 C40_9 1_555 1_555
H16_9 C41_9 1_555 1_555
C42_9 C41_9 1_555 1_555
C43_9 C42_9 1_555 1_555
C44_9 C42_9 1_555 1_555
H17_9 C44_9 1_555 1_555
C45_9 C44_9 1_555 1_555
C46_9 C45_9 1_555 1_555
C47_9 C40_9 1_555 1_555
H18_9 C47_9 1_555 1_555
Zn21_3 O19_5 1_555 1_555
Zn29_5 O20_5 1_555 1_555
C45_9 C47_9 1_555 1_555
O55_10 C107_18 1_555 1_555
O56_10 C107_18 1_555 1_555
O85 C110_18 1_555 1_555
O87 C110_18 1_555 1_555
C105_18 C104_18 1_555 1_555
H40_18 C105_18 1_555 1_555
C106_18 C105_18 1_555 1_555
C107_18 C106_18 1_555 1_555
C108_18 C106_18 1_555 1_555
H41_18 C108_18 1_555 1_555
C109_18 C108_18 1_555 1_555
C110_18 C109_18 1_555 1_555
C111_18 C104_18 1_555 1_555
H42_18 C111_18 1_555 1_555
Zn22 O55_10 1_555 1_555
Zn30_6 O56_10 1_555 1_555
C109_18 C111_18 1_555 1_555
O48_10 C112_18 1_555 1_555
O49_10 C94_18 1_555 1_555
O50_10 C94_18 1_555 1_555
C90_18 C89_18 1_555 1_555
H34_18 C90_18 1_555 1_555
C91_18 C90_18 1_555 1_555
O61_10 C112_18 1_555 1_555
C92_18 C91_18 1_555 1_555
H35_18 C92_18 1_555 1_555
C93_18 C92_18 1_555 1_555
C94_18 C93_18 1_555 1_555
C95_18 C89_18 1_555 1_555
H36_18 C95_18 1_555 1_555
C112_18 C91_18 1_555 1_555
Zn37_3 O61_10 1_555 1_555
Zn39_6 O49_10 1_555 1_555
Zn41_10 O48_10 1_555 1_555
Zn46_6 O50_10 1_555 1_555
C93_18 C95_18 1_555 1_555
Zn17_10 O1_10 1_555 1_555
Zn21_6 O28_10 1_555 1_555
Zn27_16 O9_10 1_555 1_555
Zn4_6 O16_10 1_555 1_555
Zn33 O4_10 1_555 1_555
Zn6_6 O5_10 1_555 1_555
Zn7_6 O11_10 1_555 1_555
Zn45 O23_6 1_555 1_555
O1_10 C1_10 1_555 1_555
O66_16 C5_10 1_555 1_555
O68_16 C5_10 1_555 1_555
O4_10 C13_10 1_555 1_555
O5_10 C13_10 1_555 1_555
O6_10 C16_10 1_555 1_555
O7_10 C16_10 1_555 1_555
O8_10 Zn17_10 1_555 1_555
O9_10 C17_10 1_555 1_555
O10_10 Zn33 1_555 1_555
O11_10 C21_10 1_555 1_555
O12_6 C56_10 1_555 1_555
O13_6 C30_10 1_555 1_555
O14_6 C30_10 1_555 1_555
O15_10 Zn17_10 1_555 1_555
O16_10 C32_10 1_555 1_555
O77_10 C36_10 1_555 1_555
O79_10 C36_10 1_555 1_555
O19_6 C43_10 1_555 1_555
O20_6 C43_10 1_555 1_555
O86_5 C46_10 1_555 1_555
O88_5 C46_10 1_555 1_555
O23_6 C48_14 1_555 1_555
O24_6 Zn7_6 1_555 1_555
O25_14 C52_14 1_555 1_555
O26_14 C52_14 1_555 1_555
O27_10 Zn33 1_555 1_555
O28_10 Zn17_10 1_555 1_555
C1_10 C2_10 1_555 1_555
C2_10 C3_10 1_555 1_555
C3_10 H1_10 1_555 1_555
C4_10 C3_10 1_555 1_555
C5_10 C4_10 1_555 1_555
C6_10 C4_10 1_555 1_555
H2_10 C6_10 1_555 1_555
C7_10 C2_10 1_555 1_555
H3_10 C7_10 1_555 1_555
C8_10 C6_10 1_555 1_555
C9_10 C8_10 1_555 1_555
C10_10 C9_10 1_555 1_555
H4_10 C10_10 1_555 1_555
C11_10 C9_10 1_555 1_555
H5_10 C11_10 1_555 1_555
C12_10 C11_10 1_555 1_555
C13_10 C12_10 1_555 1_555
C14_10 C12_10 1_555 1_555
H6_10 C14_10 1_555 1_555
C15_10 C10_10 1_555 1_555
C16_10 C15_10 1_555 1_555
C17_10 O8_10 1_555 1_555
C18_10 C17_10 1_555 1_555
C19_10 C18_10 1_555 1_555
H7_10 C19_10 1_555 1_555
C20_10 C19_10 1_555 1_555
C21_10 O10_10 1_555 1_555
C22_10 C20_10 1_555 1_555
H8_10 C22_10 1_555 1_555
C23_10 C18_10 1_555 1_555
H9_10 C23_10 1_555 1_555
C24_10 C22_10 1_555 1_555
C25_10 C24_10 1_555 1_555
C26_10 C25_10 1_555 1_555
H10_10 C26_10 1_555 1_555
C27_10 C26_10 1_555 1_555
O29_6 C56_10 1_555 1_555
C28_10 C27_10 1_555 1_555
H11_10 C28_10 1_555 1_555
C29_10 C28_10 1_555 1_555
C30_10 C29_10 1_555 1_555
C31_10 C25_10 1_555 1_555
H12_10 C31_10 1_555 1_555
C32_10 O15_10 1_555 1_555
C33_10 C32_10 1_555 1_555
C34_10 C33_10 1_555 1_555
H13_10 C34_10 1_555 1_555
C35_10 C34_10 1_555 1_555
C36_10 C35_10 1_555 1_555
C37_10 C35_10 1_555 1_555
H14_10 C37_10 1_555 1_555
C38_10 C33_10 1_555 1_555
H15_10 C38_10 1_555 1_555
C39_10 C37_10 1_555 1_555
C40_10 C39_10 1_555 1_555
C41_10 C40_10 1_555 1_555
H16_10 C41_10 1_555 1_555
C42_10 C41_10 1_555 1_555
C43_10 C42_10 1_555 1_555
C44_10 C42_10 1_555 1_555
H17_10 C44_10 1_555 1_555
C45_10 C44_10 1_555 1_555
C46_10 C45_10 1_555 1_555
C47_10 C40_10 1_555 1_555
H18_10 C47_10 1_555 1_555
C48_14 O24_6 1_555 1_555
C49_14 C48_14 1_555 1_555
C50_14 C49_14 1_555 1_555
H19_14 C50_14 1_555 1_555
C51_14 C50_14 1_555 1_555
C52_14 C51_14 1_555 1_555
C53_14 C51_14 1_555 1_555
H20_14 C53_14 1_555 1_555
C54_14 C53_14 1_555 1_555
C55_14 C49_14 1_555 1_555
H21_14 C55_14 1_555 1_555
O30_10 Zn33 1_555 1_555
O31_10 Zn6_6 1_555 1_555
O32_10 Zn21_6 1_555 1_555
C56_10 C27_10 1_555 1_555
O33_14 C57_14 1_555 1_555
O34_14 C57_14 1_555 1_555
O35_6 C61_14 1_555 1_555
O36_6 C61_14 1_555 1_555
C57_14 C58_14 1_555 1_555
C58_14 C59_14 1_555 1_555
C59_14 H22_14 1_555 1_555
C60_14 C59_14 1_555 1_555
C61_14 C60_14 1_555 1_555
C62_14 C60_14 1_555 1_555
H23_14 C62_14 1_555 1_555
C63_14 C54_14 1_555 1_555
C64_14 C58_14 1_555 1_555
H24_14 C64_14 1_555 1_555
Zn17_16 O37_18 1_555 1_555
Zn22_6 O60_18 1_555 1_555
Zn26_6 O45_18 1_555 1_555
Zn12_6 O52_18 1_555 1_555
Zn33_7 O6_10 1_555 1_555
Zn14_6 O7_10 1_555 1_555
Zn15_10 O47_18 1_555 1_555
Zn45_7 O59_18 1_555 1_555
O37_18 C65_18 1_555 1_555
O65_6 C69_18 1_555 1_555
O67_6 C69_18 1_555 1_555
O40_18 Zn33_7 1_555 1_555
O41_18 Zn14_6 1_555 1_555
O42_10 C80_18 1_555 1_555
O43_10 C80_18 1_555 1_555
O44_18 Zn17_16 1_555 1_555
O45_18 C81_18 1_555 1_555
O46_18 Zn33_7 1_555 1_555
O47_18 C85_18 1_555 1_555
O51_18 Zn17_16 1_555 1_555
O52_18 C96_18 1_555 1_555
O77_16 C100_18 1_555 1_555
O79_16 C100_18 1_555 1_555
O59_18 Zn33_7 1_555 1_555
O60_18 Zn17_16 1_555 1_555
C65_18 C66_18 1_555 1_555
C66_18 C67_18 1_555 1_555
C67_18 H25_18 1_555 1_555
C68_18 C67_18 1_555 1_555
C69_18 C68_18 1_555 1_555
C70_18 C68_18 1_555 1_555
H26_18 C70_18 1_555 1_555
C71_18 C66_18 1_555 1_555
H27_18 C71_18 1_555 1_555
C72_18 C70_18 1_555 1_555
C73_18 C72_18 1_555 1_555
C74_18 C73_18 1_555 1_555
H28_18 C74_18 1_555 1_555
C75_18 C73_18 1_555 1_555
H29_18 C75_18 1_555 1_555
C76_18 C75_18 1_555 1_555
C77_18 O40_18 1_555 1_555
C78_18 C76_18 1_555 1_555
H30_18 C78_18 1_555 1_555
C79_18 C74_18 1_555 1_555
C80_18 C79_18 1_555 1_555
C81_18 O44_18 1_555 1_555
C82_18 C81_18 1_555 1_555
C83_18 C82_18 1_555 1_555
H31_18 C83_18 1_555 1_555
C84_18 C83_18 1_555 1_555
C85_18 O46_18 1_555 1_555
C86_18 C84_18 1_555 1_555
H32_18 C86_18 1_555 1_555
C87_18 C82_18 1_555 1_555
H33_18 C87_18 1_555 1_555
C88_18 C86_18 1_555 1_555
C96_18 O51_18 1_555 1_555
C97_18 C96_18 1_555 1_555
C98_18 C97_18 1_555 1_555
H37_18 C98_18 1_555 1_555
C99_18 C98_18 1_555 1_555
C100_18 C99_18 1_555 1_555
C101_18 C99_18 1_555 1_555
H38_18 C101_18 1_555 1_555
C102_18 C97_18 1_555 1_555
H39_18 C102_18 1_555 1_555
C103_18 C101_18 1_555 1_555
O62_18 Zn33_7 1_555 1_555
O63_18 Zn14_6 1_555 1_555
O64_18 Zn22_6 1_555 1_555
Zn21_4 O19_6 1_555 1_555
Zn27_12 O35_6 1_555 1_555
Zn27 O25_14 1_555 1_555
Zn28_6 O36_6 1_555 1_555
Zn29_6 O20_6 1_555 1_555
Zn31_6 O26_14 1_555 1_555
Zn34_4 O42_10 1_555 1_555
Zn35_6 O43_10 1_555 1_555
Zn36_6 O29_6 1_555 1_555
Zn38_3 O13_6 1_555 1_555
Zn40_6 O12_6 1_555 1_555
Zn45_12 O33_14 1_555 1_555
Zn45_16 O14_6 1_555 1_555
O69_10 Zn33 1_555 1_555
O70_10 Zn6_6 1_555 1_555
O71_6 Zn7_6 1_555 1_555
O72_10 Zn15_10 1_555 1_555
O73_10 Zn14_6 1_555 1_555
O74_6 Zn6_6 1_555 1_555
O75_10 Zn45_7 1_555 1_555
O76_6 Zn45 1_555 1_555
O81_6 Zn21_6 1_555 1_555
O82_10 Zn22_6 1_555 1_555
O83_6 Zn4_6 1_555 1_555
O84_10 Zn12_6 1_555 1_555
O89_10 Zn45_7 1_555 1_555
O90_10 Zn15_10 1_555 1_555
O91_6 Zn27_16 1_555 1_555
O92_6 Zn26_6 1_555 1_555
O93_6 Zn4_6 1_555 1_555
O94_6 Zn12_6 1_555 1_555
O95_6 Zn6_6 1_555 1_555
O96_10 Zn14_6 1_555 1_555
Zn27_16 O28_10 1_555 1_555
Zn4_6 O28_10 1_555 1_555
Zn6_6 O27_10 1_555 1_555
Zn7_6 O27_10 1_555 1_555
Zn45 O27_10 1_555 1_555
C1_10 O32_10 1_555 1_555
C7_10 C8_10 1_555 1_555
C14_10 C15_10 1_555 1_555
C20_10 C21_10 1_555 1_555
C23_10 C24_10 1_555 1_555
C29_10 C31_10 1_555 1_555
C38_10 C39_10 1_555 1_555
C45_10 C47_10 1_555 1_555
C54_14 C55_14 1_555 1_555
O34_14 Zn40_6 1_555 1_555
C62_14 C63_14 1_555 1_555
C63_14 C64_14 1_555 1_555
Zn26_6 O60_18 1_555 1_555
Zn12_6 O60_18 1_555 1_555
Zn14_6 O59_18 1_555 1_555
Zn15_10 O59_18 1_555 1_555
O41_18 C77_18 1_555 1_555
C65_18 O64_18 1_555 1_555
C71_18 C72_18 1_555 1_555
C76_18 C77_18 1_555 1_555
C78_18 C79_18 1_555 1_555
C84_18 C85_18 1_555 1_555
C87_18 C88_18 1_555 1_555
C102_18 C103_18 1_555 1_555
Zn17_11 O1_11 1_555 1_555
Zn21_7 O28_11 1_555 1_555
Zn27_15 O9_11 1_555 1_555
Zn4_7 O16_11 1_555 1_555
Zn33_4 O4_11 1_555 1_555
Zn6_7 O5_11 1_555 1_555
Zn7_7 O11_11 1_555 1_555
Zn45_4 O23_7 1_555 1_555
O1_11 C1_11 1_555 1_555
O66_15 C5_11 1_555 1_555
O68_15 C5_11 1_555 1_555
O4_11 C13_11 1_555 1_555
O5_11 C13_11 1_555 1_555
O6_11 C16_11 1_555 1_555
O7_11 C16_11 1_555 1_555
O8_11 Zn17_11 1_555 1_555
O9_11 C17_11 1_555 1_555
O10_11 Zn33_4 1_555 1_555
O11_11 C21_11 1_555 1_555
O15_11 Zn17_11 1_555 1_555
O16_11 C32_11 1_555 1_555
O77_11 C36_11 1_555 1_555
O79_11 C36_11 1_555 1_555
O19_7 C43_11 1_555 1_555
O20_7 C43_11 1_555 1_555
O86_6 C46_11 1_555 1_555
O88_6 C46_11 1_555 1_555
O23_7 C48_15 1_555 1_555
O24_7 Zn7_7 1_555 1_555
O27_11 Zn33_4 1_555 1_555
O28_11 Zn17_11 1_555 1_555
C1_11 C2_11 1_555 1_555
C2_11 C3_11 1_555 1_555
C3_11 H1_11 1_555 1_555
C4_11 C3_11 1_555 1_555
C5_11 C4_11 1_555 1_555
C6_11 C4_11 1_555 1_555
H2_11 C6_11 1_555 1_555
C7_11 C2_11 1_555 1_555
H3_11 C7_11 1_555 1_555
C8_11 C6_11 1_555 1_555
C9_11 C8_11 1_555 1_555
C10_11 C9_11 1_555 1_555
H4_11 C10_11 1_555 1_555
C11_11 C9_11 1_555 1_555
H5_11 C11_11 1_555 1_555
C12_11 C11_11 1_555 1_555
C13_11 C12_11 1_555 1_555
C14_11 C12_11 1_555 1_555
H6_11 C14_11 1_555 1_555
C15_11 C10_11 1_555 1_555
C16_11 C15_11 1_555 1_555
C17_11 O8_11 1_555 1_555
C18_11 C17_11 1_555 1_555
C19_11 C18_11 1_555 1_555
H7_11 C19_11 1_555 1_555
C20_11 C19_11 1_555 1_555
C21_11 O10_11 1_555 1_555
C22_11 C20_11 1_555 1_555
H8_11 C22_11 1_555 1_555
C23_11 C18_11 1_555 1_555
H9_11 C23_11 1_555 1_555
C24_11 C22_11 1_555 1_555
C32_11 O15_11 1_555 1_555
C33_11 C32_11 1_555 1_555
C34_11 C33_11 1_555 1_555
H13_11 C34_11 1_555 1_555
C35_11 C34_11 1_555 1_555
C36_11 C35_11 1_555 1_555
C37_11 C35_11 1_555 1_555
H14_11 C37_11 1_555 1_555
C38_11 C33_11 1_555 1_555
H15_11 C38_11 1_555 1_555
C39_11 C37_11 1_555 1_555
C40_11 C39_11 1_555 1_555
C41_11 C40_11 1_555 1_555
H16_11 C41_11 1_555 1_555
C42_11 C41_11 1_555 1_555
C43_11 C42_11 1_555 1_555
C44_11 C42_11 1_555 1_555
H17_11 C44_11 1_555 1_555
C45_11 C44_11 1_555 1_555
C46_11 C45_11 1_555 1_555
C47_11 C40_11 1_555 1_555
H18_11 C47_11 1_555 1_555
C48_15 O24_7 1_555 1_555
C49_15 C48_15 1_555 1_555
C55_15 C49_15 1_555 1_555
H21_15 C55_15 1_555 1_555
O30_11 Zn33_4 1_555 1_555
O31_11 Zn6_7 1_555 1_555
O32_11 Zn21_7 1_555 1_555
Zn17_15 O37_19 1_555 1_555
Zn22_7 O60_19 1_555 1_555
Zn26_7 O45_19 1_555 1_555
Zn12_7 O52_19 1_555 1_555
Zn33_8 O6_11 1_555 1_555
Zn14_7 O7_11 1_555 1_555
Zn15_11 O47_19 1_555 1_555
Zn45_8 O59_19 1_555 1_555
O37_19 C65_19 1_555 1_555
O65_7 C69_19 1_555 1_555
O67_7 C69_19 1_555 1_555
O40_19 Zn33_8 1_555 1_555
O41_19 Zn14_7 1_555 1_555
O42_11 C80_19 1_555 1_555
O43_11 C80_19 1_555 1_555
O44_19 Zn17_15 1_555 1_555
O45_19 C81_19 1_555 1_555
O46_19 Zn33_8 1_555 1_555
O47_19 C85_19 1_555 1_555
O51_19 Zn17_15 1_555 1_555
O52_19 C96_19 1_555 1_555
O77_15 C100_19 1_555 1_555
O79_15 C100_19 1_555 1_555
O55_11 C107_19 1_555 1_555
O56_11 C107_19 1_555 1_555
O85_4 C110_19 1_555 1_555
O87_4 C110_19 1_555 1_555
O59_19 Zn33_8 1_555 1_555
O60_19 Zn17_15 1_555 1_555
C65_19 C66_19 1_555 1_555
C66_19 C67_19 1_555 1_555
C67_19 H25_19 1_555 1_555
C68_19 C67_19 1_555 1_555
C69_19 C68_19 1_555 1_555
C70_19 C68_19 1_555 1_555
H26_19 C70_19 1_555 1_555
C71_19 C66_19 1_555 1_555
H27_19 C71_19 1_555 1_555
C72_19 C70_19 1_555 1_555
C73_19 C72_19 1_555 1_555
C74_19 C73_19 1_555 1_555
H28_19 C74_19 1_555 1_555
C75_19 C73_19 1_555 1_555
H29_19 C75_19 1_555 1_555
C76_19 C75_19 1_555 1_555
C77_19 O40_19 1_555 1_555
C78_19 C76_19 1_555 1_555
H30_19 C78_19 1_555 1_555
C79_19 C74_19 1_555 1_555
C80_19 C79_19 1_555 1_555
C81_19 O44_19 1_555 1_555
C82_19 C81_19 1_555 1_555
C83_19 C82_19 1_555 1_555
H31_19 C83_19 1_555 1_555
C84_19 C83_19 1_555 1_555
C85_19 O46_19 1_555 1_555
C86_19 C84_19 1_555 1_555
H32_19 C86_19 1_555 1_555
C87_19 C82_19 1_555 1_555
H33_19 C87_19 1_555 1_555
C88_19 C86_19 1_555 1_555
C96_19 O51_19 1_555 1_555
C97_19 C96_19 1_555 1_555
C98_19 C97_19 1_555 1_555
H37_19 C98_19 1_555 1_555
C99_19 C98_19 1_555 1_555
C100_19 C99_19 1_555 1_555
C101_19 C99_19 1_555 1_555
H38_19 C101_19 1_555 1_555
C102_19 C97_19 1_555 1_555
H39_19 C102_19 1_555 1_555
C103_19 C101_19 1_555 1_555
C104_19 C103_19 1_555 1_555
C105_19 C104_19 1_555 1_555
H40_19 C105_19 1_555 1_555
C106_19 C105_19 1_555 1_555
C107_19 C106_19 1_555 1_555
C108_19 C106_19 1_555 1_555
H41_19 C108_19 1_555 1_555
C109_19 C108_19 1_555 1_555
C110_19 C109_19 1_555 1_555
C111_19 C104_19 1_555 1_555
H42_19 C111_19 1_555 1_555
O62_19 Zn33_8 1_555 1_555
O63_19 Zn14_7 1_555 1_555
O64_19 Zn22_7 1_555 1_555
Zn21 O19_7 1_555 1_555
Zn22_4 O55_11 1_555 1_555
Zn29_7 O20_7 1_555 1_555
Zn30_7 O56_11 1_555 1_555
Zn34 O42_11 1_555 1_555
Zn35_7 O43_11 1_555 1_555
O69_11 Zn33_4 1_555 1_555
O70_11 Zn6_7 1_555 1_555
O71_7 Zn7_7 1_555 1_555
O72_11 Zn15_11 1_555 1_555
O73_11 Zn14_7 1_555 1_555
O74_7 Zn6_7 1_555 1_555
O75_11 Zn45_8 1_555 1_555
O76_7 Zn45_4 1_555 1_555
O81_7 Zn21_7 1_555 1_555
O82_11 Zn22_7 1_555 1_555
O83_7 Zn4_7 1_555 1_555
O84_11 Zn12_7 1_555 1_555
O89_11 Zn45_8 1_555 1_555
O90_11 Zn15_11 1_555 1_555
O91_7 Zn27_15 1_555 1_555
O92_7 Zn26_7 1_555 1_555
O93_7 Zn4_7 1_555 1_555
O94_7 Zn12_7 1_555 1_555
O95_7 Zn6_7 1_555 1_555
O96_11 Zn14_7 1_555 1_555
Zn27_15 O28_11 1_555 1_555
Zn4_7 O28_11 1_555 1_555
Zn6_7 O27_11 1_555 1_555
Zn7_7 O27_11 1_555 1_555
Zn45_4 O27_11 1_555 1_555
C1_11 O32_11 1_555 1_555
C7_11 C8_11 1_555 1_555
C14_11 C15_11 1_555 1_555
C20_11 C21_11 1_555 1_555
C23_11 C24_11 1_555 1_555
C38_11 C39_11 1_555 1_555
C45_11 C47_11 1_555 1_555
Zn26_7 O60_19 1_555 1_555
Zn12_7 O60_19 1_555 1_555
Zn14_7 O59_19 1_555 1_555
Zn15_11 O59_19 1_555 1_555
O41_19 C77_19 1_555 1_555
C65_19 O64_19 1_555 1_555
C71_19 C72_19 1_555 1_555
C76_19 C77_19 1_555 1_555
C78_19 C79_19 1_555 1_555
C84_19 C85_19 1_555 1_555
C87_19 C88_19 1_555 1_555
C102_19 C103_19 1_555 1_555
C109_19 C111_19 1_555 1_555
O48_11 C112_19 1_555 1_555
O49_11 C94_19 1_555 1_555
O50_11 C94_19 1_555 1_555
C90_19 C89_19 1_555 1_555
H34_19 C90_19 1_555 1_555
C91_19 C90_19 1_555 1_555
O61_11 C112_19 1_555 1_555
C92_19 C91_19 1_555 1_555
H35_19 C92_19 1_555 1_555
C93_19 C92_19 1_555 1_555
C94_19 C93_19 1_555 1_555
C95_19 C89_19 1_555 1_555
H36_19 C95_19 1_555 1_555
C112_19 C91_19 1_555 1_555
Zn38_4 O61_11 1_555 1_555
Zn39_7 O49_11 1_555 1_555
Zn41_11 O48_11 1_555 1_555
Zn46_7 O50_11 1_555 1_555
C93_19 C95_19 1_555 1_555
O12_7 C56_11 1_555 1_555
O13_7 C30_11 1_555 1_555
O14_7 C30_11 1_555 1_555
C26_11 C25_11 1_555 1_555
H10_11 C26_11 1_555 1_555
C27_11 C26_11 1_555 1_555
O29_7 C56_11 1_555 1_555
C28_11 C27_11 1_555 1_555
H11_11 C28_11 1_555 1_555
C29_11 C28_11 1_555 1_555
C30_11 C29_11 1_555 1_555
C31_11 C25_11 1_555 1_555
H12_11 C31_11 1_555 1_555
C56_11 C27_11 1_555 1_555
O33_15 C57_15 1_555 1_555
O34_15 C57_15 1_555 1_555
C57_15 C58_15 1_555 1_555
C64_15 C58_15 1_555 1_555
H24_15 C64_15 1_555 1_555
Zn36_7 O29_7 1_555 1_555
Zn37_4 O13_7 1_555 1_555
Zn40_7 O12_7 1_555 1_555
Zn45_9 O33_15 1_555 1_555
Zn45_15 O14_7 1_555 1_555
C29_11 C31_11 1_555 1_555
O34_15 Zn40_7 1_555 1_555
O25_15 C52_15 1_555 1_555
O26_15 C52_15 1_555 1_555
H19_15 C50_15 1_555 1_555
C51_15 C50_15 1_555 1_555
C52_15 C51_15 1_555 1_555
C53_15 C51_15 1_555 1_555
H20_15 C53_15 1_555 1_555
C54_15 C53_15 1_555 1_555
Zn27_4 O25_15 1_555 1_555
Zn31_7 O26_15 1_555 1_555
O35_7 C61_15 1_555 1_555
O36_7 C61_15 1_555 1_555
C59_15 H22_15 1_555 1_555
C60_15 C59_15 1_555 1_555
C61_15 C60_15 1_555 1_555
C62_15 C60_15 1_555 1_555
H23_15 C62_15 1_555 1_555
Zn27_9 O35_7 1_555 1_555
Zn28_7 O36_7 1_555 1_555
C62_15 C63_15 1_555 1_555
O12_8 C56_12 1_555 1_555
O13_8 C30_12 1_555 1_555
O14_8 C30_12 1_555 1_555
C26_12 C25_12 1_555 1_555
H10_12 C26_12 1_555 1_555
C27_12 C26_12 1_555 1_555
O29_8 C56_12 1_555 1_555
C28_12 C27_12 1_555 1_555
H11_12 C28_12 1_555 1_555
C29_12 C28_12 1_555 1_555
C30_12 C29_12 1_555 1_555
C31_12 C25_12 1_555 1_555
H12_12 C31_12 1_555 1_555
C56_12 C27_12 1_555 1_555
O33_16 C57_16 1_555 1_555
O34_16 C57_16 1_555 1_555
O35_8 C61_16 1_555 1_555
O36_8 C61_16 1_555 1_555
C57_16 C58_16 1_555 1_555
C58_16 C59_16 1_555 1_555
C59_16 H22_16 1_555 1_555
C60_16 C59_16 1_555 1_555
C61_16 C60_16 1_555 1_555
C62_16 C60_16 1_555 1_555
H23_16 C62_16 1_555 1_555
C64_16 C58_16 1_555 1_555
H24_16 C64_16 1_555 1_555
Zn27_10 O35_8 1_555 1_555
Zn28_8 O36_8 1_555 1_555
Zn36_8 O29_8 1_555 1_555
Zn38_4 O13_8 1_555 1_555
Zn40_8 O12_8 1_555 1_555
Zn45_10 O33_16 1_555 1_555
Zn45_13 O14_8 1_555 1_555
C29_12 C31_12 1_555 1_555
O34_16 Zn40_8 1_555 1_555
C62_16 C63_16 1_555 1_555
C63_16 C64_16 1_555 1_555
O19_8 C43_12 1_555 1_555
O20_8 C43_12 1_555 1_555
O86_8 C46_12 1_555 1_555
O88_8 C46_12 1_555 1_555
C41_12 C40_12 1_555 1_555
H16_12 C41_12 1_555 1_555
C42_12 C41_12 1_555 1_555
C43_12 C42_12 1_555 1_555
C44_12 C42_12 1_555 1_555
H17_12 C44_12 1_555 1_555
C45_12 C44_12 1_555 1_555
C46_12 C45_12 1_555 1_555
C47_12 C40_12 1_555 1_555
H18_12 C47_12 1_555 1_555
Zn21_2 O19_8 1_555 1_555
Zn29_8 O20_8 1_555 1_555
C45_12 C47_12 1_555 1_555
Zn17_12 O1_12 1_555 1_555
Zn21_8 O28_12 1_555 1_555
Zn27_13 O9_12 1_555 1_555
Zn4_8 O16_12 1_555 1_555
Zn33_3 O4_12 1_555 1_555
Zn6_8 O5_12 1_555 1_555
Zn7_8 O11_12 1_555 1_555
Zn45_3 O23_8 1_555 1_555
O1_12 C1_12 1_555 1_555
O66_13 C5_12 1_555 1_555
O68_13 C5_12 1_555 1_555
O4_12 C13_12 1_555 1_555
O5_12 C13_12 1_555 1_555
O6_12 C16_12 1_555 1_555
O7_12 C16_12 1_555 1_555
O8_12 Zn17_12 1_555 1_555
O9_12 C17_12 1_555 1_555
O10_12 Zn33_3 1_555 1_555
O11_12 C21_12 1_555 1_555
O15_12 Zn17_12 1_555 1_555
O16_12 C32_12 1_555 1_555
O77_12 C36_12 1_555 1_555
O79_12 C36_12 1_555 1_555
O23_8 C48_16 1_555 1_555
O24_8 Zn7_8 1_555 1_555
O25_16 C52_16 1_555 1_555
O26_16 C52_16 1_555 1_555
O27_12 Zn33_3 1_555 1_555
O28_12 Zn17_12 1_555 1_555
C1_12 C2_12 1_555 1_555
C2_12 C3_12 1_555 1_555
C3_12 H1_12 1_555 1_555
C4_12 C3_12 1_555 1_555
C5_12 C4_12 1_555 1_555
C6_12 C4_12 1_555 1_555
H2_12 C6_12 1_555 1_555
C7_12 C2_12 1_555 1_555
H3_12 C7_12 1_555 1_555
C8_12 C6_12 1_555 1_555
C9_12 C8_12 1_555 1_555
C10_12 C9_12 1_555 1_555
H4_12 C10_12 1_555 1_555
C11_12 C9_12 1_555 1_555
H5_12 C11_12 1_555 1_555
C12_12 C11_12 1_555 1_555
C13_12 C12_12 1_555 1_555
C14_12 C12_12 1_555 1_555
H6_12 C14_12 1_555 1_555
C15_12 C10_12 1_555 1_555
C16_12 C15_12 1_555 1_555
C17_12 O8_12 1_555 1_555
C18_12 C17_12 1_555 1_555
C19_12 C18_12 1_555 1_555
H7_12 C19_12 1_555 1_555
C20_12 C19_12 1_555 1_555
C21_12 O10_12 1_555 1_555
C22_12 C20_12 1_555 1_555
H8_12 C22_12 1_555 1_555
C23_12 C18_12 1_555 1_555
H9_12 C23_12 1_555 1_555
C24_12 C22_12 1_555 1_555
C32_12 O15_12 1_555 1_555
C33_12 C32_12 1_555 1_555
C34_12 C33_12 1_555 1_555
H13_12 C34_12 1_555 1_555
C35_12 C34_12 1_555 1_555
C36_12 C35_12 1_555 1_555
C37_12 C35_12 1_555 1_555
H14_12 C37_12 1_555 1_555
C38_12 C33_12 1_555 1_555
H15_12 C38_12 1_555 1_555
C39_12 C37_12 1_555 1_555
C48_16 O24_8 1_555 1_555
C49_16 C48_16 1_555 1_555
C50_16 C49_16 1_555 1_555
H19_16 C50_16 1_555 1_555
C51_16 C50_16 1_555 1_555
C52_16 C51_16 1_555 1_555
C53_16 C51_16 1_555 1_555
H20_16 C53_16 1_555 1_555
C54_16 C53_16 1_555 1_555
C55_16 C49_16 1_555 1_555
H21_16 C55_16 1_555 1_555
O30_12 Zn33_3 1_555 1_555
O31_12 Zn6_8 1_555 1_555
O32_12 Zn21_8 1_555 1_555
Zn17_13 O37_20 1_555 1_555
Zn22_8 O60_20 1_555 1_555
Zn26_8 O45_20 1_555 1_555
Zn12_8 O52_20 1_555 1_555
Zn33_6 O6_12 1_555 1_555
Zn14_8 O7_12 1_555 1_555
Zn15_12 O47_20 1_555 1_555
Zn45_6 O59_20 1_555 1_555
O37_20 C65_20 1_555 1_555
O65_8 C69_20 1_555 1_555
O67_8 C69_20 1_555 1_555
O40_20 Zn33_6 1_555 1_555
O41_20 Zn14_8 1_555 1_555
O42_12 C80_20 1_555 1_555
O43_12 C80_20 1_555 1_555
O44_20 Zn17_13 1_555 1_555
O45_20 C81_20 1_555 1_555
O46_20 Zn33_6 1_555 1_555
O47_20 C85_20 1_555 1_555
O48_12 C112_20 1_555 1_555
O49_12 C94_20 1_555 1_555
O50_12 C94_20 1_555 1_555
O51_20 Zn17_13 1_555 1_555
O52_20 C96_20 1_555 1_555
O77_13 C100_20 1_555 1_555
O79_13 C100_20 1_555 1_555
O59_20 Zn33_6 1_555 1_555
O60_20 Zn17_13 1_555 1_555
C65_20 C66_20 1_555 1_555
C66_20 C67_20 1_555 1_555
C67_20 H25_20 1_555 1_555
C68_20 C67_20 1_555 1_555
C69_20 C68_20 1_555 1_555
C70_20 C68_20 1_555 1_555
H26_20 C70_20 1_555 1_555
C71_20 C66_20 1_555 1_555
H27_20 C71_20 1_555 1_555
C72_20 C70_20 1_555 1_555
C73_20 C72_20 1_555 1_555
C74_20 C73_20 1_555 1_555
H28_20 C74_20 1_555 1_555
C75_20 C73_20 1_555 1_555
H29_20 C75_20 1_555 1_555
C76_20 C75_20 1_555 1_555
C77_20 O40_20 1_555 1_555
C78_20 C76_20 1_555 1_555
H30_20 C78_20 1_555 1_555
C79_20 C74_20 1_555 1_555
C80_20 C79_20 1_555 1_555
C81_20 O44_20 1_555 1_555
C82_20 C81_20 1_555 1_555
C83_20 C82_20 1_555 1_555
H31_20 C83_20 1_555 1_555
C84_20 C83_20 1_555 1_555
C85_20 O46_20 1_555 1_555
C86_20 C84_20 1_555 1_555
H32_20 C86_20 1_555 1_555
C87_20 C82_20 1_555 1_555
H33_20 C87_20 1_555 1_555
C88_20 C86_20 1_555 1_555
C89_20 C88_20 1_555 1_555
C90_20 C89_20 1_555 1_555
H34_20 C90_20 1_555 1_555
C91_20 C90_20 1_555 1_555
O61_12 C112_20 1_555 1_555
C92_20 C91_20 1_555 1_555
H35_20 C92_20 1_555 1_555
C93_20 C92_20 1_555 1_555
C94_20 C93_20 1_555 1_555
C95_20 C89_20 1_555 1_555
H36_20 C95_20 1_555 1_555
C96_20 O51_20 1_555 1_555
C97_20 C96_20 1_555 1_555
C98_20 C97_20 1_555 1_555
H37_20 C98_20 1_555 1_555
C99_20 C98_20 1_555 1_555
C100_20 C99_20 1_555 1_555
C101_20 C99_20 1_555 1_555
H38_20 C101_20 1_555 1_555
C102_20 C97_20 1_555 1_555
H39_20 C102_20 1_555 1_555
C103_20 C101_20 1_555 1_555
O62_20 Zn33_6 1_555 1_555
O63_20 Zn14_8 1_555 1_555
O64_20 Zn22_8 1_555 1_555
C112_20 C91_20 1_555 1_555
Zn27_3 O25_16 1_555 1_555
Zn31_8 O26_16 1_555 1_555
Zn34_2 O42_12 1_555 1_555
Zn35_8 O43_12 1_555 1_555
Zn37_4 O61_12 1_555 1_555
Zn39_8 O49_12 1_555 1_555
Zn41_12 O48_12 1_555 1_555
Zn46_8 O50_12 1_555 1_555
O69_12 Zn33_3 1_555 1_555
O70_12 Zn6_8 1_555 1_555
O71_8 Zn7_8 1_555 1_555
O72_12 Zn15_12 1_555 1_555
O73_12 Zn14_8 1_555 1_555
O74_8 Zn6_8 1_555 1_555
O75_12 Zn45_6 1_555 1_555
O76_8 Zn45_3 1_555 1_555
O81_8 Zn21_8 1_555 1_555
O82_12 Zn22_8 1_555 1_555
O83_8 Zn4_8 1_555 1_555
O84_12 Zn12_8 1_555 1_555
O89_12 Zn45_6 1_555 1_555
O90_12 Zn15_12 1_555 1_555
O91_8 Zn27_13 1_555 1_555
O92_8 Zn26_8 1_555 1_555
O93_8 Zn4_8 1_555 1_555
O94_8 Zn12_8 1_555 1_555
O95_8 Zn6_8 1_555 1_555
O96_12 Zn14_8 1_555 1_555
Zn27_13 O28_12 1_555 1_555
Zn4_8 O28_12 1_555 1_555
Zn6_8 O27_12 1_555 1_555
Zn7_8 O27_12 1_555 1_555
Zn45_3 O27_12 1_555 1_555
C1_12 O32_12 1_555 1_555
C7_12 C8_12 1_555 1_555
C14_12 C15_12 1_555 1_555
C20_12 C21_12 1_555 1_555
C23_12 C24_12 1_555 1_555
C38_12 C39_12 1_555 1_555
C54_16 C55_16 1_555 1_555
Zn26_8 O60_20 1_555 1_555
Zn12_8 O60_20 1_555 1_555
Zn14_8 O59_20 1_555 1_555
Zn15_12 O59_20 1_555 1_555
O41_20 C77_20 1_555 1_555
C65_20 O64_20 1_555 1_555
C71_20 C72_20 1_555 1_555
C76_20 C77_20 1_555 1_555
C78_20 C79_20 1_555 1_555
C84_20 C85_20 1_555 1_555
C87_20 C88_20 1_555 1_555
C93_20 C95_20 1_555 1_555
C102_20 C103_20 1_555 1_555
O55_12 C107_20 1_555 1_555
O56_12 C107_20 1_555 1_555
O85_3 C110_20 1_555 1_555
O87_3 C110_20 1_555 1_555
C105_20 C104_20 1_555 1_555
H40_20 C105_20 1_555 1_555
C106_20 C105_20 1_555 1_555
C107_20 C106_20 1_555 1_555
C108_20 C106_20 1_555 1_555
H41_20 C108_20 1_555 1_555
C109_20 C108_20 1_555 1_555
C110_20 C109_20 1_555 1_555
C111_20 C104_20 1_555 1_555
H42_20 C111_20 1_555 1_555
Zn22_3 O55_12 1_555 1_555
Zn30_8 O56_12 1_555 1_555
C109_20 C111_20 1_555 1_555
O25_17 C52_17 1_555 1_555
O26_17 C52_17 1_555 1_555
H19_17 C50_17 1_555 1_555
C51_17 C50_17 1_555 1_555
C52_17 C51_17 1_555 1_555
C53_17 C51_17 1_555 1_555
H20_17 C53_17 1_555 1_555
C54_17 C53_17 1_555 1_555
O91_7 C61_17 1_555 1_555
O93_7 C61_17 1_555 1_555
C59_17 H22_17 1_555 1_555
C60_17 C59_17 1_555 1_555
C61_17 C60_17 1_555 1_555
C62_17 C60_17 1_555 1_555
H23_17 C62_17 1_555 1_555
C63_17 C54_17 1_555 1_555
Zn27_6 O25_17 1_555 1_555
Zn29_7 O26_17 1_555 1_555
C62_17 C63_17 1_555 1_555
O89_12 C48_17 1_555 1_555
C48_17 O90_12 1_555 1_555
C49_17 C48_17 1_555 1_555
C55_17 C49_17 1_555 1_555
H21_17 C55_17 1_555 1_555
O33_17 C57_17 1_555 1_555
O34_17 C57_17 1_555 1_555
C57_17 C58_17 1_555 1_555
C64_17 C58_17 1_555 1_555
H24_17 C64_17 1_555 1_555
Zn18_8 O37_21 1_555 1_555
Zn23_8 O60_21 1_555 1_555
Zn27_12 O45_21 1_555 1_555
Zn28_6 O52_21 1_555 1_555
Zn15_13 O47_21 1_555 1_555
Zn46_2 O59_21 1_555 1_555
O37_21 C65_21 1_555 1_555
O66_12 C69_21 1_555 1_555
O68_12 C69_21 1_555 1_555
O40_21 Zn34_2 1_555 1_555
O41_21 Zn35_8 1_555 1_555
O69_12 C80_21 1_555 1_555
O70_12 C80_21 1_555 1_555
O44_21 Zn18_8 1_555 1_555
O45_21 C81_21 1_555 1_555
O46_21 Zn34_2 1_555 1_555
O47_21 C85_21 1_555 1_555
O48_13 C112_21 1_555 1_555
O49_13 C94_21 1_555 1_555
O50_13 C94_21 1_555 1_555
O51_21 Zn18_8 1_555 1_555
O52_21 C96_21 1_555 1_555
O78_8 C100_21 1_555 1_555
O80_8 C100_21 1_555 1_555
O55_13 C107_21 1_555 1_555
O56_13 C107_21 1_555 1_555
O86 C110_21 1_555 1_555
O88 C110_21 1_555 1_555
O59_21 Zn34_2 1_555 1_555
O60_21 Zn18_8 1_555 1_555
C65_21 C66_21 1_555 1_555
C66_21 C67_21 1_555 1_555
C67_21 H25_21 1_555 1_555
C68_21 C67_21 1_555 1_555
C69_21 C68_21 1_555 1_555
C70_21 C68_21 1_555 1_555
H26_21 C70_21 1_555 1_555
C71_21 C66_21 1_555 1_555
H27_21 C71_21 1_555 1_555
C72_21 C70_21 1_555 1_555
C73_21 C72_21 1_555 1_555
C74_21 C73_21 1_555 1_555
H28_21 C74_21 1_555 1_555
C75_21 C73_21 1_555 1_555
H29_21 C75_21 1_555 1_555
C76_21 C75_21 1_555 1_555
C77_21 O40_21 1_555 1_555
C78_21 C76_21 1_555 1_555
H30_21 C78_21 1_555 1_555
C79_21 C74_21 1_555 1_555
C80_21 C79_21 1_555 1_555
C81_21 O44_21 1_555 1_555
C82_21 C81_21 1_555 1_555
C83_21 C82_21 1_555 1_555
H31_21 C83_21 1_555 1_555
C84_21 C83_21 1_555 1_555
C85_21 O46_21 1_555 1_555
C86_21 C84_21 1_555 1_555
H32_21 C86_21 1_555 1_555
C87_21 C82_21 1_555 1_555
H33_21 C87_21 1_555 1_555
C88_21 C86_21 1_555 1_555
C89_21 C88_21 1_555 1_555
C90_21 C89_21 1_555 1_555
H34_21 C90_21 1_555 1_555
C91_21 C90_21 1_555 1_555
O61_13 C112_21 1_555 1_555
C92_21 C91_21 1_555 1_555
H35_21 C92_21 1_555 1_555
C93_21 C92_21 1_555 1_555
C94_21 C93_21 1_555 1_555
C95_21 C89_21 1_555 1_555
H36_21 C95_21 1_555 1_555
C96_21 O51_21 1_555 1_555
C97_21 C96_21 1_555 1_555
C98_21 C97_21 1_555 1_555
H37_21 C98_21 1_555 1_555
C99_21 C98_21 1_555 1_555
C100_21 C99_21 1_555 1_555
C101_21 C99_21 1_555 1_555
H38_21 C101_21 1_555 1_555
C102_21 C97_21 1_555 1_555
H39_21 C102_21 1_555 1_555
C103_21 C101_21 1_555 1_555
C104_21 C103_21 1_555 1_555
C105_21 C104_21 1_555 1_555
H40_21 C105_21 1_555 1_555
C106_21 C105_21 1_555 1_555
C107_21 C106_21 1_555 1_555
C108_21 C106_21 1_555 1_555
H41_21 C108_21 1_555 1_555
C109_21 C108_21 1_555 1_555
C110_21 C109_21 1_555 1_555
C111_21 C104_21 1_555 1_555
H42_21 C111_21 1_555 1_555
O62_21 Zn34_2 1_555 1_555
O63_21 Zn35_8 1_555 1_555
O64_21 Zn23_8 1_555 1_555
C112_21 C91_21 1_555 1_555
Zn23 O55_13 1_555 1_555
Zn31_6 O56_13 1_555 1_555
Zn39_5 O61_13 1_555 1_555
Zn36_6 O49_13 1_555 1_555
Zn41_13 O48_13 1_555 1_555
Zn45_15 O33_17 1_555 1_555
Zn45_12 O50_13 1_555 1_555
O72_13 Zn15_13 1_555 1_555
O73_13 Zn35_8 1_555 1_555
O75_13 Zn46_2 1_555 1_555
O82_13 Zn23_8 1_555 1_555
O84_13 Zn28_6 1_555 1_555
O89_13 Zn46_2 1_555 1_555
O90_13 Zn15_13 1_555 1_555
O96_13 Zn35_8 1_555 1_555
O34_17 Zn41_12 1_555 1_555
Zn27_12 O60_21 1_555 1_555
Zn28_6 O60_21 1_555 1_555
Zn35_8 O59_21 1_555 1_555
Zn15_13 O59_21 1_555 1_555
O41_21 C77_21 1_555 1_555
C65_21 O64_21 1_555 1_555
C71_21 C72_21 1_555 1_555
C76_21 C77_21 1_555 1_555
C78_21 C79_21 1_555 1_555
C84_21 C85_21 1_555 1_555
C87_21 C88_21 1_555 1_555
C93_21 C95_21 1_555 1_555
C102_21 C103_21 1_555 1_555
C109_21 C111_21 1_555 1_555
O48_14 C112_22 1_555 1_555
O49_14 C94_22 1_555 1_555
O50_14 C94_22 1_555 1_555
C90_22 C89_22 1_555 1_555
H34_22 C90_22 1_555 1_555
C91_22 C90_22 1_555 1_555
O61_14 C112_22 1_555 1_555
C92_22 C91_22 1_555 1_555
H35_22 C92_22 1_555 1_555
C93_22 C92_22 1_555 1_555
C94_22 C93_22 1_555 1_555
C95_22 C89_22 1_555 1_555
H36_22 C95_22 1_555 1_555
C112_22 C91_22 1_555 1_555
Zn39_8 O61_14 1_555 1_555
Zn36_7 O49_14 1_555 1_555
Zn41_14 O48_14 1_555 1_555
Zn45_9 O50_14 1_555 1_555
C93_22 C95_22 1_555 1_555
O55_14 C107_22 1_555 1_555
O56_14 C107_22 1_555 1_555
O86_4 C110_22 1_555 1_555
O88_4 C110_22 1_555 1_555
C105_22 C104_22 1_555 1_555
H40_22 C105_22 1_555 1_555
C106_22 C105_22 1_555 1_555
C107_22 C106_22 1_555 1_555
C108_22 C106_22 1_555 1_555
H41_22 C108_22 1_555 1_555
C109_22 C108_22 1_555 1_555
C110_22 C109_22 1_555 1_555
C111_22 C104_22 1_555 1_555
H42_22 C111_22 1_555 1_555
Zn23_4 O55_14 1_555 1_555
Zn31_7 O56_14 1_555 1_555
C109_22 C111_22 1_555 1_555
O89_9 C48_18 1_555 1_555
O25_18 C52_18 1_555 1_555
O26_18 C52_18 1_555 1_555
C48_18 O90_9 1_555 1_555
C49_18 C48_18 1_555 1_555
C50_18 C49_18 1_555 1_555
H19_18 C50_18 1_555 1_555
C51_18 C50_18 1_555 1_555
C52_18 C51_18 1_555 1_555
C53_18 C51_18 1_555 1_555
H20_18 C53_18 1_555 1_555
C54_18 C53_18 1_555 1_555
C55_18 C49_18 1_555 1_555
H21_18 C55_18 1_555 1_555
O33_18 C57_18 1_555 1_555
O34_18 C57_18 1_555 1_555
O91_6 C61_18 1_555 1_555
O93_6 C61_18 1_555 1_555
C57_18 C58_18 1_555 1_555
C58_18 C59_18 1_555 1_555
C59_18 H22_18 1_555 1_555
C60_18 C59_18 1_555 1_555
C61_18 C60_18 1_555 1_555
C62_18 C60_18 1_555 1_555
H23_18 C62_18 1_555 1_555
C63_18 C54_18 1_555 1_555
C64_18 C58_18 1_555 1_555
H24_18 C64_18 1_555 1_555
Zn18_5 O37_22 1_555 1_555
Zn23_5 O60_22 1_555 1_555
Zn27_9 O45_22 1_555 1_555
Zn28_7 O52_22 1_555 1_555
Zn15_14 O47_22 1_555 1_555
Zn46_3 O59_22 1_555 1_555
O37_22 C65_22 1_555 1_555
O66_9 C69_22 1_555 1_555
O68_9 C69_22 1_555 1_555
O40_22 Zn34_3 1_555 1_555
O41_22 Zn35_5 1_555 1_555
O69_9 C80_22 1_555 1_555
O70_9 C80_22 1_555 1_555
O44_22 Zn18_5 1_555 1_555
O45_22 C81_22 1_555 1_555
O46_22 Zn34_3 1_555 1_555
O47_22 C85_22 1_555 1_555
O51_22 Zn18_5 1_555 1_555
O52_22 C96_22 1_555 1_555
O78_5 C100_22 1_555 1_555
O80_5 C100_22 1_555 1_555
O59_22 Zn34_3 1_555 1_555
O60_22 Zn18_5 1_555 1_555
C65_22 C66_22 1_555 1_555
C66_22 C67_22 1_555 1_555
C67_22 H25_22 1_555 1_555
C68_22 C67_22 1_555 1_555
C69_22 C68_22 1_555 1_555
C70_22 C68_22 1_555 1_555
H26_22 C70_22 1_555 1_555
C71_22 C66_22 1_555 1_555
H27_22 C71_22 1_555 1_555
C72_22 C70_22 1_555 1_555
C73_22 C72_22 1_555 1_555
C74_22 C73_22 1_555 1_555
H28_22 C74_22 1_555 1_555
C75_22 C73_22 1_555 1_555
H29_22 C75_22 1_555 1_555
C76_22 C75_22 1_555 1_555
C77_22 O40_22 1_555 1_555
C78_22 C76_22 1_555 1_555
H30_22 C78_22 1_555 1_555
C79_22 C74_22 1_555 1_555
C80_22 C79_22 1_555 1_555
C81_22 O44_22 1_555 1_555
C82_22 C81_22 1_555 1_555
C83_22 C82_22 1_555 1_555
H31_22 C83_22 1_555 1_555
C84_22 C83_22 1_555 1_555
C85_22 O46_22 1_555 1_555
C86_22 C84_22 1_555 1_555
H32_22 C86_22 1_555 1_555
C87_22 C82_22 1_555 1_555
H33_22 C87_22 1_555 1_555
C88_22 C86_22 1_555 1_555
C96_22 O51_22 1_555 1_555
C97_22 C96_22 1_555 1_555
C98_22 C97_22 1_555 1_555
H37_22 C98_22 1_555 1_555
C99_22 C98_22 1_555 1_555
C100_22 C99_22 1_555 1_555
C101_22 C99_22 1_555 1_555
H38_22 C101_22 1_555 1_555
C102_22 C97_22 1_555 1_555
H39_22 C102_22 1_555 1_555
C103_22 C101_22 1_555 1_555
O62_22 Zn34_3 1_555 1_555
O63_22 Zn35_5 1_555 1_555
O64_22 Zn23_5 1_555 1_555
Zn27_5 O25_18 1_555 1_555
Zn29_6 O26_18 1_555 1_555
Zn45_16 O33_18 1_555 1_555
O72_14 Zn15_14 1_555 1_555
O73_14 Zn35_5 1_555 1_555
O75_14 Zn46_3 1_555 1_555
O82_14 Zn23_5 1_555 1_555
O84_14 Zn28_7 1_555 1_555
O89_14 Zn46_3 1_555 1_555
O90_14 Zn15_14 1_555 1_555
O96_14 Zn35_5 1_555 1_555
C54_18 C55_18 1_555 1_555
O34_18 Zn41_9 1_555 1_555
C62_18 C63_18 1_555 1_555
C63_18 C64_18 1_555 1_555
Zn27_9 O60_22 1_555 1_555
Zn28_7 O60_22 1_555 1_555
Zn35_5 O59_22 1_555 1_555
Zn15_14 O59_22 1_555 1_555
O41_22 C77_22 1_555 1_555
C65_22 O64_22 1_555 1_555
C71_22 C72_22 1_555 1_555
C76_22 C77_22 1_555 1_555
C78_22 C79_22 1_555 1_555
C84_22 C85_22 1_555 1_555
C87_22 C88_22 1_555 1_555
C102_22 C103_22 1_555 1_555
O89_11 C48_19 1_555 1_555
C48_19 O90_11 1_555 1_555
C49_19 C48_19 1_555 1_555
C55_19 C49_19 1_555 1_555
H21_19 C55_19 1_555 1_555
Zn18_7 O37_23 1_555 1_555
Zn23_7 O60_23 1_555 1_555
Zn27_11 O45_23 1_555 1_555
Zn28_5 O52_23 1_555 1_555
Zn15_15 O47_23 1_555 1_555
Zn46 O59_23 1_555 1_555
O37_23 C65_23 1_555 1_555
O66_11 C69_23 1_555 1_555
O68_11 C69_23 1_555 1_555
O40_23 Zn34 1_555 1_555
O41_23 Zn35_7 1_555 1_555
O69_11 C80_23 1_555 1_555
O70_11 C80_23 1_555 1_555
O44_23 Zn18_7 1_555 1_555
O45_23 C81_23 1_555 1_555
O46_23 Zn34 1_555 1_555
O47_23 C85_23 1_555 1_555
O51_23 Zn18_7 1_555 1_555
O52_23 C96_23 1_555 1_555
O78_7 C100_23 1_555 1_555
O80_7 C100_23 1_555 1_555
O55_15 C107_23 1_555 1_555
O56_15 C107_23 1_555 1_555
O86_2 C110_23 1_555 1_555
O88_2 C110_23 1_555 1_555
O59_23 Zn34 1_555 1_555
O60_23 Zn18_7 1_555 1_555
C65_23 C66_23 1_555 1_555
C66_23 C67_23 1_555 1_555
C67_23 H25_23 1_555 1_555
C68_23 C67_23 1_555 1_555
C69_23 C68_23 1_555 1_555
C70_23 C68_23 1_555 1_555
H26_23 C70_23 1_555 1_555
C71_23 C66_23 1_555 1_555
H27_23 C71_23 1_555 1_555
C72_23 C70_23 1_555 1_555
C73_23 C72_23 1_555 1_555
C74_23 C73_23 1_555 1_555
H28_23 C74_23 1_555 1_555
C75_23 C73_23 1_555 1_555
H29_23 C75_23 1_555 1_555
C76_23 C75_23 1_555 1_555
C77_23 O40_23 1_555 1_555
C78_23 C76_23 1_555 1_555
H30_23 C78_23 1_555 1_555
C79_23 C74_23 1_555 1_555
C80_23 C79_23 1_555 1_555
C81_23 O44_23 1_555 1_555
C82_23 C81_23 1_555 1_555
C83_23 C82_23 1_555 1_555
H31_23 C83_23 1_555 1_555
C84_23 C83_23 1_555 1_555
C85_23 O46_23 1_555 1_555
C86_23 C84_23 1_555 1_555
H32_23 C86_23 1_555 1_555
C87_23 C82_23 1_555 1_555
H33_23 C87_23 1_555 1_555
C88_23 C86_23 1_555 1_555
C96_23 O51_23 1_555 1_555
C97_23 C96_23 1_555 1_555
C98_23 C97_23 1_555 1_555
H37_23 C98_23 1_555 1_555
C99_23 C98_23 1_555 1_555
C100_23 C99_23 1_555 1_555
C101_23 C99_23 1_555 1_555
H38_23 C101_23 1_555 1_555
C102_23 C97_23 1_555 1_555
H39_23 C102_23 1_555 1_555
C103_23 C101_23 1_555 1_555
C104_23 C103_23 1_555 1_555
C105_23 C104_23 1_555 1_555
H40_23 C105_23 1_555 1_555
C106_23 C105_23 1_555 1_555
C107_23 C106_23 1_555 1_555
C108_23 C106_23 1_555 1_555
H41_23 C108_23 1_555 1_555
C109_23 C108_23 1_555 1_555
C110_23 C109_23 1_555 1_555
C111_23 C104_23 1_555 1_555
H42_23 C111_23 1_555 1_555
O62_23 Zn34 1_555 1_555
O63_23 Zn35_7 1_555 1_555
O64_23 Zn23_7 1_555 1_555
Zn23_2 O55_15 1_555 1_555
Zn31_5 O56_15 1_555 1_555
O72_15 Zn15_15 1_555 1_555
O73_15 Zn35_7 1_555 1_555
O75_15 Zn46 1_555 1_555
O82_15 Zn23_7 1_555 1_555
O84_15 Zn28_5 1_555 1_555
O89_15 Zn46 1_555 1_555
O90_15 Zn15_15 1_555 1_555
O96_15 Zn35_7 1_555 1_555
Zn27_11 O60_23 1_555 1_555
Zn28_5 O60_23 1_555 1_555
Zn35_7 O59_23 1_555 1_555
Zn15_15 O59_23 1_555 1_555
O41_23 C77_23 1_555 1_555
C65_23 O64_23 1_555 1_555
C71_23 C72_23 1_555 1_555
C76_23 C77_23 1_555 1_555
C78_23 C79_23 1_555 1_555
C84_23 C85_23 1_555 1_555
C87_23 C88_23 1_555 1_555
C102_23 C103_23 1_555 1_555
C109_23 C111_23 1_555 1_555
O33_19 C57_19 1_555 1_555
O34_19 C57_19 1_555 1_555
C57_19 C58_19 1_555 1_555
C64_19 C58_19 1_555 1_555
H24_19 C64_19 1_555 1_555
Zn45_13 O33_19 1_555 1_555
O34_19 Zn41_11 1_555 1_555
O25_19 C52_19 1_555 1_555
O26_19 C52_19 1_555 1_555
H19_19 C50_19 1_555 1_555
C51_19 C50_19 1_555 1_555
C52_19 C51_19 1_555 1_555
C53_19 C51_19 1_555 1_555
H20_19 C53_19 1_555 1_555
C54_19 C53_19 1_555 1_555
Zn27_8 O25_19 1_555 1_555
Zn29_8 O26_19 1_555 1_555
O91_8 C61_19 1_555 1_555
O93_8 C61_19 1_555 1_555
C59_19 H22_19 1_555 1_555
C60_19 C59_19 1_555 1_555
C61_19 C60_19 1_555 1_555
C62_19 C60_19 1_555 1_555
H23_19 C62_19 1_555 1_555
C62_19 C63_19 1_555 1_555
O48_15 C112_23 1_555 1_555
O49_15 C94_23 1_555 1_555
O50_15 C94_23 1_555 1_555
C90_23 C89_23 1_555 1_555
H34_23 C90_23 1_555 1_555
C91_23 C90_23 1_555 1_555
O61_15 C112_23 1_555 1_555
C92_23 C91_23 1_555 1_555
H35_23 C92_23 1_555 1_555
C93_23 C92_23 1_555 1_555
C94_23 C93_23 1_555 1_555
C95_23 C89_23 1_555 1_555
H36_23 C95_23 1_555 1_555
C112_23 C91_23 1_555 1_555
Zn39_6 O61_15 1_555 1_555
Zn36_5 O49_15 1_555 1_555
Zn41_15 O48_15 1_555 1_555
Zn45_11 O50_15 1_555 1_555
C93_23 C95_23 1_555 1_555
O33_20 C57_20 1_555 1_555
O34_20 C57_20 1_555 1_555
O91_5 C61_20 1_555 1_555
O93_5 C61_20 1_555 1_555
C57_20 C58_20 1_555 1_555
C58_20 C59_20 1_555 1_555
C59_20 H22_20 1_555 1_555
C60_20 C59_20 1_555 1_555
C61_20 C60_20 1_555 1_555
C62_20 C60_20 1_555 1_555
H23_20 C62_20 1_555 1_555
C64_20 C58_20 1_555 1_555
H24_20 C64_20 1_555 1_555
Zn45_14 O33_20 1_555 1_555
O34_20 Zn41_10 1_555 1_555
C62_20 C63_20 1_555 1_555
C63_20 C64_20 1_555 1_555
O89_10 C48_20 1_555 1_555
O25_20 C52_20 1_555 1_555
O26_20 C52_20 1_555 1_555
C48_20 O90_10 1_555 1_555
C49_20 C48_20 1_555 1_555
C50_20 C49_20 1_555 1_555
H19_20 C50_20 1_555 1_555
C51_20 C50_20 1_555 1_555
C52_20 C51_20 1_555 1_555
C53_20 C51_20 1_555 1_555
H20_20 C53_20 1_555 1_555
C54_20 C53_20 1_555 1_555
C55_20 C49_20 1_555 1_555
H21_20 C55_20 1_555 1_555
Zn18_6 O37_24 1_555 1_555
Zn23_6 O60_24 1_555 1_555
Zn27_10 O45_24 1_555 1_555
Zn28_8 O52_24 1_555 1_555
Zn15_16 O47_24 1_555 1_555
Zn46_4 O59_24 1_555 1_555
O37_24 C65_24 1_555 1_555
O66_10 C69_24 1_555 1_555
O68_10 C69_24 1_555 1_555
O40_24 Zn34_4 1_555 1_555
O41_24 Zn35_6 1_555 1_555
O69_10 C80_24 1_555 1_555
O70_10 C80_24 1_555 1_555
O44_24 Zn18_6 1_555 1_555
O45_24 C81_24 1_555 1_555
O46_24 Zn34_4 1_555 1_555
O47_24 C85_24 1_555 1_555
O48_16 C112_24 1_555 1_555
O49_16 C94_24 1_555 1_555
O50_16 C94_24 1_555 1_555
O51_24 Zn18_6 1_555 1_555
O52_24 C96_24 1_555 1_555
O78_6 C100_24 1_555 1_555
O80_6 C100_24 1_555 1_555
O59_24 Zn34_4 1_555 1_555
O60_24 Zn18_6 1_555 1_555
C65_24 C66_24 1_555 1_555
C66_24 C67_24 1_555 1_555
C67_24 H25_24 1_555 1_555
C68_24 C67_24 1_555 1_555
C69_24 C68_24 1_555 1_555
C70_24 C68_24 1_555 1_555
H26_24 C70_24 1_555 1_555
C71_24 C66_24 1_555 1_555
H27_24 C71_24 1_555 1_555
C72_24 C70_24 1_555 1_555
C73_24 C72_24 1_555 1_555
C74_24 C73_24 1_555 1_555
H28_24 C74_24 1_555 1_555
C75_24 C73_24 1_555 1_555
H29_24 C75_24 1_555 1_555
C76_24 C75_24 1_555 1_555
C77_24 O40_24 1_555 1_555
C78_24 C76_24 1_555 1_555
H30_24 C78_24 1_555 1_555
C79_24 C74_24 1_555 1_555
C80_24 C79_24 1_555 1_555
C81_24 O44_24 1_555 1_555
C82_24 C81_24 1_555 1_555
C83_24 C82_24 1_555 1_555
H31_24 C83_24 1_555 1_555
C84_24 C83_24 1_555 1_555
C85_24 O46_24 1_555 1_555
C86_24 C84_24 1_555 1_555
H32_24 C86_24 1_555 1_555
C87_24 C82_24 1_555 1_555
H33_24 C87_24 1_555 1_555
C88_24 C86_24 1_555 1_555
C89_24 C88_24 1_555 1_555
C90_24 C89_24 1_555 1_555
H34_24 C90_24 1_555 1_555
C91_24 C90_24 1_555 1_555
O61_16 C112_24 1_555 1_555
C92_24 C91_24 1_555 1_555
H35_24 C92_24 1_555 1_555
C93_24 C92_24 1_555 1_555
C94_24 C93_24 1_555 1_555
C95_24 C89_24 1_555 1_555
H36_24 C95_24 1_555 1_555
C96_24 O51_24 1_555 1_555
C97_24 C96_24 1_555 1_555
C98_24 C97_24 1_555 1_555
H37_24 C98_24 1_555 1_555
C99_24 C98_24 1_555 1_555
C100_24 C99_24 1_555 1_555
C101_24 C99_24 1_555 1_555
H38_24 C101_24 1_555 1_555
C102_24 C97_24 1_555 1_555
H39_24 C102_24 1_555 1_555
C103_24 C101_24 1_555 1_555
O62_24 Zn34_4 1_555 1_555
O63_24 Zn35_6 1_555 1_555
O64_24 Zn23_6 1_555 1_555
C112_24 C91_24 1_555 1_555
Zn27_7 O25_20 1_555 1_555
Zn29_5 O26_20 1_555 1_555
Zn39_7 O61_16 1_555 1_555
Zn36_8 O49_16 1_555 1_555
Zn41_16 O48_16 1_555 1_555
Zn45_10 O50_16 1_555 1_555
O72_16 Zn15_16 1_555 1_555
O73_16 Zn35_6 1_555 1_555
O75_16 Zn46_4 1_555 1_555
O82_16 Zn23_6 1_555 1_555
O84_16 Zn28_8 1_555 1_555
O89_16 Zn46_4 1_555 1_555
O90_16 Zn15_16 1_555 1_555
O96_16 Zn35_6 1_555 1_555
C54_20 C55_20 1_555 1_555
Zn27_10 O60_24 1_555 1_555
Zn28_8 O60_24 1_555 1_555
Zn35_6 O59_24 1_555 1_555
Zn15_16 O59_24 1_555 1_555
O41_24 C77_24 1_555 1_555
C65_24 O64_24 1_555 1_555
C71_24 C72_24 1_555 1_555
C76_24 C77_24 1_555 1_555
C78_24 C79_24 1_555 1_555
C84_24 C85_24 1_555 1_555
C87_24 C88_24 1_555 1_555
C93_24 C95_24 1_555 1_555
C102_24 C103_24 1_555 1_555
O55_16 C107_24 1_555 1_555
O56_16 C107_24 1_555 1_555
O86_3 C110_24 1_555 1_555
O88_3 C110_24 1_555 1_555
C105_24 C104_24 1_555 1_555
H40_24 C105_24 1_555 1_555
C106_24 C105_24 1_555 1_555
C107_24 C106_24 1_555 1_555
C108_24 C106_24 1_555 1_555
H41_24 C108_24 1_555 1_555
C109_24 C108_24 1_555 1_555
C110_24 C109_24 1_555 1_555
C111_24 C104_24 1_555 1_555
H42_24 C111_24 1_555 1_555
Zn23_3 O55_16 1_555 1_555
Zn31_8 O56_16 1_555 1_555
C109_24 C111_24 1_555 1_555
O25_21 C52_21 1_555 1_555
O26_21 C52_21 1_555 1_555
H19_21 C50_21 1_555 1_555
C51_21 C50_21 1_555 1_555
C52_21 C51_21 1_555 1_555
C53_21 C51_21 1_555 1_555
H20_21 C53_21 1_555 1_555
C54_21 C53_21 1_555 1_555
O92_7 C61_21 1_555 1_555
O94_7 C61_21 1_555 1_555
C59_21 H22_21 1_555 1_555
C60_21 C59_21 1_555 1_555
C61_21 C60_21 1_555 1_555
C62_21 C60_21 1_555 1_555
H23_21 C62_21 1_555 1_555
C63_21 C54_21 1_555 1_555
Zn26_4 O25_21 1_555 1_555
Zn30_7 O26_21 1_555 1_555
C62_21 C63_21 1_555 1_555
O89_16 C48_21 1_555 1_555
C48_21 O90_16 1_555 1_555
C49_21 C48_21 1_555 1_555
C55_21 C49_21 1_555 1_555
H21_21 C55_21 1_555 1_555
O33_21 C57_21 1_555 1_555
O34_21 C57_21 1_555 1_555
C57_21 C58_21 1_555 1_555
C64_21 C58_21 1_555 1_555
H24_21 C64_21 1_555 1_555
Zn46_7 O33_21 1_555 1_555
O34_21 Zn41_16 1_555 1_555
O89_13 C48_22 1_555 1_555
O25_22 C52_22 1_555 1_555
O26_22 C52_22 1_555 1_555
C48_22 O90_13 1_555 1_555
C49_22 C48_22 1_555 1_555
C50_22 C49_22 1_555 1_555
H19_22 C50_22 1_555 1_555
C51_22 C50_22 1_555 1_555
C52_22 C51_22 1_555 1_555
C53_22 C51_22 1_555 1_555
H20_22 C53_22 1_555 1_555
C54_22 C53_22 1_555 1_555
C55_22 C49_22 1_555 1_555
H21_22 C55_22 1_555 1_555
O33_22 C57_22 1_555 1_555
O34_22 C57_22 1_555 1_555
O92_5 C61_22 1_555 1_555
O94_5 C61_22 1_555 1_555
C57_22 C58_22 1_555 1_555
C58_22 C59_22 1_555 1_555
C59_22 H22_22 1_555 1_555
C60_22 C59_22 1_555 1_555
C61_22 C60_22 1_555 1_555
C62_22 C60_22 1_555 1_555
H23_22 C62_22 1_555 1_555
C63_22 C54_22 1_555 1_555
C64_22 C58_22 1_555 1_555
H24_22 C64_22 1_555 1_555
Zn26_2 O25_22 1_555 1_555
Zn30_5 O26_22 1_555 1_555
Zn46_5 O33_22 1_555 1_555
C54_22 C55_22 1_555 1_555
O34_22 Zn41_13 1_555 1_555
C62_22 C63_22 1_555 1_555
C63_22 C64_22 1_555 1_555
O89_15 C48_23 1_555 1_555
C48_23 O90_15 1_555 1_555
C49_23 C48_23 1_555 1_555
C55_23 C49_23 1_555 1_555
H21_23 C55_23 1_555 1_555
O25_23 C52_23 1_555 1_555
O26_23 C52_23 1_555 1_555
H19_23 C50_23 1_555 1_555
C51_23 C50_23 1_555 1_555
C52_23 C51_23 1_555 1_555
C53_23 C51_23 1_555 1_555
H20_23 C53_23 1_555 1_555
C54_23 C53_23 1_555 1_555
Zn26 O25_23 1_555 1_555
Zn30_6 O26_23 1_555 1_555
O33_23 C57_23 1_555 1_555
O34_23 C57_23 1_555 1_555
C57_23 C58_23 1_555 1_555
C64_23 C58_23 1_555 1_555
H24_23 C64_23 1_555 1_555
Zn46_6 O33_23 1_555 1_555
O34_23 Zn41_15 1_555 1_555
O92_6 C61_23 1_555 1_555
O94_6 C61_23 1_555 1_555
C59_23 H22_23 1_555 1_555
C60_23 C59_23 1_555 1_555
C61_23 C60_23 1_555 1_555
C62_23 C60_23 1_555 1_555
H23_23 C62_23 1_555 1_555
C62_23 C63_23 1_555 1_555
O33_24 C57_24 1_555 1_555
O34_24 C57_24 1_555 1_555
O92_8 C61_24 1_555 1_555
O94_8 C61_24 1_555 1_555
C57_24 C58_24 1_555 1_555
C58_24 C59_24 1_555 1_555
C59_24 H22_24 1_555 1_555
C60_24 C59_24 1_555 1_555
C61_24 C60_24 1_555 1_555
C62_24 C60_24 1_555 1_555
H23_24 C62_24 1_555 1_555
C64_24 C58_24 1_555 1_555
H24_24 C64_24 1_555 1_555
Zn46_8 O33_24 1_555 1_555
O34_24 Zn41_14 1_555 1_555
C62_24 C63_24 1_555 1_555
C63_24 C64_24 1_555 1_555
O89_14 C48_24 1_555 1_555
O25_24 C52_24 1_555 1_555
O26_24 C52_24 1_555 1_555
C48_24 O90_14 1_555 1_555
C49_24 C48_24 1_555 1_555
C50_24 C49_24 1_555 1_555
H19_24 C50_24 1_555 1_555
C51_24 C50_24 1_555 1_555
C52_24 C51_24 1_555 1_555
C53_24 C51_24 1_555 1_555
H20_24 C53_24 1_555 1_555
C54_24 C53_24 1_555 1_555
C55_24 C49_24 1_555 1_555
H21_24 C55_24 1_555 1_555
Zn26_3 O25_24 1_555 1_555
Zn30_8 O26_24 1_555 1_555
C54_24 C55_24 1_555 1_555
O72_11 C112_25 1_555 1_555
O73_15 C94_25 1_555 1_555
O75_15 C94_25 1_555 1_555
C90_25 C89_25 1_555 1_555
H34_25 C90_25 1_555 1_555
C91_25 C90_25 1_555 1_555
O96_11 C112_25 1_555 1_555
C92_25 C91_25 1_555 1_555
H35_25 C92_25 1_555 1_555
C93_25 C92_25 1_555 1_555
C94_25 C93_25 1_555 1_555
C95_25 C89_25 1_555 1_555
H36_25 C95_25 1_555 1_555
C112_25 C91_25 1_555 1_555
C93_25 C95_25 1_555 1_555
Zn17 O1_13 1_555 1_555
Zn21 O28_13 1_555 1_555
Zn27_6 O9_13 1_555 1_555
Zn29_7 O16_13 1_555 1_555
Zn33_10 O4_13 1_555 1_555
Zn36_8 O5_13 1_555 1_555
Zn40_8 O11_13 1_555 1_555
O1_13 C1_13 1_555 1_555
O66_6 C5_13 1_555 1_555
O68_6 C5_13 1_555 1_555
O4_13 C13_13 1_555 1_555
O5_13 C13_13 1_555 1_555
O6_13 C16_13 1_555 1_555
O7_13 C16_13 1_555 1_555
O8_13 Zn17 1_555 1_555
O9_13 C17_13 1_555 1_555
O10_13 Zn33_10 1_555 1_555
O11_13 C21_13 1_555 1_555
O15_13 Zn17 1_555 1_555
O16_13 C32_13 1_555 1_555
O77 C36_13 1_555 1_555
O79 C36_13 1_555 1_555
O81_7 C43_13 1_555 1_555
O83_7 C43_13 1_555 1_555
O86_15 C46_13 1_555 1_555
O88_15 C46_13 1_555 1_555
O27_13 Zn33_10 1_555 1_555
O28_13 Zn17 1_555 1_555
C1_13 C2_13 1_555 1_555
C2_13 C3_13 1_555 1_555
C3_13 H1_13 1_555 1_555
C4_13 C3_13 1_555 1_555
C5_13 C4_13 1_555 1_555
C6_13 C4_13 1_555 1_555
H2_13 C6_13 1_555 1_555
C7_13 C2_13 1_555 1_555
H3_13 C7_13 1_555 1_555
C8_13 C6_13 1_555 1_555
C9_13 C8_13 1_555 1_555
C10_13 C9_13 1_555 1_555
H4_13 C10_13 1_555 1_555
C11_13 C9_13 1_555 1_555
H5_13 C11_13 1_555 1_555
C12_13 C11_13 1_555 1_555
C13_13 C12_13 1_555 1_555
C14_13 C12_13 1_555 1_555
H6_13 C14_13 1_555 1_555
C15_13 C10_13 1_555 1_555
C16_13 C15_13 1_555 1_555
C17_13 O8_13 1_555 1_555
C18_13 C17_13 1_555 1_555
C19_13 C18_13 1_555 1_555
H7_13 C19_13 1_555 1_555
C20_13 C19_13 1_555 1_555
C21_13 O10_13 1_555 1_555
C22_13 C20_13 1_555 1_555
H8_13 C22_13 1_555 1_555
C23_13 C18_13 1_555 1_555
H9_13 C23_13 1_555 1_555
C24_13 C22_13 1_555 1_555
C32_13 O15_13 1_555 1_555
C33_13 C32_13 1_555 1_555
C34_13 C33_13 1_555 1_555
H13_13 C34_13 1_555 1_555
C35_13 C34_13 1_555 1_555
C36_13 C35_13 1_555 1_555
C37_13 C35_13 1_555 1_555
H14_13 C37_13 1_555 1_555
C38_13 C33_13 1_555 1_555
H15_13 C38_13 1_555 1_555
C39_13 C37_13 1_555 1_555
C40_13 C39_13 1_555 1_555
C41_13 C40_13 1_555 1_555
H16_13 C41_13 1_555 1_555
C42_13 C41_13 1_555 1_555
C43_13 C42_13 1_555 1_555
C44_13 C42_13 1_555 1_555
H17_13 C44_13 1_555 1_555
C45_13 C44_13 1_555 1_555
C46_13 C45_13 1_555 1_555
C47_13 C40_13 1_555 1_555
H18_13 C47_13 1_555 1_555
O30_13 Zn33_10 1_555 1_555
O31_13 Zn36_8 1_555 1_555
O32_13 Zn21 1_555 1_555
Zn17_6 O37_25 1_555 1_555
Zn22 O60_25 1_555 1_555
Zn26 O45_25 1_555 1_555
Zn30_6 O52_25 1_555 1_555
Zn33_13 O6_13 1_555 1_555
Zn38_4 O7_13 1_555 1_555
Zn41_11 O47_25 1_555 1_555
Zn45_13 O59_25 1_555 1_555
O37_25 C65_25 1_555 1_555
O65 C69_25 1_555 1_555
O67 C69_25 1_555 1_555
O40_25 Zn33_13 1_555 1_555
O41_25 Zn38_4 1_555 1_555
O42_13 C80_25 1_555 1_555
O43_13 C80_25 1_555 1_555
O44_25 Zn17_6 1_555 1_555
O45_25 C81_25 1_555 1_555
O46_25 Zn33_13 1_555 1_555
O47_25 C85_25 1_555 1_555
O51_25 Zn17_6 1_555 1_555
O52_25 C96_25 1_555 1_555
O77_6 C100_25 1_555 1_555
O79_6 C100_25 1_555 1_555
O59_25 Zn33_13 1_555 1_555
O60_25 Zn17_6 1_555 1_555
C65_25 C66_25 1_555 1_555
C66_25 C67_25 1_555 1_555
C67_25 H25_25 1_555 1_555
C68_25 C67_25 1_555 1_555
C69_25 C68_25 1_555 1_555
C70_25 C68_25 1_555 1_555
H26_25 C70_25 1_555 1_555
C71_25 C66_25 1_555 1_555
H27_25 C71_25 1_555 1_555
C72_25 C70_25 1_555 1_555
C73_25 C72_25 1_555 1_555
C74_25 C73_25 1_555 1_555
H28_25 C74_25 1_555 1_555
C75_25 C73_25 1_555 1_555
H29_25 C75_25 1_555 1_555
C76_25 C75_25 1_555 1_555
C77_25 O40_25 1_555 1_555
C78_25 C76_25 1_555 1_555
H30_25 C78_25 1_555 1_555
C79_25 C74_25 1_555 1_555
C80_25 C79_25 1_555 1_555
C81_25 O44_25 1_555 1_555
C82_25 C81_25 1_555 1_555
C83_25 C82_25 1_555 1_555
H31_25 C83_25 1_555 1_555
C84_25 C83_25 1_555 1_555
C85_25 O46_25 1_555 1_555
C86_25 C84_25 1_555 1_555
H32_25 C86_25 1_555 1_555
C87_25 C82_25 1_555 1_555
H33_25 C87_25 1_555 1_555
C88_25 C86_25 1_555 1_555
C96_25 O51_25 1_555 1_555
C97_25 C96_25 1_555 1_555
C98_25 C97_25 1_555 1_555
H37_25 C98_25 1_555 1_555
C99_25 C98_25 1_555 1_555
C100_25 C99_25 1_555 1_555
C101_25 C99_25 1_555 1_555
H38_25 C101_25 1_555 1_555
C102_25 C97_25 1_555 1_555
H39_25 C102_25 1_555 1_555
C103_25 C101_25 1_555 1_555
O62_25 Zn33_13 1_555 1_555
O63_25 Zn38_4 1_555 1_555
O64_25 Zn22 1_555 1_555
Zn34_7 O42_13 1_555 1_555
Zn39_7 O43_13 1_555 1_555
O69_13 Zn33_10 1_555 1_555
O70_13 Zn36_8 1_555 1_555
Zn27_6 O28_13 1_555 1_555
Zn29_7 O28_13 1_555 1_555
Zn36_8 O27_13 1_555 1_555
Zn40_8 O27_13 1_555 1_555
Zn45_10 O27_13 1_555 1_555
C1_13 O32_13 1_555 1_555
C7_13 C8_13 1_555 1_555
C14_13 C15_13 1_555 1_555
C20_13 C21_13 1_555 1_555
C23_13 C24_13 1_555 1_555
C38_13 C39_13 1_555 1_555
C45_13 C47_13 1_555 1_555
Zn26 O60_25 1_555 1_555
Zn30_6 O60_25 1_555 1_555
Zn38_4 O59_25 1_555 1_555
Zn41_11 O59_25 1_555 1_555
O41_25 C77_25 1_555 1_555
C65_25 O64_25 1_555 1_555
C71_25 C72_25 1_555 1_555
C76_25 C77_25 1_555 1_555
C78_25 C79_25 1_555 1_555
C84_25 C85_25 1_555 1_555
C87_25 C88_25 1_555 1_555
C102_25 C103_25 1_555 1_555
O71_8 C56_13 1_555 1_555
O73_12 C30_13 1_555 1_555
O75_12 C30_13 1_555 1_555
C26_13 C25_13 1_555 1_555
H10_13 C26_13 1_555 1_555
C27_13 C26_13 1_555 1_555
O95_8 C56_13 1_555 1_555
C28_13 C27_13 1_555 1_555
H11_13 C28_13 1_555 1_555
C29_13 C28_13 1_555 1_555
C30_13 C29_13 1_555 1_555
C31_13 C25_13 1_555 1_555
H12_13 C31_13 1_555 1_555
C56_13 C27_13 1_555 1_555
C29_13 C31_13 1_555 1_555
O82_10 C107_25 1_555 1_555
O84_10 C107_25 1_555 1_555
O85_6 C110_25 1_555 1_555
O87_6 C110_25 1_555 1_555
C105_25 C104_25 1_555 1_555
H40_25 C105_25 1_555 1_555
C106_25 C105_25 1_555 1_555
C107_25 C106_25 1_555 1_555
C108_25 C106_25 1_555 1_555
H41_25 C108_25 1_555 1_555
C109_25 C108_25 1_555 1_555
C110_25 C109_25 1_555 1_555
C111_25 C104_25 1_555 1_555
H42_25 C111_25 1_555 1_555
C109_25 C111_25 1_555 1_555
O71_7 C56_14 1_555 1_555
O73_11 C30_14 1_555 1_555
O75_11 C30_14 1_555 1_555
C26_14 C25_14 1_555 1_555
H10_14 C26_14 1_555 1_555
C27_14 C26_14 1_555 1_555
O95_7 C56_14 1_555 1_555
C28_14 C27_14 1_555 1_555
H11_14 C28_14 1_555 1_555
C29_14 C28_14 1_555 1_555
C30_14 C29_14 1_555 1_555
C31_14 C25_14 1_555 1_555
H12_14 C31_14 1_555 1_555
C56_14 C27_14 1_555 1_555
C29_14 C31_14 1_555 1_555
Zn17_2 O1_14 1_555 1_555
Zn21_2 O28_14 1_555 1_555
Zn27_8 O9_14 1_555 1_555
Zn29_8 O16_14 1_555 1_555
Zn33_9 O4_14 1_555 1_555
Zn36_7 O5_14 1_555 1_555
Zn40_7 O11_14 1_555 1_555
O1_14 C1_14 1_555 1_555
O66_8 C5_14 1_555 1_555
O68_8 C5_14 1_555 1_555
O4_14 C13_14 1_555 1_555
O5_14 C13_14 1_555 1_555
O6_14 C16_14 1_555 1_555
O7_14 C16_14 1_555 1_555
O8_14 Zn17_2 1_555 1_555
O9_14 C17_14 1_555 1_555
O10_14 Zn33_9 1_555 1_555
O11_14 C21_14 1_555 1_555
O15_14 Zn17_2 1_555 1_555
O16_14 C32_14 1_555 1_555
O77_2 C36_14 1_555 1_555
O79_2 C36_14 1_555 1_555
O27_14 Zn33_9 1_555 1_555
O28_14 Zn17_2 1_555 1_555
C1_14 C2_14 1_555 1_555
C2_14 C3_14 1_555 1_555
C3_14 H1_14 1_555 1_555
C4_14 C3_14 1_555 1_555
C5_14 C4_14 1_555 1_555
C6_14 C4_14 1_555 1_555
H2_14 C6_14 1_555 1_555
C7_14 C2_14 1_555 1_555
H3_14 C7_14 1_555 1_555
C8_14 C6_14 1_555 1_555
C9_14 C8_14 1_555 1_555
C10_14 C9_14 1_555 1_555
H4_14 C10_14 1_555 1_555
C11_14 C9_14 1_555 1_555
H5_14 C11_14 1_555 1_555
C12_14 C11_14 1_555 1_555
C13_14 C12_14 1_555 1_555
C14_14 C12_14 1_555 1_555
H6_14 C14_14 1_555 1_555
C15_14 C10_14 1_555 1_555
C16_14 C15_14 1_555 1_555
C17_14 O8_14 1_555 1_555
C18_14 C17_14 1_555 1_555
C19_14 C18_14 1_555 1_555
H7_14 C19_14 1_555 1_555
C20_14 C19_14 1_555 1_555
C21_14 O10_14 1_555 1_555
C22_14 C20_14 1_555 1_555
H8_14 C22_14 1_555 1_555
C23_14 C18_14 1_555 1_555
H9_14 C23_14 1_555 1_555
C24_14 C22_14 1_555 1_555
C32_14 O15_14 1_555 1_555
C33_14 C32_14 1_555 1_555
C34_14 C33_14 1_555 1_555
H13_14 C34_14 1_555 1_555
C35_14 C34_14 1_555 1_555
C36_14 C35_14 1_555 1_555
C37_14 C35_14 1_555 1_555
H14_14 C37_14 1_555 1_555
C38_14 C33_14 1_555 1_555
H15_14 C38_14 1_555 1_555
C39_14 C37_14 1_555 1_555
O30_14 Zn33_9 1_555 1_555
O31_14 Zn36_7 1_555 1_555
O32_14 Zn21_2 1_555 1_555
Zn17_8 O37_26 1_555 1_555
Zn22_2 O60_26 1_555 1_555
Zn26_2 O45_26 1_555 1_555
Zn30_5 O52_26 1_555 1_555
Zn33_15 O6_14 1_555 1_555
Zn37_4 O7_14 1_555 1_555
Zn41_12 O47_26 1_555 1_555
Zn45_15 O59_26 1_555 1_555
O37_26 C65_26 1_555 1_555
O65_2 C69_26 1_555 1_555
O67_2 C69_26 1_555 1_555
O40_26 Zn33_15 1_555 1_555
O41_26 Zn37_4 1_555 1_555
O42_14 C80_26 1_555 1_555
O43_14 C80_26 1_555 1_555
O44_26 Zn17_8 1_555 1_555
O45_26 C81_26 1_555 1_555
O46_26 Zn33_15 1_555 1_555
O47_26 C85_26 1_555 1_555
O72_12 C112_26 1_555 1_555
O73_13 C94_26 1_555 1_555
O75_13 C94_26 1_555 1_555
O51_26 Zn17_8 1_555 1_555
O52_26 C96_26 1_555 1_555
O77_8 C100_26 1_555 1_555
O79_8 C100_26 1_555 1_555
O82_9 C107_26 1_555 1_555
O84_9 C107_26 1_555 1_555
O85_5 C110_26 1_555 1_555
O87_5 C110_26 1_555 1_555
O59_26 Zn33_15 1_555 1_555
O60_26 Zn17_8 1_555 1_555
C65_26 C66_26 1_555 1_555
C66_26 C67_26 1_555 1_555
C67_26 H25_26 1_555 1_555
C68_26 C67_26 1_555 1_555
C69_26 C68_26 1_555 1_555
C70_26 C68_26 1_555 1_555
H26_26 C70_26 1_555 1_555
C71_26 C66_26 1_555 1_555
H27_26 C71_26 1_555 1_555
C72_26 C70_26 1_555 1_555
C73_26 C72_26 1_555 1_555
C74_26 C73_26 1_555 1_555
H28_26 C74_26 1_555 1_555
C75_26 C73_26 1_555 1_555
H29_26 C75_26 1_555 1_555
C76_26 C75_26 1_555 1_555
C77_26 O40_26 1_555 1_555
C78_26 C76_26 1_555 1_555
H30_26 C78_26 1_555 1_555
C79_26 C74_26 1_555 1_555
C80_26 C79_26 1_555 1_555
C81_26 O44_26 1_555 1_555
C82_26 C81_26 1_555 1_555
C83_26 C82_26 1_555 1_555
H31_26 C83_26 1_555 1_555
C84_26 C83_26 1_555 1_555
C85_26 O46_26 1_555 1_555
C86_26 C84_26 1_555 1_555
H32_26 C86_26 1_555 1_555
C87_26 C82_26 1_555 1_555
H33_26 C87_26 1_555 1_555
C88_26 C86_26 1_555 1_555
C89_26 C88_26 1_555 1_555
C90_26 C89_26 1_555 1_555
H34_26 C90_26 1_555 1_555
C91_26 C90_26 1_555 1_555
O96_12 C112_26 1_555 1_555
C92_26 C91_26 1_555 1_555
H35_26 C92_26 1_555 1_555
C93_26 C92_26 1_555 1_555
C94_26 C93_26 1_555 1_555
C95_26 C89_26 1_555 1_555
H36_26 C95_26 1_555 1_555
C96_26 O51_26 1_555 1_555
C97_26 C96_26 1_555 1_555
C98_26 C97_26 1_555 1_555
H37_26 C98_26 1_555 1_555
C99_26 C98_26 1_555 1_555
C100_26 C99_26 1_555 1_555
C101_26 C99_26 1_555 1_555
H38_26 C101_26 1_555 1_555
C102_26 C97_26 1_555 1_555
H39_26 C102_26 1_555 1_555
C103_26 C101_26 1_555 1_555
C104_26 C103_26 1_555 1_555
C105_26 C104_26 1_555 1_555
H40_26 C105_26 1_555 1_555
C106_26 C105_26 1_555 1_555
C107_26 C106_26 1_555 1_555
C108_26 C106_26 1_555 1_555
H41_26 C108_26 1_555 1_555
C109_26 C108_26 1_555 1_555
C110_26 C109_26 1_555 1_555
C111_26 C104_26 1_555 1_555
H42_26 C111_26 1_555 1_555
O62_26 Zn33_15 1_555 1_555
O63_26 Zn37_4 1_555 1_555
O64_26 Zn22_2 1_555 1_555
C112_26 C91_26 1_555 1_555
Zn34_8 O42_14 1_555 1_555
Zn39_8 O43_14 1_555 1_555
O69_14 Zn33_9 1_555 1_555
O70_14 Zn36_7 1_555 1_555
Zn27_8 O28_14 1_555 1_555
Zn29_8 O28_14 1_555 1_555
Zn36_7 O27_14 1_555 1_555
Zn40_7 O27_14 1_555 1_555
Zn45_9 O27_14 1_555 1_555
C1_14 O32_14 1_555 1_555
C7_14 C8_14 1_555 1_555
C14_14 C15_14 1_555 1_555
C20_14 C21_14 1_555 1_555
C23_14 C24_14 1_555 1_555
C38_14 C39_14 1_555 1_555
Zn26_2 O60_26 1_555 1_555
Zn30_5 O60_26 1_555 1_555
Zn37_4 O59_26 1_555 1_555
Zn41_12 O59_26 1_555 1_555
O41_26 C77_26 1_555 1_555
C65_26 O64_26 1_555 1_555
C71_26 C72_26 1_555 1_555
C76_26 C77_26 1_555 1_555
C78_26 C79_26 1_555 1_555
C84_26 C85_26 1_555 1_555
C87_26 C88_26 1_555 1_555
C93_26 C95_26 1_555 1_555
C102_26 C103_26 1_555 1_555
C109_26 C111_26 1_555 1_555
O81_8 C43_14 1_555 1_555
O83_8 C43_14 1_555 1_555
O86_13 C46_14 1_555 1_555
O88_13 C46_14 1_555 1_555
C41_14 C40_14 1_555 1_555
H16_14 C41_14 1_555 1_555
C42_14 C41_14 1_555 1_555
C43_14 C42_14 1_555 1_555
C44_14 C42_14 1_555 1_555
H17_14 C44_14 1_555 1_555
C45_14 C44_14 1_555 1_555
C46_14 C45_14 1_555 1_555
C47_14 C40_14 1_555 1_555
H18_14 C47_14 1_555 1_555
C45_14 C47_14 1_555 1_555
O82_12 C107_27 1_555 1_555
O84_12 C107_27 1_555 1_555
O85_8 C110_27 1_555 1_555
O87_8 C110_27 1_555 1_555
C105_27 C104_27 1_555 1_555
H40_27 C105_27 1_555 1_555
C106_27 C105_27 1_555 1_555
C107_27 C106_27 1_555 1_555
C108_27 C106_27 1_555 1_555
H41_27 C108_27 1_555 1_555
C109_27 C108_27 1_555 1_555
C110_27 C109_27 1_555 1_555
C111_27 C104_27 1_555 1_555
H42_27 C111_27 1_555 1_555
C109_27 C111_27 1_555 1_555
O81_5 C43_15 1_555 1_555
O83_5 C43_15 1_555 1_555
O86_14 C46_15 1_555 1_555
O88_14 C46_15 1_555 1_555
C41_15 C40_15 1_555 1_555
H16_15 C41_15 1_555 1_555
C42_15 C41_15 1_555 1_555
C43_15 C42_15 1_555 1_555
C44_15 C42_15 1_555 1_555
H17_15 C44_15 1_555 1_555
C45_15 C44_15 1_555 1_555
C46_15 C45_15 1_555 1_555
C47_15 C40_15 1_555 1_555
H18_15 C47_15 1_555 1_555
C45_15 C47_15 1_555 1_555
Zn17_3 O1_15 1_555 1_555
Zn21_3 O28_15 1_555 1_555
Zn27_7 O9_15 1_555 1_555
Zn29_5 O16_15 1_555 1_555
Zn33_12 O4_15 1_555 1_555
Zn36_6 O5_15 1_555 1_555
Zn40_6 O11_15 1_555 1_555
O1_15 C1_15 1_555 1_555
O66_7 C5_15 1_555 1_555
O68_7 C5_15 1_555 1_555
O4_15 C13_15 1_555 1_555
O5_15 C13_15 1_555 1_555
O6_15 C16_15 1_555 1_555
O7_15 C16_15 1_555 1_555
O8_15 Zn17_3 1_555 1_555
O9_15 C17_15 1_555 1_555
O10_15 Zn33_12 1_555 1_555
O11_15 C21_15 1_555 1_555
O71_6 C56_15 1_555 1_555
O73_10 C30_15 1_555 1_555
O75_10 C30_15 1_555 1_555
O15_15 Zn17_3 1_555 1_555
O16_15 C32_15 1_555 1_555
O77_3 C36_15 1_555 1_555
O79_3 C36_15 1_555 1_555
O27_15 Zn33_12 1_555 1_555
O28_15 Zn17_3 1_555 1_555
C1_15 C2_15 1_555 1_555
C2_15 C3_15 1_555 1_555
C3_15 H1_15 1_555 1_555
C4_15 C3_15 1_555 1_555
C5_15 C4_15 1_555 1_555
C6_15 C4_15 1_555 1_555
H2_15 C6_15 1_555 1_555
C7_15 C2_15 1_555 1_555
H3_15 C7_15 1_555 1_555
C8_15 C6_15 1_555 1_555
C9_15 C8_15 1_555 1_555
C10_15 C9_15 1_555 1_555
H4_15 C10_15 1_555 1_555
C11_15 C9_15 1_555 1_555
H5_15 C11_15 1_555 1_555
C12_15 C11_15 1_555 1_555
C13_15 C12_15 1_555 1_555
C14_15 C12_15 1_555 1_555
H6_15 C14_15 1_555 1_555
C15_15 C10_15 1_555 1_555
C16_15 C15_15 1_555 1_555
C17_15 O8_15 1_555 1_555
C18_15 C17_15 1_555 1_555
C19_15 C18_15 1_555 1_555
H7_15 C19_15 1_555 1_555
C20_15 C19_15 1_555 1_555
C21_15 O10_15 1_555 1_555
C22_15 C20_15 1_555 1_555
H8_15 C22_15 1_555 1_555
C23_15 C18_15 1_555 1_555
H9_15 C23_15 1_555 1_555
C24_15 C22_15 1_555 1_555
C25_15 C24_15 1_555 1_555
C26_15 C25_15 1_555 1_555
H10_15 C26_15 1_555 1_555
C27_15 C26_15 1_555 1_555
O95_6 C56_15 1_555 1_555
C28_15 C27_15 1_555 1_555
H11_15 C28_15 1_555 1_555
C29_15 C28_15 1_555 1_555
C30_15 C29_15 1_555 1_555
C31_15 C25_15 1_555 1_555
H12_15 C31_15 1_555 1_555
C32_15 O15_15 1_555 1_555
C33_15 C32_15 1_555 1_555
C34_15 C33_15 1_555 1_555
H13_15 C34_15 1_555 1_555
C35_15 C34_15 1_555 1_555
C36_15 C35_15 1_555 1_555
C37_15 C35_15 1_555 1_555
H14_15 C37_15 1_555 1_555
C38_15 C33_15 1_555 1_555
H15_15 C38_15 1_555 1_555
C39_15 C37_15 1_555 1_555
O30_15 Zn33_12 1_555 1_555
O31_15 Zn36_6 1_555 1_555
O32_15 Zn21_3 1_555 1_555
C56_15 C27_15 1_555 1_555
Zn17_7 O37_27 1_555 1_555
Zn22_3 O60_27 1_555 1_555
Zn26_3 O45_27 1_555 1_555
Zn30_8 O52_27 1_555 1_555
Zn33_16 O6_15 1_555 1_555
Zn38_3 O7_15 1_555 1_555
Zn41_9 O47_27 1_555 1_555
Zn45_16 O59_27 1_555 1_555
O37_27 C65_27 1_555 1_555
O65_3 C69_27 1_555 1_555
O67_3 C69_27 1_555 1_555
O40_27 Zn33_16 1_555 1_555
O41_27 Zn38_3 1_555 1_555
O42_15 C80_27 1_555 1_555
O43_15 C80_27 1_555 1_555
O44_27 Zn17_7 1_555 1_555
O45_27 C81_27 1_555 1_555
O46_27 Zn33_16 1_555 1_555
O47_27 C85_27 1_555 1_555
O72_9 C112_27 1_555 1_555
O73_14 C94_27 1_555 1_555
O75_14 C94_27 1_555 1_555
O51_27 Zn17_7 1_555 1_555
O52_27 C96_27 1_555 1_555
O77_7 C100_27 1_555 1_555
O79_7 C100_27 1_555 1_555
O59_27 Zn33_16 1_555 1_555
O60_27 Zn17_7 1_555 1_555
C65_27 C66_27 1_555 1_555
C66_27 C67_27 1_555 1_555
C67_27 H25_27 1_555 1_555
C68_27 C67_27 1_555 1_555
C69_27 C68_27 1_555 1_555
C70_27 C68_27 1_555 1_555
H26_27 C70_27 1_555 1_555
C71_27 C66_27 1_555 1_555
H27_27 C71_27 1_555 1_555
C72_27 C70_27 1_555 1_555
C73_27 C72_27 1_555 1_555
C74_27 C73_27 1_555 1_555
H28_27 C74_27 1_555 1_555
C75_27 C73_27 1_555 1_555
H29_27 C75_27 1_555 1_555
C76_27 C75_27 1_555 1_555
C77_27 O40_27 1_555 1_555
C78_27 C76_27 1_555 1_555
H30_27 C78_27 1_555 1_555
C79_27 C74_27 1_555 1_555
C80_27 C79_27 1_555 1_555
C81_27 O44_27 1_555 1_555
C82_27 C81_27 1_555 1_555
C83_27 C82_27 1_555 1_555
H31_27 C83_27 1_555 1_555
C84_27 C83_27 1_555 1_555
C85_27 O46_27 1_555 1_555
C86_27 C84_27 1_555 1_555
H32_27 C86_27 1_555 1_555
C87_27 C82_27 1_555 1_555
H33_27 C87_27 1_555 1_555
C88_27 C86_27 1_555 1_555
C89_27 C88_27 1_555 1_555
C90_27 C89_27 1_555 1_555
H34_27 C90_27 1_555 1_555
C91_27 C90_27 1_555 1_555
O96_9 C112_27 1_555 1_555
C92_27 C91_27 1_555 1_555
H35_27 C92_27 1_555 1_555
C93_27 C92_27 1_555 1_555
C94_27 C93_27 1_555 1_555
C95_27 C89_27 1_555 1_555
H36_27 C95_27 1_555 1_555
C96_27 O51_27 1_555 1_555
C97_27 C96_27 1_555 1_555
C98_27 C97_27 1_555 1_555
H37_27 C98_27 1_555 1_555
C99_27 C98_27 1_555 1_555
C100_27 C99_27 1_555 1_555
C101_27 C99_27 1_555 1_555
H38_27 C101_27 1_555 1_555
C102_27 C97_27 1_555 1_555
H39_27 C102_27 1_555 1_555
C103_27 C101_27 1_555 1_555
O62_27 Zn33_16 1_555 1_555
O63_27 Zn38_3 1_555 1_555
O64_27 Zn22_3 1_555 1_555
C112_27 C91_27 1_555 1_555
Zn34_5 O42_15 1_555 1_555
Zn39_5 O43_15 1_555 1_555
O69_15 Zn33_12 1_555 1_555
O70_15 Zn36_6 1_555 1_555
Zn27_7 O28_15 1_555 1_555
Zn29_5 O28_15 1_555 1_555
Zn36_6 O27_15 1_555 1_555
Zn40_6 O27_15 1_555 1_555
Zn45_12 O27_15 1_555 1_555
C1_15 O32_15 1_555 1_555
C7_15 C8_15 1_555 1_555
C14_15 C15_15 1_555 1_555
C20_15 C21_15 1_555 1_555
C23_15 C24_15 1_555 1_555
C29_15 C31_15 1_555 1_555
C38_15 C39_15 1_555 1_555
Zn26_3 O60_27 1_555 1_555
Zn30_8 O60_27 1_555 1_555
Zn38_3 O59_27 1_555 1_555
Zn41_9 O59_27 1_555 1_555
O41_27 C77_27 1_555 1_555
C65_27 O64_27 1_555 1_555
C71_27 C72_27 1_555 1_555
C76_27 C77_27 1_555 1_555
C78_27 C79_27 1_555 1_555
C84_27 C85_27 1_555 1_555
C87_27 C88_27 1_555 1_555
C93_27 C95_27 1_555 1_555
C102_27 C103_27 1_555 1_555
Zn17_4 O1_16 1_555 1_555
Zn21_4 O28_16 1_555 1_555
Zn27_5 O9_16 1_555 1_555
Zn29_6 O16_16 1_555 1_555
Zn33_11 O4_16 1_555 1_555
Zn36_5 O5_16 1_555 1_555
Zn40_5 O11_16 1_555 1_555
O1_16 C1_16 1_555 1_555
O66_5 C5_16 1_555 1_555
O68_5 C5_16 1_555 1_555
O4_16 C13_16 1_555 1_555
O5_16 C13_16 1_555 1_555
O6_16 C16_16 1_555 1_555
O7_16 C16_16 1_555 1_555
O8_16 Zn17_4 1_555 1_555
O9_16 C17_16 1_555 1_555
O10_16 Zn33_11 1_555 1_555
O11_16 C21_16 1_555 1_555
O71_5 C56_16 1_555 1_555
O73_9 C30_16 1_555 1_555
O75_9 C30_16 1_555 1_555
O15_16 Zn17_4 1_555 1_555
O16_16 C32_16 1_555 1_555
O77_4 C36_16 1_555 1_555
O79_4 C36_16 1_555 1_555
O81_6 C43_16 1_555 1_555
O83_6 C43_16 1_555 1_555
O86_16 C46_16 1_555 1_555
O88_16 C46_16 1_555 1_555
O27_16 Zn33_11 1_555 1_555
O28_16 Zn17_4 1_555 1_555
C1_16 C2_16 1_555 1_555
C2_16 C3_16 1_555 1_555
C3_16 H1_16 1_555 1_555
C4_16 C3_16 1_555 1_555
C5_16 C4_16 1_555 1_555
C6_16 C4_16 1_555 1_555
H2_16 C6_16 1_555 1_555
C7_16 C2_16 1_555 1_555
H3_16 C7_16 1_555 1_555
C8_16 C6_16 1_555 1_555
C9_16 C8_16 1_555 1_555
C10_16 C9_16 1_555 1_555
H4_16 C10_16 1_555 1_555
C11_16 C9_16 1_555 1_555
H5_16 C11_16 1_555 1_555
C12_16 C11_16 1_555 1_555
C13_16 C12_16 1_555 1_555
C14_16 C12_16 1_555 1_555
H6_16 C14_16 1_555 1_555
C15_16 C10_16 1_555 1_555
C16_16 C15_16 1_555 1_555
C17_16 O8_16 1_555 1_555
C18_16 C17_16 1_555 1_555
C19_16 C18_16 1_555 1_555
H7_16 C19_16 1_555 1_555
C20_16 C19_16 1_555 1_555
C21_16 O10_16 1_555 1_555
C22_16 C20_16 1_555 1_555
H8_16 C22_16 1_555 1_555
C23_16 C18_16 1_555 1_555
H9_16 C23_16 1_555 1_555
C24_16 C22_16 1_555 1_555
C25_16 C24_16 1_555 1_555
C26_16 C25_16 1_555 1_555
H10_16 C26_16 1_555 1_555
C27_16 C26_16 1_555 1_555
O95_5 C56_16 1_555 1_555
C28_16 C27_16 1_555 1_555
H11_16 C28_16 1_555 1_555
C29_16 C28_16 1_555 1_555
C30_16 C29_16 1_555 1_555
C31_16 C25_16 1_555 1_555
H12_16 C31_16 1_555 1_555
C32_16 O15_16 1_555 1_555
C33_16 C32_16 1_555 1_555
C34_16 C33_16 1_555 1_555
H13_16 C34_16 1_555 1_555
C35_16 C34_16 1_555 1_555
C36_16 C35_16 1_555 1_555
C37_16 C35_16 1_555 1_555
H14_16 C37_16 1_555 1_555
C38_16 C33_16 1_555 1_555
H15_16 C38_16 1_555 1_555
C39_16 C37_16 1_555 1_555
C40_16 C39_16 1_555 1_555
C41_16 C40_16 1_555 1_555
H16_16 C41_16 1_555 1_555
C42_16 C41_16 1_555 1_555
C43_16 C42_16 1_555 1_555
C44_16 C42_16 1_555 1_555
H17_16 C44_16 1_555 1_555
C45_16 C44_16 1_555 1_555
C46_16 C45_16 1_555 1_555
C47_16 C40_16 1_555 1_555
H18_16 C47_16 1_555 1_555
O30_16 Zn33_11 1_555 1_555
O31_16 Zn36_5 1_555 1_555
O32_16 Zn21_4 1_555 1_555
C56_16 C27_16 1_555 1_555
Zn17_5 O37_28 1_555 1_555
Zn22_4 O60_28 1_555 1_555
Zn26_4 O45_28 1_555 1_555
Zn30_7 O52_28 1_555 1_555
Zn33_14 O6_16 1_555 1_555
Zn37_3 O7_16 1_555 1_555
Zn41_10 O47_28 1_555 1_555
Zn45_14 O59_28 1_555 1_555
O37_28 C65_28 1_555 1_555
O65_4 C69_28 1_555 1_555
O67_4 C69_28 1_555 1_555
O40_28 Zn33_14 1_555 1_555
O41_28 Zn37_3 1_555 1_555
O42_16 C80_28 1_555 1_555
O43_16 C80_28 1_555 1_555
O44_28 Zn17_5 1_555 1_555
O45_28 C81_28 1_555 1_555
O46_28 Zn33_14 1_555 1_555
O47_28 C85_28 1_555 1_555
O51_28 Zn17_5 1_555 1_555
O52_28 C96_28 1_555 1_555
O77_5 C100_28 1_555 1_555
O79_5 C100_28 1_555 1_555
O82_11 C107_28 1_555 1_555
O84_11 C107_28 1_555 1_555
O85_7 C110_28 1_555 1_555
O87_7 C110_28 1_555 1_555
O59_28 Zn33_14 1_555 1_555
O60_28 Zn17_5 1_555 1_555
C65_28 C66_28 1_555 1_555
C66_28 C67_28 1_555 1_555
C67_28 H25_28 1_555 1_555
C68_28 C67_28 1_555 1_555
C69_28 C68_28 1_555 1_555
C70_28 C68_28 1_555 1_555
H26_28 C70_28 1_555 1_555
C71_28 C66_28 1_555 1_555
H27_28 C71_28 1_555 1_555
C72_28 C70_28 1_555 1_555
C73_28 C72_28 1_555 1_555
C74_28 C73_28 1_555 1_555
H28_28 C74_28 1_555 1_555
C75_28 C73_28 1_555 1_555
H29_28 C75_28 1_555 1_555
C76_28 C75_28 1_555 1_555
C77_28 O40_28 1_555 1_555
C78_28 C76_28 1_555 1_555
H30_28 C78_28 1_555 1_555
C79_28 C74_28 1_555 1_555
C80_28 C79_28 1_555 1_555
C81_28 O44_28 1_555 1_555
C82_28 C81_28 1_555 1_555
C83_28 C82_28 1_555 1_555
H31_28 C83_28 1_555 1_555
C84_28 C83_28 1_555 1_555
C85_28 O46_28 1_555 1_555
C86_28 C84_28 1_555 1_555
H32_28 C86_28 1_555 1_555
C87_28 C82_28 1_555 1_555
H33_28 C87_28 1_555 1_555
C88_28 C86_28 1_555 1_555
C96_28 O51_28 1_555 1_555
C97_28 C96_28 1_555 1_555
C98_28 C97_28 1_555 1_555
H37_28 C98_28 1_555 1_555
C99_28 C98_28 1_555 1_555
C100_28 C99_28 1_555 1_555
C101_28 C99_28 1_555 1_555
H38_28 C101_28 1_555 1_555
C102_28 C97_28 1_555 1_555
H39_28 C102_28 1_555 1_555
C103_28 C101_28 1_555 1_555
C104_28 C103_28 1_555 1_555
C105_28 C104_28 1_555 1_555
H40_28 C105_28 1_555 1_555
C106_28 C105_28 1_555 1_555
C107_28 C106_28 1_555 1_555
C108_28 C106_28 1_555 1_555
H41_28 C108_28 1_555 1_555
C109_28 C108_28 1_555 1_555
C110_28 C109_28 1_555 1_555
C111_28 C104_28 1_555 1_555
H42_28 C111_28 1_555 1_555
O62_28 Zn33_14 1_555 1_555
O63_28 Zn37_3 1_555 1_555
O64_28 Zn22_4 1_555 1_555
Zn34_6 O42_16 1_555 1_555
Zn39_6 O43_16 1_555 1_555
O69_16 Zn33_11 1_555 1_555
O70_16 Zn36_5 1_555 1_555
Zn27_5 O28_16 1_555 1_555
Zn29_6 O28_16 1_555 1_555
Zn36_5 O27_16 1_555 1_555
Zn40_5 O27_16 1_555 1_555
Zn45_11 O27_16 1_555 1_555
C1_16 O32_16 1_555 1_555
C7_16 C8_16 1_555 1_555
C14_16 C15_16 1_555 1_555
C20_16 C21_16 1_555 1_555
C23_16 C24_16 1_555 1_555
C29_16 C31_16 1_555 1_555
C38_16 C39_16 1_555 1_555
C45_16 C47_16 1_555 1_555
Zn26_4 O60_28 1_555 1_555
Zn30_7 O60_28 1_555 1_555
Zn37_3 O59_28 1_555 1_555
Zn41_10 O59_28 1_555 1_555
O41_28 C77_28 1_555 1_555
C65_28 O64_28 1_555 1_555
C71_28 C72_28 1_555 1_555
C76_28 C77_28 1_555 1_555
C78_28 C79_28 1_555 1_555
C84_28 C85_28 1_555 1_555
C87_28 C88_28 1_555 1_555
C102_28 C103_28 1_555 1_555
C109_28 C111_28 1_555 1_555
O72_10 C112_28 1_555 1_555
O73_16 C94_28 1_555 1_555
O75_16 C94_28 1_555 1_555
C90_28 C89_28 1_555 1_555
H34_28 C90_28 1_555 1_555
C91_28 C90_28 1_555 1_555
O96_10 C112_28 1_555 1_555
C92_28 C91_28 1_555 1_555
H35_28 C92_28 1_555 1_555
C93_28 C92_28 1_555 1_555
C94_28 C93_28 1_555 1_555
C95_28 C89_28 1_555 1_555
H36_28 C95_28 1_555 1_555
C112_28 C91_28 1_555 1_555
C93_28 C95_28 1_555 1_555
O72_15 C112_29 1_555 1_555
O74_7 C94_29 1_555 1_555
O76_7 C94_29 1_555 1_555
C90_29 C89_29 1_555 1_555
H34_29 C90_29 1_555 1_555
C91_29 C90_29 1_555 1_555
O96_15 C112_29 1_555 1_555
C92_29 C91_29 1_555 1_555
H35_29 C92_29 1_555 1_555
C93_29 C92_29 1_555 1_555
C94_29 C93_29 1_555 1_555
C95_29 C89_29 1_555 1_555
H36_29 C95_29 1_555 1_555
C112_29 C91_29 1_555 1_555
C93_29 C95_29 1_555 1_555
Zn18_4 O37_29 1_555 1_555
Zn23_4 O60_29 1_555 1_555
Zn27_4 O45_29 1_555 1_555
Zn31_7 O52_29 1_555 1_555
Zn41_15 O47_29 1_555 1_555
Zn46_6 O59_29 1_555 1_555
O37_29 C65_29 1_555 1_555
O66_4 C69_29 1_555 1_555
O68_4 C69_29 1_555 1_555
O40_29 Zn34_6 1_555 1_555
O41_29 Zn39_6 1_555 1_555
O69_16 C80_29 1_555 1_555
O70_16 C80_29 1_555 1_555
O44_29 Zn18_4 1_555 1_555
O45_29 C81_29 1_555 1_555
O46_29 Zn34_6 1_555 1_555
O47_29 C85_29 1_555 1_555
O51_29 Zn18_4 1_555 1_555
O52_29 C96_29 1_555 1_555
O78_4 C100_29 1_555 1_555
O80_4 C100_29 1_555 1_555
O59_29 Zn34_6 1_555 1_555
O60_29 Zn18_4 1_555 1_555
C65_29 C66_29 1_555 1_555
C66_29 C67_29 1_555 1_555
C67_29 H25_29 1_555 1_555
C68_29 C67_29 1_555 1_555
C69_29 C68_29 1_555 1_555
C70_29 C68_29 1_555 1_555
H26_29 C70_29 1_555 1_555
C71_29 C66_29 1_555 1_555
H27_29 C71_29 1_555 1_555
C72_29 C70_29 1_555 1_555
C73_29 C72_29 1_555 1_555
C74_29 C73_29 1_555 1_555
H28_29 C74_29 1_555 1_555
C75_29 C73_29 1_555 1_555
H29_29 C75_29 1_555 1_555
C76_29 C75_29 1_555 1_555
C77_29 O40_29 1_555 1_555
C78_29 C76_29 1_555 1_555
H30_29 C78_29 1_555 1_555
C79_29 C74_29 1_555 1_555
C80_29 C79_29 1_555 1_555
C81_29 O44_29 1_555 1_555
C82_29 C81_29 1_555 1_555
C83_29 C82_29 1_555 1_555
H31_29 C83_29 1_555 1_555
C84_29 C83_29 1_555 1_555
C85_29 O46_29 1_555 1_555
C86_29 C84_29 1_555 1_555
H32_29 C86_29 1_555 1_555
C87_29 C82_29 1_555 1_555
H33_29 C87_29 1_555 1_555
C88_29 C86_29 1_555 1_555
C96_29 O51_29 1_555 1_555
C97_29 C96_29 1_555 1_555
C98_29 C97_29 1_555 1_555
H37_29 C98_29 1_555 1_555
C99_29 C98_29 1_555 1_555
C100_29 C99_29 1_555 1_555
C101_29 C99_29 1_555 1_555
H38_29 C101_29 1_555 1_555
C102_29 C97_29 1_555 1_555
H39_29 C102_29 1_555 1_555
C103_29 C101_29 1_555 1_555
O62_29 Zn34_6 1_555 1_555
O63_29 Zn39_6 1_555 1_555
O64_29 Zn23_4 1_555 1_555
Zn27_4 O60_29 1_555 1_555
Zn31_7 O60_29 1_555 1_555
Zn39_6 O59_29 1_555 1_555
Zn41_15 O59_29 1_555 1_555
O41_29 C77_29 1_555 1_555
C65_29 O64_29 1_555 1_555
C71_29 C72_29 1_555 1_555
C76_29 C77_29 1_555 1_555
C78_29 C79_29 1_555 1_555
C84_29 C85_29 1_555 1_555
C87_29 C88_29 1_555 1_555
C102_29 C103_29 1_555 1_555
O82_14 C107_29 1_555 1_555
O84_14 C107_29 1_555 1_555
O86_9 C110_29 1_555 1_555
O88_9 C110_29 1_555 1_555
C105_29 C104_29 1_555 1_555
H40_29 C105_29 1_555 1_555
C106_29 C105_29 1_555 1_555
C107_29 C106_29 1_555 1_555
C108_29 C106_29 1_555 1_555
H41_29 C108_29 1_555 1_555
C109_29 C108_29 1_555 1_555
C110_29 C109_29 1_555 1_555
C111_29 C104_29 1_555 1_555
H42_29 C111_29 1_555 1_555
C109_29 C111_29 1_555 1_555
Zn18 O37_30 1_555 1_555
Zn23 O60_30 1_555 1_555
Zn27 O45_30 1_555 1_555
Zn31_6 O52_30 1_555 1_555
Zn41_16 O47_30 1_555 1_555
Zn46_7 O59_30 1_555 1_555
O37_30 C65_30 1_555 1_555
O66 C69_30 1_555 1_555
O68 C69_30 1_555 1_555
O40_30 Zn34_7 1_555 1_555
O41_30 Zn39_7 1_555 1_555
O69_13 C80_30 1_555 1_555
O70_13 C80_30 1_555 1_555
O44_30 Zn18 1_555 1_555
O45_30 C81_30 1_555 1_555
O46_30 Zn34_7 1_555 1_555
O47_30 C85_30 1_555 1_555
O72_16 C112_30 1_555 1_555
O74_6 C94_30 1_555 1_555
O76_6 C94_30 1_555 1_555
O51_30 Zn18 1_555 1_555
O52_30 C96_30 1_555 1_555
O78 C100_30 1_555 1_555
O80 C100_30 1_555 1_555
O82_13 C107_30 1_555 1_555
O84_13 C107_30 1_555 1_555
O86_12 C110_30 1_555 1_555
O88_12 C110_30 1_555 1_555
O59_30 Zn34_7 1_555 1_555
O60_30 Zn18 1_555 1_555
C65_30 C66_30 1_555 1_555
C66_30 C67_30 1_555 1_555
C67_30 H25_30 1_555 1_555
C68_30 C67_30 1_555 1_555
C69_30 C68_30 1_555 1_555
C70_30 C68_30 1_555 1_555
H26_30 C70_30 1_555 1_555
C71_30 C66_30 1_555 1_555
H27_30 C71_30 1_555 1_555
C72_30 C70_30 1_555 1_555
C73_30 C72_30 1_555 1_555
C74_30 C73_30 1_555 1_555
H28_30 C74_30 1_555 1_555
C75_30 C73_30 1_555 1_555
H29_30 C75_30 1_555 1_555
C76_30 C75_30 1_555 1_555
C77_30 O40_30 1_555 1_555
C78_30 C76_30 1_555 1_555
H30_30 C78_30 1_555 1_555
C79_30 C74_30 1_555 1_555
C80_30 C79_30 1_555 1_555
C81_30 O44_30 1_555 1_555
C82_30 C81_30 1_555 1_555
C83_30 C82_30 1_555 1_555
H31_30 C83_30 1_555 1_555
C84_30 C83_30 1_555 1_555
C85_30 O46_30 1_555 1_555
C86_30 C84_30 1_555 1_555
H32_30 C86_30 1_555 1_555
C87_30 C82_30 1_555 1_555
H33_30 C87_30 1_555 1_555
C88_30 C86_30 1_555 1_555
C89_30 C88_30 1_555 1_555
C90_30 C89_30 1_555 1_555
H34_30 C90_30 1_555 1_555
C91_30 C90_30 1_555 1_555
O96_16 C112_30 1_555 1_555
C92_30 C91_30 1_555 1_555
H35_30 C92_30 1_555 1_555
C93_30 C92_30 1_555 1_555
C94_30 C93_30 1_555 1_555
C95_30 C89_30 1_555 1_555
H36_30 C95_30 1_555 1_555
C96_30 O51_30 1_555 1_555
C97_30 C96_30 1_555 1_555
C98_30 C97_30 1_555 1_555
H37_30 C98_30 1_555 1_555
C99_30 C98_30 1_555 1_555
C100_30 C99_30 1_555 1_555
C101_30 C99_30 1_555 1_555
H38_30 C101_30 1_555 1_555
C102_30 C97_30 1_555 1_555
H39_30 C102_30 1_555 1_555
C103_30 C101_30 1_555 1_555
C104_30 C103_30 1_555 1_555
C105_30 C104_30 1_555 1_555
H40_30 C105_30 1_555 1_555
C106_30 C105_30 1_555 1_555
C107_30 C106_30 1_555 1_555
C108_30 C106_30 1_555 1_555
H41_30 C108_30 1_555 1_555
C109_30 C108_30 1_555 1_555
C110_30 C109_30 1_555 1_555
C111_30 C104_30 1_555 1_555
H42_30 C111_30 1_555 1_555
O62_30 Zn34_7 1_555 1_555
O63_30 Zn39_7 1_555 1_555
O64_30 Zn23 1_555 1_555
C112_30 C91_30 1_555 1_555
Zn27 O60_30 1_555 1_555
Zn31_6 O60_30 1_555 1_555
Zn39_7 O59_30 1_555 1_555
Zn41_16 O59_30 1_555 1_555
O41_30 C77_30 1_555 1_555
C65_30 O64_30 1_555 1_555
C71_30 C72_30 1_555 1_555
C76_30 C77_30 1_555 1_555
C78_30 C79_30 1_555 1_555
C84_30 C85_30 1_555 1_555
C87_30 C88_30 1_555 1_555
C93_30 C95_30 1_555 1_555
C102_30 C103_30 1_555 1_555
C109_30 C111_30 1_555 1_555
O82_16 C107_31 1_555 1_555
O84_16 C107_31 1_555 1_555
O86_10 C110_31 1_555 1_555
O88_10 C110_31 1_555 1_555
C105_31 C104_31 1_555 1_555
H40_31 C105_31 1_555 1_555
C106_31 C105_31 1_555 1_555
C107_31 C106_31 1_555 1_555
C108_31 C106_31 1_555 1_555
H41_31 C108_31 1_555 1_555
C109_31 C108_31 1_555 1_555
C110_31 C109_31 1_555 1_555
C111_31 C104_31 1_555 1_555
H42_31 C111_31 1_555 1_555
C109_31 C111_31 1_555 1_555
Zn18_3 O37_31 1_555 1_555
Zn23_3 O60_31 1_555 1_555
Zn27_3 O45_31 1_555 1_555
Zn31_8 O52_31 1_555 1_555
Zn41_13 O47_31 1_555 1_555
Zn46_5 O59_31 1_555 1_555
O37_31 C65_31 1_555 1_555
O66_3 C69_31 1_555 1_555
O68_3 C69_31 1_555 1_555
O40_31 Zn34_5 1_555 1_555
O41_31 Zn39_5 1_555 1_555
O69_15 C80_31 1_555 1_555
O70_15 C80_31 1_555 1_555
O44_31 Zn18_3 1_555 1_555
O45_31 C81_31 1_555 1_555
O46_31 Zn34_5 1_555 1_555
O47_31 C85_31 1_555 1_555
O72_13 C112_31 1_555 1_555
O74_8 C94_31 1_555 1_555
O76_8 C94_31 1_555 1_555
O51_31 Zn18_3 1_555 1_555
O52_31 C96_31 1_555 1_555
O78_3 C100_31 1_555 1_555
O80_3 C100_31 1_555 1_555
O59_31 Zn34_5 1_555 1_555
O60_31 Zn18_3 1_555 1_555
C65_31 C66_31 1_555 1_555
C66_31 C67_31 1_555 1_555
C67_31 H25_31 1_555 1_555
C68_31 C67_31 1_555 1_555
C69_31 C68_31 1_555 1_555
C70_31 C68_31 1_555 1_555
H26_31 C70_31 1_555 1_555
C71_31 C66_31 1_555 1_555
H27_31 C71_31 1_555 1_555
C72_31 C70_31 1_555 1_555
C73_31 C72_31 1_555 1_555
C74_31 C73_31 1_555 1_555
H28_31 C74_31 1_555 1_555
C75_31 C73_31 1_555 1_555
H29_31 C75_31 1_555 1_555
C76_31 C75_31 1_555 1_555
C77_31 O40_31 1_555 1_555
C78_31 C76_31 1_555 1_555
H30_31 C78_31 1_555 1_555
C79_31 C74_31 1_555 1_555
C80_31 C79_31 1_555 1_555
C81_31 O44_31 1_555 1_555
C82_31 C81_31 1_555 1_555
C83_31 C82_31 1_555 1_555
H31_31 C83_31 1_555 1_555
C84_31 C83_31 1_555 1_555
C85_31 O46_31 1_555 1_555
C86_31 C84_31 1_555 1_555
H32_31 C86_31 1_555 1_555
C87_31 C82_31 1_555 1_555
H33_31 C87_31 1_555 1_555
C88_31 C86_31 1_555 1_555
C89_31 C88_31 1_555 1_555
C90_31 C89_31 1_555 1_555
H34_31 C90_31 1_555 1_555
C91_31 C90_31 1_555 1_555
O96_13 C112_31 1_555 1_555
C92_31 C91_31 1_555 1_555
H35_31 C92_31 1_555 1_555
C93_31 C92_31 1_555 1_555
C94_31 C93_31 1_555 1_555
C95_31 C89_31 1_555 1_555
H36_31 C95_31 1_555 1_555
C96_31 O51_31 1_555 1_555
C97_31 C96_31 1_555 1_555
C98_31 C97_31 1_555 1_555
H37_31 C98_31 1_555 1_555
C99_31 C98_31 1_555 1_555
C100_31 C99_31 1_555 1_555
C101_31 C99_31 1_555 1_555
H38_31 C101_31 1_555 1_555
C102_31 C97_31 1_555 1_555
H39_31 C102_31 1_555 1_555
C103_31 C101_31 1_555 1_555
O62_31 Zn34_5 1_555 1_555
O63_31 Zn39_5 1_555 1_555
O64_31 Zn23_3 1_555 1_555
C112_31 C91_31 1_555 1_555
Zn27_3 O60_31 1_555 1_555
Zn31_8 O60_31 1_555 1_555
Zn39_5 O59_31 1_555 1_555
Zn41_13 O59_31 1_555 1_555
O41_31 C77_31 1_555 1_555
C65_31 O64_31 1_555 1_555
C71_31 C72_31 1_555 1_555
C76_31 C77_31 1_555 1_555
C78_31 C79_31 1_555 1_555
C84_31 C85_31 1_555 1_555
C87_31 C88_31 1_555 1_555
C93_31 C95_31 1_555 1_555
C102_31 C103_31 1_555 1_555
Zn18_2 O37_32 1_555 1_555
Zn23_2 O60_32 1_555 1_555
Zn27_2 O45_32 1_555 1_555
Zn31_5 O52_32 1_555 1_555
Zn41_14 O47_32 1_555 1_555
Zn46_8 O59_32 1_555 1_555
O37_32 C65_32 1_555 1_555
O66_2 C69_32 1_555 1_555
O68_2 C69_32 1_555 1_555
O40_32 Zn34_8 1_555 1_555
O41_32 Zn39_8 1_555 1_555
O69_14 C80_32 1_555 1_555
O70_14 C80_32 1_555 1_555
O44_32 Zn18_2 1_555 1_555
O45_32 C81_32 1_555 1_555
O46_32 Zn34_8 1_555 1_555
O47_32 C85_32 1_555 1_555
O51_32 Zn18_2 1_555 1_555
O52_32 C96_32 1_555 1_555
O78_2 C100_32 1_555 1_555
O80_2 C100_32 1_555 1_555
O82_15 C107_32 1_555 1_555
O84_15 C107_32 1_555 1_555
O86_11 C110_32 1_555 1_555
O88_11 C110_32 1_555 1_555
O59_32 Zn34_8 1_555 1_555
O60_32 Zn18_2 1_555 1_555
C65_32 C66_32 1_555 1_555
C66_32 C67_32 1_555 1_555
C67_32 H25_32 1_555 1_555
C68_32 C67_32 1_555 1_555
C69_32 C68_32 1_555 1_555
C70_32 C68_32 1_555 1_555
H26_32 C70_32 1_555 1_555
C71_32 C66_32 1_555 1_555
H27_32 C71_32 1_555 1_555
C72_32 C70_32 1_555 1_555
C73_32 C72_32 1_555 1_555
C74_32 C73_32 1_555 1_555
H28_32 C74_32 1_555 1_555
C75_32 C73_32 1_555 1_555
H29_32 C75_32 1_555 1_555
C76_32 C75_32 1_555 1_555
C77_32 O40_32 1_555 1_555
C78_32 C76_32 1_555 1_555
H30_32 C78_32 1_555 1_555
C79_32 C74_32 1_555 1_555
C80_32 C79_32 1_555 1_555
C81_32 O44_32 1_555 1_555
C82_32 C81_32 1_555 1_555
C83_32 C82_32 1_555 1_555
H31_32 C83_32 1_555 1_555
C84_32 C83_32 1_555 1_555
C85_32 O46_32 1_555 1_555
C86_32 C84_32 1_555 1_555
H32_32 C86_32 1_555 1_555
C87_32 C82_32 1_555 1_555
H33_32 C87_32 1_555 1_555
C88_32 C86_32 1_555 1_555
C96_32 O51_32 1_555 1_555
C97_32 C96_32 1_555 1_555
C98_32 C97_32 1_555 1_555
H37_32 C98_32 1_555 1_555
C99_32 C98_32 1_555 1_555
C100_32 C99_32 1_555 1_555
C101_32 C99_32 1_555 1_555
H38_32 C101_32 1_555 1_555
C102_32 C97_32 1_555 1_555
H39_32 C102_32 1_555 1_555
C103_32 C101_32 1_555 1_555
C104_32 C103_32 1_555 1_555
C105_32 C104_32 1_555 1_555
H40_32 C105_32 1_555 1_555
C106_32 C105_32 1_555 1_555
C107_32 C106_32 1_555 1_555
C108_32 C106_32 1_555 1_555
H41_32 C108_32 1_555 1_555
C109_32 C108_32 1_555 1_555
C110_32 C109_32 1_555 1_555
C111_32 C104_32 1_555 1_555
H42_32 C111_32 1_555 1_555
O62_32 Zn34_8 1_555 1_555
O63_32 Zn39_8 1_555 1_555
O64_32 Zn23_2 1_555 1_555
Zn27_2 O60_32 1_555 1_555
Zn31_5 O60_32 1_555 1_555
Zn39_8 O59_32 1_555 1_555
Zn41_14 O59_32 1_555 1_555
O41_32 C77_32 1_555 1_555
C65_32 O64_32 1_555 1_555
C71_32 C72_32 1_555 1_555
C76_32 C77_32 1_555 1_555
C78_32 C79_32 1_555 1_555
C84_32 C85_32 1_555 1_555
C87_32 C88_32 1_555 1_555
C102_32 C103_32 1_555 1_555
C109_32 C111_32 1_555 1_555
O72_14 C112_32 1_555 1_555
O74_5 C94_32 1_555 1_555
O76_5 C94_32 1_555 1_555
C90_32 C89_32 1_555 1_555
H34_32 C90_32 1_555 1_555
C91_32 C90_32 1_555 1_555
O96_14 C112_32 1_555 1_555
C92_32 C91_32 1_555 1_555
H35_32 C92_32 1_555 1_555
C93_32 C92_32 1_555 1_555
C94_32 C93_32 1_555 1_555
C95_32 C89_32 1_555 1_555
H36_32 C95_32 1_555 1_555
C112_32 C91_32 1_555 1_555
C93_32 C95_32 1_555 1_555

#END
