
###############################################################################
#
# This file contains modified crystal structure data generated from the
# MOF subset of the Cambridge Structural Database (CSD) v543 
# hosted by the Cambridge Crystallographic Data Centre (CCDC).
#
# This work is licensed under the Creative Commons
# Attribution-NonCommercial-ShareAlike 4.0 International License.
# To view a copy of this license, visit
# http://creativecommons.org/licenses/by-nc-sa/4.0/
# or send a letter to
# Creative Commons, PO Box 1866, Mountain View, CA 94042, USA.
#
# CIF created using the CSD Python API on 29 September 2022
# The structure has been converted into the P1 space group
# The structure has a 3D framework
# The original CSD entry QOZDOY is in the orthorhombic crystal system
# The framework has been calculated to contain at least 10.0% void space
# The void calculation uses a probe of radius 1.32A, grid spacing 0.4
#
###############################################################################

data_QOZDOY
_chemical_formula_moiety         '(C64 H48 N8 O16 Zn6)n'
_symmetry_cell_setting           triclinic
_symmetry_space_group_name_H-M   'P 1'
_symmetry_Int_Tables_number      1
_space_group_name_Hall           'P 1'
loop_
_symmetry_equiv_pos_site_id
_symmetry_equiv_pos_as_xyz
1 x,y,z
_cell_length_a                   12.471(1)
_cell_length_b                   13.804(1)
_cell_length_c                   12.005(1)
_cell_angle_alpha                90
_cell_angle_beta                 90
_cell_angle_gamma                90
_cell_volume                     2066.66
loop_
_atom_site_label
_atom_site_type_symbol
_atom_site_fract_x
_atom_site_fract_y
_atom_site_fract_z
N2 N 0.1749(3) 0.4068(2) 0.5868(3)
C9 C 0.1129(4) 0.2466(3) 0.5511(4)
H7 H 0.1138 0.1815 0.5710
C10 C 0.1736(4) 0.3119(3) 0.6095(4)
H8 H 0.2159 0.2892 0.6677
C11 C 0.1197(4) 0.4358(3) 0.4988(4)
H9 H 0.1230 0.5007 0.4784
C12 C 0.0574(4) 0.3738(3) 0.4357(4)
H10 H 0.0199 0.3976 0.3746
C13 C 0.0506(4) 0.2770(3) 0.4629(4)
H12 H 0.0194 0.0863 0.4559
Zn3 Zn 0.2500 0.5000 0.69654(5)
Zn1 Zn 0.7500 1.0000 0.19654(5)
O2 O 0.6557(2) 0.9013(2) 0.2628(3)
N1 N 0.3251(3) 0.5932(2) 0.5868(3)
C1 C 0.3871(4) 0.7534(3) 0.5511(4)
H1 H 0.3862 0.8185 0.5710
C2 C 0.3264(4) 0.6881(3) 0.6095(4)
H2 H 0.2841 0.7108 0.6677
C3 C 0.3803(4) 0.5642(3) 0.4988(4)
H3 H 0.3770 0.4993 0.4784
C4 C 0.4426(4) 0.6262(3) 0.4357(4)
H4 H 0.4801 0.6024 0.3746
C5 C 0.4494(4) 0.7230(3) 0.4629(4)
C6 C 0.5206(4) 0.7873(3) 0.3979(3)
H5 H 0.5663 0.7578 0.3470
C7 C 0.5255(4) 0.8825(3) 0.4054(4)
H6 H 0.4806 0.9137 0.4559
C8 C 0.5998(4) 0.9426(3) 0.3366(4)
O3 O 0.8985(4) 0.9695(3) 0.3492(4)
N3 N 0.8251(3) 0.9068(2) 0.0868(3)
O1 O 0.1015(4) 0.4695(3) 0.8492(4)
O2_2 O 0.1557(2) 0.5987(2) 0.7628(3)
C6_2 C 0.0206(4) 0.7127(3) 0.8979(3)
H5_2 H 0.0663 0.7422 0.8470
C7_2 C 0.0255(4) 0.6175(3) 0.9054(4)
C8_2 C 0.0998(4) 0.5574(3) 0.8366(4)
O3_2 O 0.3985(4) 0.5305(3) 0.8492(4)
O4 O 0.3443(2) 0.4013(2) 0.7628(3)
C11_2 C 0.6197(4) 0.0642(3) 0.9988(4)
C12_2 C 0.5574(4) 0.1262(3) 0.9357(4)
H10_2 H 0.5199 0.1024 0.8746
C13_2 C 0.5506(4) 0.2230(3) 0.9629(4)
C14 C 0.4794(4) 0.2873(3) 0.8979(3)
H11 H 0.4337 0.2578 0.8470
C15 C 0.4745(4) 0.3825(3) 0.9054(4)
H12_2 H 0.5194 0.4137 0.9559
C16 C 0.4002(4) 0.4426(3) 0.8366(4)
C1_2 C 0.8871(4) 0.7466(3) 0.0511(4)
H1_2 H 0.8862 0.6815 0.0710
C2_2 C 0.8264(4) 0.8119(3) 0.1095(4)
H2_2 H 0.7841 0.7892 0.1677
Zn1_2 Zn 0.7500 0.0000 0.19654(5)
O1_2 O 0.6015(4) 0.0305(3) 0.3492(4)
O4_2 O 0.8443(2) 0.0987(2) 0.2628(3)
C14_2 C 0.9794(4) 0.2127(3) 0.3979(3)
H11_2 H 0.9337 0.2422 0.3470
C15_2 C 0.9745(4) 0.1175(3) 0.4054(4)
C16_2 C 0.9002(4) 0.0574(3) 0.3366(4)
N4 N 0.6749(3) 0.0932(2) 0.0868(3)
C9_2 C 0.6129(4) 0.2534(3) 0.0511(4)
H7_2 H 0.6138 0.3185 0.0710
C10_2 C 0.6736(4) 0.1881(3) 0.1095(4)
H8_2 H 0.7159 0.2108 0.1677
C3_2 C 0.1197(4) 0.0642(3) 0.0012(4)
C4_2 C 0.0574(4) 0.1262(3) 0.0643(4)
H4_2 H 0.0199 0.1024 0.1254
C5_2 C 0.0506(4) 0.2230(3) 0.0371(4)
H6_2 H 0.0194 0.4137 0.0441
N1_2 N 0.1749(3) 0.0932(2) 0.9132(3)
C1_3 C 0.1129(4) 0.2534(3) 0.9489(4)
H1_3 H 0.1138 0.3185 0.9290
C2_3 C 0.1736(4) 0.1881(3) 0.8905(4)
H2_3 H 0.2159 0.2108 0.8323
Zn2 Zn 0.2500 0.0000 0.80346(5)
Zn1_3 Zn 0.7500 0.5000 0.30346(5)
O1_3 O 0.8985(4) 0.5305(3) 0.1508(4)
O2_3 O 0.8443(2) 0.4013(2) 0.2372(3)
C6_3 C 0.9794(4) 0.2873(3) 0.1021(3)
H5_3 H 0.9337 0.2578 0.1530
C7_3 C 0.9745(4) 0.3825(3) 0.0946(4)
C8_3 C 0.9002(4) 0.4426(3) 0.1634(4)
O3_3 O 0.6015(4) 0.4695(3) 0.1508(4)
O4_3 O 0.6557(2) 0.5987(2) 0.2372(3)
C11_3 C 0.3803(4) 0.9358(3) 0.0012(4)
C12_3 C 0.4426(4) 0.8738(3) 0.0643(4)
H10_3 H 0.4801 0.8976 0.1254
C13_3 C 0.4494(4) 0.7770(3) 0.0371(4)
C14_3 C 0.5206(4) 0.7127(3) 0.1021(3)
H11_3 H 0.5663 0.7422 0.1530
C15_3 C 0.5255(4) 0.6175(3) 0.0946(4)
H12_3 H 0.4806 0.5863 0.0441
C16_3 C 0.5998(4) 0.5574(3) 0.1634(4)
N3_2 N 0.6749(3) 0.4068(2) 0.4132(3)
N4_2 N 0.8251(3) 0.5932(2) 0.4132(3)
O2_4 O 0.3443(2) 0.0987(2) 0.7372(3)
C1_4 C 0.6129(4) 0.2466(3) 0.4489(4)
H1_4 H 0.6138 0.1815 0.4290
C2_4 C 0.6736(4) 0.3119(3) 0.3905(4)
H2_4 H 0.7159 0.2892 0.3323
C3_3 C 0.6197(4) 0.4358(3) 0.5012(4)
H3_2 H 0.6230 0.5007 0.5216
C4_3 C 0.5574(4) 0.3738(3) 0.5643(4)
H4_3 H 0.5199 0.3976 0.6254
C5_3 C 0.5506(4) 0.2770(3) 0.5371(4)
C6_4 C 0.4794(4) 0.2127(3) 0.6021(3)
H5_4 H 0.4337 0.2422 0.6530
C7_4 C 0.4745(4) 0.1175(3) 0.5946(4)
H6_3 H 0.5194 0.0863 0.5441
C8_4 C 0.4002(4) 0.0574(3) 0.6634(4)
O3_4 O 0.1015(4) 0.0305(3) 0.6508(4)
C9_3 C 0.8871(4) 0.7534(3) 0.4489(4)
H7_3 H 0.8862 0.8185 0.4290
C10_3 C 0.8264(4) 0.6881(3) 0.3905(4)
H8_3 H 0.7841 0.7108 0.3323
C11_4 C 0.8803(4) 0.5642(3) 0.5012(4)
H9_2 H 0.8770 0.4993 0.5216
C12_4 C 0.9426(4) 0.6262(3) 0.5643(4)
H10_4 H 0.9801 0.6024 0.6254
C13_4 C 0.9494(4) 0.7230(3) 0.5371(4)
H12_4 H 0.9806 0.9137 0.5441
H3_3 H 0.1230 0.9993 0.0216
Zn2_2 Zn 0.2500 1.0000 0.80346(5)
N2_2 N 0.3251(3) 0.9068(2) 0.9132(3)
C9_4 C 0.3871(4) 0.7466(3) 0.9489(4)
H7_4 H 0.3862 0.6815 0.9290
C10_4 C 0.3264(4) 0.8119(3) 0.8905(4)
H8_4 H 0.2841 0.7892 0.8323
O1_4 O 0.3985(4) 0.9695(3) 0.6508(4)
O4_4 O 0.1557(2) 0.9013(2) 0.7372(3)
C14_4 C 0.0206(4) 0.7873(3) 0.6021(3)
H11_4 H 0.0663 0.7578 0.6530
C15_4 C 0.0255(4) 0.8825(3) 0.5946(4)
C16_4 C 0.0998(4) 0.9426(3) 0.6634(4)
H9_3 H 0.3770 0.0007 0.0216
H9_4 H 0.6230 0.9993 0.9784
H3_4 H 0.8770 0.0007 0.9784
C3_4 C 0.8803(4) 0.9358(3) 0.9988(4)
C4_4 C 0.9426(4) 0.8738(3) 0.9357(4)
H4_4 H 0.9801 0.8976 0.8746
C5_4 C 0.9494(4) 0.7770(3) 0.9629(4)
H6_4 H 0.9806 0.5863 0.9559
loop_
_geom_bond_atom_site_label_1
_geom_bond_atom_site_label_2
_geom_bond_site_symmetry_1
_geom_bond_site_symmetry_2
N2 C10 1_555 1_555
C9 H7 1_555 1_555
C10 C9 1_555 1_555
H8 C10 1_555 1_555
C11 N2 1_555 1_555
H9 C11 1_555 1_555
C12 C11 1_555 1_555
H10 C12 1_555 1_555
C13 C9 1_555 1_555
Zn3 N2 1_555 1_555
C12 C13 1_555 1_555
Zn1 O2 1_555 1_555
O2 C8 1_555 1_555
N1 C2 1_555 1_555
C1 H1 1_555 1_555
C2 C1 1_555 1_555
H2 C2 1_555 1_555
C3 N1 1_555 1_555
H3 C3 1_555 1_555
C4 C3 1_555 1_555
H4 C4 1_555 1_555
C5 C1 1_555 1_555
C6 C5 1_555 1_555
H5 C6 1_555 1_555
C7 C6 1_555 1_555
H6 C7 1_555 1_555
C8 C7 1_555 1_555
N3 Zn1 1_555 1_555
Zn3 N1 1_555 1_555
C4 C5 1_555 1_555
Zn3 O2_2 1_555 1_555
O1 C8_2 1_555 1_555
O2_2 C8_2 1_555 1_555
H5_2 C6_2 1_555 1_555
C7_2 C6_2 1_555 1_555
C8_2 C7_2 1_555 1_555
O3_2 C16 1_555 1_555
O4 Zn3 1_555 1_555
C12_2 C11_2 1_555 1_555
H10_2 C12_2 1_555 1_555
C14 C13_2 1_555 1_555
H11 C14 1_555 1_555
C15 C14 1_555 1_555
H12_2 C15 1_555 1_555
C16 O4 1_555 1_555
C12_2 C13_2 1_555 1_555
C15 C16 1_555 1_555
N3 C2_2 1_555 1_555
C1_2 H1_2 1_555 1_555
C2_2 C1_2 1_555 1_555
H2_2 C2_2 1_555 1_555
O4_2 Zn1_2 1_555 1_555
H11_2 C14_2 1_555 1_555
C15_2 C14_2 1_555 1_555
C16_2 O4_2 1_555 1_555
N4 Zn1_2 1_555 1_555
C15_2 C16_2 1_555 1_555
N4 C10_2 1_555 1_555
C9_2 H7_2 1_555 1_555
C10_2 C9_2 1_555 1_555
H8_2 C10_2 1_555 1_555
C4_2 C3_2 1_555 1_555
H4_2 C4_2 1_555 1_555
C4_2 C5_2 1_555 1_555
N1_2 C2_3 1_555 1_555
C1_3 H1_3 1_555 1_555
C2_3 C1_3 1_555 1_555
H2_3 C2_3 1_555 1_555
Zn2 N1_2 1_555 1_555
Zn1_3 O2_3 1_555 1_555
O1_3 C8_3 1_555 1_555
O2_3 C8_3 1_555 1_555
H5_3 C6_3 1_555 1_555
C7_3 C6_3 1_555 1_555
C8_3 C7_3 1_555 1_555
O3_3 C16_3 1_555 1_555
O4_3 Zn1_3 1_555 1_555
C12_3 C11_3 1_555 1_555
H10_3 C12_3 1_555 1_555
C14_3 C13_3 1_555 1_555
H11_3 C14_3 1_555 1_555
C15_3 C14_3 1_555 1_555
H12_3 C15_3 1_555 1_555
C16_3 O4_3 1_555 1_555
N3_2 Zn1_3 1_555 1_555
N4_2 Zn1_3 1_555 1_555
C12_3 C13_3 1_555 1_555
C15_3 C16_3 1_555 1_555
Zn2 O2_4 1_555 1_555
O2_4 C8_4 1_555 1_555
N3_2 C2_4 1_555 1_555
C1_4 H1_4 1_555 1_555
C2_4 C1_4 1_555 1_555
H2_4 C2_4 1_555 1_555
C3_3 N3_2 1_555 1_555
H3_2 C3_3 1_555 1_555
C4_3 C3_3 1_555 1_555
H4_3 C4_3 1_555 1_555
C5_3 C1_4 1_555 1_555
C6_4 C5_3 1_555 1_555
H5_4 C6_4 1_555 1_555
C7_4 C6_4 1_555 1_555
H6_3 C7_4 1_555 1_555
C8_4 C7_4 1_555 1_555
C4_3 C5_3 1_555 1_555
N4_2 C10_3 1_555 1_555
C9_3 H7_3 1_555 1_555
C10_3 C9_3 1_555 1_555
H8_3 C10_3 1_555 1_555
C11_4 N4_2 1_555 1_555
H9_2 C11_4 1_555 1_555
C12_4 C11_4 1_555 1_555
H10_4 C12_4 1_555 1_555
C13_4 C9_3 1_555 1_555
C12_4 C13_4 1_555 1_555
N2_2 C10_4 1_555 1_555
C9_4 H7_4 1_555 1_555
C10_4 C9_4 1_555 1_555
H8_4 C10_4 1_555 1_555
Zn2_2 N2_2 1_555 1_555
O4_4 Zn2_2 1_555 1_555
H11_4 C14_4 1_555 1_555
C15_4 C14_4 1_555 1_555
C16_4 O4_4 1_555 1_555
C15_4 C16_4 1_555 1_555
C4_4 C3_4 1_555 1_555
H4_4 C4_4 1_555 1_555
C4_4 C5_4 1_555 1_555

#END
