
###############################################################################
#
# This file contains modified crystal structure data generated from the
# MOF subset of the Cambridge Structural Database (CSD) v543 
# hosted by the Cambridge Crystallographic Data Centre (CCDC).
#
# This work is licensed under the Creative Commons
# Attribution-NonCommercial-ShareAlike 4.0 International License.
# To view a copy of this license, visit
# http://creativecommons.org/licenses/by-nc-sa/4.0/
# or send a letter to
# Creative Commons, PO Box 1866, Mountain View, CA 94042, USA.
#
# CIF created using the CSD Python API on 29 September 2022
# The structure has been converted into the P1 space group
# The structure has a 3D framework
# The original CSD entry QOZFUG is in the monoclinic crystal system
# The framework has been calculated to contain at least 10.0% void space
# The void calculation uses a probe of radius 1.32A, grid spacing 0.4
# The framework is charged, counterions have been retained in the structure
# H atom positions have been added when not included in the experimental data
# Generated hydrogen atom positions removed from atoms on special positions
#
###############################################################################

data_QOZFUG
_chemical_formula_moiety         '(C144 H204 Cu14 N48 O52 24-)n'
_symmetry_cell_setting           triclinic
_symmetry_space_group_name_H-M   'P 1'
_symmetry_Int_Tables_number      1
_space_group_name_Hall           'P 1'
loop_
_symmetry_equiv_pos_site_id
_symmetry_equiv_pos_as_xyz
1 x,y,z
_cell_length_a                   13.662(2)
_cell_length_b                   23.197(4)
_cell_length_c                   18.914(4)
_cell_angle_alpha                90
_cell_angle_beta                 110.074(3)
_cell_angle_gamma                90
_cell_volume                     5630.03
loop_
_atom_site_label
_atom_site_type_symbol
_atom_site_fract_x
_atom_site_fract_y
_atom_site_fract_z
Cu3 Cu 0.62718(6) 0.78813(5) 0.00636(5)
O2 O 0.6319(5) 0.8897(3) 0.0100(4)
N28 N 0.4892(4) 0.7723(3) 0.0180(3)
N29 N 0.6982(4) 0.7848(3) 0.1169(3)
H76 H 0.666121 0.902774 0.0627583
Cu2 Cu -0.0000 0.5000 0.5000
N7 N 0.3018(4) 0.2152(3) 0.8831(3)
N8 N 0.1916(5) 0.1949(3) 0.7716(4)
N9 N 0.2339(4) 0.2756(3) 0.5051(3)
N10 N 0.0835(4) 0.2322(3) 0.4876(3)
N11 N 0.0157(5) 0.4472(2) 0.5862(4)
H15 H 0.0242 0.1566 0.4433
C23 C 0.0069(5) 0.2598(3) 0.7100(4)
H22 H 0.0783 0.2790 0.7498
C24 C 0.0109(5) 0.2057(3) 0.6838(4)
C26 C 0.1050(6) 0.1665(4) 0.7123(5)
H24 H 0.1278 0.1560 0.6707
H25 H 0.0859 0.1315 0.7322
C27 C 0.3171(6) 0.2522(4) 0.8307(5)
H26 H 0.3673 0.2811 0.8419
C28 C 0.2502(6) 0.2411(5) 0.7621(5)
H27 H 0.2281 0.2597 0.6988
C29 C 0.2246(5) 0.1798(4) 0.8446(4)
H28 H 0.1981 0.1497 0.8651
C30 C 0.1700(5) 0.2325(4) 0.4708(4)
H29 H 0.1847 0.2060 0.4390
C31 C 0.0919(5) 0.2782(4) 0.5356(4)
H30 H 0.0438 0.2753 0.5554
C32 C 0.1825(5) 0.3036(4) 0.5469(4)
H31 H 0.2233 0.3420 0.5833
C33 C 0.1064(7) 0.4341(4) 0.6425(5)
H32 H 0.1933 0.4399 0.6543
C34 C 0.0842(6) 0.3993(4) 0.6940(5)
H33 H 0.1389 0.3751 0.7394
N13 N 0.4425(4) 0.8178(3) 0.7873(3)
N14 N 0.5562(4) 0.7920(3) 0.8958(3)
N15 N 0.1749(4) 0.6086(3) 0.6676(3)
N16 N 0.1069(5) 0.5509(3) 0.5704(4)
C37 C 0.1761(5) 0.8226(3) 0.6401(4)
H37 H 0.1778 0.8694 0.6165
C38 C 0.0914(5) 0.7855(3) 0.6086(4)
C39 C 0.0938(5) 0.7303(3) 0.6364(4)
H38 H 0.0271 0.7051 0.6174
C40 C 0.1781(5) 0.7112(3) 0.6956(4)
C41 C 0.2622(5) 0.7487(3) 0.7286(4)
H39 H 0.3214 0.7242 0.7678
C42 C 0.2620(5) 0.8032(3) 0.7007(4)
C43 C 0.3508(5) 0.8454(4) 0.7328(4)
H40 H 0.3278 0.8767 0.7572
H41 H 0.3700 0.8616 0.6921
C44 C 0.4744(5) 0.8244(3) 0.8610(4)
H42 H 0.4430 0.8490 0.8856
C45 C 0.5766(6) 0.7638(4) 0.8387(5)
H43 H 0.6313 0.7381 0.8456
C46 C 0.5075(6) 0.7782(4) 0.7718(5)
H44 H 0.5040 0.7607 0.7113
C47 C 0.1813(6) 0.6497(3) 0.7254(4)
H45 H 0.1236 0.6439 0.7434
H46 H 0.2456 0.6439 0.7673
C48 C 0.0893(6) 0.5815(3) 0.6239(4)
H47 H 0.0249 0.5839 0.6303
C49 C 0.2116(6) 0.5582(3) 0.5816(5)
H48 H 0.2476 0.5415 0.5531
C50 C 0.2528(6) 0.5941(4) 0.6416(5)
H49 H 0.3217 0.6064 0.6612
C51 C 0.0022(5) 0.8084(4) 0.5418(4)
H50 H 0.0287 0.8182 0.5019
N19 N 0.4892(4) 0.7277(3) 0.5180(3)
N20 N 0.3413(4) 0.7714(3) 0.5012(3)
N24 N 0.0219(4) 0.6074(3) 0.3315(3)
C55 C 0.4248(5) 0.7676(4) 0.4793(4)
H55 H 0.4355 0.7901 0.4419
C56 C 0.4433(6) 0.7042(4) 0.5658(4)
H56 H 0.4834 0.6651 0.6035
C57 C 0.3511(5) 0.7317(4) 0.5546(4)
H57 H 0.2864 0.7283 0.5762
C58 C 0.2538(5) 0.8105(4) 0.4688(5)
H58 H 0.2780 0.8443 0.4493
H59 H 0.2283 0.8232 0.5082
C59 C 0.1636(5) 0.7832(3) 0.4053(4)
C60 C 0.1675(5) 0.7278(3) 0.3806(4)
H60 H 0.2350 0.7052 0.4043
C61 C 0.0822(5) 0.7050(3) 0.3221(4)
C64 C 0.0755(5) 0.8173(3) 0.3738(4)
H62 H 0.0781 0.8670 0.3990
C71 C 0.0600(5) 0.5787(3) 0.3961(4)
H70 H 0.1383 0.5759 0.4206
C72 C 0.0817(6) 0.6434(3) 0.2980(4)
H71 H 0.0517 0.6410 0.2436
H72 H 0.1528 0.6293 0.3131
Cu5 Cu 0.37282(6) 0.21187(5) 0.99364(5)
Cu6 Cu 0.37282(6) 0.28813(5) 0.49364(5)
Cu8 Cu 0.62718(6) 0.71187(5) 0.50636(5)
N30 N 0.7661(4) 0.7756(3) 0.9949(3)
H75 H 0.559703 0.905034 0.990223
Cu2_2 Cu 1.0000 0.5000 0.5000
N1 N 0.5575(4) 0.1822(3) 0.2127(3)
N2 N 0.4438(4) 0.2080(3) 0.1042(3)
N3 N 0.8251(4) 0.3914(3) 0.3324(3)
N4 N 0.8931(5) 0.4491(3) 0.4296(4)
N5 N 0.5108(4) 0.2723(3) 0.4820(3)
N6 N 0.6587(4) 0.2286(3) 0.4988(3)
N12 N 0.9781(4) 0.3926(3) 0.6685(3)
C1 C 0.8239(5) 0.1774(3) 0.3599(4)
H1 H 0.8222 0.1306 0.3835
C2 C 0.9086(5) 0.2145(3) 0.3914(4)
C3 C 0.9062(5) 0.2697(3) 0.3636(4)
H2 H 0.9729 0.2949 0.3826
C4 C 0.8219(5) 0.2888(3) 0.3044(4)
C5 C 0.7378(5) 0.2513(3) 0.2714(4)
H3 H 0.6786 0.2758 0.2322
C6 C 0.7380(5) 0.1968(3) 0.2993(4)
C7 C 0.6492(5) 0.1546(4) 0.2672(4)
H4 H 0.6722 0.1233 0.2428
H5 H 0.6300 0.1384 0.3079
C8 C 0.5256(5) 0.1756(3) 0.1390(4)
H6 H 0.5570 0.1510 0.1144
C9 C 0.4234(6) 0.2362(4) 0.1613(5)
H7 H 0.3687 0.2619 0.1544
C10 C 0.4925(6) 0.2218(4) 0.2282(5)
H8 H 0.4960 0.2393 0.2887
C11 C 0.8187(6) 0.3503(3) 0.2746(4)
H9 H 0.8764 0.3561 0.2566
H10 H 0.7544 0.3561 0.2327
C12 C 0.9107(6) 0.4185(3) 0.3761(4)
H11 H 0.9751 0.4161 0.3697
C13 C 0.7884(6) 0.4418(3) 0.4184(5)
H12 H 0.7524 0.4585 0.4469
C14 C 0.7472(6) 0.4059(4) 0.3584(5)
H13 H 0.6783 0.3936 0.3388
C15 C 0.9978(5) 0.1916(4) 0.4582(4)
H14 H 0.9713 0.1818 0.4981
C16 C 0.5752(5) 0.2324(4) 0.5207(4)
H16 H 0.5645 0.2099 0.5581
C17 C 0.5567(6) 0.2958(4) 0.4342(4)
H17 H 0.5166 0.3349 0.3965
C18 C 0.6489(5) 0.2683(4) 0.4454(4)
H18 H 0.7136 0.2717 0.4238
C19 C 0.7462(5) 0.1895(4) 0.5312(5)
H19 H 0.7220 0.1557 0.5507
H20 H 0.7717 0.1768 0.4918
C20 C 0.8364(5) 0.2168(3) 0.5947(4)
C21 C 0.8325(5) 0.2722(3) 0.6194(4)
H21 H 0.7650 0.2948 0.5957
C22 C 0.9178(5) 0.2950(3) 0.6779(4)
C25 C 0.9245(5) 0.1827(3) 0.6262(4)
H23 H 0.9219 0.1330 0.6010
C35 C 0.9400(5) 0.4213(3) 0.6039(4)
H34 H 0.8617 0.4241 0.5794
C36 C 0.9183(6) 0.3566(3) 0.7020(4)
H35 H 0.9483 0.3590 0.7564
H36 H 0.8472 0.3707 0.6869
N17 N 0.7661(4) 0.7244(3) 0.4949(3)
N18 N 0.9165(4) 0.7678(3) 0.5124(3)
H51 H 0.9758 0.8434 0.5567
C52 C 0.8300(5) 0.7675(4) 0.5292(4)
H52 H 0.8153 0.7940 0.5610
C53 C 0.9081(5) 0.7218(4) 0.4644(4)
H53 H 0.9562 0.7247 0.4446
C54 C 0.8175(5) 0.6964(4) 0.4531(4)
H54 H 0.7767 0.6580 0.4167
N22 N 0.8084(5) 0.8051(3) 0.2284(4)
N23 N 0.9843(5) 0.5528(2) 0.4138(4)
C62 C 0.9931(5) 0.7402(3) 0.2900(4)
H61 H 0.9217 0.7210 0.2502
C63 C 0.9891(5) 0.7943(3) 0.3162(4)
C65 C 0.8950(6) 0.8335(4) 0.2877(5)
H63 H 0.8722 0.8440 0.3293
H64 H 0.9141 0.8685 0.2678
C66 C 0.6829(6) 0.7478(4) 0.1693(5)
H65 H 0.6327 0.7189 0.1581
C67 C 0.7498(6) 0.7589(5) 0.2379(5)
H66 H 0.7719 0.7403 0.3012
C68 C 0.7754(5) 0.8202(4) 0.1554(4)
H67 H 0.8019 0.8503 0.1349
C69 C 0.8936(7) 0.5659(4) 0.3575(5)
H68 H 0.8067 0.5601 0.3457
C70 C 0.9158(6) 0.6007(4) 0.3060(5)
H69 H 0.8611 0.6249 0.2606
N27 N 0.2339(4) 0.2244(3) 0.0051(3)
H73 H 0.328136 0.0959231 0.0214477
O1 O 0.3681(5) 0.1103(3) 0.9900(4)
N25 N 0.5108(4) 0.2277(3) 0.9820(3)
H74 H 0.333879 0.0972257 0.937242
Cu2_3 Cu 0.0000 0.0000 0.0000
C53_2 C 0.0919(5) 0.2218(4) 0.0356(4)
H53_2 H 0.0438 0.2247 0.0554
C54_2 C 0.1825(5) 0.1964(4) 0.0469(4)
H54_2 H 0.2233 0.1580 0.0833
N21 N 0.3018(4) 0.2848(3) 0.3831(3)
N22_2 N 0.1916(5) 0.3051(3) 0.2716(4)
N23_2 N 0.0157(5) 0.0528(2) 0.0862(4)
C62_2 C 0.0069(5) 0.2402(3) 0.2100(4)
H61_2 H 0.0783 0.2210 0.2498
C63_2 C 0.0109(5) 0.2943(3) 0.1838(4)
C65_2 C 0.1050(6) 0.3335(4) 0.2123(5)
H63_2 H 0.1278 0.3440 0.1707
H64_2 H 0.0859 0.3685 0.2322
C66_2 C 0.3171(6) 0.2478(4) 0.3307(5)
H65_2 H 0.3673 0.2189 0.3419
C67_2 C 0.2502(6) 0.2589(5) 0.2621(5)
H66_2 H 0.2281 0.2403 0.1988
C68_2 C 0.2246(5) 0.3202(4) 0.3446(4)
H67_2 H 0.1981 0.3503 0.3651
C69_2 C 0.1064(7) 0.0659(4) 0.1425(5)
H68_2 H 0.1933 0.0601 0.1543
C70_2 C 0.0842(6) 0.1007(4) 0.1940(5)
H69_2 H 0.1389 0.1249 0.2394
Cu2_4 Cu 0.0000 0.0000 1.0000
N18_2 N 0.0835(4) 0.2678(3) 0.9876(3)
H51_2 H 0.0242 0.3434 0.9433
C52_2 C 0.1700(5) 0.2675(4) 0.9708(4)
H52_2 H 0.1847 0.2940 0.9390
Cu2_5 Cu 0.0000 1.0000 0.0000
N1_2 N 0.4425(4) 0.6822(3) 0.2873(3)
N2_2 N 0.5562(4) 0.7080(3) 0.3958(3)
N3_2 N 0.1749(4) 0.8914(3) 0.1676(3)
N4_2 N 0.1069(5) 0.9491(3) 0.0704(4)
N6_2 N 0.3413(4) 0.7286(3) 0.0012(3)
C1_2 C 0.1761(5) 0.6774(3) 0.1401(4)
H1_2 H 0.1778 0.6306 0.1165
C2_2 C 0.0914(5) 0.7145(3) 0.1086(4)
C3_2 C 0.0938(5) 0.7697(3) 0.1364(4)
H2_2 H 0.0271 0.7949 0.1174
C4_2 C 0.1781(5) 0.7888(3) 0.1956(4)
C5_2 C 0.2622(5) 0.7513(3) 0.2286(4)
H3_2 H 0.3214 0.7758 0.2678
C6_2 C 0.2620(5) 0.6968(3) 0.2007(4)
C7_2 C 0.3508(5) 0.6546(4) 0.2328(4)
H4_2 H 0.3278 0.6233 0.2572
H5_2 H 0.3700 0.6384 0.1921
C8_2 C 0.4744(5) 0.6756(3) 0.3610(4)
H6_2 H 0.4430 0.6510 0.3856
C9_2 C 0.5766(6) 0.7362(4) 0.3387(5)
H7_2 H 0.6313 0.7619 0.3456
C10_2 C 0.5075(6) 0.7218(4) 0.2718(5)
H8_2 H 0.5040 0.7393 0.2113
C11_2 C 0.1813(6) 0.8503(3) 0.2254(4)
H9_2 H 0.1236 0.8561 0.2434
H10_2 H 0.2456 0.8561 0.2673
C12_2 C 0.0893(6) 0.9185(3) 0.1239(4)
H11_2 H 0.0249 0.9161 0.1303
C13_2 C 0.2116(6) 0.9418(3) 0.0816(5)
H12_2 H 0.2476 0.9585 0.0531
C14_2 C 0.2528(6) 0.9059(4) 0.1416(5)
H13_2 H 0.3217 0.8936 0.1612
C15_2 C 0.0022(5) 0.6916(4) 0.0418(4)
H14_2 H 0.0287 0.6818 0.0019
C17_2 C 0.4433(6) 0.7958(4) 0.0658(4)
H17_2 H 0.4834 0.8349 0.1035
C18_2 C 0.3511(5) 0.7683(4) 0.0546(4)
H18_2 H 0.2864 0.7717 0.0762
H20_2 H 0.2283 0.6768 0.0082
O1_2 O 0.6319(5) 0.6103(3) 0.5100(4)
N26 N 0.6982(4) 0.7152(3) 0.6169(3)
Cu2_6 Cu 1.0000 0.0000 1.0000
N13_2 N 0.5575(4) 0.3178(3) 0.7127(3)
N14_2 N 0.4438(4) 0.2920(3) 0.6042(3)
N15_2 N 0.8251(4) 0.1086(3) 0.8324(3)
N16_2 N 0.8931(5) 0.0509(3) 0.9296(4)
C37_2 C 0.8239(5) 0.3226(3) 0.8599(4)
H37_2 H 0.8222 0.3694 0.8835
C38_2 C 0.9086(5) 0.2855(3) 0.8914(4)
C39_2 C 0.9062(5) 0.2303(3) 0.8636(4)
H38_2 H 0.9729 0.2051 0.8826
C40_2 C 0.8219(5) 0.2112(3) 0.8044(4)
C41_2 C 0.7378(5) 0.2487(3) 0.7714(4)
H39_2 H 0.6786 0.2242 0.7322
C42_2 C 0.7380(5) 0.3032(3) 0.7993(4)
C43_2 C 0.6492(5) 0.3454(4) 0.7672(4)
H40_2 H 0.6722 0.3767 0.7428
H41_2 H 0.6300 0.3616 0.8079
C44_2 C 0.5256(5) 0.3244(3) 0.6390(4)
H42_2 H 0.5570 0.3490 0.6144
C45_2 C 0.4234(6) 0.2638(4) 0.6613(5)
H43_2 H 0.3687 0.2381 0.6544
C46_2 C 0.4925(6) 0.2782(4) 0.7282(5)
H44_2 H 0.4960 0.2607 0.7887
C47_2 C 0.8187(6) 0.1497(3) 0.7746(4)
H45_2 H 0.8764 0.1439 0.7566
H46_2 H 0.7544 0.1439 0.7327
C48_2 C 0.9107(6) 0.0815(3) 0.8761(4)
H47_2 H 0.9751 0.0839 0.8697
C49_2 C 0.7884(6) 0.0582(3) 0.9184(5)
H48_2 H 0.7524 0.0415 0.9469
C50_2 C 0.7472(6) 0.0941(4) 0.8584(5)
H49_2 H 0.6783 0.1064 0.8388
C51_2 C 0.9978(5) 0.3084(4) 0.9582(4)
H50_2 H 0.9713 0.3182 0.9981
N20_2 N 0.6587(4) 0.2714(3) 0.9988(3)
C56_2 C 0.5567(6) 0.2042(4) 0.9342(4)
H56_2 H 0.5166 0.1651 0.8965
C57_2 C 0.6489(5) 0.2317(4) 0.9454(4)
H57_2 H 0.7136 0.2283 0.9238
H59_2 H 0.7717 0.3232 0.9918
O2_2 O 0.3681(5) 0.3897(3) 0.4900(4)
Cu2_7 Cu 1.0000 1.0000 0.0000
N10_2 N 0.9165(4) 0.7322(3) 0.0124(3)
H15_2 H 0.9758 0.6566 0.0567
C30_2 C 0.8300(5) 0.7325(4) 0.0292(4)
H29_2 H 0.8153 0.7060 0.0610
Cu2_8 Cu 1.0000 1.0000 1.0000
N8_2 N 0.8084(5) 0.6949(3) 0.7284(4)
N11_2 N 0.9843(5) 0.9472(2) 0.9138(4)
C23_2 C 0.9931(5) 0.7598(3) 0.7900(4)
H22_2 H 0.9217 0.7790 0.7502
C24_2 C 0.9891(5) 0.7057(3) 0.8162(4)
C26_2 C 0.8950(6) 0.6665(4) 0.7877(5)
H24_2 H 0.8722 0.6560 0.8293
H25_2 H 0.9141 0.6315 0.7678
C27_2 C 0.6829(6) 0.7522(4) 0.6693(5)
H26_2 H 0.6327 0.7811 0.6581
C28_2 C 0.7498(6) 0.7411(5) 0.7379(5)
H27_2 H 0.7719 0.7597 0.8012
C29_2 C 0.7754(5) 0.6798(4) 0.6554(4)
H28_2 H 0.8019 0.6497 0.6349
C31_2 C 0.9081(5) 0.7782(4) 0.9644(4)
H30_2 H 0.9562 0.7753 0.9446
C32_2 C 0.8175(5) 0.8036(4) 0.9531(4)
H31_2 H 0.7767 0.8420 0.9167
C33_2 C 0.8936(7) 0.9341(4) 0.8575(5)
H32_2 H 0.8067 0.9399 0.8457
C34_2 C 0.9158(6) 0.8993(4) 0.8060(5)
H33_2 H 0.8611 0.8751 0.7606
H73_2 H 0.671864 0.904077 0.978552
H75_2 H 0.440297 0.0949664 0.00977731
Cu2_9 Cu 0.0000 1.0000 1.0000
N12_2 N 0.0219(4) 0.8926(3) 0.8315(3)
C16_2 C 0.4248(5) 0.7324(4) 0.9793(4)
H16_2 H 0.4355 0.7099 0.9419
C19_2 C 0.2538(5) 0.6895(4) 0.9688(5)
H19_2 H 0.2780 0.6557 0.9493
C20_2 C 0.1636(5) 0.7168(3) 0.9053(4)
C21_2 C 0.1675(5) 0.7722(3) 0.8806(4)
H21_2 H 0.2350 0.7948 0.9043
C22_2 C 0.0822(5) 0.7950(3) 0.8221(4)
C25_2 C 0.0755(5) 0.6827(3) 0.8738(4)
H23_2 H 0.0781 0.6330 0.8990
C35_2 C 0.0600(5) 0.9213(3) 0.8961(4)
H34_2 H 0.1383 0.9241 0.9206
C36_2 C 0.0817(6) 0.8566(3) 0.7980(4)
H35_2 H 0.0517 0.8590 0.7436
H36_2 H 0.1528 0.8707 0.8131
Cu2_10 Cu 1.0000 0.0000 0.0000
N24_2 N 0.9781(4) 0.1074(3) 0.1685(3)
C55_2 C 0.5752(5) 0.2676(4) 0.0207(4)
H55_2 H 0.5645 0.2901 0.0581
C58_2 C 0.7462(5) 0.3105(4) 0.0312(5)
H58_2 H 0.7220 0.3443 0.0507
C59_2 C 0.8364(5) 0.2832(3) 0.0947(4)
C60_2 C 0.8325(5) 0.2278(3) 0.1194(4)
H60_2 H 0.7650 0.2052 0.0957
C61_2 C 0.9178(5) 0.2050(3) 0.1779(4)
C64_2 C 0.9245(5) 0.3173(3) 0.1262(4)
H62_2 H 0.9219 0.3670 0.1010
C71_2 C 0.9400(5) 0.0787(3) 0.1039(4)
H70_2 H 0.8617 0.0759 0.0794
C72_2 C 0.9183(6) 0.1434(3) 0.2020(4)
H71_2 H 0.9483 0.1410 0.2564
H72_2 H 0.8472 0.1293 0.1869
O3 O 0.1473(4) 0.0510(3) 0.9617(5)
H87 H 0.219983 0.051 0.9617
O3_2 O 0.8527(4) 0.5510(3) 0.5383(5)
H87_2 H 0.780017 0.551 0.5383
O3_3 O 0.8527(4) 0.9490(3) 0.0383(5)
H87_3 H 0.780017 0.949 0.0383
O3_4 O 0.1473(4) 0.4490(3) 0.4617(5)
H87_4 H 0.219983 0.449 0.4617
O4 O 0.3770(9) 0.1533(7) 0.5065(11)
H85 H 0.449683 0.1533 0.5065
O4_2 O 0.6230(9) 0.6533(7) 0.9935(11)
H85_2 H 0.550317 0.6533 0.9935
O4_3 O 0.6230(9) 0.8467(7) 0.4935(11)
H85_3 H 0.550317 0.8467 0.4935
O4_4 O 0.3770(9) 0.3467(7) 0.0065(11)
H85_4 H 0.449683 0.3467 0.0065
H77 H 0.0186834 0.0395 0.7125
O5 O 0.946(2) 0.0395(7) 0.7125(12)
O5_2 O 0.054(2) 0.5395(7) 0.7875(12)
H77_2 H 0.981317 0.5395 0.7875
O5_3 O 0.054(2) 0.9605(7) 0.2875(12)
H77_3 H 0.981317 0.9605 0.2875
H77_4 H 0.0186834 0.4605 0.2125
O5_4 O 0.946(2) 0.4605(7) 0.2125(12)
O6 O 0.2636(18) 0.1289(9) 0.6145(15)
H78 H 0.336283 0.1289 0.6145
O6_2 O 0.7364(18) 0.6289(9) 0.8855(15)
H78_2 H 0.663717 0.6289 0.8855
O6_3 O 0.7364(18) 0.8711(9) 0.3855(15)
H78_3 H 0.663717 0.8711 0.3855
O6_4 O 0.2636(18) 0.3711(9) 0.1145(15)
H78_4 H 0.336283 0.3711 0.1145
O7 O 0.5665(11) 0.1272(8) 0.6498(10)
H79 H 0.639183 0.1272 0.6498
O7_2 O 0.4335(11) 0.6272(8) 0.8502(10)
H79_2 H 0.360817 0.6272 0.8502
O7_3 O 0.4335(11) 0.8728(8) 0.3502(10)
H79_3 H 0.360817 0.8728 0.3502
O7_4 O 0.5665(11) 0.3728(8) 0.1498(10)
H79_4 H 0.639183 0.3728 0.1498
O8 O 0.4918(19) 0.1267(8) 0.3824(13)
H83 H 0.564483 0.1267 0.3824
O8_2 O 0.5082(19) 0.6267(8) 0.1176(13)
H83_2 H 0.435517 0.6267 0.1176
O8_3 O 0.5082(19) 0.8733(8) 0.6176(13)
H83_3 H 0.435517 0.8733 0.6176
O8_4 O 0.4918(19) 0.3733(8) 0.8824(13)
H83_4 H 0.564483 0.3733 0.8824
O9 O 0.633(2) 0.9350(9) 0.8734(16)
H86 H 0.705683 0.935 0.8734
O9_2 O 0.367(2) 0.4350(9) 0.6266(16)
H86_2 H 0.294317 0.435 0.6266
O9_3 O 0.367(2) 0.0650(9) 0.1266(16)
H86_3 H 0.294317 0.065 0.1266
O9_4 O 0.633(2) 0.5650(9) 0.3734(16)
H86_4 H 0.705683 0.565 0.3734
O10 O 0.466(2) 0.3808(10) 0.2647(11)
H80 H 0.538683 0.3808 0.2647
O10_2 O 0.534(2) 0.8808(10) 0.2353(11)
H80_2 H 0.461317 0.8808 0.2353
O10_3 O 0.534(2) 0.6192(10) 0.7353(11)
H80_3 H 0.461317 0.6192 0.7353
O10_4 O 0.466(2) 0.1192(10) 0.7647(11)
H80_4 H 0.538683 0.1192 0.7647
O11 O 0.144(3) 0.1038(9) 0.3800(9)
H81 H 0.216683 0.1038 0.38
O11_2 O 0.856(3) 0.6038(9) 0.1200(9)
H81_2 H 0.783317 0.6038 0.12
O11_3 O 0.856(3) 0.8962(9) 0.6200(9)
H81_3 H 0.783317 0.8962 0.62
O11_4 O 0.144(3) 0.3962(9) 0.8800(9)
H81_4 H 0.216683 0.3962 0.88
O12 O 0.894(5) 0.0632(11) 0.517(2)
H88 H 0.966683 0.0632 0.517
O12_2 O 0.106(5) 0.5632(11) 0.983(2)
H88_2 H 0.0333166 0.5632 0.983
O12_3 O 0.106(5) 0.9368(11) 0.483(2)
H88_3 H 0.0333166 0.9368 0.483
O12_4 O 0.894(5) 0.4368(11) 0.017(2)
H88_4 H 0.966683 0.4368 0.017
O13 O 0.724(3) 0.0075(19) 0.6789(17)
H84 H 0.796683 0.0075 0.6789
O13_2 O 0.276(3) 0.5075(19) 0.8211(17)
H84_2 H 0.203317 0.5075 0.8211
O13_3 O 0.276(3) 0.9925(19) 0.3211(17)
H84_3 H 0.203317 0.9925 0.3211
O13_4 O 0.724(3) 0.4925(19) 0.1789(17)
H84_4 H 0.796683 0.4925 0.1789
O14 O 0.6133(19) 0.9304(17) 0.7442(16)
H82 H 0.685983 0.9304 0.7442
O14_2 O 0.3867(19) 0.4304(17) 0.7558(16)
H82_2 H 0.314017 0.4304 0.7558
O14_3 O 0.3867(19) 0.0696(17) 0.2558(16)
H82_3 H 0.314017 0.0696 0.2558
O14_4 O 0.6133(19) 0.5696(17) 0.2442(16)
H82_4 H 0.685983 0.5696 0.2442
loop_
_geom_bond_atom_site_label_1
_geom_bond_atom_site_label_2
_geom_bond_site_symmetry_1
_geom_bond_site_symmetry_2
O2 Cu3 1_555 1_555
N28 Cu3 1_555 1_555
N29 Cu3 1_555 1_555
O2 H76 1_555 1_555
N7 C27 1_555 1_555
N8 C26 1_555 1_555
N9 C30 1_555 1_555
N11 Cu2 1_555 1_555
H22 C23 1_555 1_555
C24 C23 1_555 1_555
C26 C24 1_555 1_555
H24 C26 1_555 1_555
H25 C26 1_555 1_555
C27 H26 1_555 1_555
C28 N8 1_555 1_555
H27 C28 1_555 1_555
C29 N7 1_555 1_555
H28 C29 1_555 1_555
C30 N10 1_555 1_555
H29 C30 1_555 1_555
C31 N10 1_555 1_555
H30 C31 1_555 1_555
C32 N9 1_555 1_555
H31 C32 1_555 1_555
C33 N11 1_555 1_555
H32 C33 1_555 1_555
C34 C33 1_555 1_555
H33 C34 1_555 1_555
N13 C43 1_555 1_555
N14 C44 1_555 1_555
N15 C47 1_555 1_555
N16 Cu2 1_555 1_555
C37 H37 1_555 1_555
C38 C37 1_555 1_555
C39 C38 1_555 1_555
H38 C39 1_555 1_555
C40 C39 1_555 1_555
C41 C40 1_555 1_555
H39 C41 1_555 1_555
C42 C37 1_555 1_555
C43 C42 1_555 1_555
H40 C43 1_555 1_555
H41 C43 1_555 1_555
C44 N13 1_555 1_555
H42 C44 1_555 1_555
C45 N14 1_555 1_555
H43 C45 1_555 1_555
C46 N13 1_555 1_555
H44 C46 1_555 1_555
C47 C40 1_555 1_555
H45 C47 1_555 1_555
H46 C47 1_555 1_555
C48 N15 1_555 1_555
H47 C48 1_555 1_555
C49 N16 1_555 1_555
H48 C49 1_555 1_555
C50 N15 1_555 1_555
H49 C50 1_555 1_555
C51 C38 1_555 1_555
H50 C51 1_555 1_555
N19 C55 1_555 1_555
N20 C55 1_555 1_555
C55 H55 1_555 1_555
C56 N19 1_555 1_555
H56 C56 1_555 1_555
C57 N20 1_555 1_555
H57 C57 1_555 1_555
C58 N20 1_555 1_555
H58 C58 1_555 1_555
H59 C58 1_555 1_555
C59 C58 1_555 1_555
C60 C59 1_555 1_555
H60 C60 1_555 1_555
C61 C60 1_555 1_555
C64 C59 1_555 1_555
H62 C64 1_555 1_555
H70 C71 1_555 1_555
C72 N24 1_555 1_555
H71 C72 1_555 1_555
H72 C72 1_555 1_555
Cu5 N7 1_555 1_555
Cu6 N9 1_555 1_555
Cu8 N19 1_555 1_555
N8 C29 1_555 1_555
C27 C28 1_555 1_555
C31 C32 1_555 1_555
N16 C48 1_555 1_555
C41 C42 1_555 1_555
C45 C46 1_555 1_555
C49 C50 1_555 1_555
N24 C71 1_555 1_555
C56 C57 1_555 1_555
C61 C72 1_555 1_555
Cu2_2 N4 1_555 1_555
N1 C7 1_555 1_555
N2 C8 1_555 1_555
N3 C11 1_555 1_555
N4 C12 1_555 1_555
N5 C16 1_555 1_555
N6 C16 1_555 1_555
C1 H1 1_555 1_555
C2 C1 1_555 1_555
C3 C2 1_555 1_555
H2 C3 1_555 1_555
C4 C3 1_555 1_555
C5 C4 1_555 1_555
H3 C5 1_555 1_555
C6 C1 1_555 1_555
C7 C6 1_555 1_555
H4 C7 1_555 1_555
H5 C7 1_555 1_555
C8 N1 1_555 1_555
H6 C8 1_555 1_555
C9 N2 1_555 1_555
H7 C9 1_555 1_555
C10 N1 1_555 1_555
H8 C10 1_555 1_555
C11 C4 1_555 1_555
H9 C11 1_555 1_555
H10 C11 1_555 1_555
C12 N3 1_555 1_555
H11 C12 1_555 1_555
C13 N4 1_555 1_555
H12 C13 1_555 1_555
C14 N3 1_555 1_555
H13 C14 1_555 1_555
C15 C2 1_555 1_555
H14 C15 1_555 1_555
C16 H16 1_555 1_555
C17 N5 1_555 1_555
H17 C17 1_555 1_555
C18 N6 1_555 1_555
H18 C18 1_555 1_555
C19 N6 1_555 1_555
H19 C19 1_555 1_555
H20 C19 1_555 1_555
C20 C19 1_555 1_555
C21 C20 1_555 1_555
H21 C21 1_555 1_555
C22 C21 1_555 1_555
C25 C20 1_555 1_555
H23 C25 1_555 1_555
H34 C35 1_555 1_555
C36 N12 1_555 1_555
H35 C36 1_555 1_555
H36 C36 1_555 1_555
N17 C52 1_555 1_555
C52 N18 1_555 1_555
H52 C52 1_555 1_555
C53 N18 1_555 1_555
H53 C53 1_555 1_555
C54 N17 1_555 1_555
H54 C54 1_555 1_555
N29 C66 1_555 1_555
N22 C65 1_555 1_555
N23 Cu2_2 1_555 1_555
H61 C62 1_555 1_555
C63 C62 1_555 1_555
C65 C63 1_555 1_555
H63 C65 1_555 1_555
H64 C65 1_555 1_555
C66 H65 1_555 1_555
C67 N22 1_555 1_555
H66 C67 1_555 1_555
C68 N29 1_555 1_555
H67 C68 1_555 1_555
C69 N23 1_555 1_555
H68 C69 1_555 1_555
C70 C69 1_555 1_555
H69 C70 1_555 1_555
Cu6 N5 1_555 1_555
Cu8 N17 1_555 1_555
N12 C35 1_555 1_555
C5 C6 1_555 1_555
C9 C10 1_555 1_555
C13 C14 1_555 1_555
C17 C18 1_555 1_555
C22 C36 1_555 1_555
C53 C54 1_555 1_555
N22 C68 1_555 1_555
C66 C67 1_555 1_555
O1 Cu5 1_555 1_555
N25 Cu5 1_555 1_555
O1 H74 1_555 1_555
H53_2 C53_2 1_555 1_555
C54_2 N27 1_555 1_555
H54_2 C54_2 1_555 1_555
N21 C66_2 1_555 1_555
N22_2 C65_2 1_555 1_555
N23_2 Cu2_3 1_555 1_555
H61_2 C62_2 1_555 1_555
C63_2 C62_2 1_555 1_555
C65_2 C63_2 1_555 1_555
H63_2 C65_2 1_555 1_555
H64_2 C65_2 1_555 1_555
C66_2 H65_2 1_555 1_555
C67_2 N22_2 1_555 1_555
H66_2 C67_2 1_555 1_555
C68_2 N21 1_555 1_555
H67_2 C68_2 1_555 1_555
C69_2 N23_2 1_555 1_555
H68_2 C69_2 1_555 1_555
C70_2 C69_2 1_555 1_555
H69_2 C70_2 1_555 1_555
Cu6 N21 1_555 1_555
C53_2 C54_2 1_555 1_555
N22_2 C68_2 1_555 1_555
C66_2 C67_2 1_555 1_555
C52_2 N18_2 1_555 1_555
H52_2 C52_2 1_555 1_555
Cu8 N2_2 1_555 1_555
Cu2_5 N4_2 1_555 1_555
N1_2 C7_2 1_555 1_555
N2_2 C8_2 1_555 1_555
N3_2 C11_2 1_555 1_555
N4_2 C12_2 1_555 1_555
C1_2 H1_2 1_555 1_555
C2_2 C1_2 1_555 1_555
C3_2 C2_2 1_555 1_555
H2_2 C3_2 1_555 1_555
C4_2 C3_2 1_555 1_555
C5_2 C4_2 1_555 1_555
H3_2 C5_2 1_555 1_555
C6_2 C1_2 1_555 1_555
C7_2 C6_2 1_555 1_555
H4_2 C7_2 1_555 1_555
H5_2 C7_2 1_555 1_555
C8_2 N1_2 1_555 1_555
H6_2 C8_2 1_555 1_555
C9_2 N2_2 1_555 1_555
H7_2 C9_2 1_555 1_555
C10_2 N1_2 1_555 1_555
H8_2 C10_2 1_555 1_555
C11_2 C4_2 1_555 1_555
H9_2 C11_2 1_555 1_555
H10_2 C11_2 1_555 1_555
C12_2 N3_2 1_555 1_555
H11_2 C12_2 1_555 1_555
C13_2 N4_2 1_555 1_555
H12_2 C13_2 1_555 1_555
C14_2 N3_2 1_555 1_555
H13_2 C14_2 1_555 1_555
C15_2 C2_2 1_555 1_555
H14_2 C15_2 1_555 1_555
C17_2 N28 1_555 1_555
H17_2 C17_2 1_555 1_555
C18_2 N6_2 1_555 1_555
H18_2 C18_2 1_555 1_555
O1_2 Cu8 1_555 1_555
N26 Cu8 1_555 1_555
C5_2 C6_2 1_555 1_555
C9_2 C10_2 1_555 1_555
C13_2 C14_2 1_555 1_555
C17_2 C18_2 1_555 1_555
N13_2 C43_2 1_555 1_555
N14_2 C44_2 1_555 1_555
N15_2 C47_2 1_555 1_555
N16_2 Cu2_6 1_555 1_555
C37_2 H37_2 1_555 1_555
C38_2 C37_2 1_555 1_555
C39_2 C38_2 1_555 1_555
H38_2 C39_2 1_555 1_555
C40_2 C39_2 1_555 1_555
C41_2 C40_2 1_555 1_555
H39_2 C41_2 1_555 1_555
C42_2 C37_2 1_555 1_555
C43_2 C42_2 1_555 1_555
H40_2 C43_2 1_555 1_555
H41_2 C43_2 1_555 1_555
C44_2 N13_2 1_555 1_555
H42_2 C44_2 1_555 1_555
C45_2 N14_2 1_555 1_555
H43_2 C45_2 1_555 1_555
C46_2 N13_2 1_555 1_555
H44_2 C46_2 1_555 1_555
C47_2 C40_2 1_555 1_555
H45_2 C47_2 1_555 1_555
H46_2 C47_2 1_555 1_555
C48_2 N15_2 1_555 1_555
H47_2 C48_2 1_555 1_555
C49_2 N16_2 1_555 1_555
H48_2 C49_2 1_555 1_555
C50_2 N15_2 1_555 1_555
H49_2 C50_2 1_555 1_555
C51_2 C38_2 1_555 1_555
H50_2 C51_2 1_555 1_555
C56_2 N25 1_555 1_555
H56_2 C56_2 1_555 1_555
C57_2 N20_2 1_555 1_555
H57_2 C57_2 1_555 1_555
Cu6 N14_2 1_555 1_555
O2_2 Cu6 1_555 1_555
N16_2 C48_2 1_555 1_555
C41_2 C42_2 1_555 1_555
C45_2 C46_2 1_555 1_555
C49_2 C50_2 1_555 1_555
C56_2 C57_2 1_555 1_555
C30_2 N10_2 1_555 1_555
H29_2 C30_2 1_555 1_555
N26 C27_2 1_555 1_555
N8_2 C26_2 1_555 1_555
N11_2 Cu2_8 1_555 1_555
H22_2 C23_2 1_555 1_555
C24_2 C23_2 1_555 1_555
C26_2 C24_2 1_555 1_555
H24_2 C26_2 1_555 1_555
H25_2 C26_2 1_555 1_555
C27_2 H26_2 1_555 1_555
C28_2 N8_2 1_555 1_555
H27_2 C28_2 1_555 1_555
C29_2 N26 1_555 1_555
H28_2 C29_2 1_555 1_555
H30_2 C31_2 1_555 1_555
C32_2 N30 1_555 1_555
H31_2 C32_2 1_555 1_555
C33_2 N11_2 1_555 1_555
H32_2 C33_2 1_555 1_555
C34_2 C33_2 1_555 1_555
H33_2 C34_2 1_555 1_555
N8_2 C29_2 1_555 1_555
C27_2 C28_2 1_555 1_555
C31_2 C32_2 1_555 1_555
C16_2 H16_2 1_555 1_555
H19_2 C19_2 1_555 1_555
C20_2 C19_2 1_555 1_555
C21_2 C20_2 1_555 1_555
H21_2 C21_2 1_555 1_555
C22_2 C21_2 1_555 1_555
C25_2 C20_2 1_555 1_555
H23_2 C25_2 1_555 1_555
H34_2 C35_2 1_555 1_555
C36_2 N12_2 1_555 1_555
H35_2 C36_2 1_555 1_555
H36_2 C36_2 1_555 1_555
N12_2 C35_2 1_555 1_555
C22_2 C36_2 1_555 1_555
C55_2 H55_2 1_555 1_555
H58_2 C58_2 1_555 1_555
C59_2 C58_2 1_555 1_555
C60_2 C59_2 1_555 1_555
H60_2 C60_2 1_555 1_555
C61_2 C60_2 1_555 1_555
C64_2 C59_2 1_555 1_555
H62_2 C64_2 1_555 1_555
H70_2 C71_2 1_555 1_555
C72_2 N24_2 1_555 1_555
H71_2 C72_2 1_555 1_555
H72_2 C72_2 1_555 1_555
N24_2 C71_2 1_555 1_555
C61_2 C72_2 1_555 1_555
O3 H87 1_555 1_555
O3_2 H87_2 1_555 1_555
O3_3 H87_3 1_555 1_555
O3_4 H87_4 1_555 1_555
O4 H85 1_555 1_555
O4_2 H85_2 1_555 1_555
O4_3 H85_3 1_555 1_555
O4_4 H85_4 1_555 1_555
O6 H78 1_555 1_555
O6_2 H78_2 1_555 1_555
O6_3 H78_3 1_555 1_555
O6_4 H78_4 1_555 1_555
O7 H79 1_555 1_555
O7_2 H79_2 1_555 1_555
O7_3 H79_3 1_555 1_555
O7_4 H79_4 1_555 1_555
O8 H83 1_555 1_555
O8_2 H83_2 1_555 1_555
O8_3 H83_3 1_555 1_555
O8_4 H83_4 1_555 1_555
O9 H86 1_555 1_555
O9_2 H86_2 1_555 1_555
O9_3 H86_3 1_555 1_555
O9_4 H86_4 1_555 1_555
O10 H80 1_555 1_555
O10_2 H80_2 1_555 1_555
O10_3 H80_3 1_555 1_555
O10_4 H80_4 1_555 1_555
O11 H81 1_555 1_555
O11_2 H81_2 1_555 1_555
O11_3 H81_3 1_555 1_555
O11_4 H81_4 1_555 1_555
O12 H88 1_555 1_555
O12_2 H88_2 1_555 1_555
O12_3 H88_3 1_555 1_555
O12_4 H88_4 1_555 1_555
O13 H84 1_555 1_555
O13_2 H84_2 1_555 1_555
O13_3 H84_3 1_555 1_555
O13_4 H84_4 1_555 1_555
O14 H82 1_555 1_555
O14_2 H82_2 1_555 1_555
O14_3 H82_3 1_555 1_555
O14_4 H82_4 1_555 1_555

#END
