
###############################################################################
#
# This file contains modified crystal structure data generated from the
# MOF subset of the Cambridge Structural Database (CSD) v543 
# hosted by the Cambridge Crystallographic Data Centre (CCDC).
#
# This work is licensed under the Creative Commons
# Attribution-NonCommercial-ShareAlike 4.0 International License.
# To view a copy of this license, visit
# http://creativecommons.org/licenses/by-nc-sa/4.0/
# or send a letter to
# Creative Commons, PO Box 1866, Mountain View, CA 94042, USA.
#
# CIF created using the CSD Python API on 29 September 2022
# The structure has been converted into the P1 space group
# The structure has a 3D framework
# The original CSD entry QOZGAP is in the monoclinic crystal system
# The framework has been calculated to contain at least 10.0% void space
# The void calculation uses a probe of radius 1.32A, grid spacing 0.4
#
###############################################################################

data_QOZGAP
_chemical_formula_moiety         '(C28 H16 Cu4 N16 O10)n'
_symmetry_cell_setting           triclinic
_symmetry_space_group_name_H-M   'P 1'
_symmetry_Int_Tables_number      1
_space_group_name_Hall           'P 1'
loop_
_symmetry_equiv_pos_site_id
_symmetry_equiv_pos_as_xyz
1 x,y,z
_cell_length_a                   9.5454(9)
_cell_length_b                   14.6719(10)
_cell_length_c                   9.4790(13)
_cell_angle_alpha                90
_cell_angle_beta                 110.419(13)
_cell_angle_gamma                90
_cell_volume                     1244.11
loop_
_atom_site_label
_atom_site_type_symbol
_atom_site_fract_x
_atom_site_fract_y
_atom_site_fract_z
Cu4 Cu 0.0000 0.0000 0.0000
Cu4_2 Cu 0.0000 0.0000 1.0000
Cu4_3 Cu 0.0000 1.0000 0.0000
Cu1 Cu 0.0000 0.5000 0.5000
N2 N 0.0305(6) 0.6554(4) 0.7100(7)
Cu4_4 Cu 0.0000 1.0000 1.0000
O7 O 0.1183(4) 0.4364(3) 0.7606(5)
O9 O 0.2157(5) 0.5217(3) 0.6269(5)
N9 N 0.0615(5) 0.3920(3) 0.4101(6)
Cu4_5 Cu 1.0000 0.0000 0.0000
O3 O 0.7843(5) 0.0217(3) 0.8731(5)
C6 C 0.5341(6) 0.0614(4) 0.6165(7)
H4 H 0.5574 0.1041 0.6968
O4 O 0.2347(5) 0.1546(3) 0.5855(6)
O5 O 0.1183(4) 0.0636(3) 0.2606(5)
N7 N 0.1891(5) 0.2814(3) 0.3718(6)
N8 N 0.3015(5) 0.2170(3) 0.3978(6)
H5 H 0.3684 0.2193 0.3534
C8 C 0.1919(7) 0.3547(4) 0.4570(7)
H6 H 0.2760 0.3757 0.5385
C9 C 0.0483(7) 0.2760(5) 0.2697(8)
H7 H 0.0125 0.2299 0.1954
C10 C 0.3013(7) 0.1497(4) 0.4974(7)
C11 C 0.4039(6) 0.0717(4) 0.4967(7)
C12 C 0.3667(6) 0.0093(4) 0.3753(7)
C14 C 0.2200(8) 0.0181(4) 0.2470(7)
Cu4_6 Cu 1.0000 0.0000 1.0000
Cu4_7 Cu 1.0000 1.0000 0.0000
Cu1_2 Cu 1.0000 0.5000 0.5000
O1 O 0.7653(5) 0.8454(3) 0.4145(6)
O2 O 0.8817(4) 0.9364(3) 0.7394(5)
N1 N 0.9385(5) 0.6080(3) 0.5899(6)
N3 N 0.8109(5) 0.7186(3) 0.6282(6)
N4 N 0.6985(5) 0.7830(3) 0.6022(6)
H1 H 0.6316 0.7807 0.6466
C1 C 0.8081(7) 0.6453(4) 0.5430(7)
H2 H 0.7240 0.6243 0.4615
C2 C 0.9517(7) 0.7240(5) 0.7303(8)
H3 H 0.9875 0.7701 0.8046
C3 C 0.6987(7) 0.8503(4) 0.5026(7)
C4 C 0.5961(6) 0.9283(4) 0.5033(7)
C5 C 0.6333(6) 0.9907(4) 0.6247(7)
C7 C 0.7800(8) 0.9819(4) 0.7530(7)
O6 O 0.2157(5) 0.9783(3) 0.1269(5)
C13 C 0.4659(6) 0.9386(4) 0.3835(7)
H8 H 0.4426 0.8959 0.3032
Cu4_8 Cu 1.0000 1.0000 1.0000
O8 O 0.8817(4) 0.5636(3) 0.2394(5)
O10 O 0.7843(5) 0.4783(3) 0.3731(5)
N6 N 0.9695(6) 0.3446(4) 0.2900(7)
N6_2 N 0.0305(6) 0.8446(4) 0.2100(7)
O1_2 O 0.2347(5) 0.3454(3) 0.0855(6)
H2_2 H 0.2760 0.1243 0.0385
N5 N 0.9385(5) 0.8920(3) 0.0899(6)
N7_2 N 0.8109(5) 0.7814(3) 0.1282(6)
N8_2 N 0.6985(5) 0.7170(3) 0.1022(6)
H5_2 H 0.6316 0.7193 0.1466
C8_2 C 0.8081(7) 0.8547(4) 0.0430(7)
C9_2 C 0.9517(7) 0.7760(5) 0.2303(8)
H7_2 H 0.9875 0.7299 0.3046
C10_2 C 0.6987(7) 0.6497(4) 0.0026(7)
C11_2 C 0.5961(6) 0.5717(4) 0.0033(7)
C12_2 C 0.6333(6) 0.5093(4) 0.1247(7)
C13_2 C 0.5341(6) 0.4386(4) 0.1165(7)
H8_2 H 0.5574 0.3959 0.1968
C14_2 C 0.7800(8) 0.5181(4) 0.2530(7)
N1_2 N 0.0615(5) 0.1080(3) 0.9101(6)
N3_2 N 0.1891(5) 0.2186(3) 0.8718(6)
N4_2 N 0.3015(5) 0.2830(3) 0.8978(6)
H1_2 H 0.3684 0.2807 0.8534
C1_2 C 0.1919(7) 0.1453(4) 0.9570(7)
C2_2 C 0.0483(7) 0.2240(5) 0.7697(8)
H3_2 H 0.0125 0.2701 0.6954
C3_2 C 0.3013(7) 0.3503(4) 0.9974(7)
C4_2 C 0.4039(6) 0.4283(4) 0.9967(7)
C5_2 C 0.3667(6) 0.4907(4) 0.8753(7)
C6_2 C 0.4659(6) 0.5614(4) 0.8835(7)
H4_2 H 0.4426 0.6041 0.8032
C7_2 C 0.2200(8) 0.4819(4) 0.7470(7)
O4_2 O 0.7653(5) 0.6546(3) 0.9145(6)
H6_2 H 0.7240 0.8757 0.9615
N2_2 N 0.9695(6) 0.1554(4) 0.7900(7)
loop_
_geom_bond_atom_site_label_1
_geom_bond_atom_site_label_2
_geom_bond_site_symmetry_1
_geom_bond_site_symmetry_2
O7 Cu1 1_555 1_555
O9 Cu1 1_555 1_555
N9 Cu1 1_555 1_555
H4 C6 1_555 1_555
O4 C10 1_555 1_555
O5 C14 1_555 1_555
N7 N8 1_555 1_555
N8 H5 1_555 1_555
C8 N9 1_555 1_555
H6 C8 1_555 1_555
C9 N7 1_555 1_555
H7 C9 1_555 1_555
C10 N8 1_555 1_555
C11 C6 1_555 1_555
C12 C11 1_555 1_555
C14 C12 1_555 1_555
Cu4 O5 1_555 1_555
O3 Cu4_6 1_555 1_555
N7 C8 1_555 1_555
C10 C11 1_555 1_555
Cu1_2 N1 1_555 1_555
O1 C3 1_555 1_555
O2 C7 1_555 1_555
N3 N4 1_555 1_555
N4 H1 1_555 1_555
C1 N1 1_555 1_555
H2 C1 1_555 1_555
C2 N3 1_555 1_555
H3 C2 1_555 1_555
C3 N4 1_555 1_555
C4 C3 1_555 1_555
C5 C4 1_555 1_555
C7 C5 1_555 1_555
C13 C4 1_555 1_555
H8 C13 1_555 1_555
Cu4_8 O2 1_555 1_555
O8 Cu1_2 1_555 1_555
O10 Cu1_2 1_555 1_555
N3 C1 1_555 1_555
O6 Cu4_3 1_555 1_555
O8 C14_2 1_555 1_555
O10 C14_2 1_555 1_555
N7_2 N8_2 1_555 1_555
N8_2 H5_2 1_555 1_555
C8_2 N5 1_555 1_555
C9_2 N7_2 1_555 1_555
H7_2 C9_2 1_555 1_555
C10_2 N8_2 1_555 1_555
C12_2 C11_2 1_555 1_555
H8_2 C13_2 1_555 1_555
C14_2 C12_2 1_555 1_555
Cu4_7 N5 1_555 1_555
N7_2 C8_2 1_555 1_555
C10_2 C11_2 1_555 1_555
C12_2 C13_2 1_555 1_555
Cu4_2 N1_2 1_555 1_555
O7 C7_2 1_555 1_555
O9 C7_2 1_555 1_555
N3_2 N4_2 1_555 1_555
N4_2 H1_2 1_555 1_555
C1_2 N1_2 1_555 1_555
C2_2 N3_2 1_555 1_555
H3_2 C2_2 1_555 1_555
C3_2 N4_2 1_555 1_555
C4_2 C3_2 1_555 1_555
C5_2 C4_2 1_555 1_555
C6_2 C5_2 1_555 1_555
H4_2 C6_2 1_555 1_555
C7_2 C5_2 1_555 1_555
N3_2 C1_2 1_555 1_555

#END
