
###############################################################################
#
# This file contains modified crystal structure data generated from the
# MOF subset of the Cambridge Structural Database (CSD) v543 
# hosted by the Cambridge Crystallographic Data Centre (CCDC).
#
# This work is licensed under the Creative Commons
# Attribution-NonCommercial-ShareAlike 4.0 International License.
# To view a copy of this license, visit
# http://creativecommons.org/licenses/by-nc-sa/4.0/
# or send a letter to
# Creative Commons, PO Box 1866, Mountain View, CA 94042, USA.
#
# CIF created using the CSD Python API on 29 September 2022
# The structure has been converted into the P1 space group
# The structure has a 3D framework
# The original CSD entry QOZNAV is in the orthorhombic crystal system
# The framework has been calculated to contain at least 10.0% void space
# The void calculation uses a probe of radius 1.32A, grid spacing 0.4
#
###############################################################################

data_QOZNAV
_chemical_formula_moiety         '(C13 H16 N45 Na8 O24)n'
_symmetry_cell_setting           triclinic
_symmetry_space_group_name_H-M   'P 1'
_symmetry_Int_Tables_number      1
_space_group_name_Hall           'P 1'
loop_
_symmetry_equiv_pos_site_id
_symmetry_equiv_pos_as_xyz
1 x,y,z
_cell_length_a                   14.8053(6)
_cell_length_b                   9.9076(4)
_cell_length_c                   8.9399(3)
_cell_angle_alpha                90
_cell_angle_beta                 90
_cell_angle_gamma                90
_cell_volume                     1311.35
loop_
_atom_site_label
_atom_site_type_symbol
_atom_site_fract_x
_atom_site_fract_y
_atom_site_fract_z
N4 N 0.67415(15) 0.7960(2) 0.0215(3)
N6 N 0.70545(17) 0.8462(3) 0.1515(3)
N11 N 0.50774(17) 0.5668(2) 0.1885(3)
N12 N 0.49226(17) 0.4332(2) 0.1885(3)
N13 N 0.82585(15) 0.7960(2) 0.0215(3)
N14 N 0.32585(15) 0.2040(2) 0.0215(3)
N15 N 0.79455(17) 0.8462(3) 0.1515(3)
C1 C 0.5000 0.5000 0.4096(5)
N1 N 0.5000 0.5000 0.5710(4)
H1 H 0.356(3) 0.551(3) 0.992(4)
H2 H 0.349(3) 0.593(4) 0.828(5)
Na1 Na 0.53217(7) 0.66673(11) 0.93125(14)
O1 O 0.51104(14) 0.60865(19) 0.6344(2)
O2 O 0.39064(12) 0.5518(2) 0.9107(3)
C2 C 0.7500 0.7692(4) 0.9481(5)
N2 N 0.48758(16) 0.3890(2) 0.3294(3)
O3 O 0.67660(15) 0.6970(2) 0.7386(2)
N5 N 0.7500 0.7166(4) 0.7978(4)
H3 H 0.644(3) 0.449(3) 0.992(4)
H4 H 0.651(3) 0.407(4) 0.828(5)
Na2 Na 0.46783(7) 0.33327(11) 0.93125(14)
Na3 Na 0.53217(7) 0.16673(11) 0.43125(14)
Na6 Na 0.46783(7) 0.83327(11) 0.43125(14)
Na7 Na 0.96783(7) 0.66673(11) 0.93125(14)
O4 O 0.48896(14) 0.39135(19) 0.6344(2)
O5 O 0.60936(12) 0.4482(2) 0.9107(3)
N7 N 0.51242(16) 0.6110(2) 0.3294(3)
N8 N 0.48758(16) 0.8890(2) 0.8294(3)
N9 N 0.51242(16) 0.1110(2) 0.8294(3)
O6 O 0.82340(15) 0.6970(2) 0.7386(2)
O7 O 0.32340(15) 0.3030(2) 0.7386(2)
N6_2 N 0.29455(17) 0.1538(3) 0.1515(3)
N13_2 N 0.17415(15) 0.2040(2) 0.0215(3)
N15_2 N 0.20545(17) 0.1538(3) 0.1515(3)
C2_2 C 0.2500 0.2308(4) 0.9481(5)
N5_2 N 0.2500 0.2834(4) 0.7978(4)
Na7_2 Na 0.03217(7) 0.33327(11) 0.93125(14)
O6_2 O 0.17660(15) 0.3030(2) 0.7386(2)
N11_2 N 0.00774(17) 0.4332(2) 0.1885(3)
C1_2 C -0.0000 0.5000 0.4096(5)
N1_2 N 0.0000 0.5000 0.5710(4)
O1_2 O 0.01104(14) 0.39135(19) 0.6344(2)
H3_2 H 0.144(3) 0.551(3) 0.992(4)
H4_2 H 0.151(3) 0.593(4) 0.828(5)
Na3_2 Na 0.03217(7) 0.83327(11) 0.43125(14)
O5_2 O 0.10936(12) 0.5518(2) 0.9107(3)
N7_2 N 0.01242(16) 0.3890(2) 0.3294(3)
N9_2 N 0.01242(16) 0.8890(2) 0.8294(3)
N12_2 N 0.99226(17) 0.5668(2) 0.1885(3)
C1_3 C 1.0000 0.5000 0.4096(5)
N1_3 N 1.0000 0.5000 0.5710(4)
H1_2 H 0.856(3) 0.449(3) 0.992(4)
H2_2 H 0.849(3) 0.407(4) 0.828(5)
O2_2 O 0.89064(12) 0.4482(2) 0.9107(3)
N2_2 N 0.98758(16) 0.6110(2) 0.3294(3)
Na6_2 Na 0.96783(7) 0.16673(11) 0.43125(14)
O4_2 O 0.98896(14) 0.60865(19) 0.6344(2)
N8_2 N 0.98758(16) 0.1110(2) 0.8294(3)
N1_4 N 0.5000 -0.0000 0.0710(4)
H1_3 H 0.356(3) 0.051(3) 0.492(4)
H2_3 H 0.349(3) 0.093(4) 0.328(5)
O1_3 O 0.51104(14) 0.10865(19) 0.1344(2)
O2_3 O 0.39064(12) 0.0518(2) 0.4107(3)
C2_3 C 0.7500 0.2692(4) 0.4481(5)
O3_2 O 0.67660(15) 0.1970(2) 0.2386(2)
N4_2 N 0.67415(15) 0.2960(2) 0.5215(3)
N5_3 N 0.7500 0.2166(4) 0.2978(4)
N6_3 N 0.70545(17) 0.3462(3) 0.6515(3)
N11_3 N 0.50774(17) 0.0668(2) 0.6885(3)
O6_3 O 0.82340(15) 0.1970(2) 0.2386(2)
N13_3 N 0.82585(15) 0.2960(2) 0.5215(3)
N15_3 N 0.79455(17) 0.3462(3) 0.6515(3)
C1_4 C 0.5000 -0.0000 0.9096(5)
N1_5 N 0.5000 1.0000 0.0710(4)
H3_3 H 0.644(3) 0.949(3) 0.492(4)
H4_3 H 0.651(3) 0.907(4) 0.328(5)
O4_3 O 0.48896(14) 0.89135(19) 0.1344(2)
O5_3 O 0.60936(12) 0.9482(2) 0.4107(3)
N12_3 N 0.49226(17) 0.9332(2) 0.6885(3)
O7_2 O 0.32340(15) 0.8030(2) 0.2386(2)
N14_2 N 0.32585(15) 0.7040(2) 0.5215(3)
C1_5 C 0.5000 1.0000 0.9096(5)
C2_4 C 0.2500 0.7308(4) 0.4481(5)
N5_4 N 0.2500 0.7834(4) 0.2978(4)
N6_4 N 0.29455(17) 0.6538(3) 0.6515(3)
O6_4 O 0.17660(15) 0.8030(2) 0.2386(2)
N13_4 N 0.17415(15) 0.7040(2) 0.5215(3)
N15_4 N 0.20545(17) 0.6538(3) 0.6515(3)
N1_6 N -0.0000 0.0000 0.0710(4)
H3_4 H 0.144(3) 0.051(3) 0.492(4)
H4_4 H 0.151(3) 0.093(4) 0.328(5)
O5_4 O 0.10936(12) 0.0518(2) 0.4107(3)
C1_6 C -0.0000 0.0000 0.9096(5)
N1_7 N 0.0000 1.0000 0.0710(4)
O1_4 O 0.01104(14) 0.89135(19) 0.1344(2)
N11_4 N 0.00774(17) 0.9332(2) 0.6885(3)
C1_7 C 0.0000 1.0000 0.9096(5)
N1_8 N 1.0000 0.0000 0.0710(4)
O4_4 O 0.98896(14) 0.10865(19) 0.1344(2)
N12_4 N 0.99226(17) 0.0668(2) 0.6885(3)
C1_8 C 1.0000 0.0000 0.9096(5)
N1_9 N 1.0000 1.0000 0.0710(4)
H1_4 H 0.856(3) 0.949(3) 0.492(4)
H2_4 H 0.849(3) 0.907(4) 0.328(5)
O2_4 O 0.89064(12) 0.9482(2) 0.4107(3)
C1_9 C 1.0000 1.0000 0.9096(5)
loop_
_geom_bond_atom_site_label_1
_geom_bond_atom_site_label_2
_geom_bond_site_symmetry_1
_geom_bond_site_symmetry_2
N6 N4 1_555 1_555
N15 N6 1_555 1_555
N11 N12 1_555 1_555
N13 N15 1_555 1_555
C1 N1 1_555 1_555
N1 O1 1_555 1_555
H1 O2 1_555 1_555
H2 O2 1_555 1_555
Na1 O1 1_555 1_555
O2 Na1 1_555 1_555
N2 C1 1_555 1_555
N12 N2 1_555 1_555
O3 Na1 1_555 1_555
N5 C2 1_555 1_555
H3 O5 1_555 1_555
H4 O5 1_555 1_555
Na2 O2 1_555 1_555
Na3 N2 1_555 1_555
Na6 N7 1_555 1_555
Na7 O6 1_555 1_555
O4 N1 1_555 1_555
O5 Na1 1_555 1_555
N7 C1 1_555 1_555
N8 Na1 1_555 1_555
N9 Na2 1_555 1_555
O6 N5 1_555 1_555
O7 Na2 1_555 1_555
O3 N5 1_555 1_555
Na2 O4 1_555 1_555
Na2 O5 1_555 1_555
N7 N11 1_555 1_555
N6_2 N14 1_555 1_555
N15_2 N6_2 1_555 1_555
N13_2 N15_2 1_555 1_555
N5_2 C2_2 1_555 1_555
Na7_2 O6_2 1_555 1_555
O6_2 N5_2 1_555 1_555
O7 N5_2 1_555 1_555
C1_2 N1_2 1_555 1_555
N1_2 O1_2 1_555 1_555
Na7_2 O1_2 1_555 1_555
H3_2 O5_2 1_555 1_555
H4_2 O5_2 1_555 1_555
O5_2 Na7_2 1_555 1_555
N7_2 C1_2 1_555 1_555
N7_2 N11_2 1_555 1_555
C1_3 N1_3 1_555 1_555
H1_2 O2_2 1_555 1_555
H2_2 O2_2 1_555 1_555
N2_2 C1_3 1_555 1_555
N12_2 N2_2 1_555 1_555
Na7 O2_2 1_555 1_555
O4_2 N1_3 1_555 1_555
Na7 O4_2 1_555 1_555
N1_4 O1_3 1_555 1_555
H1_3 O2_3 1_555 1_555
H2_3 O2_3 1_555 1_555
Na3 O1_3 1_555 1_555
O2_3 Na3 1_555 1_555
C2_3 N4_2 1_555 1_555
O3_2 Na3 1_555 1_555
N4_2 Na3 1_555 1_555
N5_3 C2_3 1_555 1_555
N6_3 N4_2 1_555 1_555
Na6_2 O6_3 1_555 1_555
N11_3 Na3 1_555 1_555
O6_3 N5_3 1_555 1_555
N13_3 C2_3 1_555 1_555
N15_3 N6_3 1_555 1_555
O3_2 N5_3 1_555 1_555
Na6_2 N13_3 1_555 1_555
N13_3 N15_3 1_555 1_555
N9 C1_4 1_555 1_555
N9 N11_3 1_555 1_555
H3_3 O5_3 1_555 1_555
H4_3 O5_3 1_555 1_555
O4_3 N1_5 1_555 1_555
N12_3 Na6 1_555 1_555
O7_2 Na6 1_555 1_555
N14_2 Na6 1_555 1_555
Na6 O4_3 1_555 1_555
Na6 O5_3 1_555 1_555
N8 C1_5 1_555 1_555
N12_3 N8 1_555 1_555
C2_4 N14_2 1_555 1_555
N5_4 C2_4 1_555 1_555
N6_4 N14_2 1_555 1_555
Na3_2 O6_4 1_555 1_555
O6_4 N5_4 1_555 1_555
N13_4 C2_4 1_555 1_555
N15_4 N6_4 1_555 1_555
O7_2 N5_4 1_555 1_555
Na3_2 N13_4 1_555 1_555
N13_4 N15_4 1_555 1_555
H3_4 O5_4 1_555 1_555
H4_4 O5_4 1_555 1_555
N1_7 O1_4 1_555 1_555
Na3_2 O1_4 1_555 1_555
N11_4 Na3_2 1_555 1_555
N9_2 C1_7 1_555 1_555
N9_2 N11_4 1_555 1_555
O4_4 N1_8 1_555 1_555
N12_4 Na6_2 1_555 1_555
Na6_2 O4_4 1_555 1_555
N8_2 C1_8 1_555 1_555
N12_4 N8_2 1_555 1_555
H1_4 O2_4 1_555 1_555
H2_4 O2_4 1_555 1_555

#END
