
###############################################################################
#
# This file contains modified crystal structure data generated from the
# MOF subset of the Cambridge Structural Database (CSD) v543 
# hosted by the Cambridge Crystallographic Data Centre (CCDC).
#
# This work is licensed under the Creative Commons
# Attribution-NonCommercial-ShareAlike 4.0 International License.
# To view a copy of this license, visit
# http://creativecommons.org/licenses/by-nc-sa/4.0/
# or send a letter to
# Creative Commons, PO Box 1866, Mountain View, CA 94042, USA.
#
# CIF created using the CSD Python API on 29 September 2022
# The structure has been converted into the P1 space group
# The structure has a 3D framework
# The original CSD entry QOZPOM is in the monoclinic crystal system
# The framework has been calculated to contain at least 10.0% void space
# The void calculation uses a probe of radius 1.32A, grid spacing 0.4
#
###############################################################################

data_QOZPOM
_chemical_formula_moiety         '(C56 H32 N32 O23 Zn4)n'
_symmetry_cell_setting           triclinic
_symmetry_space_group_name_H-M   'P 1'
_symmetry_Int_Tables_number      1
_space_group_name_Hall           'P 1'
loop_
_symmetry_equiv_pos_site_id
_symmetry_equiv_pos_as_xyz
1 x,y,z
_cell_length_a                   18.2477(3)
_cell_length_b                   14.1976(2)
_cell_length_c                   10.3265(2)
_cell_angle_alpha                90
_cell_angle_beta                 93.7590(10)
_cell_angle_gamma                90
_cell_volume                     2669.57
loop_
_atom_site_label
_atom_site_type_symbol
_atom_site_fract_x
_atom_site_fract_y
_atom_site_fract_z
O1 O 0.17313(10) 0.07394(14) 0.36763(18)
C2 C 0.06437(14) 0.00142(18) 0.4335(2)
C6 C 0.13221(14) 0.00324(19) 0.3589(3)
O6 O 0.34601(13) 0.0556(2) 0.2658(3)
C11 C 0.43151(16) 0.0016(2) 0.4310(3)
C14 C 0.35763(19) 0.0005(2) 0.3563(4)
N9 N 0.20073(11) 0.41567(15) 0.5833(2)
N10 N 0.08845(12) 0.23173(15) 0.4665(2)
H9 H 0.0512 0.2341 0.4080
O8 O 0.14514(11) 0.15561(14) 0.63889(19)
N11 N 0.13832(12) 0.30486(15) 0.4845(2)
N12 N 0.23607(12) 0.39263(17) 0.4720(2)
C17 C 0.14259(14) 0.36246(18) 0.5882(2)
H11 H 0.1088 0.3642 0.6543
C18 C 0.10109(13) 0.15553(18) 0.5459(2)
C20 C 0.04866(13) 0.07505(17) 0.5172(2)
C21 C 0.19825(14) 0.3242(2) 0.4165(2)
H12 H 0.2105 0.2925 0.3399
O10 O 0.68975(12) 0.05684(19) 0.6138(3)
O11 O 0.64869(13) 0.11887(19) 0.3323(2)
N13 N 0.73130(14) 0.38022(18) 0.3933(2)
C22 C 0.55469(15) 0.06012(19) 0.4656(3)
N14 N 0.66807(14) 0.27174(18) 0.4782(3)
C23 C 0.66529(17) 0.3435(2) 0.3945(3)
H13 H 0.6229 0.3645 0.3445
N15 N 0.61120(14) 0.20995(18) 0.4954(3)
H14 H 0.5770 0.2218 0.5494
C24 C 0.48733(15) 0.0619(2) 0.3970(3)
H15 H 0.4790 0.1042 0.3264
N16 N 0.77944(16) 0.3291(2) 0.4756(3)
C26 C 0.7397(2) 0.2633(3) 0.5255(3)
H16 H 0.7577 0.2168 0.5856
C27 C 0.61134(16) 0.1295(2) 0.4238(3)
Zn4 Zn 0.760730(18) 0.48943(2) 0.28052(3)
Zn5 Zn 0.760730(18) 0.01057(2) 0.78052(3)
Zn7 Zn 0.239270(18) 0.51057(2) 0.71948(3)
N17 N 0.20073(11) 0.08433(15) 0.0833(2)
Zn1 Zn 0.239270(18) 0.98943(2) 0.21948(3)
O3 O 0.14459(10) 0.93372(15) 0.2873(2)
O4 O 0.31025(12) 0.94316(19) 0.3862(3)
O5 O 0.35131(13) 0.88113(19) 0.6677(2)
C1 C 0.01537(14) 0.92636(18) 0.4169(2)
H2 H 0.0258 0.8760 0.3605
N5 N 0.26870(14) 0.61978(18) 0.6067(2)
C5 C 0.44531(15) 0.93988(19) 0.5344(3)
N6 N 0.33193(14) 0.72826(18) 0.5218(3)
C8 C 0.33471(17) 0.6565(2) 0.6055(3)
H4 H 0.3771 0.6355 0.6555
N7 N 0.38880(14) 0.79005(18) 0.5046(3)
H6 H 0.4230 0.7782 0.4506
C10 C 0.51267(15) 0.9381(2) 0.6030(3)
H7 H 0.5210 0.8958 0.6736
N8 N 0.22056(16) 0.6709(2) 0.5244(3)
C12 C 0.2603(2) 0.7367(3) 0.4745(3)
H8 H 0.2423 0.7832 0.4144
C13 C 0.38866(16) 0.8705(2) 0.5762(3)
O12 O 0.65399(13) 0.9444(2) 0.7342(3)
C25 C 0.56849(16) 0.9984(2) 0.5690(3)
C28 C 0.64237(19) 0.9995(2) 0.6437(4)
N20 N 0.26870(14) 0.88022(18) 0.1067(2)
O9 O 0.85541(10) 0.06628(15) 0.7127(2)
C15 C 0.98463(14) 0.07364(18) 0.5831(2)
H10 H 0.9742 0.1240 0.6395
N19 N 0.73130(14) 0.11978(18) 0.8933(2)
N1 N 0.79927(11) 0.58433(15) 0.4167(2)
N2 N 0.91155(12) 0.76827(15) 0.5335(2)
H1 H 0.9488 0.7659 0.5920
O2 O 0.85486(11) 0.84439(14) 0.36111(19)
N3 N 0.86168(12) 0.69514(15) 0.5155(2)
N4 N 0.76393(12) 0.60737(17) 0.5280(2)
C3 C 0.85741(14) 0.63754(18) 0.4118(2)
H3 H 0.8912 0.6358 0.3457
C4 C 0.89891(13) 0.84447(18) 0.4541(2)
C7 C 0.95134(13) 0.92495(17) 0.4828(2)
C9 C 0.80175(14) 0.6758(2) 0.5835(2)
H5 H 0.7895 0.7075 0.6601
O7 O 0.82687(10) 0.92606(14) 0.63237(18)
C16 C 0.93563(14) 0.99858(18) 0.5665(2)
C19 C 0.86779(14) 0.99676(19) 0.6411(3)
N18 N 0.79927(11) 0.91567(15) 0.9167(2)
O2_2 O 0.14514(11) 0.34439(14) 0.13889(19)
C3_2 C 0.14259(14) 0.13754(18) 0.0882(2)
H3_2 H 0.1088 0.1358 0.1543
C4_2 C 0.10109(13) 0.34447(18) 0.0459(2)
C7_2 C 0.04866(13) 0.42495(17) 0.0172(2)
N2_2 N 0.08845(12) 0.26827(15) 0.9665(2)
H1_2 H 0.0512 0.2659 0.9080
N3_2 N 0.13832(12) 0.19514(15) 0.9845(2)
N4_2 N 0.23607(12) 0.10737(17) 0.9720(2)
C9_2 C 0.19825(14) 0.1758(2) 0.9165(2)
H5_2 H 0.2105 0.2075 0.8399
O7_2 O 0.17313(10) 0.42606(14) 0.86763(18)
O9_2 O 0.14459(10) 0.56628(15) 0.7873(2)
C15_2 C 0.01537(14) 0.57364(18) 0.9169(2)
H10_2 H 0.0258 0.6240 0.8605
C16_2 C 0.06437(14) 0.49858(18) 0.9335(2)
C19_2 C 0.13221(14) 0.49676(19) 0.8589(3)
O13 O 0.31025(12) 0.55684(19) 0.8862(3)
O14 O 0.34601(13) 0.4444(2) 0.7658(3)
O1_2 O 0.82687(10) 0.57394(14) 0.13237(18)
O3_2 O 0.85541(10) 0.43372(15) 0.2127(2)
O4_2 O 0.68975(12) 0.44316(19) 0.1138(3)
C1_2 C 0.98463(14) 0.42636(18) 0.0831(2)
H2_2 H 0.9742 0.3760 0.1395
C2_2 C 0.93563(14) 0.50142(18) 0.0665(2)
C6_2 C 0.86779(14) 0.50324(19) 0.1411(3)
O6_2 O 0.65399(13) 0.5556(2) 0.2342(3)
H6_2 H 0.5770 0.2782 0.0494
C11_2 C 0.56849(16) 0.5016(2) 0.0690(3)
C12_2 C 0.7397(2) 0.2367(3) 0.0255(3)
H8_2 H 0.7577 0.2832 0.0856
C14_2 C 0.64237(19) 0.5005(2) 0.1437(4)
N10_2 N 0.91155(12) 0.73173(15) 0.0335(2)
H9_2 H 0.9488 0.7341 0.0920
N11_2 N 0.86168(12) 0.80486(15) 0.0155(2)
N12_2 N 0.76393(12) 0.89263(17) 0.0280(2)
C21_2 C 0.80175(14) 0.8242(2) 0.0835(2)
H12_2 H 0.7895 0.7925 0.1601
O11_2 O 0.35131(13) 0.61887(19) 0.1677(2)
C22_2 C 0.44531(15) 0.56012(19) 0.0344(3)
N14_2 N 0.33193(14) 0.77174(18) 0.0218(3)
C23_2 C 0.33471(17) 0.8435(2) 0.1055(3)
H13_2 H 0.3771 0.8645 0.1555
N15_2 N 0.38880(14) 0.70995(18) 0.0046(3)
C24_2 C 0.51267(15) 0.5619(2) 0.1030(3)
H15_2 H 0.5210 0.6042 0.1736
N16_2 N 0.22056(16) 0.8291(2) 0.0244(3)
C27_2 C 0.38866(16) 0.6295(2) 0.0762(3)
O5_2 O 0.64869(13) 0.38113(19) 0.8323(2)
C5_2 C 0.55469(15) 0.43988(19) 0.9656(3)
N6_2 N 0.66807(14) 0.22826(18) 0.9782(3)
C8_2 C 0.66529(17) 0.1565(2) 0.8945(3)
H4_2 H 0.6229 0.1355 0.8445
N7_2 N 0.61120(14) 0.29005(18) 0.9954(3)
C10_2 C 0.48733(15) 0.4381(2) 0.8970(3)
H7_2 H 0.4790 0.3958 0.8264
N8_2 N 0.77944(16) 0.1709(2) 0.9756(3)
C13_2 C 0.61134(16) 0.3705(2) 0.9238(3)
O8_2 O 0.85486(11) 0.65561(14) 0.86111(19)
C17_2 C 0.85741(14) 0.86246(18) 0.9118(2)
H11_2 H 0.8912 0.8642 0.8457
C18_2 C 0.89891(13) 0.65553(18) 0.9541(2)
C20_2 C 0.95134(13) 0.57505(17) 0.9828(2)
H14_2 H 0.4230 0.7218 0.9506
C25_2 C 0.43151(16) 0.4984(2) 0.9310(3)
C26_2 C 0.2603(2) 0.7633(3) 0.9745(3)
H16_2 H 0.2423 0.7168 0.9144
C28_2 C 0.35763(19) 0.4995(2) 0.8563(4)
loop_
_geom_bond_atom_site_label_1
_geom_bond_atom_site_label_2
_geom_bond_site_symmetry_1
_geom_bond_site_symmetry_2
O1 C6 1_555 1_555
N9 N12 1_555 1_555
N10 H9 1_555 1_555
O8 C18 1_555 1_555
N11 N10 1_555 1_555
N12 C21 1_555 1_555
C17 N9 1_555 1_555
H11 C17 1_555 1_555
C18 N10 1_555 1_555
C20 C2 1_555 1_555
C21 N11 1_555 1_555
H12 C21 1_555 1_555
O11 C27 1_555 1_555
N13 C23 1_555 1_555
C22 C24 1_555 1_555
N14 C23 1_555 1_555
C23 H13 1_555 1_555
N15 N14 1_555 1_555
H14 N15 1_555 1_555
C24 C11 1_555 1_555
H15 C24 1_555 1_555
N16 N13 1_555 1_555
C26 N14 1_555 1_555
H16 C26 1_555 1_555
C27 C22 1_555 1_555
Zn4 N13 1_555 1_555
Zn5 O10 1_555 1_555
Zn7 N9 1_555 1_555
C2 C6 1_555 1_555
O6 C14 1_555 1_555
C11 C14 1_555 1_555
N11 C17 1_555 1_555
C18 C20 1_555 1_555
N15 C27 1_555 1_555
N16 C26 1_555 1_555
O3 Zn1 1_555 1_555
O4 Zn1 1_555 1_555
O5 C13 1_555 1_555
C1 H2 1_555 1_555
N5 C8 1_555 1_555
C5 C10 1_555 1_555
N6 C8 1_555 1_555
C8 H4 1_555 1_555
N7 N6 1_555 1_555
H6 N7 1_555 1_555
C10 H7 1_555 1_555
N8 N5 1_555 1_555
C12 N6 1_555 1_555
H8 C12 1_555 1_555
C13 C5 1_555 1_555
O12 C28 1_555 1_555
C25 C10 1_555 1_555
C28 C25 1_555 1_555
Zn7 N5 1_555 1_555
N20 Zn1 1_555 1_555
N7 C13 1_555 1_555
N8 C12 1_555 1_555
C15 H10 1_555 1_555
N19 Zn5 1_555 1_555
O9 Zn5 1_555 1_555
N1 N4 1_555 1_555
N2 H1 1_555 1_555
O2 C4 1_555 1_555
N3 N2 1_555 1_555
N4 C9 1_555 1_555
C3 N1 1_555 1_555
H3 C3 1_555 1_555
C4 N2 1_555 1_555
C9 N3 1_555 1_555
H5 C9 1_555 1_555
O7 C19 1_555 1_555
C16 C7 1_555 1_555
C19 C16 1_555 1_555
Zn4 N1 1_555 1_555
N3 C3 1_555 1_555
C4 C7 1_555 1_555
O2_2 C4_2 1_555 1_555
C3_2 N17 1_555 1_555
H3_2 C3_2 1_555 1_555
C4_2 C7_2 1_555 1_555
N2_2 H1_2 1_555 1_555
N3_2 N2_2 1_555 1_555
N4_2 C9_2 1_555 1_555
C9_2 N3_2 1_555 1_555
H5_2 C9_2 1_555 1_555
O7_2 C19_2 1_555 1_555
O9_2 C19_2 1_555 1_555
C15_2 H10_2 1_555 1_555
C19_2 C16_2 1_555 1_555
Zn7 O7_2 1_555 1_555
O13 Zn7 1_555 1_555
O14 Zn7 1_555 1_555
O9_2 Zn7 1_555 1_555
C15_2 C16_2 1_555 1_555
Zn4 O1_2 1_555 1_555
O1_2 C6_2 1_555 1_555
O3_2 Zn4 1_555 1_555
O4_2 Zn4 1_555 1_555
C1_2 H2_2 1_555 1_555
C2_2 C1_2 1_555 1_555
C6_2 O3_2 1_555 1_555
O6_2 Zn4 1_555 1_555
H8_2 C12_2 1_555 1_555
C14_2 O4_2 1_555 1_555
N10_2 H9_2 1_555 1_555
N11_2 N10_2 1_555 1_555
N12_2 C21_2 1_555 1_555
C21_2 N11_2 1_555 1_555
H12_2 C21_2 1_555 1_555
O11_2 C27_2 1_555 1_555
N20 C23_2 1_555 1_555
C22_2 C24_2 1_555 1_555
N14_2 C23_2 1_555 1_555
C23_2 H13_2 1_555 1_555
N15_2 N14_2 1_555 1_555
C24_2 C11_2 1_555 1_555
H15_2 C24_2 1_555 1_555
N16_2 N20 1_555 1_555
C27_2 C22_2 1_555 1_555
C2_2 C6_2 1_555 1_555
O6_2 C14_2 1_555 1_555
C11_2 C14_2 1_555 1_555
N15_2 C27_2 1_555 1_555
O5_2 C13_2 1_555 1_555
N19 C8_2 1_555 1_555
C5_2 C10_2 1_555 1_555
N6_2 C8_2 1_555 1_555
C8_2 H4_2 1_555 1_555
N7_2 N6_2 1_555 1_555
C10_2 H7_2 1_555 1_555
N8_2 N19 1_555 1_555
C13_2 C5_2 1_555 1_555
O8_2 C18_2 1_555 1_555
C17_2 N18 1_555 1_555
H11_2 C17_2 1_555 1_555
O13 C28_2 1_555 1_555
O14 C28_2 1_555 1_555
C25_2 C10_2 1_555 1_555
H16_2 C26_2 1_555 1_555
C28_2 C25_2 1_555 1_555
N7_2 C13_2 1_555 1_555
C18_2 C20_2 1_555 1_555

#END
