
###############################################################################
#
# This file contains modified crystal structure data generated from the
# MOF subset of the Cambridge Structural Database (CSD) v543 
# hosted by the Cambridge Crystallographic Data Centre (CCDC).
#
# This work is licensed under the Creative Commons
# Attribution-NonCommercial-ShareAlike 4.0 International License.
# To view a copy of this license, visit
# http://creativecommons.org/licenses/by-nc-sa/4.0/
# or send a letter to
# Creative Commons, PO Box 1866, Mountain View, CA 94042, USA.
#
# CIF created using the CSD Python API on 29 September 2022
# The structure has been converted into the P1 space group
# The structure has a 3D framework
# The original CSD entry QOZSIJ is in the monoclinic crystal system
# The framework has been calculated to contain at least 10.0% void space
# The void calculation uses a probe of radius 1.32A, grid spacing 0.4
#
###############################################################################

data_QOZSIJ
_chemical_formula_moiety         '(C280 H168 N24 O32 Zn8)n'
_symmetry_cell_setting           triclinic
_symmetry_space_group_name_H-M   'P 1'
_symmetry_Int_Tables_number      1
_space_group_name_Hall           'P 1'
loop_
_symmetry_equiv_pos_site_id
_symmetry_equiv_pos_as_xyz
1 x,y,z
_cell_length_a                   18.020(5)
_cell_length_b                   27.937(7)
_cell_length_c                   23.201(6)
_cell_angle_alpha                90
_cell_angle_beta                 108.317(5)
_cell_angle_gamma                90
_cell_volume                     11088.2
loop_
_atom_site_label
_atom_site_type_symbol
_atom_site_fract_x
_atom_site_fract_y
_atom_site_fract_z
C12 C 0.02040(18) 0.27348(12) 0.55835(14)
H8 H 0.0516 0.2616 0.5364
C15 C 0.00507(18) 0.29559(11) 0.64815(13)
H11 H 0.0257 0.2992 0.6900
N2 N 0.05099(13) 0.27682(8) 0.61879(10)
Zn2 Zn 0.152523(18) 0.240048(12) 0.658553(15)
C1 C 0.81400(16) 0.31617(10) 0.52526(13)
C2 C 0.71345(15) 0.30639(10) 0.43606(12)
C3 C 0.66041(16) 0.32873(10) 0.46062(13)
H1 H 0.6077 0.3309 0.4384
C4 C 0.76557(16) 0.34166(10) 0.55086(12)
H2 H 0.7855 0.3547 0.5896
C5 C 0.68792(16) 0.34728(10) 0.51801(13)
C6 C 0.5955(2) 0.59719(14) 0.61182(17)
O1 O 0.24988(12) 0.27758(9) 0.67161(11)
C7 C 0.33748(19) 0.29892(13) 0.55284(15)
H3 H 0.3039 0.2805 0.5222
C8 C 0.40051(19) 0.32128(12) 0.54298(16)
H4 H 0.4089 0.3183 0.5056
C9 C 0.52984(18) 0.42205(12) 0.59024(15)
H5 H 0.4958 0.4380 0.6066
C10 C 0.64375(17) 0.42186(11) 0.55864(13)
H6 H 0.6870 0.4376 0.5540
C11 C 0.6669(2) 0.57284(14) 0.6250(2)
H7 H 0.7139 0.5891 0.6409
O2 O 0.20170(14) 0.26232(10) 0.57485(12)
N1 N 0.78846(12) 0.29928(8) 0.46871(10)
O3 O 0.65994(15) 0.67230(10) 0.63909(12)
O4 O 0.53155(16) 0.66939(10) 0.62975(14)
C13 C 0.94549(17) 0.28670(12) 0.52739(13)
H9 H 0.9269 0.2839 0.4853
C14 C 0.93016(17) 0.30969(11) 0.62089(13)
H10 H 0.9012 0.3229 0.6438
C16 C 0.3732(2) 0.33011(14) 0.65258(16)
H12 H 0.3639 0.3336 0.6896
C17 C 0.63304(16) 0.37413(10) 0.54431(13)
C18 C 0.5278(2) 0.57454(14) 0.59017(18)
H13 H 0.4809 0.5911 0.5827
C19 C 0.74111(18) 0.26052(12) 0.35267(13)
H14 H 0.7861 0.2483 0.3807
C20 C 0.2535(2) 0.27923(12) 0.61777(18)
C21 C 0.32359(18) 0.30354(12) 0.60789(15)
C22 C 0.45137(18) 0.34812(12) 0.58842(16)
C23 C 0.4383(2) 0.35243(14) 0.64344(17)
H15 H 0.4726 0.3701 0.6745
C24 C 0.51789(17) 0.37377(11) 0.57667(15)
C25 C 0.59088(18) 0.44727(11) 0.58016(14)
C26 C 0.56973(17) 0.35049(11) 0.55199(14)
H16 H 0.5613 0.3185 0.5406
C27 C 0.5960(2) 0.49921(12) 0.59101(15)
C28 C 0.6660(2) 0.52284(14) 0.6137(2)
H17 H 0.7128 0.5061 0.6216
C29 C 0.5281(2) 0.52633(14) 0.57890(18)
H18 H 0.4803 0.5110 0.5623
C30 C 0.69160(15) 0.29022(10) 0.37185(12)
C31 C 0.58744(19) 0.65135(14) 0.62546(17)
C32 C 0.89714(16) 0.30430(10) 0.55856(12)
N3 N 0.66027(13) 0.26540(9) 0.25002(10)
C33 C 0.72352(18) 0.24943(12) 0.29287(14)
H19 H 0.7576 0.2295 0.2812
C34 C 0.62369(16) 0.30489(12) 0.32797(13)
H20 H 0.5869 0.3232 0.3387
C35 C 0.61137(16) 0.29220(12) 0.26867(14)
H21 H 0.5660 0.3030 0.2397
Zn3 Zn 0.652523(18) 0.740048(12) 0.658553(15)
Zn4 Zn 0.652523(18) 0.259952(12) 0.158553(15)
O5 O 0.15994(15) 0.17230(10) 0.63909(12)
N5 N 0.16027(13) 0.23460(9) 0.75002(10)
C6_2 C 0.0955(2) 0.09719(14) 0.61182(17)
C11_2 C 0.1669(2) 0.07284(14) 0.6250(2)
H7_2 H 0.2139 0.0891 0.6409
O4_2 O 0.03155(16) 0.16939(10) 0.62975(14)
C18_2 C 0.0278(2) 0.07454(14) 0.59017(18)
C28_2 C 0.1660(2) 0.02284(14) 0.6137(2)
H17_2 H 0.2128 0.0061 0.6216
C29_2 C 0.0281(2) 0.02633(14) 0.57890(18)
C31_2 C 0.08744(19) 0.15135(14) 0.62546(17)
C1_2 C 0.31400(16) 0.81617(10) 0.52526(13)
C2_2 C 0.21345(15) 0.80639(10) 0.43606(12)
C3_2 C 0.16041(16) 0.82873(10) 0.46062(13)
H1_2 H 0.1077 0.8309 0.4384
C4_2 C 0.26557(16) 0.84166(10) 0.55086(12)
H2_2 H 0.2855 0.8547 0.5896
C5_2 C 0.18792(16) 0.84728(10) 0.51801(13)
C9_2 C 0.02984(18) 0.92205(12) 0.59024(15)
C10_2 C 0.14375(17) 0.92186(11) 0.55864(13)
H6_2 H 0.1870 0.9376 0.5540
N1_2 N 0.28846(12) 0.79928(8) 0.46871(10)
C12_2 C 0.52040(18) 0.77348(12) 0.55835(14)
H8_2 H 0.5516 0.7616 0.5364
C13_2 C 0.44549(17) 0.78670(12) 0.52739(13)
H9_2 H 0.4269 0.7839 0.4853
C14_2 C 0.43016(17) 0.80969(11) 0.62089(13)
H10_2 H 0.4012 0.8229 0.6438
C15_2 C 0.50507(18) 0.79559(11) 0.64815(13)
H11_2 H 0.5257 0.7992 0.6900
C17_2 C 0.13304(16) 0.87413(10) 0.54431(13)
C19_2 C 0.24111(18) 0.76052(12) 0.35267(13)
H14_2 H 0.2861 0.7483 0.3807
N2_2 N 0.55099(13) 0.77682(8) 0.61879(10)
C24_2 C 0.01789(17) 0.87377(11) 0.57667(15)
C25_2 C 0.09088(18) 0.94727(11) 0.58016(14)
C26_2 C 0.06973(17) 0.85049(11) 0.55199(14)
H16_2 H 0.0613 0.8185 0.5406
C27_2 C 0.0960(2) 0.99921(12) 0.59101(15)
C30_2 C 0.19160(15) 0.79022(10) 0.37185(12)
C32_2 C 0.39714(16) 0.80430(10) 0.55856(12)
N3_2 N 0.16027(13) 0.76540(9) 0.25002(10)
C33_2 C 0.22352(18) 0.74943(12) 0.29287(14)
H19_2 H 0.2576 0.7295 0.2812
C34_2 C 0.12369(16) 0.80489(12) 0.32797(13)
H20_2 H 0.0869 0.8232 0.3387
C35_2 C 0.11137(16) 0.79220(12) 0.26867(14)
H21_2 H 0.0660 0.8030 0.2397
Zn4_2 Zn 0.152523(18) 0.759952(12) 0.158553(15)
O1_2 O 0.74988(12) 0.77758(9) 0.67161(11)
C7_2 C 0.83748(19) 0.79892(13) 0.55284(15)
H3_2 H 0.8039 0.7805 0.5222
C8_2 C 0.90051(19) 0.82128(12) 0.54298(16)
H4_2 H 0.9089 0.8183 0.5056
H5_2 H 0.9958 0.9380 0.6066
O2_2 O 0.70170(14) 0.76232(10) 0.57485(12)
C16_2 C 0.8732(2) 0.83011(14) 0.65258(16)
H12_2 H 0.8639 0.8336 0.6896
C20_2 C 0.7535(2) 0.77923(12) 0.61777(18)
C21_2 C 0.82359(18) 0.80354(12) 0.60789(15)
C22_2 C 0.95137(18) 0.84812(12) 0.58842(16)
C23_2 C 0.9383(2) 0.85243(14) 0.64344(17)
H15_2 H 0.9726 0.8701 0.6745
N5_2 N 0.66027(13) 0.73460(9) 0.75002(10)
C12_3 C 0.02040(18) 0.72652(12) 0.05835(14)
H8_3 H 0.0516 0.7384 0.0364
C15_3 C 0.00507(18) 0.70441(11) 0.14815(13)
H11_3 H 0.0257 0.7008 0.1900
N2_3 N 0.05099(13) 0.72318(8) 0.11879(10)
C1_3 C 0.81400(16) 0.68383(10) 0.02526(13)
C4_3 C 0.76557(16) 0.65834(10) 0.05086(12)
H2_3 H 0.7855 0.6453 0.0896
C5_3 C 0.68792(16) 0.65272(10) 0.01801(13)
C6_3 C 0.5955(2) 0.40281(14) 0.11182(17)
O1_3 O 0.24988(12) 0.72242(9) 0.17161(11)
C7_3 C 0.33748(19) 0.70108(13) 0.05284(15)
H3_3 H 0.3039 0.7195 0.0222
C8_3 C 0.40051(19) 0.67872(12) 0.04298(16)
H4_3 H 0.4089 0.6817 0.0056
C9_3 C 0.52984(18) 0.57795(12) 0.09024(15)
H5_3 H 0.4958 0.5620 0.1066
C10_3 C 0.64375(17) 0.57814(11) 0.05864(13)
H6_3 H 0.6870 0.5624 0.0540
C11_3 C 0.6669(2) 0.42716(14) 0.1250(2)
H7_3 H 0.7139 0.4109 0.1409
O2_3 O 0.20170(14) 0.73768(10) 0.07485(12)
O3_2 O 0.65994(15) 0.32770(10) 0.13909(12)
O4_3 O 0.53155(16) 0.33061(10) 0.12975(14)
C13_3 C 0.94549(17) 0.71330(12) 0.02739(13)
C14_3 C 0.93016(17) 0.69031(11) 0.12089(13)
H10_3 H 0.9012 0.6771 0.1438
C16_3 C 0.3732(2) 0.66989(14) 0.15258(16)
H12_3 H 0.3639 0.6664 0.1896
C17_3 C 0.63304(16) 0.62587(10) 0.04431(13)
C18_3 C 0.5278(2) 0.42546(14) 0.09017(18)
H13_2 H 0.4809 0.4089 0.0827
C20_3 C 0.2535(2) 0.72077(12) 0.11777(18)
C21_3 C 0.32359(18) 0.69646(12) 0.10789(15)
C22_3 C 0.45137(18) 0.65188(12) 0.08842(16)
C23_3 C 0.4383(2) 0.64757(14) 0.14344(17)
H15_3 H 0.4726 0.6299 0.1745
C24_3 C 0.51789(17) 0.62623(11) 0.07667(15)
C25_3 C 0.59088(18) 0.55273(11) 0.08016(14)
C26_3 C 0.56973(17) 0.64951(11) 0.05199(14)
H16_3 H 0.5613 0.6815 0.0406
C27_3 C 0.5960(2) 0.50079(12) 0.09101(15)
C28_3 C 0.6660(2) 0.47716(14) 0.1137(2)
H17_3 H 0.7128 0.4939 0.1216
C29_3 C 0.5281(2) 0.47367(14) 0.07890(18)
H18_2 H 0.4803 0.4890 0.0623
C31_3 C 0.58744(19) 0.34865(14) 0.12546(17)
C32_3 C 0.89714(16) 0.69570(10) 0.05856(12)
O5_2 O 0.15994(15) 0.82770(10) 0.13909(12)
C2_3 C 0.71345(15) 0.69361(10) 0.93606(12)
C3_3 C 0.66041(16) 0.67127(10) 0.96062(13)
H1_3 H 0.6077 0.6691 0.9384
N1_3 N 0.78846(12) 0.70072(8) 0.96871(10)
H9_3 H 0.9269 0.7161 0.9853
C19_3 C 0.74111(18) 0.73948(12) 0.85267(13)
H14_3 H 0.7861 0.7517 0.8807
C30_3 C 0.69160(15) 0.70978(10) 0.87185(12)
C33_3 C 0.72352(18) 0.75057(12) 0.79287(14)
H19_3 H 0.7576 0.7705 0.7812
C34_3 C 0.62369(16) 0.69511(12) 0.82797(13)
H20_3 H 0.5869 0.6768 0.8387
C35_3 C 0.61137(16) 0.70780(12) 0.76867(14)
H21_3 H 0.5660 0.6970 0.7397
C1_4 C 0.31400(16) 0.18383(10) 0.02526(13)
C4_4 C 0.26557(16) 0.15834(10) 0.05086(12)
H2_4 H 0.2855 0.1453 0.0896
C5_4 C 0.18792(16) 0.15272(10) 0.01801(13)
C9_4 C 0.02984(18) 0.07795(12) 0.09024(15)
C10_4 C 0.14375(17) 0.07814(11) 0.05864(13)
H6_4 H 0.1870 0.0624 0.0540
C12_4 C 0.52040(18) 0.22652(12) 0.05835(14)
H8_4 H 0.5516 0.2384 0.0364
C13_4 C 0.44549(17) 0.21330(12) 0.02739(13)
C14_4 C 0.43016(17) 0.19031(11) 0.12089(13)
H10_4 H 0.4012 0.1771 0.1438
C15_4 C 0.50507(18) 0.20441(11) 0.14815(13)
H11_4 H 0.5257 0.2008 0.1900
C17_4 C 0.13304(16) 0.12587(10) 0.04431(13)
N2_4 N 0.55099(13) 0.22318(8) 0.11879(10)
C24_4 C 0.01789(17) 0.12623(11) 0.07667(15)
C25_4 C 0.09088(18) 0.05273(11) 0.08016(14)
C26_4 C 0.06973(17) 0.14951(11) 0.05199(14)
H16_4 H 0.0613 0.1815 0.0406
C27_4 C 0.0960(2) 0.00079(12) 0.09101(15)
C32_4 C 0.39714(16) 0.19570(10) 0.05856(12)
C2_4 C 0.21345(15) 0.19361(10) 0.93606(12)
C3_4 C 0.16041(16) 0.17127(10) 0.96062(13)
H1_4 H 0.1077 0.1691 0.9384
N1_4 N 0.28846(12) 0.20072(8) 0.96871(10)
H9_4 H 0.4269 0.2161 0.9853
C19_4 C 0.24111(18) 0.23948(12) 0.85267(13)
H14_4 H 0.2861 0.2517 0.8807
C30_4 C 0.19160(15) 0.20978(10) 0.87185(12)
C33_4 C 0.22352(18) 0.25057(12) 0.79287(14)
H19_4 H 0.2576 0.2705 0.7812
C34_4 C 0.12369(16) 0.19511(12) 0.82797(13)
H20_4 H 0.0869 0.1768 0.8387
C35_4 C 0.11137(16) 0.20780(12) 0.76867(14)
H21_4 H 0.0660 0.1970 0.7397
C6_4 C 0.0955(2) 0.90281(14) 0.11182(17)
C11_4 C 0.1669(2) 0.92716(14) 0.1250(2)
H7_4 H 0.2139 0.9109 0.1409
O4_4 O 0.03155(16) 0.83061(10) 0.12975(14)
C18_4 C 0.0278(2) 0.92546(14) 0.09017(18)
C28_4 C 0.1660(2) 0.97716(14) 0.1137(2)
H17_4 H 0.2128 0.9939 0.1216
C29_4 C 0.0281(2) 0.97367(14) 0.07890(18)
C31_4 C 0.08744(19) 0.84865(14) 0.12546(17)
O1_4 O 0.74988(12) 0.22242(9) 0.17161(11)
C7_4 C 0.83748(19) 0.20108(13) 0.05284(15)
H3_4 H 0.8039 0.2195 0.0222
C8_4 C 0.90051(19) 0.17872(12) 0.04298(16)
H4_4 H 0.9089 0.1817 0.0056
H5_4 H 0.9958 0.0620 0.1066
O2_4 O 0.70170(14) 0.23768(10) 0.07485(12)
C16_4 C 0.8732(2) 0.16989(14) 0.15258(16)
H12_4 H 0.8639 0.1664 0.1896
C20_4 C 0.7535(2) 0.22077(12) 0.11777(18)
C21_4 C 0.82359(18) 0.19646(12) 0.10789(15)
C22_4 C 0.95137(18) 0.15188(12) 0.08842(16)
C23_4 C 0.9383(2) 0.14757(14) 0.14344(17)
H15_4 H 0.9726 0.1299 0.1745
C2_5 C 0.28655(15) 0.30639(10) 0.06394(12)
C3_5 C 0.33959(16) 0.32873(10) 0.03938(13)
H1_5 H 0.3923 0.3309 0.0616
N1_5 N 0.21154(12) 0.29928(8) 0.03129(10)
H9_5 H 0.0731 0.2839 0.0147
C19_5 C 0.25889(18) 0.26052(12) 0.14733(13)
H14_5 H 0.2139 0.2483 0.1193
C30_5 C 0.30840(15) 0.29022(10) 0.12815(12)
N3_3 N 0.33973(13) 0.26540(9) 0.24998(10)
C33_5 C 0.27648(18) 0.24943(12) 0.20713(14)
H19_5 H 0.2424 0.2295 0.2188
C34_5 C 0.37631(16) 0.30489(12) 0.17203(13)
H20_5 H 0.4131 0.3232 0.1613
C35_5 C 0.38863(16) 0.29220(12) 0.23133(14)
H21_5 H 0.4340 0.3030 0.2603
Zn4_3 Zn 0.347477(18) 0.259952(12) 0.341447(15)
C1_5 C 0.18600(16) 0.31617(10) 0.97474(13)
C4_5 C 0.23443(16) 0.34166(10) 0.94914(12)
H2_5 H 0.2145 0.3547 0.9104
C5_5 C 0.31208(16) 0.34728(10) 0.98199(13)
C6_5 C 0.4045(2) 0.59719(14) 0.88818(17)
Zn1 Zn 0.847477(18) 0.240048(12) 0.841447(15)
O1_5 O 0.75012(12) 0.27758(9) 0.82839(11)
C7_5 C 0.66252(19) 0.29892(13) 0.94716(15)
H3_5 H 0.6961 0.2805 0.9778
C8_5 C 0.59949(19) 0.32128(12) 0.95702(16)
H4_5 H 0.5911 0.3183 0.9944
C9_5 C 0.47016(18) 0.42205(12) 0.90976(15)
H5_5 H 0.5042 0.4380 0.8934
C10_5 C 0.35625(17) 0.42186(11) 0.94136(13)
H6_5 H 0.3130 0.4376 0.9460
C11_5 C 0.3331(2) 0.57284(14) 0.8750(2)
H7_5 H 0.2861 0.5891 0.8591
O2_5 O 0.79830(14) 0.26232(10) 0.92515(12)
O3_3 O 0.34006(15) 0.67230(10) 0.86091(12)
O4_5 O 0.46845(16) 0.66939(10) 0.87025(14)
C13_5 C 0.05451(17) 0.28670(12) 0.97261(13)
C14_5 C 0.06984(17) 0.30969(11) 0.87911(13)
H10_5 H 0.0988 0.3229 0.8562
C16_5 C 0.6268(2) 0.33011(14) 0.84742(16)
H12_5 H 0.6361 0.3336 0.8104
C17_5 C 0.36696(16) 0.37413(10) 0.95569(13)
C18_5 C 0.4722(2) 0.57454(14) 0.90983(18)
H13_3 H 0.5191 0.5911 0.9173
C20_5 C 0.7465(2) 0.27923(12) 0.88223(18)
C21_5 C 0.67641(18) 0.30354(12) 0.89211(15)
C22_5 C 0.54863(18) 0.34812(12) 0.91158(16)
C23_5 C 0.5617(2) 0.35243(14) 0.85656(17)
H15_5 H 0.5274 0.3701 0.8255
C24_5 C 0.48211(17) 0.37377(11) 0.92333(15)
C25_5 C 0.40912(18) 0.44727(11) 0.91984(14)
C26_5 C 0.43027(17) 0.35049(11) 0.94801(14)
H16_5 H 0.4387 0.3185 0.9594
C27_5 C 0.4040(2) 0.49921(12) 0.90899(15)
C28_5 C 0.3340(2) 0.52284(14) 0.8863(2)
H17_5 H 0.2872 0.5061 0.8784
C29_5 C 0.4719(2) 0.52633(14) 0.92110(18)
H18_3 H 0.5197 0.5110 0.9377
C31_5 C 0.41256(19) 0.65135(14) 0.87454(17)
C32_5 C 0.10286(16) 0.30430(10) 0.94144(12)
Zn3_2 Zn 0.347477(18) 0.740048(12) 0.841447(15)
O5_3 O 0.84006(15) 0.17230(10) 0.86091(12)
N4 N 0.94901(13) 0.27682(8) 0.88121(10)
N5_3 N 0.83973(13) 0.23460(9) 0.74998(10)
C12_5 C 0.97960(18) 0.27348(12) 0.94165(14)
H8_5 H 0.9484 0.2616 0.9636
C15_5 C 0.99493(18) 0.29559(11) 0.85185(13)
H11_5 H 0.9743 0.2992 0.8100
O1_6 O 0.25012(12) 0.77758(9) 0.82839(11)
C7_6 C 0.16252(19) 0.79892(13) 0.94716(15)
H3_6 H 0.1961 0.7805 0.9778
C8_6 C 0.09949(19) 0.82128(12) 0.95702(16)
H4_6 H 0.0911 0.8183 0.9944
H5_6 H 0.0042 0.9380 0.8934
O2_6 O 0.29830(14) 0.76232(10) 0.92515(12)
C16_6 C 0.1268(2) 0.83011(14) 0.84742(16)
H12_6 H 0.1361 0.8336 0.8104
C20_6 C 0.2465(2) 0.77923(12) 0.88223(18)
C21_6 C 0.17641(18) 0.80354(12) 0.89211(15)
C22_6 C 0.04863(18) 0.84812(12) 0.91158(16)
C23_6 C 0.0617(2) 0.85243(14) 0.85656(17)
H15_6 H 0.0274 0.8701 0.8255
N4_2 N 0.44901(13) 0.77682(8) 0.88121(10)
N5_4 N 0.33973(13) 0.73460(9) 0.74998(10)
C6_6 C 0.9045(2) 0.09719(14) 0.88818(17)
C11_6 C 0.8331(2) 0.07284(14) 0.8750(2)
H7_6 H 0.7861 0.0891 0.8591
O4_6 O 0.96845(16) 0.16939(10) 0.87025(14)
C18_6 C 0.9722(2) 0.07454(14) 0.90983(18)
C28_6 C 0.8340(2) 0.02284(14) 0.8863(2)
H17_6 H 0.7872 0.0061 0.8784
C29_6 C 0.9719(2) 0.02633(14) 0.92110(18)
C31_6 C 0.91256(19) 0.15135(14) 0.87454(17)
C2_6 C 0.78655(15) 0.80639(10) 0.06394(12)
C3_6 C 0.83959(16) 0.82873(10) 0.03938(13)
H1_6 H 0.8923 0.8309 0.0616
N1_6 N 0.71154(12) 0.79928(8) 0.03129(10)
H9_6 H 0.5731 0.7839 0.0147
C19_6 C 0.75889(18) 0.76052(12) 0.14733(13)
H14_6 H 0.7139 0.7483 0.1193
C30_6 C 0.80840(15) 0.79022(10) 0.12815(12)
N3_4 N 0.83973(13) 0.76540(9) 0.24998(10)
C33_6 C 0.77648(18) 0.74943(12) 0.20713(14)
H19_6 H 0.7424 0.7295 0.2188
C34_6 C 0.87631(16) 0.80489(12) 0.17203(13)
H20_6 H 0.9131 0.8232 0.1613
C35_6 C 0.88863(16) 0.79220(12) 0.23133(14)
H21_6 H 0.9340 0.8030 0.2603
Zn4_4 Zn 0.847477(18) 0.759952(12) 0.341447(15)
C1_6 C 0.68600(16) 0.81617(10) 0.97474(13)
C4_6 C 0.73443(16) 0.84166(10) 0.94914(12)
H2_6 H 0.7145 0.8547 0.9104
C5_6 C 0.81208(16) 0.84728(10) 0.98199(13)
C9_6 C 0.97016(18) 0.92205(12) 0.90976(15)
C10_6 C 0.85625(17) 0.92186(11) 0.94136(13)
H6_6 H 0.8130 0.9376 0.9460
C12_6 C 0.47960(18) 0.77348(12) 0.94165(14)
H8_6 H 0.4484 0.7616 0.9636
C13_6 C 0.55451(17) 0.78670(12) 0.97261(13)
C14_6 C 0.56984(17) 0.80969(11) 0.87911(13)
H10_6 H 0.5988 0.8229 0.8562
C15_6 C 0.49493(18) 0.79559(11) 0.85185(13)
H11_6 H 0.4743 0.7992 0.8100
C17_6 C 0.86696(16) 0.87413(10) 0.95569(13)
C24_6 C 0.98211(17) 0.87377(11) 0.92333(15)
C25_6 C 0.90912(18) 0.94727(11) 0.91984(14)
C26_6 C 0.93027(17) 0.85049(11) 0.94801(14)
H16_6 H 0.9387 0.8185 0.9594
C27_6 C 0.9040(2) 0.99921(12) 0.90899(15)
C32_6 C 0.60286(16) 0.80430(10) 0.94144(12)
C1_7 C 0.18600(16) 0.68383(10) 0.47474(13)
C2_7 C 0.28655(15) 0.69361(10) 0.56394(12)
C3_7 C 0.33959(16) 0.67127(10) 0.53938(13)
H1_7 H 0.3923 0.6691 0.5616
C4_7 C 0.23443(16) 0.65834(10) 0.44914(12)
H2_7 H 0.2145 0.6453 0.4104
C5_7 C 0.31208(16) 0.65272(10) 0.48199(13)
C6_7 C 0.4045(2) 0.40281(14) 0.38818(17)
O1_7 O 0.75012(12) 0.72242(9) 0.32839(11)
C7_7 C 0.66252(19) 0.70108(13) 0.44716(15)
H3_7 H 0.6961 0.7195 0.4778
C8_7 C 0.59949(19) 0.67872(12) 0.45702(16)
H4_7 H 0.5911 0.6817 0.4944
C9_7 C 0.47016(18) 0.57795(12) 0.40976(15)
H5_7 H 0.5042 0.5620 0.3934
C10_7 C 0.35625(17) 0.57814(11) 0.44136(13)
H6_7 H 0.3130 0.5624 0.4460
C11_7 C 0.3331(2) 0.42716(14) 0.3750(2)
H7_7 H 0.2861 0.4109 0.3591
O2_7 O 0.79830(14) 0.73768(10) 0.42515(12)
N1_7 N 0.21154(12) 0.70072(8) 0.53129(10)
O3_4 O 0.34006(15) 0.32770(10) 0.36091(12)
O4_7 O 0.46845(16) 0.33061(10) 0.37025(14)
C13_7 C 0.05451(17) 0.71330(12) 0.47261(13)
H9_7 H 0.0731 0.7161 0.5147
C14_7 C 0.06984(17) 0.69031(11) 0.37911(13)
H10_7 H 0.0988 0.6771 0.3562
C16_7 C 0.6268(2) 0.66989(14) 0.34742(16)
H12_7 H 0.6361 0.6664 0.3104
C17_7 C 0.36696(16) 0.62587(10) 0.45569(13)
C18_7 C 0.4722(2) 0.42546(14) 0.40983(18)
H13_4 H 0.5191 0.4089 0.4173
C19_7 C 0.25889(18) 0.73948(12) 0.64733(13)
H14_7 H 0.2139 0.7517 0.6193
C20_7 C 0.7465(2) 0.72077(12) 0.38223(18)
C21_7 C 0.67641(18) 0.69646(12) 0.39211(15)
C22_7 C 0.54863(18) 0.65188(12) 0.41158(16)
C23_7 C 0.5617(2) 0.64757(14) 0.35656(17)
H15_7 H 0.5274 0.6299 0.3255
C24_7 C 0.48211(17) 0.62623(11) 0.42333(15)
C25_7 C 0.40912(18) 0.55273(11) 0.41984(14)
C26_7 C 0.43027(17) 0.64951(11) 0.44801(14)
H16_7 H 0.4387 0.6815 0.4594
C27_7 C 0.4040(2) 0.50079(12) 0.40899(15)
C28_7 C 0.3340(2) 0.47716(14) 0.3863(2)
H17_7 H 0.2872 0.4939 0.3784
C29_7 C 0.4719(2) 0.47367(14) 0.42110(18)
H18_4 H 0.5197 0.4890 0.4377
C30_7 C 0.30840(15) 0.70978(10) 0.62815(12)
C31_7 C 0.41256(19) 0.34865(14) 0.37454(17)
C32_7 C 0.10286(16) 0.69570(10) 0.44144(12)
C33_7 C 0.27648(18) 0.75057(12) 0.70713(14)
H19_7 H 0.2424 0.7705 0.7188
C34_7 C 0.37631(16) 0.69511(12) 0.67203(13)
H20_7 H 0.4131 0.6768 0.6613
C35_7 C 0.38863(16) 0.70780(12) 0.73133(14)
H21_7 H 0.4340 0.6970 0.7603
O5_4 O 0.84006(15) 0.82770(10) 0.36091(12)
N4_3 N 0.94901(13) 0.72318(8) 0.38121(10)
C12_7 C 0.97960(18) 0.72652(12) 0.44165(14)
H8_7 H 0.9484 0.7384 0.4636
C15_7 C 0.99493(18) 0.70441(11) 0.35185(13)
H11_7 H 0.9743 0.7008 0.3100
O1_8 O 0.25012(12) 0.22242(9) 0.32839(11)
C7_8 C 0.16252(19) 0.20108(13) 0.44716(15)
H3_8 H 0.1961 0.2195 0.4778
C8_8 C 0.09949(19) 0.17872(12) 0.45702(16)
H4_8 H 0.0911 0.1817 0.4944
H5_8 H 0.0042 0.0620 0.3934
O2_8 O 0.29830(14) 0.23768(10) 0.42515(12)
C16_8 C 0.1268(2) 0.16989(14) 0.34742(16)
H12_8 H 0.1361 0.1664 0.3104
C20_8 C 0.2465(2) 0.22077(12) 0.38223(18)
C21_8 C 0.17641(18) 0.19646(12) 0.39211(15)
C22_8 C 0.04863(18) 0.15188(12) 0.41158(16)
C23_8 C 0.0617(2) 0.14757(14) 0.35656(17)
H15_8 H 0.0274 0.1299 0.3255
N4_4 N 0.44901(13) 0.22318(8) 0.38121(10)
C1_8 C 0.68600(16) 0.18383(10) 0.47474(13)
C2_8 C 0.78655(15) 0.19361(10) 0.56394(12)
C3_8 C 0.83959(16) 0.17127(10) 0.53938(13)
H1_8 H 0.8923 0.1691 0.5616
C4_8 C 0.73443(16) 0.15834(10) 0.44914(12)
H2_8 H 0.7145 0.1453 0.4104
C5_8 C 0.81208(16) 0.15272(10) 0.48199(13)
C9_8 C 0.97016(18) 0.07795(12) 0.40976(15)
C10_8 C 0.85625(17) 0.07814(11) 0.44136(13)
H6_8 H 0.8130 0.0624 0.4460
N1_8 N 0.71154(12) 0.20072(8) 0.53129(10)
C12_8 C 0.47960(18) 0.22652(12) 0.44165(14)
H8_8 H 0.4484 0.2384 0.4636
C13_8 C 0.55451(17) 0.21330(12) 0.47261(13)
H9_8 H 0.5731 0.2161 0.5147
C14_8 C 0.56984(17) 0.19031(11) 0.37911(13)
H10_8 H 0.5988 0.1771 0.3562
C15_8 C 0.49493(18) 0.20441(11) 0.35185(13)
H11_8 H 0.4743 0.2008 0.3100
C17_8 C 0.86696(16) 0.12587(10) 0.45569(13)
C19_8 C 0.75889(18) 0.23948(12) 0.64733(13)
H14_8 H 0.7139 0.2517 0.6193
C24_8 C 0.98211(17) 0.12623(11) 0.42333(15)
C25_8 C 0.90912(18) 0.05273(11) 0.41984(14)
C26_8 C 0.93027(17) 0.14951(11) 0.44801(14)
H16_8 H 0.9387 0.1815 0.4594
C27_8 C 0.9040(2) 0.00079(12) 0.40899(15)
C30_8 C 0.80840(15) 0.20978(10) 0.62815(12)
C32_8 C 0.60286(16) 0.19570(10) 0.44144(12)
C33_8 C 0.77648(18) 0.25057(12) 0.70713(14)
H19_8 H 0.7424 0.2705 0.7188
C34_8 C 0.87631(16) 0.19511(12) 0.67203(13)
H20_8 H 0.9131 0.1768 0.6613
C35_8 C 0.88863(16) 0.20780(12) 0.73133(14)
H21_8 H 0.9340 0.1970 0.7603
C6_8 C 0.9045(2) 0.90281(14) 0.38818(17)
C11_8 C 0.8331(2) 0.92716(14) 0.3750(2)
H7_8 H 0.7861 0.9109 0.3591
O4_8 O 0.96845(16) 0.83061(10) 0.37025(14)
C18_8 C 0.9722(2) 0.92546(14) 0.40983(18)
C28_8 C 0.8340(2) 0.97716(14) 0.3863(2)
H17_8 H 0.7872 0.9939 0.3784
C29_8 C 0.9719(2) 0.97367(14) 0.42110(18)
C31_8 C 0.91256(19) 0.84865(14) 0.37454(17)
H13_5 H 0.9809 0.0911 0.5827
H18_5 H 0.9803 0.0110 0.5623
H13_6 H 0.0191 0.0911 0.9173
H18_6 H 0.0197 0.0110 0.9377
H13_7 H 0.0191 0.9089 0.4173
H18_7 H 0.0197 0.9890 0.4377
H13_8 H 0.9809 0.9089 0.0827
H18_8 H 0.9803 0.9890 0.0623
loop_
_geom_bond_atom_site_label_1
_geom_bond_atom_site_label_2
_geom_bond_site_symmetry_1
_geom_bond_site_symmetry_2
C12 H8 1_555 1_555
H11 C15 1_555 1_555
N2 C12 1_555 1_555
Zn2 N2 1_555 1_555
C15 N2 1_555 1_555
C1 C4 1_555 1_555
C2 C3 1_555 1_555
C3 H1 1_555 1_555
C4 H2 1_555 1_555
C5 C3 1_555 1_555
C6 C11 1_555 1_555
Zn2 O1 1_555 1_555
O1 C20 1_555 1_555
C7 H3 1_555 1_555
C8 C7 1_555 1_555
H4 C8 1_555 1_555
C9 H5 1_555 1_555
C10 H6 1_555 1_555
C11 H7 1_555 1_555
O2 Zn2 1_555 1_555
N1 C1 1_555 1_555
O3 C31 1_555 1_555
O4 C31 1_555 1_555
H9 C13 1_555 1_555
C14 H10 1_555 1_555
C16 H12 1_555 1_555
C17 C5 1_555 1_555
C18 C6 1_555 1_555
H13 C18 1_555 1_555
C19 H14 1_555 1_555
C20 O2 1_555 1_555
C21 C7 1_555 1_555
C22 C8 1_555 1_555
C23 C16 1_555 1_555
H15 C23 1_555 1_555
C24 C9 1_555 1_555
C25 C9 1_555 1_555
C26 C17 1_555 1_555
H16 C26 1_555 1_555
C27 C25 1_555 1_555
C28 C11 1_555 1_555
H17 C28 1_555 1_555
C29 C18 1_555 1_555
H18 C29 1_555 1_555
C30 C2 1_555 1_555
C31 C6 1_555 1_555
C32 C1 1_555 1_555
N3 C33 1_555 1_555
C33 C19 1_555 1_555
H19 C33 1_555 1_555
C34 C30 1_555 1_555
H20 C34 1_555 1_555
C35 N3 1_555 1_555
H21 C35 1_555 1_555
Zn3 O3 1_555 1_555
Zn4 N3 1_555 1_555
O5 Zn2 1_555 1_555
N5 Zn2 1_555 1_555
C2 N1 1_555 1_555
C4 C5 1_555 1_555
C10 C17 1_555 1_555
C10 C25 1_555 1_555
C13 C32 1_555 1_555
C14 C32 1_555 1_555
C16 C21 1_555 1_555
C19 C30 1_555 1_555
C20 C21 1_555 1_555
C22 C23 1_555 1_555
C22 C24 1_555 1_555
C24 C26 1_555 1_555
C27 C28 1_555 1_555
C27 C29 1_555 1_555
C34 C35 1_555 1_555
C6_2 C11_2 1_555 1_555
C11_2 H7_2 1_555 1_555
O5 C31_2 1_555 1_555
O4_2 C31_2 1_555 1_555
C18_2 C6_2 1_555 1_555
C28_2 C11_2 1_555 1_555
H17_2 C28_2 1_555 1_555
C29_2 C18_2 1_555 1_555
C31_2 C6_2 1_555 1_555
C1_2 C4_2 1_555 1_555
C2_2 C3_2 1_555 1_555
C3_2 H1_2 1_555 1_555
C4_2 H2_2 1_555 1_555
C5_2 C3_2 1_555 1_555
C10_2 H6_2 1_555 1_555
N1_2 C1_2 1_555 1_555
C12_2 H8_2 1_555 1_555
C13_2 C12_2 1_555 1_555
H9_2 C13_2 1_555 1_555
C14_2 H10_2 1_555 1_555
C15_2 C14_2 1_555 1_555
H11_2 C15_2 1_555 1_555
C17_2 C5_2 1_555 1_555
C19_2 H14_2 1_555 1_555
N2_2 C12_2 1_555 1_555
C24_2 C9_2 1_555 1_555
C25_2 C9_2 1_555 1_555
C26_2 C17_2 1_555 1_555
H16_2 C26_2 1_555 1_555
C27_2 C25_2 1_555 1_555
C30_2 C2_2 1_555 1_555
C32_2 C1_2 1_555 1_555
N3_2 C33_2 1_555 1_555
C33_2 C19_2 1_555 1_555
H19_2 C33_2 1_555 1_555
C34_2 C30_2 1_555 1_555
H20_2 C34_2 1_555 1_555
C35_2 N3_2 1_555 1_555
H21_2 C35_2 1_555 1_555
Zn3 N2_2 1_555 1_555
Zn4_2 N3_2 1_555 1_555
C2_2 N1_2 1_555 1_555
C4_2 C5_2 1_555 1_555
C10_2 C17_2 1_555 1_555
C10_2 C25_2 1_555 1_555
C13_2 C32_2 1_555 1_555
C14_2 C32_2 1_555 1_555
C15_2 N2_2 1_555 1_555
C19_2 C30_2 1_555 1_555
C24_2 C26_2 1_555 1_555
C34_2 C35_2 1_555 1_555
Zn3 O1_2 1_555 1_555
O1_2 C20_2 1_555 1_555
C7_2 H3_2 1_555 1_555
C8_2 C7_2 1_555 1_555
H4_2 C8_2 1_555 1_555
O2_2 Zn3 1_555 1_555
C16_2 H12_2 1_555 1_555
C20_2 O2_2 1_555 1_555
C21_2 C7_2 1_555 1_555
C22_2 C8_2 1_555 1_555
C23_2 C16_2 1_555 1_555
H15_2 C23_2 1_555 1_555
N5_2 Zn3 1_555 1_555
C16_2 C21_2 1_555 1_555
C20_2 C21_2 1_555 1_555
C22_2 C23_2 1_555 1_555
C12_3 H8_3 1_555 1_555
H11_3 C15_3 1_555 1_555
N2_3 C12_3 1_555 1_555
Zn4_2 N2_3 1_555 1_555
C15_3 N2_3 1_555 1_555
C1_3 C4_3 1_555 1_555
C4_3 H2_3 1_555 1_555
C6_3 C11_3 1_555 1_555
Zn4_2 O1_3 1_555 1_555
O1_3 C20_3 1_555 1_555
C7_3 H3_3 1_555 1_555
C8_3 C7_3 1_555 1_555
H4_3 C8_3 1_555 1_555
C9_3 H5_3 1_555 1_555
C10_3 H6_3 1_555 1_555
C11_3 H7_3 1_555 1_555
O2_3 Zn4_2 1_555 1_555
O3_2 C31_3 1_555 1_555
O4_3 C31_3 1_555 1_555
C14_3 H10_3 1_555 1_555
C16_3 H12_3 1_555 1_555
C17_3 C5_3 1_555 1_555
C18_3 C6_3 1_555 1_555
H13_2 C18_3 1_555 1_555
C20_3 O2_3 1_555 1_555
C21_3 C7_3 1_555 1_555
C22_3 C8_3 1_555 1_555
C23_3 C16_3 1_555 1_555
H15_3 C23_3 1_555 1_555
C24_3 C9_3 1_555 1_555
C25_3 C9_3 1_555 1_555
C26_3 C17_3 1_555 1_555
H16_3 C26_3 1_555 1_555
C27_3 C25_3 1_555 1_555
C28_3 C11_3 1_555 1_555
H17_3 C28_3 1_555 1_555
C29_3 C18_3 1_555 1_555
H18_2 C29_3 1_555 1_555
C31_3 C6_3 1_555 1_555
C32_3 C1_3 1_555 1_555
Zn4 O3_2 1_555 1_555
O5_2 Zn4_2 1_555 1_555
C4_3 C5_3 1_555 1_555
C10_3 C17_3 1_555 1_555
C10_3 C25_3 1_555 1_555
C13_3 C32_3 1_555 1_555
C14_3 C32_3 1_555 1_555
C16_3 C21_3 1_555 1_555
C20_3 C21_3 1_555 1_555
C22_3 C23_3 1_555 1_555
C22_3 C24_3 1_555 1_555
C24_3 C26_3 1_555 1_555
C27_3 C28_3 1_555 1_555
C27_3 C29_3 1_555 1_555
C2_3 C3_3 1_555 1_555
C3_3 H1_3 1_555 1_555
C19_3 H14_3 1_555 1_555
C30_3 C2_3 1_555 1_555
N5_2 C33_3 1_555 1_555
C33_3 C19_3 1_555 1_555
H19_3 C33_3 1_555 1_555
C34_3 C30_3 1_555 1_555
H20_3 C34_3 1_555 1_555
C35_3 N5_2 1_555 1_555
H21_3 C35_3 1_555 1_555
C2_3 N1_3 1_555 1_555
C19_3 C30_3 1_555 1_555
C34_3 C35_3 1_555 1_555
C1_4 C4_4 1_555 1_555
C4_4 H2_4 1_555 1_555
C10_4 H6_4 1_555 1_555
C12_4 H8_4 1_555 1_555
C13_4 C12_4 1_555 1_555
C14_4 H10_4 1_555 1_555
C15_4 C14_4 1_555 1_555
H11_4 C15_4 1_555 1_555
C17_4 C5_4 1_555 1_555
N2_4 C12_4 1_555 1_555
C24_4 C9_4 1_555 1_555
C25_4 C9_4 1_555 1_555
C26_4 C17_4 1_555 1_555
H16_4 C26_4 1_555 1_555
C27_4 C25_4 1_555 1_555
C32_4 C1_4 1_555 1_555
Zn4 N2_4 1_555 1_555
C4_4 C5_4 1_555 1_555
C10_4 C17_4 1_555 1_555
C10_4 C25_4 1_555 1_555
C13_4 C32_4 1_555 1_555
C14_4 C32_4 1_555 1_555
C15_4 N2_4 1_555 1_555
C24_4 C26_4 1_555 1_555
C2_4 C3_4 1_555 1_555
C3_4 H1_4 1_555 1_555
C19_4 H14_4 1_555 1_555
C30_4 C2_4 1_555 1_555
N5 C33_4 1_555 1_555
C33_4 C19_4 1_555 1_555
H19_4 C33_4 1_555 1_555
C34_4 C30_4 1_555 1_555
H20_4 C34_4 1_555 1_555
C35_4 N5 1_555 1_555
H21_4 C35_4 1_555 1_555
C2_4 N1_4 1_555 1_555
C19_4 C30_4 1_555 1_555
C34_4 C35_4 1_555 1_555
C6_4 C11_4 1_555 1_555
C11_4 H7_4 1_555 1_555
O5_2 C31_4 1_555 1_555
O4_4 C31_4 1_555 1_555
C18_4 C6_4 1_555 1_555
C28_4 C11_4 1_555 1_555
H17_4 C28_4 1_555 1_555
C29_4 C18_4 1_555 1_555
C31_4 C6_4 1_555 1_555
Zn4 O1_4 1_555 1_555
O1_4 C20_4 1_555 1_555
C7_4 H3_4 1_555 1_555
C8_4 C7_4 1_555 1_555
H4_4 C8_4 1_555 1_555
O2_4 Zn4 1_555 1_555
C16_4 H12_4 1_555 1_555
C20_4 O2_4 1_555 1_555
C21_4 C7_4 1_555 1_555
C22_4 C8_4 1_555 1_555
C23_4 C16_4 1_555 1_555
H15_4 C23_4 1_555 1_555
C16_4 C21_4 1_555 1_555
C20_4 C21_4 1_555 1_555
C22_4 C23_4 1_555 1_555
C2_5 C3_5 1_555 1_555
C3_5 H1_5 1_555 1_555
C19_5 H14_5 1_555 1_555
C30_5 C2_5 1_555 1_555
N3_3 C33_5 1_555 1_555
C33_5 C19_5 1_555 1_555
H19_5 C33_5 1_555 1_555
C34_5 C30_5 1_555 1_555
H20_5 C34_5 1_555 1_555
C35_5 N3_3 1_555 1_555
H21_5 C35_5 1_555 1_555
Zn4_3 N3_3 1_555 1_555
C2_5 N1_5 1_555 1_555
C19_5 C30_5 1_555 1_555
C34_5 C35_5 1_555 1_555
C1_5 C4_5 1_555 1_555
C4_5 H2_5 1_555 1_555
C6_5 C11_5 1_555 1_555
Zn1 O1_5 1_555 1_555
O1_5 C20_5 1_555 1_555
C7_5 H3_5 1_555 1_555
C8_5 C7_5 1_555 1_555
H4_5 C8_5 1_555 1_555
C9_5 H5_5 1_555 1_555
C10_5 H6_5 1_555 1_555
C11_5 H7_5 1_555 1_555
O2_5 Zn1 1_555 1_555
O3_3 C31_5 1_555 1_555
O4_5 C31_5 1_555 1_555
C14_5 H10_5 1_555 1_555
C16_5 H12_5 1_555 1_555
C17_5 C5_5 1_555 1_555
C18_5 C6_5 1_555 1_555
H13_3 C18_5 1_555 1_555
C20_5 O2_5 1_555 1_555
C21_5 C7_5 1_555 1_555
C22_5 C8_5 1_555 1_555
C23_5 C16_5 1_555 1_555
H15_5 C23_5 1_555 1_555
C24_5 C9_5 1_555 1_555
C25_5 C9_5 1_555 1_555
C26_5 C17_5 1_555 1_555
H16_5 C26_5 1_555 1_555
C27_5 C25_5 1_555 1_555
C28_5 C11_5 1_555 1_555
H17_5 C28_5 1_555 1_555
C29_5 C18_5 1_555 1_555
H18_3 C29_5 1_555 1_555
C31_5 C6_5 1_555 1_555
C32_5 C1_5 1_555 1_555
Zn3_2 O3_3 1_555 1_555
O5_3 Zn1 1_555 1_555
N4 Zn1 1_555 1_555
N5_3 Zn1 1_555 1_555
C4_5 C5_5 1_555 1_555
C10_5 C17_5 1_555 1_555
C10_5 C25_5 1_555 1_555
C13_5 C32_5 1_555 1_555
C14_5 C32_5 1_555 1_555
C16_5 C21_5 1_555 1_555
C20_5 C21_5 1_555 1_555
C22_5 C23_5 1_555 1_555
C22_5 C24_5 1_555 1_555
C24_5 C26_5 1_555 1_555
C27_5 C28_5 1_555 1_555
C27_5 C29_5 1_555 1_555
C12_5 H8_5 1_555 1_555
H11_5 C15_5 1_555 1_555
N4 C12_5 1_555 1_555
C15_5 N4 1_555 1_555
Zn3_2 O1_6 1_555 1_555
O1_6 C20_6 1_555 1_555
C7_6 H3_6 1_555 1_555
C8_6 C7_6 1_555 1_555
H4_6 C8_6 1_555 1_555
O2_6 Zn3_2 1_555 1_555
C16_6 H12_6 1_555 1_555
C20_6 O2_6 1_555 1_555
C21_6 C7_6 1_555 1_555
C22_6 C8_6 1_555 1_555
C23_6 C16_6 1_555 1_555
H15_6 C23_6 1_555 1_555
N4_2 Zn3_2 1_555 1_555
N5_4 Zn3_2 1_555 1_555
C16_6 C21_6 1_555 1_555
C20_6 C21_6 1_555 1_555
C22_6 C23_6 1_555 1_555
C6_6 C11_6 1_555 1_555
C11_6 H7_6 1_555 1_555
O5_3 C31_6 1_555 1_555
O4_6 C31_6 1_555 1_555
C18_6 C6_6 1_555 1_555
C28_6 C11_6 1_555 1_555
H17_6 C28_6 1_555 1_555
C29_6 C18_6 1_555 1_555
C31_6 C6_6 1_555 1_555
C2_6 C3_6 1_555 1_555
C3_6 H1_6 1_555 1_555
C19_6 H14_6 1_555 1_555
C30_6 C2_6 1_555 1_555
N3_4 C33_6 1_555 1_555
C33_6 C19_6 1_555 1_555
H19_6 C33_6 1_555 1_555
C34_6 C30_6 1_555 1_555
H20_6 C34_6 1_555 1_555
C35_6 N3_4 1_555 1_555
H21_6 C35_6 1_555 1_555
Zn4_4 N3_4 1_555 1_555
C2_6 N1_6 1_555 1_555
C19_6 C30_6 1_555 1_555
C34_6 C35_6 1_555 1_555
C1_6 C4_6 1_555 1_555
C4_6 H2_6 1_555 1_555
C10_6 H6_6 1_555 1_555
C12_6 H8_6 1_555 1_555
C13_6 C12_6 1_555 1_555
C14_6 H10_6 1_555 1_555
C15_6 C14_6 1_555 1_555
H11_6 C15_6 1_555 1_555
C17_6 C5_6 1_555 1_555
N4_2 C12_6 1_555 1_555
C24_6 C9_6 1_555 1_555
C25_6 C9_6 1_555 1_555
C26_6 C17_6 1_555 1_555
H16_6 C26_6 1_555 1_555
C27_6 C25_6 1_555 1_555
C32_6 C1_6 1_555 1_555
C4_6 C5_6 1_555 1_555
C10_6 C17_6 1_555 1_555
C10_6 C25_6 1_555 1_555
C13_6 C32_6 1_555 1_555
C14_6 C32_6 1_555 1_555
C15_6 N4_2 1_555 1_555
C24_6 C26_6 1_555 1_555
C1_7 C4_7 1_555 1_555
C2_7 C3_7 1_555 1_555
C3_7 H1_7 1_555 1_555
C4_7 H2_7 1_555 1_555
C5_7 C3_7 1_555 1_555
C6_7 C11_7 1_555 1_555
Zn4_4 O1_7 1_555 1_555
O1_7 C20_7 1_555 1_555
C7_7 H3_7 1_555 1_555
C8_7 C7_7 1_555 1_555
H4_7 C8_7 1_555 1_555
C9_7 H5_7 1_555 1_555
C10_7 H6_7 1_555 1_555
C11_7 H7_7 1_555 1_555
O2_7 Zn4_4 1_555 1_555
N1_7 C1_7 1_555 1_555
O3_4 C31_7 1_555 1_555
O4_7 C31_7 1_555 1_555
H9_7 C13_7 1_555 1_555
C14_7 H10_7 1_555 1_555
C16_7 H12_7 1_555 1_555
C17_7 C5_7 1_555 1_555
C18_7 C6_7 1_555 1_555
H13_4 C18_7 1_555 1_555
C19_7 H14_7 1_555 1_555
C20_7 O2_7 1_555 1_555
C21_7 C7_7 1_555 1_555
C22_7 C8_7 1_555 1_555
C23_7 C16_7 1_555 1_555
H15_7 C23_7 1_555 1_555
C24_7 C9_7 1_555 1_555
C25_7 C9_7 1_555 1_555
C26_7 C17_7 1_555 1_555
H16_7 C26_7 1_555 1_555
C27_7 C25_7 1_555 1_555
C28_7 C11_7 1_555 1_555
H17_7 C28_7 1_555 1_555
C29_7 C18_7 1_555 1_555
H18_4 C29_7 1_555 1_555
C30_7 C2_7 1_555 1_555
C31_7 C6_7 1_555 1_555
C32_7 C1_7 1_555 1_555
N5_4 C33_7 1_555 1_555
C33_7 C19_7 1_555 1_555
H19_7 C33_7 1_555 1_555
C34_7 C30_7 1_555 1_555
H20_7 C34_7 1_555 1_555
C35_7 N5_4 1_555 1_555
H21_7 C35_7 1_555 1_555
Zn4_3 O3_4 1_555 1_555
O5_4 Zn4_4 1_555 1_555
N4_3 Zn4_4 1_555 1_555
C2_7 N1_7 1_555 1_555
C4_7 C5_7 1_555 1_555
C10_7 C17_7 1_555 1_555
C10_7 C25_7 1_555 1_555
C13_7 C32_7 1_555 1_555
C14_7 C32_7 1_555 1_555
C16_7 C21_7 1_555 1_555
C19_7 C30_7 1_555 1_555
C20_7 C21_7 1_555 1_555
C22_7 C23_7 1_555 1_555
C22_7 C24_7 1_555 1_555
C24_7 C26_7 1_555 1_555
C27_7 C28_7 1_555 1_555
C27_7 C29_7 1_555 1_555
C34_7 C35_7 1_555 1_555
C12_7 H8_7 1_555 1_555
H11_7 C15_7 1_555 1_555
N4_3 C12_7 1_555 1_555
C15_7 N4_3 1_555 1_555
Zn4_3 O1_8 1_555 1_555
O1_8 C20_8 1_555 1_555
C7_8 H3_8 1_555 1_555
C8_8 C7_8 1_555 1_555
H4_8 C8_8 1_555 1_555
O2_8 Zn4_3 1_555 1_555
C16_8 H12_8 1_555 1_555
C20_8 O2_8 1_555 1_555
C21_8 C7_8 1_555 1_555
C22_8 C8_8 1_555 1_555
C23_8 C16_8 1_555 1_555
H15_8 C23_8 1_555 1_555
N4_4 Zn4_3 1_555 1_555
C16_8 C21_8 1_555 1_555
C20_8 C21_8 1_555 1_555
C22_8 C23_8 1_555 1_555
C1_8 C4_8 1_555 1_555
C2_8 C3_8 1_555 1_555
C3_8 H1_8 1_555 1_555
C4_8 H2_8 1_555 1_555
C5_8 C3_8 1_555 1_555
C10_8 H6_8 1_555 1_555
N1_8 C1_8 1_555 1_555
C12_8 H8_8 1_555 1_555
C13_8 C12_8 1_555 1_555
H9_8 C13_8 1_555 1_555
C14_8 H10_8 1_555 1_555
C15_8 C14_8 1_555 1_555
H11_8 C15_8 1_555 1_555
C17_8 C5_8 1_555 1_555
C19_8 H14_8 1_555 1_555
N4_4 C12_8 1_555 1_555
C24_8 C9_8 1_555 1_555
C25_8 C9_8 1_555 1_555
C26_8 C17_8 1_555 1_555
H16_8 C26_8 1_555 1_555
C27_8 C25_8 1_555 1_555
C30_8 C2_8 1_555 1_555
C32_8 C1_8 1_555 1_555
N5_3 C33_8 1_555 1_555
C33_8 C19_8 1_555 1_555
H19_8 C33_8 1_555 1_555
C34_8 C30_8 1_555 1_555
H20_8 C34_8 1_555 1_555
C35_8 N5_3 1_555 1_555
H21_8 C35_8 1_555 1_555
C2_8 N1_8 1_555 1_555
C4_8 C5_8 1_555 1_555
C10_8 C17_8 1_555 1_555
C10_8 C25_8 1_555 1_555
C13_8 C32_8 1_555 1_555
C14_8 C32_8 1_555 1_555
C15_8 N4_4 1_555 1_555
C19_8 C30_8 1_555 1_555
C24_8 C26_8 1_555 1_555
C34_8 C35_8 1_555 1_555
C6_8 C11_8 1_555 1_555
C11_8 H7_8 1_555 1_555
O5_4 C31_8 1_555 1_555
O4_8 C31_8 1_555 1_555
C18_8 C6_8 1_555 1_555
C28_8 C11_8 1_555 1_555
H17_8 C28_8 1_555 1_555
C29_8 C18_8 1_555 1_555
C31_8 C6_8 1_555 1_555

#END
