
###############################################################################
#
# This file contains modified crystal structure data generated from the
# MOF subset of the Cambridge Structural Database (CSD) v543 
# hosted by the Cambridge Crystallographic Data Centre (CCDC).
#
# This work is licensed under the Creative Commons
# Attribution-NonCommercial-ShareAlike 4.0 International License.
# To view a copy of this license, visit
# http://creativecommons.org/licenses/by-nc-sa/4.0/
# or send a letter to
# Creative Commons, PO Box 1866, Mountain View, CA 94042, USA.
#
# CIF created using the CSD Python API on 29 September 2022
# The structure has been converted into the P1 space group
# The structure has a 3D framework
# The original CSD entry QUBZAP is in the rhombohedral crystal system
# The original CSD entry QUBZAP is in a Sohncke space group
# The framework has been calculated to contain at least 10.0% void space
# The void calculation uses a probe of radius 1.32A, grid spacing 0.4
# The framework is charged, counterions have been retained in the structure
# H atom positions have been added when not included in the experimental data
# Generated hydrogen atom positions removed from atoms on special positions
#
###############################################################################

data_QUBZAP
_chemical_formula_moiety         '(C144 H180 Ag34 Cl27 N90 O124 4+)n'
_symmetry_cell_setting           triclinic
_symmetry_space_group_name_H-M   'P 1'
_symmetry_Int_Tables_number      1
_space_group_name_Hall           'P 1'
loop_
_symmetry_equiv_pos_site_id
_symmetry_equiv_pos_as_xyz
1 x,y,z
_cell_length_a                   18.5055(14)
_cell_length_b                   18.5055(14)
_cell_length_c                   22.556(2)
_cell_angle_alpha                90
_cell_angle_beta                 90
_cell_angle_gamma                120
_cell_volume                     6689.51
loop_
_atom_site_label
_atom_site_type_symbol
_atom_site_fract_x
_atom_site_fract_y
_atom_site_fract_z
N6 N 0.0516(5) 0.3503(5) 0.7216(4)
H11 H 0.0951 0.3546 0.7405
H12 H 0.0411 0.3917 0.7224
C12 C 0.0020(6) 0.2818(5) 0.6921(4)
N8 N 0.0200(5) 0.2181(5) 0.6918(3)
Cl2 Cl 0.0001 0.0000 0.54371(19)
O8 O 0.0001 0.0000 0.4820(7)
Ag5 Ag 0.18665(4) 0.41286(6) 0.01238(3)
N12 N 0.5187(5) 0.4816(6) 0.1298(3)
C18 C 0.3334(6) 0.3809(8) 0.0456(4)
C20 C 0.5846(5) 0.5471(8) 0.1655(4)
H18 H 0.5788 0.5975 0.1645
H20 H 0.6395 0.5621 0.1481
N14 N 0.4503(4) 0.3582(6) 0.0846(4)
N16 N 0.2412(4) 0.2163(4) 0.7512(4)
O13 O 0.4931(4) 0.4665(6) 0.3125(3)
O14 O 0.2002(6) 0.3600(4) 0.6458(3)
N18 N 0.2856(5) 0.3087(7) 0.0185(4)
H22 H 0.2394 0.2994 0.0007
H24 H 0.3001 0.2701 0.0183
C22 C 0.5022(6) 0.4989(8) 0.2624(4)
C24 C 0.4519(6) 0.4790(8) 0.1031(4)
C26 C 0.5817(5) 0.5198(8) 0.2298(4)
H26 H 0.5888 0.4702 0.2303
H28 H 0.6295 0.5651 0.2514
C28 C 0.4088(6) 0.4025(8) 0.0754(4)
N20 N 0.4288(4) 0.5381(6) 0.1017(3)
N21 N 0.1286(6) 0.2241(5) 0.4350(3)
N22 N 0.1092(5) 0.5712(4) 0.1017(3)
Ag11 Ag 0.14064(4) 0.23421(4) 0.71852(3)
Ag12 Ag 0.09912(4) 0.57309(6) 0.38519(3)
Ag14 Ag 0.43245(4) 0.23976(6) 0.05186(3)
Ag15 Ag 0.42691(6) 0.52603(4) 0.38519(3)
C29 C 0.1798(7) 0.2811(10) 0.1706(4)
H29 H 0.2234 0.2790 0.1466
H31 H 0.1265 0.2289 0.1632
O15 O 0.2145(5) 0.4247(7) 0.1731(3)
O18 O 0.1182(6) 0.3433(8) 0.1112(4)
C31 C 0.1710(8) 0.3554(10) 0.1500(5)
Ag16 Ag 0.33060(5) 0.48406(6) 0.26535(3)
Ag19 Ag 0.18261(6) 0.17988(4) 0.59868(3)
Ag21 Ag 0.00370(7) 0.16460(5) 0.47339(3)
Ag22 Ag 0.16873(5) 0.50577(5) 0.14006(3)
Ag25 Ag 0.49423(5) 0.66297(7) 0.14006(3)
O23 O 0.4545(4) 0.5190(6) 0.2372(3)
C34 C 0.3577(6) 0.5136(8) 0.0727(4)
H34 H 0.3383 0.5524 0.0710
C35 C 0.0610(5) 0.2257(8) 0.2844(4)
H35 H 0.0416 0.1711 0.2694
C37 C 0.0657(5) 0.3293(7) 0.3285(4)
N23 N 0.0149(5) 0.2445(7) 0.3165(3)
C39 C 0.0515(5) 0.3869(8) 0.3588(4)
C41 C 0.1414(6) 0.3578(8) 0.3012(4)
N28 N 0.2064(5) 0.4368(7) 0.3025(4)
N30 N 0.1152(5) 0.4686(7) 0.3585(3)
N33 N 0.1384(5) 0.2892(7) 0.2737(3)
C43 C 0.1868(6) 0.4884(8) 0.3321(4)
H41 H 0.2294 0.5453 0.3343
C45 C 0.2023(6) 0.2848(8) 0.2366(4)
H43 H 0.2055 0.2346 0.2473
H45 H 0.2576 0.3345 0.2439
C48 C 0.5134(5) 0.4062(7) 0.1172(4)
H48 H 0.5524 0.3910 0.1313
N36 N 0.3104(5) 0.4398(7) 0.0456(3)
O26 O 0.0803(6) 0.5293(5) 0.6492(3)
Cl4 Cl 0.19655(18) 0.34802(17) 0.84779(12)
O28 O 0.2097(5) 0.3754(5) 0.7860(3)
O30 O 0.2160(5) 0.4177(5) 0.8843(3)
O32 O 0.2498(5) 0.3160(5) 0.8657(3)
O34 O 0.1124(6) 0.2808(5) 0.8550(4)
O36 O 0.0282(7) 0.0825(5) 0.5655(4)
O37 O 0.3876(5) 0.6385(7) 0.2322(4)
O38 O 0.2508(5) 0.6124(5) 0.2322(4)
N25 N 0.0889(7) 0.4371(5) 0.9831(3)
O25 O 0.1157(4) 0.2531(6) 0.9826(3)
Cl2_2 Cl 0.0001 1.0000 0.54371(19)
O8_2 O 0.0001 1.0000 0.4820(7)
Ag23 Ag 0.16090(5) 0.99630(7) 0.47339(3)
O35 O 0.0543(5) 0.9718(7) 0.5655(4)
Ag1 Ag 0.89287(4) 0.14668(4) 0.34571(3)
N3 N 0.6897(5) 0.0477(5) 0.3518(4)
H3 H 0.7266 0.0939 0.3340
H4 H 0.6366 0.0332 0.3516
C7 C 0.7679(7) 0.1535(7) 0.5039(4)
H7 H 0.7222 0.1099 0.4799
H8 H 0.7690 0.2068 0.4965
O2 O 0.8768(5) 0.1188(5) 0.5064(3)
O3 O 0.8917(5) 0.2151(6) 0.4445(4)
C8 C 0.8510(6) 0.1623(8) 0.4833(5)
Ag3 Ag 0.82012(4) 0.00273(5) 0.59868(3)
C10 C 0.8313(6) 0.2723(5) 0.6177(4)
H10 H 0.7961 0.2917 0.6027
C11 C 0.9302(5) 0.2676(5) 0.6618(4)
N5 N 0.8962(5) 0.3184(5) 0.6498(3)
C13 C 0.8830(5) 0.1919(6) 0.6345(4)
N7 N 0.8970(5) 0.1269(5) 0.6358(4)
N9 N 0.8174(5) 0.1949(5) 0.6070(3)
C14 C 0.9682(5) 0.1465(6) 0.6654(4)
H13 H 0.9825 0.1039 0.6676
C15 C 0.7491(6) 0.1310(6) 0.5699(4)
H14 H 0.6957 0.1278 0.5806
H15 H 0.7435 0.0757 0.5772
N10 N 0.7960(5) 0.0229(5) 0.3789(3)
O5 O 0.8040(5) 0.2176(4) 0.3159(3)
Cl1 Cl 0.52988(18) 0.01469(17) 0.51446(12)
O6 O 0.5430(5) 0.0421(5) 0.4527(3)
O7 O 0.5493(5) 0.0844(5) 0.5510(3)
Ag6 Ag 0.92048(6) 0.44046(4) 0.67904(3)
Ag9 Ag 0.25381(6) 0.10713(4) 0.34571(3)
N11 N 0.5184(6) 0.0372(4) 0.1298(3)
C19 C 0.4529(8) 0.0376(6) 0.1655(4)
H19 H 0.4379 0.0775 0.1481
N13 N 0.6418(6) 0.0922(4) 0.0846(4)
N15 N 0.7837(4) 0.0248(6) 0.7512(4)
O12 O 0.5335(6) 0.0267(4) 0.3125(3)
H23 H 0.7299 0.0301 0.0183
C21 C 0.5011(8) 0.0034(6) 0.2624(4)
C25 C 0.4802(8) 0.0620(6) 0.2298(4)
H25 H 0.5298 0.1187 0.2303
H27 H 0.4349 0.0645 0.2514
C27 C 0.5975(8) 0.0064(6) 0.0754(4)
Ag13 Ag 0.76024(6) 0.19270(4) 0.05186(3)
O21 O 0.9901(8) 0.4416(5) 0.7778(4)
N26 N 0.9830(5) 0.3680(7) 0.3883(4)
N27 N 0.3849(5) 0.0170(5) 0.3883(4)
H37 H 0.9787 0.4072 0.4072
H38 H 0.4284 0.0213 0.4072
H39 H 0.9416 0.3161 0.3891
H40 H 0.3744 0.0584 0.3891
C47 C 0.5938(7) 0.1073(5) 0.1172(4)
H47 H 0.6090 0.1615 0.1313
N37 N 0.8936(7) 0.5373(5) 0.7122(3)
N1 N 0.6295(4) 0.8146(5) 0.4631(3)
C1 C 0.7141(6) 0.9999(6) 0.3789(4)
C2 C 0.6291(6) 0.7487(5) 0.4988(4)
H1 H 0.6853 0.7545 0.4978
H2 H 0.5892 0.6938 0.4814
N2 N 0.5745(4) 0.8830(4) 0.4179(4)
O1 O 0.6400(4) 0.8402(4) 0.6458(3)
C3 C 0.6633(6) 0.8311(6) 0.5957(4)
C4 C 0.6937(5) 0.8814(6) 0.4364(4)
C5 C 0.6047(6) 0.7516(5) 0.5631(4)
H5 H 0.5480 0.7445 0.5636
H6 H 0.6022 0.7038 0.5847
C6 C 0.6603(6) 0.9245(6) 0.4087(4)
N4 N 0.7759(5) 0.9045(4) 0.4350(3)
Ag2 Ag 0.47397(4) 0.90088(4) 0.38519(3)
Ag4 Ag 0.83540(5) 0.83910(5) 0.47339(3)
O4 O 0.7311(4) 0.8788(4) 0.5705(3)
C9 C 0.8225(6) 0.9756(6) 0.4060(4)
H9 H 0.8807 0.9950 0.4043
C16 C 0.5594(5) 0.8199(5) 0.4505(4)
H16 H 0.5052 0.7809 0.4646
O9 O 0.5831(5) 0.9827(5) 0.5324(3)
O10 O 0.4457(6) 0.9475(5) 0.5217(4)
O11 O 0.9175(5) 0.9457(5) 0.5655(4)
Ag7 Ag 0.58714(6) 0.77380(4) 0.01238(3)
Ag8 Ag 0.22620(4) 0.81335(4) 0.01238(3)
C17 C 0.6191(8) 0.9526(6) 0.0456(4)
H17 H 0.4025 0.9814 0.1645
N17 N 0.6913(7) 0.9770(5) 0.0185(4)
H21 H 0.7006 0.9401 0.0007
C23 C 0.5210(8) 0.9730(5) 0.1031(4)
N19 N 0.4619(6) 0.8908(5) 0.1017(3)
Ag10 Ag 0.76579(4) 0.90642(6) 0.71852(3)
C30 C 0.1012(7) 0.8202(7) 0.1706(4)
H30 H 0.0555 0.7766 0.1466
H32 H 0.1023 0.8735 0.1632
O16 O 0.2101(5) 0.7855(5) 0.1731(3)
O17 O 0.8812(5) 0.7580(7) 0.5064(3)
O19 O 0.2250(5) 0.8818(6) 0.1112(4)
O20 O 0.7849(6) 0.6766(8) 0.4445(4)
C32 C 0.1843(6) 0.8290(8) 0.1500(5)
Ag17 Ag 0.15345(4) 0.66940(5) 0.26535(3)
Ag18 Ag 0.99727(5) 0.81739(6) 0.59868(3)
Ag20 Ag 0.51594(6) 0.84655(4) 0.26535(3)
Ag24 Ag 0.33703(7) 0.83127(5) 0.14006(3)
O22 O 0.4810(6) 0.9356(4) 0.2372(3)
O24 O 0.0644(4) 0.5455(4) 0.2372(3)
C33 C 0.4864(8) 0.8442(6) 0.0727(4)
H33 H 0.4476 0.7860 0.0710
C36 C 0.1646(6) 0.9390(5) 0.2844(4)
H36 H 0.1294 0.9584 0.2694
C38 C 0.2635(5) 0.9343(5) 0.3285(4)
N24 N 0.2295(5) 0.9851(5) 0.3165(3)
C40 C 0.3353(6) 0.9485(5) 0.3588(4)
C42 C 0.2163(5) 0.8586(6) 0.3012(4)
N29 N 0.2303(5) 0.7936(5) 0.3025(4)
N31 N 0.3533(5) 0.8848(5) 0.3585(3)
N32 N 0.7819(5) 0.8019(7) 0.6918(3)
N34 N 0.1507(5) 0.8616(5) 0.2737(3)
C44 C 0.3015(5) 0.8132(6) 0.3321(4)
H42 H 0.3158 0.7706 0.3343
C46 C 0.0824(6) 0.7977(6) 0.2366(4)
H44 H 0.0290 0.7945 0.2473
H46 H 0.0768 0.7424 0.2439
N35 N 0.5602(7) 0.8707(5) 0.0456(3)
Cl3 Cl 0.65198(17) 0.84852(25) 0.84779(12)
O27 O 0.6246(5) 0.8342(7) 0.7860(3)
O29 O 0.5823(5) 0.7982(7) 0.8843(3)
O31 O 0.6840(5) 0.9337(7) 0.8657(3)
O33 O 0.7192(5) 0.8315(8) 0.8550(4)
O17_2 O 0.2420(7) 0.1232(9) 0.5064(3)
O20_2 O 0.3234(8) 0.1083(10) 0.4445(4)
N1_2 N 0.1854(5) 0.8149(6) 0.4631(3)
C1_2 C 0.0001(6) 0.7142(8) 0.3789(4)
C2_2 C 0.2513(5) 0.8804(8) 0.4988(4)
H1_2 H 0.2455 0.9308 0.4978
H2_2 H 0.3062 0.8954 0.4814
N2_2 N 0.1170(4) 0.6915(6) 0.4179(4)
O1_2 O 0.1598(4) 0.7998(6) 0.6458(3)
C3_2 C 0.1689(6) 0.8322(8) 0.5957(4)
C4_2 C 0.1186(6) 0.8123(8) 0.4364(4)
C5_2 C 0.2484(5) 0.8531(8) 0.5631(4)
H5_2 H 0.2555 0.8035 0.5636
H6_2 H 0.2962 0.8984 0.5847
C6_2 C 0.0755(6) 0.7358(8) 0.4087(4)
N4_2 N 0.0955(4) 0.8714(6) 0.4350(3)
O4_2 O 0.1212(4) 0.8523(6) 0.5705(3)
C9_2 C 0.0244(6) 0.8469(8) 0.4060(4)
H9_2 H 0.0050 0.8857 0.4043
C16_2 C 0.1801(5) 0.7395(7) 0.4505(4)
H16_2 H 0.2191 0.7243 0.4646
O9_2 O 0.0173(5) 0.6004(7) 0.5324(3)
O10_2 O 0.0525(5) 0.4982(8) 0.5217(4)
C17_2 C 0.0474(6) 0.6666(10) 0.0456(4)
H17_2 H 0.0186 0.4212 0.1645
N17_2 N 0.0230(5) 0.7144(9) 0.0185(4)
H21_2 H 0.0599 0.7606 0.0007
C23_2 C 0.0270(5) 0.5481(9) 0.1031(4)
Ag10_2 Ag 0.09358(6) 0.85936(7) 0.71852(3)
C33_2 C 0.1558(6) 0.6423(10) 0.0727(4)
H33_2 H 0.2140 0.6617 0.0710
N32_2 N 0.1981(7) 0.9800(9) 0.6918(3)
N35_2 N 0.1293(5) 0.6896(9) 0.0456(3)
Cl3_2 Cl 0.15148(25) 0.80345(30) 0.84779(12)
O27_2 O 0.1658(7) 0.7903(9) 0.7860(3)
O29_2 O 0.2018(7) 0.7840(9) 0.8843(3)
O31_2 O 0.0663(7) 0.7502(9) 0.8657(3)
O33_2 O 0.1685(8) 0.8876(9) 0.8550(4)
Cl2_3 Cl 1.0000 0.0001 0.54371(19)
O8_3 O 1.0000 0.0001 0.4820(7)
Ag1_2 Ag 0.85332(4) 0.74619(6) 0.34571(3)
N3_2 N 0.9523(5) 0.6420(7) 0.3518(4)
H3_2 H 0.9061 0.6327 0.3340
H4_2 H 0.9668 0.6034 0.3516
C7_2 C 0.8465(7) 0.6144(10) 0.5039(4)
H7_2 H 0.8901 0.6123 0.4799
H8_2 H 0.7932 0.5622 0.4965
C8_2 C 0.8377(8) 0.6887(10) 0.4833(5)
C10_2 C 0.7277(5) 0.5590(8) 0.6177(4)
H10_2 H 0.7083 0.5044 0.6027
C11_2 C 0.7324(5) 0.6626(7) 0.6618(4)
N5_2 N 0.6816(5) 0.5778(7) 0.6498(3)
N6_2 N 0.6497(5) 0.7013(7) 0.7216(4)
H11_2 H 0.6454 0.7405 0.7405
H12_2 H 0.6083 0.6494 0.7224
C12_2 C 0.7182(5) 0.7202(8) 0.6921(4)
C13_2 C 0.8081(6) 0.6911(8) 0.6345(4)
N7_2 N 0.8731(5) 0.7701(7) 0.6358(4)
N9_2 N 0.8051(5) 0.6225(7) 0.6070(3)
C14_2 C 0.8535(6) 0.8217(8) 0.6654(4)
H13_2 H 0.8961 0.8786 0.6676
C15_2 C 0.8690(6) 0.6181(8) 0.5699(4)
H14_2 H 0.8722 0.5679 0.5806
H15_2 H 0.9243 0.6678 0.5772
N10_2 N 0.9771(5) 0.7731(7) 0.3789(3)
O5_2 O 0.7824(4) 0.5864(6) 0.3159(3)
Cl1_2 Cl 0.98531(17) 0.51519(25) 0.51446(12)
O6_2 O 0.9579(5) 0.5009(7) 0.4527(3)
O7_2 O 0.9156(5) 0.4649(7) 0.5510(3)
Ag6_2 Ag 0.55954(4) 0.48001(7) 0.67904(3)
N11_2 N 0.9628(4) 0.4813(7) 0.1298(3)
C19_2 C 0.9624(6) 0.4154(10) 0.1655(4)
H19_2 H 0.9225 0.3605 0.1481
N13_2 N 0.9078(4) 0.5497(7) 0.0846(4)
N15_2 N 0.9752(6) 0.7588(7) 0.7512(4)
O12_2 O 0.9733(4) 0.5069(7) 0.3125(3)
H23_2 H 0.9699 0.6999 0.0183
C21_2 C 0.9966(6) 0.4978(10) 0.2624(4)
C25_2 C 0.9380(6) 0.4183(10) 0.2298(4)
H25_2 H 0.8813 0.4112 0.2303
H27_2 H 0.9355 0.3705 0.2514
C27_2 C 0.9936(6) 0.5912(10) 0.0754(4)
Ag13_2 Ag 0.80730(4) 0.56755(7) 0.05186(3)
C29_2 C 0.7189(10) 0.8988(12) 0.1706(4)
H29_2 H 0.7210 0.9445 0.1466
H31_2 H 0.7711 0.8977 0.1632
O15_2 O 0.5753(7) 0.7899(9) 0.1731(3)
O18_2 O 0.6567(8) 0.7750(10) 0.1112(4)
O21_2 O 0.5584(5) 0.5484(9) 0.7778(4)
C31_2 C 0.6446(10) 0.8157(13) 0.1500(5)
C35_2 C 0.7743(8) 0.8354(9) 0.2844(4)
H35_2 H 0.8289 0.8706 0.2694
C37_2 C 0.6707(7) 0.7365(9) 0.3285(4)
N23_2 N 0.7555(7) 0.7705(9) 0.3165(3)
N26_2 N 0.6320(7) 0.6151(9) 0.3883(4)
H37_2 H 0.5928 0.5716 0.4072
H39_2 H 0.6839 0.6256 0.3891
C39_2 C 0.6131(8) 0.6647(9) 0.3588(4)
C41_2 C 0.6422(8) 0.7837(10) 0.3012(4)
N28_2 N 0.5632(7) 0.7697(9) 0.3025(4)
N30_2 N 0.5314(7) 0.6467(9) 0.3585(3)
N33_2 N 0.7108(7) 0.8493(9) 0.2737(3)
C43_2 C 0.5116(8) 0.6985(10) 0.3321(4)
H41_2 H 0.4547 0.6842 0.3343
C45_2 C 0.7152(8) 0.9176(10) 0.2366(4)
H43_2 H 0.7654 0.9710 0.2473
H45_2 H 0.6655 0.9232 0.2439
C47_2 C 0.8927(5) 0.4866(9) 0.1172(4)
H47_2 H 0.8385 0.4476 0.1313
N37_2 N 0.4627(5) 0.3562(9) 0.7122(3)
O26_2 O 0.4707(5) 0.5509(8) 0.6492(3)
O37_2 O 0.3615(7) 0.7492(9) 0.2322(4)
N25_2 N 0.5629(5) 0.6517(9) 0.9831(3)
O25_2 O 0.7469(6) 0.8627(7) 0.9826(3)
N1_3 N 0.1851(6) 0.3705(4) 0.4631(3)
C1_3 C 0.2858(8) 0.2859(6) 0.3789(4)
C2_3 C 0.1196(8) 0.3709(6) 0.4988(4)
H1_3 H 0.0692 0.3147 0.4978
H2_3 H 0.1046 0.4108 0.4814
N2_3 N 0.3085(6) 0.4255(4) 0.4179(4)
N3_3 N 0.3580(7) 0.3103(5) 0.3518(4)
H3_3 H 0.3673 0.2734 0.3340
H4_3 H 0.3966 0.3634 0.3516
C3_3 C 0.1678(8) 0.3367(6) 0.5957(4)
C4_3 C 0.1877(8) 0.3063(5) 0.4364(4)
C5_3 C 0.1469(8) 0.3953(6) 0.5631(4)
H5_3 H 0.1965 0.4520 0.5636
H6_3 H 0.1016 0.3978 0.5847
C6_3 C 0.2642(8) 0.3397(6) 0.4087(4)
C7_3 C 0.3856(10) 0.2321(7) 0.5039(4)
H7_3 H 0.3877 0.2778 0.4799
H8_3 H 0.4378 0.2310 0.4965
C8_3 C 0.3113(10) 0.1490(6) 0.4833(5)
O4_3 O 0.1477(6) 0.2689(4) 0.5705(3)
C9_3 C 0.1531(8) 0.1775(6) 0.4060(4)
H9_3 H 0.1143 0.1193 0.4043
C10_3 C 0.4410(8) 0.1687(6) 0.6177(4)
H10_3 H 0.4956 0.2039 0.6027
C11_3 C 0.3374(7) 0.0698(5) 0.6618(4)
N5_3 N 0.4222(7) 0.1038(5) 0.6498(3)
C13_3 C 0.3089(8) 0.1170(5) 0.6345(4)
N7_3 N 0.2299(7) 0.1030(5) 0.6358(4)
N9_3 N 0.3775(7) 0.1826(5) 0.6070(3)
C14_3 C 0.1783(8) 0.0318(5) 0.6654(4)
H13_3 H 0.1214 0.0175 0.6676
C15_3 C 0.3819(8) 0.2509(6) 0.5699(4)
H14_3 H 0.4321 0.3043 0.5806
H15_3 H 0.3322 0.2565 0.5772
C16_3 C 0.2605(7) 0.4406(5) 0.4505(4)
H16_3 H 0.2757 0.4948 0.4646
N10_3 N 0.2269(7) 0.2040(5) 0.3789(3)
O5_3 O 0.4136(6) 0.1960(5) 0.3159(3)
Cl1_3 Cl 0.48481(25) 0.47012(18) 0.51446(12)
O6_3 O 0.4991(7) 0.4570(5) 0.4527(3)
O7_3 O 0.5351(7) 0.4507(5) 0.5510(3)
O9_3 O 0.3996(7) 0.4169(5) 0.5324(3)
O10_3 O 0.5018(8) 0.5543(6) 0.5217(4)
Ag6_3 Ag 0.51999(7) 0.07952(6) 0.67904(3)
O21_3 O 0.4516(9) 0.0099(8) 0.7778(4)
N37_3 N 0.6438(9) 0.1064(7) 0.7122(3)
N6_3 N 0.2987(7) 0.9484(5) 0.7216(4)
H11_3 H 0.2595 0.9049 0.7405
H12_3 H 0.3506 0.9589 0.7224
C12_3 C 0.2798(8) 0.9980(6) 0.6921(4)
O26_3 O 0.4491(8) 0.9197(6) 0.6492(3)
N25_3 N 0.3483(9) 0.9111(7) 0.9831(3)
O25_3 O 0.1373(7) 0.8843(4) 0.9826(3)
Cl2_4 Cl 0.9999 0.9999 0.54371(19)
O8_4 O 0.9999 0.9999 0.4820(7)
N6_4 N 0.7183(5) 0.6836(5) 0.0549(4)
H11_4 H 0.7618 0.6879 0.0738
H12_4 H 0.7078 0.7250 0.0557
C12_4 C 0.6687(6) 0.6151(5) 0.0254(4)
N8_2 N 0.6867(5) 0.5514(5) 0.0251(3)
H13_4 H 0.6492 0.4372 0.0009
N32_3 N 0.4486(5) 0.1352(7) 0.0251(3)
Cl3_3 Cl 0.31864(17) 0.18186(25) 0.18113(12)
Cl4_2 Cl 0.86321(18) 0.68136(17) 0.18113(12)
O27_3 O 0.2912(5) 0.1676(7) 0.1194(3)
O28_2 O 0.8763(5) 0.7088(5) 0.1194(3)
O29_3 O 0.2489(5) 0.1316(7) 0.2177(3)
O30_2 O 0.8826(5) 0.7511(5) 0.2177(3)
O31_3 O 0.3506(5) 0.2671(7) 0.1991(3)
O32_2 O 0.9164(5) 0.6494(5) 0.1991(3)
O33_3 O 0.3858(5) 0.1649(8) 0.1884(4)
O34_2 O 0.7790(6) 0.6142(5) 0.1884(4)
N1_4 N 0.2962(4) 0.1479(5) 0.7964(3)
C1_4 C 0.3808(6) 0.3332(6) 0.7122(4)
C2_4 C 0.2958(6) 0.0820(5) 0.8321(4)
H1_4 H 0.3520 0.0878 0.8311
H2_4 H 0.2559 0.0271 0.8147
O1_3 O 0.3067(4) 0.1735(4) 0.9791(3)
N3_4 N 0.3564(5) 0.3810(5) 0.6851(4)
H3_4 H 0.3933 0.4272 0.6673
H4_4 H 0.3033 0.3665 0.6849
C3_4 C 0.3300(6) 0.1644(6) 0.9290(4)
C4_4 C 0.3604(5) 0.2147(6) 0.7697(4)
C5_4 C 0.2714(6) 0.0849(5) 0.8964(4)
H5_4 H 0.2147 0.0778 0.8969
H6_4 H 0.2689 0.0371 0.9180
C6_4 C 0.3270(6) 0.2578(6) 0.7420(4)
N4_3 N 0.4426(5) 0.2378(4) 0.7683(3)
C7_4 C 0.4346(7) 0.4868(7) 0.8372(4)
H7_4 H 0.3889 0.4432 0.8132
H8_4 H 0.4357 0.5401 0.8298
O2_2 O 0.5435(5) 0.4521(5) 0.8397(3)
C8_4 C 0.5177(6) 0.4956(8) 0.8166(5)
Ag3_2 Ag 0.48679(4) 0.33606(5) 0.93201(3)
Ag4_2 Ag 0.50207(5) 0.17243(5) 0.80672(3)
O4_4 O 0.3978(4) 0.2121(4) 0.9038(3)
C9_4 C 0.4892(6) 0.3089(6) 0.7393(4)
H9_4 H 0.5474 0.3283 0.7376
C10_4 C 0.4980(6) 0.6056(5) 0.9510(4)
H10_4 H 0.4628 0.6250 0.9360
C11_4 C 0.5969(5) 0.6009(5) 0.9951(4)
C13_4 C 0.5497(5) 0.5252(6) 0.9678(4)
N7_4 N 0.5637(5) 0.4602(5) 0.9691(4)
N9_4 N 0.4841(5) 0.5282(5) 0.9403(3)
C14_4 C 0.6349(5) 0.4798(6) 0.9987(4)
C15_4 C 0.4158(6) 0.4643(6) 0.9032(4)
H14_4 H 0.3624 0.4611 0.9139
H15_4 H 0.4102 0.4090 0.9105
C16_4 C 0.2261(5) 0.1532(5) 0.7838(4)
H16_4 H 0.1719 0.1142 0.7979
Cl2_5 Cl 0.6668 0.3333 0.87704(19)
O8_5 O 0.6668 0.3333 0.8153(7)
O11_2 O 0.5842(5) 0.2790(5) 0.8988(4)
O14_2 O 0.8669(6) 0.6933(4) 0.9791(3)
N21_2 N 0.7953(6) 0.5574(5) 0.7683(3)
O17_3 O 0.5479(5) 0.0913(7) 0.8397(3)
Ag18_2 Ag 0.66394(5) 0.15072(6) 0.93201(3)
Ag19_2 Ag 0.84928(6) 0.51321(4) 0.93201(3)
Ag21_2 Ag 0.67037(7) 0.49793(5) 0.80672(3)
Ag23_2 Ag 0.82757(5) 0.32963(7) 0.80672(3)
O35_2 O 0.7210(5) 0.3051(7) 0.8988(4)
O36_2 O 0.6949(7) 0.4158(5) 0.8988(4)
N6_5 N 0.3164(5) 0.0346(7) 0.0549(4)
H11_5 H 0.3121 0.0738 0.0738
C12_5 C 0.3849(5) 0.0535(8) 0.0254(4)
H13_5 H 0.5628 0.2119 0.0009
N32_4 N 0.8648(7) 0.3133(9) 0.0251(3)
Cl3_4 Cl 0.81814(25) 0.13679(30) 0.18113(12)
O27_4 O 0.8324(7) 0.1237(9) 0.1194(3)
O29_4 O 0.8684(7) 0.1174(9) 0.2177(3)
O31_4 O 0.7329(7) 0.0836(9) 0.1991(3)
O33_4 O 0.8351(8) 0.2210(9) 0.1884(4)
N1_5 N 0.8521(5) 0.1482(6) 0.7964(3)
C1_5 C 0.6668(6) 0.0475(8) 0.7122(4)
C2_5 C 0.9180(5) 0.2137(8) 0.8321(4)
H1_5 H 0.9122 0.2641 0.8311
H2_5 H 0.9729 0.2287 0.8147
O1_4 O 0.8265(4) 0.1331(6) 0.9791(3)
C3_5 C 0.8356(6) 0.1655(8) 0.9290(4)
C4_5 C 0.7853(6) 0.1456(8) 0.7697(4)
C5_5 C 0.9151(5) 0.1864(8) 0.8964(4)
H5_5 H 0.9222 0.1368 0.8969
H6_5 H 0.9629 0.2317 0.9180
C6_5 C 0.7422(6) 0.0691(8) 0.7420(4)
N4_4 N 0.7622(4) 0.2047(6) 0.7683(3)
C8_5 C 0.5044(8) 0.0220(10) 0.8166(5)
O4_5 O 0.7879(4) 0.1856(6) 0.9038(3)
C9_5 C 0.6911(6) 0.1802(8) 0.7393(4)
H9_5 H 0.6717 0.2190 0.7376
C13_5 C 0.4748(6) 0.0244(8) 0.9678(4)
N7_5 N 0.5398(5) 0.1034(7) 0.9691(4)
C14_5 C 0.5202(6) 0.1550(8) 0.9987(4)
H15_5 H 0.5910 0.0011 0.9105
C16_5 C 0.8468(5) 0.0728(7) 0.7838(4)
H16_5 H 0.8858 0.0576 0.7979
O17_4 O 0.9087(7) 0.4565(9) 0.8397(3)
H12_5 H 0.2750 0.9827 0.0557
N3_5 N 0.6190(5) 0.9753(7) 0.6851(4)
H3_5 H 0.5728 0.9660 0.6673
H4_5 H 0.6335 0.9367 0.6849
C7_5 C 0.5132(7) 0.9477(10) 0.8372(4)
H7_5 H 0.5568 0.9456 0.8132
H8_5 H 0.4599 0.8955 0.8298
C10_5 C 0.3944(5) 0.8923(8) 0.9510(4)
H10_5 H 0.3750 0.8377 0.9360
C11_5 C 0.3991(5) 0.9959(7) 0.9951(4)
N9_5 N 0.4718(5) 0.9558(7) 0.9403(3)
C15_5 C 0.5357(6) 0.9514(8) 0.9032(4)
H14_5 H 0.5389 0.9012 0.9139
H12_6 H 0.0173 0.2922 0.0557
N3_6 N 0.0247(7) 0.6436(5) 0.6851(4)
H3_6 H 0.0340 0.6067 0.6673
H4_6 H 0.0633 0.6967 0.6849
C7_6 C 0.0523(10) 0.5654(7) 0.8372(4)
H7_6 H 0.0544 0.6111 0.8132
H8_6 H 0.1045 0.5643 0.8298
C10_6 C 0.1077(8) 0.5020(6) 0.9510(4)
H10_6 H 0.1623 0.5372 0.9360
C11_6 C 0.0041(7) 0.4031(5) 0.9951(4)
N9_6 N 0.0442(7) 0.5159(5) 0.9403(3)
C15_6 C 0.0486(8) 0.5842(6) 0.9032(4)
H14_6 H 0.0988 0.6376 0.9139
N6_6 N 0.9654(7) 0.2817(5) 0.0549(4)
H11_6 H 0.9262 0.2382 0.0738
C12_6 C 0.9465(8) 0.3313(6) 0.0254(4)
H13_6 H 0.7881 0.3508 0.0009
N1_6 N 0.8518(6) 0.7038(4) 0.7964(3)
C1_6 C 0.9525(8) 0.6192(6) 0.7122(4)
C2_6 C 0.7863(8) 0.7042(6) 0.8321(4)
H1_6 H 0.7359 0.6480 0.8311
H2_6 H 0.7713 0.7441 0.8147
C3_6 C 0.8345(8) 0.6700(6) 0.9290(4)
C4_6 C 0.8544(8) 0.6396(5) 0.7697(4)
C5_6 C 0.8136(8) 0.7286(6) 0.8964(4)
H5_6 H 0.8632 0.7853 0.8969
H6_6 H 0.7683 0.7311 0.9180
C6_6 C 0.9309(8) 0.6730(6) 0.7420(4)
C8_6 C 0.9780(10) 0.4823(6) 0.8166(5)
O4_6 O 0.8144(6) 0.6022(4) 0.9038(3)
C9_6 C 0.8198(8) 0.5108(6) 0.7393(4)
H9_6 H 0.7810 0.4526 0.7376
C13_6 C 0.9756(8) 0.4503(5) 0.9678(4)
N7_6 N 0.8966(7) 0.4363(5) 0.9691(4)
C14_6 C 0.8450(8) 0.3651(5) 0.9987(4)
H15_6 H 0.9989 0.5898 0.9105
C16_6 C 0.9272(7) 0.7739(5) 0.7838(4)
H16_6 H 0.9424 0.8281 0.7979
Cl2_6 Cl 0.3334 0.6667 0.21038(19)
O8_6 O 0.3334 0.6667 0.1487(7)
Cl5 Cl -0.0000 0.0000 0.29855(19)
O40 O 0.0824(4) 0.0603(4) 0.2770(4)
O41 O -0.0000 -0.0000 0.3620(6)
Cl5_2 Cl -0.0000 1.0000 0.29855(19)
O41_2 O -0.0000 1.0000 0.3620(6)
Cl5_3 Cl 1.0000 0.0000 0.29855(19)
O41_3 O 1.0000 -0.0000 0.3620(6)
O42 O 0.9397(4) 0.0221(6) 0.2770(4)
Cl5_4 Cl 1.0000 1.0000 0.29855(19)
O41_4 O 1.0000 1.0000 0.3620(6)
O43 O 0.9779(6) 0.9176(4) 0.2770(4)
Cl5_5 Cl 0.6667 0.3333 0.63188(19)
O40_2 O 0.7491(4) 0.3936(4) 0.6103(4)
O41_5 O 0.6667 0.3333 0.6953(6)
O42_2 O 0.6064(4) 0.3554(6) 0.6103(4)
O43_2 O 0.6446(6) 0.2509(4) 0.6103(4)
O41_6 O 0.3333 0.6667 0.0287(6)
Cl5_6 Cl 0.3333 0.6667 0.96522(19)
O40_3 O 0.4157(4) 0.7270(4) 0.9437(4)
O42_3 O 0.2730(4) 0.6888(6) 0.9437(4)
O43_3 O 0.3112(6) 0.5843(4) 0.9437(4)
Cl6 Cl 0.3333 0.6667 0.4408(2)
O44 O 0.3897(4) 0.6392(4) 0.4603(4)
O45 O 0.3333 0.6667 0.3763(7)
O46 O 0.3608(4) 0.7505(6) 0.4603(4)
O47 O 0.2495(6) 0.6103(4) 0.4603(4)
Cl6_2 Cl -0.0000 0.0000 0.7741(2)
O45_2 O -0.0000 0.0000 0.7096(7)
O46_2 O 0.0275(4) 0.0838(6) 0.7936(4)
Cl6_3 Cl -0.0000 1.0000 0.7741(2)
O44_2 O 0.0564(4) 0.9725(4) 0.7936(4)
O45_3 O -0.0000 1.0000 0.7096(7)
Cl6_4 Cl 1.0000 0.0000 0.7741(2)
O45_4 O 1.0000 0.0000 0.7096(7)
Cl6_5 Cl 1.0000 1.0000 0.7741(2)
O45_5 O 1.0000 1.0000 0.7096(7)
O47_2 O 0.9162(6) 0.9436(4) 0.7936(4)
Cl6_6 Cl 0.6666 0.3334 0.1075(2)
O44_3 O 0.7230(4) 0.3059(4) 0.1270(4)
O45_6 O 0.6666 0.3334 0.0430(7)
O46_3 O 0.6941(4) 0.4172(6) 0.1270(4)
O47_3 O 0.5828(6) 0.2770(4) 0.1270(4)
loop_
_geom_bond_atom_site_label_1
_geom_bond_atom_site_label_2
_geom_bond_site_symmetry_1
_geom_bond_site_symmetry_2
N6 H11 1_555 1_555
H12 N6 1_555 1_555
N8 C12 1_555 1_555
Cl2 O8 1_555 1_555
Ag5 O18 1_555 1_555
N12 C20 1_555 1_555
C18 N18 1_555 1_555
C20 H18 1_555 1_555
H20 C20 1_555 1_555
N14 C28 1_555 1_555
N16 Ag11 1_555 1_555
O13 C22 1_555 1_555
O14 Ag11 1_555 1_555
N18 H22 1_555 1_555
H24 N18 1_555 1_555
C22 C26 1_555 1_555
C24 N12 1_555 1_555
C26 C20 1_555 1_555
H26 C26 1_555 1_555
H28 C26 1_555 1_555
C28 C18 1_555 1_555
N20 C24 1_555 1_555
N21 Ag21 1_555 1_555
N22 Ag22 1_555 1_555
Ag11 N8 1_555 1_555
Ag12 N30 1_555 1_555
Ag14 N14 1_555 1_555
Ag15 O13 1_555 1_555
C29 H29 1_555 1_555
H31 C29 1_555 1_555
O15 C31 1_555 1_555
O18 C31 1_555 1_555
C31 C29 1_555 1_555
Ag16 O15 1_555 1_555
Ag19 O36 1_555 1_555
Ag22 O15 1_555 1_555
Ag25 N20 1_555 1_555
O23 C22 1_555 1_555
C34 N20 1_555 1_555
H34 C34 1_555 1_555
C35 H35 1_555 1_555
C37 N23 1_555 1_555
C39 C37 1_555 1_555
C41 C37 1_555 1_555
N28 Ag16 1_555 1_555
N30 C39 1_555 1_555
N33 C35 1_555 1_555
C43 N28 1_555 1_555
H41 C43 1_555 1_555
C45 C29 1_555 1_555
H43 C45 1_555 1_555
H45 C45 1_555 1_555
C48 N12 1_555 1_555
H48 C48 1_555 1_555
N36 Ag5 1_555 1_555
Cl4 O28 1_555 1_555
O28 Ag11 1_555 1_555
O30 Cl4 1_555 1_555
O32 Cl4 1_555 1_555
O34 Cl4 1_555 1_555
O36 Cl2 1_555 1_555
O37 Ag16 1_555 1_555
O38 Ag22 1_555 1_555
N6 C12 1_555 1_555
C18 N36 1_555 1_555
N14 C48 1_555 1_555
C24 C28 1_555 1_555
O18 Ag22 1_555 1_555
Ag16 O23 1_555 1_555
Ag21 O36 1_555 1_555
Ag25 O37 1_555 1_555
C34 N36 1_555 1_555
C35 N23 1_555 1_555
C41 N28 1_555 1_555
C41 N33 1_555 1_555
N30 C43 1_555 1_555
N33 C45 1_555 1_555
Cl2_2 O8_2 1_555 1_555
Ag23 O35 1_555 1_555
O35 Cl2_2 1_555 1_555
Ag1 O3 1_555 1_555
N3 H3 1_555 1_555
H4 N3 1_555 1_555
C7 H7 1_555 1_555
H8 C7 1_555 1_555
O2 C8 1_555 1_555
O3 C8 1_555 1_555
C8 C7 1_555 1_555
Ag3 O2 1_555 1_555
C10 H10 1_555 1_555
C11 N5 1_555 1_555
N5 C10 1_555 1_555
C13 C11 1_555 1_555
N7 Ag3 1_555 1_555
N9 C10 1_555 1_555
C14 N7 1_555 1_555
H13 C14 1_555 1_555
C15 C7 1_555 1_555
H14 C15 1_555 1_555
H15 C15 1_555 1_555
N10 Ag1 1_555 1_555
O5 Ag1 1_555 1_555
Cl1 O6 1_555 1_555
O7 Cl1 1_555 1_555
Ag6 N5 1_555 1_555
N11 C19 1_555 1_555
H19 C19 1_555 1_555
N13 C27 1_555 1_555
C21 O12 1_555 1_555
C25 C19 1_555 1_555
H25 C25 1_555 1_555
H27 C25 1_555 1_555
Ag13 N13 1_555 1_555
O21 Ag6 1_555 1_555
N26 H37 1_555 1_555
N27 H38 1_555 1_555
H39 N26 1_555 1_555
H40 N27 1_555 1_555
C47 N11 1_555 1_555
H47 C47 1_555 1_555
N37 Ag6 1_555 1_555
C13 N7 1_555 1_555
C13 N9 1_555 1_555
N9 C15 1_555 1_555
N13 C47 1_555 1_555
C21 C25 1_555 1_555
N1 C2 1_555 1_555
C2 H1 1_555 1_555
H2 C2 1_555 1_555
N2 C6 1_555 1_555
O1 C3 1_555 1_555
C3 C5 1_555 1_555
C4 N1 1_555 1_555
C5 C2 1_555 1_555
H5 C5 1_555 1_555
H6 C5 1_555 1_555
C6 C1 1_555 1_555
N4 C4 1_555 1_555
Ag2 N2 1_555 1_555
Ag4 N4 1_555 1_555
O4 C3 1_555 1_555
C9 N4 1_555 1_555
H9 C9 1_555 1_555
C16 N1 1_555 1_555
H16 C16 1_555 1_555
Ag7 N35 1_555 1_555
Ag8 O19 1_555 1_555
C17 N17 1_555 1_555
N17 H21 1_555 1_555
N19 C23 1_555 1_555
Ag10 O1 1_555 1_555
C30 H30 1_555 1_555
H32 C30 1_555 1_555
O16 C32 1_555 1_555
O17 Ag4 1_555 1_555
O19 C32 1_555 1_555
O20 Ag4 1_555 1_555
C32 C30 1_555 1_555
Ag17 O16 1_555 1_555
Ag18 O17 1_555 1_555
Ag20 O22 1_555 1_555
Ag24 N19 1_555 1_555
O24 Ag17 1_555 1_555
C33 N19 1_555 1_555
H33 C33 1_555 1_555
C36 H36 1_555 1_555
C38 N24 1_555 1_555
N24 C36 1_555 1_555
C40 C38 1_555 1_555
C42 C38 1_555 1_555
N29 Ag17 1_555 1_555
N31 Ag2 1_555 1_555
N32 Ag10 1_555 1_555
N34 C36 1_555 1_555
C44 N29 1_555 1_555
H42 C44 1_555 1_555
C46 C30 1_555 1_555
H44 C46 1_555 1_555
H46 C46 1_555 1_555
N35 C17 1_555 1_555
Cl3 O27 1_555 1_555
O27 Ag10 1_555 1_555
O29 Cl3 1_555 1_555
O31 Cl3 1_555 1_555
O33 Cl3 1_555 1_555
O38 Ag17 1_555 1_555
N2 C16 1_555 1_555
C4 C6 1_555 1_555
Ag4 O11 1_555 1_555
O16 Ag24 1_555 1_555
O19 Ag24 1_555 1_555
C33 N35 1_555 1_555
C40 N31 1_555 1_555
C42 N29 1_555 1_555
C42 N34 1_555 1_555
N31 C44 1_555 1_555
N34 C46 1_555 1_555
Ag19 O17_2 1_555 1_555
N1_2 C2_2 1_555 1_555
C2_2 H1_2 1_555 1_555
H2_2 C2_2 1_555 1_555
N2_2 C6_2 1_555 1_555
O1_2 C3_2 1_555 1_555
C3_2 C5_2 1_555 1_555
C4_2 N1_2 1_555 1_555
C5_2 C2_2 1_555 1_555
H5_2 C5_2 1_555 1_555
H6_2 C5_2 1_555 1_555
C6_2 C1_2 1_555 1_555
N4_2 C4_2 1_555 1_555
Ag12 N2_2 1_555 1_555
Ag23 N4_2 1_555 1_555
O4_2 C3_2 1_555 1_555
C9_2 N4_2 1_555 1_555
H9_2 C9_2 1_555 1_555
C16_2 N1_2 1_555 1_555
H16_2 C16_2 1_555 1_555
Ag8 N35_2 1_555 1_555
C17_2 N17_2 1_555 1_555
N17_2 H21_2 1_555 1_555
N22 C23_2 1_555 1_555
Ag10_2 O1_2 1_555 1_555
C33_2 N22 1_555 1_555
H33_2 C33_2 1_555 1_555
N32_2 Ag10_2 1_555 1_555
N35_2 C17_2 1_555 1_555
Cl3_2 O27_2 1_555 1_555
O27_2 Ag10_2 1_555 1_555
O29_2 Cl3_2 1_555 1_555
O31_2 Cl3_2 1_555 1_555
O33_2 Cl3_2 1_555 1_555
N2_2 C16_2 1_555 1_555
C4_2 C6_2 1_555 1_555
C33_2 N35_2 1_555 1_555
Cl2_3 O8_3 1_555 1_555
Ag1_2 O20 1_555 1_555
N3_2 H3_2 1_555 1_555
H4_2 N3_2 1_555 1_555
C7_2 H7_2 1_555 1_555
H8_2 C7_2 1_555 1_555
O17 C8_2 1_555 1_555
O20 C8_2 1_555 1_555
C8_2 C7_2 1_555 1_555
C10_2 H10_2 1_555 1_555
C11_2 N5_2 1_555 1_555
N5_2 C10_2 1_555 1_555
N6_2 H11_2 1_555 1_555
H12_2 N6_2 1_555 1_555
C12_2 C11_2 1_555 1_555
C13_2 C11_2 1_555 1_555
N7_2 Ag18 1_555 1_555
N32 C12_2 1_555 1_555
N9_2 C10_2 1_555 1_555
C14_2 N7_2 1_555 1_555
H13_2 C14_2 1_555 1_555
C15_2 C7_2 1_555 1_555
H14_2 C15_2 1_555 1_555
H15_2 C15_2 1_555 1_555
N10_2 Ag1_2 1_555 1_555
O5_2 Ag1_2 1_555 1_555
Cl1_2 O6_2 1_555 1_555
O7_2 Cl1_2 1_555 1_555
Ag7 O18_2 1_555 1_555
Ag6_2 N5_2 1_555 1_555
N11_2 C19_2 1_555 1_555
H19_2 C19_2 1_555 1_555
N13_2 C27_2 1_555 1_555
C21_2 O12_2 1_555 1_555
C25_2 C19_2 1_555 1_555
H25_2 C25_2 1_555 1_555
H27_2 C25_2 1_555 1_555
Ag15 N30_2 1_555 1_555
Ag13_2 N13_2 1_555 1_555
C29_2 H29_2 1_555 1_555
H31_2 C29_2 1_555 1_555
O15_2 C31_2 1_555 1_555
O18_2 C31_2 1_555 1_555
O21_2 Ag6_2 1_555 1_555
C31_2 C29_2 1_555 1_555
Ag20 O15_2 1_555 1_555
Ag25 O15_2 1_555 1_555
C35_2 H35_2 1_555 1_555
C37_2 N23_2 1_555 1_555
N23_2 Ag1_2 1_555 1_555
N26_2 H37_2 1_555 1_555
H39_2 N26_2 1_555 1_555
C39_2 C37_2 1_555 1_555
C41_2 C37_2 1_555 1_555
N28_2 Ag20 1_555 1_555
N30_2 C39_2 1_555 1_555
N33_2 C35_2 1_555 1_555
C43_2 N28_2 1_555 1_555
H41_2 C43_2 1_555 1_555
C45_2 C29_2 1_555 1_555
H43_2 C45_2 1_555 1_555
H45_2 C45_2 1_555 1_555
C47_2 N11_2 1_555 1_555
H47_2 C47_2 1_555 1_555
N37_2 Ag6_2 1_555 1_555
O26_2 Ag6_2 1_555 1_555
O37_2 Ag20 1_555 1_555
N6_2 C12_2 1_555 1_555
C13_2 N7_2 1_555 1_555
C13_2 N9_2 1_555 1_555
N32 C14_2 1_555 1_555
N9_2 C15_2 1_555 1_555
N13_2 C47_2 1_555 1_555
C21_2 C25_2 1_555 1_555
O18_2 Ag25 1_555 1_555
Ag24 O37_2 1_555 1_555
C35_2 N23_2 1_555 1_555
N26_2 C39_2 1_555 1_555
C41_2 N28_2 1_555 1_555
C41_2 N33_2 1_555 1_555
N30_2 C43_2 1_555 1_555
N33_2 C45_2 1_555 1_555
Ag9 O20_2 1_555 1_555
N1_3 C2_3 1_555 1_555
C1_3 N3_3 1_555 1_555
C2_3 H1_3 1_555 1_555
H2_3 C2_3 1_555 1_555
N2_3 C6_3 1_555 1_555
O14 C3_3 1_555 1_555
N3_3 H3_3 1_555 1_555
H4_3 N3_3 1_555 1_555
C3_3 C5_3 1_555 1_555
C4_3 N1_3 1_555 1_555
C5_3 C2_3 1_555 1_555
H5_3 C5_3 1_555 1_555
H6_3 C5_3 1_555 1_555
C6_3 C1_3 1_555 1_555
N21 C4_3 1_555 1_555
Ag15 N2_3 1_555 1_555
C7_3 H7_3 1_555 1_555
H8_3 C7_3 1_555 1_555
O17_2 C8_3 1_555 1_555
O20_2 C8_3 1_555 1_555
C8_3 C7_3 1_555 1_555
O4_3 C3_3 1_555 1_555
C9_3 N21 1_555 1_555
H9_3 C9_3 1_555 1_555
C10_3 H10_3 1_555 1_555
C11_3 N5_3 1_555 1_555
N5_3 C10_3 1_555 1_555
C13_3 C11_3 1_555 1_555
N7_3 Ag19 1_555 1_555
N9_3 C10_3 1_555 1_555
C14_3 N7_3 1_555 1_555
H13_3 C14_3 1_555 1_555
C15_3 C7_3 1_555 1_555
H14_3 C15_3 1_555 1_555
H15_3 C15_3 1_555 1_555
C16_3 N1_3 1_555 1_555
H16_3 C16_3 1_555 1_555
N10_3 Ag9 1_555 1_555
O5_3 Ag9 1_555 1_555
Cl1_3 O6_3 1_555 1_555
O6_3 Ag15 1_555 1_555
O7_3 Cl1_3 1_555 1_555
O9_3 Cl1_3 1_555 1_555
O10_3 Cl1_3 1_555 1_555
Ag6_3 N5_3 1_555 1_555
O21_3 Ag6_3 1_555 1_555
N37_3 Ag6_3 1_555 1_555
C1_3 N10_3 1_555 1_555
N2_3 C16_3 1_555 1_555
C4_3 C6_3 1_555 1_555
Ag19 O4_3 1_555 1_555
C9_3 N10_3 1_555 1_555
C13_3 N7_3 1_555 1_555
C13_3 N9_3 1_555 1_555
N9_3 C15_3 1_555 1_555
N6_3 H11_3 1_555 1_555
H12_3 N6_3 1_555 1_555
N32_2 C12_3 1_555 1_555
N6_3 C12_3 1_555 1_555
Cl2_4 O8_4 1_555 1_555
O11 Cl2_4 1_555 1_555
N6_4 H11_4 1_555 1_555
H12_4 N6_4 1_555 1_555
N8_2 C12_4 1_555 1_555
Ag13_2 N8_2 1_555 1_555
N32_3 Ag14 1_555 1_555
Cl3_3 O27_3 1_555 1_555
Cl4_2 O28_2 1_555 1_555
O27_3 Ag14 1_555 1_555
O28_2 Ag13_2 1_555 1_555
O29_3 Cl3_3 1_555 1_555
O30_2 Cl4_2 1_555 1_555
O31_3 Cl3_3 1_555 1_555
O32_2 Cl4_2 1_555 1_555
O33_3 Cl3_3 1_555 1_555
O34_2 Cl4_2 1_555 1_555
N6_4 C12_4 1_555 1_555
N1_4 C2_4 1_555 1_555
C1_4 N3_4 1_555 1_555
C2_4 H1_4 1_555 1_555
H2_4 C2_4 1_555 1_555
N16 C6_4 1_555 1_555
O1_3 C3_4 1_555 1_555
N3_4 H3_4 1_555 1_555
H4_4 N3_4 1_555 1_555
C3_4 C5_4 1_555 1_555
C4_4 N1_4 1_555 1_555
C5_4 C2_4 1_555 1_555
H5_4 C5_4 1_555 1_555
H6_4 C5_4 1_555 1_555
C6_4 C1_4 1_555 1_555
N4_3 C4_4 1_555 1_555
C7_4 H7_4 1_555 1_555
H8_4 C7_4 1_555 1_555
O2_2 C8_4 1_555 1_555
O21_2 C8_4 1_555 1_555
C8_4 C7_4 1_555 1_555
Ag3_2 O2_2 1_555 1_555
Ag4_2 N4_3 1_555 1_555
O4_4 C3_4 1_555 1_555
C9_4 N4_3 1_555 1_555
H9_4 C9_4 1_555 1_555
C10_4 H10_4 1_555 1_555
C11_4 N25_2 1_555 1_555
N25_2 C10_4 1_555 1_555
C13_4 C11_4 1_555 1_555
N7_4 Ag3_2 1_555 1_555
N9_4 C10_4 1_555 1_555
C14_4 N7_4 1_555 1_555
C15_4 C7_4 1_555 1_555
H14_4 C15_4 1_555 1_555
H15_4 C15_4 1_555 1_555
C16_4 N1_4 1_555 1_555
H16_4 C16_4 1_555 1_555
Cl2_5 O8_5 1_555 1_555
O11_2 Ag3_2 1_555 1_555
N21_2 Ag21_2 1_555 1_555
O17_3 Ag4_2 1_555 1_555
O21_3 Ag4_2 1_555 1_555
Ag18_2 O17_3 1_555 1_555
Ag19_2 O36_2 1_555 1_555
Ag21_2 O2_2 1_555 1_555
Ag23_2 O35_2 1_555 1_555
O35_2 Cl2_5 1_555 1_555
O36_2 Cl2_5 1_555 1_555
C1_4 N37_2 1_555 1_555
N16 C16_4 1_555 1_555
C4_4 C6_4 1_555 1_555
O21_2 Ag21_2 1_555 1_555
Ag3_2 O4_4 1_555 1_555
Ag4_2 O11_2 1_555 1_555
C9_4 N37_2 1_555 1_555
C13_4 N7_4 1_555 1_555
C13_4 N9_4 1_555 1_555
N9_4 C15_4 1_555 1_555
Cl2_5 O11_2 1_555 1_555
Ag18_2 O35_2 1_555 1_555
Ag21_2 O36_2 1_555 1_555
N6_5 H11_5 1_555 1_555
N32_3 C12_5 1_555 1_555
N32_4 Ag13 1_555 1_555
Cl3_4 O27_4 1_555 1_555
O27_4 Ag13 1_555 1_555
O29_4 Cl3_4 1_555 1_555
O31_4 Cl3_4 1_555 1_555
O33_4 Cl3_4 1_555 1_555
N6_5 C12_5 1_555 1_555
N1_5 C2_5 1_555 1_555
C2_5 H1_5 1_555 1_555
H2_5 C2_5 1_555 1_555
N15 C6_5 1_555 1_555
O1_4 C3_5 1_555 1_555
C3_5 C5_5 1_555 1_555
C4_5 N1_5 1_555 1_555
C5_5 C2_5 1_555 1_555
H5_5 C5_5 1_555 1_555
H6_5 C5_5 1_555 1_555
C6_5 C1_5 1_555 1_555
N4_4 C4_5 1_555 1_555
O17_3 C8_5 1_555 1_555
O21_3 C8_5 1_555 1_555
Ag23_2 N4_4 1_555 1_555
O4_5 C3_5 1_555 1_555
C9_5 N4_4 1_555 1_555
H9_5 C9_5 1_555 1_555
N7_5 Ag18_2 1_555 1_555
C14_5 N7_5 1_555 1_555
C16_5 N1_5 1_555 1_555
H16_5 C16_5 1_555 1_555
O17_4 Ag23_2 1_555 1_555
O21 Ag23_2 1_555 1_555
Ag19_2 O17_4 1_555 1_555
C1_5 N37_3 1_555 1_555
N15 C16_5 1_555 1_555
C4_5 C6_5 1_555 1_555
Ag18_2 O4_5 1_555 1_555
C9_5 N37_3 1_555 1_555
C13_5 N7_5 1_555 1_555
N3_5 H3_5 1_555 1_555
H4_5 N3_5 1_555 1_555
C7_5 H7_5 1_555 1_555
H8_5 C7_5 1_555 1_555
C10_5 H10_5 1_555 1_555
C11_5 N25_3 1_555 1_555
N25_3 C10_5 1_555 1_555
N9_5 C10_5 1_555 1_555
C15_5 C7_5 1_555 1_555
H14_5 C15_5 1_555 1_555
N9_5 C15_5 1_555 1_555
N3_6 H3_6 1_555 1_555
H4_6 N3_6 1_555 1_555
C7_6 H7_6 1_555 1_555
H8_6 C7_6 1_555 1_555
C10_6 H10_6 1_555 1_555
C11_6 N25 1_555 1_555
N25 C10_6 1_555 1_555
N9_6 C10_6 1_555 1_555
C15_6 C7_6 1_555 1_555
H14_6 C15_6 1_555 1_555
N9_6 C15_6 1_555 1_555
N6_6 H11_6 1_555 1_555
N32_4 C12_6 1_555 1_555
N6_6 C12_6 1_555 1_555
N1_6 C2_6 1_555 1_555
C2_6 H1_6 1_555 1_555
H2_6 C2_6 1_555 1_555
N15_2 C6_6 1_555 1_555
O14_2 C3_6 1_555 1_555
C3_6 C5_6 1_555 1_555
C4_6 N1_6 1_555 1_555
C5_6 C2_6 1_555 1_555
H5_6 C5_6 1_555 1_555
H6_6 C5_6 1_555 1_555
C6_6 C1_6 1_555 1_555
N21_2 C4_6 1_555 1_555
O17_4 C8_6 1_555 1_555
O21 C8_6 1_555 1_555
O4_6 C3_6 1_555 1_555
C9_6 N21_2 1_555 1_555
H9_6 C9_6 1_555 1_555
N7_6 Ag19_2 1_555 1_555
C14_6 N7_6 1_555 1_555
C16_6 N1_6 1_555 1_555
H16_6 C16_6 1_555 1_555
C1_6 N37 1_555 1_555
N15_2 C16_6 1_555 1_555
C4_6 C6_6 1_555 1_555
Ag19_2 O4_6 1_555 1_555
C9_6 N37 1_555 1_555
C13_6 N7_6 1_555 1_555
Cl2_6 O8_6 1_555 1_555
O37 Cl2_6 1_555 1_555
O37_2 Cl2_6 1_555 1_555
Cl2_6 O38 1_555 1_555
Cl5 O40 1_555 1_555
O41 Cl5 1_555 1_555
O41_2 Cl5_2 1_555 1_555
O41_3 Cl5_3 1_555 1_555
O42 Cl5_3 1_555 1_555
O41_4 Cl5_4 1_555 1_555
O43 Cl5_4 1_555 1_555
Cl5_5 O40_2 1_555 1_555
O41_5 Cl5_5 1_555 1_555
O42_2 Cl5_5 1_555 1_555
O43_2 Cl5_5 1_555 1_555
Cl5_6 O40_3 1_555 1_555
O42_3 Cl5_6 1_555 1_555
O43_3 Cl5_6 1_555 1_555
Cl6 O44 1_555 1_555
O45 Cl6 1_555 1_555
O46 Cl6 1_555 1_555
O47 Cl6 1_555 1_555
O45_2 Cl6_2 1_555 1_555
O46_2 Cl6_2 1_555 1_555
Cl6_3 O44_2 1_555 1_555
O45_3 Cl6_3 1_555 1_555
O45_4 Cl6_4 1_555 1_555
O45_5 Cl6_5 1_555 1_555
O47_2 Cl6_5 1_555 1_555
Cl6_6 O44_3 1_555 1_555
O45_6 Cl6_6 1_555 1_555
O46_3 Cl6_6 1_555 1_555
O47_3 Cl6_6 1_555 1_555

#END
