
###############################################################################
#
# This file contains modified crystal structure data generated from the
# MOF subset of the Cambridge Structural Database (CSD) v543 
# hosted by the Cambridge Crystallographic Data Centre (CCDC).
#
# This work is licensed under the Creative Commons
# Attribution-NonCommercial-ShareAlike 4.0 International License.
# To view a copy of this license, visit
# http://creativecommons.org/licenses/by-nc-sa/4.0/
# or send a letter to
# Creative Commons, PO Box 1866, Mountain View, CA 94042, USA.
#
# CIF created using the CSD Python API on 29 September 2022
# The structure has been converted into the P1 space group
# The structure has a 3D framework
# The original CSD entry QUCVOC is in the monoclinic crystal system
# The framework has been calculated to contain at least 10.0% void space
# The void calculation uses a probe of radius 1.32A, grid spacing 0.4
#
###############################################################################

data_QUCVOC
_chemical_formula_moiety         '(C176 H152 Cd7 N16 O38)n'
_symmetry_cell_setting           triclinic
_symmetry_space_group_name_H-M   'P 1'
_symmetry_Int_Tables_number      1
_space_group_name_Hall           'P 1'
loop_
_symmetry_equiv_pos_site_id
_symmetry_equiv_pos_as_xyz
1 x,y,z
_cell_length_a                   9.1676(3)
_cell_length_b                   19.6407(5)
_cell_length_c                   26.0274(7)
_cell_angle_alpha                90
_cell_angle_beta                 94.9992(9)
_cell_angle_gamma                90
_cell_volume                     4668.62
loop_
_atom_site_label
_atom_site_type_symbol
_atom_site_fract_x
_atom_site_fract_y
_atom_site_fract_z
H4 H 0.0091 0.0013 0.8580
C6 C 0.1018(6) 0.0039(3) 0.7637(2)
H7 H 0.1035 0.0539 0.7685
C7 C 0.0735(5) 0.0294(3) 0.6712(2)
C8 C 0.1214(6) 0.0139(3) 0.6187(2)
H10 H 0.1975 0.0473 0.6110
C10 C 0.0588(6) 0.0013(3) 0.5221(2)
H13 H 0.1300 0.0374 0.5151
N5 N 0.2711(5) 0.0794(2) 0.23443(16)
C45 C 0.1467(5) 0.0533(3) 0.2504(2)
H40 H 0.1328 0.0557 0.2861
C46 C 0.0380(6) 0.0234(3) 0.2177(2)
C47 C 0.0622(7) 0.0191(3) 0.1658(2)
C48 C 0.1900(7) 0.0445(3) 0.1491(2)
H42 H 0.2083 0.0411 0.1138
C49 C 0.2918(6) 0.0751(3) 0.1845(2)
H43 H 0.3788 0.0935 0.1728
H49 H 0.0750 0.0191 0.4188
Cd8 Cd 0.43397(4) 0.12565(2) 0.29558(2)
Cd11 Cd 0.04882(4) 0.20057(2) 0.68725(2)
N2 N 0.1238(5) 0.9892(2) 0.70995(18)
H1 H 0.1724 0.9522 0.7029
H8 H 0.1854 0.9848 0.7857
H9 H 0.1672 0.9682 0.6196
H14 H 0.1119 0.9574 0.5240
O11 O 0.0067(4) 0.92079(18) 0.32091(15)
C53 C 0.0003(6) 0.9845(3) 0.4253(2)
H48 H 0.0482 0.9393 0.4262
O1 O 0.9933(4) 0.07921(18) 0.67909(15)
C9 C 0.9997(6) 0.0155(3) 0.5747(2)
H11 H 0.9518 0.0607 0.5738
N6 N 0.8762(5) 0.0108(2) 0.29005(18)
H39 H 0.8276 0.0478 0.2971
H45 H 0.8146 0.0152 0.2143
H46 H 0.8328 0.0318 0.3804
H51 H 0.8881 0.0426 0.4760
O9 O 0.2450(4) 0.6122(2) 0.14478(15)
O10 O 0.0522(4) 0.6738(2) 0.12051(15)
C36 C 0.1394(6) 0.6720(3) 0.0194(2)
H34 H 0.0376 0.6697 0.0236
C37 C 0.2379(6) 0.6651(3) 0.0618(2)
C38 C 0.3910(6) 0.6710(3) 0.0562(2)
C39 C 0.4997(6) 0.6642(3) 0.0981(2)
H35 H 0.4707 0.6534 0.1313
C40 C 0.6456(6) 0.6729(3) 0.0920(2)
H36 H 0.7157 0.6688 0.1209
C41 C 0.6921(6) 0.6876(3) 0.0437(2)
H37 H 0.7933 0.6937 0.0398
C42 C 0.5915(6) 0.6933(3) 0.0016(2)
C43 C 0.4382(6) 0.6854(3) 0.0060(2)
C44 C 0.1758(6) 0.6497(3) 0.1120(2)
N8 N 0.1099(5) 0.4113(2) 0.20178(18)
H52 H 0.1520 0.3754 0.1892
H55 H 0.0033 0.3921 0.3498
C60 C 0.0911(6) 0.4134(3) 0.2564(2)
H57 H 0.1752 0.3897 0.2750
H58 H 0.0949 0.4616 0.2676
C61 C 0.0657(5) 0.4620(3) 0.1695(2)
C62 C 0.1105(6) 0.4563(3) 0.1155(2)
H59 H 0.2037 0.4812 0.1135
H60 H 0.1288 0.4078 0.1081
C64 C 0.0564(6) 0.4877(3) 0.0210(2)
H63 H 0.0908 0.4419 0.0117
H64 H 0.1417 0.5188 0.0229
O15 O 0.3749(4) 0.23686(19) 0.26720(16)
O16 O 0.3146(4) 0.2959(2) 0.19599(17)
C68 C 0.0691(6) 0.2197(3) 0.2734(2)
H66 H 0.1247 0.2307 0.3048
C69 C 0.1302(5) 0.2270(3) 0.2272(2)
C70 C 0.0500(6) 0.2093(3) 0.1800(2)
C71 C 0.1106(7) 0.2117(3) 0.1316(2)
H67 H 0.2064 0.2294 0.1297
C72 C 0.0334(7) 0.1890(3) 0.0884(3)
H68 H 0.0770 0.1904 0.0566
C76 C 0.2847(6) 0.2543(3) 0.2307(2)
Cd9 Cd 0.06603(4) 0.62565(2) 0.20442(2)
Cd12 Cd 0.54882(4) 0.29943(2) 0.18725(2)
Cd1 Cd 0.56603(4) 0.87435(2) 0.70442(2)
Cd2 Cd 0.45118(4) 0.70057(2) 0.81275(2)
O2 O 0.0062(4) 0.48951(19) 0.81627(14)
O3 O 0.3374(4) 0.87151(19) 0.72392(15)
O4 O 0.4134(4) 0.8192(2) 0.79690(15)
O7 O 0.4842(4) 0.7316(2) 0.89939(15)
O8 O 0.2849(4) 0.6743(2) 0.87347(14)
N1 N 0.7289(5) 0.9206(2) 0.76557(16)
N3 N 0.2810(5) 0.6705(2) 0.74874(17)
C1 C 0.8533(5) 0.9467(3) 0.7496(2)
H3 H 0.8672 0.9443 0.7139
C2 C 0.9620(6) 0.9766(3) 0.7823(2)
C3 C 0.9378(7) 0.9809(3) 0.8342(2)
C4 C 0.8100(7) 0.9555(3) 0.8509(2)
H5 H 0.7917 0.9589 0.8862
C5 C 0.7082(6) 0.9249(3) 0.8155(2)
H6 H 0.6212 0.9065 0.8272
H12 H 0.9250 0.9809 0.5812
C11 C 0.2987(6) 0.6769(3) 0.6983(2)
H15 H 0.3852 0.6976 0.6881
C12 C 0.1943(7) 0.6539(3) 0.6609(2)
H16 H 0.2090 0.6586 0.6254
C13 C 0.0689(7) 0.6241(3) 0.6757(2)
C14 C 0.0473(6) 0.6176(3) 0.7274(2)
C15 C 0.1574(6) 0.6414(3) 0.7624(2)
H18 H 0.1451 0.6368 0.7981
C19 C 0.0021(6) 0.5160(3) 0.9260(2)
H23 H 0.0324 0.4699 0.9159
H24 H 0.0899 0.5456 0.9281
C21 C 0.3148(6) 0.8383(3) 0.7642(2)
C22 C 0.1573(5) 0.8204(3) 0.7699(2)
C23 C 0.0746(6) 0.8037(3) 0.7259(2)
H27 H 0.1156 0.8081 0.6938
C29 C 0.1094(7) 0.8365(4) 0.9109(2)
H31 H 0.1618 0.8518 0.9419
C30 C 0.1723(7) 0.8392(3) 0.8651(2)
H32 H 0.2687 0.8568 0.8644
C31 C 0.0958(6) 0.8162(3) 0.8185(2)
C33 C 0.3694(6) 0.6991(3) 0.9088(2)
C34 C 0.3320(6) 0.6899(3) 0.9631(2)
C35 C 0.1855(6) 0.6825(3) 0.9703(2)
H33 H 0.1148 0.6845 0.9414
H38 H 0.6246 0.7026 0.9688
H41 H 0.9909 0.9987 0.1420
C50 C 0.8982(6) 0.9961(3) 0.2363(2)
H44 H 0.8965 0.9461 0.2315
C51 C 0.9265(5) 0.9706(3) 0.3288(2)
C52 C 0.8786(6) 0.9861(3) 0.3813(2)
H47 H 0.8025 0.9527 0.3890
C54 C 0.9412(6) 0.9987(3) 0.4779(2)
H50 H 0.8700 0.9626 0.4849
Cd13 Cd 0.95118(4) 0.79943(2) 0.31275(2)
O21 O 0.5067(4) 0.57921(18) 0.82091(15)
O23 O 0.4938(4) 0.98951(19) 0.68373(14)
O25 O 0.6251(4) 0.76314(19) 0.73280(16)
O27 O 0.6854(4) 0.7041(2) 0.80401(17)
O30 O 0.7450(4) 0.8878(2) 0.64478(15)
O32 O 0.5522(4) 0.8262(2) 0.62051(15)
O12 O 0.9938(4) 0.51049(19) 0.18373(14)
N7 N 0.7190(5) 0.3295(2) 0.25126(17)
C55 C 0.7013(6) 0.3231(3) 0.3017(2)
H53 H 0.6148 0.3024 0.3119
C56 C 0.8057(7) 0.3461(3) 0.3391(2)
H54 H 0.7910 0.3414 0.3746
C57 C 0.9311(7) 0.3759(3) 0.3243(2)
C58 C 0.9527(6) 0.3824(3) 0.2726(2)
C59 C 0.8426(6) 0.3586(3) 0.2376(2)
H56 H 0.8549 0.3632 0.2019
C63 C 0.9979(6) 0.4840(3) 0.0740(2)
H61 H 0.9676 0.5301 0.0841
H62 H 0.9101 0.4544 0.0719
O13 O 0.6626(4) 0.12849(19) 0.27608(15)
O14 O 0.5866(4) 0.1808(2) 0.20310(15)
O17 O 0.5158(4) 0.2684(2) 0.10061(15)
O18 O 0.7151(4) 0.3257(2) 0.12653(14)
C65 C 0.6852(6) 0.1617(3) 0.2358(2)
C66 C 0.8427(5) 0.1796(3) 0.2301(2)
C67 C 0.9254(6) 0.1963(3) 0.2741(2)
H65 H 0.8844 0.1919 0.3062
C73 C 0.8906(7) 0.1635(4) 0.0891(2)
H69 H 0.8382 0.1482 0.0581
C74 C 0.8277(7) 0.1608(3) 0.1349(2)
H70 H 0.7313 0.1432 0.1356
C75 C 0.9042(6) 0.1838(3) 0.1815(2)
C77 C 0.6306(6) 0.3009(3) 0.0912(2)
C78 C 0.6680(6) 0.3101(3) 0.0369(2)
C79 C 0.8145(6) 0.3175(3) 0.0297(2)
H71 H 0.8852 0.3155 0.0586
H76 H 0.3754 0.2974 0.0312
O22 O 0.4933(4) 0.42079(18) 0.17909(15)
O24 O 0.5062(4) 0.01049(19) 0.31627(14)
O29 O 0.2550(4) 0.1122(2) 0.35522(15)
O31 O 0.4478(4) 0.1738(2) 0.37949(15)
N4 N 0.8901(5) 0.5887(2) 0.79822(18)
H2 H 0.8480 0.6246 0.8108
H17 H 0.9967 0.6079 0.6502
C16 C 0.9089(6) 0.5866(3) 0.7436(2)
H19 H 0.8248 0.6103 0.7250
H20 H 0.9051 0.5384 0.7324
C17 C 0.9343(5) 0.5380(3) 0.8305(2)
C18 C 0.8895(6) 0.5437(3) 0.8845(2)
H21 H 0.7963 0.5188 0.8865
H22 H 0.8712 0.5922 0.8919
C20 C 0.9436(6) 0.5123(3) 0.9790(2)
H25 H 0.9092 0.5581 0.9883
H26 H 0.8583 0.4812 0.9771
C24 C 0.9309(6) 0.7803(3) 0.7266(2)
H28 H 0.8753 0.7693 0.6952
C25 C 0.8698(5) 0.7730(3) 0.7728(2)
C26 C 0.9500(6) 0.7907(3) 0.8200(2)
C27 C 0.8894(7) 0.7883(3) 0.8684(2)
H29 H 0.7936 0.7706 0.8703
C28 C 0.9666(7) 0.8110(3) 0.9116(3)
H30 H 0.9230 0.8096 0.9434
C32 C 0.7153(6) 0.7457(3) 0.7693(2)
O19 O 0.7550(4) 0.3878(2) 0.85522(15)
O20 O 0.9478(4) 0.3262(2) 0.87949(15)
C80 C 0.8606(6) 0.3280(3) 0.9806(2)
H72 H 0.9624 0.3303 0.9764
C81 C 0.7621(6) 0.3349(3) 0.9382(2)
C82 C 0.6090(6) 0.3290(3) 0.9438(2)
C83 C 0.5003(6) 0.3358(3) 0.9019(2)
H73 H 0.5293 0.3466 0.8687
C84 C 0.3544(6) 0.3271(3) 0.9080(2)
H74 H 0.2843 0.3312 0.8791
C85 C 0.3079(6) 0.3124(3) 0.9563(2)
H75 H 0.2067 0.3063 0.9602
C86 C 0.4085(6) 0.3067(3) 0.9984(2)
C87 C 0.5618(6) 0.3146(3) 0.9940(2)
C88 C 0.8242(6) 0.3503(3) 0.8880(2)
Cd6 Cd 0.93397(4) 0.37435(2) 0.79558(2)
C84_2 C 0.1456(6) 0.8271(3) 0.5920(2)
H74_2 H 0.2157 0.8312 0.6209
C85_2 C 0.1921(6) 0.8124(3) 0.5437(2)
H75_2 H 0.2933 0.8063 0.5398
C86_2 C 0.0915(6) 0.8067(3) 0.5016(2)
H76_2 H 0.1246 0.7974 0.4688
O26 O 0.1251(4) 0.73686(19) 0.23280(16)
O28 O 0.1854(4) 0.7959(2) 0.30401(17)
N9 N 0.2289(5) 0.5794(2) 0.26557(16)
O3_2 O 0.1626(4) 0.37151(19) 0.77608(15)
O4_2 O 0.0866(4) 0.3192(2) 0.70310(15)
O5 O 0.8749(4) 0.26314(19) 0.76720(16)
O6 O 0.8146(4) 0.2041(2) 0.69599(17)
O7_2 O 0.0158(4) 0.2316(2) 0.60061(15)
O8_2 O 0.2151(4) 0.1743(2) 0.62653(14)
N3_2 N 0.2190(5) 0.1705(2) 0.75126(17)
N4_2 N 0.6099(5) 0.0887(2) 0.70178(18)
H2_2 H 0.6520 0.1246 0.6892
C11_2 C 0.2013(6) 0.1769(3) 0.8017(2)
H15_2 H 0.1148 0.1976 0.8119
C12_2 C 0.3057(7) 0.1539(3) 0.8391(2)
H16_2 H 0.2910 0.1586 0.8746
C13_2 C 0.4311(7) 0.1241(3) 0.8243(2)
H17_2 H 0.5033 0.1079 0.8498
C14_2 C 0.4527(6) 0.1176(3) 0.7726(2)
C15_2 C 0.3426(6) 0.1414(3) 0.7376(2)
H18_2 H 0.3549 0.1368 0.7019
C16_2 C 0.5911(6) 0.0866(3) 0.7564(2)
H19_2 H 0.6752 0.1103 0.7750
H20_2 H 0.5949 0.0384 0.7676
C17_2 C 0.5657(5) 0.0380(3) 0.6695(2)
C18_2 C 0.6105(6) 0.0437(3) 0.6155(2)
H21_2 H 0.7037 0.0188 0.6135
H22_2 H 0.6288 0.0922 0.6081
C19_2 C 0.4979(6) 0.0160(3) 0.5740(2)
H24_2 H 0.4101 0.0456 0.5719
C20_2 C 0.5564(6) 0.0123(3) 0.5210(2)
H25_2 H 0.5908 0.0581 0.5117
C21_2 C 0.1852(6) 0.3383(3) 0.7358(2)
C22_2 C 0.3427(5) 0.3204(3) 0.7301(2)
C23_2 C 0.4254(6) 0.3037(3) 0.7741(2)
H27_2 H 0.3844 0.3081 0.8062
C24_2 C 0.5691(6) 0.2803(3) 0.7734(2)
H28_2 H 0.6247 0.2693 0.8048
C25_2 C 0.6302(5) 0.2730(3) 0.7272(2)
C26_2 C 0.5500(6) 0.2907(3) 0.6800(2)
C27_2 C 0.6106(7) 0.2883(3) 0.6316(2)
H29_2 H 0.7064 0.2706 0.6297
C28_2 C 0.5334(7) 0.3110(3) 0.5884(3)
H30_2 H 0.5770 0.3096 0.5566
C29_2 C 0.3906(7) 0.3365(4) 0.5891(2)
H31_2 H 0.3382 0.3518 0.5581
C30_2 C 0.3277(7) 0.3392(3) 0.6349(2)
H32_2 H 0.2313 0.3568 0.6356
C31_2 C 0.4042(6) 0.3162(3) 0.6815(2)
C32_2 C 0.7847(6) 0.2457(3) 0.7307(2)
C33_2 C 0.1306(6) 0.1991(3) 0.5912(2)
C34_2 C 0.1680(6) 0.1899(3) 0.5369(2)
C35_2 C 0.3145(6) 0.1825(3) 0.5297(2)
H33_2 H 0.3852 0.1845 0.5586
C36_2 C 0.3606(6) 0.1720(3) 0.4806(2)
H34_2 H 0.4624 0.1697 0.4764
C37_2 C 0.2621(6) 0.1651(3) 0.4382(2)
C38_2 C 0.1090(6) 0.1710(3) 0.4438(2)
C39_2 C 0.0003(6) 0.1642(3) 0.4019(2)
H35_2 H 0.0293 0.1534 0.3687
C43_2 C 0.0618(6) 0.1854(3) 0.4940(2)
C44_2 C 0.3242(6) 0.1497(3) 0.3880(2)
H61_2 H 0.5324 0.0301 0.4159
H64_2 H 0.3583 0.0188 0.4771
H23_2 H 0.4676 0.9699 0.5841
H26_2 H 0.6417 0.9812 0.5229
N7_2 N 0.7810(5) 0.8295(2) 0.24874(17)
N8_2 N 0.3901(5) 0.9113(2) 0.29822(18)
H52_2 H 0.3480 0.8754 0.3108
C55_2 C 0.7987(6) 0.8231(3) 0.1983(2)
H53_2 H 0.8852 0.8024 0.1881
C56_2 C 0.6943(7) 0.8461(3) 0.1609(2)
H54_2 H 0.7090 0.8414 0.1254
C57_2 C 0.5689(7) 0.8759(3) 0.1757(2)
H55_2 H 0.4967 0.8921 0.1502
C58_2 C 0.5473(6) 0.8824(3) 0.2274(2)
C59_2 C 0.6574(6) 0.8586(3) 0.2624(2)
H56_2 H 0.6451 0.8632 0.2981
C60_2 C 0.4089(6) 0.9134(3) 0.2436(2)
H57_2 H 0.3248 0.8897 0.2250
H58_2 H 0.4051 0.9616 0.2324
C61_2 C 0.4343(5) 0.9620(3) 0.3305(2)
C62_2 C 0.3895(6) 0.9563(3) 0.3845(2)
H59_2 H 0.2963 0.9812 0.3865
H60_2 H 0.3712 0.9078 0.3919
C63_2 C 0.5021(6) 0.9840(3) 0.4260(2)
H62_2 H 0.5899 0.9544 0.4281
C64_2 C 0.4436(6) 0.9877(3) 0.4790(2)
H63_2 H 0.4092 0.9419 0.4883
O13_2 O 0.8374(4) 0.62849(19) 0.22392(15)
O14_2 O 0.9134(4) 0.6808(2) 0.29690(15)
O17_2 O 0.9842(4) 0.7684(2) 0.39939(15)
O18_2 O 0.7849(4) 0.8257(2) 0.37347(14)
C65_2 C 0.8148(6) 0.6617(3) 0.2642(2)
C66_2 C 0.6573(5) 0.6796(3) 0.2699(2)
C67_2 C 0.5746(6) 0.6963(3) 0.2259(2)
H65_2 H 0.6156 0.6919 0.1938
C68_2 C 0.4309(6) 0.7197(3) 0.2266(2)
H66_2 H 0.3753 0.7307 0.1952
C69_2 C 0.3698(5) 0.7270(3) 0.2728(2)
C70_2 C 0.4500(6) 0.7093(3) 0.3200(2)
C71_2 C 0.3894(7) 0.7117(3) 0.3684(2)
H67_2 H 0.2936 0.7294 0.3703
C72_2 C 0.4666(7) 0.6890(3) 0.4116(3)
H68_2 H 0.4230 0.6904 0.4434
C73_2 C 0.6094(7) 0.6635(4) 0.4109(2)
H69_2 H 0.6618 0.6482 0.4419
C74_2 C 0.6723(7) 0.6608(3) 0.3651(2)
H70_2 H 0.7687 0.6432 0.3644
C75_2 C 0.5958(6) 0.6838(3) 0.3185(2)
C76_2 C 0.2153(6) 0.7543(3) 0.2693(2)
C77_2 C 0.8694(6) 0.8009(3) 0.4088(2)
C78_2 C 0.8320(6) 0.8101(3) 0.4631(2)
C79_2 C 0.6855(6) 0.8175(3) 0.4703(2)
H71_2 H 0.6148 0.8155 0.4414
C80_2 C 0.6394(6) 0.8280(3) 0.5194(2)
H72_2 H 0.5376 0.8303 0.5236
C81_2 C 0.7379(6) 0.8349(3) 0.5618(2)
C82_2 C 0.8910(6) 0.8290(3) 0.5562(2)
C83_2 C 0.9997(6) 0.8358(3) 0.5981(2)
H73_2 H 0.9707 0.8466 0.6313
C87_2 C 0.9382(6) 0.8146(3) 0.5060(2)
C88_2 C 0.6758(6) 0.8503(3) 0.6120(2)
N6_2 N 0.6238(5) 0.5108(2) 0.20995(18)
H39_2 H 0.6724 0.5478 0.2029
C45_2 C 0.3533(5) 0.5533(3) 0.2496(2)
H40_2 H 0.3672 0.5557 0.2139
C46_2 C 0.4620(6) 0.5234(3) 0.2823(2)
C47_2 C 0.4378(7) 0.5191(3) 0.3342(2)
H41_2 H 0.5091 0.4987 0.3580
C48_2 C 0.3100(7) 0.5445(3) 0.3509(2)
H42_2 H 0.2917 0.5411 0.3862
C49_2 C 0.2082(6) 0.5751(3) 0.3155(2)
H43_2 H 0.1212 0.5935 0.3272
C50_2 C 0.6018(6) 0.4961(3) 0.2637(2)
H44_2 H 0.6035 0.4461 0.2685
H45_2 H 0.6854 0.5152 0.2857
C51_2 C 0.5735(5) 0.4706(3) 0.1712(2)
C52_2 C 0.6214(6) 0.4861(3) 0.1187(2)
H46_2 H 0.6672 0.5318 0.1196
H47_2 H 0.6975 0.4527 0.1110
C53_2 C 0.4997(6) 0.4845(3) 0.0747(2)
H48_2 H 0.4518 0.4393 0.0738
H49_2 H 0.4250 0.5191 0.0812
C54_2 C 0.5588(6) 0.4987(3) 0.0221(2)
H50_2 H 0.6300 0.4626 0.0151
H51_2 H 0.6119 0.5426 0.0240
N1_2 N 0.7711(5) 0.4206(2) 0.73443(16)
N2_2 N 0.3762(5) 0.4892(2) 0.79005(18)
H1_2 H 0.3276 0.4522 0.7971
C1_2 C 0.6467(5) 0.4467(3) 0.7504(2)
H3_2 H 0.6328 0.4443 0.7861
C2_2 C 0.5380(6) 0.4766(3) 0.7177(2)
C3_2 C 0.5622(7) 0.4809(3) 0.6658(2)
H4_2 H 0.4909 0.5013 0.6420
C4_2 C 0.6900(7) 0.4555(3) 0.6491(2)
H5_2 H 0.7083 0.4589 0.6138
C5_2 C 0.7918(6) 0.4249(3) 0.6845(2)
H6_2 H 0.8788 0.4065 0.6728
C6_2 C 0.3982(6) 0.5039(3) 0.7363(2)
H7_2 H 0.3965 0.5539 0.7315
H8_2 H 0.3146 0.4848 0.7143
C7_2 C 0.4265(5) 0.5294(3) 0.8288(2)
C8_2 C 0.3786(6) 0.5139(3) 0.8813(2)
H9_2 H 0.3328 0.4682 0.8804
H10_2 H 0.3025 0.5473 0.8890
C9_2 C 0.5003(6) 0.5155(3) 0.9253(2)
H11_2 H 0.5482 0.5607 0.9262
H12_2 H 0.5750 0.4809 0.9188
C10_2 C 0.4412(6) 0.5013(3) 0.9779(2)
H13_2 H 0.3700 0.5374 0.9849
H14_2 H 0.3881 0.4574 0.9760
C40_2 C 0.8544(6) 0.1729(3) 0.4080(2)
H36_2 H 0.7843 0.1688 0.3791
C41_2 C 0.8079(6) 0.1876(3) 0.4563(2)
H37_2 H 0.7067 0.1937 0.4602
C42_2 C 0.9085(6) 0.1933(3) 0.4984(2)
H38_2 H 0.8754 0.2026 0.5312
loop_
_geom_bond_atom_site_label_1
_geom_bond_atom_site_label_2
_geom_bond_site_symmetry_1
_geom_bond_site_symmetry_2
H7 C6 1_555 1_555
C8 C7 1_555 1_555
H10 C8 1_555 1_555
H13 C10 1_555 1_555
N5 C45 1_555 1_555
C45 H40 1_555 1_555
C46 C45 1_555 1_555
C47 C46 1_555 1_555
C48 C47 1_555 1_555
H42 C48 1_555 1_555
C49 N5 1_555 1_555
H43 C49 1_555 1_555
Cd8 N5 1_555 1_555
C48 C49 1_555 1_555
N2 H1 1_555 1_555
H48 C53 1_555 1_555
H11 C9 1_555 1_555
N6 H39 1_555 1_555
O9 C44 1_555 1_555
O10 C44 1_555 1_555
H34 C36 1_555 1_555
C37 C36 1_555 1_555
C38 C37 1_555 1_555
C39 C38 1_555 1_555
H35 C39 1_555 1_555
C40 C39 1_555 1_555
H36 C40 1_555 1_555
C41 C40 1_555 1_555
H37 C41 1_555 1_555
C42 C41 1_555 1_555
C44 C37 1_555 1_555
N8 H52 1_555 1_555
C60 N8 1_555 1_555
H57 C60 1_555 1_555
H58 C60 1_555 1_555
C61 N8 1_555 1_555
C62 C61 1_555 1_555
H59 C62 1_555 1_555
H60 C62 1_555 1_555
H63 C64 1_555 1_555
H64 C64 1_555 1_555
O15 C76 1_555 1_555
O16 C76 1_555 1_555
H66 C68 1_555 1_555
C69 C68 1_555 1_555
C70 C69 1_555 1_555
C71 C70 1_555 1_555
H67 C71 1_555 1_555
C72 C71 1_555 1_555
H68 C72 1_555 1_555
C76 C69 1_555 1_555
Cd8 O15 1_555 1_555
Cd9 O9 1_555 1_555
Cd12 O16 1_555 1_555
O10 Cd9 1_555 1_555
C38 C43 1_555 1_555
C42 C43 1_555 1_555
Cd1 O3 1_555 1_555
Cd2 O4 1_555 1_555
O3 C21 1_555 1_555
O4 C21 1_555 1_555
O7 Cd2 1_555 1_555
O8 Cd2 1_555 1_555
N1 Cd1 1_555 1_555
N3 Cd2 1_555 1_555
C1 N1 1_555 1_555
H3 C1 1_555 1_555
C2 C1 1_555 1_555
C3 C2 1_555 1_555
C4 C3 1_555 1_555
H5 C4 1_555 1_555
C5 N1 1_555 1_555
H6 C5 1_555 1_555
C11 N3 1_555 1_555
H15 C11 1_555 1_555
C12 C11 1_555 1_555
H16 C12 1_555 1_555
C13 C12 1_555 1_555
C14 C13 1_555 1_555
C15 N3 1_555 1_555
H18 C15 1_555 1_555
H23 C19 1_555 1_555
H24 C19 1_555 1_555
C21 C22 1_555 1_555
C22 C23 1_555 1_555
C23 H27 1_555 1_555
H31 C29 1_555 1_555
C30 C29 1_555 1_555
H32 C30 1_555 1_555
C31 C22 1_555 1_555
C33 O7 1_555 1_555
C34 C33 1_555 1_555
C35 C34 1_555 1_555
H33 C35 1_555 1_555
H44 C50 1_555 1_555
C52 C51 1_555 1_555
H47 C52 1_555 1_555
H50 C54 1_555 1_555
O21 Cd2 1_555 1_555
O23 Cd1 1_555 1_555
O25 Cd1 1_555 1_555
O27 Cd2 1_555 1_555
O30 Cd1 1_555 1_555
O32 Cd1 1_555 1_555
O8 C33 1_555 1_555
C4 C5 1_555 1_555
C14 C15 1_555 1_555
C30 C31 1_555 1_555
N7 C55 1_555 1_555
C55 H53 1_555 1_555
C56 C55 1_555 1_555
H54 C56 1_555 1_555
C57 C56 1_555 1_555
C58 C57 1_555 1_555
C59 N7 1_555 1_555
H56 C59 1_555 1_555
H61 C63 1_555 1_555
H62 C63 1_555 1_555
Cd8 O13 1_555 1_555
Cd12 N7 1_555 1_555
O13 C65 1_555 1_555
O14 Cd12 1_555 1_555
O17 Cd12 1_555 1_555
O18 Cd12 1_555 1_555
C65 O14 1_555 1_555
C66 C65 1_555 1_555
C67 C66 1_555 1_555
H65 C67 1_555 1_555
H69 C73 1_555 1_555
C74 C73 1_555 1_555
H70 C74 1_555 1_555
C75 C66 1_555 1_555
C77 O17 1_555 1_555
C78 C77 1_555 1_555
C79 C78 1_555 1_555
H71 C79 1_555 1_555
O22 Cd12 1_555 1_555
O24 Cd8 1_555 1_555
O29 Cd8 1_555 1_555
O31 Cd8 1_555 1_555
C58 C59 1_555 1_555
O18 C77 1_555 1_555
C74 C75 1_555 1_555
O25 C32 1_555 1_555
O27 C32 1_555 1_555
N4 H2 1_555 1_555
C16 N4 1_555 1_555
H19 C16 1_555 1_555
H20 C16 1_555 1_555
C17 N4 1_555 1_555
C18 C17 1_555 1_555
H21 C18 1_555 1_555
H22 C18 1_555 1_555
H25 C20 1_555 1_555
H26 C20 1_555 1_555
H28 C24 1_555 1_555
C25 C24 1_555 1_555
C26 C25 1_555 1_555
C27 C26 1_555 1_555
H29 C27 1_555 1_555
C28 C27 1_555 1_555
H30 C28 1_555 1_555
C32 C25 1_555 1_555
O19 C88 1_555 1_555
O20 C88 1_555 1_555
H72 C80 1_555 1_555
C81 C80 1_555 1_555
C82 C81 1_555 1_555
C83 C82 1_555 1_555
H73 C83 1_555 1_555
C84 C83 1_555 1_555
H74 C84 1_555 1_555
C85 C84 1_555 1_555
H75 C85 1_555 1_555
C86 C85 1_555 1_555
C88 C81 1_555 1_555
O19 Cd6 1_555 1_555
O20 Cd6 1_555 1_555
C82 C87 1_555 1_555
C86 C87 1_555 1_555
H74_2 C84_2 1_555 1_555
C85_2 C84_2 1_555 1_555
H75_2 C85_2 1_555 1_555
C86_2 C85_2 1_555 1_555
H76_2 C86_2 1_555 1_555
O26 Cd9 1_555 1_555
N9 Cd9 1_555 1_555
Cd11 O4_2 1_555 1_555
O3_2 C21_2 1_555 1_555
O4_2 C21_2 1_555 1_555
O5 C32_2 1_555 1_555
O6 C32_2 1_555 1_555
O7_2 Cd11 1_555 1_555
O8_2 Cd11 1_555 1_555
O29 C44_2 1_555 1_555
O31 C44_2 1_555 1_555
N3_2 Cd11 1_555 1_555
N4_2 H2_2 1_555 1_555
C11_2 N3_2 1_555 1_555
H15_2 C11_2 1_555 1_555
C12_2 C11_2 1_555 1_555
H16_2 C12_2 1_555 1_555
C13_2 C12_2 1_555 1_555
H17_2 C13_2 1_555 1_555
C14_2 C13_2 1_555 1_555
C15_2 N3_2 1_555 1_555
H18_2 C15_2 1_555 1_555
C16_2 N4_2 1_555 1_555
H19_2 C16_2 1_555 1_555
H20_2 C16_2 1_555 1_555
C17_2 N4_2 1_555 1_555
C18_2 C17_2 1_555 1_555
H21_2 C18_2 1_555 1_555
H22_2 C18_2 1_555 1_555
C19_2 C18_2 1_555 1_555
H24_2 C19_2 1_555 1_555
C20_2 C19_2 1_555 1_555
H25_2 C20_2 1_555 1_555
C21_2 C22_2 1_555 1_555
C22_2 C23_2 1_555 1_555
C23_2 H27_2 1_555 1_555
C24_2 C23_2 1_555 1_555
H28_2 C24_2 1_555 1_555
C25_2 C24_2 1_555 1_555
C26_2 C25_2 1_555 1_555
C27_2 C26_2 1_555 1_555
H29_2 C27_2 1_555 1_555
C28_2 C27_2 1_555 1_555
H30_2 C28_2 1_555 1_555
C29_2 C28_2 1_555 1_555
H31_2 C29_2 1_555 1_555
C30_2 C29_2 1_555 1_555
H32_2 C30_2 1_555 1_555
C31_2 C22_2 1_555 1_555
C32_2 C25_2 1_555 1_555
C33_2 O7_2 1_555 1_555
C34_2 C33_2 1_555 1_555
C35_2 C34_2 1_555 1_555
H33_2 C35_2 1_555 1_555
C36_2 C35_2 1_555 1_555
H34_2 C36_2 1_555 1_555
C37_2 C36_2 1_555 1_555
C38_2 C37_2 1_555 1_555
C39_2 C38_2 1_555 1_555
H35_2 C39_2 1_555 1_555
C43_2 C34_2 1_555 1_555
C44_2 C37_2 1_555 1_555
Cd6 O5 1_555 1_555
O8_2 C33_2 1_555 1_555
C14_2 C15_2 1_555 1_555
C14_2 C16_2 1_555 1_555
C26_2 C31_2 1_555 1_555
C30_2 C31_2 1_555 1_555
C38_2 C43_2 1_555 1_555
N7_2 C55_2 1_555 1_555
N8_2 H52_2 1_555 1_555
C55_2 H53_2 1_555 1_555
C56_2 C55_2 1_555 1_555
H54_2 C56_2 1_555 1_555
C57_2 C56_2 1_555 1_555
H55_2 C57_2 1_555 1_555
C58_2 C57_2 1_555 1_555
C59_2 N7_2 1_555 1_555
H56_2 C59_2 1_555 1_555
C60_2 N8_2 1_555 1_555
H57_2 C60_2 1_555 1_555
H58_2 C60_2 1_555 1_555
C61_2 N8_2 1_555 1_555
C62_2 C61_2 1_555 1_555
H59_2 C62_2 1_555 1_555
H60_2 C62_2 1_555 1_555
C63_2 C62_2 1_555 1_555
H62_2 C63_2 1_555 1_555
H63_2 C64_2 1_555 1_555
Cd13 N7_2 1_555 1_555
O13_2 C65_2 1_555 1_555
O14_2 Cd13 1_555 1_555
O26 C76_2 1_555 1_555
O28 C76_2 1_555 1_555
O17_2 Cd13 1_555 1_555
O18_2 Cd13 1_555 1_555
O30 C88_2 1_555 1_555
O32 C88_2 1_555 1_555
C65_2 O14_2 1_555 1_555
C66_2 C65_2 1_555 1_555
C67_2 C66_2 1_555 1_555
H65_2 C67_2 1_555 1_555
C68_2 C67_2 1_555 1_555
H66_2 C68_2 1_555 1_555
C69_2 C68_2 1_555 1_555
C70_2 C69_2 1_555 1_555
C71_2 C70_2 1_555 1_555
H67_2 C71_2 1_555 1_555
C72_2 C71_2 1_555 1_555
H68_2 C72_2 1_555 1_555
C73_2 C72_2 1_555 1_555
H69_2 C73_2 1_555 1_555
C74_2 C73_2 1_555 1_555
H70_2 C74_2 1_555 1_555
C75_2 C66_2 1_555 1_555
C76_2 C69_2 1_555 1_555
C77_2 O17_2 1_555 1_555
C78_2 C77_2 1_555 1_555
C79_2 C78_2 1_555 1_555
H71_2 C79_2 1_555 1_555
C80_2 C79_2 1_555 1_555
H72_2 C80_2 1_555 1_555
C81_2 C80_2 1_555 1_555
C82_2 C81_2 1_555 1_555
C83_2 C82_2 1_555 1_555
H73_2 C83_2 1_555 1_555
C87_2 C78_2 1_555 1_555
C88_2 C81_2 1_555 1_555
C58_2 C59_2 1_555 1_555
C58_2 C60_2 1_555 1_555
C63_2 C64_2 1_555 1_555
O18_2 C77_2 1_555 1_555
C70_2 C75_2 1_555 1_555
C74_2 C75_2 1_555 1_555
C82_2 C87_2 1_555 1_555
O22 C51_2 1_555 1_555
N9 C45_2 1_555 1_555
N6_2 H39_2 1_555 1_555
C45_2 H40_2 1_555 1_555
C46_2 C45_2 1_555 1_555
C47_2 C46_2 1_555 1_555
H41_2 C47_2 1_555 1_555
C48_2 C47_2 1_555 1_555
H42_2 C48_2 1_555 1_555
C49_2 N9 1_555 1_555
H43_2 C49_2 1_555 1_555
C50_2 N6_2 1_555 1_555
H44_2 C50_2 1_555 1_555
H45_2 C50_2 1_555 1_555
C51_2 N6_2 1_555 1_555
C52_2 C51_2 1_555 1_555
H46_2 C52_2 1_555 1_555
H47_2 C52_2 1_555 1_555
C53_2 C52_2 1_555 1_555
H48_2 C53_2 1_555 1_555
H49_2 C53_2 1_555 1_555
H50_2 C54_2 1_555 1_555
H51_2 C54_2 1_555 1_555
C46_2 C50_2 1_555 1_555
C48_2 C49_2 1_555 1_555
C53_2 C54_2 1_555 1_555
O21 C7_2 1_555 1_555
N1_2 Cd6 1_555 1_555
N2_2 H1_2 1_555 1_555
C1_2 N1_2 1_555 1_555
H3_2 C1_2 1_555 1_555
C2_2 C1_2 1_555 1_555
C3_2 C2_2 1_555 1_555
H4_2 C3_2 1_555 1_555
C4_2 C3_2 1_555 1_555
H5_2 C4_2 1_555 1_555
C5_2 N1_2 1_555 1_555
H6_2 C5_2 1_555 1_555
C6_2 N2_2 1_555 1_555
H7_2 C6_2 1_555 1_555
H8_2 C6_2 1_555 1_555
C7_2 N2_2 1_555 1_555
C8_2 C7_2 1_555 1_555
H9_2 C8_2 1_555 1_555
H10_2 C8_2 1_555 1_555
C9_2 C8_2 1_555 1_555
H11_2 C9_2 1_555 1_555
H12_2 C9_2 1_555 1_555
C10_2 C9_2 1_555 1_555
H13_2 C10_2 1_555 1_555
H14_2 C10_2 1_555 1_555
H36_2 C40_2 1_555 1_555
C41_2 C40_2 1_555 1_555
H37_2 C41_2 1_555 1_555
C42_2 C41_2 1_555 1_555
H38_2 C42_2 1_555 1_555
C2_2 C6_2 1_555 1_555
C4_2 C5_2 1_555 1_555

#END
