
###############################################################################
#
# This file contains modified crystal structure data generated from the
# MOF subset of the Cambridge Structural Database (CSD) v543 
# hosted by the Cambridge Crystallographic Data Centre (CCDC).
#
# This work is licensed under the Creative Commons
# Attribution-NonCommercial-ShareAlike 4.0 International License.
# To view a copy of this license, visit
# http://creativecommons.org/licenses/by-nc-sa/4.0/
# or send a letter to
# Creative Commons, PO Box 1866, Mountain View, CA 94042, USA.
#
# CIF created using the CSD Python API on 29 September 2022
# The structure has been converted into the P1 space group
# The structure has a 3D framework
# The original CSD entry QUCZEV is in the orthorhombic crystal system
# The original CSD entry QUCZEV is in a Sohncke space group
# The framework has been calculated to contain at least 10.0% void space
# The void calculation uses a probe of radius 1.32A, grid spacing 0.4
#
###############################################################################

data_QUCZEV
_chemical_formula_moiety         '(C80 H88 Cd4 N12 O26)n'
_symmetry_cell_setting           triclinic
_symmetry_space_group_name_H-M   'P 1'
_symmetry_Int_Tables_number      1
_space_group_name_Hall           'P 1'
loop_
_symmetry_equiv_pos_site_id
_symmetry_equiv_pos_as_xyz
1 x,y,z
_cell_length_a                   12.8564(10)
_cell_length_b                   13.0151(5)
_cell_length_c                   23.0858(8)
_cell_angle_alpha                90
_cell_angle_beta                 90
_cell_angle_gamma                90
_cell_volume                     3862.89
loop_
_atom_site_label
_atom_site_type_symbol
_atom_site_fract_x
_atom_site_fract_y
_atom_site_fract_z
Cd1 Cd 0.371778(13) 0.149508(12) 0.856790(5)
O1 O 0.35076(14) 0.15514(15) 0.66031(8)
N1 N 0.48268(16) 0.01978(15) 0.82265(7)
C7 C 0.27652(19) 0.09890(18) 0.64699(9)
O6 O 0.28186(16) 0.25051(17) 0.78375(7)
C8 C 0.2503(2) 0.00168(19) 0.55008(10)
H3 H 0.2008 0.0494 0.5383
O7 O 0.24859(17) 0.09018(16) 0.78336(8)
C9 C 0.2975(2) 0.01240(17) 0.60470(8)
N2 N 0.1843(2) 0.1105(2) 0.66476(10)
C10 C 0.23861(19) 0.1759(2) 0.76264(10)
C11 C 0.5343(2) 0.0574(2) 0.76744(10)
H4 H 0.5778 0.1165 0.7759
H5 H 0.4817 0.0782 0.7397
H14 H 0.6067 0.0578 0.8720
C17 C 0.1695(2) 0.1967(3) 0.70903(14)
H16 H 0.1796 0.2654 0.6926
C18 C 0.0959(2) 0.0458(2) 0.65487(13)
H18 H 0.0611 0.0630 0.6189
C19 C 0.0519(2) 0.1738(2) 0.72631(13)
H19 H 0.0430 0.1800 0.7679
H20 H 0.0059 0.2227 0.7075
C20 C 0.0275(3) 0.0714(3) 0.70794(16)
H22 H 0.0412 0.0232 0.7390
O8 O 0.50157(19) 0.20658(15) 0.93042(8)
O9 O 0.48700(16) 0.28220(15) 0.84705(7)
O10 O 0.33536(17) 0.02105(15) 0.93784(7)
O11 O 0.25312(15) 0.17056(15) 0.92667(7)
C1 C 0.34832(18) 0.85101(19) 0.53131(8)
H1 H 0.3669 0.7979 0.5065
O2 O 0.49843(19) 0.70658(15) 0.56958(8)
O3 O 0.51300(16) 0.78220(15) 0.65295(7)
C2 C 0.4753(2) 0.77545(16) 0.60341(9)
C3 C 0.39417(17) 0.85718(16) 0.58541(8)
O4 O 0.16464(17) 0.97895(15) 0.43784(7)
C4 C 0.3694(2) 0.93933(17) 0.62230(8)
H2 H 0.4011 0.9448 0.6584
C5 C 0.2251(2) 0.9123(2) 0.45523(9)
C6 C 0.27624(19) 0.92152(17) 0.51373(8)
O5 O 0.24688(15) 0.82944(15) 0.42667(7)
N3 N 0.6015(2) 0.87954(17) 0.78407(10)
C12 C 0.4246(2) 0.9250(2) 0.81042(13)
H6 H 0.3716 0.9391 0.7816
H7 H 0.3901 0.9021 0.8455
C13 C 0.6013(3) 0.9700(2) 0.74166(12)
H8 H 0.5729 0.9484 0.7047
H9 H 0.6719 0.9940 0.7354
C14 C 0.4965(2) 0.8394(2) 0.78819(12)
H10 H 0.4949 0.7815 0.8146
H11 H 0.4732 0.8161 0.7504
C15 C 0.6365(3) 0.9134(3) 0.84472(14)
H12 H 0.6337 0.8556 0.8712
H13 H 0.7075 0.9383 0.8433
C16 C 0.5662(2) 0.9962(2) 0.86501(14)
H15 H 0.5348 0.9756 0.9014
H17 H 0.1153 0.9738 0.6543
Cd2 Cd 0.128222(13) 0.850492(12) 0.356790(5)
Cd3 Cd 0.628222(13) 0.649508(12) 0.643210(5)
C1_2 C 0.15168(18) 0.14899(19) 0.03131(8)
H1_2 H 0.1331 0.2021 0.0065
O2_2 O 0.00157(19) 0.29342(15) 0.06958(8)
C2_2 C 0.0247(2) 0.22455(16) 0.10341(9)
C3_2 C 0.10583(17) 0.14282(16) 0.08541(8)
C4_2 C 0.1306(2) 0.06067(17) 0.12230(8)
H2_2 H 0.0989 0.0552 0.1584
C6_2 C 0.22376(19) 0.07848(17) 0.01373(8)
C12_2 C 0.0754(2) 0.0750(2) 0.31042(13)
H6_2 H 0.1284 0.0609 0.2816
H7_2 H 0.1099 0.0979 0.3455
C14_2 C 0.0035(2) 0.1606(2) 0.28819(12)
H10_2 H 0.0051 0.2185 0.3146
H11_2 H 0.0268 0.1839 0.2504
H17_2 H 0.3847 0.0262 0.1543
C5_2 C 0.2749(2) 0.0877(2) 0.95523(9)
O1_2 O 0.14924(14) 0.84486(15) 0.16031(8)
N1_2 N 0.01732(16) 0.98022(15) 0.32265(7)
C7_2 C 0.22348(19) 0.90110(18) 0.14699(9)
O6_2 O 0.21814(16) 0.74949(17) 0.28375(7)
C8_2 C 0.2497(2) 0.99832(19) 0.05008(10)
H3_2 H 0.2992 0.9506 0.0383
O7_2 O 0.25141(17) 0.90982(16) 0.28336(8)
C9_2 C 0.2025(2) 0.98760(17) 0.10470(8)
N2_2 N 0.3157(2) 0.8895(2) 0.16476(10)
C10_2 C 0.26139(19) 0.8241(2) 0.26264(10)
H5_2 H 0.0183 0.9218 0.2397
C17_2 C 0.3305(2) 0.8033(3) 0.20903(14)
H16_2 H 0.3204 0.7346 0.1926
C18_2 C 0.4041(2) 0.9542(2) 0.15487(13)
H18_2 H 0.4389 0.9370 0.1189
C19_2 C 0.4481(2) 0.8262(2) 0.22631(13)
H19_2 H 0.4570 0.8200 0.2679
H20_2 H 0.4941 0.7773 0.2075
C20_2 C 0.4725(3) 0.9286(3) 0.20794(16)
H21 H 0.5455 0.9333 0.1977
H22_2 H 0.4588 0.9768 0.2390
O9_2 O 0.01300(16) 0.71780(15) 0.34705(7)
O3_2 O 0.98700(16) 0.21780(15) 0.15295(7)
N3_2 N 0.8985(2) 0.12046(17) 0.28407(10)
C13_2 C 0.8987(3) 0.0300(2) 0.24166(12)
H8_2 H 0.9271 0.0516 0.2047
H9_2 H 0.8281 0.0060 0.2354
C15_2 C 0.8635(3) 0.0866(3) 0.34472(14)
H12_2 H 0.8663 0.1444 0.3712
H13_2 H 0.7925 0.0617 0.3433
C16_2 C 0.9338(2) 0.0038(2) 0.36501(14)
H15_2 H 0.9652 0.0244 0.4014
Cd3_2 Cd 0.871778(13) 0.350492(12) 0.143210(5)
C11_2 C 0.9657(2) 0.9426(2) 0.26744(10)
H4_2 H 0.9222 0.8835 0.2759
H14_2 H 0.8933 0.9422 0.3720
O8_2 O 0.99843(19) 0.79342(15) 0.43042(8)
O4_2 O 0.83536(17) 0.47895(15) 0.06216(7)
C5_3 C 0.7749(2) 0.4123(2) 0.04477(9)
O5_2 O 0.75312(15) 0.32944(15) 0.07333(7)
O1_3 O 0.64924(14) 0.65514(15) 0.83969(8)
C1_3 C 0.65168(18) 0.35101(19) 0.96869(8)
H1_3 H 0.6331 0.2979 0.9935
C2_3 C 0.5247(2) 0.27545(16) 0.89659(9)
N1_3 N 0.51732(16) 0.51978(15) 0.67735(7)
C3_3 C 0.60583(17) 0.35718(16) 0.91459(8)
C4_3 C 0.6306(2) 0.43933(17) 0.87770(8)
H2_3 H 0.5989 0.4448 0.8416
C6_3 C 0.72376(19) 0.42152(17) 0.98627(8)
C7_3 C 0.72348(19) 0.59890(18) 0.85301(9)
O6_3 O 0.71814(16) 0.75051(17) 0.71625(7)
C8_3 C 0.7497(2) 0.50168(19) 0.94992(10)
H3_3 H 0.7992 0.5494 0.9617
O7_3 O 0.75141(17) 0.59018(16) 0.71664(8)
C9_3 C 0.7025(2) 0.51240(17) 0.89530(8)
N2_3 N 0.8157(2) 0.6105(2) 0.83524(10)
N3_3 N 0.3985(2) 0.37954(17) 0.71593(10)
C10_3 C 0.76139(19) 0.6759(2) 0.73736(10)
C11_3 C 0.4657(2) 0.5574(2) 0.73256(10)
H4_3 H 0.4222 0.6165 0.7241
H5_3 H 0.5183 0.5782 0.7603
C12_3 C 0.5754(2) 0.4250(2) 0.68958(13)
H6_3 H 0.6284 0.4391 0.7184
H7_3 H 0.6099 0.4021 0.6545
C13_3 C 0.3987(3) 0.4700(2) 0.75834(12)
H8_3 H 0.4271 0.4484 0.7953
H9_3 H 0.3281 0.4940 0.7646
C14_3 C 0.5035(2) 0.3394(2) 0.71181(12)
H10_3 H 0.5051 0.2815 0.6854
H11_3 H 0.5268 0.3161 0.7496
C15_3 C 0.3635(3) 0.4134(3) 0.65528(14)
H12_3 H 0.3663 0.3556 0.6288
H13_3 H 0.2925 0.4383 0.6567
C16_3 C 0.4338(2) 0.4962(2) 0.63499(14)
H14_3 H 0.3933 0.5578 0.6280
H15_3 H 0.4652 0.4756 0.5986
C17_3 C 0.8305(2) 0.6967(3) 0.79097(14)
H16_3 H 0.8204 0.7654 0.8074
C18_3 C 0.9041(2) 0.5458(2) 0.84513(13)
H17_3 H 0.8847 0.4738 0.8457
H18_3 H 0.9389 0.5630 0.8811
C19_3 C 0.9481(2) 0.6738(2) 0.77369(13)
H19_3 H 0.9570 0.6800 0.7321
H20_3 H 0.9941 0.7227 0.7925
C20_3 C 0.9725(3) 0.5714(3) 0.79206(16)
H22_3 H 0.9588 0.5232 0.7610
O10_2 O 0.66464(17) 0.52105(15) 0.56216(7)
O11_2 O 0.74688(15) 0.67056(15) 0.57333(7)
N3_4 N 0.1015(2) 0.62046(17) 0.21593(10)
C11_4 C 0.0343(2) 0.4426(2) 0.23256(10)
H4_4 H 0.0778 0.3835 0.2241
C13_4 C 0.1013(3) 0.5300(2) 0.25834(12)
H8_4 H 0.0729 0.5516 0.2953
H9_4 H 0.1719 0.5060 0.2646
C15_4 C 0.1365(3) 0.5866(3) 0.15528(14)
H12_4 H 0.1337 0.6444 0.1288
H13_4 H 0.2075 0.5617 0.1567
C16_4 C 0.0662(2) 0.5038(2) 0.13499(14)
H14_4 H 0.1067 0.4422 0.1280
H15_4 H 0.0348 0.5244 0.0986
O1_4 O 0.85076(14) 0.34486(15) 0.33969(8)
C1_4 C 0.84832(18) 0.64899(19) 0.46869(8)
H1_4 H 0.8669 0.7021 0.4935
C2_4 C 0.9753(2) 0.72455(16) 0.39659(9)
N1_4 N 0.98268(16) 0.48022(15) 0.17735(7)
C3_4 C 0.89417(17) 0.64282(16) 0.41459(8)
C4_4 C 0.8694(2) 0.56067(17) 0.37770(8)
H2_4 H 0.9011 0.5552 0.3416
C5_4 C 0.7251(2) 0.5877(2) 0.54477(9)
C6_4 C 0.77624(19) 0.57848(17) 0.48627(8)
C7_4 C 0.77652(19) 0.40110(18) 0.35301(9)
O6_4 O 0.78186(16) 0.24949(17) 0.21625(7)
C8_4 C 0.7503(2) 0.49832(19) 0.44992(10)
H3_4 H 0.7008 0.4506 0.4617
O7_4 O 0.74859(17) 0.40982(16) 0.21664(8)
C9_4 C 0.7975(2) 0.48760(17) 0.39530(8)
N2_4 N 0.6843(2) 0.3895(2) 0.33524(10)
C10_4 C 0.73861(19) 0.3241(2) 0.23736(10)
H5_4 H 0.9817 0.4218 0.2603
C12_4 C 0.9246(2) 0.5750(2) 0.18958(13)
H6_4 H 0.8716 0.5609 0.2184
H7_4 H 0.8901 0.5979 0.1545
C14_4 C 0.9965(2) 0.6606(2) 0.21181(12)
H10_4 H 0.9949 0.7185 0.1854
H11_4 H 0.9732 0.6839 0.2496
C17_4 C 0.6695(2) 0.3033(3) 0.29097(14)
H16_4 H 0.6796 0.2346 0.3074
C18_4 C 0.5959(2) 0.4542(2) 0.34513(13)
H17_4 H 0.6153 0.5262 0.3457
H18_4 H 0.5611 0.4370 0.3811
C19_4 C 0.5519(2) 0.3262(2) 0.27369(13)
H19_4 H 0.5430 0.3200 0.2321
H20_4 H 0.5059 0.2773 0.2925
C20_4 C 0.5275(3) 0.4286(3) 0.29206(16)
H21_2 H 0.4545 0.4333 0.3023
H22_4 H 0.5412 0.4768 0.2610
H21_3 H 0.9545 0.0667 0.6977
H21_4 H 0.0455 0.5667 0.8023
loop_
_geom_bond_atom_site_label_1
_geom_bond_atom_site_label_2
_geom_bond_site_symmetry_1
_geom_bond_site_symmetry_2
Cd1 N1 1_555 1_555
O1 C7 1_555 1_555
N1 C11 1_555 1_555
C7 C9 1_555 1_555
O6 Cd1 1_555 1_555
H3 C8 1_555 1_555
O7 Cd1 1_555 1_555
N2 C7 1_555 1_555
C10 O6 1_555 1_555
C11 H4 1_555 1_555
H5 C11 1_555 1_555
C17 N2 1_555 1_555
H16 C17 1_555 1_555
C18 N2 1_555 1_555
H18 C18 1_555 1_555
C19 C17 1_555 1_555
H19 C19 1_555 1_555
H20 C19 1_555 1_555
C20 C18 1_555 1_555
H22 C20 1_555 1_555
O8 Cd1 1_555 1_555
O9 Cd1 1_555 1_555
O10 Cd1 1_555 1_555
O11 Cd1 1_555 1_555
C8 C9 1_555 1_555
O7 C10 1_555 1_555
C10 C17 1_555 1_555
C19 C20 1_555 1_555
C1 H1 1_555 1_555
O2 C2 1_555 1_555
O3 C2 1_555 1_555
C2 C3 1_555 1_555
C3 C1 1_555 1_555
O4 C5 1_555 1_555
C4 C3 1_555 1_555
H2 C4 1_555 1_555
C5 C6 1_555 1_555
C6 C1 1_555 1_555
O5 C5 1_555 1_555
N3 C13 1_555 1_555
H6 C12 1_555 1_555
H7 C12 1_555 1_555
H8 C13 1_555 1_555
H9 C13 1_555 1_555
C14 N3 1_555 1_555
H10 C14 1_555 1_555
H11 C14 1_555 1_555
C15 N3 1_555 1_555
H12 C15 1_555 1_555
H13 C15 1_555 1_555
H15 C16 1_555 1_555
Cd2 O4 1_555 1_555
Cd3 O2 1_555 1_555
O3 Cd3 1_555 1_555
O5 Cd2 1_555 1_555
C12 C14 1_555 1_555
C15 C16 1_555 1_555
C1_2 H1_2 1_555 1_555
O2_2 C2_2 1_555 1_555
C2_2 C3_2 1_555 1_555
C3_2 C1_2 1_555 1_555
C4_2 C3_2 1_555 1_555
H2_2 C4_2 1_555 1_555
C6_2 C1_2 1_555 1_555
H6_2 C12_2 1_555 1_555
H7_2 C12_2 1_555 1_555
H10_2 C14_2 1_555 1_555
H11_2 C14_2 1_555 1_555
C12_2 C14_2 1_555 1_555
O10 C5_2 1_555 1_555
O11 C5_2 1_555 1_555
Cd2 N1_2 1_555 1_555
O1_2 C7_2 1_555 1_555
C7_2 C9_2 1_555 1_555
O6_2 Cd2 1_555 1_555
H3_2 C8_2 1_555 1_555
O7_2 Cd2 1_555 1_555
N2_2 C7_2 1_555 1_555
C10_2 O6_2 1_555 1_555
C17_2 N2_2 1_555 1_555
H16_2 C17_2 1_555 1_555
C18_2 N2_2 1_555 1_555
H18_2 C18_2 1_555 1_555
C19_2 C17_2 1_555 1_555
H19_2 C19_2 1_555 1_555
H20_2 C19_2 1_555 1_555
C20_2 C18_2 1_555 1_555
H21 C20_2 1_555 1_555
H22_2 C20_2 1_555 1_555
O9_2 Cd2 1_555 1_555
C8_2 C9_2 1_555 1_555
O7_2 C10_2 1_555 1_555
C10_2 C17_2 1_555 1_555
C19_2 C20_2 1_555 1_555
N3_2 C13_2 1_555 1_555
H8_2 C13_2 1_555 1_555
H9_2 C13_2 1_555 1_555
C15_2 N3_2 1_555 1_555
H12_2 C15_2 1_555 1_555
H13_2 C15_2 1_555 1_555
H15_2 C16_2 1_555 1_555
O3_2 Cd3_2 1_555 1_555
C15_2 C16_2 1_555 1_555
C11_2 H4_2 1_555 1_555
O4_2 C5_3 1_555 1_555
O5_2 C5_3 1_555 1_555
Cd3_2 O4_2 1_555 1_555
O5_2 Cd3_2 1_555 1_555
Cd3 N1_3 1_555 1_555
O1_3 C7_3 1_555 1_555
C1_3 H1_3 1_555 1_555
O8 C2_3 1_555 1_555
O9 C2_3 1_555 1_555
C2_3 C3_3 1_555 1_555
N1_3 C11_3 1_555 1_555
C3_3 C1_3 1_555 1_555
C4_3 C3_3 1_555 1_555
H2_3 C4_3 1_555 1_555
C6_3 C1_3 1_555 1_555
C7_3 C9_3 1_555 1_555
O6_3 Cd3 1_555 1_555
C8_3 C6_3 1_555 1_555
H3_3 C8_3 1_555 1_555
O7_3 Cd3 1_555 1_555
C9_3 C4_3 1_555 1_555
N2_3 C7_3 1_555 1_555
N3_3 C13_3 1_555 1_555
C10_3 O6_3 1_555 1_555
C11_3 H4_3 1_555 1_555
H5_3 C11_3 1_555 1_555
C12_3 N1_3 1_555 1_555
H6_3 C12_3 1_555 1_555
H7_3 C12_3 1_555 1_555
C13_3 C11_3 1_555 1_555
H8_3 C13_3 1_555 1_555
H9_3 C13_3 1_555 1_555
C14_3 N3_3 1_555 1_555
H10_3 C14_3 1_555 1_555
H11_3 C14_3 1_555 1_555
C15_3 N3_3 1_555 1_555
H12_3 C15_3 1_555 1_555
H13_3 C15_3 1_555 1_555
C16_3 N1_3 1_555 1_555
H14_3 C16_3 1_555 1_555
H15_3 C16_3 1_555 1_555
C17_3 N2_3 1_555 1_555
H16_3 C17_3 1_555 1_555
C18_3 N2_3 1_555 1_555
H17_3 C18_3 1_555 1_555
H18_3 C18_3 1_555 1_555
C19_3 C17_3 1_555 1_555
H19_3 C19_3 1_555 1_555
H20_3 C19_3 1_555 1_555
C20_3 C18_3 1_555 1_555
H22_3 C20_3 1_555 1_555
O10_2 Cd3 1_555 1_555
O11_2 Cd3 1_555 1_555
C8_3 C9_3 1_555 1_555
O7_3 C10_3 1_555 1_555
C10_3 C17_3 1_555 1_555
C12_3 C14_3 1_555 1_555
C15_3 C16_3 1_555 1_555
C19_3 C20_3 1_555 1_555
N3_4 C13_4 1_555 1_555
C11_4 H4_4 1_555 1_555
C13_4 C11_4 1_555 1_555
H8_4 C13_4 1_555 1_555
H9_4 C13_4 1_555 1_555
C15_4 N3_4 1_555 1_555
H12_4 C15_4 1_555 1_555
H13_4 C15_4 1_555 1_555
H14_4 C16_4 1_555 1_555
H15_4 C16_4 1_555 1_555
C15_4 C16_4 1_555 1_555
Cd3_2 N1_4 1_555 1_555
O1_4 C7_4 1_555 1_555
C1_4 H1_4 1_555 1_555
O8_2 C2_4 1_555 1_555
C2_4 C3_4 1_555 1_555
C3_4 C1_4 1_555 1_555
O10_2 C5_4 1_555 1_555
C4_4 C3_4 1_555 1_555
H2_4 C4_4 1_555 1_555
C5_4 C6_4 1_555 1_555
C6_4 C1_4 1_555 1_555
C7_4 C9_4 1_555 1_555
O11_2 C5_4 1_555 1_555
O6_4 Cd3_2 1_555 1_555
C8_4 C6_4 1_555 1_555
H3_4 C8_4 1_555 1_555
O7_4 Cd3_2 1_555 1_555
C9_4 C4_4 1_555 1_555
N2_4 C7_4 1_555 1_555
C10_4 O6_4 1_555 1_555
C12_4 N1_4 1_555 1_555
H6_4 C12_4 1_555 1_555
H7_4 C12_4 1_555 1_555
H10_4 C14_4 1_555 1_555
H11_4 C14_4 1_555 1_555
C17_4 N2_4 1_555 1_555
H16_4 C17_4 1_555 1_555
C18_4 N2_4 1_555 1_555
H17_4 C18_4 1_555 1_555
H18_4 C18_4 1_555 1_555
C19_4 C17_4 1_555 1_555
H19_4 C19_4 1_555 1_555
H20_4 C19_4 1_555 1_555
C20_4 C18_4 1_555 1_555
H21_2 C20_4 1_555 1_555
H22_4 C20_4 1_555 1_555
C8_4 C9_4 1_555 1_555
O7_4 C10_4 1_555 1_555
C10_4 C17_4 1_555 1_555
C12_4 C14_4 1_555 1_555
C19_4 C20_4 1_555 1_555

#END
