
###############################################################################
#
# This file contains modified crystal structure data generated from the
# MOF subset of the Cambridge Structural Database (CSD) v543 
# hosted by the Cambridge Crystallographic Data Centre (CCDC).
#
# This work is licensed under the Creative Commons
# Attribution-NonCommercial-ShareAlike 4.0 International License.
# To view a copy of this license, visit
# http://creativecommons.org/licenses/by-nc-sa/4.0/
# or send a letter to
# Creative Commons, PO Box 1866, Mountain View, CA 94042, USA.
#
# CIF created using the CSD Python API on 29 September 2022
# The structure has been converted into the P1 space group
# The structure has a 3D framework
# The original CSD entry QUDDUR is in the rhombohedral crystal system
# The framework has been calculated to contain at least 10.0% void space
# The void calculation uses a probe of radius 1.32A, grid spacing 0.4
#
###############################################################################

data_QUDDUR
_chemical_formula_moiety         '(C270 H216 Cu36 I25 N54 P18)n'
_symmetry_cell_setting           triclinic
_symmetry_space_group_name_H-M   'P 1'
_symmetry_Int_Tables_number      1
_space_group_name_Hall           'P 1'
loop_
_symmetry_equiv_pos_site_id
_symmetry_equiv_pos_as_xyz
1 x,y,z
_cell_length_a                   30.4981(11)
_cell_length_b                   30.4981(11)
_cell_length_c                   11.5146(4)
_cell_angle_alpha                90
_cell_angle_beta                 90
_cell_angle_gamma                120
_cell_volume                     9275.24
loop_
_atom_site_label
_atom_site_type_symbol
_atom_site_fract_x
_atom_site_fract_y
_atom_site_fract_z
I1 I 0.71375(2) 0.89356(2) 0.44606(4)
I2 I 0.52384(2) 0.63121(2) 0.95355(4)
Cu1 Cu 0.61947(3) 0.81911(3) 0.41813(7)
Cu2 Cu 0.54703(3) 0.68359(3) 0.77241(8)
P1 P 0.59027(7) 0.76444(7) 0.56538(15)
N1 N 0.5009(2) 0.6791(2) 0.6389(5)
N2 N 0.6070(2) 0.6928(2) 0.6728(5)
N3 N 0.5744(2) 0.7594(2) 0.8019(5)
C1 C 0.5241(3) 0.7125(3) 0.5493(6)
C2 C 0.4995(3) 0.7089(3) 0.4469(7)
H1 H 0.5163 0.7326 0.3861
C3 C 0.4496(3) 0.6704(3) 0.4332(7)
H2 H 0.4324 0.6667 0.3619
C4 C 0.4254(3) 0.6375(3) 0.5235(8)
H3 H 0.3909 0.6117 0.5170
C5 C 0.4526(3) 0.6431(3) 0.6248(7)
H4 H 0.4361 0.6202 0.6869
C6 C 0.6249(2) 0.7306(3) 0.5943(5)
C7 C 0.6705(3) 0.7469(3) 0.5359(6)
H5 H 0.6823 0.7737 0.4811
C8 C 0.6984(3) 0.7236(3) 0.5587(6)
H6 H 0.7301 0.7346 0.5216
C9 C 0.6792(3) 0.6838(3) 0.6369(6)
H7 H 0.6972 0.6664 0.6529
C10 C 0.6341(3) 0.6696(3) 0.6910(6)
H8 H 0.6213 0.6421 0.7440
C11 C 0.5910(3) 0.7907(3) 0.7106(6)
C12 C 0.6090(3) 0.8423(3) 0.7210(6)
H9 H 0.6209 0.8639 0.6550
C13 C 0.6093(3) 0.8615(3) 0.8297(6)
H10 H 0.6218 0.8967 0.8397
C14 C 0.5917(3) 0.8297(3) 0.9227(7)
H11 H 0.5909 0.8423 0.9976
C15 C 0.5748(3) 0.7785(3) 0.9070(7)
H12 H 0.5633 0.7566 0.9723
I3 I 0.61958(2) 0.77311(2) 0.22061(4)
I4 I 0.55930(3) 0.85717(2) 0.37978(4)
Cu3 Cu 0.48578(3) 0.53297(4) 0.91520(7)
Cu4 Cu 0.71386(3) 0.84756(3) 0.24854(7)
I1_2 I 0.10644(2) 0.82019(3) 0.44606(4)
I2_2 I 0.36879(2) 0.89263(3) 0.95355(4)
Cu1_2 Cu 0.18089(3) 0.80036(4) 0.41813(7)
Cu2_2 Cu 0.31641(3) 0.86344(4) 0.77241(8)
P1_2 P 0.23556(7) 0.82583(10) 0.56538(15)
N1_2 N 0.3209(2) 0.8218(3) 0.6389(5)
N2_2 N 0.3072(2) 0.9142(3) 0.6728(5)
N3_2 N 0.2406(2) 0.8150(3) 0.8019(5)
C1_2 C 0.2875(3) 0.8116(4) 0.5493(6)
C2_2 C 0.2911(3) 0.7906(4) 0.4469(7)
H1_2 H 0.2674 0.7837 0.3861
C3_2 C 0.3296(3) 0.7792(4) 0.4332(7)
H2_2 H 0.3333 0.7657 0.3619
C4_2 C 0.3625(3) 0.7879(4) 0.5235(8)
H3_2 H 0.3883 0.7792 0.5170
C5_2 C 0.3569(3) 0.8095(4) 0.6248(7)
H4_2 H 0.3798 0.8159 0.6869
C6_2 C 0.2694(3) 0.8943(4) 0.5943(5)
C7_2 C 0.2531(3) 0.9236(4) 0.5359(6)
H5_2 H 0.2263 0.9086 0.4811
C8_2 C 0.2764(3) 0.9748(4) 0.5587(6)
H6_2 H 0.2654 0.9955 0.5216
C9_2 C 0.3162(3) 0.9954(4) 0.6369(6)
C10_2 C 0.3304(3) 0.9645(4) 0.6910(6)
H8_2 H 0.3579 0.9792 0.7440
C11_2 C 0.2093(3) 0.8003(4) 0.7106(6)
C12_2 C 0.1577(3) 0.7667(4) 0.7210(6)
H9_2 H 0.1361 0.7570 0.6550
C13_2 C 0.1385(3) 0.7478(4) 0.8297(6)
H10_2 H 0.1033 0.7251 0.8397
C14_2 C 0.1703(3) 0.7620(4) 0.9227(7)
H11_2 H 0.1577 0.7486 0.9976
C15_2 C 0.2215(3) 0.7963(4) 0.9070(7)
H12_2 H 0.2434 0.8067 0.9723
I3_2 I 0.22689(2) 0.84648(3) 0.22061(4)
I4_2 I 0.14283(2) 0.70212(4) 0.37978(4)
Cu3_2 Cu 0.46703(4) 0.95280(5) 0.91520(7)
Cu4_2 Cu 0.15244(3) 0.86631(4) 0.24854(7)
I1_3 I 0.17981(3) 0.28625(2) 0.44606(4)
I2_3 I 0.10737(3) 0.47616(2) 0.95355(4)
Cu1_3 Cu 0.19964(4) 0.38053(3) 0.41813(7)
Cu2_3 Cu 0.13656(4) 0.45297(3) 0.77241(8)
P1_3 P 0.17417(10) 0.40973(7) 0.56538(15)
N1_3 N 0.1782(3) 0.4991(2) 0.6389(5)
N2_3 N 0.0858(3) 0.3930(2) 0.6728(5)
N3_3 N 0.1850(3) 0.4256(2) 0.8019(5)
C1_3 C 0.1884(4) 0.4759(3) 0.5493(6)
C2_3 C 0.2094(4) 0.5005(3) 0.4469(7)
H1_3 H 0.2163 0.4837 0.3861
C3_3 C 0.2208(4) 0.5504(3) 0.4332(7)
H2_3 H 0.2343 0.5676 0.3619
C4_3 C 0.2121(4) 0.5746(3) 0.5235(8)
H3_3 H 0.2208 0.6091 0.5170
C5_3 C 0.1905(4) 0.5474(3) 0.6248(7)
H4_3 H 0.1841 0.5639 0.6869
C6_3 C 0.1057(4) 0.3751(2) 0.5943(5)
C7_3 C 0.0764(4) 0.3295(3) 0.5359(6)
H5_3 H 0.0914 0.3177 0.4811
C8_3 C 0.0252(4) 0.3016(3) 0.5587(6)
H6_3 H 0.0045 0.2699 0.5216
C9_3 C 0.0046(4) 0.3208(3) 0.6369(6)
C10_3 C 0.0355(4) 0.3659(3) 0.6910(6)
H8_3 H 0.0208 0.3787 0.7440
C11_3 C 0.1997(4) 0.4090(3) 0.7106(6)
C12_3 C 0.2333(4) 0.3910(3) 0.7210(6)
H9_3 H 0.2430 0.3791 0.6550
C13_3 C 0.2522(4) 0.3907(3) 0.8297(6)
H10_3 H 0.2749 0.3782 0.8397
C14_3 C 0.2380(4) 0.4083(3) 0.9227(7)
H11_3 H 0.2514 0.4091 0.9976
C15_3 C 0.2037(4) 0.4252(3) 0.9070(7)
H12_3 H 0.1933 0.4367 0.9723
I3_3 I 0.15352(3) 0.38042(2) 0.22061(4)
I4_3 I 0.29788(4) 0.44070(3) 0.37978(4)
Cu3_3 Cu 0.04720(5) 0.51422(3) 0.91520(7)
Cu4_3 Cu 0.13369(4) 0.28614(3) 0.24854(7)
I2_4 I 0.19051(2) 0.96454(2) 0.28688(4)
H4_4 H 0.1028 0.9535 0.0202
H8_4 H 0.2880 0.9754 0.0773
I2_5 I 0.03546(2) 0.22596(3) 0.28688(4)
H4_5 H 0.0465 0.1492 0.0202
H8_5 H 0.0246 0.3125 0.0773
I2_6 I 0.77404(3) 0.80949(2) 0.28688(4)
Cu2_4 Cu 0.80323(4) 0.78630(3) 0.10574(8)
N2_4 N 0.7525(3) 0.7263(2) 0.0061(5)
N3_4 N 0.8517(3) 0.7589(2) 0.1352(5)
H4_6 H 0.8508 0.8972 0.0202
C10_4 C 0.7022(4) 0.6992(3) 0.0243(6)
H8_6 H 0.6875 0.7120 0.0773
C11_4 C 0.8664(4) 0.7423(3) 0.0439(6)
C12_4 C 0.9000(4) 0.7243(3) 0.0543(6)
C13_4 C 0.9189(4) 0.7240(3) 0.1630(6)
H10_4 H 0.9416 0.7115 0.1730
C14_4 C 0.9047(4) 0.7416(3) 0.2560(7)
H11_4 H 0.9181 0.7424 0.3309
C15_4 C 0.8704(4) 0.7585(3) 0.2403(7)
H12_4 H 0.8600 0.7700 0.3056
I3_4 I 0.56023(2) 0.51314(3) 0.88727(4)
P1_4 P 0.74306(7) 0.90223(7) 0.10129(15)
N1_4 N 0.8324(2) 0.9876(2) 0.0278(5)
C1_4 C 0.8092(3) 0.9542(3) 0.1174(6)
C2_4 C 0.8338(3) 0.9578(3) 0.2198(7)
H1_4 H 0.8170 0.9341 0.2806
C3_4 C 0.8837(3) 0.9963(3) 0.2335(7)
H2_4 H 0.9009 1.0000 0.3048
C6_4 C 0.7084(2) 0.9361(3) 0.0724(5)
C7_4 C 0.6628(3) 0.9198(3) 0.1308(6)
H5_4 H 0.6510 0.8930 0.1856
C8_4 C 0.6349(3) 0.9431(3) 0.1080(6)
H6_4 H 0.6032 0.9321 0.1451
C9_4 C 0.6541(3) 0.9829(3) 0.0298(6)
H9_4 H 0.7124 0.8028 0.0117
P1_5 P 0.09777(7) 0.84084(10) 0.10129(15)
N1_5 N 0.0124(2) 0.8449(3) 0.0278(5)
C1_5 C 0.0458(3) 0.8551(4) 0.1174(6)
C2_5 C 0.0422(3) 0.8761(4) 0.2198(7)
H1_5 H 0.0659 0.8830 0.2806
C3_5 C 0.0037(3) 0.8875(4) 0.2335(7)
H2_5 H 0.0000 0.9010 0.3048
C6_5 C 0.0639(3) 0.7724(4) 0.0724(5)
C7_5 C 0.0802(3) 0.7431(4) 0.1308(6)
H5_5 H 0.1070 0.7581 0.1856
C8_5 C 0.0569(3) 0.6919(4) 0.1080(6)
H6_5 H 0.0679 0.6712 0.1451
C9_5 C 0.0171(3) 0.6713(4) 0.0298(6)
H9_5 H 0.1972 0.9097 0.0117
P1_6 P 0.15916(10) 0.25694(7) 0.10129(15)
N1_6 N 0.1551(3) 0.1676(2) 0.0278(5)
C1_6 C 0.1449(4) 0.1908(3) 0.1174(6)
C2_6 C 0.1239(4) 0.1662(3) 0.2198(7)
H1_6 H 0.1170 0.1830 0.2806
C3_6 C 0.1125(4) 0.1163(3) 0.2335(7)
H2_6 H 0.0990 0.0991 0.3048
C4_4 C 0.1212(4) 0.0921(3) 0.1432(8)
H3_4 H 0.1125 0.0576 0.1497
C5_4 C 0.1428(4) 0.1193(3) 0.0419(7)
C6_6 C 0.2276(4) 0.2916(2) 0.0724(5)
C7_6 C 0.2569(4) 0.3372(3) 0.1308(6)
H5_6 H 0.2419 0.3490 0.1856
C8_6 C 0.3081(4) 0.3651(3) 0.1080(6)
H6_6 H 0.3288 0.3968 0.1451
C9_6 C 0.3287(4) 0.3459(3) 0.0298(6)
H7_2 H 0.3641 0.3639 0.0138
H9_6 H 0.0903 0.2876 0.0117
Cu2_5 Cu 0.11964(3) 0.64974(3) 0.56092(8)
P1_7 P 0.07640(7) 0.56889(7) 0.76795(15)
N1_7 N 0.1658(2) 0.6542(2) 0.6944(5)
N2_5 N 0.0597(2) 0.6405(2) 0.6605(5)
N3_5 N 0.0923(2) 0.5739(2) 0.5314(5)
C1_7 C 0.1426(3) 0.6208(3) 0.7840(6)
C2_7 C 0.1672(3) 0.6244(3) 0.8864(7)
H1_7 H 0.1504 0.6007 0.9472
C3_7 C 0.2171(3) 0.6629(3) 0.9001(7)
H2_7 H 0.2343 0.6666 0.9714
C4_5 C 0.2413(3) 0.6958(3) 0.8098(8)
H3_5 H 0.2758 0.7216 0.8163
C5_5 C 0.2141(3) 0.6902(3) 0.7085(7)
H4_7 H 0.2306 0.7131 0.6464
C6_7 C 0.0418(2) 0.6027(3) 0.7390(5)
C10_5 C 0.0326(3) 0.6637(3) 0.6423(6)
H8_7 H 0.0454 0.6912 0.5893
C11_5 C 0.0757(3) 0.5426(3) 0.6227(6)
C12_5 C 0.0577(3) 0.4910(3) 0.6123(6)
H9_7 H 0.0458 0.4694 0.6783
C13_5 C 0.0574(3) 0.4718(3) 0.5036(6)
H10_5 H 0.0449 0.4366 0.4936
C14_5 C 0.0750(3) 0.5036(3) 0.4106(7)
H11_5 H 0.0758 0.4910 0.3357
C15_5 C 0.0919(3) 0.5548(3) 0.4263(7)
H12_5 H 0.1034 0.5767 0.3610
Cu2_6 Cu 0.35026(3) 0.46989(4) 0.56092(8)
P1_8 P 0.43111(7) 0.50750(10) 0.76795(15)
N1_8 N 0.3458(2) 0.5115(3) 0.6944(5)
N2_6 N 0.3595(2) 0.4191(3) 0.6605(5)
N3_6 N 0.4261(2) 0.5183(3) 0.5314(5)
C1_8 C 0.3792(3) 0.5217(4) 0.7840(6)
C2_8 C 0.3756(3) 0.5427(4) 0.8864(7)
H1_8 H 0.3993 0.5496 0.9472
C3_8 C 0.3371(3) 0.5541(4) 0.9001(7)
H2_8 H 0.3334 0.5676 0.9714
C4_6 C 0.3042(3) 0.5454(4) 0.8098(8)
H3_6 H 0.2784 0.5541 0.8163
C5_6 C 0.3098(3) 0.5238(4) 0.7085(7)
H4_8 H 0.2869 0.5174 0.6464
C6_8 C 0.3973(3) 0.4390(4) 0.7390(5)
C7_7 C 0.4136(3) 0.4097(4) 0.7974(6)
H5_7 H 0.4404 0.4247 0.8522
C8_7 C 0.3903(3) 0.3585(4) 0.7746(6)
H6_7 H 0.4013 0.3378 0.8117
C9_7 C 0.3505(3) 0.3379(4) 0.6964(6)
H7_3 H 0.3331 0.3025 0.6804
C10_6 C 0.3363(3) 0.3688(4) 0.6423(6)
H8_8 H 0.3088 0.3541 0.5893
C11_6 C 0.4574(3) 0.5330(4) 0.6227(6)
C12_6 C 0.5090(3) 0.5666(4) 0.6123(6)
H9_8 H 0.5306 0.5763 0.6783
C13_6 C 0.5282(3) 0.5855(4) 0.5036(6)
H10_6 H 0.5634 0.6082 0.4936
C14_6 C 0.4964(3) 0.5713(4) 0.4106(7)
H11_6 H 0.5090 0.5847 0.3357
C15_6 C 0.4452(3) 0.5370(4) 0.4263(7)
H12_6 H 0.4233 0.5266 0.3610
Cu2_7 Cu 0.53011(4) 0.88036(3) 0.56092(8)
P1_9 P 0.49250(10) 0.92360(7) 0.76795(15)
N1_9 N 0.4885(3) 0.8342(2) 0.6944(5)
N2_7 N 0.5809(3) 0.9403(2) 0.6605(5)
N3_7 N 0.4817(3) 0.9077(2) 0.5314(5)
C1_9 C 0.4783(4) 0.8574(3) 0.7840(6)
C2_9 C 0.4573(4) 0.8328(3) 0.8864(7)
H1_9 H 0.4504 0.8496 0.9472
C3_9 C 0.4459(4) 0.7829(3) 0.9001(7)
H2_9 H 0.4324 0.7657 0.9714
C4_7 C 0.4546(4) 0.7587(3) 0.8098(8)
H3_7 H 0.4459 0.7242 0.8163
C5_7 C 0.4762(4) 0.7859(3) 0.7085(7)
H4_9 H 0.4826 0.7694 0.6464
C6_9 C 0.5610(4) 0.9582(2) 0.7390(5)
C10_7 C 0.6312(4) 0.9674(3) 0.6423(6)
H8_9 H 0.6459 0.9546 0.5893
C11_7 C 0.4670(4) 0.9243(3) 0.6227(6)
C12_7 C 0.4334(4) 0.9423(3) 0.6123(6)
H9_9 H 0.4237 0.9542 0.6783
C13_7 C 0.4145(4) 0.9426(3) 0.5036(6)
H10_7 H 0.3918 0.9551 0.4936
C14_7 C 0.4287(4) 0.9250(3) 0.4106(7)
H11_7 H 0.4153 0.9242 0.3357
C15_7 C 0.4630(4) 0.9081(3) 0.4263(7)
H12_7 H 0.4734 0.8966 0.3610
H7_4 H 0.3336 0.0308 0.6529
H7_5 H 0.9692 0.3028 0.6529
Cu2_8 Cu 0.21370(3) 0.01692(3) 0.10574(8)
N2_8 N 0.2737(2) 0.0261(2) 0.0061(5)
N3_8 N 0.2411(2) 0.0927(2) 0.1352(5)
C10_8 C 0.3008(3) 0.0029(3) 0.0243(6)
C11_8 C 0.2577(3) 0.1240(3) 0.0439(6)
C12_8 C 0.2757(3) 0.1756(3) 0.0543(6)
C13_8 C 0.2760(3) 0.1948(3) 0.1630(6)
H10_8 H 0.2885 0.2300 0.1730
C14_8 C 0.2584(3) 0.1630(3) 0.2560(7)
H11_8 H 0.2576 0.1756 0.3309
C15_8 C 0.2415(3) 0.1118(3) 0.2403(7)
H12_8 H 0.2300 0.0899 0.3056
I1_4 I 0.38042(2) 0.22689(2) 0.77939(4)
Cu1_4 Cu 0.28614(3) 0.15244(3) 0.75146(7)
P1_10 P 0.25694(7) 0.09777(7) 0.89871(15)
N1_10 N 0.1676(2) 0.0124(2) 0.9722(5)
C1_10 C 0.1908(3) 0.0458(3) 0.8826(6)
C2_10 C 0.1662(3) 0.0422(3) 0.7802(7)
H1_10 H 0.1830 0.0659 0.7194
C3_10 C 0.1163(3) 0.0037(3) 0.7665(7)
H2_10 H 0.0991 0.0000 0.6952
C6_10 C 0.2916(2) 0.0639(3) 0.9276(5)
C7_8 C 0.3372(3) 0.0802(3) 0.8692(6)
H5_8 H 0.3490 0.1070 0.8144
C8_8 C 0.3651(3) 0.0569(3) 0.8920(6)
H6_8 H 0.3968 0.0679 0.8549
C9_8 C 0.3459(3) 0.0171(3) 0.9702(6)
H9_10 H 0.2876 0.1972 0.9883
I3_5 I 0.28625(2) 0.10644(2) 0.55394(4)
I4_4 I 0.22596(3) 0.19051(2) 0.71312(4)
Cu4_4 Cu 0.38053(3) 0.18089(3) 0.58187(7)
I1_5 I 0.77311(2) 0.15352(3) 0.77939(4)
Cu1_5 Cu 0.84756(3) 0.13369(4) 0.75146(7)
P1_11 P 0.90223(7) 0.15916(10) 0.89871(15)
N1_11 N 0.9876(2) 0.1551(3) 0.9722(5)
C1_11 C 0.9542(3) 0.1449(4) 0.8826(6)
C2_11 C 0.9578(3) 0.1239(4) 0.7802(7)
H1_11 H 0.9341 0.1170 0.7194
C3_11 C 0.9963(3) 0.1125(4) 0.7665(7)
H2_11 H 1.0000 0.0990 0.6952
C6_11 C 0.9361(3) 0.2276(4) 0.9276(5)
C7_9 C 0.9198(3) 0.2569(4) 0.8692(6)
H5_9 H 0.8930 0.2419 0.8144
C8_9 C 0.9431(3) 0.3081(4) 0.8920(6)
H6_9 H 0.9321 0.3288 0.8549
C9_9 C 0.9829(3) 0.3287(4) 0.9702(6)
H9_11 H 0.8028 0.0903 0.9883
I3_6 I 0.89356(2) 0.17981(3) 0.55394(4)
I4_5 I 0.80949(2) 0.03546(4) 0.71312(4)
Cu4_5 Cu 0.81911(3) 0.19964(4) 0.58187(7)
I1_6 I 0.84648(3) 0.61958(2) 0.77939(4)
Cu1_6 Cu 0.86631(4) 0.71386(3) 0.75146(7)
P1_12 P 0.84084(10) 0.74306(7) 0.89871(15)
N1_12 N 0.8449(3) 0.8324(2) 0.9722(5)
C1_12 C 0.8551(4) 0.8092(3) 0.8826(6)
C2_12 C 0.8761(4) 0.8338(3) 0.7802(7)
H1_12 H 0.8830 0.8170 0.7194
C3_12 C 0.8875(4) 0.8837(3) 0.7665(7)
H2_12 H 0.9010 0.9009 0.6952
C4_8 C 0.8788(4) 0.9079(3) 0.8568(8)
H3_8 H 0.8875 0.9424 0.8503
C5_8 C 0.8572(4) 0.8807(3) 0.9581(7)
C6_12 C 0.7724(4) 0.7084(2) 0.9276(5)
C7_10 C 0.7431(4) 0.6628(3) 0.8692(6)
H5_10 H 0.7581 0.6510 0.8144
C8_10 C 0.6919(4) 0.6349(3) 0.8920(6)
H6_10 H 0.6712 0.6032 0.8549
C9_10 C 0.6713(4) 0.6541(3) 0.9702(6)
H7_6 H 0.6359 0.6361 0.9862
H9_12 H 0.9097 0.7124 0.9883
I3_7 I 0.82019(3) 0.71375(2) 0.55394(4)
I4_6 I 0.96454(4) 0.77404(3) 0.71312(4)
Cu4_6 Cu 0.80036(4) 0.61947(3) 0.58187(7)
I2_7 I 0.85717(2) 0.29788(2) 0.62022(4)
Cu1_7 Cu 0.95280(3) 0.48578(3) 0.08480(7)
Cu2_9 Cu 0.88036(3) 0.35026(3) 0.43908(8)
P1_13 P 0.92360(7) 0.43111(7) 0.23205(15)
N1_13 N 0.8342(2) 0.3458(2) 0.3056(5)
N2_9 N 0.9403(2) 0.3595(2) 0.3395(5)
N3_9 N 0.9077(2) 0.4261(2) 0.4686(5)
C1_13 C 0.8574(3) 0.3792(3) 0.2160(6)
C2_13 C 0.8328(3) 0.3756(3) 0.1136(7)
H1_13 H 0.8496 0.3993 0.0528
C3_13 C 0.7829(3) 0.3371(3) 0.0999(7)
H2_13 H 0.7657 0.3334 0.0286
C4_9 C 0.7587(3) 0.3042(3) 0.1902(8)
H3_9 H 0.7242 0.2784 0.1837
C5_9 C 0.7859(3) 0.3098(3) 0.2915(7)
H4_10 H 0.7694 0.2869 0.3536
C6_13 C 0.9582(2) 0.3973(3) 0.2610(5)
C10_9 C 0.9674(3) 0.3363(3) 0.3577(6)
H8_10 H 0.9546 0.3088 0.4107
C11_9 C 0.9243(3) 0.4574(3) 0.3773(6)
C12_9 C 0.9423(3) 0.5090(3) 0.3877(6)
H9_13 H 0.9542 0.5306 0.3217
C13_9 C 0.9426(3) 0.5282(3) 0.4964(6)
H10_9 H 0.9551 0.5634 0.5064
C14_9 C 0.9250(3) 0.4964(3) 0.5894(7)
H11_9 H 0.9242 0.5090 0.6643
C15_9 C 0.9081(3) 0.4452(3) 0.5737(7)
H12_9 H 0.8966 0.4233 0.6390
I4_7 I 0.89263(3) 0.52384(2) 0.04645(4)
I1_7 I 0.43977(2) 0.48686(3) 0.11273(4)
I2_8 I 0.70212(2) 0.55930(3) 0.62022(4)
Cu1_8 Cu 0.51422(3) 0.46703(4) 0.08480(7)
Cu2_10 Cu 0.64974(3) 0.53011(4) 0.43908(8)
P1_14 P 0.56889(7) 0.49250(10) 0.23205(15)
N1_14 N 0.6542(2) 0.4885(3) 0.3056(5)
N2_10 N 0.6405(2) 0.5809(3) 0.3395(5)
N3_10 N 0.5739(2) 0.4817(3) 0.4686(5)
C1_14 C 0.6208(3) 0.4783(4) 0.2160(6)
C2_14 C 0.6244(3) 0.4573(4) 0.1136(7)
H1_14 H 0.6007 0.4504 0.0528
C3_14 C 0.6629(3) 0.4459(4) 0.0999(7)
H2_14 H 0.6666 0.4324 0.0286
C4_10 C 0.6958(3) 0.4546(4) 0.1902(8)
H3_10 H 0.7216 0.4459 0.1837
C5_10 C 0.6902(3) 0.4762(4) 0.2915(7)
H4_11 H 0.7131 0.4826 0.3536
C6_14 C 0.6027(3) 0.5610(4) 0.2610(5)
C7_11 C 0.5864(3) 0.5903(4) 0.2026(6)
H5_11 H 0.5596 0.5753 0.1478
C8_11 C 0.6097(3) 0.6415(4) 0.2254(6)
H6_11 H 0.5987 0.6622 0.1883
C9_11 C 0.6495(3) 0.6621(4) 0.3036(6)
H7_7 H 0.6669 0.6975 0.3196
C10_10 C 0.6637(3) 0.6312(4) 0.3577(6)
H8_11 H 0.6912 0.6459 0.4107
C11_10 C 0.5426(3) 0.4670(4) 0.3773(6)
C12_10 C 0.4910(3) 0.4334(4) 0.3877(6)
H9_14 H 0.4694 0.4237 0.3217
C13_10 C 0.4718(3) 0.4145(4) 0.4964(6)
H10_10 H 0.4366 0.3918 0.5064
C14_10 C 0.5036(3) 0.4287(4) 0.5894(7)
H11_10 H 0.4910 0.4153 0.6643
C15_10 C 0.5548(3) 0.4630(4) 0.5737(7)
H12_10 H 0.5767 0.4734 0.6390
I4_8 I 0.47616(2) 0.36879(4) 0.04645(4)
I2_9 I 0.44070(3) 0.14283(2) 0.62022(4)
Cu1_9 Cu 0.53297(4) 0.04720(3) 0.08480(7)
Cu2_11 Cu 0.46989(4) 0.11964(3) 0.43908(8)
P1_15 P 0.50750(10) 0.07640(7) 0.23205(15)
N1_15 N 0.5115(3) 0.1658(2) 0.3056(5)
N2_11 N 0.4191(3) 0.0597(2) 0.3395(5)
N3_11 N 0.5183(3) 0.0923(2) 0.4686(5)
C1_15 C 0.5217(4) 0.1426(3) 0.2160(6)
C2_15 C 0.5427(4) 0.1672(3) 0.1136(7)
H1_15 H 0.5496 0.1504 0.0528
C3_15 C 0.5541(4) 0.2171(3) 0.0999(7)
H2_15 H 0.5676 0.2343 0.0286
C4_11 C 0.5454(4) 0.2413(3) 0.1902(8)
H3_11 H 0.5541 0.2758 0.1837
C5_11 C 0.5238(4) 0.2141(3) 0.2915(7)
H4_12 H 0.5174 0.2306 0.3536
C6_15 C 0.4390(4) 0.0418(2) 0.2610(5)
C10_11 C 0.3688(4) 0.0326(3) 0.3577(6)
H8_12 H 0.3541 0.0454 0.4107
C11_11 C 0.5330(4) 0.0757(3) 0.3773(6)
C12_11 C 0.5666(4) 0.0577(3) 0.3877(6)
H9_15 H 0.5763 0.0458 0.3217
C13_11 C 0.5855(4) 0.0574(3) 0.4964(6)
H10_11 H 0.6082 0.0449 0.5064
C14_11 C 0.5713(4) 0.0750(3) 0.5894(7)
H11_11 H 0.5847 0.0758 0.6643
C15_11 C 0.5370(4) 0.0919(3) 0.5737(7)
H12_11 H 0.5266 0.1034 0.6390
I4_9 I 0.63121(4) 0.10737(3) 0.04645(4)
Cu2_12 Cu 0.45297(3) 0.31641(3) 0.22759(8)
P1_16 P 0.40973(7) 0.23556(7) 0.43462(15)
N1_16 N 0.4991(2) 0.3209(2) 0.3611(5)
N2_12 N 0.3930(2) 0.3072(2) 0.3272(5)
N3_12 N 0.4256(2) 0.2406(2) 0.1981(5)
C1_16 C 0.4759(3) 0.2875(3) 0.4507(6)
C2_16 C 0.5005(3) 0.2911(3) 0.5531(7)
H1_16 H 0.4837 0.2674 0.6139
C3_16 C 0.5504(3) 0.3296(3) 0.5668(7)
H2_16 H 0.5676 0.3333 0.6381
C4_12 C 0.5746(3) 0.3625(3) 0.4765(8)
H3_12 H 0.6091 0.3883 0.4830
C5_12 C 0.5474(3) 0.3569(3) 0.3752(7)
H4_13 H 0.5639 0.3798 0.3131
C6_16 C 0.3751(2) 0.2694(3) 0.4057(5)
C7_12 C 0.3295(3) 0.2531(3) 0.4641(6)
H5_12 H 0.3177 0.2263 0.5189
C8_12 C 0.3016(3) 0.2764(3) 0.4413(6)
H6_12 H 0.2699 0.2654 0.4784
C9_12 C 0.3208(3) 0.3162(3) 0.3631(6)
H7_8 H 0.3028 0.3336 0.3471
C10_12 C 0.3659(3) 0.3304(3) 0.3090(6)
H8_13 H 0.3787 0.3579 0.2560
C11_12 C 0.4090(3) 0.2093(3) 0.2894(6)
C12_12 C 0.3910(3) 0.1577(3) 0.2790(6)
H9_16 H 0.3791 0.1361 0.3450
C13_12 C 0.3907(3) 0.1385(3) 0.1703(6)
H10_12 H 0.3782 0.1033 0.1603
C14_12 C 0.4083(3) 0.1703(3) 0.0773(7)
H11_12 H 0.4091 0.1577 0.0024
C15_12 C 0.4252(3) 0.2215(3) 0.0930(7)
H12_12 H 0.4367 0.2434 0.0277
Cu2_13 Cu 0.68359(3) 0.13656(4) 0.22759(8)
P1_17 P 0.76444(7) 0.17417(10) 0.43462(15)
N1_17 N 0.6791(2) 0.1782(3) 0.3611(5)
N2_13 N 0.6928(2) 0.0858(3) 0.3272(5)
N3_13 N 0.7594(2) 0.1850(3) 0.1981(5)
C1_17 C 0.7125(3) 0.1884(4) 0.4507(6)
C2_17 C 0.7089(3) 0.2094(4) 0.5531(7)
H1_17 H 0.7326 0.2163 0.6139
C3_17 C 0.6704(3) 0.2208(4) 0.5668(7)
H2_17 H 0.6667 0.2343 0.6381
C4_13 C 0.6375(3) 0.2121(4) 0.4765(8)
H3_13 H 0.6117 0.2208 0.4830
C5_13 C 0.6431(3) 0.1905(4) 0.3752(7)
H4_14 H 0.6202 0.1841 0.3131
C6_17 C 0.7306(3) 0.1057(4) 0.4057(5)
C7_13 C 0.7469(3) 0.0764(4) 0.4641(6)
H5_13 H 0.7737 0.0914 0.5189
C8_13 C 0.7236(3) 0.0252(4) 0.4413(6)
H6_13 H 0.7346 0.0045 0.4784
C9_13 C 0.6838(3) 0.0046(4) 0.3631(6)
C10_13 C 0.6696(3) 0.0355(4) 0.3090(6)
H8_14 H 0.6421 0.0208 0.2560
C11_13 C 0.7907(3) 0.1997(4) 0.2894(6)
C12_13 C 0.8423(3) 0.2333(4) 0.2790(6)
H9_17 H 0.8639 0.2430 0.3450
C13_13 C 0.8615(3) 0.2522(4) 0.1703(6)
H10_13 H 0.8967 0.2749 0.1603
C14_13 C 0.8297(3) 0.2380(4) 0.0773(7)
H11_13 H 0.8423 0.2514 0.0024
C15_13 C 0.7785(3) 0.2037(4) 0.0930(7)
H12_13 H 0.7566 0.1933 0.0277
Cu2_14 Cu 0.86344(4) 0.54703(3) 0.22759(8)
P1_18 P 0.82583(10) 0.59027(7) 0.43462(15)
N1_18 N 0.8218(3) 0.5009(2) 0.3611(5)
N2_14 N 0.9142(3) 0.6070(2) 0.3272(5)
N3_14 N 0.8150(3) 0.5744(2) 0.1981(5)
C1_18 C 0.8116(4) 0.5241(3) 0.4507(6)
C2_18 C 0.7906(4) 0.4995(3) 0.5531(7)
H1_18 H 0.7837 0.5163 0.6139
C3_18 C 0.7792(4) 0.4496(3) 0.5668(7)
H2_18 H 0.7657 0.4324 0.6381
C4_14 C 0.7879(4) 0.4254(3) 0.4765(8)
H3_14 H 0.7792 0.3909 0.4830
C5_14 C 0.8095(4) 0.4526(3) 0.3752(7)
H4_15 H 0.8159 0.4361 0.3131
C6_18 C 0.8943(4) 0.6249(2) 0.4057(5)
C7_14 C 0.9236(4) 0.6705(3) 0.4641(6)
H5_14 H 0.9086 0.6823 0.5189
C8_14 C 0.9748(4) 0.6984(3) 0.4413(6)
H6_14 H 0.9955 0.7301 0.4784
C9_14 C 0.9954(4) 0.6792(3) 0.3631(6)
C10_14 C 0.9645(4) 0.6341(3) 0.3090(6)
H8_15 H 0.9792 0.6213 0.2560
C11_14 C 0.8003(4) 0.5910(3) 0.2894(6)
C12_14 C 0.7667(4) 0.6090(3) 0.2790(6)
H9_18 H 0.7570 0.6209 0.3450
C13_14 C 0.7478(4) 0.6093(3) 0.1703(6)
H10_14 H 0.7251 0.6218 0.1603
C14_14 C 0.7620(4) 0.5917(3) 0.0773(7)
H11_14 H 0.7486 0.5909 0.0024
C15_14 C 0.7963(4) 0.5748(3) 0.0930(7)
H12_14 H 0.8067 0.5633 0.0277
H4_16 H 0.8972 0.0465 0.9798
H8_16 H 0.7120 0.0246 0.9227
H4_17 H 0.9535 0.8508 0.9798
H8_17 H 0.9754 0.6875 0.9227
Cu2_15 Cu 0.19677(4) 0.21370(3) 0.89426(8)
N2_15 N 0.2475(3) 0.2737(2) 0.9939(5)
N3_15 N 0.1483(3) 0.2411(2) 0.8648(5)
H4_18 H 0.1492 0.1028 0.9798
C10_15 C 0.2978(4) 0.3008(3) 0.9757(6)
H8_18 H 0.3125 0.2880 0.9227
C11_15 C 0.1336(4) 0.2577(3) 0.9561(6)
C12_15 C 0.1000(4) 0.2757(3) 0.9457(6)
C13_15 C 0.0811(4) 0.2760(3) 0.8370(6)
H10_15 H 0.0584 0.2885 0.8270
C14_15 C 0.0953(4) 0.2584(3) 0.7440(7)
H11_15 H 0.0819 0.2576 0.6691
C15_15 C 0.1296(4) 0.2415(3) 0.7597(7)
H12_15 H 0.1400 0.2300 0.6944
C4_15 C 0.0921(3) 0.9708(3) 0.8568(8)
H3_15 H 0.0576 0.9450 0.8503
C5_15 C 0.1193(3) 0.9764(3) 0.9581(7)
H7_9 H 0.3639 0.9997 0.9862
C4_16 C 0.0292(3) 0.1212(4) 0.8568(8)
H3_16 H 0.0550 0.1125 0.8503
C5_16 C 0.0236(3) 0.1428(4) 0.9581(7)
H7_10 H 0.0003 0.3641 0.9862
Cu2_16 Cu 0.98308(3) 0.19677(4) 0.10574(8)
N2_16 N 0.9739(2) 0.2475(3) 0.0061(5)
N3_16 N 0.9073(2) 0.1483(3) 0.1352(5)
C10_16 C 0.9971(3) 0.2978(4) 0.0243(6)
C11_16 C 0.8760(3) 0.1336(4) 0.0439(6)
C12_16 C 0.8244(3) 0.1000(4) 0.0543(6)
C13_16 C 0.8052(3) 0.0811(4) 0.1630(6)
H10_16 H 0.7700 0.0584 0.1730
C14_16 C 0.8370(3) 0.0953(4) 0.2560(7)
H11_16 H 0.8244 0.0819 0.3309
C15_16 C 0.8882(3) 0.1296(4) 0.2403(7)
H12_16 H 0.9101 0.1400 0.3056
I1_8 I 0.04708(2) 0.56023(2) 0.11273(4)
C7_15 C 0.0038(3) 0.4136(3) 0.2026(6)
H5_15 H 0.0156 0.4404 0.1478
C8_15 C 0.0317(3) 0.3903(3) 0.2254(6)
H6_15 H 0.0634 0.4013 0.1883
C9_15 C 0.0125(3) 0.3505(3) 0.3036(6)
H7_11 H 0.0305 0.3331 0.3196
I3_8 I 0.95292(2) 0.43977(2) 0.88727(4)
C7_16 C 0.9962(3) 0.5864(3) 0.7974(6)
H5_16 H 0.9844 0.5596 0.8522
C8_16 C 0.9683(3) 0.6097(3) 0.7746(6)
H6_16 H 0.9366 0.5987 0.8117
C9_16 C 0.9875(3) 0.6495(3) 0.6964(6)
H7_12 H 0.9695 0.6669 0.6804
I3_9 I 0.48686(3) 0.04708(2) 0.88727(4)
C7_17 C 0.5903(4) 0.0038(3) 0.7974(6)
H5_17 H 0.5753 0.0156 0.8522
C8_17 C 0.6415(4) 0.0317(3) 0.7746(6)
H6_17 H 0.6622 0.0634 0.8117
C9_17 C 0.6621(4) 0.0125(3) 0.6964(6)
H7_13 H 0.6975 0.0305 0.6804
I1_9 I 0.51314(3) 0.95292(2) 0.11273(4)
C7_18 C 0.4097(4) 0.9962(3) 0.2026(6)
H5_18 H 0.4247 0.9844 0.1478
C8_18 C 0.3585(4) 0.9683(3) 0.2254(6)
H6_18 H 0.3378 0.9366 0.1883
C9_18 C 0.3379(4) 0.9875(3) 0.3036(6)
H7_14 H 0.3025 0.9695 0.3196
H7_15 H 0.6664 0.9692 0.3471
H7_16 H 0.0308 0.6972 0.3471
C4_17 C 0.9079(3) 0.0292(3) 0.1432(8)
H3_17 H 0.9424 0.0550 0.1497
C5_17 C 0.8807(3) 0.0236(3) 0.0419(7)
H7_17 H 0.6361 0.0003 0.0138
Cu2_17 Cu 0.78630(3) 0.98308(3) 0.89426(8)
N2_17 N 0.7263(2) 0.9739(2) 0.9939(5)
N3_17 N 0.7589(2) 0.9073(2) 0.8648(5)
C10_17 C 0.6992(3) 0.9971(3) 0.9757(6)
C11_17 C 0.7423(3) 0.8760(3) 0.9561(6)
C12_17 C 0.7243(3) 0.8244(3) 0.9457(6)
C13_17 C 0.7240(3) 0.8052(3) 0.8370(6)
H10_17 H 0.7115 0.7700 0.8270
C14_17 C 0.7416(3) 0.8370(3) 0.7440(7)
H11_17 H 0.7424 0.8244 0.6691
C15_17 C 0.7585(3) 0.8882(3) 0.7597(7)
H12_17 H 0.7700 0.9101 0.6944
Cu2_18 Cu 0.01692(3) 0.80323(4) 0.89426(8)
N2_18 N 0.0261(2) 0.7525(3) 0.9939(5)
N3_18 N 0.0927(2) 0.8517(3) 0.8648(5)
C10_18 C 0.0029(3) 0.7022(4) 0.9757(6)
C11_18 C 0.1240(3) 0.8664(4) 0.9561(6)
C12_18 C 0.1756(3) 0.9000(4) 0.9457(6)
C13_18 C 0.1948(3) 0.9189(4) 0.8370(6)
H10_18 H 0.2300 0.9416 0.8270
C14_18 C 0.1630(3) 0.9047(4) 0.7440(7)
H11_18 H 0.1756 0.9181 0.6691
C15_18 C 0.1118(3) 0.8704(4) 0.7597(7)
H12_18 H 0.0899 0.8600 0.6944
C4_18 C 0.9708(3) 0.8788(4) 0.1432(8)
H3_18 H 0.9450 0.8875 0.1497
C5_18 C 0.9764(3) 0.8572(4) 0.0419(7)
H7_18 H 0.9997 0.6359 0.0138
loop_
_geom_bond_atom_site_label_1
_geom_bond_atom_site_label_2
_geom_bond_site_symmetry_1
_geom_bond_site_symmetry_2
I1 Cu1 1_555 1_555
I2 Cu2 1_555 1_555
Cu1 P1 1_555 1_555
Cu2 N1 1_555 1_555
P1 C1 1_555 1_555
N1 C1 1_555 1_555
N2 Cu2 1_555 1_555
N3 Cu2 1_555 1_555
C1 C2 1_555 1_555
C2 H1 1_555 1_555
C3 C2 1_555 1_555
H2 C3 1_555 1_555
C4 C3 1_555 1_555
H3 C4 1_555 1_555
C5 N1 1_555 1_555
H4 C5 1_555 1_555
C6 P1 1_555 1_555
C7 C6 1_555 1_555
H5 C7 1_555 1_555
C8 C7 1_555 1_555
H6 C8 1_555 1_555
C9 C8 1_555 1_555
H7 C9 1_555 1_555
C10 N2 1_555 1_555
H8 C10 1_555 1_555
C11 P1 1_555 1_555
C12 C11 1_555 1_555
H9 C12 1_555 1_555
C13 C12 1_555 1_555
H10 C13 1_555 1_555
C14 C13 1_555 1_555
H11 C14 1_555 1_555
C15 N3 1_555 1_555
H12 C15 1_555 1_555
I3 Cu1 1_555 1_555
I4 Cu1 1_555 1_555
Cu3 I2 1_555 1_555
Cu4 I1 1_555 1_555
N2 C6 1_555 1_555
N3 C11 1_555 1_555
C4 C5 1_555 1_555
C9 C10 1_555 1_555
C14 C15 1_555 1_555
I3 Cu4 1_555 1_555
I1_2 Cu1_2 1_555 1_555
I2_2 Cu2_2 1_555 1_555
Cu1_2 P1_2 1_555 1_555
Cu2_2 N1_2 1_555 1_555
P1_2 C1_2 1_555 1_555
N1_2 C1_2 1_555 1_555
N2_2 Cu2_2 1_555 1_555
N3_2 Cu2_2 1_555 1_555
C1_2 C2_2 1_555 1_555
C2_2 H1_2 1_555 1_555
C3_2 C2_2 1_555 1_555
H2_2 C3_2 1_555 1_555
C4_2 C3_2 1_555 1_555
H3_2 C4_2 1_555 1_555
C5_2 N1_2 1_555 1_555
H4_2 C5_2 1_555 1_555
C6_2 P1_2 1_555 1_555
C7_2 C6_2 1_555 1_555
H5_2 C7_2 1_555 1_555
C8_2 C7_2 1_555 1_555
H6_2 C8_2 1_555 1_555
C9_2 C8_2 1_555 1_555
C10_2 N2_2 1_555 1_555
H8_2 C10_2 1_555 1_555
C11_2 P1_2 1_555 1_555
C12_2 C11_2 1_555 1_555
H9_2 C12_2 1_555 1_555
C13_2 C12_2 1_555 1_555
H10_2 C13_2 1_555 1_555
C14_2 C13_2 1_555 1_555
H11_2 C14_2 1_555 1_555
C15_2 N3_2 1_555 1_555
H12_2 C15_2 1_555 1_555
I3_2 Cu1_2 1_555 1_555
I4_2 Cu1_2 1_555 1_555
Cu3_2 I2_2 1_555 1_555
Cu4_2 I1_2 1_555 1_555
N2_2 C6_2 1_555 1_555
N3_2 C11_2 1_555 1_555
C4_2 C5_2 1_555 1_555
C9_2 C10_2 1_555 1_555
C14_2 C15_2 1_555 1_555
I3_2 Cu4_2 1_555 1_555
I1_3 Cu1_3 1_555 1_555
I2_3 Cu2_3 1_555 1_555
Cu1_3 P1_3 1_555 1_555
Cu2_3 N1_3 1_555 1_555
P1_3 C1_3 1_555 1_555
N1_3 C1_3 1_555 1_555
N2_3 Cu2_3 1_555 1_555
N3_3 Cu2_3 1_555 1_555
C1_3 C2_3 1_555 1_555
C2_3 H1_3 1_555 1_555
C3_3 C2_3 1_555 1_555
H2_3 C3_3 1_555 1_555
C4_3 C3_3 1_555 1_555
H3_3 C4_3 1_555 1_555
C5_3 N1_3 1_555 1_555
H4_3 C5_3 1_555 1_555
C6_3 P1_3 1_555 1_555
C7_3 C6_3 1_555 1_555
H5_3 C7_3 1_555 1_555
C8_3 C7_3 1_555 1_555
H6_3 C8_3 1_555 1_555
C9_3 C8_3 1_555 1_555
C10_3 N2_3 1_555 1_555
H8_3 C10_3 1_555 1_555
C11_3 P1_3 1_555 1_555
C12_3 C11_3 1_555 1_555
H9_3 C12_3 1_555 1_555
C13_3 C12_3 1_555 1_555
H10_3 C13_3 1_555 1_555
C14_3 C13_3 1_555 1_555
H11_3 C14_3 1_555 1_555
C15_3 N3_3 1_555 1_555
H12_3 C15_3 1_555 1_555
I3_3 Cu1_3 1_555 1_555
I4_3 Cu1_3 1_555 1_555
Cu3_3 I2_3 1_555 1_555
Cu4_3 I1_3 1_555 1_555
N2_3 C6_3 1_555 1_555
N3_3 C11_3 1_555 1_555
C4_3 C5_3 1_555 1_555
C9_3 C10_3 1_555 1_555
C14_3 C15_3 1_555 1_555
I3_3 Cu4_3 1_555 1_555
Cu4_2 I2_4 1_555 1_555
Cu4_3 I2_5 1_555 1_555
I2_6 Cu2_4 1_555 1_555
N2_4 Cu2_4 1_555 1_555
N3_4 Cu2_4 1_555 1_555
C10_4 N2_4 1_555 1_555
H8_6 C10_4 1_555 1_555
C12_4 C11_4 1_555 1_555
C13_4 C12_4 1_555 1_555
H10_4 C13_4 1_555 1_555
C14_4 C13_4 1_555 1_555
H11_4 C14_4 1_555 1_555
C15_4 N3_4 1_555 1_555
H12_4 C15_4 1_555 1_555
Cu4 I2_6 1_555 1_555
N3_4 C11_4 1_555 1_555
C14_4 C15_4 1_555 1_555
I3_4 Cu3 1_555 1_555
Cu4 P1_4 1_555 1_555
P1_4 C1_4 1_555 1_555
N1_4 C1_4 1_555 1_555
C1_4 C2_4 1_555 1_555
C2_4 H1_4 1_555 1_555
C3_4 C2_4 1_555 1_555
H2_4 C3_4 1_555 1_555
C6_4 P1_4 1_555 1_555
C7_4 C6_4 1_555 1_555
H5_4 C7_4 1_555 1_555
C8_4 C7_4 1_555 1_555
H6_4 C8_4 1_555 1_555
C9_4 C8_4 1_555 1_555
Cu4_2 P1_5 1_555 1_555
P1_5 C1_5 1_555 1_555
N1_5 C1_5 1_555 1_555
C1_5 C2_5 1_555 1_555
C2_5 H1_5 1_555 1_555
C3_5 C2_5 1_555 1_555
H2_5 C3_5 1_555 1_555
C6_5 P1_5 1_555 1_555
C7_5 C6_5 1_555 1_555
H5_5 C7_5 1_555 1_555
C8_5 C7_5 1_555 1_555
H6_5 C8_5 1_555 1_555
C9_5 C8_5 1_555 1_555
Cu4_3 P1_6 1_555 1_555
P1_6 C1_6 1_555 1_555
N1_6 C1_6 1_555 1_555
C1_6 C2_6 1_555 1_555
C2_6 H1_6 1_555 1_555
C3_6 C2_6 1_555 1_555
H2_6 C3_6 1_555 1_555
C4_4 C3_6 1_555 1_555
H3_4 C4_4 1_555 1_555
C5_4 N1_6 1_555 1_555
C6_6 P1_6 1_555 1_555
C7_6 C6_6 1_555 1_555
H5_6 C7_6 1_555 1_555
C8_6 C7_6 1_555 1_555
H6_6 C8_6 1_555 1_555
C9_6 C8_6 1_555 1_555
H7_2 C9_6 1_555 1_555
C4_4 C5_4 1_555 1_555
I4_2 Cu2_5 1_555 1_555
Cu3_3 P1_7 1_555 1_555
Cu2_5 N1_7 1_555 1_555
P1_7 C1_7 1_555 1_555
N1_7 C1_7 1_555 1_555
N2_5 Cu2_5 1_555 1_555
N3_5 Cu2_5 1_555 1_555
C1_7 C2_7 1_555 1_555
C2_7 H1_7 1_555 1_555
C3_7 C2_7 1_555 1_555
H2_7 C3_7 1_555 1_555
C4_5 C3_7 1_555 1_555
H3_5 C4_5 1_555 1_555
C5_5 N1_7 1_555 1_555
H4_7 C5_5 1_555 1_555
C6_7 P1_7 1_555 1_555
C10_5 N2_5 1_555 1_555
H8_7 C10_5 1_555 1_555
C11_5 P1_7 1_555 1_555
C12_5 C11_5 1_555 1_555
H9_7 C12_5 1_555 1_555
C13_5 C12_5 1_555 1_555
H10_5 C13_5 1_555 1_555
C14_5 C13_5 1_555 1_555
H11_5 C14_5 1_555 1_555
C15_5 N3_5 1_555 1_555
H12_5 C15_5 1_555 1_555
N2_5 C6_7 1_555 1_555
N3_5 C11_5 1_555 1_555
C4_5 C5_5 1_555 1_555
C14_5 C15_5 1_555 1_555
I4_3 Cu2_6 1_555 1_555
Cu3 P1_8 1_555 1_555
Cu2_6 N1_8 1_555 1_555
P1_8 C1_8 1_555 1_555
N1_8 C1_8 1_555 1_555
N2_6 Cu2_6 1_555 1_555
N3_6 Cu2_6 1_555 1_555
C1_8 C2_8 1_555 1_555
C2_8 H1_8 1_555 1_555
C3_8 C2_8 1_555 1_555
H2_8 C3_8 1_555 1_555
C4_6 C3_8 1_555 1_555
H3_6 C4_6 1_555 1_555
C5_6 N1_8 1_555 1_555
H4_8 C5_6 1_555 1_555
C6_8 P1_8 1_555 1_555
C7_7 C6_8 1_555 1_555
H5_7 C7_7 1_555 1_555
C8_7 C7_7 1_555 1_555
H6_7 C8_7 1_555 1_555
C9_7 C8_7 1_555 1_555
H7_3 C9_7 1_555 1_555
C10_6 N2_6 1_555 1_555
H8_8 C10_6 1_555 1_555
C11_6 P1_8 1_555 1_555
C12_6 C11_6 1_555 1_555
H9_8 C12_6 1_555 1_555
C13_6 C12_6 1_555 1_555
H10_6 C13_6 1_555 1_555
C14_6 C13_6 1_555 1_555
H11_6 C14_6 1_555 1_555
C15_6 N3_6 1_555 1_555
H12_6 C15_6 1_555 1_555
N2_6 C6_8 1_555 1_555
N3_6 C11_6 1_555 1_555
C4_6 C5_6 1_555 1_555
C9_7 C10_6 1_555 1_555
C14_6 C15_6 1_555 1_555
I4 Cu2_7 1_555 1_555
Cu3_2 P1_9 1_555 1_555
Cu2_7 N1_9 1_555 1_555
P1_9 C1_9 1_555 1_555
N1_9 C1_9 1_555 1_555
N2_7 Cu2_7 1_555 1_555
N3_7 Cu2_7 1_555 1_555
C1_9 C2_9 1_555 1_555
C2_9 H1_9 1_555 1_555
C3_9 C2_9 1_555 1_555
H2_9 C3_9 1_555 1_555
C4_7 C3_9 1_555 1_555
H3_7 C4_7 1_555 1_555
C5_7 N1_9 1_555 1_555
H4_9 C5_7 1_555 1_555
C6_9 P1_9 1_555 1_555
C10_7 N2_7 1_555 1_555
H8_9 C10_7 1_555 1_555
C11_7 P1_9 1_555 1_555
C12_7 C11_7 1_555 1_555
H9_9 C12_7 1_555 1_555
C13_7 C12_7 1_555 1_555
H10_7 C13_7 1_555 1_555
C14_7 C13_7 1_555 1_555
H11_7 C14_7 1_555 1_555
C15_7 N3_7 1_555 1_555
H12_7 C15_7 1_555 1_555
N2_7 C6_9 1_555 1_555
N3_7 C11_7 1_555 1_555
C4_7 C5_7 1_555 1_555
C14_7 C15_7 1_555 1_555
N2_8 Cu2_8 1_555 1_555
N3_8 Cu2_8 1_555 1_555
C10_8 N2_8 1_555 1_555
C12_8 C11_8 1_555 1_555
C13_8 C12_8 1_555 1_555
H10_8 C13_8 1_555 1_555
C14_8 C13_8 1_555 1_555
H11_8 C14_8 1_555 1_555
C15_8 N3_8 1_555 1_555
H12_8 C15_8 1_555 1_555
N3_8 C11_8 1_555 1_555
C14_8 C15_8 1_555 1_555
I1_4 Cu1_4 1_555 1_555
Cu1_4 P1_10 1_555 1_555
P1_10 C1_10 1_555 1_555
N1_10 C1_10 1_555 1_555
C1_10 C2_10 1_555 1_555
C2_10 H1_10 1_555 1_555
C3_10 C2_10 1_555 1_555
H2_10 C3_10 1_555 1_555
C6_10 P1_10 1_555 1_555
C7_8 C6_10 1_555 1_555
H5_8 C7_8 1_555 1_555
C8_8 C7_8 1_555 1_555
H6_8 C8_8 1_555 1_555
C9_8 C8_8 1_555 1_555
I3_5 Cu1_4 1_555 1_555
I4_4 Cu1_4 1_555 1_555
Cu4_4 I1_4 1_555 1_555
I3_5 Cu4_4 1_555 1_555
I1_5 Cu1_5 1_555 1_555
Cu1_5 P1_11 1_555 1_555
P1_11 C1_11 1_555 1_555
N1_11 C1_11 1_555 1_555
C1_11 C2_11 1_555 1_555
C2_11 H1_11 1_555 1_555
C3_11 C2_11 1_555 1_555
H2_11 C3_11 1_555 1_555
C6_11 P1_11 1_555 1_555
C7_9 C6_11 1_555 1_555
H5_9 C7_9 1_555 1_555
C8_9 C7_9 1_555 1_555
H6_9 C8_9 1_555 1_555
C9_9 C8_9 1_555 1_555
I3_6 Cu1_5 1_555 1_555
I4_5 Cu1_5 1_555 1_555
Cu4_5 I1_5 1_555 1_555
I3_6 Cu4_5 1_555 1_555
I1_6 Cu1_6 1_555 1_555
Cu1_6 P1_12 1_555 1_555
P1_12 C1_12 1_555 1_555
N1_12 C1_12 1_555 1_555
C1_12 C2_12 1_555 1_555
C2_12 H1_12 1_555 1_555
C3_12 C2_12 1_555 1_555
H2_12 C3_12 1_555 1_555
C4_8 C3_12 1_555 1_555
H3_8 C4_8 1_555 1_555
C5_8 N1_12 1_555 1_555
C6_12 P1_12 1_555 1_555
C7_10 C6_12 1_555 1_555
H5_10 C7_10 1_555 1_555
C8_10 C7_10 1_555 1_555
H6_10 C8_10 1_555 1_555
C9_10 C8_10 1_555 1_555
H7_6 C9_10 1_555 1_555
I3_7 Cu1_6 1_555 1_555
I4_6 Cu1_6 1_555 1_555
Cu4_6 I1_6 1_555 1_555
C4_8 C5_8 1_555 1_555
I3_7 Cu4_6 1_555 1_555
I2_7 Cu2_9 1_555 1_555
Cu1_7 P1_13 1_555 1_555
Cu2_9 N1_13 1_555 1_555
P1_13 C1_13 1_555 1_555
N1_13 C1_13 1_555 1_555
N2_9 Cu2_9 1_555 1_555
N3_9 Cu2_9 1_555 1_555
C1_13 C2_13 1_555 1_555
C2_13 H1_13 1_555 1_555
C3_13 C2_13 1_555 1_555
H2_13 C3_13 1_555 1_555
C4_9 C3_13 1_555 1_555
H3_9 C4_9 1_555 1_555
C5_9 N1_13 1_555 1_555
H4_10 C5_9 1_555 1_555
C6_13 P1_13 1_555 1_555
C10_9 N2_9 1_555 1_555
H8_10 C10_9 1_555 1_555
C11_9 P1_13 1_555 1_555
C12_9 C11_9 1_555 1_555
H9_13 C12_9 1_555 1_555
C13_9 C12_9 1_555 1_555
H10_9 C13_9 1_555 1_555
C14_9 C13_9 1_555 1_555
H11_9 C14_9 1_555 1_555
C15_9 N3_9 1_555 1_555
H12_9 C15_9 1_555 1_555
I4_7 Cu1_7 1_555 1_555
Cu4_5 I2_7 1_555 1_555
N2_9 C6_13 1_555 1_555
N3_9 C11_9 1_555 1_555
C4_9 C5_9 1_555 1_555
C14_9 C15_9 1_555 1_555
I1_7 Cu1_8 1_555 1_555
I2_8 Cu2_10 1_555 1_555
Cu1_8 P1_14 1_555 1_555
Cu2_10 N1_14 1_555 1_555
P1_14 C1_14 1_555 1_555
N1_14 C1_14 1_555 1_555
N2_10 Cu2_10 1_555 1_555
N3_10 Cu2_10 1_555 1_555
C1_14 C2_14 1_555 1_555
C2_14 H1_14 1_555 1_555
C3_14 C2_14 1_555 1_555
H2_14 C3_14 1_555 1_555
C4_10 C3_14 1_555 1_555
H3_10 C4_10 1_555 1_555
C5_10 N1_14 1_555 1_555
H4_11 C5_10 1_555 1_555
C6_14 P1_14 1_555 1_555
C7_11 C6_14 1_555 1_555
H5_11 C7_11 1_555 1_555
C8_11 C7_11 1_555 1_555
H6_11 C8_11 1_555 1_555
C9_11 C8_11 1_555 1_555
H7_7 C9_11 1_555 1_555
C10_10 N2_10 1_555 1_555
H8_11 C10_10 1_555 1_555
C11_10 P1_14 1_555 1_555
C12_10 C11_10 1_555 1_555
H9_14 C12_10 1_555 1_555
C13_10 C12_10 1_555 1_555
H10_10 C13_10 1_555 1_555
C14_10 C13_10 1_555 1_555
H11_10 C14_10 1_555 1_555
C15_10 N3_10 1_555 1_555
H12_10 C15_10 1_555 1_555
I4_8 Cu1_8 1_555 1_555
Cu4_6 I2_8 1_555 1_555
N2_10 C6_14 1_555 1_555
N3_10 C11_10 1_555 1_555
C4_10 C5_10 1_555 1_555
C9_11 C10_10 1_555 1_555
C14_10 C15_10 1_555 1_555
I2_9 Cu2_11 1_555 1_555
Cu1_9 P1_15 1_555 1_555
Cu2_11 N1_15 1_555 1_555
P1_15 C1_15 1_555 1_555
N1_15 C1_15 1_555 1_555
N2_11 Cu2_11 1_555 1_555
N3_11 Cu2_11 1_555 1_555
C1_15 C2_15 1_555 1_555
C2_15 H1_15 1_555 1_555
C3_15 C2_15 1_555 1_555
H2_15 C3_15 1_555 1_555
C4_11 C3_15 1_555 1_555
H3_11 C4_11 1_555 1_555
C5_11 N1_15 1_555 1_555
H4_12 C5_11 1_555 1_555
C6_15 P1_15 1_555 1_555
C10_11 N2_11 1_555 1_555
H8_12 C10_11 1_555 1_555
C11_11 P1_15 1_555 1_555
C12_11 C11_11 1_555 1_555
H9_15 C12_11 1_555 1_555
C13_11 C12_11 1_555 1_555
H10_11 C13_11 1_555 1_555
C14_11 C13_11 1_555 1_555
H11_11 C14_11 1_555 1_555
C15_11 N3_11 1_555 1_555
H12_11 C15_11 1_555 1_555
I4_9 Cu1_9 1_555 1_555
Cu4_4 I2_9 1_555 1_555
N2_11 C6_15 1_555 1_555
N3_11 C11_11 1_555 1_555
C4_11 C5_11 1_555 1_555
C14_11 C15_11 1_555 1_555
I4_8 Cu2_12 1_555 1_555
Cu4_4 P1_16 1_555 1_555
Cu2_12 N1_16 1_555 1_555
P1_16 C1_16 1_555 1_555
N1_16 C1_16 1_555 1_555
N2_12 Cu2_12 1_555 1_555
N3_12 Cu2_12 1_555 1_555
C1_16 C2_16 1_555 1_555
C2_16 H1_16 1_555 1_555
C3_16 C2_16 1_555 1_555
H2_16 C3_16 1_555 1_555
C4_12 C3_16 1_555 1_555
H3_12 C4_12 1_555 1_555
C5_12 N1_16 1_555 1_555
H4_13 C5_12 1_555 1_555
C6_16 P1_16 1_555 1_555
C7_12 C6_16 1_555 1_555
H5_12 C7_12 1_555 1_555
C8_12 C7_12 1_555 1_555
H6_12 C8_12 1_555 1_555
C9_12 C8_12 1_555 1_555
H7_8 C9_12 1_555 1_555
C10_12 N2_12 1_555 1_555
H8_13 C10_12 1_555 1_555
C11_12 P1_16 1_555 1_555
C12_12 C11_12 1_555 1_555
H9_16 C12_12 1_555 1_555
C13_12 C12_12 1_555 1_555
H10_12 C13_12 1_555 1_555
C14_12 C13_12 1_555 1_555
H11_12 C14_12 1_555 1_555
C15_12 N3_12 1_555 1_555
H12_12 C15_12 1_555 1_555
N2_12 C6_16 1_555 1_555
N3_12 C11_12 1_555 1_555
C4_12 C5_12 1_555 1_555
C9_12 C10_12 1_555 1_555
C14_12 C15_12 1_555 1_555
I4_9 Cu2_13 1_555 1_555
Cu4_5 P1_17 1_555 1_555
Cu2_13 N1_17 1_555 1_555
P1_17 C1_17 1_555 1_555
N1_17 C1_17 1_555 1_555
N2_13 Cu2_13 1_555 1_555
N3_13 Cu2_13 1_555 1_555
C1_17 C2_17 1_555 1_555
C2_17 H1_17 1_555 1_555
C3_17 C2_17 1_555 1_555
H2_17 C3_17 1_555 1_555
C4_13 C3_17 1_555 1_555
H3_13 C4_13 1_555 1_555
C5_13 N1_17 1_555 1_555
H4_14 C5_13 1_555 1_555
C6_17 P1_17 1_555 1_555
C7_13 C6_17 1_555 1_555
H5_13 C7_13 1_555 1_555
C8_13 C7_13 1_555 1_555
H6_13 C8_13 1_555 1_555
C9_13 C8_13 1_555 1_555
C10_13 N2_13 1_555 1_555
H8_14 C10_13 1_555 1_555
C11_13 P1_17 1_555 1_555
C12_13 C11_13 1_555 1_555
H9_17 C12_13 1_555 1_555
C13_13 C12_13 1_555 1_555
H10_13 C13_13 1_555 1_555
C14_13 C13_13 1_555 1_555
H11_13 C14_13 1_555 1_555
C15_13 N3_13 1_555 1_555
H12_13 C15_13 1_555 1_555
N2_13 C6_17 1_555 1_555
N3_13 C11_13 1_555 1_555
C4_13 C5_13 1_555 1_555
C9_13 C10_13 1_555 1_555
C14_13 C15_13 1_555 1_555
I4_7 Cu2_14 1_555 1_555
Cu4_6 P1_18 1_555 1_555
Cu2_14 N1_18 1_555 1_555
P1_18 C1_18 1_555 1_555
N1_18 C1_18 1_555 1_555
N2_14 Cu2_14 1_555 1_555
N3_14 Cu2_14 1_555 1_555
C1_18 C2_18 1_555 1_555
C2_18 H1_18 1_555 1_555
C3_18 C2_18 1_555 1_555
H2_18 C3_18 1_555 1_555
C4_14 C3_18 1_555 1_555
H3_14 C4_14 1_555 1_555
C5_14 N1_18 1_555 1_555
H4_15 C5_14 1_555 1_555
C6_18 P1_18 1_555 1_555
C7_14 C6_18 1_555 1_555
H5_14 C7_14 1_555 1_555
C8_14 C7_14 1_555 1_555
H6_14 C8_14 1_555 1_555
C9_14 C8_14 1_555 1_555
C10_14 N2_14 1_555 1_555
H8_15 C10_14 1_555 1_555
C11_14 P1_18 1_555 1_555
C12_14 C11_14 1_555 1_555
H9_18 C12_14 1_555 1_555
C13_14 C12_14 1_555 1_555
H10_14 C13_14 1_555 1_555
C14_14 C13_14 1_555 1_555
H11_14 C14_14 1_555 1_555
C15_14 N3_14 1_555 1_555
H12_14 C15_14 1_555 1_555
N2_14 C6_18 1_555 1_555
N3_14 C11_14 1_555 1_555
C4_14 C5_14 1_555 1_555
C9_14 C10_14 1_555 1_555
C14_14 C15_14 1_555 1_555
I4_4 Cu2_15 1_555 1_555
N2_15 Cu2_15 1_555 1_555
N3_15 Cu2_15 1_555 1_555
C10_15 N2_15 1_555 1_555
H8_18 C10_15 1_555 1_555
C12_15 C11_15 1_555 1_555
C13_15 C12_15 1_555 1_555
H10_15 C13_15 1_555 1_555
C14_15 C13_15 1_555 1_555
H11_15 C14_15 1_555 1_555
C15_15 N3_15 1_555 1_555
H12_15 C15_15 1_555 1_555
N3_15 C11_15 1_555 1_555
C14_15 C15_15 1_555 1_555
H3_15 C4_15 1_555 1_555
C4_15 C5_15 1_555 1_555
H3_16 C4_16 1_555 1_555
C4_16 C5_16 1_555 1_555
N2_16 Cu2_16 1_555 1_555
N3_16 Cu2_16 1_555 1_555
C10_16 N2_16 1_555 1_555
C12_16 C11_16 1_555 1_555
C13_16 C12_16 1_555 1_555
H10_16 C13_16 1_555 1_555
C14_16 C13_16 1_555 1_555
H11_16 C14_16 1_555 1_555
C15_16 N3_16 1_555 1_555
H12_16 C15_16 1_555 1_555
N3_16 C11_16 1_555 1_555
C14_16 C15_16 1_555 1_555
H5_15 C7_15 1_555 1_555
C8_15 C7_15 1_555 1_555
H6_15 C8_15 1_555 1_555
C9_15 C8_15 1_555 1_555
H7_11 C9_15 1_555 1_555
H5_16 C7_16 1_555 1_555
C8_16 C7_16 1_555 1_555
H6_16 C8_16 1_555 1_555
C9_16 C8_16 1_555 1_555
H7_12 C9_16 1_555 1_555
H5_17 C7_17 1_555 1_555
C8_17 C7_17 1_555 1_555
H6_17 C8_17 1_555 1_555
C9_17 C8_17 1_555 1_555
H7_13 C9_17 1_555 1_555
H5_18 C7_18 1_555 1_555
C8_18 C7_18 1_555 1_555
H6_18 C8_18 1_555 1_555
C9_18 C8_18 1_555 1_555
H7_14 C9_18 1_555 1_555
H3_17 C4_17 1_555 1_555
C4_17 C5_17 1_555 1_555
N2_17 Cu2_17 1_555 1_555
N3_17 Cu2_17 1_555 1_555
C10_17 N2_17 1_555 1_555
C12_17 C11_17 1_555 1_555
C13_17 C12_17 1_555 1_555
H10_17 C13_17 1_555 1_555
C14_17 C13_17 1_555 1_555
H11_17 C14_17 1_555 1_555
C15_17 N3_17 1_555 1_555
H12_17 C15_17 1_555 1_555
N3_17 C11_17 1_555 1_555
C14_17 C15_17 1_555 1_555
N2_18 Cu2_18 1_555 1_555
N3_18 Cu2_18 1_555 1_555
C10_18 N2_18 1_555 1_555
C12_18 C11_18 1_555 1_555
C13_18 C12_18 1_555 1_555
H10_18 C13_18 1_555 1_555
C14_18 C13_18 1_555 1_555
H11_18 C14_18 1_555 1_555
C15_18 N3_18 1_555 1_555
H12_18 C15_18 1_555 1_555
N3_18 C11_18 1_555 1_555
C14_18 C15_18 1_555 1_555
H3_18 C4_18 1_555 1_555
C4_18 C5_18 1_555 1_555

#END
