
###############################################################################
#
# This file contains modified crystal structure data generated from the
# MOF subset of the Cambridge Structural Database (CSD) v543 
# hosted by the Cambridge Crystallographic Data Centre (CCDC).
#
# This work is licensed under the Creative Commons
# Attribution-NonCommercial-ShareAlike 4.0 International License.
# To view a copy of this license, visit
# http://creativecommons.org/licenses/by-nc-sa/4.0/
# or send a letter to
# Creative Commons, PO Box 1866, Mountain View, CA 94042, USA.
#
# CIF created using the CSD Python API on 29 September 2022
# The structure has been converted into the P1 space group
# The structure has a 3D framework
# The original CSD entry QUDFAZ is in the rhombohedral crystal system
# The framework has been calculated to contain at least 10.0% void space
# The void calculation uses a probe of radius 1.32A, grid spacing 0.4
#
###############################################################################

data_QUDFAZ
_chemical_formula_moiety         '(C270 H216 Cu36 I25 N54 P18)n'
_symmetry_cell_setting           triclinic
_symmetry_space_group_name_H-M   'P 1'
_symmetry_Int_Tables_number      1
_space_group_name_Hall           'P 1'
loop_
_symmetry_equiv_pos_site_id
_symmetry_equiv_pos_as_xyz
1 x,y,z
_cell_length_a                   30.0438(12)
_cell_length_b                   30.0438(12)
_cell_length_c                   11.4013(5)
_cell_angle_alpha                90
_cell_angle_beta                 90
_cell_angle_gamma                120
_cell_volume                     8912.4
loop_
_atom_site_label
_atom_site_type_symbol
_atom_site_fract_x
_atom_site_fract_y
_atom_site_fract_z
I3 I 0.50965(5) 0.55566(5) 0.10390(12)
Cu3 Cu 0.53080(7) 0.48594(7) 0.09004(15)
Cu3_2 Cu 0.51406(7) 0.04486(10) 0.09004(15)
Cu3_3 Cu 0.95514(10) 0.46920(7) 0.09004(15)
I2 I 0.23324(6) 0.04104(5) 0.72747(12)
H8 H 0.1532 0.0511 0.9841
C15 C 0.3074(6) 0.0026(6) 0.9884(13)
H12 H 0.3237 0.0324 0.9405
Cu4 Cu 0.28847(10) 0.13587(7) 0.75671(15)
I2_2 I 0.95896(5) 0.19219(8) 0.72747(12)
H8_2 H 0.9489 0.1020 0.9841
C15_2 C 0.9974(6) 0.3047(8) 0.9884(13)
H12_2 H 0.9676 0.2912 0.9405
Cu4_2 Cu 0.86413(7) 0.15261(12) 0.75671(15)
I2_3 I 0.80781(8) 0.76676(6) 0.72747(12)
Cu2 Cu 0.78404(10) 0.79428(7) 0.89908(15)
N1 N 0.7547(7) 0.8414(5) 0.8622(10)
C1 C 0.7392(7) 0.8595(5) 0.9521(12)
C2 C 0.7222(7) 0.8945(5) 0.9374(13)
C3 C 0.7228(8) 0.9125(6) 0.8266(14)
H2 H 0.7115 0.9365 0.8134
C4 C 0.7405(9) 0.8952(7) 0.7330(14)
H3 H 0.7421 0.9081 0.6561
C5 C 0.7556(8) 0.8597(6) 0.7529(13)
H4 H 0.7669 0.8477 0.6888
H8_3 H 0.8980 0.8468 0.9841
C15_3 C 0.6953(8) 0.6926(6) 0.9884(13)
H12_3 H 0.7088 0.6763 0.9405
Cu4_3 Cu 0.84739(12) 0.71153(10) 0.75671(15)
I1 I 0.82368(5) 0.11101(5) 0.56277(12)
I2_4 I 0.89990(6) 0.37438(5) 0.06081(12)
Cu1 Cu 0.80253(7) 0.18073(7) 0.57663(15)
Cu2_2 Cu 0.87238(7) 0.32309(7) 0.23242(15)
P1 P 0.83063(13) 0.23761(13) 0.4336(3)
N1_2 N 0.8252(5) 0.2466(5) 0.1956(10)
N2 N 0.8264(5) 0.3242(5) 0.3643(11)
N3 N 0.9220(4) 0.3125(4) 0.3387(10)
C1_2 C 0.8071(5) 0.2130(5) 0.2855(12)
C2_2 C 0.7721(5) 0.1610(5) 0.2708(13)
H1 H 0.7610 0.1381 0.3358
C3_2 C 0.7541(6) 0.1436(6) 0.1600(14)
H2_2 H 0.7301 0.1083 0.1468
C4_2 C 0.7714(7) 0.1786(6) 0.0664(14)
C5_2 C 0.8069(6) 0.2292(6) 0.0863(13)
H4_2 H 0.8189 0.2525 0.0222
C6 C 0.8155(5) 0.2903(6) 0.4525(13)
C7 C 0.7940(7) 0.2923(7) 0.5549(15)
H5 H 0.7875 0.2678 0.6149
C8 C 0.7816(9) 0.3309(8) 0.5710(17)
H6 H 0.7670 0.3337 0.6424
C9 C 0.7912(7) 0.3646(7) 0.4804(17)
H7 H 0.7823 0.3907 0.4882
C10 C 0.8133(6) 0.3608(6) 0.3791(15)
H8_4 H 0.8198 0.3845 0.3175
C11 C 0.8998(5) 0.2711(5) 0.4108(11)
C12 C 0.9292(6) 0.2516(6) 0.4655(12)
H9 H 0.9133 0.2231 0.5176
C13 C 0.9801(6) 0.2742(6) 0.4424(13)
H10 H 0.9999 0.2605 0.4741
C15_4 C 0.9740(6) 0.3360(6) 0.3218(13)
H12_4 H 0.9903 0.3658 0.2739
I3_2 I 0.84298(5) 0.22233(5) 0.77057(12)
I4 I 0.70771(5) 0.14114(8) 0.60586(12)
I1_2 I 0.88899(5) 0.71268(7) 0.56277(12)
I2_5 I 0.62562(5) 0.52553(8) 0.06081(12)
Cu1_2 Cu 0.81927(7) 0.62181(10) 0.57663(15)
Cu2_3 Cu 0.67691(7) 0.54930(10) 0.23242(15)
P1_2 P 0.76239(13) 0.59303(18) 0.4336(3)
N1_3 N 0.7534(5) 0.5787(7) 0.1956(10)
N2_2 N 0.6758(5) 0.5023(7) 0.3643(11)
N3_2 N 0.6875(4) 0.6096(6) 0.3387(10)
C1_3 C 0.7870(5) 0.5942(7) 0.2855(12)
C2_3 C 0.8390(5) 0.6112(7) 0.2708(13)
H1_2 H 0.8619 0.6230 0.3358
C3_3 C 0.8564(6) 0.6106(8) 0.1600(14)
H2_3 H 0.8917 0.6219 0.1468
C4_3 C 0.8214(6) 0.5929(9) 0.0664(14)
C5_3 C 0.7708(6) 0.5778(8) 0.0863(13)
H4_3 H 0.7475 0.5665 0.0222
C6_2 C 0.7097(6) 0.5253(8) 0.4525(13)
C7_2 C 0.7077(7) 0.5018(10) 0.5549(15)
H5_2 H 0.7322 0.5198 0.6149
C8_2 C 0.6691(8) 0.4508(12) 0.5710(17)
H6_2 H 0.6663 0.4334 0.6424
C9_2 C 0.6354(7) 0.4267(10) 0.4804(17)
H7_2 H 0.6093 0.3917 0.4882
C10_2 C 0.6392(6) 0.4526(8) 0.3791(15)
H8_5 H 0.6155 0.4354 0.3175
C11_2 C 0.7289(5) 0.6288(7) 0.4108(11)
C12_2 C 0.7484(6) 0.6777(8) 0.4655(12)
H9_2 H 0.7769 0.6903 0.5176
C13_2 C 0.7258(6) 0.7060(8) 0.4424(13)
H10_2 H 0.7395 0.7395 0.4741
C14 C 0.6821(6) 0.6853(8) 0.3714(13)
H11 H 0.6649 0.7041 0.3577
C15_5 C 0.6640(6) 0.6381(8) 0.3218(13)
H12_5 H 0.6342 0.6246 0.2739
I3_3 I 0.77767(5) 0.62066(7) 0.77057(12)
I4_2 I 0.85886(8) 0.56657(9) 0.60586(12)
I1_3 I 0.28732(7) 0.17632(5) 0.56277(12)
I2_6 I 0.47447(8) 0.10010(6) 0.06081(12)
Cu1_3 Cu 0.37819(10) 0.19747(7) 0.57663(15)
Cu2_4 Cu 0.45070(10) 0.12762(7) 0.23242(15)
P1_3 P 0.40697(18) 0.16937(13) 0.4336(3)
N1_4 N 0.4213(7) 0.1748(5) 0.1956(10)
N2_3 N 0.4977(7) 0.1736(5) 0.3643(11)
N3_3 N 0.3904(6) 0.0780(4) 0.3387(10)
C1_4 C 0.4058(7) 0.1929(5) 0.2855(12)
C2_4 C 0.3888(7) 0.2279(5) 0.2708(13)
H1_3 H 0.3770 0.2390 0.3358
C3_4 C 0.3894(8) 0.2459(6) 0.1600(14)
H2_4 H 0.3781 0.2699 0.1468
C4_4 C 0.4071(9) 0.2286(7) 0.0664(14)
C5_4 C 0.4222(8) 0.1931(6) 0.0863(13)
H4_4 H 0.4335 0.1811 0.0222
C6_3 C 0.4747(8) 0.1845(5) 0.4525(13)
C7_3 C 0.4982(10) 0.2060(7) 0.5549(15)
H5_3 H 0.4802 0.2125 0.6149
C8_3 C 0.5492(12) 0.2184(9) 0.5710(17)
H6_3 H 0.5666 0.2330 0.6424
C9_3 C 0.5733(10) 0.2088(7) 0.4804(17)
H7_3 H 0.6083 0.2177 0.4882
C10_3 C 0.5474(8) 0.1867(6) 0.3791(15)
H8_6 H 0.5646 0.1802 0.3175
C11_3 C 0.3712(7) 0.1002(5) 0.4108(11)
C12_3 C 0.3223(8) 0.0708(6) 0.4655(12)
H9_3 H 0.3097 0.0867 0.5176
C13_3 C 0.2940(8) 0.0199(6) 0.4424(13)
H10_3 H 0.2605 0.0001 0.4741
C15_6 C 0.3619(8) 0.0260(6) 0.3218(13)
H12_6 H 0.3754 0.0097 0.2739
I3_4 I 0.37934(7) 0.15702(5) 0.77057(12)
I4_3 I 0.43343(9) 0.29229(5) 0.60586(12)
Cu2_5 Cu 0.46095(7) 0.34358(7) 0.43425(15)
P1_4 P 0.50270(13) 0.42906(13) 0.2331(3)
N1_5 N 0.5081(5) 0.4201(5) 0.4711(10)
N2_4 N 0.5069(5) 0.3425(5) 0.3024(11)
N3_4 N 0.4113(4) 0.3542(4) 0.3280(10)
C1_5 C 0.5262(5) 0.4537(5) 0.3812(12)
C2_5 C 0.5612(5) 0.5057(5) 0.3959(13)
H1_4 H 0.5723 0.5286 0.3309
C3_5 C 0.5792(6) 0.5231(6) 0.5067(14)
H2_5 H 0.6032 0.5584 0.5199
C4_5 C 0.5619(7) 0.4881(6) 0.6003(14)
H3_2 H 0.5748 0.4994 0.6772
C5_5 C 0.5264(6) 0.4375(6) 0.5804(13)
H4_5 H 0.5144 0.4142 0.6445
C6_4 C 0.5178(5) 0.3764(6) 0.2142(13)
C7_4 C 0.5393(7) 0.3744(7) 0.1118(15)
H5_4 H 0.5458 0.3989 0.0518
C8_4 C 0.5517(9) 0.3358(8) 0.0957(17)
H6_4 H 0.5663 0.3330 0.0243
C9_4 C 0.5421(7) 0.3021(7) 0.1863(17)
H7_4 H 0.5510 0.2760 0.1785
C10_4 C 0.5200(6) 0.3059(6) 0.2876(15)
H8_7 H 0.5135 0.2822 0.3492
C11_4 C 0.4335(5) 0.3956(5) 0.2559(11)
C12_4 C 0.4041(6) 0.4151(6) 0.2012(12)
H9_4 H 0.4200 0.4436 0.1491
C13_4 C 0.3532(6) 0.3925(6) 0.2243(13)
H10_4 H 0.3334 0.4062 0.1926
C14_2 C 0.3302(5) 0.3488(6) 0.2953(13)
H11_2 H 0.2942 0.3316 0.3090
C15_7 C 0.3593(6) 0.3307(6) 0.3449(13)
H12_7 H 0.3430 0.3009 0.3928
Cu2_6 Cu 0.65642(7) 0.11737(10) 0.43425(15)
P1_5 P 0.57094(13) 0.07364(18) 0.2331(3)
N1_6 N 0.5799(5) 0.0880(7) 0.4711(10)
N2_5 N 0.6575(5) 0.1644(7) 0.3024(11)
N3_5 N 0.6458(4) 0.0571(6) 0.3280(10)
C1_6 C 0.5463(5) 0.0725(7) 0.3812(12)
C2_6 C 0.4943(5) 0.0555(7) 0.3959(13)
H1_5 H 0.4714 0.0437 0.3309
C3_6 C 0.4769(6) 0.0561(8) 0.5067(14)
H2_6 H 0.4416 0.0448 0.5199
C4_6 C 0.5119(6) 0.0738(9) 0.6003(14)
H3_3 H 0.5006 0.0754 0.6772
C5_6 C 0.5625(6) 0.0889(8) 0.5804(13)
H4_6 H 0.5858 0.1002 0.6445
C6_5 C 0.6236(6) 0.1414(8) 0.2142(13)
C7_5 C 0.6256(7) 0.1649(10) 0.1118(15)
H5_5 H 0.6011 0.1469 0.0518
C8_5 C 0.6642(8) 0.2159(12) 0.0957(17)
H6_5 H 0.6670 0.2333 0.0243
C9_5 C 0.6979(7) 0.2400(10) 0.1863(17)
H7_5 H 0.7240 0.2750 0.1785
C10_5 C 0.6941(6) 0.2141(8) 0.2876(15)
H8_8 H 0.7178 0.2313 0.3492
C11_5 C 0.6044(5) 0.0379(7) 0.2559(11)
C15_8 C 0.6693(6) 0.0286(8) 0.3449(13)
H12_8 H 0.6991 0.0421 0.3928
Cu2_7 Cu 0.88263(10) 0.53905(7) 0.43425(15)
P1_6 P 0.92636(18) 0.49730(13) 0.2331(3)
N1_7 N 0.9120(7) 0.4919(5) 0.4711(10)
N2_6 N 0.8356(7) 0.4931(5) 0.3024(11)
N3_6 N 0.9429(6) 0.5887(4) 0.3280(10)
C1_7 C 0.9275(7) 0.4738(5) 0.3812(12)
C2_7 C 0.9445(7) 0.4388(5) 0.3959(13)
H1_6 H 0.9563 0.4277 0.3309
C3_7 C 0.9439(8) 0.4208(6) 0.5067(14)
H2_7 H 0.9552 0.3968 0.5199
C4_7 C 0.9262(9) 0.4381(7) 0.6003(14)
H3_4 H 0.9246 0.4252 0.6772
C5_7 C 0.9111(8) 0.4736(6) 0.5804(13)
H4_7 H 0.8998 0.4856 0.6445
C6_6 C 0.8586(8) 0.4822(5) 0.2142(13)
C7_6 C 0.8351(10) 0.4607(7) 0.1118(15)
H5_6 H 0.8531 0.4542 0.0518
C8_6 C 0.7841(12) 0.4483(9) 0.0957(17)
H6_6 H 0.7667 0.4337 0.0243
C9_6 C 0.7600(10) 0.4579(7) 0.1863(17)
H7_6 H 0.7250 0.4490 0.1785
C10_6 C 0.7859(8) 0.4800(6) 0.2876(15)
H8_9 H 0.7687 0.4865 0.3492
C11_6 C 0.9621(7) 0.5665(5) 0.2559(11)
C15_9 C 0.9714(8) 0.6407(6) 0.3449(13)
H12_9 H 0.9579 0.6570 0.3928
P1_7 P 0.83603(13) 0.09573(13) 0.8998(3)
N2_7 N 0.8402(5) 0.0092(5) 0.9691(11)
N3_7 N 0.7446(4) 0.0209(4) 0.9947(10)
H1_7 H 0.9056 0.1953 0.9976
C6_7 C 0.8511(5) 0.0431(6) 0.8809(13)
C7_7 C 0.8726(7) 0.0411(7) 0.7785(15)
H5_7 H 0.8791 0.0656 0.7185
C8_7 C 0.8850(9) 0.0025(8) 0.7624(17)
C11_7 C 0.7668(5) 0.0623(5) 0.9226(11)
C12_5 C 0.7374(6) 0.0818(6) 0.8679(12)
H9_5 H 0.7533 0.1103 0.8158
C13_5 C 0.6865(6) 0.0592(6) 0.8910(13)
H10_5 H 0.6667 0.0729 0.8593
C14_3 C 0.6635(5) 0.0155(6) 0.9620(13)
P1_8 P 0.90427(13) 0.74031(18) 0.8998(3)
N2_8 N 0.9908(5) 0.8311(7) 0.9691(11)
N3_8 N 0.9791(4) 0.7238(6) 0.9947(10)
H1_8 H 0.8047 0.7104 0.9976
C6_8 C 0.9569(6) 0.8081(8) 0.8809(13)
C7_8 C 0.9589(7) 0.8316(10) 0.7785(15)
H5_8 H 0.9344 0.8136 0.7185
C8_8 C 0.9975(8) 0.8826(12) 0.7624(17)
C11_8 C 0.9377(5) 0.7046(7) 0.9226(11)
C12_6 C 0.9182(6) 0.6557(8) 0.8679(12)
H9_6 H 0.8897 0.6431 0.8158
C13_6 C 0.9408(6) 0.6274(8) 0.8910(13)
H10_6 H 0.9271 0.5939 0.8593
C14_4 C 0.9845(6) 0.6481(8) 0.9620(13)
P1_9 P 0.25969(18) 0.16397(13) 0.8998(3)
N2_9 N 0.1689(7) 0.1598(5) 0.9691(11)
N3_9 N 0.2762(6) 0.2554(4) 0.9947(10)
H1_9 H 0.2896 0.0944 0.9976
C6_9 C 0.1919(8) 0.1489(5) 0.8809(13)
C7_9 C 0.1684(10) 0.1274(7) 0.7785(15)
H5_9 H 0.1864 0.1209 0.7185
C8_9 C 0.1174(12) 0.1150(9) 0.7624(17)
H6_7 H 0.1000 0.1004 0.6910
C9_7 C 0.0933(10) 0.1246(7) 0.8530(17)
H7_7 H 0.0583 0.1157 0.8452
C10_7 C 0.1192(8) 0.1467(6) 0.9543(15)
C11_9 C 0.2954(7) 0.2332(5) 0.9226(11)
C12_7 C 0.3443(8) 0.2626(6) 0.8679(12)
H9_7 H 0.3569 0.2467 0.8158
C13_7 C 0.3726(8) 0.3135(6) 0.8910(13)
H10_7 H 0.4061 0.3333 0.8593
C14_5 C 0.3519(8) 0.3365(5) 0.9620(13)
H11_3 H 0.3707 0.3725 0.9757
I1_4 I 0.49035(5) 0.44434(5) 0.89610(12)
I2_7 I 0.56657(6) 0.70771(5) 0.39414(12)
Cu1_4 Cu 0.46920(7) 0.51406(7) 0.90996(15)
Cu2_8 Cu 0.53905(7) 0.65642(7) 0.56575(15)
P1_10 P 0.49730(13) 0.57094(13) 0.7669(3)
N1_8 N 0.4919(5) 0.5799(5) 0.5289(10)
N2_10 N 0.4931(5) 0.6575(5) 0.6976(11)
N3_10 N 0.5887(4) 0.6458(4) 0.6720(10)
C1_8 C 0.4738(5) 0.5463(5) 0.6188(12)
C2_8 C 0.4388(5) 0.4943(5) 0.6041(13)
H1_10 H 0.4277 0.4714 0.6691
C3_8 C 0.4208(6) 0.4769(6) 0.4933(14)
H2_8 H 0.3968 0.4416 0.4801
C4_8 C 0.4381(7) 0.5119(6) 0.3997(14)
H3_5 H 0.4252 0.5006 0.3228
C5_8 C 0.4736(6) 0.5625(6) 0.4196(13)
H4_8 H 0.4856 0.5858 0.3555
C6_10 C 0.4822(5) 0.6236(6) 0.7858(13)
C7_10 C 0.4607(7) 0.6256(7) 0.8882(15)
H5_10 H 0.4542 0.6011 0.9482
C8_10 C 0.4483(9) 0.6642(8) 0.9043(17)
H6_8 H 0.4337 0.6670 0.9757
C9_8 C 0.4579(7) 0.6979(7) 0.8137(17)
H7_8 H 0.4490 0.7240 0.8215
C10_8 C 0.4800(6) 0.6941(6) 0.7124(15)
H8_10 H 0.4865 0.7178 0.6508
C11_10 C 0.5665(5) 0.6044(5) 0.7441(11)
C12_8 C 0.5959(6) 0.5849(6) 0.7988(12)
H9_8 H 0.5800 0.5564 0.8509
C13_8 C 0.6468(6) 0.6075(6) 0.7757(13)
H10_8 H 0.6666 0.5938 0.8074
C14_6 C 0.6698(5) 0.6512(6) 0.7047(13)
H11_4 H 0.7058 0.6684 0.6910
C15_10 C 0.6407(6) 0.6693(6) 0.6551(13)
H12_10 H 0.6570 0.6991 0.6072
I4_4 I 0.37438(5) 0.47447(8) 0.93919(12)
Cu4_4 Cu 0.62181(10) 0.80253(7) 0.42337(15)
I2_8 I 0.29229(5) 0.85886(8) 0.39414(12)
Cu1_5 Cu 0.48594(7) 0.95514(10) 0.90996(15)
Cu2_9 Cu 0.34358(7) 0.88263(10) 0.56575(15)
P1_11 P 0.42906(13) 0.92636(18) 0.7669(3)
N1_9 N 0.4201(5) 0.9120(7) 0.5289(10)
N2_11 N 0.3425(5) 0.8356(7) 0.6976(11)
N3_11 N 0.3542(4) 0.9429(6) 0.6720(10)
C1_9 C 0.4537(5) 0.9275(7) 0.6188(12)
C2_9 C 0.5057(5) 0.9445(7) 0.6041(13)
H1_11 H 0.5286 0.9563 0.6691
C3_9 C 0.5231(6) 0.9439(8) 0.4933(14)
H2_9 H 0.5584 0.9552 0.4801
C4_9 C 0.4881(6) 0.9262(9) 0.3997(14)
H3_6 H 0.4994 0.9246 0.3228
C5_9 C 0.4375(6) 0.9111(8) 0.4196(13)
H4_9 H 0.4142 0.8998 0.3555
C6_11 C 0.3764(6) 0.8586(8) 0.7858(13)
C7_11 C 0.3744(7) 0.8351(10) 0.8882(15)
H5_11 H 0.3989 0.8531 0.9482
C8_11 C 0.3358(8) 0.7841(12) 0.9043(17)
H6_9 H 0.3330 0.7667 0.9757
C9_9 C 0.3021(7) 0.7600(10) 0.8137(17)
H7_9 H 0.2760 0.7250 0.8215
C10_9 C 0.3059(6) 0.7859(8) 0.7124(15)
H8_11 H 0.2822 0.7687 0.6508
C11_11 C 0.3956(5) 0.9621(7) 0.7441(11)
C15_11 C 0.3307(6) 0.9714(8) 0.6551(13)
H12_11 H 0.3009 0.9579 0.6072
I4_5 I 0.52553(8) 0.89990(9) 0.93919(12)
Cu4_5 Cu 0.19747(7) 0.81927(12) 0.42337(15)
I2_9 I 0.14114(8) 0.43343(6) 0.39414(12)
Cu1_6 Cu 0.04486(10) 0.53080(7) 0.90996(15)
Cu2_10 Cu 0.11737(10) 0.46095(7) 0.56575(15)
P1_12 P 0.07364(18) 0.50270(13) 0.7669(3)
N1_10 N 0.0880(7) 0.5081(5) 0.5289(10)
N2_12 N 0.1644(7) 0.5069(5) 0.6976(11)
N3_12 N 0.0571(6) 0.4113(4) 0.6720(10)
C1_10 C 0.0725(7) 0.5262(5) 0.6188(12)
C2_10 C 0.0555(7) 0.5612(5) 0.6041(13)
H1_12 H 0.0437 0.5723 0.6691
C3_10 C 0.0561(8) 0.5792(6) 0.4933(14)
H2_10 H 0.0448 0.6032 0.4801
C4_10 C 0.0738(9) 0.5619(7) 0.3997(14)
H3_7 H 0.0754 0.5748 0.3228
C5_10 C 0.0889(8) 0.5264(6) 0.4196(13)
H4_10 H 0.1002 0.5144 0.3555
C6_12 C 0.1414(8) 0.5178(5) 0.7858(13)
C7_12 C 0.1649(10) 0.5393(7) 0.8882(15)
H5_12 H 0.1469 0.5458 0.9482
C8_12 C 0.2159(12) 0.5517(9) 0.9043(17)
H6_10 H 0.2333 0.5663 0.9757
C9_10 C 0.2400(10) 0.5421(7) 0.8137(17)
H7_10 H 0.2750 0.5510 0.8215
C10_10 C 0.2141(8) 0.5200(6) 0.7124(15)
H8_12 H 0.2313 0.5135 0.6508
C11_12 C 0.0379(7) 0.4335(5) 0.7441(11)
C15_12 C 0.0286(8) 0.3593(6) 0.6551(13)
H12_12 H 0.0421 0.3430 0.6072
I4_6 I 0.10010(9) 0.62562(5) 0.93919(12)
Cu4_6 Cu 0.18073(12) 0.37819(10) 0.42337(15)
I1_5 I 0.15702(5) 0.77767(5) 0.22943(12)
Cu1_7 Cu 0.13587(7) 0.84739(7) 0.24329(15)
P1_13 P 0.16397(13) 0.90427(13) 0.1002(3)
N2_13 N 0.1598(5) 0.9908(5) 0.0309(11)
N3_13 N 0.2554(4) 0.9791(4) 0.0053(10)
H1_13 H 0.0944 0.8047 0.0024
C6_13 C 0.1489(5) 0.9569(6) 0.1191(13)
C7_13 C 0.1274(7) 0.9589(7) 0.2215(15)
H5_13 H 0.1209 0.9344 0.2815
C8_13 C 0.1150(9) 0.9975(8) 0.2376(17)
C11_13 C 0.2332(5) 0.9377(5) 0.0774(11)
C12_9 C 0.2626(6) 0.9182(6) 0.1321(12)
H9_9 H 0.2467 0.8897 0.1842
C13_9 C 0.3135(6) 0.9408(6) 0.1090(13)
H10_9 H 0.3333 0.9271 0.1407
C14_7 C 0.3365(5) 0.9845(6) 0.0380(13)
I3_5 I 0.17632(5) 0.88899(5) 0.43723(12)
I4_7 I 0.04104(5) 0.80781(8) 0.27253(12)
I1_6 I 0.22233(5) 0.37934(7) 0.22943(12)
Cu1_8 Cu 0.15261(7) 0.28847(10) 0.24329(15)
P1_14 P 0.09573(13) 0.25969(18) 0.1002(3)
N2_14 N 0.0092(5) 0.1689(7) 0.0309(11)
N3_14 N 0.0209(4) 0.2762(6) 0.0053(10)
H1_14 H 0.1953 0.2896 0.0024
C6_14 C 0.0431(6) 0.1919(8) 0.1191(13)
C7_14 C 0.0411(7) 0.1684(10) 0.2215(15)
H5_14 H 0.0656 0.1864 0.2815
C8_14 C 0.0025(8) 0.1174(12) 0.2376(17)
C11_14 C 0.0623(5) 0.2954(7) 0.0774(11)
C12_10 C 0.0818(6) 0.3443(8) 0.1321(12)
H9_10 H 0.1103 0.3569 0.1842
C13_10 C 0.0592(6) 0.3726(8) 0.1090(13)
H10_10 H 0.0729 0.4061 0.1407
C14_8 C 0.0155(6) 0.3519(8) 0.0380(13)
I3_6 I 0.11101(5) 0.28732(7) 0.43723(12)
I4_8 I 0.19219(8) 0.23324(9) 0.27253(12)
I1_7 I 0.62066(7) 0.84298(5) 0.22943(12)
Cu1_9 Cu 0.71153(10) 0.86413(7) 0.24329(15)
P1_15 P 0.74031(18) 0.83603(13) 0.1002(3)
N2_15 N 0.8311(7) 0.8402(5) 0.0309(11)
N3_15 N 0.7238(6) 0.7446(4) 0.0053(10)
H1_15 H 0.7104 0.9056 0.0024
C6_15 C 0.8081(8) 0.8511(5) 0.1191(13)
C7_15 C 0.8316(10) 0.8726(7) 0.2215(15)
H5_15 H 0.8136 0.8791 0.2815
C8_15 C 0.8826(12) 0.8850(9) 0.2376(17)
H6_11 H 0.9000 0.8996 0.3090
C9_11 C 0.9067(10) 0.8754(7) 0.1470(17)
H7_11 H 0.9417 0.8843 0.1548
C10_11 C 0.8808(8) 0.8533(6) 0.0457(15)
C11_15 C 0.7046(7) 0.7668(5) 0.0774(11)
C12_11 C 0.6557(8) 0.7374(6) 0.1321(12)
H9_11 H 0.6431 0.7533 0.1842
C13_11 C 0.6274(8) 0.6865(6) 0.1090(13)
H10_11 H 0.5939 0.6667 0.1407
C14_9 C 0.6481(8) 0.6635(5) 0.0380(13)
H11_5 H 0.6293 0.6275 0.0243
I3_7 I 0.71268(7) 0.82368(5) 0.43723(12)
I4_9 I 0.76676(9) 0.95896(5) 0.27253(12)
H8_13 H 0.8468 0.9489 0.0159
C15_13 C 0.6926(6) 0.9974(6) 0.0116(13)
H12_13 H 0.6763 0.9676 0.0595
H8_14 H 0.0511 0.8980 0.0159
C15_14 C 0.0026(6) 0.6953(8) 0.0116(13)
H12_14 H 0.0324 0.7088 0.0595
Cu2_11 Cu 0.21596(10) 0.20572(7) 0.10092(15)
N1_11 N 0.2453(7) 0.1586(5) 0.1378(10)
C1_11 C 0.2608(7) 0.1405(5) 0.0479(12)
C2_11 C 0.2778(7) 0.1055(5) 0.0626(13)
C3_11 C 0.2772(8) 0.0875(6) 0.1734(14)
H2_11 H 0.2885 0.0635 0.1866
C4_11 C 0.2595(9) 0.1048(7) 0.2670(14)
H3_8 H 0.2579 0.0919 0.3439
C5_11 C 0.2444(8) 0.1403(6) 0.2471(13)
H4_11 H 0.2331 0.1523 0.3112
H8_15 H 0.1020 0.1532 0.0159
C15_15 C 0.3047(8) 0.3074(6) 0.0116(13)
H12_15 H 0.2912 0.3237 0.0595
Cu2_12 Cu 0.12762(7) 0.67691(7) 0.76758(15)
P1_16 P 0.16937(13) 0.76239(13) 0.5664(3)
N1_12 N 0.1748(5) 0.7534(5) 0.8044(10)
N2_16 N 0.1736(5) 0.6758(5) 0.6357(11)
N3_16 N 0.0780(4) 0.6875(4) 0.6613(10)
C1_12 C 0.1929(5) 0.7870(5) 0.7145(12)
C2_12 C 0.2279(5) 0.8390(5) 0.7292(13)
H1_16 H 0.2390 0.8619 0.6642
C3_12 C 0.2459(6) 0.8564(6) 0.8400(14)
H2_12 H 0.2699 0.8917 0.8532
C4_12 C 0.2286(7) 0.8214(6) 0.9336(14)
C5_12 C 0.1931(6) 0.7708(6) 0.9137(13)
H4_12 H 0.1811 0.7475 0.9778
C6_16 C 0.1845(5) 0.7097(6) 0.5475(13)
C7_16 C 0.2060(7) 0.7077(7) 0.4451(15)
H5_16 H 0.2125 0.7322 0.3851
C8_16 C 0.2184(9) 0.6691(8) 0.4290(17)
H6_12 H 0.2330 0.6663 0.3576
C9_12 C 0.2088(7) 0.6354(7) 0.5196(17)
H7_12 H 0.2177 0.6093 0.5118
C10_12 C 0.1867(6) 0.6392(6) 0.6209(15)
H8_16 H 0.1802 0.6155 0.6825
C11_16 C 0.1002(5) 0.7289(5) 0.5892(11)
C12_12 C 0.0708(6) 0.7484(6) 0.5345(12)
H9_12 H 0.0867 0.7769 0.4824
C13_12 C 0.0199(6) 0.7258(6) 0.5576(13)
H10_12 H 0.0001 0.7395 0.5259
C15_16 C 0.0260(6) 0.6640(6) 0.6782(13)
H12_16 H 0.0097 0.6342 0.7261
Cu2_13 Cu 0.32309(7) 0.45070(10) 0.76758(15)
P1_17 P 0.23761(13) 0.40697(18) 0.5664(3)
N1_13 N 0.2466(5) 0.4213(7) 0.8044(10)
N2_17 N 0.3242(5) 0.4977(7) 0.6357(11)
N3_17 N 0.3125(4) 0.3904(6) 0.6613(10)
C1_13 C 0.2130(5) 0.4058(7) 0.7145(12)
C2_13 C 0.1610(5) 0.3888(7) 0.7292(13)
H1_17 H 0.1381 0.3770 0.6642
C3_13 C 0.1436(6) 0.3894(8) 0.8400(14)
H2_13 H 0.1083 0.3781 0.8532
C4_13 C 0.1786(6) 0.4071(9) 0.9336(14)
C5_13 C 0.2292(6) 0.4222(8) 0.9137(13)
H4_13 H 0.2525 0.4335 0.9778
C6_17 C 0.2903(6) 0.4747(8) 0.5475(13)
C7_17 C 0.2923(7) 0.4982(10) 0.4451(15)
H5_17 H 0.2678 0.4802 0.3851
C8_17 C 0.3309(8) 0.5492(12) 0.4290(17)
H6_13 H 0.3337 0.5666 0.3576
C9_13 C 0.3646(7) 0.5733(10) 0.5196(17)
H7_13 H 0.3907 0.6083 0.5118
C10_13 C 0.3608(6) 0.5474(8) 0.6209(15)
H8_17 H 0.3845 0.5646 0.6825
C11_17 C 0.2711(5) 0.3712(7) 0.5892(11)
C12_13 C 0.2516(6) 0.3223(8) 0.5345(12)
H9_13 H 0.2231 0.3097 0.4824
C13_13 C 0.2742(6) 0.2940(8) 0.5576(13)
H10_13 H 0.2605 0.2605 0.5259
C14_10 C 0.3179(6) 0.3147(8) 0.6286(13)
H11_6 H 0.3351 0.2959 0.6423
C15_17 C 0.3360(6) 0.3619(8) 0.6782(13)
H12_17 H 0.3658 0.3754 0.7261
Cu2_14 Cu 0.54930(10) 0.87238(7) 0.76758(15)
P1_18 P 0.59303(18) 0.83063(13) 0.5664(3)
N1_14 N 0.5787(7) 0.8252(5) 0.8044(10)
N2_18 N 0.5023(7) 0.8264(5) 0.6357(11)
N3_18 N 0.6096(6) 0.9220(4) 0.6613(10)
C1_14 C 0.5942(7) 0.8071(5) 0.7145(12)
C2_14 C 0.6112(7) 0.7721(5) 0.7292(13)
H1_18 H 0.6230 0.7610 0.6642
C3_14 C 0.6106(8) 0.7541(6) 0.8400(14)
H2_14 H 0.6219 0.7301 0.8532
C4_14 C 0.5929(9) 0.7714(7) 0.9336(14)
C5_14 C 0.5778(8) 0.8069(6) 0.9137(13)
H4_14 H 0.5665 0.8189 0.9778
C6_18 C 0.5253(8) 0.8155(5) 0.5475(13)
C7_18 C 0.5018(10) 0.7940(7) 0.4451(15)
H5_18 H 0.5198 0.7875 0.3851
C8_18 C 0.4508(12) 0.7816(9) 0.4290(17)
H6_14 H 0.4334 0.7670 0.3576
C9_14 C 0.4267(10) 0.7912(7) 0.5196(17)
H7_14 H 0.3917 0.7823 0.5118
C10_14 C 0.4526(8) 0.8133(6) 0.6209(15)
H8_18 H 0.4354 0.8198 0.6825
C11_18 C 0.6288(7) 0.8998(5) 0.5892(11)
C12_14 C 0.6777(8) 0.9292(6) 0.5345(12)
H9_14 H 0.6903 0.9133 0.4824
C13_14 C 0.7060(8) 0.9801(6) 0.5576(13)
H10_14 H 0.7395 0.9999 0.5259
C15_18 C 0.6381(8) 0.9740(6) 0.6782(13)
H12_18 H 0.6246 0.9903 0.7261
I1_8 I 0.55566(5) 0.04601(7) 0.89610(12)
C12_15 C 0.4151(6) 0.0110(8) 0.7988(12)
H9_15 H 0.4436 0.0236 0.8509
C13_15 C 0.3925(6) 0.0393(8) 0.7757(13)
H10_15 H 0.4062 0.0728 0.8074
C14_11 C 0.3488(6) 0.0186(8) 0.7047(13)
H11_7 H 0.3316 0.0374 0.6910
I3_8 I 0.44434(5) 0.95399(7) 0.10390(12)
C12_16 C 0.5849(6) 0.9890(8) 0.2012(12)
H9_16 H 0.5564 0.9764 0.1491
C13_16 C 0.6075(6) 0.9607(8) 0.2243(13)
H10_16 H 0.5938 0.9272 0.1926
C14_12 C 0.6512(6) 0.9814(8) 0.2953(13)
H11_8 H 0.6684 0.9626 0.3090
I3_9 I 0.04601(7) 0.49035(5) 0.10390(12)
C12_17 C 0.0110(8) 0.5959(6) 0.2012(12)
H9_17 H 0.0236 0.5800 0.1491
C13_17 C 0.0393(8) 0.6468(6) 0.2243(13)
H10_17 H 0.0728 0.6666 0.1926
C14_13 C 0.0186(8) 0.6698(5) 0.2953(13)
H11_9 H 0.0374 0.7058 0.3090
I1_9 I 0.95399(7) 0.50965(5) 0.89610(12)
C12_18 C 0.9890(8) 0.4041(6) 0.7988(12)
H9_18 H 0.9764 0.4200 0.8509
C13_18 C 0.9607(8) 0.3532(6) 0.7757(13)
H10_18 H 0.9272 0.3334 0.8074
C14_14 C 0.9814(8) 0.3302(5) 0.7047(13)
H11_10 H 0.9626 0.2942 0.6910
H6_15 H 0.1004 0.0003 0.3090
C9_15 C 0.1246(7) 0.0312(7) 0.1470(17)
H7_15 H 0.1157 0.0573 0.1548
C10_15 C 0.1467(6) 0.0274(6) 0.0457(15)
H11_11 H 0.3725 0.0017 0.0243
Cu2_15 Cu 0.20572(7) 0.98975(7) 0.89908(15)
N1_15 N 0.1586(5) 0.9132(5) 0.8622(10)
C1_15 C 0.1405(5) 0.8796(5) 0.9521(12)
C2_15 C 0.1055(5) 0.8276(5) 0.9374(13)
C3_15 C 0.0875(6) 0.8102(6) 0.8266(14)
H2_15 H 0.0635 0.7749 0.8134
C4_15 C 0.1048(7) 0.8452(6) 0.7330(14)
H3_9 H 0.0919 0.8339 0.6561
C5_15 C 0.1403(6) 0.8958(6) 0.7529(13)
H4_15 H 0.1523 0.9191 0.6888
Cu2_16 Cu 0.01025(7) 0.21596(10) 0.89908(15)
N1_16 N 0.0868(5) 0.2453(7) 0.8622(10)
C1_16 C 0.1204(5) 0.2608(7) 0.9521(12)
C2_16 C 0.1724(5) 0.2778(7) 0.9374(13)
C3_16 C 0.1898(6) 0.2772(8) 0.8266(14)
H2_16 H 0.2251 0.2885 0.8134
C4_16 C 0.1548(6) 0.2595(9) 0.7330(14)
H3_10 H 0.1661 0.2579 0.6561
C5_16 C 0.1042(6) 0.2444(8) 0.7529(13)
H4_16 H 0.0809 0.2331 0.6888
H6_16 H 0.9997 0.1000 0.3090
C9_16 C 0.9688(7) 0.0933(10) 0.1470(17)
H7_16 H 0.9427 0.0583 0.1548
C10_16 C 0.9726(6) 0.1192(8) 0.0457(15)
H11_12 H 0.9983 0.3707 0.0243
C14_15 C 0.0031(5) 0.3179(6) 0.3714(13)
H11_13 H 0.0391 0.3351 0.3577
H3_11 H 0.7585 0.1673 0.9895
H3_12 H 0.8327 0.5913 0.9895
H3_13 H 0.4087 0.2415 0.9895
C14_16 C 0.3147(8) 0.9969(5) 0.3714(13)
H11_14 H 0.2959 0.9609 0.3577
Cu2_17 Cu 0.79428(7) 0.01025(7) 0.10092(15)
N1_17 N 0.8414(5) 0.0868(5) 0.1378(10)
C1_17 C 0.8595(5) 0.1204(5) 0.0479(12)
C2_17 C 0.8945(5) 0.1724(5) 0.0626(13)
C3_17 C 0.9125(6) 0.1898(6) 0.1734(14)
H2_17 H 0.9365 0.2251 0.1866
C4_17 C 0.8952(7) 0.1548(6) 0.2670(14)
H3_14 H 0.9081 0.1661 0.3439
C5_17 C 0.8597(6) 0.1042(6) 0.2471(13)
H4_17 H 0.8477 0.0809 0.3112
H6_17 H 0.8996 0.9997 0.6910
C9_17 C 0.8754(7) 0.9688(7) 0.8530(17)
H7_17 H 0.8843 0.9427 0.8452
C10_17 C 0.8533(6) 0.9726(6) 0.9543(15)
H11_15 H 0.6275 0.9983 0.9757
H6_18 H 0.0003 0.9000 0.6910
C9_18 C 0.0312(7) 0.9067(10) 0.8530(17)
H7_18 H 0.0573 0.9417 0.8452
C10_18 C 0.0274(6) 0.8808(8) 0.9543(15)
H11_16 H 0.0017 0.6293 0.9757
Cu2_18 Cu 0.98975(7) 0.78404(10) 0.10092(15)
N1_18 N 0.9132(5) 0.7547(7) 0.1378(10)
C1_18 C 0.8796(5) 0.7392(7) 0.0479(12)
C2_18 C 0.8276(5) 0.7222(7) 0.0626(13)
C3_18 C 0.8102(6) 0.7228(8) 0.1734(14)
H2_18 H 0.7749 0.7115 0.1866
C4_18 C 0.8452(6) 0.7405(9) 0.2670(14)
H3_15 H 0.8339 0.7421 0.3439
C5_18 C 0.8958(6) 0.7556(8) 0.2471(13)
H4_18 H 0.9191 0.7669 0.3112
H3_16 H 0.2415 0.8327 0.0105
C14_17 C 0.9969(5) 0.6821(6) 0.6286(13)
H11_17 H 0.9609 0.6649 0.6423
H3_17 H 0.1673 0.4087 0.0105
C14_18 C 0.6853(8) 0.0031(5) 0.6286(13)
H11_18 H 0.7041 0.0391 0.6423
H3_18 H 0.5913 0.7585 0.0105
loop_
_geom_bond_atom_site_label_1
_geom_bond_atom_site_label_2
_geom_bond_site_symmetry_1
_geom_bond_site_symmetry_2
I3 Cu3 1_555 1_555
H12 C15 1_555 1_555
Cu4 I2 1_555 1_555
H12_2 C15_2 1_555 1_555
Cu4_2 I2_2 1_555 1_555
I2_3 Cu2 1_555 1_555
Cu2 N1 1_555 1_555
N1 C1 1_555 1_555
C1 C2 1_555 1_555
C3 C2 1_555 1_555
H2 C3 1_555 1_555
C4 C3 1_555 1_555
H3 C4 1_555 1_555
C5 N1 1_555 1_555
H4 C5 1_555 1_555
H12_3 C15_3 1_555 1_555
Cu4_3 I2_3 1_555 1_555
C4 C5 1_555 1_555
I1 Cu1 1_555 1_555
I2_4 Cu2_2 1_555 1_555
Cu1 P1 1_555 1_555
Cu2_2 N1_2 1_555 1_555
P1 C1_2 1_555 1_555
N1_2 C1_2 1_555 1_555
N2 Cu2_2 1_555 1_555
N3 Cu2_2 1_555 1_555
C1_2 C2_2 1_555 1_555
C2_2 H1 1_555 1_555
C3_2 C2_2 1_555 1_555
H2_2 C3_2 1_555 1_555
C4_2 C3_2 1_555 1_555
C5_2 N1_2 1_555 1_555
H4_2 C5_2 1_555 1_555
C6 P1 1_555 1_555
C7 C6 1_555 1_555
H5 C7 1_555 1_555
C8 C7 1_555 1_555
H6 C8 1_555 1_555
C9 C8 1_555 1_555
H7 C9 1_555 1_555
C10 N2 1_555 1_555
H8_4 C10 1_555 1_555
C11 P1 1_555 1_555
C12 C11 1_555 1_555
H9 C12 1_555 1_555
C13 C12 1_555 1_555
H10 C13 1_555 1_555
C15_4 N3 1_555 1_555
H12_4 C15_4 1_555 1_555
I3_2 Cu1 1_555 1_555
I4 Cu1 1_555 1_555
Cu4_2 I1 1_555 1_555
Cu3_3 I2_4 1_555 1_555
N2 C6 1_555 1_555
N3 C11 1_555 1_555
C4_2 C5_2 1_555 1_555
C9 C10 1_555 1_555
I3_2 Cu4_2 1_555 1_555
I1_2 Cu1_2 1_555 1_555
I2_5 Cu2_3 1_555 1_555
Cu1_2 P1_2 1_555 1_555
Cu2_3 N1_3 1_555 1_555
P1_2 C1_3 1_555 1_555
N1_3 C1_3 1_555 1_555
N2_2 Cu2_3 1_555 1_555
N3_2 Cu2_3 1_555 1_555
C1_3 C2_3 1_555 1_555
C2_3 H1_2 1_555 1_555
C3_3 C2_3 1_555 1_555
H2_3 C3_3 1_555 1_555
C4_3 C3_3 1_555 1_555
C5_3 N1_3 1_555 1_555
H4_3 C5_3 1_555 1_555
C6_2 P1_2 1_555 1_555
C7_2 C6_2 1_555 1_555
H5_2 C7_2 1_555 1_555
C8_2 C7_2 1_555 1_555
H6_2 C8_2 1_555 1_555
C9_2 C8_2 1_555 1_555
H7_2 C9_2 1_555 1_555
C10_2 N2_2 1_555 1_555
H8_5 C10_2 1_555 1_555
C11_2 P1_2 1_555 1_555
C12_2 C11_2 1_555 1_555
H9_2 C12_2 1_555 1_555
C13_2 C12_2 1_555 1_555
H10_2 C13_2 1_555 1_555
C14 C13_2 1_555 1_555
H11 C14 1_555 1_555
C15_5 N3_2 1_555 1_555
H12_5 C15_5 1_555 1_555
I3_3 Cu1_2 1_555 1_555
I4_2 Cu1_2 1_555 1_555
Cu4_3 I1_2 1_555 1_555
Cu3 I2_5 1_555 1_555
N2_2 C6_2 1_555 1_555
N3_2 C11_2 1_555 1_555
C4_3 C5_3 1_555 1_555
C9_2 C10_2 1_555 1_555
C14 C15_5 1_555 1_555
I3_3 Cu4_3 1_555 1_555
I1_3 Cu1_3 1_555 1_555
I2_6 Cu2_4 1_555 1_555
Cu1_3 P1_3 1_555 1_555
Cu2_4 N1_4 1_555 1_555
P1_3 C1_4 1_555 1_555
N1_4 C1_4 1_555 1_555
N2_3 Cu2_4 1_555 1_555
N3_3 Cu2_4 1_555 1_555
C1_4 C2_4 1_555 1_555
C2_4 H1_3 1_555 1_555
C3_4 C2_4 1_555 1_555
H2_4 C3_4 1_555 1_555
C4_4 C3_4 1_555 1_555
C5_4 N1_4 1_555 1_555
H4_4 C5_4 1_555 1_555
C6_3 P1_3 1_555 1_555
C7_3 C6_3 1_555 1_555
H5_3 C7_3 1_555 1_555
C8_3 C7_3 1_555 1_555
H6_3 C8_3 1_555 1_555
C9_3 C8_3 1_555 1_555
H7_3 C9_3 1_555 1_555
C10_3 N2_3 1_555 1_555
H8_6 C10_3 1_555 1_555
C11_3 P1_3 1_555 1_555
C12_3 C11_3 1_555 1_555
H9_3 C12_3 1_555 1_555
C13_3 C12_3 1_555 1_555
H10_3 C13_3 1_555 1_555
C15_6 N3_3 1_555 1_555
H12_6 C15_6 1_555 1_555
I3_4 Cu1_3 1_555 1_555
I4_3 Cu1_3 1_555 1_555
Cu4 I1_3 1_555 1_555
Cu3_2 I2_6 1_555 1_555
N2_3 C6_3 1_555 1_555
N3_3 C11_3 1_555 1_555
C4_4 C5_4 1_555 1_555
C9_3 C10_3 1_555 1_555
I3_4 Cu4 1_555 1_555
I4_3 Cu2_5 1_555 1_555
Cu3 P1_4 1_555 1_555
Cu2_5 N1_5 1_555 1_555
P1_4 C1_5 1_555 1_555
N1_5 C1_5 1_555 1_555
N2_4 Cu2_5 1_555 1_555
N3_4 Cu2_5 1_555 1_555
C1_5 C2_5 1_555 1_555
C2_5 H1_4 1_555 1_555
C3_5 C2_5 1_555 1_555
H2_5 C3_5 1_555 1_555
C4_5 C3_5 1_555 1_555
H3_2 C4_5 1_555 1_555
C5_5 N1_5 1_555 1_555
H4_5 C5_5 1_555 1_555
C6_4 P1_4 1_555 1_555
C7_4 C6_4 1_555 1_555
H5_4 C7_4 1_555 1_555
C8_4 C7_4 1_555 1_555
H6_4 C8_4 1_555 1_555
C9_4 C8_4 1_555 1_555
H7_4 C9_4 1_555 1_555
C10_4 N2_4 1_555 1_555
H8_7 C10_4 1_555 1_555
C11_4 P1_4 1_555 1_555
C12_4 C11_4 1_555 1_555
H9_4 C12_4 1_555 1_555
C13_4 C12_4 1_555 1_555
H10_4 C13_4 1_555 1_555
C14_2 C13_4 1_555 1_555
H11_2 C14_2 1_555 1_555
C15_7 N3_4 1_555 1_555
H12_7 C15_7 1_555 1_555
N2_4 C6_4 1_555 1_555
N3_4 C11_4 1_555 1_555
C4_5 C5_5 1_555 1_555
C9_4 C10_4 1_555 1_555
C14_2 C15_7 1_555 1_555
I4 Cu2_6 1_555 1_555
Cu3_2 P1_5 1_555 1_555
Cu2_6 N1_6 1_555 1_555
P1_5 C1_6 1_555 1_555
N1_6 C1_6 1_555 1_555
N2_5 Cu2_6 1_555 1_555
N3_5 Cu2_6 1_555 1_555
C1_6 C2_6 1_555 1_555
C2_6 H1_5 1_555 1_555
C3_6 C2_6 1_555 1_555
H2_6 C3_6 1_555 1_555
C4_6 C3_6 1_555 1_555
H3_3 C4_6 1_555 1_555
C5_6 N1_6 1_555 1_555
H4_6 C5_6 1_555 1_555
C6_5 P1_5 1_555 1_555
C7_5 C6_5 1_555 1_555
H5_5 C7_5 1_555 1_555
C8_5 C7_5 1_555 1_555
H6_5 C8_5 1_555 1_555
C9_5 C8_5 1_555 1_555
H7_5 C9_5 1_555 1_555
C10_5 N2_5 1_555 1_555
H8_8 C10_5 1_555 1_555
C11_5 P1_5 1_555 1_555
C15_8 N3_5 1_555 1_555
H12_8 C15_8 1_555 1_555
N2_5 C6_5 1_555 1_555
N3_5 C11_5 1_555 1_555
C4_6 C5_6 1_555 1_555
C9_5 C10_5 1_555 1_555
I4_2 Cu2_7 1_555 1_555
Cu3_3 P1_6 1_555 1_555
Cu2_7 N1_7 1_555 1_555
P1_6 C1_7 1_555 1_555
N1_7 C1_7 1_555 1_555
N2_6 Cu2_7 1_555 1_555
N3_6 Cu2_7 1_555 1_555
C1_7 C2_7 1_555 1_555
C2_7 H1_6 1_555 1_555
C3_7 C2_7 1_555 1_555
H2_7 C3_7 1_555 1_555
C4_7 C3_7 1_555 1_555
H3_4 C4_7 1_555 1_555
C5_7 N1_7 1_555 1_555
H4_7 C5_7 1_555 1_555
C6_6 P1_6 1_555 1_555
C7_6 C6_6 1_555 1_555
H5_6 C7_6 1_555 1_555
C8_6 C7_6 1_555 1_555
H6_6 C8_6 1_555 1_555
C9_6 C8_6 1_555 1_555
H7_6 C9_6 1_555 1_555
C10_6 N2_6 1_555 1_555
H8_9 C10_6 1_555 1_555
C11_6 P1_6 1_555 1_555
C15_9 N3_6 1_555 1_555
H12_9 C15_9 1_555 1_555
N2_6 C6_6 1_555 1_555
N3_6 C11_6 1_555 1_555
C4_7 C5_7 1_555 1_555
C9_6 C10_6 1_555 1_555
Cu4_2 P1_7 1_555 1_555
C6_7 P1_7 1_555 1_555
C7_7 C6_7 1_555 1_555
H5_7 C7_7 1_555 1_555
C8_7 C7_7 1_555 1_555
C11_7 P1_7 1_555 1_555
C12_5 C11_7 1_555 1_555
H9_5 C12_5 1_555 1_555
C13_5 C12_5 1_555 1_555
H10_5 C13_5 1_555 1_555
C14_3 C13_5 1_555 1_555
N2_7 C6_7 1_555 1_555
N3_7 C11_7 1_555 1_555
Cu4_3 P1_8 1_555 1_555
C6_8 P1_8 1_555 1_555
C7_8 C6_8 1_555 1_555
H5_8 C7_8 1_555 1_555
C8_8 C7_8 1_555 1_555
C11_8 P1_8 1_555 1_555
C12_6 C11_8 1_555 1_555
H9_6 C12_6 1_555 1_555
C13_6 C12_6 1_555 1_555
H10_6 C13_6 1_555 1_555
C14_4 C13_6 1_555 1_555
N2_8 C6_8 1_555 1_555
N3_8 C11_8 1_555 1_555
Cu4 P1_9 1_555 1_555
C6_9 P1_9 1_555 1_555
C7_9 C6_9 1_555 1_555
H5_9 C7_9 1_555 1_555
C8_9 C7_9 1_555 1_555
H6_7 C8_9 1_555 1_555
C9_7 C8_9 1_555 1_555
H7_7 C9_7 1_555 1_555
C10_7 N2_9 1_555 1_555
C11_9 P1_9 1_555 1_555
C12_7 C11_9 1_555 1_555
H9_7 C12_7 1_555 1_555
C13_7 C12_7 1_555 1_555
H10_7 C13_7 1_555 1_555
C14_5 C13_7 1_555 1_555
H11_3 C14_5 1_555 1_555
N2_9 C6_9 1_555 1_555
N3_9 C11_9 1_555 1_555
C9_7 C10_7 1_555 1_555
I1_4 Cu1_4 1_555 1_555
I2_7 Cu2_8 1_555 1_555
Cu1_4 P1_10 1_555 1_555
Cu2_8 N1_8 1_555 1_555
P1_10 C1_8 1_555 1_555
N1_8 C1_8 1_555 1_555
N2_10 Cu2_8 1_555 1_555
N3_10 Cu2_8 1_555 1_555
C1_8 C2_8 1_555 1_555
C2_8 H1_10 1_555 1_555
C3_8 C2_8 1_555 1_555
H2_8 C3_8 1_555 1_555
C4_8 C3_8 1_555 1_555
H3_5 C4_8 1_555 1_555
C5_8 N1_8 1_555 1_555
H4_8 C5_8 1_555 1_555
C6_10 P1_10 1_555 1_555
C7_10 C6_10 1_555 1_555
H5_10 C7_10 1_555 1_555
C8_10 C7_10 1_555 1_555
H6_8 C8_10 1_555 1_555
C9_8 C8_10 1_555 1_555
H7_8 C9_8 1_555 1_555
C10_8 N2_10 1_555 1_555
H8_10 C10_8 1_555 1_555
C11_10 P1_10 1_555 1_555
C12_8 C11_10 1_555 1_555
H9_8 C12_8 1_555 1_555
C13_8 C12_8 1_555 1_555
H10_8 C13_8 1_555 1_555
C14_6 C13_8 1_555 1_555
H11_4 C14_6 1_555 1_555
C15_10 N3_10 1_555 1_555
H12_10 C15_10 1_555 1_555
I4_4 Cu1_4 1_555 1_555
Cu4_4 I2_7 1_555 1_555
N2_10 C6_10 1_555 1_555
N3_10 C11_10 1_555 1_555
C4_8 C5_8 1_555 1_555
C9_8 C10_8 1_555 1_555
C14_6 C15_10 1_555 1_555
I2_8 Cu2_9 1_555 1_555
Cu1_5 P1_11 1_555 1_555
Cu2_9 N1_9 1_555 1_555
P1_11 C1_9 1_555 1_555
N1_9 C1_9 1_555 1_555
N2_11 Cu2_9 1_555 1_555
N3_11 Cu2_9 1_555 1_555
C1_9 C2_9 1_555 1_555
C2_9 H1_11 1_555 1_555
C3_9 C2_9 1_555 1_555
H2_9 C3_9 1_555 1_555
C4_9 C3_9 1_555 1_555
H3_6 C4_9 1_555 1_555
C5_9 N1_9 1_555 1_555
H4_9 C5_9 1_555 1_555
C6_11 P1_11 1_555 1_555
C7_11 C6_11 1_555 1_555
H5_11 C7_11 1_555 1_555
C8_11 C7_11 1_555 1_555
H6_9 C8_11 1_555 1_555
C9_9 C8_11 1_555 1_555
H7_9 C9_9 1_555 1_555
C10_9 N2_11 1_555 1_555
H8_11 C10_9 1_555 1_555
C11_11 P1_11 1_555 1_555
C15_11 N3_11 1_555 1_555
H12_11 C15_11 1_555 1_555
I4_5 Cu1_5 1_555 1_555
Cu4_5 I2_8 1_555 1_555
N2_11 C6_11 1_555 1_555
N3_11 C11_11 1_555 1_555
C4_9 C5_9 1_555 1_555
C9_9 C10_9 1_555 1_555
I2_9 Cu2_10 1_555 1_555
Cu1_6 P1_12 1_555 1_555
Cu2_10 N1_10 1_555 1_555
P1_12 C1_10 1_555 1_555
N1_10 C1_10 1_555 1_555
N2_12 Cu2_10 1_555 1_555
N3_12 Cu2_10 1_555 1_555
C1_10 C2_10 1_555 1_555
C2_10 H1_12 1_555 1_555
C3_10 C2_10 1_555 1_555
H2_10 C3_10 1_555 1_555
C4_10 C3_10 1_555 1_555
H3_7 C4_10 1_555 1_555
C5_10 N1_10 1_555 1_555
H4_10 C5_10 1_555 1_555
C6_12 P1_12 1_555 1_555
C7_12 C6_12 1_555 1_555
H5_12 C7_12 1_555 1_555
C8_12 C7_12 1_555 1_555
H6_10 C8_12 1_555 1_555
C9_10 C8_12 1_555 1_555
H7_10 C9_10 1_555 1_555
C10_10 N2_12 1_555 1_555
H8_12 C10_10 1_555 1_555
C11_12 P1_12 1_555 1_555
C15_12 N3_12 1_555 1_555
H12_12 C15_12 1_555 1_555
I4_6 Cu1_6 1_555 1_555
Cu4_6 I2_9 1_555 1_555
N2_12 C6_12 1_555 1_555
N3_12 C11_12 1_555 1_555
C4_10 C5_10 1_555 1_555
C9_10 C10_10 1_555 1_555
I1_5 Cu1_7 1_555 1_555
Cu1_7 P1_13 1_555 1_555
C6_13 P1_13 1_555 1_555
C7_13 C6_13 1_555 1_555
H5_13 C7_13 1_555 1_555
C8_13 C7_13 1_555 1_555
C11_13 P1_13 1_555 1_555
C12_9 C11_13 1_555 1_555
H9_9 C12_9 1_555 1_555
C13_9 C12_9 1_555 1_555
H10_9 C13_9 1_555 1_555
C14_7 C13_9 1_555 1_555
I3_5 Cu1_7 1_555 1_555
I4_7 Cu1_7 1_555 1_555
Cu4_5 I1_5 1_555 1_555
N2_13 C6_13 1_555 1_555
N3_13 C11_13 1_555 1_555
I3_5 Cu4_5 1_555 1_555
I1_6 Cu1_8 1_555 1_555
Cu1_8 P1_14 1_555 1_555
C6_14 P1_14 1_555 1_555
C7_14 C6_14 1_555 1_555
H5_14 C7_14 1_555 1_555
C8_14 C7_14 1_555 1_555
C11_14 P1_14 1_555 1_555
C12_10 C11_14 1_555 1_555
H9_10 C12_10 1_555 1_555
C13_10 C12_10 1_555 1_555
H10_10 C13_10 1_555 1_555
C14_8 C13_10 1_555 1_555
I3_6 Cu1_8 1_555 1_555
I4_8 Cu1_8 1_555 1_555
Cu4_6 I1_6 1_555 1_555
N2_14 C6_14 1_555 1_555
N3_14 C11_14 1_555 1_555
I3_6 Cu4_6 1_555 1_555
I1_7 Cu1_9 1_555 1_555
Cu1_9 P1_15 1_555 1_555
C6_15 P1_15 1_555 1_555
C7_15 C6_15 1_555 1_555
H5_15 C7_15 1_555 1_555
C8_15 C7_15 1_555 1_555
H6_11 C8_15 1_555 1_555
C9_11 C8_15 1_555 1_555
H7_11 C9_11 1_555 1_555
C10_11 N2_15 1_555 1_555
C11_15 P1_15 1_555 1_555
C12_11 C11_15 1_555 1_555
H9_11 C12_11 1_555 1_555
C13_11 C12_11 1_555 1_555
H10_11 C13_11 1_555 1_555
C14_9 C13_11 1_555 1_555
H11_5 C14_9 1_555 1_555
I3_7 Cu1_9 1_555 1_555
I4_9 Cu1_9 1_555 1_555
Cu4_4 I1_7 1_555 1_555
N2_15 C6_15 1_555 1_555
N3_15 C11_15 1_555 1_555
C9_11 C10_11 1_555 1_555
I3_7 Cu4_4 1_555 1_555
H12_13 C15_13 1_555 1_555
H12_14 C15_14 1_555 1_555
I4_8 Cu2_11 1_555 1_555
Cu2_11 N1_11 1_555 1_555
N1_11 C1_11 1_555 1_555
C1_11 C2_11 1_555 1_555
C3_11 C2_11 1_555 1_555
H2_11 C3_11 1_555 1_555
C4_11 C3_11 1_555 1_555
H3_8 C4_11 1_555 1_555
C5_11 N1_11 1_555 1_555
H4_11 C5_11 1_555 1_555
H12_15 C15_15 1_555 1_555
C4_11 C5_11 1_555 1_555
I4_6 Cu2_12 1_555 1_555
Cu4_5 P1_16 1_555 1_555
Cu2_12 N1_12 1_555 1_555
P1_16 C1_12 1_555 1_555
N1_12 C1_12 1_555 1_555
N2_16 Cu2_12 1_555 1_555
N3_16 Cu2_12 1_555 1_555
C1_12 C2_12 1_555 1_555
C2_12 H1_16 1_555 1_555
C3_12 C2_12 1_555 1_555
H2_12 C3_12 1_555 1_555
C4_12 C3_12 1_555 1_555
C5_12 N1_12 1_555 1_555
H4_12 C5_12 1_555 1_555
C6_16 P1_16 1_555 1_555
C7_16 C6_16 1_555 1_555
H5_16 C7_16 1_555 1_555
C8_16 C7_16 1_555 1_555
H6_12 C8_16 1_555 1_555
C9_12 C8_16 1_555 1_555
H7_12 C9_12 1_555 1_555
C10_12 N2_16 1_555 1_555
H8_16 C10_12 1_555 1_555
C11_16 P1_16 1_555 1_555
C12_12 C11_16 1_555 1_555
H9_12 C12_12 1_555 1_555
C13_12 C12_12 1_555 1_555
H10_12 C13_12 1_555 1_555
C15_16 N3_16 1_555 1_555
H12_16 C15_16 1_555 1_555
N2_16 C6_16 1_555 1_555
N3_16 C11_16 1_555 1_555
C4_12 C5_12 1_555 1_555
C9_12 C10_12 1_555 1_555
I4_4 Cu2_13 1_555 1_555
Cu4_6 P1_17 1_555 1_555
Cu2_13 N1_13 1_555 1_555
P1_17 C1_13 1_555 1_555
N1_13 C1_13 1_555 1_555
N2_17 Cu2_13 1_555 1_555
N3_17 Cu2_13 1_555 1_555
C1_13 C2_13 1_555 1_555
C2_13 H1_17 1_555 1_555
C3_13 C2_13 1_555 1_555
H2_13 C3_13 1_555 1_555
C4_13 C3_13 1_555 1_555
C5_13 N1_13 1_555 1_555
H4_13 C5_13 1_555 1_555
C6_17 P1_17 1_555 1_555
C7_17 C6_17 1_555 1_555
H5_17 C7_17 1_555 1_555
C8_17 C7_17 1_555 1_555
H6_13 C8_17 1_555 1_555
C9_13 C8_17 1_555 1_555
H7_13 C9_13 1_555 1_555
C10_13 N2_17 1_555 1_555
H8_17 C10_13 1_555 1_555
C11_17 P1_17 1_555 1_555
C12_13 C11_17 1_555 1_555
H9_13 C12_13 1_555 1_555
C13_13 C12_13 1_555 1_555
H10_13 C13_13 1_555 1_555
C14_10 C13_13 1_555 1_555
H11_6 C14_10 1_555 1_555
C15_17 N3_17 1_555 1_555
H12_17 C15_17 1_555 1_555
N2_17 C6_17 1_555 1_555
N3_17 C11_17 1_555 1_555
C4_13 C5_13 1_555 1_555
C9_13 C10_13 1_555 1_555
C14_10 C15_17 1_555 1_555
I4_5 Cu2_14 1_555 1_555
Cu4_4 P1_18 1_555 1_555
Cu2_14 N1_14 1_555 1_555
P1_18 C1_14 1_555 1_555
N1_14 C1_14 1_555 1_555
N2_18 Cu2_14 1_555 1_555
N3_18 Cu2_14 1_555 1_555
C1_14 C2_14 1_555 1_555
C2_14 H1_18 1_555 1_555
C3_14 C2_14 1_555 1_555
H2_14 C3_14 1_555 1_555
C4_14 C3_14 1_555 1_555
C5_14 N1_14 1_555 1_555
H4_14 C5_14 1_555 1_555
C6_18 P1_18 1_555 1_555
C7_18 C6_18 1_555 1_555
H5_18 C7_18 1_555 1_555
C8_18 C7_18 1_555 1_555
H6_14 C8_18 1_555 1_555
C9_14 C8_18 1_555 1_555
H7_14 C9_14 1_555 1_555
C10_14 N2_18 1_555 1_555
H8_18 C10_14 1_555 1_555
C11_18 P1_18 1_555 1_555
C12_14 C11_18 1_555 1_555
H9_14 C12_14 1_555 1_555
C13_14 C12_14 1_555 1_555
H10_14 C13_14 1_555 1_555
C15_18 N3_18 1_555 1_555
H12_18 C15_18 1_555 1_555
N2_18 C6_18 1_555 1_555
N3_18 C11_18 1_555 1_555
C4_14 C5_14 1_555 1_555
C9_14 C10_14 1_555 1_555
H9_15 C12_15 1_555 1_555
C13_15 C12_15 1_555 1_555
H10_15 C13_15 1_555 1_555
C14_11 C13_15 1_555 1_555
H11_7 C14_11 1_555 1_555
H9_16 C12_16 1_555 1_555
C13_16 C12_16 1_555 1_555
H10_16 C13_16 1_555 1_555
C14_12 C13_16 1_555 1_555
H11_8 C14_12 1_555 1_555
H9_17 C12_17 1_555 1_555
C13_17 C12_17 1_555 1_555
H10_17 C13_17 1_555 1_555
C14_13 C13_17 1_555 1_555
H11_9 C14_13 1_555 1_555
H9_18 C12_18 1_555 1_555
C13_18 C12_18 1_555 1_555
H10_18 C13_18 1_555 1_555
C14_14 C13_18 1_555 1_555
H11_10 C14_14 1_555 1_555
H7_15 C9_15 1_555 1_555
C9_15 C10_15 1_555 1_555
Cu2_15 N1_15 1_555 1_555
N1_15 C1_15 1_555 1_555
C1_15 C2_15 1_555 1_555
C3_15 C2_15 1_555 1_555
H2_15 C3_15 1_555 1_555
C4_15 C3_15 1_555 1_555
H3_9 C4_15 1_555 1_555
C5_15 N1_15 1_555 1_555
H4_15 C5_15 1_555 1_555
C4_15 C5_15 1_555 1_555
Cu2_16 N1_16 1_555 1_555
N1_16 C1_16 1_555 1_555
C1_16 C2_16 1_555 1_555
C3_16 C2_16 1_555 1_555
H2_16 C3_16 1_555 1_555
C4_16 C3_16 1_555 1_555
H3_10 C4_16 1_555 1_555
C5_16 N1_16 1_555 1_555
H4_16 C5_16 1_555 1_555
C4_16 C5_16 1_555 1_555
H7_16 C9_16 1_555 1_555
C9_16 C10_16 1_555 1_555
H11_13 C14_15 1_555 1_555
H11_14 C14_16 1_555 1_555
Cu2_17 N1_17 1_555 1_555
N1_17 C1_17 1_555 1_555
C1_17 C2_17 1_555 1_555
C3_17 C2_17 1_555 1_555
H2_17 C3_17 1_555 1_555
C4_17 C3_17 1_555 1_555
H3_14 C4_17 1_555 1_555
C5_17 N1_17 1_555 1_555
H4_17 C5_17 1_555 1_555
C4_17 C5_17 1_555 1_555
H7_17 C9_17 1_555 1_555
C9_17 C10_17 1_555 1_555
H7_18 C9_18 1_555 1_555
C9_18 C10_18 1_555 1_555
Cu2_18 N1_18 1_555 1_555
N1_18 C1_18 1_555 1_555
C1_18 C2_18 1_555 1_555
C3_18 C2_18 1_555 1_555
H2_18 C3_18 1_555 1_555
C4_18 C3_18 1_555 1_555
H3_15 C4_18 1_555 1_555
C5_18 N1_18 1_555 1_555
H4_18 C5_18 1_555 1_555
C4_18 C5_18 1_555 1_555
H11_17 C14_17 1_555 1_555
H11_18 C14_18 1_555 1_555

#END
