
###############################################################################
#
# This file contains modified crystal structure data generated from the
# MOF subset of the Cambridge Structural Database (CSD) v543 
# hosted by the Cambridge Crystallographic Data Centre (CCDC).
#
# This work is licensed under the Creative Commons
# Attribution-NonCommercial-ShareAlike 4.0 International License.
# To view a copy of this license, visit
# http://creativecommons.org/licenses/by-nc-sa/4.0/
# or send a letter to
# Creative Commons, PO Box 1866, Mountain View, CA 94042, USA.
#
# CIF created using the CSD Python API on 29 September 2022
# The structure has been converted into the P1 space group
# The structure has a 3D framework
# The original CSD entry QUDJIJ is in the monoclinic crystal system
# The framework has been calculated to contain at least 10.0% void space
# The void calculation uses a probe of radius 1.32A, grid spacing 0.4
#
###############################################################################

data_QUDJIJ
_chemical_formula_moiety         '(C68 H56 N8 O20 Zn2)n'
_symmetry_cell_setting           triclinic
_symmetry_space_group_name_H-M   'P 1'
_symmetry_Int_Tables_number      1
_space_group_name_Hall           'P 1'
loop_
_symmetry_equiv_pos_site_id
_symmetry_equiv_pos_as_xyz
1 x,y,z
_cell_length_a                   9.869(2)
_cell_length_b                   19.785(4)
_cell_length_c                   11.900(5)
_cell_angle_alpha                90
_cell_angle_beta                 119.65(2)
_cell_angle_gamma                90
_cell_volume                     2019.33
loop_
_atom_site_label
_atom_site_type_symbol
_atom_site_fract_x
_atom_site_fract_y
_atom_site_fract_z
C29 C 0.0027(4) 0.02567(15) 0.9555(3)
C30 C 0.0461(5) 0.00863(19) 0.8648(4)
C31 C 0.0464(5) 0.05734(18) 0.7816(4)
H21 H 0.0770 0.0448 0.7221
C32 C 0.2157(4) 0.21676(17) 0.5777(3)
H22 H 0.1318 0.2193 0.4940
C33 C 0.3697(5) 0.2614(3) 0.4885(4)
H23 H 0.3857 0.3094 0.4972
H24 H 0.4579 0.2401 0.4898
H25 H 0.2773 0.2515 0.4081
C34 C 0.4903(4) 0.2329(3) 0.7236(3)
H26 H 0.4630 0.2156 0.7852
H27 H 0.5663 0.2038 0.7206
H28 H 0.5330 0.2775 0.7488
N3 N 0.0050(3) 0.12125(12) 0.7826(2)
N4 N 0.3517(3) 0.23558(16) 0.5964(3)
O14 O 0.1896(2) 0.19547(11) 0.6642(2)
Zn5 Zn 0.97000(4) 0.315287(16) 0.13319(3)
C1 C 0.1578(4) 0.71298(16) 0.3355(3)
C2 C 0.2495(3) 0.65055(15) 0.3453(3)
C3 C 0.3374(4) 0.62342(15) 0.4648(3)
H1 H 0.3435 0.6459 0.5358
C4 C 0.4209(4) 0.56146(15) 0.4852(3)
C5 C 0.4124(4) 0.52799(15) 0.3756(3)
C6 C 0.3210(4) 0.55801(15) 0.2514(3)
H2 H 0.3148 0.5366 0.1794
C7 C 0.2424(3) 0.61698(15) 0.2349(3)
C8 C 0.5078(4) 0.53308(16) 0.6078(3)
H3 H 0.5129 0.5548 0.6791
C9 C 0.1584(3) 0.64896(15) 0.1036(3)
C10 C 0.0342(4) 0.86197(16) 0.1295(3)
H4 H 0.0634 0.8175 0.1272
C11 C 0.0336(4) 0.90733(16) 0.0414(3)
O1 O 0.2321(3) 0.76620(11) 0.3895(2)
O2 O 0.0135(3) 0.70931(14) 0.2843(3)
O3 O 0.1340(2) 0.71104(11) 0.0936(2)
O4 O 0.1198(3) 0.61125(11) 0.0057(2)
Zn1 Zn 0.03000(4) 0.815287(16) 0.36681(3)
C18 C 0.8422(4) 0.28702(16) 0.6645(3)
C19 C 0.7505(3) 0.34945(15) 0.6547(3)
C20 C 0.6626(4) 0.37658(15) 0.5352(3)
H15 H 0.6565 0.3541 0.4642
C21 C 0.5791(4) 0.43854(15) 0.5148(3)
C22 C 0.5876(4) 0.47201(15) 0.6244(3)
C23 C 0.6790(4) 0.44199(15) 0.7486(3)
H16 H 0.6852 0.4634 0.8206
C24 C 0.7576(3) 0.38302(15) 0.7651(3)
C25 C 0.4922(4) 0.46692(16) 0.3922(3)
H17 H 0.4871 0.4452 0.3209
C26 C 0.8416(3) 0.35104(15) 0.8964(3)
O6 O 0.7679(3) 0.23380(11) 0.6105(2)
O8 O 0.9865(3) 0.29069(14) 0.7157(3)
O10 O 0.8660(2) 0.28896(11) 0.9064(2)
O11 O 0.8802(3) 0.38875(11) 0.9943(2)
O12 O 0.1198(3) 0.88875(11) 0.5057(2)
Zn4 Zn 0.97000(4) 0.184713(16) 0.63319(3)
H5 H 0.0579 0.8926 0.9792
H20 H 0.0749 0.9645 0.8599
Zn3 Zn 0.03000(4) 0.684713(16) 0.86681(3)
H6 H 0.9251 0.0355 0.1401
H19 H 0.9421 0.1074 0.0208
C27 C 0.9658(4) 0.13803(16) 0.8705(3)
H18 H 0.9366 0.1825 0.8728
C28 C 0.9664(4) 0.09267(16) 0.9586(3)
O13 O 0.8802(3) 0.11125(11) 0.4943(2)
C12 C 0.0027(4) 0.47433(15) 0.4555(3)
C13 C 0.0461(5) 0.49137(19) 0.3648(4)
H6_2 H 0.0749 0.5355 0.3599
C14 C 0.0464(5) 0.44266(18) 0.2816(4)
H7 H 0.0770 0.4552 0.2221
C15 C 0.2157(4) 0.28324(17) 0.0777(3)
C17 C 0.4903(4) 0.2671(3) 0.2236(3)
H12 H 0.4630 0.2844 0.2852
H13 H 0.5663 0.2962 0.2206
H14 H 0.5330 0.2225 0.2488
N1 N 0.0050(3) 0.37875(12) 0.2826(2)
N2 N 0.3517(3) 0.26442(16) 0.0964(3)
O5 O 0.1896(2) 0.30453(11) 0.1642(2)
C27_2 C 0.0342(4) 0.63803(16) 0.6295(3)
H18_2 H 0.0634 0.6825 0.6272
C28_2 C 0.0336(4) 0.59267(16) 0.5414(3)
H19_2 H 0.0579 0.6074 0.4792
O7 O 0.2321(3) 0.73380(11) 0.8895(2)
O9 O 0.0135(3) 0.79069(14) 0.7843(3)
C1_2 C 0.8422(4) 0.21298(16) 0.1645(3)
C2_2 C 0.7505(3) 0.15055(15) 0.1547(3)
C3_2 C 0.6626(4) 0.12342(15) 0.0352(3)
C4_2 C 0.5791(4) 0.06146(15) 0.0148(3)
C5_2 C 0.5876(4) 0.02799(15) 0.1244(3)
C6_2 C 0.6790(4) 0.05801(15) 0.2486(3)
H2_2 H 0.6852 0.0366 0.3206
C7_2 C 0.7576(3) 0.11698(15) 0.2651(3)
C9_2 C 0.8416(3) 0.14896(15) 0.3964(3)
C10_2 C 0.9658(4) 0.36197(16) 0.3705(3)
H4_2 H 0.9366 0.3175 0.3728
C11_2 C 0.9664(4) 0.40733(16) 0.4586(3)
H5_2 H 0.9421 0.3926 0.5208
O1_2 O 0.7679(3) 0.26620(11) 0.1105(2)
O2_2 O 0.9865(3) 0.20931(14) 0.2157(3)
O3_2 O 0.8660(2) 0.21104(11) 0.4064(2)
C29_2 C 0.9973(4) 0.52567(15) 0.5445(3)
C30_2 C 0.9539(5) 0.50863(19) 0.6352(4)
H20_2 H 0.9251 0.4645 0.6401
C31_2 C 0.9536(5) 0.55734(18) 0.7184(4)
H21_2 H 0.9230 0.5448 0.7779
C32_2 C 0.7843(4) 0.71676(17) 0.9223(3)
C34_2 C 0.5097(4) 0.7329(3) 0.7764(3)
H26_2 H 0.5370 0.7156 0.7148
H27_2 H 0.4337 0.7038 0.7794
H28_2 H 0.4670 0.7775 0.7512
N3_2 N 0.9950(3) 0.62125(12) 0.7174(2)
N4_2 N 0.6483(3) 0.73558(16) 0.9036(3)
O14_2 O 0.8104(2) 0.69547(11) 0.8358(2)
H1_2 H 0.6565 0.1459 0.9642
C8_2 C 0.4922(4) 0.03308(16) 0.8922(3)
H3_2 H 0.4871 0.0548 0.8209
H15_2 H 0.3435 0.8541 0.0358
C25_2 C 0.5078(4) 0.96692(16) 0.1078(3)
H17_2 H 0.5129 0.9452 0.1791
C18_2 C 0.1578(4) 0.78702(16) 0.8355(3)
C19_2 C 0.2495(3) 0.84945(15) 0.8453(3)
C20_2 C 0.3374(4) 0.87658(15) 0.9648(3)
C21_2 C 0.4209(4) 0.93854(15) 0.9852(3)
C22_2 C 0.4124(4) 0.97201(15) 0.8756(3)
C23_2 C 0.3210(4) 0.94199(15) 0.7514(3)
H16_2 H 0.3148 0.9634 0.6794
C24_2 C 0.2424(3) 0.88302(15) 0.7349(3)
C26_2 C 0.1584(3) 0.85104(15) 0.6036(3)
O10_2 O 0.1340(2) 0.78896(11) 0.5936(2)
C12_2 C 0.9973(4) 0.97433(15) 0.0445(3)
C13_2 C 0.9539(5) 0.99137(19) 0.1352(4)
C14_2 C 0.9536(5) 0.94266(18) 0.2184(4)
H7_2 H 0.9230 0.9552 0.2779
C15_2 C 0.7843(4) 0.78324(17) 0.4223(3)
H8 H 0.8682 0.7807 0.5060
C16 C 0.6303(5) 0.7386(3) 0.5115(4)
H9 H 0.6143 0.6906 0.5028
H10 H 0.5421 0.7599 0.5102
H11 H 0.7227 0.7485 0.5919
C17_2 C 0.5097(4) 0.7671(3) 0.2764(3)
H12_2 H 0.5370 0.7844 0.2148
H13_2 H 0.4337 0.7962 0.2794
H14_2 H 0.4670 0.7225 0.2512
N1_2 N 0.9950(3) 0.87875(12) 0.2174(2)
N2_2 N 0.6483(3) 0.76442(16) 0.4036(3)
O5_2 O 0.8104(2) 0.80453(11) 0.3358(2)
H8_2 H 0.1318 0.2807 0.9940
C16_2 C 0.3697(5) 0.2386(3) 0.9885(4)
H9_2 H 0.3857 0.1906 0.9972
H10_2 H 0.4579 0.2599 0.9898
H11_2 H 0.2773 0.2485 0.9081
H22_2 H 0.8682 0.7193 0.0060
C33_2 C 0.6303(5) 0.7614(3) 0.0115(4)
H23_2 H 0.6143 0.8094 0.0028
H24_2 H 0.5421 0.7401 0.0102
H25_2 H 0.7227 0.7515 0.0919
loop_
_geom_bond_atom_site_label_1
_geom_bond_atom_site_label_2
_geom_bond_site_symmetry_1
_geom_bond_site_symmetry_2
C30 C29 1_555 1_555
C31 C30 1_555 1_555
H21 C31 1_555 1_555
C32 H22 1_555 1_555
C33 H23 1_555 1_555
H24 C33 1_555 1_555
H25 C33 1_555 1_555
C34 H26 1_555 1_555
H27 C34 1_555 1_555
H28 C34 1_555 1_555
N4 C32 1_555 1_555
O14 C32 1_555 1_555
C31 N3 1_555 1_555
C33 N4 1_555 1_555
C34 N4 1_555 1_555
C1 C2 1_555 1_555
C2 C3 1_555 1_555
C3 H1 1_555 1_555
C4 C3 1_555 1_555
C5 C4 1_555 1_555
C6 C5 1_555 1_555
H2 C6 1_555 1_555
C7 C2 1_555 1_555
C8 C4 1_555 1_555
H3 C8 1_555 1_555
C9 C7 1_555 1_555
C10 H4 1_555 1_555
C11 C10 1_555 1_555
O1 C1 1_555 1_555
O2 C1 1_555 1_555
O3 C9 1_555 1_555
O4 C9 1_555 1_555
C18 C19 1_555 1_555
C19 C20 1_555 1_555
C20 H15 1_555 1_555
C21 C20 1_555 1_555
C22 C8 1_555 1_555
C23 C22 1_555 1_555
H16 C23 1_555 1_555
C24 C19 1_555 1_555
C25 C5 1_555 1_555
H17 C25 1_555 1_555
C26 C24 1_555 1_555
O6 C18 1_555 1_555
O8 C18 1_555 1_555
O10 C26 1_555 1_555
O11 C26 1_555 1_555
O12 Zn1 1_555 1_555
Zn4 O6 1_555 1_555
C6 C7 1_555 1_555
O1 Zn1 1_555 1_555
O2 Zn1 1_555 1_555
C21 C22 1_555 1_555
C21 C25 1_555 1_555
C23 C24 1_555 1_555
O8 Zn4 1_555 1_555
C27 H18 1_555 1_555
C28 C27 1_555 1_555
O13 Zn4 1_555 1_555
C13 C12 1_555 1_555
H6_2 C13 1_555 1_555
C14 C13 1_555 1_555
H7 C14 1_555 1_555
C17 H12 1_555 1_555
H13 C17 1_555 1_555
H14 C17 1_555 1_555
N2 C15 1_555 1_555
O5 C15 1_555 1_555
C27_2 H18_2 1_555 1_555
C28_2 C27_2 1_555 1_555
H19_2 C28_2 1_555 1_555
O7 Zn3 1_555 1_555
O9 Zn3 1_555 1_555
C14 N1 1_555 1_555
C17 N2 1_555 1_555
C1_2 C2_2 1_555 1_555
C2_2 C3_2 1_555 1_555
C4_2 C3_2 1_555 1_555
C5_2 C4_2 1_555 1_555
C6_2 C5_2 1_555 1_555
H2_2 C6_2 1_555 1_555
C7_2 C2_2 1_555 1_555
C9_2 C7_2 1_555 1_555
C10_2 H4_2 1_555 1_555
C11_2 C10_2 1_555 1_555
H5_2 C11_2 1_555 1_555
O1_2 C1_2 1_555 1_555
O2_2 C1_2 1_555 1_555
O3_2 C9_2 1_555 1_555
O13 C9_2 1_555 1_555
C30_2 C29_2 1_555 1_555
H20_2 C30_2 1_555 1_555
C31_2 C30_2 1_555 1_555
H21_2 C31_2 1_555 1_555
C34_2 H26_2 1_555 1_555
H27_2 C34_2 1_555 1_555
H28_2 C34_2 1_555 1_555
N4_2 C32_2 1_555 1_555
O14_2 C32_2 1_555 1_555
C6_2 C7_2 1_555 1_555
O1_2 Zn5 1_555 1_555
O2_2 Zn5 1_555 1_555
C31_2 N3_2 1_555 1_555
C34_2 N4_2 1_555 1_555
H3_2 C8_2 1_555 1_555
H17_2 C25_2 1_555 1_555
C18_2 C19_2 1_555 1_555
C19_2 C20_2 1_555 1_555
C21_2 C20_2 1_555 1_555
C23_2 C22_2 1_555 1_555
H16_2 C23_2 1_555 1_555
C24_2 C19_2 1_555 1_555
C26_2 C24_2 1_555 1_555
O7 C18_2 1_555 1_555
O9 C18_2 1_555 1_555
O10_2 C26_2 1_555 1_555
O12 C26_2 1_555 1_555
C21_2 C22_2 1_555 1_555
C23_2 C24_2 1_555 1_555
C13_2 C12_2 1_555 1_555
C14_2 C13_2 1_555 1_555
H7_2 C14_2 1_555 1_555
C15_2 H8 1_555 1_555
C16 H9 1_555 1_555
H10 C16 1_555 1_555
H11 C16 1_555 1_555
C17_2 H12_2 1_555 1_555
H13_2 C17_2 1_555 1_555
H14_2 C17_2 1_555 1_555
N2_2 C15_2 1_555 1_555
O5_2 C15_2 1_555 1_555
C14_2 N1_2 1_555 1_555
C16 N2_2 1_555 1_555
C17_2 N2_2 1_555 1_555
C16_2 H9_2 1_555 1_555
H10_2 C16_2 1_555 1_555
H11_2 C16_2 1_555 1_555
C33_2 H23_2 1_555 1_555
H24_2 C33_2 1_555 1_555
H25_2 C33_2 1_555 1_555

#END
