
###############################################################################
#
# This file contains modified crystal structure data generated from the
# MOF subset of the Cambridge Structural Database (CSD) v543 
# hosted by the Cambridge Crystallographic Data Centre (CCDC).
#
# This work is licensed under the Creative Commons
# Attribution-NonCommercial-ShareAlike 4.0 International License.
# To view a copy of this license, visit
# http://creativecommons.org/licenses/by-nc-sa/4.0/
# or send a letter to
# Creative Commons, PO Box 1866, Mountain View, CA 94042, USA.
#
# CIF created using the CSD Python API on 29 September 2022
# The structure has been converted into the P1 space group
# The structure has a 3D framework
# The original CSD entry QUFTAM is in the monoclinic crystal system
# The framework has been calculated to contain at least 10.0% void space
# The void calculation uses a probe of radius 1.32A, grid spacing 0.4
# H atom positions have been added when not included in the experimental data
#
###############################################################################

data_QUFTAM
_chemical_formula_moiety         '(C56 H64 Cu6 Na9 O60 S8)n'
_symmetry_cell_setting           triclinic
_symmetry_space_group_name_H-M   'P 1'
_symmetry_Int_Tables_number      1
_space_group_name_Hall           'P 1'
loop_
_symmetry_equiv_pos_site_id
_symmetry_equiv_pos_as_xyz
1 x,y,z
_cell_length_a                   13.429(3)
_cell_length_b                   18.861
_cell_length_c                   11.234(3)
_cell_angle_alpha                90
_cell_angle_beta                 107.60(4)
_cell_angle_gamma                90
_cell_volume                     2712.21
loop_
_atom_site_label
_atom_site_type_symbol
_atom_site_fract_x
_atom_site_fract_y
_atom_site_fract_z
Na1 Na 0.0000 0.1418(2) 0.2500
O7 O 0.1220(3) 0.1415(2) 0.1227(4)
H1 H 0.1809 0.1585 0.1419
H2 H 0.1287 0.0928 0.0997
O9 O 0.0662(3) 0.0793(2) 0.5817(4)
Na3 Na 0.0000 0.0493(2) 0.7500
O11 O 0.0856(3) 0.0458(2) 0.3824(4)
O14 O 0.0402(3) 0.2288(2) 0.4082(4)
O15 O 0.0648(3) 0.2399(2) 0.6610(4)
Na6 Na 0.5000 0.3582(2) 0.7500
Cu5 Cu 0.5295(1) 0.3052(1) 0.4807(1)
S2 S 0.1363(1) 0.0512(1) 0.5163(1)
O21 O 0.4352(3) 0.2601(2) 0.3390(4)
O22 O 0.4598(3) 0.2712(2) 0.5918(4)
C8 C 0.2365(4) 0.1140(3) 0.5361(5)
C9 C 0.3659(4) 0.2139(3) 0.3341(5)
C10 C 0.3914(4) 0.2198(3) 0.5693(6)
C11 C 0.2685(4) 0.1352(3) 0.4388(5)
C12 C 0.2842(5) 0.1417(3) 0.6559(6)
O24 O 0.3146(4) 0.1881(3) 0.2304(4)
C13 C 0.3445(4) 0.1885(3) 0.4496(5)
C14 C 0.3599(4) 0.1930(3) 0.6716(5)
H16 H 0.2393 0.1137 0.3615
H17 H 0.2648 0.1256 0.7239
H18 H 0.3917 0.2108 0.7513
Cu1 Cu 0.0295(1) 0.1948(1) 0.9807(1)
O8 O 0.1121(3) 0.1626(3) 0.8694(4)
H3 H 0.1725 0.1548 0.9115
H4 H 0.1101 0.1920 0.8199
Na2 Na 0.0000 0.9507(2) 0.2500
O12 O 0.0662(3) 0.9207(2) 0.0817(4)
O18 O 0.1121(3) 0.8374(3) 0.3694(4)
H14 H 0.1725 0.8452 0.4115
H15 H 0.1101 0.8080 0.3199
O23 O 0.1848(3) 0.9851(2) 0.5715(5)
H20 H 0.129766 0.949216 0.567461
Na1_2 Na 1.0000 0.1418(2) 0.2500
O1 O 0.9144(3) 0.0458(2) 0.1176(4)
O4 O 0.6854(4) 0.1881(3) 0.2696(4)
O5 O 0.5648(3) 0.2601(2) 0.1610(4)
C2 C 0.7315(4) 0.1352(3) 0.0612(5)
C3 C 0.6555(4) 0.1885(3) 0.0504(5)
C7 C 0.6341(4) 0.2139(3) 0.1659(5)
H5 H 0.7607 0.1137 0.1385
Cu2 Cu 0.9705(1) 0.1948(1) 0.5193(1)
Na3_2 Na 1.0000 0.0493(2) 0.7500
Cu4 Cu 0.4705(1) 0.3052(1) 0.0193(1)
O16 O 0.8780(3) 0.1415(2) 0.3773(4)
H8 H 0.8191 0.1585 0.3581
H9 H 0.8713 0.0928 0.4003
O17 O 0.8879(3) 0.1626(3) 0.6306(4)
H10 H 0.8275 0.1548 0.5885
H11 H 0.8899 0.1920 0.6801
O20 O 0.9598(3) 0.2288(2) 0.0918(4)
S1 S 0.8637(1) 0.0512(1) 0.9837(1)
O2 O 0.9338(3) 0.0793(2) 0.9183(4)
O6 O 0.5402(3) 0.2712(2) 0.9082(4)
C1 C 0.7635(4) 0.1140(3) 0.9639(5)
C4 C 0.6086(4) 0.2198(3) 0.9307(6)
C5 C 0.6401(4) 0.1930(3) 0.8284(5)
C6 C 0.7158(5) 0.1417(3) 0.8441(6)
H6 H 0.6083 0.2108 0.7487
H7 H 0.7352 0.1256 0.7761
O19 O 0.9352(3) 0.2399(2) 0.8390(4)
Na2_2 Na 1.0000 0.9507(2) 0.2500
O10 O 0.9338(3) 0.9207(2) 0.4183(4)
Cu3 Cu 0.9705(1) 0.8052(1) 0.0193(1)
O13 O 0.8879(3) 0.8374(3) 0.1306(4)
H12 H 0.8275 0.8452 0.0885
H13 H 0.8899 0.8080 0.1801
Cu3_2 Cu 0.0295(1) 0.8052(1) 0.4807(1)
H19 H 0.23868 0.970899 0.532019
Na6_2 Na -0.0000 0.8582(2) 0.7500
Na1_3 Na 0.5000 0.6418(2) 0.2500
Na2_3 Na 0.5000 0.4507(2) 0.2500
O1_2 O 0.4144(3) 0.5458(2) 0.1176(4)
O4_2 O 0.1854(4) 0.6881(3) 0.2696(4)
O5_2 O 0.0648(3) 0.7601(2) 0.1610(4)
O7_2 O 0.6220(3) 0.6415(2) 0.1227(4)
C2_2 C 0.2315(4) 0.6352(3) 0.0612(5)
C3_2 C 0.1555(4) 0.6885(3) 0.0504(5)
C7_2 C 0.1341(4) 0.7139(3) 0.1659(5)
H1_2 H 0.6809 0.6585 0.1419
H2_2 H 0.6287 0.5928 0.0997
H5_2 H 0.2607 0.6137 0.1385
Cu2_2 Cu 0.4705(1) 0.6948(1) 0.5193(1)
O9_2 O 0.5662(3) 0.5793(2) 0.5817(4)
Na3_3 Na 0.5000 0.5493(2) 0.7500
O10_2 O 0.4338(3) 0.4207(2) 0.4183(4)
O11_2 O 0.5856(3) 0.5458(2) 0.3824(4)
O12_2 O 0.5662(3) 0.4207(2) 0.0817(4)
O13_2 O 0.3879(3) 0.3374(3) 0.1306(4)
O14_2 O 0.5402(3) 0.7288(2) 0.4082(4)
O15_2 O 0.5648(3) 0.7399(2) 0.6610(4)
Na6_3 Na 1.0000 0.8582(2) 0.7500
O16_2 O 0.3780(3) 0.6415(2) 0.3773(4)
H8_2 H 0.3191 0.6585 0.3581
H9_2 H 0.3713 0.5928 0.4003
O17_2 O 0.3879(3) 0.6626(3) 0.6306(4)
H10_2 H 0.3275 0.6548 0.5885
H11_2 H 0.3899 0.6920 0.6801
H12_2 H 0.3275 0.3452 0.0885
H13_2 H 0.3899 0.3080 0.1801
O18_2 O 0.6121(3) 0.3374(3) 0.3694(4)
S2_2 S 0.6363(1) 0.5512(1) 0.5163(1)
O20_2 O 0.4598(3) 0.7288(2) 0.0918(4)
O21_2 O 0.9352(3) 0.7601(2) 0.3390(4)
O22_2 O 0.9598(3) 0.7712(2) 0.5918(4)
H14_2 H 0.6725 0.3452 0.4115
H15_2 H 0.6101 0.3080 0.3199
O23_2 O 0.6848(3) 0.4851(2) 0.5715(5)
C8_2 C 0.7365(4) 0.6140(3) 0.5361(5)
C9_2 C 0.8659(4) 0.7139(3) 0.3341(5)
C10_2 C 0.8914(4) 0.7198(3) 0.5693(6)
C11_2 C 0.7685(4) 0.6352(3) 0.4388(5)
C12_2 C 0.7842(5) 0.6417(3) 0.6559(6)
O24_2 O 0.8146(4) 0.6881(3) 0.2304(4)
C13_2 C 0.8445(4) 0.6885(3) 0.4496(5)
C14_2 C 0.8599(4) 0.6930(3) 0.6716(5)
H16_2 H 0.7393 0.6137 0.3615
H17_2 H 0.7648 0.6256 0.7239
H18_2 H 0.8917 0.7108 0.7513
H20_2 H 0.629766 0.449216 0.567461
Cu1_2 Cu 0.5295(1) 0.6948(1) 0.9807(1)
S1_2 S 0.3637(1) 0.5512(1) 0.9837(1)
O2_2 O 0.4338(3) 0.5793(2) 0.9183(4)
O3 O 0.3152(3) 0.4851(2) 0.9285(5)
O6_2 O 0.0402(3) 0.7712(2) 0.9082(4)
O8_2 O 0.6121(3) 0.6626(3) 0.8694(4)
C1_2 C 0.2635(4) 0.6140(3) 0.9639(5)
C4_2 C 0.1086(4) 0.7198(3) 0.9307(6)
C5_2 C 0.1401(4) 0.6930(3) 0.8284(5)
C6_2 C 0.2158(5) 0.6417(3) 0.8441(6)
H3_2 H 0.6725 0.6548 0.9115
H4_2 H 0.6101 0.6920 0.8199
H6_2 H 0.1083 0.7108 0.7487
H7_2 H 0.2352 0.6256 0.7761
O19_2 O 0.4352(3) 0.7399(2) 0.8390(4)
H19_2 H 0.26132 0.470899 0.967981
H19_3 H 0.73868 0.470899 0.532019
H20_3 H 0.370234 0.449216 0.932539
S1_3 S 0.1363(1) 0.9488(1) 0.0163(1)
C1_3 C 0.2365(4) 0.8860(3) 0.0361(5)
C4_3 C 0.3914(4) 0.7802(3) 0.0693(6)
C5_3 C 0.3599(4) 0.8070(3) 0.1716(5)
C6_3 C 0.2842(5) 0.8583(3) 0.1559(6)
H6_3 H 0.3917 0.7892 0.2513
H7_3 H 0.2648 0.8744 0.2239
O1_3 O 0.0856(3) 0.9542(2) 0.8824(4)
O4_3 O 0.3146(4) 0.8119(3) 0.7304(4)
C2_3 C 0.2685(4) 0.8648(3) 0.9388(5)
C3_3 C 0.3445(4) 0.8115(3) 0.9496(5)
C7_3 C 0.3659(4) 0.7861(3) 0.8341(5)
H5_3 H 0.2393 0.8863 0.8615
O16_3 O 0.1220(3) 0.8585(2) 0.6227(4)
H8_3 H 0.1809 0.8415 0.6419
H9_3 H 0.1287 0.9072 0.5997
O23_3 O 0.8152(3) 0.0149(2) 0.4285(5)
H20_4 H 0.870234 0.0507838 0.432539
O7_3 O 0.8780(3) 0.8585(2) 0.8773(4)
H1_3 H 0.8191 0.8415 0.8581
H2_3 H 0.8713 0.9072 0.9003
O11_3 O 0.9144(3) 0.9542(2) 0.6176(4)
S2_3 S 0.8637(1) 0.9488(1) 0.4837(1)
C8_3 C 0.7635(4) 0.8860(3) 0.4639(5)
C9_3 C 0.6341(4) 0.7861(3) 0.6659(5)
C10_3 C 0.6086(4) 0.7802(3) 0.4307(6)
C11_3 C 0.7315(4) 0.8648(3) 0.5612(5)
C12_3 C 0.7158(5) 0.8583(3) 0.3441(6)
O24_3 O 0.6854(4) 0.8119(3) 0.7696(4)
C13_3 C 0.6555(4) 0.8115(3) 0.5504(5)
C14_3 C 0.6401(4) 0.8070(3) 0.3284(5)
H16_3 H 0.7607 0.8863 0.6385
H17_3 H 0.7352 0.8744 0.2761
H18_3 H 0.6083 0.7892 0.2487
H19_4 H 0.76132 0.0291005 0.467981
S1_4 S 0.6363(1) 0.4488(1) 0.0163(1)
O3_2 O 0.6848(3) 0.5149(2) 0.0715(5)
C1_4 C 0.7365(4) 0.3860(3) 0.0361(5)
C4_4 C 0.8914(4) 0.2802(3) 0.0693(6)
C5_4 C 0.8599(4) 0.3070(3) 0.1716(5)
C6_4 C 0.7842(5) 0.3583(3) 0.1559(6)
H6_4 H 0.8917 0.2892 0.2513
H7_4 H 0.7648 0.3744 0.2239
H19_5 H 0.73868 0.529101 0.0320191
O1_4 O 0.5856(3) 0.4542(2) 0.8824(4)
O4_4 O 0.8146(4) 0.3119(3) 0.7304(4)
O7_4 O 0.3780(3) 0.3585(2) 0.8773(4)
C2_4 C 0.7685(4) 0.3648(3) 0.9388(5)
C3_4 C 0.8445(4) 0.3115(3) 0.9496(5)
C7_4 C 0.8659(4) 0.2861(3) 0.8341(5)
H1_4 H 0.3191 0.3415 0.8581
H2_4 H 0.3713 0.4072 0.9003
H5_4 H 0.7393 0.3863 0.8615
O11_4 O 0.4144(3) 0.4542(2) 0.6176(4)
O16_4 O 0.6220(3) 0.3585(2) 0.6227(4)
H8_4 H 0.6809 0.3415 0.6419
H9_4 H 0.6287 0.4072 0.5997
S2_4 S 0.3637(1) 0.4488(1) 0.4837(1)
O23_4 O 0.3152(3) 0.5149(2) 0.4285(5)
C8_4 C 0.2635(4) 0.3860(3) 0.4639(5)
C9_4 C 0.1341(4) 0.2861(3) 0.6659(5)
C10_4 C 0.1086(4) 0.2802(3) 0.4307(6)
C11_4 C 0.2315(4) 0.3648(3) 0.5612(5)
C12_4 C 0.2158(5) 0.3583(3) 0.3441(6)
O24_4 O 0.1854(4) 0.3119(3) 0.7696(4)
C13_4 C 0.1555(4) 0.3115(3) 0.5504(5)
C14_4 C 0.1401(4) 0.3070(3) 0.3284(5)
H16_4 H 0.2607 0.3863 0.6385
H17_4 H 0.2352 0.3744 0.2761
H18_4 H 0.1083 0.2892 0.2487
H20_5 H 0.370234 0.550784 0.432539
H20_6 H 0.629766 0.550784 0.0674614
H19_6 H 0.26132 0.529101 0.467981
O3_3 O 0.8152(3) 0.9851(2) 0.9285(5)
H19_7 H 0.76132 0.970899 0.967981
H20_7 H 0.870234 0.949216 0.932539
O3_4 O 0.1848(3) 0.0149(2) 0.0715(5)
H19_8 H 0.23868 0.0291005 0.0320191
H20_8 H 0.129766 0.0507838 0.0674614
loop_
_geom_bond_atom_site_label_1
_geom_bond_atom_site_label_2
_geom_bond_site_symmetry_1
_geom_bond_site_symmetry_2
H1 O7 1_555 1_555
H2 O7 1_555 1_555
O9 Na3 1_555 1_555
O11 Na1 1_555 1_555
O14 Na1 1_555 1_555
Na6 O22 1_555 1_555
Cu5 O21 1_555 1_555
S2 O9 1_555 1_555
O21 C9 1_555 1_555
O22 Cu5 1_555 1_555
C8 S2 1_555 1_555
C9 O24 1_555 1_555
C10 O22 1_555 1_555
C11 C8 1_555 1_555
C12 C8 1_555 1_555
C13 C9 1_555 1_555
C14 C10 1_555 1_555
H16 C11 1_555 1_555
H17 C12 1_555 1_555
H18 C14 1_555 1_555
Na1 O7 1_555 1_555
O11 S2 1_555 1_555
C10 C13 1_555 1_555
C11 C13 1_555 1_555
C12 C14 1_555 1_555
O8 Cu1 1_555 1_555
H3 O8 1_555 1_555
H4 O8 1_555 1_555
O8 Na3 1_555 1_555
O12 Na2 1_555 1_555
O18 Na2 1_555 1_555
H14 O18 1_555 1_555
H15 O18 1_555 1_555
O23 H20 1_555 1_555
Na1_2 O1 1_555 1_555
O4 C7 1_555 1_555
O5 C7 1_555 1_555
C3 C2 1_555 1_555
C7 C3 1_555 1_555
H5 C2 1_555 1_555
Na3_2 O17 1_555 1_555
Cu4 O5 1_555 1_555
O16 Na1_2 1_555 1_555
H8 O16 1_555 1_555
H9 O16 1_555 1_555
O17 Cu2 1_555 1_555
H10 O17 1_555 1_555
H11 O17 1_555 1_555
Na1_2 O20 1_555 1_555
Cu2 O16 1_555 1_555
O2 S1 1_555 1_555
O6 C4 1_555 1_555
C1 S1 1_555 1_555
C5 C4 1_555 1_555
C6 C1 1_555 1_555
H6 C5 1_555 1_555
H7 C6 1_555 1_555
Na3_2 O2 1_555 1_555
Na6 O6 1_555 1_555
C5 C6 1_555 1_555
O10 Na2_2 1_555 1_555
O13 Na2_2 1_555 1_555
H12 O13 1_555 1_555
H13 O13 1_555 1_555
Cu3 O13 1_555 1_555
Cu3_2 O18 1_555 1_555
O23 H19 1_555 1_555
Na1_3 O1_2 1_555 1_555
Na2_3 O1_2 1_555 1_555
O4_2 C7_2 1_555 1_555
O5_2 C7_2 1_555 1_555
C3_2 C2_2 1_555 1_555
C7_2 C3_2 1_555 1_555
H1_2 O7_2 1_555 1_555
H2_2 O7_2 1_555 1_555
H5_2 C2_2 1_555 1_555
Cu2_2 O9_2 1_555 1_555
O9_2 Na3_3 1_555 1_555
Na3_3 O17_2 1_555 1_555
O10_2 Na2_3 1_555 1_555
O11_2 Na1_3 1_555 1_555
Cu4 O12_2 1_555 1_555
O12_2 Na2_3 1_555 1_555
O13_2 Na2_3 1_555 1_555
O14_2 Na1_3 1_555 1_555
O15_2 Cu2_2 1_555 1_555
Na6_3 O22_2 1_555 1_555
O16_2 Na1_3 1_555 1_555
H8_2 O16_2 1_555 1_555
H9_2 O16_2 1_555 1_555
O17_2 Cu2_2 1_555 1_555
H10_2 O17_2 1_555 1_555
H11_2 O17_2 1_555 1_555
H12_2 O13_2 1_555 1_555
H13_2 O13_2 1_555 1_555
O18_2 Na2_3 1_555 1_555
S2_2 O9_2 1_555 1_555
O21_2 C9_2 1_555 1_555
H14_2 O18_2 1_555 1_555
H15_2 O18_2 1_555 1_555
O23_2 S2_2 1_555 1_555
C8_2 S2_2 1_555 1_555
C9_2 O24_2 1_555 1_555
C10_2 O22_2 1_555 1_555
C11_2 C8_2 1_555 1_555
C12_2 C8_2 1_555 1_555
C13_2 C9_2 1_555 1_555
C14_2 C10_2 1_555 1_555
H16_2 C11_2 1_555 1_555
H17_2 C12_2 1_555 1_555
H18_2 C14_2 1_555 1_555
Na1_3 O20_2 1_555 1_555
Na1_3 O7_2 1_555 1_555
Na2_3 O11_2 1_555 1_555
Cu2_2 O16_2 1_555 1_555
Cu2_2 O14_2 1_555 1_555
O11_2 S2_2 1_555 1_555
Cu4 O13_2 1_555 1_555
C10_2 C13_2 1_555 1_555
C11_2 C13_2 1_555 1_555
C12_2 C14_2 1_555 1_555
O23_2 H20_2 1_555 1_555
Cu1_2 O2_2 1_555 1_555
O2_2 S1_2 1_555 1_555
O3 S1_2 1_555 1_555
O6_2 C4_2 1_555 1_555
O8_2 Cu1_2 1_555 1_555
C1_2 S1_2 1_555 1_555
C5_2 C4_2 1_555 1_555
C6_2 C1_2 1_555 1_555
H3_2 O8_2 1_555 1_555
H4_2 O8_2 1_555 1_555
H6_2 C5_2 1_555 1_555
H7_2 C6_2 1_555 1_555
Na3_3 O2_2 1_555 1_555
Na6_2 O6_2 1_555 1_555
O19_2 Cu1_2 1_555 1_555
O8_2 Na3_3 1_555 1_555
C5_2 C6_2 1_555 1_555
O3 H19_2 1_555 1_555
Cu5 O10_2 1_555 1_555
Cu5 O18_2 1_555 1_555
O23_2 H19_3 1_555 1_555
O3 H20_3 1_555 1_555
O12 S1_3 1_555 1_555
O20_2 C4_3 1_555 1_555
C1_3 S1_3 1_555 1_555
C5_3 C4_3 1_555 1_555
C6_3 C1_3 1_555 1_555
H6_3 C5_3 1_555 1_555
H7_3 C6_3 1_555 1_555
C5_3 C6_3 1_555 1_555
Na6_2 O1_3 1_555 1_555
O4_3 C7_3 1_555 1_555
O19_2 C7_3 1_555 1_555
C3_3 C2_3 1_555 1_555
C7_3 C3_3 1_555 1_555
H5_3 C2_3 1_555 1_555
O16_3 Na6_2 1_555 1_555
H8_3 O16_3 1_555 1_555
H9_3 O16_3 1_555 1_555
Cu3_2 O16_3 1_555 1_555
O23_3 H20_4 1_555 1_555
H1_3 O7_3 1_555 1_555
H2_3 O7_3 1_555 1_555
O11_3 Na6_3 1_555 1_555
S2_3 O10 1_555 1_555
O15_2 C9_3 1_555 1_555
C8_3 S2_3 1_555 1_555
C9_3 O24_3 1_555 1_555
C10_3 O14_2 1_555 1_555
C11_3 C8_3 1_555 1_555
C12_3 C8_3 1_555 1_555
C13_3 C9_3 1_555 1_555
C14_3 C10_3 1_555 1_555
H16_3 C11_3 1_555 1_555
H17_3 C12_3 1_555 1_555
H18_3 C14_3 1_555 1_555
Na6_3 O7_3 1_555 1_555
O11_3 S2_3 1_555 1_555
C10_3 C13_3 1_555 1_555
C11_3 C13_3 1_555 1_555
C12_3 C14_3 1_555 1_555
O23_3 H19_4 1_555 1_555
O12_2 S1_4 1_555 1_555
O3_2 S1_4 1_555 1_555
O20 C4_4 1_555 1_555
C1_4 S1_4 1_555 1_555
C5_4 C4_4 1_555 1_555
C6_4 C1_4 1_555 1_555
H6_4 C5_4 1_555 1_555
H7_4 C6_4 1_555 1_555
C5_4 C6_4 1_555 1_555
O3_2 H19_5 1_555 1_555
Na6 O1_4 1_555 1_555
Na3_3 O1_4 1_555 1_555
O4_4 C7_4 1_555 1_555
O19 C7_4 1_555 1_555
C3_4 C2_4 1_555 1_555
C7_4 C3_4 1_555 1_555
H1_4 O7_4 1_555 1_555
H2_4 O7_4 1_555 1_555
H5_4 C2_4 1_555 1_555
O11_4 Na6 1_555 1_555
O16_4 Na6 1_555 1_555
H8_4 O16_4 1_555 1_555
H9_4 O16_4 1_555 1_555
S2_4 O10_2 1_555 1_555
O15 C9_4 1_555 1_555
O23_4 S2_4 1_555 1_555
C8_4 S2_4 1_555 1_555
C9_4 O24_4 1_555 1_555
C10_4 O14 1_555 1_555
C11_4 C8_4 1_555 1_555
C12_4 C8_4 1_555 1_555
C13_4 C9_4 1_555 1_555
C14_4 C10_4 1_555 1_555
H16_4 C11_4 1_555 1_555
H17_4 C12_4 1_555 1_555
H18_4 C14_4 1_555 1_555
Na6 O7_4 1_555 1_555
Na3_3 O11_4 1_555 1_555
Cu5 O16_4 1_555 1_555
O11_4 S2_4 1_555 1_555
C10_4 C13_4 1_555 1_555
C11_4 C13_4 1_555 1_555
C12_4 C14_4 1_555 1_555
O23_4 H20_5 1_555 1_555
O3_2 H20_6 1_555 1_555
O23_4 H19_6 1_555 1_555
O3_3 H19_7 1_555 1_555
O3_3 H20_7 1_555 1_555
O3_4 H19_8 1_555 1_555
O3_4 H20_8 1_555 1_555

#END
