
###############################################################################
#
# This file contains modified crystal structure data generated from the
# MOF subset of the Cambridge Structural Database (CSD) v543 
# hosted by the Cambridge Crystallographic Data Centre (CCDC).
#
# This work is licensed under the Creative Commons
# Attribution-NonCommercial-ShareAlike 4.0 International License.
# To view a copy of this license, visit
# http://creativecommons.org/licenses/by-nc-sa/4.0/
# or send a letter to
# Creative Commons, PO Box 1866, Mountain View, CA 94042, USA.
#
# CIF created using the CSD Python API on 29 September 2022
# The structure has been converted into the P1 space group
# The structure has a 3D framework
# The original CSD entry QUGBUQ is in the monoclinic crystal system
# The framework has been calculated to contain at least 10.0% void space
# The void calculation uses a probe of radius 1.32A, grid spacing 0.4
#
###############################################################################

data_QUGBUQ
_chemical_formula_moiety         '(C152 H124 Ag16 N56 O30)n'
_symmetry_cell_setting           triclinic
_symmetry_space_group_name_H-M   'P 1'
_symmetry_Int_Tables_number      1
_space_group_name_Hall           'P 1'
loop_
_symmetry_equiv_pos_site_id
_symmetry_equiv_pos_as_xyz
1 x,y,z
_cell_length_a                   42.914(9)
_cell_length_b                   8.7726(18)
_cell_length_c                   12.182(2)
_cell_angle_alpha                90
_cell_angle_beta                 92.22(3)
_cell_angle_gamma                90
_cell_volume                     4582.68
loop_
_atom_site_label
_atom_site_type_symbol
_atom_site_fract_x
_atom_site_fract_y
_atom_site_fract_z
Ag6 Ag 0.087030(16) 0.34922(8) 0.06897(5)
H23 H 0.1306 0.0000 0.3513
C32 C 0.1073(2) 0.0540(11) 0.1520(8)
N14 N 0.07681(14) 0.4994(7) 0.2230(5)
O8 O 0.1050(2) 0.0684(10) 0.0527(6)
O9 O 0.0977(2) 0.1488(8) 0.2135(8)
N17 N 0.07534(14) 0.4016(8) 0.8919(5)
N12 N 0.35067(15) 0.2960(7) 0.1431(5)
C2 C 0.20965(19) 0.9126(9) 0.0923(6)
H2 H 0.2031 0.8637 0.0278
C3 C 0.25925(18) 0.9671(9) 0.3224(7)
H4 H 0.2788 0.9412 0.2893
C4 C 0.25358(15) 0.8548(7) 0.4149(6)
C5 C 0.23186(15) 0.7382(8) 0.4048(6)
H5 H 0.2196 0.7293 0.3406
C6 C 0.27173(17) 0.8660(8) 0.5101(6)
H6 H 0.2865 0.9434 0.5178
N2 N 0.23385(17) 0.8658(7) 0.1537(5)
N3 N 0.23453(14) 0.9695(6) 0.2366(5)
Ag3 Ag 0.336079(15) 0.29731(7) 0.96311(5)
C20 C 0.28823(16) 0.4312(8) 0.7778(6)
H16 H 0.2921 0.3508 0.7304
C21 C 0.29035(19) 0.5874(9) 0.9077(6)
H17 H 0.2969 0.6363 0.9722
C22 C 0.24075(18) 0.5329(9) 0.6776(7)
H18 H 0.2386 0.4314 0.6467
H19 H 0.2212 0.5588 0.7107
C23 C 0.24642(15) 0.6452(7) 0.5851(6)
C24 C 0.26814(15) 0.7618(8) 0.5952(6)
H20 H 0.2804 0.7707 0.6594
C25 C 0.22827(17) 0.6340(8) 0.4899(6)
H21 H 0.2135 0.5566 0.4822
N8 N 0.30480(14) 0.4616(7) 0.8686(5)
N9 N 0.26615(17) 0.6342(7) 0.8463(5)
N10 N 0.26547(14) 0.5305(6) 0.7634(5)
O7 O 0.33825(16) 0.0930(7) 0.8297(5)
Ag2 Ag 0.087030(16) 0.65078(8) 0.56897(5)
H8 H 0.1306 1.0000 0.8513
C13 C 0.1073(2) 0.9460(11) 0.6520(8)
C14 C 0.08605(16) 0.5145(9) 0.8268(6)
H10 H 0.0987 0.5937 0.8530
C15 C 0.05842(19) 0.3188(9) 0.8225(7)
H11 H 0.0475 0.2317 0.8417
C16 C 0.0455(2) 0.3121(9) 0.6184(7)
H12 H 0.0624 0.2920 0.5698
H13 H 0.0356 0.2154 0.6338
C17 C 0.02214(17) 0.4130(8) 0.5597(6)
C18 C 0.01118(18) 0.5432(9) 0.6027(6)
H14 H 0.0183 0.5753 0.6719
C19 C 0.01123(18) 0.3689(9) 0.4580(7)
H15 H 0.0187 0.2793 0.4277
N5 N 0.07681(14) 0.5006(7) 0.7230(5)
N7 N 0.05879(14) 0.3746(7) 0.7221(5)
O3 O 0.1050(2) 0.9316(10) 0.5527(6)
O4 O 0.0977(2) 0.8512(8) 0.7135(8)
N16 N 0.07534(14) 0.5984(8) 0.3919(5)
C33 C 0.08605(16) 0.4855(9) 0.3268(6)
H25 H 0.0987 0.4063 0.3530
C34 C 0.05842(19) 0.6812(9) 0.3225(7)
H26 H 0.0475 0.7683 0.3417
C35 C 0.0455(2) 0.6879(9) 0.1184(7)
H27 H 0.0624 0.7080 0.0698
H28 H 0.0356 0.7846 0.1338
C36 C 0.02214(17) 0.5870(8) 0.0597(6)
C37 C 0.01118(18) 0.4568(9) 0.1027(6)
H29 H 0.0183 0.4247 0.1719
N18 N 0.05879(14) 0.6254(7) 0.2221(5)
C38 C 0.01123(18) 0.6311(9) 0.9580(7)
H30 H 0.0187 0.7207 0.9277
Ag1 Ag 0.836079(15) 0.20269(7) 0.46311(5)
C1 C 0.78823(16) 0.0688(8) 0.2778(6)
H1 H 0.7921 0.1492 0.2304
H3 H 0.7386 0.0686 0.1467
C7 C 0.84970(17) 0.4801(9) 0.8795(6)
C8 C 0.85533(17) 0.3368(8) 0.8154(6)
C9 C 0.84595(16) 0.3278(8) 0.7052(6)
H7 H 0.8359 0.4113 0.6729
C10 C 0.86572(18) 0.0857(9) 0.6912(6)
H8_2 H 0.8694 0.0000 0.6487
C11 C 0.87605(16) 0.0838(8) 0.7998(6)
C12 C 0.87020(17) 0.2123(9) 0.8613(6)
H9 H 0.8764 0.2144 0.9353
N1 N 0.80480(14) 0.0384(7) 0.3686(5)
N4 N 0.85067(15) 0.2040(7) 0.6431(5)
O1 O 0.85754(19) 0.4814(8) 0.9787(5)
O2 O 0.83825(16) 0.5930(7) 0.8297(5)
Ag4 Ag 0.836079(15) 0.79731(7) 0.96311(5)
C26 C 0.84970(17) 0.5199(9) 0.3795(6)
C27 C 0.85533(17) 0.6632(8) 0.3154(6)
C28 C 0.84595(16) 0.6722(8) 0.2052(6)
H22 H 0.8359 0.5887 0.1729
C29 C 0.86572(18) 0.9143(9) 0.1912(6)
H23_2 H 0.8694 1.0000 0.1487
C30 C 0.87605(16) 0.9162(8) 0.2998(6)
C31 C 0.87020(17) 0.7877(9) 0.3613(6)
H24 H 0.8764 0.7856 0.4353
N11 N 0.85067(15) 0.7960(7) 0.1431(5)
O5 O 0.85754(19) 0.5186(8) 0.4787(5)
O6 O 0.83825(16) 0.4070(7) 0.3297(5)
C6_2 C 0.72827(17) 0.8660(8) 0.9899(6)
H6_2 H 0.7135 0.9434 0.9822
Ag3_2 Ag 0.663921(15) 0.29731(7) 0.53689(5)
C20_2 C 0.71177(16) 0.4312(8) 0.7222(6)
H16_2 H 0.7079 0.3508 0.7696
C21_2 C 0.70965(19) 0.5874(9) 0.5923(6)
H17_2 H 0.7031 0.6363 0.5278
C22_2 C 0.75925(18) 0.5329(9) 0.8224(7)
H18_2 H 0.7614 0.4314 0.8533
H19_2 H 0.7788 0.5588 0.7893
C23_2 C 0.75358(15) 0.6452(7) 0.9149(6)
C24_2 C 0.73186(15) 0.7618(8) 0.9048(6)
H20_2 H 0.7196 0.7707 0.8406
N8_2 N 0.69520(14) 0.4616(7) 0.6314(5)
N9_2 N 0.73385(17) 0.6342(7) 0.6537(5)
N10_2 N 0.73453(14) 0.5305(6) 0.7366(5)
N12_2 N 0.64933(15) 0.2960(7) 0.3569(5)
O7_2 O 0.66175(16) 0.0930(7) 0.6703(5)
Ag6_2 Ag 0.587030(16) 0.84922(8) 0.06897(5)
C26_2 C 0.65030(17) 0.0199(9) 0.1205(6)
C27_2 C 0.64467(17) 0.1632(8) 0.1846(6)
C28_2 C 0.65405(16) 0.1722(8) 0.2948(6)
H22_2 H 0.6641 0.0887 0.3271
C29_2 C 0.63428(18) 0.4143(9) 0.3088(6)
H23_3 H 0.6306 0.5000 0.3513
C30_2 C 0.62395(16) 0.4162(8) 0.2002(6)
C31_2 C 0.62980(17) 0.2877(9) 0.1387(6)
H24_2 H 0.6236 0.2856 0.0647
C32_2 C 0.6073(2) 0.5540(11) 0.1520(8)
N14_2 N 0.57681(14) 0.9994(7) 0.2230(5)
O5_2 O 0.64246(19) 0.0186(8) 0.0213(5)
O8_2 O 0.6050(2) 0.5684(10) 0.0527(6)
O9_2 O 0.5977(2) 0.6488(8) 0.2135(8)
N17_2 N 0.57534(14) 0.9016(8) 0.8919(5)
C20_3 C 0.78823(16) 0.9312(8) 0.7778(6)
H16_3 H 0.7921 0.8508 0.7304
H18_3 H 0.7386 0.9314 0.6467
N8_3 N 0.80480(14) 0.9616(7) 0.8686(5)
C15_2 C 0.55842(19) 0.8188(9) 0.8225(7)
H11_2 H 0.5475 0.7317 0.8417
C16_2 C 0.5455(2) 0.8121(9) 0.6184(7)
H12_2 H 0.5624 0.7920 0.5698
H13_2 H 0.5356 0.7154 0.6338
C17_2 C 0.52214(17) 0.9130(8) 0.5597(6)
C19_2 C 0.51123(18) 0.8689(9) 0.4580(7)
H15_2 H 0.5187 0.7793 0.4277
N7_2 N 0.55879(14) 0.8746(7) 0.7221(5)
Ag9 Ag 0.412970(16) 0.84922(8) 0.43103(5)
C33_2 C 0.41395(16) 0.9855(9) 0.1732(6)
H25_2 H 0.4013 0.9063 0.1470
C37_2 C 0.48882(18) 0.9568(9) 0.3973(6)
H29_2 H 0.4817 0.9247 0.3281
N13 N 0.42319(14) 0.9994(7) 0.2770(5)
C26_3 C 0.34970(17) 0.0199(9) 0.3795(6)
C27_3 C 0.35533(17) 0.1632(8) 0.3154(6)
C28_3 C 0.34595(16) 0.1722(8) 0.2052(6)
H22_3 H 0.3359 0.0887 0.1729
C29_3 C 0.36572(18) 0.4143(9) 0.1912(6)
H23_4 H 0.3694 0.5000 0.1487
C30_3 C 0.37605(16) 0.4162(8) 0.2998(6)
C31_3 C 0.37020(17) 0.2877(9) 0.3613(6)
H24_3 H 0.3764 0.2856 0.4353
C32_3 C 0.3927(2) 0.5540(11) 0.3480(8)
N17_3 N 0.42466(14) 0.9016(8) 0.6081(5)
O5_3 O 0.35754(19) 0.0186(8) 0.4787(5)
O8_3 O 0.3950(2) 0.5684(10) 0.4473(6)
O9_3 O 0.4023(2) 0.6488(8) 0.2865(8)
C6_3 C 0.22827(17) 0.3660(8) 0.9899(6)
H6_3 H 0.2135 0.4434 0.9822
C21_3 C 0.20965(19) 0.0874(9) 0.5923(6)
H17_3 H 0.2031 0.1363 0.5278
C22_3 C 0.25925(18) 0.0329(9) 0.8224(7)
H19_3 H 0.2788 0.0588 0.7893
C23_3 C 0.25358(15) 0.1452(7) 0.9149(6)
C24_3 C 0.23186(15) 0.2618(8) 0.9048(6)
H20_3 H 0.2196 0.2707 0.8406
N9_3 N 0.23385(17) 0.1342(7) 0.6537(5)
N10_3 N 0.23453(14) 0.0305(6) 0.7366(5)
C19_3 C 0.48877(18) 0.8689(9) 0.0420(7)
H15_3 H 0.4813 0.7793 0.0723
C33_3 C 0.58605(16) 0.9855(9) 0.3268(6)
H25_3 H 0.5987 0.9063 0.3530
C37_3 C 0.51118(18) 0.9568(9) 0.1027(6)
H29_3 H 0.5183 0.9247 0.1719
C15_3 C 0.44158(19) 0.8188(9) 0.6775(7)
H11_3 H 0.4525 0.7317 0.6583
C16_3 C 0.4545(2) 0.8121(9) 0.8816(7)
H12_3 H 0.4376 0.7920 0.9302
H13_3 H 0.4644 0.7154 0.8662
C17_3 C 0.47786(17) 0.9130(8) 0.9403(6)
N7_3 N 0.44121(14) 0.8746(7) 0.7779(5)
Ag1_2 Ag 0.163921(15) 0.20269(7) 0.03689(5)
C1_2 C 0.21177(16) 0.0688(8) 0.2222(6)
H1_2 H 0.2079 0.1492 0.2696
H3_2 H 0.2614 0.0686 0.3533
N1_2 N 0.19520(14) 0.0384(7) 0.1314(5)
Ag5 Ag 0.163921(15) 0.79731(7) 0.53689(5)
C26_4 C 0.15030(17) 0.5199(9) 0.1205(6)
C27_4 C 0.14467(17) 0.6632(8) 0.1846(6)
C28_4 C 0.15405(16) 0.6722(8) 0.2948(6)
H22_4 H 0.1641 0.5887 0.3271
C29_4 C 0.13428(18) 0.9143(9) 0.3088(6)
H23_5 H 0.1306 1.0000 0.3513
C30_4 C 0.12395(16) 0.9162(8) 0.2002(6)
C31_4 C 0.12980(17) 0.7877(9) 0.1387(6)
H24_4 H 0.1236 0.7856 0.0647
N11_2 N 0.14933(15) 0.7960(7) 0.3569(5)
O5_4 O 0.14246(19) 0.5186(8) 0.0213(5)
O6_2 O 0.16175(16) 0.4070(7) 0.1703(5)
C7_2 C 0.15030(17) 0.4801(9) 0.6205(6)
C8_2 C 0.14467(17) 0.3368(8) 0.6846(6)
C9_2 C 0.15405(16) 0.3278(8) 0.7948(6)
H7_2 H 0.1641 0.4113 0.8271
C10_2 C 0.13428(18) 0.0857(9) 0.8088(6)
H8_3 H 0.1306 0.0000 0.8513
C11_2 C 0.12395(16) 0.0838(8) 0.7002(6)
C12_2 C 0.12980(17) 0.2123(9) 0.6387(6)
H9_2 H 0.1236 0.2144 0.5647
N4_2 N 0.14933(15) 0.2040(7) 0.8569(5)
O1_2 O 0.14246(19) 0.4814(8) 0.5213(5)
O2_2 O 0.16175(16) 0.5930(7) 0.6703(5)
Ag9_2 Ag 0.912970(16) 0.34922(8) 0.43103(5)
C33_4 C 0.91395(16) 0.4855(9) 0.1732(6)
H25_4 H 0.9013 0.4063 0.1470
C34_2 C 0.94158(19) 0.6812(9) 0.1775(7)
H26_2 H 0.9525 0.7683 0.1583
C35_2 C 0.9545(2) 0.6879(9) 0.3816(7)
H27_2 H 0.9376 0.7080 0.4302
H28_2 H 0.9644 0.7846 0.3662
C36_2 C 0.97786(17) 0.5870(8) 0.4403(6)
C37_4 C 0.98882(18) 0.4568(9) 0.3973(6)
H29_4 H 0.9817 0.4247 0.3281
C38_2 C 0.98877(18) 0.6311(9) 0.5420(7)
H30_2 H 0.9813 0.7207 0.5723
N13_2 N 0.92319(14) 0.4994(7) 0.2770(5)
N15 N 0.92466(14) 0.5984(8) 0.1081(5)
N18_2 N 0.94121(14) 0.6254(7) 0.2779(5)
Ag8 Ag 0.912970(16) 0.65078(8) 0.93103(5)
H23_6 H 0.8694 0.0000 0.1487
C32_4 C 0.8927(2) 0.0540(11) 0.3480(8)
N17_4 N 0.92466(14) 0.4016(8) 0.6081(5)
O8_4 O 0.8950(2) 0.0684(10) 0.4473(6)
O9_4 O 0.9023(2) 0.1488(8) 0.2865(8)
C19_4 C 0.98877(18) 0.3689(9) 0.0420(7)
H15_4 H 0.9813 0.2793 0.0723
C2_2 C 0.79035(19) 0.9126(9) 0.4077(6)
H2_2 H 0.7969 0.8637 0.4722
C3_2 C 0.74075(18) 0.9671(9) 0.1776(7)
H4_2 H 0.7212 0.9412 0.2107
C4_2 C 0.74642(15) 0.8548(7) 0.0851(6)
C5_2 C 0.76814(15) 0.7382(8) 0.0952(6)
H5_2 H 0.7804 0.7293 0.1594
H8_4 H 0.8694 1.0000 0.6487
C13_2 C 0.8927(2) 0.9460(11) 0.8480(8)
C14_2 C 0.91395(16) 0.5145(9) 0.6732(6)
H10_2 H 0.9013 0.5937 0.6470
C15_4 C 0.94158(19) 0.3188(9) 0.6775(7)
H11_4 H 0.9525 0.2317 0.6583
C16_4 C 0.9545(2) 0.3121(9) 0.8816(7)
H12_4 H 0.9376 0.2920 0.9302
H13_4 H 0.9644 0.2154 0.8662
C17_4 C 0.97786(17) 0.4130(8) 0.9403(6)
C18_2 C 0.98882(18) 0.5432(9) 0.8973(6)
H14_2 H 0.9817 0.5753 0.8281
N2_2 N 0.76615(17) 0.8658(7) 0.3463(5)
N3_2 N 0.76547(14) 0.9695(6) 0.2634(5)
N5_2 N 0.92319(14) 0.5006(7) 0.7770(5)
N7_4 N 0.94121(14) 0.3746(7) 0.7779(5)
O3_2 O 0.8950(2) 0.9316(10) 0.9473(6)
O4_2 O 0.9023(2) 0.8512(8) 0.7865(8)
C25_2 C 0.77173(17) 0.6340(8) 0.0101(6)
H21_2 H 0.7865 0.5566 0.0178
Ag1_3 Ag 0.663921(15) 0.70269(7) 0.03689(5)
C1_3 C 0.71177(16) 0.5688(8) 0.2222(6)
H1_3 H 0.7079 0.6492 0.2696
C2_3 C 0.70965(19) 0.4126(9) 0.0923(6)
H2_3 H 0.7031 0.3637 0.0278
C3_3 C 0.75925(18) 0.4671(9) 0.3224(7)
H3_3 H 0.7614 0.5686 0.3533
H4_3 H 0.7788 0.4412 0.2893
C4_3 C 0.75358(15) 0.3548(7) 0.4149(6)
C5_3 C 0.73186(15) 0.2382(8) 0.4048(6)
H5_3 H 0.7196 0.2293 0.3406
C6_4 C 0.77173(17) 0.3660(8) 0.5101(6)
H6_4 H 0.7865 0.4434 0.5178
N1_3 N 0.69520(14) 0.5384(7) 0.1314(5)
N2_3 N 0.73385(17) 0.3658(7) 0.1537(5)
N3_3 N 0.73453(14) 0.4695(6) 0.2366(5)
C21_4 C 0.79035(19) 0.0874(9) 0.9077(6)
H17_4 H 0.7969 0.1363 0.9722
C22_4 C 0.74075(18) 0.0329(9) 0.6776(7)
H19_4 H 0.7212 0.0588 0.7107
C23_4 C 0.74642(15) 0.1452(7) 0.5851(6)
C24_4 C 0.76814(15) 0.2618(8) 0.5952(6)
H20_4 H 0.7804 0.2707 0.6594
C25_3 C 0.72827(17) 0.1340(8) 0.4899(6)
H21_3 H 0.7135 0.0566 0.4822
N9_4 N 0.76615(17) 0.1342(7) 0.8463(5)
N10_4 N 0.76547(14) 0.0305(6) 0.7634(5)
O6_3 O 0.66175(16) 0.9070(7) 0.1703(5)
Ag2_2 Ag 0.587030(16) 0.15078(8) 0.56897(5)
C7_3 C 0.65030(17) 0.9801(9) 0.6205(6)
C8_3 C 0.64467(17) 0.8368(8) 0.6846(6)
C9_3 C 0.65405(16) 0.8278(8) 0.7948(6)
H7_3 H 0.6641 0.9113 0.8271
C10_3 C 0.63428(18) 0.5857(9) 0.8088(6)
H8_5 H 0.6306 0.5000 0.8513
C11_3 C 0.62395(16) 0.5838(8) 0.7002(6)
C12_3 C 0.62980(17) 0.7123(9) 0.6387(6)
H9_3 H 0.6236 0.7144 0.5647
C13_3 C 0.6073(2) 0.4460(11) 0.6520(8)
C14_3 C 0.58605(16) 0.0145(9) 0.8268(6)
H10_3 H 0.5987 0.0937 0.8530
C18_3 C 0.51118(18) 0.0432(9) 0.6027(6)
H14_3 H 0.5183 0.0753 0.6719
N4_3 N 0.64933(15) 0.7040(7) 0.8569(5)
N5_3 N 0.57681(14) 0.0006(7) 0.7230(5)
O1_3 O 0.64246(19) 0.9814(8) 0.5213(5)
O3_3 O 0.6050(2) 0.4316(10) 0.5527(6)
O4_3 O 0.5977(2) 0.3512(8) 0.7135(8)
C34_3 C 0.44158(19) 0.1812(9) 0.1775(7)
H26_3 H 0.4525 0.2683 0.1583
C35_3 C 0.4545(2) 0.1879(9) 0.3816(7)
H27_3 H 0.4376 0.2080 0.4302
H28_3 H 0.4644 0.2846 0.3662
C36_3 C 0.47786(17) 0.0870(8) 0.4403(6)
C38_3 C 0.48877(18) 0.1311(9) 0.5420(7)
H30_3 H 0.4813 0.2207 0.5723
N15_2 N 0.42466(14) 0.0984(8) 0.1081(5)
N16_2 N 0.57534(14) 0.0984(8) 0.3919(5)
N18_3 N 0.44121(14) 0.1254(7) 0.2779(5)
Ag8_2 Ag 0.412970(16) 0.15078(8) 0.93103(5)
C34_4 C 0.55842(19) 0.1812(9) 0.3225(7)
H26_4 H 0.5475 0.2683 0.3417
C35_4 C 0.5455(2) 0.1879(9) 0.1184(7)
H27_4 H 0.5624 0.2080 0.0698
H28_4 H 0.5356 0.2846 0.1338
C36_4 C 0.52214(17) 0.0870(8) 0.0597(6)
N18_4 N 0.55879(14) 0.1254(7) 0.2221(5)
Ag1_4 Ag 0.336079(15) 0.70269(7) 0.46311(5)
C1_4 C 0.28823(16) 0.5688(8) 0.2778(6)
H1_4 H 0.2921 0.6492 0.2304
C2_4 C 0.29035(19) 0.4126(9) 0.4077(6)
H2_4 H 0.2969 0.3637 0.4722
C3_4 C 0.24075(18) 0.4671(9) 0.1776(7)
H3_4 H 0.2386 0.5686 0.1467
H4_4 H 0.2212 0.4412 0.2107
C4_4 C 0.24642(15) 0.3548(7) 0.0851(6)
C5_4 C 0.26814(15) 0.2382(8) 0.0952(6)
H5_4 H 0.2804 0.2293 0.1594
C7_4 C 0.34970(17) 0.9801(9) 0.8795(6)
C8_4 C 0.35533(17) 0.8368(8) 0.8154(6)
C9_4 C 0.34595(16) 0.8278(8) 0.7052(6)
H7_4 H 0.3359 0.9113 0.6729
C10_4 C 0.36572(18) 0.5857(9) 0.6912(6)
H8_6 H 0.3694 0.5000 0.6487
C11_4 C 0.37605(16) 0.5838(8) 0.7998(6)
C12_4 C 0.37020(17) 0.7123(9) 0.8613(6)
H9_4 H 0.3764 0.7144 0.9353
C13_4 C 0.3927(2) 0.4460(11) 0.8480(8)
C14_4 C 0.41395(16) 0.0145(9) 0.6732(6)
H10_4 H 0.4013 0.0937 0.6470
C18_4 C 0.48882(18) 0.0432(9) 0.8973(6)
H14_4 H 0.4817 0.0753 0.8281
N1_4 N 0.30480(14) 0.5384(7) 0.3686(5)
N2_4 N 0.26615(17) 0.3658(7) 0.3463(5)
N3_4 N 0.26547(14) 0.4695(6) 0.2634(5)
N4_4 N 0.35067(15) 0.7040(7) 0.6431(5)
N5_4 N 0.42319(14) 0.0006(7) 0.7770(5)
O1_4 O 0.35754(19) 0.9814(8) 0.9787(5)
O3_4 O 0.3950(2) 0.4316(10) 0.9473(6)
O4_4 O 0.4023(2) 0.3512(8) 0.7865(8)
C25_4 C 0.27173(17) 0.1340(8) 0.0101(6)
H21_4 H 0.2865 0.0566 0.0178
C38_4 C 0.51123(18) 0.1311(9) 0.9580(7)
H30_4 H 0.5187 0.2207 0.9277
O6_4 O 0.33825(16) 0.9070(7) 0.3297(5)
C20_4 C 0.21177(16) 0.9312(8) 0.7222(6)
H16_4 H 0.2079 0.8508 0.7696
H18_4 H 0.2614 0.9314 0.8533
N8_4 N 0.19520(14) 0.9616(7) 0.6314(5)
loop_
_geom_bond_atom_site_label_1
_geom_bond_atom_site_label_2
_geom_bond_site_symmetry_1
_geom_bond_site_symmetry_2
Ag6 N14 1_555 1_555
O8 Ag6 1_555 1_555
O9 Ag6 1_555 1_555
C32 O8 1_555 1_555
C32 O9 1_555 1_555
C2 H2 1_555 1_555
H4 C3 1_555 1_555
C4 C3 1_555 1_555
C5 C4 1_555 1_555
H5 C5 1_555 1_555
C6 C4 1_555 1_555
H6 C6 1_555 1_555
N2 C2 1_555 1_555
Ag3 N8 1_555 1_555
C20 H16 1_555 1_555
C21 H17 1_555 1_555
C22 H18 1_555 1_555
H19 C22 1_555 1_555
C23 C22 1_555 1_555
C24 C6 1_555 1_555
H20 C24 1_555 1_555
C25 C5 1_555 1_555
H21 C25 1_555 1_555
N8 C20 1_555 1_555
N9 C21 1_555 1_555
N10 C20 1_555 1_555
O7 Ag3 1_555 1_555
C3 N3 1_555 1_555
N2 N3 1_555 1_555
C21 N8 1_555 1_555
C22 N10 1_555 1_555
C23 C24 1_555 1_555
C23 C25 1_555 1_555
N9 N10 1_555 1_555
Ag2 N5 1_555 1_555
C14 H10 1_555 1_555
C15 H11 1_555 1_555
C16 H12 1_555 1_555
H13 C16 1_555 1_555
C17 C16 1_555 1_555
C18 C17 1_555 1_555
H14 C18 1_555 1_555
C19 C17 1_555 1_555
H15 C19 1_555 1_555
N5 C14 1_555 1_555
N17 C14 1_555 1_555
N7 C15 1_555 1_555
O3 Ag2 1_555 1_555
O4 Ag2 1_555 1_555
N16 Ag2 1_555 1_555
C13 O3 1_555 1_555
C13 O4 1_555 1_555
C15 N17 1_555 1_555
C16 N7 1_555 1_555
N5 N7 1_555 1_555
C33 H25 1_555 1_555
C34 H26 1_555 1_555
C35 H27 1_555 1_555
H28 C35 1_555 1_555
C36 C35 1_555 1_555
H29 C37 1_555 1_555
N14 C33 1_555 1_555
N16 C33 1_555 1_555
N18 C34 1_555 1_555
C34 N16 1_555 1_555
C35 N18 1_555 1_555
C36 C37 1_555 1_555
N14 N18 1_555 1_555
H30 C38 1_555 1_555
Ag1 N1 1_555 1_555
C1 H1 1_555 1_555
C7 C8 1_555 1_555
C8 C9 1_555 1_555
C9 H7 1_555 1_555
C10 H8_2 1_555 1_555
C11 C10 1_555 1_555
C12 C8 1_555 1_555
H9 C12 1_555 1_555
N1 C1 1_555 1_555
N4 Ag1 1_555 1_555
O1 C7 1_555 1_555
O2 C7 1_555 1_555
Ag4 O2 1_555 1_555
C26 C27 1_555 1_555
C27 C28 1_555 1_555
C28 H22 1_555 1_555
C29 H23_2 1_555 1_555
C30 C29 1_555 1_555
C31 C27 1_555 1_555
H24 C31 1_555 1_555
N11 C28 1_555 1_555
O5 C26 1_555 1_555
O6 Ag1 1_555 1_555
C9 N4 1_555 1_555
C10 N4 1_555 1_555
C11 C12 1_555 1_555
C26 O6 1_555 1_555
C29 N11 1_555 1_555
C30 C31 1_555 1_555
H6_2 C6_2 1_555 1_555
Ag3_2 N8_2 1_555 1_555
C20_2 H16_2 1_555 1_555
C21_2 H17_2 1_555 1_555
C22_2 H18_2 1_555 1_555
H19_2 C22_2 1_555 1_555
C23_2 C22_2 1_555 1_555
C24_2 C6_2 1_555 1_555
H20_2 C24_2 1_555 1_555
N8_2 C20_2 1_555 1_555
N9_2 C21_2 1_555 1_555
N10_2 C20_2 1_555 1_555
N12_2 Ag3_2 1_555 1_555
O7_2 Ag3_2 1_555 1_555
C21_2 N8_2 1_555 1_555
C22_2 N10_2 1_555 1_555
C23_2 C24_2 1_555 1_555
N9_2 N10_2 1_555 1_555
Ag6_2 N14_2 1_555 1_555
C26_2 C27_2 1_555 1_555
C27_2 C28_2 1_555 1_555
C28_2 H22_2 1_555 1_555
C29_2 H23_3 1_555 1_555
C30_2 C29_2 1_555 1_555
C31_2 C27_2 1_555 1_555
H24_2 C31_2 1_555 1_555
C32_2 C30_2 1_555 1_555
N12_2 C28_2 1_555 1_555
O5_2 C26_2 1_555 1_555
O8_2 Ag6_2 1_555 1_555
O9_2 Ag6_2 1_555 1_555
C29_2 N12_2 1_555 1_555
C30_2 C31_2 1_555 1_555
C32_2 O8_2 1_555 1_555
C32_2 O9_2 1_555 1_555
Ag4 N8_3 1_555 1_555
C20_3 H16_3 1_555 1_555
N8_3 C20_3 1_555 1_555
C15_2 H11_2 1_555 1_555
C16_2 H12_2 1_555 1_555
H13_2 C16_2 1_555 1_555
C17_2 C16_2 1_555 1_555
C19_2 C17_2 1_555 1_555
H15_2 C19_2 1_555 1_555
N7_2 C15_2 1_555 1_555
Ag9 N13 1_555 1_555
C33_2 H25_2 1_555 1_555
C37_2 C19_2 1_555 1_555
H29_2 C37_2 1_555 1_555
N13 C33_2 1_555 1_555
C15_2 N17_2 1_555 1_555
C16_2 N7_2 1_555 1_555
C26_3 C27_3 1_555 1_555
C27_3 C28_3 1_555 1_555
C28_3 H22_3 1_555 1_555
C29_3 H23_4 1_555 1_555
C30_3 C29_3 1_555 1_555
C31_3 C27_3 1_555 1_555
H24_3 C31_3 1_555 1_555
C32_3 C30_3 1_555 1_555
N12 C28_3 1_555 1_555
N17_3 Ag9 1_555 1_555
O5_3 C26_3 1_555 1_555
O8_3 Ag9 1_555 1_555
O9_3 Ag9 1_555 1_555
C29_3 N12 1_555 1_555
C30_3 C31_3 1_555 1_555
C32_3 O8_3 1_555 1_555
C32_3 O9_3 1_555 1_555
H6_3 C6_3 1_555 1_555
C21_3 H17_3 1_555 1_555
H19_3 C22_3 1_555 1_555
C23_3 C22_3 1_555 1_555
C24_3 C6_3 1_555 1_555
H20_3 C24_3 1_555 1_555
N9_3 C21_3 1_555 1_555
C22_3 N10_3 1_555 1_555
C23_3 C24_3 1_555 1_555
N9_3 N10_3 1_555 1_555
H15_3 C19_3 1_555 1_555
C33_3 H25_3 1_555 1_555
C37_3 C19_3 1_555 1_555
H29_3 C37_3 1_555 1_555
N14_2 C33_3 1_555 1_555
C15_3 H11_3 1_555 1_555
C16_3 H12_3 1_555 1_555
H13_3 C16_3 1_555 1_555
C17_3 C16_3 1_555 1_555
N7_3 C15_3 1_555 1_555
C15_3 N17_3 1_555 1_555
C16_3 N7_3 1_555 1_555
Ag1_2 N1_2 1_555 1_555
C1_2 H1_2 1_555 1_555
N1_2 C1_2 1_555 1_555
Ag5 N11_2 1_555 1_555
C26_4 C27_4 1_555 1_555
C27_4 C28_4 1_555 1_555
C28_4 H22_4 1_555 1_555
C29_4 H23_5 1_555 1_555
C30_4 C29_4 1_555 1_555
C31_4 C27_4 1_555 1_555
H24_4 C31_4 1_555 1_555
N11_2 C28_4 1_555 1_555
O5_4 C26_4 1_555 1_555
O6_2 Ag1_2 1_555 1_555
C26_4 O6_2 1_555 1_555
C29_4 N11_2 1_555 1_555
C30_4 C31_4 1_555 1_555
C7_2 C8_2 1_555 1_555
C8_2 C9_2 1_555 1_555
C9_2 H7_2 1_555 1_555
C10_2 H8_3 1_555 1_555
C11_2 C10_2 1_555 1_555
C12_2 C8_2 1_555 1_555
H9_2 C12_2 1_555 1_555
O1_2 C7_2 1_555 1_555
O2_2 C7_2 1_555 1_555
Ag5 O2_2 1_555 1_555
C9_2 N4_2 1_555 1_555
C10_2 N4_2 1_555 1_555
C11_2 C12_2 1_555 1_555
Ag9_2 N13_2 1_555 1_555
C33_4 H25_4 1_555 1_555
C34_2 H26_2 1_555 1_555
C35_2 H27_2 1_555 1_555
H28_2 C35_2 1_555 1_555
C36_2 C35_2 1_555 1_555
H29_4 C37_4 1_555 1_555
H30_2 C38_2 1_555 1_555
N13_2 C33_4 1_555 1_555
N15 C33_4 1_555 1_555
N18_2 C34_2 1_555 1_555
C34_2 N15 1_555 1_555
C35_2 N18_2 1_555 1_555
C36_2 C37_4 1_555 1_555
C36_2 C38_2 1_555 1_555
N13_2 N18_2 1_555 1_555
N17_4 Ag9_2 1_555 1_555
O8_4 Ag9_2 1_555 1_555
O9_4 Ag9_2 1_555 1_555
C32_4 O8_4 1_555 1_555
C32_4 O9_4 1_555 1_555
H15_4 C19_4 1_555 1_555
Ag8 N5_2 1_555 1_555
C2_2 H2_2 1_555 1_555
H4_2 C3_2 1_555 1_555
C4_2 C3_2 1_555 1_555
C5_2 C4_2 1_555 1_555
H5_2 C5_2 1_555 1_555
C14_2 H10_2 1_555 1_555
C15_4 H11_4 1_555 1_555
C16_4 H12_4 1_555 1_555
H13_4 C16_4 1_555 1_555
C17_4 C16_4 1_555 1_555
C18_2 C17_4 1_555 1_555
H14_2 C18_2 1_555 1_555
N2_2 C2_2 1_555 1_555
N5_2 C14_2 1_555 1_555
N17_4 C14_2 1_555 1_555
N7_4 C15_4 1_555 1_555
O3_2 Ag8 1_555 1_555
O4_2 Ag8 1_555 1_555
C25_2 C5_2 1_555 1_555
H21_2 C25_2 1_555 1_555
C3_2 N3_2 1_555 1_555
C13_2 O3_2 1_555 1_555
C13_2 O4_2 1_555 1_555
C15_4 N17_4 1_555 1_555
C16_4 N7_4 1_555 1_555
N2_2 N3_2 1_555 1_555
N5_2 N7_4 1_555 1_555
Ag1_3 N1_3 1_555 1_555
C1_3 H1_3 1_555 1_555
C2_3 H2_3 1_555 1_555
C3_3 H3_3 1_555 1_555
H4_3 C3_3 1_555 1_555
C4_3 C3_3 1_555 1_555
C5_3 C4_3 1_555 1_555
H5_3 C5_3 1_555 1_555
C6_4 C4_3 1_555 1_555
H6_4 C6_4 1_555 1_555
N1_3 C1_3 1_555 1_555
N2_3 C2_3 1_555 1_555
N3_3 C1_3 1_555 1_555
C21_4 H17_4 1_555 1_555
H19_4 C22_4 1_555 1_555
C23_4 C22_4 1_555 1_555
C24_4 C6_4 1_555 1_555
H20_4 C24_4 1_555 1_555
C25_3 C5_3 1_555 1_555
H21_3 C25_3 1_555 1_555
N9_4 C21_4 1_555 1_555
O6_3 Ag1_3 1_555 1_555
C2_3 N1_3 1_555 1_555
C3_3 N3_3 1_555 1_555
N2_3 N3_3 1_555 1_555
C22_4 N10_4 1_555 1_555
C23_4 C24_4 1_555 1_555
C23_4 C25_3 1_555 1_555
N9_4 N10_4 1_555 1_555
Ag2_2 N5_3 1_555 1_555
C7_3 C8_3 1_555 1_555
C8_3 C9_3 1_555 1_555
C9_3 H7_3 1_555 1_555
C10_3 H8_5 1_555 1_555
C11_3 C10_3 1_555 1_555
C12_3 C8_3 1_555 1_555
H9_3 C12_3 1_555 1_555
C13_3 C11_3 1_555 1_555
C14_3 H10_3 1_555 1_555
H14_3 C18_3 1_555 1_555
N5_3 C14_3 1_555 1_555
O1_3 C7_3 1_555 1_555
O3_3 Ag2_2 1_555 1_555
O4_3 Ag2_2 1_555 1_555
C34_3 H26_3 1_555 1_555
C35_3 H27_3 1_555 1_555
H28_3 C35_3 1_555 1_555
C36_3 C35_3 1_555 1_555
C38_3 C18_3 1_555 1_555
H30_3 C38_3 1_555 1_555
N16_2 Ag2_2 1_555 1_555
N18_3 C34_3 1_555 1_555
C9_3 N4_3 1_555 1_555
C10_3 N4_3 1_555 1_555
C11_3 C12_3 1_555 1_555
C13_3 O3_3 1_555 1_555
C13_3 O4_3 1_555 1_555
C34_3 N15_2 1_555 1_555
C35_3 N18_3 1_555 1_555
C36_3 C38_3 1_555 1_555
C34_4 H26_4 1_555 1_555
C35_4 H27_4 1_555 1_555
H28_4 C35_4 1_555 1_555
C36_4 C35_4 1_555 1_555
N18_4 C34_4 1_555 1_555
C34_4 N16_2 1_555 1_555
C35_4 N18_4 1_555 1_555
Ag1_4 N1_4 1_555 1_555
Ag8_2 N5_4 1_555 1_555
C1_4 H1_4 1_555 1_555
C2_4 H2_4 1_555 1_555
C3_4 H3_4 1_555 1_555
H4_4 C3_4 1_555 1_555
C4_4 C3_4 1_555 1_555
C5_4 C4_4 1_555 1_555
H5_4 C5_4 1_555 1_555
C7_4 C8_4 1_555 1_555
C8_4 C9_4 1_555 1_555
C9_4 H7_4 1_555 1_555
C10_4 H8_6 1_555 1_555
C11_4 C10_4 1_555 1_555
C12_4 C8_4 1_555 1_555
H9_4 C12_4 1_555 1_555
C13_4 C11_4 1_555 1_555
C14_4 H10_4 1_555 1_555
H14_4 C18_4 1_555 1_555
N1_4 C1_4 1_555 1_555
N2_4 C2_4 1_555 1_555
N3_4 C1_4 1_555 1_555
N4_4 Ag1_4 1_555 1_555
N5_4 C14_4 1_555 1_555
O1_4 C7_4 1_555 1_555
O3_4 Ag8_2 1_555 1_555
O4_4 Ag8_2 1_555 1_555
C25_4 C5_4 1_555 1_555
H21_4 C25_4 1_555 1_555
C38_4 C18_4 1_555 1_555
H30_4 C38_4 1_555 1_555
O6_4 Ag1_4 1_555 1_555
C2_4 N1_4 1_555 1_555
C3_4 N3_4 1_555 1_555
C9_4 N4_4 1_555 1_555
C10_4 N4_4 1_555 1_555
C11_4 C12_4 1_555 1_555
C13_4 O3_4 1_555 1_555
C13_4 O4_4 1_555 1_555
N2_4 N3_4 1_555 1_555
Ag5 N8_4 1_555 1_555
C20_4 H16_4 1_555 1_555
N8_4 C20_4 1_555 1_555

#END
