
###############################################################################
#
# This file contains modified crystal structure data generated from the
# MOF subset of the Cambridge Structural Database (CSD) v543 
# hosted by the Cambridge Crystallographic Data Centre (CCDC).
#
# This work is licensed under the Creative Commons
# Attribution-NonCommercial-ShareAlike 4.0 International License.
# To view a copy of this license, visit
# http://creativecommons.org/licenses/by-nc-sa/4.0/
# or send a letter to
# Creative Commons, PO Box 1866, Mountain View, CA 94042, USA.
#
# CIF created using the CSD Python API on 29 September 2022
# The structure has been converted into the P1 space group
# The structure has a 3D framework
# The original CSD entry QUGJUA is in the monoclinic crystal system
# The framework has been calculated to contain at least 10.0% void space
# The void calculation uses a probe of radius 1.32A, grid spacing 0.4
#
###############################################################################

data_QUGJUA
_chemical_formula_moiety         '(C280 H216 N16 O32 Zn5)n'
_symmetry_cell_setting           triclinic
_symmetry_space_group_name_H-M   'P 1'
_symmetry_Int_Tables_number      1
_space_group_name_Hall           'P 1'
loop_
_symmetry_equiv_pos_site_id
_symmetry_equiv_pos_as_xyz
1 x,y,z
_cell_length_a                   22.4457(14)
_cell_length_b                   19.4713(5)
_cell_length_c                   19.1226(14)
_cell_angle_alpha                90
_cell_angle_beta                 123.068(10)
_cell_angle_gamma                90
_cell_volume                     7003.76
loop_
_atom_site_label
_atom_site_type_symbol
_atom_site_fract_x
_atom_site_fract_y
_atom_site_fract_z
Zn1 Zn 0.008499(15) 0.060461(14) 0.33379(2)
O9 O 0.09283(11) 0.06124(11) 0.28732(14)
O10 O 0.11853(10) 0.05697(10) 0.41683(14)
O12 O 0.00680(11) 0.16229(9) 0.31306(13)
N5 N 0.04371(12) 0.05889(11) 0.10804(15)
O3 O 0.00663(11) 0.95880(10) 0.31270(14)
C13 C -0.0000 0.92921(19) 0.2500
C14 C -0.0000 0.8525(2) 0.2500
C15 C 0.0038(2) 0.81613(16) 0.3152(2)
H11 H 0.0063 0.8396 0.3591
C16 C 0.0039(2) 0.74576(17) 0.3143(2)
H12 H 0.0066 0.7220 0.3581
C17 C -0.0000 0.7090(2) 0.2500
C18 C 0.0000 0.6320(2) 0.2500
C19 C 0.06148(18) 0.59640(15) 0.2688(2)
C20 C 0.06103(17) 0.52464(15) 0.2672(2)
C21 C -0.0000 0.4891(2) 0.2500
C22 C 0.1284(2) 0.63540(18) 0.2928(3)
H13 H 0.1661 0.6224 0.3481
H14 H 0.1198 0.6838 0.2913
H15 H 0.1418 0.6247 0.2541
C23 C 0.1259(2) 0.48555(18) 0.2843(3)
H16 H 0.1244 0.4808 0.2335
H17 H 0.1263 0.4409 0.3058
H18 H 0.1680 0.5101 0.3246
C24 C -0.0000 0.4126(2) 0.2500
C27 C 0.0000 0.26832(19) 0.2500
C28 C 0.0000 0.19132(19) 0.2500
C56 C 0.00490(19) 0.37559(15) 0.3151(2)
H46 H 0.0081 0.3990 0.3595
C57 C 0.00507(18) 0.30493(15) 0.3152(2)
H47 H 0.0087 0.2814 0.3596
Zn5 Zn 0.991501(15) 0.939539(14) 0.66621(2)
C1 C 0.13651(15) 0.05556(14) 0.3641(2)
C2 C 0.21269(15) 0.04564(16) 0.3941(2)
C3 C 0.23188(17) 0.0423(2) 0.3370(2)
H1 H 0.1974 0.0467 0.2804
C4 C 0.30215(18) 0.0325(2) 0.3635(2)
H2 H 0.3143 0.0314 0.3242
C5 C 0.35426(16) 0.02434(19) 0.4461(2)
C6 C 0.33483(16) 0.0281(2) 0.5029(2)
H3 H 0.3693 0.0233 0.5595
C7 C 0.26470(16) 0.0391(2) 0.4771(2)
H4 H 0.2528 0.0420 0.5166
C8 C 0.43023(15) 0.01153(18) 0.4740(2)
C10 C 0.47159(17) 0.06654(18) 0.4784(2)
C12 C 0.4418(2) 0.1382(2) 0.4579(3)
H8 H 0.3972 0.1390 0.4538
H9 H 0.4347 0.1523 0.4058
H10 H 0.4746 0.1690 0.5012
N2 N 0.11186(13) 0.09359(13) 0.06566(16)
C29 C 0.06913(15) 0.11224(15) 0.0915(2)
H21 H 0.0590 0.1575 0.0969
C30 C 0.11288(18) 0.02325(17) 0.0656(2)
C31 C 0.07143(17) 0.00238(16) 0.0922(2)
C32 C 0.15069(16) 0.13887(16) 0.0455(2)
C33 C 0.1720(2) 0.20098(19) 0.0822(3)
H24 H 0.1609 0.2146 0.1205
C34 C 0.2102(2) 0.24456(19) 0.0636(3)
H25 H 0.2236 0.2874 0.0891
C35 C 0.22863(16) 0.22670(17) 0.0091(2)
C46 C 0.54244(17) 0.05452(18) 0.5051(2)
C48 C 0.5895(2) 0.1140(2) 0.5127(3)
H32 H 0.5808 0.1243 0.4588
H33 H 0.5788 0.1536 0.5339
H34 H 0.6385 0.1016 0.5503
C65 C 0.2933(2) 0.3368(2) 0.0272(3)
H53 H 0.2815 0.3509 0.0647
C66 C 0.3325(2) 0.3808(2) 0.0099(3)
H54 H 0.3471 0.4234 0.0361
C9 C 0.45756(17) 0.94548(18) 0.4949(2)
C11 C 0.4105(2) 0.8860(2) 0.4873(3)
H5 H 0.4192 0.8757 0.5412
H6 H 0.4212 0.8464 0.4661
H7 H 0.3615 0.8984 0.4497
H22 H 0.1375 0.9954 0.0502
H23 H 0.0628 0.9569 0.0989
O5 O 0.90717(11) 0.93876(11) 0.71268(14)
O6 O 0.88147(10) 0.94303(10) 0.58317(14)
C38 C 0.86349(15) 0.94444(14) 0.6359(2)
C39 C 0.78731(15) 0.95436(16) 0.6059(2)
C40 C 0.76812(17) 0.9577(2) 0.6630(2)
H28 H 0.8026 0.9533 0.7196
C41 C 0.69785(18) 0.9675(2) 0.6365(2)
H29 H 0.6857 0.9686 0.6758
C42 C 0.64574(16) 0.97566(19) 0.5539(2)
C43 C 0.66517(16) 0.9719(2) 0.4971(2)
H30 H 0.6307 0.9767 0.4405
C44 C 0.73530(16) 0.9609(2) 0.5229(2)
H31 H 0.7472 0.9580 0.4834
C45 C 0.56977(15) 0.98847(18) 0.5260(2)
C47 C 0.52841(17) 0.93346(18) 0.5216(2)
C49 C 0.5582(2) 0.8618(2) 0.5421(3)
H35 H 0.6028 0.8610 0.5462
H36 H 0.5653 0.8477 0.5942
H37 H 0.5254 0.8310 0.4988
C6_2 C 0.16517(16) 0.5281(2) 0.9971(2)
H3_2 H 0.1307 0.5233 0.9405
H4_2 H 0.2472 0.5420 0.9834
H5_2 H 0.0808 0.3757 0.9588
H10_2 H 0.0254 0.6690 0.9988
C43_2 C 0.83483(16) 0.4719(2) 0.0029(2)
H30_2 H 0.8693 0.4767 0.0595
H31_2 H 0.7528 0.4580 0.0166
H32_2 H 0.9192 0.6243 0.0412
H37_2 H 0.9746 0.3310 0.0012
H49 H 0.8625 0.0046 0.9498
H50 H 0.9372 0.0431 0.9011
C36 C 0.7067(2) 0.6632(2) 0.9728(3)
H26 H 0.7185 0.6491 0.9353
C37 C 0.6675(2) 0.6192(2) 0.9901(3)
H27 H 0.6529 0.5766 0.9639
N3 N 0.95629(12) 0.94111(11) 0.89196(15)
N4 N 0.88814(13) 0.90641(13) 0.93434(16)
C58 C 0.93087(15) 0.88776(15) 0.9085(2)
H48 H 0.9410 0.8425 0.9031
C59 C 0.88712(18) 0.97675(17) 0.9344(2)
C60 C 0.92857(17) 0.99762(16) 0.9078(2)
C61 C 0.84931(16) 0.86113(16) 0.9545(2)
C62 C 0.8280(2) 0.79902(19) 0.9178(3)
H51 H 0.8391 0.7854 0.8795
C63 C 0.7898(2) 0.75544(19) 0.9364(3)
H52 H 0.7764 0.7126 0.9109
C64 C 0.77137(16) 0.77330(17) 0.9909(2)
O3_2 O 0.99337(11) 0.04120(10) 0.68730(14)
C13_2 C 1.0000 0.07079(19) 0.7500
C14_2 C 1.0000 0.1475(2) 0.7500
C15_2 C 0.9962(2) 0.18387(16) 0.6848(2)
H11_2 H 0.9937 0.1604 0.6409
C16_2 C 0.9961(2) 0.25424(17) 0.6857(2)
H12_2 H 0.9934 0.2780 0.6419
C17_2 C 1.0000 0.2910(2) 0.7500
C18_2 C 1.0000 0.3680(2) 0.7500
C19_2 C 0.93852(18) 0.40360(15) 0.7312(2)
C20_2 C 0.93897(17) 0.47536(15) 0.7328(2)
C21_2 C 1.0000 0.5109(2) 0.7500
C22_2 C 0.8716(2) 0.36460(18) 0.7072(3)
H13_2 H 0.8339 0.3776 0.6519
H14_2 H 0.8802 0.3162 0.7087
H15_2 H 0.8582 0.3753 0.7459
C23_2 C 0.8741(2) 0.51445(18) 0.7157(3)
H16_2 H 0.8756 0.5192 0.7665
H17_2 H 0.8737 0.5591 0.6942
H18_2 H 0.8320 0.4899 0.6754
C24_2 C 1.0000 0.5874(2) 0.7500
C27_2 C 1.0000 0.73168(19) 0.7500
C28_2 C 1.0000 0.80868(19) 0.7500
O8 O 0.99320(11) 0.83771(9) 0.68694(13)
C56_2 C 0.99510(19) 0.62441(15) 0.6849(2)
H46_2 H 0.9919 0.6010 0.6405
C57_2 C 0.99493(18) 0.69507(15) 0.6848(2)
H47_2 H 0.9913 0.7186 0.6404
O1 O 0.90717(11) 0.06124(11) 0.21268(14)
O2 O 0.88147(10) 0.05697(10) 0.08317(14)
C1_2 C 0.86349(15) 0.05556(14) 0.1359(2)
C2_2 C 0.78731(15) 0.04564(16) 0.1059(2)
C3_2 C 0.76812(17) 0.0423(2) 0.1630(2)
H1_2 H 0.8026 0.0467 0.2196
C4_2 C 0.69785(18) 0.0325(2) 0.1365(2)
H2_2 H 0.6857 0.0314 0.1758
C5_2 C 0.64574(16) 0.02434(19) 0.0539(2)
C7_2 C 0.73530(16) 0.0391(2) 0.0229(2)
C8_2 C 0.56977(15) 0.01153(18) 0.0260(2)
C10_2 C 0.52841(17) 0.06654(18) 0.0216(2)
C12_2 C 0.5582(2) 0.1382(2) 0.0421(3)
H8_2 H 0.6028 0.1390 0.0462
H9_2 H 0.5653 0.1523 0.0942
N1 N 0.95629(12) 0.05889(11) 0.39196(15)
N2_2 N 0.88814(13) 0.09359(13) 0.43434(16)
C29_2 C 0.93087(15) 0.11224(15) 0.4085(2)
H21_2 H 0.9410 0.1575 0.4031
C30_2 C 0.88712(18) 0.02325(17) 0.4344(2)
C31_2 C 0.92857(17) 0.00238(16) 0.4078(2)
C32_2 C 0.84931(16) 0.13887(16) 0.4545(2)
C33_2 C 0.8280(2) 0.20098(19) 0.4178(3)
H24_2 H 0.8391 0.2146 0.3795
C34_2 C 0.7898(2) 0.24456(19) 0.4364(3)
H25_2 H 0.7764 0.2874 0.4109
C35_2 C 0.77137(16) 0.22670(17) 0.4909(2)
C36_2 C 0.7933(2) 0.1632(2) 0.5272(3)
H26_2 H 0.7815 0.1491 0.5647
C37_2 C 0.8325(2) 0.1192(2) 0.5099(3)
H27_2 H 0.8471 0.0766 0.5361
H32_3 H 0.4192 0.1243 0.0412
N3_2 N 0.54371(12) 0.44111(11) 0.60804(15)
N4_2 N 0.61186(13) 0.40641(13) 0.56566(16)
C58_2 C 0.56913(15) 0.38776(15) 0.5915(2)
H48_2 H 0.5590 0.3425 0.5969
C59_2 C 0.61288(18) 0.47675(17) 0.5656(2)
H49_2 H 0.6375 0.5046 0.5502
C60_2 C 0.57143(17) 0.49762(16) 0.5922(2)
H50_2 H 0.5628 0.5431 0.5989
C61_2 C 0.65069(16) 0.36113(16) 0.5455(2)
C62_2 C 0.6720(2) 0.29902(19) 0.5822(3)
H51_2 H 0.6609 0.2854 0.6205
C63_2 C 0.7102(2) 0.25544(19) 0.5636(3)
H52_2 H 0.7236 0.2126 0.5891
C64_2 C 0.72863(16) 0.27330(17) 0.5091(2)
C65_2 C 0.7067(2) 0.3368(2) 0.4728(3)
H53_2 H 0.7185 0.3509 0.4353
C66_2 C 0.6675(2) 0.3808(2) 0.4901(3)
H54_2 H 0.6529 0.4234 0.4639
Zn2 Zn 0.991501(15) 0.060461(14) 0.16621(2)
Zn7 Zn 0.491501(15) 0.439539(14) 0.66621(2)
O11 O 0.99320(11) 0.16229(9) 0.18694(13)
C9_2 C 0.54244(17) 0.94548(18) 0.0051(2)
C11_2 C 0.5895(2) 0.8860(2) 0.0127(3)
H6_2 H 0.5788 0.8464 0.0339
H7_2 H 0.6385 0.8984 0.0503
C13_3 C 1.0000 0.92921(19) 0.2500
C14_3 C 1.0000 0.8525(2) 0.2500
C17_3 C 1.0000 0.7090(2) 0.2500
C18_3 C 1.0000 0.6320(2) 0.2500
C21_3 C 1.0000 0.4891(2) 0.2500
C24_3 C 1.0000 0.4126(2) 0.2500
C25 C 0.99510(19) 0.37559(15) 0.1849(2)
H19 H 0.9919 0.3990 0.1405
C26 C 0.99493(18) 0.30493(15) 0.1848(2)
H20 H 0.9913 0.2814 0.1404
C27_3 C 1.0000 0.26832(19) 0.2500
C28_3 C 1.0000 0.19132(19) 0.2500
H22_2 H 0.8625 0.9954 0.4498
H23_2 H 0.9372 0.9569 0.4011
C43_3 C 0.33483(16) 0.9719(2) 0.0029(2)
H30_3 H 0.3693 0.9767 0.0595
H31_3 H 0.2528 0.9580 0.0166
H37_3 H 0.4746 0.8310 0.0012
O7 O 0.99337(11) 0.95880(10) 0.18730(14)
C50 C 0.9962(2) 0.81613(16) 0.1848(2)
H38 H 0.9937 0.8396 0.1409
C51 C 0.9961(2) 0.74576(17) 0.1857(2)
H39 H 0.9934 0.7220 0.1419
C52 C 0.93852(18) 0.59640(15) 0.2312(2)
C53 C 0.93897(17) 0.52464(15) 0.2328(2)
C54 C 0.8716(2) 0.63540(18) 0.2072(3)
H40 H 0.8339 0.6224 0.1519
H41 H 0.8802 0.6838 0.2087
H42 H 0.8582 0.6247 0.2459
C55 C 0.8741(2) 0.48555(18) 0.2157(3)
H43 H 0.8756 0.4808 0.2665
H44 H 0.8737 0.4409 0.1942
H45 H 0.8320 0.5101 0.1754
C36_3 C 0.2067(2) 0.1632(2) 0.9728(3)
H26_3 H 0.2185 0.1491 0.9353
C37_3 C 0.1675(2) 0.1192(2) 0.9901(3)
H27_3 H 0.1529 0.0766 0.9639
N3_3 N 0.45629(12) 0.44111(11) 0.89196(15)
N4_3 N 0.38814(13) 0.40641(13) 0.93434(16)
C58_3 C 0.43087(15) 0.38776(15) 0.9085(2)
H48_3 H 0.4410 0.3425 0.9031
C59_3 C 0.38712(18) 0.47675(17) 0.9344(2)
H49_3 H 0.3625 0.5046 0.9498
C60_3 C 0.42857(17) 0.49762(16) 0.9078(2)
H50_3 H 0.4372 0.5431 0.9011
C61_3 C 0.34931(16) 0.36113(16) 0.9545(2)
C62_3 C 0.3280(2) 0.29902(19) 0.9178(3)
H51_3 H 0.3391 0.2854 0.8795
C63_3 C 0.2898(2) 0.25544(19) 0.9364(3)
H52_3 H 0.2764 0.2126 0.9109
C64_3 C 0.27137(16) 0.27330(17) 0.9909(2)
Zn7_2 Zn 0.508499(15) 0.439539(14) 0.83379(2)
O5_2 O 0.59283(11) 0.43876(11) 0.78732(14)
O6_2 O 0.61853(10) 0.44303(10) 0.91683(14)
C38_2 C 0.63651(15) 0.44444(14) 0.8641(2)
C39_2 C 0.71269(15) 0.45436(16) 0.8941(2)
C40_2 C 0.73188(17) 0.4577(2) 0.8370(2)
H28_2 H 0.6974 0.4533 0.7804
C41_2 C 0.80215(18) 0.4675(2) 0.8635(2)
H29_2 H 0.8143 0.4686 0.8242
C42_2 C 0.85426(16) 0.47566(19) 0.9461(2)
C44_2 C 0.76470(16) 0.4609(2) 0.9771(2)
C45_2 C 0.93023(15) 0.48847(18) 0.9740(2)
C46_2 C 0.95756(17) 0.55452(18) 0.9949(2)
C47_2 C 0.97159(17) 0.43346(18) 0.9784(2)
C48_2 C 0.9105(2) 0.6140(2) 0.9873(3)
H33_2 H 0.9212 0.6536 0.9661
H34_2 H 0.8615 0.6016 0.9497
C49_2 C 0.9418(2) 0.3618(2) 0.9579(3)
H35_2 H 0.8972 0.3610 0.9538
H36_2 H 0.9347 0.3477 0.9058
O5_3 O 0.40717(11) 0.43876(11) 0.71268(14)
O6_3 O 0.38147(10) 0.44303(10) 0.58317(14)
C38_3 C 0.36349(15) 0.44444(14) 0.6359(2)
C39_3 C 0.28731(15) 0.45436(16) 0.6059(2)
C40_3 C 0.26812(17) 0.4577(2) 0.6630(2)
H28_3 H 0.3026 0.4533 0.7196
C41_3 C 0.19785(18) 0.4675(2) 0.6365(2)
H29_3 H 0.1857 0.4686 0.6758
C42_3 C 0.14574(16) 0.47566(19) 0.5539(2)
C43_4 C 0.16517(16) 0.4719(2) 0.4971(2)
H30_4 H 0.1307 0.4767 0.4405
C44_3 C 0.23530(16) 0.4609(2) 0.5229(2)
H31_4 H 0.2472 0.4580 0.4834
C45_3 C 0.06977(15) 0.48847(18) 0.5260(2)
C46_3 C 0.04244(17) 0.55452(18) 0.5051(2)
C47_3 C 0.02841(17) 0.43346(18) 0.5216(2)
C48_3 C 0.0895(2) 0.6140(2) 0.5127(3)
H32_4 H 0.0808 0.6243 0.4588
H33_3 H 0.0788 0.6536 0.5339
H34_3 H 0.1385 0.6016 0.5503
C49_3 C 0.0582(2) 0.3618(2) 0.5421(3)
H35_3 H 0.1028 0.3610 0.5462
H36_3 H 0.0653 0.3477 0.5942
H37_4 H 0.0254 0.3310 0.4988
O4 O 0.50680(11) 0.33771(9) 0.81306(13)
C21_4 C 0.5000 0.0109(2) 0.7500
C23_3 C 0.3741(2) 0.01445(18) 0.7157(3)
H16_3 H 0.3756 0.0192 0.7665
H17_3 H 0.3737 0.0591 0.6942
C24_4 C 0.5000 0.0874(2) 0.7500
C25_2 C 0.50490(19) 0.12441(15) 0.8151(2)
H19_2 H 0.5081 0.1010 0.8595
C26_2 C 0.50507(18) 0.19507(15) 0.8152(2)
H20_2 H 0.5087 0.2186 0.8596
C27_4 C 0.5000 0.23168(19) 0.7500
C28_4 C 0.5000 0.30868(19) 0.7500
O8_2 O 0.49320(11) 0.33771(9) 0.68694(13)
C55_2 C 0.6259(2) 0.01445(18) 0.7843(3)
H43_2 H 0.6244 0.0192 0.7335
H44_2 H 0.6263 0.0591 0.8058
C56_3 C 0.49510(19) 0.12441(15) 0.6849(2)
H46_3 H 0.4919 0.1010 0.6405
C57_3 C 0.49493(18) 0.19507(15) 0.6848(2)
H47_3 H 0.4913 0.2186 0.6404
O3_3 O 0.49337(11) 0.54120(10) 0.68730(14)
C13_4 C 0.5000 0.57079(19) 0.7500
C14_4 C 0.5000 0.6475(2) 0.7500
C15_3 C 0.4962(2) 0.68387(16) 0.6848(2)
H11_3 H 0.4937 0.6604 0.6409
C16_3 C 0.4961(2) 0.75424(17) 0.6857(2)
H12_3 H 0.4934 0.7780 0.6419
C17_4 C 0.5000 0.7910(2) 0.7500
C18_4 C 0.5000 0.8680(2) 0.7500
C19_3 C 0.43852(18) 0.90360(15) 0.7312(2)
C20_3 C 0.43897(17) 0.97536(15) 0.7328(2)
C22_3 C 0.3716(2) 0.86460(18) 0.7072(3)
H13_3 H 0.3339 0.8776 0.6519
H14_3 H 0.3802 0.8162 0.7087
H15_3 H 0.3582 0.8753 0.7459
H18_3 H 0.3320 0.9899 0.6754
O7_2 O 0.50663(11) 0.54120(10) 0.81270(14)
C50_2 C 0.5038(2) 0.68387(16) 0.8152(2)
H38_2 H 0.5063 0.6604 0.8591
C51_2 C 0.5039(2) 0.75424(17) 0.8143(2)
H39_2 H 0.5066 0.7780 0.8581
C52_2 C 0.56148(18) 0.90360(15) 0.7688(2)
C53_2 C 0.56103(17) 0.97536(15) 0.7672(2)
C54_2 C 0.6284(2) 0.86460(18) 0.7928(3)
H40_2 H 0.6661 0.8776 0.8481
H41_2 H 0.6198 0.8162 0.7913
H42_2 H 0.6418 0.8753 0.7541
H45_2 H 0.6680 0.9899 0.8246
C6_3 C 0.66517(16) 0.0281(2) 0.9971(2)
H3_3 H 0.6307 0.0233 0.9405
H4_3 H 0.7472 0.0420 0.9834
H10_3 H 0.5254 0.1690 0.9988
C46_4 C 0.45756(17) 0.05452(18) 0.9949(2)
C48_4 C 0.4105(2) 0.1140(2) 0.9873(3)
H33_4 H 0.4212 0.1536 0.9661
H34_4 H 0.3615 0.1016 0.9497
H5_3 H 0.5808 0.8757 0.9588
O5_4 O 0.09283(11) 0.93876(11) 0.78732(14)
O6_4 O 0.11853(10) 0.94303(10) 0.91683(14)
C38_4 C 0.13651(15) 0.94444(14) 0.8641(2)
C39_4 C 0.21269(15) 0.95436(16) 0.8941(2)
C40_4 C 0.23188(17) 0.9577(2) 0.8370(2)
H28_4 H 0.1974 0.9533 0.7804
C41_4 C 0.30215(18) 0.9675(2) 0.8635(2)
H29_4 H 0.3143 0.9686 0.8242
C42_4 C 0.35426(16) 0.97566(19) 0.9461(2)
C44_4 C 0.26470(16) 0.9609(2) 0.9771(2)
C45_4 C 0.43023(15) 0.98847(18) 0.9740(2)
C47_4 C 0.47159(17) 0.93346(18) 0.9784(2)
C49_4 C 0.4418(2) 0.8618(2) 0.9579(3)
H35_4 H 0.3972 0.8610 0.9538
H36_4 H 0.4347 0.8477 0.9058
Zn6 Zn 0.008499(15) 0.939539(14) 0.83379(2)
H49_4 H 0.1375 0.0046 0.5502
H50_4 H 0.0628 0.0431 0.5989
Zn1_2 Zn 0.508499(15) 0.560461(14) 0.33379(2)
O1_2 O 0.40717(11) 0.56124(11) 0.21268(14)
O2_2 O 0.38147(10) 0.55697(10) 0.08317(14)
C1_3 C 0.36349(15) 0.55556(14) 0.1359(2)
C2_3 C 0.28731(15) 0.54564(16) 0.1059(2)
C3_3 C 0.26812(17) 0.5423(2) 0.1630(2)
H1_3 H 0.3026 0.5467 0.2196
C4_3 C 0.19785(18) 0.5325(2) 0.1365(2)
H2_3 H 0.1857 0.5314 0.1758
C5_3 C 0.14574(16) 0.52434(19) 0.0539(2)
C7_3 C 0.23530(16) 0.5391(2) 0.0229(2)
C8_3 C 0.06977(15) 0.51153(18) 0.0260(2)
C9_3 C 0.04244(17) 0.44548(18) 0.0051(2)
C10_3 C 0.02841(17) 0.56654(18) 0.0216(2)
C11_3 C 0.0895(2) 0.3860(2) 0.0127(3)
H6_3 H 0.0788 0.3464 0.0339
H7_3 H 0.1385 0.3984 0.0503
C12_3 C 0.0582(2) 0.6382(2) 0.0421(3)
H8_3 H 0.1028 0.6390 0.0462
H9_3 H 0.0653 0.6523 0.0942
O3_4 O 0.50663(11) 0.45880(10) 0.31270(14)
C13_5 C 0.5000 0.42921(19) 0.2500
C14_5 C 0.5000 0.3525(2) 0.2500
C15_4 C 0.5038(2) 0.31613(16) 0.3152(2)
H11_4 H 0.5063 0.3396 0.3591
C16_4 C 0.5039(2) 0.24576(17) 0.3143(2)
H12_4 H 0.5066 0.2220 0.3581
C17_5 C 0.5000 0.2090(2) 0.2500
C18_5 C 0.5000 0.1320(2) 0.2500
C19_4 C 0.56148(18) 0.09640(15) 0.2688(2)
C20_4 C 0.56103(17) 0.02464(15) 0.2672(2)
C22_4 C 0.6284(2) 0.13540(18) 0.2928(3)
H13_4 H 0.6661 0.1224 0.3481
H14_4 H 0.6198 0.1838 0.2913
H15_4 H 0.6418 0.1247 0.2541
H18_4 H 0.6680 0.0101 0.3246
N1_2 N 0.45629(12) 0.55889(11) 0.39196(15)
N2_3 N 0.38814(13) 0.59359(13) 0.43434(16)
C29_3 C 0.43087(15) 0.61224(15) 0.4085(2)
H21_3 H 0.4410 0.6575 0.4031
C30_3 C 0.38712(18) 0.52325(17) 0.4344(2)
H22_3 H 0.3625 0.4954 0.4498
C31_3 C 0.42857(17) 0.50238(16) 0.4078(2)
H23_3 H 0.4372 0.4569 0.4011
C32_3 C 0.34931(16) 0.63887(16) 0.4545(2)
C33_3 C 0.3280(2) 0.70098(19) 0.4178(3)
H24_3 H 0.3391 0.7146 0.3795
C34_3 C 0.2898(2) 0.74456(19) 0.4364(3)
H25_3 H 0.2764 0.7874 0.4109
C35_3 C 0.27137(16) 0.72670(17) 0.4909(2)
C36_4 C 0.2933(2) 0.6632(2) 0.5272(3)
H26_4 H 0.2815 0.6491 0.5647
C37_4 C 0.3325(2) 0.6192(2) 0.5099(3)
H27_4 H 0.3471 0.5766 0.5361
O7_3 O 0.49337(11) 0.45880(10) 0.18730(14)
C50_3 C 0.4962(2) 0.31613(16) 0.1848(2)
H38_3 H 0.4937 0.3396 0.1409
C51_3 C 0.4961(2) 0.24576(17) 0.1857(2)
H39_3 H 0.4934 0.2220 0.1419
C52_3 C 0.43852(18) 0.09640(15) 0.2312(2)
C53_3 C 0.43897(17) 0.02464(15) 0.2328(2)
C54_3 C 0.3716(2) 0.13540(18) 0.2072(3)
H40_3 H 0.3339 0.1224 0.1519
H41_3 H 0.3802 0.1838 0.2087
H42_3 H 0.3582 0.1247 0.2459
H45_3 H 0.3320 0.0101 0.1754
N3_4 N 0.04371(12) 0.94111(11) 0.60804(15)
N4_4 N 0.11186(13) 0.90641(13) 0.56566(16)
C58_4 C 0.06913(15) 0.88776(15) 0.5915(2)
H48_4 H 0.0590 0.8425 0.5969
C59_4 C 0.11288(18) 0.97675(17) 0.5656(2)
C60_4 C 0.07143(17) 0.99762(16) 0.5922(2)
C61_4 C 0.15069(16) 0.86113(16) 0.5455(2)
C62_4 C 0.1720(2) 0.79902(19) 0.5822(3)
H51_4 H 0.1609 0.7854 0.6205
C63_4 C 0.2102(2) 0.75544(19) 0.5636(3)
H52_4 H 0.2236 0.7126 0.5891
C64_4 C 0.22863(16) 0.77330(17) 0.5091(2)
C65_3 C 0.2067(2) 0.8368(2) 0.4728(3)
H53_3 H 0.2185 0.8509 0.4353
C66_3 C 0.1675(2) 0.8808(2) 0.4901(3)
H54_3 H 0.1529 0.9234 0.4639
Zn2_2 Zn 0.491501(15) 0.560461(14) 0.16621(2)
O9_2 O 0.59283(11) 0.56124(11) 0.28732(14)
O10_2 O 0.61853(10) 0.55697(10) 0.41683(14)
O11_2 O 0.49320(11) 0.66229(9) 0.18694(13)
O12_2 O 0.50680(11) 0.66229(9) 0.31306(13)
N5_2 N 0.54371(12) 0.55889(11) 0.10804(15)
C21_5 C 0.5000 0.9891(2) 0.2500
C23_4 C 0.6259(2) 0.98555(18) 0.2843(3)
H16_4 H 0.6244 0.9808 0.2335
H17_4 H 0.6263 0.9409 0.3058
C24_5 C 0.5000 0.9126(2) 0.2500
C25_3 C 0.49510(19) 0.87559(15) 0.1849(2)
H19_3 H 0.4919 0.8990 0.1405
C26_3 C 0.49493(18) 0.80493(15) 0.1848(2)
H20_3 H 0.4913 0.7814 0.1404
C27_5 C 0.5000 0.76832(19) 0.2500
C28_5 C 0.5000 0.69132(19) 0.2500
C55_3 C 0.3741(2) 0.98555(18) 0.2157(3)
H43_3 H 0.3756 0.9808 0.2665
H44_3 H 0.3737 0.9409 0.1942
C56_4 C 0.50490(19) 0.87559(15) 0.3151(2)
H46_4 H 0.5081 0.8990 0.3595
C57_4 C 0.50507(18) 0.80493(15) 0.3152(2)
H47_4 H 0.5087 0.7814 0.3596
C1_4 C 0.63651(15) 0.55556(14) 0.3641(2)
C2_4 C 0.71269(15) 0.54564(16) 0.3941(2)
C3_4 C 0.73188(17) 0.5423(2) 0.3370(2)
H1_4 H 0.6974 0.5467 0.2804
C4_4 C 0.80215(18) 0.5325(2) 0.3635(2)
H2_4 H 0.8143 0.5314 0.3242
C5_4 C 0.85426(16) 0.52434(19) 0.4461(2)
C6_4 C 0.83483(16) 0.5281(2) 0.5029(2)
H3_4 H 0.8693 0.5233 0.5595
C7_4 C 0.76470(16) 0.5391(2) 0.4771(2)
H4_4 H 0.7528 0.5420 0.5166
C8_4 C 0.93023(15) 0.51153(18) 0.4740(2)
C9_4 C 0.95756(17) 0.44548(18) 0.4949(2)
C10_4 C 0.97159(17) 0.56654(18) 0.4784(2)
C11_4 C 0.9105(2) 0.3860(2) 0.4873(3)
H5_4 H 0.9192 0.3757 0.5412
H6_4 H 0.9212 0.3464 0.4661
H7_4 H 0.8615 0.3984 0.4497
C12_4 C 0.9418(2) 0.6382(2) 0.4579(3)
H8_4 H 0.8972 0.6390 0.4538
H9_4 H 0.9347 0.6523 0.4058
H10_4 H 0.9746 0.6690 0.5012
N2_4 N 0.61186(13) 0.59359(13) 0.06566(16)
C29_4 C 0.56913(15) 0.61224(15) 0.0915(2)
H21_4 H 0.5590 0.6575 0.0969
C30_4 C 0.61288(18) 0.52325(17) 0.0656(2)
H22_4 H 0.6375 0.4954 0.0502
C31_4 C 0.57143(17) 0.50238(16) 0.0922(2)
H23_4 H 0.5628 0.4569 0.0989
C32_4 C 0.65069(16) 0.63887(16) 0.0455(2)
C33_4 C 0.6720(2) 0.70098(19) 0.0822(3)
H24_4 H 0.6609 0.7146 0.1205
C34_4 C 0.7102(2) 0.74456(19) 0.0636(3)
H25_4 H 0.7236 0.7874 0.0891
C35_4 C 0.72863(16) 0.72670(17) 0.0091(2)
C65_4 C 0.7933(2) 0.8368(2) 0.0272(3)
H53_4 H 0.7815 0.8509 0.0647
C66_4 C 0.8325(2) 0.8808(2) 0.0099(3)
H54_4 H 0.8471 0.9234 0.0361
O4_2 O 0.00680(11) 0.83771(9) 0.81306(13)
C13_6 C -0.0000 0.07079(19) 0.7500
C14_6 C -0.0000 0.1475(2) 0.7500
C17_6 C -0.0000 0.2910(2) 0.7500
C18_6 C -0.0000 0.3680(2) 0.7500
C21_6 C 0.0000 0.5109(2) 0.7500
C24_6 C -0.0000 0.5874(2) 0.7500
C25_4 C 0.00490(19) 0.62441(15) 0.8151(2)
H19_4 H 0.0081 0.6010 0.8595
C26_4 C 0.00507(18) 0.69507(15) 0.8152(2)
H20_4 H 0.0087 0.7186 0.8596
C27_6 C -0.0000 0.73168(19) 0.7500
C28_6 C -0.0000 0.80868(19) 0.7500
O7_4 O 0.00663(11) 0.04120(10) 0.81270(14)
C50_4 C 0.0038(2) 0.18387(16) 0.8152(2)
H38_4 H 0.0063 0.1604 0.8591
C51_4 C 0.0039(2) 0.25424(17) 0.8143(2)
H39_4 H 0.0066 0.2780 0.8581
C52_4 C 0.06148(18) 0.40360(15) 0.7688(2)
C53_4 C 0.06103(17) 0.47536(15) 0.7672(2)
C54_4 C 0.1284(2) 0.36460(18) 0.7928(3)
H40_4 H 0.1661 0.3776 0.8481
H41_4 H 0.1198 0.3162 0.7913
H42_4 H 0.1418 0.3753 0.7541
C55_4 C 0.1259(2) 0.51445(18) 0.7843(3)
H43_4 H 0.1244 0.5192 0.7335
H44_4 H 0.1263 0.5591 0.8058
H45_4 H 0.1680 0.4899 0.8246
loop_
_geom_bond_atom_site_label_1
_geom_bond_atom_site_label_2
_geom_bond_site_symmetry_1
_geom_bond_site_symmetry_2
O9 Zn1 1_555 1_555
O10 Zn1 1_555 1_555
O12 Zn1 1_555 1_555
C13 O3 1_555 1_555
C14 C13 1_555 1_555
C15 C14 1_555 1_555
H11 C15 1_555 1_555
C16 C15 1_555 1_555
H12 C16 1_555 1_555
C17 C16 1_555 1_555
C18 C17 1_555 1_555
C19 C18 1_555 1_555
C20 C19 1_555 1_555
C21 C20 1_555 1_555
C22 C19 1_555 1_555
H13 C22 1_555 1_555
H14 C22 1_555 1_555
H15 C22 1_555 1_555
C23 C20 1_555 1_555
H16 C23 1_555 1_555
H17 C23 1_555 1_555
H18 C23 1_555 1_555
C24 C21 1_555 1_555
C28 C27 1_555 1_555
O12 C28 1_555 1_555
C56 C24 1_555 1_555
H46 C56 1_555 1_555
C57 C27 1_555 1_555
H47 C57 1_555 1_555
C56 C57 1_555 1_555
O9 C1 1_555 1_555
O10 C1 1_555 1_555
C1 C2 1_555 1_555
C2 C3 1_555 1_555
C3 H1 1_555 1_555
C4 C3 1_555 1_555
H2 C4 1_555 1_555
C5 C4 1_555 1_555
C6 C5 1_555 1_555
H3 C6 1_555 1_555
C7 C2 1_555 1_555
H4 C7 1_555 1_555
C8 C5 1_555 1_555
C10 C8 1_555 1_555
C12 C10 1_555 1_555
H8 C12 1_555 1_555
H9 C12 1_555 1_555
H10 C12 1_555 1_555
N2 C29 1_555 1_555
C29 N5 1_555 1_555
H21 C29 1_555 1_555
C30 N2 1_555 1_555
C31 N5 1_555 1_555
C32 N2 1_555 1_555
C33 C32 1_555 1_555
H24 C33 1_555 1_555
C34 C33 1_555 1_555
H25 C34 1_555 1_555
C35 C34 1_555 1_555
C46 C10 1_555 1_555
C48 C46 1_555 1_555
H32 C48 1_555 1_555
H33 C48 1_555 1_555
H34 C48 1_555 1_555
H53 C65 1_555 1_555
H54 C66 1_555 1_555
C6 C7 1_555 1_555
C30 C31 1_555 1_555
C65 C66 1_555 1_555
C11 C9 1_555 1_555
H5 C11 1_555 1_555
H6 C11 1_555 1_555
H7 C11 1_555 1_555
O5 C38 1_555 1_555
O6 C38 1_555 1_555
C38 C39 1_555 1_555
C39 C40 1_555 1_555
C40 H28 1_555 1_555
C41 C40 1_555 1_555
H29 C41 1_555 1_555
C42 C41 1_555 1_555
C43 C42 1_555 1_555
H30 C43 1_555 1_555
C44 C39 1_555 1_555
H31 C44 1_555 1_555
C45 C42 1_555 1_555
C47 C9 1_555 1_555
C49 C47 1_555 1_555
H35 C49 1_555 1_555
H36 C49 1_555 1_555
H37 C49 1_555 1_555
Zn5 O5 1_555 1_555
O6 Zn5 1_555 1_555
C43 C44 1_555 1_555
C45 C47 1_555 1_555
H3_2 C6_2 1_555 1_555
H30_2 C43_2 1_555 1_555
H26 C36 1_555 1_555
H27 C37 1_555 1_555
N3 C58 1_555 1_555
N4 C58 1_555 1_555
C58 H48 1_555 1_555
C59 N4 1_555 1_555
C60 N3 1_555 1_555
C61 N4 1_555 1_555
C62 C61 1_555 1_555
H51 C62 1_555 1_555
C63 C62 1_555 1_555
H52 C63 1_555 1_555
C36 C37 1_555 1_555
C59 C60 1_555 1_555
C63 C64 1_555 1_555
C13_2 O3_2 1_555 1_555
C14_2 C13_2 1_555 1_555
C15_2 C14_2 1_555 1_555
H11_2 C15_2 1_555 1_555
C16_2 C15_2 1_555 1_555
H12_2 C16_2 1_555 1_555
C17_2 C16_2 1_555 1_555
C18_2 C17_2 1_555 1_555
C19_2 C18_2 1_555 1_555
C20_2 C19_2 1_555 1_555
C21_2 C20_2 1_555 1_555
C22_2 C19_2 1_555 1_555
H13_2 C22_2 1_555 1_555
H14_2 C22_2 1_555 1_555
H15_2 C22_2 1_555 1_555
C23_2 C20_2 1_555 1_555
H16_2 C23_2 1_555 1_555
H17_2 C23_2 1_555 1_555
H18_2 C23_2 1_555 1_555
C24_2 C21_2 1_555 1_555
C28_2 C27_2 1_555 1_555
O8 C28_2 1_555 1_555
C56_2 C24_2 1_555 1_555
H46_2 C56_2 1_555 1_555
C57_2 C27_2 1_555 1_555
H47_2 C57_2 1_555 1_555
Zn5 O8 1_555 1_555
C56_2 C57_2 1_555 1_555
O1 C1_2 1_555 1_555
O2 C1_2 1_555 1_555
C1_2 C2_2 1_555 1_555
C2_2 C3_2 1_555 1_555
C3_2 H1_2 1_555 1_555
C4_2 C3_2 1_555 1_555
H2_2 C4_2 1_555 1_555
C5_2 C4_2 1_555 1_555
C7_2 C2_2 1_555 1_555
C8_2 C5_2 1_555 1_555
C10_2 C8_2 1_555 1_555
C12_2 C10_2 1_555 1_555
H8_2 C12_2 1_555 1_555
H9_2 C12_2 1_555 1_555
N2_2 C29_2 1_555 1_555
C29_2 N1 1_555 1_555
H21_2 C29_2 1_555 1_555
C30_2 N2_2 1_555 1_555
C31_2 N1 1_555 1_555
C32_2 N2_2 1_555 1_555
C33_2 C32_2 1_555 1_555
H24_2 C33_2 1_555 1_555
C34_2 C33_2 1_555 1_555
H25_2 C34_2 1_555 1_555
C35_2 C34_2 1_555 1_555
C36_2 C35_2 1_555 1_555
H26_2 C36_2 1_555 1_555
C37_2 C32_2 1_555 1_555
H27_2 C37_2 1_555 1_555
N3_2 C58_2 1_555 1_555
N4_2 C58_2 1_555 1_555
C58_2 H48_2 1_555 1_555
C59_2 N4_2 1_555 1_555
H49_2 C59_2 1_555 1_555
C60_2 N3_2 1_555 1_555
H50_2 C60_2 1_555 1_555
C61_2 N4_2 1_555 1_555
C62_2 C61_2 1_555 1_555
H51_2 C62_2 1_555 1_555
C63_2 C62_2 1_555 1_555
H52_2 C63_2 1_555 1_555
C64_2 C35_2 1_555 1_555
C65_2 C64_2 1_555 1_555
H53_2 C65_2 1_555 1_555
C66_2 C61_2 1_555 1_555
H54_2 C66_2 1_555 1_555
Zn2 O1 1_555 1_555
Zn7 N3_2 1_555 1_555
O11 Zn2 1_555 1_555
O2 Zn2 1_555 1_555
C30_2 C31_2 1_555 1_555
C36_2 C37_2 1_555 1_555
C59_2 C60_2 1_555 1_555
C63_2 C64_2 1_555 1_555
C65_2 C66_2 1_555 1_555
C11_2 C9_2 1_555 1_555
H6_2 C11_2 1_555 1_555
H7_2 C11_2 1_555 1_555
O11 C28_3 1_555 1_555
C14_3 C13_3 1_555 1_555
C18_3 C17_3 1_555 1_555
C24_3 C21_3 1_555 1_555
C25 C24_3 1_555 1_555
H19 C25 1_555 1_555
C26 C25 1_555 1_555
H20 C26 1_555 1_555
C27_3 C26 1_555 1_555
C28_3 C27_3 1_555 1_555
H30_3 C43_3 1_555 1_555
O7 C13_3 1_555 1_555
C50 C14_3 1_555 1_555
H38 C50 1_555 1_555
C51 C17_3 1_555 1_555
H39 C51 1_555 1_555
C52 C18_3 1_555 1_555
C53 C21_3 1_555 1_555
C54 C52 1_555 1_555
H40 C54 1_555 1_555
H41 C54 1_555 1_555
H42 C54 1_555 1_555
C55 C53 1_555 1_555
H43 C55 1_555 1_555
H44 C55 1_555 1_555
H45 C55 1_555 1_555
C50 C51 1_555 1_555
C52 C53 1_555 1_555
H26_3 C36_3 1_555 1_555
H27_3 C37_3 1_555 1_555
N3_3 C58_3 1_555 1_555
N4_3 C58_3 1_555 1_555
C58_3 H48_3 1_555 1_555
C59_3 N4_3 1_555 1_555
H49_3 C59_3 1_555 1_555
C60_3 N3_3 1_555 1_555
H50_3 C60_3 1_555 1_555
C61_3 N4_3 1_555 1_555
C62_3 C61_3 1_555 1_555
H51_3 C62_3 1_555 1_555
C63_3 C62_3 1_555 1_555
H52_3 C63_3 1_555 1_555
Zn7_2 N3_3 1_555 1_555
C36_3 C37_3 1_555 1_555
C59_3 C60_3 1_555 1_555
C63_3 C64_3 1_555 1_555
O5_2 C38_2 1_555 1_555
O6_2 C38_2 1_555 1_555
C38_2 C39_2 1_555 1_555
C39_2 C40_2 1_555 1_555
C40_2 H28_2 1_555 1_555
C41_2 C40_2 1_555 1_555
H29_2 C41_2 1_555 1_555
C42_2 C41_2 1_555 1_555
C44_2 C39_2 1_555 1_555
C45_2 C42_2 1_555 1_555
C48_2 C46_2 1_555 1_555
H33_2 C48_2 1_555 1_555
H34_2 C48_2 1_555 1_555
C49_2 C47_2 1_555 1_555
H35_2 C49_2 1_555 1_555
H36_2 C49_2 1_555 1_555
Zn7 O5_2 1_555 1_555
Zn7_2 O5_2 1_555 1_555
O6_2 Zn7_2 1_555 1_555
C45_2 C46_2 1_555 1_555
C45_2 C47_2 1_555 1_555
O5_3 C38_3 1_555 1_555
O6_3 C38_3 1_555 1_555
C38_3 C39_3 1_555 1_555
C39_3 C40_3 1_555 1_555
C40_3 H28_3 1_555 1_555
C41_3 C40_3 1_555 1_555
H29_3 C41_3 1_555 1_555
C42_3 C41_3 1_555 1_555
C43_4 C42_3 1_555 1_555
H30_4 C43_4 1_555 1_555
C44_3 C39_3 1_555 1_555
H31_4 C44_3 1_555 1_555
C45_3 C42_3 1_555 1_555
C48_3 C46_3 1_555 1_555
H32_4 C48_3 1_555 1_555
H33_3 C48_3 1_555 1_555
H34_3 C48_3 1_555 1_555
C49_3 C47_3 1_555 1_555
H35_3 C49_3 1_555 1_555
H36_3 C49_3 1_555 1_555
H37_4 C49_3 1_555 1_555
Zn7_2 O5_3 1_555 1_555
Zn7 O5_3 1_555 1_555
O6_3 Zn7 1_555 1_555
C43_4 C44_3 1_555 1_555
C45_3 C46_3 1_555 1_555
C45_3 C47_3 1_555 1_555
O4 C28_4 1_555 1_555
H16_3 C23_3 1_555 1_555
H17_3 C23_3 1_555 1_555
C24_4 C21_4 1_555 1_555
C25_2 C24_4 1_555 1_555
H19_2 C25_2 1_555 1_555
C26_2 C25_2 1_555 1_555
H20_2 C26_2 1_555 1_555
C27_4 C26_2 1_555 1_555
C28_4 C27_4 1_555 1_555
O8_2 C28_4 1_555 1_555
H43_2 C55_2 1_555 1_555
H44_2 C55_2 1_555 1_555
C56_3 C24_4 1_555 1_555
H46_3 C56_3 1_555 1_555
C57_3 C27_4 1_555 1_555
H47_3 C57_3 1_555 1_555
Zn7 O8_2 1_555 1_555
Zn7_2 O4 1_555 1_555
C56_3 C57_3 1_555 1_555
O3_3 Zn7 1_555 1_555
C13_4 O3_3 1_555 1_555
C14_4 C13_4 1_555 1_555
C15_3 C14_4 1_555 1_555
H11_3 C15_3 1_555 1_555
C16_3 C15_3 1_555 1_555
H12_3 C16_3 1_555 1_555
C17_4 C16_3 1_555 1_555
C18_4 C17_4 1_555 1_555
C19_3 C18_4 1_555 1_555
C20_3 C19_3 1_555 1_555
C22_3 C19_3 1_555 1_555
H13_3 C22_3 1_555 1_555
H14_3 C22_3 1_555 1_555
H15_3 C22_3 1_555 1_555
O7_2 C13_4 1_555 1_555
C50_2 C14_4 1_555 1_555
H38_2 C50_2 1_555 1_555
C51_2 C17_4 1_555 1_555
H39_2 C51_2 1_555 1_555
C52_2 C18_4 1_555 1_555
C54_2 C52_2 1_555 1_555
H40_2 C54_2 1_555 1_555
H41_2 C54_2 1_555 1_555
H42_2 C54_2 1_555 1_555
O7_2 Zn7_2 1_555 1_555
C50_2 C51_2 1_555 1_555
C52_2 C53_2 1_555 1_555
H3_3 C6_3 1_555 1_555
C48_4 C46_4 1_555 1_555
H33_4 C48_4 1_555 1_555
H34_4 C48_4 1_555 1_555
O5_4 C38_4 1_555 1_555
O6_4 C38_4 1_555 1_555
C38_4 C39_4 1_555 1_555
C39_4 C40_4 1_555 1_555
C40_4 H28_4 1_555 1_555
C41_4 C40_4 1_555 1_555
H29_4 C41_4 1_555 1_555
C42_4 C41_4 1_555 1_555
C44_4 C39_4 1_555 1_555
C45_4 C42_4 1_555 1_555
C49_4 C47_4 1_555 1_555
H35_4 C49_4 1_555 1_555
H36_4 C49_4 1_555 1_555
Zn6 O5_4 1_555 1_555
O6_4 Zn6 1_555 1_555
C45_4 C47_4 1_555 1_555
Zn1_2 O1_2 1_555 1_555
O1_2 C1_3 1_555 1_555
O2_2 C1_3 1_555 1_555
C1_3 C2_3 1_555 1_555
C2_3 C3_3 1_555 1_555
C3_3 H1_3 1_555 1_555
C4_3 C3_3 1_555 1_555
H2_3 C4_3 1_555 1_555
C5_3 C4_3 1_555 1_555
C7_3 C2_3 1_555 1_555
C8_3 C5_3 1_555 1_555
C9_3 C8_3 1_555 1_555
C10_3 C8_3 1_555 1_555
C11_3 C9_3 1_555 1_555
H6_3 C11_3 1_555 1_555
H7_3 C11_3 1_555 1_555
C12_3 C10_3 1_555 1_555
H8_3 C12_3 1_555 1_555
H9_3 C12_3 1_555 1_555
O3_4 Zn1_2 1_555 1_555
C13_5 O3_4 1_555 1_555
C14_5 C13_5 1_555 1_555
C15_4 C14_5 1_555 1_555
H11_4 C15_4 1_555 1_555
C16_4 C15_4 1_555 1_555
H12_4 C16_4 1_555 1_555
C17_5 C16_4 1_555 1_555
C18_5 C17_5 1_555 1_555
C19_4 C18_5 1_555 1_555
C20_4 C19_4 1_555 1_555
C22_4 C19_4 1_555 1_555
H13_4 C22_4 1_555 1_555
H14_4 C22_4 1_555 1_555
H15_4 C22_4 1_555 1_555
N1_2 Zn1_2 1_555 1_555
N2_3 C29_3 1_555 1_555
C29_3 N1_2 1_555 1_555
H21_3 C29_3 1_555 1_555
C30_3 N2_3 1_555 1_555
H22_3 C30_3 1_555 1_555
C31_3 N1_2 1_555 1_555
H23_3 C31_3 1_555 1_555
C32_3 N2_3 1_555 1_555
C33_3 C32_3 1_555 1_555
H24_3 C33_3 1_555 1_555
C34_3 C33_3 1_555 1_555
H25_3 C34_3 1_555 1_555
C35_3 C34_3 1_555 1_555
C36_4 C35_3 1_555 1_555
H26_4 C36_4 1_555 1_555
C37_4 C32_3 1_555 1_555
H27_4 C37_4 1_555 1_555
O7_3 C13_5 1_555 1_555
C50_3 C14_5 1_555 1_555
H38_3 C50_3 1_555 1_555
C51_3 C17_5 1_555 1_555
H39_3 C51_3 1_555 1_555
C52_3 C18_5 1_555 1_555
C54_3 C52_3 1_555 1_555
H40_3 C54_3 1_555 1_555
H41_3 C54_3 1_555 1_555
H42_3 C54_3 1_555 1_555
N3_4 C58_4 1_555 1_555
N4_4 C58_4 1_555 1_555
C58_4 H48_4 1_555 1_555
C59_4 N4_4 1_555 1_555
C60_4 N3_4 1_555 1_555
C61_4 N4_4 1_555 1_555
C62_4 C61_4 1_555 1_555
H51_4 C62_4 1_555 1_555
C63_4 C62_4 1_555 1_555
H52_4 C63_4 1_555 1_555
C64_4 C35_3 1_555 1_555
C65_3 C64_4 1_555 1_555
H53_3 C65_3 1_555 1_555
C66_3 C61_4 1_555 1_555
H54_3 C66_3 1_555 1_555
Zn2_2 O1_2 1_555 1_555
O9_2 Zn1_2 1_555 1_555
O10_2 Zn1_2 1_555 1_555
O11_2 Zn2_2 1_555 1_555
O12_2 Zn1_2 1_555 1_555
N5_2 Zn2_2 1_555 1_555
O2_2 Zn2_2 1_555 1_555
C30_3 C31_3 1_555 1_555
C36_4 C37_4 1_555 1_555
O7_3 Zn2_2 1_555 1_555
C50_3 C51_3 1_555 1_555
C52_3 C53_3 1_555 1_555
C59_4 C60_4 1_555 1_555
C63_4 C64_4 1_555 1_555
C65_3 C66_3 1_555 1_555
Zn2_2 O9_2 1_555 1_555
O11_2 C28_5 1_555 1_555
H16_4 C23_4 1_555 1_555
H17_4 C23_4 1_555 1_555
C24_5 C21_5 1_555 1_555
C25_3 C24_5 1_555 1_555
H19_3 C25_3 1_555 1_555
C26_3 C25_3 1_555 1_555
H20_3 C26_3 1_555 1_555
C27_5 C26_3 1_555 1_555
C28_5 C27_5 1_555 1_555
O12_2 C28_5 1_555 1_555
H43_3 C55_3 1_555 1_555
H44_3 C55_3 1_555 1_555
C56_4 C24_5 1_555 1_555
H46_4 C56_4 1_555 1_555
C57_4 C27_5 1_555 1_555
H47_4 C57_4 1_555 1_555
C56_4 C57_4 1_555 1_555
O9_2 C1_4 1_555 1_555
O10_2 C1_4 1_555 1_555
C1_4 C2_4 1_555 1_555
C2_4 C3_4 1_555 1_555
C3_4 H1_4 1_555 1_555
C4_4 C3_4 1_555 1_555
H2_4 C4_4 1_555 1_555
C5_4 C4_4 1_555 1_555
C6_4 C5_4 1_555 1_555
H3_4 C6_4 1_555 1_555
C7_4 C2_4 1_555 1_555
H4_4 C7_4 1_555 1_555
C8_4 C5_4 1_555 1_555
C9_4 C8_4 1_555 1_555
C10_4 C8_4 1_555 1_555
C11_4 C9_4 1_555 1_555
H5_4 C11_4 1_555 1_555
H6_4 C11_4 1_555 1_555
H7_4 C11_4 1_555 1_555
C12_4 C10_4 1_555 1_555
H8_4 C12_4 1_555 1_555
H9_4 C12_4 1_555 1_555
H10_4 C12_4 1_555 1_555
N2_4 C29_4 1_555 1_555
C29_4 N5_2 1_555 1_555
H21_4 C29_4 1_555 1_555
C30_4 N2_4 1_555 1_555
H22_4 C30_4 1_555 1_555
C31_4 N5_2 1_555 1_555
H23_4 C31_4 1_555 1_555
C32_4 N2_4 1_555 1_555
C33_4 C32_4 1_555 1_555
H24_4 C33_4 1_555 1_555
C34_4 C33_4 1_555 1_555
H25_4 C34_4 1_555 1_555
C35_4 C34_4 1_555 1_555
H53_4 C65_4 1_555 1_555
H54_4 C66_4 1_555 1_555
C6_4 C7_4 1_555 1_555
C30_4 C31_4 1_555 1_555
C65_4 C66_4 1_555 1_555
O4_2 C28_6 1_555 1_555
C14_6 C13_6 1_555 1_555
C18_6 C17_6 1_555 1_555
C24_6 C21_6 1_555 1_555
C25_4 C24_6 1_555 1_555
H19_4 C25_4 1_555 1_555
C26_4 C25_4 1_555 1_555
H20_4 C26_4 1_555 1_555
C27_6 C26_4 1_555 1_555
C28_6 C27_6 1_555 1_555
O7_4 C13_6 1_555 1_555
C50_4 C14_6 1_555 1_555
H38_4 C50_4 1_555 1_555
C51_4 C17_6 1_555 1_555
H39_4 C51_4 1_555 1_555
C52_4 C18_6 1_555 1_555
C53_4 C21_6 1_555 1_555
C54_4 C52_4 1_555 1_555
H40_4 C54_4 1_555 1_555
H41_4 C54_4 1_555 1_555
H42_4 C54_4 1_555 1_555
C55_4 C53_4 1_555 1_555
H43_4 C55_4 1_555 1_555
H44_4 C55_4 1_555 1_555
H45_4 C55_4 1_555 1_555
Zn6 O4_2 1_555 1_555
C50_4 C51_4 1_555 1_555
C52_4 C53_4 1_555 1_555

#END
