
###############################################################################
#
# This file contains modified crystal structure data generated from the
# MOF subset of the Cambridge Structural Database (CSD) v543 
# hosted by the Cambridge Crystallographic Data Centre (CCDC).
#
# This work is licensed under the Creative Commons
# Attribution-NonCommercial-ShareAlike 4.0 International License.
# To view a copy of this license, visit
# http://creativecommons.org/licenses/by-nc-sa/4.0/
# or send a letter to
# Creative Commons, PO Box 1866, Mountain View, CA 94042, USA.
#
# CIF created using the CSD Python API on 29 September 2022
# The structure has been converted into the P1 space group
# The structure has a 3D framework
# The original CSD entry QUGKAH is in the monoclinic crystal system
# The framework has been calculated to contain at least 10.0% void space
# The void calculation uses a probe of radius 1.32A, grid spacing 0.4
#
###############################################################################

data_QUGKAH
_chemical_formula_moiety         '(C280 H216 Co5 N16 O32)n'
_symmetry_cell_setting           triclinic
_symmetry_space_group_name_H-M   'P 1'
_symmetry_Int_Tables_number      1
_space_group_name_Hall           'P 1'
loop_
_symmetry_equiv_pos_site_id
_symmetry_equiv_pos_as_xyz
1 x,y,z
_cell_length_a                   22.4745(15)
_cell_length_b                   19.5176(10)
_cell_length_c                   19.0695(14)
_cell_angle_alpha                90
_cell_angle_beta                 123.393(10)
_cell_angle_gamma                90
_cell_volume                     6983.9
loop_
_atom_site_label
_atom_site_type_symbol
_atom_site_fract_x
_atom_site_fract_y
_atom_site_fract_z
Co1 Co 0.01228(3) 0.06304(3) 0.33387(4)
O9 O 0.09156(17) 0.06368(18) 0.2935(2)
O10 O 0.12154(17) 0.05812(18) 0.4244(2)
O12 O 0.00604(17) 0.16495(16) 0.3134(2)
N5 N 0.0455(2) 0.0612(2) 0.1127(2)
O3 O 0.00662(18) 0.96093(17) 0.3129(2)
C13 C 0.0000 0.9313(4) 0.2500
C14 C 0.0000 0.8547(4) 0.2500
C15 C 0.0056(3) 0.8176(3) 0.3160(4)
H11 H 0.0091 0.8407 0.3609
C16 C 0.0058(4) 0.7478(3) 0.3149(4)
H12 H 0.0101 0.7242 0.3598
C17 C 0.0000 0.7111(4) 0.2500
C18 C 0.0000 0.6346(4) 0.2500
C19 C 0.0609(3) 0.5995(3) 0.2674(3)
C20 C 0.0611(3) 0.5274(3) 0.2658(3)
C21 C 0.0000 0.4918(4) 0.2500
C22 C 0.1281(3) 0.6370(3) 0.2906(4)
H13 H 0.1683 0.6159 0.3391
H14 H 0.1247 0.6840 0.3029
H15 H 0.1341 0.6350 0.2445
C23 C 0.1252(3) 0.4882(3) 0.2824(4)
H16 H 0.1230 0.4830 0.2310
H17 H 0.1258 0.4438 0.3045
H18 H 0.1677 0.5127 0.3225
C24 C 0.0000 0.4151(4) 0.2500
C27 C 0.0000 0.2709(4) 0.2500
C28 C 0.0000 0.1947(4) 0.2500
C56 C 0.0039(3) 0.3784(3) 0.3149(3)
H46 H 0.0066 0.4018 0.3590
C57 C 0.0039(3) 0.3075(3) 0.3147(3)
H47 H 0.0066 0.2840 0.3589
Co5 Co 0.98772(3) 0.93696(3) 0.66613(4)
C1 C 0.1383(3) 0.0575(3) 0.3709(3)
C2 C 0.2138(3) 0.0466(3) 0.3981(3)
C3 C 0.2667(3) 0.0398(4) 0.4810(3)
H1 H 0.2559 0.0429 0.5215
C4 C 0.3368(3) 0.0283(4) 0.5054(3)
H2 H 0.3723 0.0231 0.5621
C5 C 0.3542(3) 0.0246(3) 0.4465(3)
C6 C 0.3012(3) 0.0332(4) 0.3636(4)
H3 H 0.3124 0.0327 0.3233
C7 C 0.2313(3) 0.0426(4) 0.3390(4)
H4 H 0.1956 0.0461 0.2822
C8 C 0.4296(3) 0.0122(3) 0.4736(3)
C10 C 0.4719(3) 0.0668(3) 0.4786(4)
C12 C 0.4419(4) 0.1388(4) 0.4579(5)
H8 H 0.4027 0.1419 0.4647
H9 H 0.4256 0.1494 0.4008
H10 H 0.4783 0.1708 0.4949
N2 N 0.1138(2) 0.0950(2) 0.0702(3)
C29 C 0.0718(3) 0.1141(3) 0.0971(3)
H21 H 0.0627 0.1594 0.1035
C30 C 0.1130(3) 0.0243(3) 0.0688(4)
C31 C 0.0713(3) 0.0048(3) 0.0951(3)
C32 C 0.1526(3) 0.1400(3) 0.0489(3)
C35 C 0.2287(3) 0.2266(3) 0.0098(3)
C36 C 0.2098(4) 0.2457(3) 0.0625(5)
H26 H 0.2224 0.2891 0.0863
C37 C 0.1721(4) 0.2030(3) 0.0826(5)
H27 H 0.1602 0.2180 0.1197
C46 C 0.5433(3) 0.0547(3) 0.5060(4)
C48 C 0.5902(3) 0.1128(4) 0.5129(5)
H32 H 0.5766 0.1267 0.4577
H33 H 0.5849 0.1507 0.5411
H34 H 0.6390 0.0980 0.5443
C62 C 0.3310(4) 0.3810(4) 0.0056(4)
H51 H 0.3452 0.4241 0.0305
C63 C 0.2922(4) 0.3373(4) 0.0245(4)
H52 H 0.2803 0.3523 0.0616
C9 C 0.4567(3) 0.9453(3) 0.4940(4)
C11 C 0.4098(3) 0.8872(4) 0.4871(5)
H5 H 0.4234 0.8733 0.5423
H6 H 0.4151 0.8493 0.4589
H7 H 0.3610 0.9020 0.4557
H22 H 0.1368 0.9959 0.0529
H23 H 0.0613 0.9596 0.1006
O5 O 0.90844(17) 0.93632(18) 0.7065(2)
O6 O 0.87846(17) 0.94188(18) 0.5756(2)
C38 C 0.8617(3) 0.9425(3) 0.6291(3)
C39 C 0.7862(3) 0.9534(3) 0.6019(3)
C40 C 0.7333(3) 0.9602(4) 0.5190(3)
H28 H 0.7441 0.9571 0.4785
C41 C 0.6632(3) 0.9717(4) 0.4946(3)
H29 H 0.6277 0.9769 0.4379
C42 C 0.6458(3) 0.9754(3) 0.5535(3)
C43 C 0.6988(3) 0.9668(4) 0.6364(4)
H30 H 0.6876 0.9673 0.6767
C44 C 0.7687(3) 0.9574(4) 0.6610(4)
H31 H 0.8044 0.9539 0.7178
C45 C 0.5704(3) 0.9878(3) 0.5264(3)
C47 C 0.5281(3) 0.9332(3) 0.5214(4)
C49 C 0.5581(4) 0.8612(4) 0.5421(5)
H35 H 0.5973 0.8581 0.5353
H36 H 0.5744 0.8506 0.5992
H37 H 0.5217 0.8292 0.5051
H1_2 H 0.2441 0.5429 0.9785
C4_2 C 0.1632(3) 0.5283(4) 0.9946(3)
H2_2 H 0.1277 0.5231 0.9379
H5_2 H 0.0766 0.3733 0.9577
H28_2 H 0.7559 0.4571 0.0215
C41_2 C 0.8368(3) 0.4717(4) 0.0054(3)
H29_2 H 0.8723 0.4769 0.0621
H32_2 H 0.9234 0.6267 0.0423
H49 H 0.8632 0.0041 0.9471
H50 H 0.9387 0.0404 0.8994
C33 C 0.6690(4) 0.6190(4) 0.9944(4)
H24 H 0.6548 0.5759 0.9695
C34 C 0.7078(4) 0.6627(4) 0.9755(4)
H25 H 0.7197 0.6477 0.9384
N3 N 0.9545(2) 0.9388(2) 0.8873(2)
N4 N 0.8862(2) 0.9050(2) 0.9298(3)
C58 C 0.9282(3) 0.8859(3) 0.9029(3)
H48 H 0.9373 0.8406 0.8965
C59 C 0.8870(3) 0.9757(3) 0.9312(4)
C60 C 0.9287(3) 0.9952(3) 0.9049(3)
C61 C 0.8474(3) 0.8600(3) 0.9511(3)
C64 C 0.7713(3) 0.7734(3) 0.9902(3)
C65 C 0.7902(4) 0.7543(3) 0.9375(5)
H53 H 0.7776 0.7109 0.9137
C66 C 0.8279(4) 0.7970(3) 0.9174(5)
H54 H 0.8398 0.7820 0.8803
O3_2 O 0.99338(18) 0.03907(17) 0.6871(2)
C13_2 C 1.0000 0.0687(4) 0.7500
C14_2 C 1.0000 0.1453(4) 0.7500
C15_2 C 0.9944(3) 0.1824(3) 0.6840(4)
H11_2 H 0.9909 0.1593 0.6391
C16_2 C 0.9942(4) 0.2522(3) 0.6851(4)
H12_2 H 0.9899 0.2758 0.6402
C17_2 C 1.0000 0.2889(4) 0.7500
C18_2 C 1.0000 0.3654(4) 0.7500
C19_2 C 0.9391(3) 0.4005(3) 0.7326(3)
C20_2 C 0.9389(3) 0.4726(3) 0.7342(3)
C21_2 C 1.0000 0.5082(4) 0.7500
C22_2 C 0.8719(3) 0.3630(3) 0.7094(4)
H13_2 H 0.8317 0.3841 0.6609
H14_2 H 0.8753 0.3160 0.6971
H15_2 H 0.8659 0.3650 0.7555
C23_2 C 0.8748(3) 0.5118(3) 0.7176(4)
H16_2 H 0.8770 0.5170 0.7690
H17_2 H 0.8742 0.5562 0.6955
H18_2 H 0.8323 0.4873 0.6775
C24_2 C 1.0000 0.5849(4) 0.7500
C27_2 C 1.0000 0.7291(4) 0.7500
C28_2 C 1.0000 0.8053(4) 0.7500
O8 O 0.99396(17) 0.83505(16) 0.6866(2)
C56_2 C 0.9961(3) 0.6216(3) 0.6851(3)
H46_2 H 0.9934 0.5982 0.6410
C57_2 C 0.9961(3) 0.6925(3) 0.6853(3)
H47_2 H 0.9934 0.7160 0.6411
O1 O 0.90844(17) 0.06368(18) 0.2065(2)
O2 O 0.87846(17) 0.05812(18) 0.0756(2)
C1_2 C 0.8617(3) 0.0575(3) 0.1291(3)
C2_2 C 0.7862(3) 0.0466(3) 0.1019(3)
C3_2 C 0.7333(3) 0.0398(4) 0.0190(3)
C5_2 C 0.6458(3) 0.0246(3) 0.0535(3)
C6_2 C 0.6988(3) 0.0332(4) 0.1364(4)
H3_2 H 0.6876 0.0327 0.1767
C7_2 C 0.7687(3) 0.0426(4) 0.1610(4)
H4_2 H 0.8044 0.0461 0.2178
C8_2 C 0.5704(3) 0.0122(3) 0.0264(3)
C10_2 C 0.5281(3) 0.0668(3) 0.0214(4)
C12_2 C 0.5581(4) 0.1388(4) 0.0421(5)
H8_2 H 0.5973 0.1419 0.0353
H9_2 H 0.5744 0.1494 0.0992
H10_2 H 0.5217 0.1708 0.0051
N1 N 0.9545(2) 0.0612(2) 0.3873(2)
N2_2 N 0.8862(2) 0.0950(2) 0.4298(3)
C29_2 C 0.9282(3) 0.1141(3) 0.4029(3)
H21_2 H 0.9373 0.1594 0.3965
C30_2 C 0.8870(3) 0.0243(3) 0.4312(4)
C31_2 C 0.9287(3) 0.0048(3) 0.4049(3)
C32_2 C 0.8474(3) 0.1400(3) 0.4511(3)
C33_2 C 0.8310(4) 0.1190(4) 0.5056(4)
H24_2 H 0.8452 0.0759 0.5305
C34_2 C 0.7922(4) 0.1627(4) 0.5245(4)
H25_2 H 0.7803 0.1477 0.5616
C35_2 C 0.7713(3) 0.2266(3) 0.4902(3)
C36_2 C 0.7902(4) 0.2457(3) 0.4375(5)
H26_2 H 0.7776 0.2891 0.4137
C37_2 C 0.8279(4) 0.2030(3) 0.4174(5)
H27_2 H 0.8398 0.2180 0.3803
H32_3 H 0.4234 0.1267 0.0423
N3_2 N 0.5455(2) 0.4388(2) 0.6127(2)
N4_2 N 0.6138(2) 0.4050(2) 0.5702(3)
C58_2 C 0.5718(3) 0.3859(3) 0.5971(3)
H48_2 H 0.5627 0.3406 0.6035
C59_2 C 0.6130(3) 0.4757(3) 0.5688(4)
H49_2 H 0.6368 0.5041 0.5529
C60_2 C 0.5713(3) 0.4952(3) 0.5951(3)
H50_2 H 0.5613 0.5404 0.6006
C61_2 C 0.6526(3) 0.3600(3) 0.5489(3)
C62_2 C 0.6690(4) 0.3810(4) 0.4944(4)
H51_2 H 0.6548 0.4241 0.4695
C63_2 C 0.7078(4) 0.3373(4) 0.4755(4)
H52_2 H 0.7197 0.3523 0.4384
C64_2 C 0.7287(3) 0.2734(3) 0.5098(3)
C65_2 C 0.7098(4) 0.2543(3) 0.5625(5)
H53_2 H 0.7224 0.2109 0.5863
C66_2 C 0.6721(4) 0.2970(3) 0.5826(5)
H54_2 H 0.6602 0.2820 0.6197
Co2 Co 0.98772(3) 0.06304(3) 0.16613(4)
Co7 Co 0.48772(3) 0.43696(3) 0.66613(4)
O11 O 0.99396(17) 0.16495(16) 0.1866(2)
C9_2 C 0.5433(3) 0.9453(3) 0.0060(4)
C11_2 C 0.5902(3) 0.8872(4) 0.0129(5)
H6_2 H 0.5849 0.8493 0.0411
H7_2 H 0.6390 0.9020 0.0443
C13_3 C 1.0000 0.9313(4) 0.2500
C14_3 C 1.0000 0.8547(4) 0.2500
C17_3 C 1.0000 0.7111(4) 0.2500
C18_3 C 1.0000 0.6346(4) 0.2500
C21_3 C 1.0000 0.4918(4) 0.2500
C24_3 C 1.0000 0.4151(4) 0.2500
C25 C 0.9961(3) 0.3784(3) 0.1851(3)
H19 H 0.9934 0.4018 0.1410
C26 C 0.9961(3) 0.3075(3) 0.1853(3)
H20 H 0.9934 0.2840 0.1411
C27_3 C 1.0000 0.2709(4) 0.2500
C28_3 C 1.0000 0.1947(4) 0.2500
H22_2 H 0.8632 0.9959 0.4471
H23_2 H 0.9387 0.9596 0.3994
H28_3 H 0.2559 0.9571 0.0215
C41_3 C 0.3368(3) 0.9717(4) 0.0054(3)
H29_3 H 0.3723 0.9769 0.0621
O7 O 0.99338(18) 0.96093(17) 0.1871(2)
C50 C 0.9944(3) 0.8176(3) 0.1840(4)
H38 H 0.9909 0.8407 0.1391
C51 C 0.9942(4) 0.7478(3) 0.1851(4)
H39 H 0.9899 0.7242 0.1402
C52 C 0.9391(3) 0.5995(3) 0.2326(3)
C53 C 0.9389(3) 0.5274(3) 0.2342(3)
C54 C 0.8719(3) 0.6370(3) 0.2094(4)
H40 H 0.8317 0.6159 0.1609
H41 H 0.8753 0.6840 0.1971
H42 H 0.8659 0.6350 0.2555
C55 C 0.8748(3) 0.4882(3) 0.2176(4)
H43 H 0.8770 0.4830 0.2690
H44 H 0.8742 0.4438 0.1955
H45 H 0.8323 0.5127 0.1775
C33_3 C 0.1690(4) 0.1190(4) 0.9944(4)
H24_3 H 0.1548 0.0759 0.9695
C34_3 C 0.2078(4) 0.1627(4) 0.9755(4)
H25_3 H 0.2197 0.1477 0.9384
N3_3 N 0.4545(2) 0.4388(2) 0.8873(2)
N4_3 N 0.3862(2) 0.4050(2) 0.9298(3)
C58_3 C 0.4282(3) 0.3859(3) 0.9029(3)
H48_3 H 0.4373 0.3406 0.8965
C59_3 C 0.3870(3) 0.4757(3) 0.9312(4)
H49_3 H 0.3632 0.5041 0.9471
C60_3 C 0.4287(3) 0.4952(3) 0.9049(3)
H50_3 H 0.4387 0.5404 0.8994
C61_3 C 0.3474(3) 0.3600(3) 0.9511(3)
C64_3 C 0.2713(3) 0.2734(3) 0.9902(3)
C65_3 C 0.2902(4) 0.2543(3) 0.9375(5)
H53_3 H 0.2776 0.2109 0.9137
C66_3 C 0.3279(4) 0.2970(3) 0.9174(5)
H54_3 H 0.3398 0.2820 0.8803
Co7_2 Co 0.51228(3) 0.43696(3) 0.83387(4)
O5_2 O 0.59156(17) 0.43632(18) 0.7935(2)
O6_2 O 0.62154(17) 0.44188(18) 0.9244(2)
C38_2 C 0.6383(3) 0.4425(3) 0.8709(3)
C39_2 C 0.7138(3) 0.4534(3) 0.8981(3)
C40_2 C 0.7667(3) 0.4602(4) 0.9810(3)
C42_2 C 0.8542(3) 0.4754(3) 0.9465(3)
C43_2 C 0.8012(3) 0.4668(4) 0.8636(4)
H30_2 H 0.8124 0.4673 0.8233
C44_2 C 0.7313(3) 0.4574(4) 0.8390(4)
H31_2 H 0.6956 0.4539 0.7822
C45_2 C 0.9296(3) 0.4878(3) 0.9736(3)
C46_2 C 0.9567(3) 0.5547(3) 0.9940(4)
C47_2 C 0.9719(3) 0.4332(3) 0.9786(4)
C48_2 C 0.9098(3) 0.6128(4) 0.9871(5)
H33_2 H 0.9151 0.6507 0.9589
H34_2 H 0.8610 0.5980 0.9557
C49_2 C 0.9419(4) 0.3612(4) 0.9579(5)
H35_2 H 0.9027 0.3581 0.9647
H36_2 H 0.9256 0.3506 0.9008
H37_2 H 0.9783 0.3292 0.9949
O5_3 O 0.40844(17) 0.43632(18) 0.7065(2)
O6_3 O 0.37846(17) 0.44188(18) 0.5756(2)
C38_3 C 0.3617(3) 0.4425(3) 0.6291(3)
C39_3 C 0.2862(3) 0.4534(3) 0.6019(3)
C40_3 C 0.2333(3) 0.4602(4) 0.5190(3)
H28_4 H 0.2441 0.4571 0.4785
C41_4 C 0.1632(3) 0.4717(4) 0.4946(3)
H29_4 H 0.1277 0.4769 0.4379
C42_3 C 0.1458(3) 0.4754(3) 0.5535(3)
C43_3 C 0.1988(3) 0.4668(4) 0.6364(4)
H30_3 H 0.1876 0.4673 0.6767
C44_3 C 0.2687(3) 0.4574(4) 0.6610(4)
H31_3 H 0.3044 0.4539 0.7178
C45_3 C 0.0704(3) 0.4878(3) 0.5264(3)
C46_3 C 0.0433(3) 0.5547(3) 0.5060(4)
C47_3 C 0.0281(3) 0.4332(3) 0.5214(4)
C48_3 C 0.0902(3) 0.6128(4) 0.5129(5)
H32_4 H 0.0766 0.6267 0.4577
H33_3 H 0.0849 0.6507 0.5411
H34_3 H 0.1390 0.5980 0.5443
C49_3 C 0.0581(4) 0.3612(4) 0.5421(5)
H35_3 H 0.0973 0.3581 0.5353
H36_3 H 0.0744 0.3506 0.5992
H37_3 H 0.0217 0.3292 0.5051
O4 O 0.50604(17) 0.33505(16) 0.8134(2)
C21_4 C 0.5000 0.0082(4) 0.7500
C23_3 C 0.3748(3) 0.0118(3) 0.7176(4)
H16_3 H 0.3770 0.0170 0.7690
H17_3 H 0.3742 0.0562 0.6955
C24_4 C 0.5000 0.0849(4) 0.7500
C25_2 C 0.5039(3) 0.1216(3) 0.8149(3)
H19_2 H 0.5066 0.0982 0.8590
C26_2 C 0.5039(3) 0.1925(3) 0.8147(3)
H20_2 H 0.5066 0.2160 0.8589
C27_4 C 0.5000 0.2291(4) 0.7500
C28_4 C 0.5000 0.3053(4) 0.7500
O8_2 O 0.49396(17) 0.33505(16) 0.6866(2)
C55_2 C 0.6252(3) 0.0118(3) 0.7824(4)
H43_2 H 0.6230 0.0170 0.7310
H44_2 H 0.6258 0.0562 0.8045
C56_3 C 0.4961(3) 0.1216(3) 0.6851(3)
H46_3 H 0.4934 0.0982 0.6410
C57_3 C 0.4961(3) 0.1925(3) 0.6853(3)
H47_3 H 0.4934 0.2160 0.6411
O3_3 O 0.49338(18) 0.53907(17) 0.6871(2)
C13_4 C 0.5000 0.5687(4) 0.7500
C14_4 C 0.5000 0.6453(4) 0.7500
C15_3 C 0.4944(3) 0.6824(3) 0.6840(4)
H11_3 H 0.4909 0.6593 0.6391
C16_3 C 0.4942(4) 0.7522(3) 0.6851(4)
H12_3 H 0.4899 0.7758 0.6402
C17_4 C 0.5000 0.7889(4) 0.7500
C18_4 C 0.5000 0.8654(4) 0.7500
C19_3 C 0.4391(3) 0.9005(3) 0.7326(3)
C20_3 C 0.4389(3) 0.9726(3) 0.7342(3)
C22_3 C 0.3719(3) 0.8630(3) 0.7094(4)
H13_3 H 0.3317 0.8841 0.6609
H14_3 H 0.3753 0.8160 0.6971
H15_3 H 0.3659 0.8650 0.7555
H18_3 H 0.3323 0.9873 0.6775
O7_2 O 0.50662(18) 0.53907(17) 0.8129(2)
C50_2 C 0.5056(3) 0.6824(3) 0.8160(4)
H38_2 H 0.5091 0.6593 0.8609
C51_2 C 0.5058(4) 0.7522(3) 0.8149(4)
H39_2 H 0.5101 0.7758 0.8598
C52_2 C 0.5609(3) 0.9005(3) 0.7674(3)
C53_2 C 0.5611(3) 0.9726(3) 0.7658(3)
C54_2 C 0.6281(3) 0.8630(3) 0.7906(4)
H40_2 H 0.6683 0.8841 0.8391
H41_2 H 0.6247 0.8160 0.8029
H42_2 H 0.6341 0.8650 0.7445
H45_2 H 0.6677 0.9873 0.8225
H1_3 H 0.7441 0.0429 0.9785
C4_3 C 0.6632(3) 0.0283(4) 0.9946(3)
H2_3 H 0.6277 0.0231 0.9379
C46_4 C 0.4567(3) 0.0547(3) 0.9940(4)
C48_4 C 0.4098(3) 0.1128(4) 0.9871(5)
H33_4 H 0.4151 0.1507 0.9589
H34_4 H 0.3610 0.0980 0.9557
H5_3 H 0.5766 0.8733 0.9577
O5_4 O 0.09156(17) 0.93632(18) 0.7935(2)
O6_4 O 0.12154(17) 0.94188(18) 0.9244(2)
C38_4 C 0.1383(3) 0.9425(3) 0.8709(3)
C39_4 C 0.2138(3) 0.9534(3) 0.8981(3)
C40_4 C 0.2667(3) 0.9602(4) 0.9810(3)
C42_4 C 0.3542(3) 0.9754(3) 0.9465(3)
C43_4 C 0.3012(3) 0.9668(4) 0.8636(4)
H30_4 H 0.3124 0.9673 0.8233
C44_4 C 0.2313(3) 0.9574(4) 0.8390(4)
H31_4 H 0.1956 0.9539 0.7822
C45_4 C 0.4296(3) 0.9878(3) 0.9736(3)
C47_4 C 0.4719(3) 0.9332(3) 0.9786(4)
C49_4 C 0.4419(4) 0.8612(4) 0.9579(5)
H35_4 H 0.4027 0.8581 0.9647
H36_4 H 0.4256 0.8506 0.9008
H37_4 H 0.4783 0.8292 0.9949
Co6 Co 0.01228(3) 0.93696(3) 0.83387(4)
H49_4 H 0.1368 0.0041 0.5529
H50_4 H 0.0613 0.0404 0.6006
Co1_2 Co 0.51228(3) 0.56304(3) 0.33387(4)
O1_2 O 0.40844(17) 0.56368(18) 0.2065(2)
O2_2 O 0.37846(17) 0.55812(18) 0.0756(2)
C1_3 C 0.3617(3) 0.5575(3) 0.1291(3)
C2_3 C 0.2862(3) 0.5466(3) 0.1019(3)
C3_3 C 0.2333(3) 0.5398(4) 0.0190(3)
C5_3 C 0.1458(3) 0.5246(3) 0.0535(3)
C6_3 C 0.1988(3) 0.5332(4) 0.1364(4)
H3_3 H 0.1876 0.5327 0.1767
C7_3 C 0.2687(3) 0.5426(4) 0.1610(4)
H4_3 H 0.3044 0.5461 0.2178
C8_3 C 0.0704(3) 0.5122(3) 0.0264(3)
C9_3 C 0.0433(3) 0.4453(3) 0.0060(4)
C10_3 C 0.0281(3) 0.5668(3) 0.0214(4)
C11_3 C 0.0902(3) 0.3872(4) 0.0129(5)
H6_3 H 0.0849 0.3493 0.0411
H7_3 H 0.1390 0.4020 0.0443
C12_3 C 0.0581(4) 0.6388(4) 0.0421(5)
H8_3 H 0.0973 0.6419 0.0353
H9_3 H 0.0744 0.6494 0.0992
H10_3 H 0.0217 0.6708 0.0051
O3_4 O 0.50662(18) 0.46093(17) 0.3129(2)
C13_5 C 0.5000 0.4313(4) 0.2500
C14_5 C 0.5000 0.3547(4) 0.2500
C15_4 C 0.5056(3) 0.3176(3) 0.3160(4)
H11_4 H 0.5091 0.3407 0.3609
C16_4 C 0.5058(4) 0.2478(3) 0.3149(4)
H12_4 H 0.5101 0.2242 0.3598
C17_5 C 0.5000 0.2111(4) 0.2500
C18_5 C 0.5000 0.1346(4) 0.2500
C19_4 C 0.5609(3) 0.0995(3) 0.2674(3)
C20_4 C 0.5611(3) 0.0274(3) 0.2658(3)
C22_4 C 0.6281(3) 0.1370(3) 0.2906(4)
H13_4 H 0.6683 0.1159 0.3391
H14_4 H 0.6247 0.1840 0.3029
H15_4 H 0.6341 0.1350 0.2445
H18_4 H 0.6677 0.0127 0.3225
N1_2 N 0.4545(2) 0.5612(2) 0.3873(2)
N2_3 N 0.3862(2) 0.5950(2) 0.4298(3)
C29_3 C 0.4282(3) 0.6141(3) 0.4029(3)
H21_3 H 0.4373 0.6594 0.3965
C30_3 C 0.3870(3) 0.5243(3) 0.4312(4)
H22_3 H 0.3632 0.4959 0.4471
C31_3 C 0.4287(3) 0.5048(3) 0.4049(3)
H23_3 H 0.4387 0.4596 0.3994
C32_3 C 0.3474(3) 0.6400(3) 0.4511(3)
C33_4 C 0.3310(4) 0.6190(4) 0.5056(4)
H24_4 H 0.3452 0.5759 0.5305
C34_4 C 0.2922(4) 0.6627(4) 0.5245(4)
H25_4 H 0.2803 0.6477 0.5616
C35_3 C 0.2713(3) 0.7266(3) 0.4902(3)
C36_3 C 0.2902(4) 0.7457(3) 0.4375(5)
H26_3 H 0.2776 0.7891 0.4137
C37_3 C 0.3279(4) 0.7030(3) 0.4174(5)
H27_3 H 0.3398 0.7180 0.3803
O7_3 O 0.49338(18) 0.46093(17) 0.1871(2)
C50_3 C 0.4944(3) 0.3176(3) 0.1840(4)
H38_3 H 0.4909 0.3407 0.1391
C51_3 C 0.4942(4) 0.2478(3) 0.1851(4)
H39_3 H 0.4899 0.2242 0.1402
C52_3 C 0.4391(3) 0.0995(3) 0.2326(3)
C53_3 C 0.4389(3) 0.0274(3) 0.2342(3)
C54_3 C 0.3719(3) 0.1370(3) 0.2094(4)
H40_3 H 0.3317 0.1159 0.1609
H41_3 H 0.3753 0.1840 0.1971
H42_3 H 0.3659 0.1350 0.2555
H45_3 H 0.3323 0.0127 0.1775
N3_4 N 0.0455(2) 0.9388(2) 0.6127(2)
N4_4 N 0.1138(2) 0.9050(2) 0.5702(3)
C58_4 C 0.0718(3) 0.8859(3) 0.5971(3)
H48_4 H 0.0627 0.8406 0.6035
C59_4 C 0.1130(3) 0.9757(3) 0.5688(4)
C60_4 C 0.0713(3) 0.9952(3) 0.5951(3)
C61_4 C 0.1526(3) 0.8600(3) 0.5489(3)
C62_3 C 0.1690(4) 0.8810(4) 0.4944(4)
H51_3 H 0.1548 0.9241 0.4695
C63_3 C 0.2078(4) 0.8373(4) 0.4755(4)
H52_3 H 0.2197 0.8523 0.4384
C64_4 C 0.2287(3) 0.7734(3) 0.5098(3)
C65_4 C 0.2098(4) 0.7543(3) 0.5625(5)
H53_4 H 0.2224 0.7109 0.5863
C66_4 C 0.1721(4) 0.7970(3) 0.5826(5)
H54_4 H 0.1602 0.7820 0.6197
Co2_2 Co 0.48772(3) 0.56304(3) 0.16613(4)
O9_2 O 0.59156(17) 0.56368(18) 0.2935(2)
O10_2 O 0.62154(17) 0.55812(18) 0.4244(2)
O11_2 O 0.49396(17) 0.66495(16) 0.1866(2)
O12_2 O 0.50604(17) 0.66495(16) 0.3134(2)
N5_2 N 0.5455(2) 0.5612(2) 0.1127(2)
C21_5 C 0.5000 0.9918(4) 0.2500
C23_4 C 0.6252(3) 0.9882(3) 0.2824(4)
H16_4 H 0.6230 0.9830 0.2310
H17_4 H 0.6258 0.9438 0.3045
C24_5 C 0.5000 0.9151(4) 0.2500
C25_3 C 0.4961(3) 0.8784(3) 0.1851(3)
H19_3 H 0.4934 0.9018 0.1410
C26_3 C 0.4961(3) 0.8075(3) 0.1853(3)
H20_3 H 0.4934 0.7840 0.1411
C27_5 C 0.5000 0.7709(4) 0.2500
C28_5 C 0.5000 0.6947(4) 0.2500
C55_3 C 0.3748(3) 0.9882(3) 0.2176(4)
H43_3 H 0.3770 0.9830 0.2690
H44_3 H 0.3742 0.9438 0.1955
C56_4 C 0.5039(3) 0.8784(3) 0.3149(3)
H46_4 H 0.5066 0.9018 0.3590
C57_4 C 0.5039(3) 0.8075(3) 0.3147(3)
H47_4 H 0.5066 0.7840 0.3589
C1_4 C 0.6383(3) 0.5575(3) 0.3709(3)
C2_4 C 0.7138(3) 0.5466(3) 0.3981(3)
C3_4 C 0.7667(3) 0.5398(4) 0.4810(3)
H1_4 H 0.7559 0.5429 0.5215
C4_4 C 0.8368(3) 0.5283(4) 0.5054(3)
H2_4 H 0.8723 0.5231 0.5621
C5_4 C 0.8542(3) 0.5246(3) 0.4465(3)
C6_4 C 0.8012(3) 0.5332(4) 0.3636(4)
H3_4 H 0.8124 0.5327 0.3233
C7_4 C 0.7313(3) 0.5426(4) 0.3390(4)
H4_4 H 0.6956 0.5461 0.2822
C8_4 C 0.9296(3) 0.5122(3) 0.4736(3)
C9_4 C 0.9567(3) 0.4453(3) 0.4940(4)
C10_4 C 0.9719(3) 0.5668(3) 0.4786(4)
C11_4 C 0.9098(3) 0.3872(4) 0.4871(5)
H5_4 H 0.9234 0.3733 0.5423
H6_4 H 0.9151 0.3493 0.4589
H7_4 H 0.8610 0.4020 0.4557
C12_4 C 0.9419(4) 0.6388(4) 0.4579(5)
H8_4 H 0.9027 0.6419 0.4647
H9_4 H 0.9256 0.6494 0.4008
H10_4 H 0.9783 0.6708 0.4949
N2_4 N 0.6138(2) 0.5950(2) 0.0702(3)
C29_4 C 0.5718(3) 0.6141(3) 0.0971(3)
H21_4 H 0.5627 0.6594 0.1035
C30_4 C 0.6130(3) 0.5243(3) 0.0688(4)
H22_4 H 0.6368 0.4959 0.0529
C31_4 C 0.5713(3) 0.5048(3) 0.0951(3)
H23_4 H 0.5613 0.4596 0.1006
C32_4 C 0.6526(3) 0.6400(3) 0.0489(3)
C35_4 C 0.7287(3) 0.7266(3) 0.0098(3)
C36_4 C 0.7098(4) 0.7457(3) 0.0625(5)
H26_4 H 0.7224 0.7891 0.0863
C37_4 C 0.6721(4) 0.7030(3) 0.0826(5)
H27_4 H 0.6602 0.7180 0.1197
C62_4 C 0.8310(4) 0.8810(4) 0.0056(4)
H51_4 H 0.8452 0.9241 0.0305
C63_4 C 0.7922(4) 0.8373(4) 0.0245(4)
H52_4 H 0.7803 0.8523 0.0616
O4_2 O 0.00604(17) 0.83505(16) 0.8134(2)
C13_6 C 0.0000 0.0687(4) 0.7500
C14_6 C 0.0000 0.1453(4) 0.7500
C17_6 C 0.0000 0.2889(4) 0.7500
C18_6 C 0.0000 0.3654(4) 0.7500
C21_6 C 0.0000 0.5082(4) 0.7500
C24_6 C 0.0000 0.5849(4) 0.7500
C25_4 C 0.0039(3) 0.6216(3) 0.8149(3)
H19_4 H 0.0066 0.5982 0.8590
C26_4 C 0.0039(3) 0.6925(3) 0.8147(3)
H20_4 H 0.0066 0.7160 0.8589
C27_6 C 0.0000 0.7291(4) 0.7500
C28_6 C 0.0000 0.8053(4) 0.7500
O7_4 O 0.00662(18) 0.03907(17) 0.8129(2)
C50_4 C 0.0056(3) 0.1824(3) 0.8160(4)
H38_4 H 0.0091 0.1593 0.8609
C51_4 C 0.0058(4) 0.2522(3) 0.8149(4)
H39_4 H 0.0101 0.2758 0.8598
C52_4 C 0.0609(3) 0.4005(3) 0.7674(3)
C53_4 C 0.0611(3) 0.4726(3) 0.7658(3)
C54_4 C 0.1281(3) 0.3630(3) 0.7906(4)
H40_4 H 0.1683 0.3841 0.8391
H41_4 H 0.1247 0.3160 0.8029
H42_4 H 0.1341 0.3650 0.7445
C55_4 C 0.1252(3) 0.5118(3) 0.7824(4)
H43_4 H 0.1230 0.5170 0.7310
H44_4 H 0.1258 0.5562 0.8045
H45_4 H 0.1677 0.4873 0.8225
loop_
_geom_bond_atom_site_label_1
_geom_bond_atom_site_label_2
_geom_bond_site_symmetry_1
_geom_bond_site_symmetry_2
O9 Co1 1_555 1_555
O10 Co1 1_555 1_555
O12 Co1 1_555 1_555
C13 O3 1_555 1_555
C14 C13 1_555 1_555
C15 C14 1_555 1_555
H11 C15 1_555 1_555
C16 C15 1_555 1_555
H12 C16 1_555 1_555
C17 C16 1_555 1_555
C18 C17 1_555 1_555
C19 C18 1_555 1_555
C20 C19 1_555 1_555
C21 C20 1_555 1_555
C22 C19 1_555 1_555
H13 C22 1_555 1_555
H14 C22 1_555 1_555
H15 C22 1_555 1_555
C23 C20 1_555 1_555
H16 C23 1_555 1_555
H17 C23 1_555 1_555
H18 C23 1_555 1_555
C24 C21 1_555 1_555
C28 C27 1_555 1_555
O12 C28 1_555 1_555
C56 C24 1_555 1_555
H46 C56 1_555 1_555
C57 C27 1_555 1_555
H47 C57 1_555 1_555
C56 C57 1_555 1_555
O9 C1 1_555 1_555
O10 C1 1_555 1_555
C1 C2 1_555 1_555
C2 C3 1_555 1_555
C3 H1 1_555 1_555
C4 C3 1_555 1_555
H2 C4 1_555 1_555
C5 C4 1_555 1_555
C6 C5 1_555 1_555
H3 C6 1_555 1_555
C7 C2 1_555 1_555
H4 C7 1_555 1_555
C8 C5 1_555 1_555
C10 C8 1_555 1_555
C12 C10 1_555 1_555
H8 C12 1_555 1_555
H9 C12 1_555 1_555
H10 C12 1_555 1_555
N2 C29 1_555 1_555
C29 N5 1_555 1_555
H21 C29 1_555 1_555
C30 N2 1_555 1_555
C31 N5 1_555 1_555
C32 N2 1_555 1_555
C36 C35 1_555 1_555
H26 C36 1_555 1_555
C37 C32 1_555 1_555
H27 C37 1_555 1_555
C46 C10 1_555 1_555
C48 C46 1_555 1_555
H32 C48 1_555 1_555
H33 C48 1_555 1_555
H34 C48 1_555 1_555
H51 C62 1_555 1_555
C63 C62 1_555 1_555
H52 C63 1_555 1_555
C6 C7 1_555 1_555
C30 C31 1_555 1_555
C36 C37 1_555 1_555
C11 C9 1_555 1_555
H5 C11 1_555 1_555
H6 C11 1_555 1_555
H7 C11 1_555 1_555
O5 C38 1_555 1_555
O6 C38 1_555 1_555
C38 C39 1_555 1_555
C39 C40 1_555 1_555
C40 H28 1_555 1_555
C41 C40 1_555 1_555
H29 C41 1_555 1_555
C42 C41 1_555 1_555
C43 C42 1_555 1_555
H30 C43 1_555 1_555
C44 C39 1_555 1_555
H31 C44 1_555 1_555
C45 C42 1_555 1_555
C47 C9 1_555 1_555
C49 C47 1_555 1_555
H35 C49 1_555 1_555
H36 C49 1_555 1_555
H37 C49 1_555 1_555
Co5 O5 1_555 1_555
O6 Co5 1_555 1_555
C43 C44 1_555 1_555
C45 C47 1_555 1_555
H2_2 C4_2 1_555 1_555
H29_2 C41_2 1_555 1_555
H24 C33 1_555 1_555
C34 C33 1_555 1_555
H25 C34 1_555 1_555
N3 C58 1_555 1_555
N4 C58 1_555 1_555
C58 H48 1_555 1_555
C59 N4 1_555 1_555
C60 N3 1_555 1_555
C61 N4 1_555 1_555
C65 C64 1_555 1_555
H53 C65 1_555 1_555
C66 C61 1_555 1_555
H54 C66 1_555 1_555
C59 C60 1_555 1_555
C65 C66 1_555 1_555
C13_2 O3_2 1_555 1_555
C14_2 C13_2 1_555 1_555
C15_2 C14_2 1_555 1_555
H11_2 C15_2 1_555 1_555
C16_2 C15_2 1_555 1_555
H12_2 C16_2 1_555 1_555
C17_2 C16_2 1_555 1_555
C18_2 C17_2 1_555 1_555
C19_2 C18_2 1_555 1_555
C20_2 C19_2 1_555 1_555
C21_2 C20_2 1_555 1_555
C22_2 C19_2 1_555 1_555
H13_2 C22_2 1_555 1_555
H14_2 C22_2 1_555 1_555
H15_2 C22_2 1_555 1_555
C23_2 C20_2 1_555 1_555
H16_2 C23_2 1_555 1_555
H17_2 C23_2 1_555 1_555
H18_2 C23_2 1_555 1_555
C24_2 C21_2 1_555 1_555
C28_2 C27_2 1_555 1_555
O8 C28_2 1_555 1_555
C56_2 C24_2 1_555 1_555
H46_2 C56_2 1_555 1_555
C57_2 C27_2 1_555 1_555
H47_2 C57_2 1_555 1_555
Co5 O8 1_555 1_555
C56_2 C57_2 1_555 1_555
O1 C1_2 1_555 1_555
O2 C1_2 1_555 1_555
C1_2 C2_2 1_555 1_555
C2_2 C3_2 1_555 1_555
C6_2 C5_2 1_555 1_555
H3_2 C6_2 1_555 1_555
C7_2 C2_2 1_555 1_555
H4_2 C7_2 1_555 1_555
C8_2 C5_2 1_555 1_555
C10_2 C8_2 1_555 1_555
C12_2 C10_2 1_555 1_555
H8_2 C12_2 1_555 1_555
H9_2 C12_2 1_555 1_555
H10_2 C12_2 1_555 1_555
N2_2 C29_2 1_555 1_555
C29_2 N1 1_555 1_555
H21_2 C29_2 1_555 1_555
C30_2 N2_2 1_555 1_555
C31_2 N1 1_555 1_555
C32_2 N2_2 1_555 1_555
C33_2 C32_2 1_555 1_555
H24_2 C33_2 1_555 1_555
C34_2 C33_2 1_555 1_555
H25_2 C34_2 1_555 1_555
C35_2 C34_2 1_555 1_555
C36_2 C35_2 1_555 1_555
H26_2 C36_2 1_555 1_555
C37_2 C32_2 1_555 1_555
H27_2 C37_2 1_555 1_555
N3_2 C58_2 1_555 1_555
N4_2 C58_2 1_555 1_555
C58_2 H48_2 1_555 1_555
C59_2 N4_2 1_555 1_555
H49_2 C59_2 1_555 1_555
C60_2 N3_2 1_555 1_555
H50_2 C60_2 1_555 1_555
C61_2 N4_2 1_555 1_555
C62_2 C61_2 1_555 1_555
H51_2 C62_2 1_555 1_555
C63_2 C62_2 1_555 1_555
H52_2 C63_2 1_555 1_555
C64_2 C35_2 1_555 1_555
C65_2 C64_2 1_555 1_555
H53_2 C65_2 1_555 1_555
C66_2 C61_2 1_555 1_555
H54_2 C66_2 1_555 1_555
Co2 O1 1_555 1_555
Co7 N3_2 1_555 1_555
O11 Co2 1_555 1_555
O2 Co2 1_555 1_555
C6_2 C7_2 1_555 1_555
C30_2 C31_2 1_555 1_555
C36_2 C37_2 1_555 1_555
C59_2 C60_2 1_555 1_555
C63_2 C64_2 1_555 1_555
C65_2 C66_2 1_555 1_555
C11_2 C9_2 1_555 1_555
H6_2 C11_2 1_555 1_555
H7_2 C11_2 1_555 1_555
O11 C28_3 1_555 1_555
C14_3 C13_3 1_555 1_555
C18_3 C17_3 1_555 1_555
C24_3 C21_3 1_555 1_555
C25 C24_3 1_555 1_555
H19 C25 1_555 1_555
C26 C25 1_555 1_555
H20 C26 1_555 1_555
C27_3 C26 1_555 1_555
C28_3 C27_3 1_555 1_555
H29_3 C41_3 1_555 1_555
O7 C13_3 1_555 1_555
C50 C14_3 1_555 1_555
H38 C50 1_555 1_555
C51 C17_3 1_555 1_555
H39 C51 1_555 1_555
C52 C18_3 1_555 1_555
C53 C21_3 1_555 1_555
C54 C52 1_555 1_555
H40 C54 1_555 1_555
H41 C54 1_555 1_555
H42 C54 1_555 1_555
C55 C53 1_555 1_555
H43 C55 1_555 1_555
H44 C55 1_555 1_555
H45 C55 1_555 1_555
C50 C51 1_555 1_555
C52 C53 1_555 1_555
H24_3 C33_3 1_555 1_555
C34_3 C33_3 1_555 1_555
H25_3 C34_3 1_555 1_555
N3_3 C58_3 1_555 1_555
N4_3 C58_3 1_555 1_555
C58_3 H48_3 1_555 1_555
C59_3 N4_3 1_555 1_555
H49_3 C59_3 1_555 1_555
C60_3 N3_3 1_555 1_555
H50_3 C60_3 1_555 1_555
C61_3 N4_3 1_555 1_555
C65_3 C64_3 1_555 1_555
H53_3 C65_3 1_555 1_555
C66_3 C61_3 1_555 1_555
H54_3 C66_3 1_555 1_555
Co7_2 N3_3 1_555 1_555
C59_3 C60_3 1_555 1_555
C65_3 C66_3 1_555 1_555
O5_2 C38_2 1_555 1_555
O6_2 C38_2 1_555 1_555
C38_2 C39_2 1_555 1_555
C39_2 C40_2 1_555 1_555
C43_2 C42_2 1_555 1_555
H30_2 C43_2 1_555 1_555
C44_2 C39_2 1_555 1_555
H31_2 C44_2 1_555 1_555
C45_2 C42_2 1_555 1_555
C48_2 C46_2 1_555 1_555
H33_2 C48_2 1_555 1_555
H34_2 C48_2 1_555 1_555
C49_2 C47_2 1_555 1_555
H35_2 C49_2 1_555 1_555
H36_2 C49_2 1_555 1_555
H37_2 C49_2 1_555 1_555
Co7 O5_2 1_555 1_555
Co7_2 O5_2 1_555 1_555
O6_2 Co7_2 1_555 1_555
C43_2 C44_2 1_555 1_555
C45_2 C46_2 1_555 1_555
C45_2 C47_2 1_555 1_555
O5_3 C38_3 1_555 1_555
O6_3 C38_3 1_555 1_555
C38_3 C39_3 1_555 1_555
C39_3 C40_3 1_555 1_555
C40_3 H28_4 1_555 1_555
C41_4 C40_3 1_555 1_555
H29_4 C41_4 1_555 1_555
C42_3 C41_4 1_555 1_555
C43_3 C42_3 1_555 1_555
H30_3 C43_3 1_555 1_555
C44_3 C39_3 1_555 1_555
H31_3 C44_3 1_555 1_555
C45_3 C42_3 1_555 1_555
C48_3 C46_3 1_555 1_555
H32_4 C48_3 1_555 1_555
H33_3 C48_3 1_555 1_555
H34_3 C48_3 1_555 1_555
C49_3 C47_3 1_555 1_555
H35_3 C49_3 1_555 1_555
H36_3 C49_3 1_555 1_555
H37_3 C49_3 1_555 1_555
Co7_2 O5_3 1_555 1_555
Co7 O5_3 1_555 1_555
O6_3 Co7 1_555 1_555
C43_3 C44_3 1_555 1_555
C45_3 C46_3 1_555 1_555
C45_3 C47_3 1_555 1_555
O4 C28_4 1_555 1_555
H16_3 C23_3 1_555 1_555
H17_3 C23_3 1_555 1_555
C24_4 C21_4 1_555 1_555
C25_2 C24_4 1_555 1_555
H19_2 C25_2 1_555 1_555
C26_2 C25_2 1_555 1_555
H20_2 C26_2 1_555 1_555
C27_4 C26_2 1_555 1_555
C28_4 C27_4 1_555 1_555
O8_2 C28_4 1_555 1_555
H43_2 C55_2 1_555 1_555
H44_2 C55_2 1_555 1_555
C56_3 C24_4 1_555 1_555
H46_3 C56_3 1_555 1_555
C57_3 C27_4 1_555 1_555
H47_3 C57_3 1_555 1_555
Co7 O8_2 1_555 1_555
Co7_2 O4 1_555 1_555
C56_3 C57_3 1_555 1_555
O3_3 Co7 1_555 1_555
C13_4 O3_3 1_555 1_555
C14_4 C13_4 1_555 1_555
C15_3 C14_4 1_555 1_555
H11_3 C15_3 1_555 1_555
C16_3 C15_3 1_555 1_555
H12_3 C16_3 1_555 1_555
C17_4 C16_3 1_555 1_555
C18_4 C17_4 1_555 1_555
C19_3 C18_4 1_555 1_555
C20_3 C19_3 1_555 1_555
C22_3 C19_3 1_555 1_555
H13_3 C22_3 1_555 1_555
H14_3 C22_3 1_555 1_555
H15_3 C22_3 1_555 1_555
O7_2 C13_4 1_555 1_555
C50_2 C14_4 1_555 1_555
H38_2 C50_2 1_555 1_555
C51_2 C17_4 1_555 1_555
H39_2 C51_2 1_555 1_555
C52_2 C18_4 1_555 1_555
C54_2 C52_2 1_555 1_555
H40_2 C54_2 1_555 1_555
H41_2 C54_2 1_555 1_555
H42_2 C54_2 1_555 1_555
O7_2 Co7_2 1_555 1_555
C50_2 C51_2 1_555 1_555
C52_2 C53_2 1_555 1_555
H2_3 C4_3 1_555 1_555
C48_4 C46_4 1_555 1_555
H33_4 C48_4 1_555 1_555
H34_4 C48_4 1_555 1_555
O5_4 C38_4 1_555 1_555
O6_4 C38_4 1_555 1_555
C38_4 C39_4 1_555 1_555
C39_4 C40_4 1_555 1_555
C43_4 C42_4 1_555 1_555
H30_4 C43_4 1_555 1_555
C44_4 C39_4 1_555 1_555
H31_4 C44_4 1_555 1_555
C45_4 C42_4 1_555 1_555
C49_4 C47_4 1_555 1_555
H35_4 C49_4 1_555 1_555
H36_4 C49_4 1_555 1_555
H37_4 C49_4 1_555 1_555
Co6 O5_4 1_555 1_555
O6_4 Co6 1_555 1_555
C43_4 C44_4 1_555 1_555
C45_4 C47_4 1_555 1_555
Co1_2 O1_2 1_555 1_555
O1_2 C1_3 1_555 1_555
O2_2 C1_3 1_555 1_555
C1_3 C2_3 1_555 1_555
C2_3 C3_3 1_555 1_555
C6_3 C5_3 1_555 1_555
H3_3 C6_3 1_555 1_555
C7_3 C2_3 1_555 1_555
H4_3 C7_3 1_555 1_555
C8_3 C5_3 1_555 1_555
C9_3 C8_3 1_555 1_555
C10_3 C8_3 1_555 1_555
C11_3 C9_3 1_555 1_555
H6_3 C11_3 1_555 1_555
H7_3 C11_3 1_555 1_555
C12_3 C10_3 1_555 1_555
H8_3 C12_3 1_555 1_555
H9_3 C12_3 1_555 1_555
H10_3 C12_3 1_555 1_555
O3_4 Co1_2 1_555 1_555
C13_5 O3_4 1_555 1_555
C14_5 C13_5 1_555 1_555
C15_4 C14_5 1_555 1_555
H11_4 C15_4 1_555 1_555
C16_4 C15_4 1_555 1_555
H12_4 C16_4 1_555 1_555
C17_5 C16_4 1_555 1_555
C18_5 C17_5 1_555 1_555
C19_4 C18_5 1_555 1_555
C20_4 C19_4 1_555 1_555
C22_4 C19_4 1_555 1_555
H13_4 C22_4 1_555 1_555
H14_4 C22_4 1_555 1_555
H15_4 C22_4 1_555 1_555
N1_2 Co1_2 1_555 1_555
N2_3 C29_3 1_555 1_555
C29_3 N1_2 1_555 1_555
H21_3 C29_3 1_555 1_555
C30_3 N2_3 1_555 1_555
H22_3 C30_3 1_555 1_555
C31_3 N1_2 1_555 1_555
H23_3 C31_3 1_555 1_555
C32_3 N2_3 1_555 1_555
C33_4 C32_3 1_555 1_555
H24_4 C33_4 1_555 1_555
C34_4 C33_4 1_555 1_555
H25_4 C34_4 1_555 1_555
C35_3 C34_4 1_555 1_555
C36_3 C35_3 1_555 1_555
H26_3 C36_3 1_555 1_555
C37_3 C32_3 1_555 1_555
H27_3 C37_3 1_555 1_555
O7_3 C13_5 1_555 1_555
C50_3 C14_5 1_555 1_555
H38_3 C50_3 1_555 1_555
C51_3 C17_5 1_555 1_555
H39_3 C51_3 1_555 1_555
C52_3 C18_5 1_555 1_555
C54_3 C52_3 1_555 1_555
H40_3 C54_3 1_555 1_555
H41_3 C54_3 1_555 1_555
H42_3 C54_3 1_555 1_555
N3_4 C58_4 1_555 1_555
N4_4 C58_4 1_555 1_555
C58_4 H48_4 1_555 1_555
C59_4 N4_4 1_555 1_555
C60_4 N3_4 1_555 1_555
C61_4 N4_4 1_555 1_555
C62_3 C61_4 1_555 1_555
H51_3 C62_3 1_555 1_555
C63_3 C62_3 1_555 1_555
H52_3 C63_3 1_555 1_555
C64_4 C35_3 1_555 1_555
C65_4 C64_4 1_555 1_555
H53_4 C65_4 1_555 1_555
C66_4 C61_4 1_555 1_555
H54_4 C66_4 1_555 1_555
Co2_2 O1_2 1_555 1_555
O9_2 Co1_2 1_555 1_555
O10_2 Co1_2 1_555 1_555
O11_2 Co2_2 1_555 1_555
O12_2 Co1_2 1_555 1_555
N5_2 Co2_2 1_555 1_555
O2_2 Co2_2 1_555 1_555
C6_3 C7_3 1_555 1_555
C30_3 C31_3 1_555 1_555
C36_3 C37_3 1_555 1_555
O7_3 Co2_2 1_555 1_555
C50_3 C51_3 1_555 1_555
C52_3 C53_3 1_555 1_555
C59_4 C60_4 1_555 1_555
C63_3 C64_4 1_555 1_555
C65_4 C66_4 1_555 1_555
Co2_2 O9_2 1_555 1_555
O11_2 C28_5 1_555 1_555
H16_4 C23_4 1_555 1_555
H17_4 C23_4 1_555 1_555
C24_5 C21_5 1_555 1_555
C25_3 C24_5 1_555 1_555
H19_3 C25_3 1_555 1_555
C26_3 C25_3 1_555 1_555
H20_3 C26_3 1_555 1_555
C27_5 C26_3 1_555 1_555
C28_5 C27_5 1_555 1_555
O12_2 C28_5 1_555 1_555
H43_3 C55_3 1_555 1_555
H44_3 C55_3 1_555 1_555
C56_4 C24_5 1_555 1_555
H46_4 C56_4 1_555 1_555
C57_4 C27_5 1_555 1_555
H47_4 C57_4 1_555 1_555
C56_4 C57_4 1_555 1_555
O9_2 C1_4 1_555 1_555
O10_2 C1_4 1_555 1_555
C1_4 C2_4 1_555 1_555
C2_4 C3_4 1_555 1_555
C3_4 H1_4 1_555 1_555
C4_4 C3_4 1_555 1_555
H2_4 C4_4 1_555 1_555
C5_4 C4_4 1_555 1_555
C6_4 C5_4 1_555 1_555
H3_4 C6_4 1_555 1_555
C7_4 C2_4 1_555 1_555
H4_4 C7_4 1_555 1_555
C8_4 C5_4 1_555 1_555
C9_4 C8_4 1_555 1_555
C10_4 C8_4 1_555 1_555
C11_4 C9_4 1_555 1_555
H5_4 C11_4 1_555 1_555
H6_4 C11_4 1_555 1_555
H7_4 C11_4 1_555 1_555
C12_4 C10_4 1_555 1_555
H8_4 C12_4 1_555 1_555
H9_4 C12_4 1_555 1_555
H10_4 C12_4 1_555 1_555
N2_4 C29_4 1_555 1_555
C29_4 N5_2 1_555 1_555
H21_4 C29_4 1_555 1_555
C30_4 N2_4 1_555 1_555
H22_4 C30_4 1_555 1_555
C31_4 N5_2 1_555 1_555
H23_4 C31_4 1_555 1_555
C32_4 N2_4 1_555 1_555
C36_4 C35_4 1_555 1_555
H26_4 C36_4 1_555 1_555
C37_4 C32_4 1_555 1_555
H27_4 C37_4 1_555 1_555
H51_4 C62_4 1_555 1_555
C63_4 C62_4 1_555 1_555
H52_4 C63_4 1_555 1_555
C6_4 C7_4 1_555 1_555
C30_4 C31_4 1_555 1_555
C36_4 C37_4 1_555 1_555
O4_2 C28_6 1_555 1_555
C14_6 C13_6 1_555 1_555
C18_6 C17_6 1_555 1_555
C24_6 C21_6 1_555 1_555
C25_4 C24_6 1_555 1_555
H19_4 C25_4 1_555 1_555
C26_4 C25_4 1_555 1_555
H20_4 C26_4 1_555 1_555
C27_6 C26_4 1_555 1_555
C28_6 C27_6 1_555 1_555
O7_4 C13_6 1_555 1_555
C50_4 C14_6 1_555 1_555
H38_4 C50_4 1_555 1_555
C51_4 C17_6 1_555 1_555
H39_4 C51_4 1_555 1_555
C52_4 C18_6 1_555 1_555
C53_4 C21_6 1_555 1_555
C54_4 C52_4 1_555 1_555
H40_4 C54_4 1_555 1_555
H41_4 C54_4 1_555 1_555
H42_4 C54_4 1_555 1_555
C55_4 C53_4 1_555 1_555
H43_4 C55_4 1_555 1_555
H44_4 C55_4 1_555 1_555
H45_4 C55_4 1_555 1_555
Co6 O4_2 1_555 1_555
C50_4 C51_4 1_555 1_555
C52_4 C53_4 1_555 1_555

#END
