
###############################################################################
#
# This file contains modified crystal structure data generated from the
# MOF subset of the Cambridge Structural Database (CSD) v543 
# hosted by the Cambridge Crystallographic Data Centre (CCDC).
#
# This work is licensed under the Creative Commons
# Attribution-NonCommercial-ShareAlike 4.0 International License.
# To view a copy of this license, visit
# http://creativecommons.org/licenses/by-nc-sa/4.0/
# or send a letter to
# Creative Commons, PO Box 1866, Mountain View, CA 94042, USA.
#
# CIF created using the CSD Python API on 29 September 2022
# The structure has been converted into the P1 space group
# The structure has a 3D framework
# The original CSD entry QUGKEL is in the monoclinic crystal system
# The original CSD entry QUGKEL is in a Sohncke space group
# The framework has been calculated to contain at least 10.0% void space
# The void calculation uses a probe of radius 1.32A, grid spacing 0.4
#
###############################################################################

data_QUGKEL
_chemical_formula_moiety         '(C348 H288 N12 O48 Zn12)n'
_symmetry_cell_setting           triclinic
_symmetry_space_group_name_H-M   'P 1'
_symmetry_Int_Tables_number      1
_space_group_name_Hall           'P 1'
loop_
_symmetry_equiv_pos_site_id
_symmetry_equiv_pos_as_xyz
1 x,y,z
_cell_length_a                   29.500(6)
_cell_length_b                   25.285(5)
_cell_length_c                   13.948(3)
_cell_angle_alpha                90
_cell_angle_beta                 94.89(3)
_cell_angle_gamma                90
_cell_volume                     10366
loop_
_atom_site_label
_atom_site_type_symbol
_atom_site_fract_x
_atom_site_fract_y
_atom_site_fract_z
O2 O 0.0413(2) 0.3142(3) 0.4259(5)
O4 O 0.0489(2) 0.4246(3) 0.4314(5)
C2 C 0.0103(6) 0.4192(7) 0.2067(8)
H1 H 0.0190 0.4498 0.2435
C5 C 0.0114(6) 0.4201(7) 0.1082(8)
H3 H 0.0199 0.4515 0.0772
Zn2 Zn 0.00312(3) 0.37504(3) 0.60397(6)
C30 C 0.0002(3) 0.3741(5) 0.9474(6)
C32 C 0.0142(5) 0.3328(4) 0.9001(8)
C34 C 0.0160(5) 0.3359(5) 0.8002(8)
H26 H 0.0231 0.3013 0.9335
N2 N 0.0031(2) 0.3746(4) 0.7481(5)
H28 H 0.0279 0.3060 0.7696
O6 O 0.0534(2) 0.3227(3) 0.5872(5)
O8 O 0.0482(3) 0.4331(3) 0.5883(6)
C35 C 0.0625(3) 0.3032(4) 0.5079(9)
C36 C 0.1006(4) 0.2629(4) 0.5062(8)
C37 C 0.1232(4) 0.2460(5) 0.5900(9)
C38 C 0.1119(3) 0.2431(4) 0.4194(7)
H29 H 0.1141 0.2586 0.6496
C39 C 0.1575(4) 0.2122(5) 0.5898(9)
C40 C 0.1448(3) 0.2069(4) 0.4177(7)
H30 H 0.0963 0.2551 0.3610
H31 H 0.1732 0.2018 0.6491
C41 C 0.1708(4) 0.1919(5) 0.5049(9)
H32 H 0.1510 0.1911 0.3585
C42 C 0.2104(4) 0.1558(6) 0.5004(9)
C43 C 0.2563(4) 0.1754(5) 0.5122(9)
C44 C 0.2046(5) 0.1017(5) 0.4835(9)
C45 C 0.2923(4) 0.1436(5) 0.5096(9)
C46 C 0.2651(4) 0.2363(5) 0.5355(10)
C47 C 0.2418(4) 0.0674(5) 0.4770(9)
C48 C 0.1565(4) 0.0792(6) 0.4711(11)
C49 C 0.2848(4) 0.0887(5) 0.4910(8)
C50 C 0.3394(4) 0.1639(5) 0.5247(9)
H33 H 0.2787 0.2401 0.6018
H34 H 0.2361 0.2555 0.5281
H35 H 0.2858 0.2509 0.4910
C51 C 0.2352(5) 0.0089(6) 0.4601(13)
H36 H 0.1508 0.0641 0.4064
H37 H 0.1345 0.1074 0.4796
H38 H 0.1532 0.0515 0.5192
C52 C 0.3240(4) 0.0520(5) 0.4894(8)
H39 H 0.3468 0.1837 0.4677
H40 H 0.3605 0.1342 0.5356
H41 H 0.3420 0.1873 0.5809
H43 H 0.2200 0.0031 0.3957
C53 C 0.3409(5) 0.0287(6) 0.5711(9)
C54 C 0.3436(5) 0.0430(6) 0.4075(10)
H45 H 0.3282 0.0364 0.6298
C56 C 0.3817(5) 0.0074(6) 0.4060(10)
H46 H 0.3322 0.0603 0.3499
H48 H 0.3944 0.0005 0.3469
H42 H 0.2649 0.9912 0.4650
H44 H 0.2165 0.9943 0.5085
C55 C 0.3774(4) 0.9928(5) 0.5707(8)
H47 H 0.3870 0.9743 0.6282
C57 C 0.3999(4) 0.9834(5) 0.4879(9)
C58 C 0.4378(4) 0.9446(4) 0.4898(9)
O13 O 0.4518(3) 0.9331(3) 0.4117(6)
O14 O 0.4511(2) 0.9246(3) 0.5686(5)
Zn7 Zn 0.49688(3) 0.87504(3) 0.39603(6)
Zn8 Zn 0.50312(3) 0.87504(3) 0.60397(6)
Zn1 Zn 0.99688(3) 0.37504(3) 0.39603(6)
O1 O 0.9466(2) 0.3227(3) 0.4128(5)
N1 N 0.9969(2) 0.3746(4) 0.2519(5)
O3 O 0.9518(3) 0.4331(3) 0.4117(6)
C1 C 0.9375(3) 0.3032(4) 0.4921(9)
C3 C 0.9840(5) 0.3359(5) 0.1998(8)
C4 C 0.8994(4) 0.2629(4) 0.4938(8)
C6 C 0.9858(5) 0.3328(4) 0.0999(8)
H2 H 0.9721 0.3060 0.2304
C7 C 0.8768(4) 0.2460(5) 0.4100(9)
C8 C 0.8881(3) 0.2431(4) 0.5806(7)
C9 C 0.9998(3) 0.3741(5) 0.0526(6)
H4 H 0.9769 0.3013 0.0665
H5 H 0.8859 0.2586 0.3504
C10 C 0.8425(4) 0.2122(5) 0.4102(9)
C11 C 0.8552(3) 0.2069(4) 0.5823(7)
H6 H 0.9037 0.2551 0.6390
H7 H 0.8268 0.2018 0.3509
C12 C 0.8292(4) 0.1919(5) 0.4951(9)
H8 H 0.8490 0.1911 0.6415
C13 C 0.7896(4) 0.1558(6) 0.4996(9)
C14 C 0.7437(4) 0.1754(5) 0.4878(9)
C15 C 0.7954(5) 0.1017(5) 0.5165(9)
C16 C 0.7077(4) 0.1436(5) 0.4904(9)
C17 C 0.7349(4) 0.2363(5) 0.4645(10)
C18 C 0.7582(4) 0.0674(5) 0.5230(9)
C19 C 0.8435(4) 0.0792(6) 0.5289(11)
C20 C 0.7152(4) 0.0887(5) 0.5090(8)
C21 C 0.6606(4) 0.1639(5) 0.4753(9)
H9 H 0.7213 0.2401 0.3982
H10 H 0.7639 0.2555 0.4719
H11 H 0.7142 0.2509 0.5090
C22 C 0.7648(5) 0.0089(6) 0.5399(13)
H12 H 0.8492 0.0641 0.5936
H13 H 0.8655 0.1074 0.5204
H14 H 0.8468 0.0515 0.4808
C23 C 0.6760(4) 0.0520(5) 0.5106(8)
H15 H 0.6532 0.1837 0.5323
H16 H 0.6395 0.1342 0.4644
H17 H 0.6580 0.1873 0.4191
H19 H 0.7800 0.0031 0.6043
C24 C 0.6591(5) 0.0287(6) 0.4289(9)
C25 C 0.6564(5) 0.0430(6) 0.5925(10)
H21 H 0.6718 0.0364 0.3702
C27 C 0.6183(5) 0.0074(6) 0.5940(10)
H22 H 0.6678 0.0603 0.6501
H24 H 0.6056 0.0005 0.6531
O5 O 0.9587(2) 0.3142(3) 0.5741(5)
C31 C 0.9886(6) 0.4201(7) 0.8918(8)
C33 C 0.9897(6) 0.4192(7) 0.7933(8)
H25 H 0.9801 0.4515 0.9228
H27 H 0.9810 0.4498 0.7565
O9 O 0.9511(2) 0.4246(3) 0.5686(5)
H18 H 0.7351 0.9912 0.5350
H20 H 0.7835 0.9943 0.4915
C26 C 0.6226(4) 0.9928(5) 0.4293(8)
H23 H 0.6130 0.9743 0.3718
C28 C 0.6001(4) 0.9834(5) 0.5121(9)
C29 C 0.5622(4) 0.9446(4) 0.5102(9)
O11 O 0.5482(3) 0.9331(3) 0.5883(6)
O12 O 0.5489(2) 0.9246(3) 0.4314(5)
O1_2 O 0.4466(2) 0.8227(3) 0.4128(5)
N1_2 N 0.4969(2) 0.8746(4) 0.2519(5)
O2_2 O 0.5413(2) 0.8142(3) 0.4259(5)
C1_2 C 0.4375(3) 0.8032(4) 0.4921(9)
C2_2 C 0.5103(6) 0.9192(7) 0.2067(8)
C3_2 C 0.4840(5) 0.8359(5) 0.1998(8)
C4_2 C 0.3994(4) 0.7629(4) 0.4938(8)
H1_2 H 0.5190 0.9498 0.2435
C5_2 C 0.5114(6) 0.9201(7) 0.1082(8)
C6_2 C 0.4858(5) 0.8328(4) 0.0999(8)
H2_2 H 0.4721 0.8060 0.2304
C7_2 C 0.3768(4) 0.7460(5) 0.4100(9)
C8_2 C 0.3881(3) 0.7431(4) 0.5806(7)
C9_2 C 0.4998(3) 0.8741(5) 0.0526(6)
H3_2 H 0.5199 0.9515 0.0772
H4_2 H 0.4769 0.8013 0.0665
H5_2 H 0.3859 0.7586 0.3504
C10_2 C 0.3425(4) 0.7122(5) 0.4102(9)
C11_2 C 0.3552(3) 0.7069(4) 0.5823(7)
H6_2 H 0.4037 0.7551 0.6390
H7_2 H 0.3268 0.7018 0.3509
C12_2 C 0.3292(4) 0.6919(5) 0.4951(9)
H8_2 H 0.3490 0.6911 0.6415
C13_2 C 0.2896(4) 0.6558(6) 0.4996(9)
C14_2 C 0.2437(4) 0.6754(5) 0.4878(9)
C15_2 C 0.2954(5) 0.6017(5) 0.5165(9)
C16_2 C 0.2077(4) 0.6436(5) 0.4904(9)
C17_2 C 0.2349(4) 0.7363(5) 0.4645(10)
C18_2 C 0.2582(4) 0.5674(5) 0.5230(9)
C19_2 C 0.3435(4) 0.5792(6) 0.5289(11)
C20_2 C 0.2152(4) 0.5887(5) 0.5090(8)
C21_2 C 0.1606(4) 0.6639(5) 0.4753(9)
H9_2 H 0.2213 0.7401 0.3982
H10_2 H 0.2639 0.7555 0.4719
H11_2 H 0.2142 0.7509 0.5090
C22_2 C 0.2648(5) 0.5089(6) 0.5399(13)
H12_2 H 0.3492 0.5641 0.5936
H13_2 H 0.3655 0.6074 0.5204
H14_2 H 0.3468 0.5515 0.4808
C23_2 C 0.1760(4) 0.5520(5) 0.5106(8)
H15_2 H 0.1532 0.6837 0.5323
H16_2 H 0.1395 0.6342 0.4644
H17_2 H 0.1580 0.6873 0.4191
H18_2 H 0.2351 0.4912 0.5350
H19_2 H 0.2800 0.5031 0.6043
H20_2 H 0.2835 0.4943 0.4915
C24_2 C 0.1591(5) 0.5287(6) 0.4289(9)
C25_2 C 0.1564(5) 0.5430(6) 0.5925(10)
H21_2 H 0.1718 0.5364 0.3702
C26_2 C 0.1226(4) 0.4928(5) 0.4293(8)
C27_2 C 0.1183(5) 0.5074(6) 0.5940(10)
H22_2 H 0.1678 0.5603 0.6501
H23_2 H 0.1130 0.4743 0.3718
C28_2 C 0.1001(4) 0.4834(5) 0.5121(9)
H24_2 H 0.1056 0.5005 0.6531
C29_2 C 0.0622(4) 0.4446(4) 0.5102(9)
O5_2 O 0.4587(2) 0.8142(3) 0.5741(5)
C30_2 C 0.5002(3) 0.8741(5) 0.9474(6)
C31_2 C 0.4886(6) 0.9201(7) 0.8918(8)
C32_2 C 0.5142(5) 0.8328(4) 0.9001(8)
C33_2 C 0.4897(6) 0.9192(7) 0.7933(8)
H25_2 H 0.4801 0.9515 0.9228
C34_2 C 0.5160(5) 0.8359(5) 0.8002(8)
H26_2 H 0.5231 0.8013 0.9335
N2_2 N 0.5031(2) 0.8746(4) 0.7481(5)
H27_2 H 0.4810 0.9498 0.7565
H28_2 H 0.5279 0.8060 0.7696
O6_2 O 0.5534(2) 0.8227(3) 0.5872(5)
C35_2 C 0.5625(3) 0.8032(4) 0.5079(9)
C36_2 C 0.6006(4) 0.7629(4) 0.5062(8)
C37_2 C 0.6232(4) 0.7460(5) 0.5900(9)
C38_2 C 0.6119(3) 0.7431(4) 0.4194(7)
H29_2 H 0.6141 0.7586 0.6496
C39_2 C 0.6575(4) 0.7122(5) 0.5898(9)
C40_2 C 0.6448(3) 0.7069(4) 0.4177(7)
H30_2 H 0.5963 0.7551 0.3610
H31_2 H 0.6732 0.7018 0.6491
C41_2 C 0.6708(4) 0.6919(5) 0.5049(9)
H32_2 H 0.6510 0.6911 0.3585
C42_2 C 0.7104(4) 0.6558(6) 0.5004(9)
C43_2 C 0.7563(4) 0.6754(5) 0.5122(9)
C44_2 C 0.7046(5) 0.6017(5) 0.4835(9)
C45_2 C 0.7923(4) 0.6436(5) 0.5096(9)
C46_2 C 0.7651(4) 0.7363(5) 0.5355(10)
C47_2 C 0.7418(4) 0.5674(5) 0.4770(9)
C48_2 C 0.6565(4) 0.5792(6) 0.4711(11)
C49_2 C 0.7848(4) 0.5887(5) 0.4910(8)
C50_2 C 0.8394(4) 0.6639(5) 0.5247(9)
H33_2 H 0.7787 0.7401 0.6018
H34_2 H 0.7361 0.7555 0.5281
H35_2 H 0.7858 0.7509 0.4910
C51_2 C 0.7352(5) 0.5089(6) 0.4601(13)
H36_2 H 0.6508 0.5641 0.4064
H37_2 H 0.6345 0.6074 0.4796
H38_2 H 0.6532 0.5515 0.5192
C52_2 C 0.8240(4) 0.5520(5) 0.4894(8)
H39_2 H 0.8468 0.6837 0.4677
H40_2 H 0.8605 0.6342 0.5356
H41_2 H 0.8420 0.6873 0.5809
H42_2 H 0.7649 0.4912 0.4650
H43_2 H 0.7200 0.5031 0.3957
H44_2 H 0.7165 0.4943 0.5085
C53_2 C 0.8409(5) 0.5287(6) 0.5711(9)
C54_2 C 0.8436(5) 0.5430(6) 0.4075(10)
H45_2 H 0.8282 0.5364 0.6298
C55_2 C 0.8774(4) 0.4928(5) 0.5707(8)
C56_2 C 0.8817(5) 0.5074(6) 0.4060(10)
H46_2 H 0.8322 0.5603 0.3499
H47_2 H 0.8870 0.4743 0.6282
C57_2 C 0.8999(4) 0.4834(5) 0.4879(9)
H48_2 H 0.8944 0.5005 0.3469
C58_2 C 0.9378(4) 0.4446(4) 0.4898(9)
O17 O 0.4503(2) 0.3617(3) 0.2805(5)
O18 O 0.4363(3) 0.3490(3) 0.1224(6)
C60 C 0.7988(4) 0.0260(4) 0.1701(8)
C61 C 0.7850(3) 0.0469(4) 0.2566(7)
H49 H 0.8017 0.0379 0.3157
C62 C 0.7474(4) 0.0804(5) 0.2575(8)
H50 H 0.7391 0.0947 0.3166
C63 C 0.7228(4) 0.0926(5) 0.1746(9)
C64 C 0.7344(4) 0.0717(5) 0.0892(10)
H51 H 0.7163 0.0791 0.0311
C65 C 0.7730(4) 0.0394(4) 0.0880(9)
H52 H 0.7815 0.0264 0.0281
C66 C 0.6824(4) 0.1282(5) 0.1774(8)
C67 C 0.6874(4) 0.1827(5) 0.1828(9)
C68 C 0.6472(5) 0.2150(5) 0.1939(10)
C69 C 0.6051(5) 0.1895(7) 0.1997(9)
C70 C 0.6008(5) 0.1366(7) 0.1956(10)
C71 C 0.6400(4) 0.1041(6) 0.1806(9)
C72 C 0.7366(5) 0.2077(5) 0.1800(10)
H53 H 0.7451 0.2261 0.2408
H54 H 0.7365 0.2329 0.1266
H55 H 0.7587 0.1796 0.1709
C73 C 0.6547(6) 0.2743(5) 0.1945(11)
H56 H 0.6721 0.2847 0.2545
H57 H 0.6252 0.2924 0.1895
H58 H 0.6716 0.2843 0.1397
C74 C 0.5548(4) 0.1081(6) 0.2045(11)
H59 H 0.5457 0.0893 0.1445
H60 H 0.5315 0.1343 0.2169
H61 H 0.5581 0.0828 0.2579
C75 C 0.6349(6) 0.0476(6) 0.1689(11)
H62 H 0.6245 0.0323 0.2278
H63 H 0.6642 0.0320 0.1564
H64 H 0.6125 0.0402 0.1147
C76 C 0.5645(4) 0.2253(5) 0.2068(10)
C77 C 0.5539(4) 0.2510(5) 0.2880(9)
H65 H 0.5716 0.2440 0.3466
C78 C 0.5195(4) 0.2858(5) 0.2889(9)
H66 H 0.5135 0.3031 0.3470
C79 C 0.4929(4) 0.2963(5) 0.2044(9)
C80 C 0.4988(4) 0.2673(5) 0.1245(9)
H67 H 0.4777 0.2710 0.0695
C81 C 0.5345(4) 0.2329(5) 0.1217(9)
H68 H 0.5393 0.2144 0.0642
C82 C 0.4579(4) 0.3389(5) 0.2026(9)
Zn12 Zn 0.39753(3) 0.41621(4) 0.08379(6)
Zn13 Zn 0.40257(3) 0.41908(4) 0.29177(6)
C93 C 0.6285(5) 0.7792(6) 0.1359(11)
H77 H 0.6068 0.7915 0.1805
C94 C 0.5547(4) 0.7030(8) 0.1359(12)
H78 H 0.5367 0.6881 0.1852
C95 C 0.7431(6) 0.6315(6) 0.2012(13)
H79 H 0.7623 0.6509 0.1591
C96 C 0.5683(4) 0.5552(5) 0.1081(8)
H80 H 0.5859 0.5555 0.0542
C97 C 0.5336(3) 0.5191(5) 0.1112(8)
C98 C 0.6693(6) 0.5555(5) 0.2081(13)
H81 H 0.6410 0.5379 0.2218
C99 C 0.6605(5) 0.6135(5) 0.1916(10)
H82 H 0.5540 0.7417 0.1395
C100 C 0.5058(4) 0.5190(5) 0.1937(9)
C101 C 0.5194(3) 0.5525(4) 0.2705(8)
H83 H 0.5044 0.5505 0.3280
H84 H 0.7540 0.6379 0.2685
C102 C 0.5780(5) 0.5911(6) 0.1814(9)
C103 C 0.5539(4) 0.5882(5) 0.2642(8)
H85 H 0.6569 0.7993 0.1467
H86 H 0.5618 0.6114 0.3166
C104 C 0.4668(4) 0.4836(5) 0.1947(8)
H87 H 0.5277 0.4944 0.0604
H88 H 0.6155 0.7845 0.0695
H89 H 0.5419 0.6916 0.0721
H90 H 0.6921 0.5508 0.2628
H91 H 0.7445 0.5936 0.1874
C105 C 0.6953(5) 0.6501(6) 0.1838(9)
H92 H 0.6806 0.5399 0.1503
O21 O 0.9537(3) 0.9601(3) 0.1167(6)
O22 O 0.8441(3) 0.8696(4) 0.1024(5)
C106 C 0.8346(4) 0.8495(4) 0.1798(8)
C107 C 0.7486(4) 0.7544(5) 0.2571(8)
C108 C 0.7832(4) 0.7890(4) 0.2621(8)
H93 H 0.7993 0.7971 0.3221
C109 C 0.7949(4) 0.8126(4) 0.1786(8)
H94 H 0.7410 0.7373 0.3142
C110 C 0.6837(5) 0.7029(6) 0.1679(9)
C111 C 0.6383(4) 0.7200(5) 0.1530(9)
C112 C 0.6040(4) 0.6841(6) 0.1534(8)
C113 C 0.7366(5) 0.7663(5) 0.0872(8)
H95 H 0.7204 0.7588 0.0269
C114 C 0.6161(5) 0.6307(5) 0.1757(8)
C115 C 0.7714(5) 0.7995(5) 0.0885(10)
C116 C 0.7226(4) 0.7424(4) 0.1668(8)
H96 H 0.7805 0.8142 0.0305
Zn11 Zn 0.89753(3) 0.91621(4) 0.08379(6)
Zn14 Zn 0.90257(3) 0.91908(4) 0.29177(6)
O24 O 0.8549(2) 0.8614(3) 0.2624(5)
O25 O 0.9363(3) 0.8490(3) 0.1224(6)
O26 O 0.8535(3) 0.9766(4) 0.0944(6)
O27 O 0.4537(3) 0.4601(3) 0.1167(6)
O28 O 0.4519(2) 0.4740(3) 0.2732(6)
O15 O 0.8535(2) 0.9718(3) 0.2511(5)
N3 N 0.8999(2) 0.9209(4) 0.4369(4)
N4 N 0.8962(2) 0.9104(4) 0.9394(5)
C59 C 0.8389(4) 0.9880(4) 0.1730(10)
C83 C 0.8644(3) 0.9003(4) 0.4759(7)
H69 H 0.8399 0.8871 0.4343
C84 C 0.8614(3) 0.8970(4) 0.5759(6)
H70 H 0.8351 0.8830 0.6013
C85 C 0.8968(3) 0.9143(5) 0.6342(5)
C86 C 0.9332(4) 0.9359(5) 0.5921(7)
H71 H 0.9590 0.9483 0.6313
C87 C 0.9324(4) 0.9396(5) 0.4948(7)
H72 H 0.9570 0.9568 0.4680
C88 C 0.8963(3) 0.9134(5) 0.7395(5)
C89 C 0.8571(2) 0.9203(4) 0.7846(5)
H73 H 0.8291 0.9263 0.7472
C90 C 0.8578(3) 0.9185(4) 0.8838(6)
H74 H 0.8301 0.9231 0.9131
C91 C 0.9341(3) 0.8988(4) 0.8962(7)
H75 H 0.9607 0.8888 0.9350
C92 C 0.9356(3) 0.9010(5) 0.7981(7)
H76 H 0.9633 0.8940 0.7703
O20 O 0.9519(2) 0.9740(3) 0.2732(6)
O23 O 0.9503(2) 0.8617(3) 0.2805(5)
C93_2 C 0.1285(5) 0.2792(6) 0.1359(11)
H77_2 H 0.1068 0.2915 0.1805
C94_2 C 0.0547(4) 0.2030(8) 0.1359(12)
H78_2 H 0.0367 0.1881 0.1852
C95_2 C 0.2431(6) 0.1315(6) 0.2012(13)
H79_2 H 0.2623 0.1509 0.1591
C96_2 C 0.0683(4) 0.0552(5) 0.1081(8)
H80_2 H 0.0859 0.0555 0.0542
C97_2 C 0.0336(3) 0.0191(5) 0.1112(8)
C98_2 C 0.1693(6) 0.0555(5) 0.2081(13)
H81_2 H 0.1410 0.0379 0.2218
C99_2 C 0.1605(5) 0.1135(5) 0.1916(10)
H82_2 H 0.0540 0.2417 0.1395
C100_2 C 0.0058(4) 0.0190(5) 0.1937(9)
C101_2 C 0.0194(3) 0.0525(4) 0.2705(8)
H83_2 H 0.0044 0.0505 0.3280
H84_2 H 0.2540 0.1379 0.2685
C102_2 C 0.0780(5) 0.0911(6) 0.1814(9)
C103_2 C 0.0539(4) 0.0882(5) 0.2642(8)
H85_2 H 0.1569 0.2993 0.1467
H86_2 H 0.0618 0.1114 0.3166
H88_2 H 0.1155 0.2845 0.0695
H89_2 H 0.0419 0.1916 0.0721
H90_2 H 0.1921 0.0508 0.2628
H91_2 H 0.2445 0.0936 0.1874
C105_2 C 0.1953(5) 0.1501(6) 0.1838(9)
H92_2 H 0.1806 0.0399 0.1503
O22_2 O 0.3441(3) 0.3696(4) 0.1024(5)
C106_2 C 0.3346(4) 0.3495(4) 0.1798(8)
C107_2 C 0.2486(4) 0.2544(5) 0.2571(8)
C108_2 C 0.2832(4) 0.2890(4) 0.2621(8)
H93_2 H 0.2993 0.2971 0.3221
C109_2 C 0.2949(4) 0.3126(4) 0.1786(8)
H94_2 H 0.2410 0.2373 0.3142
C110_2 C 0.1837(5) 0.2029(6) 0.1679(9)
C111_2 C 0.1383(4) 0.2200(5) 0.1530(9)
C112_2 C 0.1040(4) 0.1841(6) 0.1534(8)
C113_2 C 0.2366(5) 0.2663(5) 0.0872(8)
H95_2 H 0.2204 0.2588 0.0269
C114_2 C 0.1161(5) 0.1307(5) 0.1757(8)
C115_2 C 0.2714(5) 0.2995(5) 0.0885(10)
C116_2 C 0.2226(4) 0.2424(4) 0.1668(8)
H96_2 H 0.2805 0.3142 0.0305
O24_2 O 0.3549(2) 0.3614(3) 0.2624(5)
O26_2 O 0.3535(3) 0.4766(4) 0.0944(6)
O15_2 O 0.3535(2) 0.4718(3) 0.2511(5)
N3_2 N 0.3999(2) 0.4209(4) 0.4369(4)
N4_2 N 0.3962(2) 0.4104(4) 0.9394(5)
C59_2 C 0.3389(4) 0.4880(4) 0.1730(10)
C60_2 C 0.2988(4) 0.5260(4) 0.1701(8)
C61_2 C 0.2850(3) 0.5469(4) 0.2566(7)
H49_2 H 0.3017 0.5379 0.3157
C62_2 C 0.2474(4) 0.5804(5) 0.2575(8)
H50_2 H 0.2391 0.5947 0.3166
C63_2 C 0.2228(4) 0.5926(5) 0.1746(9)
C64_2 C 0.2344(4) 0.5717(5) 0.0892(10)
H51_2 H 0.2163 0.5791 0.0311
C65_2 C 0.2730(4) 0.5394(4) 0.0880(9)
H52_2 H 0.2815 0.5264 0.0281
C66_2 C 0.1824(4) 0.6282(5) 0.1774(8)
C67_2 C 0.1874(4) 0.6827(5) 0.1828(9)
C68_2 C 0.1472(5) 0.7150(5) 0.1939(10)
C69_2 C 0.1051(5) 0.6895(7) 0.1997(9)
C70_2 C 0.1008(5) 0.6366(7) 0.1956(10)
C71_2 C 0.1400(4) 0.6041(6) 0.1806(9)
C72_2 C 0.2366(5) 0.7077(5) 0.1800(10)
H53_2 H 0.2451 0.7261 0.2408
H54_2 H 0.2365 0.7329 0.1266
H55_2 H 0.2587 0.6796 0.1709
C73_2 C 0.1547(6) 0.7743(5) 0.1945(11)
H56_2 H 0.1721 0.7847 0.2545
H57_2 H 0.1252 0.7924 0.1895
H58_2 H 0.1716 0.7843 0.1397
C74_2 C 0.0548(4) 0.6081(6) 0.2045(11)
H59_2 H 0.0457 0.5893 0.1445
H60_2 H 0.0315 0.6343 0.2169
H61_2 H 0.0581 0.5828 0.2579
C75_2 C 0.1349(6) 0.5476(6) 0.1689(11)
H62_2 H 0.1245 0.5323 0.2278
H63_2 H 0.1642 0.5320 0.1564
H64_2 H 0.1125 0.5402 0.1147
C76_2 C 0.0645(4) 0.7253(5) 0.2068(10)
C77_2 C 0.0539(4) 0.7510(5) 0.2880(9)
H65_2 H 0.0716 0.7440 0.3466
C78_2 C 0.0195(4) 0.7858(5) 0.2889(9)
H66_2 H 0.0135 0.8031 0.3470
C81_2 C 0.0345(4) 0.7329(5) 0.1217(9)
H68_2 H 0.0393 0.7144 0.0642
C83_2 C 0.3644(3) 0.4003(4) 0.4759(7)
H69_2 H 0.3399 0.3871 0.4343
C84_2 C 0.3614(3) 0.3970(4) 0.5759(6)
H70_2 H 0.3351 0.3830 0.6013
C85_2 C 0.3968(3) 0.4143(5) 0.6342(5)
C86_2 C 0.4332(4) 0.4359(5) 0.5921(7)
H71_2 H 0.4590 0.4483 0.6313
C87_2 C 0.4324(4) 0.4396(5) 0.4948(7)
H72_2 H 0.4570 0.4568 0.4680
C88_2 C 0.3963(3) 0.4134(5) 0.7395(5)
C89_2 C 0.3571(2) 0.4203(4) 0.7846(5)
H73_2 H 0.3291 0.4263 0.7472
C90_2 C 0.3578(3) 0.4185(4) 0.8838(6)
H74_2 H 0.3301 0.4231 0.9131
C91_2 C 0.4341(3) 0.3988(4) 0.8962(7)
H75_2 H 0.4607 0.3888 0.9350
C92_2 C 0.4356(3) 0.4010(5) 0.7981(7)
H76_2 H 0.4633 0.3940 0.7703
C79_2 C 0.9929(4) 0.7963(5) 0.2044(9)
C80_2 C 0.9988(4) 0.7673(5) 0.1245(9)
H67_2 H 0.9777 0.7710 0.0695
C82_2 C 0.9579(4) 0.8389(5) 0.2026(9)
C104_2 C 0.9668(4) 0.9836(5) 0.1947(8)
O17_2 O 0.5497(2) 0.3617(3) 0.7195(5)
O18_2 O 0.5637(3) 0.3490(3) 0.8776(6)
C60_3 C 0.2012(4) 0.0260(4) 0.8299(8)
C61_3 C 0.2150(3) 0.0469(4) 0.7434(7)
H49_3 H 0.1983 0.0379 0.6843
C62_3 C 0.2526(4) 0.0804(5) 0.7425(8)
H50_3 H 0.2609 0.0947 0.6834
C63_3 C 0.2772(4) 0.0926(5) 0.8254(9)
C64_3 C 0.2656(4) 0.0717(5) 0.9108(10)
H51_3 H 0.2837 0.0791 0.9689
C65_3 C 0.2270(4) 0.0394(4) 0.9120(9)
H52_3 H 0.2185 0.0264 0.9719
C66_3 C 0.3176(4) 0.1282(5) 0.8226(8)
C67_3 C 0.3126(4) 0.1827(5) 0.8172(9)
C68_3 C 0.3528(5) 0.2150(5) 0.8061(10)
C69_3 C 0.3949(5) 0.1895(7) 0.8003(9)
C70_3 C 0.3992(5) 0.1366(7) 0.8044(10)
C71_3 C 0.3600(4) 0.1041(6) 0.8194(9)
C72_3 C 0.2634(5) 0.2077(5) 0.8200(10)
H53_3 H 0.2549 0.2261 0.7592
H54_3 H 0.2635 0.2329 0.8734
H55_3 H 0.2413 0.1796 0.8291
C73_3 C 0.3453(6) 0.2743(5) 0.8055(11)
H56_3 H 0.3279 0.2847 0.7455
H57_3 H 0.3748 0.2924 0.8105
H58_3 H 0.3284 0.2843 0.8603
C74_3 C 0.4452(4) 0.1081(6) 0.7955(11)
H59_3 H 0.4543 0.0893 0.8555
H60_3 H 0.4685 0.1343 0.7831
H61_3 H 0.4419 0.0828 0.7421
C75_3 C 0.3651(6) 0.0476(6) 0.8311(11)
H62_3 H 0.3755 0.0323 0.7722
H63_3 H 0.3358 0.0320 0.8436
H64_3 H 0.3875 0.0402 0.8853
C76_3 C 0.4355(4) 0.2253(5) 0.7932(10)
C77_3 C 0.4461(4) 0.2510(5) 0.7120(9)
H65_3 H 0.4284 0.2440 0.6534
C78_3 C 0.4805(4) 0.2858(5) 0.7111(9)
H66_3 H 0.4865 0.3031 0.6530
C79_3 C 0.5071(4) 0.2963(5) 0.7956(9)
C80_3 C 0.5012(4) 0.2673(5) 0.8755(9)
H67_3 H 0.5223 0.2710 0.9305
C81_3 C 0.4655(4) 0.2329(5) 0.8783(9)
H68_3 H 0.4607 0.2144 0.9358
C82_3 C 0.5421(4) 0.3389(5) 0.7974(9)
Zn12_2 Zn 0.60247(3) 0.41621(4) 0.91621(6)
Zn13_2 Zn 0.59743(3) 0.41908(4) 0.70823(6)
Zn9 Zn 0.10247(3) 0.91621(4) 0.91621(6)
Zn10 Zn 0.09743(3) 0.91908(4) 0.70823(6)
O15_3 O 0.1465(2) 0.9718(3) 0.7489(5)
O16 O 0.1465(3) 0.9766(4) 0.9056(6)
O19 O 0.1451(2) 0.8614(3) 0.7376(5)
N3_3 N 0.1001(2) 0.9209(4) 0.5631(4)
N4_3 N 0.1038(2) 0.9104(4) 0.0606(5)
C59_3 C 0.1611(4) 0.9880(4) 0.8270(10)
C83_3 C 0.1356(3) 0.9003(4) 0.5241(7)
H69_3 H 0.1601 0.8871 0.5657
C84_3 C 0.1386(3) 0.8970(4) 0.4241(6)
H70_3 H 0.1649 0.8830 0.3987
C85_3 C 0.1032(3) 0.9143(5) 0.3658(5)
C86_3 C 0.0668(4) 0.9359(5) 0.4079(7)
H71_3 H 0.0410 0.9483 0.3687
C87_3 C 0.0676(4) 0.9396(5) 0.5052(7)
H72_3 H 0.0430 0.9568 0.5320
C88_3 C 0.1037(3) 0.9134(5) 0.2605(5)
C89_3 C 0.1429(2) 0.9203(4) 0.2154(5)
H73_3 H 0.1709 0.9263 0.2528
C90_3 C 0.1422(3) 0.9185(4) 0.1162(6)
H74_3 H 0.1699 0.9231 0.0869
C91_3 C 0.0659(3) 0.8988(4) 0.1038(7)
H75_3 H 0.0393 0.8888 0.0650
C92_3 C 0.0644(3) 0.9010(5) 0.2019(7)
H76_3 H 0.0367 0.8940 0.2297
O20_2 O 0.0481(2) 0.9740(3) 0.7268(6)
O23_2 O 0.0497(2) 0.8617(3) 0.7195(5)
C93_3 C 0.3715(5) 0.7792(6) 0.8641(11)
H77_3 H 0.3932 0.7915 0.8195
C94_3 C 0.4453(4) 0.7030(8) 0.8641(12)
H78_3 H 0.4633 0.6881 0.8148
C95_3 C 0.2569(6) 0.6315(6) 0.7988(13)
H79_3 H 0.2377 0.6509 0.8409
C96_3 C 0.4317(4) 0.5552(5) 0.8919(8)
H80_3 H 0.4141 0.5555 0.9458
C97_3 C 0.4664(3) 0.5191(5) 0.8888(8)
C98_3 C 0.3307(6) 0.5555(5) 0.7919(13)
H81_3 H 0.3590 0.5379 0.7782
C99_3 C 0.3395(5) 0.6135(5) 0.8084(10)
H82_3 H 0.4460 0.7417 0.8605
C100_3 C 0.4942(4) 0.5190(5) 0.8063(9)
C101_3 C 0.4806(3) 0.5525(4) 0.7295(8)
H83_3 H 0.4956 0.5505 0.6720
H84_3 H 0.2460 0.6379 0.7315
C102_3 C 0.4220(5) 0.5911(6) 0.8186(9)
C103_3 C 0.4461(4) 0.5882(5) 0.7358(8)
H85_3 H 0.3431 0.7993 0.8533
H86_3 H 0.4382 0.6114 0.6834
C104_3 C 0.5332(4) 0.4836(5) 0.8053(8)
H87_2 H 0.4723 0.4944 0.9396
H88_3 H 0.3845 0.7845 0.9305
H89_3 H 0.4581 0.6916 0.9279
H90_3 H 0.3079 0.5508 0.7372
H91_3 H 0.2555 0.5936 0.8126
C105_3 C 0.3047(5) 0.6501(6) 0.8162(9)
H92_3 H 0.3194 0.5399 0.8497
O21_2 O 0.0463(3) 0.9601(3) 0.8833(6)
O22_3 O 0.1559(3) 0.8696(4) 0.8976(5)
C106_3 C 0.1654(4) 0.8495(4) 0.8202(8)
C107_3 C 0.2514(4) 0.7544(5) 0.7429(8)
C108_3 C 0.2168(4) 0.7890(4) 0.7379(8)
H93_3 H 0.2007 0.7971 0.6779
C109_3 C 0.2051(4) 0.8126(4) 0.8214(8)
H94_3 H 0.2590 0.7373 0.6858
C110_3 C 0.3163(5) 0.7029(6) 0.8321(9)
C111_3 C 0.3617(4) 0.7200(5) 0.8470(9)
C112_3 C 0.3960(4) 0.6841(6) 0.8466(8)
C113_3 C 0.2634(5) 0.7663(5) 0.9128(8)
H95_3 H 0.2796 0.7588 0.9731
C114_3 C 0.3839(5) 0.6307(5) 0.8243(8)
C115_3 C 0.2286(5) 0.7995(5) 0.9115(10)
C116_3 C 0.2774(4) 0.7424(4) 0.8332(8)
H96_3 H 0.2195 0.8142 0.9695
O25_2 O 0.0637(3) 0.8490(3) 0.8776(6)
O27_2 O 0.5463(3) 0.4601(3) 0.8833(6)
O28_2 O 0.5481(2) 0.4740(3) 0.7268(6)
C79_4 C 0.0071(4) 0.7963(5) 0.7956(9)
C80_4 C 0.0012(4) 0.7673(5) 0.8755(9)
H67_4 H 0.0223 0.7710 0.9305
C82_4 C 0.0421(4) 0.8389(5) 0.7974(9)
C104_4 C 0.0332(4) 0.9836(5) 0.8053(8)
O15_4 O 0.6465(2) 0.4718(3) 0.7489(5)
O16_2 O 0.6465(3) 0.4766(4) 0.9056(6)
O19_2 O 0.6451(2) 0.3614(3) 0.7376(5)
N3_4 N 0.6001(2) 0.4209(4) 0.5631(4)
N4_4 N 0.6038(2) 0.4104(4) 0.0606(5)
C59_4 C 0.6611(4) 0.4880(4) 0.8270(10)
C60_4 C 0.7012(4) 0.5260(4) 0.8299(8)
C61_4 C 0.7150(3) 0.5469(4) 0.7434(7)
H49_4 H 0.6983 0.5379 0.6843
C62_4 C 0.7526(4) 0.5804(5) 0.7425(8)
H50_4 H 0.7609 0.5947 0.6834
C63_4 C 0.7772(4) 0.5926(5) 0.8254(9)
C64_4 C 0.7656(4) 0.5717(5) 0.9108(10)
H51_4 H 0.7837 0.5791 0.9689
C65_4 C 0.7270(4) 0.5394(4) 0.9120(9)
H52_4 H 0.7185 0.5264 0.9719
C66_4 C 0.8176(4) 0.6282(5) 0.8226(8)
C67_4 C 0.8126(4) 0.6827(5) 0.8172(9)
C68_4 C 0.8528(5) 0.7150(5) 0.8061(10)
C69_4 C 0.8949(5) 0.6895(7) 0.8003(9)
C70_4 C 0.8992(5) 0.6366(7) 0.8044(10)
C71_4 C 0.8600(4) 0.6041(6) 0.8194(9)
C72_4 C 0.7634(5) 0.7077(5) 0.8200(10)
H53_4 H 0.7549 0.7261 0.7592
H54_4 H 0.7635 0.7329 0.8734
H55_4 H 0.7413 0.6796 0.8291
C73_4 C 0.8453(6) 0.7743(5) 0.8055(11)
H56_4 H 0.8279 0.7847 0.7455
H57_4 H 0.8748 0.7924 0.8105
H58_4 H 0.8284 0.7843 0.8603
C74_4 C 0.9452(4) 0.6081(6) 0.7955(11)
H59_4 H 0.9543 0.5893 0.8555
H60_4 H 0.9685 0.6343 0.7831
H61_4 H 0.9419 0.5828 0.7421
C75_4 C 0.8651(6) 0.5476(6) 0.8311(11)
H62_4 H 0.8755 0.5323 0.7722
H63_4 H 0.8358 0.5320 0.8436
H64_4 H 0.8875 0.5402 0.8853
C76_4 C 0.9355(4) 0.7253(5) 0.7932(10)
C77_4 C 0.9461(4) 0.7510(5) 0.7120(9)
H65_4 H 0.9284 0.7440 0.6534
C78_4 C 0.9805(4) 0.7858(5) 0.7111(9)
H66_4 H 0.9865 0.8031 0.6530
C81_4 C 0.9655(4) 0.7329(5) 0.8783(9)
H68_4 H 0.9607 0.7144 0.9358
C83_4 C 0.6356(3) 0.4003(4) 0.5241(7)
H69_4 H 0.6601 0.3871 0.5657
C84_4 C 0.6386(3) 0.3970(4) 0.4241(6)
H70_4 H 0.6649 0.3830 0.3987
C85_4 C 0.6032(3) 0.4143(5) 0.3658(5)
C86_4 C 0.5668(4) 0.4359(5) 0.4079(7)
H71_4 H 0.5410 0.4483 0.3687
C87_4 C 0.5676(4) 0.4396(5) 0.5052(7)
H72_4 H 0.5430 0.4568 0.5320
C88_4 C 0.6037(3) 0.4134(5) 0.2605(5)
C89_4 C 0.6429(2) 0.4203(4) 0.2154(5)
H73_4 H 0.6709 0.4263 0.2528
C90_4 C 0.6422(3) 0.4185(4) 0.1162(6)
H74_4 H 0.6699 0.4231 0.0869
C91_4 C 0.5659(3) 0.3988(4) 0.1038(7)
H75_4 H 0.5393 0.3888 0.0650
C92_4 C 0.5644(3) 0.4010(5) 0.2019(7)
H76_4 H 0.5367 0.3940 0.2297
C93_4 C 0.8715(5) 0.2792(6) 0.8641(11)
H77_4 H 0.8932 0.2915 0.8195
C94_4 C 0.9453(4) 0.2030(8) 0.8641(12)
H78_4 H 0.9633 0.1881 0.8148
C95_4 C 0.7569(6) 0.1315(6) 0.7988(13)
H79_4 H 0.7377 0.1509 0.8409
C96_4 C 0.9317(4) 0.0552(5) 0.8919(8)
H80_4 H 0.9141 0.0555 0.9458
C97_4 C 0.9664(3) 0.0191(5) 0.8888(8)
C98_4 C 0.8307(6) 0.0555(5) 0.7919(13)
H81_4 H 0.8590 0.0379 0.7782
C99_4 C 0.8395(5) 0.1135(5) 0.8084(10)
H82_4 H 0.9460 0.2417 0.8605
C100_4 C 0.9942(4) 0.0190(5) 0.8063(9)
C101_4 C 0.9806(3) 0.0525(4) 0.7295(8)
H83_4 H 0.9956 0.0505 0.6720
H84_4 H 0.7460 0.1379 0.7315
C102_4 C 0.9220(5) 0.0911(6) 0.8186(9)
C103_4 C 0.9461(4) 0.0882(5) 0.7358(8)
H85_4 H 0.8431 0.2993 0.8533
H86_4 H 0.9382 0.1114 0.6834
H88_4 H 0.8845 0.2845 0.9305
H89_4 H 0.9581 0.1916 0.9279
H90_4 H 0.8079 0.0508 0.7372
H91_4 H 0.7555 0.0936 0.8126
C105_4 C 0.8047(5) 0.1501(6) 0.8162(9)
H92_4 H 0.8194 0.0399 0.8497
O22_4 O 0.6559(3) 0.3696(4) 0.8976(5)
C106_4 C 0.6654(4) 0.3495(4) 0.8202(8)
C107_4 C 0.7514(4) 0.2544(5) 0.7429(8)
C108_4 C 0.7168(4) 0.2890(4) 0.7379(8)
H93_4 H 0.7007 0.2971 0.6779
C109_4 C 0.7051(4) 0.3126(4) 0.8214(8)
H94_4 H 0.7590 0.2373 0.6858
C110_4 C 0.8163(5) 0.2029(6) 0.8321(9)
C111_4 C 0.8617(4) 0.2200(5) 0.8470(9)
C112_4 C 0.8960(4) 0.1841(6) 0.8466(8)
C113_4 C 0.7634(5) 0.2663(5) 0.9128(8)
H95_4 H 0.7796 0.2588 0.9731
C114_4 C 0.8839(5) 0.1307(5) 0.8243(8)
C115_4 C 0.7286(5) 0.2995(5) 0.9115(10)
C116_4 C 0.7774(4) 0.2424(4) 0.8332(8)
H96_4 H 0.7195 0.3142 0.9695
H87_3 H 0.0277 0.9944 0.0604
H87_4 H 0.9723 0.9944 0.9396
loop_
_geom_bond_atom_site_label_1
_geom_bond_atom_site_label_2
_geom_bond_site_symmetry_1
_geom_bond_site_symmetry_2
H1 C2 1_555 1_555
C5 C2 1_555 1_555
H3 C5 1_555 1_555
C32 C30 1_555 1_555
C34 C32 1_555 1_555
H26 C32 1_555 1_555
H28 C34 1_555 1_555
Zn2 N2 1_555 1_555
O6 Zn2 1_555 1_555
O8 Zn2 1_555 1_555
C35 O6 1_555 1_555
O2 C35 1_555 1_555
C36 C35 1_555 1_555
C37 C36 1_555 1_555
C38 C36 1_555 1_555
H29 C37 1_555 1_555
C39 C37 1_555 1_555
C40 C38 1_555 1_555
H30 C38 1_555 1_555
H31 C39 1_555 1_555
C41 C39 1_555 1_555
H32 C40 1_555 1_555
C42 C41 1_555 1_555
C43 C42 1_555 1_555
C44 C42 1_555 1_555
C45 C43 1_555 1_555
C46 C43 1_555 1_555
C47 C44 1_555 1_555
C48 C44 1_555 1_555
C49 C45 1_555 1_555
C50 C45 1_555 1_555
H33 C46 1_555 1_555
H34 C46 1_555 1_555
H35 C46 1_555 1_555
C51 C47 1_555 1_555
H36 C48 1_555 1_555
H37 C48 1_555 1_555
H38 C48 1_555 1_555
C52 C49 1_555 1_555
H39 C50 1_555 1_555
H40 C50 1_555 1_555
H41 C50 1_555 1_555
H43 C51 1_555 1_555
C53 C52 1_555 1_555
C54 C52 1_555 1_555
H45 C53 1_555 1_555
C56 C54 1_555 1_555
H46 C54 1_555 1_555
H48 C56 1_555 1_555
C34 N2 1_555 1_555
C40 C41 1_555 1_555
C47 C49 1_555 1_555
H47 C55 1_555 1_555
C57 C55 1_555 1_555
C58 C57 1_555 1_555
O13 C58 1_555 1_555
O14 C58 1_555 1_555
Zn7 O13 1_555 1_555
Zn8 O14 1_555 1_555
Zn1 O1 1_555 1_555
O1 C1 1_555 1_555
N1 Zn1 1_555 1_555
O3 Zn1 1_555 1_555
C1 C4 1_555 1_555
C3 N1 1_555 1_555
C4 C7 1_555 1_555
C6 C3 1_555 1_555
H2 C3 1_555 1_555
C7 H5 1_555 1_555
C8 C4 1_555 1_555
H4 C6 1_555 1_555
C10 C7 1_555 1_555
C11 C8 1_555 1_555
H6 C8 1_555 1_555
H7 C10 1_555 1_555
C12 C10 1_555 1_555
H8 C11 1_555 1_555
C13 C12 1_555 1_555
C14 C13 1_555 1_555
C15 C13 1_555 1_555
C16 C14 1_555 1_555
C17 C14 1_555 1_555
C18 C15 1_555 1_555
C19 C15 1_555 1_555
C20 C16 1_555 1_555
C21 C16 1_555 1_555
H9 C17 1_555 1_555
H10 C17 1_555 1_555
H11 C17 1_555 1_555
C22 C18 1_555 1_555
H12 C19 1_555 1_555
H13 C19 1_555 1_555
H14 C19 1_555 1_555
C23 C20 1_555 1_555
H15 C21 1_555 1_555
H16 C21 1_555 1_555
H17 C21 1_555 1_555
H19 C22 1_555 1_555
C24 C23 1_555 1_555
C25 C23 1_555 1_555
H21 C24 1_555 1_555
C27 C25 1_555 1_555
H22 C25 1_555 1_555
H24 C27 1_555 1_555
O5 C1 1_555 1_555
C6 C9 1_555 1_555
C11 C12 1_555 1_555
C18 C20 1_555 1_555
C33 C31 1_555 1_555
H25 C31 1_555 1_555
H27 C33 1_555 1_555
H23 C26 1_555 1_555
C28 C26 1_555 1_555
C29 C28 1_555 1_555
O11 C29 1_555 1_555
O12 C29 1_555 1_555
Zn8 O11 1_555 1_555
Zn7 O12 1_555 1_555
Zn7 O1_2 1_555 1_555
O1_2 C1_2 1_555 1_555
N1_2 Zn7 1_555 1_555
O2_2 Zn7 1_555 1_555
C1_2 C4_2 1_555 1_555
C2_2 N1_2 1_555 1_555
C3_2 N1_2 1_555 1_555
C4_2 C7_2 1_555 1_555
H1_2 C2_2 1_555 1_555
C5_2 C2_2 1_555 1_555
C6_2 C3_2 1_555 1_555
H2_2 C3_2 1_555 1_555
C7_2 H5_2 1_555 1_555
C8_2 C4_2 1_555 1_555
C9_2 C5_2 1_555 1_555
H3_2 C5_2 1_555 1_555
H4_2 C6_2 1_555 1_555
C10_2 C7_2 1_555 1_555
C11_2 C8_2 1_555 1_555
H6_2 C8_2 1_555 1_555
H7_2 C10_2 1_555 1_555
C12_2 C10_2 1_555 1_555
H8_2 C11_2 1_555 1_555
C13_2 C12_2 1_555 1_555
C14_2 C13_2 1_555 1_555
C15_2 C13_2 1_555 1_555
C16_2 C14_2 1_555 1_555
C17_2 C14_2 1_555 1_555
C18_2 C15_2 1_555 1_555
C19_2 C15_2 1_555 1_555
C20_2 C16_2 1_555 1_555
C21_2 C16_2 1_555 1_555
H9_2 C17_2 1_555 1_555
H10_2 C17_2 1_555 1_555
H11_2 C17_2 1_555 1_555
C22_2 C18_2 1_555 1_555
H12_2 C19_2 1_555 1_555
H13_2 C19_2 1_555 1_555
H14_2 C19_2 1_555 1_555
C23_2 C20_2 1_555 1_555
H15_2 C21_2 1_555 1_555
H16_2 C21_2 1_555 1_555
H17_2 C21_2 1_555 1_555
H18_2 C22_2 1_555 1_555
H19_2 C22_2 1_555 1_555
H20_2 C22_2 1_555 1_555
C24_2 C23_2 1_555 1_555
C25_2 C23_2 1_555 1_555
H21_2 C24_2 1_555 1_555
C26_2 C24_2 1_555 1_555
C27_2 C25_2 1_555 1_555
H22_2 C25_2 1_555 1_555
H23_2 C26_2 1_555 1_555
C28_2 C26_2 1_555 1_555
H24_2 C27_2 1_555 1_555
C29_2 C28_2 1_555 1_555
O5_2 C1_2 1_555 1_555
Zn8 O5_2 1_555 1_555
O8 C29_2 1_555 1_555
O4 C29_2 1_555 1_555
C6_2 C9_2 1_555 1_555
C11_2 C12_2 1_555 1_555
C18_2 C20_2 1_555 1_555
C27_2 C28_2 1_555 1_555
C31_2 C30_2 1_555 1_555
C32_2 C30_2 1_555 1_555
C33_2 C31_2 1_555 1_555
H25_2 C31_2 1_555 1_555
C34_2 C32_2 1_555 1_555
H26_2 C32_2 1_555 1_555
N2_2 C33_2 1_555 1_555
H27_2 C33_2 1_555 1_555
H28_2 C34_2 1_555 1_555
Zn8 N2_2 1_555 1_555
O6_2 Zn8 1_555 1_555
C35_2 O6_2 1_555 1_555
O2_2 C35_2 1_555 1_555
C36_2 C35_2 1_555 1_555
C37_2 C36_2 1_555 1_555
C38_2 C36_2 1_555 1_555
H29_2 C37_2 1_555 1_555
C39_2 C37_2 1_555 1_555
C40_2 C38_2 1_555 1_555
H30_2 C38_2 1_555 1_555
H31_2 C39_2 1_555 1_555
C41_2 C39_2 1_555 1_555
H32_2 C40_2 1_555 1_555
C42_2 C41_2 1_555 1_555
C43_2 C42_2 1_555 1_555
C44_2 C42_2 1_555 1_555
C45_2 C43_2 1_555 1_555
C46_2 C43_2 1_555 1_555
C47_2 C44_2 1_555 1_555
C48_2 C44_2 1_555 1_555
C49_2 C45_2 1_555 1_555
C50_2 C45_2 1_555 1_555
H33_2 C46_2 1_555 1_555
H34_2 C46_2 1_555 1_555
H35_2 C46_2 1_555 1_555
C51_2 C47_2 1_555 1_555
H36_2 C48_2 1_555 1_555
H37_2 C48_2 1_555 1_555
H38_2 C48_2 1_555 1_555
C52_2 C49_2 1_555 1_555
H39_2 C50_2 1_555 1_555
H40_2 C50_2 1_555 1_555
H41_2 C50_2 1_555 1_555
H42_2 C51_2 1_555 1_555
H43_2 C51_2 1_555 1_555
H44_2 C51_2 1_555 1_555
C53_2 C52_2 1_555 1_555
C54_2 C52_2 1_555 1_555
H45_2 C53_2 1_555 1_555
C55_2 C53_2 1_555 1_555
C56_2 C54_2 1_555 1_555
H46_2 C54_2 1_555 1_555
H47_2 C55_2 1_555 1_555
C57_2 C55_2 1_555 1_555
H48_2 C56_2 1_555 1_555
C58_2 C57_2 1_555 1_555
O3 C58_2 1_555 1_555
O9 C58_2 1_555 1_555
C34_2 N2_2 1_555 1_555
C40_2 C41_2 1_555 1_555
C47_2 C49_2 1_555 1_555
C56_2 C57_2 1_555 1_555
O17 C82 1_555 1_555
O18 C82 1_555 1_555
C60 C61 1_555 1_555
C61 H49 1_555 1_555
C62 C61 1_555 1_555
H50 C62 1_555 1_555
C63 C62 1_555 1_555
C64 C63 1_555 1_555
H51 C64 1_555 1_555
C65 C60 1_555 1_555
H52 C65 1_555 1_555
C66 C63 1_555 1_555
C67 C66 1_555 1_555
C68 C67 1_555 1_555
C69 C68 1_555 1_555
C70 C69 1_555 1_555
C71 C66 1_555 1_555
C72 C67 1_555 1_555
H53 C72 1_555 1_555
H54 C72 1_555 1_555
H55 C72 1_555 1_555
C73 C68 1_555 1_555
H56 C73 1_555 1_555
H57 C73 1_555 1_555
H58 C73 1_555 1_555
C74 C70 1_555 1_555
H59 C74 1_555 1_555
H60 C74 1_555 1_555
H61 C74 1_555 1_555
C75 C71 1_555 1_555
H62 C75 1_555 1_555
H63 C75 1_555 1_555
H64 C75 1_555 1_555
C76 C69 1_555 1_555
C77 C76 1_555 1_555
H65 C77 1_555 1_555
C78 C77 1_555 1_555
H66 C78 1_555 1_555
C79 C78 1_555 1_555
C80 C79 1_555 1_555
H67 C80 1_555 1_555
C81 C76 1_555 1_555
H68 C81 1_555 1_555
C82 C79 1_555 1_555
Zn12 O18 1_555 1_555
Zn13 O17 1_555 1_555
C64 C65 1_555 1_555
C70 C71 1_555 1_555
C80 C81 1_555 1_555
C93 H77 1_555 1_555
C94 H78 1_555 1_555
C95 H79 1_555 1_555
C96 H80 1_555 1_555
C97 C96 1_555 1_555
C98 H81 1_555 1_555
C99 C98 1_555 1_555
H82 C94 1_555 1_555
C100 C97 1_555 1_555
C101 C100 1_555 1_555
H83 C101 1_555 1_555
H84 C95 1_555 1_555
C102 C96 1_555 1_555
C103 C101 1_555 1_555
H85 C93 1_555 1_555
H86 C103 1_555 1_555
C104 C100 1_555 1_555
H87 C97 1_555 1_555
H88 C93 1_555 1_555
H89 C94 1_555 1_555
H90 C98 1_555 1_555
H91 C95 1_555 1_555
C105 C95 1_555 1_555
H92 C98 1_555 1_555
O21 Zn11 1_555 1_555
O22 C106 1_555 1_555
C106 C109 1_555 1_555
C107 C108 1_555 1_555
C108 H93 1_555 1_555
C109 C108 1_555 1_555
H94 C107 1_555 1_555
C110 C105 1_555 1_555
C111 C93 1_555 1_555
C112 C94 1_555 1_555
C113 H95 1_555 1_555
C114 C99 1_555 1_555
C115 C109 1_555 1_555
C116 C107 1_555 1_555
H96 C115 1_555 1_555
Zn14 O24 1_555 1_555
O24 C106 1_555 1_555
O25 Zn11 1_555 1_555
O26 Zn11 1_555 1_555
O27 C104 1_555 1_555
Zn12 O27 1_555 1_555
O28 C104 1_555 1_555
Zn13 O28 1_555 1_555
C99 C105 1_555 1_555
C102 C103 1_555 1_555
C102 C114 1_555 1_555
O22 Zn11 1_555 1_555
C110 C111 1_555 1_555
C110 C116 1_555 1_555
C111 C112 1_555 1_555
C112 C114 1_555 1_555
C113 C115 1_555 1_555
C113 C116 1_555 1_555
Zn14 O15 1_555 1_555
O15 C59 1_555 1_555
O26 C59 1_555 1_555
N3 Zn14 1_555 1_555
N4 C90 1_555 1_555
C83 N3 1_555 1_555
H69 C83 1_555 1_555
C84 C83 1_555 1_555
H70 C84 1_555 1_555
C85 C84 1_555 1_555
C86 C85 1_555 1_555
H71 C86 1_555 1_555
C87 N3 1_555 1_555
H72 C87 1_555 1_555
C88 C85 1_555 1_555
C89 C88 1_555 1_555
H73 C89 1_555 1_555
C90 C89 1_555 1_555
H74 C90 1_555 1_555
C91 N4 1_555 1_555
H75 C91 1_555 1_555
C92 C88 1_555 1_555
H76 C92 1_555 1_555
O20 Zn14 1_555 1_555
O23 Zn14 1_555 1_555
C86 C87 1_555 1_555
C91 C92 1_555 1_555
C93_2 H77_2 1_555 1_555
C94_2 H78_2 1_555 1_555
C95_2 H79_2 1_555 1_555
C96_2 H80_2 1_555 1_555
C97_2 C96_2 1_555 1_555
C98_2 H81_2 1_555 1_555
C99_2 C98_2 1_555 1_555
H82_2 C94_2 1_555 1_555
C100_2 C97_2 1_555 1_555
C101_2 C100_2 1_555 1_555
H83_2 C101_2 1_555 1_555
H84_2 C95_2 1_555 1_555
C102_2 C96_2 1_555 1_555
C103_2 C101_2 1_555 1_555
H85_2 C93_2 1_555 1_555
H86_2 C103_2 1_555 1_555
H88_2 C93_2 1_555 1_555
H89_2 C94_2 1_555 1_555
H90_2 C98_2 1_555 1_555
H91_2 C95_2 1_555 1_555
C105_2 C95_2 1_555 1_555
H92_2 C98_2 1_555 1_555
O22_2 C106_2 1_555 1_555
C106_2 C109_2 1_555 1_555
C107_2 C108_2 1_555 1_555
C108_2 H93_2 1_555 1_555
C109_2 C108_2 1_555 1_555
H94_2 C107_2 1_555 1_555
C110_2 C105_2 1_555 1_555
C111_2 C93_2 1_555 1_555
C112_2 C94_2 1_555 1_555
C113_2 H95_2 1_555 1_555
C114_2 C99_2 1_555 1_555
C115_2 C109_2 1_555 1_555
C116_2 C107_2 1_555 1_555
H96_2 C115_2 1_555 1_555
Zn13 O24_2 1_555 1_555
O24_2 C106_2 1_555 1_555
O26_2 Zn12 1_555 1_555
C99_2 C105_2 1_555 1_555
C102_2 C103_2 1_555 1_555
C102_2 C114_2 1_555 1_555
O22_2 Zn12 1_555 1_555
C110_2 C111_2 1_555 1_555
C110_2 C116_2 1_555 1_555
C111_2 C112_2 1_555 1_555
C112_2 C114_2 1_555 1_555
C113_2 C115_2 1_555 1_555
C113_2 C116_2 1_555 1_555
Zn13 O15_2 1_555 1_555
O15_2 C59_2 1_555 1_555
O26_2 C59_2 1_555 1_555
N3_2 Zn13 1_555 1_555
N4_2 C90_2 1_555 1_555
C59_2 C60_2 1_555 1_555
C60_2 C61_2 1_555 1_555
C61_2 H49_2 1_555 1_555
C62_2 C61_2 1_555 1_555
H50_2 C62_2 1_555 1_555
C63_2 C62_2 1_555 1_555
C64_2 C63_2 1_555 1_555
H51_2 C64_2 1_555 1_555
C65_2 C60_2 1_555 1_555
H52_2 C65_2 1_555 1_555
C66_2 C63_2 1_555 1_555
C67_2 C66_2 1_555 1_555
C68_2 C67_2 1_555 1_555
C69_2 C68_2 1_555 1_555
C70_2 C69_2 1_555 1_555
C71_2 C66_2 1_555 1_555
C72_2 C67_2 1_555 1_555
H53_2 C72_2 1_555 1_555
H54_2 C72_2 1_555 1_555
H55_2 C72_2 1_555 1_555
C73_2 C68_2 1_555 1_555
H56_2 C73_2 1_555 1_555
H57_2 C73_2 1_555 1_555
H58_2 C73_2 1_555 1_555
C74_2 C70_2 1_555 1_555
H59_2 C74_2 1_555 1_555
H60_2 C74_2 1_555 1_555
H61_2 C74_2 1_555 1_555
C75_2 C71_2 1_555 1_555
H62_2 C75_2 1_555 1_555
H63_2 C75_2 1_555 1_555
H64_2 C75_2 1_555 1_555
C76_2 C69_2 1_555 1_555
C77_2 C76_2 1_555 1_555
H65_2 C77_2 1_555 1_555
C78_2 C77_2 1_555 1_555
H66_2 C78_2 1_555 1_555
C81_2 C76_2 1_555 1_555
H68_2 C81_2 1_555 1_555
C83_2 N3_2 1_555 1_555
H69_2 C83_2 1_555 1_555
C84_2 C83_2 1_555 1_555
H70_2 C84_2 1_555 1_555
C85_2 C84_2 1_555 1_555
C86_2 C85_2 1_555 1_555
H71_2 C86_2 1_555 1_555
C87_2 N3_2 1_555 1_555
H72_2 C87_2 1_555 1_555
C88_2 C85_2 1_555 1_555
C89_2 C88_2 1_555 1_555
H73_2 C89_2 1_555 1_555
C90_2 C89_2 1_555 1_555
H74_2 C90_2 1_555 1_555
C91_2 N4_2 1_555 1_555
H75_2 C91_2 1_555 1_555
C92_2 C88_2 1_555 1_555
H76_2 C92_2 1_555 1_555
C64_2 C65_2 1_555 1_555
C70_2 C71_2 1_555 1_555
C86_2 C87_2 1_555 1_555
C91_2 C92_2 1_555 1_555
O23 C82_2 1_555 1_555
O25 C82_2 1_555 1_555
C80_2 C79_2 1_555 1_555
H67_2 C80_2 1_555 1_555
C82_2 C79_2 1_555 1_555
O21 C104_2 1_555 1_555
O20 C104_2 1_555 1_555
O17_2 C82_3 1_555 1_555
O18_2 C82_3 1_555 1_555
C60_3 C61_3 1_555 1_555
C61_3 H49_3 1_555 1_555
C62_3 C61_3 1_555 1_555
H50_3 C62_3 1_555 1_555
C63_3 C62_3 1_555 1_555
C64_3 C63_3 1_555 1_555
H51_3 C64_3 1_555 1_555
C65_3 C60_3 1_555 1_555
H52_3 C65_3 1_555 1_555
C66_3 C63_3 1_555 1_555
C67_3 C66_3 1_555 1_555
C68_3 C67_3 1_555 1_555
C69_3 C68_3 1_555 1_555
C70_3 C69_3 1_555 1_555
C71_3 C66_3 1_555 1_555
C72_3 C67_3 1_555 1_555
H53_3 C72_3 1_555 1_555
H54_3 C72_3 1_555 1_555
H55_3 C72_3 1_555 1_555
C73_3 C68_3 1_555 1_555
H56_3 C73_3 1_555 1_555
H57_3 C73_3 1_555 1_555
H58_3 C73_3 1_555 1_555
C74_3 C70_3 1_555 1_555
H59_3 C74_3 1_555 1_555
H60_3 C74_3 1_555 1_555
H61_3 C74_3 1_555 1_555
C75_3 C71_3 1_555 1_555
H62_3 C75_3 1_555 1_555
H63_3 C75_3 1_555 1_555
H64_3 C75_3 1_555 1_555
C76_3 C69_3 1_555 1_555
C77_3 C76_3 1_555 1_555
H65_3 C77_3 1_555 1_555
C78_3 C77_3 1_555 1_555
H66_3 C78_3 1_555 1_555
C79_3 C78_3 1_555 1_555
C80_3 C79_3 1_555 1_555
H67_3 C80_3 1_555 1_555
C81_3 C76_3 1_555 1_555
H68_3 C81_3 1_555 1_555
C82_3 C79_3 1_555 1_555
Zn12_2 O18_2 1_555 1_555
Zn13_2 O17_2 1_555 1_555
C64_3 C65_3 1_555 1_555
C70_3 C71_3 1_555 1_555
C80_3 C81_3 1_555 1_555
Zn9 O16 1_555 1_555
Zn10 O15_3 1_555 1_555
O15_3 C59_3 1_555 1_555
O16 C59_3 1_555 1_555
O19 Zn10 1_555 1_555
N3_3 Zn10 1_555 1_555
N4_3 C90_3 1_555 1_555
C83_3 N3_3 1_555 1_555
H69_3 C83_3 1_555 1_555
C84_3 C83_3 1_555 1_555
H70_3 C84_3 1_555 1_555
C85_3 C84_3 1_555 1_555
C86_3 C85_3 1_555 1_555
H71_3 C86_3 1_555 1_555
C87_3 N3_3 1_555 1_555
H72_3 C87_3 1_555 1_555
C88_3 C85_3 1_555 1_555
C89_3 C88_3 1_555 1_555
H73_3 C89_3 1_555 1_555
C90_3 C89_3 1_555 1_555
H74_3 C90_3 1_555 1_555
C91_3 N4_3 1_555 1_555
H75_3 C91_3 1_555 1_555
C92_3 C88_3 1_555 1_555
H76_3 C92_3 1_555 1_555
O20_2 Zn10 1_555 1_555
O23_2 Zn10 1_555 1_555
C86_3 C87_3 1_555 1_555
C91_3 C92_3 1_555 1_555
C93_3 H77_3 1_555 1_555
C94_3 H78_3 1_555 1_555
C95_3 H79_3 1_555 1_555
C96_3 H80_3 1_555 1_555
C97_3 C96_3 1_555 1_555
C98_3 H81_3 1_555 1_555
C99_3 C98_3 1_555 1_555
H82_3 C94_3 1_555 1_555
C100_3 C97_3 1_555 1_555
C101_3 C100_3 1_555 1_555
H83_3 C101_3 1_555 1_555
H84_3 C95_3 1_555 1_555
C102_3 C96_3 1_555 1_555
C103_3 C101_3 1_555 1_555
H85_3 C93_3 1_555 1_555
H86_3 C103_3 1_555 1_555
C104_3 C100_3 1_555 1_555
H87_2 C97_3 1_555 1_555
H88_3 C93_3 1_555 1_555
H89_3 C94_3 1_555 1_555
H90_3 C98_3 1_555 1_555
H91_3 C95_3 1_555 1_555
C105_3 C95_3 1_555 1_555
H92_3 C98_3 1_555 1_555
O21_2 Zn9 1_555 1_555
O22_3 C106_3 1_555 1_555
C106_3 C109_3 1_555 1_555
C107_3 C108_3 1_555 1_555
C108_3 H93_3 1_555 1_555
C109_3 C108_3 1_555 1_555
H94_3 C107_3 1_555 1_555
C110_3 C105_3 1_555 1_555
C111_3 C93_3 1_555 1_555
C112_3 C94_3 1_555 1_555
C113_3 H95_3 1_555 1_555
C114_3 C99_3 1_555 1_555
C115_3 C109_3 1_555 1_555
C116_3 C107_3 1_555 1_555
H96_3 C115_3 1_555 1_555
O19 C106_3 1_555 1_555
O25_2 Zn9 1_555 1_555
O27_2 C104_3 1_555 1_555
Zn12_2 O27_2 1_555 1_555
O28_2 C104_3 1_555 1_555
Zn13_2 O28_2 1_555 1_555
C99_3 C105_3 1_555 1_555
C102_3 C103_3 1_555 1_555
C102_3 C114_3 1_555 1_555
O22_3 Zn9 1_555 1_555
C110_3 C111_3 1_555 1_555
C110_3 C116_3 1_555 1_555
C111_3 C112_3 1_555 1_555
C112_3 C114_3 1_555 1_555
C113_3 C115_3 1_555 1_555
C113_3 C116_3 1_555 1_555
O23_2 C82_4 1_555 1_555
O25_2 C82_4 1_555 1_555
C80_4 C79_4 1_555 1_555
H67_4 C80_4 1_555 1_555
C82_4 C79_4 1_555 1_555
O21_2 C104_4 1_555 1_555
O20_2 C104_4 1_555 1_555
Zn12_2 O16_2 1_555 1_555
Zn13_2 O15_4 1_555 1_555
O15_4 C59_4 1_555 1_555
O16_2 C59_4 1_555 1_555
O19_2 Zn13_2 1_555 1_555
N3_4 Zn13_2 1_555 1_555
N4_4 C90_4 1_555 1_555
C59_4 C60_4 1_555 1_555
C60_4 C61_4 1_555 1_555
C61_4 H49_4 1_555 1_555
C62_4 C61_4 1_555 1_555
H50_4 C62_4 1_555 1_555
C63_4 C62_4 1_555 1_555
C64_4 C63_4 1_555 1_555
H51_4 C64_4 1_555 1_555
C65_4 C60_4 1_555 1_555
H52_4 C65_4 1_555 1_555
C66_4 C63_4 1_555 1_555
C67_4 C66_4 1_555 1_555
C68_4 C67_4 1_555 1_555
C69_4 C68_4 1_555 1_555
C70_4 C69_4 1_555 1_555
C71_4 C66_4 1_555 1_555
C72_4 C67_4 1_555 1_555
H53_4 C72_4 1_555 1_555
H54_4 C72_4 1_555 1_555
H55_4 C72_4 1_555 1_555
C73_4 C68_4 1_555 1_555
H56_4 C73_4 1_555 1_555
H57_4 C73_4 1_555 1_555
H58_4 C73_4 1_555 1_555
C74_4 C70_4 1_555 1_555
H59_4 C74_4 1_555 1_555
H60_4 C74_4 1_555 1_555
H61_4 C74_4 1_555 1_555
C75_4 C71_4 1_555 1_555
H62_4 C75_4 1_555 1_555
H63_4 C75_4 1_555 1_555
H64_4 C75_4 1_555 1_555
C76_4 C69_4 1_555 1_555
C77_4 C76_4 1_555 1_555
H65_4 C77_4 1_555 1_555
C78_4 C77_4 1_555 1_555
H66_4 C78_4 1_555 1_555
C81_4 C76_4 1_555 1_555
H68_4 C81_4 1_555 1_555
C83_4 N3_4 1_555 1_555
H69_4 C83_4 1_555 1_555
C84_4 C83_4 1_555 1_555
H70_4 C84_4 1_555 1_555
C85_4 C84_4 1_555 1_555
C86_4 C85_4 1_555 1_555
H71_4 C86_4 1_555 1_555
C87_4 N3_4 1_555 1_555
H72_4 C87_4 1_555 1_555
C88_4 C85_4 1_555 1_555
C89_4 C88_4 1_555 1_555
H73_4 C89_4 1_555 1_555
C90_4 C89_4 1_555 1_555
H74_4 C90_4 1_555 1_555
C91_4 N4_4 1_555 1_555
H75_4 C91_4 1_555 1_555
C92_4 C88_4 1_555 1_555
H76_4 C92_4 1_555 1_555
C64_4 C65_4 1_555 1_555
C70_4 C71_4 1_555 1_555
C86_4 C87_4 1_555 1_555
C91_4 C92_4 1_555 1_555
C93_4 H77_4 1_555 1_555
C94_4 H78_4 1_555 1_555
C95_4 H79_4 1_555 1_555
C96_4 H80_4 1_555 1_555
C97_4 C96_4 1_555 1_555
C98_4 H81_4 1_555 1_555
C99_4 C98_4 1_555 1_555
H82_4 C94_4 1_555 1_555
C100_4 C97_4 1_555 1_555
C101_4 C100_4 1_555 1_555
H83_4 C101_4 1_555 1_555
H84_4 C95_4 1_555 1_555
C102_4 C96_4 1_555 1_555
C103_4 C101_4 1_555 1_555
H85_4 C93_4 1_555 1_555
H86_4 C103_4 1_555 1_555
H88_4 C93_4 1_555 1_555
H89_4 C94_4 1_555 1_555
H90_4 C98_4 1_555 1_555
H91_4 C95_4 1_555 1_555
C105_4 C95_4 1_555 1_555
H92_4 C98_4 1_555 1_555
O22_4 C106_4 1_555 1_555
C106_4 C109_4 1_555 1_555
C107_4 C108_4 1_555 1_555
C108_4 H93_4 1_555 1_555
C109_4 C108_4 1_555 1_555
H94_4 C107_4 1_555 1_555
C110_4 C105_4 1_555 1_555
C111_4 C93_4 1_555 1_555
C112_4 C94_4 1_555 1_555
C113_4 H95_4 1_555 1_555
C114_4 C99_4 1_555 1_555
C115_4 C109_4 1_555 1_555
C116_4 C107_4 1_555 1_555
H96_4 C115_4 1_555 1_555
O19_2 C106_4 1_555 1_555
C99_4 C105_4 1_555 1_555
C102_4 C103_4 1_555 1_555
C102_4 C114_4 1_555 1_555
O22_4 Zn12_2 1_555 1_555
C110_4 C111_4 1_555 1_555
C110_4 C116_4 1_555 1_555
C111_4 C112_4 1_555 1_555
C112_4 C114_4 1_555 1_555
C113_4 C115_4 1_555 1_555
C113_4 C116_4 1_555 1_555

#END
