
###############################################################################
#
# This file contains modified crystal structure data generated from the
# MOF subset of the Cambridge Structural Database (CSD) v543 
# hosted by the Cambridge Crystallographic Data Centre (CCDC).
#
# This work is licensed under the Creative Commons
# Attribution-NonCommercial-ShareAlike 4.0 International License.
# To view a copy of this license, visit
# http://creativecommons.org/licenses/by-nc-sa/4.0/
# or send a letter to
# Creative Commons, PO Box 1866, Mountain View, CA 94042, USA.
#
# CIF created using the CSD Python API on 29 September 2022
# The structure has been converted into the P1 space group
# The structure has a 3D framework
# The original CSD entry QUGQUH is in the cubic crystal system
# The framework has been calculated to contain at least 10.0% void space
# The void calculation uses a probe of radius 1.32A, grid spacing 0.4
# H atom positions have been added when not included in the experimental data
#
###############################################################################

data_QUGQUH
_chemical_formula_moiety         '(C1152 H1344 Cr48 Er96 N192 O744)n'
_symmetry_cell_setting           triclinic
_symmetry_space_group_name_H-M   'P 1'
_symmetry_Int_Tables_number      1
_space_group_name_Hall           'P 1'
loop_
_symmetry_equiv_pos_site_id
_symmetry_equiv_pos_as_xyz
1 x,y,z
_cell_length_a                   41.064(3)
_cell_length_b                   41.064(3)
_cell_length_c                   41.064(3)
_cell_angle_alpha                90
_cell_angle_beta                 90
_cell_angle_gamma                90
_cell_volume                     69244.3
loop_
_atom_site_label
_atom_site_type_symbol
_atom_site_fract_x
_atom_site_fract_y
_atom_site_fract_z
Er1 Er 0.46708(2) 0.28760(2) 0.04694(2)
Cr1 Cr 0.47305(4) 0.22597(5) 0.10070(5)
O1 O 0.47874(18) 0.27415(19) 0.1015(2)
O2 O 0.5325(2) 0.3223(2) 0.0996(2)
O4 O 0.4757(2) 0.2293(2) 0.0530(2)
O5 O 0.4999(2) 0.3357(2) 0.0572(2)
O6 O 0.3343(2) 0.3131(2) 0.0136(2)
N1 N 0.5370(4) 0.4302(4) 0.0598(4)
N2 N 0.4325(2) 0.3279(3) 0.0130(3)
C1 C 0.5548(4) 0.4377(4) 0.0883(5)
H1 H 0.561122 0.459201 0.091525
C2 C 0.5630(4) 0.4162(3) 0.1104(4)
H2 H 0.575844 0.422184 0.127997
C3 C 0.5527(3) 0.3861(3) 0.1073(4)
H3 H 0.557670 0.371135 0.123567
C4 C 0.5344(3) 0.3759(3) 0.0801(3)
C5 C 0.5264(4) 0.3985(3) 0.0564(4)
H4 H 0.514035 0.392371 0.038369
C6 C 0.5212(3) 0.3424(3) 0.0785(3)
C11 C 0.4011(3) 0.3229(3) 0.0121(3)
H8 H 0.392517 0.306928 0.025647
O8 O 0.4360(2) 0.3260(2) 0.0840(3)
Er2 Er 0.53292(2) 0.21240(2) 0.04694(2)
Er3 Er 0.28292(2) 0.29694(2) 0.03760(2)
Cr2 Cr 0.52695(4) 0.27403(5) 0.10070(5)
Cr4 Cr 0.47597(5) 0.27695(4) 0.14930(5)
O10 O 0.52126(18) 0.22585(19) 0.1015(2)
O11 O 0.47585(19) 0.22874(18) 0.1485(2)
O12 O 0.4675(2) 0.1777(2) 0.0996(2)
O13 O 0.42403(19) 0.2266(2) 0.1019(2)
O14 O 0.5243(2) 0.2707(2) 0.0530(2)
O15 O 0.4157(2) 0.2636(2) 0.0631(2)
H9 H 0.420202 0.252746 0.00307212
H13 H 0.451609 0.338297 0.0977804
H14 H 0.42314 0.341487 0.0706007
O3 O 0.32597(19) 0.3519(2) 0.9766(2)
C7 C 0.4456(3) 0.3506(4) 0.9933(4)
H5 H 0.467958 0.354024 0.993465
C8 C 0.4262(4) 0.3688(4) 0.9731(5)
H6 H 0.435373 0.385047 0.960269
C9 C 0.3936(3) 0.3632(4) 0.9717(4)
H7 H 0.380766 0.374773 0.957082
C10 C 0.3796(3) 0.3402(3) 0.9921(3)
C12 C 0.3438(3) 0.3347(3) 0.9937(3)
O7 O 0.4959(3) 0.2966(4) 0.9946(3)
O9 O 0.4428(3) 0.2597(3) 0.9980(3)
Cr3 Cr 0.27695(4) 0.35070(5) 0.97597(5)
H10 H 0.442511 0.27503 0.979301
H11 H 0.507835 0.2765 0.98841
H12 H 0.479823 0.302054 0.97738
Er1_2 Er 0.03292(2) 0.71240(2) 0.54694(2)
Cr1_2 Cr 0.02695(4) 0.77403(5) 0.60070(5)
O1_2 O 0.02126(18) 0.72585(19) 0.6015(2)
O3_2 O 0.17403(19) 0.6481(2) 0.4766(2)
O4_2 O 0.0243(2) 0.7707(2) 0.5530(2)
O5_2 O 0.0001(2) 0.6643(2) 0.5572(2)
O6_2 O 0.1657(2) 0.6869(2) 0.5136(2)
N2_2 N 0.0675(2) 0.6721(3) 0.5130(3)
C7_2 C 0.0544(3) 0.6494(4) 0.4933(4)
H5_2 H 0.032042 0.645976 0.493465
C8_2 C 0.0738(4) 0.6312(4) 0.4731(5)
H6_2 H 0.064627 0.614953 0.460269
C9_2 C 0.1064(3) 0.6368(4) 0.4717(4)
H7_2 H 0.119234 0.625227 0.457082
C10_2 C 0.1204(3) 0.6598(3) 0.4921(3)
C11_2 C 0.0989(3) 0.6771(3) 0.5121(3)
H8_2 H 0.107483 0.693072 0.525647
C12_2 C 0.1562(3) 0.6653(3) 0.4937(3)
O7_2 O 0.0041(3) 0.7034(4) 0.4946(3)
O8_2 O 0.0640(2) 0.6740(2) 0.5840(3)
O9_2 O 0.0572(3) 0.7403(3) 0.4980(3)
Er3_2 Er 0.21708(2) 0.70306(2) 0.53760(2)
Cr3_2 Cr 0.22305(4) 0.64930(5) 0.47597(5)
Cr4_2 Cr 0.02403(5) 0.72305(4) 0.64930(5)
O11_2 O 0.02415(19) 0.77126(18) 0.6485(2)
O12_2 O 0.0325(2) 0.8223(2) 0.5996(2)
O13_2 O 0.07597(19) 0.7734(2) 0.6019(2)
O15_2 O 0.0843(2) 0.7364(2) 0.5631(2)
H9_2 H 0.0797981 0.747254 0.503072
H10_2 H 0.0574889 0.72497 0.479301
H12_2 H 0.0201771 0.697946 0.47738
H13_2 H 0.0483912 0.661703 0.59778
H14_2 H 0.0768596 0.658513 0.570601
O2_2 O 0.9675(2) 0.6777(2) 0.5996(2)
N1_2 N 0.9630(4) 0.5698(4) 0.5598(4)
C1_2 C 0.9452(4) 0.5623(4) 0.5883(5)
H1_2 H 0.938878 0.540799 0.591525
C2_2 C 0.9370(4) 0.5838(3) 0.6104(4)
H2_2 H 0.924156 0.577816 0.627997
C3_2 C 0.9473(3) 0.6139(3) 0.6073(4)
H3_2 H 0.942330 0.628865 0.623567
C4_2 C 0.9656(3) 0.6241(3) 0.5801(3)
C5_2 C 0.9736(4) 0.6015(3) 0.5564(4)
H4_2 H 0.985965 0.607629 0.538369
C6_2 C 0.9788(3) 0.6576(3) 0.5785(3)
Er2_2 Er 0.96708(2) 0.78760(2) 0.54694(2)
Cr2_2 Cr 0.97305(4) 0.72597(5) 0.60070(5)
O10_2 O 0.97874(18) 0.77415(19) 0.6015(2)
O14_2 O 0.9757(2) 0.7293(2) 0.5530(2)
H11_2 H 0.992165 0.7235 0.48841
Er1_3 Er 0.53292(2) 0.78760(2) 0.45306(2)
Cr1_3 Cr 0.52695(4) 0.72597(5) 0.39930(5)
O1_3 O 0.52126(18) 0.77415(19) 0.3985(2)
O2_3 O 0.4675(2) 0.8223(2) 0.4004(2)
O3_3 O 0.67403(19) 0.8519(2) 0.5234(2)
O4_3 O 0.5243(2) 0.7293(2) 0.4470(2)
O5_3 O 0.5001(2) 0.8357(2) 0.4428(2)
O6_3 O 0.6657(2) 0.8131(2) 0.4864(2)
N1_3 N 0.4630(4) 0.9302(4) 0.4402(4)
N2_3 N 0.5675(2) 0.8279(3) 0.4870(3)
C1_3 C 0.4452(4) 0.9377(4) 0.4117(5)
H1_3 H 0.438878 0.959201 0.408475
C2_3 C 0.4370(4) 0.9162(3) 0.3896(4)
H2_3 H 0.424156 0.922184 0.372003
C3_3 C 0.4473(3) 0.8861(3) 0.3927(4)
H3_3 H 0.442330 0.871135 0.376433
C4_3 C 0.4656(3) 0.8759(3) 0.4199(3)
C5_3 C 0.4736(4) 0.8985(3) 0.4436(4)
H4_3 H 0.485965 0.892371 0.461631
C6_3 C 0.4788(3) 0.8424(3) 0.4215(3)
C7_3 C 0.5544(3) 0.8506(4) 0.5067(4)
H5_3 H 0.532042 0.854024 0.506535
C8_3 C 0.5738(4) 0.8688(4) 0.5269(5)
H6_3 H 0.564627 0.885047 0.539731
C9_3 C 0.6064(3) 0.8632(4) 0.5283(4)
H7_3 H 0.619234 0.874773 0.542918
C10_3 C 0.6204(3) 0.8402(3) 0.5079(3)
C11_3 C 0.5989(3) 0.8229(3) 0.4879(3)
H8_3 H 0.607483 0.806928 0.474353
C12_3 C 0.6562(3) 0.8347(3) 0.5063(3)
O7_3 O 0.5041(3) 0.7966(4) 0.5054(3)
O8_3 O 0.5640(2) 0.8260(2) 0.4160(3)
O9_3 O 0.5572(3) 0.7597(3) 0.5020(3)
Er2_3 Er 0.46708(2) 0.71240(2) 0.45306(2)
Er3_3 Er 0.71708(2) 0.79694(2) 0.46240(2)
Cr2_3 Cr 0.47305(4) 0.77403(5) 0.39930(5)
Cr3_3 Cr 0.72305(4) 0.85070(5) 0.52403(5)
Cr4_3 Cr 0.52403(5) 0.77695(4) 0.35070(5)
O10_3 O 0.47874(18) 0.72585(19) 0.3985(2)
O11_3 O 0.52415(19) 0.72874(18) 0.3515(2)
O12_3 O 0.5325(2) 0.6777(2) 0.4004(2)
O13_3 O 0.57597(19) 0.7266(2) 0.3981(2)
O14_3 O 0.4757(2) 0.7707(2) 0.4470(2)
O15_3 O 0.5843(2) 0.7636(2) 0.4369(2)
H9_3 H 0.579798 0.752746 0.496928
H10_3 H 0.557489 0.77503 0.520699
H11_3 H 0.492165 0.7765 0.51159
H12_3 H 0.520177 0.802054 0.52262
H13_3 H 0.548391 0.838297 0.40222
H14_3 H 0.57686 0.841487 0.429399
O2_4 O 0.0325(2) 0.1777(2) 0.9004(2)
N1_4 N 0.0370(4) 0.0698(4) 0.9402(4)
C1_4 C 0.0548(4) 0.0623(4) 0.9117(5)
H1_4 H 0.061122 0.040799 0.908475
C2_4 C 0.0630(4) 0.0838(3) 0.8896(4)
H2_4 H 0.075844 0.077816 0.872003
C3_4 C 0.0527(3) 0.1139(3) 0.8927(4)
H3_4 H 0.057670 0.128865 0.876433
C4_4 C 0.0344(3) 0.1241(3) 0.9199(3)
C5_4 C 0.0264(4) 0.1015(3) 0.9436(4)
H4_4 H 0.014035 0.107629 0.961631
C6_4 C 0.0212(3) 0.1576(3) 0.9215(3)
Er2_4 Er 0.03292(2) 0.28760(2) 0.95306(2)
Cr2_4 Cr 0.02695(4) 0.22597(5) 0.89930(5)
O10_4 O 0.02126(18) 0.27415(19) 0.8985(2)
O14_4 O 0.0243(2) 0.2293(2) 0.9470(2)
O3_4 O 0.82597(19) 0.1481(2) 0.0234(2)
C7_4 C 0.9456(3) 0.1494(4) 0.0067(4)
H5_4 H 0.967958 0.145976 0.006535
C8_4 C 0.9262(4) 0.1312(4) 0.0269(5)
H6_4 H 0.935373 0.114953 0.039731
C9_4 C 0.8936(3) 0.1368(4) 0.0283(4)
H7_4 H 0.880766 0.125227 0.042918
C10_4 C 0.8796(3) 0.1598(3) 0.0079(3)
C12_4 C 0.8438(3) 0.1653(3) 0.0063(3)
O7_4 O 0.9959(3) 0.2034(4) 0.0054(3)
O9_4 O 0.9428(3) 0.2403(3) 0.0020(3)
Cr3_4 Cr 0.77695(4) 0.14930(5) 0.02403(5)
H10_4 H 0.942511 0.22497 0.0206995
H12_4 H 0.979823 0.197946 0.0226202
Er1_4 Er 0.96708(2) 0.21240(2) 0.95306(2)
Cr1_4 Cr 0.97305(4) 0.27403(5) 0.89930(5)
O1_4 O 0.97874(18) 0.22585(19) 0.8985(2)
O4_4 O 0.9757(2) 0.2707(2) 0.9470(2)
O5_4 O 0.9999(2) 0.1643(2) 0.9428(2)
O6_4 O 0.8343(2) 0.1869(2) 0.9864(2)
N2_4 N 0.9325(2) 0.1721(3) 0.9870(3)
C11_4 C 0.9011(3) 0.1771(3) 0.9879(3)
H8_4 H 0.892517 0.193072 0.974353
O8_4 O 0.9360(2) 0.1740(2) 0.9160(3)
Er3_4 Er 0.78292(2) 0.20306(2) 0.96240(2)
Cr4_4 Cr 0.97597(5) 0.22305(4) 0.85070(5)
O11_4 O 0.97585(19) 0.27126(18) 0.8515(2)
O12_4 O 0.9675(2) 0.3223(2) 0.9004(2)
O13_4 O 0.92403(19) 0.2734(2) 0.8981(2)
O15_4 O 0.9157(2) 0.2364(2) 0.9369(2)
H9_4 H 0.920202 0.247254 0.996928
H13_4 H 0.951609 0.161703 0.90222
H14_4 H 0.92314 0.158513 0.929399
Er1_5 Er 0.04694(2) 0.46708(2) 0.28760(2)
Cr1_5 Cr 0.10070(5) 0.47305(4) 0.22597(5)
O1_5 O 0.1015(2) 0.47874(18) 0.27415(19)
O2_5 O 0.0996(2) 0.5325(2) 0.3223(2)
O4_5 O 0.0530(2) 0.4757(2) 0.2293(2)
O5_5 O 0.0572(2) 0.4999(2) 0.3357(2)
O6_5 O 0.0136(2) 0.3343(2) 0.3131(2)
N1_5 N 0.0598(4) 0.5370(4) 0.4302(4)
N2_5 N 0.0130(3) 0.4325(2) 0.3279(3)
C1_5 C 0.0883(5) 0.5548(4) 0.4377(4)
H1_5 H 0.091525 0.561122 0.459201
C2_5 C 0.1104(4) 0.5630(4) 0.4162(3)
H2_5 H 0.127997 0.575844 0.422184
C3_5 C 0.1073(4) 0.5527(3) 0.3861(3)
H3_5 H 0.123567 0.557670 0.371135
C4_5 C 0.0801(3) 0.5344(3) 0.3759(3)
C5_5 C 0.0564(4) 0.5264(4) 0.3985(3)
H4_5 H 0.038369 0.514035 0.392371
C6_5 C 0.0785(3) 0.5212(3) 0.3424(3)
C11_5 C 0.0121(3) 0.4011(3) 0.3229(3)
H8_5 H 0.025647 0.392517 0.306928
O8_5 O 0.0840(3) 0.4360(2) 0.3260(2)
Er2_5 Er 0.04694(2) 0.53292(2) 0.21240(2)
Er3_5 Er 0.03760(2) 0.28292(2) 0.29694(2)
Cr2_5 Cr 0.10070(5) 0.52695(4) 0.27403(5)
Cr4_5 Cr 0.14930(5) 0.47597(5) 0.27695(4)
O10_5 O 0.1015(2) 0.52126(18) 0.22585(19)
O11_5 O 0.1485(2) 0.47585(19) 0.22874(18)
O12_5 O 0.0996(2) 0.4675(2) 0.1777(2)
O13_5 O 0.1019(2) 0.42403(19) 0.2266(2)
O14_5 O 0.0530(2) 0.5243(2) 0.2707(2)
O15_5 O 0.0631(2) 0.4157(2) 0.2636(2)
H9_5 H 0.00307212 0.420202 0.252746
H13_5 H 0.0977804 0.451609 0.338297
H14_5 H 0.0706007 0.42314 0.341487
O3_5 O 0.9766(2) 0.32597(19) 0.3519(2)
C7_5 C 0.9933(4) 0.4456(3) 0.3506(4)
H5_5 H 0.993465 0.467958 0.354024
C8_5 C 0.9731(5) 0.4262(4) 0.3688(4)
H6_5 H 0.960269 0.435373 0.385047
C9_5 C 0.9717(4) 0.3936(3) 0.3632(4)
H7_5 H 0.957082 0.380766 0.374773
C10_5 C 0.9921(3) 0.3796(3) 0.3402(3)
C12_5 C 0.9937(3) 0.3438(3) 0.3347(3)
O7_5 O 0.9946(3) 0.4959(3) 0.2966(4)
O9_5 O 0.9980(3) 0.4428(3) 0.2597(3)
Cr3_5 Cr 0.97597(5) 0.27695(4) 0.35070(5)
H10_5 H 0.979301 0.442511 0.27503
H11_4 H 0.98841 0.507835 0.2765
H12_5 H 0.97738 0.479823 0.302054
Er1_6 Er 0.54694(2) 0.03292(2) 0.71240(2)
Cr1_6 Cr 0.60070(5) 0.02695(4) 0.77403(5)
O1_6 O 0.6015(2) 0.02126(18) 0.72585(19)
O3_6 O 0.4766(2) 0.17403(19) 0.6481(2)
O4_6 O 0.5530(2) 0.0243(2) 0.7707(2)
O5_6 O 0.5572(2) 0.0001(2) 0.6643(2)
O6_6 O 0.5136(2) 0.1657(2) 0.6869(2)
N2_6 N 0.5130(3) 0.0675(2) 0.6721(3)
C7_6 C 0.4933(4) 0.0544(3) 0.6494(4)
H5_6 H 0.493465 0.032042 0.645976
C8_6 C 0.4731(5) 0.0738(4) 0.6312(4)
H6_6 H 0.460269 0.064627 0.614953
C9_6 C 0.4717(4) 0.1064(3) 0.6368(4)
H7_6 H 0.457082 0.119234 0.625227
C10_6 C 0.4921(3) 0.1204(3) 0.6598(3)
C11_6 C 0.5121(3) 0.0989(3) 0.6771(3)
H8_6 H 0.525647 0.107483 0.693072
C12_6 C 0.4937(3) 0.1562(3) 0.6653(3)
O7_6 O 0.4946(3) 0.0041(3) 0.7034(4)
O8_6 O 0.5840(3) 0.0640(2) 0.6740(2)
O9_6 O 0.4980(3) 0.0572(3) 0.7403(3)
Er3_6 Er 0.53760(2) 0.21708(2) 0.70306(2)
Cr3_6 Cr 0.47597(5) 0.22305(4) 0.64930(5)
Cr4_6 Cr 0.64930(5) 0.02403(5) 0.72305(4)
O11_6 O 0.6485(2) 0.02415(19) 0.77126(18)
O12_6 O 0.5996(2) 0.0325(2) 0.8223(2)
O13_6 O 0.6019(2) 0.07597(19) 0.7734(2)
O15_6 O 0.5631(2) 0.0843(2) 0.7364(2)
H9_6 H 0.503072 0.0797981 0.747254
H10_6 H 0.479301 0.0574889 0.72497
H12_6 H 0.47738 0.0201771 0.697946
H13_6 H 0.59778 0.0483912 0.661703
H14_6 H 0.570601 0.0768596 0.658513
O2_6 O 0.5996(2) 0.9675(2) 0.6777(2)
N1_6 N 0.5598(4) 0.9630(4) 0.5698(4)
C1_6 C 0.5883(5) 0.9452(4) 0.5623(4)
H1_6 H 0.591525 0.938878 0.540799
C2_6 C 0.6104(4) 0.9370(4) 0.5838(3)
H2_6 H 0.627997 0.924156 0.577816
C3_6 C 0.6073(4) 0.9473(3) 0.6139(3)
H3_6 H 0.623567 0.942330 0.628865
C4_6 C 0.5801(3) 0.9656(3) 0.6241(3)
C5_6 C 0.5564(4) 0.9736(4) 0.6015(3)
H4_6 H 0.538369 0.985965 0.607629
C6_6 C 0.5785(3) 0.9788(3) 0.6576(3)
Er2_6 Er 0.54694(2) 0.96708(2) 0.78760(2)
Cr2_6 Cr 0.60070(5) 0.97305(4) 0.72597(5)
O10_6 O 0.6015(2) 0.97874(18) 0.77415(19)
O14_6 O 0.5530(2) 0.9757(2) 0.7293(2)
H11_5 H 0.48841 0.992165 0.7235
Er1_7 Er 0.45306(2) 0.53292(2) 0.78760(2)
Cr1_7 Cr 0.39930(5) 0.52695(4) 0.72597(5)
O1_7 O 0.3985(2) 0.52126(18) 0.77415(19)
O2_7 O 0.4004(2) 0.4675(2) 0.8223(2)
O3_7 O 0.5234(2) 0.67403(19) 0.8519(2)
O4_7 O 0.4470(2) 0.5243(2) 0.7293(2)
O5_7 O 0.4428(2) 0.5001(2) 0.8357(2)
O6_7 O 0.4864(2) 0.6657(2) 0.8131(2)
N1_7 N 0.4402(4) 0.4630(4) 0.9302(4)
N2_7 N 0.4870(3) 0.5675(2) 0.8279(3)
C1_7 C 0.4117(5) 0.4452(4) 0.9377(4)
H1_7 H 0.408475 0.438878 0.959201
C2_7 C 0.3896(4) 0.4370(4) 0.9162(3)
H2_7 H 0.372003 0.424156 0.922184
C3_7 C 0.3927(4) 0.4473(3) 0.8861(3)
H3_7 H 0.376433 0.442330 0.871135
C4_7 C 0.4199(3) 0.4656(3) 0.8759(3)
C5_7 C 0.4436(4) 0.4736(4) 0.8985(3)
H4_7 H 0.461631 0.485965 0.892371
C6_7 C 0.4215(3) 0.4788(3) 0.8424(3)
C7_7 C 0.5067(4) 0.5544(3) 0.8506(4)
H5_7 H 0.506535 0.532042 0.854024
C8_7 C 0.5269(5) 0.5738(4) 0.8688(4)
H6_7 H 0.539731 0.564627 0.885047
C9_7 C 0.5283(4) 0.6064(3) 0.8632(4)
H7_7 H 0.542918 0.619234 0.874773
C10_7 C 0.5079(3) 0.6204(3) 0.8402(3)
C11_7 C 0.4879(3) 0.5989(3) 0.8229(3)
H8_7 H 0.474353 0.607483 0.806928
C12_7 C 0.5063(3) 0.6562(3) 0.8347(3)
O7_7 O 0.5054(3) 0.5041(3) 0.7966(4)
O8_7 O 0.4160(3) 0.5640(2) 0.8260(2)
O9_7 O 0.5020(3) 0.5572(3) 0.7597(3)
Er2_7 Er 0.45306(2) 0.46708(2) 0.71240(2)
Er3_7 Er 0.46240(2) 0.71708(2) 0.79694(2)
Cr2_7 Cr 0.39930(5) 0.47305(4) 0.77403(5)
Cr3_7 Cr 0.52403(5) 0.72305(4) 0.85070(5)
Cr4_7 Cr 0.35070(5) 0.52403(5) 0.77695(4)
O10_7 O 0.3985(2) 0.47874(18) 0.72585(19)
O11_7 O 0.3515(2) 0.52415(19) 0.72874(18)
O12_7 O 0.4004(2) 0.5325(2) 0.6777(2)
O13_7 O 0.3981(2) 0.57597(19) 0.7266(2)
O14_7 O 0.4470(2) 0.4757(2) 0.7707(2)
O15_7 O 0.4369(2) 0.5843(2) 0.7636(2)
H9_7 H 0.496928 0.579798 0.752746
H10_7 H 0.520699 0.557489 0.77503
H11_6 H 0.51159 0.492165 0.7765
H12_7 H 0.52262 0.520177 0.802054
H13_7 H 0.40222 0.548391 0.838297
H14_7 H 0.429399 0.57686 0.841487
O3_8 O 0.0234(2) 0.82597(19) 0.1481(2)
C7_8 C 0.0067(4) 0.9456(3) 0.1494(4)
H5_8 H 0.006535 0.967958 0.145976
C8_8 C 0.0269(5) 0.9262(4) 0.1312(4)
H6_8 H 0.039731 0.935373 0.114953
C9_8 C 0.0283(4) 0.8936(3) 0.1368(4)
H7_8 H 0.042918 0.880766 0.125227
C10_8 C 0.0079(3) 0.8796(3) 0.1598(3)
C12_8 C 0.0063(3) 0.8438(3) 0.1653(3)
O7_8 O 0.0054(3) 0.9959(3) 0.2034(4)
O9_8 O 0.0020(3) 0.9428(3) 0.2403(3)
Cr3_8 Cr 0.02403(5) 0.77695(4) 0.14930(5)
H10_8 H 0.0206995 0.942511 0.22497
H12_8 H 0.0226202 0.979823 0.197946
O2_8 O 0.9004(2) 0.0325(2) 0.1777(2)
N1_8 N 0.9402(4) 0.0370(4) 0.0698(4)
C1_8 C 0.9117(5) 0.0548(4) 0.0623(4)
H1_8 H 0.908475 0.061122 0.040799
C2_8 C 0.8896(4) 0.0630(4) 0.0838(3)
H2_8 H 0.872003 0.075844 0.077816
C3_8 C 0.8927(4) 0.0527(3) 0.1139(3)
H3_8 H 0.876433 0.057670 0.128865
C4_8 C 0.9199(3) 0.0344(3) 0.1241(3)
C5_8 C 0.9436(4) 0.0264(4) 0.1015(3)
H4_8 H 0.961631 0.014035 0.107629
C6_8 C 0.9215(3) 0.0212(3) 0.1576(3)
Er2_8 Er 0.95306(2) 0.03292(2) 0.28760(2)
Cr2_8 Cr 0.89930(5) 0.02695(4) 0.22597(5)
O10_8 O 0.8985(2) 0.02126(18) 0.27415(19)
O14_8 O 0.9470(2) 0.0243(2) 0.2293(2)
Er1_8 Er 0.95306(2) 0.96708(2) 0.21240(2)
Cr1_8 Cr 0.89930(5) 0.97305(4) 0.27403(5)
O1_8 O 0.8985(2) 0.97874(18) 0.22585(19)
O4_8 O 0.9470(2) 0.9757(2) 0.2707(2)
O5_8 O 0.9428(2) 0.9999(2) 0.1643(2)
O6_8 O 0.9864(2) 0.8343(2) 0.1869(2)
N2_8 N 0.9870(3) 0.9325(2) 0.1721(3)
C11_8 C 0.9879(3) 0.9011(3) 0.1771(3)
H8_8 H 0.974353 0.892517 0.193072
O8_8 O 0.9160(3) 0.9360(2) 0.1740(2)
Er3_8 Er 0.96240(2) 0.78292(2) 0.20306(2)
Cr4_8 Cr 0.85070(5) 0.97597(5) 0.22305(4)
O11_8 O 0.8515(2) 0.97585(19) 0.27126(18)
O12_8 O 0.9004(2) 0.9675(2) 0.3223(2)
O13_8 O 0.8981(2) 0.92403(19) 0.2734(2)
O15_8 O 0.9369(2) 0.9157(2) 0.2364(2)
H9_8 H 0.996928 0.920202 0.247254
H13_8 H 0.90222 0.951609 0.161703
H14_8 H 0.929399 0.92314 0.158513
Er1_9 Er 0.28760(2) 0.04694(2) 0.46708(2)
Cr1_9 Cr 0.22597(5) 0.10070(5) 0.47305(4)
O1_9 O 0.27415(19) 0.1015(2) 0.47874(18)
O2_9 O 0.3223(2) 0.0996(2) 0.5325(2)
O4_9 O 0.2293(2) 0.0530(2) 0.4757(2)
O5_9 O 0.3357(2) 0.0572(2) 0.4999(2)
O6_9 O 0.3131(2) 0.0136(2) 0.3343(2)
N1_9 N 0.4302(4) 0.0598(4) 0.5370(4)
N2_9 N 0.3279(3) 0.0130(3) 0.4325(2)
C1_9 C 0.4377(4) 0.0883(5) 0.5548(4)
H1_9 H 0.459201 0.091525 0.561122
C2_9 C 0.4162(3) 0.1104(4) 0.5630(4)
H2_9 H 0.422184 0.127997 0.575844
C3_9 C 0.3861(3) 0.1073(4) 0.5527(3)
H3_9 H 0.371135 0.123567 0.557670
C4_9 C 0.3759(3) 0.0801(3) 0.5344(3)
C5_9 C 0.3985(3) 0.0564(4) 0.5264(4)
H4_9 H 0.392371 0.038369 0.514035
C6_9 C 0.3424(3) 0.0785(3) 0.5212(3)
C11_9 C 0.3229(3) 0.0121(3) 0.4011(3)
H8_9 H 0.306928 0.025647 0.392517
O8_9 O 0.3260(2) 0.0840(3) 0.4360(2)
Er2_9 Er 0.21240(2) 0.04694(2) 0.53292(2)
Er3_9 Er 0.29694(2) 0.03760(2) 0.28292(2)
Cr2_9 Cr 0.27403(5) 0.10070(5) 0.52695(4)
Cr4_9 Cr 0.27695(4) 0.14930(5) 0.47597(5)
O10_9 O 0.22585(19) 0.1015(2) 0.52126(18)
O11_9 O 0.22874(18) 0.1485(2) 0.47585(19)
O12_9 O 0.1777(2) 0.0996(2) 0.4675(2)
O13_9 O 0.2266(2) 0.1019(2) 0.42403(19)
O14_9 O 0.2707(2) 0.0530(2) 0.5243(2)
O15_9 O 0.2636(2) 0.0631(2) 0.4157(2)
H9_9 H 0.252746 0.00307212 0.420202
H13_9 H 0.338297 0.0977804 0.451609
H14_9 H 0.341487 0.0706007 0.42314
O3_9 O 0.3519(2) 0.9766(2) 0.32597(19)
C7_9 C 0.3506(4) 0.9933(4) 0.4456(3)
H5_9 H 0.354024 0.993465 0.467958
C8_9 C 0.3688(4) 0.9731(5) 0.4262(4)
H6_9 H 0.385047 0.960269 0.435373
C9_9 C 0.3632(4) 0.9717(4) 0.3936(3)
H7_9 H 0.374773 0.957082 0.380766
C10_9 C 0.3402(3) 0.9921(3) 0.3796(3)
C12_9 C 0.3347(3) 0.9937(3) 0.3438(3)
O7_9 O 0.2966(4) 0.9946(3) 0.4959(3)
O9_9 O 0.2597(3) 0.9980(3) 0.4428(3)
Cr3_9 Cr 0.35070(5) 0.97597(5) 0.27695(4)
H10_9 H 0.27503 0.979301 0.442511
H11_7 H 0.2765 0.98841 0.507835
H12_9 H 0.302054 0.97738 0.479823
Er1_10 Er 0.71240(2) 0.54694(2) 0.03292(2)
Cr1_10 Cr 0.77403(5) 0.60070(5) 0.02695(4)
O1_10 O 0.72585(19) 0.6015(2) 0.02126(18)
O3_10 O 0.6481(2) 0.4766(2) 0.17403(19)
O4_10 O 0.7707(2) 0.5530(2) 0.0243(2)
O5_10 O 0.6643(2) 0.5572(2) 0.0001(2)
O6_10 O 0.6869(2) 0.5136(2) 0.1657(2)
N2_10 N 0.6721(3) 0.5130(3) 0.0675(2)
C7_10 C 0.6494(4) 0.4933(4) 0.0544(3)
H5_10 H 0.645976 0.493465 0.032042
C8_10 C 0.6312(4) 0.4731(5) 0.0738(4)
H6_10 H 0.614953 0.460269 0.064627
C9_10 C 0.6368(4) 0.4717(4) 0.1064(3)
H7_10 H 0.625227 0.457082 0.119234
C10_10 C 0.6598(3) 0.4921(3) 0.1204(3)
C11_10 C 0.6771(3) 0.5121(3) 0.0989(3)
H8_10 H 0.693072 0.525647 0.107483
C12_10 C 0.6653(3) 0.4937(3) 0.1562(3)
O7_10 O 0.7034(4) 0.4946(3) 0.0041(3)
O8_10 O 0.6740(2) 0.5840(3) 0.0640(2)
O9_10 O 0.7403(3) 0.4980(3) 0.0572(3)
Er3_10 Er 0.70306(2) 0.53760(2) 0.21708(2)
Cr3_10 Cr 0.64930(5) 0.47597(5) 0.22305(4)
Cr4_10 Cr 0.72305(4) 0.64930(5) 0.02403(5)
O11_10 O 0.77126(18) 0.6485(2) 0.02415(19)
O12_10 O 0.8223(2) 0.5996(2) 0.0325(2)
O13_10 O 0.7734(2) 0.6019(2) 0.07597(19)
O15_10 O 0.7364(2) 0.5631(2) 0.0843(2)
H9_10 H 0.747254 0.503072 0.0797981
H10_10 H 0.72497 0.479301 0.0574889
H12_10 H 0.697946 0.47738 0.0201771
H13_10 H 0.661703 0.59778 0.0483912
H14_10 H 0.658513 0.570601 0.0768596
O2_10 O 0.6777(2) 0.5996(2) 0.9675(2)
N1_10 N 0.5698(4) 0.5598(4) 0.9630(4)
C1_10 C 0.5623(4) 0.5883(5) 0.9452(4)
H1_10 H 0.540799 0.591525 0.938878
C2_10 C 0.5838(3) 0.6104(4) 0.9370(4)
H2_10 H 0.577816 0.627997 0.924156
C3_10 C 0.6139(3) 0.6073(4) 0.9473(3)
H3_10 H 0.628865 0.623567 0.942330
C4_10 C 0.6241(3) 0.5801(3) 0.9656(3)
C5_10 C 0.6015(3) 0.5564(4) 0.9736(4)
H4_10 H 0.607629 0.538369 0.985965
C6_10 C 0.6576(3) 0.5785(3) 0.9788(3)
Er2_10 Er 0.78760(2) 0.54694(2) 0.96708(2)
Cr2_10 Cr 0.72597(5) 0.60070(5) 0.97305(4)
O10_10 O 0.77415(19) 0.6015(2) 0.97874(18)
O14_10 O 0.7293(2) 0.5530(2) 0.9757(2)
H11_8 H 0.7235 0.48841 0.992165
Er1_11 Er 0.78760(2) 0.45306(2) 0.53292(2)
Cr1_11 Cr 0.72597(5) 0.39930(5) 0.52695(4)
O1_11 O 0.77415(19) 0.3985(2) 0.52126(18)
O2_11 O 0.8223(2) 0.4004(2) 0.4675(2)
O3_11 O 0.8519(2) 0.5234(2) 0.67403(19)
O4_11 O 0.7293(2) 0.4470(2) 0.5243(2)
O5_11 O 0.8357(2) 0.4428(2) 0.5001(2)
O6_11 O 0.8131(2) 0.4864(2) 0.6657(2)
N1_11 N 0.9302(4) 0.4402(4) 0.4630(4)
N2_11 N 0.8279(3) 0.4870(3) 0.5675(2)
C1_11 C 0.9377(4) 0.4117(5) 0.4452(4)
H1_11 H 0.959201 0.408475 0.438878
C2_11 C 0.9162(3) 0.3896(4) 0.4370(4)
H2_11 H 0.922184 0.372003 0.424156
C3_11 C 0.8861(3) 0.3927(4) 0.4473(3)
H3_11 H 0.871135 0.376433 0.442330
C4_11 C 0.8759(3) 0.4199(3) 0.4656(3)
C5_11 C 0.8985(3) 0.4436(4) 0.4736(4)
H4_11 H 0.892371 0.461631 0.485965
C6_11 C 0.8424(3) 0.4215(3) 0.4788(3)
C7_11 C 0.8506(4) 0.5067(4) 0.5544(3)
H5_11 H 0.854024 0.506535 0.532042
C8_11 C 0.8688(4) 0.5269(5) 0.5738(4)
H6_11 H 0.885047 0.539731 0.564627
C9_11 C 0.8632(4) 0.5283(4) 0.6064(3)
H7_11 H 0.874773 0.542918 0.619234
C10_11 C 0.8402(3) 0.5079(3) 0.6204(3)
C11_11 C 0.8229(3) 0.4879(3) 0.5989(3)
H8_11 H 0.806928 0.474353 0.607483
C12_11 C 0.8347(3) 0.5063(3) 0.6562(3)
O7_11 O 0.7966(4) 0.5054(3) 0.5041(3)
O8_11 O 0.8260(2) 0.4160(3) 0.5640(2)
O9_11 O 0.7597(3) 0.5020(3) 0.5572(3)
Er2_11 Er 0.71240(2) 0.45306(2) 0.46708(2)
Er3_11 Er 0.79694(2) 0.46240(2) 0.71708(2)
Cr2_11 Cr 0.77403(5) 0.39930(5) 0.47305(4)
Cr3_11 Cr 0.85070(5) 0.52403(5) 0.72305(4)
Cr4_11 Cr 0.77695(4) 0.35070(5) 0.52403(5)
O10_11 O 0.72585(19) 0.3985(2) 0.47874(18)
O11_11 O 0.72874(18) 0.3515(2) 0.52415(19)
O12_11 O 0.6777(2) 0.4004(2) 0.5325(2)
O13_11 O 0.7266(2) 0.3981(2) 0.57597(19)
O14_11 O 0.7707(2) 0.4470(2) 0.4757(2)
O15_11 O 0.7636(2) 0.4369(2) 0.5843(2)
H9_11 H 0.752746 0.496928 0.579798
H10_11 H 0.77503 0.520699 0.557489
H11_9 H 0.7765 0.51159 0.492165
H12_11 H 0.802054 0.52262 0.520177
H13_11 H 0.838297 0.40222 0.548391
H14_11 H 0.841487 0.429399 0.57686
O3_12 O 0.1481(2) 0.0234(2) 0.82597(19)
C7_12 C 0.1494(4) 0.0067(4) 0.9456(3)
H5_12 H 0.145976 0.006535 0.967958
C8_12 C 0.1312(4) 0.0269(5) 0.9262(4)
H6_12 H 0.114953 0.039731 0.935373
C9_12 C 0.1368(4) 0.0283(4) 0.8936(3)
H7_12 H 0.125227 0.042918 0.880766
C10_12 C 0.1598(3) 0.0079(3) 0.8796(3)
C12_12 C 0.1653(3) 0.0063(3) 0.8438(3)
O7_12 O 0.2034(4) 0.0054(3) 0.9959(3)
O9_12 O 0.2403(3) 0.0020(3) 0.9428(3)
Cr3_12 Cr 0.14930(5) 0.02403(5) 0.77695(4)
H10_12 H 0.22497 0.0206995 0.942511
H12_12 H 0.197946 0.0226202 0.979823
O2_12 O 0.1777(2) 0.9004(2) 0.0325(2)
N1_12 N 0.0698(4) 0.9402(4) 0.0370(4)
C1_12 C 0.0623(4) 0.9117(5) 0.0548(4)
H1_12 H 0.040799 0.908475 0.061122
C2_12 C 0.0838(3) 0.8896(4) 0.0630(4)
H2_12 H 0.077816 0.872003 0.075844
C3_12 C 0.1139(3) 0.8927(4) 0.0527(3)
H3_12 H 0.128865 0.876433 0.057670
C4_12 C 0.1241(3) 0.9199(3) 0.0344(3)
C5_12 C 0.1015(3) 0.9436(4) 0.0264(4)
H4_12 H 0.107629 0.961631 0.014035
C6_12 C 0.1576(3) 0.9215(3) 0.0212(3)
Er2_12 Er 0.28760(2) 0.95306(2) 0.03292(2)
Cr2_12 Cr 0.22597(5) 0.89930(5) 0.02695(4)
O10_12 O 0.27415(19) 0.8985(2) 0.02126(18)
O14_12 O 0.2293(2) 0.9470(2) 0.0243(2)
Er1_12 Er 0.21240(2) 0.95306(2) 0.96708(2)
Cr1_12 Cr 0.27403(5) 0.89930(5) 0.97305(4)
O1_12 O 0.22585(19) 0.8985(2) 0.97874(18)
O4_12 O 0.2707(2) 0.9470(2) 0.9757(2)
O5_12 O 0.1643(2) 0.9428(2) 0.9999(2)
O6_12 O 0.1869(2) 0.9864(2) 0.8343(2)
N2_12 N 0.1721(3) 0.9870(3) 0.9325(2)
C11_12 C 0.1771(3) 0.9879(3) 0.9011(3)
H8_12 H 0.193072 0.974353 0.892517
O8_12 O 0.1740(2) 0.9160(3) 0.9360(2)
Er3_12 Er 0.20306(2) 0.96240(2) 0.78292(2)
Cr4_12 Cr 0.22305(4) 0.85070(5) 0.97597(5)
O11_12 O 0.27126(18) 0.8515(2) 0.97585(19)
O12_12 O 0.3223(2) 0.9004(2) 0.9675(2)
O13_12 O 0.2734(2) 0.8981(2) 0.92403(19)
O15_12 O 0.2364(2) 0.9369(2) 0.9157(2)
H9_12 H 0.247254 0.996928 0.920202
H13_12 H 0.161703 0.90222 0.951609
H14_12 H 0.158513 0.929399 0.92314
Er1_13 Er 0.03760(2) 0.71708(2) 0.20306(2)
O1_13 O 0.02415(19) 0.72874(18) 0.1485(2)
O2_13 O 0.0723(2) 0.7825(2) 0.1504(2)
O3_13 O 0.1019(2) 0.57597(19) 0.2734(2)
O5_13 O 0.0857(2) 0.7499(2) 0.1928(2)
O6_13 O 0.0631(2) 0.5843(2) 0.2364(2)
N1_13 N 0.1802(4) 0.7870(4) 0.1902(4)
N2_13 N 0.0779(3) 0.6825(2) 0.2370(3)
C1_13 C 0.1877(4) 0.8048(4) 0.1617(5)
H1_13 H 0.209201 0.811122 0.158475
C2_13 C 0.1662(3) 0.8130(4) 0.1396(4)
H2_13 H 0.172184 0.825844 0.122003
C3_13 C 0.1361(3) 0.8027(3) 0.1427(4)
H3_13 H 0.121135 0.807670 0.126433
C4_13 C 0.1259(3) 0.7844(3) 0.1699(3)
C5_13 C 0.1485(3) 0.7764(4) 0.1936(4)
H4_13 H 0.142371 0.764035 0.211631
C6_13 C 0.0924(3) 0.7712(3) 0.1715(3)
C7_13 C 0.1006(4) 0.6956(3) 0.2567(4)
H5_13 H 0.104024 0.717958 0.256535
C8_13 C 0.1188(4) 0.6762(4) 0.2769(5)
H6_13 H 0.135047 0.685373 0.289731
C9_13 C 0.1132(4) 0.6436(3) 0.2783(4)
H7_13 H 0.124773 0.630766 0.292918
C10_13 C 0.0902(3) 0.6296(3) 0.2579(3)
C11_13 C 0.0729(3) 0.6511(3) 0.2379(3)
H8_13 H 0.056928 0.642517 0.224353
C12_13 C 0.0847(3) 0.5938(3) 0.2563(3)
O7_13 O 0.0466(4) 0.7459(3) 0.2554(3)
O8_13 O 0.0760(2) 0.6860(2) 0.1660(3)
O9_13 O 0.0097(3) 0.6928(3) 0.2520(3)
Cr4_13 Cr 0.02695(4) 0.72597(5) 0.10070(5)
O14_13 O 0.0207(2) 0.7743(2) 0.1970(2)
O15_13 O 0.0136(2) 0.6657(2) 0.1869(2)
H9_13 H 0.00274609 0.670202 0.246928
H10_13 H 0.0250298 0.692511 0.270699
H11_10 H 0.0265003 0.757835 0.26159
H12_13 H 0.0520545 0.729823 0.27262
H13_13 H 0.0882974 0.701609 0.15222
H14_13 H 0.091487 0.67314 0.179399
Cr1_13 Cr 0.97597(5) 0.72305(4) 0.14930(5)
O4_13 O 0.9793(2) 0.7257(2) 0.1970(2)
O10_13 O 0.97585(19) 0.77126(18) 0.1485(2)
O11_13 O 0.97874(18) 0.72585(19) 0.1015(2)
O12_13 O 0.9277(2) 0.7175(2) 0.1504(2)
O13_13 O 0.9766(2) 0.67403(19) 0.1481(2)
Er1_14 Er 0.46240(2) 0.28292(2) 0.70306(2)
Cr1_14 Cr 0.52403(5) 0.27695(4) 0.64930(5)
O1_14 O 0.47585(19) 0.27126(18) 0.6485(2)
O2_14 O 0.4277(2) 0.2175(2) 0.6504(2)
O3_14 O 0.3981(2) 0.42403(19) 0.7734(2)
O4_14 O 0.5207(2) 0.2743(2) 0.6970(2)
O5_14 O 0.4143(2) 0.2501(2) 0.6928(2)
O6_14 O 0.4369(2) 0.4157(2) 0.7364(2)
N1_14 N 0.3198(4) 0.2130(4) 0.6902(4)
N2_14 N 0.4221(3) 0.3175(2) 0.7370(3)
C1_14 C 0.3123(4) 0.1952(4) 0.6617(5)
H1_14 H 0.290799 0.188878 0.658475
C2_14 C 0.3338(3) 0.1870(4) 0.6396(4)
H2_14 H 0.327816 0.174156 0.622003
C3_14 C 0.3639(3) 0.1973(3) 0.6427(4)
H3_14 H 0.378865 0.192330 0.626433
C4_14 C 0.3741(3) 0.2156(3) 0.6699(3)
C5_14 C 0.3515(3) 0.2236(4) 0.6936(4)
H4_14 H 0.357629 0.235965 0.711631
C6_14 C 0.4076(3) 0.2288(3) 0.6715(3)
C7_14 C 0.3994(4) 0.3044(3) 0.7567(4)
H5_14 H 0.395976 0.282042 0.756535
C8_14 C 0.3812(4) 0.3238(4) 0.7769(5)
H6_14 H 0.364953 0.314627 0.789731
C9_14 C 0.3868(4) 0.3564(3) 0.7783(4)
H7_14 H 0.375227 0.369234 0.792918
C10_14 C 0.4098(3) 0.3704(3) 0.7579(3)
C11_14 C 0.4271(3) 0.3489(3) 0.7379(3)
H8_14 H 0.443072 0.357483 0.724353
C12_14 C 0.4153(3) 0.4062(3) 0.7563(3)
O7_14 O 0.4534(4) 0.2541(3) 0.7554(3)
O8_14 O 0.4240(2) 0.3140(2) 0.6660(3)
O9_14 O 0.4903(3) 0.3072(3) 0.7520(3)
Cr4_14 Cr 0.47305(4) 0.27403(5) 0.60070(5)
O10_14 O 0.52415(19) 0.22874(18) 0.6485(2)
O11_14 O 0.52126(18) 0.27415(19) 0.6015(2)
O12_14 O 0.5723(2) 0.2825(2) 0.6504(2)
O13_14 O 0.5234(2) 0.32597(19) 0.6481(2)
O14_14 O 0.4793(2) 0.2257(2) 0.6970(2)
O15_14 O 0.4864(2) 0.3343(2) 0.6869(2)
H9_14 H 0.497254 0.329798 0.746928
H10_14 H 0.47497 0.307489 0.770699
H11_11 H 0.4735 0.242165 0.76159
H12_14 H 0.447946 0.270177 0.77262
H13_14 H 0.411703 0.298391 0.65222
H14_14 H 0.408513 0.32686 0.679399
Er1_15 Er 0.53760(2) 0.78292(2) 0.79694(2)
Cr1_15 Cr 0.47597(5) 0.77695(4) 0.85070(5)
O1_15 O 0.52415(19) 0.77126(18) 0.8515(2)
O2_15 O 0.5723(2) 0.7175(2) 0.8496(2)
O3_15 O 0.6019(2) 0.92403(19) 0.7266(2)
O4_15 O 0.4793(2) 0.7743(2) 0.8030(2)
O5_15 O 0.5857(2) 0.7501(2) 0.8072(2)
O6_15 O 0.5631(2) 0.9157(2) 0.7636(2)
N1_15 N 0.6802(4) 0.7130(4) 0.8098(4)
N2_15 N 0.5779(3) 0.8175(2) 0.7630(3)
C1_15 C 0.6877(4) 0.6952(4) 0.8383(5)
H1_15 H 0.709201 0.688878 0.841525
C2_15 C 0.6662(3) 0.6870(4) 0.8604(4)
H2_15 H 0.672184 0.674156 0.877997
C3_15 C 0.6361(3) 0.6973(3) 0.8573(4)
H3_15 H 0.621135 0.692330 0.873567
C4_15 C 0.6259(3) 0.7156(3) 0.8301(3)
C5_15 C 0.6485(3) 0.7236(4) 0.8064(4)
H4_15 H 0.642371 0.735965 0.788369
C6_15 C 0.5924(3) 0.7288(3) 0.8285(3)
C7_15 C 0.6006(4) 0.8044(3) 0.7433(4)
H5_15 H 0.604024 0.782042 0.743465
C8_15 C 0.6188(4) 0.8238(4) 0.7231(5)
H6_15 H 0.635047 0.814627 0.710269
C9_15 C 0.6132(4) 0.8564(3) 0.7217(4)
H7_15 H 0.624773 0.869234 0.707082
C10_15 C 0.5902(3) 0.8704(3) 0.7421(3)
C11_15 C 0.5729(3) 0.8489(3) 0.7621(3)
H8_15 H 0.556928 0.857483 0.775647
C12_15 C 0.5847(3) 0.9062(3) 0.7437(3)
O7_15 O 0.5466(4) 0.7541(3) 0.7446(3)
O8_15 O 0.5760(2) 0.8140(2) 0.8340(3)
O9_15 O 0.5097(3) 0.8072(3) 0.7480(3)
Cr4_15 Cr 0.52695(4) 0.77403(5) 0.89930(5)
O10_15 O 0.47585(19) 0.72874(18) 0.8515(2)
O11_15 O 0.47874(18) 0.77415(19) 0.8985(2)
O12_15 O 0.4277(2) 0.7825(2) 0.8496(2)
O13_15 O 0.4766(2) 0.82597(19) 0.8519(2)
O14_15 O 0.5207(2) 0.7257(2) 0.8030(2)
O15_15 O 0.5136(2) 0.8343(2) 0.8131(2)
H9_15 H 0.502746 0.829798 0.753072
H10_15 H 0.52503 0.807489 0.729301
H11_12 H 0.5265 0.742165 0.73841
H12_15 H 0.552054 0.770177 0.72738
H13_15 H 0.588297 0.798391 0.84778
H14_15 H 0.591487 0.82686 0.820601
Cr1_16 Cr 0.02403(5) 0.22305(4) 0.35070(5)
O4_16 O 0.0207(2) 0.2257(2) 0.3030(2)
O10_16 O 0.02415(19) 0.27126(18) 0.3515(2)
O11_16 O 0.02126(18) 0.22585(19) 0.3985(2)
O12_16 O 0.0723(2) 0.2175(2) 0.3496(2)
O13_16 O 0.0234(2) 0.17403(19) 0.3519(2)
Er1_16 Er 0.96240(2) 0.21708(2) 0.29694(2)
O1_16 O 0.97585(19) 0.22874(18) 0.3515(2)
O2_16 O 0.9277(2) 0.2825(2) 0.3496(2)
O3_16 O 0.8981(2) 0.07597(19) 0.2266(2)
O5_16 O 0.9143(2) 0.2499(2) 0.3072(2)
O6_16 O 0.9369(2) 0.0843(2) 0.2636(2)
N1_16 N 0.8198(4) 0.2870(4) 0.3098(4)
N2_16 N 0.9221(3) 0.1825(2) 0.2630(3)
C1_16 C 0.8123(4) 0.3048(4) 0.3383(5)
H1_16 H 0.790799 0.311122 0.341525
C2_16 C 0.8338(3) 0.3130(4) 0.3604(4)
H2_16 H 0.827816 0.325844 0.377997
C3_16 C 0.8639(3) 0.3027(3) 0.3573(4)
H3_16 H 0.878865 0.307670 0.373567
C4_16 C 0.8741(3) 0.2844(3) 0.3301(3)
C5_16 C 0.8515(3) 0.2764(4) 0.3064(4)
H4_16 H 0.857629 0.264035 0.288369
C6_16 C 0.9076(3) 0.2712(3) 0.3285(3)
C7_16 C 0.8994(4) 0.1956(3) 0.2433(4)
H5_16 H 0.895976 0.217958 0.243465
C8_16 C 0.8812(4) 0.1762(4) 0.2231(5)
H6_16 H 0.864953 0.185373 0.210269
C9_16 C 0.8868(4) 0.1436(3) 0.2217(4)
H7_16 H 0.875227 0.130766 0.207082
C10_16 C 0.9098(3) 0.1296(3) 0.2421(3)
C11_16 C 0.9271(3) 0.1511(3) 0.2621(3)
H8_16 H 0.943072 0.142517 0.275647
C12_16 C 0.9153(3) 0.0938(3) 0.2437(3)
O7_16 O 0.9534(4) 0.2459(3) 0.2446(3)
O8_16 O 0.9240(2) 0.1860(2) 0.3340(3)
O9_16 O 0.9903(3) 0.1928(3) 0.2480(3)
Cr4_16 Cr 0.97305(4) 0.22597(5) 0.39930(5)
O14_16 O 0.9793(2) 0.2743(2) 0.3030(2)
O15_16 O 0.9864(2) 0.1657(2) 0.3131(2)
H9_16 H 0.997254 0.170202 0.253072
H10_16 H 0.97497 0.192511 0.229301
H11_13 H 0.9735 0.257835 0.23841
H12_16 H 0.947946 0.229823 0.22738
H13_16 H 0.911703 0.201609 0.34778
H14_16 H 0.908513 0.17314 0.320601
Cr1_17 Cr 0.22305(4) 0.35070(5) 0.02403(5)
O4_17 O 0.2257(2) 0.3030(2) 0.0207(2)
O10_17 O 0.27126(18) 0.3515(2) 0.02415(19)
O11_17 O 0.22585(19) 0.3985(2) 0.02126(18)
O12_17 O 0.2175(2) 0.3496(2) 0.0723(2)
O13_17 O 0.17403(19) 0.3519(2) 0.0234(2)
Er1_17 Er 0.21708(2) 0.29694(2) 0.96240(2)
O1_17 O 0.22874(18) 0.3515(2) 0.97585(19)
O2_17 O 0.2825(2) 0.3496(2) 0.9277(2)
O3_17 O 0.07597(19) 0.2266(2) 0.8981(2)
O5_17 O 0.2499(2) 0.3072(2) 0.9143(2)
O6_17 O 0.0843(2) 0.2636(2) 0.9369(2)
N1_17 N 0.2870(4) 0.3098(4) 0.8198(4)
N2_17 N 0.1825(2) 0.2630(3) 0.9221(3)
C1_17 C 0.3048(4) 0.3383(5) 0.8123(4)
H1_17 H 0.311122 0.341525 0.790799
C2_17 C 0.3130(4) 0.3604(4) 0.8338(3)
H2_17 H 0.325844 0.377997 0.827816
C3_17 C 0.3027(3) 0.3573(4) 0.8639(3)
H3_17 H 0.307670 0.373567 0.878865
C4_17 C 0.2844(3) 0.3301(3) 0.8741(3)
C5_17 C 0.2764(4) 0.3064(4) 0.8515(3)
H4_17 H 0.264035 0.288369 0.857629
C6_17 C 0.2712(3) 0.3285(3) 0.9076(3)
C7_17 C 0.1956(3) 0.2433(4) 0.8994(4)
H5_17 H 0.217958 0.243465 0.895976
C8_17 C 0.1762(4) 0.2231(5) 0.8812(4)
H6_17 H 0.185373 0.210269 0.864953
C9_17 C 0.1436(3) 0.2217(4) 0.8868(4)
H7_17 H 0.130766 0.207082 0.875227
C10_17 C 0.1296(3) 0.2421(3) 0.9098(3)
C11_17 C 0.1511(3) 0.2621(3) 0.9271(3)
H8_17 H 0.142517 0.275647 0.943072
C12_17 C 0.0938(3) 0.2437(3) 0.9153(3)
O7_17 O 0.2459(3) 0.2446(3) 0.9534(4)
O8_17 O 0.1860(2) 0.3340(3) 0.9240(2)
O9_17 O 0.1928(3) 0.2480(3) 0.9903(3)
Cr4_17 Cr 0.22597(5) 0.39930(5) 0.97305(4)
O14_17 O 0.2743(2) 0.3030(2) 0.9793(2)
O15_17 O 0.1657(2) 0.3131(2) 0.9864(2)
H9_17 H 0.170202 0.253072 0.997254
H10_17 H 0.192511 0.229301 0.97497
H11_14 H 0.257835 0.23841 0.9735
H12_17 H 0.229823 0.22738 0.947946
H13_17 H 0.201609 0.34778 0.911703
H14_17 H 0.17314 0.320601 0.908513
Er1_18 Er 0.78292(2) 0.79694(2) 0.53760(2)
Cr1_18 Cr 0.77695(4) 0.85070(5) 0.47597(5)
O1_18 O 0.77126(18) 0.8515(2) 0.52415(19)
O2_18 O 0.7175(2) 0.8496(2) 0.5723(2)
O3_18 O 0.92403(19) 0.7266(2) 0.6019(2)
O4_18 O 0.7743(2) 0.8030(2) 0.4793(2)
O5_18 O 0.7501(2) 0.8072(2) 0.5857(2)
O6_18 O 0.9157(2) 0.7636(2) 0.5631(2)
N1_18 N 0.7130(4) 0.8098(4) 0.6802(4)
N2_18 N 0.8175(2) 0.7630(3) 0.5779(3)
C1_18 C 0.6952(4) 0.8383(5) 0.6877(4)
H1_18 H 0.688878 0.841525 0.709201
C2_18 C 0.6870(4) 0.8604(4) 0.6662(3)
H2_18 H 0.674156 0.877997 0.672184
C3_18 C 0.6973(3) 0.8573(4) 0.6361(3)
H3_18 H 0.692330 0.873567 0.621135
C4_18 C 0.7156(3) 0.8301(3) 0.6259(3)
C5_18 C 0.7236(4) 0.8064(4) 0.6485(3)
H4_18 H 0.735965 0.788369 0.642371
C6_18 C 0.7288(3) 0.8285(3) 0.5924(3)
C7_18 C 0.8044(3) 0.7433(4) 0.6006(4)
H5_18 H 0.782042 0.743465 0.604024
C8_18 C 0.8238(4) 0.7231(5) 0.6188(4)
H6_18 H 0.814627 0.710269 0.635047
C9_18 C 0.8564(3) 0.7217(4) 0.6132(4)
H7_18 H 0.869234 0.707082 0.624773
C10_18 C 0.8704(3) 0.7421(3) 0.5902(3)
C11_18 C 0.8489(3) 0.7621(3) 0.5729(3)
H8_18 H 0.857483 0.775647 0.556928
C12_18 C 0.9062(3) 0.7437(3) 0.5847(3)
O7_18 O 0.7541(3) 0.7446(3) 0.5466(4)
O8_18 O 0.8140(2) 0.8340(3) 0.5760(2)
O9_18 O 0.8072(3) 0.7480(3) 0.5097(3)
Cr4_18 Cr 0.77403(5) 0.89930(5) 0.52695(4)
O10_18 O 0.72874(18) 0.8515(2) 0.47585(19)
O11_18 O 0.77415(19) 0.8985(2) 0.47874(18)
O12_18 O 0.7825(2) 0.8496(2) 0.4277(2)
O13_18 O 0.82597(19) 0.8519(2) 0.4766(2)
O14_18 O 0.7257(2) 0.8030(2) 0.5207(2)
O15_18 O 0.8343(2) 0.8131(2) 0.5136(2)
H9_18 H 0.829798 0.753072 0.502746
H10_18 H 0.807489 0.729301 0.52503
H11_15 H 0.742165 0.73841 0.5265
H12_18 H 0.770177 0.72738 0.552054
H13_18 H 0.798391 0.84778 0.588297
H14_18 H 0.82686 0.820601 0.591487
Er1_19 Er 0.28292(2) 0.70306(2) 0.46240(2)
Cr1_19 Cr 0.27695(4) 0.64930(5) 0.52403(5)
O1_19 O 0.27126(18) 0.6485(2) 0.47585(19)
O2_19 O 0.2175(2) 0.6504(2) 0.4277(2)
O3_19 O 0.42403(19) 0.7734(2) 0.3981(2)
O4_19 O 0.2743(2) 0.6970(2) 0.5207(2)
O5_19 O 0.2501(2) 0.6928(2) 0.4143(2)
O6_19 O 0.4157(2) 0.7364(2) 0.4369(2)
N1_19 N 0.2130(4) 0.6902(4) 0.3198(4)
N2_19 N 0.3175(2) 0.7370(3) 0.4221(3)
C1_19 C 0.1952(4) 0.6617(5) 0.3123(4)
H1_19 H 0.188878 0.658475 0.290799
C2_19 C 0.1870(4) 0.6396(4) 0.3338(3)
H2_19 H 0.174156 0.622003 0.327816
C3_19 C 0.1973(3) 0.6427(4) 0.3639(3)
H3_19 H 0.192330 0.626433 0.378865
C4_19 C 0.2156(3) 0.6699(3) 0.3741(3)
C5_19 C 0.2236(4) 0.6936(4) 0.3515(3)
H4_19 H 0.235965 0.711631 0.357629
C6_19 C 0.2288(3) 0.6715(3) 0.4076(3)
C7_19 C 0.3044(3) 0.7567(4) 0.3994(4)
H5_19 H 0.282042 0.756535 0.395976
C8_19 C 0.3238(4) 0.7769(5) 0.3812(4)
H6_19 H 0.314627 0.789731 0.364953
C9_19 C 0.3564(3) 0.7783(4) 0.3868(4)
H7_19 H 0.369234 0.792918 0.375227
C10_19 C 0.3704(3) 0.7579(3) 0.4098(3)
C11_19 C 0.3489(3) 0.7379(3) 0.4271(3)
H8_19 H 0.357483 0.724353 0.443072
C12_19 C 0.4062(3) 0.7563(3) 0.4153(3)
O7_19 O 0.2541(3) 0.7554(3) 0.4534(4)
O8_19 O 0.3140(2) 0.6660(3) 0.4240(2)
O9_19 O 0.3072(3) 0.7520(3) 0.4903(3)
Cr4_19 Cr 0.27403(5) 0.60070(5) 0.47305(4)
O10_19 O 0.22874(18) 0.6485(2) 0.52415(19)
O11_19 O 0.27415(19) 0.6015(2) 0.52126(18)
O12_19 O 0.2825(2) 0.6504(2) 0.5723(2)
O13_19 O 0.32597(19) 0.6481(2) 0.5234(2)
O14_19 O 0.2257(2) 0.6970(2) 0.4793(2)
O15_19 O 0.3343(2) 0.6869(2) 0.4864(2)
H9_19 H 0.329798 0.746928 0.497254
H10_19 H 0.307489 0.770699 0.47497
H11_16 H 0.242165 0.76159 0.4735
H12_19 H 0.270177 0.77262 0.447946
H13_19 H 0.298391 0.65222 0.411703
H14_19 H 0.32686 0.679399 0.408513
Er1_20 Er 0.71708(2) 0.20306(2) 0.03760(2)
O1_20 O 0.72874(18) 0.1485(2) 0.02415(19)
O2_20 O 0.7825(2) 0.1504(2) 0.0723(2)
O3_20 O 0.57597(19) 0.2734(2) 0.1019(2)
O5_20 O 0.7499(2) 0.1928(2) 0.0857(2)
O6_20 O 0.5843(2) 0.2364(2) 0.0631(2)
N1_20 N 0.7870(4) 0.1902(4) 0.1802(4)
N2_20 N 0.6825(2) 0.2370(3) 0.0779(3)
C1_20 C 0.8048(4) 0.1617(5) 0.1877(4)
H1_20 H 0.811122 0.158475 0.209201
C2_20 C 0.8130(4) 0.1396(4) 0.1662(3)
H2_20 H 0.825844 0.122003 0.172184
C3_20 C 0.8027(3) 0.1427(4) 0.1361(3)
H3_20 H 0.807670 0.126433 0.121135
C4_20 C 0.7844(3) 0.1699(3) 0.1259(3)
C5_20 C 0.7764(4) 0.1936(4) 0.1485(3)
H4_20 H 0.764035 0.211631 0.142371
C6_20 C 0.7712(3) 0.1715(3) 0.0924(3)
C7_20 C 0.6956(3) 0.2567(4) 0.1006(4)
H5_20 H 0.717958 0.256535 0.104024
C8_20 C 0.6762(4) 0.2769(5) 0.1188(4)
H6_20 H 0.685373 0.289731 0.135047
C9_20 C 0.6436(3) 0.2783(4) 0.1132(4)
H7_20 H 0.630766 0.292918 0.124773
C10_20 C 0.6296(3) 0.2579(3) 0.0902(3)
C11_20 C 0.6511(3) 0.2379(3) 0.0729(3)
H8_20 H 0.642517 0.224353 0.056928
C12_20 C 0.5938(3) 0.2563(3) 0.0847(3)
O7_20 O 0.7459(3) 0.2554(3) 0.0466(4)
O8_20 O 0.6860(2) 0.1660(3) 0.0760(2)
O9_20 O 0.6928(3) 0.2520(3) 0.0097(3)
Cr4_20 Cr 0.72597(5) 0.10070(5) 0.02695(4)
O14_20 O 0.7743(2) 0.1970(2) 0.0207(2)
O15_20 O 0.6657(2) 0.1869(2) 0.0136(2)
H9_20 H 0.670202 0.246928 0.00274609
H10_20 H 0.692511 0.270699 0.0250298
H11_17 H 0.757835 0.26159 0.0265003
H12_20 H 0.729823 0.27262 0.0520545
H13_20 H 0.701609 0.15222 0.0882974
H14_20 H 0.67314 0.179399 0.091487
Cr1_20 Cr 0.72305(4) 0.14930(5) 0.97597(5)
O4_20 O 0.7257(2) 0.1970(2) 0.9793(2)
O10_20 O 0.77126(18) 0.1485(2) 0.97585(19)
O11_20 O 0.72585(19) 0.1015(2) 0.97874(18)
O12_20 O 0.7175(2) 0.1504(2) 0.9277(2)
O13_20 O 0.67403(19) 0.1481(2) 0.9766(2)
Er1_21 Er 0.79694(2) 0.53760(2) 0.78292(2)
Cr1_21 Cr 0.85070(5) 0.47597(5) 0.77695(4)
O1_21 O 0.8515(2) 0.52415(19) 0.77126(18)
O2_21 O 0.8496(2) 0.5723(2) 0.7175(2)
O3_21 O 0.7266(2) 0.6019(2) 0.92403(19)
O4_21 O 0.8030(2) 0.4793(2) 0.7743(2)
O5_21 O 0.8072(2) 0.5857(2) 0.7501(2)
O6_21 O 0.7636(2) 0.5631(2) 0.9157(2)
N1_21 N 0.8098(4) 0.6802(4) 0.7130(4)
N2_21 N 0.7630(3) 0.5779(3) 0.8175(2)
C1_21 C 0.8383(5) 0.6877(4) 0.6952(4)
H1_21 H 0.841525 0.709201 0.688878
C2_21 C 0.8604(4) 0.6662(3) 0.6870(4)
H2_21 H 0.877997 0.672184 0.674156
C3_21 C 0.8573(4) 0.6361(3) 0.6973(3)
H3_21 H 0.873567 0.621135 0.692330
C4_21 C 0.8301(3) 0.6259(3) 0.7156(3)
C5_21 C 0.8064(4) 0.6485(3) 0.7236(4)
H4_21 H 0.788369 0.642371 0.735965
C6_21 C 0.8285(3) 0.5924(3) 0.7288(3)
C7_21 C 0.7433(4) 0.6006(4) 0.8044(3)
H5_21 H 0.743465 0.604024 0.782042
C8_21 C 0.7231(5) 0.6188(4) 0.8238(4)
H6_21 H 0.710269 0.635047 0.814627
C9_21 C 0.7217(4) 0.6132(4) 0.8564(3)
H7_21 H 0.707082 0.624773 0.869234
C10_21 C 0.7421(3) 0.5902(3) 0.8704(3)
C11_21 C 0.7621(3) 0.5729(3) 0.8489(3)
H8_21 H 0.775647 0.556928 0.857483
C12_21 C 0.7437(3) 0.5847(3) 0.9062(3)
O7_21 O 0.7446(3) 0.5466(4) 0.7541(3)
O8_21 O 0.8340(3) 0.5760(2) 0.8140(2)
O9_21 O 0.7480(3) 0.5097(3) 0.8072(3)
Cr4_21 Cr 0.89930(5) 0.52695(4) 0.77403(5)
O10_21 O 0.8515(2) 0.47585(19) 0.72874(18)
O11_21 O 0.8985(2) 0.47874(18) 0.77415(19)
O12_21 O 0.8496(2) 0.4277(2) 0.7825(2)
O13_21 O 0.8519(2) 0.4766(2) 0.82597(19)
O14_21 O 0.8030(2) 0.5207(2) 0.7257(2)
O15_21 O 0.8131(2) 0.5136(2) 0.8343(2)
H9_21 H 0.753072 0.502746 0.829798
H10_21 H 0.729301 0.52503 0.807489
H11_18 H 0.73841 0.5265 0.742165
H12_21 H 0.72738 0.552054 0.770177
H13_21 H 0.84778 0.588297 0.798391
H14_21 H 0.820601 0.591487 0.82686
Cr1_22 Cr 0.35070(5) 0.02403(5) 0.22305(4)
O4_22 O 0.3030(2) 0.0207(2) 0.2257(2)
O10_22 O 0.3515(2) 0.02415(19) 0.27126(18)
O11_22 O 0.3985(2) 0.02126(18) 0.22585(19)
O12_22 O 0.3496(2) 0.0723(2) 0.2175(2)
O13_22 O 0.3519(2) 0.0234(2) 0.17403(19)
Er1_22 Er 0.29694(2) 0.96240(2) 0.21708(2)
O1_22 O 0.3515(2) 0.97585(19) 0.22874(18)
O2_22 O 0.3496(2) 0.9277(2) 0.2825(2)
O3_22 O 0.2266(2) 0.8981(2) 0.07597(19)
O5_22 O 0.3072(2) 0.9143(2) 0.2499(2)
O6_22 O 0.2636(2) 0.9369(2) 0.0843(2)
N1_22 N 0.3098(4) 0.8198(4) 0.2870(4)
N2_22 N 0.2630(3) 0.9221(3) 0.1825(2)
C1_22 C 0.3383(5) 0.8123(4) 0.3048(4)
H1_22 H 0.341525 0.790799 0.311122
C2_22 C 0.3604(4) 0.8338(3) 0.3130(4)
H2_22 H 0.377997 0.827816 0.325844
C3_22 C 0.3573(4) 0.8639(3) 0.3027(3)
H3_22 H 0.373567 0.878865 0.307670
C4_22 C 0.3301(3) 0.8741(3) 0.2844(3)
C5_22 C 0.3064(4) 0.8515(3) 0.2764(4)
H4_22 H 0.288369 0.857629 0.264035
C6_22 C 0.3285(3) 0.9076(3) 0.2712(3)
C7_22 C 0.2433(4) 0.8994(4) 0.1956(3)
H5_22 H 0.243465 0.895976 0.217958
C8_22 C 0.2231(5) 0.8812(4) 0.1762(4)
H6_22 H 0.210269 0.864953 0.185373
C9_22 C 0.2217(4) 0.8868(4) 0.1436(3)
H7_22 H 0.207082 0.875227 0.130766
C10_22 C 0.2421(3) 0.9098(3) 0.1296(3)
C11_22 C 0.2621(3) 0.9271(3) 0.1511(3)
H8_22 H 0.275647 0.943072 0.142517
C12_22 C 0.2437(3) 0.9153(3) 0.0938(3)
O7_22 O 0.2446(3) 0.9534(4) 0.2459(3)
O8_22 O 0.3340(3) 0.9240(2) 0.1860(2)
O9_22 O 0.2480(3) 0.9903(3) 0.1928(3)
Cr4_22 Cr 0.39930(5) 0.97305(4) 0.22597(5)
O14_22 O 0.3030(2) 0.9793(2) 0.2743(2)
O15_22 O 0.3131(2) 0.9864(2) 0.1657(2)
H9_22 H 0.253072 0.997254 0.170202
H10_22 H 0.229301 0.97497 0.192511
H11_19 H 0.23841 0.9735 0.257835
H12_22 H 0.22738 0.947946 0.229823
H13_22 H 0.34778 0.911703 0.201609
H14_22 H 0.320601 0.908513 0.17314
Er1_23 Er 0.20306(2) 0.03760(2) 0.71708(2)
O1_23 O 0.1485(2) 0.02415(19) 0.72874(18)
O2_23 O 0.1504(2) 0.0723(2) 0.7825(2)
O3_23 O 0.2734(2) 0.1019(2) 0.57597(19)
O5_23 O 0.1928(2) 0.0857(2) 0.7499(2)
O6_23 O 0.2364(2) 0.0631(2) 0.5843(2)
N1_23 N 0.1902(4) 0.1802(4) 0.7870(4)
N2_23 N 0.2370(3) 0.0779(3) 0.6825(2)
C1_23 C 0.1617(5) 0.1877(4) 0.8048(4)
H1_23 H 0.158475 0.209201 0.811122
C2_23 C 0.1396(4) 0.1662(3) 0.8130(4)
H2_23 H 0.122003 0.172184 0.825844
C3_23 C 0.1427(4) 0.1361(3) 0.8027(3)
H3_23 H 0.126433 0.121135 0.807670
C4_23 C 0.1699(3) 0.1259(3) 0.7844(3)
C5_23 C 0.1936(4) 0.1485(3) 0.7764(4)
H4_23 H 0.211631 0.142371 0.764035
C6_23 C 0.1715(3) 0.0924(3) 0.7712(3)
C7_23 C 0.2567(4) 0.1006(4) 0.6956(3)
H5_23 H 0.256535 0.104024 0.717958
C8_23 C 0.2769(5) 0.1188(4) 0.6762(4)
H6_23 H 0.289731 0.135047 0.685373
C9_23 C 0.2783(4) 0.1132(4) 0.6436(3)
H7_23 H 0.292918 0.124773 0.630766
C10_23 C 0.2579(3) 0.0902(3) 0.6296(3)
C11_23 C 0.2379(3) 0.0729(3) 0.6511(3)
H8_23 H 0.224353 0.056928 0.642517
C12_23 C 0.2563(3) 0.0847(3) 0.5938(3)
O7_23 O 0.2554(3) 0.0466(4) 0.7459(3)
O8_23 O 0.1660(3) 0.0760(2) 0.6860(2)
O9_23 O 0.2520(3) 0.0097(3) 0.6928(3)
Cr4_23 Cr 0.10070(5) 0.02695(4) 0.72597(5)
O14_23 O 0.1970(2) 0.0207(2) 0.7743(2)
O15_23 O 0.1869(2) 0.0136(2) 0.6657(2)
H9_23 H 0.246928 0.00274609 0.670202
H10_23 H 0.270699 0.0250298 0.692511
H11_20 H 0.26159 0.0265003 0.757835
H12_23 H 0.27262 0.0520545 0.729823
H13_23 H 0.15222 0.0882974 0.701609
H14_23 H 0.179399 0.091487 0.67314
Cr1_23 Cr 0.14930(5) 0.97597(5) 0.72305(4)
O4_23 O 0.1970(2) 0.9793(2) 0.7257(2)
O10_23 O 0.1485(2) 0.97585(19) 0.77126(18)
O11_23 O 0.1015(2) 0.97874(18) 0.72585(19)
O12_23 O 0.1504(2) 0.9277(2) 0.7175(2)
O13_23 O 0.1481(2) 0.9766(2) 0.67403(19)
Er1_24 Er 0.70306(2) 0.46240(2) 0.28292(2)
Cr1_24 Cr 0.64930(5) 0.52403(5) 0.27695(4)
O1_24 O 0.6485(2) 0.47585(19) 0.27126(18)
O2_24 O 0.6504(2) 0.4277(2) 0.2175(2)
O3_24 O 0.7734(2) 0.3981(2) 0.42403(19)
O4_24 O 0.6970(2) 0.5207(2) 0.2743(2)
O5_24 O 0.6928(2) 0.4143(2) 0.2501(2)
O6_24 O 0.7364(2) 0.4369(2) 0.4157(2)
N1_24 N 0.6902(4) 0.3198(4) 0.2130(4)
N2_24 N 0.7370(3) 0.4221(3) 0.3175(2)
C1_24 C 0.6617(5) 0.3123(4) 0.1952(4)
H1_24 H 0.658475 0.290799 0.188878
C2_24 C 0.6396(4) 0.3338(3) 0.1870(4)
H2_24 H 0.622003 0.327816 0.174156
C3_24 C 0.6427(4) 0.3639(3) 0.1973(3)
H3_24 H 0.626433 0.378865 0.192330
C4_24 C 0.6699(3) 0.3741(3) 0.2156(3)
C5_24 C 0.6936(4) 0.3515(3) 0.2236(4)
H4_24 H 0.711631 0.357629 0.235965
C6_24 C 0.6715(3) 0.4076(3) 0.2288(3)
C7_24 C 0.7567(4) 0.3994(4) 0.3044(3)
H5_24 H 0.756535 0.395976 0.282042
C8_24 C 0.7769(5) 0.3812(4) 0.3238(4)
H6_24 H 0.789731 0.364953 0.314627
C9_24 C 0.7783(4) 0.3868(4) 0.3564(3)
H7_24 H 0.792918 0.375227 0.369234
C10_24 C 0.7579(3) 0.4098(3) 0.3704(3)
C11_24 C 0.7379(3) 0.4271(3) 0.3489(3)
H8_24 H 0.724353 0.443072 0.357483
C12_24 C 0.7563(3) 0.4153(3) 0.4062(3)
O7_24 O 0.7554(3) 0.4534(4) 0.2541(3)
O8_24 O 0.6660(3) 0.4240(2) 0.3140(2)
O9_24 O 0.7520(3) 0.4903(3) 0.3072(3)
Cr4_24 Cr 0.60070(5) 0.47305(4) 0.27403(5)
O10_24 O 0.6485(2) 0.52415(19) 0.22874(18)
O11_24 O 0.6015(2) 0.52126(18) 0.27415(19)
O12_24 O 0.6504(2) 0.5723(2) 0.2825(2)
O13_24 O 0.6481(2) 0.5234(2) 0.32597(19)
O14_24 O 0.6970(2) 0.4793(2) 0.2257(2)
O15_24 O 0.6869(2) 0.4864(2) 0.3343(2)
H9_24 H 0.746928 0.497254 0.329798
H10_24 H 0.770699 0.47497 0.307489
H11_21 H 0.76159 0.4735 0.242165
H12_24 H 0.77262 0.447946 0.270177
H13_24 H 0.65222 0.411703 0.298391
H14_24 H 0.679399 0.408513 0.32686
N1_25 N 0.0370(4) 0.9302(4) 0.5598(4)
C1_25 C 0.0548(4) 0.9377(4) 0.5883(5)
H1_25 H 0.061122 0.959201 0.591525
C2_25 C 0.0630(4) 0.9162(3) 0.6104(4)
H2_25 H 0.075844 0.922184 0.627997
C3_25 C 0.0527(3) 0.8861(3) 0.6073(4)
H3_25 H 0.057670 0.871135 0.623567
C4_25 C 0.0344(3) 0.8759(3) 0.5801(3)
C5_25 C 0.0264(4) 0.8985(3) 0.5564(4)
H4_25 H 0.014035 0.892371 0.538369
C6_25 C 0.0212(3) 0.8424(3) 0.5785(3)
H11_22 H 0.00783497 0.7765 0.48841
O5_25 O 0.9999(2) 0.8357(2) 0.5572(2)
N2_25 N 0.9325(2) 0.8279(3) 0.5130(3)
C7_25 C 0.9456(3) 0.8506(4) 0.4933(4)
H5_25 H 0.967958 0.854024 0.493465
C8_25 C 0.9262(4) 0.8688(4) 0.4731(5)
H6_25 H 0.935373 0.885047 0.460269
C9_25 C 0.8936(3) 0.8632(4) 0.4717(4)
H7_25 H 0.880766 0.874773 0.457082
C10_25 C 0.8796(3) 0.8402(3) 0.4921(3)
C11_25 C 0.9011(3) 0.8229(3) 0.5121(3)
H8_25 H 0.892517 0.806928 0.525647
C12_25 C 0.8438(3) 0.8347(3) 0.4937(3)
O7_25 O 0.9959(3) 0.7966(4) 0.4946(3)
O8_25 O 0.9360(2) 0.8260(2) 0.5840(3)
O9_25 O 0.9428(3) 0.7597(3) 0.4980(3)
Cr4_25 Cr 0.97597(5) 0.77695(4) 0.64930(5)
O11_25 O 0.97585(19) 0.72874(18) 0.6485(2)
H9_25 H 0.920202 0.752746 0.503072
H10_25 H 0.942511 0.77503 0.479301
H12_25 H 0.979823 0.802054 0.47738
H13_25 H 0.951609 0.838297 0.59778
H14_25 H 0.92314 0.841487 0.570601
O5_26 O 0.5001(2) 0.1643(2) 0.0572(2)
N1_26 N 0.4630(4) 0.0698(4) 0.0598(4)
N2_26 N 0.5675(2) 0.1721(3) 0.0130(3)
C1_26 C 0.4452(4) 0.0623(4) 0.0883(5)
H1_26 H 0.438878 0.040799 0.091525
C2_26 C 0.4370(4) 0.0838(3) 0.1104(4)
H2_26 H 0.424156 0.077816 0.127997
C3_26 C 0.4473(3) 0.1139(3) 0.1073(4)
H3_26 H 0.442330 0.128865 0.123567
C4_26 C 0.4656(3) 0.1241(3) 0.0801(3)
C5_26 C 0.4736(4) 0.1015(3) 0.0564(4)
H4_26 H 0.485965 0.107629 0.038369
C6_26 C 0.4788(3) 0.1576(3) 0.0785(3)
C11_26 C 0.5989(3) 0.1771(3) 0.0121(3)
H8_26 H 0.607483 0.193072 0.025647
O8_26 O 0.5640(2) 0.1740(2) 0.0840(3)
Cr4_26 Cr 0.52403(5) 0.22305(4) 0.14930(5)
O11_26 O 0.52415(19) 0.27126(18) 0.1485(2)
H9_26 H 0.579798 0.247254 0.00307212
H13_26 H 0.548391 0.161703 0.0977804
H14_26 H 0.57686 0.158513 0.0706007
C7_26 C 0.5544(3) 0.1494(4) 0.9933(4)
H5_26 H 0.532042 0.145976 0.993465
C8_26 C 0.5738(4) 0.1312(4) 0.9731(5)
H6_26 H 0.564627 0.114953 0.960269
C9_26 C 0.6064(3) 0.1368(4) 0.9717(4)
H7_26 H 0.619234 0.125227 0.957082
C10_26 C 0.6204(3) 0.1598(3) 0.9921(3)
C12_26 C 0.6562(3) 0.1653(3) 0.9937(3)
O7_26 O 0.5041(3) 0.2034(4) 0.9946(3)
O9_26 O 0.5572(3) 0.2403(3) 0.9980(3)
H10_26 H 0.557489 0.22497 0.979301
H11_23 H 0.492165 0.2235 0.98841
H12_26 H 0.520177 0.197946 0.97738
C7_27 C 0.0544(3) 0.3506(4) 0.0067(4)
H5_27 H 0.032042 0.354024 0.006535
C8_27 C 0.0738(4) 0.3688(4) 0.0269(5)
H6_27 H 0.064627 0.385047 0.039731
C9_27 C 0.1064(3) 0.3632(4) 0.0283(4)
H7_27 H 0.119234 0.374773 0.042918
C10_27 C 0.1204(3) 0.3402(3) 0.0079(3)
C12_27 C 0.1562(3) 0.3347(3) 0.0063(3)
O7_27 O 0.0041(3) 0.2966(4) 0.0054(3)
O9_27 O 0.0572(3) 0.2597(3) 0.0020(3)
H10_27 H 0.0574889 0.27503 0.0206995
H12_27 H 0.0201771 0.302054 0.0226202
O5_27 O 0.0001(2) 0.3357(2) 0.9428(2)
N2_27 N 0.0675(2) 0.3279(3) 0.9870(3)
C11_27 C 0.0989(3) 0.3229(3) 0.9879(3)
H8_27 H 0.107483 0.306928 0.974353
O8_27 O 0.0640(2) 0.3260(2) 0.9160(3)
Cr4_27 Cr 0.02403(5) 0.27695(4) 0.85070(5)
O11_27 O 0.02415(19) 0.22874(18) 0.8515(2)
H9_27 H 0.0797981 0.252746 0.996928
H13_27 H 0.0483912 0.338297 0.90222
H14_27 H 0.0768596 0.341487 0.929399
N1_27 N 0.9630(4) 0.4302(4) 0.9402(4)
C1_27 C 0.9452(4) 0.4377(4) 0.9117(5)
H1_27 H 0.938878 0.459201 0.908475
C2_27 C 0.9370(4) 0.4162(3) 0.8896(4)
H2_27 H 0.924156 0.422184 0.872003
C3_27 C 0.9473(3) 0.3861(3) 0.8927(4)
H3_27 H 0.942330 0.371135 0.876433
C4_27 C 0.9656(3) 0.3759(3) 0.9199(3)
C5_27 C 0.9736(4) 0.3985(3) 0.9436(4)
H4_27 H 0.985965 0.392371 0.961631
C6_27 C 0.9788(3) 0.3424(3) 0.9215(3)
O5_28 O 0.4999(2) 0.6643(2) 0.4428(2)
N1_28 N 0.5370(4) 0.5698(4) 0.4402(4)
N2_28 N 0.4325(2) 0.6721(3) 0.4870(3)
C1_28 C 0.5548(4) 0.5623(4) 0.4117(5)
H1_28 H 0.561122 0.540799 0.408475
C2_28 C 0.5630(4) 0.5838(3) 0.3896(4)
H2_28 H 0.575844 0.577816 0.372003
C3_28 C 0.5527(3) 0.6139(3) 0.3927(4)
H3_28 H 0.557670 0.628865 0.376433
C4_28 C 0.5344(3) 0.6241(3) 0.4199(3)
C5_28 C 0.5264(4) 0.6015(3) 0.4436(4)
H4_28 H 0.514035 0.607629 0.461631
C6_28 C 0.5212(3) 0.6576(3) 0.4215(3)
C7_28 C 0.4456(3) 0.6494(4) 0.5067(4)
H5_28 H 0.467958 0.645976 0.506535
C8_28 C 0.4262(4) 0.6312(4) 0.5269(5)
H6_28 H 0.435373 0.614953 0.539731
C9_28 C 0.3936(3) 0.6368(4) 0.5283(4)
H7_28 H 0.380766 0.625227 0.542918
C10_28 C 0.3796(3) 0.6598(3) 0.5079(3)
C11_28 C 0.4011(3) 0.6771(3) 0.4879(3)
H8_28 H 0.392517 0.693072 0.474353
C12_28 C 0.3438(3) 0.6653(3) 0.5063(3)
O7_28 O 0.4959(3) 0.7034(4) 0.5054(3)
O8_28 O 0.4360(2) 0.6740(2) 0.4160(3)
O9_28 O 0.4428(3) 0.7403(3) 0.5020(3)
Cr4_28 Cr 0.47597(5) 0.72305(4) 0.35070(5)
O11_28 O 0.47585(19) 0.77126(18) 0.3515(2)
H9_28 H 0.420202 0.747254 0.496928
H10_28 H 0.442511 0.72497 0.520699
H11_24 H 0.507835 0.7235 0.51159
H12_28 H 0.479823 0.697946 0.52262
H13_28 H 0.451609 0.661703 0.40222
H14_28 H 0.42314 0.658513 0.429399
N1_29 N 0.5598(4) 0.0370(4) 0.9302(4)
C1_29 C 0.5883(5) 0.0548(4) 0.9377(4)
H1_29 H 0.591525 0.061122 0.959201
C2_29 C 0.6104(4) 0.0630(4) 0.9162(3)
H2_29 H 0.627997 0.075844 0.922184
C3_29 C 0.6073(4) 0.0527(3) 0.8861(3)
H3_29 H 0.623567 0.057670 0.871135
C4_29 C 0.5801(3) 0.0344(3) 0.8759(3)
C5_29 C 0.5564(4) 0.0264(4) 0.8985(3)
H4_29 H 0.538369 0.014035 0.892371
C6_29 C 0.5785(3) 0.0212(3) 0.8424(3)
H11_25 H 0.48841 0.00783497 0.7765
O5_29 O 0.5572(2) 0.9999(2) 0.8357(2)
N2_29 N 0.5130(3) 0.9325(2) 0.8279(3)
C7_29 C 0.4933(4) 0.9456(3) 0.8506(4)
H5_29 H 0.493465 0.967958 0.854024
C8_29 C 0.4731(5) 0.9262(4) 0.8688(4)
H6_29 H 0.460269 0.935373 0.885047
C9_29 C 0.4717(4) 0.8936(3) 0.8632(4)
H7_29 H 0.457082 0.880766 0.874773
C10_29 C 0.4921(3) 0.8796(3) 0.8402(3)
C11_29 C 0.5121(3) 0.9011(3) 0.8229(3)
H8_29 H 0.525647 0.892517 0.806928
C12_29 C 0.4937(3) 0.8438(3) 0.8347(3)
O7_29 O 0.4946(3) 0.9959(3) 0.7966(4)
O8_29 O 0.5840(3) 0.9360(2) 0.8260(2)
O9_29 O 0.4980(3) 0.9428(3) 0.7597(3)
Cr4_29 Cr 0.64930(5) 0.97597(5) 0.77695(4)
O11_29 O 0.6485(2) 0.97585(19) 0.72874(18)
H9_29 H 0.503072 0.920202 0.752746
H10_29 H 0.479301 0.942511 0.77503
H12_29 H 0.47738 0.979823 0.802054
H13_29 H 0.59778 0.951609 0.838297
H14_29 H 0.570601 0.92314 0.841487
O5_30 O 0.0572(2) 0.5001(2) 0.1643(2)
N1_30 N 0.0598(4) 0.4630(4) 0.0698(4)
N2_30 N 0.0130(3) 0.5675(2) 0.1721(3)
C1_30 C 0.0883(5) 0.4452(4) 0.0623(4)
H1_30 H 0.091525 0.438878 0.040799
C2_30 C 0.1104(4) 0.4370(4) 0.0838(3)
H2_30 H 0.127997 0.424156 0.077816
C3_30 C 0.1073(4) 0.4473(3) 0.1139(3)
H3_30 H 0.123567 0.442330 0.128865
C4_30 C 0.0801(3) 0.4656(3) 0.1241(3)
C5_30 C 0.0564(4) 0.4736(4) 0.1015(3)
H4_30 H 0.038369 0.485965 0.107629
C6_30 C 0.0785(3) 0.4788(3) 0.1576(3)
C11_30 C 0.0121(3) 0.5989(3) 0.1771(3)
H8_30 H 0.025647 0.607483 0.193072
O8_30 O 0.0840(3) 0.5640(2) 0.1740(2)
Cr4_30 Cr 0.14930(5) 0.52403(5) 0.22305(4)
O11_30 O 0.1485(2) 0.52415(19) 0.27126(18)
H9_30 H 0.00307212 0.579798 0.247254
H13_30 H 0.0977804 0.548391 0.161703
H14_30 H 0.0706007 0.57686 0.158513
C7_30 C 0.9933(4) 0.5544(3) 0.1494(4)
H5_30 H 0.993465 0.532042 0.145976
C8_30 C 0.9731(5) 0.5738(4) 0.1312(4)
H6_30 H 0.960269 0.564627 0.114953
C9_30 C 0.9717(4) 0.6064(3) 0.1368(4)
H7_30 H 0.957082 0.619234 0.125227
C10_30 C 0.9921(3) 0.6204(3) 0.1598(3)
C12_30 C 0.9937(3) 0.6562(3) 0.1653(3)
O7_30 O 0.9946(3) 0.5041(3) 0.2034(4)
O9_30 O 0.9980(3) 0.5572(3) 0.2403(3)
H10_30 H 0.979301 0.557489 0.22497
H11_26 H 0.98841 0.492165 0.2235
H12_30 H 0.97738 0.520177 0.197946
C7_31 C 0.0067(4) 0.0544(3) 0.3506(4)
H5_31 H 0.006535 0.032042 0.354024
C8_31 C 0.0269(5) 0.0738(4) 0.3688(4)
H6_31 H 0.039731 0.064627 0.385047
C9_31 C 0.0283(4) 0.1064(3) 0.3632(4)
H7_31 H 0.042918 0.119234 0.374773
C10_31 C 0.0079(3) 0.1204(3) 0.3402(3)
C12_31 C 0.0063(3) 0.1562(3) 0.3347(3)
O7_31 O 0.0054(3) 0.0041(3) 0.2966(4)
O9_31 O 0.0020(3) 0.0572(3) 0.2597(3)
H10_31 H 0.0206995 0.0574889 0.27503
H12_31 H 0.0226202 0.0201771 0.302054
O5_31 O 0.9428(2) 0.0001(2) 0.3357(2)
N2_31 N 0.9870(3) 0.0675(2) 0.3279(3)
C11_31 C 0.9879(3) 0.0989(3) 0.3229(3)
H8_31 H 0.974353 0.107483 0.306928
O8_31 O 0.9160(3) 0.0640(2) 0.3260(2)
Cr4_31 Cr 0.85070(5) 0.02403(5) 0.27695(4)
O11_31 O 0.8515(2) 0.02415(19) 0.22874(18)
H9_31 H 0.996928 0.0797981 0.252746
H13_31 H 0.90222 0.0483912 0.338297
H14_31 H 0.929399 0.0768596 0.341487
N1_31 N 0.9402(4) 0.9630(4) 0.4302(4)
C1_31 C 0.9117(5) 0.9452(4) 0.4377(4)
H1_31 H 0.908475 0.938878 0.459201
C2_31 C 0.8896(4) 0.9370(4) 0.4162(3)
H2_31 H 0.872003 0.924156 0.422184
C3_31 C 0.8927(4) 0.9473(3) 0.3861(3)
H3_31 H 0.876433 0.942330 0.371135
C4_31 C 0.9199(3) 0.9656(3) 0.3759(3)
C5_31 C 0.9436(4) 0.9736(4) 0.3985(3)
H4_31 H 0.961631 0.985965 0.392371
C6_31 C 0.9215(3) 0.9788(3) 0.3424(3)
O5_32 O 0.4428(2) 0.4999(2) 0.6643(2)
N1_32 N 0.4402(4) 0.5370(4) 0.5698(4)
N2_32 N 0.4870(3) 0.4325(2) 0.6721(3)
C1_32 C 0.4117(5) 0.5548(4) 0.5623(4)
H1_32 H 0.408475 0.561122 0.540799
C2_32 C 0.3896(4) 0.5630(4) 0.5838(3)
H2_32 H 0.372003 0.575844 0.577816
C3_32 C 0.3927(4) 0.5527(3) 0.6139(3)
H3_32 H 0.376433 0.557670 0.628865
C4_32 C 0.4199(3) 0.5344(3) 0.6241(3)
C5_32 C 0.4436(4) 0.5264(4) 0.6015(3)
H4_32 H 0.461631 0.514035 0.607629
C6_32 C 0.4215(3) 0.5212(3) 0.6576(3)
C7_32 C 0.5067(4) 0.4456(3) 0.6494(4)
H5_32 H 0.506535 0.467958 0.645976
C8_32 C 0.5269(5) 0.4262(4) 0.6312(4)
H6_32 H 0.539731 0.435373 0.614953
C9_32 C 0.5283(4) 0.3936(3) 0.6368(4)
H7_32 H 0.542918 0.380766 0.625227
C10_32 C 0.5079(3) 0.3796(3) 0.6598(3)
C11_32 C 0.4879(3) 0.4011(3) 0.6771(3)
H8_32 H 0.474353 0.392517 0.693072
C12_32 C 0.5063(3) 0.3438(3) 0.6653(3)
O7_32 O 0.5054(3) 0.4959(3) 0.7034(4)
O8_32 O 0.4160(3) 0.4360(2) 0.6740(2)
O9_32 O 0.5020(3) 0.4428(3) 0.7403(3)
Cr4_32 Cr 0.35070(5) 0.47597(5) 0.72305(4)
O11_32 O 0.3515(2) 0.47585(19) 0.77126(18)
H9_32 H 0.496928 0.420202 0.747254
H10_32 H 0.520699 0.442511 0.72497
H11_27 H 0.51159 0.507835 0.7235
H12_32 H 0.52262 0.479823 0.697946
H13_32 H 0.40222 0.451609 0.661703
H14_32 H 0.429399 0.42314 0.658513
N1_33 N 0.9302(4) 0.5598(4) 0.0370(4)
C1_33 C 0.9377(4) 0.5883(5) 0.0548(4)
H1_33 H 0.959201 0.591525 0.061122
C2_33 C 0.9162(3) 0.6104(4) 0.0630(4)
H2_33 H 0.922184 0.627997 0.075844
C3_33 C 0.8861(3) 0.6073(4) 0.0527(3)
H3_33 H 0.871135 0.623567 0.057670
C4_33 C 0.8759(3) 0.5801(3) 0.0344(3)
C5_33 C 0.8985(3) 0.5564(4) 0.0264(4)
H4_33 H 0.892371 0.538369 0.014035
C6_33 C 0.8424(3) 0.5785(3) 0.0212(3)
H11_28 H 0.7765 0.48841 0.00783497
O5_33 O 0.8357(2) 0.5572(2) 0.9999(2)
N2_33 N 0.8279(3) 0.5130(3) 0.9325(2)
C7_33 C 0.8506(4) 0.4933(4) 0.9456(3)
H5_33 H 0.854024 0.493465 0.967958
C8_33 C 0.8688(4) 0.4731(5) 0.9262(4)
H6_33 H 0.885047 0.460269 0.935373
C9_33 C 0.8632(4) 0.4717(4) 0.8936(3)
H7_33 H 0.874773 0.457082 0.880766
C10_33 C 0.8402(3) 0.4921(3) 0.8796(3)
C11_33 C 0.8229(3) 0.5121(3) 0.9011(3)
H8_33 H 0.806928 0.525647 0.892517
C12_33 C 0.8347(3) 0.4937(3) 0.8438(3)
O7_33 O 0.7966(4) 0.4946(3) 0.9959(3)
O8_33 O 0.8260(2) 0.5840(3) 0.9360(2)
O9_33 O 0.7597(3) 0.4980(3) 0.9428(3)
Cr4_33 Cr 0.77695(4) 0.64930(5) 0.97597(5)
O11_33 O 0.72874(18) 0.6485(2) 0.97585(19)
H9_33 H 0.752746 0.503072 0.920202
H10_33 H 0.77503 0.479301 0.942511
H12_33 H 0.802054 0.47738 0.979823
H13_33 H 0.838297 0.59778 0.951609
H14_33 H 0.841487 0.570601 0.92314
O5_34 O 0.1643(2) 0.0572(2) 0.5001(2)
N1_34 N 0.0698(4) 0.0598(4) 0.4630(4)
N2_34 N 0.1721(3) 0.0130(3) 0.5675(2)
C1_34 C 0.0623(4) 0.0883(5) 0.4452(4)
H1_34 H 0.040799 0.091525 0.438878
C2_34 C 0.0838(3) 0.1104(4) 0.4370(4)
H2_34 H 0.077816 0.127997 0.424156
C3_34 C 0.1139(3) 0.1073(4) 0.4473(3)
H3_34 H 0.128865 0.123567 0.442330
C4_34 C 0.1241(3) 0.0801(3) 0.4656(3)
C5_34 C 0.1015(3) 0.0564(4) 0.4736(4)
H4_34 H 0.107629 0.038369 0.485965
C6_34 C 0.1576(3) 0.0785(3) 0.4788(3)
C11_34 C 0.1771(3) 0.0121(3) 0.5989(3)
H8_34 H 0.193072 0.025647 0.607483
O8_34 O 0.1740(2) 0.0840(3) 0.5640(2)
Cr4_34 Cr 0.22305(4) 0.14930(5) 0.52403(5)
O11_34 O 0.27126(18) 0.1485(2) 0.52415(19)
H9_34 H 0.247254 0.00307212 0.579798
H13_34 H 0.161703 0.0977804 0.548391
H14_34 H 0.158513 0.0706007 0.57686
C7_34 C 0.1494(4) 0.9933(4) 0.5544(3)
H5_34 H 0.145976 0.993465 0.532042
C8_34 C 0.1312(4) 0.9731(5) 0.5738(4)
H6_34 H 0.114953 0.960269 0.564627
C9_34 C 0.1368(4) 0.9717(4) 0.6064(3)
H7_34 H 0.125227 0.957082 0.619234
C10_34 C 0.1598(3) 0.9921(3) 0.6204(3)
C12_34 C 0.1653(3) 0.9937(3) 0.6562(3)
O7_34 O 0.2034(4) 0.9946(3) 0.5041(3)
O9_34 O 0.2403(3) 0.9980(3) 0.5572(3)
H10_34 H 0.22497 0.979301 0.557489
H11_29 H 0.2235 0.98841 0.492165
H12_34 H 0.197946 0.97738 0.520177
C7_35 C 0.3506(4) 0.0067(4) 0.0544(3)
H5_35 H 0.354024 0.006535 0.032042
C8_35 C 0.3688(4) 0.0269(5) 0.0738(4)
H6_35 H 0.385047 0.039731 0.064627
C9_35 C 0.3632(4) 0.0283(4) 0.1064(3)
H7_35 H 0.374773 0.042918 0.119234
C10_35 C 0.3402(3) 0.0079(3) 0.1204(3)
C12_35 C 0.3347(3) 0.0063(3) 0.1562(3)
O7_35 O 0.2966(4) 0.0054(3) 0.0041(3)
O9_35 O 0.2597(3) 0.0020(3) 0.0572(3)
H10_35 H 0.27503 0.0206995 0.0574889
H12_35 H 0.302054 0.0226202 0.0201771
O5_35 O 0.3357(2) 0.9428(2) 0.0001(2)
N2_35 N 0.3279(3) 0.9870(3) 0.0675(2)
C11_35 C 0.3229(3) 0.9879(3) 0.0989(3)
H8_35 H 0.306928 0.974353 0.107483
O8_35 O 0.3260(2) 0.9160(3) 0.0640(2)
Cr4_35 Cr 0.27695(4) 0.85070(5) 0.02403(5)
O11_35 O 0.22874(18) 0.8515(2) 0.02415(19)
H9_35 H 0.252746 0.996928 0.0797981
H13_35 H 0.338297 0.90222 0.0483912
H14_35 H 0.341487 0.929399 0.0768596
N1_35 N 0.4302(4) 0.9402(4) 0.9630(4)
C1_35 C 0.4377(4) 0.9117(5) 0.9452(4)
H1_35 H 0.459201 0.908475 0.938878
C2_35 C 0.4162(3) 0.8896(4) 0.9370(4)
H2_35 H 0.422184 0.872003 0.924156
C3_35 C 0.3861(3) 0.8927(4) 0.9473(3)
H3_35 H 0.371135 0.876433 0.942330
C4_35 C 0.3759(3) 0.9199(3) 0.9656(3)
C5_35 C 0.3985(3) 0.9436(4) 0.9736(4)
H4_35 H 0.392371 0.961631 0.985965
C6_35 C 0.3424(3) 0.9215(3) 0.9788(3)
O5_36 O 0.6643(2) 0.4428(2) 0.4999(2)
N1_36 N 0.5698(4) 0.4402(4) 0.5370(4)
N2_36 N 0.6721(3) 0.4870(3) 0.4325(2)
C1_36 C 0.5623(4) 0.4117(5) 0.5548(4)
H1_36 H 0.540799 0.408475 0.561122
C2_36 C 0.5838(3) 0.3896(4) 0.5630(4)
H2_36 H 0.577816 0.372003 0.575844
C3_36 C 0.6139(3) 0.3927(4) 0.5527(3)
H3_36 H 0.628865 0.376433 0.557670
C4_36 C 0.6241(3) 0.4199(3) 0.5344(3)
C5_36 C 0.6015(3) 0.4436(4) 0.5264(4)
H4_36 H 0.607629 0.461631 0.514035
C6_36 C 0.6576(3) 0.4215(3) 0.5212(3)
C7_36 C 0.6494(4) 0.5067(4) 0.4456(3)
H5_36 H 0.645976 0.506535 0.467958
C8_36 C 0.6312(4) 0.5269(5) 0.4262(4)
H6_36 H 0.614953 0.539731 0.435373
C9_36 C 0.6368(4) 0.5283(4) 0.3936(3)
H7_36 H 0.625227 0.542918 0.380766
C10_36 C 0.6598(3) 0.5079(3) 0.3796(3)
C11_36 C 0.6771(3) 0.4879(3) 0.4011(3)
H8_36 H 0.693072 0.474353 0.392517
C12_36 C 0.6653(3) 0.5063(3) 0.3438(3)
O7_36 O 0.7034(4) 0.5054(3) 0.4959(3)
O8_36 O 0.6740(2) 0.4160(3) 0.4360(2)
O9_36 O 0.7403(3) 0.5020(3) 0.4428(3)
Cr4_36 Cr 0.72305(4) 0.35070(5) 0.47597(5)
O11_36 O 0.77126(18) 0.3515(2) 0.47585(19)
H9_36 H 0.747254 0.496928 0.420202
H10_36 H 0.72497 0.520699 0.442511
H11_30 H 0.7235 0.51159 0.507835
H12_36 H 0.697946 0.52262 0.479823
H13_36 H 0.661703 0.40222 0.451609
H14_36 H 0.658513 0.429399 0.42314
O5_37 O 0.5857(2) 0.2499(2) 0.6928(2)
N1_37 N 0.6802(4) 0.2870(4) 0.6902(4)
N2_37 N 0.5779(3) 0.1825(2) 0.7370(3)
C1_37 C 0.6877(4) 0.3048(4) 0.6617(5)
H1_37 H 0.709201 0.311122 0.658475
C2_37 C 0.6662(3) 0.3130(4) 0.6396(4)
H2_37 H 0.672184 0.325844 0.622003
C3_37 C 0.6361(3) 0.3027(3) 0.6427(4)
H3_37 H 0.621135 0.307670 0.626433
C4_37 C 0.6259(3) 0.2844(3) 0.6699(3)
C5_37 C 0.6485(3) 0.2764(4) 0.6936(4)
H4_37 H 0.642371 0.264035 0.711631
C6_37 C 0.5924(3) 0.2712(3) 0.6715(3)
C7_37 C 0.6006(4) 0.1956(3) 0.7567(4)
H5_37 H 0.604024 0.217958 0.756535
C8_37 C 0.6188(4) 0.1762(4) 0.7769(5)
H6_37 H 0.635047 0.185373 0.789731
C9_37 C 0.6132(4) 0.1436(3) 0.7783(4)
H7_37 H 0.624773 0.130766 0.792918
C10_37 C 0.5902(3) 0.1296(3) 0.7579(3)
C11_37 C 0.5729(3) 0.1511(3) 0.7379(3)
H8_37 H 0.556928 0.142517 0.724353
C12_37 C 0.5847(3) 0.0938(3) 0.7563(3)
O7_37 O 0.5466(4) 0.2459(3) 0.7554(3)
O8_37 O 0.5760(2) 0.1860(2) 0.6660(3)
O9_37 O 0.5097(3) 0.1928(3) 0.7520(3)
Cr4_37 Cr 0.52695(4) 0.22597(5) 0.60070(5)
O11_37 O 0.47874(18) 0.22585(19) 0.6015(2)
H9_37 H 0.502746 0.170202 0.746928
H10_37 H 0.52503 0.192511 0.770699
H11_31 H 0.5265 0.257835 0.76159
H12_37 H 0.552054 0.229823 0.77262
H13_37 H 0.588297 0.201609 0.65222
H14_37 H 0.591487 0.17314 0.679399
O11_38 O 0.02126(18) 0.77415(19) 0.1015(2)
O5_38 O 0.9143(2) 0.7501(2) 0.1928(2)
N1_38 N 0.8198(4) 0.7130(4) 0.1902(4)
N2_38 N 0.9221(3) 0.8175(2) 0.2370(3)
C1_38 C 0.8123(4) 0.6952(4) 0.1617(5)
H1_38 H 0.790799 0.688878 0.158475
C2_38 C 0.8338(3) 0.6870(4) 0.1396(4)
H2_38 H 0.827816 0.674156 0.122003
C3_38 C 0.8639(3) 0.6973(3) 0.1427(4)
H3_38 H 0.878865 0.692330 0.126433
C4_38 C 0.8741(3) 0.7156(3) 0.1699(3)
C5_38 C 0.8515(3) 0.7236(4) 0.1936(4)
H4_38 H 0.857629 0.735965 0.211631
C6_38 C 0.9076(3) 0.7288(3) 0.1715(3)
C7_38 C 0.8994(4) 0.8044(3) 0.2567(4)
H5_38 H 0.895976 0.782042 0.256535
C8_38 C 0.8812(4) 0.8238(4) 0.2769(5)
H6_38 H 0.864953 0.814627 0.289731
C9_38 C 0.8868(4) 0.8564(3) 0.2783(4)
H7_38 H 0.875227 0.869234 0.292918
C10_38 C 0.9098(3) 0.8704(3) 0.2579(3)
C11_38 C 0.9271(3) 0.8489(3) 0.2379(3)
H8_38 H 0.943072 0.857483 0.224353
C12_38 C 0.9153(3) 0.9062(3) 0.2563(3)
O7_38 O 0.9534(4) 0.7541(3) 0.2554(3)
O8_38 O 0.9240(2) 0.8140(2) 0.1660(3)
O9_38 O 0.9903(3) 0.8072(3) 0.2520(3)
Cr4_38 Cr 0.97305(4) 0.77403(5) 0.10070(5)
H9_38 H 0.997254 0.829798 0.246928
H10_38 H 0.97497 0.807489 0.270699
H11_32 H 0.9735 0.742165 0.26159
H12_38 H 0.947946 0.770177 0.27262
H13_38 H 0.911703 0.798391 0.15222
H14_38 H 0.908513 0.82686 0.179399
O5_39 O 0.0857(2) 0.2501(2) 0.3072(2)
N1_39 N 0.1802(4) 0.2130(4) 0.3098(4)
N2_39 N 0.0779(3) 0.3175(2) 0.2630(3)
C1_39 C 0.1877(4) 0.1952(4) 0.3383(5)
H1_39 H 0.209201 0.188878 0.341525
C2_39 C 0.1662(3) 0.1870(4) 0.3604(4)
H2_39 H 0.172184 0.174156 0.377997
C3_39 C 0.1361(3) 0.1973(3) 0.3573(4)
H3_39 H 0.121135 0.192330 0.373567
C4_39 C 0.1259(3) 0.2156(3) 0.3301(3)
C5_39 C 0.1485(3) 0.2236(4) 0.3064(4)
H4_39 H 0.142371 0.235965 0.288369
C6_39 C 0.0924(3) 0.2288(3) 0.3285(3)
C7_39 C 0.1006(4) 0.3044(3) 0.2433(4)
H5_39 H 0.104024 0.282042 0.243465
C8_39 C 0.1188(4) 0.3238(4) 0.2231(5)
H6_39 H 0.135047 0.314627 0.210269
C9_39 C 0.1132(4) 0.3564(3) 0.2217(4)
H7_39 H 0.124773 0.369234 0.207082
C10_39 C 0.0902(3) 0.3704(3) 0.2421(3)
C11_39 C 0.0729(3) 0.3489(3) 0.2621(3)
H8_39 H 0.056928 0.357483 0.275647
C12_39 C 0.0847(3) 0.4062(3) 0.2437(3)
O7_39 O 0.0466(4) 0.2541(3) 0.2446(3)
O8_39 O 0.0760(2) 0.3140(2) 0.3340(3)
O9_39 O 0.0097(3) 0.3072(3) 0.2480(3)
Cr4_39 Cr 0.02695(4) 0.27403(5) 0.39930(5)
H9_39 H 0.00274609 0.329798 0.253072
H10_39 H 0.0250298 0.307489 0.229301
H11_33 H 0.0265003 0.242165 0.23841
H12_39 H 0.0520545 0.270177 0.22738
H13_39 H 0.0882974 0.298391 0.34778
H14_39 H 0.091487 0.32686 0.320601
O11_39 O 0.97874(18) 0.27415(19) 0.3985(2)
O5_40 O 0.4143(2) 0.7499(2) 0.8072(2)
N1_40 N 0.3198(4) 0.7870(4) 0.8098(4)
N2_40 N 0.4221(3) 0.6825(2) 0.7630(3)
C1_40 C 0.3123(4) 0.8048(4) 0.8383(5)
H1_40 H 0.290799 0.811122 0.841525
C2_40 C 0.3338(3) 0.8130(4) 0.8604(4)
H2_40 H 0.327816 0.825844 0.877997
C3_40 C 0.3639(3) 0.8027(3) 0.8573(4)
H3_40 H 0.378865 0.807670 0.873567
C4_40 C 0.3741(3) 0.7844(3) 0.8301(3)
C5_40 C 0.3515(3) 0.7764(4) 0.8064(4)
H4_40 H 0.357629 0.764035 0.788369
C6_40 C 0.4076(3) 0.7712(3) 0.8285(3)
C7_40 C 0.3994(4) 0.6956(3) 0.7433(4)
H5_40 H 0.395976 0.717958 0.743465
C8_40 C 0.3812(4) 0.6762(4) 0.7231(5)
H6_40 H 0.364953 0.685373 0.710269
C9_40 C 0.3868(4) 0.6436(3) 0.7217(4)
H7_40 H 0.375227 0.630766 0.707082
C10_40 C 0.4098(3) 0.6296(3) 0.7421(3)
C11_40 C 0.4271(3) 0.6511(3) 0.7621(3)
H8_40 H 0.443072 0.642517 0.775647
C12_40 C 0.4153(3) 0.5938(3) 0.7437(3)
O7_40 O 0.4534(4) 0.7459(3) 0.7446(3)
O8_40 O 0.4240(2) 0.6860(2) 0.8340(3)
O9_40 O 0.4903(3) 0.6928(3) 0.7480(3)
Cr4_40 Cr 0.47305(4) 0.72597(5) 0.89930(5)
O11_40 O 0.52126(18) 0.72585(19) 0.8985(2)
H9_40 H 0.497254 0.670202 0.753072
H10_40 H 0.47497 0.692511 0.729301
H11_34 H 0.4735 0.757835 0.73841
H12_40 H 0.447946 0.729823 0.72738
H13_40 H 0.411703 0.701609 0.84778
H14_40 H 0.408513 0.67314 0.820601
O5_41 O 0.7499(2) 0.8072(2) 0.4143(2)
N1_41 N 0.7870(4) 0.8098(4) 0.3198(4)
N2_41 N 0.6825(2) 0.7630(3) 0.4221(3)
C1_41 C 0.8048(4) 0.8383(5) 0.3123(4)
H1_41 H 0.811122 0.841525 0.290799
C2_41 C 0.8130(4) 0.8604(4) 0.3338(3)
H2_41 H 0.825844 0.877997 0.327816
C3_41 C 0.8027(3) 0.8573(4) 0.3639(3)
H3_41 H 0.807670 0.873567 0.378865
C4_41 C 0.7844(3) 0.8301(3) 0.3741(3)
C5_41 C 0.7764(4) 0.8064(4) 0.3515(3)
H4_41 H 0.764035 0.788369 0.357629
C6_41 C 0.7712(3) 0.8285(3) 0.4076(3)
C7_41 C 0.6956(3) 0.7433(4) 0.3994(4)
H5_41 H 0.717958 0.743465 0.395976
C8_41 C 0.6762(4) 0.7231(5) 0.3812(4)
H6_41 H 0.685373 0.710269 0.364953
C9_41 C 0.6436(3) 0.7217(4) 0.3868(4)
H7_41 H 0.630766 0.707082 0.375227
C10_41 C 0.6296(3) 0.7421(3) 0.4098(3)
C11_41 C 0.6511(3) 0.7621(3) 0.4271(3)
H8_41 H 0.642517 0.775647 0.443072
C12_41 C 0.5938(3) 0.7437(3) 0.4153(3)
O7_41 O 0.7459(3) 0.7446(3) 0.4534(4)
O8_41 O 0.6860(2) 0.8340(3) 0.4240(2)
O9_41 O 0.6928(3) 0.7480(3) 0.4903(3)
Cr4_41 Cr 0.72597(5) 0.89930(5) 0.47305(4)
O11_41 O 0.72585(19) 0.8985(2) 0.52126(18)
H9_41 H 0.670202 0.753072 0.497254
H10_41 H 0.692511 0.729301 0.47497
H11_35 H 0.757835 0.73841 0.4735
H12_41 H 0.729823 0.72738 0.447946
H13_41 H 0.701609 0.84778 0.411703
H14_41 H 0.67314 0.820601 0.408513
O5_42 O 0.2501(2) 0.3072(2) 0.0857(2)
N1_42 N 0.2130(4) 0.3098(4) 0.1802(4)
N2_42 N 0.3175(2) 0.2630(3) 0.0779(3)
C1_42 C 0.1952(4) 0.3383(5) 0.1877(4)
H1_42 H 0.188878 0.341525 0.209201
C2_42 C 0.1870(4) 0.3604(4) 0.1662(3)
H2_42 H 0.174156 0.377997 0.172184
C3_42 C 0.1973(3) 0.3573(4) 0.1361(3)
H3_42 H 0.192330 0.373567 0.121135
C4_42 C 0.2156(3) 0.3301(3) 0.1259(3)
C5_42 C 0.2236(4) 0.3064(4) 0.1485(3)
H4_42 H 0.235965 0.288369 0.142371
C6_42 C 0.2288(3) 0.3285(3) 0.0924(3)
C7_42 C 0.3044(3) 0.2433(4) 0.1006(4)
H5_42 H 0.282042 0.243465 0.104024
C8_42 C 0.3238(4) 0.2231(5) 0.1188(4)
H6_42 H 0.314627 0.210269 0.135047
C9_42 C 0.3564(3) 0.2217(4) 0.1132(4)
H7_42 H 0.369234 0.207082 0.124773
C10_42 C 0.3704(3) 0.2421(3) 0.0902(3)
C11_42 C 0.3489(3) 0.2621(3) 0.0729(3)
H8_42 H 0.357483 0.275647 0.056928
C12_42 C 0.4062(3) 0.2437(3) 0.0847(3)
O7_42 O 0.2541(3) 0.2446(3) 0.0466(4)
O8_42 O 0.3140(2) 0.3340(3) 0.0760(2)
O9_42 O 0.3072(3) 0.2480(3) 0.0097(3)
Cr4_42 Cr 0.27403(5) 0.39930(5) 0.02695(4)
H9_42 H 0.329798 0.253072 0.00274609
H10_42 H 0.307489 0.229301 0.0250298
H11_36 H 0.242165 0.23841 0.0265003
H12_42 H 0.270177 0.22738 0.0520545
H13_42 H 0.298391 0.34778 0.0882974
H14_42 H 0.32686 0.320601 0.091487
O11_42 O 0.27415(19) 0.3985(2) 0.97874(18)
O11_43 O 0.77415(19) 0.1015(2) 0.02126(18)
O5_43 O 0.7501(2) 0.1928(2) 0.9143(2)
N1_43 N 0.7130(4) 0.1902(4) 0.8198(4)
N2_43 N 0.8175(2) 0.2370(3) 0.9221(3)
C1_43 C 0.6952(4) 0.1617(5) 0.8123(4)
H1_43 H 0.688878 0.158475 0.790799
C2_43 C 0.6870(4) 0.1396(4) 0.8338(3)
H2_43 H 0.674156 0.122003 0.827816
C3_43 C 0.6973(3) 0.1427(4) 0.8639(3)
H3_43 H 0.692330 0.126433 0.878865
C4_43 C 0.7156(3) 0.1699(3) 0.8741(3)
C5_43 C 0.7236(4) 0.1936(4) 0.8515(3)
H4_43 H 0.735965 0.211631 0.857629
C6_43 C 0.7288(3) 0.1715(3) 0.9076(3)
C7_43 C 0.8044(3) 0.2567(4) 0.8994(4)
H5_43 H 0.782042 0.256535 0.895976
C8_43 C 0.8238(4) 0.2769(5) 0.8812(4)
H6_43 H 0.814627 0.289731 0.864953
C9_43 C 0.8564(3) 0.2783(4) 0.8868(4)
H7_43 H 0.869234 0.292918 0.875227
C10_43 C 0.8704(3) 0.2579(3) 0.9098(3)
C11_43 C 0.8489(3) 0.2379(3) 0.9271(3)
H8_43 H 0.857483 0.224353 0.943072
C12_43 C 0.9062(3) 0.2563(3) 0.9153(3)
O7_43 O 0.7541(3) 0.2554(3) 0.9534(4)
O8_43 O 0.8140(2) 0.1660(3) 0.9240(2)
O9_43 O 0.8072(3) 0.2520(3) 0.9903(3)
Cr4_43 Cr 0.77403(5) 0.10070(5) 0.97305(4)
H9_43 H 0.829798 0.246928 0.997254
H10_43 H 0.807489 0.270699 0.97497
H11_37 H 0.742165 0.26159 0.9735
H12_43 H 0.770177 0.27262 0.947946
H13_43 H 0.798391 0.15222 0.911703
H14_43 H 0.82686 0.179399 0.908513
O5_44 O 0.2499(2) 0.6928(2) 0.5857(2)
N1_44 N 0.2870(4) 0.6902(4) 0.6802(4)
N2_44 N 0.1825(2) 0.7370(3) 0.5779(3)
C1_44 C 0.3048(4) 0.6617(5) 0.6877(4)
H1_44 H 0.311122 0.658475 0.709201
C2_44 C 0.3130(4) 0.6396(4) 0.6662(3)
H2_44 H 0.325844 0.622003 0.672184
C3_44 C 0.3027(3) 0.6427(4) 0.6361(3)
H3_44 H 0.307670 0.626433 0.621135
C4_44 C 0.2844(3) 0.6699(3) 0.6259(3)
C5_44 C 0.2764(4) 0.6936(4) 0.6485(3)
H4_44 H 0.264035 0.711631 0.642371
C6_44 C 0.2712(3) 0.6715(3) 0.5924(3)
C7_44 C 0.1956(3) 0.7567(4) 0.6006(4)
H5_44 H 0.217958 0.756535 0.604024
C8_44 C 0.1762(4) 0.7769(5) 0.6188(4)
H6_44 H 0.185373 0.789731 0.635047
C9_44 C 0.1436(3) 0.7783(4) 0.6132(4)
H7_44 H 0.130766 0.792918 0.624773
C10_44 C 0.1296(3) 0.7579(3) 0.5902(3)
C11_44 C 0.1511(3) 0.7379(3) 0.5729(3)
H8_44 H 0.142517 0.724353 0.556928
C12_44 C 0.0938(3) 0.7563(3) 0.5847(3)
O7_44 O 0.2459(3) 0.7554(3) 0.5466(4)
O8_44 O 0.1860(2) 0.6660(3) 0.5760(2)
O9_44 O 0.1928(3) 0.7520(3) 0.5097(3)
Cr4_44 Cr 0.22597(5) 0.60070(5) 0.52695(4)
O11_44 O 0.22585(19) 0.6015(2) 0.47874(18)
H9_44 H 0.170202 0.746928 0.502746
H10_44 H 0.192511 0.770699 0.52503
H11_38 H 0.257835 0.76159 0.5265
H12_44 H 0.229823 0.77262 0.552054
H13_44 H 0.201609 0.65222 0.588297
H14_44 H 0.17314 0.679399 0.591487
O5_45 O 0.3072(2) 0.0857(2) 0.2501(2)
N1_45 N 0.3098(4) 0.1802(4) 0.2130(4)
N2_45 N 0.2630(3) 0.0779(3) 0.3175(2)
C1_45 C 0.3383(5) 0.1877(4) 0.1952(4)
H1_45 H 0.341525 0.209201 0.188878
C2_45 C 0.3604(4) 0.1662(3) 0.1870(4)
H2_45 H 0.377997 0.172184 0.174156
C3_45 C 0.3573(4) 0.1361(3) 0.1973(3)
H3_45 H 0.373567 0.121135 0.192330
C4_45 C 0.3301(3) 0.1259(3) 0.2156(3)
C5_45 C 0.3064(4) 0.1485(3) 0.2236(4)
H4_45 H 0.288369 0.142371 0.235965
C6_45 C 0.3285(3) 0.0924(3) 0.2288(3)
C7_45 C 0.2433(4) 0.1006(4) 0.3044(3)
H5_45 H 0.243465 0.104024 0.282042
C8_45 C 0.2231(5) 0.1188(4) 0.3238(4)
H6_45 H 0.210269 0.135047 0.314627
C9_45 C 0.2217(4) 0.1132(4) 0.3564(3)
H7_45 H 0.207082 0.124773 0.369234
C10_45 C 0.2421(3) 0.0902(3) 0.3704(3)
C11_45 C 0.2621(3) 0.0729(3) 0.3489(3)
H8_45 H 0.275647 0.056928 0.357483
C12_45 C 0.2437(3) 0.0847(3) 0.4062(3)
O7_45 O 0.2446(3) 0.0466(4) 0.2541(3)
O8_45 O 0.3340(3) 0.0760(2) 0.3140(2)
O9_45 O 0.2480(3) 0.0097(3) 0.3072(3)
Cr4_45 Cr 0.39930(5) 0.02695(4) 0.27403(5)
H9_45 H 0.253072 0.00274609 0.329798
H10_45 H 0.229301 0.0250298 0.307489
H11_39 H 0.23841 0.0265003 0.242165
H12_45 H 0.22738 0.0520545 0.270177
H13_45 H 0.34778 0.0882974 0.298391
H14_45 H 0.320601 0.091487 0.32686
O11_45 O 0.3985(2) 0.97874(18) 0.27415(19)
O5_46 O 0.8072(2) 0.4143(2) 0.7499(2)
N1_46 N 0.8098(4) 0.3198(4) 0.7870(4)
N2_46 N 0.7630(3) 0.4221(3) 0.6825(2)
C1_46 C 0.8383(5) 0.3123(4) 0.8048(4)
H1_46 H 0.841525 0.290799 0.811122
C2_46 C 0.8604(4) 0.3338(3) 0.8130(4)
H2_46 H 0.877997 0.327816 0.825844
C3_46 C 0.8573(4) 0.3639(3) 0.8027(3)
H3_46 H 0.873567 0.378865 0.807670
C4_46 C 0.8301(3) 0.3741(3) 0.7844(3)
C5_46 C 0.8064(4) 0.3515(3) 0.7764(4)
H4_46 H 0.788369 0.357629 0.764035
C6_46 C 0.8285(3) 0.4076(3) 0.7712(3)
C7_46 C 0.7433(4) 0.3994(4) 0.6956(3)
H5_46 H 0.743465 0.395976 0.717958
C8_46 C 0.7231(5) 0.3812(4) 0.6762(4)
H6_46 H 0.710269 0.364953 0.685373
C9_46 C 0.7217(4) 0.3868(4) 0.6436(3)
H7_46 H 0.707082 0.375227 0.630766
C10_46 C 0.7421(3) 0.4098(3) 0.6296(3)
C11_46 C 0.7621(3) 0.4271(3) 0.6511(3)
H8_46 H 0.775647 0.443072 0.642517
C12_46 C 0.7437(3) 0.4153(3) 0.5938(3)
O7_46 O 0.7446(3) 0.4534(4) 0.7459(3)
O8_46 O 0.8340(3) 0.4240(2) 0.6860(2)
O9_46 O 0.7480(3) 0.4903(3) 0.6928(3)
Cr4_46 Cr 0.89930(5) 0.47305(4) 0.72597(5)
O11_46 O 0.8985(2) 0.52126(18) 0.72585(19)
H9_46 H 0.753072 0.497254 0.670202
H10_46 H 0.729301 0.47497 0.692511
H11_40 H 0.73841 0.4735 0.757835
H12_46 H 0.72738 0.447946 0.729823
H13_46 H 0.84778 0.411703 0.701609
H14_46 H 0.820601 0.408513 0.67314
O5_47 O 0.6928(2) 0.5857(2) 0.2499(2)
N1_47 N 0.6902(4) 0.6802(4) 0.2870(4)
N2_47 N 0.7370(3) 0.5779(3) 0.1825(2)
C1_47 C 0.6617(5) 0.6877(4) 0.3048(4)
H1_47 H 0.658475 0.709201 0.311122
C2_47 C 0.6396(4) 0.6662(3) 0.3130(4)
H2_47 H 0.622003 0.672184 0.325844
C3_47 C 0.6427(4) 0.6361(3) 0.3027(3)
H3_47 H 0.626433 0.621135 0.307670
C4_47 C 0.6699(3) 0.6259(3) 0.2844(3)
C5_47 C 0.6936(4) 0.6485(3) 0.2764(4)
H4_47 H 0.711631 0.642371 0.264035
C6_47 C 0.6715(3) 0.5924(3) 0.2712(3)
C7_47 C 0.7567(4) 0.6006(4) 0.1956(3)
H5_47 H 0.756535 0.604024 0.217958
C8_47 C 0.7769(5) 0.6188(4) 0.1762(4)
H6_47 H 0.789731 0.635047 0.185373
C9_47 C 0.7783(4) 0.6132(4) 0.1436(3)
H7_47 H 0.792918 0.624773 0.130766
C10_47 C 0.7579(3) 0.5902(3) 0.1296(3)
C11_47 C 0.7379(3) 0.5729(3) 0.1511(3)
H8_47 H 0.724353 0.556928 0.142517
C12_47 C 0.7563(3) 0.5847(3) 0.0938(3)
O7_47 O 0.7554(3) 0.5466(4) 0.2459(3)
O8_47 O 0.6660(3) 0.5760(2) 0.1860(2)
O9_47 O 0.7520(3) 0.5097(3) 0.1928(3)
Cr4_47 Cr 0.60070(5) 0.52695(4) 0.22597(5)
O11_47 O 0.6015(2) 0.47874(18) 0.22585(19)
H9_47 H 0.746928 0.502746 0.170202
H10_47 H 0.770699 0.52503 0.192511
H11_41 H 0.76159 0.5265 0.257835
H12_47 H 0.77262 0.552054 0.229823
H13_47 H 0.65222 0.588297 0.201609
H14_47 H 0.679399 0.591487 0.17314
O11_48 O 0.1015(2) 0.02126(18) 0.77415(19)
O5_48 O 0.1928(2) 0.9143(2) 0.7501(2)
N1_48 N 0.1902(4) 0.8198(4) 0.7130(4)
N2_48 N 0.2370(3) 0.9221(3) 0.8175(2)
C1_48 C 0.1617(5) 0.8123(4) 0.6952(4)
H1_48 H 0.158475 0.790799 0.688878
C2_48 C 0.1396(4) 0.8338(3) 0.6870(4)
H2_48 H 0.122003 0.827816 0.674156
C3_48 C 0.1427(4) 0.8639(3) 0.6973(3)
H3_48 H 0.126433 0.878865 0.692330
C4_48 C 0.1699(3) 0.8741(3) 0.7156(3)
C5_48 C 0.1936(4) 0.8515(3) 0.7236(4)
H4_48 H 0.211631 0.857629 0.735965
C6_48 C 0.1715(3) 0.9076(3) 0.7288(3)
C7_48 C 0.2567(4) 0.8994(4) 0.8044(3)
H5_48 H 0.256535 0.895976 0.782042
C8_48 C 0.2769(5) 0.8812(4) 0.8238(4)
H6_48 H 0.289731 0.864953 0.814627
C9_48 C 0.2783(4) 0.8868(4) 0.8564(3)
H7_48 H 0.292918 0.875227 0.869234
C10_48 C 0.2579(3) 0.9098(3) 0.8704(3)
C11_48 C 0.2379(3) 0.9271(3) 0.8489(3)
H8_48 H 0.224353 0.943072 0.857483
C12_48 C 0.2563(3) 0.9153(3) 0.9062(3)
O7_48 O 0.2554(3) 0.9534(4) 0.7541(3)
O8_48 O 0.1660(3) 0.9240(2) 0.8140(2)
O9_48 O 0.2520(3) 0.9903(3) 0.8072(3)
Cr4_48 Cr 0.10070(5) 0.97305(4) 0.77403(5)
H9_48 H 0.246928 0.997254 0.829798
H10_48 H 0.270699 0.97497 0.807489
H11_42 H 0.26159 0.9735 0.742165
H12_48 H 0.27262 0.947946 0.770177
H13_48 H 0.15222 0.911703 0.798391
H14_48 H 0.179399 0.908513 0.82686
O3_25 O 0.67403(19) 0.6481(2) 0.0234(2)
C7_49 C 0.5544(3) 0.6494(4) 0.0067(4)
H5_49 H 0.532042 0.645976 0.006535
C8_49 C 0.5738(4) 0.6312(4) 0.0269(5)
H6_49 H 0.564627 0.614953 0.039731
C9_49 C 0.6064(3) 0.6368(4) 0.0283(4)
H7_49 H 0.619234 0.625227 0.042918
C10_49 C 0.6204(3) 0.6598(3) 0.0079(3)
C12_49 C 0.6562(3) 0.6653(3) 0.0063(3)
O7_49 O 0.5041(3) 0.7034(4) 0.0054(3)
O9_49 O 0.5572(3) 0.7403(3) 0.0020(3)
H10_49 H 0.557489 0.72497 0.0206995
H11_43 H 0.492165 0.7235 0.01159
H12_49 H 0.520177 0.697946 0.0226202
Er1_25 Er 0.53292(2) 0.71240(2) 0.95306(2)
O2_25 O 0.4675(2) 0.6777(2) 0.9004(2)
O4_25 O 0.5243(2) 0.7707(2) 0.9470(2)
O5_49 O 0.5001(2) 0.6643(2) 0.9428(2)
O6_25 O 0.6657(2) 0.6869(2) 0.9864(2)
N1_49 N 0.4630(4) 0.5698(4) 0.9402(4)
N2_49 N 0.5675(2) 0.6721(3) 0.9870(3)
C1_49 C 0.4452(4) 0.5623(4) 0.9117(5)
H1_49 H 0.438878 0.540799 0.908475
C2_49 C 0.4370(4) 0.5838(3) 0.8896(4)
H2_49 H 0.424156 0.577816 0.872003
C3_49 C 0.4473(3) 0.6139(3) 0.8927(4)
H3_49 H 0.442330 0.628865 0.876433
C4_49 C 0.4656(3) 0.6241(3) 0.9199(3)
C5_49 C 0.4736(4) 0.6015(3) 0.9436(4)
H4_49 H 0.485965 0.607629 0.961631
C6_49 C 0.4788(3) 0.6576(3) 0.9215(3)
C11_49 C 0.5989(3) 0.6771(3) 0.9879(3)
H8_49 H 0.607483 0.693072 0.974353
O8_49 O 0.5640(2) 0.6740(2) 0.9160(3)
Er2_13 Er 0.46708(2) 0.78760(2) 0.95306(2)
Er3_13 Er 0.71708(2) 0.70306(2) 0.96240(2)
O12_25 O 0.5325(2) 0.8223(2) 0.9004(2)
O13_25 O 0.57597(19) 0.7734(2) 0.8981(2)
O14_25 O 0.4757(2) 0.7293(2) 0.9470(2)
O15_25 O 0.5843(2) 0.7364(2) 0.9369(2)
H9_49 H 0.579798 0.747254 0.996928
H13_49 H 0.548391 0.661703 0.90222
H14_49 H 0.57686 0.658513 0.929399
O2_26 O 0.0325(2) 0.3223(2) 0.4004(2)
N1_50 N 0.0370(4) 0.4302(4) 0.4402(4)
C1_50 C 0.0548(4) 0.4377(4) 0.4117(5)
H1_50 H 0.061122 0.459201 0.408475
C2_50 C 0.0630(4) 0.4162(3) 0.3896(4)
H2_50 H 0.075844 0.422184 0.372003
C3_50 C 0.0527(3) 0.3861(3) 0.3927(4)
H3_50 H 0.057670 0.371135 0.376433
C4_50 C 0.0344(3) 0.3759(3) 0.4199(3)
C5_50 C 0.0264(4) 0.3985(3) 0.4436(4)
H4_50 H 0.014035 0.392371 0.461631
C6_50 C 0.0212(3) 0.3424(3) 0.4215(3)
Er2_14 Er 0.03292(2) 0.21240(2) 0.45306(2)
O14_26 O 0.0243(2) 0.2707(2) 0.4470(2)
H11_44 H 0.00783497 0.2765 0.51159
Er1_26 Er 0.96708(2) 0.28760(2) 0.45306(2)
O3_26 O 0.82597(19) 0.3519(2) 0.5234(2)
O4_26 O 0.9757(2) 0.2293(2) 0.4470(2)
O5_50 O 0.9999(2) 0.3357(2) 0.4428(2)
O6_26 O 0.8343(2) 0.3131(2) 0.4864(2)
N2_50 N 0.9325(2) 0.3279(3) 0.4870(3)
C7_50 C 0.9456(3) 0.3506(4) 0.5067(4)
H5_50 H 0.967958 0.354024 0.506535
C8_50 C 0.9262(4) 0.3688(4) 0.5269(5)
H6_50 H 0.935373 0.385047 0.539731
C9_50 C 0.8936(3) 0.3632(4) 0.5283(4)
H7_50 H 0.880766 0.374773 0.542918
C10_50 C 0.8796(3) 0.3402(3) 0.5079(3)
C11_50 C 0.9011(3) 0.3229(3) 0.4879(3)
H8_50 H 0.892517 0.306928 0.474353
C12_50 C 0.8438(3) 0.3347(3) 0.5063(3)
O7_50 O 0.9959(3) 0.2966(4) 0.5054(3)
O8_50 O 0.9360(2) 0.3260(2) 0.4160(3)
O9_50 O 0.9428(3) 0.2597(3) 0.5020(3)
Er3_14 Er 0.78292(2) 0.29694(2) 0.46240(2)
O12_26 O 0.9675(2) 0.1777(2) 0.4004(2)
O13_26 O 0.92403(19) 0.2266(2) 0.3981(2)
O15_26 O 0.9157(2) 0.2636(2) 0.4369(2)
H9_50 H 0.920202 0.252746 0.496928
H10_50 H 0.942511 0.27503 0.520699
H12_50 H 0.979823 0.302054 0.52262
H13_50 H 0.951609 0.338297 0.40222
H14_50 H 0.92314 0.341487 0.429399
Er1_27 Er 0.46708(2) 0.21240(2) 0.54694(2)
O2_27 O 0.5325(2) 0.1777(2) 0.5996(2)
O3_27 O 0.32597(19) 0.1481(2) 0.4766(2)
O4_27 O 0.4757(2) 0.2707(2) 0.5530(2)
O5_51 O 0.4999(2) 0.1643(2) 0.5572(2)
O6_27 O 0.3343(2) 0.1869(2) 0.5136(2)
N1_51 N 0.5370(4) 0.0698(4) 0.5598(4)
N2_51 N 0.4325(2) 0.1721(3) 0.5130(3)
C1_51 C 0.5548(4) 0.0623(4) 0.5883(5)
H1_51 H 0.561122 0.040799 0.591525
C2_51 C 0.5630(4) 0.0838(3) 0.6104(4)
H2_51 H 0.575844 0.077816 0.627997
C3_51 C 0.5527(3) 0.1139(3) 0.6073(4)
H3_51 H 0.557670 0.128865 0.623567
C4_51 C 0.5344(3) 0.1241(3) 0.5801(3)
C5_51 C 0.5264(4) 0.1015(3) 0.5564(4)
H4_51 H 0.514035 0.107629 0.538369
C6_51 C 0.5212(3) 0.1576(3) 0.5785(3)
C7_51 C 0.4456(3) 0.1494(4) 0.4933(4)
H5_51 H 0.467958 0.145976 0.493465
C8_51 C 0.4262(4) 0.1312(4) 0.4731(5)
H6_51 H 0.435373 0.114953 0.460269
C9_51 C 0.3936(3) 0.1368(4) 0.4717(4)
H7_51 H 0.380766 0.125227 0.457082
C10_51 C 0.3796(3) 0.1598(3) 0.4921(3)
C11_51 C 0.4011(3) 0.1771(3) 0.5121(3)
H8_51 H 0.392517 0.193072 0.525647
C12_51 C 0.3438(3) 0.1653(3) 0.4937(3)
O7_51 O 0.4959(3) 0.2034(4) 0.4946(3)
O8_51 O 0.4360(2) 0.1740(2) 0.5840(3)
O9_51 O 0.4428(3) 0.2403(3) 0.4980(3)
Er2_15 Er 0.53292(2) 0.28760(2) 0.54694(2)
Er3_15 Er 0.28292(2) 0.20306(2) 0.53760(2)
O12_27 O 0.4675(2) 0.3223(2) 0.5996(2)
O13_27 O 0.42403(19) 0.2734(2) 0.6019(2)
O14_27 O 0.5243(2) 0.2293(2) 0.5530(2)
O15_27 O 0.4157(2) 0.2364(2) 0.5631(2)
H9_51 H 0.420202 0.247254 0.503072
H10_51 H 0.442511 0.22497 0.479301
H11_45 H 0.507835 0.2235 0.48841
H12_51 H 0.479823 0.197946 0.47738
H13_51 H 0.451609 0.161703 0.59778
H14_51 H 0.42314 0.158513 0.570601
Er1_28 Er 0.03292(2) 0.78760(2) 0.04694(2)
O4_28 O 0.0243(2) 0.7293(2) 0.0530(2)
O5_52 O 0.0001(2) 0.8357(2) 0.0572(2)
O6_28 O 0.1657(2) 0.8131(2) 0.0136(2)
N2_52 N 0.0675(2) 0.8279(3) 0.0130(3)
C11_52 C 0.0989(3) 0.8229(3) 0.0121(3)
H8_52 H 0.107483 0.806928 0.025647
O8_52 O 0.0640(2) 0.8260(2) 0.0840(3)
Er3_16 Er 0.21708(2) 0.79694(2) 0.03760(2)
O12_28 O 0.0325(2) 0.6777(2) 0.0996(2)
O13_28 O 0.07597(19) 0.7266(2) 0.1019(2)
O15_28 O 0.0843(2) 0.7636(2) 0.0631(2)
H9_52 H 0.0797981 0.752746 0.00307212
H13_52 H 0.0483912 0.838297 0.0977804
H14_52 H 0.0768596 0.841487 0.0706007
O3_28 O 0.17403(19) 0.8519(2) 0.9766(2)
C7_52 C 0.0544(3) 0.8506(4) 0.9933(4)
H5_52 H 0.032042 0.854024 0.993465
C8_52 C 0.0738(4) 0.8688(4) 0.9731(5)
H6_52 H 0.064627 0.885047 0.960269
C9_52 C 0.1064(3) 0.8632(4) 0.9717(4)
H7_52 H 0.119234 0.874773 0.957082
C10_52 C 0.1204(3) 0.8402(3) 0.9921(3)
C12_52 C 0.1562(3) 0.8347(3) 0.9937(3)
O7_52 O 0.0041(3) 0.7966(4) 0.9946(3)
O9_52 O 0.0572(3) 0.7597(3) 0.9980(3)
H10_52 H 0.0574889 0.77503 0.979301
H12_52 H 0.0201771 0.802054 0.97738
O2_28 O 0.9675(2) 0.8223(2) 0.0996(2)
N1_52 N 0.9630(4) 0.9302(4) 0.0598(4)
C1_52 C 0.9452(4) 0.9377(4) 0.0883(5)
H1_52 H 0.938878 0.959201 0.091525
C2_52 C 0.9370(4) 0.9162(3) 0.1104(4)
H2_52 H 0.924156 0.922184 0.127997
C3_52 C 0.9473(3) 0.8861(3) 0.1073(4)
H3_52 H 0.942330 0.871135 0.123567
C4_52 C 0.9656(3) 0.8759(3) 0.0801(3)
C5_52 C 0.9736(4) 0.8985(3) 0.0564(4)
H4_52 H 0.985965 0.892371 0.038369
C6_52 C 0.9788(3) 0.8424(3) 0.0785(3)
Er2_16 Er 0.96708(2) 0.71240(2) 0.04694(2)
O14_28 O 0.9757(2) 0.7707(2) 0.0530(2)
O3_29 O 0.0234(2) 0.67403(19) 0.6481(2)
C7_53 C 0.0067(4) 0.5544(3) 0.6494(4)
H5_53 H 0.006535 0.532042 0.645976
C8_53 C 0.0269(5) 0.5738(4) 0.6312(4)
H6_53 H 0.039731 0.564627 0.614953
C9_53 C 0.0283(4) 0.6064(3) 0.6368(4)
H7_53 H 0.042918 0.619234 0.625227
C10_53 C 0.0079(3) 0.6204(3) 0.6598(3)
C12_53 C 0.0063(3) 0.6562(3) 0.6653(3)
O7_53 O 0.0054(3) 0.5041(3) 0.7034(4)
O9_53 O 0.0020(3) 0.5572(3) 0.7403(3)
H10_53 H 0.0206995 0.557489 0.72497
H11_46 H 0.01159 0.492165 0.7235
H12_53 H 0.0226202 0.520177 0.697946
Er1_29 Er 0.95306(2) 0.53292(2) 0.71240(2)
O2_29 O 0.9004(2) 0.4675(2) 0.6777(2)
O4_29 O 0.9470(2) 0.5243(2) 0.7707(2)
O5_53 O 0.9428(2) 0.5001(2) 0.6643(2)
O6_29 O 0.9864(2) 0.6657(2) 0.6869(2)
N1_53 N 0.9402(4) 0.4630(4) 0.5698(4)
N2_53 N 0.9870(3) 0.5675(2) 0.6721(3)
C1_53 C 0.9117(5) 0.4452(4) 0.5623(4)
H1_53 H 0.908475 0.438878 0.540799
C2_53 C 0.8896(4) 0.4370(4) 0.5838(3)
H2_53 H 0.872003 0.424156 0.577816
C3_53 C 0.8927(4) 0.4473(3) 0.6139(3)
H3_53 H 0.876433 0.442330 0.628865
C4_53 C 0.9199(3) 0.4656(3) 0.6241(3)
C5_53 C 0.9436(4) 0.4736(4) 0.6015(3)
H4_53 H 0.961631 0.485965 0.607629
C6_53 C 0.9215(3) 0.4788(3) 0.6576(3)
C11_53 C 0.9879(3) 0.5989(3) 0.6771(3)
H8_53 H 0.974353 0.607483 0.693072
O8_53 O 0.9160(3) 0.5640(2) 0.6740(2)
Er2_17 Er 0.95306(2) 0.46708(2) 0.78760(2)
Er3_17 Er 0.96240(2) 0.71708(2) 0.70306(2)
O12_29 O 0.9004(2) 0.5325(2) 0.8223(2)
O13_29 O 0.8981(2) 0.57597(19) 0.7734(2)
O14_29 O 0.9470(2) 0.4757(2) 0.7293(2)
O15_29 O 0.9369(2) 0.5843(2) 0.7364(2)
H9_53 H 0.996928 0.579798 0.747254
H13_53 H 0.90222 0.548391 0.661703
H14_53 H 0.929399 0.57686 0.658513
O2_30 O 0.4004(2) 0.0325(2) 0.3223(2)
N1_54 N 0.4402(4) 0.0370(4) 0.4302(4)
C1_54 C 0.4117(5) 0.0548(4) 0.4377(4)
H1_54 H 0.408475 0.061122 0.459201
C2_54 C 0.3896(4) 0.0630(4) 0.4162(3)
H2_54 H 0.372003 0.075844 0.422184
C3_54 C 0.3927(4) 0.0527(3) 0.3861(3)
H3_54 H 0.376433 0.057670 0.371135
C4_54 C 0.4199(3) 0.0344(3) 0.3759(3)
C5_54 C 0.4436(4) 0.0264(4) 0.3985(3)
H4_54 H 0.461631 0.014035 0.392371
C6_54 C 0.4215(3) 0.0212(3) 0.3424(3)
Er2_18 Er 0.45306(2) 0.03292(2) 0.21240(2)
O14_30 O 0.4470(2) 0.0243(2) 0.2707(2)
H11_47 H 0.51159 0.00783497 0.2765
Er1_30 Er 0.45306(2) 0.96708(2) 0.28760(2)
O3_30 O 0.5234(2) 0.82597(19) 0.3519(2)
O4_30 O 0.4470(2) 0.9757(2) 0.2293(2)
O5_54 O 0.4428(2) 0.9999(2) 0.3357(2)
O6_30 O 0.4864(2) 0.8343(2) 0.3131(2)
N2_54 N 0.4870(3) 0.9325(2) 0.3279(3)
C7_54 C 0.5067(4) 0.9456(3) 0.3506(4)
H5_54 H 0.506535 0.967958 0.354024
C8_54 C 0.5269(5) 0.9262(4) 0.3688(4)
H6_54 H 0.539731 0.935373 0.385047
C9_54 C 0.5283(4) 0.8936(3) 0.3632(4)
H7_54 H 0.542918 0.880766 0.374773
C10_54 C 0.5079(3) 0.8796(3) 0.3402(3)
C11_54 C 0.4879(3) 0.9011(3) 0.3229(3)
H8_54 H 0.474353 0.892517 0.306928
C12_54 C 0.5063(3) 0.8438(3) 0.3347(3)
O7_54 O 0.5054(3) 0.9959(3) 0.2966(4)
O8_54 O 0.4160(3) 0.9360(2) 0.3260(2)
O9_54 O 0.5020(3) 0.9428(3) 0.2597(3)
Er3_18 Er 0.46240(2) 0.78292(2) 0.29694(2)
O12_30 O 0.4004(2) 0.9675(2) 0.1777(2)
O13_30 O 0.3981(2) 0.92403(19) 0.2266(2)
O15_30 O 0.4369(2) 0.9157(2) 0.2636(2)
H9_54 H 0.496928 0.920202 0.252746
H10_54 H 0.520699 0.942511 0.27503
H12_54 H 0.52262 0.979823 0.302054
H13_54 H 0.40222 0.951609 0.338297
H14_54 H 0.429399 0.92314 0.341487
Er1_31 Er 0.54694(2) 0.46708(2) 0.21240(2)
O2_31 O 0.5996(2) 0.5325(2) 0.1777(2)
O3_31 O 0.4766(2) 0.32597(19) 0.1481(2)
O4_31 O 0.5530(2) 0.4757(2) 0.2707(2)
O5_55 O 0.5572(2) 0.4999(2) 0.1643(2)
O6_31 O 0.5136(2) 0.3343(2) 0.1869(2)
N1_55 N 0.5598(4) 0.5370(4) 0.0698(4)
N2_55 N 0.5130(3) 0.4325(2) 0.1721(3)
C1_55 C 0.5883(5) 0.5548(4) 0.0623(4)
H1_55 H 0.591525 0.561122 0.040799
C2_55 C 0.6104(4) 0.5630(4) 0.0838(3)
H2_55 H 0.627997 0.575844 0.077816
C3_55 C 0.6073(4) 0.5527(3) 0.1139(3)
H3_55 H 0.623567 0.557670 0.128865
C4_55 C 0.5801(3) 0.5344(3) 0.1241(3)
C5_55 C 0.5564(4) 0.5264(4) 0.1015(3)
H4_55 H 0.538369 0.514035 0.107629
C6_55 C 0.5785(3) 0.5212(3) 0.1576(3)
C7_55 C 0.4933(4) 0.4456(3) 0.1494(4)
H5_55 H 0.493465 0.467958 0.145976
C8_55 C 0.4731(5) 0.4262(4) 0.1312(4)
H6_55 H 0.460269 0.435373 0.114953
C9_55 C 0.4717(4) 0.3936(3) 0.1368(4)
H7_55 H 0.457082 0.380766 0.125227
C10_55 C 0.4921(3) 0.3796(3) 0.1598(3)
C11_55 C 0.5121(3) 0.4011(3) 0.1771(3)
H8_55 H 0.525647 0.392517 0.193072
C12_55 C 0.4937(3) 0.3438(3) 0.1653(3)
O7_55 O 0.4946(3) 0.4959(3) 0.2034(4)
O8_55 O 0.5840(3) 0.4360(2) 0.1740(2)
O9_55 O 0.4980(3) 0.4428(3) 0.2403(3)
Er2_19 Er 0.54694(2) 0.53292(2) 0.28760(2)
Er3_19 Er 0.53760(2) 0.28292(2) 0.20306(2)
O12_31 O 0.5996(2) 0.4675(2) 0.3223(2)
O13_31 O 0.6019(2) 0.42403(19) 0.2734(2)
O14_31 O 0.5530(2) 0.5243(2) 0.2293(2)
O15_31 O 0.5631(2) 0.4157(2) 0.2364(2)
H9_55 H 0.503072 0.420202 0.247254
H10_55 H 0.479301 0.442511 0.22497
H11_48 H 0.48841 0.507835 0.2235
H12_55 H 0.47738 0.479823 0.197946
H13_55 H 0.59778 0.451609 0.161703
H14_55 H 0.570601 0.42314 0.158513
Er1_32 Er 0.04694(2) 0.03292(2) 0.78760(2)
O4_32 O 0.0530(2) 0.0243(2) 0.7293(2)
O5_56 O 0.0572(2) 0.0001(2) 0.8357(2)
O6_32 O 0.0136(2) 0.1657(2) 0.8131(2)
N2_56 N 0.0130(3) 0.0675(2) 0.8279(3)
C11_56 C 0.0121(3) 0.0989(3) 0.8229(3)
H8_56 H 0.025647 0.107483 0.806928
O8_56 O 0.0840(3) 0.0640(2) 0.8260(2)
Er3_20 Er 0.03760(2) 0.21708(2) 0.79694(2)
O12_32 O 0.0996(2) 0.0325(2) 0.6777(2)
O13_32 O 0.1019(2) 0.07597(19) 0.7266(2)
O15_32 O 0.0631(2) 0.0843(2) 0.7636(2)
H9_56 H 0.00307212 0.0797981 0.752746
H13_56 H 0.0977804 0.0483912 0.838297
H14_56 H 0.0706007 0.0768596 0.841487
O2_32 O 0.0996(2) 0.9675(2) 0.8223(2)
N1_56 N 0.0598(4) 0.9630(4) 0.9302(4)
C1_56 C 0.0883(5) 0.9452(4) 0.9377(4)
H1_56 H 0.091525 0.938878 0.959201
C2_56 C 0.1104(4) 0.9370(4) 0.9162(3)
H2_56 H 0.127997 0.924156 0.922184
C3_56 C 0.1073(4) 0.9473(3) 0.8861(3)
H3_56 H 0.123567 0.942330 0.871135
C4_56 C 0.0801(3) 0.9656(3) 0.8759(3)
C5_56 C 0.0564(4) 0.9736(4) 0.8985(3)
H4_56 H 0.038369 0.985965 0.892371
C6_56 C 0.0785(3) 0.9788(3) 0.8424(3)
Er2_20 Er 0.04694(2) 0.96708(2) 0.71240(2)
O14_32 O 0.0530(2) 0.9757(2) 0.7707(2)
O3_32 O 0.9766(2) 0.17403(19) 0.8519(2)
C7_56 C 0.9933(4) 0.0544(3) 0.8506(4)
H5_56 H 0.993465 0.032042 0.854024
C8_56 C 0.9731(5) 0.0738(4) 0.8688(4)
H6_56 H 0.960269 0.064627 0.885047
C9_56 C 0.9717(4) 0.1064(3) 0.8632(4)
H7_56 H 0.957082 0.119234 0.874773
C10_56 C 0.9921(3) 0.1204(3) 0.8402(3)
C12_56 C 0.9937(3) 0.1562(3) 0.8347(3)
O7_56 O 0.9946(3) 0.0041(3) 0.7966(4)
O9_56 O 0.9980(3) 0.0572(3) 0.7597(3)
H10_56 H 0.979301 0.0574889 0.77503
H12_56 H 0.97738 0.0201771 0.802054
O3_33 O 0.6481(2) 0.0234(2) 0.67403(19)
C7_57 C 0.6494(4) 0.0067(4) 0.5544(3)
H5_57 H 0.645976 0.006535 0.532042
C8_57 C 0.6312(4) 0.0269(5) 0.5738(4)
H6_57 H 0.614953 0.039731 0.564627
C9_57 C 0.6368(4) 0.0283(4) 0.6064(3)
H7_57 H 0.625227 0.042918 0.619234
C10_57 C 0.6598(3) 0.0079(3) 0.6204(3)
C12_57 C 0.6653(3) 0.0063(3) 0.6562(3)
O7_57 O 0.7034(4) 0.0054(3) 0.5041(3)
O9_57 O 0.7403(3) 0.0020(3) 0.5572(3)
H10_57 H 0.72497 0.0206995 0.557489
H11_49 H 0.7235 0.01159 0.492165
H12_57 H 0.697946 0.0226202 0.520177
Er1_33 Er 0.71240(2) 0.95306(2) 0.53292(2)
O2_33 O 0.6777(2) 0.9004(2) 0.4675(2)
O4_33 O 0.7707(2) 0.9470(2) 0.5243(2)
O5_57 O 0.6643(2) 0.9428(2) 0.5001(2)
O6_33 O 0.6869(2) 0.9864(2) 0.6657(2)
N1_57 N 0.5698(4) 0.9402(4) 0.4630(4)
N2_57 N 0.6721(3) 0.9870(3) 0.5675(2)
C1_57 C 0.5623(4) 0.9117(5) 0.4452(4)
H1_57 H 0.540799 0.908475 0.438878
C2_57 C 0.5838(3) 0.8896(4) 0.4370(4)
H2_57 H 0.577816 0.872003 0.424156
C3_57 C 0.6139(3) 0.8927(4) 0.4473(3)
H3_57 H 0.628865 0.876433 0.442330
C4_57 C 0.6241(3) 0.9199(3) 0.4656(3)
C5_57 C 0.6015(3) 0.9436(4) 0.4736(4)
H4_57 H 0.607629 0.961631 0.485965
C6_57 C 0.6576(3) 0.9215(3) 0.4788(3)
C11_57 C 0.6771(3) 0.9879(3) 0.5989(3)
H8_57 H 0.693072 0.974353 0.607483
O8_57 O 0.6740(2) 0.9160(3) 0.5640(2)
Er2_21 Er 0.78760(2) 0.95306(2) 0.46708(2)
Er3_21 Er 0.70306(2) 0.96240(2) 0.71708(2)
O12_33 O 0.8223(2) 0.9004(2) 0.5325(2)
O13_33 O 0.7734(2) 0.8981(2) 0.57597(19)
O14_33 O 0.7293(2) 0.9470(2) 0.4757(2)
O15_33 O 0.7364(2) 0.9369(2) 0.5843(2)
H9_57 H 0.747254 0.996928 0.579798
H13_57 H 0.661703 0.90222 0.548391
H14_57 H 0.658513 0.929399 0.57686
O2_34 O 0.3223(2) 0.4004(2) 0.0325(2)
N1_58 N 0.4302(4) 0.4402(4) 0.0370(4)
C1_58 C 0.4377(4) 0.4117(5) 0.0548(4)
H1_58 H 0.459201 0.408475 0.061122
C2_58 C 0.4162(3) 0.3896(4) 0.0630(4)
H2_58 H 0.422184 0.372003 0.075844
C3_58 C 0.3861(3) 0.3927(4) 0.0527(3)
H3_58 H 0.371135 0.376433 0.057670
C4_58 C 0.3759(3) 0.4199(3) 0.0344(3)
C5_58 C 0.3985(3) 0.4436(4) 0.0264(4)
H4_58 H 0.392371 0.461631 0.014035
C6_58 C 0.3424(3) 0.4215(3) 0.0212(3)
Er2_22 Er 0.21240(2) 0.45306(2) 0.03292(2)
O14_34 O 0.2707(2) 0.4470(2) 0.0243(2)
H11_50 H 0.2765 0.51159 0.00783497
Er1_34 Er 0.28760(2) 0.45306(2) 0.96708(2)
O3_34 O 0.3519(2) 0.5234(2) 0.82597(19)
O4_34 O 0.2293(2) 0.4470(2) 0.9757(2)
O5_58 O 0.3357(2) 0.4428(2) 0.9999(2)
O6_34 O 0.3131(2) 0.4864(2) 0.8343(2)
N2_58 N 0.3279(3) 0.4870(3) 0.9325(2)
C7_58 C 0.3506(4) 0.5067(4) 0.9456(3)
H5_58 H 0.354024 0.506535 0.967958
C8_58 C 0.3688(4) 0.5269(5) 0.9262(4)
H6_58 H 0.385047 0.539731 0.935373
C9_58 C 0.3632(4) 0.5283(4) 0.8936(3)
H7_58 H 0.374773 0.542918 0.880766
C10_58 C 0.3402(3) 0.5079(3) 0.8796(3)
C11_58 C 0.3229(3) 0.4879(3) 0.9011(3)
H8_58 H 0.306928 0.474353 0.892517
C12_58 C 0.3347(3) 0.5063(3) 0.8438(3)
O7_58 O 0.2966(4) 0.5054(3) 0.9959(3)
O8_58 O 0.3260(2) 0.4160(3) 0.9360(2)
O9_58 O 0.2597(3) 0.5020(3) 0.9428(3)
Er3_22 Er 0.29694(2) 0.46240(2) 0.78292(2)
O12_34 O 0.1777(2) 0.4004(2) 0.9675(2)
O13_34 O 0.2266(2) 0.3981(2) 0.92403(19)
O15_34 O 0.2636(2) 0.4369(2) 0.9157(2)
H9_58 H 0.252746 0.496928 0.920202
H10_58 H 0.27503 0.520699 0.942511
H12_58 H 0.302054 0.52262 0.979823
H13_58 H 0.338297 0.40222 0.951609
H14_58 H 0.341487 0.429399 0.92314
Er1_35 Er 0.21240(2) 0.54694(2) 0.46708(2)
O2_35 O 0.1777(2) 0.5996(2) 0.5325(2)
O3_35 O 0.1481(2) 0.4766(2) 0.32597(19)
O4_35 O 0.2707(2) 0.5530(2) 0.4757(2)
O5_59 O 0.1643(2) 0.5572(2) 0.4999(2)
O6_35 O 0.1869(2) 0.5136(2) 0.3343(2)
N1_59 N 0.0698(4) 0.5598(4) 0.5370(4)
N2_59 N 0.1721(3) 0.5130(3) 0.4325(2)
C1_59 C 0.0623(4) 0.5883(5) 0.5548(4)
H1_59 H 0.040799 0.591525 0.561122
C2_59 C 0.0838(3) 0.6104(4) 0.5630(4)
H2_59 H 0.077816 0.627997 0.575844
C3_59 C 0.1139(3) 0.6073(4) 0.5527(3)
H3_59 H 0.128865 0.623567 0.557670
C4_59 C 0.1241(3) 0.5801(3) 0.5344(3)
C5_59 C 0.1015(3) 0.5564(4) 0.5264(4)
H4_59 H 0.107629 0.538369 0.514035
C6_59 C 0.1576(3) 0.5785(3) 0.5212(3)
C7_59 C 0.1494(4) 0.4933(4) 0.4456(3)
H5_59 H 0.145976 0.493465 0.467958
C8_59 C 0.1312(4) 0.4731(5) 0.4262(4)
H6_59 H 0.114953 0.460269 0.435373
C9_59 C 0.1368(4) 0.4717(4) 0.3936(3)
H7_59 H 0.125227 0.457082 0.380766
C10_59 C 0.1598(3) 0.4921(3) 0.3796(3)
C11_59 C 0.1771(3) 0.5121(3) 0.4011(3)
H8_59 H 0.193072 0.525647 0.392517
C12_59 C 0.1653(3) 0.4937(3) 0.3438(3)
O7_59 O 0.2034(4) 0.4946(3) 0.4959(3)
O8_59 O 0.1740(2) 0.5840(3) 0.4360(2)
O9_59 O 0.2403(3) 0.4980(3) 0.4428(3)
Er2_23 Er 0.28760(2) 0.54694(2) 0.53292(2)
Er3_23 Er 0.20306(2) 0.53760(2) 0.28292(2)
O12_35 O 0.3223(2) 0.5996(2) 0.4675(2)
O13_35 O 0.2734(2) 0.6019(2) 0.42403(19)
O14_35 O 0.2293(2) 0.5530(2) 0.5243(2)
O15_35 O 0.2364(2) 0.5631(2) 0.4157(2)
H9_59 H 0.247254 0.503072 0.420202
H10_59 H 0.22497 0.479301 0.442511
H11_51 H 0.2235 0.48841 0.507835
H12_59 H 0.197946 0.47738 0.479823
H13_59 H 0.161703 0.59778 0.451609
H14_59 H 0.158513 0.570601 0.42314
Er1_36 Er 0.78760(2) 0.04694(2) 0.03292(2)
O4_36 O 0.7293(2) 0.0530(2) 0.0243(2)
O5_60 O 0.8357(2) 0.0572(2) 0.0001(2)
O6_36 O 0.8131(2) 0.0136(2) 0.1657(2)
N2_60 N 0.8279(3) 0.0130(3) 0.0675(2)
C11_60 C 0.8229(3) 0.0121(3) 0.0989(3)
H8_60 H 0.806928 0.025647 0.107483
O8_60 O 0.8260(2) 0.0840(3) 0.0640(2)
Er3_24 Er 0.79694(2) 0.03760(2) 0.21708(2)
O12_36 O 0.6777(2) 0.0996(2) 0.0325(2)
O13_36 O 0.7266(2) 0.1019(2) 0.07597(19)
O15_36 O 0.7636(2) 0.0631(2) 0.0843(2)
H9_60 H 0.752746 0.00307212 0.0797981
H13_60 H 0.838297 0.0977804 0.0483912
H14_60 H 0.841487 0.0706007 0.0768596
O2_36 O 0.8223(2) 0.0996(2) 0.9675(2)
N1_60 N 0.9302(4) 0.0598(4) 0.9630(4)
C1_60 C 0.9377(4) 0.0883(5) 0.9452(4)
H1_60 H 0.959201 0.091525 0.938878
C2_60 C 0.9162(3) 0.1104(4) 0.9370(4)
H2_60 H 0.922184 0.127997 0.924156
C3_60 C 0.8861(3) 0.1073(4) 0.9473(3)
H3_60 H 0.871135 0.123567 0.942330
C4_60 C 0.8759(3) 0.0801(3) 0.9656(3)
C5_60 C 0.8985(3) 0.0564(4) 0.9736(4)
H4_60 H 0.892371 0.038369 0.985965
C6_60 C 0.8424(3) 0.0785(3) 0.9788(3)
Er2_24 Er 0.71240(2) 0.04694(2) 0.96708(2)
O14_36 O 0.7707(2) 0.0530(2) 0.9757(2)
O3_36 O 0.8519(2) 0.9766(2) 0.17403(19)
C7_60 C 0.8506(4) 0.9933(4) 0.0544(3)
H5_60 H 0.854024 0.993465 0.032042
C8_60 C 0.8688(4) 0.9731(5) 0.0738(4)
H6_60 H 0.885047 0.960269 0.064627
C9_60 C 0.8632(4) 0.9717(4) 0.1064(3)
H7_60 H 0.874773 0.957082 0.119234
C10_60 C 0.8402(3) 0.9921(3) 0.1204(3)
C12_60 C 0.8347(3) 0.9937(3) 0.1562(3)
O7_60 O 0.7966(4) 0.9946(3) 0.0041(3)
O9_60 O 0.7597(3) 0.9980(3) 0.0572(3)
H10_60 H 0.77503 0.979301 0.0574889
H12_60 H 0.802054 0.97738 0.0201771
O4_37 O 0.0207(2) 0.2743(2) 0.8030(2)
O12_37 O 0.0723(2) 0.2825(2) 0.8496(2)
O13_37 O 0.0234(2) 0.32597(19) 0.8519(2)
Er1_37 Er 0.96240(2) 0.28292(2) 0.79694(2)
O2_37 O 0.9277(2) 0.2175(2) 0.8496(2)
O3_37 O 0.8981(2) 0.42403(19) 0.7266(2)
O5_61 O 0.9143(2) 0.2501(2) 0.8072(2)
O6_37 O 0.9369(2) 0.4157(2) 0.7636(2)
N1_61 N 0.8198(4) 0.2130(4) 0.8098(4)
N2_61 N 0.9221(3) 0.3175(2) 0.7630(3)
C1_61 C 0.8123(4) 0.1952(4) 0.8383(5)
H1_61 H 0.790799 0.188878 0.841525
C2_61 C 0.8338(3) 0.1870(4) 0.8604(4)
H2_61 H 0.827816 0.174156 0.877997
C3_61 C 0.8639(3) 0.1973(3) 0.8573(4)
H3_61 H 0.878865 0.192330 0.873567
C4_61 C 0.8741(3) 0.2156(3) 0.8301(3)
C5_61 C 0.8515(3) 0.2236(4) 0.8064(4)
H4_61 H 0.857629 0.235965 0.788369
C6_61 C 0.9076(3) 0.2288(3) 0.8285(3)
C7_61 C 0.8994(4) 0.3044(3) 0.7433(4)
H5_61 H 0.895976 0.282042 0.743465
C8_61 C 0.8812(4) 0.3238(4) 0.7231(5)
H6_61 H 0.864953 0.314627 0.710269
C9_61 C 0.8868(4) 0.3564(3) 0.7217(4)
H7_61 H 0.875227 0.369234 0.707082
C10_61 C 0.9098(3) 0.3704(3) 0.7421(3)
C11_61 C 0.9271(3) 0.3489(3) 0.7621(3)
H8_61 H 0.943072 0.357483 0.775647
C12_61 C 0.9153(3) 0.4062(3) 0.7437(3)
O7_61 O 0.9534(4) 0.2541(3) 0.7446(3)
O8_61 O 0.9240(2) 0.3140(2) 0.8340(3)
O9_61 O 0.9903(3) 0.3072(3) 0.7480(3)
O14_37 O 0.9793(2) 0.2257(2) 0.8030(2)
O15_37 O 0.9864(2) 0.3343(2) 0.8131(2)
H9_61 H 0.997254 0.329798 0.753072
H10_61 H 0.97497 0.307489 0.729301
H11_52 H 0.9735 0.242165 0.73841
H12_61 H 0.947946 0.270177 0.72738
H13_61 H 0.911703 0.298391 0.84778
H14_61 H 0.908513 0.32686 0.820601
Er1_38 Er 0.53760(2) 0.71708(2) 0.29694(2)
O2_38 O 0.5723(2) 0.7825(2) 0.3496(2)
O3_38 O 0.6019(2) 0.57597(19) 0.2266(2)
O4_38 O 0.4793(2) 0.7257(2) 0.3030(2)
O5_62 O 0.5857(2) 0.7499(2) 0.3072(2)
O6_38 O 0.5631(2) 0.5843(2) 0.2636(2)
N1_62 N 0.6802(4) 0.7870(4) 0.3098(4)
N2_62 N 0.5779(3) 0.6825(2) 0.2630(3)
C1_62 C 0.6877(4) 0.8048(4) 0.3383(5)
H1_62 H 0.709201 0.811122 0.341525
C2_62 C 0.6662(3) 0.8130(4) 0.3604(4)
H2_62 H 0.672184 0.825844 0.377997
C3_62 C 0.6361(3) 0.8027(3) 0.3573(4)
H3_62 H 0.621135 0.807670 0.373567
C4_62 C 0.6259(3) 0.7844(3) 0.3301(3)
C5_62 C 0.6485(3) 0.7764(4) 0.3064(4)
H4_62 H 0.642371 0.764035 0.288369
C6_62 C 0.5924(3) 0.7712(3) 0.3285(3)
C7_62 C 0.6006(4) 0.6956(3) 0.2433(4)
H5_62 H 0.604024 0.717958 0.243465
C8_62 C 0.6188(4) 0.6762(4) 0.2231(5)
H6_62 H 0.635047 0.685373 0.210269
C9_62 C 0.6132(4) 0.6436(3) 0.2217(4)
H7_62 H 0.624773 0.630766 0.207082
C10_62 C 0.5902(3) 0.6296(3) 0.2421(3)
C11_62 C 0.5729(3) 0.6511(3) 0.2621(3)
H8_62 H 0.556928 0.642517 0.275647
C12_62 C 0.5847(3) 0.5938(3) 0.2437(3)
O7_62 O 0.5466(4) 0.7459(3) 0.2446(3)
O8_62 O 0.5760(2) 0.6860(2) 0.3340(3)
O9_62 O 0.5097(3) 0.6928(3) 0.2480(3)
O12_38 O 0.4277(2) 0.7175(2) 0.3496(2)
O13_38 O 0.4766(2) 0.67403(19) 0.3519(2)
O14_38 O 0.5207(2) 0.7743(2) 0.3030(2)
O15_38 O 0.5136(2) 0.6657(2) 0.3131(2)
H9_62 H 0.502746 0.670202 0.253072
H10_62 H 0.52503 0.692511 0.229301
H11_53 H 0.5265 0.757835 0.23841
H12_62 H 0.552054 0.729823 0.22738
H13_62 H 0.588297 0.701609 0.34778
H14_62 H 0.591487 0.67314 0.320601
Er1_39 Er 0.46240(2) 0.21708(2) 0.20306(2)
O2_39 O 0.4277(2) 0.2825(2) 0.1504(2)
O3_39 O 0.3981(2) 0.07597(19) 0.2734(2)
O4_39 O 0.5207(2) 0.2257(2) 0.1970(2)
O5_63 O 0.4143(2) 0.2499(2) 0.1928(2)
O6_39 O 0.4369(2) 0.0843(2) 0.2364(2)
N1_63 N 0.3198(4) 0.2870(4) 0.1902(4)
N2_63 N 0.4221(3) 0.1825(2) 0.2370(3)
C1_63 C 0.3123(4) 0.3048(4) 0.1617(5)
H1_63 H 0.290799 0.311122 0.158475
C2_63 C 0.3338(3) 0.3130(4) 0.1396(4)
H2_63 H 0.327816 0.325844 0.122003
C3_63 C 0.3639(3) 0.3027(3) 0.1427(4)
H3_63 H 0.378865 0.307670 0.126433
C4_63 C 0.3741(3) 0.2844(3) 0.1699(3)
C5_63 C 0.3515(3) 0.2764(4) 0.1936(4)
H4_63 H 0.357629 0.264035 0.211631
C6_63 C 0.4076(3) 0.2712(3) 0.1715(3)
C7_63 C 0.3994(4) 0.1956(3) 0.2567(4)
H5_63 H 0.395976 0.217958 0.256535
C8_63 C 0.3812(4) 0.1762(4) 0.2769(5)
H6_63 H 0.364953 0.185373 0.289731
C9_63 C 0.3868(4) 0.1436(3) 0.2783(4)
H7_63 H 0.375227 0.130766 0.292918
C10_63 C 0.4098(3) 0.1296(3) 0.2579(3)
C11_63 C 0.4271(3) 0.1511(3) 0.2379(3)
H8_63 H 0.443072 0.142517 0.224353
C12_63 C 0.4153(3) 0.0938(3) 0.2563(3)
O7_63 O 0.4534(4) 0.2459(3) 0.2554(3)
O8_63 O 0.4240(2) 0.1860(2) 0.1660(3)
O9_63 O 0.4903(3) 0.1928(3) 0.2520(3)
O12_39 O 0.5723(2) 0.2175(2) 0.1504(2)
O13_39 O 0.5234(2) 0.17403(19) 0.1481(2)
O14_39 O 0.4793(2) 0.2743(2) 0.1970(2)
O15_39 O 0.4864(2) 0.1657(2) 0.1869(2)
H9_63 H 0.497254 0.170202 0.246928
H10_63 H 0.47497 0.192511 0.270699
H11_54 H 0.4735 0.257835 0.26159
H12_63 H 0.447946 0.229823 0.27262
H13_63 H 0.411703 0.201609 0.15222
H14_63 H 0.408513 0.17314 0.179399
Er1_40 Er 0.03760(2) 0.78292(2) 0.70306(2)
O2_40 O 0.0723(2) 0.7175(2) 0.6504(2)
O3_40 O 0.1019(2) 0.92403(19) 0.7734(2)
O5_64 O 0.0857(2) 0.7501(2) 0.6928(2)
O6_40 O 0.0631(2) 0.9157(2) 0.7364(2)
N1_64 N 0.1802(4) 0.7130(4) 0.6902(4)
N2_64 N 0.0779(3) 0.8175(2) 0.7370(3)
C1_64 C 0.1877(4) 0.6952(4) 0.6617(5)
H1_64 H 0.209201 0.688878 0.658475
C2_64 C 0.1662(3) 0.6870(4) 0.6396(4)
H2_64 H 0.172184 0.674156 0.622003
C3_64 C 0.1361(3) 0.6973(3) 0.6427(4)
H3_64 H 0.121135 0.692330 0.626433
C4_64 C 0.1259(3) 0.7156(3) 0.6699(3)
C5_64 C 0.1485(3) 0.7236(4) 0.6936(4)
H4_64 H 0.142371 0.735965 0.711631
C6_64 C 0.0924(3) 0.7288(3) 0.6715(3)
C7_64 C 0.1006(4) 0.8044(3) 0.7567(4)
H5_64 H 0.104024 0.782042 0.756535
C8_64 C 0.1188(4) 0.8238(4) 0.7769(5)
H6_64 H 0.135047 0.814627 0.789731
C9_64 C 0.1132(4) 0.8564(3) 0.7783(4)
H7_64 H 0.124773 0.869234 0.792918
C10_64 C 0.0902(3) 0.8704(3) 0.7579(3)
C11_64 C 0.0729(3) 0.8489(3) 0.7379(3)
H8_64 H 0.056928 0.857483 0.724353
C12_64 C 0.0847(3) 0.9062(3) 0.7563(3)
O7_64 O 0.0466(4) 0.7541(3) 0.7554(3)
O8_64 O 0.0760(2) 0.8140(2) 0.6660(3)
O9_64 O 0.0097(3) 0.8072(3) 0.7520(3)
O14_40 O 0.0207(2) 0.7257(2) 0.6970(2)
O15_40 O 0.0136(2) 0.8343(2) 0.6869(2)
H9_64 H 0.00274609 0.829798 0.746928
H10_64 H 0.0250298 0.807489 0.770699
H11_55 H 0.0265003 0.742165 0.76159
H12_64 H 0.0520545 0.770177 0.77262
H13_64 H 0.0882974 0.798391 0.65222
H14_64 H 0.091487 0.82686 0.679399
O4_40 O 0.9793(2) 0.7743(2) 0.6970(2)
O12_40 O 0.9277(2) 0.7825(2) 0.6504(2)
O13_40 O 0.9766(2) 0.82597(19) 0.6481(2)
Er1_41 Er 0.78292(2) 0.70306(2) 0.03760(2)
O2_41 O 0.7175(2) 0.6504(2) 0.0723(2)
O3_41 O 0.92403(19) 0.7734(2) 0.1019(2)
O5_65 O 0.7501(2) 0.6928(2) 0.0857(2)
O6_41 O 0.9157(2) 0.7364(2) 0.0631(2)
N1_65 N 0.7130(4) 0.6902(4) 0.1802(4)
N2_65 N 0.8175(2) 0.7370(3) 0.0779(3)
C1_65 C 0.6952(4) 0.6617(5) 0.1877(4)
H1_65 H 0.688878 0.658475 0.209201
C2_65 C 0.6870(4) 0.6396(4) 0.1662(3)
H2_65 H 0.674156 0.622003 0.172184
C3_65 C 0.6973(3) 0.6427(4) 0.1361(3)
H3_65 H 0.692330 0.626433 0.121135
C4_65 C 0.7156(3) 0.6699(3) 0.1259(3)
C5_65 C 0.7236(4) 0.6936(4) 0.1485(3)
H4_65 H 0.735965 0.711631 0.142371
C6_65 C 0.7288(3) 0.6715(3) 0.0924(3)
C7_65 C 0.8044(3) 0.7567(4) 0.1006(4)
H5_65 H 0.782042 0.756535 0.104024
C8_65 C 0.8238(4) 0.7769(5) 0.1188(4)
H6_65 H 0.814627 0.789731 0.135047
C9_65 C 0.8564(3) 0.7783(4) 0.1132(4)
H7_65 H 0.869234 0.792918 0.124773
C10_65 C 0.8704(3) 0.7579(3) 0.0902(3)
C11_65 C 0.8489(3) 0.7379(3) 0.0729(3)
H8_65 H 0.857483 0.724353 0.056928
C12_65 C 0.9062(3) 0.7563(3) 0.0847(3)
O7_65 O 0.7541(3) 0.7554(3) 0.0466(4)
O8_65 O 0.8140(2) 0.6660(3) 0.0760(2)
O9_65 O 0.8072(3) 0.7520(3) 0.0097(3)
O14_41 O 0.7257(2) 0.6970(2) 0.0207(2)
O15_41 O 0.8343(2) 0.6869(2) 0.0136(2)
H9_65 H 0.829798 0.746928 0.00274609
H10_65 H 0.807489 0.770699 0.0250298
H11_56 H 0.742165 0.76159 0.0265003
H12_65 H 0.770177 0.77262 0.0520545
H13_65 H 0.798391 0.65222 0.0882974
H14_65 H 0.82686 0.679399 0.091487
O4_41 O 0.7743(2) 0.6970(2) 0.9793(2)
O12_41 O 0.7825(2) 0.6504(2) 0.9277(2)
O13_41 O 0.82597(19) 0.6481(2) 0.9766(2)
Er1_42 Er 0.21708(2) 0.20306(2) 0.46240(2)
O2_42 O 0.2825(2) 0.1504(2) 0.4277(2)
O3_42 O 0.07597(19) 0.2734(2) 0.3981(2)
O4_42 O 0.2257(2) 0.1970(2) 0.5207(2)
O5_66 O 0.2499(2) 0.1928(2) 0.4143(2)
O6_42 O 0.0843(2) 0.2364(2) 0.4369(2)
N1_66 N 0.2870(4) 0.1902(4) 0.3198(4)
N2_66 N 0.1825(2) 0.2370(3) 0.4221(3)
C1_66 C 0.3048(4) 0.1617(5) 0.3123(4)
H1_66 H 0.311122 0.158475 0.290799
C2_66 C 0.3130(4) 0.1396(4) 0.3338(3)
H2_66 H 0.325844 0.122003 0.327816
C3_66 C 0.3027(3) 0.1427(4) 0.3639(3)
H3_66 H 0.307670 0.126433 0.378865
C4_66 C 0.2844(3) 0.1699(3) 0.3741(3)
C5_66 C 0.2764(4) 0.1936(4) 0.3515(3)
H4_66 H 0.264035 0.211631 0.357629
C6_66 C 0.2712(3) 0.1715(3) 0.4076(3)
C7_66 C 0.1956(3) 0.2567(4) 0.3994(4)
H5_66 H 0.217958 0.256535 0.395976
C8_66 C 0.1762(4) 0.2769(5) 0.3812(4)
H6_66 H 0.185373 0.289731 0.364953
C9_66 C 0.1436(3) 0.2783(4) 0.3868(4)
H7_66 H 0.130766 0.292918 0.375227
C10_66 C 0.1296(3) 0.2579(3) 0.4098(3)
C11_66 C 0.1511(3) 0.2379(3) 0.4271(3)
H8_66 H 0.142517 0.224353 0.443072
C12_66 C 0.0938(3) 0.2563(3) 0.4153(3)
O7_66 O 0.2459(3) 0.2554(3) 0.4534(4)
O8_66 O 0.1860(2) 0.1660(3) 0.4240(2)
O9_66 O 0.1928(3) 0.2520(3) 0.4903(3)
O12_42 O 0.2175(2) 0.1504(2) 0.5723(2)
O13_42 O 0.17403(19) 0.1481(2) 0.5234(2)
O14_42 O 0.2743(2) 0.1970(2) 0.4793(2)
O15_42 O 0.1657(2) 0.1869(2) 0.4864(2)
H9_66 H 0.170202 0.246928 0.497254
H10_66 H 0.192511 0.270699 0.47497
H11_57 H 0.257835 0.26159 0.4735
H12_66 H 0.229823 0.27262 0.447946
H13_66 H 0.201609 0.15222 0.411703
H14_66 H 0.17314 0.179399 0.408513
Er1_43 Er 0.71708(2) 0.29694(2) 0.53760(2)
O2_43 O 0.7825(2) 0.3496(2) 0.5723(2)
O3_43 O 0.57597(19) 0.2266(2) 0.6019(2)
O4_43 O 0.7257(2) 0.3030(2) 0.4793(2)
O5_67 O 0.7499(2) 0.3072(2) 0.5857(2)
O6_43 O 0.5843(2) 0.2636(2) 0.5631(2)
N1_67 N 0.7870(4) 0.3098(4) 0.6802(4)
N2_67 N 0.6825(2) 0.2630(3) 0.5779(3)
C1_67 C 0.8048(4) 0.3383(5) 0.6877(4)
H1_67 H 0.811122 0.341525 0.709201
C2_67 C 0.8130(4) 0.3604(4) 0.6662(3)
H2_67 H 0.825844 0.377997 0.672184
C3_67 C 0.8027(3) 0.3573(4) 0.6361(3)
H3_67 H 0.807670 0.373567 0.621135
C4_67 C 0.7844(3) 0.3301(3) 0.6259(3)
C5_67 C 0.7764(4) 0.3064(4) 0.6485(3)
H4_67 H 0.764035 0.288369 0.642371
C6_67 C 0.7712(3) 0.3285(3) 0.5924(3)
C7_67 C 0.6956(3) 0.2433(4) 0.6006(4)
H5_67 H 0.717958 0.243465 0.604024
C8_67 C 0.6762(4) 0.2231(5) 0.6188(4)
H6_67 H 0.685373 0.210269 0.635047
C9_67 C 0.6436(3) 0.2217(4) 0.6132(4)
H7_67 H 0.630766 0.207082 0.624773
C10_67 C 0.6296(3) 0.2421(3) 0.5902(3)
C11_67 C 0.6511(3) 0.2621(3) 0.5729(3)
H8_67 H 0.642517 0.275647 0.556928
C12_67 C 0.5938(3) 0.2437(3) 0.5847(3)
O7_67 O 0.7459(3) 0.2446(3) 0.5466(4)
O8_67 O 0.6860(2) 0.3340(3) 0.5760(2)
O9_67 O 0.6928(3) 0.2480(3) 0.5097(3)
O12_43 O 0.7175(2) 0.3496(2) 0.4277(2)
O13_43 O 0.67403(19) 0.3519(2) 0.4766(2)
O14_43 O 0.7743(2) 0.3030(2) 0.5207(2)
O15_43 O 0.6657(2) 0.3131(2) 0.5136(2)
H9_67 H 0.670202 0.253072 0.502746
H10_67 H 0.692511 0.229301 0.52503
H11_58 H 0.757835 0.23841 0.5265
H12_67 H 0.729823 0.22738 0.552054
H13_67 H 0.701609 0.34778 0.588297
H14_67 H 0.67314 0.320601 0.591487
O4_44 O 0.2743(2) 0.8030(2) 0.0207(2)
O12_44 O 0.2825(2) 0.8496(2) 0.0723(2)
O13_44 O 0.32597(19) 0.8519(2) 0.0234(2)
Er1_44 Er 0.28292(2) 0.79694(2) 0.96240(2)
O2_44 O 0.2175(2) 0.8496(2) 0.9277(2)
O3_44 O 0.42403(19) 0.7266(2) 0.8981(2)
O5_68 O 0.2501(2) 0.8072(2) 0.9143(2)
O6_44 O 0.4157(2) 0.7636(2) 0.9369(2)
N1_68 N 0.2130(4) 0.8098(4) 0.8198(4)
N2_68 N 0.3175(2) 0.7630(3) 0.9221(3)
C1_68 C 0.1952(4) 0.8383(5) 0.8123(4)
H1_68 H 0.188878 0.841525 0.790799
C2_68 C 0.1870(4) 0.8604(4) 0.8338(3)
H2_68 H 0.174156 0.877997 0.827816
C3_68 C 0.1973(3) 0.8573(4) 0.8639(3)
H3_68 H 0.192330 0.873567 0.878865
C4_68 C 0.2156(3) 0.8301(3) 0.8741(3)
C5_68 C 0.2236(4) 0.8064(4) 0.8515(3)
H4_68 H 0.235965 0.788369 0.857629
C6_68 C 0.2288(3) 0.8285(3) 0.9076(3)
C7_68 C 0.3044(3) 0.7433(4) 0.8994(4)
H5_68 H 0.282042 0.743465 0.895976
C8_68 C 0.3238(4) 0.7231(5) 0.8812(4)
H6_68 H 0.314627 0.710269 0.864953
C9_68 C 0.3564(3) 0.7217(4) 0.8868(4)
H7_68 H 0.369234 0.707082 0.875227
C10_68 C 0.3704(3) 0.7421(3) 0.9098(3)
C11_68 C 0.3489(3) 0.7621(3) 0.9271(3)
H8_68 H 0.357483 0.775647 0.943072
C12_68 C 0.4062(3) 0.7437(3) 0.9153(3)
O7_68 O 0.2541(3) 0.7446(3) 0.9534(4)
O8_68 O 0.3140(2) 0.8340(3) 0.9240(2)
O9_68 O 0.3072(3) 0.7480(3) 0.9903(3)
O14_44 O 0.2257(2) 0.8030(2) 0.9793(2)
O15_44 O 0.3343(2) 0.8131(2) 0.9864(2)
H9_68 H 0.329798 0.753072 0.997254
H10_68 H 0.307489 0.729301 0.97497
H11_59 H 0.242165 0.73841 0.9735
H12_68 H 0.270177 0.72738 0.947946
H13_68 H 0.298391 0.84778 0.911703
H14_68 H 0.32686 0.820601 0.908513
Er1_45 Er 0.20306(2) 0.46240(2) 0.21708(2)
O2_45 O 0.1504(2) 0.4277(2) 0.2825(2)
O3_45 O 0.2734(2) 0.3981(2) 0.07597(19)
O4_45 O 0.1970(2) 0.5207(2) 0.2257(2)
O5_69 O 0.1928(2) 0.4143(2) 0.2499(2)
O6_45 O 0.2364(2) 0.4369(2) 0.0843(2)
N1_69 N 0.1902(4) 0.3198(4) 0.2870(4)
N2_69 N 0.2370(3) 0.4221(3) 0.1825(2)
C1_69 C 0.1617(5) 0.3123(4) 0.3048(4)
H1_69 H 0.158475 0.290799 0.311122
C2_69 C 0.1396(4) 0.3338(3) 0.3130(4)
H2_69 H 0.122003 0.327816 0.325844
C3_69 C 0.1427(4) 0.3639(3) 0.3027(3)
H3_69 H 0.126433 0.378865 0.307670
C4_69 C 0.1699(3) 0.3741(3) 0.2844(3)
C5_69 C 0.1936(4) 0.3515(3) 0.2764(4)
H4_69 H 0.211631 0.357629 0.264035
C6_69 C 0.1715(3) 0.4076(3) 0.2712(3)
C7_69 C 0.2567(4) 0.3994(4) 0.1956(3)
H5_69 H 0.256535 0.395976 0.217958
C8_69 C 0.2769(5) 0.3812(4) 0.1762(4)
H6_69 H 0.289731 0.364953 0.185373
C9_69 C 0.2783(4) 0.3868(4) 0.1436(3)
H7_69 H 0.292918 0.375227 0.130766
C10_69 C 0.2579(3) 0.4098(3) 0.1296(3)
C11_69 C 0.2379(3) 0.4271(3) 0.1511(3)
H8_69 H 0.224353 0.443072 0.142517
C12_69 C 0.2563(3) 0.4153(3) 0.0938(3)
O7_69 O 0.2554(3) 0.4534(4) 0.2459(3)
O8_69 O 0.1660(3) 0.4240(2) 0.1860(2)
O9_69 O 0.2520(3) 0.4903(3) 0.1928(3)
O12_45 O 0.1504(2) 0.5723(2) 0.2175(2)
O13_45 O 0.1481(2) 0.5234(2) 0.17403(19)
O14_45 O 0.1970(2) 0.4793(2) 0.2743(2)
O15_45 O 0.1869(2) 0.4864(2) 0.1657(2)
H9_69 H 0.246928 0.497254 0.170202
H10_69 H 0.270699 0.47497 0.192511
H11_60 H 0.26159 0.4735 0.257835
H12_69 H 0.27262 0.447946 0.229823
H13_69 H 0.15222 0.411703 0.201609
H14_69 H 0.179399 0.408513 0.17314
Er1_46 Er 0.70306(2) 0.03760(2) 0.78292(2)
O2_46 O 0.6504(2) 0.0723(2) 0.7175(2)
O3_46 O 0.7734(2) 0.1019(2) 0.92403(19)
O5_70 O 0.6928(2) 0.0857(2) 0.7501(2)
O6_46 O 0.7364(2) 0.0631(2) 0.9157(2)
N1_70 N 0.6902(4) 0.1802(4) 0.7130(4)
N2_70 N 0.7370(3) 0.0779(3) 0.8175(2)
C1_70 C 0.6617(5) 0.1877(4) 0.6952(4)
H1_70 H 0.658475 0.209201 0.688878
C2_70 C 0.6396(4) 0.1662(3) 0.6870(4)
H2_70 H 0.622003 0.172184 0.674156
C3_70 C 0.6427(4) 0.1361(3) 0.6973(3)
H3_70 H 0.626433 0.121135 0.692330
C4_70 C 0.6699(3) 0.1259(3) 0.7156(3)
C5_70 C 0.6936(4) 0.1485(3) 0.7236(4)
H4_70 H 0.711631 0.142371 0.735965
C6_70 C 0.6715(3) 0.0924(3) 0.7288(3)
C7_70 C 0.7567(4) 0.1006(4) 0.8044(3)
H5_70 H 0.756535 0.104024 0.782042
C8_70 C 0.7769(5) 0.1188(4) 0.8238(4)
H6_70 H 0.789731 0.135047 0.814627
C9_70 C 0.7783(4) 0.1132(4) 0.8564(3)
H7_70 H 0.792918 0.124773 0.869234
C10_70 C 0.7579(3) 0.0902(3) 0.8704(3)
C11_70 C 0.7379(3) 0.0729(3) 0.8489(3)
H8_70 H 0.724353 0.056928 0.857483
C12_70 C 0.7563(3) 0.0847(3) 0.9062(3)
O7_70 O 0.7554(3) 0.0466(4) 0.7541(3)
O8_70 O 0.6660(3) 0.0760(2) 0.8140(2)
O9_70 O 0.7520(3) 0.0097(3) 0.8072(3)
O14_46 O 0.6970(2) 0.0207(2) 0.7257(2)
O15_46 O 0.6869(2) 0.0136(2) 0.8343(2)
H9_70 H 0.746928 0.00274609 0.829798
H10_70 H 0.770699 0.0250298 0.807489
H11_61 H 0.76159 0.0265003 0.742165
H12_70 H 0.77262 0.0520545 0.770177
H13_70 H 0.65222 0.0882974 0.798391
H14_70 H 0.679399 0.091487 0.82686
O4_46 O 0.6970(2) 0.9793(2) 0.7743(2)
O12_46 O 0.6504(2) 0.9277(2) 0.7825(2)
O13_46 O 0.6481(2) 0.9766(2) 0.82597(19)
O4_47 O 0.8030(2) 0.0207(2) 0.2743(2)
O12_47 O 0.8496(2) 0.0723(2) 0.2825(2)
O13_47 O 0.8519(2) 0.0234(2) 0.32597(19)
Er1_47 Er 0.79694(2) 0.96240(2) 0.28292(2)
O2_47 O 0.8496(2) 0.9277(2) 0.2175(2)
O3_47 O 0.7266(2) 0.8981(2) 0.42403(19)
O5_71 O 0.8072(2) 0.9143(2) 0.2501(2)
O6_47 O 0.7636(2) 0.9369(2) 0.4157(2)
N1_71 N 0.8098(4) 0.8198(4) 0.2130(4)
N2_71 N 0.7630(3) 0.9221(3) 0.3175(2)
C1_71 C 0.8383(5) 0.8123(4) 0.1952(4)
H1_71 H 0.841525 0.790799 0.188878
C2_71 C 0.8604(4) 0.8338(3) 0.1870(4)
H2_71 H 0.877997 0.827816 0.174156
C3_71 C 0.8573(4) 0.8639(3) 0.1973(3)
H3_71 H 0.873567 0.878865 0.192330
C4_71 C 0.8301(3) 0.8741(3) 0.2156(3)
C5_71 C 0.8064(4) 0.8515(3) 0.2236(4)
H4_71 H 0.788369 0.857629 0.235965
C6_71 C 0.8285(3) 0.9076(3) 0.2288(3)
C7_71 C 0.7433(4) 0.8994(4) 0.3044(3)
H5_71 H 0.743465 0.895976 0.282042
C8_71 C 0.7231(5) 0.8812(4) 0.3238(4)
H6_71 H 0.710269 0.864953 0.314627
C9_71 C 0.7217(4) 0.8868(4) 0.3564(3)
H7_71 H 0.707082 0.875227 0.369234
C10_71 C 0.7421(3) 0.9098(3) 0.3704(3)
C11_71 C 0.7621(3) 0.9271(3) 0.3489(3)
H8_71 H 0.775647 0.943072 0.357483
C12_71 C 0.7437(3) 0.9153(3) 0.4062(3)
O7_71 O 0.7446(3) 0.9534(4) 0.2541(3)
O8_71 O 0.8340(3) 0.9240(2) 0.3140(2)
O9_71 O 0.7480(3) 0.9903(3) 0.3072(3)
O14_47 O 0.8030(2) 0.9793(2) 0.2257(2)
O15_47 O 0.8131(2) 0.9864(2) 0.3343(2)
H9_71 H 0.753072 0.997254 0.329798
H10_71 H 0.729301 0.97497 0.307489
H11_62 H 0.73841 0.9735 0.242165
H12_71 H 0.72738 0.947946 0.270177
H13_71 H 0.84778 0.911703 0.298391
H14_71 H 0.820601 0.908513 0.32686
Er1_48 Er 0.29694(2) 0.53760(2) 0.71708(2)
O2_48 O 0.3496(2) 0.5723(2) 0.7825(2)
O3_48 O 0.2266(2) 0.6019(2) 0.57597(19)
O4_48 O 0.3030(2) 0.4793(2) 0.7257(2)
O5_72 O 0.3072(2) 0.5857(2) 0.7499(2)
O6_48 O 0.2636(2) 0.5631(2) 0.5843(2)
N1_72 N 0.3098(4) 0.6802(4) 0.7870(4)
N2_72 N 0.2630(3) 0.5779(3) 0.6825(2)
C1_72 C 0.3383(5) 0.6877(4) 0.8048(4)
H1_72 H 0.341525 0.709201 0.811122
C2_72 C 0.3604(4) 0.6662(3) 0.8130(4)
H2_72 H 0.377997 0.672184 0.825844
C3_72 C 0.3573(4) 0.6361(3) 0.8027(3)
H3_72 H 0.373567 0.621135 0.807670
C4_72 C 0.3301(3) 0.6259(3) 0.7844(3)
C5_72 C 0.3064(4) 0.6485(3) 0.7764(4)
H4_72 H 0.288369 0.642371 0.764035
C6_72 C 0.3285(3) 0.5924(3) 0.7712(3)
C7_72 C 0.2433(4) 0.6006(4) 0.6956(3)
H5_72 H 0.243465 0.604024 0.717958
C8_72 C 0.2231(5) 0.6188(4) 0.6762(4)
H6_72 H 0.210269 0.635047 0.685373
C9_72 C 0.2217(4) 0.6132(4) 0.6436(3)
H7_72 H 0.207082 0.624773 0.630766
C10_72 C 0.2421(3) 0.5902(3) 0.6296(3)
C11_72 C 0.2621(3) 0.5729(3) 0.6511(3)
H8_72 H 0.275647 0.556928 0.642517
C12_72 C 0.2437(3) 0.5847(3) 0.5938(3)
O7_72 O 0.2446(3) 0.5466(4) 0.7459(3)
O8_72 O 0.3340(3) 0.5760(2) 0.6860(2)
O9_72 O 0.2480(3) 0.5097(3) 0.6928(3)
O12_48 O 0.3496(2) 0.4277(2) 0.7175(2)
O13_48 O 0.3519(2) 0.4766(2) 0.67403(19)
O14_48 O 0.3030(2) 0.5207(2) 0.7743(2)
O15_48 O 0.3131(2) 0.5136(2) 0.6657(2)
H9_72 H 0.253072 0.502746 0.670202
H10_72 H 0.229301 0.52503 0.692511
H11_63 H 0.23841 0.5265 0.757835
H12_72 H 0.22738 0.552054 0.729823
H13_72 H 0.34778 0.588297 0.701609
H14_72 H 0.320601 0.591487 0.67314
O5_73 O 0.0001(2) 0.1643(2) 0.4428(2)
N2_73 N 0.0675(2) 0.1721(3) 0.4870(3)
C7_73 C 0.0544(3) 0.1494(4) 0.5067(4)
H5_73 H 0.032042 0.145976 0.506535
C8_73 C 0.0738(4) 0.1312(4) 0.5269(5)
H6_73 H 0.064627 0.114953 0.539731
C9_73 C 0.1064(3) 0.1368(4) 0.5283(4)
H7_73 H 0.119234 0.125227 0.542918
C10_73 C 0.1204(3) 0.1598(3) 0.5079(3)
C11_73 C 0.0989(3) 0.1771(3) 0.4879(3)
H8_73 H 0.107483 0.193072 0.474353
C12_73 C 0.1562(3) 0.1653(3) 0.5063(3)
O7_73 O 0.0041(3) 0.2034(4) 0.5054(3)
O8_73 O 0.0640(2) 0.1740(2) 0.4160(3)
O9_73 O 0.0572(3) 0.2403(3) 0.5020(3)
H9_73 H 0.0797981 0.247254 0.496928
H10_73 H 0.0574889 0.22497 0.520699
H12_73 H 0.0201771 0.197946 0.52262
H13_73 H 0.0483912 0.161703 0.40222
H14_73 H 0.0768596 0.158513 0.429399
N1_73 N 0.9630(4) 0.0698(4) 0.4402(4)
C1_73 C 0.9452(4) 0.0623(4) 0.4117(5)
H1_73 H 0.938878 0.040799 0.408475
C2_73 C 0.9370(4) 0.0838(3) 0.3896(4)
H2_73 H 0.924156 0.077816 0.372003
C3_73 C 0.9473(3) 0.1139(3) 0.3927(4)
H3_73 H 0.942330 0.128865 0.376433
C4_73 C 0.9656(3) 0.1241(3) 0.4199(3)
C5_73 C 0.9736(4) 0.1015(3) 0.4436(4)
H4_73 H 0.985965 0.107629 0.461631
C6_73 C 0.9788(3) 0.1576(3) 0.4215(3)
H11_64 H 0.992165 0.2235 0.51159
C7_74 C 0.4456(3) 0.8506(4) 0.0067(4)
H5_74 H 0.467958 0.854024 0.006535
C8_74 C 0.4262(4) 0.8688(4) 0.0269(5)
H6_74 H 0.435373 0.885047 0.039731
C9_74 C 0.3936(3) 0.8632(4) 0.0283(4)
H7_74 H 0.380766 0.874773 0.042918
C10_74 C 0.3796(3) 0.8402(3) 0.0079(3)
C12_74 C 0.3438(3) 0.8347(3) 0.0063(3)
O7_74 O 0.4959(3) 0.7966(4) 0.0054(3)
O9_74 O 0.4428(3) 0.7597(3) 0.0020(3)
H10_74 H 0.442511 0.77503 0.0206995
H11_65 H 0.507835 0.7765 0.01159
H12_74 H 0.479823 0.802054 0.0226202
O5_74 O 0.4999(2) 0.8357(2) 0.9428(2)
N1_74 N 0.5370(4) 0.9302(4) 0.9402(4)
N2_74 N 0.4325(2) 0.8279(3) 0.9870(3)
C1_74 C 0.5548(4) 0.9377(4) 0.9117(5)
H1_74 H 0.561122 0.959201 0.908475
C2_74 C 0.5630(4) 0.9162(3) 0.8896(4)
H2_74 H 0.575844 0.922184 0.872003
C3_74 C 0.5527(3) 0.8861(3) 0.8927(4)
H3_74 H 0.557670 0.871135 0.876433
C4_74 C 0.5344(3) 0.8759(3) 0.9199(3)
C5_74 C 0.5264(4) 0.8985(3) 0.9436(4)
H4_74 H 0.514035 0.892371 0.961631
C6_74 C 0.5212(3) 0.8424(3) 0.9215(3)
C11_74 C 0.4011(3) 0.8229(3) 0.9879(3)
H8_74 H 0.392517 0.806928 0.974353
O8_74 O 0.4360(2) 0.8260(2) 0.9160(3)
H9_74 H 0.420202 0.752746 0.996928
H13_74 H 0.451609 0.838297 0.90222
H14_74 H 0.42314 0.841487 0.929399
N1_75 N 0.0370(4) 0.5698(4) 0.0598(4)
C1_75 C 0.0548(4) 0.5623(4) 0.0883(5)
H1_75 H 0.061122 0.540799 0.091525
C2_75 C 0.0630(4) 0.5838(3) 0.1104(4)
H2_75 H 0.075844 0.577816 0.127997
C3_75 C 0.0527(3) 0.6139(3) 0.1073(4)
H3_75 H 0.057670 0.628865 0.123567
C4_75 C 0.0344(3) 0.6241(3) 0.0801(3)
C5_75 C 0.0264(4) 0.6015(3) 0.0564(4)
H4_75 H 0.014035 0.607629 0.038369
C6_75 C 0.0212(3) 0.6576(3) 0.0785(3)
O5_75 O 0.9999(2) 0.6643(2) 0.0572(2)
N2_75 N 0.9325(2) 0.6721(3) 0.0130(3)
C11_75 C 0.9011(3) 0.6771(3) 0.0121(3)
H8_75 H 0.892517 0.693072 0.025647
O8_75 O 0.9360(2) 0.6740(2) 0.0840(3)
H9_75 H 0.920202 0.747254 0.00307212
H13_75 H 0.951609 0.661703 0.0977804
H14_75 H 0.92314 0.658513 0.0706007
C7_75 C 0.9456(3) 0.6494(4) 0.9933(4)
H5_75 H 0.967958 0.645976 0.993465
C8_75 C 0.9262(4) 0.6312(4) 0.9731(5)
H6_75 H 0.935373 0.614953 0.960269
C9_75 C 0.8936(3) 0.6368(4) 0.9717(4)
H7_75 H 0.880766 0.625227 0.957082
C10_75 C 0.8796(3) 0.6598(3) 0.9921(3)
C12_75 C 0.8438(3) 0.6653(3) 0.9937(3)
O7_75 O 0.9959(3) 0.7034(4) 0.9946(3)
O9_75 O 0.9428(3) 0.7403(3) 0.9980(3)
H10_75 H 0.942511 0.72497 0.979301
H12_75 H 0.979823 0.697946 0.97738
O5_76 O 0.5001(2) 0.3357(2) 0.5572(2)
N1_76 N 0.4630(4) 0.4302(4) 0.5598(4)
N2_76 N 0.5675(2) 0.3279(3) 0.5130(3)
C1_76 C 0.4452(4) 0.4377(4) 0.5883(5)
H1_76 H 0.438878 0.459201 0.591525
C2_76 C 0.4370(4) 0.4162(3) 0.6104(4)
H2_76 H 0.424156 0.422184 0.627997
C3_76 C 0.4473(3) 0.3861(3) 0.6073(4)
H3_76 H 0.442330 0.371135 0.623567
C4_76 C 0.4656(3) 0.3759(3) 0.5801(3)
C5_76 C 0.4736(4) 0.3985(3) 0.5564(4)
H4_76 H 0.485965 0.392371 0.538369
C6_76 C 0.4788(3) 0.3424(3) 0.5785(3)
C7_76 C 0.5544(3) 0.3506(4) 0.4933(4)
H5_76 H 0.532042 0.354024 0.493465
C8_76 C 0.5738(4) 0.3688(4) 0.4731(5)
H6_76 H 0.564627 0.385047 0.460269
C9_76 C 0.6064(3) 0.3632(4) 0.4717(4)
H7_76 H 0.619234 0.374773 0.457082
C10_76 C 0.6204(3) 0.3402(3) 0.4921(3)
C11_76 C 0.5989(3) 0.3229(3) 0.5121(3)
H8_76 H 0.607483 0.306928 0.525647
C12_76 C 0.6562(3) 0.3347(3) 0.4937(3)
O7_76 O 0.5041(3) 0.2966(4) 0.4946(3)
O8_76 O 0.5640(2) 0.3260(2) 0.5840(3)
O9_76 O 0.5572(3) 0.2597(3) 0.4980(3)
H9_76 H 0.579798 0.252746 0.503072
H10_76 H 0.557489 0.27503 0.479301
H11_66 H 0.492165 0.2765 0.48841
H12_76 H 0.520177 0.302054 0.47738
H13_76 H 0.548391 0.338297 0.59778
H14_76 H 0.57686 0.341487 0.570601
O5_77 O 0.4428(2) 0.0001(2) 0.1643(2)
N2_77 N 0.4870(3) 0.0675(2) 0.1721(3)
C7_77 C 0.5067(4) 0.0544(3) 0.1494(4)
H5_77 H 0.506535 0.032042 0.145976
C8_77 C 0.5269(5) 0.0738(4) 0.1312(4)
H6_77 H 0.539731 0.064627 0.114953
C9_77 C 0.5283(4) 0.1064(3) 0.1368(4)
H7_77 H 0.542918 0.119234 0.125227
C10_77 C 0.5079(3) 0.1204(3) 0.1598(3)
C11_77 C 0.4879(3) 0.0989(3) 0.1771(3)
H8_77 H 0.474353 0.107483 0.193072
C12_77 C 0.5063(3) 0.1562(3) 0.1653(3)
O7_77 O 0.5054(3) 0.0041(3) 0.2034(4)
O8_77 O 0.4160(3) 0.0640(2) 0.1740(2)
O9_77 O 0.5020(3) 0.0572(3) 0.2403(3)
H9_77 H 0.496928 0.0797981 0.247254
H10_77 H 0.520699 0.0574889 0.22497
H12_77 H 0.52262 0.0201771 0.197946
H13_77 H 0.40222 0.0483912 0.161703
H14_77 H 0.429399 0.0768596 0.158513
N1_77 N 0.4402(4) 0.9630(4) 0.0698(4)
C1_77 C 0.4117(5) 0.9452(4) 0.0623(4)
H1_77 H 0.408475 0.938878 0.040799
C2_77 C 0.3896(4) 0.9370(4) 0.0838(3)
H2_77 H 0.372003 0.924156 0.077816
C3_77 C 0.3927(4) 0.9473(3) 0.1139(3)
H3_77 H 0.376433 0.942330 0.128865
C4_77 C 0.4199(3) 0.9656(3) 0.1241(3)
C5_77 C 0.4436(4) 0.9736(4) 0.1015(3)
H4_77 H 0.461631 0.985965 0.107629
C6_77 C 0.4215(3) 0.9788(3) 0.1576(3)
H11_67 H 0.51159 0.992165 0.2235
C7_78 C 0.0067(4) 0.4456(3) 0.8506(4)
H5_78 H 0.006535 0.467958 0.854024
C8_78 C 0.0269(5) 0.4262(4) 0.8688(4)
H6_78 H 0.039731 0.435373 0.885047
C9_78 C 0.0283(4) 0.3936(3) 0.8632(4)
H7_78 H 0.042918 0.380766 0.874773
C10_78 C 0.0079(3) 0.3796(3) 0.8402(3)
C12_78 C 0.0063(3) 0.3438(3) 0.8347(3)
O7_78 O 0.0054(3) 0.4959(3) 0.7966(4)
O9_78 O 0.0020(3) 0.4428(3) 0.7597(3)
H10_78 H 0.0206995 0.442511 0.77503
H11_68 H 0.01159 0.507835 0.7765
H12_78 H 0.0226202 0.479823 0.802054
O5_78 O 0.9428(2) 0.4999(2) 0.8357(2)
N1_78 N 0.9402(4) 0.5370(4) 0.9302(4)
N2_78 N 0.9870(3) 0.4325(2) 0.8279(3)
C1_78 C 0.9117(5) 0.5548(4) 0.9377(4)
H1_78 H 0.908475 0.561122 0.959201
C2_78 C 0.8896(4) 0.5630(4) 0.9162(3)
H2_78 H 0.872003 0.575844 0.922184
C3_78 C 0.8927(4) 0.5527(3) 0.8861(3)
H3_78 H 0.876433 0.557670 0.871135
C4_78 C 0.9199(3) 0.5344(3) 0.8759(3)
C5_78 C 0.9436(4) 0.5264(4) 0.8985(3)
H4_78 H 0.961631 0.514035 0.892371
C6_78 C 0.9215(3) 0.5212(3) 0.8424(3)
C11_78 C 0.9879(3) 0.4011(3) 0.8229(3)
H8_78 H 0.974353 0.392517 0.806928
O8_78 O 0.9160(3) 0.4360(2) 0.8260(2)
H9_78 H 0.996928 0.420202 0.752746
H13_78 H 0.90222 0.451609 0.838297
H14_78 H 0.929399 0.42314 0.841487
N1_79 N 0.0598(4) 0.0370(4) 0.5698(4)
C1_79 C 0.0883(5) 0.0548(4) 0.5623(4)
H1_79 H 0.091525 0.061122 0.540799
C2_79 C 0.1104(4) 0.0630(4) 0.5838(3)
H2_79 H 0.127997 0.075844 0.577816
C3_79 C 0.1073(4) 0.0527(3) 0.6139(3)
H3_79 H 0.123567 0.057670 0.628865
C4_79 C 0.0801(3) 0.0344(3) 0.6241(3)
C5_79 C 0.0564(4) 0.0264(4) 0.6015(3)
H4_79 H 0.038369 0.014035 0.607629
C6_79 C 0.0785(3) 0.0212(3) 0.6576(3)
O5_79 O 0.0572(2) 0.9999(2) 0.6643(2)
N2_79 N 0.0130(3) 0.9325(2) 0.6721(3)
C11_79 C 0.0121(3) 0.9011(3) 0.6771(3)
H8_79 H 0.025647 0.892517 0.693072
O8_79 O 0.0840(3) 0.9360(2) 0.6740(2)
H9_79 H 0.00307212 0.920202 0.747254
H13_79 H 0.0977804 0.951609 0.661703
H14_79 H 0.0706007 0.92314 0.658513
C7_79 C 0.9933(4) 0.9456(3) 0.6494(4)
H5_79 H 0.993465 0.967958 0.645976
C8_79 C 0.9731(5) 0.9262(4) 0.6312(4)
H6_79 H 0.960269 0.935373 0.614953
C9_79 C 0.9717(4) 0.8936(3) 0.6368(4)
H7_79 H 0.957082 0.880766 0.625227
C10_79 C 0.9921(3) 0.8796(3) 0.6598(3)
C12_79 C 0.9937(3) 0.8438(3) 0.6653(3)
O7_79 O 0.9946(3) 0.9959(3) 0.7034(4)
O9_79 O 0.9980(3) 0.9428(3) 0.7403(3)
H10_79 H 0.979301 0.942511 0.72497
H12_79 H 0.97738 0.979823 0.697946
O5_80 O 0.5572(2) 0.5001(2) 0.3357(2)
N1_80 N 0.5598(4) 0.4630(4) 0.4302(4)
N2_80 N 0.5130(3) 0.5675(2) 0.3279(3)
C1_80 C 0.5883(5) 0.4452(4) 0.4377(4)
H1_80 H 0.591525 0.438878 0.459201
C2_80 C 0.6104(4) 0.4370(4) 0.4162(3)
H2_80 H 0.627997 0.424156 0.422184
C3_80 C 0.6073(4) 0.4473(3) 0.3861(3)
H3_80 H 0.623567 0.442330 0.371135
C4_80 C 0.5801(3) 0.4656(3) 0.3759(3)
C5_80 C 0.5564(4) 0.4736(4) 0.3985(3)
H4_80 H 0.538369 0.485965 0.392371
C6_80 C 0.5785(3) 0.4788(3) 0.3424(3)
C7_80 C 0.4933(4) 0.5544(3) 0.3506(4)
H5_80 H 0.493465 0.532042 0.354024
C8_80 C 0.4731(5) 0.5738(4) 0.3688(4)
H6_80 H 0.460269 0.564627 0.385047
C9_80 C 0.4717(4) 0.6064(3) 0.3632(4)
H7_80 H 0.457082 0.619234 0.374773
C10_80 C 0.4921(3) 0.6204(3) 0.3402(3)
C11_80 C 0.5121(3) 0.5989(3) 0.3229(3)
H8_80 H 0.525647 0.607483 0.306928
C12_80 C 0.4937(3) 0.6562(3) 0.3347(3)
O7_80 O 0.4946(3) 0.5041(3) 0.2966(4)
O8_80 O 0.5840(3) 0.5640(2) 0.3260(2)
O9_80 O 0.4980(3) 0.5572(3) 0.2597(3)
H9_80 H 0.503072 0.579798 0.252746
H10_80 H 0.479301 0.557489 0.27503
H11_69 H 0.48841 0.492165 0.2765
H12_80 H 0.47738 0.520177 0.302054
H13_80 H 0.59778 0.548391 0.338297
H14_80 H 0.570601 0.57686 0.341487
O5_81 O 0.1643(2) 0.4428(2) 0.0001(2)
N2_81 N 0.1721(3) 0.4870(3) 0.0675(2)
C7_81 C 0.1494(4) 0.5067(4) 0.0544(3)
H5_81 H 0.145976 0.506535 0.032042
C8_81 C 0.1312(4) 0.5269(5) 0.0738(4)
H6_81 H 0.114953 0.539731 0.064627
C9_81 C 0.1368(4) 0.5283(4) 0.1064(3)
H7_81 H 0.125227 0.542918 0.119234
C10_81 C 0.1598(3) 0.5079(3) 0.1204(3)
C11_81 C 0.1771(3) 0.4879(3) 0.0989(3)
H8_81 H 0.193072 0.474353 0.107483
C12_81 C 0.1653(3) 0.5063(3) 0.1562(3)
O7_81 O 0.2034(4) 0.5054(3) 0.0041(3)
O8_81 O 0.1740(2) 0.4160(3) 0.0640(2)
O9_81 O 0.2403(3) 0.5020(3) 0.0572(3)
H9_81 H 0.247254 0.496928 0.0797981
H10_81 H 0.22497 0.520699 0.0574889
H12_81 H 0.197946 0.52262 0.0201771
H13_81 H 0.161703 0.40222 0.0483912
H14_81 H 0.158513 0.429399 0.0768596
N1_81 N 0.0698(4) 0.4402(4) 0.9630(4)
C1_81 C 0.0623(4) 0.4117(5) 0.9452(4)
H1_81 H 0.040799 0.408475 0.938878
C2_81 C 0.0838(3) 0.3896(4) 0.9370(4)
H2_81 H 0.077816 0.372003 0.924156
C3_81 C 0.1139(3) 0.3927(4) 0.9473(3)
H3_81 H 0.128865 0.376433 0.942330
C4_81 C 0.1241(3) 0.4199(3) 0.9656(3)
C5_81 C 0.1015(3) 0.4436(4) 0.9736(4)
H4_81 H 0.107629 0.461631 0.985965
C6_81 C 0.1576(3) 0.4215(3) 0.9788(3)
H11_70 H 0.2235 0.51159 0.992165
C7_82 C 0.8506(4) 0.0067(4) 0.4456(3)
H5_82 H 0.854024 0.006535 0.467958
C8_82 C 0.8688(4) 0.0269(5) 0.4262(4)
H6_82 H 0.885047 0.039731 0.435373
C9_82 C 0.8632(4) 0.0283(4) 0.3936(3)
H7_82 H 0.874773 0.042918 0.380766
C10_82 C 0.8402(3) 0.0079(3) 0.3796(3)
C12_82 C 0.8347(3) 0.0063(3) 0.3438(3)
O7_82 O 0.7966(4) 0.0054(3) 0.4959(3)
O9_82 O 0.7597(3) 0.0020(3) 0.4428(3)
H10_82 H 0.77503 0.0206995 0.442511
H11_71 H 0.7765 0.01159 0.507835
H12_82 H 0.802054 0.0226202 0.479823
O5_82 O 0.8357(2) 0.9428(2) 0.4999(2)
N1_82 N 0.9302(4) 0.9402(4) 0.5370(4)
N2_82 N 0.8279(3) 0.9870(3) 0.4325(2)
C1_82 C 0.9377(4) 0.9117(5) 0.5548(4)
H1_82 H 0.959201 0.908475 0.561122
C2_82 C 0.9162(3) 0.8896(4) 0.5630(4)
H2_82 H 0.922184 0.872003 0.575844
C3_82 C 0.8861(3) 0.8927(4) 0.5527(3)
H3_82 H 0.871135 0.876433 0.557670
C4_82 C 0.8759(3) 0.9199(3) 0.5344(3)
C5_82 C 0.8985(3) 0.9436(4) 0.5264(4)
H4_82 H 0.892371 0.961631 0.514035
C6_82 C 0.8424(3) 0.9215(3) 0.5212(3)
C11_82 C 0.8229(3) 0.9879(3) 0.4011(3)
H8_82 H 0.806928 0.974353 0.392517
O8_82 O 0.8260(2) 0.9160(3) 0.4360(2)
H9_82 H 0.752746 0.996928 0.420202
H13_82 H 0.838297 0.90222 0.451609
H14_82 H 0.841487 0.929399 0.42314
N1_83 N 0.5698(4) 0.0598(4) 0.0370(4)
C1_83 C 0.5623(4) 0.0883(5) 0.0548(4)
H1_83 H 0.540799 0.091525 0.061122
C2_83 C 0.5838(3) 0.1104(4) 0.0630(4)
H2_83 H 0.577816 0.127997 0.075844
C3_83 C 0.6139(3) 0.1073(4) 0.0527(3)
H3_83 H 0.628865 0.123567 0.057670
C4_83 C 0.6241(3) 0.0801(3) 0.0344(3)
C5_83 C 0.6015(3) 0.0564(4) 0.0264(4)
H4_83 H 0.607629 0.038369 0.014035
C6_83 C 0.6576(3) 0.0785(3) 0.0212(3)
O5_83 O 0.6643(2) 0.0572(2) 0.9999(2)
N2_83 N 0.6721(3) 0.0130(3) 0.9325(2)
C11_83 C 0.6771(3) 0.0121(3) 0.9011(3)
H8_83 H 0.693072 0.025647 0.892517
O8_83 O 0.6740(2) 0.0840(3) 0.9360(2)
H9_83 H 0.747254 0.00307212 0.920202
H13_83 H 0.661703 0.0977804 0.951609
H14_83 H 0.658513 0.0706007 0.92314
C7_83 C 0.6494(4) 0.9933(4) 0.9456(3)
H5_83 H 0.645976 0.993465 0.967958
C8_83 C 0.6312(4) 0.9731(5) 0.9262(4)
H6_83 H 0.614953 0.960269 0.935373
C9_83 C 0.6368(4) 0.9717(4) 0.8936(3)
H7_83 H 0.625227 0.957082 0.880766
C10_83 C 0.6598(3) 0.9921(3) 0.8796(3)
C12_83 C 0.6653(3) 0.9937(3) 0.8438(3)
O7_83 O 0.7034(4) 0.9946(3) 0.9959(3)
O9_83 O 0.7403(3) 0.9980(3) 0.9428(3)
H10_83 H 0.72497 0.979301 0.942511
H12_83 H 0.697946 0.97738 0.979823
O5_84 O 0.3357(2) 0.5572(2) 0.5001(2)
N1_84 N 0.4302(4) 0.5598(4) 0.4630(4)
N2_84 N 0.3279(3) 0.5130(3) 0.5675(2)
C1_84 C 0.4377(4) 0.5883(5) 0.4452(4)
H1_84 H 0.459201 0.591525 0.438878
C2_84 C 0.4162(3) 0.6104(4) 0.4370(4)
H2_84 H 0.422184 0.627997 0.424156
C3_84 C 0.3861(3) 0.6073(4) 0.4473(3)
H3_84 H 0.371135 0.623567 0.442330
C4_84 C 0.3759(3) 0.5801(3) 0.4656(3)
C5_84 C 0.3985(3) 0.5564(4) 0.4736(4)
H4_84 H 0.392371 0.538369 0.485965
C6_84 C 0.3424(3) 0.5785(3) 0.4788(3)
C7_84 C 0.3506(4) 0.4933(4) 0.5544(3)
H5_84 H 0.354024 0.493465 0.532042
C8_84 C 0.3688(4) 0.4731(5) 0.5738(4)
H6_84 H 0.385047 0.460269 0.564627
C9_84 C 0.3632(4) 0.4717(4) 0.6064(3)
H7_84 H 0.374773 0.457082 0.619234
C10_84 C 0.3402(3) 0.4921(3) 0.6204(3)
C11_84 C 0.3229(3) 0.5121(3) 0.5989(3)
H8_84 H 0.306928 0.525647 0.607483
C12_84 C 0.3347(3) 0.4937(3) 0.6562(3)
O7_84 O 0.2966(4) 0.4946(3) 0.5041(3)
O8_84 O 0.3260(2) 0.5840(3) 0.5640(2)
O9_84 O 0.2597(3) 0.4980(3) 0.5572(3)
H9_84 H 0.252746 0.503072 0.579798
H10_84 H 0.27503 0.479301 0.557489
H11_72 H 0.2765 0.48841 0.492165
H12_84 H 0.302054 0.47738 0.520177
H13_84 H 0.338297 0.59778 0.548391
H14_84 H 0.341487 0.570601 0.57686
O5_85 O 0.4143(2) 0.7501(2) 0.3072(2)
N1_85 N 0.3198(4) 0.7130(4) 0.3098(4)
N2_85 N 0.4221(3) 0.8175(2) 0.2630(3)
C1_85 C 0.3123(4) 0.6952(4) 0.3383(5)
H1_85 H 0.290799 0.688878 0.341525
C2_85 C 0.3338(3) 0.6870(4) 0.3604(4)
H2_85 H 0.327816 0.674156 0.377997
C3_85 C 0.3639(3) 0.6973(3) 0.3573(4)
H3_85 H 0.378865 0.692330 0.373567
C4_85 C 0.3741(3) 0.7156(3) 0.3301(3)
C5_85 C 0.3515(3) 0.7236(4) 0.3064(4)
H4_85 H 0.357629 0.735965 0.288369
C6_85 C 0.4076(3) 0.7288(3) 0.3285(3)
C7_85 C 0.3994(4) 0.8044(3) 0.2433(4)
H5_85 H 0.395976 0.782042 0.243465
C8_85 C 0.3812(4) 0.8238(4) 0.2231(5)
H6_85 H 0.364953 0.814627 0.210269
C9_85 C 0.3868(4) 0.8564(3) 0.2217(4)
H7_85 H 0.375227 0.869234 0.207082
C10_85 C 0.4098(3) 0.8704(3) 0.2421(3)
C11_85 C 0.4271(3) 0.8489(3) 0.2621(3)
H8_85 H 0.443072 0.857483 0.275647
C12_85 C 0.4153(3) 0.9062(3) 0.2437(3)
O7_85 O 0.4534(4) 0.7541(3) 0.2446(3)
O8_85 O 0.4240(2) 0.8140(2) 0.3340(3)
O9_85 O 0.4903(3) 0.8072(3) 0.2480(3)
H9_85 H 0.497254 0.829798 0.253072
H10_85 H 0.47497 0.807489 0.229301
H11_73 H 0.4735 0.742165 0.23841
H12_85 H 0.447946 0.770177 0.22738
H13_85 H 0.411703 0.798391 0.34778
H14_85 H 0.408513 0.82686 0.320601
O5_86 O 0.0857(2) 0.2499(2) 0.8072(2)
N1_86 N 0.1802(4) 0.2870(4) 0.8098(4)
N2_86 N 0.0779(3) 0.1825(2) 0.7630(3)
C1_86 C 0.1877(4) 0.3048(4) 0.8383(5)
H1_86 H 0.209201 0.311122 0.841525
C2_86 C 0.1662(3) 0.3130(4) 0.8604(4)
H2_86 H 0.172184 0.325844 0.877997
C3_86 C 0.1361(3) 0.3027(3) 0.8573(4)
H3_86 H 0.121135 0.307670 0.873567
C4_86 C 0.1259(3) 0.2844(3) 0.8301(3)
C5_86 C 0.1485(3) 0.2764(4) 0.8064(4)
H4_86 H 0.142371 0.264035 0.788369
C6_86 C 0.0924(3) 0.2712(3) 0.8285(3)
C7_86 C 0.1006(4) 0.1956(3) 0.7433(4)
H5_86 H 0.104024 0.217958 0.743465
C8_86 C 0.1188(4) 0.1762(4) 0.7231(5)
H6_86 H 0.135047 0.185373 0.710269
C9_86 C 0.1132(4) 0.1436(3) 0.7217(4)
H7_86 H 0.124773 0.130766 0.707082
C10_86 C 0.0902(3) 0.1296(3) 0.7421(3)
C11_86 C 0.0729(3) 0.1511(3) 0.7621(3)
H8_86 H 0.056928 0.142517 0.775647
C12_86 C 0.0847(3) 0.0938(3) 0.7437(3)
O7_86 O 0.0466(4) 0.2459(3) 0.7446(3)
O8_86 O 0.0760(2) 0.1860(2) 0.8340(3)
O9_86 O 0.0097(3) 0.1928(3) 0.7480(3)
H9_86 H 0.00274609 0.170202 0.753072
H10_86 H 0.0250298 0.192511 0.729301
H11_74 H 0.0265003 0.257835 0.73841
H12_86 H 0.0520545 0.229823 0.72738
H13_86 H 0.0882974 0.201609 0.84778
H14_86 H 0.091487 0.17314 0.820601
O5_87 O 0.9143(2) 0.7499(2) 0.6928(2)
N1_87 N 0.8198(4) 0.7870(4) 0.6902(4)
N2_87 N 0.9221(3) 0.6825(2) 0.7370(3)
C1_87 C 0.8123(4) 0.8048(4) 0.6617(5)
H1_87 H 0.790799 0.811122 0.658475
C2_87 C 0.8338(3) 0.8130(4) 0.6396(4)
H2_87 H 0.827816 0.825844 0.622003
C3_87 C 0.8639(3) 0.8027(3) 0.6427(4)
H3_87 H 0.878865 0.807670 0.626433
C4_87 C 0.8741(3) 0.7844(3) 0.6699(3)
C5_87 C 0.8515(3) 0.7764(4) 0.6936(4)
H4_87 H 0.857629 0.764035 0.711631
C6_87 C 0.9076(3) 0.7712(3) 0.6715(3)
C7_87 C 0.8994(4) 0.6956(3) 0.7567(4)
H5_87 H 0.895976 0.717958 0.756535
C8_87 C 0.8812(4) 0.6762(4) 0.7769(5)
H6_87 H 0.864953 0.685373 0.789731
C9_87 C 0.8868(4) 0.6436(3) 0.7783(4)
H7_87 H 0.875227 0.630766 0.792918
C10_87 C 0.9098(3) 0.6296(3) 0.7579(3)
C11_87 C 0.9271(3) 0.6511(3) 0.7379(3)
H8_87 H 0.943072 0.642517 0.724353
C12_87 C 0.9153(3) 0.5938(3) 0.7563(3)
O7_87 O 0.9534(4) 0.7459(3) 0.7554(3)
O8_87 O 0.9240(2) 0.6860(2) 0.6660(3)
O9_87 O 0.9903(3) 0.6928(3) 0.7520(3)
H9_87 H 0.997254 0.670202 0.746928
H10_87 H 0.97497 0.692511 0.770699
H11_75 H 0.9735 0.757835 0.76159
H12_87 H 0.947946 0.729823 0.77262
H13_87 H 0.911703 0.701609 0.65222
H14_87 H 0.908513 0.67314 0.679399
O5_88 O 0.5857(2) 0.2501(2) 0.1928(2)
N1_88 N 0.6802(4) 0.2130(4) 0.1902(4)
N2_88 N 0.5779(3) 0.3175(2) 0.2370(3)
C1_88 C 0.6877(4) 0.1952(4) 0.1617(5)
H1_88 H 0.709201 0.188878 0.158475
C2_88 C 0.6662(3) 0.1870(4) 0.1396(4)
H2_88 H 0.672184 0.174156 0.122003
C3_88 C 0.6361(3) 0.1973(3) 0.1427(4)
H3_88 H 0.621135 0.192330 0.126433
C4_88 C 0.6259(3) 0.2156(3) 0.1699(3)
C5_88 C 0.6485(3) 0.2236(4) 0.1936(4)
H4_88 H 0.642371 0.235965 0.211631
C6_88 C 0.5924(3) 0.2288(3) 0.1715(3)
C7_88 C 0.6006(4) 0.3044(3) 0.2567(4)
H5_88 H 0.604024 0.282042 0.256535
C8_88 C 0.6188(4) 0.3238(4) 0.2769(5)
H6_88 H 0.635047 0.314627 0.289731
C9_88 C 0.6132(4) 0.3564(3) 0.2783(4)
H7_88 H 0.624773 0.369234 0.292918
C10_88 C 0.5902(3) 0.3704(3) 0.2579(3)
C11_88 C 0.5729(3) 0.3489(3) 0.2379(3)
H8_88 H 0.556928 0.357483 0.224353
C12_88 C 0.5847(3) 0.4062(3) 0.2563(3)
O7_88 O 0.5466(4) 0.2541(3) 0.2554(3)
O8_88 O 0.5760(2) 0.3140(2) 0.1660(3)
O9_88 O 0.5097(3) 0.3072(3) 0.2520(3)
H9_88 H 0.502746 0.329798 0.246928
H10_88 H 0.52503 0.307489 0.270699
H11_76 H 0.5265 0.242165 0.26159
H12_88 H 0.552054 0.270177 0.27262
H13_88 H 0.588297 0.298391 0.15222
H14_88 H 0.591487 0.32686 0.179399
O5_89 O 0.2501(2) 0.1928(2) 0.5857(2)
N1_89 N 0.2130(4) 0.1902(4) 0.6802(4)
N2_89 N 0.3175(2) 0.2370(3) 0.5779(3)
C1_89 C 0.1952(4) 0.1617(5) 0.6877(4)
H1_89 H 0.188878 0.158475 0.709201
C2_89 C 0.1870(4) 0.1396(4) 0.6662(3)
H2_89 H 0.174156 0.122003 0.672184
C3_89 C 0.1973(3) 0.1427(4) 0.6361(3)
H3_89 H 0.192330 0.126433 0.621135
C4_89 C 0.2156(3) 0.1699(3) 0.6259(3)
C5_89 C 0.2236(4) 0.1936(4) 0.6485(3)
H4_89 H 0.235965 0.211631 0.642371
C6_89 C 0.2288(3) 0.1715(3) 0.5924(3)
C7_89 C 0.3044(3) 0.2567(4) 0.6006(4)
H5_89 H 0.282042 0.256535 0.604024
C8_89 C 0.3238(4) 0.2769(5) 0.6188(4)
H6_89 H 0.314627 0.289731 0.635047
C9_89 C 0.3564(3) 0.2783(4) 0.6132(4)
H7_89 H 0.369234 0.292918 0.624773
C10_89 C 0.3704(3) 0.2579(3) 0.5902(3)
C11_89 C 0.3489(3) 0.2379(3) 0.5729(3)
H8_89 H 0.357483 0.224353 0.556928
C12_89 C 0.4062(3) 0.2563(3) 0.5847(3)
O7_89 O 0.2541(3) 0.2554(3) 0.5466(4)
O8_89 O 0.3140(2) 0.1660(3) 0.5760(2)
O9_89 O 0.3072(3) 0.2520(3) 0.5097(3)
H9_89 H 0.329798 0.246928 0.502746
H10_89 H 0.307489 0.270699 0.52503
H11_77 H 0.242165 0.26159 0.5265
H12_89 H 0.270177 0.27262 0.552054
H13_89 H 0.298391 0.15222 0.588297
H14_89 H 0.32686 0.179399 0.591487
O5_90 O 0.7499(2) 0.6928(2) 0.9143(2)
N1_90 N 0.7870(4) 0.6902(4) 0.8198(4)
N2_90 N 0.6825(2) 0.7370(3) 0.9221(3)
C1_90 C 0.8048(4) 0.6617(5) 0.8123(4)
H1_90 H 0.811122 0.658475 0.790799
C2_90 C 0.8130(4) 0.6396(4) 0.8338(3)
H2_90 H 0.825844 0.622003 0.827816
C3_90 C 0.8027(3) 0.6427(4) 0.8639(3)
H3_90 H 0.807670 0.626433 0.878865
C4_90 C 0.7844(3) 0.6699(3) 0.8741(3)
C5_90 C 0.7764(4) 0.6936(4) 0.8515(3)
H4_90 H 0.764035 0.711631 0.857629
C6_90 C 0.7712(3) 0.6715(3) 0.9076(3)
C7_90 C 0.6956(3) 0.7567(4) 0.8994(4)
H5_90 H 0.717958 0.756535 0.895976
C8_90 C 0.6762(4) 0.7769(5) 0.8812(4)
H6_90 H 0.685373 0.789731 0.864953
C9_90 C 0.6436(3) 0.7783(4) 0.8868(4)
H7_90 H 0.630766 0.792918 0.875227
C10_90 C 0.6296(3) 0.7579(3) 0.9098(3)
C11_90 C 0.6511(3) 0.7379(3) 0.9271(3)
H8_90 H 0.642517 0.724353 0.943072
C12_90 C 0.5938(3) 0.7563(3) 0.9153(3)
O7_90 O 0.7459(3) 0.7554(3) 0.9534(4)
O8_90 O 0.6860(2) 0.6660(3) 0.9240(2)
O9_90 O 0.6928(3) 0.7520(3) 0.9903(3)
H9_90 H 0.670202 0.746928 0.997254
H10_90 H 0.692511 0.770699 0.97497
H11_78 H 0.757835 0.76159 0.9735
H12_90 H 0.729823 0.77262 0.947946
H13_90 H 0.701609 0.65222 0.911703
H14_90 H 0.67314 0.679399 0.908513
O5_91 O 0.2499(2) 0.8072(2) 0.0857(2)
N1_91 N 0.2870(4) 0.8098(4) 0.1802(4)
N2_91 N 0.1825(2) 0.7630(3) 0.0779(3)
C1_91 C 0.3048(4) 0.8383(5) 0.1877(4)
H1_91 H 0.311122 0.841525 0.209201
C2_91 C 0.3130(4) 0.8604(4) 0.1662(3)
H2_91 H 0.325844 0.877997 0.172184
C3_91 C 0.3027(3) 0.8573(4) 0.1361(3)
H3_91 H 0.307670 0.873567 0.121135
C4_91 C 0.2844(3) 0.8301(3) 0.1259(3)
C5_91 C 0.2764(4) 0.8064(4) 0.1485(3)
H4_91 H 0.264035 0.788369 0.142371
C6_91 C 0.2712(3) 0.8285(3) 0.0924(3)
C7_91 C 0.1956(3) 0.7433(4) 0.1006(4)
H5_91 H 0.217958 0.743465 0.104024
C8_91 C 0.1762(4) 0.7231(5) 0.1188(4)
H6_91 H 0.185373 0.710269 0.135047
C9_91 C 0.1436(3) 0.7217(4) 0.1132(4)
H7_91 H 0.130766 0.707082 0.124773
C10_91 C 0.1296(3) 0.7421(3) 0.0902(3)
C11_91 C 0.1511(3) 0.7621(3) 0.0729(3)
H8_91 H 0.142517 0.775647 0.056928
C12_91 C 0.0938(3) 0.7437(3) 0.0847(3)
O7_91 O 0.2459(3) 0.7446(3) 0.0466(4)
O8_91 O 0.1860(2) 0.8340(3) 0.0760(2)
O9_91 O 0.1928(3) 0.7480(3) 0.0097(3)
H9_91 H 0.170202 0.753072 0.00274609
H10_91 H 0.192511 0.729301 0.0250298
H11_79 H 0.257835 0.73841 0.0265003
H12_91 H 0.229823 0.72738 0.0520545
H13_91 H 0.201609 0.84778 0.0882974
H14_91 H 0.17314 0.820601 0.091487
O5_92 O 0.7501(2) 0.3072(2) 0.4143(2)
N1_92 N 0.7130(4) 0.3098(4) 0.3198(4)
N2_92 N 0.8175(2) 0.2630(3) 0.4221(3)
C1_92 C 0.6952(4) 0.3383(5) 0.3123(4)
H1_92 H 0.688878 0.341525 0.290799
C2_92 C 0.6870(4) 0.3604(4) 0.3338(3)
H2_92 H 0.674156 0.377997 0.327816
C3_92 C 0.6973(3) 0.3573(4) 0.3639(3)
H3_92 H 0.692330 0.373567 0.378865
C4_92 C 0.7156(3) 0.3301(3) 0.3741(3)
C5_92 C 0.7236(4) 0.3064(4) 0.3515(3)
H4_92 H 0.735965 0.288369 0.357629
C6_92 C 0.7288(3) 0.3285(3) 0.4076(3)
C7_92 C 0.8044(3) 0.2433(4) 0.3994(4)
H5_92 H 0.782042 0.243465 0.395976
C8_92 C 0.8238(4) 0.2231(5) 0.3812(4)
H6_92 H 0.814627 0.210269 0.364953
C9_92 C 0.8564(3) 0.2217(4) 0.3868(4)
H7_92 H 0.869234 0.207082 0.375227
C10_92 C 0.8704(3) 0.2421(3) 0.4098(3)
C11_92 C 0.8489(3) 0.2621(3) 0.4271(3)
H8_92 H 0.857483 0.275647 0.443072
C12_92 C 0.9062(3) 0.2437(3) 0.4153(3)
O7_92 O 0.7541(3) 0.2446(3) 0.4534(4)
O8_92 O 0.8140(2) 0.3340(3) 0.4240(2)
O9_92 O 0.8072(3) 0.2480(3) 0.4903(3)
H9_92 H 0.829798 0.253072 0.497254
H10_92 H 0.807489 0.229301 0.47497
H11_80 H 0.742165 0.23841 0.4735
H12_92 H 0.770177 0.22738 0.447946
H13_92 H 0.798391 0.34778 0.411703
H14_92 H 0.82686 0.320601 0.408513
O5_93 O 0.6928(2) 0.9143(2) 0.7499(2)
N1_93 N 0.6902(4) 0.8198(4) 0.7870(4)
N2_93 N 0.7370(3) 0.9221(3) 0.6825(2)
C1_93 C 0.6617(5) 0.8123(4) 0.8048(4)
H1_93 H 0.658475 0.790799 0.811122
C2_93 C 0.6396(4) 0.8338(3) 0.8130(4)
H2_93 H 0.622003 0.827816 0.825844
C3_93 C 0.6427(4) 0.8639(3) 0.8027(3)
H3_93 H 0.626433 0.878865 0.807670
C4_93 C 0.6699(3) 0.8741(3) 0.7844(3)
C5_93 C 0.6936(4) 0.8515(3) 0.7764(4)
H4_93 H 0.711631 0.857629 0.764035
C6_93 C 0.6715(3) 0.9076(3) 0.7712(3)
C7_93 C 0.7567(4) 0.8994(4) 0.6956(3)
H5_93 H 0.756535 0.895976 0.717958
C8_93 C 0.7769(5) 0.8812(4) 0.6762(4)
H6_93 H 0.789731 0.864953 0.685373
C9_93 C 0.7783(4) 0.8868(4) 0.6436(3)
H7_93 H 0.792918 0.875227 0.630766
C10_93 C 0.7579(3) 0.9098(3) 0.6296(3)
C11_93 C 0.7379(3) 0.9271(3) 0.6511(3)
H8_93 H 0.724353 0.943072 0.642517
C12_93 C 0.7563(3) 0.9153(3) 0.5938(3)
O7_93 O 0.7554(3) 0.9534(4) 0.7459(3)
O8_93 O 0.6660(3) 0.9240(2) 0.6860(2)
O9_93 O 0.7520(3) 0.9903(3) 0.6928(3)
H9_93 H 0.746928 0.997254 0.670202
H10_93 H 0.770699 0.97497 0.692511
H11_81 H 0.76159 0.9735 0.757835
H12_93 H 0.77262 0.947946 0.729823
H13_93 H 0.65222 0.911703 0.701609
H14_93 H 0.679399 0.908513 0.67314
O5_94 O 0.1928(2) 0.5857(2) 0.2501(2)
N1_94 N 0.1902(4) 0.6802(4) 0.2130(4)
N2_94 N 0.2370(3) 0.5779(3) 0.3175(2)
C1_94 C 0.1617(5) 0.6877(4) 0.1952(4)
H1_94 H 0.158475 0.709201 0.188878
C2_94 C 0.1396(4) 0.6662(3) 0.1870(4)
H2_94 H 0.122003 0.672184 0.174156
C3_94 C 0.1427(4) 0.6361(3) 0.1973(3)
H3_94 H 0.126433 0.621135 0.192330
C4_94 C 0.1699(3) 0.6259(3) 0.2156(3)
C5_94 C 0.1936(4) 0.6485(3) 0.2236(4)
H4_94 H 0.211631 0.642371 0.235965
C6_94 C 0.1715(3) 0.5924(3) 0.2288(3)
C7_94 C 0.2567(4) 0.6006(4) 0.3044(3)
H5_94 H 0.256535 0.604024 0.282042
C8_94 C 0.2769(5) 0.6188(4) 0.3238(4)
H6_94 H 0.289731 0.635047 0.314627
C9_94 C 0.2783(4) 0.6132(4) 0.3564(3)
H7_94 H 0.292918 0.624773 0.369234
C10_94 C 0.2579(3) 0.5902(3) 0.3704(3)
C11_94 C 0.2379(3) 0.5729(3) 0.3489(3)
H8_94 H 0.224353 0.556928 0.357483
C12_94 C 0.2563(3) 0.5847(3) 0.4062(3)
O7_94 O 0.2554(3) 0.5466(4) 0.2541(3)
O8_94 O 0.1660(3) 0.5760(2) 0.3140(2)
O9_94 O 0.2520(3) 0.5097(3) 0.3072(3)
H9_94 H 0.246928 0.502746 0.329798
H10_94 H 0.270699 0.52503 0.307489
H11_82 H 0.26159 0.5265 0.242165
H12_94 H 0.27262 0.552054 0.270177
H13_94 H 0.15222 0.588297 0.298391
H14_94 H 0.179399 0.591487 0.32686
O5_95 O 0.3072(2) 0.4143(2) 0.7501(2)
N1_95 N 0.3098(4) 0.3198(4) 0.7130(4)
N2_95 N 0.2630(3) 0.4221(3) 0.8175(2)
C1_95 C 0.3383(5) 0.3123(4) 0.6952(4)
H1_95 H 0.341525 0.290799 0.688878
C2_95 C 0.3604(4) 0.3338(3) 0.6870(4)
H2_95 H 0.377997 0.327816 0.674156
C3_95 C 0.3573(4) 0.3639(3) 0.6973(3)
H3_95 H 0.373567 0.378865 0.692330
C4_95 C 0.3301(3) 0.3741(3) 0.7156(3)
C5_95 C 0.3064(4) 0.3515(3) 0.7236(4)
H4_95 H 0.288369 0.357629 0.735965
C6_95 C 0.3285(3) 0.4076(3) 0.7288(3)
C7_95 C 0.2433(4) 0.3994(4) 0.8044(3)
H5_95 H 0.243465 0.395976 0.782042
C8_95 C 0.2231(5) 0.3812(4) 0.8238(4)
H6_95 H 0.210269 0.364953 0.814627
C9_95 C 0.2217(4) 0.3868(4) 0.8564(3)
H7_95 H 0.207082 0.375227 0.869234
C10_95 C 0.2421(3) 0.4098(3) 0.8704(3)
C11_95 C 0.2621(3) 0.4271(3) 0.8489(3)
H8_95 H 0.275647 0.443072 0.857483
C12_95 C 0.2437(3) 0.4153(3) 0.9062(3)
O7_95 O 0.2446(3) 0.4534(4) 0.7541(3)
O8_95 O 0.3340(3) 0.4240(2) 0.8140(2)
O9_95 O 0.2480(3) 0.4903(3) 0.8072(3)
H9_95 H 0.253072 0.497254 0.829798
H10_95 H 0.229301 0.47497 0.807489
H11_83 H 0.23841 0.4735 0.742165
H12_95 H 0.22738 0.447946 0.770177
H13_95 H 0.34778 0.411703 0.798391
H14_95 H 0.320601 0.408513 0.82686
O5_96 O 0.8072(2) 0.0857(2) 0.2499(2)
N1_96 N 0.8098(4) 0.1802(4) 0.2870(4)
N2_96 N 0.7630(3) 0.0779(3) 0.1825(2)
C1_96 C 0.8383(5) 0.1877(4) 0.3048(4)
H1_96 H 0.841525 0.209201 0.311122
C2_96 C 0.8604(4) 0.1662(3) 0.3130(4)
H2_96 H 0.877997 0.172184 0.325844
C3_96 C 0.8573(4) 0.1361(3) 0.3027(3)
H3_96 H 0.873567 0.121135 0.307670
C4_96 C 0.8301(3) 0.1259(3) 0.2844(3)
C5_96 C 0.8064(4) 0.1485(3) 0.2764(4)
H4_96 H 0.788369 0.142371 0.264035
C6_96 C 0.8285(3) 0.0924(3) 0.2712(3)
C7_96 C 0.7433(4) 0.1006(4) 0.1956(3)
H5_96 H 0.743465 0.104024 0.217958
C8_96 C 0.7231(5) 0.1188(4) 0.1762(4)
H6_96 H 0.710269 0.135047 0.185373
C9_96 C 0.7217(4) 0.1132(4) 0.1436(3)
H7_96 H 0.707082 0.124773 0.130766
C10_96 C 0.7421(3) 0.0902(3) 0.1296(3)
C11_96 C 0.7621(3) 0.0729(3) 0.1511(3)
H8_96 H 0.775647 0.056928 0.142517
C12_96 C 0.7437(3) 0.0847(3) 0.0938(3)
O7_96 O 0.7446(3) 0.0466(4) 0.2459(3)
O8_96 O 0.8340(3) 0.0760(2) 0.1860(2)
O9_96 O 0.7480(3) 0.0097(3) 0.1928(3)
H9_96 H 0.753072 0.00274609 0.170202
H10_96 H 0.729301 0.0250298 0.192511
H11_84 H 0.73841 0.0265003 0.257835
H12_96 H 0.72738 0.0520545 0.229823
H13_96 H 0.84778 0.0882974 0.201609
H14_96 H 0.820601 0.091487 0.17314
H11_85 H 0.00783497 0.2235 0.01159
H11_86 H 0.01159 0.00783497 0.2235
H11_87 H 0.2235 0.01159 0.00783497
H11_88 H 0.992165 0.2765 0.01159
H11_89 H 0.01159 0.992165 0.2765
H11_90 H 0.2765 0.01159 0.992165
H11_91 H 0.992165 0.7765 0.98841
H11_92 H 0.98841 0.992165 0.7765
H11_93 H 0.7765 0.98841 0.992165
H11_94 H 0.00783497 0.7235 0.98841
H11_95 H 0.98841 0.00783497 0.7235
H11_96 H 0.7235 0.98841 0.00783497
loop_
_geom_bond_atom_site_label_1
_geom_bond_atom_site_label_2
_geom_bond_site_symmetry_1
_geom_bond_site_symmetry_2
Er1 O1 1_555 1_555
Cr1 O1 1_555 1_555
O1 Cr2 1_555 1_555
O2 C6 1_555 1_555
O4 Er1 1_555 1_555
O5 Er1 1_555 1_555
N1 C1 1_555 1_555
N2 Er1 1_555 1_555
C1 H1 1_555 1_555
C2 C1 1_555 1_555
H2 C2 1_555 1_555
C3 C2 1_555 1_555
H3 C3 1_555 1_555
C4 C3 1_555 1_555
C5 N1 1_555 1_555
H4 C5 1_555 1_555
C6 O5 1_555 1_555
C11 N2 1_555 1_555
H8 C11 1_555 1_555
O8 Er1 1_555 1_555
Er2 O4 1_555 1_555
Er3 O6 1_555 1_555
Cr2 O2 1_555 1_555
Cr4 O1 1_555 1_555
O10 Cr1 1_555 1_555
O11 Cr1 1_555 1_555
O12 Cr1 1_555 1_555
O13 Cr1 1_555 1_555
O14 Er1 1_555 1_555
O15 Er1 1_555 1_555
Cr1 O4 1_555 1_555
C4 C5 1_555 1_555
C4 C6 1_555 1_555
Er2 O10 1_555 1_555
Er2 O14 1_555 1_555
Cr2 O10 1_555 1_555
Cr2 O14 1_555 1_555
Cr4 O11 1_555 1_555
O8 H13 1_555 1_555
O8 H14 1_555 1_555
O3 C12 1_555 1_555
H5 C7 1_555 1_555
C8 C7 1_555 1_555
H6 C8 1_555 1_555
C9 C8 1_555 1_555
H7 C9 1_555 1_555
C10 C9 1_555 1_555
C12 C10 1_555 1_555
Cr3 O3 1_555 1_555
O9 H10 1_555 1_555
O7 H11 1_555 1_555
O7 H12 1_555 1_555
Er1_2 O1_2 1_555 1_555
Cr1_2 O1_2 1_555 1_555
O3_2 C12_2 1_555 1_555
O4_2 Er1_2 1_555 1_555
O5_2 Er1_2 1_555 1_555
O6_2 C12_2 1_555 1_555
N2_2 Er1_2 1_555 1_555
C7_2 N2_2 1_555 1_555
H5_2 C7_2 1_555 1_555
C8_2 C7_2 1_555 1_555
H6_2 C8_2 1_555 1_555
C9_2 C8_2 1_555 1_555
H7_2 C9_2 1_555 1_555
C10_2 C9_2 1_555 1_555
C11_2 N2_2 1_555 1_555
H8_2 C11_2 1_555 1_555
C12_2 C10_2 1_555 1_555
O7_2 Er1_2 1_555 1_555
O8_2 Er1_2 1_555 1_555
O9_2 Er1_2 1_555 1_555
Er3_2 O6_2 1_555 1_555
Cr3_2 O3_2 1_555 1_555
Cr4_2 O1_2 1_555 1_555
O11_2 Cr1_2 1_555 1_555
O12_2 Cr1_2 1_555 1_555
O13_2 Cr1_2 1_555 1_555
O15_2 Er1_2 1_555 1_555
Cr1_2 O4_2 1_555 1_555
C10_2 C11_2 1_555 1_555
Cr4_2 O11_2 1_555 1_555
O9_2 H9_2 1_555 1_555
O9_2 H10_2 1_555 1_555
O7_2 H12_2 1_555 1_555
O8_2 H13_2 1_555 1_555
O8_2 H14_2 1_555 1_555
O2_2 C6_2 1_555 1_555
N1_2 C1_2 1_555 1_555
C1_2 H1_2 1_555 1_555
C2_2 C1_2 1_555 1_555
H2_2 C2_2 1_555 1_555
C3_2 C2_2 1_555 1_555
H3_2 C3_2 1_555 1_555
C4_2 C3_2 1_555 1_555
C5_2 N1_2 1_555 1_555
H4_2 C5_2 1_555 1_555
Cr2_2 O2_2 1_555 1_555
C4_2 C5_2 1_555 1_555
C4_2 C6_2 1_555 1_555
Er2_2 O10_2 1_555 1_555
Er2_2 O14_2 1_555 1_555
Cr2_2 O10_2 1_555 1_555
Cr2_2 O14_2 1_555 1_555
Er1_3 O1_3 1_555 1_555
Cr1_3 O1_3 1_555 1_555
O1_3 Cr2_3 1_555 1_555
O2_3 C6_3 1_555 1_555
O3_3 C12_3 1_555 1_555
O4_3 Er1_3 1_555 1_555
O5_3 Er1_3 1_555 1_555
O6_3 C12_3 1_555 1_555
N1_3 C1_3 1_555 1_555
N2_3 Er1_3 1_555 1_555
C1_3 H1_3 1_555 1_555
C2_3 C1_3 1_555 1_555
H2_3 C2_3 1_555 1_555
C3_3 C2_3 1_555 1_555
H3_3 C3_3 1_555 1_555
C4_3 C3_3 1_555 1_555
C5_3 N1_3 1_555 1_555
H4_3 C5_3 1_555 1_555
C6_3 O5_3 1_555 1_555
C7_3 N2_3 1_555 1_555
H5_3 C7_3 1_555 1_555
C8_3 C7_3 1_555 1_555
H6_3 C8_3 1_555 1_555
C9_3 C8_3 1_555 1_555
H7_3 C9_3 1_555 1_555
C10_3 C9_3 1_555 1_555
C11_3 N2_3 1_555 1_555
H8_3 C11_3 1_555 1_555
C12_3 C10_3 1_555 1_555
O7_3 Er1_3 1_555 1_555
O8_3 Er1_3 1_555 1_555
O9_3 Er1_3 1_555 1_555
Er2_3 O4_3 1_555 1_555
Er3_3 O6_3 1_555 1_555
Cr2_3 O2_3 1_555 1_555
Cr3_3 O3_3 1_555 1_555
Cr4_3 O1_3 1_555 1_555
O10_3 Cr1_3 1_555 1_555
O11_3 Cr1_3 1_555 1_555
O12_3 Cr1_3 1_555 1_555
O13_3 Cr1_3 1_555 1_555
O14_3 Er1_3 1_555 1_555
O15_3 Er1_3 1_555 1_555
Cr1_3 O4_3 1_555 1_555
C4_3 C5_3 1_555 1_555
C4_3 C6_3 1_555 1_555
C10_3 C11_3 1_555 1_555
Er2_3 O10_3 1_555 1_555
Er2_3 O14_3 1_555 1_555
Cr2_3 O10_3 1_555 1_555
Cr2_3 O14_3 1_555 1_555
Cr4_3 O11_3 1_555 1_555
O9_3 H9_3 1_555 1_555
O9_3 H10_3 1_555 1_555
O7_3 H11_3 1_555 1_555
O7_3 H12_3 1_555 1_555
O8_3 H13_3 1_555 1_555
O8_3 H14_3 1_555 1_555
O2_4 C6_4 1_555 1_555
N1_4 C1_4 1_555 1_555
C1_4 H1_4 1_555 1_555
C2_4 C1_4 1_555 1_555
H2_4 C2_4 1_555 1_555
C3_4 C2_4 1_555 1_555
H3_4 C3_4 1_555 1_555
C4_4 C3_4 1_555 1_555
C5_4 N1_4 1_555 1_555
H4_4 C5_4 1_555 1_555
Cr2_4 O2_4 1_555 1_555
C4_4 C5_4 1_555 1_555
C4_4 C6_4 1_555 1_555
Er2_4 O10_4 1_555 1_555
Er2_4 O14_4 1_555 1_555
Cr2_4 O10_4 1_555 1_555
Cr2_4 O14_4 1_555 1_555
O3_4 C12_4 1_555 1_555
H5_4 C7_4 1_555 1_555
C8_4 C7_4 1_555 1_555
H6_4 C8_4 1_555 1_555
C9_4 C8_4 1_555 1_555
H7_4 C9_4 1_555 1_555
C10_4 C9_4 1_555 1_555
C12_4 C10_4 1_555 1_555
Cr3_4 O3_4 1_555 1_555
O9_4 H10_4 1_555 1_555
O7_4 H12_4 1_555 1_555
Er1_4 O1_4 1_555 1_555
Cr1_4 O1_4 1_555 1_555
O4_4 Er1_4 1_555 1_555
O5_4 Er1_4 1_555 1_555
N2_4 Er1_4 1_555 1_555
C11_4 N2_4 1_555 1_555
H8_4 C11_4 1_555 1_555
O8_4 Er1_4 1_555 1_555
Er3_4 O6_4 1_555 1_555
Cr4_4 O1_4 1_555 1_555
O11_4 Cr1_4 1_555 1_555
O12_4 Cr1_4 1_555 1_555
O13_4 Cr1_4 1_555 1_555
O15_4 Er1_4 1_555 1_555
Cr1_4 O4_4 1_555 1_555
Cr4_4 O11_4 1_555 1_555
O8_4 H13_4 1_555 1_555
O8_4 H14_4 1_555 1_555
Er1_5 O1_5 1_555 1_555
Cr1_5 O1_5 1_555 1_555
O1_5 Cr2_5 1_555 1_555
O2_5 C6_5 1_555 1_555
O4_5 Er1_5 1_555 1_555
O5_5 Er1_5 1_555 1_555
N1_5 C1_5 1_555 1_555
N2_5 Er1_5 1_555 1_555
C1_5 H1_5 1_555 1_555
C2_5 C1_5 1_555 1_555
H2_5 C2_5 1_555 1_555
C3_5 C2_5 1_555 1_555
H3_5 C3_5 1_555 1_555
C4_5 C3_5 1_555 1_555
C5_5 N1_5 1_555 1_555
H4_5 C5_5 1_555 1_555
C6_5 O5_5 1_555 1_555
C11_5 N2_5 1_555 1_555
H8_5 C11_5 1_555 1_555
O8_5 Er1_5 1_555 1_555
Er2_5 O4_5 1_555 1_555
Er3_5 O6_5 1_555 1_555
Cr2_5 O2_5 1_555 1_555
Cr4_5 O1_5 1_555 1_555
O10_5 Cr1_5 1_555 1_555
O11_5 Cr1_5 1_555 1_555
O12_5 Cr1_5 1_555 1_555
O13_5 Cr1_5 1_555 1_555
O14_5 Er1_5 1_555 1_555
O15_5 Er1_5 1_555 1_555
Cr1_5 O4_5 1_555 1_555
C4_5 C5_5 1_555 1_555
C4_5 C6_5 1_555 1_555
Er2_5 O10_5 1_555 1_555
Er2_5 O14_5 1_555 1_555
Cr2_5 O10_5 1_555 1_555
Cr2_5 O14_5 1_555 1_555
Cr4_5 O11_5 1_555 1_555
O8_5 H13_5 1_555 1_555
O8_5 H14_5 1_555 1_555
O3_5 C12_5 1_555 1_555
H5_5 C7_5 1_555 1_555
C8_5 C7_5 1_555 1_555
H6_5 C8_5 1_555 1_555
C9_5 C8_5 1_555 1_555
H7_5 C9_5 1_555 1_555
C10_5 C9_5 1_555 1_555
C12_5 C10_5 1_555 1_555
Cr3_5 O3_5 1_555 1_555
O9_5 H10_5 1_555 1_555
O7_5 H11_4 1_555 1_555
O7_5 H12_5 1_555 1_555
Er1_6 O1_6 1_555 1_555
Cr1_6 O1_6 1_555 1_555
O3_6 C12_6 1_555 1_555
O4_6 Er1_6 1_555 1_555
O5_6 Er1_6 1_555 1_555
O6_6 C12_6 1_555 1_555
N2_6 Er1_6 1_555 1_555
C7_6 N2_6 1_555 1_555
H5_6 C7_6 1_555 1_555
C8_6 C7_6 1_555 1_555
H6_6 C8_6 1_555 1_555
C9_6 C8_6 1_555 1_555
H7_6 C9_6 1_555 1_555
C10_6 C9_6 1_555 1_555
C11_6 N2_6 1_555 1_555
H8_6 C11_6 1_555 1_555
C12_6 C10_6 1_555 1_555
O7_6 Er1_6 1_555 1_555
O8_6 Er1_6 1_555 1_555
O9_6 Er1_6 1_555 1_555
Er3_6 O6_6 1_555 1_555
Cr3_6 O3_6 1_555 1_555
Cr4_6 O1_6 1_555 1_555
O11_6 Cr1_6 1_555 1_555
O12_6 Cr1_6 1_555 1_555
O13_6 Cr1_6 1_555 1_555
O15_6 Er1_6 1_555 1_555
Cr1_6 O4_6 1_555 1_555
C10_6 C11_6 1_555 1_555
Cr4_6 O11_6 1_555 1_555
O9_6 H9_6 1_555 1_555
O9_6 H10_6 1_555 1_555
O7_6 H12_6 1_555 1_555
O8_6 H13_6 1_555 1_555
O8_6 H14_6 1_555 1_555
O2_6 C6_6 1_555 1_555
N1_6 C1_6 1_555 1_555
C1_6 H1_6 1_555 1_555
C2_6 C1_6 1_555 1_555
H2_6 C2_6 1_555 1_555
C3_6 C2_6 1_555 1_555
H3_6 C3_6 1_555 1_555
C4_6 C3_6 1_555 1_555
C5_6 N1_6 1_555 1_555
H4_6 C5_6 1_555 1_555
Cr2_6 O2_6 1_555 1_555
C4_6 C5_6 1_555 1_555
C4_6 C6_6 1_555 1_555
Er2_6 O10_6 1_555 1_555
Er2_6 O14_6 1_555 1_555
Cr2_6 O10_6 1_555 1_555
Cr2_6 O14_6 1_555 1_555
Er1_7 O1_7 1_555 1_555
Cr1_7 O1_7 1_555 1_555
O1_7 Cr2_7 1_555 1_555
O2_7 C6_7 1_555 1_555
O3_7 C12_7 1_555 1_555
O4_7 Er1_7 1_555 1_555
O5_7 Er1_7 1_555 1_555
O6_7 C12_7 1_555 1_555
N1_7 C1_7 1_555 1_555
N2_7 Er1_7 1_555 1_555
C1_7 H1_7 1_555 1_555
C2_7 C1_7 1_555 1_555
H2_7 C2_7 1_555 1_555
C3_7 C2_7 1_555 1_555
H3_7 C3_7 1_555 1_555
C4_7 C3_7 1_555 1_555
C5_7 N1_7 1_555 1_555
H4_7 C5_7 1_555 1_555
C6_7 O5_7 1_555 1_555
C7_7 N2_7 1_555 1_555
H5_7 C7_7 1_555 1_555
C8_7 C7_7 1_555 1_555
H6_7 C8_7 1_555 1_555
C9_7 C8_7 1_555 1_555
H7_7 C9_7 1_555 1_555
C10_7 C9_7 1_555 1_555
C11_7 N2_7 1_555 1_555
H8_7 C11_7 1_555 1_555
C12_7 C10_7 1_555 1_555
O7_7 Er1_7 1_555 1_555
O8_7 Er1_7 1_555 1_555
O9_7 Er1_7 1_555 1_555
Er2_7 O4_7 1_555 1_555
Er3_7 O6_7 1_555 1_555
Cr2_7 O2_7 1_555 1_555
Cr3_7 O3_7 1_555 1_555
Cr4_7 O1_7 1_555 1_555
O10_7 Cr1_7 1_555 1_555
O11_7 Cr1_7 1_555 1_555
O12_7 Cr1_7 1_555 1_555
O13_7 Cr1_7 1_555 1_555
O14_7 Er1_7 1_555 1_555
O15_7 Er1_7 1_555 1_555
Cr1_7 O4_7 1_555 1_555
C4_7 C5_7 1_555 1_555
C4_7 C6_7 1_555 1_555
C10_7 C11_7 1_555 1_555
Er2_7 O10_7 1_555 1_555
Er2_7 O14_7 1_555 1_555
Cr2_7 O10_7 1_555 1_555
Cr2_7 O14_7 1_555 1_555
Cr4_7 O11_7 1_555 1_555
O9_7 H9_7 1_555 1_555
O9_7 H10_7 1_555 1_555
O7_7 H11_6 1_555 1_555
O7_7 H12_7 1_555 1_555
O8_7 H13_7 1_555 1_555
O8_7 H14_7 1_555 1_555
O3_8 C12_8 1_555 1_555
H5_8 C7_8 1_555 1_555
C8_8 C7_8 1_555 1_555
H6_8 C8_8 1_555 1_555
C9_8 C8_8 1_555 1_555
H7_8 C9_8 1_555 1_555
C10_8 C9_8 1_555 1_555
C12_8 C10_8 1_555 1_555
Cr3_8 O3_8 1_555 1_555
O9_8 H10_8 1_555 1_555
O7_8 H12_8 1_555 1_555
O2_8 C6_8 1_555 1_555
N1_8 C1_8 1_555 1_555
C1_8 H1_8 1_555 1_555
C2_8 C1_8 1_555 1_555
H2_8 C2_8 1_555 1_555
C3_8 C2_8 1_555 1_555
H3_8 C3_8 1_555 1_555
C4_8 C3_8 1_555 1_555
C5_8 N1_8 1_555 1_555
H4_8 C5_8 1_555 1_555
Cr2_8 O2_8 1_555 1_555
C4_8 C5_8 1_555 1_555
C4_8 C6_8 1_555 1_555
Er2_8 O10_8 1_555 1_555
Er2_8 O14_8 1_555 1_555
Cr2_8 O10_8 1_555 1_555
Cr2_8 O14_8 1_555 1_555
Er1_8 O1_8 1_555 1_555
Cr1_8 O1_8 1_555 1_555
O4_8 Er1_8 1_555 1_555
O5_8 Er1_8 1_555 1_555
N2_8 Er1_8 1_555 1_555
C11_8 N2_8 1_555 1_555
H8_8 C11_8 1_555 1_555
O8_8 Er1_8 1_555 1_555
Er3_8 O6_8 1_555 1_555
Cr4_8 O1_8 1_555 1_555
O11_8 Cr1_8 1_555 1_555
O12_8 Cr1_8 1_555 1_555
O13_8 Cr1_8 1_555 1_555
O15_8 Er1_8 1_555 1_555
Cr1_8 O4_8 1_555 1_555
Cr4_8 O11_8 1_555 1_555
O8_8 H13_8 1_555 1_555
O8_8 H14_8 1_555 1_555
Er1_9 O1_9 1_555 1_555
Cr1_9 O1_9 1_555 1_555
O1_9 Cr2_9 1_555 1_555
O2_9 C6_9 1_555 1_555
O4_9 Er1_9 1_555 1_555
O5_9 Er1_9 1_555 1_555
N1_9 C1_9 1_555 1_555
N2_9 Er1_9 1_555 1_555
C1_9 H1_9 1_555 1_555
C2_9 C1_9 1_555 1_555
H2_9 C2_9 1_555 1_555
C3_9 C2_9 1_555 1_555
H3_9 C3_9 1_555 1_555
C4_9 C3_9 1_555 1_555
C5_9 N1_9 1_555 1_555
H4_9 C5_9 1_555 1_555
C6_9 O5_9 1_555 1_555
C11_9 N2_9 1_555 1_555
H8_9 C11_9 1_555 1_555
O8_9 Er1_9 1_555 1_555
Er2_9 O4_9 1_555 1_555
Er3_9 O6_9 1_555 1_555
Cr2_9 O2_9 1_555 1_555
Cr4_9 O1_9 1_555 1_555
O10_9 Cr1_9 1_555 1_555
O11_9 Cr1_9 1_555 1_555
O12_9 Cr1_9 1_555 1_555
O13_9 Cr1_9 1_555 1_555
O14_9 Er1_9 1_555 1_555
O15_9 Er1_9 1_555 1_555
Cr1_9 O4_9 1_555 1_555
C4_9 C5_9 1_555 1_555
C4_9 C6_9 1_555 1_555
Er2_9 O10_9 1_555 1_555
Er2_9 O14_9 1_555 1_555
Cr2_9 O10_9 1_555 1_555
Cr2_9 O14_9 1_555 1_555
Cr4_9 O11_9 1_555 1_555
O8_9 H13_9 1_555 1_555
O8_9 H14_9 1_555 1_555
O3_9 C12_9 1_555 1_555
H5_9 C7_9 1_555 1_555
C8_9 C7_9 1_555 1_555
H6_9 C8_9 1_555 1_555
C9_9 C8_9 1_555 1_555
H7_9 C9_9 1_555 1_555
C10_9 C9_9 1_555 1_555
C12_9 C10_9 1_555 1_555
Cr3_9 O3_9 1_555 1_555
O9_9 H10_9 1_555 1_555
O7_9 H11_7 1_555 1_555
O7_9 H12_9 1_555 1_555
Er1_10 O1_10 1_555 1_555
Cr1_10 O1_10 1_555 1_555
O3_10 C12_10 1_555 1_555
O4_10 Er1_10 1_555 1_555
O5_10 Er1_10 1_555 1_555
O6_10 C12_10 1_555 1_555
N2_10 Er1_10 1_555 1_555
C7_10 N2_10 1_555 1_555
H5_10 C7_10 1_555 1_555
C8_10 C7_10 1_555 1_555
H6_10 C8_10 1_555 1_555
C9_10 C8_10 1_555 1_555
H7_10 C9_10 1_555 1_555
C10_10 C9_10 1_555 1_555
C11_10 N2_10 1_555 1_555
H8_10 C11_10 1_555 1_555
C12_10 C10_10 1_555 1_555
O7_10 Er1_10 1_555 1_555
O8_10 Er1_10 1_555 1_555
O9_10 Er1_10 1_555 1_555
Er3_10 O6_10 1_555 1_555
Cr3_10 O3_10 1_555 1_555
Cr4_10 O1_10 1_555 1_555
O11_10 Cr1_10 1_555 1_555
O12_10 Cr1_10 1_555 1_555
O13_10 Cr1_10 1_555 1_555
O15_10 Er1_10 1_555 1_555
Cr1_10 O4_10 1_555 1_555
C10_10 C11_10 1_555 1_555
Cr4_10 O11_10 1_555 1_555
O9_10 H9_10 1_555 1_555
O9_10 H10_10 1_555 1_555
O7_10 H12_10 1_555 1_555
O8_10 H13_10 1_555 1_555
O8_10 H14_10 1_555 1_555
O2_10 C6_10 1_555 1_555
N1_10 C1_10 1_555 1_555
C1_10 H1_10 1_555 1_555
C2_10 C1_10 1_555 1_555
H2_10 C2_10 1_555 1_555
C3_10 C2_10 1_555 1_555
H3_10 C3_10 1_555 1_555
C4_10 C3_10 1_555 1_555
C5_10 N1_10 1_555 1_555
H4_10 C5_10 1_555 1_555
Cr2_10 O2_10 1_555 1_555
C4_10 C5_10 1_555 1_555
C4_10 C6_10 1_555 1_555
Er2_10 O10_10 1_555 1_555
Er2_10 O14_10 1_555 1_555
Cr2_10 O10_10 1_555 1_555
Cr2_10 O14_10 1_555 1_555
Er1_11 O1_11 1_555 1_555
Cr1_11 O1_11 1_555 1_555
O1_11 Cr2_11 1_555 1_555
O2_11 C6_11 1_555 1_555
O3_11 C12_11 1_555 1_555
O4_11 Er1_11 1_555 1_555
O5_11 Er1_11 1_555 1_555
O6_11 C12_11 1_555 1_555
N1_11 C1_11 1_555 1_555
N2_11 Er1_11 1_555 1_555
C1_11 H1_11 1_555 1_555
C2_11 C1_11 1_555 1_555
H2_11 C2_11 1_555 1_555
C3_11 C2_11 1_555 1_555
H3_11 C3_11 1_555 1_555
C4_11 C3_11 1_555 1_555
C5_11 N1_11 1_555 1_555
H4_11 C5_11 1_555 1_555
C6_11 O5_11 1_555 1_555
C7_11 N2_11 1_555 1_555
H5_11 C7_11 1_555 1_555
C8_11 C7_11 1_555 1_555
H6_11 C8_11 1_555 1_555
C9_11 C8_11 1_555 1_555
H7_11 C9_11 1_555 1_555
C10_11 C9_11 1_555 1_555
C11_11 N2_11 1_555 1_555
H8_11 C11_11 1_555 1_555
C12_11 C10_11 1_555 1_555
O7_11 Er1_11 1_555 1_555
O8_11 Er1_11 1_555 1_555
O9_11 Er1_11 1_555 1_555
Er2_11 O4_11 1_555 1_555
Er3_11 O6_11 1_555 1_555
Cr2_11 O2_11 1_555 1_555
Cr3_11 O3_11 1_555 1_555
Cr4_11 O1_11 1_555 1_555
O10_11 Cr1_11 1_555 1_555
O11_11 Cr1_11 1_555 1_555
O12_11 Cr1_11 1_555 1_555
O13_11 Cr1_11 1_555 1_555
O14_11 Er1_11 1_555 1_555
O15_11 Er1_11 1_555 1_555
Cr1_11 O4_11 1_555 1_555
C4_11 C5_11 1_555 1_555
C4_11 C6_11 1_555 1_555
C10_11 C11_11 1_555 1_555
Er2_11 O10_11 1_555 1_555
Er2_11 O14_11 1_555 1_555
Cr2_11 O10_11 1_555 1_555
Cr2_11 O14_11 1_555 1_555
Cr4_11 O11_11 1_555 1_555
O9_11 H9_11 1_555 1_555
O9_11 H10_11 1_555 1_555
O7_11 H11_9 1_555 1_555
O7_11 H12_11 1_555 1_555
O8_11 H13_11 1_555 1_555
O8_11 H14_11 1_555 1_555
O3_12 C12_12 1_555 1_555
H5_12 C7_12 1_555 1_555
C8_12 C7_12 1_555 1_555
H6_12 C8_12 1_555 1_555
C9_12 C8_12 1_555 1_555
H7_12 C9_12 1_555 1_555
C10_12 C9_12 1_555 1_555
C12_12 C10_12 1_555 1_555
Cr3_12 O3_12 1_555 1_555
O9_12 H10_12 1_555 1_555
O7_12 H12_12 1_555 1_555
O2_12 C6_12 1_555 1_555
N1_12 C1_12 1_555 1_555
C1_12 H1_12 1_555 1_555
C2_12 C1_12 1_555 1_555
H2_12 C2_12 1_555 1_555
C3_12 C2_12 1_555 1_555
H3_12 C3_12 1_555 1_555
C4_12 C3_12 1_555 1_555
C5_12 N1_12 1_555 1_555
H4_12 C5_12 1_555 1_555
Cr2_12 O2_12 1_555 1_555
C4_12 C5_12 1_555 1_555
C4_12 C6_12 1_555 1_555
Er2_12 O10_12 1_555 1_555
Er2_12 O14_12 1_555 1_555
Cr2_12 O10_12 1_555 1_555
Cr2_12 O14_12 1_555 1_555
Er1_12 O1_12 1_555 1_555
Cr1_12 O1_12 1_555 1_555
O4_12 Er1_12 1_555 1_555
O5_12 Er1_12 1_555 1_555
N2_12 Er1_12 1_555 1_555
C11_12 N2_12 1_555 1_555
H8_12 C11_12 1_555 1_555
O8_12 Er1_12 1_555 1_555
Er3_12 O6_12 1_555 1_555
Cr4_12 O1_12 1_555 1_555
O11_12 Cr1_12 1_555 1_555
O12_12 Cr1_12 1_555 1_555
O13_12 Cr1_12 1_555 1_555
O15_12 Er1_12 1_555 1_555
Cr1_12 O4_12 1_555 1_555
Cr4_12 O11_12 1_555 1_555
O8_12 H13_12 1_555 1_555
O8_12 H14_12 1_555 1_555
Er1_13 O1_13 1_555 1_555
O1_13 Cr3_8 1_555 1_555
O2_13 C6_13 1_555 1_555
O3_13 C12_13 1_555 1_555
O5_13 Er1_13 1_555 1_555
O6_13 C12_13 1_555 1_555
N1_13 C1_13 1_555 1_555
N2_13 Er1_13 1_555 1_555
C1_13 H1_13 1_555 1_555
C2_13 C1_13 1_555 1_555
H2_13 C2_13 1_555 1_555
C3_13 C2_13 1_555 1_555
H3_13 C3_13 1_555 1_555
C4_13 C3_13 1_555 1_555
C5_13 N1_13 1_555 1_555
H4_13 C5_13 1_555 1_555
C6_13 O5_13 1_555 1_555
C7_13 N2_13 1_555 1_555
H5_13 C7_13 1_555 1_555
C8_13 C7_13 1_555 1_555
H6_13 C8_13 1_555 1_555
C9_13 C8_13 1_555 1_555
H7_13 C9_13 1_555 1_555
C10_13 C9_13 1_555 1_555
C11_13 N2_13 1_555 1_555
H8_13 C11_13 1_555 1_555
C12_13 C10_13 1_555 1_555
O7_13 Er1_13 1_555 1_555
O8_13 Er1_13 1_555 1_555
O9_13 Er1_13 1_555 1_555
Er2_5 O6_13 1_555 1_555
Cr3_8 O2_13 1_555 1_555
Cr2_5 O3_13 1_555 1_555
Cr4_13 O1_13 1_555 1_555
O14_13 Er1_13 1_555 1_555
O15_13 Er1_13 1_555 1_555
C4_13 C5_13 1_555 1_555
C4_13 C6_13 1_555 1_555
C10_13 C11_13 1_555 1_555
Cr3_8 O14_13 1_555 1_555
O9_13 H9_13 1_555 1_555
O9_13 H10_13 1_555 1_555
O7_13 H11_10 1_555 1_555
O7_13 H12_13 1_555 1_555
O8_13 H13_13 1_555 1_555
O8_13 H14_13 1_555 1_555
Er3_8 O4_13 1_555 1_555
O10_13 Cr1_13 1_555 1_555
O11_13 Cr1_13 1_555 1_555
O12_13 Cr1_13 1_555 1_555
O13_13 Cr1_13 1_555 1_555
Cr1_13 O4_13 1_555 1_555
Er3_8 O10_13 1_555 1_555
Er1_14 O1_14 1_555 1_555
Cr1_14 O1_14 1_555 1_555
O1_14 Cr3_6 1_555 1_555
O2_14 C6_14 1_555 1_555
O3_14 C12_14 1_555 1_555
O4_14 Er1_14 1_555 1_555
O5_14 Er1_14 1_555 1_555
O6_14 C12_14 1_555 1_555
N1_14 C1_14 1_555 1_555
N2_14 Er1_14 1_555 1_555
C1_14 H1_14 1_555 1_555
C2_14 C1_14 1_555 1_555
H2_14 C2_14 1_555 1_555
C3_14 C2_14 1_555 1_555
H3_14 C3_14 1_555 1_555
C4_14 C3_14 1_555 1_555
C5_14 N1_14 1_555 1_555
H4_14 C5_14 1_555 1_555
C6_14 O5_14 1_555 1_555
C7_14 N2_14 1_555 1_555
H5_14 C7_14 1_555 1_555
C8_14 C7_14 1_555 1_555
H6_14 C8_14 1_555 1_555
C9_14 C8_14 1_555 1_555
H7_14 C9_14 1_555 1_555
C10_14 C9_14 1_555 1_555
C11_14 N2_14 1_555 1_555
H8_14 C11_14 1_555 1_555
C12_14 C10_14 1_555 1_555
O7_14 Er1_14 1_555 1_555
O8_14 Er1_14 1_555 1_555
O9_14 Er1_14 1_555 1_555
Er3_6 O4_14 1_555 1_555
Er2_7 O6_14 1_555 1_555
Cr3_6 O2_14 1_555 1_555
Cr2_7 O3_14 1_555 1_555
Cr4_14 O1_14 1_555 1_555
O10_14 Cr1_14 1_555 1_555
O11_14 Cr1_14 1_555 1_555
O12_14 Cr1_14 1_555 1_555
O13_14 Cr1_14 1_555 1_555
O14_14 Er1_14 1_555 1_555
O15_14 Er1_14 1_555 1_555
Cr1_14 O4_14 1_555 1_555
C4_14 C5_14 1_555 1_555
C4_14 C6_14 1_555 1_555
C10_14 C11_14 1_555 1_555
Er3_6 O10_14 1_555 1_555
Er3_6 O14_14 1_555 1_555
Cr3_6 O10_14 1_555 1_555
Cr3_6 O14_14 1_555 1_555
Cr4_14 O11_14 1_555 1_555
O9_14 H9_14 1_555 1_555
O9_14 H10_14 1_555 1_555
O7_14 H11_11 1_555 1_555
O7_14 H12_14 1_555 1_555
O8_14 H13_14 1_555 1_555
O8_14 H14_14 1_555 1_555
Er1_15 O1_15 1_555 1_555
Cr1_15 O1_15 1_555 1_555
O1_15 Cr3_7 1_555 1_555
O2_15 C6_15 1_555 1_555
O3_15 C12_15 1_555 1_555
O4_15 Er1_15 1_555 1_555
O5_15 Er1_15 1_555 1_555
O6_15 C12_15 1_555 1_555
N1_15 C1_15 1_555 1_555
N2_15 Er1_15 1_555 1_555
C1_15 H1_15 1_555 1_555
C2_15 C1_15 1_555 1_555
H2_15 C2_15 1_555 1_555
C3_15 C2_15 1_555 1_555
H3_15 C3_15 1_555 1_555
C4_15 C3_15 1_555 1_555
C5_15 N1_15 1_555 1_555
H4_15 C5_15 1_555 1_555
C6_15 O5_15 1_555 1_555
C7_15 N2_15 1_555 1_555
H5_15 C7_15 1_555 1_555
C8_15 C7_15 1_555 1_555
H6_15 C8_15 1_555 1_555
C9_15 C8_15 1_555 1_555
H7_15 C9_15 1_555 1_555
C10_15 C9_15 1_555 1_555
C11_15 N2_15 1_555 1_555
H8_15 C11_15 1_555 1_555
C12_15 C10_15 1_555 1_555
O7_15 Er1_15 1_555 1_555
O8_15 Er1_15 1_555 1_555
O9_15 Er1_15 1_555 1_555
Er3_7 O4_15 1_555 1_555
Er2_6 O6_15 1_555 1_555
Cr3_7 O2_15 1_555 1_555
Cr2_6 O3_15 1_555 1_555
Cr4_15 O1_15 1_555 1_555
O10_15 Cr1_15 1_555 1_555
O11_15 Cr1_15 1_555 1_555
O12_15 Cr1_15 1_555 1_555
O13_15 Cr1_15 1_555 1_555
O14_15 Er1_15 1_555 1_555
O15_15 Er1_15 1_555 1_555
Cr1_15 O4_15 1_555 1_555
C4_15 C5_15 1_555 1_555
C4_15 C6_15 1_555 1_555
C10_15 C11_15 1_555 1_555
Er3_7 O10_15 1_555 1_555
Er3_7 O14_15 1_555 1_555
Cr3_7 O10_15 1_555 1_555
Cr3_7 O14_15 1_555 1_555
Cr4_15 O11_15 1_555 1_555
O9_15 H9_15 1_555 1_555
O9_15 H10_15 1_555 1_555
O7_15 H11_12 1_555 1_555
O7_15 H12_15 1_555 1_555
O8_15 H13_15 1_555 1_555
O8_15 H14_15 1_555 1_555
Er3_5 O4_16 1_555 1_555
O10_16 Cr1_16 1_555 1_555
O11_16 Cr1_16 1_555 1_555
O12_16 Cr1_16 1_555 1_555
O13_16 Cr1_16 1_555 1_555
Cr1_16 O4_16 1_555 1_555
Er3_5 O10_16 1_555 1_555
Er1_16 O1_16 1_555 1_555
O1_16 Cr3_5 1_555 1_555
O2_16 C6_16 1_555 1_555
O3_16 C12_16 1_555 1_555
O5_16 Er1_16 1_555 1_555
O6_16 C12_16 1_555 1_555
N1_16 C1_16 1_555 1_555
N2_16 Er1_16 1_555 1_555
C1_16 H1_16 1_555 1_555
C2_16 C1_16 1_555 1_555
H2_16 C2_16 1_555 1_555
C3_16 C2_16 1_555 1_555
H3_16 C3_16 1_555 1_555
C4_16 C3_16 1_555 1_555
C5_16 N1_16 1_555 1_555
H4_16 C5_16 1_555 1_555
C6_16 O5_16 1_555 1_555
C7_16 N2_16 1_555 1_555
H5_16 C7_16 1_555 1_555
C8_16 C7_16 1_555 1_555
H6_16 C8_16 1_555 1_555
C9_16 C8_16 1_555 1_555
H7_16 C9_16 1_555 1_555
C10_16 C9_16 1_555 1_555
C11_16 N2_16 1_555 1_555
H8_16 C11_16 1_555 1_555
C12_16 C10_16 1_555 1_555
O7_16 Er1_16 1_555 1_555
O8_16 Er1_16 1_555 1_555
O9_16 Er1_16 1_555 1_555
Er2_8 O6_16 1_555 1_555
Cr3_5 O2_16 1_555 1_555
Cr2_8 O3_16 1_555 1_555
Cr4_16 O1_16 1_555 1_555
O14_16 Er1_16 1_555 1_555
O15_16 Er1_16 1_555 1_555
C4_16 C5_16 1_555 1_555
C4_16 C6_16 1_555 1_555
C10_16 C11_16 1_555 1_555
Cr3_5 O14_16 1_555 1_555
O9_16 H9_16 1_555 1_555
O9_16 H10_16 1_555 1_555
O7_16 H11_13 1_555 1_555
O7_16 H12_16 1_555 1_555
O8_16 H13_16 1_555 1_555
O8_16 H14_16 1_555 1_555
Er3 O4_17 1_555 1_555
O10_17 Cr1_17 1_555 1_555
O11_17 Cr1_17 1_555 1_555
O12_17 Cr1_17 1_555 1_555
O13_17 Cr1_17 1_555 1_555
Cr1_17 O4_17 1_555 1_555
Er3 O10_17 1_555 1_555
Er1_17 O1_17 1_555 1_555
O1_17 Cr3 1_555 1_555
O2_17 C6_17 1_555 1_555
O3_17 C12_17 1_555 1_555
O5_17 Er1_17 1_555 1_555
O6_17 C12_17 1_555 1_555
N1_17 C1_17 1_555 1_555
N2_17 Er1_17 1_555 1_555
C1_17 H1_17 1_555 1_555
C2_17 C1_17 1_555 1_555
H2_17 C2_17 1_555 1_555
C3_17 C2_17 1_555 1_555
H3_17 C3_17 1_555 1_555
C4_17 C3_17 1_555 1_555
C5_17 N1_17 1_555 1_555
H4_17 C5_17 1_555 1_555
C6_17 O5_17 1_555 1_555
C7_17 N2_17 1_555 1_555
H5_17 C7_17 1_555 1_555
C8_17 C7_17 1_555 1_555
H6_17 C8_17 1_555 1_555
C9_17 C8_17 1_555 1_555
H7_17 C9_17 1_555 1_555
C10_17 C9_17 1_555 1_555
C11_17 N2_17 1_555 1_555
H8_17 C11_17 1_555 1_555
C12_17 C10_17 1_555 1_555
O7_17 Er1_17 1_555 1_555
O8_17 Er1_17 1_555 1_555
O9_17 Er1_17 1_555 1_555
Er2_4 O6_17 1_555 1_555
Cr3 O2_17 1_555 1_555
Cr2_4 O3_17 1_555 1_555
Cr4_17 O1_17 1_555 1_555
O14_17 Er1_17 1_555 1_555
O15_17 Er1_17 1_555 1_555
C4_17 C5_17 1_555 1_555
C4_17 C6_17 1_555 1_555
C10_17 C11_17 1_555 1_555
Cr3 O14_17 1_555 1_555
O9_17 H9_17 1_555 1_555
O9_17 H10_17 1_555 1_555
O7_17 H11_14 1_555 1_555
O7_17 H12_17 1_555 1_555
O8_17 H13_17 1_555 1_555
O8_17 H14_17 1_555 1_555
Er1_18 O1_18 1_555 1_555
Cr1_18 O1_18 1_555 1_555
O1_18 Cr3_3 1_555 1_555
O2_18 C6_18 1_555 1_555
O3_18 C12_18 1_555 1_555
O4_18 Er1_18 1_555 1_555
O5_18 Er1_18 1_555 1_555
O6_18 C12_18 1_555 1_555
N1_18 C1_18 1_555 1_555
N2_18 Er1_18 1_555 1_555
C1_18 H1_18 1_555 1_555
C2_18 C1_18 1_555 1_555
H2_18 C2_18 1_555 1_555
C3_18 C2_18 1_555 1_555
H3_18 C3_18 1_555 1_555
C4_18 C3_18 1_555 1_555
C5_18 N1_18 1_555 1_555
H4_18 C5_18 1_555 1_555
C6_18 O5_18 1_555 1_555
C7_18 N2_18 1_555 1_555
H5_18 C7_18 1_555 1_555
C8_18 C7_18 1_555 1_555
H6_18 C8_18 1_555 1_555
C9_18 C8_18 1_555 1_555
H7_18 C9_18 1_555 1_555
C10_18 C9_18 1_555 1_555
C11_18 N2_18 1_555 1_555
H8_18 C11_18 1_555 1_555
C12_18 C10_18 1_555 1_555
O7_18 Er1_18 1_555 1_555
O8_18 Er1_18 1_555 1_555
O9_18 Er1_18 1_555 1_555
Er3_3 O4_18 1_555 1_555
Er2_2 O6_18 1_555 1_555
Cr3_3 O2_18 1_555 1_555
Cr2_2 O3_18 1_555 1_555
Cr4_18 O1_18 1_555 1_555
O10_18 Cr1_18 1_555 1_555
O11_18 Cr1_18 1_555 1_555
O12_18 Cr1_18 1_555 1_555
O13_18 Cr1_18 1_555 1_555
O14_18 Er1_18 1_555 1_555
O15_18 Er1_18 1_555 1_555
Cr1_18 O4_18 1_555 1_555
C4_18 C5_18 1_555 1_555
C4_18 C6_18 1_555 1_555
C10_18 C11_18 1_555 1_555
Er3_3 O10_18 1_555 1_555
Er3_3 O14_18 1_555 1_555
Cr3_3 O10_18 1_555 1_555
Cr3_3 O14_18 1_555 1_555
Cr4_18 O11_18 1_555 1_555
O9_18 H9_18 1_555 1_555
O9_18 H10_18 1_555 1_555
O7_18 H11_15 1_555 1_555
O7_18 H12_18 1_555 1_555
O8_18 H13_18 1_555 1_555
O8_18 H14_18 1_555 1_555
Er1_19 O1_19 1_555 1_555
Cr1_19 O1_19 1_555 1_555
O1_19 Cr3_2 1_555 1_555
O2_19 C6_19 1_555 1_555
O3_19 C12_19 1_555 1_555
O4_19 Er1_19 1_555 1_555
O5_19 Er1_19 1_555 1_555
O6_19 C12_19 1_555 1_555
N1_19 C1_19 1_555 1_555
N2_19 Er1_19 1_555 1_555
C1_19 H1_19 1_555 1_555
C2_19 C1_19 1_555 1_555
H2_19 C2_19 1_555 1_555
C3_19 C2_19 1_555 1_555
H3_19 C3_19 1_555 1_555
C4_19 C3_19 1_555 1_555
C5_19 N1_19 1_555 1_555
H4_19 C5_19 1_555 1_555
C6_19 O5_19 1_555 1_555
C7_19 N2_19 1_555 1_555
H5_19 C7_19 1_555 1_555
C8_19 C7_19 1_555 1_555
H6_19 C8_19 1_555 1_555
C9_19 C8_19 1_555 1_555
H7_19 C9_19 1_555 1_555
C10_19 C9_19 1_555 1_555
C11_19 N2_19 1_555 1_555
H8_19 C11_19 1_555 1_555
C12_19 C10_19 1_555 1_555
O7_19 Er1_19 1_555 1_555
O8_19 Er1_19 1_555 1_555
O9_19 Er1_19 1_555 1_555
Er3_2 O4_19 1_555 1_555
Er2_3 O6_19 1_555 1_555
Cr3_2 O2_19 1_555 1_555
Cr2_3 O3_19 1_555 1_555
Cr4_19 O1_19 1_555 1_555
O10_19 Cr1_19 1_555 1_555
O11_19 Cr1_19 1_555 1_555
O12_19 Cr1_19 1_555 1_555
O13_19 Cr1_19 1_555 1_555
O14_19 Er1_19 1_555 1_555
O15_19 Er1_19 1_555 1_555
Cr1_19 O4_19 1_555 1_555
C4_19 C5_19 1_555 1_555
C4_19 C6_19 1_555 1_555
C10_19 C11_19 1_555 1_555
Er3_2 O10_19 1_555 1_555
Er3_2 O14_19 1_555 1_555
Cr3_2 O10_19 1_555 1_555
Cr3_2 O14_19 1_555 1_555
Cr4_19 O11_19 1_555 1_555
O9_19 H9_19 1_555 1_555
O9_19 H10_19 1_555 1_555
O7_19 H11_16 1_555 1_555
O7_19 H12_19 1_555 1_555
O8_19 H13_19 1_555 1_555
O8_19 H14_19 1_555 1_555
Er1_20 O1_20 1_555 1_555
O1_20 Cr3_4 1_555 1_555
O2_20 C6_20 1_555 1_555
O3_20 C12_20 1_555 1_555
O5_20 Er1_20 1_555 1_555
O6_20 C12_20 1_555 1_555
N1_20 C1_20 1_555 1_555
N2_20 Er1_20 1_555 1_555
C1_20 H1_20 1_555 1_555
C2_20 C1_20 1_555 1_555
H2_20 C2_20 1_555 1_555
C3_20 C2_20 1_555 1_555
H3_20 C3_20 1_555 1_555
C4_20 C3_20 1_555 1_555
C5_20 N1_20 1_555 1_555
H4_20 C5_20 1_555 1_555
C6_20 O5_20 1_555 1_555
C7_20 N2_20 1_555 1_555
H5_20 C7_20 1_555 1_555
C8_20 C7_20 1_555 1_555
H6_20 C8_20 1_555 1_555
C9_20 C8_20 1_555 1_555
H7_20 C9_20 1_555 1_555
C10_20 C9_20 1_555 1_555
C11_20 N2_20 1_555 1_555
H8_20 C11_20 1_555 1_555
C12_20 C10_20 1_555 1_555
O7_20 Er1_20 1_555 1_555
O8_20 Er1_20 1_555 1_555
O9_20 Er1_20 1_555 1_555
Er2 O6_20 1_555 1_555
Cr3_4 O2_20 1_555 1_555
Cr2 O3_20 1_555 1_555
Cr4_20 O1_20 1_555 1_555
O14_20 Er1_20 1_555 1_555
O15_20 Er1_20 1_555 1_555
C4_20 C5_20 1_555 1_555
C4_20 C6_20 1_555 1_555
C10_20 C11_20 1_555 1_555
Cr3_4 O14_20 1_555 1_555
O9_20 H9_20 1_555 1_555
O9_20 H10_20 1_555 1_555
O7_20 H11_17 1_555 1_555
O7_20 H12_20 1_555 1_555
O8_20 H13_20 1_555 1_555
O8_20 H14_20 1_555 1_555
Er3_4 O4_20 1_555 1_555
O10_20 Cr1_20 1_555 1_555
O11_20 Cr1_20 1_555 1_555
O12_20 Cr1_20 1_555 1_555
O13_20 Cr1_20 1_555 1_555
Cr1_20 O4_20 1_555 1_555
Er3_4 O10_20 1_555 1_555
Er1_21 O1_21 1_555 1_555
Cr1_21 O1_21 1_555 1_555
O1_21 Cr3_11 1_555 1_555
O2_21 C6_21 1_555 1_555
O3_21 C12_21 1_555 1_555
O4_21 Er1_21 1_555 1_555
O5_21 Er1_21 1_555 1_555
O6_21 C12_21 1_555 1_555
N1_21 C1_21 1_555 1_555
N2_21 Er1_21 1_555 1_555
C1_21 H1_21 1_555 1_555
C2_21 C1_21 1_555 1_555
H2_21 C2_21 1_555 1_555
C3_21 C2_21 1_555 1_555
H3_21 C3_21 1_555 1_555
C4_21 C3_21 1_555 1_555
C5_21 N1_21 1_555 1_555
H4_21 C5_21 1_555 1_555
C6_21 O5_21 1_555 1_555
C7_21 N2_21 1_555 1_555
H5_21 C7_21 1_555 1_555
C8_21 C7_21 1_555 1_555
H6_21 C8_21 1_555 1_555
C9_21 C8_21 1_555 1_555
H7_21 C9_21 1_555 1_555
C10_21 C9_21 1_555 1_555
C11_21 N2_21 1_555 1_555
H8_21 C11_21 1_555 1_555
C12_21 C10_21 1_555 1_555
O7_21 Er1_21 1_555 1_555
O8_21 Er1_21 1_555 1_555
O9_21 Er1_21 1_555 1_555
Er3_11 O4_21 1_555 1_555
Er2_10 O6_21 1_555 1_555
Cr3_11 O2_21 1_555 1_555
Cr2_10 O3_21 1_555 1_555
Cr4_21 O1_21 1_555 1_555
O10_21 Cr1_21 1_555 1_555
O11_21 Cr1_21 1_555 1_555
O12_21 Cr1_21 1_555 1_555
O13_21 Cr1_21 1_555 1_555
O14_21 Er1_21 1_555 1_555
O15_21 Er1_21 1_555 1_555
Cr1_21 O4_21 1_555 1_555
C4_21 C5_21 1_555 1_555
C4_21 C6_21 1_555 1_555
C10_21 C11_21 1_555 1_555
Er3_11 O10_21 1_555 1_555
Er3_11 O14_21 1_555 1_555
Cr3_11 O10_21 1_555 1_555
Cr3_11 O14_21 1_555 1_555
Cr4_21 O11_21 1_555 1_555
O9_21 H9_21 1_555 1_555
O9_21 H10_21 1_555 1_555
O7_21 H11_18 1_555 1_555
O7_21 H12_21 1_555 1_555
O8_21 H13_21 1_555 1_555
O8_21 H14_21 1_555 1_555
Er3_9 O4_22 1_555 1_555
O10_22 Cr1_22 1_555 1_555
O11_22 Cr1_22 1_555 1_555
O12_22 Cr1_22 1_555 1_555
O13_22 Cr1_22 1_555 1_555
Cr1_22 O4_22 1_555 1_555
Er3_9 O10_22 1_555 1_555
Er1_22 O1_22 1_555 1_555
O1_22 Cr3_9 1_555 1_555
O2_22 C6_22 1_555 1_555
O3_22 C12_22 1_555 1_555
O5_22 Er1_22 1_555 1_555
O6_22 C12_22 1_555 1_555
N1_22 C1_22 1_555 1_555
N2_22 Er1_22 1_555 1_555
C1_22 H1_22 1_555 1_555
C2_22 C1_22 1_555 1_555
H2_22 C2_22 1_555 1_555
C3_22 C2_22 1_555 1_555
H3_22 C3_22 1_555 1_555
C4_22 C3_22 1_555 1_555
C5_22 N1_22 1_555 1_555
H4_22 C5_22 1_555 1_555
C6_22 O5_22 1_555 1_555
C7_22 N2_22 1_555 1_555
H5_22 C7_22 1_555 1_555
C8_22 C7_22 1_555 1_555
H6_22 C8_22 1_555 1_555
C9_22 C8_22 1_555 1_555
H7_22 C9_22 1_555 1_555
C10_22 C9_22 1_555 1_555
C11_22 N2_22 1_555 1_555
H8_22 C11_22 1_555 1_555
C12_22 C10_22 1_555 1_555
O7_22 Er1_22 1_555 1_555
O8_22 Er1_22 1_555 1_555
O9_22 Er1_22 1_555 1_555
Er2_12 O6_22 1_555 1_555
Cr3_9 O2_22 1_555 1_555
Cr2_12 O3_22 1_555 1_555
Cr4_22 O1_22 1_555 1_555
O14_22 Er1_22 1_555 1_555
O15_22 Er1_22 1_555 1_555
C4_22 C5_22 1_555 1_555
C4_22 C6_22 1_555 1_555
C10_22 C11_22 1_555 1_555
Cr3_9 O14_22 1_555 1_555
O9_22 H9_22 1_555 1_555
O9_22 H10_22 1_555 1_555
O7_22 H11_19 1_555 1_555
O7_22 H12_22 1_555 1_555
O8_22 H13_22 1_555 1_555
O8_22 H14_22 1_555 1_555
Er1_23 O1_23 1_555 1_555
O1_23 Cr3_12 1_555 1_555
O2_23 C6_23 1_555 1_555
O3_23 C12_23 1_555 1_555
O5_23 Er1_23 1_555 1_555
O6_23 C12_23 1_555 1_555
N1_23 C1_23 1_555 1_555
N2_23 Er1_23 1_555 1_555
C1_23 H1_23 1_555 1_555
C2_23 C1_23 1_555 1_555
H2_23 C2_23 1_555 1_555
C3_23 C2_23 1_555 1_555
H3_23 C3_23 1_555 1_555
C4_23 C3_23 1_555 1_555
C5_23 N1_23 1_555 1_555
H4_23 C5_23 1_555 1_555
C6_23 O5_23 1_555 1_555
C7_23 N2_23 1_555 1_555
H5_23 C7_23 1_555 1_555
C8_23 C7_23 1_555 1_555
H6_23 C8_23 1_555 1_555
C9_23 C8_23 1_555 1_555
H7_23 C9_23 1_555 1_555
C10_23 C9_23 1_555 1_555
C11_23 N2_23 1_555 1_555
H8_23 C11_23 1_555 1_555
C12_23 C10_23 1_555 1_555
O7_23 Er1_23 1_555 1_555
O8_23 Er1_23 1_555 1_555
O9_23 Er1_23 1_555 1_555
Er2_9 O6_23 1_555 1_555
Cr3_12 O2_23 1_555 1_555
Cr2_9 O3_23 1_555 1_555
Cr4_23 O1_23 1_555 1_555
O14_23 Er1_23 1_555 1_555
O15_23 Er1_23 1_555 1_555
C4_23 C5_23 1_555 1_555
C4_23 C6_23 1_555 1_555
C10_23 C11_23 1_555 1_555
Cr3_12 O14_23 1_555 1_555
O9_23 H9_23 1_555 1_555
O9_23 H10_23 1_555 1_555
O7_23 H11_20 1_555 1_555
O7_23 H12_23 1_555 1_555
O8_23 H13_23 1_555 1_555
O8_23 H14_23 1_555 1_555
Er3_12 O4_23 1_555 1_555
O10_23 Cr1_23 1_555 1_555
O11_23 Cr1_23 1_555 1_555
O12_23 Cr1_23 1_555 1_555
O13_23 Cr1_23 1_555 1_555
Cr1_23 O4_23 1_555 1_555
Er3_12 O10_23 1_555 1_555
Er1_24 O1_24 1_555 1_555
Cr1_24 O1_24 1_555 1_555
O1_24 Cr3_10 1_555 1_555
O2_24 C6_24 1_555 1_555
O3_24 C12_24 1_555 1_555
O4_24 Er1_24 1_555 1_555
O5_24 Er1_24 1_555 1_555
O6_24 C12_24 1_555 1_555
N1_24 C1_24 1_555 1_555
N2_24 Er1_24 1_555 1_555
C1_24 H1_24 1_555 1_555
C2_24 C1_24 1_555 1_555
H2_24 C2_24 1_555 1_555
C3_24 C2_24 1_555 1_555
H3_24 C3_24 1_555 1_555
C4_24 C3_24 1_555 1_555
C5_24 N1_24 1_555 1_555
H4_24 C5_24 1_555 1_555
C6_24 O5_24 1_555 1_555
C7_24 N2_24 1_555 1_555
H5_24 C7_24 1_555 1_555
C8_24 C7_24 1_555 1_555
H6_24 C8_24 1_555 1_555
C9_24 C8_24 1_555 1_555
H7_24 C9_24 1_555 1_555
C10_24 C9_24 1_555 1_555
C11_24 N2_24 1_555 1_555
H8_24 C11_24 1_555 1_555
C12_24 C10_24 1_555 1_555
O7_24 Er1_24 1_555 1_555
O8_24 Er1_24 1_555 1_555
O9_24 Er1_24 1_555 1_555
Er3_10 O4_24 1_555 1_555
Er2_11 O6_24 1_555 1_555
Cr3_10 O2_24 1_555 1_555
Cr2_11 O3_24 1_555 1_555
Cr4_24 O1_24 1_555 1_555
O10_24 Cr1_24 1_555 1_555
O11_24 Cr1_24 1_555 1_555
O12_24 Cr1_24 1_555 1_555
O13_24 Cr1_24 1_555 1_555
O14_24 Er1_24 1_555 1_555
O15_24 Er1_24 1_555 1_555
Cr1_24 O4_24 1_555 1_555
C4_24 C5_24 1_555 1_555
C4_24 C6_24 1_555 1_555
C10_24 C11_24 1_555 1_555
Er3_10 O10_24 1_555 1_555
Er3_10 O14_24 1_555 1_555
Cr3_10 O10_24 1_555 1_555
Cr3_10 O14_24 1_555 1_555
Cr4_24 O11_24 1_555 1_555
O9_24 H9_24 1_555 1_555
O9_24 H10_24 1_555 1_555
O7_24 H11_21 1_555 1_555
O7_24 H12_24 1_555 1_555
O8_24 H13_24 1_555 1_555
O8_24 H14_24 1_555 1_555
O12_2 C6_25 1_555 1_555
N1_25 C1_25 1_555 1_555
C1_25 H1_25 1_555 1_555
C2_25 C1_25 1_555 1_555
H2_25 C2_25 1_555 1_555
C3_25 C2_25 1_555 1_555
H3_25 C3_25 1_555 1_555
C4_25 C3_25 1_555 1_555
C5_25 N1_25 1_555 1_555
H4_25 C5_25 1_555 1_555
C4_25 C5_25 1_555 1_555
C4_25 C6_25 1_555 1_555
O13_18 C12_25 1_555 1_555
O5_25 Er2_2 1_555 1_555
O15_18 C12_25 1_555 1_555
N2_25 Er2_2 1_555 1_555
C7_25 N2_25 1_555 1_555
H5_25 C7_25 1_555 1_555
C8_25 C7_25 1_555 1_555
H6_25 C8_25 1_555 1_555
C9_25 C8_25 1_555 1_555
H7_25 C9_25 1_555 1_555
C10_25 C9_25 1_555 1_555
C11_25 N2_25 1_555 1_555
H8_25 C11_25 1_555 1_555
C12_25 C10_25 1_555 1_555
O7_25 Er2_2 1_555 1_555
O8_25 Er2_2 1_555 1_555
O9_25 Er2_2 1_555 1_555
Cr4_25 O10_2 1_555 1_555
O11_25 Cr2_2 1_555 1_555
C10_25 C11_25 1_555 1_555
Cr4_25 O11_25 1_555 1_555
O9_25 H9_25 1_555 1_555
O9_25 H10_25 1_555 1_555
O7_25 H12_25 1_555 1_555
O8_25 H13_25 1_555 1_555
O8_25 H14_25 1_555 1_555
O12 C6_26 1_555 1_555
O5_26 Er2 1_555 1_555
N1_26 C1_26 1_555 1_555
N2_26 Er2 1_555 1_555
C1_26 H1_26 1_555 1_555
C2_26 C1_26 1_555 1_555
H2_26 C2_26 1_555 1_555
C3_26 C2_26 1_555 1_555
H3_26 C3_26 1_555 1_555
C4_26 C3_26 1_555 1_555
C5_26 N1_26 1_555 1_555
H4_26 C5_26 1_555 1_555
C6_26 O5_26 1_555 1_555
C11_26 N2_26 1_555 1_555
H8_26 C11_26 1_555 1_555
O8_26 Er2 1_555 1_555
Cr4_26 O10 1_555 1_555
O11_26 Cr2 1_555 1_555
C4_26 C5_26 1_555 1_555
C4_26 C6_26 1_555 1_555
Cr4_26 O11_26 1_555 1_555
O8_26 H13_26 1_555 1_555
O8_26 H14_26 1_555 1_555
O13_20 C12_26 1_555 1_555
H5_26 C7_26 1_555 1_555
C8_26 C7_26 1_555 1_555
H6_26 C8_26 1_555 1_555
C9_26 C8_26 1_555 1_555
H7_26 C9_26 1_555 1_555
C10_26 C9_26 1_555 1_555
C12_26 C10_26 1_555 1_555
O9_26 H10_26 1_555 1_555
O7_26 H11_23 1_555 1_555
O7_26 H12_26 1_555 1_555
O13_17 C12_27 1_555 1_555
H5_27 C7_27 1_555 1_555
C8_27 C7_27 1_555 1_555
H6_27 C8_27 1_555 1_555
C9_27 C8_27 1_555 1_555
H7_27 C9_27 1_555 1_555
C10_27 C9_27 1_555 1_555
C12_27 C10_27 1_555 1_555
O9_27 H10_27 1_555 1_555
O7_27 H12_27 1_555 1_555
O5_27 Er2_4 1_555 1_555
N2_27 Er2_4 1_555 1_555
C11_27 N2_27 1_555 1_555
H8_27 C11_27 1_555 1_555
O8_27 Er2_4 1_555 1_555
Cr4_27 O10_4 1_555 1_555
O11_27 Cr2_4 1_555 1_555
Cr4_27 O11_27 1_555 1_555
O8_27 H13_27 1_555 1_555
O8_27 H14_27 1_555 1_555
O12_4 C6_27 1_555 1_555
N1_27 C1_27 1_555 1_555
C1_27 H1_27 1_555 1_555
C2_27 C1_27 1_555 1_555
H2_27 C2_27 1_555 1_555
C3_27 C2_27 1_555 1_555
H3_27 C3_27 1_555 1_555
C4_27 C3_27 1_555 1_555
C5_27 N1_27 1_555 1_555
H4_27 C5_27 1_555 1_555
C4_27 C5_27 1_555 1_555
C4_27 C6_27 1_555 1_555
O12_3 C6_28 1_555 1_555
O13_19 C12_28 1_555 1_555
O5_28 Er2_3 1_555 1_555
O15_19 C12_28 1_555 1_555
N1_28 C1_28 1_555 1_555
N2_28 Er2_3 1_555 1_555
C1_28 H1_28 1_555 1_555
C2_28 C1_28 1_555 1_555
H2_28 C2_28 1_555 1_555
C3_28 C2_28 1_555 1_555
H3_28 C3_28 1_555 1_555
C4_28 C3_28 1_555 1_555
C5_28 N1_28 1_555 1_555
H4_28 C5_28 1_555 1_555
C6_28 O5_28 1_555 1_555
C7_28 N2_28 1_555 1_555
H5_28 C7_28 1_555 1_555
C8_28 C7_28 1_555 1_555
H6_28 C8_28 1_555 1_555
C9_28 C8_28 1_555 1_555
H7_28 C9_28 1_555 1_555
C10_28 C9_28 1_555 1_555
C11_28 N2_28 1_555 1_555
H8_28 C11_28 1_555 1_555
C12_28 C10_28 1_555 1_555
O7_28 Er2_3 1_555 1_555
O8_28 Er2_3 1_555 1_555
O9_28 Er2_3 1_555 1_555
Cr4_28 O10_3 1_555 1_555
O11_28 Cr2_3 1_555 1_555
C4_28 C5_28 1_555 1_555
C4_28 C6_28 1_555 1_555
C10_28 C11_28 1_555 1_555
Cr4_28 O11_28 1_555 1_555
O9_28 H9_28 1_555 1_555
O9_28 H10_28 1_555 1_555
O7_28 H11_24 1_555 1_555
O7_28 H12_28 1_555 1_555
O8_28 H13_28 1_555 1_555
O8_28 H14_28 1_555 1_555
O12_6 C6_29 1_555 1_555
N1_29 C1_29 1_555 1_555
C1_29 H1_29 1_555 1_555
C2_29 C1_29 1_555 1_555
H2_29 C2_29 1_555 1_555
C3_29 C2_29 1_555 1_555
H3_29 C3_29 1_555 1_555
C4_29 C3_29 1_555 1_555
C5_29 N1_29 1_555 1_555
H4_29 C5_29 1_555 1_555
C4_29 C5_29 1_555 1_555
C4_29 C6_29 1_555 1_555
O13_15 C12_29 1_555 1_555
O5_29 Er2_6 1_555 1_555
O15_15 C12_29 1_555 1_555
N2_29 Er2_6 1_555 1_555
C7_29 N2_29 1_555 1_555
H5_29 C7_29 1_555 1_555
C8_29 C7_29 1_555 1_555
H6_29 C8_29 1_555 1_555
C9_29 C8_29 1_555 1_555
H7_29 C9_29 1_555 1_555
C10_29 C9_29 1_555 1_555
C11_29 N2_29 1_555 1_555
H8_29 C11_29 1_555 1_555
C12_29 C10_29 1_555 1_555
O7_29 Er2_6 1_555 1_555
O8_29 Er2_6 1_555 1_555
O9_29 Er2_6 1_555 1_555
Cr4_29 O10_6 1_555 1_555
O11_29 Cr2_6 1_555 1_555
C10_29 C11_29 1_555 1_555
Cr4_29 O11_29 1_555 1_555
O9_29 H9_29 1_555 1_555
O9_29 H10_29 1_555 1_555
O7_29 H12_29 1_555 1_555
O8_29 H13_29 1_555 1_555
O8_29 H14_29 1_555 1_555
O12_5 C6_30 1_555 1_555
O5_30 Er2_5 1_555 1_555
N1_30 C1_30 1_555 1_555
N2_30 Er2_5 1_555 1_555
C1_30 H1_30 1_555 1_555
C2_30 C1_30 1_555 1_555
H2_30 C2_30 1_555 1_555
C3_30 C2_30 1_555 1_555
H3_30 C3_30 1_555 1_555
C4_30 C3_30 1_555 1_555
C5_30 N1_30 1_555 1_555
H4_30 C5_30 1_555 1_555
C6_30 O5_30 1_555 1_555
C11_30 N2_30 1_555 1_555
H8_30 C11_30 1_555 1_555
O8_30 Er2_5 1_555 1_555
Cr4_30 O10_5 1_555 1_555
O11_30 Cr2_5 1_555 1_555
C4_30 C5_30 1_555 1_555
C4_30 C6_30 1_555 1_555
Cr4_30 O11_30 1_555 1_555
O8_30 H13_30 1_555 1_555
O8_30 H14_30 1_555 1_555
O13_13 C12_30 1_555 1_555
H5_30 C7_30 1_555 1_555
C8_30 C7_30 1_555 1_555
H6_30 C8_30 1_555 1_555
C9_30 C8_30 1_555 1_555
H7_30 C9_30 1_555 1_555
C10_30 C9_30 1_555 1_555
C12_30 C10_30 1_555 1_555
O9_30 H10_30 1_555 1_555
O7_30 H11_26 1_555 1_555
O7_30 H12_30 1_555 1_555
O13_16 C12_31 1_555 1_555
H5_31 C7_31 1_555 1_555
C8_31 C7_31 1_555 1_555
H6_31 C8_31 1_555 1_555
C9_31 C8_31 1_555 1_555
H7_31 C9_31 1_555 1_555
C10_31 C9_31 1_555 1_555
C12_31 C10_31 1_555 1_555
O9_31 H10_31 1_555 1_555
O7_31 H12_31 1_555 1_555
O5_31 Er2_8 1_555 1_555
N2_31 Er2_8 1_555 1_555
C11_31 N2_31 1_555 1_555
H8_31 C11_31 1_555 1_555
O8_31 Er2_8 1_555 1_555
Cr4_31 O10_8 1_555 1_555
O11_31 Cr2_8 1_555 1_555
Cr4_31 O11_31 1_555 1_555
O8_31 H13_31 1_555 1_555
O8_31 H14_31 1_555 1_555
O12_8 C6_31 1_555 1_555
N1_31 C1_31 1_555 1_555
C1_31 H1_31 1_555 1_555
C2_31 C1_31 1_555 1_555
H2_31 C2_31 1_555 1_555
C3_31 C2_31 1_555 1_555
H3_31 C3_31 1_555 1_555
C4_31 C3_31 1_555 1_555
C5_31 N1_31 1_555 1_555
H4_31 C5_31 1_555 1_555
C4_31 C5_31 1_555 1_555
C4_31 C6_31 1_555 1_555
O12_7 C6_32 1_555 1_555
O13_14 C12_32 1_555 1_555
O5_32 Er2_7 1_555 1_555
O15_14 C12_32 1_555 1_555
N1_32 C1_32 1_555 1_555
N2_32 Er2_7 1_555 1_555
C1_32 H1_32 1_555 1_555
C2_32 C1_32 1_555 1_555
H2_32 C2_32 1_555 1_555
C3_32 C2_32 1_555 1_555
H3_32 C3_32 1_555 1_555
C4_32 C3_32 1_555 1_555
C5_32 N1_32 1_555 1_555
H4_32 C5_32 1_555 1_555
C6_32 O5_32 1_555 1_555
C7_32 N2_32 1_555 1_555
H5_32 C7_32 1_555 1_555
C8_32 C7_32 1_555 1_555
H6_32 C8_32 1_555 1_555
C9_32 C8_32 1_555 1_555
H7_32 C9_32 1_555 1_555
C10_32 C9_32 1_555 1_555
C11_32 N2_32 1_555 1_555
H8_32 C11_32 1_555 1_555
C12_32 C10_32 1_555 1_555
O7_32 Er2_7 1_555 1_555
O8_32 Er2_7 1_555 1_555
O9_32 Er2_7 1_555 1_555
Cr4_32 O10_7 1_555 1_555
O11_32 Cr2_7 1_555 1_555
C4_32 C5_32 1_555 1_555
C4_32 C6_32 1_555 1_555
C10_32 C11_32 1_555 1_555
Cr4_32 O11_32 1_555 1_555
O9_32 H9_32 1_555 1_555
O9_32 H10_32 1_555 1_555
O7_32 H11_27 1_555 1_555
O7_32 H12_32 1_555 1_555
O8_32 H13_32 1_555 1_555
O8_32 H14_32 1_555 1_555
O12_10 C6_33 1_555 1_555
N1_33 C1_33 1_555 1_555
C1_33 H1_33 1_555 1_555
C2_33 C1_33 1_555 1_555
H2_33 C2_33 1_555 1_555
C3_33 C2_33 1_555 1_555
H3_33 C3_33 1_555 1_555
C4_33 C3_33 1_555 1_555
C5_33 N1_33 1_555 1_555
H4_33 C5_33 1_555 1_555
C4_33 C5_33 1_555 1_555
C4_33 C6_33 1_555 1_555
O13_21 C12_33 1_555 1_555
O5_33 Er2_10 1_555 1_555
O15_21 C12_33 1_555 1_555
N2_33 Er2_10 1_555 1_555
C7_33 N2_33 1_555 1_555
H5_33 C7_33 1_555 1_555
C8_33 C7_33 1_555 1_555
H6_33 C8_33 1_555 1_555
C9_33 C8_33 1_555 1_555
H7_33 C9_33 1_555 1_555
C10_33 C9_33 1_555 1_555
C11_33 N2_33 1_555 1_555
H8_33 C11_33 1_555 1_555
C12_33 C10_33 1_555 1_555
O7_33 Er2_10 1_555 1_555
O8_33 Er2_10 1_555 1_555
O9_33 Er2_10 1_555 1_555
Cr4_33 O10_10 1_555 1_555
O11_33 Cr2_10 1_555 1_555
C10_33 C11_33 1_555 1_555
Cr4_33 O11_33 1_555 1_555
O9_33 H9_33 1_555 1_555
O9_33 H10_33 1_555 1_555
O7_33 H12_33 1_555 1_555
O8_33 H13_33 1_555 1_555
O8_33 H14_33 1_555 1_555
O12_9 C6_34 1_555 1_555
O5_34 Er2_9 1_555 1_555
N1_34 C1_34 1_555 1_555
N2_34 Er2_9 1_555 1_555
C1_34 H1_34 1_555 1_555
C2_34 C1_34 1_555 1_555
H2_34 C2_34 1_555 1_555
C3_34 C2_34 1_555 1_555
H3_34 C3_34 1_555 1_555
C4_34 C3_34 1_555 1_555
C5_34 N1_34 1_555 1_555
H4_34 C5_34 1_555 1_555
C6_34 O5_34 1_555 1_555
C11_34 N2_34 1_555 1_555
H8_34 C11_34 1_555 1_555
O8_34 Er2_9 1_555 1_555
Cr4_34 O10_9 1_555 1_555
O11_34 Cr2_9 1_555 1_555
C4_34 C5_34 1_555 1_555
C4_34 C6_34 1_555 1_555
Cr4_34 O11_34 1_555 1_555
O8_34 H13_34 1_555 1_555
O8_34 H14_34 1_555 1_555
O13_23 C12_34 1_555 1_555
H5_34 C7_34 1_555 1_555
C8_34 C7_34 1_555 1_555
H6_34 C8_34 1_555 1_555
C9_34 C8_34 1_555 1_555
H7_34 C9_34 1_555 1_555
C10_34 C9_34 1_555 1_555
C12_34 C10_34 1_555 1_555
O9_34 H10_34 1_555 1_555
O7_34 H11_29 1_555 1_555
O7_34 H12_34 1_555 1_555
O13_22 C12_35 1_555 1_555
H5_35 C7_35 1_555 1_555
C8_35 C7_35 1_555 1_555
H6_35 C8_35 1_555 1_555
C9_35 C8_35 1_555 1_555
H7_35 C9_35 1_555 1_555
C10_35 C9_35 1_555 1_555
C12_35 C10_35 1_555 1_555
O9_35 H10_35 1_555 1_555
O7_35 H12_35 1_555 1_555
O5_35 Er2_12 1_555 1_555
N2_35 Er2_12 1_555 1_555
C11_35 N2_35 1_555 1_555
H8_35 C11_35 1_555 1_555
O8_35 Er2_12 1_555 1_555
Cr4_35 O10_12 1_555 1_555
O11_35 Cr2_12 1_555 1_555
Cr4_35 O11_35 1_555 1_555
O8_35 H13_35 1_555 1_555
O8_35 H14_35 1_555 1_555
O12_12 C6_35 1_555 1_555
N1_35 C1_35 1_555 1_555
C1_35 H1_35 1_555 1_555
C2_35 C1_35 1_555 1_555
H2_35 C2_35 1_555 1_555
C3_35 C2_35 1_555 1_555
H3_35 C3_35 1_555 1_555
C4_35 C3_35 1_555 1_555
C5_35 N1_35 1_555 1_555
H4_35 C5_35 1_555 1_555
C4_35 C5_35 1_555 1_555
C4_35 C6_35 1_555 1_555
O12_11 C6_36 1_555 1_555
O13_24 C12_36 1_555 1_555
O5_36 Er2_11 1_555 1_555
O15_24 C12_36 1_555 1_555
N1_36 C1_36 1_555 1_555
N2_36 Er2_11 1_555 1_555
C1_36 H1_36 1_555 1_555
C2_36 C1_36 1_555 1_555
H2_36 C2_36 1_555 1_555
C3_36 C2_36 1_555 1_555
H3_36 C3_36 1_555 1_555
C4_36 C3_36 1_555 1_555
C5_36 N1_36 1_555 1_555
H4_36 C5_36 1_555 1_555
C6_36 O5_36 1_555 1_555
C7_36 N2_36 1_555 1_555
H5_36 C7_36 1_555 1_555
C8_36 C7_36 1_555 1_555
H6_36 C8_36 1_555 1_555
C9_36 C8_36 1_555 1_555
H7_36 C9_36 1_555 1_555
C10_36 C9_36 1_555 1_555
C11_36 N2_36 1_555 1_555
H8_36 C11_36 1_555 1_555
C12_36 C10_36 1_555 1_555
O7_36 Er2_11 1_555 1_555
O8_36 Er2_11 1_555 1_555
O9_36 Er2_11 1_555 1_555
Cr4_36 O10_11 1_555 1_555
O11_36 Cr2_11 1_555 1_555
C4_36 C5_36 1_555 1_555
C4_36 C6_36 1_555 1_555
C10_36 C11_36 1_555 1_555
Cr4_36 O11_36 1_555 1_555
O9_36 H9_36 1_555 1_555
O9_36 H10_36 1_555 1_555
O7_36 H11_30 1_555 1_555
O7_36 H12_36 1_555 1_555
O8_36 H13_36 1_555 1_555
O8_36 H14_36 1_555 1_555
O12_14 C6_37 1_555 1_555
O13_6 C12_37 1_555 1_555
O5_37 Er3_6 1_555 1_555
O15_6 C12_37 1_555 1_555
N1_37 C1_37 1_555 1_555
N2_37 Er3_6 1_555 1_555
C1_37 H1_37 1_555 1_555
C2_37 C1_37 1_555 1_555
H2_37 C2_37 1_555 1_555
C3_37 C2_37 1_555 1_555
H3_37 C3_37 1_555 1_555
C4_37 C3_37 1_555 1_555
C5_37 N1_37 1_555 1_555
H4_37 C5_37 1_555 1_555
C6_37 O5_37 1_555 1_555
C7_37 N2_37 1_555 1_555
H5_37 C7_37 1_555 1_555
C8_37 C7_37 1_555 1_555
H6_37 C8_37 1_555 1_555
C9_37 C8_37 1_555 1_555
H7_37 C9_37 1_555 1_555
C10_37 C9_37 1_555 1_555
C11_37 N2_37 1_555 1_555
H8_37 C11_37 1_555 1_555
C12_37 C10_37 1_555 1_555
O7_37 Er3_6 1_555 1_555
O8_37 Er3_6 1_555 1_555
O9_37 Er3_6 1_555 1_555
Cr4_37 O10_14 1_555 1_555
O11_37 Cr3_6 1_555 1_555
C4_37 C5_37 1_555 1_555
C4_37 C6_37 1_555 1_555
C10_37 C11_37 1_555 1_555
Cr4_37 O11_37 1_555 1_555
O9_37 H9_37 1_555 1_555
O9_37 H10_37 1_555 1_555
O7_37 H11_31 1_555 1_555
O7_37 H12_37 1_555 1_555
O8_37 H13_37 1_555 1_555
O8_37 H14_37 1_555 1_555
O11_38 Cr3_8 1_555 1_555
O12_13 C6_38 1_555 1_555
O13_8 C12_38 1_555 1_555
O5_38 Er3_8 1_555 1_555
O15_8 C12_38 1_555 1_555
N1_38 C1_38 1_555 1_555
N2_38 Er3_8 1_555 1_555
C1_38 H1_38 1_555 1_555
C2_38 C1_38 1_555 1_555
H2_38 C2_38 1_555 1_555
C3_38 C2_38 1_555 1_555
H3_38 C3_38 1_555 1_555
C4_38 C3_38 1_555 1_555
C5_38 N1_38 1_555 1_555
H4_38 C5_38 1_555 1_555
C6_38 O5_38 1_555 1_555
C7_38 N2_38 1_555 1_555
H5_38 C7_38 1_555 1_555
C8_38 C7_38 1_555 1_555
H6_38 C8_38 1_555 1_555
C9_38 C8_38 1_555 1_555
H7_38 C9_38 1_555 1_555
C10_38 C9_38 1_555 1_555
C11_38 N2_38 1_555 1_555
H8_38 C11_38 1_555 1_555
C12_38 C10_38 1_555 1_555
O7_38 Er3_8 1_555 1_555
O8_38 Er3_8 1_555 1_555
O9_38 Er3_8 1_555 1_555
Cr4_38 O10_13 1_555 1_555
C4_38 C5_38 1_555 1_555
C4_38 C6_38 1_555 1_555
C10_38 C11_38 1_555 1_555
O9_38 H9_38 1_555 1_555
O9_38 H10_38 1_555 1_555
O7_38 H11_32 1_555 1_555
O7_38 H12_38 1_555 1_555
O8_38 H13_38 1_555 1_555
O8_38 H14_38 1_555 1_555
O12_16 C6_39 1_555 1_555
O13_5 C12_39 1_555 1_555
O5_39 Er3_5 1_555 1_555
O15_5 C12_39 1_555 1_555
N1_39 C1_39 1_555 1_555
N2_39 Er3_5 1_555 1_555
C1_39 H1_39 1_555 1_555
C2_39 C1_39 1_555 1_555
H2_39 C2_39 1_555 1_555
C3_39 C2_39 1_555 1_555
H3_39 C3_39 1_555 1_555
C4_39 C3_39 1_555 1_555
C5_39 N1_39 1_555 1_555
H4_39 C5_39 1_555 1_555
C6_39 O5_39 1_555 1_555
C7_39 N2_39 1_555 1_555
H5_39 C7_39 1_555 1_555
C8_39 C7_39 1_555 1_555
H6_39 C8_39 1_555 1_555
C9_39 C8_39 1_555 1_555
H7_39 C9_39 1_555 1_555
C10_39 C9_39 1_555 1_555
C11_39 N2_39 1_555 1_555
H8_39 C11_39 1_555 1_555
C12_39 C10_39 1_555 1_555
O7_39 Er3_5 1_555 1_555
O8_39 Er3_5 1_555 1_555
O9_39 Er3_5 1_555 1_555
Cr4_39 O10_16 1_555 1_555
C4_39 C5_39 1_555 1_555
C4_39 C6_39 1_555 1_555
C10_39 C11_39 1_555 1_555
O9_39 H9_39 1_555 1_555
O9_39 H10_39 1_555 1_555
O7_39 H11_33 1_555 1_555
O7_39 H12_39 1_555 1_555
O8_39 H13_39 1_555 1_555
O8_39 H14_39 1_555 1_555
O11_39 Cr3_5 1_555 1_555
O12_15 C6_40 1_555 1_555
O13_7 C12_40 1_555 1_555
O5_40 Er3_7 1_555 1_555
O15_7 C12_40 1_555 1_555
N1_40 C1_40 1_555 1_555
N2_40 Er3_7 1_555 1_555
C1_40 H1_40 1_555 1_555
C2_40 C1_40 1_555 1_555
H2_40 C2_40 1_555 1_555
C3_40 C2_40 1_555 1_555
H3_40 C3_40 1_555 1_555
C4_40 C3_40 1_555 1_555
C5_40 N1_40 1_555 1_555
H4_40 C5_40 1_555 1_555
C6_40 O5_40 1_555 1_555
C7_40 N2_40 1_555 1_555
H5_40 C7_40 1_555 1_555
C8_40 C7_40 1_555 1_555
H6_40 C8_40 1_555 1_555
C9_40 C8_40 1_555 1_555
H7_40 C9_40 1_555 1_555
C10_40 C9_40 1_555 1_555
C11_40 N2_40 1_555 1_555
H8_40 C11_40 1_555 1_555
C12_40 C10_40 1_555 1_555
O7_40 Er3_7 1_555 1_555
O8_40 Er3_7 1_555 1_555
O9_40 Er3_7 1_555 1_555
Cr4_40 O10_15 1_555 1_555
O11_40 Cr3_7 1_555 1_555
C4_40 C5_40 1_555 1_555
C4_40 C6_40 1_555 1_555
C10_40 C11_40 1_555 1_555
Cr4_40 O11_40 1_555 1_555
O9_40 H9_40 1_555 1_555
O9_40 H10_40 1_555 1_555
O7_40 H11_34 1_555 1_555
O7_40 H12_40 1_555 1_555
O8_40 H13_40 1_555 1_555
O8_40 H14_40 1_555 1_555
O12_18 C6_41 1_555 1_555
O13_3 C12_41 1_555 1_555
O5_41 Er3_3 1_555 1_555
O15_3 C12_41 1_555 1_555
N1_41 C1_41 1_555 1_555
N2_41 Er3_3 1_555 1_555
C1_41 H1_41 1_555 1_555
C2_41 C1_41 1_555 1_555
H2_41 C2_41 1_555 1_555
C3_41 C2_41 1_555 1_555
H3_41 C3_41 1_555 1_555
C4_41 C3_41 1_555 1_555
C5_41 N1_41 1_555 1_555
H4_41 C5_41 1_555 1_555
C6_41 O5_41 1_555 1_555
C7_41 N2_41 1_555 1_555
H5_41 C7_41 1_555 1_555
C8_41 C7_41 1_555 1_555
H6_41 C8_41 1_555 1_555
C9_41 C8_41 1_555 1_555
H7_41 C9_41 1_555 1_555
C10_41 C9_41 1_555 1_555
C11_41 N2_41 1_555 1_555
H8_41 C11_41 1_555 1_555
C12_41 C10_41 1_555 1_555
O7_41 Er3_3 1_555 1_555
O8_41 Er3_3 1_555 1_555
O9_41 Er3_3 1_555 1_555
Cr4_41 O10_18 1_555 1_555
O11_41 Cr3_3 1_555 1_555
C4_41 C5_41 1_555 1_555
C4_41 C6_41 1_555 1_555
C10_41 C11_41 1_555 1_555
Cr4_41 O11_41 1_555 1_555
O9_41 H9_41 1_555 1_555
O9_41 H10_41 1_555 1_555
O7_41 H11_35 1_555 1_555
O7_41 H12_41 1_555 1_555
O8_41 H13_41 1_555 1_555
O8_41 H14_41 1_555 1_555
O12_17 C6_42 1_555 1_555
O13 C12_42 1_555 1_555
O5_42 Er3 1_555 1_555
O15 C12_42 1_555 1_555
N1_42 C1_42 1_555 1_555
N2_42 Er3 1_555 1_555
C1_42 H1_42 1_555 1_555
C2_42 C1_42 1_555 1_555
H2_42 C2_42 1_555 1_555
C3_42 C2_42 1_555 1_555
H3_42 C3_42 1_555 1_555
C4_42 C3_42 1_555 1_555
C5_42 N1_42 1_555 1_555
H4_42 C5_42 1_555 1_555
C6_42 O5_42 1_555 1_555
C7_42 N2_42 1_555 1_555
H5_42 C7_42 1_555 1_555
C8_42 C7_42 1_555 1_555
H6_42 C8_42 1_555 1_555
C9_42 C8_42 1_555 1_555
H7_42 C9_42 1_555 1_555
C10_42 C9_42 1_555 1_555
C11_42 N2_42 1_555 1_555
H8_42 C11_42 1_555 1_555
C12_42 C10_42 1_555 1_555
O7_42 Er3 1_555 1_555
O8_42 Er3 1_555 1_555
O9_42 Er3 1_555 1_555
Cr4_42 O10_17 1_555 1_555
C4_42 C5_42 1_555 1_555
C4_42 C6_42 1_555 1_555
C10_42 C11_42 1_555 1_555
O9_42 H9_42 1_555 1_555
O9_42 H10_42 1_555 1_555
O7_42 H11_36 1_555 1_555
O7_42 H12_42 1_555 1_555
O8_42 H13_42 1_555 1_555
O8_42 H14_42 1_555 1_555
O11_42 Cr3 1_555 1_555
O11_43 Cr3_4 1_555 1_555
O12_20 C6_43 1_555 1_555
O13_4 C12_43 1_555 1_555
O5_43 Er3_4 1_555 1_555
O15_4 C12_43 1_555 1_555
N1_43 C1_43 1_555 1_555
N2_43 Er3_4 1_555 1_555
C1_43 H1_43 1_555 1_555
C2_43 C1_43 1_555 1_555
H2_43 C2_43 1_555 1_555
C3_43 C2_43 1_555 1_555
H3_43 C3_43 1_555 1_555
C4_43 C3_43 1_555 1_555
C5_43 N1_43 1_555 1_555
H4_43 C5_43 1_555 1_555
C6_43 O5_43 1_555 1_555
C7_43 N2_43 1_555 1_555
H5_43 C7_43 1_555 1_555
C8_43 C7_43 1_555 1_555
H6_43 C8_43 1_555 1_555
C9_43 C8_43 1_555 1_555
H7_43 C9_43 1_555 1_555
C10_43 C9_43 1_555 1_555
C11_43 N2_43 1_555 1_555
H8_43 C11_43 1_555 1_555
C12_43 C10_43 1_555 1_555
O7_43 Er3_4 1_555 1_555
O8_43 Er3_4 1_555 1_555
O9_43 Er3_4 1_555 1_555
Cr4_43 O10_20 1_555 1_555
C4_43 C5_43 1_555 1_555
C4_43 C6_43 1_555 1_555
C10_43 C11_43 1_555 1_555
O9_43 H9_43 1_555 1_555
O9_43 H10_43 1_555 1_555
O7_43 H11_37 1_555 1_555
O7_43 H12_43 1_555 1_555
O8_43 H13_43 1_555 1_555
O8_43 H14_43 1_555 1_555
O12_19 C6_44 1_555 1_555
O13_2 C12_44 1_555 1_555
O5_44 Er3_2 1_555 1_555
O15_2 C12_44 1_555 1_555
N1_44 C1_44 1_555 1_555
N2_44 Er3_2 1_555 1_555
C1_44 H1_44 1_555 1_555
C2_44 C1_44 1_555 1_555
H2_44 C2_44 1_555 1_555
C3_44 C2_44 1_555 1_555
H3_44 C3_44 1_555 1_555
C4_44 C3_44 1_555 1_555
C5_44 N1_44 1_555 1_555
H4_44 C5_44 1_555 1_555
C6_44 O5_44 1_555 1_555
C7_44 N2_44 1_555 1_555
H5_44 C7_44 1_555 1_555
C8_44 C7_44 1_555 1_555
H6_44 C8_44 1_555 1_555
C9_44 C8_44 1_555 1_555
H7_44 C9_44 1_555 1_555
C10_44 C9_44 1_555 1_555
C11_44 N2_44 1_555 1_555
H8_44 C11_44 1_555 1_555
C12_44 C10_44 1_555 1_555
O7_44 Er3_2 1_555 1_555
O8_44 Er3_2 1_555 1_555
O9_44 Er3_2 1_555 1_555
Cr4_44 O10_19 1_555 1_555
O11_44 Cr3_2 1_555 1_555
C4_44 C5_44 1_555 1_555
C4_44 C6_44 1_555 1_555
C10_44 C11_44 1_555 1_555
Cr4_44 O11_44 1_555 1_555
O9_44 H9_44 1_555 1_555
O9_44 H10_44 1_555 1_555
O7_44 H11_38 1_555 1_555
O7_44 H12_44 1_555 1_555
O8_44 H13_44 1_555 1_555
O8_44 H14_44 1_555 1_555
O12_22 C6_45 1_555 1_555
O13_9 C12_45 1_555 1_555
O5_45 Er3_9 1_555 1_555
O15_9 C12_45 1_555 1_555
N1_45 C1_45 1_555 1_555
N2_45 Er3_9 1_555 1_555
C1_45 H1_45 1_555 1_555
C2_45 C1_45 1_555 1_555
H2_45 C2_45 1_555 1_555
C3_45 C2_45 1_555 1_555
H3_45 C3_45 1_555 1_555
C4_45 C3_45 1_555 1_555
C5_45 N1_45 1_555 1_555
H4_45 C5_45 1_555 1_555
C6_45 O5_45 1_555 1_555
C7_45 N2_45 1_555 1_555
H5_45 C7_45 1_555 1_555
C8_45 C7_45 1_555 1_555
H6_45 C8_45 1_555 1_555
C9_45 C8_45 1_555 1_555
H7_45 C9_45 1_555 1_555
C10_45 C9_45 1_555 1_555
C11_45 N2_45 1_555 1_555
H8_45 C11_45 1_555 1_555
C12_45 C10_45 1_555 1_555
O7_45 Er3_9 1_555 1_555
O8_45 Er3_9 1_555 1_555
O9_45 Er3_9 1_555 1_555
Cr4_45 O10_22 1_555 1_555
C4_45 C5_45 1_555 1_555
C4_45 C6_45 1_555 1_555
C10_45 C11_45 1_555 1_555
O9_45 H9_45 1_555 1_555
O9_45 H10_45 1_555 1_555
O7_45 H11_39 1_555 1_555
O7_45 H12_45 1_555 1_555
O8_45 H13_45 1_555 1_555
O8_45 H14_45 1_555 1_555
O11_45 Cr3_9 1_555 1_555
O12_21 C6_46 1_555 1_555
O13_11 C12_46 1_555 1_555
O5_46 Er3_11 1_555 1_555
O15_11 C12_46 1_555 1_555
N1_46 C1_46 1_555 1_555
N2_46 Er3_11 1_555 1_555
C1_46 H1_46 1_555 1_555
C2_46 C1_46 1_555 1_555
H2_46 C2_46 1_555 1_555
C3_46 C2_46 1_555 1_555
H3_46 C3_46 1_555 1_555
C4_46 C3_46 1_555 1_555
C5_46 N1_46 1_555 1_555
H4_46 C5_46 1_555 1_555
C6_46 O5_46 1_555 1_555
C7_46 N2_46 1_555 1_555
H5_46 C7_46 1_555 1_555
C8_46 C7_46 1_555 1_555
H6_46 C8_46 1_555 1_555
C9_46 C8_46 1_555 1_555
H7_46 C9_46 1_555 1_555
C10_46 C9_46 1_555 1_555
C11_46 N2_46 1_555 1_555
H8_46 C11_46 1_555 1_555
C12_46 C10_46 1_555 1_555
O7_46 Er3_11 1_555 1_555
O8_46 Er3_11 1_555 1_555
O9_46 Er3_11 1_555 1_555
Cr4_46 O10_21 1_555 1_555
O11_46 Cr3_11 1_555 1_555
C4_46 C5_46 1_555 1_555
C4_46 C6_46 1_555 1_555
C10_46 C11_46 1_555 1_555
Cr4_46 O11_46 1_555 1_555
O9_46 H9_46 1_555 1_555
O9_46 H10_46 1_555 1_555
O7_46 H11_40 1_555 1_555
O7_46 H12_46 1_555 1_555
O8_46 H13_46 1_555 1_555
O8_46 H14_46 1_555 1_555
O12_24 C6_47 1_555 1_555
O13_10 C12_47 1_555 1_555
O5_47 Er3_10 1_555 1_555
O15_10 C12_47 1_555 1_555
N1_47 C1_47 1_555 1_555
N2_47 Er3_10 1_555 1_555
C1_47 H1_47 1_555 1_555
C2_47 C1_47 1_555 1_555
H2_47 C2_47 1_555 1_555
C3_47 C2_47 1_555 1_555
H3_47 C3_47 1_555 1_555
C4_47 C3_47 1_555 1_555
C5_47 N1_47 1_555 1_555
H4_47 C5_47 1_555 1_555
C6_47 O5_47 1_555 1_555
C7_47 N2_47 1_555 1_555
H5_47 C7_47 1_555 1_555
C8_47 C7_47 1_555 1_555
H6_47 C8_47 1_555 1_555
C9_47 C8_47 1_555 1_555
H7_47 C9_47 1_555 1_555
C10_47 C9_47 1_555 1_555
C11_47 N2_47 1_555 1_555
H8_47 C11_47 1_555 1_555
C12_47 C10_47 1_555 1_555
O7_47 Er3_10 1_555 1_555
O8_47 Er3_10 1_555 1_555
O9_47 Er3_10 1_555 1_555
Cr4_47 O10_24 1_555 1_555
O11_47 Cr3_10 1_555 1_555
C4_47 C5_47 1_555 1_555
C4_47 C6_47 1_555 1_555
C10_47 C11_47 1_555 1_555
Cr4_47 O11_47 1_555 1_555
O9_47 H9_47 1_555 1_555
O9_47 H10_47 1_555 1_555
O7_47 H11_41 1_555 1_555
O7_47 H12_47 1_555 1_555
O8_47 H13_47 1_555 1_555
O8_47 H14_47 1_555 1_555
O11_48 Cr3_12 1_555 1_555
O12_23 C6_48 1_555 1_555
O13_12 C12_48 1_555 1_555
O5_48 Er3_12 1_555 1_555
O15_12 C12_48 1_555 1_555
N1_48 C1_48 1_555 1_555
N2_48 Er3_12 1_555 1_555
C1_48 H1_48 1_555 1_555
C2_48 C1_48 1_555 1_555
H2_48 C2_48 1_555 1_555
C3_48 C2_48 1_555 1_555
H3_48 C3_48 1_555 1_555
C4_48 C3_48 1_555 1_555
C5_48 N1_48 1_555 1_555
H4_48 C5_48 1_555 1_555
C6_48 O5_48 1_555 1_555
C7_48 N2_48 1_555 1_555
H5_48 C7_48 1_555 1_555
C8_48 C7_48 1_555 1_555
H6_48 C8_48 1_555 1_555
C9_48 C8_48 1_555 1_555
H7_48 C9_48 1_555 1_555
C10_48 C9_48 1_555 1_555
C11_48 N2_48 1_555 1_555
H8_48 C11_48 1_555 1_555
C12_48 C10_48 1_555 1_555
O7_48 Er3_12 1_555 1_555
O8_48 Er3_12 1_555 1_555
O9_48 Er3_12 1_555 1_555
Cr4_48 O10_23 1_555 1_555
C4_48 C5_48 1_555 1_555
C4_48 C6_48 1_555 1_555
C10_48 C11_48 1_555 1_555
O9_48 H9_48 1_555 1_555
O9_48 H10_48 1_555 1_555
O7_48 H11_42 1_555 1_555
O7_48 H12_48 1_555 1_555
O8_48 H13_48 1_555 1_555
O8_48 H14_48 1_555 1_555
O3_25 C12_49 1_555 1_555
H5_49 C7_49 1_555 1_555
C8_49 C7_49 1_555 1_555
H6_49 C8_49 1_555 1_555
C9_49 C8_49 1_555 1_555
H7_49 C9_49 1_555 1_555
C10_49 C9_49 1_555 1_555
C12_49 C10_49 1_555 1_555
Cr4_10 O3_25 1_555 1_555
O9_49 H10_49 1_555 1_555
O7_49 H11_43 1_555 1_555
O7_49 H12_49 1_555 1_555
Er1_25 O11_40 1_555 1_555
Cr4_15 O11_40 1_555 1_555
O2_25 C6_49 1_555 1_555
O4_25 Er1_25 1_555 1_555
O5_49 Er1_25 1_555 1_555
N1_49 C1_49 1_555 1_555
N2_49 Er1_25 1_555 1_555
C1_49 H1_49 1_555 1_555
C2_49 C1_49 1_555 1_555
H2_49 C2_49 1_555 1_555
C3_49 C2_49 1_555 1_555
H3_49 C3_49 1_555 1_555
C4_49 C3_49 1_555 1_555
C5_49 N1_49 1_555 1_555
H4_49 C5_49 1_555 1_555
C6_49 O5_49 1_555 1_555
C11_49 N2_49 1_555 1_555
H8_49 C11_49 1_555 1_555
O8_49 Er1_25 1_555 1_555
Er2_13 O4_25 1_555 1_555
Er3_13 O6_25 1_555 1_555
Cr4_40 O2_25 1_555 1_555
O12_25 Cr4_15 1_555 1_555
O13_25 Cr4_15 1_555 1_555
O14_25 Er1_25 1_555 1_555
O15_25 Er1_25 1_555 1_555
Cr4_15 O4_25 1_555 1_555
C4_49 C5_49 1_555 1_555
C4_49 C6_49 1_555 1_555
Er2_13 O11_15 1_555 1_555
Er2_13 O14_25 1_555 1_555
Cr4_40 O11_15 1_555 1_555
Cr4_40 O14_25 1_555 1_555
O8_49 H13_49 1_555 1_555
O8_49 H14_49 1_555 1_555
O2_26 C6_50 1_555 1_555
N1_50 C1_50 1_555 1_555
C1_50 H1_50 1_555 1_555
C2_50 C1_50 1_555 1_555
H2_50 C2_50 1_555 1_555
C3_50 C2_50 1_555 1_555
H3_50 C3_50 1_555 1_555
C4_50 C3_50 1_555 1_555
C5_50 N1_50 1_555 1_555
H4_50 C5_50 1_555 1_555
Cr4_39 O2_26 1_555 1_555
C4_50 C5_50 1_555 1_555
C4_50 C6_50 1_555 1_555
Er2_14 O11_16 1_555 1_555
Er2_14 O14_26 1_555 1_555
Cr4_39 O11_16 1_555 1_555
Cr4_39 O14_26 1_555 1_555
Er1_26 O11_39 1_555 1_555
Cr4_16 O11_39 1_555 1_555
O3_26 C12_50 1_555 1_555
O4_26 Er1_26 1_555 1_555
O5_50 Er1_26 1_555 1_555
O6_26 C12_50 1_555 1_555
N2_50 Er1_26 1_555 1_555
C7_50 N2_50 1_555 1_555
H5_50 C7_50 1_555 1_555
C8_50 C7_50 1_555 1_555
H6_50 C8_50 1_555 1_555
C9_50 C8_50 1_555 1_555
H7_50 C9_50 1_555 1_555
C10_50 C9_50 1_555 1_555
C11_50 N2_50 1_555 1_555
H8_50 C11_50 1_555 1_555
C12_50 C10_50 1_555 1_555
O7_50 Er1_26 1_555 1_555
O8_50 Er1_26 1_555 1_555
O9_50 Er1_26 1_555 1_555
Er3_14 O6_26 1_555 1_555
Cr4_11 O3_26 1_555 1_555
O12_26 Cr4_16 1_555 1_555
O13_26 Cr4_16 1_555 1_555
O15_26 Er1_26 1_555 1_555
Cr4_16 O4_26 1_555 1_555
C10_50 C11_50 1_555 1_555
O9_50 H9_50 1_555 1_555
O9_50 H10_50 1_555 1_555
O7_50 H12_50 1_555 1_555
O8_50 H13_50 1_555 1_555
O8_50 H14_50 1_555 1_555
Er1_27 O11_37 1_555 1_555
Cr4_14 O11_37 1_555 1_555
O2_27 C6_51 1_555 1_555
O3_27 C12_51 1_555 1_555
O4_27 Er1_27 1_555 1_555
O5_51 Er1_27 1_555 1_555
O6_27 C12_51 1_555 1_555
N1_51 C1_51 1_555 1_555
N2_51 Er1_27 1_555 1_555
C1_51 H1_51 1_555 1_555
C2_51 C1_51 1_555 1_555
H2_51 C2_51 1_555 1_555
C3_51 C2_51 1_555 1_555
H3_51 C3_51 1_555 1_555
C4_51 C3_51 1_555 1_555
C5_51 N1_51 1_555 1_555
H4_51 C5_51 1_555 1_555
C6_51 O5_51 1_555 1_555
C7_51 N2_51 1_555 1_555
H5_51 C7_51 1_555 1_555
C8_51 C7_51 1_555 1_555
H6_51 C8_51 1_555 1_555
C9_51 C8_51 1_555 1_555
H7_51 C9_51 1_555 1_555
C10_51 C9_51 1_555 1_555
C11_51 N2_51 1_555 1_555
H8_51 C11_51 1_555 1_555
C12_51 C10_51 1_555 1_555
O7_51 Er1_27 1_555 1_555
O8_51 Er1_27 1_555 1_555
O9_51 Er1_27 1_555 1_555
Er2_15 O4_27 1_555 1_555
Er3_15 O6_27 1_555 1_555
Cr4_37 O2_27 1_555 1_555
Cr4_9 O3_27 1_555 1_555
O12_27 Cr4_14 1_555 1_555
O13_27 Cr4_14 1_555 1_555
O14_27 Er1_27 1_555 1_555
O15_27 Er1_27 1_555 1_555
Cr4_14 O4_27 1_555 1_555
C4_51 C5_51 1_555 1_555
C4_51 C6_51 1_555 1_555
C10_51 C11_51 1_555 1_555
Er2_15 O11_14 1_555 1_555
Er2_15 O14_27 1_555 1_555
Cr4_37 O11_14 1_555 1_555
Cr4_37 O14_27 1_555 1_555
O9_51 H9_51 1_555 1_555
O9_51 H10_51 1_555 1_555
O7_51 H11_45 1_555 1_555
O7_51 H12_51 1_555 1_555
O8_51 H13_51 1_555 1_555
O8_51 H14_51 1_555 1_555
Er1_28 O11_38 1_555 1_555
Cr4_13 O11_38 1_555 1_555
O4_28 Er1_28 1_555 1_555
O5_52 Er1_28 1_555 1_555
N2_52 Er1_28 1_555 1_555
C11_52 N2_52 1_555 1_555
H8_52 C11_52 1_555 1_555
O8_52 Er1_28 1_555 1_555
Er3_16 O6_28 1_555 1_555
O12_28 Cr4_13 1_555 1_555
O13_28 Cr4_13 1_555 1_555
O15_28 Er1_28 1_555 1_555
Cr4_13 O4_28 1_555 1_555
O8_52 H13_52 1_555 1_555
O8_52 H14_52 1_555 1_555
O3_28 C12_52 1_555 1_555
H5_52 C7_52 1_555 1_555
C8_52 C7_52 1_555 1_555
H6_52 C8_52 1_555 1_555
C9_52 C8_52 1_555 1_555
H7_52 C9_52 1_555 1_555
C10_52 C9_52 1_555 1_555
C12_52 C10_52 1_555 1_555
Cr4_12 O3_28 1_555 1_555
O9_52 H10_52 1_555 1_555
O7_52 H12_52 1_555 1_555
O2_28 C6_52 1_555 1_555
N1_52 C1_52 1_555 1_555
C1_52 H1_52 1_555 1_555
C2_52 C1_52 1_555 1_555
H2_52 C2_52 1_555 1_555
C3_52 C2_52 1_555 1_555
H3_52 C3_52 1_555 1_555
C4_52 C3_52 1_555 1_555
C5_52 N1_52 1_555 1_555
H4_52 C5_52 1_555 1_555
Cr4_38 O2_28 1_555 1_555
C4_52 C5_52 1_555 1_555
C4_52 C6_52 1_555 1_555
Er2_16 O11_13 1_555 1_555
Er2_16 O14_28 1_555 1_555
Cr4_38 O11_13 1_555 1_555
Cr4_38 O14_28 1_555 1_555
O3_29 C12_53 1_555 1_555
H5_53 C7_53 1_555 1_555
C8_53 C7_53 1_555 1_555
H6_53 C8_53 1_555 1_555
C9_53 C8_53 1_555 1_555
H7_53 C9_53 1_555 1_555
C10_53 C9_53 1_555 1_555
C12_53 C10_53 1_555 1_555
Cr4_2 O3_29 1_555 1_555
O9_53 H10_53 1_555 1_555
O7_53 H11_46 1_555 1_555
O7_53 H12_53 1_555 1_555
Er1_29 O11_46 1_555 1_555
Cr4_21 O11_46 1_555 1_555
O2_29 C6_53 1_555 1_555
O4_29 Er1_29 1_555 1_555
O5_53 Er1_29 1_555 1_555
N1_53 C1_53 1_555 1_555
N2_53 Er1_29 1_555 1_555
C1_53 H1_53 1_555 1_555
C2_53 C1_53 1_555 1_555
H2_53 C2_53 1_555 1_555
C3_53 C2_53 1_555 1_555
H3_53 C3_53 1_555 1_555
C4_53 C3_53 1_555 1_555
C5_53 N1_53 1_555 1_555
H4_53 C5_53 1_555 1_555
C6_53 O5_53 1_555 1_555
C11_53 N2_53 1_555 1_555
H8_53 C11_53 1_555 1_555
O8_53 Er1_29 1_555 1_555
Er2_17 O4_29 1_555 1_555
Er3_17 O6_29 1_555 1_555
Cr4_46 O2_29 1_555 1_555
O12_29 Cr4_21 1_555 1_555
O13_29 Cr4_21 1_555 1_555
O14_29 Er1_29 1_555 1_555
O15_29 Er1_29 1_555 1_555
Cr4_21 O4_29 1_555 1_555
C4_53 C5_53 1_555 1_555
C4_53 C6_53 1_555 1_555
Er2_17 O11_21 1_555 1_555
Er2_17 O14_29 1_555 1_555
Cr4_46 O11_21 1_555 1_555
Cr4_46 O14_29 1_555 1_555
O8_53 H13_53 1_555 1_555
O8_53 H14_53 1_555 1_555
O2_30 C6_54 1_555 1_555
N1_54 C1_54 1_555 1_555
C1_54 H1_54 1_555 1_555
C2_54 C1_54 1_555 1_555
H2_54 C2_54 1_555 1_555
C3_54 C2_54 1_555 1_555
H3_54 C3_54 1_555 1_555
C4_54 C3_54 1_555 1_555
C5_54 N1_54 1_555 1_555
H4_54 C5_54 1_555 1_555
Cr4_45 O2_30 1_555 1_555
C4_54 C5_54 1_555 1_555
C4_54 C6_54 1_555 1_555
Er2_18 O11_22 1_555 1_555
Er2_18 O14_30 1_555 1_555
Cr4_45 O11_22 1_555 1_555
Cr4_45 O14_30 1_555 1_555
Er1_30 O11_45 1_555 1_555
Cr4_22 O11_45 1_555 1_555
O3_30 C12_54 1_555 1_555
O4_30 Er1_30 1_555 1_555
O5_54 Er1_30 1_555 1_555
O6_30 C12_54 1_555 1_555
N2_54 Er1_30 1_555 1_555
C7_54 N2_54 1_555 1_555
H5_54 C7_54 1_555 1_555
C8_54 C7_54 1_555 1_555
H6_54 C8_54 1_555 1_555
C9_54 C8_54 1_555 1_555
H7_54 C9_54 1_555 1_555
C10_54 C9_54 1_555 1_555
C11_54 N2_54 1_555 1_555
H8_54 C11_54 1_555 1_555
C12_54 C10_54 1_555 1_555
O7_54 Er1_30 1_555 1_555
O8_54 Er1_30 1_555 1_555
O9_54 Er1_30 1_555 1_555
Er3_18 O6_30 1_555 1_555
Cr4_3 O3_30 1_555 1_555
O12_30 Cr4_22 1_555 1_555
O13_30 Cr4_22 1_555 1_555
O15_30 Er1_30 1_555 1_555
Cr4_22 O4_30 1_555 1_555
C10_54 C11_54 1_555 1_555
O9_54 H9_54 1_555 1_555
O9_54 H10_54 1_555 1_555
O7_54 H12_54 1_555 1_555
O8_54 H13_54 1_555 1_555
O8_54 H14_54 1_555 1_555
Er1_31 O11_47 1_555 1_555
Cr4_24 O11_47 1_555 1_555
O2_31 C6_55 1_555 1_555
O3_31 C12_55 1_555 1_555
O4_31 Er1_31 1_555 1_555
O5_55 Er1_31 1_555 1_555
O6_31 C12_55 1_555 1_555
N1_55 C1_55 1_555 1_555
N2_55 Er1_31 1_555 1_555
C1_55 H1_55 1_555 1_555
C2_55 C1_55 1_555 1_555
H2_55 C2_55 1_555 1_555
C3_55 C2_55 1_555 1_555
H3_55 C3_55 1_555 1_555
C4_55 C3_55 1_555 1_555
C5_55 N1_55 1_555 1_555
H4_55 C5_55 1_555 1_555
C6_55 O5_55 1_555 1_555
C7_55 N2_55 1_555 1_555
H5_55 C7_55 1_555 1_555
C8_55 C7_55 1_555 1_555
H6_55 C8_55 1_555 1_555
C9_55 C8_55 1_555 1_555
H7_55 C9_55 1_555 1_555
C10_55 C9_55 1_555 1_555
C11_55 N2_55 1_555 1_555
H8_55 C11_55 1_555 1_555
C12_55 C10_55 1_555 1_555
O7_55 Er1_31 1_555 1_555
O8_55 Er1_31 1_555 1_555
O9_55 Er1_31 1_555 1_555
Er2_19 O4_31 1_555 1_555
Er3_19 O6_31 1_555 1_555
Cr4_47 O2_31 1_555 1_555
Cr4 O3_31 1_555 1_555
O12_31 Cr4_24 1_555 1_555
O13_31 Cr4_24 1_555 1_555
O14_31 Er1_31 1_555 1_555
O15_31 Er1_31 1_555 1_555
Cr4_24 O4_31 1_555 1_555
C4_55 C5_55 1_555 1_555
C4_55 C6_55 1_555 1_555
C10_55 C11_55 1_555 1_555
Er2_19 O11_24 1_555 1_555
Er2_19 O14_31 1_555 1_555
Cr4_47 O11_24 1_555 1_555
Cr4_47 O14_31 1_555 1_555
O9_55 H9_55 1_555 1_555
O9_55 H10_55 1_555 1_555
O7_55 H11_48 1_555 1_555
O7_55 H12_55 1_555 1_555
O8_55 H13_55 1_555 1_555
O8_55 H14_55 1_555 1_555
Er1_32 O11_48 1_555 1_555
Cr4_23 O11_48 1_555 1_555
O4_32 Er1_32 1_555 1_555
O5_56 Er1_32 1_555 1_555
N2_56 Er1_32 1_555 1_555
C11_56 N2_56 1_555 1_555
H8_56 C11_56 1_555 1_555
O8_56 Er1_32 1_555 1_555
Er3_20 O6_32 1_555 1_555
O12_32 Cr4_23 1_555 1_555
O13_32 Cr4_23 1_555 1_555
O15_32 Er1_32 1_555 1_555
Cr4_23 O4_32 1_555 1_555
O8_56 H13_56 1_555 1_555
O8_56 H14_56 1_555 1_555
O2_32 C6_56 1_555 1_555
N1_56 C1_56 1_555 1_555
C1_56 H1_56 1_555 1_555
C2_56 C1_56 1_555 1_555
H2_56 C2_56 1_555 1_555
C3_56 C2_56 1_555 1_555
H3_56 C3_56 1_555 1_555
C4_56 C3_56 1_555 1_555
C5_56 N1_56 1_555 1_555
H4_56 C5_56 1_555 1_555
Cr4_48 O2_32 1_555 1_555
C4_56 C5_56 1_555 1_555
C4_56 C6_56 1_555 1_555
Er2_20 O11_23 1_555 1_555
Er2_20 O14_32 1_555 1_555
Cr4_48 O11_23 1_555 1_555
Cr4_48 O14_32 1_555 1_555
O3_32 C12_56 1_555 1_555
H5_56 C7_56 1_555 1_555
C8_56 C7_56 1_555 1_555
H6_56 C8_56 1_555 1_555
C9_56 C8_56 1_555 1_555
H7_56 C9_56 1_555 1_555
C10_56 C9_56 1_555 1_555
C12_56 C10_56 1_555 1_555
Cr4_4 O3_32 1_555 1_555
O9_56 H10_56 1_555 1_555
O7_56 H12_56 1_555 1_555
O3_33 C12_57 1_555 1_555
H5_57 C7_57 1_555 1_555
C8_57 C7_57 1_555 1_555
H6_57 C8_57 1_555 1_555
C9_57 C8_57 1_555 1_555
H7_57 C9_57 1_555 1_555
C10_57 C9_57 1_555 1_555
C12_57 C10_57 1_555 1_555
Cr4_6 O3_33 1_555 1_555
O9_57 H10_57 1_555 1_555
O7_57 H11_49 1_555 1_555
O7_57 H12_57 1_555 1_555
Er1_33 O11_41 1_555 1_555
Cr4_18 O11_41 1_555 1_555
O2_33 C6_57 1_555 1_555
O4_33 Er1_33 1_555 1_555
O5_57 Er1_33 1_555 1_555
N1_57 C1_57 1_555 1_555
N2_57 Er1_33 1_555 1_555
C1_57 H1_57 1_555 1_555
C2_57 C1_57 1_555 1_555
H2_57 C2_57 1_555 1_555
C3_57 C2_57 1_555 1_555
H3_57 C3_57 1_555 1_555
C4_57 C3_57 1_555 1_555
C5_57 N1_57 1_555 1_555
H4_57 C5_57 1_555 1_555
C6_57 O5_57 1_555 1_555
C11_57 N2_57 1_555 1_555
H8_57 C11_57 1_555 1_555
O8_57 Er1_33 1_555 1_555
Er2_21 O4_33 1_555 1_555
Er3_21 O6_33 1_555 1_555
Cr4_41 O2_33 1_555 1_555
O12_33 Cr4_18 1_555 1_555
O13_33 Cr4_18 1_555 1_555
O14_33 Er1_33 1_555 1_555
O15_33 Er1_33 1_555 1_555
Cr4_18 O4_33 1_555 1_555
C4_57 C5_57 1_555 1_555
C4_57 C6_57 1_555 1_555
Er2_21 O11_18 1_555 1_555
Er2_21 O14_33 1_555 1_555
Cr4_41 O11_18 1_555 1_555
Cr4_41 O14_33 1_555 1_555
O8_57 H13_57 1_555 1_555
O8_57 H14_57 1_555 1_555
O2_34 C6_58 1_555 1_555
N1_58 C1_58 1_555 1_555
C1_58 H1_58 1_555 1_555
C2_58 C1_58 1_555 1_555
H2_58 C2_58 1_555 1_555
C3_58 C2_58 1_555 1_555
H3_58 C3_58 1_555 1_555
C4_58 C3_58 1_555 1_555
C5_58 N1_58 1_555 1_555
H4_58 C5_58 1_555 1_555
Cr4_42 O2_34 1_555 1_555
C4_58 C5_58 1_555 1_555
C4_58 C6_58 1_555 1_555
Er2_22 O11_17 1_555 1_555
Er2_22 O14_34 1_555 1_555
Cr4_42 O11_17 1_555 1_555
Cr4_42 O14_34 1_555 1_555
Er1_34 O11_42 1_555 1_555
Cr4_17 O11_42 1_555 1_555
O3_34 C12_58 1_555 1_555
O4_34 Er1_34 1_555 1_555
O5_58 Er1_34 1_555 1_555
O6_34 C12_58 1_555 1_555
N2_58 Er1_34 1_555 1_555
C7_58 N2_58 1_555 1_555
H5_58 C7_58 1_555 1_555
C8_58 C7_58 1_555 1_555
H6_58 C8_58 1_555 1_555
C9_58 C8_58 1_555 1_555
H7_58 C9_58 1_555 1_555
C10_58 C9_58 1_555 1_555
C11_58 N2_58 1_555 1_555
H8_58 C11_58 1_555 1_555
C12_58 C10_58 1_555 1_555
O7_58 Er1_34 1_555 1_555
O8_58 Er1_34 1_555 1_555
O9_58 Er1_34 1_555 1_555
Er3_22 O6_34 1_555 1_555
Cr4_7 O3_34 1_555 1_555
O12_34 Cr4_17 1_555 1_555
O13_34 Cr4_17 1_555 1_555
O15_34 Er1_34 1_555 1_555
Cr4_17 O4_34 1_555 1_555
C10_58 C11_58 1_555 1_555
O9_58 H9_58 1_555 1_555
O9_58 H10_58 1_555 1_555
O7_58 H12_58 1_555 1_555
O8_58 H13_58 1_555 1_555
O8_58 H14_58 1_555 1_555
Er1_35 O11_44 1_555 1_555
Cr4_19 O11_44 1_555 1_555
O2_35 C6_59 1_555 1_555
O3_35 C12_59 1_555 1_555
O4_35 Er1_35 1_555 1_555
O5_59 Er1_35 1_555 1_555
O6_35 C12_59 1_555 1_555
N1_59 C1_59 1_555 1_555
N2_59 Er1_35 1_555 1_555
C1_59 H1_59 1_555 1_555
C2_59 C1_59 1_555 1_555
H2_59 C2_59 1_555 1_555
C3_59 C2_59 1_555 1_555
H3_59 C3_59 1_555 1_555
C4_59 C3_59 1_555 1_555
C5_59 N1_59 1_555 1_555
H4_59 C5_59 1_555 1_555
C6_59 O5_59 1_555 1_555
C7_59 N2_59 1_555 1_555
H5_59 C7_59 1_555 1_555
C8_59 C7_59 1_555 1_555
H6_59 C8_59 1_555 1_555
C9_59 C8_59 1_555 1_555
H7_59 C9_59 1_555 1_555
C10_59 C9_59 1_555 1_555
C11_59 N2_59 1_555 1_555
H8_59 C11_59 1_555 1_555
C12_59 C10_59 1_555 1_555
O7_59 Er1_35 1_555 1_555
O8_59 Er1_35 1_555 1_555
O9_59 Er1_35 1_555 1_555
Er2_23 O4_35 1_555 1_555
Er3_23 O6_35 1_555 1_555
Cr4_44 O2_35 1_555 1_555
Cr4_5 O3_35 1_555 1_555
O12_35 Cr4_19 1_555 1_555
O13_35 Cr4_19 1_555 1_555
O14_35 Er1_35 1_555 1_555
O15_35 Er1_35 1_555 1_555
Cr4_19 O4_35 1_555 1_555
C4_59 C5_59 1_555 1_555
C4_59 C6_59 1_555 1_555
C10_59 C11_59 1_555 1_555
Er2_23 O11_19 1_555 1_555
Er2_23 O14_35 1_555 1_555
Cr4_44 O11_19 1_555 1_555
Cr4_44 O14_35 1_555 1_555
O9_59 H9_59 1_555 1_555
O9_59 H10_59 1_555 1_555
O7_59 H11_51 1_555 1_555
O7_59 H12_59 1_555 1_555
O8_59 H13_59 1_555 1_555
O8_59 H14_59 1_555 1_555
Er1_36 O11_43 1_555 1_555
Cr4_20 O11_43 1_555 1_555
O4_36 Er1_36 1_555 1_555
O5_60 Er1_36 1_555 1_555
N2_60 Er1_36 1_555 1_555
C11_60 N2_60 1_555 1_555
H8_60 C11_60 1_555 1_555
O8_60 Er1_36 1_555 1_555
Er3_24 O6_36 1_555 1_555
O12_36 Cr4_20 1_555 1_555
O13_36 Cr4_20 1_555 1_555
O15_36 Er1_36 1_555 1_555
Cr4_20 O4_36 1_555 1_555
O8_60 H13_60 1_555 1_555
O8_60 H14_60 1_555 1_555
O2_36 C6_60 1_555 1_555
N1_60 C1_60 1_555 1_555
C1_60 H1_60 1_555 1_555
C2_60 C1_60 1_555 1_555
H2_60 C2_60 1_555 1_555
C3_60 C2_60 1_555 1_555
H3_60 C3_60 1_555 1_555
C4_60 C3_60 1_555 1_555
C5_60 N1_60 1_555 1_555
H4_60 C5_60 1_555 1_555
Cr4_43 O2_36 1_555 1_555
C4_60 C5_60 1_555 1_555
C4_60 C6_60 1_555 1_555
Er2_24 O11_20 1_555 1_555
Er2_24 O14_36 1_555 1_555
Cr4_43 O11_20 1_555 1_555
Cr4_43 O14_36 1_555 1_555
O3_36 C12_60 1_555 1_555
H5_60 C7_60 1_555 1_555
C8_60 C7_60 1_555 1_555
H6_60 C8_60 1_555 1_555
C9_60 C8_60 1_555 1_555
H7_60 C9_60 1_555 1_555
C10_60 C9_60 1_555 1_555
C12_60 C10_60 1_555 1_555
Cr4_8 O3_36 1_555 1_555
O9_60 H10_60 1_555 1_555
O7_60 H12_60 1_555 1_555
Er3_20 O4_37 1_555 1_555
O12_37 Cr4_27 1_555 1_555
O13_37 Cr4_27 1_555 1_555
Cr4_27 O4_37 1_555 1_555
Er3_20 O11_27 1_555 1_555
Er1_37 O11_4 1_555 1_555
O2_37 C6_61 1_555 1_555
O3_37 C12_61 1_555 1_555
O5_61 Er1_37 1_555 1_555
O6_37 C12_61 1_555 1_555
N1_61 C1_61 1_555 1_555
N2_61 Er1_37 1_555 1_555
C1_61 H1_61 1_555 1_555
C2_61 C1_61 1_555 1_555
H2_61 C2_61 1_555 1_555
C3_61 C2_61 1_555 1_555
H3_61 C3_61 1_555 1_555
C4_61 C3_61 1_555 1_555
C5_61 N1_61 1_555 1_555
H4_61 C5_61 1_555 1_555
C6_61 O5_61 1_555 1_555
C7_61 N2_61 1_555 1_555
H5_61 C7_61 1_555 1_555
C8_61 C7_61 1_555 1_555
H6_61 C8_61 1_555 1_555
C9_61 C8_61 1_555 1_555
H7_61 C9_61 1_555 1_555
C10_61 C9_61 1_555 1_555
C11_61 N2_61 1_555 1_555
H8_61 C11_61 1_555 1_555
C12_61 C10_61 1_555 1_555
O7_61 Er1_37 1_555 1_555
O8_61 Er1_37 1_555 1_555
O9_61 Er1_37 1_555 1_555
Er2_17 O6_37 1_555 1_555
Cr4_4 O2_37 1_555 1_555
Cr4_46 O3_37 1_555 1_555
O14_37 Er1_37 1_555 1_555
O15_37 Er1_37 1_555 1_555
C4_61 C5_61 1_555 1_555
C4_61 C6_61 1_555 1_555
C10_61 C11_61 1_555 1_555
Cr4_4 O14_37 1_555 1_555
O9_61 H9_61 1_555 1_555
O9_61 H10_61 1_555 1_555
O7_61 H11_52 1_555 1_555
O7_61 H12_61 1_555 1_555
O8_61 H13_61 1_555 1_555
O8_61 H14_61 1_555 1_555
Er1_38 O11_3 1_555 1_555
Cr4_28 O11_3 1_555 1_555
O2_38 C6_62 1_555 1_555
O3_38 C12_62 1_555 1_555
O4_38 Er1_38 1_555 1_555
O5_62 Er1_38 1_555 1_555
O6_38 C12_62 1_555 1_555
N1_62 C1_62 1_555 1_555
N2_62 Er1_38 1_555 1_555
C1_62 H1_62 1_555 1_555
C2_62 C1_62 1_555 1_555
H2_62 C2_62 1_555 1_555
C3_62 C2_62 1_555 1_555
H3_62 C3_62 1_555 1_555
C4_62 C3_62 1_555 1_555
C5_62 N1_62 1_555 1_555
H4_62 C5_62 1_555 1_555
C6_62 O5_62 1_555 1_555
C7_62 N2_62 1_555 1_555
H5_62 C7_62 1_555 1_555
C8_62 C7_62 1_555 1_555
H6_62 C8_62 1_555 1_555
C9_62 C8_62 1_555 1_555
H7_62 C9_62 1_555 1_555
C10_62 C9_62 1_555 1_555
C11_62 N2_62 1_555 1_555
H8_62 C11_62 1_555 1_555
C12_62 C10_62 1_555 1_555
O7_62 Er1_38 1_555 1_555
O8_62 Er1_38 1_555 1_555
O9_62 Er1_38 1_555 1_555
Er3_18 O4_38 1_555 1_555
Er2_19 O6_38 1_555 1_555
Cr4_3 O2_38 1_555 1_555
Cr4_47 O3_38 1_555 1_555
O12_38 Cr4_28 1_555 1_555
O13_38 Cr4_28 1_555 1_555
O14_38 Er1_38 1_555 1_555
O15_38 Er1_38 1_555 1_555
Cr4_28 O4_38 1_555 1_555
C4_62 C5_62 1_555 1_555
C4_62 C6_62 1_555 1_555
C10_62 C11_62 1_555 1_555
Er3_18 O11_28 1_555 1_555
Er3_18 O14_38 1_555 1_555
Cr4_3 O11_28 1_555 1_555
Cr4_3 O14_38 1_555 1_555
O9_62 H9_62 1_555 1_555
O9_62 H10_62 1_555 1_555
O7_62 H11_53 1_555 1_555
O7_62 H12_62 1_555 1_555
O8_62 H13_62 1_555 1_555
O8_62 H14_62 1_555 1_555
Er1_39 O11 1_555 1_555
Cr4_26 O11 1_555 1_555
O2_39 C6_63 1_555 1_555
O3_39 C12_63 1_555 1_555
O4_39 Er1_39 1_555 1_555
O5_63 Er1_39 1_555 1_555
O6_39 C12_63 1_555 1_555
N1_63 C1_63 1_555 1_555
N2_63 Er1_39 1_555 1_555
C1_63 H1_63 1_555 1_555
C2_63 C1_63 1_555 1_555
H2_63 C2_63 1_555 1_555
C3_63 C2_63 1_555 1_555
H3_63 C3_63 1_555 1_555
C4_63 C3_63 1_555 1_555
C5_63 N1_63 1_555 1_555
H4_63 C5_63 1_555 1_555
C6_63 O5_63 1_555 1_555
C7_63 N2_63 1_555 1_555
H5_63 C7_63 1_555 1_555
C8_63 C7_63 1_555 1_555
H6_63 C8_63 1_555 1_555
C9_63 C8_63 1_555 1_555
H7_63 C9_63 1_555 1_555
C10_63 C9_63 1_555 1_555
C11_63 N2_63 1_555 1_555
H8_63 C11_63 1_555 1_555
C12_63 C10_63 1_555 1_555
O7_63 Er1_39 1_555 1_555
O8_63 Er1_39 1_555 1_555
O9_63 Er1_39 1_555 1_555
Er3_19 O4_39 1_555 1_555
Er2_18 O6_39 1_555 1_555
Cr4 O2_39 1_555 1_555
Cr4_45 O3_39 1_555 1_555
O12_39 Cr4_26 1_555 1_555
O13_39 Cr4_26 1_555 1_555
O14_39 Er1_39 1_555 1_555
O15_39 Er1_39 1_555 1_555
Cr4_26 O4_39 1_555 1_555
C4_63 C5_63 1_555 1_555
C4_63 C6_63 1_555 1_555
C10_63 C11_63 1_555 1_555
Er3_19 O11_26 1_555 1_555
Er3_19 O14_39 1_555 1_555
Cr4 O11_26 1_555 1_555
Cr4 O14_39 1_555 1_555
O9_63 H9_63 1_555 1_555
O9_63 H10_63 1_555 1_555
O7_63 H11_54 1_555 1_555
O7_63 H12_63 1_555 1_555
O8_63 H13_63 1_555 1_555
O8_63 H14_63 1_555 1_555
Er1_40 O11_2 1_555 1_555
O2_40 C6_64 1_555 1_555
O3_40 C12_64 1_555 1_555
O5_64 Er1_40 1_555 1_555
O6_40 C12_64 1_555 1_555
N1_64 C1_64 1_555 1_555
N2_64 Er1_40 1_555 1_555
C1_64 H1_64 1_555 1_555
C2_64 C1_64 1_555 1_555
H2_64 C2_64 1_555 1_555
C3_64 C2_64 1_555 1_555
H3_64 C3_64 1_555 1_555
C4_64 C3_64 1_555 1_555
C5_64 N1_64 1_555 1_555
H4_64 C5_64 1_555 1_555
C6_64 O5_64 1_555 1_555
C7_64 N2_64 1_555 1_555
H5_64 C7_64 1_555 1_555
C8_64 C7_64 1_555 1_555
H6_64 C8_64 1_555 1_555
C9_64 C8_64 1_555 1_555
H7_64 C9_64 1_555 1_555
C10_64 C9_64 1_555 1_555
C11_64 N2_64 1_555 1_555
H8_64 C11_64 1_555 1_555
C12_64 C10_64 1_555 1_555
O7_64 Er1_40 1_555 1_555
O8_64 Er1_40 1_555 1_555
O9_64 Er1_40 1_555 1_555
Er2_20 O6_40 1_555 1_555
Cr4_2 O2_40 1_555 1_555
Cr4_48 O3_40 1_555 1_555
O14_40 Er1_40 1_555 1_555
O15_40 Er1_40 1_555 1_555
C4_64 C5_64 1_555 1_555
C4_64 C6_64 1_555 1_555
C10_64 C11_64 1_555 1_555
Cr4_2 O14_40 1_555 1_555
O9_64 H9_64 1_555 1_555
O9_64 H10_64 1_555 1_555
O7_64 H11_55 1_555 1_555
O7_64 H12_64 1_555 1_555
O8_64 H13_64 1_555 1_555
O8_64 H14_64 1_555 1_555
Er3_17 O4_40 1_555 1_555
O12_40 Cr4_25 1_555 1_555
O13_40 Cr4_25 1_555 1_555
Cr4_25 O4_40 1_555 1_555
Er3_17 O11_25 1_555 1_555
Er1_41 O11_10 1_555 1_555
O2_41 C6_65 1_555 1_555
O3_41 C12_65 1_555 1_555
O5_65 Er1_41 1_555 1_555
O6_41 C12_65 1_555 1_555
N1_65 C1_65 1_555 1_555
N2_65 Er1_41 1_555 1_555
C1_65 H1_65 1_555 1_555
C2_65 C1_65 1_555 1_555
H2_65 C2_65 1_555 1_555
C3_65 C2_65 1_555 1_555
H3_65 C3_65 1_555 1_555
C4_65 C3_65 1_555 1_555
C5_65 N1_65 1_555 1_555
H4_65 C5_65 1_555 1_555
C6_65 O5_65 1_555 1_555
C7_65 N2_65 1_555 1_555
H5_65 C7_65 1_555 1_555
C8_65 C7_65 1_555 1_555
H6_65 C8_65 1_555 1_555
C9_65 C8_65 1_555 1_555
H7_65 C9_65 1_555 1_555
C10_65 C9_65 1_555 1_555
C11_65 N2_65 1_555 1_555
H8_65 C11_65 1_555 1_555
C12_65 C10_65 1_555 1_555
O7_65 Er1_41 1_555 1_555
O8_65 Er1_41 1_555 1_555
O9_65 Er1_41 1_555 1_555
Er2_16 O6_41 1_555 1_555
Cr4_10 O2_41 1_555 1_555
Cr4_38 O3_41 1_555 1_555
O14_41 Er1_41 1_555 1_555
O15_41 Er1_41 1_555 1_555
C4_65 C5_65 1_555 1_555
C4_65 C6_65 1_555 1_555
C10_65 C11_65 1_555 1_555
Cr4_10 O14_41 1_555 1_555
O9_65 H9_65 1_555 1_555
O9_65 H10_65 1_555 1_555
O7_65 H11_56 1_555 1_555
O7_65 H12_65 1_555 1_555
O8_65 H13_65 1_555 1_555
O8_65 H14_65 1_555 1_555
Er3_13 O4_41 1_555 1_555
O12_41 Cr4_33 1_555 1_555
O13_41 Cr4_33 1_555 1_555
Cr4_33 O4_41 1_555 1_555
Er3_13 O11_33 1_555 1_555
Er1_42 O11_9 1_555 1_555
Cr4_34 O11_9 1_555 1_555
O2_42 C6_66 1_555 1_555
O3_42 C12_66 1_555 1_555
O4_42 Er1_42 1_555 1_555
O5_66 Er1_42 1_555 1_555
O6_42 C12_66 1_555 1_555
N1_66 C1_66 1_555 1_555
N2_66 Er1_42 1_555 1_555
C1_66 H1_66 1_555 1_555
C2_66 C1_66 1_555 1_555
H2_66 C2_66 1_555 1_555
C3_66 C2_66 1_555 1_555
H3_66 C3_66 1_555 1_555
C4_66 C3_66 1_555 1_555
C5_66 N1_66 1_555 1_555
H4_66 C5_66 1_555 1_555
C6_66 O5_66 1_555 1_555
C7_66 N2_66 1_555 1_555
H5_66 C7_66 1_555 1_555
C8_66 C7_66 1_555 1_555
H6_66 C8_66 1_555 1_555
C9_66 C8_66 1_555 1_555
H7_66 C9_66 1_555 1_555
C10_66 C9_66 1_555 1_555
C11_66 N2_66 1_555 1_555
H8_66 C11_66 1_555 1_555
C12_66 C10_66 1_555 1_555
O7_66 Er1_42 1_555 1_555
O8_66 Er1_42 1_555 1_555
O9_66 Er1_42 1_555 1_555
Er3_15 O4_42 1_555 1_555
Er2_14 O6_42 1_555 1_555
Cr4_9 O2_42 1_555 1_555
Cr4_39 O3_42 1_555 1_555
O12_42 Cr4_34 1_555 1_555
O13_42 Cr4_34 1_555 1_555
O14_42 Er1_42 1_555 1_555
O15_42 Er1_42 1_555 1_555
Cr4_34 O4_42 1_555 1_555
C4_66 C5_66 1_555 1_555
C4_66 C6_66 1_555 1_555
C10_66 C11_66 1_555 1_555
Er3_15 O11_34 1_555 1_555
Er3_15 O14_42 1_555 1_555
Cr4_9 O11_34 1_555 1_555
Cr4_9 O14_42 1_555 1_555
O9_66 H9_66 1_555 1_555
O9_66 H10_66 1_555 1_555
O7_66 H11_57 1_555 1_555
O7_66 H12_66 1_555 1_555
O8_66 H13_66 1_555 1_555
O8_66 H14_66 1_555 1_555
Er1_43 O11_11 1_555 1_555
Cr4_36 O11_11 1_555 1_555
O2_43 C6_67 1_555 1_555
O3_43 C12_67 1_555 1_555
O4_43 Er1_43 1_555 1_555
O5_67 Er1_43 1_555 1_555
O6_43 C12_67 1_555 1_555
N1_67 C1_67 1_555 1_555
N2_67 Er1_43 1_555 1_555
C1_67 H1_67 1_555 1_555
C2_67 C1_67 1_555 1_555
H2_67 C2_67 1_555 1_555
C3_67 C2_67 1_555 1_555
H3_67 C3_67 1_555 1_555
C4_67 C3_67 1_555 1_555
C5_67 N1_67 1_555 1_555
H4_67 C5_67 1_555 1_555
C6_67 O5_67 1_555 1_555
C7_67 N2_67 1_555 1_555
H5_67 C7_67 1_555 1_555
C8_67 C7_67 1_555 1_555
H6_67 C8_67 1_555 1_555
C9_67 C8_67 1_555 1_555
H7_67 C9_67 1_555 1_555
C10_67 C9_67 1_555 1_555
C11_67 N2_67 1_555 1_555
H8_67 C11_67 1_555 1_555
C12_67 C10_67 1_555 1_555
O7_67 Er1_43 1_555 1_555
O8_67 Er1_43 1_555 1_555
O9_67 Er1_43 1_555 1_555
Er3_14 O4_43 1_555 1_555
Er2_15 O6_43 1_555 1_555
Cr4_11 O2_43 1_555 1_555
Cr4_37 O3_43 1_555 1_555
O12_43 Cr4_36 1_555 1_555
O13_43 Cr4_36 1_555 1_555
O14_43 Er1_43 1_555 1_555
O15_43 Er1_43 1_555 1_555
Cr4_36 O4_43 1_555 1_555
C4_67 C5_67 1_555 1_555
C4_67 C6_67 1_555 1_555
C10_67 C11_67 1_555 1_555
Er3_14 O11_36 1_555 1_555
Er3_14 O14_43 1_555 1_555
Cr4_11 O11_36 1_555 1_555
Cr4_11 O14_43 1_555 1_555
O9_67 H9_67 1_555 1_555
O9_67 H10_67 1_555 1_555
O7_67 H11_58 1_555 1_555
O7_67 H12_67 1_555 1_555
O8_67 H13_67 1_555 1_555
O8_67 H14_67 1_555 1_555
Er3_16 O4_44 1_555 1_555
O12_44 Cr4_35 1_555 1_555
O13_44 Cr4_35 1_555 1_555
Cr4_35 O4_44 1_555 1_555
Er3_16 O11_35 1_555 1_555
Er1_44 O11_12 1_555 1_555
O2_44 C6_68 1_555 1_555
O3_44 C12_68 1_555 1_555
O5_68 Er1_44 1_555 1_555
O6_44 C12_68 1_555 1_555
N1_68 C1_68 1_555 1_555
N2_68 Er1_44 1_555 1_555
C1_68 H1_68 1_555 1_555
C2_68 C1_68 1_555 1_555
H2_68 C2_68 1_555 1_555
C3_68 C2_68 1_555 1_555
H3_68 C3_68 1_555 1_555
C4_68 C3_68 1_555 1_555
C5_68 N1_68 1_555 1_555
H4_68 C5_68 1_555 1_555
C6_68 O5_68 1_555 1_555
C7_68 N2_68 1_555 1_555
H5_68 C7_68 1_555 1_555
C8_68 C7_68 1_555 1_555
H6_68 C8_68 1_555 1_555
C9_68 C8_68 1_555 1_555
H7_68 C9_68 1_555 1_555
C10_68 C9_68 1_555 1_555
C11_68 N2_68 1_555 1_555
H8_68 C11_68 1_555 1_555
C12_68 C10_68 1_555 1_555
O7_68 Er1_44 1_555 1_555
O8_68 Er1_44 1_555 1_555
O9_68 Er1_44 1_555 1_555
Er2_13 O6_44 1_555 1_555
Cr4_12 O2_44 1_555 1_555
Cr4_40 O3_44 1_555 1_555
O14_44 Er1_44 1_555 1_555
O15_44 Er1_44 1_555 1_555
C4_68 C5_68 1_555 1_555
C4_68 C6_68 1_555 1_555
C10_68 C11_68 1_555 1_555
Cr4_12 O14_44 1_555 1_555
O9_68 H9_68 1_555 1_555
O9_68 H10_68 1_555 1_555
O7_68 H11_59 1_555 1_555
O7_68 H12_68 1_555 1_555
O8_68 H13_68 1_555 1_555
O8_68 H14_68 1_555 1_555
Er1_45 O11_5 1_555 1_555
Cr4_30 O11_5 1_555 1_555
O2_45 C6_69 1_555 1_555
O3_45 C12_69 1_555 1_555
O4_45 Er1_45 1_555 1_555
O5_69 Er1_45 1_555 1_555
O6_45 C12_69 1_555 1_555
N1_69 C1_69 1_555 1_555
N2_69 Er1_45 1_555 1_555
C1_69 H1_69 1_555 1_555
C2_69 C1_69 1_555 1_555
H2_69 C2_69 1_555 1_555
C3_69 C2_69 1_555 1_555
H3_69 C3_69 1_555 1_555
C4_69 C3_69 1_555 1_555
C5_69 N1_69 1_555 1_555
H4_69 C5_69 1_555 1_555
C6_69 O5_69 1_555 1_555
C7_69 N2_69 1_555 1_555
H5_69 C7_69 1_555 1_555
C8_69 C7_69 1_555 1_555
H6_69 C8_69 1_555 1_555
C9_69 C8_69 1_555 1_555
H7_69 C9_69 1_555 1_555
C10_69 C9_69 1_555 1_555
C11_69 N2_69 1_555 1_555
H8_69 C11_69 1_555 1_555
C12_69 C10_69 1_555 1_555
O7_69 Er1_45 1_555 1_555
O8_69 Er1_45 1_555 1_555
O9_69 Er1_45 1_555 1_555
Er3_23 O4_45 1_555 1_555
Er2_22 O6_45 1_555 1_555
Cr4_5 O2_45 1_555 1_555
Cr4_42 O3_45 1_555 1_555
O12_45 Cr4_30 1_555 1_555
O13_45 Cr4_30 1_555 1_555
O14_45 Er1_45 1_555 1_555
O15_45 Er1_45 1_555 1_555
Cr4_30 O4_45 1_555 1_555
C4_69 C5_69 1_555 1_555
C4_69 C6_69 1_555 1_555
C10_69 C11_69 1_555 1_555
Er3_23 O11_30 1_555 1_555
Er3_23 O14_45 1_555 1_555
Cr4_5 O11_30 1_555 1_555
Cr4_5 O14_45 1_555 1_555
O9_69 H9_69 1_555 1_555
O9_69 H10_69 1_555 1_555
O7_69 H11_60 1_555 1_555
O7_69 H12_69 1_555 1_555
O8_69 H13_69 1_555 1_555
O8_69 H14_69 1_555 1_555
Er1_46 O11_6 1_555 1_555
O2_46 C6_70 1_555 1_555
O3_46 C12_70 1_555 1_555
O5_70 Er1_46 1_555 1_555
O6_46 C12_70 1_555 1_555
N1_70 C1_70 1_555 1_555
N2_70 Er1_46 1_555 1_555
C1_70 H1_70 1_555 1_555
C2_70 C1_70 1_555 1_555
H2_70 C2_70 1_555 1_555
C3_70 C2_70 1_555 1_555
H3_70 C3_70 1_555 1_555
C4_70 C3_70 1_555 1_555
C5_70 N1_70 1_555 1_555
H4_70 C5_70 1_555 1_555
C6_70 O5_70 1_555 1_555
C7_70 N2_70 1_555 1_555
H5_70 C7_70 1_555 1_555
C8_70 C7_70 1_555 1_555
H6_70 C8_70 1_555 1_555
C9_70 C8_70 1_555 1_555
H7_70 C9_70 1_555 1_555
C10_70 C9_70 1_555 1_555
C11_70 N2_70 1_555 1_555
H8_70 C11_70 1_555 1_555
C12_70 C10_70 1_555 1_555
O7_70 Er1_46 1_555 1_555
O8_70 Er1_46 1_555 1_555
O9_70 Er1_46 1_555 1_555
Er2_24 O6_46 1_555 1_555
Cr4_6 O2_46 1_555 1_555
Cr4_43 O3_46 1_555 1_555
O14_46 Er1_46 1_555 1_555
O15_46 Er1_46 1_555 1_555
C4_70 C5_70 1_555 1_555
C4_70 C6_70 1_555 1_555
C10_70 C11_70 1_555 1_555
Cr4_6 O14_46 1_555 1_555
O9_70 H9_70 1_555 1_555
O9_70 H10_70 1_555 1_555
O7_70 H11_61 1_555 1_555
O7_70 H12_70 1_555 1_555
O8_70 H13_70 1_555 1_555
O8_70 H14_70 1_555 1_555
Er3_21 O4_46 1_555 1_555
O12_46 Cr4_29 1_555 1_555
O13_46 Cr4_29 1_555 1_555
Cr4_29 O4_46 1_555 1_555
Er3_21 O11_29 1_555 1_555
Er3_24 O4_47 1_555 1_555
O12_47 Cr4_31 1_555 1_555
O13_47 Cr4_31 1_555 1_555
Cr4_31 O4_47 1_555 1_555
Er3_24 O11_31 1_555 1_555
Er1_47 O11_8 1_555 1_555
O2_47 C6_71 1_555 1_555
O3_47 C12_71 1_555 1_555
O5_71 Er1_47 1_555 1_555
O6_47 C12_71 1_555 1_555
N1_71 C1_71 1_555 1_555
N2_71 Er1_47 1_555 1_555
C1_71 H1_71 1_555 1_555
C2_71 C1_71 1_555 1_555
H2_71 C2_71 1_555 1_555
C3_71 C2_71 1_555 1_555
H3_71 C3_71 1_555 1_555
C4_71 C3_71 1_555 1_555
C5_71 N1_71 1_555 1_555
H4_71 C5_71 1_555 1_555
C6_71 O5_71 1_555 1_555
C7_71 N2_71 1_555 1_555
H5_71 C7_71 1_555 1_555
C8_71 C7_71 1_555 1_555
H6_71 C8_71 1_555 1_555
C9_71 C8_71 1_555 1_555
H7_71 C9_71 1_555 1_555
C10_71 C9_71 1_555 1_555
C11_71 N2_71 1_555 1_555
H8_71 C11_71 1_555 1_555
C12_71 C10_71 1_555 1_555
O7_71 Er1_47 1_555 1_555
O8_71 Er1_47 1_555 1_555
O9_71 Er1_47 1_555 1_555
Er2_21 O6_47 1_555 1_555
Cr4_8 O2_47 1_555 1_555
Cr4_41 O3_47 1_555 1_555
O14_47 Er1_47 1_555 1_555
O15_47 Er1_47 1_555 1_555
C4_71 C5_71 1_555 1_555
C4_71 C6_71 1_555 1_555
C10_71 C11_71 1_555 1_555
Cr4_8 O14_47 1_555 1_555
O9_71 H9_71 1_555 1_555
O9_71 H10_71 1_555 1_555
O7_71 H11_62 1_555 1_555
O7_71 H12_71 1_555 1_555
O8_71 H13_71 1_555 1_555
O8_71 H14_71 1_555 1_555
Er1_48 O11_7 1_555 1_555
Cr4_32 O11_7 1_555 1_555
O2_48 C6_72 1_555 1_555
O3_48 C12_72 1_555 1_555
O4_48 Er1_48 1_555 1_555
O5_72 Er1_48 1_555 1_555
O6_48 C12_72 1_555 1_555
N1_72 C1_72 1_555 1_555
N2_72 Er1_48 1_555 1_555
C1_72 H1_72 1_555 1_555
C2_72 C1_72 1_555 1_555
H2_72 C2_72 1_555 1_555
C3_72 C2_72 1_555 1_555
H3_72 C3_72 1_555 1_555
C4_72 C3_72 1_555 1_555
C5_72 N1_72 1_555 1_555
H4_72 C5_72 1_555 1_555
C6_72 O5_72 1_555 1_555
C7_72 N2_72 1_555 1_555
H5_72 C7_72 1_555 1_555
C8_72 C7_72 1_555 1_555
H6_72 C8_72 1_555 1_555
C9_72 C8_72 1_555 1_555
H7_72 C9_72 1_555 1_555
C10_72 C9_72 1_555 1_555
C11_72 N2_72 1_555 1_555
H8_72 C11_72 1_555 1_555
C12_72 C10_72 1_555 1_555
O7_72 Er1_48 1_555 1_555
O8_72 Er1_48 1_555 1_555
O9_72 Er1_48 1_555 1_555
Er3_22 O4_48 1_555 1_555
Er2_23 O6_48 1_555 1_555
Cr4_7 O2_48 1_555 1_555
Cr4_44 O3_48 1_555 1_555
O12_48 Cr4_32 1_555 1_555
O13_48 Cr4_32 1_555 1_555
O14_48 Er1_48 1_555 1_555
O15_48 Er1_48 1_555 1_555
Cr4_32 O4_48 1_555 1_555
C4_72 C5_72 1_555 1_555
C4_72 C6_72 1_555 1_555
C10_72 C11_72 1_555 1_555
Er3_22 O11_32 1_555 1_555
Er3_22 O14_48 1_555 1_555
Cr4_7 O11_32 1_555 1_555
Cr4_7 O14_48 1_555 1_555
O9_72 H9_72 1_555 1_555
O9_72 H10_72 1_555 1_555
O7_72 H11_63 1_555 1_555
O7_72 H12_72 1_555 1_555
O8_72 H13_72 1_555 1_555
O8_72 H14_72 1_555 1_555
O13_42 C12_73 1_555 1_555
O5_73 Er2_14 1_555 1_555
O15_42 C12_73 1_555 1_555
N2_73 Er2_14 1_555 1_555
C7_73 N2_73 1_555 1_555
H5_73 C7_73 1_555 1_555
C8_73 C7_73 1_555 1_555
H6_73 C8_73 1_555 1_555
C9_73 C8_73 1_555 1_555
H7_73 C9_73 1_555 1_555
C10_73 C9_73 1_555 1_555
C11_73 N2_73 1_555 1_555
H8_73 C11_73 1_555 1_555
C12_73 C10_73 1_555 1_555
O7_73 Er2_14 1_555 1_555
O8_73 Er2_14 1_555 1_555
O9_73 Er2_14 1_555 1_555
C10_73 C11_73 1_555 1_555
O9_73 H9_73 1_555 1_555
O9_73 H10_73 1_555 1_555
O7_73 H12_73 1_555 1_555
O8_73 H13_73 1_555 1_555
O8_73 H14_73 1_555 1_555
O12_26 C6_73 1_555 1_555
N1_73 C1_73 1_555 1_555
C1_73 H1_73 1_555 1_555
C2_73 C1_73 1_555 1_555
H2_73 C2_73 1_555 1_555
C3_73 C2_73 1_555 1_555
H3_73 C3_73 1_555 1_555
C4_73 C3_73 1_555 1_555
C5_73 N1_73 1_555 1_555
H4_73 C5_73 1_555 1_555
C4_73 C5_73 1_555 1_555
C4_73 C6_73 1_555 1_555
O13_44 C12_74 1_555 1_555
H5_74 C7_74 1_555 1_555
C8_74 C7_74 1_555 1_555
H6_74 C8_74 1_555 1_555
C9_74 C8_74 1_555 1_555
H7_74 C9_74 1_555 1_555
C10_74 C9_74 1_555 1_555
C12_74 C10_74 1_555 1_555
O9_74 H10_74 1_555 1_555
O7_74 H11_65 1_555 1_555
O7_74 H12_74 1_555 1_555
O12_25 C6_74 1_555 1_555
O5_74 Er2_13 1_555 1_555
N1_74 C1_74 1_555 1_555
N2_74 Er2_13 1_555 1_555
C1_74 H1_74 1_555 1_555
C2_74 C1_74 1_555 1_555
H2_74 C2_74 1_555 1_555
C3_74 C2_74 1_555 1_555
H3_74 C3_74 1_555 1_555
C4_74 C3_74 1_555 1_555
C5_74 N1_74 1_555 1_555
H4_74 C5_74 1_555 1_555
C6_74 O5_74 1_555 1_555
C11_74 N2_74 1_555 1_555
H8_74 C11_74 1_555 1_555
O8_74 Er2_13 1_555 1_555
C4_74 C5_74 1_555 1_555
C4_74 C6_74 1_555 1_555
O8_74 H13_74 1_555 1_555
O8_74 H14_74 1_555 1_555
O12_28 C6_75 1_555 1_555
N1_75 C1_75 1_555 1_555
C1_75 H1_75 1_555 1_555
C2_75 C1_75 1_555 1_555
H2_75 C2_75 1_555 1_555
C3_75 C2_75 1_555 1_555
H3_75 C3_75 1_555 1_555
C4_75 C3_75 1_555 1_555
C5_75 N1_75 1_555 1_555
H4_75 C5_75 1_555 1_555
C4_75 C5_75 1_555 1_555
C4_75 C6_75 1_555 1_555
O5_75 Er2_16 1_555 1_555
N2_75 Er2_16 1_555 1_555
C11_75 N2_75 1_555 1_555
H8_75 C11_75 1_555 1_555
O8_75 Er2_16 1_555 1_555
O8_75 H13_75 1_555 1_555
O8_75 H14_75 1_555 1_555
O13_41 C12_75 1_555 1_555
H5_75 C7_75 1_555 1_555
C8_75 C7_75 1_555 1_555
H6_75 C8_75 1_555 1_555
C9_75 C8_75 1_555 1_555
H7_75 C9_75 1_555 1_555
C10_75 C9_75 1_555 1_555
C12_75 C10_75 1_555 1_555
O9_75 H10_75 1_555 1_555
O7_75 H12_75 1_555 1_555
O12_27 C6_76 1_555 1_555
O13_43 C12_76 1_555 1_555
O5_76 Er2_15 1_555 1_555
O15_43 C12_76 1_555 1_555
N1_76 C1_76 1_555 1_555
N2_76 Er2_15 1_555 1_555
C1_76 H1_76 1_555 1_555
C2_76 C1_76 1_555 1_555
H2_76 C2_76 1_555 1_555
C3_76 C2_76 1_555 1_555
H3_76 C3_76 1_555 1_555
C4_76 C3_76 1_555 1_555
C5_76 N1_76 1_555 1_555
H4_76 C5_76 1_555 1_555
C6_76 O5_76 1_555 1_555
C7_76 N2_76 1_555 1_555
H5_76 C7_76 1_555 1_555
C8_76 C7_76 1_555 1_555
H6_76 C8_76 1_555 1_555
C9_76 C8_76 1_555 1_555
H7_76 C9_76 1_555 1_555
C10_76 C9_76 1_555 1_555
C11_76 N2_76 1_555 1_555
H8_76 C11_76 1_555 1_555
C12_76 C10_76 1_555 1_555
O7_76 Er2_15 1_555 1_555
O8_76 Er2_15 1_555 1_555
O9_76 Er2_15 1_555 1_555
C4_76 C5_76 1_555 1_555
C4_76 C6_76 1_555 1_555
C10_76 C11_76 1_555 1_555
O9_76 H9_76 1_555 1_555
O9_76 H10_76 1_555 1_555
O7_76 H11_66 1_555 1_555
O7_76 H12_76 1_555 1_555
O8_76 H13_76 1_555 1_555
O8_76 H14_76 1_555 1_555
O13_39 C12_77 1_555 1_555
O5_77 Er2_18 1_555 1_555
O15_39 C12_77 1_555 1_555
N2_77 Er2_18 1_555 1_555
C7_77 N2_77 1_555 1_555
H5_77 C7_77 1_555 1_555
C8_77 C7_77 1_555 1_555
H6_77 C8_77 1_555 1_555
C9_77 C8_77 1_555 1_555
H7_77 C9_77 1_555 1_555
C10_77 C9_77 1_555 1_555
C11_77 N2_77 1_555 1_555
H8_77 C11_77 1_555 1_555
C12_77 C10_77 1_555 1_555
O7_77 Er2_18 1_555 1_555
O8_77 Er2_18 1_555 1_555
O9_77 Er2_18 1_555 1_555
C10_77 C11_77 1_555 1_555
O9_77 H9_77 1_555 1_555
O9_77 H10_77 1_555 1_555
O7_77 H12_77 1_555 1_555
O8_77 H13_77 1_555 1_555
O8_77 H14_77 1_555 1_555
O12_30 C6_77 1_555 1_555
N1_77 C1_77 1_555 1_555
C1_77 H1_77 1_555 1_555
C2_77 C1_77 1_555 1_555
H2_77 C2_77 1_555 1_555
C3_77 C2_77 1_555 1_555
H3_77 C3_77 1_555 1_555
C4_77 C3_77 1_555 1_555
C5_77 N1_77 1_555 1_555
H4_77 C5_77 1_555 1_555
C4_77 C5_77 1_555 1_555
C4_77 C6_77 1_555 1_555
O13_37 C12_78 1_555 1_555
H5_78 C7_78 1_555 1_555
C8_78 C7_78 1_555 1_555
H6_78 C8_78 1_555 1_555
C9_78 C8_78 1_555 1_555
H7_78 C9_78 1_555 1_555
C10_78 C9_78 1_555 1_555
C12_78 C10_78 1_555 1_555
O9_78 H10_78 1_555 1_555
O7_78 H11_68 1_555 1_555
O7_78 H12_78 1_555 1_555
O12_29 C6_78 1_555 1_555
O5_78 Er2_17 1_555 1_555
N1_78 C1_78 1_555 1_555
N2_78 Er2_17 1_555 1_555
C1_78 H1_78 1_555 1_555
C2_78 C1_78 1_555 1_555
H2_78 C2_78 1_555 1_555
C3_78 C2_78 1_555 1_555
H3_78 C3_78 1_555 1_555
C4_78 C3_78 1_555 1_555
C5_78 N1_78 1_555 1_555
H4_78 C5_78 1_555 1_555
C6_78 O5_78 1_555 1_555
C11_78 N2_78 1_555 1_555
H8_78 C11_78 1_555 1_555
O8_78 Er2_17 1_555 1_555
C4_78 C5_78 1_555 1_555
C4_78 C6_78 1_555 1_555
O8_78 H13_78 1_555 1_555
O8_78 H14_78 1_555 1_555
O12_32 C6_79 1_555 1_555
N1_79 C1_79 1_555 1_555
C1_79 H1_79 1_555 1_555
C2_79 C1_79 1_555 1_555
H2_79 C2_79 1_555 1_555
C3_79 C2_79 1_555 1_555
H3_79 C3_79 1_555 1_555
C4_79 C3_79 1_555 1_555
C5_79 N1_79 1_555 1_555
H4_79 C5_79 1_555 1_555
C4_79 C5_79 1_555 1_555
C4_79 C6_79 1_555 1_555
O5_79 Er2_20 1_555 1_555
N2_79 Er2_20 1_555 1_555
C11_79 N2_79 1_555 1_555
H8_79 C11_79 1_555 1_555
O8_79 Er2_20 1_555 1_555
O8_79 H13_79 1_555 1_555
O8_79 H14_79 1_555 1_555
O13_40 C12_79 1_555 1_555
H5_79 C7_79 1_555 1_555
C8_79 C7_79 1_555 1_555
H6_79 C8_79 1_555 1_555
C9_79 C8_79 1_555 1_555
H7_79 C9_79 1_555 1_555
C10_79 C9_79 1_555 1_555
C12_79 C10_79 1_555 1_555
O9_79 H10_79 1_555 1_555
O7_79 H12_79 1_555 1_555
O12_31 C6_80 1_555 1_555
O13_38 C12_80 1_555 1_555
O5_80 Er2_19 1_555 1_555
O15_38 C12_80 1_555 1_555
N1_80 C1_80 1_555 1_555
N2_80 Er2_19 1_555 1_555
C1_80 H1_80 1_555 1_555
C2_80 C1_80 1_555 1_555
H2_80 C2_80 1_555 1_555
C3_80 C2_80 1_555 1_555
H3_80 C3_80 1_555 1_555
C4_80 C3_80 1_555 1_555
C5_80 N1_80 1_555 1_555
H4_80 C5_80 1_555 1_555
C6_80 O5_80 1_555 1_555
C7_80 N2_80 1_555 1_555
H5_80 C7_80 1_555 1_555
C8_80 C7_80 1_555 1_555
H6_80 C8_80 1_555 1_555
C9_80 C8_80 1_555 1_555
H7_80 C9_80 1_555 1_555
C10_80 C9_80 1_555 1_555
C11_80 N2_80 1_555 1_555
H8_80 C11_80 1_555 1_555
C12_80 C10_80 1_555 1_555
O7_80 Er2_19 1_555 1_555
O8_80 Er2_19 1_555 1_555
O9_80 Er2_19 1_555 1_555
C4_80 C5_80 1_555 1_555
C4_80 C6_80 1_555 1_555
C10_80 C11_80 1_555 1_555
O9_80 H9_80 1_555 1_555
O9_80 H10_80 1_555 1_555
O7_80 H11_69 1_555 1_555
O7_80 H12_80 1_555 1_555
O8_80 H13_80 1_555 1_555
O8_80 H14_80 1_555 1_555
O13_45 C12_81 1_555 1_555
O5_81 Er2_22 1_555 1_555
O15_45 C12_81 1_555 1_555
N2_81 Er2_22 1_555 1_555
C7_81 N2_81 1_555 1_555
H5_81 C7_81 1_555 1_555
C8_81 C7_81 1_555 1_555
H6_81 C8_81 1_555 1_555
C9_81 C8_81 1_555 1_555
H7_81 C9_81 1_555 1_555
C10_81 C9_81 1_555 1_555
C11_81 N2_81 1_555 1_555
H8_81 C11_81 1_555 1_555
C12_81 C10_81 1_555 1_555
O7_81 Er2_22 1_555 1_555
O8_81 Er2_22 1_555 1_555
O9_81 Er2_22 1_555 1_555
C10_81 C11_81 1_555 1_555
O9_81 H9_81 1_555 1_555
O9_81 H10_81 1_555 1_555
O7_81 H12_81 1_555 1_555
O8_81 H13_81 1_555 1_555
O8_81 H14_81 1_555 1_555
O12_34 C6_81 1_555 1_555
N1_81 C1_81 1_555 1_555
C1_81 H1_81 1_555 1_555
C2_81 C1_81 1_555 1_555
H2_81 C2_81 1_555 1_555
C3_81 C2_81 1_555 1_555
H3_81 C3_81 1_555 1_555
C4_81 C3_81 1_555 1_555
C5_81 N1_81 1_555 1_555
H4_81 C5_81 1_555 1_555
C4_81 C5_81 1_555 1_555
C4_81 C6_81 1_555 1_555
O13_47 C12_82 1_555 1_555
H5_82 C7_82 1_555 1_555
C8_82 C7_82 1_555 1_555
H6_82 C8_82 1_555 1_555
C9_82 C8_82 1_555 1_555
H7_82 C9_82 1_555 1_555
C10_82 C9_82 1_555 1_555
C12_82 C10_82 1_555 1_555
O9_82 H10_82 1_555 1_555
O7_82 H11_71 1_555 1_555
O7_82 H12_82 1_555 1_555
O12_33 C6_82 1_555 1_555
O5_82 Er2_21 1_555 1_555
N1_82 C1_82 1_555 1_555
N2_82 Er2_21 1_555 1_555
C1_82 H1_82 1_555 1_555
C2_82 C1_82 1_555 1_555
H2_82 C2_82 1_555 1_555
C3_82 C2_82 1_555 1_555
H3_82 C3_82 1_555 1_555
C4_82 C3_82 1_555 1_555
C5_82 N1_82 1_555 1_555
H4_82 C5_82 1_555 1_555
C6_82 O5_82 1_555 1_555
C11_82 N2_82 1_555 1_555
H8_82 C11_82 1_555 1_555
O8_82 Er2_21 1_555 1_555
C4_82 C5_82 1_555 1_555
C4_82 C6_82 1_555 1_555
O8_82 H13_82 1_555 1_555
O8_82 H14_82 1_555 1_555
O12_36 C6_83 1_555 1_555
N1_83 C1_83 1_555 1_555
C1_83 H1_83 1_555 1_555
C2_83 C1_83 1_555 1_555
H2_83 C2_83 1_555 1_555
C3_83 C2_83 1_555 1_555
H3_83 C3_83 1_555 1_555
C4_83 C3_83 1_555 1_555
C5_83 N1_83 1_555 1_555
H4_83 C5_83 1_555 1_555
C4_83 C5_83 1_555 1_555
C4_83 C6_83 1_555 1_555
O5_83 Er2_24 1_555 1_555
N2_83 Er2_24 1_555 1_555
C11_83 N2_83 1_555 1_555
H8_83 C11_83 1_555 1_555
O8_83 Er2_24 1_555 1_555
O8_83 H13_83 1_555 1_555
O8_83 H14_83 1_555 1_555
O13_46 C12_83 1_555 1_555
H5_83 C7_83 1_555 1_555
C8_83 C7_83 1_555 1_555
H6_83 C8_83 1_555 1_555
C9_83 C8_83 1_555 1_555
H7_83 C9_83 1_555 1_555
C10_83 C9_83 1_555 1_555
C12_83 C10_83 1_555 1_555
O9_83 H10_83 1_555 1_555
O7_83 H12_83 1_555 1_555
O12_35 C6_84 1_555 1_555
O13_48 C12_84 1_555 1_555
O5_84 Er2_23 1_555 1_555
O15_48 C12_84 1_555 1_555
N1_84 C1_84 1_555 1_555
N2_84 Er2_23 1_555 1_555
C1_84 H1_84 1_555 1_555
C2_84 C1_84 1_555 1_555
H2_84 C2_84 1_555 1_555
C3_84 C2_84 1_555 1_555
H3_84 C3_84 1_555 1_555
C4_84 C3_84 1_555 1_555
C5_84 N1_84 1_555 1_555
H4_84 C5_84 1_555 1_555
C6_84 O5_84 1_555 1_555
C7_84 N2_84 1_555 1_555
H5_84 C7_84 1_555 1_555
C8_84 C7_84 1_555 1_555
H6_84 C8_84 1_555 1_555
C9_84 C8_84 1_555 1_555
H7_84 C9_84 1_555 1_555
C10_84 C9_84 1_555 1_555
C11_84 N2_84 1_555 1_555
H8_84 C11_84 1_555 1_555
C12_84 C10_84 1_555 1_555
O7_84 Er2_23 1_555 1_555
O8_84 Er2_23 1_555 1_555
O9_84 Er2_23 1_555 1_555
C4_84 C5_84 1_555 1_555
C4_84 C6_84 1_555 1_555
C10_84 C11_84 1_555 1_555
O9_84 H9_84 1_555 1_555
O9_84 H10_84 1_555 1_555
O7_84 H11_72 1_555 1_555
O7_84 H12_84 1_555 1_555
O8_84 H13_84 1_555 1_555
O8_84 H14_84 1_555 1_555
O12_38 C6_85 1_555 1_555
O13_30 C12_85 1_555 1_555
O5_85 Er3_18 1_555 1_555
O15_30 C12_85 1_555 1_555
N1_85 C1_85 1_555 1_555
N2_85 Er3_18 1_555 1_555
C1_85 H1_85 1_555 1_555
C2_85 C1_85 1_555 1_555
H2_85 C2_85 1_555 1_555
C3_85 C2_85 1_555 1_555
H3_85 C3_85 1_555 1_555
C4_85 C3_85 1_555 1_555
C5_85 N1_85 1_555 1_555
H4_85 C5_85 1_555 1_555
C6_85 O5_85 1_555 1_555
C7_85 N2_85 1_555 1_555
H5_85 C7_85 1_555 1_555
C8_85 C7_85 1_555 1_555
H6_85 C8_85 1_555 1_555
C9_85 C8_85 1_555 1_555
H7_85 C9_85 1_555 1_555
C10_85 C9_85 1_555 1_555
C11_85 N2_85 1_555 1_555
H8_85 C11_85 1_555 1_555
C12_85 C10_85 1_555 1_555
O7_85 Er3_18 1_555 1_555
O8_85 Er3_18 1_555 1_555
O9_85 Er3_18 1_555 1_555
C4_85 C5_85 1_555 1_555
C4_85 C6_85 1_555 1_555
C10_85 C11_85 1_555 1_555
O9_85 H9_85 1_555 1_555
O9_85 H10_85 1_555 1_555
O7_85 H11_73 1_555 1_555
O7_85 H12_85 1_555 1_555
O8_85 H13_85 1_555 1_555
O8_85 H14_85 1_555 1_555
O12_37 C6_86 1_555 1_555
O13_32 C12_86 1_555 1_555
O5_86 Er3_20 1_555 1_555
O15_32 C12_86 1_555 1_555
N1_86 C1_86 1_555 1_555
N2_86 Er3_20 1_555 1_555
C1_86 H1_86 1_555 1_555
C2_86 C1_86 1_555 1_555
H2_86 C2_86 1_555 1_555
C3_86 C2_86 1_555 1_555
H3_86 C3_86 1_555 1_555
C4_86 C3_86 1_555 1_555
C5_86 N1_86 1_555 1_555
H4_86 C5_86 1_555 1_555
C6_86 O5_86 1_555 1_555
C7_86 N2_86 1_555 1_555
H5_86 C7_86 1_555 1_555
C8_86 C7_86 1_555 1_555
H6_86 C8_86 1_555 1_555
C9_86 C8_86 1_555 1_555
H7_86 C9_86 1_555 1_555
C10_86 C9_86 1_555 1_555
C11_86 N2_86 1_555 1_555
H8_86 C11_86 1_555 1_555
C12_86 C10_86 1_555 1_555
O7_86 Er3_20 1_555 1_555
O8_86 Er3_20 1_555 1_555
O9_86 Er3_20 1_555 1_555
C4_86 C5_86 1_555 1_555
C4_86 C6_86 1_555 1_555
C10_86 C11_86 1_555 1_555
O9_86 H9_86 1_555 1_555
O9_86 H10_86 1_555 1_555
O7_86 H11_74 1_555 1_555
O7_86 H12_86 1_555 1_555
O8_86 H13_86 1_555 1_555
O8_86 H14_86 1_555 1_555
O12_40 C6_87 1_555 1_555
O13_29 C12_87 1_555 1_555
O5_87 Er3_17 1_555 1_555
O15_29 C12_87 1_555 1_555
N1_87 C1_87 1_555 1_555
N2_87 Er3_17 1_555 1_555
C1_87 H1_87 1_555 1_555
C2_87 C1_87 1_555 1_555
H2_87 C2_87 1_555 1_555
C3_87 C2_87 1_555 1_555
H3_87 C3_87 1_555 1_555
C4_87 C3_87 1_555 1_555
C5_87 N1_87 1_555 1_555
H4_87 C5_87 1_555 1_555
C6_87 O5_87 1_555 1_555
C7_87 N2_87 1_555 1_555
H5_87 C7_87 1_555 1_555
C8_87 C7_87 1_555 1_555
H6_87 C8_87 1_555 1_555
C9_87 C8_87 1_555 1_555
H7_87 C9_87 1_555 1_555
C10_87 C9_87 1_555 1_555
C11_87 N2_87 1_555 1_555
H8_87 C11_87 1_555 1_555
C12_87 C10_87 1_555 1_555
O7_87 Er3_17 1_555 1_555
O8_87 Er3_17 1_555 1_555
O9_87 Er3_17 1_555 1_555
C4_87 C5_87 1_555 1_555
C4_87 C6_87 1_555 1_555
C10_87 C11_87 1_555 1_555
O9_87 H9_87 1_555 1_555
O9_87 H10_87 1_555 1_555
O7_87 H11_75 1_555 1_555
O7_87 H12_87 1_555 1_555
O8_87 H13_87 1_555 1_555
O8_87 H14_87 1_555 1_555
O12_39 C6_88 1_555 1_555
O13_31 C12_88 1_555 1_555
O5_88 Er3_19 1_555 1_555
O15_31 C12_88 1_555 1_555
N1_88 C1_88 1_555 1_555
N2_88 Er3_19 1_555 1_555
C1_88 H1_88 1_555 1_555
C2_88 C1_88 1_555 1_555
H2_88 C2_88 1_555 1_555
C3_88 C2_88 1_555 1_555
H3_88 C3_88 1_555 1_555
C4_88 C3_88 1_555 1_555
C5_88 N1_88 1_555 1_555
H4_88 C5_88 1_555 1_555
C6_88 O5_88 1_555 1_555
C7_88 N2_88 1_555 1_555
H5_88 C7_88 1_555 1_555
C8_88 C7_88 1_555 1_555
H6_88 C8_88 1_555 1_555
C9_88 C8_88 1_555 1_555
H7_88 C9_88 1_555 1_555
C10_88 C9_88 1_555 1_555
C11_88 N2_88 1_555 1_555
H8_88 C11_88 1_555 1_555
C12_88 C10_88 1_555 1_555
O7_88 Er3_19 1_555 1_555
O8_88 Er3_19 1_555 1_555
O9_88 Er3_19 1_555 1_555
C4_88 C5_88 1_555 1_555
C4_88 C6_88 1_555 1_555
C10_88 C11_88 1_555 1_555
O9_88 H9_88 1_555 1_555
O9_88 H10_88 1_555 1_555
O7_88 H11_76 1_555 1_555
O7_88 H12_88 1_555 1_555
O8_88 H13_88 1_555 1_555
O8_88 H14_88 1_555 1_555
O12_42 C6_89 1_555 1_555
O13_27 C12_89 1_555 1_555
O5_89 Er3_15 1_555 1_555
O15_27 C12_89 1_555 1_555
N1_89 C1_89 1_555 1_555
N2_89 Er3_15 1_555 1_555
C1_89 H1_89 1_555 1_555
C2_89 C1_89 1_555 1_555
H2_89 C2_89 1_555 1_555
C3_89 C2_89 1_555 1_555
H3_89 C3_89 1_555 1_555
C4_89 C3_89 1_555 1_555
C5_89 N1_89 1_555 1_555
H4_89 C5_89 1_555 1_555
C6_89 O5_89 1_555 1_555
C7_89 N2_89 1_555 1_555
H5_89 C7_89 1_555 1_555
C8_89 C7_89 1_555 1_555
H6_89 C8_89 1_555 1_555
C9_89 C8_89 1_555 1_555
H7_89 C9_89 1_555 1_555
C10_89 C9_89 1_555 1_555
C11_89 N2_89 1_555 1_555
H8_89 C11_89 1_555 1_555
C12_89 C10_89 1_555 1_555
O7_89 Er3_15 1_555 1_555
O8_89 Er3_15 1_555 1_555
O9_89 Er3_15 1_555 1_555
C4_89 C5_89 1_555 1_555
C4_89 C6_89 1_555 1_555
C10_89 C11_89 1_555 1_555
O9_89 H9_89 1_555 1_555
O9_89 H10_89 1_555 1_555
O7_89 H11_77 1_555 1_555
O7_89 H12_89 1_555 1_555
O8_89 H13_89 1_555 1_555
O8_89 H14_89 1_555 1_555
O12_41 C6_90 1_555 1_555
O13_25 C12_90 1_555 1_555
O5_90 Er3_13 1_555 1_555
O15_25 C12_90 1_555 1_555
N1_90 C1_90 1_555 1_555
N2_90 Er3_13 1_555 1_555
C1_90 H1_90 1_555 1_555
C2_90 C1_90 1_555 1_555
H2_90 C2_90 1_555 1_555
C3_90 C2_90 1_555 1_555
H3_90 C3_90 1_555 1_555
C4_90 C3_90 1_555 1_555
C5_90 N1_90 1_555 1_555
H4_90 C5_90 1_555 1_555
C6_90 O5_90 1_555 1_555
C7_90 N2_90 1_555 1_555
H5_90 C7_90 1_555 1_555
C8_90 C7_90 1_555 1_555
H6_90 C8_90 1_555 1_555
C9_90 C8_90 1_555 1_555
H7_90 C9_90 1_555 1_555
C10_90 C9_90 1_555 1_555
C11_90 N2_90 1_555 1_555
H8_90 C11_90 1_555 1_555
C12_90 C10_90 1_555 1_555
O7_90 Er3_13 1_555 1_555
O8_90 Er3_13 1_555 1_555
O9_90 Er3_13 1_555 1_555
C4_90 C5_90 1_555 1_555
C4_90 C6_90 1_555 1_555
C10_90 C11_90 1_555 1_555
O9_90 H9_90 1_555 1_555
O9_90 H10_90 1_555 1_555
O7_90 H11_78 1_555 1_555
O7_90 H12_90 1_555 1_555
O8_90 H13_90 1_555 1_555
O8_90 H14_90 1_555 1_555
O12_44 C6_91 1_555 1_555
O13_28 C12_91 1_555 1_555
O5_91 Er3_16 1_555 1_555
O15_28 C12_91 1_555 1_555
N1_91 C1_91 1_555 1_555
N2_91 Er3_16 1_555 1_555
C1_91 H1_91 1_555 1_555
C2_91 C1_91 1_555 1_555
H2_91 C2_91 1_555 1_555
C3_91 C2_91 1_555 1_555
H3_91 C3_91 1_555 1_555
C4_91 C3_91 1_555 1_555
C5_91 N1_91 1_555 1_555
H4_91 C5_91 1_555 1_555
C6_91 O5_91 1_555 1_555
C7_91 N2_91 1_555 1_555
H5_91 C7_91 1_555 1_555
C8_91 C7_91 1_555 1_555
H6_91 C8_91 1_555 1_555
C9_91 C8_91 1_555 1_555
H7_91 C9_91 1_555 1_555
C10_91 C9_91 1_555 1_555
C11_91 N2_91 1_555 1_555
H8_91 C11_91 1_555 1_555
C12_91 C10_91 1_555 1_555
O7_91 Er3_16 1_555 1_555
O8_91 Er3_16 1_555 1_555
O9_91 Er3_16 1_555 1_555
C4_91 C5_91 1_555 1_555
C4_91 C6_91 1_555 1_555
C10_91 C11_91 1_555 1_555
O9_91 H9_91 1_555 1_555
O9_91 H10_91 1_555 1_555
O7_91 H11_79 1_555 1_555
O7_91 H12_91 1_555 1_555
O8_91 H13_91 1_555 1_555
O8_91 H14_91 1_555 1_555
O12_43 C6_92 1_555 1_555
O13_26 C12_92 1_555 1_555
O5_92 Er3_14 1_555 1_555
O15_26 C12_92 1_555 1_555
N1_92 C1_92 1_555 1_555
N2_92 Er3_14 1_555 1_555
C1_92 H1_92 1_555 1_555
C2_92 C1_92 1_555 1_555
H2_92 C2_92 1_555 1_555
C3_92 C2_92 1_555 1_555
H3_92 C3_92 1_555 1_555
C4_92 C3_92 1_555 1_555
C5_92 N1_92 1_555 1_555
H4_92 C5_92 1_555 1_555
C6_92 O5_92 1_555 1_555
C7_92 N2_92 1_555 1_555
H5_92 C7_92 1_555 1_555
C8_92 C7_92 1_555 1_555
H6_92 C8_92 1_555 1_555
C9_92 C8_92 1_555 1_555
H7_92 C9_92 1_555 1_555
C10_92 C9_92 1_555 1_555
C11_92 N2_92 1_555 1_555
H8_92 C11_92 1_555 1_555
C12_92 C10_92 1_555 1_555
O7_92 Er3_14 1_555 1_555
O8_92 Er3_14 1_555 1_555
O9_92 Er3_14 1_555 1_555
C4_92 C5_92 1_555 1_555
C4_92 C6_92 1_555 1_555
C10_92 C11_92 1_555 1_555
O9_92 H9_92 1_555 1_555
O9_92 H10_92 1_555 1_555
O7_92 H11_80 1_555 1_555
O7_92 H12_92 1_555 1_555
O8_92 H13_92 1_555 1_555
O8_92 H14_92 1_555 1_555
O12_46 C6_93 1_555 1_555
O13_33 C12_93 1_555 1_555
O5_93 Er3_21 1_555 1_555
O15_33 C12_93 1_555 1_555
N1_93 C1_93 1_555 1_555
N2_93 Er3_21 1_555 1_555
C1_93 H1_93 1_555 1_555
C2_93 C1_93 1_555 1_555
H2_93 C2_93 1_555 1_555
C3_93 C2_93 1_555 1_555
H3_93 C3_93 1_555 1_555
C4_93 C3_93 1_555 1_555
C5_93 N1_93 1_555 1_555
H4_93 C5_93 1_555 1_555
C6_93 O5_93 1_555 1_555
C7_93 N2_93 1_555 1_555
H5_93 C7_93 1_555 1_555
C8_93 C7_93 1_555 1_555
H6_93 C8_93 1_555 1_555
C9_93 C8_93 1_555 1_555
H7_93 C9_93 1_555 1_555
C10_93 C9_93 1_555 1_555
C11_93 N2_93 1_555 1_555
H8_93 C11_93 1_555 1_555
C12_93 C10_93 1_555 1_555
O7_93 Er3_21 1_555 1_555
O8_93 Er3_21 1_555 1_555
O9_93 Er3_21 1_555 1_555
C4_93 C5_93 1_555 1_555
C4_93 C6_93 1_555 1_555
C10_93 C11_93 1_555 1_555
O9_93 H9_93 1_555 1_555
O9_93 H10_93 1_555 1_555
O7_93 H11_81 1_555 1_555
O7_93 H12_93 1_555 1_555
O8_93 H13_93 1_555 1_555
O8_93 H14_93 1_555 1_555
O12_45 C6_94 1_555 1_555
O13_35 C12_94 1_555 1_555
O5_94 Er3_23 1_555 1_555
O15_35 C12_94 1_555 1_555
N1_94 C1_94 1_555 1_555
N2_94 Er3_23 1_555 1_555
C1_94 H1_94 1_555 1_555
C2_94 C1_94 1_555 1_555
H2_94 C2_94 1_555 1_555
C3_94 C2_94 1_555 1_555
H3_94 C3_94 1_555 1_555
C4_94 C3_94 1_555 1_555
C5_94 N1_94 1_555 1_555
H4_94 C5_94 1_555 1_555
C6_94 O5_94 1_555 1_555
C7_94 N2_94 1_555 1_555
H5_94 C7_94 1_555 1_555
C8_94 C7_94 1_555 1_555
H6_94 C8_94 1_555 1_555
C9_94 C8_94 1_555 1_555
H7_94 C9_94 1_555 1_555
C10_94 C9_94 1_555 1_555
C11_94 N2_94 1_555 1_555
H8_94 C11_94 1_555 1_555
C12_94 C10_94 1_555 1_555
O7_94 Er3_23 1_555 1_555
O8_94 Er3_23 1_555 1_555
O9_94 Er3_23 1_555 1_555
C4_94 C5_94 1_555 1_555
C4_94 C6_94 1_555 1_555
C10_94 C11_94 1_555 1_555
O9_94 H9_94 1_555 1_555
O9_94 H10_94 1_555 1_555
O7_94 H11_82 1_555 1_555
O7_94 H12_94 1_555 1_555
O8_94 H13_94 1_555 1_555
O8_94 H14_94 1_555 1_555
O12_48 C6_95 1_555 1_555
O13_34 C12_95 1_555 1_555
O5_95 Er3_22 1_555 1_555
O15_34 C12_95 1_555 1_555
N1_95 C1_95 1_555 1_555
N2_95 Er3_22 1_555 1_555
C1_95 H1_95 1_555 1_555
C2_95 C1_95 1_555 1_555
H2_95 C2_95 1_555 1_555
C3_95 C2_95 1_555 1_555
H3_95 C3_95 1_555 1_555
C4_95 C3_95 1_555 1_555
C5_95 N1_95 1_555 1_555
H4_95 C5_95 1_555 1_555
C6_95 O5_95 1_555 1_555
C7_95 N2_95 1_555 1_555
H5_95 C7_95 1_555 1_555
C8_95 C7_95 1_555 1_555
H6_95 C8_95 1_555 1_555
C9_95 C8_95 1_555 1_555
H7_95 C9_95 1_555 1_555
C10_95 C9_95 1_555 1_555
C11_95 N2_95 1_555 1_555
H8_95 C11_95 1_555 1_555
C12_95 C10_95 1_555 1_555
O7_95 Er3_22 1_555 1_555
O8_95 Er3_22 1_555 1_555
O9_95 Er3_22 1_555 1_555
C4_95 C5_95 1_555 1_555
C4_95 C6_95 1_555 1_555
C10_95 C11_95 1_555 1_555
O9_95 H9_95 1_555 1_555
O9_95 H10_95 1_555 1_555
O7_95 H11_83 1_555 1_555
O7_95 H12_95 1_555 1_555
O8_95 H13_95 1_555 1_555
O8_95 H14_95 1_555 1_555
O12_47 C6_96 1_555 1_555
O13_36 C12_96 1_555 1_555
O5_96 Er3_24 1_555 1_555
O15_36 C12_96 1_555 1_555
N1_96 C1_96 1_555 1_555
N2_96 Er3_24 1_555 1_555
C1_96 H1_96 1_555 1_555
C2_96 C1_96 1_555 1_555
H2_96 C2_96 1_555 1_555
C3_96 C2_96 1_555 1_555
H3_96 C3_96 1_555 1_555
C4_96 C3_96 1_555 1_555
C5_96 N1_96 1_555 1_555
H4_96 C5_96 1_555 1_555
C6_96 O5_96 1_555 1_555
C7_96 N2_96 1_555 1_555
H5_96 C7_96 1_555 1_555
C8_96 C7_96 1_555 1_555
H6_96 C8_96 1_555 1_555
C9_96 C8_96 1_555 1_555
H7_96 C9_96 1_555 1_555
C10_96 C9_96 1_555 1_555
C11_96 N2_96 1_555 1_555
H8_96 C11_96 1_555 1_555
C12_96 C10_96 1_555 1_555
O7_96 Er3_24 1_555 1_555
O8_96 Er3_24 1_555 1_555
O9_96 Er3_24 1_555 1_555
C4_96 C5_96 1_555 1_555
C4_96 C6_96 1_555 1_555
C10_96 C11_96 1_555 1_555
O9_96 H9_96 1_555 1_555
O9_96 H10_96 1_555 1_555
O7_96 H11_84 1_555 1_555
O7_96 H12_96 1_555 1_555
O8_96 H13_96 1_555 1_555
O8_96 H14_96 1_555 1_555

#END
