
###############################################################################
#
# This file contains modified crystal structure data generated from the
# MOF subset of the Cambridge Structural Database (CSD) v543 
# hosted by the Cambridge Crystallographic Data Centre (CCDC).
#
# This work is licensed under the Creative Commons
# Attribution-NonCommercial-ShareAlike 4.0 International License.
# To view a copy of this license, visit
# http://creativecommons.org/licenses/by-nc-sa/4.0/
# or send a letter to
# Creative Commons, PO Box 1866, Mountain View, CA 94042, USA.
#
# CIF created using the CSD Python API on 29 September 2022
# The structure has been converted into the P1 space group
# The structure has a 3D framework
# The original CSD entry QUGTIY is in the monoclinic crystal system
# The framework has been calculated to contain at least 10.0% void space
# The void calculation uses a probe of radius 1.32A, grid spacing 0.4
#
###############################################################################

data_QUGTIY
_chemical_formula_moiety         '(C304 H224 N16 O44 Zn8)n'
_symmetry_cell_setting           triclinic
_symmetry_space_group_name_H-M   'P 1'
_symmetry_Int_Tables_number      1
_space_group_name_Hall           'P 1'
loop_
_symmetry_equiv_pos_site_id
_symmetry_equiv_pos_as_xyz
1 x,y,z
_cell_length_a                   17.4164(10)
_cell_length_b                   26.2567(15)
_cell_length_c                   20.0775(12)
_cell_angle_alpha                90
_cell_angle_beta                 114.4010(10)
_cell_angle_gamma                90
_cell_volume                     8361.27
loop_
_atom_site_label
_atom_site_type_symbol
_atom_site_fract_x
_atom_site_fract_y
_atom_site_fract_z
H15 H 0.308675 0.018051 0.624481
O1 O 0.39600(6) 0.99728(4) 0.76249(5)
O2 O 0.30922(6) 0.95505(4) 0.79732(5)
C2 C 0.33078(8) 0.97130(5) 0.74788(7)
C3 C 0.12305(9) 0.82644(5) 0.61541(8)
H2 H 0.116915 0.844158 0.655323
H3 H 0.176936 0.808969 0.634713
O6 O 0.11962(7) 0.86187(4) 0.56051(5)
C6 C 0.22262(8) 0.91548(5) 0.65499(7)
H6 H 0.222373 0.895111 0.692791
C10 C 0.05245(8) 0.78854(5) 0.58147(7)
H11 H 0.002118 0.671653 0.597884
C20 C 0.17058(10) 0.93487(6) 0.52624(8)
H14 H 0.135871 0.926845 0.477974
C22 C 0.27381(9) 0.98961(6) 0.61396(8)
C28 C 0.27419(8) 0.95861(5) 0.67005(7)
C29 C 0.06240(9) 0.73877(6) 0.60769(8)
H20 H 0.114125 0.728125 0.643022
C31 C 0.22088(10) 0.97788(6) 0.54176(8)
H22 H 0.219363 0.998958 0.504010
C33 C 0.17172(9) 0.90358(5) 0.58256(8)
Zn4 Zn 0.41417(2) 0.98395(2) 0.88555(2)
O3 O 0.53048(6) 0.98466(4) 0.43263(6)
O4 O 0.62033(6) 0.95226(4) 0.53917(5)
O5 O 0.79865(6) 0.83220(4) 0.47774(5)
C5 C 0.97539(8) 0.80386(5) 0.52765(7)
H5 H 0.969526 0.836566 0.508392
C8 C 0.72603(8) 0.85690(5) 0.43412(7)
C11 C 0.57754(8) 0.91105(5) 0.35490(7)
H7 H 0.528443 0.929191 0.328433
C12 C 0.62032(8) 0.91754(5) 0.43080(7)
C13 C 0.69416(8) 0.89091(5) 0.46987(7)
H8 H 0.722553 0.895736 0.520083
C14 C 0.68340(9) 0.84997(5) 0.35874(7)
H9 H 0.704068 0.827335 0.334474
C16 C 0.99512(10) 0.70508(6) 0.58108(9)
C21 C 0.58694(8) 0.95410(5) 0.47016(7)
C25 C 0.90665(8) 0.77055(5) 0.50222(7)
C26 C 0.82286(9) 0.78877(5) 0.44683(8)
H17 H 0.827269 0.798336 0.401869
H18 H 0.781068 0.761980 0.435876
C34 C 0.60967(9) 0.87719(6) 0.32013(8)
H24 H 0.581420 0.872517 0.269880
C37 C 0.91726(9) 0.72117(5) 0.52936(8)
H27 H 0.871935 0.698700 0.512794
Zn3 Zn 0.58583(2) 0.98395(2) 0.61445(2)
N3 N 0.35393(7) 0.94399(4) 0.38319(6)
O4_2 O 0.37967(6) 0.95226(4) 0.96083(5)
C5_2 C 0.02461(8) 0.80386(5) 0.97235(7)
H5_2 H 0.030474 0.836566 0.991608
H8_2 H 0.277447 0.895736 0.979917
C16_2 C 0.00488(10) 0.70508(6) 0.91892(9)
C25_2 C 0.09335(8) 0.77055(5) 0.99778(7)
C37_2 C 0.08274(9) 0.72117(5) 0.97064(8)
H27_2 H 0.128065 0.698700 0.987206
O1_2 O 0.60400(6) 0.99728(4) 0.73751(5)
O2_2 O 0.69078(6) 0.95505(4) 0.70268(5)
C2_2 C 0.66922(8) 0.97130(5) 0.75212(7)
C3_2 C 0.87695(9) 0.82644(5) 0.88459(8)
H2_2 H 0.883085 0.844158 0.844677
H3_2 H 0.823064 0.808969 0.865287
O6_2 O 0.88038(7) 0.86187(4) 0.93949(5)
C6_2 C 0.77738(8) 0.91548(5) 0.84501(7)
H6_2 H 0.777627 0.895111 0.807209
C10_2 C 0.94755(8) 0.78854(5) 0.91853(7)
H11_2 H 0.997882 0.671653 0.902116
C20_2 C 0.82942(10) 0.93487(6) 0.97376(8)
C22_2 C 0.72619(9) 0.98961(6) 0.88604(8)
C28_2 C 0.72581(8) 0.95861(5) 0.82995(7)
C29_2 C 0.93760(9) 0.73877(6) 0.89231(8)
H20_2 H 0.885875 0.728125 0.856978
C31_2 C 0.77912(10) 0.97788(6) 0.95824(8)
H22_2 H 0.780637 0.998958 0.995990
C33_2 C 0.82828(9) 0.90358(5) 0.91744(8)
C1 C 0.31367(10) 0.91752(6) 0.32137(8)
H1 H 0.317275 0.928978 0.278924
O1_3 O 0.89600(6) 0.49728(4) 0.76249(5)
O2_3 O 0.80922(6) 0.45505(4) 0.79732(5)
C2_3 C 0.83078(8) 0.47130(5) 0.74788(7)
C3_3 C 0.62305(9) 0.32644(5) 0.61541(8)
H2_3 H 0.616915 0.344158 0.655323
H3_3 H 0.676936 0.308969 0.634713
O3_2 O 0.03048(6) 0.48466(4) 0.43263(6)
O4_3 O 0.12033(6) 0.45226(4) 0.53917(5)
O5_2 O 0.29865(6) 0.33220(4) 0.47774(5)
O6_3 O 0.61962(7) 0.36187(4) 0.56051(5)
C4 C 0.07800(9) 0.62981(5) 0.34587(8)
H4 H 0.116342 0.628309 0.324626
C5_3 C 0.47539(8) 0.30386(5) 0.52765(7)
H5_3 H 0.469526 0.336566 0.508392
C6_3 C 0.72262(8) 0.41548(5) 0.65499(7)
H6_3 H 0.722373 0.395111 0.692791
C7 C 0.25989(8) 0.85556(5) 0.37960(7)
C8_2 C 0.22603(8) 0.35690(5) 0.43412(7)
C9 C 0.06353(8) 0.67594(5) 0.37342(7)
C10_3 C 0.55245(8) 0.28854(5) 0.58147(7)
C11_2 C 0.07754(8) 0.41105(5) 0.35490(7)
H7_2 H 0.028443 0.429191 0.328433
C12_2 C 0.12032(8) 0.41754(5) 0.43080(7)
C13_2 C 0.19416(8) 0.39091(5) 0.46987(7)
H8_3 H 0.222553 0.395736 0.520083
C14_2 C 0.18340(9) 0.34997(5) 0.35874(7)
H9_2 H 0.204068 0.327335 0.334474
C15 C 0.00391(9) 0.67562(5) 0.40328(8)
C16_3 C 0.49512(10) 0.20508(6) 0.58108(9)
H11_3 H 0.502118 0.171653 0.597884
C18 C 0.03522(8) 0.58627(5) 0.35018(7)
H13 H 0.045824 0.555961 0.331511
C19 C 0.11162(8) 0.72270(5) 0.37358(8)
C20_3 C 0.67058(10) 0.43487(6) 0.52624(8)
H14_2 H 0.635871 0.426845 0.477974
C21_2 C 0.08694(8) 0.45410(5) 0.47016(7)
C22_3 C 0.77381(9) 0.48961(6) 0.61396(8)
H15_2 H 0.808675 0.518051 0.624481
C23 C 0.20849(8) 0.80984(5) 0.37721(7)
C24 C 0.13905(9) 0.73184(5) 0.31836(8)
H16 H 0.125113 0.708897 0.279836
C25_3 C 0.40665(8) 0.27055(5) 0.50222(7)
C26_2 C 0.32286(9) 0.28877(5) 0.44683(8)
H17_2 H 0.327269 0.298336 0.401869
H18_2 H 0.281068 0.261980 0.435876
C27 C 0.13191(9) 0.75840(5) 0.42991(8)
H19 H 0.113380 0.753425 0.466731
C28_3 C 0.77419(8) 0.45861(5) 0.67005(7)
C29_3 C 0.56240(9) 0.23877(6) 0.60769(8)
H20_3 H 0.614125 0.228125 0.643022
C30 C 0.30383(10) 0.88246(6) 0.44414(8)
H21 H 0.302830 0.871315 0.487737
C31_3 C 0.72088(10) 0.47788(6) 0.54176(8)
H22_3 H 0.719363 0.498958 0.504010
C32 C 0.17937(9) 0.80116(5) 0.43154(8)
H23 H 0.192071 0.824502 0.469462
C33_3 C 0.67172(9) 0.40358(5) 0.58256(8)
C34_2 C 0.10967(9) 0.37719(6) 0.32013(8)
H24_2 H 0.081420 0.372517 0.269880
C35 C 0.18670(9) 0.77454(5) 0.32003(8)
H25 H 0.204394 0.779780 0.282749
C36 C 0.26692(10) 0.87397(6) 0.31734(8)
H26 H 0.240221 0.857033 0.272978
C37_3 C 0.41726(9) 0.22117(5) 0.52936(8)
H27_3 H 0.371935 0.198700 0.512794
C38 C 0.34900(9) 0.92579(5) 0.44347(8)
H28 H 0.377358 0.943104 0.487261
Zn3_2 Zn 0.08583(2) 0.48395(2) 0.61445(2)
Zn4_2 Zn 0.91417(2) 0.48395(2) 0.88555(2)
O1_4 O 0.10400(6) 0.49728(4) 0.73751(5)
O2_4 O 0.19078(6) 0.45505(4) 0.70268(5)
C2_4 C 0.16922(8) 0.47130(5) 0.75212(7)
C3_4 C 0.37695(9) 0.32644(5) 0.88459(8)
H2_4 H 0.383085 0.344158 0.844677
H3_4 H 0.323064 0.308969 0.865287
O4_4 O 0.87967(6) 0.45226(4) 0.96083(5)
O6_4 O 0.38038(7) 0.36187(4) 0.93949(5)
C5_4 C 0.52461(8) 0.30386(5) 0.97235(7)
H5_4 H 0.530474 0.336566 0.991608
C6_4 C 0.27738(8) 0.41548(5) 0.84501(7)
H6_4 H 0.277627 0.395111 0.807209
C10_4 C 0.44755(8) 0.28854(5) 0.91853(7)
H8_4 H 0.777447 0.395736 0.979917
C16_4 C 0.50488(10) 0.20508(6) 0.91892(9)
H11_4 H 0.497882 0.171653 0.902116
C20_4 C 0.32942(10) 0.43487(6) 0.97376(8)
C22_4 C 0.22619(9) 0.48961(6) 0.88604(8)
H15_3 H 0.191325 0.518051 0.875519
C25_4 C 0.59335(8) 0.27055(5) 0.99778(7)
C28_4 C 0.22581(8) 0.45861(5) 0.82995(7)
C29_4 C 0.43760(9) 0.23877(6) 0.89231(8)
H20_4 H 0.385875 0.228125 0.856978
C31_4 C 0.27912(10) 0.47788(6) 0.95824(8)
H22_4 H 0.280637 0.498958 0.995990
C33_4 C 0.32828(9) 0.40358(5) 0.91744(8)
C37_4 C 0.58274(9) 0.22117(5) 0.97064(8)
H27_4 H 0.628065 0.198700 0.987206
C1_2 C 0.18633(10) 0.58248(6) 0.67863(8)
H1_2 H 0.182725 0.571022 0.721076
N1 N 0.52088(7) 0.91397(4) 0.61981(6)
C4_2 C 0.42200(9) 0.87019(5) 0.65413(8)
H4_2 H 0.383658 0.871691 0.675374
N2 N 0.14607(7) 0.55601(4) 0.61681(6)
C7_2 C 0.24011(8) 0.64444(5) 0.62040(7)
C9_2 C 0.43647(8) 0.82406(5) 0.62658(7)
C15_2 C 0.49609(9) 0.82438(5) 0.59672(8)
H10 H 0.508901 0.794492 0.578606
C17 C 0.53594(9) 0.86950(5) 0.59431(8)
H12 H 0.575189 0.869011 0.573975
C18_2 C 0.46478(8) 0.91373(5) 0.64982(7)
H13_2 H 0.454176 0.944039 0.668489
C19_2 C 0.38838(8) 0.77730(5) 0.62642(8)
C23_2 C 0.29151(8) 0.69016(5) 0.62279(7)
C24_2 C 0.36095(9) 0.76816(5) 0.68164(8)
H16_2 H 0.374887 0.791103 0.720164
C27_2 C 0.36809(9) 0.74160(5) 0.57009(8)
H19_2 H 0.386620 0.746575 0.533269
C30_2 C 0.19617(10) 0.61754(6) 0.55586(8)
H21_2 H 0.197170 0.628685 0.512263
C32_2 C 0.32063(9) 0.69884(5) 0.56846(8)
H23_2 H 0.307929 0.675498 0.530538
C35_2 C 0.31330(9) 0.72546(5) 0.67997(8)
H25_2 H 0.295606 0.720220 0.717251
C36_2 C 0.23308(10) 0.62603(6) 0.68266(8)
H26_2 H 0.259779 0.642967 0.727022
C38_2 C 0.15100(9) 0.57421(5) 0.55653(8)
H28_2 H 0.122642 0.556896 0.512739
C1_3 C 0.81367(10) 0.58248(6) 0.82137(8)
H1_3 H 0.817275 0.571022 0.778924
N1_2 N 0.47912(7) 0.91397(4) 0.88019(6)
C4_3 C 0.57800(9) 0.87019(5) 0.84587(8)
H4_3 H 0.616342 0.871691 0.824626
N2_2 N 0.85393(7) 0.55601(4) 0.88319(6)
C7_3 C 0.75989(8) 0.64444(5) 0.87960(7)
C9_3 C 0.56353(8) 0.82406(5) 0.87342(7)
C15_3 C 0.50391(9) 0.82438(5) 0.90328(8)
H10_2 H 0.491099 0.794492 0.921394
C17_2 C 0.46406(9) 0.86950(5) 0.90569(8)
H12_2 H 0.424811 0.869011 0.926025
C18_3 C 0.53522(8) 0.91373(5) 0.85018(7)
H13_3 H 0.545824 0.944039 0.831511
C19_3 C 0.61162(8) 0.77730(5) 0.87358(8)
C23_3 C 0.70849(8) 0.69016(5) 0.87721(7)
C24_3 C 0.63905(9) 0.76816(5) 0.81836(8)
H16_3 H 0.625113 0.791103 0.779836
C27_3 C 0.63191(9) 0.74160(5) 0.92991(8)
H19_3 H 0.613380 0.746575 0.966731
C30_3 C 0.80383(10) 0.61754(6) 0.94414(8)
H21_3 H 0.802830 0.628685 0.987737
C32_3 C 0.67937(9) 0.69884(5) 0.93154(8)
H23_3 H 0.692071 0.675498 0.969462
C35_3 C 0.68670(9) 0.72546(5) 0.82003(8)
H25_3 H 0.704394 0.720220 0.782749
C36_3 C 0.76692(10) 0.62603(6) 0.81734(8)
H26_3 H 0.740221 0.642967 0.772978
C38_3 C 0.84900(9) 0.57421(5) 0.94347(8)
H28_3 H 0.877358 0.556896 0.987261
N1_3 N 0.02088(7) 0.41397(4) 0.61981(6)
H10_3 H 0.008901 0.294492 0.578606
C17_3 C 0.03594(9) 0.36950(5) 0.59431(8)
H12_3 H 0.075189 0.369011 0.573975
N1_4 N 0.97912(7) 0.41397(4) 0.88019(6)
H10_4 H 0.991099 0.294492 0.921394
C17_4 C 0.96406(9) 0.36950(5) 0.90569(8)
H12_4 H 0.924811 0.369011 0.926025
C1_4 C 0.81367(10) 0.41752(6) 0.32137(8)
H1_4 H 0.817275 0.428978 0.278924
Zn1 Zn 0.41417(2) 0.01605(2) 0.38555(2)
N1_5 N 0.47912(7) 0.08603(4) 0.38019(6)
C4_4 C 0.57800(9) 0.12981(5) 0.34587(8)
H4_4 H 0.616342 0.128309 0.324626
N2_3 N 0.85393(7) 0.44399(4) 0.38319(6)
C7_4 C 0.75989(8) 0.35556(5) 0.37960(7)
C9_4 C 0.56353(8) 0.17594(5) 0.37342(7)
C15_4 C 0.50391(9) 0.17562(5) 0.40328(8)
H10_5 H 0.491099 0.205508 0.421394
C17_5 C 0.46406(9) 0.13050(5) 0.40569(8)
H12_5 H 0.424811 0.130989 0.426025
C18_4 C 0.53522(8) 0.08627(5) 0.35018(7)
H13_4 H 0.545824 0.055961 0.331511
C19_4 C 0.61162(8) 0.22270(5) 0.37358(8)
C23_4 C 0.70849(8) 0.30984(5) 0.37721(7)
C24_4 C 0.63905(9) 0.23184(5) 0.31836(8)
H16_4 H 0.625113 0.208897 0.279836
C27_4 C 0.63191(9) 0.25840(5) 0.42991(8)
H19_4 H 0.613380 0.253425 0.466731
C30_4 C 0.80383(10) 0.38246(6) 0.44414(8)
H21_4 H 0.802830 0.371315 0.487737
C32_4 C 0.67937(9) 0.30116(5) 0.43154(8)
H23_4 H 0.692071 0.324502 0.469462
C35_4 C 0.68670(9) 0.27454(5) 0.32003(8)
H25_4 H 0.704394 0.279780 0.282749
C36_4 C 0.76692(10) 0.37397(6) 0.31734(8)
H26_4 H 0.740221 0.357033 0.272978
C38_4 C 0.84900(9) 0.42579(5) 0.44347(8)
H28_4 H 0.877358 0.443104 0.487261
O7 O 0.39600(6) 0.00272(4) 0.26249(5)
O8 O 0.30922(6) 0.04495(4) 0.29732(5)
Zn2 Zn 0.91417(2) 0.51605(2) 0.38555(2)
O9 O 0.37967(6) 0.04774(4) 0.46083(5)
C1_5 C 0.18633(10) 0.41752(6) 0.17863(8)
H1_5 H 0.182725 0.428978 0.221076
Zn1_2 Zn 0.58583(2) 0.01605(2) 0.11445(2)
N1_6 N 0.52088(7) 0.08603(4) 0.11981(6)
C4_5 C 0.42200(9) 0.12981(5) 0.15413(8)
H4_5 H 0.383658 0.128309 0.175374
N2_4 N 0.14607(7) 0.44399(4) 0.11681(6)
C7_5 C 0.24011(8) 0.35556(5) 0.12040(7)
C9_5 C 0.43647(8) 0.17594(5) 0.12658(7)
C15_5 C 0.49609(9) 0.17562(5) 0.09672(8)
H10_6 H 0.508901 0.205508 0.078606
C17_6 C 0.53594(9) 0.13050(5) 0.09431(8)
H12_6 H 0.575189 0.130989 0.073975
C18_5 C 0.46478(8) 0.08627(5) 0.14982(7)
H13_5 H 0.454176 0.055961 0.168489
C19_5 C 0.38838(8) 0.22270(5) 0.12642(8)
C23_5 C 0.29151(8) 0.30984(5) 0.12279(7)
C24_5 C 0.36095(9) 0.23184(5) 0.18164(8)
H16_5 H 0.374887 0.208897 0.220164
C27_5 C 0.36809(9) 0.25840(5) 0.07009(8)
H19_5 H 0.386620 0.253425 0.033269
C30_5 C 0.19617(10) 0.38246(6) 0.05586(8)
H21_5 H 0.197170 0.371315 0.012263
C32_5 C 0.32063(9) 0.30116(5) 0.06846(8)
H23_5 H 0.307929 0.324502 0.030538
C35_5 C 0.31330(9) 0.27454(5) 0.17997(8)
H25_5 H 0.295606 0.279780 0.217251
C36_5 C 0.23308(10) 0.37397(6) 0.18266(8)
H26_5 H 0.259779 0.357033 0.227022
C38_5 C 0.15100(9) 0.42579(5) 0.05653(8)
H28_5 H 0.122642 0.443104 0.012739
O7_2 O 0.60400(6) 0.00272(4) 0.23751(5)
O8_2 O 0.69078(6) 0.04495(4) 0.20268(5)
Zn2_2 Zn 0.08583(2) 0.51605(2) 0.11445(2)
O9_2 O 0.62033(6) 0.04774(4) 0.03917(5)
N1_7 N 0.97912(7) 0.58603(4) 0.38019(6)
H10_7 H 0.991099 0.705508 0.421394
C17_7 C 0.96406(9) 0.63050(5) 0.40569(8)
H12_7 H 0.924811 0.630989 0.426025
O7_3 O 0.89600(6) 0.50272(4) 0.26249(5)
O8_3 O 0.80922(6) 0.54495(4) 0.29732(5)
O9_3 O 0.87967(6) 0.54774(4) 0.46083(5)
N1_8 N 0.02088(7) 0.58603(4) 0.11981(6)
H10_8 H 0.008901 0.705508 0.078606
C17_8 C 0.03594(9) 0.63050(5) 0.09431(8)
H12_8 H 0.075189 0.630989 0.073975
O7_4 O 0.10400(6) 0.50272(4) 0.23751(5)
O8_4 O 0.19078(6) 0.54495(4) 0.20268(5)
O9_4 O 0.12033(6) 0.54774(4) 0.03917(5)
O3_3 O 0.46952(6) 0.01534(4) 0.56737(6)
O5_3 O 0.20135(6) 0.16780(4) 0.52226(5)
C5_5 C 0.02461(8) 0.19614(5) 0.47235(7)
H5_5 H 0.030474 0.163434 0.491608
C8_3 C 0.27397(8) 0.14310(5) 0.56588(7)
C11_3 C 0.42246(8) 0.08895(5) 0.64510(7)
H7_3 H 0.471557 0.070809 0.671567
C12_3 C 0.37968(8) 0.08246(5) 0.56920(7)
C13_3 C 0.30584(8) 0.10909(5) 0.53013(7)
H8_5 H 0.277447 0.104264 0.479917
C14_3 C 0.31660(9) 0.15003(5) 0.64126(7)
H9_3 H 0.295932 0.172665 0.665526
C16_5 C 0.00488(10) 0.29492(6) 0.41892(9)
C21_3 C 0.41306(8) 0.04590(5) 0.52984(7)
C25_5 C 0.09335(8) 0.22945(5) 0.49778(7)
C26_3 C 0.17714(9) 0.21123(5) 0.55317(8)
H17_3 H 0.172731 0.201664 0.598131
H18_3 H 0.218932 0.238020 0.564124
C34_3 C 0.39033(9) 0.12281(6) 0.67987(8)
H24_3 H 0.418580 0.127483 0.730120
C37_5 C 0.08274(9) 0.27883(5) 0.47064(8)
H27_5 H 0.128065 0.301300 0.487206
N3_2 N 0.64607(7) 0.05601(4) 0.61681(6)
C2_5 C 0.66922(8) 0.02870(5) 0.25212(7)
C3_5 C 0.87695(9) 0.17356(5) 0.38459(8)
H2_5 H 0.883085 0.155842 0.344677
H3_5 H 0.823064 0.191031 0.365287
O6_5 O 0.88038(7) 0.13813(4) 0.43949(5)
C6_5 C 0.77738(8) 0.08452(5) 0.34501(7)
H6_5 H 0.777627 0.104889 0.307209
C10_5 C 0.94755(8) 0.21146(5) 0.41853(7)
H11_5 H 0.997882 0.328347 0.402116
C20_5 C 0.82942(10) 0.06513(6) 0.47376(8)
H14_3 H 0.864129 0.073155 0.522026
C22_5 C 0.72619(9) 0.01039(6) 0.38604(8)
C28_5 C 0.72581(8) 0.04139(5) 0.32995(7)
C29_5 C 0.93760(9) 0.26123(6) 0.39231(8)
H20_5 H 0.885875 0.271875 0.356978
C31_5 C 0.77912(10) 0.02212(6) 0.45824(8)
H22_5 H 0.780637 0.001042 0.495990
C33_5 C 0.82828(9) 0.09642(5) 0.41744(8)
C2_6 C 0.33078(8) 0.02870(5) 0.24788(7)
C3_6 C 0.12305(9) 0.17356(5) 0.11541(8)
H2_6 H 0.116915 0.155842 0.155323
H3_6 H 0.176936 0.191031 0.134713
O6_6 O 0.11962(7) 0.13813(4) 0.06051(5)
C6_6 C 0.22262(8) 0.08452(5) 0.15499(7)
H6_6 H 0.222373 0.104889 0.192791
C10_6 C 0.05245(8) 0.21146(5) 0.08147(7)
H11_6 H 0.002118 0.328347 0.097884
C20_6 C 0.17058(10) 0.06513(6) 0.02624(8)
C22_6 C 0.27381(9) 0.01039(6) 0.11396(8)
C28_6 C 0.27419(8) 0.04139(5) 0.17005(7)
C29_6 C 0.06240(9) 0.26123(6) 0.10769(8)
H20_6 H 0.114125 0.271875 0.143022
C31_6 C 0.22088(10) 0.02212(6) 0.04176(8)
H22_6 H 0.219363 0.001042 0.004010
C33_6 C 0.17172(9) 0.09642(5) 0.08256(8)
C5_6 C 0.97539(8) 0.19614(5) 0.02765(7)
H5_6 H 0.969526 0.163434 0.008392
H8_6 H 0.722553 0.104264 0.020083
C16_6 C 0.99512(10) 0.29492(6) 0.08108(9)
C25_6 C 0.90665(8) 0.22945(5) 0.00222(7)
C37_6 C 0.91726(9) 0.27883(5) 0.02936(8)
H27_6 H 0.871935 0.301300 0.012794
C1_6 C 0.68633(10) 0.08248(6) 0.67863(8)
H1_6 H 0.682725 0.071022 0.721076
C2_7 C 0.16922(8) 0.52870(5) 0.25212(7)
C3_7 C 0.37695(9) 0.67356(5) 0.38459(8)
H2_7 H 0.383085 0.655842 0.344677
H3_7 H 0.323064 0.691031 0.365287
O3_4 O 0.96952(6) 0.51534(4) 0.56737(6)
O5_4 O 0.70135(6) 0.66780(4) 0.52226(5)
O6_7 O 0.38038(7) 0.63813(4) 0.43949(5)
C4_6 C 0.92200(9) 0.37019(5) 0.65413(8)
H4_6 H 0.883658 0.371691 0.675374
C5_7 C 0.52461(8) 0.69614(5) 0.47235(7)
H5_7 H 0.530474 0.663434 0.491608
C6_7 C 0.27738(8) 0.58452(5) 0.34501(7)
H6_7 H 0.277627 0.604889 0.307209
C7_6 C 0.74011(8) 0.14444(5) 0.62040(7)
C8_4 C 0.77397(8) 0.64310(5) 0.56588(7)
C9_6 C 0.93647(8) 0.32406(5) 0.62658(7)
C10_7 C 0.44755(8) 0.71146(5) 0.41853(7)
C11_4 C 0.92246(8) 0.58895(5) 0.64510(7)
H7_4 H 0.971557 0.570809 0.671567
C12_4 C 0.87968(8) 0.58246(5) 0.56920(7)
C13_4 C 0.80584(8) 0.60909(5) 0.53013(7)
H8_7 H 0.777447 0.604264 0.479917
C14_4 C 0.81660(9) 0.65003(5) 0.64126(7)
H9_4 H 0.795932 0.672665 0.665526
C15_6 C 0.99609(9) 0.32438(5) 0.59672(8)
C16_7 C 0.50488(10) 0.79492(6) 0.41892(9)
H11_7 H 0.497882 0.828347 0.402116
C18_6 C 0.96478(8) 0.41373(5) 0.64982(7)
H13_6 H 0.954176 0.444039 0.668489
C19_6 C 0.88838(8) 0.27730(5) 0.62642(8)
C20_7 C 0.32942(10) 0.56513(6) 0.47376(8)
H14_4 H 0.364129 0.573155 0.522026
C21_4 C 0.91306(8) 0.54590(5) 0.52984(7)
C22_7 C 0.22619(9) 0.51039(6) 0.38604(8)
H15_4 H 0.191325 0.481949 0.375519
C23_6 C 0.79151(8) 0.19016(5) 0.62279(7)
C24_6 C 0.86095(9) 0.26816(5) 0.68164(8)
H16_6 H 0.874887 0.291103 0.720164
C25_7 C 0.59335(8) 0.72945(5) 0.49778(7)
C26_4 C 0.67714(9) 0.71123(5) 0.55317(8)
H17_4 H 0.672731 0.701664 0.598131
H18_4 H 0.718932 0.738020 0.564124
C27_6 C 0.86809(9) 0.24160(5) 0.57009(8)
H19_6 H 0.886620 0.246575 0.533269
C28_7 C 0.22581(8) 0.54139(5) 0.32995(7)
C29_7 C 0.43760(9) 0.76123(6) 0.39231(8)
H20_7 H 0.385875 0.771875 0.356978
C30_6 C 0.69617(10) 0.11754(6) 0.55586(8)
H21_6 H 0.697170 0.128685 0.512263
C31_7 C 0.27912(10) 0.52212(6) 0.45824(8)
H22_7 H 0.280637 0.501042 0.495990
C32_6 C 0.82063(9) 0.19884(5) 0.56846(8)
H23_6 H 0.807929 0.175498 0.530538
C33_7 C 0.32828(9) 0.59642(5) 0.41744(8)
C34_4 C 0.89033(9) 0.62281(6) 0.67987(8)
H24_4 H 0.918580 0.627483 0.730120
C35_6 C 0.81330(9) 0.22546(5) 0.67997(8)
H25_6 H 0.795606 0.220220 0.717251
C36_6 C 0.73308(10) 0.12603(6) 0.68266(8)
H26_6 H 0.759779 0.142967 0.727022
C37_7 C 0.58274(9) 0.77883(5) 0.47064(8)
H27_7 H 0.628065 0.801300 0.487206
C38_6 C 0.65100(9) 0.07421(5) 0.55653(8)
H28_6 H 0.622642 0.056896 0.512739
C2_8 C 0.83078(8) 0.52870(5) 0.24788(7)
C3_8 C 0.62305(9) 0.67356(5) 0.11541(8)
H2_8 H 0.616915 0.655842 0.155323
H3_8 H 0.676936 0.691031 0.134713
O6_8 O 0.61962(7) 0.63813(4) 0.06051(5)
C5_8 C 0.47539(8) 0.69614(5) 0.02765(7)
H5_8 H 0.469526 0.663434 0.008392
C6_8 C 0.72262(8) 0.58452(5) 0.15499(7)
H6_8 H 0.722373 0.604889 0.192791
C10_8 C 0.55245(8) 0.71146(5) 0.08147(7)
H8_8 H 0.222553 0.604264 0.020083
C16_8 C 0.49512(10) 0.79492(6) 0.08108(9)
H11_8 H 0.502118 0.828347 0.097884
C20_8 C 0.67058(10) 0.56513(6) 0.02624(8)
C22_8 C 0.77381(9) 0.51039(6) 0.11396(8)
H15_5 H 0.808675 0.481949 0.124481
C25_8 C 0.40665(8) 0.72945(5) 0.00222(7)
C28_8 C 0.77419(8) 0.54139(5) 0.17005(7)
C29_8 C 0.56240(9) 0.76123(6) 0.10769(8)
H20_8 H 0.614125 0.771875 0.143022
C31_8 C 0.72088(10) 0.52212(6) 0.04176(8)
H22_8 H 0.719363 0.501042 0.004010
C33_8 C 0.67172(9) 0.59642(5) 0.08256(8)
C37_8 C 0.41726(9) 0.77883(5) 0.02936(8)
H27_8 H 0.371935 0.801300 0.012794
O3_5 O 0.46952(6) 0.98466(4) 0.06737(6)
O5_5 O 0.20135(6) 0.83220(4) 0.02226(5)
C8_5 C 0.27397(8) 0.85690(5) 0.06588(7)
C11_5 C 0.42246(8) 0.91105(5) 0.14510(7)
H7_5 H 0.471557 0.929191 0.171567
C12_5 C 0.37968(8) 0.91754(5) 0.06920(7)
C13_5 C 0.30584(8) 0.89091(5) 0.03013(7)
C14_5 C 0.31660(9) 0.84997(5) 0.14126(7)
H9_5 H 0.295932 0.827335 0.165526
C21_5 C 0.41306(8) 0.95410(5) 0.02984(7)
C26_5 C 0.17714(9) 0.78877(5) 0.05317(8)
H17_5 H 0.172731 0.798336 0.098131
H18_5 H 0.218932 0.761980 0.064124
C34_5 C 0.39033(9) 0.87719(6) 0.17987(8)
H24_5 H 0.418580 0.872517 0.230120
N3_3 N 0.64607(7) 0.94399(4) 0.11681(6)
C1_7 C 0.68633(10) 0.91752(6) 0.17863(8)
H1_7 H 0.682725 0.928978 0.221076
O3_6 O 0.96952(6) 0.48466(4) 0.06737(6)
O5_6 O 0.70135(6) 0.33220(4) 0.02226(5)
C4_7 C 0.92200(9) 0.62981(5) 0.15413(8)
H4_7 H 0.883658 0.628309 0.175374
C7_7 C 0.74011(8) 0.85556(5) 0.12040(7)
C8_6 C 0.77397(8) 0.35690(5) 0.06588(7)
C9_7 C 0.93647(8) 0.67594(5) 0.12658(7)
C11_6 C 0.92246(8) 0.41105(5) 0.14510(7)
H7_6 H 0.971557 0.429191 0.171567
C12_6 C 0.87968(8) 0.41754(5) 0.06920(7)
C13_6 C 0.80584(8) 0.39091(5) 0.03013(7)
C14_6 C 0.81660(9) 0.34997(5) 0.14126(7)
H9_6 H 0.795932 0.327335 0.165526
C15_7 C 0.99609(9) 0.67562(5) 0.09672(8)
C18_7 C 0.96478(8) 0.58627(5) 0.14982(7)
H13_7 H 0.954176 0.555961 0.168489
C19_7 C 0.88838(8) 0.72270(5) 0.12642(8)
H14_5 H 0.364129 0.426845 0.022026
C21_6 C 0.91306(8) 0.45410(5) 0.02984(7)
C23_7 C 0.79151(8) 0.80984(5) 0.12279(7)
C24_7 C 0.86095(9) 0.73184(5) 0.18164(8)
H16_7 H 0.874887 0.708897 0.220164
C26_6 C 0.67714(9) 0.28877(5) 0.05317(8)
H17_6 H 0.672731 0.298336 0.098131
H18_6 H 0.718932 0.261980 0.064124
C27_7 C 0.86809(9) 0.75840(5) 0.07009(8)
H19_7 H 0.886620 0.753425 0.033269
C30_7 C 0.69617(10) 0.88246(6) 0.05586(8)
H21_7 H 0.697170 0.871315 0.012263
C32_7 C 0.82063(9) 0.80116(5) 0.06846(8)
H23_7 H 0.807929 0.824502 0.030538
C34_6 C 0.89033(9) 0.37719(6) 0.17987(8)
H24_6 H 0.918580 0.372517 0.230120
C35_7 C 0.81330(9) 0.77454(5) 0.17997(8)
H25_7 H 0.795606 0.779780 0.217251
C36_7 C 0.73308(10) 0.87397(6) 0.18266(8)
H26_7 H 0.759779 0.857033 0.227022
C38_7 C 0.65100(9) 0.92579(5) 0.05653(8)
H28_7 H 0.622642 0.943104 0.012739
H15_6 H 0.691325 0.018051 0.875519
H14_6 H 0.864129 0.926845 0.022026
H15_7 H 0.691325 0.981949 0.375519
H14_7 H 0.135871 0.073155 0.977974
H15_8 H 0.308675 0.981949 0.124481
O3_7 O 0.53048(6) 0.01534(4) 0.93263(6)
O5_7 O 0.79865(6) 0.16780(4) 0.97774(5)
C8_7 C 0.72603(8) 0.14310(5) 0.93412(7)
C11_7 C 0.57754(8) 0.08895(5) 0.85490(7)
H7_7 H 0.528443 0.070809 0.828433
C12_7 C 0.62032(8) 0.08246(5) 0.93080(7)
C13_7 C 0.69416(8) 0.10909(5) 0.96987(7)
C14_7 C 0.68340(9) 0.15003(5) 0.85874(7)
H9_7 H 0.704068 0.172665 0.834474
C21_7 C 0.58694(8) 0.04590(5) 0.97016(7)
C26_7 C 0.82286(9) 0.21123(5) 0.94683(8)
H17_7 H 0.827269 0.201664 0.901869
H18_7 H 0.781068 0.238020 0.935876
C34_7 C 0.60967(9) 0.12281(6) 0.82013(8)
H24_7 H 0.581420 0.127483 0.769880
N3_4 N 0.35393(7) 0.05601(4) 0.88319(6)
C1_8 C 0.31367(10) 0.08248(6) 0.82137(8)
H1_8 H 0.317275 0.071022 0.778924
O3_8 O 0.03048(6) 0.51534(4) 0.93263(6)
O5_8 O 0.29865(6) 0.66780(4) 0.97774(5)
C4_8 C 0.07800(9) 0.37019(5) 0.84587(8)
H4_8 H 0.116342 0.371691 0.824626
C7_8 C 0.25989(8) 0.14444(5) 0.87960(7)
C8_8 C 0.22603(8) 0.64310(5) 0.93412(7)
C9_8 C 0.06353(8) 0.32406(5) 0.87342(7)
C11_8 C 0.07754(8) 0.58895(5) 0.85490(7)
H7_8 H 0.028443 0.570809 0.828433
C12_8 C 0.12032(8) 0.58246(5) 0.93080(7)
C13_8 C 0.19416(8) 0.60909(5) 0.96987(7)
C14_8 C 0.18340(9) 0.65003(5) 0.85874(7)
H9_8 H 0.204068 0.672665 0.834474
C15_8 C 0.00391(9) 0.32438(5) 0.90328(8)
C18_8 C 0.03522(8) 0.41373(5) 0.85018(7)
H13_8 H 0.045824 0.444039 0.831511
C19_8 C 0.11162(8) 0.27730(5) 0.87358(8)
H14_8 H 0.635871 0.573155 0.977974
C21_8 C 0.08694(8) 0.54590(5) 0.97016(7)
C23_8 C 0.20849(8) 0.19016(5) 0.87721(7)
C24_8 C 0.13905(9) 0.26816(5) 0.81836(8)
H16_8 H 0.125113 0.291103 0.779836
C26_8 C 0.32286(9) 0.71123(5) 0.94683(8)
H17_8 H 0.327269 0.701664 0.901869
H18_8 H 0.281068 0.738020 0.935876
C27_8 C 0.13191(9) 0.24160(5) 0.92991(8)
H19_8 H 0.113380 0.246575 0.966731
C30_8 C 0.30383(10) 0.11754(6) 0.94414(8)
H21_8 H 0.302830 0.128685 0.987737
C32_8 C 0.17937(9) 0.19884(5) 0.93154(8)
H23_8 H 0.192071 0.175498 0.969462
C34_8 C 0.10967(9) 0.62281(6) 0.82013(8)
H24_8 H 0.081420 0.627483 0.769880
C35_8 C 0.18670(9) 0.22546(5) 0.82003(8)
H25_8 H 0.204394 0.220220 0.782749
C36_8 C 0.26692(10) 0.12603(6) 0.81734(8)
H26_8 H 0.240221 0.142967 0.772978
C38_8 C 0.34900(9) 0.07421(5) 0.94347(8)
H28_8 H 0.377358 0.056896 0.987261
loop_
_geom_bond_atom_site_label_1
_geom_bond_atom_site_label_2
_geom_bond_site_symmetry_1
_geom_bond_site_symmetry_2
O1 C2 1_555 1_555
O2 C2 1_555 1_555
C2 C28 1_555 1_555
C3 H2 1_555 1_555
H3 C3 1_555 1_555
O6 C3 1_555 1_555
C6 H6 1_555 1_555
C10 C3 1_555 1_555
C20 H14 1_555 1_555
C28 C6 1_555 1_555
C29 C10 1_555 1_555
H20 C29 1_555 1_555
C31 C20 1_555 1_555
H22 C31 1_555 1_555
C33 O6 1_555 1_555
Zn4 O1 1_555 1_555
O2 Zn4 1_555 1_555
C6 C33 1_555 1_555
C20 C33 1_555 1_555
C22 C28 1_555 1_555
C22 C31 1_555 1_555
O3 C21 1_555 1_555
O4 C21 1_555 1_555
O5 C8 1_555 1_555
C5 H5 1_555 1_555
C8 C13 1_555 1_555
C11 H7 1_555 1_555
C12 C11 1_555 1_555
C13 C12 1_555 1_555
H8 C13 1_555 1_555
C14 C8 1_555 1_555
H9 C14 1_555 1_555
C21 C12 1_555 1_555
C25 C5 1_555 1_555
C26 O5 1_555 1_555
H17 C26 1_555 1_555
H18 C26 1_555 1_555
C34 C11 1_555 1_555
H24 C34 1_555 1_555
C37 C16 1_555 1_555
H27 C37 1_555 1_555
Zn3 O4 1_555 1_555
C14 C34 1_555 1_555
C25 C26 1_555 1_555
C25 C37 1_555 1_555
C5_2 H5_2 1_555 1_555
C25_2 C5_2 1_555 1_555
C37_2 C16_2 1_555 1_555
H27_2 C37_2 1_555 1_555
Zn4 O4_2 1_555 1_555
C25_2 C37_2 1_555 1_555
O1_2 C2_2 1_555 1_555
O2_2 C2_2 1_555 1_555
C2_2 C28_2 1_555 1_555
C3_2 H2_2 1_555 1_555
H3_2 C3_2 1_555 1_555
O6_2 C3_2 1_555 1_555
C6_2 H6_2 1_555 1_555
C10_2 C3_2 1_555 1_555
C28_2 C6_2 1_555 1_555
C29_2 C10_2 1_555 1_555
H20_2 C29_2 1_555 1_555
C31_2 C20_2 1_555 1_555
H22_2 C31_2 1_555 1_555
C33_2 O6_2 1_555 1_555
Zn3 O1_2 1_555 1_555
O2_2 Zn3 1_555 1_555
C6_2 C33_2 1_555 1_555
C20_2 C33_2 1_555 1_555
C22_2 C28_2 1_555 1_555
C22_2 C31_2 1_555 1_555
C1 H1 1_555 1_555
O1_3 C2_3 1_555 1_555
O2_3 C2_3 1_555 1_555
C2_3 C28_3 1_555 1_555
C3_3 H2_3 1_555 1_555
H3_3 C3_3 1_555 1_555
O3_2 C21_2 1_555 1_555
O4_3 C21_2 1_555 1_555
O5_2 C8_2 1_555 1_555
O6_3 C3_3 1_555 1_555
C4 H4 1_555 1_555
N3 C1 1_555 1_555
C5_3 H5_3 1_555 1_555
C6_3 H6_3 1_555 1_555
C7 C23 1_555 1_555
C8_2 C13_2 1_555 1_555
C9 C4 1_555 1_555
C10_3 C3_3 1_555 1_555
C11_2 H7_2 1_555 1_555
C12_2 C11_2 1_555 1_555
C13_2 C12_2 1_555 1_555
H8_3 C13_2 1_555 1_555
C14_2 C8_2 1_555 1_555
H9_2 C14_2 1_555 1_555
C15 C9 1_555 1_555
C16_3 H11_3 1_555 1_555
H13 C18 1_555 1_555
C19 C9 1_555 1_555
C20_3 H14_2 1_555 1_555
C21_2 C12_2 1_555 1_555
C22_3 H15_2 1_555 1_555
C23 C32 1_555 1_555
C24 C19 1_555 1_555
H16 C24 1_555 1_555
C25_3 C5_3 1_555 1_555
C26_2 O5_2 1_555 1_555
H17_2 C26_2 1_555 1_555
H18_2 C26_2 1_555 1_555
C27 C19 1_555 1_555
H19 C27 1_555 1_555
C28_3 C6_3 1_555 1_555
C29_3 C10_3 1_555 1_555
H20_3 C29_3 1_555 1_555
C30 C7 1_555 1_555
H21 C30 1_555 1_555
C31_3 C20_3 1_555 1_555
H22_3 C31_3 1_555 1_555
C32 C27 1_555 1_555
H23 C32 1_555 1_555
C33_3 O6_3 1_555 1_555
C34_2 C11_2 1_555 1_555
H24_2 C34_2 1_555 1_555
C35 C23 1_555 1_555
H25 C35 1_555 1_555
C36 C1 1_555 1_555
H26 C36 1_555 1_555
C37_3 C16_3 1_555 1_555
H27_3 C37_3 1_555 1_555
C38 N3 1_555 1_555
H28 C38 1_555 1_555
Zn3_2 O4_3 1_555 1_555
Zn4_2 O1_3 1_555 1_555
O2_3 Zn4_2 1_555 1_555
C4 C18 1_555 1_555
C5_3 C10_3 1_555 1_555
C6_3 C33_3 1_555 1_555
C7 C36 1_555 1_555
C14_2 C34_2 1_555 1_555
C16_3 C29_3 1_555 1_555
C20_3 C33_3 1_555 1_555
C22_3 C28_3 1_555 1_555
C22_3 C31_3 1_555 1_555
C24 C35 1_555 1_555
C25_3 C26_2 1_555 1_555
C25_3 C37_3 1_555 1_555
C30 C38 1_555 1_555
O1_4 C2_4 1_555 1_555
O2_4 C2_4 1_555 1_555
C2_4 C28_4 1_555 1_555
C3_4 H2_4 1_555 1_555
H3_4 C3_4 1_555 1_555
O6_4 C3_4 1_555 1_555
C5_4 H5_4 1_555 1_555
C6_4 H6_4 1_555 1_555
C10_4 C3_4 1_555 1_555
C16_4 H11_4 1_555 1_555
C22_4 H15_3 1_555 1_555
C25_4 C5_4 1_555 1_555
C28_4 C6_4 1_555 1_555
C29_4 C10_4 1_555 1_555
H20_4 C29_4 1_555 1_555
C31_4 C20_4 1_555 1_555
H22_4 C31_4 1_555 1_555
C33_4 O6_4 1_555 1_555
C37_4 C16_4 1_555 1_555
H27_4 C37_4 1_555 1_555
Zn4_2 O4_4 1_555 1_555
Zn3_2 O1_4 1_555 1_555
O2_4 Zn3_2 1_555 1_555
C5_4 C10_4 1_555 1_555
C6_4 C33_4 1_555 1_555
C16_4 C29_4 1_555 1_555
C20_4 C33_4 1_555 1_555
C22_4 C28_4 1_555 1_555
C22_4 C31_4 1_555 1_555
C25_4 C37_4 1_555 1_555
C1_2 H1_2 1_555 1_555
N1 Zn3 1_555 1_555
C4_2 H4_2 1_555 1_555
N2 C1_2 1_555 1_555
C7_2 C23_2 1_555 1_555
C9_2 C4_2 1_555 1_555
C15_2 C9_2 1_555 1_555
H10 C15_2 1_555 1_555
C17 N1 1_555 1_555
H12 C17 1_555 1_555
C18_2 N1 1_555 1_555
H13_2 C18_2 1_555 1_555
C19_2 C9_2 1_555 1_555
C23_2 C32_2 1_555 1_555
C24_2 C19_2 1_555 1_555
H16_2 C24_2 1_555 1_555
C27_2 C19_2 1_555 1_555
H19_2 C27_2 1_555 1_555
C30_2 C7_2 1_555 1_555
H21_2 C30_2 1_555 1_555
C32_2 C27_2 1_555 1_555
H23_2 C32_2 1_555 1_555
C35_2 C23_2 1_555 1_555
H25_2 C35_2 1_555 1_555
C36_2 C1_2 1_555 1_555
H26_2 C36_2 1_555 1_555
C38_2 N2 1_555 1_555
H28_2 C38_2 1_555 1_555
Zn3_2 N2 1_555 1_555
C4_2 C18_2 1_555 1_555
C7_2 C36_2 1_555 1_555
C15_2 C17 1_555 1_555
C24_2 C35_2 1_555 1_555
C30_2 C38_2 1_555 1_555
C1_3 H1_3 1_555 1_555
N1_2 Zn4 1_555 1_555
C4_3 H4_3 1_555 1_555
N2_2 C1_3 1_555 1_555
C7_3 C23_3 1_555 1_555
C9_3 C4_3 1_555 1_555
C15_3 C9_3 1_555 1_555
H10_2 C15_3 1_555 1_555
C17_2 N1_2 1_555 1_555
H12_2 C17_2 1_555 1_555
C18_3 N1_2 1_555 1_555
H13_3 C18_3 1_555 1_555
C19_3 C9_3 1_555 1_555
C23_3 C32_3 1_555 1_555
C24_3 C19_3 1_555 1_555
H16_3 C24_3 1_555 1_555
C27_3 C19_3 1_555 1_555
H19_3 C27_3 1_555 1_555
C30_3 C7_3 1_555 1_555
H21_3 C30_3 1_555 1_555
C32_3 C27_3 1_555 1_555
H23_3 C32_3 1_555 1_555
C35_3 C23_3 1_555 1_555
H25_3 C35_3 1_555 1_555
C36_3 C1_3 1_555 1_555
H26_3 C36_3 1_555 1_555
C38_3 N2_2 1_555 1_555
H28_3 C38_3 1_555 1_555
Zn4_2 N2_2 1_555 1_555
C4_3 C18_3 1_555 1_555
C7_3 C36_3 1_555 1_555
C15_3 C17_2 1_555 1_555
C24_3 C35_3 1_555 1_555
C30_3 C38_3 1_555 1_555
N1_3 Zn3_2 1_555 1_555
C17_3 N1_3 1_555 1_555
H12_3 C17_3 1_555 1_555
N1_4 Zn4_2 1_555 1_555
C17_4 N1_4 1_555 1_555
H12_4 C17_4 1_555 1_555
C1_4 H1_4 1_555 1_555
N1_5 Zn1 1_555 1_555
C4_4 H4_4 1_555 1_555
N2_3 C1_4 1_555 1_555
C7_4 C23_4 1_555 1_555
C9_4 C4_4 1_555 1_555
C15_4 C9_4 1_555 1_555
H10_5 C15_4 1_555 1_555
C17_5 N1_5 1_555 1_555
H12_5 C17_5 1_555 1_555
C18_4 N1_5 1_555 1_555
H13_4 C18_4 1_555 1_555
C19_4 C9_4 1_555 1_555
C23_4 C32_4 1_555 1_555
C24_4 C19_4 1_555 1_555
H16_4 C24_4 1_555 1_555
C27_4 C19_4 1_555 1_555
H19_4 C27_4 1_555 1_555
C30_4 C7_4 1_555 1_555
H21_4 C30_4 1_555 1_555
C32_4 C27_4 1_555 1_555
H23_4 C32_4 1_555 1_555
C35_4 C23_4 1_555 1_555
H25_4 C35_4 1_555 1_555
C36_4 C1_4 1_555 1_555
H26_4 C36_4 1_555 1_555
C38_4 N2_3 1_555 1_555
H28_4 C38_4 1_555 1_555
O7 Zn1 1_555 1_555
O8 Zn1 1_555 1_555
Zn2 N2_3 1_555 1_555
O9 Zn1 1_555 1_555
C4_4 C18_4 1_555 1_555
C7_4 C36_4 1_555 1_555
C15_4 C17_5 1_555 1_555
C24_4 C35_4 1_555 1_555
C30_4 C38_4 1_555 1_555
C1_5 H1_5 1_555 1_555
N1_6 Zn1_2 1_555 1_555
C4_5 H4_5 1_555 1_555
N2_4 C1_5 1_555 1_555
C7_5 C23_5 1_555 1_555
C9_5 C4_5 1_555 1_555
C15_5 C9_5 1_555 1_555
H10_6 C15_5 1_555 1_555
C17_6 N1_6 1_555 1_555
H12_6 C17_6 1_555 1_555
C18_5 N1_6 1_555 1_555
H13_5 C18_5 1_555 1_555
C19_5 C9_5 1_555 1_555
C23_5 C32_5 1_555 1_555
C24_5 C19_5 1_555 1_555
H16_5 C24_5 1_555 1_555
C27_5 C19_5 1_555 1_555
H19_5 C27_5 1_555 1_555
C30_5 C7_5 1_555 1_555
H21_5 C30_5 1_555 1_555
C32_5 C27_5 1_555 1_555
H23_5 C32_5 1_555 1_555
C35_5 C23_5 1_555 1_555
H25_5 C35_5 1_555 1_555
C36_5 C1_5 1_555 1_555
H26_5 C36_5 1_555 1_555
C38_5 N2_4 1_555 1_555
H28_5 C38_5 1_555 1_555
O7_2 Zn1_2 1_555 1_555
O8_2 Zn1_2 1_555 1_555
Zn2_2 N2_4 1_555 1_555
O9_2 Zn1_2 1_555 1_555
C4_5 C18_5 1_555 1_555
C7_5 C36_5 1_555 1_555
C15_5 C17_6 1_555 1_555
C24_5 C35_5 1_555 1_555
C30_5 C38_5 1_555 1_555
N1_7 Zn2 1_555 1_555
C17_7 N1_7 1_555 1_555
H12_7 C17_7 1_555 1_555
O7_3 Zn2 1_555 1_555
O8_3 Zn2 1_555 1_555
O9_3 Zn2 1_555 1_555
N1_8 Zn2_2 1_555 1_555
C17_8 N1_8 1_555 1_555
H12_8 C17_8 1_555 1_555
O7_4 Zn2_2 1_555 1_555
O8_4 Zn2_2 1_555 1_555
O9_4 Zn2_2 1_555 1_555
O3_3 C21_3 1_555 1_555
O9 C21_3 1_555 1_555
O5_3 C8_3 1_555 1_555
C5_5 H5_5 1_555 1_555
C8_3 C13_3 1_555 1_555
C11_3 H7_3 1_555 1_555
C12_3 C11_3 1_555 1_555
C13_3 C12_3 1_555 1_555
H8_5 C13_3 1_555 1_555
C14_3 C8_3 1_555 1_555
H9_3 C14_3 1_555 1_555
C21_3 C12_3 1_555 1_555
C25_5 C5_5 1_555 1_555
C26_3 O5_3 1_555 1_555
H17_3 C26_3 1_555 1_555
H18_3 C26_3 1_555 1_555
C34_3 C11_3 1_555 1_555
H24_3 C34_3 1_555 1_555
C37_5 C16_5 1_555 1_555
H27_5 C37_5 1_555 1_555
C14_3 C34_3 1_555 1_555
C25_5 C26_3 1_555 1_555
C25_5 C37_5 1_555 1_555
O7_2 C2_5 1_555 1_555
O8_2 C2_5 1_555 1_555
C2_5 C28_5 1_555 1_555
C3_5 H2_5 1_555 1_555
H3_5 C3_5 1_555 1_555
O6_5 C3_5 1_555 1_555
C6_5 H6_5 1_555 1_555
C10_5 C3_5 1_555 1_555
C20_5 H14_3 1_555 1_555
C28_5 C6_5 1_555 1_555
C29_5 C10_5 1_555 1_555
H20_5 C29_5 1_555 1_555
C31_5 C20_5 1_555 1_555
H22_5 C31_5 1_555 1_555
C33_5 O6_5 1_555 1_555
C6_5 C33_5 1_555 1_555
C20_5 C33_5 1_555 1_555
C22_5 C28_5 1_555 1_555
C22_5 C31_5 1_555 1_555
O7 C2_6 1_555 1_555
O8 C2_6 1_555 1_555
C2_6 C28_6 1_555 1_555
C3_6 H2_6 1_555 1_555
H3_6 C3_6 1_555 1_555
O6_6 C3_6 1_555 1_555
C6_6 H6_6 1_555 1_555
C10_6 C3_6 1_555 1_555
C28_6 C6_6 1_555 1_555
C29_6 C10_6 1_555 1_555
H20_6 C29_6 1_555 1_555
C31_6 C20_6 1_555 1_555
H22_6 C31_6 1_555 1_555
C33_6 O6_6 1_555 1_555
C6_6 C33_6 1_555 1_555
C20_6 C33_6 1_555 1_555
C22_6 C28_6 1_555 1_555
C22_6 C31_6 1_555 1_555
C5_6 H5_6 1_555 1_555
C25_6 C5_6 1_555 1_555
C37_6 C16_6 1_555 1_555
H27_6 C37_6 1_555 1_555
C25_6 C37_6 1_555 1_555
C1_6 H1_6 1_555 1_555
O7_4 C2_7 1_555 1_555
O8_4 C2_7 1_555 1_555
C2_7 C28_7 1_555 1_555
C3_7 H2_7 1_555 1_555
H3_7 C3_7 1_555 1_555
O3_4 C21_4 1_555 1_555
O9_3 C21_4 1_555 1_555
O5_4 C8_4 1_555 1_555
O6_7 C3_7 1_555 1_555
C4_6 H4_6 1_555 1_555
N3_2 C1_6 1_555 1_555
C5_7 H5_7 1_555 1_555
C6_7 H6_7 1_555 1_555
C7_6 C23_6 1_555 1_555
C8_4 C13_4 1_555 1_555
C9_6 C4_6 1_555 1_555
C10_7 C3_7 1_555 1_555
C11_4 H7_4 1_555 1_555
C12_4 C11_4 1_555 1_555
C13_4 C12_4 1_555 1_555
H8_7 C13_4 1_555 1_555
C14_4 C8_4 1_555 1_555
H9_4 C14_4 1_555 1_555
C15_6 C9_6 1_555 1_555
C16_7 H11_7 1_555 1_555
H13_6 C18_6 1_555 1_555
C19_6 C9_6 1_555 1_555
C20_7 H14_4 1_555 1_555
C21_4 C12_4 1_555 1_555
C22_7 H15_4 1_555 1_555
C23_6 C32_6 1_555 1_555
C24_6 C19_6 1_555 1_555
H16_6 C24_6 1_555 1_555
C25_7 C5_7 1_555 1_555
C26_4 O5_4 1_555 1_555
H17_4 C26_4 1_555 1_555
H18_4 C26_4 1_555 1_555
C27_6 C19_6 1_555 1_555
H19_6 C27_6 1_555 1_555
C28_7 C6_7 1_555 1_555
C29_7 C10_7 1_555 1_555
H20_7 C29_7 1_555 1_555
C30_6 C7_6 1_555 1_555
H21_6 C30_6 1_555 1_555
C31_7 C20_7 1_555 1_555
H22_7 C31_7 1_555 1_555
C32_6 C27_6 1_555 1_555
H23_6 C32_6 1_555 1_555
C33_7 O6_7 1_555 1_555
C34_4 C11_4 1_555 1_555
H24_4 C34_4 1_555 1_555
C35_6 C23_6 1_555 1_555
H25_6 C35_6 1_555 1_555
C36_6 C1_6 1_555 1_555
H26_6 C36_6 1_555 1_555
C37_7 C16_7 1_555 1_555
H27_7 C37_7 1_555 1_555
C38_6 N3_2 1_555 1_555
H28_6 C38_6 1_555 1_555
C4_6 C18_6 1_555 1_555
C5_7 C10_7 1_555 1_555
C6_7 C33_7 1_555 1_555
C7_6 C36_6 1_555 1_555
C14_4 C34_4 1_555 1_555
C16_7 C29_7 1_555 1_555
C20_7 C33_7 1_555 1_555
C22_7 C28_7 1_555 1_555
C22_7 C31_7 1_555 1_555
C24_6 C35_6 1_555 1_555
C25_7 C26_4 1_555 1_555
C25_7 C37_7 1_555 1_555
C30_6 C38_6 1_555 1_555
O7_3 C2_8 1_555 1_555
O8_3 C2_8 1_555 1_555
C2_8 C28_8 1_555 1_555
C3_8 H2_8 1_555 1_555
H3_8 C3_8 1_555 1_555
O6_8 C3_8 1_555 1_555
C5_8 H5_8 1_555 1_555
C6_8 H6_8 1_555 1_555
C10_8 C3_8 1_555 1_555
C16_8 H11_8 1_555 1_555
C22_8 H15_5 1_555 1_555
C25_8 C5_8 1_555 1_555
C28_8 C6_8 1_555 1_555
C29_8 C10_8 1_555 1_555
H20_8 C29_8 1_555 1_555
C31_8 C20_8 1_555 1_555
H22_8 C31_8 1_555 1_555
C33_8 O6_8 1_555 1_555
C37_8 C16_8 1_555 1_555
H27_8 C37_8 1_555 1_555
C5_8 C10_8 1_555 1_555
C6_8 C33_8 1_555 1_555
C16_8 C29_8 1_555 1_555
C20_8 C33_8 1_555 1_555
C22_8 C28_8 1_555 1_555
C22_8 C31_8 1_555 1_555
C25_8 C37_8 1_555 1_555
O3_5 C21_5 1_555 1_555
O5_5 C8_5 1_555 1_555
C8_5 C13_5 1_555 1_555
C11_5 H7_5 1_555 1_555
C12_5 C11_5 1_555 1_555
C13_5 C12_5 1_555 1_555
C14_5 C8_5 1_555 1_555
H9_5 C14_5 1_555 1_555
C21_5 C12_5 1_555 1_555
C26_5 O5_5 1_555 1_555
H17_5 C26_5 1_555 1_555
H18_5 C26_5 1_555 1_555
C34_5 C11_5 1_555 1_555
H24_5 C34_5 1_555 1_555
C14_5 C34_5 1_555 1_555
C1_7 H1_7 1_555 1_555
O3_6 C21_6 1_555 1_555
O5_6 C8_6 1_555 1_555
C4_7 H4_7 1_555 1_555
N3_3 C1_7 1_555 1_555
C7_7 C23_7 1_555 1_555
C8_6 C13_6 1_555 1_555
C9_7 C4_7 1_555 1_555
C11_6 H7_6 1_555 1_555
C12_6 C11_6 1_555 1_555
C13_6 C12_6 1_555 1_555
C14_6 C8_6 1_555 1_555
H9_6 C14_6 1_555 1_555
C15_7 C9_7 1_555 1_555
H13_7 C18_7 1_555 1_555
C19_7 C9_7 1_555 1_555
C21_6 C12_6 1_555 1_555
C23_7 C32_7 1_555 1_555
C24_7 C19_7 1_555 1_555
H16_7 C24_7 1_555 1_555
C26_6 O5_6 1_555 1_555
H17_6 C26_6 1_555 1_555
H18_6 C26_6 1_555 1_555
C27_7 C19_7 1_555 1_555
H19_7 C27_7 1_555 1_555
C30_7 C7_7 1_555 1_555
H21_7 C30_7 1_555 1_555
C32_7 C27_7 1_555 1_555
H23_7 C32_7 1_555 1_555
C34_6 C11_6 1_555 1_555
H24_6 C34_6 1_555 1_555
C35_7 C23_7 1_555 1_555
H25_7 C35_7 1_555 1_555
C36_7 C1_7 1_555 1_555
H26_7 C36_7 1_555 1_555
C38_7 N3_3 1_555 1_555
H28_7 C38_7 1_555 1_555
C4_7 C18_7 1_555 1_555
C7_7 C36_7 1_555 1_555
C14_6 C34_6 1_555 1_555
C24_7 C35_7 1_555 1_555
C30_7 C38_7 1_555 1_555
O3_7 C21_7 1_555 1_555
O5_7 C8_7 1_555 1_555
C8_7 C13_7 1_555 1_555
C11_7 H7_7 1_555 1_555
C12_7 C11_7 1_555 1_555
C13_7 C12_7 1_555 1_555
C14_7 C8_7 1_555 1_555
H9_7 C14_7 1_555 1_555
C21_7 C12_7 1_555 1_555
C26_7 O5_7 1_555 1_555
H17_7 C26_7 1_555 1_555
H18_7 C26_7 1_555 1_555
C34_7 C11_7 1_555 1_555
H24_7 C34_7 1_555 1_555
C14_7 C34_7 1_555 1_555
C1_8 H1_8 1_555 1_555
O3_8 C21_8 1_555 1_555
O5_8 C8_8 1_555 1_555
C4_8 H4_8 1_555 1_555
N3_4 C1_8 1_555 1_555
C7_8 C23_8 1_555 1_555
C8_8 C13_8 1_555 1_555
C9_8 C4_8 1_555 1_555
C11_8 H7_8 1_555 1_555
C12_8 C11_8 1_555 1_555
C13_8 C12_8 1_555 1_555
C14_8 C8_8 1_555 1_555
H9_8 C14_8 1_555 1_555
C15_8 C9_8 1_555 1_555
H13_8 C18_8 1_555 1_555
C19_8 C9_8 1_555 1_555
C21_8 C12_8 1_555 1_555
C23_8 C32_8 1_555 1_555
C24_8 C19_8 1_555 1_555
H16_8 C24_8 1_555 1_555
C26_8 O5_8 1_555 1_555
H17_8 C26_8 1_555 1_555
H18_8 C26_8 1_555 1_555
C27_8 C19_8 1_555 1_555
H19_8 C27_8 1_555 1_555
C30_8 C7_8 1_555 1_555
H21_8 C30_8 1_555 1_555
C32_8 C27_8 1_555 1_555
H23_8 C32_8 1_555 1_555
C34_8 C11_8 1_555 1_555
H24_8 C34_8 1_555 1_555
C35_8 C23_8 1_555 1_555
H25_8 C35_8 1_555 1_555
C36_8 C1_8 1_555 1_555
H26_8 C36_8 1_555 1_555
C38_8 N3_4 1_555 1_555
H28_8 C38_8 1_555 1_555
C4_8 C18_8 1_555 1_555
C7_8 C36_8 1_555 1_555
C14_8 C34_8 1_555 1_555
C24_8 C35_8 1_555 1_555
C30_8 C38_8 1_555 1_555

#END
