
###############################################################################
#
# This file contains modified crystal structure data generated from the
# MOF subset of the Cambridge Structural Database (CSD) v543 
# hosted by the Cambridge Crystallographic Data Centre (CCDC).
#
# This work is licensed under the Creative Commons
# Attribution-NonCommercial-ShareAlike 4.0 International License.
# To view a copy of this license, visit
# http://creativecommons.org/licenses/by-nc-sa/4.0/
# or send a letter to
# Creative Commons, PO Box 1866, Mountain View, CA 94042, USA.
#
# CIF created using the CSD Python API on 29 September 2022
# The structure has been converted into the P1 space group
# The structure has a 3D framework
# The original CSD entry QUGZEZ is in the cubic crystal system
# The framework has been calculated to contain at least 10.0% void space
# The void calculation uses a probe of radius 1.32A, grid spacing 0.4
# The framework is charged, counterions have been retained in the structure
#
###############################################################################

data_QUGZEZ
_chemical_formula_moiety         '(C64 Gd6 Mn13 N192 O16 10-)n'
_symmetry_cell_setting           triclinic
_symmetry_space_group_name_H-M   'P 1'
_symmetry_Int_Tables_number      1
_space_group_name_Hall           'P 1'
loop_
_symmetry_equiv_pos_site_id
_symmetry_equiv_pos_as_xyz
1 x,y,z
_cell_length_a                   17.1065(12)
_cell_length_b                   17.1065(12)
_cell_length_c                   17.1065(12)
_cell_angle_alpha                90
_cell_angle_beta                 90
_cell_angle_gamma                90
_cell_volume                     5005.92
loop_
_atom_site_label
_atom_site_type_symbol
_atom_site_fract_x
_atom_site_fract_y
_atom_site_fract_z
Gd1 Gd 0.09161(5) 0.2500 0.2500
C1 C 0.1106(6) 0.3894(6) 0.1106(6)
O1 O 0.1576(3) 0.3424(3) 0.1576(3)
N3 N 0.0108(5) 0.3670(5) 0.2146(5)
C2 C 0.0328(5) 0.4034(6) 0.1495(6)
Mn1 Mn 0.0000 0.5000 0.0000
N7 N 0.1330(5) 0.2854(5) 0.0108(5)
C3 C 0.0966(6) 0.3505(6) 0.0328(5)
N9 N 0.2294(5) 0.5620(5) 0.1044(5)
N10 N 0.1738(5) 0.5793(5) 0.0539(5)
N11 N 0.2146(5) 0.4892(5) 0.1330(5)
N12 N 0.1211(5) 0.5209(5) 0.0496(5)
C4 C 0.1495(6) 0.4672(5) 0.0966(6)
Gd2 Gd 0.2500 0.09161(5) 0.2500
C5 C 0.1106(6) 0.1106(6) 0.1106(6)
O2 O 0.1576(3) 0.1576(3) 0.1576(3)
N15 N 0.1330(5) 0.0108(5) 0.2146(5)
C6 C 0.0966(6) 0.0328(5) 0.1495(6)
Mn2 Mn 0.0000 0.0000 0.0000
N19 N 0.2146(5) 0.1330(5) 0.0108(5)
C7 C 0.1495(6) 0.0966(6) 0.0328(5)
N23 N 0.0108(5) 0.2146(5) 0.1330(5)
C8 C 0.0328(5) 0.1495(6) 0.0966(6)
Gd3 Gd 0.40839(5) 0.2500 0.2500
C9 C 0.3894(6) 0.1106(6) 0.1106(6)
N25 N 0.5620(5) 0.1044(5) 0.2294(5)
O3 O 0.3424(3) 0.1576(3) 0.1576(3)
N26 N 0.5793(5) 0.0539(5) 0.1738(5)
N27 N 0.4892(5) 0.1330(5) 0.2146(5)
N28 N 0.5209(5) 0.0496(5) 0.1211(5)
C10 C 0.4672(5) 0.0966(6) 0.1495(6)
N31 N 0.3670(5) 0.2146(5) 0.0108(5)
C11 C 0.4034(6) 0.1495(6) 0.0328(5)
N35 N 0.2854(5) 0.0108(5) 0.1330(5)
C12 C 0.3505(6) 0.0328(5) 0.0966(6)
C13 C 0.3894(6) 0.3894(6) 0.1106(6)
N37 N 0.3956(5) 0.5620(5) 0.2294(5)
O4 O 0.3424(3) 0.3424(3) 0.1576(3)
N38 N 0.4461(5) 0.5793(5) 0.1738(5)
N39 N 0.3670(5) 0.4892(5) 0.2146(5)
N40 N 0.4504(5) 0.5209(5) 0.1211(5)
C14 C 0.4034(6) 0.4672(5) 0.1495(6)
N43 N 0.2854(5) 0.3670(5) 0.0108(5)
C15 C 0.3505(6) 0.4034(6) 0.0328(5)
N45 N 0.5620(5) 0.2706(5) 0.1044(5)
N46 N 0.5793(5) 0.3262(5) 0.0539(5)
N47 N 0.4892(5) 0.2854(5) 0.1330(5)
N48 N 0.5209(5) 0.3789(5) 0.0496(5)
C16 C 0.4672(5) 0.3505(6) 0.0966(6)
Gd4 Gd 0.2500 0.40839(5) 0.2500
Gd5 Gd 0.2500 0.2500 0.09161(5)
O5 O 0.1576(3) 0.3424(3) 0.3424(3)
O6 O 0.1576(3) 0.1576(3) 0.3424(3)
O7 O 0.3424(3) 0.3424(3) 0.3424(3)
O8 O 0.3424(3) 0.1576(3) 0.3424(3)
N49 N 0.0108(5) 0.2854(5) 0.3670(5)
N50 N 0.0108(5) 0.1330(5) 0.2854(5)
N51 N 0.4892(5) 0.3670(5) 0.2854(5)
N52 N 0.2146(5) 0.0108(5) 0.3670(5)
N53 N 0.3670(5) 0.0108(5) 0.2854(5)
N54 N 0.4892(5) 0.2146(5) 0.3670(5)
Mn3 Mn 0.5000 0.0000 0.0000
Mn4 Mn 0.5000 0.5000 0.0000
Mn1_2 Mn -0.0000 0.5000 1.0000
N5 N 0.1044(5) 0.2706(5) 0.9380(5)
N6 N 0.0539(5) 0.3262(5) 0.9207(5)
N8 N 0.0496(5) 0.3789(5) 0.9791(5)
Mn2_2 Mn 0.0000 0.0000 1.0000
N17 N 0.2294(5) 0.1044(5) 0.9380(5)
N18 N 0.1738(5) 0.0539(5) 0.9207(5)
N20 N 0.1211(5) 0.0496(5) 0.9791(5)
N29 N 0.3956(5) 0.2294(5) 0.9380(5)
N30 N 0.4461(5) 0.1738(5) 0.9207(5)
N32 N 0.4504(5) 0.1211(5) 0.9791(5)
N41 N 0.2706(5) 0.3956(5) 0.9380(5)
N42 N 0.3262(5) 0.4461(5) 0.9207(5)
N44 N 0.3789(5) 0.4504(5) 0.9791(5)
N55 N 0.0209(5) 0.5496(5) 0.8789(5)
Mn3_2 Mn 0.5000 0.0000 1.0000
Mn4_2 Mn 0.5000 0.5000 1.0000
N13 N 0.1044(5) 0.9380(5) 0.2294(5)
N14 N 0.0539(5) 0.9207(5) 0.1738(5)
N16 N 0.0496(5) 0.9791(5) 0.1211(5)
Mn2_3 Mn 0.0000 1.0000 0.0000
N33 N 0.2706(5) 0.9380(5) 0.1044(5)
N34 N 0.3262(5) 0.9207(5) 0.0539(5)
N36 N 0.3789(5) 0.9791(5) 0.0496(5)
Mn3_3 Mn 0.5000 1.0000 0.0000
Mn2_4 Mn 0.0000 1.0000 1.0000
N57 N 0.0209(5) 0.8789(5) 0.9504(5)
Mn3_4 Mn 0.5000 1.0000 1.0000
N1 N 0.9380(5) 0.3956(5) 0.2294(5)
N2 N 0.9207(5) 0.4461(5) 0.1738(5)
N4 N 0.9791(5) 0.4504(5) 0.1211(5)
Mn1_3 Mn 1.0000 0.5000 0.0000
Mn2_5 Mn 1.0000 0.0000 0.0000
N21 N 0.9380(5) 0.2294(5) 0.1044(5)
N22 N 0.9207(5) 0.1738(5) 0.0539(5)
N24 N 0.9791(5) 0.1211(5) 0.0496(5)
N58 N 0.9504(5) 0.6211(5) 0.0209(5)
Mn1_4 Mn 1.0000 0.5000 1.0000
Mn2_6 Mn 1.0000 0.0000 1.0000
N56 N 0.9504(5) 0.0209(5) 0.8789(5)
N59 N 0.8789(5) 0.4791(5) 0.9504(5)
Mn2_7 Mn 1.0000 1.0000 0.0000
N60 N 0.8789(5) 0.9504(5) 0.0209(5)
Mn2_8 Mn 1.0000 1.0000 1.0000
N51_2 N 0.1330(5) 0.4892(5) 0.2854(5)
N54_2 N 0.2854(5) 0.4892(5) 0.3670(5)
N57_2 N 0.6211(5) 0.0209(5) 0.9504(5)
N60_2 N 0.5496(5) 0.8789(5) 0.0209(5)
N56_2 N 0.4791(5) 0.9504(5) 0.8789(5)
N60_3 N 0.6211(5) 0.5496(5) 0.0209(5)
N56_3 N 0.5496(5) 0.4791(5) 0.8789(5)
N57_3 N 0.4791(5) 0.6211(5) 0.9504(5)
C1_2 C 0.1106(6) 0.3894(6) 0.3894(6)
C2_2 C 0.0328(5) 0.3505(6) 0.4034(6)
Mn1_5 Mn 0.0000 0.5000 0.5000
N5_2 N 0.1044(5) 0.5620(5) 0.2706(5)
N6_2 N 0.0539(5) 0.5793(5) 0.3262(5)
N8_2 N 0.0496(5) 0.5209(5) 0.3789(5)
C3_2 C 0.0966(6) 0.4672(5) 0.3505(6)
N9_2 N 0.2294(5) 0.3956(5) 0.5620(5)
N10_2 N 0.1738(5) 0.4461(5) 0.5793(5)
N11_2 N 0.2146(5) 0.3670(5) 0.4892(5)
N12_2 N 0.1211(5) 0.4504(5) 0.5209(5)
C4_2 C 0.1495(6) 0.4034(6) 0.4672(5)
C13_2 C 0.3894(6) 0.3894(6) 0.3894(6)
N37_2 N 0.3956(5) 0.2706(5) 0.5620(5)
N38_2 N 0.4461(5) 0.3262(5) 0.5793(5)
N39_2 N 0.3670(5) 0.2854(5) 0.4892(5)
N40_2 N 0.4504(5) 0.3789(5) 0.5209(5)
C14_2 C 0.4034(6) 0.3505(6) 0.4672(5)
N41_2 N 0.2706(5) 0.5620(5) 0.3956(5)
N42_2 N 0.3262(5) 0.5793(5) 0.4461(5)
N44_2 N 0.3789(5) 0.5209(5) 0.4504(5)
C15_2 C 0.3505(6) 0.4672(5) 0.4034(6)
N45_2 N 0.5620(5) 0.3956(5) 0.2706(5)
N46_2 N 0.5793(5) 0.4461(5) 0.3262(5)
N48_2 N 0.5209(5) 0.4504(5) 0.3789(5)
C16_2 C 0.4672(5) 0.4034(6) 0.3505(6)
Gd4_2 Gd 0.2500 0.2500 0.40839(5)
N55_2 N 0.0209(5) 0.6211(5) 0.5496(5)
Mn4_3 Mn 0.5000 0.5000 0.5000
N1_2 N 0.9380(5) 0.2706(5) 0.3956(5)
N2_2 N 0.9207(5) 0.3262(5) 0.4461(5)
N4_2 N 0.9791(5) 0.3789(5) 0.4504(5)
Mn1_6 Mn 1.0000 0.5000 0.5000
N58_2 N 0.9504(5) 0.4791(5) 0.6211(5)
N59_2 N 0.8789(5) 0.5496(5) 0.4791(5)
C1_3 C 0.1106(6) 0.1106(6) 0.3894(6)
C2_3 C 0.0328(5) 0.0966(6) 0.3505(6)
Mn1_7 Mn 0.0000 0.0000 0.5000
N5_3 N 0.1044(5) 0.2294(5) 0.5620(5)
N6_3 N 0.0539(5) 0.1738(5) 0.5793(5)
N7_2 N 0.1330(5) 0.2146(5) 0.4892(5)
N8_3 N 0.0496(5) 0.1211(5) 0.5209(5)
C3_3 C 0.0966(6) 0.1495(6) 0.4672(5)
C4_3 C 0.1495(6) 0.0328(5) 0.4034(6)
C13_3 C 0.3894(6) 0.1106(6) 0.3894(6)
C14_3 C 0.4034(6) 0.0328(5) 0.3505(6)
N41_3 N 0.2706(5) 0.1044(5) 0.5620(5)
N42_3 N 0.3262(5) 0.0539(5) 0.5793(5)
N43_2 N 0.2854(5) 0.1330(5) 0.4892(5)
N44_3 N 0.3789(5) 0.0496(5) 0.5209(5)
C15_3 C 0.3505(6) 0.0966(6) 0.4672(5)
N45_3 N 0.5620(5) 0.2294(5) 0.3956(5)
N46_3 N 0.5793(5) 0.1738(5) 0.4461(5)
N48_3 N 0.5209(5) 0.1211(5) 0.4504(5)
C16_3 C 0.4672(5) 0.1495(6) 0.4034(6)
Mn4_4 Mn 0.5000 0.0000 0.5000
Mn1_8 Mn -0.0000 1.0000 0.5000
N9_3 N 0.2294(5) 0.9380(5) 0.3956(5)
N10_3 N 0.1738(5) 0.9207(5) 0.4461(5)
N12_3 N 0.1211(5) 0.9791(5) 0.4504(5)
N37_3 N 0.3956(5) 0.9380(5) 0.2706(5)
N38_3 N 0.4461(5) 0.9207(5) 0.3262(5)
N40_3 N 0.4504(5) 0.9791(5) 0.3789(5)
N55_3 N 0.0209(5) 0.9504(5) 0.6211(5)
Mn4_5 Mn 0.5000 1.0000 0.5000
N1_3 N 0.9380(5) 0.1044(5) 0.2706(5)
N2_3 N 0.9207(5) 0.0539(5) 0.3262(5)
N4_3 N 0.9791(5) 0.0496(5) 0.3789(5)
Mn1_9 Mn 1.0000 0.0000 0.5000
N59_3 N 0.8789(5) 0.0209(5) 0.5496(5)
Mn1_10 Mn 1.0000 1.0000 0.5000
N58_3 N 0.9504(5) 0.8789(5) 0.4791(5)
N55_4 N 0.4791(5) 0.5496(5) 0.6211(5)
N56_4 N 0.5496(5) 0.0209(5) 0.6211(5)
N58_4 N 0.5496(5) 0.6211(5) 0.4791(5)
N59_4 N 0.6211(5) 0.4791(5) 0.5496(5)
N57_4 N 0.4791(5) 0.8789(5) 0.5496(5)
N60_4 N 0.6211(5) 0.9504(5) 0.4791(5)
N1_4 N 0.0620(5) 0.6044(5) 0.7706(5)
N2_4 N 0.0793(5) 0.5539(5) 0.8262(5)
N21_2 N 0.0620(5) 0.7706(5) 0.8956(5)
N22_2 N 0.0793(5) 0.8262(5) 0.9461(5)
N13_2 N 0.8956(5) 0.0620(5) 0.7706(5)
N14_2 N 0.9461(5) 0.0793(5) 0.8262(5)
N33_2 N 0.7294(5) 0.0620(5) 0.8956(5)
N34_2 N 0.6738(5) 0.0793(5) 0.9461(5)
N5_4 N 0.8956(5) 0.7294(5) 0.0620(5)
N6_4 N 0.9461(5) 0.6738(5) 0.0793(5)
N17_2 N 0.7706(5) 0.8956(5) 0.0620(5)
N18_2 N 0.8262(5) 0.9461(5) 0.0793(5)
N29_2 N 0.6044(5) 0.7706(5) 0.0620(5)
N30_2 N 0.5539(5) 0.8262(5) 0.0793(5)
N41_4 N 0.7294(5) 0.6044(5) 0.0620(5)
N42_4 N 0.6738(5) 0.5539(5) 0.0793(5)
Gd1_2 Gd 0.90839(5) 0.7500 0.7500
C1_4 C 0.8894(6) 0.6106(6) 0.8894(6)
O1_2 O 0.8424(3) 0.6576(3) 0.8424(3)
N3_2 N 0.9892(5) 0.6330(5) 0.7854(5)
C2_4 C 0.9672(5) 0.5966(6) 0.8505(6)
N7_3 N 0.8670(5) 0.7146(5) 0.9892(5)
C3_4 C 0.9034(6) 0.6495(6) 0.9672(5)
N9_4 N 0.7706(5) 0.4380(5) 0.8956(5)
N10_4 N 0.8262(5) 0.4207(5) 0.9461(5)
N11_3 N 0.7854(5) 0.5108(5) 0.8670(5)
C4_4 C 0.8505(6) 0.5328(5) 0.9034(6)
Gd2_2 Gd 0.7500 0.90839(5) 0.7500
C5_2 C 0.8894(6) 0.8894(6) 0.8894(6)
O2_2 O 0.8424(3) 0.8424(3) 0.8424(3)
N15_2 N 0.8670(5) 0.9892(5) 0.7854(5)
C6_2 C 0.9034(6) 0.9672(5) 0.8505(6)
N19_2 N 0.7854(5) 0.8670(5) 0.9892(5)
C7_2 C 0.8505(6) 0.9034(6) 0.9672(5)
N23_2 N 0.9892(5) 0.7854(5) 0.8670(5)
C8_2 C 0.9672(5) 0.8505(6) 0.9034(6)
Gd3_2 Gd 0.59161(5) 0.7500 0.7500
C9_2 C 0.6106(6) 0.8894(6) 0.8894(6)
N25_2 N 0.4380(5) 0.8956(5) 0.7706(5)
O3_2 O 0.6576(3) 0.8424(3) 0.8424(3)
N26_2 N 0.4207(5) 0.9461(5) 0.8262(5)
N27_2 N 0.5108(5) 0.8670(5) 0.7854(5)
C10_2 C 0.5328(5) 0.9034(6) 0.8505(6)
N31_2 N 0.6330(5) 0.7854(5) 0.9892(5)
C11_2 C 0.5966(6) 0.8505(6) 0.9672(5)
N35_2 N 0.7146(5) 0.9892(5) 0.8670(5)
C12_2 C 0.6495(6) 0.9672(5) 0.9034(6)
C13_4 C 0.6106(6) 0.6106(6) 0.8894(6)
N37_4 N 0.6044(5) 0.4380(5) 0.7706(5)
O4_2 O 0.6576(3) 0.6576(3) 0.8424(3)
N38_4 N 0.5539(5) 0.4207(5) 0.8262(5)
N39_3 N 0.6330(5) 0.5108(5) 0.7854(5)
C14_4 C 0.5966(6) 0.5328(5) 0.8505(6)
N43_3 N 0.7146(5) 0.6330(5) 0.9892(5)
C15_4 C 0.6495(6) 0.5966(6) 0.9672(5)
N45_4 N 0.4380(5) 0.7294(5) 0.8956(5)
N46_4 N 0.4207(5) 0.6738(5) 0.9461(5)
N47_2 N 0.5108(5) 0.7146(5) 0.8670(5)
C16_4 C 0.5328(5) 0.6495(6) 0.9034(6)
Gd4_3 Gd 0.7500 0.59161(5) 0.7500
Gd5_2 Gd 0.7500 0.7500 0.90839(5)
O5_2 O 0.8424(3) 0.6576(3) 0.6576(3)
O6_2 O 0.8424(3) 0.8424(3) 0.6576(3)
O7_2 O 0.6576(3) 0.6576(3) 0.6576(3)
O8_2 O 0.6576(3) 0.8424(3) 0.6576(3)
N49_2 N 0.9892(5) 0.7146(5) 0.6330(5)
N50_2 N 0.9892(5) 0.8670(5) 0.7146(5)
N51_3 N 0.5108(5) 0.6330(5) 0.7146(5)
N52_2 N 0.7854(5) 0.9892(5) 0.6330(5)
N53_2 N 0.6330(5) 0.9892(5) 0.7146(5)
N54_3 N 0.5108(5) 0.7854(5) 0.6330(5)
N51_4 N 0.8670(5) 0.5108(5) 0.7146(5)
N54_4 N 0.7146(5) 0.5108(5) 0.6330(5)
N1_5 N 0.0620(5) 0.7294(5) 0.6044(5)
N2_5 N 0.0793(5) 0.6738(5) 0.5539(5)
C1_5 C 0.8894(6) 0.6106(6) 0.6106(6)
C2_5 C 0.9672(5) 0.6495(6) 0.5966(6)
N5_5 N 0.8956(5) 0.4380(5) 0.7294(5)
N6_5 N 0.9461(5) 0.4207(5) 0.6738(5)
C3_5 C 0.9034(6) 0.5328(5) 0.6495(6)
N9_5 N 0.7706(5) 0.6044(5) 0.4380(5)
N10_5 N 0.8262(5) 0.5539(5) 0.4207(5)
N11_4 N 0.7854(5) 0.6330(5) 0.5108(5)
C4_5 C 0.8505(6) 0.5966(6) 0.5328(5)
C13_5 C 0.6106(6) 0.6106(6) 0.6106(6)
N37_5 N 0.6044(5) 0.7294(5) 0.4380(5)
N38_5 N 0.5539(5) 0.6738(5) 0.4207(5)
N39_4 N 0.6330(5) 0.7146(5) 0.5108(5)
C14_5 C 0.5966(6) 0.6495(6) 0.5328(5)
N41_5 N 0.7294(5) 0.4380(5) 0.6044(5)
N42_5 N 0.6738(5) 0.4207(5) 0.5539(5)
C15_5 C 0.6495(6) 0.5328(5) 0.5966(6)
N45_5 N 0.4380(5) 0.6044(5) 0.7294(5)
N46_5 N 0.4207(5) 0.5539(5) 0.6738(5)
C16_5 C 0.5328(5) 0.5966(6) 0.6495(6)
Gd4_4 Gd 0.7500 0.7500 0.59161(5)
N1_6 N 0.0620(5) 0.8956(5) 0.7294(5)
N2_6 N 0.0793(5) 0.9461(5) 0.6738(5)
N9_6 N 0.7706(5) 0.0620(5) 0.6044(5)
N10_6 N 0.8262(5) 0.0793(5) 0.5539(5)
N37_6 N 0.6044(5) 0.0620(5) 0.7294(5)
N38_6 N 0.5539(5) 0.0793(5) 0.6738(5)
C1_6 C 0.8894(6) 0.8894(6) 0.6106(6)
C2_6 C 0.9672(5) 0.9034(6) 0.6495(6)
N5_6 N 0.8956(5) 0.7706(5) 0.4380(5)
N6_6 N 0.9461(5) 0.8262(5) 0.4207(5)
N7_4 N 0.8670(5) 0.7854(5) 0.5108(5)
C3_6 C 0.9034(6) 0.8505(6) 0.5328(5)
C4_6 C 0.8505(6) 0.9672(5) 0.5966(6)
C13_6 C 0.6106(6) 0.8894(6) 0.6106(6)
C14_6 C 0.5966(6) 0.9672(5) 0.6495(6)
N41_6 N 0.7294(5) 0.8956(5) 0.4380(5)
N42_6 N 0.6738(5) 0.9461(5) 0.4207(5)
N43_4 N 0.7146(5) 0.8670(5) 0.5108(5)
C15_6 C 0.6495(6) 0.9034(6) 0.5328(5)
N45_6 N 0.4380(5) 0.7706(5) 0.6044(5)
N46_6 N 0.4207(5) 0.8262(5) 0.5539(5)
C16_6 C 0.5328(5) 0.8505(6) 0.5966(6)
loop_
_geom_bond_atom_site_label_1
_geom_bond_atom_site_label_2
_geom_bond_site_symmetry_1
_geom_bond_site_symmetry_2
Gd1 O1 1_555 1_555
C1 O1 1_555 1_555
O1 Gd4 1_555 1_555
N3 Gd1 1_555 1_555
C2 C1 1_555 1_555
C3 C1 1_555 1_555
N9 N10 1_555 1_555
N10 N12 1_555 1_555
N11 N9 1_555 1_555
N12 Mn1 1_555 1_555
C4 C1 1_555 1_555
Gd2 O2 1_555 1_555
C5 O2 1_555 1_555
O2 Gd1 1_555 1_555
N15 Gd2 1_555 1_555
C6 C5 1_555 1_555
C7 C5 1_555 1_555
N23 Gd1 1_555 1_555
C8 C5 1_555 1_555
Gd3 O3 1_555 1_555
C9 O3 1_555 1_555
N25 N26 1_555 1_555
O3 Gd2 1_555 1_555
N26 N28 1_555 1_555
N27 Gd3 1_555 1_555
N28 C10 1_555 1_555
C10 C9 1_555 1_555
C11 C9 1_555 1_555
N35 Gd2 1_555 1_555
C12 C9 1_555 1_555
C13 O4 1_555 1_555
N37 N38 1_555 1_555
O4 Gd3 1_555 1_555
N38 N40 1_555 1_555
N39 N37 1_555 1_555
N40 C14 1_555 1_555
C14 C13 1_555 1_555
C15 C13 1_555 1_555
N45 N46 1_555 1_555
N46 N48 1_555 1_555
N47 Gd3 1_555 1_555
N48 C16 1_555 1_555
C16 C13 1_555 1_555
Gd4 N11 1_555 1_555
Gd5 O1 1_555 1_555
O5 Gd1 1_555 1_555
O6 Gd1 1_555 1_555
O7 Gd3 1_555 1_555
O8 Gd2 1_555 1_555
N49 Gd1 1_555 1_555
N50 Gd1 1_555 1_555
N51 Gd3 1_555 1_555
N52 Gd2 1_555 1_555
N53 Gd2 1_555 1_555
N54 Gd3 1_555 1_555
Mn3 N28 1_555 1_555
Mn4 N40 1_555 1_555
N3 C2 1_555 1_555
N7 C3 1_555 1_555
N7 Gd5 1_555 1_555
N11 C4 1_555 1_555
N12 C4 1_555 1_555
Gd2 O6 1_555 1_555
O2 Gd5 1_555 1_555
N15 C6 1_555 1_555
N19 C7 1_555 1_555
N19 Gd5 1_555 1_555
N23 C8 1_555 1_555
Gd3 O8 1_555 1_555
N25 N27 1_555 1_555
O3 Gd5 1_555 1_555
N27 C10 1_555 1_555
N31 C11 1_555 1_555
N31 Gd5 1_555 1_555
N35 C12 1_555 1_555
O4 Gd4 1_555 1_555
O4 Gd5 1_555 1_555
N39 C14 1_555 1_555
N39 Gd4 1_555 1_555
N43 C15 1_555 1_555
N43 Gd5 1_555 1_555
N45 N47 1_555 1_555
N47 C16 1_555 1_555
N48 Mn4 1_555 1_555
Gd4 O5 1_555 1_555
Gd4 O7 1_555 1_555
N5 N6 1_555 1_555
N6 N8 1_555 1_555
N8 Mn1_2 1_555 1_555
N17 N18 1_555 1_555
N18 N20 1_555 1_555
N20 Mn2_2 1_555 1_555
N29 N30 1_555 1_555
N30 N32 1_555 1_555
N41 N42 1_555 1_555
N42 N44 1_555 1_555
N55 Mn1_2 1_555 1_555
N32 Mn3_2 1_555 1_555
N44 Mn4_2 1_555 1_555
N13 N14 1_555 1_555
N14 N16 1_555 1_555
Mn2_3 N16 1_555 1_555
N33 N34 1_555 1_555
N34 N36 1_555 1_555
N36 Mn3_3 1_555 1_555
N57 Mn2_4 1_555 1_555
N1 N2 1_555 1_555
N2 N4 1_555 1_555
Mn1_3 N4 1_555 1_555
N21 N22 1_555 1_555
N22 N24 1_555 1_555
N24 Mn2_5 1_555 1_555
N58 Mn1_3 1_555 1_555
N56 Mn2_6 1_555 1_555
N59 Mn1_4 1_555 1_555
N60 Mn2_7 1_555 1_555
N51_2 Gd4 1_555 1_555
N54_2 Gd4 1_555 1_555
N57_2 Mn3_2 1_555 1_555
N60_2 Mn3_3 1_555 1_555
N56_2 Mn3_4 1_555 1_555
N60_3 Mn4 1_555 1_555
N56_3 Mn4_2 1_555 1_555
N57_3 Mn4_2 1_555 1_555
C1_2 O5 1_555 1_555
O5 Gd4_2 1_555 1_555
C2_2 C1_2 1_555 1_555
N5_2 N6_2 1_555 1_555
N6_2 N8_2 1_555 1_555
N51_2 N5_2 1_555 1_555
N8_2 Mn1_5 1_555 1_555
C3_2 C1_2 1_555 1_555
N9_2 N10_2 1_555 1_555
N10_2 N12_2 1_555 1_555
N11_2 N9_2 1_555 1_555
N12_2 Mn1_5 1_555 1_555
C4_2 C1_2 1_555 1_555
C13_2 O7 1_555 1_555
N37_2 N38_2 1_555 1_555
N38_2 N40_2 1_555 1_555
N39_2 N37_2 1_555 1_555
N40_2 C14_2 1_555 1_555
C14_2 C13_2 1_555 1_555
N41_2 N42_2 1_555 1_555
N42_2 N44_2 1_555 1_555
N54_2 N41_2 1_555 1_555
N44_2 C15_2 1_555 1_555
C15_2 C13_2 1_555 1_555
N45_2 N46_2 1_555 1_555
N46_2 N48_2 1_555 1_555
N48_2 C16_2 1_555 1_555
C16_2 C13_2 1_555 1_555
Gd4_2 N11_2 1_555 1_555
N55_2 Mn1_5 1_555 1_555
Mn4_3 N40_2 1_555 1_555
N49 C2_2 1_555 1_555
N51_2 C3_2 1_555 1_555
N8_2 C3_2 1_555 1_555
N11_2 C4_2 1_555 1_555
N12_2 C4_2 1_555 1_555
O7 Gd4_2 1_555 1_555
N39_2 C14_2 1_555 1_555
N39_2 Gd4_2 1_555 1_555
N54_2 C15_2 1_555 1_555
N44_2 Mn4_3 1_555 1_555
N45_2 N51 1_555 1_555
N51 C16_2 1_555 1_555
N48_2 Mn4_3 1_555 1_555
Gd4_2 O6 1_555 1_555
Gd4_2 O8 1_555 1_555
N1_2 N2_2 1_555 1_555
N2_2 N4_2 1_555 1_555
Mn1_6 N4_2 1_555 1_555
N58_2 Mn1_6 1_555 1_555
N59_2 Mn1_6 1_555 1_555
C1_3 O6 1_555 1_555
C2_3 C1_3 1_555 1_555
N5_3 N6_3 1_555 1_555
N6_3 N8_3 1_555 1_555
N7_2 N5_3 1_555 1_555
N8_3 Mn1_7 1_555 1_555
C3_3 C1_3 1_555 1_555
C4_3 C1_3 1_555 1_555
C13_3 O8 1_555 1_555
C14_3 C13_3 1_555 1_555
N41_3 N42_3 1_555 1_555
N42_3 N44_3 1_555 1_555
N43_2 N41_3 1_555 1_555
N44_3 C15_3 1_555 1_555
C15_3 C13_3 1_555 1_555
N45_3 N46_3 1_555 1_555
N46_3 N48_3 1_555 1_555
N48_3 C16_3 1_555 1_555
C16_3 C13_3 1_555 1_555
N50 C2_3 1_555 1_555
N7_2 C3_3 1_555 1_555
N7_2 Gd4_2 1_555 1_555
N8_3 C3_3 1_555 1_555
N52 C4_3 1_555 1_555
N53 C14_3 1_555 1_555
N43_2 C15_3 1_555 1_555
N43_2 Gd4_2 1_555 1_555
N44_3 Mn4_4 1_555 1_555
N45_3 N54 1_555 1_555
N54 C16_3 1_555 1_555
N48_3 Mn4_4 1_555 1_555
N9_3 N10_3 1_555 1_555
N10_3 N12_3 1_555 1_555
N12_3 Mn1_8 1_555 1_555
N37_3 N38_3 1_555 1_555
N38_3 N40_3 1_555 1_555
N55_3 Mn1_8 1_555 1_555
Mn4_5 N40_3 1_555 1_555
N1_3 N2_3 1_555 1_555
N2_3 N4_3 1_555 1_555
Mn1_9 N4_3 1_555 1_555
N59_3 Mn1_9 1_555 1_555
N58_3 Mn1_10 1_555 1_555
N55_4 Mn4_3 1_555 1_555
N56_4 Mn4_4 1_555 1_555
N58_4 Mn4_3 1_555 1_555
N59_4 Mn4_3 1_555 1_555
N57_4 Mn4_5 1_555 1_555
N60_4 Mn4_5 1_555 1_555
N1_4 N2_4 1_555 1_555
N2_4 N55 1_555 1_555
N21_2 N22_2 1_555 1_555
N22_2 N57 1_555 1_555
N13_2 N14_2 1_555 1_555
N14_2 N56 1_555 1_555
N33_2 N34_2 1_555 1_555
N34_2 N57_2 1_555 1_555
N5_4 N6_4 1_555 1_555
N6_4 N58 1_555 1_555
N17_2 N18_2 1_555 1_555
N18_2 N60 1_555 1_555
N29_2 N30_2 1_555 1_555
N30_2 N60_2 1_555 1_555
N41_4 N42_4 1_555 1_555
N42_4 N60_3 1_555 1_555
Gd1_2 O1_2 1_555 1_555
C1_4 O1_2 1_555 1_555
O1_2 Gd4_3 1_555 1_555
N3_2 Gd1_2 1_555 1_555
C2_4 C1_4 1_555 1_555
C3_4 C1_4 1_555 1_555
N9_4 N10_4 1_555 1_555
N10_4 N59 1_555 1_555
N11_3 N9_4 1_555 1_555
C4_4 C1_4 1_555 1_555
Gd2_2 O2_2 1_555 1_555
C5_2 O2_2 1_555 1_555
O2_2 Gd1_2 1_555 1_555
N15_2 Gd2_2 1_555 1_555
C6_2 C5_2 1_555 1_555
C7_2 C5_2 1_555 1_555
N23_2 Gd1_2 1_555 1_555
C8_2 C5_2 1_555 1_555
Gd3_2 O3_2 1_555 1_555
C9_2 O3_2 1_555 1_555
N25_2 N26_2 1_555 1_555
O3_2 Gd2_2 1_555 1_555
N26_2 N56_2 1_555 1_555
N27_2 Gd3_2 1_555 1_555
N56_2 C10_2 1_555 1_555
C10_2 C9_2 1_555 1_555
C11_2 C9_2 1_555 1_555
N35_2 Gd2_2 1_555 1_555
C12_2 C9_2 1_555 1_555
C13_4 O4_2 1_555 1_555
N37_4 N38_4 1_555 1_555
O4_2 Gd3_2 1_555 1_555
N38_4 N56_3 1_555 1_555
N39_3 N37_4 1_555 1_555
N56_3 C14_4 1_555 1_555
C14_4 C13_4 1_555 1_555
C15_4 C13_4 1_555 1_555
N45_4 N46_4 1_555 1_555
N46_4 N57_3 1_555 1_555
N47_2 Gd3_2 1_555 1_555
N57_3 C16_4 1_555 1_555
C16_4 C13_4 1_555 1_555
Gd4_3 N11_3 1_555 1_555
Gd5_2 O1_2 1_555 1_555
O5_2 Gd1_2 1_555 1_555
O6_2 Gd1_2 1_555 1_555
O7_2 Gd3_2 1_555 1_555
O8_2 Gd2_2 1_555 1_555
N49_2 Gd1_2 1_555 1_555
N50_2 Gd1_2 1_555 1_555
N51_3 Gd3_2 1_555 1_555
N52_2 Gd2_2 1_555 1_555
N53_2 Gd2_2 1_555 1_555
N54_3 Gd3_2 1_555 1_555
N3_2 C2_4 1_555 1_555
N7_3 C3_4 1_555 1_555
N7_3 Gd5_2 1_555 1_555
N11_3 C4_4 1_555 1_555
N59 C4_4 1_555 1_555
Gd2_2 O6_2 1_555 1_555
O2_2 Gd5_2 1_555 1_555
N15_2 C6_2 1_555 1_555
N19_2 C7_2 1_555 1_555
N19_2 Gd5_2 1_555 1_555
N23_2 C8_2 1_555 1_555
Gd3_2 O8_2 1_555 1_555
N25_2 N27_2 1_555 1_555
O3_2 Gd5_2 1_555 1_555
N27_2 C10_2 1_555 1_555
N31_2 C11_2 1_555 1_555
N31_2 Gd5_2 1_555 1_555
N35_2 C12_2 1_555 1_555
O4_2 Gd4_3 1_555 1_555
O4_2 Gd5_2 1_555 1_555
N39_3 C14_4 1_555 1_555
N39_3 Gd4_3 1_555 1_555
N43_3 C15_4 1_555 1_555
N43_3 Gd5_2 1_555 1_555
N45_4 N47_2 1_555 1_555
N47_2 C16_4 1_555 1_555
Gd4_3 O5_2 1_555 1_555
Gd4_3 O7_2 1_555 1_555
N51_4 Gd4_3 1_555 1_555
N54_4 Gd4_3 1_555 1_555
N1_5 N2_5 1_555 1_555
N2_5 N55_2 1_555 1_555
C1_5 O5_2 1_555 1_555
O5_2 Gd4_4 1_555 1_555
C2_5 C1_5 1_555 1_555
N5_5 N6_5 1_555 1_555
N6_5 N58_2 1_555 1_555
N51_4 N5_5 1_555 1_555
C3_5 C1_5 1_555 1_555
N9_5 N10_5 1_555 1_555
N10_5 N59_2 1_555 1_555
N11_4 N9_5 1_555 1_555
C4_5 C1_5 1_555 1_555
C13_5 O7_2 1_555 1_555
N37_5 N38_5 1_555 1_555
N38_5 N58_4 1_555 1_555
N39_4 N37_5 1_555 1_555
N58_4 C14_5 1_555 1_555
C14_5 C13_5 1_555 1_555
N41_5 N42_5 1_555 1_555
N42_5 N59_4 1_555 1_555
N54_4 N41_5 1_555 1_555
N59_4 C15_5 1_555 1_555
C15_5 C13_5 1_555 1_555
N45_5 N46_5 1_555 1_555
N46_5 N55_4 1_555 1_555
N55_4 C16_5 1_555 1_555
C16_5 C13_5 1_555 1_555
Gd4_4 N11_4 1_555 1_555
N49_2 C2_5 1_555 1_555
N51_4 C3_5 1_555 1_555
N58_2 C3_5 1_555 1_555
N11_4 C4_5 1_555 1_555
N59_2 C4_5 1_555 1_555
O7_2 Gd4_4 1_555 1_555
N39_4 C14_5 1_555 1_555
N39_4 Gd4_4 1_555 1_555
N54_4 C15_5 1_555 1_555
N45_5 N51_3 1_555 1_555
N51_3 C16_5 1_555 1_555
Gd4_4 O6_2 1_555 1_555
Gd4_4 O8_2 1_555 1_555
N1_6 N2_6 1_555 1_555
N2_6 N55_3 1_555 1_555
N9_6 N10_6 1_555 1_555
N10_6 N59_3 1_555 1_555
N37_6 N38_6 1_555 1_555
N38_6 N56_4 1_555 1_555
C1_6 O6_2 1_555 1_555
C2_6 C1_6 1_555 1_555
N5_6 N6_6 1_555 1_555
N6_6 N58_3 1_555 1_555
N7_4 N5_6 1_555 1_555
C3_6 C1_6 1_555 1_555
C4_6 C1_6 1_555 1_555
C13_6 O8_2 1_555 1_555
C14_6 C13_6 1_555 1_555
N41_6 N42_6 1_555 1_555
N42_6 N60_4 1_555 1_555
N43_4 N41_6 1_555 1_555
N60_4 C15_6 1_555 1_555
C15_6 C13_6 1_555 1_555
N45_6 N46_6 1_555 1_555
N46_6 N57_4 1_555 1_555
N57_4 C16_6 1_555 1_555
C16_6 C13_6 1_555 1_555
N50_2 C2_6 1_555 1_555
N7_4 C3_6 1_555 1_555
N7_4 Gd4_4 1_555 1_555
N58_3 C3_6 1_555 1_555
N52_2 C4_6 1_555 1_555
N53_2 C14_6 1_555 1_555
N43_4 C15_6 1_555 1_555
N43_4 Gd4_4 1_555 1_555
N45_6 N54_3 1_555 1_555
N54_3 C16_6 1_555 1_555

#END
