
###############################################################################
#
# This file contains modified crystal structure data generated from the
# MOF subset of the Cambridge Structural Database (CSD) v543 
# hosted by the Cambridge Crystallographic Data Centre (CCDC).
#
# This work is licensed under the Creative Commons
# Attribution-NonCommercial-ShareAlike 4.0 International License.
# To view a copy of this license, visit
# http://creativecommons.org/licenses/by-nc-sa/4.0/
# or send a letter to
# Creative Commons, PO Box 1866, Mountain View, CA 94042, USA.
#
# CIF created using the CSD Python API on 29 September 2022
# The structure has been converted into the P1 space group
# The structure has a 3D framework
# The original CSD entry QUJKUD is in the monoclinic crystal system
# The framework has been calculated to contain at least 10.0% void space
# The void calculation uses a probe of radius 1.32A, grid spacing 0.4
# The framework is charged, counterions have been retained in the structure
#
###############################################################################

data_QUJKUD
_chemical_formula_moiety         '(C288 H200 Cu24 N104 O94)n'
_symmetry_cell_setting           triclinic
_symmetry_space_group_name_H-M   'P 1'
_symmetry_Int_Tables_number      1
_space_group_name_Hall           'P 1'
loop_
_symmetry_equiv_pos_site_id
_symmetry_equiv_pos_as_xyz
1 x,y,z
_cell_length_a                   25.4902(4)
_cell_length_b                   14.7273(2)
_cell_length_c                   27.1139(5)
_cell_angle_alpha                90
_cell_angle_beta                 94.6592(17)
_cell_angle_gamma                90
_cell_volume                     10145
loop_
_atom_site_label
_atom_site_type_symbol
_atom_site_fract_x
_atom_site_fract_y
_atom_site_fract_z
O1 O 0.1798(5) 0.2714(9) 0.2448(6)
N1 N 0.2045(5) 0.2062(9) 0.2512(5)
O2 O 0.1882(7) 0.1450(10) 0.2762(7)
O3 O 0.2439(6) 0.1927(12) 0.2305(6)
O1_2 O 0.8202(5) 0.2714(9) 0.2552(6)
N1_2 N 0.7955(5) 0.2062(9) 0.2488(5)
O2_2 O 0.8118(7) 0.1450(10) 0.2238(7)
O3_2 O 0.7561(6) 0.1927(12) 0.2695(6)
O1_3 O 0.6798(5) 0.7714(9) 0.2448(6)
N1_3 N 0.7045(5) 0.7062(9) 0.2512(5)
O2_3 O 0.6882(7) 0.6450(10) 0.2762(7)
O3_3 O 0.7439(6) 0.6927(12) 0.2305(6)
O1_4 O 0.3202(5) 0.7714(9) 0.2552(6)
N1_4 N 0.2955(5) 0.7062(9) 0.2488(5)
O2_4 O 0.3118(7) 0.6450(10) 0.2238(7)
O3_4 O 0.2561(6) 0.6927(12) 0.2695(6)
O1_5 O 0.8202(5) 0.7286(9) 0.7552(6)
N1_5 N 0.7955(5) 0.7938(9) 0.7488(5)
O2_5 O 0.8118(7) 0.8550(10) 0.7238(7)
O3_5 O 0.7561(6) 0.8073(12) 0.7695(6)
O1_6 O 0.1798(5) 0.7286(9) 0.7448(6)
N1_6 N 0.2045(5) 0.7938(9) 0.7512(5)
O2_6 O 0.1882(7) 0.8550(10) 0.7762(7)
O3_6 O 0.2439(6) 0.8073(12) 0.7305(6)
O1_7 O 0.3202(5) 0.2286(9) 0.7552(6)
N1_7 N 0.2955(5) 0.2938(9) 0.7488(5)
O2_7 O 0.3118(7) 0.3550(10) 0.7238(7)
O3_7 O 0.2561(6) 0.3073(12) 0.7695(6)
O1_8 O 0.6798(5) 0.2286(9) 0.7448(6)
N1_8 N 0.7045(5) 0.2938(9) 0.7512(5)
O2_8 O 0.6882(7) 0.3550(10) 0.7762(7)
O3_8 O 0.7439(6) 0.3073(12) 0.7305(6)
Cu1 Cu 0.09909(2) 0.46394(3) 0.065922(19)
Cu2 Cu 0.22680(2) 0.46340(4) 0.11553(2)
Cu3 Cu 0.16273(2) 0.65149(3) 0.115463(19)
N2 N 0.18530(15) 0.3490(3) 0.11104(15)
N3 N 0.13637(16) 0.3474(3) 0.08560(15)
N4 N 0.17205(17) 0.5291(3) 0.26280(14)
C1 C 0.1515(2) 0.4993(4) 0.41382(18)
N5 N 0.16891(16) 0.5838(3) 0.18769(14)
C2 C 0.15314(19) 0.5959(3) 0.23174(17)
H1 H 0.1315 0.6446 0.2408
N6 N 0.19950(17) 0.5055(3) 0.18926(15)
C3 C 0.2062(2) 0.4881(5) 0.3458(2)
H2 H 0.2392 0.4745 0.3336
C4 C 0.1646(2) 0.5187(4) 0.31418(18)
C5 C 0.1164(2) 0.5384(4) 0.33109(19)
H3 H 0.0878 0.5576 0.3089
C6 C 0.1106(2) 0.5294(4) 0.38108(19)
H4 H 0.0778 0.5443 0.3933
N7 N 0.15659(19) 0.2107(3) 0.1101(2)
C7 C 0.1988(2) 0.4778(5) 0.3953(2)
H5 H 0.2269 0.4553 0.4171
C8 C 0.2009(2) 0.4747(4) 0.23449(18)
H6 H 0.2193 0.4218 0.2461
C9 C 0.1965(2) 0.2672(4) 0.1250(2)
H7 H 0.2282 0.2492 0.1432
C10 C 0.1200(2) 0.2636(4) 0.0851(2)
H8 H 0.0874 0.2428 0.0697
O4 O 0.16546(12) 0.5297(2) 0.08384(11)
N8 N 0.08511(15) 0.6511(3) 0.09936(15)
O5 O 0.03219(12) 0.3967(2) 0.05700(12)
O6 O 0.03811(15) 0.4140(3) 0.13851(14)
N10 N 0.06061(15) 0.5819(3) 0.07215(14)
C12 C 0.01501(19) 0.3853(3) 0.0995(2)
O7 O 0.10543(13) 0.5245(2) 0.48508(12)
N13 N 0.00228(15) 0.6834(3) 0.08672(16)
C16 C 0.01103(18) 0.6028(3) 0.06463(17)
C18 C 0.04976(19) 0.7106(3) 0.10765(19)
H13 H 0.0561 0.7654 0.1257
O8 O 0.18218(17) 0.4505(3) 0.49367(13)
C28 C 0.1456(2) 0.4903(3) 0.46818(18)
C30 C 0.1602(4) 0.1109(9) 0.0993(5)
C31 C 0.1750(5) 0.0700(7) 0.0569(4)
H21 H 0.1852 0.1052 0.0299
C34 C 0.1464(5) 0.0626(8) 0.1402(5)
H23 H 0.1367 0.0917 0.1693
H25 H 0.177(2) 0.537(4) 0.0559(11)
Cu4 Cu 0.09909(2) 0.53606(3) 0.565922(19)
N14 N 0.24116(15) 0.6573(3) 0.11395(16)
N15 N 0.26775(17) 0.5767(3) 0.1102(2)
O14 O 0.16074(13) 0.7815(2) 0.12831(14)
O15 O 0.28153(14) 0.3839(3) 0.05038(14)
O16 O 0.29245(13) 0.3948(2) 0.13202(13)
O17 O 0.1723(3) 0.7879(5) 0.0532(3)
O13 O 0.10543(13) 0.4755(2) 0.98508(12)
C32 C 0.1652(3) 0.8242(7) 0.0924(3)
C33 C 0.1745(5) 0.9766(7) 0.0548(4)
H22 H 0.1831 0.9463 0.0256
C35 C 0.1618(5) 0.9279(9) 0.0946(4)
C36 C 0.1478(8) 0.9685(11) 0.1356(7)
H24 H 0.1385 0.9321 0.1625
N9 N 0.74116(15) 0.1573(3) 0.11395(16)
C11 C 0.96461(19) 0.3321(3) 0.1014(2)
C13 C 0.9394(2) 0.2957(4) 0.0584(2)
H9 H 0.9541 0.3035 0.0276
N11 N 0.82365(18) 0.1879(3) 0.1087(2)
N12 N 0.76775(17) 0.0767(3) 0.1102(2)
C14 C 0.7754(2) 0.2225(3) 0.1131(2)
H10 H 0.7675 0.2853 0.1153
C15 C 0.9430(2) 0.3214(4) 0.1462(2)
H11 H 0.9604 0.3468 0.1752
H12 H 0.9850 0.5673 0.0465
C17 C 0.95323(18) 0.7301(3) 0.0883(2)
C19 C 0.85806(18) 0.8179(3) 0.09044(19)
C20 C 0.9180(2) 0.7287(4) 0.0466(2)
H14 H 0.9264 0.6977 0.0175
C21 C 0.9417(2) 0.7730(5) 0.1310(2)
H15 H 0.9660 0.7719 0.1594
C22 C 0.8941(2) 0.8178(4) 0.1322(2)
H16 H 0.8858 0.8485 0.1614
C23 C 0.8706(2) 0.7732(4) 0.0480(2)
H17 H 0.8462 0.7731 0.0196
C24 C 0.8927(2) 0.2479(5) 0.0608(3)
H18 H 0.8752 0.2225 0.0318
C25 C 0.8962(2) 0.2741(4) 0.1493(3)
H19 H 0.8810 0.2668 0.1799
C26 C 0.8725(2) 0.2382(4) 0.1057(3)
C27 C 0.8173(2) 0.0971(4) 0.1067(3)
H20 H 0.8446 0.0543 0.1033
O10 O 0.78153(14) 0.8839(3) 0.05038(14)
C29 C 0.80726(18) 0.8684(3) 0.08993(19)
O11 O 0.79245(13) 0.8948(2) 0.13202(13)
Cu6 Cu 0.72680(2) 0.96340(4) 0.11553(2)
Cu8 Cu 0.66273(2) 0.15149(3) 0.115463(19)
N4_2 N 0.67205(17) 0.0291(3) 0.26280(14)
N5_2 N 0.66891(16) 0.0838(3) 0.18769(14)
C2_2 C 0.65314(19) 0.0959(3) 0.23174(17)
H1_2 H 0.6315 0.1446 0.2408
N6_2 N 0.69950(17) 0.0055(3) 0.18926(15)
C4_2 C 0.6646(2) 0.0187(4) 0.31418(18)
C5_2 C 0.6164(2) 0.0384(4) 0.33109(19)
H3_2 H 0.5878 0.0576 0.3089
C6_2 C 0.6106(2) 0.0294(4) 0.38108(19)
H4_2 H 0.5778 0.0443 0.3933
O4_2 O 0.66546(12) 0.0297(2) 0.08384(11)
N8_2 N 0.58511(15) 0.1511(3) 0.09936(15)
N10_2 N 0.56061(15) 0.0819(3) 0.07215(14)
O7_2 O 0.60543(13) 0.0245(2) 0.48508(12)
N13_2 N 0.50228(15) 0.1834(3) 0.08672(16)
C16_2 C 0.51103(18) 0.1028(3) 0.06463(17)
H12_2 H 0.4850 0.0673 0.0465
C17_2 C 0.45323(18) 0.2301(3) 0.0883(2)
C18_2 C 0.54976(19) 0.2106(3) 0.10765(19)
H13_2 H 0.5561 0.2654 0.1257
C19_2 C 0.35806(18) 0.3179(3) 0.09044(19)
C20_2 C 0.4180(2) 0.2287(4) 0.0466(2)
H14_2 H 0.4264 0.1977 0.0175
C21_2 C 0.4417(2) 0.2730(5) 0.1310(2)
H15_2 H 0.4660 0.2719 0.1594
C22_2 C 0.3941(2) 0.3178(4) 0.1322(2)
H16_2 H 0.3858 0.3485 0.1614
C23_2 C 0.3706(2) 0.2732(4) 0.0480(2)
H17_2 H 0.3462 0.2731 0.0196
C29_2 C 0.30726(18) 0.3684(3) 0.08993(19)
H25_2 H 0.677(2) 0.037(4) 0.0559(11)
Cu4_2 Cu 0.59909(2) 0.03606(3) 0.565922(19)
O14_2 O 0.66074(13) 0.2815(2) 0.12831(14)
O17_2 O 0.6723(3) 0.2879(5) 0.0532(3)
Cu1_2 Cu 0.59909(2) 0.96394(3) 0.065922(19)
N2_2 N 0.68530(15) 0.8490(3) 0.11104(15)
N3_2 N 0.63637(16) 0.8474(3) 0.08560(15)
C1_2 C 0.6515(2) 0.9993(4) 0.41382(18)
C3_2 C 0.7062(2) 0.9881(5) 0.3458(2)
H2_2 H 0.7392 0.9745 0.3336
N7_2 N 0.65659(19) 0.7107(3) 0.1101(2)
C7_2 C 0.6988(2) 0.9778(5) 0.3953(2)
H5_2 H 0.7269 0.9553 0.4171
C8_2 C 0.7009(2) 0.9747(4) 0.23449(18)
H6_2 H 0.7193 0.9218 0.2461
C9_2 C 0.6965(2) 0.7672(4) 0.1250(2)
H7_2 H 0.7282 0.7492 0.1432
C10_2 C 0.6200(2) 0.7636(4) 0.0851(2)
H8_2 H 0.5874 0.7428 0.0697
O5_2 O 0.53219(12) 0.8967(2) 0.05700(12)
O6_2 O 0.53811(15) 0.9140(3) 0.13851(14)
C11_2 C 0.46461(19) 0.8321(3) 0.1014(2)
C12_2 C 0.51501(19) 0.8853(3) 0.0995(2)
C13_2 C 0.4394(2) 0.7957(4) 0.0584(2)
H9_2 H 0.4541 0.8035 0.0276
N11_2 N 0.32365(18) 0.6879(3) 0.1087(2)
C14_2 C 0.2754(2) 0.7225(3) 0.1131(2)
H10_2 H 0.2675 0.7853 0.1153
C15_2 C 0.4430(2) 0.8214(4) 0.1462(2)
H11_2 H 0.4604 0.8468 0.1752
C24_2 C 0.3927(2) 0.7479(5) 0.0608(3)
H18_2 H 0.3752 0.7225 0.0318
C25_2 C 0.3962(2) 0.7741(4) 0.1493(3)
H19_2 H 0.3810 0.7668 0.1799
C26_2 C 0.3725(2) 0.7382(4) 0.1057(3)
C27_2 C 0.3173(2) 0.5971(4) 0.1067(3)
H20_2 H 0.3446 0.5543 0.1033
O8_2 O 0.68218(17) 0.9505(3) 0.49367(13)
C28_2 C 0.6456(2) 0.9903(3) 0.46818(18)
C30_2 C 0.6602(4) 0.6109(9) 0.0993(5)
C31_2 C 0.6750(5) 0.5700(7) 0.0569(4)
H21_2 H 0.6852 0.6052 0.0299
C32_2 C 0.6652(3) 0.3242(7) 0.0924(3)
C33_2 C 0.6745(5) 0.4766(7) 0.0548(4)
H22_2 H 0.6831 0.4463 0.0256
C34_2 C 0.6464(5) 0.5626(8) 0.1402(5)
H23_2 H 0.6367 0.5917 0.1693
C35_2 C 0.6618(5) 0.4279(9) 0.0946(4)
C36_2 C 0.6478(8) 0.4685(11) 0.1356(7)
H24_2 H 0.6385 0.4321 0.1625
O13_2 O 0.60543(13) 0.9755(2) 0.98508(12)
O9 O 0.16074(13) 0.2185(2) 0.62831(14)
O12 O 0.1723(3) 0.2121(5) 0.5532(3)
C32_3 C 0.1652(3) 0.1758(7) 0.5924(3)
C33_3 C 0.1745(5) 0.0234(7) 0.5548(4)
H22_3 H 0.1831 0.0537 0.5256
C35_3 C 0.1618(5) 0.0721(9) 0.5946(4)
C36_3 C 0.1478(8) 0.0315(11) 0.6356(7)
H24_3 H 0.1385 0.0679 0.6625
Cu7 Cu 0.16273(2) 0.34851(3) 0.615463(19)
Cu2_2 Cu 0.22680(2) 0.53660(4) 0.61553(2)
N2_3 N 0.18530(15) 0.6510(3) 0.61104(15)
N3_3 N 0.13637(16) 0.6526(3) 0.58560(15)
N4_3 N 0.17205(17) 0.4709(3) 0.76280(14)
C1_3 C 0.1515(2) 0.5007(4) 0.91382(18)
N5_3 N 0.16891(16) 0.4162(3) 0.68769(14)
C2_3 C 0.15314(19) 0.4041(3) 0.73174(17)
H1_3 H 0.1315 0.3554 0.7408
N6_3 N 0.19950(17) 0.4945(3) 0.68926(15)
C3_3 C 0.2062(2) 0.5119(5) 0.8458(2)
H2_3 H 0.2392 0.5255 0.8336
C4_3 C 0.1646(2) 0.4813(4) 0.81418(18)
C5_3 C 0.1164(2) 0.4616(4) 0.83109(19)
H3_3 H 0.0878 0.4424 0.8089
C6_3 C 0.1106(2) 0.4706(4) 0.88108(19)
H4_3 H 0.0778 0.4557 0.8933
N7_3 N 0.15659(19) 0.7893(3) 0.6101(2)
C7_3 C 0.1988(2) 0.5222(5) 0.8953(2)
H5_3 H 0.2269 0.5447 0.9171
C8_3 C 0.2009(2) 0.5253(4) 0.73449(18)
H6_3 H 0.2193 0.5782 0.7461
C9_3 C 0.1965(2) 0.7328(4) 0.6250(2)
H7_3 H 0.2282 0.7508 0.6432
C10_3 C 0.1200(2) 0.7364(4) 0.5851(2)
H8_3 H 0.0874 0.7572 0.5697
O4_3 O 0.16546(12) 0.4703(2) 0.58384(11)
N8_3 N 0.08511(15) 0.3489(3) 0.59936(15)
O5_3 O 0.03219(12) 0.6033(2) 0.55700(12)
O6_3 O 0.03811(15) 0.5860(3) 0.63851(14)
N10_3 N 0.06061(15) 0.4181(3) 0.57215(14)
C12_3 C 0.01501(19) 0.6147(3) 0.5995(2)
N13_3 N 0.00228(15) 0.3166(3) 0.58672(16)
C16_3 C 0.01103(18) 0.3972(3) 0.56463(17)
C18_3 C 0.04976(19) 0.2894(3) 0.60765(19)
H13_3 H 0.0561 0.2346 0.6257
O8_3 O 0.18218(17) 0.5495(3) 0.99367(13)
C28_3 C 0.1456(2) 0.5097(3) 0.96818(18)
C30_3 C 0.1602(4) 0.8891(9) 0.5993(5)
C31_3 C 0.1750(5) 0.9300(7) 0.5569(4)
H21_3 H 0.1852 0.8948 0.5299
C34_3 C 0.1464(5) 0.9374(8) 0.6402(5)
H23_3 H 0.1367 0.9083 0.6693
H25_3 H 0.177(2) 0.463(4) 0.5559(11)
N14_2 N 0.24116(15) 0.3427(3) 0.61395(16)
N15_2 N 0.26775(17) 0.4233(3) 0.6102(2)
O15_2 O 0.28153(14) 0.6161(3) 0.55038(14)
O16_2 O 0.29245(13) 0.6052(2) 0.63202(13)
Cu5 Cu 0.72680(2) 0.03660(4) 0.61553(2)
N9_2 N 0.74116(15) 0.8427(3) 0.61395(16)
C11_3 C 0.96461(19) 0.6679(3) 0.6014(2)
C13_3 C 0.9394(2) 0.7043(4) 0.5584(2)
H9_3 H 0.9541 0.6965 0.5276
N11_3 N 0.82365(18) 0.8121(3) 0.6087(2)
N12_2 N 0.76775(17) 0.9233(3) 0.6102(2)
C14_3 C 0.7754(2) 0.7775(3) 0.6131(2)
H10_3 H 0.7675 0.7147 0.6153
C15_3 C 0.9430(2) 0.6786(4) 0.6462(2)
H11_3 H 0.9604 0.6532 0.6752
H12_3 H 0.9850 0.4327 0.5465
C17_3 C 0.95323(18) 0.2699(3) 0.5883(2)
C19_3 C 0.85806(18) 0.1821(3) 0.59044(19)
C20_3 C 0.9180(2) 0.2713(4) 0.5466(2)
H14_3 H 0.9264 0.3023 0.5175
C21_3 C 0.9417(2) 0.2270(5) 0.6310(2)
H15_3 H 0.9660 0.2281 0.6594
C22_3 C 0.8941(2) 0.1822(4) 0.6322(2)
H16_3 H 0.8858 0.1515 0.6614
C23_3 C 0.8706(2) 0.2268(4) 0.5480(2)
H17_3 H 0.8462 0.2269 0.5196
C24_3 C 0.8927(2) 0.7521(5) 0.5608(3)
H18_3 H 0.8752 0.7775 0.5318
C25_3 C 0.8962(2) 0.7259(4) 0.6493(3)
H19_3 H 0.8810 0.7332 0.6799
C26_3 C 0.8725(2) 0.7618(4) 0.6057(3)
C27_3 C 0.8173(2) 0.9029(4) 0.6067(3)
H20_3 H 0.8446 0.9457 0.6033
O10_2 O 0.78153(14) 0.1161(3) 0.55038(14)
C29_3 C 0.80726(18) 0.1316(3) 0.58993(19)
O11_2 O 0.79245(13) 0.1052(2) 0.63202(13)
Cu8_2 Cu 0.66273(2) 0.84851(3) 0.615463(19)
N2_4 N 0.68530(15) 0.1510(3) 0.61104(15)
N3_4 N 0.63637(16) 0.1526(3) 0.58560(15)
C1_4 C 0.6515(2) 0.0007(4) 0.91382(18)
C3_4 C 0.7062(2) 0.0119(5) 0.8458(2)
H2_4 H 0.7392 0.0255 0.8336
N7_4 N 0.65659(19) 0.2893(3) 0.6101(2)
C7_4 C 0.6988(2) 0.0222(5) 0.8953(2)
H5_4 H 0.7269 0.0447 0.9171
C8_4 C 0.7009(2) 0.0253(4) 0.73449(18)
H6_4 H 0.7193 0.0782 0.7461
C9_4 C 0.6965(2) 0.2328(4) 0.6250(2)
H7_4 H 0.7282 0.2508 0.6432
C10_4 C 0.6200(2) 0.2364(4) 0.5851(2)
H8_4 H 0.5874 0.2572 0.5697
O5_4 O 0.53219(12) 0.1033(2) 0.55700(12)
O6_4 O 0.53811(15) 0.0860(3) 0.63851(14)
C11_4 C 0.46461(19) 0.1679(3) 0.6014(2)
C12_4 C 0.51501(19) 0.1147(3) 0.5995(2)
C13_4 C 0.4394(2) 0.2043(4) 0.5584(2)
H9_4 H 0.4541 0.1965 0.5276
N11_4 N 0.32365(18) 0.3121(3) 0.6087(2)
C14_4 C 0.2754(2) 0.2775(3) 0.6131(2)
H10_4 H 0.2675 0.2147 0.6153
C15_4 C 0.4430(2) 0.1786(4) 0.6462(2)
H11_4 H 0.4604 0.1532 0.6752
C24_4 C 0.3927(2) 0.2521(5) 0.5608(3)
H18_4 H 0.3752 0.2775 0.5318
C25_4 C 0.3962(2) 0.2259(4) 0.6493(3)
H19_4 H 0.3810 0.2332 0.6799
C26_4 C 0.3725(2) 0.2618(4) 0.6057(3)
C27_4 C 0.3173(2) 0.4029(4) 0.6067(3)
H20_4 H 0.3446 0.4457 0.6033
O8_4 O 0.68218(17) 0.0495(3) 0.99367(13)
C28_4 C 0.6456(2) 0.0097(3) 0.96818(18)
O9_2 O 0.66074(13) 0.7185(2) 0.62831(14)
O12_2 O 0.6723(3) 0.7121(5) 0.5532(3)
C30_4 C 0.6602(4) 0.3891(9) 0.5993(5)
C31_4 C 0.6750(5) 0.4300(7) 0.5569(4)
H21_4 H 0.6852 0.3948 0.5299
C32_4 C 0.6652(3) 0.6758(7) 0.5924(3)
C33_4 C 0.6745(5) 0.5234(7) 0.5548(4)
H22_4 H 0.6831 0.5537 0.5256
C34_4 C 0.6464(5) 0.4374(8) 0.6402(5)
H23_4 H 0.6367 0.4083 0.6693
C35_4 C 0.6618(5) 0.5721(9) 0.5946(4)
C36_4 C 0.6478(8) 0.5315(11) 0.6356(7)
H24_4 H 0.6385 0.5679 0.6625
N4_4 N 0.67205(17) 0.9709(3) 0.76280(14)
N5_4 N 0.66891(16) 0.9162(3) 0.68769(14)
C2_4 C 0.65314(19) 0.9041(3) 0.73174(17)
H1_4 H 0.6315 0.8554 0.7408
N6_4 N 0.69950(17) 0.9945(3) 0.68926(15)
C4_4 C 0.6646(2) 0.9813(4) 0.81418(18)
C5_4 C 0.6164(2) 0.9616(4) 0.83109(19)
H3_4 H 0.5878 0.9424 0.8089
C6_4 C 0.6106(2) 0.9706(4) 0.88108(19)
H4_4 H 0.5778 0.9557 0.8933
O4_4 O 0.66546(12) 0.9703(2) 0.58384(11)
N8_4 N 0.58511(15) 0.8489(3) 0.59936(15)
N10_4 N 0.56061(15) 0.9181(3) 0.57215(14)
N13_4 N 0.50228(15) 0.8166(3) 0.58672(16)
C16_4 C 0.51103(18) 0.8972(3) 0.56463(17)
H12_4 H 0.4850 0.9327 0.5465
C17_4 C 0.45323(18) 0.7699(3) 0.5883(2)
C18_4 C 0.54976(19) 0.7894(3) 0.60765(19)
H13_4 H 0.5561 0.7346 0.6257
C19_4 C 0.35806(18) 0.6821(3) 0.59044(19)
C20_4 C 0.4180(2) 0.7713(4) 0.5466(2)
H14_4 H 0.4264 0.8023 0.5175
C21_4 C 0.4417(2) 0.7270(5) 0.6310(2)
H15_4 H 0.4660 0.7281 0.6594
C22_4 C 0.3941(2) 0.6822(4) 0.6322(2)
H16_4 H 0.3858 0.6515 0.6614
C23_4 C 0.3706(2) 0.7268(4) 0.5480(2)
H17_4 H 0.3462 0.7269 0.5196
C29_4 C 0.30726(18) 0.6316(3) 0.58993(19)
H25_4 H 0.677(2) 0.963(4) 0.5559(11)
N9_3 N 0.25884(15) 0.1573(3) 0.38605(16)
C11_5 C 0.03539(19) 0.3321(3) 0.3986(2)
C13_5 C 0.0606(2) 0.2957(4) 0.4416(2)
H9_5 H 0.0459 0.3035 0.4724
N11_5 N 0.17635(18) 0.1879(3) 0.3913(2)
N12_3 N 0.23225(17) 0.0767(3) 0.3898(2)
C14_5 C 0.2246(2) 0.2225(3) 0.3869(2)
H10_5 H 0.2325 0.2853 0.3847
C15_5 C 0.0570(2) 0.3214(4) 0.3538(2)
H11_5 H 0.0396 0.3468 0.3248
H12_5 H 0.0150 0.5673 0.4535
C17_5 C 0.04677(18) 0.7301(3) 0.4117(2)
C19_5 C 0.14194(18) 0.8179(3) 0.40956(19)
C20_5 C 0.0820(2) 0.7287(4) 0.4534(2)
H14_5 H 0.0736 0.6977 0.4825
C21_5 C 0.0583(2) 0.7730(5) 0.3690(2)
H15_5 H 0.0340 0.7719 0.3406
C22_5 C 0.1059(2) 0.8178(4) 0.3678(2)
H16_5 H 0.1142 0.8485 0.3386
C23_5 C 0.1294(2) 0.7732(4) 0.4520(2)
H17_5 H 0.1538 0.7731 0.4804
C24_5 C 0.1073(2) 0.2479(5) 0.4392(3)
H18_5 H 0.1248 0.2225 0.4682
C25_5 C 0.1038(2) 0.2741(4) 0.3507(3)
H19_5 H 0.1190 0.2668 0.3201
C26_5 C 0.1275(2) 0.2382(4) 0.3943(3)
C27_5 C 0.1827(2) 0.0971(4) 0.3933(3)
H20_5 H 0.1554 0.0543 0.3967
O10_3 O 0.21847(14) 0.8839(3) 0.44962(14)
C29_5 C 0.19274(18) 0.8684(3) 0.41007(19)
O11_3 O 0.20755(13) 0.8948(2) 0.36798(13)
Cu6_2 Cu 0.27320(2) 0.96340(4) 0.38447(2)
Cu8_3 Cu 0.33727(2) 0.15149(3) 0.384537(19)
Cu1_3 Cu 0.90091(2) 0.46394(3) 0.434078(19)
Cu2_3 Cu 0.77320(2) 0.46340(4) 0.38447(2)
Cu3_2 Cu 0.83727(2) 0.65149(3) 0.384537(19)
N2_5 N 0.81470(15) 0.3490(3) 0.38896(15)
N3_5 N 0.86363(16) 0.3474(3) 0.41440(15)
N4_5 N 0.82795(17) 0.5291(3) 0.23720(14)
C1_5 C 0.8485(2) 0.4993(4) 0.08618(18)
N5_5 N 0.83109(16) 0.5838(3) 0.31231(14)
C2_5 C 0.84686(19) 0.5959(3) 0.26826(17)
H1_5 H 0.8685 0.6446 0.2592
N6_5 N 0.80050(17) 0.5055(3) 0.31074(15)
C3_5 C 0.7938(2) 0.4881(5) 0.1542(2)
H2_5 H 0.7608 0.4745 0.1664
C4_5 C 0.8354(2) 0.5187(4) 0.18582(18)
C5_5 C 0.8836(2) 0.5384(4) 0.16891(19)
H3_5 H 0.9122 0.5576 0.1911
C6_5 C 0.8894(2) 0.5294(4) 0.11892(19)
H4_5 H 0.9222 0.5443 0.1067
N7_5 N 0.84341(19) 0.2107(3) 0.3899(2)
C7_5 C 0.8012(2) 0.4778(5) 0.1047(2)
H5_5 H 0.7731 0.4553 0.0829
C8_5 C 0.7991(2) 0.4747(4) 0.26551(18)
H6_5 H 0.7807 0.4218 0.2539
C9_5 C 0.8035(2) 0.2672(4) 0.3750(2)
H7_5 H 0.7718 0.2492 0.3568
C10_5 C 0.8800(2) 0.2636(4) 0.4149(2)
H8_5 H 0.9126 0.2428 0.4303
O4_5 O 0.83454(12) 0.5297(2) 0.41616(11)
N8_5 N 0.91489(15) 0.6511(3) 0.40064(15)
O5_5 O 0.96781(12) 0.3967(2) 0.44300(12)
O6_5 O 0.96189(15) 0.4140(3) 0.36149(14)
N10_5 N 0.93939(15) 0.5819(3) 0.42785(14)
C12_5 C 0.98499(19) 0.3853(3) 0.4005(2)
O7_3 O 0.89457(13) 0.5245(2) 0.01492(12)
N13_5 N 0.99772(15) 0.6834(3) 0.41328(16)
C16_5 C 0.98897(18) 0.6028(3) 0.43537(17)
C18_5 C 0.95024(19) 0.7106(3) 0.39235(19)
H13_5 H 0.9439 0.7654 0.3743
O8_5 O 0.81782(17) 0.4505(3) 0.00633(13)
C28_5 C 0.8544(2) 0.4903(3) 0.03182(18)
C30_5 C 0.8398(4) 0.1109(9) 0.4007(5)
C31_5 C 0.8250(5) 0.0700(7) 0.4431(4)
H21_5 H 0.8148 0.1052 0.4701
C34_5 C 0.8536(5) 0.0626(8) 0.3598(5)
H23_5 H 0.8633 0.0917 0.3307
H25_5 H 0.823(2) 0.537(4) 0.4441(11)
N14_3 N 0.75884(15) 0.6573(3) 0.38605(16)
N15_3 N 0.73225(17) 0.5767(3) 0.3898(2)
O13_3 O 0.89457(13) 0.4755(2) 0.51492(12)
O14_3 O 0.83926(13) 0.7815(2) 0.37169(14)
O15_3 O 0.71847(14) 0.3839(3) 0.44962(14)
O16_3 O 0.70755(13) 0.3948(2) 0.36798(13)
O17_3 O 0.8277(3) 0.7879(5) 0.4468(3)
Cu4_3 Cu 0.90091(2) 0.53606(3) 0.934078(19)
C32_5 C 0.8348(3) 0.8242(7) 0.4076(3)
C33_5 C 0.8255(5) 0.9766(7) 0.4452(4)
H22_5 H 0.8169 0.9463 0.4744
C35_5 C 0.8382(5) 0.9279(9) 0.4054(4)
C36_5 C 0.8522(8) 0.9685(11) 0.3644(7)
H24_5 H 0.8615 0.9321 0.3375
N4_6 N 0.32795(17) 0.0291(3) 0.23720(14)
N5_6 N 0.33109(16) 0.0838(3) 0.31231(14)
C2_6 C 0.34686(19) 0.0959(3) 0.26826(17)
H1_6 H 0.3685 0.1446 0.2592
N6_6 N 0.30050(17) 0.0055(3) 0.31074(15)
C4_6 C 0.3354(2) 0.0187(4) 0.18582(18)
C5_6 C 0.3836(2) 0.0384(4) 0.16891(19)
H3_6 H 0.4122 0.0576 0.1911
C6_6 C 0.3894(2) 0.0294(4) 0.11892(19)
H4_6 H 0.4222 0.0443 0.1067
O4_6 O 0.33454(12) 0.0297(2) 0.41616(11)
N8_6 N 0.41489(15) 0.1511(3) 0.40064(15)
N10_6 N 0.43939(15) 0.0819(3) 0.42785(14)
O7_4 O 0.39457(13) 0.0245(2) 0.01492(12)
N13_6 N 0.49772(15) 0.1834(3) 0.41328(16)
C16_6 C 0.48897(18) 0.1028(3) 0.43537(17)
H12_6 H 0.5150 0.0673 0.4535
C17_6 C 0.54677(18) 0.2301(3) 0.4117(2)
C18_6 C 0.45024(19) 0.2106(3) 0.39235(19)
H13_6 H 0.4439 0.2654 0.3743
C19_6 C 0.64194(18) 0.3179(3) 0.40956(19)
C20_6 C 0.5820(2) 0.2287(4) 0.4534(2)
H14_6 H 0.5736 0.1977 0.4825
C21_6 C 0.5583(2) 0.2730(5) 0.3690(2)
H15_6 H 0.5340 0.2719 0.3406
C22_6 C 0.6059(2) 0.3178(4) 0.3678(2)
H16_6 H 0.6142 0.3485 0.3386
C23_6 C 0.6294(2) 0.2732(4) 0.4520(2)
H17_6 H 0.6538 0.2731 0.4804
C29_6 C 0.69274(18) 0.3684(3) 0.41007(19)
H25_6 H 0.323(2) 0.037(4) 0.4441(11)
O14_4 O 0.33926(13) 0.2815(2) 0.37169(14)
O17_4 O 0.3277(3) 0.2879(5) 0.4468(3)
Cu4_4 Cu 0.40091(2) 0.03606(3) 0.934078(19)
Cu1_4 Cu 0.40091(2) 0.96394(3) 0.434078(19)
N2_6 N 0.31470(15) 0.8490(3) 0.38896(15)
N3_6 N 0.36363(16) 0.8474(3) 0.41440(15)
C1_6 C 0.3485(2) 0.9993(4) 0.08618(18)
C3_6 C 0.2938(2) 0.9881(5) 0.1542(2)
H2_6 H 0.2608 0.9745 0.1664
N7_6 N 0.34341(19) 0.7107(3) 0.3899(2)
C7_6 C 0.3012(2) 0.9778(5) 0.1047(2)
H5_6 H 0.2731 0.9553 0.0829
C8_6 C 0.2991(2) 0.9747(4) 0.26551(18)
H6_6 H 0.2807 0.9218 0.2539
C9_6 C 0.3035(2) 0.7672(4) 0.3750(2)
H7_6 H 0.2718 0.7492 0.3568
C10_6 C 0.3800(2) 0.7636(4) 0.4149(2)
H8_6 H 0.4126 0.7428 0.4303
O5_6 O 0.46781(12) 0.8967(2) 0.44300(12)
O6_6 O 0.46189(15) 0.9140(3) 0.36149(14)
C11_6 C 0.53539(19) 0.8321(3) 0.3986(2)
C12_6 C 0.48499(19) 0.8853(3) 0.4005(2)
C13_6 C 0.5606(2) 0.7957(4) 0.4416(2)
H9_6 H 0.5459 0.8035 0.4724
N11_6 N 0.67635(18) 0.6879(3) 0.3913(2)
C14_6 C 0.7246(2) 0.7225(3) 0.3869(2)
H10_6 H 0.7325 0.7853 0.3847
C15_6 C 0.5570(2) 0.8214(4) 0.3538(2)
H11_6 H 0.5396 0.8468 0.3248
C24_6 C 0.6073(2) 0.7479(5) 0.4392(3)
H18_6 H 0.6248 0.7225 0.4682
C25_6 C 0.6038(2) 0.7741(4) 0.3507(3)
H19_6 H 0.6190 0.7668 0.3201
C26_6 C 0.6275(2) 0.7382(4) 0.3943(3)
C27_6 C 0.6827(2) 0.5971(4) 0.3933(3)
H20_6 H 0.6554 0.5543 0.3967
O8_6 O 0.31782(17) 0.9505(3) 0.00633(13)
C28_6 C 0.3544(2) 0.9903(3) 0.03182(18)
C30_6 C 0.3398(4) 0.6109(9) 0.4007(5)
C31_6 C 0.3250(5) 0.5700(7) 0.4431(4)
H21_6 H 0.3148 0.6052 0.4701
C32_6 C 0.3348(3) 0.3242(7) 0.4076(3)
C33_6 C 0.3255(5) 0.4766(7) 0.4452(4)
H22_6 H 0.3169 0.4463 0.4744
C34_6 C 0.3536(5) 0.5626(8) 0.3598(5)
H23_6 H 0.3633 0.5917 0.3307
C35_6 C 0.3382(5) 0.4279(9) 0.4054(4)
C36_6 C 0.3522(8) 0.4685(11) 0.3644(7)
H24_6 H 0.3615 0.4321 0.3375
O13_4 O 0.39457(13) 0.9755(2) 0.51492(12)
Cu5_2 Cu 0.27320(2) 0.03660(4) 0.88447(2)
N9_4 N 0.25884(15) 0.8427(3) 0.88605(16)
C11_7 C 0.03539(19) 0.6679(3) 0.8986(2)
C13_7 C 0.0606(2) 0.7043(4) 0.9416(2)
H9_7 H 0.0459 0.6965 0.9724
N11_7 N 0.17635(18) 0.8121(3) 0.8913(2)
N12_4 N 0.23225(17) 0.9233(3) 0.8898(2)
C14_7 C 0.2246(2) 0.7775(3) 0.8869(2)
H10_7 H 0.2325 0.7147 0.8847
C15_7 C 0.0570(2) 0.6786(4) 0.8538(2)
H11_7 H 0.0396 0.6532 0.8248
H12_7 H 0.0150 0.4327 0.9535
C17_7 C 0.04677(18) 0.2699(3) 0.9117(2)
C19_7 C 0.14194(18) 0.1821(3) 0.90956(19)
C20_7 C 0.0820(2) 0.2713(4) 0.9534(2)
H14_7 H 0.0736 0.3023 0.9825
C21_7 C 0.0583(2) 0.2270(5) 0.8690(2)
H15_7 H 0.0340 0.2281 0.8406
C22_7 C 0.1059(2) 0.1822(4) 0.8678(2)
H16_7 H 0.1142 0.1515 0.8386
C23_7 C 0.1294(2) 0.2268(4) 0.9520(2)
H17_7 H 0.1538 0.2269 0.9804
C24_7 C 0.1073(2) 0.7521(5) 0.9392(3)
H18_7 H 0.1248 0.7775 0.9682
C25_7 C 0.1038(2) 0.7259(4) 0.8507(3)
H19_7 H 0.1190 0.7332 0.8201
C26_7 C 0.1275(2) 0.7618(4) 0.8943(3)
C27_7 C 0.1827(2) 0.9029(4) 0.8933(3)
H20_7 H 0.1554 0.9457 0.8967
O10_4 O 0.21847(14) 0.1161(3) 0.94962(14)
C29_7 C 0.19274(18) 0.1316(3) 0.91007(19)
O11_4 O 0.20755(13) 0.1052(2) 0.86798(13)
Cu8_4 Cu 0.33727(2) 0.84851(3) 0.884537(19)
O9_3 O 0.83926(13) 0.2185(2) 0.87169(14)
O12_3 O 0.8277(3) 0.2121(5) 0.9468(3)
C32_7 C 0.8348(3) 0.1758(7) 0.9076(3)
C33_7 C 0.8255(5) 0.0234(7) 0.9452(4)
H22_7 H 0.8169 0.0537 0.9744
C35_7 C 0.8382(5) 0.0721(9) 0.9054(4)
C36_7 C 0.8522(8) 0.0315(11) 0.8644(7)
H24_7 H 0.8615 0.0679 0.8375
Cu7_2 Cu 0.83727(2) 0.34851(3) 0.884537(19)
Cu2_4 Cu 0.77320(2) 0.53660(4) 0.88447(2)
N2_7 N 0.81470(15) 0.6510(3) 0.88896(15)
N3_7 N 0.86363(16) 0.6526(3) 0.91440(15)
N4_7 N 0.82795(17) 0.4709(3) 0.73720(14)
C1_7 C 0.8485(2) 0.5007(4) 0.58618(18)
N5_7 N 0.83109(16) 0.4162(3) 0.81231(14)
C2_7 C 0.84686(19) 0.4041(3) 0.76826(17)
H1_7 H 0.8685 0.3554 0.7592
N6_7 N 0.80050(17) 0.4945(3) 0.81074(15)
C3_7 C 0.7938(2) 0.5119(5) 0.6542(2)
H2_7 H 0.7608 0.5255 0.6664
C4_7 C 0.8354(2) 0.4813(4) 0.68582(18)
C5_7 C 0.8836(2) 0.4616(4) 0.66891(19)
H3_7 H 0.9122 0.4424 0.6911
C6_7 C 0.8894(2) 0.4706(4) 0.61892(19)
H4_7 H 0.9222 0.4557 0.6067
N7_7 N 0.84341(19) 0.7893(3) 0.8899(2)
C7_7 C 0.8012(2) 0.5222(5) 0.6047(2)
H5_7 H 0.7731 0.5447 0.5829
C8_7 C 0.7991(2) 0.5253(4) 0.76551(18)
H6_7 H 0.7807 0.5782 0.7539
C9_7 C 0.8035(2) 0.7328(4) 0.8750(2)
H7_7 H 0.7718 0.7508 0.8568
C10_7 C 0.8800(2) 0.7364(4) 0.9149(2)
H8_7 H 0.9126 0.7572 0.9303
O4_7 O 0.83454(12) 0.4703(2) 0.91616(11)
N8_7 N 0.91489(15) 0.3489(3) 0.90064(15)
O5_7 O 0.96781(12) 0.6033(2) 0.94300(12)
O6_7 O 0.96189(15) 0.5860(3) 0.86149(14)
N10_7 N 0.93939(15) 0.4181(3) 0.92785(14)
C12_7 C 0.98499(19) 0.6147(3) 0.9005(2)
N13_7 N 0.99772(15) 0.3166(3) 0.91328(16)
C16_7 C 0.98897(18) 0.3972(3) 0.93537(17)
C18_7 C 0.95024(19) 0.2894(3) 0.89235(19)
H13_7 H 0.9439 0.2346 0.8743
O8_7 O 0.81782(17) 0.5495(3) 0.50633(13)
C28_7 C 0.8544(2) 0.5097(3) 0.53182(18)
C30_7 C 0.8398(4) 0.8891(9) 0.9007(5)
C31_7 C 0.8250(5) 0.9300(7) 0.9431(4)
H21_7 H 0.8148 0.8948 0.9701
C34_7 C 0.8536(5) 0.9374(8) 0.8598(5)
H23_7 H 0.8633 0.9083 0.8307
H25_7 H 0.823(2) 0.463(4) 0.9441(11)
N14_4 N 0.75884(15) 0.3427(3) 0.88605(16)
N15_4 N 0.73225(17) 0.4233(3) 0.8898(2)
O15_4 O 0.71847(14) 0.6161(3) 0.94962(14)
O16_4 O 0.70755(13) 0.6052(2) 0.86798(13)
N2_8 N 0.31470(15) 0.1510(3) 0.88896(15)
N3_8 N 0.36363(16) 0.1526(3) 0.91440(15)
C1_8 C 0.3485(2) 0.0007(4) 0.58618(18)
C3_8 C 0.2938(2) 0.0119(5) 0.6542(2)
H2_8 H 0.2608 0.0255 0.6664
N7_8 N 0.34341(19) 0.2893(3) 0.8899(2)
C7_8 C 0.3012(2) 0.0222(5) 0.6047(2)
H5_8 H 0.2731 0.0447 0.5829
C8_8 C 0.2991(2) 0.0253(4) 0.76551(18)
H6_8 H 0.2807 0.0782 0.7539
C9_8 C 0.3035(2) 0.2328(4) 0.8750(2)
H7_8 H 0.2718 0.2508 0.8568
C10_8 C 0.3800(2) 0.2364(4) 0.9149(2)
H8_8 H 0.4126 0.2572 0.9303
O5_8 O 0.46781(12) 0.1033(2) 0.94300(12)
O6_8 O 0.46189(15) 0.0860(3) 0.86149(14)
C11_8 C 0.53539(19) 0.1679(3) 0.8986(2)
C12_8 C 0.48499(19) 0.1147(3) 0.9005(2)
C13_8 C 0.5606(2) 0.2043(4) 0.9416(2)
H9_8 H 0.5459 0.1965 0.9724
N11_8 N 0.67635(18) 0.3121(3) 0.8913(2)
C14_8 C 0.7246(2) 0.2775(3) 0.8869(2)
H10_8 H 0.7325 0.2147 0.8847
C15_8 C 0.5570(2) 0.1786(4) 0.8538(2)
H11_8 H 0.5396 0.1532 0.8248
C24_8 C 0.6073(2) 0.2521(5) 0.9392(3)
H18_8 H 0.6248 0.2775 0.9682
C25_8 C 0.6038(2) 0.2259(4) 0.8507(3)
H19_8 H 0.6190 0.2332 0.8201
C26_8 C 0.6275(2) 0.2618(4) 0.8943(3)
C27_8 C 0.6827(2) 0.4029(4) 0.8933(3)
H20_8 H 0.6554 0.4457 0.8967
O8_8 O 0.31782(17) 0.0495(3) 0.50633(13)
C28_8 C 0.3544(2) 0.0097(3) 0.53182(18)
O9_4 O 0.33926(13) 0.7185(2) 0.87169(14)
O12_4 O 0.3277(3) 0.7121(5) 0.9468(3)
C30_8 C 0.3398(4) 0.3891(9) 0.9007(5)
C31_8 C 0.3250(5) 0.4300(7) 0.9431(4)
H21_8 H 0.3148 0.3948 0.9701
C32_8 C 0.3348(3) 0.6758(7) 0.9076(3)
C33_8 C 0.3255(5) 0.5234(7) 0.9452(4)
H22_8 H 0.3169 0.5537 0.9744
C34_8 C 0.3536(5) 0.4374(8) 0.8598(5)
H23_8 H 0.3633 0.4083 0.8307
C35_8 C 0.3382(5) 0.5721(9) 0.9054(4)
C36_8 C 0.3522(8) 0.5315(11) 0.8644(7)
H24_8 H 0.3615 0.5679 0.8375
N4_8 N 0.32795(17) 0.9709(3) 0.73720(14)
N5_8 N 0.33109(16) 0.9162(3) 0.81231(14)
C2_8 C 0.34686(19) 0.9041(3) 0.76826(17)
H1_8 H 0.3685 0.8554 0.7592
N6_8 N 0.30050(17) 0.9945(3) 0.81074(15)
C4_8 C 0.3354(2) 0.9813(4) 0.68582(18)
C5_8 C 0.3836(2) 0.9616(4) 0.66891(19)
H3_8 H 0.4122 0.9424 0.6911
C6_8 C 0.3894(2) 0.9706(4) 0.61892(19)
H4_8 H 0.4222 0.9557 0.6067
O4_8 O 0.33454(12) 0.9703(2) 0.91616(11)
N8_8 N 0.41489(15) 0.8489(3) 0.90064(15)
N10_8 N 0.43939(15) 0.9181(3) 0.92785(14)
N13_8 N 0.49772(15) 0.8166(3) 0.91328(16)
C16_8 C 0.48897(18) 0.8972(3) 0.93537(17)
H12_8 H 0.5150 0.9327 0.9535
C17_8 C 0.54677(18) 0.7699(3) 0.9117(2)
C18_8 C 0.45024(19) 0.7894(3) 0.89235(19)
H13_8 H 0.4439 0.7346 0.8743
C19_8 C 0.64194(18) 0.6821(3) 0.90956(19)
C20_8 C 0.5820(2) 0.7713(4) 0.9534(2)
H14_8 H 0.5736 0.8023 0.9825
C21_8 C 0.5583(2) 0.7270(5) 0.8690(2)
H15_8 H 0.5340 0.7281 0.8406
C22_8 C 0.6059(2) 0.6822(4) 0.8678(2)
H16_8 H 0.6142 0.6515 0.8386
C23_8 C 0.6294(2) 0.7268(4) 0.9520(2)
H17_8 H 0.6538 0.7269 0.9804
C29_8 C 0.69274(18) 0.6316(3) 0.91007(19)
H25_8 H 0.323(2) 0.963(4) 0.9441(11)
loop_
_geom_bond_atom_site_label_1
_geom_bond_atom_site_label_2
_geom_bond_site_symmetry_1
_geom_bond_site_symmetry_2
O1 N1 1_555 1_555
N1 O2 1_555 1_555
O3 N1 1_555 1_555
O1_2 N1_2 1_555 1_555
N1_2 O2_2 1_555 1_555
O3_2 N1_2 1_555 1_555
O1_3 N1_3 1_555 1_555
N1_3 O2_3 1_555 1_555
O3_3 N1_3 1_555 1_555
O1_4 N1_4 1_555 1_555
N1_4 O2_4 1_555 1_555
O3_4 N1_4 1_555 1_555
O1_5 N1_5 1_555 1_555
N1_5 O2_5 1_555 1_555
O3_5 N1_5 1_555 1_555
O1_6 N1_6 1_555 1_555
N1_6 O2_6 1_555 1_555
O3_6 N1_6 1_555 1_555
O1_7 N1_7 1_555 1_555
N1_7 O2_7 1_555 1_555
O3_7 N1_7 1_555 1_555
O1_8 N1_8 1_555 1_555
N1_8 O2_8 1_555 1_555
O3_8 N1_8 1_555 1_555
Cu1 N3 1_555 1_555
Cu2 N2 1_555 1_555
Cu3 N5 1_555 1_555
N2 N3 1_555 1_555
N3 C10 1_555 1_555
N4 C2 1_555 1_555
C1 C6 1_555 1_555
N5 C2 1_555 1_555
C2 H1 1_555 1_555
N6 Cu2 1_555 1_555
C3 H2 1_555 1_555
C4 N4 1_555 1_555
C5 C4 1_555 1_555
H3 C5 1_555 1_555
C6 C5 1_555 1_555
H4 C6 1_555 1_555
N7 C9 1_555 1_555
C7 C1 1_555 1_555
H5 C7 1_555 1_555
C8 N4 1_555 1_555
H6 C8 1_555 1_555
C9 N2 1_555 1_555
H7 C9 1_555 1_555
C10 N7 1_555 1_555
H8 C10 1_555 1_555
O4 Cu1 1_555 1_555
N8 Cu3 1_555 1_555
O5 Cu1 1_555 1_555
O6 Cu1 1_555 1_555
N10 Cu1 1_555 1_555
C12 O5 1_555 1_555
O7 C28 1_555 1_555
N13 C16 1_555 1_555
C16 N10 1_555 1_555
C18 N8 1_555 1_555
H13 C18 1_555 1_555
O8 C28 1_555 1_555
C28 C1 1_555 1_555
C30 N7 1_555 1_555
C31 C30 1_555 1_555
H21 C31 1_555 1_555
C34 C30 1_555 1_555
H23 C34 1_555 1_555
H25 O4 1_555 1_555
Cu4 O7 1_555 1_555
N14 Cu3 1_555 1_555
N15 Cu2 1_555 1_555
O14 Cu3 1_555 1_555
O15 Cu2 1_555 1_555
O16 Cu2 1_555 1_555
O17 Cu3 1_555 1_555
Cu2 O4 1_555 1_555
Cu3 O4 1_555 1_555
N5 N6 1_555 1_555
N6 C8 1_555 1_555
C3 C4 1_555 1_555
C3 C7 1_555 1_555
N8 N10 1_555 1_555
O6 C12 1_555 1_555
N13 C18 1_555 1_555
N14 N15 1_555 1_555
O14 C32 1_555 1_555
O17 C32 1_555 1_555
C32 C35 1_555 1_555
H22 C33 1_555 1_555
C35 C33 1_555 1_555
H24 C36 1_555 1_555
C35 C36 1_555 1_555
N9 N12 1_555 1_555
C13 C11 1_555 1_555
H9 C13 1_555 1_555
N11 C14 1_555 1_555
N12 C27 1_555 1_555
C14 N9 1_555 1_555
H10 C14 1_555 1_555
C15 C11 1_555 1_555
H11 C15 1_555 1_555
C19 C22 1_555 1_555
C20 C17 1_555 1_555
H14 C20 1_555 1_555
C21 C17 1_555 1_555
H15 C21 1_555 1_555
C22 C21 1_555 1_555
H16 C22 1_555 1_555
C23 C19 1_555 1_555
H17 C23 1_555 1_555
C24 C13 1_555 1_555
H18 C24 1_555 1_555
C25 C15 1_555 1_555
H19 C25 1_555 1_555
C26 N11 1_555 1_555
C27 N11 1_555 1_555
H20 C27 1_555 1_555
O10 C29 1_555 1_555
C29 C19 1_555 1_555
O11 C29 1_555 1_555
Cu6 O10 1_555 1_555
Cu8 N9 1_555 1_555
C20 C23 1_555 1_555
C24 C26 1_555 1_555
C25 C26 1_555 1_555
O11 Cu6 1_555 1_555
Cu8 N5_2 1_555 1_555
N4_2 C2_2 1_555 1_555
N5_2 C2_2 1_555 1_555
C2_2 H1_2 1_555 1_555
C4_2 N4_2 1_555 1_555
C5_2 C4_2 1_555 1_555
H3_2 C5_2 1_555 1_555
C6_2 C5_2 1_555 1_555
H4_2 C6_2 1_555 1_555
N8_2 Cu8 1_555 1_555
N13_2 C16_2 1_555 1_555
C16_2 N10_2 1_555 1_555
H12_2 C16_2 1_555 1_555
C17_2 N13_2 1_555 1_555
C18_2 N8_2 1_555 1_555
H13_2 C18_2 1_555 1_555
C19_2 C22_2 1_555 1_555
C20_2 C17_2 1_555 1_555
H14_2 C20_2 1_555 1_555
C21_2 C17_2 1_555 1_555
H15_2 C21_2 1_555 1_555
C22_2 C21_2 1_555 1_555
H16_2 C22_2 1_555 1_555
C23_2 C19_2 1_555 1_555
H17_2 C23_2 1_555 1_555
O15 C29_2 1_555 1_555
C29_2 C19_2 1_555 1_555
O16 C29_2 1_555 1_555
H25_2 O4_2 1_555 1_555
Cu4_2 O7_2 1_555 1_555
O14_2 Cu8 1_555 1_555
O17_2 Cu8 1_555 1_555
Cu8 O4_2 1_555 1_555
N5_2 N6_2 1_555 1_555
N8_2 N10_2 1_555 1_555
N13_2 C18_2 1_555 1_555
C20_2 C23_2 1_555 1_555
Cu1_2 N3_2 1_555 1_555
Cu6 N2_2 1_555 1_555
N2_2 N3_2 1_555 1_555
N3_2 C10_2 1_555 1_555
C3_2 H2_2 1_555 1_555
N7_2 C9_2 1_555 1_555
C7_2 C1_2 1_555 1_555
H5_2 C7_2 1_555 1_555
H6_2 C8_2 1_555 1_555
C9_2 N2_2 1_555 1_555
H7_2 C9_2 1_555 1_555
C10_2 N7_2 1_555 1_555
H8_2 C10_2 1_555 1_555
O5_2 Cu1_2 1_555 1_555
O6_2 Cu1_2 1_555 1_555
C11_2 C12_2 1_555 1_555
C12_2 O5_2 1_555 1_555
C13_2 C11_2 1_555 1_555
H9_2 C13_2 1_555 1_555
N11_2 C14_2 1_555 1_555
N15 C27_2 1_555 1_555
C14_2 N14 1_555 1_555
H10_2 C14_2 1_555 1_555
C15_2 C11_2 1_555 1_555
H11_2 C15_2 1_555 1_555
C24_2 C13_2 1_555 1_555
H18_2 C24_2 1_555 1_555
C25_2 C15_2 1_555 1_555
H19_2 C25_2 1_555 1_555
C26_2 N11_2 1_555 1_555
C27_2 N11_2 1_555 1_555
H20_2 C27_2 1_555 1_555
O8_2 C28_2 1_555 1_555
C28_2 C1_2 1_555 1_555
O14_2 C32_2 1_555 1_555
O17_2 C32_2 1_555 1_555
C30_2 N7_2 1_555 1_555
C31_2 C30_2 1_555 1_555
H21_2 C31_2 1_555 1_555
C32_2 C35_2 1_555 1_555
C33_2 C31_2 1_555 1_555
H22_2 C33_2 1_555 1_555
C34_2 C30_2 1_555 1_555
H23_2 C34_2 1_555 1_555
C35_2 C33_2 1_555 1_555
C36_2 C34_2 1_555 1_555
H24_2 C36_2 1_555 1_555
C3_2 C7_2 1_555 1_555
O6_2 C12_2 1_555 1_555
C24_2 C26_2 1_555 1_555
C25_2 C26_2 1_555 1_555
C35_2 C36_2 1_555 1_555
O9 C32_3 1_555 1_555
O12 C32_3 1_555 1_555
C32_3 C35_3 1_555 1_555
H22_3 C33_3 1_555 1_555
C35_3 C33_3 1_555 1_555
H24_3 C36_3 1_555 1_555
Cu7 O9 1_555 1_555
O12 Cu7 1_555 1_555
C35_3 C36_3 1_555 1_555
Cu4 N3_3 1_555 1_555
Cu2_2 N2_3 1_555 1_555
Cu7 N5_3 1_555 1_555
N2_3 N3_3 1_555 1_555
N3_3 C10_3 1_555 1_555
N4_3 C2_3 1_555 1_555
C1_3 C6_3 1_555 1_555
N5_3 C2_3 1_555 1_555
C2_3 H1_3 1_555 1_555
N6_3 Cu2_2 1_555 1_555
C3_3 H2_3 1_555 1_555
C4_3 N4_3 1_555 1_555
C5_3 C4_3 1_555 1_555
H3_3 C5_3 1_555 1_555
C6_3 C5_3 1_555 1_555
H4_3 C6_3 1_555 1_555
N7_3 C9_3 1_555 1_555
C7_3 C1_3 1_555 1_555
H5_3 C7_3 1_555 1_555
C8_3 N4_3 1_555 1_555
H6_3 C8_3 1_555 1_555
C9_3 N2_3 1_555 1_555
H7_3 C9_3 1_555 1_555
C10_3 N7_3 1_555 1_555
H8_3 C10_3 1_555 1_555
O4_3 Cu4 1_555 1_555
N8_3 Cu7 1_555 1_555
O5_3 Cu4 1_555 1_555
O6_3 Cu4 1_555 1_555
N10_3 Cu4 1_555 1_555
C12_3 O5_3 1_555 1_555
O13 C28_3 1_555 1_555
N13_3 C16_3 1_555 1_555
C16_3 N10_3 1_555 1_555
C18_3 N8_3 1_555 1_555
H13_3 C18_3 1_555 1_555
O8_3 C28_3 1_555 1_555
C28_3 C1_3 1_555 1_555
C30_3 N7_3 1_555 1_555
C31_3 C30_3 1_555 1_555
H21_3 C31_3 1_555 1_555
C34_3 C30_3 1_555 1_555
H23_3 C34_3 1_555 1_555
H25_3 O4_3 1_555 1_555
N14_2 Cu7 1_555 1_555
N15_2 Cu2_2 1_555 1_555
O15_2 Cu2_2 1_555 1_555
O16_2 Cu2_2 1_555 1_555
Cu2_2 O4_3 1_555 1_555
Cu7 O4_3 1_555 1_555
N5_3 N6_3 1_555 1_555
N6_3 C8_3 1_555 1_555
C3_3 C4_3 1_555 1_555
C3_3 C7_3 1_555 1_555
N8_3 N10_3 1_555 1_555
O6_3 C12_3 1_555 1_555
N13_3 C18_3 1_555 1_555
N14_2 N15_2 1_555 1_555
N9_2 N12_2 1_555 1_555
C13_3 C11_3 1_555 1_555
H9_3 C13_3 1_555 1_555
N11_3 C14_3 1_555 1_555
N12_2 C27_3 1_555 1_555
C14_3 N9_2 1_555 1_555
H10_3 C14_3 1_555 1_555
C15_3 C11_3 1_555 1_555
H11_3 C15_3 1_555 1_555
C19_3 C22_3 1_555 1_555
C20_3 C17_3 1_555 1_555
H14_3 C20_3 1_555 1_555
C21_3 C17_3 1_555 1_555
H15_3 C21_3 1_555 1_555
C22_3 C21_3 1_555 1_555
H16_3 C22_3 1_555 1_555
C23_3 C19_3 1_555 1_555
H17_3 C23_3 1_555 1_555
C24_3 C13_3 1_555 1_555
H18_3 C24_3 1_555 1_555
C25_3 C15_3 1_555 1_555
H19_3 C25_3 1_555 1_555
C26_3 N11_3 1_555 1_555
C27_3 N11_3 1_555 1_555
H20_3 C27_3 1_555 1_555
O10_2 C29_3 1_555 1_555
C29_3 C19_3 1_555 1_555
O11_2 C29_3 1_555 1_555
Cu5 O10_2 1_555 1_555
Cu8_2 N9_2 1_555 1_555
C20_3 C23_3 1_555 1_555
C24_3 C26_3 1_555 1_555
C25_3 C26_3 1_555 1_555
O11_2 Cu5 1_555 1_555
Cu4_2 N3_4 1_555 1_555
Cu5 N2_4 1_555 1_555
N2_4 N3_4 1_555 1_555
N3_4 C10_4 1_555 1_555
C3_4 H2_4 1_555 1_555
N7_4 C9_4 1_555 1_555
C7_4 C1_4 1_555 1_555
H5_4 C7_4 1_555 1_555
H6_4 C8_4 1_555 1_555
C9_4 N2_4 1_555 1_555
H7_4 C9_4 1_555 1_555
C10_4 N7_4 1_555 1_555
H8_4 C10_4 1_555 1_555
O5_4 Cu4_2 1_555 1_555
O6_4 Cu4_2 1_555 1_555
C11_4 C12_4 1_555 1_555
C12_4 O5_4 1_555 1_555
C13_4 C11_4 1_555 1_555
H9_4 C13_4 1_555 1_555
N11_4 C14_4 1_555 1_555
N15_2 C27_4 1_555 1_555
C14_4 N14_2 1_555 1_555
H10_4 C14_4 1_555 1_555
C15_4 C11_4 1_555 1_555
H11_4 C15_4 1_555 1_555
C24_4 C13_4 1_555 1_555
H18_4 C24_4 1_555 1_555
C25_4 C15_4 1_555 1_555
H19_4 C25_4 1_555 1_555
C26_4 N11_4 1_555 1_555
C27_4 N11_4 1_555 1_555
H20_4 C27_4 1_555 1_555
O8_4 C28_4 1_555 1_555
C28_4 C1_4 1_555 1_555
O9_2 C32_4 1_555 1_555
O12_2 C32_4 1_555 1_555
C30_4 N7_4 1_555 1_555
C31_4 C30_4 1_555 1_555
H21_4 C31_4 1_555 1_555
C32_4 C35_4 1_555 1_555
C33_4 C31_4 1_555 1_555
H22_4 C33_4 1_555 1_555
C34_4 C30_4 1_555 1_555
H23_4 C34_4 1_555 1_555
C35_4 C33_4 1_555 1_555
C36_4 C34_4 1_555 1_555
H24_4 C36_4 1_555 1_555
Cu8_2 O9_2 1_555 1_555
C3_4 C7_4 1_555 1_555
O6_4 C12_4 1_555 1_555
C24_4 C26_4 1_555 1_555
C25_4 C26_4 1_555 1_555
O12_2 Cu8_2 1_555 1_555
C35_4 C36_4 1_555 1_555
Cu8_2 N5_4 1_555 1_555
N4_4 C2_4 1_555 1_555
N5_4 C2_4 1_555 1_555
C2_4 H1_4 1_555 1_555
C4_4 N4_4 1_555 1_555
C5_4 C4_4 1_555 1_555
H3_4 C5_4 1_555 1_555
C6_4 C5_4 1_555 1_555
H4_4 C6_4 1_555 1_555
N8_4 Cu8_2 1_555 1_555
N13_4 C16_4 1_555 1_555
C16_4 N10_4 1_555 1_555
H12_4 C16_4 1_555 1_555
C17_4 N13_4 1_555 1_555
C18_4 N8_4 1_555 1_555
H13_4 C18_4 1_555 1_555
C19_4 C22_4 1_555 1_555
C20_4 C17_4 1_555 1_555
H14_4 C20_4 1_555 1_555
C21_4 C17_4 1_555 1_555
H15_4 C21_4 1_555 1_555
C22_4 C21_4 1_555 1_555
H16_4 C22_4 1_555 1_555
C23_4 C19_4 1_555 1_555
H17_4 C23_4 1_555 1_555
O15_2 C29_4 1_555 1_555
C29_4 C19_4 1_555 1_555
O16_2 C29_4 1_555 1_555
H25_4 O4_4 1_555 1_555
Cu8_2 O4_4 1_555 1_555
N5_4 N6_4 1_555 1_555
N8_4 N10_4 1_555 1_555
N13_4 C18_4 1_555 1_555
C20_4 C23_4 1_555 1_555
N9_3 N12_3 1_555 1_555
C13_5 C11_5 1_555 1_555
H9_5 C13_5 1_555 1_555
N11_5 C14_5 1_555 1_555
N12_3 C27_5 1_555 1_555
C14_5 N9_3 1_555 1_555
H10_5 C14_5 1_555 1_555
C15_5 C11_5 1_555 1_555
H11_5 C15_5 1_555 1_555
C19_5 C22_5 1_555 1_555
C20_5 C17_5 1_555 1_555
H14_5 C20_5 1_555 1_555
C21_5 C17_5 1_555 1_555
H15_5 C21_5 1_555 1_555
C22_5 C21_5 1_555 1_555
H16_5 C22_5 1_555 1_555
C23_5 C19_5 1_555 1_555
H17_5 C23_5 1_555 1_555
C24_5 C13_5 1_555 1_555
H18_5 C24_5 1_555 1_555
C25_5 C15_5 1_555 1_555
H19_5 C25_5 1_555 1_555
C26_5 N11_5 1_555 1_555
C27_5 N11_5 1_555 1_555
H20_5 C27_5 1_555 1_555
O10_3 C29_5 1_555 1_555
C29_5 C19_5 1_555 1_555
O11_3 C29_5 1_555 1_555
Cu6_2 O10_3 1_555 1_555
Cu8_3 N9_3 1_555 1_555
C20_5 C23_5 1_555 1_555
C24_5 C26_5 1_555 1_555
C25_5 C26_5 1_555 1_555
O11_3 Cu6_2 1_555 1_555
Cu1_3 N3_5 1_555 1_555
Cu2_3 N2_5 1_555 1_555
Cu3_2 N5_5 1_555 1_555
N2_5 N3_5 1_555 1_555
N3_5 C10_5 1_555 1_555
N4_5 C2_5 1_555 1_555
C1_5 C6_5 1_555 1_555
N5_5 C2_5 1_555 1_555
C2_5 H1_5 1_555 1_555
N6_5 Cu2_3 1_555 1_555
C3_5 H2_5 1_555 1_555
C4_5 N4_5 1_555 1_555
C5_5 C4_5 1_555 1_555
H3_5 C5_5 1_555 1_555
C6_5 C5_5 1_555 1_555
H4_5 C6_5 1_555 1_555
N7_5 C9_5 1_555 1_555
C7_5 C1_5 1_555 1_555
H5_5 C7_5 1_555 1_555
C8_5 N4_5 1_555 1_555
H6_5 C8_5 1_555 1_555
C9_5 N2_5 1_555 1_555
H7_5 C9_5 1_555 1_555
C10_5 N7_5 1_555 1_555
H8_5 C10_5 1_555 1_555
O4_5 Cu1_3 1_555 1_555
N8_5 Cu3_2 1_555 1_555
O5_5 Cu1_3 1_555 1_555
O6_5 Cu1_3 1_555 1_555
N10_5 Cu1_3 1_555 1_555
C12_5 O5_5 1_555 1_555
O7_3 C28_5 1_555 1_555
N13_5 C16_5 1_555 1_555
C16_5 N10_5 1_555 1_555
C18_5 N8_5 1_555 1_555
H13_5 C18_5 1_555 1_555
O8_5 C28_5 1_555 1_555
C28_5 C1_5 1_555 1_555
C30_5 N7_5 1_555 1_555
C31_5 C30_5 1_555 1_555
H21_5 C31_5 1_555 1_555
C34_5 C30_5 1_555 1_555
H23_5 C34_5 1_555 1_555
H25_5 O4_5 1_555 1_555
N14_3 Cu3_2 1_555 1_555
N15_3 Cu2_3 1_555 1_555
O13_3 Cu1_3 1_555 1_555
O14_3 Cu3_2 1_555 1_555
O15_3 Cu2_3 1_555 1_555
O16_3 Cu2_3 1_555 1_555
O17_3 Cu3_2 1_555 1_555
Cu2_3 O4_5 1_555 1_555
Cu3_2 O4_5 1_555 1_555
N5_5 N6_5 1_555 1_555
N6_5 C8_5 1_555 1_555
C3_5 C4_5 1_555 1_555
C3_5 C7_5 1_555 1_555
N8_5 N10_5 1_555 1_555
O6_5 C12_5 1_555 1_555
N13_5 C18_5 1_555 1_555
N14_3 N15_3 1_555 1_555
O14_3 C32_5 1_555 1_555
O17_3 C32_5 1_555 1_555
C32_5 C35_5 1_555 1_555
H22_5 C33_5 1_555 1_555
C35_5 C33_5 1_555 1_555
H24_5 C36_5 1_555 1_555
C35_5 C36_5 1_555 1_555
Cu8_3 N5_6 1_555 1_555
N4_6 C2_6 1_555 1_555
N5_6 C2_6 1_555 1_555
C2_6 H1_6 1_555 1_555
C4_6 N4_6 1_555 1_555
C5_6 C4_6 1_555 1_555
H3_6 C5_6 1_555 1_555
C6_6 C5_6 1_555 1_555
H4_6 C6_6 1_555 1_555
N8_6 Cu8_3 1_555 1_555
N13_6 C16_6 1_555 1_555
C16_6 N10_6 1_555 1_555
H12_6 C16_6 1_555 1_555
C17_6 N13_6 1_555 1_555
C18_6 N8_6 1_555 1_555
H13_6 C18_6 1_555 1_555
C19_6 C22_6 1_555 1_555
C20_6 C17_6 1_555 1_555
H14_6 C20_6 1_555 1_555
C21_6 C17_6 1_555 1_555
H15_6 C21_6 1_555 1_555
C22_6 C21_6 1_555 1_555
H16_6 C22_6 1_555 1_555
C23_6 C19_6 1_555 1_555
H17_6 C23_6 1_555 1_555
O15_3 C29_6 1_555 1_555
C29_6 C19_6 1_555 1_555
O16_3 C29_6 1_555 1_555
H25_6 O4_6 1_555 1_555
O14_4 Cu8_3 1_555 1_555
O17_4 Cu8_3 1_555 1_555
Cu8_3 O4_6 1_555 1_555
N5_6 N6_6 1_555 1_555
N8_6 N10_6 1_555 1_555
N13_6 C18_6 1_555 1_555
C20_6 C23_6 1_555 1_555
Cu1_4 N3_6 1_555 1_555
Cu6_2 N2_6 1_555 1_555
N2_6 N3_6 1_555 1_555
N3_6 C10_6 1_555 1_555
C3_6 H2_6 1_555 1_555
N7_6 C9_6 1_555 1_555
C7_6 C1_6 1_555 1_555
H5_6 C7_6 1_555 1_555
H6_6 C8_6 1_555 1_555
C9_6 N2_6 1_555 1_555
H7_6 C9_6 1_555 1_555
C10_6 N7_6 1_555 1_555
H8_6 C10_6 1_555 1_555
O5_6 Cu1_4 1_555 1_555
O6_6 Cu1_4 1_555 1_555
C11_6 C12_6 1_555 1_555
C12_6 O5_6 1_555 1_555
C13_6 C11_6 1_555 1_555
H9_6 C13_6 1_555 1_555
N11_6 C14_6 1_555 1_555
N15_3 C27_6 1_555 1_555
C14_6 N14_3 1_555 1_555
H10_6 C14_6 1_555 1_555
C15_6 C11_6 1_555 1_555
H11_6 C15_6 1_555 1_555
C24_6 C13_6 1_555 1_555
H18_6 C24_6 1_555 1_555
C25_6 C15_6 1_555 1_555
H19_6 C25_6 1_555 1_555
C26_6 N11_6 1_555 1_555
C27_6 N11_6 1_555 1_555
H20_6 C27_6 1_555 1_555
O8_6 C28_6 1_555 1_555
C28_6 C1_6 1_555 1_555
O14_4 C32_6 1_555 1_555
O17_4 C32_6 1_555 1_555
C30_6 N7_6 1_555 1_555
C31_6 C30_6 1_555 1_555
H21_6 C31_6 1_555 1_555
C32_6 C35_6 1_555 1_555
C33_6 C31_6 1_555 1_555
H22_6 C33_6 1_555 1_555
C34_6 C30_6 1_555 1_555
H23_6 C34_6 1_555 1_555
C35_6 C33_6 1_555 1_555
C36_6 C34_6 1_555 1_555
H24_6 C36_6 1_555 1_555
O13_4 Cu1_4 1_555 1_555
C3_6 C7_6 1_555 1_555
O6_6 C12_6 1_555 1_555
C24_6 C26_6 1_555 1_555
C25_6 C26_6 1_555 1_555
C35_6 C36_6 1_555 1_555
N9_4 N12_4 1_555 1_555
C13_7 C11_7 1_555 1_555
H9_7 C13_7 1_555 1_555
N11_7 C14_7 1_555 1_555
N12_4 C27_7 1_555 1_555
C14_7 N9_4 1_555 1_555
H10_7 C14_7 1_555 1_555
C15_7 C11_7 1_555 1_555
H11_7 C15_7 1_555 1_555
C19_7 C22_7 1_555 1_555
C20_7 C17_7 1_555 1_555
H14_7 C20_7 1_555 1_555
C21_7 C17_7 1_555 1_555
H15_7 C21_7 1_555 1_555
C22_7 C21_7 1_555 1_555
H16_7 C22_7 1_555 1_555
C23_7 C19_7 1_555 1_555
H17_7 C23_7 1_555 1_555
C24_7 C13_7 1_555 1_555
H18_7 C24_7 1_555 1_555
C25_7 C15_7 1_555 1_555
H19_7 C25_7 1_555 1_555
C26_7 N11_7 1_555 1_555
C27_7 N11_7 1_555 1_555
H20_7 C27_7 1_555 1_555
O10_4 C29_7 1_555 1_555
C29_7 C19_7 1_555 1_555
O11_4 C29_7 1_555 1_555
Cu5_2 O10_4 1_555 1_555
Cu8_4 N9_4 1_555 1_555
C20_7 C23_7 1_555 1_555
C24_7 C26_7 1_555 1_555
C25_7 C26_7 1_555 1_555
O11_4 Cu5_2 1_555 1_555
O9_3 C32_7 1_555 1_555
O12_3 C32_7 1_555 1_555
C32_7 C35_7 1_555 1_555
H22_7 C33_7 1_555 1_555
C35_7 C33_7 1_555 1_555
H24_7 C36_7 1_555 1_555
Cu7_2 O9_3 1_555 1_555
O12_3 Cu7_2 1_555 1_555
C35_7 C36_7 1_555 1_555
Cu4_3 N3_7 1_555 1_555
Cu2_4 N2_7 1_555 1_555
Cu7_2 N5_7 1_555 1_555
N2_7 N3_7 1_555 1_555
N3_7 C10_7 1_555 1_555
N4_7 C2_7 1_555 1_555
C1_7 C6_7 1_555 1_555
N5_7 C2_7 1_555 1_555
C2_7 H1_7 1_555 1_555
N6_7 Cu2_4 1_555 1_555
C3_7 H2_7 1_555 1_555
C4_7 N4_7 1_555 1_555
C5_7 C4_7 1_555 1_555
H3_7 C5_7 1_555 1_555
C6_7 C5_7 1_555 1_555
H4_7 C6_7 1_555 1_555
N7_7 C9_7 1_555 1_555
C7_7 C1_7 1_555 1_555
H5_7 C7_7 1_555 1_555
C8_7 N4_7 1_555 1_555
H6_7 C8_7 1_555 1_555
C9_7 N2_7 1_555 1_555
H7_7 C9_7 1_555 1_555
C10_7 N7_7 1_555 1_555
H8_7 C10_7 1_555 1_555
O4_7 Cu4_3 1_555 1_555
N8_7 Cu7_2 1_555 1_555
O5_7 Cu4_3 1_555 1_555
O6_7 Cu4_3 1_555 1_555
N10_7 Cu4_3 1_555 1_555
C12_7 O5_7 1_555 1_555
O13_3 C28_7 1_555 1_555
N13_7 C16_7 1_555 1_555
C16_7 N10_7 1_555 1_555
C18_7 N8_7 1_555 1_555
H13_7 C18_7 1_555 1_555
O8_7 C28_7 1_555 1_555
C28_7 C1_7 1_555 1_555
C30_7 N7_7 1_555 1_555
C31_7 C30_7 1_555 1_555
H21_7 C31_7 1_555 1_555
C34_7 C30_7 1_555 1_555
H23_7 C34_7 1_555 1_555
H25_7 O4_7 1_555 1_555
N14_4 Cu7_2 1_555 1_555
N15_4 Cu2_4 1_555 1_555
O15_4 Cu2_4 1_555 1_555
O16_4 Cu2_4 1_555 1_555
Cu2_4 O4_7 1_555 1_555
Cu7_2 O4_7 1_555 1_555
N5_7 N6_7 1_555 1_555
N6_7 C8_7 1_555 1_555
C3_7 C4_7 1_555 1_555
C3_7 C7_7 1_555 1_555
N8_7 N10_7 1_555 1_555
O6_7 C12_7 1_555 1_555
N13_7 C18_7 1_555 1_555
N14_4 N15_4 1_555 1_555
Cu4_4 N3_8 1_555 1_555
Cu5_2 N2_8 1_555 1_555
N2_8 N3_8 1_555 1_555
N3_8 C10_8 1_555 1_555
C3_8 H2_8 1_555 1_555
N7_8 C9_8 1_555 1_555
C7_8 C1_8 1_555 1_555
H5_8 C7_8 1_555 1_555
H6_8 C8_8 1_555 1_555
C9_8 N2_8 1_555 1_555
H7_8 C9_8 1_555 1_555
C10_8 N7_8 1_555 1_555
H8_8 C10_8 1_555 1_555
O5_8 Cu4_4 1_555 1_555
O6_8 Cu4_4 1_555 1_555
C11_8 C12_8 1_555 1_555
C12_8 O5_8 1_555 1_555
C13_8 C11_8 1_555 1_555
H9_8 C13_8 1_555 1_555
N11_8 C14_8 1_555 1_555
N15_4 C27_8 1_555 1_555
C14_8 N14_4 1_555 1_555
H10_8 C14_8 1_555 1_555
C15_8 C11_8 1_555 1_555
H11_8 C15_8 1_555 1_555
C24_8 C13_8 1_555 1_555
H18_8 C24_8 1_555 1_555
C25_8 C15_8 1_555 1_555
H19_8 C25_8 1_555 1_555
C26_8 N11_8 1_555 1_555
C27_8 N11_8 1_555 1_555
H20_8 C27_8 1_555 1_555
O8_8 C28_8 1_555 1_555
C28_8 C1_8 1_555 1_555
O9_4 C32_8 1_555 1_555
O12_4 C32_8 1_555 1_555
C30_8 N7_8 1_555 1_555
C31_8 C30_8 1_555 1_555
H21_8 C31_8 1_555 1_555
C32_8 C35_8 1_555 1_555
C33_8 C31_8 1_555 1_555
H22_8 C33_8 1_555 1_555
C34_8 C30_8 1_555 1_555
H23_8 C34_8 1_555 1_555
C35_8 C33_8 1_555 1_555
C36_8 C34_8 1_555 1_555
H24_8 C36_8 1_555 1_555
Cu8_4 O9_4 1_555 1_555
C3_8 C7_8 1_555 1_555
O6_8 C12_8 1_555 1_555
C24_8 C26_8 1_555 1_555
C25_8 C26_8 1_555 1_555
O12_4 Cu8_4 1_555 1_555
C35_8 C36_8 1_555 1_555
Cu8_4 N5_8 1_555 1_555
N4_8 C2_8 1_555 1_555
N5_8 C2_8 1_555 1_555
C2_8 H1_8 1_555 1_555
C4_8 N4_8 1_555 1_555
C5_8 C4_8 1_555 1_555
H3_8 C5_8 1_555 1_555
C6_8 C5_8 1_555 1_555
H4_8 C6_8 1_555 1_555
N8_8 Cu8_4 1_555 1_555
N13_8 C16_8 1_555 1_555
C16_8 N10_8 1_555 1_555
H12_8 C16_8 1_555 1_555
C17_8 N13_8 1_555 1_555
C18_8 N8_8 1_555 1_555
H13_8 C18_8 1_555 1_555
C19_8 C22_8 1_555 1_555
C20_8 C17_8 1_555 1_555
H14_8 C20_8 1_555 1_555
C21_8 C17_8 1_555 1_555
H15_8 C21_8 1_555 1_555
C22_8 C21_8 1_555 1_555
H16_8 C22_8 1_555 1_555
C23_8 C19_8 1_555 1_555
H17_8 C23_8 1_555 1_555
O15_4 C29_8 1_555 1_555
C29_8 C19_8 1_555 1_555
O16_4 C29_8 1_555 1_555
H25_8 O4_8 1_555 1_555
Cu8_4 O4_8 1_555 1_555
N5_8 N6_8 1_555 1_555
N8_8 N10_8 1_555 1_555
N13_8 C18_8 1_555 1_555
C20_8 C23_8 1_555 1_555

#END
