
###############################################################################
#
# This file contains modified crystal structure data generated from the
# MOF subset of the Cambridge Structural Database (CSD) v543 
# hosted by the Cambridge Crystallographic Data Centre (CCDC).
#
# This work is licensed under the Creative Commons
# Attribution-NonCommercial-ShareAlike 4.0 International License.
# To view a copy of this license, visit
# http://creativecommons.org/licenses/by-nc-sa/4.0/
# or send a letter to
# Creative Commons, PO Box 1866, Mountain View, CA 94042, USA.
#
# CIF created using the CSD Python API on 29 September 2022
# The structure has been converted into the P1 space group
# The structure has a 3D framework
# The original CSD entry QUJLAK02 is in the monoclinic crystal system
# The framework has been calculated to contain at least 10.0% void space
# The void calculation uses a probe of radius 1.32A, grid spacing 0.4
# The framework is charged, counterions have been retained in the structure
#
###############################################################################

data_QUJLAK02
_chemical_formula_moiety         '(C288 H200 Cu20 N96 O70 8+)n'
_symmetry_cell_setting           triclinic
_symmetry_space_group_name_H-M   'P 1'
_symmetry_Int_Tables_number      1
_space_group_name_Hall           'P 1'
loop_
_symmetry_equiv_pos_site_id
_symmetry_equiv_pos_as_xyz
1 x,y,z
_cell_length_a                   25.7877(6)
_cell_length_b                   14.8425(4)
_cell_length_c                   26.8476(12)
_cell_angle_alpha                90
_cell_angle_beta                 91.062(3)
_cell_angle_gamma                90
_cell_volume                     10274.3
loop_
_atom_site_label
_atom_site_type_symbol
_atom_site_fract_x
_atom_site_fract_y
_atom_site_fract_z
Cu6 Cu 0.399466(14) 0.46775(3) 0.049421(17)
H1 H 0.3242(13) 0.459(3) 0.5275(5)
H2 H 0.5266 0.2254 0.6640
H3 H 0.6028 0.1466 0.6769
H4 H 0.6513 0.2213 0.5423
H5 H 0.5753 0.3003 0.5290
H6 H 0.4404 0.2287 0.6098
H7 H 0.5148 0.4373 0.5563
H8 H 0.1367 0.2221 0.6509
H9 H 0.0575 0.1459 0.6554
H10 H 0.0282 0.2082 0.5134
H11 H 0.1058 0.2880 0.5102
H12 H 0.2323 0.2114 0.5792
H13 H 0.1563 0.4410 0.5770
H15 H 0.3255 0.0721 0.5371
H16 H 0.3533 0.0266 0.6798
H20 H 0.4067 0.4288 0.7918
H21 H 0.4171 0.4445 0.8761
H22 H 0.2710 0.5323 0.8853
H23 H 0.2596 0.5121 0.8012
H24 H 0.2824 0.5683 0.7138
H25 H 0.3625 0.3437 0.7161
C2 C 0.03524(14) 0.1701(3) 0.58482(17)
C3 C 0.06708(18) 0.1737(4) 0.6260(2)
C4 C 0.11441(18) 0.2197(4) 0.6233(2)
C5 C 0.12745(14) 0.2608(3) 0.58009(19)
C6 C 0.09635(16) 0.2587(3) 0.53924(19)
C7 C 0.04971(16) 0.2116(3) 0.54151(18)
C8 C 0.18297(14) 0.3987(3) 0.57714(18)
C9 C 0.22468(15) 0.2726(3) 0.57846(19)
C10 C 0.34273(19) 0.1641(4) 0.6184(2)
C11 C 0.34095(18) 0.0609(3) 0.6096(2)
C12 C 0.3480(3) 0.0047(4) 0.6476(3)
C16 C 0.3304(2) 0.0311(4) 0.5630(2)
C19 C 0.68243(15) 0.1178(3) 0.61817(19)
C20 C 0.63414(14) 0.1733(3) 0.61029(17)
C21 C 0.59696(17) 0.1767(4) 0.6469(2)
C22 C 0.55169(16) 0.2240(4) 0.63961(18)
C23 C 0.54417(13) 0.2698(3) 0.59502(17)
C24 C 0.58087(14) 0.2690(3) 0.55865(17)
C25 C 0.62600(15) 0.2213(3) 0.56652(17)
C26 C 0.44777(13) 0.2848(3) 0.59621(16)
C27 C 0.48853(12) 0.3994(3) 0.56687(14)
C28 C 0.34479(16) 0.4906(3) 0.89019(16)
C29 C 0.38545(17) 0.4589(4) 0.86098(16)
C30 C 0.37926(18) 0.4490(4) 0.81082(17)
C31 C 0.33200(16) 0.4691(3) 0.78812(16)
C32 C 0.29150(18) 0.4994(4) 0.81628(18)
C33 C 0.29834(17) 0.5106(4) 0.86663(17)
C34 C 0.35144(16) 0.5056(3) 0.94510(15)
C35 C 0.34299(16) 0.3930(3) 0.70546(16)
C36 C 0.29926(16) 0.5159(3) 0.70408(16)
N1 N 0.17627(11) 0.3083(2) 0.57868(15)
N2 N 0.25873(12) 0.3369(2) 0.57699(14)
N3 N 0.23217(11) 0.4177(2) 0.57592(13)
N4 N 0.49596(11) 0.3162(2) 0.58659(13)
N5 N 0.41328(11) 0.3453(2) 0.58361(12)
N6 N 0.43925(10) 0.4183(2) 0.56498(12)
N7 N 0.32556(13) 0.4584(2) 0.73585(13)
N8 N 0.32921(12) 0.4074(2) 0.66012(12)
N9 N 0.30141(12) 0.4868(2) 0.65888(13)
O3 O 0.33636(10) 0.2106(2) 0.58228(16)
O4 O 0.3531(2) 0.1916(3) 0.66135(19)
O5 O 0.69372(15) 0.0902(4) 0.66045(15)
O6 O 0.70851(9) 0.10135(19) 0.57988(11)
O7 O 0.31540(11) 0.5481(3) 0.96563(11)
O8 O 0.39109(10) 0.4753(2) 0.96696(10)
O9 O 0.33411(8) 0.46578(16) 0.55794(9)
Cu2 Cu 0.336290(14) 0.34171(3) 0.586166(17)
Cu3 Cu 0.272168(15) 0.53085(3) 0.584178(18)
N15 N 0.31083(12) 0.6447(2) 0.57994(15)
O10 O 0.20851(9) 0.60135(19) 0.57988(11)
Cu5 Cu 0.399466(14) 0.53225(3) 0.549421(17)
Cu8 Cu 0.772168(15) 0.03085(3) 0.584178(18)
H14 H 0.3172 0.9139 0.5219
H17 H 0.3534 0.8732 0.6646
H18 H 0.2647 0.7439 0.6022
H19 H 0.4091 0.7532 0.5609
C13 C 0.3473(2) 0.9133(4) 0.6385(3)
C14 C 0.33738(16) 0.8807(3) 0.5906(2)
C15 C 0.3267(3) 0.9357(4) 0.5532(2)
C17 C 0.29727(16) 0.7271(3) 0.5911(2)
C18 C 0.37621(15) 0.7324(3) 0.56872(18)
N10 N 0.33732(12) 0.7845(2) 0.58444(15)
N11 N 0.36133(11) 0.6479(2) 0.56601(14)
C1 C 0.98563(14) 0.1183(3) 0.58653(17)
O1 O 0.96343(9) 0.10131(18) 0.54451(10)
O2 O 0.96847(12) 0.0918(3) 0.62669(13)
Cu1 Cu 0.899466(14) 0.03225(3) 0.549421(17)
N14 N 0.86133(11) 0.1479(2) 0.56601(14)
O11 O 0.89109(10) 0.0247(2) 0.46696(10)
N13 N 0.93925(10) 0.9183(2) 0.56498(12)
O12 O 0.83411(8) 0.96578(16) 0.55794(9)
H2_2 H 0.0266 0.7254 0.6640
H3_2 H 0.1028 0.6466 0.6769
H4_2 H 0.1513 0.7213 0.5423
H5_2 H 0.0753 0.8003 0.5290
H7_2 H 0.0148 0.9373 0.5563
C19_2 C 0.18243(15) 0.6178(3) 0.61817(19)
C20_2 C 0.13414(14) 0.6733(3) 0.61029(17)
C21_2 C 0.09696(17) 0.6767(4) 0.6469(2)
C22_2 C 0.05169(16) 0.7240(4) 0.63961(18)
C23_2 C 0.04417(13) 0.7698(3) 0.59502(17)
C24_2 C 0.08087(14) 0.7690(3) 0.55865(17)
C25_2 C 0.12600(15) 0.7213(3) 0.56652(17)
O5_2 O 0.19372(15) 0.5902(4) 0.66045(15)
H22_2 H 0.7710 0.0323 0.8853
H23_2 H 0.7596 0.0121 0.8012
H24_2 H 0.7824 0.0683 0.7138
C33_2 C 0.79834(17) 0.0106(4) 0.86663(17)
C34_2 C 0.85144(16) 0.0056(3) 0.94510(15)
C36_2 C 0.79926(16) 0.0159(3) 0.70408(16)
O7_2 O 0.81540(11) 0.0481(3) 0.96563(11)
N15_2 N 0.81083(12) 0.1447(2) 0.57994(15)
Cu6_2 Cu 0.899466(14) 0.96775(3) 0.049421(17)
H1_2 H 0.8242(13) 0.959(3) 0.5275(5)
H6_2 H 0.9404 0.7287 0.6098
H8_2 H 0.6367 0.7221 0.6509
H9_2 H 0.5575 0.6459 0.6554
H10_2 H 0.5282 0.7082 0.5134
H11_2 H 0.6058 0.7880 0.5102
H12_2 H 0.7323 0.7114 0.5792
H13_2 H 0.6563 0.9410 0.5770
H14_2 H 0.8172 0.4139 0.5219
H15_2 H 0.8255 0.5721 0.5371
H16_2 H 0.8533 0.5266 0.6798
H17_2 H 0.8534 0.3732 0.6646
H18_2 H 0.7647 0.2439 0.6022
H19_2 H 0.9091 0.2532 0.5609
H20_2 H 0.9067 0.9288 0.7918
H21_2 H 0.9171 0.9445 0.8761
H25_2 H 0.8625 0.8437 0.7161
C1_2 C 0.48563(14) 0.6183(3) 0.58653(17)
C2_2 C 0.53524(14) 0.6701(3) 0.58482(17)
C3_2 C 0.56708(18) 0.6737(4) 0.6260(2)
C4_2 C 0.61441(18) 0.7197(4) 0.6233(2)
C5_2 C 0.62745(14) 0.7608(3) 0.58009(19)
C6_2 C 0.59635(16) 0.7587(3) 0.53924(19)
C7_2 C 0.54971(16) 0.7116(3) 0.54151(18)
C8_2 C 0.68297(14) 0.8987(3) 0.57714(18)
C9_2 C 0.72468(15) 0.7726(3) 0.57846(19)
C10_2 C 0.84273(19) 0.6641(4) 0.6184(2)
C11_2 C 0.84095(18) 0.5609(3) 0.6096(2)
C12_2 C 0.8480(3) 0.5047(4) 0.6476(3)
C13_2 C 0.8473(2) 0.4133(4) 0.6385(3)
C14_2 C 0.83738(16) 0.3807(3) 0.5906(2)
C15_2 C 0.8267(3) 0.4357(4) 0.5532(2)
C16_2 C 0.8304(2) 0.5311(4) 0.5630(2)
C17_2 C 0.79727(16) 0.2271(3) 0.5911(2)
C18_2 C 0.87621(15) 0.2324(3) 0.56872(18)
C26_2 C 0.94777(13) 0.7848(3) 0.59621(16)
C27_2 C 0.98853(12) 0.8994(3) 0.56687(14)
C28_2 C 0.84479(16) 0.9906(3) 0.89019(16)
C29_2 C 0.88545(17) 0.9589(4) 0.86098(16)
C30_2 C 0.87926(18) 0.9490(4) 0.81082(17)
C31_2 C 0.83200(16) 0.9691(3) 0.78812(16)
C32_2 C 0.79150(18) 0.9994(4) 0.81628(18)
C35_2 C 0.84299(16) 0.8930(3) 0.70546(16)
N1_2 N 0.67627(11) 0.8083(2) 0.57868(15)
N2_2 N 0.75873(12) 0.8369(2) 0.57699(14)
N3_2 N 0.73217(11) 0.9177(2) 0.57592(13)
N4_2 N 0.99596(11) 0.8162(2) 0.58659(13)
N5_2 N 0.91328(11) 0.8453(2) 0.58361(12)
N7_2 N 0.82556(13) 0.9584(2) 0.73585(13)
N8_2 N 0.82921(12) 0.9074(2) 0.66012(12)
N9_2 N 0.80141(12) 0.9868(2) 0.65888(13)
N10_2 N 0.83732(12) 0.2845(2) 0.58444(15)
O1_2 O 0.46343(9) 0.60131(18) 0.54451(10)
O2_2 O 0.46847(12) 0.5918(3) 0.62669(13)
O3_2 O 0.83636(10) 0.7106(2) 0.58228(16)
O4_2 O 0.8531(2) 0.6916(3) 0.66135(19)
O8_2 O 0.89109(10) 0.9753(2) 0.96696(10)
Cu2_2 Cu 0.836290(14) 0.84171(3) 0.586166(17)
O11_2 O 0.39109(10) 0.5247(2) 0.46696(10)
H14_3 H 0.3172 0.0861 0.0219
H17_3 H 0.3534 0.1268 0.1646
H18_3 H 0.2647 0.2561 0.1022
H19_3 H 0.4091 0.2468 0.0609
C13_3 C 0.3473(2) 0.0867(4) 0.1385(3)
C14_3 C 0.33738(16) 0.1193(3) 0.0906(2)
C15_3 C 0.3267(3) 0.0643(4) 0.0532(2)
C17_3 C 0.29727(16) 0.2729(3) 0.0911(2)
C18_3 C 0.37621(15) 0.2676(3) 0.06872(18)
N10_3 N 0.33732(12) 0.2155(2) 0.08444(15)
N11_2 N 0.36133(11) 0.3521(2) 0.06601(14)
N12 N 0.31083(12) 0.3553(2) 0.07994(15)
Cu7 Cu 0.272168(15) 0.46915(3) 0.084178(18)
H1_3 H 0.3242(13) 0.541(3) 0.0275(5)
H2_3 H 0.5266 0.7746 0.1640
H3_3 H 0.6028 0.8534 0.1769
H4_3 H 0.6513 0.7787 0.0423
H5_3 H 0.5753 0.6997 0.0290
H6_3 H 0.4404 0.7713 0.1098
H7_3 H 0.5148 0.5627 0.0563
H8_3 H 0.1367 0.7779 0.1509
H9_3 H 0.0575 0.8541 0.1554
H10_3 H 0.0282 0.7918 0.0134
H11_3 H 0.1058 0.7120 0.0102
H12_3 H 0.2323 0.7886 0.0792
H13_3 H 0.1563 0.5590 0.0770
H15_3 H 0.3255 0.9279 0.0371
H16_3 H 0.3533 0.9734 0.1798
H20_3 H 0.4067 0.5712 0.2918
H21_3 H 0.4171 0.5555 0.3761
H22_3 H 0.2710 0.4677 0.3853
H23_3 H 0.2596 0.4879 0.3012
H24_3 H 0.2824 0.4317 0.2138
H25_3 H 0.3625 0.6563 0.2161
C2_3 C 0.03524(14) 0.8299(3) 0.08482(17)
C3_3 C 0.06708(18) 0.8263(4) 0.1260(2)
C4_3 C 0.11441(18) 0.7803(4) 0.1233(2)
C5_3 C 0.12745(14) 0.7392(3) 0.08009(19)
C6_3 C 0.09635(16) 0.7413(3) 0.03924(19)
C7_3 C 0.04971(16) 0.7884(3) 0.04151(18)
C8_3 C 0.18297(14) 0.6013(3) 0.07714(18)
C9_3 C 0.22468(15) 0.7274(3) 0.07846(19)
C10_3 C 0.34273(19) 0.8359(4) 0.1184(2)
C11_3 C 0.34095(18) 0.9391(3) 0.1096(2)
C12_3 C 0.3480(3) 0.9953(4) 0.1476(3)
C16_3 C 0.3304(2) 0.9689(4) 0.0630(2)
C19_3 C 0.68243(15) 0.8822(3) 0.11817(19)
C20_3 C 0.63414(14) 0.8267(3) 0.11029(17)
C21_3 C 0.59696(17) 0.8233(4) 0.1469(2)
C22_3 C 0.55169(16) 0.7760(4) 0.13961(18)
C23_3 C 0.54417(13) 0.7302(3) 0.09502(17)
C24_3 C 0.58087(14) 0.7310(3) 0.05865(17)
C25_3 C 0.62600(15) 0.7787(3) 0.06652(17)
C26_3 C 0.44777(13) 0.7152(3) 0.09621(16)
C27_3 C 0.48853(12) 0.6006(3) 0.06687(14)
C28_3 C 0.34479(16) 0.5094(3) 0.39019(16)
C29_3 C 0.38545(17) 0.5411(4) 0.36098(16)
C30_3 C 0.37926(18) 0.5510(4) 0.31082(17)
C31_3 C 0.33200(16) 0.5309(3) 0.28812(16)
C32_3 C 0.29150(18) 0.5006(4) 0.31628(18)
C33_3 C 0.29834(17) 0.4894(4) 0.36663(17)
C34_3 C 0.35144(16) 0.4944(3) 0.44510(15)
C35_3 C 0.34299(16) 0.6070(3) 0.20546(16)
C36_3 C 0.29926(16) 0.4841(3) 0.20408(16)
N1_3 N 0.17627(11) 0.6917(2) 0.07868(15)
N2_3 N 0.25873(12) 0.6631(2) 0.07699(14)
N3_3 N 0.23217(11) 0.5823(2) 0.07592(13)
N4_3 N 0.49596(11) 0.6838(2) 0.08659(13)
N5_3 N 0.41328(11) 0.6547(2) 0.08361(12)
N6_2 N 0.43925(10) 0.5817(2) 0.06498(12)
N7_3 N 0.32556(13) 0.5416(2) 0.23585(13)
N8_3 N 0.32921(12) 0.5926(2) 0.16012(12)
N9_3 N 0.30141(12) 0.5132(2) 0.15888(13)
O3_3 O 0.33636(10) 0.7894(2) 0.08228(16)
O4_3 O 0.3531(2) 0.8084(3) 0.16135(19)
O5_3 O 0.69372(15) 0.9098(4) 0.16045(15)
O6_2 O 0.70851(9) 0.89865(19) 0.07988(11)
O7_3 O 0.31540(11) 0.4519(3) 0.46563(11)
O9_2 O 0.33411(8) 0.53422(16) 0.05794(9)
Cu2_3 Cu 0.336290(14) 0.65829(3) 0.086166(17)
O10_2 O 0.20851(9) 0.39865(19) 0.07988(11)
Cu8_2 Cu 0.772168(15) 0.96915(3) 0.084178(18)
N13_2 N 0.93925(10) 0.0817(2) 0.06498(12)
O12_2 O 0.83411(8) 0.03422(16) 0.05794(9)
C1_3 C 0.98563(14) 0.8817(3) 0.08653(17)
O1_3 O 0.96343(9) 0.89869(18) 0.04451(10)
O2_3 O 0.96847(12) 0.9082(3) 0.12669(13)
N14_2 N 0.86133(11) 0.8521(2) 0.06601(14)
H2_4 H 0.0266 0.2746 0.1640
H3_4 H 0.1028 0.3534 0.1769
H4_4 H 0.1513 0.2787 0.0423
H5_4 H 0.0753 0.1997 0.0290
H7_4 H 0.0148 0.0627 0.0563
C19_4 C 0.18243(15) 0.3822(3) 0.11817(19)
C20_4 C 0.13414(14) 0.3267(3) 0.11029(17)
C21_4 C 0.09696(17) 0.3233(4) 0.1469(2)
C22_4 C 0.05169(16) 0.2760(4) 0.13961(18)
C23_4 C 0.04417(13) 0.2302(3) 0.09502(17)
C24_4 C 0.08087(14) 0.2310(3) 0.05865(17)
C25_4 C 0.12600(15) 0.2787(3) 0.06652(17)
O5_4 O 0.19372(15) 0.4098(4) 0.16045(15)
H1_4 H 0.8242(13) 0.041(3) 0.0275(5)
H6_4 H 0.9404 0.2713 0.1098
H8_4 H 0.6367 0.2779 0.1509
H9_4 H 0.5575 0.3541 0.1554
H10_4 H 0.5282 0.2918 0.0134
H11_4 H 0.6058 0.2120 0.0102
H12_4 H 0.7323 0.2886 0.0792
H13_4 H 0.6563 0.0590 0.0770
H14_4 H 0.8172 0.5861 0.0219
H15_4 H 0.8255 0.4279 0.0371
H16_4 H 0.8533 0.4734 0.1798
H17_4 H 0.8534 0.6268 0.1646
H18_4 H 0.7647 0.7561 0.1022
H19_4 H 0.9091 0.7468 0.0609
H20_4 H 0.9067 0.0712 0.2918
H21_4 H 0.9171 0.0555 0.3761
H25_4 H 0.8625 0.1563 0.2161
C1_4 C 0.48563(14) 0.3817(3) 0.08653(17)
C2_4 C 0.53524(14) 0.3299(3) 0.08482(17)
C3_4 C 0.56708(18) 0.3263(4) 0.1260(2)
C4_4 C 0.61441(18) 0.2803(4) 0.1233(2)
C5_4 C 0.62745(14) 0.2392(3) 0.08009(19)
C6_4 C 0.59635(16) 0.2413(3) 0.03924(19)
C7_4 C 0.54971(16) 0.2884(3) 0.04151(18)
C8_4 C 0.68297(14) 0.1013(3) 0.07714(18)
C9_4 C 0.72468(15) 0.2274(3) 0.07846(19)
C10_4 C 0.84273(19) 0.3359(4) 0.1184(2)
C11_4 C 0.84095(18) 0.4391(3) 0.1096(2)
C12_4 C 0.8480(3) 0.4953(4) 0.1476(3)
C13_4 C 0.8473(2) 0.5867(4) 0.1385(3)
C14_4 C 0.83738(16) 0.6193(3) 0.0906(2)
C15_4 C 0.8267(3) 0.5643(4) 0.0532(2)
C16_4 C 0.8304(2) 0.4689(4) 0.0630(2)
C17_4 C 0.79727(16) 0.7729(3) 0.0911(2)
C18_4 C 0.87621(15) 0.7676(3) 0.06872(18)
C26_4 C 0.94777(13) 0.2152(3) 0.09621(16)
C27_4 C 0.98853(12) 0.1006(3) 0.06687(14)
C28_4 C 0.84479(16) 0.0094(3) 0.39019(16)
C29_4 C 0.88545(17) 0.0411(4) 0.36098(16)
C30_4 C 0.87926(18) 0.0510(4) 0.31082(17)
C31_4 C 0.83200(16) 0.0309(3) 0.28812(16)
C32_4 C 0.79150(18) 0.0006(4) 0.31628(18)
C35_4 C 0.84299(16) 0.1070(3) 0.20546(16)
N1_4 N 0.67627(11) 0.1917(2) 0.07868(15)
N2_4 N 0.75873(12) 0.1631(2) 0.07699(14)
N3_4 N 0.73217(11) 0.0823(2) 0.07592(13)
N4_4 N 0.99596(11) 0.1838(2) 0.08659(13)
N5_4 N 0.91328(11) 0.1547(2) 0.08361(12)
N7_4 N 0.82556(13) 0.0416(2) 0.23585(13)
N8_4 N 0.82921(12) 0.0926(2) 0.16012(12)
N9_4 N 0.80141(12) 0.0132(2) 0.15888(13)
N10_4 N 0.83732(12) 0.7155(2) 0.08444(15)
N12_2 N 0.81083(12) 0.8553(2) 0.07994(15)
O1_4 O 0.46343(9) 0.39869(18) 0.04451(10)
O2_4 O 0.46847(12) 0.4082(3) 0.12669(13)
O3_4 O 0.83636(10) 0.2894(2) 0.08228(16)
O4_4 O 0.8531(2) 0.3084(3) 0.16135(19)
Cu2_4 Cu 0.836290(14) 0.15829(3) 0.086166(17)
H22_4 H 0.7710 0.9677 0.3853
H23_4 H 0.7596 0.9879 0.3012
H24_4 H 0.7824 0.9317 0.2138
C33_4 C 0.79834(17) 0.9894(4) 0.36663(17)
C34_4 C 0.85144(16) 0.9944(3) 0.44510(15)
C36_4 C 0.79926(16) 0.9841(3) 0.20408(16)
O7_4 O 0.81540(11) 0.9519(3) 0.46563(11)
O11_3 O 0.10891(10) 0.0247(2) 0.03304(10)
C1_5 C 0.01437(14) 0.1183(3) 0.91347(17)
O1_5 O 0.03657(9) 0.10131(18) 0.95549(10)
O2_5 O 0.03153(12) 0.0918(3) 0.87331(13)
Cu1_2 Cu 0.100534(14) 0.03225(3) 0.950579(17)
N14_3 N 0.13867(11) 0.1479(2) 0.93399(14)
N13_3 N 0.06075(10) 0.9183(2) 0.93502(12)
O12_3 O 0.16589(8) 0.96578(16) 0.94206(9)
H1_5 H 0.6758(13) 0.459(3) 0.9725(5)
H2_5 H 0.4734 0.2254 0.8360
H3_5 H 0.3972 0.1466 0.8231
H4_5 H 0.3487 0.2213 0.9577
H5_5 H 0.4247 0.3003 0.9710
H6_5 H 0.5596 0.2287 0.8902
H7_5 H 0.4852 0.4373 0.9437
H8_5 H 0.8633 0.2221 0.8491
H9_5 H 0.9425 0.1459 0.8446
H10_5 H 0.9718 0.2082 0.9866
H11_5 H 0.8942 0.2880 0.9898
H12_5 H 0.7677 0.2114 0.9208
H13_5 H 0.8437 0.4410 0.9230
H15_5 H 0.6745 0.0721 0.9629
H16_5 H 0.6467 0.0266 0.8202
H20_5 H 0.5933 0.4288 0.7082
H21_5 H 0.5829 0.4445 0.6239
H22_5 H 0.7290 0.5323 0.6147
H23_5 H 0.7404 0.5121 0.6988
H24_5 H 0.7176 0.5683 0.7862
H25_5 H 0.6375 0.3437 0.7839
C2_5 C 0.96476(14) 0.1701(3) 0.91518(17)
C3_5 C 0.93292(18) 0.1737(4) 0.8740(2)
C4_5 C 0.88559(18) 0.2197(4) 0.8767(2)
C5_5 C 0.87255(14) 0.2608(3) 0.91991(19)
C6_5 C 0.90365(16) 0.2587(3) 0.96076(19)
C7_5 C 0.95029(16) 0.2116(3) 0.95849(18)
C8_5 C 0.81703(14) 0.3987(3) 0.92286(18)
C9_5 C 0.77532(15) 0.2726(3) 0.92154(19)
C10_5 C 0.65727(19) 0.1641(4) 0.8816(2)
C11_5 C 0.65905(18) 0.0609(3) 0.8904(2)
C12_5 C 0.6520(3) 0.0047(4) 0.8524(3)
C16_5 C 0.6696(2) 0.0311(4) 0.9370(2)
C19_5 C 0.31757(15) 0.1178(3) 0.88183(19)
C20_5 C 0.36586(14) 0.1733(3) 0.88971(17)
C21_5 C 0.40304(17) 0.1767(4) 0.8531(2)
C22_5 C 0.44831(16) 0.2240(4) 0.86039(18)
C23_5 C 0.45583(13) 0.2698(3) 0.90498(17)
C24_5 C 0.41913(14) 0.2690(3) 0.94135(17)
C25_5 C 0.37400(15) 0.2213(3) 0.93348(17)
C26_5 C 0.55223(13) 0.2848(3) 0.90379(16)
C27_5 C 0.51147(12) 0.3994(3) 0.93313(14)
C28_5 C 0.65521(16) 0.4906(3) 0.60981(16)
C29_5 C 0.61455(17) 0.4589(4) 0.63902(16)
C30_5 C 0.62074(18) 0.4490(4) 0.68918(17)
C31_5 C 0.66800(16) 0.4691(3) 0.71188(16)
C32_5 C 0.70850(18) 0.4994(4) 0.68372(18)
C33_5 C 0.70166(17) 0.5106(4) 0.63337(17)
C34_5 C 0.64856(16) 0.5056(3) 0.55490(15)
C35_5 C 0.65701(16) 0.3930(3) 0.79454(16)
C36_5 C 0.70074(16) 0.5159(3) 0.79592(16)
N1_5 N 0.82373(11) 0.3083(2) 0.92132(15)
N2_5 N 0.74127(12) 0.3369(2) 0.92301(14)
N3_5 N 0.76783(11) 0.4177(2) 0.92408(13)
N4_5 N 0.50404(11) 0.3162(2) 0.91341(13)
N5_5 N 0.58672(11) 0.3453(2) 0.91639(12)
N6_3 N 0.56075(10) 0.4183(2) 0.93502(12)
N7_5 N 0.67444(13) 0.4584(2) 0.76415(13)
N8_5 N 0.67079(12) 0.4074(2) 0.83988(12)
N9_5 N 0.69859(12) 0.4868(2) 0.84112(13)
O3_5 O 0.66364(10) 0.2106(2) 0.91772(16)
O4_5 O 0.6469(2) 0.1916(3) 0.83865(19)
O5_5 O 0.30628(15) 0.0902(4) 0.83955(15)
O6_3 O 0.29149(9) 0.10135(19) 0.92012(11)
O7_5 O 0.68460(11) 0.5481(3) 0.53437(11)
O8_3 O 0.60891(10) 0.4753(2) 0.53304(10)
O9_3 O 0.66589(8) 0.46578(16) 0.94206(9)
Cu2_5 Cu 0.663710(14) 0.34171(3) 0.913834(17)
Cu3_2 Cu 0.727832(15) 0.53085(3) 0.915822(18)
N15_3 N 0.68917(12) 0.6447(2) 0.92006(15)
O10_3 O 0.79149(9) 0.60135(19) 0.92012(11)
Cu5_2 Cu 0.600534(14) 0.53225(3) 0.950579(17)
Cu6_3 Cu 0.600534(14) 0.46775(3) 0.450579(17)
Cu8_3 Cu 0.227832(15) 0.03085(3) 0.915822(18)
H14_5 H 0.6828 0.9139 0.9781
H17_5 H 0.6466 0.8732 0.8354
H18_5 H 0.7353 0.7439 0.8978
H19_5 H 0.5909 0.7532 0.9391
C13_5 C 0.6527(2) 0.9133(4) 0.8615(3)
C14_5 C 0.66262(16) 0.8807(3) 0.9094(2)
C15_5 C 0.6733(3) 0.9357(4) 0.9468(2)
C17_5 C 0.70273(16) 0.7271(3) 0.9089(2)
C18_5 C 0.62379(15) 0.7324(3) 0.93128(18)
N10_5 N 0.66268(12) 0.7845(2) 0.91556(15)
N11_3 N 0.63867(11) 0.6479(2) 0.93399(14)
H22_6 H 0.2290 0.0323 0.6147
H23_6 H 0.2404 0.0121 0.6988
H24_6 H 0.2176 0.0683 0.7862
C33_6 C 0.20166(17) 0.0106(4) 0.63337(17)
C34_6 C 0.14856(16) 0.0056(3) 0.55490(15)
C36_6 C 0.20074(16) 0.0159(3) 0.79592(16)
O7_6 O 0.18460(11) 0.0481(3) 0.53437(11)
N15_4 N 0.18917(12) 0.1447(2) 0.92006(15)
O11_4 O 0.60891(10) 0.5247(2) 0.03304(10)
H1_6 H 0.1758(13) 0.959(3) 0.9725(5)
H6_6 H 0.0596 0.7287 0.8902
H8_6 H 0.3633 0.7221 0.8491
H9_6 H 0.4425 0.6459 0.8446
H10_6 H 0.4718 0.7082 0.9866
H11_6 H 0.3942 0.7880 0.9898
H12_6 H 0.2677 0.7114 0.9208
H13_6 H 0.3437 0.9410 0.9230
H14_6 H 0.1828 0.4139 0.9781
H15_6 H 0.1745 0.5721 0.9629
H16_6 H 0.1467 0.5266 0.8202
H17_6 H 0.1466 0.3732 0.8354
H18_6 H 0.2353 0.2439 0.8978
H19_6 H 0.0909 0.2532 0.9391
H20_6 H 0.0933 0.9288 0.7082
H21_6 H 0.0829 0.9445 0.6239
H25_6 H 0.1375 0.8437 0.7839
C1_6 C 0.51437(14) 0.6183(3) 0.91347(17)
C2_6 C 0.46476(14) 0.6701(3) 0.91518(17)
C3_6 C 0.43292(18) 0.6737(4) 0.8740(2)
C4_6 C 0.38559(18) 0.7197(4) 0.8767(2)
C5_6 C 0.37255(14) 0.7608(3) 0.91991(19)
C6_6 C 0.40365(16) 0.7587(3) 0.96076(19)
C7_6 C 0.45029(16) 0.7116(3) 0.95849(18)
C8_6 C 0.31703(14) 0.8987(3) 0.92286(18)
C9_6 C 0.27532(15) 0.7726(3) 0.92154(19)
C10_6 C 0.15727(19) 0.6641(4) 0.8816(2)
C11_6 C 0.15905(18) 0.5609(3) 0.8904(2)
C12_6 C 0.1520(3) 0.5047(4) 0.8524(3)
C13_6 C 0.1527(2) 0.4133(4) 0.8615(3)
C14_6 C 0.16262(16) 0.3807(3) 0.9094(2)
C15_6 C 0.1733(3) 0.4357(4) 0.9468(2)
C16_6 C 0.1696(2) 0.5311(4) 0.9370(2)
C17_6 C 0.20273(16) 0.2271(3) 0.9089(2)
C18_6 C 0.12379(15) 0.2324(3) 0.93128(18)
C26_6 C 0.05223(13) 0.7848(3) 0.90379(16)
C27_6 C 0.01147(12) 0.8994(3) 0.93313(14)
C28_6 C 0.15521(16) 0.9906(3) 0.60981(16)
C29_6 C 0.11455(17) 0.9589(4) 0.63902(16)
C30_6 C 0.12074(18) 0.9490(4) 0.68918(17)
C31_6 C 0.16800(16) 0.9691(3) 0.71188(16)
C32_6 C 0.20850(18) 0.9994(4) 0.68372(18)
C35_6 C 0.15701(16) 0.8930(3) 0.79454(16)
N1_6 N 0.32373(11) 0.8083(2) 0.92132(15)
N2_6 N 0.24127(12) 0.8369(2) 0.92301(14)
N3_6 N 0.26783(11) 0.9177(2) 0.92408(13)
N4_6 N 0.00404(11) 0.8162(2) 0.91341(13)
N5_6 N 0.08672(11) 0.8453(2) 0.91639(12)
N7_6 N 0.17444(13) 0.9584(2) 0.76415(13)
N8_6 N 0.17079(12) 0.9074(2) 0.83988(12)
N9_6 N 0.19859(12) 0.9868(2) 0.84112(13)
N10_6 N 0.16268(12) 0.2845(2) 0.91556(15)
O1_6 O 0.53657(9) 0.60131(18) 0.95549(10)
O2_6 O 0.53153(12) 0.5918(3) 0.87331(13)
O3_6 O 0.16364(10) 0.7106(2) 0.91772(16)
O4_6 O 0.1469(2) 0.6916(3) 0.83865(19)
O8_4 O 0.10891(10) 0.9753(2) 0.53304(10)
Cu2_6 Cu 0.163710(14) 0.84171(3) 0.913834(17)
Cu6_4 Cu 0.100534(14) 0.96775(3) 0.450579(17)
H2_6 H 0.9734 0.7254 0.8360
H3_6 H 0.8972 0.6466 0.8231
H4_6 H 0.8487 0.7213 0.9577
H5_6 H 0.9247 0.8003 0.9710
H7_6 H 0.9852 0.9373 0.9437
C19_6 C 0.81757(15) 0.6178(3) 0.88183(19)
C20_6 C 0.86586(14) 0.6733(3) 0.88971(17)
C21_6 C 0.90304(17) 0.6767(4) 0.8531(2)
C22_6 C 0.94831(16) 0.7240(4) 0.86039(18)
C23_6 C 0.95583(13) 0.7698(3) 0.90498(17)
C24_6 C 0.91913(14) 0.7690(3) 0.94135(17)
C25_6 C 0.87400(15) 0.7213(3) 0.93348(17)
O5_6 O 0.80628(15) 0.5902(4) 0.83955(15)
N13_4 N 0.06075(10) 0.0817(2) 0.43502(12)
O12_4 O 0.16589(8) 0.03422(16) 0.44206(9)
C1_7 C 0.01437(14) 0.8817(3) 0.41347(17)
O1_7 O 0.03657(9) 0.89869(18) 0.45549(10)
O2_7 O 0.03153(12) 0.9082(3) 0.37331(13)
N14_4 N 0.13867(11) 0.8521(2) 0.43399(14)
H14_7 H 0.6828 0.0861 0.4781
H17_7 H 0.6466 0.1268 0.3354
H18_7 H 0.7353 0.2561 0.3978
H19_7 H 0.5909 0.2468 0.4391
C13_7 C 0.6527(2) 0.0867(4) 0.3615(3)
C14_7 C 0.66262(16) 0.1193(3) 0.4094(2)
C15_7 C 0.6733(3) 0.0643(4) 0.4468(2)
C17_7 C 0.70273(16) 0.2729(3) 0.4089(2)
C18_7 C 0.62379(15) 0.2676(3) 0.43128(18)
N10_7 N 0.66268(12) 0.2155(2) 0.41556(15)
N11_4 N 0.63867(11) 0.3521(2) 0.43399(14)
N12_3 N 0.68917(12) 0.3553(2) 0.42006(15)
Cu7_2 Cu 0.727832(15) 0.46915(3) 0.415822(18)
H1_7 H 0.6758(13) 0.541(3) 0.4725(5)
H2_7 H 0.4734 0.7746 0.3360
H3_7 H 0.3972 0.8534 0.3231
H4_7 H 0.3487 0.7787 0.4577
H5_7 H 0.4247 0.6997 0.4710
H6_7 H 0.5596 0.7713 0.3902
H7_7 H 0.4852 0.5627 0.4437
H8_7 H 0.8633 0.7779 0.3491
H9_7 H 0.9425 0.8541 0.3446
H10_7 H 0.9718 0.7918 0.4866
H11_7 H 0.8942 0.7120 0.4898
H12_7 H 0.7677 0.7886 0.4208
H13_7 H 0.8437 0.5590 0.4230
H15_7 H 0.6745 0.9279 0.4629
H16_7 H 0.6467 0.9734 0.3202
H20_7 H 0.5933 0.5712 0.2082
H21_7 H 0.5829 0.5555 0.1239
H22_7 H 0.7290 0.4677 0.1147
H23_7 H 0.7404 0.4879 0.1988
H24_7 H 0.7176 0.4317 0.2862
H25_7 H 0.6375 0.6563 0.2839
C2_7 C 0.96476(14) 0.8299(3) 0.41518(17)
C3_7 C 0.93292(18) 0.8263(4) 0.3740(2)
C4_7 C 0.88559(18) 0.7803(4) 0.3767(2)
C5_7 C 0.87255(14) 0.7392(3) 0.41991(19)
C6_7 C 0.90365(16) 0.7413(3) 0.46076(19)
C7_7 C 0.95029(16) 0.7884(3) 0.45849(18)
C8_7 C 0.81703(14) 0.6013(3) 0.42286(18)
C9_7 C 0.77532(15) 0.7274(3) 0.42154(19)
C10_7 C 0.65727(19) 0.8359(4) 0.3816(2)
C11_7 C 0.65905(18) 0.9391(3) 0.3904(2)
C12_7 C 0.6520(3) 0.9953(4) 0.3524(3)
C16_7 C 0.6696(2) 0.9689(4) 0.4370(2)
C19_7 C 0.31757(15) 0.8822(3) 0.38183(19)
C20_7 C 0.36586(14) 0.8267(3) 0.38971(17)
C21_7 C 0.40304(17) 0.8233(4) 0.3531(2)
C22_7 C 0.44831(16) 0.7760(4) 0.36039(18)
C23_7 C 0.45583(13) 0.7302(3) 0.40498(17)
C24_7 C 0.41913(14) 0.7310(3) 0.44135(17)
C25_7 C 0.37400(15) 0.7787(3) 0.43348(17)
C26_7 C 0.55223(13) 0.7152(3) 0.40379(16)
C27_7 C 0.51147(12) 0.6006(3) 0.43313(14)
C28_7 C 0.65521(16) 0.5094(3) 0.10981(16)
C29_7 C 0.61455(17) 0.5411(4) 0.13902(16)
C30_7 C 0.62074(18) 0.5510(4) 0.18918(17)
C31_7 C 0.66800(16) 0.5309(3) 0.21188(16)
C32_7 C 0.70850(18) 0.5006(4) 0.18372(18)
C33_7 C 0.70166(17) 0.4894(4) 0.13337(17)
C34_7 C 0.64856(16) 0.4944(3) 0.05490(15)
C35_7 C 0.65701(16) 0.6070(3) 0.29454(16)
C36_7 C 0.70074(16) 0.4841(3) 0.29592(16)
N1_7 N 0.82373(11) 0.6917(2) 0.42132(15)
N2_7 N 0.74127(12) 0.6631(2) 0.42301(14)
N3_7 N 0.76783(11) 0.5823(2) 0.42408(13)
N4_7 N 0.50404(11) 0.6838(2) 0.41341(13)
N5_7 N 0.58672(11) 0.6547(2) 0.41639(12)
N6_4 N 0.56075(10) 0.5817(2) 0.43502(12)
N7_7 N 0.67444(13) 0.5416(2) 0.26415(13)
N8_7 N 0.67079(12) 0.5926(2) 0.33988(12)
N9_7 N 0.69859(12) 0.5132(2) 0.34112(13)
O3_7 O 0.66364(10) 0.7894(2) 0.41772(16)
O4_7 O 0.6469(2) 0.8084(3) 0.33865(19)
O5_7 O 0.30628(15) 0.9098(4) 0.33955(15)
O6_4 O 0.29149(9) 0.89865(19) 0.42012(11)
O7_7 O 0.68460(11) 0.4519(3) 0.03437(11)
O9_4 O 0.66589(8) 0.53422(16) 0.44206(9)
Cu2_7 Cu 0.663710(14) 0.65829(3) 0.413834(17)
O10_4 O 0.79149(9) 0.39865(19) 0.42012(11)
Cu8_4 Cu 0.227832(15) 0.96915(3) 0.415822(18)
H1_8 H 0.1758(13) 0.041(3) 0.4725(5)
H6_8 H 0.0596 0.2713 0.3902
H8_8 H 0.3633 0.2779 0.3491
H9_8 H 0.4425 0.3541 0.3446
H10_8 H 0.4718 0.2918 0.4866
H11_8 H 0.3942 0.2120 0.4898
H12_8 H 0.2677 0.2886 0.4208
H13_8 H 0.3437 0.0590 0.4230
H14_8 H 0.1828 0.5861 0.4781
H15_8 H 0.1745 0.4279 0.4629
H16_8 H 0.1467 0.4734 0.3202
H17_8 H 0.1466 0.6268 0.3354
H18_8 H 0.2353 0.7561 0.3978
H19_8 H 0.0909 0.7468 0.4391
H20_8 H 0.0933 0.0712 0.2082
H21_8 H 0.0829 0.0555 0.1239
H25_8 H 0.1375 0.1563 0.2839
C1_8 C 0.51437(14) 0.3817(3) 0.41347(17)
C2_8 C 0.46476(14) 0.3299(3) 0.41518(17)
C3_8 C 0.43292(18) 0.3263(4) 0.3740(2)
C4_8 C 0.38559(18) 0.2803(4) 0.3767(2)
C5_8 C 0.37255(14) 0.2392(3) 0.41991(19)
C6_8 C 0.40365(16) 0.2413(3) 0.46076(19)
C7_8 C 0.45029(16) 0.2884(3) 0.45849(18)
C8_8 C 0.31703(14) 0.1013(3) 0.42286(18)
C9_8 C 0.27532(15) 0.2274(3) 0.42154(19)
C10_8 C 0.15727(19) 0.3359(4) 0.3816(2)
C11_8 C 0.15905(18) 0.4391(3) 0.3904(2)
C12_8 C 0.1520(3) 0.4953(4) 0.3524(3)
C13_8 C 0.1527(2) 0.5867(4) 0.3615(3)
C14_8 C 0.16262(16) 0.6193(3) 0.4094(2)
C15_8 C 0.1733(3) 0.5643(4) 0.4468(2)
C16_8 C 0.1696(2) 0.4689(4) 0.4370(2)
C17_8 C 0.20273(16) 0.7729(3) 0.4089(2)
C18_8 C 0.12379(15) 0.7676(3) 0.43128(18)
C26_8 C 0.05223(13) 0.2152(3) 0.40379(16)
C27_8 C 0.01147(12) 0.1006(3) 0.43313(14)
C28_8 C 0.15521(16) 0.0094(3) 0.10981(16)
C29_8 C 0.11455(17) 0.0411(4) 0.13902(16)
C30_8 C 0.12074(18) 0.0510(4) 0.18918(17)
C31_8 C 0.16800(16) 0.0309(3) 0.21188(16)
C32_8 C 0.20850(18) 0.0006(4) 0.18372(18)
C35_8 C 0.15701(16) 0.1070(3) 0.29454(16)
N1_8 N 0.32373(11) 0.1917(2) 0.42132(15)
N2_8 N 0.24127(12) 0.1631(2) 0.42301(14)
N3_8 N 0.26783(11) 0.0823(2) 0.42408(13)
N4_8 N 0.00404(11) 0.1838(2) 0.41341(13)
N5_8 N 0.08672(11) 0.1547(2) 0.41639(12)
N7_8 N 0.17444(13) 0.0416(2) 0.26415(13)
N8_8 N 0.17079(12) 0.0926(2) 0.33988(12)
N9_8 N 0.19859(12) 0.0132(2) 0.34112(13)
N10_8 N 0.16268(12) 0.7155(2) 0.41556(15)
N12_4 N 0.18917(12) 0.8553(2) 0.42006(15)
O1_8 O 0.53657(9) 0.39869(18) 0.45549(10)
O2_8 O 0.53153(12) 0.4082(3) 0.37331(13)
O3_8 O 0.16364(10) 0.2894(2) 0.41772(16)
O4_8 O 0.1469(2) 0.3084(3) 0.33865(19)
Cu2_8 Cu 0.163710(14) 0.15829(3) 0.413834(17)
H22_8 H 0.2290 0.9677 0.1147
H23_8 H 0.2404 0.9879 0.1988
H24_8 H 0.2176 0.9317 0.2862
C33_8 C 0.20166(17) 0.9894(4) 0.13337(17)
C34_8 C 0.14856(16) 0.9944(3) 0.05490(15)
C36_8 C 0.20074(16) 0.9841(3) 0.29592(16)
O7_8 O 0.18460(11) 0.9519(3) 0.03437(11)
H2_8 H 0.9734 0.2746 0.3360
H3_8 H 0.8972 0.3534 0.3231
H4_8 H 0.8487 0.2787 0.4577
H5_8 H 0.9247 0.1997 0.4710
H7_8 H 0.9852 0.0627 0.4437
C19_8 C 0.81757(15) 0.3822(3) 0.38183(19)
C20_8 C 0.86586(14) 0.3267(3) 0.38971(17)
C21_8 C 0.90304(17) 0.3233(4) 0.3531(2)
C22_8 C 0.94831(16) 0.2760(4) 0.36039(18)
C23_8 C 0.95583(13) 0.2302(3) 0.40498(17)
C24_8 C 0.91913(14) 0.2310(3) 0.44135(17)
C25_8 C 0.87400(15) 0.2787(3) 0.43348(17)
O5_8 O 0.80628(15) 0.4098(4) 0.33955(15)
loop_
_geom_bond_atom_site_label_1
_geom_bond_atom_site_label_2
_geom_bond_site_symmetry_1
_geom_bond_site_symmetry_2
H1 O9 1_555 1_555
H2 C22 1_555 1_555
H3 C21 1_555 1_555
H4 C25 1_555 1_555
H5 C24 1_555 1_555
H6 C26 1_555 1_555
H7 C27 1_555 1_555
H8 C4 1_555 1_555
H9 C3 1_555 1_555
H10 C7 1_555 1_555
H11 C6 1_555 1_555
H12 C9 1_555 1_555
H13 C8 1_555 1_555
H15 C16 1_555 1_555
H16 C12 1_555 1_555
H20 C30 1_555 1_555
H21 C29 1_555 1_555
H22 C33 1_555 1_555
H23 C32 1_555 1_555
H24 C36 1_555 1_555
H25 C35 1_555 1_555
C2 C3 1_555 1_555
C3 C4 1_555 1_555
C4 C5 1_555 1_555
C5 C6 1_555 1_555
C6 C7 1_555 1_555
C7 C2 1_555 1_555
C8 N1 1_555 1_555
C9 N1 1_555 1_555
C10 C11 1_555 1_555
C11 C12 1_555 1_555
C16 C11 1_555 1_555
C19 C20 1_555 1_555
C20 C21 1_555 1_555
C21 C22 1_555 1_555
C22 C23 1_555 1_555
C23 C24 1_555 1_555
C24 C25 1_555 1_555
C25 C20 1_555 1_555
C26 N4 1_555 1_555
C27 N4 1_555 1_555
C28 C29 1_555 1_555
C29 C30 1_555 1_555
C30 C31 1_555 1_555
C31 C32 1_555 1_555
C32 C33 1_555 1_555
C33 C28 1_555 1_555
C34 C28 1_555 1_555
C35 N7 1_555 1_555
C36 N7 1_555 1_555
N1 C5 1_555 1_555
N2 C9 1_555 1_555
N3 C8 1_555 1_555
N4 C23 1_555 1_555
N5 C26 1_555 1_555
N6 C27 1_555 1_555
N7 C31 1_555 1_555
N8 C35 1_555 1_555
N9 C36 1_555 1_555
O3 C10 1_555 1_555
O4 C10 1_555 1_555
O5 C19 1_555 1_555
O6 C19 1_555 1_555
O7 C34 1_555 1_555
O8 C34 1_555 1_555
O9 Cu2 1_555 1_555
Cu2 N2 1_555 1_555
Cu3 N3 1_555 1_555
N15 Cu3 1_555 1_555
O10 Cu3 1_555 1_555
Cu5 N6 1_555 1_555
Cu8 O6 1_555 1_555
N2 N3 1_555 1_555
N5 N6 1_555 1_555
N5 Cu2 1_555 1_555
N8 N9 1_555 1_555
N8 Cu2 1_555 1_555
N9 Cu3 1_555 1_555
O3 Cu2 1_555 1_555
O9 Cu3 1_555 1_555
O9 Cu5 1_555 1_555
H14 C15 1_555 1_555
H17 C13 1_555 1_555
H18 C17 1_555 1_555
H19 C18 1_555 1_555
C13 C14 1_555 1_555
C14 C15 1_555 1_555
C17 N10 1_555 1_555
C18 N10 1_555 1_555
N10 C14 1_555 1_555
N11 C18 1_555 1_555
N15 C17 1_555 1_555
Cu5 N11 1_555 1_555
N11 N15 1_555 1_555
O1 C1 1_555 1_555
O2 C1 1_555 1_555
Cu1 O1 1_555 1_555
N14 Cu1 1_555 1_555
O11 Cu1 1_555 1_555
H2_2 C22_2 1_555 1_555
H3_2 C21_2 1_555 1_555
H4_2 C25_2 1_555 1_555
H5_2 C24_2 1_555 1_555
C19_2 C20_2 1_555 1_555
C20_2 C21_2 1_555 1_555
C21_2 C22_2 1_555 1_555
C22_2 C23_2 1_555 1_555
C23_2 C24_2 1_555 1_555
C24_2 C25_2 1_555 1_555
C25_2 C20_2 1_555 1_555
O5_2 C19_2 1_555 1_555
O10 C19_2 1_555 1_555
H22_2 C33_2 1_555 1_555
H24_2 C36_2 1_555 1_555
O7_2 C34_2 1_555 1_555
N15_2 Cu8 1_555 1_555
H1_2 O12 1_555 1_555
H6_2 C26_2 1_555 1_555
H8_2 C4_2 1_555 1_555
H9_2 C3_2 1_555 1_555
H10_2 C7_2 1_555 1_555
H11_2 C6_2 1_555 1_555
H12_2 C9_2 1_555 1_555
H13_2 C8_2 1_555 1_555
H14_2 C15_2 1_555 1_555
H15_2 C16_2 1_555 1_555
H16_2 C12_2 1_555 1_555
H17_2 C13_2 1_555 1_555
H18_2 C17_2 1_555 1_555
H19_2 C18_2 1_555 1_555
H20_2 C30_2 1_555 1_555
H21_2 C29_2 1_555 1_555
H25_2 C35_2 1_555 1_555
C1_2 C2_2 1_555 1_555
C2_2 C3_2 1_555 1_555
C3_2 C4_2 1_555 1_555
C4_2 C5_2 1_555 1_555
C5_2 C6_2 1_555 1_555
C6_2 C7_2 1_555 1_555
C7_2 C2_2 1_555 1_555
C8_2 N1_2 1_555 1_555
C9_2 N1_2 1_555 1_555
C10_2 C11_2 1_555 1_555
C11_2 C12_2 1_555 1_555
C12_2 C13_2 1_555 1_555
C13_2 C14_2 1_555 1_555
C14_2 C15_2 1_555 1_555
C15_2 C16_2 1_555 1_555
C16_2 C11_2 1_555 1_555
C17_2 N10_2 1_555 1_555
C18_2 N10_2 1_555 1_555
C26_2 N4_2 1_555 1_555
C27_2 N4_2 1_555 1_555
C28_2 C29_2 1_555 1_555
C29_2 C30_2 1_555 1_555
C30_2 C31_2 1_555 1_555
C31_2 C32_2 1_555 1_555
C35_2 N7_2 1_555 1_555
N1_2 C5_2 1_555 1_555
N2_2 C9_2 1_555 1_555
N3_2 C8_2 1_555 1_555
N5_2 C26_2 1_555 1_555
N13 C27_2 1_555 1_555
N7_2 C31_2 1_555 1_555
N8_2 C35_2 1_555 1_555
N10_2 C14_2 1_555 1_555
N14 C18_2 1_555 1_555
N15_2 C17_2 1_555 1_555
O1_2 C1_2 1_555 1_555
O2_2 C1_2 1_555 1_555
O3_2 C10_2 1_555 1_555
O4_2 C10_2 1_555 1_555
O12 Cu2_2 1_555 1_555
Cu5 O1_2 1_555 1_555
Cu2_2 N2_2 1_555 1_555
O11_2 Cu5 1_555 1_555
N2_2 N3_2 1_555 1_555
N5_2 N13 1_555 1_555
N5_2 Cu2_2 1_555 1_555
N8_2 N9_2 1_555 1_555
N8_2 Cu2_2 1_555 1_555
N14 N15_2 1_555 1_555
O3_2 Cu2_2 1_555 1_555
H14_3 C15_3 1_555 1_555
H17_3 C13_3 1_555 1_555
H18_3 C17_3 1_555 1_555
H19_3 C18_3 1_555 1_555
C13_3 C14_3 1_555 1_555
C14_3 C15_3 1_555 1_555
C17_3 N10_3 1_555 1_555
C18_3 N10_3 1_555 1_555
N10_3 C14_3 1_555 1_555
N11_2 C18_3 1_555 1_555
N12 C17_3 1_555 1_555
Cu6 N11_2 1_555 1_555
Cu7 N12 1_555 1_555
N11_2 N12 1_555 1_555
H1_3 O9_2 1_555 1_555
H2_3 C22_3 1_555 1_555
H3_3 C21_3 1_555 1_555
H4_3 C25_3 1_555 1_555
H5_3 C24_3 1_555 1_555
H6_3 C26_3 1_555 1_555
H7_3 C27_3 1_555 1_555
H8_3 C4_3 1_555 1_555
H9_3 C3_3 1_555 1_555
H10_3 C7_3 1_555 1_555
H11_3 C6_3 1_555 1_555
H12_3 C9_3 1_555 1_555
H13_3 C8_3 1_555 1_555
H15_3 C16_3 1_555 1_555
H16_3 C12_3 1_555 1_555
H20_3 C30_3 1_555 1_555
H21_3 C29_3 1_555 1_555
H22_3 C33_3 1_555 1_555
H23_3 C32_3 1_555 1_555
H24_3 C36_3 1_555 1_555
H25_3 C35_3 1_555 1_555
C2_3 C3_3 1_555 1_555
C3_3 C4_3 1_555 1_555
C4_3 C5_3 1_555 1_555
C5_3 C6_3 1_555 1_555
C6_3 C7_3 1_555 1_555
C7_3 C2_3 1_555 1_555
C8_3 N1_3 1_555 1_555
C9_3 N1_3 1_555 1_555
C10_3 C11_3 1_555 1_555
C11_3 C12_3 1_555 1_555
C16_3 C11_3 1_555 1_555
C19_3 C20_3 1_555 1_555
C20_3 C21_3 1_555 1_555
C21_3 C22_3 1_555 1_555
C22_3 C23_3 1_555 1_555
C23_3 C24_3 1_555 1_555
C24_3 C25_3 1_555 1_555
C25_3 C20_3 1_555 1_555
C26_3 N4_3 1_555 1_555
C27_3 N4_3 1_555 1_555
C28_3 C29_3 1_555 1_555
C29_3 C30_3 1_555 1_555
C30_3 C31_3 1_555 1_555
C31_3 C32_3 1_555 1_555
C32_3 C33_3 1_555 1_555
C33_3 C28_3 1_555 1_555
C34_3 C28_3 1_555 1_555
C35_3 N7_3 1_555 1_555
C36_3 N7_3 1_555 1_555
N1_3 C5_3 1_555 1_555
N2_3 C9_3 1_555 1_555
N3_3 C8_3 1_555 1_555
N4_3 C23_3 1_555 1_555
N5_3 C26_3 1_555 1_555
N6_2 C27_3 1_555 1_555
N7_3 C31_3 1_555 1_555
N8_3 C35_3 1_555 1_555
N9_3 C36_3 1_555 1_555
O3_3 C10_3 1_555 1_555
O4_3 C10_3 1_555 1_555
O5_3 C19_3 1_555 1_555
O6_2 C19_3 1_555 1_555
O7_3 C34_3 1_555 1_555
O11_2 C34_3 1_555 1_555
O9_2 Cu2_3 1_555 1_555
Cu2_3 N2_3 1_555 1_555
Cu7 N3_3 1_555 1_555
O10_2 Cu7 1_555 1_555
Cu6 N6_2 1_555 1_555
Cu8_2 O6_2 1_555 1_555
N2_3 N3_3 1_555 1_555
N5_3 N6_2 1_555 1_555
N5_3 Cu2_3 1_555 1_555
N8_3 N9_3 1_555 1_555
N8_3 Cu2_3 1_555 1_555
N9_3 Cu7 1_555 1_555
O3_3 Cu2_3 1_555 1_555
O9_2 Cu7 1_555 1_555
O9_2 Cu6 1_555 1_555
O1_3 C1_3 1_555 1_555
O2_3 C1_3 1_555 1_555
Cu6_2 O1_3 1_555 1_555
N14_2 Cu6_2 1_555 1_555
H2_4 C22_4 1_555 1_555
H3_4 C21_4 1_555 1_555
H4_4 C25_4 1_555 1_555
H5_4 C24_4 1_555 1_555
C19_4 C20_4 1_555 1_555
C20_4 C21_4 1_555 1_555
C21_4 C22_4 1_555 1_555
C22_4 C23_4 1_555 1_555
C23_4 C24_4 1_555 1_555
C24_4 C25_4 1_555 1_555
C25_4 C20_4 1_555 1_555
O5_4 C19_4 1_555 1_555
O10_2 C19_4 1_555 1_555
H1_4 O12_2 1_555 1_555
H6_4 C26_4 1_555 1_555
H8_4 C4_4 1_555 1_555
H9_4 C3_4 1_555 1_555
H10_4 C7_4 1_555 1_555
H11_4 C6_4 1_555 1_555
H12_4 C9_4 1_555 1_555
H13_4 C8_4 1_555 1_555
H14_4 C15_4 1_555 1_555
H15_4 C16_4 1_555 1_555
H16_4 C12_4 1_555 1_555
H17_4 C13_4 1_555 1_555
H18_4 C17_4 1_555 1_555
H19_4 C18_4 1_555 1_555
H20_4 C30_4 1_555 1_555
H21_4 C29_4 1_555 1_555
H25_4 C35_4 1_555 1_555
C1_4 C2_4 1_555 1_555
C2_4 C3_4 1_555 1_555
C3_4 C4_4 1_555 1_555
C4_4 C5_4 1_555 1_555
C5_4 C6_4 1_555 1_555
C6_4 C7_4 1_555 1_555
C7_4 C2_4 1_555 1_555
C8_4 N1_4 1_555 1_555
C9_4 N1_4 1_555 1_555
C10_4 C11_4 1_555 1_555
C11_4 C12_4 1_555 1_555
C12_4 C13_4 1_555 1_555
C13_4 C14_4 1_555 1_555
C14_4 C15_4 1_555 1_555
C15_4 C16_4 1_555 1_555
C16_4 C11_4 1_555 1_555
C17_4 N10_4 1_555 1_555
C18_4 N10_4 1_555 1_555
C26_4 N4_4 1_555 1_555
C27_4 N4_4 1_555 1_555
C28_4 C29_4 1_555 1_555
C29_4 C30_4 1_555 1_555
C30_4 C31_4 1_555 1_555
C31_4 C32_4 1_555 1_555
C35_4 N7_4 1_555 1_555
N1_4 C5_4 1_555 1_555
N2_4 C9_4 1_555 1_555
N3_4 C8_4 1_555 1_555
N5_4 C26_4 1_555 1_555
N13_2 C27_4 1_555 1_555
N7_4 C31_4 1_555 1_555
N8_4 C35_4 1_555 1_555
N10_4 C14_4 1_555 1_555
N14_2 C18_4 1_555 1_555
N12_2 C17_4 1_555 1_555
O1_4 C1_4 1_555 1_555
O2_4 C1_4 1_555 1_555
O3_4 C10_4 1_555 1_555
O4_4 C10_4 1_555 1_555
O12_2 Cu2_4 1_555 1_555
Cu6 O1_4 1_555 1_555
Cu2_4 N2_4 1_555 1_555
Cu8_2 N12_2 1_555 1_555
N2_4 N3_4 1_555 1_555
N5_4 N13_2 1_555 1_555
N5_4 Cu2_4 1_555 1_555
N8_4 N9_4 1_555 1_555
N8_4 Cu2_4 1_555 1_555
N14_2 N12_2 1_555 1_555
O3_4 Cu2_4 1_555 1_555
H22_4 C33_4 1_555 1_555
H24_4 C36_4 1_555 1_555
O7_4 C34_4 1_555 1_555
O1_5 C1_5 1_555 1_555
O2_5 C1_5 1_555 1_555
Cu1_2 O1_5 1_555 1_555
N14_3 Cu1_2 1_555 1_555
H1_5 O9_3 1_555 1_555
H2_5 C22_5 1_555 1_555
H3_5 C21_5 1_555 1_555
H4_5 C25_5 1_555 1_555
H5_5 C24_5 1_555 1_555
H6_5 C26_5 1_555 1_555
H7_5 C27_5 1_555 1_555
H8_5 C4_5 1_555 1_555
H9_5 C3_5 1_555 1_555
H10_5 C7_5 1_555 1_555
H11_5 C6_5 1_555 1_555
H12_5 C9_5 1_555 1_555
H13_5 C8_5 1_555 1_555
H15_5 C16_5 1_555 1_555
H16_5 C12_5 1_555 1_555
H20_5 C30_5 1_555 1_555
H21_5 C29_5 1_555 1_555
H22_5 C33_5 1_555 1_555
H23_5 C32_5 1_555 1_555
H24_5 C36_5 1_555 1_555
H25_5 C35_5 1_555 1_555
C2_5 C3_5 1_555 1_555
C3_5 C4_5 1_555 1_555
C4_5 C5_5 1_555 1_555
C5_5 C6_5 1_555 1_555
C6_5 C7_5 1_555 1_555
C7_5 C2_5 1_555 1_555
C8_5 N1_5 1_555 1_555
C9_5 N1_5 1_555 1_555
C10_5 C11_5 1_555 1_555
C11_5 C12_5 1_555 1_555
C16_5 C11_5 1_555 1_555
C19_5 C20_5 1_555 1_555
C20_5 C21_5 1_555 1_555
C21_5 C22_5 1_555 1_555
C22_5 C23_5 1_555 1_555
C23_5 C24_5 1_555 1_555
C24_5 C25_5 1_555 1_555
C25_5 C20_5 1_555 1_555
C26_5 N4_5 1_555 1_555
C27_5 N4_5 1_555 1_555
C28_5 C29_5 1_555 1_555
C29_5 C30_5 1_555 1_555
C30_5 C31_5 1_555 1_555
C31_5 C32_5 1_555 1_555
C32_5 C33_5 1_555 1_555
C33_5 C28_5 1_555 1_555
C34_5 C28_5 1_555 1_555
C35_5 N7_5 1_555 1_555
C36_5 N7_5 1_555 1_555
N1_5 C5_5 1_555 1_555
N2_5 C9_5 1_555 1_555
N3_5 C8_5 1_555 1_555
N4_5 C23_5 1_555 1_555
N5_5 C26_5 1_555 1_555
N6_3 C27_5 1_555 1_555
N7_5 C31_5 1_555 1_555
N8_5 C35_5 1_555 1_555
N9_5 C36_5 1_555 1_555
O3_5 C10_5 1_555 1_555
O4_5 C10_5 1_555 1_555
O5_5 C19_5 1_555 1_555
O6_3 C19_5 1_555 1_555
O7_5 C34_5 1_555 1_555
O8_3 C34_5 1_555 1_555
O9_3 Cu2_5 1_555 1_555
Cu2_5 N2_5 1_555 1_555
Cu3_2 N3_5 1_555 1_555
N15_3 Cu3_2 1_555 1_555
O10_3 Cu3_2 1_555 1_555
Cu5_2 N6_3 1_555 1_555
Cu6_3 O8_3 1_555 1_555
Cu8_3 O6_3 1_555 1_555
N2_5 N3_5 1_555 1_555
N5_5 N6_3 1_555 1_555
N5_5 Cu2_5 1_555 1_555
N8_5 N9_5 1_555 1_555
N8_5 Cu2_5 1_555 1_555
N9_5 Cu3_2 1_555 1_555
O3_5 Cu2_5 1_555 1_555
O9_3 Cu3_2 1_555 1_555
O9_3 Cu5_2 1_555 1_555
H14_5 C15_5 1_555 1_555
H17_5 C13_5 1_555 1_555
H18_5 C17_5 1_555 1_555
H19_5 C18_5 1_555 1_555
C13_5 C14_5 1_555 1_555
C14_5 C15_5 1_555 1_555
C17_5 N10_5 1_555 1_555
C18_5 N10_5 1_555 1_555
N10_5 C14_5 1_555 1_555
N11_3 C18_5 1_555 1_555
N15_3 C17_5 1_555 1_555
Cu5_2 N11_3 1_555 1_555
N11_3 N15_3 1_555 1_555
H22_6 C33_6 1_555 1_555
H24_6 C36_6 1_555 1_555
O7_6 C34_6 1_555 1_555
N15_4 Cu8_3 1_555 1_555
H1_6 O12_3 1_555 1_555
H6_6 C26_6 1_555 1_555
H8_6 C4_6 1_555 1_555
H9_6 C3_6 1_555 1_555
H10_6 C7_6 1_555 1_555
H11_6 C6_6 1_555 1_555
H12_6 C9_6 1_555 1_555
H13_6 C8_6 1_555 1_555
H14_6 C15_6 1_555 1_555
H15_6 C16_6 1_555 1_555
H16_6 C12_6 1_555 1_555
H17_6 C13_6 1_555 1_555
H18_6 C17_6 1_555 1_555
H19_6 C18_6 1_555 1_555
H20_6 C30_6 1_555 1_555
H21_6 C29_6 1_555 1_555
H25_6 C35_6 1_555 1_555
C1_6 C2_6 1_555 1_555
C2_6 C3_6 1_555 1_555
C3_6 C4_6 1_555 1_555
C4_6 C5_6 1_555 1_555
C5_6 C6_6 1_555 1_555
C6_6 C7_6 1_555 1_555
C7_6 C2_6 1_555 1_555
C8_6 N1_6 1_555 1_555
C9_6 N1_6 1_555 1_555
C10_6 C11_6 1_555 1_555
C11_6 C12_6 1_555 1_555
C12_6 C13_6 1_555 1_555
C13_6 C14_6 1_555 1_555
C14_6 C15_6 1_555 1_555
C15_6 C16_6 1_555 1_555
C16_6 C11_6 1_555 1_555
C17_6 N10_6 1_555 1_555
C18_6 N10_6 1_555 1_555
C26_6 N4_6 1_555 1_555
C27_6 N4_6 1_555 1_555
C28_6 C29_6 1_555 1_555
C29_6 C30_6 1_555 1_555
C30_6 C31_6 1_555 1_555
C31_6 C32_6 1_555 1_555
C35_6 N7_6 1_555 1_555
N1_6 C5_6 1_555 1_555
N2_6 C9_6 1_555 1_555
N3_6 C8_6 1_555 1_555
N5_6 C26_6 1_555 1_555
N13_3 C27_6 1_555 1_555
N7_6 C31_6 1_555 1_555
N8_6 C35_6 1_555 1_555
N10_6 C14_6 1_555 1_555
N14_3 C18_6 1_555 1_555
N15_4 C17_6 1_555 1_555
O1_6 C1_6 1_555 1_555
O2_6 C1_6 1_555 1_555
O3_6 C10_6 1_555 1_555
O4_6 C10_6 1_555 1_555
O12_3 Cu2_6 1_555 1_555
Cu5_2 O1_6 1_555 1_555
Cu2_6 N2_6 1_555 1_555
Cu6_4 O8_4 1_555 1_555
N2_6 N3_6 1_555 1_555
N5_6 N13_3 1_555 1_555
N5_6 Cu2_6 1_555 1_555
N8_6 N9_6 1_555 1_555
N8_6 Cu2_6 1_555 1_555
N14_3 N15_4 1_555 1_555
O3_6 Cu2_6 1_555 1_555
H2_6 C22_6 1_555 1_555
H3_6 C21_6 1_555 1_555
H4_6 C25_6 1_555 1_555
H5_6 C24_6 1_555 1_555
C19_6 C20_6 1_555 1_555
C20_6 C21_6 1_555 1_555
C21_6 C22_6 1_555 1_555
C22_6 C23_6 1_555 1_555
C23_6 C24_6 1_555 1_555
C24_6 C25_6 1_555 1_555
C25_6 C20_6 1_555 1_555
O5_6 C19_6 1_555 1_555
O10_3 C19_6 1_555 1_555
O1_7 C1_7 1_555 1_555
O2_7 C1_7 1_555 1_555
Cu6_4 O1_7 1_555 1_555
N14_4 Cu6_4 1_555 1_555
H14_7 C15_7 1_555 1_555
H17_7 C13_7 1_555 1_555
H18_7 C17_7 1_555 1_555
H19_7 C18_7 1_555 1_555
C13_7 C14_7 1_555 1_555
C14_7 C15_7 1_555 1_555
C17_7 N10_7 1_555 1_555
C18_7 N10_7 1_555 1_555
N10_7 C14_7 1_555 1_555
N11_4 C18_7 1_555 1_555
N12_3 C17_7 1_555 1_555
Cu6_3 N11_4 1_555 1_555
Cu7_2 N12_3 1_555 1_555
N11_4 N12_3 1_555 1_555
H1_7 O9_4 1_555 1_555
H2_7 C22_7 1_555 1_555
H3_7 C21_7 1_555 1_555
H4_7 C25_7 1_555 1_555
H5_7 C24_7 1_555 1_555
H6_7 C26_7 1_555 1_555
H7_7 C27_7 1_555 1_555
H8_7 C4_7 1_555 1_555
H9_7 C3_7 1_555 1_555
H10_7 C7_7 1_555 1_555
H11_7 C6_7 1_555 1_555
H12_7 C9_7 1_555 1_555
H13_7 C8_7 1_555 1_555
H15_7 C16_7 1_555 1_555
H16_7 C12_7 1_555 1_555
H20_7 C30_7 1_555 1_555
H21_7 C29_7 1_555 1_555
H22_7 C33_7 1_555 1_555
H23_7 C32_7 1_555 1_555
H24_7 C36_7 1_555 1_555
H25_7 C35_7 1_555 1_555
C2_7 C3_7 1_555 1_555
C3_7 C4_7 1_555 1_555
C4_7 C5_7 1_555 1_555
C5_7 C6_7 1_555 1_555
C6_7 C7_7 1_555 1_555
C7_7 C2_7 1_555 1_555
C8_7 N1_7 1_555 1_555
C9_7 N1_7 1_555 1_555
C10_7 C11_7 1_555 1_555
C11_7 C12_7 1_555 1_555
C16_7 C11_7 1_555 1_555
C19_7 C20_7 1_555 1_555
C20_7 C21_7 1_555 1_555
C21_7 C22_7 1_555 1_555
C22_7 C23_7 1_555 1_555
C23_7 C24_7 1_555 1_555
C24_7 C25_7 1_555 1_555
C25_7 C20_7 1_555 1_555
C26_7 N4_7 1_555 1_555
C27_7 N4_7 1_555 1_555
C28_7 C29_7 1_555 1_555
C29_7 C30_7 1_555 1_555
C30_7 C31_7 1_555 1_555
C31_7 C32_7 1_555 1_555
C32_7 C33_7 1_555 1_555
C33_7 C28_7 1_555 1_555
C34_7 C28_7 1_555 1_555
C35_7 N7_7 1_555 1_555
C36_7 N7_7 1_555 1_555
N1_7 C5_7 1_555 1_555
N2_7 C9_7 1_555 1_555
N3_7 C8_7 1_555 1_555
N4_7 C23_7 1_555 1_555
N5_7 C26_7 1_555 1_555
N6_4 C27_7 1_555 1_555
N7_7 C31_7 1_555 1_555
N8_7 C35_7 1_555 1_555
N9_7 C36_7 1_555 1_555
O3_7 C10_7 1_555 1_555
O4_7 C10_7 1_555 1_555
O5_7 C19_7 1_555 1_555
O6_4 C19_7 1_555 1_555
O7_7 C34_7 1_555 1_555
O11_4 C34_7 1_555 1_555
O9_4 Cu2_7 1_555 1_555
Cu2_7 N2_7 1_555 1_555
Cu7_2 N3_7 1_555 1_555
O10_4 Cu7_2 1_555 1_555
Cu6_3 N6_4 1_555 1_555
Cu8_4 O6_4 1_555 1_555
N2_7 N3_7 1_555 1_555
N5_7 N6_4 1_555 1_555
N5_7 Cu2_7 1_555 1_555
N8_7 N9_7 1_555 1_555
N8_7 Cu2_7 1_555 1_555
N9_7 Cu7_2 1_555 1_555
O3_7 Cu2_7 1_555 1_555
O9_4 Cu7_2 1_555 1_555
O9_4 Cu6_3 1_555 1_555
H1_8 O12_4 1_555 1_555
H6_8 C26_8 1_555 1_555
H8_8 C4_8 1_555 1_555
H9_8 C3_8 1_555 1_555
H10_8 C7_8 1_555 1_555
H11_8 C6_8 1_555 1_555
H12_8 C9_8 1_555 1_555
H13_8 C8_8 1_555 1_555
H14_8 C15_8 1_555 1_555
H15_8 C16_8 1_555 1_555
H16_8 C12_8 1_555 1_555
H17_8 C13_8 1_555 1_555
H18_8 C17_8 1_555 1_555
H19_8 C18_8 1_555 1_555
H20_8 C30_8 1_555 1_555
H21_8 C29_8 1_555 1_555
H25_8 C35_8 1_555 1_555
C1_8 C2_8 1_555 1_555
C2_8 C3_8 1_555 1_555
C3_8 C4_8 1_555 1_555
C4_8 C5_8 1_555 1_555
C5_8 C6_8 1_555 1_555
C6_8 C7_8 1_555 1_555
C7_8 C2_8 1_555 1_555
C8_8 N1_8 1_555 1_555
C9_8 N1_8 1_555 1_555
C10_8 C11_8 1_555 1_555
C11_8 C12_8 1_555 1_555
C12_8 C13_8 1_555 1_555
C13_8 C14_8 1_555 1_555
C14_8 C15_8 1_555 1_555
C15_8 C16_8 1_555 1_555
C16_8 C11_8 1_555 1_555
C17_8 N10_8 1_555 1_555
C18_8 N10_8 1_555 1_555
C26_8 N4_8 1_555 1_555
C27_8 N4_8 1_555 1_555
C28_8 C29_8 1_555 1_555
C29_8 C30_8 1_555 1_555
C30_8 C31_8 1_555 1_555
C31_8 C32_8 1_555 1_555
C35_8 N7_8 1_555 1_555
N1_8 C5_8 1_555 1_555
N2_8 C9_8 1_555 1_555
N3_8 C8_8 1_555 1_555
N5_8 C26_8 1_555 1_555
N13_4 C27_8 1_555 1_555
N7_8 C31_8 1_555 1_555
N8_8 C35_8 1_555 1_555
N10_8 C14_8 1_555 1_555
N14_4 C18_8 1_555 1_555
N12_4 C17_8 1_555 1_555
O1_8 C1_8 1_555 1_555
O2_8 C1_8 1_555 1_555
O3_8 C10_8 1_555 1_555
O4_8 C10_8 1_555 1_555
O12_4 Cu2_8 1_555 1_555
Cu6_3 O1_8 1_555 1_555
Cu2_8 N2_8 1_555 1_555
Cu8_4 N12_4 1_555 1_555
N2_8 N3_8 1_555 1_555
N5_8 N13_4 1_555 1_555
N5_8 Cu2_8 1_555 1_555
N8_8 N9_8 1_555 1_555
N8_8 Cu2_8 1_555 1_555
N14_4 N12_4 1_555 1_555
O3_8 Cu2_8 1_555 1_555
H22_8 C33_8 1_555 1_555
H24_8 C36_8 1_555 1_555
O7_8 C34_8 1_555 1_555
H2_8 C22_8 1_555 1_555
H3_8 C21_8 1_555 1_555
H4_8 C25_8 1_555 1_555
H5_8 C24_8 1_555 1_555
C19_8 C20_8 1_555 1_555
C20_8 C21_8 1_555 1_555
C21_8 C22_8 1_555 1_555
C22_8 C23_8 1_555 1_555
C23_8 C24_8 1_555 1_555
C24_8 C25_8 1_555 1_555
C25_8 C20_8 1_555 1_555
O5_8 C19_8 1_555 1_555
O10_4 C19_8 1_555 1_555

#END
