
###############################################################################
#
# This file contains modified crystal structure data generated from the
# MOF subset of the Cambridge Structural Database (CSD) v543 
# hosted by the Cambridge Crystallographic Data Centre (CCDC).
#
# This work is licensed under the Creative Commons
# Attribution-NonCommercial-ShareAlike 4.0 International License.
# To view a copy of this license, visit
# http://creativecommons.org/licenses/by-nc-sa/4.0/
# or send a letter to
# Creative Commons, PO Box 1866, Mountain View, CA 94042, USA.
#
# CIF created using the CSD Python API on 29 September 2022
# The structure has been converted into the P1 space group
# The structure has a 3D framework
# The original CSD entry QULLEP is in the orthorhombic crystal system
# The framework has been calculated to contain at least 10.0% void space
# The void calculation uses a probe of radius 1.32A, grid spacing 0.4
#
###############################################################################

data_QULLEP
_chemical_formula_moiety         '(C136 H96 Cd4 N8 O24)n'
_symmetry_cell_setting           triclinic
_symmetry_space_group_name_H-M   'P 1'
_symmetry_Int_Tables_number      1
_space_group_name_Hall           'P 1'
loop_
_symmetry_equiv_pos_site_id
_symmetry_equiv_pos_as_xyz
1 x,y,z
_cell_length_a                   12.264(3)
_cell_length_b                   28.899(6)
_cell_length_c                   9.6755(19)
_cell_angle_alpha                90
_cell_angle_beta                 90
_cell_angle_gamma                90
_cell_volume                     3429.16
loop_
_atom_site_label
_atom_site_type_symbol
_atom_site_fract_x
_atom_site_fract_y
_atom_site_fract_z
H14 H 0.0457 0.6956 0.6981
H16 H 0.0543 0.6312 0.8399
Cd3 Cd 0.154490(19) 0.526350(8) 0.99939(6)
Cd1 Cd 0.845510(19) 0.026350(8) 0.49939(6)
O1 O 0.1474(3) 0.47279(11) 0.8374(4)
O2 O 0.6885(4) 0.05397(13) 0.3608(4)
O3 O 0.0136(3) 0.44296(11) 0.9624(3)
O4 O 0.7720(2) 0.10099(10) 0.5012(5)
O5 O 0.3918(3) 0.22991(12) 0.2699(5)
O6 O 0.0934(3) 0.28206(11) 0.5225(5)
N2 N 0.8752(3) 0.03274(12) 0.7371(4)
C1 C 0.6981(4) 0.09309(18) 0.4141(5)
C2 C 0.6193(4) 0.12965(15) 0.3773(5)
C3 C 0.5288(4) 0.11957(16) 0.2948(6)
H1 H 0.5182 0.0896 0.2623
C4 C 0.4544(4) 0.15422(16) 0.2609(6)
H2 H 0.3945 0.1474 0.2056
C5 C 0.4694(4) 0.19875(16) 0.3095(5)
C6 C 0.5583(4) 0.20921(17) 0.3901(6)
H3 H 0.5691 0.2393 0.4216
C7 C 0.6311(4) 0.17484(18) 0.4238(6)
H4 H 0.6904 0.1821 0.4797
C8 C 0.4069(5) 0.27754(18) 0.3112(7)
H5 H 0.4736 0.2900 0.2724
H6 H 0.4101 0.2802 0.4111
C9 C 0.3073(5) 0.30291(16) 0.2540(5)
C10 C 0.2048(4) 0.29909(15) 0.3173(5)
C11 C 0.1170(5) 0.32170(18) 0.2577(6)
H7 H 0.0487 0.3201 0.2992
C12 C 0.1304(5) 0.34685(19) 0.1358(6)
H8 H 0.0707 0.3617 0.0963
C13 C 0.2296(6) 0.34996(19) 0.0742(6)
C14 C 0.3194(5) 0.3290(2) 0.1349(7)
H10 H 0.3881 0.3324 0.0953
C15 C 0.1879(6) 0.27025(19) 0.4461(6)
H11 H 0.1832 0.2379 0.4196
H12 H 0.2511 0.2737 0.5054
C16 C 0.0957(4) 0.32123(15) 0.6038(5)
C17 C 0.1768(4) 0.35423(18) 0.5979(5)
H13 H 0.2361 0.3503 0.5392
C18 C 0.0089(5) 0.32665(18) 0.6940(5)
C19 C 0.1691(3) 0.39342(18) 0.6806(5)
H15 H 0.2225 0.4162 0.6742
C20 C 0.0036(4) 0.36550(17) 0.7786(5)
C21 C 0.0835(3) 0.39929(15) 0.7726(4)
C22 C 0.0793(4) 0.44147(15) 0.8626(4)
C29 C 0.7974(4) 0.02151(17) 0.9648(4)
C31 C 0.9608(5) 0.0658(2) 0.9354(6)
C32 C 0.9539(4) 0.05788(18) 0.7931(5)
C33 C 0.7981(4) 0.01464(14) 0.8195(4)
H14_2 H 0.9543 0.1956 0.1981
H16_2 H 0.9457 0.1312 0.3399
O2_2 O 0.3115(4) 0.55397(13) 0.8608(4)
O5_2 O 0.6082(3) 0.72991(12) 0.7699(5)
C1_2 C 0.3019(4) 0.59309(18) 0.9141(5)
C2_2 C 0.3807(4) 0.62965(15) 0.8773(5)
C3_2 C 0.4712(4) 0.61957(16) 0.7948(6)
H1_2 H 0.4818 0.5896 0.7623
C4_2 C 0.5456(4) 0.65422(16) 0.7609(6)
H2_2 H 0.6055 0.6474 0.7056
C5_2 C 0.5306(4) 0.69875(16) 0.8095(5)
C6_2 C 0.4417(4) 0.70921(17) 0.8901(6)
H3_2 H 0.4309 0.7393 0.9216
C7_2 C 0.3689(4) 0.67484(18) 0.9238(6)
H4_2 H 0.3096 0.6821 0.9797
C8_2 C 0.5931(5) 0.77754(18) 0.8112(7)
H5_2 H 0.5264 0.7900 0.7724
H6_2 H 0.5899 0.7802 0.9111
C9_2 C 0.6927(5) 0.80291(16) 0.7540(5)
C10_2 C 0.7952(4) 0.79909(15) 0.8173(5)
C11_2 C 0.8830(5) 0.82170(18) 0.7577(6)
H7_2 H 0.9513 0.8201 0.7992
C12_2 C 0.8696(5) 0.84685(19) 0.6358(6)
H8_2 H 0.9293 0.8617 0.5963
C13_2 C 0.7704(6) 0.84996(19) 0.5742(6)
H9 H 0.7627 0.8661 0.4917
C14_2 C 0.6806(5) 0.8290(2) 0.6349(7)
H10_2 H 0.6119 0.8324 0.5953
C15_2 C 0.8121(6) 0.77025(19) 0.9461(6)
H11_2 H 0.8168 0.7379 0.9196
H17 H 0.3681 0.4562 0.9649
H20 H 0.4204 0.0366 0.0425
N1 N 0.2887(3) 0.01669(13) 0.6186(4)
C23 C 0.3676(5) 0.0408(2) 0.5606(6)
H17_2 H 0.3681 0.0438 0.4649
C24 C 0.4499(5) 0.0619(2) 0.6362(7)
H18 H 0.5035 0.0791 0.5916
C25 C 0.4514(4) 0.0572(2) 0.7770(7)
H19 H 0.5069 0.0705 0.8290
C26 C 0.3688(4) 0.03207(17) 0.8410(6)
C27 C 0.3662(4) 0.02391(18) 0.9870(12)
C34 C 0.2881(3) 0.01221(14) 0.7576(4)
O7 O 0.1474(3) 0.02721(11) 0.3374(4)
H23 H 0.0179 0.0830 0.9726
H24 H 0.0065 0.0707 0.7356
O8 O 0.0136(3) 0.05704(11) 0.4624(3)
O4_2 O 0.7720(2) 0.39901(10) 0.0012(5)
O6_2 O 0.0934(3) 0.21794(11) 0.0225(5)
N1_2 N 0.7113(3) 0.51669(13) 0.1186(4)
N2_2 N 0.8752(3) 0.46726(12) 0.2371(4)
H12_2 H 0.2511 0.2263 0.0054
C16_2 C 0.0957(4) 0.17877(15) 0.1038(5)
C17_2 C 0.1768(4) 0.14577(18) 0.0979(5)
H13_2 H 0.2361 0.1497 0.0392
C18_2 C 0.0089(5) 0.17335(18) 0.1940(5)
C19_2 C 0.1691(3) 0.10658(18) 0.1806(5)
H15_2 H 0.2225 0.0838 0.1742
C20_2 C 0.0036(4) 0.13450(17) 0.2786(5)
C21_2 C 0.0835(3) 0.10071(15) 0.2726(4)
C22_2 C 0.0793(4) 0.05853(15) 0.3626(4)
C23_2 C 0.6324(5) 0.5408(2) 0.0606(6)
C24_2 C 0.5501(5) 0.5619(2) 0.1362(7)
H18_2 H 0.4965 0.5791 0.0916
C25_2 C 0.5486(4) 0.5572(2) 0.2770(7)
H19_2 H 0.4931 0.5705 0.3290
C26_2 C 0.6312(4) 0.53207(17) 0.3410(6)
C27_2 C 0.6338(4) 0.52391(18) 0.4870(12)
H20_2 H 0.5796 0.5366 0.5425
C28 C 0.7118(5) 0.4986(2) 0.5450(5)
H21 H 0.7106 0.4938 0.6400
C29_2 C 0.7974(4) 0.47849(17) 0.4648(4)
C30 C 0.8816(5) 0.4522(2) 0.5177(7)
H22 H 0.8842 0.4467 0.6124
C31_2 C 0.9608(5) 0.4342(2) 0.4354(6)
C32_2 C 0.9539(4) 0.44212(18) 0.2931(5)
C33_2 C 0.7981(4) 0.48536(14) 0.3195(4)
C34_2 C 0.7119(3) 0.51221(14) 0.2576(4)
C28_2 C 0.2882(5) 0.9986(2) 0.0450(5)
H21_2 H 0.2894 0.9938 0.1400
C30_2 C 0.1184(5) 0.9522(2) 0.0177(7)
H22_2 H 0.1158 0.9467 0.1124
Cd1_2 Cd 0.154490(19) 0.973650(8) 0.49939(6)
O1_2 O 0.8526(3) 0.52721(11) 0.8374(4)
O2_3 O 0.3115(4) 0.94603(13) 0.3608(4)
O3_2 O 0.9864(3) 0.55704(11) 0.9624(3)
O4_3 O 0.2280(2) 0.89901(10) 0.5012(5)
O5_3 O 0.6082(3) 0.77009(12) 0.2699(5)
O6_3 O 0.9066(3) 0.71794(11) 0.5225(5)
N2_3 N 0.1248(3) 0.96726(12) 0.7371(4)
C1_3 C 0.3019(4) 0.90691(18) 0.4141(5)
C2_3 C 0.3807(4) 0.87035(15) 0.3773(5)
C3_3 C 0.4712(4) 0.88043(16) 0.2948(6)
H1_3 H 0.4818 0.9104 0.2623
C4_3 C 0.5456(4) 0.84578(16) 0.2609(6)
H2_3 H 0.6055 0.8526 0.2056
C5_3 C 0.5306(4) 0.80125(16) 0.3095(5)
C6_3 C 0.4417(4) 0.79079(17) 0.3901(6)
H3_3 H 0.4309 0.7607 0.4216
C7_3 C 0.3689(4) 0.82516(18) 0.4238(6)
H4_3 H 0.3096 0.8179 0.4797
C8_3 C 0.5931(5) 0.72246(18) 0.3112(7)
H5_3 H 0.5264 0.7100 0.2724
H6_3 H 0.5899 0.7198 0.4111
C9_3 C 0.6927(5) 0.69709(16) 0.2540(5)
C10_3 C 0.7952(4) 0.70091(15) 0.3173(5)
C11_3 C 0.8830(5) 0.67830(18) 0.2577(6)
H7_3 H 0.9513 0.6799 0.2992
C12_3 C 0.8696(5) 0.65315(19) 0.1358(6)
H8_3 H 0.9293 0.6383 0.0963
C13_3 C 0.7704(6) 0.65004(19) 0.0742(6)
C14_3 C 0.6806(5) 0.6710(2) 0.1349(7)
H10_3 H 0.6119 0.6676 0.0953
C15_3 C 0.8121(6) 0.72975(19) 0.4461(6)
H11_3 H 0.8168 0.7621 0.4196
H12_3 H 0.7489 0.7263 0.5054
C16_3 C 0.9043(4) 0.67877(15) 0.6038(5)
C17_3 C 0.8232(4) 0.64577(18) 0.5979(5)
H13_3 H 0.7639 0.6497 0.5392
C18_3 C 0.9911(5) 0.67335(18) 0.6940(5)
C19_3 C 0.8309(3) 0.60658(18) 0.6806(5)
H15_3 H 0.7775 0.5838 0.6742
C20_3 C 0.9964(4) 0.63450(17) 0.7786(5)
C21_3 C 0.9165(3) 0.60071(15) 0.7726(4)
C22_3 C 0.9207(4) 0.55853(15) 0.8626(4)
C29_3 C 0.2026(4) 0.97849(17) 0.9648(4)
C31_3 C 0.0392(5) 0.9342(2) 0.9354(6)
C32_3 C 0.0461(4) 0.94212(18) 0.7931(5)
C33_3 C 0.2019(4) 0.98536(14) 0.8195(4)
Cd2 Cd 0.845510(19) 0.473650(8) 0.99939(6)
H14_3 H 0.9543 0.3044 0.6981
H16_3 H 0.9457 0.3688 0.8399
O2_4 O 0.6885(4) 0.44603(13) 0.8608(4)
O5_4 O 0.3918(3) 0.27009(12) 0.7699(5)
C1_4 C 0.6981(4) 0.40691(18) 0.9141(5)
C2_4 C 0.6193(4) 0.37035(15) 0.8773(5)
C3_4 C 0.5288(4) 0.38043(16) 0.7948(6)
H1_4 H 0.5182 0.4104 0.7623
C4_4 C 0.4544(4) 0.34578(16) 0.7609(6)
H2_4 H 0.3945 0.3526 0.7056
C5_4 C 0.4694(4) 0.30125(16) 0.8095(5)
C6_4 C 0.5583(4) 0.29079(17) 0.8901(6)
H3_4 H 0.5691 0.2607 0.9216
C7_4 C 0.6311(4) 0.32516(18) 0.9238(6)
H4_4 H 0.6904 0.3179 0.9797
C8_4 C 0.4069(5) 0.22246(18) 0.8112(7)
H5_4 H 0.4736 0.2100 0.7724
H6_4 H 0.4101 0.2198 0.9111
C9_4 C 0.3073(5) 0.19709(16) 0.7540(5)
C10_4 C 0.2048(4) 0.20091(15) 0.8173(5)
C11_4 C 0.1170(5) 0.17830(18) 0.7577(6)
H7_4 H 0.0487 0.1799 0.7992
C12_4 C 0.1304(5) 0.15315(19) 0.6358(6)
H8_4 H 0.0707 0.1383 0.5963
C13_4 C 0.2296(6) 0.15004(19) 0.5742(6)
H9_2 H 0.2373 0.1339 0.4917
C14_4 C 0.3194(5) 0.1710(2) 0.6349(7)
H10_4 H 0.3881 0.1676 0.5953
C15_4 C 0.1879(6) 0.22975(19) 0.9461(6)
H11_4 H 0.1832 0.2621 0.9196
H17_3 H 0.6319 0.5438 0.9649
H14_4 H 0.0457 0.8044 0.1981
H16_4 H 0.0543 0.8688 0.3399
H9_3 H 0.7627 0.6339 0.9917
H23_2 H 0.9821 0.9170 0.9726
H24_2 H 0.9935 0.9293 0.7356
O8_2 O 0.9864(3) 0.94296(11) 0.4624(3)
N1_3 N 0.7113(3) 0.98331(13) 0.6186(4)
C23_3 C 0.6324(5) 0.9592(2) 0.5606(6)
H17_4 H 0.6319 0.9562 0.4649
C24_3 C 0.5501(5) 0.9381(2) 0.6362(7)
H18_3 H 0.4965 0.9209 0.5916
C25_3 C 0.5486(4) 0.9428(2) 0.7770(7)
H19_3 H 0.4931 0.9295 0.8290
C26_3 C 0.6312(4) 0.96793(17) 0.8410(6)
C27_3 C 0.6338(4) 0.97609(18) 0.9870(12)
C34_3 C 0.7119(3) 0.98779(14) 0.7576(4)
O7_2 O 0.8526(3) 0.97279(11) 0.3374(4)
O4_4 O 0.2280(2) 0.60099(10) 0.0012(5)
O6_4 O 0.9066(3) 0.78206(11) 0.0225(5)
N1_4 N 0.2887(3) 0.48331(13) 0.1186(4)
N2_4 N 0.1248(3) 0.53274(12) 0.2371(4)
H12_4 H 0.7489 0.7737 0.0054
C16_4 C 0.9043(4) 0.82123(15) 0.1038(5)
C17_4 C 0.8232(4) 0.85423(18) 0.0979(5)
H13_4 H 0.7639 0.8503 0.0392
C18_4 C 0.9911(5) 0.82665(18) 0.1940(5)
C19_4 C 0.8309(3) 0.89342(18) 0.1806(5)
H15_4 H 0.7775 0.9162 0.1742
C20_4 C 0.9964(4) 0.86550(17) 0.2786(5)
C21_4 C 0.9165(3) 0.89929(15) 0.2726(4)
C22_4 C 0.9207(4) 0.94147(15) 0.3626(4)
C23_4 C 0.3676(5) 0.4592(2) 0.0606(6)
C24_4 C 0.4499(5) 0.4381(2) 0.1362(7)
H18_4 H 0.5035 0.4209 0.0916
C25_4 C 0.4514(4) 0.4428(2) 0.2770(7)
H19_4 H 0.5069 0.4295 0.3290
C26_4 C 0.3688(4) 0.46793(17) 0.3410(6)
C27_4 C 0.3662(4) 0.47609(18) 0.4870(12)
H20_3 H 0.4204 0.4634 0.5425
C28_3 C 0.2882(5) 0.5014(2) 0.5450(5)
H21_3 H 0.2894 0.5062 0.6400
C29_4 C 0.2026(4) 0.52151(17) 0.4648(4)
C30_3 C 0.1184(5) 0.5478(2) 0.5177(7)
H22_3 H 0.1158 0.5533 0.6124
C31_4 C 0.0392(5) 0.5658(2) 0.4354(6)
C32_4 C 0.0461(4) 0.55788(18) 0.2931(5)
C33_4 C 0.2019(4) 0.51464(14) 0.3195(4)
C34_4 C 0.2881(3) 0.48779(14) 0.2576(4)
C28_4 C 0.7118(5) 0.0014(2) 0.0450(5)
H21_4 H 0.7106 0.0062 0.1400
C30_4 C 0.8816(5) 0.0478(2) 0.0177(7)
H22_4 H 0.8842 0.0533 0.1124
H9_4 H 0.2373 0.3661 0.9917
H20_4 H 0.5796 0.9634 0.0425
H23_3 H 0.0179 0.4170 0.4726
H24_3 H 0.0065 0.4293 0.2356
H23_4 H 0.9821 0.5830 0.4726
H24_4 H 0.9935 0.5707 0.2356
loop_
_geom_bond_atom_site_label_1
_geom_bond_atom_site_label_2
_geom_bond_site_symmetry_1
_geom_bond_site_symmetry_2
Cd1 O2 1_555 1_555
O1 C22 1_555 1_555
O2 C1 1_555 1_555
O3 C22 1_555 1_555
O4 Cd1 1_555 1_555
O5 C5 1_555 1_555
O6 C15 1_555 1_555
N2 Cd1 1_555 1_555
C1 O4 1_555 1_555
C2 C1 1_555 1_555
C3 C2 1_555 1_555
H1 C3 1_555 1_555
C4 C3 1_555 1_555
H2 C4 1_555 1_555
C5 C4 1_555 1_555
C6 C5 1_555 1_555
H3 C6 1_555 1_555
C7 C2 1_555 1_555
H4 C7 1_555 1_555
C8 O5 1_555 1_555
H5 C8 1_555 1_555
H6 C8 1_555 1_555
C9 C8 1_555 1_555
C10 C9 1_555 1_555
C11 C10 1_555 1_555
H7 C11 1_555 1_555
C12 C11 1_555 1_555
H8 C12 1_555 1_555
C13 C12 1_555 1_555
C14 C9 1_555 1_555
H10 C14 1_555 1_555
C15 C10 1_555 1_555
H11 C15 1_555 1_555
H12 C15 1_555 1_555
C16 O6 1_555 1_555
C17 C16 1_555 1_555
H13 C17 1_555 1_555
C18 C16 1_555 1_555
C19 C17 1_555 1_555
H15 C19 1_555 1_555
C20 C18 1_555 1_555
C21 C19 1_555 1_555
C22 C21 1_555 1_555
C32 N2 1_555 1_555
C33 N2 1_555 1_555
Cd3 O1 1_555 1_555
C6 C7 1_555 1_555
C13 C14 1_555 1_555
C20 C21 1_555 1_555
C29 C33 1_555 1_555
C31 C32 1_555 1_555
Cd3 O2_2 1_555 1_555
O2_2 C1_2 1_555 1_555
O5_2 C5_2 1_555 1_555
C2_2 C1_2 1_555 1_555
C3_2 C2_2 1_555 1_555
H1_2 C3_2 1_555 1_555
C4_2 C3_2 1_555 1_555
H2_2 C4_2 1_555 1_555
C5_2 C4_2 1_555 1_555
C6_2 C5_2 1_555 1_555
H3_2 C6_2 1_555 1_555
C7_2 C2_2 1_555 1_555
H4_2 C7_2 1_555 1_555
C8_2 O5_2 1_555 1_555
H5_2 C8_2 1_555 1_555
H6_2 C8_2 1_555 1_555
C9_2 C8_2 1_555 1_555
C10_2 C9_2 1_555 1_555
C11_2 C10_2 1_555 1_555
H7_2 C11_2 1_555 1_555
C12_2 C11_2 1_555 1_555
H8_2 C12_2 1_555 1_555
C13_2 C12_2 1_555 1_555
H9 C13_2 1_555 1_555
C14_2 C9_2 1_555 1_555
H10_2 C14_2 1_555 1_555
C15_2 C10_2 1_555 1_555
H11_2 C15_2 1_555 1_555
C6_2 C7_2 1_555 1_555
C13_2 C14_2 1_555 1_555
C23 N1 1_555 1_555
H17_2 C23 1_555 1_555
C24 C23 1_555 1_555
H18 C24 1_555 1_555
C25 C24 1_555 1_555
H19 C25 1_555 1_555
C26 C25 1_555 1_555
C27 C26 1_555 1_555
C34 N1 1_555 1_555
C26 C34 1_555 1_555
O7 C22_2 1_555 1_555
O8 C22_2 1_555 1_555
C16_2 O6_2 1_555 1_555
C17_2 C16_2 1_555 1_555
H13_2 C17_2 1_555 1_555
C18_2 C16_2 1_555 1_555
C19_2 C17_2 1_555 1_555
H15_2 C19_2 1_555 1_555
C20_2 C18_2 1_555 1_555
C21_2 C19_2 1_555 1_555
C22_2 C21_2 1_555 1_555
C23_2 N1_2 1_555 1_555
C24_2 C23_2 1_555 1_555
H18_2 C24_2 1_555 1_555
C25_2 C24_2 1_555 1_555
H19_2 C25_2 1_555 1_555
C26_2 C25_2 1_555 1_555
C27_2 C26_2 1_555 1_555
H20_2 C27_2 1_555 1_555
C28 C27_2 1_555 1_555
H21 C28 1_555 1_555
C29_2 C28 1_555 1_555
C30 C29_2 1_555 1_555
H22 C30 1_555 1_555
C31_2 C30 1_555 1_555
C32_2 N2_2 1_555 1_555
C33_2 N2_2 1_555 1_555
C34_2 N1_2 1_555 1_555
C20_2 C21_2 1_555 1_555
C26_2 C34_2 1_555 1_555
C29_2 C33_2 1_555 1_555
C31_2 C32_2 1_555 1_555
C33_2 C34_2 1_555 1_555
H21_2 C28_2 1_555 1_555
H22_2 C30_2 1_555 1_555
Cd1_2 O2_3 1_555 1_555
O1_2 C22_3 1_555 1_555
O2_3 C1_3 1_555 1_555
O3_2 C22_3 1_555 1_555
O4_3 Cd1_2 1_555 1_555
O5_3 C5_3 1_555 1_555
O6_3 C15_3 1_555 1_555
N2_3 Cd1_2 1_555 1_555
C1_3 O4_3 1_555 1_555
C2_3 C1_3 1_555 1_555
C3_3 C2_3 1_555 1_555
H1_3 C3_3 1_555 1_555
C4_3 C3_3 1_555 1_555
H2_3 C4_3 1_555 1_555
C5_3 C4_3 1_555 1_555
C6_3 C5_3 1_555 1_555
H3_3 C6_3 1_555 1_555
C7_3 C2_3 1_555 1_555
H4_3 C7_3 1_555 1_555
C8_3 O5_3 1_555 1_555
H5_3 C8_3 1_555 1_555
H6_3 C8_3 1_555 1_555
C9_3 C8_3 1_555 1_555
C10_3 C9_3 1_555 1_555
C11_3 C10_3 1_555 1_555
H7_3 C11_3 1_555 1_555
C12_3 C11_3 1_555 1_555
H8_3 C12_3 1_555 1_555
C13_3 C12_3 1_555 1_555
C14_3 C9_3 1_555 1_555
H10_3 C14_3 1_555 1_555
C15_3 C10_3 1_555 1_555
H11_3 C15_3 1_555 1_555
H12_3 C15_3 1_555 1_555
C16_3 O6_3 1_555 1_555
C17_3 C16_3 1_555 1_555
H13_3 C17_3 1_555 1_555
C18_3 C16_3 1_555 1_555
C19_3 C17_3 1_555 1_555
H15_3 C19_3 1_555 1_555
C20_3 C18_3 1_555 1_555
C21_3 C19_3 1_555 1_555
C22_3 C21_3 1_555 1_555
C32_3 N2_3 1_555 1_555
C33_3 N2_3 1_555 1_555
Cd2 O1_2 1_555 1_555
C6_3 C7_3 1_555 1_555
C13_3 C14_3 1_555 1_555
C20_3 C21_3 1_555 1_555
C29_3 C33_3 1_555 1_555
C31_3 C32_3 1_555 1_555
Cd2 O2_4 1_555 1_555
O2_4 C1_4 1_555 1_555
O5_4 C5_4 1_555 1_555
C2_4 C1_4 1_555 1_555
C3_4 C2_4 1_555 1_555
H1_4 C3_4 1_555 1_555
C4_4 C3_4 1_555 1_555
H2_4 C4_4 1_555 1_555
C5_4 C4_4 1_555 1_555
C6_4 C5_4 1_555 1_555
H3_4 C6_4 1_555 1_555
C7_4 C2_4 1_555 1_555
H4_4 C7_4 1_555 1_555
C8_4 O5_4 1_555 1_555
H5_4 C8_4 1_555 1_555
H6_4 C8_4 1_555 1_555
C9_4 C8_4 1_555 1_555
C10_4 C9_4 1_555 1_555
C11_4 C10_4 1_555 1_555
H7_4 C11_4 1_555 1_555
C12_4 C11_4 1_555 1_555
H8_4 C12_4 1_555 1_555
C13_4 C12_4 1_555 1_555
H9_2 C13_4 1_555 1_555
C14_4 C9_4 1_555 1_555
H10_4 C14_4 1_555 1_555
C15_4 C10_4 1_555 1_555
H11_4 C15_4 1_555 1_555
C6_4 C7_4 1_555 1_555
C13_4 C14_4 1_555 1_555
C23_3 N1_3 1_555 1_555
H17_4 C23_3 1_555 1_555
C24_3 C23_3 1_555 1_555
H18_3 C24_3 1_555 1_555
C25_3 C24_3 1_555 1_555
H19_3 C25_3 1_555 1_555
C26_3 C25_3 1_555 1_555
C27_3 C26_3 1_555 1_555
C34_3 N1_3 1_555 1_555
C26_3 C34_3 1_555 1_555
O7_2 C22_4 1_555 1_555
O8_2 C22_4 1_555 1_555
C16_4 O6_4 1_555 1_555
C17_4 C16_4 1_555 1_555
H13_4 C17_4 1_555 1_555
C18_4 C16_4 1_555 1_555
C19_4 C17_4 1_555 1_555
H15_4 C19_4 1_555 1_555
C20_4 C18_4 1_555 1_555
C21_4 C19_4 1_555 1_555
C22_4 C21_4 1_555 1_555
C23_4 N1_4 1_555 1_555
C24_4 C23_4 1_555 1_555
H18_4 C24_4 1_555 1_555
C25_4 C24_4 1_555 1_555
H19_4 C25_4 1_555 1_555
C26_4 C25_4 1_555 1_555
C27_4 C26_4 1_555 1_555
H20_3 C27_4 1_555 1_555
C28_3 C27_4 1_555 1_555
H21_3 C28_3 1_555 1_555
C29_4 C28_3 1_555 1_555
C30_3 C29_4 1_555 1_555
H22_3 C30_3 1_555 1_555
C31_4 C30_3 1_555 1_555
C32_4 N2_4 1_555 1_555
C33_4 N2_4 1_555 1_555
C34_4 N1_4 1_555 1_555
C20_4 C21_4 1_555 1_555
C26_4 C34_4 1_555 1_555
C29_4 C33_4 1_555 1_555
C31_4 C32_4 1_555 1_555
C33_4 C34_4 1_555 1_555
H21_4 C28_4 1_555 1_555
H22_4 C30_4 1_555 1_555

#END
