
###############################################################################
#
# This file contains modified crystal structure data generated from the
# MOF subset of the Cambridge Structural Database (CSD) v543 
# hosted by the Cambridge Crystallographic Data Centre (CCDC).
#
# This work is licensed under the Creative Commons
# Attribution-NonCommercial-ShareAlike 4.0 International License.
# To view a copy of this license, visit
# http://creativecommons.org/licenses/by-nc-sa/4.0/
# or send a letter to
# Creative Commons, PO Box 1866, Mountain View, CA 94042, USA.
#
# CIF created using the CSD Python API on 29 September 2022
# The structure has been converted into the P1 space group
# The structure has a 3D framework
# The original CSD entry QULMOC is in the monoclinic crystal system
# The framework has been calculated to contain at least 10.0% void space
# The void calculation uses a probe of radius 1.32A, grid spacing 0.4
#
###############################################################################

data_QULMOC
_chemical_formula_moiety         '(C128 H128 Co12 N16 O60)n'
_symmetry_cell_setting           triclinic
_symmetry_space_group_name_H-M   'P 1'
_symmetry_Int_Tables_number      1
_space_group_name_Hall           'P 1'
loop_
_symmetry_equiv_pos_site_id
_symmetry_equiv_pos_as_xyz
1 x,y,z
_cell_length_a                   13.41540(10)
_cell_length_b                   13.6371(2)
_cell_length_c                   26.1779(3)
_cell_angle_alpha                90
_cell_angle_beta                 98.1900(10)
_cell_angle_gamma                90
_cell_volume                     4740.33
loop_
_atom_site_label
_atom_site_type_symbol
_atom_site_fract_x
_atom_site_fract_y
_atom_site_fract_z
H28 H 0.106980 0.031027 0.225716
H30 H 0.125176 0.035222 0.328125
O14 O 0.0521(3) 0.6624(3) 0.40643(15)
C27 C 0.1138(5) 0.7162(6) 0.4298(3)
H19 H 0.129421 0.773345 0.413239
N3 N 0.1617(6) 0.7010(6) 0.4774(3)
C28 C 0.1394(9) 0.6177(10) 0.5058(4)
H20 H 0.111699 0.638205 0.535888
H21 H 0.199914 0.580883 0.516017
H22 H 0.091345 0.577414 0.484635
C29 C 0.2410(8) 0.7613(9) 0.5008(4)
H23 H 0.257637 0.808571 0.476147
H24 H 0.298980 0.721615 0.512248
H25 H 0.220274 0.794740 0.529767
O15 O 0.0449(3) 0.8101(3) 0.32358(17)
C30 C 0.0589(4) 0.8462(4) 0.2828(3)
H26 H 0.029566 0.814884 0.252831
N4 N 0.1128(4) 0.9268(4) 0.2772(3)
C31 C 0.1242(6) 0.9627(7) 0.2278(4)
H27 H 0.192747 0.954335 0.222105
H29 H 0.080452 0.927023 0.202105
C32 C 0.1625(7) 0.9772(7) 0.3222(4)
H31 H 0.229361 0.995190 0.316796
H32 H 0.165938 0.934843 0.351701
Co6 Co 0.00491(4) 0.47671(4) 0.76310(2)
Co9 Co 0.03259(4) 0.32147(4) 0.66583(2)
O22 O 0.0747(2) 0.5978(2) 0.29834(12)
Co1 Co 0.50491(4) 0.02329(4) 0.26310(2)
Co2 Co 0.42921(4) 0.42282(4) 0.48990(2)
Co3 Co 0.96741(4) 0.67853(4) 0.33417(2)
C1 C 0.6613(3) 0.2828(3) 0.31606(16)
C2 C 0.6169(3) 0.3112(3) 0.35844(17)
H1 H 0.565799 0.273217 0.368830
C3 C 0.6481(3) 0.3959(3) 0.38541(16)
C4 C 0.7287(3) 0.4497(3) 0.37155(16)
H2 H 0.751511 0.505095 0.390433
C5 C 0.7747(3) 0.4211(3) 0.32980(17)
C6 C 0.7397(3) 0.3390(3) 0.30184(16)
H3 H 0.769000 0.320960 0.273090
C7 C 0.6209(3) 0.1975(3) 0.28378(17)
O1 O 0.5831(2) 0.1271(2) 0.30609(12)
O2 O 0.6239(2) 0.2036(2) 0.23613(12)
C8 C 0.5948(4) 0.4300(4) 0.42867(18)
O3 O 0.5177(3) 0.3839(3) 0.43721(13)
O4 O 0.6299(3) 0.5051(3) 0.45359(13)
C9 C 0.8596(3) 0.4816(3) 0.31435(17)
O5 O 0.8920(2) 0.5501(2) 0.34401(12)
O6 O 0.8886(2) 0.4591(2) 0.27220(12)
C10 C 0.6349(3) 0.3315(3) 0.61879(17)
C11 C 0.5885(3) 0.2510(3) 0.63819(18)
H4 H 0.531975 0.223178 0.618910
C12 C 0.6258(3) 0.2120(3) 0.68581(17)
C13 C 0.7106(3) 0.2534(3) 0.71441(17)
H5 H 0.733518 0.229845 0.747340
C14 C 0.7614(3) 0.3294(3) 0.69423(17)
C15 C 0.7235(3) 0.3683(3) 0.64627(17)
H6 H 0.757510 0.419112 0.632500
C16 C 0.5858(4) 0.3814(4) 0.57061(18)
O7 O 0.5094(3) 0.3409(3) 0.54551(13)
O8 O 0.6235(3) 0.4620(3) 0.55907(13)
C17 C 0.5768(3) 0.1258(3) 0.70769(18)
O9 O 0.5107(2) 0.0781(2) 0.67874(13)
O10 O 0.6035(2) 0.1013(3) 0.75369(14)
C18 C 0.8526(3) 0.3727(3) 0.72532(18)
O11 O 0.9253(2) 0.4022(2) 0.70166(12)
O12 O 0.8575(2) 0.3822(3) 0.77273(13)
N1 N 0.8574(2) 0.7571(3) 0.36858(14)
C19 C 0.8207(3) 0.8441(3) 0.34544(17)
H7 H 0.851289 0.871505 0.319108
C20 C 0.7382(4) 0.8900(3) 0.3617(2)
H8 H 0.713602 0.948240 0.346185
C21 C 0.6924(3) 0.8490(4) 0.4010(2)
H9 H 0.637199 0.879768 0.411881
C22 C 0.7291(4) 0.7620(4) 0.42417(19)
H10 H 0.698482 0.734561 0.450501
C23 C 0.8116(3) 0.7160(3) 0.40794(16)
H11 H 0.836169 0.657825 0.423424
O13 O 0.3093(3) 0.3411(3) 0.46431(16)
C24 C 0.2303(6) 0.3806(6) 0.4426(3)
H12 H 0.215140 0.440399 0.456711
N2 N 0.1652(6) 0.3518(7) 0.4031(3)
C25 C 0.2018(13) 0.2694(13) 0.3698(7)
H13 H 0.221804 0.213482 0.391136
H14 H 0.258227 0.292383 0.354356
H15 H 0.148251 0.251010 0.343198
C26 C 0.0736(6) 0.3993(6) 0.3857(3)
H16 H 0.055223 0.440301 0.412697
H17 H 0.021906 0.351248 0.376375
H18 H 0.081087 0.438859 0.356159
Co4 Co 0.99509(4) 0.52329(4) 0.23690(2)
Co7 Co 0.57079(4) 0.57718(4) 0.51010(2)
Co8 Co 0.53259(4) 0.17853(4) 0.16583(2)
O16 O 0.8761(2) 0.7036(2) 0.26387(12)
O17 O 0.3701(3) 0.4949(3) 0.54641(13)
O19 O 0.3765(3) 0.5380(3) 0.44093(13)
O23 O 0.4253(2) 0.0978(2) 0.20166(12)
O24 O 0.3575(2) 0.1178(3) 0.27273(13)
Co5 Co 0.49509(4) 0.97671(4) 0.73690(2)
O18 O 0.6114(2) 0.9591(2) 0.22780(12)
O20 O 0.4893(2) 0.9219(2) 0.32126(13)
O21 O 0.3965(2) 0.8987(3) 0.24631(14)
O19_2 O 0.1235(3) 0.0380(3) 0.05907(13)
Co2_2 Co 0.07079(4) 0.92282(4) 0.01010(2)
O13_2 O 0.1907(3) 0.8411(3) 0.03569(16)
C24_2 C 0.2697(6) 0.8806(6) 0.0574(3)
H12_2 H 0.284860 0.940399 0.043289
N2_2 N 0.3348(6) 0.8518(7) 0.0969(3)
C25_2 C 0.2982(13) 0.7694(13) 0.1302(7)
H13_2 H 0.278196 0.713482 0.108864
H14_2 H 0.241773 0.792383 0.145644
H15_2 H 0.351749 0.751010 0.156802
C26_2 C 0.4264(6) 0.8993(6) 0.1143(3)
H16_2 H 0.444777 0.940301 0.087303
H17_2 H 0.478094 0.851248 0.123625
H18_2 H 0.418913 0.938859 0.143841
O20_2 O 0.0107(2) 0.4219(2) 0.17874(13)
O21_2 O 0.1035(2) 0.3987(3) 0.25369(14)
O24_2 O 0.1425(2) 0.6178(3) 0.22727(13)
O17_2 O 0.1299(3) 0.9949(3) 0.95359(13)
H2_2 H 0.748489 0.005095 0.109567
O4_2 O 0.8701(3) 0.0051(3) 0.04641(13)
O5_2 O 0.6080(2) 0.0501(2) 0.15599(12)
N1_2 N 0.6426(2) 0.2571(3) 0.13142(14)
C19_2 C 0.6793(3) 0.3441(3) 0.15456(17)
H7_2 H 0.648711 0.371505 0.180892
C20_2 C 0.7618(4) 0.3900(3) 0.1383(2)
H8_2 H 0.786398 0.448240 0.153815
C21_2 C 0.8076(3) 0.3490(4) 0.0990(2)
H9_2 H 0.862801 0.379768 0.088119
C22_2 C 0.7709(4) 0.2620(4) 0.07583(19)
H10_2 H 0.801518 0.234561 0.049499
C23_2 C 0.6884(3) 0.2160(3) 0.09206(16)
H11_2 H 0.663831 0.157825 0.076576
O14_2 O 0.4479(3) 0.1624(3) 0.09357(15)
C27_2 C 0.3862(5) 0.2162(6) 0.0702(3)
H19_2 H 0.370579 0.273345 0.086761
N3_2 N 0.3383(6) 0.2010(6) 0.0226(3)
H22_2 H 0.408655 0.077414 0.015365
H23_2 H 0.242363 0.308571 0.023853
O15_2 O 0.4551(3) 0.3101(3) 0.17642(17)
C30_2 C 0.4411(4) 0.3462(4) 0.2172(3)
H26_2 H 0.470434 0.314884 0.247169
N4_2 N 0.3872(4) 0.4268(4) 0.2228(3)
C31_2 C 0.3758(6) 0.4627(7) 0.2722(4)
H27_2 H 0.307253 0.454335 0.277895
H28_2 H 0.393020 0.531027 0.274284
H29_2 H 0.419548 0.427023 0.297895
C32_2 C 0.3375(7) 0.4772(7) 0.1778(4)
H30_2 H 0.374824 0.535222 0.171875
H31_2 H 0.270639 0.495190 0.183204
H32_2 H 0.334062 0.434843 0.148299
C28_2 C 0.3606(9) 0.1177(10) 0.9942(4)
H20_2 H 0.388301 0.138205 0.964112
H21_2 H 0.300086 0.080883 0.983983
C29_2 C 0.2590(8) 0.2613(9) 0.9992(4)
H24_2 H 0.201020 0.221615 0.987752
H25_2 H 0.279726 0.294740 0.970233
Co7_2 Co 0.92921(4) 0.07718(4) 0.98990(2)
C1_2 C 0.8387(3) 0.7828(3) 0.18394(16)
C2_2 C 0.8831(3) 0.8112(3) 0.14156(17)
H1_2 H 0.934201 0.773217 0.131170
C3_2 C 0.8519(3) 0.8959(3) 0.11459(16)
C4_2 C 0.7713(3) 0.9497(3) 0.12845(16)
C5_2 C 0.7253(3) 0.9211(3) 0.17020(17)
C6_2 C 0.7603(3) 0.8390(3) 0.19816(16)
H3_2 H 0.731000 0.820960 0.226910
C7_2 C 0.8791(3) 0.6975(3) 0.21622(17)
O1_2 O 0.9169(2) 0.6271(2) 0.19391(12)
C8_2 C 0.9052(4) 0.9300(4) 0.07133(18)
O3_2 O 0.9823(3) 0.8839(3) 0.06279(13)
C9_2 C 0.6404(3) 0.9816(3) 0.18565(17)
C10_2 C 0.8651(3) 0.8315(3) 0.88121(17)
C11_2 C 0.9115(3) 0.7510(3) 0.86181(18)
H4_2 H 0.968025 0.723178 0.881090
C12_2 C 0.8742(3) 0.7120(3) 0.81419(17)
C13_2 C 0.7894(3) 0.7534(3) 0.78559(17)
H5_2 H 0.766482 0.729845 0.752660
C14_2 C 0.7386(3) 0.8294(3) 0.80577(17)
C15_2 C 0.7765(3) 0.8683(3) 0.85373(17)
H6_2 H 0.742490 0.919112 0.867500
C16_2 C 0.9142(4) 0.8814(4) 0.92939(18)
O7_2 O 0.9906(3) 0.8409(3) 0.95449(13)
O8_2 O 0.8765(3) 0.9620(3) 0.94093(13)
C17_2 C 0.9232(3) 0.6258(3) 0.79231(18)
O9_2 O 0.9893(2) 0.5781(2) 0.82126(13)
O10_2 O 0.8965(2) 0.6013(3) 0.74631(14)
C18_2 C 0.6474(3) 0.8727(3) 0.77468(18)
O11_2 O 0.5747(2) 0.9022(2) 0.79834(12)
O12_2 O 0.6425(2) 0.8822(3) 0.72727(13)
Co9_2 Co 0.46741(4) 0.82147(4) 0.83417(2)
O18_2 O 0.3886(2) 0.0409(2) 0.77220(12)
C1_3 C 0.3387(3) 0.7172(3) 0.68394(16)
C2_3 C 0.3831(3) 0.6888(3) 0.64156(17)
H1_3 H 0.434201 0.726783 0.631170
C3_3 C 0.3519(3) 0.6041(3) 0.61459(16)
C4_3 C 0.2713(3) 0.5503(3) 0.62845(16)
H2_3 H 0.248489 0.494905 0.609567
C5_3 C 0.2253(3) 0.5789(3) 0.67020(17)
C6_3 C 0.2603(3) 0.6610(3) 0.69816(16)
H3_3 H 0.231000 0.679040 0.726910
C7_3 C 0.3791(3) 0.8025(3) 0.71622(17)
O1_3 O 0.4169(2) 0.8729(2) 0.69391(12)
O2_2 O 0.3761(2) 0.7964(2) 0.76387(12)
C8_3 C 0.4052(4) 0.5700(4) 0.57133(18)
O3_3 O 0.4823(3) 0.6161(3) 0.56279(13)
C9_3 C 0.1404(3) 0.5184(3) 0.68565(17)
O5_3 O 0.1080(2) 0.4499(2) 0.65599(12)
O6_2 O 0.1114(2) 0.5409(2) 0.72780(12)
C10_3 C 0.3651(3) 0.6685(3) 0.38121(17)
C11_3 C 0.4115(3) 0.7490(3) 0.36181(18)
H4_3 H 0.468025 0.776822 0.381090
C12_3 C 0.3742(3) 0.7880(3) 0.31419(17)
C13_3 C 0.2894(3) 0.7466(3) 0.28559(17)
H5_3 H 0.266482 0.770155 0.252660
C14_3 C 0.2386(3) 0.6706(3) 0.30577(17)
C15_3 C 0.2765(3) 0.6317(3) 0.35373(17)
H6_3 H 0.242490 0.580888 0.367500
C16_3 C 0.4142(4) 0.6186(4) 0.42939(18)
O7_3 O 0.4906(3) 0.6591(3) 0.45449(13)
C17_3 C 0.4232(3) 0.8742(3) 0.29231(18)
C18_3 C 0.1474(3) 0.6273(3) 0.27468(18)
N1_3 N 0.1426(2) 0.2429(3) 0.63142(14)
C19_3 C 0.1793(3) 0.1559(3) 0.65456(17)
H7_3 H 0.148711 0.128495 0.680892
C20_3 C 0.2618(4) 0.1100(3) 0.6383(2)
H8_3 H 0.286398 0.051760 0.653815
C21_3 C 0.3076(3) 0.1510(4) 0.5990(2)
H9_3 H 0.362801 0.120232 0.588119
C22_3 C 0.2709(4) 0.2380(4) 0.57583(19)
H10_3 H 0.301518 0.265439 0.549499
C23_3 C 0.1884(3) 0.2840(3) 0.59206(16)
H11_3 H 0.163831 0.342175 0.576576
O13_3 O 0.6907(3) 0.6589(3) 0.53569(16)
C24_3 C 0.7697(6) 0.6194(6) 0.5574(3)
H12_3 H 0.784860 0.559601 0.543289
N2_3 N 0.8348(6) 0.6482(7) 0.5969(3)
C25_3 C 0.7982(13) 0.7306(13) 0.6302(7)
H13_3 H 0.778196 0.786518 0.608864
H14_3 H 0.741773 0.707617 0.645644
H15_3 H 0.851749 0.748990 0.656802
C26_3 C 0.9264(6) 0.6007(6) 0.6143(3)
H16_3 H 0.944777 0.559699 0.587303
H17_3 H 0.978094 0.648752 0.623625
H18_3 H 0.918913 0.561141 0.643841
O16_2 O 0.1239(2) 0.2964(2) 0.73613(12)
O14_3 O 0.9479(3) 0.3376(3) 0.59357(15)
C27_3 C 0.8862(5) 0.2838(6) 0.5702(3)
H19_3 H 0.870579 0.226655 0.586761
N3_3 N 0.8383(6) 0.2990(6) 0.5226(3)
C28_3 C 0.8606(9) 0.3823(10) 0.4942(4)
H20_3 H 0.888301 0.361795 0.464112
H21_3 H 0.800086 0.419117 0.483983
H22_3 H 0.908655 0.422586 0.515365
C29_3 C 0.7590(8) 0.2387(9) 0.4992(4)
H23_3 H 0.742363 0.191429 0.523853
H24_3 H 0.701020 0.278385 0.487752
H25_3 H 0.779726 0.205260 0.470233
O15_3 O 0.9551(3) 0.1899(3) 0.67642(17)
C30_3 C 0.9411(4) 0.1538(4) 0.7172(3)
H26_3 H 0.970434 0.185116 0.747169
N4_3 N 0.8872(4) 0.0732(4) 0.7228(3)
C31_3 C 0.8758(6) 0.0373(7) 0.7722(4)
H27_3 H 0.807253 0.045665 0.777895
H29_3 H 0.919548 0.072977 0.797895
C32_3 C 0.8375(7) 0.0228(7) 0.6778(4)
H31_3 H 0.770639 0.004810 0.683204
H32_3 H 0.834062 0.065157 0.648299
C10_4 C 0.1349(3) 0.1685(3) 0.11879(17)
C11_4 C 0.0885(3) 0.2490(3) 0.13819(18)
H4_4 H 0.031975 0.276822 0.118910
C12_4 C 0.1258(3) 0.2880(3) 0.18581(17)
C13_4 C 0.2106(3) 0.2466(3) 0.21441(17)
H5_4 H 0.233518 0.270155 0.247340
C14_4 C 0.2614(3) 0.1706(3) 0.19423(17)
C15_4 C 0.2235(3) 0.1317(3) 0.14627(17)
H6_4 H 0.257510 0.080888 0.132500
C16_4 C 0.0858(4) 0.1186(4) 0.07061(18)
O7_4 O 0.0094(3) 0.1591(3) 0.04551(13)
C17_4 C 0.0768(3) 0.3742(3) 0.20769(18)
C18_4 C 0.3526(3) 0.1273(3) 0.22532(18)
C1_4 C 0.1613(3) 0.2172(3) 0.81606(16)
C2_4 C 0.1169(3) 0.1888(3) 0.85844(17)
H1_4 H 0.065799 0.226783 0.868830
C3_4 C 0.1481(3) 0.1041(3) 0.88541(16)
C4_4 C 0.2287(3) 0.0503(3) 0.87155(16)
C5_4 C 0.2747(3) 0.0789(3) 0.82980(17)
C6_4 C 0.2397(3) 0.1610(3) 0.80184(16)
H3_4 H 0.269000 0.179040 0.773090
C7_4 C 0.1209(3) 0.3025(3) 0.78378(17)
O1_4 O 0.0831(2) 0.3729(2) 0.80609(12)
C8_4 C 0.0948(4) 0.0700(4) 0.92867(18)
O3_4 O 0.0177(3) 0.1161(3) 0.93721(13)
C9_4 C 0.3596(3) 0.0184(3) 0.81435(17)
C28_4 C 0.6394(9) 0.8823(10) 0.0058(4)
H20_4 H 0.611699 0.861795 0.035888
H21_4 H 0.699914 0.919117 0.016017
C29_4 C 0.7410(8) 0.7387(9) 0.0008(4)
H24_4 H 0.798980 0.778385 0.012248
H25_4 H 0.720274 0.705260 0.029767
H2_4 H 0.251511 0.994905 0.890433
O5_4 O 0.3920(2) 0.9499(2) 0.84401(12)
N1_4 N 0.3574(2) 0.7429(3) 0.86858(14)
C19_4 C 0.3207(3) 0.6559(3) 0.84544(17)
H7_4 H 0.351289 0.628495 0.819108
C20_4 C 0.2382(4) 0.6100(3) 0.8617(2)
H8_4 H 0.213602 0.551760 0.846185
C21_4 C 0.1924(3) 0.6510(4) 0.9010(2)
H9_4 H 0.137199 0.620232 0.911881
C22_4 C 0.2291(4) 0.7380(4) 0.92417(19)
H10_4 H 0.198482 0.765439 0.950501
C23_4 C 0.3116(3) 0.7840(3) 0.90794(16)
H11_4 H 0.336169 0.842175 0.923424
O14_4 O 0.5521(3) 0.8376(3) 0.90643(15)
C27_4 C 0.6138(5) 0.7838(6) 0.9298(3)
H19_4 H 0.629421 0.726655 0.913239
N3_4 N 0.6617(6) 0.7990(6) 0.9774(3)
H22_4 H 0.591345 0.922586 0.984635
H23_4 H 0.757637 0.691429 0.976147
O15_4 O 0.5449(3) 0.6899(3) 0.82358(17)
C30_4 C 0.5589(4) 0.6538(4) 0.7828(3)
H26_4 H 0.529566 0.685116 0.752831
N4_4 N 0.6128(4) 0.5732(4) 0.7772(3)
C31_4 C 0.6242(6) 0.5373(7) 0.7278(4)
H27_4 H 0.692747 0.545665 0.722105
H28_3 H 0.606980 0.468973 0.725716
H29_4 H 0.580452 0.572977 0.702105
C32_4 C 0.6625(7) 0.5228(7) 0.8222(4)
H30_3 H 0.625176 0.464778 0.828125
H31_4 H 0.729361 0.504810 0.816796
H32_4 H 0.665938 0.565157 0.851701
O13_4 O 0.8093(3) 0.1589(3) 0.96431(16)
C24_4 C 0.7303(6) 0.1194(6) 0.9426(3)
H12_4 H 0.715140 0.059601 0.956711
N2_4 N 0.6652(6) 0.1482(7) 0.9031(3)
C25_4 C 0.7018(13) 0.2306(13) 0.8698(7)
H13_4 H 0.721804 0.286518 0.891136
H14_4 H 0.758227 0.207617 0.854356
H15_4 H 0.648251 0.248990 0.843198
C26_4 C 0.5736(6) 0.1007(6) 0.8857(3)
H16_4 H 0.555223 0.059699 0.912697
H17_4 H 0.521906 0.148752 0.876375
H18_4 H 0.581087 0.061141 0.856159
H28_4 H 0.893020 0.968973 0.774284
H30_4 H 0.874824 0.964778 0.671875
loop_
_geom_bond_atom_site_label_1
_geom_bond_atom_site_label_2
_geom_bond_site_symmetry_1
_geom_bond_site_symmetry_2
C27 O14 1_555 1_555
H19 C27 1_555 1_555
N3 C27 1_555 1_555
C28 N3 1_555 1_555
H20 C28 1_555 1_555
H21 C28 1_555 1_555
H22 C28 1_555 1_555
C29 N3 1_555 1_555
H23 C29 1_555 1_555
H24 C29 1_555 1_555
H25 C29 1_555 1_555
C30 O15 1_555 1_555
H26 C30 1_555 1_555
N4 C30 1_555 1_555
C31 N4 1_555 1_555
H27 C31 1_555 1_555
H29 C31 1_555 1_555
C32 N4 1_555 1_555
H31 C32 1_555 1_555
H32 C32 1_555 1_555
Co1 O1 1_555 1_555
Co2 O3 1_555 1_555
Co3 O5 1_555 1_555
C1 C2 1_555 1_555
C2 H1 1_555 1_555
C3 C2 1_555 1_555
C4 C3 1_555 1_555
H2 C4 1_555 1_555
C5 C4 1_555 1_555
C6 C1 1_555 1_555
H3 C6 1_555 1_555
C7 C1 1_555 1_555
O1 C7 1_555 1_555
O2 C7 1_555 1_555
C8 C3 1_555 1_555
O3 C8 1_555 1_555
O4 C8 1_555 1_555
C9 C5 1_555 1_555
O5 C9 1_555 1_555
O6 C9 1_555 1_555
C10 C11 1_555 1_555
C11 H4 1_555 1_555
C12 C11 1_555 1_555
C13 C12 1_555 1_555
H5 C13 1_555 1_555
C14 C13 1_555 1_555
C15 C10 1_555 1_555
H6 C15 1_555 1_555
C16 C10 1_555 1_555
O7 Co2 1_555 1_555
O8 C16 1_555 1_555
C17 C12 1_555 1_555
O9 C17 1_555 1_555
O10 C17 1_555 1_555
C18 C14 1_555 1_555
O11 C18 1_555 1_555
O12 C18 1_555 1_555
N1 Co3 1_555 1_555
C19 N1 1_555 1_555
H7 C19 1_555 1_555
C20 C19 1_555 1_555
H8 C20 1_555 1_555
C21 C20 1_555 1_555
H9 C21 1_555 1_555
C22 C21 1_555 1_555
H10 C22 1_555 1_555
C23 N1 1_555 1_555
H11 C23 1_555 1_555
O13 Co2 1_555 1_555
C24 O13 1_555 1_555
H12 C24 1_555 1_555
N2 C24 1_555 1_555
C25 N2 1_555 1_555
H13 C25 1_555 1_555
H14 C25 1_555 1_555
H15 C25 1_555 1_555
C26 N2 1_555 1_555
H16 C26 1_555 1_555
H17 C26 1_555 1_555
H18 C26 1_555 1_555
Co4 O6 1_555 1_555
Co7 Co2 1_555 1_555
Co8 O2 1_555 1_555
O16 Co3 1_555 1_555
O17 Co2 1_555 1_555
O19 Co2 1_555 1_555
O23 Co1 1_555 1_555
O24 Co1 1_555 1_555
C5 C6 1_555 1_555
O4 Co7 1_555 1_555
C14 C15 1_555 1_555
C16 O7 1_555 1_555
O8 Co7 1_555 1_555
C22 C23 1_555 1_555
Co8 O23 1_555 1_555
O13_2 Co2_2 1_555 1_555
C24_2 O13_2 1_555 1_555
H12_2 C24_2 1_555 1_555
N2_2 C24_2 1_555 1_555
C25_2 N2_2 1_555 1_555
H13_2 C25_2 1_555 1_555
H14_2 C25_2 1_555 1_555
H15_2 C25_2 1_555 1_555
C26_2 N2_2 1_555 1_555
H16_2 C26_2 1_555 1_555
H17_2 C26_2 1_555 1_555
H18_2 C26_2 1_555 1_555
Co8 O5_2 1_555 1_555
N1_2 Co8 1_555 1_555
C19_2 N1_2 1_555 1_555
H7_2 C19_2 1_555 1_555
C20_2 C19_2 1_555 1_555
H8_2 C20_2 1_555 1_555
C21_2 C20_2 1_555 1_555
H9_2 C21_2 1_555 1_555
C22_2 C21_2 1_555 1_555
H10_2 C22_2 1_555 1_555
C23_2 N1_2 1_555 1_555
H11_2 C23_2 1_555 1_555
O14_2 Co8 1_555 1_555
C27_2 O14_2 1_555 1_555
H19_2 C27_2 1_555 1_555
N3_2 C27_2 1_555 1_555
O15_2 Co8 1_555 1_555
C30_2 O15_2 1_555 1_555
H26_2 C30_2 1_555 1_555
N4_2 C30_2 1_555 1_555
C31_2 N4_2 1_555 1_555
H27_2 C31_2 1_555 1_555
H28_2 C31_2 1_555 1_555
H29_2 C31_2 1_555 1_555
C32_2 N4_2 1_555 1_555
H30_2 C32_2 1_555 1_555
H31_2 C32_2 1_555 1_555
H32_2 C32_2 1_555 1_555
C22_2 C23_2 1_555 1_555
H20_2 C28_2 1_555 1_555
H21_2 C28_2 1_555 1_555
H24_2 C29_2 1_555 1_555
H25_2 C29_2 1_555 1_555
Co4 O1_2 1_555 1_555
C1_2 C2_2 1_555 1_555
C2_2 H1_2 1_555 1_555
C3_2 C2_2 1_555 1_555
C4_2 C3_2 1_555 1_555
C5_2 C4_2 1_555 1_555
C6_2 C1_2 1_555 1_555
H3_2 C6_2 1_555 1_555
C7_2 C1_2 1_555 1_555
O1_2 C7_2 1_555 1_555
O16 C7_2 1_555 1_555
C8_2 C3_2 1_555 1_555
O3_2 C8_2 1_555 1_555
C9_2 C5_2 1_555 1_555
O18 C9_2 1_555 1_555
C5_2 C6_2 1_555 1_555
C10_2 C11_2 1_555 1_555
C11_2 H4_2 1_555 1_555
C12_2 C11_2 1_555 1_555
C13_2 C12_2 1_555 1_555
H5_2 C13_2 1_555 1_555
C14_2 C13_2 1_555 1_555
C15_2 C10_2 1_555 1_555
H6_2 C15_2 1_555 1_555
C16_2 C10_2 1_555 1_555
O8_2 C16_2 1_555 1_555
C17_2 C12_2 1_555 1_555
O9_2 C17_2 1_555 1_555
O10_2 C17_2 1_555 1_555
C18_2 C14_2 1_555 1_555
O11_2 C18_2 1_555 1_555
O12_2 C18_2 1_555 1_555
Co5 O11_2 1_555 1_555
Co9_2 O11_2 1_555 1_555
C14_2 C15_2 1_555 1_555
C16_2 O7_2 1_555 1_555
O12_2 Co5 1_555 1_555
Co5 O1_3 1_555 1_555
Co7 O3_3 1_555 1_555
Co9 O5_3 1_555 1_555
C1_3 C2_3 1_555 1_555
C2_3 H1_3 1_555 1_555
C3_3 C2_3 1_555 1_555
C4_3 C3_3 1_555 1_555
H2_3 C4_3 1_555 1_555
C5_3 C4_3 1_555 1_555
C6_3 C1_3 1_555 1_555
H3_3 C6_3 1_555 1_555
C7_3 C1_3 1_555 1_555
O1_3 C7_3 1_555 1_555
O2_2 C7_3 1_555 1_555
C8_3 C3_3 1_555 1_555
O3_3 C8_3 1_555 1_555
O17 C8_3 1_555 1_555
C9_3 C5_3 1_555 1_555
O5_3 C9_3 1_555 1_555
O6_2 C9_3 1_555 1_555
C10_3 C11_3 1_555 1_555
C11_3 H4_3 1_555 1_555
C12_3 C11_3 1_555 1_555
C13_3 C12_3 1_555 1_555
H5_3 C13_3 1_555 1_555
C14_3 C13_3 1_555 1_555
C15_3 C10_3 1_555 1_555
H6_3 C15_3 1_555 1_555
C16_3 C10_3 1_555 1_555
O7_3 Co7 1_555 1_555
O19 C16_3 1_555 1_555
C17_3 C12_3 1_555 1_555
O20 C17_3 1_555 1_555
O21 C17_3 1_555 1_555
C18_3 C14_3 1_555 1_555
O22 C18_3 1_555 1_555
O24_2 C18_3 1_555 1_555
N1_3 Co9 1_555 1_555
C19_3 N1_3 1_555 1_555
H7_3 C19_3 1_555 1_555
C20_3 C19_3 1_555 1_555
H8_3 C20_3 1_555 1_555
C21_3 C20_3 1_555 1_555
H9_3 C21_3 1_555 1_555
C22_3 C21_3 1_555 1_555
H10_3 C22_3 1_555 1_555
C23_3 N1_3 1_555 1_555
H11_3 C23_3 1_555 1_555
O13_3 Co7 1_555 1_555
C24_3 O13_3 1_555 1_555
H12_3 C24_3 1_555 1_555
N2_3 C24_3 1_555 1_555
C25_3 N2_3 1_555 1_555
H13_3 C25_3 1_555 1_555
H14_3 C25_3 1_555 1_555
H15_3 C25_3 1_555 1_555
C26_3 N2_3 1_555 1_555
H16_3 C26_3 1_555 1_555
H17_3 C26_3 1_555 1_555
H18_3 C26_3 1_555 1_555
Co6 O6_2 1_555 1_555
Co9_2 O2_2 1_555 1_555
O16_2 Co9 1_555 1_555
C5_3 C6_3 1_555 1_555
C14_3 C15_3 1_555 1_555
C16_3 O7_3 1_555 1_555
C22_3 C23_3 1_555 1_555
C27_3 O14_3 1_555 1_555
H19_3 C27_3 1_555 1_555
N3_3 C27_3 1_555 1_555
C28_3 N3_3 1_555 1_555
H20_3 C28_3 1_555 1_555
H21_3 C28_3 1_555 1_555
H22_3 C28_3 1_555 1_555
C29_3 N3_3 1_555 1_555
H23_3 C29_3 1_555 1_555
H24_3 C29_3 1_555 1_555
H25_3 C29_3 1_555 1_555
C30_3 O15_3 1_555 1_555
H26_3 C30_3 1_555 1_555
N4_3 C30_3 1_555 1_555
C31_3 N4_3 1_555 1_555
H27_3 C31_3 1_555 1_555
H29_3 C31_3 1_555 1_555
C32_3 N4_3 1_555 1_555
H31_3 C32_3 1_555 1_555
H32_3 C32_3 1_555 1_555
C10_4 C11_4 1_555 1_555
C11_4 H4_4 1_555 1_555
C12_4 C11_4 1_555 1_555
C13_4 C12_4 1_555 1_555
H5_4 C13_4 1_555 1_555
C14_4 C13_4 1_555 1_555
C15_4 C10_4 1_555 1_555
H6_4 C15_4 1_555 1_555
C16_4 C10_4 1_555 1_555
O19_2 C16_4 1_555 1_555
C17_4 C12_4 1_555 1_555
O20_2 C17_4 1_555 1_555
O21_2 C17_4 1_555 1_555
C18_4 C14_4 1_555 1_555
O23 C18_4 1_555 1_555
O24 C18_4 1_555 1_555
C14_4 C15_4 1_555 1_555
C16_4 O7_4 1_555 1_555
Co6 O1_4 1_555 1_555
C1_4 C2_4 1_555 1_555
C2_4 H1_4 1_555 1_555
C3_4 C2_4 1_555 1_555
C4_4 C3_4 1_555 1_555
C5_4 C4_4 1_555 1_555
C6_4 C1_4 1_555 1_555
H3_4 C6_4 1_555 1_555
C7_4 C1_4 1_555 1_555
O1_4 C7_4 1_555 1_555
O16_2 C7_4 1_555 1_555
C8_4 C3_4 1_555 1_555
O3_4 C8_4 1_555 1_555
C9_4 C5_4 1_555 1_555
O18_2 C9_4 1_555 1_555
C5_4 C6_4 1_555 1_555
H20_4 C28_4 1_555 1_555
H21_4 C28_4 1_555 1_555
H24_4 C29_4 1_555 1_555
H25_4 C29_4 1_555 1_555
Co9_2 O5_4 1_555 1_555
N1_4 Co9_2 1_555 1_555
C19_4 N1_4 1_555 1_555
H7_4 C19_4 1_555 1_555
C20_4 C19_4 1_555 1_555
H8_4 C20_4 1_555 1_555
C21_4 C20_4 1_555 1_555
H9_4 C21_4 1_555 1_555
C22_4 C21_4 1_555 1_555
H10_4 C22_4 1_555 1_555
C23_4 N1_4 1_555 1_555
H11_4 C23_4 1_555 1_555
O14_4 Co9_2 1_555 1_555
C27_4 O14_4 1_555 1_555
H19_4 C27_4 1_555 1_555
N3_4 C27_4 1_555 1_555
O15_4 Co9_2 1_555 1_555
C30_4 O15_4 1_555 1_555
H26_4 C30_4 1_555 1_555
N4_4 C30_4 1_555 1_555
C31_4 N4_4 1_555 1_555
H27_4 C31_4 1_555 1_555
H28_3 C31_4 1_555 1_555
H29_4 C31_4 1_555 1_555
C32_4 N4_4 1_555 1_555
H30_3 C32_4 1_555 1_555
H31_4 C32_4 1_555 1_555
H32_4 C32_4 1_555 1_555
C22_4 C23_4 1_555 1_555
O13_4 Co7_2 1_555 1_555
C24_4 O13_4 1_555 1_555
H12_4 C24_4 1_555 1_555
N2_4 C24_4 1_555 1_555
C25_4 N2_4 1_555 1_555
H13_4 C25_4 1_555 1_555
H14_4 C25_4 1_555 1_555
H15_4 C25_4 1_555 1_555
C26_4 N2_4 1_555 1_555
H16_4 C26_4 1_555 1_555
H17_4 C26_4 1_555 1_555
H18_4 C26_4 1_555 1_555

#END
