
###############################################################################
#
# This file contains modified crystal structure data generated from the
# MOF subset of the Cambridge Structural Database (CSD) v543 
# hosted by the Cambridge Crystallographic Data Centre (CCDC).
#
# This work is licensed under the Creative Commons
# Attribution-NonCommercial-ShareAlike 4.0 International License.
# To view a copy of this license, visit
# http://creativecommons.org/licenses/by-nc-sa/4.0/
# or send a letter to
# Creative Commons, PO Box 1866, Mountain View, CA 94042, USA.
#
# CIF created using the CSD Python API on 29 September 2022
# The structure has been converted into the P1 space group
# The structure has a 3D framework
# The original CSD entry QULMIU is in the rhombohedral crystal system
# The framework has been calculated to contain at least 10.0% void space
# The void calculation uses a probe of radius 1.32A, grid spacing 0.4
# H atom positions have been added when not included in the experimental data
#
###############################################################################

data_QULMIU
_chemical_formula_moiety         '(C144 H140 In18 N18 O82)n'
_symmetry_cell_setting           triclinic
_symmetry_space_group_name_H-M   'P 1'
_symmetry_Int_Tables_number      1
_space_group_name_Hall           'P 1'
loop_
_symmetry_equiv_pos_site_id
_symmetry_equiv_pos_as_xyz
1 x,y,z
_cell_length_a                   29.411(10)
_cell_length_b                   29.411(10)
_cell_length_c                   8.116(3)
_cell_angle_alpha                90
_cell_angle_beta                 90
_cell_angle_gamma                120
_cell_volume                     6079.84
loop_
_atom_site_label
_atom_site_type_symbol
_atom_site_fract_x
_atom_site_fract_y
_atom_site_fract_z
H1 H 0.1819 0.2267 0.0114
In4 In 0.279123(13) 0.289554(13) 0.06552(4)
In1 In 0.054210(13) 0.377113(13) 0.60115(4)
O1 O 0.07682(14) 0.31772(14) 0.6286(4)
O2 O 0.06319(14) 0.28222(14) 0.8821(4)
O3 O 0.24308(13) 0.27994(14) 0.3076(4)
O4 O 0.16026(16) 0.2461(2) 0.2295(5)
O5 O 0.01642(13) 0.35387(13) 0.8301(4)
H2 H 0.2009 0.1998 0.9020
H3 H 0.0016 0.3699 0.8802
N1 N 0.20400(16) 0.22966(17) 0.9328(5)
C1 C 0.08590(19) 0.29388(19) 0.7418(6)
C2 C 0.12560(18) 0.27746(18) 0.7062(6)
C3 C 0.14205(19) 0.2785(2) 0.5467(6)
H4 H 0.1279 0.2887 0.4617
C4 C 0.17943(19) 0.2646(2) 0.5120(6)
C5 C 0.1946(2) 0.2630(2) 0.3359(6)
C6 C 0.20133(19) 0.2497(2) 0.6407(6)
H5 H 0.2277 0.2419 0.6193
C7 C 0.18309(18) 0.24689(19) 0.7994(6)
C8 C 0.14536(19) 0.2604(2) 0.8338(6)
H6 H 0.1332 0.2581 0.9409
O6 O 0.05111(14) 0.44764(20) 0.5488(4)
O7 O 0.09025(13) 0.38673(14) 0.3591(4)
H7 H 0.1514 0.4400 0.6553
H8 H 0.1324 0.4669 0.7647
N2 N 0.12933(16) 0.43701(17) 0.7339(5)
H10 H 0.135029 0.419466 0.833173
In2 In 0.989570(18) 0.279123(13) 0.93448(4)
O8 O 0.97946(13) 0.32922(18) 0.4968(4)
H9 H 0.9634 0.2984 0.5469
H11 H 0.983407 0.323965 0.377891
H2_2 H 0.8002 0.0011 0.9020
H1_2 H 0.7733 0.9552 0.0114
In4_2 In 0.710446(13) 0.989570(18) 0.06552(4)
In1_2 In 0.622887(13) 0.677097(18) 0.60115(4)
O1_2 O 0.68228(14) 0.75910(20) 0.6286(4)
O2_2 O 0.71778(14) 0.78097(20) 0.8821(4)
O3_2 O 0.72006(14) 0.96314(19) 0.3076(4)
O4_2 O 0.7539(2) 0.91416(26) 0.2295(5)
O5_2 O 0.64613(13) 0.66255(18) 0.8301(4)
H3_2 H 0.6301 0.6317 0.8802
N1_2 N 0.77034(17) 0.97434(23) 0.9328(5)
C1_2 C 0.70612(19) 0.79202(27) 0.7418(6)
C2_2 C 0.72254(18) 0.84814(25) 0.7062(6)
C3_2 C 0.7215(2) 0.86355(28) 0.5467(6)
H4_2 H 0.7113 0.8392 0.4617
C4_2 C 0.7354(2) 0.91483(28) 0.5120(6)
C5_2 C 0.7370(2) 0.9316(3) 0.3359(6)
C6_2 C 0.7503(2) 0.95163(28) 0.6407(6)
H5_2 H 0.7581 0.9858 0.6193
C7_2 C 0.75311(19) 0.93620(26) 0.7994(6)
C8_2 C 0.7396(2) 0.88496(28) 0.8338(6)
H6_2 H 0.7419 0.8751 0.9409
In2_2 In 0.720877(13) 0.710446(22) 0.93448(4)
O6_2 O 0.55236(20) 0.60348(24) 0.5488(4)
O7_2 O 0.61327(14) 0.70353(19) 0.3591(4)
O8_2 O 0.67078(18) 0.65025(22) 0.4968(4)
H7_2 H 0.5600 0.7115 0.6553
H8_2 H 0.5331 0.6656 0.7647
H9_2 H 0.7016 0.6651 0.5469
N2_2 N 0.56299(17) 0.69233(23) 0.7339(5)
H10_2 H 0.580534 0.715563 0.833173
H11_2 H 0.676035 0.659442 0.377891
In2_3 In 0.289554(22) 0.010430(18) 0.93448(4)
O8_3 O 0.34975(22) 0.02054(13) 0.4968(4)
H9_3 H 0.3349 0.0366 0.5469
H11_3 H 0.340558 0.0165933 0.377891
H1_3 H 0.0448 0.8181 0.0114
In4_3 In 0.010430(18) 0.720877(13) 0.06552(4)
In1_3 In 0.322903(18) 0.945790(13) 0.60115(4)
O1_3 O 0.24090(20) 0.92318(14) 0.6286(4)
O2_3 O 0.21903(20) 0.93681(14) 0.8821(4)
O3_3 O 0.03686(19) 0.75692(13) 0.3076(4)
O4_3 O 0.08584(26) 0.83974(16) 0.2295(5)
O5_3 O 0.33745(18) 0.98358(13) 0.8301(4)
H3_3 H 0.3683 0.9984 0.8802
N1_3 N 0.02566(23) 0.79600(16) 0.9328(5)
C1_3 C 0.20798(27) 0.91410(19) 0.7418(6)
C2_3 C 0.15186(25) 0.87440(18) 0.7062(6)
C3_3 C 0.13645(28) 0.85795(19) 0.5467(6)
H4_3 H 0.1608 0.8721 0.4617
C4_3 C 0.08517(28) 0.82057(19) 0.5120(6)
C5_3 C 0.0684(3) 0.8054(2) 0.3359(6)
C6_3 C 0.04837(28) 0.79867(19) 0.6407(6)
H5_3 H 0.0142 0.7723 0.6193
C7_3 C 0.06380(26) 0.81691(18) 0.7994(6)
C8_3 C 0.11504(28) 0.85464(19) 0.8338(6)
H6_3 H 0.1249 0.8668 0.9409
O6_3 O 0.39652(24) 0.94889(14) 0.5488(4)
O7_3 O 0.29647(19) 0.90975(13) 0.3591(4)
H7_3 H 0.2885 0.8486 0.6553
H8_3 H 0.3344 0.8676 0.7647
N2_3 N 0.30767(23) 0.87067(16) 0.7339(5)
H10_3 H 0.284437 0.864971 0.833173
H2_3 H 0.9989 0.7991 0.9020
O2_4 O 0.72986(14) 0.61555(14) 0.2154(4)
O5_4 O 0.68309(13) 0.68720(13) 0.1634(4)
H1_4 H 0.8486 0.5600 0.3447
H2_4 H 0.8676 0.5331 0.2353
H3_4 H 0.6683 0.7032 0.2135
N1_4 N 0.87067(16) 0.56299(17) 0.2661(5)
C1_4 C 0.75257(19) 0.62721(19) 0.0751(6)
C2_4 C 0.79227(18) 0.61079(18) 0.0395(6)
C7_4 C 0.84976(18) 0.58022(19) 0.1327(6)
C8_4 C 0.81203(19) 0.5937(2) 0.1671(6)
H6_4 H 0.7999 0.5914 0.2742
In2_4 In 0.656236(18) 0.612457(13) 0.26782(4)
In4_4 In 0.945790(13) 0.622887(13) 0.39885(4)
H8_4 H 0.7991 0.8002 0.0980
N2_4 N 0.79600(16) 0.77034(17) 0.0672(5)
H10_4 H 0.801696 0.752799 0.166507
O1_4 O 0.74349(14) 0.65105(14) 0.9619(4)
O3_4 O 0.90975(13) 0.61327(14) 0.6409(4)
O4_4 O 0.82693(16) 0.5794(2) 0.5628(5)
C3_4 C 0.80872(19) 0.6118(2) 0.8800(6)
H4_4 H 0.7946 0.6220 0.7950
C4_4 C 0.84610(19) 0.5979(2) 0.8453(6)
C5_4 C 0.8613(2) 0.5963(2) 0.6692(6)
C6_4 C 0.86800(19) 0.5830(2) 0.9740(6)
H5_4 H 0.8944 0.5752 0.9526
O7_4 O 0.75692(13) 0.72006(14) 0.6924(4)
H7_4 H 0.8181 0.7733 0.9886
H11_4 H 0.650073 0.657298 0.711224
O2_5 O 0.38445(14) 0.11430(20) 0.2154(4)
H1_5 H 0.4400 0.2885 0.3447
H2_5 H 0.4669 0.3344 0.2353
N1_5 N 0.43701(17) 0.30767(23) 0.2661(5)
C1_5 C 0.37279(19) 0.12535(27) 0.0751(6)
C2_5 C 0.38921(18) 0.18147(25) 0.0395(6)
C7_5 C 0.41978(19) 0.26953(26) 0.1327(6)
C8_5 C 0.4063(2) 0.21829(28) 0.1671(6)
H6_5 H 0.4086 0.2084 0.2742
In2_5 In 0.387543(13) 0.043780(22) 0.26782(4)
In4_5 In 0.377113(13) 0.322903(18) 0.39885(4)
N2_5 N 0.22966(17) 0.02566(23) 0.0672(5)
H10_5 H 0.247201 0.0488966 0.166507
O1_5 O 0.34895(14) 0.09243(20) 0.9619(4)
O3_5 O 0.38673(14) 0.29647(19) 0.6409(4)
O4_5 O 0.4206(2) 0.24749(26) 0.5628(5)
C3_5 C 0.3882(2) 0.19688(28) 0.8800(6)
H4_5 H 0.3780 0.1725 0.7950
C4_5 C 0.4021(2) 0.24816(28) 0.8453(6)
C5_5 C 0.4037(2) 0.2649(3) 0.6692(6)
C6_5 C 0.4170(2) 0.28496(28) 0.9740(6)
H5_5 H 0.4248 0.3191 0.9526
O7_5 O 0.27994(14) 0.03686(19) 0.6924(4)
H7_5 H 0.2267 0.0448 0.9886
O5_5 O 0.31280(13) 0.99588(18) 0.1634(4)
H3_5 H 0.2968 0.9650 0.2135
H8_5 H 0.1998 0.9989 0.0980
H11_5 H 0.342702 0.992775 0.711224
O5_6 O 0.00412(18) 0.31691(13) 0.1634(4)
H3_6 H 0.0350 0.3317 0.2135
H8_6 H 0.0011 0.2009 0.0980
H11_6 H 0.00722493 0.349927 0.711224
O2_6 O 0.88570(20) 0.27014(14) 0.2154(4)
H1_6 H 0.7115 0.1514 0.3447
H2_6 H 0.6656 0.1324 0.2353
N1_6 N 0.69233(23) 0.12933(16) 0.2661(5)
C1_6 C 0.87465(27) 0.24743(19) 0.0751(6)
C2_6 C 0.81853(25) 0.20773(18) 0.0395(6)
C7_6 C 0.73047(26) 0.15024(18) 0.1327(6)
C8_6 C 0.78171(28) 0.18797(19) 0.1671(6)
H6_6 H 0.7916 0.2001 0.2742
In2_6 In 0.956220(22) 0.343764(18) 0.26782(4)
In4_6 In 0.677097(18) 0.054210(13) 0.39885(4)
N2_6 N 0.97434(23) 0.20400(16) 0.0672(5)
H10_6 H 0.951103 0.198304 0.166507
O1_6 O 0.90757(20) 0.25651(14) 0.9619(4)
O3_6 O 0.70353(19) 0.09025(13) 0.6409(4)
O4_6 O 0.75251(26) 0.17307(16) 0.5628(5)
C3_6 C 0.80312(28) 0.19128(19) 0.8800(6)
H4_6 H 0.8275 0.2054 0.7950
C4_6 C 0.75184(28) 0.15390(19) 0.8453(6)
C5_6 C 0.7351(3) 0.1387(2) 0.6692(6)
C6_6 C 0.71504(28) 0.13200(19) 0.9740(6)
H5_6 H 0.6809 0.1056 0.9526
O7_6 O 0.96314(19) 0.24308(13) 0.6924(4)
H7_6 H 0.9552 0.1819 0.9886
O7_7 O 0.42359(13) 0.05339(14) 0.0257(4)
H7_7 H 0.4848 0.1066 0.3219
H8_7 H 0.4658 0.1335 0.4313
N2_7 N 0.46267(16) 0.10367(17) 0.4005(5)
H10_7 H 0.468362 0.0861323 0.49984
O1_7 O 0.41015(14) 0.98439(14) 0.2953(4)
H1_7 H 0.5152 0.8934 0.6781
H2_7 H 0.5342 0.8665 0.5687
N1_7 N 0.53733(16) 0.89633(17) 0.5995(5)
C1_7 C 0.41923(19) 0.96055(19) 0.4085(6)
C2_7 C 0.45893(18) 0.94413(18) 0.3729(6)
C3_7 C 0.47538(19) 0.9452(2) 0.2134(6)
H4_7 H 0.4612 0.9554 0.1284
C4_7 C 0.51276(19) 0.9313(2) 0.1787(6)
C5_7 C 0.5279(2) 0.9297(2) 0.0026(6)
C6_7 C 0.53466(19) 0.9164(2) 0.3074(6)
H5_7 H 0.5610 0.9086 0.2860
C7_7 C 0.51642(18) 0.91356(19) 0.4661(6)
C8_7 C 0.47869(19) 0.9271(2) 0.5005(6)
H6_7 H 0.4665 0.9248 0.6076
In4_7 In 0.612457(13) 0.956220(13) 0.73218(4)
H11_7 H 0.31674 0.990632 0.0445578
O3_7 O 0.57641(13) 0.94661(14) 0.9743(4)
O4_7 O 0.49359(16) 0.9128(2) 0.8962(5)
O1_8 O 0.01561(14) 0.42577(20) 0.2953(4)
H1_8 H 0.1066 0.6219 0.6781
H2_8 H 0.1335 0.6678 0.5687
N1_8 N 0.10367(17) 0.64101(23) 0.5995(5)
C1_8 C 0.03945(19) 0.45869(27) 0.4085(6)
C2_8 C 0.05587(18) 0.51481(25) 0.3729(6)
C3_8 C 0.0548(2) 0.53022(28) 0.2134(6)
H4_8 H 0.0446 0.5059 0.1284
C4_8 C 0.0687(2) 0.58150(28) 0.1787(6)
C5_8 C 0.0703(2) 0.5983(3) 0.0026(6)
C6_8 C 0.0836(2) 0.61830(28) 0.3074(6)
H5_8 H 0.0914 0.6525 0.2860
C7_8 C 0.08644(19) 0.60287(26) 0.4661(6)
C8_8 C 0.0729(2) 0.55163(28) 0.5005(6)
H6_8 H 0.0752 0.5418 0.6076
In4_8 In 0.043780(13) 0.656236(18) 0.73218(4)
H11_8 H 0.00936839 0.326108 0.0445578
O3_8 O 0.05339(14) 0.62981(19) 0.9743(4)
O4_8 O 0.0872(2) 0.58083(26) 0.8962(5)
O7_8 O 0.94661(14) 0.37019(19) 0.0257(4)
H7_8 H 0.8934 0.3781 0.3219
H8_8 H 0.8665 0.3322 0.4313
N2_8 N 0.89633(17) 0.35899(23) 0.4005(5)
H10_8 H 0.913868 0.38223 0.49984
O1_9 O 0.57423(20) 0.58985(14) 0.2953(4)
H1_9 H 0.3781 0.4848 0.6781
H2_9 H 0.3322 0.4658 0.5687
N1_9 N 0.35899(23) 0.46267(16) 0.5995(5)
C1_9 C 0.54131(27) 0.58077(19) 0.4085(6)
C2_9 C 0.48519(25) 0.54107(18) 0.3729(6)
C3_9 C 0.46978(28) 0.52462(19) 0.2134(6)
H4_9 H 0.4941 0.5388 0.1284
C4_9 C 0.41850(28) 0.48724(19) 0.1787(6)
C5_9 C 0.4017(3) 0.4721(2) 0.0026(6)
C6_9 C 0.38170(28) 0.46534(19) 0.3074(6)
H5_9 H 0.3475 0.4390 0.2860
C7_9 C 0.39713(26) 0.48358(18) 0.4661(6)
C8_9 C 0.44837(28) 0.52131(19) 0.5005(6)
H6_9 H 0.4582 0.5335 0.6076
In4_9 In 0.343764(18) 0.387543(13) 0.73218(4)
O7_9 O 0.62981(19) 0.57641(13) 0.0257(4)
H7_9 H 0.6219 0.5152 0.3219
H8_9 H 0.6678 0.5342 0.4313
N2_9 N 0.64101(23) 0.53733(16) 0.4005(5)
H10_9 H 0.61777 0.531638 0.49984
H11_9 H 0.673892 0.68326 0.0445578
O3_9 O 0.37019(19) 0.42359(13) 0.9743(4)
O4_9 O 0.41917(26) 0.50641(16) 0.8962(5)
O8_4 O 0.02054(13) 0.67078(18) 0.5032(4)
H9_4 H 0.0366 0.7016 0.4531
H11_10 H 0.0165933 0.676035 0.622109
O1_10 O 0.92318(14) 0.68228(14) 0.3714(4)
O2_7 O 0.93681(14) 0.71778(14) 0.1179(4)
O4_10 O 0.83974(16) 0.7539(2) 0.7705(5)
O5_7 O 0.98358(13) 0.64613(13) 0.1699(4)
H3_7 H 0.9984 0.6301 0.1198
C1_10 C 0.91410(19) 0.70612(19) 0.2582(6)
C2_10 C 0.87440(18) 0.72254(18) 0.2938(6)
C3_10 C 0.85795(19) 0.7215(2) 0.4533(6)
H4_10 H 0.8721 0.7113 0.5383
C4_10 C 0.82057(19) 0.7354(2) 0.4880(6)
C5_10 C 0.8054(2) 0.7370(2) 0.6641(6)
C6_10 C 0.79867(19) 0.7503(2) 0.3593(6)
H5_10 H 0.7723 0.7581 0.3807
C7_10 C 0.81691(18) 0.75311(19) 0.2006(6)
C8_10 C 0.85464(19) 0.7396(2) 0.1662(6)
H6_10 H 0.8668 0.7419 0.0591
O6_4 O 0.94889(14) 0.55236(20) 0.4512(4)
H10_10 H 0.864971 0.580534 0.166827
O1_11 O 0.31772(14) 0.24090(20) 0.3714(4)
O2_8 O 0.28222(14) 0.21903(20) 0.1179(4)
O4_11 O 0.2461(2) 0.08584(26) 0.7705(5)
O5_8 O 0.35387(13) 0.33745(18) 0.1699(4)
H3_8 H 0.3699 0.3683 0.1198
C1_11 C 0.29388(19) 0.20798(27) 0.2582(6)
C2_11 C 0.27746(18) 0.15186(25) 0.2938(6)
C3_11 C 0.2785(2) 0.13645(28) 0.4533(6)
H4_11 H 0.2887 0.1608 0.5383
C4_11 C 0.2646(2) 0.08517(28) 0.4880(6)
C5_11 C 0.2630(2) 0.0684(3) 0.6641(6)
C6_11 C 0.2497(2) 0.04837(28) 0.3593(6)
H5_11 H 0.2419 0.0142 0.3807
C7_11 C 0.24689(19) 0.06380(26) 0.2006(6)
C8_11 C 0.2604(2) 0.11504(28) 0.1662(6)
H6_11 H 0.2581 0.1249 0.0591
O6_5 O 0.44764(20) 0.39652(24) 0.4512(4)
O8_5 O 0.32922(18) 0.34975(22) 0.5032(4)
H9_5 H 0.2984 0.3349 0.4531
H10_11 H 0.419466 0.284437 0.166827
H11_11 H 0.323965 0.340558 0.622109
O1_12 O 0.75910(20) 0.07682(14) 0.3714(4)
O2_9 O 0.78097(20) 0.06319(14) 0.1179(4)
O4_12 O 0.91416(26) 0.16026(16) 0.7705(5)
O5_9 O 0.66255(18) 0.01642(13) 0.1699(4)
H3_9 H 0.6317 0.0016 0.1198
C1_12 C 0.79202(27) 0.08590(19) 0.2582(6)
C2_12 C 0.84814(25) 0.12560(18) 0.2938(6)
C3_12 C 0.86355(28) 0.14205(19) 0.4533(6)
H4_12 H 0.8392 0.1279 0.5383
C4_12 C 0.91483(28) 0.17943(19) 0.4880(6)
C5_12 C 0.9316(3) 0.1946(2) 0.6641(6)
C6_12 C 0.95163(28) 0.20133(19) 0.3593(6)
H5_12 H 0.9858 0.2277 0.3807
C7_12 C 0.93620(26) 0.18309(18) 0.2006(6)
C8_12 C 0.88496(28) 0.14536(19) 0.1662(6)
H6_12 H 0.8751 0.1332 0.0591
O6_6 O 0.60348(24) 0.05111(14) 0.4512(4)
H10_12 H 0.715563 0.135029 0.166827
O8_6 O 0.65025(22) 0.97946(13) 0.5032(4)
H9_6 H 0.6651 0.9634 0.4531
H11_12 H 0.659442 0.983407 0.622109
O1_13 O 0.25651(14) 0.34895(14) 0.0381(4)
O4_13 O 0.17307(16) 0.4206(2) 0.4372(5)
C3_13 C 0.19128(19) 0.3882(2) 0.1200(6)
H4_13 H 0.2054 0.3780 0.2050
C4_13 C 0.15390(19) 0.4021(2) 0.1547(6)
C5_13 C 0.1387(2) 0.4037(2) 0.3308(6)
C6_13 C 0.13200(19) 0.4170(2) 0.0260(6)
H5_13 H 0.1056 0.4248 0.0474
H11_13 H 0.349927 0.342702 0.288776
O2_10 O 0.27014(14) 0.38445(14) 0.7846(4)
O5_10 O 0.31691(13) 0.31280(13) 0.8366(4)
H3_10 H 0.3317 0.2968 0.7865
C1_13 C 0.24743(19) 0.37279(19) 0.9249(6)
C2_13 C 0.20773(18) 0.38921(18) 0.9605(6)
C7_13 C 0.15024(18) 0.41978(19) 0.8673(6)
C8_13 C 0.18797(19) 0.4063(2) 0.8329(6)
H6_13 H 0.2001 0.4086 0.7258
H10_13 H 0.198304 0.247201 0.833493
H11_14 H 0.657298 0.00722493 0.288776
O5_11 O 0.68720(13) 0.00412(18) 0.8366(4)
H3_11 H 0.7032 0.0350 0.7865
O1_14 O 0.65105(14) 0.90757(20) 0.0381(4)
O4_14 O 0.5794(2) 0.75251(26) 0.4372(5)
C3_14 C 0.6118(2) 0.80312(28) 0.1200(6)
H4_14 H 0.6220 0.8275 0.2050
C4_14 C 0.5979(2) 0.75184(28) 0.1547(6)
C5_14 C 0.5963(2) 0.7351(3) 0.3308(6)
C6_14 C 0.5830(2) 0.71504(28) 0.0260(6)
H5_14 H 0.5752 0.6809 0.0474
O2_11 O 0.61555(14) 0.88570(20) 0.7846(4)
C1_14 C 0.62721(19) 0.87465(27) 0.9249(6)
C2_14 C 0.61079(18) 0.81853(25) 0.9605(6)
C7_14 C 0.58022(19) 0.73047(26) 0.8673(6)
C8_14 C 0.5937(2) 0.78171(28) 0.8329(6)
H6_14 H 0.5914 0.7916 0.7258
H10_14 H 0.752799 0.951103 0.833493
O1_15 O 0.09243(20) 0.74349(14) 0.0381(4)
O4_15 O 0.24749(26) 0.82693(16) 0.4372(5)
C3_15 C 0.19688(28) 0.80872(19) 0.1200(6)
H4_15 H 0.1725 0.7946 0.2050
C4_15 C 0.24816(28) 0.84610(19) 0.1547(6)
C5_15 C 0.2649(3) 0.8613(2) 0.3308(6)
C6_15 C 0.28496(28) 0.86800(19) 0.0260(6)
H5_15 H 0.3191 0.8944 0.0474
O2_12 O 0.11430(20) 0.72986(14) 0.7846(4)
C1_15 C 0.12535(27) 0.75257(19) 0.9249(6)
C2_15 C 0.18147(25) 0.79227(18) 0.9605(6)
C7_15 C 0.26953(26) 0.84976(18) 0.8673(6)
C8_15 C 0.21829(28) 0.81203(19) 0.8329(6)
H6_15 H 0.2084 0.7999 0.7258
H10_15 H 0.0488966 0.801696 0.833493
H11_15 H 0.992775 0.650073 0.288776
O5_12 O 0.99588(18) 0.68309(13) 0.8366(4)
H3_12 H 0.9650 0.6683 0.7865
O4_16 O 0.50641(16) 0.0872(2) 0.1038(5)
O1_16 O 0.58985(14) 0.01561(14) 0.7047(4)
C1_16 C 0.58077(19) 0.03945(19) 0.5915(6)
C2_16 C 0.54107(18) 0.05587(18) 0.6271(6)
C3_16 C 0.52462(19) 0.0548(2) 0.7866(6)
H4_16 H 0.5388 0.0446 0.8716
C4_16 C 0.48724(19) 0.0687(2) 0.8213(6)
C5_16 C 0.4721(2) 0.0703(2) 0.9974(6)
C6_16 C 0.46534(19) 0.0836(2) 0.6926(6)
H5_16 H 0.4390 0.0914 0.7140
C7_16 C 0.48358(18) 0.08644(19) 0.5339(6)
C8_16 C 0.52131(19) 0.0729(2) 0.4995(6)
H6_16 H 0.5335 0.0752 0.3924
H11_16 H 0.68326 0.00936839 0.955442
H10_16 H 0.531638 0.913868 0.50016
H10_17 H 0.0861323 0.61777 0.50016
O4_17 O 0.9128(2) 0.41917(26) 0.1038(5)
O1_17 O 0.98439(14) 0.57423(20) 0.7047(4)
C1_17 C 0.96055(19) 0.54131(27) 0.5915(6)
C2_17 C 0.94413(18) 0.48519(25) 0.6271(6)
C3_17 C 0.9452(2) 0.46978(28) 0.7866(6)
H4_17 H 0.9554 0.4941 0.8716
C4_17 C 0.9313(2) 0.41850(28) 0.8213(6)
C5_17 C 0.9297(2) 0.4017(3) 0.9974(6)
C6_17 C 0.9164(2) 0.38170(28) 0.6926(6)
H5_17 H 0.9086 0.3475 0.7140
C7_17 C 0.91356(19) 0.39713(26) 0.5339(6)
C8_17 C 0.9271(2) 0.44837(28) 0.4995(6)
H6_17 H 0.9248 0.4582 0.3924
H11_17 H 0.990632 0.673892 0.955442
O4_18 O 0.58083(26) 0.49359(16) 0.1038(5)
O1_18 O 0.42577(20) 0.41015(14) 0.7047(4)
C1_18 C 0.45869(27) 0.41923(19) 0.5915(6)
C2_18 C 0.51481(25) 0.45893(18) 0.6271(6)
C3_18 C 0.53022(28) 0.47538(19) 0.7866(6)
H4_18 H 0.5059 0.4612 0.8716
C4_18 C 0.58150(28) 0.51276(19) 0.8213(6)
C5_18 C 0.5983(3) 0.5279(2) 0.9974(6)
C6_18 C 0.61830(28) 0.53466(19) 0.6926(6)
H5_18 H 0.6525 0.5610 0.7140
C7_18 C 0.60287(26) 0.51642(18) 0.5339(6)
C8_18 C 0.55163(28) 0.47869(19) 0.4995(6)
H6_18 H 0.5418 0.4665 0.3924
H10_18 H 0.38223 0.468362 0.50016
H11_18 H 0.326108 0.31674 0.955442
loop_
_geom_bond_atom_site_label_1
_geom_bond_atom_site_label_2
_geom_bond_site_symmetry_1
_geom_bond_site_symmetry_2
In1 O1 1_555 1_555
O1 C1 1_555 1_555
O2 C1 1_555 1_555
O3 C5 1_555 1_555
O4 C5 1_555 1_555
O5 In1 1_555 1_555
H2 N1 1_555 1_555
H3 O5 1_555 1_555
N1 C7 1_555 1_555
C1 C2 1_555 1_555
C2 C3 1_555 1_555
C3 H4 1_555 1_555
C4 C3 1_555 1_555
C5 C4 1_555 1_555
C6 C4 1_555 1_555
H5 C6 1_555 1_555
C7 C6 1_555 1_555
C8 C2 1_555 1_555
H6 C8 1_555 1_555
In4 O3 1_555 1_555
O6 In1 1_555 1_555
O7 In1 1_555 1_555
H7 N2 1_555 1_555
H8 N2 1_555 1_555
N2 In1 1_555 1_555
C7 C8 1_555 1_555
N2 H10 1_555 1_555
H9 O8 1_555 1_555
O8 H11 1_555 1_555
In1_2 O1_2 1_555 1_555
O1_2 C1_2 1_555 1_555
O2_2 C1_2 1_555 1_555
O3_2 C5_2 1_555 1_555
O4_2 C5_2 1_555 1_555
O5_2 In1_2 1_555 1_555
H3_2 O5_2 1_555 1_555
N1_2 C7_2 1_555 1_555
C1_2 C2_2 1_555 1_555
C2_2 C3_2 1_555 1_555
C3_2 H4_2 1_555 1_555
C4_2 C3_2 1_555 1_555
C5_2 C4_2 1_555 1_555
C6_2 C4_2 1_555 1_555
H5_2 C6_2 1_555 1_555
C7_2 C6_2 1_555 1_555
C8_2 C2_2 1_555 1_555
H6_2 C8_2 1_555 1_555
In2_2 O2_2 1_555 1_555
In4_2 O3_2 1_555 1_555
O6_2 In1_2 1_555 1_555
O7_2 In1_2 1_555 1_555
O8_2 In1_2 1_555 1_555
H7_2 N2_2 1_555 1_555
H8_2 N2_2 1_555 1_555
H9_2 O8_2 1_555 1_555
N2_2 In1_2 1_555 1_555
O5_2 In2_2 1_555 1_555
C7_2 C8_2 1_555 1_555
N2_2 H10_2 1_555 1_555
O8_2 H11_2 1_555 1_555
H9_3 O8_3 1_555 1_555
O8_3 H11_3 1_555 1_555
In1_3 O1_3 1_555 1_555
O1_3 C1_3 1_555 1_555
O2_3 C1_3 1_555 1_555
O3_3 C5_3 1_555 1_555
O4_3 C5_3 1_555 1_555
O5_3 In1_3 1_555 1_555
H3_3 O5_3 1_555 1_555
N1_3 C7_3 1_555 1_555
C1_3 C2_3 1_555 1_555
C2_3 C3_3 1_555 1_555
C3_3 H4_3 1_555 1_555
C4_3 C3_3 1_555 1_555
C5_3 C4_3 1_555 1_555
C6_3 C4_3 1_555 1_555
H5_3 C6_3 1_555 1_555
C7_3 C6_3 1_555 1_555
C8_3 C2_3 1_555 1_555
H6_3 C8_3 1_555 1_555
In4_3 O3_3 1_555 1_555
O6_3 In1_3 1_555 1_555
O7_3 In1_3 1_555 1_555
H7_3 N2_3 1_555 1_555
H8_3 N2_3 1_555 1_555
N2_3 In1_3 1_555 1_555
C7_3 C8_3 1_555 1_555
N2_3 H10_3 1_555 1_555
O2_4 C1_4 1_555 1_555
H1_4 N1_4 1_555 1_555
H2_4 N1_4 1_555 1_555
H3_4 O5_4 1_555 1_555
N1_4 C7_4 1_555 1_555
C1_4 C2_4 1_555 1_555
C8_4 C2_4 1_555 1_555
H6_4 C8_4 1_555 1_555
In2_4 O2_4 1_555 1_555
In4_4 N1_4 1_555 1_555
H8_4 N2_4 1_555 1_555
O5_4 In2_4 1_555 1_555
C7_4 C8_4 1_555 1_555
N2_4 H10_4 1_555 1_555
In2_2 O1_4 1_555 1_555
O3_4 C5_4 1_555 1_555
O4_4 C5_4 1_555 1_555
C3_4 H4_4 1_555 1_555
C4_4 C3_4 1_555 1_555
C5_4 C4_4 1_555 1_555
C6_4 C4_4 1_555 1_555
H5_4 C6_4 1_555 1_555
In4_4 O3_4 1_555 1_555
O7_4 In2_2 1_555 1_555
O5_2 H11_4 1_555 1_555
O2_5 C1_5 1_555 1_555
H1_5 N1_5 1_555 1_555
H2_5 N1_5 1_555 1_555
N1_5 C7_5 1_555 1_555
C1_5 C2_5 1_555 1_555
C8_5 C2_5 1_555 1_555
H6_5 C8_5 1_555 1_555
In2_5 O2_5 1_555 1_555
In4_5 N1_5 1_555 1_555
C7_5 C8_5 1_555 1_555
N2_5 H10_5 1_555 1_555
In2_3 O1_5 1_555 1_555
O3_5 C5_5 1_555 1_555
O4_5 C5_5 1_555 1_555
C3_5 H4_5 1_555 1_555
C4_5 C3_5 1_555 1_555
C5_5 C4_5 1_555 1_555
C6_5 C4_5 1_555 1_555
H5_5 C6_5 1_555 1_555
In4_5 O3_5 1_555 1_555
O7_5 In2_3 1_555 1_555
H3_5 O5_5 1_555 1_555
O5_3 H11_5 1_555 1_555
H3_6 O5_6 1_555 1_555
O5 H11_6 1_555 1_555
O2_6 C1_6 1_555 1_555
H1_6 N1_6 1_555 1_555
H2_6 N1_6 1_555 1_555
N1_6 C7_6 1_555 1_555
C1_6 C2_6 1_555 1_555
C8_6 C2_6 1_555 1_555
H6_6 C8_6 1_555 1_555
In2_6 O2_6 1_555 1_555
In4_6 N1_6 1_555 1_555
C7_6 C8_6 1_555 1_555
N2_6 H10_6 1_555 1_555
In2 O1_6 1_555 1_555
O3_6 C5_6 1_555 1_555
O4_6 C5_6 1_555 1_555
C3_6 H4_6 1_555 1_555
C4_6 C3_6 1_555 1_555
C5_6 C4_6 1_555 1_555
C6_6 C4_6 1_555 1_555
H5_6 C6_6 1_555 1_555
In4_6 O3_6 1_555 1_555
O7_6 In2 1_555 1_555
O8_3 In2_5 1_555 1_555
O7_7 In2_5 1_555 1_555
H7_7 N2_7 1_555 1_555
H8_7 N2_7 1_555 1_555
N2_7 In2_5 1_555 1_555
N2_7 H10_7 1_555 1_555
O1_7 C1_7 1_555 1_555
O6_3 C1_7 1_555 1_555
H1_7 N1_7 1_555 1_555
H2_7 N1_7 1_555 1_555
N1_7 C7_7 1_555 1_555
C1_7 C2_7 1_555 1_555
C2_7 C3_7 1_555 1_555
C3_7 H4_7 1_555 1_555
C4_7 C3_7 1_555 1_555
C5_7 C4_7 1_555 1_555
C6_7 C4_7 1_555 1_555
H5_7 C6_7 1_555 1_555
C7_7 C6_7 1_555 1_555
C8_7 C2_7 1_555 1_555
H6_7 C8_7 1_555 1_555
In4_7 N1_7 1_555 1_555
C7_7 C8_7 1_555 1_555
O5_5 H11_7 1_555 1_555
In4_7 O3_7 1_555 1_555
O1_8 C1_8 1_555 1_555
O6 C1_8 1_555 1_555
H1_8 N1_8 1_555 1_555
H2_8 N1_8 1_555 1_555
N1_8 C7_8 1_555 1_555
C1_8 C2_8 1_555 1_555
C2_8 C3_8 1_555 1_555
C3_8 H4_8 1_555 1_555
C4_8 C3_8 1_555 1_555
C5_8 C4_8 1_555 1_555
C6_8 C4_8 1_555 1_555
H5_8 C6_8 1_555 1_555
C7_8 C6_8 1_555 1_555
C8_8 C2_8 1_555 1_555
H6_8 C8_8 1_555 1_555
In4_8 N1_8 1_555 1_555
C7_8 C8_8 1_555 1_555
O5_6 H11_8 1_555 1_555
In4_8 O3_8 1_555 1_555
O8 In2_6 1_555 1_555
O7_8 In2_6 1_555 1_555
H7_8 N2_8 1_555 1_555
H8_8 N2_8 1_555 1_555
N2_8 In2_6 1_555 1_555
N2_8 H10_8 1_555 1_555
In2_4 O1_9 1_555 1_555
O1_9 C1_9 1_555 1_555
O6_2 C1_9 1_555 1_555
O8_2 In2_4 1_555 1_555
H1_9 N1_9 1_555 1_555
H2_9 N1_9 1_555 1_555
N1_9 C7_9 1_555 1_555
C1_9 C2_9 1_555 1_555
C2_9 C3_9 1_555 1_555
C3_9 H4_9 1_555 1_555
C4_9 C3_9 1_555 1_555
C5_9 C4_9 1_555 1_555
C6_9 C4_9 1_555 1_555
H5_9 C6_9 1_555 1_555
C7_9 C6_9 1_555 1_555
C8_9 C2_9 1_555 1_555
H6_9 C8_9 1_555 1_555
In4_9 N1_9 1_555 1_555
O7_9 In2_4 1_555 1_555
H7_9 N2_9 1_555 1_555
H8_9 N2_9 1_555 1_555
N2_9 In2_4 1_555 1_555
C7_9 C8_9 1_555 1_555
N2_9 H10_9 1_555 1_555
O5_4 H11_9 1_555 1_555
In4_9 O3_9 1_555 1_555
H9_4 O8_4 1_555 1_555
O8_4 H11_10 1_555 1_555
In4_4 O1_10 1_555 1_555
O1_10 C1_10 1_555 1_555
O2_7 C1_10 1_555 1_555
O7_4 C5_10 1_555 1_555
O4_10 C5_10 1_555 1_555
O5_7 In4_4 1_555 1_555
H3_7 O5_7 1_555 1_555
N2_4 C7_10 1_555 1_555
C1_10 C2_10 1_555 1_555
C2_10 C3_10 1_555 1_555
C3_10 H4_10 1_555 1_555
C4_10 C3_10 1_555 1_555
C5_10 C4_10 1_555 1_555
C6_10 C4_10 1_555 1_555
H5_10 C6_10 1_555 1_555
C7_10 C6_10 1_555 1_555
C8_10 C2_10 1_555 1_555
H6_10 C8_10 1_555 1_555
O6_4 In4_4 1_555 1_555
C7_10 C8_10 1_555 1_555
N1_4 H10_10 1_555 1_555
In4_5 O1_11 1_555 1_555
O1_11 C1_11 1_555 1_555
O2_8 C1_11 1_555 1_555
O7_5 C5_11 1_555 1_555
O4_11 C5_11 1_555 1_555
O5_8 In4_5 1_555 1_555
H3_8 O5_8 1_555 1_555
N2_5 C7_11 1_555 1_555
C1_11 C2_11 1_555 1_555
C2_11 C3_11 1_555 1_555
C3_11 H4_11 1_555 1_555
C4_11 C3_11 1_555 1_555
C5_11 C4_11 1_555 1_555
C6_11 C4_11 1_555 1_555
H5_11 C6_11 1_555 1_555
C7_11 C6_11 1_555 1_555
C8_11 C2_11 1_555 1_555
H6_11 C8_11 1_555 1_555
In4 O2_8 1_555 1_555
O6_5 In4_5 1_555 1_555
O8_5 In4_5 1_555 1_555
H9_5 O8_5 1_555 1_555
O5_8 In4 1_555 1_555
C7_11 C8_11 1_555 1_555
N1_5 H10_11 1_555 1_555
O8_5 H11_11 1_555 1_555
In4_6 O1_12 1_555 1_555
O1_12 C1_12 1_555 1_555
O2_9 C1_12 1_555 1_555
O7_6 C5_12 1_555 1_555
O4_12 C5_12 1_555 1_555
O5_9 In4_6 1_555 1_555
H3_9 O5_9 1_555 1_555
N2_6 C7_12 1_555 1_555
C1_12 C2_12 1_555 1_555
C2_12 C3_12 1_555 1_555
C3_12 H4_12 1_555 1_555
C4_12 C3_12 1_555 1_555
C5_12 C4_12 1_555 1_555
C6_12 C4_12 1_555 1_555
H5_12 C6_12 1_555 1_555
C7_12 C6_12 1_555 1_555
C8_12 C2_12 1_555 1_555
H6_12 C8_12 1_555 1_555
O6_6 In4_6 1_555 1_555
C7_12 C8_12 1_555 1_555
N1_6 H10_12 1_555 1_555
H9_6 O8_6 1_555 1_555
O8_6 H11_12 1_555 1_555
In4 O1_13 1_555 1_555
O7 C5_13 1_555 1_555
O4_13 C5_13 1_555 1_555
C3_13 H4_13 1_555 1_555
C4_13 C3_13 1_555 1_555
C5_13 C4_13 1_555 1_555
C6_13 C4_13 1_555 1_555
H5_13 C6_13 1_555 1_555
O5_8 H11_13 1_555 1_555
O2_10 C1_13 1_555 1_555
H3_10 O5_10 1_555 1_555
N2 C7_13 1_555 1_555
C1_13 C2_13 1_555 1_555
C8_13 C2_13 1_555 1_555
H6_13 C8_13 1_555 1_555
In4_9 O2_10 1_555 1_555
O5_10 In4_9 1_555 1_555
C7_13 C8_13 1_555 1_555
N1 H10_13 1_555 1_555
O5_9 H11_14 1_555 1_555
H3_11 O5_11 1_555 1_555
In4_2 O1_14 1_555 1_555
O7_2 C5_14 1_555 1_555
O4_14 C5_14 1_555 1_555
C3_14 H4_14 1_555 1_555
C4_14 C3_14 1_555 1_555
C5_14 C4_14 1_555 1_555
C6_14 C4_14 1_555 1_555
H5_14 C6_14 1_555 1_555
O2_11 C1_14 1_555 1_555
N2_2 C7_14 1_555 1_555
C1_14 C2_14 1_555 1_555
C8_14 C2_14 1_555 1_555
H6_14 C8_14 1_555 1_555
In4_7 O2_11 1_555 1_555
C7_14 C8_14 1_555 1_555
N1_2 H10_14 1_555 1_555
In4_3 O1_15 1_555 1_555
O7_3 C5_15 1_555 1_555
O4_15 C5_15 1_555 1_555
C3_15 H4_15 1_555 1_555
C4_15 C3_15 1_555 1_555
C5_15 C4_15 1_555 1_555
C6_15 C4_15 1_555 1_555
H5_15 C6_15 1_555 1_555
O2_12 C1_15 1_555 1_555
N2_3 C7_15 1_555 1_555
C1_15 C2_15 1_555 1_555
C8_15 C2_15 1_555 1_555
H6_15 C8_15 1_555 1_555
In4_8 O2_12 1_555 1_555
C7_15 C8_15 1_555 1_555
N1_3 H10_15 1_555 1_555
O5_7 H11_15 1_555 1_555
H3_12 O5_12 1_555 1_555
O1_16 C1_16 1_555 1_555
O6_6 C1_16 1_555 1_555
N2_7 C7_16 1_555 1_555
C1_16 C2_16 1_555 1_555
C2_16 C3_16 1_555 1_555
C3_16 H4_16 1_555 1_555
C4_16 C3_16 1_555 1_555
C5_16 C4_16 1_555 1_555
C6_16 C4_16 1_555 1_555
H5_16 C6_16 1_555 1_555
C7_16 C6_16 1_555 1_555
C8_16 C2_16 1_555 1_555
H6_16 C8_16 1_555 1_555
C7_16 C8_16 1_555 1_555
O5_11 H11_16 1_555 1_555
O8_6 In4_7 1_555 1_555
N1_7 H10_16 1_555 1_555
O8_4 In4_8 1_555 1_555
N1_8 H10_17 1_555 1_555
O1_17 C1_17 1_555 1_555
O6_4 C1_17 1_555 1_555
N2_8 C7_17 1_555 1_555
C1_17 C2_17 1_555 1_555
C2_17 C3_17 1_555 1_555
C3_17 H4_17 1_555 1_555
C4_17 C3_17 1_555 1_555
C5_17 C4_17 1_555 1_555
C6_17 C4_17 1_555 1_555
H5_17 C6_17 1_555 1_555
C7_17 C6_17 1_555 1_555
C8_17 C2_17 1_555 1_555
H6_17 C8_17 1_555 1_555
C7_17 C8_17 1_555 1_555
O5_12 H11_17 1_555 1_555
In4_9 O1_18 1_555 1_555
O1_18 C1_18 1_555 1_555
O6_5 C1_18 1_555 1_555
O8_5 In4_9 1_555 1_555
N2_9 C7_18 1_555 1_555
C1_18 C2_18 1_555 1_555
C2_18 C3_18 1_555 1_555
C3_18 H4_18 1_555 1_555
C4_18 C3_18 1_555 1_555
C5_18 C4_18 1_555 1_555
C6_18 C4_18 1_555 1_555
H5_18 C6_18 1_555 1_555
C7_18 C6_18 1_555 1_555
C8_18 C2_18 1_555 1_555
H6_18 C8_18 1_555 1_555
C7_18 C8_18 1_555 1_555
N1_9 H10_18 1_555 1_555
O5_10 H11_18 1_555 1_555

#END
