
###############################################################################
#
# This file contains modified crystal structure data generated from the
# MOF subset of the Cambridge Structural Database (CSD) v543 
# hosted by the Cambridge Crystallographic Data Centre (CCDC).
#
# This work is licensed under the Creative Commons
# Attribution-NonCommercial-ShareAlike 4.0 International License.
# To view a copy of this license, visit
# http://creativecommons.org/licenses/by-nc-sa/4.0/
# or send a letter to
# Creative Commons, PO Box 1866, Mountain View, CA 94042, USA.
#
# CIF created using the CSD Python API on 29 September 2022
# The structure has been converted into the P1 space group
# The structure has a 3D framework
# The original CSD entry QULWAY is in the monoclinic crystal system
# The framework has been calculated to contain at least 10.0% void space
# The void calculation uses a probe of radius 1.32A, grid spacing 0.4
# The framework is charged, counterions have been retained in the structure
#
###############################################################################

data_QULWAY
_chemical_formula_moiety         '(C288 H192 Cl4 N56 O158 Tb12 6+)n'
_symmetry_cell_setting           triclinic
_symmetry_space_group_name_H-M   'P 1'
_symmetry_Int_Tables_number      1
_space_group_name_Hall           'P 1'
loop_
_symmetry_equiv_pos_site_id
_symmetry_equiv_pos_as_xyz
1 x,y,z
_cell_length_a                   24.011(12)
_cell_length_b                   19.545(10)
_cell_length_c                   22.693(12)
_cell_angle_alpha                90
_cell_angle_beta                 116.203(6)
_cell_angle_gamma                90
_cell_volume                     9555.3
loop_
_atom_site_label
_atom_site_type_symbol
_atom_site_fract_x
_atom_site_fract_y
_atom_site_fract_z
O4 O 0.0029(11) 0.4331(11) 0.4409(14)
N1 N 0.0172(15) 0.4237(15) 0.4925(15)
O12 O 0.0730(13) 0.4122(17) 0.5347(15)
Tb9 Tb 0.19073(2) 0.00881(3) 0.40634(2)
C22 C 0.5705(8) 0.3740(8) 0.9826(8)
C27 C 0.5944(10) 0.2374(8) 0.9779(7)
C28 C 0.5393(10) 0.3381(8) 0.9266(7)
H14 H 0.5653 0.4211 0.9829
H19 H 0.6039 0.1913 0.9775
C31 C 0.5520(8) 0.2699(7) 0.9207(6)
H20 H 0.5082 0.3599 0.8907
C33 C 0.5202(7) 0.2339(8) 0.8576(6)
C38 C 0.5497(11) 0.1738(9) 0.8461(9)
C39 C 0.4675(8) 0.2576(8) 0.8054(7)
C41 C 0.3366(9) 0.6459(11) 0.9592(8)
H25 H 0.5882 0.1588 0.8775
C44 C 0.5194(9) 0.1400(9) 0.7880(8)
C45 C 0.4397(8) 0.2220(9) 0.7469(7)
H26 H 0.4502 0.2988 0.8096
C46 C 0.3435(8) 0.7150(9) 0.9558(8)
H28 H 0.3125 0.6226 0.9204
N12 N 0.4683(7) 0.1653(7) 0.7387(6)
H31 H 0.5347 0.0980 0.7824
H32 H 0.4020 0.2366 0.7138
C47 C 0.3135(9) 0.7532(9) 0.8922(8)
C49 C 0.4394(7) 0.1301(7) 0.6760(6)
C50 C 0.3377(7) 0.8191(8) 0.8869(7)
C51 C 0.2646(9) 0.7264(10) 0.8374(7)
C54 C 0.3768(9) 0.1212(10) 0.6468(8)
C55 C 0.4727(11) 0.1090(12) 0.6459(9)
H33 H 0.3723 0.8371 0.9220
C56 C 0.3089(10) 0.8549(9) 0.8295(7)
C57 C 0.2420(9) 0.7656(9) 0.7809(8)
H34 H 0.2476 0.6839 0.8385
H37 H 0.3539 0.1346 0.6689
C60 C 0.3462(8) 0.0921(9) 0.5842(7)
C61 C 0.4446(8) 0.0773(10) 0.5843(8)
H38 H 0.5155 0.1154 0.6661
N13 N 0.2637(6) 0.8263(6) 0.7771(5)
H39 H 0.3212 0.8995 0.8271
H40 H 0.2096 0.7480 0.7433
H43 H 0.3033 0.0868 0.5642
C63 C 0.3814(7) 0.0713(7) 0.5526(6)
H44 H 0.4688 0.0604 0.5649
C64 C 0.2345(7) 0.8657(7) 0.7138(6)
C66 C 0.3494(7) 0.0453(7) 0.4829(6)
C67 C 0.2747(7) 0.8917(10) 0.6906(7)
C68 C 0.1724(7) 0.8703(8) 0.6818(7)
H45 H 0.3176 0.8890 0.7144
C69 C 0.2455(8) 0.9228(9) 0.6279(7)
C70 C 0.1458(9) 0.9030(8) 0.6217(7)
H46 H 0.1477 0.8517 0.6999
H47 H 0.2698 0.9407 0.6090
C71 C 0.1831(8) 0.9271(7) 0.5949(7)
H48 H 0.1030 0.9086 0.5997
C72 C 0.1513(8) 0.9579(7) 0.5248(6)
O36 O 0.2914(6) 0.0477(7) 0.4561(6)
O37 O 0.3814(6) 0.0244(6) 0.4572(5)
O38 O 0.0941(7) 0.9464(6) 0.4918(5)
O39 O 0.1843(7) 0.9874(8) 0.5041(6)
Tb8 Tb 0.00794(3) 0.89470(4) 0.41343(3)
H18 H 0.6906 0.9993 0.5749
C32 C 0.7220(14) 0.9762(11) 0.6971(12)
C36 C 0.7725(10) 0.9443(11) 0.7546(11)
C37 C 0.6683(16) 0.9516(15) 0.6687(16)
H23 H 0.8141 0.9567 0.7708
C42 C 0.7500(16) 0.8916(14) 0.7826(13)
C43 C 0.6496(13) 0.9023(14) 0.7008(14)
H24 H 0.6413 0.9660 0.6267
N11 N 0.6911(11) 0.8713(9) 0.7548(10)
H29 H 0.7775 0.8710 0.8216
H30 H 0.6078 0.8910 0.6844
C48 C 0.6728(13) 0.8132(10) 0.7850(12)
C52 C 0.6989(11) 0.7533(10) 0.7890(11)
C53 C 0.6238(19) 0.8255(11) 0.8028(18)
H35 H 0.7290 0.7473 0.7742
C58 C 0.6804(11) 0.6989(9) 0.8160(11)
C59 C 0.6033(14) 0.7684(12) 0.8228(16)
H36 H 0.6070 0.8687 0.8011
H41 H 0.7014 0.6573 0.8241
C62 C 0.6327(11) 0.7065(8) 0.8303(10)
H42 H 0.5690 0.7718 0.8313
C65 C 0.6109(10) 0.6463(9) 0.8570(10)
O34 O 0.6303(10) 0.5884(9) 0.8565(12)
O35 O 0.5736(8) 0.6603(8) 0.8806(8)
Tb4 Tb 0.69073(2) 0.49119(3) 0.90634(2)
Tb5 Tb 0.50794(3) 0.60530(4) 0.91343(3)
Tb7 Tb 0.38514(4) 0.92835(4) 0.39962(3)
Tb7_2 Tb 0.38514(4) 0.07165(4) 0.89962(3)
Tb1 Tb 0.88514(4) 0.57165(4) 0.89962(3)
O1 O 0.8442(13) 0.6200(9) 0.9635(10)
O2 O 0.7896(5) 0.5387(6) 0.8197(5)
O5 O 0.9281(7) 0.6903(8) 0.9162(9)
O6 O 0.8361(8) 0.6796(8) 0.8384(10)
O7 O 0.9075(8) 0.5777(8) 0.8036(7)
O8 O 0.9066(9) 0.4751(7) 0.8400(8)
O9 O 0.8814(6) 0.4756(6) 0.9572(5)
C1 C 0.7959(13) 0.6280(9) 0.9684(12)
C2 C 0.7318(7) 0.5312(7) 0.7880(6)
N2 N 0.8765(14) 0.7184(10) 0.8757(14)
N3 N 0.9142(11) 0.5143(11) 0.7990(10)
O10 O 0.7497(11) 0.5887(8) 0.9421(11)
O11 O 0.7012(5) 0.4997(6) 0.8095(5)
C4 C 0.7017(6) 0.5609(7) 0.7202(6)
O13 O 0.8750(11) 0.7813(8) 0.8740(13)
O14 O 0.9260(15) 0.4898(13) 0.7574(13)
C7 C 0.7348(10) 0.5938(9) 0.6937(8)
C8 C 0.6355(8) 0.5554(9) 0.6841(8)
O15 O 0.5872(6) 0.4595(5) 0.8584(5)
O16 O 0.6872(7) 0.3731(6) 0.8597(6)
O17 O 0.6866(7) 0.3752(6) 0.9544(6)
O20 O 0.7914(6) 0.4523(7) 0.9561(6)
H2 H 0.7010 0.6718 0.9861
H3 H 0.7778 0.5968 0.7161
C11 C 0.7026(7) 0.6234(9) 0.6315(7)
C12 C 0.6041(8) 0.5862(11) 0.6243(8)
H4 H 0.6135 0.5304 0.7017
C13 C 0.5333(7) 0.4796(7) 0.8240(6)
N4 N 0.6814(10) 0.3394(6) 0.9041(10)
H7 H 0.7249 0.6447 0.6120
C15 C 0.6399(9) 0.6220(8) 0.5990(6)
H8 H 0.5611 0.5837 0.6014
O21 O 0.5022(6) 0.5199(7) 0.8401(6)
C16 C 0.4991(8) 0.4516(9) 0.7541(7)
O22 O 0.6777(15) 0.2772(8) 0.9029(16)
N6 N 0.6081(7) 0.6577(7) 0.5365(6)
C17 C 0.5291(11) 0.4049(11) 0.7344(9)
C18 C 0.4388(9) 0.4715(11) 0.7150(8)
C21 C 0.6219(11) 0.7243(8) 0.5356(8)
C22_2 C 0.5705(8) 0.6260(8) 0.4826(8)
O23 O 0.5591(9) 0.7036(8) 0.9919(8)
O25 O 0.4715(8) 0.5046(7) 0.9524(7)
O26 O 0.3973(8) 0.5619(9) 0.8731(9)
O27 O 0.4435(11) 0.7133(9) 0.8800(8)
O28 O 0.4367(9) 0.6532(9) 0.7995(7)
O30 O 0.5941(7) 0.5536(6) 0.9918(5)
H9 H 0.5703 0.3937 0.7613
C23 C 0.4970(11) 0.3735(11) 0.6725(9)
C24 C 0.4073(12) 0.4424(13) 0.6518(9)
H10 H 0.4192 0.5033 0.7300
H13 H 0.6503 0.7451 0.5740
C27_2 C 0.5944(10) 0.7626(8) 0.4779(7)
C28_2 C 0.5393(10) 0.6619(8) 0.4266(7)
H14_2 H 0.5653 0.5789 0.4829
N8 N 0.4141(17) 0.5099(16) 0.9118(16)
N9 N 0.4200(12) 0.7060(10) 0.8188(9)
H15 H 0.5160 0.3406 0.6579
C29 C 0.4354(9) 0.3936(10) 0.6339(7)
H16 H 0.3677 0.4571 0.6232
H19_2 H 0.6039 0.8087 0.4775
C31_2 C 0.5520(8) 0.7301(7) 0.4207(6)
H20_2 H 0.5082 0.6401 0.3907
O32 O 0.3732(15) 0.4680(15) 0.9089(15)
O33 O 0.3842(12) 0.7455(11) 0.7799(9)
N10 N 0.4014(9) 0.3546(8) 0.5718(6)
C33_2 C 0.5202(7) 0.7661(8) 0.3576(6)
C34 C 0.4092(14) 0.2896(11) 0.5704(8)
C35 C 0.3631(9) 0.3912(10) 0.5165(8)
C38_2 C 0.5497(11) 0.8262(9) 0.3461(9)
C39_2 C 0.4675(8) 0.7424(8) 0.3054(7)
H21 H 0.4375 0.2666 0.6075
C40 C 0.3745(13) 0.2543(10) 0.5123(9)
C41_2 C 0.3366(9) 0.3541(11) 0.4592(8)
H22 H 0.3557 0.4377 0.5180
H25_2 H 0.5882 0.8412 0.3775
C44_2 C 0.5194(9) 0.8600(9) 0.2880(8)
C45_2 C 0.4397(8) 0.7780(9) 0.2469(7)
H26_2 H 0.4502 0.7012 0.3096
H27 H 0.3733 0.2068 0.5137
C46_2 C 0.3435(8) 0.2850(9) 0.4558(8)
H28_2 H 0.3125 0.3774 0.4204
N12_2 N 0.4683(7) 0.8347(7) 0.2387(6)
H31_2 H 0.5347 0.9020 0.2824
H32_2 H 0.4020 0.7634 0.2138
C47_2 C 0.3135(9) 0.2468(9) 0.3922(8)
C49_2 C 0.4394(7) 0.8699(7) 0.1760(6)
C50_2 C 0.3377(7) 0.1809(8) 0.3869(7)
C51_2 C 0.2646(9) 0.2736(10) 0.3374(7)
C54_2 C 0.3768(9) 0.8788(10) 0.1468(8)
C55_2 C 0.4727(11) 0.8910(12) 0.1459(9)
H33_2 H 0.3723 0.1629 0.4220
C56_2 C 0.3089(10) 0.1451(9) 0.3295(7)
C57_2 C 0.2420(9) 0.2344(9) 0.2809(8)
H34_2 H 0.2476 0.3161 0.3385
H37_2 H 0.3539 0.8654 0.1689
C60_2 C 0.3462(8) 0.9079(9) 0.0842(7)
C61_2 C 0.4446(8) 0.9227(10) 0.0843(8)
H38_2 H 0.5155 0.8846 0.1661
N13_2 N 0.2637(6) 0.1737(6) 0.2771(5)
H39_2 H 0.3212 0.1005 0.3271
H40_2 H 0.2096 0.2520 0.2433
H43_2 H 0.3033 0.9132 0.0642
C63_2 C 0.3814(7) 0.9287(7) 0.0526(6)
H44_2 H 0.4688 0.9396 0.0649
C64_2 C 0.2345(7) 0.1343(7) 0.2138(6)
C67_2 C 0.2747(7) 0.1083(10) 0.1906(7)
C68_2 C 0.1724(7) 0.1297(8) 0.1818(7)
H45_2 H 0.3176 0.1110 0.2144
C69_2 C 0.2455(8) 0.0772(9) 0.1279(7)
C70_2 C 0.1458(9) 0.0970(8) 0.1217(7)
H46_2 H 0.1477 0.1483 0.1999
H47_2 H 0.2698 0.0593 0.1090
C71_2 C 0.1831(8) 0.0729(7) 0.0949(7)
H48_2 H 0.1030 0.0914 0.0997
C72_2 C 0.1513(8) 0.0421(7) 0.0248(6)
O39_2 O 0.1843(7) 0.0126(8) 0.0041(6)
C66_2 C 0.3494(7) 0.9547(7) 0.9829(6)
O36_2 O 0.2914(6) 0.9523(7) 0.9561(6)
O37_2 O 0.3814(6) 0.9756(6) 0.9572(5)
Tb6 Tb 0.19073(2) 0.99119(3) 0.90634(2)
O38_2 O 0.0941(7) 0.0536(6) 0.9918(5)
Tb8_2 Tb 0.00794(3) 0.10530(4) 0.91343(3)
O8_2 O 0.4066(9) 0.0249(7) 0.3400(8)
O11_2 O 0.2012(5) 0.0003(6) 0.3095(5)
O14_2 O 0.4260(15) 0.0102(13) 0.2574(13)
O15_2 O 0.0872(6) 0.0405(5) 0.3584(5)
O16_2 O 0.1872(7) 0.1269(6) 0.3597(6)
O17_2 O 0.1866(7) 0.1248(6) 0.4544(6)
C13_2 C 0.0333(7) 0.0204(7) 0.3240(6)
N4_2 N 0.1814(10) 0.1606(6) 0.4041(10)
O22_2 O 0.1777(15) 0.2228(8) 0.4029(16)
C17_2 C 0.0291(11) 0.0951(11) 0.2344(9)
H9_2 H 0.0703 0.1063 0.2613
H15_2 H 0.0160 0.1594 0.1579
O1_2 O 0.3442(13) 0.8800(9) 0.4635(10)
O2_2 O 0.2896(5) 0.9613(6) 0.3197(5)
O3 O 0.4731(14) 0.9157(14) 0.5130(10)
O4_2 O 0.5029(11) 0.9331(11) 0.4409(14)
O5_2 O 0.4281(7) 0.8097(8) 0.4162(9)
O6_2 O 0.3361(8) 0.8204(8) 0.3384(10)
O7_2 O 0.4075(8) 0.9223(8) 0.3036(7)
C1_2 C 0.2959(13) 0.8720(9) 0.4684(12)
C2_2 C 0.2318(7) 0.9688(7) 0.2880(6)
N1_2 N 0.5172(15) 0.9237(15) 0.4925(15)
N2_2 N 0.3765(14) 0.7816(10) 0.3757(14)
N3_2 N 0.4142(11) 0.9857(11) 0.2990(10)
O10_2 O 0.2497(11) 0.9113(8) 0.4421(11)
C3 C 0.2899(11) 0.8122(10) 0.5058(12)
C4_2 C 0.2017(6) 0.9391(7) 0.2202(6)
O12_2 O 0.5730(13) 0.9122(17) 0.5347(15)
O13_2 O 0.3750(11) 0.7187(8) 0.3740(13)
C5 C 0.3375(13) 0.7713(12) 0.5396(14)
C6 C 0.2348(12) 0.7995(10) 0.5080(11)
C7_2 C 0.2348(10) 0.9062(9) 0.1937(8)
C8_2 C 0.1355(8) 0.9446(9) 0.1841(8)
O18 O 0.1303(10) 0.9116(9) 0.3565(12)
H1 H 0.3767 0.7819 0.5432
C9 C 0.3292(13) 0.7124(14) 0.5697(15)
C10 C 0.2295(16) 0.7449(10) 0.5420(15)
H2_2 H 0.2010 0.8282 0.4861
H3_2 H 0.2778 0.9032 0.2161
C11_2 C 0.2026(7) 0.8766(9) 0.1315(7)
C12_2 C 0.1041(8) 0.9138(11) 0.1243(8)
H4_2 H 0.1135 0.9696 0.2017
H5 H 0.3618 0.6816 0.5894
C14 C 0.2772(12) 0.7004(12) 0.5704(14)
H6 H 0.1929 0.7380 0.5459
H7_2 H 0.2249 0.8553 0.1120
C15_2 C 0.1399(9) 0.8780(8) 0.0990(6)
H8_2 H 0.0611 0.9163 0.1014
O21_2 O 0.0022(6) 0.9801(7) 0.3401(6)
N5 N 0.2687(9) 0.6389(10) 0.6030(10)
N6_2 N 0.1081(7) 0.8423(7) 0.0365(6)
C19 C 0.3022(12) 0.6328(12) 0.6692(12)
C20 C 0.2243(12) 0.5909(14) 0.5656(16)
C21_2 C 0.1219(11) 0.7757(8) 0.0356(8)
O23_2 O 0.0591(9) 0.7964(8) 0.4919(8)
O29 O 0.0736(8) 0.8397(8) 0.3806(8)
H11 H 0.3327 0.6644 0.6934
C25 C 0.2890(14) 0.5779(13) 0.6990(12)
C26 C 0.2167(16) 0.5344(14) 0.5993(12)
H12 H 0.2009 0.5961 0.5205
H13_2 H 0.1503 0.7549 0.0740
N7 N 0.0321(11) 0.8043(10) 0.5270(8)
H17 H 0.3100 0.5731 0.7444
C30 C 0.2435(11) 0.5283(10) 0.6615(11)
H18_2 H 0.1906 0.4993 0.5749
O31 O 0.0373(12) 0.7662(11) 0.5733(10)
C32_2 C 0.2220(14) 0.4762(11) 0.6971(12)
C36_2 C 0.2725(10) 0.4443(11) 0.7546(11)
C37_2 C 0.1683(16) 0.4516(15) 0.6687(16)
H23_2 H 0.3141 0.4567 0.7708
C42_2 C 0.2500(16) 0.3916(14) 0.7826(13)
C43_2 C 0.1496(13) 0.4023(14) 0.7008(14)
H24_2 H 0.1413 0.4660 0.6267
N11_2 N 0.1911(11) 0.3713(9) 0.7548(10)
H29_2 H 0.2775 0.3710 0.8216
H30_2 H 0.1078 0.3910 0.6844
C48_2 C 0.1728(13) 0.3132(10) 0.7850(12)
C52_2 C 0.1989(11) 0.2533(10) 0.7890(11)
C53_2 C 0.1238(19) 0.3255(11) 0.8028(18)
H35_2 H 0.2290 0.2473 0.7742
C58_2 C 0.1804(11) 0.1989(9) 0.8160(11)
C59_2 C 0.1033(14) 0.2684(12) 0.8228(16)
H36_2 H 0.1070 0.3687 0.8011
H41_2 H 0.2014 0.1573 0.8241
C62_2 C 0.1327(11) 0.2065(8) 0.8303(10)
H42_2 H 0.0690 0.2718 0.8313
C65_2 C 0.1109(10) 0.1463(9) 0.8570(10)
O34_2 O 0.1303(10) 0.0884(9) 0.8565(12)
O35_2 O 0.0736(8) 0.1603(8) 0.8806(8)
O3_2 O 0.4731(14) 0.0843(14) 0.0130(10)
C3_2 C 0.2899(11) 0.1878(10) 0.0058(12)
O12_3 O 0.5730(13) 0.0878(17) 0.0347(15)
C5_2 C 0.3375(13) 0.2287(12) 0.0396(14)
C6_2 C 0.2348(12) 0.2005(10) 0.0080(11)
H1_2 H 0.3767 0.2181 0.0432
C9_2 C 0.3292(13) 0.2876(14) 0.0697(15)
C10_2 C 0.2295(16) 0.2551(10) 0.0420(15)
H5_2 H 0.3618 0.3184 0.0894
C14_2 C 0.2772(12) 0.2996(12) 0.0704(14)
H6_2 H 0.1929 0.2620 0.0459
N5_2 N 0.2687(9) 0.3611(10) 0.1030(10)
C19_2 C 0.3022(12) 0.3672(12) 0.1692(12)
C20_2 C 0.2243(12) 0.4091(14) 0.0656(16)
H11_2 H 0.3327 0.3356 0.1934
C25_2 C 0.2890(14) 0.4221(13) 0.1990(12)
C26_2 C 0.2167(16) 0.4656(14) 0.0993(12)
H12_2 H 0.2009 0.4039 0.0205
N7_2 N 0.0321(11) 0.1957(10) 0.0270(8)
H17_2 H 0.3100 0.4269 0.2444
C30_2 C 0.2435(11) 0.4717(10) 0.1615(11)
H18_3 H 0.1906 0.5007 0.0749
O31_2 O 0.0373(12) 0.2338(11) 0.0733(10)
C32_3 C 0.2220(14) 0.5238(11) 0.1971(12)
C36_3 C 0.2725(10) 0.5557(11) 0.2546(11)
C37_3 C 0.1683(16) 0.5484(15) 0.1687(16)
H23_3 H 0.3141 0.5433 0.2708
C42_3 C 0.2500(16) 0.6084(14) 0.2826(13)
C43_3 C 0.1496(13) 0.5977(14) 0.2008(14)
H24_3 H 0.1413 0.5340 0.1267
N11_3 N 0.1911(11) 0.6287(9) 0.2548(10)
H29_3 H 0.2775 0.6290 0.3216
H30_3 H 0.1078 0.6090 0.1844
C48_3 C 0.1728(13) 0.6868(10) 0.2850(12)
C52_3 C 0.1989(11) 0.7467(10) 0.2890(11)
C53_3 C 0.1238(19) 0.6745(11) 0.3028(18)
H35_3 H 0.2290 0.7527 0.2742
C58_3 C 0.1804(11) 0.8011(9) 0.3160(11)
C59_3 C 0.1033(14) 0.7316(12) 0.3228(16)
H36_3 H 0.1070 0.6313 0.3011
H41_3 H 0.2014 0.8427 0.3241
C62_3 C 0.1327(11) 0.7935(8) 0.3303(10)
H42_3 H 0.0690 0.7282 0.3313
C65_3 C 0.1109(10) 0.8537(9) 0.3570(10)
O1_3 O 0.3442(13) 0.1200(9) 0.9635(10)
O2_3 O 0.2896(5) 0.0387(6) 0.8197(5)
O4_3 O 0.5029(11) 0.0669(11) 0.9409(14)
O5_3 O 0.4281(7) 0.1903(8) 0.9162(9)
O6_3 O 0.3361(8) 0.1796(8) 0.8384(10)
O7_3 O 0.4075(8) 0.0777(8) 0.8036(7)
C1_3 C 0.2959(13) 0.1280(9) 0.9684(12)
C2_3 C 0.2318(7) 0.0312(7) 0.7880(6)
N1_3 N 0.5172(15) 0.0763(15) 0.9925(15)
N2_3 N 0.3765(14) 0.2184(10) 0.8757(14)
N3_3 N 0.4142(11) 0.0143(11) 0.7990(10)
O10_3 O 0.2497(11) 0.0887(8) 0.9421(11)
C4_3 C 0.2017(6) 0.0609(7) 0.7202(6)
O13_3 O 0.3750(11) 0.2813(8) 0.8740(13)
C7_3 C 0.2348(10) 0.0938(9) 0.6937(8)
C8_3 C 0.1355(8) 0.0554(9) 0.6841(8)
H2_3 H 0.2010 0.1718 0.9861
H3_3 H 0.2778 0.0968 0.7161
C11_3 C 0.2026(7) 0.1234(9) 0.6315(7)
C12_3 C 0.1041(8) 0.0862(11) 0.6243(8)
H4_3 H 0.1135 0.0304 0.7017
H7_3 H 0.2249 0.1447 0.6120
C15_3 C 0.1399(9) 0.1220(8) 0.5990(6)
H8_3 H 0.0611 0.0837 0.6014
O21_3 O 0.0022(6) 0.0199(7) 0.8401(6)
N6_3 N 0.1081(7) 0.1577(7) 0.5365(6)
C21_3 C 0.1219(11) 0.2243(8) 0.5356(8)
C22_3 C 0.0705(8) 0.1260(8) 0.4826(8)
O23_3 O 0.0591(9) 0.2036(8) 0.9919(8)
H13_3 H 0.1503 0.2451 0.5740
C27_3 C 0.0944(10) 0.2626(8) 0.4779(7)
C28_3 C 0.0393(10) 0.1619(8) 0.4266(7)
H14_3 H 0.0653 0.0789 0.4829
H19_3 H 0.1039 0.3087 0.4775
C31_3 C 0.0520(8) 0.2301(7) 0.4207(6)
H20_3 H 0.0082 0.1401 0.3907
C33_3 C 0.0202(7) 0.2661(8) 0.3576(6)
C38_3 C 0.0497(11) 0.3262(9) 0.3461(9)
H25_3 H 0.0882 0.3412 0.3775
C44_3 C 0.0194(9) 0.3600(9) 0.2880(8)
H31_3 H 0.0347 0.4020 0.2824
H38_3 H 0.0155 0.3846 0.1661
O8_3 O 0.4066(9) 0.9751(7) 0.8400(8)
O11_3 O 0.2012(5) 0.9997(6) 0.8095(5)
O14_3 O 0.4260(15) 0.9898(13) 0.7574(13)
O15_3 O 0.0872(6) 0.9595(5) 0.8584(5)
O16_3 O 0.1872(7) 0.8731(6) 0.8597(6)
O17_3 O 0.1866(7) 0.8752(6) 0.9544(6)
C13_3 C 0.0333(7) 0.9796(7) 0.8240(6)
N4_3 N 0.1814(10) 0.8394(6) 0.9041(10)
O22_3 O 0.1777(15) 0.7772(8) 0.9029(16)
C17_3 C 0.0291(11) 0.9049(11) 0.7344(9)
H9_3 H 0.0703 0.8937 0.7613
H15_3 H 0.0160 0.8406 0.6579
C66_3 C 0.8494(7) 0.4547(7) 0.9829(6)
Tb1_2 Tb 0.88514(4) 0.42835(4) 0.39962(3)
O1_4 O 0.8442(13) 0.3800(9) 0.4635(10)
O2_4 O 0.7896(5) 0.4613(6) 0.3197(5)
O3_3 O 0.9731(14) 0.4157(14) 0.5130(10)
O5_4 O 0.9281(7) 0.3097(8) 0.4162(9)
O6_4 O 0.8361(8) 0.3204(8) 0.3384(10)
O7_4 O 0.9075(8) 0.4223(8) 0.3036(7)
O8_4 O 0.9066(9) 0.5249(7) 0.3400(8)
O9_2 O 0.8814(6) 0.5244(6) 0.4572(5)
C1_4 C 0.7959(13) 0.3720(9) 0.4684(12)
C2_4 C 0.7318(7) 0.4688(7) 0.2880(6)
N2_4 N 0.8765(14) 0.2816(10) 0.3757(14)
N3_4 N 0.9142(11) 0.4857(11) 0.2990(10)
O10_4 O 0.7497(11) 0.4113(8) 0.4421(11)
C3_3 C 0.7899(11) 0.3122(10) 0.5058(12)
O11_4 O 0.7012(5) 0.5003(6) 0.3095(5)
C4_4 C 0.7017(6) 0.4391(7) 0.2202(6)
O13_4 O 0.8750(11) 0.2187(8) 0.3740(13)
O14_4 O 0.9260(15) 0.5102(13) 0.2574(13)
Tb2 Tb 0.69073(2) 0.50881(3) 0.40634(2)
C5_3 C 0.8375(13) 0.2713(12) 0.5396(14)
C6_3 C 0.7348(12) 0.2995(10) 0.5080(11)
C7_4 C 0.7348(10) 0.4062(9) 0.1937(8)
C8_4 C 0.6355(8) 0.4446(9) 0.1841(8)
O15_4 O 0.5872(6) 0.5405(5) 0.3584(5)
O16_4 O 0.6872(7) 0.6269(6) 0.3597(6)
O17_4 O 0.6866(7) 0.6248(6) 0.4544(6)
O18_2 O 0.6303(10) 0.4116(9) 0.3565(12)
O19 O 0.6843(7) 0.4874(8) 0.5041(6)
O20_2 O 0.7914(6) 0.5477(7) 0.4561(6)
H1_3 H 0.8767 0.2819 0.5432
C9_3 C 0.8292(13) 0.2124(14) 0.5697(15)
C10_3 C 0.7295(16) 0.2449(10) 0.5420(15)
H2_4 H 0.7010 0.3282 0.4861
H3_4 H 0.7778 0.4032 0.2161
C11_4 C 0.7026(7) 0.3766(9) 0.1315(7)
C12_4 C 0.6041(8) 0.4138(11) 0.1243(8)
H4_4 H 0.6135 0.4696 0.2017
C13_4 C 0.5333(7) 0.5204(7) 0.3240(6)
N4_4 N 0.6814(10) 0.6606(6) 0.4041(10)
H5_3 H 0.8618 0.1816 0.5894
C14_3 C 0.7772(12) 0.2004(12) 0.5704(14)
H6_3 H 0.6929 0.2380 0.5459
H7_4 H 0.7249 0.3553 0.1120
C15_4 C 0.6399(9) 0.3780(8) 0.0990(6)
H8_4 H 0.5611 0.4163 0.1014
O21_4 O 0.5022(6) 0.4801(7) 0.3401(6)
C16_2 C 0.4991(8) 0.5484(9) 0.2541(7)
O22_4 O 0.6777(15) 0.7228(8) 0.4029(16)
N5_3 N 0.7687(9) 0.1389(10) 0.6030(10)
N6_4 N 0.6081(7) 0.3423(7) 0.0365(6)
Tb3 Tb 0.50794(3) 0.39470(4) 0.41343(3)
C17_4 C 0.5291(11) 0.5951(11) 0.2344(9)
C18_2 C 0.4388(9) 0.5285(11) 0.2150(8)
C19_3 C 0.8022(12) 0.1328(12) 0.6692(12)
C20_3 C 0.7243(12) 0.0909(14) 0.5656(16)
C21_4 C 0.6219(11) 0.2757(8) 0.0356(8)
O23_4 O 0.5591(9) 0.2964(8) 0.4919(8)
O24 O 0.4917(8) 0.3550(8) 0.5078(7)
O25_2 O 0.4715(8) 0.4954(7) 0.4524(7)
O26_2 O 0.3973(8) 0.4381(9) 0.3731(9)
O27_2 O 0.4435(11) 0.2867(9) 0.3800(8)
O28_2 O 0.4367(9) 0.3468(9) 0.2995(7)
O29_2 O 0.5736(8) 0.3397(8) 0.3806(8)
O30_2 O 0.5941(7) 0.4464(6) 0.4918(5)
H9_4 H 0.5703 0.6063 0.2613
C23_2 C 0.4970(11) 0.6265(11) 0.1725(9)
C24_2 C 0.4073(12) 0.5576(13) 0.1518(9)
H10_2 H 0.4192 0.4967 0.2300
H11_3 H 0.8327 0.1644 0.6934
C25_3 C 0.7890(14) 0.0779(13) 0.6990(12)
C26_3 C 0.7167(16) 0.0344(14) 0.5993(12)
H12_3 H 0.7009 0.0961 0.5205
H13_4 H 0.6503 0.2549 0.0740
N7_3 N 0.5321(11) 0.3043(10) 0.5270(8)
N8_2 N 0.4141(17) 0.4901(16) 0.4118(16)
N9_2 N 0.4200(12) 0.2940(10) 0.3188(9)
H15_4 H 0.5160 0.6594 0.1579
C29_2 C 0.4354(9) 0.6064(10) 0.1339(7)
H16_2 H 0.3677 0.5429 0.1232
H17_3 H 0.8100 0.0731 0.7444
C30_3 C 0.7435(11) 0.0283(10) 0.6615(11)
O31_3 O 0.5373(12) 0.2662(11) 0.5733(10)
O32_2 O 0.3732(15) 0.5320(15) 0.4089(15)
O33_2 O 0.3842(12) 0.2545(11) 0.2799(9)
N10_2 N 0.4014(9) 0.6454(8) 0.0718(6)
C34_2 C 0.4092(14) 0.7104(11) 0.0704(8)
C35_2 C 0.3631(9) 0.6088(10) 0.0165(8)
H21_2 H 0.4375 0.7334 0.1075
C40_2 C 0.3745(13) 0.7457(10) 0.0123(9)
H22_2 H 0.3557 0.5623 0.0180
H27_2 H 0.3733 0.7932 0.0137
H18_4 H 0.6906 0.0007 0.0749
C32_4 C 0.7220(14) 0.0238(11) 0.1971(12)
C36_4 C 0.7725(10) 0.0557(11) 0.2546(11)
C37_4 C 0.6683(16) 0.0484(15) 0.1687(16)
H23_4 H 0.8141 0.0433 0.2708
C42_4 C 0.7500(16) 0.1084(14) 0.2826(13)
C43_4 C 0.6496(13) 0.0977(14) 0.2008(14)
H24_4 H 0.6413 0.0340 0.1267
N11_4 N 0.6911(11) 0.1287(9) 0.2548(10)
H29_4 H 0.7775 0.1290 0.3216
H30_4 H 0.6078 0.1090 0.1844
C48_4 C 0.6728(13) 0.1868(10) 0.2850(12)
C52_4 C 0.6989(11) 0.2467(10) 0.2890(11)
C53_4 C 0.6238(19) 0.1745(11) 0.3028(18)
H35_4 H 0.7290 0.2527 0.2742
C58_4 C 0.6804(11) 0.3011(9) 0.3160(11)
C59_4 C 0.6033(14) 0.2316(12) 0.3228(16)
H36_4 H 0.6070 0.1313 0.3011
H41_4 H 0.7014 0.3427 0.3241
C62_4 C 0.6327(11) 0.2935(8) 0.3303(10)
H42_4 H 0.5690 0.2282 0.3313
C65_4 C 0.6109(10) 0.3537(9) 0.3570(10)
C41_3 C 0.8366(9) 0.1459(11) 0.9592(8)
C46_3 C 0.8435(8) 0.2150(9) 0.9558(8)
H28_3 H 0.8125 0.1226 0.9204
C47_3 C 0.8135(9) 0.2532(9) 0.8922(8)
C50_3 C 0.8377(7) 0.3191(8) 0.8869(7)
C51_3 C 0.7646(9) 0.2264(10) 0.8374(7)
H33_3 H 0.8723 0.3371 0.9220
C56_3 C 0.8089(10) 0.3549(9) 0.8295(7)
C57_3 C 0.7420(9) 0.2656(9) 0.7809(8)
H34_3 H 0.7476 0.1839 0.8385
N13_3 N 0.7637(6) 0.3263(6) 0.7771(5)
H39_3 H 0.8212 0.3995 0.8271
H40_3 H 0.7096 0.2480 0.7433
C64_3 C 0.7345(7) 0.3657(7) 0.7138(6)
C67_3 C 0.7747(7) 0.3917(10) 0.6906(7)
C68_3 C 0.6724(7) 0.3703(8) 0.6818(7)
H45_3 H 0.8176 0.3890 0.7144
C69_3 C 0.7455(8) 0.4228(9) 0.6279(7)
C70_3 C 0.6458(9) 0.4030(8) 0.6217(7)
H46_3 H 0.6477 0.3517 0.6999
H47_3 H 0.7698 0.4407 0.6090
C71_3 C 0.6831(8) 0.4271(7) 0.5949(7)
H48_3 H 0.6030 0.4086 0.5997
C72_3 C 0.6513(8) 0.4579(7) 0.5248(6)
C39_3 C 0.9675(8) 0.7576(8) 0.8054(7)
C45_3 C 0.9397(8) 0.7220(9) 0.7469(7)
H26_3 H 0.9502 0.7988 0.8096
N12_3 N 0.9683(7) 0.6653(7) 0.7387(6)
H32_3 H 0.9020 0.7366 0.7138
C49_3 C 0.9394(7) 0.6301(7) 0.6760(6)
C54_3 C 0.8768(9) 0.6212(10) 0.6468(8)
C55_3 C 0.9727(11) 0.6090(12) 0.6459(9)
H37_3 H 0.8539 0.6346 0.6689
C60_3 C 0.8462(8) 0.5921(9) 0.5842(7)
C61_3 C 0.9446(8) 0.5773(10) 0.5843(8)
H43_3 H 0.8033 0.5868 0.5642
C63_3 C 0.8814(7) 0.5713(7) 0.5526(6)
H44_3 H 0.9688 0.5604 0.5649
C66_4 C 0.8494(7) 0.5453(7) 0.4829(6)
O12_4 O 0.0730(13) 0.5878(17) 0.0347(15)
O4_4 O 0.0029(11) 0.5669(11) 0.9409(14)
N1_4 N 0.0172(15) 0.5763(15) 0.9925(15)
O3_4 O 0.9731(14) 0.5843(14) 0.0130(10)
C3_4 C 0.7899(11) 0.6878(10) 0.0058(12)
C5_4 C 0.8375(13) 0.7287(12) 0.0396(14)
C6_4 C 0.7348(12) 0.7005(10) 0.0080(11)
O19_2 O 0.6843(7) 0.5126(8) 0.0041(6)
H1_4 H 0.8767 0.7181 0.0432
C9_4 C 0.8292(13) 0.7876(14) 0.0697(15)
C10_4 C 0.7295(16) 0.7551(10) 0.0420(15)
H5_4 H 0.8618 0.8184 0.0894
C14_4 C 0.7772(12) 0.7996(12) 0.0704(14)
H6_4 H 0.6929 0.7620 0.0459
N5_4 N 0.7687(9) 0.8611(10) 0.1030(10)
C19_4 C 0.8022(12) 0.8672(12) 0.1692(12)
C20_4 C 0.7243(12) 0.9091(14) 0.0656(16)
O24_2 O 0.4917(8) 0.6450(8) 0.0078(7)
H11_4 H 0.8327 0.8356 0.1934
C25_4 C 0.7890(14) 0.9221(13) 0.1990(12)
C26_4 C 0.7167(16) 0.9656(14) 0.0993(12)
H12_4 H 0.7009 0.9039 0.0205
N7_4 N 0.5321(11) 0.6957(10) 0.0270(8)
H17_4 H 0.8100 0.9269 0.2444
C30_4 C 0.7435(11) 0.9717(10) 0.1615(11)
O31_4 O 0.5373(12) 0.7338(11) 0.0733(10)
C16_3 C 0.9991(8) 0.9516(9) 0.7541(7)
C18_3 C 0.9388(9) 0.9715(11) 0.7150(8)
C23_3 C 0.9970(11) 0.8735(11) 0.6725(9)
C24_3 C 0.9073(12) 0.9424(13) 0.6518(9)
C29_3 C 0.9354(9) 0.8936(10) 0.6339(7)
H16_3 H 0.8677 0.9571 0.6232
O32_3 O 0.8732(15) 0.9680(15) 0.9089(15)
N10_3 N 0.9014(9) 0.8546(8) 0.5718(6)
C34_3 C 0.9092(14) 0.7896(11) 0.5704(8)
C35_3 C 0.8631(9) 0.8912(10) 0.5165(8)
H21_3 H 0.9375 0.7666 0.6075
C40_3 C 0.8745(13) 0.7543(10) 0.5123(9)
C41_4 C 0.8366(9) 0.8541(11) 0.4592(8)
H22_3 H 0.8557 0.9377 0.5180
H27_3 H 0.8733 0.7068 0.5137
C46_4 C 0.8435(8) 0.7850(9) 0.4558(8)
H28_4 H 0.8125 0.8774 0.4204
C47_4 C 0.8135(9) 0.7468(9) 0.3922(8)
C50_4 C 0.8377(7) 0.6809(8) 0.3869(7)
C51_4 C 0.7646(9) 0.7736(10) 0.3374(7)
H33_4 H 0.8723 0.6629 0.4220
C56_4 C 0.8089(10) 0.6451(9) 0.3295(7)
C57_4 C 0.7420(9) 0.7344(9) 0.2809(8)
H34_4 H 0.7476 0.8161 0.3385
N13_4 N 0.7637(6) 0.6737(6) 0.2771(5)
H39_4 H 0.8212 0.6005 0.3271
H40_4 H 0.7096 0.7520 0.2433
C64_4 C 0.7345(7) 0.6343(7) 0.2138(6)
C67_4 C 0.7747(7) 0.6083(10) 0.1906(7)
C68_4 C 0.6724(7) 0.6297(8) 0.1818(7)
H45_4 H 0.8176 0.6110 0.2144
C69_4 C 0.7455(8) 0.5772(9) 0.1279(7)
C70_4 C 0.6458(9) 0.5970(8) 0.1217(7)
H46_4 H 0.6477 0.6483 0.1999
H47_4 H 0.7698 0.5593 0.1090
C71_4 C 0.6831(8) 0.5729(7) 0.0949(7)
H48_4 H 0.6030 0.5914 0.0997
C72_4 C 0.6513(8) 0.5421(7) 0.0248(6)
C22_4 C 0.0705(8) 0.8740(8) 0.9826(8)
C27_4 C 0.0944(10) 0.7374(8) 0.9779(7)
C28_4 C 0.0393(10) 0.8381(8) 0.9266(7)
H14_4 H 0.0653 0.9211 0.9829
H19_4 H 0.1039 0.6913 0.9775
C31_4 C 0.0520(8) 0.7699(7) 0.9207(6)
H20_4 H 0.0082 0.8599 0.8907
C33_4 C 0.0202(7) 0.7339(8) 0.8576(6)
C38_4 C 0.0497(11) 0.6738(9) 0.8461(9)
H25_4 H 0.0882 0.6588 0.8775
C44_4 C 0.0194(9) 0.6400(9) 0.7880(8)
H31_4 H 0.0347 0.5980 0.7824
H38_4 H 0.0155 0.6154 0.6661
C16_4 C 0.9991(8) 0.0484(9) 0.2541(7)
C18_4 C 0.9388(9) 0.0285(11) 0.2150(8)
C23_4 C 0.9970(11) 0.1265(11) 0.1725(9)
C24_4 C 0.9073(12) 0.0576(13) 0.1518(9)
C29_4 C 0.9354(9) 0.1064(10) 0.1339(7)
H16_4 H 0.8677 0.0429 0.1232
O32_4 O 0.8732(15) 0.0320(15) 0.4089(15)
N10_4 N 0.9014(9) 0.1454(8) 0.0718(6)
C34_4 C 0.9092(14) 0.2104(11) 0.0704(8)
C35_4 C 0.8631(9) 0.1088(10) 0.0165(8)
H21_4 H 0.9375 0.2334 0.1075
C40_4 C 0.8745(13) 0.2457(10) 0.0123(9)
H22_4 H 0.8557 0.0623 0.0180
H27_4 H 0.8733 0.2932 0.0137
O24_3 O 0.9917(8) 0.8550(8) 0.5078(7)
O25_3 O 0.9715(8) 0.9954(7) 0.4524(7)
O26_3 O 0.8973(8) 0.9381(9) 0.3731(9)
O27_3 O 0.9435(11) 0.7867(9) 0.3800(8)
O28_3 O 0.9367(9) 0.8468(9) 0.2995(7)
H10_3 H 0.9192 0.9967 0.2300
N8_3 N 0.9141(17) 0.9901(16) 0.4118(16)
N9_3 N 0.9200(12) 0.7940(10) 0.3188(9)
O33_3 O 0.8842(12) 0.7545(11) 0.2799(9)
O24_4 O 0.9917(8) 0.1450(8) 0.0078(7)
O25_4 O 0.9715(8) 0.0046(7) 0.9524(7)
O26_4 O 0.8973(8) 0.0619(9) 0.8731(9)
O27_4 O 0.9435(11) 0.2133(9) 0.8800(8)
O28_4 O 0.9367(9) 0.1532(9) 0.7995(7)
H10_4 H 0.9192 0.0033 0.7300
N8_4 N 0.9141(17) 0.0099(16) 0.9118(16)
N9_4 N 0.9200(12) 0.2060(10) 0.8188(9)
O33_4 O 0.8842(12) 0.2455(11) 0.7799(9)
C39_4 C 0.9675(8) 0.2424(8) 0.3054(7)
C45_4 C 0.9397(8) 0.2780(9) 0.2469(7)
H26_4 H 0.9502 0.2012 0.3096
N12_4 N 0.9683(7) 0.3347(7) 0.2387(6)
H32_4 H 0.9020 0.2634 0.2138
C49_4 C 0.9394(7) 0.3699(7) 0.1760(6)
C54_4 C 0.8768(9) 0.3788(10) 0.1468(8)
C55_4 C 0.9727(11) 0.3910(12) 0.1459(9)
H37_4 H 0.8539 0.3654 0.1689
C60_4 C 0.8462(8) 0.4079(9) 0.0842(7)
C61_4 C 0.9446(8) 0.4227(10) 0.0843(8)
H43_4 H 0.8033 0.4132 0.0642
C63_4 C 0.8814(7) 0.4287(7) 0.0526(6)
H44_4 H 0.9688 0.4396 0.0649
Cl1 Cl 0.7826(4) 0.8157(4) 0.6446(5)
O40 O 0.8374(13) 0.8353(15) 0.7029(15)
O41 O 0.796(2) 0.7601(13) 0.614(2)
O42 O 0.765(3) 0.872(2) 0.601(3)
O43 O 0.7327(12) 0.7971(12) 0.6602(13)
Cl1_2 Cl 0.7826(4) 0.1843(4) 0.1446(5)
O40_2 O 0.8374(13) 0.1647(15) 0.2029(15)
O41_2 O 0.796(2) 0.2399(13) 0.114(2)
O42_2 O 0.765(3) 0.128(2) 0.101(3)
O43_2 O 0.7327(12) 0.2029(12) 0.1602(13)
Cl1_3 Cl 0.2826(4) 0.3157(4) 0.6446(5)
O40_3 O 0.3374(13) 0.3353(15) 0.7029(15)
O41_3 O 0.296(2) 0.2601(13) 0.614(2)
O42_3 O 0.265(3) 0.372(2) 0.601(3)
O43_3 O 0.2327(12) 0.2971(12) 0.6602(13)
Cl1_4 Cl 0.2826(4) 0.6843(4) 0.1446(5)
O40_4 O 0.3374(13) 0.6647(15) 0.2029(15)
O41_4 O 0.296(2) 0.7399(13) 0.114(2)
O42_4 O 0.265(3) 0.628(2) 0.101(3)
O43_4 O 0.2327(12) 0.7029(12) 0.1602(13)
O44 O 0.673(3) 0.046(2) 0.814(2)
O45 O 0.628(3) 0.025(5) 0.876(4)
N14 N 0.6743(14) 0.0228(13) 0.8664(14)
O46 O 0.722(3) 0.990(4) 0.903(3)
O46_2 O 0.722(3) 0.010(4) 0.403(3)
O44_2 O 0.673(3) 0.954(2) 0.314(2)
O45_2 O 0.628(3) 0.975(5) 0.376(4)
N14_2 N 0.6743(14) 0.9772(13) 0.3664(14)
O44_3 O 0.173(3) 0.546(2) 0.814(2)
O45_3 O 0.128(3) 0.525(5) 0.876(4)
O46_3 O 0.222(3) 0.490(4) 0.903(3)
N14_3 N 0.1743(14) 0.5228(13) 0.8664(14)
O44_4 O 0.173(3) 0.454(2) 0.314(2)
O45_4 O 0.128(3) 0.475(5) 0.376(4)
O46_4 O 0.222(3) 0.510(4) 0.403(3)
N14_4 N 0.1743(14) 0.4772(13) 0.3664(14)
loop_
_geom_bond_atom_site_label_1
_geom_bond_atom_site_label_2
_geom_bond_site_symmetry_1
_geom_bond_site_symmetry_2
O12 N1 1_555 1_555
O4 N1 1_555 1_555
C28 C22 1_555 1_555
H14 C22 1_555 1_555
H19 C27 1_555 1_555
C31 C27 1_555 1_555
H20 C28 1_555 1_555
C33 C31 1_555 1_555
C38 C33 1_555 1_555
C39 C33 1_555 1_555
H25 C38 1_555 1_555
C44 C38 1_555 1_555
C45 C39 1_555 1_555
H26 C39 1_555 1_555
H28 C41 1_555 1_555
N12 C44 1_555 1_555
H31 C44 1_555 1_555
H32 C45 1_555 1_555
C47 C46 1_555 1_555
C49 N12 1_555 1_555
C50 C47 1_555 1_555
C51 C47 1_555 1_555
C54 C49 1_555 1_555
C55 C49 1_555 1_555
H33 C50 1_555 1_555
C56 C50 1_555 1_555
C57 C51 1_555 1_555
H34 C51 1_555 1_555
H37 C54 1_555 1_555
C60 C54 1_555 1_555
C61 C55 1_555 1_555
H38 C55 1_555 1_555
N13 C56 1_555 1_555
H39 C56 1_555 1_555
H40 C57 1_555 1_555
H43 C60 1_555 1_555
C63 C60 1_555 1_555
H44 C61 1_555 1_555
C64 N13 1_555 1_555
C66 C63 1_555 1_555
C67 C64 1_555 1_555
C68 C64 1_555 1_555
H45 C67 1_555 1_555
C69 C67 1_555 1_555
C70 C68 1_555 1_555
H46 C68 1_555 1_555
H47 C69 1_555 1_555
C71 C69 1_555 1_555
H48 C70 1_555 1_555
C72 C71 1_555 1_555
O36 C66 1_555 1_555
O37 C66 1_555 1_555
Tb9 O36 1_555 1_555
O38 C72 1_555 1_555
O39 C72 1_555 1_555
Tb8 O38 1_555 1_555
C28 C31 1_555 1_555
C41 C46 1_555 1_555
C45 N12 1_555 1_555
C57 N13 1_555 1_555
C61 C63 1_555 1_555
C70 C71 1_555 1_555
C36 C32 1_555 1_555
C37 C32 1_555 1_555
H23 C36 1_555 1_555
C42 C36 1_555 1_555
C43 C37 1_555 1_555
H24 C37 1_555 1_555
N11 C42 1_555 1_555
H29 C42 1_555 1_555
H30 C43 1_555 1_555
C48 N11 1_555 1_555
C52 C48 1_555 1_555
C53 C48 1_555 1_555
H35 C52 1_555 1_555
C58 C52 1_555 1_555
C59 C53 1_555 1_555
H36 C53 1_555 1_555
H41 C58 1_555 1_555
C62 C58 1_555 1_555
H42 C59 1_555 1_555
C65 C62 1_555 1_555
O34 C65 1_555 1_555
O35 C65 1_555 1_555
Tb4 O34 1_555 1_555
Tb5 O35 1_555 1_555
C43 N11 1_555 1_555
C59 C62 1_555 1_555
Tb1 O1 1_555 1_555
O1 C1 1_555 1_555
O2 Tb1 1_555 1_555
O5 Tb1 1_555 1_555
O6 Tb1 1_555 1_555
O7 Tb1 1_555 1_555
O8 Tb1 1_555 1_555
O9 Tb1 1_555 1_555
C1 O10 1_555 1_555
C2 O2 1_555 1_555
N2 O5 1_555 1_555
N3 O7 1_555 1_555
O10 Tb4 1_555 1_555
O11 C2 1_555 1_555
C4 C2 1_555 1_555
O13 N2 1_555 1_555
O14 N3 1_555 1_555
Tb4 O11 1_555 1_555
C7 C4 1_555 1_555
C8 C4 1_555 1_555
O15 Tb4 1_555 1_555
O16 Tb4 1_555 1_555
O17 Tb4 1_555 1_555
O20 Tb4 1_555 1_555
H3 C7 1_555 1_555
C11 C7 1_555 1_555
C12 C8 1_555 1_555
H4 C8 1_555 1_555
C13 O15 1_555 1_555
N4 O16 1_555 1_555
H7 C11 1_555 1_555
C15 C11 1_555 1_555
H8 C12 1_555 1_555
O21 C13 1_555 1_555
C16 C13 1_555 1_555
O22 N4 1_555 1_555
N6 C15 1_555 1_555
Tb5 O21 1_555 1_555
C17 C16 1_555 1_555
C18 C16 1_555 1_555
C21 N6 1_555 1_555
C22_2 N6 1_555 1_555
O23 Tb5 1_555 1_555
O25 Tb5 1_555 1_555
O26 Tb5 1_555 1_555
O27 Tb5 1_555 1_555
O28 Tb5 1_555 1_555
O30 Tb5 1_555 1_555
H9 C17 1_555 1_555
C23 C17 1_555 1_555
C24 C18 1_555 1_555
H10 C18 1_555 1_555
H13 C21 1_555 1_555
C27_2 C21 1_555 1_555
C28_2 C22_2 1_555 1_555
H14_2 C22_2 1_555 1_555
N8 O25 1_555 1_555
N9 O27 1_555 1_555
H15 C23 1_555 1_555
C29 C23 1_555 1_555
H16 C24 1_555 1_555
H19_2 C27_2 1_555 1_555
C31_2 C27_2 1_555 1_555
H20_2 C28_2 1_555 1_555
O32 N8 1_555 1_555
O33 N9 1_555 1_555
N10 C29 1_555 1_555
C33_2 C31_2 1_555 1_555
C34 N10 1_555 1_555
C35 N10 1_555 1_555
C38_2 C33_2 1_555 1_555
C39_2 C33_2 1_555 1_555
H21 C34 1_555 1_555
C40 C34 1_555 1_555
C41_2 C35 1_555 1_555
H22 C35 1_555 1_555
H25_2 C38_2 1_555 1_555
C44_2 C38_2 1_555 1_555
C45_2 C39_2 1_555 1_555
H26_2 C39_2 1_555 1_555
H27 C40 1_555 1_555
C46_2 C40 1_555 1_555
H28_2 C41_2 1_555 1_555
N12_2 C44_2 1_555 1_555
H31_2 C44_2 1_555 1_555
H32_2 C45_2 1_555 1_555
C47_2 C46_2 1_555 1_555
C49_2 N12_2 1_555 1_555
C50_2 C47_2 1_555 1_555
C51_2 C47_2 1_555 1_555
C54_2 C49_2 1_555 1_555
C55_2 C49_2 1_555 1_555
H33_2 C50_2 1_555 1_555
C56_2 C50_2 1_555 1_555
C57_2 C51_2 1_555 1_555
H34_2 C51_2 1_555 1_555
H37_2 C54_2 1_555 1_555
C60_2 C54_2 1_555 1_555
C61_2 C55_2 1_555 1_555
H38_2 C55_2 1_555 1_555
N13_2 C56_2 1_555 1_555
H39_2 C56_2 1_555 1_555
H40_2 C57_2 1_555 1_555
H43_2 C60_2 1_555 1_555
C63_2 C60_2 1_555 1_555
H44_2 C61_2 1_555 1_555
C64_2 N13_2 1_555 1_555
C67_2 C64_2 1_555 1_555
C68_2 C64_2 1_555 1_555
H45_2 C67_2 1_555 1_555
C69_2 C67_2 1_555 1_555
C70_2 C68_2 1_555 1_555
H46_2 C68_2 1_555 1_555
H47_2 C69_2 1_555 1_555
C71_2 C69_2 1_555 1_555
H48_2 C70_2 1_555 1_555
C72_2 C71_2 1_555 1_555
O39_2 C72_2 1_555 1_555
O6 N2 1_555 1_555
O8 N3 1_555 1_555
O17 N4 1_555 1_555
C12 C15 1_555 1_555
O26 N8 1_555 1_555
O28 N9 1_555 1_555
C24 C29 1_555 1_555
C28_2 C31_2 1_555 1_555
C41_2 C46_2 1_555 1_555
C45_2 N12_2 1_555 1_555
C57_2 N13_2 1_555 1_555
C61_2 C63_2 1_555 1_555
C70_2 C71_2 1_555 1_555
O36_2 C66_2 1_555 1_555
O37_2 C66_2 1_555 1_555
Tb6 O36_2 1_555 1_555
Tb8_2 O38_2 1_555 1_555
Tb9 O11_2 1_555 1_555
O15_2 Tb9 1_555 1_555
O16_2 Tb9 1_555 1_555
O17_2 Tb9 1_555 1_555
C13_2 O15_2 1_555 1_555
N4_2 O16_2 1_555 1_555
O22_2 N4_2 1_555 1_555
H9_2 C17_2 1_555 1_555
O17_2 N4_2 1_555 1_555
Tb7 O1_2 1_555 1_555
O1_2 C1_2 1_555 1_555
O2_2 Tb7 1_555 1_555
O3 Tb7 1_555 1_555
O4_2 Tb7 1_555 1_555
O5_2 Tb7 1_555 1_555
O6_2 Tb7 1_555 1_555
O7_2 Tb7 1_555 1_555
C1_2 O10_2 1_555 1_555
C2_2 O2_2 1_555 1_555
N1_2 O3 1_555 1_555
N2_2 O5_2 1_555 1_555
N3_2 O7_2 1_555 1_555
C3 C1_2 1_555 1_555
C4_2 C2_2 1_555 1_555
O12_2 N1_2 1_555 1_555
O13_2 N2_2 1_555 1_555
C5 C3 1_555 1_555
C6 C3 1_555 1_555
C7_2 C4_2 1_555 1_555
C8_2 C4_2 1_555 1_555
H1 C5 1_555 1_555
C9 C5 1_555 1_555
C10 C6 1_555 1_555
H2_2 C6 1_555 1_555
H3_2 C7_2 1_555 1_555
C11_2 C7_2 1_555 1_555
C12_2 C8_2 1_555 1_555
H4_2 C8_2 1_555 1_555
H5 C9 1_555 1_555
C14 C9 1_555 1_555
H6 C10 1_555 1_555
H7_2 C11_2 1_555 1_555
C15_2 C11_2 1_555 1_555
H8_2 C12_2 1_555 1_555
N5 C14 1_555 1_555
N6_2 C15_2 1_555 1_555
Tb8 O21_2 1_555 1_555
C19 N5 1_555 1_555
C20 N5 1_555 1_555
C21_2 N6_2 1_555 1_555
O23_2 Tb8 1_555 1_555
O29 Tb8 1_555 1_555
H11 C19 1_555 1_555
C25 C19 1_555 1_555
C26 C20 1_555 1_555
H12 C20 1_555 1_555
H13_2 C21_2 1_555 1_555
N7 O23_2 1_555 1_555
H17 C25 1_555 1_555
C30 C25 1_555 1_555
H18_2 C26 1_555 1_555
O31 N7 1_555 1_555
C32_2 C30 1_555 1_555
C36_2 C32_2 1_555 1_555
C37_2 C32_2 1_555 1_555
H23_2 C36_2 1_555 1_555
C42_2 C36_2 1_555 1_555
C43_2 C37_2 1_555 1_555
H24_2 C37_2 1_555 1_555
N11_2 C42_2 1_555 1_555
H29_2 C42_2 1_555 1_555
H30_2 C43_2 1_555 1_555
C48_2 N11_2 1_555 1_555
C52_2 C48_2 1_555 1_555
C53_2 C48_2 1_555 1_555
H35_2 C52_2 1_555 1_555
C58_2 C52_2 1_555 1_555
C59_2 C53_2 1_555 1_555
H36_2 C53_2 1_555 1_555
H41_2 C58_2 1_555 1_555
C62_2 C58_2 1_555 1_555
H42_2 C59_2 1_555 1_555
C65_2 C62_2 1_555 1_555
O34_2 C65_2 1_555 1_555
O35_2 C65_2 1_555 1_555
Tb8_2 O35_2 1_555 1_555
O4_2 N1_2 1_555 1_555
O6_2 N2_2 1_555 1_555
C10 C14 1_555 1_555
C12_2 C15_2 1_555 1_555
C26 C30 1_555 1_555
C43_2 N11_2 1_555 1_555
C59_2 C62_2 1_555 1_555
C5_2 C3_2 1_555 1_555
C6_2 C3_2 1_555 1_555
H1_2 C5_2 1_555 1_555
C9_2 C5_2 1_555 1_555
C10_2 C6_2 1_555 1_555
H5_2 C9_2 1_555 1_555
C14_2 C9_2 1_555 1_555
H6_2 C10_2 1_555 1_555
N5_2 C14_2 1_555 1_555
C19_2 N5_2 1_555 1_555
C20_2 N5_2 1_555 1_555
H11_2 C19_2 1_555 1_555
C25_2 C19_2 1_555 1_555
C26_2 C20_2 1_555 1_555
H12_2 C20_2 1_555 1_555
H17_2 C25_2 1_555 1_555
C30_2 C25_2 1_555 1_555
H18_3 C26_2 1_555 1_555
O31_2 N7_2 1_555 1_555
C32_3 C30_2 1_555 1_555
C36_3 C32_3 1_555 1_555
C37_3 C32_3 1_555 1_555
H23_3 C36_3 1_555 1_555
C42_3 C36_3 1_555 1_555
C43_3 C37_3 1_555 1_555
H24_3 C37_3 1_555 1_555
N11_3 C42_3 1_555 1_555
H29_3 C42_3 1_555 1_555
H30_3 C43_3 1_555 1_555
C48_3 N11_3 1_555 1_555
C52_3 C48_3 1_555 1_555
C53_3 C48_3 1_555 1_555
H35_3 C52_3 1_555 1_555
C58_3 C52_3 1_555 1_555
C59_3 C53_3 1_555 1_555
H36_3 C53_3 1_555 1_555
H41_3 C58_3 1_555 1_555
C62_3 C58_3 1_555 1_555
H42_3 C59_3 1_555 1_555
C65_3 C62_3 1_555 1_555
O18 C65_3 1_555 1_555
O29 C65_3 1_555 1_555
C10_2 C14_2 1_555 1_555
C26_2 C30_2 1_555 1_555
C43_3 N11_3 1_555 1_555
C59_3 C62_3 1_555 1_555
Tb7_2 O1_3 1_555 1_555
O1_3 C1_3 1_555 1_555
O2_3 Tb7_2 1_555 1_555
O4_3 Tb7_2 1_555 1_555
O5_3 Tb7_2 1_555 1_555
O6_3 Tb7_2 1_555 1_555
O7_3 Tb7_2 1_555 1_555
C1_3 O10_3 1_555 1_555
C2_3 O2_3 1_555 1_555
N2_3 O5_3 1_555 1_555
N3_3 O7_3 1_555 1_555
C4_3 C2_3 1_555 1_555
O13_3 N2_3 1_555 1_555
C7_3 C4_3 1_555 1_555
C8_3 C4_3 1_555 1_555
H3_3 C7_3 1_555 1_555
C11_3 C7_3 1_555 1_555
C12_3 C8_3 1_555 1_555
H4_3 C8_3 1_555 1_555
H7_3 C11_3 1_555 1_555
C15_3 C11_3 1_555 1_555
H8_3 C12_3 1_555 1_555
N6_3 C15_3 1_555 1_555
Tb8_2 O21_3 1_555 1_555
C21_3 N6_3 1_555 1_555
C22_3 N6_3 1_555 1_555
O23_3 Tb8_2 1_555 1_555
H13_3 C21_3 1_555 1_555
C27_3 C21_3 1_555 1_555
C28_3 C22_3 1_555 1_555
H14_3 C22_3 1_555 1_555
H19_3 C27_3 1_555 1_555
C31_3 C27_3 1_555 1_555
H20_3 C28_3 1_555 1_555
C33_3 C31_3 1_555 1_555
C38_3 C33_3 1_555 1_555
H25_3 C38_3 1_555 1_555
C44_3 C38_3 1_555 1_555
H31_3 C44_3 1_555 1_555
O4_3 N1_3 1_555 1_555
O6_3 N2_3 1_555 1_555
C12_3 C15_3 1_555 1_555
C28_3 C31_3 1_555 1_555
Tb6 O11_3 1_555 1_555
O15_3 Tb6 1_555 1_555
O16_3 Tb6 1_555 1_555
O17_3 Tb6 1_555 1_555
C13_3 O15_3 1_555 1_555
N4_3 O16_3 1_555 1_555
O22_3 N4_3 1_555 1_555
H9_3 C17_3 1_555 1_555
O17_3 N4_3 1_555 1_555
O20 C66_3 1_555 1_555
O9 C66_3 1_555 1_555
Tb1_2 O1_4 1_555 1_555
O1_4 C1_4 1_555 1_555
O2_4 Tb1_2 1_555 1_555
O3_3 Tb1_2 1_555 1_555
O5_4 Tb1_2 1_555 1_555
O6_4 Tb1_2 1_555 1_555
O7_4 Tb1_2 1_555 1_555
O8_4 Tb1_2 1_555 1_555
O9_2 Tb1_2 1_555 1_555
C1_4 O10_4 1_555 1_555
C2_4 O2_4 1_555 1_555
N2_4 O5_4 1_555 1_555
N3_4 O7_4 1_555 1_555
O10_4 Tb2 1_555 1_555
C3_3 C1_4 1_555 1_555
O11_4 C2_4 1_555 1_555
C4_4 C2_4 1_555 1_555
O13_4 N2_4 1_555 1_555
O14_4 N3_4 1_555 1_555
Tb2 O11_4 1_555 1_555
C5_3 C3_3 1_555 1_555
C6_3 C3_3 1_555 1_555
C7_4 C4_4 1_555 1_555
C8_4 C4_4 1_555 1_555
O15_4 Tb2 1_555 1_555
O16_4 Tb2 1_555 1_555
O17_4 Tb2 1_555 1_555
O18_2 Tb2 1_555 1_555
O19 Tb2 1_555 1_555
O20_2 Tb2 1_555 1_555
H1_3 C5_3 1_555 1_555
C9_3 C5_3 1_555 1_555
C10_3 C6_3 1_555 1_555
H2_4 C6_3 1_555 1_555
H3_4 C7_4 1_555 1_555
C11_4 C7_4 1_555 1_555
C12_4 C8_4 1_555 1_555
H4_4 C8_4 1_555 1_555
C13_4 O15_4 1_555 1_555
N4_4 O16_4 1_555 1_555
H5_3 C9_3 1_555 1_555
C14_3 C9_3 1_555 1_555
H6_3 C10_3 1_555 1_555
H7_4 C11_4 1_555 1_555
C15_4 C11_4 1_555 1_555
H8_4 C12_4 1_555 1_555
O21_4 C13_4 1_555 1_555
C16_2 C13_4 1_555 1_555
O22_4 N4_4 1_555 1_555
N5_3 C14_3 1_555 1_555
N6_4 C15_4 1_555 1_555
Tb3 O21_4 1_555 1_555
C17_4 C16_2 1_555 1_555
C18_2 C16_2 1_555 1_555
C19_3 N5_3 1_555 1_555
C20_3 N5_3 1_555 1_555
C21_4 N6_4 1_555 1_555
O23_4 Tb3 1_555 1_555
O24 Tb3 1_555 1_555
O25_2 Tb3 1_555 1_555
O26_2 Tb3 1_555 1_555
O27_2 Tb3 1_555 1_555
O28_2 Tb3 1_555 1_555
O29_2 Tb3 1_555 1_555
O30_2 Tb3 1_555 1_555
H9_4 C17_4 1_555 1_555
C23_2 C17_4 1_555 1_555
C24_2 C18_2 1_555 1_555
H10_2 C18_2 1_555 1_555
H11_3 C19_3 1_555 1_555
C25_3 C19_3 1_555 1_555
C26_3 C20_3 1_555 1_555
H12_3 C20_3 1_555 1_555
H13_4 C21_4 1_555 1_555
N7_3 O23_4 1_555 1_555
N8_2 O25_2 1_555 1_555
N9_2 O27_2 1_555 1_555
H15_4 C23_2 1_555 1_555
C29_2 C23_2 1_555 1_555
H16_2 C24_2 1_555 1_555
H17_3 C25_3 1_555 1_555
C30_3 C25_3 1_555 1_555
O31_3 N7_3 1_555 1_555
O32_2 N8_2 1_555 1_555
O33_2 N9_2 1_555 1_555
N10_2 C29_2 1_555 1_555
C34_2 N10_2 1_555 1_555
C35_2 N10_2 1_555 1_555
H21_2 C34_2 1_555 1_555
C40_2 C34_2 1_555 1_555
H22_2 C35_2 1_555 1_555
H27_2 C40_2 1_555 1_555
O6_4 N2_4 1_555 1_555
O8_4 N3_4 1_555 1_555
O17_4 N4_4 1_555 1_555
C10_3 C14_3 1_555 1_555
C12_4 C15_4 1_555 1_555
O24 N7_3 1_555 1_555
O26_2 N8_2 1_555 1_555
O28_2 N9_2 1_555 1_555
C24_2 C29_2 1_555 1_555
C26_3 C30_3 1_555 1_555
C36_4 C32_4 1_555 1_555
C37_4 C32_4 1_555 1_555
H23_4 C36_4 1_555 1_555
C42_4 C36_4 1_555 1_555
C43_4 C37_4 1_555 1_555
H24_4 C37_4 1_555 1_555
N11_4 C42_4 1_555 1_555
H29_4 C42_4 1_555 1_555
H30_4 C43_4 1_555 1_555
C48_4 N11_4 1_555 1_555
C52_4 C48_4 1_555 1_555
C53_4 C48_4 1_555 1_555
H35_4 C52_4 1_555 1_555
C58_4 C52_4 1_555 1_555
C59_4 C53_4 1_555 1_555
H36_4 C53_4 1_555 1_555
H41_4 C58_4 1_555 1_555
C62_4 C58_4 1_555 1_555
H42_4 C59_4 1_555 1_555
C65_4 C62_4 1_555 1_555
O18_2 C65_4 1_555 1_555
O29_2 C65_4 1_555 1_555
C43_4 N11_4 1_555 1_555
C59_4 C62_4 1_555 1_555
H28_3 C41_3 1_555 1_555
C47_3 C46_3 1_555 1_555
C50_3 C47_3 1_555 1_555
C51_3 C47_3 1_555 1_555
H33_3 C50_3 1_555 1_555
C56_3 C50_3 1_555 1_555
C57_3 C51_3 1_555 1_555
H34_3 C51_3 1_555 1_555
N13_3 C56_3 1_555 1_555
H39_3 C56_3 1_555 1_555
H40_3 C57_3 1_555 1_555
C64_3 N13_3 1_555 1_555
C67_3 C64_3 1_555 1_555
C68_3 C64_3 1_555 1_555
H45_3 C67_3 1_555 1_555
C69_3 C67_3 1_555 1_555
C70_3 C68_3 1_555 1_555
H46_3 C68_3 1_555 1_555
H47_3 C69_3 1_555 1_555
C71_3 C69_3 1_555 1_555
H48_3 C70_3 1_555 1_555
C72_3 C71_3 1_555 1_555
O30_2 C72_3 1_555 1_555
O19 C72_3 1_555 1_555
C41_3 C46_3 1_555 1_555
C57_3 N13_3 1_555 1_555
C70_3 C71_3 1_555 1_555
C45_3 C39_3 1_555 1_555
H26_3 C39_3 1_555 1_555
H32_3 C45_3 1_555 1_555
C49_3 N12_3 1_555 1_555
C54_3 C49_3 1_555 1_555
C55_3 C49_3 1_555 1_555
H37_3 C54_3 1_555 1_555
C60_3 C54_3 1_555 1_555
C61_3 C55_3 1_555 1_555
H43_3 C60_3 1_555 1_555
C63_3 C60_3 1_555 1_555
H44_3 C61_3 1_555 1_555
C66_4 C63_3 1_555 1_555
O20_2 C66_4 1_555 1_555
O9_2 C66_4 1_555 1_555
C45_3 N12_3 1_555 1_555
C61_3 C63_3 1_555 1_555
O4_4 N1_4 1_555 1_555
C5_4 C3_4 1_555 1_555
C6_4 C3_4 1_555 1_555
H1_4 C5_4 1_555 1_555
C9_4 C5_4 1_555 1_555
C10_4 C6_4 1_555 1_555
H5_4 C9_4 1_555 1_555
C14_4 C9_4 1_555 1_555
H6_4 C10_4 1_555 1_555
N5_4 C14_4 1_555 1_555
C19_4 N5_4 1_555 1_555
C20_4 N5_4 1_555 1_555
H11_4 C19_4 1_555 1_555
C25_4 C19_4 1_555 1_555
C26_4 C20_4 1_555 1_555
H12_4 C20_4 1_555 1_555
H17_4 C25_4 1_555 1_555
C30_4 C25_4 1_555 1_555
O31_4 N7_4 1_555 1_555
C10_4 C14_4 1_555 1_555
O24_2 N7_4 1_555 1_555
C26_4 C30_4 1_555 1_555
C18_3 C16_3 1_555 1_555
C24_3 C18_3 1_555 1_555
C29_3 C23_3 1_555 1_555
H16_3 C24_3 1_555 1_555
N10_3 C29_3 1_555 1_555
C34_3 N10_3 1_555 1_555
C35_3 N10_3 1_555 1_555
H21_3 C34_3 1_555 1_555
C40_3 C34_3 1_555 1_555
C41_4 C35_3 1_555 1_555
H22_3 C35_3 1_555 1_555
H27_3 C40_3 1_555 1_555
C46_4 C40_3 1_555 1_555
H28_4 C41_4 1_555 1_555
C47_4 C46_4 1_555 1_555
C50_4 C47_4 1_555 1_555
C51_4 C47_4 1_555 1_555
H33_4 C50_4 1_555 1_555
C56_4 C50_4 1_555 1_555
C57_4 C51_4 1_555 1_555
H34_4 C51_4 1_555 1_555
N13_4 C56_4 1_555 1_555
H39_4 C56_4 1_555 1_555
H40_4 C57_4 1_555 1_555
C64_4 N13_4 1_555 1_555
C67_4 C64_4 1_555 1_555
C68_4 C64_4 1_555 1_555
H45_4 C67_4 1_555 1_555
C69_4 C67_4 1_555 1_555
C70_4 C68_4 1_555 1_555
H46_4 C68_4 1_555 1_555
H47_4 C69_4 1_555 1_555
C71_4 C69_4 1_555 1_555
H48_4 C70_4 1_555 1_555
C72_4 C71_4 1_555 1_555
O19_2 C72_4 1_555 1_555
C24_3 C29_3 1_555 1_555
C41_4 C46_4 1_555 1_555
C57_4 N13_4 1_555 1_555
C70_4 C71_4 1_555 1_555
C28_4 C22_4 1_555 1_555
H14_4 C22_4 1_555 1_555
H19_4 C27_4 1_555 1_555
C31_4 C27_4 1_555 1_555
H20_4 C28_4 1_555 1_555
C33_4 C31_4 1_555 1_555
C38_4 C33_4 1_555 1_555
H25_4 C38_4 1_555 1_555
C44_4 C38_4 1_555 1_555
H31_4 C44_4 1_555 1_555
C28_4 C31_4 1_555 1_555
C18_4 C16_4 1_555 1_555
C24_4 C18_4 1_555 1_555
C29_4 C23_4 1_555 1_555
H16_4 C24_4 1_555 1_555
N10_4 C29_4 1_555 1_555
C34_4 N10_4 1_555 1_555
C35_4 N10_4 1_555 1_555
H21_4 C34_4 1_555 1_555
C40_4 C34_4 1_555 1_555
H22_4 C35_4 1_555 1_555
H27_4 C40_4 1_555 1_555
C24_4 C29_4 1_555 1_555
N8_3 O25_3 1_555 1_555
N9_3 O27_3 1_555 1_555
O33_3 N9_3 1_555 1_555
O26_3 N8_3 1_555 1_555
O28_3 N9_3 1_555 1_555
N8_4 O25_4 1_555 1_555
N9_4 O27_4 1_555 1_555
O33_4 N9_4 1_555 1_555
C45_4 C39_4 1_555 1_555
H26_4 C39_4 1_555 1_555
H32_4 C45_4 1_555 1_555
C49_4 N12_4 1_555 1_555
C54_4 C49_4 1_555 1_555
C55_4 C49_4 1_555 1_555
H37_4 C54_4 1_555 1_555
C60_4 C54_4 1_555 1_555
C61_4 C55_4 1_555 1_555
H43_4 C60_4 1_555 1_555
C63_4 C60_4 1_555 1_555
H44_4 C61_4 1_555 1_555
O26_4 N8_4 1_555 1_555
O28_4 N9_4 1_555 1_555
C45_4 N12_4 1_555 1_555
C61_4 C63_4 1_555 1_555
Cl1 O40 1_555 1_555
O41 Cl1 1_555 1_555
O42 Cl1 1_555 1_555
O43 Cl1 1_555 1_555
Cl1_2 O40_2 1_555 1_555
O41_2 Cl1_2 1_555 1_555
O42_2 Cl1_2 1_555 1_555
O43_2 Cl1_2 1_555 1_555
Cl1_3 O40_3 1_555 1_555
O41_3 Cl1_3 1_555 1_555
O42_3 Cl1_3 1_555 1_555
O43_3 Cl1_3 1_555 1_555
Cl1_4 O40_4 1_555 1_555
O41_4 Cl1_4 1_555 1_555
O42_4 Cl1_4 1_555 1_555
O43_4 Cl1_4 1_555 1_555
O44 N14 1_555 1_555
O45 N14 1_555 1_555
O44_2 N14_2 1_555 1_555
O45_2 N14_2 1_555 1_555
O44_3 N14_3 1_555 1_555
O45_3 N14_3 1_555 1_555
O46_3 N14_3 1_555 1_555
O44_4 N14_4 1_555 1_555
O45_4 N14_4 1_555 1_555
O46_4 N14_4 1_555 1_555

#END
