
###############################################################################
#
# This file contains modified crystal structure data generated from the
# MOF subset of the Cambridge Structural Database (CSD) v543 
# hosted by the Cambridge Crystallographic Data Centre (CCDC).
#
# This work is licensed under the Creative Commons
# Attribution-NonCommercial-ShareAlike 4.0 International License.
# To view a copy of this license, visit
# http://creativecommons.org/licenses/by-nc-sa/4.0/
# or send a letter to
# Creative Commons, PO Box 1866, Mountain View, CA 94042, USA.
#
# CIF created using the CSD Python API on 29 September 2022
# The structure has been converted into the P1 space group
# The structure has a 3D framework
# The original CSD entry QULWEC is in the monoclinic crystal system
# The framework has been calculated to contain at least 10.0% void space
# The void calculation uses a probe of radius 1.32A, grid spacing 0.4
# The framework is charged, counterions have been retained in the structure
#
###############################################################################

data_QULWEC
_chemical_formula_moiety         '(C288 H192 Cl4 Gd12 N56 O160 2+)n'
_symmetry_cell_setting           triclinic
_symmetry_space_group_name_H-M   'P 1'
_symmetry_Int_Tables_number      1
_space_group_name_Hall           'P 1'
loop_
_symmetry_equiv_pos_site_id
_symmetry_equiv_pos_as_xyz
1 x,y,z
_cell_length_a                   24.006(8)
_cell_length_b                   19.585(7)
_cell_length_c                   22.639(11)
_cell_angle_alpha                90
_cell_angle_beta                 116.178(4)
_cell_angle_gamma                90
_cell_volume                     9552.13
loop_
_atom_site_label
_atom_site_type_symbol
_atom_site_fract_x
_atom_site_fract_y
_atom_site_fract_z
O4 O 0.0000(8) 0.4326(12) 0.4414(11)
N1 N 0.0159(10) 0.4195(14) 0.4960(13)
O12 O 0.0714(8) 0.4114(15) 0.5335(14)
Gd9 Gd 0.19074(3) 0.00851(3) 0.40643(2)
C22 C 0.5701(7) 0.3747(7) 0.9830(6)
C27 C 0.5915(8) 0.2401(7) 0.9773(6)
C28 C 0.5389(7) 0.3392(7) 0.9254(6)
H14 H 0.5637 0.4214 0.9845
H19 H 0.6001 0.1937 0.9774
C31 C 0.5520(7) 0.2711(7) 0.9209(6)
H20 H 0.5085 0.3611 0.8890
C33 C 0.5204(6) 0.2347(7) 0.8567(5)
C38 C 0.5444(8) 0.1740(8) 0.8455(7)
C39 C 0.4675(7) 0.2585(7) 0.8064(6)
C41 C 0.3352(9) 0.6460(10) 0.9595(8)
H25 H 0.5798 0.1558 0.8795
C44 C 0.5187(7) 0.1407(7) 0.7877(7)
C45 C 0.4402(7) 0.2234(8) 0.7471(6)
H26 H 0.4494 0.2985 0.8118
C46 C 0.3429(8) 0.7149(8) 0.9537(7)
H28 H 0.3087 0.6223 0.9219
N12 N 0.4672(6) 0.1659(5) 0.7394(5)
H31 H 0.5366 0.1009 0.7816
H32 H 0.4037 0.2394 0.7130
C47 C 0.3167(7) 0.7552(7) 0.8941(6)
C49 C 0.4377(6) 0.1311(6) 0.6752(5)
C50 C 0.3382(8) 0.8207(8) 0.8887(7)
C51 C 0.2677(8) 0.7281(9) 0.8376(8)
C54 C 0.3750(8) 0.1239(9) 0.6452(6)
C55 C 0.4722(8) 0.1087(9) 0.6447(7)
H33 H 0.3713 0.8400 0.9247
C56 C 0.3105(8) 0.8560(7) 0.8305(7)
C57 C 0.2428(7) 0.7646(8) 0.7788(7)
H34 H 0.2517 0.6853 0.8394
H37 H 0.3514 0.1396 0.6657
C60 C 0.3467(7) 0.0933(7) 0.5848(6)
C61 C 0.4437(7) 0.0785(8) 0.5846(6)
H38 H 0.5151 0.1140 0.6650
N13 N 0.2627(5) 0.8262(6) 0.7771(5)
H39 H 0.3240 0.8997 0.8271
H40 H 0.2120 0.7452 0.7410
H43 H 0.3040 0.0865 0.5650
C63 C 0.3811(6) 0.0728(6) 0.5536(5)
H44 H 0.4674 0.0617 0.5645
C64 C 0.2353(6) 0.8657(6) 0.7142(6)
C66 C 0.3485(6) 0.0439(6) 0.4833(5)
C67 C 0.2733(7) 0.8924(8) 0.6904(6)
C68 C 0.1727(6) 0.8692(7) 0.6828(6)
H45 H 0.3163 0.8899 0.7142
C69 C 0.2455(7) 0.9238(7) 0.6290(6)
C70 C 0.1456(6) 0.9014(7) 0.6221(6)
H46 H 0.1484 0.8506 0.7014
H47 H 0.2705 0.9428 0.6115
C71 C 0.1825(6) 0.9274(6) 0.5937(6)
H48 H 0.1027 0.9058 0.6000
C72 C 0.1516(6) 0.9572(6) 0.5248(5)
O36 O 0.2918(5) 0.0478(6) 0.4567(5)
O37 O 0.3817(4) 0.0224(5) 0.4583(4)
O38 O 0.0952(5) 0.9455(5) 0.4925(4)
O39 O 0.1855(5) 0.9876(6) 0.5057(5)
Gd8 Gd 0.00801(3) 0.89445(3) 0.41319(3)
C32 C 0.7264(9) 0.9738(8) 0.6973(10)
C36 C 0.7682(9) 0.9433(10) 0.7518(9)
C37 C 0.6678(11) 0.9527(11) 0.6704(12)
H23 H 0.8090 0.9586 0.7710
C42 C 0.7514(10) 0.8894(11) 0.7797(12)
C43 C 0.6472(10) 0.9004(11) 0.7007(12)
H24 H 0.6396 0.9722 0.6312
N11 N 0.6924(8) 0.8705(7) 0.7546(9)
H29 H 0.7812 0.8666 0.8159
H30 H 0.6056 0.8879 0.6845
C48 C 0.6724(11) 0.8129(8) 0.7845(10)
C52 C 0.6992(9) 0.7531(8) 0.7890(9)
C53 C 0.6276(13) 0.8263(9) 0.8057(15)
H35 H 0.7300 0.7477 0.7750
C58 C 0.6805(10) 0.6978(8) 0.8153(10)
C59 C 0.6073(12) 0.7698(9) 0.8257(15)
H36 H 0.6126 0.8699 0.8064
H41 H 0.7007 0.6560 0.8217
C62 C 0.6343(8) 0.7058(7) 0.8309(8)
H42 H 0.5742 0.7742 0.8362
C65 C 0.6115(10) 0.6465(7) 0.8577(9)
O34 O 0.6333(8) 0.5890(6) 0.8564(9)
O35 O 0.5716(7) 0.6592(7) 0.8791(7)
Gd4 Gd 0.69074(3) 0.49149(3) 0.90643(2)
Gd5 Gd 0.50801(3) 0.60555(3) 0.91319(3)
Gd7 Gd 0.38469(3) 0.92734(3) 0.39969(3)
Gd7_2 Gd 0.38469(3) 0.07266(3) 0.89969(3)
Gd1 Gd 0.88469(3) 0.57266(3) 0.89969(3)
O1 O 0.8433(8) 0.6236(6) 0.9619(8)
O2 O 0.7905(5) 0.5405(5) 0.8193(4)
O4_2 O 1.0000(8) 0.5674(12) 0.9414(11)
O5 O 0.9256(7) 0.6926(7) 0.9160(8)
O6 O 0.8355(7) 0.6806(7) 0.8391(8)
O7 O 0.9058(6) 0.5797(6) 0.8019(6)
O8 O 0.9067(7) 0.4766(6) 0.8406(7)
O9 O 0.8817(4) 0.4776(5) 0.9583(4)
C1 C 0.7947(10) 0.6283(7) 0.9676(9)
C2 C 0.7318(5) 0.5312(6) 0.7869(5)
N2 N 0.8762(9) 0.7192(8) 0.8736(10)
N3 N 0.9115(9) 0.5156(11) 0.7976(8)
O10 O 0.7521(8) 0.5873(7) 0.9451(9)
O11 O 0.7012(5) 0.5006(5) 0.8091(4)
C4 C 0.7015(6) 0.5617(5) 0.7193(5)
O13 O 0.8750(11) 0.7811(8) 0.8730(12)
O14 O 0.9218(15) 0.4910(12) 0.7570(12)
C7 C 0.7344(7) 0.5949(8) 0.6926(6)
C8 C 0.6376(7) 0.5561(7) 0.6844(6)
O15 O 0.5876(4) 0.4612(4) 0.8576(4)
O16 O 0.6874(5) 0.3749(5) 0.8593(5)
O17 O 0.6857(6) 0.3756(6) 0.9540(5)
O20 O 0.7918(5) 0.4522(6) 0.9567(5)
H2 H 0.7006 0.6701 0.9879
H3 H 0.7774 0.5979 0.7157
C11 C 0.7043(7) 0.6239(8) 0.6318(6)
C12 C 0.6070(7) 0.5861(9) 0.6246(8)
H4 H 0.6155 0.5314 0.7022
C13 C 0.5333(6) 0.4808(6) 0.8231(6)
N4 N 0.6821(8) 0.3401(5) 0.9049(8)
H7 H 0.7270 0.6462 0.6132
C15 C 0.6400(6) 0.6202(6) 0.5974(5)
H8 H 0.5639 0.5836 0.6022
O21 O 0.5040(5) 0.5209(6) 0.8403(5)
C16 C 0.5005(6) 0.4495(7) 0.7555(6)
O22 O 0.6757(11) 0.2800(6) 0.9020(13)
N6 N 0.6089(5) 0.6573(5) 0.5357(5)
C17 C 0.5307(7) 0.4056(10) 0.7339(8)
C18 C 0.4392(8) 0.4710(10) 0.7148(8)
C21 C 0.6189(8) 0.7228(7) 0.5344(6)
C22_2 C 0.5701(7) 0.6253(7) 0.4830(6)
O23 O 0.5610(7) 0.7042(6) 0.9935(7)
O25 O 0.4700(7) 0.5058(6) 0.9527(7)
O26 O 0.3997(7) 0.5638(9) 0.8729(8)
O27 O 0.4423(7) 0.7123(8) 0.8799(6)
O28 O 0.4361(7) 0.6521(8) 0.7980(6)
O30 O 0.5952(5) 0.5545(5) 0.9925(4)
H9 H 0.5725 0.3962 0.7596
C23 C 0.4984(8) 0.3741(9) 0.6720(7)
C24 C 0.4077(8) 0.4380(13) 0.6525(8)
H10 H 0.4203 0.5053 0.7279
H13 H 0.6453 0.7447 0.5732
C27_2 C 0.5915(8) 0.7599(7) 0.4773(6)
C28_2 C 0.5389(7) 0.6608(7) 0.4254(6)
H14_2 H 0.5637 0.5786 0.4845
N8 N 0.4141(11) 0.5102(14) 0.9100(11)
N9 N 0.4179(8) 0.7035(10) 0.8189(9)
H15 H 0.5180 0.3425 0.6569
C29 C 0.4371(8) 0.3909(9) 0.6345(7)
H16 H 0.3668 0.4493 0.6247
H19_2 H 0.6001 0.8063 0.4774
C31_2 C 0.5520(7) 0.7289(7) 0.4209(6)
H20_2 H 0.5085 0.6389 0.3890
O32 O 0.3741(10) 0.4716(14) 0.9058(12)
O33 O 0.3838(10) 0.7426(9) 0.7806(8)
N10 N 0.4025(6) 0.3537(7) 0.5725(5)
C33_2 C 0.5204(6) 0.7653(7) 0.3567(5)
C34 C 0.4144(15) 0.2880(11) 0.5717(8)
C35 C 0.3645(8) 0.3902(9) 0.5173(8)
C38_2 C 0.5444(8) 0.8260(8) 0.3455(7)
C39_2 C 0.4675(7) 0.7415(7) 0.3064(6)
H21 H 0.4435 0.2656 0.6087
C40 C 0.3812(13) 0.2541(9) 0.5129(9)
C41_2 C 0.3352(9) 0.3540(10) 0.4595(8)
H22 H 0.3589 0.4371 0.5191
H25_2 H 0.5798 0.8442 0.3795
C44_2 C 0.5187(7) 0.8593(7) 0.2877(7)
C45_2 C 0.4402(7) 0.7766(8) 0.2471(6)
H26_2 H 0.4494 0.7015 0.3118
H27 H 0.3849 0.2069 0.5130
C46_2 C 0.3429(8) 0.2851(8) 0.4537(7)
H28_2 H 0.3087 0.3777 0.4219
N12_2 N 0.4672(6) 0.8341(5) 0.2394(5)
H31_2 H 0.5366 0.8991 0.2816
H32_2 H 0.4037 0.7606 0.2130
C47_2 C 0.3167(7) 0.2448(7) 0.3941(6)
C49_2 C 0.4377(6) 0.8689(6) 0.1752(5)
C50_2 C 0.3382(8) 0.1793(8) 0.3887(7)
C51_2 C 0.2677(8) 0.2719(9) 0.3376(8)
C54_2 C 0.3750(8) 0.8761(9) 0.1452(6)
C55_2 C 0.4722(8) 0.8913(9) 0.1447(7)
H33_2 H 0.3713 0.1600 0.4247
C56_2 C 0.3105(8) 0.1440(7) 0.3305(7)
C57_2 C 0.2428(7) 0.2354(8) 0.2788(7)
H34_2 H 0.2517 0.3147 0.3394
H37_2 H 0.3514 0.8604 0.1657
C60_2 C 0.3467(7) 0.9067(7) 0.0848(6)
C61_2 C 0.4437(7) 0.9215(8) 0.0846(6)
H38_2 H 0.5151 0.8860 0.1650
N13_2 N 0.2627(5) 0.1738(6) 0.2771(5)
H39_2 H 0.3240 0.1003 0.3271
H40_2 H 0.2120 0.2548 0.2410
H43_2 H 0.3040 0.9135 0.0650
C63_2 C 0.3811(6) 0.9272(6) 0.0536(5)
H44_2 H 0.4674 0.9383 0.0645
C64_2 C 0.2353(6) 0.1343(6) 0.2142(6)
C67_2 C 0.2733(7) 0.1076(8) 0.1904(6)
C68_2 C 0.1727(6) 0.1308(7) 0.1828(6)
H45_2 H 0.3163 0.1101 0.2142
C69_2 C 0.2455(7) 0.0762(7) 0.1290(6)
C70_2 C 0.1456(6) 0.0986(7) 0.1221(6)
H46_2 H 0.1484 0.1494 0.2014
H47_2 H 0.2705 0.0572 0.1115
C71_2 C 0.1825(6) 0.0726(6) 0.0937(6)
H48_2 H 0.1027 0.0942 0.1000
C72_2 C 0.1516(6) 0.0428(6) 0.0248(5)
O39_2 O 0.1855(5) 0.0124(6) 0.0057(5)
C66_2 C 0.3485(6) 0.9561(6) 0.9833(5)
O36_2 O 0.2918(5) 0.9522(6) 0.9567(5)
O37_2 O 0.3817(4) 0.9776(5) 0.9583(4)
Gd6 Gd 0.19074(3) 0.99149(3) 0.90643(2)
O38_2 O 0.0952(5) 0.0545(5) 0.9925(4)
Gd8_2 Gd 0.00801(3) 0.10555(3) 0.91319(3)
O8_2 O 0.4067(7) 0.0234(6) 0.3406(7)
O14_2 O 0.4218(15) 0.0090(12) 0.2570(12)
O15_2 O 0.0876(4) 0.0388(4) 0.3576(4)
O16_2 O 0.1874(5) 0.1251(5) 0.3593(5)
O17_2 O 0.1857(6) 0.1244(6) 0.4540(5)
C13_2 C 0.0333(6) 0.0192(6) 0.3231(6)
N4_2 N 0.1821(8) 0.1599(5) 0.4049(8)
C16_2 C 0.0005(6) 0.0505(7) 0.2555(6)
O22_2 O 0.1757(11) 0.2200(6) 0.4020(13)
C17_2 C 0.0307(7) 0.0944(10) 0.2339(8)
H9_2 H 0.0725 0.1038 0.2596
H15_2 H 0.0180 0.1575 0.1569
O1_2 O 0.3433(8) 0.8764(6) 0.4619(8)
O2_2 O 0.2905(5) 0.9595(5) 0.3193(4)
O3 O 0.4734(10) 0.9124(11) 0.5119(8)
O4_3 O 0.5000(8) 0.9326(12) 0.4414(11)
O5_2 O 0.4256(7) 0.8074(7) 0.4160(8)
O6_2 O 0.3355(7) 0.8194(7) 0.3391(8)
O7_2 O 0.4058(6) 0.9203(6) 0.3019(6)
C1_2 C 0.2947(10) 0.8717(7) 0.4676(9)
C2_2 C 0.2318(5) 0.9688(6) 0.2869(5)
N1_2 N 0.5159(10) 0.9195(14) 0.4960(13)
N2_2 N 0.3762(9) 0.7808(8) 0.3736(10)
N3_2 N 0.4115(9) 0.9844(11) 0.2976(8)
O10_2 O 0.2521(8) 0.9127(7) 0.4451(9)
C3 C 0.2879(10) 0.8103(8) 0.5044(10)
O11_2 O 0.2012(5) 0.9994(5) 0.3091(4)
C4_2 C 0.2015(6) 0.9383(5) 0.2193(5)
O12_2 O 0.5714(8) 0.9114(15) 0.5335(14)
O13_2 O 0.3750(11) 0.7189(8) 0.3730(12)
C5 C 0.3364(11) 0.7705(11) 0.5400(12)
C6 C 0.2332(9) 0.7993(9) 0.5078(9)
C7_2 C 0.2344(7) 0.9051(8) 0.1926(6)
C8_2 C 0.1376(7) 0.9439(7) 0.1844(6)
O18 O 0.1333(8) 0.9110(6) 0.3564(9)
H1 H 0.3755 0.7838 0.5454
C9 C 0.3309(11) 0.7107(11) 0.5690(13)
C10 C 0.2259(9) 0.7422(9) 0.5412(9)
H2_2 H 0.2006 0.8299 0.4879
H3_2 H 0.2774 0.9021 0.2157
C11_2 C 0.2043(7) 0.8761(8) 0.1318(6)
C12_2 C 0.1070(7) 0.9139(9) 0.1246(8)
H4_2 H 0.1155 0.9686 0.2022
H5 H 0.3637 0.6799 0.5872
C14 C 0.2753(10) 0.6987(10) 0.5697(12)
H6 H 0.1888 0.7343 0.5439
H7_2 H 0.2270 0.8538 0.1132
C15_2 C 0.1400(6) 0.8798(6) 0.0974(5)
H8_2 H 0.0639 0.9164 0.1022
O21_2 O 0.0040(5) 0.9791(6) 0.3403(5)
N5 N 0.2670(8) 0.6400(8) 0.6021(9)
N6_2 N 0.1089(5) 0.8427(5) 0.0357(5)
C19 C 0.3003(10) 0.6325(9) 0.6697(10)
C20 C 0.2229(12) 0.5938(12) 0.5678(13)
C21_2 C 0.1189(8) 0.7772(7) 0.0344(6)
O23_2 O 0.0610(7) 0.7958(6) 0.4935(7)
O29 O 0.0716(7) 0.8408(7) 0.3791(7)
H11 H 0.3301 0.6642 0.6949
C25 C 0.2876(10) 0.5765(10) 0.6983(10)
C26 C 0.2137(11) 0.5378(11) 0.6007(10)
H12 H 0.1989 0.5991 0.5228
H13_2 H 0.1453 0.7553 0.0732
N7 N 0.0310(8) 0.8032(7) 0.5259(7)
H17 H 0.3112 0.5696 0.7432
C30 C 0.2429(9) 0.5313(9) 0.6645(10)
H18 H 0.1858 0.5040 0.5763
O31 O 0.0372(10) 0.7651(10) 0.5720(7)
C32_2 C 0.2264(9) 0.4738(8) 0.6973(10)
C36_2 C 0.2682(9) 0.4433(10) 0.7518(9)
C37_2 C 0.1678(11) 0.4527(11) 0.6704(12)
H23_2 H 0.3090 0.4586 0.7710
C42_2 C 0.2514(10) 0.3894(11) 0.7797(12)
C43_2 C 0.1472(10) 0.4004(11) 0.7007(12)
H24_2 H 0.1396 0.4722 0.6312
N11_2 N 0.1924(8) 0.3705(7) 0.7546(9)
H29_2 H 0.2812 0.3666 0.8159
H30_2 H 0.1056 0.3879 0.6845
C48_2 C 0.1724(11) 0.3129(8) 0.7845(10)
C52_2 C 0.1992(9) 0.2531(8) 0.7890(9)
C53_2 C 0.1276(13) 0.3263(9) 0.8057(15)
H35_2 H 0.2300 0.2477 0.7750
C58_2 C 0.1805(10) 0.1978(8) 0.8153(10)
C59_2 C 0.1073(12) 0.2698(9) 0.8257(15)
H36_2 H 0.1126 0.3699 0.8064
H41_2 H 0.2007 0.1560 0.8217
C62_2 C 0.1343(8) 0.2058(7) 0.8309(8)
H42_2 H 0.0742 0.2742 0.8362
C65_2 C 0.1115(10) 0.1465(7) 0.8577(9)
O34_2 O 0.1333(8) 0.0890(6) 0.8564(9)
O35_2 O 0.0716(7) 0.1592(7) 0.8791(7)
O3_2 O 0.4734(10) 0.0876(11) 0.0119(8)
C3_2 C 0.2879(10) 0.1897(8) 0.0044(10)
O12_3 O 0.5714(8) 0.0886(15) 0.0335(14)
C5_2 C 0.3364(11) 0.2295(11) 0.0400(12)
C6_2 C 0.2332(9) 0.2007(9) 0.0078(9)
H1_2 H 0.3755 0.2162 0.0454
C9_2 C 0.3309(11) 0.2893(11) 0.0690(13)
C10_2 C 0.2259(9) 0.2578(9) 0.0412(9)
H5_2 H 0.3637 0.3201 0.0872
C14_2 C 0.2753(10) 0.3013(10) 0.0697(12)
H6_2 H 0.1888 0.2657 0.0439
N5_2 N 0.2670(8) 0.3600(8) 0.1021(9)
C19_2 C 0.3003(10) 0.3675(9) 0.1697(10)
C20_2 C 0.2229(12) 0.4062(12) 0.0678(13)
H11_2 H 0.3301 0.3358 0.1949
C25_2 C 0.2876(10) 0.4235(10) 0.1983(10)
C26_2 C 0.2137(11) 0.4622(11) 0.1007(10)
H12_2 H 0.1989 0.4009 0.0228
N7_2 N 0.0310(8) 0.1968(7) 0.0259(7)
H17_2 H 0.3112 0.4304 0.2432
C30_2 C 0.2429(9) 0.4687(9) 0.1645(10)
H18_2 H 0.1858 0.4960 0.0763
O31_2 O 0.0372(10) 0.2349(10) 0.0720(7)
C32_3 C 0.2264(9) 0.5262(8) 0.1973(10)
C36_3 C 0.2682(9) 0.5567(10) 0.2518(9)
C37_3 C 0.1678(11) 0.5473(11) 0.1704(12)
H23_3 H 0.3090 0.5414 0.2710
C42_3 C 0.2514(10) 0.6106(11) 0.2797(12)
C43_3 C 0.1472(10) 0.5996(11) 0.2007(12)
H24_3 H 0.1396 0.5278 0.1312
N11_3 N 0.1924(8) 0.6295(7) 0.2546(9)
H29_3 H 0.2812 0.6334 0.3159
H30_3 H 0.1056 0.6121 0.1845
C48_3 C 0.1724(11) 0.6871(8) 0.2845(10)
C52_3 C 0.1992(9) 0.7469(8) 0.2890(9)
C53_3 C 0.1276(13) 0.6737(9) 0.3057(15)
H35_3 H 0.2300 0.7523 0.2750
C58_3 C 0.1805(10) 0.8022(8) 0.3153(10)
C59_3 C 0.1073(12) 0.7302(9) 0.3257(15)
H36_3 H 0.1126 0.6301 0.3064
H41_3 H 0.2007 0.8440 0.3217
C62_3 C 0.1343(8) 0.7942(7) 0.3309(8)
H42_3 H 0.0742 0.7258 0.3362
C65_3 C 0.1115(10) 0.8535(7) 0.3577(9)
O1_3 O 0.3433(8) 0.1236(6) 0.9619(8)
O2_3 O 0.2905(5) 0.0405(5) 0.8193(4)
O4_4 O 0.5000(8) 0.0674(12) 0.9414(11)
O5_3 O 0.4256(7) 0.1926(7) 0.9160(8)
O6_3 O 0.3355(7) 0.1806(7) 0.8391(8)
O7_3 O 0.4058(6) 0.0797(6) 0.8019(6)
C1_3 C 0.2947(10) 0.1283(7) 0.9676(9)
C2_3 C 0.2318(5) 0.0312(6) 0.7869(5)
N1_3 N 0.5159(10) 0.0805(14) 0.9960(13)
N2_3 N 0.3762(9) 0.2192(8) 0.8736(10)
N3_3 N 0.4115(9) 0.0156(11) 0.7976(8)
O10_3 O 0.2521(8) 0.0873(7) 0.9451(9)
O11_3 O 0.2012(5) 0.0006(5) 0.8091(4)
C4_3 C 0.2015(6) 0.0617(5) 0.7193(5)
O13_3 O 0.3750(11) 0.2811(8) 0.8730(12)
C7_3 C 0.2344(7) 0.0949(8) 0.6926(6)
C8_3 C 0.1376(7) 0.0561(7) 0.6844(6)
H2_3 H 0.2006 0.1701 0.9879
H3_3 H 0.2774 0.0979 0.7157
C11_3 C 0.2043(7) 0.1239(8) 0.6318(6)
C12_3 C 0.1070(7) 0.0861(9) 0.6246(8)
H4_3 H 0.1155 0.0314 0.7022
H7_3 H 0.2270 0.1462 0.6132
C15_3 C 0.1400(6) 0.1202(6) 0.5974(5)
H8_3 H 0.0639 0.0836 0.6022
O21_3 O 0.0040(5) 0.0209(6) 0.8403(5)
N6_3 N 0.1089(5) 0.1573(5) 0.5357(5)
C21_3 C 0.1189(8) 0.2228(7) 0.5344(6)
C22_3 C 0.0701(7) 0.1253(7) 0.4830(6)
O23_3 O 0.0610(7) 0.2042(6) 0.9935(7)
H13_3 H 0.1453 0.2447 0.5732
C27_3 C 0.0915(8) 0.2599(7) 0.4773(6)
C28_3 C 0.0389(7) 0.1608(7) 0.4254(6)
H14_3 H 0.0637 0.0786 0.4845
H19_3 H 0.1001 0.3063 0.4774
C31_3 C 0.0520(7) 0.2289(7) 0.4209(6)
H20_3 H 0.0085 0.1389 0.3890
C33_3 C 0.0204(6) 0.2653(7) 0.3567(5)
C38_3 C 0.0444(8) 0.3260(8) 0.3455(7)
H25_3 H 0.0798 0.3442 0.3795
C44_3 C 0.0187(7) 0.3593(7) 0.2877(7)
H31_3 H 0.0366 0.3991 0.2816
H38_3 H 0.0151 0.3860 0.1650
O8_3 O 0.4067(7) 0.9766(6) 0.8406(7)
O14_3 O 0.4218(15) 0.9910(12) 0.7570(12)
O15_3 O 0.0876(4) 0.9612(4) 0.8576(4)
O16_3 O 0.1874(5) 0.8749(5) 0.8593(5)
O17_3 O 0.1857(6) 0.8756(6) 0.9540(5)
C13_3 C 0.0333(6) 0.9808(6) 0.8231(6)
N4_3 N 0.1821(8) 0.8401(5) 0.9049(8)
C16_3 C 0.0005(6) 0.9495(7) 0.7555(6)
O22_3 O 0.1757(11) 0.7800(6) 0.9020(13)
C17_3 C 0.0307(7) 0.9056(10) 0.7339(8)
H9_3 H 0.0725 0.8962 0.7596
H15_3 H 0.0180 0.8425 0.6569
C66_3 C 0.8485(6) 0.4561(6) 0.9833(5)
Gd1_2 Gd 0.88469(3) 0.42734(3) 0.39969(3)
O1_4 O 0.8433(8) 0.3764(6) 0.4619(8)
O2_4 O 0.7905(5) 0.4595(5) 0.3193(4)
O3_3 O 0.9734(10) 0.4124(11) 0.5119(8)
O4_5 O 1.0000(8) 0.4326(12) 0.4414(11)
O5_4 O 0.9256(7) 0.3074(7) 0.4160(8)
O6_4 O 0.8355(7) 0.3194(7) 0.3391(8)
O7_4 O 0.9058(6) 0.4203(6) 0.3019(6)
O8_4 O 0.9067(7) 0.5234(6) 0.3406(7)
O9_2 O 0.8817(4) 0.5224(5) 0.4583(4)
C1_4 C 0.7947(10) 0.3717(7) 0.4676(9)
C2_4 C 0.7318(5) 0.4688(6) 0.2869(5)
N2_4 N 0.8762(9) 0.2808(8) 0.3736(10)
N3_4 N 0.9115(9) 0.4844(11) 0.2976(8)
O10_4 O 0.7521(8) 0.4127(7) 0.4451(9)
C3_3 C 0.7879(10) 0.3103(8) 0.5044(10)
O11_4 O 0.7012(5) 0.4994(5) 0.3091(4)
C4_4 C 0.7015(6) 0.4383(5) 0.2193(5)
O13_4 O 0.8750(11) 0.2189(8) 0.3730(12)
O14_4 O 0.9218(15) 0.5090(12) 0.2570(12)
Gd2 Gd 0.69074(3) 0.50851(3) 0.40643(2)
C5_3 C 0.8364(11) 0.2705(11) 0.5400(12)
C6_3 C 0.7332(9) 0.2993(9) 0.5078(9)
C7_4 C 0.7344(7) 0.4051(8) 0.1926(6)
C8_4 C 0.6376(7) 0.4439(7) 0.1844(6)
O15_4 O 0.5876(4) 0.5388(4) 0.3576(4)
O16_4 O 0.6874(5) 0.6251(5) 0.3593(5)
O17_4 O 0.6857(6) 0.6244(6) 0.4540(5)
O18_2 O 0.6333(8) 0.4110(6) 0.3564(9)
O19 O 0.6855(5) 0.4876(6) 0.5057(5)
O20_2 O 0.7918(5) 0.5478(6) 0.4567(5)
H1_3 H 0.8755 0.2838 0.5454
C9_3 C 0.8309(11) 0.2107(11) 0.5690(13)
C10_3 C 0.7259(9) 0.2422(9) 0.5412(9)
H2_4 H 0.7006 0.3299 0.4879
H3_4 H 0.7774 0.4021 0.2157
C11_4 C 0.7043(7) 0.3761(8) 0.1318(6)
C12_4 C 0.6070(7) 0.4139(9) 0.1246(8)
H4_4 H 0.6155 0.4686 0.2022
C13_4 C 0.5333(6) 0.5192(6) 0.3231(6)
N4_4 N 0.6821(8) 0.6599(5) 0.4049(8)
H5_3 H 0.8637 0.1799 0.5872
C14_3 C 0.7753(10) 0.1987(10) 0.5697(12)
H6_3 H 0.6888 0.2343 0.5439
H7_4 H 0.7270 0.3538 0.1132
C15_4 C 0.6400(6) 0.3798(6) 0.0974(5)
H8_4 H 0.5639 0.4164 0.1022
O21_4 O 0.5040(5) 0.4791(6) 0.3403(5)
C16_4 C 0.5005(6) 0.5505(7) 0.2555(6)
O22_4 O 0.6757(11) 0.7200(6) 0.4020(13)
N5_3 N 0.7670(8) 0.1400(8) 0.6021(9)
N6_4 N 0.6089(5) 0.3427(5) 0.0357(5)
Gd3 Gd 0.50801(3) 0.39445(3) 0.41319(3)
C17_4 C 0.5307(7) 0.5944(10) 0.2339(8)
C18_2 C 0.4392(8) 0.5290(10) 0.2148(8)
C19_3 C 0.8003(10) 0.1325(9) 0.6697(10)
C20_3 C 0.7229(12) 0.0938(12) 0.5678(13)
C21_4 C 0.6189(8) 0.2772(7) 0.0344(6)
O23_4 O 0.5610(7) 0.2958(6) 0.4935(7)
O24 O 0.4909(7) 0.3560(7) 0.5088(7)
O25_2 O 0.4700(7) 0.4942(6) 0.4527(7)
O26_2 O 0.3997(7) 0.4362(9) 0.3729(8)
O27_2 O 0.4423(7) 0.2877(8) 0.3799(6)
O28_2 O 0.4361(7) 0.3479(8) 0.2980(6)
O29_2 O 0.5716(7) 0.3408(7) 0.3791(7)
O30_2 O 0.5952(5) 0.4455(5) 0.4925(4)
H9_4 H 0.5725 0.6038 0.2596
C23_2 C 0.4984(8) 0.6259(9) 0.1720(7)
C24_2 C 0.4077(8) 0.5620(13) 0.1525(8)
H10_2 H 0.4203 0.4947 0.2279
H11_3 H 0.8301 0.1642 0.6949
C25_3 C 0.7876(10) 0.0765(10) 0.6983(10)
C26_3 C 0.7137(11) 0.0378(11) 0.6007(10)
H12_3 H 0.6989 0.0991 0.5228
H13_4 H 0.6453 0.2553 0.0732
N7_3 N 0.5310(8) 0.3032(7) 0.5259(7)
N8_2 N 0.4141(11) 0.4898(14) 0.4100(11)
N9_2 N 0.4179(8) 0.2965(10) 0.3189(9)
H15_4 H 0.5180 0.6575 0.1569
C29_2 C 0.4371(8) 0.6091(9) 0.1345(7)
H16_2 H 0.3668 0.5507 0.1247
H17_3 H 0.8112 0.0696 0.7432
C30_3 C 0.7429(9) 0.0313(9) 0.6645(10)
H18_3 H 0.6858 0.0040 0.5763
O31_3 O 0.5372(10) 0.2651(10) 0.5720(7)
O32_2 O 0.3741(10) 0.5284(14) 0.4058(12)
O33_2 O 0.3838(10) 0.2574(9) 0.2806(8)
N10_2 N 0.4025(6) 0.6463(7) 0.0725(5)
C34_2 C 0.4144(15) 0.7120(11) 0.0717(8)
C35_2 C 0.3645(8) 0.6098(9) 0.0173(8)
H21_2 H 0.4435 0.7344 0.1087
C40_2 C 0.3812(13) 0.7459(9) 0.0129(9)
H22_2 H 0.3589 0.5629 0.0191
H27_2 H 0.3849 0.7931 0.0130
C32_4 C 0.7264(9) 0.0262(8) 0.1973(10)
C36_4 C 0.7682(9) 0.0567(10) 0.2518(9)
C37_4 C 0.6678(11) 0.0473(11) 0.1704(12)
H23_4 H 0.8090 0.0414 0.2710
C42_4 C 0.7514(10) 0.1106(11) 0.2797(12)
C43_4 C 0.6472(10) 0.0996(11) 0.2007(12)
H24_4 H 0.6396 0.0278 0.1312
N11_4 N 0.6924(8) 0.1295(7) 0.2546(9)
H29_4 H 0.7812 0.1334 0.3159
H30_4 H 0.6056 0.1121 0.1845
C48_4 C 0.6724(11) 0.1871(8) 0.2845(10)
C52_4 C 0.6992(9) 0.2469(8) 0.2890(9)
C53_4 C 0.6276(13) 0.1737(9) 0.3057(15)
H35_4 H 0.7300 0.2523 0.2750
C58_4 C 0.6805(10) 0.3022(8) 0.3153(10)
C59_4 C 0.6073(12) 0.2302(9) 0.3257(15)
H36_4 H 0.6126 0.1301 0.3064
H41_4 H 0.7007 0.3440 0.3217
C62_4 C 0.6343(8) 0.2942(7) 0.3309(8)
H42_4 H 0.5742 0.2258 0.3362
C65_4 C 0.6115(10) 0.3535(7) 0.3577(9)
C41_3 C 0.8352(9) 0.1460(10) 0.9595(8)
C46_3 C 0.8429(8) 0.2149(8) 0.9537(7)
H28_3 H 0.8087 0.1223 0.9219
C47_3 C 0.8167(7) 0.2552(7) 0.8941(6)
C50_3 C 0.8382(8) 0.3207(8) 0.8887(7)
C51_3 C 0.7677(8) 0.2281(9) 0.8376(8)
H33_3 H 0.8713 0.3400 0.9247
C56_3 C 0.8105(8) 0.3560(7) 0.8305(7)
C57_3 C 0.7428(7) 0.2646(8) 0.7788(7)
H34_3 H 0.7517 0.1853 0.8394
N13_3 N 0.7627(5) 0.3262(6) 0.7771(5)
H39_3 H 0.8240 0.3997 0.8271
H40_3 H 0.7120 0.2452 0.7410
C64_3 C 0.7353(6) 0.3657(6) 0.7142(6)
C67_3 C 0.7733(7) 0.3924(8) 0.6904(6)
C68_3 C 0.6727(6) 0.3692(7) 0.6828(6)
H45_3 H 0.8163 0.3899 0.7142
C69_3 C 0.7455(7) 0.4238(7) 0.6290(6)
C70_3 C 0.6456(6) 0.4014(7) 0.6221(6)
H46_3 H 0.6484 0.3506 0.7014
H47_3 H 0.7705 0.4428 0.6115
C71_3 C 0.6825(6) 0.4274(6) 0.5937(6)
H48_3 H 0.6027 0.4058 0.6000
C72_3 C 0.6516(6) 0.4572(6) 0.5248(5)
C39_3 C 0.9675(7) 0.7585(7) 0.8064(6)
C45_3 C 0.9402(7) 0.7234(8) 0.7471(6)
H26_3 H 0.9494 0.7985 0.8118
N12_3 N 0.9672(6) 0.6659(5) 0.7394(5)
H32_3 H 0.9037 0.7394 0.7130
C49_3 C 0.9377(6) 0.6311(6) 0.6752(5)
C54_3 C 0.8750(8) 0.6239(9) 0.6452(6)
C55_3 C 0.9722(8) 0.6087(9) 0.6447(7)
H37_3 H 0.8514 0.6396 0.6657
C60_3 C 0.8467(7) 0.5933(7) 0.5848(6)
C61_3 C 0.9437(7) 0.5785(8) 0.5846(6)
H43_3 H 0.8040 0.5865 0.5650
C63_3 C 0.8811(6) 0.5728(6) 0.5536(5)
H44_3 H 0.9674 0.5617 0.5645
C66_4 C 0.8485(6) 0.5439(6) 0.4833(5)
O12_4 O 0.0714(8) 0.5886(15) 0.0335(14)
O4_6 O -0.0000(8) 0.5674(12) 0.9414(11)
N1_4 N 0.0159(10) 0.5805(14) 0.9960(13)
O3_4 O 0.9734(10) 0.5876(11) 0.0119(8)
C3_4 C 0.7879(10) 0.6897(8) 0.0044(10)
C5_4 C 0.8364(11) 0.7295(11) 0.0400(12)
C6_4 C 0.7332(9) 0.7007(9) 0.0078(9)
O19_2 O 0.6855(5) 0.5124(6) 0.0057(5)
H1_4 H 0.8755 0.7162 0.0454
C9_4 C 0.8309(11) 0.7893(11) 0.0690(13)
C10_4 C 0.7259(9) 0.7578(9) 0.0412(9)
H5_4 H 0.8637 0.8201 0.0872
C14_4 C 0.7753(10) 0.8013(10) 0.0697(12)
H6_4 H 0.6888 0.7657 0.0439
N5_4 N 0.7670(8) 0.8600(8) 0.1021(9)
C19_4 C 0.8003(10) 0.8675(9) 0.1697(10)
C20_4 C 0.7229(12) 0.9062(12) 0.0678(13)
O24_2 O 0.4909(7) 0.6440(7) 0.0088(7)
H11_4 H 0.8301 0.8358 0.1949
C25_4 C 0.7876(10) 0.9235(10) 0.1983(10)
C26_4 C 0.7137(11) 0.9622(11) 0.1007(10)
H12_4 H 0.6989 0.9009 0.0228
N7_4 N 0.5310(8) 0.6968(7) 0.0259(7)
H17_4 H 0.8112 0.9304 0.2432
C30_4 C 0.7429(9) 0.9687(9) 0.1645(10)
H18_4 H 0.6858 0.9960 0.0763
O31_4 O 0.5372(10) 0.7349(10) 0.0720(7)
C18_3 C 0.9392(8) 0.9710(10) 0.7148(8)
C23_3 C 0.9984(8) 0.8741(9) 0.6720(7)
C24_3 C 0.9077(8) 0.9380(13) 0.6525(8)
C29_3 C 0.9371(8) 0.8909(9) 0.6345(7)
H16_3 H 0.8668 0.9493 0.6247
O32_3 O 0.8741(10) 0.9716(14) 0.9058(12)
N10_3 N 0.9025(6) 0.8537(7) 0.5725(5)
C34_3 C 0.9144(15) 0.7880(11) 0.5717(8)
C35_3 C 0.8645(8) 0.8902(9) 0.5173(8)
H21_3 H 0.9435 0.7656 0.6087
C40_3 C 0.8812(13) 0.7541(9) 0.5129(9)
C41_4 C 0.8352(9) 0.8540(10) 0.4595(8)
H22_3 H 0.8589 0.9371 0.5191
H27_3 H 0.8849 0.7069 0.5130
C46_4 C 0.8429(8) 0.7851(8) 0.4537(7)
H28_4 H 0.8087 0.8777 0.4219
C47_4 C 0.8167(7) 0.7448(7) 0.3941(6)
C50_4 C 0.8382(8) 0.6793(8) 0.3887(7)
C51_4 C 0.7677(8) 0.7719(9) 0.3376(8)
H33_4 H 0.8713 0.6600 0.4247
C56_4 C 0.8105(8) 0.6440(7) 0.3305(7)
C57_4 C 0.7428(7) 0.7354(8) 0.2788(7)
H34_4 H 0.7517 0.8147 0.3394
N13_4 N 0.7627(5) 0.6738(6) 0.2771(5)
H39_4 H 0.8240 0.6003 0.3271
H40_4 H 0.7120 0.7548 0.2410
C64_4 C 0.7353(6) 0.6343(6) 0.2142(6)
C67_4 C 0.7733(7) 0.6076(8) 0.1904(6)
C68_4 C 0.6727(6) 0.6308(7) 0.1828(6)
H45_4 H 0.8163 0.6101 0.2142
C69_4 C 0.7455(7) 0.5762(7) 0.1290(6)
C70_4 C 0.6456(6) 0.5986(7) 0.1221(6)
H46_4 H 0.6484 0.6494 0.2014
H47_4 H 0.7705 0.5572 0.1115
C71_4 C 0.6825(6) 0.5726(6) 0.0937(6)
H48_4 H 0.6027 0.5942 0.1000
C72_4 C 0.6516(6) 0.5428(6) 0.0248(5)
C22_4 C 0.0701(7) 0.8747(7) 0.9830(6)
C27_4 C 0.0915(8) 0.7401(7) 0.9773(6)
C28_4 C 0.0389(7) 0.8392(7) 0.9254(6)
H14_4 H 0.0637 0.9214 0.9845
H19_4 H 0.1001 0.6937 0.9774
C31_4 C 0.0520(7) 0.7711(7) 0.9209(6)
H20_4 H 0.0085 0.8611 0.8890
C33_4 C 0.0204(6) 0.7347(7) 0.8567(5)
C38_4 C 0.0444(8) 0.6740(8) 0.8455(7)
H25_4 H 0.0798 0.6558 0.8795
C44_4 C 0.0187(7) 0.6407(7) 0.7877(7)
H31_4 H 0.0366 0.6009 0.7816
H38_4 H 0.0151 0.6140 0.6650
C18_4 C 0.9392(8) 0.0290(10) 0.2148(8)
C23_4 C 0.9984(8) 0.1259(9) 0.1720(7)
C24_4 C 0.9077(8) 0.0620(13) 0.1525(8)
C29_4 C 0.9371(8) 0.1091(9) 0.1345(7)
H16_4 H 0.8668 0.0507 0.1247
O32_4 O 0.8741(10) 0.0284(14) 0.4058(12)
N10_4 N 0.9025(6) 0.1463(7) 0.0725(5)
C34_4 C 0.9144(15) 0.2120(11) 0.0717(8)
C35_4 C 0.8645(8) 0.1098(9) 0.0173(8)
H21_4 H 0.9435 0.2344 0.1087
C40_4 C 0.8812(13) 0.2459(9) 0.0129(9)
H22_4 H 0.8589 0.0629 0.0191
H27_4 H 0.8849 0.2931 0.0130
O24_3 O 0.9909(7) 0.8560(7) 0.5088(7)
O25_3 O 0.9700(7) 0.9942(6) 0.4527(7)
O26_3 O 0.8997(7) 0.9362(9) 0.3729(8)
O27_3 O 0.9423(7) 0.7877(8) 0.3799(6)
O28_3 O 0.9361(7) 0.8479(8) 0.2980(6)
H10_3 H 0.9203 0.9947 0.2279
N8_3 N 0.9141(11) 0.9898(14) 0.4100(11)
N9_3 N 0.9179(8) 0.7965(10) 0.3189(9)
O33_3 O 0.8838(10) 0.7574(9) 0.2806(8)
O24_4 O 0.9909(7) 0.1440(7) 0.0088(7)
O25_4 O 0.9700(7) 0.0058(6) 0.9527(7)
O26_4 O 0.8997(7) 0.0638(9) 0.8729(8)
O27_4 O 0.9423(7) 0.2123(8) 0.8799(6)
O28_4 O 0.9361(7) 0.1521(8) 0.7980(6)
H10_4 H 0.9203 0.0053 0.7279
N8_4 N 0.9141(11) 0.0102(14) 0.9100(11)
N9_4 N 0.9179(8) 0.2035(10) 0.8189(9)
O33_4 O 0.8838(10) 0.2426(9) 0.7806(8)
C39_4 C 0.9675(7) 0.2415(7) 0.3064(6)
C45_4 C 0.9402(7) 0.2766(8) 0.2471(6)
H26_4 H 0.9494 0.2015 0.3118
N12_4 N 0.9672(6) 0.3341(5) 0.2394(5)
H32_4 H 0.9037 0.2606 0.2130
C49_4 C 0.9377(6) 0.3689(6) 0.1752(5)
C54_4 C 0.8750(8) 0.3761(9) 0.1452(6)
C55_4 C 0.9722(8) 0.3913(9) 0.1447(7)
H37_4 H 0.8514 0.3604 0.1657
C60_4 C 0.8467(7) 0.4067(7) 0.0848(6)
C61_4 C 0.9437(7) 0.4215(8) 0.0846(6)
H43_4 H 0.8040 0.4135 0.0650
C63_4 C 0.8811(6) 0.4272(6) 0.0536(5)
H44_4 H 0.9674 0.4383 0.0645
Cl1 Cl 0.7795(4) 0.8164(3) 0.6420(5)
O40 O 0.8362(12) 0.8328(14) 0.7012(14)
O41 O 0.793(2) 0.7659(19) 0.613(2)
O42 O 0.7637(14) 0.8748(14) 0.5993(18)
O43 O 0.7325(8) 0.7983(9) 0.6596(12)
Cl1_2 Cl 0.7795(4) 0.1836(3) 0.1420(5)
O40_2 O 0.8362(12) 0.1672(14) 0.2012(14)
O41_2 O 0.793(2) 0.2341(19) 0.113(2)
O42_2 O 0.7637(14) 0.1252(14) 0.0993(18)
O43_2 O 0.7325(8) 0.2017(9) 0.1596(12)
Cl1_3 Cl 0.2795(4) 0.3164(3) 0.6420(5)
O40_3 O 0.3362(12) 0.3328(14) 0.7012(14)
O41_3 O 0.293(2) 0.2659(19) 0.613(2)
O42_3 O 0.2637(14) 0.3748(14) 0.5993(18)
O43_3 O 0.2325(8) 0.2983(9) 0.6596(12)
Cl1_4 Cl 0.2795(4) 0.6836(3) 0.1420(5)
O40_4 O 0.3362(12) 0.6672(14) 0.2012(14)
O41_4 O 0.293(2) 0.7341(19) 0.113(2)
O42_4 O 0.2637(14) 0.6252(14) 0.0993(18)
O43_4 O 0.2325(8) 0.7017(9) 0.1596(12)
O44 O 0.6719(15) 0.0578(16) 0.8122(15)
O45 O 0.650(6) 0.056(5) 0.896(5)
N14 N 0.6761(13) 0.0301(15) 0.8649(14)
O46 O 0.709(4) 0.978(4) 0.886(4)
O46_2 O 0.709(4) 0.022(4) 0.386(4)
O44_2 O 0.6719(15) 0.9422(16) 0.3122(15)
O45_2 O 0.650(6) 0.944(5) 0.396(5)
N14_2 N 0.6761(13) 0.9699(15) 0.3649(14)
O44_3 O 0.1719(15) 0.5578(16) 0.8122(15)
O45_3 O 0.150(6) 0.556(5) 0.896(5)
O46_3 O 0.209(4) 0.478(4) 0.886(4)
N14_3 N 0.1761(13) 0.5301(15) 0.8649(14)
O44_4 O 0.1719(15) 0.4422(16) 0.3122(15)
O45_4 O 0.150(6) 0.444(5) 0.396(5)
O46_4 O 0.209(4) 0.522(4) 0.386(4)
N14_4 N 0.1761(13) 0.4699(15) 0.3649(14)
loop_
_geom_bond_atom_site_label_1
_geom_bond_atom_site_label_2
_geom_bond_site_symmetry_1
_geom_bond_site_symmetry_2
O12 N1 1_555 1_555
O4 N1 1_555 1_555
C28 C22 1_555 1_555
H14 C22 1_555 1_555
H19 C27 1_555 1_555
C31 C27 1_555 1_555
H20 C28 1_555 1_555
C33 C31 1_555 1_555
C38 C33 1_555 1_555
C39 C33 1_555 1_555
H25 C38 1_555 1_555
C44 C38 1_555 1_555
C45 C39 1_555 1_555
H26 C39 1_555 1_555
H28 C41 1_555 1_555
N12 C44 1_555 1_555
H31 C44 1_555 1_555
H32 C45 1_555 1_555
C47 C46 1_555 1_555
C49 N12 1_555 1_555
C50 C47 1_555 1_555
C51 C47 1_555 1_555
C54 C49 1_555 1_555
C55 C49 1_555 1_555
H33 C50 1_555 1_555
C56 C50 1_555 1_555
C57 C51 1_555 1_555
H34 C51 1_555 1_555
H37 C54 1_555 1_555
C60 C54 1_555 1_555
C61 C55 1_555 1_555
H38 C55 1_555 1_555
N13 C56 1_555 1_555
H39 C56 1_555 1_555
H40 C57 1_555 1_555
H43 C60 1_555 1_555
C63 C60 1_555 1_555
H44 C61 1_555 1_555
C64 N13 1_555 1_555
C66 C63 1_555 1_555
C67 C64 1_555 1_555
C68 C64 1_555 1_555
H45 C67 1_555 1_555
C69 C67 1_555 1_555
C70 C68 1_555 1_555
H46 C68 1_555 1_555
H47 C69 1_555 1_555
C71 C69 1_555 1_555
H48 C70 1_555 1_555
C72 C71 1_555 1_555
O36 C66 1_555 1_555
O37 C66 1_555 1_555
Gd9 O36 1_555 1_555
O38 C72 1_555 1_555
O39 C72 1_555 1_555
Gd8 O38 1_555 1_555
C28 C31 1_555 1_555
C41 C46 1_555 1_555
C45 N12 1_555 1_555
C57 N13 1_555 1_555
C61 C63 1_555 1_555
C70 C71 1_555 1_555
C36 C32 1_555 1_555
C37 C32 1_555 1_555
H23 C36 1_555 1_555
C42 C36 1_555 1_555
C43 C37 1_555 1_555
H24 C37 1_555 1_555
N11 C42 1_555 1_555
H29 C42 1_555 1_555
H30 C43 1_555 1_555
C48 N11 1_555 1_555
C52 C48 1_555 1_555
C53 C48 1_555 1_555
H35 C52 1_555 1_555
C58 C52 1_555 1_555
C59 C53 1_555 1_555
H36 C53 1_555 1_555
H41 C58 1_555 1_555
C62 C58 1_555 1_555
H42 C59 1_555 1_555
C65 C62 1_555 1_555
O34 C65 1_555 1_555
O35 C65 1_555 1_555
Gd4 O34 1_555 1_555
Gd5 O35 1_555 1_555
C43 N11 1_555 1_555
C59 C62 1_555 1_555
Gd1 O1 1_555 1_555
O1 C1 1_555 1_555
O2 Gd1 1_555 1_555
O4_2 Gd1 1_555 1_555
O5 Gd1 1_555 1_555
O6 Gd1 1_555 1_555
O7 Gd1 1_555 1_555
O8 Gd1 1_555 1_555
O9 Gd1 1_555 1_555
C1 O10 1_555 1_555
C2 O2 1_555 1_555
N2 O5 1_555 1_555
N3 O7 1_555 1_555
O10 Gd4 1_555 1_555
O11 C2 1_555 1_555
C4 C2 1_555 1_555
O13 N2 1_555 1_555
O14 N3 1_555 1_555
Gd4 O11 1_555 1_555
C7 C4 1_555 1_555
C8 C4 1_555 1_555
O15 Gd4 1_555 1_555
O16 Gd4 1_555 1_555
O17 Gd4 1_555 1_555
O20 Gd4 1_555 1_555
H3 C7 1_555 1_555
C11 C7 1_555 1_555
C12 C8 1_555 1_555
H4 C8 1_555 1_555
C13 O15 1_555 1_555
N4 O16 1_555 1_555
H7 C11 1_555 1_555
C15 C11 1_555 1_555
H8 C12 1_555 1_555
O21 C13 1_555 1_555
C16 C13 1_555 1_555
O22 N4 1_555 1_555
N6 C15 1_555 1_555
Gd5 O21 1_555 1_555
C17 C16 1_555 1_555
C18 C16 1_555 1_555
C21 N6 1_555 1_555
C22_2 N6 1_555 1_555
O23 Gd5 1_555 1_555
O25 Gd5 1_555 1_555
O26 Gd5 1_555 1_555
O27 Gd5 1_555 1_555
O28 Gd5 1_555 1_555
O30 Gd5 1_555 1_555
H9 C17 1_555 1_555
C23 C17 1_555 1_555
C24 C18 1_555 1_555
H10 C18 1_555 1_555
H13 C21 1_555 1_555
C27_2 C21 1_555 1_555
C28_2 C22_2 1_555 1_555
H14_2 C22_2 1_555 1_555
N8 O25 1_555 1_555
N9 O27 1_555 1_555
H15 C23 1_555 1_555
C29 C23 1_555 1_555
H16 C24 1_555 1_555
H19_2 C27_2 1_555 1_555
C31_2 C27_2 1_555 1_555
H20_2 C28_2 1_555 1_555
O32 N8 1_555 1_555
O33 N9 1_555 1_555
N10 C29 1_555 1_555
C33_2 C31_2 1_555 1_555
C34 N10 1_555 1_555
C35 N10 1_555 1_555
C38_2 C33_2 1_555 1_555
C39_2 C33_2 1_555 1_555
H21 C34 1_555 1_555
C40 C34 1_555 1_555
C41_2 C35 1_555 1_555
H22 C35 1_555 1_555
H25_2 C38_2 1_555 1_555
C44_2 C38_2 1_555 1_555
C45_2 C39_2 1_555 1_555
H26_2 C39_2 1_555 1_555
H27 C40 1_555 1_555
C46_2 C40 1_555 1_555
H28_2 C41_2 1_555 1_555
N12_2 C44_2 1_555 1_555
H31_2 C44_2 1_555 1_555
H32_2 C45_2 1_555 1_555
C47_2 C46_2 1_555 1_555
C49_2 N12_2 1_555 1_555
C50_2 C47_2 1_555 1_555
C51_2 C47_2 1_555 1_555
C54_2 C49_2 1_555 1_555
C55_2 C49_2 1_555 1_555
H33_2 C50_2 1_555 1_555
C56_2 C50_2 1_555 1_555
C57_2 C51_2 1_555 1_555
H34_2 C51_2 1_555 1_555
H37_2 C54_2 1_555 1_555
C60_2 C54_2 1_555 1_555
C61_2 C55_2 1_555 1_555
H38_2 C55_2 1_555 1_555
N13_2 C56_2 1_555 1_555
H39_2 C56_2 1_555 1_555
H40_2 C57_2 1_555 1_555
H43_2 C60_2 1_555 1_555
C63_2 C60_2 1_555 1_555
H44_2 C61_2 1_555 1_555
C64_2 N13_2 1_555 1_555
C67_2 C64_2 1_555 1_555
C68_2 C64_2 1_555 1_555
H45_2 C67_2 1_555 1_555
C69_2 C67_2 1_555 1_555
C70_2 C68_2 1_555 1_555
H46_2 C68_2 1_555 1_555
H47_2 C69_2 1_555 1_555
C71_2 C69_2 1_555 1_555
H48_2 C70_2 1_555 1_555
C72_2 C71_2 1_555 1_555
O39_2 C72_2 1_555 1_555
O6 N2 1_555 1_555
O8 N3 1_555 1_555
O17 N4 1_555 1_555
C12 C15 1_555 1_555
O26 N8 1_555 1_555
O28 N9 1_555 1_555
C24 C29 1_555 1_555
C28_2 C31_2 1_555 1_555
C41_2 C46_2 1_555 1_555
C45_2 N12_2 1_555 1_555
C57_2 N13_2 1_555 1_555
C61_2 C63_2 1_555 1_555
C70_2 C71_2 1_555 1_555
O36_2 C66_2 1_555 1_555
O37_2 C66_2 1_555 1_555
Gd6 O36_2 1_555 1_555
Gd8_2 O38_2 1_555 1_555
O15_2 Gd9 1_555 1_555
O16_2 Gd9 1_555 1_555
O17_2 Gd9 1_555 1_555
C13_2 O15_2 1_555 1_555
N4_2 O16_2 1_555 1_555
C16_2 C13_2 1_555 1_555
O22_2 N4_2 1_555 1_555
C17_2 C16_2 1_555 1_555
H9_2 C17_2 1_555 1_555
O17_2 N4_2 1_555 1_555
Gd7 O1_2 1_555 1_555
O1_2 C1_2 1_555 1_555
O2_2 Gd7 1_555 1_555
O3 Gd7 1_555 1_555
O4_3 Gd7 1_555 1_555
O5_2 Gd7 1_555 1_555
O6_2 Gd7 1_555 1_555
O7_2 Gd7 1_555 1_555
C1_2 O10_2 1_555 1_555
C2_2 O2_2 1_555 1_555
N1_2 O3 1_555 1_555
N2_2 O5_2 1_555 1_555
N3_2 O7_2 1_555 1_555
C3 C1_2 1_555 1_555
O11_2 C2_2 1_555 1_555
C4_2 C2_2 1_555 1_555
O12_2 N1_2 1_555 1_555
O13_2 N2_2 1_555 1_555
C5 C3 1_555 1_555
C6 C3 1_555 1_555
C7_2 C4_2 1_555 1_555
C8_2 C4_2 1_555 1_555
H1 C5 1_555 1_555
C9 C5 1_555 1_555
C10 C6 1_555 1_555
H2_2 C6 1_555 1_555
H3_2 C7_2 1_555 1_555
C11_2 C7_2 1_555 1_555
C12_2 C8_2 1_555 1_555
H4_2 C8_2 1_555 1_555
H5 C9 1_555 1_555
C14 C9 1_555 1_555
H6 C10 1_555 1_555
H7_2 C11_2 1_555 1_555
C15_2 C11_2 1_555 1_555
H8_2 C12_2 1_555 1_555
N5 C14 1_555 1_555
N6_2 C15_2 1_555 1_555
Gd8 O21_2 1_555 1_555
C19 N5 1_555 1_555
C20 N5 1_555 1_555
C21_2 N6_2 1_555 1_555
O23_2 Gd8 1_555 1_555
O29 Gd8 1_555 1_555
H11 C19 1_555 1_555
C25 C19 1_555 1_555
C26 C20 1_555 1_555
H12 C20 1_555 1_555
H13_2 C21_2 1_555 1_555
N7 O23_2 1_555 1_555
H17 C25 1_555 1_555
C30 C25 1_555 1_555
H18 C26 1_555 1_555
O31 N7 1_555 1_555
C32_2 C30 1_555 1_555
C36_2 C32_2 1_555 1_555
C37_2 C32_2 1_555 1_555
H23_2 C36_2 1_555 1_555
C42_2 C36_2 1_555 1_555
C43_2 C37_2 1_555 1_555
H24_2 C37_2 1_555 1_555
N11_2 C42_2 1_555 1_555
H29_2 C42_2 1_555 1_555
H30_2 C43_2 1_555 1_555
C48_2 N11_2 1_555 1_555
C52_2 C48_2 1_555 1_555
C53_2 C48_2 1_555 1_555
H35_2 C52_2 1_555 1_555
C58_2 C52_2 1_555 1_555
C59_2 C53_2 1_555 1_555
H36_2 C53_2 1_555 1_555
H41_2 C58_2 1_555 1_555
C62_2 C58_2 1_555 1_555
H42_2 C59_2 1_555 1_555
C65_2 C62_2 1_555 1_555
O34_2 C65_2 1_555 1_555
O35_2 C65_2 1_555 1_555
Gd8_2 O35_2 1_555 1_555
O4_3 N1_2 1_555 1_555
O6_2 N2_2 1_555 1_555
C10 C14 1_555 1_555
C12_2 C15_2 1_555 1_555
C26 C30 1_555 1_555
C43_2 N11_2 1_555 1_555
C59_2 C62_2 1_555 1_555
C5_2 C3_2 1_555 1_555
C6_2 C3_2 1_555 1_555
H1_2 C5_2 1_555 1_555
C9_2 C5_2 1_555 1_555
C10_2 C6_2 1_555 1_555
H5_2 C9_2 1_555 1_555
C14_2 C9_2 1_555 1_555
H6_2 C10_2 1_555 1_555
N5_2 C14_2 1_555 1_555
C19_2 N5_2 1_555 1_555
C20_2 N5_2 1_555 1_555
H11_2 C19_2 1_555 1_555
C25_2 C19_2 1_555 1_555
C26_2 C20_2 1_555 1_555
H12_2 C20_2 1_555 1_555
H17_2 C25_2 1_555 1_555
C30_2 C25_2 1_555 1_555
H18_2 C26_2 1_555 1_555
O31_2 N7_2 1_555 1_555
C32_3 C30_2 1_555 1_555
C36_3 C32_3 1_555 1_555
C37_3 C32_3 1_555 1_555
H23_3 C36_3 1_555 1_555
C42_3 C36_3 1_555 1_555
C43_3 C37_3 1_555 1_555
H24_3 C37_3 1_555 1_555
N11_3 C42_3 1_555 1_555
H29_3 C42_3 1_555 1_555
H30_3 C43_3 1_555 1_555
C48_3 N11_3 1_555 1_555
C52_3 C48_3 1_555 1_555
C53_3 C48_3 1_555 1_555
H35_3 C52_3 1_555 1_555
C58_3 C52_3 1_555 1_555
C59_3 C53_3 1_555 1_555
H36_3 C53_3 1_555 1_555
H41_3 C58_3 1_555 1_555
C62_3 C58_3 1_555 1_555
H42_3 C59_3 1_555 1_555
C65_3 C62_3 1_555 1_555
O18 C65_3 1_555 1_555
O29 C65_3 1_555 1_555
C10_2 C14_2 1_555 1_555
C26_2 C30_2 1_555 1_555
C43_3 N11_3 1_555 1_555
C59_3 C62_3 1_555 1_555
Gd7_2 O1_3 1_555 1_555
O1_3 C1_3 1_555 1_555
O2_3 Gd7_2 1_555 1_555
O4_4 Gd7_2 1_555 1_555
O5_3 Gd7_2 1_555 1_555
O6_3 Gd7_2 1_555 1_555
O7_3 Gd7_2 1_555 1_555
C1_3 O10_3 1_555 1_555
C2_3 O2_3 1_555 1_555
N2_3 O5_3 1_555 1_555
N3_3 O7_3 1_555 1_555
O11_3 C2_3 1_555 1_555
C4_3 C2_3 1_555 1_555
O13_3 N2_3 1_555 1_555
C7_3 C4_3 1_555 1_555
C8_3 C4_3 1_555 1_555
H3_3 C7_3 1_555 1_555
C11_3 C7_3 1_555 1_555
C12_3 C8_3 1_555 1_555
H4_3 C8_3 1_555 1_555
H7_3 C11_3 1_555 1_555
C15_3 C11_3 1_555 1_555
H8_3 C12_3 1_555 1_555
N6_3 C15_3 1_555 1_555
Gd8_2 O21_3 1_555 1_555
C21_3 N6_3 1_555 1_555
C22_3 N6_3 1_555 1_555
O23_3 Gd8_2 1_555 1_555
H13_3 C21_3 1_555 1_555
C27_3 C21_3 1_555 1_555
C28_3 C22_3 1_555 1_555
H14_3 C22_3 1_555 1_555
H19_3 C27_3 1_555 1_555
C31_3 C27_3 1_555 1_555
H20_3 C28_3 1_555 1_555
C33_3 C31_3 1_555 1_555
C38_3 C33_3 1_555 1_555
H25_3 C38_3 1_555 1_555
C44_3 C38_3 1_555 1_555
H31_3 C44_3 1_555 1_555
O4_4 N1_3 1_555 1_555
O6_3 N2_3 1_555 1_555
C12_3 C15_3 1_555 1_555
C28_3 C31_3 1_555 1_555
O15_3 Gd6 1_555 1_555
O16_3 Gd6 1_555 1_555
O17_3 Gd6 1_555 1_555
C13_3 O15_3 1_555 1_555
N4_3 O16_3 1_555 1_555
C16_3 C13_3 1_555 1_555
O22_3 N4_3 1_555 1_555
C17_3 C16_3 1_555 1_555
H9_3 C17_3 1_555 1_555
O17_3 N4_3 1_555 1_555
O20 C66_3 1_555 1_555
O9 C66_3 1_555 1_555
Gd1_2 O1_4 1_555 1_555
O1_4 C1_4 1_555 1_555
O2_4 Gd1_2 1_555 1_555
O3_3 Gd1_2 1_555 1_555
O4_5 Gd1_2 1_555 1_555
O5_4 Gd1_2 1_555 1_555
O6_4 Gd1_2 1_555 1_555
O7_4 Gd1_2 1_555 1_555
O8_4 Gd1_2 1_555 1_555
O9_2 Gd1_2 1_555 1_555
C1_4 O10_4 1_555 1_555
C2_4 O2_4 1_555 1_555
N2_4 O5_4 1_555 1_555
N3_4 O7_4 1_555 1_555
O10_4 Gd2 1_555 1_555
C3_3 C1_4 1_555 1_555
O11_4 C2_4 1_555 1_555
C4_4 C2_4 1_555 1_555
O13_4 N2_4 1_555 1_555
O14_4 N3_4 1_555 1_555
Gd2 O11_4 1_555 1_555
C5_3 C3_3 1_555 1_555
C6_3 C3_3 1_555 1_555
C7_4 C4_4 1_555 1_555
C8_4 C4_4 1_555 1_555
O15_4 Gd2 1_555 1_555
O16_4 Gd2 1_555 1_555
O17_4 Gd2 1_555 1_555
O18_2 Gd2 1_555 1_555
O19 Gd2 1_555 1_555
O20_2 Gd2 1_555 1_555
H1_3 C5_3 1_555 1_555
C9_3 C5_3 1_555 1_555
C10_3 C6_3 1_555 1_555
H2_4 C6_3 1_555 1_555
H3_4 C7_4 1_555 1_555
C11_4 C7_4 1_555 1_555
C12_4 C8_4 1_555 1_555
H4_4 C8_4 1_555 1_555
C13_4 O15_4 1_555 1_555
N4_4 O16_4 1_555 1_555
H5_3 C9_3 1_555 1_555
C14_3 C9_3 1_555 1_555
H6_3 C10_3 1_555 1_555
H7_4 C11_4 1_555 1_555
C15_4 C11_4 1_555 1_555
H8_4 C12_4 1_555 1_555
O21_4 C13_4 1_555 1_555
C16_4 C13_4 1_555 1_555
O22_4 N4_4 1_555 1_555
N5_3 C14_3 1_555 1_555
N6_4 C15_4 1_555 1_555
Gd3 O21_4 1_555 1_555
C17_4 C16_4 1_555 1_555
C18_2 C16_4 1_555 1_555
C19_3 N5_3 1_555 1_555
C20_3 N5_3 1_555 1_555
C21_4 N6_4 1_555 1_555
O23_4 Gd3 1_555 1_555
O24 Gd3 1_555 1_555
O25_2 Gd3 1_555 1_555
O26_2 Gd3 1_555 1_555
O27_2 Gd3 1_555 1_555
O28_2 Gd3 1_555 1_555
O29_2 Gd3 1_555 1_555
O30_2 Gd3 1_555 1_555
H9_4 C17_4 1_555 1_555
C23_2 C17_4 1_555 1_555
C24_2 C18_2 1_555 1_555
H10_2 C18_2 1_555 1_555
H11_3 C19_3 1_555 1_555
C25_3 C19_3 1_555 1_555
C26_3 C20_3 1_555 1_555
H12_3 C20_3 1_555 1_555
H13_4 C21_4 1_555 1_555
N7_3 O23_4 1_555 1_555
N8_2 O25_2 1_555 1_555
N9_2 O27_2 1_555 1_555
H15_4 C23_2 1_555 1_555
C29_2 C23_2 1_555 1_555
H16_2 C24_2 1_555 1_555
H17_3 C25_3 1_555 1_555
C30_3 C25_3 1_555 1_555
H18_3 C26_3 1_555 1_555
O31_3 N7_3 1_555 1_555
O32_2 N8_2 1_555 1_555
O33_2 N9_2 1_555 1_555
N10_2 C29_2 1_555 1_555
C34_2 N10_2 1_555 1_555
C35_2 N10_2 1_555 1_555
H21_2 C34_2 1_555 1_555
C40_2 C34_2 1_555 1_555
H22_2 C35_2 1_555 1_555
H27_2 C40_2 1_555 1_555
O6_4 N2_4 1_555 1_555
O8_4 N3_4 1_555 1_555
O17_4 N4_4 1_555 1_555
C10_3 C14_3 1_555 1_555
C12_4 C15_4 1_555 1_555
O24 N7_3 1_555 1_555
O26_2 N8_2 1_555 1_555
O28_2 N9_2 1_555 1_555
C24_2 C29_2 1_555 1_555
C26_3 C30_3 1_555 1_555
C36_4 C32_4 1_555 1_555
C37_4 C32_4 1_555 1_555
H23_4 C36_4 1_555 1_555
C42_4 C36_4 1_555 1_555
C43_4 C37_4 1_555 1_555
H24_4 C37_4 1_555 1_555
N11_4 C42_4 1_555 1_555
H29_4 C42_4 1_555 1_555
H30_4 C43_4 1_555 1_555
C48_4 N11_4 1_555 1_555
C52_4 C48_4 1_555 1_555
C53_4 C48_4 1_555 1_555
H35_4 C52_4 1_555 1_555
C58_4 C52_4 1_555 1_555
C59_4 C53_4 1_555 1_555
H36_4 C53_4 1_555 1_555
H41_4 C58_4 1_555 1_555
C62_4 C58_4 1_555 1_555
H42_4 C59_4 1_555 1_555
C65_4 C62_4 1_555 1_555
O18_2 C65_4 1_555 1_555
O29_2 C65_4 1_555 1_555
C43_4 N11_4 1_555 1_555
C59_4 C62_4 1_555 1_555
H28_3 C41_3 1_555 1_555
C47_3 C46_3 1_555 1_555
C50_3 C47_3 1_555 1_555
C51_3 C47_3 1_555 1_555
H33_3 C50_3 1_555 1_555
C56_3 C50_3 1_555 1_555
C57_3 C51_3 1_555 1_555
H34_3 C51_3 1_555 1_555
N13_3 C56_3 1_555 1_555
H39_3 C56_3 1_555 1_555
H40_3 C57_3 1_555 1_555
C64_3 N13_3 1_555 1_555
C67_3 C64_3 1_555 1_555
C68_3 C64_3 1_555 1_555
H45_3 C67_3 1_555 1_555
C69_3 C67_3 1_555 1_555
C70_3 C68_3 1_555 1_555
H46_3 C68_3 1_555 1_555
H47_3 C69_3 1_555 1_555
C71_3 C69_3 1_555 1_555
H48_3 C70_3 1_555 1_555
C72_3 C71_3 1_555 1_555
O30_2 C72_3 1_555 1_555
O19 C72_3 1_555 1_555
C41_3 C46_3 1_555 1_555
C57_3 N13_3 1_555 1_555
C70_3 C71_3 1_555 1_555
C45_3 C39_3 1_555 1_555
H26_3 C39_3 1_555 1_555
H32_3 C45_3 1_555 1_555
C49_3 N12_3 1_555 1_555
C54_3 C49_3 1_555 1_555
C55_3 C49_3 1_555 1_555
H37_3 C54_3 1_555 1_555
C60_3 C54_3 1_555 1_555
C61_3 C55_3 1_555 1_555
H43_3 C60_3 1_555 1_555
C63_3 C60_3 1_555 1_555
H44_3 C61_3 1_555 1_555
C66_4 C63_3 1_555 1_555
O20_2 C66_4 1_555 1_555
O9_2 C66_4 1_555 1_555
C45_3 N12_3 1_555 1_555
C61_3 C63_3 1_555 1_555
O4_6 N1_4 1_555 1_555
C5_4 C3_4 1_555 1_555
C6_4 C3_4 1_555 1_555
H1_4 C5_4 1_555 1_555
C9_4 C5_4 1_555 1_555
C10_4 C6_4 1_555 1_555
H5_4 C9_4 1_555 1_555
C14_4 C9_4 1_555 1_555
H6_4 C10_4 1_555 1_555
N5_4 C14_4 1_555 1_555
C19_4 N5_4 1_555 1_555
C20_4 N5_4 1_555 1_555
H11_4 C19_4 1_555 1_555
C25_4 C19_4 1_555 1_555
C26_4 C20_4 1_555 1_555
H12_4 C20_4 1_555 1_555
H17_4 C25_4 1_555 1_555
C30_4 C25_4 1_555 1_555
H18_4 C26_4 1_555 1_555
O31_4 N7_4 1_555 1_555
C10_4 C14_4 1_555 1_555
O24_2 N7_4 1_555 1_555
C26_4 C30_4 1_555 1_555
C24_3 C18_3 1_555 1_555
C29_3 C23_3 1_555 1_555
H16_3 C24_3 1_555 1_555
N10_3 C29_3 1_555 1_555
C34_3 N10_3 1_555 1_555
C35_3 N10_3 1_555 1_555
H21_3 C34_3 1_555 1_555
C40_3 C34_3 1_555 1_555
C41_4 C35_3 1_555 1_555
H22_3 C35_3 1_555 1_555
H27_3 C40_3 1_555 1_555
C46_4 C40_3 1_555 1_555
H28_4 C41_4 1_555 1_555
C47_4 C46_4 1_555 1_555
C50_4 C47_4 1_555 1_555
C51_4 C47_4 1_555 1_555
H33_4 C50_4 1_555 1_555
C56_4 C50_4 1_555 1_555
C57_4 C51_4 1_555 1_555
H34_4 C51_4 1_555 1_555
N13_4 C56_4 1_555 1_555
H39_4 C56_4 1_555 1_555
H40_4 C57_4 1_555 1_555
C64_4 N13_4 1_555 1_555
C67_4 C64_4 1_555 1_555
C68_4 C64_4 1_555 1_555
H45_4 C67_4 1_555 1_555
C69_4 C67_4 1_555 1_555
C70_4 C68_4 1_555 1_555
H46_4 C68_4 1_555 1_555
H47_4 C69_4 1_555 1_555
C71_4 C69_4 1_555 1_555
H48_4 C70_4 1_555 1_555
C72_4 C71_4 1_555 1_555
O19_2 C72_4 1_555 1_555
C24_3 C29_3 1_555 1_555
C41_4 C46_4 1_555 1_555
C57_4 N13_4 1_555 1_555
C70_4 C71_4 1_555 1_555
C28_4 C22_4 1_555 1_555
H14_4 C22_4 1_555 1_555
H19_4 C27_4 1_555 1_555
C31_4 C27_4 1_555 1_555
H20_4 C28_4 1_555 1_555
C33_4 C31_4 1_555 1_555
C38_4 C33_4 1_555 1_555
H25_4 C38_4 1_555 1_555
C44_4 C38_4 1_555 1_555
H31_4 C44_4 1_555 1_555
C28_4 C31_4 1_555 1_555
C24_4 C18_4 1_555 1_555
C29_4 C23_4 1_555 1_555
H16_4 C24_4 1_555 1_555
N10_4 C29_4 1_555 1_555
C34_4 N10_4 1_555 1_555
C35_4 N10_4 1_555 1_555
H21_4 C34_4 1_555 1_555
C40_4 C34_4 1_555 1_555
H22_4 C35_4 1_555 1_555
H27_4 C40_4 1_555 1_555
C24_4 C29_4 1_555 1_555
N8_3 O25_3 1_555 1_555
N9_3 O27_3 1_555 1_555
O33_3 N9_3 1_555 1_555
O26_3 N8_3 1_555 1_555
O28_3 N9_3 1_555 1_555
N8_4 O25_4 1_555 1_555
N9_4 O27_4 1_555 1_555
O33_4 N9_4 1_555 1_555
C45_4 C39_4 1_555 1_555
H26_4 C39_4 1_555 1_555
H32_4 C45_4 1_555 1_555
C49_4 N12_4 1_555 1_555
C54_4 C49_4 1_555 1_555
C55_4 C49_4 1_555 1_555
H37_4 C54_4 1_555 1_555
C60_4 C54_4 1_555 1_555
C61_4 C55_4 1_555 1_555
H43_4 C60_4 1_555 1_555
C63_4 C60_4 1_555 1_555
H44_4 C61_4 1_555 1_555
O26_4 N8_4 1_555 1_555
O28_4 N9_4 1_555 1_555
C45_4 N12_4 1_555 1_555
C61_4 C63_4 1_555 1_555
Cl1 O40 1_555 1_555
O41 Cl1 1_555 1_555
O42 Cl1 1_555 1_555
O43 Cl1 1_555 1_555
Cl1_2 O40_2 1_555 1_555
O41_2 Cl1_2 1_555 1_555
O42_2 Cl1_2 1_555 1_555
O43_2 Cl1_2 1_555 1_555
Cl1_3 O40_3 1_555 1_555
O41_3 Cl1_3 1_555 1_555
O42_3 Cl1_3 1_555 1_555
O43_3 Cl1_3 1_555 1_555
Cl1_4 O40_4 1_555 1_555
O41_4 Cl1_4 1_555 1_555
O42_4 Cl1_4 1_555 1_555
O43_4 Cl1_4 1_555 1_555
O44 N14 1_555 1_555
O45 N14 1_555 1_555
O44_2 N14_2 1_555 1_555
O45_2 N14_2 1_555 1_555
O44_3 N14_3 1_555 1_555
O45_3 N14_3 1_555 1_555
O46_3 N14_3 1_555 1_555
O44_4 N14_4 1_555 1_555
O45_4 N14_4 1_555 1_555
O46_4 N14_4 1_555 1_555

#END
