
###############################################################################
#
# This file contains modified crystal structure data generated from the
# MOF subset of the Cambridge Structural Database (CSD) v543 
# hosted by the Cambridge Crystallographic Data Centre (CCDC).
#
# This work is licensed under the Creative Commons
# Attribution-NonCommercial-ShareAlike 4.0 International License.
# To view a copy of this license, visit
# http://creativecommons.org/licenses/by-nc-sa/4.0/
# or send a letter to
# Creative Commons, PO Box 1866, Mountain View, CA 94042, USA.
#
# CIF created using the CSD Python API on 29 September 2022
# The structure has been converted into the P1 space group
# The structure has a 3D framework
# The original CSD entry QULWIG is in the monoclinic crystal system
# The framework has been calculated to contain at least 10.0% void space
# The void calculation uses a probe of radius 1.32A, grid spacing 0.4
# The framework is charged, counterions have been retained in the structure
#
###############################################################################

data_QULWIG
_chemical_formula_moiety         '(C288 H192 Cl4 Eu12 N56 O158 2+)n'
_symmetry_cell_setting           triclinic
_symmetry_space_group_name_H-M   'P 1'
_symmetry_Int_Tables_number      1
_space_group_name_Hall           'P 1'
loop_
_symmetry_equiv_pos_site_id
_symmetry_equiv_pos_as_xyz
1 x,y,z
_cell_length_a                   24.127(13)
_cell_length_b                   19.599(10)
_cell_length_c                   22.748(18)
_cell_angle_alpha                90
_cell_angle_beta                 116.110(5)
_cell_angle_gamma                90
_cell_volume                     9659.02
loop_
_atom_site_label
_atom_site_type_symbol
_atom_site_fract_x
_atom_site_fract_y
_atom_site_fract_z
O14 O 0.0735(8) 0.4110(14) 0.5354(13)
O15 O 0.0030(7) 0.4338(10) 0.4378(9)
N7 N 0.0152(8) 0.4205(13) 0.4944(13)
Eu7 Eu 0.19080(2) 0.00937(3) 0.40651(2)
O7 O 0.0949(4) 0.9473(5) 0.4925(4)
O8 O 0.1855(5) 0.9897(6) 0.5066(4)
O11 O 0.2936(4) 0.0484(5) 0.4569(4)
O12 O 0.3829(4) 0.0247(5) 0.4587(4)
N4 N 0.2630(4) 0.8263(5) 0.7771(4)
N6 N 0.4672(5) 0.1664(6) 0.7389(5)
C34 C 0.3431(7) 0.7160(8) 0.9541(6)
C35 C 0.3352(7) 0.6466(9) 0.9595(7)
H23 H 0.3090 0.6229 0.9221
C37 C 0.3146(6) 0.7539(7) 0.8938(6)
C38 C 0.3374(7) 0.8201(8) 0.8877(6)
H25 H 0.3710 0.8388 0.9231
C39 C 0.3096(7) 0.8562(8) 0.8296(6)
H26 H 0.3227 0.9001 0.8264
C40 C 0.2428(6) 0.7651(7) 0.7811(6)
H27 H 0.2106 0.7469 0.7440
C41 C 0.2663(7) 0.7269(8) 0.8365(7)
H28 H 0.2508 0.6835 0.8369
C42 C 0.2352(5) 0.8641(6) 0.7136(5)
C43 C 0.2739(6) 0.8927(8) 0.6903(6)
H29 H 0.3166 0.8917 0.7142
C44 C 0.2455(6) 0.9229(7) 0.6295(6)
H30 H 0.2700 0.9413 0.6113
C45 C 0.1821(5) 0.9269(6) 0.5944(5)
C46 C 0.1456(5) 0.9013(7) 0.6216(5)
H31 H 0.1030 0.9060 0.5994
C47 C 0.1713(5) 0.8689(7) 0.6812(5)
H32 H 0.1467 0.8506 0.6993
C48 C 0.1511(5) 0.9579(6) 0.5248(5)
C57 C 0.5915(7) 0.2394(7) 0.9766(6)
H38 H 0.6000 0.1933 0.9755
C58 C 0.5510(5) 0.2707(6) 0.9205(5)
C59 C 0.5389(7) 0.3379(7) 0.9267(6)
H39 H 0.5086 0.3601 0.8908
C60 C 0.5697(7) 0.3738(7) 0.9837(6)
H40 H 0.5629 0.4204 0.9845
C61 C 0.5214(5) 0.2337(7) 0.8573(5)
C62 C 0.5459(7) 0.1753(9) 0.8465(7)
H41 H 0.5818 0.1574 0.8796
C63 C 0.5184(6) 0.1427(7) 0.7877(6)
H42 H 0.5360 0.1028 0.7815
C64 C 0.4409(6) 0.2230(8) 0.7483(6)
H43 H 0.4043 0.2385 0.7146
C65 C 0.4665(7) 0.2589(8) 0.8063(6)
H44 H 0.4481 0.2986 0.8116
C66 C 0.4382(6) 0.1314(7) 0.6766(5)
C67 C 0.3759(6) 0.1238(8) 0.6475(6)
H45 H 0.3527 0.1384 0.6688
C68 C 0.3462(6) 0.0933(8) 0.5840(6)
H46 H 0.3037 0.0868 0.5636
C69 C 0.3820(5) 0.0740(6) 0.5542(5)
C70 C 0.4450(5) 0.0784(8) 0.5847(6)
H47 H 0.4684 0.0606 0.5651
C71 C 0.4739(6) 0.1104(8) 0.6465(6)
H48 H 0.5164 0.1172 0.6667
C72 C 0.3497(5) 0.0462(5) 0.4848(5)
Eu9 Eu 0.00752(2) 0.89424(3) 0.41267(2)
O3 O 0.6312(7) 0.5897(6) 0.8546(9)
O4 O 0.5727(5) 0.6600(6) 0.8781(6)
N2 N 0.6920(8) 0.8702(7) 0.7535(8)
C13 C 0.7262(7) 0.9738(9) 0.6978(9)
C14 C 0.7691(9) 0.9435(10) 0.7535(9)
H9 H 0.8096 0.9593 0.7729
C15 C 0.7518(9) 0.8887(11) 0.7809(10)
H10 H 0.7808 0.8656 0.8171
C16 C 0.6482(10) 0.9012(11) 0.7010(12)
H11 H 0.6066 0.8898 0.6840
C17 C 0.6714(10) 0.9538(12) 0.6733(12)
H12 H 0.6437 0.9742 0.6345
C18 C 0.6745(9) 0.8137(7) 0.7847(9)
C19 C 0.6997(9) 0.7538(8) 0.7891(9)
H13 H 0.7295 0.7472 0.7741
C20 C 0.6813(8) 0.6997(7) 0.8165(9)
H14 H 0.7025 0.6584 0.8246
C21 C 0.6332(8) 0.7067(6) 0.8314(9)
C22 C 0.6072(10) 0.7702(8) 0.8243(13)
H15 H 0.5729 0.7759 0.8322
C23 C 0.6303(11) 0.8252(10) 0.8060(14)
H16 H 0.6165 0.8692 0.8078
C24 C 0.6099(8) 0.6461(7) 0.8550(8)
Eu5 Eu 0.69080(2) 0.49063(3) 0.90651(2)
Eu8 Eu 0.50752(2) 0.60576(3) 0.91267(2)
Eu4 Eu 0.38558(2) 0.92768(3) 0.40044(2)
Eu4_2 Eu 0.38558(2) 0.07232(3) 0.90044(2)
Eu1 Eu 0.88558(2) 0.57232(3) 0.90044(2)
O1 O 0.7525(8) 0.5869(7) 0.9464(9)
O2 O 0.8439(8) 0.6227(7) 0.9628(9)
O5 O 0.5866(4) 0.4593(5) 0.8572(4)
O6 O 0.5032(5) 0.5188(6) 0.8398(5)
O8_2 O 0.1855(5) 0.0103(6) 0.0066(4)
O9 O 0.7907(4) 0.5395(6) 0.8189(4)
O10 O 0.7006(4) 0.4994(5) 0.8090(4)
O16 O 0.9276(6) 0.6929(7) 0.9178(8)
O17 O 0.8747(9) 0.7829(7) 0.8742(9)
O18 O 0.8355(7) 0.6797(7) 0.8387(8)
O19 O 0.9068(6) 0.5779(6) 0.8021(6)
O20 O 0.9265(15) 0.4878(10) 0.7590(11)
O21 O 0.9055(6) 0.4750(6) 0.8396(6)
O22 O 0.6869(5) 0.3721(5) 0.8590(5)
O23 O 0.6870(5) 0.3739(5) 0.9537(5)
O24 O 0.6754(11) 0.2785(7) 0.9018(12)
O25 O 0.5601(6) 0.7041(6) 0.9919(6)
O28 O 0.4698(6) 0.5049(7) 0.9524(7)
O29 O 0.3987(6) 0.5613(10) 0.8721(7)
O30 O 0.3739(10) 0.4720(14) 0.9096(12)
O31 O 0.4405(7) 0.7117(7) 0.8784(6)
O32 O 0.4361(6) 0.6526(7) 0.7983(5)
O33 O 0.3832(9) 0.7445(8) 0.7793(7)
N3 N 0.4033(6) 0.3532(7) 0.5713(5)
N4_2 N 0.2630(4) 0.1737(5) 0.2771(4)
N5 N 0.6087(5) 0.6571(5) 0.5369(4)
N6_2 N 0.4672(5) 0.8336(6) 0.2389(5)
N8 N 0.8785(9) 0.7194(8) 0.8748(10)
N9 N 0.9098(9) 0.5145(9) 0.7972(8)
N10 N 0.6816(7) 0.3386(5) 0.9042(8)
N12 N 0.4115(10) 0.5132(14) 0.9075(11)
N13 N 0.4183(7) 0.7040(9) 0.8179(7)
C1 C 0.7935(9) 0.6276(7) 0.9677(10)
H4 H 0.7017 0.6701 0.9912
C25 C 0.5332(5) 0.4797(6) 0.8227(5)
C26 C 0.4995(6) 0.4499(7) 0.7546(5)
C27 C 0.5296(7) 0.4040(9) 0.7339(7)
H17 H 0.5708 0.3935 0.7599
C28 C 0.4968(8) 0.3727(10) 0.6716(7)
H18 H 0.5158 0.3405 0.6566
C29 C 0.4368(7) 0.3909(8) 0.6344(6)
C30 C 0.4061(8) 0.4378(12) 0.6524(7)
H19 H 0.3649 0.4478 0.6257
C31 C 0.4390(6) 0.4713(10) 0.7131(7)
H20 H 0.4209 0.5070 0.7254
C32 C 0.4104(13) 0.2869(10) 0.5692(8)
H21 H 0.4362 0.2634 0.6069
C33 C 0.3807(12) 0.2531(9) 0.5128(8)
H22 H 0.3856 0.2060 0.5131
C34_2 C 0.3431(7) 0.2840(8) 0.4541(6)
C35_2 C 0.3352(7) 0.3534(9) 0.4595(7)
H23_2 H 0.3090 0.3771 0.4221
C36 C 0.3639(7) 0.3884(9) 0.5165(7)
H24 H 0.3570 0.4349 0.5185
C37_2 C 0.3146(6) 0.2461(7) 0.3938(6)
C38_2 C 0.3374(7) 0.1799(8) 0.3877(6)
H25_2 H 0.3710 0.1612 0.4231
C39_2 C 0.3096(7) 0.1438(8) 0.3296(6)
H26_2 H 0.3227 0.0999 0.3264
C40_2 C 0.2428(6) 0.2349(7) 0.2811(6)
H27_2 H 0.2106 0.2531 0.2440
C41_2 C 0.2663(7) 0.2731(8) 0.3365(7)
H28_2 H 0.2508 0.3165 0.3369
C42_2 C 0.2352(5) 0.1359(6) 0.2136(5)
C43_2 C 0.2739(6) 0.1073(8) 0.1903(6)
H29_2 H 0.3166 0.1083 0.2142
C44_2 C 0.2455(6) 0.0771(7) 0.1295(6)
H30_2 H 0.2700 0.0587 0.1113
C45_2 C 0.1821(5) 0.0731(6) 0.0944(5)
C46_2 C 0.1456(5) 0.0987(7) 0.1216(5)
H31_2 H 0.1030 0.0940 0.0994
C47_2 C 0.1713(5) 0.1311(7) 0.1812(5)
H32_2 H 0.1467 0.1494 0.1993
C48_2 C 0.1511(5) 0.0421(6) 0.0248(5)
C49 C 0.7330(5) 0.5311(6) 0.7876(5)
C50 C 0.7012(5) 0.5604(6) 0.7198(5)
C51 C 0.7346(6) 0.5949(7) 0.6940(6)
H33 H 0.7773 0.5982 0.7171
C52 C 0.7041(6) 0.6250(8) 0.6328(6)
H34 H 0.7266 0.6475 0.6144
C53 C 0.6402(6) 0.6217(7) 0.5988(5)
C54 C 0.6073(6) 0.5859(8) 0.6244(7)
H35 H 0.5646 0.5825 0.6013
C55 C 0.6374(6) 0.5553(7) 0.6838(6)
H36 H 0.6149 0.5305 0.7008
C56 C 0.6204(8) 0.7247(8) 0.5358(7)
H37 H 0.6473 0.7470 0.5738
C57_2 C 0.5915(7) 0.7606(7) 0.4766(6)
H38_2 H 0.6000 0.8067 0.4755
C58_2 C 0.5510(5) 0.7293(6) 0.4205(5)
C59_2 C 0.5389(7) 0.6621(7) 0.4267(6)
H39_2 H 0.5086 0.6399 0.3908
C60_2 C 0.5697(7) 0.6262(7) 0.4837(6)
H40_2 H 0.5629 0.5796 0.4845
C61_2 C 0.5214(5) 0.7663(7) 0.3573(5)
C62_2 C 0.5459(7) 0.8247(9) 0.3465(7)
H41_2 H 0.5818 0.8426 0.3796
C63_2 C 0.5184(6) 0.8573(7) 0.2877(6)
H42_2 H 0.5360 0.8972 0.2815
C64_2 C 0.4409(6) 0.7770(8) 0.2483(6)
H43_2 H 0.4043 0.7615 0.2146
C65_2 C 0.4665(7) 0.7411(8) 0.3063(6)
H44_2 H 0.4481 0.7014 0.3116
C66_2 C 0.4382(6) 0.8686(7) 0.1766(5)
C67_2 C 0.3759(6) 0.8762(8) 0.1475(6)
H45_2 H 0.3527 0.8616 0.1688
C68_2 C 0.3462(6) 0.9067(8) 0.0840(6)
H46_2 H 0.3037 0.9132 0.0636
C69_2 C 0.3820(5) 0.9260(6) 0.0542(5)
C70_2 C 0.4450(5) 0.9216(8) 0.0847(6)
H47_2 H 0.4684 0.9394 0.0651
C71_2 C 0.4739(6) 0.8896(8) 0.1465(6)
H48_2 H 0.5164 0.8828 0.1667
O36 O 0.5949(4) 0.5527(5) 0.9925(4)
O38 O 0.7936(4) 0.4516(5) 0.9569(4)
O39 O 0.8829(4) 0.4753(5) 0.9587(4)
O7_2 O 0.0949(4) 0.0527(5) 0.9925(4)
O11_2 O 0.2936(4) 0.9516(5) 0.9569(4)
O12_2 O 0.3829(4) 0.9753(5) 0.9587(4)
C72_2 C 0.3497(5) 0.9538(5) 0.9848(5)
Eu6 Eu 0.19080(2) 0.99063(3) 0.90651(2)
Eu9_2 Eu 0.00752(2) 0.10576(3) 0.91267(2)
O5_2 O 0.0866(4) 0.0407(5) 0.3572(4)
O10_2 O 0.2006(4) 0.0006(5) 0.3090(4)
O20_2 O 0.4265(15) 0.0122(10) 0.2590(11)
O21_2 O 0.4055(6) 0.0250(6) 0.3396(6)
O22_2 O 0.1869(5) 0.1279(5) 0.3590(5)
O23_2 O 0.1870(5) 0.1261(5) 0.4537(5)
O24_2 O 0.1754(11) 0.2215(7) 0.4018(12)
N10_2 N 0.1816(7) 0.1614(5) 0.4042(8)
C25_2 C 0.0332(5) 0.0203(6) 0.3227(5)
C27_2 C 0.0296(7) 0.0960(9) 0.2339(7)
H17_2 H 0.0708 0.1065 0.2599
H18_2 H 0.0158 0.1595 0.1566
O1_2 O 0.2525(8) 0.9131(7) 0.4464(9)
O2_2 O 0.3439(8) 0.8773(7) 0.4628(9)
O3_2 O 0.1312(7) 0.0897(6) 0.8546(9)
O4_2 O 0.0727(5) 0.1600(6) 0.8781(6)
O6_2 O 0.0032(5) 0.9812(6) 0.3398(5)
O9_2 O 0.2907(4) 0.9605(6) 0.3189(4)
O13 O 0.4747(9) 0.9146(10) 0.5124(8)
O14_2 O 0.5735(8) 0.9110(14) 0.5354(13)
O15_2 O 0.5030(7) 0.9338(10) 0.4378(9)
O16_2 O 0.4276(6) 0.8071(7) 0.4178(8)
O17_2 O 0.3747(9) 0.7171(7) 0.3742(9)
O18_2 O 0.3355(7) 0.8203(7) 0.3387(8)
O19_2 O 0.4068(6) 0.9221(6) 0.3021(6)
O25_2 O 0.0601(6) 0.7959(6) 0.4919(6)
O27 O 0.0393(9) 0.7647(9) 0.5747(7)
N1 N 0.2654(7) 0.6382(7) 0.5999(8)
N2_2 N 0.1920(8) 0.3702(7) 0.7535(8)
N5_2 N 0.1087(5) 0.8429(5) 0.0369(4)
N7_2 N 0.5152(8) 0.9205(13) 0.4944(13)
N8_2 N 0.3785(9) 0.7806(8) 0.3748(10)
N9_2 N 0.4098(9) 0.9855(9) 0.2972(8)
N11 N 0.0310(8) 0.8040(8) 0.5259(8)
C1_2 C 0.2935(9) 0.8724(7) 0.4677(10)
C2 C 0.2875(8) 0.8112(8) 0.5040(9)
C3 C 0.3374(9) 0.7703(10) 0.5414(11)
H1 H 0.3770 0.7838 0.5490
C4 C 0.3290(9) 0.7097(11) 0.5674(12)
H2 H 0.3606 0.6776 0.5842
C5 C 0.2747(9) 0.6980(10) 0.5681(11)
C6 C 0.2275(9) 0.7444(9) 0.5418(10)
H3 H 0.1912 0.7380 0.5460
C7 C 0.2342(7) 0.7992(8) 0.5099(8)
H4_2 H 0.2017 0.8299 0.4912
C8 C 0.3009(9) 0.6325(9) 0.6707(10)
H5 H 0.3302 0.6649 0.6952
C9 C 0.2886(9) 0.5774(10) 0.6979(9)
H6 H 0.3117 0.5704 0.7426
C10 C 0.2431(8) 0.5306(9) 0.6629(9)
C11 C 0.2124(9) 0.5385(10) 0.5985(9)
H7 H 0.1834 0.5053 0.5754
C12 C 0.2202(10) 0.5931(12) 0.5625(13)
H8 H 0.1969 0.5980 0.5175
C13_2 C 0.2262(7) 0.4738(9) 0.6978(9)
C14_2 C 0.2691(9) 0.4435(10) 0.7535(9)
H9_2 H 0.3096 0.4593 0.7729
C15_2 C 0.2518(9) 0.3887(11) 0.7809(10)
H10_2 H 0.2808 0.3656 0.8171
C16_2 C 0.1482(10) 0.4012(11) 0.7010(12)
H11_2 H 0.1066 0.3898 0.6840
C17_2 C 0.1714(10) 0.4538(12) 0.6733(12)
H12_2 H 0.1437 0.4742 0.6345
C18_2 C 0.1745(9) 0.3137(7) 0.7847(9)
C19_2 C 0.1997(9) 0.2538(8) 0.7891(9)
H13_2 H 0.2295 0.2472 0.7741
C20_2 C 0.1813(8) 0.1997(7) 0.8165(9)
H14_2 H 0.2025 0.1584 0.8246
C21_2 C 0.1332(8) 0.2067(6) 0.8314(9)
C22_2 C 0.1072(10) 0.2702(8) 0.8243(13)
H15_2 H 0.0729 0.2759 0.8322
C23_2 C 0.1303(11) 0.3252(10) 0.8060(14)
H16_2 H 0.1165 0.3692 0.8078
C24_2 C 0.1099(8) 0.1461(7) 0.8550(8)
C49_2 C 0.2330(5) 0.9689(6) 0.2876(5)
C50_2 C 0.2012(5) 0.9396(6) 0.2198(5)
C51_2 C 0.2346(6) 0.9051(7) 0.1940(6)
H33_2 H 0.2773 0.9018 0.2171
C52_2 C 0.2041(6) 0.8750(8) 0.1328(6)
H34_2 H 0.2266 0.8525 0.1144
C53_2 C 0.1402(6) 0.8783(7) 0.0988(5)
C54_2 C 0.1073(6) 0.9141(8) 0.1244(7)
H35_2 H 0.0646 0.9175 0.1013
C55_2 C 0.1374(6) 0.9447(7) 0.1838(6)
H36_2 H 0.1149 0.9695 0.2008
C56_2 C 0.1204(8) 0.7753(8) 0.0358(7)
H37_2 H 0.1473 0.7530 0.0738
O34 O 0.1312(7) 0.9103(6) 0.3546(9)
O35 O 0.0727(5) 0.8400(6) 0.3781(6)
O13_2 O 0.4747(9) 0.0854(10) 0.0124(8)
O14_3 O 0.5735(8) 0.0890(14) 0.0354(13)
O27_2 O 0.0393(9) 0.2353(9) 0.0747(7)
N1_2 N 0.2654(7) 0.3618(7) 0.0999(8)
N2_3 N 0.1920(8) 0.6298(7) 0.2535(8)
N11_2 N 0.0310(8) 0.1960(8) 0.0259(8)
C2_2 C 0.2875(8) 0.1888(8) 0.0040(9)
C3_2 C 0.3374(9) 0.2297(10) 0.0414(11)
H1_2 H 0.3770 0.2162 0.0490
C4_2 C 0.3290(9) 0.2903(11) 0.0674(12)
H2_2 H 0.3606 0.3224 0.0842
C5_2 C 0.2747(9) 0.3020(10) 0.0681(11)
C6_2 C 0.2275(9) 0.2556(9) 0.0418(10)
H3_2 H 0.1912 0.2620 0.0460
C7_2 C 0.2342(7) 0.2008(8) 0.0099(8)
C8_2 C 0.3009(9) 0.3675(9) 0.1707(10)
H5_2 H 0.3302 0.3351 0.1952
C9_2 C 0.2886(9) 0.4226(10) 0.1979(9)
H6_2 H 0.3117 0.4296 0.2426
C10_2 C 0.2431(8) 0.4694(9) 0.1629(9)
C11_2 C 0.2124(9) 0.4615(10) 0.0985(9)
H7_2 H 0.1834 0.4947 0.0754
C12_2 C 0.2202(10) 0.4069(12) 0.0625(13)
H8_2 H 0.1969 0.4020 0.0175
C13_3 C 0.2262(7) 0.5262(9) 0.1978(9)
C14_3 C 0.2691(9) 0.5565(10) 0.2535(9)
H9_3 H 0.3096 0.5407 0.2729
C15_3 C 0.2518(9) 0.6113(11) 0.2809(10)
H10_3 H 0.2808 0.6344 0.3171
C16_3 C 0.1482(10) 0.5988(11) 0.2010(12)
H11_3 H 0.1066 0.6102 0.1840
C17_3 C 0.1714(10) 0.5462(12) 0.1733(12)
H12_3 H 0.1437 0.5258 0.1345
C18_3 C 0.1745(9) 0.6863(7) 0.2847(9)
C19_3 C 0.1997(9) 0.7462(8) 0.2891(9)
H13_3 H 0.2295 0.7528 0.2741
C20_3 C 0.1813(8) 0.8003(7) 0.3165(9)
H14_3 H 0.2025 0.8416 0.3246
C21_3 C 0.1332(8) 0.7933(6) 0.3314(9)
C22_3 C 0.1072(10) 0.7298(8) 0.3243(13)
H15_3 H 0.0729 0.7241 0.3322
C23_3 C 0.1303(11) 0.6748(10) 0.3060(14)
H16_3 H 0.1165 0.6308 0.3078
C24_3 C 0.1099(8) 0.8539(7) 0.3550(8)
O1_3 O 0.2525(8) 0.0869(7) 0.9464(9)
O2_3 O 0.3439(8) 0.1227(7) 0.9628(9)
O6_3 O 0.0032(5) 0.0188(6) 0.8398(5)
O9_3 O 0.2907(4) 0.0395(6) 0.8189(4)
O15_3 O 0.5030(7) 0.0662(10) 0.9378(9)
O16_3 O 0.4276(6) 0.1929(7) 0.9178(8)
O17_3 O 0.3747(9) 0.2829(7) 0.8742(9)
O18_3 O 0.3355(7) 0.1797(7) 0.8387(8)
O19_3 O 0.4068(6) 0.0779(6) 0.8021(6)
O25_3 O 0.0601(6) 0.2041(6) 0.9919(6)
N5_3 N 0.1087(5) 0.1571(5) 0.5369(4)
N7_3 N 0.5152(8) 0.0795(13) 0.9944(13)
N8_3 N 0.3785(9) 0.2194(8) 0.8748(10)
N9_3 N 0.4098(9) 0.0145(9) 0.7972(8)
C1_3 C 0.2935(9) 0.1276(7) 0.9677(10)
H4_3 H 0.2017 0.1701 0.9912
C49_3 C 0.2330(5) 0.0311(6) 0.7876(5)
C50_3 C 0.2012(5) 0.0604(6) 0.7198(5)
C51_3 C 0.2346(6) 0.0949(7) 0.6940(6)
H33_3 H 0.2773 0.0982 0.7171
C52_3 C 0.2041(6) 0.1250(8) 0.6328(6)
H34_3 H 0.2266 0.1475 0.6144
C53_3 C 0.1402(6) 0.1217(7) 0.5988(5)
C54_3 C 0.1073(6) 0.0859(8) 0.6244(7)
H35_3 H 0.0646 0.0825 0.6013
C55_3 C 0.1374(6) 0.0553(7) 0.6838(6)
H36_3 H 0.1149 0.0305 0.7008
C56_3 C 0.1204(8) 0.2247(8) 0.5358(7)
H37_3 H 0.1473 0.2470 0.5738
C57_3 C 0.0915(7) 0.2606(7) 0.4766(6)
H38_3 H 0.1000 0.3067 0.4755
C58_3 C 0.0510(5) 0.2293(6) 0.4205(5)
C59_3 C 0.0389(7) 0.1621(7) 0.4267(6)
H39_3 H 0.0086 0.1399 0.3908
C60_3 C 0.0697(7) 0.1262(7) 0.4837(6)
H40_3 H 0.0629 0.0796 0.4845
C61_3 C 0.0214(5) 0.2663(7) 0.3573(5)
C62_3 C 0.0459(7) 0.3247(9) 0.3465(7)
H41_3 H 0.0818 0.3426 0.3796
C63_3 C 0.0184(6) 0.3573(7) 0.2877(6)
H42_3 H 0.0360 0.3972 0.2815
H48_3 H 0.0164 0.3828 0.1667
O5_3 O 0.0866(4) 0.9593(5) 0.8572(4)
O10_3 O 0.2006(4) 0.9994(5) 0.8090(4)
O20_3 O 0.4265(15) 0.9878(10) 0.7590(11)
O21_3 O 0.4055(6) 0.9750(6) 0.8396(6)
O22_3 O 0.1869(5) 0.8721(5) 0.8590(5)
O23_3 O 0.1870(5) 0.8739(5) 0.9537(5)
O24_3 O 0.1754(11) 0.7785(7) 0.9018(12)
N10_3 N 0.1816(7) 0.8386(5) 0.9042(8)
C25_3 C 0.0332(5) 0.9797(6) 0.8227(5)
C27_3 C 0.0296(7) 0.9040(9) 0.7339(7)
H17_3 H 0.0708 0.8935 0.7599
H18_3 H 0.0158 0.8405 0.6566
C72_3 C 0.8497(5) 0.4538(5) 0.9848(5)
Eu1_2 Eu 0.88558(2) 0.42768(3) 0.40044(2)
Eu2 Eu 0.69080(2) 0.50937(3) 0.40651(2)
Eu3 Eu 0.50752(2) 0.39424(3) 0.41267(2)
O1_4 O 0.7525(8) 0.4131(7) 0.4464(9)
O2_4 O 0.8439(8) 0.3773(7) 0.4628(9)
O5_4 O 0.5866(4) 0.5407(5) 0.3572(4)
O6_4 O 0.5032(5) 0.4812(6) 0.3398(5)
O9_4 O 0.7907(4) 0.4605(6) 0.3189(4)
O10_4 O 0.7006(4) 0.5006(5) 0.3090(4)
O13_3 O 0.9747(9) 0.4146(10) 0.5124(8)
O16_4 O 0.9276(6) 0.3071(7) 0.4178(8)
O17_4 O 0.8747(9) 0.2171(7) 0.3742(9)
O18_4 O 0.8355(7) 0.3203(7) 0.3387(8)
O19_4 O 0.9068(6) 0.4221(6) 0.3021(6)
O20_4 O 0.9265(15) 0.5122(10) 0.2590(11)
O21_4 O 0.9055(6) 0.5250(6) 0.3396(6)
O22_4 O 0.6869(5) 0.6279(5) 0.3590(5)
O23_4 O 0.6870(5) 0.6261(5) 0.4537(5)
O24_4 O 0.6754(11) 0.7215(7) 0.4018(12)
O25_4 O 0.5601(6) 0.2959(6) 0.4919(6)
O26 O 0.4904(6) 0.3567(8) 0.5090(6)
O27_3 O 0.5393(9) 0.2647(9) 0.5747(7)
O28_2 O 0.4698(6) 0.4951(7) 0.4524(7)
O29_2 O 0.3987(6) 0.4387(10) 0.3721(7)
O30_2 O 0.3739(10) 0.5280(14) 0.4096(12)
O31_2 O 0.4405(7) 0.2883(7) 0.3784(6)
O32_2 O 0.4361(6) 0.3474(7) 0.2983(5)
O33_2 O 0.3832(9) 0.2555(8) 0.2793(7)
N1_3 N 0.7654(7) 0.1382(7) 0.5999(8)
N3_2 N 0.4033(6) 0.6468(7) 0.0713(5)
N5_4 N 0.6087(5) 0.3429(5) 0.0369(4)
N8_4 N 0.8785(9) 0.2806(8) 0.3748(10)
N9_4 N 0.9098(9) 0.4855(9) 0.2972(8)
N10_4 N 0.6816(7) 0.6614(5) 0.4042(8)
N11_3 N 0.5310(8) 0.3040(8) 0.5259(8)
N12_2 N 0.4115(10) 0.4868(14) 0.4075(11)
N13_2 N 0.4183(7) 0.2960(9) 0.3179(7)
C1_4 C 0.7935(9) 0.3724(7) 0.4677(10)
C2_3 C 0.7875(8) 0.3112(8) 0.5040(9)
C3_3 C 0.8374(9) 0.2703(10) 0.5414(11)
H1_3 H 0.8770 0.2838 0.5490
C4_3 C 0.8290(9) 0.2097(11) 0.5674(12)
H2_3 H 0.8606 0.1776 0.5842
C5_3 C 0.7747(9) 0.1980(10) 0.5681(11)
C6_3 C 0.7275(9) 0.2444(9) 0.5418(10)
H3_3 H 0.6912 0.2380 0.5460
C7_3 C 0.7342(7) 0.2992(8) 0.5099(8)
H4_4 H 0.7017 0.3299 0.4912
C8_3 C 0.8009(9) 0.1325(9) 0.6707(10)
H5_3 H 0.8302 0.1649 0.6952
C9_3 C 0.7886(9) 0.0774(10) 0.6979(9)
H6_3 H 0.8117 0.0704 0.7426
C10_3 C 0.7431(8) 0.0306(9) 0.6629(9)
C11_3 C 0.7124(9) 0.0385(10) 0.5985(9)
H7_3 H 0.6834 0.0053 0.5754
C12_3 C 0.7202(10) 0.0931(12) 0.5625(13)
H8_3 H 0.6969 0.0980 0.5175
C25_4 C 0.5332(5) 0.5203(6) 0.3227(5)
C26_2 C 0.4995(6) 0.5501(7) 0.2546(5)
C27_4 C 0.5296(7) 0.5960(9) 0.2339(7)
H17_4 H 0.5708 0.6065 0.2599
C28_2 C 0.4968(8) 0.6273(10) 0.1716(7)
H18_4 H 0.5158 0.6595 0.1566
C29_2 C 0.4368(7) 0.6091(8) 0.1344(6)
C30_2 C 0.4061(8) 0.5622(12) 0.1524(7)
H19_2 H 0.3649 0.5522 0.1257
C31_2 C 0.4390(6) 0.5287(10) 0.2131(7)
H20_2 H 0.4209 0.4930 0.2254
C32_2 C 0.4104(13) 0.7131(10) 0.0692(8)
H21_2 H 0.4362 0.7366 0.1069
C33_2 C 0.3807(12) 0.7469(9) 0.0128(8)
H22_2 H 0.3856 0.7940 0.0131
C36_2 C 0.3639(7) 0.6116(9) 0.0165(7)
H24_2 H 0.3570 0.5651 0.0185
C49_4 C 0.7330(5) 0.4689(6) 0.2876(5)
C50_4 C 0.7012(5) 0.4396(6) 0.2198(5)
C51_4 C 0.7346(6) 0.4051(7) 0.1940(6)
H33_4 H 0.7773 0.4018 0.2171
C52_4 C 0.7041(6) 0.3750(8) 0.1328(6)
H34_4 H 0.7266 0.3525 0.1144
C53_4 C 0.6402(6) 0.3783(7) 0.0988(5)
C54_4 C 0.6073(6) 0.4141(8) 0.1244(7)
H35_4 H 0.5646 0.4175 0.1013
C55_4 C 0.6374(6) 0.4447(7) 0.1838(6)
H36_4 H 0.6149 0.4695 0.2008
C56_4 C 0.6204(8) 0.2753(8) 0.0358(7)
H37_4 H 0.6473 0.2530 0.0738
O34_2 O 0.6312(7) 0.4103(6) 0.3546(9)
O35_2 O 0.5727(5) 0.3400(6) 0.3781(6)
O36_2 O 0.5949(4) 0.4473(5) 0.4925(4)
O37 O 0.6855(5) 0.4897(6) 0.5066(4)
O38_2 O 0.7936(4) 0.5484(5) 0.4569(4)
O39_2 O 0.8829(4) 0.5247(5) 0.4587(4)
N2_4 N 0.6920(8) 0.1298(7) 0.2535(8)
C13_4 C 0.7262(7) 0.0262(9) 0.1978(9)
C14_4 C 0.7691(9) 0.0565(10) 0.2535(9)
H9_4 H 0.8096 0.0407 0.2729
C15_4 C 0.7518(9) 0.1113(11) 0.2809(10)
H10_4 H 0.7808 0.1344 0.3171
C16_4 C 0.6482(10) 0.0988(11) 0.2010(12)
H11_4 H 0.6066 0.1102 0.1840
C17_4 C 0.6714(10) 0.0462(12) 0.1733(12)
H12_4 H 0.6437 0.0258 0.1345
C18_4 C 0.6745(9) 0.1863(7) 0.2847(9)
C19_4 C 0.6997(9) 0.2462(8) 0.2891(9)
H13_4 H 0.7295 0.2528 0.2741
C20_4 C 0.6813(8) 0.3003(7) 0.3165(9)
H14_4 H 0.7025 0.3416 0.3246
C21_4 C 0.6332(8) 0.2933(6) 0.3314(9)
C22_4 C 0.6072(10) 0.2298(8) 0.3243(13)
H15_4 H 0.5729 0.2241 0.3322
C23_4 C 0.6303(11) 0.1748(10) 0.3060(14)
H16_4 H 0.6165 0.1308 0.3078
C24_4 C 0.6099(8) 0.3539(7) 0.3550(8)
N4_3 N 0.7630(4) 0.3263(5) 0.7771(4)
C34_3 C 0.8431(7) 0.2160(8) 0.9541(6)
C35_3 C 0.8352(7) 0.1466(9) 0.9595(7)
H23_3 H 0.8090 0.1229 0.9221
C37_3 C 0.8146(6) 0.2539(7) 0.8938(6)
C38_3 C 0.8374(7) 0.3201(8) 0.8877(6)
H25_3 H 0.8710 0.3388 0.9231
C39_3 C 0.8096(7) 0.3562(8) 0.8296(6)
H26_3 H 0.8227 0.4001 0.8264
C40_3 C 0.7428(6) 0.2651(7) 0.7811(6)
H27_3 H 0.7106 0.2469 0.7440
C41_3 C 0.7663(7) 0.2269(8) 0.8365(7)
H28_3 H 0.7508 0.1835 0.8369
C42_3 C 0.7352(5) 0.3641(6) 0.7136(5)
C43_3 C 0.7739(6) 0.3927(8) 0.6903(6)
H29_3 H 0.8166 0.3917 0.7142
C44_3 C 0.7455(6) 0.4229(7) 0.6295(6)
H30_3 H 0.7700 0.4413 0.6113
C45_3 C 0.6821(5) 0.4269(6) 0.5944(5)
C46_3 C 0.6456(5) 0.4013(7) 0.6216(5)
H31_3 H 0.6030 0.4060 0.5994
C47_3 C 0.6713(5) 0.3689(7) 0.6812(5)
H32_3 H 0.6467 0.3506 0.6993
C48_3 C 0.6511(5) 0.4579(6) 0.5248(5)
N6_3 N 0.9672(5) 0.6664(6) 0.7389(5)
C64_3 C 0.9409(6) 0.7230(8) 0.7483(6)
H43_3 H 0.9043 0.7385 0.7146
C65_3 C 0.9665(7) 0.7589(8) 0.8063(6)
H44_3 H 0.9481 0.7986 0.8116
C66_3 C 0.9382(6) 0.6314(7) 0.6766(5)
C67_3 C 0.8759(6) 0.6238(8) 0.6475(6)
H45_3 H 0.8527 0.6384 0.6688
C68_3 C 0.8462(6) 0.5933(8) 0.5840(6)
H46_3 H 0.8037 0.5868 0.5636
C69_3 C 0.8820(5) 0.5740(6) 0.5542(5)
C70_3 C 0.9450(5) 0.5784(8) 0.5847(6)
H47_3 H 0.9684 0.5606 0.5651
C71_3 C 0.9739(6) 0.6104(8) 0.6465(6)
C72_4 C 0.8497(5) 0.5462(5) 0.4848(5)
O14_4 O 0.0735(8) 0.5890(14) 0.0354(13)
O15_4 O 0.0030(7) 0.5662(10) 0.9378(9)
N7_4 N 0.0152(8) 0.5795(13) 0.9944(13)
O13_4 O 0.9747(9) 0.5854(10) 0.0124(8)
O26_2 O 0.4904(6) 0.6433(8) 0.0090(6)
O27_4 O 0.5393(9) 0.7353(9) 0.0747(7)
N1_4 N 0.7654(7) 0.8618(7) 0.0999(8)
N11_4 N 0.5310(8) 0.6960(8) 0.0259(8)
C2_4 C 0.7875(8) 0.6888(8) 0.0040(9)
C3_4 C 0.8374(9) 0.7297(10) 0.0414(11)
H1_4 H 0.8770 0.7162 0.0490
C4_4 C 0.8290(9) 0.7903(11) 0.0674(12)
H2_4 H 0.8606 0.8224 0.0842
C5_4 C 0.7747(9) 0.8020(10) 0.0681(11)
C6_4 C 0.7275(9) 0.7556(9) 0.0418(10)
H3_4 H 0.6912 0.7620 0.0460
C7_4 C 0.7342(7) 0.7008(8) 0.0099(8)
C8_4 C 0.8009(9) 0.8675(9) 0.1707(10)
H5_4 H 0.8302 0.8351 0.1952
C9_4 C 0.7886(9) 0.9226(10) 0.1979(9)
H6_4 H 0.8117 0.9296 0.2426
C10_4 C 0.7431(8) 0.9694(9) 0.1629(9)
C11_4 C 0.7124(9) 0.9615(10) 0.0985(9)
H7_4 H 0.6834 0.9947 0.0754
C12_4 C 0.7202(10) 0.9069(12) 0.0625(13)
H8_4 H 0.6969 0.9020 0.0175
O37_2 O 0.6855(5) 0.5103(6) 0.0066(4)
O30_3 O 0.8739(10) 0.9720(14) 0.9096(12)
N3_3 N 0.9033(6) 0.8532(7) 0.5713(5)
N4_4 N 0.7630(4) 0.6737(5) 0.2771(4)
C26_3 C 0.9995(6) 0.9499(7) 0.7546(5)
C28_3 C 0.9968(8) 0.8727(10) 0.6716(7)
C29_3 C 0.9368(7) 0.8909(8) 0.6344(6)
C30_3 C 0.9061(8) 0.9378(12) 0.6524(7)
H19_3 H 0.8649 0.9478 0.6257
C31_3 C 0.9390(6) 0.9713(10) 0.7131(7)
C32_3 C 0.9104(13) 0.7869(10) 0.5692(8)
H21_3 H 0.9362 0.7634 0.6069
C33_3 C 0.8807(12) 0.7531(9) 0.5128(8)
H22_3 H 0.8856 0.7060 0.5131
C34_4 C 0.8431(7) 0.7840(8) 0.4541(6)
C35_4 C 0.8352(7) 0.8534(9) 0.4595(7)
H23_4 H 0.8090 0.8771 0.4221
C36_3 C 0.8639(7) 0.8884(9) 0.5165(7)
H24_3 H 0.8570 0.9349 0.5185
C37_4 C 0.8146(6) 0.7461(7) 0.3938(6)
C38_4 C 0.8374(7) 0.6799(8) 0.3877(6)
H25_4 H 0.8710 0.6612 0.4231
C39_4 C 0.8096(7) 0.6438(8) 0.3296(6)
H26_4 H 0.8227 0.5999 0.3264
C40_4 C 0.7428(6) 0.7349(7) 0.2811(6)
H27_4 H 0.7106 0.7531 0.2440
C41_4 C 0.7663(7) 0.7731(8) 0.3365(7)
H28_4 H 0.7508 0.8165 0.3369
C42_4 C 0.7352(5) 0.6359(6) 0.2136(5)
C43_4 C 0.7739(6) 0.6073(8) 0.1903(6)
H29_4 H 0.8166 0.6083 0.2142
C44_4 C 0.7455(6) 0.5771(7) 0.1295(6)
H30_4 H 0.7700 0.5587 0.1113
C45_4 C 0.6821(5) 0.5731(6) 0.0944(5)
C46_4 C 0.6456(5) 0.5987(7) 0.1216(5)
H31_4 H 0.6030 0.5940 0.0994
C47_4 C 0.6713(5) 0.6311(7) 0.1812(5)
H32_4 H 0.6467 0.6494 0.1993
C48_4 C 0.6511(5) 0.5421(6) 0.0248(5)
C57_4 C 0.0915(7) 0.7394(7) 0.9766(6)
H38_4 H 0.1000 0.6933 0.9755
C58_4 C 0.0510(5) 0.7707(6) 0.9205(5)
C59_4 C 0.0389(7) 0.8379(7) 0.9267(6)
H39_4 H 0.0086 0.8601 0.8908
C60_4 C 0.0697(7) 0.8738(7) 0.9837(6)
H40_4 H 0.0629 0.9204 0.9845
C61_4 C 0.0214(5) 0.7337(7) 0.8573(5)
C62_4 C 0.0459(7) 0.6753(9) 0.8465(7)
H41_4 H 0.0818 0.6574 0.8796
C63_4 C 0.0184(6) 0.6427(7) 0.7877(6)
H42_4 H 0.0360 0.6028 0.7815
H48_4 H 0.0164 0.6172 0.6667
O30_4 O 0.8739(10) 0.0280(14) 0.4096(12)
N3_4 N 0.9033(6) 0.1468(7) 0.0713(5)
C26_4 C 0.9995(6) 0.0501(7) 0.2546(5)
C28_4 C 0.9968(8) 0.1273(10) 0.1716(7)
C29_4 C 0.9368(7) 0.1091(8) 0.1344(6)
C30_4 C 0.9061(8) 0.0622(12) 0.1524(7)
H19_4 H 0.8649 0.0522 0.1257
C31_4 C 0.9390(6) 0.0287(10) 0.2131(7)
C32_4 C 0.9104(13) 0.2131(10) 0.0692(8)
H21_4 H 0.9362 0.2366 0.1069
C33_4 C 0.8807(12) 0.2469(9) 0.0128(8)
H22_4 H 0.8856 0.2940 0.0131
C36_4 C 0.8639(7) 0.1116(9) 0.0165(7)
H24_4 H 0.8570 0.0651 0.0185
O26_3 O 0.9904(6) 0.8567(8) 0.5090(6)
O28_3 O 0.9698(6) 0.9951(7) 0.4524(7)
O29_3 O 0.8987(6) 0.9387(10) 0.3721(7)
O31_3 O 0.9405(7) 0.7883(7) 0.3784(6)
O32_3 O 0.9361(6) 0.8474(7) 0.2983(5)
O33_3 O 0.8832(9) 0.7555(8) 0.2793(7)
N12_3 N 0.9115(10) 0.9868(14) 0.4075(11)
N13_3 N 0.9183(7) 0.7960(9) 0.3179(7)
H20_3 H 0.9209 0.9930 0.2254
O26_4 O 0.9904(6) 0.1433(8) 0.0090(6)
O28_4 O 0.9698(6) 0.0049(7) 0.9524(7)
O29_4 O 0.8987(6) 0.0613(10) 0.8721(7)
O31_4 O 0.9405(7) 0.2117(7) 0.8784(6)
O32_4 O 0.9361(6) 0.1526(7) 0.7983(5)
O33_4 O 0.8832(9) 0.2445(8) 0.7793(7)
N6_4 N 0.9672(5) 0.3336(6) 0.2389(5)
N12_4 N 0.9115(10) 0.0132(14) 0.9075(11)
N13_4 N 0.9183(7) 0.2040(9) 0.8179(7)
H20_4 H 0.9209 0.0070 0.7254
C64_4 C 0.9409(6) 0.2770(8) 0.2483(6)
H43_4 H 0.9043 0.2615 0.2146
C65_4 C 0.9665(7) 0.2411(8) 0.3063(6)
H44_4 H 0.9481 0.2014 0.3116
C66_4 C 0.9382(6) 0.3686(7) 0.1766(5)
C67_4 C 0.8759(6) 0.3762(8) 0.1475(6)
H45_4 H 0.8527 0.3616 0.1688
C68_4 C 0.8462(6) 0.4067(8) 0.0840(6)
H46_4 H 0.8037 0.4132 0.0636
C69_4 C 0.8820(5) 0.4260(6) 0.0542(5)
C70_4 C 0.9450(5) 0.4216(8) 0.0847(6)
H47_4 H 0.9684 0.4394 0.0651
C71_4 C 0.9739(6) 0.3896(8) 0.1465(6)
Cl1 Cl 0.7807(3) 0.8157(3) 0.6427(4)
O40 O 0.8354(10) 0.8365(11) 0.7012(13)
O41 O 0.7916(17) 0.7598(11) 0.6094(19)
O42 O 0.7636(12) 0.8727(12) 0.5985(15)
O43 O 0.7336(8) 0.7974(10) 0.6595(10)
Cl1_2 Cl 0.7807(3) 0.1843(3) 0.1427(4)
O40_2 O 0.8354(10) 0.1635(11) 0.2012(13)
O41_2 O 0.7916(17) 0.2402(11) 0.1094(19)
O42_2 O 0.7636(12) 0.1273(12) 0.0985(15)
O43_2 O 0.7336(8) 0.2026(10) 0.1595(10)
Cl1_3 Cl 0.2807(3) 0.3157(3) 0.6427(4)
O40_3 O 0.3354(10) 0.3365(11) 0.7012(13)
O41_3 O 0.2916(17) 0.2598(11) 0.6094(19)
O42_3 O 0.2636(12) 0.3727(12) 0.5985(15)
O43_3 O 0.2336(8) 0.2974(10) 0.6595(10)
Cl1_4 Cl 0.2807(3) 0.6843(3) 0.1427(4)
O40_4 O 0.3354(10) 0.6635(11) 0.2012(13)
O41_4 O 0.2916(17) 0.7402(11) 0.1094(19)
O42_4 O 0.2636(12) 0.6273(12) 0.0985(15)
O43_4 O 0.2336(8) 0.7026(10) 0.1595(10)
O44 O 0.6668(13) 0.0614(14) 0.7959(13)
O45 O 0.599(3) 0.005(6) 0.811(4)
O46 O 0.691(3) 0.015(3) 0.8903(19)
N14 N 0.6532(19) 0.027(2) 0.834(2)
O44_2 O 0.6668(13) 0.9386(14) 0.2959(13)
O45_2 O 0.599(3) 0.995(6) 0.311(4)
O46_2 O 0.691(3) 0.985(3) 0.3903(19)
N14_2 N 0.6532(19) 0.973(2) 0.334(2)
O44_3 O 0.1668(13) 0.5614(14) 0.7959(13)
O45_3 O 0.099(3) 0.505(6) 0.811(4)
O46_3 O 0.191(3) 0.515(3) 0.8903(19)
N14_3 N 0.1532(19) 0.527(2) 0.834(2)
O44_4 O 0.1668(13) 0.4386(14) 0.2959(13)
O45_4 O 0.099(3) 0.495(6) 0.311(4)
O46_4 O 0.191(3) 0.485(3) 0.3903(19)
N14_4 N 0.1532(19) 0.473(2) 0.334(2)
loop_
_geom_bond_atom_site_label_1
_geom_bond_atom_site_label_2
_geom_bond_site_symmetry_1
_geom_bond_site_symmetry_2
O14 N7 1_555 1_555
O15 N7 1_555 1_555
O7 C48 1_555 1_555
O8 C48 1_555 1_555
O11 C72 1_555 1_555
O12 C72 1_555 1_555
N4 C39 1_555 1_555
N6 C63 1_555 1_555
C35 C34 1_555 1_555
H23 C35 1_555 1_555
C37 C34 1_555 1_555
C38 C37 1_555 1_555
H25 C38 1_555 1_555
C39 C38 1_555 1_555
H26 C39 1_555 1_555
C40 N4 1_555 1_555
H27 C40 1_555 1_555
C41 C37 1_555 1_555
H28 C41 1_555 1_555
C42 N4 1_555 1_555
C43 C42 1_555 1_555
H29 C43 1_555 1_555
C44 C43 1_555 1_555
H30 C44 1_555 1_555
C45 C44 1_555 1_555
C46 C45 1_555 1_555
H31 C46 1_555 1_555
C47 C42 1_555 1_555
H32 C47 1_555 1_555
C48 C45 1_555 1_555
H38 C57 1_555 1_555
C58 C57 1_555 1_555
C59 C58 1_555 1_555
H39 C59 1_555 1_555
H40 C60 1_555 1_555
C61 C58 1_555 1_555
C62 C61 1_555 1_555
H41 C62 1_555 1_555
C63 C62 1_555 1_555
H42 C63 1_555 1_555
C64 N6 1_555 1_555
H43 C64 1_555 1_555
C65 C61 1_555 1_555
H44 C65 1_555 1_555
C66 N6 1_555 1_555
C67 C66 1_555 1_555
H45 C67 1_555 1_555
C68 C67 1_555 1_555
H46 C68 1_555 1_555
C69 C68 1_555 1_555
C70 C69 1_555 1_555
H47 C70 1_555 1_555
C71 C66 1_555 1_555
H48 C71 1_555 1_555
C72 C69 1_555 1_555
Eu7 O11 1_555 1_555
Eu9 O7 1_555 1_555
C40 C41 1_555 1_555
C46 C47 1_555 1_555
C59 C60 1_555 1_555
C64 C65 1_555 1_555
C70 C71 1_555 1_555
O3 C24 1_555 1_555
O4 C24 1_555 1_555
N2 C15 1_555 1_555
C14 C13 1_555 1_555
H9 C14 1_555 1_555
C15 C14 1_555 1_555
H10 C15 1_555 1_555
C16 N2 1_555 1_555
H11 C16 1_555 1_555
C17 C13 1_555 1_555
H12 C17 1_555 1_555
C18 N2 1_555 1_555
C19 C18 1_555 1_555
H13 C19 1_555 1_555
C20 C19 1_555 1_555
H14 C20 1_555 1_555
C21 C20 1_555 1_555
C22 C21 1_555 1_555
H15 C22 1_555 1_555
C23 C18 1_555 1_555
H16 C23 1_555 1_555
C24 C21 1_555 1_555
Eu5 O3 1_555 1_555
Eu8 O4 1_555 1_555
C16 C17 1_555 1_555
C22 C23 1_555 1_555
Eu1 O2 1_555 1_555
Eu5 O1 1_555 1_555
Eu8 O6 1_555 1_555
O1 C1 1_555 1_555
O2 C1 1_555 1_555
O5 Eu5 1_555 1_555
O6 C25 1_555 1_555
O8_2 C48_2 1_555 1_555
O9 Eu1 1_555 1_555
O10 Eu5 1_555 1_555
O16 Eu1 1_555 1_555
O17 N8 1_555 1_555
O18 Eu1 1_555 1_555
O19 Eu1 1_555 1_555
O20 N9 1_555 1_555
O21 Eu1 1_555 1_555
O22 Eu5 1_555 1_555
O23 Eu5 1_555 1_555
O24 N10 1_555 1_555
O25 Eu8 1_555 1_555
O28 Eu8 1_555 1_555
O29 Eu8 1_555 1_555
O30 N12 1_555 1_555
O31 Eu8 1_555 1_555
O32 Eu8 1_555 1_555
O33 N13 1_555 1_555
N3 C29 1_555 1_555
N4_2 C39_2 1_555 1_555
N5 C53 1_555 1_555
N6_2 C63_2 1_555 1_555
N8 O16 1_555 1_555
N9 O19 1_555 1_555
N10 O22 1_555 1_555
N12 O28 1_555 1_555
N13 O31 1_555 1_555
C25 O5 1_555 1_555
C26 C25 1_555 1_555
C27 C26 1_555 1_555
H17 C27 1_555 1_555
C28 C27 1_555 1_555
H18 C28 1_555 1_555
C29 C28 1_555 1_555
C30 C29 1_555 1_555
H19 C30 1_555 1_555
C31 C26 1_555 1_555
H20 C31 1_555 1_555
C32 N3 1_555 1_555
H21 C32 1_555 1_555
C33 C32 1_555 1_555
H22 C33 1_555 1_555
C34_2 C33 1_555 1_555
C35_2 C34_2 1_555 1_555
H23_2 C35_2 1_555 1_555
C36 N3 1_555 1_555
H24 C36 1_555 1_555
C37_2 C34_2 1_555 1_555
C38_2 C37_2 1_555 1_555
H25_2 C38_2 1_555 1_555
C39_2 C38_2 1_555 1_555
H26_2 C39_2 1_555 1_555
C40_2 N4_2 1_555 1_555
H27_2 C40_2 1_555 1_555
C41_2 C37_2 1_555 1_555
H28_2 C41_2 1_555 1_555
C42_2 N4_2 1_555 1_555
C43_2 C42_2 1_555 1_555
H29_2 C43_2 1_555 1_555
C44_2 C43_2 1_555 1_555
H30_2 C44_2 1_555 1_555
C45_2 C44_2 1_555 1_555
C46_2 C45_2 1_555 1_555
H31_2 C46_2 1_555 1_555
C47_2 C42_2 1_555 1_555
H32_2 C47_2 1_555 1_555
C48_2 C45_2 1_555 1_555
C49 O9 1_555 1_555
C50 C49 1_555 1_555
C51 C50 1_555 1_555
H33 C51 1_555 1_555
C52 C51 1_555 1_555
H34 C52 1_555 1_555
C53 C52 1_555 1_555
C54 C53 1_555 1_555
H35 C54 1_555 1_555
C55 C50 1_555 1_555
H36 C55 1_555 1_555
C56 N5 1_555 1_555
H37 C56 1_555 1_555
C57_2 C56 1_555 1_555
H38_2 C57_2 1_555 1_555
C58_2 C57_2 1_555 1_555
C59_2 C58_2 1_555 1_555
H39_2 C59_2 1_555 1_555
C60_2 N5 1_555 1_555
H40_2 C60_2 1_555 1_555
C61_2 C58_2 1_555 1_555
C62_2 C61_2 1_555 1_555
H41_2 C62_2 1_555 1_555
C63_2 C62_2 1_555 1_555
H42_2 C63_2 1_555 1_555
C64_2 N6_2 1_555 1_555
H43_2 C64_2 1_555 1_555
C65_2 C61_2 1_555 1_555
H44_2 C65_2 1_555 1_555
C66_2 N6_2 1_555 1_555
C67_2 C66_2 1_555 1_555
H45_2 C67_2 1_555 1_555
C68_2 C67_2 1_555 1_555
H46_2 C68_2 1_555 1_555
C69_2 C68_2 1_555 1_555
C70_2 C69_2 1_555 1_555
H47_2 C70_2 1_555 1_555
C71_2 C66_2 1_555 1_555
H48_2 C71_2 1_555 1_555
O36 Eu8 1_555 1_555
O38 Eu5 1_555 1_555
O39 Eu1 1_555 1_555
O10 C49 1_555 1_555
O18 N8 1_555 1_555
O21 N9 1_555 1_555
O23 N10 1_555 1_555
O29 N12 1_555 1_555
O32 N13 1_555 1_555
C30 C31 1_555 1_555
C35_2 C36 1_555 1_555
C40_2 C41_2 1_555 1_555
C46_2 C47_2 1_555 1_555
C54 C55 1_555 1_555
C59_2 C60_2 1_555 1_555
C64_2 C65_2 1_555 1_555
C70_2 C71_2 1_555 1_555
O11_2 C72_2 1_555 1_555
O12_2 C72_2 1_555 1_555
Eu6 O11_2 1_555 1_555
Eu9_2 O7_2 1_555 1_555
O5_2 Eu7 1_555 1_555
O10_2 Eu7 1_555 1_555
O22_2 Eu7 1_555 1_555
O23_2 Eu7 1_555 1_555
O24_2 N10_2 1_555 1_555
N10_2 O22_2 1_555 1_555
C25_2 O5_2 1_555 1_555
H17_2 C27_2 1_555 1_555
O23_2 N10_2 1_555 1_555
Eu4 O2_2 1_555 1_555
Eu9 O6_2 1_555 1_555
O1_2 C1_2 1_555 1_555
O2_2 C1_2 1_555 1_555
O3_2 C24_2 1_555 1_555
O4_2 C24_2 1_555 1_555
O9_2 Eu4 1_555 1_555
O13 Eu4 1_555 1_555
O14_2 N7_2 1_555 1_555
O15_2 Eu4 1_555 1_555
O16_2 Eu4 1_555 1_555
O17_2 N8_2 1_555 1_555
O18_2 Eu4 1_555 1_555
O19_2 Eu4 1_555 1_555
O25_2 Eu9 1_555 1_555
O27 N11 1_555 1_555
N1 C5 1_555 1_555
N2_2 C15_2 1_555 1_555
N5_2 C53_2 1_555 1_555
N7_2 O13 1_555 1_555
N8_2 O16_2 1_555 1_555
N9_2 O19_2 1_555 1_555
N11 O25_2 1_555 1_555
C1_2 C2 1_555 1_555
C2 C3 1_555 1_555
C3 H1 1_555 1_555
C4 C3 1_555 1_555
H2 C4 1_555 1_555
C5 C4 1_555 1_555
C6 C5 1_555 1_555
H3 C6 1_555 1_555
C7 C2 1_555 1_555
H4_2 C7 1_555 1_555
C8 N1 1_555 1_555
H5 C8 1_555 1_555
C9 C8 1_555 1_555
H6 C9 1_555 1_555
C10 C9 1_555 1_555
C11 C10 1_555 1_555
H7 C11 1_555 1_555
C12 N1 1_555 1_555
H8 C12 1_555 1_555
C13_2 C10 1_555 1_555
C14_2 C13_2 1_555 1_555
H9_2 C14_2 1_555 1_555
C15_2 C14_2 1_555 1_555
H10_2 C15_2 1_555 1_555
C16_2 N2_2 1_555 1_555
H11_2 C16_2 1_555 1_555
C17_2 C13_2 1_555 1_555
H12_2 C17_2 1_555 1_555
C18_2 N2_2 1_555 1_555
C19_2 C18_2 1_555 1_555
H13_2 C19_2 1_555 1_555
C20_2 C19_2 1_555 1_555
H14_2 C20_2 1_555 1_555
C21_2 C20_2 1_555 1_555
C22_2 C21_2 1_555 1_555
H15_2 C22_2 1_555 1_555
C23_2 C18_2 1_555 1_555
H16_2 C23_2 1_555 1_555
C24_2 C21_2 1_555 1_555
C49_2 O9_2 1_555 1_555
C50_2 C49_2 1_555 1_555
C51_2 C50_2 1_555 1_555
H33_2 C51_2 1_555 1_555
C52_2 C51_2 1_555 1_555
H34_2 C52_2 1_555 1_555
C53_2 C52_2 1_555 1_555
C54_2 C53_2 1_555 1_555
H35_2 C54_2 1_555 1_555
C55_2 C50_2 1_555 1_555
H36_2 C55_2 1_555 1_555
C56_2 N5_2 1_555 1_555
H37_2 C56_2 1_555 1_555
Eu9_2 O4_2 1_555 1_555
O35 Eu9 1_555 1_555
O15_2 N7_2 1_555 1_555
O18_2 N8_2 1_555 1_555
C6 C7 1_555 1_555
C11 C12 1_555 1_555
C16_2 C17_2 1_555 1_555
C22_2 C23_2 1_555 1_555
C54_2 C55_2 1_555 1_555
O34 C24_3 1_555 1_555
O35 C24_3 1_555 1_555
O27_2 N11_2 1_555 1_555
N1_2 C5_2 1_555 1_555
N2_3 C15_3 1_555 1_555
C2_2 C3_2 1_555 1_555
C3_2 H1_2 1_555 1_555
C4_2 C3_2 1_555 1_555
H2_2 C4_2 1_555 1_555
C5_2 C4_2 1_555 1_555
C6_2 C5_2 1_555 1_555
H3_2 C6_2 1_555 1_555
C7_2 C2_2 1_555 1_555
C8_2 N1_2 1_555 1_555
H5_2 C8_2 1_555 1_555
C9_2 C8_2 1_555 1_555
H6_2 C9_2 1_555 1_555
C10_2 C9_2 1_555 1_555
C11_2 C10_2 1_555 1_555
H7_2 C11_2 1_555 1_555
C12_2 N1_2 1_555 1_555
H8_2 C12_2 1_555 1_555
C13_3 C10_2 1_555 1_555
C14_3 C13_3 1_555 1_555
H9_3 C14_3 1_555 1_555
C15_3 C14_3 1_555 1_555
H10_3 C15_3 1_555 1_555
C16_3 N2_3 1_555 1_555
H11_3 C16_3 1_555 1_555
C17_3 C13_3 1_555 1_555
H12_3 C17_3 1_555 1_555
C18_3 N2_3 1_555 1_555
C19_3 C18_3 1_555 1_555
H13_3 C19_3 1_555 1_555
C20_3 C19_3 1_555 1_555
H14_3 C20_3 1_555 1_555
C21_3 C20_3 1_555 1_555
C22_3 C21_3 1_555 1_555
H15_3 C22_3 1_555 1_555
C23_3 C18_3 1_555 1_555
H16_3 C23_3 1_555 1_555
C24_3 C21_3 1_555 1_555
C6_2 C7_2 1_555 1_555
C11_2 C12_2 1_555 1_555
C16_3 C17_3 1_555 1_555
C22_3 C23_3 1_555 1_555
Eu4_2 O2_3 1_555 1_555
Eu9_2 O6_3 1_555 1_555
O1_3 C1_3 1_555 1_555
O2_3 C1_3 1_555 1_555
O9_3 Eu4_2 1_555 1_555
O15_3 Eu4_2 1_555 1_555
O16_3 Eu4_2 1_555 1_555
O17_3 N8_3 1_555 1_555
O18_3 Eu4_2 1_555 1_555
O19_3 Eu4_2 1_555 1_555
O25_3 Eu9_2 1_555 1_555
N5_3 C53_3 1_555 1_555
N8_3 O16_3 1_555 1_555
N9_3 O19_3 1_555 1_555
C49_3 O9_3 1_555 1_555
C50_3 C49_3 1_555 1_555
C51_3 C50_3 1_555 1_555
H33_3 C51_3 1_555 1_555
C52_3 C51_3 1_555 1_555
H34_3 C52_3 1_555 1_555
C53_3 C52_3 1_555 1_555
C54_3 C53_3 1_555 1_555
H35_3 C54_3 1_555 1_555
C55_3 C50_3 1_555 1_555
H36_3 C55_3 1_555 1_555
C56_3 N5_3 1_555 1_555
H37_3 C56_3 1_555 1_555
C57_3 C56_3 1_555 1_555
H38_3 C57_3 1_555 1_555
C58_3 C57_3 1_555 1_555
C59_3 C58_3 1_555 1_555
H39_3 C59_3 1_555 1_555
C60_3 N5_3 1_555 1_555
H40_3 C60_3 1_555 1_555
C61_3 C58_3 1_555 1_555
C62_3 C61_3 1_555 1_555
H41_3 C62_3 1_555 1_555
C63_3 C62_3 1_555 1_555
H42_3 C63_3 1_555 1_555
O15_3 N7_3 1_555 1_555
O18_3 N8_3 1_555 1_555
C54_3 C55_3 1_555 1_555
C59_3 C60_3 1_555 1_555
O5_3 Eu6 1_555 1_555
O10_3 Eu6 1_555 1_555
O22_3 Eu6 1_555 1_555
O23_3 Eu6 1_555 1_555
O24_3 N10_3 1_555 1_555
N10_3 O22_3 1_555 1_555
C25_3 O5_3 1_555 1_555
H17_3 C27_3 1_555 1_555
O23_3 N10_3 1_555 1_555
O38 C72_3 1_555 1_555
O39 C72_3 1_555 1_555
Eu1_2 O2_4 1_555 1_555
Eu2 O1_4 1_555 1_555
Eu3 O6_4 1_555 1_555
O1_4 C1_4 1_555 1_555
O2_4 C1_4 1_555 1_555
O5_4 Eu2 1_555 1_555
O6_4 C25_4 1_555 1_555
O9_4 Eu1_2 1_555 1_555
O10_4 Eu2 1_555 1_555
O13_3 Eu1_2 1_555 1_555
O16_4 Eu1_2 1_555 1_555
O17_4 N8_4 1_555 1_555
O18_4 Eu1_2 1_555 1_555
O19_4 Eu1_2 1_555 1_555
O20_4 N9_4 1_555 1_555
O21_4 Eu1_2 1_555 1_555
O22_4 Eu2 1_555 1_555
O23_4 Eu2 1_555 1_555
O24_4 N10_4 1_555 1_555
O25_4 Eu3 1_555 1_555
O26 Eu3 1_555 1_555
O27_3 N11_3 1_555 1_555
O28_2 Eu3 1_555 1_555
O29_2 Eu3 1_555 1_555
O30_2 N12_2 1_555 1_555
O31_2 Eu3 1_555 1_555
O32_2 Eu3 1_555 1_555
O33_2 N13_2 1_555 1_555
N1_3 C5_3 1_555 1_555
N3_2 C29_2 1_555 1_555
N5_4 C53_4 1_555 1_555
N8_4 O16_4 1_555 1_555
N9_4 O19_4 1_555 1_555
N10_4 O22_4 1_555 1_555
N11_3 O25_4 1_555 1_555
N12_2 O28_2 1_555 1_555
N13_2 O31_2 1_555 1_555
C1_4 C2_3 1_555 1_555
C2_3 C3_3 1_555 1_555
C3_3 H1_3 1_555 1_555
C4_3 C3_3 1_555 1_555
H2_3 C4_3 1_555 1_555
C5_3 C4_3 1_555 1_555
C6_3 C5_3 1_555 1_555
H3_3 C6_3 1_555 1_555
C7_3 C2_3 1_555 1_555
H4_4 C7_3 1_555 1_555
C8_3 N1_3 1_555 1_555
H5_3 C8_3 1_555 1_555
C9_3 C8_3 1_555 1_555
H6_3 C9_3 1_555 1_555
C10_3 C9_3 1_555 1_555
C11_3 C10_3 1_555 1_555
H7_3 C11_3 1_555 1_555
C12_3 N1_3 1_555 1_555
H8_3 C12_3 1_555 1_555
C25_4 O5_4 1_555 1_555
C26_2 C25_4 1_555 1_555
C27_4 C26_2 1_555 1_555
H17_4 C27_4 1_555 1_555
C28_2 C27_4 1_555 1_555
H18_4 C28_2 1_555 1_555
C29_2 C28_2 1_555 1_555
C30_2 C29_2 1_555 1_555
H19_2 C30_2 1_555 1_555
C31_2 C26_2 1_555 1_555
H20_2 C31_2 1_555 1_555
C32_2 N3_2 1_555 1_555
H21_2 C32_2 1_555 1_555
C33_2 C32_2 1_555 1_555
H22_2 C33_2 1_555 1_555
C36_2 N3_2 1_555 1_555
H24_2 C36_2 1_555 1_555
C49_4 O9_4 1_555 1_555
C50_4 C49_4 1_555 1_555
C51_4 C50_4 1_555 1_555
H33_4 C51_4 1_555 1_555
C52_4 C51_4 1_555 1_555
H34_4 C52_4 1_555 1_555
C53_4 C52_4 1_555 1_555
C54_4 C53_4 1_555 1_555
H35_4 C54_4 1_555 1_555
C55_4 C50_4 1_555 1_555
H36_4 C55_4 1_555 1_555
C56_4 N5_4 1_555 1_555
H37_4 C56_4 1_555 1_555
O34_2 Eu2 1_555 1_555
O35_2 Eu3 1_555 1_555
O36_2 Eu3 1_555 1_555
O37 Eu2 1_555 1_555
O38_2 Eu2 1_555 1_555
O39_2 Eu1_2 1_555 1_555
O10_4 C49_4 1_555 1_555
O18_4 N8_4 1_555 1_555
O21_4 N9_4 1_555 1_555
O23_4 N10_4 1_555 1_555
O26 N11_3 1_555 1_555
O29_2 N12_2 1_555 1_555
O32_2 N13_2 1_555 1_555
C6_3 C7_3 1_555 1_555
C11_3 C12_3 1_555 1_555
C30_2 C31_2 1_555 1_555
C54_4 C55_4 1_555 1_555
O34_2 C24_4 1_555 1_555
O35_2 C24_4 1_555 1_555
N2_4 C15_4 1_555 1_555
C14_4 C13_4 1_555 1_555
H9_4 C14_4 1_555 1_555
C15_4 C14_4 1_555 1_555
H10_4 C15_4 1_555 1_555
C16_4 N2_4 1_555 1_555
H11_4 C16_4 1_555 1_555
C17_4 C13_4 1_555 1_555
H12_4 C17_4 1_555 1_555
C18_4 N2_4 1_555 1_555
C19_4 C18_4 1_555 1_555
H13_4 C19_4 1_555 1_555
C20_4 C19_4 1_555 1_555
H14_4 C20_4 1_555 1_555
C21_4 C20_4 1_555 1_555
C22_4 C21_4 1_555 1_555
H15_4 C22_4 1_555 1_555
C23_4 C18_4 1_555 1_555
H16_4 C23_4 1_555 1_555
C24_4 C21_4 1_555 1_555
C16_4 C17_4 1_555 1_555
C22_4 C23_4 1_555 1_555
O36_2 C48_3 1_555 1_555
O37 C48_3 1_555 1_555
N4_3 C39_3 1_555 1_555
C35_3 C34_3 1_555 1_555
H23_3 C35_3 1_555 1_555
C37_3 C34_3 1_555 1_555
C38_3 C37_3 1_555 1_555
H25_3 C38_3 1_555 1_555
C39_3 C38_3 1_555 1_555
H26_3 C39_3 1_555 1_555
C40_3 N4_3 1_555 1_555
H27_3 C40_3 1_555 1_555
C41_3 C37_3 1_555 1_555
H28_3 C41_3 1_555 1_555
C42_3 N4_3 1_555 1_555
C43_3 C42_3 1_555 1_555
H29_3 C43_3 1_555 1_555
C44_3 C43_3 1_555 1_555
H30_3 C44_3 1_555 1_555
C45_3 C44_3 1_555 1_555
C46_3 C45_3 1_555 1_555
H31_3 C46_3 1_555 1_555
C47_3 C42_3 1_555 1_555
H32_3 C47_3 1_555 1_555
C48_3 C45_3 1_555 1_555
C40_3 C41_3 1_555 1_555
C46_3 C47_3 1_555 1_555
O38_2 C72_4 1_555 1_555
O39_2 C72_4 1_555 1_555
C64_3 N6_3 1_555 1_555
H43_3 C64_3 1_555 1_555
H44_3 C65_3 1_555 1_555
C66_3 N6_3 1_555 1_555
C67_3 C66_3 1_555 1_555
H45_3 C67_3 1_555 1_555
C68_3 C67_3 1_555 1_555
H46_3 C68_3 1_555 1_555
C69_3 C68_3 1_555 1_555
C70_3 C69_3 1_555 1_555
H47_3 C70_3 1_555 1_555
C71_3 C66_3 1_555 1_555
C72_4 C69_3 1_555 1_555
C64_3 C65_3 1_555 1_555
C70_3 C71_3 1_555 1_555
O15_4 N7_4 1_555 1_555
O27_4 N11_4 1_555 1_555
N1_4 C5_4 1_555 1_555
C2_4 C3_4 1_555 1_555
C3_4 H1_4 1_555 1_555
C4_4 C3_4 1_555 1_555
H2_4 C4_4 1_555 1_555
C5_4 C4_4 1_555 1_555
C6_4 C5_4 1_555 1_555
H3_4 C6_4 1_555 1_555
C7_4 C2_4 1_555 1_555
C8_4 N1_4 1_555 1_555
H5_4 C8_4 1_555 1_555
C9_4 C8_4 1_555 1_555
H6_4 C9_4 1_555 1_555
C10_4 C9_4 1_555 1_555
C11_4 C10_4 1_555 1_555
H7_4 C11_4 1_555 1_555
C12_4 N1_4 1_555 1_555
H8_4 C12_4 1_555 1_555
O26_2 N11_4 1_555 1_555
C6_4 C7_4 1_555 1_555
C11_4 C12_4 1_555 1_555
O37_2 C48_4 1_555 1_555
N3_3 C29_3 1_555 1_555
N4_4 C39_4 1_555 1_555
C29_3 C28_3 1_555 1_555
C30_3 C29_3 1_555 1_555
H19_3 C30_3 1_555 1_555
C31_3 C26_3 1_555 1_555
C32_3 N3_3 1_555 1_555
H21_3 C32_3 1_555 1_555
C33_3 C32_3 1_555 1_555
H22_3 C33_3 1_555 1_555
C34_4 C33_3 1_555 1_555
C35_4 C34_4 1_555 1_555
H23_4 C35_4 1_555 1_555
C36_3 N3_3 1_555 1_555
H24_3 C36_3 1_555 1_555
C37_4 C34_4 1_555 1_555
C38_4 C37_4 1_555 1_555
H25_4 C38_4 1_555 1_555
C39_4 C38_4 1_555 1_555
H26_4 C39_4 1_555 1_555
C40_4 N4_4 1_555 1_555
H27_4 C40_4 1_555 1_555
C41_4 C37_4 1_555 1_555
H28_4 C41_4 1_555 1_555
C42_4 N4_4 1_555 1_555
C43_4 C42_4 1_555 1_555
H29_4 C43_4 1_555 1_555
C44_4 C43_4 1_555 1_555
H30_4 C44_4 1_555 1_555
C45_4 C44_4 1_555 1_555
C46_4 C45_4 1_555 1_555
H31_4 C46_4 1_555 1_555
C47_4 C42_4 1_555 1_555
H32_4 C47_4 1_555 1_555
C48_4 C45_4 1_555 1_555
C30_3 C31_3 1_555 1_555
C35_4 C36_3 1_555 1_555
C40_4 C41_4 1_555 1_555
C46_4 C47_4 1_555 1_555
H38_4 C57_4 1_555 1_555
C58_4 C57_4 1_555 1_555
C59_4 C58_4 1_555 1_555
H39_4 C59_4 1_555 1_555
H40_4 C60_4 1_555 1_555
C61_4 C58_4 1_555 1_555
C62_4 C61_4 1_555 1_555
H41_4 C62_4 1_555 1_555
C63_4 C62_4 1_555 1_555
H42_4 C63_4 1_555 1_555
C59_4 C60_4 1_555 1_555
N3_4 C29_4 1_555 1_555
C29_4 C28_4 1_555 1_555
C30_4 C29_4 1_555 1_555
H19_4 C30_4 1_555 1_555
C31_4 C26_4 1_555 1_555
C32_4 N3_4 1_555 1_555
H21_4 C32_4 1_555 1_555
C33_4 C32_4 1_555 1_555
H22_4 C33_4 1_555 1_555
C36_4 N3_4 1_555 1_555
H24_4 C36_4 1_555 1_555
C30_4 C31_4 1_555 1_555
O33_3 N13_3 1_555 1_555
N12_3 O28_3 1_555 1_555
N13_3 O31_3 1_555 1_555
O29_3 N12_3 1_555 1_555
O32_3 N13_3 1_555 1_555
O33_4 N13_4 1_555 1_555
N12_4 O28_4 1_555 1_555
N13_4 O31_4 1_555 1_555
C64_4 N6_4 1_555 1_555
H43_4 C64_4 1_555 1_555
H44_4 C65_4 1_555 1_555
C66_4 N6_4 1_555 1_555
C67_4 C66_4 1_555 1_555
H45_4 C67_4 1_555 1_555
C68_4 C67_4 1_555 1_555
H46_4 C68_4 1_555 1_555
C69_4 C68_4 1_555 1_555
C70_4 C69_4 1_555 1_555
H47_4 C70_4 1_555 1_555
C71_4 C66_4 1_555 1_555
O29_4 N12_4 1_555 1_555
O32_4 N13_4 1_555 1_555
C64_4 C65_4 1_555 1_555
C70_4 C71_4 1_555 1_555
Cl1 O40 1_555 1_555
O41 Cl1 1_555 1_555
O42 Cl1 1_555 1_555
O43 Cl1 1_555 1_555
Cl1_2 O40_2 1_555 1_555
O41_2 Cl1_2 1_555 1_555
O42_2 Cl1_2 1_555 1_555
O43_2 Cl1_2 1_555 1_555
Cl1_3 O40_3 1_555 1_555
O41_3 Cl1_3 1_555 1_555
O42_3 Cl1_3 1_555 1_555
O43_3 Cl1_3 1_555 1_555
Cl1_4 O40_4 1_555 1_555
O41_4 Cl1_4 1_555 1_555
O42_4 Cl1_4 1_555 1_555
O43_4 Cl1_4 1_555 1_555
O44 N14 1_555 1_555
O45 N14 1_555 1_555
O46 N14 1_555 1_555
O44_2 N14_2 1_555 1_555
O45_2 N14_2 1_555 1_555
O46_2 N14_2 1_555 1_555
O44_3 N14_3 1_555 1_555
O45_3 N14_3 1_555 1_555
O46_3 N14_3 1_555 1_555
O44_4 N14_4 1_555 1_555
O45_4 N14_4 1_555 1_555
O46_4 N14_4 1_555 1_555

#END
