
###############################################################################
#
# This file contains modified crystal structure data generated from the
# MOF subset of the Cambridge Structural Database (CSD) v543 
# hosted by the Cambridge Crystallographic Data Centre (CCDC).
#
# This work is licensed under the Creative Commons
# Attribution-NonCommercial-ShareAlike 4.0 International License.
# To view a copy of this license, visit
# http://creativecommons.org/licenses/by-nc-sa/4.0/
# or send a letter to
# Creative Commons, PO Box 1866, Mountain View, CA 94042, USA.
#
# CIF created using the CSD Python API on 29 September 2022
# The structure has been converted into the P1 space group
# The structure has a 3D framework
# The original CSD entry QUMBEI is in the rhombohedral crystal system
# The framework has been calculated to contain at least 10.0% void space
# The void calculation uses a probe of radius 1.32A, grid spacing 0.4
# The framework is charged, counterions have been retained in the structure
#
###############################################################################

data_QUMBEI
_chemical_formula_moiety         '(C432 H378 Ag16 F54 N54 O54 S18 2-)n'
_symmetry_cell_setting           triclinic
_symmetry_space_group_name_H-M   'P 1'
_symmetry_Int_Tables_number      1
_space_group_name_Hall           'P 1'
loop_
_symmetry_equiv_pos_site_id
_symmetry_equiv_pos_as_xyz
1 x,y,z
_cell_length_a                   38.651(3)
_cell_length_b                   38.651(3)
_cell_length_c                   10.5339(8)
_cell_angle_alpha                90
_cell_angle_beta                 90
_cell_angle_gamma                120
_cell_volume                     13628.3
loop_
_atom_site_label
_atom_site_type_symbol
_atom_site_fract_x
_atom_site_fract_y
_atom_site_fract_z
Ag1 Ag 0.35075(2) 0.14587(2) 0.75088(5)
N1 N 0.40394(16) 0.16466(17) 0.6422(5)
N2 N 0.51319(13) 0.17030(13) 0.3578(4)
N3 N 0.48285(18) 0.03522(16) 0.1978(5)
C1 C 0.4381(2) 0.1960(2) 0.6765(6)
H1 H 0.4380 0.2111 0.7475
C2 C 0.47339(19) 0.20780(19) 0.6159(6)
H2 H 0.4971 0.2306 0.6450
C3 C 0.47479(16) 0.18672(16) 0.5124(5)
C4 C 0.43904(19) 0.1549(2) 0.4740(6)
H3 H 0.4380 0.1397 0.4018
C5 C 0.4050(2) 0.1452(2) 0.5402(7)
H4 H 0.3807 0.1231 0.5114
C6 C 0.51340(17) 0.20007(17) 0.4453(5)
H5 H 0.5203 0.2246 0.3968
H6 H 0.5346 0.2070 0.5094
C7 C 0.5151(2) 0.13863(17) 0.4254(5)
H7 H 0.4970 0.1305 0.4996
H8 H 0.5426 0.1489 0.4576
C8 C 0.50379(18) 0.10275(17) 0.3438(5)
C9 C 0.5158(2) 0.07593(19) 0.3748(6)
H9 H 0.5320 0.0803 0.4478
C10 C 0.5047(3) 0.0429(2) 0.3010(7)
H10 H 0.5132 0.0246 0.3254
C11 C 0.4715(2) 0.0611(2) 0.1666(6)
H11 H 0.4557 0.0564 0.0924
C12 C 0.4816(2) 0.0947(2) 0.2371(6)
H12 H 0.4729 0.1126 0.2105
C13 C 0.54618(19) 0.1900(2) 0.2665(6)
H13 H 0.5488 0.1693 0.2187
H14 H 0.5714 0.2065 0.3133
C14 C 0.53991(18) 0.21597(18) 0.1745(6)
C15 C 0.56992(19) 0.2531(2) 0.1439(6)
H15 H 0.5952 0.2630 0.1836
C16 C 0.56493(18) 0.27764(18) 0.0555(6)
C17 C 0.5953(2) 0.3159(2) 0.0216(7)
H16 H 0.6210 0.3262 0.0587
C21 C 0.5259(2) 0.26330(18) 0.0019(5)
C22 C 0.4954(2) 0.2253(2) 0.0355(6)
C23 C 0.50214(19) 0.2025(2) 0.1188(6)
H21 H 0.4808 0.1767 0.1400
Ag3 Ag 0.31592(2) 0.18746(2) 0.58245(5)
N4 N 0.29811(16) 0.11430(24) 0.8645(5)
Ag1_2 Ag 0.79512(3) 0.64925(2) 0.75088(5)
N1_2 N 0.76072(23) 0.59606(16) 0.6422(5)
N2_2 N 0.65711(18) 0.48681(13) 0.3578(4)
N3_2 N 0.55237(24) 0.51715(18) 0.1978(5)
C1_2 C 0.7579(3) 0.5619(2) 0.6765(6)
H1_2 H 0.7731 0.5620 0.7475
C2_2 C 0.73441(27) 0.52661(19) 0.6159(6)
H2_2 H 0.7335 0.5029 0.6450
C3_2 C 0.71193(23) 0.52521(16) 0.5124(5)
C4_2 C 0.71586(28) 0.56096(19) 0.4740(6)
H3_2 H 0.7017 0.5620 0.4018
C5_2 C 0.7402(3) 0.5950(2) 0.5402(7)
H4_2 H 0.7424 0.6193 0.5114
C6_2 C 0.68667(24) 0.48660(17) 0.4453(5)
H5_2 H 0.7043 0.4797 0.3968
H6_2 H 0.6724 0.4654 0.5094
C7_2 C 0.62353(26) 0.4849(2) 0.4254(5)
H7_2 H 0.6335 0.5030 0.4996
H8_2 H 0.6063 0.4574 0.4576
C8_2 C 0.59896(25) 0.49621(18) 0.3438(5)
C9_2 C 0.56013(28) 0.4842(2) 0.3748(6)
H9_2 H 0.5483 0.4680 0.4478
C10_2 C 0.5382(4) 0.4953(3) 0.3010(7)
H10_2 H 0.5114 0.4868 0.3254
C11_2 C 0.5896(3) 0.5285(2) 0.1666(6)
H11_2 H 0.6007 0.5443 0.0924
C12_2 C 0.6131(3) 0.5184(2) 0.2371(6)
H12_2 H 0.6397 0.5271 0.2105
C13_2 C 0.64382(28) 0.45382(19) 0.2665(6)
H13_2 H 0.6205 0.4512 0.2187
H14_2 H 0.6351 0.4286 0.3133
C14_2 C 0.67606(25) 0.46009(18) 0.1745(6)
C15_2 C 0.68318(28) 0.43008(19) 0.1439(6)
H15_2 H 0.6678 0.4048 0.1836
C16_2 C 0.71271(25) 0.43507(18) 0.0555(6)
C17_2 C 0.7206(3) 0.4047(2) 0.0216(7)
H16_2 H 0.7052 0.3790 0.0587
C21_2 C 0.73740(27) 0.4741(2) 0.0019(5)
C22_2 C 0.7299(3) 0.5046(2) 0.0355(6)
C23_2 C 0.70036(28) 0.49786(19) 0.1188(6)
H21_2 H 0.6959 0.5192 0.1400
Ag2 Ag 0.52080(4) 0.53821(3) 0.08421(5)
Ag3_2 Ag 0.87155(3) 0.68408(2) 0.58245(5)
N4_2 N 0.81618(29) 0.70189(16) 0.8645(5)
C1_3 C 0.4707(2) 0.5754(3) 0.0098(6)
H1_3 H 0.4556 0.5602 0.0808
C10_3 C 0.8380(3) 0.7096(2) 0.9677(7)
H10_3 H 0.8465 0.6913 0.9921
C11_3 C 0.8048(2) 0.7278(2) 0.8333(6)
H11_3 H 0.7890 0.7231 0.7591
C12_3 C 0.8149(2) 0.7614(2) 0.9038(6)
H12_3 H 0.8062 0.7793 0.8772
C13_3 C 0.87951(19) 0.8567(2) 0.9332(6)
H13_3 H 0.8821 0.8360 0.8854
H14_3 H 0.9047 0.8732 0.9800
C14_3 C 0.87324(18) 0.88264(18) 0.8412(6)
C15_3 C 0.90325(19) 0.9198(2) 0.8106(6)
H15_3 H 0.9285 0.9297 0.8503
C16_3 C 0.89826(18) 0.94431(18) 0.7222(6)
C17_3 C 0.9286(2) 0.9826(2) 0.6883(7)
H16_3 H 0.9543 0.9929 0.7254
C19 C 0.8840(3) 0.9909(2) 0.5513(7)
C20 C 0.8535(2) 0.9545(2) 0.5820(6)
H19 H 0.8280 0.9452 0.5448
C21_3 C 0.8592(2) 0.92997(18) 0.6686(5)
C22_3 C 0.8287(2) 0.8920(2) 0.7022(6)
H20 H 0.8029 0.8820 0.6664
C23_3 C 0.83547(19) 0.8692(2) 0.7855(6)
H21_3 H 0.8141 0.8434 0.8067
C10_4 C 0.2904(2) 0.1285(4) 0.9677(7)
H10_4 H 0.3087 0.1553 0.9921
C11_4 C 0.2722(2) 0.0771(3) 0.8333(6)
H11_4 H 0.2769 0.0660 0.7591
C12_4 C 0.2386(2) 0.0536(3) 0.9038(6)
H12_4 H 0.2207 0.0270 0.8772
C13_4 C 0.1433(2) 0.02285(28) 0.9332(6)
H13_4 H 0.1640 0.0462 0.8854
H14_4 H 0.1268 0.0316 0.9800
N1_3 N 0.92939(16) 0.50201(17) 0.0245(5)
N2_3 N 0.82014(13) 0.49637(13) 0.3089(4)
N3_3 N 0.85048(18) 0.63145(16) 0.4689(5)
C2_3 C 0.85994(19) 0.45887(19) 0.0508(6)
H2_3 H 0.8362 0.4361 0.0217
C3_3 C 0.85854(16) 0.47995(16) 0.1543(5)
C4_3 C 0.89429(19) 0.5118(2) 0.1927(6)
H3_3 H 0.8953 0.5270 0.2649
C5_3 C 0.9283(2) 0.5215(2) 0.1265(7)
H4_3 H 0.9526 0.5436 0.1553
C6_3 C 0.81993(17) 0.46660(17) 0.2214(5)
H5_3 H 0.8130 0.4421 0.2699
H6_3 H 0.7987 0.4597 0.1573
C7_3 C 0.8182(2) 0.52804(17) 0.2413(5)
H7_3 H 0.8363 0.5362 0.1671
H8_3 H 0.7907 0.5178 0.2091
C8_3 C 0.82954(18) 0.56392(17) 0.3229(5)
C9_3 C 0.8175(2) 0.59074(19) 0.2919(6)
H9_3 H 0.8013 0.5864 0.2189
C10_5 C 0.8286(3) 0.6238(2) 0.3657(7)
H10_5 H 0.8201 0.6421 0.3413
C11_5 C 0.8618(2) 0.6056(2) 0.5001(6)
H11_5 H 0.8776 0.6103 0.5743
C12_5 C 0.8517(2) 0.5720(2) 0.4296(6)
H12_5 H 0.8604 0.5541 0.4562
C13_5 C 0.78715(19) 0.4767(2) 0.4002(6)
H13_5 H 0.7845 0.4974 0.4480
H14_5 H 0.7619 0.4602 0.3534
C14_4 C 0.79342(18) 0.45070(18) 0.4922(6)
C15_4 C 0.76341(19) 0.4136(2) 0.5228(6)
H15_4 H 0.7381 0.4037 0.4831
C16_4 C 0.76840(18) 0.38903(18) 0.6112(6)
C17_4 C 0.7380(2) 0.3508(2) 0.6451(7)
H16_4 H 0.7123 0.3405 0.6080
C18 C 0.7443(3) 0.3281(3) 0.7290(9)
H17 H 0.7230 0.3025 0.7522
C19_2 C 0.7826(3) 0.3425(2) 0.7821(7)
H18 H 0.7870 0.3263 0.8403
C20_2 C 0.8131(2) 0.3789(2) 0.7514(6)
H19_2 H 0.8386 0.3882 0.7886
C21_4 C 0.8074(2) 0.40337(18) 0.6648(5)
C22_4 C 0.8379(2) 0.4414(2) 0.6312(6)
H20_2 H 0.8637 0.4514 0.6670
C23_4 C 0.83119(19) 0.4642(2) 0.5479(6)
H21_4 H 0.8525 0.4900 0.5267
N1_4 N 0.49799(17) 0.42739(23) 0.0245(5)
N2_4 N 0.50363(13) 0.32378(18) 0.3089(4)
N3_4 N 0.36855(16) 0.21904(24) 0.4689(5)
C2_4 C 0.54113(19) 0.40108(27) 0.0508(6)
H2_4 H 0.5639 0.4002 0.0217
C3_4 C 0.52005(16) 0.37860(23) 0.1543(5)
C4_4 C 0.4882(2) 0.38253(28) 0.1927(6)
H3_4 H 0.4730 0.3684 0.2649
C5_4 C 0.4785(2) 0.4069(3) 0.1265(7)
H4_4 H 0.4564 0.4091 0.1553
C6_4 C 0.53340(17) 0.35334(24) 0.2214(5)
H5_4 H 0.5579 0.3710 0.2699
H6_4 H 0.5403 0.3391 0.1573
C7_4 C 0.47196(17) 0.29020(26) 0.2413(5)
H7_4 H 0.4638 0.3002 0.1671
H8_4 H 0.4822 0.2730 0.2091
C8_4 C 0.43608(17) 0.26563(25) 0.3229(5)
C9_4 C 0.40926(19) 0.22680(28) 0.2919(6)
H9_4 H 0.4136 0.2150 0.2189
C10_6 C 0.3762(2) 0.2049(4) 0.3657(7)
H10_6 H 0.3579 0.1781 0.3413
C11_6 C 0.3944(2) 0.2563(3) 0.5001(6)
H11_6 H 0.3897 0.2674 0.5743
C12_6 C 0.4280(2) 0.2798(3) 0.4296(6)
H12_6 H 0.4459 0.3064 0.4562
C13_6 C 0.5233(2) 0.31049(28) 0.4002(6)
H13_6 H 0.5026 0.2872 0.4480
H14_6 H 0.5398 0.3018 0.3534
C14_5 C 0.54930(18) 0.34273(25) 0.4922(6)
C15_5 C 0.5864(2) 0.34985(28) 0.5228(6)
H15_5 H 0.5963 0.3345 0.4831
C16_5 C 0.61097(18) 0.37938(25) 0.6112(6)
C17_5 C 0.6492(2) 0.3873(3) 0.6451(7)
H16_5 H 0.6595 0.3719 0.6080
C18_2 C 0.6719(3) 0.4163(4) 0.7290(9)
H17_2 H 0.6975 0.4206 0.7522
C19_3 C 0.6575(2) 0.4402(4) 0.7821(7)
H18_2 H 0.6737 0.4608 0.8403
C20_3 C 0.6211(2) 0.4343(3) 0.7514(6)
H19_3 H 0.6118 0.4505 0.7886
C21_5 C 0.59663(18) 0.40407(27) 0.6648(5)
C22_5 C 0.5586(2) 0.3966(3) 0.6312(6)
H20_3 H 0.5486 0.4124 0.6670
C23_5 C 0.5358(2) 0.36703(28) 0.5479(6)
H21_5 H 0.5100 0.3626 0.5267
N1_5 N 0.26273(16) 0.16867(17) 0.6911(5)
N2_5 N 0.15348(13) 0.16303(13) 0.9755(4)
C1_4 C 0.2286(2) 0.1373(2) 0.6568(6)
H1_4 H 0.2287 0.1222 0.5858
C2_5 C 0.19328(19) 0.12553(19) 0.7174(6)
H2_5 H 0.1696 0.1027 0.6883
C3_5 C 0.19188(16) 0.14661(16) 0.8209(5)
C4_5 C 0.22763(19) 0.1784(2) 0.8593(6)
H3_5 H 0.2287 0.1936 0.9315
C5_5 C 0.2617(2) 0.1881(2) 0.7931(7)
H4_5 H 0.2860 0.2102 0.8219
C6_5 C 0.15327(17) 0.13326(17) 0.8880(5)
H5_5 H 0.1464 0.1087 0.9365
H6_5 H 0.1321 0.1263 0.8239
C7_5 C 0.1516(2) 0.19470(17) 0.9079(5)
H7_5 H 0.1697 0.2028 0.8337
H8_5 H 0.1241 0.1844 0.8757
C8_5 C 0.16288(18) 0.23058(17) 0.9895(5)
C9_5 C 0.1509(2) 0.25740(19) 0.9585(6)
H9_5 H 0.1347 0.2530 0.8855
N1_6 N 0.90595(23) 0.73727(16) 0.6911(5)
C1_5 C 0.9088(3) 0.7714(2) 0.6568(6)
H1_5 H 0.8936 0.7713 0.5858
C2_6 C 0.93226(27) 0.80672(19) 0.7174(6)
H2_6 H 0.9332 0.8304 0.6883
C3_6 C 0.95474(23) 0.80812(16) 0.8209(5)
C4_6 C 0.95081(28) 0.77237(19) 0.8593(6)
H3_6 H 0.9650 0.7713 0.9315
C5_6 C 0.9265(3) 0.7383(2) 0.7931(7)
H4_6 H 0.9243 0.7140 0.8219
C6_6 C 0.98000(24) 0.84673(17) 0.8880(5)
H5_6 H 0.9624 0.8536 0.9365
H6_6 H 0.9943 0.8679 0.8239
C18_3 C 0.5890(3) 0.3386(3) 0.9377(9)
H17_3 H 0.6103 0.3642 0.9145
C19_4 C 0.5507(3) 0.3242(2) 0.8846(7)
H18_3 H 0.5463 0.3404 0.8264
C20_4 C 0.5202(2) 0.2878(2) 0.9153(6)
H19_4 H 0.4947 0.2785 0.8781
H20_4 H 0.4696 0.2153 0.9997
Ag2_2 Ag 0.46179(3) 0.98258(2) 0.08421(5)
C1_6 C 0.4246(3) 0.8952(2) 0.0098(6)
H1_6 H 0.4398 0.8953 0.0808
Ag2_3 Ag 0.01742(2) 0.47920(4) 0.08421(5)
C1_7 C 0.1048(2) 0.5293(2) 0.0098(6)
H1_7 H 0.1047 0.5444 0.0808
Ag1_3 Ag 0.85413(2) 0.20488(3) 0.75088(5)
N1_7 N 0.83534(17) 0.23928(23) 0.6422(5)
N2_6 N 0.82970(13) 0.34289(18) 0.3578(4)
N3_5 N 0.96478(16) 0.44763(24) 0.1978(5)
C1_8 C 0.8040(2) 0.2421(3) 0.6765(6)
H1_8 H 0.7889 0.2269 0.7475
C2_7 C 0.79220(19) 0.26559(27) 0.6159(6)
H2_7 H 0.7694 0.2665 0.6450
C3_7 C 0.81328(16) 0.28807(23) 0.5124(5)
C4_7 C 0.8451(2) 0.28414(28) 0.4740(6)
H3_7 H 0.8603 0.2983 0.4018
C5_7 C 0.8548(2) 0.2598(3) 0.5402(7)
H4_7 H 0.8769 0.2576 0.5114
C6_7 C 0.79993(17) 0.31333(24) 0.4453(5)
H5_7 H 0.7754 0.2957 0.3968
H6_7 H 0.7930 0.3276 0.5094
C7_6 C 0.86137(17) 0.37647(26) 0.4254(5)
H7_6 H 0.8695 0.3665 0.4996
H8_6 H 0.8511 0.3937 0.4576
C8_6 C 0.89725(17) 0.40104(25) 0.3438(5)
C9_6 C 0.92407(19) 0.43987(28) 0.3748(6)
H9_6 H 0.9197 0.4517 0.4478
C10_7 C 0.9571(2) 0.4618(4) 0.3010(7)
H10_7 H 0.9754 0.4886 0.3254
C11_7 C 0.9389(2) 0.4104(3) 0.1666(6)
H11_7 H 0.9436 0.3993 0.0924
C12_7 C 0.9053(2) 0.3869(3) 0.2371(6)
H12_7 H 0.8874 0.3603 0.2105
C13_7 C 0.8100(2) 0.35618(28) 0.2665(6)
H13_7 H 0.8307 0.3795 0.2187
H14_7 H 0.7935 0.3649 0.3133
C14_6 C 0.78403(18) 0.32394(25) 0.1745(6)
C15_6 C 0.7469(2) 0.31682(28) 0.1439(6)
H15_6 H 0.7370 0.3322 0.1836
C16_6 C 0.72236(18) 0.28729(25) 0.0555(6)
C17_6 C 0.6841(2) 0.2794(3) 0.0216(7)
H16_6 H 0.6738 0.2948 0.0587
C21_6 C 0.73670(18) 0.26260(27) 0.0019(5)
C22_6 C 0.7747(2) 0.2701(3) 0.0355(6)
C23_6 C 0.7975(2) 0.29964(28) 0.1188(6)
H21_6 H 0.8233 0.3041 0.1400
Ag3_3 Ag 0.81254(2) 0.12845(3) 0.58245(5)
N4_3 N 0.88570(24) 0.18382(29) 0.8645(5)
C10_8 C 0.8715(4) 0.1620(3) 0.9677(7)
H10_8 H 0.8447 0.1535 0.9921
C11_8 C 0.9229(3) 0.1952(2) 0.8333(6)
H11_8 H 0.9340 0.2110 0.7591
C12_8 C 0.9464(3) 0.1851(2) 0.9038(6)
H12_8 H 0.9730 0.1938 0.8772
C13_8 C 0.97715(28) 0.12049(19) 0.9332(6)
H13_8 H 0.9538 0.1179 0.8854
H14_8 H 0.9684 0.0953 0.9800
N1_8 N 0.57261(23) 0.07061(16) 0.0245(5)
N2_7 N 0.67622(18) 0.17986(13) 0.3089(4)
N3_6 N 0.78096(24) 0.14952(18) 0.4689(5)
C2_8 C 0.59892(27) 0.14006(19) 0.0508(6)
H2_8 H 0.5998 0.1638 0.0217
C3_8 C 0.62140(23) 0.14146(16) 0.1543(5)
C4_8 C 0.61747(28) 0.10571(19) 0.1927(6)
H3_8 H 0.6316 0.1047 0.2649
C5_8 C 0.5931(3) 0.0717(2) 0.1265(7)
H4_8 H 0.5909 0.0474 0.1553
C6_8 C 0.64666(24) 0.18007(17) 0.2214(5)
H5_8 H 0.6290 0.1870 0.2699
H6_8 H 0.6609 0.2013 0.1573
C7_7 C 0.70980(26) 0.1818(2) 0.2413(5)
H7_7 H 0.6998 0.1637 0.1671
H8_7 H 0.7270 0.2093 0.2091
C8_7 C 0.73437(25) 0.17046(18) 0.3229(5)
C9_7 C 0.77320(28) 0.1825(2) 0.2919(6)
H9_7 H 0.7850 0.1987 0.2189
C10_9 C 0.7951(4) 0.1714(3) 0.3657(7)
H10_9 H 0.8219 0.1799 0.3413
C11_9 C 0.7437(3) 0.1382(2) 0.5001(6)
H11_9 H 0.7326 0.1224 0.5743
C12_9 C 0.7202(3) 0.1483(2) 0.4296(6)
H12_9 H 0.6936 0.1396 0.4562
C13_9 C 0.68951(28) 0.21285(19) 0.4002(6)
H13_9 H 0.7128 0.2155 0.4480
H14_9 H 0.6982 0.2381 0.3534
C14_7 C 0.65727(25) 0.20658(18) 0.4922(6)
C15_7 C 0.65015(28) 0.23659(19) 0.5228(6)
H15_7 H 0.6655 0.2619 0.4831
C16_7 C 0.62062(25) 0.23160(18) 0.6112(6)
C17_7 C 0.6127(3) 0.2620(2) 0.6451(7)
H16_7 H 0.6281 0.2877 0.6080
C18_4 C 0.5837(4) 0.2557(3) 0.7290(9)
H17_4 H 0.5794 0.2770 0.7522
C19_5 C 0.5598(4) 0.2174(3) 0.7821(7)
H18_4 H 0.5392 0.2130 0.8403
C20_5 C 0.5657(3) 0.1869(2) 0.7514(6)
H19_5 H 0.5495 0.1614 0.7886
C21_7 C 0.59593(27) 0.1926(2) 0.6648(5)
C22_7 C 0.6034(3) 0.1621(2) 0.6312(6)
H20_5 H 0.5876 0.1363 0.6670
C23_7 C 0.63297(28) 0.16881(19) 0.5479(6)
H21_7 H 0.6374 0.1475 0.5267
N1_9 N 0.83133(17) 0.09405(23) 0.6911(5)
C1_9 C 0.8627(2) 0.0912(3) 0.6568(6)
H1_9 H 0.8778 0.1064 0.5858
C2_9 C 0.87447(19) 0.06774(27) 0.7174(6)
H2_9 H 0.8973 0.0668 0.6883
C3_9 C 0.85339(16) 0.04526(23) 0.8209(5)
C4_9 C 0.8216(2) 0.04919(28) 0.8593(6)
H3_9 H 0.8064 0.0350 0.9315
C5_9 C 0.8119(2) 0.0735(3) 0.7931(7)
H4_9 H 0.7898 0.0757 0.8219
C6_9 C 0.86674(17) 0.02000(24) 0.8880(5)
H5_9 H 0.8913 0.0376 0.9365
H6_9 H 0.8737 0.0057 0.8239
C18_5 C 0.6614(3) 0.2504(4) 0.9377(9)
H17_5 H 0.6358 0.2461 0.9145
C19_6 C 0.6758(2) 0.2265(4) 0.8846(7)
H18_5 H 0.6596 0.2059 0.8264
C20_6 C 0.7122(2) 0.2324(3) 0.9153(6)
H19_6 H 0.7215 0.2162 0.8781
H20_6 H 0.7847 0.2543 0.9997
C18_6 C 0.7496(4) 0.4110(3) 0.9377(9)
H17_6 H 0.7539 0.3897 0.9145
C19_7 C 0.7735(4) 0.4493(3) 0.8846(7)
H18_6 H 0.7941 0.4537 0.8264
C20_7 C 0.7676(3) 0.4798(2) 0.9153(6)
H19_7 H 0.7838 0.5053 0.8781
H20_7 H 0.7457 0.5304 0.9997
N1_10 N 0.07061(16) 0.49799(17) 0.9755(5)
N2_8 N 0.17986(13) 0.50363(13) 0.6911(4)
N3_7 N 0.14952(18) 0.36855(16) 0.5311(5)
C2_10 C 0.14006(19) 0.54113(19) 0.9492(6)
H2_10 H 0.1638 0.5639 0.9783
C3_10 C 0.14146(16) 0.52005(16) 0.8457(5)
C4_10 C 0.10571(19) 0.4882(2) 0.8073(6)
H3_10 H 0.1047 0.4730 0.7351
C5_10 C 0.0717(2) 0.4785(2) 0.8735(7)
H4_10 H 0.0474 0.4564 0.8447
C6_10 C 0.18007(17) 0.53340(17) 0.7786(5)
H5_10 H 0.1870 0.5579 0.7301
H6_10 H 0.2013 0.5403 0.8427
C7_8 C 0.1818(2) 0.47196(17) 0.7587(5)
H7_8 H 0.1637 0.4638 0.8329
H8_8 H 0.2093 0.4822 0.7909
C8_8 C 0.17046(18) 0.43608(17) 0.6771(5)
C9_8 C 0.1825(2) 0.40926(19) 0.7081(6)
H9_8 H 0.1987 0.4136 0.7811
C10_10 C 0.1714(3) 0.3762(2) 0.6343(7)
H10_10 H 0.1799 0.3579 0.6587
C11_10 C 0.1382(2) 0.3944(2) 0.4999(6)
H11_10 H 0.1224 0.3897 0.4257
C12_10 C 0.1483(2) 0.4280(2) 0.5704(6)
H12_10 H 0.1396 0.4459 0.5438
C13_10 C 0.21285(19) 0.5233(2) 0.5998(6)
H13_10 H 0.2155 0.5026 0.5520
H14_10 H 0.2381 0.5398 0.6466
C14_8 C 0.20658(18) 0.54930(18) 0.5078(6)
C15_8 C 0.23659(19) 0.5864(2) 0.4772(6)
H15_8 H 0.2619 0.5963 0.5169
C16_8 C 0.23160(18) 0.61097(18) 0.3888(6)
C17_8 C 0.2620(2) 0.6492(2) 0.3549(7)
H16_8 H 0.2877 0.6595 0.3920
C18_7 C 0.2557(3) 0.6719(3) 0.2710(9)
H17_7 H 0.2770 0.6975 0.2478
C19_8 C 0.2174(3) 0.6575(2) 0.2179(7)
H18_7 H 0.2130 0.6737 0.1597
C20_8 C 0.1869(2) 0.6211(2) 0.2486(6)
H19_8 H 0.1614 0.6118 0.2114
C21_8 C 0.1926(2) 0.59663(18) 0.3352(5)
C22_8 C 0.1621(2) 0.5586(2) 0.3688(6)
H20_8 H 0.1363 0.5486 0.3330
C23_8 C 0.16881(19) 0.5358(2) 0.4521(6)
H21_8 H 0.1475 0.5100 0.4733
Ag2_4 Ag 0.12845(3) 0.31592(2) 0.41755(5)
N1_11 N 0.50201(17) 0.57261(23) 0.9755(5)
N2_9 N 0.49637(13) 0.67622(18) 0.6911(4)
N3_8 N 0.63145(16) 0.78096(24) 0.5311(5)
C2_11 C 0.45887(19) 0.59892(27) 0.9492(6)
H2_11 H 0.4361 0.5998 0.9783
C3_11 C 0.47995(16) 0.62140(23) 0.8457(5)
C4_11 C 0.5118(2) 0.61747(28) 0.8073(6)
H3_11 H 0.5270 0.6316 0.7351
C5_11 C 0.5215(2) 0.5931(3) 0.8735(7)
H4_11 H 0.5436 0.5909 0.8447
C6_11 C 0.46660(17) 0.64666(24) 0.7786(5)
H5_11 H 0.4421 0.6290 0.7301
H6_11 H 0.4597 0.6609 0.8427
C7_9 C 0.52804(17) 0.70980(26) 0.7587(5)
H7_9 H 0.5362 0.6998 0.8329
H8_9 H 0.5178 0.7270 0.7909
C8_9 C 0.56392(17) 0.73437(25) 0.6771(5)
C9_9 C 0.59074(19) 0.77320(28) 0.7081(6)
H9_9 H 0.5864 0.7850 0.7811
C10_11 C 0.6238(2) 0.7951(4) 0.6343(7)
H10_11 H 0.6421 0.8219 0.6587
C11_11 C 0.6056(2) 0.7437(3) 0.4999(6)
H11_11 H 0.6103 0.7326 0.4257
C12_11 C 0.5720(2) 0.7202(3) 0.5704(6)
H12_11 H 0.5541 0.6936 0.5438
C13_11 C 0.4767(2) 0.68951(28) 0.5998(6)
H13_11 H 0.4974 0.7128 0.5520
H14_11 H 0.4602 0.6982 0.6466
C14_9 C 0.45070(18) 0.65727(25) 0.5078(6)
C15_9 C 0.4136(2) 0.65015(28) 0.4772(6)
H15_9 H 0.4037 0.6655 0.5169
C16_9 C 0.38903(18) 0.62062(25) 0.3888(6)
C17_9 C 0.3508(2) 0.6127(3) 0.3549(7)
H16_9 H 0.3405 0.6281 0.3920
C18_8 C 0.3281(3) 0.5837(4) 0.2710(9)
H17_8 H 0.3025 0.5794 0.2478
C19_9 C 0.3425(2) 0.5598(4) 0.2179(7)
H18_8 H 0.3263 0.5392 0.1597
C20_9 C 0.3789(2) 0.5657(3) 0.2486(6)
H19_9 H 0.3882 0.5495 0.2114
C21_9 C 0.40337(18) 0.59593(27) 0.3352(5)
C22_9 C 0.4414(2) 0.6034(3) 0.3688(6)
H20_9 H 0.4514 0.5876 0.3330
C23_9 C 0.4642(2) 0.63297(28) 0.4521(6)
H21_9 H 0.4900 0.6374 0.4733
Ag2_5 Ag 0.68408(2) 0.81254(4) 0.41755(5)
Ag3_4 Ag 0.47920(2) 0.46179(3) 0.91579(5)
N1_12 N 0.73727(16) 0.83133(17) 0.3089(5)
N2_10 N 0.84652(13) 0.83697(13) 0.0245(4)
C1_10 C 0.7714(2) 0.8627(2) 0.3432(6)
H1_10 H 0.7713 0.8778 0.4142
C2_12 C 0.80672(19) 0.87447(19) 0.2826(6)
H2_12 H 0.8304 0.8973 0.3117
C3_12 C 0.80812(16) 0.85339(16) 0.1791(5)
C4_12 C 0.77237(19) 0.8216(2) 0.1407(6)
H3_12 H 0.7713 0.8064 0.0685
C5_12 C 0.7383(2) 0.8119(2) 0.2069(7)
H4_12 H 0.7140 0.7898 0.1781
C6_12 C 0.84673(17) 0.86674(17) 0.1120(5)
H5_12 H 0.8536 0.8913 0.0635
H6_12 H 0.8679 0.8737 0.1761
C7_10 C 0.8484(2) 0.80530(17) 0.0921(5)
H7_10 H 0.8303 0.7972 0.1663
H8_10 H 0.8759 0.8156 0.1243
C8_10 C 0.83712(18) 0.76942(17) 0.0105(5)
C9_10 C 0.8491(2) 0.74260(19) 0.0415(6)
H9_10 H 0.8653 0.7470 0.1145
Ag3_5 Ag 0.64925(2) 0.85413(2) 0.24912(5)
N1_13 N 0.09405(23) 0.26273(16) 0.3089(5)
C1_11 C 0.0912(3) 0.2286(2) 0.3432(6)
H1_11 H 0.1064 0.2287 0.4142
C2_13 C 0.06774(27) 0.19328(19) 0.2826(6)
H2_13 H 0.0668 0.1696 0.3117
C3_13 C 0.04526(23) 0.19188(16) 0.1791(5)
C4_13 C 0.04919(28) 0.22763(19) 0.1407(6)
H3_13 H 0.0350 0.2287 0.0685
C5_13 C 0.0735(3) 0.2617(2) 0.2069(7)
H4_13 H 0.0757 0.2860 0.1781
C6_13 C 0.02000(24) 0.15327(17) 0.1120(5)
H5_13 H 0.0376 0.1464 0.0635
H6_13 H 0.0057 0.1321 0.1761
Ag3_6 Ag 0.20488(3) 0.35075(2) 0.24912(5)
N1_14 N 0.59606(16) 0.83534(17) 0.3578(5)
N2_11 N 0.48681(13) 0.82970(13) 0.6422(4)
N3_9 N 0.51715(18) 0.96478(16) 0.8022(5)
C1_12 C 0.5619(2) 0.8040(2) 0.3235(6)
H1_12 H 0.5620 0.7889 0.2525
C2_14 C 0.52661(19) 0.79220(19) 0.3841(6)
H2_14 H 0.5029 0.7694 0.3550
C3_14 C 0.52521(16) 0.81328(16) 0.4876(5)
C4_14 C 0.56096(19) 0.8451(2) 0.5260(6)
H3_14 H 0.5620 0.8603 0.5982
C5_14 C 0.5950(2) 0.8548(2) 0.4598(7)
H4_14 H 0.6193 0.8769 0.4886
C6_14 C 0.48660(17) 0.79993(17) 0.5547(5)
H5_14 H 0.4797 0.7754 0.6032
H6_14 H 0.4654 0.7930 0.4906
C7_11 C 0.4849(2) 0.86137(17) 0.5746(5)
H7_11 H 0.5030 0.8695 0.5004
H8_11 H 0.4574 0.8511 0.5424
C8_11 C 0.49621(18) 0.89725(17) 0.6562(5)
C9_11 C 0.4842(2) 0.92407(19) 0.6252(6)
H9_11 H 0.4680 0.9197 0.5522
C10_12 C 0.4953(3) 0.9571(2) 0.6990(7)
H10_12 H 0.4868 0.9754 0.6746
C11_12 C 0.5285(2) 0.9389(2) 0.8334(6)
H11_12 H 0.5443 0.9436 0.9076
C12_12 C 0.5184(2) 0.9053(2) 0.7629(6)
H12_12 H 0.5271 0.8874 0.7895
C13_12 C 0.45382(19) 0.8100(2) 0.7335(6)
H13_12 H 0.4512 0.8307 0.7813
H14_12 H 0.4286 0.7935 0.6867
C14_10 C 0.46009(18) 0.78403(18) 0.8255(6)
C15_10 C 0.43008(19) 0.7469(2) 0.8561(6)
H15_10 H 0.4048 0.7370 0.8164
C16_10 C 0.43507(18) 0.72236(18) 0.9445(6)
C17_10 C 0.4047(2) 0.6841(2) 0.9784(7)
H16_10 H 0.3790 0.6738 0.9413
C21_10 C 0.4741(2) 0.73670(18) 0.9981(5)
C22_10 C 0.5046(2) 0.7747(2) 0.9645(6)
C23_10 C 0.49786(19) 0.7975(2) 0.8812(6)
H21_10 H 0.5192 0.8233 0.8600
N4_4 N 0.70189(16) 0.88570(24) 0.1355(5)
N1_15 N 0.23928(23) 0.40394(16) 0.3578(5)
N2_12 N 0.34289(18) 0.51319(13) 0.6422(4)
N3_10 N 0.44763(24) 0.48285(18) 0.8022(5)
C1_13 C 0.2421(3) 0.4381(2) 0.3235(6)
H1_13 H 0.2269 0.4380 0.2525
C2_15 C 0.26559(27) 0.47339(19) 0.3841(6)
H2_15 H 0.2665 0.4971 0.3550
C3_15 C 0.28807(23) 0.47479(16) 0.4876(5)
C4_15 C 0.28414(28) 0.43904(19) 0.5260(6)
H3_15 H 0.2983 0.4380 0.5982
C5_15 C 0.2598(3) 0.4050(2) 0.4598(7)
H4_15 H 0.2576 0.3807 0.4886
C6_15 C 0.31333(24) 0.51340(17) 0.5547(5)
H5_15 H 0.2957 0.5203 0.6032
H6_15 H 0.3276 0.5346 0.4906
C7_12 C 0.37647(26) 0.5151(2) 0.5746(5)
H7_12 H 0.3665 0.4970 0.5004
H8_12 H 0.3937 0.5426 0.5424
C8_12 C 0.40104(25) 0.50379(18) 0.6562(5)
C9_12 C 0.43987(28) 0.5158(2) 0.6252(6)
H9_12 H 0.4517 0.5320 0.5522
C10_13 C 0.4618(4) 0.5047(3) 0.6990(7)
H10_13 H 0.4886 0.5132 0.6746
C11_13 C 0.4104(3) 0.4715(2) 0.8334(6)
H11_13 H 0.3993 0.4557 0.9076
C12_13 C 0.3869(3) 0.4816(2) 0.7629(6)
H12_13 H 0.3603 0.4729 0.7895
C13_13 C 0.35618(28) 0.54618(19) 0.7335(6)
H13_13 H 0.3795 0.5488 0.7813
H14_13 H 0.3649 0.5714 0.6867
C14_11 C 0.32394(25) 0.53991(18) 0.8255(6)
C15_11 C 0.31682(28) 0.56992(19) 0.8561(6)
H15_11 H 0.3322 0.5952 0.8164
C16_11 C 0.28729(25) 0.56493(18) 0.9445(6)
C17_11 C 0.2794(3) 0.5953(2) 0.9784(7)
H16_11 H 0.2948 0.6210 0.9413
C21_11 C 0.26260(27) 0.5259(2) 0.9981(5)
C22_11 C 0.2701(3) 0.4954(2) 0.9645(6)
C23_11 C 0.29964(28) 0.50214(19) 0.8812(6)
H21_11 H 0.3041 0.4808 0.8600
N4_5 N 0.18382(29) 0.29811(16) 0.1355(5)
C1_14 C 0.5293(2) 0.4246(3) 0.9902(6)
H1_14 H 0.5444 0.4398 0.9192
C10_14 C 0.1620(3) 0.2904(2) 0.0323(7)
H10_14 H 0.1535 0.3087 0.0079
C11_14 C 0.1952(2) 0.2722(2) 0.1667(6)
H11_14 H 0.2110 0.2769 0.2409
C12_14 C 0.1851(2) 0.2386(2) 0.0962(6)
H12_14 H 0.1938 0.2207 0.1228
C13_14 C 0.12049(19) 0.1433(2) 0.0668(6)
H13_14 H 0.1179 0.1640 0.1146
H14_14 H 0.0953 0.1268 0.0200
C14_12 C 0.12676(18) 0.11736(18) 0.1588(6)
C15_12 C 0.09675(19) 0.0802(2) 0.1894(6)
H15_12 H 0.0715 0.0703 0.1497
C16_12 C 0.10174(18) 0.05569(18) 0.2778(6)
C17_12 C 0.0714(2) 0.0174(2) 0.3117(7)
H16_12 H 0.0457 0.0071 0.2746
C19_10 C 0.1160(3) 0.0091(2) 0.4487(7)
C20_10 C 0.1465(2) 0.0455(2) 0.4180(6)
H19_10 H 0.1720 0.0548 0.4552
C21_12 C 0.1408(2) 0.07003(18) 0.3314(5)
C22_12 C 0.1713(2) 0.1080(2) 0.2978(6)
H20_10 H 0.1971 0.1180 0.3336
C23_12 C 0.16453(19) 0.1308(2) 0.2145(6)
H21_12 H 0.1859 0.1566 0.1933
C10_15 C 0.7096(2) 0.8715(4) 0.0323(7)
H10_15 H 0.6913 0.8447 0.0079
C11_15 C 0.7278(2) 0.9229(3) 0.1667(6)
H11_15 H 0.7231 0.9340 0.2409
C12_15 C 0.7614(2) 0.9464(3) 0.0962(6)
H12_15 H 0.7793 0.9730 0.1228
C13_15 C 0.8567(2) 0.97715(28) 0.0668(6)
H13_15 H 0.8360 0.9538 0.1146
H14_15 H 0.8732 0.9684 0.0200
Ag3_7 Ag 0.98258(2) 0.52080(2) 0.91579(5)
C1_15 C 0.8952(2) 0.4707(2) 0.9902(6)
H1_15 H 0.8953 0.4556 0.9192
Ag3_8 Ag 0.53821(3) 0.01742(2) 0.91579(5)
C1_16 C 0.5754(3) 0.1048(2) 0.9902(6)
H1_16 H 0.5602 0.1047 0.9192
N1_16 N 0.42739(23) 0.92939(16) 0.9755(5)
N2_13 N 0.32378(18) 0.82014(13) 0.6911(4)
N3_11 N 0.21904(24) 0.85048(18) 0.5311(5)
C2_16 C 0.40108(27) 0.85994(19) 0.9492(6)
H2_16 H 0.4002 0.8362 0.9783
C3_16 C 0.37860(23) 0.85854(16) 0.8457(5)
C4_16 C 0.38253(28) 0.89429(19) 0.8073(6)
H3_16 H 0.3684 0.8953 0.7351
C5_16 C 0.4069(3) 0.9283(2) 0.8735(7)
H4_16 H 0.4091 0.9526 0.8447
C6_16 C 0.35334(24) 0.81993(17) 0.7786(5)
H5_16 H 0.3710 0.8130 0.7301
H6_16 H 0.3391 0.7987 0.8427
C7_13 C 0.29020(26) 0.8182(2) 0.7587(5)
H7_13 H 0.3002 0.8363 0.8329
H8_13 H 0.2730 0.7907 0.7909
C8_13 C 0.26563(25) 0.82954(18) 0.6771(5)
C9_13 C 0.22680(28) 0.8175(2) 0.7081(6)
H9_13 H 0.2150 0.8013 0.7811
C10_16 C 0.2049(4) 0.8286(3) 0.6343(7)
H10_16 H 0.1781 0.8201 0.6587
C11_16 C 0.2563(3) 0.8618(2) 0.4999(6)
H11_16 H 0.2674 0.8776 0.4257
C12_16 C 0.2798(3) 0.8517(2) 0.5704(6)
H12_16 H 0.3064 0.8604 0.5438
C13_16 C 0.31049(28) 0.78715(19) 0.5998(6)
H13_16 H 0.2872 0.7845 0.5520
H14_16 H 0.3018 0.7619 0.6466
C14_13 C 0.34273(25) 0.79342(18) 0.5078(6)
C15_13 C 0.34985(28) 0.76341(19) 0.4772(6)
H15_13 H 0.3345 0.7381 0.5169
C16_13 C 0.37938(25) 0.76840(18) 0.3888(6)
C17_13 C 0.3873(3) 0.7380(2) 0.3549(7)
H16_13 H 0.3719 0.7123 0.3920
C18_9 C 0.4163(4) 0.7443(3) 0.2710(9)
H17_9 H 0.4206 0.7230 0.2478
C19_11 C 0.4402(4) 0.7826(3) 0.2179(7)
H18_9 H 0.4608 0.7870 0.1597
C20_11 C 0.4343(3) 0.8131(2) 0.2486(6)
H19_11 H 0.4505 0.8386 0.2114
C21_13 C 0.40407(27) 0.8074(2) 0.3352(5)
C22_13 C 0.3966(3) 0.8379(2) 0.3688(6)
H20_11 H 0.4124 0.8637 0.3330
C23_13 C 0.36703(28) 0.83119(19) 0.4521(6)
H21_13 H 0.3626 0.8525 0.4733
Ag2_6 Ag 0.18746(4) 0.87155(3) 0.41755(5)
N1_17 N 0.16867(17) 0.90595(23) 0.3089(5)
C1_17 C 0.1373(2) 0.9088(3) 0.3432(6)
H1_17 H 0.1222 0.8936 0.4142
C2_17 C 0.12553(19) 0.93226(27) 0.2826(6)
H2_17 H 0.1027 0.9332 0.3117
C3_17 C 0.14661(16) 0.95474(23) 0.1791(5)
C4_17 C 0.1784(2) 0.95081(28) 0.1407(6)
H3_17 H 0.1936 0.9650 0.0685
C5_17 C 0.1881(2) 0.9265(3) 0.2069(7)
H4_17 H 0.2102 0.9243 0.1781
C6_17 C 0.13326(17) 0.98000(24) 0.1120(5)
H5_17 H 0.1087 0.9624 0.0635
H6_17 H 0.1263 0.9943 0.1761
Ag3_9 Ag 0.14587(2) 0.79512(3) 0.24912(5)
N1_18 N 0.16466(17) 0.76072(23) 0.3578(5)
N2_14 N 0.17030(13) 0.65711(18) 0.6422(4)
N3_12 N 0.03522(16) 0.55237(24) 0.8022(5)
C1_18 C 0.1960(2) 0.7579(3) 0.3235(6)
H1_18 H 0.2111 0.7731 0.2525
C2_18 C 0.20780(19) 0.73441(27) 0.3841(6)
H2_18 H 0.2306 0.7335 0.3550
C3_18 C 0.18672(16) 0.71193(23) 0.4876(5)
C4_18 C 0.1549(2) 0.71586(28) 0.5260(6)
H3_18 H 0.1397 0.7017 0.5982
C5_18 C 0.1452(2) 0.7402(3) 0.4598(7)
H4_18 H 0.1231 0.7424 0.4886
C6_18 C 0.20007(17) 0.68667(24) 0.5547(5)
H5_18 H 0.2246 0.7043 0.6032
H6_18 H 0.2070 0.6724 0.4906
C7_14 C 0.13863(17) 0.62353(26) 0.5746(5)
H7_14 H 0.1305 0.6335 0.5004
H8_14 H 0.1489 0.6063 0.5424
C8_14 C 0.10275(17) 0.59896(25) 0.6562(5)
C9_14 C 0.07593(19) 0.56013(28) 0.6252(6)
H9_14 H 0.0803 0.5483 0.5522
C10_17 C 0.0429(2) 0.5382(4) 0.6990(7)
H10_17 H 0.0246 0.5114 0.6746
C11_17 C 0.0611(2) 0.5896(3) 0.8334(6)
H11_17 H 0.0564 0.6007 0.9076
C12_17 C 0.0947(2) 0.6131(3) 0.7629(6)
H12_17 H 0.1126 0.6397 0.7895
C13_17 C 0.1900(2) 0.64382(28) 0.7335(6)
H13_17 H 0.1693 0.6205 0.7813
H14_17 H 0.2065 0.6351 0.6867
C14_14 C 0.21597(18) 0.67606(25) 0.8255(6)
C15_14 C 0.2531(2) 0.68318(28) 0.8561(6)
H15_14 H 0.2630 0.6678 0.8164
C16_14 C 0.27764(18) 0.71271(25) 0.9445(6)
C17_14 C 0.3159(2) 0.7206(3) 0.9784(7)
H16_14 H 0.3262 0.7052 0.9413
C21_14 C 0.26330(18) 0.73740(27) 0.9981(5)
C22_14 C 0.2253(2) 0.7299(3) 0.9645(6)
C23_14 C 0.2025(2) 0.70036(28) 0.8812(6)
H21_14 H 0.1767 0.6959 0.8600
N4_6 N 0.11430(24) 0.81618(29) 0.1355(5)
C10_18 C 0.1285(4) 0.8380(3) 0.0323(7)
H10_18 H 0.1553 0.8465 0.0079
C11_18 C 0.0771(3) 0.8048(2) 0.1667(6)
H11_18 H 0.0660 0.7890 0.2409
C12_18 C 0.0536(3) 0.8149(2) 0.0962(6)
H12_18 H 0.0270 0.8062 0.1228
C13_18 C 0.02285(28) 0.87951(19) 0.0668(6)
H13_18 H 0.0462 0.8821 0.1146
H14_18 H 0.0316 0.9047 0.0200
C18_10 C 0.9223(3) 0.0053(3) 0.6044(9)
H17_10 H 0.9436 0.0309 0.5812
H18_10 H 0.8796 0.0071 0.4931
N2_15 N 0.16303(13) 0.00956(18) 0.0245(4)
C7_15 C 0.19470(17) 0.04314(26) 0.0921(5)
H7_15 H 0.2028 0.0332 0.1663
H8_15 H 0.1844 0.0604 0.1243
C8_15 C 0.23058(17) 0.06771(25) 0.0105(5)
C9_15 C 0.25740(19) 0.10654(28) 0.0415(6)
H9_15 H 0.2530 0.1184 0.1145
C14_15 C 0.11736(18) 0.99061(25) 0.8412(6)
C15_15 C 0.0802(2) 0.98349(28) 0.8106(6)
H15_15 H 0.0703 0.9989 0.8503
C16_15 C 0.05569(18) 0.95396(25) 0.7222(6)
C17_15 C 0.0174(2) 0.9461(3) 0.6883(7)
H16_15 H 0.0071 0.9615 0.7254
C19_12 C 0.0091(2) 0.8932(4) 0.5513(7)
C20_12 C 0.0455(2) 0.8991(3) 0.5820(6)
H19_12 H 0.0548 0.8829 0.5448
C21_15 C 0.07003(18) 0.92927(27) 0.6686(5)
C22_15 C 0.1080(2) 0.9368(3) 0.7022(6)
H20_12 H 0.1180 0.9210 0.6664
C23_15 C 0.1308(2) 0.96631(28) 0.7855(6)
H21_15 H 0.1566 0.9708 0.8067
C18_11 C 0.9947(3) 0.9171(4) 0.6044(9)
H17_11 H 0.9691 0.9128 0.5812
H18_11 H 0.9929 0.8726 0.4931
C14_16 C 0.00939(25) 0.12676(18) 0.8412(6)
C15_16 C 0.01651(28) 0.09675(19) 0.8106(6)
H15_16 H 0.0011 0.0715 0.8503
C16_16 C 0.04604(25) 0.10174(18) 0.7222(6)
C17_16 C 0.0539(3) 0.0714(2) 0.6883(7)
H16_16 H 0.0385 0.0457 0.7254
C18_12 C 0.0829(4) 0.0777(3) 0.6044(9)
H17_12 H 0.0872 0.0564 0.5812
C19_13 C 0.1068(4) 0.1160(3) 0.5513(7)
H18_12 H 0.1274 0.1204 0.4931
C20_13 C 0.1009(3) 0.1465(2) 0.5820(6)
H19_13 H 0.1171 0.1720 0.5448
C21_16 C 0.07073(27) 0.1408(2) 0.6686(5)
C22_16 C 0.0632(3) 0.1713(2) 0.7022(6)
H20_13 H 0.0790 0.1971 0.6664
C23_16 C 0.03369(28) 0.16453(19) 0.7855(6)
H21_16 H 0.0292 0.1859 0.8067
N2_16 N 0.99044(18) 0.15348(13) 0.0245(4)
C7_16 C 0.95686(26) 0.1516(2) 0.0921(5)
H7_16 H 0.9668 0.1697 0.1663
H8_16 H 0.9396 0.1241 0.1243
C8_16 C 0.93229(25) 0.16288(18) 0.0105(5)
C9_16 C 0.89346(28) 0.1509(2) 0.0415(6)
H9_16 H 0.8816 0.1347 0.1145
C18_13 C 0.4110(3) 0.6614(3) 0.0623(9)
H17_13 H 0.3897 0.6358 0.0855
C19_14 C 0.4493(3) 0.6758(2) 0.1154(7)
H18_13 H 0.4537 0.6596 0.1736
C20_14 C 0.4798(2) 0.7122(2) 0.0847(6)
H19_14 H 0.5053 0.7215 0.1219
H20_14 H 0.5304 0.7847 0.0003
C18_14 C 0.3386(3) 0.7496(4) 0.0623(9)
H17_14 H 0.3642 0.7539 0.0855
C19_15 C 0.3242(2) 0.7735(4) 0.1154(7)
H18_14 H 0.3404 0.7941 0.1736
C20_15 C 0.2878(2) 0.7676(3) 0.0847(6)
H19_15 H 0.2785 0.7838 0.1219
H20_15 H 0.2153 0.7457 0.0003
C18_15 C 0.2504(4) 0.5890(3) 0.0623(9)
H17_15 H 0.2461 0.6103 0.0855
C19_16 C 0.2265(4) 0.5507(3) 0.1154(7)
H18_15 H 0.2059 0.5463 0.1736
C20_16 C 0.2324(3) 0.5202(2) 0.0847(6)
H19_16 H 0.2162 0.4947 0.1219
H20_16 H 0.2543 0.4696 0.0003
C18_16 C 0.0777(3) 0.9947(3) 0.3956(9)
H17_16 H 0.0564 0.9691 0.4188
H18_16 H 0.1204 0.9929 0.5069
C18_17 C 0.0053(3) 0.0829(4) 0.3956(9)
H17_17 H 0.0309 0.0872 0.4188
H18_17 H 0.0071 0.1274 0.5069
C14_17 C 0.88264(18) 0.00939(25) 0.1588(6)
C15_17 C 0.9198(2) 0.01651(28) 0.1894(6)
H15_17 H 0.9297 0.0011 0.1497
C16_17 C 0.94431(18) 0.04604(25) 0.2778(6)
C17_17 C 0.9826(2) 0.0539(3) 0.3117(7)
H16_17 H 0.9929 0.0385 0.2746
C19_17 C 0.9909(2) 0.1068(4) 0.4487(7)
C20_17 C 0.9545(2) 0.1009(3) 0.4180(6)
H19_17 H 0.9452 0.1171 0.4552
C21_17 C 0.92997(18) 0.07073(27) 0.3314(5)
C22_17 C 0.8920(2) 0.0632(3) 0.2978(6)
H20_17 H 0.8820 0.0790 0.3336
C23_17 C 0.8692(2) 0.03369(28) 0.2145(6)
H21_17 H 0.8434 0.0292 0.1933
N2_17 N 0.83697(13) 0.99044(18) 0.9755(4)
C7_17 C 0.80530(17) 0.95686(26) 0.9079(5)
H7_17 H 0.7972 0.9668 0.8337
H8_17 H 0.8156 0.9396 0.8757
C8_17 C 0.76942(17) 0.93229(25) 0.9895(5)
C9_17 C 0.74260(19) 0.89346(28) 0.9585(6)
H9_17 H 0.7470 0.8816 0.8855
N2_18 N 0.00956(18) 0.84652(13) 0.9755(4)
C7_18 C 0.04314(26) 0.8484(2) 0.9079(5)
H7_18 H 0.0332 0.8303 0.8337
H8_18 H 0.0604 0.8759 0.8757
C8_18 C 0.06771(25) 0.83712(18) 0.9895(5)
C9_18 C 0.10654(28) 0.8491(2) 0.9585(6)
H9_18 H 0.1184 0.8653 0.8855
C14_18 C 0.99061(25) 0.87324(18) 0.1588(6)
C15_18 C 0.98349(28) 0.90325(19) 0.1894(6)
H15_18 H 0.9989 0.9285 0.1497
C16_18 C 0.95396(25) 0.89826(18) 0.2778(6)
C17_18 C 0.9461(3) 0.9286(2) 0.3117(7)
H16_18 H 0.9615 0.9543 0.2746
C18_18 C 0.9171(4) 0.9223(3) 0.3956(9)
H17_18 H 0.9128 0.9436 0.4188
C19_18 C 0.8932(4) 0.8840(3) 0.4487(7)
H18_18 H 0.8726 0.8796 0.5069
C20_18 C 0.8991(3) 0.8535(2) 0.4180(6)
H19_18 H 0.8829 0.8280 0.4552
C21_18 C 0.92927(27) 0.8592(2) 0.3314(5)
C22_18 C 0.9368(3) 0.8287(2) 0.2978(6)
H20_18 H 0.9210 0.8029 0.3336
C23_18 C 0.96631(28) 0.83547(19) 0.2145(6)
H21_18 H 0.9708 0.8141 0.1933
O1 O 0.3013(2) 0.1116(2) 0.5312(6)
O2 O 0.2502(2) 0.0979(2) 0.3801(7)
O3 O 0.3104(3) 0.1030(3) 0.3135(8)
S1 S 0.28141(6) 0.09241(6) 0.42059(19)
C24 C 0.2620(7) 0.0403(6) 0.447(2)
F1 F 0.2359(4) 0.0323(4) 0.5379(12)
F2 F 0.2552(6) 0.0233(4) 0.3238(17)
F3 F 0.2908(5) 0.0346(4) 0.4826(15)
O1_2 O 0.8884(2) 0.1897(3) 0.5312(6)
O2_2 O 0.9021(2) 0.1523(3) 0.3801(7)
O3_2 O 0.8970(3) 0.2074(4) 0.3135(8)
S1_2 S 0.90759(6) 0.18900(8) 0.42059(19)
C24_2 C 0.9597(6) 0.2217(9) 0.447(2)
F1_2 F 0.9677(4) 0.2036(6) 0.5379(12)
F2_2 F 0.9767(4) 0.2319(7) 0.3238(17)
F3_2 F 0.9654(4) 0.2562(6) 0.4826(15)
O1_3 O 0.8103(3) 0.6987(2) 0.5312(6)
O2_3 O 0.8477(3) 0.7498(2) 0.3801(7)
O3_3 O 0.7926(4) 0.6896(3) 0.3135(8)
S1_3 S 0.81100(8) 0.71859(6) 0.42059(19)
C24_3 C 0.7783(9) 0.7380(7) 0.447(2)
F1_3 F 0.7964(6) 0.7641(4) 0.5379(12)
F2_3 F 0.7681(7) 0.7448(6) 0.3238(17)
F3_3 F 0.7438(6) 0.7092(5) 0.4826(15)
O1_4 O 0.9680(2) 0.4449(2) 0.8645(6)
O2_4 O 0.9169(2) 0.4312(2) 0.7134(7)
O3_4 O 0.9771(3) 0.4363(3) 0.6468(8)
S1_4 S 0.94808(6) 0.42574(6) 0.75392(19)
C24_4 C 0.9287(7) 0.3736(6) 0.780(2)
F1_4 F 0.9026(4) 0.3656(4) 0.8712(12)
F2_4 F 0.9219(6) 0.3566(4) 0.6571(17)
F3_4 F 0.9575(5) 0.3679(4) 0.8159(15)
O1_5 O 0.5551(2) 0.5230(3) 0.8645(6)
O2_5 O 0.5688(2) 0.4856(3) 0.7134(7)
O3_5 O 0.5637(3) 0.5407(4) 0.6468(8)
S1_5 S 0.57426(6) 0.52233(8) 0.75392(19)
C24_5 C 0.6264(6) 0.5550(9) 0.780(2)
F1_5 F 0.6344(4) 0.5369(6) 0.8712(12)
F2_5 F 0.6434(4) 0.5652(7) 0.6571(17)
F3_5 F 0.6321(4) 0.5895(6) 0.8159(15)
O1_6 O 0.4770(3) 0.0320(2) 0.8645(6)
O2_6 O 0.5144(3) 0.0831(2) 0.7134(7)
O3_6 O 0.4593(4) 0.0229(3) 0.6468(8)
S1_6 S 0.47767(8) 0.05192(6) 0.75392(19)
C24_6 C 0.4450(9) 0.0713(7) 0.780(2)
F1_6 F 0.4631(6) 0.0974(4) 0.8712(12)
F2_6 F 0.4348(7) 0.0781(6) 0.6571(17)
F3_6 F 0.4105(6) 0.0425(5) 0.8159(15)
O1_7 O 0.6346(2) 0.7783(2) 0.1979(6)
O2_7 O 0.5835(2) 0.7646(2) 0.0468(7)
S1_7 S 0.61474(6) 0.75908(6) 0.08726(19)
C24_7 C 0.5953(7) 0.7070(6) 0.114(2)
F1_7 F 0.5692(4) 0.6990(4) 0.2046(12)
F3_7 F 0.6241(5) 0.7013(4) 0.1493(15)
O3_7 O 0.6437(3) 0.7697(3) 0.9802(8)
F2_7 F 0.5885(6) 0.6900(4) 0.9905(17)
O1_8 O 0.2217(2) 0.8564(3) 0.1979(6)
O2_8 O 0.2354(2) 0.8190(3) 0.0468(7)
S1_8 S 0.24092(6) 0.85567(8) 0.08726(19)
C24_8 C 0.2930(6) 0.8884(9) 0.114(2)
F1_8 F 0.3010(4) 0.8703(6) 0.2046(12)
F3_8 F 0.2987(4) 0.9229(6) 0.1493(15)
O3_8 O 0.2303(3) 0.8741(4) 0.9802(8)
F2_8 F 0.3100(4) 0.8986(7) 0.9905(17)
O1_9 O 0.1436(3) 0.3654(2) 0.1979(6)
O2_9 O 0.1810(3) 0.4165(2) 0.0468(7)
S1_9 S 0.14433(8) 0.38526(6) 0.08726(19)
C24_9 C 0.1116(9) 0.4047(7) 0.114(2)
F1_9 F 0.1297(6) 0.4308(4) 0.2046(12)
F3_9 F 0.0771(6) 0.3759(5) 0.1493(15)
O3_9 O 0.1259(4) 0.3563(3) 0.9802(8)
F2_9 F 0.1014(7) 0.4115(6) 0.9905(17)
O1_10 O 0.6987(2) 0.8884(2) 0.4688(6)
O2_10 O 0.7498(2) 0.9021(2) 0.6199(7)
O3_10 O 0.6896(3) 0.8970(3) 0.6865(8)
S1_10 S 0.71859(6) 0.90759(6) 0.57941(19)
C24_10 C 0.7380(7) 0.9597(6) 0.553(2)
F1_10 F 0.7641(4) 0.9677(4) 0.4621(12)
F2_10 F 0.7448(6) 0.9767(4) 0.6762(17)
F3_10 F 0.7092(5) 0.9654(4) 0.5174(15)
O1_11 O 0.1116(2) 0.8103(3) 0.4688(6)
O2_11 O 0.0979(2) 0.8477(3) 0.6199(7)
O3_11 O 0.1030(3) 0.7926(4) 0.6865(8)
S1_11 S 0.09241(6) 0.81100(8) 0.57941(19)
C24_11 C 0.0403(6) 0.7783(9) 0.553(2)
F1_11 F 0.0323(4) 0.7964(6) 0.4621(12)
F2_11 F 0.0233(4) 0.7681(7) 0.6762(17)
F3_11 F 0.0346(4) 0.7438(6) 0.5174(15)
O1_12 O 0.1897(3) 0.3013(2) 0.4688(6)
O2_12 O 0.1523(3) 0.2502(2) 0.6199(7)
O3_12 O 0.2074(4) 0.3104(3) 0.6865(8)
S1_12 S 0.18900(8) 0.28141(6) 0.57941(19)
C24_12 C 0.2217(9) 0.2620(7) 0.553(2)
F1_12 F 0.2036(6) 0.2359(4) 0.4621(12)
F2_12 F 0.2319(7) 0.2552(6) 0.6762(17)
F3_12 F 0.2562(6) 0.2908(5) 0.5174(15)
O1_13 O 0.0320(2) 0.5551(2) 0.1355(6)
O2_13 O 0.0831(2) 0.5688(2) 0.2866(7)
O3_13 O 0.0229(3) 0.5637(3) 0.3532(8)
S1_13 S 0.05192(6) 0.57426(6) 0.24608(19)
C24_13 C 0.0713(7) 0.6264(6) 0.220(2)
F1_13 F 0.0974(4) 0.6344(4) 0.1288(12)
F2_13 F 0.0781(6) 0.6434(4) 0.3429(17)
F3_13 F 0.0425(5) 0.6321(4) 0.1841(15)
O1_14 O 0.4449(2) 0.4770(3) 0.1355(6)
O2_14 O 0.4312(2) 0.5144(3) 0.2866(7)
O3_14 O 0.4363(3) 0.4593(4) 0.3532(8)
S1_14 S 0.42574(6) 0.47767(8) 0.24608(19)
C24_14 C 0.3736(6) 0.4450(9) 0.220(2)
F1_14 F 0.3656(4) 0.4631(6) 0.1288(12)
F2_14 F 0.3566(4) 0.4348(7) 0.3429(17)
F3_14 F 0.3679(4) 0.4105(6) 0.1841(15)
O1_15 O 0.5230(3) 0.9680(2) 0.1355(6)
O2_15 O 0.4856(3) 0.9169(2) 0.2866(7)
O3_15 O 0.5407(4) 0.9771(3) 0.3532(8)
S1_15 S 0.52233(8) 0.94808(6) 0.24608(19)
C24_15 C 0.5550(9) 0.9287(7) 0.220(2)
F1_15 F 0.5369(6) 0.9026(4) 0.1288(12)
F2_15 F 0.5652(7) 0.9219(6) 0.3429(17)
F3_15 F 0.5895(6) 0.9575(5) 0.1841(15)
O3_16 O 0.3563(3) 0.2303(3) 0.0198(8)
F2_16 F 0.4115(6) 0.3100(4) 0.0095(17)
O1_16 O 0.3654(2) 0.2217(2) 0.8021(6)
O2_16 O 0.4165(2) 0.2354(2) 0.9532(7)
S1_16 S 0.38526(6) 0.24092(6) 0.91274(19)
C24_16 C 0.4047(7) 0.2930(6) 0.886(2)
F1_16 F 0.4308(4) 0.3010(4) 0.7954(12)
F3_16 F 0.3759(5) 0.2987(4) 0.8507(15)
O3_17 O 0.7697(3) 0.1259(4) 0.0198(8)
F2_17 F 0.6900(4) 0.1014(7) 0.0095(17)
O1_17 O 0.7783(2) 0.1436(3) 0.8021(6)
O2_17 O 0.7646(2) 0.1810(3) 0.9532(7)
S1_17 S 0.75908(6) 0.14433(8) 0.91274(19)
C24_17 C 0.7070(6) 0.1116(9) 0.886(2)
F1_17 F 0.6990(4) 0.1297(6) 0.7954(12)
F3_17 F 0.7013(4) 0.0771(6) 0.8507(15)
O3_18 O 0.8741(4) 0.6437(3) 0.0198(8)
F2_18 F 0.8986(7) 0.5885(6) 0.0095(17)
O1_18 O 0.8564(3) 0.6346(2) 0.8021(6)
O2_18 O 0.8190(3) 0.5835(2) 0.9532(7)
S1_18 S 0.85567(8) 0.61474(6) 0.91274(19)
C24_18 C 0.8884(9) 0.5953(7) 0.886(2)
F1_18 F 0.8703(6) 0.5692(4) 0.7954(12)
F3_18 F 0.9229(6) 0.6241(5) 0.8507(15)
loop_
_geom_bond_atom_site_label_1
_geom_bond_atom_site_label_2
_geom_bond_site_symmetry_1
_geom_bond_site_symmetry_2
Ag1 N1 1_555 1_555
N1 C1 1_555 1_555
N2 C6 1_555 1_555
N3 C10 1_555 1_555
C1 H1 1_555 1_555
C2 C1 1_555 1_555
H2 C2 1_555 1_555
C3 C2 1_555 1_555
C4 C3 1_555 1_555
H3 C4 1_555 1_555
C5 N1 1_555 1_555
H4 C5 1_555 1_555
C6 C3 1_555 1_555
H5 C6 1_555 1_555
H6 C6 1_555 1_555
C7 N2 1_555 1_555
H7 C7 1_555 1_555
H8 C7 1_555 1_555
C8 C7 1_555 1_555
C9 C8 1_555 1_555
H9 C9 1_555 1_555
C10 C9 1_555 1_555
H10 C10 1_555 1_555
C11 N3 1_555 1_555
H11 C11 1_555 1_555
C12 C8 1_555 1_555
H12 C12 1_555 1_555
C13 N2 1_555 1_555
H13 C13 1_555 1_555
H14 C13 1_555 1_555
C14 C13 1_555 1_555
C15 C14 1_555 1_555
H15 C15 1_555 1_555
C16 C15 1_555 1_555
C17 C16 1_555 1_555
H16 C17 1_555 1_555
C21 C16 1_555 1_555
C22 C21 1_555 1_555
C23 C14 1_555 1_555
H21 C23 1_555 1_555
Ag3 Ag1 1_555 1_555
N4 Ag1 1_555 1_555
C4 C5 1_555 1_555
C11 C12 1_555 1_555
C22 C23 1_555 1_555
Ag1_2 N1_2 1_555 1_555
N1_2 C1_2 1_555 1_555
N2_2 C6_2 1_555 1_555
N3_2 C10_2 1_555 1_555
C1_2 H1_2 1_555 1_555
C2_2 C1_2 1_555 1_555
H2_2 C2_2 1_555 1_555
C3_2 C2_2 1_555 1_555
C4_2 C3_2 1_555 1_555
H3_2 C4_2 1_555 1_555
C5_2 N1_2 1_555 1_555
H4_2 C5_2 1_555 1_555
C6_2 C3_2 1_555 1_555
H5_2 C6_2 1_555 1_555
H6_2 C6_2 1_555 1_555
C7_2 N2_2 1_555 1_555
H7_2 C7_2 1_555 1_555
H8_2 C7_2 1_555 1_555
C8_2 C7_2 1_555 1_555
C9_2 C8_2 1_555 1_555
H9_2 C9_2 1_555 1_555
C10_2 C9_2 1_555 1_555
H10_2 C10_2 1_555 1_555
C11_2 N3_2 1_555 1_555
H11_2 C11_2 1_555 1_555
C12_2 C8_2 1_555 1_555
H12_2 C12_2 1_555 1_555
C13_2 N2_2 1_555 1_555
H13_2 C13_2 1_555 1_555
H14_2 C13_2 1_555 1_555
C14_2 C13_2 1_555 1_555
C15_2 C14_2 1_555 1_555
H15_2 C15_2 1_555 1_555
C16_2 C15_2 1_555 1_555
C17_2 C16_2 1_555 1_555
H16_2 C17_2 1_555 1_555
C21_2 C16_2 1_555 1_555
C22_2 C21_2 1_555 1_555
C23_2 C14_2 1_555 1_555
H21_2 C23_2 1_555 1_555
Ag2 N3_2 1_555 1_555
Ag3_2 Ag1_2 1_555 1_555
N4_2 Ag1_2 1_555 1_555
C4_2 C5_2 1_555 1_555
C11_2 C12_2 1_555 1_555
C22_2 C23_2 1_555 1_555
C1_3 H1_3 1_555 1_555
N4_2 C10_3 1_555 1_555
H10_3 C10_3 1_555 1_555
C11_3 N4_2 1_555 1_555
H11_3 C11_3 1_555 1_555
H12_3 C12_3 1_555 1_555
H13_3 C13_3 1_555 1_555
H14_3 C13_3 1_555 1_555
C14_3 C13_3 1_555 1_555
C15_3 C14_3 1_555 1_555
H15_3 C15_3 1_555 1_555
C16_3 C15_3 1_555 1_555
C17_3 C16_3 1_555 1_555
H16_3 C17_3 1_555 1_555
C20 C19 1_555 1_555
H19 C20 1_555 1_555
C21_3 C16_3 1_555 1_555
C22_3 C21_3 1_555 1_555
H20 C22_3 1_555 1_555
C23_3 C14_3 1_555 1_555
H21_3 C23_3 1_555 1_555
C11_3 C12_3 1_555 1_555
C20 C21_3 1_555 1_555
C22_3 C23_3 1_555 1_555
N4 C10_4 1_555 1_555
H10_4 C10_4 1_555 1_555
C11_4 N4 1_555 1_555
H11_4 C11_4 1_555 1_555
H12_4 C12_4 1_555 1_555
H13_4 C13_4 1_555 1_555
H14_4 C13_4 1_555 1_555
C11_4 C12_4 1_555 1_555
N2_3 C6_3 1_555 1_555
N3_3 C10_5 1_555 1_555
H2_3 C2_3 1_555 1_555
C3_3 C2_3 1_555 1_555
C4_3 C3_3 1_555 1_555
H3_3 C4_3 1_555 1_555
C5_3 N1_3 1_555 1_555
H4_3 C5_3 1_555 1_555
C6_3 C3_3 1_555 1_555
H5_3 C6_3 1_555 1_555
H6_3 C6_3 1_555 1_555
C7_3 N2_3 1_555 1_555
H7_3 C7_3 1_555 1_555
H8_3 C7_3 1_555 1_555
C8_3 C7_3 1_555 1_555
C9_3 C8_3 1_555 1_555
H9_3 C9_3 1_555 1_555
C10_5 C9_3 1_555 1_555
H10_5 C10_5 1_555 1_555
C11_5 N3_3 1_555 1_555
H11_5 C11_5 1_555 1_555
C12_5 C8_3 1_555 1_555
H12_5 C12_5 1_555 1_555
C13_5 N2_3 1_555 1_555
H13_5 C13_5 1_555 1_555
H14_5 C13_5 1_555 1_555
C14_4 C13_5 1_555 1_555
C15_4 C14_4 1_555 1_555
H15_4 C15_4 1_555 1_555
C16_4 C15_4 1_555 1_555
C17_4 C16_4 1_555 1_555
H16_4 C17_4 1_555 1_555
C18 C17_4 1_555 1_555
H17 C18 1_555 1_555
C19_2 C18 1_555 1_555
H18 C19_2 1_555 1_555
C20_2 C19_2 1_555 1_555
H19_2 C20_2 1_555 1_555
C21_4 C16_4 1_555 1_555
C22_4 C21_4 1_555 1_555
H20_2 C22_4 1_555 1_555
C23_4 C14_4 1_555 1_555
H21_4 C23_4 1_555 1_555
Ag3_2 N3_3 1_555 1_555
C4_3 C5_3 1_555 1_555
C11_5 C12_5 1_555 1_555
C20_2 C21_4 1_555 1_555
C22_4 C23_4 1_555 1_555
N2_4 C6_4 1_555 1_555
N3_4 C10_6 1_555 1_555
H2_4 C2_4 1_555 1_555
C3_4 C2_4 1_555 1_555
C4_4 C3_4 1_555 1_555
H3_4 C4_4 1_555 1_555
C5_4 N1_4 1_555 1_555
H4_4 C5_4 1_555 1_555
C6_4 C3_4 1_555 1_555
H5_4 C6_4 1_555 1_555
H6_4 C6_4 1_555 1_555
C7_4 N2_4 1_555 1_555
H7_4 C7_4 1_555 1_555
H8_4 C7_4 1_555 1_555
C8_4 C7_4 1_555 1_555
C9_4 C8_4 1_555 1_555
H9_4 C9_4 1_555 1_555
C10_6 C9_4 1_555 1_555
H10_6 C10_6 1_555 1_555
C11_6 N3_4 1_555 1_555
H11_6 C11_6 1_555 1_555
C12_6 C8_4 1_555 1_555
H12_6 C12_6 1_555 1_555
C13_6 N2_4 1_555 1_555
H13_6 C13_6 1_555 1_555
H14_6 C13_6 1_555 1_555
C14_5 C13_6 1_555 1_555
C15_5 C14_5 1_555 1_555
H15_5 C15_5 1_555 1_555
C16_5 C15_5 1_555 1_555
C17_5 C16_5 1_555 1_555
H16_5 C17_5 1_555 1_555
C18_2 C17_5 1_555 1_555
H17_2 C18_2 1_555 1_555
C19_3 C18_2 1_555 1_555
H18_2 C19_3 1_555 1_555
C20_3 C19_3 1_555 1_555
H19_3 C20_3 1_555 1_555
C21_5 C16_5 1_555 1_555
C22_5 C21_5 1_555 1_555
H20_3 C22_5 1_555 1_555
C23_5 C14_5 1_555 1_555
H21_5 C23_5 1_555 1_555
Ag3 N3_4 1_555 1_555
C4_4 C5_4 1_555 1_555
C11_6 C12_6 1_555 1_555
C20_3 C21_5 1_555 1_555
C22_5 C23_5 1_555 1_555
Ag3 N1_5 1_555 1_555
N1_5 C1_4 1_555 1_555
N2_5 C6_5 1_555 1_555
C1_4 H1_4 1_555 1_555
C2_5 C1_4 1_555 1_555
H2_5 C2_5 1_555 1_555
C3_5 C2_5 1_555 1_555
C4_5 C3_5 1_555 1_555
H3_5 C4_5 1_555 1_555
C5_5 N1_5 1_555 1_555
H4_5 C5_5 1_555 1_555
C6_5 C3_5 1_555 1_555
H5_5 C6_5 1_555 1_555
H6_5 C6_5 1_555 1_555
C7_5 N2_5 1_555 1_555
H7_5 C7_5 1_555 1_555
H8_5 C7_5 1_555 1_555
C8_5 C7_5 1_555 1_555
C9_5 C8_5 1_555 1_555
H9_5 C9_5 1_555 1_555
C4_5 C5_5 1_555 1_555
Ag3_2 N1_6 1_555 1_555
N1_6 C1_5 1_555 1_555
C1_5 H1_5 1_555 1_555
C2_6 C1_5 1_555 1_555
H2_6 C2_6 1_555 1_555
C3_6 C2_6 1_555 1_555
C4_6 C3_6 1_555 1_555
H3_6 C4_6 1_555 1_555
C5_6 N1_6 1_555 1_555
H4_6 C5_6 1_555 1_555
C6_6 C3_6 1_555 1_555
H5_6 C6_6 1_555 1_555
H6_6 C6_6 1_555 1_555
C4_6 C5_6 1_555 1_555
H17_3 C18_3 1_555 1_555
C19_4 C18_3 1_555 1_555
H18_3 C19_4 1_555 1_555
C20_4 C19_4 1_555 1_555
H19_4 C20_4 1_555 1_555
C1_6 H1_6 1_555 1_555
C1_7 H1_7 1_555 1_555
Ag1_3 N1_7 1_555 1_555
N1_7 C1_8 1_555 1_555
N2_6 C6_7 1_555 1_555
N3_5 C10_7 1_555 1_555
C1_8 H1_8 1_555 1_555
C2_7 C1_8 1_555 1_555
H2_7 C2_7 1_555 1_555
C3_7 C2_7 1_555 1_555
C4_7 C3_7 1_555 1_555
H3_7 C4_7 1_555 1_555
C5_7 N1_7 1_555 1_555
H4_7 C5_7 1_555 1_555
C6_7 C3_7 1_555 1_555
H5_7 C6_7 1_555 1_555
H6_7 C6_7 1_555 1_555
C7_6 N2_6 1_555 1_555
H7_6 C7_6 1_555 1_555
H8_6 C7_6 1_555 1_555
C8_6 C7_6 1_555 1_555
C9_6 C8_6 1_555 1_555
H9_6 C9_6 1_555 1_555
C10_7 C9_6 1_555 1_555
H10_7 C10_7 1_555 1_555
C11_7 N3_5 1_555 1_555
H11_7 C11_7 1_555 1_555
C12_7 C8_6 1_555 1_555
H12_7 C12_7 1_555 1_555
C13_7 N2_6 1_555 1_555
H13_7 C13_7 1_555 1_555
H14_7 C13_7 1_555 1_555
C14_6 C13_7 1_555 1_555
C15_6 C14_6 1_555 1_555
H15_6 C15_6 1_555 1_555
C16_6 C15_6 1_555 1_555
C17_6 C16_6 1_555 1_555
H16_6 C17_6 1_555 1_555
C21_6 C16_6 1_555 1_555
C22_6 C21_6 1_555 1_555
C23_6 C14_6 1_555 1_555
H21_6 C23_6 1_555 1_555
Ag3_3 Ag1_3 1_555 1_555
N4_3 Ag1_3 1_555 1_555
C4_7 C5_7 1_555 1_555
C11_7 C12_7 1_555 1_555
C22_6 C23_6 1_555 1_555
N4_3 C10_8 1_555 1_555
H10_8 C10_8 1_555 1_555
C11_8 N4_3 1_555 1_555
H11_8 C11_8 1_555 1_555
H12_8 C12_8 1_555 1_555
H13_8 C13_8 1_555 1_555
H14_8 C13_8 1_555 1_555
C11_8 C12_8 1_555 1_555
N2_7 C6_8 1_555 1_555
N3_6 C10_9 1_555 1_555
H2_8 C2_8 1_555 1_555
C3_8 C2_8 1_555 1_555
C4_8 C3_8 1_555 1_555
H3_8 C4_8 1_555 1_555
C5_8 N1_8 1_555 1_555
H4_8 C5_8 1_555 1_555
C6_8 C3_8 1_555 1_555
H5_8 C6_8 1_555 1_555
H6_8 C6_8 1_555 1_555
C7_7 N2_7 1_555 1_555
H7_7 C7_7 1_555 1_555
H8_7 C7_7 1_555 1_555
C8_7 C7_7 1_555 1_555
C9_7 C8_7 1_555 1_555
H9_7 C9_7 1_555 1_555
C10_9 C9_7 1_555 1_555
H10_9 C10_9 1_555 1_555
C11_9 N3_6 1_555 1_555
H11_9 C11_9 1_555 1_555
C12_9 C8_7 1_555 1_555
H12_9 C12_9 1_555 1_555
C13_9 N2_7 1_555 1_555
H13_9 C13_9 1_555 1_555
H14_9 C13_9 1_555 1_555
C14_7 C13_9 1_555 1_555
C15_7 C14_7 1_555 1_555
H15_7 C15_7 1_555 1_555
C16_7 C15_7 1_555 1_555
C17_7 C16_7 1_555 1_555
H16_7 C17_7 1_555 1_555
C18_4 C17_7 1_555 1_555
H17_4 C18_4 1_555 1_555
C19_5 C18_4 1_555 1_555
H18_4 C19_5 1_555 1_555
C20_5 C19_5 1_555 1_555
H19_5 C20_5 1_555 1_555
C21_7 C16_7 1_555 1_555
C22_7 C21_7 1_555 1_555
H20_5 C22_7 1_555 1_555
C23_7 C14_7 1_555 1_555
H21_7 C23_7 1_555 1_555
Ag3_3 N3_6 1_555 1_555
C4_8 C5_8 1_555 1_555
C11_9 C12_9 1_555 1_555
C20_5 C21_7 1_555 1_555
C22_7 C23_7 1_555 1_555
Ag3_3 N1_9 1_555 1_555
N1_9 C1_9 1_555 1_555
C1_9 H1_9 1_555 1_555
C2_9 C1_9 1_555 1_555
H2_9 C2_9 1_555 1_555
C3_9 C2_9 1_555 1_555
C4_9 C3_9 1_555 1_555
H3_9 C4_9 1_555 1_555
C5_9 N1_9 1_555 1_555
H4_9 C5_9 1_555 1_555
C6_9 C3_9 1_555 1_555
H5_9 C6_9 1_555 1_555
H6_9 C6_9 1_555 1_555
C4_9 C5_9 1_555 1_555
H17_5 C18_5 1_555 1_555
C19_6 C18_5 1_555 1_555
H18_5 C19_6 1_555 1_555
C20_6 C19_6 1_555 1_555
H19_6 C20_6 1_555 1_555
H17_6 C18_6 1_555 1_555
C19_7 C18_6 1_555 1_555
H18_6 C19_7 1_555 1_555
C20_7 C19_7 1_555 1_555
H19_7 C20_7 1_555 1_555
N2_8 C6_10 1_555 1_555
N3_7 C10_10 1_555 1_555
H2_10 C2_10 1_555 1_555
C3_10 C2_10 1_555 1_555
C4_10 C3_10 1_555 1_555
H3_10 C4_10 1_555 1_555
C5_10 N1_10 1_555 1_555
H4_10 C5_10 1_555 1_555
C6_10 C3_10 1_555 1_555
H5_10 C6_10 1_555 1_555
H6_10 C6_10 1_555 1_555
C7_8 N2_8 1_555 1_555
H7_8 C7_8 1_555 1_555
H8_8 C7_8 1_555 1_555
C8_8 C7_8 1_555 1_555
C9_8 C8_8 1_555 1_555
H9_8 C9_8 1_555 1_555
C10_10 C9_8 1_555 1_555
H10_10 C10_10 1_555 1_555
C11_10 N3_7 1_555 1_555
H11_10 C11_10 1_555 1_555
C12_10 C8_8 1_555 1_555
H12_10 C12_10 1_555 1_555
C13_10 N2_8 1_555 1_555
H13_10 C13_10 1_555 1_555
H14_10 C13_10 1_555 1_555
C14_8 C13_10 1_555 1_555
C15_8 C14_8 1_555 1_555
H15_8 C15_8 1_555 1_555
C16_8 C15_8 1_555 1_555
C17_8 C16_8 1_555 1_555
H16_8 C17_8 1_555 1_555
C18_7 C17_8 1_555 1_555
H17_7 C18_7 1_555 1_555
C19_8 C18_7 1_555 1_555
H18_7 C19_8 1_555 1_555
C20_8 C19_8 1_555 1_555
H19_8 C20_8 1_555 1_555
C21_8 C16_8 1_555 1_555
C22_8 C21_8 1_555 1_555
H20_8 C22_8 1_555 1_555
C23_8 C14_8 1_555 1_555
H21_8 C23_8 1_555 1_555
Ag2_4 N3_7 1_555 1_555
C4_10 C5_10 1_555 1_555
C11_10 C12_10 1_555 1_555
C20_8 C21_8 1_555 1_555
C22_8 C23_8 1_555 1_555
N2_9 C6_11 1_555 1_555
N3_8 C10_11 1_555 1_555
H2_11 C2_11 1_555 1_555
C3_11 C2_11 1_555 1_555
C4_11 C3_11 1_555 1_555
H3_11 C4_11 1_555 1_555
C5_11 N1_11 1_555 1_555
H4_11 C5_11 1_555 1_555
C6_11 C3_11 1_555 1_555
H5_11 C6_11 1_555 1_555
H6_11 C6_11 1_555 1_555
C7_9 N2_9 1_555 1_555
H7_9 C7_9 1_555 1_555
H8_9 C7_9 1_555 1_555
C8_9 C7_9 1_555 1_555
C9_9 C8_9 1_555 1_555
H9_9 C9_9 1_555 1_555
C10_11 C9_9 1_555 1_555
H10_11 C10_11 1_555 1_555
C11_11 N3_8 1_555 1_555
H11_11 C11_11 1_555 1_555
C12_11 C8_9 1_555 1_555
H12_11 C12_11 1_555 1_555
C13_11 N2_9 1_555 1_555
H13_11 C13_11 1_555 1_555
H14_11 C13_11 1_555 1_555
C14_9 C13_11 1_555 1_555
C15_9 C14_9 1_555 1_555
H15_9 C15_9 1_555 1_555
C16_9 C15_9 1_555 1_555
C17_9 C16_9 1_555 1_555
H16_9 C17_9 1_555 1_555
C18_8 C17_9 1_555 1_555
H17_8 C18_8 1_555 1_555
C19_9 C18_8 1_555 1_555
H18_8 C19_9 1_555 1_555
C20_9 C19_9 1_555 1_555
H19_9 C20_9 1_555 1_555
C21_9 C16_9 1_555 1_555
C22_9 C21_9 1_555 1_555
H20_9 C22_9 1_555 1_555
C23_9 C14_9 1_555 1_555
H21_9 C23_9 1_555 1_555
Ag2_5 N3_8 1_555 1_555
C4_11 C5_11 1_555 1_555
C11_11 C12_11 1_555 1_555
C20_9 C21_9 1_555 1_555
C22_9 C23_9 1_555 1_555
Ag2_5 N1_12 1_555 1_555
N1_12 C1_10 1_555 1_555
N2_10 C6_12 1_555 1_555
C1_10 H1_10 1_555 1_555
C2_12 C1_10 1_555 1_555
H2_12 C2_12 1_555 1_555
C3_12 C2_12 1_555 1_555
C4_12 C3_12 1_555 1_555
H3_12 C4_12 1_555 1_555
C5_12 N1_12 1_555 1_555
H4_12 C5_12 1_555 1_555
C6_12 C3_12 1_555 1_555
H5_12 C6_12 1_555 1_555
H6_12 C6_12 1_555 1_555
C7_10 N2_10 1_555 1_555
H7_10 C7_10 1_555 1_555
H8_10 C7_10 1_555 1_555
C8_10 C7_10 1_555 1_555
C9_10 C8_10 1_555 1_555
H9_10 C9_10 1_555 1_555
Ag3_5 Ag2_5 1_555 1_555
C4_12 C5_12 1_555 1_555
Ag2_4 N1_13 1_555 1_555
N1_13 C1_11 1_555 1_555
C1_11 H1_11 1_555 1_555
C2_13 C1_11 1_555 1_555
H2_13 C2_13 1_555 1_555
C3_13 C2_13 1_555 1_555
C4_13 C3_13 1_555 1_555
H3_13 C4_13 1_555 1_555
C5_13 N1_13 1_555 1_555
H4_13 C5_13 1_555 1_555
C6_13 C3_13 1_555 1_555
H5_13 C6_13 1_555 1_555
H6_13 C6_13 1_555 1_555
Ag3_6 Ag2_4 1_555 1_555
C4_13 C5_13 1_555 1_555
Ag3_5 N1_14 1_555 1_555
N1_14 C1_12 1_555 1_555
N2_11 C6_14 1_555 1_555
N3_9 C10_12 1_555 1_555
C1_12 H1_12 1_555 1_555
C2_14 C1_12 1_555 1_555
H2_14 C2_14 1_555 1_555
C3_14 C2_14 1_555 1_555
C4_14 C3_14 1_555 1_555
H3_14 C4_14 1_555 1_555
C5_14 N1_14 1_555 1_555
H4_14 C5_14 1_555 1_555
C6_14 C3_14 1_555 1_555
H5_14 C6_14 1_555 1_555
H6_14 C6_14 1_555 1_555
C7_11 N2_11 1_555 1_555
H7_11 C7_11 1_555 1_555
H8_11 C7_11 1_555 1_555
C8_11 C7_11 1_555 1_555
C9_11 C8_11 1_555 1_555
H9_11 C9_11 1_555 1_555
C10_12 C9_11 1_555 1_555
H10_12 C10_12 1_555 1_555
C11_12 N3_9 1_555 1_555
H11_12 C11_12 1_555 1_555
C12_12 C8_11 1_555 1_555
H12_12 C12_12 1_555 1_555
C13_12 N2_11 1_555 1_555
H13_12 C13_12 1_555 1_555
H14_12 C13_12 1_555 1_555
C14_10 C13_12 1_555 1_555
C15_10 C14_10 1_555 1_555
H15_10 C15_10 1_555 1_555
C16_10 C15_10 1_555 1_555
C17_10 C16_10 1_555 1_555
H16_10 C17_10 1_555 1_555
C21_10 C16_10 1_555 1_555
C22_10 C21_10 1_555 1_555
C23_10 C14_10 1_555 1_555
H21_10 C23_10 1_555 1_555
N4_4 Ag3_5 1_555 1_555
C4_14 C5_14 1_555 1_555
C11_12 C12_12 1_555 1_555
C22_10 C23_10 1_555 1_555
Ag3_6 N1_15 1_555 1_555
N1_15 C1_13 1_555 1_555
N2_12 C6_15 1_555 1_555
N3_10 C10_13 1_555 1_555
C1_13 H1_13 1_555 1_555
C2_15 C1_13 1_555 1_555
H2_15 C2_15 1_555 1_555
C3_15 C2_15 1_555 1_555
C4_15 C3_15 1_555 1_555
H3_15 C4_15 1_555 1_555
C5_15 N1_15 1_555 1_555
H4_15 C5_15 1_555 1_555
C6_15 C3_15 1_555 1_555
H5_15 C6_15 1_555 1_555
H6_15 C6_15 1_555 1_555
C7_12 N2_12 1_555 1_555
H7_12 C7_12 1_555 1_555
H8_12 C7_12 1_555 1_555
C8_12 C7_12 1_555 1_555
C9_12 C8_12 1_555 1_555
H9_12 C9_12 1_555 1_555
C10_13 C9_12 1_555 1_555
H10_13 C10_13 1_555 1_555
C11_13 N3_10 1_555 1_555
H11_13 C11_13 1_555 1_555
C12_13 C8_12 1_555 1_555
H12_13 C12_13 1_555 1_555
C13_13 N2_12 1_555 1_555
H13_13 C13_13 1_555 1_555
H14_13 C13_13 1_555 1_555
C14_11 C13_13 1_555 1_555
C15_11 C14_11 1_555 1_555
H15_11 C15_11 1_555 1_555
C16_11 C15_11 1_555 1_555
C17_11 C16_11 1_555 1_555
H16_11 C17_11 1_555 1_555
C21_11 C16_11 1_555 1_555
C22_11 C21_11 1_555 1_555
C23_11 C14_11 1_555 1_555
H21_11 C23_11 1_555 1_555
Ag3_4 N3_10 1_555 1_555
N4_5 Ag3_6 1_555 1_555
C4_15 C5_15 1_555 1_555
C11_13 C12_13 1_555 1_555
C22_11 C23_11 1_555 1_555
C1_14 H1_14 1_555 1_555
N4_5 C10_14 1_555 1_555
H10_14 C10_14 1_555 1_555
C11_14 N4_5 1_555 1_555
H11_14 C11_14 1_555 1_555
H12_14 C12_14 1_555 1_555
H13_14 C13_14 1_555 1_555
H14_14 C13_14 1_555 1_555
C14_12 C13_14 1_555 1_555
C15_12 C14_12 1_555 1_555
H15_12 C15_12 1_555 1_555
C16_12 C15_12 1_555 1_555
C17_12 C16_12 1_555 1_555
H16_12 C17_12 1_555 1_555
C20_10 C19_10 1_555 1_555
H19_10 C20_10 1_555 1_555
C21_12 C16_12 1_555 1_555
C22_12 C21_12 1_555 1_555
H20_10 C22_12 1_555 1_555
C23_12 C14_12 1_555 1_555
H21_12 C23_12 1_555 1_555
C11_14 C12_14 1_555 1_555
C20_10 C21_12 1_555 1_555
C22_12 C23_12 1_555 1_555
N4_4 C10_15 1_555 1_555
H10_15 C10_15 1_555 1_555
C11_15 N4_4 1_555 1_555
H11_15 C11_15 1_555 1_555
H12_15 C12_15 1_555 1_555
H13_15 C13_15 1_555 1_555
H14_15 C13_15 1_555 1_555
C11_15 C12_15 1_555 1_555
C1_15 H1_15 1_555 1_555
C1_16 H1_16 1_555 1_555
N2_13 C6_16 1_555 1_555
N3_11 C10_16 1_555 1_555
H2_16 C2_16 1_555 1_555
C3_16 C2_16 1_555 1_555
C4_16 C3_16 1_555 1_555
H3_16 C4_16 1_555 1_555
C5_16 N1_16 1_555 1_555
H4_16 C5_16 1_555 1_555
C6_16 C3_16 1_555 1_555
H5_16 C6_16 1_555 1_555
H6_16 C6_16 1_555 1_555
C7_13 N2_13 1_555 1_555
H7_13 C7_13 1_555 1_555
H8_13 C7_13 1_555 1_555
C8_13 C7_13 1_555 1_555
C9_13 C8_13 1_555 1_555
H9_13 C9_13 1_555 1_555
C10_16 C9_13 1_555 1_555
H10_16 C10_16 1_555 1_555
C11_16 N3_11 1_555 1_555
H11_16 C11_16 1_555 1_555
C12_16 C8_13 1_555 1_555
H12_16 C12_16 1_555 1_555
C13_16 N2_13 1_555 1_555
H13_16 C13_16 1_555 1_555
H14_16 C13_16 1_555 1_555
C14_13 C13_16 1_555 1_555
C15_13 C14_13 1_555 1_555
H15_13 C15_13 1_555 1_555
C16_13 C15_13 1_555 1_555
C17_13 C16_13 1_555 1_555
H16_13 C17_13 1_555 1_555
C18_9 C17_13 1_555 1_555
H17_9 C18_9 1_555 1_555
C19_11 C18_9 1_555 1_555
H18_9 C19_11 1_555 1_555
C20_11 C19_11 1_555 1_555
H19_11 C20_11 1_555 1_555
C21_13 C16_13 1_555 1_555
C22_13 C21_13 1_555 1_555
H20_11 C22_13 1_555 1_555
C23_13 C14_13 1_555 1_555
H21_13 C23_13 1_555 1_555
Ag2_6 N3_11 1_555 1_555
C4_16 C5_16 1_555 1_555
C11_16 C12_16 1_555 1_555
C20_11 C21_13 1_555 1_555
C22_13 C23_13 1_555 1_555
Ag2_6 N1_17 1_555 1_555
N1_17 C1_17 1_555 1_555
C1_17 H1_17 1_555 1_555
C2_17 C1_17 1_555 1_555
H2_17 C2_17 1_555 1_555
C3_17 C2_17 1_555 1_555
C4_17 C3_17 1_555 1_555
H3_17 C4_17 1_555 1_555
C5_17 N1_17 1_555 1_555
H4_17 C5_17 1_555 1_555
C6_17 C3_17 1_555 1_555
H5_17 C6_17 1_555 1_555
H6_17 C6_17 1_555 1_555
Ag3_9 Ag2_6 1_555 1_555
C4_17 C5_17 1_555 1_555
Ag3_9 N1_18 1_555 1_555
N1_18 C1_18 1_555 1_555
N2_14 C6_18 1_555 1_555
N3_12 C10_17 1_555 1_555
C1_18 H1_18 1_555 1_555
C2_18 C1_18 1_555 1_555
H2_18 C2_18 1_555 1_555
C3_18 C2_18 1_555 1_555
C4_18 C3_18 1_555 1_555
H3_18 C4_18 1_555 1_555
C5_18 N1_18 1_555 1_555
H4_18 C5_18 1_555 1_555
C6_18 C3_18 1_555 1_555
H5_18 C6_18 1_555 1_555
H6_18 C6_18 1_555 1_555
C7_14 N2_14 1_555 1_555
H7_14 C7_14 1_555 1_555
H8_14 C7_14 1_555 1_555
C8_14 C7_14 1_555 1_555
C9_14 C8_14 1_555 1_555
H9_14 C9_14 1_555 1_555
C10_17 C9_14 1_555 1_555
H10_17 C10_17 1_555 1_555
C11_17 N3_12 1_555 1_555
H11_17 C11_17 1_555 1_555
C12_17 C8_14 1_555 1_555
H12_17 C12_17 1_555 1_555
C13_17 N2_14 1_555 1_555
H13_17 C13_17 1_555 1_555
H14_17 C13_17 1_555 1_555
C14_14 C13_17 1_555 1_555
C15_14 C14_14 1_555 1_555
H15_14 C15_14 1_555 1_555
C16_14 C15_14 1_555 1_555
C17_14 C16_14 1_555 1_555
H16_14 C17_14 1_555 1_555
C21_14 C16_14 1_555 1_555
C22_14 C21_14 1_555 1_555
C23_14 C14_14 1_555 1_555
H21_14 C23_14 1_555 1_555
N4_6 Ag3_9 1_555 1_555
C4_18 C5_18 1_555 1_555
C11_17 C12_17 1_555 1_555
C22_14 C23_14 1_555 1_555
N4_6 C10_18 1_555 1_555
H10_18 C10_18 1_555 1_555
C11_18 N4_6 1_555 1_555
H11_18 C11_18 1_555 1_555
H12_18 C12_18 1_555 1_555
H13_18 C13_18 1_555 1_555
H14_18 C13_18 1_555 1_555
C11_18 C12_18 1_555 1_555
H17_10 C18_10 1_555 1_555
C7_15 N2_15 1_555 1_555
H7_15 C7_15 1_555 1_555
H8_15 C7_15 1_555 1_555
C8_15 C7_15 1_555 1_555
C9_15 C8_15 1_555 1_555
H9_15 C9_15 1_555 1_555
C15_15 C14_15 1_555 1_555
H15_15 C15_15 1_555 1_555
C16_15 C15_15 1_555 1_555
C17_15 C16_15 1_555 1_555
H16_15 C17_15 1_555 1_555
C20_12 C19_12 1_555 1_555
H19_12 C20_12 1_555 1_555
C21_15 C16_15 1_555 1_555
C22_15 C21_15 1_555 1_555
H20_12 C22_15 1_555 1_555
C23_15 C14_15 1_555 1_555
H21_15 C23_15 1_555 1_555
C20_12 C21_15 1_555 1_555
C22_15 C23_15 1_555 1_555
H17_11 C18_11 1_555 1_555
C15_16 C14_16 1_555 1_555
H15_16 C15_16 1_555 1_555
C16_16 C15_16 1_555 1_555
C17_16 C16_16 1_555 1_555
H16_16 C17_16 1_555 1_555
C18_12 C17_16 1_555 1_555
H17_12 C18_12 1_555 1_555
C19_13 C18_12 1_555 1_555
H18_12 C19_13 1_555 1_555
C20_13 C19_13 1_555 1_555
H19_13 C20_13 1_555 1_555
C21_16 C16_16 1_555 1_555
C22_16 C21_16 1_555 1_555
H20_13 C22_16 1_555 1_555
C23_16 C14_16 1_555 1_555
H21_16 C23_16 1_555 1_555
C20_13 C21_16 1_555 1_555
C22_16 C23_16 1_555 1_555
C7_16 N2_16 1_555 1_555
H7_16 C7_16 1_555 1_555
H8_16 C7_16 1_555 1_555
C8_16 C7_16 1_555 1_555
C9_16 C8_16 1_555 1_555
H9_16 C9_16 1_555 1_555
H17_13 C18_13 1_555 1_555
C19_14 C18_13 1_555 1_555
H18_13 C19_14 1_555 1_555
C20_14 C19_14 1_555 1_555
H19_14 C20_14 1_555 1_555
H17_14 C18_14 1_555 1_555
C19_15 C18_14 1_555 1_555
H18_14 C19_15 1_555 1_555
C20_15 C19_15 1_555 1_555
H19_15 C20_15 1_555 1_555
H17_15 C18_15 1_555 1_555
C19_16 C18_15 1_555 1_555
H18_15 C19_16 1_555 1_555
C20_16 C19_16 1_555 1_555
H19_16 C20_16 1_555 1_555
H17_16 C18_16 1_555 1_555
H17_17 C18_17 1_555 1_555
C15_17 C14_17 1_555 1_555
H15_17 C15_17 1_555 1_555
C16_17 C15_17 1_555 1_555
C17_17 C16_17 1_555 1_555
H16_17 C17_17 1_555 1_555
C20_17 C19_17 1_555 1_555
H19_17 C20_17 1_555 1_555
C21_17 C16_17 1_555 1_555
C22_17 C21_17 1_555 1_555
H20_17 C22_17 1_555 1_555
C23_17 C14_17 1_555 1_555
H21_17 C23_17 1_555 1_555
C20_17 C21_17 1_555 1_555
C22_17 C23_17 1_555 1_555
C7_17 N2_17 1_555 1_555
H7_17 C7_17 1_555 1_555
H8_17 C7_17 1_555 1_555
C8_17 C7_17 1_555 1_555
C9_17 C8_17 1_555 1_555
H9_17 C9_17 1_555 1_555
C7_18 N2_18 1_555 1_555
H7_18 C7_18 1_555 1_555
H8_18 C7_18 1_555 1_555
C8_18 C7_18 1_555 1_555
C9_18 C8_18 1_555 1_555
H9_18 C9_18 1_555 1_555
C15_18 C14_18 1_555 1_555
H15_18 C15_18 1_555 1_555
C16_18 C15_18 1_555 1_555
C17_18 C16_18 1_555 1_555
H16_18 C17_18 1_555 1_555
C18_18 C17_18 1_555 1_555
H17_18 C18_18 1_555 1_555
C19_18 C18_18 1_555 1_555
H18_18 C19_18 1_555 1_555
C20_18 C19_18 1_555 1_555
H19_18 C20_18 1_555 1_555
C21_18 C16_18 1_555 1_555
C22_18 C21_18 1_555 1_555
H20_18 C22_18 1_555 1_555
C23_18 C14_18 1_555 1_555
H21_18 C23_18 1_555 1_555
C20_18 C21_18 1_555 1_555
C22_18 C23_18 1_555 1_555
O1 S1 1_555 1_555
O2 S1 1_555 1_555
O3 S1 1_555 1_555
S1 C24 1_555 1_555
C24 F1 1_555 1_555
F2 C24 1_555 1_555
F3 C24 1_555 1_555
O1_2 S1_2 1_555 1_555
O2_2 S1_2 1_555 1_555
O3_2 S1_2 1_555 1_555
S1_2 C24_2 1_555 1_555
C24_2 F1_2 1_555 1_555
F2_2 C24_2 1_555 1_555
F3_2 C24_2 1_555 1_555
O1_3 S1_3 1_555 1_555
O2_3 S1_3 1_555 1_555
O3_3 S1_3 1_555 1_555
S1_3 C24_3 1_555 1_555
C24_3 F1_3 1_555 1_555
F2_3 C24_3 1_555 1_555
F3_3 C24_3 1_555 1_555
O1_4 S1_4 1_555 1_555
O2_4 S1_4 1_555 1_555
O3_4 S1_4 1_555 1_555
S1_4 C24_4 1_555 1_555
C24_4 F1_4 1_555 1_555
F2_4 C24_4 1_555 1_555
F3_4 C24_4 1_555 1_555
O1_5 S1_5 1_555 1_555
O2_5 S1_5 1_555 1_555
O3_5 S1_5 1_555 1_555
S1_5 C24_5 1_555 1_555
C24_5 F1_5 1_555 1_555
F2_5 C24_5 1_555 1_555
F3_5 C24_5 1_555 1_555
O1_6 S1_6 1_555 1_555
O2_6 S1_6 1_555 1_555
O3_6 S1_6 1_555 1_555
S1_6 C24_6 1_555 1_555
C24_6 F1_6 1_555 1_555
F2_6 C24_6 1_555 1_555
F3_6 C24_6 1_555 1_555
O1_7 S1_7 1_555 1_555
O2_7 S1_7 1_555 1_555
S1_7 C24_7 1_555 1_555
C24_7 F1_7 1_555 1_555
F3_7 C24_7 1_555 1_555
O1_8 S1_8 1_555 1_555
O2_8 S1_8 1_555 1_555
S1_8 C24_8 1_555 1_555
C24_8 F1_8 1_555 1_555
F3_8 C24_8 1_555 1_555
O1_9 S1_9 1_555 1_555
O2_9 S1_9 1_555 1_555
S1_9 C24_9 1_555 1_555
C24_9 F1_9 1_555 1_555
F3_9 C24_9 1_555 1_555
O1_10 S1_10 1_555 1_555
O2_10 S1_10 1_555 1_555
O3_10 S1_10 1_555 1_555
S1_10 C24_10 1_555 1_555
C24_10 F1_10 1_555 1_555
F2_10 C24_10 1_555 1_555
F3_10 C24_10 1_555 1_555
O1_11 S1_11 1_555 1_555
O2_11 S1_11 1_555 1_555
O3_11 S1_11 1_555 1_555
S1_11 C24_11 1_555 1_555
C24_11 F1_11 1_555 1_555
F2_11 C24_11 1_555 1_555
F3_11 C24_11 1_555 1_555
O1_12 S1_12 1_555 1_555
O2_12 S1_12 1_555 1_555
O3_12 S1_12 1_555 1_555
S1_12 C24_12 1_555 1_555
C24_12 F1_12 1_555 1_555
F2_12 C24_12 1_555 1_555
F3_12 C24_12 1_555 1_555
O1_13 S1_13 1_555 1_555
O2_13 S1_13 1_555 1_555
O3_13 S1_13 1_555 1_555
S1_13 C24_13 1_555 1_555
C24_13 F1_13 1_555 1_555
F2_13 C24_13 1_555 1_555
F3_13 C24_13 1_555 1_555
O1_14 S1_14 1_555 1_555
O2_14 S1_14 1_555 1_555
O3_14 S1_14 1_555 1_555
S1_14 C24_14 1_555 1_555
C24_14 F1_14 1_555 1_555
F2_14 C24_14 1_555 1_555
F3_14 C24_14 1_555 1_555
O1_15 S1_15 1_555 1_555
O2_15 S1_15 1_555 1_555
O3_15 S1_15 1_555 1_555
S1_15 C24_15 1_555 1_555
C24_15 F1_15 1_555 1_555
F2_15 C24_15 1_555 1_555
F3_15 C24_15 1_555 1_555
O1_16 S1_16 1_555 1_555
O2_16 S1_16 1_555 1_555
S1_16 C24_16 1_555 1_555
C24_16 F1_16 1_555 1_555
F3_16 C24_16 1_555 1_555
O1_17 S1_17 1_555 1_555
O2_17 S1_17 1_555 1_555
S1_17 C24_17 1_555 1_555
C24_17 F1_17 1_555 1_555
F3_17 C24_17 1_555 1_555
O1_18 S1_18 1_555 1_555
O2_18 S1_18 1_555 1_555
S1_18 C24_18 1_555 1_555
C24_18 F1_18 1_555 1_555
F3_18 C24_18 1_555 1_555

#END
