
###############################################################################
#
# This file contains modified crystal structure data generated from the
# MOF subset of the Cambridge Structural Database (CSD) v543 
# hosted by the Cambridge Crystallographic Data Centre (CCDC).
#
# This work is licensed under the Creative Commons
# Attribution-NonCommercial-ShareAlike 4.0 International License.
# To view a copy of this license, visit
# http://creativecommons.org/licenses/by-nc-sa/4.0/
# or send a letter to
# Creative Commons, PO Box 1866, Mountain View, CA 94042, USA.
#
# CIF created using the CSD Python API on 29 September 2022
# The structure has been converted into the P1 space group
# The structure has a 3D framework
# The original CSD entry QUMFUB is in the triclinic crystal system
# The framework has been calculated to contain at least 10.0% void space
# The void calculation uses a probe of radius 1.32A, grid spacing 0.4
#
###############################################################################

data_QUMFUB
_chemical_formula_moiety         '(C24 H8 Mn2 O18)n'
_symmetry_cell_setting           triclinic
_symmetry_space_group_name_H-M   'P 1'
_symmetry_Int_Tables_number      1
_space_group_name_Hall           'P 1'
loop_
_symmetry_equiv_pos_site_id
_symmetry_equiv_pos_as_xyz
1 x,y,z
_cell_length_a                   9.4491(4)
_cell_length_b                   10.0762(4)
_cell_length_c                   11.5763(6)
_cell_angle_alpha                73.093(4)
_cell_angle_beta                 89.597(4)
_cell_angle_gamma                80.097(4)
_cell_volume                     1037.76
loop_
_atom_site_label
_atom_site_type_symbol
_atom_site_fract_x
_atom_site_fract_y
_atom_site_fract_z
Mn5 Mn -0.0000 0.0000 0.5000
Mn5_2 Mn 0.0000 1.0000 0.5000
Mn2 Mn 0.00947(4) 0.08932(4) 0.16786(4)
O30 O 0.2280(2) 0.0493(2) 0.24055(19)
O24 O 0.0087(2) 0.2230(2) 0.98868(17)
O1 O 0.0326(2) 0.21219(19) 0.41233(17)
O3 O 0.0697(2) 0.8989(2) 0.12465(19)
O5 O 0.0211(2) 0.54476(19) 0.19814(16)
O6 O 0.10431(18) 0.0118(2) 0.66595(16)
O9 O 0.80125(19) 0.0827(2) 0.57070(18)
C1 C 0.0190(3) 0.3012(3) 0.3111(3)
C2 C 0.0493(3) 0.4420(3) 0.3062(2)
C3 C 0.0960(4) 0.4953(3) 0.3898(3)
H1 H 0.1234 0.4457 0.4719
C4 C 0.0962(4) 0.6407(3) 0.3310(3)
H2 H 0.1231 0.7071 0.3666
C5 C 0.0513(3) 0.6658(3) 0.2156(3)
C6 C 0.0345(3) 0.7909(3) 0.1095(2)
C8 C 0.3441(3) 0.0456(3) 0.6580(3)
C9 C 0.3456(3) 0.1415(3) 0.5503(3)
H3 H 0.2652 0.1903 0.4968
C10 C 0.4906(3) 0.1552(3) 0.5323(3)
H4 H 0.5264 0.2157 0.4636
C11 C 0.5691(3) 0.0677(3) 0.6291(3)
C12 C 0.7271(3) 0.0300(3) 0.6565(3)
Mn5_3 Mn 1.0000 0.0000 0.5000
O7 O 0.2381(2) 0.9186(3) 0.8341(2)
O8 O 0.7720(2) 0.9507(2) 0.75945(19)
O10 O 0.48060(19) 0.9978(2) 0.71107(18)
C7 C 0.2235(3) 0.9864(3) 0.7249(3)
O12 O 0.0188(2) 0.7150(2) 0.78768(18)
Mn5_4 Mn 1.0000 1.0000 0.5000
Mn11 Mn 0.99053(4) 0.91068(4) 0.83214(4)
O32 O 0.19875(19) 0.9173(2) 0.42930(18)
O21 O 0.9812(2) 0.2850(2) 0.21232(18)
O28 O 0.7619(2) 0.0814(3) 0.1659(2)
O4 O 0.9913(2) 0.7770(2) 0.01132(17)
O20 O 0.51940(19) 0.0022(2) 0.28893(18)
C19 C 0.7765(3) 0.0136(3) 0.2751(3)
O26 O 0.89569(18) 0.9882(2) 0.33405(16)
O11 O 0.9674(2) 0.78781(19) 0.58767(17)
O13 O 0.9303(2) 0.1011(2) 0.87535(19)
O15 O 0.9789(2) 0.45524(19) 0.80186(16)
C13 C 0.9810(3) 0.6988(3) 0.6889(3)
C14 C 0.9507(3) 0.5580(3) 0.6938(2)
C15 C 0.9040(4) 0.5047(3) 0.6102(3)
H5 H 0.8766 0.5543 0.5281
C16 C 0.9038(4) 0.3593(3) 0.6690(3)
H6 H 0.8769 0.2929 0.6334
C17 C 0.9487(3) 0.3342(3) 0.7844(3)
C18 C 0.9655(3) 0.2091(3) 0.8905(2)
C20 C 0.6559(3) 0.9544(3) 0.3420(3)
C21 C 0.6544(3) 0.8585(3) 0.4497(3)
H7 H 0.7348 0.8097 0.5032
C22 C 0.5094(3) 0.8448(3) 0.4677(3)
H8 H 0.4736 0.7843 0.5364
C23 C 0.4309(3) 0.9323(3) 0.3709(3)
C24 C 0.2729(3) 0.9700(3) 0.3435(3)
loop_
_geom_bond_atom_site_label_1
_geom_bond_atom_site_label_2
_geom_bond_site_symmetry_1
_geom_bond_site_symmetry_2
O30 Mn2 1_555 1_555
Mn5 O1 1_555 1_555
O1 C1 1_555 1_555
O3 C6 1_555 1_555
O5 C2 1_555 1_555
O6 Mn5 1_555 1_555
O9 C12 1_555 1_555
C1 C2 1_555 1_555
C2 C3 1_555 1_555
C3 H1 1_555 1_555
C4 C3 1_555 1_555
H2 C4 1_555 1_555
C5 O5 1_555 1_555
C6 C5 1_555 1_555
C9 C8 1_555 1_555
H3 C9 1_555 1_555
C10 C9 1_555 1_555
H4 C10 1_555 1_555
C12 C11 1_555 1_555
Mn5_3 O9 1_555 1_555
C4 C5 1_555 1_555
C10 C11 1_555 1_555
O7 C7 1_555 1_555
Mn11 O8 1_555 1_555
O32 Mn5_2 1_555 1_555
O28 C19 1_555 1_555
O11 Mn5_4 1_555 1_555
O13 C18 1_555 1_555
O15 C14 1_555 1_555
O26 Mn5_4 1_555 1_555
O32 C24 1_555 1_555
C13 O11 1_555 1_555
C14 C13 1_555 1_555
C15 C14 1_555 1_555
H5 C15 1_555 1_555
C16 C15 1_555 1_555
H6 C16 1_555 1_555
C17 O15 1_555 1_555
C18 C17 1_555 1_555
C21 C20 1_555 1_555
H7 C21 1_555 1_555
C22 C21 1_555 1_555
H8 C22 1_555 1_555
C24 C23 1_555 1_555
C16 C17 1_555 1_555
C22 C23 1_555 1_555

#END
