
###############################################################################
#
# This file contains modified crystal structure data generated from the
# MOF subset of the Cambridge Structural Database (CSD) v543 
# hosted by the Cambridge Crystallographic Data Centre (CCDC).
#
# This work is licensed under the Creative Commons
# Attribution-NonCommercial-ShareAlike 4.0 International License.
# To view a copy of this license, visit
# http://creativecommons.org/licenses/by-nc-sa/4.0/
# or send a letter to
# Creative Commons, PO Box 1866, Mountain View, CA 94042, USA.
#
# CIF created using the CSD Python API on 29 September 2022
# The structure has been converted into the P1 space group
# The structure has a 3D framework
# The original CSD entry QUMFAG is in the triclinic crystal system
# The framework has been calculated to contain at least 10.0% void space
# The void calculation uses a probe of radius 1.32A, grid spacing 0.4
#
###############################################################################

data_QUMFAG
_chemical_formula_moiety         '(C46 H34 Cd2 N4 O11)n'
_symmetry_cell_setting           triclinic
_symmetry_space_group_name_H-M   'P 1'
_symmetry_Int_Tables_number      1
_space_group_name_Hall           'P 1'
loop_
_symmetry_equiv_pos_site_id
_symmetry_equiv_pos_as_xyz
1 x,y,z
_cell_length_a                   10.400(2)
_cell_length_b                   11.480(2)
_cell_length_c                   12.407(2)
_cell_angle_alpha                112.591(3)
_cell_angle_beta                 107.961(3)
_cell_angle_gamma                101.658(3)
_cell_volume                     1211.25
loop_
_atom_site_label
_atom_site_type_symbol
_atom_site_fract_x
_atom_site_fract_y
_atom_site_fract_z
_atom_site_U_iso_or_equiv
_atom_site_thermal_displace_type
C18 C 0.0947(11) 0.1154(10) 0.2730(9) 0.0587 Uani
H14 H 0.1795 0.1866 0.3390 0.0700 Uiso
C19 C 0.1064(10) 0.0078(10) 0.1822(10) 0.0608 Uani
H15 H 0.1972 0.0066 0.1875 0.0720 Uiso
C17 C 0.8459(10) 0.0194(10) 0.1732(9) 0.0615 Uani
H13 H 0.7560 0.0233 0.1685 0.0740 Uiso
N2 N 0.9666(8) 0.1230(7) 0.2714(7) 0.0492 Uani
Cd3 Cd 0.93637(7) 0.30162(6) 0.42988(6) 0.0458 Uani
C1 C 0.9288(10) 0.4290(10) 0.2813(9) 0.0506 Uani
C2 C 0.9209(9) 0.4921(8) 0.1947(8) 0.0458 Uani
C3 C 0.7939(10) 0.4442(9) 0.0870(8) 0.0539 Uani
H1 H 0.7157 0.3713 0.0670 0.0650 Uiso
C4 C 0.7811(9) 0.5046(9) 0.0066(8) 0.0487 Uani
C5 C 0.8991(10) 0.6108(8) 0.0351(8) 0.0481 Uani
C15 C 0.9827(10) 0.9022(8) 0.0838(8) 0.0502 Uani
C16 C 0.8497(11) 0.9078(9) 0.0793(9) 0.0639 Uani
H12 H 0.7641 0.8374 0.0138 0.0760 Uiso
O1 O 0.8265(7) 0.3244(7) 0.2457(6) 0.0660 Uani
C31 C 0.4642(11) 0.6419(11) 0.1310(11) 0.0820 Uani
H21 H 0.4828 0.6243 0.0554 0.0980 Uiso
H22 H 0.4464 0.7260 0.1585 0.0980 Uiso
C32 C 0.5953(10) 0.6540(10) 0.2390(9) 0.0609 Uani
C33 C 0.7242(11) 0.7567(10) 0.2901(10) 0.0730 Uani
H23 H 0.7300 0.8213 0.2622 0.0880 Uiso
C34 C 0.8444(11) 0.7655(9) 0.3814(10) 0.0677 Uani
H24 H 0.9311 0.8366 0.4146 0.0810 Uiso
C35 C 0.7177(10) 0.5767(10) 0.3768(9) 0.0584 Uani
H25 H 0.7143 0.5134 0.4062 0.0710 Uiso
C36 C 0.5908(10) 0.5622(10) 0.2837(9) 0.0622 Uani
H26 H 0.5044 0.4914 0.2524 0.0740 Uiso
C37 C 0.0142(12) 0.2195(9) 0.0198(9) 0.0645 Uani
H27 H 0.0310 0.2086 0.0961 0.0770 Uiso
N3 N 0.8426(8) 0.6753(7) 0.4255(7) 0.0521 Uani
O12 O 0.9623(7) 0.5138(6) 0.6100(6) 0.0587 Uani
O13 O 0.3403(7) 0.5333(7) 0.1003(6) 0.0702 Uani
O14 O 0.1212(7) 0.3426(6) 0.0530(5) 0.0586 Uani
C20 C 0.7104(12) 0.1511(11) 0.4499(10) 0.0703 Uani
C21 C 0.5995(10) 0.0731(10) 0.4747(10) 0.0628 Uani
C23 C 0.4717(13) 0.0901(12) 0.4596(12) 0.0915 Uani
H17 H 0.4509 0.1531 0.4343 0.1100 Uiso
O5 O 0.8250(9) 0.1293(8) 0.4647(8) 0.0936 Uani
O6 O 0.6911(9) 0.2404(9) 0.4198(9) 0.1010 Uani
C29 C 0.9738(11) 0.3422(9) 0.8571(8) 0.0552 Uani
H19 H 0.8946 0.2710 0.8383 0.0660 Uiso
C30 C 0.9620(10) 0.3998(8) 0.7758(8) 0.0505 Uani
H20 H 0.8763 0.3659 0.7022 0.0610 Uiso
H28 H 0.9188 0.2249 0.9900 0.0770 Uiso
C45 C 0.3709(12) 0.0137(13) 0.4818(12) 0.0906 Uani
H33 H 0.2811 0.0229 0.4663 0.1090 Uiso
C6 C 0.0262(11) 0.6578(9) 0.1429(8) 0.0552 Uani
H2 H 0.1054 0.7290 0.1617 0.0660 Uiso
C7 C 0.0380(10) 0.6002(8) 0.2242(8) 0.0505 Uani
H3 H 0.1237 0.6341 0.2978 0.0610 Uiso
H11 H 0.0812 0.7751 0.0100 0.0770 Uiso
O2 O 0.0377(7) 0.4862(6) 0.3900(6) 0.0587 Uani
Cd2 Cd 0.06363(7) 0.69838(6) 0.57012(6) 0.0458 Uani
N6 N 0.0334(8) 0.8770(7) 0.7286(7) 0.0492 Uani
O9 O 0.1735(7) 0.6756(7) 0.7543(6) 0.0660 Uani
O16 O 0.1750(9) 0.8707(8) 0.5353(8) 0.0936 Uani
O18 O 0.3089(9) 0.7596(9) 0.5802(9) 0.1010 Uani
C8 C 0.5358(11) 0.3581(11) 0.8690(11) 0.0820 Uani
H4 H 0.5172 0.3757 0.9446 0.0980 Uiso
H5 H 0.5536 0.2740 0.8415 0.0980 Uiso
C9 C 0.4047(10) 0.3460(10) 0.7610(9) 0.0609 Uani
C10 C 0.2758(11) 0.2433(10) 0.7099(10) 0.0730 Uani
H6 H 0.2700 0.1787 0.7378 0.0880 Uiso
C11 C 0.1556(11) 0.2345(9) 0.6186(10) 0.0677 Uani
H7 H 0.0689 0.1634 0.5854 0.0810 Uiso
C12 C 0.2823(10) 0.4233(10) 0.6232(9) 0.0584 Uani
H8 H 0.2857 0.4866 0.5938 0.0710 Uiso
C13 C 0.4092(10) 0.4378(10) 0.7163(9) 0.0622 Uani
H9 H 0.4956 0.5086 0.7476 0.0740 Uiso
C14 C 0.9858(12) 0.7805(9) 0.9802(9) 0.0645 Uani
H10 H 0.9690 0.7914 0.9039 0.0770 Uiso
N1 N 0.1574(8) 0.3247(7) 0.5745(7) 0.0521 Uani
O3 O 0.6597(7) 0.4667(7) 0.8997(6) 0.0702 Uani
O4 O 0.8788(7) 0.6574(6) 0.9470(5) 0.0586 Uani
C24 C 0.0712(10) 0.5710(10) 0.7187(9) 0.0506 Uani
C25 C 0.0791(9) 0.5079(8) 0.8053(8) 0.0458 Uani
C26 C 0.2061(10) 0.5558(9) 0.9130(8) 0.0539 Uani
H18 H 0.2843 0.6287 0.9330 0.0650 Uiso
C27 C 0.2189(9) 0.4954(9) 0.9934(8) 0.0487 Uani
C28 C 0.1009(10) 0.3892(8) 0.9649(8) 0.0481 Uani
C38 C 0.0173(10) 0.0978(8) 0.9162(8) 0.0502 Uani
C39 C 0.1503(11) 0.0922(9) 0.9207(9) 0.0639 Uani
H29 H 0.2359 0.1626 0.9862 0.0760 Uiso
C40 C 0.1541(10) 0.9806(10) 0.8268(9) 0.0615 Uani
H30 H 0.2440 0.9767 0.8315 0.0740 Uiso
C22 C 0.6291(12) 0.9863(13) 0.5182(12) 0.0906 Uani
H16 H 0.7189 0.9771 0.5337 0.1090 Uiso
C41 C 0.9053(11) 0.8846(10) 0.7270(9) 0.0587 Uani
H31 H 0.8205 0.8134 0.6610 0.0700 Uiso
C42 C 0.8936(10) 0.9922(10) 0.8178(10) 0.0608 Uani
H32 H 0.8028 0.9934 0.8125 0.0720 Uiso
C43 C 0.2896(12) 0.8489(11) 0.5501(10) 0.0703 Uani
C44 C 0.4005(10) 0.9269(10) 0.5253(10) 0.0628 Uani
C46 C 0.5283(13) 0.9099(12) 0.5404(12) 0.0915 Uani
H34 H 0.5491 0.8469 0.5657 0.1100 Uiso
loop_
_atom_site_aniso_label
_atom_site_aniso_U_11
_atom_site_aniso_U_22
_atom_site_aniso_U_33
_atom_site_aniso_U_23
_atom_site_aniso_U_13
_atom_site_aniso_U_12
C18 0.064 0.061 0.061 0.033 0.031 0.027
C19 0.053 0.073 0.074 0.042 0.035 0.03
C17 0.047 0.06 0.068 0.026 0.02 0.018
N2 0.056 0.049 0.05 0.027 0.025 0.023
Cd3 0.0487 0.0508 0.0491 0.0345 0.0205 0.0183
C1 0.059 0.065 0.051 0.034 0.033 0.039
C2 0.058 0.051 0.042 0.03 0.024 0.026
C3 0.061 0.065 0.058 0.041 0.034 0.028
C4 0.056 0.059 0.044 0.038 0.019 0.022
C5 0.071 0.049 0.041 0.026 0.03 0.035
C15 0.068 0.051 0.046 0.035 0.027 0.021
C16 0.068 0.052 0.058 0.022 0.019 0.017
O1 0.065 0.078 0.073 0.057 0.025 0.025
C31 0.066 0.081 0.09 0.057 0.007 0.019
C32 0.06 0.063 0.068 0.042 0.022 0.025
C33 0.073 0.062 0.078 0.046 0.012 0.02
C34 0.063 0.05 0.075 0.036 0.006 0.017
C35 0.06 0.073 0.063 0.046 0.029 0.032
C36 0.058 0.073 0.067 0.046 0.025 0.023
C37 0.098 0.06 0.058 0.038 0.045 0.033
N3 0.048 0.056 0.055 0.034 0.017 0.017
O12 0.066 0.063 0.056 0.038 0.023 0.026
O13 0.058 0.088 0.063 0.053 0.008 0.018
O14 0.084 0.057 0.047 0.035 0.029 0.027
C20 0.059 0.082 0.062 0.038 0.025 0.005
C21 0.056 0.074 0.074 0.05 0.03 0.02
C23 0.085 0.109 0.124 0.09 0.053 0.035
O5 0.074 0.114 0.111 0.067 0.053 0.021
O6 0.085 0.124 0.129 0.092 0.057 0.023
C29 0.07 0.049 0.054 0.03 0.029 0.021
C30 0.053 0.046 0.047 0.022 0.017 0.015
C45 0.072 0.126 0.132 0.098 0.062 0.044
C6 0.07 0.049 0.054 0.03 0.029 0.021
C7 0.053 0.046 0.047 0.022 0.017 0.015
O2 0.066 0.063 0.056 0.038 0.023 0.026
Cd2 0.0487 0.0508 0.0491 0.0345 0.0205 0.0183
N6 0.056 0.049 0.05 0.027 0.025 0.023
O9 0.065 0.078 0.073 0.057 0.025 0.025
O16 0.074 0.114 0.111 0.067 0.053 0.021
O18 0.085 0.124 0.129 0.092 0.057 0.023
C8 0.066 0.081 0.09 0.057 0.007 0.019
C9 0.06 0.063 0.068 0.042 0.022 0.025
C10 0.073 0.062 0.078 0.046 0.012 0.02
C11 0.063 0.05 0.075 0.036 0.006 0.017
C12 0.06 0.073 0.063 0.046 0.029 0.032
C13 0.058 0.073 0.067 0.046 0.025 0.023
C14 0.098 0.06 0.058 0.038 0.045 0.033
N1 0.048 0.056 0.055 0.034 0.017 0.017
O3 0.058 0.088 0.063 0.053 0.008 0.018
O4 0.084 0.057 0.047 0.035 0.029 0.027
C24 0.059 0.065 0.051 0.034 0.033 0.039
C25 0.058 0.051 0.042 0.03 0.024 0.026
C26 0.061 0.065 0.058 0.041 0.034 0.028
C27 0.056 0.059 0.044 0.038 0.019 0.022
C28 0.071 0.049 0.041 0.026 0.03 0.035
C38 0.068 0.051 0.046 0.035 0.027 0.021
C39 0.068 0.052 0.058 0.022 0.019 0.017
C40 0.047 0.06 0.068 0.026 0.02 0.018
C22 0.072 0.126 0.132 0.098 0.062 0.044
C41 0.064 0.061 0.061 0.033 0.031 0.027
C42 0.053 0.073 0.074 0.042 0.035 0.03
C43 0.059 0.082 0.062 0.038 0.025 0.005
C44 0.056 0.074 0.074 0.05 0.03 0.02
C46 0.085 0.109 0.124 0.09 0.053 0.035
loop_
_geom_bond_atom_site_label_1
_geom_bond_atom_site_label_2
_geom_bond_site_symmetry_1
_geom_bond_site_symmetry_2
C18 H14 1_555 1_555
H15 C19 1_555 1_555
C18 C19 1_555 1_555
H13 C17 1_555 1_555
N2 C17 1_555 1_555
Cd3 N2 1_555 1_555
C1 C2 1_555 1_555
C2 C3 1_555 1_555
C3 H1 1_555 1_555
C4 C3 1_555 1_555
C5 C4 1_555 1_555
C16 C15 1_555 1_555
H12 C16 1_555 1_555
O1 C1 1_555 1_555
Cd3 O1 1_555 1_555
C31 H21 1_555 1_555
H22 C31 1_555 1_555
C32 C31 1_555 1_555
C33 C32 1_555 1_555
H23 C33 1_555 1_555
C34 C33 1_555 1_555
H24 C34 1_555 1_555
C35 H25 1_555 1_555
C36 C32 1_555 1_555
H26 C36 1_555 1_555
C37 H27 1_555 1_555
Cd3 O12 1_555 1_555
C31 O13 1_555 1_555
C34 N3 1_555 1_555
C35 C36 1_555 1_555
C35 N3 1_555 1_555
C37 O14 1_555 1_555
C20 C21 1_555 1_555
C23 C21 1_555 1_555
H17 C23 1_555 1_555
O5 Cd3 1_555 1_555
O6 Cd3 1_555 1_555
H19 C29 1_555 1_555
H20 C30 1_555 1_555
C45 C23 1_555 1_555
H33 C45 1_555 1_555
C20 O5 1_555 1_555
C20 O6 1_555 1_555
C29 C30 1_555 1_555
H2 C6 1_555 1_555
H3 C7 1_555 1_555
Cd2 O2 1_555 1_555
N6 Cd2 1_555 1_555
O9 Cd2 1_555 1_555
O16 Cd2 1_555 1_555
O18 Cd2 1_555 1_555
C6 C7 1_555 1_555
C8 H4 1_555 1_555
H5 C8 1_555 1_555
C9 C8 1_555 1_555
C10 C9 1_555 1_555
H6 C10 1_555 1_555
C11 C10 1_555 1_555
H7 C11 1_555 1_555
C12 H8 1_555 1_555
C13 C9 1_555 1_555
H9 C13 1_555 1_555
C14 H10 1_555 1_555
N1 C11 1_555 1_555
C24 C25 1_555 1_555
C25 C26 1_555 1_555
C26 H18 1_555 1_555
C27 C26 1_555 1_555
C28 C27 1_555 1_555
C39 C38 1_555 1_555
H29 C39 1_555 1_555
O9 C24 1_555 1_555
C8 O3 1_555 1_555
C12 C13 1_555 1_555
C12 N1 1_555 1_555
C14 O4 1_555 1_555
H30 C40 1_555 1_555
N6 C40 1_555 1_555
C22 H16 1_555 1_555
C41 H31 1_555 1_555
H32 C42 1_555 1_555
C43 C44 1_555 1_555
C46 C22 1_555 1_555
H34 C46 1_555 1_555
O16 C43 1_555 1_555
C41 C42 1_555 1_555
C43 O18 1_555 1_555
C44 C46 1_555 1_555

#END
