
###############################################################################
#
# This file contains modified crystal structure data generated from the
# MOF subset of the Cambridge Structural Database (CSD) v543 
# hosted by the Cambridge Crystallographic Data Centre (CCDC).
#
# This work is licensed under the Creative Commons
# Attribution-NonCommercial-ShareAlike 4.0 International License.
# To view a copy of this license, visit
# http://creativecommons.org/licenses/by-nc-sa/4.0/
# or send a letter to
# Creative Commons, PO Box 1866, Mountain View, CA 94042, USA.
#
# CIF created using the CSD Python API on 29 September 2022
# The structure has been converted into the P1 space group
# The structure has a 3D framework
# The original CSD entry QUMJEP is in the monoclinic crystal system
# The framework has been calculated to contain at least 10.0% void space
# The void calculation uses a probe of radius 1.32A, grid spacing 0.4
#
###############################################################################

data_QUMJEP
_chemical_formula_moiety         '(C168 H104 Dy8 O68)n'
_symmetry_cell_setting           triclinic
_symmetry_space_group_name_H-M   'P 1'
_symmetry_Int_Tables_number      1
_space_group_name_Hall           'P 1'
loop_
_symmetry_equiv_pos_site_id
_symmetry_equiv_pos_as_xyz
1 x,y,z
_cell_length_a                   29.726(9)
_cell_length_b                   9.186(3)
_cell_length_c                   16.198(3)
_cell_angle_alpha                90
_cell_angle_beta                 112.79(3)
_cell_angle_gamma                90
_cell_volume                     4077.77
loop_
_atom_site_label
_atom_site_type_symbol
_atom_site_fract_x
_atom_site_fract_y
_atom_site_fract_z
Dy6 Dy 0.002800(10) 0.66237(4) 0.59618(2)
O10 O 0.56062(16) 0.0094(6) 0.4413(3)
O14 O 0.45730(17) 0.0544(7) 0.3913(4)
Dy1 Dy 0.497200(10) 0.83763(4) 0.40382(2)
C1 C 0.9203(2) 0.3890(8) 0.5062(4)
C2 C 0.8661(2) 0.3662(7) 0.4789(4)
C3 C 0.8404(2) 0.4619(7) 0.5105(4)
H1 H 0.8565 0.5341 0.5514
C4 C 0.7901(2) 0.4477(6) 0.4799(4)
C5 C 0.7657(2) 0.3389(6) 0.4212(4)
H2 H 0.7322 0.3270 0.4038
C6 C 0.79198(19) 0.2475(6) 0.3886(3)
C7 C 0.8420(2) 0.2592(7) 0.4180(4)
H3 H 0.8594 0.1953 0.3970
C8 C 0.7192(2) 0.5859(6) 0.4588(4)
C9 C 0.6857(2) 0.5966(7) 0.4974(4)
H4 H 0.6943 0.5711 0.5571
C10 C 0.6391(2) 0.6457(7) 0.4471(4)
H5 H 0.6166 0.6551 0.4737
C11 C 0.6257(2) 0.6808(6) 0.3582(4)
C12 C 0.6604(2) 0.6697(6) 0.3200(4)
H6 H 0.6519 0.6948 0.2602
C13 C 0.7069(2) 0.6223(7) 0.3695(4)
H7 H 0.7299 0.6146 0.3437
C14 C 0.57554(19) 0.7353(6) 0.3051(4)
C15 C 0.7194(2) 0.1537(6) 0.2761(4)
C16 C 0.7000(2) 0.2746(7) 0.2247(4)
H8 H 0.7198 0.3538 0.2261
C17 C 0.6512(2) 0.2771(7) 0.1713(4)
H9 H 0.6378 0.3592 0.1368
C18 C 0.6216(2) 0.1596(7) 0.1679(4)
C19 C 0.6416(2) 0.0417(7) 0.2207(4)
C20 C 0.6905(2) 0.0366(7) 0.2755(4)
C21 C 0.5693(2) 0.1560(8) 0.1024(5)
O1 O 0.93938(16) 0.4906(6) 0.5587(3)
O2 O 0.94239(16) 0.3048(6) 0.4734(3)
O3 O 0.76577(14) 0.5423(5) 0.5138(3)
O4 O 0.76944(14) 0.1403(4) 0.3272(3)
O5 O 0.54547(14) 0.7369(5) 0.3425(3)
O6 O 0.56613(15) 0.7762(5) 0.2265(3)
O7 O 0.55529(17) 0.2481(8) 0.0414(3)
O8 O 0.54270(17) 0.0544(7) 0.1087(4)
H12 H 0.5065 0.5262 0.4018
H13 H 0.4565 0.5515 0.3722
O9 O 0.4844(2) 0.5748(7) 0.4108(4)
Dy3 Dy 0.502800(10) 0.83763(4) 0.09618(2)
Dy4 Dy 0.997200(10) 0.33763(4) 0.40382(2)
O11 O 0.44239(16) 0.8048(6) 0.4734(3)
O12 O 0.43387(15) 0.7762(5) 0.2735(3)
O13 O 0.55529(17) 0.7519(8) 0.5414(3)
Dy5 Dy 0.497200(10) 0.16237(4) 0.90382(2)
H10 H 0.6218 0.9629 0.2197
H11 H 0.7036 0.9556 0.3112
O10_2 O 0.43938(16) 0.0094(6) 0.0587(3)
C2_2 C 0.1339(2) 0.3662(7) 0.0211(4)
C4_2 C 0.2099(2) 0.4477(6) 0.0201(4)
C5_2 C 0.2343(2) 0.3389(6) 0.0788(4)
H2_2 H 0.2678 0.3270 0.0962
C6_2 C 0.20802(19) 0.2475(6) 0.1114(3)
C7_2 C 0.1580(2) 0.2592(7) 0.0820(4)
H3_2 H 0.1406 0.1953 0.1030
C8_2 C 0.2808(2) 0.5859(6) 0.0412(4)
C9_2 C 0.3143(2) 0.5966(7) 0.0026(4)
C10_2 C 0.3609(2) 0.6457(7) 0.0529(4)
H5_2 H 0.3834 0.6551 0.0263
C11_2 C 0.3743(2) 0.6808(6) 0.1418(4)
C12_2 C 0.3396(2) 0.6697(6) 0.1800(4)
H6_2 H 0.3481 0.6948 0.2398
C13_2 C 0.2931(2) 0.6223(7) 0.1305(4)
H7_2 H 0.2701 0.6146 0.1563
C14_2 C 0.42446(19) 0.7353(6) 0.1949(4)
C15_2 C 0.2806(2) 0.1537(6) 0.2239(4)
C16_2 C 0.3000(2) 0.2746(7) 0.2753(4)
H8_2 H 0.2802 0.3538 0.2739
C17_2 C 0.3488(2) 0.2771(7) 0.3287(4)
H9_2 H 0.3622 0.3592 0.3632
C18_2 C 0.3784(2) 0.1596(7) 0.3321(4)
C19_2 C 0.3584(2) 0.0417(7) 0.2793(4)
C20_2 C 0.3095(2) 0.0366(7) 0.2245(4)
C21_2 C 0.4307(2) 0.1560(8) 0.3976(5)
O2_2 O 0.05761(16) 0.3048(6) 0.0266(3)
O4_2 O 0.23056(14) 0.1403(4) 0.1728(3)
O5_2 O 0.45453(14) 0.7369(5) 0.1575(3)
O7_2 O 0.44471(17) 0.2481(8) 0.4586(3)
H12_2 H 0.4935 0.5262 0.0982
H13_2 H 0.5435 0.5515 0.1278
O9_2 O 0.5156(2) 0.5748(7) 0.0892(4)
Dy4_2 Dy 0.002800(10) 0.33763(4) 0.09618(2)
Dy5_2 Dy 0.502800(10) 0.16237(4) 0.59618(2)
O11_2 O 0.55761(16) 0.8048(6) 0.0266(3)
C1_2 C 0.0797(2) 0.3890(8) 0.9938(4)
C3_2 C 0.1596(2) 0.4619(7) 0.9895(4)
H1_2 H 0.1435 0.5341 0.9486
H4_2 H 0.3057 0.5711 0.9429
O1_2 O 0.06062(16) 0.4906(6) 0.9413(3)
O3_2 O 0.23423(14) 0.5423(5) 0.9862(3)
O13_2 O 0.44471(17) 0.7519(8) 0.9586(3)
H10_2 H 0.3782 0.9629 0.2803
H11_2 H 0.2964 0.9556 0.1888
Dy6_2 Dy 0.997200(10) 0.66237(4) 0.90382(2)
H1_3 H 0.3565 0.0341 0.5514
C8_3 C 0.2192(2) 0.0859(6) 0.4588(4)
C9_3 C 0.1857(2) 0.0966(7) 0.4974(4)
H4_3 H 0.1943 0.0711 0.5571
C10_3 C 0.1391(2) 0.1457(7) 0.4471(4)
H5_3 H 0.1166 0.1551 0.4737
C11_3 C 0.1257(2) 0.1808(6) 0.3582(4)
C12_3 C 0.1604(2) 0.1697(6) 0.3200(4)
H6_3 H 0.1519 0.1948 0.2602
C13_3 C 0.2069(2) 0.1223(7) 0.3695(4)
H7_3 H 0.2299 0.1146 0.3437
C14_3 C 0.07554(19) 0.2353(6) 0.3051(4)
O3_3 O 0.26577(14) 0.0423(5) 0.5138(3)
O5_3 O 0.04547(14) 0.2369(5) 0.3425(3)
O6_2 O 0.06613(15) 0.2762(5) 0.2265(3)
H12_3 H 0.0065 0.0262 0.4018
O10_3 O 0.06062(16) 0.5094(6) 0.4413(3)
O13_3 O 0.05529(17) 0.2519(8) 0.5414(3)
C1_3 C 0.4203(2) 0.8890(8) 0.5062(4)
C2_3 C 0.3661(2) 0.8662(7) 0.4789(4)
C3_3 C 0.3404(2) 0.9619(7) 0.5105(4)
C4_3 C 0.2901(2) 0.9477(6) 0.4799(4)
C5_3 C 0.2657(2) 0.8389(6) 0.4212(4)
H2_3 H 0.2322 0.8270 0.4038
C6_3 C 0.29198(19) 0.7475(6) 0.3886(3)
C7_3 C 0.3420(2) 0.7592(7) 0.4180(4)
H3_3 H 0.3594 0.6953 0.3970
C15_3 C 0.2194(2) 0.6537(6) 0.2761(4)
C16_3 C 0.2000(2) 0.7746(7) 0.2247(4)
H8_3 H 0.2198 0.8538 0.2261
C17_3 C 0.1512(2) 0.7771(7) 0.1713(4)
H9_3 H 0.1378 0.8592 0.1368
C18_3 C 0.1216(2) 0.6596(7) 0.1679(4)
C19_3 C 0.1416(2) 0.5417(7) 0.2207(4)
H10_3 H 0.1218 0.4629 0.2197
C20_3 C 0.1905(2) 0.5366(7) 0.2755(4)
H11_3 H 0.2036 0.4556 0.3112
C21_3 C 0.0693(2) 0.6560(8) 0.1024(5)
O1_3 O 0.43938(16) 0.9906(6) 0.5587(3)
O4_3 O 0.26944(14) 0.6403(4) 0.3272(3)
O7_3 O 0.05529(17) 0.7481(8) 0.0414(3)
O8_2 O 0.04270(17) 0.5544(7) 0.1087(4)
H13_3 H 0.9565 0.0515 0.3722
O9_3 O 0.9844(2) 0.0748(7) 0.4108(4)
O12_2 O 0.93387(15) 0.2762(5) 0.2735(3)
O14_2 O 0.95730(17) 0.5544(7) 0.3913(4)
H13_4 H 0.0435 0.0515 0.1278
O9_4 O 0.0156(2) 0.0748(7) 0.0892(4)
C8_4 C 0.7808(2) 0.0859(6) 0.0412(4)
C9_4 C 0.8143(2) 0.0966(7) 0.0026(4)
C10_4 C 0.8609(2) 0.1457(7) 0.0529(4)
H5_4 H 0.8834 0.1551 0.0263
C11_4 C 0.8743(2) 0.1808(6) 0.1418(4)
C12_4 C 0.8396(2) 0.1697(6) 0.1800(4)
H6_4 H 0.8481 0.1948 0.2398
C13_4 C 0.7931(2) 0.1223(7) 0.1305(4)
H7_4 H 0.7701 0.1146 0.1563
C14_4 C 0.92446(19) 0.2353(6) 0.1949(4)
O5_4 O 0.95453(14) 0.2369(5) 0.1575(3)
H12_4 H 0.9935 0.0262 0.0982
O10_4 O 0.93938(16) 0.5094(6) 0.0587(3)
H1_4 H 0.6435 0.0341 0.9486
H4_4 H 0.8057 0.0711 0.9429
O3_4 O 0.73423(14) 0.0423(5) 0.9862(3)
O13_4 O 0.94471(17) 0.2519(8) 0.9586(3)
C2_4 C 0.6339(2) 0.8662(7) 0.0211(4)
C4_4 C 0.7099(2) 0.9477(6) 0.0201(4)
C5_4 C 0.7343(2) 0.8389(6) 0.0788(4)
H2_4 H 0.7678 0.8270 0.0962
C6_4 C 0.70802(19) 0.7475(6) 0.1114(3)
C7_4 C 0.6580(2) 0.7592(7) 0.0820(4)
H3_4 H 0.6406 0.6953 0.1030
C15_4 C 0.7806(2) 0.6537(6) 0.2239(4)
C16_4 C 0.8000(2) 0.7746(7) 0.2753(4)
H8_4 H 0.7802 0.8538 0.2739
C17_4 C 0.8488(2) 0.7771(7) 0.3287(4)
H9_4 H 0.8622 0.8592 0.3632
C18_4 C 0.8784(2) 0.6596(7) 0.3321(4)
C19_4 C 0.8584(2) 0.5417(7) 0.2793(4)
H10_4 H 0.8782 0.4629 0.2803
C20_4 C 0.8095(2) 0.5366(7) 0.2245(4)
H11_4 H 0.7964 0.4556 0.1888
C21_4 C 0.9307(2) 0.6560(8) 0.3976(5)
O4_4 O 0.73056(14) 0.6403(4) 0.1728(3)
O7_4 O 0.94471(17) 0.7481(8) 0.4586(3)
C1_4 C 0.5797(2) 0.8890(8) 0.9938(4)
C3_4 C 0.6596(2) 0.9619(7) 0.9895(4)
O1_4 O 0.56062(16) 0.9906(6) 0.9413(3)
H10_5 H 0.3782 0.0371 0.7803
H11_5 H 0.2964 0.0444 0.6888
C1_5 C 0.0797(2) 0.6110(8) 0.4938(4)
C2_5 C 0.1339(2) 0.6338(7) 0.5211(4)
C3_5 C 0.1596(2) 0.5381(7) 0.4895(4)
H1_5 H 0.1435 0.4659 0.4486
C4_5 C 0.2099(2) 0.5523(6) 0.5201(4)
C5_5 C 0.2343(2) 0.6611(6) 0.5788(4)
H2_5 H 0.2678 0.6730 0.5962
C6_5 C 0.20802(19) 0.7525(6) 0.6114(3)
C7_5 C 0.1580(2) 0.7408(7) 0.5820(4)
H3_5 H 0.1406 0.8047 0.6030
C8_5 C 0.2808(2) 0.4141(6) 0.5412(4)
C9_5 C 0.3143(2) 0.4034(7) 0.5026(4)
H4_5 H 0.3057 0.4289 0.4429
C10_5 C 0.3609(2) 0.3543(7) 0.5529(4)
H5_5 H 0.3834 0.3449 0.5263
C11_5 C 0.3743(2) 0.3192(6) 0.6418(4)
C12_5 C 0.3396(2) 0.3303(6) 0.6800(4)
H6_5 H 0.3481 0.3052 0.7398
C13_5 C 0.2931(2) 0.3777(7) 0.6305(4)
H7_5 H 0.2701 0.3854 0.6563
C14_5 C 0.42446(19) 0.2647(6) 0.6949(4)
C15_5 C 0.2806(2) 0.8463(6) 0.7239(4)
C16_5 C 0.3000(2) 0.7254(7) 0.7753(4)
H8_5 H 0.2802 0.6462 0.7739
C17_5 C 0.3488(2) 0.7229(7) 0.8287(4)
H9_5 H 0.3622 0.6408 0.8632
C18_5 C 0.3784(2) 0.8404(7) 0.8321(4)
C19_5 C 0.3584(2) 0.9583(7) 0.7793(4)
C20_5 C 0.3095(2) 0.9634(7) 0.7245(4)
C21_5 C 0.4307(2) 0.8440(8) 0.8976(5)
O2_3 O 0.05761(16) 0.6952(6) 0.5266(3)
O3_5 O 0.23423(14) 0.4577(5) 0.4862(3)
O4_5 O 0.23056(14) 0.8597(4) 0.6728(3)
O5_5 O 0.45453(14) 0.2631(5) 0.6575(3)
O6_3 O 0.43387(15) 0.2238(5) 0.7735(3)
O8_3 O 0.45730(17) 0.9456(7) 0.8913(4)
H12_5 H 0.4935 0.4738 0.5982
H13_5 H 0.5435 0.4485 0.6278
O9_5 O 0.5156(2) 0.4252(7) 0.5892(4)
O11_3 O 0.55761(16) 0.1952(6) 0.5266(3)
O12_3 O 0.56613(15) 0.2238(5) 0.7265(3)
O14_3 O 0.54270(17) 0.9456(7) 0.6087(4)
H10_6 H 0.6218 0.0371 0.7197
H11_6 H 0.7036 0.0444 0.8112
C1_6 C 0.9203(2) 0.6110(8) 0.0062(4)
C3_6 C 0.8404(2) 0.5381(7) 0.0105(4)
H1_6 H 0.8565 0.4659 0.0514
H4_6 H 0.6943 0.4289 0.0571
O3_6 O 0.76577(14) 0.4577(5) 0.0138(3)
C2_6 C 0.8661(2) 0.6338(7) 0.9789(4)
C4_6 C 0.7901(2) 0.5523(6) 0.9799(4)
C5_6 C 0.7657(2) 0.6611(6) 0.9212(4)
H2_6 H 0.7322 0.6730 0.9038
C6_6 C 0.79198(19) 0.7525(6) 0.8886(3)
C7_6 C 0.8420(2) 0.7408(7) 0.9180(4)
H3_6 H 0.8594 0.8047 0.8970
C8_6 C 0.7192(2) 0.4141(6) 0.9588(4)
C9_6 C 0.6857(2) 0.4034(7) 0.9974(4)
C10_6 C 0.6391(2) 0.3543(7) 0.9471(4)
H5_6 H 0.6166 0.3449 0.9737
C11_6 C 0.6257(2) 0.3192(6) 0.8582(4)
C12_6 C 0.6604(2) 0.3303(6) 0.8200(4)
H6_6 H 0.6519 0.3052 0.7602
C13_6 C 0.7069(2) 0.3777(7) 0.8695(4)
H7_6 H 0.7299 0.3854 0.8437
C14_6 C 0.57554(19) 0.2647(6) 0.8051(4)
C15_6 C 0.7194(2) 0.8463(6) 0.7761(4)
C16_6 C 0.7000(2) 0.7254(7) 0.7247(4)
H8_6 H 0.7198 0.6462 0.7261
C17_6 C 0.6512(2) 0.7229(7) 0.6713(4)
H9_6 H 0.6378 0.6408 0.6368
C18_6 C 0.6216(2) 0.8404(7) 0.6679(4)
C19_6 C 0.6416(2) 0.9583(7) 0.7207(4)
C20_6 C 0.6905(2) 0.9634(7) 0.7755(4)
C21_6 C 0.5693(2) 0.8440(8) 0.6024(5)
O2_4 O 0.94239(16) 0.6952(6) 0.9734(3)
O4_6 O 0.76944(14) 0.8597(4) 0.8272(3)
O5_6 O 0.54547(14) 0.2631(5) 0.8425(3)
H12_6 H 0.5065 0.4738 0.9018
H13_6 H 0.4565 0.4485 0.8722
O9_6 O 0.4844(2) 0.4252(7) 0.9108(4)
O11_4 O 0.44239(16) 0.1952(6) 0.9734(3)
H13_7 H 0.0435 0.9485 0.6278
O9_7 O 0.0156(2) 0.9252(7) 0.5892(4)
O12_4 O 0.06613(15) 0.7238(5) 0.7265(3)
O14_4 O 0.04270(17) 0.4456(7) 0.6087(4)
C1_7 C 0.5797(2) 0.1110(8) 0.4938(4)
C2_7 C 0.6339(2) 0.1338(7) 0.5211(4)
C3_7 C 0.6596(2) 0.0381(7) 0.4895(4)
C4_7 C 0.7099(2) 0.0523(6) 0.5201(4)
C5_7 C 0.7343(2) 0.1611(6) 0.5788(4)
H2_7 H 0.7678 0.1730 0.5962
C6_7 C 0.70802(19) 0.2525(6) 0.6114(3)
C7_7 C 0.6580(2) 0.2408(7) 0.5820(4)
H3_7 H 0.6406 0.3047 0.6030
C15_7 C 0.7806(2) 0.3463(6) 0.7239(4)
C16_7 C 0.8000(2) 0.2254(7) 0.7753(4)
H8_7 H 0.7802 0.1462 0.7739
C17_7 C 0.8488(2) 0.2229(7) 0.8287(4)
H9_7 H 0.8622 0.1408 0.8632
C18_7 C 0.8784(2) 0.3404(7) 0.8321(4)
C19_7 C 0.8584(2) 0.4583(7) 0.7793(4)
H10_7 H 0.8782 0.5371 0.7803
C20_7 C 0.8095(2) 0.4634(7) 0.7245(4)
H11_7 H 0.7964 0.5444 0.6888
C21_7 C 0.9307(2) 0.3440(8) 0.8976(5)
O4_7 O 0.73056(14) 0.3597(4) 0.6728(3)
O8_4 O 0.95730(17) 0.4456(7) 0.8913(4)
H1_7 H 0.6435 0.9659 0.4486
C8_7 C 0.7808(2) 0.9141(6) 0.5412(4)
C9_7 C 0.8143(2) 0.9034(7) 0.5026(4)
H4_7 H 0.8057 0.9289 0.4429
C10_7 C 0.8609(2) 0.8543(7) 0.5529(4)
H5_7 H 0.8834 0.8449 0.5263
C11_7 C 0.8743(2) 0.8192(6) 0.6418(4)
C12_7 C 0.8396(2) 0.8303(6) 0.6800(4)
H6_7 H 0.8481 0.8052 0.7398
C13_7 C 0.7931(2) 0.8777(7) 0.6305(4)
H7_7 H 0.7701 0.8854 0.6563
C14_7 C 0.92446(19) 0.7647(6) 0.6949(4)
O3_7 O 0.73423(14) 0.9577(5) 0.4862(3)
O5_7 O 0.95453(14) 0.7631(5) 0.6575(3)
O6_4 O 0.93387(15) 0.7238(5) 0.7735(3)
H12_7 H 0.9935 0.9738 0.5982
C1_8 C 0.4203(2) 0.1110(8) 0.0062(4)
C3_8 C 0.3404(2) 0.0381(7) 0.0105(4)
C2_8 C 0.3661(2) 0.1338(7) 0.9789(4)
C4_8 C 0.2901(2) 0.0523(6) 0.9799(4)
C5_8 C 0.2657(2) 0.1611(6) 0.9212(4)
H2_8 H 0.2322 0.1730 0.9038
C6_8 C 0.29198(19) 0.2525(6) 0.8886(3)
C7_8 C 0.3420(2) 0.2408(7) 0.9180(4)
H3_8 H 0.3594 0.3047 0.8970
C15_8 C 0.2194(2) 0.3463(6) 0.7761(4)
C16_8 C 0.2000(2) 0.2254(7) 0.7247(4)
H8_8 H 0.2198 0.1462 0.7261
C17_8 C 0.1512(2) 0.2229(7) 0.6713(4)
H9_8 H 0.1378 0.1408 0.6368
C18_8 C 0.1216(2) 0.3404(7) 0.6679(4)
C19_8 C 0.1416(2) 0.4583(7) 0.7207(4)
H10_8 H 0.1218 0.5371 0.7197
C20_8 C 0.1905(2) 0.4634(7) 0.7755(4)
H11_8 H 0.2036 0.5444 0.8112
C21_8 C 0.0693(2) 0.3440(8) 0.6024(5)
O4_8 O 0.26944(14) 0.3597(4) 0.8272(3)
H1_8 H 0.3565 0.9659 0.0514
H4_8 H 0.1943 0.9289 0.0571
O3_8 O 0.26577(14) 0.9577(5) 0.0138(3)
C8_8 C 0.2192(2) 0.9141(6) 0.9588(4)
C9_8 C 0.1857(2) 0.9034(7) 0.9974(4)
C10_8 C 0.1391(2) 0.8543(7) 0.9471(4)
H5_8 H 0.1166 0.8449 0.9737
C11_8 C 0.1257(2) 0.8192(6) 0.8582(4)
C12_8 C 0.1604(2) 0.8303(6) 0.8200(4)
H6_8 H 0.1519 0.8052 0.7602
C13_8 C 0.2069(2) 0.8777(7) 0.8695(4)
H7_8 H 0.2299 0.8854 0.8437
C14_8 C 0.07554(19) 0.7647(6) 0.8051(4)
O5_8 O 0.04547(14) 0.7631(5) 0.8425(3)
H12_8 H 0.0065 0.9738 0.9018
H13_8 H 0.9565 0.9485 0.8722
O9_8 O 0.9844(2) 0.9252(7) 0.9108(4)
loop_
_geom_bond_atom_site_label_1
_geom_bond_atom_site_label_2
_geom_bond_site_symmetry_1
_geom_bond_site_symmetry_2
Dy1 O5 1_555 1_555
C1 C2 1_555 1_555
C2 C3 1_555 1_555
C3 H1 1_555 1_555
C4 C3 1_555 1_555
C5 C4 1_555 1_555
H2 C5 1_555 1_555
C6 C5 1_555 1_555
C7 C2 1_555 1_555
H3 C7 1_555 1_555
C8 C9 1_555 1_555
C9 H4 1_555 1_555
C10 C9 1_555 1_555
H5 C10 1_555 1_555
C11 C10 1_555 1_555
C12 C11 1_555 1_555
H6 C12 1_555 1_555
C13 C8 1_555 1_555
H7 C13 1_555 1_555
C14 C11 1_555 1_555
C15 C16 1_555 1_555
C16 H8 1_555 1_555
C17 C16 1_555 1_555
H9 C17 1_555 1_555
C18 C17 1_555 1_555
C19 C18 1_555 1_555
C20 C15 1_555 1_555
C21 C18 1_555 1_555
O1 C1 1_555 1_555
O2 C1 1_555 1_555
O3 C4 1_555 1_555
O4 C6 1_555 1_555
O5 C14 1_555 1_555
O6 C14 1_555 1_555
O7 C21 1_555 1_555
O8 C21 1_555 1_555
H12 O9 1_555 1_555
H13 O9 1_555 1_555
O9 Dy1 1_555 1_555
Dy3 O6 1_555 1_555
Dy4 O2 1_555 1_555
O11 Dy1 1_555 1_555
O12 Dy1 1_555 1_555
O13 Dy1 1_555 1_555
C6 C7 1_555 1_555
C8 O3 1_555 1_555
C12 C13 1_555 1_555
C15 O4 1_555 1_555
C19 C20 1_555 1_555
Dy3 O5_2 1_555 1_555
C5_2 C4_2 1_555 1_555
H2_2 C5_2 1_555 1_555
C6_2 C5_2 1_555 1_555
C7_2 C2_2 1_555 1_555
H3_2 C7_2 1_555 1_555
C8_2 C9_2 1_555 1_555
C10_2 C9_2 1_555 1_555
H5_2 C10_2 1_555 1_555
C11_2 C10_2 1_555 1_555
C12_2 C11_2 1_555 1_555
H6_2 C12_2 1_555 1_555
C13_2 C8_2 1_555 1_555
H7_2 C13_2 1_555 1_555
C14_2 C11_2 1_555 1_555
C15_2 C16_2 1_555 1_555
C16_2 H8_2 1_555 1_555
C17_2 C16_2 1_555 1_555
H9_2 C17_2 1_555 1_555
C18_2 C17_2 1_555 1_555
C19_2 C18_2 1_555 1_555
C20_2 C15_2 1_555 1_555
C21_2 C18_2 1_555 1_555
O4_2 C6_2 1_555 1_555
O5_2 C14_2 1_555 1_555
O12 C14_2 1_555 1_555
O7_2 C21_2 1_555 1_555
O14 C21_2 1_555 1_555
H12_2 O9_2 1_555 1_555
H13_2 O9_2 1_555 1_555
O9_2 Dy3 1_555 1_555
Dy4_2 O2_2 1_555 1_555
Dy5_2 O7_2 1_555 1_555
O11_2 Dy3 1_555 1_555
C6_2 C7_2 1_555 1_555
C12_2 C13_2 1_555 1_555
C15_2 O4_2 1_555 1_555
C19_2 C20_2 1_555 1_555
C3_2 H1_2 1_555 1_555
O1_2 C1_2 1_555 1_555
C8_3 C9_3 1_555 1_555
C9_3 H4_3 1_555 1_555
C10_3 C9_3 1_555 1_555
H5_3 C10_3 1_555 1_555
C11_3 C10_3 1_555 1_555
C12_3 C11_3 1_555 1_555
H6_3 C12_3 1_555 1_555
C13_3 C8_3 1_555 1_555
H7_3 C13_3 1_555 1_555
C14_3 C11_3 1_555 1_555
O5_3 C14_3 1_555 1_555
O6_2 C14_3 1_555 1_555
Dy4_2 O6_2 1_555 1_555
C8_3 O3_3 1_555 1_555
C12_3 C13_3 1_555 1_555
C1_3 C2_3 1_555 1_555
C2_3 C3_3 1_555 1_555
C4_3 C3_3 1_555 1_555
C5_3 C4_3 1_555 1_555
H2_3 C5_3 1_555 1_555
C6_3 C5_3 1_555 1_555
C7_3 C2_3 1_555 1_555
H3_3 C7_3 1_555 1_555
C15_3 C16_3 1_555 1_555
C16_3 H8_3 1_555 1_555
C17_3 C16_3 1_555 1_555
H9_3 C17_3 1_555 1_555
C18_3 C17_3 1_555 1_555
C19_3 C18_3 1_555 1_555
H10_3 C19_3 1_555 1_555
C20_3 C15_3 1_555 1_555
H11_3 C20_3 1_555 1_555
C21_3 C18_3 1_555 1_555
O1_3 C1_3 1_555 1_555
O11 C1_3 1_555 1_555
O4_3 C6_3 1_555 1_555
O7_3 C21_3 1_555 1_555
O8_2 C21_3 1_555 1_555
Dy4_2 O8_2 1_555 1_555
C6_3 C7_3 1_555 1_555
C15_3 O4_3 1_555 1_555
C19_3 C20_3 1_555 1_555
H13_3 O9_3 1_555 1_555
O9_3 Dy4 1_555 1_555
O12_2 Dy4 1_555 1_555
O14_2 Dy4 1_555 1_555
H13_4 O9_4 1_555 1_555
O9_4 Dy4_2 1_555 1_555
C8_4 C9_4 1_555 1_555
C10_4 C9_4 1_555 1_555
H5_4 C10_4 1_555 1_555
C11_4 C10_4 1_555 1_555
C12_4 C11_4 1_555 1_555
H6_4 C12_4 1_555 1_555
C13_4 C8_4 1_555 1_555
H7_4 C13_4 1_555 1_555
C14_4 C11_4 1_555 1_555
O5_4 C14_4 1_555 1_555
O12_2 C14_4 1_555 1_555
C12_4 C13_4 1_555 1_555
C5_4 C4_4 1_555 1_555
H2_4 C5_4 1_555 1_555
C6_4 C5_4 1_555 1_555
C7_4 C2_4 1_555 1_555
H3_4 C7_4 1_555 1_555
C15_4 C16_4 1_555 1_555
C16_4 H8_4 1_555 1_555
C17_4 C16_4 1_555 1_555
H9_4 C17_4 1_555 1_555
C18_4 C17_4 1_555 1_555
C19_4 C18_4 1_555 1_555
H10_4 C19_4 1_555 1_555
C20_4 C15_4 1_555 1_555
H11_4 C20_4 1_555 1_555
C21_4 C18_4 1_555 1_555
O4_4 C6_4 1_555 1_555
O7_4 C21_4 1_555 1_555
O14_2 C21_4 1_555 1_555
C6_4 C7_4 1_555 1_555
C15_4 O4_4 1_555 1_555
C19_4 C20_4 1_555 1_555
O1_4 C1_4 1_555 1_555
Dy5_2 O5_5 1_555 1_555
C1_5 C2_5 1_555 1_555
C2_5 C3_5 1_555 1_555
C3_5 H1_5 1_555 1_555
C4_5 C3_5 1_555 1_555
C5_5 C4_5 1_555 1_555
H2_5 C5_5 1_555 1_555
C6_5 C5_5 1_555 1_555
C7_5 C2_5 1_555 1_555
H3_5 C7_5 1_555 1_555
C8_5 C9_5 1_555 1_555
C9_5 H4_5 1_555 1_555
C10_5 C9_5 1_555 1_555
H5_5 C10_5 1_555 1_555
C11_5 C10_5 1_555 1_555
C12_5 C11_5 1_555 1_555
H6_5 C12_5 1_555 1_555
C13_5 C8_5 1_555 1_555
H7_5 C13_5 1_555 1_555
C14_5 C11_5 1_555 1_555
C15_5 C16_5 1_555 1_555
C16_5 H8_5 1_555 1_555
C17_5 C16_5 1_555 1_555
H9_5 C17_5 1_555 1_555
C18_5 C17_5 1_555 1_555
C19_5 C18_5 1_555 1_555
C20_5 C15_5 1_555 1_555
C21_5 C18_5 1_555 1_555
O10_3 C1_5 1_555 1_555
O2_3 C1_5 1_555 1_555
O3_5 C4_5 1_555 1_555
O4_5 C6_5 1_555 1_555
O5_5 C14_5 1_555 1_555
O6_3 C14_5 1_555 1_555
O13_2 C21_5 1_555 1_555
O8_3 C21_5 1_555 1_555
H12_5 O9_5 1_555 1_555
H13_5 O9_5 1_555 1_555
O9_5 Dy5_2 1_555 1_555
Dy5 O6_3 1_555 1_555
Dy6 O2_3 1_555 1_555
O11_3 Dy5_2 1_555 1_555
O12_3 Dy5_2 1_555 1_555
C6_5 C7_5 1_555 1_555
C8_5 O3_5 1_555 1_555
C12_5 C13_5 1_555 1_555
C15_5 O4_5 1_555 1_555
C19_5 C20_5 1_555 1_555
C3_6 H1_6 1_555 1_555
O10_4 C1_6 1_555 1_555
Dy5 O5_6 1_555 1_555
C5_6 C4_6 1_555 1_555
H2_6 C5_6 1_555 1_555
C6_6 C5_6 1_555 1_555
C7_6 C2_6 1_555 1_555
H3_6 C7_6 1_555 1_555
C8_6 C9_6 1_555 1_555
C10_6 C9_6 1_555 1_555
H5_6 C10_6 1_555 1_555
C11_6 C10_6 1_555 1_555
C12_6 C11_6 1_555 1_555
H6_6 C12_6 1_555 1_555
C13_6 C8_6 1_555 1_555
H7_6 C13_6 1_555 1_555
C14_6 C11_6 1_555 1_555
C15_6 C16_6 1_555 1_555
C16_6 H8_6 1_555 1_555
C17_6 C16_6 1_555 1_555
H9_6 C17_6 1_555 1_555
C18_6 C17_6 1_555 1_555
C19_6 C18_6 1_555 1_555
C20_6 C15_6 1_555 1_555
C21_6 C18_6 1_555 1_555
O4_6 C6_6 1_555 1_555
O5_6 C14_6 1_555 1_555
O12_3 C14_6 1_555 1_555
O13 C21_6 1_555 1_555
O14_3 C21_6 1_555 1_555
H12_6 O9_6 1_555 1_555
H13_6 O9_6 1_555 1_555
O9_6 Dy5 1_555 1_555
Dy6_2 O2_4 1_555 1_555
O11_4 Dy5 1_555 1_555
C6_6 C7_6 1_555 1_555
C12_6 C13_6 1_555 1_555
C15_6 O4_6 1_555 1_555
C19_6 C20_6 1_555 1_555
H13_7 O9_7 1_555 1_555
O9_7 Dy6 1_555 1_555
O12_4 Dy6 1_555 1_555
O14_4 Dy6 1_555 1_555
C1_7 C2_7 1_555 1_555
C2_7 C3_7 1_555 1_555
C4_7 C3_7 1_555 1_555
C5_7 C4_7 1_555 1_555
H2_7 C5_7 1_555 1_555
C6_7 C5_7 1_555 1_555
C7_7 C2_7 1_555 1_555
H3_7 C7_7 1_555 1_555
C15_7 C16_7 1_555 1_555
C16_7 H8_7 1_555 1_555
C17_7 C16_7 1_555 1_555
H9_7 C17_7 1_555 1_555
C18_7 C17_7 1_555 1_555
C19_7 C18_7 1_555 1_555
H10_7 C19_7 1_555 1_555
C20_7 C15_7 1_555 1_555
H11_7 C20_7 1_555 1_555
C21_7 C18_7 1_555 1_555
O10 C1_7 1_555 1_555
O11_3 C1_7 1_555 1_555
O4_7 C6_7 1_555 1_555
O13_4 C21_7 1_555 1_555
O8_4 C21_7 1_555 1_555
Dy6_2 O8_4 1_555 1_555
C6_7 C7_7 1_555 1_555
C15_7 O4_7 1_555 1_555
C19_7 C20_7 1_555 1_555
C8_7 C9_7 1_555 1_555
C9_7 H4_7 1_555 1_555
C10_7 C9_7 1_555 1_555
H5_7 C10_7 1_555 1_555
C11_7 C10_7 1_555 1_555
C12_7 C11_7 1_555 1_555
H6_7 C12_7 1_555 1_555
C13_7 C8_7 1_555 1_555
H7_7 C13_7 1_555 1_555
C14_7 C11_7 1_555 1_555
O5_7 C14_7 1_555 1_555
O6_4 C14_7 1_555 1_555
Dy6_2 O6_4 1_555 1_555
C8_7 O3_7 1_555 1_555
C12_7 C13_7 1_555 1_555
O10_2 C1_8 1_555 1_555
C5_8 C4_8 1_555 1_555
H2_8 C5_8 1_555 1_555
C6_8 C5_8 1_555 1_555
C7_8 C2_8 1_555 1_555
H3_8 C7_8 1_555 1_555
C15_8 C16_8 1_555 1_555
C16_8 H8_8 1_555 1_555
C17_8 C16_8 1_555 1_555
H9_8 C17_8 1_555 1_555
C18_8 C17_8 1_555 1_555
C19_8 C18_8 1_555 1_555
H10_8 C19_8 1_555 1_555
C20_8 C15_8 1_555 1_555
H11_8 C20_8 1_555 1_555
C21_8 C18_8 1_555 1_555
O4_8 C6_8 1_555 1_555
O13_3 C21_8 1_555 1_555
O14_4 C21_8 1_555 1_555
C6_8 C7_8 1_555 1_555
C15_8 O4_8 1_555 1_555
C19_8 C20_8 1_555 1_555
C8_8 C9_8 1_555 1_555
C10_8 C9_8 1_555 1_555
H5_8 C10_8 1_555 1_555
C11_8 C10_8 1_555 1_555
C12_8 C11_8 1_555 1_555
H6_8 C12_8 1_555 1_555
C13_8 C8_8 1_555 1_555
H7_8 C13_8 1_555 1_555
C14_8 C11_8 1_555 1_555
O5_8 C14_8 1_555 1_555
O12_4 C14_8 1_555 1_555
C12_8 C13_8 1_555 1_555
H13_8 O9_8 1_555 1_555
O9_8 Dy6_2 1_555 1_555

#END
