
###############################################################################
#
# This file contains modified crystal structure data generated from the
# MOF subset of the Cambridge Structural Database (CSD) v543 
# hosted by the Cambridge Crystallographic Data Centre (CCDC).
#
# This work is licensed under the Creative Commons
# Attribution-NonCommercial-ShareAlike 4.0 International License.
# To view a copy of this license, visit
# http://creativecommons.org/licenses/by-nc-sa/4.0/
# or send a letter to
# Creative Commons, PO Box 1866, Mountain View, CA 94042, USA.
#
# CIF created using the CSD Python API on 29 September 2022
# The structure has been converted into the P1 space group
# The structure has a 3D framework
# The original CSD entry QUMJIT is in the triclinic crystal system
# The framework has been calculated to contain at least 10.0% void space
# The void calculation uses a probe of radius 1.32A, grid spacing 0.4
#
###############################################################################

data_QUMJIT
_chemical_formula_moiety         '(C168 H112 Er8 O70)n'
_symmetry_cell_setting           triclinic
_symmetry_space_group_name_H-M   'P 1'
_symmetry_Int_Tables_number      1
_space_group_name_Hall           'P 1'
loop_
_symmetry_equiv_pos_site_id
_symmetry_equiv_pos_as_xyz
1 x,y,z
_cell_length_a                   15.4665(9)
_cell_length_b                   17.9199(10)
_cell_length_c                   19.0498(10)
_cell_angle_alpha                104.458(5)
_cell_angle_beta                 107.334(5)
_cell_angle_gamma                111.725(5)
_cell_volume                     4278.97
loop_
_atom_site_label
_atom_site_type_symbol
_atom_site_fract_x
_atom_site_fract_y
_atom_site_fract_z
C6 C 0.1215(9) 0.0002(7) 0.2007(8)
H4 H 0.1614 0.0582 0.2095
H41 H 0.1661 0.0467 0.7191
O44 O 0.4346(6) 0.0416(5) 0.3772(5)
O49 O 0.4195(8) 0.8415(6) 0.0001(6)
O1 O 0.2569(6) 0.8544(5) 0.2726(4)
C1 C 0.1604(8) 0.8178(7) 0.2448(6)
C2 C 0.1104(8) 0.8675(7) 0.2154(6)
O2 O 0.1036(6) 0.7412(5) 0.2348(5)
C3 C 0.0007(9) 0.8268(7) 0.1731(8)
C4 C 0.1687(9) 0.9540(8) 0.2283(8)
H2 H 0.2403 0.9814 0.2558
C7 C 0.0167(9) 0.9604(7) 0.1607(7)
O9 O 0.2569(7) 0.7580(6) 0.3730(5)
H12 H 0.2252 0.7769 0.3959
H13 H 0.2880 0.7395 0.4035
O10 O 0.5256(6) 0.1128(5) 0.5100(5)
O12 O 0.2075(6) 0.5819(6) 0.3332(5)
C22 C 0.1877(8) 0.5247(7) 0.3617(7)
C23 C 0.2628(8) 0.4908(7) 0.3816(6)
O13 O 0.1093(6) 0.4938(5) 0.3771(5)
C24 C 0.2434(8) 0.4262(7) 0.4098(7)
C25 C 0.3468(8) 0.5210(7) 0.3630(7)
H14 H 0.1864 0.4062 0.4209
C26 C 0.3104(9) 0.3912(7) 0.4216(7)
C27 C 0.4114(9) 0.4840(7) 0.3763(8)
H15 H 0.3589 0.5640 0.3426
O14 O 0.7740(6) 0.3537(5) 0.2902(5)
C28 C 0.3941(9) 0.4196(7) 0.4071(7)
O15 O 0.2874(7) 0.3274(5) 0.4522(5)
O16 O 0.4976(7) 0.5198(5) 0.3625(6)
H16 H 0.4396 0.3970 0.4174
C29 C 0.3358(9) 0.2757(8) 0.4481(8)
C30 C 0.5365(9) 0.4641(8) 0.3365(8)
C31 C 0.3898(9) 0.2731(7) 0.5185(7)
C32 C 0.3248(9) 0.2254(8) 0.3756(7)
C33 C 0.4772(10) 0.3826(9) 0.2777(8)
C34 C 0.6438(9) 0.5027(8) 0.3705(8)
H17 H 0.3953 0.3074 0.5668
C35 C 0.4353(10) 0.2207(7) 0.5182(7)
C36 C 0.3691(10) 0.1695(7) 0.3741(7)
H18 H 0.2889 0.2281 0.3284
H19 H 0.4057 0.3577 0.2558
C37 C 0.5226(9) 0.3354(7) 0.2497(8)
C38 C 0.6876(9) 0.4540(8) 0.3441(7)
H20 H 0.6847 0.5598 0.4099
O17 O 0.6240(6) 0.2526(6) 0.1940(5)
H21 H 0.4729 0.2205 0.5663
C39 C 0.4258(8) 0.1679(6) 0.4465(6)
H22 H 0.3610 0.1336 0.3254
H23 H 0.4813 0.2801 0.2074
C40 C 0.6303(8) 0.3705(7) 0.2850(6)
H24 H 0.7592 0.4789 0.3674
C41 C 0.4646(8) 0.1042(7) 0.4451(7)
C42 C 0.6801(8) 0.3234(7) 0.2562(7)
O26 O 0.0811(7) 0.6063(6) 0.1044(5)
H36 H 0.1344 0.6129 0.0967
H37 H 0.0649 0.6447 0.0957
O29 O 0.0395(6) 0.6221(5) 0.3284(5)
O30 O 0.0706(6) 0.7081(5) 0.7050(5)
C64 C 0.1320(8) 0.7884(7) 0.7330(6)
C65 C 0.0913(8) 0.8454(7) 0.7050(6)
O32 O 0.2239(7) 0.8254(6) 0.7793(5)
C67 C 0.1597(10) 0.9336(8) 0.7291(7)
H39 H 0.2298 0.9565 0.7608
C69 C 0.1211(10) 0.9881(8) 0.7048(7)
C70 C 0.0159(9) 0.9534(8) 0.6595(7)
O35 O 0.2248(8) 0.7537(8) 0.8936(7)
H49 H 0.1803 0.7708 0.8938
H50 H 0.1968 0.7052 0.8534
O36 O 0.4157(7) 0.9369(5) 0.8080(5)
H51 H 0.4806 0.9715 0.8318
H52 H 0.3839 0.9664 0.8024
O37 O 0.4444(7) 0.9244(6) 0.2618(5)
H53 H 0.4953 0.9751 0.2782
H54 H 0.4589 0.8853 0.2416
Er1 Er 0.41106(4) 0.90469(3) 0.37611(3)
Er3 Er 0.11410(4) 0.61884(3) 0.24000(3)
Er4 Er 0.36814(4) 0.85856(3) 0.88404(3)
O39 O 0.0938(7) 0.4809(5) 0.1674(5)
O41 O 0.3540(6) 0.9718(5) 0.9483(5)
O42 O 0.5441(6) 0.9227(5) 0.9290(5)
O43 O 0.4744(6) 0.8872(5) 0.4900(5)
O46 O 0.3760(6) 0.7474(6) 0.8060(5)
O47 O 0.4215(6) 0.7836(4) 0.3127(4)
O48 O 0.2656(6) 0.6710(5) 0.2328(5)
O50 O 0.3222(6) 0.9427(5) 0.4448(5)
O51 O 0.5913(6) 0.9769(5) 0.4245(5)
Er8 Er 0.58894(4) 0.09531(3) 0.62389(3)
Er9 Er 0.93597(4) 0.42508(3) 0.30579(3)
Er11 Er 0.06403(4) 0.57492(3) 0.69421(3)
Er16 Er 0.63186(4) 0.14144(3) 0.11596(3)
O5 O 0.0109(8) 0.6028(7) 0.7915(5)
O4 O 0.9756(7) 0.0122(5) 0.1367(5)
H5 H 0.8134 0.0281 0.1101
O7 O 0.6460(6) 0.0282(5) 0.0517(5)
O27 O 0.6778(6) 0.0573(5) 0.5552(5)
O33 O 0.9843(6) 0.0113(5) 0.6426(5)
C72 C 0.8315(9) 0.0098(7) 0.5664(7)
H42 H 0.8387 0.0485 0.6133
C76 C 0.6654(8) 0.0068(7) 0.4890(6)
C5 C 0.9556(10) 0.8738(9) 0.1446(8)
H1 H 0.9597 0.7692 0.1647
H3 H 0.8844 0.8470 0.1147
C8 C 0.8867(9) 0.9689(7) 0.0645(7)
C9 C 0.8063(9) 0.9887(7) 0.0637(7)
O19 O 0.9374(6) 0.5454(5) 0.1655(5)
C43 C 0.8571(9) 0.5086(7) 0.1759(7)
C44 C 0.7710(8) 0.5310(7) 0.1440(6)
O21 O 0.8445(6) 0.4598(5) 0.2118(5)
C45 C 0.7788(8) 0.5865(7) 0.1054(7)
C46 C 0.6890(9) 0.5011(7) 0.1628(7)
H25 H 0.8350 0.6071 0.0935
C47 C 0.7042(9) 0.6125(7) 0.0838(7)
C48 C 0.6148(9) 0.5255(7) 0.1418(7)
H26 H 0.6842 0.4643 0.1900
C49 C 0.6192(9) 0.5806(8) 0.0987(7)
O22 O 0.7179(7) 0.6711(6) 0.0469(5)
O23 O 0.5299(6) 0.4917(5) 0.1577(5)
H27 H 0.5664 0.5942 0.0813
C50 C 0.6622(11) 0.7167(8) 0.0515(8)
C51 C 0.4936(9) 0.5498(8) 0.1823(8)
C53 C 0.6792(10) 0.7715(8) 0.1264(7)
C54 C 0.5567(9) 0.6351(8) 0.2375(7)
C55 C 0.3869(10) 0.5127(8) 0.1570(8)
C57 C 0.6201(10) 0.8149(8) 0.1288(7)
H29 H 0.7285 0.7790 0.1736
H30 H 0.6280 0.6587 0.2573
C58 C 0.5158(9) 0.6855(7) 0.2635(7)
C59 C 0.3467(9) 0.5634(7) 0.1833(8)
H31 H 0.3438 0.4537 0.1225
C60 C 0.5481(10) 0.8050(8) 0.0597(7)
H33 H 0.6302 0.8511 0.1783
H34 H 0.5593 0.7437 0.3001
C61 C 0.4106(8) 0.6510(7) 0.2359(7)
H35 H 0.2756 0.5392 0.1658
C62 C 0.4803(10) 0.8463(8) 0.0614(8)
C63 C 0.3632(8) 0.7077(7) 0.2646(6)
O25 O 0.4916(8) 0.8875(6) 0.1294(6)
O31 O 0.9498(6) 0.5572(5) 0.3845(5)
C66 C 0.9862(9) 0.8125(7) 0.6602(7)
C68 C 0.9472(10) 0.8666(9) 0.6377(7)
H38 H 0.9409 0.7536 0.6449
H40 H 0.8766 0.8444 0.6087
C71 C 0.9021(8) 0.9803(7) 0.5701(6)
C73 C 0.8946(9) 0.9252(7) 0.5005(7)
C74 C 0.7493(8) 0.9830(7) 0.4938(6)
H43 H 0.9459 0.9095 0.5019
C75 C 0.8084(9) 0.8936(7) 0.4277(7)
C77 C 0.7380(8) 0.9230(7) 0.4225(6)
O34 O 0.7945(7) 0.8362(6) 0.3565(4)
H44 H 0.6835 0.9041 0.3732
C78 C 0.8429(10) 0.7840(8) 0.3629(7)
C79 C 0.8308(10) 0.7333(8) 0.4057(8)
C80 C 0.9017(9) 0.7828(7) 0.3198(7)
H45 H 0.7925 0.7351 0.4350
C81 C 0.8753(9) 0.6792(7) 0.4057(7)
C82 C 0.9457(9) 0.7270(7) 0.3192(7)
H46 H 0.9116 0.8187 0.2919
H47 H 0.8659 0.6437 0.4340
C83 C 0.9348(8) 0.6781(7) 0.3627(7)
H48 H 0.9823 0.7237 0.2887
C84 C 0.9805(8) 0.6161(7) 0.3586(7)
O38 O 0.9611(7) 0.4198(6) 0.4334(5)
H55 H 0.9682 0.4668 0.4651
H56 H 0.9087 0.3759 0.4278
O40 O 0.9891(8) 0.3972(7) 0.2085(5)
O52 O 0.9294(6) 0.2919(5) 0.2950(5)
O3 O 0.9062(7) 0.5191(5) 0.8326(5)
C10 C 0.8784(9) 0.9135(8) 0.9958(7)
C11 C 0.7174(8) 0.9488(7) 0.9935(7)
H6 H 0.9332 0.9033 0.9962
C12 C 0.7897(9) 0.8736(7) 0.9269(7)
C13 C 0.6306(8) 0.9686(7) 0.9923(6)
C14 C 0.7087(9) 0.8915(7) 0.9246(7)
O6 O 0.7743(7) 0.8171(6) 0.8554(5)
H7 H 0.6489 0.8649 0.8768
C15 C 0.8257(9) 0.7663(8) 0.8570(8)
C16 C 0.8208(10) 0.7151(8) 0.8993(8)
C17 C 0.8800(10) 0.7677(8) 0.8080(8)
H8 H 0.7906 0.7184 0.9347
C18 C 0.8605(10) 0.6587(7) 0.8895(8)
C19 C 0.9217(10) 0.7130(8) 0.8022(7)
H9 H 0.8866 0.8048 0.7811
H10 H 0.8543 0.6219 0.9167
C20 C 0.9092(9) 0.6554(7) 0.8403(7)
H11 H 0.9594 0.7140 0.7722
C21 C 0.9475(10) 0.5889(8) 0.8195(7)
C52 C 0.5913(10) 0.7071(8) 0.9819(8)
H28 H 0.5824 0.6718 0.9325
C56 C 0.5327(10) 0.7494(8) 0.9843(7)
H32 H 0.4835 0.7415 0.9367
Er13 Er 0.88590(4) 0.38116(3) 0.76000(3)
C10_2 C 0.1216(9) 0.0865(8) 0.0042(7)
C11_2 C 0.2826(8) 0.0512(7) 0.0065(7)
H6_2 H 0.0668 0.0967 0.0038
C12_2 C 0.2103(9) 0.1264(7) 0.0731(7)
C13_2 C 0.3694(8) 0.0314(7) 0.0077(6)
C14_2 C 0.2913(9) 0.1085(7) 0.0754(7)
O6_2 O 0.2257(7) 0.1829(6) 0.1446(5)
O8 O 0.4559(6) 0.0773(5) 0.0710(5)
H7_2 H 0.3511 0.1351 0.1232
C15_2 C 0.1743(9) 0.2337(8) 0.1430(8)
C16_2 C 0.1792(10) 0.2849(8) 0.1007(8)
C17_2 C 0.1200(10) 0.2323(8) 0.1920(8)
H8_2 H 0.2094 0.2816 0.0653
C18_2 C 0.1395(10) 0.3413(7) 0.1105(8)
C19_2 C 0.0783(10) 0.2870(8) 0.1978(7)
H9_2 H 0.1134 0.1952 0.2189
H10_2 H 0.1457 0.3781 0.0833
C20_2 C 0.0908(9) 0.3446(7) 0.1597(7)
H11_2 H 0.0406 0.2860 0.2278
C21_2 C 0.0525(10) 0.4111(8) 0.1805(7)
C52_2 C 0.4087(10) 0.2929(8) 0.0181(8)
H28_2 H 0.4176 0.3282 0.0675
C56_2 C 0.4673(10) 0.2506(8) 0.0157(7)
H32_2 H 0.5165 0.2585 0.0633
C5_2 C 0.0444(10) 0.1262(9) 0.8554(8)
H1_2 H 0.0403 0.2308 0.8353
H3_2 H 0.1156 0.1530 0.8853
C8_2 C 0.1133(9) 0.0311(7) 0.9355(7)
C9_2 C 0.1937(9) 0.0113(7) 0.9363(7)
O18 O 0.5785(6) 0.2164(4) 0.6873(4)
O19_2 O 0.0626(6) 0.4546(5) 0.8345(5)
O20 O 0.7344(6) 0.3290(5) 0.7672(5)
C43_2 C 0.1429(9) 0.4914(7) 0.8241(7)
C44_2 C 0.2290(8) 0.4690(7) 0.8560(6)
O21_2 O 0.1555(6) 0.5402(5) 0.7882(5)
C45_2 C 0.2212(8) 0.4135(7) 0.8946(7)
C46_2 C 0.3110(9) 0.4989(7) 0.8372(7)
H25_2 H 0.1650 0.3929 0.9065
C47_2 C 0.2958(9) 0.3875(7) 0.9162(7)
C48_2 C 0.3852(9) 0.4745(7) 0.8582(7)
H26_2 H 0.3158 0.5357 0.8100
C49_2 C 0.3808(9) 0.4194(8) 0.9013(7)
O22_2 O 0.2821(7) 0.3289(6) 0.9531(5)
O23_2 O 0.4701(6) 0.5083(5) 0.8423(5)
H27_2 H 0.4336 0.4058 0.9187
C50_2 C 0.3378(11) 0.2833(8) 0.9485(8)
C51_2 C 0.5064(9) 0.4502(8) 0.8177(8)
C53_2 C 0.3208(10) 0.2285(8) 0.8736(7)
C54_2 C 0.4433(9) 0.3649(8) 0.7625(7)
C55_2 C 0.6131(10) 0.4873(8) 0.8430(8)
O24 O 0.5805(8) 0.1585(6) 0.9999(6)
C57_2 C 0.3799(10) 0.1851(8) 0.8712(7)
H29_2 H 0.2715 0.2210 0.8264
H30_2 H 0.3720 0.3413 0.7427
C58_2 C 0.4842(9) 0.3145(7) 0.7365(7)
C59_2 C 0.6533(9) 0.4366(7) 0.8167(8)
H31_2 H 0.6562 0.5463 0.8775
C60_2 C 0.4519(10) 0.1950(8) 0.9403(7)
H33_2 H 0.3698 0.1489 0.8217
H34_2 H 0.4407 0.2563 0.6999
C61_2 C 0.5894(8) 0.3490(7) 0.7641(7)
H35_2 H 0.7244 0.4608 0.8342
C62_2 C 0.5197(10) 0.1537(8) 0.9386(8)
C63_2 C 0.6368(8) 0.2923(7) 0.7354(6)
O25_2 O 0.5084(8) 0.1125(6) 0.8706(6)
O28 O 0.4087(6) 0.0231(5) 0.5755(5)
O31_2 O 0.0502(6) 0.4428(5) 0.6155(5)
C66_2 C 0.0138(9) 0.1875(7) 0.3398(7)
C68_2 C 0.0528(10) 0.1334(9) 0.3623(7)
H38_2 H 0.0591 0.2464 0.3551
H40_2 H 0.1234 0.1556 0.3913
C71_2 C 0.0979(8) 0.0197(7) 0.4299(6)
C73_2 C 0.1054(9) 0.0748(7) 0.4995(7)
C74_2 C 0.2507(8) 0.0170(7) 0.5062(6)
H43_2 H 0.0541 0.0905 0.4981
C75_2 C 0.1916(9) 0.1064(7) 0.5723(7)
C77_2 C 0.2620(8) 0.0770(7) 0.5775(6)
O34_2 O 0.2055(7) 0.1638(6) 0.6435(4)
H44_2 H 0.3165 0.0959 0.6268
C78_2 C 0.1571(10) 0.2160(8) 0.6371(7)
C79_2 C 0.1692(10) 0.2667(8) 0.5943(8)
C80_2 C 0.0983(9) 0.2172(7) 0.6802(7)
H45_2 H 0.2075 0.2649 0.5650
C81_2 C 0.1247(9) 0.3208(7) 0.5943(7)
C82_2 C 0.0543(9) 0.2730(7) 0.6808(7)
H46_2 H 0.0884 0.1813 0.7081
H47_2 H 0.1341 0.3563 0.5660
C83_2 C 0.0652(8) 0.3219(7) 0.6373(7)
H48_2 H 0.0177 0.2763 0.7113
C84_2 C 0.0195(8) 0.3839(7) 0.6414(7)
O38_2 O 0.0389(7) 0.5802(6) 0.5666(5)
H55_2 H 0.0318 0.5332 0.5349
H56_2 H 0.0913 0.6241 0.5722
O45 O 0.2260(6) 0.6463(5) 0.7098(5)
O4_2 O 0.0244(7) 0.9878(5) 0.8633(5)
H5_2 H 0.1866 0.9719 0.8899
O33_2 O 0.0157(6) 0.9887(5) 0.3574(5)
C72_2 C 0.1685(9) 0.9902(7) 0.4336(7)
H42_2 H 0.1613 0.9515 0.3867
C76_2 C 0.3346(8) 0.9932(7) 0.5110(6)
O1_2 O 0.7431(6) 0.1456(5) 0.7274(4)
C1_2 C 0.8396(8) 0.1822(7) 0.7552(6)
C2_2 C 0.8896(8) 0.1325(7) 0.7846(6)
O2_2 O 0.8964(6) 0.2588(5) 0.7652(5)
C3_2 C 0.9993(9) 0.1732(7) 0.8269(8)
C4_2 C 0.8313(9) 0.0460(8) 0.7717(8)
H2_2 H 0.7597 0.0186 0.7442
C7_2 C 0.9833(9) 0.0396(7) 0.8393(7)
O9_2 O 0.7431(7) 0.2420(6) 0.6270(5)
H12_2 H 0.7748 0.2231 0.6041
H13_2 H 0.7120 0.2605 0.5965
O11 O 0.5654(6) 0.9584(5) 0.6228(5)
O12_2 O 0.7925(6) 0.4181(6) 0.6668(5)
C22_2 C 0.8123(8) 0.4753(7) 0.6383(7)
C23_2 C 0.7372(8) 0.5092(7) 0.6184(6)
O13_2 O 0.8907(6) 0.5062(5) 0.6229(5)
C24_2 C 0.7566(8) 0.5738(7) 0.5902(7)
C25_2 C 0.6532(8) 0.4790(7) 0.6370(7)
H14_2 H 0.8136 0.5938 0.5791
C26_2 C 0.6896(9) 0.6088(7) 0.5784(7)
C27_2 C 0.5886(9) 0.5160(7) 0.6237(8)
H15_2 H 0.6411 0.4360 0.6574
C28_2 C 0.6059(9) 0.5804(7) 0.5929(7)
O15_2 O 0.7126(7) 0.6726(5) 0.5478(5)
O16_2 O 0.5024(7) 0.4802(5) 0.6375(6)
H16_2 H 0.5604 0.6030 0.5826
C29_2 C 0.6642(9) 0.7243(8) 0.5519(8)
C30_2 C 0.4635(9) 0.5359(8) 0.6635(8)
C31_2 C 0.6102(9) 0.7269(7) 0.4815(7)
C32_2 C 0.6752(9) 0.7746(8) 0.6244(7)
C33_2 C 0.5228(10) 0.6174(9) 0.7223(8)
C34_2 C 0.3562(9) 0.4973(8) 0.6295(8)
H17_2 H 0.6047 0.6926 0.4332
C35_2 C 0.5647(10) 0.7793(7) 0.4818(7)
C36_2 C 0.6309(10) 0.8305(7) 0.6259(7)
H18_2 H 0.7111 0.7719 0.6716
H19_2 H 0.5943 0.6423 0.7442
C37_2 C 0.4774(9) 0.6646(7) 0.7503(8)
C38_2 C 0.3124(9) 0.5460(8) 0.6559(7)
H20_2 H 0.3153 0.4402 0.5901
H21_2 H 0.5271 0.7795 0.4337
C39_2 C 0.5742(8) 0.8321(6) 0.5535(6)
H22_2 H 0.6390 0.8664 0.6746
H23_2 H 0.5187 0.7199 0.7926
C40_2 C 0.3697(8) 0.6295(7) 0.7150(6)
H24_2 H 0.2408 0.5211 0.6326
C41_2 C 0.5354(8) 0.8958(7) 0.5549(7)
C42_2 C 0.3199(8) 0.6766(7) 0.7438(7)
O26_2 O 0.9189(7) 0.3937(6) 0.8956(5)
H36_2 H 0.8656 0.3871 0.9033
H37_2 H 0.9351 0.3553 0.9043
O29_2 O 0.9605(6) 0.3779(5) 0.6716(5)
C64_2 C 0.8680(8) 0.2116(7) 0.2670(6)
C65_2 C 0.9087(8) 0.1546(7) 0.2950(6)
O32_2 O 0.7761(7) 0.1746(6) 0.2207(5)
C67_2 C 0.8403(10) 0.0664(8) 0.2709(7)
H39_2 H 0.7702 0.0435 0.2392
C69_2 C 0.8789(10) 0.0119(8) 0.2952(7)
C70_2 C 0.9841(9) 0.0466(8) 0.3405(7)
O35_2 O 0.7752(8) 0.2463(8) 0.1064(7)
H49_2 H 0.8197 0.2292 0.1062
H50_2 H 0.8032 0.2948 0.1466
O36_2 O 0.5843(7) 0.0631(5) 0.1920(5)
H51_2 H 0.5194 0.0285 0.1682
H52_2 H 0.6161 0.0336 0.1976
O37_2 O 0.5556(7) 0.0756(6) 0.7382(5)
H53_2 H 0.5047 0.0249 0.7218
H54_2 H 0.5411 0.1147 0.7584
C6_2 C 0.8785(9) 0.9998(7) 0.7993(8)
H4_2 H 0.8386 0.9418 0.7905
H41_2 H 0.8339 0.9533 0.2809
loop_
_geom_bond_atom_site_label_1
_geom_bond_atom_site_label_2
_geom_bond_site_symmetry_1
_geom_bond_site_symmetry_2
H4 C6 1_555 1_555
O1 C1 1_555 1_555
C1 C2 1_555 1_555
C2 C3 1_555 1_555
O2 C1 1_555 1_555
C4 C2 1_555 1_555
H2 C4 1_555 1_555
O9 H12 1_555 1_555
H13 O9 1_555 1_555
O10 C41 1_555 1_555
O44 C41 1_555 1_555
O12 C22 1_555 1_555
C22 C23 1_555 1_555
C23 C24 1_555 1_555
O13 C22 1_555 1_555
C24 H14 1_555 1_555
C25 C23 1_555 1_555
C26 C24 1_555 1_555
C27 C25 1_555 1_555
H15 C25 1_555 1_555
O14 C42 1_555 1_555
C28 C26 1_555 1_555
O15 C26 1_555 1_555
O16 C27 1_555 1_555
H16 C28 1_555 1_555
C29 O15 1_555 1_555
C30 O16 1_555 1_555
C31 C29 1_555 1_555
C32 C29 1_555 1_555
C33 C30 1_555 1_555
C34 C30 1_555 1_555
H17 C31 1_555 1_555
C35 C31 1_555 1_555
C36 C32 1_555 1_555
H18 C32 1_555 1_555
H19 C33 1_555 1_555
C37 C33 1_555 1_555
C38 C34 1_555 1_555
H20 C34 1_555 1_555
O17 C42 1_555 1_555
H21 C35 1_555 1_555
C39 C35 1_555 1_555
H22 C36 1_555 1_555
H23 C37 1_555 1_555
C40 C37 1_555 1_555
H24 C38 1_555 1_555
C41 C39 1_555 1_555
C42 C40 1_555 1_555
O26 H36 1_555 1_555
H37 O26 1_555 1_555
O30 C64 1_555 1_555
C64 C65 1_555 1_555
O32 C64 1_555 1_555
C67 C65 1_555 1_555
H39 C67 1_555 1_555
C69 C67 1_555 1_555
C70 C69 1_555 1_555
O35 H49 1_555 1_555
H50 O35 1_555 1_555
O36 H51 1_555 1_555
H52 O36 1_555 1_555
O37 H53 1_555 1_555
H54 O37 1_555 1_555
Er1 O1 1_555 1_555
Er3 O2 1_555 1_555
Er4 O32 1_555 1_555
O39 Er3 1_555 1_555
O41 Er4 1_555 1_555
O42 Er4 1_555 1_555
O43 Er1 1_555 1_555
O46 Er4 1_555 1_555
O47 Er1 1_555 1_555
O48 Er3 1_555 1_555
O50 Er1 1_555 1_555
O51 Er1 1_555 1_555
Er8 O10 1_555 1_555
Er9 O14 1_555 1_555
Er11 O30 1_555 1_555
Er16 O17 1_555 1_555
O9 Er1 1_555 1_555
O9 Er3 1_555 1_555
O12 Er3 1_555 1_555
C27 C28 1_555 1_555
C36 C39 1_555 1_555
C38 C40 1_555 1_555
O26 Er3 1_555 1_555
O29 Er3 1_555 1_555
O35 Er4 1_555 1_555
O36 Er4 1_555 1_555
O37 Er1 1_555 1_555
Er11 O5 1_555 1_555
O27 C76 1_555 1_555
H42 C72 1_555 1_555
Er8 O27 1_555 1_555
Er16 O7 1_555 1_555
H3 C5 1_555 1_555
C9 C8 1_555 1_555
O47 C63 1_555 1_555
O19 C43 1_555 1_555
O48 C63 1_555 1_555
C43 C44 1_555 1_555
C44 C45 1_555 1_555
O21 C43 1_555 1_555
C45 H25 1_555 1_555
C46 C44 1_555 1_555
C47 C45 1_555 1_555
C48 C46 1_555 1_555
H26 C46 1_555 1_555
C49 C47 1_555 1_555
O22 C47 1_555 1_555
O23 C48 1_555 1_555
H27 C49 1_555 1_555
C50 O22 1_555 1_555
C51 O23 1_555 1_555
C53 C50 1_555 1_555
C54 C51 1_555 1_555
C55 C51 1_555 1_555
O49 C62 1_555 1_555
C57 C53 1_555 1_555
H29 C53 1_555 1_555
H30 C54 1_555 1_555
C58 C54 1_555 1_555
C59 C55 1_555 1_555
H31 C55 1_555 1_555
H33 C57 1_555 1_555
H34 C58 1_555 1_555
C61 C58 1_555 1_555
H35 C59 1_555 1_555
C62 C60 1_555 1_555
C63 C61 1_555 1_555
O25 C62 1_555 1_555
O31 C84 1_555 1_555
C66 C68 1_555 1_555
H38 C66 1_555 1_555
H40 C68 1_555 1_555
C73 C71 1_555 1_555
H43 C73 1_555 1_555
C75 C73 1_555 1_555
C77 C74 1_555 1_555
O34 C75 1_555 1_555
H44 C77 1_555 1_555
C78 O34 1_555 1_555
C79 C78 1_555 1_555
C80 C78 1_555 1_555
H45 C79 1_555 1_555
C81 C79 1_555 1_555
C82 C80 1_555 1_555
H46 C80 1_555 1_555
H47 C81 1_555 1_555
C83 C81 1_555 1_555
H48 C82 1_555 1_555
C84 C83 1_555 1_555
O38 H55 1_555 1_555
H56 O38 1_555 1_555
O40 Er9 1_555 1_555
O52 Er9 1_555 1_555
O21 Er9 1_555 1_555
C48 C49 1_555 1_555
C57 C60 1_555 1_555
C59 C61 1_555 1_555
O31 Er9 1_555 1_555
C75 C77 1_555 1_555
C82 C83 1_555 1_555
O38 Er9 1_555 1_555
O3 C21 1_555 1_555
H6 C10 1_555 1_555
C12 C10 1_555 1_555
C13 C11 1_555 1_555
C14 C11 1_555 1_555
O6 C12 1_555 1_555
O42 C13 1_555 1_555
H7 C14 1_555 1_555
C15 O6 1_555 1_555
C16 C15 1_555 1_555
C17 C15 1_555 1_555
H8 C16 1_555 1_555
C18 C16 1_555 1_555
C19 C17 1_555 1_555
H9 C17 1_555 1_555
H10 C18 1_555 1_555
C20 C18 1_555 1_555
H11 C19 1_555 1_555
C21 C20 1_555 1_555
H28 C52 1_555 1_555
C56 C52 1_555 1_555
H32 C56 1_555 1_555
Er13 O3 1_555 1_555
C12 C14 1_555 1_555
C19 C20 1_555 1_555
O39 C21_2 1_555 1_555
H6_2 C10_2 1_555 1_555
C12_2 C10_2 1_555 1_555
C13_2 C11_2 1_555 1_555
C14_2 C11_2 1_555 1_555
O6_2 C12_2 1_555 1_555
O8 C13_2 1_555 1_555
H7_2 C14_2 1_555 1_555
C15_2 O6_2 1_555 1_555
C16_2 C15_2 1_555 1_555
C17_2 C15_2 1_555 1_555
H8_2 C16_2 1_555 1_555
C18_2 C16_2 1_555 1_555
C19_2 C17_2 1_555 1_555
H9_2 C17_2 1_555 1_555
H10_2 C18_2 1_555 1_555
C20_2 C18_2 1_555 1_555
H11_2 C19_2 1_555 1_555
C21_2 C20_2 1_555 1_555
H28_2 C52_2 1_555 1_555
C56_2 C52_2 1_555 1_555
H32_2 C56_2 1_555 1_555
Er16 O8 1_555 1_555
C12_2 C14_2 1_555 1_555
C19_2 C20_2 1_555 1_555
H3_2 C5_2 1_555 1_555
C9_2 C8_2 1_555 1_555
O18 C63_2 1_555 1_555
O19_2 C43_2 1_555 1_555
O20 C63_2 1_555 1_555
C43_2 C44_2 1_555 1_555
C44_2 C45_2 1_555 1_555
O21_2 C43_2 1_555 1_555
C45_2 H25_2 1_555 1_555
C46_2 C44_2 1_555 1_555
C47_2 C45_2 1_555 1_555
C48_2 C46_2 1_555 1_555
H26_2 C46_2 1_555 1_555
C49_2 C47_2 1_555 1_555
O22_2 C47_2 1_555 1_555
O23_2 C48_2 1_555 1_555
H27_2 C49_2 1_555 1_555
C50_2 O22_2 1_555 1_555
C51_2 O23_2 1_555 1_555
C53_2 C50_2 1_555 1_555
C54_2 C51_2 1_555 1_555
C55_2 C51_2 1_555 1_555
O24 C62_2 1_555 1_555
C57_2 C53_2 1_555 1_555
H29_2 C53_2 1_555 1_555
H30_2 C54_2 1_555 1_555
C58_2 C54_2 1_555 1_555
C59_2 C55_2 1_555 1_555
H31_2 C55_2 1_555 1_555
H33_2 C57_2 1_555 1_555
H34_2 C58_2 1_555 1_555
C61_2 C58_2 1_555 1_555
H35_2 C59_2 1_555 1_555
C62_2 C60_2 1_555 1_555
C63_2 C61_2 1_555 1_555
O25_2 C62_2 1_555 1_555
O31_2 C84_2 1_555 1_555
C66_2 C68_2 1_555 1_555
H38_2 C66_2 1_555 1_555
H40_2 C68_2 1_555 1_555
C73_2 C71_2 1_555 1_555
H43_2 C73_2 1_555 1_555
C75_2 C73_2 1_555 1_555
C77_2 C74_2 1_555 1_555
O34_2 C75_2 1_555 1_555
H44_2 C77_2 1_555 1_555
C78_2 O34_2 1_555 1_555
C79_2 C78_2 1_555 1_555
C80_2 C78_2 1_555 1_555
H45_2 C79_2 1_555 1_555
C81_2 C79_2 1_555 1_555
C82_2 C80_2 1_555 1_555
H46_2 C80_2 1_555 1_555
H47_2 C81_2 1_555 1_555
C83_2 C81_2 1_555 1_555
H48_2 C82_2 1_555 1_555
C84_2 C83_2 1_555 1_555
O38_2 H55_2 1_555 1_555
H56_2 O38_2 1_555 1_555
O45 Er11 1_555 1_555
Er8 O18 1_555 1_555
Er13 O20 1_555 1_555
O21_2 Er11 1_555 1_555
C48_2 C49_2 1_555 1_555
C57_2 C60_2 1_555 1_555
C59_2 C61_2 1_555 1_555
O28 Er8 1_555 1_555
O31_2 Er11 1_555 1_555
C75_2 C77_2 1_555 1_555
C82_2 C83_2 1_555 1_555
O38_2 Er11 1_555 1_555
O50 C76_2 1_555 1_555
H42_2 C72_2 1_555 1_555
O1_2 C1_2 1_555 1_555
C1_2 C2_2 1_555 1_555
C2_2 C3_2 1_555 1_555
O2_2 C1_2 1_555 1_555
C4_2 C2_2 1_555 1_555
H2_2 C4_2 1_555 1_555
O9_2 H12_2 1_555 1_555
H13_2 O9_2 1_555 1_555
O43 C41_2 1_555 1_555
O11 C41_2 1_555 1_555
O12_2 C22_2 1_555 1_555
C22_2 C23_2 1_555 1_555
C23_2 C24_2 1_555 1_555
O13_2 C22_2 1_555 1_555
C24_2 H14_2 1_555 1_555
C25_2 C23_2 1_555 1_555
C26_2 C24_2 1_555 1_555
C27_2 C25_2 1_555 1_555
H15_2 C25_2 1_555 1_555
O45 C42_2 1_555 1_555
C28_2 C26_2 1_555 1_555
O15_2 C26_2 1_555 1_555
O16_2 C27_2 1_555 1_555
H16_2 C28_2 1_555 1_555
C29_2 O15_2 1_555 1_555
C30_2 O16_2 1_555 1_555
C31_2 C29_2 1_555 1_555
C32_2 C29_2 1_555 1_555
C33_2 C30_2 1_555 1_555
C34_2 C30_2 1_555 1_555
H17_2 C31_2 1_555 1_555
C35_2 C31_2 1_555 1_555
C36_2 C32_2 1_555 1_555
H18_2 C32_2 1_555 1_555
H19_2 C33_2 1_555 1_555
C37_2 C33_2 1_555 1_555
C38_2 C34_2 1_555 1_555
H20_2 C34_2 1_555 1_555
O46 C42_2 1_555 1_555
H21_2 C35_2 1_555 1_555
C39_2 C35_2 1_555 1_555
H22_2 C36_2 1_555 1_555
H23_2 C37_2 1_555 1_555
C40_2 C37_2 1_555 1_555
H24_2 C38_2 1_555 1_555
C41_2 C39_2 1_555 1_555
C42_2 C40_2 1_555 1_555
O26_2 H36_2 1_555 1_555
H37_2 O26_2 1_555 1_555
O52 C64_2 1_555 1_555
C64_2 C65_2 1_555 1_555
O32_2 C64_2 1_555 1_555
C67_2 C65_2 1_555 1_555
H39_2 C67_2 1_555 1_555
C69_2 C67_2 1_555 1_555
C70_2 C69_2 1_555 1_555
O35_2 H49_2 1_555 1_555
H50_2 O35_2 1_555 1_555
O36_2 H51_2 1_555 1_555
H52_2 O36_2 1_555 1_555
O37_2 H53_2 1_555 1_555
H54_2 O37_2 1_555 1_555
Er8 O1_2 1_555 1_555
Er13 O2_2 1_555 1_555
Er16 O32_2 1_555 1_555
O9_2 Er8 1_555 1_555
O9_2 Er13 1_555 1_555
O12_2 Er13 1_555 1_555
C27_2 C28_2 1_555 1_555
C36_2 C39_2 1_555 1_555
C38_2 C40_2 1_555 1_555
O26_2 Er13 1_555 1_555
O29_2 Er13 1_555 1_555
O35_2 Er16 1_555 1_555
O36_2 Er16 1_555 1_555
O37_2 Er8 1_555 1_555
H4_2 C6_2 1_555 1_555

#END
