
###############################################################################
#
# This file contains modified crystal structure data generated from the
# MOF subset of the Cambridge Structural Database (CSD) v543 
# hosted by the Cambridge Crystallographic Data Centre (CCDC).
#
# This work is licensed under the Creative Commons
# Attribution-NonCommercial-ShareAlike 4.0 International License.
# To view a copy of this license, visit
# http://creativecommons.org/licenses/by-nc-sa/4.0/
# or send a letter to
# Creative Commons, PO Box 1866, Mountain View, CA 94042, USA.
#
# CIF created using the CSD Python API on 29 September 2022
# The structure has been converted into the P1 space group
# The structure has a 3D framework
# The original CSD entry QUMKAM is in the orthorhombic crystal system
# The framework has been calculated to contain at least 10.0% void space
# The void calculation uses a probe of radius 1.32A, grid spacing 0.4
#
###############################################################################

data_QUMKAM
_chemical_formula_moiety         '(C160 H88 Cd4 N62)n'
_symmetry_cell_setting           triclinic
_symmetry_space_group_name_H-M   'P 1'
_symmetry_Int_Tables_number      1
_space_group_name_Hall           'P 1'
loop_
_symmetry_equiv_pos_site_id
_symmetry_equiv_pos_as_xyz
1 x,y,z
_cell_length_a                   18.692(4)
_cell_length_b                   19.765(4)
_cell_length_c                   10.903(2)
_cell_angle_alpha                90
_cell_angle_beta                 90
_cell_angle_gamma                90
_cell_volume                     4028.08
loop_
_atom_site_label
_atom_site_type_symbol
_atom_site_fract_x
_atom_site_fract_y
_atom_site_fract_z
Cd1 Cd 0.522448(14) 0.250556(19) 0.17976(10)
N1 N 0.5136(3) 0.3281(3) 0.0156(6)
N2 N 0.4418(3) 0.1481(3) 0.3745(6)
N3 N 0.3999(2) 0.2752(2) 0.1407(4)
N4 N 0.5047(3) 0.1710(3) 0.3323(5)
C10 C 0.4376(3) 0.0065(3) 0.5987(5)
C14 C 0.3143(3) 0.3388(3) 0.0221(5)
C15 C 0.4629(3) 0.1026(3) 0.4581(6)
C17 C 0.3858(3) 0.3190(2) 0.0502(4)
C18 C 0.4127(3) 0.0615(3) 0.5316(6)
C19 C 0.2591(3) 0.3136(3) 0.0923(5)
H7 H 0.2121 0.3260 0.0758
C21 C 0.3372(4) 0.0775(6) 0.5366(10)
H9 H 0.3193 0.1151 0.4955
N7 N 0.5594(3) 0.1423(3) 0.3897(5)
C24 C 0.2927(4) 0.0364(5) 0.6025(9)
H12 H 0.2437 0.0445 0.6008
N8 N 0.5324(3) 0.0968(3) 0.4688(6)
C39 C 0.2748(3) 0.2688(3) 0.1898(10)
H19 H 0.2389 0.2516 0.2399
C40 C 0.3455(4) 0.2516(3) 0.2074(7)
H20 H 0.3560 0.2214 0.2702
N17 N 0.6453(2) 0.2285(2) 0.1316(4)
N18 N 0.5289(2) 0.1706(3) 0.0189(5)
N19 N 0.5472(3) 0.3380(3) 0.3090(5)
C32 C 0.6567(3) 0.1854(3) 0.0371(5)
C33 C 0.7845(3) 0.2013(3) 0.0578(6)
H14 H 0.8315 0.1931 0.0338
C35 C 0.7000(3) 0.2555(3) 0.1847(13)
H15 H 0.6910 0.2855 0.2486
C37 C 0.7705(3) 0.2438(3) 0.1552(8)
H17 H 0.8074 0.2639 0.1994
C1 C 0.9474(3) 0.6531(3) 0.9809(5)
C2 C 0.6470(2) 0.5258(2) 0.6870(6)
H1 H 0.6281 0.5604 0.7350
C3 C 0.6044(3) 0.4935(3) 0.6036(5)
H2 H 0.5571 0.5072 0.5947
C4 C 0.8648(2) 0.5880(2) 0.8515(4)
C6 C 0.8067(3) 0.6139(3) 0.9220(5)
C7 C 0.9346(3) 0.6092(3) 0.8804(5)
C8 C 0.6296(3) 0.4414(3) 0.5330(5)
C9 C 0.7673(3) 0.5456(3) 0.7808(5)
N5 N 0.7457(2) 0.5837(2) 0.8750(4)
C13 C 0.7199(3) 0.5070(3) 0.7007(5)
N6 N 0.8382(2) 0.5491(2) 0.7619(4)
C16 C 0.9953(3) 0.5844(3) 0.8170(6)
H6 H 0.9906 0.5560 0.7495
C20 C 0.7024(3) 0.4211(3) 0.5469(6)
H8 H 0.7212 0.3861 0.4998
C22 C 0.7438(3) 0.4541(3) 0.6308(6)
H10 H 0.7909 0.4400 0.6411
C34 C 0.5843(3) 0.4047(3) 0.4452(5)
N11 N 0.6048(3) 0.3539(3) 0.3741(5)
N12 N 0.5158(3) 0.4221(3) 0.4248(6)
N13 N 0.4945(3) 0.3775(4) 0.3378(6)
H21 H 0.6970 0.5792 0.9152
C1_2 C 0.4474(3) 0.3469(3) 0.9809(5)
C2_2 C 0.1470(2) 0.4742(2) 0.6870(6)
H1_2 H 0.1281 0.4396 0.7350
C3_2 C 0.1044(3) 0.5065(3) 0.6036(5)
H2_2 H 0.0571 0.4928 0.5947
C4_2 C 0.3648(2) 0.4120(2) 0.8515(4)
C6_2 C 0.3067(3) 0.3861(3) 0.9220(5)
C7_2 C 0.4346(3) 0.3908(3) 0.8804(5)
C8_2 C 0.1296(3) 0.5586(3) 0.5330(5)
C9_2 C 0.2673(3) 0.4544(3) 0.7808(5)
C11 C 0.5667(3) 0.3522(4) 0.9562(8)
H5 H 0.6125 0.3392 0.9799
N5_2 N 0.2457(2) 0.4163(2) 0.8750(4)
C13_2 C 0.2199(3) 0.4930(3) 0.7007(5)
N6_2 N 0.3382(2) 0.4509(2) 0.7619(4)
C16_2 C 0.4953(3) 0.4156(3) 0.8170(6)
H6_2 H 0.4906 0.4440 0.7495
C20_2 C 0.2024(3) 0.5789(3) 0.5469(6)
H8_2 H 0.2212 0.6139 0.4998
C22_2 C 0.2438(3) 0.5459(3) 0.6308(6)
H10_2 H 0.2909 0.5600 0.6411
C23 C 0.5602(4) 0.3967(4) 0.8582(8)
H11 H 0.6011 0.4135 0.8206
C34_2 C 0.0843(3) 0.5953(3) 0.4452(5)
N11_2 N 0.1048(3) 0.6461(3) 0.3741(5)
N12_2 N 0.0158(3) 0.5779(3) 0.4248(6)
N16 N 0.0472(3) 0.6620(3) 0.3090(5)
H21_2 H 0.1970 0.4208 0.9152
Cd3 Cd 0.022448(14) 0.749444(19) 0.17976(10)
C32_2 C 0.1567(3) 0.8146(3) 0.0371(5)
C33_2 C 0.2845(3) 0.7987(3) 0.0578(6)
H14_2 H 0.3315 0.8069 0.0338
N14 N 0.1453(2) 0.7715(2) 0.1316(4)
N15 N 0.0289(2) 0.8294(3) 0.0189(5)
C35_2 C 0.2000(3) 0.7445(3) 0.1847(13)
H15_2 H 0.1910 0.7145 0.2486
C37_2 C 0.2705(3) 0.7562(3) 0.1552(8)
H17_2 H 0.3074 0.7361 0.1994
N1_2 N 0.0136(3) 0.6719(3) 0.0156(6)
N4_2 N 0.0047(3) 0.8290(3) 0.3323(5)
N7_2 N 0.0594(3) 0.8577(3) 0.3897(5)
N8_2 N 0.0324(3) 0.9032(3) 0.4688(6)
C5 C 0.3912(3) 0.9682(2) 0.6686(6)
H3 H 0.4086 0.9320 0.7142
H4 H 0.4859 0.9953 0.5963
C12 C 0.3184(3) 0.9838(3) 0.6710(7)
C25 C 0.2695(3) 0.9452(3) 0.7539(6)
N9 N 0.1990(2) 0.9491(2) 0.7490(5)
N10 N 0.2931(2) 0.9006(2) 0.8399(4)
C26 C 0.2344(3) 0.8747(3) 0.8949(5)
C27 C 0.1769(3) 0.9057(3) 0.8395(6)
C28 C 0.1062(3) 0.8891(3) 0.8770(5)
C29 C 0.2279(3) 0.8292(3) 0.9956(5)
C30 C 0.0952(3) 0.8452(3) 0.9736(5)
C31 C 0.0437(4) 0.9175(4) 0.8219(7)
H13 H 0.0485 0.9455 0.7539
H22 H 0.3385 0.8917 0.8473
N13_2 N 0.9945(3) 0.6225(4) 0.3378(6)
C36 C 0.9720(3) 0.8580(3) 0.9681(6)
H16 H 0.9270 0.8478 0.9992
C38 C 0.9776(3) 0.9043(4) 0.8665(8)
H18 H 0.9371 0.9245 0.8328
C36_2 C 0.0280(3) 0.1420(3) 0.4681(6)
H16_2 H 0.0730 0.1522 0.4992
C38_2 C 0.0224(3) 0.0957(4) 0.3665(8)
H18_2 H 0.0629 0.0755 0.3328
N13_3 N 0.0055(3) 0.3775(4) 0.8378(6)
C5_2 C 0.6088(3) 0.0318(2) 0.1686(6)
H3_2 H 0.5914 0.0680 0.2142
H4_2 H 0.5141 0.0047 0.0963
C12_2 C 0.6816(3) 0.0162(3) 0.1710(7)
C25_2 C 0.7305(3) 0.0548(3) 0.2539(6)
N9_2 N 0.8010(2) 0.0509(2) 0.2490(5)
N10_2 N 0.7069(2) 0.0994(2) 0.3399(4)
C26_2 C 0.7656(3) 0.1253(3) 0.3949(5)
C27_2 C 0.8231(3) 0.0943(3) 0.3395(6)
C28_2 C 0.8938(3) 0.1109(3) 0.3770(5)
C29_2 C 0.7721(3) 0.1708(3) 0.4956(5)
C30_2 C 0.9048(3) 0.1548(3) 0.4736(5)
C31_2 C 0.9563(4) 0.0825(4) 0.3219(7)
H13_2 H 0.9515 0.0545 0.2539
C32_3 C 0.8433(3) 0.1854(3) 0.5371(5)
C33_3 C 0.7155(3) 0.2013(3) 0.5578(6)
H14_3 H 0.6685 0.1931 0.5338
N14_2 N 0.8547(2) 0.2285(2) 0.6316(4)
N15_2 N 0.9711(2) 0.1706(3) 0.5189(5)
C35_3 C 0.8000(3) 0.2555(3) 0.6847(13)
H15_3 H 0.8090 0.2855 0.7486
C37_3 C 0.7295(3) 0.2438(3) 0.6552(8)
H17_3 H 0.6926 0.2639 0.6994
H22_2 H 0.6615 0.1083 0.3473
Cd2 Cd 0.977552(14) 0.250556(19) 0.67976(10)
H8_3 H 0.7788 0.3861 0.9998
C34_3 C 0.9157(3) 0.4047(3) 0.9452(5)
N11_3 N 0.8952(3) 0.3539(3) 0.8741(5)
N12_3 N 0.9842(3) 0.4221(3) 0.9248(6)
N16_2 N 0.9528(3) 0.3380(3) 0.8090(5)
N1_3 N 0.9864(3) 0.3281(3) 0.5156(6)
N4_3 N 0.9953(3) 0.1710(3) 0.8323(5)
C11_2 C 0.9333(3) 0.3522(4) 0.4562(8)
H5_2 H 0.8875 0.3392 0.4799
N7_3 N 0.9406(3) 0.1423(3) 0.8897(5)
C23_2 C 0.9398(4) 0.3967(4) 0.3582(8)
H11_2 H 0.8989 0.4135 0.3206
N8_3 N 0.9676(3) 0.0968(3) 0.9688(6)
C10_2 C 0.5624(3) 0.9935(3) 0.0987(5)
C18_2 C 0.5873(3) 0.9385(3) 0.0316(6)
C21_2 C 0.6628(4) 0.9225(6) 0.0366(10)
C24_2 C 0.7073(4) 0.9636(5) 0.1025(9)
H12_2 H 0.7563 0.9555 0.1008
Cd1_2 Cd 0.477552(14) 0.749444(19) 0.67976(10)
C1_3 C 0.5526(3) 0.6531(3) 0.4809(5)
N1_4 N 0.4864(3) 0.6719(3) 0.5156(6)
N2_2 N 0.5582(3) 0.8519(3) 0.8745(6)
C2_3 C 0.8530(2) 0.5258(2) 0.1870(6)
H1_3 H 0.8719 0.5604 0.2350
C3_3 C 0.8956(3) 0.4935(3) 0.1036(5)
H2_3 H 0.9429 0.5072 0.0947
N3_2 N 0.6001(2) 0.7248(2) 0.6407(4)
C4_3 C 0.6352(2) 0.5880(2) 0.3515(4)
N4_4 N 0.4953(3) 0.8290(3) 0.8323(5)
C6_3 C 0.6933(3) 0.6139(3) 0.4220(5)
C7_3 C 0.5654(3) 0.6092(3) 0.3804(5)
C8_3 C 0.8704(3) 0.4414(3) 0.0330(5)
C9_3 C 0.7327(3) 0.5456(3) 0.2808(5)
C11_3 C 0.4333(3) 0.6478(4) 0.4562(8)
H5_3 H 0.3875 0.6608 0.4799
N5_3 N 0.7543(2) 0.5837(2) 0.3750(4)
C13_3 C 0.7801(3) 0.5070(3) 0.2007(5)
C14_2 C 0.6857(3) 0.6612(3) 0.5221(5)
C15_2 C 0.5371(3) 0.8974(3) 0.9581(6)
N6_3 N 0.6618(2) 0.5491(2) 0.2619(4)
C16_3 C 0.5047(3) 0.5844(3) 0.3170(6)
H6_3 H 0.5094 0.5560 0.2495
C17_2 C 0.6142(3) 0.6810(2) 0.5502(4)
C19_2 C 0.7409(3) 0.6864(3) 0.5923(5)
H7_2 H 0.7879 0.6740 0.5758
C20_3 C 0.7976(3) 0.4211(3) 0.0469(6)
H9_2 H 0.6807 0.8849 0.9955
N7_4 N 0.4406(3) 0.8577(3) 0.8897(5)
C22_3 C 0.7562(3) 0.4541(3) 0.1308(6)
H10_3 H 0.7091 0.4400 0.1411
C23_3 C 0.4398(4) 0.6033(4) 0.3582(8)
H11_3 H 0.3989 0.5865 0.3206
N8_4 N 0.4676(3) 0.9032(3) 0.9688(6)
C39_2 C 0.7252(3) 0.7312(3) 0.6898(10)
H19_2 H 0.7611 0.7484 0.7399
C40_2 C 0.6545(4) 0.7484(3) 0.7074(7)
H20_2 H 0.6440 0.7786 0.7702
H21_3 H 0.8030 0.5792 0.4152
N17_2 N 0.3547(2) 0.7715(2) 0.6316(4)
N18_2 N 0.4711(2) 0.8294(3) 0.5189(5)
N19_2 N 0.4528(3) 0.6620(3) 0.8090(5)
H8_4 H 0.2788 0.6139 0.9998
C34_4 C 0.4157(3) 0.5953(3) 0.9452(5)
N11_4 N 0.3952(3) 0.6461(3) 0.8741(5)
N12_4 N 0.4842(3) 0.5779(3) 0.9248(6)
N13_4 N 0.5055(3) 0.6225(4) 0.8378(6)
C5_3 C 0.1088(3) 0.9682(2) 0.1686(6)
H3_3 H 0.0914 0.9320 0.2142
H4_3 H 0.0141 0.9953 0.0963
C12_3 C 0.1816(3) 0.9838(3) 0.1710(7)
C25_3 C 0.2305(3) 0.9452(3) 0.2539(6)
N9_3 N 0.3010(2) 0.9491(2) 0.2490(5)
N10_3 N 0.2069(2) 0.9006(2) 0.3399(4)
C26_3 C 0.2656(3) 0.8747(3) 0.3949(5)
C27_3 C 0.3231(3) 0.9057(3) 0.3395(6)
C28_3 C 0.3938(3) 0.8891(3) 0.3770(5)
C29_3 C 0.2721(3) 0.8292(3) 0.4956(5)
C30_3 C 0.4048(3) 0.8452(3) 0.4736(5)
C31_3 C 0.4563(4) 0.9175(4) 0.3219(7)
H13_3 H 0.4515 0.9455 0.2539
C32_4 C 0.3433(3) 0.8146(3) 0.5371(5)
C33_4 C 0.2155(3) 0.7987(3) 0.5578(6)
H14_4 H 0.1685 0.8069 0.5338
C35_4 C 0.3000(3) 0.7445(3) 0.6847(13)
H15_4 H 0.3090 0.7145 0.7486
C36_3 C 0.5280(3) 0.8580(3) 0.4681(6)
H16_3 H 0.5730 0.8478 0.4992
C37_4 C 0.2295(3) 0.7562(3) 0.6552(8)
H17_4 H 0.1926 0.7361 0.6994
C38_3 C 0.5224(3) 0.9043(4) 0.3665(8)
H18_3 H 0.5629 0.9245 0.3328
H22_3 H 0.1615 0.8917 0.3473
C10_3 C 0.0624(3) 0.0065(3) 0.0987(5)
C18_3 C 0.0873(3) 0.0615(3) 0.0316(6)
C21_3 C 0.1628(4) 0.0775(6) 0.0366(10)
C24_3 C 0.2073(4) 0.0364(5) 0.1025(9)
H12_3 H 0.2563 0.0445 0.1008
C1_4 C 0.0526(3) 0.3469(3) 0.4809(5)
N2_3 N 0.0582(3) 0.1481(3) 0.8745(6)
C2_4 C 0.3530(2) 0.4742(2) 0.1870(6)
H1_4 H 0.3719 0.4396 0.2350
C3_4 C 0.3956(3) 0.5065(3) 0.1036(5)
H2_4 H 0.4429 0.4928 0.0947
N3_3 N 0.1001(2) 0.2752(2) 0.6407(4)
C4_4 C 0.1352(2) 0.4120(2) 0.3515(4)
C6_4 C 0.1933(3) 0.3861(3) 0.4220(5)
C7_4 C 0.0654(3) 0.3908(3) 0.3804(5)
C8_4 C 0.3704(3) 0.5586(3) 0.0330(5)
C9_4 C 0.2327(3) 0.4544(3) 0.2808(5)
N5_4 N 0.2543(2) 0.4163(2) 0.3750(4)
C13_4 C 0.2801(3) 0.4930(3) 0.2007(5)
C14_3 C 0.1857(3) 0.3388(3) 0.5221(5)
C15_3 C 0.0371(3) 0.1026(3) 0.9581(6)
N6_4 N 0.1618(2) 0.4509(2) 0.2619(4)
C16_4 C 0.0047(3) 0.4156(3) 0.3170(6)
H6_4 H 0.0094 0.4440 0.2495
C17_3 C 0.1142(3) 0.3190(2) 0.5502(4)
C19_3 C 0.2409(3) 0.3136(3) 0.5923(5)
H7_3 H 0.2879 0.3260 0.5758
C20_4 C 0.2976(3) 0.5789(3) 0.0469(6)
H9_3 H 0.1807 0.1151 0.9955
C22_4 C 0.2562(3) 0.5459(3) 0.1308(6)
H10_4 H 0.2091 0.5600 0.1411
C39_3 C 0.2252(3) 0.2688(3) 0.6898(10)
H19_3 H 0.2611 0.2516 0.7399
C40_3 C 0.1545(4) 0.2516(3) 0.7074(7)
H20_3 H 0.1440 0.2214 0.7702
H21_4 H 0.3030 0.4208 0.4152
C11_4 C 0.0667(3) 0.6478(4) 0.9562(8)
H5_4 H 0.1125 0.6608 0.9799
C23_4 C 0.0602(4) 0.6033(4) 0.8582(8)
H11_4 H 0.1011 0.5865 0.8206
C5_4 C 0.8912(3) 0.0318(2) 0.6686(6)
H3_4 H 0.9086 0.0680 0.7142
H4_4 H 0.9859 0.0047 0.5963
C12_4 C 0.8184(3) 0.0162(3) 0.6710(7)
C25_4 C 0.7695(3) 0.0548(3) 0.7539(6)
N9_4 N 0.6990(2) 0.0509(2) 0.7490(5)
N10_4 N 0.7931(2) 0.0994(2) 0.8399(4)
C26_4 C 0.7344(3) 0.1253(3) 0.8949(5)
C27_4 C 0.6769(3) 0.0943(3) 0.8395(6)
C28_4 C 0.6062(3) 0.1109(3) 0.8770(5)
C29_4 C 0.7279(3) 0.1708(3) 0.9956(5)
C30_4 C 0.5952(3) 0.1548(3) 0.9736(5)
C31_4 C 0.5437(4) 0.0825(4) 0.8219(7)
H13_4 H 0.5485 0.0545 0.7539
C36_4 C 0.4720(3) 0.1420(3) 0.9681(6)
H16_4 H 0.4270 0.1522 0.9992
C38_4 C 0.4776(3) 0.0957(4) 0.8665(8)
H18_4 H 0.4371 0.0755 0.8328
H22_4 H 0.8385 0.1083 0.8473
N2_4 N 0.9418(3) 0.8519(3) 0.3745(6)
N3_4 N 0.8999(2) 0.7248(2) 0.1407(4)
C10_4 C 0.9376(3) 0.9935(3) 0.5987(5)
C14_4 C 0.8143(3) 0.6612(3) 0.0221(5)
C15_4 C 0.9629(3) 0.8974(3) 0.4581(6)
C17_4 C 0.8858(3) 0.6810(2) 0.0502(4)
C18_4 C 0.9127(3) 0.9385(3) 0.5316(6)
C19_4 C 0.7591(3) 0.6864(3) 0.0923(5)
H7_4 H 0.7121 0.6740 0.0758
C21_4 C 0.8372(4) 0.9225(6) 0.5366(10)
H9_4 H 0.8193 0.8849 0.4955
C24_4 C 0.7927(4) 0.9636(5) 0.6025(9)
H12_4 H 0.7437 0.9555 0.6008
C39_4 C 0.7748(3) 0.7312(3) 0.1898(10)
H19_4 H 0.7389 0.7484 0.2399
C40_4 C 0.8455(4) 0.7484(3) 0.2074(7)
H20_4 H 0.8560 0.7786 0.2702
loop_
_geom_bond_atom_site_label_1
_geom_bond_atom_site_label_2
_geom_bond_site_symmetry_1
_geom_bond_site_symmetry_2
Cd1 N1 1_555 1_555
N2 N4 1_555 1_555
N3 Cd1 1_555 1_555
N4 Cd1 1_555 1_555
C15 N2 1_555 1_555
C18 C10 1_555 1_555
C19 C14 1_555 1_555
H7 C19 1_555 1_555
C21 C18 1_555 1_555
H9 C21 1_555 1_555
N7 N4 1_555 1_555
H12 C24 1_555 1_555
N8 C15 1_555 1_555
C39 C19 1_555 1_555
H19 C39 1_555 1_555
C40 N3 1_555 1_555
H20 C40 1_555 1_555
N17 Cd1 1_555 1_555
N18 Cd1 1_555 1_555
N19 Cd1 1_555 1_555
N3 C17 1_555 1_555
C14 C17 1_555 1_555
C15 C18 1_555 1_555
C21 C24 1_555 1_555
N7 N8 1_555 1_555
C39 C40 1_555 1_555
H14 C33 1_555 1_555
N17 C32 1_555 1_555
C35 N17 1_555 1_555
H15 C35 1_555 1_555
C37 C33 1_555 1_555
H17 C37 1_555 1_555
C35 C37 1_555 1_555
C2 H1 1_555 1_555
C3 C2 1_555 1_555
H2 C3 1_555 1_555
C4 C6 1_555 1_555
C6 N5 1_555 1_555
C7 C1 1_555 1_555
C8 C3 1_555 1_555
C9 N5 1_555 1_555
N5 H21 1_555 1_555
C13 C2 1_555 1_555
N6 C4 1_555 1_555
C16 C7 1_555 1_555
H6 C16 1_555 1_555
C20 C8 1_555 1_555
H8 C20 1_555 1_555
C22 C13 1_555 1_555
H10 C22 1_555 1_555
C34 C8 1_555 1_555
N11 C34 1_555 1_555
N12 C34 1_555 1_555
N13 N12 1_555 1_555
N19 N11 1_555 1_555
C4 C7 1_555 1_555
C9 C13 1_555 1_555
C9 N6 1_555 1_555
C20 C22 1_555 1_555
N13 N19 1_555 1_555
C2_2 H1_2 1_555 1_555
C3_2 C2_2 1_555 1_555
H2_2 C3_2 1_555 1_555
C4_2 C6_2 1_555 1_555
C6_2 N5_2 1_555 1_555
C7_2 C1_2 1_555 1_555
C8_2 C3_2 1_555 1_555
C9_2 N5_2 1_555 1_555
C11 H5 1_555 1_555
N5_2 H21_2 1_555 1_555
C13_2 C2_2 1_555 1_555
N6_2 C4_2 1_555 1_555
C16_2 C7_2 1_555 1_555
H6_2 C16_2 1_555 1_555
C20_2 C8_2 1_555 1_555
H8_2 C20_2 1_555 1_555
C22_2 C13_2 1_555 1_555
H10_2 C22_2 1_555 1_555
C23 C11 1_555 1_555
H11 C23 1_555 1_555
C34_2 C8_2 1_555 1_555
N11_2 C34_2 1_555 1_555
N12_2 C34_2 1_555 1_555
N16 N11_2 1_555 1_555
Cd3 N16 1_555 1_555
C4_2 C7_2 1_555 1_555
C9_2 C13_2 1_555 1_555
C9_2 N6_2 1_555 1_555
C16_2 C23 1_555 1_555
C20_2 C22_2 1_555 1_555
H14_2 C33_2 1_555 1_555
N14 C32_2 1_555 1_555
C35_2 N14 1_555 1_555
H15_2 C35_2 1_555 1_555
C37_2 C33_2 1_555 1_555
H17_2 C37_2 1_555 1_555
Cd3 N14 1_555 1_555
N15 Cd3 1_555 1_555
C35_2 C37_2 1_555 1_555
Cd3 N1_2 1_555 1_555
N4_2 Cd3 1_555 1_555
N7_2 N4_2 1_555 1_555
N7_2 N8_2 1_555 1_555
C5 H3 1_555 1_555
C12 C5 1_555 1_555
C25 C12 1_555 1_555
N9 C25 1_555 1_555
N10 C25 1_555 1_555
C26 N10 1_555 1_555
C27 N9 1_555 1_555
C28 C27 1_555 1_555
C29 C26 1_555 1_555
C30 C28 1_555 1_555
C31 C28 1_555 1_555
H13 C31 1_555 1_555
H22 N10 1_555 1_555
C26 C27 1_555 1_555
H16 C36 1_555 1_555
H18 C38 1_555 1_555
C36 C38 1_555 1_555
H16_2 C36_2 1_555 1_555
H18_2 C38_2 1_555 1_555
C36_2 C38_2 1_555 1_555
C5_2 H3_2 1_555 1_555
C12_2 C5_2 1_555 1_555
C25_2 C12_2 1_555 1_555
N9_2 C25_2 1_555 1_555
N10_2 C25_2 1_555 1_555
C26_2 N10_2 1_555 1_555
C27_2 N9_2 1_555 1_555
C28_2 C27_2 1_555 1_555
C29_2 C26_2 1_555 1_555
C30_2 C28_2 1_555 1_555
C31_2 C28_2 1_555 1_555
H13_2 C31_2 1_555 1_555
C32_3 C29_2 1_555 1_555
C33_3 C29_2 1_555 1_555
H14_3 C33_3 1_555 1_555
N14_2 C32_3 1_555 1_555
N15_2 C30_2 1_555 1_555
C35_3 N14_2 1_555 1_555
H15_3 C35_3 1_555 1_555
C37_3 C33_3 1_555 1_555
H17_3 C37_3 1_555 1_555
H22_2 N10_2 1_555 1_555
Cd2 N14_2 1_555 1_555
C26_2 C27_2 1_555 1_555
C30_2 C32_3 1_555 1_555
N15_2 Cd2 1_555 1_555
C35_3 C37_3 1_555 1_555
N11_3 C34_3 1_555 1_555
N12_3 C34_3 1_555 1_555
N16_2 N11_3 1_555 1_555
Cd2 N16_2 1_555 1_555
Cd2 N1_3 1_555 1_555
N1_3 C11_2 1_555 1_555
N4_3 Cd2 1_555 1_555
C11_2 H5_2 1_555 1_555
N7_3 N4_3 1_555 1_555
C23_2 C11_2 1_555 1_555
H11_2 C23_2 1_555 1_555
N7_3 N8_3 1_555 1_555
C18_2 C10_2 1_555 1_555
C21_2 C18_2 1_555 1_555
H12_2 C24_2 1_555 1_555
C21_2 C24_2 1_555 1_555
Cd1_2 N1_4 1_555 1_555
C1_3 N1_4 1_555 1_555
N1_4 C11_3 1_555 1_555
N2_2 N4_4 1_555 1_555
C2_3 H1_3 1_555 1_555
C3_3 C2_3 1_555 1_555
H2_3 C3_3 1_555 1_555
N3_2 Cd1_2 1_555 1_555
C4_3 C6_3 1_555 1_555
N4_4 Cd1_2 1_555 1_555
C6_3 N5_3 1_555 1_555
C7_3 C1_3 1_555 1_555
C8_3 C3_3 1_555 1_555
C9_3 N5_3 1_555 1_555
C11_3 H5_3 1_555 1_555
N5_3 H21_3 1_555 1_555
C13_3 C2_3 1_555 1_555
C14_2 C6_3 1_555 1_555
C15_2 N2_2 1_555 1_555
N6_3 C4_3 1_555 1_555
C16_3 C7_3 1_555 1_555
H6_3 C16_3 1_555 1_555
C17_2 C1_3 1_555 1_555
C19_2 C14_2 1_555 1_555
H7_2 C19_2 1_555 1_555
C20_3 C8_3 1_555 1_555
N7_4 N4_4 1_555 1_555
C22_3 C13_3 1_555 1_555
H10_3 C22_3 1_555 1_555
C23_3 C11_3 1_555 1_555
H11_3 C23_3 1_555 1_555
N8_4 C15_2 1_555 1_555
C39_2 C19_2 1_555 1_555
H19_2 C39_2 1_555 1_555
C40_2 N3_2 1_555 1_555
H20_2 C40_2 1_555 1_555
N17_2 Cd1_2 1_555 1_555
N18_2 Cd1_2 1_555 1_555
N19_2 Cd1_2 1_555 1_555
N3_2 C17_2 1_555 1_555
C4_3 C7_3 1_555 1_555
C9_3 C13_3 1_555 1_555
C9_3 N6_3 1_555 1_555
C14_2 C17_2 1_555 1_555
C16_3 C23_3 1_555 1_555
C20_3 C22_3 1_555 1_555
N7_4 N8_4 1_555 1_555
C39_2 C40_2 1_555 1_555
N11_4 C34_4 1_555 1_555
N12_4 C34_4 1_555 1_555
N13_4 N12_4 1_555 1_555
N19_2 N11_4 1_555 1_555
N13_4 N19_2 1_555 1_555
C5_3 H3_3 1_555 1_555
C12_3 C5_3 1_555 1_555
C25_3 C12_3 1_555 1_555
N9_3 C25_3 1_555 1_555
N10_3 C25_3 1_555 1_555
C26_3 N10_3 1_555 1_555
C27_3 N9_3 1_555 1_555
C28_3 C27_3 1_555 1_555
C29_3 C26_3 1_555 1_555
C30_3 C28_3 1_555 1_555
C31_3 C28_3 1_555 1_555
H13_3 C31_3 1_555 1_555
C32_4 C29_3 1_555 1_555
C33_4 C29_3 1_555 1_555
H14_4 C33_4 1_555 1_555
N17_2 C32_4 1_555 1_555
N18_2 C30_3 1_555 1_555
C35_4 N17_2 1_555 1_555
H15_4 C35_4 1_555 1_555
C36_3 N18_2 1_555 1_555
H16_3 C36_3 1_555 1_555
C37_4 C33_4 1_555 1_555
H17_4 C37_4 1_555 1_555
C38_3 C31_3 1_555 1_555
H18_3 C38_3 1_555 1_555
H22_3 N10_3 1_555 1_555
C26_3 C27_3 1_555 1_555
C30_3 C32_4 1_555 1_555
C35_4 C37_4 1_555 1_555
C36_3 C38_3 1_555 1_555
C18_3 C10_3 1_555 1_555
C21_3 C18_3 1_555 1_555
H12_3 C24_3 1_555 1_555
C21_3 C24_3 1_555 1_555
C2_4 H1_4 1_555 1_555
C3_4 C2_4 1_555 1_555
H2_4 C3_4 1_555 1_555
C4_4 C6_4 1_555 1_555
C6_4 N5_4 1_555 1_555
C7_4 C1_4 1_555 1_555
C8_4 C3_4 1_555 1_555
C9_4 N5_4 1_555 1_555
N5_4 H21_4 1_555 1_555
C13_4 C2_4 1_555 1_555
C14_3 C6_4 1_555 1_555
C15_3 N2_3 1_555 1_555
N6_4 C4_4 1_555 1_555
C16_4 C7_4 1_555 1_555
H6_4 C16_4 1_555 1_555
C17_3 C1_4 1_555 1_555
C19_3 C14_3 1_555 1_555
H7_3 C19_3 1_555 1_555
C20_4 C8_4 1_555 1_555
C22_4 C13_4 1_555 1_555
H10_4 C22_4 1_555 1_555
C39_3 C19_3 1_555 1_555
H19_3 C39_3 1_555 1_555
C40_3 N3_3 1_555 1_555
H20_3 C40_3 1_555 1_555
N3_3 C17_3 1_555 1_555
C4_4 C7_4 1_555 1_555
C9_4 C13_4 1_555 1_555
C9_4 N6_4 1_555 1_555
C14_3 C17_3 1_555 1_555
C20_4 C22_4 1_555 1_555
C39_3 C40_3 1_555 1_555
C11_4 H5_4 1_555 1_555
C23_4 C11_4 1_555 1_555
H11_4 C23_4 1_555 1_555
C5_4 H3_4 1_555 1_555
C12_4 C5_4 1_555 1_555
C25_4 C12_4 1_555 1_555
N9_4 C25_4 1_555 1_555
N10_4 C25_4 1_555 1_555
C26_4 N10_4 1_555 1_555
C27_4 N9_4 1_555 1_555
C28_4 C27_4 1_555 1_555
C29_4 C26_4 1_555 1_555
C30_4 C28_4 1_555 1_555
C31_4 C28_4 1_555 1_555
H13_4 C31_4 1_555 1_555
H16_4 C36_4 1_555 1_555
C38_4 C31_4 1_555 1_555
H18_4 C38_4 1_555 1_555
H22_4 N10_4 1_555 1_555
C26_4 C27_4 1_555 1_555
C36_4 C38_4 1_555 1_555
C15_4 N2_4 1_555 1_555
C18_4 C10_4 1_555 1_555
C19_4 C14_4 1_555 1_555
H7_4 C19_4 1_555 1_555
C21_4 C18_4 1_555 1_555
H9_4 C21_4 1_555 1_555
H12_4 C24_4 1_555 1_555
C39_4 C19_4 1_555 1_555
H19_4 C39_4 1_555 1_555
C40_4 N3_4 1_555 1_555
H20_4 C40_4 1_555 1_555
N3_4 C17_4 1_555 1_555
C14_4 C17_4 1_555 1_555
C15_4 C18_4 1_555 1_555
C21_4 C24_4 1_555 1_555
C39_4 C40_4 1_555 1_555

#END
