
###############################################################################
#
# This file contains modified crystal structure data generated from the
# MOF subset of the Cambridge Structural Database (CSD) v543 
# hosted by the Cambridge Crystallographic Data Centre (CCDC).
#
# This work is licensed under the Creative Commons
# Attribution-NonCommercial-ShareAlike 4.0 International License.
# To view a copy of this license, visit
# http://creativecommons.org/licenses/by-nc-sa/4.0/
# or send a letter to
# Creative Commons, PO Box 1866, Mountain View, CA 94042, USA.
#
# CIF created using the CSD Python API on 29 September 2022
# The structure has been converted into the P1 space group
# The structure has a 3D framework
# The original CSD entry QUMYOP is in the rhombohedral crystal system
# The framework has been calculated to contain at least 10.0% void space
# The void calculation uses a probe of radius 1.32A, grid spacing 0.4
#
###############################################################################

data_QUMYOP
_chemical_formula_moiety         '(C144 H108 N72 O36 Zn18)n'
_symmetry_cell_setting           triclinic
_symmetry_space_group_name_H-M   'P 1'
_symmetry_Int_Tables_number      1
_space_group_name_Hall           'P 1'
loop_
_symmetry_equiv_pos_site_id
_symmetry_equiv_pos_as_xyz
1 x,y,z
_cell_length_a                   23.2031(5)
_cell_length_b                   23.2031(5)
_cell_length_c                   12.4786(3)
_cell_angle_alpha                90
_cell_angle_beta                 90
_cell_angle_gamma                120
_cell_volume                     5818.2
loop_
_atom_site_label
_atom_site_type_symbol
_atom_site_fract_x
_atom_site_fract_y
_atom_site_fract_z
H1 H 0.2127 0.4254 0.0158
H6 H 0.0123 0.1565 0.0366
C7 C 0.1360(6) 0.0680(4) 0.0516(10)
H4 H 0.1088 0.0544 0.1118
C9 C 0.1568(6) 0.0288(4) 0.0057(6)
C11 C 0.1568(6) 0.1280(4) 0.0057(6)
H8 H 0.1442 0.1565 0.0366
Zn1 Zn 0.00129(5) 0.24064(4) 0.85610(8)
O1 O 0.10315(18) 0.2063(4) 0.8456(7)
C2 C 0.1304(2) 0.2608(5) 0.8904(8)
N2 N 0.0944(3) 0.2912(3) 0.9153(4)
O3 O 0.0508(3) 0.3597(3) 0.7248(4)
C3 C 0.0426(3) 0.3153(4) 0.6609(6)
N3 N 0.0182(3) 0.2513(3) 0.6962(5)
N4 N 0.0586(3) 0.3308(4) 0.5578(4)
C4 C 0.1918(3) 0.3835(5) 0.9841(9)
C5 C 0.0527(4) 0.2836(6) 0.4896(6)
H2 H 0.0651 0.2952 0.4185
C6 C 0.0290(4) 0.2187(6) 0.5204(6)
H3 H 0.0244 0.1859 0.4726
C8 C 0.0129(4) 0.2058(4) 0.6262(6)
C10 C 0.1254(3) 0.3512(3) 0.9597(5)
H7 H 0.1011 0.3722 0.9748
N6 N 0.1968(4) 0.2912(3) 0.9153(4)
C12 C 0.2258(4) 0.3512(3) 0.9597(5)
H9 H 0.2711 0.3722 0.9748
Zn2 Zn 0.23935(6) 0.24064(4) 0.85610(8)
O4 O 0.3089(4) 0.3597(3) 0.7248(4)
C13 C 0.2727(5) 0.3153(4) 0.6609(6)
N7 N 0.2331(4) 0.2513(3) 0.6962(5)
N8 N 0.2722(5) 0.3308(4) 0.5578(4)
C14 C 0.2309(7) 0.2836(6) 0.4896(6)
H10 H 0.2301 0.2952 0.4185
C15 C 0.1897(7) 0.2187(6) 0.5204(6)
H11 H 0.1615 0.1859 0.4726
C16 C 0.1929(6) 0.2058(4) 0.6262(6)
H12 H 0.1653 0.1626 0.6507
Zn4 Zn 0.09269(4) 0.42732(6) 0.52277(8)
Zn5 Zn 0.33462(5) 0.42732(6) 0.52277(8)
N9 N 0.1944(4) 0.1478(3) 0.9186(5)
N11 N 0.3359(4) 0.2747(3) 0.8911(4)
Zn3 Zn 0.75936(4) 0.99871(5) 0.85610(8)
Zn3_2 Zn 0.00129(5) 0.76065(6) 0.85610(8)
Zn1_2 Zn 0.75936(4) 0.76065(6) 0.85610(8)
C1 C 0.8938(3) 0.7876(4) 0.8712(9)
O1_2 O 0.7937(4) 0.89685(44) 0.8456(7)
N1 N 0.8522(3) 0.8056(4) 0.9186(5)
O2 O 0.87614(18) 0.75228(25) 0.7886(5)
C2_2 C 0.7392(5) 0.8696(5) 0.8904(8)
N2_2 N 0.7088(3) 0.8032(4) 0.9153(4)
O3_2 O 0.6403(3) 0.6911(4) 0.7248(4)
C3_2 C 0.6847(4) 0.7273(5) 0.6609(6)
N3_2 N 0.7487(3) 0.7669(4) 0.6962(5)
N4_2 N 0.6692(4) 0.7278(5) 0.5578(4)
C4_2 C 0.6165(5) 0.8083(6) 0.9841(9)
C5_2 C 0.7164(6) 0.7691(7) 0.4896(6)
H2_2 H 0.7048 0.7699 0.4185
C6_2 C 0.7813(6) 0.8103(7) 0.5204(6)
H3_2 H 0.8141 0.8385 0.4726
C8_2 C 0.7942(4) 0.8071(6) 0.6262(6)
H5 H 0.8374 0.8347 0.6507
C10_2 C 0.6488(3) 0.7742(4) 0.9597(5)
H7_2 H 0.6278 0.7289 0.9748
N5 N 0.9534(3) 0.8056(4) 0.9186(5)
N6_2 N 0.7088(3) 0.9056(5) 0.9153(4)
C12_2 C 0.6488(3) 0.8746(5) 0.9597(5)
H9_2 H 0.6278 0.8989 0.9748
O4_2 O 0.6403(3) 0.9492(5) 0.7248(4)
C13_2 C 0.6847(4) 0.9574(6) 0.6609(6)
N7_2 N 0.7487(3) 0.9818(5) 0.6962(5)
N8_2 N 0.6692(4) 0.9414(6) 0.5578(4)
C14_2 C 0.7164(6) 0.9473(9) 0.4896(6)
H10_2 H 0.7048 0.9349 0.4185
C15_2 C 0.7813(6) 0.9710(9) 0.5204(6)
H11_2 H 0.8141 0.9756 0.4726
C16_2 C 0.7942(4) 0.9871(7) 0.6262(6)
Zn4_2 Zn 0.57268(6) 0.66538(7) 0.52277(8)
Zn5_2 Zn 0.57268(6) 0.90731(8) 0.52277(8)
N10 N 0.7253(3) 0.6641(6) 0.8911(4)
C1_2 C 0.2124(4) 0.1062(3) 0.8712(9)
N1_2 N 0.1944(4) 0.0466(3) 0.9186(5)
O2_2 O 0.24772(25) 0.12386(18) 0.7886(5)
H5_2 H 0.1653 0.0027 0.6507
N10_2 N 0.3359(6) 0.0611(5) 0.8911(4)
Zn1_3 Zn 0.23935(6) 0.99871(5) 0.85610(8)
O1_3 O 0.10315(44) 0.89685(18) 0.8456(7)
C2_3 C 0.1304(5) 0.8696(2) 0.8904(8)
N2_3 N 0.1968(4) 0.9056(3) 0.9153(4)
O3_3 O 0.3089(4) 0.9492(3) 0.7248(4)
C3_3 C 0.2727(5) 0.9574(3) 0.6609(6)
N3_3 N 0.2331(4) 0.9818(3) 0.6962(5)
N4_3 N 0.2722(5) 0.9414(3) 0.5578(4)
C4_3 C 0.1917(6) 0.8082(3) 0.9841(9)
C5_3 C 0.2309(7) 0.9473(4) 0.4896(6)
H2_3 H 0.2301 0.9349 0.4185
C6_3 C 0.1897(7) 0.9710(4) 0.5204(6)
H3_3 H 0.1615 0.9756 0.4726
C8_3 C 0.1929(6) 0.9871(4) 0.6262(6)
C10_3 C 0.2258(4) 0.8746(3) 0.9597(5)
H7_3 H 0.2711 0.8989 0.9748
N6_3 N 0.0944(5) 0.8032(4) 0.9153(4)
C12_3 C 0.1254(5) 0.7742(4) 0.9597(5)
H9_3 H 0.1011 0.7289 0.9748
O4_3 O 0.0508(5) 0.6911(4) 0.7248(4)
C13_3 C 0.0426(6) 0.7273(5) 0.6609(6)
N7_3 N 0.0182(5) 0.7669(4) 0.6962(5)
N8_3 N 0.0586(6) 0.7278(5) 0.5578(4)
C14_3 C 0.0527(9) 0.7691(7) 0.4896(6)
H10_3 H 0.0651 0.7699 0.4185
C15_3 C 0.0290(9) 0.8103(7) 0.5204(6)
H11_3 H 0.0244 0.8385 0.4726
C16_3 C 0.0129(7) 0.8071(6) 0.6262(6)
Zn4_3 Zn 0.33462(7) 0.90731(4) 0.52277(8)
Zn5_3 Zn 0.09269(8) 0.66538(5) 0.52277(8)
H12_2 H 0.9973 0.8347 0.6507
N11_2 N 0.9389(5) 0.6641(4) 0.8911(4)
N11_3 N 0.0025(4) 0.6081(3) 0.2245(4)
Zn1_4 Zn 0.66796(5) 0.57397(4) 0.18943(8)
C1_3 C 0.5605(3) 0.4395(3) 0.2045(9)
O1_4 O 0.76982(18) 0.5396(4) 0.1789(7)
N1_3 N 0.6201(3) 0.4811(3) 0.2519(5)
O2_3 O 0.54281(18) 0.45719(18) 0.1219(5)
C2_4 C 0.7971(2) 0.5941(5) 0.2237(8)
N2_4 N 0.7611(3) 0.6245(3) 0.2486(4)
O3_4 O 0.7175(3) 0.6930(3) 0.0581(4)
N3_4 N 0.6849(3) 0.5846(3) 0.0295(5)
C4_4 C 0.8585(3) 0.7168(5) 0.3174(9)
H1_2 H 0.8794 0.7587 0.3491
C7_2 C 0.5987(4) 0.4013(4) 0.3849(10)
H4_2 H 0.6123 0.3877 0.4451
C9_2 C 0.6379(4) 0.4613(4) 0.3390(6)
H6_2 H 0.6790 0.4898 0.3699
C10_4 C 0.7921(3) 0.6845(3) 0.2930(5)
H7_4 H 0.7678 0.7055 0.3081
N5_2 N 0.5189(3) 0.3799(3) 0.2519(5)
C11_2 C 0.5387(4) 0.3621(4) 0.3390(6)
H8_2 H 0.5102 0.3210 0.3699
N6_4 N 0.8635(4) 0.6245(3) 0.2486(4)
C12_4 C 0.8925(4) 0.6845(3) 0.2930(5)
H9_4 H 0.9378 0.7055 0.3081
Zn2_2 Zn 0.90602(6) 0.57397(4) 0.18943(8)
O4_4 O 0.9756(4) 0.6930(3) 0.0581(4)
N7_4 N 0.8998(4) 0.5846(3) 0.0295(5)
Zn3_3 Zn 0.42603(4) 0.33204(5) 0.18943(8)
N9_2 N 0.8611(4) 0.4811(3) 0.2519(5)
N10_3 N 0.6055(5) 0.6081(3) 0.2245(4)
C3_4 C 0.7093(3) 0.6486(4) 0.9942(6)
C5_4 C 0.7194(4) 0.6169(6) 0.8229(6)
H2_4 H 0.7318 0.6285 0.7518
C6_4 C 0.6957(4) 0.5520(6) 0.8537(6)
H3_4 H 0.6911 0.5192 0.8059
C8_4 C 0.6796(4) 0.5391(4) 0.9595(6)
H5_3 H 0.6640 0.4959 0.9840
C13_4 C 0.9394(5) 0.6486(4) 0.9942(6)
C14_4 C 0.8976(7) 0.6169(6) 0.8229(6)
H10_4 H 0.8968 0.6285 0.7518
C15_4 C 0.8564(7) 0.5520(6) 0.8537(6)
H11_4 H 0.8282 0.5192 0.8059
C16_4 C 0.8596(6) 0.5391(4) 0.9595(6)
H12_3 H 0.8320 0.4959 0.9840
Zn1_5 Zn 0.42603(4) 0.09398(6) 0.18943(8)
C1_4 C 0.5605(3) 0.1209(4) 0.2045(9)
O1_5 O 0.4604(4) 0.23018(44) 0.1789(7)
N1_4 N 0.5189(3) 0.1389(4) 0.2519(5)
O2_4 O 0.54281(18) 0.08561(25) 0.1219(5)
C2_5 C 0.4059(5) 0.2029(5) 0.2237(8)
N2_5 N 0.3755(3) 0.1365(4) 0.2486(4)
O3_5 O 0.3070(3) 0.0244(4) 0.0581(4)
N3_5 N 0.4154(3) 0.1002(4) 0.0295(5)
C4_5 C 0.2832(5) 0.1416(6) 0.3174(9)
H1_3 H 0.2413 0.1206 0.3491
C7_3 C 0.5987(4) 0.1973(6) 0.3849(10)
H4_3 H 0.6123 0.2245 0.4451
C9_3 C 0.5387(4) 0.1765(6) 0.3390(6)
H6_3 H 0.5102 0.1891 0.3699
C10_5 C 0.3155(3) 0.1075(4) 0.2930(5)
H7_5 H 0.2945 0.0622 0.3081
N5_3 N 0.6201(3) 0.1389(4) 0.2519(5)
C11_3 C 0.6379(4) 0.1765(6) 0.3390(6)
H8_3 H 0.6790 0.1891 0.3699
N6_5 N 0.3755(3) 0.2389(5) 0.2486(4)
C12_5 C 0.3155(3) 0.2079(5) 0.2930(5)
H9_5 H 0.2945 0.2322 0.3081
O4_5 O 0.3070(3) 0.2825(5) 0.0581(4)
N7_5 N 0.4154(3) 0.3151(5) 0.0295(5)
Zn3_4 Zn 0.66796(5) 0.09398(6) 0.18943(8)
N11_4 N 0.3919(3) 0.3945(5) 0.2245(4)
C3_5 C 0.3514(4) 0.0606(5) 0.9942(6)
C5_5 C 0.3831(6) 0.1024(7) 0.8229(6)
H2_5 H 0.3715 0.1032 0.7518
C6_5 C 0.4480(6) 0.1436(7) 0.8537(6)
H3_5 H 0.4808 0.1718 0.8059
C8_5 C 0.4609(4) 0.1404(6) 0.9595(6)
H5_4 H 0.5041 0.1680 0.9840
C13_5 C 0.3514(4) 0.2907(6) 0.9942(6)
C14_5 C 0.3831(6) 0.2806(9) 0.8229(6)
H10_5 H 0.3715 0.2682 0.7518
C15_5 C 0.4480(6) 0.3043(9) 0.8537(6)
H11_5 H 0.4808 0.3089 0.8059
C16_5 C 0.4609(4) 0.3204(7) 0.9595(6)
H12_4 H 0.5041 0.3360 0.9840
N10_4 N 0.3919(3) 0.9975(6) 0.2245(4)
N10_5 N 0.0025(6) 0.3945(5) 0.2245(4)
Zn1_6 Zn 0.90602(6) 0.33204(5) 0.18943(8)
C1_5 C 0.8791(4) 0.4395(3) 0.2045(9)
O1_6 O 0.76982(44) 0.23018(18) 0.1789(7)
N1_5 N 0.8611(4) 0.3799(3) 0.2519(5)
O2_5 O 0.91439(25) 0.45719(18) 0.1219(5)
C2_6 C 0.7971(5) 0.2029(2) 0.2237(8)
N2_6 N 0.8635(4) 0.2389(3) 0.2486(4)
O3_6 O 0.9756(4) 0.2825(3) 0.0581(4)
N3_6 N 0.8998(4) 0.3151(3) 0.0295(5)
C4_6 C 0.8584(6) 0.1415(3) 0.3174(9)
H1_4 H 0.8794 0.1206 0.3491
C7_4 C 0.8027(6) 0.4013(4) 0.3849(10)
H4_4 H 0.7755 0.3877 0.4451
C9_4 C 0.8235(6) 0.3621(4) 0.3390(6)
H6_4 H 0.8109 0.3210 0.3699
C10_6 C 0.8925(4) 0.2079(3) 0.2930(5)
H7_6 H 0.9378 0.2322 0.3081
C11_4 C 0.8235(6) 0.4613(4) 0.3390(6)
H8_4 H 0.8109 0.4898 0.3699
N6_6 N 0.7611(5) 0.1365(4) 0.2486(4)
C12_6 C 0.7921(5) 0.1075(4) 0.2930(5)
H9_6 H 0.7678 0.0622 0.3081
O4_6 O 0.7175(5) 0.0244(4) 0.0581(4)
N7_6 N 0.6849(5) 0.1002(4) 0.0295(5)
N11_5 N 0.6055(5) 0.9975(4) 0.2245(4)
O3_7 O 0.3841(3) 0.0264(3) 0.3915(4)
C4_7 C 0.5251(3) 0.0502(5) 0.6508(9)
H1_5 H 0.5460 0.0921 0.6825
C10_7 C 0.4587(3) 0.0179(3) 0.6264(5)
H7_7 H 0.4344 0.0389 0.6415
C12_7 C 0.5591(4) 0.0179(3) 0.6264(5)
H9_7 H 0.6044 0.0389 0.6415
O4_7 O 0.6422(4) 0.0264(3) 0.3915(4)
C1_6 C 0.2271(3) 0.7729(3) 0.5379(9)
O1_7 O 0.43648(18) 0.8730(4) 0.5123(7)
N1_6 N 0.2867(3) 0.8145(3) 0.5853(5)
O2_6 O 0.20947(18) 0.79053(18) 0.4553(5)
C2_7 C 0.4637(2) 0.9275(5) 0.5571(8)
N2_7 N 0.4277(3) 0.9579(3) 0.5820(4)
C3_6 C 0.3759(3) 0.9820(4) 0.3276(6)
N3_7 N 0.3515(3) 0.9180(3) 0.3629(5)
C5_6 C 0.3860(4) 0.9503(6) 0.1563(6)
H2_6 H 0.3984 0.9619 0.0852
C6_6 C 0.3623(4) 0.8854(6) 0.1871(6)
H3_6 H 0.3577 0.8526 0.1393
C7_5 C 0.2653(4) 0.7347(4) 0.7183(10)
H4_5 H 0.2789 0.7211 0.7785
C8_6 C 0.3462(4) 0.8725(4) 0.2929(6)
H5_5 H 0.3306 0.8293 0.3174
C9_5 C 0.3045(4) 0.7947(4) 0.6724(6)
H6_5 H 0.3456 0.8232 0.7033
N5_4 N 0.1855(3) 0.7133(3) 0.5853(5)
C11_5 C 0.2053(4) 0.6955(4) 0.6724(6)
H8_5 H 0.1768 0.6544 0.7033
N6_7 N 0.5301(4) 0.9579(3) 0.5820(4)
C13_6 C 0.6060(5) 0.9820(4) 0.3276(6)
N7_7 N 0.5664(4) 0.9180(3) 0.3629(5)
C14_6 C 0.5642(7) 0.9503(6) 0.1563(6)
H10_6 H 0.5634 0.9619 0.0852
C15_6 C 0.5230(7) 0.8854(6) 0.1871(6)
H11_6 H 0.4948 0.8526 0.1393
C16_6 C 0.5262(6) 0.8725(4) 0.2929(6)
H12_5 H 0.4986 0.8293 0.3174
N9_3 N 0.5277(4) 0.8145(3) 0.5853(5)
C1_7 C 0.2271(3) 0.4543(4) 0.5379(9)
O1_8 O 0.1270(4) 0.56352(44) 0.5123(7)
N1_7 N 0.1855(3) 0.4723(4) 0.5853(5)
O2_7 O 0.20947(18) 0.41895(25) 0.4553(5)
C2_8 C 0.0725(5) 0.5363(5) 0.5571(8)
N2_8 N 0.0421(3) 0.4699(4) 0.5820(4)
C3_7 C 0.0180(4) 0.3940(5) 0.3276(6)
N3_8 N 0.0820(3) 0.4336(4) 0.3629(5)
C5_7 C 0.0497(6) 0.4358(7) 0.1563(6)
H2_7 H 0.0381 0.4366 0.0852
C6_7 C 0.1146(6) 0.4770(7) 0.1871(6)
H3_7 H 0.1474 0.5052 0.1393
C7_6 C 0.2653(4) 0.5307(6) 0.7183(10)
H4_6 H 0.2789 0.5579 0.7785
C8_7 C 0.1275(4) 0.4738(6) 0.2929(6)
H5_6 H 0.1707 0.5014 0.3174
C9_6 C 0.2053(4) 0.5099(6) 0.6724(6)
H6_6 H 0.1768 0.5225 0.7033
N5_5 N 0.2867(3) 0.4723(4) 0.5853(5)
C11_6 C 0.3045(4) 0.5099(6) 0.6724(6)
H8_6 H 0.3456 0.5225 0.7033
N6_8 N 0.0421(3) 0.5723(5) 0.5820(4)
C13_7 C 0.0180(4) 0.6241(6) 0.3276(6)
N7_8 N 0.0820(3) 0.6485(5) 0.3629(5)
C14_7 C 0.0497(6) 0.6140(9) 0.1563(6)
H10_7 H 0.0381 0.6016 0.0852
C15_7 C 0.1146(6) 0.6377(9) 0.1871(6)
H11_7 H 0.1474 0.6423 0.1393
C16_7 C 0.1275(4) 0.6538(7) 0.2929(6)
H12_6 H 0.1707 0.6694 0.3174
O3_8 O 0.9736(3) 0.3578(4) 0.3915(4)
C4_8 C 0.9498(5) 0.4750(6) 0.6508(9)
H1_6 H 0.9079 0.4540 0.6825
C10_8 C 0.9821(3) 0.4409(4) 0.6264(5)
H7_8 H 0.9611 0.3956 0.6415
C12_8 C 0.9821(3) 0.5413(5) 0.6264(5)
H9_8 H 0.9611 0.5656 0.6415
O4_8 O 0.9736(3) 0.6159(5) 0.3915(4)
C1_8 C 0.5457(4) 0.7729(3) 0.5379(9)
O1_9 O 0.43648(44) 0.56352(18) 0.5123(7)
N1_8 N 0.5277(4) 0.7133(3) 0.5853(5)
O2_8 O 0.58105(25) 0.79053(18) 0.4553(5)
C2_9 C 0.4637(5) 0.5363(2) 0.5571(8)
N2_9 N 0.5301(4) 0.5723(3) 0.5820(4)
O3_9 O 0.6422(4) 0.6159(3) 0.3915(4)
C3_8 C 0.6060(5) 0.6241(3) 0.3276(6)
N3_9 N 0.5664(4) 0.6485(3) 0.3629(5)
C4_9 C 0.5250(6) 0.4749(3) 0.6508(9)
H1_7 H 0.5460 0.4540 0.6825
C5_8 C 0.5642(7) 0.6140(4) 0.1563(6)
H2_8 H 0.5634 0.6016 0.0852
C6_8 C 0.5230(7) 0.6377(4) 0.1871(6)
H3_8 H 0.4948 0.6423 0.1393
C7_7 C 0.4693(6) 0.7347(4) 0.7183(10)
H4_7 H 0.4421 0.7211 0.7785
C8_8 C 0.5262(6) 0.6538(4) 0.2929(6)
H5_7 H 0.4986 0.6694 0.3174
C9_7 C 0.4901(6) 0.6955(4) 0.6724(6)
H6_7 H 0.4775 0.6544 0.7033
C10_9 C 0.5591(4) 0.5413(3) 0.6264(5)
H7_9 H 0.6044 0.5656 0.6415
C11_7 C 0.4901(6) 0.7947(4) 0.6724(6)
H8_7 H 0.4775 0.8232 0.7033
N6_9 N 0.4277(5) 0.4699(4) 0.5820(4)
C12_9 C 0.4587(5) 0.4409(4) 0.6264(5)
H9_9 H 0.4344 0.3956 0.6415
O4_9 O 0.3841(5) 0.3578(4) 0.3915(4)
C13_8 C 0.3759(6) 0.3940(5) 0.3276(6)
N7_9 N 0.3515(5) 0.4336(4) 0.3629(5)
C14_8 C 0.3860(9) 0.4358(7) 0.1563(6)
H10_8 H 0.3984 0.4366 0.0852
C15_8 C 0.3623(9) 0.4770(7) 0.1871(6)
H11_8 H 0.3577 0.5052 0.1393
C16_8 C 0.3462(7) 0.4738(6) 0.2929(6)
H12_7 H 0.3306 0.5014 0.3174
C7_8 C 0.9320(4) 0.0680(4) 0.0516(10)
H4_8 H 0.9456 0.0544 0.1118
C9_8 C 0.9712(4) 0.1280(4) 0.0057(6)
C11_8 C 0.8720(4) 0.0288(4) 0.0057(6)
C1_9 C 0.8938(3) 0.1062(3) 0.8712(9)
N1_9 N 0.9534(3) 0.1478(3) 0.9186(5)
O2_9 O 0.87614(18) 0.12386(18) 0.7886(5)
H5_8 H 0.9973 0.1626 0.6507
N5_6 N 0.8522(3) 0.0466(3) 0.9186(5)
N10_6 N 0.9389(5) 0.2747(3) 0.8911(4)
H12_8 H 0.8374 0.0027 0.6507
N11_6 N 0.7253(3) 0.0611(5) 0.8911(4)
C3_9 C 0.9394(5) 0.2907(3) 0.9942(6)
C5_9 C 0.8976(7) 0.2806(4) 0.8229(6)
H2_9 H 0.8968 0.2682 0.7518
C6_9 C 0.8564(7) 0.3043(4) 0.8537(6)
H3_9 H 0.8282 0.3089 0.8059
C8_9 C 0.8596(6) 0.3204(4) 0.9595(6)
H5_9 H 0.8320 0.3360 0.9840
C13_9 C 0.7093(6) 0.0606(5) 0.9942(6)
C14_9 C 0.7194(9) 0.1024(7) 0.8229(6)
H10_9 H 0.7318 0.1032 0.7518
C15_9 C 0.6957(9) 0.1436(7) 0.8537(6)
H11_9 H 0.6911 0.1718 0.8059
C16_9 C 0.6796(7) 0.1404(6) 0.9595(6)
H12_9 H 0.6640 0.1680 0.9840
H8_8 H 0.8435 0.9877 0.0366
H1_8 H 0.5746 0.7873 0.0158
C7_9 C 0.9320(4) 0.8640(6) 0.0516(10)
H4_9 H 0.9456 0.8912 0.1118
C9_9 C 0.8720(4) 0.8432(6) 0.0057(6)
H6_8 H 0.8435 0.8558 0.0366
C11_9 C 0.9712(4) 0.8432(6) 0.0057(6)
H8_9 H 0.0123 0.8558 0.0366
H1_9 H 0.2127 0.7873 0.0158
H6_9 H 0.1442 0.9877 0.0366
loop_
_geom_bond_atom_site_label_1
_geom_bond_atom_site_label_2
_geom_bond_site_symmetry_1
_geom_bond_site_symmetry_2
C7 H4 1_555 1_555
C9 C7 1_555 1_555
C11 C7 1_555 1_555
H8 C11 1_555 1_555
O1 C2 1_555 1_555
C2 N2 1_555 1_555
N2 Zn1 1_555 1_555
O3 C3 1_555 1_555
C3 N3 1_555 1_555
N3 Zn1 1_555 1_555
N4 C3 1_555 1_555
C5 N4 1_555 1_555
H2 C5 1_555 1_555
C6 C5 1_555 1_555
H3 C6 1_555 1_555
C8 N3 1_555 1_555
C10 N2 1_555 1_555
H7 C10 1_555 1_555
N6 C2 1_555 1_555
C12 C4 1_555 1_555
H9 C12 1_555 1_555
Zn2 N6 1_555 1_555
O4 C13 1_555 1_555
C13 N7 1_555 1_555
N7 Zn2 1_555 1_555
N8 C13 1_555 1_555
C14 N8 1_555 1_555
H10 C14 1_555 1_555
C15 C14 1_555 1_555
H11 C15 1_555 1_555
C16 N7 1_555 1_555
H12 C16 1_555 1_555
Zn4 N4 1_555 1_555
Zn5 N8 1_555 1_555
N9 Zn2 1_555 1_555
N11 Zn2 1_555 1_555
C4 C10 1_555 1_555
C6 C8 1_555 1_555
N6 C12 1_555 1_555
C15 C16 1_555 1_555
Zn1_2 N1 1_555 1_555
C1 N1 1_555 1_555
O1_2 C2_2 1_555 1_555
O2 C1 1_555 1_555
C2_2 N2_2 1_555 1_555
N2_2 Zn1_2 1_555 1_555
O3_2 C3_2 1_555 1_555
C3_2 N3_2 1_555 1_555
N3_2 Zn1_2 1_555 1_555
N4_2 C3_2 1_555 1_555
C5_2 N4_2 1_555 1_555
H2_2 C5_2 1_555 1_555
C6_2 C5_2 1_555 1_555
H3_2 C6_2 1_555 1_555
C8_2 N3_2 1_555 1_555
H5 C8_2 1_555 1_555
C10_2 N2_2 1_555 1_555
H7_2 C10_2 1_555 1_555
N5 C1 1_555 1_555
N6_2 C2_2 1_555 1_555
C12_2 C4_2 1_555 1_555
H9_2 C12_2 1_555 1_555
Zn3 N6_2 1_555 1_555
O4_2 C13_2 1_555 1_555
C13_2 N7_2 1_555 1_555
N7_2 Zn3 1_555 1_555
N8_2 C13_2 1_555 1_555
C14_2 N8_2 1_555 1_555
H10_2 C14_2 1_555 1_555
C15_2 C14_2 1_555 1_555
H11_2 C15_2 1_555 1_555
C16_2 N7_2 1_555 1_555
Zn4_2 N4_2 1_555 1_555
Zn5_2 N8_2 1_555 1_555
N10 Zn1_2 1_555 1_555
C4_2 C10_2 1_555 1_555
C6_2 C8_2 1_555 1_555
N6_2 C12_2 1_555 1_555
C15_2 C16_2 1_555 1_555
C1_2 N1_2 1_555 1_555
O2_2 C1_2 1_555 1_555
N9 C1_2 1_555 1_555
O1_3 C2_3 1_555 1_555
C2_3 N2_3 1_555 1_555
N2_3 Zn1_3 1_555 1_555
O3_3 C3_3 1_555 1_555
C3_3 N3_3 1_555 1_555
N3_3 Zn1_3 1_555 1_555
N4_3 C3_3 1_555 1_555
C5_3 N4_3 1_555 1_555
H2_3 C5_3 1_555 1_555
C6_3 C5_3 1_555 1_555
H3_3 C6_3 1_555 1_555
C8_3 N3_3 1_555 1_555
C10_3 N2_3 1_555 1_555
H7_3 C10_3 1_555 1_555
N6_3 C2_3 1_555 1_555
C12_3 C4_3 1_555 1_555
H9_3 C12_3 1_555 1_555
Zn3_2 N6_3 1_555 1_555
O4_3 C13_3 1_555 1_555
C13_3 N7_3 1_555 1_555
N7_3 Zn3_2 1_555 1_555
N8_3 C13_3 1_555 1_555
C14_3 N8_3 1_555 1_555
H10_3 C14_3 1_555 1_555
C15_3 C14_3 1_555 1_555
H11_3 C15_3 1_555 1_555
C16_3 N7_3 1_555 1_555
Zn4_3 N4_3 1_555 1_555
Zn5_3 N8_3 1_555 1_555
C4_3 C10_3 1_555 1_555
C6_3 C8_3 1_555 1_555
N6_3 C12_3 1_555 1_555
C15_3 C16_3 1_555 1_555
Zn1_4 N1_3 1_555 1_555
C1_3 N1_3 1_555 1_555
O1_4 C2_4 1_555 1_555
N1_3 C9_2 1_555 1_555
O2_3 C1_3 1_555 1_555
C2_4 N2_4 1_555 1_555
N2_4 Zn1_4 1_555 1_555
N3_4 Zn1_4 1_555 1_555
C4_4 H1_2 1_555 1_555
C7_2 H4_2 1_555 1_555
C9_2 C7_2 1_555 1_555
H6_2 C9_2 1_555 1_555
C10_4 N2_4 1_555 1_555
H7_4 C10_4 1_555 1_555
N5_2 C1_3 1_555 1_555
C11_2 C7_2 1_555 1_555
H8_2 C11_2 1_555 1_555
N6_4 C2_4 1_555 1_555
C12_4 C4_4 1_555 1_555
H9_4 C12_4 1_555 1_555
Zn2_2 N6_4 1_555 1_555
N7_4 Zn2_2 1_555 1_555
Zn3_3 N5_2 1_555 1_555
N9_2 Zn2_2 1_555 1_555
N10_3 Zn1_4 1_555 1_555
C4_4 C10_4 1_555 1_555
N5_2 C11_2 1_555 1_555
N6_4 C12_4 1_555 1_555
N10 C3_4 1_555 1_555
C5_4 N10 1_555 1_555
H2_4 C5_4 1_555 1_555
C6_4 C5_4 1_555 1_555
H3_4 C6_4 1_555 1_555
H5_3 C8_4 1_555 1_555
N11_2 C13_4 1_555 1_555
C14_4 N11_2 1_555 1_555
H10_4 C14_4 1_555 1_555
C15_4 C14_4 1_555 1_555
H11_4 C15_4 1_555 1_555
H12_3 C16_4 1_555 1_555
C6_4 C8_4 1_555 1_555
C15_4 C16_4 1_555 1_555
Zn1_5 N1_4 1_555 1_555
C1_4 N1_4 1_555 1_555
O1_5 C2_5 1_555 1_555
N1_4 C9_3 1_555 1_555
O2_4 C1_4 1_555 1_555
C2_5 N2_5 1_555 1_555
N2_5 Zn1_5 1_555 1_555
N3_5 Zn1_5 1_555 1_555
C4_5 H1_3 1_555 1_555
C7_3 H4_3 1_555 1_555
C9_3 C7_3 1_555 1_555
H6_3 C9_3 1_555 1_555
C10_5 N2_5 1_555 1_555
H7_5 C10_5 1_555 1_555
N5_3 C1_4 1_555 1_555
C11_3 C7_3 1_555 1_555
H8_3 C11_3 1_555 1_555
N6_5 C2_5 1_555 1_555
C12_5 C4_5 1_555 1_555
H9_5 C12_5 1_555 1_555
Zn3_3 N6_5 1_555 1_555
N7_5 Zn3_3 1_555 1_555
Zn3_4 N5_3 1_555 1_555
N11_4 Zn3_3 1_555 1_555
C4_5 C10_5 1_555 1_555
N5_3 C11_3 1_555 1_555
N6_5 C12_5 1_555 1_555
N10_2 C3_5 1_555 1_555
C5_5 N10_2 1_555 1_555
H2_5 C5_5 1_555 1_555
C6_5 C5_5 1_555 1_555
H3_5 C6_5 1_555 1_555
H5_4 C8_5 1_555 1_555
N11 C13_5 1_555 1_555
C14_5 N11 1_555 1_555
H10_5 C14_5 1_555 1_555
C15_5 C14_5 1_555 1_555
H11_5 C15_5 1_555 1_555
H12_4 C16_5 1_555 1_555
C6_5 C8_5 1_555 1_555
C15_5 C16_5 1_555 1_555
Zn1_6 N1_5 1_555 1_555
C1_5 N1_5 1_555 1_555
O1_6 C2_6 1_555 1_555
N1_5 C9_4 1_555 1_555
O2_5 C1_5 1_555 1_555
C2_6 N2_6 1_555 1_555
N2_6 Zn1_6 1_555 1_555
N3_6 Zn1_6 1_555 1_555
C4_6 H1_4 1_555 1_555
C7_4 H4_4 1_555 1_555
C9_4 C7_4 1_555 1_555
H6_4 C9_4 1_555 1_555
C10_6 N2_6 1_555 1_555
H7_6 C10_6 1_555 1_555
N9_2 C1_5 1_555 1_555
C11_4 C7_4 1_555 1_555
H8_4 C11_4 1_555 1_555
N6_6 C2_6 1_555 1_555
C12_6 C4_6 1_555 1_555
H9_6 C12_6 1_555 1_555
Zn3_4 N6_6 1_555 1_555
N7_6 Zn3_4 1_555 1_555
C4_6 C10_6 1_555 1_555
N9_2 C11_4 1_555 1_555
N6_6 C12_6 1_555 1_555
C4_7 H1_5 1_555 1_555
H7_7 C10_7 1_555 1_555
C12_7 C4_7 1_555 1_555
H9_7 C12_7 1_555 1_555
C4_7 C10_7 1_555 1_555
Zn4_3 N1_6 1_555 1_555
C1_6 N1_6 1_555 1_555
O1_7 C2_7 1_555 1_555
N1_6 C9_5 1_555 1_555
O2_6 C1_6 1_555 1_555
C2_7 N2_7 1_555 1_555
N2_7 Zn4_3 1_555 1_555
C3_6 N3_7 1_555 1_555
N3_7 Zn4_3 1_555 1_555
N10_4 C3_6 1_555 1_555
C5_6 N10_4 1_555 1_555
H2_6 C5_6 1_555 1_555
C6_6 C5_6 1_555 1_555
H3_6 C6_6 1_555 1_555
C7_5 H4_5 1_555 1_555
C8_6 N3_7 1_555 1_555
H5_5 C8_6 1_555 1_555
C9_5 C7_5 1_555 1_555
H6_5 C9_5 1_555 1_555
N5_4 C1_6 1_555 1_555
C11_5 C7_5 1_555 1_555
H8_5 C11_5 1_555 1_555
N6_7 C2_7 1_555 1_555
Zn5_2 N6_7 1_555 1_555
C13_6 N7_7 1_555 1_555
N7_7 Zn5_2 1_555 1_555
N11_5 C13_6 1_555 1_555
C14_6 N11_5 1_555 1_555
H10_6 C14_6 1_555 1_555
C15_6 C14_6 1_555 1_555
H11_6 C15_6 1_555 1_555
C16_6 N7_7 1_555 1_555
H12_5 C16_6 1_555 1_555
Zn5_3 N5_4 1_555 1_555
N9_3 Zn5_2 1_555 1_555
C6_6 C8_6 1_555 1_555
N5_4 C11_5 1_555 1_555
C15_6 C16_6 1_555 1_555
Zn4 N1_7 1_555 1_555
C1_7 N1_7 1_555 1_555
O1_8 C2_8 1_555 1_555
N1_7 C9_6 1_555 1_555
O2_7 C1_7 1_555 1_555
C2_8 N2_8 1_555 1_555
N2_8 Zn4 1_555 1_555
C3_7 N3_8 1_555 1_555
N3_8 Zn4 1_555 1_555
N10_5 C3_7 1_555 1_555
C5_7 N10_5 1_555 1_555
H2_7 C5_7 1_555 1_555
C6_7 C5_7 1_555 1_555
H3_7 C6_7 1_555 1_555
C7_6 H4_6 1_555 1_555
C8_7 N3_8 1_555 1_555
H5_6 C8_7 1_555 1_555
C9_6 C7_6 1_555 1_555
H6_6 C9_6 1_555 1_555
N5_5 C1_7 1_555 1_555
C11_6 C7_6 1_555 1_555
H8_6 C11_6 1_555 1_555
N6_8 C2_8 1_555 1_555
Zn5_3 N6_8 1_555 1_555
C13_7 N7_8 1_555 1_555
N7_8 Zn5_3 1_555 1_555
N11_3 C13_7 1_555 1_555
C14_7 N11_3 1_555 1_555
H10_7 C14_7 1_555 1_555
C15_7 C14_7 1_555 1_555
H11_7 C15_7 1_555 1_555
C16_7 N7_8 1_555 1_555
H12_6 C16_7 1_555 1_555
Zn5 N5_5 1_555 1_555
C6_7 C8_7 1_555 1_555
N5_5 C11_6 1_555 1_555
C15_7 C16_7 1_555 1_555
C4_8 H1_6 1_555 1_555
H7_8 C10_8 1_555 1_555
C12_8 C4_8 1_555 1_555
H9_8 C12_8 1_555 1_555
C4_8 C10_8 1_555 1_555
Zn4_2 N1_8 1_555 1_555
C1_8 N1_8 1_555 1_555
O1_9 C2_9 1_555 1_555
N1_8 C9_7 1_555 1_555
O2_8 C1_8 1_555 1_555
C2_9 N2_9 1_555 1_555
N2_9 Zn4_2 1_555 1_555
O3_9 C3_8 1_555 1_555
C3_8 N3_9 1_555 1_555
N3_9 Zn4_2 1_555 1_555
N10_3 C3_8 1_555 1_555
C4_9 H1_7 1_555 1_555
C5_8 N10_3 1_555 1_555
H2_8 C5_8 1_555 1_555
C6_8 C5_8 1_555 1_555
H3_8 C6_8 1_555 1_555
C7_7 H4_7 1_555 1_555
C8_8 N3_9 1_555 1_555
H5_7 C8_8 1_555 1_555
C9_7 C7_7 1_555 1_555
H6_7 C9_7 1_555 1_555
C10_9 N2_9 1_555 1_555
H7_9 C10_9 1_555 1_555
N9_3 C1_8 1_555 1_555
C11_7 C7_7 1_555 1_555
H8_7 C11_7 1_555 1_555
N6_9 C2_9 1_555 1_555
C12_9 C4_9 1_555 1_555
H9_9 C12_9 1_555 1_555
Zn5 N6_9 1_555 1_555
O4_9 C13_8 1_555 1_555
C13_8 N7_9 1_555 1_555
N7_9 Zn5 1_555 1_555
N11_4 C13_8 1_555 1_555
C14_8 N11_4 1_555 1_555
H10_8 C14_8 1_555 1_555
C15_8 C14_8 1_555 1_555
H11_8 C15_8 1_555 1_555
C16_8 N7_9 1_555 1_555
H12_7 C16_8 1_555 1_555
C4_9 C10_9 1_555 1_555
C6_8 C8_8 1_555 1_555
N9_3 C11_7 1_555 1_555
N6_9 C12_9 1_555 1_555
C15_8 C16_8 1_555 1_555
C7_8 H4_8 1_555 1_555
C9_8 C7_8 1_555 1_555
C11_8 C7_8 1_555 1_555
C1_9 N1_9 1_555 1_555
O2_9 C1_9 1_555 1_555
N5_6 C1_9 1_555 1_555
N10_6 C3_9 1_555 1_555
C5_9 N10_6 1_555 1_555
H2_9 C5_9 1_555 1_555
C6_9 C5_9 1_555 1_555
H3_9 C6_9 1_555 1_555
H5_9 C8_9 1_555 1_555
N11_6 C13_9 1_555 1_555
C14_9 N11_6 1_555 1_555
H10_9 C14_9 1_555 1_555
C15_9 C14_9 1_555 1_555
H11_9 C15_9 1_555 1_555
H12_9 C16_9 1_555 1_555
C6_9 C8_9 1_555 1_555
C15_9 C16_9 1_555 1_555
C7_9 H4_9 1_555 1_555
C9_9 C7_9 1_555 1_555
H6_8 C9_9 1_555 1_555
C11_9 C7_9 1_555 1_555

#END
