
###############################################################################
#
# This file contains modified crystal structure data generated from the
# MOF subset of the Cambridge Structural Database (CSD) v543 
# hosted by the Cambridge Crystallographic Data Centre (CCDC).
#
# This work is licensed under the Creative Commons
# Attribution-NonCommercial-ShareAlike 4.0 International License.
# To view a copy of this license, visit
# http://creativecommons.org/licenses/by-nc-sa/4.0/
# or send a letter to
# Creative Commons, PO Box 1866, Mountain View, CA 94042, USA.
#
# CIF created using the CSD Python API on 29 September 2022
# The structure has been converted into the P1 space group
# The structure has a 3D framework
# The original CSD entry QUNMUI is in the cubic crystal system
# The framework has been calculated to contain at least 10.0% void space
# The void calculation uses a probe of radius 1.32A, grid spacing 0.4
#
###############################################################################

data_QUNMUI
_chemical_formula_moiety         '(C96 H96 Cd22 N144)n'
_symmetry_cell_setting           triclinic
_symmetry_space_group_name_H-M   'P 1'
_symmetry_Int_Tables_number      1
_space_group_name_Hall           'P 1'
loop_
_symmetry_equiv_pos_site_id
_symmetry_equiv_pos_as_xyz
1 x,y,z
_cell_length_a                   18.5954(8)
_cell_length_b                   18.5954(8)
_cell_length_c                   18.5954(8)
_cell_angle_alpha                90
_cell_angle_beta                 90
_cell_angle_gamma                90
_cell_volume                     6430.08
loop_
_atom_site_label
_atom_site_type_symbol
_atom_site_fract_x
_atom_site_fract_y
_atom_site_fract_z
C1 C 0.0995(2) 0.3877(4) 0.0995(2)
H1 H 0.0786 0.3474 0.0786
Cd1 Cd 0.0000 0.5000 0.0000
Cd2 Cd 0.1250 0.6250 0.1250
N1 N 0.08370(18) 0.4578(3) 0.08370(18)
N2 N 0.1250 0.4979(4) 0.1250
C2 C 0.1505(2) 0.3877(4) 0.1505(2)
C3 C 0.1505(2) 0.5995(2) 0.3623(4)
C4 C 0.0995(2) 0.6505(2) 0.3623(4)
C9 C 0.3623(4) 0.6505(2) 0.0995(2)
C10 C 0.3623(4) 0.5995(2) 0.1505(2)
C11 C 0.1505(2) 0.8623(4) 0.0995(2)
C12 C 0.0995(2) 0.8623(4) 0.1505(2)
H2 H 0.1714 0.3474 0.1714
H3 H 0.1714 0.5786 0.4026
H4 H 0.0786 0.6714 0.4026
H9 H 0.4026 0.6714 0.0786
H10 H 0.4026 0.5786 0.1714
H11 H 0.1714 0.9026 0.0786
H12 H 0.0786 0.9026 0.1714
Cd3 Cd 0.2500 0.5000 0.2500
Cd4 Cd -0.0000 0.7500 0.2500
Cd5 Cd 0.2500 0.7500 0.0000
N3 N 0.16630(18) 0.4578(3) 0.16630(18)
N4 N 0.16630(18) 0.58370(18) 0.2922(3)
N5 N 0.08370(18) 0.66630(18) 0.2922(3)
N10 N 0.2922(3) 0.66630(18) 0.08370(18)
N11 N 0.2922(3) 0.58370(18) 0.16630(18)
N12 N 0.16630(18) 0.7922(3) 0.08370(18)
N13 N 0.08370(18) 0.7922(3) 0.16630(18)
N17 N 0.33370(18) 0.5422(3) 0.33370(18)
N18 N 0.33370(18) 0.41630(18) 0.2078(3)
N19 N 0.2078(3) 0.41630(18) 0.33370(18)
N20 N 0.1250 0.6250 0.2521(4)
N23 N 0.2521(4) 0.6250 0.1250
N24 N 0.1250 0.7521(4) 0.1250
Cd1_2 Cd 0.0000 0.5000 1.0000
C7 C 0.0995(2) 0.5995(2) 0.8877(4)
C8 C 0.1505(2) 0.6505(2) 0.8877(4)
H7 H 0.0786 0.5786 0.8474
H8 H 0.1714 0.6714 0.8474
Cd5_2 Cd 0.2500 0.7500 1.0000
N8 N 0.08370(18) 0.58370(18) 0.9578(3)
N9 N 0.16630(18) 0.66630(18) 0.9578(3)
N16 N 0.0422(3) 0.41630(18) 0.91630(18)
N22 N 0.1250 0.6250 0.9979(4)
Cd1_3 Cd 1.0000 0.5000 0.0000
C5 C 0.8877(4) 0.6505(2) 0.1505(2)
C6 C 0.8877(4) 0.5995(2) 0.0995(2)
H5 H 0.8474 0.6714 0.1714
H6 H 0.8474 0.5786 0.0786
Cd4_2 Cd 1.0000 0.7500 0.2500
N6 N 0.9578(3) 0.66630(18) 0.16630(18)
N7 N 0.9578(3) 0.58370(18) 0.08370(18)
N15 N 0.91630(18) 0.41630(18) 0.0422(3)
N21 N 0.9979(4) 0.6250 0.1250
Cd1_4 Cd 1.0000 0.5000 1.0000
N14 N 0.91630(18) 0.5422(3) 0.91630(18)
C1_2 C 0.6505(2) 0.8623(4) 0.5995(2)
H1_2 H 0.6714 0.9026 0.5786
Cd1_5 Cd 0.7500 0.7500 0.5000
Cd2_2 Cd 0.6250 0.6250 0.6250
N1_2 N 0.66630(18) 0.7922(3) 0.58370(18)
N2_2 N 0.6250 0.7521(4) 0.6250
C2_2 C 0.5995(2) 0.8623(4) 0.6505(2)
C3_2 C 0.5995(2) 0.6505(2) 0.8623(4)
C4_2 C 0.6505(2) 0.5995(2) 0.8623(4)
C5_2 C 0.8623(4) 0.5995(2) 0.6505(2)
C6_2 C 0.8623(4) 0.6505(2) 0.5995(2)
C7_2 C 0.6505(2) 0.6505(2) 0.3877(4)
C8_2 C 0.5995(2) 0.5995(2) 0.3877(4)
C9_2 C 0.3877(4) 0.5995(2) 0.5995(2)
C10_2 C 0.3877(4) 0.6505(2) 0.6505(2)
C11_2 C 0.5995(2) 0.3877(4) 0.5995(2)
C12_2 C 0.6505(2) 0.3877(4) 0.6505(2)
H2_2 H 0.5786 0.9026 0.6714
H3_2 H 0.5786 0.6714 0.9026
H4_2 H 0.6714 0.5786 0.9026
H5_2 H 0.9026 0.5786 0.6714
H6_2 H 0.9026 0.6714 0.5786
H7_2 H 0.6714 0.6714 0.3474
H8_2 H 0.5786 0.5786 0.3474
H9_2 H 0.3474 0.5786 0.5786
H10_2 H 0.3474 0.6714 0.6714
H11_2 H 0.5786 0.3474 0.5786
H12_2 H 0.6714 0.3474 0.6714
Cd3_2 Cd 0.5000 0.7500 0.7500
Cd4_3 Cd 0.7500 0.5000 0.7500
Cd5_3 Cd 0.5000 0.5000 0.5000
N3_2 N 0.58370(18) 0.7922(3) 0.66630(18)
N4_2 N 0.58370(18) 0.66630(18) 0.7922(3)
N5_2 N 0.66630(18) 0.58370(18) 0.7922(3)
N6_2 N 0.7922(3) 0.58370(18) 0.66630(18)
N7_2 N 0.7922(3) 0.66630(18) 0.58370(18)
N8_2 N 0.66630(18) 0.66630(18) 0.4578(3)
N9_2 N 0.58370(18) 0.58370(18) 0.4578(3)
N10_2 N 0.4578(3) 0.58370(18) 0.58370(18)
N11_2 N 0.4578(3) 0.66630(18) 0.66630(18)
N12_2 N 0.58370(18) 0.4578(3) 0.58370(18)
N13_2 N 0.66630(18) 0.4578(3) 0.66630(18)
N14_2 N 0.83370(18) 0.7078(3) 0.41630(18)
N15_2 N 0.83370(18) 0.83370(18) 0.5422(3)
N16_2 N 0.7078(3) 0.83370(18) 0.41630(18)
N17_2 N 0.41630(18) 0.7078(3) 0.83370(18)
N18_2 N 0.41630(18) 0.83370(18) 0.7078(3)
N19_2 N 0.5422(3) 0.83370(18) 0.83370(18)
N20_2 N 0.6250 0.6250 0.7521(4)
N21_2 N 0.7521(4) 0.6250 0.6250
N22_2 N 0.6250 0.6250 0.4979(4)
N23_2 N 0.4979(4) 0.6250 0.6250
N24_2 N 0.6250 0.4979(4) 0.6250
Cd1_6 Cd 0.2500 0.0000 0.7500
Cd2_3 Cd 0.1250 0.1250 0.6250
C3_3 C 0.0995(2) 0.0995(2) 0.3877(4)
C4_3 C 0.1505(2) 0.1505(2) 0.3877(4)
C5_3 C 0.3623(4) 0.1505(2) 0.5995(2)
C6_3 C 0.3623(4) 0.0995(2) 0.6505(2)
C7_3 C 0.1505(2) 0.0995(2) 0.8623(4)
C8_3 C 0.0995(2) 0.1505(2) 0.8623(4)
C11_3 C 0.0995(2) 0.3623(4) 0.6505(2)
C12_3 C 0.1505(2) 0.3623(4) 0.5995(2)
H3_3 H 0.0786 0.0786 0.3474
H4_3 H 0.1714 0.1714 0.3474
H5_3 H 0.4026 0.1714 0.5786
H6_3 H 0.4026 0.0786 0.6714
H7_3 H 0.1714 0.0786 0.9026
H8_3 H 0.0786 0.1714 0.9026
H11_3 H 0.0786 0.4026 0.6714
H12_3 H 0.1714 0.4026 0.5786
Cd3_3 Cd 0.0000 0.0000 0.5000
Cd4_4 Cd 0.2500 0.2500 0.5000
Cd5_4 Cd 0.0000 0.2500 0.7500
N4_3 N 0.08370(18) 0.08370(18) 0.4578(3)
N5_3 N 0.16630(18) 0.16630(18) 0.4578(3)
N6_3 N 0.2922(3) 0.16630(18) 0.58370(18)
N7_3 N 0.2922(3) 0.08370(18) 0.66630(18)
N8_3 N 0.16630(18) 0.08370(18) 0.7922(3)
N9_3 N 0.08370(18) 0.16630(18) 0.7922(3)
N12_3 N 0.08370(18) 0.2922(3) 0.66630(18)
N13_3 N 0.16630(18) 0.2922(3) 0.58370(18)
N14_3 N 0.33370(18) 0.0422(3) 0.83370(18)
N20_3 N 0.1250 0.1250 0.4979(4)
N21_3 N 0.2521(4) 0.1250 0.6250
N22_3 N 0.1250 0.1250 0.7521(4)
N24_3 N 0.1250 0.2521(4) 0.6250
C1_3 C 0.1505(2) 0.8877(4) 0.6505(2)
H1_3 H 0.1714 0.8474 0.6714
Cd1_7 Cd 0.2500 1.0000 0.7500
N1_3 N 0.16630(18) 0.9578(3) 0.66630(18)
N2_3 N 0.1250 0.9979(4) 0.6250
C2_3 C 0.0995(2) 0.8877(4) 0.5995(2)
H2_3 H 0.0786 0.8474 0.5786
Cd3_4 Cd 0.0000 1.0000 0.5000
N3_3 N 0.08370(18) 0.9578(3) 0.58370(18)
N15_3 N 0.33370(18) 0.91630(18) 0.7078(3)
N16_3 N 0.2078(3) 0.91630(18) 0.83370(18)
N19_3 N 0.0422(3) 0.91630(18) 0.41630(18)
C9_3 C 0.8877(4) 0.1505(2) 0.6505(2)
C10_3 C 0.8877(4) 0.0995(2) 0.5995(2)
H9_3 H 0.8474 0.1714 0.6714
H10_3 H 0.8474 0.0786 0.5786
Cd3_5 Cd 1.0000 0.0000 0.5000
Cd5_5 Cd 1.0000 0.2500 0.7500
N10_3 N 0.9578(3) 0.16630(18) 0.66630(18)
N11_3 N 0.9578(3) 0.08370(18) 0.58370(18)
N17_3 N 0.91630(18) 0.0422(3) 0.41630(18)
N23_3 N 0.9979(4) 0.1250 0.6250
Cd3_6 Cd 1.0000 1.0000 0.5000
N18_3 N 0.91630(18) 0.91630(18) 0.5422(3)
C1_4 C 0.5995(2) 0.3623(4) 0.1505(2)
H1_4 H 0.5786 0.4026 0.1714
Cd1_8 Cd 0.5000 0.2500 0.2500
Cd2_4 Cd 0.6250 0.1250 0.1250
N1_4 N 0.58370(18) 0.2922(3) 0.16630(18)
N2_4 N 0.6250 0.2521(4) 0.1250
C2_4 C 0.6505(2) 0.3623(4) 0.0995(2)
C5_4 C 0.3877(4) 0.0995(2) 0.0995(2)
C6_4 C 0.3877(4) 0.1505(2) 0.1505(2)
C7_4 C 0.5995(2) 0.1505(2) 0.3623(4)
C8_4 C 0.6505(2) 0.0995(2) 0.3623(4)
C9_4 C 0.8623(4) 0.0995(2) 0.1505(2)
C10_4 C 0.8623(4) 0.1505(2) 0.0995(2)
H2_4 H 0.6714 0.4026 0.0786
H5_4 H 0.3474 0.0786 0.0786
H6_4 H 0.3474 0.1714 0.1714
H7_4 H 0.5786 0.1714 0.4026
H8_4 H 0.6714 0.0786 0.4026
H9_4 H 0.9026 0.0786 0.1714
H10_4 H 0.9026 0.1714 0.0786
Cd3_7 Cd 0.7500 0.2500 0.0000
Cd4_5 Cd 0.5000 -0.0000 0.0000
Cd5_6 Cd 0.7500 -0.0000 0.2500
N3_4 N 0.66630(18) 0.2922(3) 0.08370(18)
N6_4 N 0.4578(3) 0.08370(18) 0.08370(18)
N7_4 N 0.4578(3) 0.16630(18) 0.16630(18)
N8_4 N 0.58370(18) 0.16630(18) 0.2922(3)
N9_4 N 0.66630(18) 0.08370(18) 0.2922(3)
N10_4 N 0.7922(3) 0.08370(18) 0.16630(18)
N11_4 N 0.7922(3) 0.16630(18) 0.08370(18)
N14_4 N 0.41630(18) 0.2078(3) 0.33370(18)
N15_4 N 0.41630(18) 0.33370(18) 0.2078(3)
N16_4 N 0.5422(3) 0.33370(18) 0.33370(18)
N18_4 N 0.83370(18) 0.33370(18) 0.0422(3)
N21_4 N 0.4979(4) 0.1250 0.1250
N22_4 N 0.6250 0.1250 0.2521(4)
N23_4 N 0.7521(4) 0.1250 0.1250
C3_4 C 0.6505(2) 0.1505(2) 0.8877(4)
C4_4 C 0.5995(2) 0.0995(2) 0.8877(4)
H3_4 H 0.6714 0.1714 0.8474
H4_4 H 0.5786 0.0786 0.8474
Cd3_8 Cd 0.7500 0.2500 1.0000
Cd4_6 Cd 0.5000 -0.0000 1.0000
N4_4 N 0.66630(18) 0.16630(18) 0.9578(3)
N5_4 N 0.58370(18) 0.08370(18) 0.9578(3)
N17_4 N 0.83370(18) 0.2078(3) 0.91630(18)
N19_4 N 0.7078(3) 0.33370(18) 0.91630(18)
N20_4 N 0.6250 0.1250 0.9979(4)
C11_4 C 0.6505(2) 0.8877(4) 0.1505(2)
C12_4 C 0.5995(2) 0.8877(4) 0.0995(2)
H11_4 H 0.6714 0.8474 0.1714
H12_4 H 0.5786 0.8474 0.0786
Cd4_7 Cd 0.5000 1.0000 0.0000
Cd5_7 Cd 0.7500 1.0000 0.2500
N12_4 N 0.66630(18) 0.9578(3) 0.16630(18)
N13_4 N 0.58370(18) 0.9578(3) 0.08370(18)
N24_4 N 0.6250 0.9979(4) 0.1250
Cd4_8 Cd 0.5000 1.0000 1.0000
N17_5 N 0.33370(18) 0.33370(18) 0.5422(3)
N18_5 N 0.2078(3) 0.33370(18) 0.41630(18)
N19_5 N 0.33370(18) 0.2078(3) 0.41630(18)
N17_6 N 0.83370(18) 0.41630(18) 0.7078(3)
N18_6 N 0.7078(3) 0.41630(18) 0.83370(18)
N19_6 N 0.83370(18) 0.5422(3) 0.83370(18)
N19_7 N 0.41630(18) 0.0422(3) 0.91630(18)
N17_7 N 0.41630(18) 0.91630(18) 0.0422(3)
N18_7 N 0.5422(3) 0.91630(18) 0.91630(18)
N18_8 N 0.0422(3) 0.83370(18) 0.33370(18)
N17_8 N 0.91630(18) 0.83370(18) 0.2078(3)
N19_8 N 0.91630(18) 0.7078(3) 0.33370(18)
C1_5 C 0.1377(4) 0.3495(2) 0.4005(2)
H1_5 H 0.0974 0.3286 0.4214
Cd2_5 Cd 0.3750 0.3750 0.3750
N2_5 N 0.2479(4) 0.3750 0.3750
C2_5 C 0.1377(4) 0.4005(2) 0.3495(2)
C3_5 C 0.3495(2) 0.4005(2) 0.1377(4)
C4_5 C 0.4005(2) 0.3495(2) 0.1377(4)
C5_5 C 0.4005(2) 0.1377(4) 0.3495(2)
C6_5 C 0.3495(2) 0.1377(4) 0.4005(2)
C7_5 C 0.3495(2) 0.3495(2) 0.6123(4)
C8_5 C 0.4005(2) 0.4005(2) 0.6123(4)
C9_5 C 0.4005(2) 0.6123(4) 0.4005(2)
C10_5 C 0.3495(2) 0.6123(4) 0.3495(2)
C11_5 C 0.6123(4) 0.4005(2) 0.4005(2)
C12_5 C 0.6123(4) 0.3495(2) 0.3495(2)
H2_5 H 0.0974 0.4214 0.3286
H3_5 H 0.3286 0.4214 0.0974
H4_5 H 0.4214 0.3286 0.0974
H5_5 H 0.4214 0.0974 0.3286
H6_5 H 0.3286 0.0974 0.4214
H7_5 H 0.3286 0.3286 0.6526
H8_5 H 0.4214 0.4214 0.6526
H9_5 H 0.4214 0.6526 0.4214
H10_5 H 0.3286 0.6526 0.3286
H11_5 H 0.6526 0.4214 0.4214
H12_5 H 0.6526 0.3286 0.3286
N9_5 N 0.41630(18) 0.41630(18) 0.5422(3)
N10_5 N 0.41630(18) 0.5422(3) 0.41630(18)
N12_5 N 0.5422(3) 0.41630(18) 0.41630(18)
N20_5 N 0.3750 0.3750 0.2479(4)
N21_5 N 0.3750 0.2479(4) 0.3750
N22_5 N 0.3750 0.3750 0.5021(4)
N23_5 N 0.3750 0.5021(4) 0.3750
N24_5 N 0.5021(4) 0.3750 0.3750
C5_6 C 0.3495(2) 0.1123(4) 0.8495(2)
C6_6 C 0.4005(2) 0.1123(4) 0.9005(2)
H5_6 H 0.3286 0.1526 0.8286
H6_6 H 0.4214 0.1526 0.9214
N21_6 N 0.3750 0.0021(4) 0.8750
C7_6 C 0.4005(2) 0.9005(2) 0.1123(4)
C8_6 C 0.3495(2) 0.8495(2) 0.1123(4)
H7_6 H 0.4214 0.9214 0.1526
H8_6 H 0.3286 0.8286 0.1526
N9_6 N 0.33370(18) 0.83370(18) 0.0422(3)
N22_6 N 0.3750 0.8750 0.0021(4)
C1_6 C 0.6123(4) 0.9005(2) 0.9005(2)
H1_6 H 0.6526 0.9214 0.9214
Cd2_6 Cd 0.3750 0.8750 0.8750
N2_6 N 0.5021(4) 0.8750 0.8750
C2_6 C 0.6123(4) 0.8495(2) 0.8495(2)
C3_6 C 0.4005(2) 0.8495(2) 0.6377(4)
C4_6 C 0.3495(2) 0.9005(2) 0.6377(4)
C9_6 C 0.3495(2) 0.6377(4) 0.9005(2)
C10_6 C 0.4005(2) 0.6377(4) 0.8495(2)
C11_6 C 0.1377(4) 0.8495(2) 0.9005(2)
C12_6 C 0.1377(4) 0.9005(2) 0.8495(2)
H2_6 H 0.6526 0.8286 0.8286
H3_6 H 0.4214 0.8286 0.5974
H4_6 H 0.3286 0.9214 0.5974
H9_6 H 0.3286 0.5974 0.9214
H10_6 H 0.4214 0.5974 0.8286
H11_6 H 0.0974 0.8286 0.9214
H12_6 H 0.0974 0.9214 0.8286
N10_6 N 0.33370(18) 0.7078(3) 0.91630(18)
N12_6 N 0.2078(3) 0.83370(18) 0.91630(18)
N20_6 N 0.3750 0.8750 0.7479(4)
N23_6 N 0.3750 0.7479(4) 0.8750
N24_6 N 0.2479(4) 0.8750 0.8750
C11_7 C 0.1123(4) 0.3495(2) 0.8495(2)
C12_7 C 0.1123(4) 0.4005(2) 0.9005(2)
H11_7 H 0.1526 0.3286 0.8286
H12_7 H 0.1526 0.4214 0.9214
N12_7 N 0.0422(3) 0.33370(18) 0.83370(18)
N24_7 N 0.0021(4) 0.3750 0.8750
C3_7 C 0.8495(2) 0.3495(2) 0.1123(4)
C4_7 C 0.9005(2) 0.4005(2) 0.1123(4)
H3_7 H 0.8286 0.3286 0.1526
H4_7 H 0.9214 0.4214 0.1526
N20_7 N 0.8750 0.3750 0.0021(4)
C1_7 C 0.6377(4) 0.4005(2) 0.8495(2)
H1_7 H 0.5974 0.4214 0.8286
Cd2_7 Cd 0.8750 0.3750 0.8750
N2_7 N 0.7479(4) 0.3750 0.8750
C2_7 C 0.6377(4) 0.3495(2) 0.9005(2)
C5_7 C 0.9005(2) 0.6123(4) 0.9005(2)
C6_7 C 0.8495(2) 0.6123(4) 0.8495(2)
C7_7 C 0.8495(2) 0.4005(2) 0.6377(4)
C8_7 C 0.9005(2) 0.3495(2) 0.6377(4)
C9_7 C 0.9005(2) 0.1377(4) 0.8495(2)
C10_7 C 0.8495(2) 0.1377(4) 0.9005(2)
H2_7 H 0.5974 0.3286 0.9214
H5_7 H 0.9214 0.6526 0.9214
H6_7 H 0.8286 0.6526 0.8286
H7_7 H 0.8286 0.4214 0.5974
H8_7 H 0.9214 0.3286 0.5974
H9_7 H 0.9214 0.0974 0.8286
H10_7 H 0.8286 0.0974 0.9214
N9_7 N 0.91630(18) 0.33370(18) 0.7078(3)
N10_7 N 0.91630(18) 0.2078(3) 0.83370(18)
N21_7 N 0.8750 0.5021(4) 0.8750
N22_7 N 0.8750 0.3750 0.7479(4)
N23_7 N 0.8750 0.2479(4) 0.8750
C1_8 C 0.1123(4) 0.8495(2) 0.3495(2)
H1_8 H 0.1526 0.8286 0.3286
N2_8 N 0.0021(4) 0.8750 0.3750
C2_8 C 0.1123(4) 0.9005(2) 0.4005(2)
H2_8 H 0.1526 0.9214 0.4214
C9_8 C 0.8495(2) 0.1123(4) 0.3495(2)
C10_8 C 0.9005(2) 0.1123(4) 0.4005(2)
H9_8 H 0.8286 0.1526 0.3286
H10_8 H 0.9214 0.1526 0.4214
N10_8 N 0.83370(18) 0.0422(3) 0.33370(18)
N23_8 N 0.8750 0.0021(4) 0.3750
Cd2_8 Cd 0.8750 0.8750 0.3750
C3_8 C 0.9005(2) 0.9005(2) 0.6123(4)
C4_8 C 0.8495(2) 0.8495(2) 0.6123(4)
C5_8 C 0.8495(2) 0.6377(4) 0.4005(2)
C6_8 C 0.9005(2) 0.6377(4) 0.3495(2)
C7_8 C 0.9005(2) 0.8495(2) 0.1377(4)
C8_8 C 0.8495(2) 0.9005(2) 0.1377(4)
C11_8 C 0.6377(4) 0.9005(2) 0.3495(2)
C12_8 C 0.6377(4) 0.8495(2) 0.4005(2)
H3_8 H 0.9214 0.9214 0.6526
H4_8 H 0.8286 0.8286 0.6526
H5_8 H 0.8286 0.5974 0.4214
H6_8 H 0.9214 0.5974 0.3286
H7_8 H 0.9214 0.8286 0.0974
H8_8 H 0.8286 0.9214 0.0974
H11_8 H 0.5974 0.9214 0.3286
H12_8 H 0.5974 0.8286 0.4214
N9_8 N 0.83370(18) 0.91630(18) 0.2078(3)
N12_8 N 0.7078(3) 0.91630(18) 0.33370(18)
N20_8 N 0.8750 0.8750 0.5021(4)
N21_8 N 0.8750 0.7479(4) 0.3750
N22_8 N 0.8750 0.8750 0.2479(4)
N24_8 N 0.7479(4) 0.8750 0.3750
loop_
_geom_bond_atom_site_label_1
_geom_bond_atom_site_label_2
_geom_bond_site_symmetry_1
_geom_bond_site_symmetry_2
C1 H1 1_555 1_555
Cd1 N1 1_555 1_555
Cd2 N2 1_555 1_555
N1 C1 1_555 1_555
N2 N1 1_555 1_555
C2 C1 1_555 1_555
C3 C4 1_555 1_555
C4 H4 1_555 1_555
C9 C10 1_555 1_555
C10 H10 1_555 1_555
C11 C12 1_555 1_555
C12 H12 1_555 1_555
H2 C2 1_555 1_555
H3 C3 1_555 1_555
H9 C9 1_555 1_555
H11 C11 1_555 1_555
Cd3 N3 1_555 1_555
Cd4 N5 1_555 1_555
N3 N2 1_555 1_555
N4 C3 1_555 1_555
N5 C4 1_555 1_555
N10 C9 1_555 1_555
N11 C10 1_555 1_555
N12 C11 1_555 1_555
N13 C12 1_555 1_555
N17 Cd3 1_555 1_555
N18 Cd3 1_555 1_555
N19 Cd3 1_555 1_555
N20 Cd2 1_555 1_555
N23 Cd2 1_555 1_555
N24 Cd2 1_555 1_555
C2 N3 1_555 1_555
Cd3 N4 1_555 1_555
Cd3 N11 1_555 1_555
Cd4 N13 1_555 1_555
Cd5 N10 1_555 1_555
Cd5 N12 1_555 1_555
N4 N20 1_555 1_555
N5 N20 1_555 1_555
N10 N23 1_555 1_555
N11 N23 1_555 1_555
N12 N24 1_555 1_555
N13 N24 1_555 1_555
C7 C8 1_555 1_555
C8 H8 1_555 1_555
H7 C7 1_555 1_555
Cd5_2 N9 1_555 1_555
N8 Cd1_2 1_555 1_555
N9 C8 1_555 1_555
N16 Cd1_2 1_555 1_555
C7 N8 1_555 1_555
N8 N22 1_555 1_555
N9 N22 1_555 1_555
C5 C6 1_555 1_555
C6 H6 1_555 1_555
H5 C5 1_555 1_555
N6 C5 1_555 1_555
N7 Cd1_3 1_555 1_555
N15 Cd1_3 1_555 1_555
C6 N7 1_555 1_555
Cd4_2 N6 1_555 1_555
N6 N21 1_555 1_555
N7 N21 1_555 1_555
N14 Cd1_4 1_555 1_555
C1_2 H1_2 1_555 1_555
Cd1_5 N1_2 1_555 1_555
Cd2_2 N2_2 1_555 1_555
N1_2 C1_2 1_555 1_555
N2_2 N1_2 1_555 1_555
C2_2 C1_2 1_555 1_555
C3_2 C4_2 1_555 1_555
C4_2 H4_2 1_555 1_555
C5_2 C6_2 1_555 1_555
C6_2 H6_2 1_555 1_555
C7_2 C8_2 1_555 1_555
C8_2 H8_2 1_555 1_555
C9_2 C10_2 1_555 1_555
C10_2 H10_2 1_555 1_555
C11_2 C12_2 1_555 1_555
C12_2 H12_2 1_555 1_555
H2_2 C2_2 1_555 1_555
H3_2 C3_2 1_555 1_555
H5_2 C5_2 1_555 1_555
H7_2 C7_2 1_555 1_555
H9_2 C9_2 1_555 1_555
H11_2 C11_2 1_555 1_555
Cd3_2 N3_2 1_555 1_555
Cd4_3 N5_2 1_555 1_555
Cd5_3 N9_2 1_555 1_555
N3_2 N2_2 1_555 1_555
N4_2 C3_2 1_555 1_555
N5_2 C4_2 1_555 1_555
N6_2 C5_2 1_555 1_555
N7_2 Cd1_5 1_555 1_555
N8_2 Cd1_5 1_555 1_555
N9_2 C8_2 1_555 1_555
N10_2 C9_2 1_555 1_555
N11_2 C10_2 1_555 1_555
N12_2 C11_2 1_555 1_555
N13_2 C12_2 1_555 1_555
N14_2 Cd1_5 1_555 1_555
N15_2 Cd1_5 1_555 1_555
N16_2 Cd1_5 1_555 1_555
N17_2 Cd3_2 1_555 1_555
N18_2 Cd3_2 1_555 1_555
N19_2 Cd3_2 1_555 1_555
N20_2 Cd2_2 1_555 1_555
N21_2 Cd2_2 1_555 1_555
N22_2 Cd2_2 1_555 1_555
N23_2 Cd2_2 1_555 1_555
N24_2 Cd2_2 1_555 1_555
C2_2 N3_2 1_555 1_555
C6_2 N7_2 1_555 1_555
C7_2 N8_2 1_555 1_555
Cd3_2 N4_2 1_555 1_555
Cd3_2 N11_2 1_555 1_555
Cd4_3 N6_2 1_555 1_555
Cd4_3 N13_2 1_555 1_555
Cd5_3 N10_2 1_555 1_555
Cd5_3 N12_2 1_555 1_555
N4_2 N20_2 1_555 1_555
N5_2 N20_2 1_555 1_555
N6_2 N21_2 1_555 1_555
N7_2 N21_2 1_555 1_555
N8_2 N22_2 1_555 1_555
N9_2 N22_2 1_555 1_555
N10_2 N23_2 1_555 1_555
N11_2 N23_2 1_555 1_555
N12_2 N24_2 1_555 1_555
N13_2 N24_2 1_555 1_555
C3_3 C4_3 1_555 1_555
C4_3 H4_3 1_555 1_555
C5_3 C6_3 1_555 1_555
C6_3 H6_3 1_555 1_555
C7_3 C8_3 1_555 1_555
C8_3 H8_3 1_555 1_555
C11_3 C12_3 1_555 1_555
C12_3 H12_3 1_555 1_555
H3_3 C3_3 1_555 1_555
H5_3 C5_3 1_555 1_555
H7_3 C7_3 1_555 1_555
H11_3 C11_3 1_555 1_555
Cd4_4 N5_3 1_555 1_555
Cd5_4 N9_3 1_555 1_555
N4_3 C3_3 1_555 1_555
N5_3 C4_3 1_555 1_555
N6_3 C5_3 1_555 1_555
N7_3 Cd1_6 1_555 1_555
N8_3 Cd1_6 1_555 1_555
N9_3 C8_3 1_555 1_555
N12_3 C11_3 1_555 1_555
N13_3 C12_3 1_555 1_555
N14_3 Cd1_6 1_555 1_555
N20_3 Cd2_3 1_555 1_555
N21_3 Cd2_3 1_555 1_555
N22_3 Cd2_3 1_555 1_555
N24_3 Cd2_3 1_555 1_555
C6_3 N7_3 1_555 1_555
C7_3 N8_3 1_555 1_555
Cd3_3 N4_3 1_555 1_555
Cd4_4 N6_3 1_555 1_555
Cd4_4 N13_3 1_555 1_555
Cd5_4 N12_3 1_555 1_555
N4_3 N20_3 1_555 1_555
N5_3 N20_3 1_555 1_555
N6_3 N21_3 1_555 1_555
N7_3 N21_3 1_555 1_555
N8_3 N22_3 1_555 1_555
N9_3 N22_3 1_555 1_555
N12_3 N24_3 1_555 1_555
N13_3 N24_3 1_555 1_555
C1_3 H1_3 1_555 1_555
Cd1_7 N1_3 1_555 1_555
N1_3 C1_3 1_555 1_555
N2_3 N1_3 1_555 1_555
C2_3 C1_3 1_555 1_555
H2_3 C2_3 1_555 1_555
Cd3_4 N3_3 1_555 1_555
N3_3 N2_3 1_555 1_555
N15_3 Cd1_7 1_555 1_555
N16_3 Cd1_7 1_555 1_555
N19_3 Cd3_4 1_555 1_555
C2_3 N3_3 1_555 1_555
C9_3 C10_3 1_555 1_555
C10_3 H10_3 1_555 1_555
H9_3 C9_3 1_555 1_555
N10_3 C9_3 1_555 1_555
N11_3 C10_3 1_555 1_555
N17_3 Cd3_5 1_555 1_555
Cd3_5 N11_3 1_555 1_555
Cd5_5 N10_3 1_555 1_555
N10_3 N23_3 1_555 1_555
N11_3 N23_3 1_555 1_555
N18_3 Cd3_6 1_555 1_555
C1_4 H1_4 1_555 1_555
Cd1_8 N1_4 1_555 1_555
Cd2_4 N2_4 1_555 1_555
N1_4 C1_4 1_555 1_555
N2_4 N1_4 1_555 1_555
C2_4 C1_4 1_555 1_555
C5_4 C6_4 1_555 1_555
C6_4 H6_4 1_555 1_555
C7_4 C8_4 1_555 1_555
C8_4 H8_4 1_555 1_555
C9_4 C10_4 1_555 1_555
C10_4 H10_4 1_555 1_555
H2_4 C2_4 1_555 1_555
H5_4 C5_4 1_555 1_555
H7_4 C7_4 1_555 1_555
H9_4 C9_4 1_555 1_555
Cd3_7 N3_4 1_555 1_555
Cd5_6 N9_4 1_555 1_555
N3_4 N2_4 1_555 1_555
N6_4 C5_4 1_555 1_555
N7_4 Cd1_8 1_555 1_555
N8_4 Cd1_8 1_555 1_555
N9_4 C8_4 1_555 1_555
N10_4 C9_4 1_555 1_555
N11_4 C10_4 1_555 1_555
N14_4 Cd1_8 1_555 1_555
N15_4 Cd1_8 1_555 1_555
N16_4 Cd1_8 1_555 1_555
N18_4 Cd3_7 1_555 1_555
N21_4 Cd2_4 1_555 1_555
N22_4 Cd2_4 1_555 1_555
N23_4 Cd2_4 1_555 1_555
C2_4 N3_4 1_555 1_555
C6_4 N7_4 1_555 1_555
C7_4 N8_4 1_555 1_555
Cd3_7 N11_4 1_555 1_555
Cd4_5 N6_4 1_555 1_555
Cd5_6 N10_4 1_555 1_555
N6_4 N21_4 1_555 1_555
N7_4 N21_4 1_555 1_555
N8_4 N22_4 1_555 1_555
N9_4 N22_4 1_555 1_555
N10_4 N23_4 1_555 1_555
N11_4 N23_4 1_555 1_555
C3_4 C4_4 1_555 1_555
C4_4 H4_4 1_555 1_555
H3_4 C3_4 1_555 1_555
Cd4_6 N5_4 1_555 1_555
N4_4 C3_4 1_555 1_555
N5_4 C4_4 1_555 1_555
N17_4 Cd3_8 1_555 1_555
N19_4 Cd3_8 1_555 1_555
Cd3_8 N4_4 1_555 1_555
N4_4 N20_4 1_555 1_555
N5_4 N20_4 1_555 1_555
C11_4 C12_4 1_555 1_555
C12_4 H12_4 1_555 1_555
H11_4 C11_4 1_555 1_555
N12_4 C11_4 1_555 1_555
N13_4 C12_4 1_555 1_555
Cd4_7 N13_4 1_555 1_555
Cd5_7 N12_4 1_555 1_555
N12_4 N24_4 1_555 1_555
N13_4 N24_4 1_555 1_555
N17_5 Cd4_4 1_555 1_555
N18_5 Cd4_4 1_555 1_555
N19_5 Cd4_4 1_555 1_555
N17_6 Cd4_3 1_555 1_555
N18_6 Cd4_3 1_555 1_555
N19_6 Cd4_3 1_555 1_555
N19_7 Cd4_6 1_555 1_555
N17_7 Cd4_7 1_555 1_555
N18_7 Cd4_8 1_555 1_555
N18_8 Cd4 1_555 1_555
N17_8 Cd4_2 1_555 1_555
N19_8 Cd4_2 1_555 1_555
C1_5 H1_5 1_555 1_555
Cd2_5 N2_5 1_555 1_555
N18_5 C1_5 1_555 1_555
N2_5 N18_5 1_555 1_555
C2_5 C1_5 1_555 1_555
C3_5 C4_5 1_555 1_555
C4_5 H4_5 1_555 1_555
C5_5 C6_5 1_555 1_555
C6_5 H6_5 1_555 1_555
C7_5 C8_5 1_555 1_555
C8_5 H8_5 1_555 1_555
C9_5 C10_5 1_555 1_555
C10_5 H10_5 1_555 1_555
C11_5 C12_5 1_555 1_555
C12_5 H12_5 1_555 1_555
H2_5 C2_5 1_555 1_555
H3_5 C3_5 1_555 1_555
H5_5 C5_5 1_555 1_555
H7_5 C7_5 1_555 1_555
H9_5 C9_5 1_555 1_555
H11_5 C11_5 1_555 1_555
Cd5_3 N9_5 1_555 1_555
N19 N2_5 1_555 1_555
N18 C3_5 1_555 1_555
N15_4 C4_5 1_555 1_555
N14_4 C5_5 1_555 1_555
N9_5 C8_5 1_555 1_555
N10_5 C9_5 1_555 1_555
N17 C10_5 1_555 1_555
N12_5 C11_5 1_555 1_555
N16_4 C12_5 1_555 1_555
N20_5 Cd2_5 1_555 1_555
N21_5 Cd2_5 1_555 1_555
N22_5 Cd2_5 1_555 1_555
N23_5 Cd2_5 1_555 1_555
N24_5 Cd2_5 1_555 1_555
C2_5 N19 1_555 1_555
C6_5 N19_5 1_555 1_555
C7_5 N17_5 1_555 1_555
Cd5_3 N10_5 1_555 1_555
Cd5_3 N12_5 1_555 1_555
N18 N20_5 1_555 1_555
N15_4 N20_5 1_555 1_555
N14_4 N21_5 1_555 1_555
N19_5 N21_5 1_555 1_555
N17_5 N22_5 1_555 1_555
N9_5 N22_5 1_555 1_555
N10_5 N23_5 1_555 1_555
N17 N23_5 1_555 1_555
N12_5 N24_5 1_555 1_555
N16_4 N24_5 1_555 1_555
C5_6 C6_6 1_555 1_555
C6_6 H6_6 1_555 1_555
H5_6 C5_6 1_555 1_555
N14_3 C5_6 1_555 1_555
C6_6 N19_7 1_555 1_555
N14_3 N21_6 1_555 1_555
N19_7 N21_6 1_555 1_555
C7_6 C8_6 1_555 1_555
C8_6 H8_6 1_555 1_555
H7_6 C7_6 1_555 1_555
Cd5 N9_6 1_555 1_555
N9_6 C8_6 1_555 1_555
C7_6 N17_7 1_555 1_555
N17_7 N22_6 1_555 1_555
N9_6 N22_6 1_555 1_555
C1_6 H1_6 1_555 1_555
Cd2_6 N2_6 1_555 1_555
N18_7 C1_6 1_555 1_555
N2_6 N18_7 1_555 1_555
C2_6 C1_6 1_555 1_555
C3_6 C4_6 1_555 1_555
C4_6 H4_6 1_555 1_555
C9_6 C10_6 1_555 1_555
C10_6 H10_6 1_555 1_555
C11_6 C12_6 1_555 1_555
C12_6 H12_6 1_555 1_555
H2_6 C2_6 1_555 1_555
H3_6 C3_6 1_555 1_555
H9_6 C9_6 1_555 1_555
H11_6 C11_6 1_555 1_555
N19_2 N2_6 1_555 1_555
N18_2 C3_6 1_555 1_555
N15_3 C4_6 1_555 1_555
N10_6 C9_6 1_555 1_555
N17_2 C10_6 1_555 1_555
N12_6 C11_6 1_555 1_555
N16_3 C12_6 1_555 1_555
N20_6 Cd2_6 1_555 1_555
N23_6 Cd2_6 1_555 1_555
N24_6 Cd2_6 1_555 1_555
C2_6 N19_2 1_555 1_555
Cd5_2 N10_6 1_555 1_555
Cd5_2 N12_6 1_555 1_555
N18_2 N20_6 1_555 1_555
N15_3 N20_6 1_555 1_555
N10_6 N23_6 1_555 1_555
N17_2 N23_6 1_555 1_555
N12_6 N24_6 1_555 1_555
N16_3 N24_6 1_555 1_555
C11_7 C12_7 1_555 1_555
C12_7 H12_7 1_555 1_555
H11_7 C11_7 1_555 1_555
N12_7 C11_7 1_555 1_555
N16 C12_7 1_555 1_555
Cd5_4 N12_7 1_555 1_555
N12_7 N24_7 1_555 1_555
N16 N24_7 1_555 1_555
C3_7 C4_7 1_555 1_555
C4_7 H4_7 1_555 1_555
H3_7 C3_7 1_555 1_555
N18_4 C3_7 1_555 1_555
N15 C4_7 1_555 1_555
N18_4 N20_7 1_555 1_555
N15 N20_7 1_555 1_555
C1_7 H1_7 1_555 1_555
Cd2_7 N2_7 1_555 1_555
N18_6 C1_7 1_555 1_555
N2_7 N18_6 1_555 1_555
C2_7 C1_7 1_555 1_555
C5_7 C6_7 1_555 1_555
C6_7 H6_7 1_555 1_555
C7_7 C8_7 1_555 1_555
C8_7 H8_7 1_555 1_555
C9_7 C10_7 1_555 1_555
C10_7 H10_7 1_555 1_555
H2_7 C2_7 1_555 1_555
H5_7 C5_7 1_555 1_555
H7_7 C7_7 1_555 1_555
H9_7 C9_7 1_555 1_555
Cd5_5 N9_7 1_555 1_555
N19_4 N2_7 1_555 1_555
N14 C5_7 1_555 1_555
N9_7 C8_7 1_555 1_555
N10_7 C9_7 1_555 1_555
N17_4 C10_7 1_555 1_555
N21_7 Cd2_7 1_555 1_555
N22_7 Cd2_7 1_555 1_555
N23_7 Cd2_7 1_555 1_555
C2_7 N19_4 1_555 1_555
C6_7 N19_6 1_555 1_555
C7_7 N17_6 1_555 1_555
Cd5_5 N10_7 1_555 1_555
N14 N21_7 1_555 1_555
N19_6 N21_7 1_555 1_555
N17_6 N22_7 1_555 1_555
N9_7 N22_7 1_555 1_555
N10_7 N23_7 1_555 1_555
N17_4 N23_7 1_555 1_555
C1_8 H1_8 1_555 1_555
N18_8 C1_8 1_555 1_555
N2_8 N18_8 1_555 1_555
C2_8 C1_8 1_555 1_555
H2_8 C2_8 1_555 1_555
N19_3 N2_8 1_555 1_555
C2_8 N19_3 1_555 1_555
C9_8 C10_8 1_555 1_555
C10_8 H10_8 1_555 1_555
H9_8 C9_8 1_555 1_555
N10_8 C9_8 1_555 1_555
N17_3 C10_8 1_555 1_555
Cd5_6 N10_8 1_555 1_555
N10_8 N23_8 1_555 1_555
N17_3 N23_8 1_555 1_555
C3_8 C4_8 1_555 1_555
C4_8 H4_8 1_555 1_555
C5_8 C6_8 1_555 1_555
C6_8 H6_8 1_555 1_555
C7_8 C8_8 1_555 1_555
C8_8 H8_8 1_555 1_555
C11_8 C12_8 1_555 1_555
C12_8 H12_8 1_555 1_555
H3_8 C3_8 1_555 1_555
H5_8 C5_8 1_555 1_555
H7_8 C7_8 1_555 1_555
H11_8 C11_8 1_555 1_555
Cd5_7 N9_8 1_555 1_555
N18_3 C3_8 1_555 1_555
N15_2 C4_8 1_555 1_555
N14_2 C5_8 1_555 1_555
N9_8 C8_8 1_555 1_555
N12_8 C11_8 1_555 1_555
N16_2 C12_8 1_555 1_555
N20_8 Cd2_8 1_555 1_555
N21_8 Cd2_8 1_555 1_555
N22_8 Cd2_8 1_555 1_555
N24_8 Cd2_8 1_555 1_555
C6_8 N19_8 1_555 1_555
C7_8 N17_8 1_555 1_555
Cd5_7 N12_8 1_555 1_555
N18_3 N20_8 1_555 1_555
N15_2 N20_8 1_555 1_555
N14_2 N21_8 1_555 1_555
N19_8 N21_8 1_555 1_555
N17_8 N22_8 1_555 1_555
N9_8 N22_8 1_555 1_555
N12_8 N24_8 1_555 1_555
N16_2 N24_8 1_555 1_555

#END
