
###############################################################################
#
# This file contains modified crystal structure data generated from the
# MOF subset of the Cambridge Structural Database (CSD) v543 
# hosted by the Cambridge Crystallographic Data Centre (CCDC).
#
# This work is licensed under the Creative Commons
# Attribution-NonCommercial-ShareAlike 4.0 International License.
# To view a copy of this license, visit
# http://creativecommons.org/licenses/by-nc-sa/4.0/
# or send a letter to
# Creative Commons, PO Box 1866, Mountain View, CA 94042, USA.
#
# CIF created using the CSD Python API on 29 September 2022
# The structure has been converted into the P1 space group
# The structure has a 3D framework
# The original CSD entry QUNWIH is in the monoclinic crystal system
# The framework has been calculated to contain at least 10.0% void space
# The void calculation uses a probe of radius 1.32A, grid spacing 0.4
#
###############################################################################

data_QUNWIH
_chemical_formula_moiety         '(C216 H152 N8 O40 Zn8)n'
_symmetry_cell_setting           triclinic
_symmetry_space_group_name_H-M   'P 1'
_symmetry_Int_Tables_number      1
_space_group_name_Hall           'P 1'
loop_
_symmetry_equiv_pos_site_id
_symmetry_equiv_pos_as_xyz
1 x,y,z
_cell_length_a                   14.1639(5)
_cell_length_b                   25.2402(7)
_cell_length_c                   15.9077(7)
_cell_angle_alpha                90
_cell_angle_beta                 111.043(4)
_cell_angle_gamma                90
_cell_volume                     5307.74
loop_
_atom_site_label
_atom_site_type_symbol
_atom_site_fract_x
_atom_site_fract_y
_atom_site_fract_z
H17 H 0.0020 0.1424 0.0395
Zn5 Zn 0.16059(5) 0.22429(3) 0.11292(4)
Zn1 Zn 0.83941(5) 0.72429(3) 0.38708(4)
Zn2 Zn 0.32171(5) 0.23712(2) 0.34057(4)
N1 N 0.4153(3) 0.21756(19) 0.4680(3)
O1 O 0.7097(3) 0.69164(15) 0.3767(3)
O2 O 0.1135(3) 0.18033(17) 0.1915(3)
O4 O 0.2003(3) 0.19640(14) 0.3359(2)
O5 O 0.3348(3) 0.55901(15) 0.3752(3)
O7 O 0.2784(4) 0.31023(16) 0.3433(3)
O9 O 0.4263(5) 0.31518(19) 0.3301(3)
O10 O 0.6148(3) 0.69804(16) 0.2310(3)
C1 C 0.3492(6) 0.3360(3) 0.3364(4)
C2 C 0.3464(5) 0.3956(2) 0.3452(4)
C3 C 0.4208(5) 0.4268(2) 0.3344(4)
H1 H 0.4735 0.4112 0.3215
C4 C 0.4181(5) 0.4816(2) 0.3428(4)
H2 H 0.4676 0.5025 0.3335
C5 C 0.3430(4) 0.5045(2) 0.3644(4)
C6 C 0.2685(4) 0.4741(2) 0.3754(4)
H3 H 0.2165 0.4900 0.3890
C7 C 0.2703(4) 0.4199(2) 0.3664(4)
H4 H 0.2198 0.3994 0.3747
C8 C 0.4888(5) 0.6068(3) 0.4279(4)
H5 H 0.4976 0.5968 0.4865
C9 C 0.4058(4) 0.5912(2) 0.3591(4)
C10 C 0.3898(4) 0.6076(2) 0.2726(4)
H6 H 0.3314 0.5977 0.2254
C13 C 0.0082(5) 0.0936(3) 0.4041(4)
H8 H 0.0224 0.0830 0.4634
C21 C 0.1288(4) 0.1755(2) 0.2735(4)
C22 C 0.0561(4) 0.14155(19) 0.2982(3)
C23 C 0.0750(5) 0.1255(3) 0.3843(4)
H13 H 0.1339 0.1364 0.4300
C25 C 0.6309(4) 0.68412(19) 0.3106(4)
C26 C 0.5494(4) 0.6536(2) 0.3259(4)
C27 C 0.5609(5) 0.6374(3) 0.4115(4)
H15 H 0.6186 0.6474 0.4595
C28 C 0.4611(4) 0.6390(2) 0.2567(4)
H16 H 0.4499 0.6506 0.1984
C29 C 0.9917(5) 0.1621(3) 0.9876(4)
C30 C 0.9077(5) 0.1515(3) 0.9151(5)
H18 H 0.8645 0.1242 0.9174
C31 C 0.8864(4) 0.1813(3) 0.8377(4)
C32 C 0.9623(6) 0.2149(4) 0.8373(6)
H19 H 0.9565 0.2333 0.7850
C34 C 0.3834(4) 0.2067(2) 0.5340(4)
H21 H 0.3142 0.2073 0.5223
C35 C 0.4468(4) 0.1946(2) 0.6185(4)
H22 H 0.4195 0.1878 0.6626
C36 C 0.5490(5) 0.1921(3) 0.6411(4)
C37 C 0.5820(6) 0.2054(5) 0.5735(6)
H23 H 0.6511 0.2065 0.5851
C38 C 0.5151(5) 0.2175(4) 0.4878(5)
H24 H 0.5405 0.2257 0.4430
C39 C 0.6180(5) 0.1793(3) 0.7356(4)
H25 H 0.5796 0.1705 0.7742
C40 C 0.7064(5) 0.1377(3) 0.7470(5)
H26 H 0.7210 0.1197 0.8049
C41 C 0.7835(5) 0.1835(3) 0.7618(4)
H27 H 0.7911 0.1932 0.7049
C42 C 0.7003(5) 0.2209(3) 0.7800(5)
H28 H 0.6890 0.2539 0.7454
C43 C 0.7250(6) 0.2307(4) 0.8794(6)
C44 C 0.6998(7) 0.1950(6) 0.9368(6)
H29 H 0.6525 0.1685 0.9110
C48 C 0.7912(7) 0.2718(5) 0.9194(9)
H33 H 0.8098 0.2962 0.8843
C49 C 0.6953(6) 0.0960(5) 0.6767(7)
C50 C 0.7613(8) 0.0913(6) 0.6313(8)
H34 H 0.8126 0.1162 0.6409
C51 C 0.7522(12) 0.0492(10) 0.5703(13)
H35 H 0.8007 0.0445 0.5441
C52 C 0.6736(17) 0.0165(13) 0.5505(18)
C53 C 0.6032(14) 0.0207(10) 0.5951(16)
C54 C 0.6136(9) 0.0631(6) 0.6531(12)
H38 H 0.5632 0.0694 0.6767
Zn6 Zn 0.67829(5) 0.73712(2) 0.15943(4)
N3 N 0.9388(3) 0.69897(19) 0.5094(3)
O11 O 0.8865(3) 0.68033(17) 0.3085(3)
O12 O 0.8068(3) 0.79872(16) 0.3882(3)
O13 O 0.9412(4) 0.7988(2) 0.3524(4)
O14 O 0.3852(3) 0.19804(16) 0.2690(3)
C14 C 0.8624(4) 0.9921(2) 0.3613(4)
C15 C 0.7864(4) 0.9639(3) 0.3764(4)
H9 H 0.7333 0.9815 0.3856
C16 C 0.7903(5) 0.9096(2) 0.3777(4)
H10 H 0.7391 0.8908 0.3882
C17 C 0.8674(4) 0.8820(2) 0.3640(4)
C18 C 0.9419(4) 0.9106(3) 0.3472(4)
H11 H 0.9938 0.8930 0.3359
C19 C 0.9395(5) 0.9655(3) 0.3471(5)
H12 H 0.9909 0.9844 0.3372
C20 C 0.8738(5) 0.8225(3) 0.3671(4)
O3 O 0.1474(3) 0.54623(17) 0.1387(3)
O6 O 0.1932(3) 0.29872(16) 0.1118(3)
O8 O 0.0588(4) 0.2988(2) 0.1476(4)
C11 C 0.1000(4) 0.5934(3) 0.2460(4)
H7 H 0.1606 0.5833 0.2904
C12 C 0.0777(4) 0.5771(2) 0.1602(4)
C14_2 C 0.1376(4) 0.4921(2) 0.1387(4)
C15_2 C 0.2136(4) 0.4639(3) 0.1236(4)
H9_2 H 0.2667 0.4815 0.1144
C16_2 C 0.2097(5) 0.4096(2) 0.1223(4)
H10_2 H 0.2609 0.3908 0.1118
C17_2 C 0.1326(4) 0.3820(2) 0.1360(4)
C18_2 C 0.0581(4) 0.4106(3) 0.1528(4)
H11_2 H 0.0062 0.3930 0.1641
C19_2 C 0.0605(5) 0.4655(3) 0.1529(5)
H12_2 H 0.0091 0.4844 0.1628
C20_2 C 0.1262(5) 0.3225(3) 0.1329(4)
C24 C 0.0325(4) 0.6249(2) 0.2673(4)
H14 H 0.0470 0.6351 0.3268
O1_2 O 0.2903(3) 0.19164(15) 0.1233(3)
O5_2 O 0.6652(3) 0.05901(15) 0.1248(3)
H2_2 H 0.5324 0.0025 0.1665
C5_2 C 0.6570(4) 0.0045(2) 0.1356(4)
C8_2 C 0.5112(5) 0.1068(3) 0.0721(4)
H5_2 H 0.5024 0.0968 0.0135
C9_2 C 0.5942(4) 0.0912(2) 0.1409(4)
C10_2 C 0.6102(4) 0.1076(2) 0.2274(4)
H6_2 H 0.6686 0.0977 0.2746
C25_2 C 0.3691(4) 0.18412(19) 0.1894(4)
C26_2 C 0.4506(4) 0.1536(2) 0.1741(4)
C27_2 C 0.4391(5) 0.1374(3) 0.0885(4)
H15_2 H 0.3814 0.1474 0.0405
C28_2 C 0.5389(4) 0.1390(2) 0.2433(4)
H16_2 H 0.5501 0.1506 0.3016
N1_2 N 0.5847(3) 0.71756(19) 0.0320(3)
O4_2 O 0.7997(3) 0.69640(14) 0.1641(2)
O7_2 O 0.7216(4) 0.81023(16) 0.1567(3)
O9_2 O 0.5737(5) 0.81518(19) 0.1699(3)
C1_2 C 0.6508(6) 0.8360(3) 0.1636(4)
C2_2 C 0.6536(5) 0.8956(2) 0.1548(4)
C3_2 C 0.5792(5) 0.9268(2) 0.1656(4)
H1_2 H 0.5265 0.9112 0.1785
C4_2 C 0.5819(5) 0.9816(2) 0.1572(4)
C6_2 C 0.7315(4) 0.9741(2) 0.1246(4)
H3_2 H 0.7835 0.9900 0.1110
C7_2 C 0.7297(4) 0.9199(2) 0.1336(4)
H4_2 H 0.7802 0.8994 0.1253
C13_2 C 0.9918(5) 0.5936(3) 0.0959(4)
H8_2 H 0.9776 0.5830 0.0366
C21_2 C 0.8712(4) 0.6755(2) 0.2265(4)
C22_2 C 0.9439(4) 0.64155(19) 0.2018(3)
C23_2 C 0.9250(5) 0.6255(3) 0.1157(4)
H13_2 H 0.8661 0.6364 0.0700
C38_2 C 0.4849(5) 0.7175(4) 0.0122(5)
H24_2 H 0.4595 0.7257 0.0570
H17_2 H 0.9980 0.6424 0.4605
C33 C 0.9536(6) 0.7217(4) 0.5868(5)
H20 H 0.9033 0.7442 0.5907
N2 N 0.0612(3) 0.19897(19) 0.9906(3)
C33_2 C 0.0464(6) 0.2217(4) 0.9132(5)
H20_2 H 0.0967 0.2442 0.9093
C45 C 0.7426(9) 0.1978(7) 0.0296(7)
H30 H 0.7230 0.1750 0.0662
C46 C 0.8178(18) 0.2371(13) 0.0667(15)
H31 H 0.8586 0.2353 0.1272
C47 C 0.8308(14) 0.2760(9) 0.0164(14)
H32 H 0.8657 0.3064 0.0436
H36 H 0.6647 0.9904 0.5070
H37 H 0.5518 0.9959 0.5856
O3_2 O 0.8526(3) 0.04623(17) 0.3613(3)
C11_2 C 0.9000(4) 0.0934(3) 0.2540(4)
H7_2 H 0.8394 0.0833 0.2096
C12_2 C 0.9223(4) 0.0771(2) 0.3398(4)
C24_2 C 0.9675(4) 0.1249(2) 0.2327(4)
H14_2 H 0.9530 0.1351 0.1732
C29_2 C 0.0083(5) 0.6621(3) 0.5124(4)
C30_2 C 0.0923(5) 0.6515(3) 0.5849(5)
H18_2 H 0.1355 0.6242 0.5826
C31_2 C 0.1136(4) 0.6813(3) 0.6623(4)
C32_2 C 0.0377(6) 0.7149(4) 0.6627(6)
H19_2 H 0.0435 0.7333 0.7150
C34_2 C 0.6166(4) 0.7067(2) 0.9660(4)
H21_2 H 0.6858 0.7073 0.9777
C35_2 C 0.5532(4) 0.6946(2) 0.8815(4)
H22_2 H 0.5805 0.6878 0.8374
C36_2 C 0.4510(5) 0.6921(3) 0.8589(4)
C37_2 C 0.4180(6) 0.7054(5) 0.9265(6)
H23_2 H 0.3489 0.7065 0.9149
C39_2 C 0.3820(5) 0.6793(3) 0.7644(4)
H25_2 H 0.4204 0.6705 0.7258
C40_2 C 0.2936(5) 0.6377(3) 0.7530(5)
H26_2 H 0.2790 0.6197 0.6951
C41_2 C 0.2165(5) 0.6835(3) 0.7382(4)
H27_2 H 0.2089 0.6932 0.7951
C42_2 C 0.2997(5) 0.7209(3) 0.7200(5)
H28_2 H 0.3110 0.7539 0.7546
C43_2 C 0.2750(6) 0.7307(4) 0.6206(6)
C44_2 C 0.3002(7) 0.6950(6) 0.5632(6)
H29_2 H 0.3475 0.6685 0.5890
C45_2 C 0.2574(9) 0.6978(7) 0.4704(7)
H30_2 H 0.2770 0.6750 0.4338
C46_2 C 0.1822(18) 0.7371(13) 0.4333(15)
H31_2 H 0.1414 0.7353 0.3728
C47_2 C 0.1692(14) 0.7760(9) 0.4836(14)
H32_2 H 0.1343 0.8064 0.4564
C48_2 C 0.2088(7) 0.7718(5) 0.5806(9)
H33_2 H 0.1902 0.7962 0.6157
C49_2 C 0.3047(6) 0.5960(5) 0.8233(7)
C50_2 C 0.2387(8) 0.5913(6) 0.8687(8)
H34_2 H 0.1874 0.6162 0.8591
C51_2 C 0.2478(12) 0.5492(10) 0.9297(13)
H35_2 H 0.1993 0.5445 0.9559
C52_2 C 0.3264(17) 0.5165(13) 0.9495(18)
H36_2 H 0.3353 0.4904 0.9930
C53_2 C 0.3968(14) 0.5207(10) 0.9049(16)
H37_2 H 0.4482 0.4959 0.9144
C54_2 C 0.3864(9) 0.5631(6) 0.8469(12)
H38_2 H 0.4368 0.5694 0.8233
O6_2 O 0.1932(3) 0.20128(16) 0.6118(3)
O8_2 O 0.0588(4) 0.2012(2) 0.6476(4)
C14_3 C 0.1376(4) 0.0079(2) 0.6387(4)
C15_3 C 0.2136(4) 0.0361(3) 0.6236(4)
H9_3 H 0.2667 0.0185 0.6144
C16_3 C 0.2097(5) 0.0904(2) 0.6223(4)
H10_3 H 0.2609 0.1092 0.6118
C17_3 C 0.1326(4) 0.1180(2) 0.6360(4)
C18_3 C 0.0581(4) 0.0894(3) 0.6528(4)
H11_3 H 0.0062 0.1070 0.6641
C19_3 C 0.0605(5) 0.0345(3) 0.6529(5)
H12_3 H 0.0091 0.0156 0.6628
C20_3 C 0.1262(5) 0.1775(3) 0.6329(4)
Zn3 Zn 0.16059(5) 0.27571(3) 0.61292(4)
Zn2_2 Zn 0.67829(5) 0.76288(2) 0.65943(4)
N1_3 N 0.5847(3) 0.78244(19) 0.5320(3)
O1_3 O 0.2903(3) 0.30836(15) 0.6233(3)
O2_2 O 0.8865(3) 0.81967(17) 0.8085(3)
O4_3 O 0.7997(3) 0.80360(14) 0.6641(2)
O5_3 O 0.6652(3) 0.44099(15) 0.6248(3)
O7_3 O 0.7216(4) 0.68977(16) 0.6567(3)
O9_3 O 0.5737(5) 0.68482(19) 0.6699(3)
O10_2 O 0.3852(3) 0.30196(16) 0.7690(3)
C1_3 C 0.6508(6) 0.6640(3) 0.6636(4)
C2_3 C 0.6536(5) 0.6044(2) 0.6548(4)
C3_3 C 0.5792(5) 0.5732(2) 0.6656(4)
H1_3 H 0.5265 0.5888 0.6785
C4_3 C 0.5819(5) 0.5184(2) 0.6572(4)
H2_3 H 0.5324 0.4975 0.6665
C5_3 C 0.6570(4) 0.4955(2) 0.6356(4)
C6_3 C 0.7315(4) 0.5259(2) 0.6246(4)
H3_3 H 0.7835 0.5100 0.6110
C7_3 C 0.7297(4) 0.5801(2) 0.6336(4)
H4_3 H 0.7802 0.6006 0.6253
C8_3 C 0.5112(5) 0.3932(3) 0.5721(4)
H5_3 H 0.5024 0.4032 0.5135
C9_3 C 0.5942(4) 0.4088(2) 0.6409(4)
C10_3 C 0.6102(4) 0.3924(2) 0.7274(4)
H6_3 H 0.6686 0.4023 0.7746
C13_3 C 0.9918(5) 0.9064(3) 0.5959(4)
H8_3 H 0.9776 0.9170 0.5366
C21_3 C 0.8712(4) 0.8245(2) 0.7265(4)
C22_3 C 0.9439(4) 0.85845(19) 0.7018(3)
C23_3 C 0.9250(5) 0.8745(3) 0.6157(4)
H13_3 H 0.8661 0.8636 0.5700
C25_3 C 0.3691(4) 0.31588(19) 0.6894(4)
C26_3 C 0.4506(4) 0.3464(2) 0.6741(4)
C27_3 C 0.4391(5) 0.3626(3) 0.5885(4)
H15_3 H 0.3814 0.3526 0.5405
C28_3 C 0.5389(4) 0.3610(2) 0.7433(4)
H16_3 H 0.5501 0.3494 0.8016
C29_3 C 0.0083(5) 0.8379(3) 0.0124(4)
C30_3 C 0.0923(5) 0.8485(3) 0.0849(5)
H18_3 H 0.1355 0.8758 0.0826
C31_3 C 0.1136(4) 0.8187(3) 0.1623(4)
C32_3 C 0.0377(6) 0.7851(4) 0.1627(6)
H19_3 H 0.0435 0.7667 0.2150
C34_3 C 0.6166(4) 0.7933(2) 0.4660(4)
H21_3 H 0.6858 0.7927 0.4777
C35_3 C 0.5532(4) 0.8054(2) 0.3815(4)
H22_3 H 0.5805 0.8122 0.3374
C36_3 C 0.4510(5) 0.8079(3) 0.3589(4)
C37_3 C 0.4180(6) 0.7946(5) 0.4265(6)
H23_3 H 0.3489 0.7935 0.4149
C38_3 C 0.4849(5) 0.7825(4) 0.5122(5)
H24_3 H 0.4595 0.7743 0.5570
C39_3 C 0.3820(5) 0.8207(3) 0.2644(4)
H25_3 H 0.4204 0.8295 0.2258
C40_3 C 0.2936(5) 0.8623(3) 0.2530(5)
H26_3 H 0.2790 0.8803 0.1951
C41_3 C 0.2165(5) 0.8165(3) 0.2382(4)
H27_3 H 0.2089 0.8068 0.2951
C42_3 C 0.2997(5) 0.7791(3) 0.2200(5)
H28_3 H 0.3110 0.7461 0.2546
C43_3 C 0.2750(6) 0.7693(4) 0.1206(6)
C44_3 C 0.3002(7) 0.8050(6) 0.0632(6)
H29_3 H 0.3475 0.8315 0.0890
C48_3 C 0.2088(7) 0.7282(5) 0.0806(9)
H33_3 H 0.1902 0.7038 0.1157
C49_3 C 0.3047(6) 0.9040(5) 0.3233(7)
C50_3 C 0.2387(8) 0.9087(6) 0.3687(8)
H34_3 H 0.1874 0.8838 0.3591
C51_3 C 0.2478(12) 0.9508(10) 0.4297(13)
H35_3 H 0.1993 0.9555 0.4559
C52_3 C 0.3264(17) 0.9835(13) 0.4495(18)
C53_3 C 0.3968(14) 0.9793(10) 0.4049(16)
C54_3 C 0.3864(9) 0.9369(6) 0.3469(12)
H38_3 H 0.4368 0.9306 0.3233
Zn4 Zn 0.83941(5) 0.77571(3) 0.88708(4)
Zn6_2 Zn 0.32171(5) 0.26288(2) 0.84057(4)
N3_2 N 0.0612(3) 0.30103(19) 0.4906(3)
O11_2 O 0.1135(3) 0.31967(17) 0.6915(3)
O14_2 O 0.6148(3) 0.80196(16) 0.7310(3)
H17_3 H 0.9980 0.8576 0.9605
H17_4 H 0.0020 0.3576 0.5395
C33_3 C 0.0464(6) 0.2783(4) 0.4132(5)
H20_3 H 0.0967 0.2558 0.4093
N1_4 N 0.4153(3) 0.28244(19) 0.9680(3)
O4_4 O 0.2003(3) 0.30360(14) 0.8359(2)
O7_4 O 0.2784(4) 0.18977(16) 0.8433(3)
O9_4 O 0.4263(5) 0.18482(19) 0.8301(3)
C1_4 C 0.3492(6) 0.1640(3) 0.8364(4)
C2_4 C 0.3464(5) 0.1044(2) 0.8452(4)
C3_4 C 0.4208(5) 0.0732(2) 0.8344(4)
H1_4 H 0.4735 0.0888 0.8215
C4_4 C 0.4181(5) 0.0184(2) 0.8428(4)
C6_4 C 0.2685(4) 0.0259(2) 0.8754(4)
H3_4 H 0.2165 0.0100 0.8890
C7_4 C 0.2703(4) 0.0801(2) 0.8664(4)
H4_4 H 0.2198 0.1006 0.8747
C13_4 C 0.0082(5) 0.4064(3) 0.9041(4)
H8_4 H 0.0224 0.4170 0.9634
C21_4 C 0.1288(4) 0.3245(2) 0.7735(4)
C22_4 C 0.0561(4) 0.35845(19) 0.7982(3)
C23_4 C 0.0750(5) 0.3745(3) 0.8843(4)
H13_4 H 0.1339 0.3636 0.9300
C38_4 C 0.5151(5) 0.2825(4) 0.9878(5)
H24_4 H 0.5405 0.2743 0.9430
O1_4 O 0.7097(3) 0.80836(15) 0.8767(3)
O5_4 O 0.3348(3) 0.94099(15) 0.8752(3)
H2_4 H 0.4676 0.9975 0.8335
C5_4 C 0.3430(4) 0.9955(2) 0.8644(4)
C8_4 C 0.4888(5) 0.8932(3) 0.9279(4)
H5_4 H 0.4976 0.9032 0.9865
C9_4 C 0.4058(4) 0.9088(2) 0.8591(4)
C10_4 C 0.3898(4) 0.8924(2) 0.7726(4)
H6_4 H 0.3314 0.9023 0.7254
C25_4 C 0.6309(4) 0.81588(19) 0.8106(4)
C26_4 C 0.5494(4) 0.8464(2) 0.8259(4)
C27_4 C 0.5609(5) 0.8626(3) 0.9115(4)
H15_4 H 0.6186 0.8526 0.9595
C28_4 C 0.4611(4) 0.8610(2) 0.7567(4)
H16_4 H 0.4499 0.8494 0.6984
O12_2 O 0.8068(3) 0.70128(16) 0.8882(3)
O13_2 O 0.9412(4) 0.7012(2) 0.8524(4)
O3_3 O 0.8526(3) 0.45377(17) 0.8613(3)
C11_3 C 0.9000(4) 0.4066(3) 0.7540(4)
H7_3 H 0.8394 0.4167 0.7096
C12_3 C 0.9223(4) 0.4229(2) 0.8398(4)
C14_4 C 0.8624(4) 0.5079(2) 0.8613(4)
C15_4 C 0.7864(4) 0.5361(3) 0.8764(4)
H9_4 H 0.7333 0.5185 0.8856
C16_4 C 0.7903(5) 0.5904(2) 0.8777(4)
H10_4 H 0.7391 0.6092 0.8882
C17_4 C 0.8674(4) 0.6180(2) 0.8640(4)
C18_4 C 0.9419(4) 0.5894(3) 0.8472(4)
H11_4 H 0.9938 0.6070 0.8359
C19_4 C 0.9395(5) 0.5345(3) 0.8471(5)
H12_4 H 0.9909 0.5156 0.8372
C20_4 C 0.8738(5) 0.6775(3) 0.8671(4)
C24_3 C 0.9675(4) 0.3751(2) 0.7327(4)
H14_3 H 0.9530 0.3649 0.6732
O3_4 O 0.1474(3) 0.95377(17) 0.6387(3)
C11_4 C 0.1000(4) 0.9066(3) 0.7460(4)
H7_4 H 0.1606 0.9167 0.7904
C12_4 C 0.0777(4) 0.9229(2) 0.6602(4)
C24_4 C 0.0325(4) 0.8751(2) 0.7673(4)
H14_4 H 0.0470 0.8649 0.8268
H36_3 H 0.3353 0.0096 0.4930
H37_3 H 0.4482 0.0041 0.4144
C45_3 C 0.2574(9) 0.8022(7) 0.9704(7)
H30_3 H 0.2770 0.8250 0.9338
C46_3 C 0.1822(18) 0.7629(13) 0.9333(15)
H31_3 H 0.1414 0.7647 0.8728
C47_3 C 0.1692(14) 0.7240(9) 0.9836(14)
H32_3 H 0.1343 0.6936 0.9564
N2_2 N 0.9388(3) 0.80103(19) 0.0094(3)
C33_4 C 0.9536(6) 0.7783(4) 0.0868(5)
H20_4 H 0.9033 0.7558 0.0907
C29_4 C 0.9917(5) 0.3379(3) 0.4876(4)
C30_4 C 0.9077(5) 0.3485(3) 0.4151(5)
H18_4 H 0.8645 0.3758 0.4174
C31_4 C 0.8864(4) 0.3187(3) 0.3377(4)
C32_4 C 0.9623(6) 0.2851(4) 0.3373(6)
H19_4 H 0.9565 0.2667 0.2850
C34_4 C 0.3834(4) 0.2933(2) 0.0340(4)
H21_4 H 0.3142 0.2927 0.0223
C35_4 C 0.4468(4) 0.3054(2) 0.1185(4)
H22_4 H 0.4195 0.3122 0.1626
C36_4 C 0.5490(5) 0.3079(3) 0.1411(4)
C37_4 C 0.5820(6) 0.2946(5) 0.0735(6)
H23_4 H 0.6511 0.2935 0.0851
C39_4 C 0.6180(5) 0.3207(3) 0.2356(4)
H25_4 H 0.5796 0.3295 0.2742
C40_4 C 0.7064(5) 0.3623(3) 0.2470(5)
H26_4 H 0.7210 0.3803 0.3049
C41_4 C 0.7835(5) 0.3165(3) 0.2618(4)
H27_4 H 0.7911 0.3068 0.2049
C42_4 C 0.7003(5) 0.2791(3) 0.2800(5)
H28_4 H 0.6890 0.2461 0.2454
C43_4 C 0.7250(6) 0.2693(4) 0.3794(6)
C44_4 C 0.6998(7) 0.3050(6) 0.4368(6)
H29_4 H 0.6525 0.3315 0.4110
C45_4 C 0.7426(9) 0.3022(7) 0.5296(7)
H30_4 H 0.7230 0.3250 0.5662
C46_4 C 0.8178(18) 0.2629(13) 0.5667(15)
H31_4 H 0.8586 0.2647 0.6272
C47_4 C 0.8308(14) 0.2240(9) 0.5164(14)
H32_4 H 0.8657 0.1936 0.5436
C48_4 C 0.7912(7) 0.2282(5) 0.4194(9)
H33_4 H 0.8098 0.2038 0.3843
C49_4 C 0.6953(6) 0.4040(5) 0.1767(7)
C50_4 C 0.7613(8) 0.4087(6) 0.1313(8)
H34_4 H 0.8126 0.3838 0.1409
C51_4 C 0.7522(12) 0.4508(10) 0.0703(13)
H35_4 H 0.8007 0.4555 0.0441
C52_4 C 0.6736(17) 0.4835(13) 0.0505(18)
H36_4 H 0.6647 0.5096 0.0070
C53_4 C 0.6032(14) 0.4793(10) 0.0951(16)
H37_4 H 0.5518 0.5041 0.0856
C54_4 C 0.6136(9) 0.4369(6) 0.1531(12)
H38_4 H 0.5632 0.4306 0.1767
loop_
_geom_bond_atom_site_label_1
_geom_bond_atom_site_label_2
_geom_bond_site_symmetry_1
_geom_bond_site_symmetry_2
Zn1 O1 1_555 1_555
Zn2 N1 1_555 1_555
N1 C34 1_555 1_555
O1 C25 1_555 1_555
O2 C21 1_555 1_555
O4 Zn2 1_555 1_555
O5 C5 1_555 1_555
O7 Zn2 1_555 1_555
O9 Zn2 1_555 1_555
O10 C25 1_555 1_555
C1 O7 1_555 1_555
C2 C1 1_555 1_555
C3 C2 1_555 1_555
H1 C3 1_555 1_555
C4 C3 1_555 1_555
H2 C4 1_555 1_555
C5 C4 1_555 1_555
C6 C5 1_555 1_555
H3 C6 1_555 1_555
C7 C2 1_555 1_555
H4 C7 1_555 1_555
C8 H5 1_555 1_555
C9 O5 1_555 1_555
C10 C9 1_555 1_555
H6 C10 1_555 1_555
H8 C13 1_555 1_555
C21 O4 1_555 1_555
C22 C21 1_555 1_555
C23 C13 1_555 1_555
H13 C23 1_555 1_555
C25 C26 1_555 1_555
C26 C27 1_555 1_555
C27 C8 1_555 1_555
H15 C27 1_555 1_555
C28 C10 1_555 1_555
H16 C28 1_555 1_555
C30 C29 1_555 1_555
H18 C30 1_555 1_555
C31 C30 1_555 1_555
C32 C31 1_555 1_555
H19 C32 1_555 1_555
C34 H21 1_555 1_555
C35 C34 1_555 1_555
H22 C35 1_555 1_555
C36 C35 1_555 1_555
C37 C36 1_555 1_555
H23 C37 1_555 1_555
C38 N1 1_555 1_555
H24 C38 1_555 1_555
C39 C36 1_555 1_555
H25 C39 1_555 1_555
C40 C39 1_555 1_555
H26 C40 1_555 1_555
C41 C31 1_555 1_555
H27 C41 1_555 1_555
C42 C39 1_555 1_555
H28 C42 1_555 1_555
C43 C42 1_555 1_555
C44 C43 1_555 1_555
H29 C44 1_555 1_555
C48 C43 1_555 1_555
H33 C48 1_555 1_555
C49 C40 1_555 1_555
C50 C49 1_555 1_555
H34 C50 1_555 1_555
C51 C50 1_555 1_555
H35 C51 1_555 1_555
C52 C51 1_555 1_555
C53 C52 1_555 1_555
C54 C49 1_555 1_555
H38 C54 1_555 1_555
Zn5 O2 1_555 1_555
Zn6 O10 1_555 1_555
N3 Zn1 1_555 1_555
O11 Zn1 1_555 1_555
O12 Zn1 1_555 1_555
O13 Zn1 1_555 1_555
O14 Zn2 1_555 1_555
O9 C1 1_555 1_555
C6 C7 1_555 1_555
C8 C9 1_555 1_555
C22 C23 1_555 1_555
C26 C28 1_555 1_555
C37 C38 1_555 1_555
C40 C41 1_555 1_555
C41 C42 1_555 1_555
C53 C54 1_555 1_555
O12 C20 1_555 1_555
O13 C20 1_555 1_555
C15 C14 1_555 1_555
H9 C15 1_555 1_555
C16 C15 1_555 1_555
H10 C16 1_555 1_555
C17 C16 1_555 1_555
C18 C17 1_555 1_555
H11 C18 1_555 1_555
C19 C14 1_555 1_555
H12 C19 1_555 1_555
C20 C17 1_555 1_555
C18 C19 1_555 1_555
O3 C12 1_555 1_555
O6 C20_2 1_555 1_555
O8 C20_2 1_555 1_555
C11 H7 1_555 1_555
C12 C11 1_555 1_555
C14_2 O3 1_555 1_555
C15_2 C14_2 1_555 1_555
H9_2 C15_2 1_555 1_555
C16_2 C15_2 1_555 1_555
H10_2 C16_2 1_555 1_555
C17_2 C16_2 1_555 1_555
C18_2 C17_2 1_555 1_555
H11_2 C18_2 1_555 1_555
C19_2 C14_2 1_555 1_555
H12_2 C19_2 1_555 1_555
C20_2 C17_2 1_555 1_555
C24 C11 1_555 1_555
H14 C24 1_555 1_555
Zn5 O6 1_555 1_555
O8 Zn5 1_555 1_555
C18_2 C19_2 1_555 1_555
Zn5 O1_2 1_555 1_555
O1_2 C25_2 1_555 1_555
O5_2 C5_2 1_555 1_555
O14 C25_2 1_555 1_555
C8_2 H5_2 1_555 1_555
C9_2 O5_2 1_555 1_555
C10_2 C9_2 1_555 1_555
H6_2 C10_2 1_555 1_555
C25_2 C26_2 1_555 1_555
C26_2 C27_2 1_555 1_555
C27_2 C8_2 1_555 1_555
H15_2 C27_2 1_555 1_555
C28_2 C10_2 1_555 1_555
H16_2 C28_2 1_555 1_555
C8_2 C9_2 1_555 1_555
C26_2 C28_2 1_555 1_555
Zn6 N1_2 1_555 1_555
O11 C21_2 1_555 1_555
O4_2 Zn6 1_555 1_555
O7_2 Zn6 1_555 1_555
O9_2 Zn6 1_555 1_555
C1_2 O7_2 1_555 1_555
C2_2 C1_2 1_555 1_555
C3_2 C2_2 1_555 1_555
H1_2 C3_2 1_555 1_555
C4_2 C3_2 1_555 1_555
H3_2 C6_2 1_555 1_555
C7_2 C2_2 1_555 1_555
H4_2 C7_2 1_555 1_555
H8_2 C13_2 1_555 1_555
C21_2 O4_2 1_555 1_555
C22_2 C21_2 1_555 1_555
C23_2 C13_2 1_555 1_555
H13_2 C23_2 1_555 1_555
C38_2 N1_2 1_555 1_555
H24_2 C38_2 1_555 1_555
O9_2 C1_2 1_555 1_555
C6_2 C7_2 1_555 1_555
C22_2 C23_2 1_555 1_555
C33 N3 1_555 1_555
H20 C33 1_555 1_555
C33_2 N2 1_555 1_555
H20_2 C33_2 1_555 1_555
H30 C45 1_555 1_555
C46 C45 1_555 1_555
H31 C46 1_555 1_555
C47 C46 1_555 1_555
H32 C47 1_555 1_555
O3_2 C12_2 1_555 1_555
C11_2 H7_2 1_555 1_555
C12_2 C11_2 1_555 1_555
C24_2 C11_2 1_555 1_555
H14_2 C24_2 1_555 1_555
C30_2 C29_2 1_555 1_555
H18_2 C30_2 1_555 1_555
C31_2 C30_2 1_555 1_555
C32_2 C31_2 1_555 1_555
H19_2 C32_2 1_555 1_555
C34_2 H21_2 1_555 1_555
C35_2 C34_2 1_555 1_555
H22_2 C35_2 1_555 1_555
C36_2 C35_2 1_555 1_555
C37_2 C36_2 1_555 1_555
H23_2 C37_2 1_555 1_555
C39_2 C36_2 1_555 1_555
H25_2 C39_2 1_555 1_555
C40_2 C39_2 1_555 1_555
H26_2 C40_2 1_555 1_555
C41_2 C31_2 1_555 1_555
H27_2 C41_2 1_555 1_555
C42_2 C39_2 1_555 1_555
H28_2 C42_2 1_555 1_555
C43_2 C42_2 1_555 1_555
C44_2 C43_2 1_555 1_555
H29_2 C44_2 1_555 1_555
C45_2 C44_2 1_555 1_555
H30_2 C45_2 1_555 1_555
C46_2 C45_2 1_555 1_555
H31_2 C46_2 1_555 1_555
C47_2 C46_2 1_555 1_555
H32_2 C47_2 1_555 1_555
C48_2 C43_2 1_555 1_555
H33_2 C48_2 1_555 1_555
C49_2 C40_2 1_555 1_555
C50_2 C49_2 1_555 1_555
H34_2 C50_2 1_555 1_555
C51_2 C50_2 1_555 1_555
H35_2 C51_2 1_555 1_555
C52_2 C51_2 1_555 1_555
H36_2 C52_2 1_555 1_555
C53_2 C52_2 1_555 1_555
H37_2 C53_2 1_555 1_555
C54_2 C49_2 1_555 1_555
H38_2 C54_2 1_555 1_555
C40_2 C41_2 1_555 1_555
C41_2 C42_2 1_555 1_555
C47_2 C48_2 1_555 1_555
C53_2 C54_2 1_555 1_555
O6_2 C20_3 1_555 1_555
O8_2 C20_3 1_555 1_555
C15_3 C14_3 1_555 1_555
H9_3 C15_3 1_555 1_555
C16_3 C15_3 1_555 1_555
H10_3 C16_3 1_555 1_555
C17_3 C16_3 1_555 1_555
C18_3 C17_3 1_555 1_555
H11_3 C18_3 1_555 1_555
C19_3 C14_3 1_555 1_555
H12_3 C19_3 1_555 1_555
C20_3 C17_3 1_555 1_555
Zn3 O6_2 1_555 1_555
O8_2 Zn3 1_555 1_555
C18_3 C19_3 1_555 1_555
Zn3 O1_3 1_555 1_555
Zn2_2 N1_3 1_555 1_555
N1_3 C34_3 1_555 1_555
O1_3 C25_3 1_555 1_555
O2_2 C21_3 1_555 1_555
O4_3 Zn2_2 1_555 1_555
O5_3 C5_3 1_555 1_555
O7_3 Zn2_2 1_555 1_555
O9_3 Zn2_2 1_555 1_555
O10_2 C25_3 1_555 1_555
C1_3 O7_3 1_555 1_555
C2_3 C1_3 1_555 1_555
C3_3 C2_3 1_555 1_555
H1_3 C3_3 1_555 1_555
C4_3 C3_3 1_555 1_555
H2_3 C4_3 1_555 1_555
C5_3 C4_3 1_555 1_555
C6_3 C5_3 1_555 1_555
H3_3 C6_3 1_555 1_555
C7_3 C2_3 1_555 1_555
H4_3 C7_3 1_555 1_555
C8_3 H5_3 1_555 1_555
C9_3 O5_3 1_555 1_555
C10_3 C9_3 1_555 1_555
H6_3 C10_3 1_555 1_555
H8_3 C13_3 1_555 1_555
C21_3 O4_3 1_555 1_555
C22_3 C21_3 1_555 1_555
C23_3 C13_3 1_555 1_555
H13_3 C23_3 1_555 1_555
C25_3 C26_3 1_555 1_555
C26_3 C27_3 1_555 1_555
C27_3 C8_3 1_555 1_555
H15_3 C27_3 1_555 1_555
C28_3 C10_3 1_555 1_555
H16_3 C28_3 1_555 1_555
C30_3 C29_3 1_555 1_555
H18_3 C30_3 1_555 1_555
C31_3 C30_3 1_555 1_555
C32_3 C31_3 1_555 1_555
H19_3 C32_3 1_555 1_555
C34_3 H21_3 1_555 1_555
C35_3 C34_3 1_555 1_555
H22_3 C35_3 1_555 1_555
C36_3 C35_3 1_555 1_555
C37_3 C36_3 1_555 1_555
H23_3 C37_3 1_555 1_555
C38_3 N1_3 1_555 1_555
H24_3 C38_3 1_555 1_555
C39_3 C36_3 1_555 1_555
H25_3 C39_3 1_555 1_555
C40_3 C39_3 1_555 1_555
H26_3 C40_3 1_555 1_555
C41_3 C31_3 1_555 1_555
H27_3 C41_3 1_555 1_555
C42_3 C39_3 1_555 1_555
H28_3 C42_3 1_555 1_555
C43_3 C42_3 1_555 1_555
C44_3 C43_3 1_555 1_555
H29_3 C44_3 1_555 1_555
C48_3 C43_3 1_555 1_555
H33_3 C48_3 1_555 1_555
C49_3 C40_3 1_555 1_555
C50_3 C49_3 1_555 1_555
H34_3 C50_3 1_555 1_555
C51_3 C50_3 1_555 1_555
H35_3 C51_3 1_555 1_555
C52_3 C51_3 1_555 1_555
C53_3 C52_3 1_555 1_555
C54_3 C49_3 1_555 1_555
H38_3 C54_3 1_555 1_555
Zn4 O2_2 1_555 1_555
Zn6_2 O10_2 1_555 1_555
N3_2 Zn3 1_555 1_555
O11_2 Zn3 1_555 1_555
O14_2 Zn2_2 1_555 1_555
O9_3 C1_3 1_555 1_555
C6_3 C7_3 1_555 1_555
C8_3 C9_3 1_555 1_555
C22_3 C23_3 1_555 1_555
C26_3 C28_3 1_555 1_555
C37_3 C38_3 1_555 1_555
C40_3 C41_3 1_555 1_555
C41_3 C42_3 1_555 1_555
C53_3 C54_3 1_555 1_555
C33_3 N3_2 1_555 1_555
H20_3 C33_3 1_555 1_555
Zn6_2 N1_4 1_555 1_555
O11_2 C21_4 1_555 1_555
O4_4 Zn6_2 1_555 1_555
O7_4 Zn6_2 1_555 1_555
O9_4 Zn6_2 1_555 1_555
C1_4 O7_4 1_555 1_555
C2_4 C1_4 1_555 1_555
C3_4 C2_4 1_555 1_555
H1_4 C3_4 1_555 1_555
C4_4 C3_4 1_555 1_555
H3_4 C6_4 1_555 1_555
C7_4 C2_4 1_555 1_555
H4_4 C7_4 1_555 1_555
H8_4 C13_4 1_555 1_555
C21_4 O4_4 1_555 1_555
C22_4 C21_4 1_555 1_555
C23_4 C13_4 1_555 1_555
H13_4 C23_4 1_555 1_555
C38_4 N1_4 1_555 1_555
H24_4 C38_4 1_555 1_555
O9_4 C1_4 1_555 1_555
C6_4 C7_4 1_555 1_555
C22_4 C23_4 1_555 1_555
Zn4 O1_4 1_555 1_555
O1_4 C25_4 1_555 1_555
O5_4 C5_4 1_555 1_555
O14_2 C25_4 1_555 1_555
C8_4 H5_4 1_555 1_555
C9_4 O5_4 1_555 1_555
C10_4 C9_4 1_555 1_555
H6_4 C10_4 1_555 1_555
C25_4 C26_4 1_555 1_555
C26_4 C27_4 1_555 1_555
C27_4 C8_4 1_555 1_555
H15_4 C27_4 1_555 1_555
C28_4 C10_4 1_555 1_555
H16_4 C28_4 1_555 1_555
O12_2 Zn4 1_555 1_555
O13_2 Zn4 1_555 1_555
C8_4 C9_4 1_555 1_555
C26_4 C28_4 1_555 1_555
O3_3 C12_3 1_555 1_555
O12_2 C20_4 1_555 1_555
O13_2 C20_4 1_555 1_555
C11_3 H7_3 1_555 1_555
C12_3 C11_3 1_555 1_555
C14_4 O3_3 1_555 1_555
C15_4 C14_4 1_555 1_555
H9_4 C15_4 1_555 1_555
C16_4 C15_4 1_555 1_555
H10_4 C16_4 1_555 1_555
C17_4 C16_4 1_555 1_555
C18_4 C17_4 1_555 1_555
H11_4 C18_4 1_555 1_555
C19_4 C14_4 1_555 1_555
H12_4 C19_4 1_555 1_555
C20_4 C17_4 1_555 1_555
C24_3 C11_3 1_555 1_555
H14_3 C24_3 1_555 1_555
C18_4 C19_4 1_555 1_555
O3_4 C12_4 1_555 1_555
C11_4 H7_4 1_555 1_555
C12_4 C11_4 1_555 1_555
C24_4 C11_4 1_555 1_555
H14_4 C24_4 1_555 1_555
H30_3 C45_3 1_555 1_555
C46_3 C45_3 1_555 1_555
H31_3 C46_3 1_555 1_555
C47_3 C46_3 1_555 1_555
H32_3 C47_3 1_555 1_555
C33_4 N2_2 1_555 1_555
H20_4 C33_4 1_555 1_555
C30_4 C29_4 1_555 1_555
H18_4 C30_4 1_555 1_555
C31_4 C30_4 1_555 1_555
C32_4 C31_4 1_555 1_555
H19_4 C32_4 1_555 1_555
C34_4 H21_4 1_555 1_555
C35_4 C34_4 1_555 1_555
H22_4 C35_4 1_555 1_555
C36_4 C35_4 1_555 1_555
C37_4 C36_4 1_555 1_555
H23_4 C37_4 1_555 1_555
C39_4 C36_4 1_555 1_555
H25_4 C39_4 1_555 1_555
C40_4 C39_4 1_555 1_555
H26_4 C40_4 1_555 1_555
C41_4 C31_4 1_555 1_555
H27_4 C41_4 1_555 1_555
C42_4 C39_4 1_555 1_555
H28_4 C42_4 1_555 1_555
C43_4 C42_4 1_555 1_555
C44_4 C43_4 1_555 1_555
H29_4 C44_4 1_555 1_555
C45_4 C44_4 1_555 1_555
H30_4 C45_4 1_555 1_555
C46_4 C45_4 1_555 1_555
H31_4 C46_4 1_555 1_555
C47_4 C46_4 1_555 1_555
H32_4 C47_4 1_555 1_555
C48_4 C43_4 1_555 1_555
H33_4 C48_4 1_555 1_555
C49_4 C40_4 1_555 1_555
C50_4 C49_4 1_555 1_555
H34_4 C50_4 1_555 1_555
C51_4 C50_4 1_555 1_555
H35_4 C51_4 1_555 1_555
C52_4 C51_4 1_555 1_555
H36_4 C52_4 1_555 1_555
C53_4 C52_4 1_555 1_555
H37_4 C53_4 1_555 1_555
C54_4 C49_4 1_555 1_555
H38_4 C54_4 1_555 1_555
C40_4 C41_4 1_555 1_555
C41_4 C42_4 1_555 1_555
C47_4 C48_4 1_555 1_555
C53_4 C54_4 1_555 1_555

#END
