
###############################################################################
#
# This file contains modified crystal structure data generated from the
# MOF subset of the Cambridge Structural Database (CSD) v543 
# hosted by the Cambridge Crystallographic Data Centre (CCDC).
#
# This work is licensed under the Creative Commons
# Attribution-NonCommercial-ShareAlike 4.0 International License.
# To view a copy of this license, visit
# http://creativecommons.org/licenses/by-nc-sa/4.0/
# or send a letter to
# Creative Commons, PO Box 1866, Mountain View, CA 94042, USA.
#
# CIF created using the CSD Python API on 29 September 2022
# The structure has been converted into the P1 space group
# The structure has a 3D framework
# The original CSD entry QUNXAA is in the monoclinic crystal system
# The framework has been calculated to contain at least 10.0% void space
# The void calculation uses a probe of radius 1.32A, grid spacing 0.4
#
###############################################################################

data_QUNXAA
_chemical_formula_moiety         '(C248 H168 N6 O40 Zn8)n'
_symmetry_cell_setting           triclinic
_symmetry_space_group_name_H-M   'P 1'
_symmetry_Int_Tables_number      1
_space_group_name_Hall           'P 1'
loop_
_symmetry_equiv_pos_site_id
_symmetry_equiv_pos_as_xyz
1 x,y,z
_cell_length_a                   14.7573(7)
_cell_length_b                   24.3576(7)
_cell_length_c                   17.9206(10)
_cell_angle_alpha                90
_cell_angle_beta                 117.685(3)
_cell_angle_gamma                90
_cell_volume                     5704.14
loop_
_atom_site_label
_atom_site_type_symbol
_atom_site_fract_x
_atom_site_fract_y
_atom_site_fract_z
O4 O 0.2439(5) 0.3223(2) 0.6216(3)
O5 O 0.1520(4) 0.31756(19) 0.6886(3)
O8 O 0.1310(3) 0.57347(16) 0.6183(2)
C19 C 0.0643(4) 0.6013(2) 0.6404(3)
C20 C 0.0922(4) 0.6139(2) 0.7236(3)
H11 H 0.1551 0.6026 0.7664
C21 C 0.0264(4) 0.6432(2) 0.7418(3)
H12 H 0.0450 0.6514 0.7977
C22 C 0.0937(5) 0.4870(3) 0.6635(4)
H13 H 0.0485 0.5029 0.6799
C23 C 0.1155(5) 0.4300(3) 0.6734(4)
H14 H 0.0854 0.4083 0.6986
C24 C 0.1786(5) 0.4063(3) 0.6473(3)
C25 C 0.2227(5) 0.4381(3) 0.6111(4)
H15 H 0.2641 0.4217 0.5912
C26 C 0.2079(5) 0.4943(3) 0.6030(4)
H16 H 0.2416 0.5159 0.5808
C27 C 0.1420(4) 0.5174(2) 0.6288(3)
C28 C 0.1941(6) 0.3440(3) 0.6539(4)
Zn4 Zn 0.17923(5) 0.24110(3) 0.66600(3)
O3 O 0.6545(3) 0.06846(16) 0.6583(2)
O9 O 0.3014(3) 0.20020(16) 0.6828(2)
O10 O 0.4087(3) 0.18962(16) 0.8189(2)
C1 C 0.3828(4) 0.1826(2) 0.7424(3)
C2 C 0.4534(4) 0.1509(2) 0.7205(3)
C3 C 0.4227(4) 0.1335(2) 0.6385(3)
H1 H 0.3568 0.1413 0.5968
C4 C 0.4876(5) 0.1051(2) 0.6186(3)
H2 H 0.4658 0.0932 0.5635
C5 C 0.5857(4) 0.0940(2) 0.6797(3)
C6 C 0.6169(5) 0.1100(3) 0.7604(4)
H3 H 0.6823 0.1012 0.8021
C7 C 0.5519(4) 0.1390(2) 0.7802(3)
H4 H 0.5746 0.1510 0.8353
C8 C 0.6492(4) 0.0130(2) 0.6444(3)
H8 H 0.7366 0.0155 0.5862
Zn3 Zn 0.35618(5) 0.23379(3) 0.88327(3)
N3 N 0.0882(3) 0.21812(18) 0.5434(2)
O13 O 0.1160(3) 0.19924(16) 0.7247(2)
Zn1 Zn 0.64382(5) 0.73379(3) 0.61673(3)
N1 N 0.5364(4) 0.70781(19) 0.5007(2)
O1 O 0.6232(3) 0.80789(16) 0.6458(2)
O2 O 0.6933(3) 0.82118(16) 0.5630(2)
O6 O 0.8840(3) 0.69924(16) 0.7753(2)
O7 O 0.7758(3) 0.70440(18) 0.6387(2)
C9 C 0.5990(5) 0.9773(3) 0.6730(3)
H5 H 0.5633 0.9909 0.7003
C10 C 0.6019(4) 0.9212(2) 0.6611(3)
H6 H 0.5678 0.8975 0.6802
C11 C 0.6544(4) 0.9005(2) 0.6214(3)
C12 C 0.7056(4) 0.9360(2) 0.5940(3)
H7 H 0.7424 0.9222 0.5677
C13 C 0.7024(4) 0.9919(3) 0.6053(3)
C14 C 0.6583(4) 0.8393(2) 0.6088(3)
C15 C 0.8576(4) 0.6908(2) 0.6985(3)
C16 C 0.9330(4) 0.6609(2) 0.6796(3)
C17 C 0.9089(4) 0.6494(3) 0.5972(3)
H9 H 0.8478 0.6624 0.5541
C18 C 0.9729(5) 0.6194(3) 0.5776(3)
H10 H 0.9544 0.6113 0.5216
C29 C 0.4711(5) 0.6682(3) 0.4926(3)
H17 H 0.4846 0.6467 0.5395
C30 C 0.3833(5) 0.6568(3) 0.4178(4)
H18 H 0.3420 0.6273 0.4151
C31 C 0.3579(5) 0.6885(3) 0.3491(3)
C32 C 0.4268(6) 0.7281(3) 0.3548(4)
H19 H 0.4151 0.7490 0.3078
C33 C 0.5120(5) 0.7367(3) 0.4288(4)
H20 H 0.5567 0.7641 0.4306
C34 C 0.2560(5) 0.6853(3) 0.2706(3)
H21 H 0.2622 0.7005 0.2226
C35 C 0.1550(6) 0.7107(3) 0.2731(4)
H22 H 0.1365 0.7474 0.2481
C36 C 0.0908(5) 0.6661(3) 0.2159(4)
H23 H 0.0459 0.6496 0.2365
C37 C 0.1911(5) 0.6317(3) 0.2437(3)
H24 H 0.2035 0.6127 0.2958
C38 C 0.0303(5) 0.6833(3) 0.1228(3)
C39 C 0.0724(5) 0.6892(3) 0.0693(4)
H25 H 0.1414 0.6817 0.0881
C43 C 0.1618(6) 0.7066(4) 0.3643(4)
C44 C 0.1274(7) 0.6662(4) 0.3938(5)
H29 H 0.0857 0.6407 0.3541
C45 C 0.1451(7) 0.6569(3) 0.4750(5)
H30 H 0.1142 0.6273 0.4871
C46 C 0.2072(8) 0.6908(5) 0.5372(6)
H31 H 0.2233 0.6849 0.5933
C47 C 0.2512(6) 0.7414(4) 0.5085(5)
C48 C 0.2207(5) 0.7426(3) 0.4243(4)
C49 C 0.2669(7) 0.7948(4) 0.3996(6)
H32 H 0.2525 0.8014 0.3441
C50 C 0.3279(6) 0.8289(4) 0.4627(5)
H33 H 0.3528 0.8608 0.4503
C51 C 0.3541(8) 0.8163(4) 0.5472(7)
H34 H 0.4004 0.8394 0.5887
C52 C 0.3160(8) 0.7717(6) 0.5738(6)
H35 H 0.3336 0.7641 0.6297
C53 C 0.2078(6) 0.5897(3) 0.1889(4)
C54 C 0.2887(7) 0.5952(4) 0.1711(5)
H36 H 0.3303 0.6262 0.1891
C55 C 0.1422(9) 0.5440(4) 0.1589(6)
C56 C 0.0578(9) 0.5357(5) 0.1785(6)
H37 H 0.0465 0.5615 0.2116
C57 C 0.1640(14) 0.5011(5) 0.1121(7)
C58 C 0.3087(10) 0.5524(5) 0.1239(6)
H38 H 0.3638 0.5572 0.1128
C59 C 0.2527(13) 0.5067(5) 0.0956(7)
H39 H 0.2689 0.4798 0.0670
C61 C 0.106(3) 0.4513(8) 0.0836(14)
H41 H 0.1253 0.4226 0.0597
C62 C 0.012(2) 0.4494(9) 0.0956(12)
Zn6 Zn 0.82077(5) 0.74110(3) 0.83400(3)
O14 O 0.5913(3) 0.68962(16) 0.6811(2)
N2 N 0.9118(3) 0.71812(18) 0.9566(2)
H27 H 0.8025 0.7172 0.9893
C41 C 0.1279(5) 0.2108(3) 0.4904(3)
H27_2 H 0.1975 0.2172 0.5107
C42 C 0.0729(5) 0.1947(3) 0.4089(3)
H28 H 0.1044 0.1914 0.3746
N1_2 N 0.4636(4) 0.20781(19) 0.9993(2)
O1_2 O 0.3768(3) 0.30789(16) 0.8542(2)
O2_2 O 0.3067(3) 0.32118(16) 0.9370(2)
O3_2 O 0.3455(3) 0.56846(16) 0.8417(2)
O7_2 O 0.2242(3) 0.20440(18) 0.8613(2)
O9_2 O 0.6986(3) 0.70020(16) 0.8172(2)
C1_2 C 0.6172(4) 0.6826(2) 0.7576(3)
C2_2 C 0.5466(4) 0.6509(2) 0.7795(3)
C3_2 C 0.5773(4) 0.6335(2) 0.8615(3)
H1_2 H 0.6432 0.6413 0.9032
C4_2 C 0.5124(5) 0.6051(2) 0.8814(3)
H2_2 H 0.5342 0.5932 0.9365
C5_2 C 0.4143(4) 0.5940(2) 0.8203(3)
C6_2 C 0.3831(5) 0.6100(3) 0.7396(4)
H3_2 H 0.3177 0.6012 0.6979
C7_2 C 0.4481(4) 0.6390(2) 0.7198(3)
H4_2 H 0.4254 0.6510 0.6647
C8_2 C 0.3508(4) 0.5130(2) 0.8556(3)
C9_2 C 0.4010(5) 0.4773(3) 0.8270(3)
H5_2 H 0.4367 0.4909 0.7997
C10_2 C 0.3981(4) 0.4212(2) 0.8389(3)
H6_2 H 0.4322 0.3975 0.8198
C11_2 C 0.3456(4) 0.4005(2) 0.8786(3)
C12_2 C 0.2944(4) 0.4360(2) 0.9060(3)
H7_2 H 0.2576 0.4222 0.9323
C13_2 C 0.2976(4) 0.4919(3) 0.8947(3)
H8_2 H 0.2634 0.5155 0.9138
C14_2 C 0.3417(4) 0.3393(2) 0.8912(3)
C15_2 C 0.1424(4) 0.1908(2) 0.8015(3)
C16_2 C 0.0670(4) 0.1609(2) 0.8204(3)
C17_2 C 0.0911(4) 0.1494(3) 0.9028(3)
H9_2 H 0.1522 0.1624 0.9459
C18_2 C 0.0271(5) 0.1194(3) 0.9224(3)
H10_2 H 0.0456 0.1113 0.9784
H17_2 H 0.5154 0.1467 0.9605
C46_2 C 0.7928(8) 0.1908(5) 0.9628(6)
H31_2 H 0.7767 0.1849 0.9067
C47_2 C 0.7488(6) 0.2414(4) 0.9915(5)
C51_2 C 0.6459(8) 0.3163(4) 0.9528(7)
H34_2 H 0.5996 0.3394 0.9113
C52_2 C 0.6840(8) 0.2717(6) 0.9262(6)
H35_2 H 0.6664 0.2641 0.8703
O11 O 0.7561(5) 0.8223(2) 0.8784(3)
O12 O 0.8480(4) 0.81756(19) 0.8114(3)
C22_2 C 0.9063(5) 0.9870(3) 0.8365(4)
C23_2 C 0.8845(5) 0.9300(3) 0.8266(4)
H14_2 H 0.9146 0.9083 0.8014
C24_2 C 0.8214(5) 0.9063(3) 0.8527(3)
C25_2 C 0.7773(5) 0.9381(3) 0.8889(4)
H15_2 H 0.7359 0.9217 0.9088
C26_2 C 0.7921(5) 0.9943(3) 0.8970(4)
C28_2 C 0.8059(6) 0.8440(3) 0.8461(4)
C40 C 0.0112(5) 0.7065(3) 0.9865(3)
H26 H 0.0407 0.7101 0.9508
C41_2 C 0.8721(5) 0.7108(3) 0.0096(3)
C42_2 C 0.9271(5) 0.6947(3) 0.0911(3)
H28_2 H 0.8956 0.6914 0.1254
C60 C 0.9926(12) 0.4896(7) 0.1486(9)
H40 H 0.9391 0.4846 0.1617
H42 H 0.9644 0.4218 0.0687
C60_2 C 0.0074(12) 0.9896(7) 0.3514(9)
H40_2 H 0.0609 0.9846 0.3383
H42_2 H 0.0356 0.9218 0.4313
C29_2 C 0.5289(5) 0.1682(3) 0.0074(3)
C30_2 C 0.6167(5) 0.1568(3) 0.0822(4)
H18_2 H 0.6580 0.1273 0.0849
C31_2 C 0.6421(5) 0.1885(3) 0.1509(3)
C32_2 C 0.5732(6) 0.2281(3) 0.1452(4)
H19_2 H 0.5849 0.2490 0.1922
C33_2 C 0.4880(5) 0.2367(3) 0.0712(4)
H20_2 H 0.4433 0.2641 0.0694
C34_2 C 0.7440(5) 0.1853(3) 0.2294(3)
H21_2 H 0.7378 0.2005 0.2774
C35_2 C 0.8450(6) 0.2107(3) 0.2269(4)
H22_2 H 0.8635 0.2474 0.2519
C36_2 C 0.9092(5) 0.1661(3) 0.2841(4)
H23_2 H 0.9541 0.1496 0.2635
C37_2 C 0.8089(5) 0.1317(3) 0.2563(3)
H24_2 H 0.7965 0.1127 0.2042
C38_2 C 0.9697(5) 0.1833(3) 0.3772(3)
C39_2 C 0.9276(5) 0.1892(3) 0.4307(4)
H25_2 H 0.8586 0.1817 0.4119
C40_2 C 0.9888(5) 0.2065(3) 0.5135(3)
H26_2 H 0.9593 0.2101 0.5492
C43_2 C 0.8382(6) 0.2066(4) 0.1357(4)
C44_2 C 0.8726(7) 0.1662(4) 0.1062(5)
H29_2 H 0.9143 0.1407 0.1459
C45_2 C 0.8549(7) 0.1569(3) 0.0250(5)
H30_2 H 0.8858 0.1273 0.0129
C48_2 C 0.7793(5) 0.2426(3) 0.0757(4)
C49_2 C 0.7331(7) 0.2948(4) 0.1004(6)
H32_2 H 0.7475 0.3014 0.1559
C50_2 C 0.6721(6) 0.3289(4) 0.0373(5)
H33_2 H 0.6472 0.3608 0.0497
C53_2 C 0.7922(6) 0.0897(3) 0.3111(4)
C54_2 C 0.7113(7) 0.0952(4) 0.3289(5)
H36_2 H 0.6697 0.1262 0.3109
C55_2 C 0.8578(9) 0.0440(4) 0.3411(6)
C56_2 C 0.9422(9) 0.0357(5) 0.3215(6)
H37_2 H 0.9535 0.0615 0.2884
C57_2 C 0.8360(14) 0.0011(5) 0.3879(7)
C58_2 C 0.6913(10) 0.0524(5) 0.3761(6)
H38_2 H 0.6362 0.0572 0.3872
C59_2 C 0.7473(13) 0.0067(5) 0.4044(7)
H39_2 H 0.7311 0.9798 0.4330
C61_2 C 0.894(3) 0.9513(8) 0.4164(14)
H41_2 H 0.8747 0.9226 0.4403
C62_2 C 0.988(2) 0.9494(9) 0.4044(12)
O8_2 O 0.8690(3) 0.07347(16) 0.8817(2)
C19_2 C 0.9357(4) 0.1013(2) 0.8596(3)
C20_2 C 0.9078(4) 0.1139(2) 0.7764(3)
H11_2 H 0.8449 0.1026 0.7336
C21_2 C 0.9736(4) 0.1432(2) 0.7582(3)
H12_2 H 0.9550 0.1514 0.7023
H13_2 H 0.9515 0.0029 0.8201
H16_2 H 0.7584 0.0159 0.9192
C27_2 C 0.8580(4) 0.0174(2) 0.8712(3)
N2_2 N 0.0882(3) 0.28188(18) 0.0434(2)
H27_3 H 0.1975 0.2828 0.0107
Zn5 Zn 0.17923(5) 0.25890(3) 0.16600(3)
Zn1_2 Zn 0.35618(5) 0.26621(3) 0.38327(3)
N1_3 N 0.4636(4) 0.29219(19) 0.4993(2)
O1_3 O 0.3768(3) 0.19211(16) 0.3542(2)
O2_3 O 0.3067(3) 0.17882(16) 0.4370(2)
O6_2 O 0.1160(3) 0.30076(16) 0.2247(2)
O7_3 O 0.2242(3) 0.29560(18) 0.3613(2)
C9_3 C 0.4010(5) 0.0227(3) 0.3270(3)
H5_3 H 0.4367 0.0091 0.2997
C10_3 C 0.3981(4) 0.0788(2) 0.3389(3)
H6_3 H 0.4322 0.1025 0.3198
C11_3 C 0.3456(4) 0.0995(2) 0.3786(3)
C12_3 C 0.2944(4) 0.0640(2) 0.4060(3)
H7_3 H 0.2576 0.0778 0.4323
C13_3 C 0.2976(4) 0.0081(3) 0.3947(3)
C14_3 C 0.3417(4) 0.1607(2) 0.3912(3)
C15_3 C 0.1424(4) 0.3092(2) 0.3015(3)
C16_3 C 0.0670(4) 0.3391(2) 0.3204(3)
C17_3 C 0.0911(4) 0.3506(3) 0.4028(3)
H9_3 H 0.1522 0.3376 0.4459
C18_3 C 0.0271(5) 0.3806(3) 0.4224(3)
H10_3 H 0.0456 0.3887 0.4784
C29_3 C 0.5289(5) 0.3318(3) 0.5074(3)
H17_3 H 0.5154 0.3533 0.4605
C30_3 C 0.6167(5) 0.3432(3) 0.5822(4)
H18_3 H 0.6580 0.3727 0.5849
C31_3 C 0.6421(5) 0.3115(3) 0.6509(3)
C32_3 C 0.5732(6) 0.2719(3) 0.6452(4)
H19_3 H 0.5849 0.2510 0.6922
C33_3 C 0.4880(5) 0.2633(3) 0.5712(4)
H20_3 H 0.4433 0.2359 0.5694
C34_3 C 0.7440(5) 0.3147(3) 0.7294(3)
H21_3 H 0.7378 0.2995 0.7774
C35_3 C 0.8450(6) 0.2893(3) 0.7269(4)
H22_3 H 0.8635 0.2526 0.7519
C36_3 C 0.9092(5) 0.3339(3) 0.7841(4)
H23_3 H 0.9541 0.3504 0.7635
C37_3 C 0.8089(5) 0.3683(3) 0.7563(3)
H24_3 H 0.7965 0.3873 0.7042
C38_3 C 0.9697(5) 0.3167(3) 0.8772(3)
C39_3 C 0.9276(5) 0.3108(3) 0.9307(4)
H25_3 H 0.8586 0.3183 0.9119
C43_3 C 0.8382(6) 0.2934(4) 0.6357(4)
C44_3 C 0.8726(7) 0.3338(4) 0.6062(5)
H29_3 H 0.9143 0.3593 0.6459
C45_3 C 0.8549(7) 0.3431(3) 0.5250(5)
H30_3 H 0.8858 0.3727 0.5129
C46_3 C 0.7928(8) 0.3092(5) 0.4628(6)
H31_3 H 0.7767 0.3151 0.4067
C47_3 C 0.7488(6) 0.2586(4) 0.4915(5)
C48_3 C 0.7793(5) 0.2574(3) 0.5757(4)
C49_3 C 0.7331(7) 0.2052(4) 0.6004(6)
H32_3 H 0.7475 0.1986 0.6559
C50_3 C 0.6721(6) 0.1711(4) 0.5373(5)
H33_3 H 0.6472 0.1392 0.5497
C51_3 C 0.6459(8) 0.1837(4) 0.4528(7)
H34_3 H 0.5996 0.1606 0.4113
C52_3 C 0.6840(8) 0.2283(6) 0.4262(6)
H35_3 H 0.6664 0.2359 0.3703
C53_3 C 0.7922(6) 0.4103(3) 0.8111(4)
C54_3 C 0.7113(7) 0.4048(4) 0.8289(5)
H36_3 H 0.6697 0.3738 0.8109
C55_3 C 0.8578(9) 0.4560(4) 0.8411(6)
C56_3 C 0.9422(9) 0.4643(5) 0.8215(6)
H37_3 H 0.9535 0.4385 0.7884
C57_3 C 0.8360(14) 0.4989(5) 0.8879(7)
C58_3 C 0.6913(10) 0.4476(5) 0.8761(6)
H38_3 H 0.6362 0.4428 0.8872
C59_3 C 0.7473(13) 0.4933(5) 0.9044(7)
H39_3 H 0.7311 0.5202 0.9330
C61_3 C 0.894(3) 0.5487(8) 0.9164(14)
H41_3 H 0.8747 0.5774 0.9403
C62_3 C 0.988(2) 0.5506(9) 0.9044(12)
O14_2 O 0.4087(3) 0.31038(16) 0.3189(2)
Zn2 Zn 0.82077(5) 0.75890(3) 0.33400(3)
O3_3 O 0.3455(3) 0.93154(16) 0.3417(2)
O9_3 O 0.6986(3) 0.79980(16) 0.3172(2)
O10_2 O 0.5913(3) 0.81038(16) 0.1811(2)
C1_3 C 0.6172(4) 0.8174(2) 0.2576(3)
C2_3 C 0.5466(4) 0.8491(2) 0.2795(3)
C3_3 C 0.5773(4) 0.8665(2) 0.3615(3)
H1_3 H 0.6432 0.8587 0.4032
C4_3 C 0.5124(5) 0.8949(2) 0.3814(3)
H2_3 H 0.5342 0.9068 0.4365
C5_3 C 0.4143(4) 0.9060(2) 0.3203(3)
C6_3 C 0.3831(5) 0.8900(3) 0.2396(4)
H3_3 H 0.3177 0.8988 0.1979
C7_3 C 0.4481(4) 0.8610(2) 0.2198(3)
H4_3 H 0.4254 0.8490 0.1647
C8_3 C 0.3508(4) 0.9870(2) 0.3556(3)
H8_3 H 0.2634 0.9845 0.4138
Zn3_2 Zn 0.64382(5) 0.76621(3) 0.11673(3)
N3_2 N 0.9118(3) 0.78188(18) 0.4566(2)
O11_2 O 0.7561(5) 0.6777(2) 0.3784(3)
O12_2 O 0.8480(4) 0.68244(19) 0.3114(3)
O13_2 O 0.8840(3) 0.80076(16) 0.2753(2)
O8_3 O 0.8690(3) 0.42653(16) 0.3817(2)
C19_3 C 0.9357(4) 0.3987(2) 0.3596(3)
C20_3 C 0.9078(4) 0.3861(2) 0.2764(3)
H11_3 H 0.8449 0.3974 0.2336
C21_3 C 0.9736(4) 0.3568(2) 0.2582(3)
H12_3 H 0.9550 0.3486 0.2023
C22_3 C 0.9063(5) 0.5130(3) 0.3365(4)
H13_3 H 0.9515 0.4971 0.3201
C23_3 C 0.8845(5) 0.5700(3) 0.3266(4)
H14_3 H 0.9146 0.5917 0.3014
C24_3 C 0.8214(5) 0.5937(3) 0.3527(3)
C25_3 C 0.7773(5) 0.5619(3) 0.3889(4)
H15_3 H 0.7359 0.5783 0.4088
C26_3 C 0.7921(5) 0.5057(3) 0.3970(4)
H16_3 H 0.7584 0.4841 0.4192
C27_3 C 0.8580(4) 0.4826(2) 0.3712(3)
C28_3 C 0.8059(6) 0.6560(3) 0.3461(4)
O4_2 O 0.2439(5) 0.1777(2) 0.1216(3)
O5_2 O 0.1520(4) 0.18244(19) 0.1886(3)
C22_4 C 0.0937(5) 0.0130(3) 0.1635(4)
C23_4 C 0.1155(5) 0.0700(3) 0.1734(4)
H14_4 H 0.0854 0.0917 0.1986
C24_4 C 0.1786(5) 0.0937(3) 0.1473(3)
C25_4 C 0.2227(5) 0.0619(3) 0.1111(4)
H15_4 H 0.2641 0.0783 0.0912
C26_4 C 0.2079(5) 0.0057(3) 0.1030(4)
C28_4 C 0.1941(6) 0.1560(3) 0.1539(4)
N1_4 N 0.5364(4) 0.79219(19) 0.0007(2)
O1_4 O 0.6232(3) 0.69211(16) 0.1458(2)
O2_4 O 0.6933(3) 0.67882(16) 0.0630(2)
O3_4 O 0.6545(3) 0.43154(16) 0.1583(2)
O7_4 O 0.7758(3) 0.79560(18) 0.1387(2)
O9_4 O 0.3014(3) 0.29980(16) 0.1828(2)
C1_4 C 0.3828(4) 0.3174(2) 0.2424(3)
C2_4 C 0.4534(4) 0.3491(2) 0.2205(3)
C3_4 C 0.4227(4) 0.3665(2) 0.1385(3)
H1_4 H 0.3568 0.3587 0.0968
C4_4 C 0.4876(5) 0.3949(2) 0.1186(3)
H2_4 H 0.4658 0.4068 0.0635
C5_4 C 0.5857(4) 0.4060(2) 0.1797(3)
C6_4 C 0.6169(5) 0.3900(3) 0.2604(4)
H3_4 H 0.6823 0.3988 0.3021
C7_4 C 0.5519(4) 0.3610(2) 0.2802(3)
H4_4 H 0.5746 0.3490 0.3353
C8_4 C 0.6492(4) 0.4870(2) 0.1444(3)
C9_4 C 0.5990(5) 0.5227(3) 0.1730(3)
H5_4 H 0.5633 0.5091 0.2003
C10_4 C 0.6019(4) 0.5788(2) 0.1611(3)
H6_4 H 0.5678 0.6025 0.1802
C11_4 C 0.6544(4) 0.5995(2) 0.1214(3)
C12_4 C 0.7056(4) 0.5640(2) 0.0940(3)
H7_4 H 0.7424 0.5778 0.0677
C13_4 C 0.7024(4) 0.5081(3) 0.1053(3)
H8_4 H 0.7366 0.4845 0.0862
C14_4 C 0.6583(4) 0.6607(2) 0.1088(3)
C15_4 C 0.8576(4) 0.8092(2) 0.1985(3)
C16_4 C 0.9330(4) 0.8391(2) 0.1796(3)
C17_4 C 0.9089(4) 0.8506(3) 0.0972(3)
H9_4 H 0.8478 0.8376 0.0541
C18_4 C 0.9729(5) 0.8806(3) 0.0776(3)
H10_4 H 0.9544 0.8887 0.0216
H17_4 H 0.4846 0.8533 0.0395
C46_4 C 0.2072(8) 0.8092(5) 0.0372(6)
H31_4 H 0.2233 0.8151 0.0933
C47_4 C 0.2512(6) 0.7586(4) 0.0085(5)
C51_4 C 0.3541(8) 0.6837(4) 0.0472(7)
H34_4 H 0.4004 0.6606 0.0887
C52_4 C 0.3160(8) 0.7283(6) 0.0738(6)
H35_4 H 0.3336 0.7359 0.1297
C41_3 C 0.8721(5) 0.7892(3) 0.5096(3)
H27_4 H 0.8025 0.7828 0.4893
C42_3 C 0.9271(5) 0.8053(3) 0.5911(3)
H28_3 H 0.8956 0.8086 0.6254
C41_4 C 0.1279(5) 0.2892(3) 0.9904(3)
C42_4 C 0.0729(5) 0.3053(3) 0.9089(3)
H28_4 H 0.1044 0.3086 0.8746
C60_3 C 0.0074(12) 0.5104(7) 0.8514(9)
H40_3 H 0.0609 0.5154 0.8383
H42_3 H 0.0356 0.5782 0.9313
C40_3 C 0.9888(5) 0.2935(3) 0.0135(3)
H26_3 H 0.9593 0.2899 0.0492
O8_4 O 0.1310(3) 0.92653(16) 0.1183(2)
C19_4 C 0.0643(4) 0.8987(2) 0.1404(3)
C20_4 C 0.0922(4) 0.8861(2) 0.2236(3)
H11_4 H 0.1551 0.8974 0.2664
C21_4 C 0.0264(4) 0.8568(2) 0.2418(3)
H12_4 H 0.0450 0.8486 0.2977
H13_4 H 0.0485 0.9971 0.1799
H16_4 H 0.2416 0.9841 0.0808
C27_4 C 0.1420(4) 0.9826(2) 0.1288(3)
H39_4 H 0.2689 0.0202 0.5670
C61_4 C 0.106(3) 0.0487(8) 0.5836(14)
H41_4 H 0.1253 0.0774 0.5597
C62_4 C 0.012(2) 0.0506(9) 0.5956(12)
C29_4 C 0.4711(5) 0.8318(3) 0.9926(3)
C30_4 C 0.3833(5) 0.8432(3) 0.9178(4)
H18_4 H 0.3420 0.8727 0.9151
C31_4 C 0.3579(5) 0.8115(3) 0.8491(3)
C32_4 C 0.4268(6) 0.7719(3) 0.8548(4)
H19_4 H 0.4151 0.7510 0.8078
C33_4 C 0.5120(5) 0.7633(3) 0.9288(4)
H20_4 H 0.5567 0.7359 0.9306
C34_4 C 0.2560(5) 0.8147(3) 0.7706(3)
H21_4 H 0.2622 0.7995 0.7226
C35_4 C 0.1550(6) 0.7893(3) 0.7731(4)
H22_4 H 0.1365 0.7526 0.7481
C36_4 C 0.0908(5) 0.8339(3) 0.7159(4)
H23_4 H 0.0459 0.8504 0.7365
C37_4 C 0.1911(5) 0.8683(3) 0.7437(3)
H24_4 H 0.2035 0.8873 0.7958
C38_4 C 0.0303(5) 0.8167(3) 0.6228(3)
C39_4 C 0.0724(5) 0.8108(3) 0.5693(4)
H25_4 H 0.1414 0.8183 0.5881
C40_4 C 0.0112(5) 0.7935(3) 0.4865(3)
H26_4 H 0.0407 0.7899 0.4508
C43_4 C 0.1618(6) 0.7934(4) 0.8643(4)
C44_4 C 0.1274(7) 0.8338(4) 0.8938(5)
H29_4 H 0.0857 0.8593 0.8541
C45_4 C 0.1451(7) 0.8431(3) 0.9750(5)
H30_4 H 0.1142 0.8727 0.9871
C48_4 C 0.2207(5) 0.7574(3) 0.9243(4)
C49_4 C 0.2669(7) 0.7052(4) 0.8996(6)
H32_4 H 0.2525 0.6986 0.8441
C50_4 C 0.3279(6) 0.6711(4) 0.9627(5)
H33_4 H 0.3528 0.6392 0.9503
C53_4 C 0.2078(6) 0.9103(3) 0.6889(4)
C54_4 C 0.2887(7) 0.9048(4) 0.6711(5)
H36_4 H 0.3303 0.8738 0.6891
C55_4 C 0.1422(9) 0.9560(4) 0.6589(6)
C56_4 C 0.0578(9) 0.9643(5) 0.6785(6)
H37_4 H 0.0465 0.9385 0.7116
C57_4 C 0.1640(14) 0.9989(5) 0.6121(7)
C58_4 C 0.3087(10) 0.9476(5) 0.6239(6)
H38_4 H 0.3638 0.9428 0.6128
C59_4 C 0.2527(13) 0.9933(5) 0.5956(7)
C60_4 C 0.9926(12) 0.0104(7) 0.6486(9)
H40_4 H 0.9391 0.0154 0.6617
H42_4 H 0.9644 0.0782 0.5687
loop_
_geom_bond_atom_site_label_1
_geom_bond_atom_site_label_2
_geom_bond_site_symmetry_1
_geom_bond_site_symmetry_2
O4 C28 1_555 1_555
O5 C28 1_555 1_555
O8 C19 1_555 1_555
C20 C19 1_555 1_555
H11 C20 1_555 1_555
H12 C21 1_555 1_555
C22 H13 1_555 1_555
C23 C22 1_555 1_555
H14 C23 1_555 1_555
C24 C23 1_555 1_555
C25 C24 1_555 1_555
H15 C25 1_555 1_555
C26 C25 1_555 1_555
H16 C26 1_555 1_555
C27 O8 1_555 1_555
C28 C24 1_555 1_555
Zn4 O4 1_555 1_555
O5 Zn4 1_555 1_555
C20 C21 1_555 1_555
C22 C27 1_555 1_555
C26 C27 1_555 1_555
Zn4 O9 1_555 1_555
O3 C5 1_555 1_555
O9 C1 1_555 1_555
O10 C1 1_555 1_555
C1 C2 1_555 1_555
C2 C3 1_555 1_555
C3 H1 1_555 1_555
C4 C3 1_555 1_555
H2 C4 1_555 1_555
C5 C4 1_555 1_555
C6 C5 1_555 1_555
H3 C6 1_555 1_555
C7 C2 1_555 1_555
H4 C7 1_555 1_555
C8 O3 1_555 1_555
Zn3 O10 1_555 1_555
N3 Zn4 1_555 1_555
O13 Zn4 1_555 1_555
C6 C7 1_555 1_555
Zn1 N1 1_555 1_555
N1 C29 1_555 1_555
O1 Zn1 1_555 1_555
O2 Zn1 1_555 1_555
O6 C15 1_555 1_555
O7 Zn1 1_555 1_555
H5 C9 1_555 1_555
C10 C9 1_555 1_555
H6 C10 1_555 1_555
C11 C10 1_555 1_555
C12 C11 1_555 1_555
H7 C12 1_555 1_555
C14 O1 1_555 1_555
C15 O7 1_555 1_555
C16 C15 1_555 1_555
C17 C16 1_555 1_555
H9 C17 1_555 1_555
C18 C17 1_555 1_555
H10 C18 1_555 1_555
C29 H17 1_555 1_555
C30 C29 1_555 1_555
H18 C30 1_555 1_555
C31 C30 1_555 1_555
C32 C31 1_555 1_555
H19 C32 1_555 1_555
C33 N1 1_555 1_555
H20 C33 1_555 1_555
C34 C31 1_555 1_555
H21 C34 1_555 1_555
C35 C34 1_555 1_555
H22 C35 1_555 1_555
C36 C35 1_555 1_555
H23 C36 1_555 1_555
C37 C34 1_555 1_555
H24 C37 1_555 1_555
C38 C36 1_555 1_555
C39 C38 1_555 1_555
H25 C39 1_555 1_555
C43 C35 1_555 1_555
C44 C43 1_555 1_555
H29 C44 1_555 1_555
C45 C44 1_555 1_555
H30 C45 1_555 1_555
C46 C45 1_555 1_555
H31 C46 1_555 1_555
C47 C46 1_555 1_555
C48 C43 1_555 1_555
C49 C48 1_555 1_555
H32 C49 1_555 1_555
C50 C49 1_555 1_555
H33 C50 1_555 1_555
C51 C50 1_555 1_555
H34 C51 1_555 1_555
C52 C47 1_555 1_555
H35 C52 1_555 1_555
C53 C37 1_555 1_555
C54 C53 1_555 1_555
H36 C54 1_555 1_555
C55 C53 1_555 1_555
C56 C55 1_555 1_555
H37 C56 1_555 1_555
C57 C55 1_555 1_555
C58 C54 1_555 1_555
H38 C58 1_555 1_555
C59 C57 1_555 1_555
H39 C59 1_555 1_555
C61 C57 1_555 1_555
H41 C61 1_555 1_555
Zn6 O6 1_555 1_555
O14 Zn1 1_555 1_555
O2 C14 1_555 1_555
C11 C14 1_555 1_555
C12 C13 1_555 1_555
C32 C33 1_555 1_555
C36 C37 1_555 1_555
C47 C48 1_555 1_555
C51 C52 1_555 1_555
C58 C59 1_555 1_555
C61 C62 1_555 1_555
Zn6 N2 1_555 1_555
C41 N3 1_555 1_555
H27_2 C41 1_555 1_555
H28 C42 1_555 1_555
C41 C42 1_555 1_555
Zn3 N1_2 1_555 1_555
Zn6 O9_2 1_555 1_555
O1_2 Zn3 1_555 1_555
O2_2 Zn3 1_555 1_555
O3_2 C5_2 1_555 1_555
O13 C15_2 1_555 1_555
O7_2 Zn3 1_555 1_555
O9_2 C1_2 1_555 1_555
O14 C1_2 1_555 1_555
C1_2 C2_2 1_555 1_555
C2_2 C3_2 1_555 1_555
C3_2 H1_2 1_555 1_555
C4_2 C3_2 1_555 1_555
H2_2 C4_2 1_555 1_555
C5_2 C4_2 1_555 1_555
C6_2 C5_2 1_555 1_555
H3_2 C6_2 1_555 1_555
C7_2 C2_2 1_555 1_555
H4_2 C7_2 1_555 1_555
C8_2 O3_2 1_555 1_555
C9_2 C8_2 1_555 1_555
H5_2 C9_2 1_555 1_555
C10_2 C9_2 1_555 1_555
H6_2 C10_2 1_555 1_555
C11_2 C10_2 1_555 1_555
C12_2 C11_2 1_555 1_555
H7_2 C12_2 1_555 1_555
C13_2 C8_2 1_555 1_555
H8_2 C13_2 1_555 1_555
C14_2 O1_2 1_555 1_555
C15_2 O7_2 1_555 1_555
C16_2 C15_2 1_555 1_555
C17_2 C16_2 1_555 1_555
H9_2 C17_2 1_555 1_555
C18_2 C17_2 1_555 1_555
H10_2 C18_2 1_555 1_555
H31_2 C46_2 1_555 1_555
C47_2 C46_2 1_555 1_555
H34_2 C51_2 1_555 1_555
C52_2 C47_2 1_555 1_555
H35_2 C52_2 1_555 1_555
O11 Zn6 1_555 1_555
O12 Zn6 1_555 1_555
O2_2 C14_2 1_555 1_555
C6_2 C7_2 1_555 1_555
C11_2 C14_2 1_555 1_555
C12_2 C13_2 1_555 1_555
C51_2 C52_2 1_555 1_555
O11 C28_2 1_555 1_555
O12 C28_2 1_555 1_555
C23_2 C22_2 1_555 1_555
H14_2 C23_2 1_555 1_555
C24_2 C23_2 1_555 1_555
C25_2 C24_2 1_555 1_555
H15_2 C25_2 1_555 1_555
C26_2 C25_2 1_555 1_555
C28_2 C24_2 1_555 1_555
H26 C40 1_555 1_555
H28_2 C42_2 1_555 1_555
H40 C60 1_555 1_555
C41_2 C42_2 1_555 1_555
H40_2 C60_2 1_555 1_555
C30_2 C29_2 1_555 1_555
H18_2 C30_2 1_555 1_555
C31_2 C30_2 1_555 1_555
C32_2 C31_2 1_555 1_555
H19_2 C32_2 1_555 1_555
H20_2 C33_2 1_555 1_555
C34_2 C31_2 1_555 1_555
H21_2 C34_2 1_555 1_555
C35_2 C34_2 1_555 1_555
H22_2 C35_2 1_555 1_555
C36_2 C35_2 1_555 1_555
H23_2 C36_2 1_555 1_555
C37_2 C34_2 1_555 1_555
H24_2 C37_2 1_555 1_555
C38_2 C36_2 1_555 1_555
C39_2 C38_2 1_555 1_555
H25_2 C39_2 1_555 1_555
C40_2 C39_2 1_555 1_555
H26_2 C40_2 1_555 1_555
C43_2 C35_2 1_555 1_555
C44_2 C43_2 1_555 1_555
H29_2 C44_2 1_555 1_555
C45_2 C44_2 1_555 1_555
H30_2 C45_2 1_555 1_555
C48_2 C43_2 1_555 1_555
C49_2 C48_2 1_555 1_555
H32_2 C49_2 1_555 1_555
C50_2 C49_2 1_555 1_555
H33_2 C50_2 1_555 1_555
C53_2 C37_2 1_555 1_555
C54_2 C53_2 1_555 1_555
H36_2 C54_2 1_555 1_555
C55_2 C53_2 1_555 1_555
C56_2 C55_2 1_555 1_555
H37_2 C56_2 1_555 1_555
C57_2 C55_2 1_555 1_555
C58_2 C54_2 1_555 1_555
H38_2 C58_2 1_555 1_555
C59_2 C57_2 1_555 1_555
C32_2 C33_2 1_555 1_555
C36_2 C37_2 1_555 1_555
C58_2 C59_2 1_555 1_555
H41_2 C61_2 1_555 1_555
C61_2 C62_2 1_555 1_555
O8_2 C19_2 1_555 1_555
C20_2 C19_2 1_555 1_555
H11_2 C20_2 1_555 1_555
H12_2 C21_2 1_555 1_555
C27_2 O8_2 1_555 1_555
C20_2 C21_2 1_555 1_555
Zn5 N2_2 1_555 1_555
Zn1_2 N1_3 1_555 1_555
N1_3 C29_3 1_555 1_555
O1_3 Zn1_2 1_555 1_555
O2_3 Zn1_2 1_555 1_555
O6_2 C15_3 1_555 1_555
O7_3 Zn1_2 1_555 1_555
H5_3 C9_3 1_555 1_555
C10_3 C9_3 1_555 1_555
H6_3 C10_3 1_555 1_555
C11_3 C10_3 1_555 1_555
C12_3 C11_3 1_555 1_555
H7_3 C12_3 1_555 1_555
C14_3 O1_3 1_555 1_555
C15_3 O7_3 1_555 1_555
C16_3 C15_3 1_555 1_555
C17_3 C16_3 1_555 1_555
H9_3 C17_3 1_555 1_555
C18_3 C17_3 1_555 1_555
H10_3 C18_3 1_555 1_555
C29_3 H17_3 1_555 1_555
C30_3 C29_3 1_555 1_555
H18_3 C30_3 1_555 1_555
C31_3 C30_3 1_555 1_555
C32_3 C31_3 1_555 1_555
H19_3 C32_3 1_555 1_555
C33_3 N1_3 1_555 1_555
H20_3 C33_3 1_555 1_555
C34_3 C31_3 1_555 1_555
H21_3 C34_3 1_555 1_555
C35_3 C34_3 1_555 1_555
H22_3 C35_3 1_555 1_555
C36_3 C35_3 1_555 1_555
H23_3 C36_3 1_555 1_555
C37_3 C34_3 1_555 1_555
H24_3 C37_3 1_555 1_555
C38_3 C36_3 1_555 1_555
C39_3 C38_3 1_555 1_555
H25_3 C39_3 1_555 1_555
C43_3 C35_3 1_555 1_555
C44_3 C43_3 1_555 1_555
H29_3 C44_3 1_555 1_555
C45_3 C44_3 1_555 1_555
H30_3 C45_3 1_555 1_555
C46_3 C45_3 1_555 1_555
H31_3 C46_3 1_555 1_555
C47_3 C46_3 1_555 1_555
C48_3 C43_3 1_555 1_555
C49_3 C48_3 1_555 1_555
H32_3 C49_3 1_555 1_555
C50_3 C49_3 1_555 1_555
H33_3 C50_3 1_555 1_555
C51_3 C50_3 1_555 1_555
H34_3 C51_3 1_555 1_555
C52_3 C47_3 1_555 1_555
H35_3 C52_3 1_555 1_555
C53_3 C37_3 1_555 1_555
C54_3 C53_3 1_555 1_555
H36_3 C54_3 1_555 1_555
C55_3 C53_3 1_555 1_555
C56_3 C55_3 1_555 1_555
H37_3 C56_3 1_555 1_555
C57_3 C55_3 1_555 1_555
C58_3 C54_3 1_555 1_555
H38_3 C58_3 1_555 1_555
C59_3 C57_3 1_555 1_555
H39_3 C59_3 1_555 1_555
C61_3 C57_3 1_555 1_555
H41_3 C61_3 1_555 1_555
Zn5 O6_2 1_555 1_555
O14_2 Zn1_2 1_555 1_555
O2_3 C14_3 1_555 1_555
C11_3 C14_3 1_555 1_555
C12_3 C13_3 1_555 1_555
C32_3 C33_3 1_555 1_555
C36_3 C37_3 1_555 1_555
C47_3 C48_3 1_555 1_555
C51_3 C52_3 1_555 1_555
C58_3 C59_3 1_555 1_555
C61_3 C62_3 1_555 1_555
Zn2 O9_3 1_555 1_555
O3_3 C5_3 1_555 1_555
O9_3 C1_3 1_555 1_555
O10_2 C1_3 1_555 1_555
C1_3 C2_3 1_555 1_555
C2_3 C3_3 1_555 1_555
C3_3 H1_3 1_555 1_555
C4_3 C3_3 1_555 1_555
H2_3 C4_3 1_555 1_555
C5_3 C4_3 1_555 1_555
C6_3 C5_3 1_555 1_555
H3_3 C6_3 1_555 1_555
C7_3 C2_3 1_555 1_555
H4_3 C7_3 1_555 1_555
C8_3 O3_3 1_555 1_555
Zn3_2 O10_2 1_555 1_555
N3_2 Zn2 1_555 1_555
O11_2 Zn2 1_555 1_555
O12_2 Zn2 1_555 1_555
O13_2 Zn2 1_555 1_555
C6_3 C7_3 1_555 1_555
O11_2 C28_3 1_555 1_555
O12_2 C28_3 1_555 1_555
O8_3 C19_3 1_555 1_555
C20_3 C19_3 1_555 1_555
H11_3 C20_3 1_555 1_555
H12_3 C21_3 1_555 1_555
C22_3 H13_3 1_555 1_555
C23_3 C22_3 1_555 1_555
H14_3 C23_3 1_555 1_555
C24_3 C23_3 1_555 1_555
C25_3 C24_3 1_555 1_555
H15_3 C25_3 1_555 1_555
C26_3 C25_3 1_555 1_555
H16_3 C26_3 1_555 1_555
C27_3 O8_3 1_555 1_555
C28_3 C24_3 1_555 1_555
C20_3 C21_3 1_555 1_555
C22_3 C27_3 1_555 1_555
C26_3 C27_3 1_555 1_555
O4_2 C28_4 1_555 1_555
O5_2 C28_4 1_555 1_555
C23_4 C22_4 1_555 1_555
H14_4 C23_4 1_555 1_555
C24_4 C23_4 1_555 1_555
C25_4 C24_4 1_555 1_555
H15_4 C25_4 1_555 1_555
C26_4 C25_4 1_555 1_555
C28_4 C24_4 1_555 1_555
Zn5 O4_2 1_555 1_555
O5_2 Zn5 1_555 1_555
Zn3_2 N1_4 1_555 1_555
Zn5 O9_4 1_555 1_555
O1_4 Zn3_2 1_555 1_555
O2_4 Zn3_2 1_555 1_555
O3_4 C5_4 1_555 1_555
O13_2 C15_4 1_555 1_555
O7_4 Zn3_2 1_555 1_555
O9_4 C1_4 1_555 1_555
O14_2 C1_4 1_555 1_555
C1_4 C2_4 1_555 1_555
C2_4 C3_4 1_555 1_555
C3_4 H1_4 1_555 1_555
C4_4 C3_4 1_555 1_555
H2_4 C4_4 1_555 1_555
C5_4 C4_4 1_555 1_555
C6_4 C5_4 1_555 1_555
H3_4 C6_4 1_555 1_555
C7_4 C2_4 1_555 1_555
H4_4 C7_4 1_555 1_555
C8_4 O3_4 1_555 1_555
C9_4 C8_4 1_555 1_555
H5_4 C9_4 1_555 1_555
C10_4 C9_4 1_555 1_555
H6_4 C10_4 1_555 1_555
C11_4 C10_4 1_555 1_555
C12_4 C11_4 1_555 1_555
H7_4 C12_4 1_555 1_555
C13_4 C8_4 1_555 1_555
H8_4 C13_4 1_555 1_555
C14_4 O1_4 1_555 1_555
C15_4 O7_4 1_555 1_555
C16_4 C15_4 1_555 1_555
C17_4 C16_4 1_555 1_555
H9_4 C17_4 1_555 1_555
C18_4 C17_4 1_555 1_555
H10_4 C18_4 1_555 1_555
H31_4 C46_4 1_555 1_555
C47_4 C46_4 1_555 1_555
H34_4 C51_4 1_555 1_555
C52_4 C47_4 1_555 1_555
H35_4 C52_4 1_555 1_555
O2_4 C14_4 1_555 1_555
C6_4 C7_4 1_555 1_555
C11_4 C14_4 1_555 1_555
C12_4 C13_4 1_555 1_555
C51_4 C52_4 1_555 1_555
C41_3 N3_2 1_555 1_555
H27_4 C41_3 1_555 1_555
H28_3 C42_3 1_555 1_555
C41_3 C42_3 1_555 1_555
H28_4 C42_4 1_555 1_555
H40_3 C60_3 1_555 1_555
C41_4 C42_4 1_555 1_555
H26_3 C40_3 1_555 1_555
O8_4 C19_4 1_555 1_555
C20_4 C19_4 1_555 1_555
H11_4 C20_4 1_555 1_555
H12_4 C21_4 1_555 1_555
C27_4 O8_4 1_555 1_555
C20_4 C21_4 1_555 1_555
H41_4 C61_4 1_555 1_555
C61_4 C62_4 1_555 1_555
C30_4 C29_4 1_555 1_555
H18_4 C30_4 1_555 1_555
C31_4 C30_4 1_555 1_555
C32_4 C31_4 1_555 1_555
H19_4 C32_4 1_555 1_555
H20_4 C33_4 1_555 1_555
C34_4 C31_4 1_555 1_555
H21_4 C34_4 1_555 1_555
C35_4 C34_4 1_555 1_555
H22_4 C35_4 1_555 1_555
C36_4 C35_4 1_555 1_555
H23_4 C36_4 1_555 1_555
C37_4 C34_4 1_555 1_555
H24_4 C37_4 1_555 1_555
C38_4 C36_4 1_555 1_555
C39_4 C38_4 1_555 1_555
H25_4 C39_4 1_555 1_555
C40_4 C39_4 1_555 1_555
H26_4 C40_4 1_555 1_555
C43_4 C35_4 1_555 1_555
C44_4 C43_4 1_555 1_555
H29_4 C44_4 1_555 1_555
C45_4 C44_4 1_555 1_555
H30_4 C45_4 1_555 1_555
C48_4 C43_4 1_555 1_555
C49_4 C48_4 1_555 1_555
H32_4 C49_4 1_555 1_555
C50_4 C49_4 1_555 1_555
H33_4 C50_4 1_555 1_555
C53_4 C37_4 1_555 1_555
C54_4 C53_4 1_555 1_555
H36_4 C54_4 1_555 1_555
C55_4 C53_4 1_555 1_555
C56_4 C55_4 1_555 1_555
H37_4 C56_4 1_555 1_555
C57_4 C55_4 1_555 1_555
C58_4 C54_4 1_555 1_555
H38_4 C58_4 1_555 1_555
C59_4 C57_4 1_555 1_555
C32_4 C33_4 1_555 1_555
C36_4 C37_4 1_555 1_555
C58_4 C59_4 1_555 1_555
H40_4 C60_4 1_555 1_555

#END
