
###############################################################################
#
# This file contains modified crystal structure data generated from the
# MOF subset of the Cambridge Structural Database (CSD) v543 
# hosted by the Cambridge Crystallographic Data Centre (CCDC).
#
# This work is licensed under the Creative Commons
# Attribution-NonCommercial-ShareAlike 4.0 International License.
# To view a copy of this license, visit
# http://creativecommons.org/licenses/by-nc-sa/4.0/
# or send a letter to
# Creative Commons, PO Box 1866, Mountain View, CA 94042, USA.
#
# CIF created using the CSD Python API on 29 September 2022
# The structure has been converted into the P1 space group
# The structure has a 3D framework
# The original CSD entry QUNXEE is in the orthorhombic crystal system
# The framework has been calculated to contain at least 10.0% void space
# The void calculation uses a probe of radius 1.32A, grid spacing 0.4
#
###############################################################################

data_QUNXEE
_chemical_formula_moiety         '(C108 H72 Cd8 Cl4 N36 O22)n'
_symmetry_cell_setting           triclinic
_symmetry_space_group_name_H-M   'P 1'
_symmetry_Int_Tables_number      1
_space_group_name_Hall           'P 1'
loop_
_symmetry_equiv_pos_site_id
_symmetry_equiv_pos_as_xyz
1 x,y,z
_cell_length_a                   25.786(5)
_cell_length_b                   21.045(4)
_cell_length_c                   7.4123(15)
_cell_angle_alpha                90
_cell_angle_beta                 90
_cell_angle_gamma                90
_cell_volume                     4022.41
loop_
_atom_site_label
_atom_site_type_symbol
_atom_site_fract_x
_atom_site_fract_y
_atom_site_fract_z
Cd2 Cd 0.48602(2) 0.2500 0.23166(7)
Cl1 Cl 0.41117(8) 0.2500 0.0087(3)
N5 N 0.7729(3) 0.2500 0.0473(12)
C10 C 0.8237(4) 0.2500 0.0479(14)
H7 H 0.8430 0.2500 0.1540
H9 H 0.6776 0.2500 0.0552
N8 N 0.5875(2) 0.0822(3) 0.1417(7)
N9 N 0.53262(17) 0.1641(2) 0.1272(6)
C19 C 0.5703(3) 0.1336(3) 0.2209(9)
H13 H 0.5828 0.1479 0.3314
N10 N 0.53262(17) 0.3359(2) 0.1272(6)
O7 O 0.43751(15) 0.18334(19) 0.4239(5)
O9 O 0.43751(15) 0.31666(19) 0.4239(5)
O11 O 0.5473(2) 0.2500 0.4514(7)
Cd1 Cd 0.43286(2) 0.2500 0.67260(7)
N4 N 0.7620(3) 0.2500 0.8678(10)
N6 N 0.8457(3) 0.2500 0.8858(10)
O2 O 0.43660(19) 0.1218(2) 0.6649(5)
O3 O 0.5186(2) 0.2500 0.7389(7)
C5 C 0.4401(3) 0.0119(3) 0.4378(8)
H4 H 0.4446 0.0053 0.5609
C6 C 0.4323(2) 0.0729(3) 0.3732(7)
C7 C 0.4236(2) 0.0813(3) 0.1889(8)
H5 H 0.4166 0.1218 0.1446
C8 C 0.4251(2) 0.0308(3) 0.0722(8)
C9 C 0.4357(2) 0.1290(3) 0.4975(8)
C11 C 0.8061(3) 0.2500 0.7789(12)
H8 H 0.8085 0.2500 0.6537
C12 C 0.6704(3) 0.2500 0.9323(12)
C13 C 0.6192(3) 0.2500 0.8685(10)
H10 H 0.5918 0.2500 0.9501
C14 C 0.6093(3) 0.2500 0.6869(11)
C15 C 0.6483(3) 0.2500 0.5635(13)
H11 H 0.6410 0.2500 0.4406
C16 C 0.6988(4) 0.2500 0.6236(13)
H12 H 0.7261 0.2500 0.5416
C17 C 0.7088(3) 0.2500 0.8095(12)
C18 C 0.5537(3) 0.2500 0.6198(11)
N7 N 0.55991(18) 0.0806(2) 0.9849(6)
C20 C 0.5276(2) 0.1292(3) 0.9807(7)
H14 H 0.5045 0.1376 0.8874
C21 C 0.5646(2) 0.0288(3) 0.8619(8)
C22 C 0.5587(3) 0.0391(3) 0.6780(8)
H15 H 0.5541 0.0801 0.6337
Cd4 Cd 0.93286(2) 0.2500 0.82740(7)
N11 N 0.3457(3) 0.2500 0.6142(10)
O10 O 0.43660(19) 0.3782(2) 0.6649(5)
N1 N 0.44009(18) 0.9194(2) 0.0151(6)
C2 C 0.4724(2) 0.8708(3) 0.0193(7)
H2 H 0.4955 0.8624 0.1126
C3 C 0.4354(2) 0.9712(3) 0.1381(8)
C4 C 0.4413(3) 0.9609(3) 0.3220(8)
H3 H 0.4459 0.9199 0.3663
O5 O 0.56249(15) 0.81666(19) 0.5761(5)
O6 O 0.56340(19) 0.8782(2) 0.3351(5)
C23 C 0.5599(3) 0.9881(3) 0.5622(8)
H16 H 0.5554 0.9947 0.4391
C24 C 0.5677(2) 0.9271(3) 0.6268(7)
C25 C 0.5764(2) 0.9187(3) 0.8111(8)
H17 H 0.5834 0.8782 0.8554
C26 C 0.5749(2) 0.9692(3) 0.9278(8)
C27 C 0.5643(2) 0.8710(3) 0.5025(8)
Cd3 Cd 0.56714(2) 0.7500 0.32740(7)
Cd7 Cd 0.51398(2) 0.7500 0.76834(7)
N2 N 0.4125(2) 0.9178(3) 0.8583(7)
N3 N 0.46738(17) 0.8359(2) 0.8728(6)
C1 C 0.4297(3) 0.8664(3) 0.7791(9)
H1 H 0.4172 0.8521 0.6686
N1_2 N 0.05991(18) 0.0806(2) 0.5151(6)
N2_2 N 0.0875(2) 0.0822(3) 0.3583(7)
N3_2 N 0.03262(17) 0.1641(2) 0.3728(6)
C1_2 C 0.0703(3) 0.1336(3) 0.2791(9)
H1_2 H 0.0828 0.1479 0.1686
C2_2 C 0.0276(2) 0.1292(3) 0.5193(7)
H2_2 H 0.0045 0.1376 0.6126
C3_2 C 0.0646(2) 0.0288(3) 0.6381(8)
C4_2 C 0.0587(3) 0.0391(3) 0.8220(8)
H3_2 H 0.0541 0.0801 0.8663
Cd1_2 Cd 0.06714(2) 0.7500 0.17260(7)
Cd2_2 Cd 0.01398(2) 0.7500 0.73166(7)
Cl1_2 Cl 0.08883(8) 0.7500 0.5087(3)
O2_2 O 0.06340(19) 0.8782(2) 0.1649(5)
H4_2 H 0.0554 0.9947 0.0609
N11_2 N 0.1543(3) 0.7500 0.1142(10)
O7_2 O 0.06249(15) 0.81666(19) 0.9239(5)
O9_2 O 0.06249(15) 0.68334(19) 0.9239(5)
O10_2 O 0.06340(19) 0.6218(2) 0.1649(5)
C5_2 C 0.0599(3) 0.9881(3) 0.9378(8)
C6_2 C 0.0677(2) 0.9271(3) 0.8732(7)
C7_2 C 0.0764(2) 0.9187(3) 0.6889(8)
H5_2 H 0.0834 0.8782 0.6446
C8_2 C 0.0749(2) 0.9692(3) 0.5722(8)
H6 H 0.0807 0.9631 0.4496
C9_2 C 0.0643(2) 0.8710(3) 0.9975(8)
O5_2 O 0.93751(15) 0.18334(19) 0.0761(5)
C23_2 C 0.9401(3) 0.0119(3) 0.0622(8)
C24_2 C 0.9323(2) 0.0729(3) 0.1268(7)
C25_2 C 0.9236(2) 0.0813(3) 0.3111(8)
H17_2 H 0.9166 0.1218 0.3554
C26_2 C 0.9251(2) 0.0308(3) 0.4278(8)
H18 H 0.9193 0.0369 0.5504
C27_2 C 0.9357(2) 0.1290(3) 0.0025(8)
Cd7_2 Cd 0.98602(2) 0.2500 0.26834(7)
O6_2 O 0.93660(19) 0.1218(2) 0.8351(5)
H16_2 H 0.9446 0.0053 0.9391
N4_2 N 0.7380(3) 0.7500 0.3678(10)
N5_2 N 0.7271(3) 0.7500 0.5473(12)
N6_2 N 0.6543(3) 0.7500 0.3858(10)
O3_2 O 0.9814(2) 0.7500 0.2389(7)
C10_2 C 0.6763(4) 0.7500 0.5479(14)
H7_2 H 0.6570 0.7500 0.6540
C11_2 C 0.6939(3) 0.7500 0.2789(12)
H8_2 H 0.6915 0.7500 0.1537
C12_2 C 0.8296(3) 0.7500 0.4323(12)
H9_2 H 0.8224 0.7500 0.5552
C13_2 C 0.8808(3) 0.7500 0.3685(10)
H10_2 H 0.9082 0.7500 0.4501
C14_2 C 0.8907(3) 0.7500 0.1869(11)
C15_2 C 0.8517(3) 0.7500 0.0635(13)
C16_2 C 0.8012(4) 0.7500 0.1236(13)
H12_2 H 0.7739 0.7500 0.0416
C17_2 C 0.7912(3) 0.7500 0.3095(12)
C18_2 C 0.9463(3) 0.7500 0.1198(11)
N7_2 N 0.94009(18) 0.9194(2) 0.4849(6)
N8_2 N 0.9125(2) 0.9178(3) 0.6417(7)
N9_2 N 0.96738(17) 0.8359(2) 0.6272(6)
C19_2 C 0.9297(3) 0.8664(3) 0.7209(9)
H13_2 H 0.9172 0.8521 0.8314
C20_2 C 0.9724(2) 0.8708(3) 0.4807(7)
H14_2 H 0.9955 0.8624 0.3874
C21_2 C 0.9354(2) 0.9712(3) 0.3619(8)
C22_2 C 0.9413(3) 0.9609(3) 0.1780(8)
H15_2 H 0.9459 0.9199 0.1337
N10_2 N 0.96738(17) 0.6641(2) 0.6272(6)
O11_2 O 0.9527(2) 0.7500 0.9514(7)
H11_2 H 0.8590 0.7500 0.9406
N2_3 N 0.5875(2) 0.4178(3) 0.1417(7)
C1_3 C 0.5703(3) 0.3664(3) 0.2209(9)
H1_3 H 0.5828 0.3521 0.3314
H6_2 H 0.5807 0.5369 0.0504
N1_3 N 0.55991(18) 0.4194(2) 0.9849(6)
N4_3 N 0.2380(3) 0.7500 0.1322(10)
O1 O 0.56249(15) 0.68334(19) 0.5761(5)
O2_3 O 0.56340(19) 0.6218(2) 0.3351(5)
O3_3 O 0.4814(2) 0.7500 0.2611(7)
O4 O 0.4527(2) 0.7500 0.5486(7)
C2_3 C 0.5276(2) 0.3708(3) 0.9807(7)
H2_3 H 0.5045 0.3624 0.8874
C3_3 C 0.5646(2) 0.4712(3) 0.8619(8)
C4_3 C 0.5587(3) 0.4609(3) 0.6780(8)
H3_3 H 0.5541 0.4199 0.6337
C5_3 C 0.5599(3) 0.5119(3) 0.5622(8)
H4_3 H 0.5554 0.5053 0.4391
C6_3 C 0.5677(2) 0.5729(3) 0.6268(7)
C7_3 C 0.5764(2) 0.5813(3) 0.8111(8)
H5_3 H 0.5834 0.6218 0.8554
C8_3 C 0.5749(2) 0.5308(3) 0.9278(8)
C9_3 C 0.5643(2) 0.6290(3) 0.5025(8)
C11_3 C 0.1939(3) 0.7500 0.2211(12)
H8_3 H 0.1915 0.7500 0.3463
C12_3 C 0.3296(3) 0.7500 0.0677(12)
C13_3 C 0.3808(3) 0.7500 0.1315(10)
H10_3 H 0.4082 0.7500 0.0499
C14_3 C 0.3907(3) 0.7500 0.3131(11)
C15_3 C 0.3517(3) 0.7500 0.4365(13)
H11_3 H 0.3590 0.7500 0.5594
C16_3 C 0.3012(4) 0.7500 0.3764(13)
H12_3 H 0.2739 0.7500 0.4584
C17_3 C 0.2912(3) 0.7500 0.1905(12)
C18_3 C 0.4463(3) 0.7500 0.3802(11)
N7_3 N 0.44009(18) 0.5806(2) 0.0151(6)
C20_3 C 0.4724(2) 0.6292(3) 0.0193(7)
H14_3 H 0.4955 0.6376 0.1126
C21_3 C 0.4354(2) 0.5288(3) 0.1381(8)
C22_3 C 0.4413(3) 0.5391(3) 0.3220(8)
H15_3 H 0.4459 0.5801 0.3663
C23_3 C 0.4401(3) 0.4881(3) 0.4378(8)
H16_3 H 0.4446 0.4947 0.5609
C24_3 C 0.4323(2) 0.4271(3) 0.3732(7)
C25_3 C 0.4236(2) 0.4187(3) 0.1889(8)
H17_3 H 0.4166 0.3782 0.1446
C26_3 C 0.4251(2) 0.4692(3) 0.0722(8)
C27_3 C 0.4357(2) 0.3710(3) 0.4975(8)
Cl1_3 Cl 0.58883(8) 0.7500 0.9913(3)
N5_3 N 0.2271(3) 0.7500 0.9527(12)
C10_3 C 0.1763(4) 0.7500 0.9521(14)
H7_3 H 0.1570 0.7500 0.8460
H9_3 H 0.3224 0.7500 0.9448
N8_3 N 0.4125(2) 0.5822(3) 0.8583(7)
N9_3 N 0.46738(17) 0.6641(2) 0.8728(6)
C19_3 C 0.4297(3) 0.6336(3) 0.7791(9)
H13_3 H 0.4172 0.6479 0.6686
H18_2 H 0.4193 0.4631 0.9496
O4_2 O 0.0473(2) 0.2500 0.0486(7)
H11_4 H 0.1410 0.2500 0.0594
H16_4 H 0.0554 0.5053 0.0609
N4_4 N 0.2620(3) 0.2500 0.6322(10)
N5_4 N 0.2729(3) 0.2500 0.4527(12)
O3_4 O 0.0186(2) 0.2500 0.7611(7)
C10_4 C 0.3237(4) 0.2500 0.4521(14)
H7_4 H 0.3430 0.2500 0.3460
C11_4 C 0.3061(3) 0.2500 0.7211(12)
H8_4 H 0.3085 0.2500 0.8463
C12_4 C 0.1704(3) 0.2500 0.5677(12)
H9_4 H 0.1776 0.2500 0.4448
C13_4 C 0.1192(3) 0.2500 0.6315(10)
H10_4 H 0.0918 0.2500 0.5499
C14_4 C 0.1093(3) 0.2500 0.8131(11)
C15_4 C 0.1483(3) 0.2500 0.9365(13)
C16_4 C 0.1988(4) 0.2500 0.8764(13)
H12_4 H 0.2261 0.2500 0.9584
C17_4 C 0.2088(3) 0.2500 0.6905(12)
C18_4 C 0.0537(3) 0.2500 0.8802(11)
N7_4 N 0.05991(18) 0.4194(2) 0.5151(6)
N8_4 N 0.0875(2) 0.4178(3) 0.3583(7)
N9_4 N 0.03262(17) 0.3359(2) 0.3728(6)
C19_4 C 0.0703(3) 0.3664(3) 0.2791(9)
H13_4 H 0.0828 0.3521 0.1686
C20_4 C 0.0276(2) 0.3708(3) 0.5193(7)
H14_4 H 0.0045 0.3624 0.6126
C21_4 C 0.0646(2) 0.4712(3) 0.6381(8)
C22_4 C 0.0587(3) 0.4609(3) 0.8220(8)
H15_4 H 0.0541 0.4199 0.8663
C23_4 C 0.0599(3) 0.5119(3) 0.9378(8)
C24_4 C 0.0677(2) 0.5729(3) 0.8732(7)
C25_4 C 0.0764(2) 0.5813(3) 0.6889(8)
H17_4 H 0.0834 0.6218 0.6446
C26_4 C 0.0749(2) 0.5308(3) 0.5722(8)
H18_3 H 0.0807 0.5369 0.4496
C27_4 C 0.0643(2) 0.6290(3) 0.9975(8)
N1_4 N 0.94009(18) 0.5806(2) 0.4849(6)
N2_4 N 0.9125(2) 0.5822(3) 0.6417(7)
O1_2 O 0.93751(15) 0.31666(19) 0.0761(5)
C1_4 C 0.9297(3) 0.6336(3) 0.7209(9)
H1_4 H 0.9172 0.6479 0.8314
C2_4 C 0.9724(2) 0.6292(3) 0.4807(7)
H2_4 H 0.9955 0.6376 0.3874
C3_4 C 0.9354(2) 0.5288(3) 0.3619(8)
C4_4 C 0.9413(3) 0.5391(3) 0.1780(8)
H3_4 H 0.9459 0.5801 0.1337
C5_4 C 0.9401(3) 0.4881(3) 0.0622(8)
C6_4 C 0.9323(2) 0.4271(3) 0.1268(7)
C7_4 C 0.9236(2) 0.4187(3) 0.3111(8)
H5_4 H 0.9166 0.3782 0.3554
C8_4 C 0.9251(2) 0.4692(3) 0.4278(8)
H6_3 H 0.9193 0.4631 0.5504
C9_4 C 0.9357(2) 0.3710(3) 0.0025(8)
Cl1_4 Cl 0.91117(8) 0.2500 0.4913(3)
O2_4 O 0.93660(19) 0.3782(2) 0.8351(5)
H4_4 H 0.9446 0.4947 0.9391
H6_4 H 0.4193 0.0369 0.9496
H18_4 H 0.5807 0.9631 0.0504
loop_
_geom_bond_atom_site_label_1
_geom_bond_atom_site_label_2
_geom_bond_site_symmetry_1
_geom_bond_site_symmetry_2
Cd2 Cl1 1_555 1_555
N5 C10 1_555 1_555
C10 H7 1_555 1_555
N8 C19 1_555 1_555
N9 Cd2 1_555 1_555
C19 N9 1_555 1_555
H13 C19 1_555 1_555
N10 Cd2 1_555 1_555
O7 Cd2 1_555 1_555
O9 Cd2 1_555 1_555
O11 Cd2 1_555 1_555
O7 Cd1 1_555 1_555
O2 Cd1 1_555 1_555
O3 Cd1 1_555 1_555
O11 C18 1_555 1_555
H4 C5 1_555 1_555
C6 C5 1_555 1_555
C7 C6 1_555 1_555
H5 C7 1_555 1_555
C9 O7 1_555 1_555
C11 N4 1_555 1_555
H8 C11 1_555 1_555
C13 C12 1_555 1_555
H10 C13 1_555 1_555
C14 C13 1_555 1_555
C15 C14 1_555 1_555
H11 C15 1_555 1_555
C16 C15 1_555 1_555
H12 C16 1_555 1_555
C17 N4 1_555 1_555
C18 O3 1_555 1_555
C20 N7 1_555 1_555
H14 C20 1_555 1_555
C21 N7 1_555 1_555
C22 C21 1_555 1_555
H15 C22 1_555 1_555
Cd4 N6 1_555 1_555
N11 Cd1 1_555 1_555
O9 Cd1 1_555 1_555
O10 Cd1 1_555 1_555
N6 C11 1_555 1_555
O2 C9 1_555 1_555
C6 C9 1_555 1_555
C7 C8 1_555 1_555
C12 C17 1_555 1_555
C14 C18 1_555 1_555
C16 C17 1_555 1_555
C2 N1 1_555 1_555
H2 C2 1_555 1_555
C3 N1 1_555 1_555
C4 C3 1_555 1_555
H3 C4 1_555 1_555
O5 C27 1_555 1_555
O6 C27 1_555 1_555
H16 C23 1_555 1_555
C24 C23 1_555 1_555
C25 C24 1_555 1_555
H17 C25 1_555 1_555
C27 C24 1_555 1_555
Cd3 O5 1_555 1_555
Cd7 O5 1_555 1_555
O6 Cd3 1_555 1_555
C25 C26 1_555 1_555
N2 C1 1_555 1_555
N3 C1 1_555 1_555
C1 H1 1_555 1_555
Cd7 N3 1_555 1_555
N1_2 N2_2 1_555 1_555
N2_2 C1_2 1_555 1_555
N3_2 C1_2 1_555 1_555
C1_2 H1_2 1_555 1_555
C2_2 N1_2 1_555 1_555
H2_2 C2_2 1_555 1_555
C3_2 N1_2 1_555 1_555
C4_2 C3_2 1_555 1_555
H3_2 C4_2 1_555 1_555
N3_2 C2_2 1_555 1_555
Cd1_2 Cl1_2 1_555 1_555
Cd2_2 Cl1_2 1_555 1_555
O2_2 Cd1_2 1_555 1_555
N11_2 Cd1_2 1_555 1_555
O7_2 Cd2_2 1_555 1_555
O9_2 Cd2_2 1_555 1_555
O10_2 Cd1_2 1_555 1_555
C6_2 C5_2 1_555 1_555
C7_2 C6_2 1_555 1_555
H5_2 C7_2 1_555 1_555
H6 C8_2 1_555 1_555
C9_2 O7_2 1_555 1_555
C6_2 C9_2 1_555 1_555
C7_2 C8_2 1_555 1_555
O5_2 C27_2 1_555 1_555
C24_2 C23_2 1_555 1_555
C25_2 C24_2 1_555 1_555
H17_2 C25_2 1_555 1_555
H18 C26_2 1_555 1_555
C27_2 C24_2 1_555 1_555
Cd7_2 O5_2 1_555 1_555
C25_2 C26_2 1_555 1_555
O6_2 Cd4 1_555 1_555
N4_2 N5_2 1_555 1_555
N5_2 C10_2 1_555 1_555
N6_2 C10_2 1_555 1_555
C10_2 H7_2 1_555 1_555
C11_2 N4_2 1_555 1_555
H8_2 C11_2 1_555 1_555
C12_2 H9_2 1_555 1_555
C13_2 C12_2 1_555 1_555
H10_2 C13_2 1_555 1_555
C14_2 C13_2 1_555 1_555
C15_2 C14_2 1_555 1_555
C16_2 C15_2 1_555 1_555
H12_2 C16_2 1_555 1_555
C17_2 N4_2 1_555 1_555
C18_2 O3_2 1_555 1_555
N7_2 N8_2 1_555 1_555
N8_2 C19_2 1_555 1_555
C19_2 N9_2 1_555 1_555
H13_2 C19_2 1_555 1_555
C20_2 N7_2 1_555 1_555
H14_2 C20_2 1_555 1_555
C21_2 N7_2 1_555 1_555
C22_2 C21_2 1_555 1_555
H15_2 C22_2 1_555 1_555
Cd3 N6_2 1_555 1_555
N6_2 C11_2 1_555 1_555
C12_2 C17_2 1_555 1_555
C14_2 C18_2 1_555 1_555
C16_2 C17_2 1_555 1_555
N9_2 C20_2 1_555 1_555
N2_3 C1_3 1_555 1_555
N10 C1_3 1_555 1_555
C1_3 H1_3 1_555 1_555
O1 Cd3 1_555 1_555
O2_3 Cd3 1_555 1_555
O3_3 Cd3 1_555 1_555
O4 C18_3 1_555 1_555
C2_3 N1_3 1_555 1_555
H2_3 C2_3 1_555 1_555
C3_3 N1_3 1_555 1_555
C4_3 C3_3 1_555 1_555
H3_3 C4_3 1_555 1_555
C5_3 C4_3 1_555 1_555
H4_3 C5_3 1_555 1_555
C6_3 C5_3 1_555 1_555
C7_3 C6_3 1_555 1_555
H5_3 C7_3 1_555 1_555
C8_3 C3_3 1_555 1_555
C9_3 O1 1_555 1_555
C11_3 N4_3 1_555 1_555
H8_3 C11_3 1_555 1_555
C13_3 C12_3 1_555 1_555
H10_3 C13_3 1_555 1_555
C14_3 C13_3 1_555 1_555
C15_3 C14_3 1_555 1_555
H11_3 C15_3 1_555 1_555
C16_3 C15_3 1_555 1_555
H12_3 C16_3 1_555 1_555
C17_3 N4_3 1_555 1_555
C18_3 O3_3 1_555 1_555
O9 C27_3 1_555 1_555
O10 C27_3 1_555 1_555
C20_3 N7_3 1_555 1_555
H14_3 C20_3 1_555 1_555
C21_3 N7_3 1_555 1_555
C22_3 C21_3 1_555 1_555
H15_3 C22_3 1_555 1_555
C23_3 C22_3 1_555 1_555
H16_3 C23_3 1_555 1_555
C24_3 C23_3 1_555 1_555
C25_3 C24_3 1_555 1_555
H17_3 C25_3 1_555 1_555
C26_3 C21_3 1_555 1_555
C27_3 C24_3 1_555 1_555
Cd7 O1 1_555 1_555
N11_2 C11_3 1_555 1_555
O2_3 C9_3 1_555 1_555
O4 Cd7 1_555 1_555
C6_3 C9_3 1_555 1_555
C7_3 C8_3 1_555 1_555
C12_3 C17_3 1_555 1_555
C14_3 C18_3 1_555 1_555
C16_3 C17_3 1_555 1_555
C25_3 C26_3 1_555 1_555
Cd7 Cl1_3 1_555 1_555
N5_3 C10_3 1_555 1_555
C10_3 H7_3 1_555 1_555
N8_3 C19_3 1_555 1_555
N9_3 Cd7 1_555 1_555
C19_3 N9_3 1_555 1_555
H13_3 C19_3 1_555 1_555
N4_4 N5_4 1_555 1_555
N5_4 C10_4 1_555 1_555
N11 C10_4 1_555 1_555
C10_4 H7_4 1_555 1_555
C11_4 N4_4 1_555 1_555
H8_4 C11_4 1_555 1_555
C12_4 H9_4 1_555 1_555
C13_4 C12_4 1_555 1_555
H10_4 C13_4 1_555 1_555
C14_4 C13_4 1_555 1_555
C15_4 C14_4 1_555 1_555
C16_4 C15_4 1_555 1_555
H12_4 C16_4 1_555 1_555
C17_4 N4_4 1_555 1_555
C18_4 O3_4 1_555 1_555
N7_4 N8_4 1_555 1_555
N8_4 C19_4 1_555 1_555
O9_2 C27_4 1_555 1_555
C19_4 N9_4 1_555 1_555
H13_4 C19_4 1_555 1_555
C20_4 N7_4 1_555 1_555
H14_4 C20_4 1_555 1_555
C21_4 N7_4 1_555 1_555
C22_4 C21_4 1_555 1_555
H15_4 C22_4 1_555 1_555
C23_4 C22_4 1_555 1_555
C24_4 C23_4 1_555 1_555
C25_4 C24_4 1_555 1_555
H17_4 C25_4 1_555 1_555
C26_4 C21_4 1_555 1_555
H18_3 C26_4 1_555 1_555
C27_4 C24_4 1_555 1_555
N11 C11_4 1_555 1_555
C12_4 C17_4 1_555 1_555
C14_4 C18_4 1_555 1_555
C16_4 C17_4 1_555 1_555
N9_4 C20_4 1_555 1_555
C25_4 C26_4 1_555 1_555
N1_4 N2_4 1_555 1_555
N2_4 C1_4 1_555 1_555
N10_2 C1_4 1_555 1_555
C1_4 H1_4 1_555 1_555
C2_4 N1_4 1_555 1_555
H2_4 C2_4 1_555 1_555
C3_4 N1_4 1_555 1_555
C4_4 C3_4 1_555 1_555
H3_4 C4_4 1_555 1_555
C5_4 C4_4 1_555 1_555
C6_4 C5_4 1_555 1_555
C7_4 C6_4 1_555 1_555
H5_4 C7_4 1_555 1_555
C8_4 C3_4 1_555 1_555
H6_3 C8_4 1_555 1_555
C9_4 O1_2 1_555 1_555
Cd7_2 O1_2 1_555 1_555
N10_2 C2_4 1_555 1_555
C6_4 C9_4 1_555 1_555
C7_4 C8_4 1_555 1_555
Cd4 Cl1_4 1_555 1_555
Cd7_2 Cl1_4 1_555 1_555
O2_4 Cd4 1_555 1_555

#END
