
###############################################################################
#
# This file contains modified crystal structure data generated from the
# MOF subset of the Cambridge Structural Database (CSD) v543 
# hosted by the Cambridge Crystallographic Data Centre (CCDC).
#
# This work is licensed under the Creative Commons
# Attribution-NonCommercial-ShareAlike 4.0 International License.
# To view a copy of this license, visit
# http://creativecommons.org/licenses/by-nc-sa/4.0/
# or send a letter to
# Creative Commons, PO Box 1866, Mountain View, CA 94042, USA.
#
# CIF created using the CSD Python API on 29 September 2022
# The structure has been converted into the P1 space group
# The structure has a 3D framework
# The original CSD entry QUPHIT is in the monoclinic crystal system
# The framework has been calculated to contain at least 10.0% void space
# The void calculation uses a probe of radius 1.32A, grid spacing 0.4
#
###############################################################################

data_QUPHIT
_chemical_formula_moiety         '(C82 H72 Co5 N8 O28)n'
_symmetry_cell_setting           triclinic
_symmetry_space_group_name_H-M   'P 1'
_symmetry_Int_Tables_number      1
_space_group_name_Hall           'P 1'
loop_
_symmetry_equiv_pos_site_id
_symmetry_equiv_pos_as_xyz
1 x,y,z
_cell_length_a                   10.3376(11)
_cell_length_b                   9.4092(10)
_cell_length_c                   24.353(3)
_cell_angle_alpha                90
_cell_angle_beta                 93.978(2)
_cell_angle_gamma                90
_cell_volume                     2363.07
loop_
_atom_site_label
_atom_site_type_symbol
_atom_site_fract_x
_atom_site_fract_y
_atom_site_fract_z
Co5 Co 0.0000 0.83649(7) 0.7500
C14 C 0.4560(3) 0.0453(4) 0.70052(14)
H9 H 0.4249 0.1057 0.6701
C15 C 0.5000 0.1355(5) 0.7500
C16 C 0.3856(4) 0.2274(4) 0.76477(14)
H10 H 0.3079 0.1701 0.7659
H11 H 0.4037 0.2712 0.8005
C17 C 0.2944(4) 0.4466(4) 0.73280(15)
C18 C 0.2166(4) 0.4558(4) 0.77670(17)
H12 H 0.2145 0.3831 0.8025
C19 C 0.1430(5) 0.5754(5) 0.78077(17)
H13 H 0.0905 0.5815 0.8102
C20 C 0.2188(4) 0.6741(4) 0.70451(18)
H14 H 0.2219 0.7498 0.6801
C21 C 0.2943(5) 0.5580(5) 0.69659(19)
H15 H 0.3455 0.5544 0.6667
N2 N 0.1410(3) 0.6840(3) 0.74554(13)
O8 O 0.3685(3) 0.3349(3) 0.72252(11)
C35 C 0.5440(3) 0.0453(4) 0.79948(14)
H27 H 0.5751 0.1057 0.8299
C36 C 0.6144(4) 0.2274(4) 0.73523(14)
H28 H 0.6921 0.1701 0.7341
H29 H 0.5963 0.2712 0.6995
C37 C 0.7056(4) 0.4466(4) 0.76720(15)
C38 C 0.7834(4) 0.4558(4) 0.72330(17)
H30 H 0.7855 0.3831 0.6975
C39 C 0.8570(5) 0.5754(5) 0.71923(17)
H31 H 0.9095 0.5815 0.6898
C40 C 0.7812(4) 0.6741(4) 0.79549(18)
H32 H 0.7781 0.7498 0.8199
C41 C 0.7057(5) 0.5580(5) 0.80341(19)
H33 H 0.6545 0.5544 0.8333
Co5_2 Co 1.0000 0.83649(7) 0.7500
Co6 Co 0.0000 0.16351(7) 0.2500
N5 N 0.8590(3) 0.6840(3) 0.75446(13)
O11 O 0.0540(3) 0.0607(3) 0.31751(13)
O13 O 0.0540(3) 0.9393(3) 0.81751(13)
O18 O 0.6315(3) 0.3349(3) 0.77748(11)
O3 O 0.9460(3) 0.9393(3) 0.68249(13)
Co6_2 Co 1.0000 0.16351(7) 0.2500
O11_2 O 0.9460(3) 0.0607(3) 0.18249(13)
N6 N 0.1410(3) 0.3160(3) 0.24554(13)
C14_2 C 0.5440(3) 0.9547(4) 0.29948(14)
H9_2 H 0.5751 0.8943 0.3299
C15_2 C 0.5000 0.8645(5) 0.2500
C16_2 C 0.6144(4) 0.7726(4) 0.23523(14)
H10_2 H 0.6921 0.8299 0.2341
H11_2 H 0.5963 0.7288 0.1995
C17_2 C 0.7056(4) 0.5534(4) 0.26720(15)
C18_2 C 0.7834(4) 0.5442(4) 0.22330(17)
H12_2 H 0.7855 0.6169 0.1975
C19_2 C 0.8570(5) 0.4246(5) 0.21923(17)
H13_2 H 0.9095 0.4185 0.1898
C20_2 C 0.7812(4) 0.3259(4) 0.29549(18)
H14_2 H 0.7781 0.2502 0.3199
C21_2 C 0.7057(5) 0.4420(5) 0.30341(19)
H15_2 H 0.6545 0.4456 0.3333
N2_2 N 0.8590(3) 0.3160(3) 0.25446(13)
O8_2 O 0.6315(3) 0.6651(3) 0.27748(11)
C35_2 C 0.4560(3) 0.9547(4) 0.20052(14)
H27_2 H 0.4249 0.8943 0.1701
C36_2 C 0.3856(4) 0.7726(4) 0.26477(14)
H28_2 H 0.3079 0.8299 0.2659
H29_2 H 0.4037 0.7288 0.3005
C37_2 C 0.2944(4) 0.5534(4) 0.23280(15)
C38_2 C 0.2166(4) 0.5442(4) 0.27670(17)
H30_2 H 0.2145 0.6169 0.3025
C39_2 C 0.1430(5) 0.4246(5) 0.28077(17)
H31_2 H 0.0905 0.4185 0.3102
C40_2 C 0.2188(4) 0.3259(4) 0.20451(18)
H32_2 H 0.2219 0.2502 0.1801
C41_2 C 0.2943(5) 0.4420(5) 0.19659(19)
H33_2 H 0.3455 0.4456 0.1667
O18_2 O 0.3685(3) 0.6651(3) 0.22252(11)
C4 C 0.0505(4) 0.3625(5) 0.5891(2)
C5 C 0.0852(4) 0.2474(5) 0.62139(18)
H2 H 0.1718 0.2337 0.6332
C8 C 0.0327(4) 0.0270(4) 0.67248(18)
O4 O 0.1431(4) 0.0152(4) 0.6915(2)
O5 O 0.1343(2) 0.4573(4) 0.57080(19)
H16 H 0.1719 0.4244 0.5382
Co3 Co 0.5000 0.5000 -0.0000
C1 C 0.6879(3) 0.3190(4) 0.56931(15)
C2 C 0.8284(3) 0.2901(4) 0.58766(14)
C3 C 0.9217(4) 0.3834(4) 0.57164(17)
H1 H 0.8980 0.4603 0.5491
C6 C 0.9927(3) 0.1514(4) 0.63658(15)
C7 C 0.8629(3) 0.1751(4) 0.62026(15)
H3 H 0.7996 0.1132 0.6314
C9 C 0.6270(4) 0.6816(6) 0.5934(2)
H4 H 0.6976 0.6247 0.5865
C10 C 0.6449(4) 0.7861(5) 0.6321(2)
H5 H 0.7265 0.8020 0.6495
C11 C 0.5414(3) 0.8670(4) 0.64510(15)
C12 C 0.4252(3) 0.8466(4) 0.61499(15)
H6 H 0.3536 0.9033 0.6206
C13 C 0.4182(3) 0.7397(4) 0.57625(15)
H7 H 0.3390 0.7256 0.5565
H8 H 0.3858 0.9830 0.7097
Co1 Co 0.5000 0.5000 0.5000
N1 N 0.5144(3) 0.6562(3) 0.56497(13)
O1 O 0.6034(3) 0.2572(5) 0.59419(17)
O2 O 0.6673(2) 0.4071(3) 0.53198(9)
O6 O 0.3915(2) 0.3558(3) 0.54841(12)
H17 H 0.4444 0.2766 0.5607
H18 H 0.3618 0.4051 0.5797
O7 O 0.5634(2) 0.9638(3) 0.68547(11)
C22 C 0.3121(3) 0.6810(4) 0.43069(15)
C23 C 0.1716(3) 0.7099(4) 0.41234(14)
C24 C 0.0783(4) 0.6166(4) 0.42836(17)
H19 H 0.1020 0.5397 0.4509
C27 C 0.0073(3) 0.8486(4) 0.36342(15)
C28 C 0.1371(3) 0.8249(4) 0.37974(15)
H21 H 0.2004 0.8868 0.3686
C30 C 0.3730(4) 0.6816(6) 0.9066(2)
H22 H 0.3024 0.6247 0.9135
C31 C 0.3551(4) 0.7861(5) 0.8679(2)
H23 H 0.2735 0.8020 0.8505
C32 C 0.4586(3) 0.8670(4) 0.85490(15)
C33 C 0.5748(3) 0.8466(4) 0.88501(15)
H24 H 0.6464 0.9033 0.8794
C34 C 0.5818(3) 0.7397(4) 0.92375(15)
H25 H 0.6610 0.7256 0.9435
H26 H 0.6142 0.9830 0.7903
Co3_2 Co 0.5000 0.5000 1.0000
N3 N 0.4856(3) 0.6562(3) 0.93503(13)
N4 N 0.4856(3) 0.3438(3) 0.43503(13)
O9 O 0.3966(3) 0.7428(5) 0.40581(17)
O10 O 0.3327(2) 0.5929(3) 0.46802(9)
O16 O 0.6085(2) 0.6442(3) 0.45159(12)
H35 H 0.5556 0.7234 0.4393
H36 H 0.6382 0.5949 0.4203
O17 O 0.4366(2) 0.9638(3) 0.81453(11)
C22_2 C 0.6879(3) 0.6810(4) 0.06931(15)
C23_2 C 0.8284(3) 0.7099(4) 0.08766(14)
C24_2 C 0.9217(4) 0.6166(4) 0.07164(17)
H19_2 H 0.8980 0.5397 0.0491
C27_2 C 0.9927(3) 0.8486(4) 0.13658(15)
C28_2 C 0.8629(3) 0.8249(4) 0.12026(15)
H21_2 H 0.7996 0.8868 0.1314
N4_2 N 0.5144(3) 0.3438(3) 0.06497(13)
O9_2 O 0.6034(3) 0.7428(5) 0.09419(17)
O10_2 O 0.6673(2) 0.5929(3) 0.03198(9)
O16_2 O 0.3915(2) 0.6442(3) 0.04841(12)
H35_2 H 0.4444 0.7234 0.0607
H36_2 H 0.3618 0.5949 0.0797
C1_2 C 0.3121(3) 0.3190(4) 0.93069(15)
C2_2 C 0.1716(3) 0.2901(4) 0.91234(14)
C3_2 C 0.0783(4) 0.3834(4) 0.92836(17)
H1_2 H 0.1020 0.4603 0.9509
C6_2 C 0.0073(3) 0.1514(4) 0.86342(15)
C7_2 C 0.1371(3) 0.1751(4) 0.87974(15)
H3_2 H 0.2004 0.1132 0.8686
O1_2 O 0.3966(3) 0.2572(5) 0.90581(17)
O2_2 O 0.3327(2) 0.4071(3) 0.96802(9)
O6_2 O 0.6085(2) 0.3558(3) 0.95159(12)
H17_2 H 0.5556 0.2766 0.9393
H18_2 H 0.6382 0.4051 0.9203
C9_2 C 0.3730(4) 0.3184(6) 0.4066(2)
H4_2 H 0.3024 0.3753 0.4135
C10_2 C 0.3551(4) 0.2139(5) 0.3679(2)
H5_2 H 0.2735 0.1980 0.3505
C11_2 C 0.4586(3) 0.1330(4) 0.35490(15)
C12_2 C 0.5748(3) 0.1534(4) 0.38501(15)
H6_2 H 0.6464 0.0967 0.3794
C13_2 C 0.5818(3) 0.2603(4) 0.42375(15)
H7_2 H 0.6610 0.2744 0.4435
H8_2 H 0.6142 0.0170 0.2903
O7_2 O 0.4366(2) 0.0362(3) 0.31453(11)
C30_2 C 0.6270(4) 0.3184(6) 0.0934(2)
H22_2 H 0.6976 0.3753 0.0865
C31_2 C 0.6449(4) 0.2139(5) 0.1321(2)
H23_2 H 0.7265 0.1980 0.1495
C32_2 C 0.5414(3) 0.1330(4) 0.14510(15)
C33_2 C 0.4252(3) 0.1534(4) 0.11499(15)
H24_2 H 0.3536 0.0967 0.1206
C34_2 C 0.4182(3) 0.2603(4) 0.07625(15)
H25_2 H 0.3390 0.2744 0.0565
H26_2 H 0.3858 0.0170 0.2097
O17_2 O 0.5634(2) 0.0362(3) 0.18547(11)
C25 C 0.9495(4) 0.6375(5) 0.4109(2)
C26 C 0.9148(4) 0.7526(5) 0.37861(18)
H20 H 0.8282 0.7663 0.3668
C29 C 0.9673(4) 0.9730(4) 0.32752(18)
O14 O 0.8569(4) 0.9848(4) 0.3085(2)
O15 O 0.8657(2) 0.5427(4) 0.42920(19)
H34 H 0.8281 0.5756 0.4618
C25_2 C 0.0505(4) 0.6375(5) 0.0891(2)
C26_2 C 0.0852(4) 0.7526(5) 0.12139(18)
H20_2 H 0.1718 0.7663 0.1332
C29_2 C 0.0327(4) 0.9730(4) 0.17248(18)
O14_2 O 0.1431(4) 0.9848(4) 0.1915(2)
O15_2 O 0.1343(2) 0.5427(4) 0.07080(19)
H34_2 H 0.1719 0.5756 0.0382
C4_2 C 0.9495(4) 0.3625(5) 0.9109(2)
C5_2 C 0.9148(4) 0.2474(5) 0.87861(18)
H2_2 H 0.8282 0.2337 0.8668
C8_2 C 0.9673(4) 0.0270(4) 0.82752(18)
O4_2 O 0.8569(4) 0.0152(4) 0.8085(2)
O5_2 O 0.8657(2) 0.4573(4) 0.92920(19)
H16_2 H 0.8281 0.4244 0.9618
loop_
_geom_bond_atom_site_label_1
_geom_bond_atom_site_label_2
_geom_bond_site_symmetry_1
_geom_bond_site_symmetry_2
H9 C14 1_555 1_555
C15 C14 1_555 1_555
C16 C15 1_555 1_555
H10 C16 1_555 1_555
H11 C16 1_555 1_555
C17 C18 1_555 1_555
C18 H12 1_555 1_555
C19 C18 1_555 1_555
H13 C19 1_555 1_555
C20 H14 1_555 1_555
C21 C17 1_555 1_555
H15 C21 1_555 1_555
Co5 N2 1_555 1_555
N2 C19 1_555 1_555
O8 C16 1_555 1_555
C35 C15 1_555 1_555
H27 C35 1_555 1_555
C36 C15 1_555 1_555
H28 C36 1_555 1_555
H29 C36 1_555 1_555
C37 C38 1_555 1_555
C38 H30 1_555 1_555
C39 C38 1_555 1_555
H31 C39 1_555 1_555
C40 H32 1_555 1_555
C41 C37 1_555 1_555
H33 C41 1_555 1_555
Co5_2 N5 1_555 1_555
Co6 O11 1_555 1_555
N5 C39 1_555 1_555
O13 Co5 1_555 1_555
O18 C36 1_555 1_555
C17 O8 1_555 1_555
C20 C21 1_555 1_555
C20 N2 1_555 1_555
C37 O18 1_555 1_555
C40 C41 1_555 1_555
C40 N5 1_555 1_555
Co5_2 O3 1_555 1_555
Co6_2 O11_2 1_555 1_555
N6 Co6 1_555 1_555
H9_2 C14_2 1_555 1_555
C15_2 C14_2 1_555 1_555
C16_2 C15_2 1_555 1_555
H10_2 C16_2 1_555 1_555
H11_2 C16_2 1_555 1_555
C17_2 C18_2 1_555 1_555
C18_2 H12_2 1_555 1_555
C19_2 C18_2 1_555 1_555
H13_2 C19_2 1_555 1_555
C20_2 H14_2 1_555 1_555
C21_2 C17_2 1_555 1_555
H15_2 C21_2 1_555 1_555
Co6_2 N2_2 1_555 1_555
N2_2 C19_2 1_555 1_555
O8_2 C16_2 1_555 1_555
C35_2 C15_2 1_555 1_555
H27_2 C35_2 1_555 1_555
C36_2 C15_2 1_555 1_555
H28_2 C36_2 1_555 1_555
H29_2 C36_2 1_555 1_555
C37_2 C38_2 1_555 1_555
C38_2 H30_2 1_555 1_555
C39_2 C38_2 1_555 1_555
H31_2 C39_2 1_555 1_555
C40_2 H32_2 1_555 1_555
C41_2 C37_2 1_555 1_555
H33_2 C41_2 1_555 1_555
N6 C39_2 1_555 1_555
O18_2 C36_2 1_555 1_555
C17_2 O8_2 1_555 1_555
C20_2 C21_2 1_555 1_555
C20_2 N2_2 1_555 1_555
C37_2 O18_2 1_555 1_555
C40_2 C41_2 1_555 1_555
C40_2 N6 1_555 1_555
C5 C4 1_555 1_555
H2 C5 1_555 1_555
O4 C8 1_555 1_555
O5 C4 1_555 1_555
H16 O5 1_555 1_555
C1 C2 1_555 1_555
C2 C3 1_555 1_555
C3 H1 1_555 1_555
C7 C2 1_555 1_555
H3 C7 1_555 1_555
C9 H4 1_555 1_555
C10 C9 1_555 1_555
H5 C10 1_555 1_555
C11 C10 1_555 1_555
C12 C11 1_555 1_555
H6 C12 1_555 1_555
C13 C12 1_555 1_555
H7 C13 1_555 1_555
Co1 N1 1_555 1_555
N1 C9 1_555 1_555
O1 C1 1_555 1_555
O2 C1 1_555 1_555
O6 Co1 1_555 1_555
H17 O6 1_555 1_555
H18 O6 1_555 1_555
O7 C11 1_555 1_555
C22 C23 1_555 1_555
C23 C24 1_555 1_555
C24 H19 1_555 1_555
C28 C23 1_555 1_555
H21 C28 1_555 1_555
C30 H22 1_555 1_555
C31 C30 1_555 1_555
H23 C31 1_555 1_555
C32 C31 1_555 1_555
C33 C32 1_555 1_555
H24 C33 1_555 1_555
C34 C33 1_555 1_555
H25 C34 1_555 1_555
Co3_2 N3 1_555 1_555
N3 C30 1_555 1_555
N4 Co1 1_555 1_555
O9 C22 1_555 1_555
O10 Co1 1_555 1_555
O16 Co1 1_555 1_555
H35 O16 1_555 1_555
H36 O16 1_555 1_555
O17 C32 1_555 1_555
C6 C7 1_555 1_555
C13 N1 1_555 1_555
Co1 O2 1_555 1_555
C22 O10 1_555 1_555
C27 C28 1_555 1_555
C34 N3 1_555 1_555
C22_2 C23_2 1_555 1_555
C23_2 C24_2 1_555 1_555
C24_2 H19_2 1_555 1_555
C28_2 C23_2 1_555 1_555
H21_2 C28_2 1_555 1_555
N4_2 Co3 1_555 1_555
O9_2 C22_2 1_555 1_555
O10_2 Co3 1_555 1_555
O16_2 Co3 1_555 1_555
H35_2 O16_2 1_555 1_555
H36_2 O16_2 1_555 1_555
C22_2 O10_2 1_555 1_555
C27_2 C28_2 1_555 1_555
C1_2 C2_2 1_555 1_555
C2_2 C3_2 1_555 1_555
C3_2 H1_2 1_555 1_555
C7_2 C2_2 1_555 1_555
H3_2 C7_2 1_555 1_555
O1_2 C1_2 1_555 1_555
O2_2 C1_2 1_555 1_555
O6_2 Co3_2 1_555 1_555
H17_2 O6_2 1_555 1_555
H18_2 O6_2 1_555 1_555
C6_2 C7_2 1_555 1_555
Co3_2 O2_2 1_555 1_555
C9_2 H4_2 1_555 1_555
C10_2 C9_2 1_555 1_555
H5_2 C10_2 1_555 1_555
C11_2 C10_2 1_555 1_555
C12_2 C11_2 1_555 1_555
H6_2 C12_2 1_555 1_555
C13_2 C12_2 1_555 1_555
H7_2 C13_2 1_555 1_555
N4 C9_2 1_555 1_555
O7_2 C11_2 1_555 1_555
C30_2 H22_2 1_555 1_555
C31_2 C30_2 1_555 1_555
H23_2 C31_2 1_555 1_555
C32_2 C31_2 1_555 1_555
C33_2 C32_2 1_555 1_555
H24_2 C33_2 1_555 1_555
C34_2 C33_2 1_555 1_555
H25_2 C34_2 1_555 1_555
N4_2 C30_2 1_555 1_555
O17_2 C32_2 1_555 1_555
C13_2 N4 1_555 1_555
C34_2 N4_2 1_555 1_555
C26 C25 1_555 1_555
H20 C26 1_555 1_555
O14 C29 1_555 1_555
O15 C25 1_555 1_555
H34 O15 1_555 1_555
C26_2 C25_2 1_555 1_555
H20_2 C26_2 1_555 1_555
O14_2 C29_2 1_555 1_555
O15_2 C25_2 1_555 1_555
H34_2 O15_2 1_555 1_555
C5_2 C4_2 1_555 1_555
H2_2 C5_2 1_555 1_555
O4_2 C8_2 1_555 1_555
O5_2 C4_2 1_555 1_555
H16_2 O5_2 1_555 1_555

#END
