
###############################################################################
#
# This file contains modified crystal structure data generated from the
# MOF subset of the Cambridge Structural Database (CSD) v543 
# hosted by the Cambridge Crystallographic Data Centre (CCDC).
#
# This work is licensed under the Creative Commons
# Attribution-NonCommercial-ShareAlike 4.0 International License.
# To view a copy of this license, visit
# http://creativecommons.org/licenses/by-nc-sa/4.0/
# or send a letter to
# Creative Commons, PO Box 1866, Mountain View, CA 94042, USA.
#
# CIF created using the CSD Python API on 29 September 2022
# The structure has been converted into the P1 space group
# The structure has a 3D framework
# The original CSD entry QUPHAL is in the orthorhombic crystal system
# The original CSD entry QUPHAL is in a Sohncke space group
# The framework has been calculated to contain at least 10.0% void space
# The void calculation uses a probe of radius 1.32A, grid spacing 0.4
#
###############################################################################

data_QUPHAL
_chemical_formula_moiety         '(C84 H64 Cd1 N8 O28)n'
_symmetry_cell_setting           triclinic
_symmetry_space_group_name_H-M   'P 1'
_symmetry_Int_Tables_number      1
_space_group_name_Hall           'P 1'
loop_
_symmetry_equiv_pos_site_id
_symmetry_equiv_pos_as_xyz
1 x,y,z
_cell_length_a                   15.1946(15)
_cell_length_b                   17.6866(17)
_cell_length_c                   9.0803(9)
_cell_angle_alpha                90
_cell_angle_beta                 90
_cell_angle_gamma                90
_cell_volume                     2440.25
loop_
_atom_site_label
_atom_site_type_symbol
_atom_site_fract_x
_atom_site_fract_y
_atom_site_fract_z
O13 O 0.1723(5) 0.0349(3) 0.7284(8)
H23 H 0.1294 0.0548 0.7674
N2 N 0.2308(4) 0.6783(3) 0.0534(7)
C19 C 0.1471(5) 0.6993(5) 0.0451(10)
H14 H 0.1274 0.7375 0.1072
Cd3 Cd 0.32563(3) 0.75396(2) 0.18335(4)
H17 H 0.1915 0.4207 0.9470
O9 O 0.2191(3) 0.7580(3) 0.3630(6)
O10 O 0.2809(3) 0.2580(3) 0.6370(6)
O11 O 0.2791(4) 0.8676(3) 0.3128(6)
O12 O 0.2209(4) 0.3676(3) 0.6872(6)
C28 C 0.2272(5) 0.8275(4) 0.3887(8)
Cd2 Cd 0.17437(3) 0.25396(2) 0.81665(4)
C29 C 0.0573(4) 0.8554(4) 0.6867(9)
C30 C 0.1756(5) 0.8618(3) 0.5079(7)
N6 N 0.2692(4) 0.1783(3) 0.9466(7)
C32 C 0.0804(5) 0.9246(4) 0.7378(10)
H24 H 0.0501 0.9454 0.8172
C34 C 0.1949(4) 0.9337(4) 0.5593(8)
H26 H 0.2400 0.9613 0.5156
C35 C 0.1486(5) 0.9648(4) 0.6731(9)
O15 O 0.0520(3) 0.1684(3) 0.8668(6)
O17 O 0.0572(3) 0.2349(3) 0.6697(6)
C38 C 0.1049(4) 0.8210(4) 0.5708(8)
H28 H 0.0902 0.7730 0.5370
Cd5 Cd 0.67437(3) 0.24604(2) 0.18335(4)
N4 N 0.7692(4) 0.3217(3) 0.0534(7)
C40 C 0.8529(5) 0.3007(5) 0.0451(10)
H30 H 0.8726 0.2625 0.1072
H1 H 0.8085 0.5793 0.9470
O2 O 0.7191(3) 0.7420(3) 0.6370(6)
O3 O 0.7791(4) 0.6324(3) 0.6872(6)
C7 C 0.7272(5) 0.6725(4) 0.6113(8)
Cd1 Cd 0.82563(3) 0.74604(2) 0.81665(4)
C8 C 0.5573(4) 0.6446(4) 0.3133(9)
C9 C 0.6756(5) 0.6382(3) 0.4921(7)
O4 O 0.6723(5) 0.4651(3) 0.2716(8)
H7 H 0.6294 0.4452 0.2326
C10 C 0.4770(5) 0.6843(4) 0.2552(8)
C11 C 0.5804(5) 0.5754(4) 0.2622(10)
H8 H 0.5501 0.5546 0.1828
C13 C 0.6949(4) 0.5663(4) 0.4407(8)
H10 H 0.7400 0.5387 0.4844
C14 C 0.6486(5) 0.5352(4) 0.3269(9)
O5 O 0.4480(3) 0.6684(3) 0.1332(6)
O6 O 0.4428(3) 0.7349(3) 0.3303(6)
C17 C 0.6049(4) 0.6790(4) 0.4292(8)
H12 H 0.5902 0.7270 0.4630
N5 N 0.7308(4) 0.8217(3) 0.9466(7)
C31 C 0.9770(5) 0.8157(4) 0.7448(8)
O14 O 0.9480(3) 0.8316(3) 0.8668(6)
O16 O 0.9428(3) 0.7651(3) 0.6697(6)
C7_2 C 0.2728(5) 0.3275(4) 0.6113(8)
C8_2 C 0.4427(4) 0.3554(4) 0.3133(9)
C9_2 C 0.3244(5) 0.3618(3) 0.4921(7)
O4_2 O 0.3277(5) 0.5349(3) 0.2716(8)
H7_2 H 0.3706 0.5548 0.2326
C10_2 C 0.5230(5) 0.3157(4) 0.2552(8)
C11_2 C 0.4196(5) 0.4246(4) 0.2622(10)
H8_2 H 0.4499 0.4454 0.1828
C13_2 C 0.3051(4) 0.4337(4) 0.4407(8)
H10_2 H 0.2600 0.4613 0.4844
C14_2 C 0.3514(5) 0.4648(4) 0.3269(9)
O5_2 O 0.5520(3) 0.3316(3) 0.1332(6)
O6_2 O 0.5572(3) 0.2651(3) 0.3303(6)
C17_2 C 0.3951(4) 0.3210(4) 0.4292(8)
H12_2 H 0.4098 0.2730 0.4630
C31_2 C 0.0230(5) 0.1843(4) 0.7448(8)
O9_2 O 0.7809(3) 0.2420(3) 0.3630(6)
O11_2 O 0.7209(4) 0.1324(3) 0.3128(6)
C28_2 C 0.7728(5) 0.1725(4) 0.3887(8)
C29_2 C 0.9427(4) 0.1446(4) 0.6867(9)
C30_2 C 0.8244(5) 0.1382(3) 0.5079(7)
C32_2 C 0.9196(5) 0.0754(4) 0.7378(10)
H24_2 H 0.9499 0.0546 0.8172
C34_2 C 0.8051(4) 0.0663(4) 0.5593(8)
H26_2 H 0.7600 0.0387 0.5156
C35_2 C 0.8514(5) 0.0352(4) 0.6731(9)
C38_2 C 0.8951(4) 0.1790(4) 0.5708(8)
H28_2 H 0.9098 0.2270 0.5370
O13_2 O 0.8277(5) 0.9651(3) 0.7284(8)
H23_2 H 0.8706 0.9452 0.7674
H1_2 H 0.6915 0.0793 0.0530
C19_2 C 0.3529(5) 0.1993(5) 0.9549(10)
H14_2 H 0.3726 0.2375 0.8928
H17_2 H 0.3085 0.9207 0.0530
C40_2 C 0.6471(5) 0.8007(5) 0.9549(10)
H30_2 H 0.6274 0.7625 0.8928
H6 H 0.0270 0.5894 0.4401
C12 C 0.2569(4) 0.6228(4) 0.9643(8)
H9 H 0.3153 0.6071 0.9693
C15 C 0.2033(4) 0.5880(4) 0.8670(8)
H11 H 0.2246 0.5497 0.8064
O7 O 0.0552(3) 0.5815(3) 0.7679(6)
C16 C 0.1158(4) 0.6104(4) 0.8588(7)
C18 C 0.0889(5) 0.6673(5) 0.9500(11)
H13 H 0.0309 0.6842 0.9471
C20 C 0.0795(4) 0.5197(3) 0.6772(7)
H15 H 0.0962 0.4767 0.7372
H16 H 0.1291 0.5335 0.6154
C21 C 0.0000 0.5000 0.5821(10)
N3 N 0.1486(4) 0.3241(3) 0.0210(6)
C22 C 0.1651(6) 0.3979(4) 0.0280(8)
C23 C 0.1124(6) 0.2936(4) 0.1425(9)
H18 H 0.1021 0.2417 0.1421
C24 C 0.0896(6) 0.3328(4) 0.2665(8)
H19 H 0.0644 0.3091 0.3475
C25 C 0.1459(5) 0.4413(4) 0.1451(8)
H20 H 0.1598 0.4926 0.1443
C26 C 0.1061(5) 0.4101(4) 0.2650(8)
O8 O 0.0849(3) 0.4574(3) 0.3783(5)
C27 C 0.0250(5) 0.4317(4) 0.4865(7)
H21 H 0.0522 0.3927 0.5465
N1 N 0.8514(4) 0.6759(3) 0.0210(6)
C1 C 0.8349(6) 0.6021(4) 0.0280(8)
C2 C 0.8876(6) 0.7064(4) 0.1425(9)
H2 H 0.8979 0.7583 0.1421
C3 C 0.9104(6) 0.6672(4) 0.2665(8)
H3 H 0.9356 0.6909 0.3475
C4 C 0.8541(5) 0.5587(4) 0.1451(8)
H4 H 0.8402 0.5074 0.1443
C5 C 0.8939(5) 0.5899(4) 0.2650(8)
O1 O 0.9151(3) 0.5426(3) 0.3783(5)
C6 C 0.9750(5) 0.5683(4) 0.4865(7)
H5 H 0.9478 0.6073 0.5465
C21_2 C 1.0000 0.5000 0.5821(10)
H22 H 0.9730 0.4106 0.4401
C33 C 0.7431(4) 0.3772(4) 0.9643(8)
H25 H 0.6847 0.3929 0.9693
C36 C 0.7967(4) 0.4120(4) 0.8670(8)
H27 H 0.7754 0.4503 0.8064
O18 O 0.9448(3) 0.4185(3) 0.7679(6)
C37 C 0.8842(4) 0.3896(4) 0.8588(7)
C39 C 0.9111(5) 0.3327(5) 0.9500(11)
H29 H 0.9691 0.3158 0.9471
C41 C 0.9205(4) 0.4803(3) 0.6772(7)
H31 H 0.9038 0.5233 0.7372
H32 H 0.8709 0.4665 0.6154
N1_2 N 0.6486(4) 0.1759(3) 0.9790(6)
C1_2 C 0.6651(6) 0.1021(4) 0.9720(8)
C2_2 C 0.6124(6) 0.2064(4) 0.8575(9)
H2_2 H 0.6021 0.2583 0.8579
C3_2 C 0.5896(6) 0.1672(4) 0.7335(8)
H3_2 H 0.5644 0.1909 0.6525
C4_2 C 0.6459(5) 0.0587(4) 0.8549(8)
H4_2 H 0.6598 0.0074 0.8557
C5_2 C 0.6061(5) 0.0899(4) 0.7350(8)
O1_2 O 0.5849(3) 0.0426(3) 0.6217(5)
C6_2 C 0.5250(5) 0.0683(4) 0.5135(7)
H5_2 H 0.5522 0.1073 0.4535
H6_2 H 0.4730 0.0894 0.5599
C12_2 C 0.2431(4) 0.1228(4) 0.0357(8)
H9_2 H 0.1847 0.1071 0.0307
C15_2 C 0.2967(4) 0.0880(4) 0.1330(8)
H11_2 H 0.2754 0.0497 0.1936
O7_2 O 0.4448(3) 0.0815(3) 0.2321(6)
C16_2 C 0.3842(4) 0.1104(4) 0.1412(7)
C18_2 C 0.4111(5) 0.1673(5) 0.0500(11)
H13_2 H 0.4691 0.1842 0.0529
C20_2 C 0.4205(4) 0.0197(3) 0.3228(7)
H16_2 H 0.3709 0.0335 0.3846
C21_3 C 0.5000 -0.0000 0.4179(10)
H31_2 H 0.5962 0.0233 0.2628
H15_2 H 0.4038 0.9767 0.2628
C21_4 C 0.5000 1.0000 0.4179(10)
N3_2 N 0.3514(4) 0.8241(3) 0.9790(6)
C22_2 C 0.3349(6) 0.8979(4) 0.9720(8)
C23_2 C 0.3876(6) 0.7936(4) 0.8575(9)
H18_2 H 0.3979 0.7417 0.8579
C24_2 C 0.4104(6) 0.8328(4) 0.7335(8)
H19_2 H 0.4356 0.8091 0.6525
C25_2 C 0.3541(5) 0.9413(4) 0.8549(8)
H20_2 H 0.3402 0.9926 0.8557
C26_2 C 0.3939(5) 0.9101(4) 0.7350(8)
O8_2 O 0.4151(3) 0.9574(3) 0.6217(5)
C27_2 C 0.4750(5) 0.9317(4) 0.5135(7)
H21_2 H 0.4478 0.8927 0.4535
H22_2 H 0.5270 0.9106 0.5599
C33_2 C 0.7569(4) 0.8772(4) 0.0357(8)
H25_2 H 0.8153 0.8929 0.0307
C36_2 C 0.7033(4) 0.9120(4) 0.1330(8)
H27_2 H 0.7246 0.9503 0.1936
O18_2 O 0.5552(3) 0.9185(3) 0.2321(6)
C37_2 C 0.6158(4) 0.8896(4) 0.1412(7)
C39_2 C 0.5889(5) 0.8327(5) 0.0500(11)
H29_2 H 0.5309 0.8158 0.0529
C41_2 C 0.5795(4) 0.9803(3) 0.3228(7)
H32_2 H 0.6291 0.9665 0.3846
loop_
_geom_bond_atom_site_label_1
_geom_bond_atom_site_label_2
_geom_bond_site_symmetry_1
_geom_bond_site_symmetry_2
O13 H23 1_555 1_555
C19 N2 1_555 1_555
H14 C19 1_555 1_555
Cd3 N2 1_555 1_555
O9 C28 1_555 1_555
O10 Cd2 1_555 1_555
O11 C28 1_555 1_555
O12 Cd2 1_555 1_555
C28 C30 1_555 1_555
Cd3 O9 1_555 1_555
C30 C34 1_555 1_555
N6 Cd2 1_555 1_555
C32 C29 1_555 1_555
H24 C32 1_555 1_555
C34 H26 1_555 1_555
O15 Cd2 1_555 1_555
O17 Cd2 1_555 1_555
C38 C29 1_555 1_555
H28 C38 1_555 1_555
O11 Cd3 1_555 1_555
C30 C38 1_555 1_555
C32 C35 1_555 1_555
C34 C35 1_555 1_555
Cd5 N4 1_555 1_555
C40 N4 1_555 1_555
H30 C40 1_555 1_555
O2 C7 1_555 1_555
O3 C7 1_555 1_555
C7 C9 1_555 1_555
C8 C10 1_555 1_555
C9 C13 1_555 1_555
O4 H7 1_555 1_555
C10 O5 1_555 1_555
C11 C8 1_555 1_555
H8 C11 1_555 1_555
C13 H10 1_555 1_555
C14 O4 1_555 1_555
O5 Cd3 1_555 1_555
O6 C10 1_555 1_555
C17 C8 1_555 1_555
H12 C17 1_555 1_555
Cd3 O6 1_555 1_555
N5 Cd1 1_555 1_555
C31 O14 1_555 1_555
O14 Cd1 1_555 1_555
O16 Cd1 1_555 1_555
O2 Cd1 1_555 1_555
O3 Cd1 1_555 1_555
C9 C17 1_555 1_555
C11 C14 1_555 1_555
C13 C14 1_555 1_555
C31 O16 1_555 1_555
O10 C7_2 1_555 1_555
O12 C7_2 1_555 1_555
C7_2 C9_2 1_555 1_555
C8_2 C10_2 1_555 1_555
C9_2 C13_2 1_555 1_555
O4_2 H7_2 1_555 1_555
C10_2 O5_2 1_555 1_555
C11_2 C8_2 1_555 1_555
H8_2 C11_2 1_555 1_555
C13_2 H10_2 1_555 1_555
C14_2 O4_2 1_555 1_555
O5_2 Cd5 1_555 1_555
O6_2 C10_2 1_555 1_555
C17_2 C8_2 1_555 1_555
H12_2 C17_2 1_555 1_555
Cd5 O6_2 1_555 1_555
C31_2 O15 1_555 1_555
C9_2 C17_2 1_555 1_555
C11_2 C14_2 1_555 1_555
C13_2 C14_2 1_555 1_555
C31_2 O17 1_555 1_555
O9_2 C28_2 1_555 1_555
O11_2 C28_2 1_555 1_555
C28_2 C30_2 1_555 1_555
Cd5 O9_2 1_555 1_555
C30_2 C34_2 1_555 1_555
C32_2 C29_2 1_555 1_555
H24_2 C32_2 1_555 1_555
C34_2 H26_2 1_555 1_555
C38_2 C29_2 1_555 1_555
H28_2 C38_2 1_555 1_555
O11_2 Cd5 1_555 1_555
C30_2 C38_2 1_555 1_555
C32_2 C35_2 1_555 1_555
C34_2 C35_2 1_555 1_555
O13_2 H23_2 1_555 1_555
C19_2 N6 1_555 1_555
H14_2 C19_2 1_555 1_555
C40_2 N5 1_555 1_555
H30_2 C40_2 1_555 1_555
C12 H9 1_555 1_555
C15 C12 1_555 1_555
H11 C15 1_555 1_555
O7 C16 1_555 1_555
C16 C15 1_555 1_555
C18 C16 1_555 1_555
H13 C18 1_555 1_555
C20 O7 1_555 1_555
H15 C20 1_555 1_555
H16 C20 1_555 1_555
N3 C22 1_555 1_555
C23 N3 1_555 1_555
H18 C23 1_555 1_555
C24 C23 1_555 1_555
H19 C24 1_555 1_555
C25 C22 1_555 1_555
H20 C25 1_555 1_555
C26 C24 1_555 1_555
O8 C26 1_555 1_555
C27 C21 1_555 1_555
H21 C27 1_555 1_555
C20 C21 1_555 1_555
C25 C26 1_555 1_555
O8 C27 1_555 1_555
N1 C1 1_555 1_555
C2 N1 1_555 1_555
H2 C2 1_555 1_555
C3 C2 1_555 1_555
H3 C3 1_555 1_555
C4 C1 1_555 1_555
H4 C4 1_555 1_555
C5 C3 1_555 1_555
O1 C5 1_555 1_555
C6 O1 1_555 1_555
H5 C6 1_555 1_555
C21_2 C6 1_555 1_555
C33 H25 1_555 1_555
C36 C33 1_555 1_555
H27 C36 1_555 1_555
O18 C37 1_555 1_555
C37 C36 1_555 1_555
C39 C37 1_555 1_555
H29 C39 1_555 1_555
C41 C21_2 1_555 1_555
H31 C41 1_555 1_555
H32 C41 1_555 1_555
C4 C5 1_555 1_555
O18 C41 1_555 1_555
N1_2 C1_2 1_555 1_555
C2_2 N1_2 1_555 1_555
H2_2 C2_2 1_555 1_555
C3_2 C2_2 1_555 1_555
H3_2 C3_2 1_555 1_555
C4_2 C1_2 1_555 1_555
H4_2 C4_2 1_555 1_555
C5_2 C3_2 1_555 1_555
O1_2 C5_2 1_555 1_555
C6_2 O1_2 1_555 1_555
H5_2 C6_2 1_555 1_555
H6_2 C6_2 1_555 1_555
C12_2 H9_2 1_555 1_555
C15_2 C12_2 1_555 1_555
H11_2 C15_2 1_555 1_555
O7_2 C16_2 1_555 1_555
C16_2 C15_2 1_555 1_555
C18_2 C16_2 1_555 1_555
H13_2 C18_2 1_555 1_555
C20_2 O7_2 1_555 1_555
H16_2 C20_2 1_555 1_555
C21_3 C6_2 1_555 1_555
C4_2 C5_2 1_555 1_555
C20_2 C21_3 1_555 1_555
N3_2 C22_2 1_555 1_555
C23_2 N3_2 1_555 1_555
H18_2 C23_2 1_555 1_555
C24_2 C23_2 1_555 1_555
H19_2 C24_2 1_555 1_555
C25_2 C22_2 1_555 1_555
H20_2 C25_2 1_555 1_555
C26_2 C24_2 1_555 1_555
O8_2 C26_2 1_555 1_555
C27_2 C21_4 1_555 1_555
H21_2 C27_2 1_555 1_555
H22_2 C27_2 1_555 1_555
C33_2 H25_2 1_555 1_555
C36_2 C33_2 1_555 1_555
H27_2 C36_2 1_555 1_555
O18_2 C37_2 1_555 1_555
C37_2 C36_2 1_555 1_555
C39_2 C37_2 1_555 1_555
H29_2 C39_2 1_555 1_555
C41_2 C21_4 1_555 1_555
H32_2 C41_2 1_555 1_555
C25_2 C26_2 1_555 1_555
O8_2 C27_2 1_555 1_555
O18_2 C41_2 1_555 1_555

#END
