
###############################################################################
#
# This file contains modified crystal structure data generated from the
# MOF subset of the Cambridge Structural Database (CSD) v543 
# hosted by the Cambridge Crystallographic Data Centre (CCDC).
#
# This work is licensed under the Creative Commons
# Attribution-NonCommercial-ShareAlike 4.0 International License.
# To view a copy of this license, visit
# http://creativecommons.org/licenses/by-nc-sa/4.0/
# or send a letter to
# Creative Commons, PO Box 1866, Mountain View, CA 94042, USA.
#
# CIF created using the CSD Python API on 29 September 2022
# The structure has been converted into the P1 space group
# The structure has a 3D framework
# The original CSD entry QUPHUF is in the monoclinic crystal system
# The framework has been calculated to contain at least 10.0% void space
# The void calculation uses a probe of radius 1.32A, grid spacing 0.4
#
###############################################################################

data_QUPHUF
_chemical_formula_moiety         '(C166 H128 N16 O44 Zn8)n'
_symmetry_cell_setting           triclinic
_symmetry_space_group_name_H-M   'P 1'
_symmetry_Int_Tables_number      1
_space_group_name_Hall           'P 1'
loop_
_symmetry_equiv_pos_site_id
_symmetry_equiv_pos_as_xyz
1 x,y,z
_cell_length_a                   9.3046(11)
_cell_length_b                   25.778(3)
_cell_length_c                   20.4387(18)
_cell_angle_alpha                90
_cell_angle_beta                 106.475(4)
_cell_angle_gamma                90
_cell_volume                     4701.03
loop_
_atom_site_label
_atom_site_type_symbol
_atom_site_fract_x
_atom_site_fract_y
_atom_site_fract_z
C41 C 0.1520(9) 0.0010(2) 0.0319(4)
O12 O 0.3079(6) 0.08671(16) 0.0170(3)
H32 H 0.2535 0.0041 0.0542
Zn6 Zn 0.47942(8) 0.12917(2) 0.01193(3)
C38 C 0.1697(8) 0.0925(2) 0.9934(3)
C39 C 0.0822(8) 0.0446(2) 0.9975(3)
O14 O 0.1075(6) 0.13298(17) 0.9715(3)
H11 H 0.0181 0.4738 0.9296
Zn3 Zn 0.02058(8) 0.37083(2) 0.98807(3)
C14 C 0.4739(7) 0.8337(2) 0.1051(3)
C15 C 0.4860(6) 0.8347(2) 0.1805(3)
C16 C 0.4947(7) 0.8811(2) 0.2160(3)
H13 H 0.4934 0.9125 0.1933
C17 C 0.4920(7) 0.7886(2) 0.2164(3)
H14 H 0.4849 0.7572 0.1933
C18 C 0.8303(8) 0.9075(2) 0.0066(3)
C19 C 0.9178(8) 0.9554(2) 0.0025(3)
O3 O 0.5100(6) 0.87505(15) 0.0806(2)
O4 O 0.4295(6) 0.7945(2) 0.0719(2)
O6 O 0.8925(6) 0.86702(17) 0.0285(3)
C34 C 0.5261(7) 0.8337(2) 0.3949(3)
C35 C 0.5140(6) 0.8347(2) 0.3195(3)
C36 C 0.5053(7) 0.8811(2) 0.2840(3)
H29 H 0.5066 0.9125 0.3067
C37 C 0.5080(7) 0.7886(2) 0.2836(3)
H30 H 0.5151 0.7572 0.3067
O9 O 0.4900(6) 0.87505(15) 0.4194(2)
O11 O 0.5705(6) 0.7945(2) 0.4281(2)
Zn5 Zn 0.47942(8) 0.87083(2) 0.51193(3)
C1 C 0.6493(7) 0.7934(2) 0.9200(4)
H1 H 0.7302 0.8160 0.9333
C2 C 0.6645(7) 0.7498(2) 0.8842(4)
H2 H 0.7541 0.7431 0.8741
C3 C 0.5470(6) 0.71670(19) 0.8636(3)
C4 C 0.4175(6) 0.7278(2) 0.8813(3)
H3 H 0.3353 0.7057 0.8687
C5 C 0.4131(7) 0.7715(2) 0.9173(3)
H4 H 0.3257 0.7786 0.9291
C6 C 0.4489(7) 0.63953(19) 0.7998(3)
H5 H 0.3567 0.6574 0.7768
H6 H 0.4320 0.6188 0.8366
C7 C 0.5000 0.6055(3) 0.7500
C8 C 0.6322(6) 0.57266(19) 0.7886(3)
H7 H 0.6837 0.5587 0.7573
H8 H 0.7025 0.5936 0.8224
C9 C 0.6760(7) 0.4968(2) 0.8562(3)
C10 C 0.6224(8) 0.4497(2) 0.8703(4)
H9 H 0.5204 0.4426 0.8546
C11 C 0.7185(8) 0.4132(3) 0.9073(4)
H10 H 0.6793 0.3820 0.9170
C12 C 0.9155(9) 0.4675(3) 0.9151(4)
C13 C 0.8255(8) 0.5053(2) 0.8807(4)
H12 H 0.8658 0.5371 0.8737
C21 C 0.8480(9) 0.9990(2) 0.9681(4)
N1 N 0.5263(5) 0.80504(16) 0.9369(2)
N2 N 0.8653(6) 0.42066(18) 0.9299(3)
O1 O 0.5679(4) 0.67599(14) 0.8258(2)
O2 O 0.5771(5) 0.53154(14) 0.8211(2)
O5 O 0.6921(6) 0.91329(16) 0.9830(3)
H16 H 0.7465 0.9959 0.9458
Zn1 Zn 0.52058(8) 0.87083(2) 0.98807(3)
C22 C 0.3507(7) 0.7934(2) 0.5800(4)
H17 H 0.2698 0.8160 0.5667
C23 C 0.3355(7) 0.7498(2) 0.6158(4)
H18 H 0.2459 0.7431 0.6259
C24 C 0.4530(6) 0.71670(19) 0.6364(3)
C25 C 0.5825(6) 0.7278(2) 0.6187(3)
H19 H 0.6647 0.7057 0.6313
C26 C 0.5869(7) 0.7715(2) 0.5827(3)
H20 H 0.6743 0.7786 0.5709
C27 C 0.5511(7) 0.63953(19) 0.7002(3)
H21 H 0.6433 0.6574 0.7232
H22 H 0.5680 0.6188 0.6634
C28 C 0.3678(6) 0.57266(19) 0.7114(3)
H23 H 0.3163 0.5587 0.7427
H24 H 0.2975 0.5936 0.6776
C29 C 0.3240(7) 0.4968(2) 0.6438(3)
C30 C 0.3776(8) 0.4497(2) 0.6297(4)
H25 H 0.4796 0.4426 0.6454
C31 C 0.2815(8) 0.4132(3) 0.5927(4)
H26 H 0.3207 0.3820 0.5830
C32 C 0.0845(9) 0.4675(3) 0.5849(4)
C33 C 0.1745(8) 0.5053(2) 0.6193(4)
H28 H 0.1342 0.5371 0.6263
N3 N 0.4737(5) 0.80504(16) 0.5631(2)
N4 N 0.1347(6) 0.42066(18) 0.5701(3)
N5 N 0.3653(6) 0.92066(18) 0.9299(3)
N6 N 0.6347(6) 0.92066(18) 0.5701(3)
O7 O 0.4321(4) 0.67599(14) 0.6742(2)
O8 O 0.4229(5) 0.53154(14) 0.6789(2)
O13 O 0.3079(6) 0.91329(16) 0.5170(3)
H27 H 0.9819 0.4738 0.5704
Zn4 Zn 0.97942(8) 0.37083(2) 0.51193(3)
C40 C 0.0664(9) 0.0438(3) 0.5348(4)
H31 H 0.1123 0.0728 0.5590
C18_2 C 0.1697(8) 0.9075(2) 0.4934(3)
C19_2 C 0.0822(8) 0.9554(2) 0.4975(3)
C21_2 C 0.1520(9) 0.9990(2) 0.5319(4)
O6_2 O 0.1075(6) 0.86702(17) 0.4715(3)
H16_2 H 0.2535 0.9959 0.5542
C38_2 C 0.8303(8) 0.0925(2) 0.5066(3)
C39_2 C 0.9178(8) 0.0446(2) 0.5025(3)
C41_2 C 0.8480(9) 0.0010(2) 0.4681(4)
O12_2 O 0.6921(6) 0.08671(16) 0.4830(3)
O14_2 O 0.8925(6) 0.13298(17) 0.5285(3)
H32_2 H 0.7465 0.0041 0.4458
Zn6_2 Zn 0.52058(8) 0.12917(2) 0.48807(3)
C20 C 0.9336(9) 0.9562(3) 0.4652(4)
H15 H 0.8877 0.9272 0.4410
C18_3 C 0.3303(8) 0.4075(2) 0.0066(3)
C19_3 C 0.4178(8) 0.4554(2) 0.0025(3)
C20_2 C 0.5664(9) 0.4562(3) 0.0348(4)
H15_2 H 0.6123 0.4272 0.0590
O3_2 O 0.0100(6) 0.37505(15) 0.0806(2)
O6_3 O 0.3925(6) 0.36702(17) 0.0285(3)
C34_2 C 0.0261(7) 0.3337(2) 0.3949(3)
C35_2 C 0.0140(6) 0.3347(2) 0.3195(3)
C36_2 C 0.0053(7) 0.3811(2) 0.2840(3)
H29_2 H 0.0066 0.4125 0.3067
C37_2 C 0.0080(7) 0.2886(2) 0.2836(3)
H30_2 H 0.0151 0.2572 0.3067
C41_3 C 0.6520(9) 0.5010(2) 0.0319(4)
O11_2 O 0.0705(6) 0.2945(2) 0.4281(2)
O12_3 O 0.8079(6) 0.58671(16) 0.0170(3)
H32_3 H 0.7535 0.5041 0.0542
Zn6_3 Zn 0.97942(8) 0.62917(2) 0.01193(3)
C1_2 C 0.1493(7) 0.2934(2) 0.9200(4)
H1_2 H 0.2302 0.3160 0.9333
C2_2 C 0.1645(7) 0.2498(2) 0.8842(4)
H2_2 H 0.2541 0.2431 0.8741
C3_2 C 0.0470(6) 0.21670(19) 0.8636(3)
C7_2 C 0.0000 0.1055(3) 0.7500
C8_2 C 0.1322(6) 0.07266(19) 0.7886(3)
H7_2 H 0.1837 0.0587 0.7573
H8_2 H 0.2025 0.0936 0.8224
C13_2 C 0.3255(8) 0.0053(2) 0.8807(4)
H12_2 H 0.3658 0.0371 0.8737
C21_3 C 0.3480(9) 0.4990(2) 0.9681(4)
N1_2 N 0.0263(5) 0.30504(16) 0.9369(2)
O1_2 O 0.0679(4) 0.17599(14) 0.8258(2)
O2_2 O 0.0771(5) 0.03154(14) 0.8211(2)
O5_2 O 0.1921(6) 0.41329(16) 0.9830(3)
H16_3 H 0.2465 0.4959 0.9458
C25_2 C 0.0825(6) 0.2278(2) 0.6187(3)
H19_2 H 0.1647 0.2057 0.6313
C26_2 C 0.0869(7) 0.2715(2) 0.5827(3)
H20_2 H 0.1743 0.2786 0.5709
C27_2 C 0.0511(7) 0.13953(19) 0.7002(3)
H21_2 H 0.1433 0.1574 0.7232
H22_2 H 0.0680 0.1188 0.6634
C38_3 C 0.6697(8) 0.5925(2) 0.9934(3)
C39_3 C 0.5822(8) 0.5446(2) 0.9975(3)
C40_2 C 0.4336(9) 0.5438(3) 0.9652(4)
H31_2 H 0.3877 0.5728 0.9410
O14_3 O 0.6075(6) 0.63298(17) 0.9715(3)
C9_2 C 0.1760(7) 0.9968(2) 0.8562(3)
C10_2 C 0.1224(8) 0.9497(2) 0.8703(4)
H9_2 H 0.0204 0.9426 0.8546
C11_2 C 0.2185(8) 0.9132(3) 0.9073(4)
H10_2 H 0.1793 0.8820 0.9170
C12_2 C 0.4155(9) 0.9675(3) 0.9151(4)
H11_2 H 0.5181 0.9738 0.9296
C14_2 C 0.9739(7) 0.3337(2) 0.1051(3)
C15_2 C 0.9860(6) 0.3347(2) 0.1805(3)
C16_2 C 0.9947(7) 0.3811(2) 0.2160(3)
H13_2 H 0.9934 0.4125 0.1933
C17_2 C 0.9920(7) 0.2886(2) 0.2164(3)
H14_2 H 0.9849 0.2572 0.1933
O4_2 O 0.9295(6) 0.2945(2) 0.0719(2)
O9_2 O 0.9900(6) 0.37505(15) 0.4194(2)
C4_2 C 0.9175(6) 0.2278(2) 0.8813(3)
H3_2 H 0.8353 0.2057 0.8687
C5_2 C 0.9131(7) 0.2715(2) 0.9173(3)
H4_2 H 0.8257 0.2786 0.9291
C6_2 C 0.9489(7) 0.13953(19) 0.7998(3)
H5_2 H 0.8567 0.1574 0.7768
H6_2 H 0.9320 0.1188 0.8366
C7_3 C 1.0000 0.1055(3) 0.7500
C22_2 C 0.8507(7) 0.2934(2) 0.5800(4)
H17_2 H 0.7698 0.3160 0.5667
C23_2 C 0.8355(7) 0.2498(2) 0.6158(4)
H18_2 H 0.7459 0.2431 0.6259
C24_2 C 0.9530(6) 0.21670(19) 0.6364(3)
C28_2 C 0.8678(6) 0.07266(19) 0.7114(3)
H23_2 H 0.8163 0.0587 0.7427
H24_2 H 0.7975 0.0936 0.6776
C33_2 C 0.6745(8) 0.0053(2) 0.6193(4)
H28_2 H 0.6342 0.0371 0.6263
N3_2 N 0.9737(5) 0.30504(16) 0.5631(2)
O7_2 O 0.9321(4) 0.17599(14) 0.6742(2)
O8_2 O 0.9229(5) 0.03154(14) 0.6789(2)
O13_2 O 0.8079(6) 0.41329(16) 0.5170(3)
C29_2 C 0.8240(7) 0.9968(2) 0.6438(3)
C30_2 C 0.8776(8) 0.9497(2) 0.6297(4)
H25_2 H 0.9796 0.9426 0.6454
C31_2 C 0.7815(8) 0.9132(3) 0.5927(4)
H26_2 H 0.8207 0.8820 0.5830
C32_2 C 0.5845(9) 0.9675(3) 0.5849(4)
H27_2 H 0.4819 0.9738 0.5704
C18_4 C 0.6697(8) 0.4075(2) 0.4934(3)
C19_4 C 0.5822(8) 0.4554(2) 0.4975(3)
C20_3 C 0.4336(9) 0.4562(3) 0.4652(4)
H15_3 H 0.3877 0.4272 0.4410
C21_4 C 0.6520(9) 0.4990(2) 0.5319(4)
O6_4 O 0.6075(6) 0.36702(17) 0.4715(3)
H16_4 H 0.7535 0.4959 0.5542
C38_4 C 0.3303(8) 0.5925(2) 0.5066(3)
C39_4 C 0.4178(8) 0.5446(2) 0.5025(3)
C40_3 C 0.5664(9) 0.5438(3) 0.5348(4)
H31_3 H 0.6123 0.5728 0.5590
C41_4 C 0.3480(9) 0.5010(2) 0.4681(4)
O12_4 O 0.1921(6) 0.58671(16) 0.4830(3)
O14_4 O 0.3925(6) 0.63298(17) 0.5285(3)
H32_4 H 0.2465 0.5041 0.4458
Zn6_4 Zn 0.02058(8) 0.62917(2) 0.48807(3)
H27_3 H 0.0181 0.5262 0.4296
C1_3 C 0.3507(7) 0.2066(2) 0.0800(4)
H1_3 H 0.2698 0.1840 0.0667
C2_3 C 0.3355(7) 0.2502(2) 0.1158(4)
H2_3 H 0.2459 0.2569 0.1259
C3_3 C 0.4530(6) 0.28330(19) 0.1364(3)
C4_3 C 0.5825(6) 0.2722(2) 0.1187(3)
H3_3 H 0.6647 0.2943 0.1313
C5_3 C 0.5869(7) 0.2285(2) 0.0827(3)
H4_3 H 0.6743 0.2214 0.0709
C6_3 C 0.5511(7) 0.36047(19) 0.2002(3)
H5_3 H 0.6433 0.3426 0.2232
H6_3 H 0.5680 0.3812 0.1634
C7_4 C 0.5000 0.3945(3) 0.2500
C8_3 C 0.3678(6) 0.42734(19) 0.2114(3)
H7_3 H 0.3163 0.4413 0.2427
H8_3 H 0.2975 0.4064 0.1776
C9_3 C 0.3240(7) 0.5032(2) 0.1438(3)
C10_3 C 0.3776(8) 0.5503(2) 0.1297(4)
H9_3 H 0.4796 0.5574 0.1454
C11_3 C 0.2815(8) 0.5868(3) 0.0927(4)
H10_3 H 0.3207 0.6180 0.0830
C12_3 C 0.0845(9) 0.5325(3) 0.0849(4)
C13_3 C 0.1745(8) 0.4947(2) 0.1193(4)
H12_3 H 0.1342 0.4629 0.1263
N1_3 N 0.4737(5) 0.19496(16) 0.0631(2)
N2_2 N 0.1347(6) 0.57934(18) 0.0701(3)
O1_3 O 0.4321(4) 0.32401(14) 0.1742(2)
O2_3 O 0.4229(5) 0.46846(14) 0.1789(2)
C22_3 C 0.6493(7) 0.2066(2) 0.4200(4)
H17_3 H 0.7302 0.1840 0.4333
C23_3 C 0.6645(7) 0.2502(2) 0.3842(4)
H18_3 H 0.7541 0.2569 0.3741
C24_3 C 0.5470(6) 0.28330(19) 0.3636(3)
C25_3 C 0.4175(6) 0.2722(2) 0.3813(3)
H19_3 H 0.3353 0.2943 0.3687
C26_3 C 0.4131(7) 0.2285(2) 0.4173(3)
H20_3 H 0.3257 0.2214 0.4291
C27_3 C 0.4489(7) 0.36047(19) 0.2998(3)
H21_3 H 0.3567 0.3426 0.2768
H22_3 H 0.4320 0.3812 0.3366
C28_3 C 0.6322(6) 0.42734(19) 0.2886(3)
H23_3 H 0.6837 0.4413 0.2573
H24_3 H 0.7025 0.4064 0.3224
C29_3 C 0.6760(7) 0.5032(2) 0.3562(3)
C30_3 C 0.6224(8) 0.5503(2) 0.3703(4)
H25_3 H 0.5204 0.5574 0.3546
C31_3 C 0.7185(8) 0.5868(3) 0.4073(4)
H26_3 H 0.6793 0.6180 0.4170
C32_3 C 0.9155(9) 0.5325(3) 0.4151(4)
C33_3 C 0.8255(8) 0.4947(2) 0.3807(4)
H28_3 H 0.8658 0.4629 0.3737
N3_3 N 0.5263(5) 0.19496(16) 0.4369(2)
N4_2 N 0.8653(6) 0.57934(18) 0.4299(3)
N5_2 N 0.6347(6) 0.07934(18) 0.0701(3)
N6_2 N 0.3653(6) 0.07934(18) 0.4299(3)
O7_3 O 0.5679(4) 0.32401(14) 0.3258(2)
O8_3 O 0.5771(5) 0.46846(14) 0.3211(2)
O10 O 0.5100(6) 0.12495(15) 0.5806(2)
C14_3 C 0.5261(7) 0.1663(2) 0.8949(3)
C15_3 C 0.5140(6) 0.1653(2) 0.8195(3)
C16_3 C 0.5053(7) 0.1189(2) 0.7840(3)
H13_3 H 0.5066 0.0875 0.8067
C17_3 C 0.5080(7) 0.2114(2) 0.7836(3)
H14_3 H 0.5151 0.2428 0.8067
O3_3 O 0.4900(6) 0.12495(15) 0.9194(2)
O4_3 O 0.5705(6) 0.2055(2) 0.9281(2)
C34_3 C 0.4739(7) 0.1663(2) 0.6051(3)
C35_3 C 0.4860(6) 0.1653(2) 0.6805(3)
C36_3 C 0.4947(7) 0.1189(2) 0.7160(3)
H29_3 H 0.4934 0.0875 0.6933
C37_3 C 0.4920(7) 0.2114(2) 0.7164(3)
H30_3 H 0.4849 0.2428 0.6933
O11_3 O 0.4295(6) 0.2055(2) 0.5719(2)
H11_3 H 0.9819 0.5262 0.0704
C29_4 C 0.1760(7) 0.0032(2) 0.3562(3)
C30_4 C 0.1224(8) 0.0503(2) 0.3703(4)
H25_4 H 0.0204 0.0574 0.3546
C31_4 C 0.2185(8) 0.0868(3) 0.4073(4)
H26_4 H 0.1793 0.1180 0.4170
C32_4 C 0.4155(9) 0.0325(3) 0.4151(4)
H27_4 H 0.5181 0.0262 0.4296
C4_4 C 0.0825(6) 0.7722(2) 0.1187(3)
H3_4 H 0.1647 0.7943 0.1313
C5_4 C 0.0869(7) 0.7285(2) 0.0827(3)
H4_4 H 0.1743 0.7214 0.0709
C6_4 C 0.0511(7) 0.86047(19) 0.2002(3)
H5_4 H 0.1433 0.8426 0.2232
H6_4 H 0.0680 0.8812 0.1634
C7_5 C 0.0000 0.8945(3) 0.2500
C22_4 C 0.1493(7) 0.7066(2) 0.4200(4)
H17_4 H 0.2302 0.6840 0.4333
C23_4 C 0.1645(7) 0.7502(2) 0.3842(4)
H18_4 H 0.2541 0.7569 0.3741
C24_4 C 0.0470(6) 0.78330(19) 0.3636(3)
C28_4 C 0.1322(6) 0.92734(19) 0.2886(3)
H23_4 H 0.1837 0.9413 0.2573
H24_4 H 0.2025 0.9064 0.3224
C33_4 C 0.3255(8) 0.9947(2) 0.3807(4)
H28_4 H 0.3658 0.9629 0.3737
N3_4 N 0.0263(5) 0.69496(16) 0.4369(2)
O7_4 O 0.0679(4) 0.82401(14) 0.3258(2)
O8_4 O 0.0771(5) 0.96846(14) 0.3211(2)
O10_2 O 0.0100(6) 0.62495(15) 0.5806(2)
C14_4 C 0.0261(7) 0.6663(2) 0.8949(3)
C15_4 C 0.0140(6) 0.6653(2) 0.8195(3)
C16_4 C 0.0053(7) 0.6189(2) 0.7840(3)
H13_4 H 0.0066 0.5875 0.8067
C17_4 C 0.0080(7) 0.7114(2) 0.7836(3)
H14_4 H 0.0151 0.7428 0.8067
O4_4 O 0.0705(6) 0.7055(2) 0.9281(2)
C9_4 C 0.8240(7) 0.0032(2) 0.1438(3)
C10_4 C 0.8776(8) 0.0503(2) 0.1297(4)
H9_4 H 0.9796 0.0574 0.1454
C11_4 C 0.7815(8) 0.0868(3) 0.0927(4)
H10_4 H 0.8207 0.1180 0.0830
C12_4 C 0.5845(9) 0.0325(3) 0.0849(4)
H11_4 H 0.4819 0.0262 0.0704
C1_4 C 0.8507(7) 0.7066(2) 0.0800(4)
H1_4 H 0.7698 0.6840 0.0667
C2_4 C 0.8355(7) 0.7502(2) 0.1158(4)
H2_4 H 0.7459 0.7569 0.1259
C3_4 C 0.9530(6) 0.78330(19) 0.1364(3)
C7_6 C 1.0000 0.8945(3) 0.2500
C8_4 C 0.8678(6) 0.92734(19) 0.2114(3)
H7_4 H 0.8163 0.9413 0.2427
H8_4 H 0.7975 0.9064 0.1776
C13_4 C 0.6745(8) 0.9947(2) 0.1193(4)
H12_4 H 0.6342 0.9629 0.1263
N1_4 N 0.9737(5) 0.69496(16) 0.0631(2)
O1_4 O 0.9321(4) 0.82401(14) 0.1742(2)
O2_4 O 0.9229(5) 0.96846(14) 0.1789(2)
C25_4 C 0.9175(6) 0.7722(2) 0.3813(3)
H19_4 H 0.8353 0.7943 0.3687
C26_4 C 0.9131(7) 0.7285(2) 0.4173(3)
H20_4 H 0.8257 0.7214 0.4291
C27_4 C 0.9489(7) 0.86047(19) 0.2998(3)
H21_4 H 0.8567 0.8426 0.2768
H22_4 H 0.9320 0.8812 0.3366
O3_4 O 0.9900(6) 0.62495(15) 0.9194(2)
C34_4 C 0.9739(7) 0.6663(2) 0.6051(3)
C35_4 C 0.9860(6) 0.6653(2) 0.6805(3)
C36_4 C 0.9947(7) 0.6189(2) 0.7160(3)
H29_4 H 0.9934 0.5875 0.6933
C37_4 C 0.9920(7) 0.7114(2) 0.7164(3)
H30_4 H 0.9849 0.7428 0.6933
O11_4 O 0.9295(6) 0.7055(2) 0.5719(2)
C20_4 C 0.0664(9) 0.9562(3) 0.0348(4)
H15_4 H 0.1123 0.9272 0.0590
C40_4 C 0.9336(9) 0.0438(3) 0.9652(4)
H31_4 H 0.8877 0.0728 0.9410
loop_
_geom_bond_atom_site_label_1
_geom_bond_atom_site_label_2
_geom_bond_site_symmetry_1
_geom_bond_site_symmetry_2
H32 C41 1_555 1_555
Zn6 O12 1_555 1_555
C38 C39 1_555 1_555
O14 C38 1_555 1_555
C14 C15 1_555 1_555
C15 C16 1_555 1_555
C16 H13 1_555 1_555
C17 C15 1_555 1_555
H14 C17 1_555 1_555
C18 C19 1_555 1_555
O3 C14 1_555 1_555
O4 C14 1_555 1_555
O6 C18 1_555 1_555
C34 C35 1_555 1_555
C35 C36 1_555 1_555
C36 C16 1_555 1_555
H29 C36 1_555 1_555
C37 C17 1_555 1_555
H30 C37 1_555 1_555
O9 C34 1_555 1_555
O11 C34 1_555 1_555
Zn5 O9 1_555 1_555
C35 C37 1_555 1_555
C1 H1 1_555 1_555
C2 C1 1_555 1_555
H2 C2 1_555 1_555
C3 C2 1_555 1_555
C4 C3 1_555 1_555
H3 C4 1_555 1_555
C5 C4 1_555 1_555
H4 C5 1_555 1_555
C6 H5 1_555 1_555
H6 C6 1_555 1_555
C7 C6 1_555 1_555
C8 C7 1_555 1_555
H7 C8 1_555 1_555
H8 C8 1_555 1_555
C9 C10 1_555 1_555
C10 H9 1_555 1_555
C11 C10 1_555 1_555
H10 C11 1_555 1_555
C13 C9 1_555 1_555
H12 C13 1_555 1_555
N1 C1 1_555 1_555
N2 C11 1_555 1_555
O1 C3 1_555 1_555
O2 C8 1_555 1_555
H16 C21 1_555 1_555
Zn1 N1 1_555 1_555
C22 H17 1_555 1_555
C23 C22 1_555 1_555
H18 C23 1_555 1_555
C24 C23 1_555 1_555
C25 C24 1_555 1_555
H19 C25 1_555 1_555
C26 C25 1_555 1_555
H20 C26 1_555 1_555
C27 C7 1_555 1_555
H21 C27 1_555 1_555
H22 C27 1_555 1_555
C28 C7 1_555 1_555
H23 C28 1_555 1_555
H24 C28 1_555 1_555
C29 C30 1_555 1_555
C30 H25 1_555 1_555
C31 C30 1_555 1_555
H26 C31 1_555 1_555
C33 C29 1_555 1_555
H28 C33 1_555 1_555
N3 C22 1_555 1_555
N4 C31 1_555 1_555
N5 Zn1 1_555 1_555
N6 Zn5 1_555 1_555
O7 C24 1_555 1_555
O8 C28 1_555 1_555
O13 Zn5 1_555 1_555
Zn5 N3 1_555 1_555
C5 N1 1_555 1_555
C6 O1 1_555 1_555
C9 O2 1_555 1_555
C12 C13 1_555 1_555
C12 N2 1_555 1_555
O5 Zn1 1_555 1_555
C26 N3 1_555 1_555
C27 O7 1_555 1_555
C29 O8 1_555 1_555
C32 C33 1_555 1_555
C32 N4 1_555 1_555
H31 C40 1_555 1_555
C18_2 C19_2 1_555 1_555
C21_2 C19_2 1_555 1_555
O13 C18_2 1_555 1_555
O6_2 C18_2 1_555 1_555
H16_2 C21_2 1_555 1_555
C38_2 C39_2 1_555 1_555
O12_2 C38_2 1_555 1_555
O14_2 C38_2 1_555 1_555
H32_2 C41_2 1_555 1_555
Zn6_2 O12_2 1_555 1_555
C39_2 C41_2 1_555 1_555
C20 H15 1_555 1_555
C18_3 C19_3 1_555 1_555
C19_3 C20_2 1_555 1_555
C20_2 H15_2 1_555 1_555
O6_3 C18_3 1_555 1_555
C34_2 C35_2 1_555 1_555
C35_2 C36_2 1_555 1_555
H29_2 C36_2 1_555 1_555
H30_2 C37_2 1_555 1_555
C41_3 C20_2 1_555 1_555
O11_2 C34_2 1_555 1_555
H32_3 C41_3 1_555 1_555
Zn6_3 O12_3 1_555 1_555
C35_2 C37_2 1_555 1_555
C1_2 H1_2 1_555 1_555
C2_2 C1_2 1_555 1_555
H2_2 C2_2 1_555 1_555
C3_2 C2_2 1_555 1_555
C8_2 C7_2 1_555 1_555
H7_2 C8_2 1_555 1_555
H8_2 C8_2 1_555 1_555
H12_2 C13_2 1_555 1_555
N1_2 C1_2 1_555 1_555
O1_2 C3_2 1_555 1_555
O2_2 C8_2 1_555 1_555
H16_3 C21_3 1_555 1_555
Zn3 N1_2 1_555 1_555
H19_2 C25_2 1_555 1_555
C26_2 C25_2 1_555 1_555
H20_2 C26_2 1_555 1_555
C27_2 C7_2 1_555 1_555
H21_2 C27_2 1_555 1_555
H22_2 C27_2 1_555 1_555
C38_3 C39_3 1_555 1_555
C39_3 C40_2 1_555 1_555
C40_2 C21_3 1_555 1_555
H31_2 C40_2 1_555 1_555
O14_3 C38_3 1_555 1_555
O5_2 Zn3 1_555 1_555
C9_2 C10_2 1_555 1_555
C10_2 H9_2 1_555 1_555
C11_2 C10_2 1_555 1_555
H10_2 C11_2 1_555 1_555
C12_2 H11_2 1_555 1_555
N5 C11_2 1_555 1_555
C12_2 N5 1_555 1_555
C14_2 C15_2 1_555 1_555
C15_2 C16_2 1_555 1_555
C16_2 H13_2 1_555 1_555
C17_2 C15_2 1_555 1_555
H14_2 C17_2 1_555 1_555
O4_2 C14_2 1_555 1_555
Zn4 O9_2 1_555 1_555
H3_2 C4_2 1_555 1_555
C5_2 C4_2 1_555 1_555
H4_2 C5_2 1_555 1_555
C6_2 H5_2 1_555 1_555
H6_2 C6_2 1_555 1_555
C7_3 C6_2 1_555 1_555
C22_2 H17_2 1_555 1_555
C23_2 C22_2 1_555 1_555
H18_2 C23_2 1_555 1_555
C24_2 C23_2 1_555 1_555
C28_2 C7_3 1_555 1_555
H23_2 C28_2 1_555 1_555
H24_2 C28_2 1_555 1_555
H28_2 C33_2 1_555 1_555
N3_2 C22_2 1_555 1_555
O7_2 C24_2 1_555 1_555
O8_2 C28_2 1_555 1_555
O13_2 Zn4 1_555 1_555
Zn4 N3_2 1_555 1_555
C29_2 C30_2 1_555 1_555
C30_2 H25_2 1_555 1_555
C31_2 C30_2 1_555 1_555
H26_2 C31_2 1_555 1_555
C32_2 H27_2 1_555 1_555
N6 C31_2 1_555 1_555
C32_2 N6 1_555 1_555
C18_4 C19_4 1_555 1_555
C19_4 C20_3 1_555 1_555
C20_3 H15_3 1_555 1_555
C21_4 C19_4 1_555 1_555
O13_2 C18_4 1_555 1_555
O6_4 C18_4 1_555 1_555
H16_4 C21_4 1_555 1_555
C38_4 C39_4 1_555 1_555
C39_4 C40_3 1_555 1_555
C40_3 C21_4 1_555 1_555
H31_3 C40_3 1_555 1_555
C41_4 C20_3 1_555 1_555
O12_4 C38_4 1_555 1_555
O14_4 C38_4 1_555 1_555
H32_4 C41_4 1_555 1_555
Zn6_4 O12_4 1_555 1_555
C39_4 C41_4 1_555 1_555
C1_3 H1_3 1_555 1_555
C2_3 C1_3 1_555 1_555
H2_3 C2_3 1_555 1_555
C3_3 C2_3 1_555 1_555
C4_3 C3_3 1_555 1_555
H3_3 C4_3 1_555 1_555
C5_3 C4_3 1_555 1_555
H4_3 C5_3 1_555 1_555
C6_3 H5_3 1_555 1_555
H6_3 C6_3 1_555 1_555
C7_4 C6_3 1_555 1_555
C8_3 C7_4 1_555 1_555
H7_3 C8_3 1_555 1_555
H8_3 C8_3 1_555 1_555
C9_3 C10_3 1_555 1_555
C10_3 H9_3 1_555 1_555
C11_3 C10_3 1_555 1_555
H10_3 C11_3 1_555 1_555
C13_3 C9_3 1_555 1_555
H12_3 C13_3 1_555 1_555
N1_3 C1_3 1_555 1_555
N2_2 C11_3 1_555 1_555
O1_3 C3_3 1_555 1_555
O2_3 C8_3 1_555 1_555
Zn6 N1_3 1_555 1_555
C22_3 H17_3 1_555 1_555
C23_3 C22_3 1_555 1_555
H18_3 C23_3 1_555 1_555
C24_3 C23_3 1_555 1_555
C25_3 C24_3 1_555 1_555
H19_3 C25_3 1_555 1_555
C26_3 C25_3 1_555 1_555
H20_3 C26_3 1_555 1_555
C27_3 C7_4 1_555 1_555
H21_3 C27_3 1_555 1_555
H22_3 C27_3 1_555 1_555
C28_3 C7_4 1_555 1_555
H23_3 C28_3 1_555 1_555
H24_3 C28_3 1_555 1_555
C29_3 C30_3 1_555 1_555
C30_3 H25_3 1_555 1_555
C31_3 C30_3 1_555 1_555
H26_3 C31_3 1_555 1_555
C33_3 C29_3 1_555 1_555
H28_3 C33_3 1_555 1_555
N3_3 C22_3 1_555 1_555
N4_2 C31_3 1_555 1_555
N5_2 Zn6 1_555 1_555
N6_2 Zn6_2 1_555 1_555
O7_3 C24_3 1_555 1_555
O8_3 C28_3 1_555 1_555
O10 Zn6_2 1_555 1_555
Zn6_2 N3_3 1_555 1_555
C5_3 N1_3 1_555 1_555
C6_3 O1_3 1_555 1_555
C9_3 O2_3 1_555 1_555
C12_3 C13_3 1_555 1_555
C12_3 N2_2 1_555 1_555
C26_3 N3_3 1_555 1_555
C27_3 O7_3 1_555 1_555
C29_3 O8_3 1_555 1_555
C32_3 C33_3 1_555 1_555
C32_3 N4_2 1_555 1_555
C14_3 C15_3 1_555 1_555
C15_3 C16_3 1_555 1_555
C16_3 H13_3 1_555 1_555
C17_3 C15_3 1_555 1_555
H14_3 C17_3 1_555 1_555
O3_3 C14_3 1_555 1_555
O4_3 C14_3 1_555 1_555
C34_3 C35_3 1_555 1_555
C35_3 C36_3 1_555 1_555
C36_3 C16_3 1_555 1_555
H29_3 C36_3 1_555 1_555
C37_3 C17_3 1_555 1_555
H30_3 C37_3 1_555 1_555
O10 C34_3 1_555 1_555
O11_3 C34_3 1_555 1_555
C35_3 C37_3 1_555 1_555
C29_4 C30_4 1_555 1_555
C30_4 H25_4 1_555 1_555
C31_4 C30_4 1_555 1_555
H26_4 C31_4 1_555 1_555
C32_4 H27_4 1_555 1_555
N6_2 C31_4 1_555 1_555
C32_4 N6_2 1_555 1_555
H3_4 C4_4 1_555 1_555
C5_4 C4_4 1_555 1_555
H4_4 C5_4 1_555 1_555
C6_4 H5_4 1_555 1_555
H6_4 C6_4 1_555 1_555
C7_5 C6_4 1_555 1_555
C22_4 H17_4 1_555 1_555
C23_4 C22_4 1_555 1_555
H18_4 C23_4 1_555 1_555
C24_4 C23_4 1_555 1_555
C28_4 C7_5 1_555 1_555
H23_4 C28_4 1_555 1_555
H24_4 C28_4 1_555 1_555
H28_4 C33_4 1_555 1_555
N3_4 C22_4 1_555 1_555
O7_4 C24_4 1_555 1_555
O8_4 C28_4 1_555 1_555
O10_2 Zn6_4 1_555 1_555
Zn6_4 N3_4 1_555 1_555
C14_4 C15_4 1_555 1_555
C15_4 C16_4 1_555 1_555
C16_4 H13_4 1_555 1_555
C17_4 C15_4 1_555 1_555
H14_4 C17_4 1_555 1_555
O4_4 C14_4 1_555 1_555
C9_4 C10_4 1_555 1_555
C10_4 H9_4 1_555 1_555
C11_4 C10_4 1_555 1_555
H10_4 C11_4 1_555 1_555
C12_4 H11_4 1_555 1_555
N5_2 C11_4 1_555 1_555
C12_4 N5_2 1_555 1_555
C1_4 H1_4 1_555 1_555
C2_4 C1_4 1_555 1_555
H2_4 C2_4 1_555 1_555
C3_4 C2_4 1_555 1_555
C8_4 C7_6 1_555 1_555
H7_4 C8_4 1_555 1_555
H8_4 C8_4 1_555 1_555
H12_4 C13_4 1_555 1_555
N1_4 C1_4 1_555 1_555
O1_4 C3_4 1_555 1_555
O2_4 C8_4 1_555 1_555
Zn6_3 N1_4 1_555 1_555
H19_4 C25_4 1_555 1_555
C26_4 C25_4 1_555 1_555
H20_4 C26_4 1_555 1_555
C27_4 C7_6 1_555 1_555
H21_4 C27_4 1_555 1_555
H22_4 C27_4 1_555 1_555
C34_4 C35_4 1_555 1_555
C35_4 C36_4 1_555 1_555
H29_4 C36_4 1_555 1_555
H30_4 C37_4 1_555 1_555
O11_4 C34_4 1_555 1_555
C35_4 C37_4 1_555 1_555
C20_4 H15_4 1_555 1_555
H31_4 C40_4 1_555 1_555

#END
