
###############################################################################
#
# This file contains modified crystal structure data generated from the
# MOF subset of the Cambridge Structural Database (CSD) v543 
# hosted by the Cambridge Crystallographic Data Centre (CCDC).
#
# This work is licensed under the Creative Commons
# Attribution-NonCommercial-ShareAlike 4.0 International License.
# To view a copy of this license, visit
# http://creativecommons.org/licenses/by-nc-sa/4.0/
# or send a letter to
# Creative Commons, PO Box 1866, Mountain View, CA 94042, USA.
#
# CIF created using the CSD Python API on 29 September 2022
# The structure has been converted into the P1 space group
# The structure has a 3D framework
# The original CSD entry QUPJAN is in the orthorhombic crystal system
# The framework has been calculated to contain at least 10.0% void space
# The void calculation uses a probe of radius 1.32A, grid spacing 0.4
#
###############################################################################

data_QUPJAN
_chemical_formula_moiety         '(C332 H256 Cd16 N32 O96)n'
_symmetry_cell_setting           triclinic
_symmetry_space_group_name_H-M   'P 1'
_symmetry_Int_Tables_number      1
_space_group_name_Hall           'P 1'
loop_
_symmetry_equiv_pos_site_id
_symmetry_equiv_pos_as_xyz
1 x,y,z
_cell_length_a                   14.5739(11)
_cell_length_b                   20.8969(15)
_cell_length_c                   32.497(3)
_cell_angle_alpha                90
_cell_angle_beta                 90
_cell_angle_gamma                90
_cell_volume                     9896.94
loop_
_atom_site_label
_atom_site_type_symbol
_atom_site_fract_x
_atom_site_fract_y
_atom_site_fract_z
H10 H 0.0117 0.1780 0.3101
C15 C 0.0000 0.2500 0.35314(10)
H13 H 0.0356 0.3861 0.4621
H14 H 0.0145 0.3812 0.5320
C30 C 0.0610(3) 0.34445(16) 0.19779(9)
H21 H 0.0303 0.3784 0.1855
C31 C 0.0585(3) 0.34046(18) 0.24037(9)
H22 H 0.0285 0.3712 0.2561
C32 C 0.1018(2) 0.28955(19) 0.25840(9)
C33 C 0.1471(2) 0.24697(19) 0.23426(9)
H23 H 0.1778 0.2123 0.2458
C34 C 0.1464(2) 0.25620(16) 0.19266(9)
H24 H 0.1783 0.2271 0.1764
C35 C 0.0376(3) 0.3033(2) 0.32617(9)
H25 H 0.0640 0.3366 0.3432
C36 C 0.0770(2) 0.2235(2) 0.37962(9)
H27 H 0.1053 0.2577 0.3952
H28 H 0.1236 0.2041 0.3623
C37 C 0.0597(2) 0.17895(14) 0.44789(8)
C38 C 0.0082(2) 0.14146(15) 0.47310(8)
C39 C 0.0215(2) 0.14467(14) 0.51517(8)
C40 C 0.13286(19) 0.21833(14) 0.50731(8)
H31 H 0.1757 0.2459 0.5189
C41 C 0.1256(2) 0.21715(17) 0.46506(8)
H32 H 0.1644 0.2416 0.4487
Cd2 Cd 0.101821(11) 0.312821(7) 0.102962(5)
Cd6 Cd 0.101821(11) 0.187179(7) 0.602962(5)
N3 N 0.10319(15) 0.30411(10) 0.17373(7)
N4 N 0.08247(15) 0.18247(9) 0.53269(6)
N6 N 0.08247(15) 0.31753(9) 0.03269(6)
O8 O 0.10283(13) 0.42562(9) 0.10842(7)
O10 O 0.23748(15) 0.37971(8) 0.10654(7)
O12 O 0.19725(13) 0.22584(7) 0.09684(5)
O14 O 0.05964(15) 0.18662(7) 0.10603(5)
O15 O 0.10583(16) 0.27783(17) 0.29951(7)
O16 O 0.03939(19) 0.17614(13) 0.40733(6)
C1 C 0.81195(18) 0.07178(11) 0.10768(7)
C2 C 0.76639(18) 0.00660(11) 0.10762(7)
C3 C 0.67229(19) 0.00048(11) 0.10865(8)
H1 H 0.6358 0.0369 0.1103
C9 C 0.9390(3) 0.15555(16) 0.19779(9)
H5 H 0.9697 0.1216 0.1855
C10 C 0.9415(3) 0.15954(18) 0.24037(9)
H6 H 0.9715 0.1288 0.2561
C11 C 0.8982(2) 0.21045(19) 0.25840(9)
C12 C 0.8529(2) 0.25303(19) 0.23426(9)
H7 H 0.8222 0.2877 0.2458
C13 C 0.8536(2) 0.24380(16) 0.19266(9)
H8 H 0.8217 0.2729 0.1764
C14 C 0.9624(3) 0.1967(2) 0.32617(9)
H9 H 0.9360 0.1634 0.3432
C15_2 C 1.0000 0.2500 0.35314(10)
C16 C 0.9230(2) 0.2765(2) 0.37962(9)
H11 H 0.8947 0.2423 0.3952
H12 H 0.8764 0.2959 0.3623
C17 C 0.9403(2) 0.32105(14) 0.44789(8)
C18 C 0.9918(2) 0.35854(15) 0.47310(8)
C19 C 0.9785(2) 0.35533(14) 0.51517(8)
C20 C 0.86714(19) 0.28167(14) 0.50731(8)
H15 H 0.8243 0.2541 0.5189
C21 C 0.8744(2) 0.28285(17) 0.46506(8)
H16 H 0.8356 0.2584 0.4487
Cd1 Cd 0.898179(11) 0.187179(7) 0.102962(5)
N1 N 0.89681(15) 0.19589(10) 0.17373(7)
N2 N 0.91753(15) 0.31753(9) 0.53269(6)
O1 O 0.89717(13) 0.07438(9) 0.10842(7)
O2 O 0.76252(15) 0.12029(8) 0.10654(7)
O5 O 0.89417(16) 0.22217(17) 0.29951(7)
O6 O 0.96061(19) 0.32386(13) 0.40733(6)
C22 C 0.68805(18) 0.57178(11) 0.10768(7)
C23 C 0.73361(18) 0.50660(11) 0.10762(7)
C24 C 0.82771(19) 0.50048(11) 0.10865(8)
H17 H 0.8642 0.5369 0.1103
C25 C 0.86886(18) 0.44043(11) 0.10718(8)
H18 H 0.9324 0.4367 0.1081
C26 C 0.81448(17) 0.38635(10) 0.10435(6)
C27 C 0.71982(18) 0.39281(11) 0.10320(8)
H19 H 0.6832 0.3565 0.1011
C28 C 0.67938(19) 0.45195(12) 0.10505(8)
H20 H 0.6158 0.4556 0.1046
C29 C 0.85539(17) 0.32030(10) 0.10205(7)
H26 H 0.9883 0.3220 0.3101
H29 H 0.9644 0.1139 0.4621
H30 H 0.9855 0.1188 0.5320
Cd3 Cd 0.898179(11) 0.312821(7) 0.602962(5)
Cd7 Cd 0.601821(11) 0.687179(7) 0.102962(5)
N5 N 0.91753(15) 0.18247(9) 0.03269(6)
O7 O 0.60283(13) 0.57438(9) 0.10842(7)
O9 O 0.73748(15) 0.62029(8) 0.10654(7)
O11 O 0.80275(13) 0.27416(7) 0.09684(5)
O13 O 0.94036(15) 0.31338(7) 0.10603(5)
C4 C 0.63114(18) 0.94043(11) 0.10718(8)
H2 H 0.5676 0.9367 0.1081
C5 C 0.68552(17) 0.88635(10) 0.10435(6)
C6 C 0.78018(18) 0.89281(11) 0.10320(8)
H3 H 0.8168 0.8565 0.1011
C7 C 0.82062(19) 0.95195(12) 0.10505(8)
H4 H 0.8842 0.9556 0.1046
C8 C 0.64461(17) 0.82030(10) 0.10205(7)
O3 O 0.69725(13) 0.77416(7) 0.09684(5)
O4 O 0.55964(15) 0.81338(7) 0.10603(5)
Cd5 Cd 0.398179(11) 0.812821(7) 0.102962(5)
C4_2 C 0.86886(18) 0.05957(11) 0.60718(8)
H2_2 H 0.9324 0.0633 0.6081
C5_2 C 0.81448(17) 0.11365(10) 0.60435(6)
C6_2 C 0.71982(18) 0.10719(11) 0.60320(8)
H3_2 H 0.6832 0.1435 0.6011
C7_2 C 0.67938(19) 0.04805(12) 0.60505(8)
H4_2 H 0.6158 0.0444 0.6046
C8_2 C 0.85539(17) 0.17970(10) 0.60205(7)
O3_2 O 0.80275(13) 0.22584(7) 0.59684(5)
O4_2 O 0.94036(15) 0.18662(7) 0.60603(5)
C19_2 C 0.5215(2) 0.64467(14) 0.01517(8)
H14_2 H 0.4855 0.6188 0.0320
C20_2 C 0.63286(19) 0.71833(14) 0.00731(8)
H15_2 H 0.6757 0.7459 0.0189
N2_2 N 0.58247(15) 0.68247(9) 0.03269(6)
C39_2 C 0.4785(2) 0.85533(14) 0.01517(8)
H30_2 H 0.5145 0.8812 0.0320
C40_2 C 0.36714(19) 0.78167(14) 0.00731(8)
H31_2 H 0.3243 0.7541 0.0189
N4_2 N 0.41753(15) 0.81753(9) 0.03269(6)
C1_2 C 0.68805(18) 0.92822(11) 0.60768(7)
C2_2 C 0.73361(18) 0.99340(11) 0.60762(7)
C3_2 C 0.82771(19) 0.99952(11) 0.60865(8)
H1_2 H 0.8642 0.9631 0.6103
C9_2 C 0.5610(3) 0.84445(16) 0.69779(9)
H5_2 H 0.5303 0.8784 0.6855
C10_2 C 0.5585(3) 0.84046(18) 0.74037(9)
H6_2 H 0.5285 0.8712 0.7561
C11_2 C 0.6018(2) 0.78955(19) 0.75840(9)
C12_2 C 0.6471(2) 0.74697(19) 0.73426(9)
H7_2 H 0.6778 0.7123 0.7458
C13_2 C 0.6464(2) 0.75620(16) 0.69266(9)
H8_2 H 0.6783 0.7271 0.6764
C14_2 C 0.5376(3) 0.8033(2) 0.82617(9)
H9_2 H 0.5640 0.8366 0.8432
H10_2 H 0.4883 0.8220 0.8101
C15_3 C 0.5000 0.7500 0.85314(10)
C16_2 C 0.5770(2) 0.7235(2) 0.87962(9)
H11_2 H 0.6053 0.7577 0.8952
H12_2 H 0.6236 0.7041 0.8623
C17_2 C 0.5597(2) 0.67895(14) 0.94789(8)
C18_2 C 0.5082(2) 0.64146(15) 0.97310(8)
H13_2 H 0.4644 0.6139 0.9621
C21_2 C 0.6256(2) 0.71715(17) 0.96506(8)
H16_2 H 0.6644 0.7416 0.9487
Cd1_2 Cd 0.601821(11) 0.812821(7) 0.602962(5)
N1_2 N 0.60319(15) 0.80411(10) 0.67373(7)
O1_2 O 0.60283(13) 0.92562(9) 0.60842(7)
O2_2 O 0.73748(15) 0.87971(8) 0.60654(7)
O5_2 O 0.60583(16) 0.77783(17) 0.79951(7)
O6_2 O 0.53939(19) 0.67614(13) 0.90733(6)
C22_2 C 0.81195(18) 0.42822(11) 0.60768(7)
C23_2 C 0.76639(18) 0.49340(11) 0.60762(7)
C24_2 C 0.67229(19) 0.49952(11) 0.60865(8)
H17_2 H 0.6358 0.4631 0.6103
C25_2 C 0.63114(18) 0.55957(11) 0.60718(8)
H18_2 H 0.5676 0.5633 0.6081
C26_2 C 0.68552(17) 0.61365(10) 0.60435(6)
C27_2 C 0.78018(18) 0.60719(11) 0.60320(8)
H19_2 H 0.8168 0.6435 0.6011
C28_2 C 0.82062(19) 0.54805(12) 0.60505(8)
H20_2 H 0.8842 0.5444 0.6046
C29_2 C 0.64461(17) 0.67970(10) 0.60205(7)
C30_2 C 0.4390(3) 0.65555(16) 0.69779(9)
H21_2 H 0.4697 0.6216 0.6855
C31_2 C 0.4415(3) 0.65954(18) 0.74037(9)
H22_2 H 0.4715 0.6288 0.7561
C32_2 C 0.3982(2) 0.71045(19) 0.75840(9)
C33_2 C 0.3529(2) 0.75303(19) 0.73426(9)
H23_2 H 0.3222 0.7877 0.7458
C34_2 C 0.3536(2) 0.74380(16) 0.69266(9)
H24_2 H 0.3217 0.7729 0.6764
C35_2 C 0.4624(3) 0.6967(2) 0.82617(9)
H25_2 H 0.4360 0.6634 0.8432
H26_2 H 0.5117 0.6780 0.8101
C36_2 C 0.4230(2) 0.7765(2) 0.87962(9)
H27_2 H 0.3947 0.7423 0.8952
H28_2 H 0.3764 0.7959 0.8623
C37_2 C 0.4403(2) 0.82105(14) 0.94789(8)
C38_2 C 0.4918(2) 0.85854(15) 0.97310(8)
H29_2 H 0.5356 0.8861 0.9621
C41_2 C 0.3744(2) 0.78285(17) 0.96506(8)
H32_2 H 0.3356 0.7584 0.9487
Cd2_2 Cd 0.398179(11) 0.687179(7) 0.602962(5)
N3_2 N 0.39681(15) 0.69589(10) 0.67373(7)
N5_2 N 0.58247(15) 0.81753(9) 0.53269(6)
N6_2 N 0.41753(15) 0.68247(9) 0.53269(6)
O7_2 O 0.89717(13) 0.42562(9) 0.60842(7)
O8_2 O 0.39717(13) 0.57438(9) 0.60842(7)
O9_2 O 0.76252(15) 0.37971(8) 0.60654(7)
O10_2 O 0.26252(15) 0.62029(8) 0.60654(7)
O11_2 O 0.69725(13) 0.72584(7) 0.59684(5)
O12_2 O 0.30275(13) 0.77416(7) 0.59684(5)
O13_2 O 0.55964(15) 0.68662(7) 0.60603(5)
O14_2 O 0.44036(15) 0.81338(7) 0.60603(5)
O15_2 O 0.39417(16) 0.72217(17) 0.79951(7)
O16_2 O 0.46061(19) 0.82386(13) 0.90733(6)
C22_3 C 0.18805(18) 0.07178(11) 0.60768(7)
C23_3 C 0.23361(18) 0.00660(11) 0.60762(7)
C24_3 C 0.32771(19) 0.00048(11) 0.60865(8)
H17_3 H 0.3642 0.0369 0.6103
O7_3 O 0.10283(13) 0.07438(9) 0.60842(7)
O9_3 O 0.23748(15) 0.12029(8) 0.60654(7)
C1_3 C 0.31195(18) 0.57178(11) 0.60768(7)
C2_3 C 0.26639(18) 0.50660(11) 0.60762(7)
C3_3 C 0.17229(19) 0.50048(11) 0.60865(8)
H1_3 H 0.1358 0.5369 0.6103
C4_3 C 0.13114(18) 0.44043(11) 0.60718(8)
H2_3 H 0.0676 0.4367 0.6081
C5_3 C 0.18552(17) 0.38635(10) 0.60435(6)
C6_3 C 0.28018(18) 0.39281(11) 0.60320(8)
H3_3 H 0.3168 0.3565 0.6011
C7_3 C 0.32062(19) 0.45195(12) 0.60505(8)
H4_3 H 0.3842 0.4556 0.6046
C8_3 C 0.14461(17) 0.32030(10) 0.60205(7)
O3_3 O 0.19725(13) 0.27416(7) 0.59684(5)
O4_3 O 0.05964(15) 0.31338(7) 0.60603(5)
C25_3 C 0.36886(18) 0.94043(11) 0.60718(8)
H18_3 H 0.4324 0.9367 0.6081
C26_3 C 0.31448(17) 0.88635(10) 0.60435(6)
C27_3 C 0.21982(18) 0.89281(11) 0.60320(8)
H19_3 H 0.1832 0.8565 0.6011
C28_3 C 0.17938(19) 0.95195(12) 0.60505(8)
H20_3 H 0.1158 0.9556 0.6046
C29_3 C 0.35539(17) 0.82030(10) 0.60205(7)
C1_4 C 0.18805(18) 0.42822(11) 0.10768(7)
C2_4 C 0.23361(18) 0.49340(11) 0.10762(7)
C3_4 C 0.32771(19) 0.49952(11) 0.10865(8)
H1_4 H 0.3642 0.4631 0.1103
C4_4 C 0.36886(18) 0.55957(11) 0.10718(8)
H2_4 H 0.4324 0.5633 0.1081
C5_4 C 0.31448(17) 0.61365(10) 0.10435(6)
C6_4 C 0.21982(18) 0.60719(11) 0.10320(8)
H3_4 H 0.1832 0.6435 0.1011
C7_4 C 0.17938(19) 0.54805(12) 0.10505(8)
H4_4 H 0.1158 0.5444 0.1046
C8_4 C 0.35539(17) 0.67970(10) 0.10205(7)
O3_4 O 0.30275(13) 0.72584(7) 0.09684(5)
O4_4 O 0.44036(15) 0.68662(7) 0.10603(5)
C25_4 C 0.13114(18) 0.05957(11) 0.10718(8)
H18_4 H 0.0676 0.0633 0.1081
C26_4 C 0.18552(17) 0.11365(10) 0.10435(6)
C27_4 C 0.28018(18) 0.10719(11) 0.10320(8)
H19_4 H 0.3168 0.1435 0.1011
C28_4 C 0.32062(19) 0.04805(12) 0.10505(8)
H20_4 H 0.3842 0.0444 0.1046
C29_4 C 0.14461(17) 0.17970(10) 0.10205(7)
C22_4 C 0.31195(18) 0.92822(11) 0.10768(7)
C23_4 C 0.26639(18) 0.99340(11) 0.10762(7)
C24_4 C 0.17229(19) 0.99952(11) 0.10865(8)
H17_4 H 0.1358 0.9631 0.1103
O7_4 O 0.39717(13) 0.92562(9) 0.10842(7)
O9_4 O 0.26252(15) 0.87971(8) 0.10654(7)
H14_3 H 0.0145 0.1188 0.0320
C39_3 C 0.0215(2) 0.35533(14) 0.01517(8)
C40_3 C 0.13286(19) 0.28167(14) 0.00731(8)
H31_3 H 0.1757 0.2541 0.0189
H10_3 H 0.0117 0.3220 0.8101
C15_4 C 0.0000 0.2500 0.85314(10)
H13_3 H 0.0356 0.1139 0.9621
C30_3 C 0.0610(3) 0.15555(16) 0.69779(9)
H21_3 H 0.0303 0.1216 0.6855
C31_3 C 0.0585(3) 0.15954(18) 0.74037(9)
H22_3 H 0.0285 0.1288 0.7561
C32_3 C 0.1018(2) 0.21045(19) 0.75840(9)
C33_3 C 0.1471(2) 0.25303(19) 0.73426(9)
H23_3 H 0.1778 0.2877 0.7458
C34_3 C 0.1464(2) 0.24380(16) 0.69266(9)
H24_3 H 0.1783 0.2729 0.6764
C35_3 C 0.0376(3) 0.1967(2) 0.82617(9)
H25_3 H 0.0640 0.1634 0.8432
C36_3 C 0.0770(2) 0.2765(2) 0.87962(9)
H27_3 H 0.1053 0.2423 0.8952
H28_3 H 0.1236 0.2959 0.8623
C37_3 C 0.0597(2) 0.32105(14) 0.94789(8)
C38_3 C 0.0082(2) 0.35854(15) 0.97310(8)
C41_3 C 0.1256(2) 0.28285(17) 0.96506(8)
H32_3 H 0.1644 0.2584 0.9487
N3_3 N 0.10319(15) 0.19589(10) 0.67373(7)
O15_3 O 0.10583(16) 0.22217(17) 0.79951(7)
O16_3 O 0.03939(19) 0.32386(13) 0.90733(6)
C19_3 C 0.9785(2) 0.14467(14) 0.01517(8)
C20_3 C 0.86714(19) 0.21833(14) 0.00731(8)
H15_3 H 0.8243 0.2459 0.0189
H30_3 H 0.9855 0.3812 0.0320
C9_3 C 0.9390(3) 0.34445(16) 0.69779(9)
H5_3 H 0.9697 0.3784 0.6855
C10_3 C 0.9415(3) 0.34046(18) 0.74037(9)
H6_3 H 0.9715 0.3712 0.7561
C11_3 C 0.8982(2) 0.28955(19) 0.75840(9)
C12_3 C 0.8529(2) 0.24697(19) 0.73426(9)
H7_3 H 0.8222 0.2123 0.7458
C13_3 C 0.8536(2) 0.25620(16) 0.69266(9)
H8_3 H 0.8217 0.2271 0.6764
C14_3 C 0.9624(3) 0.3033(2) 0.82617(9)
H9_3 H 0.9360 0.3366 0.8432
C15_5 C 1.0000 0.2500 0.85314(10)
C16_3 C 0.9230(2) 0.2235(2) 0.87962(9)
H11_3 H 0.8947 0.2577 0.8952
H12_3 H 0.8764 0.2041 0.8623
C17_3 C 0.9403(2) 0.17895(14) 0.94789(8)
C18_3 C 0.9918(2) 0.14146(15) 0.97310(8)
C21_3 C 0.8744(2) 0.21715(17) 0.96506(8)
H16_3 H 0.8356 0.2416 0.9487
N1_3 N 0.89681(15) 0.30411(10) 0.67373(7)
O5_3 O 0.89417(16) 0.27783(17) 0.79951(7)
O6_3 O 0.96061(19) 0.17614(13) 0.90733(6)
H26_3 H 0.9883 0.1780 0.8101
H29_3 H 0.9644 0.3861 0.9621
C9_4 C 0.5610(3) 0.65555(16) 0.19779(9)
H5_4 H 0.5303 0.6216 0.1855
C10_4 C 0.5585(3) 0.65954(18) 0.24037(9)
H6_4 H 0.5285 0.6288 0.2561
C11_4 C 0.6018(2) 0.71045(19) 0.25840(9)
C12_4 C 0.6471(2) 0.75303(19) 0.23426(9)
H7_4 H 0.6778 0.7877 0.2458
C13_4 C 0.6464(2) 0.74380(16) 0.19266(9)
H8_4 H 0.6783 0.7729 0.1764
C14_4 C 0.5376(3) 0.6967(2) 0.32617(9)
H9_4 H 0.5640 0.6634 0.3432
H10_4 H 0.4883 0.6780 0.3101
C15_6 C 0.5000 0.7500 0.35314(10)
C16_4 C 0.5770(2) 0.7765(2) 0.37962(9)
H11_4 H 0.6053 0.7423 0.3952
H12_4 H 0.6236 0.7959 0.3623
C17_4 C 0.5597(2) 0.82105(14) 0.44789(8)
C18_4 C 0.5082(2) 0.85854(15) 0.47310(8)
H13_4 H 0.4644 0.8861 0.4621
C19_4 C 0.5215(2) 0.85533(14) 0.51517(8)
H14_4 H 0.4855 0.8812 0.5320
C20_4 C 0.63286(19) 0.78167(14) 0.50731(8)
H15_4 H 0.6757 0.7541 0.5189
C21_4 C 0.6256(2) 0.78285(17) 0.46506(8)
H16_4 H 0.6644 0.7584 0.4487
N1_4 N 0.60319(15) 0.69589(10) 0.17373(7)
O5_4 O 0.60583(16) 0.72217(17) 0.29951(7)
O6_4 O 0.53939(19) 0.82386(13) 0.40733(6)
C30_4 C 0.4390(3) 0.84445(16) 0.19779(9)
H21_4 H 0.4697 0.8784 0.1855
C31_4 C 0.4415(3) 0.84046(18) 0.24037(9)
H22_4 H 0.4715 0.8712 0.2561
C32_4 C 0.3982(2) 0.78955(19) 0.25840(9)
C33_4 C 0.3529(2) 0.74697(19) 0.23426(9)
H23_4 H 0.3222 0.7123 0.2458
C34_4 C 0.3536(2) 0.75620(16) 0.19266(9)
H24_4 H 0.3217 0.7271 0.1764
C35_4 C 0.4624(3) 0.8033(2) 0.32617(9)
H25_4 H 0.4360 0.8366 0.3432
H26_4 H 0.5117 0.8220 0.3101
C36_4 C 0.4230(2) 0.7235(2) 0.37962(9)
H27_4 H 0.3947 0.7577 0.3952
H28_4 H 0.3764 0.7041 0.3623
C37_4 C 0.4403(2) 0.67895(14) 0.44789(8)
C38_4 C 0.4918(2) 0.64146(15) 0.47310(8)
H29_4 H 0.5356 0.6139 0.4621
C39_4 C 0.4785(2) 0.64467(14) 0.51517(8)
H30_4 H 0.5145 0.6188 0.5320
C40_4 C 0.36714(19) 0.71833(14) 0.50731(8)
H31_4 H 0.3243 0.7459 0.5189
C41_4 C 0.3744(2) 0.71715(17) 0.46506(8)
H32_4 H 0.3356 0.7416 0.4487
N3_4 N 0.39681(15) 0.80411(10) 0.17373(7)
O15_4 O 0.39417(16) 0.77783(17) 0.29951(7)
O16_4 O 0.46061(19) 0.67614(13) 0.40733(6)
C22_5 C 0.31195(18) 0.07178(11) 0.39232(7)
C23_5 C 0.26639(18) 0.00660(11) 0.39238(7)
C24_5 C 0.17229(19) 0.00048(11) 0.39135(8)
H17_5 H 0.1358 0.0369 0.3897
Cd7_2 Cd 0.398179(11) 0.187179(7) 0.397038(5)
O7_5 O 0.39717(13) 0.07438(9) 0.39158(7)
O9_5 O 0.26252(15) 0.12029(8) 0.39346(7)
C1_5 C 0.18805(18) 0.57178(11) 0.39232(7)
C2_5 C 0.23361(18) 0.50660(11) 0.39238(7)
C3_5 C 0.32771(19) 0.50048(11) 0.39135(8)
H1_5 H 0.3642 0.5369 0.3897
C4_5 C 0.36886(18) 0.44043(11) 0.39282(8)
H2_5 H 0.4324 0.4367 0.3919
C5_5 C 0.31448(17) 0.38635(10) 0.39565(6)
C6_5 C 0.21982(18) 0.39281(11) 0.39680(8)
H3_5 H 0.1832 0.3565 0.3989
C7_5 C 0.17938(19) 0.45195(12) 0.39495(8)
H4_5 H 0.1158 0.4556 0.3954
C8_5 C 0.35539(17) 0.32030(10) 0.39795(7)
C9_5 C 0.0610(3) 0.65555(16) 0.30221(9)
H5_5 H 0.0303 0.6216 0.3145
C10_5 C 0.0585(3) 0.65954(18) 0.25963(9)
H6_5 H 0.0285 0.6288 0.2439
C11_5 C 0.1018(2) 0.71045(19) 0.24160(9)
C12_5 C 0.1471(2) 0.75303(19) 0.26574(9)
H7_5 H 0.1778 0.7877 0.2542
C13_5 C 0.1464(2) 0.74380(16) 0.30734(9)
H8_5 H 0.1783 0.7729 0.3236
C14_5 C 0.0376(3) 0.6967(2) 0.17383(9)
H9_5 H 0.0640 0.6634 0.1568
C15_7 C -0.0000 0.7500 0.14686(10)
C16_5 C 0.0770(2) 0.7765(2) 0.12038(9)
H11_5 H 0.1053 0.7423 0.1048
H12_5 H 0.1236 0.7959 0.1377
C17_5 C 0.0597(2) 0.82105(14) 0.05211(8)
C18_5 C 0.0082(2) 0.85854(15) 0.02690(8)
C21_5 C 0.1256(2) 0.78285(17) 0.03494(8)
H16_5 H 0.1644 0.7584 0.0513
Cd1_3 Cd 0.101821(11) 0.687179(7) 0.397038(5)
N1_5 N 0.10319(15) 0.69589(10) 0.32627(7)
O1_3 O 0.10283(13) 0.57438(9) 0.39158(7)
O2_3 O 0.23748(15) 0.62029(8) 0.39346(7)
O3_5 O 0.30275(13) 0.27416(7) 0.40316(5)
O4_5 O 0.44036(15) 0.31338(7) 0.39397(5)
O5_5 O 0.10583(16) 0.72217(17) 0.20049(7)
O6_5 O 0.03939(19) 0.82386(13) 0.09267(6)
C25_5 C 0.13114(18) 0.94043(11) 0.39282(8)
H18_5 H 0.0676 0.9367 0.3919
C26_5 C 0.18552(17) 0.88635(10) 0.39565(6)
C27_5 C 0.28018(18) 0.89281(11) 0.39680(8)
H19_5 H 0.3168 0.8565 0.3989
C28_5 C 0.32062(19) 0.95195(12) 0.39495(8)
H20_5 H 0.3842 0.9556 0.3954
C29_5 C 0.14461(17) 0.82030(10) 0.39795(7)
H26_5 H 0.0117 0.8220 0.1899
H29_5 H 0.0356 0.6139 0.0379
Cd5_2 Cd 0.601821(11) 0.312821(7) 0.397038(5)
N5_3 N 0.08247(15) 0.68247(9) 0.46731(6)
O11_3 O 0.19725(13) 0.77416(7) 0.40316(5)
O13_3 O 0.05964(15) 0.81338(7) 0.39397(5)
C19_5 C 0.0215(2) 0.85533(14) 0.98483(8)
C20_5 C 0.13286(19) 0.78167(14) 0.99269(8)
H15_5 H 0.1757 0.7541 0.9811
N2_3 N 0.08247(15) 0.81753(9) 0.96731(6)
H30_5 H 0.0145 0.6188 0.9680
Cd3_2 Cd 0.101821(11) 0.812821(7) 0.897038(5)
H10_5 H 0.9883 0.6780 0.1899
C15_8 C 1.0000 0.7500 0.14686(10)
H13_5 H 0.9644 0.8861 0.0379
C30_5 C 0.9390(3) 0.84445(16) 0.30221(9)
H21_5 H 0.9697 0.8784 0.3145
C31_5 C 0.9415(3) 0.84046(18) 0.25963(9)
H22_5 H 0.9715 0.8712 0.2439
C32_5 C 0.8982(2) 0.78955(19) 0.24160(9)
C33_5 C 0.8529(2) 0.74697(19) 0.26574(9)
H23_5 H 0.8222 0.7123 0.2542
C34_5 C 0.8536(2) 0.75620(16) 0.30734(9)
H24_5 H 0.8217 0.7271 0.3236
C35_5 C 0.9624(3) 0.8033(2) 0.17383(9)
H25_5 H 0.9360 0.8366 0.1568
C36_5 C 0.9230(2) 0.7235(2) 0.12038(9)
H27_5 H 0.8947 0.7577 0.1048
H28_5 H 0.8764 0.7041 0.1377
C37_5 C 0.9403(2) 0.67895(14) 0.05211(8)
C38_5 C 0.9918(2) 0.64146(15) 0.02690(8)
C41_5 C 0.8744(2) 0.71715(17) 0.03494(8)
H32_5 H 0.8356 0.7416 0.0513
Cd2_3 Cd 0.898179(11) 0.812821(7) 0.397038(5)
N3_5 N 0.89681(15) 0.80411(10) 0.32627(7)
N6_3 N 0.91753(15) 0.81753(9) 0.46731(6)
O8_3 O 0.89717(13) 0.92562(9) 0.39158(7)
O10_3 O 0.76252(15) 0.87971(8) 0.39346(7)
O12_3 O 0.80275(13) 0.72584(7) 0.40316(5)
O14_3 O 0.94036(15) 0.68662(7) 0.39397(5)
O15_5 O 0.89417(16) 0.77783(17) 0.20049(7)
O16_5 O 0.96061(19) 0.67614(13) 0.09267(6)
H14_5 H 0.9855 0.8812 0.9680
C39_5 C 0.9785(2) 0.64467(14) 0.98483(8)
C40_5 C 0.86714(19) 0.71833(14) 0.99269(8)
H31_5 H 0.8243 0.7459 0.9811
Cd6_2 Cd 0.898179(11) 0.687179(7) 0.897038(5)
N4_3 N 0.91753(15) 0.68247(9) 0.96731(6)
C1_6 C 0.31195(18) 0.42822(11) 0.89232(7)
C2_6 C 0.26639(18) 0.49340(11) 0.89238(7)
C3_6 C 0.17229(19) 0.49952(11) 0.89135(8)
H1_6 H 0.1358 0.4631 0.8897
C4_6 C 0.13114(18) 0.55957(11) 0.89282(8)
H2_6 H 0.0676 0.5633 0.8919
C5_6 C 0.18552(17) 0.61365(10) 0.89565(6)
C6_6 C 0.28018(18) 0.60719(11) 0.89680(8)
H3_6 H 0.3168 0.6435 0.8989
C7_6 C 0.32062(19) 0.54805(12) 0.89495(8)
H4_6 H 0.3842 0.5444 0.8954
C8_6 C 0.14461(17) 0.67970(10) 0.89795(7)
C9_6 C 0.4390(3) 0.34445(16) 0.80221(9)
H5_6 H 0.4697 0.3784 0.8145
C10_6 C 0.4415(3) 0.34046(18) 0.75963(9)
H6_6 H 0.4715 0.3712 0.7439
C11_6 C 0.3982(2) 0.28955(19) 0.74160(9)
C12_6 C 0.3529(2) 0.24697(19) 0.76574(9)
H7_6 H 0.3222 0.2123 0.7542
C13_6 C 0.3536(2) 0.25620(16) 0.80734(9)
H8_6 H 0.3217 0.2271 0.8236
C14_6 C 0.4624(3) 0.3033(2) 0.67383(9)
H9_6 H 0.4360 0.3366 0.6568
H10_6 H 0.5117 0.3220 0.6899
C15_9 C 0.5000 0.2500 0.64686(10)
C16_6 C 0.4230(2) 0.2235(2) 0.62038(9)
H11_6 H 0.3947 0.2577 0.6048
H12_6 H 0.3764 0.2041 0.6377
C17_6 C 0.4403(2) 0.17895(14) 0.55211(8)
C18_6 C 0.4918(2) 0.14146(15) 0.52690(8)
H13_6 H 0.5356 0.1139 0.5379
C19_6 C 0.4785(2) 0.14467(14) 0.48483(8)
H14_6 H 0.5145 0.1188 0.4680
C20_6 C 0.36714(19) 0.21833(14) 0.49269(8)
H15_6 H 0.3243 0.2459 0.4811
C21_6 C 0.3744(2) 0.21715(17) 0.53494(8)
H16_6 H 0.3356 0.2416 0.5513
Cd1_4 Cd 0.398179(11) 0.312821(7) 0.897038(5)
N1_6 N 0.39681(15) 0.30411(10) 0.82627(7)
N2_4 N 0.41753(15) 0.18247(9) 0.46731(6)
O1_4 O 0.39717(13) 0.42562(9) 0.89158(7)
O2_4 O 0.26252(15) 0.37971(8) 0.89346(7)
O3_6 O 0.19725(13) 0.72584(7) 0.90316(5)
O4_6 O 0.05964(15) 0.68662(7) 0.89397(5)
O5_6 O 0.39417(16) 0.27783(17) 0.70049(7)
O6_6 O 0.46061(19) 0.17614(13) 0.59267(6)
C25_6 C 0.36886(18) 0.05957(11) 0.89282(8)
H18_6 H 0.4324 0.0633 0.8919
C26_6 C 0.31448(17) 0.11365(10) 0.89565(6)
C27_6 C 0.21982(18) 0.10719(11) 0.89680(8)
H19_6 H 0.1832 0.1435 0.8989
C28_6 C 0.17938(19) 0.04805(12) 0.89495(8)
H20_6 H 0.1158 0.0444 0.8954
C29_6 C 0.35539(17) 0.17970(10) 0.89795(7)
C30_6 C 0.5610(3) 0.15555(16) 0.80221(9)
H21_6 H 0.5303 0.1216 0.8145
C31_6 C 0.5585(3) 0.15954(18) 0.75963(9)
H22_6 H 0.5285 0.1288 0.7439
C32_6 C 0.6018(2) 0.21045(19) 0.74160(9)
C33_6 C 0.6471(2) 0.25303(19) 0.76574(9)
H23_6 H 0.6778 0.2877 0.7542
C34_6 C 0.6464(2) 0.24380(16) 0.80734(9)
H24_6 H 0.6783 0.2729 0.8236
C35_6 C 0.5376(3) 0.1967(2) 0.67383(9)
H25_6 H 0.5640 0.1634 0.6568
H26_6 H 0.4883 0.1780 0.6899
C36_6 C 0.5770(2) 0.2765(2) 0.62038(9)
H27_6 H 0.6053 0.2423 0.6048
H28_6 H 0.6236 0.2959 0.6377
C37_6 C 0.5597(2) 0.32105(14) 0.55211(8)
C38_6 C 0.5082(2) 0.35854(15) 0.52690(8)
H29_6 H 0.4644 0.3861 0.5379
C39_6 C 0.5215(2) 0.35533(14) 0.48483(8)
H30_6 H 0.4855 0.3812 0.4680
C40_6 C 0.63286(19) 0.28167(14) 0.49269(8)
H31_6 H 0.6757 0.2541 0.4811
C41_6 C 0.6256(2) 0.28285(17) 0.53494(8)
H32_6 H 0.6644 0.2584 0.5513
Cd2_4 Cd 0.601821(11) 0.187179(7) 0.897038(5)
N3_6 N 0.60319(15) 0.19589(10) 0.82627(7)
N4_4 N 0.58247(15) 0.31753(9) 0.46731(6)
N5_4 N 0.41753(15) 0.31753(9) 0.96731(6)
N6_4 N 0.58247(15) 0.18247(9) 0.96731(6)
O8_4 O 0.60283(13) 0.07438(9) 0.89158(7)
O10_4 O 0.73748(15) 0.12029(8) 0.89346(7)
O11_4 O 0.30275(13) 0.22584(7) 0.90316(5)
O12_4 O 0.69725(13) 0.27416(7) 0.90316(5)
O13_4 O 0.44036(15) 0.18662(7) 0.89397(5)
O14_4 O 0.55964(15) 0.31338(7) 0.89397(5)
O15_6 O 0.60583(16) 0.22217(17) 0.70049(7)
O16_6 O 0.53939(19) 0.32386(13) 0.59267(6)
C22_6 C 0.18805(18) 0.92822(11) 0.89232(7)
C23_6 C 0.23361(18) 0.99340(11) 0.89238(7)
C24_6 C 0.32771(19) 0.99952(11) 0.89135(8)
H17_6 H 0.3642 0.9631 0.8897
O7_6 O 0.10283(13) 0.92562(9) 0.89158(7)
O9_6 O 0.23748(15) 0.87971(8) 0.89346(7)
C1_7 C 0.68805(18) 0.07178(11) 0.89232(7)
C2_7 C 0.73361(18) 0.00660(11) 0.89238(7)
C3_7 C 0.82771(19) 0.00048(11) 0.89135(8)
H1_7 H 0.8642 0.0369 0.8897
C22_7 C 0.81195(18) 0.57178(11) 0.89232(7)
C23_7 C 0.76639(18) 0.50660(11) 0.89238(7)
C24_7 C 0.67229(19) 0.50048(11) 0.89135(8)
H17_7 H 0.6358 0.5369 0.8897
C25_7 C 0.63114(18) 0.44043(11) 0.89282(8)
H18_7 H 0.5676 0.4367 0.8919
C26_7 C 0.68552(17) 0.38635(10) 0.89565(6)
C27_7 C 0.78018(18) 0.39281(11) 0.89680(8)
H19_7 H 0.8168 0.3565 0.8989
C28_7 C 0.82062(19) 0.45195(12) 0.89495(8)
H20_7 H 0.8842 0.4556 0.8954
C29_7 C 0.64461(17) 0.32030(10) 0.89795(7)
O7_7 O 0.89717(13) 0.57438(9) 0.89158(7)
O9_7 O 0.76252(15) 0.62029(8) 0.89346(7)
C4_7 C 0.86886(18) 0.94043(11) 0.89282(8)
H2_7 H 0.9324 0.9367 0.8919
C5_7 C 0.81448(17) 0.88635(10) 0.89565(6)
C6_7 C 0.71982(18) 0.89281(11) 0.89680(8)
H3_7 H 0.6832 0.8565 0.8989
C7_7 C 0.67938(19) 0.95195(12) 0.89495(8)
H4_7 H 0.6158 0.9556 0.8954
C8_7 C 0.85539(17) 0.82030(10) 0.89795(7)
O3_7 O 0.80275(13) 0.77416(7) 0.90316(5)
O4_7 O 0.94036(15) 0.81338(7) 0.89397(5)
C4_8 C 0.63114(18) 0.05957(11) 0.39282(8)
H2_8 H 0.5676 0.0633 0.3919
C5_8 C 0.68552(17) 0.11365(10) 0.39565(6)
C6_8 C 0.78018(18) 0.10719(11) 0.39680(8)
H3_8 H 0.8168 0.1435 0.3989
C7_8 C 0.82062(19) 0.04805(12) 0.39495(8)
H4_8 H 0.8842 0.0444 0.3954
C8_8 C 0.64461(17) 0.17970(10) 0.39795(7)
O3_8 O 0.69725(13) 0.22584(7) 0.40316(5)
O4_8 O 0.55964(15) 0.18662(7) 0.39397(5)
C1_8 C 0.81195(18) 0.92822(11) 0.39232(7)
C2_8 C 0.76639(18) 0.99340(11) 0.39238(7)
C3_8 C 0.67229(19) 0.99952(11) 0.39135(8)
H1_8 H 0.6358 0.9631 0.3897
C22_8 C 0.68805(18) 0.42822(11) 0.39232(7)
C23_8 C 0.73361(18) 0.49340(11) 0.39238(7)
C24_8 C 0.82771(19) 0.49952(11) 0.39135(8)
H17_8 H 0.8642 0.4631 0.3897
C25_8 C 0.86886(18) 0.55957(11) 0.39282(8)
H18_8 H 0.9324 0.5633 0.3919
C26_8 C 0.81448(17) 0.61365(10) 0.39565(6)
C27_8 C 0.71982(18) 0.60719(11) 0.39680(8)
H19_8 H 0.6832 0.6435 0.3989
C28_8 C 0.67938(19) 0.54805(12) 0.39495(8)
H20_8 H 0.6158 0.5444 0.3954
C29_8 C 0.85539(17) 0.67970(10) 0.39795(7)
O7_8 O 0.60283(13) 0.42562(9) 0.39158(7)
O9_8 O 0.73748(15) 0.37971(8) 0.39346(7)
C9_7 C 0.0610(3) 0.84445(16) 0.80221(9)
H5_7 H 0.0303 0.8784 0.8145
C10_7 C 0.0585(3) 0.84046(18) 0.75963(9)
H6_7 H 0.0285 0.8712 0.7439
C11_7 C 0.1018(2) 0.78955(19) 0.74160(9)
C12_7 C 0.1471(2) 0.74697(19) 0.76574(9)
H7_7 H 0.1778 0.7123 0.7542
C13_7 C 0.1464(2) 0.75620(16) 0.80734(9)
H8_7 H 0.1783 0.7271 0.8236
C14_7 C 0.0376(3) 0.8033(2) 0.67383(9)
H9_7 H 0.0640 0.8366 0.6568
C15_10 C -0.0000 0.7500 0.64686(10)
C16_7 C 0.0770(2) 0.7235(2) 0.62038(9)
H11_7 H 0.1053 0.7577 0.6048
H12_7 H 0.1236 0.7041 0.6377
C17_7 C 0.0597(2) 0.67895(14) 0.55211(8)
C18_7 C 0.0082(2) 0.64146(15) 0.52690(8)
C19_7 C 0.0215(2) 0.64467(14) 0.48483(8)
C20_7 C 0.13286(19) 0.71833(14) 0.49269(8)
H15_7 H 0.1757 0.7459 0.4811
C21_7 C 0.1256(2) 0.71715(17) 0.53494(8)
H16_7 H 0.1644 0.7416 0.5513
N1_7 N 0.10319(15) 0.80411(10) 0.82627(7)
O5_7 O 0.10583(16) 0.77783(17) 0.70049(7)
O6_7 O 0.03939(19) 0.67614(13) 0.59267(6)
H26_7 H 0.0117 0.6780 0.6899
H29_7 H 0.0356 0.8861 0.5379
H30_7 H 0.0145 0.8812 0.4680
H10_7 H 0.9883 0.8220 0.6899
C15_11 C 1.0000 0.7500 0.64686(10)
H13_7 H 0.9644 0.6139 0.5379
H14_7 H 0.9855 0.6188 0.4680
C30_7 C 0.9390(3) 0.65555(16) 0.80221(9)
H21_7 H 0.9697 0.6216 0.8145
C31_7 C 0.9415(3) 0.65954(18) 0.75963(9)
H22_7 H 0.9715 0.6288 0.7439
C32_7 C 0.8982(2) 0.71045(19) 0.74160(9)
C33_7 C 0.8529(2) 0.75303(19) 0.76574(9)
H23_7 H 0.8222 0.7877 0.7542
C34_7 C 0.8536(2) 0.74380(16) 0.80734(9)
H24_7 H 0.8217 0.7729 0.8236
C35_7 C 0.9624(3) 0.6967(2) 0.67383(9)
H25_7 H 0.9360 0.6634 0.6568
C36_7 C 0.9230(2) 0.7765(2) 0.62038(9)
H27_7 H 0.8947 0.7423 0.6048
H28_7 H 0.8764 0.7959 0.6377
C37_7 C 0.9403(2) 0.82105(14) 0.55211(8)
C38_7 C 0.9918(2) 0.85854(15) 0.52690(8)
C39_7 C 0.9785(2) 0.85533(14) 0.48483(8)
C40_7 C 0.86714(19) 0.78167(14) 0.49269(8)
H31_7 H 0.8243 0.7541 0.4811
C41_7 C 0.8744(2) 0.78285(17) 0.53494(8)
H32_7 H 0.8356 0.7584 0.5513
N3_7 N 0.89681(15) 0.69589(10) 0.82627(7)
O15_7 O 0.89417(16) 0.72217(17) 0.70049(7)
O16_7 O 0.96061(19) 0.82386(13) 0.59267(6)
C9_8 C 0.4390(3) 0.15555(16) 0.30221(9)
H5_8 H 0.4697 0.1216 0.3145
C10_8 C 0.4415(3) 0.15954(18) 0.25963(9)
H6_8 H 0.4715 0.1288 0.2439
C11_8 C 0.3982(2) 0.21045(19) 0.24160(9)
C12_8 C 0.3529(2) 0.25303(19) 0.26574(9)
H7_8 H 0.3222 0.2877 0.2542
C13_8 C 0.3536(2) 0.24380(16) 0.30734(9)
H8_8 H 0.3217 0.2729 0.3236
C14_8 C 0.4624(3) 0.1967(2) 0.17383(9)
H9_8 H 0.4360 0.1634 0.1568
H10_8 H 0.5117 0.1780 0.1899
C15_12 C 0.5000 0.2500 0.14686(10)
C16_8 C 0.4230(2) 0.2765(2) 0.12038(9)
H11_8 H 0.3947 0.2423 0.1048
H12_8 H 0.3764 0.2959 0.1377
C17_8 C 0.4403(2) 0.32105(14) 0.05211(8)
C18_8 C 0.4918(2) 0.35854(15) 0.02690(8)
H13_8 H 0.5356 0.3861 0.0379
C21_8 C 0.3744(2) 0.28285(17) 0.03494(8)
H16_8 H 0.3356 0.2584 0.0513
N1_8 N 0.39681(15) 0.19589(10) 0.32627(7)
O5_8 O 0.39417(16) 0.22217(17) 0.20049(7)
O6_8 O 0.46061(19) 0.32386(13) 0.09267(6)
C30_8 C 0.5610(3) 0.34445(16) 0.30221(9)
H21_8 H 0.5303 0.3784 0.3145
C31_8 C 0.5585(3) 0.34046(18) 0.25963(9)
H22_8 H 0.5285 0.3712 0.2439
C32_8 C 0.6018(2) 0.28955(19) 0.24160(9)
C33_8 C 0.6471(2) 0.24697(19) 0.26574(9)
H23_8 H 0.6778 0.2123 0.2542
C34_8 C 0.6464(2) 0.25620(16) 0.30734(9)
H24_8 H 0.6783 0.2271 0.3236
C35_8 C 0.5376(3) 0.3033(2) 0.17383(9)
H25_8 H 0.5640 0.3366 0.1568
H26_8 H 0.4883 0.3220 0.1899
C36_8 C 0.5770(2) 0.2235(2) 0.12038(9)
H27_8 H 0.6053 0.2577 0.1048
H28_8 H 0.6236 0.2041 0.1377
C37_8 C 0.5597(2) 0.17895(14) 0.05211(8)
C38_8 C 0.5082(2) 0.14146(15) 0.02690(8)
H29_8 H 0.4644 0.1139 0.0379
C41_8 C 0.6256(2) 0.21715(17) 0.03494(8)
H32_8 H 0.6644 0.2416 0.0513
N3_8 N 0.60319(15) 0.30411(10) 0.32627(7)
O15_8 O 0.60583(16) 0.27783(17) 0.20049(7)
O16_8 O 0.53939(19) 0.17614(13) 0.09267(6)
C19_8 C 0.4785(2) 0.35533(14) 0.98483(8)
H14_8 H 0.5145 0.3812 0.9680
C20_8 C 0.36714(19) 0.28167(14) 0.99269(8)
H15_8 H 0.3243 0.2541 0.9811
C39_8 C 0.5215(2) 0.14467(14) 0.98483(8)
H30_8 H 0.4855 0.1188 0.9680
C40_8 C 0.63286(19) 0.21833(14) 0.99269(8)
H31_8 H 0.6757 0.2459 0.9811
loop_
_geom_bond_atom_site_label_1
_geom_bond_atom_site_label_2
_geom_bond_site_symmetry_1
_geom_bond_site_symmetry_2
C30 H21 1_555 1_555
C31 C30 1_555 1_555
H22 C31 1_555 1_555
C32 C31 1_555 1_555
C33 C32 1_555 1_555
H23 C33 1_555 1_555
C34 C33 1_555 1_555
H24 C34 1_555 1_555
C35 C15 1_555 1_555
H25 C35 1_555 1_555
C36 C15 1_555 1_555
H27 C36 1_555 1_555
H28 C36 1_555 1_555
C37 C38 1_555 1_555
C39 C38 1_555 1_555
C40 H31 1_555 1_555
C41 C37 1_555 1_555
H32 C41 1_555 1_555
Cd2 N3 1_555 1_555
Cd6 N4 1_555 1_555
N3 C30 1_555 1_555
N4 C39 1_555 1_555
N6 Cd2 1_555 1_555
O8 Cd2 1_555 1_555
O10 Cd2 1_555 1_555
O12 Cd2 1_555 1_555
O15 C32 1_555 1_555
O16 C36 1_555 1_555
C34 N3 1_555 1_555
C35 O15 1_555 1_555
C37 O16 1_555 1_555
C40 C41 1_555 1_555
C40 N4 1_555 1_555
C1 C2 1_555 1_555
C2 C3 1_555 1_555
C3 H1 1_555 1_555
C9 H5 1_555 1_555
C10 C9 1_555 1_555
H6 C10 1_555 1_555
C11 C10 1_555 1_555
C12 C11 1_555 1_555
H7 C12 1_555 1_555
C13 C12 1_555 1_555
H8 C13 1_555 1_555
C14 H9 1_555 1_555
C15_2 C14 1_555 1_555
C16 C15_2 1_555 1_555
H11 C16 1_555 1_555
H12 C16 1_555 1_555
C17 C18 1_555 1_555
C19 C18 1_555 1_555
C20 H15 1_555 1_555
C21 C17 1_555 1_555
H16 C21 1_555 1_555
Cd1 N1 1_555 1_555
N1 C9 1_555 1_555
N2 C19 1_555 1_555
O1 C1 1_555 1_555
O2 C1 1_555 1_555
O5 C11 1_555 1_555
O6 C16 1_555 1_555
C22 C23 1_555 1_555
C23 C24 1_555 1_555
C24 H17 1_555 1_555
C25 C24 1_555 1_555
H18 C25 1_555 1_555
C26 C25 1_555 1_555
C27 C26 1_555 1_555
H19 C27 1_555 1_555
C28 C23 1_555 1_555
H20 C28 1_555 1_555
C29 C26 1_555 1_555
Cd3 N2 1_555 1_555
Cd7 O7 1_555 1_555
N5 Cd1 1_555 1_555
O7 C22 1_555 1_555
O9 C22 1_555 1_555
O11 Cd1 1_555 1_555
O13 C29 1_555 1_555
C13 N1 1_555 1_555
C14 O5 1_555 1_555
C17 O6 1_555 1_555
C20 C21 1_555 1_555
C20 N2 1_555 1_555
Cd1 O1 1_555 1_555
Cd1 O2 1_555 1_555
C27 C28 1_555 1_555
C29 O11 1_555 1_555
Cd7 O9 1_555 1_555
H2 C4 1_555 1_555
C5 C4 1_555 1_555
C6 C5 1_555 1_555
H3 C6 1_555 1_555
H4 C7 1_555 1_555
C8 C5 1_555 1_555
O3 C8 1_555 1_555
O4 C8 1_555 1_555
Cd7 O3 1_555 1_555
Cd5 O4 1_555 1_555
C6 C7 1_555 1_555
H2_2 C4_2 1_555 1_555
C5_2 C4_2 1_555 1_555
C6_2 C5_2 1_555 1_555
H3_2 C6_2 1_555 1_555
H4_2 C7_2 1_555 1_555
C8_2 C5_2 1_555 1_555
O3_2 C8_2 1_555 1_555
O4_2 C8_2 1_555 1_555
Cd3 O3_2 1_555 1_555
C6_2 C7_2 1_555 1_555
H14_2 C19_2 1_555 1_555
C20_2 H15_2 1_555 1_555
N2_2 C19_2 1_555 1_555
H30_2 C39_2 1_555 1_555
C40_2 H31_2 1_555 1_555
Cd7 N2_2 1_555 1_555
Cd5 N4_2 1_555 1_555
N4_2 C39_2 1_555 1_555
C20_2 N2_2 1_555 1_555
C40_2 N4_2 1_555 1_555
C1_2 C2_2 1_555 1_555
C2_2 C3_2 1_555 1_555
C3_2 H1_2 1_555 1_555
C9_2 H5_2 1_555 1_555
C10_2 C9_2 1_555 1_555
H6_2 C10_2 1_555 1_555
C11_2 C10_2 1_555 1_555
C12_2 C11_2 1_555 1_555
H7_2 C12_2 1_555 1_555
C13_2 C12_2 1_555 1_555
H8_2 C13_2 1_555 1_555
C14_2 H9_2 1_555 1_555
H10_2 C14_2 1_555 1_555
C15_3 C14_2 1_555 1_555
C16_2 C15_3 1_555 1_555
H11_2 C16_2 1_555 1_555
H12_2 C16_2 1_555 1_555
C17_2 C18_2 1_555 1_555
C18_2 H13_2 1_555 1_555
C21_2 C17_2 1_555 1_555
H16_2 C21_2 1_555 1_555
Cd1_2 N1_2 1_555 1_555
N1_2 C9_2 1_555 1_555
O1_2 C1_2 1_555 1_555
O2_2 C1_2 1_555 1_555
O5_2 C11_2 1_555 1_555
O6_2 C16_2 1_555 1_555
C22_2 C23_2 1_555 1_555
C23_2 C24_2 1_555 1_555
C24_2 H17_2 1_555 1_555
C25_2 C24_2 1_555 1_555
H18_2 C25_2 1_555 1_555
C26_2 C25_2 1_555 1_555
C27_2 C26_2 1_555 1_555
H19_2 C27_2 1_555 1_555
C28_2 C23_2 1_555 1_555
H20_2 C28_2 1_555 1_555
C29_2 C26_2 1_555 1_555
C30_2 H21_2 1_555 1_555
C31_2 C30_2 1_555 1_555
H22_2 C31_2 1_555 1_555
C32_2 C31_2 1_555 1_555
C33_2 C32_2 1_555 1_555
H23_2 C33_2 1_555 1_555
C34_2 C33_2 1_555 1_555
H24_2 C34_2 1_555 1_555
C35_2 C15_3 1_555 1_555
H25_2 C35_2 1_555 1_555
H26_2 C35_2 1_555 1_555
C36_2 C15_3 1_555 1_555
H27_2 C36_2 1_555 1_555
H28_2 C36_2 1_555 1_555
C37_2 C38_2 1_555 1_555
C38_2 H29_2 1_555 1_555
C41_2 C37_2 1_555 1_555
H32_2 C41_2 1_555 1_555
Cd2_2 N3_2 1_555 1_555
Cd3 O7_2 1_555 1_555
N3_2 C30_2 1_555 1_555
N5_2 Cd1_2 1_555 1_555
N6_2 Cd2_2 1_555 1_555
O7_2 C22_2 1_555 1_555
O8_2 Cd2_2 1_555 1_555
O9_2 C22_2 1_555 1_555
O10_2 Cd2_2 1_555 1_555
O11_2 Cd1_2 1_555 1_555
O12_2 Cd2_2 1_555 1_555
O13_2 C29_2 1_555 1_555
O14_2 Cd1_2 1_555 1_555
O15_2 C32_2 1_555 1_555
O16_2 C36_2 1_555 1_555
C13_2 N1_2 1_555 1_555
C14_2 O5_2 1_555 1_555
C17_2 O6_2 1_555 1_555
Cd1_2 O1_2 1_555 1_555
Cd1_2 O2_2 1_555 1_555
C27_2 C28_2 1_555 1_555
C29_2 O11_2 1_555 1_555
C34_2 N3_2 1_555 1_555
C35_2 O15_2 1_555 1_555
C37_2 O16_2 1_555 1_555
Cd2_2 O13_2 1_555 1_555
Cd3 O9_2 1_555 1_555
C22_3 C23_3 1_555 1_555
C23_3 C24_3 1_555 1_555
C24_3 H17_3 1_555 1_555
Cd6 O7_3 1_555 1_555
O7_3 C22_3 1_555 1_555
O9_3 C22_3 1_555 1_555
Cd6 O9_3 1_555 1_555
C1_3 C2_3 1_555 1_555
C2_3 C3_3 1_555 1_555
C3_3 H1_3 1_555 1_555
C4_3 C3_3 1_555 1_555
H2_3 C4_3 1_555 1_555
C5_3 C4_3 1_555 1_555
C6_3 C5_3 1_555 1_555
H3_3 C6_3 1_555 1_555
C7_3 C2_3 1_555 1_555
H4_3 C7_3 1_555 1_555
C8_3 C5_3 1_555 1_555
O8_2 C1_3 1_555 1_555
O10_2 C1_3 1_555 1_555
O3_3 C8_3 1_555 1_555
O4_3 C8_3 1_555 1_555
H18_3 C25_3 1_555 1_555
C26_3 C25_3 1_555 1_555
C27_3 C26_3 1_555 1_555
H19_3 C27_3 1_555 1_555
H20_3 C28_3 1_555 1_555
C29_3 C26_3 1_555 1_555
Cd6 O3_3 1_555 1_555
O14_2 C29_3 1_555 1_555
C6_3 C7_3 1_555 1_555
C27_3 C28_3 1_555 1_555
C29_3 O12_2 1_555 1_555
C1_4 C2_4 1_555 1_555
C2_4 C3_4 1_555 1_555
C3_4 H1_4 1_555 1_555
C4_4 C3_4 1_555 1_555
H2_4 C4_4 1_555 1_555
C5_4 C4_4 1_555 1_555
C6_4 C5_4 1_555 1_555
H3_4 C6_4 1_555 1_555
C7_4 C2_4 1_555 1_555
H4_4 C7_4 1_555 1_555
C8_4 C5_4 1_555 1_555
O8 C1_4 1_555 1_555
O10 C1_4 1_555 1_555
O3_4 C8_4 1_555 1_555
O4_4 C8_4 1_555 1_555
H18_4 C25_4 1_555 1_555
C26_4 C25_4 1_555 1_555
C27_4 C26_4 1_555 1_555
H19_4 C27_4 1_555 1_555
H20_4 C28_4 1_555 1_555
C29_4 C26_4 1_555 1_555
Cd5 O3_4 1_555 1_555
Cd7 O4_4 1_555 1_555
O14 C29_4 1_555 1_555
C6_4 C7_4 1_555 1_555
C27_4 C28_4 1_555 1_555
C29_4 O12 1_555 1_555
C22_4 C23_4 1_555 1_555
C23_4 C24_4 1_555 1_555
C24_4 H17_4 1_555 1_555
Cd5 O7_4 1_555 1_555
O7_4 C22_4 1_555 1_555
O9_4 C22_4 1_555 1_555
Cd5 O9_4 1_555 1_555
C40_3 H31_3 1_555 1_555
N6 C39_3 1_555 1_555
C40_3 N6 1_555 1_555
C30_3 H21_3 1_555 1_555
C31_3 C30_3 1_555 1_555
H22_3 C31_3 1_555 1_555
C32_3 C31_3 1_555 1_555
C33_3 C32_3 1_555 1_555
H23_3 C33_3 1_555 1_555
C34_3 C33_3 1_555 1_555
H24_3 C34_3 1_555 1_555
C35_3 C15_4 1_555 1_555
H25_3 C35_3 1_555 1_555
C36_3 C15_4 1_555 1_555
H27_3 C36_3 1_555 1_555
H28_3 C36_3 1_555 1_555
C37_3 C38_3 1_555 1_555
C41_3 C37_3 1_555 1_555
H32_3 C41_3 1_555 1_555
Cd6 N3_3 1_555 1_555
N3_3 C30_3 1_555 1_555
O15_3 C32_3 1_555 1_555
O16_3 C36_3 1_555 1_555
C34_3 N3_3 1_555 1_555
C35_3 O15_3 1_555 1_555
C37_3 O16_3 1_555 1_555
C20_3 H15_3 1_555 1_555
N5 C19_3 1_555 1_555
C20_3 N5 1_555 1_555
C9_3 H5_3 1_555 1_555
C10_3 C9_3 1_555 1_555
H6_3 C10_3 1_555 1_555
C11_3 C10_3 1_555 1_555
C12_3 C11_3 1_555 1_555
H7_3 C12_3 1_555 1_555
C13_3 C12_3 1_555 1_555
H8_3 C13_3 1_555 1_555
C14_3 H9_3 1_555 1_555
C15_5 C14_3 1_555 1_555
C16_3 C15_5 1_555 1_555
H11_3 C16_3 1_555 1_555
H12_3 C16_3 1_555 1_555
C17_3 C18_3 1_555 1_555
C21_3 C17_3 1_555 1_555
H16_3 C21_3 1_555 1_555
Cd3 N1_3 1_555 1_555
N1_3 C9_3 1_555 1_555
O5_3 C11_3 1_555 1_555
O6_3 C16_3 1_555 1_555
C13_3 N1_3 1_555 1_555
C14_3 O5_3 1_555 1_555
C17_3 O6_3 1_555 1_555
C9_4 H5_4 1_555 1_555
C10_4 C9_4 1_555 1_555
H6_4 C10_4 1_555 1_555
C11_4 C10_4 1_555 1_555
C12_4 C11_4 1_555 1_555
H7_4 C12_4 1_555 1_555
C13_4 C12_4 1_555 1_555
H8_4 C13_4 1_555 1_555
C14_4 H9_4 1_555 1_555
H10_4 C14_4 1_555 1_555
C15_6 C14_4 1_555 1_555
C16_4 C15_6 1_555 1_555
H11_4 C16_4 1_555 1_555
H12_4 C16_4 1_555 1_555
C17_4 C18_4 1_555 1_555
C18_4 H13_4 1_555 1_555
C19_4 C18_4 1_555 1_555
H14_4 C19_4 1_555 1_555
C20_4 H15_4 1_555 1_555
C21_4 C17_4 1_555 1_555
H16_4 C21_4 1_555 1_555
Cd7 N1_4 1_555 1_555
N1_4 C9_4 1_555 1_555
N5_2 C19_4 1_555 1_555
O5_4 C11_4 1_555 1_555
O6_4 C16_4 1_555 1_555
C30_4 H21_4 1_555 1_555
C31_4 C30_4 1_555 1_555
H22_4 C31_4 1_555 1_555
C32_4 C31_4 1_555 1_555
C33_4 C32_4 1_555 1_555
H23_4 C33_4 1_555 1_555
C34_4 C33_4 1_555 1_555
H24_4 C34_4 1_555 1_555
C35_4 C15_6 1_555 1_555
H25_4 C35_4 1_555 1_555
H26_4 C35_4 1_555 1_555
C36_4 C15_6 1_555 1_555
H27_4 C36_4 1_555 1_555
H28_4 C36_4 1_555 1_555
C37_4 C38_4 1_555 1_555
C38_4 H29_4 1_555 1_555
C39_4 C38_4 1_555 1_555
H30_4 C39_4 1_555 1_555
C40_4 H31_4 1_555 1_555
C41_4 C37_4 1_555 1_555
H32_4 C41_4 1_555 1_555
Cd5 N3_4 1_555 1_555
N3_4 C30_4 1_555 1_555
N6_2 C39_4 1_555 1_555
O15_4 C32_4 1_555 1_555
O16_4 C36_4 1_555 1_555
C13_4 N1_4 1_555 1_555
C14_4 O5_4 1_555 1_555
C17_4 O6_4 1_555 1_555
C20_4 C21_4 1_555 1_555
C20_4 N5_2 1_555 1_555
C34_4 N3_4 1_555 1_555
C35_4 O15_4 1_555 1_555
C37_4 O16_4 1_555 1_555
C40_4 C41_4 1_555 1_555
C40_4 N6_2 1_555 1_555
C22_5 C23_5 1_555 1_555
C23_5 C24_5 1_555 1_555
C24_5 H17_5 1_555 1_555
Cd7_2 O7_5 1_555 1_555
O7_5 C22_5 1_555 1_555
O9_5 C22_5 1_555 1_555
Cd7_2 O9_5 1_555 1_555
C1_5 C2_5 1_555 1_555
C2_5 C3_5 1_555 1_555
C3_5 H1_5 1_555 1_555
C4_5 C3_5 1_555 1_555
H2_5 C4_5 1_555 1_555
C5_5 C4_5 1_555 1_555
C6_5 C5_5 1_555 1_555
H3_5 C6_5 1_555 1_555
C7_5 C2_5 1_555 1_555
H4_5 C7_5 1_555 1_555
C8_5 C5_5 1_555 1_555
C9_5 H5_5 1_555 1_555
C10_5 C9_5 1_555 1_555
H6_5 C10_5 1_555 1_555
C11_5 C10_5 1_555 1_555
C12_5 C11_5 1_555 1_555
H7_5 C12_5 1_555 1_555
C13_5 C12_5 1_555 1_555
H8_5 C13_5 1_555 1_555
C14_5 H9_5 1_555 1_555
C15_7 C14_5 1_555 1_555
C16_5 C15_7 1_555 1_555
H11_5 C16_5 1_555 1_555
H12_5 C16_5 1_555 1_555
C17_5 C18_5 1_555 1_555
C21_5 C17_5 1_555 1_555
H16_5 C21_5 1_555 1_555
Cd1_3 N1_5 1_555 1_555
N1_5 C9_5 1_555 1_555
O1_3 C1_5 1_555 1_555
O2_3 C1_5 1_555 1_555
O3_5 C8_5 1_555 1_555
O4_5 C8_5 1_555 1_555
O5_5 C11_5 1_555 1_555
O6_5 C16_5 1_555 1_555
H18_5 C25_5 1_555 1_555
C26_5 C25_5 1_555 1_555
C27_5 C26_5 1_555 1_555
H19_5 C27_5 1_555 1_555
H20_5 C28_5 1_555 1_555
C29_5 C26_5 1_555 1_555
Cd7_2 O3_5 1_555 1_555
Cd5_2 O4_5 1_555 1_555
N5_3 Cd1_3 1_555 1_555
O11_3 Cd1_3 1_555 1_555
O13_3 C29_5 1_555 1_555
C6_5 C7_5 1_555 1_555
C13_5 N1_5 1_555 1_555
C14_5 O5_5 1_555 1_555
C17_5 O6_5 1_555 1_555
Cd1_3 O1_3 1_555 1_555
Cd1_3 O2_3 1_555 1_555
C27_5 C28_5 1_555 1_555
C29_5 O11_3 1_555 1_555
C20_5 H15_5 1_555 1_555
N2_3 C19_5 1_555 1_555
Cd3_2 N2_3 1_555 1_555
C20_5 N2_3 1_555 1_555
C30_5 H21_5 1_555 1_555
C31_5 C30_5 1_555 1_555
H22_5 C31_5 1_555 1_555
C32_5 C31_5 1_555 1_555
C33_5 C32_5 1_555 1_555
H23_5 C33_5 1_555 1_555
C34_5 C33_5 1_555 1_555
H24_5 C34_5 1_555 1_555
C35_5 C15_8 1_555 1_555
H25_5 C35_5 1_555 1_555
C36_5 C15_8 1_555 1_555
H27_5 C36_5 1_555 1_555
H28_5 C36_5 1_555 1_555
C37_5 C38_5 1_555 1_555
C41_5 C37_5 1_555 1_555
H32_5 C41_5 1_555 1_555
Cd2_3 N3_5 1_555 1_555
N3_5 C30_5 1_555 1_555
N6_3 Cd2_3 1_555 1_555
O8_3 Cd2_3 1_555 1_555
O10_3 Cd2_3 1_555 1_555
O12_3 Cd2_3 1_555 1_555
O15_5 C32_5 1_555 1_555
O16_5 C36_5 1_555 1_555
C34_5 N3_5 1_555 1_555
C35_5 O15_5 1_555 1_555
C37_5 O16_5 1_555 1_555
C40_5 H31_5 1_555 1_555
Cd6_2 N4_3 1_555 1_555
N4_3 C39_5 1_555 1_555
C40_5 N4_3 1_555 1_555
C1_6 C2_6 1_555 1_555
C2_6 C3_6 1_555 1_555
C3_6 H1_6 1_555 1_555
C4_6 C3_6 1_555 1_555
H2_6 C4_6 1_555 1_555
C5_6 C4_6 1_555 1_555
C6_6 C5_6 1_555 1_555
H3_6 C6_6 1_555 1_555
C7_6 C2_6 1_555 1_555
H4_6 C7_6 1_555 1_555
C8_6 C5_6 1_555 1_555
C9_6 H5_6 1_555 1_555
C10_6 C9_6 1_555 1_555
H6_6 C10_6 1_555 1_555
C11_6 C10_6 1_555 1_555
C12_6 C11_6 1_555 1_555
H7_6 C12_6 1_555 1_555
C13_6 C12_6 1_555 1_555
H8_6 C13_6 1_555 1_555
C14_6 H9_6 1_555 1_555
H10_6 C14_6 1_555 1_555
C15_9 C14_6 1_555 1_555
C16_6 C15_9 1_555 1_555
H11_6 C16_6 1_555 1_555
H12_6 C16_6 1_555 1_555
C17_6 C18_6 1_555 1_555
C18_6 H13_6 1_555 1_555
C19_6 C18_6 1_555 1_555
H14_6 C19_6 1_555 1_555
C20_6 H15_6 1_555 1_555
C21_6 C17_6 1_555 1_555
H16_6 C21_6 1_555 1_555
Cd1_4 N1_6 1_555 1_555
N1_6 C9_6 1_555 1_555
N2_4 C19_6 1_555 1_555
O1_4 C1_6 1_555 1_555
O2_4 C1_6 1_555 1_555
O3_6 C8_6 1_555 1_555
O4_6 C8_6 1_555 1_555
O5_6 C11_6 1_555 1_555
O6_6 C16_6 1_555 1_555
H18_6 C25_6 1_555 1_555
C26_6 C25_6 1_555 1_555
C27_6 C26_6 1_555 1_555
H19_6 C27_6 1_555 1_555
H20_6 C28_6 1_555 1_555
C29_6 C26_6 1_555 1_555
C30_6 H21_6 1_555 1_555
C31_6 C30_6 1_555 1_555
H22_6 C31_6 1_555 1_555
C32_6 C31_6 1_555 1_555
C33_6 C32_6 1_555 1_555
H23_6 C33_6 1_555 1_555
C34_6 C33_6 1_555 1_555
H24_6 C34_6 1_555 1_555
C35_6 C15_9 1_555 1_555
H25_6 C35_6 1_555 1_555
H26_6 C35_6 1_555 1_555
C36_6 C15_9 1_555 1_555
H27_6 C36_6 1_555 1_555
H28_6 C36_6 1_555 1_555
C37_6 C38_6 1_555 1_555
C38_6 H29_6 1_555 1_555
C39_6 C38_6 1_555 1_555
H30_6 C39_6 1_555 1_555
C40_6 H31_6 1_555 1_555
C41_6 C37_6 1_555 1_555
H32_6 C41_6 1_555 1_555
Cd2_4 N3_6 1_555 1_555
Cd7_2 N2_4 1_555 1_555
Cd3_2 O3_6 1_555 1_555
Cd5_2 N4_4 1_555 1_555
N3_6 C30_6 1_555 1_555
N4_4 C39_6 1_555 1_555
N5_4 Cd1_4 1_555 1_555
N6_4 Cd2_4 1_555 1_555
O8_4 Cd2_4 1_555 1_555
O10_4 Cd2_4 1_555 1_555
O11_4 Cd1_4 1_555 1_555
O12_4 Cd2_4 1_555 1_555
O13_4 C29_6 1_555 1_555
O14_4 Cd1_4 1_555 1_555
O15_6 C32_6 1_555 1_555
O16_6 C36_6 1_555 1_555
C6_6 C7_6 1_555 1_555
C13_6 N1_6 1_555 1_555
C14_6 O5_6 1_555 1_555
C17_6 O6_6 1_555 1_555
C20_6 C21_6 1_555 1_555
C20_6 N2_4 1_555 1_555
Cd1_4 O1_4 1_555 1_555
Cd1_4 O2_4 1_555 1_555
C27_6 C28_6 1_555 1_555
C29_6 O11_4 1_555 1_555
C34_6 N3_6 1_555 1_555
C35_6 O15_6 1_555 1_555
C37_6 O16_6 1_555 1_555
C40_6 C41_6 1_555 1_555
C40_6 N4_4 1_555 1_555
Cd2_4 O13_4 1_555 1_555
C22_6 C23_6 1_555 1_555
C23_6 C24_6 1_555 1_555
C24_6 H17_6 1_555 1_555
Cd3_2 O7_6 1_555 1_555
O7_6 C22_6 1_555 1_555
O9_6 C22_6 1_555 1_555
Cd3_2 O9_6 1_555 1_555
C1_7 C2_7 1_555 1_555
C2_7 C3_7 1_555 1_555
C3_7 H1_7 1_555 1_555
O8_4 C1_7 1_555 1_555
O10_4 C1_7 1_555 1_555
C22_7 C23_7 1_555 1_555
C23_7 C24_7 1_555 1_555
C24_7 H17_7 1_555 1_555
C25_7 C24_7 1_555 1_555
H18_7 C25_7 1_555 1_555
C26_7 C25_7 1_555 1_555
C27_7 C26_7 1_555 1_555
H19_7 C27_7 1_555 1_555
C28_7 C23_7 1_555 1_555
H20_7 C28_7 1_555 1_555
C29_7 C26_7 1_555 1_555
Cd6_2 O7_7 1_555 1_555
O7_7 C22_7 1_555 1_555
O9_7 C22_7 1_555 1_555
O14_4 C29_7 1_555 1_555
C27_7 C28_7 1_555 1_555
C29_7 O12_4 1_555 1_555
Cd6_2 O9_7 1_555 1_555
H2_7 C4_7 1_555 1_555
C5_7 C4_7 1_555 1_555
C6_7 C5_7 1_555 1_555
H3_7 C6_7 1_555 1_555
H4_7 C7_7 1_555 1_555
C8_7 C5_7 1_555 1_555
O3_7 C8_7 1_555 1_555
O4_7 C8_7 1_555 1_555
Cd6_2 O3_7 1_555 1_555
C6_7 C7_7 1_555 1_555
H2_8 C4_8 1_555 1_555
C5_8 C4_8 1_555 1_555
C6_8 C5_8 1_555 1_555
H3_8 C6_8 1_555 1_555
H4_8 C7_8 1_555 1_555
C8_8 C5_8 1_555 1_555
O3_8 C8_8 1_555 1_555
O4_8 C8_8 1_555 1_555
Cd5_2 O3_8 1_555 1_555
Cd7_2 O4_8 1_555 1_555
C6_8 C7_8 1_555 1_555
C1_8 C2_8 1_555 1_555
C2_8 C3_8 1_555 1_555
C3_8 H1_8 1_555 1_555
O8_3 C1_8 1_555 1_555
O10_3 C1_8 1_555 1_555
C22_8 C23_8 1_555 1_555
C23_8 C24_8 1_555 1_555
C24_8 H17_8 1_555 1_555
C25_8 C24_8 1_555 1_555
H18_8 C25_8 1_555 1_555
C26_8 C25_8 1_555 1_555
C27_8 C26_8 1_555 1_555
H19_8 C27_8 1_555 1_555
C28_8 C23_8 1_555 1_555
H20_8 C28_8 1_555 1_555
C29_8 C26_8 1_555 1_555
Cd5_2 O7_8 1_555 1_555
O7_8 C22_8 1_555 1_555
O9_8 C22_8 1_555 1_555
O14_3 C29_8 1_555 1_555
C27_8 C28_8 1_555 1_555
C29_8 O12_3 1_555 1_555
Cd5_2 O9_8 1_555 1_555
C9_7 H5_7 1_555 1_555
C10_7 C9_7 1_555 1_555
H6_7 C10_7 1_555 1_555
C11_7 C10_7 1_555 1_555
C12_7 C11_7 1_555 1_555
H7_7 C12_7 1_555 1_555
C13_7 C12_7 1_555 1_555
H8_7 C13_7 1_555 1_555
C14_7 H9_7 1_555 1_555
C15_10 C14_7 1_555 1_555
C16_7 C15_10 1_555 1_555
H11_7 C16_7 1_555 1_555
H12_7 C16_7 1_555 1_555
C17_7 C18_7 1_555 1_555
C19_7 C18_7 1_555 1_555
C20_7 H15_7 1_555 1_555
C21_7 C17_7 1_555 1_555
H16_7 C21_7 1_555 1_555
Cd3_2 N1_7 1_555 1_555
N1_7 C9_7 1_555 1_555
N5_3 C19_7 1_555 1_555
O5_7 C11_7 1_555 1_555
O6_7 C16_7 1_555 1_555
C13_7 N1_7 1_555 1_555
C14_7 O5_7 1_555 1_555
C17_7 O6_7 1_555 1_555
C20_7 C21_7 1_555 1_555
C20_7 N5_3 1_555 1_555
C30_7 H21_7 1_555 1_555
C31_7 C30_7 1_555 1_555
H22_7 C31_7 1_555 1_555
C32_7 C31_7 1_555 1_555
C33_7 C32_7 1_555 1_555
H23_7 C33_7 1_555 1_555
C34_7 C33_7 1_555 1_555
H24_7 C34_7 1_555 1_555
C35_7 C15_11 1_555 1_555
H25_7 C35_7 1_555 1_555
C36_7 C15_11 1_555 1_555
H27_7 C36_7 1_555 1_555
H28_7 C36_7 1_555 1_555
C37_7 C38_7 1_555 1_555
C39_7 C38_7 1_555 1_555
C40_7 H31_7 1_555 1_555
C41_7 C37_7 1_555 1_555
H32_7 C41_7 1_555 1_555
Cd6_2 N3_7 1_555 1_555
N3_7 C30_7 1_555 1_555
N6_3 C39_7 1_555 1_555
O15_7 C32_7 1_555 1_555
O16_7 C36_7 1_555 1_555
C34_7 N3_7 1_555 1_555
C35_7 O15_7 1_555 1_555
C37_7 O16_7 1_555 1_555
C40_7 C41_7 1_555 1_555
C40_7 N6_3 1_555 1_555
C9_8 H5_8 1_555 1_555
C10_8 C9_8 1_555 1_555
H6_8 C10_8 1_555 1_555
C11_8 C10_8 1_555 1_555
C12_8 C11_8 1_555 1_555
H7_8 C12_8 1_555 1_555
C13_8 C12_8 1_555 1_555
H8_8 C13_8 1_555 1_555
C14_8 H9_8 1_555 1_555
H10_8 C14_8 1_555 1_555
C15_12 C14_8 1_555 1_555
C16_8 C15_12 1_555 1_555
H11_8 C16_8 1_555 1_555
H12_8 C16_8 1_555 1_555
C17_8 C18_8 1_555 1_555
C18_8 H13_8 1_555 1_555
C21_8 C17_8 1_555 1_555
H16_8 C21_8 1_555 1_555
Cd7_2 N1_8 1_555 1_555
N1_8 C9_8 1_555 1_555
O5_8 C11_8 1_555 1_555
O6_8 C16_8 1_555 1_555
C30_8 H21_8 1_555 1_555
C31_8 C30_8 1_555 1_555
H22_8 C31_8 1_555 1_555
C32_8 C31_8 1_555 1_555
C33_8 C32_8 1_555 1_555
H23_8 C33_8 1_555 1_555
C34_8 C33_8 1_555 1_555
H24_8 C34_8 1_555 1_555
C35_8 C15_12 1_555 1_555
H25_8 C35_8 1_555 1_555
H26_8 C35_8 1_555 1_555
C36_8 C15_12 1_555 1_555
H27_8 C36_8 1_555 1_555
H28_8 C36_8 1_555 1_555
C37_8 C38_8 1_555 1_555
C38_8 H29_8 1_555 1_555
C41_8 C37_8 1_555 1_555
H32_8 C41_8 1_555 1_555
Cd5_2 N3_8 1_555 1_555
N3_8 C30_8 1_555 1_555
O15_8 C32_8 1_555 1_555
O16_8 C36_8 1_555 1_555
C13_8 N1_8 1_555 1_555
C14_8 O5_8 1_555 1_555
C17_8 O6_8 1_555 1_555
C34_8 N3_8 1_555 1_555
C35_8 O15_8 1_555 1_555
C37_8 O16_8 1_555 1_555
H14_8 C19_8 1_555 1_555
C20_8 H15_8 1_555 1_555
N5_4 C19_8 1_555 1_555
H30_8 C39_8 1_555 1_555
C40_8 H31_8 1_555 1_555
N6_4 C39_8 1_555 1_555
C20_8 N5_4 1_555 1_555
C40_8 N6_4 1_555 1_555

#END
