
###############################################################################
#
# This file contains modified crystal structure data generated from the
# MOF subset of the Cambridge Structural Database (CSD) v543 
# hosted by the Cambridge Crystallographic Data Centre (CCDC).
#
# This work is licensed under the Creative Commons
# Attribution-NonCommercial-ShareAlike 4.0 International License.
# To view a copy of this license, visit
# http://creativecommons.org/licenses/by-nc-sa/4.0/
# or send a letter to
# Creative Commons, PO Box 1866, Mountain View, CA 94042, USA.
#
# CIF created using the CSD Python API on 29 September 2022
# The structure has been converted into the P1 space group
# The structure has a 3D framework
# The original CSD entry QUPZAE01 is in the monoclinic crystal system
# The framework has been calculated to contain at least 10.0% void space
# The void calculation uses a probe of radius 1.32A, grid spacing 0.4
#
###############################################################################

data_QUPZAE01
_chemical_formula_moiety         '(C48 H32 Co1 N16)n'
_symmetry_cell_setting           triclinic
_symmetry_space_group_name_H-M   'P 1'
_symmetry_Int_Tables_number      1
_space_group_name_Hall           'P 1'
loop_
_symmetry_equiv_pos_site_id
_symmetry_equiv_pos_as_xyz
1 x,y,z
_cell_length_a                   21.7628(25)
_cell_length_b                   15.2203(22)
_cell_length_c                   6.98265(70)
_cell_angle_alpha                90
_cell_angle_beta                 97.367(10)
_cell_angle_gamma                90
_cell_volume                     2293.81
loop_
_atom_site_label
_atom_site_type_symbol
_atom_site_fract_x
_atom_site_fract_y
_atom_site_fract_z
_atom_site_U_iso_or_equiv
_atom_site_thermal_displace_type
Co1 Co 0.500 0.01922(60) 0.250 0.0048 Uiso
N6 N 0.550763 0.099934 0.092728 0.0048 Uiso
N7 N 0.449237 0.099934 0.407272 0.0048 Uiso
C1 C 0.393876 0.892194 0.149227 0.0048 Uiso
C3 C 0.366467 0.840324 0.004205 0.0048 Uiso
C4 C 0.308650 0.787095 0.008441 0.0048 Uiso
C5 C 0.217999 0.754004 0.159742 0.0048 Uiso
C6 C 0.276649 0.791098 0.168183 0.0048 Uiso
N1 N 0.445030 0.929116 0.089319 0.0048 Uiso
H1 H 0.379766 0.901076 0.270997 0.0048 Uiso
H3 H 0.196128 0.756740 0.268919 0.0048 Uiso
H4 H 0.294863 0.819187 0.283128 0.0048 Uiso
C8 C 0.099318 0.654810 0.145331 0.0048 Uiso
N4 N 0.050763 0.599934 0.092728 0.0048 Uiso
H6 H 0.107839 0.684527 0.265443 0.0048 Uiso
N5 N 0.554970 0.929116 0.410681 0.0048 Uiso
Co4 Co -0.000 0.51922(60) 0.250 0.0048 Uiso
C2 C 0.400682 0.845190 0.854669 0.0048 Uiso
N2 N 0.449237 0.900066 0.907272 0.0048 Uiso
H2 H 0.392161 0.815473 0.734557 0.0048 Uiso
C7 C 0.106124 0.607806 0.850773 0.0048 Uiso
C9 C 0.133533 0.659676 0.995795 0.0048 Uiso
C10 C 0.191350 0.712905 0.991559 0.0048 Uiso
C11 C 0.282001 0.745996 0.840258 0.0048 Uiso
C12 C 0.223351 0.708902 0.831817 0.0048 Uiso
N3 N 0.054970 0.570884 0.910681 0.0048 Uiso
H5 H 0.120234 0.598924 0.729003 0.0048 Uiso
H7 H 0.303872 0.743260 0.731081 0.0048 Uiso
H8 H 0.205137 0.680813 0.716872 0.0048 Uiso
Co2 Co 0.500 0.98078(60) 0.750 0.0048 Uiso
Co3 Co -0.000 0.48078(60) 0.750 0.0048 Uiso
Co4_2 Co 1.000 0.51922(60) 0.250 0.0048 Uiso
Co3_2 Co 1.000 0.48078(60) 0.750 0.0048 Uiso
C1_2 C 0.606124 0.892194 0.350773 0.0048 Uiso
C2_2 C 0.599318 0.845190 0.645331 0.0048 Uiso
C3_2 C 0.633533 0.840324 0.495795 0.0048 Uiso
C4_2 C 0.691350 0.787095 0.491559 0.0048 Uiso
C5_2 C 0.782001 0.754004 0.340258 0.0048 Uiso
C6_2 C 0.723351 0.791098 0.331817 0.0048 Uiso
N2_2 N 0.550763 0.900066 0.592728 0.0048 Uiso
H1_2 H 0.620234 0.901076 0.229003 0.0048 Uiso
H2_2 H 0.607839 0.815473 0.765443 0.0048 Uiso
H3_2 H 0.803872 0.756740 0.231081 0.0048 Uiso
H4_2 H 0.705137 0.819187 0.216872 0.0048 Uiso
C7_2 C 0.893876 0.607806 0.649227 0.0048 Uiso
C8_2 C 0.900682 0.654810 0.354669 0.0048 Uiso
C9_2 C 0.866467 0.659676 0.504205 0.0048 Uiso
C10_2 C 0.808650 0.712905 0.508441 0.0048 Uiso
C11_2 C 0.717999 0.745996 0.659742 0.0048 Uiso
C12_2 C 0.776649 0.708902 0.668183 0.0048 Uiso
N3_2 N 0.945030 0.570884 0.589319 0.0048 Uiso
N4_2 N 0.949237 0.599934 0.407272 0.0048 Uiso
H5_2 H 0.879766 0.598924 0.770997 0.0048 Uiso
H6_2 H 0.892161 0.684527 0.234557 0.0048 Uiso
H7_2 H 0.696128 0.743260 0.768919 0.0048 Uiso
H8_2 H 0.794863 0.680813 0.783128 0.0048 Uiso
C1_3 C 0.106124 0.392194 0.350773 0.0048 Uiso
C2_3 C 0.099318 0.345190 0.645331 0.0048 Uiso
C3_3 C 0.133533 0.340324 0.495795 0.0048 Uiso
C4_3 C 0.191350 0.287095 0.491559 0.0048 Uiso
C5_3 C 0.282001 0.254004 0.340258 0.0048 Uiso
C6_3 C 0.223351 0.291098 0.331817 0.0048 Uiso
N1_2 N 0.054970 0.429116 0.410681 0.0048 Uiso
N2_3 N 0.050763 0.400066 0.592728 0.0048 Uiso
H1_3 H 0.120234 0.401076 0.229003 0.0048 Uiso
H2_3 H 0.107839 0.315473 0.765443 0.0048 Uiso
H3_3 H 0.303872 0.256740 0.231081 0.0048 Uiso
H4_3 H 0.205137 0.319187 0.216872 0.0048 Uiso
C7_3 C 0.393876 0.107806 0.649227 0.0048 Uiso
C8_3 C 0.400682 0.154810 0.354669 0.0048 Uiso
C9_3 C 0.366467 0.159676 0.504205 0.0048 Uiso
C10_3 C 0.308650 0.212905 0.508441 0.0048 Uiso
C11_3 C 0.217999 0.245996 0.659742 0.0048 Uiso
C12_3 C 0.276649 0.208902 0.668183 0.0048 Uiso
N3_3 N 0.445030 0.070884 0.589319 0.0048 Uiso
H5_3 H 0.379766 0.098924 0.770997 0.0048 Uiso
H6_3 H 0.392161 0.184527 0.234557 0.0048 Uiso
H7_3 H 0.196128 0.243260 0.768919 0.0048 Uiso
H8_3 H 0.294863 0.180813 0.783128 0.0048 Uiso
N5_2 N 0.945030 0.429116 0.089319 0.0048 Uiso
C1_4 C 0.893876 0.392194 0.149227 0.0048 Uiso
C3_4 C 0.866467 0.340324 0.004205 0.0048 Uiso
C4_4 C 0.808650 0.287095 0.008441 0.0048 Uiso
C5_4 C 0.717999 0.254004 0.159742 0.0048 Uiso
C6_4 C 0.776649 0.291098 0.168183 0.0048 Uiso
H1_4 H 0.879766 0.401076 0.270997 0.0048 Uiso
H3_4 H 0.696128 0.256740 0.268919 0.0048 Uiso
H4_4 H 0.794863 0.319187 0.283128 0.0048 Uiso
C8_4 C 0.599318 0.154810 0.145331 0.0048 Uiso
H6_4 H 0.607839 0.184527 0.265443 0.0048 Uiso
C2_4 C 0.900682 0.345190 0.854669 0.0048 Uiso
N2_4 N 0.949237 0.400066 0.907272 0.0048 Uiso
H2_4 H 0.892161 0.315473 0.734557 0.0048 Uiso
C7_4 C 0.606124 0.107806 0.850773 0.0048 Uiso
C9_4 C 0.633533 0.159676 0.995795 0.0048 Uiso
C10_4 C 0.691350 0.212905 0.991559 0.0048 Uiso
C11_4 C 0.782001 0.245996 0.840258 0.0048 Uiso
C12_4 C 0.723351 0.208902 0.831817 0.0048 Uiso
N3_4 N 0.554970 0.070884 0.910681 0.0048 Uiso
H5_4 H 0.620234 0.098924 0.729003 0.0048 Uiso
H7_4 H 0.803872 0.243260 0.731081 0.0048 Uiso
H8_4 H 0.705137 0.180813 0.716872 0.0048 Uiso
loop_
_geom_bond_atom_site_label_1
_geom_bond_atom_site_label_2
_geom_bond_site_symmetry_1
_geom_bond_site_symmetry_2
N6 Co1 1_555 1_555
N7 Co1 1_555 1_555
C1 C3 1_555 1_555
C3 C4 1_555 1_555
C4 C6 1_555 1_555
C5 C6 1_555 1_555
C6 H4 1_555 1_555
N1 C1 1_555 1_555
H1 C1 1_555 1_555
H3 C5 1_555 1_555
N4 C8 1_555 1_555
H6 C8 1_555 1_555
Co4 N4 1_555 1_555
N2 C2 1_555 1_555
H2 C2 1_555 1_555
C7 C9 1_555 1_555
C9 C10 1_555 1_555
C12 C10 1_555 1_555
N3 C7 1_555 1_555
H5 C7 1_555 1_555
H7 C11 1_555 1_555
H8 C12 1_555 1_555
Co2 N2 1_555 1_555
Co3 N3 1_555 1_555
C11 C12 1_555 1_555
C1_2 C3_2 1_555 1_555
C2_2 C3_2 1_555 1_555
C3_2 C4_2 1_555 1_555
C4_2 C6_2 1_555 1_555
C5_2 C6_2 1_555 1_555
C6_2 H4_2 1_555 1_555
N5 C1_2 1_555 1_555
N2_2 C2_2 1_555 1_555
H1_2 C1_2 1_555 1_555
H2_2 C2_2 1_555 1_555
H3_2 C5_2 1_555 1_555
C7_2 C9_2 1_555 1_555
C8_2 C9_2 1_555 1_555
C9_2 C10_2 1_555 1_555
C10_2 C5_2 1_555 1_555
C11_2 C4_2 1_555 1_555
C12_2 C10_2 1_555 1_555
N3_2 C7_2 1_555 1_555
N4_2 C8_2 1_555 1_555
H5_2 C7_2 1_555 1_555
H6_2 C8_2 1_555 1_555
H7_2 C11_2 1_555 1_555
H8_2 C12_2 1_555 1_555
Co2 N2_2 1_555 1_555
Co3_2 N3_2 1_555 1_555
Co4_2 N4_2 1_555 1_555
N5 N2_2 1_555 1_555
C11_2 C12_2 1_555 1_555
N3_2 N4_2 1_555 1_555
C1_3 C3_3 1_555 1_555
C2_3 C3_3 1_555 1_555
C3_3 C4_3 1_555 1_555
C4_3 C6_3 1_555 1_555
C5_3 C6_3 1_555 1_555
C6_3 H4_3 1_555 1_555
N1_2 C1_3 1_555 1_555
N2_3 C2_3 1_555 1_555
H1_3 C1_3 1_555 1_555
H2_3 C2_3 1_555 1_555
H3_3 C5_3 1_555 1_555
Co4 N1_2 1_555 1_555
C7_3 C9_3 1_555 1_555
C8_3 C9_3 1_555 1_555
C9_3 C10_3 1_555 1_555
C10_3 C5_3 1_555 1_555
C11_3 C4_3 1_555 1_555
C12_3 C10_3 1_555 1_555
N3_3 C7_3 1_555 1_555
N7 C8_3 1_555 1_555
H5_3 C7_3 1_555 1_555
H6_3 C8_3 1_555 1_555
H7_3 C11_3 1_555 1_555
H8_3 C12_3 1_555 1_555
Co3 N2_3 1_555 1_555
N1_2 N2_3 1_555 1_555
C11_3 C12_3 1_555 1_555
N3_3 N7 1_555 1_555
N5_2 Co4_2 1_555 1_555
C1_4 C3_4 1_555 1_555
C3_4 C4_4 1_555 1_555
C4_4 C6_4 1_555 1_555
C5_4 C6_4 1_555 1_555
C6_4 H4_4 1_555 1_555
N5_2 C1_4 1_555 1_555
H1_4 C1_4 1_555 1_555
H3_4 C5_4 1_555 1_555
N6 C8_4 1_555 1_555
H6_4 C8_4 1_555 1_555
N2_4 C2_4 1_555 1_555
H2_4 C2_4 1_555 1_555
C7_4 C9_4 1_555 1_555
C9_4 C10_4 1_555 1_555
C12_4 C10_4 1_555 1_555
N3_4 C7_4 1_555 1_555
H5_4 C7_4 1_555 1_555
H7_4 C11_4 1_555 1_555
H8_4 C12_4 1_555 1_555
Co3_2 N2_4 1_555 1_555
C11_4 C12_4 1_555 1_555

#END
