
###############################################################################
#
# This file contains modified crystal structure data generated from the
# MOF subset of the Cambridge Structural Database (CSD) v543 
# hosted by the Cambridge Crystallographic Data Centre (CCDC).
#
# This work is licensed under the Creative Commons
# Attribution-NonCommercial-ShareAlike 4.0 International License.
# To view a copy of this license, visit
# http://creativecommons.org/licenses/by-nc-sa/4.0/
# or send a letter to
# Creative Commons, PO Box 1866, Mountain View, CA 94042, USA.
#
# CIF created using the CSD Python API on 29 September 2022
# The structure has been converted into the P1 space group
# The structure has a 3D framework
# The original CSD entry QUPZIM01 is in the monoclinic crystal system
# The framework has been calculated to contain at least 10.0% void space
# The void calculation uses a probe of radius 1.32A, grid spacing 0.4
#
###############################################################################

data_QUPZIM01
_chemical_formula_moiety         '(C48 H32 Fe1 N16)n'
_symmetry_cell_setting           triclinic
_symmetry_space_group_name_H-M   'P 1'
_symmetry_Int_Tables_number      1
_space_group_name_Hall           'P 1'
loop_
_symmetry_equiv_pos_site_id
_symmetry_equiv_pos_as_xyz
1 x,y,z
_cell_length_a                   20.153(29)
_cell_length_b                   17.908(20)
_cell_length_c                   6.9533(35)
_cell_angle_alpha                90
_cell_angle_beta                 97.343(64)
_cell_angle_gamma                90
_cell_volume                     2488.86
loop_
_atom_site_label
_atom_site_type_symbol
_atom_site_fract_x
_atom_site_fract_y
_atom_site_fract_z
_atom_site_U_iso_or_equiv
_atom_site_thermal_displace_type
Fe3 Fe 0.500 0.0158(20) 0.25 0.2166 Uiso
C2 C 0.089949 0.645503 0.090592 0.2166 Uiso
N2 N 0.047573 0.588473 0.031949 0.2166 Uiso
H2 H 0.085795 0.678896 0.194542 0.2166 Uiso
C7 C 0.372551 0.910179 0.156225 0.2166 Uiso
C9 C 0.360685 0.853664 0.025706 0.2166 Uiso
C10 C 0.303236 0.799859 0.012364 0.2166 Uiso
C11 C 0.22508 0.726661 0.167453 0.2166 Uiso
C12 C 0.278316 0.77652 0.179817 0.2166 Uiso
N3 N 0.429251 0.945940 0.120592 0.2166 Uiso
H5 H 0.345911 0.922512 0.254953 0.2166 Uiso
H7 H 0.208048 0.710709 0.2819 0.2166 Uiso
H8 H 0.297669 0.794645 0.302714 0.2166 Uiso
Fe2 Fe 0.000 0.5158(20) 0.25 0.2166 Uiso
C1 C 0.127449 0.589821 0.843775 0.2166 Uiso
C3 C 0.139315 0.646336 0.974294 0.2166 Uiso
C4 C 0.196764 0.700141 0.987636 0.2166 Uiso
C5 C 0.27492 0.773339 0.832547 0.2166 Uiso
C6 C 0.221684 0.72348 0.820183 0.2166 Uiso
N1 N 0.070749 0.554060 0.879408 0.2166 Uiso
H1 H 0.154089 0.577488 0.745047 0.2166 Uiso
H3 H 0.291952 0.789291 0.7181 0.2166 Uiso
H4 H 0.202331 0.705355 0.697286 0.2166 Uiso
Fe1 Fe 0.000 0.4842(20) 0.75 0.2166 Uiso
C8 C 0.410051 0.854497 0.909408 0.2166 Uiso
N4 N 0.452427 0.911527 0.968051 0.2166 Uiso
H6 H 0.414205 0.821104 0.805458 0.2166 Uiso
N7 N 0.047573 0.411527 0.531949 0.2166 Uiso
Fe4 Fe 0.500 0.9842(20) 0.75 0.2166 Uiso
Fe2_2 Fe 1.000 0.5158(20) 0.25 0.2166 Uiso
Fe1_2 Fe 1.000 0.4842(20) 0.75 0.2166 Uiso
N5 N 0.929251 0.554060 0.620592 0.2166 Uiso
N6 N 0.952427 0.411527 0.968051 0.2166 Uiso
C1_2 C 0.872551 0.589821 0.656225 0.2166 Uiso
C2_2 C 0.910051 0.645503 0.409408 0.2166 Uiso
C3_2 C 0.860685 0.646336 0.525706 0.2166 Uiso
C4_2 C 0.803236 0.700141 0.512364 0.2166 Uiso
C5_2 C 0.72508 0.773339 0.667453 0.2166 Uiso
C6_2 C 0.778316 0.72348 0.679817 0.2166 Uiso
N2_2 N 0.952427 0.588473 0.468051 0.2166 Uiso
H1_2 H 0.845911 0.577488 0.754953 0.2166 Uiso
H2_2 H 0.914205 0.678896 0.305458 0.2166 Uiso
H3_2 H 0.708048 0.789291 0.7819 0.2166 Uiso
H4_2 H 0.797669 0.705355 0.802714 0.2166 Uiso
C7_2 C 0.627449 0.910179 0.343775 0.2166 Uiso
C8_2 C 0.589949 0.854497 0.590592 0.2166 Uiso
C9_2 C 0.639315 0.853664 0.474294 0.2166 Uiso
C10_2 C 0.696764 0.799859 0.487636 0.2166 Uiso
C11_2 C 0.77492 0.726661 0.332547 0.2166 Uiso
C12_2 C 0.721684 0.77652 0.320183 0.2166 Uiso
N3_2 N 0.570749 0.945940 0.379408 0.2166 Uiso
N4_2 N 0.547573 0.911527 0.531949 0.2166 Uiso
H5_2 H 0.654089 0.922512 0.245047 0.2166 Uiso
H6_2 H 0.585795 0.821104 0.694542 0.2166 Uiso
H7_2 H 0.791952 0.710709 0.2181 0.2166 Uiso
H8_2 H 0.702331 0.794645 0.197286 0.2166 Uiso
C1_3 C 0.372551 0.089821 0.656225 0.2166 Uiso
C2_3 C 0.410051 0.145503 0.409408 0.2166 Uiso
C3_3 C 0.360685 0.146336 0.525706 0.2166 Uiso
C4_3 C 0.303236 0.200141 0.512364 0.2166 Uiso
C5_3 C 0.22508 0.273339 0.667453 0.2166 Uiso
C6_3 C 0.278316 0.22348 0.679817 0.2166 Uiso
N1_2 N 0.429251 0.054060 0.620592 0.2166 Uiso
N2_3 N 0.452427 0.088473 0.468051 0.2166 Uiso
H1_3 H 0.345911 0.077488 0.754953 0.2166 Uiso
H2_3 H 0.414205 0.178896 0.305458 0.2166 Uiso
H3_3 H 0.208048 0.289291 0.7819 0.2166 Uiso
H4_3 H 0.297669 0.205355 0.802714 0.2166 Uiso
C7_3 C 0.127449 0.410179 0.343775 0.2166 Uiso
C8_3 C 0.089949 0.354497 0.590592 0.2166 Uiso
C9_3 C 0.139315 0.353664 0.474294 0.2166 Uiso
C10_3 C 0.196764 0.299859 0.487636 0.2166 Uiso
C11_3 C 0.27492 0.226661 0.332547 0.2166 Uiso
C12_3 C 0.221684 0.27652 0.320183 0.2166 Uiso
N3_3 N 0.070749 0.445940 0.379408 0.2166 Uiso
H5_3 H 0.154089 0.422512 0.245047 0.2166 Uiso
H6_3 H 0.085795 0.321104 0.694542 0.2166 Uiso
H7_3 H 0.291952 0.210709 0.2181 0.2166 Uiso
H8_3 H 0.202331 0.294645 0.197286 0.2166 Uiso
N5_2 N 0.570749 0.054060 0.879408 0.2166 Uiso
C2_4 C 0.589949 0.145503 0.090592 0.2166 Uiso
N2_4 N 0.547573 0.088473 0.031949 0.2166 Uiso
H2_4 H 0.585795 0.178896 0.194542 0.2166 Uiso
C7_4 C 0.872551 0.410179 0.156225 0.2166 Uiso
C9_4 C 0.860685 0.353664 0.025706 0.2166 Uiso
C10_4 C 0.803236 0.299859 0.012364 0.2166 Uiso
C11_4 C 0.72508 0.226661 0.167453 0.2166 Uiso
C12_4 C 0.778316 0.27652 0.179817 0.2166 Uiso
N3_4 N 0.929251 0.445940 0.120592 0.2166 Uiso
H5_4 H 0.845911 0.422512 0.254953 0.2166 Uiso
H7_4 H 0.708048 0.210709 0.2819 0.2166 Uiso
H8_4 H 0.797669 0.294645 0.302714 0.2166 Uiso
C1_4 C 0.627449 0.089821 0.843775 0.2166 Uiso
C3_4 C 0.639315 0.146336 0.974294 0.2166 Uiso
C4_4 C 0.696764 0.200141 0.987636 0.2166 Uiso
C5_4 C 0.77492 0.273339 0.832547 0.2166 Uiso
C6_4 C 0.721684 0.22348 0.820183 0.2166 Uiso
H1_4 H 0.654089 0.077488 0.745047 0.2166 Uiso
H3_4 H 0.791952 0.289291 0.7181 0.2166 Uiso
H4_4 H 0.702331 0.205355 0.697286 0.2166 Uiso
C8_4 C 0.910051 0.354497 0.909408 0.2166 Uiso
H6_4 H 0.914205 0.321104 0.805458 0.2166 Uiso
loop_
_geom_bond_atom_site_label_1
_geom_bond_atom_site_label_2
_geom_bond_site_symmetry_1
_geom_bond_site_symmetry_2
N2 C2 1_555 1_555
H2 C2 1_555 1_555
C7 C9 1_555 1_555
C9 C10 1_555 1_555
C12 C10 1_555 1_555
N3 C7 1_555 1_555
H5 C7 1_555 1_555
H7 C11 1_555 1_555
H8 C12 1_555 1_555
Fe2 N2 1_555 1_555
C11 C12 1_555 1_555
C1 C3 1_555 1_555
C3 C4 1_555 1_555
C4 C6 1_555 1_555
C5 C6 1_555 1_555
C6 H4 1_555 1_555
N1 C1 1_555 1_555
H1 C1 1_555 1_555
H3 C5 1_555 1_555
Fe1 N1 1_555 1_555
N4 C8 1_555 1_555
H6 C8 1_555 1_555
N7 Fe1 1_555 1_555
Fe4 N4 1_555 1_555
N5 Fe1_2 1_555 1_555
N6 Fe1_2 1_555 1_555
C1_2 C3_2 1_555 1_555
C2_2 C3_2 1_555 1_555
C3_2 C4_2 1_555 1_555
C4_2 C6_2 1_555 1_555
C5_2 C6_2 1_555 1_555
C6_2 H4_2 1_555 1_555
N5 C1_2 1_555 1_555
N2_2 C2_2 1_555 1_555
H1_2 C1_2 1_555 1_555
H2_2 C2_2 1_555 1_555
H3_2 C5_2 1_555 1_555
C7_2 C9_2 1_555 1_555
C8_2 C9_2 1_555 1_555
C9_2 C10_2 1_555 1_555
C10_2 C5_2 1_555 1_555
C11_2 C4_2 1_555 1_555
C12_2 C10_2 1_555 1_555
N3_2 C7_2 1_555 1_555
N4_2 C8_2 1_555 1_555
H5_2 C7_2 1_555 1_555
H6_2 C8_2 1_555 1_555
H7_2 C11_2 1_555 1_555
H8_2 C12_2 1_555 1_555
Fe2_2 N2_2 1_555 1_555
Fe4 N4_2 1_555 1_555
N5 N2_2 1_555 1_555
C11_2 C12_2 1_555 1_555
N3_2 N4_2 1_555 1_555
C1_3 C3_3 1_555 1_555
C2_3 C3_3 1_555 1_555
C3_3 C4_3 1_555 1_555
C4_3 C6_3 1_555 1_555
C5_3 C6_3 1_555 1_555
C6_3 H4_3 1_555 1_555
N1_2 C1_3 1_555 1_555
N2_3 C2_3 1_555 1_555
H1_3 C1_3 1_555 1_555
H2_3 C2_3 1_555 1_555
H3_3 C5_3 1_555 1_555
C7_3 C9_3 1_555 1_555
C8_3 C9_3 1_555 1_555
C9_3 C10_3 1_555 1_555
C10_3 C5_3 1_555 1_555
C11_3 C4_3 1_555 1_555
C12_3 C10_3 1_555 1_555
N3_3 C7_3 1_555 1_555
N7 C8_3 1_555 1_555
H5_3 C7_3 1_555 1_555
H6_3 C8_3 1_555 1_555
H7_3 C11_3 1_555 1_555
H8_3 C12_3 1_555 1_555
Fe3 N2_3 1_555 1_555
Fe2 N3_3 1_555 1_555
N1_2 N2_3 1_555 1_555
C11_3 C12_3 1_555 1_555
N3_3 N7 1_555 1_555
N2_4 C2_4 1_555 1_555
H2_4 C2_4 1_555 1_555
C7_4 C9_4 1_555 1_555
C9_4 C10_4 1_555 1_555
C12_4 C10_4 1_555 1_555
N3_4 C7_4 1_555 1_555
H5_4 C7_4 1_555 1_555
H7_4 C11_4 1_555 1_555
H8_4 C12_4 1_555 1_555
Fe3 N2_4 1_555 1_555
Fe2_2 N3_4 1_555 1_555
C11_4 C12_4 1_555 1_555
C1_4 C3_4 1_555 1_555
C3_4 C4_4 1_555 1_555
C4_4 C6_4 1_555 1_555
C5_4 C6_4 1_555 1_555
C6_4 H4_4 1_555 1_555
N5_2 C1_4 1_555 1_555
H1_4 C1_4 1_555 1_555
H3_4 C5_4 1_555 1_555
N6 C8_4 1_555 1_555
H6_4 C8_4 1_555 1_555

#END
