
###############################################################################
#
# This file contains modified crystal structure data generated from the
# MOF subset of the Cambridge Structural Database (CSD) v543 
# hosted by the Cambridge Crystallographic Data Centre (CCDC).
#
# This work is licensed under the Creative Commons
# Attribution-NonCommercial-ShareAlike 4.0 International License.
# To view a copy of this license, visit
# http://creativecommons.org/licenses/by-nc-sa/4.0/
# or send a letter to
# Creative Commons, PO Box 1866, Mountain View, CA 94042, USA.
#
# CIF created using the CSD Python API on 29 September 2022
# The structure has been converted into the P1 space group
# The structure has a 3D framework
# The original CSD entry QUQBEL is in the orthorhombic crystal system
# The original CSD entry QUQBEL is in a Sohncke space group
# The framework has been calculated to contain at least 10.0% void space
# The void calculation uses a probe of radius 1.32A, grid spacing 0.4
#
###############################################################################

data_QUQBEL
_chemical_formula_moiety         '(C96 H64 Fe7 N32)n'
_symmetry_cell_setting           triclinic
_symmetry_space_group_name_H-M   'P 1'
_symmetry_Int_Tables_number      1
_space_group_name_Hall           'P 1'
loop_
_symmetry_equiv_pos_site_id
_symmetry_equiv_pos_as_xyz
1 x,y,z
_cell_length_a                   17.3648(10)
_cell_length_b                   20.4338(11)
_cell_length_c                   14.0029(8)
_cell_angle_alpha                90
_cell_angle_beta                 90
_cell_angle_gamma                90
_cell_volume                     4968.63
loop_
_atom_site_label
_atom_site_type_symbol
_atom_site_fract_x
_atom_site_fract_y
_atom_site_fract_z
Fe1 Fe 0.02040(5) 0.0000 0.5000
Fe2 Fe -0.0000 0.01316(4) 0.7500
N10 N 0.0857(3) 0.0605(2) 0.5800(3)
N12 N 0.0686(3) 0.0726(2) 0.6739(3)
Fe1_2 Fe 0.02040(5) 1.0000 0.5000
Fe5 Fe -0.0000 0.98684(4) 0.2500
N9 N 0.0643(3) 0.9513(2) 0.8297(3)
N11 N 0.0857(3) 0.9395(2) 0.4200(3)
Fe2_2 Fe 1.0000 0.01316(4) 0.7500
N5 N 0.9520(3) 0.0590(2) 0.4230(3)
N6 N 0.9357(3) 0.0487(2) 0.3297(3)
N7 N 0.5857(3) 0.4395(2) 0.4200(3)
N8 N 0.5686(3) 0.4274(2) 0.3261(3)
C13 C 0.9098(4) 0.1121(3) 0.4492(4)
H9 H 0.9131 0.1325 0.5101
C14 C 0.8633(4) 0.1322(3) 0.3799(5)
C15 C 0.8822(4) 0.0916(3) 0.3044(5)
H10 H 0.8598 0.0941 0.2426
C16 C 0.8121(4) 0.1905(3) 0.3761(6)
C17 C 0.8052(6) 0.2303(4) 0.4532(6)
H11 H 0.8363 0.2225 0.5078
C18 C 0.7504(6) 0.2854(4) 0.4539(6)
H12 H 0.7457 0.3123 0.5089
C19 C 0.7077(4) 0.2969(3) 0.3776(5)
C20 C 0.7196(5) 0.2570(3) 0.2953(5)
H13 H 0.6908 0.2655 0.2389
C21 C 0.7702(5) 0.2083(4) 0.2959(5)
H14 H 0.7781 0.1845 0.2385
C22 C 0.6360(4) 0.3945(3) 0.4495(5)
H15 H 0.6554 0.3910 0.5127
C23 C 0.6559(3) 0.3529(3) 0.3733(5)
C24 C 0.6126(4) 0.3776(3) 0.3010(4)
H16 H 0.6140 0.3606 0.2378
Fe4 Fe 0.52040(5) 0.5000 0.5000
Fe7 Fe 0.5000 0.48684(4) 0.2500
N13 N 0.9314(3) 0.0726(2) 0.8261(3)
N1 N 0.9520(3) 0.9410(2) 0.5770(3)
N2 N 0.9357(3) 0.9513(2) 0.6703(3)
N3 N 0.5857(3) 0.5605(2) 0.5800(3)
N4 N 0.5686(3) 0.5726(2) 0.6739(3)
C1 C 0.9098(4) 0.8879(3) 0.5508(4)
H1 H 0.9131 0.8675 0.4899
C2 C 0.8633(4) 0.8678(3) 0.6201(5)
C3 C 0.8822(4) 0.9084(3) 0.6956(5)
H2 H 0.8598 0.9059 0.7574
C4 C 0.8121(4) 0.8095(3) 0.6239(6)
C5 C 0.8052(6) 0.7697(4) 0.5468(6)
H3 H 0.8363 0.7775 0.4922
C6 C 0.7504(6) 0.7146(4) 0.5461(6)
H4 H 0.7457 0.6877 0.4911
C7 C 0.7077(4) 0.7031(3) 0.6224(5)
C8 C 0.7196(5) 0.7430(3) 0.7047(5)
H5 H 0.6908 0.7345 0.7611
C9 C 0.7702(5) 0.7917(4) 0.7041(5)
H6 H 0.7781 0.8155 0.7615
C10 C 0.6360(4) 0.6055(3) 0.5505(5)
H7 H 0.6554 0.6090 0.4873
C11 C 0.6559(3) 0.6471(3) 0.6267(5)
C12 C 0.6126(4) 0.6224(3) 0.6990(4)
H8 H 0.6140 0.6394 0.7622
Fe5_2 Fe 1.0000 0.98684(4) 0.2500
Fe6 Fe 0.5000 0.51316(4) 0.7500
N1_2 N 0.0480(3) 0.0590(2) 0.0770(3)
N2_2 N 0.0643(3) 0.0487(2) 0.1703(3)
N3_2 N 0.4143(3) 0.4395(2) 0.0800(3)
N4_2 N 0.4314(3) 0.4274(2) 0.1739(3)
C1_2 C 0.0902(4) 0.1121(3) 0.0508(4)
C2_2 C 0.1367(4) 0.1322(3) 0.1201(5)
C3_2 C 0.1178(4) 0.0916(3) 0.1956(5)
H2_2 H 0.1402 0.0941 0.2574
C4_2 C 0.1879(4) 0.1905(3) 0.1239(6)
C5_2 C 0.1948(6) 0.2303(4) 0.0468(6)
C6_2 C 0.2496(6) 0.2854(4) 0.0461(6)
C7_2 C 0.2923(4) 0.2969(3) 0.1224(5)
C8_2 C 0.2804(5) 0.2570(3) 0.2047(5)
H5_2 H 0.3092 0.2655 0.2611
C9_2 C 0.2298(5) 0.2083(4) 0.2041(5)
H6_2 H 0.2219 0.1845 0.2615
C10_2 C 0.3640(4) 0.3945(3) 0.0505(5)
C11_2 C 0.3441(3) 0.3529(3) 0.1267(5)
C12_2 C 0.3874(4) 0.3776(3) 0.1990(4)
H8_2 H 0.3860 0.3606 0.2622
Fe3 Fe 0.47960(5) 0.5000 0.0000
H1_2 H 0.0869 0.1325 0.9899
H3_2 H 0.1637 0.2225 0.9922
H4_2 H 0.2543 0.3123 0.9911
H7_2 H 0.3446 0.3910 0.9873
Fe3_2 Fe 0.47960(5) 0.5000 1.0000
H9_2 H 0.0869 0.8675 0.0101
H11_2 H 0.1637 0.7775 0.0078
H12_2 H 0.2543 0.6877 0.0089
H15_2 H 0.3446 0.6090 0.0127
N13_2 N 0.0686(3) 0.9274(2) 0.3261(3)
N5_2 N 0.0480(3) 0.9410(2) 0.9230(3)
N7_2 N 0.4143(3) 0.5605(2) 0.9200(3)
N8_2 N 0.4314(3) 0.5726(2) 0.8261(3)
C13_2 C 0.0902(4) 0.8879(3) 0.9492(4)
C14_2 C 0.1367(4) 0.8678(3) 0.8799(5)
C15_2 C 0.1178(4) 0.9084(3) 0.8044(5)
H10_2 H 0.1402 0.9059 0.7426
C16_2 C 0.1879(4) 0.8095(3) 0.8761(6)
C17_2 C 0.1948(6) 0.7697(4) 0.9532(6)
C18_2 C 0.2496(6) 0.7146(4) 0.9539(6)
C19_2 C 0.2923(4) 0.7031(3) 0.8776(5)
C20_2 C 0.2804(5) 0.7430(3) 0.7953(5)
H13_2 H 0.3092 0.7345 0.7389
C21_2 C 0.2298(5) 0.7917(4) 0.7959(5)
H14_2 H 0.2219 0.8155 0.7385
C22_2 C 0.3640(4) 0.6055(3) 0.9495(5)
C23_2 C 0.3441(3) 0.6471(3) 0.8733(5)
C24_2 C 0.3874(4) 0.6224(3) 0.8010(4)
H16_2 H 0.3860 0.6394 0.7378
Fe1_3 Fe 0.97960(5) 0.0000 0.0000
Fe1_4 Fe 0.97960(5) 0.0000 1.0000
N11_2 N 0.9143(3) 0.0605(2) 0.9200(3)
Fe1_5 Fe 0.97960(5) 1.0000 0.0000
N10_2 N 0.9143(3) 0.9395(2) 0.0800(3)
N12_2 N 0.9314(3) 0.9274(2) 0.1739(3)
Fe1_6 Fe 0.97960(5) 1.0000 1.0000
N1_3 N 0.4520(3) 0.4410(2) 0.5770(3)
N2_3 N 0.4357(3) 0.4513(2) 0.6703(3)
C1_3 C 0.4098(4) 0.3879(3) 0.5508(4)
H1_3 H 0.4131 0.3675 0.4899
C2_3 C 0.3633(4) 0.3678(3) 0.6201(5)
C3_3 C 0.3822(4) 0.4084(3) 0.6956(5)
H2_3 H 0.3598 0.4059 0.7574
C4_3 C 0.3121(4) 0.3095(3) 0.6239(6)
C5_3 C 0.3052(6) 0.2697(4) 0.5468(6)
H3_3 H 0.3363 0.2775 0.4922
C6_3 C 0.2504(6) 0.2146(4) 0.5461(6)
H4_3 H 0.2457 0.1877 0.4911
C7_3 C 0.2077(4) 0.2031(3) 0.6224(5)
C8_3 C 0.2196(5) 0.2430(3) 0.7047(5)
H5_3 H 0.1908 0.2345 0.7611
C9_3 C 0.2702(5) 0.2917(4) 0.7041(5)
H6_3 H 0.2781 0.3155 0.7615
C10_3 C 0.1360(4) 0.1055(3) 0.5505(5)
H7_3 H 0.1554 0.1090 0.4873
C11_3 C 0.1559(3) 0.1471(3) 0.6267(5)
C12_3 C 0.1126(4) 0.1224(3) 0.6990(4)
H8_3 H 0.1140 0.1394 0.7622
N5_3 N 0.4520(3) 0.5590(2) 0.4230(3)
N6_2 N 0.4357(3) 0.5487(2) 0.3297(3)
C13_3 C 0.4098(4) 0.6121(3) 0.4492(4)
H9_3 H 0.4131 0.6325 0.5101
C14_3 C 0.3633(4) 0.6322(3) 0.3799(5)
C15_3 C 0.3822(4) 0.5916(3) 0.3044(5)
H10_3 H 0.3598 0.5941 0.2426
C16_3 C 0.3121(4) 0.6905(3) 0.3761(6)
C17_3 C 0.3052(6) 0.7303(4) 0.4532(6)
H11_3 H 0.3363 0.7225 0.5078
C18_3 C 0.2504(6) 0.7854(4) 0.4539(6)
H12_3 H 0.2457 0.8123 0.5089
C19_3 C 0.2077(4) 0.7969(3) 0.3776(5)
C20_3 C 0.2196(5) 0.7570(3) 0.2953(5)
H13_3 H 0.1908 0.7655 0.2389
C21_3 C 0.2702(5) 0.7083(4) 0.2959(5)
H14_3 H 0.2781 0.6845 0.2385
C22_3 C 0.1360(4) 0.8945(3) 0.4495(5)
H15_3 H 0.1554 0.8910 0.5127
C23_3 C 0.1559(3) 0.8529(3) 0.3733(5)
C24_3 C 0.1126(4) 0.8776(3) 0.3010(4)
H16_3 H 0.1140 0.8606 0.2378
N9_2 N 0.5643(3) 0.4513(2) 0.8297(3)
N1_4 N 0.5480(3) 0.5590(2) 0.0770(3)
N2_4 N 0.5643(3) 0.5487(2) 0.1703(3)
C1_4 C 0.5902(4) 0.6121(3) 0.0508(4)
C2_4 C 0.6367(4) 0.6322(3) 0.1201(5)
C3_4 C 0.6178(4) 0.5916(3) 0.1956(5)
H2_4 H 0.6402 0.5941 0.2574
C4_4 C 0.6879(4) 0.6905(3) 0.1239(6)
C5_4 C 0.6948(6) 0.7303(4) 0.0468(6)
C6_4 C 0.7496(6) 0.7854(4) 0.0461(6)
C7_4 C 0.7923(4) 0.7969(3) 0.1224(5)
C8_4 C 0.7804(5) 0.7570(3) 0.2047(5)
H5_4 H 0.8092 0.7655 0.2611
C9_4 C 0.7298(5) 0.7083(4) 0.2041(5)
H6_4 H 0.7219 0.6845 0.2615
C10_4 C 0.8640(4) 0.8945(3) 0.0505(5)
C11_4 C 0.8441(3) 0.8529(3) 0.1267(5)
C12_4 C 0.8874(4) 0.8776(3) 0.1990(4)
H8_4 H 0.8860 0.8606 0.2622
H9_4 H 0.5869 0.3675 0.0101
H11_4 H 0.6637 0.2775 0.0078
H12_4 H 0.7543 0.1877 0.0089
H15_4 H 0.8446 0.1090 0.0127
H1_4 H 0.5869 0.6325 0.9899
H3_4 H 0.6637 0.7225 0.9922
H4_4 H 0.7543 0.8123 0.9911
H7_4 H 0.8446 0.8910 0.9873
N5_4 N 0.5480(3) 0.4410(2) 0.9230(3)
C13_4 C 0.5902(4) 0.3879(3) 0.9492(4)
C14_4 C 0.6367(4) 0.3678(3) 0.8799(5)
C15_4 C 0.6178(4) 0.4084(3) 0.8044(5)
H10_4 H 0.6402 0.4059 0.7426
C16_4 C 0.6879(4) 0.3095(3) 0.8761(6)
C17_4 C 0.6948(6) 0.2697(4) 0.9532(6)
C18_4 C 0.7496(6) 0.2146(4) 0.9539(6)
C19_4 C 0.7923(4) 0.2031(3) 0.8776(5)
C20_4 C 0.7804(5) 0.2430(3) 0.7953(5)
H13_4 H 0.8092 0.2345 0.7389
C21_4 C 0.7298(5) 0.2917(4) 0.7959(5)
H14_4 H 0.7219 0.3155 0.7385
C22_4 C 0.8640(4) 0.1055(3) 0.9495(5)
C23_4 C 0.8441(3) 0.1471(3) 0.8733(5)
C24_4 C 0.8874(4) 0.1224(3) 0.8010(4)
H16_4 H 0.8860 0.1394 0.7378
loop_
_geom_bond_atom_site_label_1
_geom_bond_atom_site_label_2
_geom_bond_site_symmetry_1
_geom_bond_site_symmetry_2
N10 Fe1 1_555 1_555
N12 Fe2 1_555 1_555
N10 N12 1_555 1_555
N11 Fe1_2 1_555 1_555
N6 N5 1_555 1_555
N7 N8 1_555 1_555
N8 C24 1_555 1_555
C13 N5 1_555 1_555
H9 C13 1_555 1_555
C14 C13 1_555 1_555
C15 N6 1_555 1_555
H10 C15 1_555 1_555
C16 C14 1_555 1_555
C17 C16 1_555 1_555
H11 C17 1_555 1_555
C18 C17 1_555 1_555
H12 C18 1_555 1_555
C19 C18 1_555 1_555
C20 C19 1_555 1_555
H13 C20 1_555 1_555
C21 C16 1_555 1_555
H14 C21 1_555 1_555
C22 N7 1_555 1_555
H15 C22 1_555 1_555
C23 C19 1_555 1_555
C24 C23 1_555 1_555
H16 C24 1_555 1_555
Fe4 N7 1_555 1_555
Fe7 N8 1_555 1_555
N13 Fe2_2 1_555 1_555
C14 C15 1_555 1_555
C20 C21 1_555 1_555
C22 C23 1_555 1_555
N1 N2 1_555 1_555
N2 C3 1_555 1_555
N3 N4 1_555 1_555
N4 C12 1_555 1_555
C1 N1 1_555 1_555
H1 C1 1_555 1_555
C2 C1 1_555 1_555
C3 C2 1_555 1_555
H2 C3 1_555 1_555
C4 C2 1_555 1_555
C5 C4 1_555 1_555
H3 C5 1_555 1_555
C6 C5 1_555 1_555
H4 C6 1_555 1_555
C7 C6 1_555 1_555
C8 C7 1_555 1_555
H5 C8 1_555 1_555
C9 C4 1_555 1_555
H6 C9 1_555 1_555
C10 N3 1_555 1_555
H7 C10 1_555 1_555
C11 C7 1_555 1_555
C12 C11 1_555 1_555
H8 C12 1_555 1_555
Fe4 N3 1_555 1_555
Fe6 N4 1_555 1_555
C8 C9 1_555 1_555
C10 C11 1_555 1_555
N1_2 N2_2 1_555 1_555
N2_2 C3_2 1_555 1_555
N3_2 N4_2 1_555 1_555
N4_2 C12_2 1_555 1_555
C1_2 N1_2 1_555 1_555
C2_2 C1_2 1_555 1_555
C3_2 C2_2 1_555 1_555
H2_2 C3_2 1_555 1_555
C4_2 C2_2 1_555 1_555
C5_2 C4_2 1_555 1_555
C6_2 C5_2 1_555 1_555
C7_2 C6_2 1_555 1_555
C8_2 C7_2 1_555 1_555
H5_2 C8_2 1_555 1_555
C9_2 C4_2 1_555 1_555
H6_2 C9_2 1_555 1_555
C10_2 N3_2 1_555 1_555
C11_2 C7_2 1_555 1_555
C12_2 C11_2 1_555 1_555
H8_2 C12_2 1_555 1_555
Fe3 N3_2 1_555 1_555
Fe7 N4_2 1_555 1_555
C8_2 C9_2 1_555 1_555
C10_2 C11_2 1_555 1_555
N13_2 Fe5 1_555 1_555
N9 N5_2 1_555 1_555
N7_2 N8_2 1_555 1_555
N8_2 C24_2 1_555 1_555
C13_2 N5_2 1_555 1_555
C14_2 C13_2 1_555 1_555
C15_2 N9 1_555 1_555
H10_2 C15_2 1_555 1_555
C16_2 C14_2 1_555 1_555
C17_2 C16_2 1_555 1_555
C18_2 C17_2 1_555 1_555
C19_2 C18_2 1_555 1_555
C20_2 C19_2 1_555 1_555
H13_2 C20_2 1_555 1_555
C21_2 C16_2 1_555 1_555
H14_2 C21_2 1_555 1_555
C22_2 N7_2 1_555 1_555
C23_2 C19_2 1_555 1_555
C24_2 C23_2 1_555 1_555
H16_2 C24_2 1_555 1_555
Fe3_2 N7_2 1_555 1_555
Fe6 N8_2 1_555 1_555
C14_2 C15_2 1_555 1_555
C20_2 C21_2 1_555 1_555
C22_2 C23_2 1_555 1_555
N11_2 Fe1_4 1_555 1_555
N10_2 Fe1_5 1_555 1_555
N12_2 Fe5_2 1_555 1_555
N10_2 N12_2 1_555 1_555
N11 N13_2 1_555 1_555
N11_2 N13 1_555 1_555
Fe4 N1_3 1_555 1_555
Fe6 N2_3 1_555 1_555
N1_3 N2_3 1_555 1_555
N2_3 C3_3 1_555 1_555
N12 C12_3 1_555 1_555
C1_3 N1_3 1_555 1_555
H1_3 C1_3 1_555 1_555
C2_3 C1_3 1_555 1_555
C3_3 C2_3 1_555 1_555
H2_3 C3_3 1_555 1_555
C4_3 C2_3 1_555 1_555
C5_3 C4_3 1_555 1_555
H3_3 C5_3 1_555 1_555
C6_3 C5_3 1_555 1_555
H4_3 C6_3 1_555 1_555
C7_3 C6_3 1_555 1_555
C8_3 C7_3 1_555 1_555
H5_3 C8_3 1_555 1_555
C9_3 C4_3 1_555 1_555
H6_3 C9_3 1_555 1_555
C10_3 N10 1_555 1_555
H7_3 C10_3 1_555 1_555
C11_3 C7_3 1_555 1_555
C12_3 C11_3 1_555 1_555
H8_3 C12_3 1_555 1_555
N5_3 Fe4 1_555 1_555
N6_2 N5_3 1_555 1_555
N13_2 C24_3 1_555 1_555
C13_3 N5_3 1_555 1_555
H9_3 C13_3 1_555 1_555
C14_3 C13_3 1_555 1_555
C15_3 N6_2 1_555 1_555
H10_3 C15_3 1_555 1_555
C16_3 C14_3 1_555 1_555
C17_3 C16_3 1_555 1_555
H11_3 C17_3 1_555 1_555
C18_3 C17_3 1_555 1_555
H12_3 C18_3 1_555 1_555
C19_3 C18_3 1_555 1_555
C20_3 C19_3 1_555 1_555
H13_3 C20_3 1_555 1_555
C21_3 C16_3 1_555 1_555
H14_3 C21_3 1_555 1_555
C22_3 N11 1_555 1_555
H15_3 C22_3 1_555 1_555
C23_3 C19_3 1_555 1_555
C24_3 C23_3 1_555 1_555
H16_3 C24_3 1_555 1_555
Fe7 N6_2 1_555 1_555
N9_2 Fe6 1_555 1_555
C8_3 C9_3 1_555 1_555
C10_3 C11_3 1_555 1_555
C14_3 C15_3 1_555 1_555
C20_3 C21_3 1_555 1_555
C22_3 C23_3 1_555 1_555
Fe3 N1_4 1_555 1_555
Fe7 N2_4 1_555 1_555
N1_4 N2_4 1_555 1_555
N2_4 C3_4 1_555 1_555
N12_2 C12_4 1_555 1_555
C1_4 N1_4 1_555 1_555
C2_4 C1_4 1_555 1_555
C3_4 C2_4 1_555 1_555
H2_4 C3_4 1_555 1_555
C4_4 C2_4 1_555 1_555
C5_4 C4_4 1_555 1_555
C6_4 C5_4 1_555 1_555
C7_4 C6_4 1_555 1_555
C8_4 C7_4 1_555 1_555
H5_4 C8_4 1_555 1_555
C9_4 C4_4 1_555 1_555
H6_4 C9_4 1_555 1_555
C10_4 N10_2 1_555 1_555
C11_4 C7_4 1_555 1_555
C12_4 C11_4 1_555 1_555
H8_4 C12_4 1_555 1_555
C8_4 C9_4 1_555 1_555
C10_4 C11_4 1_555 1_555
N5_4 Fe3_2 1_555 1_555
N9_2 N5_4 1_555 1_555
N13 C24_4 1_555 1_555
C13_4 N5_4 1_555 1_555
C14_4 C13_4 1_555 1_555
C15_4 N9_2 1_555 1_555
H10_4 C15_4 1_555 1_555
C16_4 C14_4 1_555 1_555
C17_4 C16_4 1_555 1_555
C18_4 C17_4 1_555 1_555
C19_4 C18_4 1_555 1_555
C20_4 C19_4 1_555 1_555
H13_4 C20_4 1_555 1_555
C21_4 C16_4 1_555 1_555
H14_4 C21_4 1_555 1_555
C22_4 N11_2 1_555 1_555
C23_4 C19_4 1_555 1_555
C24_4 C23_4 1_555 1_555
H16_4 C24_4 1_555 1_555
C14_4 C15_4 1_555 1_555
C20_4 C21_4 1_555 1_555
C22_4 C23_4 1_555 1_555

#END
