
###############################################################################
#
# This file contains modified crystal structure data generated from the
# MOF subset of the Cambridge Structural Database (CSD) v543 
# hosted by the Cambridge Crystallographic Data Centre (CCDC).
#
# This work is licensed under the Creative Commons
# Attribution-NonCommercial-ShareAlike 4.0 International License.
# To view a copy of this license, visit
# http://creativecommons.org/licenses/by-nc-sa/4.0/
# or send a letter to
# Creative Commons, PO Box 1866, Mountain View, CA 94042, USA.
#
# CIF created using the CSD Python API on 29 September 2022
# The structure has been converted into the P1 space group
# The structure has a 3D framework
# The original CSD entry QUQFOY is in the monoclinic crystal system
# The framework has been calculated to contain at least 10.0% void space
# The void calculation uses a probe of radius 1.32A, grid spacing 0.4
# H atom positions have been added when not included in the experimental data
#
###############################################################################

data_QUQFOY
_chemical_formula_moiety         '(C264 H216 Cd24 N8 O136)n'
_symmetry_cell_setting           triclinic
_symmetry_space_group_name_H-M   'P 1'
_symmetry_Int_Tables_number      1
_space_group_name_Hall           'P 1'
loop_
_symmetry_equiv_pos_site_id
_symmetry_equiv_pos_as_xyz
1 x,y,z
_cell_length_a                   32.476(11)
_cell_length_b                   23.135(8)
_cell_length_c                   18.163(6)
_cell_angle_alpha                90
_cell_angle_beta                 112.301(6)
_cell_angle_gamma                90
_cell_volume                     12625.7
loop_
_atom_site_label
_atom_site_type_symbol
_atom_site_fract_x
_atom_site_fract_y
_atom_site_fract_z
Cd1 Cd 0.15867(3) 0.10382(4) 0.10032(6)
O1 O 0.1415(3) 0.0030(3) 0.1066(5)
O2 O 0.1533(3) 0.0581(4) 0.2108(5)
C1 C 0.1445(4) 0.0106(6) 0.1805(8)
H1 H 0.1583 0.0011 0.3255
Cd7 Cd 0.19330(4) 0.03584(4) 0.56511(6)
O20 O 0.2311(3) 0.1315(5) 0.1601(6)
O21 O 0.2342(3) 0.0421(5) 0.1286(6)
O22 O 0.0828(3) 0.1287(4) 0.0510(6)
O23 O 0.1320(3) 0.1890(4) 0.1380(5)
O18 O 0.1604(4) 0.0212(5) 0.9603(6)
O19 O 0.1564(3) 0.1152(4) 0.9784(6)
Cd2 Cd 0.19330(4) 0.96416(4) 0.06511(6)
Cd3 Cd 0.06077(4) 0.40756(5) 0.33478(7)
O3 O 0.1604(4) 0.9788(5) 0.4603(6)
O4 O 0.1564(3) 0.8848(4) 0.4784(6)
O5 O 0.2689(3) 0.6315(5) 0.3399(6)
O6 O 0.2658(3) 0.5421(5) 0.3714(6)
O7 O 0.1203(3) 0.4503(5) 0.3174(6)
O8 O 0.0602(4) 0.5019(4) 0.2745(6)
O13 O 0.1120(4) 0.3483(5) 0.4363(6)
C2 C 0.1383(4) 0.9598(6) 0.2221(8)
C3 C 0.1483(5) 0.9656(6) 0.3013(9)
C4 C 0.1440(4) 0.9190(6) 0.3475(8)
C5 C 0.1300(5) 0.8653(6) 0.3121(8)
H2 H 0.1274 0.8342 0.3426
C6 C 0.1199(5) 0.8584(6) 0.2311(8)
C7 C 0.1251(4) 0.9049(5) 0.1895(7)
H3 H 0.1196 0.8997 0.1358
C8 C 0.1548(5) 0.9246(8) 0.4386(10)
C9 C 0.1060(5) 0.8029(6) 0.1916(8)
C10 C 0.1245(4) 0.7497(7) 0.2272(8)
H4 H 0.1481 0.7507 0.2763
C11 C 0.1101(4) 0.6974(6) 0.1944(8)
C12 C 0.0753(4) 0.6974(6) 0.1190(9)
H5 H 0.0653 0.6619 0.0950
C13 C 0.0552(4) 0.7459(6) 0.0787(8)
C14 C 0.0722(5) 0.7992(6) 0.1185(9)
H6 H 0.0595 0.8334 0.0931
C15 C 0.1308(5) 0.6444(6) 0.2352(8)
C16 C 0.1769(5) 0.6411(6) 0.2670(7)
H7 H 0.1934 0.6729 0.2628
C17 C 0.1989(5) 0.5915(7) 0.3050(9)
C18 C 0.1742(5) 0.5446(7) 0.3111(8)
H8 H 0.1886 0.5112 0.3366
C19 C 0.1273(5) 0.5466(5) 0.2792(8)
C20 C 0.1047(5) 0.5964(5) 0.2386(7)
H9 H 0.0738 0.5974 0.2149
C21 C 0.2486(5) 0.5875(7) 0.3431(8)
C22 C 0.0996(7) 0.4959(8) 0.2903(9)
C23 C 0.0152(5) 0.7464(6) 0.0037(8)
O14 O 0.2434(5) 0.9396(8) 0.0073(10)
O15 O 0.1466(4) 0.8891(4) 0.0073(7)
O16 O 0.2304(3) 0.9121(4) 0.1768(6)
O17 O 0.0652(4) 0.4598(6) 0.4457(6)
N1 N 0.0479(5) 0.5351(7) 0.5025(8)
C31 C 0.0473(6) 0.5066(8) 0.4394(13)
C32 C 0.0249(6) 0.5897(7) 0.4905(11)
H13 H 0.0092 0.5961 0.4346
H14 H 0.0042 0.5891 0.5166
H15 H 0.0461 0.6202 0.5124
C33 C 0.0730(5) 0.5183(7) 0.5843(8)
H16 H 0.0872 0.4818 0.5852
H17 H 0.0951 0.5471 0.6097
H18 H 0.0531 0.5149 0.6120
Cd4 Cd 0.15867(3) 0.89618(4) 0.60032(6)
Cd5 Cd 0.34133(3) 0.60382(4) 0.39968(6)
Cd8 Cd 0.30670(4) 0.46416(4) 0.43489(6)
O24 O 0.0599(3) 0.3312(4) 0.2599(6)
H19 H 0.132171 0.373217 0.479452
H20 H 0.0952833 0.322147 0.458342
H23 H 0.20974 0.883929 0.185875
H24 H 0.25542 0.891035 0.1702
H25 H 0.0304586 0.525324 0.380541
H26 H 0.266068 0.970594 0.017757
H27 H 0.258305 0.902668 0.0303786
C24 C 0.0120(5) 0.7063(6) 0.9434(10)
H10 H 0.0357 0.6815 0.9504
Cd10 Cd 0.06077(4) 0.59244(5) 0.83478(7)
H21 H 0.118739 0.904285 0.966249
H22 H 0.161298 0.862437 0.981997
H12 H 0.9847 0.8132 0.0266
O25 O 0.9922(3) 0.3886(4) 0.3302(5)
O9 O 0.9172(3) 0.8713(4) 0.9490(6)
O10 O 0.8680(3) 0.8110(4) 0.8620(5)
O11 O 0.9401(3) 0.6688(4) 0.7401(6)
O12 O 0.9922(3) 0.6114(4) 0.8302(5)
C25 C 0.9746(5) 0.7031(6) 0.8741(8)
C26 C 0.9404(5) 0.7415(6) 0.8612(8)
H11 H 0.9150 0.7404 0.8148
C27 C 0.9452(5) 0.7832(5) 0.9214(9)
C28 C 0.9822(5) 0.7847(5) 0.9890(9)
C29 C 0.9072(6) 0.8248(6) 0.9103(10)
C30 C 0.9700(5) 0.6585(6) 0.8116(10)
Cd6 Cd 0.84133(3) 0.89618(4) 0.89968(6)
Cd9 Cd 0.93923(4) 0.59244(5) 0.66522(7)
O9_2 O 0.0828(3) 0.8713(4) 0.5510(6)
O10_2 O 0.1320(3) 0.8110(4) 0.6380(5)
O11_2 O 0.0599(3) 0.6688(4) 0.7599(6)
O12_2 O 0.0078(3) 0.6114(4) 0.6698(5)
C25_2 C 0.0254(5) 0.7031(6) 0.6259(8)
C26_2 C 0.0596(5) 0.7415(6) 0.6388(8)
H11_2 H 0.0850 0.7404 0.6852
C27_2 C 0.0548(5) 0.7832(5) 0.5786(9)
C28_2 C 0.0178(5) 0.7847(5) 0.5110(9)
H12_2 H 0.0153 0.8132 0.4734
C29_2 C 0.0928(6) 0.8248(6) 0.5897(10)
C30_2 C 0.0300(5) 0.6585(6) 0.6884(10)
O25_2 O 0.0078(3) 0.3886(4) 0.1698(5)
Cd1_2 Cd 0.84133(3) 0.10382(4) 0.39968(6)
O1_2 O 0.8585(3) 0.0030(3) 0.3934(5)
O2_2 O 0.8467(3) 0.0581(4) 0.2892(5)
C1_2 C 0.8555(4) 0.0106(6) 0.3195(8)
H1_2 H 0.8417 0.0011 0.1745
O18_2 O 0.8396(4) 0.0212(5) 0.5397(6)
O19_2 O 0.8436(3) 0.1152(4) 0.5216(6)
O20_2 O 0.7689(3) 0.1315(5) 0.3399(6)
O21_2 O 0.7658(3) 0.0421(5) 0.3714(6)
O22_2 O 0.9172(3) 0.1287(4) 0.4490(6)
O23_2 O 0.8680(3) 0.1890(4) 0.3620(5)
Cd7_2 Cd 0.80670(4) 0.03584(4) 0.93489(6)
Cd2_2 Cd 0.80670(4) 0.96416(4) 0.43489(6)
Cd3_2 Cd 0.93923(4) 0.40756(5) 0.16522(7)
O3_2 O 0.8396(4) 0.9788(5) 0.0397(6)
O4_2 O 0.8436(3) 0.8848(4) 0.0216(6)
O5_2 O 0.7311(3) 0.6315(5) 0.1601(6)
O6_2 O 0.7342(3) 0.5421(5) 0.1286(6)
O7_2 O 0.8797(3) 0.4503(5) 0.1826(6)
O8_2 O 0.9398(4) 0.5019(4) 0.2255(6)
O13_2 O 0.8880(4) 0.3483(5) 0.0637(6)
C2_2 C 0.8617(4) 0.9598(6) 0.2779(8)
C3_2 C 0.8517(5) 0.9656(6) 0.1987(9)
C4_2 C 0.8560(4) 0.9190(6) 0.1525(8)
C5_2 C 0.8700(5) 0.8653(6) 0.1879(8)
H2_2 H 0.8726 0.8342 0.1574
C6_2 C 0.8801(5) 0.8584(6) 0.2689(8)
C7_2 C 0.8749(4) 0.9049(5) 0.3105(7)
H3_2 H 0.8804 0.8997 0.3642
C8_2 C 0.8452(5) 0.9246(8) 0.0614(10)
C9_2 C 0.8940(5) 0.8029(6) 0.3084(8)
C10_2 C 0.8755(4) 0.7497(7) 0.2728(8)
H4_2 H 0.8519 0.7507 0.2237
C11_2 C 0.8899(4) 0.6974(6) 0.3056(8)
C12_2 C 0.9247(4) 0.6974(6) 0.3810(9)
H5_2 H 0.9347 0.6619 0.4050
C13_2 C 0.9448(4) 0.7459(6) 0.4213(8)
C14_2 C 0.9278(5) 0.7992(6) 0.3815(9)
H6_2 H 0.9405 0.8334 0.4069
C15_2 C 0.8692(5) 0.6444(6) 0.2648(8)
C16_2 C 0.8231(5) 0.6411(6) 0.2330(7)
H7_2 H 0.8066 0.6729 0.2372
C17_2 C 0.8011(5) 0.5915(7) 0.1950(9)
C18_2 C 0.8258(5) 0.5446(7) 0.1889(8)
H8_2 H 0.8114 0.5112 0.1634
C19_2 C 0.8727(5) 0.5466(5) 0.2208(8)
C20_2 C 0.8953(5) 0.5964(5) 0.2614(7)
H9_2 H 0.9262 0.5974 0.2851
C21_2 C 0.7514(5) 0.5875(7) 0.1569(8)
C22_2 C 0.9004(7) 0.4959(8) 0.2097(9)
C23_2 C 0.9848(5) 0.7464(6) 0.4963(8)
C24_2 C 0.9880(5) 0.7063(6) 0.5566(10)
H10_2 H 0.9643 0.6815 0.5496
O14_2 O 0.7566(5) 0.9396(8) 0.4927(10)
O15_2 O 0.8534(4) 0.8891(4) 0.4927(7)
O16_2 O 0.7696(3) 0.9121(4) 0.3232(6)
O17_2 O 0.9348(4) 0.4598(6) 0.0543(6)
C31_2 C 0.9527(6) 0.5066(8) 0.0606(13)
C32_2 C 0.9751(6) 0.5897(7) 0.0095(11)
H13_2 H 0.9908 0.5961 0.0654
Cd5_2 Cd 0.65867(3) 0.60382(4) 0.10032(6)
Cd8_2 Cd 0.69330(4) 0.46416(4) 0.06511(6)
O24_2 O 0.9401(3) 0.3312(4) 0.2401(6)
H19_2 H 0.867829 0.373217 0.020548
H20_2 H 0.904717 0.322147 0.0416576
H21_2 H 0.881261 0.904285 0.533751
H22_2 H 0.838702 0.862437 0.518003
H23_2 H 0.79026 0.883929 0.314125
H24_2 H 0.74458 0.891035 0.3298
H25_2 H 0.969541 0.525324 0.119459
H26_2 H 0.733932 0.970594 0.482243
H27_2 H 0.741695 0.902668 0.469621
N1_2 N 0.9521(5) 0.5351(7) 0.9975(8)
H14_2 H 0.9958 0.5891 0.9834
H15_2 H 0.9539 0.6202 0.9876
C33_2 C 0.9270(5) 0.5183(7) 0.9157(8)
H16_2 H 0.9128 0.4818 0.9148
H17_2 H 0.9049 0.5471 0.8903
H18_2 H 0.9469 0.5149 0.8880
O1_3 O 0.6415(3) 0.5030(3) 0.1066(5)
O2_3 O 0.6533(3) 0.5581(4) 0.2108(5)
O3_3 O 0.6604(4) 0.4788(5) 0.4603(6)
O4_3 O 0.6564(3) 0.3848(4) 0.4784(6)
O8_3 O 0.5602(4) 0.0019(4) 0.2745(6)
C1_3 C 0.6445(4) 0.5106(6) 0.1805(8)
C2_3 C 0.6383(4) 0.4598(6) 0.2221(8)
C3_3 C 0.6483(5) 0.4656(6) 0.3013(9)
H1_3 H 0.6583 0.5011 0.3255
C4_3 C 0.6440(4) 0.4190(6) 0.3475(8)
C5_3 C 0.6300(5) 0.3653(6) 0.3121(8)
H2_3 H 0.6274 0.3342 0.3426
C6_3 C 0.6199(5) 0.3584(6) 0.2311(8)
C7_3 C 0.6251(4) 0.4049(5) 0.1895(7)
H3_3 H 0.6196 0.3997 0.1358
C8_3 C 0.6548(5) 0.4246(8) 0.4386(10)
C9_3 C 0.6060(5) 0.3029(6) 0.1916(8)
C10_3 C 0.6245(4) 0.2497(7) 0.2272(8)
H4_3 H 0.6481 0.2507 0.2763
C11_3 C 0.6101(4) 0.1974(6) 0.1944(8)
C12_3 C 0.5753(4) 0.1974(6) 0.1190(9)
H5_3 H 0.5653 0.1619 0.0950
C13_3 C 0.5552(4) 0.2459(6) 0.0787(8)
C14_3 C 0.5722(5) 0.2992(6) 0.1185(9)
H6_3 H 0.5595 0.3334 0.0931
C15_3 C 0.6308(5) 0.1444(6) 0.2352(8)
C16_3 C 0.6769(5) 0.1411(6) 0.2670(7)
H7_3 H 0.6934 0.1729 0.2628
C17_3 C 0.6989(5) 0.0915(7) 0.3050(9)
C18_3 C 0.6742(5) 0.0446(7) 0.3111(8)
H8_3 H 0.6886 0.0112 0.3366
C19_3 C 0.6273(5) 0.0466(5) 0.2792(8)
C20_3 C 0.6047(5) 0.0964(5) 0.2386(7)
H9_3 H 0.5738 0.0974 0.2149
C21_3 C 0.7486(5) 0.0875(7) 0.3431(8)
C23_3 C 0.5152(5) 0.2464(6) 0.0037(8)
H12_3 H 0.4847 0.3132 0.0266
O14_3 O 0.7434(5) 0.4396(8) 0.0073(10)
O15_3 O 0.6466(4) 0.3891(4) 0.0073(7)
O16_3 O 0.7304(3) 0.4121(4) 0.1768(6)
N1_3 N 0.5479(5) 0.0351(7) 0.5025(8)
C31_3 C 0.5473(6) 0.0066(8) 0.4394(13)
C32_3 C 0.5249(6) 0.0897(7) 0.4905(11)
H13_3 H 0.5092 0.0961 0.4346
H14_3 H 0.5042 0.0891 0.5166
H15_3 H 0.5461 0.1202 0.5124
C33_3 C 0.5730(5) 0.0183(7) 0.5843(8)
H17_3 H 0.5951 0.0471 0.6097
H18_3 H 0.5531 0.0149 0.6120
Cd4_2 Cd 0.65867(3) 0.39618(4) 0.60032(6)
Cd7_3 Cd 0.69330(4) 0.53584(4) 0.56511(6)
O22_3 O 0.5828(3) 0.6287(4) 0.0510(6)
O23_3 O 0.6320(3) 0.6890(4) 0.1380(5)
H23_3 H 0.70974 0.383929 0.185875
H24_3 H 0.75542 0.391035 0.1702
H25_3 H 0.530459 0.0253242 0.380541
H26_3 H 0.766068 0.470594 0.017757
H27_3 H 0.758305 0.402668 0.0303786
O9_3 O 0.4172(3) 0.3713(4) 0.9490(6)
O10_3 O 0.3680(3) 0.3110(4) 0.8620(5)
O11_3 O 0.4401(3) 0.1688(4) 0.7401(6)
O12_3 O 0.4922(3) 0.1114(4) 0.8302(5)
C24_3 C 0.5120(5) 0.2063(6) 0.9434(10)
H10_3 H 0.5357 0.1815 0.9504
C25_3 C 0.4746(5) 0.2031(6) 0.8741(8)
C26_3 C 0.4404(5) 0.2415(6) 0.8612(8)
H11_3 H 0.4150 0.2404 0.8148
C27_3 C 0.4452(5) 0.2832(5) 0.9214(9)
C28_3 C 0.4822(5) 0.2847(5) 0.9890(9)
C29_3 C 0.4072(6) 0.3248(6) 0.9103(10)
C30_3 C 0.4700(5) 0.1585(6) 0.8116(10)
Cd6_2 Cd 0.34133(3) 0.39618(4) 0.89968(6)
Cd9_2 Cd 0.43923(4) 0.09244(5) 0.66522(7)
Cd10_2 Cd 0.56077(4) 0.09244(5) 0.83478(7)
O18_3 O 0.6604(4) 0.5212(5) 0.9603(6)
O19_3 O 0.6564(3) 0.6152(4) 0.9784(6)
H21_3 H 0.618739 0.404285 0.966249
H22_3 H 0.661298 0.362437 0.981997
Cd3_3 Cd 0.56077(4) 0.90756(5) 0.33478(7)
O7_3 O 0.6203(3) 0.9503(5) 0.3174(6)
O13_3 O 0.6120(4) 0.8483(5) 0.4363(6)
C22_3 C 0.5996(7) 0.9959(8) 0.2903(9)
O17_3 O 0.5652(4) 0.9598(6) 0.4457(6)
H16_3 H 0.5872 0.9818 0.5852
O24_3 O 0.5599(3) 0.8312(4) 0.2599(6)
O25_3 O 0.4922(3) 0.8886(4) 0.3302(5)
H19_3 H 0.632171 0.873217 0.479452
H20_3 H 0.595283 0.822147 0.458342
O1_4 O 0.3585(3) 0.5030(3) 0.3934(5)
O2_4 O 0.3467(3) 0.5581(4) 0.2892(5)
O3_4 O 0.3396(4) 0.4788(5) 0.0397(6)
O4_4 O 0.3436(3) 0.3848(4) 0.0216(6)
O8_4 O 0.4398(4) 0.0019(4) 0.2255(6)
O9_4 O 0.5828(3) 0.3713(4) 0.5510(6)
O10_4 O 0.6320(3) 0.3110(4) 0.6380(5)
O11_4 O 0.5599(3) 0.1688(4) 0.7599(6)
O12_4 O 0.5078(3) 0.1114(4) 0.6698(5)
C1_4 C 0.3555(4) 0.5106(6) 0.3195(8)
C2_4 C 0.3617(4) 0.4598(6) 0.2779(8)
C3_4 C 0.3517(5) 0.4656(6) 0.1987(9)
H1_4 H 0.3417 0.5011 0.1745
C4_4 C 0.3560(4) 0.4190(6) 0.1525(8)
C5_4 C 0.3700(5) 0.3653(6) 0.1879(8)
H2_4 H 0.3726 0.3342 0.1574
C6_4 C 0.3801(5) 0.3584(6) 0.2689(8)
C7_4 C 0.3749(4) 0.4049(5) 0.3105(7)
H3_4 H 0.3804 0.3997 0.3642
C8_4 C 0.3452(5) 0.4246(8) 0.0614(10)
C9_4 C 0.3940(5) 0.3029(6) 0.3084(8)
C10_4 C 0.3755(4) 0.2497(7) 0.2728(8)
H4_4 H 0.3519 0.2507 0.2237
C11_4 C 0.3899(4) 0.1974(6) 0.3056(8)
C12_4 C 0.4247(4) 0.1974(6) 0.3810(9)
H5_4 H 0.4347 0.1619 0.4050
C13_4 C 0.4448(4) 0.2459(6) 0.4213(8)
C14_4 C 0.4278(5) 0.2992(6) 0.3815(9)
H6_4 H 0.4405 0.3334 0.4069
C15_4 C 0.3692(5) 0.1444(6) 0.2648(8)
C16_4 C 0.3231(5) 0.1411(6) 0.2330(7)
H7_4 H 0.3066 0.1729 0.2372
C17_4 C 0.3011(5) 0.0915(7) 0.1950(9)
C18_4 C 0.3258(5) 0.0446(7) 0.1889(8)
H8_4 H 0.3114 0.0112 0.1634
C19_4 C 0.3727(5) 0.0466(5) 0.2208(8)
C20_4 C 0.3953(5) 0.0964(5) 0.2614(7)
H9_4 H 0.4262 0.0974 0.2851
C21_4 C 0.2514(5) 0.0875(7) 0.1569(8)
C23_4 C 0.4848(5) 0.2464(6) 0.4963(8)
C24_4 C 0.4880(5) 0.2063(6) 0.5566(10)
H10_4 H 0.4643 0.1815 0.5496
C25_4 C 0.5254(5) 0.2031(6) 0.6259(8)
C26_4 C 0.5596(5) 0.2415(6) 0.6388(8)
H11_4 H 0.5850 0.2404 0.6852
C27_4 C 0.5548(5) 0.2832(5) 0.5786(9)
C28_4 C 0.5178(5) 0.2847(5) 0.5110(9)
H12_4 H 0.5153 0.3132 0.4734
C29_4 C 0.5928(6) 0.3248(6) 0.5897(10)
C30_4 C 0.5300(5) 0.1585(6) 0.6884(10)
O14_4 O 0.2566(5) 0.4396(8) 0.4927(10)
O15_4 O 0.3534(4) 0.3891(4) 0.4927(7)
O16_4 O 0.2696(3) 0.4121(4) 0.3232(6)
C31_4 C 0.4527(6) 0.0066(8) 0.0606(13)
C32_4 C 0.4751(6) 0.0897(7) 0.0095(11)
H13_4 H 0.4908 0.0961 0.0654
O18_4 O 0.3396(4) 0.5212(5) 0.5397(6)
O19_4 O 0.3436(3) 0.6152(4) 0.5216(6)
O22_4 O 0.4172(3) 0.6287(4) 0.4490(6)
O23_4 O 0.3680(3) 0.6890(4) 0.3620(5)
H21_4 H 0.381261 0.404285 0.533751
H22_4 H 0.338702 0.362437 0.518003
H23_4 H 0.29026 0.383929 0.314125
H24_4 H 0.24458 0.391035 0.3298
H25_4 H 0.469541 0.0253242 0.119459
H26_4 H 0.233932 0.470594 0.482243
H27_4 H 0.241695 0.402668 0.469621
N1_4 N 0.4521(5) 0.0351(7) 0.9975(8)
H14_4 H 0.4958 0.0891 0.9834
H15_4 H 0.4539 0.1202 0.9876
C33_4 C 0.4270(5) 0.0183(7) 0.9157(8)
H17_4 H 0.4049 0.0471 0.8903
H18_4 H 0.4469 0.0149 0.8880
Cd7_4 Cd 0.30670(4) 0.53584(4) 0.93489(6)
Cd3_4 Cd 0.43923(4) 0.90756(5) 0.16522(7)
O7_4 O 0.3797(3) 0.9503(5) 0.1826(6)
O13_4 O 0.3880(4) 0.8483(5) 0.0637(6)
C22_4 C 0.4004(7) 0.9959(8) 0.2097(9)
O17_4 O 0.4348(4) 0.9598(6) 0.0543(6)
O24_4 O 0.4401(3) 0.8312(4) 0.2401(6)
O25_4 O 0.5078(3) 0.8886(4) 0.1698(5)
H19_4 H 0.367829 0.873217 0.020548
H20_4 H 0.404717 0.822147 0.0416576
C25_5 C 0.0254(5) 0.2969(6) 0.1259(8)
C26_5 C 0.0596(5) 0.2585(6) 0.1388(8)
H11_5 H 0.0850 0.2596 0.1852
C27_5 C 0.0548(5) 0.2168(5) 0.0786(9)
C28_5 C 0.0178(5) 0.2153(5) 0.0110(9)
C29_5 C 0.0928(6) 0.1752(6) 0.0897(10)
C30_5 C 0.0300(5) 0.3415(6) 0.1884(10)
H12_5 H 0.0153 0.1868 0.9734
C24_5 C 0.9880(5) 0.2937(6) 0.0566(10)
H10_5 H 0.9643 0.3185 0.0496
H21_5 H 0.881261 0.0957148 0.0337512
H22_5 H 0.838702 0.137563 0.0180031
O5_3 O 0.7311(3) 0.3685(5) 0.6601(6)
O6_3 O 0.7342(3) 0.4579(5) 0.6286(6)
O7_5 O 0.8797(3) 0.5497(5) 0.6826(6)
O8_5 O 0.9398(4) 0.4981(4) 0.7255(6)
O13_5 O 0.8880(4) 0.6517(5) 0.5637(6)
C2_5 C 0.8617(4) 0.0402(6) 0.7779(8)
C3_5 C 0.8517(5) 0.0344(6) 0.6987(9)
C4_5 C 0.8560(4) 0.0810(6) 0.6525(8)
C5_5 C 0.8700(5) 0.1347(6) 0.6879(8)
H2_5 H 0.8726 0.1658 0.6574
C6_5 C 0.8801(5) 0.1416(6) 0.7689(8)
C7_5 C 0.8749(4) 0.0951(5) 0.8105(7)
H3_5 H 0.8804 0.1003 0.8642
C8_5 C 0.8452(5) 0.0754(8) 0.5614(10)
C9_5 C 0.8940(5) 0.1971(6) 0.8084(8)
C10_5 C 0.8755(4) 0.2503(7) 0.7728(8)
H4_5 H 0.8519 0.2493 0.7237
C11_5 C 0.8899(4) 0.3026(6) 0.8056(8)
C12_5 C 0.9247(4) 0.3026(6) 0.8810(9)
H5_5 H 0.9347 0.3381 0.9050
C13_5 C 0.9448(4) 0.2541(6) 0.9213(8)
C14_5 C 0.9278(5) 0.2008(6) 0.8815(9)
H6_5 H 0.9405 0.1666 0.9069
C15_5 C 0.8692(5) 0.3556(6) 0.7648(8)
C16_5 C 0.8231(5) 0.3589(6) 0.7330(7)
H7_5 H 0.8066 0.3271 0.7372
C17_5 C 0.8011(5) 0.4085(7) 0.6950(9)
C18_5 C 0.8258(5) 0.4554(7) 0.6889(8)
H8_5 H 0.8114 0.4888 0.6634
C19_5 C 0.8727(5) 0.4534(5) 0.7208(8)
C20_5 C 0.8953(5) 0.4036(5) 0.7614(7)
H9_5 H 0.9262 0.4026 0.7851
C21_5 C 0.7514(5) 0.4125(7) 0.6569(8)
C22_5 C 0.9004(7) 0.5041(8) 0.7097(9)
C23_5 C 0.9848(5) 0.2536(6) 0.9963(8)
O14_5 O 0.7566(5) 0.0604(8) 0.9927(10)
O15_5 O 0.8534(4) 0.1109(4) 0.9927(7)
O16_5 O 0.7696(3) 0.0879(4) 0.8232(6)
O17_5 O 0.9348(4) 0.5402(6) 0.5543(6)
N1_5 N 0.9521(5) 0.4649(7) 0.4975(8)
C31_5 C 0.9527(6) 0.4934(8) 0.5606(13)
C32_5 C 0.9751(6) 0.4103(7) 0.5095(11)
H13_5 H 0.9908 0.4039 0.5654
H14_5 H 0.9958 0.4109 0.4834
H15_5 H 0.9539 0.3798 0.4876
C33_5 C 0.9270(5) 0.4817(7) 0.4157(8)
H16_4 H 0.9128 0.5182 0.4148
H17_5 H 0.9049 0.4529 0.3903
H18_5 H 0.9469 0.4851 0.3880
H19_5 H 0.867829 0.626783 0.520548
H20_5 H 0.904717 0.677853 0.541658
H23_5 H 0.79026 0.116071 0.814125
H24_5 H 0.74458 0.108965 0.8298
H25_5 H 0.969541 0.474676 0.619459
H26_5 H 0.733932 0.029406 0.982243
H27_5 H 0.741695 0.0973317 0.969621
O1_5 O 0.8585(3) 0.9970(3) 0.8934(5)
O2_5 O 0.8467(3) 0.9419(4) 0.7892(5)
C1_5 C 0.8555(4) 0.9894(6) 0.8195(8)
H1_5 H 0.8417 0.9989 0.6745
O20_3 O 0.7689(3) 0.8685(5) 0.8399(6)
O21_3 O 0.7658(3) 0.9579(5) 0.8714(6)
N1_6 N 0.0479(5) 0.4649(7) 0.0025(8)
H14_6 H 0.0042 0.4109 0.0166
H15_6 H 0.0461 0.3798 0.0124
C33_6 C 0.0730(5) 0.4817(7) 0.0843(8)
H16_5 H 0.0872 0.5182 0.0852
H17_6 H 0.0951 0.4529 0.1097
H18_6 H 0.0531 0.4851 0.1120
O5_4 O 0.2689(3) 0.3685(5) 0.8399(6)
O6_4 O 0.2658(3) 0.4579(5) 0.8714(6)
O7_6 O 0.1203(3) 0.5497(5) 0.8174(6)
O8_6 O 0.0602(4) 0.4981(4) 0.7745(6)
O13_6 O 0.1120(4) 0.6517(5) 0.9363(6)
C2_6 C 0.1383(4) 0.0402(6) 0.7221(8)
C3_6 C 0.1483(5) 0.0344(6) 0.8013(9)
C4_6 C 0.1440(4) 0.0810(6) 0.8475(8)
C5_6 C 0.1300(5) 0.1347(6) 0.8121(8)
H2_6 H 0.1274 0.1658 0.8426
C6_6 C 0.1199(5) 0.1416(6) 0.7311(8)
C7_6 C 0.1251(4) 0.0951(5) 0.6895(7)
H3_6 H 0.1196 0.1003 0.6358
C8_6 C 0.1548(5) 0.0754(8) 0.9386(10)
C9_6 C 0.1060(5) 0.1971(6) 0.6916(8)
C10_6 C 0.1245(4) 0.2503(7) 0.7272(8)
H4_6 H 0.1481 0.2493 0.7763
C11_6 C 0.1101(4) 0.3026(6) 0.6944(8)
C12_6 C 0.0753(4) 0.3026(6) 0.6190(9)
H5_6 H 0.0653 0.3381 0.5950
C13_6 C 0.0552(4) 0.2541(6) 0.5787(8)
C14_6 C 0.0722(5) 0.2008(6) 0.6185(9)
H6_6 H 0.0595 0.1666 0.5931
C15_6 C 0.1308(5) 0.3556(6) 0.7352(8)
C16_6 C 0.1769(5) 0.3589(6) 0.7670(7)
H7_6 H 0.1934 0.3271 0.7628
C17_6 C 0.1989(5) 0.4085(7) 0.8050(9)
C18_6 C 0.1742(5) 0.4554(7) 0.8111(8)
H8_6 H 0.1886 0.4888 0.8366
C19_6 C 0.1273(5) 0.4534(5) 0.7792(8)
C20_6 C 0.1047(5) 0.4036(5) 0.7386(7)
H9_6 H 0.0738 0.4026 0.7149
C21_6 C 0.2486(5) 0.4125(7) 0.8431(8)
C22_6 C 0.0996(7) 0.5041(8) 0.7903(9)
C23_6 C 0.0152(5) 0.2536(6) 0.5037(8)
C24_6 C 0.0120(5) 0.2937(6) 0.4434(10)
H10_6 H 0.0357 0.3185 0.4504
O14_6 O 0.2434(5) 0.0604(8) 0.5073(10)
O15_6 O 0.1466(4) 0.1109(4) 0.5073(7)
O16_6 O 0.2304(3) 0.0879(4) 0.6768(6)
O17_6 O 0.0652(4) 0.5402(6) 0.9457(6)
C31_6 C 0.0473(6) 0.4934(8) 0.9394(13)
C32_6 C 0.0249(6) 0.4103(7) 0.9905(11)
H13_6 H 0.0092 0.4039 0.9346
H19_6 H 0.132171 0.626783 0.979452
H20_6 H 0.0952833 0.677853 0.958342
H21_6 H 0.118739 0.0957148 0.466249
H22_6 H 0.161298 0.137563 0.481997
H23_6 H 0.20974 0.116071 0.685875
H24_6 H 0.25542 0.108965 0.6702
H25_6 H 0.0304586 0.474676 0.880541
H26_6 H 0.266068 0.029406 0.517757
H27_6 H 0.258305 0.0973317 0.530379
O1_6 O 0.1415(3) 0.9970(3) 0.6066(5)
O2_6 O 0.1533(3) 0.9419(4) 0.7108(5)
C1_6 C 0.1445(4) 0.9894(6) 0.6805(8)
H1_6 H 0.1583 0.9989 0.8255
O20_4 O 0.2311(3) 0.8685(5) 0.6601(6)
O21_4 O 0.2342(3) 0.9579(5) 0.6286(6)
C25_6 C 0.9746(5) 0.2969(6) 0.3741(8)
C26_6 C 0.9404(5) 0.2585(6) 0.3612(8)
H11_6 H 0.9150 0.2596 0.3148
C27_6 C 0.9452(5) 0.2168(5) 0.4214(9)
C28_6 C 0.9822(5) 0.2153(5) 0.4890(9)
H12_6 H 0.9847 0.1868 0.5266
C29_6 C 0.9072(6) 0.1752(6) 0.4103(10)
C30_6 C 0.9700(5) 0.3415(6) 0.3116(10)
O7_7 O 0.3797(3) 0.0497(5) 0.6826(6)
O13_7 O 0.3880(4) 0.1517(5) 0.5637(6)
C22_7 C 0.4004(7) 0.0041(8) 0.7097(9)
O17_7 O 0.4348(4) 0.0402(6) 0.5543(6)
H16_6 H 0.4128 0.0182 0.4148
H19_7 H 0.367829 0.126783 0.520548
H20_7 H 0.404717 0.177853 0.541658
C24_7 C 0.4880(5) 0.7937(6) 0.0566(10)
H10_7 H 0.4643 0.8185 0.0496
C25_7 C 0.5254(5) 0.7969(6) 0.1259(8)
C26_7 C 0.5596(5) 0.7585(6) 0.1388(8)
H11_7 H 0.5850 0.7596 0.1852
C27_7 C 0.5548(5) 0.7168(5) 0.0786(9)
C28_7 C 0.5178(5) 0.7153(5) 0.0110(9)
C29_7 C 0.5928(6) 0.6752(6) 0.0897(10)
C30_7 C 0.5300(5) 0.8415(6) 0.1884(10)
H21_7 H 0.381261 0.595715 0.0337512
H22_7 H 0.338702 0.637563 0.0180031
O1_7 O 0.3585(3) 0.4970(3) 0.8934(5)
O2_7 O 0.3467(3) 0.4419(4) 0.7892(5)
O8_7 O 0.4398(4) 0.9981(4) 0.7255(6)
C1_7 C 0.3555(4) 0.4894(6) 0.8195(8)
C2_7 C 0.3617(4) 0.5402(6) 0.7779(8)
C3_7 C 0.3517(5) 0.5344(6) 0.6987(9)
H1_7 H 0.3417 0.4989 0.6745
C4_7 C 0.3560(4) 0.5810(6) 0.6525(8)
C5_7 C 0.3700(5) 0.6347(6) 0.6879(8)
H2_7 H 0.3726 0.6658 0.6574
C6_7 C 0.3801(5) 0.6416(6) 0.7689(8)
C7_7 C 0.3749(4) 0.5951(5) 0.8105(7)
H3_7 H 0.3804 0.6003 0.8642
C8_7 C 0.3452(5) 0.5754(8) 0.5614(10)
C9_7 C 0.3940(5) 0.6971(6) 0.8084(8)
C10_7 C 0.3755(4) 0.7503(7) 0.7728(8)
H4_7 H 0.3519 0.7493 0.7237
C11_7 C 0.3899(4) 0.8026(6) 0.8056(8)
C12_7 C 0.4247(4) 0.8026(6) 0.8810(9)
H5_7 H 0.4347 0.8381 0.9050
C13_7 C 0.4448(4) 0.7541(6) 0.9213(8)
C14_7 C 0.4278(5) 0.7008(6) 0.8815(9)
H6_7 H 0.4405 0.6666 0.9069
C15_7 C 0.3692(5) 0.8556(6) 0.7648(8)
C16_7 C 0.3231(5) 0.8589(6) 0.7330(7)
H7_7 H 0.3066 0.8271 0.7372
C17_7 C 0.3011(5) 0.9085(7) 0.6950(9)
C18_7 C 0.3258(5) 0.9554(7) 0.6889(8)
H8_7 H 0.3114 0.9888 0.6634
C19_7 C 0.3727(5) 0.9534(5) 0.7208(8)
C20_7 C 0.3953(5) 0.9036(5) 0.7614(7)
H9_7 H 0.4262 0.9026 0.7851
C21_7 C 0.2514(5) 0.9125(7) 0.6569(8)
C23_7 C 0.4848(5) 0.7536(6) 0.9963(8)
H12_7 H 0.5153 0.6868 0.9734
O14_7 O 0.2566(5) 0.5604(8) 0.9927(10)
O15_7 O 0.3534(4) 0.6109(4) 0.9927(7)
O16_7 O 0.2696(3) 0.5879(4) 0.8232(6)
N1_7 N 0.4521(5) 0.9649(7) 0.4975(8)
C31_7 C 0.4527(6) 0.9934(8) 0.5606(13)
C32_7 C 0.4751(6) 0.9103(7) 0.5095(11)
H13_7 H 0.4908 0.9039 0.5654
H14_7 H 0.4958 0.9109 0.4834
H15_7 H 0.4539 0.8798 0.4876
C33_7 C 0.4270(5) 0.9817(7) 0.4157(8)
H17_7 H 0.4049 0.9529 0.3903
H18_7 H 0.4469 0.9851 0.3880
H23_7 H 0.29026 0.616071 0.814125
H24_7 H 0.24458 0.608965 0.8298
H25_7 H 0.469541 0.974676 0.619459
H26_7 H 0.233932 0.529406 0.982243
H27_7 H 0.241695 0.597332 0.969621
O7_8 O 0.6203(3) 0.0497(5) 0.8174(6)
O13_8 O 0.6120(4) 0.1517(5) 0.9363(6)
C22_8 C 0.5996(7) 0.0041(8) 0.7903(9)
O17_8 O 0.5652(4) 0.0402(6) 0.9457(6)
H19_8 H 0.632171 0.126783 0.979452
H20_8 H 0.595283 0.177853 0.958342
N1_8 N 0.5479(5) 0.9649(7) 0.0025(8)
H14_8 H 0.5042 0.9109 0.0166
H15_8 H 0.5461 0.8798 0.0124
C33_8 C 0.5730(5) 0.9817(7) 0.0843(8)
H17_8 H 0.5951 0.9529 0.1097
H18_8 H 0.5531 0.9851 0.1120
O1_8 O 0.6415(3) 0.4970(3) 0.6066(5)
O2_8 O 0.6533(3) 0.4419(4) 0.7108(5)
O8_8 O 0.5602(4) 0.9981(4) 0.7745(6)
C1_8 C 0.6445(4) 0.4894(6) 0.6805(8)
C2_8 C 0.6383(4) 0.5402(6) 0.7221(8)
C3_8 C 0.6483(5) 0.5344(6) 0.8013(9)
H1_8 H 0.6583 0.4989 0.8255
C4_8 C 0.6440(4) 0.5810(6) 0.8475(8)
C5_8 C 0.6300(5) 0.6347(6) 0.8121(8)
H2_8 H 0.6274 0.6658 0.8426
C6_8 C 0.6199(5) 0.6416(6) 0.7311(8)
C7_8 C 0.6251(4) 0.5951(5) 0.6895(7)
H3_8 H 0.6196 0.6003 0.6358
C8_8 C 0.6548(5) 0.5754(8) 0.9386(10)
C9_8 C 0.6060(5) 0.6971(6) 0.6916(8)
C10_8 C 0.6245(4) 0.7503(7) 0.7272(8)
H4_8 H 0.6481 0.7493 0.7763
C11_8 C 0.6101(4) 0.8026(6) 0.6944(8)
C12_8 C 0.5753(4) 0.8026(6) 0.6190(9)
H5_8 H 0.5653 0.8381 0.5950
C13_8 C 0.5552(4) 0.7541(6) 0.5787(8)
C14_8 C 0.5722(5) 0.7008(6) 0.6185(9)
H6_8 H 0.5595 0.6666 0.5931
C15_8 C 0.6308(5) 0.8556(6) 0.7352(8)
C16_8 C 0.6769(5) 0.8589(6) 0.7670(7)
H7_8 H 0.6934 0.8271 0.7628
C17_8 C 0.6989(5) 0.9085(7) 0.8050(9)
C18_8 C 0.6742(5) 0.9554(7) 0.8111(8)
H8_8 H 0.6886 0.9888 0.8366
C19_8 C 0.6273(5) 0.9534(5) 0.7792(8)
C20_8 C 0.6047(5) 0.9036(5) 0.7386(7)
H9_8 H 0.5738 0.9026 0.7149
C21_8 C 0.7486(5) 0.9125(7) 0.8431(8)
C23_8 C 0.5152(5) 0.7536(6) 0.5037(8)
C24_8 C 0.5120(5) 0.7937(6) 0.4434(10)
H10_8 H 0.5357 0.8185 0.4504
C25_8 C 0.4746(5) 0.7969(6) 0.3741(8)
C26_8 C 0.4404(5) 0.7585(6) 0.3612(8)
H11_8 H 0.4150 0.7596 0.3148
C27_8 C 0.4452(5) 0.7168(5) 0.4214(9)
C28_8 C 0.4822(5) 0.7153(5) 0.4890(9)
H12_8 H 0.4847 0.6868 0.5266
C29_8 C 0.4072(6) 0.6752(6) 0.4103(10)
C30_8 C 0.4700(5) 0.8415(6) 0.3116(10)
O14_8 O 0.7434(5) 0.5604(8) 0.5073(10)
O15_8 O 0.6466(4) 0.6109(4) 0.5073(7)
O16_8 O 0.7304(3) 0.5879(4) 0.6768(6)
C31_8 C 0.5473(6) 0.9934(8) 0.9394(13)
C32_8 C 0.5249(6) 0.9103(7) 0.9905(11)
H13_8 H 0.5092 0.9039 0.9346
H21_8 H 0.618739 0.595715 0.466249
H22_8 H 0.661298 0.637563 0.481997
H23_8 H 0.70974 0.616071 0.685875
H24_8 H 0.75542 0.608965 0.6702
H25_8 H 0.530459 0.974676 0.880541
H26_8 H 0.766068 0.529406 0.517757
H27_8 H 0.758305 0.597332 0.530379
H16_7 H 0.4128 0.9818 0.9148
H16_8 H 0.5872 0.0182 0.0852
loop_
_geom_bond_atom_site_label_1
_geom_bond_atom_site_label_2
_geom_bond_site_symmetry_1
_geom_bond_site_symmetry_2
Cd1 O1 1_555 1_555
O1 C1 1_555 1_555
O2 Cd1 1_555 1_555
C1 O2 1_555 1_555
O20 Cd1 1_555 1_555
O22 Cd1 1_555 1_555
O23 Cd1 1_555 1_555
Cd3 O7 1_555 1_555
O3 C8 1_555 1_555
O4 C8 1_555 1_555
O5 C21 1_555 1_555
O6 C21 1_555 1_555
O7 C22 1_555 1_555
O8 Cd3 1_555 1_555
O13 Cd3 1_555 1_555
C3 C2 1_555 1_555
C4 C3 1_555 1_555
C5 C4 1_555 1_555
H2 C5 1_555 1_555
C6 C5 1_555 1_555
C7 C2 1_555 1_555
H3 C7 1_555 1_555
C8 C4 1_555 1_555
C9 C6 1_555 1_555
C10 C9 1_555 1_555
H4 C10 1_555 1_555
C11 C10 1_555 1_555
C12 C11 1_555 1_555
H5 C12 1_555 1_555
C13 C12 1_555 1_555
C14 C9 1_555 1_555
H6 C14 1_555 1_555
C15 C11 1_555 1_555
C16 C15 1_555 1_555
H7 C16 1_555 1_555
C17 C16 1_555 1_555
C18 C17 1_555 1_555
H8 C18 1_555 1_555
C19 C18 1_555 1_555
C20 C15 1_555 1_555
H9 C20 1_555 1_555
C21 C17 1_555 1_555
C22 O8 1_555 1_555
C23 C13 1_555 1_555
O14 Cd2 1_555 1_555
O15 Cd2 1_555 1_555
O16 Cd2 1_555 1_555
O17 Cd3 1_555 1_555
N1 C31 1_555 1_555
C31 O17 1_555 1_555
C32 N1 1_555 1_555
H13 C32 1_555 1_555
H14 C32 1_555 1_555
H15 C32 1_555 1_555
C33 N1 1_555 1_555
H16 C33 1_555 1_555
H17 C33 1_555 1_555
H18 C33 1_555 1_555
Cd4 O4 1_555 1_555
Cd5 O5 1_555 1_555
Cd8 O6 1_555 1_555
O24 Cd3 1_555 1_555
C6 C7 1_555 1_555
C13 C14 1_555 1_555
C19 C20 1_555 1_555
C19 C22 1_555 1_555
O13 H19 1_555 1_555
O13 H20 1_555 1_555
O16 H23 1_555 1_555
O16 H24 1_555 1_555
C31 H25 1_555 1_555
O14 H26 1_555 1_555
O14 H27 1_555 1_555
H10 C24 1_555 1_555
O9 C29 1_555 1_555
O10 C29 1_555 1_555
O11 C30 1_555 1_555
O12 C30 1_555 1_555
C26 C25 1_555 1_555
H11 C26 1_555 1_555
C27 C26 1_555 1_555
C29 C27 1_555 1_555
C30 C25 1_555 1_555
Cd6 O9 1_555 1_555
Cd9 O11 1_555 1_555
O10 Cd6 1_555 1_555
C27 C28 1_555 1_555
O9_2 C29_2 1_555 1_555
O10_2 C29_2 1_555 1_555
O11_2 C30_2 1_555 1_555
O12_2 C30_2 1_555 1_555
C26_2 C25_2 1_555 1_555
H11_2 C26_2 1_555 1_555
C27_2 C26_2 1_555 1_555
H12_2 C28_2 1_555 1_555
C29_2 C27_2 1_555 1_555
C30_2 C25_2 1_555 1_555
Cd4 O9_2 1_555 1_555
Cd10 O11_2 1_555 1_555
O10_2 Cd4 1_555 1_555
C27_2 C28_2 1_555 1_555
Cd1_2 O1_2 1_555 1_555
O1_2 C1_2 1_555 1_555
O2_2 Cd1_2 1_555 1_555
C1_2 O2_2 1_555 1_555
O19_2 Cd1_2 1_555 1_555
O20_2 Cd1_2 1_555 1_555
O22_2 Cd1_2 1_555 1_555
O23_2 Cd1_2 1_555 1_555
Cd3_2 O7_2 1_555 1_555
O3_2 C8_2 1_555 1_555
O4_2 C8_2 1_555 1_555
O5_2 C21_2 1_555 1_555
O6_2 C21_2 1_555 1_555
O7_2 C22_2 1_555 1_555
O8_2 Cd3_2 1_555 1_555
O13_2 Cd3_2 1_555 1_555
C3_2 C2_2 1_555 1_555
C4_2 C3_2 1_555 1_555
C5_2 C4_2 1_555 1_555
H2_2 C5_2 1_555 1_555
C6_2 C5_2 1_555 1_555
C7_2 C2_2 1_555 1_555
H3_2 C7_2 1_555 1_555
C8_2 C4_2 1_555 1_555
C9_2 C6_2 1_555 1_555
C10_2 C9_2 1_555 1_555
H4_2 C10_2 1_555 1_555
C11_2 C10_2 1_555 1_555
C12_2 C11_2 1_555 1_555
H5_2 C12_2 1_555 1_555
C13_2 C12_2 1_555 1_555
C14_2 C9_2 1_555 1_555
H6_2 C14_2 1_555 1_555
C15_2 C11_2 1_555 1_555
C16_2 C15_2 1_555 1_555
H7_2 C16_2 1_555 1_555
C17_2 C16_2 1_555 1_555
C18_2 C17_2 1_555 1_555
H8_2 C18_2 1_555 1_555
C19_2 C18_2 1_555 1_555
C20_2 C15_2 1_555 1_555
H9_2 C20_2 1_555 1_555
C21_2 C17_2 1_555 1_555
C22_2 O8_2 1_555 1_555
C23_2 C13_2 1_555 1_555
C24_2 C23_2 1_555 1_555
H10_2 C24_2 1_555 1_555
O14_2 Cd2_2 1_555 1_555
O15_2 Cd2_2 1_555 1_555
O16_2 Cd2_2 1_555 1_555
O17_2 Cd3_2 1_555 1_555
C31_2 O17_2 1_555 1_555
H13_2 C32_2 1_555 1_555
Cd5_2 O5_2 1_555 1_555
Cd8_2 O6_2 1_555 1_555
O24_2 Cd3_2 1_555 1_555
C6_2 C7_2 1_555 1_555
C13_2 C14_2 1_555 1_555
C19_2 C20_2 1_555 1_555
C19_2 C22_2 1_555 1_555
O13_2 H19_2 1_555 1_555
O13_2 H20_2 1_555 1_555
O15_2 H21_2 1_555 1_555
O15_2 H22_2 1_555 1_555
O16_2 H23_2 1_555 1_555
O16_2 H24_2 1_555 1_555
C31_2 H25_2 1_555 1_555
O14_2 H26_2 1_555 1_555
O14_2 H27_2 1_555 1_555
C33_2 N1_2 1_555 1_555
H16_2 C33_2 1_555 1_555
H17_2 C33_2 1_555 1_555
H18_2 C33_2 1_555 1_555
Cd5_2 O1_3 1_555 1_555
Cd8_2 O1_3 1_555 1_555
O1_3 C1_3 1_555 1_555
O2_3 Cd5_2 1_555 1_555
O3_3 C8_3 1_555 1_555
O4_3 C8_3 1_555 1_555
O20_2 C21_3 1_555 1_555
O21_2 C21_3 1_555 1_555
C1_3 O2_3 1_555 1_555
C2_3 C1_3 1_555 1_555
C3_3 C2_3 1_555 1_555
H1_3 C3_3 1_555 1_555
C4_3 C3_3 1_555 1_555
C5_3 C4_3 1_555 1_555
H2_3 C5_3 1_555 1_555
C6_3 C5_3 1_555 1_555
C7_3 C2_3 1_555 1_555
H3_3 C7_3 1_555 1_555
C8_3 C4_3 1_555 1_555
C9_3 C6_3 1_555 1_555
C10_3 C9_3 1_555 1_555
H4_3 C10_3 1_555 1_555
C11_3 C10_3 1_555 1_555
C12_3 C11_3 1_555 1_555
H5_3 C12_3 1_555 1_555
C13_3 C12_3 1_555 1_555
C14_3 C9_3 1_555 1_555
H6_3 C14_3 1_555 1_555
C15_3 C11_3 1_555 1_555
C16_3 C15_3 1_555 1_555
H7_3 C16_3 1_555 1_555
C17_3 C16_3 1_555 1_555
C18_3 C17_3 1_555 1_555
H8_3 C18_3 1_555 1_555
C19_3 C18_3 1_555 1_555
C20_3 C15_3 1_555 1_555
H9_3 C20_3 1_555 1_555
C21_3 C17_3 1_555 1_555
C23_3 C13_3 1_555 1_555
O14_3 Cd8_2 1_555 1_555
O15_3 Cd8_2 1_555 1_555
O16_3 Cd8_2 1_555 1_555
N1_3 C31_3 1_555 1_555
C32_3 N1_3 1_555 1_555
H13_3 C32_3 1_555 1_555
H14_3 C32_3 1_555 1_555
H15_3 C32_3 1_555 1_555
C33_3 N1_3 1_555 1_555
H17_3 C33_3 1_555 1_555
H18_3 C33_3 1_555 1_555
Cd4_2 O4_3 1_555 1_555
Cd7_3 O3_3 1_555 1_555
O22_3 Cd5_2 1_555 1_555
O23_3 Cd5_2 1_555 1_555
C6_3 C7_3 1_555 1_555
C13_3 C14_3 1_555 1_555
C19_3 C20_3 1_555 1_555
O16_3 H23_3 1_555 1_555
O16_3 H24_3 1_555 1_555
C31_3 H25_3 1_555 1_555
O14_3 H26_3 1_555 1_555
O14_3 H27_3 1_555 1_555
O9_3 C29_3 1_555 1_555
O10_3 C29_3 1_555 1_555
O11_3 C30_3 1_555 1_555
O12_3 C30_3 1_555 1_555
H10_3 C24_3 1_555 1_555
C25_3 C24_3 1_555 1_555
C26_3 C25_3 1_555 1_555
H11_3 C26_3 1_555 1_555
C27_3 C26_3 1_555 1_555
C29_3 C27_3 1_555 1_555
C30_3 C25_3 1_555 1_555
Cd6_2 O9_3 1_555 1_555
Cd9_2 O11_3 1_555 1_555
Cd10_2 O12_3 1_555 1_555
O10_3 Cd6_2 1_555 1_555
C27_3 C28_3 1_555 1_555
Cd3_3 O7_3 1_555 1_555
O7_3 C22_3 1_555 1_555
O13_3 Cd3_3 1_555 1_555
O17_3 Cd3_3 1_555 1_555
O24_3 Cd3_3 1_555 1_555
O25_3 Cd3_3 1_555 1_555
O13_3 H19_3 1_555 1_555
O13_3 H20_3 1_555 1_555
Cd5 O1_4 1_555 1_555
Cd8 O1_4 1_555 1_555
O1_4 C1_4 1_555 1_555
O2_4 Cd5 1_555 1_555
O3_4 C8_4 1_555 1_555
O4_4 C8_4 1_555 1_555
O20 C21_4 1_555 1_555
O21 C21_4 1_555 1_555
O9_4 C29_4 1_555 1_555
O10_4 C29_4 1_555 1_555
O11_4 C30_4 1_555 1_555
O12_4 C30_4 1_555 1_555
C1_4 O2_4 1_555 1_555
C2_4 C1_4 1_555 1_555
C3_4 C2_4 1_555 1_555
H1_4 C3_4 1_555 1_555
C4_4 C3_4 1_555 1_555
C5_4 C4_4 1_555 1_555
H2_4 C5_4 1_555 1_555
C6_4 C5_4 1_555 1_555
C7_4 C2_4 1_555 1_555
H3_4 C7_4 1_555 1_555
C8_4 C4_4 1_555 1_555
C9_4 C6_4 1_555 1_555
C10_4 C9_4 1_555 1_555
H4_4 C10_4 1_555 1_555
C11_4 C10_4 1_555 1_555
C12_4 C11_4 1_555 1_555
H5_4 C12_4 1_555 1_555
C13_4 C12_4 1_555 1_555
C14_4 C9_4 1_555 1_555
H6_4 C14_4 1_555 1_555
C15_4 C11_4 1_555 1_555
C16_4 C15_4 1_555 1_555
H7_4 C16_4 1_555 1_555
C17_4 C16_4 1_555 1_555
C18_4 C17_4 1_555 1_555
H8_4 C18_4 1_555 1_555
C19_4 C18_4 1_555 1_555
C20_4 C15_4 1_555 1_555
H9_4 C20_4 1_555 1_555
C21_4 C17_4 1_555 1_555
C23_4 C13_4 1_555 1_555
C24_4 C23_4 1_555 1_555
H10_4 C24_4 1_555 1_555
C25_4 C24_4 1_555 1_555
C26_4 C25_4 1_555 1_555
H11_4 C26_4 1_555 1_555
C27_4 C26_4 1_555 1_555
C28_4 C23_4 1_555 1_555
H12_4 C28_4 1_555 1_555
C29_4 C27_4 1_555 1_555
C30_4 C25_4 1_555 1_555
O14_4 Cd8 1_555 1_555
O15_4 Cd8 1_555 1_555
O16_4 Cd8 1_555 1_555
H13_4 C32_4 1_555 1_555
Cd4_2 O9_4 1_555 1_555
Cd10_2 O11_4 1_555 1_555
Cd9_2 O12_4 1_555 1_555
O18_4 Cd8 1_555 1_555
O19_4 Cd5 1_555 1_555
O22_4 Cd5 1_555 1_555
O23_4 Cd5 1_555 1_555
O10_4 Cd4_2 1_555 1_555
C6_4 C7_4 1_555 1_555
C13_4 C14_4 1_555 1_555
C19_4 C20_4 1_555 1_555
C27_4 C28_4 1_555 1_555
O15_4 H21_4 1_555 1_555
O15_4 H22_4 1_555 1_555
O16_4 H23_4 1_555 1_555
O16_4 H24_4 1_555 1_555
C31_4 H25_4 1_555 1_555
O14_4 H26_4 1_555 1_555
O14_4 H27_4 1_555 1_555
C33_4 N1_4 1_555 1_555
H17_4 C33_4 1_555 1_555
H18_4 C33_4 1_555 1_555
Cd3_4 O7_4 1_555 1_555
O7_4 C22_4 1_555 1_555
O13_4 Cd3_4 1_555 1_555
O17_4 Cd3_4 1_555 1_555
O24_4 Cd3_4 1_555 1_555
O25_4 Cd3_4 1_555 1_555
O13_4 H19_4 1_555 1_555
O13_4 H20_4 1_555 1_555
O22 C29_5 1_555 1_555
O23 C29_5 1_555 1_555
O24 C30_5 1_555 1_555
O25_2 C30_5 1_555 1_555
C26_5 C25_5 1_555 1_555
H11_5 C26_5 1_555 1_555
C27_5 C26_5 1_555 1_555
C29_5 C27_5 1_555 1_555
C30_5 C25_5 1_555 1_555
C27_5 C28_5 1_555 1_555
H10_5 C24_5 1_555 1_555
Cd9 O7_5 1_555 1_555
O18_2 C8_5 1_555 1_555
O19_2 C8_5 1_555 1_555
O5_3 C21_5 1_555 1_555
O6_3 C21_5 1_555 1_555
O7_5 C22_5 1_555 1_555
O8_5 Cd9 1_555 1_555
O13_5 Cd9 1_555 1_555
C3_5 C2_5 1_555 1_555
C4_5 C3_5 1_555 1_555
C5_5 C4_5 1_555 1_555
H2_5 C5_5 1_555 1_555
C6_5 C5_5 1_555 1_555
C7_5 C2_5 1_555 1_555
H3_5 C7_5 1_555 1_555
C8_5 C4_5 1_555 1_555
C9_5 C6_5 1_555 1_555
C10_5 C9_5 1_555 1_555
H4_5 C10_5 1_555 1_555
C11_5 C10_5 1_555 1_555
C12_5 C11_5 1_555 1_555
H5_5 C12_5 1_555 1_555
C13_5 C12_5 1_555 1_555
C14_5 C9_5 1_555 1_555
H6_5 C14_5 1_555 1_555
C15_5 C11_5 1_555 1_555
C16_5 C15_5 1_555 1_555
H7_5 C16_5 1_555 1_555
C17_5 C16_5 1_555 1_555
C18_5 C17_5 1_555 1_555
H8_5 C18_5 1_555 1_555
C19_5 C18_5 1_555 1_555
C20_5 C15_5 1_555 1_555
H9_5 C20_5 1_555 1_555
C21_5 C17_5 1_555 1_555
C22_5 O8_5 1_555 1_555
C23_5 C13_5 1_555 1_555
O14_5 Cd7_2 1_555 1_555
O15_5 Cd7_2 1_555 1_555
O16_5 Cd7_2 1_555 1_555
O17_5 Cd9 1_555 1_555
N1_5 C31_5 1_555 1_555
C31_5 O17_5 1_555 1_555
C32_5 N1_5 1_555 1_555
H13_5 C32_5 1_555 1_555
H14_5 C32_5 1_555 1_555
H15_5 C32_5 1_555 1_555
C33_5 N1_5 1_555 1_555
H16_4 C33_5 1_555 1_555
H17_5 C33_5 1_555 1_555
H18_5 C33_5 1_555 1_555
Cd4_2 O5_3 1_555 1_555
Cd7_3 O6_3 1_555 1_555
C6_5 C7_5 1_555 1_555
C13_5 C14_5 1_555 1_555
C19_5 C20_5 1_555 1_555
C19_5 C22_5 1_555 1_555
O13_5 H19_5 1_555 1_555
O13_5 H20_5 1_555 1_555
O16_5 H23_5 1_555 1_555
O16_5 H24_5 1_555 1_555
C31_5 H25_5 1_555 1_555
O14_5 H26_5 1_555 1_555
O14_5 H27_5 1_555 1_555
Cd6 O1_5 1_555 1_555
O1_5 C1_5 1_555 1_555
O2_5 Cd6 1_555 1_555
C1_5 O2_5 1_555 1_555
O20_3 Cd6 1_555 1_555
C33_6 N1_6 1_555 1_555
H16_5 C33_6 1_555 1_555
H17_6 C33_6 1_555 1_555
H18_6 C33_6 1_555 1_555
Cd10 O7_6 1_555 1_555
O18 C8_6 1_555 1_555
O19 C8_6 1_555 1_555
O5_4 C21_6 1_555 1_555
O6_4 C21_6 1_555 1_555
O7_6 C22_6 1_555 1_555
O8_6 Cd10 1_555 1_555
O13_6 Cd10 1_555 1_555
C3_6 C2_6 1_555 1_555
C4_6 C3_6 1_555 1_555
C5_6 C4_6 1_555 1_555
H2_6 C5_6 1_555 1_555
C6_6 C5_6 1_555 1_555
C7_6 C2_6 1_555 1_555
H3_6 C7_6 1_555 1_555
C8_6 C4_6 1_555 1_555
C9_6 C6_6 1_555 1_555
C10_6 C9_6 1_555 1_555
H4_6 C10_6 1_555 1_555
C11_6 C10_6 1_555 1_555
C12_6 C11_6 1_555 1_555
H5_6 C12_6 1_555 1_555
C13_6 C12_6 1_555 1_555
C14_6 C9_6 1_555 1_555
H6_6 C14_6 1_555 1_555
C15_6 C11_6 1_555 1_555
C16_6 C15_6 1_555 1_555
H7_6 C16_6 1_555 1_555
C17_6 C16_6 1_555 1_555
C18_6 C17_6 1_555 1_555
H8_6 C18_6 1_555 1_555
C19_6 C18_6 1_555 1_555
C20_6 C15_6 1_555 1_555
H9_6 C20_6 1_555 1_555
C21_6 C17_6 1_555 1_555
C22_6 O8_6 1_555 1_555
C23_6 C13_6 1_555 1_555
C24_6 C23_6 1_555 1_555
H10_6 C24_6 1_555 1_555
O14_6 Cd7 1_555 1_555
O15_6 Cd7 1_555 1_555
O16_6 Cd7 1_555 1_555
O17_6 Cd10 1_555 1_555
C31_6 O17_6 1_555 1_555
H13_6 C32_6 1_555 1_555
Cd6_2 O5_4 1_555 1_555
Cd7_4 O6_4 1_555 1_555
C6_6 C7_6 1_555 1_555
C13_6 C14_6 1_555 1_555
C19_6 C20_6 1_555 1_555
C19_6 C22_6 1_555 1_555
O13_6 H19_6 1_555 1_555
O13_6 H20_6 1_555 1_555
O15_6 H21_6 1_555 1_555
O15_6 H22_6 1_555 1_555
O16_6 H23_6 1_555 1_555
O16_6 H24_6 1_555 1_555
C31_6 H25_6 1_555 1_555
O14_6 H26_6 1_555 1_555
O14_6 H27_6 1_555 1_555
Cd4 O1_6 1_555 1_555
O1_6 C1_6 1_555 1_555
O2_6 Cd4 1_555 1_555
C1_6 O2_6 1_555 1_555
O20_4 Cd4 1_555 1_555
O22_2 C29_6 1_555 1_555
O23_2 C29_6 1_555 1_555
O24_2 C30_6 1_555 1_555
O25 C30_6 1_555 1_555
C26_6 C25_6 1_555 1_555
H11_6 C26_6 1_555 1_555
C27_6 C26_6 1_555 1_555
H12_6 C28_6 1_555 1_555
C29_6 C27_6 1_555 1_555
C30_6 C25_6 1_555 1_555
C27_6 C28_6 1_555 1_555
Cd9_2 O7_7 1_555 1_555
O7_7 C22_7 1_555 1_555
O13_7 Cd9_2 1_555 1_555
O17_7 Cd9_2 1_555 1_555
O13_7 H19_7 1_555 1_555
O13_7 H20_7 1_555 1_555
O22_3 C29_7 1_555 1_555
O23_3 C29_7 1_555 1_555
O24_3 C30_7 1_555 1_555
O25_4 C30_7 1_555 1_555
H10_7 C24_7 1_555 1_555
C25_7 C24_7 1_555 1_555
C26_7 C25_7 1_555 1_555
H11_7 C26_7 1_555 1_555
C27_7 C26_7 1_555 1_555
C29_7 C27_7 1_555 1_555
C30_7 C25_7 1_555 1_555
C27_7 C28_7 1_555 1_555
Cd6_2 O1_7 1_555 1_555
Cd7_4 O1_7 1_555 1_555
O1_7 C1_7 1_555 1_555
O2_7 Cd6_2 1_555 1_555
O18_4 C8_7 1_555 1_555
O19_4 C8_7 1_555 1_555
O20_4 C21_7 1_555 1_555
O21_4 C21_7 1_555 1_555
C1_7 O2_7 1_555 1_555
C2_7 C1_7 1_555 1_555
C3_7 C2_7 1_555 1_555
H1_7 C3_7 1_555 1_555
C4_7 C3_7 1_555 1_555
C5_7 C4_7 1_555 1_555
H2_7 C5_7 1_555 1_555
C6_7 C5_7 1_555 1_555
C7_7 C2_7 1_555 1_555
H3_7 C7_7 1_555 1_555
C8_7 C4_7 1_555 1_555
C9_7 C6_7 1_555 1_555
C10_7 C9_7 1_555 1_555
H4_7 C10_7 1_555 1_555
C11_7 C10_7 1_555 1_555
C12_7 C11_7 1_555 1_555
H5_7 C12_7 1_555 1_555
C13_7 C12_7 1_555 1_555
C14_7 C9_7 1_555 1_555
H6_7 C14_7 1_555 1_555
C15_7 C11_7 1_555 1_555
C16_7 C15_7 1_555 1_555
H7_7 C16_7 1_555 1_555
C17_7 C16_7 1_555 1_555
C18_7 C17_7 1_555 1_555
H8_7 C18_7 1_555 1_555
C19_7 C18_7 1_555 1_555
C20_7 C15_7 1_555 1_555
H9_7 C20_7 1_555 1_555
C21_7 C17_7 1_555 1_555
C23_7 C13_7 1_555 1_555
O14_7 Cd7_4 1_555 1_555
O15_7 Cd7_4 1_555 1_555
O16_7 Cd7_4 1_555 1_555
N1_7 C31_7 1_555 1_555
C32_7 N1_7 1_555 1_555
H13_7 C32_7 1_555 1_555
H14_7 C32_7 1_555 1_555
H15_7 C32_7 1_555 1_555
C33_7 N1_7 1_555 1_555
H17_7 C33_7 1_555 1_555
H18_7 C33_7 1_555 1_555
C6_7 C7_7 1_555 1_555
C13_7 C14_7 1_555 1_555
C19_7 C20_7 1_555 1_555
O16_7 H23_7 1_555 1_555
O16_7 H24_7 1_555 1_555
C31_7 H25_7 1_555 1_555
O14_7 H26_7 1_555 1_555
O14_7 H27_7 1_555 1_555
Cd10_2 O7_8 1_555 1_555
O7_8 C22_8 1_555 1_555
O13_8 Cd10_2 1_555 1_555
O17_8 Cd10_2 1_555 1_555
O13_8 H19_8 1_555 1_555
O13_8 H20_8 1_555 1_555
C33_8 N1_8 1_555 1_555
H17_8 C33_8 1_555 1_555
H18_8 C33_8 1_555 1_555
Cd4_2 O1_8 1_555 1_555
Cd7_3 O1_8 1_555 1_555
O1_8 C1_8 1_555 1_555
O2_8 Cd4_2 1_555 1_555
O18_3 C8_8 1_555 1_555
O19_3 C8_8 1_555 1_555
O20_3 C21_8 1_555 1_555
O21_3 C21_8 1_555 1_555
O22_4 C29_8 1_555 1_555
O23_4 C29_8 1_555 1_555
O24_4 C30_8 1_555 1_555
O25_3 C30_8 1_555 1_555
C1_8 O2_8 1_555 1_555
C2_8 C1_8 1_555 1_555
C3_8 C2_8 1_555 1_555
H1_8 C3_8 1_555 1_555
C4_8 C3_8 1_555 1_555
C5_8 C4_8 1_555 1_555
H2_8 C5_8 1_555 1_555
C6_8 C5_8 1_555 1_555
C7_8 C2_8 1_555 1_555
H3_8 C7_8 1_555 1_555
C8_8 C4_8 1_555 1_555
C9_8 C6_8 1_555 1_555
C10_8 C9_8 1_555 1_555
H4_8 C10_8 1_555 1_555
C11_8 C10_8 1_555 1_555
C12_8 C11_8 1_555 1_555
H5_8 C12_8 1_555 1_555
C13_8 C12_8 1_555 1_555
C14_8 C9_8 1_555 1_555
H6_8 C14_8 1_555 1_555
C15_8 C11_8 1_555 1_555
C16_8 C15_8 1_555 1_555
H7_8 C16_8 1_555 1_555
C17_8 C16_8 1_555 1_555
C18_8 C17_8 1_555 1_555
H8_8 C18_8 1_555 1_555
C19_8 C18_8 1_555 1_555
C20_8 C15_8 1_555 1_555
H9_8 C20_8 1_555 1_555
C21_8 C17_8 1_555 1_555
C23_8 C13_8 1_555 1_555
C24_8 C23_8 1_555 1_555
H10_8 C24_8 1_555 1_555
C25_8 C24_8 1_555 1_555
C26_8 C25_8 1_555 1_555
H11_8 C26_8 1_555 1_555
C27_8 C26_8 1_555 1_555
C28_8 C23_8 1_555 1_555
H12_8 C28_8 1_555 1_555
C29_8 C27_8 1_555 1_555
C30_8 C25_8 1_555 1_555
O14_8 Cd7_3 1_555 1_555
O15_8 Cd7_3 1_555 1_555
O16_8 Cd7_3 1_555 1_555
H13_8 C32_8 1_555 1_555
C6_8 C7_8 1_555 1_555
C13_8 C14_8 1_555 1_555
C19_8 C20_8 1_555 1_555
C27_8 C28_8 1_555 1_555
O15_8 H21_8 1_555 1_555
O15_8 H22_8 1_555 1_555
O16_8 H23_8 1_555 1_555
O16_8 H24_8 1_555 1_555
C31_8 H25_8 1_555 1_555
O14_8 H26_8 1_555 1_555
O14_8 H27_8 1_555 1_555

#END
