
###############################################################################
#
# This file contains modified crystal structure data generated from the
# MOF subset of the Cambridge Structural Database (CSD) v543 
# hosted by the Cambridge Crystallographic Data Centre (CCDC).
#
# This work is licensed under the Creative Commons
# Attribution-NonCommercial-ShareAlike 4.0 International License.
# To view a copy of this license, visit
# http://creativecommons.org/licenses/by-nc-sa/4.0/
# or send a letter to
# Creative Commons, PO Box 1866, Mountain View, CA 94042, USA.
#
# CIF created using the CSD Python API on 29 September 2022
# The structure has been converted into the P1 space group
# The structure has a 3D framework
# The original CSD entry QUQFIS is in the rhombohedral crystal system
# The framework has been calculated to contain at least 10.0% void space
# The void calculation uses a probe of radius 1.32A, grid spacing 0.4
#
###############################################################################

data_QUQFIS
_chemical_formula_moiety         '(C486 H450 N36 O192 Zn34)n'
_symmetry_cell_setting           triclinic
_symmetry_space_group_name_H-M   'P 1'
_symmetry_Int_Tables_number      1
_space_group_name_Hall           'P 1'
loop_
_symmetry_equiv_pos_site_id
_symmetry_equiv_pos_as_xyz
1 x,y,z
_cell_length_a                   22.602(3)
_cell_length_b                   22.602(3)
_cell_length_c                   39.721(8)
_cell_angle_alpha                90
_cell_angle_beta                 90
_cell_angle_gamma                120
_cell_volume                     17572.9
loop_
_atom_site_label
_atom_site_type_symbol
_atom_site_fract_x
_atom_site_fract_y
_atom_site_fract_z
Zn1 Zn 0.45805(2) 0.12010(2) 0.039527(12)
C11 C 0.3029(2) 0.05871(19) 0.02318(10)
C12 C 0.25741(19) 0.08194(19) 0.00733(10)
C16 C 0.14648(19) 0.0723(2) 0.00056(10)
C17 C 0.1891(2) 0.04834(19) 0.01392(10)
H7 H 0.1697 0.0085 0.0276
C18 C 0.07207(18) 0.03542(19) 0.00555(10)
O2 O 0.45794(13) 0.03105(13) 0.02796(7)
O7 O 0.27398(13) 0.00953(13) 0.04340(7)
O8 O 0.36482(14) 0.08975(15) 0.01554(8)
C21 C 0.4543(3) 0.2458(2) 0.03011(13)
H9 H 0.4606 0.2373 0.0073
C22 C 0.4283(3) 0.3072(3) 0.07062(19)
H10 H 0.4289 0.2725 0.0852
H11 H 0.3838 0.3046 0.0724
H12 H 0.4644 0.3527 0.0777
C23 C 0.4390(6) 0.3386(4) 0.0123(2)
H14 H 0.4747 0.3854 0.0174
H15 H 0.3943 0.3358 0.0124
N1 N 0.4398(3) 0.2952(2) 0.03602(12)
O9 O 0.46010(16) 0.20985(15) 0.05210(7)
C27 C 0.6100(2) 0.2243(2) 0.05907(13)
H23 H 0.6499 0.2279 0.0708
H24 H 0.5962 0.2544 0.0699
H25 H 0.6217 0.2379 0.0355
O11 O 0.55562(14) 0.15611(15) 0.06056(8)
Zn17 Zn 0.01574(2) 0.34229(3) 0.074557(11)
C65 C 0.0362(2) 0.0713(3) 0.00636(10)
H40 H 0.0608 0.1197 0.0075
O18 O 0.31620(15) 0.05445(14) 0.11306(7)
O23 O 0.41205(12) 0.07939(12) 0.08777(6)
H1 H 0.5178 0.0056 0.9836
C13 C 0.2873(2) 0.13972(19) 0.98535(10)
H5 H 0.3343 0.1613 0.9795
C14 C 0.24643(19) 0.1630(2) 0.97299(10)
C15 C 0.1778(2) 0.1311(2) 0.98101(11)
H6 H 0.1512 0.1500 0.9729
C20 C 0.2749(2) 0.2247(2) 0.94989(11)
O3 O 0.61222(14) 0.01713(15) 0.94639(7)
O5 O 0.32459(14) 0.23580(15) 0.93088(7)
O6 O 0.24822(15) 0.26122(15) 0.94961(8)
H13 H 0.4474 0.3255 0.9900
C24 C 0.4902(3) 0.1265(3) 0.96886(12)
H16 H 0.4447 0.0891 0.9692
C25 C 0.4992(4) 0.0879(4) 0.91335(19)
H17 H 0.4508 0.0548 0.9169
H18 H 0.5249 0.0637 0.9111
H19 H 0.5045 0.1140 0.8928
C26 C 0.5934(5) 0.1842(8) 0.9378(2)
H20 H 0.6086 0.2138 0.9576
H21 H 0.5983 0.2115 0.9177
H22 H 0.6214 0.1624 0.9352
N2 N 0.5251(3) 0.1339(3) 0.94168(13)
O10 O 0.50910(16) 0.16179(16) 0.99395(8)
Zn12 Zn 0.68241(2) 0.00678(2) 0.907890(11)
Zn13 Zn 0.32438(3) 0.31759(2) 0.907890(11)
Zn2 Zn 0.32655(2) 0.98426(2) 0.074557(11)
C1 C 0.41463(18) 0.96876(18) 0.02621(9)
C2 C 0.43307(19) 0.92536(18) 0.00371(10)
C7 C 0.39328(19) 0.85442(18) 0.00383(10)
H3 H 0.3529 0.8328 0.0171
C19 C 0.0351(2) 0.9638(2) 0.00636(10)
H8 H 0.0589 0.9392 0.0075
O1 O 0.35906(14) 0.93817(13) 0.04181(7)
Zn3 Zn 0.66205(3) 0.54195(2) 0.039527(12)
Zn10 Zn 0.65771(3) 0.67345(2) 0.074557(11)
C28 C 0.55413(25) 0.58537(18) 0.02621(9)
C29 C 0.03124(18) 0.44587(25) 0.02621(9)
C30 C 0.49229(26) 0.56693(19) 0.00371(10)
C31 C 0.07464(18) 0.50771(26) 0.00371(10)
C40 C 0.46114(26) 0.60672(19) 0.00383(10)
C41 C 0.14558(18) 0.53886(26) 0.00383(10)
H30 H 0.4799 0.6471 0.0171
H31 H 0.1672 0.5201 0.0171
O12 O 0.57911(19) 0.64094(14) 0.04181(7)
O13 O 0.06183(13) 0.42089(19) 0.04181(7)
O14 O 0.57311(18) 0.54206(13) 0.02796(7)
O19 O 0.73824(21) 0.68380(15) 0.11306(7)
O24 O 0.66733(17) 0.58795(12) 0.08777(6)
O28 O 0.24454(21) 0.90247(15) 0.09755(7)
O29 O 0.65792(14) 0.75546(21) 0.09755(7)
O30 O 0.09753(15) 0.34208(14) 0.09755(7)
O33 O 0.34633(21) 0.92789(15) 0.11628(8)
O34 O 0.58155(15) 0.65367(21) 0.11628(8)
O35 O 0.07211(15) 0.41845(15) 0.11628(8)
O38 O 0.73555(18) 0.72602(13) 0.04340(7)
O42 O 0.72493(21) 0.63518(14) 0.01554(8)
C68 C 0.7915(4) 0.5457(3) 0.03011(13)
H42 H 0.7767 0.5394 0.0073
C70 C 0.8789(4) 0.5717(3) 0.07062(19)
H44 H 0.8436 0.5711 0.0852
H46 H 0.9208 0.6162 0.0724
H48 H 0.8883 0.5356 0.0777
C72 C 0.8996(7) 0.5610(6) 0.0123(2)
H52 H 0.9107 0.5253 0.0174
H54 H 0.9415 0.6057 0.0124
N3 N 0.8554(4) 0.5602(3) 0.03602(12)
O44 O 0.74975(22) 0.53990(16) 0.05210(7)
C80 C 0.6143(3) 0.3900(2) 0.05907(13)
H70 H 0.5780 0.3501 0.0708
H72 H 0.6582 0.4038 0.0699
H74 H 0.6162 0.3783 0.0355
O48 O 0.60049(21) 0.44438(14) 0.06056(8)
C3 C 0.49083(19) 0.95717(19) 0.98369(10)
C4 C 0.50995(18) 0.91839(18) 0.96355(9)
C5 C 0.46957(19) 0.84693(19) 0.96470(9)
H2 H 0.4821 0.8200 0.9514
C6 C 0.41226(19) 0.81494(18) 0.98468(10)
C8 C 0.57303(19) 0.9543(2) 0.94251(10)
C9 C 0.37153(18) 0.73822(17) 0.98564(9)
C10 C 0.40445(17) 0.70031(18) 0.98553(9)
H4 H 0.4530 0.7231 0.9854
O4 O 0.58728(12) 0.92128(12) 0.92110(6)
Zn5 Zn 0.54657(2) 0.87528(2) 0.872860(12)
Zn6 Zn 0.32872(3) 0.45343(2) 0.872860(12)
Zn7 Zn 0.12472(2) 0.67128(3) 0.872860(12)
C32 C 0.46634(27) 0.50917(19) 0.98369(10)
C33 C 0.04283(19) 0.53366(27) 0.98369(10)
H26 H 0.4878 0.4822 0.9836
C34 C 0.40844(25) 0.49005(18) 0.96355(9)
C35 C 0.08161(18) 0.59156(25) 0.96355(9)
C36 C 0.37736(27) 0.53043(19) 0.96470(9)
C37 C 0.15307(19) 0.62264(27) 0.96470(9)
H28 H 0.3379 0.5179 0.9514
H29 H 0.1800 0.6621 0.9514
C38 C 0.40268(26) 0.58774(19) 0.98468(10)
C39 C 0.18506(18) 0.59732(26) 0.98468(10)
C42 C 0.38127(28) 0.42697(19) 0.94251(10)
C43 C 0.0457(2) 0.61873(28) 0.94251(10)
C44 C 0.36669(25) 0.62847(18) 0.98564(9)
C45 C 0.26178(17) 0.63331(25) 0.98564(9)
C46 C 0.29586(25) 0.59555(17) 0.98553(9)
C47 C 0.29969(18) 0.70414(25) 0.98553(9)
H32 H 0.2769 0.7299 0.9854
H33 H 0.2701 0.5470 0.9854
O16 O 0.40491(21) 0.38778(14) 0.94639(7)
O21 O 0.33400(17) 0.41272(12) 0.92110(6)
O22 O 0.07872(12) 0.66600(17) 0.92110(6)
O31 O 0.01300(21) 0.75178(15) 0.94961(8)
H50 H 0.8781 0.5526 0.9900
C74 C 0.6363(4) 0.5098(3) 0.96886(12)
H56 H 0.6444 0.5553 0.9692
C76 C 0.5887(6) 0.5008(4) 0.91335(19)
H58 H 0.6040 0.5492 0.9169
H60 H 0.5388 0.4751 0.9111
H62 H 0.6095 0.4955 0.8928
C78 C 0.5908(9) 0.4066(5) 0.9378(2)
H64 H 0.6052 0.3914 0.9576
H66 H 0.6132 0.4017 0.9177
H68 H 0.5410 0.3786 0.9352
N5 N 0.6088(4) 0.4749(3) 0.94168(13)
O46 O 0.65269(23) 0.49090(16) 0.99395(8)
Zn9 Zn 0.87990(2) 0.33795(3) 0.039527(12)
C49 C 0.94129(19) 0.24419(28) 0.02318(10)
C51 C 0.91806(19) 0.17547(27) 0.00733(10)
C59 C 0.9277(2) 0.07418(28) 0.00056(10)
C61 C 0.95166(19) 0.14076(28) 0.01392(10)
H39 H 0.9915 0.1612 0.0276
C63 C 0.96458(19) 0.03665(26) 0.00555(10)
O37 O 0.99047(13) 0.26445(18) 0.04340(7)
O41 O 0.91025(15) 0.27507(21) 0.01554(8)
C53 C 0.86028(19) 0.14758(28) 0.98535(10)
H35 H 0.8387 0.1730 0.9795
C55 C 0.8370(2) 0.08343(28) 0.97299(10)
C57 C 0.8689(2) 0.0467(3) 0.98101(11)
H37 H 0.8500 0.0012 0.9729
C67 C 0.7753(2) 0.0502(3) 0.94989(11)
O27 O 0.76420(15) 0.08879(21) 0.93088(7)
C48 C 0.75581(28) 0.6971(2) 0.02318(10)
C50 C 0.82453(27) 0.74259(19) 0.00733(10)
C58 C 0.92582(28) 0.85352(19) 0.00056(10)
C60 C 0.85924(28) 0.8109(2) 0.01392(10)
H38 H 0.8388 0.8303 0.0276
C62 C 0.96335(26) 0.92793(18) 0.00555(10)
C64 C 0.9287(3) 0.9649(2) 0.00636(10)
H41 H 0.8803 0.9411 0.0075
O15 O 0.96895(13) 0.42689(18) 0.02796(7)
O20 O 0.94555(14) 0.26176(21) 0.11306(7)
O25 O 0.92061(12) 0.33267(17) 0.08777(6)
C69 C 0.7542(2) 0.2085(4) 0.03011(13)
H43 H 0.7627 0.2233 0.0073
C71 C 0.6928(3) 0.1211(4) 0.07062(19)
H45 H 0.7275 0.1564 0.0852
H47 H 0.6954 0.0792 0.0724
H49 H 0.6473 0.1117 0.0777
C73 C 0.6614(4) 0.1004(7) 0.0123(2)
H53 H 0.6146 0.0893 0.0174
H55 H 0.6642 0.0585 0.0124
N4 N 0.7048(2) 0.1446(4) 0.03602(12)
O45 O 0.79015(15) 0.25025(22) 0.05210(7)
C81 C 0.7757(2) 0.3857(3) 0.05907(13)
H71 H 0.7721 0.4220 0.0708
H73 H 0.7456 0.3418 0.0699
H75 H 0.7621 0.3838 0.0355
O49 O 0.84389(15) 0.39951(21) 0.06056(8)
Zn15 Zn 0.99322(2) 0.67562(3) 0.907890(11)
H27 H 0.9944 0.5122 0.9836
C52 C 0.85242(28) 0.7127(2) 0.98535(10)
H34 H 0.8270 0.6657 0.9795
C54 C 0.91657(28) 0.75357(19) 0.97299(10)
C56 C 0.9533(3) 0.8222(2) 0.98101(11)
H36 H 0.9988 0.8488 0.9729
C66 C 0.9498(3) 0.7251(2) 0.94989(11)
O17 O 0.98287(15) 0.59509(21) 0.94639(7)
O26 O 0.91121(21) 0.67541(14) 0.93088(7)
O32 O 0.73878(15) 0.98700(21) 0.94961(8)
H51 H 0.6745 0.1219 0.9900
C75 C 0.8735(3) 0.3637(4) 0.96886(12)
H57 H 0.9109 0.3556 0.9692
C77 C 0.9121(4) 0.4113(6) 0.91335(19)
H59 H 0.9452 0.3960 0.9169
H61 H 0.9363 0.4612 0.9111
H63 H 0.8860 0.3905 0.8928
C79 C 0.8158(8) 0.4092(9) 0.9378(2)
H65 H 0.7862 0.3948 0.9576
H67 H 0.7885 0.3868 0.9177
H69 H 0.8376 0.4590 0.9352
N6 N 0.8661(3) 0.3912(4) 0.94168(13)
O47 O 0.83821(16) 0.34731(23) 0.99395(8)
Zn4 Zn 0.66205(3) 0.12010(2) 0.539527(12)
Zn8 Zn 0.45805(2) 0.33795(3) 0.539527(12)
Zn15_2 Zn 0.32438(3) 0.00678(2) 0.407890(11)
Zn16 Zn 0.32655(2) 0.34229(3) 0.574557(11)
H27_2 H 0.4878 0.0056 0.4836
C48_2 C 0.3029(2) 0.24419(28) 0.52318(10)
C50_2 C 0.25741(19) 0.17547(27) 0.50733(10)
C52_2 C 0.2873(2) 0.14758(28) 0.48535(10)
H34_2 H 0.3343 0.1730 0.4795
C54_2 C 0.24643(19) 0.08343(28) 0.47299(10)
C56_2 C 0.1778(2) 0.0467(3) 0.48101(11)
H36_2 H 0.1512 0.0012 0.4729
C58_2 C 0.14648(19) 0.07418(28) 0.50056(10)
C60_2 C 0.1891(2) 0.14076(28) 0.51392(10)
H38_2 H 0.1697 0.1612 0.5276
C62_2 C 0.07207(18) 0.03665(26) 0.50555(10)
C64_2 C 0.0351(2) 0.0713(3) 0.50636(10)
H41_2 H 0.0589 0.1197 0.5075
C66_2 C 0.2749(2) 0.0502(3) 0.44989(11)
O15_2 O 0.57311(18) 0.03105(13) 0.52796(7)
O17_2 O 0.40491(21) 0.01713(15) 0.44639(7)
O20_2 O 0.73824(21) 0.05445(14) 0.61306(7)
O25_2 O 0.66733(17) 0.07939(12) 0.58777(6)
O26_2 O 0.32459(14) 0.08879(21) 0.43088(7)
O32_2 O 0.01300(21) 0.26122(15) 0.44961(8)
O36 O 0.27398(13) 0.26445(18) 0.54340(7)
O39 O 0.73555(18) 0.00953(13) 0.54340(7)
O40 O 0.36482(14) 0.27507(21) 0.51554(8)
O43 O 0.72493(21) 0.08975(15) 0.51554(8)
C69_2 C 0.7915(4) 0.2458(2) 0.53011(13)
H43_2 H 0.7767 0.2373 0.5073
C71_2 C 0.8789(4) 0.3072(3) 0.57062(19)
H45_2 H 0.8436 0.2725 0.5852
H47_2 H 0.9208 0.3046 0.5724
H49_2 H 0.8883 0.3527 0.5777
C73_2 C 0.8996(7) 0.3386(4) 0.5123(2)
H51_2 H 0.8781 0.3255 0.4900
H53_2 H 0.9107 0.3854 0.5174
H55_2 H 0.9415 0.3358 0.5124
N4_2 N 0.8554(4) 0.2952(2) 0.53602(12)
O45_2 O 0.74975(22) 0.20985(15) 0.55210(7)
C75_2 C 0.6363(4) 0.1265(3) 0.46886(12)
H57_2 H 0.6444 0.0891 0.4692
C77_2 C 0.5887(6) 0.0879(4) 0.41335(19)
H59_2 H 0.6040 0.0548 0.4169
H61_2 H 0.5388 0.0637 0.4111
H63_2 H 0.6095 0.1140 0.3928
C79_2 C 0.5908(9) 0.1842(8) 0.4378(2)
H65_2 H 0.6052 0.2138 0.4576
H67_2 H 0.6132 0.2115 0.4177
H69_2 H 0.5410 0.1624 0.4352
N6_2 N 0.6088(4) 0.1339(3) 0.44168(13)
O47_2 O 0.65269(23) 0.16179(16) 0.49395(8)
C81_2 C 0.6143(3) 0.2243(2) 0.55907(13)
H71_2 H 0.5780 0.2279 0.5708
H73_2 H 0.6582 0.2544 0.5699
H75_2 H 0.6162 0.2379 0.5355
O49_2 O 0.60049(21) 0.15611(15) 0.56056(8)
Zn2_2 Zn 0.01574(2) 0.67345(2) 0.574557(11)
C1_2 C 0.03124(18) 0.58537(18) 0.52621(9)
C2_2 C 0.07464(18) 0.56693(19) 0.50371(10)
C3_2 C 0.04283(19) 0.50917(19) 0.48369(10)
C4_2 C 0.08161(18) 0.49005(18) 0.46355(9)
C5_2 C 0.15307(19) 0.53043(19) 0.46470(9)
H2_2 H 0.1800 0.5179 0.4514
C6_2 C 0.18506(18) 0.58774(19) 0.48468(10)
C7_2 C 0.14558(18) 0.60672(19) 0.50383(10)
H3_2 H 0.1672 0.6471 0.5171
C8_2 C 0.0457(2) 0.42697(19) 0.44251(10)
C9_2 C 0.26178(17) 0.62847(18) 0.48564(9)
C10_2 C 0.29969(18) 0.59555(17) 0.48553(9)
H4_2 H 0.2769 0.5470 0.4854
C19_2 C 0.0362(2) 0.9649(2) 0.50636(10)
H8_2 H 0.0608 0.9411 0.5075
O1_2 O 0.06183(13) 0.64094(14) 0.54181(7)
O4_2 O 0.07872(12) 0.41272(12) 0.42110(6)
Zn5_2 Zn 0.12472(2) 0.45343(2) 0.372860(12)
Zn6_2 Zn 0.54657(2) 0.67128(3) 0.372860(12)
Zn7_2 Zn 0.32872(3) 0.87528(2) 0.372860(12)
Zn11 Zn 0.65771(3) 0.98426(2) 0.574557(11)
Zn14 Zn 0.68241(2) 0.67562(3) 0.407890(11)
C28_2 C 0.41463(18) 0.44587(25) 0.52621(9)
C29_2 C 0.55413(25) 0.96876(18) 0.52621(9)
C30_2 C 0.43307(19) 0.50771(26) 0.50371(10)
C31_2 C 0.49229(26) 0.92536(18) 0.50371(10)
C32_2 C 0.49083(19) 0.53366(27) 0.48369(10)
C33_2 C 0.46634(27) 0.95717(19) 0.48369(10)
H26_2 H 0.5178 0.5122 0.4836
C34_2 C 0.50995(18) 0.59156(25) 0.46355(9)
C35_2 C 0.40844(25) 0.91839(18) 0.46355(9)
C36_2 C 0.46957(19) 0.62264(27) 0.46470(9)
C37_2 C 0.37736(27) 0.84693(19) 0.46470(9)
H28_2 H 0.4821 0.6621 0.4514
H29_2 H 0.3379 0.8200 0.4514
C38_2 C 0.41226(19) 0.59732(26) 0.48468(10)
C39_2 C 0.40268(26) 0.81494(18) 0.48468(10)
C40_2 C 0.39328(19) 0.53886(26) 0.50383(10)
C41_2 C 0.46114(26) 0.85442(18) 0.50383(10)
H30_2 H 0.3529 0.5201 0.5171
H31_2 H 0.4799 0.8328 0.5171
C42_2 C 0.57303(19) 0.61873(28) 0.44251(10)
C43_2 C 0.38127(28) 0.9543(2) 0.44251(10)
C44_2 C 0.37153(18) 0.63331(25) 0.48564(9)
C45_2 C 0.36669(25) 0.73822(17) 0.48564(9)
C46_2 C 0.40445(17) 0.70414(25) 0.48553(9)
C47_2 C 0.29586(25) 0.70031(18) 0.48553(9)
H32_2 H 0.2701 0.7231 0.4854
H33_2 H 0.4530 0.7299 0.4854
O12_2 O 0.35906(14) 0.42089(19) 0.54181(7)
O13_2 O 0.57911(19) 0.93817(13) 0.54181(7)
O14_2 O 0.45794(13) 0.42689(18) 0.52796(7)
O16_2 O 0.61222(14) 0.59509(21) 0.44639(7)
O19_2 O 0.31620(15) 0.26176(21) 0.61306(7)
O21_2 O 0.58728(12) 0.66600(17) 0.42110(6)
O22_2 O 0.33400(17) 0.92128(12) 0.42110(6)
O24_2 O 0.41205(12) 0.33267(17) 0.58777(6)
O28_2 O 0.09753(15) 0.75546(21) 0.59755(7)
O29_2 O 0.24454(21) 0.34208(14) 0.59755(7)
O30_2 O 0.65792(14) 0.90247(15) 0.59755(7)
O31_2 O 0.24822(15) 0.98700(21) 0.44961(8)
O33_2 O 0.07211(15) 0.65367(21) 0.61628(8)
O34_2 O 0.34633(21) 0.41845(15) 0.61628(8)
O35_2 O 0.58155(15) 0.92789(15) 0.61628(8)
C68_2 C 0.4543(3) 0.2085(4) 0.53011(13)
H42_2 H 0.4606 0.2233 0.5073
C70_2 C 0.4283(3) 0.1211(4) 0.57062(19)
H44_2 H 0.4289 0.1564 0.5852
H46_2 H 0.3838 0.0792 0.5724
H48_2 H 0.4644 0.1117 0.5777
C72_2 C 0.4390(6) 0.1004(7) 0.5123(2)
H50_2 H 0.4474 0.1219 0.4900
H52_2 H 0.4747 0.0893 0.5174
H54_2 H 0.3943 0.0585 0.5124
N3_2 N 0.4398(3) 0.1446(4) 0.53602(12)
O44_2 O 0.46010(16) 0.25025(22) 0.55210(7)
C74_2 C 0.4902(3) 0.3637(4) 0.46886(12)
H56_2 H 0.4447 0.3556 0.4692
C76_2 C 0.4992(4) 0.4113(6) 0.41335(19)
H58_2 H 0.4508 0.3960 0.4169
H60_2 H 0.5249 0.4612 0.4111
H62_2 H 0.5045 0.3905 0.3928
C78_2 C 0.5934(5) 0.4092(9) 0.4378(2)
H64_2 H 0.6086 0.3948 0.4576
H66_2 H 0.5983 0.3868 0.4177
H68_2 H 0.6214 0.4590 0.4352
N5_2 N 0.5251(3) 0.3912(4) 0.44168(13)
O46_2 O 0.50910(16) 0.34731(23) 0.49395(8)
C80_2 C 0.6100(2) 0.3857(3) 0.55907(13)
H70_2 H 0.6499 0.4220 0.5708
H72_2 H 0.5962 0.3418 0.5699
H74_2 H 0.6217 0.3838 0.5355
O48_2 O 0.55562(14) 0.39951(21) 0.56056(8)
Zn18 Zn 0.99322(2) 0.31759(2) 0.407890(11)
C49_2 C 0.75581(28) 0.05871(19) 0.52318(10)
C51_2 C 0.82453(27) 0.08194(19) 0.50733(10)
C53_2 C 0.85242(28) 0.13972(19) 0.48535(10)
H35_2 H 0.8270 0.1613 0.4795
C55_2 C 0.91657(28) 0.1630(2) 0.47299(10)
C57_2 C 0.9533(3) 0.1311(2) 0.48101(11)
H37_2 H 0.9988 0.1500 0.4729
C59_2 C 0.92582(28) 0.0723(2) 0.50056(10)
C61_2 C 0.85924(28) 0.04834(19) 0.51392(10)
H39_2 H 0.8388 0.0085 0.5276
C63_2 C 0.96335(26) 0.03542(19) 0.50555(10)
C67_2 C 0.9498(3) 0.2247(2) 0.44989(11)
O27_2 O 0.91121(21) 0.23580(15) 0.43088(7)
Zn1_2 Zn 0.87990(2) 0.54195(2) 0.539527(12)
H1_2 H 0.9944 0.4822 0.4836
C11_2 C 0.94129(19) 0.6971(2) 0.52318(10)
C12_2 C 0.91806(19) 0.74259(19) 0.50733(10)
C13_2 C 0.86028(19) 0.7127(2) 0.48535(10)
H5_2 H 0.8387 0.6657 0.4795
C14_2 C 0.8370(2) 0.75357(19) 0.47299(10)
C15_2 C 0.8689(2) 0.8222(2) 0.48101(11)
H6_2 H 0.8500 0.8488 0.4729
C16_2 C 0.9277(2) 0.85352(19) 0.50056(10)
C17_2 C 0.95166(19) 0.8109(2) 0.51392(10)
H7_2 H 0.9915 0.8303 0.5276
C18_2 C 0.96458(19) 0.92793(18) 0.50555(10)
C20_2 C 0.7753(2) 0.7251(2) 0.44989(11)
O2_2 O 0.96895(13) 0.54206(13) 0.52796(7)
O3_2 O 0.98287(15) 0.38778(14) 0.44639(7)
O5_2 O 0.76420(15) 0.67541(14) 0.43088(7)
O6_2 O 0.73878(15) 0.75178(15) 0.44961(8)
O7_2 O 0.99047(13) 0.72602(13) 0.54340(7)
O8_2 O 0.91025(15) 0.63518(14) 0.51554(8)
C21_2 C 0.7542(2) 0.5457(3) 0.53011(13)
H9_2 H 0.7627 0.5394 0.5073
C22_2 C 0.6928(3) 0.5717(3) 0.57062(19)
H10_2 H 0.7275 0.5711 0.5852
H11_2 H 0.6954 0.6162 0.5724
H12_2 H 0.6473 0.5356 0.5777
C23_2 C 0.6614(4) 0.5610(6) 0.5123(2)
H13_2 H 0.6745 0.5526 0.4900
H14_2 H 0.6146 0.5253 0.5174
H15_2 H 0.6642 0.6057 0.5124
N1_2 N 0.7048(2) 0.5602(3) 0.53602(12)
O9_2 O 0.79015(15) 0.53990(16) 0.55210(7)
C24_2 C 0.8735(3) 0.5098(3) 0.46886(12)
H16_2 H 0.9109 0.5553 0.4692
C25_2 C 0.9121(4) 0.5008(4) 0.41335(19)
H17_2 H 0.9452 0.5492 0.4169
H18_2 H 0.9363 0.4751 0.4111
H19_2 H 0.8860 0.4955 0.3928
C26_2 C 0.8158(8) 0.4066(5) 0.4378(2)
H20_2 H 0.7862 0.3914 0.4576
H21_2 H 0.7885 0.4017 0.4177
H22_2 H 0.8376 0.3786 0.4352
N2_2 N 0.8661(3) 0.4749(3) 0.44168(13)
O10_2 O 0.83821(16) 0.49090(16) 0.49395(8)
C27_2 C 0.7757(2) 0.3900(2) 0.55907(13)
H23_2 H 0.7721 0.3501 0.5708
H24_2 H 0.7456 0.4038 0.5699
H25_2 H 0.7621 0.3783 0.5355
O11_2 O 0.84389(15) 0.44438(14) 0.56056(8)
C65_2 C 0.9287(3) 0.9638(2) 0.50636(10)
H40_2 H 0.8803 0.9392 0.5075
O18_2 O 0.94555(14) 0.68380(15) 0.61306(7)
O23_2 O 0.92061(12) 0.58795(12) 0.58777(6)
C1_3 C 0.08130(18) 0.30209(18) 0.35954(9)
C2_3 C 0.09974(19) 0.25869(18) 0.33704(10)
C3_3 C 0.15750(19) 0.29050(19) 0.31702(10)
H1_3 H 0.1845 0.3389 0.3169
C4_3 C 0.17662(18) 0.25172(18) 0.29688(9)
C5_3 C 0.13624(19) 0.18026(19) 0.29803(9)
H2_3 H 0.1488 0.1533 0.2847
C6_3 C 0.07893(19) 0.14827(18) 0.31801(10)
C7_3 C 0.05995(19) 0.18775(18) 0.33716(10)
H3_3 H 0.0196 0.1661 0.3504
C8_3 C 0.23970(19) 0.2876(2) 0.27584(10)
C9_3 C 0.03820(18) 0.07155(17) 0.31897(9)
C10_3 C 0.07112(17) 0.03364(18) 0.31886(9)
H4_3 H 0.1197 0.0564 0.3187
H5_3 H 0.0010 0.4946 0.3128
O1_3 O 0.02573(14) 0.27150(13) 0.37514(7)
O2_3 O 0.12461(13) 0.36438(13) 0.36129(7)
O3_3 O 0.27889(14) 0.35046(15) 0.27972(7)
O4_3 O 0.25395(12) 0.25461(12) 0.25443(6)
O8_3 O 0.03149(14) 0.42308(15) 0.34887(8)
C21_3 C 0.1210(3) 0.5791(2) 0.36344(13)
H9_3 H 0.1273 0.5706 0.3406
C22_3 C 0.0950(3) 0.6405(3) 0.40395(19)
H10_3 H 0.0956 0.6058 0.4185
H11_3 H 0.0505 0.6379 0.4057
H12_3 H 0.1311 0.6860 0.4110
C23_3 C 0.1057(6) 0.6719(4) 0.3456(2)
H13_3 H 0.1141 0.6588 0.3233
H14_3 H 0.1414 0.7187 0.3507
H15_3 H 0.0610 0.6691 0.3457
N1_3 N 0.1065(3) 0.6285(2) 0.36935(12)
O9_3 O 0.12677(16) 0.54318(15) 0.38543(7)
C24_3 C 0.1569(3) 0.4598(3) 0.30219(12)
H16_3 H 0.1114 0.4224 0.3025
C25_3 C 0.1659(4) 0.4212(4) 0.24668(19)
H17_3 H 0.1175 0.3881 0.2502
H18_3 H 0.1916 0.3970 0.2444
H19_3 H 0.1712 0.4473 0.2261
C26_3 C 0.2601(5) 0.5175(8) 0.2711(2)
H20_3 H 0.2753 0.5471 0.2909
H21_3 H 0.2650 0.5448 0.2510
H22_3 H 0.2881 0.4957 0.2685
N2_3 N 0.1918(3) 0.4672(3) 0.27501(13)
O10_3 O 0.17577(16) 0.49512(16) 0.32728(8)
C27_3 C 0.2767(2) 0.5576(2) 0.39240(13)
H23_3 H 0.3166 0.5612 0.4041
H24_3 H 0.2629 0.5877 0.4032
H25_3 H 0.2884 0.5712 0.3688
O11_3 O 0.22229(14) 0.48944(15) 0.39389(8)
Zn5_3 Zn 0.21323(2) 0.20862(2) 0.206194(12)
Zn12_2 Zn 0.34907(2) 0.34012(2) 0.241224(11)
O38_2 O 0.40222(18) 0.05935(13) 0.37673(7)
C28_3 C 0.22080(25) 0.91870(18) 0.35954(9)
C30_3 C 0.15896(26) 0.90026(19) 0.33704(10)
C32_3 C 0.13301(27) 0.84250(19) 0.31702(10)
H26_3 H 0.1545 0.8155 0.3169
C34_3 C 0.07511(25) 0.82338(18) 0.29688(9)
C36_3 C 0.04403(27) 0.86376(19) 0.29803(9)
H28_3 H 0.0046 0.8512 0.2847
C38_3 C 0.06935(26) 0.92107(19) 0.31801(10)
C40_3 C 0.12781(26) 0.94005(19) 0.33716(10)
H30_3 H 0.1466 0.9804 0.3504
C42_3 C 0.04794(28) 0.76030(19) 0.27584(10)
C44_3 C 0.03336(25) 0.96180(18) 0.31897(9)
O12_3 O 0.24578(19) 0.97427(14) 0.37514(7)
O14_3 O 0.23978(18) 0.87539(13) 0.36129(7)
O16_3 O 0.07158(21) 0.72111(14) 0.27972(7)
O21_3 O 0.00067(17) 0.74605(12) 0.25443(6)
O42_2 O 0.39160(21) 0.96851(14) 0.34887(8)
C68_3 C 0.4582(4) 0.8790(3) 0.36344(13)
H42_3 H 0.4434 0.8727 0.3406
C70_3 C 0.5456(4) 0.9050(3) 0.40395(19)
H44_3 H 0.5103 0.9044 0.4185
H46_3 H 0.5875 0.9495 0.4057
H48_3 H 0.5550 0.8689 0.4110
C72_3 C 0.5663(7) 0.8943(6) 0.3456(2)
H50_3 H 0.5448 0.8859 0.3233
H52_3 H 0.5774 0.8586 0.3507
H54_3 H 0.6082 0.9390 0.3457
N3_3 N 0.5221(4) 0.8935(3) 0.36935(12)
O44_3 O 0.41642(22) 0.87323(16) 0.38543(7)
C74_3 C 0.3030(4) 0.8431(3) 0.30219(12)
H56_3 H 0.3111 0.8886 0.3025
C76_3 C 0.2554(6) 0.8341(4) 0.24668(19)
H58_3 H 0.2707 0.8825 0.2502
H60_3 H 0.2055 0.8084 0.2444
H62_3 H 0.2762 0.8288 0.2261
C78_3 C 0.2575(9) 0.7399(5) 0.2711(2)
H64_3 H 0.2719 0.7247 0.2909
H66_3 H 0.2799 0.7350 0.2510
H68_3 H 0.2077 0.7119 0.2685
N5_3 N 0.2755(4) 0.8082(3) 0.27501(13)
O46_3 O 0.31936(23) 0.82423(16) 0.32728(8)
C80_3 C 0.2810(3) 0.7233(2) 0.39240(13)
H70_3 H 0.2447 0.6834 0.4041
H72_3 H 0.3249 0.7371 0.4032
H74_3 H 0.2829 0.7116 0.3688
O48_3 O 0.26716(21) 0.77771(14) 0.39389(8)
C11_3 C 0.9696(2) 0.39204(19) 0.35651(10)
C12_3 C 0.92408(19) 0.41527(19) 0.34066(10)
C13_3 C 0.9540(2) 0.47305(19) 0.31868(10)
C14_3 C 0.91310(19) 0.4963(2) 0.30632(10)
C15_3 C 0.8445(2) 0.4644(2) 0.31434(11)
H6_3 H 0.8179 0.4833 0.3062
C16_3 C 0.81315(19) 0.4056(2) 0.33389(10)
C17_3 C 0.8558(2) 0.38167(19) 0.34725(10)
H7_3 H 0.8364 0.3418 0.3609
C18_3 C 0.73874(18) 0.36875(19) 0.33888(10)
C19_3 C 0.7018(2) 0.2971(2) 0.33969(10)
H8_3 H 0.7256 0.2725 0.3408
C20_3 C 0.9416(2) 0.5580(2) 0.28322(11)
O5_3 O 0.99126(14) 0.56913(15) 0.26421(7)
O6_3 O 0.91489(15) 0.59455(15) 0.28294(8)
O7_3 O 0.94065(13) 0.34286(13) 0.37673(7)
Zn7_3 Zn 0.79138(2) 0.00462(3) 0.206194(12)
Zn13_2 Zn 0.99104(3) 0.65093(2) 0.241224(11)
Zn15_3 Zn 0.65988(2) 0.00896(3) 0.241224(11)
C47_3 C 0.96636(18) 0.03747(25) 0.31886(9)
H32_3 H 0.9436 0.0632 0.3187
C48_3 C 0.42248(28) 0.0304(2) 0.35651(10)
C49_3 C 0.60796(19) 0.57752(28) 0.35651(10)
C50_3 C 0.49120(27) 0.07592(19) 0.34066(10)
C51_3 C 0.58473(19) 0.50880(27) 0.34066(10)
C52_3 C 0.51909(28) 0.0460(2) 0.31868(10)
C53_3 C 0.52695(19) 0.48091(28) 0.31868(10)
H35_3 H 0.5054 0.5063 0.3128
C54_3 C 0.58324(28) 0.08690(19) 0.30632(10)
C55_3 C 0.5037(2) 0.41676(28) 0.30632(10)
C56_3 C 0.6200(3) 0.1555(2) 0.31434(11)
C57_3 C 0.5356(2) 0.3800(3) 0.31434(11)
H36_3 H 0.6655 0.1821 0.3062
H37_3 H 0.5167 0.3345 0.3062
C58_3 C 0.59249(28) 0.18685(19) 0.33389(10)
C59_3 C 0.5944(2) 0.40751(28) 0.33389(10)
C60_3 C 0.52591(28) 0.1442(2) 0.34725(10)
C61_3 C 0.61833(19) 0.47409(28) 0.34725(10)
H38_3 H 0.5055 0.1636 0.3609
H39_3 H 0.6582 0.4945 0.3609
C62_3 C 0.63002(26) 0.26126(18) 0.33888(10)
C63_3 C 0.63125(19) 0.36998(26) 0.33888(10)
C64_3 C 0.5954(3) 0.2982(2) 0.33969(10)
C65_3 C 0.7029(2) 0.4046(3) 0.33969(10)
H40_3 H 0.7275 0.4530 0.3408
H41_3 H 0.5470 0.2744 0.3408
C66_3 C 0.6165(3) 0.0584(2) 0.28322(11)
C67_3 C 0.4420(2) 0.3835(3) 0.28322(11)
O26_3 O 0.57788(21) 0.00874(14) 0.26421(7)
O27_3 O 0.43087(15) 0.42212(21) 0.26421(7)
O31_3 O 0.67967(21) 0.08511(15) 0.28294(8)
O32_3 O 0.40545(15) 0.32033(21) 0.28294(8)
O37_2 O 0.65714(13) 0.59778(18) 0.37673(7)
O41_2 O 0.57692(15) 0.60840(21) 0.34887(8)
Zn6_3 Zn 0.99538(3) 0.78677(2) 0.206194(12)
C29_3 C 0.69791(18) 0.77920(25) 0.35954(9)
C31_3 C 0.74131(18) 0.84104(26) 0.33704(10)
C33_3 C 0.70950(19) 0.86699(27) 0.31702(10)
H27_3 H 0.6611 0.8455 0.3169
C35_3 C 0.74828(18) 0.92489(25) 0.29688(9)
C37_3 C 0.81974(19) 0.95597(27) 0.29803(9)
H29_3 H 0.8467 0.9954 0.2847
C39_3 C 0.85173(18) 0.93065(26) 0.31801(10)
C41_3 C 0.81225(18) 0.87219(26) 0.33716(10)
H31_3 H 0.8339 0.8534 0.3504
C43_3 C 0.7124(2) 0.95206(28) 0.27584(10)
C45_3 C 0.92845(17) 0.96664(25) 0.31897(9)
C46_3 C 0.96253(25) 0.92888(17) 0.31886(9)
H33_3 H 0.9368 0.8803 0.3187
H34_3 H 0.4937 0.9990 0.3128
O13_3 O 0.72850(13) 0.75422(19) 0.37514(7)
O15_3 O 0.63562(13) 0.76022(18) 0.36129(7)
O17_3 O 0.64954(15) 0.92842(21) 0.27972(7)
O22_3 O 0.74539(12) 0.99933(17) 0.25443(6)
C69_3 C 0.4209(2) 0.5418(4) 0.36344(13)
H43_3 H 0.4294 0.5566 0.3406
C71_3 C 0.3595(3) 0.4544(4) 0.40395(19)
H45_3 H 0.3942 0.4897 0.4185
H47_3 H 0.3621 0.4125 0.4057
H49_3 H 0.3140 0.4450 0.4110
C73_3 C 0.3281(4) 0.4337(7) 0.3456(2)
H51_3 H 0.3412 0.4552 0.3233
H53_3 H 0.2813 0.4226 0.3507
H55_3 H 0.3309 0.3918 0.3457
N4_3 N 0.3715(2) 0.4779(4) 0.36935(12)
O45_3 O 0.45682(15) 0.58358(22) 0.38543(7)
C75_3 C 0.5402(3) 0.6970(4) 0.30219(12)
H57_3 H 0.5776 0.6889 0.3025
C77_3 C 0.5788(4) 0.7446(6) 0.24668(19)
H59_3 H 0.6119 0.7293 0.2502
H61_3 H 0.6030 0.7945 0.2444
H63_3 H 0.5527 0.7238 0.2261
C79_3 C 0.4825(8) 0.7425(9) 0.2711(2)
H65_3 H 0.4529 0.7281 0.2909
H67_3 H 0.4552 0.7201 0.2510
H69_3 H 0.5043 0.7923 0.2685
N6_3 N 0.5328(3) 0.7245(4) 0.27501(13)
O47_3 O 0.50488(16) 0.68064(23) 0.32728(8)
C81_3 C 0.4424(2) 0.7190(3) 0.39240(13)
H71_3 H 0.4388 0.7553 0.4041
H73_3 H 0.4123 0.6751 0.4032
H75_3 H 0.4288 0.7171 0.3688
O49_3 O 0.51056(15) 0.73284(21) 0.39389(8)
Zn6_4 Zn 0.21323(2) 0.00462(3) 0.706194(12)
Zn14_2 Zn 0.34907(2) 0.00896(3) 0.741224(11)
C29_4 C 0.22080(25) 0.30209(18) 0.85954(9)
C31_4 C 0.15896(26) 0.25869(18) 0.83704(10)
C33_4 C 0.13301(27) 0.29050(19) 0.81702(10)
H27_4 H 0.1545 0.3389 0.8169
C35_4 C 0.07511(25) 0.25172(18) 0.79688(9)
C37_4 C 0.04403(27) 0.18026(19) 0.79803(9)
H29_4 H 0.0046 0.1533 0.7847
C39_4 C 0.06935(26) 0.14827(18) 0.81801(10)
C41_4 C 0.12781(26) 0.18775(18) 0.83716(10)
H31_4 H 0.1466 0.1661 0.8504
C43_4 C 0.04794(28) 0.2876(2) 0.77584(10)
C45_4 C 0.03336(25) 0.07155(17) 0.81897(9)
C46_4 C 0.07112(17) 0.03747(25) 0.81886(9)
H33_4 H 0.1197 0.0632 0.8187
H34_4 H 0.0010 0.5063 0.8128
O13_4 O 0.24578(19) 0.27150(13) 0.87514(7)
O15_4 O 0.23978(18) 0.36438(13) 0.86129(7)
O17_4 O 0.07158(21) 0.35046(15) 0.77972(7)
O22_4 O 0.00067(17) 0.25461(12) 0.75443(6)
O39_2 O 0.40222(18) 0.34286(13) 0.87673(7)
O40_2 O 0.03149(14) 0.60840(21) 0.84887(8)
O43_2 O 0.39160(21) 0.42308(15) 0.84887(8)
C69_4 C 0.4582(4) 0.5791(2) 0.86344(13)
H43_4 H 0.4434 0.5706 0.8406
C71_4 C 0.5456(4) 0.6405(3) 0.90395(19)
H45_4 H 0.5103 0.6058 0.9185
H47_4 H 0.5875 0.6379 0.9057
H49_4 H 0.5550 0.6860 0.9110
C73_4 C 0.5663(7) 0.6719(4) 0.8456(2)
H51_4 H 0.5448 0.6588 0.8233
H53_4 H 0.5774 0.7187 0.8507
H55_4 H 0.6082 0.6691 0.8457
N4_4 N 0.5221(4) 0.6285(2) 0.86935(12)
O45_4 O 0.41642(22) 0.54318(15) 0.88543(7)
C75_4 C 0.3030(4) 0.4598(3) 0.80219(12)
H57_4 H 0.3111 0.4224 0.8025
C77_4 C 0.2554(6) 0.4212(4) 0.74668(19)
H59_4 H 0.2707 0.3881 0.7502
H61_4 H 0.2055 0.3970 0.7444
H63_4 H 0.2762 0.4473 0.7261
C79_4 C 0.2575(9) 0.5175(8) 0.7711(2)
H65_4 H 0.2719 0.5471 0.7909
H67_4 H 0.2799 0.5448 0.7510
H69_4 H 0.2077 0.4957 0.7685
N6_4 N 0.2755(4) 0.4672(3) 0.77501(13)
O47_4 O 0.31936(23) 0.49512(16) 0.82728(8)
C81_4 C 0.2810(3) 0.5576(2) 0.89240(13)
H71_4 H 0.2447 0.5612 0.9041
H73_4 H 0.3249 0.5877 0.9032
H75_4 H 0.2829 0.5712 0.8688
O49_4 O 0.26716(21) 0.48944(15) 0.89389(8)
C28_4 C 0.08130(18) 0.77920(25) 0.85954(9)
C30_4 C 0.09974(19) 0.84104(26) 0.83704(10)
C32_4 C 0.15750(19) 0.86699(27) 0.81702(10)
H26_4 H 0.1845 0.8455 0.8169
C34_4 C 0.17662(18) 0.92489(25) 0.79688(9)
C36_4 C 0.13624(19) 0.95597(27) 0.79803(9)
H28_4 H 0.1488 0.9954 0.7847
C38_4 C 0.07893(19) 0.93065(26) 0.81801(10)
C40_4 C 0.05995(19) 0.87219(26) 0.83716(10)
H30_4 H 0.0196 0.8534 0.8504
C42_4 C 0.23970(19) 0.95206(28) 0.77584(10)
C44_4 C 0.03820(18) 0.96664(25) 0.81897(9)
O12_4 O 0.02573(14) 0.75422(19) 0.87514(7)
O14_4 O 0.12461(13) 0.76022(18) 0.86129(7)
O16_4 O 0.27889(14) 0.92842(21) 0.77972(7)
O21_4 O 0.25395(12) 0.99933(17) 0.75443(6)
C68_4 C 0.1210(3) 0.5418(4) 0.86344(13)
H42_4 H 0.1273 0.5566 0.8406
C70_4 C 0.0950(3) 0.4544(4) 0.90395(19)
H44_4 H 0.0956 0.4897 0.9185
H46_4 H 0.0505 0.4125 0.9057
H48_4 H 0.1311 0.4450 0.9110
C72_4 C 0.1057(6) 0.4337(7) 0.8456(2)
H50_4 H 0.1141 0.4552 0.8233
H52_4 H 0.1414 0.4226 0.8507
H54_4 H 0.0610 0.3918 0.8457
N3_4 N 0.1065(3) 0.4779(4) 0.86935(12)
O44_4 O 0.12677(16) 0.58358(22) 0.88543(7)
C74_4 C 0.1569(3) 0.6970(4) 0.80219(12)
H56_4 H 0.1114 0.6889 0.8025
C76_4 C 0.1659(4) 0.7446(6) 0.74668(19)
H58_4 H 0.1175 0.7293 0.7502
H60_4 H 0.1916 0.7945 0.7444
H62_4 H 0.1712 0.7238 0.7261
C78_4 C 0.2601(5) 0.7425(9) 0.7711(2)
H64_4 H 0.2753 0.7281 0.7909
H66_4 H 0.2650 0.7201 0.7510
H68_4 H 0.2881 0.7923 0.7685
N5_4 N 0.1918(3) 0.7245(4) 0.77501(13)
O46_4 O 0.17577(16) 0.68064(23) 0.82728(8)
C80_4 C 0.2767(2) 0.7190(3) 0.89240(13)
H70_4 H 0.3166 0.7553 0.9041
H72_4 H 0.2629 0.6751 0.9032
H74_4 H 0.2884 0.7171 0.8688
O48_4 O 0.22229(14) 0.73284(21) 0.89389(8)
C11_4 C 0.60796(19) 0.0304(2) 0.85651(10)
C12_4 C 0.58473(19) 0.07592(19) 0.84066(10)
C13_4 C 0.52695(19) 0.0460(2) 0.81868(10)
C14_4 C 0.5037(2) 0.08690(19) 0.80632(10)
C15_4 C 0.5356(2) 0.1555(2) 0.81434(11)
H6_4 H 0.5167 0.1821 0.8062
C16_4 C 0.5944(2) 0.18685(19) 0.83389(10)
C17_4 C 0.61833(19) 0.1442(2) 0.84725(10)
H7_4 H 0.6582 0.1636 0.8609
C18_4 C 0.63125(19) 0.26126(18) 0.83888(10)
C19_4 C 0.7029(2) 0.2982(2) 0.83969(10)
H8_4 H 0.7275 0.2744 0.8408
C20_4 C 0.4420(2) 0.0584(2) 0.78322(11)
O5_4 O 0.43087(15) 0.00874(14) 0.76421(7)
O6_4 O 0.40545(15) 0.08511(15) 0.78294(8)
O7_4 O 0.65714(13) 0.05935(13) 0.87673(7)
Zn7_4 Zn 0.99538(3) 0.20862(2) 0.706194(12)
Zn15_4 Zn 0.99104(3) 0.34012(2) 0.741224(11)
Zn18_2 Zn 0.65988(2) 0.65093(2) 0.741224(11)
C47_4 C 0.96253(25) 0.03364(18) 0.81886(9)
H32_4 H 0.9368 0.0564 0.8187
C48_4 C 0.9696(2) 0.57752(28) 0.85651(10)
C49_4 C 0.42248(28) 0.39204(19) 0.85651(10)
C50_4 C 0.92408(19) 0.50880(27) 0.84066(10)
C51_4 C 0.49120(27) 0.41527(19) 0.84066(10)
C52_4 C 0.9540(2) 0.48091(28) 0.81868(10)
C53_4 C 0.51909(28) 0.47305(19) 0.81868(10)
H35_4 H 0.4937 0.4946 0.8128
C54_4 C 0.91310(19) 0.41676(28) 0.80632(10)
C55_4 C 0.58324(28) 0.4963(2) 0.80632(10)
C56_4 C 0.8445(2) 0.3800(3) 0.81434(11)
C57_4 C 0.6200(3) 0.4644(2) 0.81434(11)
H36_4 H 0.8179 0.3345 0.8062
H37_4 H 0.6655 0.4833 0.8062
C58_4 C 0.81315(19) 0.40751(28) 0.83389(10)
C59_4 C 0.59249(28) 0.4056(2) 0.83389(10)
C60_4 C 0.8558(2) 0.47409(28) 0.84725(10)
C61_4 C 0.52591(28) 0.38167(19) 0.84725(10)
H38_4 H 0.8364 0.4945 0.8609
H39_4 H 0.5055 0.3418 0.8609
C62_4 C 0.73874(18) 0.36998(26) 0.83888(10)
C63_4 C 0.63002(26) 0.36875(19) 0.83888(10)
C64_4 C 0.7018(2) 0.4046(3) 0.83969(10)
C65_4 C 0.5954(3) 0.2971(2) 0.83969(10)
H40_4 H 0.5470 0.2725 0.8408
H41_4 H 0.7256 0.4530 0.8408
C66_4 C 0.9416(2) 0.3835(3) 0.78322(11)
C67_4 C 0.6165(3) 0.5580(2) 0.78322(11)
O26_4 O 0.99126(14) 0.42212(21) 0.76421(7)
O27_4 O 0.57788(21) 0.56913(15) 0.76421(7)
O31_4 O 0.91489(15) 0.32033(21) 0.78294(8)
O32_4 O 0.67967(21) 0.59455(15) 0.78294(8)
O36_2 O 0.94065(13) 0.59778(18) 0.87673(7)
C1_4 C 0.69791(18) 0.91870(18) 0.85954(9)
C2_4 C 0.74131(18) 0.90026(19) 0.83704(10)
C3_4 C 0.70950(19) 0.84250(19) 0.81702(10)
H1_4 H 0.6611 0.8155 0.8169
C4_4 C 0.74828(18) 0.82338(18) 0.79688(9)
C5_4 C 0.81974(19) 0.86376(19) 0.79803(9)
H2_4 H 0.8467 0.8512 0.7847
C6_4 C 0.85173(18) 0.92107(19) 0.81801(10)
C7_4 C 0.81225(18) 0.94005(19) 0.83716(10)
H3_4 H 0.8339 0.9804 0.8504
C8_4 C 0.7124(2) 0.76030(19) 0.77584(10)
C9_4 C 0.92845(17) 0.96180(18) 0.81897(9)
C10_4 C 0.96636(18) 0.92888(17) 0.81886(9)
H4_4 H 0.9436 0.8803 0.8187
H5_4 H 0.5054 0.9990 0.8128
O1_4 O 0.72850(13) 0.97427(14) 0.87514(7)
O2_4 O 0.63562(13) 0.87539(13) 0.86129(7)
O3_4 O 0.64954(15) 0.72111(14) 0.77972(7)
O4_4 O 0.74539(12) 0.74605(12) 0.75443(6)
O8_4 O 0.57692(15) 0.96851(14) 0.84887(8)
C21_4 C 0.4209(2) 0.8790(3) 0.86344(13)
H9_4 H 0.4294 0.8727 0.8406
C22_4 C 0.3595(3) 0.9050(3) 0.90395(19)
H10_4 H 0.3942 0.9044 0.9185
H11_4 H 0.3621 0.9495 0.9057
H12_4 H 0.3140 0.8689 0.9110
C23_4 C 0.3281(4) 0.8943(6) 0.8456(2)
H13_4 H 0.3412 0.8859 0.8233
H14_4 H 0.2813 0.8586 0.8507
H15_4 H 0.3309 0.9390 0.8457
N1_4 N 0.3715(2) 0.8935(3) 0.86935(12)
O9_4 O 0.45682(15) 0.87323(16) 0.88543(7)
C24_4 C 0.5402(3) 0.8431(3) 0.80219(12)
H16_4 H 0.5776 0.8886 0.8025
C25_4 C 0.5788(4) 0.8341(4) 0.74668(19)
H17_4 H 0.6119 0.8825 0.7502
H18_4 H 0.6030 0.8084 0.7444
H19_4 H 0.5527 0.8288 0.7261
C26_4 C 0.4825(8) 0.7399(5) 0.7711(2)
H20_4 H 0.4529 0.7247 0.7909
H21_4 H 0.4552 0.7350 0.7510
H22_4 H 0.5043 0.7119 0.7685
N2_4 N 0.5328(3) 0.8082(3) 0.77501(13)
O10_4 O 0.50488(16) 0.82423(16) 0.82728(8)
C27_4 C 0.4424(2) 0.7233(2) 0.89240(13)
H23_4 H 0.4388 0.6834 0.9041
H24_4 H 0.4123 0.7371 0.9032
H25_4 H 0.4288 0.7116 0.8688
O11_4 O 0.51056(15) 0.77771(14) 0.89389(8)
Zn5_4 Zn 0.79138(2) 0.78677(2) 0.706194(12)
O38_3 O 0.06888(18) 0.39269(13) 0.71007(7)
O42_3 O 0.05826(21) 0.30185(14) 0.68221(8)
C68_5 C 0.1248(4) 0.2124(3) 0.69678(13)
H42_5 H 0.1100 0.2061 0.6740
C70_5 C 0.2122(4) 0.2384(3) 0.73729(19)
H44_5 H 0.1769 0.2378 0.7519
H46_5 H 0.2541 0.2829 0.7391
H48_5 H 0.2216 0.2023 0.7444
C72_5 C 0.2329(7) 0.2277(6) 0.6790(2)
H50_5 H 0.2114 0.2193 0.6567
H52_5 H 0.2440 0.1920 0.6841
H54_5 H 0.2748 0.2724 0.6791
N3_5 N 0.1887(4) 0.2269(3) 0.70269(12)
O44_5 O 0.08308(22) 0.20657(16) 0.71877(7)
H12_5 H 0.7977 0.0194 0.7444
C23_5 C 0.7723(6) 0.0053(4) 0.6790(2)
H14_5 H 0.8080 0.0521 0.6841
H15_5 H 0.7276 0.0025 0.6791
C1_5 C 0.74796(18) 0.63543(18) 0.69288(9)
C2_5 C 0.76640(19) 0.59203(18) 0.67038(10)
C3_5 C 0.82416(19) 0.62384(19) 0.65036(10)
H1_5 H 0.8511 0.6723 0.6503
C4_5 C 0.84328(18) 0.58506(18) 0.63022(9)
C5_5 C 0.80290(19) 0.51360(19) 0.63137(9)
H2_5 H 0.8154 0.4867 0.6181
C6_5 C 0.74559(19) 0.48161(18) 0.65135(10)
C7_5 C 0.72661(19) 0.52109(18) 0.67050(10)
H3_5 H 0.6862 0.4995 0.6838
C8_5 C 0.90636(19) 0.6210(2) 0.60918(10)
C9_5 C 0.70486(18) 0.40489(17) 0.65231(9)
C10_5 C 0.73778(17) 0.36698(18) 0.65220(9)
H4_5 H 0.7863 0.3898 0.6521
C11_5 C 0.6362(2) 0.72538(19) 0.68985(10)
C12_5 C 0.59074(19) 0.74861(19) 0.67400(10)
C13_5 C 0.6206(2) 0.80639(19) 0.65202(10)
H5_5 H 0.6676 0.8280 0.6462
C14_5 C 0.57976(19) 0.8297(2) 0.63966(10)
C15_5 C 0.5111(2) 0.7978(2) 0.64768(11)
H6_5 H 0.4845 0.8167 0.6396
C16_5 C 0.47981(19) 0.7390(2) 0.66723(10)
C17_5 C 0.5224(2) 0.71501(19) 0.68059(10)
H7_5 H 0.5030 0.6752 0.6943
C18_5 C 0.40540(18) 0.70209(19) 0.67222(10)
C19_5 C 0.3684(2) 0.6305(2) 0.67303(10)
H8_5 H 0.3922 0.6059 0.6742
C20_5 C 0.6082(2) 0.8914(2) 0.61656(11)
O1_5 O 0.69239(14) 0.60484(13) 0.70848(7)
O2_5 O 0.79127(13) 0.69772(13) 0.69463(7)
O7_5 O 0.60731(13) 0.67620(13) 0.71007(7)
O8_5 O 0.69815(14) 0.75642(15) 0.68221(8)
C21_5 C 0.7876(3) 0.9125(2) 0.69678(13)
H9_5 H 0.7939 0.9040 0.6740
C22_5 C 0.7616(3) 0.9739(3) 0.73729(19)
H10_5 H 0.7622 0.9392 0.7519
H11_5 H 0.7171 0.9713 0.7391
H13_5 H 0.7807 0.9922 0.6567
N1_5 N 0.7731(3) 0.9619(2) 0.70269(12)
O9_5 O 0.79343(16) 0.87652(15) 0.71877(7)
C24_5 C 0.8235(3) 0.7932(3) 0.63553(12)
H16_5 H 0.7780 0.7558 0.6359
C25_5 C 0.8325(4) 0.7546(4) 0.58002(19)
H17_5 H 0.7841 0.7215 0.5836
H18_5 H 0.8582 0.7304 0.5778
H19_5 H 0.8378 0.7807 0.5595
C26_5 C 0.9267(5) 0.8509(8) 0.6045(2)
H20_5 H 0.9419 0.8805 0.6243
H21_5 H 0.9316 0.8782 0.5844
H22_5 H 0.9547 0.8291 0.6019
N2_5 N 0.8584(3) 0.8006(3) 0.60835(13)
O10_5 O 0.84243(16) 0.82846(16) 0.66062(8)
C27_5 C 0.9433(2) 0.8910(2) 0.72574(13)
H23_5 H 0.9832 0.8946 0.7375
H24_5 H 0.9295 0.9211 0.7366
H25_5 H 0.9550 0.9046 0.7022
O11_5 O 0.88895(14) 0.82278(15) 0.72723(8)
C28_5 C 0.88746(25) 0.25204(18) 0.69288(9)
C29_5 C 0.36457(18) 0.11254(25) 0.69288(9)
C30_5 C 0.82562(26) 0.23360(19) 0.67038(10)
C31_5 C 0.40797(18) 0.17438(26) 0.67038(10)
C32_5 C 0.79967(27) 0.17584(19) 0.65036(10)
C33_5 C 0.37616(19) 0.20033(27) 0.65036(10)
H26_5 H 0.8211 0.1489 0.6503
H27_5 H 0.3277 0.1789 0.6503
C34_5 C 0.74177(25) 0.15672(18) 0.63022(9)
C35_5 C 0.41494(18) 0.25823(25) 0.63022(9)
C36_5 C 0.71069(27) 0.19710(19) 0.63137(9)
C37_5 C 0.48640(19) 0.28931(27) 0.63137(9)
H28_5 H 0.6712 0.1846 0.6181
H29_5 H 0.5133 0.3288 0.6181
C38_5 C 0.73601(26) 0.25441(19) 0.65135(10)
C39_5 C 0.51839(18) 0.26399(26) 0.65135(10)
C40_5 C 0.79447(26) 0.27339(19) 0.67050(10)
C41_5 C 0.47891(18) 0.20553(26) 0.67050(10)
H30_5 H 0.8132 0.3138 0.6838
H31_5 H 0.5005 0.1868 0.6838
C42_5 C 0.71460(28) 0.09364(19) 0.60918(10)
C43_5 C 0.3790(2) 0.28540(28) 0.60918(10)
C44_5 C 0.70002(25) 0.29514(18) 0.65231(9)
C45_5 C 0.59511(17) 0.29998(25) 0.65231(9)
C46_5 C 0.62919(25) 0.26222(17) 0.65220(9)
C47_5 C 0.63302(18) 0.37081(25) 0.65220(9)
H32_5 H 0.6102 0.3966 0.6521
H33_5 H 0.6034 0.2137 0.6521
C48_5 C 0.08914(28) 0.3638(2) 0.68985(10)
C49_5 C 0.27462(19) 0.91086(28) 0.68985(10)
C50_5 C 0.15786(27) 0.40926(19) 0.67400(10)
C51_5 C 0.25139(19) 0.84214(27) 0.67400(10)
C52_5 C 0.18575(28) 0.3794(2) 0.65202(10)
C53_5 C 0.19361(19) 0.81425(28) 0.65202(10)
H34_5 H 0.1603 0.3324 0.6462
H35_5 H 0.1720 0.8397 0.6462
C54_5 C 0.24990(28) 0.42024(19) 0.63966(10)
C55_5 C 0.1703(2) 0.75010(28) 0.63966(10)
C56_5 C 0.2866(3) 0.4889(2) 0.64768(11)
C57_5 C 0.2022(2) 0.7134(3) 0.64768(11)
H36_5 H 0.3321 0.5155 0.6396
H37_5 H 0.1833 0.6679 0.6396
C58_5 C 0.25915(28) 0.52019(19) 0.66723(10)
C59_5 C 0.2610(2) 0.74085(28) 0.66723(10)
C60_5 C 0.19257(28) 0.4776(2) 0.68059(10)
C61_5 C 0.28499(19) 0.80743(28) 0.68059(10)
H38_5 H 0.1721 0.4970 0.6943
H39_5 H 0.3248 0.8279 0.6943
C62_5 C 0.29668(26) 0.59460(18) 0.67222(10)
C63_5 C 0.29791(19) 0.70332(26) 0.67222(10)
C64_5 C 0.2620(3) 0.6316(2) 0.67303(10)
C65_5 C 0.3695(2) 0.7380(3) 0.67303(10)
H40_5 H 0.3941 0.7864 0.6742
H41_5 H 0.2136 0.6078 0.6742
C66_5 C 0.2831(3) 0.3918(2) 0.61656(11)
C67_5 C 0.1086(2) 0.7169(3) 0.61656(11)
O12_5 O 0.91244(19) 0.30761(14) 0.70848(7)
O13_5 O 0.39516(13) 0.08756(19) 0.70848(7)
O14_5 O 0.90644(18) 0.20873(13) 0.69463(7)
O15_5 O 0.30228(13) 0.09356(18) 0.69463(7)
O37_3 O 0.32380(13) 0.93112(18) 0.71007(7)
O41_3 O 0.24358(15) 0.94174(21) 0.68221(8)
C74_5 C 0.9696(4) 0.1765(3) 0.63553(12)
C75_5 C 0.2068(3) 0.0304(4) 0.63553(12)
H56_5 H 0.9777 0.2220 0.6359
H57_5 H 0.2442 0.0223 0.6359
C76_5 C 0.9220(6) 0.1675(4) 0.58002(19)
C77_5 C 0.2454(4) 0.0780(6) 0.58002(19)
H58_5 H 0.9373 0.2159 0.5836
H59_5 H 0.2785 0.0627 0.5836
H60_5 H 0.8721 0.1418 0.5778
H61_5 H 0.2696 0.1279 0.5778
H62_5 H 0.9428 0.1622 0.5595
H63_5 H 0.2193 0.0572 0.5595
C78_5 C 0.9241(9) 0.0733(5) 0.6045(2)
C79_5 C 0.1491(8) 0.0759(9) 0.6045(2)
H64_5 H 0.9385 0.0581 0.6243
H65_5 H 0.1195 0.0615 0.6243
H66_5 H 0.9465 0.0684 0.5844
H67_5 H 0.1218 0.0535 0.5844
H68_5 H 0.8743 0.0453 0.6019
H69_5 H 0.1709 0.1257 0.6019
N5_5 N 0.9421(4) 0.1416(3) 0.60835(13)
N6_5 N 0.1994(3) 0.0579(4) 0.60835(13)
O46_5 O 0.98602(23) 0.15757(16) 0.66062(8)
O47_5 O 0.17154(16) 0.01398(23) 0.66062(8)
C80_5 C 0.9476(3) 0.0567(2) 0.72574(13)
C81_5 C 0.1090(2) 0.0524(3) 0.72574(13)
H70_5 H 0.9113 0.0168 0.7375
H71_5 H 0.1054 0.0887 0.7375
H72_5 H 0.9915 0.0705 0.7366
H73_5 H 0.0789 0.0085 0.7366
H74_5 H 0.9495 0.0450 0.7022
H75_5 H 0.0954 0.0505 0.7022
O48_5 O 0.93382(21) 0.11105(14) 0.72723(8)
O49_5 O 0.17722(15) 0.06618(21) 0.72723(8)
C69_5 C 0.0875(2) 0.8752(4) 0.69678(13)
H43_5 H 0.0960 0.8900 0.6740
C71_5 C 0.0261(3) 0.7878(4) 0.73729(19)
H45_5 H 0.0608 0.8231 0.7519
H47_5 H 0.0287 0.7459 0.7391
H51_5 H 0.0078 0.7886 0.6567
N4_5 N 0.0381(2) 0.8113(4) 0.70269(12)
O45_5 O 0.12348(15) 0.91692(22) 0.71877(7)
H49_5 H 0.9806 0.7784 0.7444
C73_5 C 0.9947(4) 0.7671(7) 0.6790(2)
H53_5 H 0.9479 0.7560 0.6841
H55_5 H 0.9975 0.7252 0.6791
H49_6 H 0.2216 0.0194 0.2444
C73_6 C 0.2329(7) 0.0053(4) 0.1790(2)
H53_6 H 0.2440 0.0521 0.1841
H55_6 H 0.2748 0.0025 0.1791
O39_3 O 0.06888(18) 0.67620(13) 0.21007(7)
O43_3 O 0.05826(21) 0.75642(15) 0.18221(8)
C69_6 C 0.1248(4) 0.9125(2) 0.19678(13)
H43_6 H 0.1100 0.9040 0.1740
C71_6 C 0.2122(4) 0.9739(3) 0.23729(19)
H45_6 H 0.1769 0.9392 0.2519
H47_6 H 0.2541 0.9713 0.2391
H51_6 H 0.2114 0.9922 0.1567
N4_6 N 0.1887(4) 0.9619(2) 0.20269(12)
O45_6 O 0.08308(22) 0.87652(15) 0.21877(7)
C1_6 C 0.36457(18) 0.25204(18) 0.19288(9)
C2_6 C 0.40797(18) 0.23360(19) 0.17038(10)
C3_6 C 0.37616(19) 0.17584(19) 0.15036(10)
H1_6 H 0.3277 0.1489 0.1503
C4_6 C 0.41494(18) 0.15672(18) 0.13022(9)
C5_6 C 0.48640(19) 0.19710(19) 0.13137(9)
H2_6 H 0.5133 0.1846 0.1181
C6_6 C 0.51839(18) 0.25441(19) 0.15135(10)
C7_6 C 0.47891(18) 0.27339(19) 0.17050(10)
H3_6 H 0.5005 0.3138 0.1838
C8_6 C 0.3790(2) 0.09364(19) 0.10918(10)
C9_6 C 0.59511(17) 0.29514(18) 0.15231(9)
C10_6 C 0.63302(18) 0.26222(17) 0.15220(9)
H4_6 H 0.6102 0.2137 0.1521
C11_6 C 0.27462(19) 0.3638(2) 0.18985(10)
C12_6 C 0.25139(19) 0.40926(19) 0.17400(10)
C13_6 C 0.19361(19) 0.3794(2) 0.15202(10)
H5_6 H 0.1720 0.3324 0.1462
C14_6 C 0.1703(2) 0.42024(19) 0.13966(10)
C15_6 C 0.2022(2) 0.4889(2) 0.14768(11)
H6_6 H 0.1833 0.5155 0.1396
C16_6 C 0.2610(2) 0.52019(19) 0.16723(10)
C17_6 C 0.28499(19) 0.4776(2) 0.18059(10)
H7_6 H 0.3248 0.4970 0.1943
C18_6 C 0.29791(19) 0.59460(18) 0.17222(10)
C19_6 C 0.3695(2) 0.6316(2) 0.17303(10)
H8_6 H 0.3941 0.6078 0.1742
C20_6 C 0.1086(2) 0.3918(2) 0.11656(11)
O1_6 O 0.39516(13) 0.30761(14) 0.20848(7)
O2_6 O 0.30228(13) 0.20873(13) 0.19463(7)
O7_6 O 0.32380(13) 0.39269(13) 0.21007(7)
O8_6 O 0.24358(15) 0.30185(14) 0.18221(8)
C21_6 C 0.0875(2) 0.2124(3) 0.19678(13)
H9_6 H 0.0960 0.2061 0.1740
C22_6 C 0.0261(3) 0.2384(3) 0.23729(19)
H10_6 H 0.0608 0.2378 0.2519
H11_6 H 0.0287 0.2829 0.2391
H13_6 H 0.0078 0.2193 0.1567
N1_6 N 0.0381(2) 0.2269(3) 0.20269(12)
O9_6 O 0.12348(15) 0.20657(16) 0.21877(7)
C24_6 C 0.2068(3) 0.1765(3) 0.13553(12)
H16_6 H 0.2442 0.2220 0.1359
C25_6 C 0.2454(4) 0.1675(4) 0.08002(19)
H17_6 H 0.2785 0.2159 0.0836
H18_6 H 0.2696 0.1418 0.0778
H19_6 H 0.2193 0.1622 0.0595
C26_6 C 0.1491(8) 0.0733(5) 0.1045(2)
H20_6 H 0.1195 0.0581 0.1243
H21_6 H 0.1218 0.0684 0.0844
H22_6 H 0.1709 0.0453 0.1019
N2_6 N 0.1994(3) 0.1416(3) 0.10835(13)
O10_6 O 0.17154(16) 0.15757(16) 0.16062(8)
C27_6 C 0.1090(2) 0.0567(2) 0.22574(13)
H23_6 H 0.1054 0.0168 0.2375
H24_6 H 0.0789 0.0705 0.2366
H25_6 H 0.0954 0.0450 0.2022
O11_6 O 0.17722(15) 0.11105(14) 0.22723(8)
C28_6 C 0.74796(18) 0.11254(25) 0.19288(9)
C29_6 C 0.88746(25) 0.63543(18) 0.19288(9)
C30_6 C 0.76640(19) 0.17438(26) 0.17038(10)
C31_6 C 0.82562(26) 0.59203(18) 0.17038(10)
C32_6 C 0.82416(19) 0.20033(27) 0.15036(10)
C33_6 C 0.79967(27) 0.62384(19) 0.15036(10)
H26_6 H 0.8511 0.1789 0.1503
H27_6 H 0.8211 0.6723 0.1503
C34_6 C 0.84328(18) 0.25823(25) 0.13022(9)
C35_6 C 0.74177(25) 0.58506(18) 0.13022(9)
C36_6 C 0.80290(19) 0.28931(27) 0.13137(9)
C37_6 C 0.71069(27) 0.51360(19) 0.13137(9)
H28_6 H 0.8154 0.3288 0.1181
H29_6 H 0.6712 0.4867 0.1181
C38_6 C 0.74559(19) 0.26399(26) 0.15135(10)
C39_6 C 0.73601(26) 0.48161(18) 0.15135(10)
C40_6 C 0.72661(19) 0.20553(26) 0.17050(10)
C41_6 C 0.79447(26) 0.52109(18) 0.17050(10)
H30_6 H 0.6862 0.1868 0.1838
H31_6 H 0.8132 0.4995 0.1838
C42_6 C 0.90636(19) 0.28540(28) 0.10918(10)
C43_6 C 0.71460(28) 0.6210(2) 0.10918(10)
C44_6 C 0.70486(18) 0.29998(25) 0.15231(9)
C45_6 C 0.70002(25) 0.40489(17) 0.15231(9)
C46_6 C 0.73778(17) 0.37081(25) 0.15220(9)
C47_6 C 0.62919(25) 0.36698(18) 0.15220(9)
H32_6 H 0.6034 0.3898 0.1521
H33_6 H 0.7863 0.3966 0.1521
C48_6 C 0.6362(2) 0.91086(28) 0.18985(10)
C49_6 C 0.08914(28) 0.72538(19) 0.18985(10)
C50_6 C 0.59074(19) 0.84214(27) 0.17400(10)
C51_6 C 0.15786(27) 0.74861(19) 0.17400(10)
C52_6 C 0.6206(2) 0.81425(28) 0.15202(10)
C53_6 C 0.18575(28) 0.80639(19) 0.15202(10)
H34_6 H 0.6676 0.8397 0.1462
H35_6 H 0.1603 0.8280 0.1462
C54_6 C 0.57976(19) 0.75010(28) 0.13966(10)
C55_6 C 0.24990(28) 0.8297(2) 0.13966(10)
C56_6 C 0.5111(2) 0.7134(3) 0.14768(11)
C57_6 C 0.2866(3) 0.7978(2) 0.14768(11)
H36_6 H 0.4845 0.6679 0.1396
H37_6 H 0.3321 0.8167 0.1396
C58_6 C 0.47981(19) 0.74085(28) 0.16723(10)
C59_6 C 0.25915(28) 0.7390(2) 0.16723(10)
C60_6 C 0.5224(2) 0.80743(28) 0.18059(10)
C61_6 C 0.19257(28) 0.71501(19) 0.18059(10)
H38_6 H 0.5030 0.8279 0.1943
H39_6 H 0.1721 0.6752 0.1943
C62_6 C 0.40540(18) 0.70332(26) 0.17222(10)
C63_6 C 0.29668(26) 0.70209(19) 0.17222(10)
C64_6 C 0.3684(2) 0.7380(3) 0.17303(10)
C65_6 C 0.2620(3) 0.6305(2) 0.17303(10)
H40_6 H 0.2136 0.6059 0.1742
H41_6 H 0.3922 0.7864 0.1742
C66_6 C 0.6082(2) 0.7169(3) 0.11656(11)
C67_6 C 0.2831(3) 0.8914(2) 0.11656(11)
O12_6 O 0.69239(14) 0.08756(19) 0.20848(7)
O13_6 O 0.91244(19) 0.60484(13) 0.20848(7)
O14_6 O 0.79127(13) 0.09356(18) 0.19463(7)
O15_6 O 0.90644(18) 0.69772(13) 0.19463(7)
O36_3 O 0.60731(13) 0.93112(18) 0.21007(7)
O40_3 O 0.69815(14) 0.94174(21) 0.18221(8)
C74_6 C 0.8235(3) 0.0304(4) 0.13553(12)
C75_6 C 0.9696(4) 0.7932(3) 0.13553(12)
H56_6 H 0.7780 0.0223 0.1359
H57_6 H 0.9777 0.7558 0.1359
C76_6 C 0.8325(4) 0.0780(6) 0.08002(19)
C77_6 C 0.9220(6) 0.7546(4) 0.08002(19)
H58_6 H 0.7841 0.0627 0.0836
H59_6 H 0.9373 0.7215 0.0836
H60_6 H 0.8582 0.1279 0.0778
H61_6 H 0.8721 0.7304 0.0778
H62_6 H 0.8378 0.0572 0.0595
H63_6 H 0.9428 0.7807 0.0595
C78_6 C 0.9267(5) 0.0759(9) 0.1045(2)
C79_6 C 0.9241(9) 0.8509(8) 0.1045(2)
H64_6 H 0.9419 0.0615 0.1243
H65_6 H 0.9385 0.8805 0.1243
H66_6 H 0.9316 0.0535 0.0844
H67_6 H 0.9465 0.8782 0.0844
H68_6 H 0.9547 0.1257 0.1019
H69_6 H 0.8743 0.8291 0.1019
N5_6 N 0.8584(3) 0.0579(4) 0.10835(13)
N6_6 N 0.9421(4) 0.8006(3) 0.10835(13)
O46_6 O 0.84243(16) 0.01398(23) 0.16062(8)
O47_6 O 0.98602(23) 0.82846(16) 0.16062(8)
C80_6 C 0.9433(2) 0.0524(3) 0.22574(13)
C81_6 C 0.9476(3) 0.8910(2) 0.22574(13)
H70_6 H 0.9832 0.0887 0.2375
H71_6 H 0.9113 0.8946 0.2375
H72_6 H 0.9295 0.0085 0.2366
H73_6 H 0.9915 0.9211 0.2366
H74_6 H 0.9550 0.0505 0.2022
H75_6 H 0.9495 0.9046 0.2022
O48_6 O 0.88895(14) 0.06618(21) 0.22723(8)
O49_6 O 0.93382(21) 0.82278(15) 0.22723(8)
C68_6 C 0.7876(3) 0.8752(4) 0.19678(13)
H42_6 H 0.7939 0.8900 0.1740
C70_6 C 0.7616(3) 0.7878(4) 0.23729(19)
H44_6 H 0.7622 0.8231 0.2519
H46_6 H 0.7171 0.7459 0.2391
H48_6 H 0.7977 0.7784 0.2444
C72_6 C 0.7723(6) 0.7671(7) 0.1790(2)
H50_6 H 0.7807 0.7886 0.1567
H52_6 H 0.8080 0.7560 0.1841
H54_6 H 0.7276 0.7252 0.1791
N3_6 N 0.7731(3) 0.8113(4) 0.20269(12)
O44_6 O 0.79343(16) 0.91692(22) 0.21877(7)
H12_6 H 0.9806 0.2023 0.2444
C23_6 C 0.9947(4) 0.2277(6) 0.1790(2)
H14_6 H 0.9479 0.1920 0.1841
H15_6 H 0.9975 0.2724 0.1791
loop_
_geom_bond_atom_site_label_1
_geom_bond_atom_site_label_2
_geom_bond_site_symmetry_1
_geom_bond_site_symmetry_2
Zn1 O2 1_555 1_555
C11 C12 1_555 1_555
C17 C12 1_555 1_555
H7 C17 1_555 1_555
C18 C16 1_555 1_555
O8 Zn1 1_555 1_555
C21 H9 1_555 1_555
C22 H10 1_555 1_555
H11 C22 1_555 1_555
H12 C22 1_555 1_555
H14 C23 1_555 1_555
H15 C23 1_555 1_555
N1 C21 1_555 1_555
O9 Zn1 1_555 1_555
C27 H23 1_555 1_555
H24 C27 1_555 1_555
H25 C27 1_555 1_555
O11 Zn1 1_555 1_555
C65 C18 1_555 1_555
H40 C65 1_555 1_555
O23 Zn1 1_555 1_555
C11 O7 1_555 1_555
C11 O8 1_555 1_555
C16 C17 1_555 1_555
C21 O9 1_555 1_555
C22 N1 1_555 1_555
C23 N1 1_555 1_555
C27 O11 1_555 1_555
C13 H5 1_555 1_555
C14 C13 1_555 1_555
C15 C14 1_555 1_555
H6 C15 1_555 1_555
C20 C14 1_555 1_555
O5 C20 1_555 1_555
O6 C20 1_555 1_555
C24 H16 1_555 1_555
C25 H17 1_555 1_555
H18 C25 1_555 1_555
H19 C25 1_555 1_555
C26 H20 1_555 1_555
H21 C26 1_555 1_555
H22 C26 1_555 1_555
N2 C24 1_555 1_555
Zn12 O3 1_555 1_555
Zn13 O5 1_555 1_555
O6 Zn13 1_555 1_555
C24 O10 1_555 1_555
C25 N2 1_555 1_555
C26 N2 1_555 1_555
Zn2 O1 1_555 1_555
C1 C2 1_555 1_555
C7 C2 1_555 1_555
H3 C7 1_555 1_555
H8 C19 1_555 1_555
O1 C1 1_555 1_555
Zn3 O14 1_555 1_555
Zn10 O12 1_555 1_555
Zn17 O13 1_555 1_555
C28 C30 1_555 1_555
C29 C31 1_555 1_555
C40 C30 1_555 1_555
C41 C31 1_555 1_555
H30 C40 1_555 1_555
H31 C41 1_555 1_555
O12 C28 1_555 1_555
O13 C29 1_555 1_555
O14 C28 1_555 1_555
O19 Zn10 1_555 1_555
O24 Zn3 1_555 1_555
O28 Zn2 1_555 1_555
O29 Zn10 1_555 1_555
O30 Zn17 1_555 1_555
O33 Zn2 1_555 1_555
O34 Zn10 1_555 1_555
O35 Zn17 1_555 1_555
O38 Zn10 1_555 1_555
O42 Zn3 1_555 1_555
C68 H42 1_555 1_555
C70 H44 1_555 1_555
H46 C70 1_555 1_555
H48 C70 1_555 1_555
H52 C72 1_555 1_555
H54 C72 1_555 1_555
N3 C68 1_555 1_555
O44 Zn3 1_555 1_555
C80 H70 1_555 1_555
H72 C80 1_555 1_555
H74 C80 1_555 1_555
O48 Zn3 1_555 1_555
Zn10 O24 1_555 1_555
C68 O44 1_555 1_555
C70 N3 1_555 1_555
C72 N3 1_555 1_555
C80 O48 1_555 1_555
C4 C3 1_555 1_555
C5 C4 1_555 1_555
H2 C5 1_555 1_555
C6 C5 1_555 1_555
C8 C4 1_555 1_555
C9 C6 1_555 1_555
C10 C9 1_555 1_555
H4 C10 1_555 1_555
O4 C8 1_555 1_555
Zn5 O4 1_555 1_555
Zn6 O21 1_555 1_555
Zn7 O22 1_555 1_555
Zn13 O16 1_555 1_555
C32 H26 1_555 1_555
C34 C32 1_555 1_555
C35 C33 1_555 1_555
C36 C34 1_555 1_555
C37 C35 1_555 1_555
H28 C36 1_555 1_555
H29 C37 1_555 1_555
C38 C36 1_555 1_555
C39 C37 1_555 1_555
C42 C34 1_555 1_555
C43 C35 1_555 1_555
C44 C10 1_555 1_555
C45 C39 1_555 1_555
C46 C44 1_555 1_555
C47 C9 1_555 1_555
H32 C47 1_555 1_555
H33 C46 1_555 1_555
O16 C42 1_555 1_555
O21 Zn13 1_555 1_555
C74 H56 1_555 1_555
C76 H58 1_555 1_555
H60 C76 1_555 1_555
H62 C76 1_555 1_555
C78 H64 1_555 1_555
H66 C78 1_555 1_555
H68 C78 1_555 1_555
N5 C74 1_555 1_555
C38 C44 1_555 1_555
C42 O21 1_555 1_555
C43 O22 1_555 1_555
C45 C46 1_555 1_555
C45 C47 1_555 1_555
C74 O46 1_555 1_555
C76 N5 1_555 1_555
C78 N5 1_555 1_555
Zn9 O41 1_555 1_555
C49 C51 1_555 1_555
C61 C51 1_555 1_555
H39 C61 1_555 1_555
C63 C59 1_555 1_555
O37 C49 1_555 1_555
O41 C49 1_555 1_555
C59 C61 1_555 1_555
Zn12 O27 1_555 1_555
C53 H35 1_555 1_555
C55 C53 1_555 1_555
C57 C55 1_555 1_555
H37 C57 1_555 1_555
C67 C55 1_555 1_555
O27 C67 1_555 1_555
Zn9 O15 1_555 1_555
C48 C50 1_555 1_555
C60 C50 1_555 1_555
H38 C60 1_555 1_555
C64 C62 1_555 1_555
H41 C64 1_555 1_555
O25 Zn9 1_555 1_555
O38 C48 1_555 1_555
O42 C48 1_555 1_555
C69 H43 1_555 1_555
C71 H45 1_555 1_555
H47 C71 1_555 1_555
H49 C71 1_555 1_555
H53 C73 1_555 1_555
H55 C73 1_555 1_555
N4 C69 1_555 1_555
O45 Zn9 1_555 1_555
C81 H71 1_555 1_555
H73 C81 1_555 1_555
H75 C81 1_555 1_555
O49 Zn9 1_555 1_555
C58 C60 1_555 1_555
C58 C62 1_555 1_555
C69 O45 1_555 1_555
C71 N4 1_555 1_555
C73 N4 1_555 1_555
C81 O49 1_555 1_555
Zn15 O17 1_555 1_555
C52 H34 1_555 1_555
C54 C52 1_555 1_555
C56 C54 1_555 1_555
H36 C56 1_555 1_555
C66 C54 1_555 1_555
O26 Zn15 1_555 1_555
C75 H57 1_555 1_555
C77 H59 1_555 1_555
H61 C77 1_555 1_555
H63 C77 1_555 1_555
C79 H65 1_555 1_555
H67 C79 1_555 1_555
H69 C79 1_555 1_555
N6 C75 1_555 1_555
C66 O26 1_555 1_555
C75 O47 1_555 1_555
C77 N6 1_555 1_555
C79 N6 1_555 1_555
Zn4 O15_2 1_555 1_555
Zn8 O40 1_555 1_555
Zn15_2 O17_2 1_555 1_555
Zn16 O36 1_555 1_555
C48_2 C50_2 1_555 1_555
C50_2 C52_2 1_555 1_555
C52_2 H34_2 1_555 1_555
C54_2 C52_2 1_555 1_555
C56_2 C54_2 1_555 1_555
H36_2 C56_2 1_555 1_555
C58_2 C56_2 1_555 1_555
C60_2 C50_2 1_555 1_555
H38_2 C60_2 1_555 1_555
C64_2 C62_2 1_555 1_555
H41_2 C64_2 1_555 1_555
C66_2 C54_2 1_555 1_555
O25_2 Zn4 1_555 1_555
O26_2 Zn15_2 1_555 1_555
O36 C48_2 1_555 1_555
O40 C48_2 1_555 1_555
O43 Zn4 1_555 1_555
C69_2 H43_2 1_555 1_555
C71_2 H45_2 1_555 1_555
H47_2 C71_2 1_555 1_555
H49_2 C71_2 1_555 1_555
C73_2 H51_2 1_555 1_555
H53_2 C73_2 1_555 1_555
H55_2 C73_2 1_555 1_555
N4_2 C69_2 1_555 1_555
O45_2 Zn4 1_555 1_555
C75_2 H57_2 1_555 1_555
C77_2 H59_2 1_555 1_555
H61_2 C77_2 1_555 1_555
H63_2 C77_2 1_555 1_555
C79_2 H65_2 1_555 1_555
H67_2 C79_2 1_555 1_555
H69_2 C79_2 1_555 1_555
N6_2 C75_2 1_555 1_555
O47_2 Zn4 1_555 1_555
C81_2 H71_2 1_555 1_555
H73_2 C81_2 1_555 1_555
H75_2 C81_2 1_555 1_555
O49_2 Zn4 1_555 1_555
C58_2 C60_2 1_555 1_555
C58_2 C62_2 1_555 1_555
C66_2 O26_2 1_555 1_555
C69_2 O45_2 1_555 1_555
C71_2 N4_2 1_555 1_555
C73_2 N4_2 1_555 1_555
C75_2 O47_2 1_555 1_555
C77_2 N6_2 1_555 1_555
C79_2 N6_2 1_555 1_555
C81_2 O49_2 1_555 1_555
Zn2_2 O1_2 1_555 1_555
C1_2 C2_2 1_555 1_555
C2_2 C3_2 1_555 1_555
C4_2 C3_2 1_555 1_555
C5_2 C4_2 1_555 1_555
H2_2 C5_2 1_555 1_555
C6_2 C5_2 1_555 1_555
C7_2 C2_2 1_555 1_555
H3_2 C7_2 1_555 1_555
C8_2 C4_2 1_555 1_555
C9_2 C6_2 1_555 1_555
C10_2 C9_2 1_555 1_555
H4_2 C10_2 1_555 1_555
H8_2 C19_2 1_555 1_555
O1_2 C1_2 1_555 1_555
O4_2 C8_2 1_555 1_555
Zn8 O14_2 1_555 1_555
Zn5_2 O4_2 1_555 1_555
Zn6_2 O21_2 1_555 1_555
Zn7_2 O22_2 1_555 1_555
Zn16 O12_2 1_555 1_555
Zn11 O13_2 1_555 1_555
Zn14 O16_2 1_555 1_555
C28_2 C30_2 1_555 1_555
C29_2 C31_2 1_555 1_555
C30_2 C32_2 1_555 1_555
C31_2 C33_2 1_555 1_555
C32_2 H26_2 1_555 1_555
C34_2 C32_2 1_555 1_555
C35_2 C33_2 1_555 1_555
C36_2 C34_2 1_555 1_555
C37_2 C35_2 1_555 1_555
H28_2 C36_2 1_555 1_555
H29_2 C37_2 1_555 1_555
C38_2 C36_2 1_555 1_555
C39_2 C37_2 1_555 1_555
C40_2 C30_2 1_555 1_555
C41_2 C31_2 1_555 1_555
H30_2 C40_2 1_555 1_555
H31_2 C41_2 1_555 1_555
C42_2 C34_2 1_555 1_555
C43_2 C35_2 1_555 1_555
C44_2 C10_2 1_555 1_555
C45_2 C39_2 1_555 1_555
C46_2 C44_2 1_555 1_555
C47_2 C9_2 1_555 1_555
H32_2 C47_2 1_555 1_555
H33_2 C46_2 1_555 1_555
O12_2 C28_2 1_555 1_555
O13_2 C29_2 1_555 1_555
O14_2 C28_2 1_555 1_555
O16_2 C42_2 1_555 1_555
O19_2 Zn16 1_555 1_555
O21_2 Zn14 1_555 1_555
O24_2 Zn8 1_555 1_555
O28_2 Zn2_2 1_555 1_555
O29_2 Zn16 1_555 1_555
O30_2 Zn11 1_555 1_555
O33_2 Zn2_2 1_555 1_555
O34_2 Zn16 1_555 1_555
O35_2 Zn11 1_555 1_555
C68_2 H42_2 1_555 1_555
C70_2 H44_2 1_555 1_555
H46_2 C70_2 1_555 1_555
H48_2 C70_2 1_555 1_555
C72_2 H50_2 1_555 1_555
H52_2 C72_2 1_555 1_555
H54_2 C72_2 1_555 1_555
N3_2 C68_2 1_555 1_555
O44_2 Zn8 1_555 1_555
C74_2 H56_2 1_555 1_555
C76_2 H58_2 1_555 1_555
H60_2 C76_2 1_555 1_555
H62_2 C76_2 1_555 1_555
C78_2 H64_2 1_555 1_555
H66_2 C78_2 1_555 1_555
H68_2 C78_2 1_555 1_555
N5_2 C74_2 1_555 1_555
O46_2 Zn8 1_555 1_555
C80_2 H70_2 1_555 1_555
H72_2 C80_2 1_555 1_555
H74_2 C80_2 1_555 1_555
O48_2 Zn8 1_555 1_555
C6_2 C7_2 1_555 1_555
Zn16 O24_2 1_555 1_555
C38_2 C40_2 1_555 1_555
C38_2 C44_2 1_555 1_555
C39_2 C41_2 1_555 1_555
C42_2 O21_2 1_555 1_555
C43_2 O22_2 1_555 1_555
C45_2 C46_2 1_555 1_555
C45_2 C47_2 1_555 1_555
C68_2 O44_2 1_555 1_555
C70_2 N3_2 1_555 1_555
C72_2 N3_2 1_555 1_555
C74_2 O46_2 1_555 1_555
C76_2 N5_2 1_555 1_555
C78_2 N5_2 1_555 1_555
C80_2 O48_2 1_555 1_555
Zn18 O27_2 1_555 1_555
C49_2 C51_2 1_555 1_555
C51_2 C53_2 1_555 1_555
C53_2 H35_2 1_555 1_555
C55_2 C53_2 1_555 1_555
C57_2 C55_2 1_555 1_555
H37_2 C57_2 1_555 1_555
C59_2 C57_2 1_555 1_555
C61_2 C51_2 1_555 1_555
H39_2 C61_2 1_555 1_555
C63_2 C59_2 1_555 1_555
C67_2 C55_2 1_555 1_555
O27_2 C67_2 1_555 1_555
O39 C49_2 1_555 1_555
O43 C49_2 1_555 1_555
C59_2 C61_2 1_555 1_555
Zn1_2 O2_2 1_555 1_555
C11_2 C12_2 1_555 1_555
C12_2 C13_2 1_555 1_555
C13_2 H5_2 1_555 1_555
C14_2 C13_2 1_555 1_555
C15_2 C14_2 1_555 1_555
H6_2 C15_2 1_555 1_555
C16_2 C15_2 1_555 1_555
C17_2 C12_2 1_555 1_555
H7_2 C17_2 1_555 1_555
C18_2 C16_2 1_555 1_555
C20_2 C14_2 1_555 1_555
O5_2 C20_2 1_555 1_555
O6_2 C20_2 1_555 1_555
O8_2 Zn1_2 1_555 1_555
C21_2 H9_2 1_555 1_555
C22_2 H10_2 1_555 1_555
H11_2 C22_2 1_555 1_555
H12_2 C22_2 1_555 1_555
C23_2 H13_2 1_555 1_555
H14_2 C23_2 1_555 1_555
H15_2 C23_2 1_555 1_555
N1_2 C21_2 1_555 1_555
O9_2 Zn1_2 1_555 1_555
C24_2 H16_2 1_555 1_555
C25_2 H17_2 1_555 1_555
H18_2 C25_2 1_555 1_555
H19_2 C25_2 1_555 1_555
C26_2 H20_2 1_555 1_555
H21_2 C26_2 1_555 1_555
H22_2 C26_2 1_555 1_555
N2_2 C24_2 1_555 1_555
O10_2 Zn1_2 1_555 1_555
C27_2 H23_2 1_555 1_555
H24_2 C27_2 1_555 1_555
H25_2 C27_2 1_555 1_555
O11_2 Zn1_2 1_555 1_555
Zn18 O3_2 1_555 1_555
Zn14 O5_2 1_555 1_555
C65_2 C18_2 1_555 1_555
H40_2 C65_2 1_555 1_555
O23_2 Zn1_2 1_555 1_555
C11_2 O7_2 1_555 1_555
C11_2 O8_2 1_555 1_555
C16_2 C17_2 1_555 1_555
O6_2 Zn14 1_555 1_555
C21_2 O9_2 1_555 1_555
C22_2 N1_2 1_555 1_555
C23_2 N1_2 1_555 1_555
C24_2 O10_2 1_555 1_555
C25_2 N2_2 1_555 1_555
C26_2 N2_2 1_555 1_555
C27_2 O11_2 1_555 1_555
Zn5_2 O2_3 1_555 1_555
C1_3 C2_3 1_555 1_555
C2_3 C3_3 1_555 1_555
C3_3 H1_3 1_555 1_555
C4_3 C3_3 1_555 1_555
C5_3 C4_3 1_555 1_555
H2_3 C5_3 1_555 1_555
C6_3 C5_3 1_555 1_555
C7_3 C2_3 1_555 1_555
H3_3 C7_3 1_555 1_555
C8_3 C4_3 1_555 1_555
C9_3 C6_3 1_555 1_555
C10_3 C9_3 1_555 1_555
H4_3 C10_3 1_555 1_555
O1_3 C1_3 1_555 1_555
O2_3 C1_3 1_555 1_555
O3_3 C8_3 1_555 1_555
O4_3 C8_3 1_555 1_555
O8_3 Zn5_2 1_555 1_555
C21_3 H9_3 1_555 1_555
C22_3 H10_3 1_555 1_555
H11_3 C22_3 1_555 1_555
H12_3 C22_3 1_555 1_555
C23_3 H13_3 1_555 1_555
H14_3 C23_3 1_555 1_555
H15_3 C23_3 1_555 1_555
N1_3 C21_3 1_555 1_555
O9_3 Zn5_2 1_555 1_555
C24_3 H16_3 1_555 1_555
C25_3 H17_3 1_555 1_555
H18_3 C25_3 1_555 1_555
H19_3 C25_3 1_555 1_555
C26_3 H20_3 1_555 1_555
H21_3 C26_3 1_555 1_555
H22_3 C26_3 1_555 1_555
N2_3 C24_3 1_555 1_555
O10_3 Zn5_2 1_555 1_555
C27_3 H23_3 1_555 1_555
H24_3 C27_3 1_555 1_555
H25_3 C27_3 1_555 1_555
O11_3 Zn5_2 1_555 1_555
Zn5_3 O4_3 1_555 1_555
Zn12_2 O3_3 1_555 1_555
O38_2 Zn15_2 1_555 1_555
C6_3 C7_3 1_555 1_555
O4_3 Zn12_2 1_555 1_555
C21_3 O9_3 1_555 1_555
C22_3 N1_3 1_555 1_555
C23_3 N1_3 1_555 1_555
C24_3 O10_3 1_555 1_555
C25_3 N2_3 1_555 1_555
C26_3 N2_3 1_555 1_555
C27_3 O11_3 1_555 1_555
Zn7_2 O14_3 1_555 1_555
C28_3 C30_3 1_555 1_555
C30_3 C32_3 1_555 1_555
C32_3 H26_3 1_555 1_555
C34_3 C32_3 1_555 1_555
C36_3 C34_3 1_555 1_555
H28_3 C36_3 1_555 1_555
C38_3 C36_3 1_555 1_555
C40_3 C30_3 1_555 1_555
H30_3 C40_3 1_555 1_555
C42_3 C34_3 1_555 1_555
O12_3 C28_3 1_555 1_555
O14_3 C28_3 1_555 1_555
O16_3 C42_3 1_555 1_555
O42_2 Zn7_2 1_555 1_555
C68_3 H42_3 1_555 1_555
C70_3 H44_3 1_555 1_555
H46_3 C70_3 1_555 1_555
H48_3 C70_3 1_555 1_555
C72_3 H50_3 1_555 1_555
H52_3 C72_3 1_555 1_555
H54_3 C72_3 1_555 1_555
N3_3 C68_3 1_555 1_555
O44_3 Zn7_2 1_555 1_555
C74_3 H56_3 1_555 1_555
C76_3 H58_3 1_555 1_555
H60_3 C76_3 1_555 1_555
H62_3 C76_3 1_555 1_555
C78_3 H64_3 1_555 1_555
H66_3 C78_3 1_555 1_555
H68_3 C78_3 1_555 1_555
N5_3 C74_3 1_555 1_555
O46_3 Zn7_2 1_555 1_555
C80_3 H70_3 1_555 1_555
H72_3 C80_3 1_555 1_555
H74_3 C80_3 1_555 1_555
O48_3 Zn7_2 1_555 1_555
C38_3 C40_3 1_555 1_555
C38_3 C44_3 1_555 1_555
C42_3 O21_3 1_555 1_555
C68_3 O44_3 1_555 1_555
C70_3 N3_3 1_555 1_555
C72_3 N3_3 1_555 1_555
C74_3 O46_3 1_555 1_555
C76_3 N5_3 1_555 1_555
C78_3 N5_3 1_555 1_555
C80_3 O48_3 1_555 1_555
C11_3 C12_3 1_555 1_555
C12_3 C13_3 1_555 1_555
C14_3 C13_3 1_555 1_555
C15_3 C14_3 1_555 1_555
H6_3 C15_3 1_555 1_555
C16_3 C15_3 1_555 1_555
C17_3 C12_3 1_555 1_555
H7_3 C17_3 1_555 1_555
C18_3 C16_3 1_555 1_555
C19_3 C18_3 1_555 1_555
H8_3 C19_3 1_555 1_555
C20_3 C14_3 1_555 1_555
O5_3 C20_3 1_555 1_555
O6_3 C20_3 1_555 1_555
O7_3 Zn18 1_555 1_555
Zn6_2 O41_2 1_555 1_555
Zn13_2 O5_3 1_555 1_555
Zn14 O37_2 1_555 1_555
Zn12_2 O27_3 1_555 1_555
H32_3 C47_3 1_555 1_555
C48_3 C50_3 1_555 1_555
C49_3 C51_3 1_555 1_555
C50_3 C52_3 1_555 1_555
C51_3 C53_3 1_555 1_555
C53_3 H35_3 1_555 1_555
C54_3 C52_3 1_555 1_555
C55_3 C53_3 1_555 1_555
C56_3 C54_3 1_555 1_555
C57_3 C55_3 1_555 1_555
H36_3 C56_3 1_555 1_555
H37_3 C57_3 1_555 1_555
C58_3 C56_3 1_555 1_555
C59_3 C57_3 1_555 1_555
C60_3 C50_3 1_555 1_555
C61_3 C51_3 1_555 1_555
H38_3 C60_3 1_555 1_555
H39_3 C61_3 1_555 1_555
C62_3 C19_3 1_555 1_555
C63_3 C59_3 1_555 1_555
C64_3 C62_3 1_555 1_555
C65_3 C18_3 1_555 1_555
H40_3 C65_3 1_555 1_555
H41_3 C64_3 1_555 1_555
C66_3 C54_3 1_555 1_555
C67_3 C55_3 1_555 1_555
O26_3 Zn15_3 1_555 1_555
O27_3 C67_3 1_555 1_555
O31_3 Zn15_3 1_555 1_555
O32_3 Zn12_2 1_555 1_555
O38_2 C48_3 1_555 1_555
O37_2 C49_3 1_555 1_555
O41_2 C49_3 1_555 1_555
C11_3 O7_3 1_555 1_555
C16_3 C17_3 1_555 1_555
O6_3 Zn13_2 1_555 1_555
C58_3 C60_3 1_555 1_555
C58_3 C62_3 1_555 1_555
C59_3 C61_3 1_555 1_555
C63_3 C64_3 1_555 1_555
C63_3 C65_3 1_555 1_555
C66_3 O26_3 1_555 1_555
C66_3 O31_3 1_555 1_555
C67_3 O32_3 1_555 1_555
Zn6_2 O15_3 1_555 1_555
Zn14 O13_3 1_555 1_555
C29_3 C31_3 1_555 1_555
C31_3 C33_3 1_555 1_555
C33_3 H27_3 1_555 1_555
C35_3 C33_3 1_555 1_555
C37_3 C35_3 1_555 1_555
H29_3 C37_3 1_555 1_555
C39_3 C37_3 1_555 1_555
C41_3 C31_3 1_555 1_555
H31_3 C41_3 1_555 1_555
C43_3 C35_3 1_555 1_555
C45_3 C39_3 1_555 1_555
H33_3 C46_3 1_555 1_555
O13_3 C29_3 1_555 1_555
O15_3 C29_3 1_555 1_555
O17_3 C43_3 1_555 1_555
C69_3 H43_3 1_555 1_555
C71_3 H45_3 1_555 1_555
H47_3 C71_3 1_555 1_555
H49_3 C71_3 1_555 1_555
C73_3 H51_3 1_555 1_555
H53_3 C73_3 1_555 1_555
H55_3 C73_3 1_555 1_555
N4_3 C69_3 1_555 1_555
O45_3 Zn6_2 1_555 1_555
C75_3 H57_3 1_555 1_555
C77_3 H59_3 1_555 1_555
H61_3 C77_3 1_555 1_555
H63_3 C77_3 1_555 1_555
C79_3 H65_3 1_555 1_555
H67_3 C79_3 1_555 1_555
H69_3 C79_3 1_555 1_555
N6_3 C75_3 1_555 1_555
O47_3 Zn6_2 1_555 1_555
C81_3 H71_3 1_555 1_555
H73_3 C81_3 1_555 1_555
H75_3 C81_3 1_555 1_555
O49_3 Zn6_2 1_555 1_555
C39_3 C41_3 1_555 1_555
C43_3 O22_3 1_555 1_555
C45_3 C46_3 1_555 1_555
C69_3 O45_3 1_555 1_555
C71_3 N4_3 1_555 1_555
C73_3 N4_3 1_555 1_555
C75_3 O47_3 1_555 1_555
C77_3 N6_3 1_555 1_555
C79_3 N6_3 1_555 1_555
C81_3 O49_3 1_555 1_555
Zn6 O15_4 1_555 1_555
Zn7 O40_2 1_555 1_555
Zn13 O13_4 1_555 1_555
C29_4 C31_4 1_555 1_555
C31_4 C33_4 1_555 1_555
C33_4 H27_4 1_555 1_555
C35_4 C33_4 1_555 1_555
C37_4 C35_4 1_555 1_555
H29_4 C37_4 1_555 1_555
C39_4 C37_4 1_555 1_555
C41_4 C31_4 1_555 1_555
H31_4 C41_4 1_555 1_555
C43_4 C35_4 1_555 1_555
C45_4 C39_4 1_555 1_555
H33_4 C46_4 1_555 1_555
O13_4 C29_4 1_555 1_555
O15_4 C29_4 1_555 1_555
O17_4 C43_4 1_555 1_555
O39_2 Zn13 1_555 1_555
O43_2 Zn6 1_555 1_555
C69_4 H43_4 1_555 1_555
C71_4 H45_4 1_555 1_555
H47_4 C71_4 1_555 1_555
H49_4 C71_4 1_555 1_555
C73_4 H51_4 1_555 1_555
H53_4 C73_4 1_555 1_555
H55_4 C73_4 1_555 1_555
N4_4 C69_4 1_555 1_555
O45_4 Zn6 1_555 1_555
C75_4 H57_4 1_555 1_555
C77_4 H59_4 1_555 1_555
H61_4 C77_4 1_555 1_555
H63_4 C77_4 1_555 1_555
C79_4 H65_4 1_555 1_555
H67_4 C79_4 1_555 1_555
H69_4 C79_4 1_555 1_555
N6_4 C75_4 1_555 1_555
O47_4 Zn6 1_555 1_555
C81_4 H71_4 1_555 1_555
H73_4 C81_4 1_555 1_555
H75_4 C81_4 1_555 1_555
O49_4 Zn6 1_555 1_555
C39_4 C41_4 1_555 1_555
C43_4 O22_4 1_555 1_555
C45_4 C46_4 1_555 1_555
C69_4 O45_4 1_555 1_555
C71_4 N4_4 1_555 1_555
C73_4 N4_4 1_555 1_555
C75_4 O47_4 1_555 1_555
C77_4 N6_4 1_555 1_555
C79_4 N6_4 1_555 1_555
C81_4 O49_4 1_555 1_555
Zn7 O14_4 1_555 1_555
C28_4 C30_4 1_555 1_555
C30_4 C32_4 1_555 1_555
C32_4 H26_4 1_555 1_555
C34_4 C32_4 1_555 1_555
C36_4 C34_4 1_555 1_555
H28_4 C36_4 1_555 1_555
C38_4 C36_4 1_555 1_555
C40_4 C30_4 1_555 1_555
H30_4 C40_4 1_555 1_555
C42_4 C34_4 1_555 1_555
O12_4 C28_4 1_555 1_555
O14_4 C28_4 1_555 1_555
O16_4 C42_4 1_555 1_555
C68_4 H42_4 1_555 1_555
C70_4 H44_4 1_555 1_555
H46_4 C70_4 1_555 1_555
H48_4 C70_4 1_555 1_555
C72_4 H50_4 1_555 1_555
H52_4 C72_4 1_555 1_555
H54_4 C72_4 1_555 1_555
N3_4 C68_4 1_555 1_555
O44_4 Zn7 1_555 1_555
C74_4 H56_4 1_555 1_555
C76_4 H58_4 1_555 1_555
H60_4 C76_4 1_555 1_555
H62_4 C76_4 1_555 1_555
C78_4 H64_4 1_555 1_555
H66_4 C78_4 1_555 1_555
H68_4 C78_4 1_555 1_555
N5_4 C74_4 1_555 1_555
O46_4 Zn7 1_555 1_555
C80_4 H70_4 1_555 1_555
H72_4 C80_4 1_555 1_555
H74_4 C80_4 1_555 1_555
O48_4 Zn7 1_555 1_555
C38_4 C40_4 1_555 1_555
C38_4 C44_4 1_555 1_555
C42_4 O21_4 1_555 1_555
C68_4 O44_4 1_555 1_555
C70_4 N3_4 1_555 1_555
C72_4 N3_4 1_555 1_555
C74_4 O46_4 1_555 1_555
C76_4 N5_4 1_555 1_555
C78_4 N5_4 1_555 1_555
C80_4 O48_4 1_555 1_555
C11_4 C12_4 1_555 1_555
C12_4 C13_4 1_555 1_555
C14_4 C13_4 1_555 1_555
C15_4 C14_4 1_555 1_555
H6_4 C15_4 1_555 1_555
C16_4 C15_4 1_555 1_555
C17_4 C12_4 1_555 1_555
H7_4 C17_4 1_555 1_555
C18_4 C16_4 1_555 1_555
C19_4 C18_4 1_555 1_555
H8_4 C19_4 1_555 1_555
C20_4 C14_4 1_555 1_555
O5_4 C20_4 1_555 1_555
O6_4 C20_4 1_555 1_555
O7_4 Zn12 1_555 1_555
Zn14_2 O5_4 1_555 1_555
Zn15 O36_2 1_555 1_555
Zn18_2 O27_4 1_555 1_555
H32_4 C47_4 1_555 1_555
C48_4 C50_4 1_555 1_555
C49_4 C51_4 1_555 1_555
C50_4 C52_4 1_555 1_555
C51_4 C53_4 1_555 1_555
C53_4 H35_4 1_555 1_555
C54_4 C52_4 1_555 1_555
C55_4 C53_4 1_555 1_555
C56_4 C54_4 1_555 1_555
C57_4 C55_4 1_555 1_555
H36_4 C56_4 1_555 1_555
H37_4 C57_4 1_555 1_555
C58_4 C56_4 1_555 1_555
C59_4 C57_4 1_555 1_555
C60_4 C50_4 1_555 1_555
C61_4 C51_4 1_555 1_555
H38_4 C60_4 1_555 1_555
H39_4 C61_4 1_555 1_555
C62_4 C19_4 1_555 1_555
C63_4 C59_4 1_555 1_555
C64_4 C62_4 1_555 1_555
C65_4 C18_4 1_555 1_555
H40_4 C65_4 1_555 1_555
H41_4 C64_4 1_555 1_555
C66_4 C54_4 1_555 1_555
C67_4 C55_4 1_555 1_555
O26_4 Zn15_4 1_555 1_555
O27_4 C67_4 1_555 1_555
O31_4 Zn15_4 1_555 1_555
O32_4 Zn18_2 1_555 1_555
O36_2 C48_4 1_555 1_555
O39_2 C49_4 1_555 1_555
O43_2 C49_4 1_555 1_555
C11_4 O7_4 1_555 1_555
C16_4 C17_4 1_555 1_555
O6_4 Zn14_2 1_555 1_555
C58_4 C60_4 1_555 1_555
C58_4 C62_4 1_555 1_555
C59_4 C61_4 1_555 1_555
C63_4 C64_4 1_555 1_555
C63_4 C65_4 1_555 1_555
C66_4 O26_4 1_555 1_555
C66_4 O31_4 1_555 1_555
C67_4 O32_4 1_555 1_555
Zn5 O2_4 1_555 1_555
C1_4 C2_4 1_555 1_555
C2_4 C3_4 1_555 1_555
C3_4 H1_4 1_555 1_555
C4_4 C3_4 1_555 1_555
C5_4 C4_4 1_555 1_555
H2_4 C5_4 1_555 1_555
C6_4 C5_4 1_555 1_555
C7_4 C2_4 1_555 1_555
H3_4 C7_4 1_555 1_555
C8_4 C4_4 1_555 1_555
C9_4 C6_4 1_555 1_555
C10_4 C9_4 1_555 1_555
H4_4 C10_4 1_555 1_555
O1_4 C1_4 1_555 1_555
O2_4 C1_4 1_555 1_555
O3_4 C8_4 1_555 1_555
O4_4 C8_4 1_555 1_555
O8_4 Zn5 1_555 1_555
C21_4 H9_4 1_555 1_555
C22_4 H10_4 1_555 1_555
H11_4 C22_4 1_555 1_555
H12_4 C22_4 1_555 1_555
C23_4 H13_4 1_555 1_555
H14_4 C23_4 1_555 1_555
H15_4 C23_4 1_555 1_555
N1_4 C21_4 1_555 1_555
O9_4 Zn5 1_555 1_555
C24_4 H16_4 1_555 1_555
C25_4 H17_4 1_555 1_555
H18_4 C25_4 1_555 1_555
H19_4 C25_4 1_555 1_555
C26_4 H20_4 1_555 1_555
H21_4 C26_4 1_555 1_555
H22_4 C26_4 1_555 1_555
N2_4 C24_4 1_555 1_555
O10_4 Zn5 1_555 1_555
C27_4 H23_4 1_555 1_555
H24_4 C27_4 1_555 1_555
H25_4 C27_4 1_555 1_555
O11_4 Zn5 1_555 1_555
Zn5_4 O4_4 1_555 1_555
Zn18_2 O3_4 1_555 1_555
C6_4 C7_4 1_555 1_555
O4_4 Zn18_2 1_555 1_555
C21_4 O9_4 1_555 1_555
C22_4 N1_4 1_555 1_555
C23_4 N1_4 1_555 1_555
C24_4 O10_4 1_555 1_555
C25_4 N2_4 1_555 1_555
C26_4 N2_4 1_555 1_555
C27_4 O11_4 1_555 1_555
C68_5 H42_5 1_555 1_555
C70_5 H44_5 1_555 1_555
H46_5 C70_5 1_555 1_555
H48_5 C70_5 1_555 1_555
C72_5 H50_5 1_555 1_555
H52_5 C72_5 1_555 1_555
H54_5 C72_5 1_555 1_555
N3_5 C68_5 1_555 1_555
C68_5 O44_5 1_555 1_555
C70_5 N3_5 1_555 1_555
C72_5 N3_5 1_555 1_555
H14_5 C23_5 1_555 1_555
H15_5 C23_5 1_555 1_555
Zn5_4 O2_5 1_555 1_555
Zn18_2 O1_5 1_555 1_555
C1_5 C2_5 1_555 1_555
C2_5 C3_5 1_555 1_555
C3_5 H1_5 1_555 1_555
C4_5 C3_5 1_555 1_555
C5_5 C4_5 1_555 1_555
H2_5 C5_5 1_555 1_555
C6_5 C5_5 1_555 1_555
C7_5 C2_5 1_555 1_555
H3_5 C7_5 1_555 1_555
C8_5 C4_5 1_555 1_555
C9_5 C6_5 1_555 1_555
C10_5 C9_5 1_555 1_555
H4_5 C10_5 1_555 1_555
C11_5 C12_5 1_555 1_555
C12_5 C13_5 1_555 1_555
C13_5 H5_5 1_555 1_555
C14_5 C13_5 1_555 1_555
C15_5 C14_5 1_555 1_555
H6_5 C15_5 1_555 1_555
C16_5 C15_5 1_555 1_555
C17_5 C12_5 1_555 1_555
H7_5 C17_5 1_555 1_555
C18_5 C16_5 1_555 1_555
C19_5 C18_5 1_555 1_555
H8_5 C19_5 1_555 1_555
C20_5 C14_5 1_555 1_555
O1_5 C1_5 1_555 1_555
O2_5 C1_5 1_555 1_555
O18_2 C8_5 1_555 1_555
O23_2 C8_5 1_555 1_555
O30_2 C20_5 1_555 1_555
O35_2 C20_5 1_555 1_555
O7_5 Zn18_2 1_555 1_555
O8_5 Zn5_4 1_555 1_555
C21_5 H9_5 1_555 1_555
C22_5 H10_5 1_555 1_555
H11_5 C22_5 1_555 1_555
N1_5 C21_5 1_555 1_555
O9_5 Zn5_4 1_555 1_555
C24_5 H16_5 1_555 1_555
C25_5 H17_5 1_555 1_555
H18_5 C25_5 1_555 1_555
H19_5 C25_5 1_555 1_555
C26_5 H20_5 1_555 1_555
H21_5 C26_5 1_555 1_555
H22_5 C26_5 1_555 1_555
N2_5 C24_5 1_555 1_555
O10_5 Zn5_4 1_555 1_555
C27_5 H23_5 1_555 1_555
H24_5 C27_5 1_555 1_555
H25_5 C27_5 1_555 1_555
O11_5 Zn5_4 1_555 1_555
Zn7_4 O14_5 1_555 1_555
Zn6_4 O15_5 1_555 1_555
Zn15_4 O12_5 1_555 1_555
Zn14_2 O13_5 1_555 1_555
C28_5 C30_5 1_555 1_555
C29_5 C31_5 1_555 1_555
C30_5 C32_5 1_555 1_555
C31_5 C33_5 1_555 1_555
C32_5 H26_5 1_555 1_555
C33_5 H27_5 1_555 1_555
C34_5 C32_5 1_555 1_555
C35_5 C33_5 1_555 1_555
C36_5 C34_5 1_555 1_555
C37_5 C35_5 1_555 1_555
H28_5 C36_5 1_555 1_555
H29_5 C37_5 1_555 1_555
C38_5 C36_5 1_555 1_555
C39_5 C37_5 1_555 1_555
C40_5 C30_5 1_555 1_555
C41_5 C31_5 1_555 1_555
H30_5 C40_5 1_555 1_555
H31_5 C41_5 1_555 1_555
C42_5 C34_5 1_555 1_555
C43_5 C35_5 1_555 1_555
C44_5 C10_5 1_555 1_555
C45_5 C39_5 1_555 1_555
C46_5 C44_5 1_555 1_555
C47_5 C9_5 1_555 1_555
H32_5 C47_5 1_555 1_555
H33_5 C46_5 1_555 1_555
C48_5 C50_5 1_555 1_555
C49_5 C51_5 1_555 1_555
C50_5 C52_5 1_555 1_555
C51_5 C53_5 1_555 1_555
C52_5 H34_5 1_555 1_555
C53_5 H35_5 1_555 1_555
C54_5 C52_5 1_555 1_555
C55_5 C53_5 1_555 1_555
C56_5 C54_5 1_555 1_555
C57_5 C55_5 1_555 1_555
H36_5 C56_5 1_555 1_555
H37_5 C57_5 1_555 1_555
C58_5 C56_5 1_555 1_555
C59_5 C57_5 1_555 1_555
C60_5 C50_5 1_555 1_555
C61_5 C51_5 1_555 1_555
H38_5 C60_5 1_555 1_555
H39_5 C61_5 1_555 1_555
C62_5 C19_5 1_555 1_555
C63_5 C59_5 1_555 1_555
C64_5 C62_5 1_555 1_555
C65_5 C18_5 1_555 1_555
H40_5 C65_5 1_555 1_555
H41_5 C64_5 1_555 1_555
C66_5 C54_5 1_555 1_555
C67_5 C55_5 1_555 1_555
O12_5 C28_5 1_555 1_555
O13_5 C29_5 1_555 1_555
O14_5 C28_5 1_555 1_555
O15_5 C29_5 1_555 1_555
O20_2 C42_5 1_555 1_555
O19_2 C43_5 1_555 1_555
O28_2 C67_5 1_555 1_555
O38_3 C48_5 1_555 1_555
O37_3 C49_5 1_555 1_555
O42_3 C48_5 1_555 1_555
O41_3 C49_5 1_555 1_555
C74_5 H56_5 1_555 1_555
C75_5 H57_5 1_555 1_555
C76_5 H58_5 1_555 1_555
C77_5 H59_5 1_555 1_555
H60_5 C76_5 1_555 1_555
H61_5 C77_5 1_555 1_555
H62_5 C76_5 1_555 1_555
H63_5 C77_5 1_555 1_555
C78_5 H64_5 1_555 1_555
C79_5 H65_5 1_555 1_555
H66_5 C78_5 1_555 1_555
H67_5 C79_5 1_555 1_555
H68_5 C78_5 1_555 1_555
H69_5 C79_5 1_555 1_555
N5_5 C74_5 1_555 1_555
N6_5 C75_5 1_555 1_555
O46_5 Zn7_4 1_555 1_555
O47_5 Zn6_4 1_555 1_555
C80_5 H70_5 1_555 1_555
C81_5 H71_5 1_555 1_555
H72_5 C80_5 1_555 1_555
H73_5 C81_5 1_555 1_555
H74_5 C80_5 1_555 1_555
H75_5 C81_5 1_555 1_555
O48_5 Zn7_4 1_555 1_555
O49_5 Zn6_4 1_555 1_555
C6_5 C7_5 1_555 1_555
C11_5 O7_5 1_555 1_555
C11_5 O8_5 1_555 1_555
C16_5 C17_5 1_555 1_555
C21_5 O9_5 1_555 1_555
C22_5 N1_5 1_555 1_555
C24_5 O10_5 1_555 1_555
C25_5 N2_5 1_555 1_555
C26_5 N2_5 1_555 1_555
C27_5 O11_5 1_555 1_555
C38_5 C40_5 1_555 1_555
C38_5 C44_5 1_555 1_555
C39_5 C41_5 1_555 1_555
C42_5 O25_2 1_555 1_555
C43_5 O24_2 1_555 1_555
C45_5 C46_5 1_555 1_555
C45_5 C47_5 1_555 1_555
C58_5 C60_5 1_555 1_555
C58_5 C62_5 1_555 1_555
C59_5 C61_5 1_555 1_555
C63_5 C64_5 1_555 1_555
C63_5 C65_5 1_555 1_555
C66_5 O29_2 1_555 1_555
C66_5 O34_2 1_555 1_555
C67_5 O33_2 1_555 1_555
C74_5 O46_5 1_555 1_555
C75_5 O47_5 1_555 1_555
C76_5 N5_5 1_555 1_555
C77_5 N6_5 1_555 1_555
C78_5 N5_5 1_555 1_555
C79_5 N6_5 1_555 1_555
C80_5 O48_5 1_555 1_555
C81_5 O49_5 1_555 1_555
C69_5 H43_5 1_555 1_555
C71_5 H45_5 1_555 1_555
H47_5 C71_5 1_555 1_555
N4_5 C69_5 1_555 1_555
C69_5 O45_5 1_555 1_555
C71_5 N4_5 1_555 1_555
H53_5 C73_5 1_555 1_555
H55_5 C73_5 1_555 1_555
H53_6 C73_6 1_555 1_555
H55_6 C73_6 1_555 1_555
C69_6 H43_6 1_555 1_555
C71_6 H45_6 1_555 1_555
H47_6 C71_6 1_555 1_555
N4_6 C69_6 1_555 1_555
C69_6 O45_6 1_555 1_555
C71_6 N4_6 1_555 1_555
Zn5_3 O2_6 1_555 1_555
Zn12_2 O1_6 1_555 1_555
C1_6 C2_6 1_555 1_555
C2_6 C3_6 1_555 1_555
C3_6 H1_6 1_555 1_555
C4_6 C3_6 1_555 1_555
C5_6 C4_6 1_555 1_555
H2_6 C5_6 1_555 1_555
C6_6 C5_6 1_555 1_555
C7_6 C2_6 1_555 1_555
H3_6 C7_6 1_555 1_555
C8_6 C4_6 1_555 1_555
C9_6 C6_6 1_555 1_555
C10_6 C9_6 1_555 1_555
H4_6 C10_6 1_555 1_555
C11_6 C12_6 1_555 1_555
C12_6 C13_6 1_555 1_555
C13_6 H5_6 1_555 1_555
C14_6 C13_6 1_555 1_555
C15_6 C14_6 1_555 1_555
H6_6 C15_6 1_555 1_555
C16_6 C15_6 1_555 1_555
C17_6 C12_6 1_555 1_555
H7_6 C17_6 1_555 1_555
C18_6 C16_6 1_555 1_555
C19_6 C18_6 1_555 1_555
H8_6 C19_6 1_555 1_555
C20_6 C14_6 1_555 1_555
O1_6 C1_6 1_555 1_555
O2_6 C1_6 1_555 1_555
O18 C8_6 1_555 1_555
O23 C8_6 1_555 1_555
O30 C20_6 1_555 1_555
O35 C20_6 1_555 1_555
O7_6 Zn12_2 1_555 1_555
O8_6 Zn5_3 1_555 1_555
C21_6 H9_6 1_555 1_555
C22_6 H10_6 1_555 1_555
H11_6 C22_6 1_555 1_555
N1_6 C21_6 1_555 1_555
O9_6 Zn5_3 1_555 1_555
C24_6 H16_6 1_555 1_555
C25_6 H17_6 1_555 1_555
H18_6 C25_6 1_555 1_555
H19_6 C25_6 1_555 1_555
C26_6 H20_6 1_555 1_555
H21_6 C26_6 1_555 1_555
H22_6 C26_6 1_555 1_555
N2_6 C24_6 1_555 1_555
O10_6 Zn5_3 1_555 1_555
C27_6 H23_6 1_555 1_555
H24_6 C27_6 1_555 1_555
H25_6 C27_6 1_555 1_555
O11_6 Zn5_3 1_555 1_555
Zn7_3 O14_6 1_555 1_555
Zn6_3 O15_6 1_555 1_555
Zn15_3 O12_6 1_555 1_555
Zn13_2 O13_6 1_555 1_555
C28_6 C30_6 1_555 1_555
C29_6 C31_6 1_555 1_555
C30_6 C32_6 1_555 1_555
C31_6 C33_6 1_555 1_555
C32_6 H26_6 1_555 1_555
C33_6 H27_6 1_555 1_555
C34_6 C32_6 1_555 1_555
C35_6 C33_6 1_555 1_555
C36_6 C34_6 1_555 1_555
C37_6 C35_6 1_555 1_555
H28_6 C36_6 1_555 1_555
H29_6 C37_6 1_555 1_555
C38_6 C36_6 1_555 1_555
C39_6 C37_6 1_555 1_555
C40_6 C30_6 1_555 1_555
C41_6 C31_6 1_555 1_555
H30_6 C40_6 1_555 1_555
H31_6 C41_6 1_555 1_555
C42_6 C34_6 1_555 1_555
C43_6 C35_6 1_555 1_555
C44_6 C10_6 1_555 1_555
C45_6 C39_6 1_555 1_555
C46_6 C44_6 1_555 1_555
C47_6 C9_6 1_555 1_555
H32_6 C47_6 1_555 1_555
H33_6 C46_6 1_555 1_555
C48_6 C50_6 1_555 1_555
C49_6 C51_6 1_555 1_555
C50_6 C52_6 1_555 1_555
C51_6 C53_6 1_555 1_555
C52_6 H34_6 1_555 1_555
C53_6 H35_6 1_555 1_555
C54_6 C52_6 1_555 1_555
C55_6 C53_6 1_555 1_555
C56_6 C54_6 1_555 1_555
C57_6 C55_6 1_555 1_555
H36_6 C56_6 1_555 1_555
H37_6 C57_6 1_555 1_555
C58_6 C56_6 1_555 1_555
C59_6 C57_6 1_555 1_555
C60_6 C50_6 1_555 1_555
C61_6 C51_6 1_555 1_555
H38_6 C60_6 1_555 1_555
H39_6 C61_6 1_555 1_555
C62_6 C19_6 1_555 1_555
C63_6 C59_6 1_555 1_555
C64_6 C62_6 1_555 1_555
C65_6 C18_6 1_555 1_555
H40_6 C65_6 1_555 1_555
H41_6 C64_6 1_555 1_555
C66_6 C54_6 1_555 1_555
C67_6 C55_6 1_555 1_555
O12_6 C28_6 1_555 1_555
O13_6 C29_6 1_555 1_555
O14_6 C28_6 1_555 1_555
O15_6 C29_6 1_555 1_555
O20 C42_6 1_555 1_555
O19 C43_6 1_555 1_555
O28 C67_6 1_555 1_555
O36_3 C48_6 1_555 1_555
O39_3 C49_6 1_555 1_555
O40_3 C48_6 1_555 1_555
O43_3 C49_6 1_555 1_555
C74_6 H56_6 1_555 1_555
C75_6 H57_6 1_555 1_555
C76_6 H58_6 1_555 1_555
C77_6 H59_6 1_555 1_555
H60_6 C76_6 1_555 1_555
H61_6 C77_6 1_555 1_555
H62_6 C76_6 1_555 1_555
H63_6 C77_6 1_555 1_555
C78_6 H64_6 1_555 1_555
C79_6 H65_6 1_555 1_555
H66_6 C78_6 1_555 1_555
H67_6 C79_6 1_555 1_555
H68_6 C78_6 1_555 1_555
H69_6 C79_6 1_555 1_555
N5_6 C74_6 1_555 1_555
N6_6 C75_6 1_555 1_555
O46_6 Zn7_3 1_555 1_555
O47_6 Zn6_3 1_555 1_555
C80_6 H70_6 1_555 1_555
C81_6 H71_6 1_555 1_555
H72_6 C80_6 1_555 1_555
H73_6 C81_6 1_555 1_555
H74_6 C80_6 1_555 1_555
H75_6 C81_6 1_555 1_555
O48_6 Zn7_3 1_555 1_555
O49_6 Zn6_3 1_555 1_555
C6_6 C7_6 1_555 1_555
C11_6 O7_6 1_555 1_555
C11_6 O8_6 1_555 1_555
C16_6 C17_6 1_555 1_555
C21_6 O9_6 1_555 1_555
C22_6 N1_6 1_555 1_555
C24_6 O10_6 1_555 1_555
C25_6 N2_6 1_555 1_555
C26_6 N2_6 1_555 1_555
C27_6 O11_6 1_555 1_555
C38_6 C40_6 1_555 1_555
C38_6 C44_6 1_555 1_555
C39_6 C41_6 1_555 1_555
C42_6 O25 1_555 1_555
C43_6 O24 1_555 1_555
C45_6 C46_6 1_555 1_555
C45_6 C47_6 1_555 1_555
C58_6 C60_6 1_555 1_555
C58_6 C62_6 1_555 1_555
C59_6 C61_6 1_555 1_555
C63_6 C64_6 1_555 1_555
C63_6 C65_6 1_555 1_555
C66_6 O29 1_555 1_555
C66_6 O34 1_555 1_555
C67_6 O33 1_555 1_555
C74_6 O46_6 1_555 1_555
C75_6 O47_6 1_555 1_555
C76_6 N5_6 1_555 1_555
C77_6 N6_6 1_555 1_555
C78_6 N5_6 1_555 1_555
C79_6 N6_6 1_555 1_555
C80_6 O48_6 1_555 1_555
C81_6 O49_6 1_555 1_555
C68_6 H42_6 1_555 1_555
C70_6 H44_6 1_555 1_555
H46_6 C70_6 1_555 1_555
H48_6 C70_6 1_555 1_555
C72_6 H50_6 1_555 1_555
H52_6 C72_6 1_555 1_555
H54_6 C72_6 1_555 1_555
N3_6 C68_6 1_555 1_555
C68_6 O44_6 1_555 1_555
C70_6 N3_6 1_555 1_555
C72_6 N3_6 1_555 1_555
H14_6 C23_6 1_555 1_555
H15_6 C23_6 1_555 1_555

#END
