
###############################################################################
#
# This file contains modified crystal structure data generated from the
# MOF subset of the Cambridge Structural Database (CSD) v543 
# hosted by the Cambridge Crystallographic Data Centre (CCDC).
#
# This work is licensed under the Creative Commons
# Attribution-NonCommercial-ShareAlike 4.0 International License.
# To view a copy of this license, visit
# http://creativecommons.org/licenses/by-nc-sa/4.0/
# or send a letter to
# Creative Commons, PO Box 1866, Mountain View, CA 94042, USA.
#
# CIF created using the CSD Python API on 29 September 2022
# The structure has been converted into the P1 space group
# The structure has a 3D framework
# The original CSD entry QUQHAM is in the monoclinic crystal system
# The framework has been calculated to contain at least 10.0% void space
# The void calculation uses a probe of radius 1.32A, grid spacing 0.4
#
###############################################################################

data_QUQHAM
_chemical_formula_moiety         '(C48 H30 Cu11 N8 O30)n'
_symmetry_cell_setting           triclinic
_symmetry_space_group_name_H-M   'P 1'
_symmetry_Int_Tables_number      1
_space_group_name_Hall           'P 1'
loop_
_symmetry_equiv_pos_site_id
_symmetry_equiv_pos_as_xyz
1 x,y,z
_cell_length_a                   16.892(3)
_cell_length_b                   15.722(2)
_cell_length_c                   5.8595(9)
_cell_angle_alpha                90
_cell_angle_beta                 106.112(2)
_cell_angle_gamma                90
_cell_volume                     1495.02
loop_
_atom_site_label
_atom_site_type_symbol
_atom_site_fract_x
_atom_site_fract_y
_atom_site_fract_z
Cu1 Cu 0.13453(2) 0.12560(2) 0.14849(6)
O1 O 0.07976(13) 0.01275(13) 0.0668(3)
O2 O -0.0000 0.15642(19) 0.2500
Cu8 Cu -0.0000 0.00878(3) 0.7500
H7 H 0.1168 0.0217 0.5725
H8 H 0.0201 0.1900 0.3596
O15 O 0.19315(14) 0.09065(14) 0.4530(4)
N3 N 0.18121(15) 0.24148(16) 0.1964(4)
O10 O 0.09019(14) 0.15689(14) 0.8229(4)
Cu2 Cu 1.0000 0.99122(3) 0.2500
O3 O 0.90981(14) 0.84311(14) 0.1771(4)
O4 O 0.93105(15) 0.72797(15) 0.4061(4)
C1 C 0.9022(2) 0.7638(2) 0.2134(5)
C2 C 0.8511(2) 0.7139(2) 0.0047(5)
C3 C 0.8363(2) 0.6280(2) 0.0207(6)
H3 H 0.8609 0.5976 0.1582
H5 H 0.8832 0.9783 0.4275
O5 O 0.69315(14) 0.59065(14) 0.4530(4)
N1 N 0.81879(15) 0.75852(16) 0.8036(4)
C4 C 0.7844(2) 0.5892(2) 0.8274(6)
H4 H 0.7739 0.5313 0.8340
C5 C 0.7464(2) 0.6346(2) 0.6197(6)
C6 C 0.76659(19) 0.72252(19) 0.6058(5)
Cu4 Cu 0.86547(2) 0.87440(2) 0.85151(6)
Cu5 Cu 0.63453(2) 0.62560(2) 0.14849(6)
O7 O 0.92024(13) 0.98725(13) 0.9332(3)
O14 O 0.80685(14) 0.90935(14) 0.5470(4)
N2 N 0.68121(15) 0.74148(16) 0.1964(4)
C10 C 0.7156(2) 0.9108(2) 0.1726(6)
H10 H 0.7261 0.9687 0.1660
C11 C 0.7536(2) 0.8654(2) 0.3803(6)
C12 C 0.73341(19) 0.77748(19) 0.3942(5)
Cu7 Cu 0.5000 0.50878(3) 0.7500
O9 O 0.59019(14) 0.65689(14) 0.8229(4)
O13 O 0.56895(15) 0.77203(15) 0.5939(4)
C7 C 0.5978(2) 0.7362(2) 0.7866(5)
C8 C 0.6489(2) 0.7861(2) 0.9953(5)
C9 C 0.6637(2) 0.8720(2) 0.9793(6)
H9 H 0.6391 0.9024 0.8418
O5_2 O 0.30685(14) 0.59065(14) 0.0470(4)
Cu5_2 Cu 0.36547(2) 0.62560(2) 0.35151(6)
O9_2 O 0.40981(14) 0.65689(14) 0.6771(4)
O13_2 O 0.43105(15) 0.77203(15) 0.9061(4)
N2_2 N 0.31879(15) 0.74148(16) 0.3036(4)
C7_2 C 0.4022(2) 0.7362(2) 0.7134(5)
C8_2 C 0.3511(2) 0.7861(2) 0.5047(5)
C9_2 C 0.3363(2) 0.8720(2) 0.5207(6)
H9_2 H 0.3609 0.9024 0.6582
C10_2 C 0.2844(2) 0.9108(2) 0.3274(6)
H10_2 H 0.2739 0.9687 0.3340
C11_2 C 0.2464(2) 0.8654(2) 0.1197(6)
C12_2 C 0.26659(19) 0.77748(19) 0.1058(5)
Cu2_2 Cu 0.5000 0.49122(3) 0.2500
O1_2 O 0.57976(13) 0.51275(13) 0.0668(3)
H1 H 0.6168 0.4783 0.0725
O2_2 O 0.5000 0.65642(19) 0.2500
H2 H 0.4799 0.6900 0.1404
O3_2 O 0.40981(14) 0.34311(14) 0.1771(4)
O4_2 O 0.43105(15) 0.22797(15) 0.4061(4)
C1_2 C 0.4022(2) 0.2638(2) 0.2134(5)
C2_2 C 0.3511(2) 0.2139(2) 0.0047(5)
C3_2 C 0.3363(2) 0.1280(2) 0.0207(6)
H3_2 H 0.3609 0.0976 0.1582
O6 O 0.42024(13) 0.51275(13) 0.4332(3)
O8 O 0.57976(13) 0.48725(13) 0.5668(3)
H5_2 H 0.3832 0.4783 0.4275
H7_2 H 0.6168 0.5217 0.5725
H8_2 H 0.5201 0.6900 0.3596
O11 O 0.59019(14) 0.34311(14) 0.3229(4)
N1_2 N 0.31879(15) 0.25852(16) 0.8036(4)
C4_2 C 0.2844(2) 0.0892(2) 0.8274(6)
H4_2 H 0.2739 0.0313 0.8340
C5_2 C 0.2464(2) 0.1346(2) 0.6197(6)
C6_2 C 0.26659(19) 0.22252(19) 0.6058(5)
Cu4_2 Cu 0.36547(2) 0.37440(2) 0.85151(6)
O7_2 O 0.42024(13) 0.48725(13) 0.9332(3)
H6 H 0.3832 0.5217 0.9275
O14_2 O 0.30685(14) 0.40935(14) 0.5470(4)
C10_3 C 0.2156(2) 0.4108(2) 0.1726(6)
H10_3 H 0.2261 0.4687 0.1660
C11_3 C 0.2536(2) 0.3654(2) 0.3803(6)
C12_3 C 0.23341(19) 0.27748(19) 0.3942(5)
O13_3 O 0.06895(15) 0.27203(15) 0.5939(4)
C7_3 C 0.0978(2) 0.2362(2) 0.7866(5)
C8_3 C 0.1489(2) 0.2861(2) 0.9953(5)
C9_3 C 0.1637(2) 0.3720(2) 0.9793(6)
H9_3 H 0.1391 0.4024 0.8418
O4_3 O 0.56895(15) 0.22797(15) 0.0939(4)
N1_3 N 0.68121(15) 0.25852(16) 0.6964(4)
C1_3 C 0.5978(2) 0.2638(2) 0.2866(5)
C2_3 C 0.6489(2) 0.2139(2) 0.4953(5)
C3_3 C 0.6637(2) 0.1280(2) 0.4793(6)
H3_3 H 0.6391 0.0976 0.3418
C4_3 C 0.7156(2) 0.0892(2) 0.6726(6)
H4_3 H 0.7261 0.0313 0.6660
C5_3 C 0.7536(2) 0.1346(2) 0.8803(6)
C6_3 C 0.73341(19) 0.22252(19) 0.8942(5)
Cu4_3 Cu 0.63453(2) 0.37440(2) 0.64849(6)
O14_3 O 0.69315(14) 0.40935(14) 0.9530(4)
O2_3 O 1.0000 0.84358(19) 0.7500
H8_3 H 0.9799 0.8100 0.6404
O2_4 O 0.5000 0.34358(19) 0.7500
H2_2 H 0.5201 0.3100 0.8596
H8_4 H 0.4799 0.3100 0.6404
Cu2_3 Cu -0.0000 0.99122(3) 0.2500
H1_2 H 0.1168 0.9783 0.0725
O8_2 O 0.07976(13) 0.98725(13) 0.5668(3)
O11_2 O 0.09019(14) 0.84311(14) 0.3229(4)
O4_4 O 0.06895(15) 0.72797(15) 0.0939(4)
N1_4 N 0.18121(15) 0.75852(16) 0.6964(4)
C1_4 C 0.0978(2) 0.7638(2) 0.2866(5)
C2_4 C 0.1489(2) 0.7139(2) 0.4953(5)
C3_4 C 0.1637(2) 0.6280(2) 0.4793(6)
H3_4 H 0.1391 0.5976 0.3418
C4_4 C 0.2156(2) 0.5892(2) 0.6726(6)
H4_4 H 0.2261 0.5313 0.6660
C5_4 C 0.2536(2) 0.6346(2) 0.8803(6)
C6_4 C 0.23341(19) 0.72252(19) 0.8942(5)
Cu4_4 Cu 0.13453(2) 0.87440(2) 0.64849(6)
O14_4 O 0.19315(14) 0.90935(14) 0.9530(4)
O2_5 O 0.0000 0.84358(19) 0.7500
H2_3 H 0.0201 0.8100 0.8596
O2_6 O 1.0000 0.15642(19) 0.2500
H2_4 H 0.9799 0.1900 0.1404
Cu3 Cu 0.86547(2) 0.12560(2) 0.35151(6)
Cu8_2 Cu 1.0000 0.00878(3) 0.7500
O6_2 O 0.92024(13) 0.01275(13) 0.4332(3)
O12 O 0.90981(14) 0.15689(14) 0.6771(4)
O16 O 0.80685(14) 0.09065(14) 0.0470(4)
N4 N 0.81879(15) 0.24148(16) 0.3036(4)
H6_2 H 0.8832 0.0217 0.9275
O13_4 O 0.93105(15) 0.27203(15) 0.9061(4)
C7_4 C 0.9022(2) 0.2362(2) 0.7134(5)
C8_4 C 0.8511(2) 0.2861(2) 0.5047(5)
C9_4 C 0.8363(2) 0.3720(2) 0.5207(6)
H9_4 H 0.8609 0.4024 0.6582
C10_4 C 0.7844(2) 0.4108(2) 0.3274(6)
H10_4 H 0.7739 0.4687 0.3340
C11_4 C 0.7464(2) 0.3654(2) 0.1197(6)
C12_4 C 0.76659(19) 0.27748(19) 0.1058(5)
loop_
_geom_bond_atom_site_label_1
_geom_bond_atom_site_label_2
_geom_bond_site_symmetry_1
_geom_bond_site_symmetry_2
Cu1 O1 1_555 1_555
O2 Cu1 1_555 1_555
H8 O2 1_555 1_555
O15 Cu1 1_555 1_555
N3 Cu1 1_555 1_555
Cu8 O10 1_555 1_555
O3 Cu2 1_555 1_555
O4 C1 1_555 1_555
C1 O3 1_555 1_555
C2 C1 1_555 1_555
C3 C2 1_555 1_555
H3 C3 1_555 1_555
O5 C5 1_555 1_555
H4 C4 1_555 1_555
C5 C4 1_555 1_555
C6 N1 1_555 1_555
Cu5 O5 1_555 1_555
O14 Cu4 1_555 1_555
N2 Cu5 1_555 1_555
H10 C10 1_555 1_555
C11 O14 1_555 1_555
C12 C6 1_555 1_555
N1 Cu4 1_555 1_555
C5 C6 1_555 1_555
Cu4 O7 1_555 1_555
N2 C12 1_555 1_555
C10 C11 1_555 1_555
C11 C12 1_555 1_555
Cu7 O9 1_555 1_555
O13 C7 1_555 1_555
C7 O9 1_555 1_555
C9 C8 1_555 1_555
H9 C9 1_555 1_555
C7 C8 1_555 1_555
Cu5_2 O5_2 1_555 1_555
Cu7 O9_2 1_555 1_555
O9_2 Cu5_2 1_555 1_555
O13_2 C7_2 1_555 1_555
N2_2 Cu5_2 1_555 1_555
C7_2 O9_2 1_555 1_555
C8_2 N2_2 1_555 1_555
C9_2 C8_2 1_555 1_555
H9_2 C9_2 1_555 1_555
C10_2 C9_2 1_555 1_555
H10_2 C10_2 1_555 1_555
N2_2 C12_2 1_555 1_555
C7_2 C8_2 1_555 1_555
C10_2 C11_2 1_555 1_555
C11_2 C12_2 1_555 1_555
Cu5 O1_2 1_555 1_555
Cu2_2 O1_2 1_555 1_555
O1_2 H1 1_555 1_555
O2_2 Cu5 1_555 1_555
H2 O2_2 1_555 1_555
O3_2 Cu2_2 1_555 1_555
O4_2 C1_2 1_555 1_555
C1_2 O3_2 1_555 1_555
C2_2 C1_2 1_555 1_555
C3_2 C2_2 1_555 1_555
H3_2 C3_2 1_555 1_555
Cu5_2 O2_2 1_555 1_555
Cu7 O6 1_555 1_555
O6 Cu2_2 1_555 1_555
O8 Cu2_2 1_555 1_555
H5_2 O6 1_555 1_555
H7_2 O8 1_555 1_555
H8_2 O2_2 1_555 1_555
O11 Cu2_2 1_555 1_555
Cu2_2 O2_2 1_555 1_555
Cu5_2 O6 1_555 1_555
Cu7 O8 1_555 1_555
O15 C5_2 1_555 1_555
H4_2 C4_2 1_555 1_555
C5_2 C4_2 1_555 1_555
C6_2 N1_2 1_555 1_555
H6 O7_2 1_555 1_555
O14_2 Cu4_2 1_555 1_555
H10_3 C10_3 1_555 1_555
C11_3 O14_2 1_555 1_555
C12_3 C6_2 1_555 1_555
N1_2 Cu4_2 1_555 1_555
C5_2 C6_2 1_555 1_555
Cu4_2 O7_2 1_555 1_555
Cu7 O7_2 1_555 1_555
N3 C12_3 1_555 1_555
C10_3 C11_3 1_555 1_555
C11_3 C12_3 1_555 1_555
O13_3 C7_3 1_555 1_555
C7_3 O10 1_555 1_555
C9_3 C8_3 1_555 1_555
H9_3 C9_3 1_555 1_555
C7_3 C8_3 1_555 1_555
O4_3 C1_3 1_555 1_555
N1_3 C2_3 1_555 1_555
C1_3 O11 1_555 1_555
C2_3 C1_3 1_555 1_555
C3_3 C2_3 1_555 1_555
H3_3 C3_3 1_555 1_555
C4_3 C3_3 1_555 1_555
H4_3 C4_3 1_555 1_555
C5_3 C4_3 1_555 1_555
C6_3 N1_3 1_555 1_555
Cu4_3 O11 1_555 1_555
O14_3 Cu4_3 1_555 1_555
N1_3 Cu4_3 1_555 1_555
C5_3 C6_3 1_555 1_555
Cu4_3 O8 1_555 1_555
O2_3 Cu4 1_555 1_555
H8_3 O2_3 1_555 1_555
O2_4 Cu4_2 1_555 1_555
H2_2 O2_4 1_555 1_555
Cu4_3 O2_4 1_555 1_555
H8_4 O2_4 1_555 1_555
Cu7 O2_4 1_555 1_555
O8_2 Cu2_3 1_555 1_555
O11_2 Cu2_3 1_555 1_555
O4_4 C1_4 1_555 1_555
N1_4 C2_4 1_555 1_555
C1_4 O11_2 1_555 1_555
C2_4 C1_4 1_555 1_555
C3_4 C2_4 1_555 1_555
H3_4 C3_4 1_555 1_555
C4_4 C3_4 1_555 1_555
H4_4 C4_4 1_555 1_555
C5_4 C4_4 1_555 1_555
C6_4 N1_4 1_555 1_555
Cu4_4 O11_2 1_555 1_555
O14_4 Cu4_4 1_555 1_555
N1_4 Cu4_4 1_555 1_555
C5_4 C6_4 1_555 1_555
Cu4_4 O8_2 1_555 1_555
H2_3 O2_5 1_555 1_555
Cu4_4 O2_5 1_555 1_555
H2_4 O2_6 1_555 1_555
Cu3 O2_6 1_555 1_555
Cu8_2 O6_2 1_555 1_555
O12 Cu3 1_555 1_555
O16 Cu3 1_555 1_555
N4 Cu3 1_555 1_555
Cu3 O6_2 1_555 1_555
Cu8_2 O12 1_555 1_555
O13_4 C7_4 1_555 1_555
C7_4 O12 1_555 1_555
C8_4 N4 1_555 1_555
C9_4 C8_4 1_555 1_555
H9_4 C9_4 1_555 1_555
C10_4 C9_4 1_555 1_555
H10_4 C10_4 1_555 1_555
N4 C12_4 1_555 1_555
C7_4 C8_4 1_555 1_555
C10_4 C11_4 1_555 1_555
C11_4 C12_4 1_555 1_555

#END
