
###############################################################################
#
# This file contains modified crystal structure data generated from the
# MOF subset of the Cambridge Structural Database (CSD) v543 
# hosted by the Cambridge Crystallographic Data Centre (CCDC).
#
# This work is licensed under the Creative Commons
# Attribution-NonCommercial-ShareAlike 4.0 International License.
# To view a copy of this license, visit
# http://creativecommons.org/licenses/by-nc-sa/4.0/
# or send a letter to
# Creative Commons, PO Box 1866, Mountain View, CA 94042, USA.
#
# CIF created using the CSD Python API on 29 September 2022
# The structure has been converted into the P1 space group
# The structure has a 3D framework
# The original CSD entry QUQPIC is in the monoclinic crystal system
# The framework has been calculated to contain at least 10.0% void space
# The void calculation uses a probe of radius 1.32A, grid spacing 0.4
# The framework is charged, counterions have been retained in the structure
#
###############################################################################

data_QUQPIC
_chemical_formula_moiety         '(C48 H28 Cd6 N11 8+)n'
_symmetry_cell_setting           triclinic
_symmetry_space_group_name_H-M   'P 1'
_symmetry_Int_Tables_number      1
_space_group_name_Hall           'P 1'
loop_
_symmetry_equiv_pos_site_id
_symmetry_equiv_pos_as_xyz
1 x,y,z
_cell_length_a                   14.0082(7)
_cell_length_b                   12.4871(4)
_cell_length_c                   12.3464(6)
_cell_angle_alpha                90
_cell_angle_beta                 113.763(6)
_cell_angle_gamma                90
_cell_volume                     1976.56
loop_
_atom_site_label
_atom_site_type_symbol
_atom_site_fract_x
_atom_site_fract_y
_atom_site_fract_z
Cd3 Cd 0.0000 -0.0000 0.0000
Cd3_2 Cd 0.0000 -0.0000 1.0000
Cd3_3 Cd -0.0000 1.0000 0.0000
Cd3_4 Cd 0.0000 1.0000 1.0000
N1 N 0.1693(4) 0.0042(5) 0.0113(5)
N2 N 0.0481(5) 0.1135(4) 0.1622(5)
C3 C 0.0264(5) 0.1398(5) 0.2405(6)
C6 C 0.3745(6) 0.0025(7) 0.0288(7)
C9 C 0.0022(5) 0.1650(5) 0.3369(6)
C11 C 0.0016(5) 0.0802(4) 0.4212(6)
Cd2 Cd 0.0000 0.5000 0.5000
Cd3_5 Cd 1.0000 -0.0000 0.0000
C8 C 0.1921(6) 0.0200(6) 0.9183(7)
H6 H 0.1377 0.0318 0.8450
C10 C 0.2931(6) 0.0199(7) 0.9253(8)
H7 H 0.3049 0.0321 0.8574
H8 H 0.469(7) 0.003(7) 0.877(8)
Cd3_6 Cd 1.0000 -0.0000 1.0000
C17 C 0.6482(7) 0.0127(9) 0.8724(8)
H11 H 0.5949 0.0237 0.7982
C19 C 0.7520(6) 0.0114(8) 0.8867(7)
H12 H 0.7663 0.0221 0.8202
C24 C 0.5153(7) 0.0023(8) 0.9572(8)
H1 H 0.531(7) 0.997(7) 0.123(8)
C1 C 0.0235(5) 0.9744(5) 0.4048(6)
H2 H 0.0390 0.9563 0.3406
C5 C 0.3518(7) 0.9873(9) 0.1276(8)
H4 H 0.4051 0.9763 0.2018
C7 C 0.2480(6) 0.9886(8) 0.1133(7)
H5 H 0.2337 0.9779 0.1798
C12 C 0.4847(7) 0.9977(8) 0.0428(8)
Cd3_7 Cd 1.0000 1.0000 0.0000
C14 C 0.0225(5) 0.7295(4) 0.6480(6)
C16 C 0.0225(5) 0.8960(5) 0.4829(6)
H10 H 0.0383 0.8258 0.4712
N8 N 0.0451(4) 0.6438(4) 0.6322(5)
N9 N 0.0451(4) 0.8562(4) 0.1322(5)
C20 C 0.8079(6) 0.9800(6) 0.0817(7)
H13 H 0.8623 0.9682 0.1550
C22 C 0.7069(6) 0.9801(7) 0.0747(8)
H14 H 0.6951 0.9679 0.1426
Cd3_8 Cd 1.0000 1.0000 1.0000
N4 N 0.8307(4) 0.9958(5) 0.9887(5)
C18 C 0.6255(6) 0.9975(7) 0.9712(7)
C2 C 0.9775(5) 0.2705(4) 0.3520(6)
C4 C 0.9775(5) 0.1040(5) 0.5171(6)
H3 H 0.9617 0.1742 0.5288
N3 N 0.9549(4) 0.3562(4) 0.3678(5)
Cd2_2 Cd 1.0000 0.5000 0.5000
C13 C 0.9765(5) 0.0256(5) 0.5952(6)
H9 H 0.9610 0.0437 0.6594
N10 N 0.9549(4) 0.1438(4) 0.8678(5)
N6 N 0.9519(5) 0.8865(4) 0.8378(5)
C15 C 0.9736(5) 0.8602(5) 0.7595(6)
C21 C 0.9978(5) 0.8350(5) 0.6631(6)
C23 C 0.9984(5) 0.9198(4) 0.5788(6)
C2_2 C 0.0225(5) 0.7705(4) 0.1480(6)
N5 N 0.1693(4) 0.4958(5) 0.5113(5)
N7 N 0.0481(5) 0.3865(4) 0.6622(5)
C4_2 C 0.0225(5) 0.6040(5) 0.9829(6)
H3_2 H 0.0383 0.6742 0.9712
C13_2 C 0.0235(5) 0.5256(5) 0.9048(6)
H9_2 H 0.0390 0.5437 0.8406
C15_2 C 0.0264(5) 0.3602(5) 0.7405(6)
C21_2 C 0.0022(5) 0.3350(5) 0.8369(6)
C23_2 C 0.0016(5) 0.4198(4) 0.9212(6)
H1_2 H 0.469(7) 0.497(7) 0.377(8)
N1_2 N 0.8307(4) 0.5042(5) 0.4887(5)
N2_2 N 0.9519(5) 0.6135(4) 0.3378(5)
C1_2 C 0.9765(5) 0.4744(5) 0.0952(6)
H2_2 H 0.9610 0.4563 0.1594
C3_2 C 0.9736(5) 0.6398(5) 0.2595(6)
C5_2 C 0.6482(7) 0.4873(9) 0.3724(8)
H4_2 H 0.5949 0.4763 0.2982
C6_2 C 0.6255(6) 0.5025(7) 0.4712(7)
C7_2 C 0.7520(6) 0.4886(8) 0.3867(7)
H5_2 H 0.7663 0.4779 0.3202
C8_2 C 0.8079(6) 0.5200(6) 0.5817(7)
H6_2 H 0.8623 0.5318 0.6550
C9_2 C 0.9978(5) 0.6650(5) 0.1631(6)
C10_2 C 0.7069(6) 0.5199(7) 0.5747(8)
H7_2 H 0.6951 0.5321 0.6426
C11_2 C 0.9984(5) 0.5802(4) 0.0788(6)
C12_2 C 0.5153(7) 0.4977(8) 0.4572(8)
H8_2 H 0.531(7) 0.503(7) 0.623(8)
C16_2 C 0.9775(5) 0.3960(5) 0.0171(6)
H10_2 H 0.9617 0.3258 0.0288
C17_2 C 0.3518(7) 0.5127(9) 0.6276(8)
H11_2 H 0.4051 0.5237 0.7018
C18_2 C 0.3745(6) 0.4975(7) 0.5288(7)
C19_2 C 0.2480(6) 0.5114(8) 0.6133(7)
H12_2 H 0.2337 0.5221 0.6798
C20_2 C 0.1921(6) 0.4800(6) 0.4183(7)
H13_2 H 0.1377 0.4682 0.3450
C22_2 C 0.2931(6) 0.4801(7) 0.4253(8)
H14_2 H 0.3049 0.4679 0.3574
C24_2 C 0.4847(7) 0.5023(8) 0.5428(8)
C14_2 C 0.9775(5) 0.2295(4) 0.8520(6)
loop_
_geom_bond_atom_site_label_1
_geom_bond_atom_site_label_2
_geom_bond_site_symmetry_1
_geom_bond_site_symmetry_2
Cd3 N1 1_555 1_555
N2 Cd3 1_555 1_555
C3 N2 1_555 1_555
C3 C9 1_555 1_555
C9 C11 1_555 1_555
H6 C8 1_555 1_555
H7 C10 1_555 1_555
H8 C24 1_555 1_555
C17 H11 1_555 1_555
C19 C17 1_555 1_555
H12 C19 1_555 1_555
C8 C10 1_555 1_555
H1 C12 1_555 1_555
C1 H2 1_555 1_555
C5 H4 1_555 1_555
C7 C5 1_555 1_555
H5 C7 1_555 1_555
Cd2 N8 1_555 1_555
C14 N8 1_555 1_555
C16 C1 1_555 1_555
H10 C16 1_555 1_555
N9 Cd3_3 1_555 1_555
H13 C20 1_555 1_555
H14 C22 1_555 1_555
C20 C22 1_555 1_555
Cd3_8 N4 1_555 1_555
C2 N3 1_555 1_555
C4 H3 1_555 1_555
N3 Cd2_2 1_555 1_555
C13 C4 1_555 1_555
H9 C13 1_555 1_555
N10 Cd3_6 1_555 1_555
Cd3_8 N6 1_555 1_555
N6 C15 1_555 1_555
C15 C21 1_555 1_555
C21 C23 1_555 1_555
C2_2 N9 1_555 1_555
N5 Cd2 1_555 1_555
N7 Cd2 1_555 1_555
C4_2 H3_2 1_555 1_555
N7 C15_2 1_555 1_555
C13_2 C4_2 1_555 1_555
H9_2 C13_2 1_555 1_555
C15_2 C21_2 1_555 1_555
C23_2 C13_2 1_555 1_555
C21_2 C23_2 1_555 1_555
H1_2 C12_2 1_555 1_555
Cd2_2 N1_2 1_555 1_555
N1_2 C7_2 1_555 1_555
N2_2 Cd2_2 1_555 1_555
C1_2 H2_2 1_555 1_555
C3_2 N2_2 1_555 1_555
C5_2 H4_2 1_555 1_555
C6_2 C5_2 1_555 1_555
C7_2 C5_2 1_555 1_555
H5_2 C7_2 1_555 1_555
C8_2 N1_2 1_555 1_555
H6_2 C8_2 1_555 1_555
C10_2 C6_2 1_555 1_555
H7_2 C10_2 1_555 1_555
C11_2 C1_2 1_555 1_555
C12_2 C6_2 1_555 1_555
H8_2 C24_2 1_555 1_555
N5 C19_2 1_555 1_555
C16_2 C1_2 1_555 1_555
H10_2 C16_2 1_555 1_555
C17_2 H11_2 1_555 1_555
C18_2 C17_2 1_555 1_555
C19_2 C17_2 1_555 1_555
H12_2 C19_2 1_555 1_555
C20_2 N5 1_555 1_555
H13_2 C20_2 1_555 1_555
C22_2 C18_2 1_555 1_555
H14_2 C22_2 1_555 1_555
C24_2 C12_2 1_555 1_555
C3_2 C9_2 1_555 1_555
C8_2 C10_2 1_555 1_555
C9_2 C11_2 1_555 1_555
C18_2 C24_2 1_555 1_555
C20_2 C22_2 1_555 1_555
C14_2 N10 1_555 1_555

#END
