
###############################################################################
#
# This file contains modified crystal structure data generated from the
# MOF subset of the Cambridge Structural Database (CSD) v543 
# hosted by the Cambridge Crystallographic Data Centre (CCDC).
#
# This work is licensed under the Creative Commons
# Attribution-NonCommercial-ShareAlike 4.0 International License.
# To view a copy of this license, visit
# http://creativecommons.org/licenses/by-nc-sa/4.0/
# or send a letter to
# Creative Commons, PO Box 1866, Mountain View, CA 94042, USA.
#
# CIF created using the CSD Python API on 29 September 2022
# The structure has been converted into the P1 space group
# The structure has a 3D framework
# The original CSD entry QUQSAY is in the triclinic crystal system
# The framework has been calculated to contain at least 10.0% void space
# The void calculation uses a probe of radius 1.32A, grid spacing 0.4
#
###############################################################################

data_QUQSAY
_chemical_formula_moiety         '(C56 H34 Co4 N6 O14)n'
_symmetry_cell_setting           triclinic
_symmetry_space_group_name_H-M   'P 1'
_symmetry_Int_Tables_number      1
_space_group_name_Hall           'P 1'
loop_
_symmetry_equiv_pos_site_id
_symmetry_equiv_pos_as_xyz
1 x,y,z
_cell_length_a                   9.6496(15)
_cell_length_b                   13.681(2)
_cell_length_c                   15.425(2)
_cell_angle_alpha                90.037(7)
_cell_angle_beta                 75.488(7)
_cell_angle_gamma                77.576(7)
_cell_volume                     1922.01
loop_
_atom_site_label
_atom_site_type_symbol
_atom_site_fract_x
_atom_site_fract_y
_atom_site_fract_z
_atom_site_U_iso_or_equiv
_atom_site_thermal_displace_type
C38 C 0.0629(7) 0.5271(5) 0.6835(3) 0.0416 Uani
O9 O 0.0142(4) 0.5354(3) 0.8633(2) 0.0432 Uani
O10 O 0.1632(4) 0.4507(3) 0.6661(3) 0.0474 Uani
O11 O 0.0855(4) 0.6144(3) 0.6733(2) 0.0463 Uani
Co10 Co 0.18518(8) 0.50553(5) 0.91663(4) 0.0344 Uani
Co14 Co 0.31468(8) 0.55703(6) 0.61850(5) 0.0397 Uani
C1 C 0.7498(10) 0.2021(6) 0.0083(5) 0.0889 Uani
C3 C 0.5595(9) 0.0098(5) 0.4718(5) 0.0801 Uani
C4 C 0.3639(6) 0.5277(4) 0.4211(3) 0.0399 Uani
C6 C 0.5780(8) 0.1121(5) 0.4480(5) 0.0689 Uani
C7 C 0.7307(8) 0.2209(5) 0.3756(5) 0.0667 Uani
H4 H 0.8204 0.2287 0.3399 0.0800 Uiso
C8 C 0.8727(7) 0.2747(5) 0.1239(4) 0.0531 Uani
H5 H 0.914 0.2995 0.1651 0.0630 Uiso
C9 C 0.7129(8) 0.1242(5) 0.3928(5) 0.0730 Uani
H6 H 0.788 0.0689 0.3685 0.0880 Uiso
C10 C 0.4969(7) 0.2894(5) 0.4576(4) 0.0605 Uani
H7 H 0.4218 0.3456 0.479 0.0730 Uiso
C13 C 0.7589(8) 0.3001(5) 0.0138(4) 0.0726 Uani
C14 C 0.8056(9) 0.1364(5) 0.0617(5) 0.0732 Uani
C15 C 0.8717(9) 0.1736(5) 0.1229(5) 0.0766 Uani
H11 H 0.9133 0.1315 0.1613 0.0920 Uiso
C16 C 0.4700(8) 0.1973(5) 0.4785(5) 0.0664 Uani
H12 H 0.3785 0.1919 0.5135 0.0790 Uiso
C20 C 0.7942(10) 0.0300(6) 0.0560(6) 0.0863 Uani
H15 H 0.7544 0.0116 0.0111 0.1040 Uiso
C21 C 0.1136(6) 0.4792(4) 0.1203(4) 0.0360 Uani
C22 C 0.5606(6) 0.4890(4) 0.2168(4) 0.0375 Uani
C23 C 0.3954(6) 0.4948(4) 0.2504(3) 0.0346 Uani
C24 C 0.3099(6) 0.5043(4) 0.3406(3) 0.0346 Uani
C25 C 0.1645(6) 0.4959(4) 0.3563(3) 0.0434 Uani
H16 H 0.109 0.4991 0.4154 0.0520 Uiso
C26 C 0.0981(6) 0.4831(4) 0.2881(3) 0.0373 Uani
C27 C 0.1791(6) 0.4809(4) 0.1987(3) 0.0338 Uani
C28 C 0.3275(6) 0.4862(4) 0.1819(3) 0.0386 Uani
H17 H 0.3823 0.4838 0.1227 0.0460 Uiso
Co1 Co 0.81482(8) 0.49447(5) 0.08337(4) 0.0344 Uani
Co2 Co 0.68532(8) 0.44297(6) 0.38150(5) 0.0397 Uani
N2 N 0.8189(6) 0.3374(3) 0.0703(3) 0.0448 Uani
N3 N 0.6270(6) 0.3033(4) 0.4071(3) 0.0507 Uani
O4 O 0.1911(4) 0.4948(3) 0.0449(2) 0.0446 Uani
O5 O 0.4889(4) 0.5435(3) 0.4097(2) 0.0444 Uani
O6 O 0.2707(4) 0.5349(3) 0.4962(2) 0.0487 Uani
O7 O 0.5998(4) 0.5316(3) 0.1456(3) 0.0496 Uani
O8 O 0.6524(4) 0.4400(3) 0.2532(3) 0.0542 Uani
H18 H 0.3643 0.0441 0.5543 0.0960 Uiso
C36 C 0.2460(9) 0.2835(5) 0.9590(5) 0.0710 Uani
H24 H 0.2915 0.3079 0.9982 0.0860 Uiso
C40 C 0.1223(8) 0.3070(4) 0.8521(5) 0.0651 Uani
H26 H 0.0789 0.3492 0.8144 0.0780 Uiso
C41 C 0.1197(10) 0.2076(6) 0.8473(6) 0.0870 Uani
H27 H 0.0776 0.1843 0.8057 0.1050 Uiso
C45 C 0.2468(10) 0.1809(5) 0.9567(5) 0.0859 Uani
H30 H 0.2945 0.1385 0.9925 0.1030 Uiso
C46 C 0.1765(9) 0.1432(6) 0.9013(5) 0.0726 Uani
C47 C 0.1668(10) 0.0383(6) 0.8937(6) 0.0835 Uani
H31 H 0.1287 0.0201 0.8479 0.1010 Uiso
N5 N 0.1838(6) 0.3471(3) 0.9082(3) 0.0456 Uani
N7 N 0.8162(6) 0.6529(3) 0.0918(3) 0.0456 Uani
O17 O 0.9858(4) 0.4646(3) 0.1367(2) 0.0432 Uani
O19 O 0.8368(4) 0.5493(3) 0.3339(3) 0.0474 Uani
O21 O 0.9145(4) 0.3856(3) 0.3267(2) 0.0463 Uani
O26 O 0.7293(4) 0.4651(3) 0.5038(2) 0.0487 Uani
H1 H 0.7047 0.181 0.9673 0.1060 Uiso
H10 H 0.72 0.3433 0.9751 0.0870 Uiso
O24 O 0.8089(4) 0.5052(3) 0.9551(2) 0.0446 Uani
H23 H 0.2953 0.819 0.0327 0.1060 Uiso
H28 H 0.28 0.6567 0.0249 0.0870 Uiso
C2 C 0.7540(9) 0.7165(5) 0.0410(5) 0.0710 Uani
H2 H 0.7085 0.6921 0.0018 0.0860 Uiso
H3 H 0.6357 0.9559 0.4457 0.0960 Uiso
C11 C 0.8777(8) 0.6930(4) 0.1479(5) 0.0651 Uani
H8 H 0.9211 0.6508 0.1856 0.0780 Uiso
C12 C 0.8803(10) 0.7924(6) 0.1527(6) 0.0870 Uani
H9 H 0.9224 0.8157 0.1943 0.1050 Uiso
C17 C 0.7532(10) 0.8191(5) 0.0433(5) 0.0859 Uani
H13 H 0.7055 0.8615 0.0075 0.1030 Uiso
C18 C 0.8235(9) 0.8568(6) 0.0987(5) 0.0726 Uani
C19 C 0.8332(10) 0.9617(6) 0.1063(6) 0.0835 Uani
H14 H 0.8713 0.9799 0.1521 0.1010 Uiso
C29 C 0.4405(9) 0.9902(5) 0.5282(5) 0.0801 Uani
C30 C 0.4220(8) 0.8879(5) 0.5520(5) 0.0689 Uani
C31 C 0.2693(8) 0.7791(5) 0.6244(5) 0.0667 Uani
H19 H 0.1796 0.7713 0.6601 0.0800 Uiso
C32 C 0.2871(8) 0.8758(5) 0.6072(5) 0.0730 Uani
H20 H 0.212 0.9311 0.6315 0.0880 Uiso
C33 C 0.5031(7) 0.7106(5) 0.5424(4) 0.0605 Uani
H21 H 0.5782 0.6544 0.521 0.0730 Uiso
C34 C 0.5300(8) 0.8027(5) 0.5215(5) 0.0664 Uani
H22 H 0.6215 0.8081 0.4865 0.0790 Uiso
N4 N 0.3730(6) 0.6967(4) 0.5929(3) 0.0507 Uani
C35 C 0.2502(10) 0.7979(6) 0.9917(5) 0.0889 Uani
C37 C 0.6361(6) 0.4723(4) 0.5789(3) 0.0399 Uani
C39 C 0.1273(7) 0.7253(5) 0.8761(4) 0.0531 Uani
H25 H 0.086 0.7005 0.8349 0.0630 Uiso
C42 C 0.2411(8) 0.6999(5) 0.9862(4) 0.0726 Uani
C43 C 0.1944(9) 0.8636(5) 0.9383(5) 0.0732 Uani
C44 C 0.1283(9) 0.8264(5) 0.8771(5) 0.0766 Uani
H29 H 0.0867 0.8685 0.8387 0.0920 Uiso
C48 C 0.2058(10) 0.9700(6) 0.9440(6) 0.0863 Uani
H32 H 0.2456 0.9884 0.9889 0.1040 Uiso
C49 C 0.8864(6) 0.5208(4) 0.8797(4) 0.0360 Uani
C50 C 0.4394(6) 0.5110(4) 0.7832(4) 0.0375 Uani
C51 C 0.6046(6) 0.5052(4) 0.7496(3) 0.0346 Uani
C52 C 0.6901(6) 0.4957(4) 0.6594(3) 0.0346 Uani
C53 C 0.8355(6) 0.5041(4) 0.6437(3) 0.0434 Uani
H33 H 0.891 0.5009 0.5846 0.0520 Uiso
C54 C 0.9019(6) 0.5169(4) 0.7119(3) 0.0373 Uani
C55 C 0.8209(6) 0.5191(4) 0.8013(3) 0.0338 Uani
C56 C 0.6725(6) 0.5138(4) 0.8181(3) 0.0386 Uani
H34 H 0.6177 0.5162 0.8773 0.0460 Uiso
N6 N 0.1811(6) 0.6626(3) 0.9297(3) 0.0448 Uani
O13 O 0.5111(4) 0.4565(3) 0.5903(2) 0.0444 Uani
O15 O 0.4002(4) 0.4684(3) 0.8544(3) 0.0496 Uani
O16 O 0.3476(4) 0.5600(3) 0.7468(3) 0.0542 Uani
C5 C 0.9371(7) 0.4729(5) 0.3165(3) 0.0416 Uani
loop_
_atom_site_aniso_label
_atom_site_aniso_U_11
_atom_site_aniso_U_22
_atom_site_aniso_U_33
_atom_site_aniso_U_23
_atom_site_aniso_U_13
_atom_site_aniso_U_12
C38 0.043 0.065 0.028 0.01 -0.02 -0.023
O9 0.038 0.061 0.041 0.0002 -0.0155 -0.027
O10 0.033 0.056 0.053 -0.003 -0.009 -0.012
O11 0.047 0.053 0.043 0.0015 -0.0097 -0.022
Co10 0.0329 0.0437 0.033 0.0006 -0.0123 -0.0175
Co14 0.0348 0.0556 0.0355 0.0001 -0.0122 -0.0209
C1 0.15 0.064 0.081 0.002 -0.052 -0.058
C3 0.088 0.052 0.103 0.012 -0.013 -0.035
C4 0.045 0.051 0.031 0.001 -0.01 -0.026
C6 0.072 0.063 0.076 0 -0.009 -0.036
C7 0.066 0.056 0.075 0 0.003 -0.032
C8 0.059 0.051 0.057 0.005 -0.029 -0.012
C9 0.069 0.051 0.091 0.007 -0.001 -0.019
C10 0.057 0.064 0.063 0 -0.011 -0.024
C13 0.118 0.059 0.07 0.015 -0.048 -0.054
C14 0.097 0.048 0.075 -0.007 -0.006 -0.036
C15 0.1 0.048 0.08 -0.002 -0.01 -0.028
C16 0.062 0.06 0.08 0 -0.01 -0.029
C20 0.114 0.069 0.083 -0.001 -0.02 -0.042
C21 0.042 0.032 0.039 -0.002 -0.011 -0.018
C22 0.034 0.048 0.037 -0.003 -0.016 -0.015
C23 0.032 0.041 0.038 0.001 -0.016 -0.015
C24 0.036 0.046 0.028 0.001 -0.011 -0.019
C25 0.039 0.072 0.025 0.004 -0.008 -0.025
C26 0.032 0.053 0.033 0.004 -0.013 -0.017
C27 0.026 0.044 0.036 -0.002 -0.011 -0.014
C28 0.037 0.057 0.024 0.002 -0.007 -0.016
Co1 0.0329 0.0437 0.033 0.0006 -0.0123 -0.0175
Co2 0.0348 0.0556 0.0355 0.0001 -0.0122 -0.0209
N2 0.061 0.038 0.041 -0.003 -0.014 -0.022
N3 0.058 0.054 0.049 0.004 -0.014 -0.031
O4 0.049 0.066 0.029 0.0042 -0.0124 -0.032
O5 0.037 0.064 0.039 -0.0079 -0.0139 -0.021
O6 0.043 0.085 0.027 0 -0.0111 -0.031
O7 0.04 0.057 0.051 0.004 -0.004 -0.018
O8 0.035 0.088 0.041 -0.006 -0.019 -0.006
C36 0.101 0.055 0.069 0.009 -0.042 -0.019
C40 0.074 0.039 0.091 -0.004 -0.034 -0.016
C41 0.105 0.052 0.124 -0.004 -0.055 -0.03
C45 0.123 0.057 0.07 0.014 -0.025 -0.003
C46 0.084 0.057 0.087 0.006 -0.026 -0.033
C47 0.114 0.061 0.081 0.011 -0.025 -0.031
N5 0.055 0.036 0.048 -0.001 -0.009 -0.02
N7 0.055 0.036 0.048 -0.001 -0.009 -0.02
O17 0.038 0.061 0.041 0.0002 -0.0155 -0.027
O19 0.033 0.056 0.053 -0.003 -0.009 -0.012
O21 0.047 0.053 0.043 0.0015 -0.0097 -0.022
O26 0.043 0.085 0.027 0 -0.0111 -0.031
O24 0.049 0.066 0.029 0.0042 -0.0124 -0.032
C2 0.101 0.055 0.069 0.009 -0.042 -0.019
C11 0.074 0.039 0.091 -0.004 -0.034 -0.016
C12 0.105 0.052 0.124 -0.004 -0.055 -0.03
C17 0.123 0.057 0.07 0.014 -0.025 -0.003
C18 0.084 0.057 0.087 0.006 -0.026 -0.033
C19 0.114 0.061 0.081 0.011 -0.025 -0.031
C29 0.088 0.052 0.103 0.012 -0.013 -0.035
C30 0.072 0.063 0.076 0 -0.009 -0.036
C31 0.066 0.056 0.075 0 0.003 -0.032
C32 0.069 0.051 0.091 0.007 -0.001 -0.019
C33 0.057 0.064 0.063 0 -0.011 -0.024
C34 0.062 0.06 0.08 0 -0.01 -0.029
N4 0.058 0.054 0.049 0.004 -0.014 -0.031
C35 0.15 0.064 0.081 0.002 -0.052 -0.058
C37 0.045 0.051 0.031 0.001 -0.01 -0.026
C39 0.059 0.051 0.057 0.005 -0.029 -0.012
C42 0.118 0.059 0.07 0.015 -0.048 -0.054
C43 0.097 0.048 0.075 -0.007 -0.006 -0.036
C44 0.1 0.048 0.08 -0.002 -0.01 -0.028
C48 0.114 0.069 0.083 -0.001 -0.02 -0.042
C49 0.042 0.032 0.039 -0.002 -0.011 -0.018
C50 0.034 0.048 0.037 -0.003 -0.016 -0.015
C51 0.032 0.041 0.038 0.001 -0.016 -0.015
C52 0.036 0.046 0.028 0.001 -0.011 -0.019
C53 0.039 0.072 0.025 0.004 -0.008 -0.025
C54 0.032 0.053 0.033 0.004 -0.013 -0.017
C55 0.026 0.044 0.036 -0.002 -0.011 -0.014
C56 0.037 0.057 0.024 0.002 -0.007 -0.016
N6 0.061 0.038 0.041 -0.003 -0.014 -0.022
O13 0.037 0.064 0.039 -0.0079 -0.0139 -0.021
O15 0.04 0.057 0.051 0.004 -0.004 -0.018
O16 0.035 0.088 0.041 -0.006 -0.019 -0.006
C5 0.043 0.065 0.028 0.01 -0.02 -0.023
loop_
_geom_bond_atom_site_label_1
_geom_bond_atom_site_label_2
_geom_bond_site_symmetry_1
_geom_bond_site_symmetry_2
O10 C38 1_555 1_555
O11 C38 1_555 1_555
Co10 O9 1_555 1_555
Co14 O10 1_555 1_555
O11 Co14 1_555 1_555
C4 C24 1_555 1_555
C6 C3 1_555 1_555
C7 H4 1_555 1_555
C8 H5 1_555 1_555
C9 C6 1_555 1_555
H6 C9 1_555 1_555
C10 H7 1_555 1_555
C13 C1 1_555 1_555
C14 C1 1_555 1_555
C15 C8 1_555 1_555
H11 C15 1_555 1_555
C16 C6 1_555 1_555
H12 C16 1_555 1_555
C20 C14 1_555 1_555
H15 C20 1_555 1_555
C21 C27 1_555 1_555
C22 C23 1_555 1_555
C23 C24 1_555 1_555
C24 C25 1_555 1_555
C25 H16 1_555 1_555
C26 C25 1_555 1_555
C27 C26 1_555 1_555
C28 C23 1_555 1_555
H17 C28 1_555 1_555
Co1 N2 1_555 1_555
Co2 N3 1_555 1_555
N2 C8 1_555 1_555
N3 C7 1_555 1_555
O4 C21 1_555 1_555
O5 C4 1_555 1_555
O6 C4 1_555 1_555
O7 C22 1_555 1_555
O8 C22 1_555 1_555
C36 H24 1_555 1_555
C40 H26 1_555 1_555
C41 C40 1_555 1_555
H27 C41 1_555 1_555
C45 C36 1_555 1_555
H30 C45 1_555 1_555
C46 C41 1_555 1_555
C47 C46 1_555 1_555
H31 C47 1_555 1_555
N5 C36 1_555 1_555
Co10 N5 1_555 1_555
Co14 O6 1_555 1_555
N7 Co1 1_555 1_555
O17 Co1 1_555 1_555
O19 Co2 1_555 1_555
O21 Co2 1_555 1_555
O26 Co2 1_555 1_555
C7 C9 1_555 1_555
C10 C16 1_555 1_555
C10 N3 1_555 1_555
C13 N2 1_555 1_555
C14 C15 1_555 1_555
C27 C28 1_555 1_555
Co1 O7 1_555 1_555
Co2 O5 1_555 1_555
Co2 O8 1_555 1_555
C40 N5 1_555 1_555
C45 C46 1_555 1_555
C2 H2 1_555 1_555
C11 H8 1_555 1_555
C12 C11 1_555 1_555
H9 C12 1_555 1_555
C17 C2 1_555 1_555
H13 C17 1_555 1_555
C18 C12 1_555 1_555
C19 C18 1_555 1_555
H14 C19 1_555 1_555
N7 C2 1_555 1_555
C30 C29 1_555 1_555
C31 H19 1_555 1_555
C32 C30 1_555 1_555
H20 C32 1_555 1_555
C33 H21 1_555 1_555
C34 C30 1_555 1_555
H22 C34 1_555 1_555
N4 C31 1_555 1_555
C37 C52 1_555 1_555
C39 H25 1_555 1_555
C42 C35 1_555 1_555
C43 C35 1_555 1_555
C44 C39 1_555 1_555
H29 C44 1_555 1_555
C48 C43 1_555 1_555
H32 C48 1_555 1_555
C49 C55 1_555 1_555
C50 C51 1_555 1_555
C51 C52 1_555 1_555
C52 C53 1_555 1_555
C53 H33 1_555 1_555
C54 C53 1_555 1_555
C55 C54 1_555 1_555
C56 C51 1_555 1_555
H34 C56 1_555 1_555
Co10 N6 1_555 1_555
Co14 N4 1_555 1_555
N6 C39 1_555 1_555
O24 C49 1_555 1_555
O13 C37 1_555 1_555
O26 C37 1_555 1_555
O15 C50 1_555 1_555
O16 C50 1_555 1_555
C11 N7 1_555 1_555
C17 C18 1_555 1_555
C31 C32 1_555 1_555
C33 C34 1_555 1_555
C33 N4 1_555 1_555
C42 N6 1_555 1_555
C43 C44 1_555 1_555
C55 C56 1_555 1_555
Co10 O15 1_555 1_555
Co14 O13 1_555 1_555
Co14 O16 1_555 1_555
O19 C5 1_555 1_555
O21 C5 1_555 1_555

#END
