
###############################################################################
#
# This file contains modified crystal structure data generated from the
# MOF subset of the Cambridge Structural Database (CSD) v543 
# hosted by the Cambridge Crystallographic Data Centre (CCDC).
#
# This work is licensed under the Creative Commons
# Attribution-NonCommercial-ShareAlike 4.0 International License.
# To view a copy of this license, visit
# http://creativecommons.org/licenses/by-nc-sa/4.0/
# or send a letter to
# Creative Commons, PO Box 1866, Mountain View, CA 94042, USA.
#
# CIF created using the CSD Python API on 29 September 2022
# The structure has been converted into the P1 space group
# The structure has a 3D framework
# The original CSD entry QUQWOQ is in the monoclinic crystal system
# The framework has been calculated to contain at least 10.0% void space
# The void calculation uses a probe of radius 1.32A, grid spacing 0.4
# The framework is charged, counterions have been retained in the structure
# H atom positions have been added when not included in the experimental data
#
###############################################################################

data_QUQWOQ
_chemical_formula_moiety         '(C144 H120 N46 O48 Zn14 2-)n'
_symmetry_cell_setting           triclinic
_symmetry_space_group_name_H-M   'P 1'
_symmetry_Int_Tables_number      1
_space_group_name_Hall           'P 1'
loop_
_symmetry_equiv_pos_site_id
_symmetry_equiv_pos_as_xyz
1 x,y,z
_cell_length_a                   28.3006(15)
_cell_length_b                   20.085(3)
_cell_length_c                   15.4335(12)
_cell_angle_alpha                90
_cell_angle_beta                 92.498(5)
_cell_angle_gamma                90
_cell_volume                     8764.34
loop_
_atom_site_label
_atom_site_type_symbol
_atom_site_fract_x
_atom_site_fract_y
_atom_site_fract_z
C19 C 0.03743(15) 0.1096(4) 0.6209(3)
N7 N 0.02529(11) 0.0645(3) 0.5621(2)
N8 N 0.00117(11) 0.1473(3) 0.6475(2)
N10 N 0.08319(13) 0.1199(4) 0.6523(4)
H21 H 0.1058 0.0962 0.6335
H22 H 0.0891 0.1502 0.6908
Zn5 Zn 0.0000 0.20729(5) 0.7500
Zn9 Zn 0.064887(16) 0.99482(4) 0.51129(3)
Zn1 Zn 0.5000 0.29271(5) 0.2500
Zn2 Zn 0.064887(16) 0.00518(4) 0.01129(3)
C3 C 0.37618(16) 0.1882(4) 0.2845(3)
C4 C 0.36108(17) 0.1416(4) 0.3427(4)
H1 H 0.3829 0.1244 0.3836
C5 C 0.31533(19) 0.1196(4) 0.3429(4)
H2 H 0.3063 0.0889 0.3842
C6 C 0.28213(16) 0.1435(4) 0.2803(3)
C7 C 0.29709(19) 0.1892(5) 0.2232(4)
H3 H 0.2756 0.2055 0.1811
C8 C 0.34359(18) 0.2130(5) 0.2251(4)
H4 H 0.3523 0.2455 0.1860
C9 C 0.42629(19) 0.2124(4) 0.2887(4)
C10 C 0.23197(15) 0.1194(3) 0.2773(3)
C11 C 0.20961(17) 0.1049(4) 0.3531(3)
H5 H 0.2251 0.1133 0.4063
C12 C 0.16436(16) 0.0778(4) 0.3508(3)
C13 C 0.14033(15) 0.0697(3) 0.2694(3)
H6 H 0.1098 0.0524 0.2667
C14 C 0.16134(15) 0.0867(3) 0.1953(3)
C15 C 0.20712(17) 0.1142(4) 0.1995(3)
H7 H 0.2206 0.1290 0.1490
C16 C 0.13984(17) 0.0598(4) 0.4314(3)
C17 C 0.13449(17) 0.0767(4) 0.1089(3)
O1 O 0.43677(10) 0.2567(2) 0.2351(2)
O2 O 0.45543(14) 0.1887(4) 0.3404(3)
O3 O 0.15649(15) 0.0757(4) 0.5020(2)
O4 O 0.10193(11) 0.0286(3) 0.4199(2)
O5 O 0.14792(13) 0.1035(3) 0.0427(2)
O6 O 0.09906(11) 0.0395(3) 0.1122(2)
Zn3 Zn 0.935113(16) 0.00518(4) 0.48871(3)
C18 C 0.96393(15) 0.1201(3) 0.6005(3)
C20 C 0.62382(16) 0.1882(4) 0.2155(3)
C21 C 0.63892(17) 0.1416(4) 0.1573(4)
H12 H 0.6171 0.1244 0.1164
C22 C 0.68467(19) 0.1196(4) 0.1571(4)
H13 H 0.6937 0.0889 0.1158
C23 C 0.71787(16) 0.1435(4) 0.2197(3)
C24 C 0.70291(19) 0.1892(5) 0.2768(4)
H14 H 0.7244 0.2055 0.3189
C25 C 0.65641(18) 0.2130(5) 0.2749(4)
H15 H 0.6477 0.2455 0.3140
C26 C 0.57371(19) 0.2124(4) 0.2113(4)
C27 C 0.76803(15) 0.1194(3) 0.2227(3)
C28 C 0.79039(17) 0.1049(4) 0.1469(3)
H16 H 0.7749 0.1133 0.0937
C29 C 0.83564(16) 0.0778(4) 0.1492(3)
C30 C 0.85967(15) 0.0697(3) 0.2306(3)
H17 H 0.8902 0.0524 0.2333
C31 C 0.83866(15) 0.0867(3) 0.3047(3)
C32 C 0.79288(17) 0.1142(4) 0.3005(3)
H18 H 0.7794 0.1290 0.3510
C33 C 0.86016(17) 0.0598(4) 0.0686(3)
C34 C 0.86551(17) 0.0767(4) 0.3911(3)
O7 O 0.56323(10) 0.2567(2) 0.2649(2)
O8 O 0.54457(14) 0.1887(4) 0.1596(3)
O10 O 0.89807(11) 0.0286(3) 0.0801(2)
O11 O 0.85208(13) 0.1035(3) 0.4573(2)
O12 O 0.90094(11) 0.0395(3) 0.3878(2)
N6 N 0.97655(11) 0.0704(3) 0.5471(2)
N9 N 0.91932(13) 0.1416(4) 0.6059(3)
H19 H 0.8970 0.1237 0.5744
H20 H 0.9130 0.1734 0.6409
Zn5_2 Zn 1.0000 0.20729(5) 0.7500
N13 N 0.50117(11) 0.3527(3) 0.1475(2)
N14 N 0.49883(11) 0.3527(3) 0.3525(2)
C1 C 0.03607(15) 0.1201(3) 0.8995(3)
N1 N 0.02345(11) 0.0704(3) 0.9529(2)
N4 N 0.08068(13) 0.1416(4) 0.8941(3)
H8 H 0.1030 0.1237 0.9256
H9 H 0.0870 0.1734 0.8591
O9 O 0.84351(15) 0.0757(4) 0.9980(2)
O13 O 0.89807(11) 0.9714(3) 0.5801(2)
N11 N 0.02529(11) 0.9355(3) 0.0621(2)
N12 N 0.97471(11) 0.9355(3) 0.4379(2)
Zn7 Zn 0.935113(16) 0.99482(4) 0.98871(3)
O14 O 0.10193(11) 0.9714(3) 0.9199(2)
C2 C 0.96257(15) 0.1096(4) 0.8791(3)
N2 N 0.97471(11) 0.0645(3) 0.9379(2)
N3 N 0.99883(11) 0.1473(3) 0.8525(2)
N5 N 0.91681(13) 0.1199(4) 0.8477(4)
H10 H 0.8942 0.0962 0.8665
H11 H 0.9109 0.1502 0.8092
Zn1_2 Zn 0.0000 0.79271(5) 0.2500
Zn3_2 Zn 0.435113(16) 0.50518(4) 0.48871(3)
C18_2 C 0.46393(15) 0.6201(3) 0.6005(3)
C19_2 C 0.53743(15) 0.6096(4) 0.6209(3)
C20_2 C 0.12382(16) 0.6882(4) 0.2155(3)
C21_2 C 0.13892(17) 0.6416(4) 0.1573(4)
H12_2 H 0.1171 0.6244 0.1164
C22_2 C 0.18467(19) 0.6196(4) 0.1571(4)
H13_2 H 0.1937 0.5889 0.1158
C23_2 C 0.21787(16) 0.6435(4) 0.2197(3)
C24_2 C 0.20291(19) 0.6892(5) 0.2768(4)
H14_2 H 0.2244 0.7055 0.3189
C25_2 C 0.15641(18) 0.7130(5) 0.2749(4)
H15_2 H 0.1477 0.7455 0.3140
C26_2 C 0.07371(19) 0.7124(4) 0.2113(4)
C27_2 C 0.26803(15) 0.6194(3) 0.2227(3)
C28_2 C 0.29039(17) 0.6049(4) 0.1469(3)
H16_2 H 0.2749 0.6133 0.0937
C29_2 C 0.33564(16) 0.5778(4) 0.1492(3)
C30_2 C 0.35967(15) 0.5697(3) 0.2306(3)
H17_2 H 0.3902 0.5524 0.2333
C31_2 C 0.33866(15) 0.5867(3) 0.3047(3)
C32_2 C 0.29288(17) 0.6142(4) 0.3005(3)
H18_2 H 0.2794 0.6290 0.3510
C33_2 C 0.36016(17) 0.5598(4) 0.0686(3)
C34_2 C 0.36551(17) 0.5767(4) 0.3911(3)
O7_2 O 0.06323(10) 0.7567(2) 0.2649(2)
O8_2 O 0.04457(14) 0.6887(4) 0.1596(3)
O10_2 O 0.39807(11) 0.5286(3) 0.0801(2)
O11_2 O 0.35208(13) 0.6035(3) 0.4573(2)
O12_2 O 0.40094(11) 0.5395(3) 0.3878(2)
N6_2 N 0.47655(11) 0.5704(3) 0.5471(2)
N7_2 N 0.52529(11) 0.5645(3) 0.5621(2)
N8_2 N 0.50117(11) 0.6473(3) 0.6475(2)
N9_2 N 0.41932(13) 0.6416(4) 0.6059(3)
H19_2 H 0.3970 0.6237 0.5744
H20_2 H 0.4130 0.6734 0.6409
N10_2 N 0.58319(13) 0.6199(4) 0.6523(4)
H21_2 H 0.6058 0.5962 0.6335
H22_2 H 0.5891 0.6502 0.6908
Zn5_3 Zn 0.5000 0.70729(5) 0.7500
Zn9_2 Zn 0.564887(16) 0.49482(4) 0.51129(3)
O13_2 O 0.39807(11) 0.4714(3) 0.5801(2)
N12_2 N 0.47471(11) 0.4355(3) 0.4379(2)
N13_2 N 0.00117(11) 0.8527(3) 0.1475(2)
O9_2 O 0.34351(15) 0.5757(4) 0.9980(2)
Zn7_2 Zn 0.435113(16) 0.49482(4) 0.98871(3)
Zn1_3 Zn 1.0000 0.79271(5) 0.2500
Zn2_2 Zn 0.564887(16) 0.50518(4) 0.01129(3)
C3_2 C 0.87618(16) 0.6882(4) 0.2845(3)
C4_2 C 0.86108(17) 0.6416(4) 0.3427(4)
H1_2 H 0.8829 0.6244 0.3836
C5_2 C 0.81533(19) 0.6196(4) 0.3429(4)
H2_2 H 0.8063 0.5889 0.3842
C6_2 C 0.78213(16) 0.6435(4) 0.2803(3)
C7_2 C 0.79709(19) 0.6892(5) 0.2232(4)
H3_2 H 0.7756 0.7055 0.1811
C8_2 C 0.84359(18) 0.7130(5) 0.2251(4)
H4_2 H 0.8523 0.7455 0.1860
C9_2 C 0.92629(19) 0.7124(4) 0.2887(4)
C10_2 C 0.73197(15) 0.6194(3) 0.2773(3)
C11_2 C 0.70961(17) 0.6049(4) 0.3531(3)
H5_2 H 0.7251 0.6133 0.4063
C12_2 C 0.66436(16) 0.5778(4) 0.3508(3)
C13_2 C 0.64033(15) 0.5697(3) 0.2694(3)
H6_2 H 0.6098 0.5524 0.2667
C14_2 C 0.66134(15) 0.5867(3) 0.1953(3)
C15_2 C 0.70712(17) 0.6142(4) 0.1995(3)
H7_2 H 0.7206 0.6290 0.1490
C16_2 C 0.63984(17) 0.5598(4) 0.4314(3)
C17_2 C 0.63449(17) 0.5767(4) 0.1089(3)
O1_2 O 0.93677(10) 0.7567(2) 0.2351(2)
O2_2 O 0.95543(14) 0.6887(4) 0.3404(3)
O3_2 O 0.65649(15) 0.5757(4) 0.5020(2)
O4_2 O 0.60193(11) 0.5286(3) 0.4199(2)
O5_2 O 0.64792(13) 0.6035(3) 0.0427(2)
O6_2 O 0.59906(11) 0.5395(3) 0.1122(2)
N11_2 N 0.52529(11) 0.4355(3) 0.0621(2)
N14_2 N 0.99883(11) 0.8527(3) 0.3525(2)
C1_2 C 0.53607(15) 0.6201(3) 0.8995(3)
C2_2 C 0.46257(15) 0.6096(4) 0.8791(3)
N1_2 N 0.52345(11) 0.5704(3) 0.9529(2)
N2_2 N 0.47471(11) 0.5645(3) 0.9379(2)
N3_2 N 0.49883(11) 0.6473(3) 0.8525(2)
N4_2 N 0.58068(13) 0.6416(4) 0.8941(3)
H8_2 H 0.6030 0.6237 0.9256
H9_2 H 0.5870 0.6734 0.8591
N5_2 N 0.41681(13) 0.6199(4) 0.8477(4)
H10_2 H 0.3942 0.5962 0.8665
H11_2 H 0.4109 0.6502 0.8092
O14_2 O 0.60193(11) 0.4714(3) 0.9199(2)
C2_3 C 0.03743(15) 0.8904(4) 0.1209(3)
N5_3 N 0.08319(13) 0.8801(4) 0.1523(4)
H10_3 H 0.1058 0.9038 0.1335
H11_3 H 0.0891 0.8498 0.1908
C1_3 C 0.96393(15) 0.8799(3) 0.1005(3)
N1_3 N 0.97655(11) 0.9296(3) 0.0471(2)
N4_3 N 0.91932(13) 0.8584(4) 0.1059(3)
H8_3 H 0.8970 0.8763 0.0744
H9_3 H 0.9130 0.8266 0.1409
O9_3 O 0.15649(15) 0.9243(4) 0.0020(2)
C3_3 C 0.62382(16) 0.8118(4) 0.7155(3)
C4_3 C 0.63892(17) 0.8584(4) 0.6573(4)
H1_3 H 0.6171 0.8756 0.6164
C5_3 C 0.68467(19) 0.8804(4) 0.6571(4)
H2_3 H 0.6937 0.9111 0.6158
C6_3 C 0.71787(16) 0.8565(4) 0.7197(3)
C7_3 C 0.70291(19) 0.8108(5) 0.7768(4)
H3_3 H 0.7244 0.7945 0.8189
C8_3 C 0.65641(18) 0.7870(5) 0.7749(4)
H4_3 H 0.6477 0.7545 0.8140
C9_3 C 0.57371(19) 0.7876(4) 0.7113(4)
C10_3 C 0.76803(15) 0.8806(3) 0.7227(3)
C11_3 C 0.79039(17) 0.8951(4) 0.6469(3)
H5_3 H 0.7749 0.8867 0.5937
C12_3 C 0.83564(16) 0.9222(4) 0.6492(3)
C13_3 C 0.85967(15) 0.9303(3) 0.7306(3)
H6_3 H 0.8902 0.9476 0.7333
C14_3 C 0.83866(15) 0.9133(3) 0.8047(3)
C15_3 C 0.79288(17) 0.8858(4) 0.8005(3)
H7_3 H 0.7794 0.8710 0.8510
C16_3 C 0.86016(17) 0.9402(4) 0.5686(3)
C17_3 C 0.86551(17) 0.9233(4) 0.8911(3)
O1_3 O 0.56323(10) 0.7433(2) 0.7649(2)
O2_3 O 0.54457(14) 0.8113(4) 0.6596(3)
O3_3 O 0.84351(15) 0.9243(4) 0.4980(2)
O5_3 O 0.85208(13) 0.8965(3) 0.9573(2)
O6_3 O 0.90094(11) 0.9605(3) 0.8878(2)
C18_3 C 0.03607(15) 0.8799(3) 0.3995(3)
C20_3 C 0.37618(16) 0.8118(4) 0.7845(3)
C21_3 C 0.36108(17) 0.8584(4) 0.8427(4)
H12_3 H 0.3829 0.8756 0.8836
C22_3 C 0.31533(19) 0.8804(4) 0.8429(4)
H13_3 H 0.3063 0.9111 0.8842
C23_3 C 0.28213(16) 0.8565(4) 0.7803(3)
C24_3 C 0.29709(19) 0.8108(5) 0.7232(4)
H14_3 H 0.2756 0.7945 0.6811
C25_3 C 0.34359(18) 0.7870(5) 0.7251(4)
H15_3 H 0.3523 0.7545 0.6860
C26_3 C 0.42629(19) 0.7876(4) 0.7887(4)
C27_3 C 0.23197(15) 0.8806(3) 0.7773(3)
C28_3 C 0.20961(17) 0.8951(4) 0.8531(3)
H16_3 H 0.2251 0.8867 0.9063
C29_3 C 0.16436(16) 0.9222(4) 0.8508(3)
C30_3 C 0.14033(15) 0.9303(3) 0.7694(3)
H17_3 H 0.1098 0.9476 0.7667
C31_3 C 0.16134(15) 0.9133(3) 0.6953(3)
C32_3 C 0.20712(17) 0.8858(4) 0.6995(3)
H18_3 H 0.2206 0.8710 0.6490
C33_3 C 0.13984(17) 0.9402(4) 0.9314(3)
C34_3 C 0.13449(17) 0.9233(4) 0.6089(3)
O7_3 O 0.43677(10) 0.7433(2) 0.7351(2)
O8_3 O 0.45543(14) 0.8113(4) 0.8404(3)
O11_3 O 0.14792(13) 0.8965(3) 0.5427(2)
O12_3 O 0.09906(11) 0.9605(3) 0.6122(2)
N6_3 N 0.02345(11) 0.9296(3) 0.4529(2)
N9_3 N 0.08068(13) 0.8584(4) 0.3941(3)
H19_3 H 0.1030 0.8763 0.4256
H20_3 H 0.0870 0.8266 0.3591
C19_3 C 0.96257(15) 0.8904(4) 0.3791(3)
N10_3 N 0.91681(13) 0.8801(4) 0.3477(4)
H21_3 H 0.8942 0.9038 0.3665
H22_3 H 0.9109 0.8498 0.3092
C1_4 C 0.46393(15) 0.3799(3) 0.1005(3)
C2_4 C 0.53743(15) 0.3904(4) 0.1209(3)
N1_4 N 0.47655(11) 0.4296(3) 0.0471(2)
N4_4 N 0.41932(13) 0.3584(4) 0.1059(3)
H8_4 H 0.3970 0.3763 0.0744
H9_4 H 0.4130 0.3266 0.1409
N5_4 N 0.58319(13) 0.3801(4) 0.1523(4)
H10_4 H 0.6058 0.4038 0.1335
H11_4 H 0.5891 0.3498 0.1908
C3_4 C 0.12382(16) 0.3118(4) 0.7155(3)
C4_4 C 0.13892(17) 0.3584(4) 0.6573(4)
H1_4 H 0.1171 0.3756 0.6164
C5_4 C 0.18467(19) 0.3804(4) 0.6571(4)
H2_4 H 0.1937 0.4111 0.6158
C6_4 C 0.21787(16) 0.3565(4) 0.7197(3)
C7_4 C 0.20291(19) 0.3108(5) 0.7768(4)
H3_4 H 0.2244 0.2945 0.8189
C8_4 C 0.15641(18) 0.2870(5) 0.7749(4)
H4_4 H 0.1477 0.2545 0.8140
C9_4 C 0.07371(19) 0.2876(4) 0.7113(4)
C10_4 C 0.26803(15) 0.3806(3) 0.7227(3)
C11_4 C 0.29039(17) 0.3951(4) 0.6469(3)
H5_4 H 0.2749 0.3867 0.5937
C12_4 C 0.33564(16) 0.4222(4) 0.6492(3)
C13_4 C 0.35967(15) 0.4303(3) 0.7306(3)
H6_4 H 0.3902 0.4476 0.7333
C14_4 C 0.33866(15) 0.4133(3) 0.8047(3)
C15_4 C 0.29288(17) 0.3858(4) 0.8005(3)
H7_4 H 0.2794 0.3710 0.8510
C16_4 C 0.36016(17) 0.4402(4) 0.5686(3)
C17_4 C 0.36551(17) 0.4233(4) 0.8911(3)
O1_4 O 0.06323(10) 0.2433(2) 0.7649(2)
O2_4 O 0.04457(14) 0.3113(4) 0.6596(3)
O3_4 O 0.34351(15) 0.4243(4) 0.4980(2)
O5_4 O 0.35208(13) 0.3965(3) 0.9573(2)
O6_4 O 0.40094(11) 0.4605(3) 0.8878(2)
O9_4 O 0.65649(15) 0.4243(4) 0.0020(2)
C18_4 C 0.53607(15) 0.3799(3) 0.3995(3)
C19_4 C 0.46257(15) 0.3904(4) 0.3791(3)
C20_4 C 0.87618(16) 0.3118(4) 0.7845(3)
C21_4 C 0.86108(17) 0.3584(4) 0.8427(4)
H12_4 H 0.8829 0.3756 0.8836
C22_4 C 0.81533(19) 0.3804(4) 0.8429(4)
H13_4 H 0.8063 0.4111 0.8842
C23_4 C 0.78213(16) 0.3565(4) 0.7803(3)
C24_4 C 0.79709(19) 0.3108(5) 0.7232(4)
H14_4 H 0.7756 0.2945 0.6811
C25_4 C 0.84359(18) 0.2870(5) 0.7251(4)
H15_4 H 0.8523 0.2545 0.6860
C26_4 C 0.92629(19) 0.2876(4) 0.7887(4)
C27_4 C 0.73197(15) 0.3806(3) 0.7773(3)
C28_4 C 0.70961(17) 0.3951(4) 0.8531(3)
H16_4 H 0.7251 0.3867 0.9063
C29_4 C 0.66436(16) 0.4222(4) 0.8508(3)
C30_4 C 0.64033(15) 0.4303(3) 0.7694(3)
H17_4 H 0.6098 0.4476 0.7667
C31_4 C 0.66134(15) 0.4133(3) 0.6953(3)
C32_4 C 0.70712(17) 0.3858(4) 0.6995(3)
H18_4 H 0.7206 0.3710 0.6490
C33_4 C 0.63984(17) 0.4402(4) 0.9314(3)
C34_4 C 0.63449(17) 0.4233(4) 0.6089(3)
O7_4 O 0.93677(10) 0.2433(2) 0.7351(2)
O8_4 O 0.95543(14) 0.3113(4) 0.8404(3)
O11_4 O 0.64792(13) 0.3965(3) 0.5427(2)
O12_4 O 0.59906(11) 0.4605(3) 0.6122(2)
N6_4 N 0.52345(11) 0.4296(3) 0.4529(2)
N9_4 N 0.58068(13) 0.3584(4) 0.3941(3)
H19_4 H 0.6030 0.3763 0.4256
H20_4 H 0.5870 0.3266 0.3591
N10_4 N 0.41681(13) 0.3801(4) 0.3477(4)
H21_4 H 0.3942 0.4038 0.3665
H22_4 H 0.4109 0.3498 0.3092
H25 H 0.0211 0.1196 0.1313
N15 N 0.0000 0.1077(7) 0.2500
C36 C 0.0048(5) 0.1345(10) 0.3354(7)
H26 H 0.0046 0.1822 0.3324
H27 H 0.0341 0.1196 0.3626
H29 H 0.0291559 0.0785235 0.246806
C35 C 0.9952(5) 0.1345(10) 0.1646(7)
H23 H 0.9954 0.1822 0.1676
H24 H 0.9659 0.1196 0.1374
N15_2 N 1.0000 0.1077(7) 0.2500
H28 H 0.9789 0.1196 0.3687
H30 H 0.970844 0.0785235 0.253194
C35_2 C 0.4952(5) 0.6345(10) 0.1646(7)
H23_2 H 0.4954 0.6822 0.1676
H24_2 H 0.4659 0.6196 0.1374
H25_2 H 0.5211 0.6196 0.1313
N15_3 N 0.5000 0.6077(7) 0.2500
C36_2 C 0.5048(5) 0.6345(10) 0.3354(7)
H26_2 H 0.5046 0.6822 0.3324
H27_2 H 0.5341 0.6196 0.3626
H28_2 H 0.4789 0.6196 0.3687
H29_2 H 0.529156 0.578523 0.246806
H30_2 H 0.470844 0.578523 0.253194
C35_3 C 0.0048(5) 0.8655(10) 0.8354(7)
H23_3 H 0.0046 0.8178 0.8324
H24_3 H 0.0341 0.8804 0.8626
N15_4 N 0.0000 0.8923(7) 0.7500
H28_3 H 0.0211 0.8804 0.6313
H30_3 H 0.0291559 0.921477 0.746806
H25_3 H 0.9789 0.8804 0.8687
N15_5 N 1.0000 0.8923(7) 0.7500
C36_3 C 0.9952(5) 0.8655(10) 0.6646(7)
H26_3 H 0.9954 0.8178 0.6676
H27_3 H 0.9659 0.8804 0.6374
H29_3 H 0.970844 0.921477 0.753194
C35_4 C 0.5048(5) 0.3655(10) 0.8354(7)
H23_4 H 0.5046 0.3178 0.8324
H24_4 H 0.5341 0.3804 0.8626
H25_4 H 0.4789 0.3804 0.8687
N15_6 N 0.5000 0.3923(7) 0.7500
C36_4 C 0.4952(5) 0.3655(10) 0.6646(7)
H26_4 H 0.4954 0.3178 0.6676
H27_4 H 0.4659 0.3804 0.6374
H28_4 H 0.5211 0.3804 0.6313
H29_4 H 0.470844 0.421477 0.753194
H30_4 H 0.529156 0.421477 0.746806
loop_
_geom_bond_atom_site_label_1
_geom_bond_atom_site_label_2
_geom_bond_site_symmetry_1
_geom_bond_site_symmetry_2
C19 N7 1_555 1_555
N10 C19 1_555 1_555
H21 N10 1_555 1_555
H22 N10 1_555 1_555
Zn5 N8 1_555 1_555
C19 N8 1_555 1_555
Zn1 O1 1_555 1_555
Zn2 O6 1_555 1_555
C3 C4 1_555 1_555
C4 H1 1_555 1_555
C5 C4 1_555 1_555
H2 C5 1_555 1_555
C6 C5 1_555 1_555
C7 C6 1_555 1_555
H3 C7 1_555 1_555
C8 C3 1_555 1_555
H4 C8 1_555 1_555
C9 C3 1_555 1_555
C10 C6 1_555 1_555
C11 C10 1_555 1_555
H5 C11 1_555 1_555
C12 C11 1_555 1_555
C13 C12 1_555 1_555
H6 C13 1_555 1_555
C14 C13 1_555 1_555
C15 C10 1_555 1_555
H7 C15 1_555 1_555
C16 C12 1_555 1_555
C17 C14 1_555 1_555
O1 C9 1_555 1_555
O2 C9 1_555 1_555
O3 C16 1_555 1_555
O4 C16 1_555 1_555
O5 C17 1_555 1_555
O6 C17 1_555 1_555
Zn3 O12 1_555 1_555
C18 N6 1_555 1_555
C20 C21 1_555 1_555
C21 H12 1_555 1_555
C22 C21 1_555 1_555
H13 C22 1_555 1_555
C23 C22 1_555 1_555
C24 C23 1_555 1_555
H14 C24 1_555 1_555
C25 C20 1_555 1_555
H15 C25 1_555 1_555
C26 C20 1_555 1_555
C27 C23 1_555 1_555
C28 C27 1_555 1_555
H16 C28 1_555 1_555
C29 C28 1_555 1_555
C30 C29 1_555 1_555
H17 C30 1_555 1_555
C31 C30 1_555 1_555
C32 C27 1_555 1_555
H18 C32 1_555 1_555
C33 C29 1_555 1_555
C34 C31 1_555 1_555
O7 Zn1 1_555 1_555
O8 C26 1_555 1_555
O10 C33 1_555 1_555
O11 C34 1_555 1_555
O12 C34 1_555 1_555
N6 Zn3 1_555 1_555
N9 C18 1_555 1_555
H19 N9 1_555 1_555
H20 N9 1_555 1_555
N13 Zn1 1_555 1_555
N14 Zn1 1_555 1_555
C7 C8 1_555 1_555
C14 C15 1_555 1_555
C24 C25 1_555 1_555
C26 O7 1_555 1_555
C31 C32 1_555 1_555
C1 N1 1_555 1_555
N4 C1 1_555 1_555
H8 N4 1_555 1_555
H9 N4 1_555 1_555
C2 N2 1_555 1_555
N5 C2 1_555 1_555
H10 N5 1_555 1_555
H11 N5 1_555 1_555
Zn5_2 N3 1_555 1_555
C2 N3 1_555 1_555
Zn3_2 O12_2 1_555 1_555
C18_2 N6_2 1_555 1_555
C19_2 N7_2 1_555 1_555
C20_2 C21_2 1_555 1_555
C21_2 H12_2 1_555 1_555
C22_2 C21_2 1_555 1_555
H13_2 C22_2 1_555 1_555
C23_2 C22_2 1_555 1_555
C24_2 C23_2 1_555 1_555
H14_2 C24_2 1_555 1_555
C25_2 C20_2 1_555 1_555
H15_2 C25_2 1_555 1_555
C26_2 C20_2 1_555 1_555
C27_2 C23_2 1_555 1_555
C28_2 C27_2 1_555 1_555
H16_2 C28_2 1_555 1_555
C29_2 C28_2 1_555 1_555
C30_2 C29_2 1_555 1_555
H17_2 C30_2 1_555 1_555
C31_2 C30_2 1_555 1_555
C32_2 C27_2 1_555 1_555
H18_2 C32_2 1_555 1_555
C33_2 C29_2 1_555 1_555
C34_2 C31_2 1_555 1_555
O7_2 Zn1_2 1_555 1_555
O8_2 C26_2 1_555 1_555
O10_2 C33_2 1_555 1_555
O11_2 C34_2 1_555 1_555
O12_2 C34_2 1_555 1_555
N6_2 Zn3_2 1_555 1_555
N7_2 N6_2 1_555 1_555
N8_2 C18_2 1_555 1_555
N9_2 C18_2 1_555 1_555
H19_2 N9_2 1_555 1_555
H20_2 N9_2 1_555 1_555
N10_2 C19_2 1_555 1_555
H21_2 N10_2 1_555 1_555
H22_2 N10_2 1_555 1_555
Zn5_3 N8_2 1_555 1_555
Zn9_2 N7_2 1_555 1_555
O13_2 Zn3_2 1_555 1_555
N12_2 Zn3_2 1_555 1_555
N13_2 Zn1_2 1_555 1_555
C19_2 N8_2 1_555 1_555
C24_2 C25_2 1_555 1_555
C26_2 O7_2 1_555 1_555
C31_2 C32_2 1_555 1_555
Zn1_3 O1_2 1_555 1_555
Zn2_2 O6_2 1_555 1_555
C3_2 C4_2 1_555 1_555
C4_2 H1_2 1_555 1_555
C5_2 C4_2 1_555 1_555
H2_2 C5_2 1_555 1_555
C6_2 C5_2 1_555 1_555
C7_2 C6_2 1_555 1_555
H3_2 C7_2 1_555 1_555
C8_2 C3_2 1_555 1_555
H4_2 C8_2 1_555 1_555
C9_2 C3_2 1_555 1_555
C10_2 C6_2 1_555 1_555
C11_2 C10_2 1_555 1_555
H5_2 C11_2 1_555 1_555
C12_2 C11_2 1_555 1_555
C13_2 C12_2 1_555 1_555
H6_2 C13_2 1_555 1_555
C14_2 C13_2 1_555 1_555
C15_2 C10_2 1_555 1_555
H7_2 C15_2 1_555 1_555
C16_2 C12_2 1_555 1_555
C17_2 C14_2 1_555 1_555
O1_2 C9_2 1_555 1_555
O2_2 C9_2 1_555 1_555
O3_2 C16_2 1_555 1_555
O4_2 C16_2 1_555 1_555
O5_2 C17_2 1_555 1_555
O6_2 C17_2 1_555 1_555
Zn9_2 O4_2 1_555 1_555
N11_2 Zn2_2 1_555 1_555
N14_2 Zn1_3 1_555 1_555
C7_2 C8_2 1_555 1_555
C14_2 C15_2 1_555 1_555
C1_2 N1_2 1_555 1_555
C2_2 N2_2 1_555 1_555
N2_2 N1_2 1_555 1_555
N3_2 C1_2 1_555 1_555
N4_2 C1_2 1_555 1_555
H8_2 N4_2 1_555 1_555
H9_2 N4_2 1_555 1_555
N5_2 C2_2 1_555 1_555
H10_2 N5_2 1_555 1_555
H11_2 N5_2 1_555 1_555
Zn5_3 N3_2 1_555 1_555
Zn7_2 N2_2 1_555 1_555
C2_2 N3_2 1_555 1_555
C2_3 N11 1_555 1_555
N5_3 C2_3 1_555 1_555
H10_3 N5_3 1_555 1_555
H11_3 N5_3 1_555 1_555
C2_3 N13_2 1_555 1_555
C1_3 N1_3 1_555 1_555
N4_3 C1_3 1_555 1_555
H8_3 N4_3 1_555 1_555
H9_3 N4_3 1_555 1_555
Zn5_3 O1_3 1_555 1_555
Zn7 O6_3 1_555 1_555
C3_3 C4_3 1_555 1_555
C4_3 H1_3 1_555 1_555
C5_3 C4_3 1_555 1_555
H2_3 C5_3 1_555 1_555
C6_3 C5_3 1_555 1_555
C7_3 C6_3 1_555 1_555
H3_3 C7_3 1_555 1_555
C8_3 C3_3 1_555 1_555
H4_3 C8_3 1_555 1_555
C9_3 C3_3 1_555 1_555
C10_3 C6_3 1_555 1_555
C11_3 C10_3 1_555 1_555
H5_3 C11_3 1_555 1_555
C12_3 C11_3 1_555 1_555
C13_3 C12_3 1_555 1_555
H6_3 C13_3 1_555 1_555
C14_3 C13_3 1_555 1_555
C15_3 C10_3 1_555 1_555
H7_3 C15_3 1_555 1_555
C16_3 C12_3 1_555 1_555
C17_3 C14_3 1_555 1_555
O1_3 C9_3 1_555 1_555
O2_3 C9_3 1_555 1_555
O3_3 C16_3 1_555 1_555
O13 C16_3 1_555 1_555
O5_3 C17_3 1_555 1_555
O6_3 C17_3 1_555 1_555
Zn9 O12_3 1_555 1_555
C18_3 N6_3 1_555 1_555
C20_3 C21_3 1_555 1_555
C21_3 H12_3 1_555 1_555
C22_3 C21_3 1_555 1_555
H13_3 C22_3 1_555 1_555
C23_3 C22_3 1_555 1_555
C24_3 C23_3 1_555 1_555
H14_3 C24_3 1_555 1_555
C25_3 C20_3 1_555 1_555
H15_3 C25_3 1_555 1_555
C26_3 C20_3 1_555 1_555
C27_3 C23_3 1_555 1_555
C28_3 C27_3 1_555 1_555
H16_3 C28_3 1_555 1_555
C29_3 C28_3 1_555 1_555
C30_3 C29_3 1_555 1_555
H17_3 C30_3 1_555 1_555
C31_3 C30_3 1_555 1_555
C32_3 C27_3 1_555 1_555
H18_3 C32_3 1_555 1_555
C33_3 C29_3 1_555 1_555
C34_3 C31_3 1_555 1_555
O7_3 Zn5_3 1_555 1_555
O8_3 C26_3 1_555 1_555
O14 C33_3 1_555 1_555
O11_3 C34_3 1_555 1_555
O12_3 C34_3 1_555 1_555
N6_3 Zn9 1_555 1_555
N9_3 C18_3 1_555 1_555
H19_3 N9_3 1_555 1_555
H20_3 N9_3 1_555 1_555
C7_3 C8_3 1_555 1_555
C14_3 C15_3 1_555 1_555
C24_3 C25_3 1_555 1_555
C26_3 O7_3 1_555 1_555
C31_3 C32_3 1_555 1_555
C19_3 N12 1_555 1_555
N10_3 C19_3 1_555 1_555
H21_3 N10_3 1_555 1_555
H22_3 N10_3 1_555 1_555
C19_3 N14_2 1_555 1_555
C1_4 N1_4 1_555 1_555
C2_4 N11_2 1_555 1_555
N11_2 N1_4 1_555 1_555
N13 C1_4 1_555 1_555
N4_4 C1_4 1_555 1_555
H8_4 N4_4 1_555 1_555
H9_4 N4_4 1_555 1_555
N5_4 C2_4 1_555 1_555
H10_4 N5_4 1_555 1_555
H11_4 N5_4 1_555 1_555
C2_4 N13 1_555 1_555
Zn5 O1_4 1_555 1_555
Zn7_2 O6_4 1_555 1_555
C3_4 C4_4 1_555 1_555
C4_4 H1_4 1_555 1_555
C5_4 C4_4 1_555 1_555
H2_4 C5_4 1_555 1_555
C6_4 C5_4 1_555 1_555
C7_4 C6_4 1_555 1_555
H3_4 C7_4 1_555 1_555
C8_4 C3_4 1_555 1_555
H4_4 C8_4 1_555 1_555
C9_4 C3_4 1_555 1_555
C10_4 C6_4 1_555 1_555
C11_4 C10_4 1_555 1_555
H5_4 C11_4 1_555 1_555
C12_4 C11_4 1_555 1_555
C13_4 C12_4 1_555 1_555
H6_4 C13_4 1_555 1_555
C14_4 C13_4 1_555 1_555
C15_4 C10_4 1_555 1_555
H7_4 C15_4 1_555 1_555
C16_4 C12_4 1_555 1_555
C17_4 C14_4 1_555 1_555
O1_4 C9_4 1_555 1_555
O2_4 C9_4 1_555 1_555
O3_4 C16_4 1_555 1_555
O13_2 C16_4 1_555 1_555
O5_4 C17_4 1_555 1_555
O6_4 C17_4 1_555 1_555
C7_4 C8_4 1_555 1_555
C14_4 C15_4 1_555 1_555
Zn9_2 O12_4 1_555 1_555
C18_4 N6_4 1_555 1_555
C19_4 N12_2 1_555 1_555
C20_4 C21_4 1_555 1_555
C21_4 H12_4 1_555 1_555
C22_4 C21_4 1_555 1_555
H13_4 C22_4 1_555 1_555
C23_4 C22_4 1_555 1_555
C24_4 C23_4 1_555 1_555
H14_4 C24_4 1_555 1_555
C25_4 C20_4 1_555 1_555
H15_4 C25_4 1_555 1_555
C26_4 C20_4 1_555 1_555
C27_4 C23_4 1_555 1_555
C28_4 C27_4 1_555 1_555
H16_4 C28_4 1_555 1_555
C29_4 C28_4 1_555 1_555
C30_4 C29_4 1_555 1_555
H17_4 C30_4 1_555 1_555
C31_4 C30_4 1_555 1_555
C32_4 C27_4 1_555 1_555
H18_4 C32_4 1_555 1_555
C33_4 C29_4 1_555 1_555
C34_4 C31_4 1_555 1_555
O7_4 Zn5_2 1_555 1_555
O8_4 C26_4 1_555 1_555
O14_2 C33_4 1_555 1_555
O11_4 C34_4 1_555 1_555
O12_4 C34_4 1_555 1_555
N6_4 Zn9_2 1_555 1_555
N12_2 N6_4 1_555 1_555
N14 C18_4 1_555 1_555
N9_4 C18_4 1_555 1_555
H19_4 N9_4 1_555 1_555
H20_4 N9_4 1_555 1_555
N10_4 C19_4 1_555 1_555
H21_4 N10_4 1_555 1_555
H22_4 N10_4 1_555 1_555
C19_4 N14 1_555 1_555
C24_4 C25_4 1_555 1_555
C26_4 O7_4 1_555 1_555
C31_4 C32_4 1_555 1_555
C36 N15 1_555 1_555
H26 C36 1_555 1_555
H27 C36 1_555 1_555
N15 H29 1_555 1_555
C35 H23 1_555 1_555
H24 C35 1_555 1_555
N15_2 C35 1_555 1_555
N15_2 H30 1_555 1_555
C35_2 H23_2 1_555 1_555
H24_2 C35_2 1_555 1_555
H25_2 C35_2 1_555 1_555
N15_3 C35_2 1_555 1_555
C36_2 N15_3 1_555 1_555
H26_2 C36_2 1_555 1_555
H27_2 C36_2 1_555 1_555
H28_2 C36_2 1_555 1_555
N15_3 H29_2 1_555 1_555
N15_3 H30_2 1_555 1_555
C35_3 H23_3 1_555 1_555
H24_3 C35_3 1_555 1_555
N15_4 C35_3 1_555 1_555
N15_4 H30_3 1_555 1_555
C36_3 N15_5 1_555 1_555
H26_3 C36_3 1_555 1_555
H27_3 C36_3 1_555 1_555
N15_5 H29_3 1_555 1_555
C35_4 H23_4 1_555 1_555
H24_4 C35_4 1_555 1_555
H25_4 C35_4 1_555 1_555
N15_6 C35_4 1_555 1_555
C36_4 N15_6 1_555 1_555
H26_4 C36_4 1_555 1_555
H27_4 C36_4 1_555 1_555
H28_4 C36_4 1_555 1_555
N15_6 H29_4 1_555 1_555
N15_6 H30_4 1_555 1_555

#END
