
###############################################################################
#
# This file contains modified crystal structure data generated from the
# MOF subset of the Cambridge Structural Database (CSD) v543 
# hosted by the Cambridge Crystallographic Data Centre (CCDC).
#
# This work is licensed under the Creative Commons
# Attribution-NonCommercial-ShareAlike 4.0 International License.
# To view a copy of this license, visit
# http://creativecommons.org/licenses/by-nc-sa/4.0/
# or send a letter to
# Creative Commons, PO Box 1866, Mountain View, CA 94042, USA.
#
# CIF created using the CSD Python API on 29 September 2022
# The structure has been converted into the P1 space group
# The structure has a 3D framework
# The original CSD entry QUQWUW is in the monoclinic crystal system
# The framework has been calculated to contain at least 10.0% void space
# The void calculation uses a probe of radius 1.32A, grid spacing 0.4
# The framework is charged, counterions have been retained in the structure
#
###############################################################################

data_QUQWUW
_chemical_formula_moiety         '(C80 H76 N28 O28 Zn8 2+)n'
_symmetry_cell_setting           triclinic
_symmetry_space_group_name_H-M   'P 1'
_symmetry_Int_Tables_number      1
_space_group_name_Hall           'P 1'
loop_
_symmetry_equiv_pos_site_id
_symmetry_equiv_pos_as_xyz
1 x,y,z
_cell_length_a                   18.8226(10)
_cell_length_b                   18.6427(8)
_cell_length_c                   14.2485(5)
_cell_angle_alpha                90
_cell_angle_beta                 130.175(3)
_cell_angle_gamma                90
_cell_volume                     3820.28
loop_
_atom_site_label
_atom_site_type_symbol
_atom_site_fract_x
_atom_site_fract_y
_atom_site_fract_z
Zn2 Zn 0.0000 0.09694(4) 0.5000
Zn4 Zn 0.02995(5) -0.0000 0.12682(6)
N7 N 0.0277(3) 0.03790(18) 0.4125(3)
O12 O 0.0996(4) 0.1566(3) 0.6267(4)
Zn4_2 Zn 0.02995(5) 1.0000 0.12682(6)
Zn1 Zn 0.52995(5) 0.5000 0.12682(6)
Zn2_2 Zn 1.0000 0.09694(4) 0.5000
C1 C 0.6859(4) 0.3387(3) 0.1175(4)
C2 C 0.6897(4) 0.3169(3) 0.0277(4)
C3 C 0.7479(4) 0.2613(3) 0.0486(4)
C4 C 0.8007(4) 0.2285(3) 0.1618(5)
H2 H 0.8413 0.1921 0.1787
C5 C 0.7959(4) 0.2472(3) 0.2511(5)
C6 C 0.7387(4) 0.3040(3) 0.2294(5)
H3 H 0.7362 0.3184 0.2897
C7 C 0.6219(3) 0.3992(2) 0.0878(4)
C8 C 0.8560(4) 0.2067(3) 0.3715(5)
C9 C 0.5358(3) 0.4427(2) 0.3306(4)
N1 N 0.5398(4) 0.5000 0.2757(5)
N2 N 0.5277(3) 0.46210(18) 0.4125(3)
N3 N 0.5390(4) 0.3742(2) 0.3042(4)
H4 H 0.5356 0.3399 0.3414
H5 H 0.5444 0.3647 0.2499
O1 O 0.6210(3) 0.4205(2) 0.1703(3)
O3 O 0.8560(4) 0.2205(3) 0.4552(4)
O4 O 0.9004(4) 0.1566(3) 0.3733(4)
H6 H 0.8475 0.1602 0.0481
O6 O 0.9264(3) 0.0757(2) 0.0178(3)
C18 C 0.5358(3) 0.5573(2) 0.3306(4)
N4 N 0.5277(3) 0.53790(18) 0.4125(3)
N5 N 0.5390(4) 0.6258(2) 0.3042(4)
H9 H 0.5356 0.6601 0.3414
H10 H 0.5444 0.6353 0.2499
Zn6 Zn 0.5000 0.59694(4) 0.5000
Zn8 Zn 0.5000 0.40306(4) 0.5000
N6 N 0.9723(3) 0.03790(18) 0.5875(3)
O9 O 0.6210(3) 0.5795(2) 0.1703(3)
O10 O 0.4264(3) 0.4243(2) 0.0178(3)
O11 O 0.4264(3) 0.5757(2) 0.0178(3)
H1 H 0.6525 0.3398 0.9519
O2 O 0.5736(3) 0.4243(2) 0.9822(3)
C10 C 0.8141(4) 0.1613(3) 0.8825(4)
C11 C 0.8103(4) 0.1831(3) 0.9723(4)
C12 C 0.7521(4) 0.2387(3) 0.9514(4)
C13 C 0.6993(4) 0.2715(3) 0.8382(5)
H7 H 0.6587 0.3079 0.8213
C14 C 0.7041(4) 0.2528(3) 0.7489(5)
C15 C 0.7613(4) 0.1960(3) 0.7706(5)
H8 H 0.7638 0.1816 0.7103
C16 C 0.8781(3) 0.1008(2) 0.9122(4)
C17 C 0.6440(4) 0.2933(3) 0.6285(5)
O5 O 0.8790(3) 0.0795(2) 0.8297(3)
O7 O 0.6440(4) 0.2795(3) 0.5448(4)
O8 O 0.5996(4) 0.3434(3) 0.6267(4)
Zn3 Zn 0.47005(5) 0.5000 0.87318(6)
Zn5 Zn 0.97005(5) 0.0000 0.87318(6)
Zn5_2 Zn 0.97005(5) 1.0000 0.87318(6)
H1_2 H 0.3475 0.3398 0.0481
C10_2 C 0.1859(4) 0.1613(3) 0.1175(4)
C11_2 C 0.1897(4) 0.1831(3) 0.0277(4)
C12_2 C 0.2479(4) 0.2387(3) 0.0486(4)
C13_2 C 0.3007(4) 0.2715(3) 0.1618(5)
H7_2 H 0.3413 0.3079 0.1787
C14_2 C 0.2959(4) 0.2528(3) 0.2511(5)
C15_2 C 0.2387(4) 0.1960(3) 0.2294(5)
H8_2 H 0.2362 0.1816 0.2897
C16_2 C 0.1219(3) 0.1008(2) 0.0878(4)
C17_2 C 0.3560(4) 0.2933(3) 0.3715(5)
O5_2 O 0.1210(3) 0.0795(2) 0.1703(3)
O7_2 O 0.3560(4) 0.2795(3) 0.4552(4)
O8_2 O 0.4004(4) 0.3434(3) 0.3733(4)
C1_2 C 0.3141(4) 0.3387(3) 0.8825(4)
C2_2 C 0.3103(4) 0.3169(3) 0.9723(4)
C3_2 C 0.2521(4) 0.2613(3) 0.9514(4)
C4_2 C 0.1993(4) 0.2285(3) 0.8382(5)
H2_2 H 0.1587 0.1921 0.8213
C5_2 C 0.2041(4) 0.2472(3) 0.7489(5)
C6_2 C 0.2613(4) 0.3040(3) 0.7706(5)
H3_2 H 0.2638 0.3184 0.7103
C7_2 C 0.3781(3) 0.3992(2) 0.9122(4)
C8_2 C 0.1440(4) 0.2067(3) 0.6285(5)
C9_2 C 0.4642(3) 0.4427(2) 0.6694(4)
N1_2 N 0.4602(4) 0.5000 0.7243(5)
N2_2 N 0.4723(3) 0.46210(18) 0.5875(3)
N3_2 N 0.4610(4) 0.3742(2) 0.6958(4)
H4_2 H 0.4644 0.3399 0.6586
H5_2 H 0.4556 0.3647 0.7501
O1_2 O 0.3790(3) 0.4205(2) 0.8297(3)
O3_2 O 0.1440(4) 0.2205(3) 0.5448(4)
H6_2 H 0.1525 0.1602 0.9519
O6_2 O 0.0736(3) 0.0757(2) 0.9822(3)
C18_2 C 0.4642(3) 0.5573(2) 0.6694(4)
N4_2 N 0.4723(3) 0.53790(18) 0.5875(3)
N5_2 N 0.4610(4) 0.6258(2) 0.6958(4)
H9_2 H 0.4644 0.6601 0.6586
H10_2 H 0.4556 0.6353 0.7501
O9_2 O 0.3790(3) 0.5795(2) 0.8297(3)
O11_2 O 0.5736(3) 0.5757(2) 0.9822(3)
N1_3 N 0.0398(4) -0.0000 0.2757(5)
C18_3 C 0.0358(3) 0.0573(2) 0.3306(4)
N5_3 N 0.0390(4) 0.1258(2) 0.3042(4)
H9_3 H 0.0356 0.1601 0.3414
H10_3 H 0.0444 0.1353 0.2499
C1_3 C 0.1859(4) 0.8387(3) 0.1175(4)
C2_3 C 0.1897(4) 0.8169(3) 0.0277(4)
C3_3 C 0.2479(4) 0.7613(3) 0.0486(4)
C4_3 C 0.3007(4) 0.7285(3) 0.1618(5)
H2_3 H 0.3413 0.6921 0.1787
C5_3 C 0.2959(4) 0.7472(3) 0.2511(5)
C6_3 C 0.2387(4) 0.8040(3) 0.2294(5)
H3_3 H 0.2362 0.8184 0.2897
C7_3 C 0.1219(3) 0.8992(2) 0.0878(4)
C8_3 C 0.3560(4) 0.7067(3) 0.3715(5)
C9_3 C 0.0358(3) 0.9427(2) 0.3306(4)
N1_4 N 0.0398(4) 1.0000 0.2757(5)
N2_3 N 0.0277(3) 0.96210(18) 0.4125(3)
N3_3 N 0.0390(4) 0.8742(2) 0.3042(4)
H4_3 H 0.0356 0.8399 0.3414
H5_3 H 0.0444 0.8647 0.2499
O1_3 O 0.1210(3) 0.9205(2) 0.1703(3)
O3_3 O 0.3560(4) 0.7205(3) 0.4552(4)
O4_2 O 0.4004(4) 0.6566(3) 0.3733(4)
H6_3 H 0.3475 0.6602 0.0481
Zn8_2 Zn 0.0000 0.90306(4) 0.5000
O12_2 O 0.5996(4) 0.6566(3) 0.6267(4)
H1_3 H 0.1525 0.8398 0.9519
O2_2 O 0.0736(3) 0.9243(2) 0.9822(3)
C10_3 C 0.3141(4) 0.6613(3) 0.8825(4)
C11_3 C 0.3103(4) 0.6831(3) 0.9723(4)
C12_3 C 0.2521(4) 0.7387(3) 0.9514(4)
C13_3 C 0.1993(4) 0.7715(3) 0.8382(5)
H7_3 H 0.1587 0.8079 0.8213
C14_3 C 0.2041(4) 0.7528(3) 0.7489(5)
C15_3 C 0.2613(4) 0.6960(3) 0.7706(5)
H8_3 H 0.2638 0.6816 0.7103
C16_3 C 0.3781(3) 0.6008(2) 0.9122(4)
C17_3 C 0.1440(4) 0.7933(3) 0.6285(5)
O7_3 O 0.1440(4) 0.7795(3) 0.5448(4)
O8_3 O 0.0996(4) 0.8434(3) 0.6267(4)
Zn8_3 Zn 1.0000 0.90306(4) 0.5000
O10_2 O 0.9264(3) 0.9243(2) 0.0178(3)
N1_5 N 0.9602(4) -0.0000 0.7243(5)
C18_4 C 0.9642(3) 0.0573(2) 0.6694(4)
N5_4 N 0.9610(4) 0.1258(2) 0.6958(4)
H9_4 H 0.9644 0.1601 0.6586
H10_4 H 0.9556 0.1353 0.7501
H1_4 H 0.8475 0.8398 0.0481
C10_4 C 0.6859(4) 0.6613(3) 0.1175(4)
C11_4 C 0.6897(4) 0.6831(3) 0.0277(4)
C12_4 C 0.7479(4) 0.7387(3) 0.0486(4)
C13_4 C 0.8007(4) 0.7715(3) 0.1618(5)
H7_4 H 0.8413 0.8079 0.1787
C14_4 C 0.7959(4) 0.7528(3) 0.2511(5)
C15_4 C 0.7387(4) 0.6960(3) 0.2294(5)
H8_4 H 0.7362 0.6816 0.2897
C16_4 C 0.6219(3) 0.6008(2) 0.0878(4)
C17_4 C 0.8560(4) 0.7933(3) 0.3715(5)
O7_4 O 0.8560(4) 0.7795(3) 0.4552(4)
O8_4 O 0.9004(4) 0.8434(3) 0.3733(4)
C1_4 C 0.8141(4) 0.8387(3) 0.8825(4)
C2_4 C 0.8103(4) 0.8169(3) 0.9723(4)
C3_4 C 0.7521(4) 0.7613(3) 0.9514(4)
C4_4 C 0.6993(4) 0.7285(3) 0.8382(5)
H2_4 H 0.6587 0.6921 0.8213
C5_4 C 0.7041(4) 0.7472(3) 0.7489(5)
C6_4 C 0.7613(4) 0.8040(3) 0.7706(5)
H3_4 H 0.7638 0.8184 0.7103
C7_4 C 0.8781(3) 0.8992(2) 0.9122(4)
C8_4 C 0.6440(4) 0.7067(3) 0.6285(5)
C9_4 C 0.9642(3) 0.9427(2) 0.6694(4)
N1_6 N 0.9602(4) 1.0000 0.7243(5)
N2_4 N 0.9723(3) 0.96210(18) 0.5875(3)
N3_4 N 0.9610(4) 0.8742(2) 0.6958(4)
H4_4 H 0.9644 0.8399 0.6586
H5_4 H 0.9556 0.8647 0.7501
O1_4 O 0.8790(3) 0.9205(2) 0.8297(3)
O3_4 O 0.6440(4) 0.7205(3) 0.5448(4)
H6_4 H 0.6525 0.6602 0.9519
C19 C 0.825(2) 0.4131(9) 0.580(3)
H11 H 0.8636 0.3799 0.5786
H12 H 0.8339 0.4056 0.6537
H13 H 0.7614 0.4056 0.5097
N8 N 0.861(4) 0.5000 0.594(8)
H14 H 0.8748 0.5000 0.5433
H15 H 0.9173 0.5000 0.6699
C20 C 0.825(2) 0.5869(9) 0.580(3)
H16 H 0.8636 0.6201 0.5786
H17 H 0.8339 0.5944 0.6537
H18 H 0.7614 0.5944 0.5097
C19_2 C 0.175(2) 0.4131(9) 0.420(3)
H11_2 H 0.1364 0.3799 0.4214
H12_2 H 0.1661 0.4056 0.3463
H13_2 H 0.2386 0.4056 0.4903
N8_2 N 0.139(4) 0.5000 0.406(8)
H14_2 H 0.1252 0.5000 0.4567
H15_2 H 0.0827 0.5000 0.3301
C20_2 C 0.175(2) 0.5869(9) 0.420(3)
H16_2 H 0.1364 0.6201 0.4214
H17_2 H 0.1661 0.5944 0.3463
H18_2 H 0.2386 0.5944 0.4903
N8_3 N 0.361(4) -0.0000 0.594(8)
H14_3 H 0.3748 -0.0000 0.5433
H15_3 H 0.4173 -0.0000 0.6699
C20_3 C 0.325(2) 0.0869(9) 0.580(3)
H16_3 H 0.3636 0.1201 0.5786
H17_3 H 0.3339 0.0944 0.6537
H18_3 H 0.2614 0.0944 0.5097
C19_3 C 0.325(2) 0.9131(9) 0.580(3)
H11_3 H 0.3636 0.8799 0.5786
H12_3 H 0.3339 0.9056 0.6537
H13_3 H 0.2614 0.9056 0.5097
N8_4 N 0.361(4) 1.0000 0.594(8)
H14_4 H 0.3748 1.0000 0.5433
H15_4 H 0.4173 1.0000 0.6699
N8_5 N 0.639(4) -0.0000 0.406(8)
H14_5 H 0.6252 -0.0000 0.4567
H15_5 H 0.5827 -0.0000 0.3301
C20_4 C 0.675(2) 0.0869(9) 0.420(3)
H16_4 H 0.6364 0.1201 0.4214
H17_4 H 0.6661 0.0944 0.3463
H18_4 H 0.7386 0.0944 0.4903
C19_4 C 0.675(2) 0.9131(9) 0.420(3)
H11_4 H 0.6364 0.8799 0.4214
H12_4 H 0.6661 0.9056 0.3463
H13_4 H 0.7386 0.9056 0.4903
N8_6 N 0.639(4) 1.0000 0.406(8)
H14_6 H 0.6252 1.0000 0.4567
H15_6 H 0.5827 1.0000 0.3301
loop_
_geom_bond_atom_site_label_1
_geom_bond_atom_site_label_2
_geom_bond_site_symmetry_1
_geom_bond_site_symmetry_2
N7 Zn2 1_555 1_555
O12 Zn2 1_555 1_555
Zn1 N1 1_555 1_555
Zn2_2 O4 1_555 1_555
C1 C2 1_555 1_555
C3 C2 1_555 1_555
C4 C3 1_555 1_555
H2 C4 1_555 1_555
C5 C4 1_555 1_555
C6 C1 1_555 1_555
H3 C6 1_555 1_555
C7 C1 1_555 1_555
C8 C5 1_555 1_555
C9 N1 1_555 1_555
N1 C18 1_555 1_555
N2 C9 1_555 1_555
N3 C9 1_555 1_555
H4 N3 1_555 1_555
H5 N3 1_555 1_555
O1 Zn1 1_555 1_555
O3 C8 1_555 1_555
O4 C8 1_555 1_555
C18 N4 1_555 1_555
N4 N2 1_555 1_555
N5 C18 1_555 1_555
H9 N5 1_555 1_555
H10 N5 1_555 1_555
Zn6 N4 1_555 1_555
Zn8 N2 1_555 1_555
N6 Zn2_2 1_555 1_555
O9 Zn1 1_555 1_555
O10 Zn1 1_555 1_555
O11 Zn1 1_555 1_555
C5 C6 1_555 1_555
C7 O1 1_555 1_555
C10 C11 1_555 1_555
C13 C12 1_555 1_555
H7 C13 1_555 1_555
C14 C13 1_555 1_555
C15 C10 1_555 1_555
H8 C15 1_555 1_555
C16 C10 1_555 1_555
C17 C14 1_555 1_555
O5 C16 1_555 1_555
O7 C17 1_555 1_555
O8 C17 1_555 1_555
Zn3 O2 1_555 1_555
Zn5 O5 1_555 1_555
Zn8 O8 1_555 1_555
C11 C12 1_555 1_555
C14 C15 1_555 1_555
C10_2 C11_2 1_555 1_555
C13_2 C12_2 1_555 1_555
H7_2 C13_2 1_555 1_555
C14_2 C13_2 1_555 1_555
C15_2 C10_2 1_555 1_555
H8_2 C15_2 1_555 1_555
C16_2 C10_2 1_555 1_555
C17_2 C14_2 1_555 1_555
O5_2 C16_2 1_555 1_555
O7_2 C17_2 1_555 1_555
O8_2 C17_2 1_555 1_555
Zn4 O5_2 1_555 1_555
Zn8 O8_2 1_555 1_555
C11_2 C12_2 1_555 1_555
C14_2 C15_2 1_555 1_555
Zn3 N1_2 1_555 1_555
C1_2 C2_2 1_555 1_555
C3_2 C2_2 1_555 1_555
C4_2 C3_2 1_555 1_555
H2_2 C4_2 1_555 1_555
C5_2 C4_2 1_555 1_555
C6_2 C1_2 1_555 1_555
H3_2 C6_2 1_555 1_555
C7_2 C1_2 1_555 1_555
C8_2 C5_2 1_555 1_555
C9_2 N1_2 1_555 1_555
N1_2 C18_2 1_555 1_555
N2_2 C9_2 1_555 1_555
N3_2 C9_2 1_555 1_555
H4_2 N3_2 1_555 1_555
H5_2 N3_2 1_555 1_555
O1_2 Zn3 1_555 1_555
O3_2 C8_2 1_555 1_555
O12 C8_2 1_555 1_555
C18_2 N4_2 1_555 1_555
N4_2 N2_2 1_555 1_555
N5_2 C18_2 1_555 1_555
H9_2 N5_2 1_555 1_555
H10_2 N5_2 1_555 1_555
Zn6 N4_2 1_555 1_555
Zn8 N2_2 1_555 1_555
O9_2 Zn3 1_555 1_555
O11_2 Zn3 1_555 1_555
C5_2 C6_2 1_555 1_555
C7_2 O1_2 1_555 1_555
Zn4 N1_3 1_555 1_555
N1_3 C18_3 1_555 1_555
C18_3 N7 1_555 1_555
N5_3 C18_3 1_555 1_555
H9_3 N5_3 1_555 1_555
H10_3 N5_3 1_555 1_555
Zn4_2 N1_4 1_555 1_555
Zn6 O4_2 1_555 1_555
C1_3 C2_3 1_555 1_555
C3_3 C2_3 1_555 1_555
C4_3 C3_3 1_555 1_555
H2_3 C4_3 1_555 1_555
C5_3 C4_3 1_555 1_555
C6_3 C1_3 1_555 1_555
H3_3 C6_3 1_555 1_555
C7_3 C1_3 1_555 1_555
C8_3 C5_3 1_555 1_555
C9_3 N1_4 1_555 1_555
N2_3 C9_3 1_555 1_555
N3_3 C9_3 1_555 1_555
H4_3 N3_3 1_555 1_555
H5_3 N3_3 1_555 1_555
O1_3 Zn4_2 1_555 1_555
O3_3 C8_3 1_555 1_555
O4_2 C8_3 1_555 1_555
Zn8_2 N2_3 1_555 1_555
O12_2 Zn6 1_555 1_555
C5_3 C6_3 1_555 1_555
C7_3 O1_3 1_555 1_555
C10_3 C11_3 1_555 1_555
C13_3 C12_3 1_555 1_555
H7_3 C13_3 1_555 1_555
C14_3 C13_3 1_555 1_555
C15_3 C10_3 1_555 1_555
H8_3 C15_3 1_555 1_555
C16_3 C10_3 1_555 1_555
C17_3 C14_3 1_555 1_555
O9_2 C16_3 1_555 1_555
O7_3 C17_3 1_555 1_555
O8_3 C17_3 1_555 1_555
Zn8_2 O8_3 1_555 1_555
C11_3 C12_3 1_555 1_555
C14_3 C15_3 1_555 1_555
Zn5 N1_5 1_555 1_555
N1_5 C18_4 1_555 1_555
C18_4 N6 1_555 1_555
N5_4 C18_4 1_555 1_555
H9_4 N5_4 1_555 1_555
H10_4 N5_4 1_555 1_555
C10_4 C11_4 1_555 1_555
C13_4 C12_4 1_555 1_555
H7_4 C13_4 1_555 1_555
C14_4 C13_4 1_555 1_555
C15_4 C10_4 1_555 1_555
H8_4 C15_4 1_555 1_555
C16_4 C10_4 1_555 1_555
C17_4 C14_4 1_555 1_555
O9 C16_4 1_555 1_555
O7_4 C17_4 1_555 1_555
O8_4 C17_4 1_555 1_555
Zn8_3 O8_4 1_555 1_555
C11_4 C12_4 1_555 1_555
C14_4 C15_4 1_555 1_555
Zn5_2 N1_6 1_555 1_555
C1_4 C2_4 1_555 1_555
C3_4 C2_4 1_555 1_555
C4_4 C3_4 1_555 1_555
H2_4 C4_4 1_555 1_555
C5_4 C4_4 1_555 1_555
C6_4 C1_4 1_555 1_555
H3_4 C6_4 1_555 1_555
C7_4 C1_4 1_555 1_555
C8_4 C5_4 1_555 1_555
C9_4 N1_6 1_555 1_555
N2_4 C9_4 1_555 1_555
N3_4 C9_4 1_555 1_555
H4_4 N3_4 1_555 1_555
H5_4 N3_4 1_555 1_555
O1_4 Zn5_2 1_555 1_555
O3_4 C8_4 1_555 1_555
O12_2 C8_4 1_555 1_555
Zn8_3 N2_4 1_555 1_555
C5_4 C6_4 1_555 1_555
C7_4 O1_4 1_555 1_555
C19 H11 1_555 1_555
H12 C19 1_555 1_555
H13 C19 1_555 1_555
N8 C19 1_555 1_555
H14 N8 1_555 1_555
H15 N8 1_555 1_555
C20 N8 1_555 1_555
H16 C20 1_555 1_555
H17 C20 1_555 1_555
H18 C20 1_555 1_555
C19_2 H11_2 1_555 1_555
H12_2 C19_2 1_555 1_555
H13_2 C19_2 1_555 1_555
N8_2 C19_2 1_555 1_555
H14_2 N8_2 1_555 1_555
H15_2 N8_2 1_555 1_555
C20_2 N8_2 1_555 1_555
H16_2 C20_2 1_555 1_555
H17_2 C20_2 1_555 1_555
H18_2 C20_2 1_555 1_555
H14_3 N8_3 1_555 1_555
H15_3 N8_3 1_555 1_555
C20_3 N8_3 1_555 1_555
H16_3 C20_3 1_555 1_555
H17_3 C20_3 1_555 1_555
H18_3 C20_3 1_555 1_555
C19_3 H11_3 1_555 1_555
H12_3 C19_3 1_555 1_555
H13_3 C19_3 1_555 1_555
N8_4 C19_3 1_555 1_555
H14_4 N8_4 1_555 1_555
H15_4 N8_4 1_555 1_555
H14_5 N8_5 1_555 1_555
H15_5 N8_5 1_555 1_555
C20_4 N8_5 1_555 1_555
H16_4 C20_4 1_555 1_555
H17_4 C20_4 1_555 1_555
H18_4 C20_4 1_555 1_555
C19_4 H11_4 1_555 1_555
H12_4 C19_4 1_555 1_555
H13_4 C19_4 1_555 1_555
N8_6 C19_4 1_555 1_555
H14_6 N8_6 1_555 1_555
H15_6 N8_6 1_555 1_555

#END
