
###############################################################################
#
# This file contains modified crystal structure data generated from the
# MOF subset of the Cambridge Structural Database (CSD) v543 
# hosted by the Cambridge Crystallographic Data Centre (CCDC).
#
# This work is licensed under the Creative Commons
# Attribution-NonCommercial-ShareAlike 4.0 International License.
# To view a copy of this license, visit
# http://creativecommons.org/licenses/by-nc-sa/4.0/
# or send a letter to
# Creative Commons, PO Box 1866, Mountain View, CA 94042, USA.
#
# CIF created using the CSD Python API on 29 September 2022
# The structure has been converted into the P1 space group
# The structure has a 3D framework
# The original CSD entry QURSEC is in the orthorhombic crystal system
# The framework has been calculated to contain at least 10.0% void space
# The void calculation uses a probe of radius 1.32A, grid spacing 0.4
#
###############################################################################

data_QURSEC
_chemical_formula_moiety         '(C192 H128 N32 O64 Pd12 Zn8)n'
_symmetry_cell_setting           triclinic
_symmetry_space_group_name_H-M   'P 1'
_symmetry_Int_Tables_number      1
_space_group_name_Hall           'P 1'
loop_
_symmetry_equiv_pos_site_id
_symmetry_equiv_pos_as_xyz
1 x,y,z
_cell_length_a                   16.958(9)
_cell_length_b                   18.523(9)
_cell_length_c                   25.085(12)
_cell_angle_alpha                90
_cell_angle_beta                 90
_cell_angle_gamma                90
_cell_volume                     7879.53
loop_
_atom_site_label
_atom_site_type_symbol
_atom_site_fract_x
_atom_site_fract_y
_atom_site_fract_z
Pd1 Pd 0.5000 0.2500 0.08808(3)
O1 O 0.6934(3) 0.4299(3) 0.2927(2)
O2 O 0.6218(4) 0.5197(3) 0.2634(3)
N1 N 0.4565(3) 0.1841(3) 0.0312(2)
N2 N 0.5442(3) 0.3167(3) 0.1458(2)
C1 C 0.5177(4) 0.3846(4) 0.1497(3)
C2 C 0.5499(4) 0.4325(4) 0.1878(3)
C3 C 0.6092(4) 0.4078(4) 0.2209(2)
C4 C 0.6439(5) 0.4578(4) 0.2624(3)
C5 C 0.6355(4) 0.3391(4) 0.2138(3)
C6 C 0.6023(4) 0.2929(4) 0.1768(2)
C7 C 0.5022(4) 0.1314(4) 0.0107(3)
C11 C 0.3828(4) 0.1943(4) 0.0134(3)
H1 H 0.6206 0.2446 0.1736
H2 H 0.6779 0.3222 0.2352
H3 H 0.5309 0.4805 0.1907
H4 H 0.4767 0.4004 0.1267
H5 H 0.3521 0.2331 0.0268
H8 H 0.5552 0.1264 0.0224
Zn2 Zn 0.7500 0.5000 0.33752(4)
N3 N 0.5435(3) 0.3159(3) 0.0312(2)
N4 N 0.4558(3) 0.1833(3) 0.1458(2)
C19 C 0.4978(4) 0.3686(4) 0.0107(3)
C23 C 0.6172(4) 0.3057(4) 0.0134(3)
H13 H 0.6479 0.2669 0.0268
H16 H 0.4448 0.3736 0.0224
Zn1 Zn 0.2500 0.0000 0.83752(4)
O3 O 0.3070(3) 0.0667(2) 0.8848(2)
C8 C 0.4717(4) 0.0845(4) 0.9722(3)
C9 C 0.3948(4) 0.0936(4) 0.9536(3)
C10 C 0.3524(5) 0.1485(5) 0.9743(3)
C12 C 0.3612(4) 0.0429(4) 0.9141(2)
H6 H 0.2998 0.1555 0.9623
H7 H 0.5034 0.0464 0.9587
Zn3 Zn 0.7500 0.5000 0.83752(4)
O5 O 0.1934(3) 0.0701(3) 0.7927(2)
O7 O 0.3782(4) 0.0197(3) 0.7634(3)
O8 O 0.6930(3) 0.4333(2) 0.8848(2)
O10 O 0.6133(3) 0.5213(3) 0.9123(2)
C20 C 0.5283(4) 0.4155(4) 0.9722(3)
C21 C 0.6052(4) 0.4064(4) 0.9536(3)
C22 C 0.6476(5) 0.3515(5) 0.9743(3)
C24 C 0.6388(4) 0.4571(4) 0.9141(2)
H14 H 0.7002 0.3445 0.9623
H15 H 0.4966 0.4536 0.9587
Zn1_2 Zn 0.2500 1.0000 0.83752(4)
O4 O 0.3867(3) 0.9787(3) 0.9123(2)
Pd2 Pd 0.5000 0.7500 0.58808(3)
O6 O 0.3066(3) 0.9299(3) 0.7927(2)
O9 O 0.1930(3) 0.9333(2) 0.8848(2)
N5 N 0.4558(3) 0.8167(3) 0.6458(2)
C13 C 0.4823(4) 0.8846(4) 0.6497(3)
C14 C 0.4501(4) 0.9325(4) 0.6878(3)
C15 C 0.3908(4) 0.9078(4) 0.7209(2)
C16 C 0.3561(5) 0.9578(4) 0.7624(3)
C17 C 0.3645(4) 0.8391(4) 0.7138(3)
C18 C 0.3977(4) 0.7929(4) 0.6768(2)
H9 H 0.3794 0.7446 0.6736
H10 H 0.3221 0.8222 0.7352
H11 H 0.4691 0.9805 0.6907
H12 H 0.5233 0.9004 0.6267
O1_2 O 0.3066(3) 0.0701(3) 0.2927(2)
C1_2 C 0.4823(4) 0.1154(4) 0.1497(3)
C2_2 C 0.4501(4) 0.0675(4) 0.1878(3)
C3_2 C 0.3908(4) 0.0922(4) 0.2209(2)
C4_2 C 0.3561(5) 0.0422(4) 0.2624(3)
C5_2 C 0.3645(4) 0.1609(4) 0.2138(3)
C6_2 C 0.3977(4) 0.2071(4) 0.1768(2)
H1_2 H 0.3794 0.2554 0.1736
H2_2 H 0.3221 0.1778 0.2352
H3_2 H 0.4691 0.0195 0.1907
H4_2 H 0.5233 0.0996 0.1267
Zn2_2 Zn 0.2500 0.0000 0.33752(4)
O5_2 O 0.8066(3) 0.4299(3) 0.7927(2)
O6_2 O 0.6934(3) 0.5701(3) 0.7927(2)
O7_2 O 0.6218(4) 0.4803(3) 0.7634(3)
O9_2 O 0.8070(3) 0.5667(2) 0.8848(2)
N5_2 N 0.5442(3) 0.6833(3) 0.6458(2)
C13_2 C 0.5177(4) 0.6154(4) 0.6497(3)
C14_2 C 0.5499(4) 0.5675(4) 0.6878(3)
C15_2 C 0.6092(4) 0.5922(4) 0.7209(2)
C16_2 C 0.6439(5) 0.5422(4) 0.7624(3)
C17_2 C 0.6355(4) 0.6609(4) 0.7138(3)
C18_2 C 0.6023(4) 0.7071(4) 0.6768(2)
H9_2 H 0.6206 0.7554 0.6736
H10_2 H 0.6779 0.6778 0.7352
H11_2 H 0.5309 0.5195 0.6907
H12_2 H 0.4767 0.5996 0.6267
O2_2 O 0.3782(4) 0.9803(3) 0.2634(3)
Zn2_3 Zn 0.2500 1.0000 0.33752(4)
O2_3 O 0.1218(4) 0.0197(3) 0.2634(3)
O10_2 O 0.1133(3) 0.0213(3) 0.9123(2)
Pd1_2 Pd 0.0000 0.7500 0.08808(3)
O1_3 O 0.1934(3) 0.9299(3) 0.2927(2)
N2_2 N 0.0442(3) 0.8167(3) 0.1458(2)
C1_3 C 0.0177(4) 0.8846(4) 0.1497(3)
C2_3 C 0.0499(4) 0.9325(4) 0.1878(3)
C3_3 C 0.1092(4) 0.9078(4) 0.2209(2)
C4_3 C 0.1439(5) 0.9578(4) 0.2624(3)
C5_3 C 0.1355(4) 0.8391(4) 0.2138(3)
C6_3 C 0.1023(4) 0.7929(4) 0.1768(2)
C7_2 C 0.0022(4) 0.6314(4) 0.0107(3)
H1_3 H 0.1206 0.7446 0.1736
H2_3 H 0.1779 0.8222 0.2352
H3_3 H 0.0309 0.9805 0.1907
H8_2 H 0.0552 0.6264 0.0224
N3_2 N 0.0435(3) 0.8159(3) 0.0312(2)
C23_2 C 0.1172(4) 0.8057(4) 0.0134(3)
H13_2 H 0.1479 0.7669 0.0268
H7_2 H 0.0034 0.5464 0.9587
Pd2_2 Pd 0.0000 0.2500 0.58808(3)
C20_2 C 0.0283(4) 0.9155(4) 0.9722(3)
C21_2 C 0.1052(4) 0.9064(4) 0.9536(3)
C22_2 C 0.1476(5) 0.8515(5) 0.9743(3)
C24_2 C 0.1388(4) 0.9571(4) 0.9141(2)
H12_3 H 0.0233 0.4004 0.6267
H14_2 H 0.2002 0.8445 0.9623
Pd1_3 Pd 1.0000 0.7500 0.08808(3)
N1_2 N 0.9565(3) 0.6841(3) 0.0312(2)
C11_2 C 0.8828(4) 0.6943(4) 0.0134(3)
H4_3 H 0.9767 0.9004 0.1267
H5_2 H 0.8521 0.7331 0.0268
N4_2 N 0.9558(3) 0.6833(3) 0.1458(2)
C19_2 C 0.9978(4) 0.8686(4) 0.0107(3)
H16_2 H 0.9448 0.8736 0.0224
O4_2 O 0.8867(3) 0.4787(3) 0.9123(2)
C8_2 C 0.9717(4) 0.5845(4) 0.9722(3)
C9_2 C 0.8948(4) 0.5936(4) 0.9536(3)
C10_2 C 0.8524(5) 0.6485(5) 0.9743(3)
C12_2 C 0.8612(4) 0.5429(4) 0.9141(2)
H6_2 H 0.7998 0.6555 0.9623
Pd2_3 Pd 1.0000 0.2500 0.58808(3)
O7_3 O 0.8782(4) 0.5197(3) 0.7634(3)
N5_3 N 0.9558(3) 0.3167(3) 0.6458(2)
C13_3 C 0.9823(4) 0.3846(4) 0.6497(3)
C14_3 C 0.9501(4) 0.4325(4) 0.6878(3)
C15_3 C 0.8908(4) 0.4078(4) 0.7209(2)
C16_3 C 0.8561(5) 0.4578(4) 0.7624(3)
C17_3 C 0.8645(4) 0.3391(4) 0.7138(3)
C18_3 C 0.8977(4) 0.2929(4) 0.6768(2)
H9_3 H 0.8794 0.2446 0.6736
H10_3 H 0.8221 0.3222 0.7352
H11_3 H 0.9691 0.4805 0.6907
H15_2 H 0.9966 0.9536 0.9587
N5_4 N 0.0442(3) 0.1833(3) 0.6458(2)
C13_4 C 0.0177(4) 0.1154(4) 0.6497(3)
C14_4 C 0.0499(4) 0.0675(4) 0.6878(3)
C15_4 C 0.1092(4) 0.0922(4) 0.7209(2)
C16_4 C 0.1439(5) 0.0422(4) 0.7624(3)
C17_4 C 0.1355(4) 0.1609(4) 0.7138(3)
C18_4 C 0.1023(4) 0.2071(4) 0.6768(2)
H9_4 H 0.1206 0.2554 0.6736
H10_4 H 0.1779 0.1778 0.7352
H11_4 H 0.0309 0.0195 0.6907
H4_4 H 0.0233 0.5996 0.1267
O7_4 O 0.1218(4) 0.9803(3) 0.7634(3)
H12_4 H 0.9767 0.0996 0.6267
O1_4 O 0.8066(3) 0.5701(3) 0.2927(2)
O2_4 O 0.8782(4) 0.4803(3) 0.2634(3)
C1_4 C 0.9823(4) 0.6154(4) 0.1497(3)
C2_4 C 0.9501(4) 0.5675(4) 0.1878(3)
C3_4 C 0.8908(4) 0.5922(4) 0.2209(2)
C4_4 C 0.8561(5) 0.5422(4) 0.2624(3)
C5_4 C 0.8645(4) 0.6609(4) 0.2138(3)
C6_4 C 0.8977(4) 0.7071(4) 0.1768(2)
H1_4 H 0.8794 0.7554 0.1736
H2_4 H 0.8221 0.6778 0.2352
H3_4 H 0.9691 0.5195 0.1907
O3_2 O 0.1930(3) 0.0667(2) 0.3848(2)
N1_3 N 0.0435(3) 0.1841(3) 0.5312(2)
C8_3 C 0.0283(4) 0.0845(4) 0.4722(3)
C9_3 C 0.1052(4) 0.0936(4) 0.4536(3)
C10_3 C 0.1476(5) 0.1485(5) 0.4743(3)
C11_3 C 0.1172(4) 0.1943(4) 0.5134(3)
C12_3 C 0.1388(4) 0.0429(4) 0.4141(2)
H5_3 H 0.1479 0.2331 0.5268
H6_3 H 0.2002 0.1555 0.4623
C19_3 C 0.0022(4) 0.3686(4) 0.5107(3)
H15_3 H 0.0034 0.4536 0.4587
H16_3 H 0.0552 0.3736 0.5224
O4_3 O 0.1133(3) 0.9787(3) 0.4123(2)
O9_3 O 0.3070(3) 0.9333(2) 0.3848(2)
C7_3 C 0.9978(4) 0.1314(4) 0.5107(3)
H7_3 H 0.9966 0.0464 0.4587
H8_3 H 0.9448 0.1264 0.5224
O8_2 O 0.8070(3) 0.4333(2) 0.3848(2)
O10_3 O 0.8867(3) 0.5213(3) 0.4123(2)
N3_3 N 0.9565(3) 0.3159(3) 0.5312(2)
C20_3 C 0.9717(4) 0.4155(4) 0.4722(3)
C21_3 C 0.8948(4) 0.4064(4) 0.4536(3)
C22_3 C 0.8524(5) 0.3515(5) 0.4743(3)
C23_3 C 0.8828(4) 0.3057(4) 0.5134(3)
C24_3 C 0.8612(4) 0.4571(4) 0.4141(2)
H13_3 H 0.8521 0.2669 0.5268
H14_3 H 0.7998 0.3445 0.4623
O9_4 O 0.6930(3) 0.5667(2) 0.3848(2)
O10_4 O 0.3867(3) 0.0213(3) 0.4123(2)
O4_4 O 0.6133(3) 0.4787(3) 0.4123(2)
N1_4 N 0.5435(3) 0.6841(3) 0.5312(2)
C7_4 C 0.4978(4) 0.6314(4) 0.5107(3)
C8_4 C 0.5283(4) 0.5845(4) 0.4722(3)
C9_4 C 0.6052(4) 0.5936(4) 0.4536(3)
C10_4 C 0.6476(5) 0.6485(5) 0.4743(3)
C11_4 C 0.6172(4) 0.6943(4) 0.5134(3)
C12_4 C 0.6388(4) 0.5429(4) 0.4141(2)
H5_4 H 0.6479 0.7331 0.5268
H6_4 H 0.7002 0.6555 0.4623
H7_4 H 0.4966 0.5464 0.4587
H8_4 H 0.4448 0.6264 0.5224
N3_4 N 0.4565(3) 0.8159(3) 0.5312(2)
C19_4 C 0.5022(4) 0.8686(4) 0.5107(3)
C20_4 C 0.4717(4) 0.9155(4) 0.4722(3)
C21_4 C 0.3948(4) 0.9064(4) 0.4536(3)
C22_4 C 0.3524(5) 0.8515(5) 0.4743(3)
C23_4 C 0.3828(4) 0.8057(4) 0.5134(3)
C24_4 C 0.3612(4) 0.9571(4) 0.4141(2)
H13_4 H 0.3521 0.7669 0.5268
H14_4 H 0.2998 0.8445 0.4623
H15_4 H 0.5034 0.9536 0.4587
H16_4 H 0.5552 0.8736 0.5224
Pd2_4 Pd 0.0000 0.2500 0.91192(3)
H12_5 H 0.0233 0.0996 0.8733
Pd1_4 Pd -0.0000 0.7500 0.41192(3)
O1_5 O 0.1934(3) 0.5701(3) 0.2073(2)
O2_5 O 0.1218(4) 0.4803(3) 0.2366(3)
N2_3 N 0.0442(3) 0.6833(3) 0.3542(2)
C1_5 C 0.0177(4) 0.6154(4) 0.3503(3)
C2_5 C 0.0499(4) 0.5675(4) 0.3122(3)
C3_5 C 0.1092(4) 0.5922(4) 0.2791(2)
C4_5 C 0.1439(5) 0.5422(4) 0.2376(3)
C5_5 C 0.1355(4) 0.6609(4) 0.2862(3)
C6_5 C 0.1023(4) 0.7071(4) 0.3232(2)
C7_5 C 0.0022(4) 0.8686(4) 0.4893(3)
H1_5 H 0.1206 0.7554 0.3264
H2_5 H 0.1779 0.6778 0.2648
H3_5 H 0.0309 0.5195 0.3093
H7_5 H 0.0034 0.9536 0.5413
H8_5 H 0.0552 0.8736 0.4776
Zn2_4 Zn 0.2500 0.5000 0.16248(4)
Zn3_2 Zn 0.2500 0.5000 0.66248(4)
O8_3 O 0.1930(3) 0.5667(2) 0.6152(2)
O10_5 O 0.1133(3) 0.4787(3) 0.5877(2)
N3_5 N 0.0435(3) 0.6841(3) 0.4688(2)
C20_5 C 0.0283(4) 0.5845(4) 0.5278(3)
C21_5 C 0.1052(4) 0.5936(4) 0.5464(3)
C22_5 C 0.1476(5) 0.6485(5) 0.5257(3)
C23_5 C 0.1172(4) 0.6943(4) 0.4866(3)
C24_5 C 0.1388(4) 0.5429(4) 0.5859(2)
H13_5 H 0.1479 0.7331 0.4732
H14_5 H 0.2002 0.6555 0.5377
Zn1_3 Zn 0.7500 0.0000 0.66248(4)
O4_5 O 0.8867(3) 0.0213(3) 0.5877(2)
Pd2_5 Pd 1.0000 0.2500 0.91192(3)
O6_3 O 0.8066(3) 0.0701(3) 0.7073(2)
O9_5 O 0.6930(3) 0.0667(2) 0.6152(2)
N5_5 N 0.9558(3) 0.1833(3) 0.8542(2)
C13_5 C 0.9823(4) 0.1154(4) 0.8503(3)
C14_5 C 0.9501(4) 0.0675(4) 0.8122(3)
C15_5 C 0.8908(4) 0.0922(4) 0.7791(2)
C16_5 C 0.8561(5) 0.0422(4) 0.7376(3)
C17_5 C 0.8645(4) 0.1609(4) 0.7862(3)
C18_5 C 0.8977(4) 0.2071(4) 0.8232(2)
H9_5 H 0.8794 0.2554 0.8264
H10_5 H 0.8221 0.1778 0.7648
H11_5 H 0.9691 0.0195 0.8093
Pd1_5 Pd 1.0000 0.7500 0.41192(3)
Zn1_4 Zn 0.7500 1.0000 0.66248(4)
O3_3 O 0.8070(3) 0.9333(2) 0.6152(2)
N1_5 N 0.9565(3) 0.8159(3) 0.4688(2)
C8_5 C 0.9717(4) 0.9155(4) 0.5278(3)
C9_5 C 0.8948(4) 0.9064(4) 0.5464(3)
C10_5 C 0.8524(5) 0.8515(5) 0.5257(3)
C11_5 C 0.8828(4) 0.8057(4) 0.4866(3)
C12_5 C 0.8612(4) 0.9571(4) 0.5859(2)
H4_5 H 0.9767 0.5996 0.3733
H5_5 H 0.8521 0.7669 0.4732
H6_5 H 0.7998 0.8445 0.5377
O5_3 O 0.6934(3) 0.9299(3) 0.7073(2)
O7_5 O 0.8782(4) 0.9803(3) 0.7366(3)
N4_3 N 0.9558(3) 0.8167(3) 0.3542(2)
C19_5 C 0.9978(4) 0.6314(4) 0.4893(3)
H15_5 H 0.9966 0.5464 0.5413
H16_5 H 0.9448 0.6264 0.4776
H4_6 H 0.0233 0.9004 0.3733
O5_4 O 0.3066(3) 0.5701(3) 0.7073(2)
O6_4 O 0.1934(3) 0.4299(3) 0.7073(2)
O7_6 O 0.1218(4) 0.5197(3) 0.7366(3)
O9_6 O 0.3070(3) 0.4333(2) 0.6152(2)
N5_6 N 0.0442(3) 0.3167(3) 0.8542(2)
C13_6 C 0.0177(4) 0.3846(4) 0.8503(3)
C14_6 C 0.0499(4) 0.4325(4) 0.8122(3)
C15_6 C 0.1092(4) 0.4078(4) 0.7791(2)
C16_6 C 0.1439(5) 0.4578(4) 0.7376(3)
C17_6 C 0.1355(4) 0.3391(4) 0.7862(3)
C18_6 C 0.1023(4) 0.2929(4) 0.8232(2)
H9_6 H 0.1206 0.2446 0.8264
H10_6 H 0.1779 0.3222 0.7648
H11_6 H 0.0309 0.4805 0.8093
O2_6 O 0.8782(4) 0.0197(3) 0.2366(3)
Zn2_5 Zn 0.7500 -0.0000 0.16248(4)
O1_6 O 0.8066(3) 0.9299(3) 0.2073(2)
C1_6 C 0.9823(4) 0.8846(4) 0.3503(3)
C2_6 C 0.9501(4) 0.9325(4) 0.3122(3)
C3_6 C 0.8908(4) 0.9078(4) 0.2791(2)
C4_6 C 0.8561(5) 0.9578(4) 0.2376(3)
C5_6 C 0.8645(4) 0.8391(4) 0.2862(3)
C6_6 C 0.8977(4) 0.7929(4) 0.3232(2)
H1_6 H 0.8794 0.7446 0.3264
H2_6 H 0.8221 0.8222 0.2648
H3_6 H 0.9691 0.9805 0.3093
Zn2_6 Zn 0.7500 1.0000 0.16248(4)
H12_6 H 0.9767 0.4004 0.8733
Pd1_6 Pd 0.5000 0.2500 0.41192(3)
O1_7 O 0.6934(3) 0.0701(3) 0.2073(2)
O4_6 O 0.3867(3) 0.5213(3) 0.5877(2)
N1_6 N 0.4565(3) 0.3159(3) 0.4688(2)
N2_4 N 0.5442(3) 0.1833(3) 0.3542(2)
C1_7 C 0.5177(4) 0.1154(4) 0.3503(3)
C2_7 C 0.5499(4) 0.0675(4) 0.3122(3)
C3_7 C 0.6092(4) 0.0922(4) 0.2791(2)
C4_7 C 0.6439(5) 0.0422(4) 0.2376(3)
C5_7 C 0.6355(4) 0.1609(4) 0.2862(3)
C6_7 C 0.6023(4) 0.2071(4) 0.3232(2)
C7_6 C 0.5022(4) 0.3686(4) 0.4893(3)
C8_6 C 0.4717(4) 0.4155(4) 0.5278(3)
C9_6 C 0.3948(4) 0.4064(4) 0.5464(3)
C10_6 C 0.3524(5) 0.3515(5) 0.5257(3)
C11_6 C 0.3828(4) 0.3057(4) 0.4866(3)
C12_6 C 0.3612(4) 0.4571(4) 0.5859(2)
H1_7 H 0.6206 0.2554 0.3264
H2_7 H 0.6779 0.1778 0.2648
H3_7 H 0.5309 0.0195 0.3093
H4_7 H 0.4767 0.0996 0.3733
H5_6 H 0.3521 0.2669 0.4732
H6_6 H 0.2998 0.3445 0.5377
H7_6 H 0.5034 0.4536 0.5413
H8_6 H 0.5552 0.3736 0.4776
Pd2_6 Pd 0.5000 0.7500 0.91192(3)
O7_7 O 0.3782(4) 0.4803(3) 0.7366(3)
N3_6 N 0.5435(3) 0.1841(3) 0.4688(2)
N4_4 N 0.4558(3) 0.3167(3) 0.3542(2)
N5_7 N 0.4558(3) 0.6833(3) 0.8542(2)
C13_7 C 0.4823(4) 0.6154(4) 0.8503(3)
C14_7 C 0.4501(4) 0.5675(4) 0.8122(3)
C15_7 C 0.3908(4) 0.5922(4) 0.7791(2)
C16_7 C 0.3561(5) 0.5422(4) 0.7376(3)
C17_7 C 0.3645(4) 0.6609(4) 0.7862(3)
C18_7 C 0.3977(4) 0.7071(4) 0.8232(2)
C19_6 C 0.4978(4) 0.1314(4) 0.4893(3)
C20_6 C 0.5283(4) 0.0845(4) 0.5278(3)
C21_6 C 0.6052(4) 0.0936(4) 0.5464(3)
C22_6 C 0.6476(5) 0.1485(5) 0.5257(3)
C23_6 C 0.6172(4) 0.1943(4) 0.4866(3)
C24_6 C 0.6388(4) 0.0429(4) 0.5859(2)
H9_7 H 0.3794 0.7554 0.8264
H10_7 H 0.3221 0.6778 0.7648
H11_7 H 0.4691 0.5195 0.8093
H12_7 H 0.5233 0.5996 0.8733
H13_6 H 0.6479 0.2331 0.4732
H14_6 H 0.7002 0.1555 0.5377
H15_6 H 0.4966 0.0464 0.5413
H16_6 H 0.4448 0.1264 0.4776
O2_7 O 0.6218(4) 0.9803(3) 0.2366(3)
O10_6 O 0.6133(3) 0.9787(3) 0.5877(2)
O1_8 O 0.3066(3) 0.4299(3) 0.2073(2)
O2_8 O 0.3782(4) 0.5197(3) 0.2366(3)
C1_8 C 0.4823(4) 0.3846(4) 0.3503(3)
C2_8 C 0.4501(4) 0.4325(4) 0.3122(3)
C3_8 C 0.3908(4) 0.4078(4) 0.2791(2)
C4_8 C 0.3561(5) 0.4578(4) 0.2376(3)
C5_8 C 0.3645(4) 0.3391(4) 0.2862(3)
C6_8 C 0.3977(4) 0.2929(4) 0.3232(2)
H1_8 H 0.3794 0.2446 0.3264
H2_8 H 0.3221 0.3222 0.2648
H3_8 H 0.4691 0.4805 0.3093
H4_8 H 0.5233 0.4004 0.3733
O7_8 O 0.6218(4) 0.0197(3) 0.7366(3)
N5_8 N 0.5442(3) 0.8167(3) 0.8542(2)
C13_8 C 0.5177(4) 0.8846(4) 0.8503(3)
C14_8 C 0.5499(4) 0.9325(4) 0.8122(3)
C15_8 C 0.6092(4) 0.9078(4) 0.7791(2)
C16_8 C 0.6439(5) 0.9578(4) 0.7376(3)
C17_8 C 0.6355(4) 0.8391(4) 0.7862(3)
C18_8 C 0.6023(4) 0.7929(4) 0.8232(2)
H9_8 H 0.6206 0.7446 0.8264
H10_8 H 0.6779 0.8222 0.7648
H11_8 H 0.5309 0.9805 0.8093
H12_8 H 0.4767 0.9004 0.8733
O4_7 O 0.6133(3) 0.0213(3) 0.0877(2)
O9_7 O 0.8070(3) 0.0667(2) 0.1152(2)
O3_4 O 0.6930(3) 0.9333(2) 0.1152(2)
C8_7 C 0.5283(4) 0.9155(4) 0.0278(3)
C9_7 C 0.6052(4) 0.9064(4) 0.0464(3)
C10_7 C 0.6476(5) 0.8515(5) 0.0257(3)
C12_7 C 0.6388(4) 0.9571(4) 0.0859(2)
H6_7 H 0.7002 0.8445 0.0377
H7_7 H 0.4966 0.9536 0.0413
O8_4 O 0.3070(3) 0.5667(2) 0.1152(2)
O10_7 O 0.3867(3) 0.4787(3) 0.0877(2)
C20_7 C 0.4717(4) 0.5845(4) 0.0278(3)
C21_7 C 0.3948(4) 0.5936(4) 0.0464(3)
C22_7 C 0.3524(5) 0.6485(5) 0.0257(3)
C24_7 C 0.3612(4) 0.5429(4) 0.0859(2)
H14_7 H 0.2998 0.6555 0.0377
H15_7 H 0.5034 0.5464 0.0413
N1_7 N 0.5435(3) 0.8159(3) 0.9688(2)
C7_7 C 0.4978(4) 0.8686(4) 0.9893(3)
C11_7 C 0.6172(4) 0.8057(4) 0.9866(3)
H5_7 H 0.6479 0.7669 0.9732
H8_7 H 0.4448 0.8736 0.9776
N3_7 N 0.4565(3) 0.6841(3) 0.9688(2)
C19_7 C 0.5022(4) 0.6314(4) 0.9893(3)
C23_7 C 0.3828(4) 0.6943(4) 0.9866(3)
H13_7 H 0.3521 0.7331 0.9732
H16_7 H 0.5552 0.6264 0.9776
O9_8 O 0.1930(3) 0.4333(2) 0.1152(2)
O4_8 O 0.1133(3) 0.5213(3) 0.0877(2)
C8_8 C 0.0283(4) 0.4155(4) 0.0278(3)
C9_8 C 0.1052(4) 0.4064(4) 0.0464(3)
C10_8 C 0.1476(5) 0.3515(5) 0.0257(3)
C12_8 C 0.1388(4) 0.4571(4) 0.0859(2)
H6_8 H 0.2002 0.3445 0.0377
H15_8 H 0.0034 0.0464 0.0413
N1_8 N 0.0435(3) 0.3159(3) 0.9688(2)
C11_8 C 0.1172(4) 0.3057(4) 0.9866(3)
H5_8 H 0.1479 0.2669 0.9732
C19_8 C 0.0022(4) 0.1314(4) 0.9893(3)
H16_8 H 0.0552 0.1264 0.9776
H7_8 H 0.9966 0.4536 0.0413
C20_8 C 0.9717(4) 0.0845(4) 0.0278(3)
C21_8 C 0.8948(4) 0.0936(4) 0.0464(3)
C22_8 C 0.8524(5) 0.1485(5) 0.0257(3)
C24_8 C 0.8612(4) 0.0429(4) 0.0859(2)
H14_8 H 0.7998 0.1555 0.0377
C7_8 C 0.9978(4) 0.3686(4) 0.9893(3)
H8_8 H 0.9448 0.3736 0.9776
N3_8 N 0.9565(3) 0.1841(3) 0.9688(2)
C23_8 C 0.8828(4) 0.1943(4) 0.9866(3)
H13_8 H 0.8521 0.2331 0.9732
O10_8 O 0.8867(3) 0.9787(3) 0.0877(2)
loop_
_geom_bond_atom_site_label_1
_geom_bond_atom_site_label_2
_geom_bond_site_symmetry_1
_geom_bond_site_symmetry_2
Pd1 N1 1_555 1_555
O1 C4 1_555 1_555
O2 C4 1_555 1_555
N1 C7 1_555 1_555
N2 Pd1 1_555 1_555
C1 N2 1_555 1_555
C2 C1 1_555 1_555
C3 C2 1_555 1_555
C4 C3 1_555 1_555
C5 C3 1_555 1_555
C6 N2 1_555 1_555
C11 N1 1_555 1_555
H1 C6 1_555 1_555
H2 C5 1_555 1_555
H3 C2 1_555 1_555
H4 C1 1_555 1_555
H5 C11 1_555 1_555
H8 C7 1_555 1_555
Zn2 O1 1_555 1_555
N3 Pd1 1_555 1_555
N4 Pd1 1_555 1_555
C19 N3 1_555 1_555
C23 N3 1_555 1_555
H13 C23 1_555 1_555
H16 C19 1_555 1_555
C5 C6 1_555 1_555
Zn1 O3 1_555 1_555
O3 C12 1_555 1_555
C8 C9 1_555 1_555
C9 C10 1_555 1_555
C12 C9 1_555 1_555
H6 C10 1_555 1_555
H7 C8 1_555 1_555
Zn3 O8 1_555 1_555
O5 Zn1 1_555 1_555
O8 C24 1_555 1_555
O10 C24 1_555 1_555
C21 C20 1_555 1_555
C22 C21 1_555 1_555
C24 C21 1_555 1_555
H14 C22 1_555 1_555
H15 C20 1_555 1_555
Pd2 N5 1_555 1_555
O6 Zn1_2 1_555 1_555
O9 Zn1_2 1_555 1_555
N5 C13 1_555 1_555
C13 C14 1_555 1_555
C14 C15 1_555 1_555
C15 C16 1_555 1_555
C16 O6 1_555 1_555
C17 C15 1_555 1_555
C18 N5 1_555 1_555
H9 C18 1_555 1_555
H10 C17 1_555 1_555
H11 C14 1_555 1_555
H12 C13 1_555 1_555
C17 C18 1_555 1_555
O1_2 C4_2 1_555 1_555
C1_2 N4 1_555 1_555
C2_2 C1_2 1_555 1_555
C3_2 C2_2 1_555 1_555
C4_2 C3_2 1_555 1_555
C5_2 C3_2 1_555 1_555
C6_2 N4 1_555 1_555
H1_2 C6_2 1_555 1_555
H2_2 C5_2 1_555 1_555
H3_2 C2_2 1_555 1_555
H4_2 C1_2 1_555 1_555
Zn2_2 O1_2 1_555 1_555
C5_2 C6_2 1_555 1_555
Pd2 N5_2 1_555 1_555
O5_2 Zn3 1_555 1_555
O6_2 Zn3 1_555 1_555
O7_2 C16_2 1_555 1_555
O9_2 Zn3 1_555 1_555
N5_2 C13_2 1_555 1_555
C13_2 C14_2 1_555 1_555
C14_2 C15_2 1_555 1_555
C15_2 C16_2 1_555 1_555
C16_2 O6_2 1_555 1_555
C17_2 C15_2 1_555 1_555
C18_2 N5_2 1_555 1_555
H9_2 C18_2 1_555 1_555
H10_2 C17_2 1_555 1_555
H11_2 C14_2 1_555 1_555
H12_2 C13_2 1_555 1_555
C17_2 C18_2 1_555 1_555
O1_3 C4_3 1_555 1_555
N2_2 Pd1_2 1_555 1_555
C1_3 N2_2 1_555 1_555
C2_3 C1_3 1_555 1_555
C3_3 C2_3 1_555 1_555
C4_3 C3_3 1_555 1_555
C5_3 C3_3 1_555 1_555
C6_3 N2_2 1_555 1_555
H1_3 C6_3 1_555 1_555
H2_3 C5_3 1_555 1_555
H3_3 C2_3 1_555 1_555
H8_2 C7_2 1_555 1_555
Zn2_3 O1_3 1_555 1_555
N3_2 Pd1_2 1_555 1_555
C23_2 N3_2 1_555 1_555
H13_2 C23_2 1_555 1_555
C5_3 C6_3 1_555 1_555
O9 C24_2 1_555 1_555
C21_2 C20_2 1_555 1_555
C22_2 C21_2 1_555 1_555
C24_2 C21_2 1_555 1_555
H14_2 C22_2 1_555 1_555
Pd1_3 N1_2 1_555 1_555
C11_2 N1_2 1_555 1_555
H5_2 C11_2 1_555 1_555
N4_2 Pd1_3 1_555 1_555
H16_2 C19_2 1_555 1_555
O9_2 C12_2 1_555 1_555
O4_2 C12_2 1_555 1_555
C8_2 C9_2 1_555 1_555
C9_2 C10_2 1_555 1_555
C12_2 C9_2 1_555 1_555
H6_2 C10_2 1_555 1_555
Pd2_3 N5_3 1_555 1_555
O7_3 C16_3 1_555 1_555
N5_3 C13_3 1_555 1_555
C13_3 C14_3 1_555 1_555
C14_3 C15_3 1_555 1_555
C15_3 C16_3 1_555 1_555
C16_3 O5_2 1_555 1_555
C17_3 C15_3 1_555 1_555
C18_3 N5_3 1_555 1_555
H9_3 C18_3 1_555 1_555
H10_3 C17_3 1_555 1_555
H11_3 C14_3 1_555 1_555
C17_3 C18_3 1_555 1_555
Pd2_2 N5_4 1_555 1_555
N5_4 C13_4 1_555 1_555
C13_4 C14_4 1_555 1_555
C14_4 C15_4 1_555 1_555
C15_4 C16_4 1_555 1_555
C16_4 O5 1_555 1_555
C17_4 C15_4 1_555 1_555
C18_4 N5_4 1_555 1_555
H9_4 C18_4 1_555 1_555
H10_4 C17_4 1_555 1_555
H11_4 C14_4 1_555 1_555
C17_4 C18_4 1_555 1_555
O1_4 C4_4 1_555 1_555
O2_4 C4_4 1_555 1_555
C1_4 N4_2 1_555 1_555
C2_4 C1_4 1_555 1_555
C3_4 C2_4 1_555 1_555
C4_4 C3_4 1_555 1_555
C5_4 C3_4 1_555 1_555
C6_4 N4_2 1_555 1_555
H1_4 C6_4 1_555 1_555
H2_4 C5_4 1_555 1_555
H3_4 C2_4 1_555 1_555
Zn2 O1_4 1_555 1_555
C5_4 C6_4 1_555 1_555
Pd2_2 N1_3 1_555 1_555
Zn2_2 O3_2 1_555 1_555
O3_2 C12_3 1_555 1_555
C8_3 C9_3 1_555 1_555
C9_3 C10_3 1_555 1_555
C10_3 C11_3 1_555 1_555
C11_3 N1_3 1_555 1_555
C12_3 C9_3 1_555 1_555
H5_3 C11_3 1_555 1_555
H6_3 C10_3 1_555 1_555
H16_3 C19_3 1_555 1_555
O9_3 Zn2_3 1_555 1_555
H8_3 C7_3 1_555 1_555
Zn2 O8_2 1_555 1_555
O8_2 C24_3 1_555 1_555
O10_3 C24_3 1_555 1_555
N3_3 Pd2_3 1_555 1_555
C21_3 C20_3 1_555 1_555
C22_3 C21_3 1_555 1_555
C23_3 N3_3 1_555 1_555
C24_3 C21_3 1_555 1_555
H13_3 C23_3 1_555 1_555
H14_3 C22_3 1_555 1_555
C22_3 C23_3 1_555 1_555
O9_4 Zn2 1_555 1_555
Pd2 N1_4 1_555 1_555
O9_4 C12_4 1_555 1_555
O4_4 C12_4 1_555 1_555
N1_4 C7_4 1_555 1_555
C7_4 C8_4 1_555 1_555
C8_4 C9_4 1_555 1_555
C9_4 C10_4 1_555 1_555
C10_4 C11_4 1_555 1_555
C11_4 N1_4 1_555 1_555
C12_4 C9_4 1_555 1_555
H5_4 C11_4 1_555 1_555
H6_4 C10_4 1_555 1_555
H7_4 C8_4 1_555 1_555
H8_4 C7_4 1_555 1_555
O9_3 C24_4 1_555 1_555
N3_4 Pd2 1_555 1_555
C19_4 N3_4 1_555 1_555
C20_4 C19_4 1_555 1_555
C21_4 C20_4 1_555 1_555
C22_4 C21_4 1_555 1_555
C23_4 N3_4 1_555 1_555
C24_4 C21_4 1_555 1_555
H13_4 C23_4 1_555 1_555
H14_4 C22_4 1_555 1_555
H15_4 C20_4 1_555 1_555
H16_4 C19_4 1_555 1_555
C22_4 C23_4 1_555 1_555
O1_5 C4_5 1_555 1_555
O2_5 C4_5 1_555 1_555
N2_3 Pd1_4 1_555 1_555
C1_5 N2_3 1_555 1_555
C2_5 C1_5 1_555 1_555
C3_5 C2_5 1_555 1_555
C4_5 C3_5 1_555 1_555
C5_5 C3_5 1_555 1_555
C6_5 N2_3 1_555 1_555
H1_5 C6_5 1_555 1_555
H2_5 C5_5 1_555 1_555
H3_5 C2_5 1_555 1_555
H8_5 C7_5 1_555 1_555
Zn2_4 O1_5 1_555 1_555
Zn3_2 O8_3 1_555 1_555
O8_3 C24_5 1_555 1_555
O10_5 C24_5 1_555 1_555
N3_5 Pd1_4 1_555 1_555
C21_5 C20_5 1_555 1_555
C22_5 C21_5 1_555 1_555
C23_5 N3_5 1_555 1_555
C24_5 C21_5 1_555 1_555
H13_5 C23_5 1_555 1_555
H14_5 C22_5 1_555 1_555
C5_5 C6_5 1_555 1_555
C22_5 C23_5 1_555 1_555
Pd2_5 N5_5 1_555 1_555
O6_3 Zn1_3 1_555 1_555
O9_5 Zn1_3 1_555 1_555
N5_5 C13_5 1_555 1_555
C13_5 C14_5 1_555 1_555
C14_5 C15_5 1_555 1_555
C15_5 C16_5 1_555 1_555
C16_5 O6_3 1_555 1_555
C17_5 C15_5 1_555 1_555
C18_5 N5_5 1_555 1_555
H9_5 C18_5 1_555 1_555
H10_5 C17_5 1_555 1_555
H11_5 C14_5 1_555 1_555
C17_5 C18_5 1_555 1_555
Pd1_5 N1_5 1_555 1_555
Zn1_4 O3_3 1_555 1_555
O3_3 C12_5 1_555 1_555
C8_5 C9_5 1_555 1_555
C9_5 C10_5 1_555 1_555
C10_5 C11_5 1_555 1_555
C11_5 N1_5 1_555 1_555
C12_5 C9_5 1_555 1_555
H5_5 C11_5 1_555 1_555
H6_5 C10_5 1_555 1_555
O5_3 Zn1_4 1_555 1_555
N4_3 Pd1_5 1_555 1_555
H16_5 C19_5 1_555 1_555
Pd2_4 N5_6 1_555 1_555
O5_4 Zn3_2 1_555 1_555
O6_4 Zn3_2 1_555 1_555
O7_6 C16_6 1_555 1_555
O9_6 Zn3_2 1_555 1_555
N5_6 C13_6 1_555 1_555
C13_6 C14_6 1_555 1_555
C14_6 C15_6 1_555 1_555
C15_6 C16_6 1_555 1_555
C16_6 O6_4 1_555 1_555
C17_6 C15_6 1_555 1_555
C18_6 N5_6 1_555 1_555
H9_6 C18_6 1_555 1_555
H10_6 C17_6 1_555 1_555
H11_6 C14_6 1_555 1_555
C17_6 C18_6 1_555 1_555
O1_6 C4_6 1_555 1_555
C1_6 N4_3 1_555 1_555
C2_6 C1_6 1_555 1_555
C3_6 C2_6 1_555 1_555
C4_6 C3_6 1_555 1_555
C5_6 C3_6 1_555 1_555
C6_6 N4_3 1_555 1_555
H1_6 C6_6 1_555 1_555
H2_6 C5_6 1_555 1_555
H3_6 C2_6 1_555 1_555
Zn2_6 O1_6 1_555 1_555
C5_6 C6_6 1_555 1_555
Pd1_6 N1_6 1_555 1_555
O1_7 C4_7 1_555 1_555
O9_6 C12_6 1_555 1_555
O4_6 C12_6 1_555 1_555
N1_6 C7_6 1_555 1_555
N2_4 Pd1_6 1_555 1_555
C1_7 N2_4 1_555 1_555
C2_7 C1_7 1_555 1_555
C3_7 C2_7 1_555 1_555
C4_7 C3_7 1_555 1_555
C5_7 C3_7 1_555 1_555
C6_7 N2_4 1_555 1_555
C7_6 C8_6 1_555 1_555
C8_6 C9_6 1_555 1_555
C9_6 C10_6 1_555 1_555
C10_6 C11_6 1_555 1_555
C11_6 N1_6 1_555 1_555
C12_6 C9_6 1_555 1_555
H1_7 C6_7 1_555 1_555
H2_7 C5_7 1_555 1_555
H3_7 C2_7 1_555 1_555
H4_7 C1_7 1_555 1_555
H5_6 C11_6 1_555 1_555
H6_6 C10_6 1_555 1_555
H7_6 C8_6 1_555 1_555
H8_6 C7_6 1_555 1_555
Pd2_6 N5_7 1_555 1_555
Zn2_5 O1_7 1_555 1_555
O7_7 C16_7 1_555 1_555
O9_5 C24_6 1_555 1_555
N3_6 Pd1_6 1_555 1_555
N4_4 Pd1_6 1_555 1_555
N5_7 C13_7 1_555 1_555
C13_7 C14_7 1_555 1_555
C14_7 C15_7 1_555 1_555
C15_7 C16_7 1_555 1_555
C16_7 O5_4 1_555 1_555
C17_7 C15_7 1_555 1_555
C18_7 N5_7 1_555 1_555
C19_6 N3_6 1_555 1_555
C20_6 C19_6 1_555 1_555
C21_6 C20_6 1_555 1_555
C22_6 C21_6 1_555 1_555
C23_6 N3_6 1_555 1_555
C24_6 C21_6 1_555 1_555
H9_7 C18_7 1_555 1_555
H10_7 C17_7 1_555 1_555
H11_7 C14_7 1_555 1_555
H12_7 C13_7 1_555 1_555
H13_6 C23_6 1_555 1_555
H14_6 C22_6 1_555 1_555
H15_6 C20_6 1_555 1_555
H16_6 C19_6 1_555 1_555
C5_7 C6_7 1_555 1_555
C17_7 C18_7 1_555 1_555
C22_6 C23_6 1_555 1_555
O1_8 C4_8 1_555 1_555
O2_8 C4_8 1_555 1_555
C1_8 N4_4 1_555 1_555
C2_8 C1_8 1_555 1_555
C3_8 C2_8 1_555 1_555
C4_8 C3_8 1_555 1_555
C5_8 C3_8 1_555 1_555
C6_8 N4_4 1_555 1_555
H1_8 C6_8 1_555 1_555
H2_8 C5_8 1_555 1_555
H3_8 C2_8 1_555 1_555
H4_8 C1_8 1_555 1_555
Zn2_4 O1_8 1_555 1_555
C5_8 C6_8 1_555 1_555
Pd2_6 N5_8 1_555 1_555
N5_8 C13_8 1_555 1_555
C13_8 C14_8 1_555 1_555
C14_8 C15_8 1_555 1_555
C15_8 C16_8 1_555 1_555
C16_8 O5_3 1_555 1_555
C17_8 C15_8 1_555 1_555
C18_8 N5_8 1_555 1_555
H9_8 C18_8 1_555 1_555
H10_8 C17_8 1_555 1_555
H11_8 C14_8 1_555 1_555
H12_8 C13_8 1_555 1_555
C17_8 C18_8 1_555 1_555
O9_7 Zn2_5 1_555 1_555
Zn2_6 O3_4 1_555 1_555
O3_4 C12_7 1_555 1_555
C8_7 C9_7 1_555 1_555
C9_7 C10_7 1_555 1_555
C12_7 C9_7 1_555 1_555
H6_7 C10_7 1_555 1_555
H7_7 C8_7 1_555 1_555
Zn2_4 O8_4 1_555 1_555
O8_4 C24_7 1_555 1_555
O10_7 C24_7 1_555 1_555
C21_7 C20_7 1_555 1_555
C22_7 C21_7 1_555 1_555
C24_7 C21_7 1_555 1_555
H14_7 C22_7 1_555 1_555
H15_7 C20_7 1_555 1_555
Pd2_6 N1_7 1_555 1_555
N1_7 C7_7 1_555 1_555
C11_7 N1_7 1_555 1_555
H5_7 C11_7 1_555 1_555
H8_7 C7_7 1_555 1_555
N3_7 Pd2_6 1_555 1_555
C19_7 N3_7 1_555 1_555
C23_7 N3_7 1_555 1_555
H13_7 C23_7 1_555 1_555
H16_7 C19_7 1_555 1_555
O9_8 Zn2_4 1_555 1_555
O9_8 C12_8 1_555 1_555
O4_8 C12_8 1_555 1_555
C8_8 C9_8 1_555 1_555
C9_8 C10_8 1_555 1_555
C12_8 C9_8 1_555 1_555
H6_8 C10_8 1_555 1_555
Pd2_4 N1_8 1_555 1_555
C11_8 N1_8 1_555 1_555
H5_8 C11_8 1_555 1_555
H16_8 C19_8 1_555 1_555
O9_7 C24_8 1_555 1_555
C21_8 C20_8 1_555 1_555
C22_8 C21_8 1_555 1_555
C24_8 C21_8 1_555 1_555
H14_8 C22_8 1_555 1_555
H8_8 C7_8 1_555 1_555
N3_8 Pd2_5 1_555 1_555
C23_8 N3_8 1_555 1_555
H13_8 C23_8 1_555 1_555

#END
