
###############################################################################
#
# This file contains modified crystal structure data generated from the
# MOF subset of the Cambridge Structural Database (CSD) v543 
# hosted by the Cambridge Crystallographic Data Centre (CCDC).
#
# This work is licensed under the Creative Commons
# Attribution-NonCommercial-ShareAlike 4.0 International License.
# To view a copy of this license, visit
# http://creativecommons.org/licenses/by-nc-sa/4.0/
# or send a letter to
# Creative Commons, PO Box 1866, Mountain View, CA 94042, USA.
#
# CIF created using the CSD Python API on 29 September 2022
# The structure has been converted into the P1 space group
# The structure has a 3D framework
# The original CSD entry QUSGAP is in the monoclinic crystal system
# The framework has been calculated to contain at least 10.0% void space
# The void calculation uses a probe of radius 1.32A, grid spacing 0.4
#
###############################################################################

data_QUSGAP
_chemical_formula_moiety         '(C288 H192 Cl48 N96 Zn24)n'
_symmetry_cell_setting           triclinic
_symmetry_space_group_name_H-M   'P 1'
_symmetry_Int_Tables_number      1
_space_group_name_Hall           'P 1'
loop_
_symmetry_equiv_pos_site_id
_symmetry_equiv_pos_as_xyz
1 x,y,z
_cell_length_a                   33.189(4)
_cell_length_b                   14.4658(13)
_cell_length_c                   31.999(5)
_cell_angle_alpha                90
_cell_angle_beta                 102.994(13)
_cell_angle_gamma                90
_cell_volume                     14969.5
loop_
_atom_site_label
_atom_site_type_symbol
_atom_site_fract_x
_atom_site_fract_y
_atom_site_fract_z
N11 N 0.4333(3) 0.0320(4) 0.4538(2)
C35 C 0.4093(4) 0.0209(7) 0.4813(4)
H23 H 0.388512 0.065721 0.481839
Zn5 Zn 0.41836(5) 0.13201(7) 0.40734(4)
Zn1 Zn 0.12009(3) 0.12447(6) 0.05470(3)
N1 N 0.3779(2) 0.0590(4) 0.3602(2)
C2 C 0.2194(2) 0.0581(4) 0.1608(2)
H1 H 0.238106 0.093375 0.181547
Cl2 Cl 0.10784(7) 0.25550(12) 0.08519(8)
C3 C 0.1893(2) 0.1020(4) 0.1306(2)
H2 H 0.187244 0.167432 0.131330
Cl3 Cl 0.38291(13) 0.24279(16) 0.42934(12)
N5 N 0.16284(18) 0.0546(4) 0.09995(19)
Cl4 Cl 0.47446(13) 0.1545(3) 0.38277(12)
C11 C 0.3553(3) 0.1041(4) 0.3268(2)
H6 H 0.356443 0.169765 0.326959
C13 C 0.3307(2) 0.0614(4) 0.2926(2)
H8 H 0.315019 0.096811 0.269579
N14 N 0.06907(19) 0.0416(4) 0.04929(19)
C29 C 0.0424(2) 0.0547(5) 0.0739(3)
H18 H 0.044799 0.109330 0.090698
C1 C 0.2223(2) 0.0359(4) 0.6608(2)
N2 N 0.30993(17) 0.1754(3) 0.75229(18)
N3 N 0.27518(17) 0.0362(3) 0.72602(17)
N4 N 0.2970(2) 0.5094(4) 0.7102(2)
C4 C 0.2539(2) 0.0853(4) 0.6936(2)
C5 C 0.1944(3) 0.0848(4) 0.6298(3)
H3 H 0.195075 0.150464 0.629323
N6 N 0.25718(18) 0.1761(3) 0.68812(19)
C6 C 0.1660(3) 0.0369(5) 0.6000(3)
H4 H 0.147637 0.070754 0.578318
C7 C 0.3287(2) 0.0338(4) 0.7914(2)
N7 N 0.45463(19) 0.6466(4) 0.5847(2)
C8 C 0.3032(2) 0.0850(4) 0.7542(2)
N8 N 0.4211(2) 0.7884(4) 0.5618(2)
C9 C 0.2857(2) 0.2179(4) 0.7188(2)
N9 N 0.3429(2) 0.6696(5) 0.6676(2)
C10 C 0.3518(3) 0.0818(4) 0.8260(3)
H5 H 0.351356 0.147440 0.826494
N10 N 0.47355(18) 0.7313(4) 0.52838(18)
C12 C 0.3752(3) 0.0330(5) 0.8596(3)
H7 H 0.390326 0.066393 0.883618
N12 N 0.56907(19) 0.4584(4) 0.54929(19)
C14 C 0.2706(3) 0.4628(5) 0.6802(3)
H9 H 0.254221 0.495624 0.656658
C15 C 0.2664(3) 0.3689(5) 0.6821(3)
H10 H 0.247005 0.337927 0.660241
C16 C 0.2897(2) 0.3191(4) 0.7154(2)
C17 C 0.3175(3) 0.3680(5) 0.7466(3)
H11 H 0.334722 0.336743 0.770121
C18 C 0.3196(3) 0.4627(5) 0.7429(3)
H12 H 0.338004 0.496057 0.764681
C19 C 0.3984(2) 0.6986(5) 0.6149(3)
C20 C 0.3608(3) 0.7411(8) 0.6069(4)
H13 H 0.352815 0.780917 0.582875
C21 C 0.3346(4) 0.7263(9) 0.6338(4)
H14 H 0.308906 0.758172 0.627979
C22 C 0.3799(5) 0.6286(11) 0.6759(6)
H15 H 0.387630 0.590909 0.700765
C23 C 0.4079(4) 0.6394(10) 0.6490(5)
H16 H 0.433171 0.605798 0.654518
C24 C 0.4260(2) 0.7124(5) 0.5855(3)
C25 C 0.4765(2) 0.6593(4) 0.5559(2)
C26 C 0.4455(2) 0.7949(5) 0.5349(2)
C27 C 0.5084(2) 0.5894(4) 0.5525(2)
C28 C 0.5113(2) 0.5071(5) 0.5763(3)
H17 H 0.492294 0.494286 0.593739
C29_2 C 0.5424(2) 0.4453(5) 0.5739(3)
H18_2 H 0.544799 0.390670 0.590698
C30 C 0.5653(2) 0.5346(5) 0.5248(2)
H19 H 0.583613 0.543815 0.506174
C31 C 0.5349(2) 0.6007(4) 0.5262(2)
H20 H 0.532798 0.654203 0.508639
C32 C 0.4422(3) 0.8802(5) 0.5074(2)
C33 C 0.4673(3) 0.8935(5) 0.4797(3)
H21 H 0.488340 0.849824 0.478466
C34 C 0.4622(3) 0.9705(5) 0.4531(3)
H22 H 0.480110 0.978922 0.434076
C36 C 0.4132(4) 0.9455(6) 0.5096(3)
H24 H 0.396091 0.940325 0.529685
Zn3 Zn 0.30181(4) 0.65068(7) 0.70568(5)
Cl5 Cl 0.24243(9) 0.70228(17) 0.66844(14)
Cl6 Cl 0.33033(14) 0.69699(19) 0.77103(11)
Zn4 Zn 0.62009(3) 0.37553(6) 0.55470(3)
N1_2 N 0.8779(2) 0.4410(4) 0.8602(2)
C1_2 C 0.7223(2) 0.5359(4) 0.6608(2)
Cl1 Cl 0.63881(8) 0.3899(2) 0.49281(8)
Zn2 Zn 0.91836(5) 0.36799(7) 0.90734(4)
N2_2 N 0.80993(17) 0.6754(3) 0.75229(18)
C2_2 C 0.7194(2) 0.4419(4) 0.6608(2)
H1_2 H 0.738106 0.406625 0.681547
Cl2_2 Cl 0.60784(7) 0.24450(12) 0.58519(8)
N3_2 N 0.77518(17) 0.5362(3) 0.72602(17)
C3_2 C 0.6893(2) 0.3980(4) 0.6306(2)
H2_2 H 0.687244 0.332568 0.631330
Cl3_2 Cl 0.88291(13) 0.25721(16) 0.92934(12)
C4_2 C 0.7539(2) 0.5853(4) 0.6936(2)
N5_2 N 0.66284(18) 0.4454(4) 0.59995(19)
C5_2 C 0.6944(3) 0.5848(4) 0.6298(3)
H3_2 H 0.695075 0.650464 0.629323
Cl4_2 Cl 0.97446(13) 0.3455(3) 0.88277(12)
N6_2 N 0.75718(18) 0.6761(3) 0.68812(19)
C6_2 C 0.6660(3) 0.5369(5) 0.6000(3)
H4_2 H 0.647637 0.570754 0.578318
C7_2 C 0.8287(2) 0.5338(4) 0.7914(2)
C8_2 C 0.8032(2) 0.5850(4) 0.7542(2)
C9_2 C 0.7857(2) 0.7179(4) 0.7188(2)
C10_2 C 0.8518(3) 0.5818(4) 0.8260(3)
H5_2 H 0.851356 0.647440 0.826494
C11_2 C 0.8553(3) 0.3959(4) 0.8268(2)
H6_2 H 0.856443 0.330235 0.826959
C12_2 C 0.8752(3) 0.5330(5) 0.8596(3)
H7_2 H 0.890326 0.566393 0.883618
C13_2 C 0.8307(2) 0.4386(4) 0.7926(2)
H8_2 H 0.815019 0.403189 0.769579
C14_2 C 0.7706(3) 0.9628(5) 0.6802(3)
H9_2 H 0.754221 0.995624 0.656658
C15_2 C 0.7664(3) 0.8689(5) 0.6821(3)
H10_2 H 0.747005 0.837927 0.660241
C16_2 C 0.7897(2) 0.8191(4) 0.7154(2)
C17_2 C 0.8175(3) 0.8680(5) 0.7466(3)
H11_2 H 0.834722 0.836743 0.770121
C18_2 C 0.8196(3) 0.9627(5) 0.7429(3)
H12_2 H 0.838004 0.996057 0.764681
H17_2 H 0.992294 0.994286 0.593739
N13 N 0.9333(3) 0.4680(4) 0.9538(2)
C33_2 C 0.9673(3) 0.6065(5) 0.9797(3)
H21_2 H 0.988340 0.650176 0.978466
C34_2 C 0.9622(3) 0.5295(5) 0.9531(3)
H22_2 H 0.980110 0.521078 0.934076
C35_2 C 0.9093(4) 0.4791(7) 0.9813(4)
H23_2 H 0.888512 0.434279 0.981839
Zn1_2 Zn 0.12009(3) 0.87553(6) 0.55470(3)
N1_3 N 0.3779(2) 0.9410(4) 0.8602(2)
Cl1_2 Cl 0.13881(8) 0.8899(2) 0.49281(8)
Zn2_2 Zn 0.41836(5) 0.86799(7) 0.90734(4)
C2_3 C 0.2194(2) 0.9419(4) 0.6608(2)
H1_3 H 0.238106 0.906625 0.681547
Cl2_3 Cl 0.10784(7) 0.74450(12) 0.58519(8)
C3_3 C 0.1893(2) 0.8980(4) 0.6306(2)
H2_3 H 0.187244 0.832568 0.631330
Cl3_3 Cl 0.38291(13) 0.75721(16) 0.92934(12)
N5_3 N 0.16284(18) 0.9454(4) 0.59995(19)
Cl4_3 Cl 0.47446(13) 0.8455(3) 0.88277(12)
C11_3 C 0.3553(3) 0.8959(4) 0.8268(2)
H6_3 H 0.356443 0.830235 0.826959
C13_3 C 0.3307(2) 0.9386(4) 0.7926(2)
H8_3 H 0.315019 0.903189 0.769579
N13_2 N 0.4333(3) 0.9680(4) 0.9538(2)
N14_2 N 0.06907(19) 0.9584(4) 0.54929(19)
C29_3 C 0.0424(2) 0.9453(5) 0.5739(3)
H18_3 H 0.044799 0.890670 0.590698
C35_3 C 0.4093(4) 0.9791(7) 0.9813(4)
H23_3 H 0.388512 0.934279 0.981839
N11_2 N 0.5667(3) 0.0320(4) 0.0462(2)
C35_4 C 0.5907(4) 0.0209(7) 0.0187(4)
H23_4 H 0.611488 0.065721 0.018161
Zn5_2 Zn 0.58164(5) 0.13201(7) 0.09266(4)
Zn1_3 Zn 0.87991(3) 0.12447(6) 0.44530(3)
N1_4 N 0.6221(2) 0.0590(4) 0.1398(2)
Cl1_3 Cl 0.86119(8) 0.1101(2) 0.50719(8)
C2_4 C 0.7806(2) 0.0581(4) 0.3392(2)
H1_4 H 0.761894 0.093375 0.318453
Cl2_4 Cl 0.89216(7) 0.25550(12) 0.41481(8)
C3_4 C 0.8107(2) 0.1020(4) 0.3694(2)
H2_4 H 0.812756 0.167432 0.368670
Cl3_4 Cl 0.61709(13) 0.24279(16) 0.07066(12)
N5_4 N 0.83716(18) 0.0546(4) 0.40005(19)
Cl4_4 Cl 0.52554(13) 0.1545(3) 0.11723(12)
C11_4 C 0.6447(3) 0.1041(4) 0.1732(2)
H6_4 H 0.643557 0.169765 0.173041
C13_4 C 0.6693(2) 0.0614(4) 0.2074(2)
H8_4 H 0.684981 0.096811 0.230421
N14_3 N 0.93093(19) 0.0416(4) 0.45071(19)
C29_4 C 0.9576(2) 0.0547(5) 0.4261(3)
H18_4 H 0.955201 0.109330 0.409302
C33_3 C 0.5327(3) 0.8935(5) 0.0203(3)
H21_3 H 0.511660 0.849824 0.021534
C34_3 C 0.5378(3) 0.9705(5) 0.0469(3)
H22_3 H 0.519890 0.978922 0.065924
C1_3 C 0.7777(2) 0.0359(4) 0.8392(2)
N2_3 N 0.69007(17) 0.1754(3) 0.74771(18)
N3_3 N 0.72482(17) 0.0362(3) 0.77398(17)
N4_2 N 0.7030(2) 0.5094(4) 0.7898(2)
C4_3 C 0.7461(2) 0.0853(4) 0.8064(2)
C5_3 C 0.8056(3) 0.0848(4) 0.8702(3)
H3_3 H 0.804925 0.150464 0.870677
N6_3 N 0.74282(18) 0.1761(3) 0.81188(19)
C6_3 C 0.8340(3) 0.0369(5) 0.9000(3)
H4_3 H 0.852363 0.070754 0.921682
C7_3 C 0.6713(2) 0.0338(4) 0.7086(2)
N7_2 N 0.54537(19) 0.6466(4) 0.9153(2)
C8_3 C 0.6968(2) 0.0850(4) 0.7458(2)
N8_2 N 0.5789(2) 0.7884(4) 0.9382(2)
C9_3 C 0.7143(2) 0.2179(4) 0.7812(2)
N9_2 N 0.6571(2) 0.6696(5) 0.8324(2)
C10_3 C 0.6482(3) 0.0818(4) 0.6740(3)
H5_3 H 0.648644 0.147440 0.673506
N10_2 N 0.52645(18) 0.7313(4) 0.97162(18)
C12_3 C 0.6248(3) 0.0330(5) 0.6404(3)
H7_3 H 0.609674 0.066393 0.616382
N12_2 N 0.43093(19) 0.4584(4) 0.95071(19)
C14_3 C 0.7294(3) 0.4628(5) 0.8198(3)
H9_3 H 0.745779 0.495624 0.843342
C15_3 C 0.7336(3) 0.3689(5) 0.8179(3)
H10_3 H 0.752995 0.337927 0.839759
C16_3 C 0.7103(2) 0.3191(4) 0.7846(2)
C17_3 C 0.6825(3) 0.3680(5) 0.7534(3)
H11_3 H 0.665278 0.336743 0.729879
C18_3 C 0.6804(3) 0.4627(5) 0.7571(3)
H12_3 H 0.661996 0.496057 0.735319
C19_2 C 0.6016(2) 0.6986(5) 0.8851(3)
C20_2 C 0.6392(3) 0.7411(8) 0.8931(4)
H13_2 H 0.647185 0.780917 0.917125
C21_2 C 0.6654(4) 0.7263(9) 0.8662(4)
H14_2 H 0.691094 0.758172 0.872021
C22_2 C 0.6201(5) 0.6286(11) 0.8241(6)
H15_2 H 0.612370 0.590909 0.799235
C23_2 C 0.5921(4) 0.6394(10) 0.8510(5)
H16_2 H 0.566829 0.605798 0.845482
C24_2 C 0.5740(2) 0.7124(5) 0.9145(3)
C25_2 C 0.5235(2) 0.6593(4) 0.9441(2)
C26_2 C 0.5545(2) 0.7949(5) 0.9651(2)
C27_2 C 0.4916(2) 0.5894(4) 0.9475(2)
C28_2 C 0.4887(2) 0.5071(5) 0.9237(3)
H17_3 H 0.507706 0.494286 0.906261
C29_5 C 0.4576(2) 0.4453(5) 0.9261(3)
H18_5 H 0.455201 0.390670 0.909302
C30_2 C 0.4347(2) 0.5346(5) 0.9752(2)
H19_2 H 0.416387 0.543815 0.993826
C31_2 C 0.4651(2) 0.6007(4) 0.9738(2)
H20_2 H 0.467202 0.654203 0.991361
C32_2 C 0.5578(3) 0.8802(5) 0.9926(2)
C36_2 C 0.5868(4) 0.9455(6) 0.9904(3)
H24_2 H 0.603909 0.940325 0.970315
Zn3_2 Zn 0.69819(4) 0.65068(7) 0.79432(5)
Cl5_2 Cl 0.75757(9) 0.70228(17) 0.83156(14)
Cl6_2 Cl 0.66967(14) 0.69699(19) 0.72897(11)
Zn4_2 Zn 0.37991(3) 0.37553(6) 0.94530(3)
N1_5 N 0.1221(2) 0.4410(4) 0.6398(2)
C1_4 C 0.2777(2) 0.5359(4) 0.8392(2)
Zn2_3 Zn 0.08164(5) 0.36799(7) 0.59266(4)
N2_4 N 0.19007(17) 0.6754(3) 0.74771(18)
C2_5 C 0.2806(2) 0.4419(4) 0.8392(2)
H1_5 H 0.261894 0.406625 0.818453
Cl2_5 Cl 0.39216(7) 0.24450(12) 0.91481(8)
N3_4 N 0.22482(17) 0.5362(3) 0.77398(17)
C3_5 C 0.3107(2) 0.3980(4) 0.8694(2)
H2_5 H 0.312756 0.332568 0.868670
Cl3_5 Cl 0.11709(13) 0.25721(16) 0.57066(12)
C4_4 C 0.2461(2) 0.5853(4) 0.8064(2)
N5_5 N 0.33716(18) 0.4454(4) 0.90005(19)
C5_4 C 0.3056(3) 0.5848(4) 0.8702(3)
H3_4 H 0.304925 0.650464 0.870677
Cl4_5 Cl 0.02554(13) 0.3455(3) 0.61723(12)
N6_4 N 0.24282(18) 0.6761(3) 0.81188(19)
C6_4 C 0.3340(3) 0.5369(5) 0.9000(3)
H4_4 H 0.352363 0.570754 0.921682
C7_4 C 0.1713(2) 0.5338(4) 0.7086(2)
C8_4 C 0.1968(2) 0.5850(4) 0.7458(2)
C9_4 C 0.2143(2) 0.7179(4) 0.7812(2)
C10_4 C 0.1482(3) 0.5818(4) 0.6740(3)
H5_4 H 0.148644 0.647440 0.673506
C11_5 C 0.1447(3) 0.3959(4) 0.6732(2)
H6_5 H 0.143557 0.330235 0.673041
C12_4 C 0.1248(3) 0.5330(5) 0.6404(3)
H7_4 H 0.109674 0.566393 0.616382
C13_5 C 0.1693(2) 0.4386(4) 0.7074(2)
H8_5 H 0.184981 0.403189 0.730421
C14_4 C 0.2294(3) 0.9628(5) 0.8198(3)
H9_4 H 0.245779 0.995624 0.843342
C15_4 C 0.2336(3) 0.8689(5) 0.8179(3)
H10_4 H 0.252995 0.837927 0.839759
C16_4 C 0.2103(2) 0.8191(4) 0.7846(2)
C17_4 C 0.1825(3) 0.8680(5) 0.7534(3)
H11_4 H 0.165278 0.836743 0.729879
C18_4 C 0.1804(3) 0.9627(5) 0.7571(3)
H12_4 H 0.161996 0.996057 0.735319
H17_4 H 0.007706 0.994286 0.906261
N13_3 N 0.0667(3) 0.4680(4) 0.5462(2)
N4_3 N 0.2030(2) 0.9906(4) 0.2898(2)
N7_3 N 0.04537(19) 0.8534(4) 0.4153(2)
N8_3 N 0.0789(2) 0.7116(4) 0.4382(2)
N9_3 N 0.1571(2) 0.8304(5) 0.3324(2)
N10_3 N 0.02645(18) 0.7687(4) 0.47162(18)
C19_3 C 0.1016(2) 0.8014(5) 0.3851(3)
C20_3 C 0.1392(3) 0.7589(8) 0.3931(4)
H13_3 H 0.147185 0.719083 0.417125
C21_3 C 0.1654(4) 0.7737(9) 0.3662(4)
H14_3 H 0.191094 0.741828 0.372021
C22_3 C 0.1201(5) 0.8714(11) 0.3241(6)
H15_3 H 0.112370 0.909091 0.299235
C23_3 C 0.0921(4) 0.8606(10) 0.3510(5)
H16_3 H 0.066829 0.894202 0.345482
C24_3 C 0.0740(2) 0.7876(5) 0.4145(3)
C25_3 C 0.0235(2) 0.8407(4) 0.4441(2)
C26_3 C 0.0545(2) 0.7051(5) 0.4651(2)
C32_3 C 0.0578(3) 0.6198(5) 0.4926(2)
C33_4 C 0.0327(3) 0.6065(5) 0.5203(3)
H21_4 H 0.011660 0.650176 0.521534
C34_4 C 0.0378(3) 0.5295(5) 0.5469(3)
H22_4 H 0.019890 0.521078 0.565924
C35_5 C 0.0907(4) 0.4791(7) 0.5187(4)
H23_5 H 0.111488 0.434279 0.518161
C36_3 C 0.0868(4) 0.5545(6) 0.4904(3)
H24_3 H 0.103909 0.559675 0.470315
Zn3_3 Zn 0.19819(4) 0.84932(7) 0.29432(5)
Cl5_3 Cl 0.25757(9) 0.79772(17) 0.33156(14)
Cl6_3 Cl 0.16967(14) 0.80301(19) 0.22897(11)
Cl1_4 Cl 0.86119(8) 0.8899(2) 0.00719(8)
Zn1_4 Zn 0.87991(3) 0.87553(6) 0.94530(3)
N1_6 N 0.6221(2) 0.9410(4) 0.6398(2)
Zn2_4 Zn 0.58164(5) 0.86799(7) 0.59266(4)
C2_6 C 0.7806(2) 0.9419(4) 0.8392(2)
H1_6 H 0.761894 0.906625 0.818453
Cl2_6 Cl 0.89216(7) 0.74450(12) 0.91481(8)
C3_6 C 0.8107(2) 0.8980(4) 0.8694(2)
H2_6 H 0.812756 0.832568 0.868670
Cl3_6 Cl 0.61709(13) 0.75721(16) 0.57066(12)
N5_6 N 0.83716(18) 0.9454(4) 0.90005(19)
Cl4_6 Cl 0.52554(13) 0.8455(3) 0.61723(12)
C11_6 C 0.6447(3) 0.8959(4) 0.6732(2)
H6_6 H 0.643557 0.830235 0.673041
C13_6 C 0.6693(2) 0.9386(4) 0.7074(2)
H8_6 H 0.684981 0.903189 0.730421
N13_4 N 0.5667(3) 0.9680(4) 0.5462(2)
N14_4 N 0.93093(19) 0.9584(4) 0.95071(19)
C29_6 C 0.9576(2) 0.9453(5) 0.9261(3)
H18_6 H 0.955201 0.890670 0.909302
C35_6 C 0.5907(4) 0.9791(7) 0.5187(4)
H23_6 H 0.611488 0.934279 0.518161
C27_3 C 0.0084(2) 0.0894(4) 0.5525(2)
C28_3 C 0.0113(2) 0.0071(5) 0.5763(3)
C30_3 C 0.0653(2) 0.0346(5) 0.5248(2)
H19_3 H 0.083613 0.043815 0.506174
C31_3 C 0.0349(2) 0.1007(4) 0.5262(2)
H20_3 H 0.032798 0.154203 0.508639
N4_4 N 0.7970(2) 0.0094(4) 0.7102(2)
N7_4 N 0.95463(19) 0.1466(4) 0.5847(2)
N8_4 N 0.9211(2) 0.2884(4) 0.5618(2)
N9_4 N 0.8429(2) 0.1696(5) 0.6676(2)
N10_4 N 0.97355(18) 0.2313(4) 0.52838(18)
N11_3 N 0.9333(3) 0.5320(4) 0.4538(2)
C19_4 C 0.8984(2) 0.1986(5) 0.6149(3)
C20_4 C 0.8608(3) 0.2411(8) 0.6069(4)
H13_4 H 0.852815 0.280917 0.582875
C21_4 C 0.8346(4) 0.2263(9) 0.6338(4)
H14_4 H 0.808906 0.258172 0.627979
C22_4 C 0.8799(5) 0.1286(11) 0.6759(6)
H15_4 H 0.887630 0.090909 0.700765
C23_4 C 0.9079(4) 0.1394(10) 0.6490(5)
H16_4 H 0.933171 0.105798 0.654518
C24_4 C 0.9260(2) 0.2124(5) 0.5855(3)
C25_4 C 0.9765(2) 0.1593(4) 0.5559(2)
C26_4 C 0.9455(2) 0.2949(5) 0.5349(2)
C32_4 C 0.9422(3) 0.3802(5) 0.5074(2)
C33_5 C 0.9673(3) 0.3935(5) 0.4797(3)
H21_5 H 0.988340 0.349824 0.478466
C34_5 C 0.9622(3) 0.4705(5) 0.4531(3)
H22_5 H 0.980110 0.478922 0.434076
C35_7 C 0.9093(4) 0.5209(7) 0.4813(4)
H23_7 H 0.888512 0.565721 0.481839
C36_4 C 0.9132(4) 0.4455(6) 0.5096(3)
H24_4 H 0.896091 0.440325 0.529685
Zn3_4 Zn 0.80181(4) 0.15068(7) 0.70568(5)
Cl5_4 Cl 0.74243(9) 0.20228(17) 0.66844(14)
Cl6_4 Cl 0.83033(14) 0.19699(19) 0.77103(11)
Zn5_3 Zn 0.91836(5) 0.63201(7) 0.40734(4)
C1_5 C 0.2223(2) 0.9641(4) 0.1608(2)
N2_5 N 0.30993(17) 0.8246(3) 0.25229(18)
N3_5 N 0.27518(17) 0.9638(3) 0.22602(17)
N4_5 N 0.2970(2) 0.4906(4) 0.2102(2)
C4_5 C 0.2539(2) 0.9147(4) 0.1936(2)
C5_5 C 0.1944(3) 0.9152(4) 0.1298(3)
H3_5 H 0.195075 0.849536 0.129323
N6_5 N 0.25718(18) 0.8239(3) 0.18812(19)
C6_5 C 0.1660(3) 0.9631(5) 0.1000(3)
H4_5 H 0.147637 0.929246 0.078318
C7_5 C 0.3287(2) 0.9662(4) 0.2914(2)
N7_5 N 0.45463(19) 0.3534(4) 0.0847(2)
C8_5 C 0.3032(2) 0.9150(4) 0.2542(2)
N8_5 N 0.4211(2) 0.2116(4) 0.0618(2)
C9_5 C 0.2857(2) 0.7821(4) 0.2188(2)
N9_5 N 0.3429(2) 0.3304(5) 0.1676(2)
C10_5 C 0.3518(3) 0.9182(4) 0.3260(3)
H5_5 H 0.351356 0.852560 0.326494
N10_5 N 0.47355(18) 0.2687(4) 0.02838(18)
C12_5 C 0.3752(3) 0.9670(5) 0.3596(3)
H7_5 H 0.390326 0.933607 0.383618
N12_3 N 0.56907(19) 0.5416(4) 0.04929(19)
C14_5 C 0.2706(3) 0.5372(5) 0.1802(3)
H9_5 H 0.254221 0.504376 0.156658
C15_5 C 0.2664(3) 0.6311(5) 0.1821(3)
H10_5 H 0.247005 0.662073 0.160241
C16_5 C 0.2897(2) 0.6809(4) 0.2154(2)
C17_5 C 0.3175(3) 0.6320(5) 0.2466(3)
H11_5 H 0.334722 0.663257 0.270121
C18_5 C 0.3196(3) 0.5373(5) 0.2429(3)
H12_5 H 0.338004 0.503943 0.264681
C19_5 C 0.3984(2) 0.3014(5) 0.1149(3)
C20_5 C 0.3608(3) 0.2589(8) 0.1069(4)
H13_5 H 0.352815 0.219083 0.082875
C21_5 C 0.3346(4) 0.2737(9) 0.1338(4)
H14_5 H 0.308906 0.241828 0.127979
C22_5 C 0.3799(5) 0.3714(11) 0.1759(6)
H15_5 H 0.387630 0.409091 0.200765
C23_5 C 0.4079(4) 0.3606(10) 0.1490(5)
H16_5 H 0.433171 0.394202 0.154518
C24_5 C 0.4260(2) 0.2876(5) 0.0855(3)
C25_5 C 0.4765(2) 0.3407(4) 0.0559(2)
C26_5 C 0.4455(2) 0.2051(5) 0.0349(2)
C27_4 C 0.5084(2) 0.4106(4) 0.0525(2)
C28_4 C 0.5113(2) 0.4929(5) 0.0763(3)
H17_5 H 0.492294 0.505714 0.093739
C29_7 C 0.5424(2) 0.5547(5) 0.0739(3)
H18_7 H 0.544799 0.609330 0.090698
C30_4 C 0.5653(2) 0.4654(5) 0.0248(2)
H19_4 H 0.583613 0.456185 0.006174
C31_4 C 0.5349(2) 0.3993(4) 0.0262(2)
H20_4 H 0.532798 0.345797 0.008639
C32_5 C 0.4422(3) 0.1198(5) 0.0074(2)
C36_5 C 0.4132(4) 0.0545(6) 0.0096(3)
H24_5 H 0.396091 0.059675 0.029685
Zn3_5 Zn 0.30181(4) 0.34932(7) 0.20568(5)
Cl5_5 Cl 0.24243(9) 0.29772(17) 0.16844(14)
Cl6_5 Cl 0.33033(14) 0.30301(19) 0.27103(11)
Zn4_3 Zn 0.62009(3) 0.62447(6) 0.05470(3)
N1_7 N 0.8779(2) 0.5590(4) 0.3602(2)
C1_6 C 0.7223(2) 0.4641(4) 0.1608(2)
N2_6 N 0.80993(17) 0.3246(3) 0.25229(18)
C2_7 C 0.7194(2) 0.5581(4) 0.1608(2)
H1_7 H 0.738106 0.593375 0.181547
Cl2_7 Cl 0.60784(7) 0.75550(12) 0.08519(8)
N3_6 N 0.77518(17) 0.4638(3) 0.22602(17)
C3_7 C 0.6893(2) 0.6020(4) 0.1306(2)
H2_7 H 0.687244 0.667432 0.131330
Cl3_7 Cl 0.88291(13) 0.74279(16) 0.42934(12)
C4_6 C 0.7539(2) 0.4147(4) 0.1936(2)
N5_7 N 0.66284(18) 0.5546(4) 0.09995(19)
C5_6 C 0.6944(3) 0.4152(4) 0.1298(3)
H3_6 H 0.695075 0.349536 0.129323
Cl4_7 Cl 0.97446(13) 0.6545(3) 0.38277(12)
N6_6 N 0.75718(18) 0.3239(3) 0.18812(19)
C6_6 C 0.6660(3) 0.4631(5) 0.1000(3)
H4_6 H 0.647637 0.429246 0.078318
C7_6 C 0.8287(2) 0.4662(4) 0.2914(2)
C8_6 C 0.8032(2) 0.4150(4) 0.2542(2)
C9_6 C 0.7857(2) 0.2821(4) 0.2188(2)
C10_6 C 0.8518(3) 0.4182(4) 0.3260(3)
H5_6 H 0.851356 0.352560 0.326494
C11_7 C 0.8553(3) 0.6041(4) 0.3268(2)
H6_7 H 0.856443 0.669765 0.326959
C12_6 C 0.8752(3) 0.4670(5) 0.3596(3)
H7_6 H 0.890326 0.433607 0.383618
C13_7 C 0.8307(2) 0.5614(4) 0.2926(2)
H8_7 H 0.815019 0.596811 0.269579
C14_6 C 0.7706(3) 0.0372(5) 0.1802(3)
H9_6 H 0.754221 0.004376 0.156658
C15_6 C 0.7664(3) 0.1311(5) 0.1821(3)
H10_6 H 0.747005 0.162073 0.160241
C16_6 C 0.7897(2) 0.1809(4) 0.2154(2)
C17_6 C 0.8175(3) 0.1320(5) 0.2466(3)
H11_6 H 0.834722 0.163257 0.270121
C18_6 C 0.8196(3) 0.0373(5) 0.2429(3)
H12_6 H 0.838004 0.003943 0.264681
H17_6 H 0.992294 0.005714 0.093739
N11_4 N 0.0667(3) 0.5320(4) 0.0462(2)
C33_6 C 0.0327(3) 0.3935(5) 0.0203(3)
H21_6 H 0.011660 0.349824 0.021534
C34_6 C 0.0378(3) 0.4705(5) 0.0469(3)
H22_6 H 0.019890 0.478922 0.065924
C35_8 C 0.0907(4) 0.5209(7) 0.0187(4)
H23_8 H 0.111488 0.565721 0.018161
Zn5_4 Zn 0.08164(5) 0.63201(7) 0.09266(4)
C1_7 C 0.7777(2) 0.9641(4) 0.3392(2)
N2_7 N 0.69007(17) 0.8246(3) 0.24771(18)
N3_7 N 0.72482(17) 0.9638(3) 0.27398(17)
N4_6 N 0.7030(2) 0.4906(4) 0.2898(2)
C4_7 C 0.7461(2) 0.9147(4) 0.3064(2)
C5_7 C 0.8056(3) 0.9152(4) 0.3702(3)
H3_7 H 0.804925 0.849536 0.370677
N6_7 N 0.74282(18) 0.8239(3) 0.31188(19)
C6_7 C 0.8340(3) 0.9631(5) 0.4000(3)
H4_7 H 0.852363 0.929246 0.421682
C7_7 C 0.6713(2) 0.9662(4) 0.2086(2)
N7_6 N 0.54537(19) 0.3534(4) 0.4153(2)
C8_7 C 0.6968(2) 0.9150(4) 0.2458(2)
N8_6 N 0.5789(2) 0.2116(4) 0.4382(2)
C9_7 C 0.7143(2) 0.7821(4) 0.2812(2)
N9_6 N 0.6571(2) 0.3304(5) 0.3324(2)
C10_7 C 0.6482(3) 0.9182(4) 0.1740(3)
H5_7 H 0.648644 0.852560 0.173506
N10_6 N 0.52645(18) 0.2687(4) 0.47162(18)
C12_7 C 0.6248(3) 0.9670(5) 0.1404(3)
H7_7 H 0.609674 0.933607 0.116382
N12_4 N 0.43093(19) 0.5416(4) 0.45071(19)
C14_7 C 0.7294(3) 0.5372(5) 0.3198(3)
H9_7 H 0.745779 0.504376 0.343342
C15_7 C 0.7336(3) 0.6311(5) 0.3179(3)
H10_7 H 0.752995 0.662073 0.339759
C16_7 C 0.7103(2) 0.6809(4) 0.2846(2)
C17_7 C 0.6825(3) 0.6320(5) 0.2534(3)
H11_7 H 0.665278 0.663257 0.229879
C18_7 C 0.6804(3) 0.5373(5) 0.2571(3)
H12_7 H 0.661996 0.503943 0.235319
C19_6 C 0.6016(2) 0.3014(5) 0.3851(3)
C20_6 C 0.6392(3) 0.2589(8) 0.3931(4)
H13_6 H 0.647185 0.219083 0.417125
C21_6 C 0.6654(4) 0.2737(9) 0.3662(4)
H14_6 H 0.691094 0.241828 0.372021
C22_6 C 0.6201(5) 0.3714(11) 0.3241(6)
H15_6 H 0.612370 0.409091 0.299235
C23_6 C 0.5921(4) 0.3606(10) 0.3510(5)
H16_6 H 0.566829 0.394202 0.345482
C24_6 C 0.5740(2) 0.2876(5) 0.4145(3)
C25_6 C 0.5235(2) 0.3407(4) 0.4441(2)
C26_6 C 0.5545(2) 0.2051(5) 0.4651(2)
C27_5 C 0.4916(2) 0.4106(4) 0.4475(2)
C28_5 C 0.4887(2) 0.4929(5) 0.4237(3)
H17_7 H 0.507706 0.505714 0.406261
C29_8 C 0.4576(2) 0.5547(5) 0.4261(3)
H18_8 H 0.455201 0.609330 0.409302
C30_5 C 0.4347(2) 0.4654(5) 0.4752(2)
H19_5 H 0.416387 0.456185 0.493826
C31_5 C 0.4651(2) 0.3993(4) 0.4738(2)
H20_5 H 0.467202 0.345797 0.491361
C32_6 C 0.5578(3) 0.1198(5) 0.4926(2)
C33_7 C 0.5327(3) 0.1065(5) 0.5203(3)
H21_7 H 0.511660 0.150176 0.521534
C34_7 C 0.5378(3) 0.0295(5) 0.5469(3)
H22_7 H 0.519890 0.021078 0.565924
C36_6 C 0.5868(4) 0.0545(6) 0.4904(3)
H24_6 H 0.603909 0.059675 0.470315
Zn3_6 Zn 0.69819(4) 0.34932(7) 0.29432(5)
Cl5_6 Cl 0.75757(9) 0.29772(17) 0.33156(14)
Cl6_6 Cl 0.66967(14) 0.30301(19) 0.22897(11)
Zn4_4 Zn 0.37991(3) 0.62447(6) 0.44530(3)
N1_8 N 0.1221(2) 0.5590(4) 0.1398(2)
C1_8 C 0.2777(2) 0.4641(4) 0.3392(2)
Cl1_5 Cl 0.36119(8) 0.6101(2) 0.50719(8)
N2_8 N 0.19007(17) 0.3246(3) 0.24771(18)
C2_8 C 0.2806(2) 0.5581(4) 0.3392(2)
H1_8 H 0.261894 0.593375 0.318453
Cl2_8 Cl 0.39216(7) 0.75550(12) 0.41481(8)
N3_8 N 0.22482(17) 0.4638(3) 0.27398(17)
C3_8 C 0.3107(2) 0.6020(4) 0.3694(2)
H2_8 H 0.312756 0.667432 0.368670
Cl3_8 Cl 0.11709(13) 0.74279(16) 0.07066(12)
C4_8 C 0.2461(2) 0.4147(4) 0.3064(2)
N5_8 N 0.33716(18) 0.5546(4) 0.40005(19)
C5_8 C 0.3056(3) 0.4152(4) 0.3702(3)
H3_8 H 0.304925 0.349536 0.370677
Cl4_8 Cl 0.02554(13) 0.6545(3) 0.11723(12)
N6_8 N 0.24282(18) 0.3239(3) 0.31188(19)
C6_8 C 0.3340(3) 0.4631(5) 0.4000(3)
H4_8 H 0.352363 0.429246 0.421682
C7_8 C 0.1713(2) 0.4662(4) 0.2086(2)
C8_8 C 0.1968(2) 0.4150(4) 0.2458(2)
C9_8 C 0.2143(2) 0.2821(4) 0.2812(2)
C10_8 C 0.1482(3) 0.4182(4) 0.1740(3)
H5_8 H 0.148644 0.352560 0.173506
C11_8 C 0.1447(3) 0.6041(4) 0.1732(2)
H6_8 H 0.143557 0.669765 0.173041
C12_8 C 0.1248(3) 0.4670(5) 0.1404(3)
H7_8 H 0.109674 0.433607 0.116382
C13_8 C 0.1693(2) 0.5614(4) 0.2074(2)
H8_8 H 0.184981 0.596811 0.230421
C14_8 C 0.2294(3) 0.0372(5) 0.3198(3)
H9_8 H 0.245779 0.004376 0.343342
C15_8 C 0.2336(3) 0.1311(5) 0.3179(3)
H10_8 H 0.252995 0.162073 0.339759
C16_8 C 0.2103(2) 0.1809(4) 0.2846(2)
C17_8 C 0.1825(3) 0.1320(5) 0.2534(3)
H11_8 H 0.165278 0.163257 0.229879
C18_8 C 0.1804(3) 0.0373(5) 0.2571(3)
H12_8 H 0.161996 0.003943 0.235319
H17_8 H 0.007706 0.005714 0.406261
N4_7 N 0.2030(2) 0.0094(4) 0.7898(2)
N7_7 N 0.04537(19) 0.1466(4) 0.9153(2)
N8_7 N 0.0789(2) 0.2884(4) 0.9382(2)
N9_7 N 0.1571(2) 0.1696(5) 0.8324(2)
N10_7 N 0.02645(18) 0.2313(4) 0.97162(18)
C19_7 C 0.1016(2) 0.1986(5) 0.8851(3)
C20_7 C 0.1392(3) 0.2411(8) 0.8931(4)
H13_7 H 0.147185 0.280917 0.917125
C21_7 C 0.1654(4) 0.2263(9) 0.8662(4)
H14_7 H 0.191094 0.258172 0.872021
C22_7 C 0.1201(5) 0.1286(11) 0.8241(6)
H15_7 H 0.112370 0.090909 0.799235
C23_7 C 0.0921(4) 0.1394(10) 0.8510(5)
H16_7 H 0.066829 0.105798 0.845482
C24_7 C 0.0740(2) 0.2124(5) 0.9145(3)
C25_7 C 0.0235(2) 0.1593(4) 0.9441(2)
C26_7 C 0.0545(2) 0.2949(5) 0.9651(2)
C32_7 C 0.0578(3) 0.3802(5) 0.9926(2)
C36_7 C 0.0868(4) 0.4455(6) 0.9904(3)
H24_7 H 0.103909 0.440325 0.970315
Zn3_7 Zn 0.19819(4) 0.15068(7) 0.79432(5)
Cl5_7 Cl 0.25757(9) 0.20228(17) 0.83156(14)
Cl6_7 Cl 0.16967(14) 0.19699(19) 0.72897(11)
Cl1_6 Cl 0.36119(8) 0.3899(2) 0.00719(8)
C27_6 C 0.9916(2) 0.0894(4) 0.9475(2)
C28_6 C 0.9887(2) 0.0071(5) 0.9237(3)
C30_6 C 0.9347(2) 0.0346(5) 0.9752(2)
H19_6 H 0.916387 0.043815 0.993826
C31_6 C 0.9651(2) 0.1007(4) 0.9738(2)
H20_6 H 0.967202 0.154203 0.991361
Cl1_7 Cl 0.13881(8) 0.1101(2) 0.99281(8)
C33_8 C 0.4673(3) 0.1065(5) 0.9797(3)
H21_8 H 0.488340 0.150176 0.978466
C34_8 C 0.4622(3) 0.0295(5) 0.9531(3)
H22_8 H 0.480110 0.021078 0.934076
C27_7 C 0.9916(2) 0.9106(4) 0.4475(2)
C28_7 C 0.9887(2) 0.9929(5) 0.4237(3)
C30_7 C 0.9347(2) 0.9654(5) 0.4752(2)
H19_7 H 0.916387 0.956185 0.493826
C31_7 C 0.9651(2) 0.8993(4) 0.4738(2)
H20_7 H 0.967202 0.845797 0.491361
C27_8 C 0.0084(2) 0.9106(4) 0.0525(2)
C28_8 C 0.0113(2) 0.9929(5) 0.0763(3)
C30_8 C 0.0653(2) 0.9654(5) 0.0248(2)
H19_8 H 0.083613 0.956185 0.006174
C31_8 C 0.0349(2) 0.8993(4) 0.0262(2)
H20_8 H 0.032798 0.845797 0.008639
Cl1_8 Cl 0.63881(8) 0.6101(2) 0.99281(8)
N4_8 N 0.7970(2) 0.9906(4) 0.2102(2)
N7_8 N 0.95463(19) 0.8534(4) 0.0847(2)
N8_8 N 0.9211(2) 0.7116(4) 0.0618(2)
N9_8 N 0.8429(2) 0.8304(5) 0.1676(2)
N10_8 N 0.97355(18) 0.7687(4) 0.02838(18)
C19_8 C 0.8984(2) 0.8014(5) 0.1149(3)
C20_8 C 0.8608(3) 0.7589(8) 0.1069(4)
H13_8 H 0.852815 0.719083 0.082875
C21_8 C 0.8346(4) 0.7737(9) 0.1338(4)
H14_8 H 0.808906 0.741828 0.127979
C22_8 C 0.8799(5) 0.8714(11) 0.1759(6)
H15_8 H 0.887630 0.909091 0.200765
C23_8 C 0.9079(4) 0.8606(10) 0.1490(5)
H16_8 H 0.933171 0.894202 0.154518
C24_8 C 0.9260(2) 0.7876(5) 0.0855(3)
C25_8 C 0.9765(2) 0.8407(4) 0.0559(2)
C26_8 C 0.9455(2) 0.7051(5) 0.0349(2)
C32_8 C 0.9422(3) 0.6198(5) 0.0074(2)
C36_8 C 0.9132(4) 0.5545(6) 0.0096(3)
H24_8 H 0.896091 0.559675 0.029685
Zn3_8 Zn 0.80181(4) 0.84932(7) 0.20568(5)
Cl5_8 Cl 0.74243(9) 0.79772(17) 0.16844(14)
Cl6_8 Cl 0.83033(14) 0.80301(19) 0.27103(11)
loop_
_geom_bond_atom_site_label_1
_geom_bond_atom_site_label_2
_geom_bond_site_symmetry_1
_geom_bond_site_symmetry_2
C35 N11 1_555 1_555
H23 C35 1_555 1_555
Zn5 N11 1_555 1_555
N1 Zn5 1_555 1_555
Zn5 Cl3 1_555 1_555
C2 H1 1_555 1_555
Cl2 Zn1 1_555 1_555
C3 C2 1_555 1_555
H2 C3 1_555 1_555
N5 Zn1 1_555 1_555
Cl4 Zn5 1_555 1_555
C11 N1 1_555 1_555
H6 C11 1_555 1_555
H8 C13 1_555 1_555
N14 Zn1 1_555 1_555
C3 N5 1_555 1_555
C11 C13 1_555 1_555
N14 C29 1_555 1_555
H18 C29 1_555 1_555
N2 C8 1_555 1_555
N3 C4 1_555 1_555
N4 C14 1_555 1_555
C4 C1 1_555 1_555
C5 C1 1_555 1_555
H3 C5 1_555 1_555
N6 C4 1_555 1_555
H4 C6 1_555 1_555
C7 C8 1_555 1_555
N7 C24 1_555 1_555
C8 N3 1_555 1_555
N8 C24 1_555 1_555
C9 N2 1_555 1_555
N9 C21 1_555 1_555
C10 C7 1_555 1_555
H5 C10 1_555 1_555
N10 C25 1_555 1_555
H7 C12 1_555 1_555
N12 C29_2 1_555 1_555
C14 H9 1_555 1_555
C15 C14 1_555 1_555
H10 C15 1_555 1_555
C16 C9 1_555 1_555
C17 C16 1_555 1_555
H11 C17 1_555 1_555
C18 N4 1_555 1_555
H12 C18 1_555 1_555
C19 C20 1_555 1_555
C20 H13 1_555 1_555
C21 C20 1_555 1_555
H14 C21 1_555 1_555
C22 N9 1_555 1_555
H15 C22 1_555 1_555
C23 C19 1_555 1_555
H16 C23 1_555 1_555
C24 C19 1_555 1_555
C25 N7 1_555 1_555
C26 N8 1_555 1_555
C27 C25 1_555 1_555
C28 C27 1_555 1_555
H17 C28 1_555 1_555
C29_2 C28 1_555 1_555
H18_2 C29_2 1_555 1_555
C30 N12 1_555 1_555
H19 C30 1_555 1_555
C31 C27 1_555 1_555
H20 C31 1_555 1_555
C32 C26 1_555 1_555
C33 C32 1_555 1_555
H21 C33 1_555 1_555
C34 C33 1_555 1_555
H22 C34 1_555 1_555
C36 C32 1_555 1_555
H24 C36 1_555 1_555
Zn3 N4 1_555 1_555
Cl5 Zn3 1_555 1_555
Cl6 Zn3 1_555 1_555
Zn4 N12 1_555 1_555
C5 C6 1_555 1_555
N6 C9 1_555 1_555
N9 Zn3 1_555 1_555
C10 C12 1_555 1_555
N10 C26 1_555 1_555
C15 C16 1_555 1_555
C17 C18 1_555 1_555
C22 C23 1_555 1_555
C30 C31 1_555 1_555
Zn4 Cl1 1_555 1_555
N1_2 Zn2 1_555 1_555
C1_2 C2_2 1_555 1_555
Zn2 Cl3_2 1_555 1_555
N2_2 C8_2 1_555 1_555
C2_2 H1_2 1_555 1_555
Cl2_2 Zn4 1_555 1_555
N3_2 C4_2 1_555 1_555
C3_2 C2_2 1_555 1_555
H2_2 C3_2 1_555 1_555
C4_2 C1_2 1_555 1_555
N5_2 Zn4 1_555 1_555
C5_2 C1_2 1_555 1_555
H3_2 C5_2 1_555 1_555
Cl4_2 Zn2 1_555 1_555
N6_2 C4_2 1_555 1_555
C6_2 N5_2 1_555 1_555
H4_2 C6_2 1_555 1_555
C7_2 C8_2 1_555 1_555
C8_2 N3_2 1_555 1_555
C9_2 N2_2 1_555 1_555
C10_2 C7_2 1_555 1_555
H5_2 C10_2 1_555 1_555
C11_2 N1_2 1_555 1_555
H6_2 C11_2 1_555 1_555
C12_2 N1_2 1_555 1_555
H7_2 C12_2 1_555 1_555
C13_2 C7_2 1_555 1_555
H8_2 C13_2 1_555 1_555
C14_2 H9_2 1_555 1_555
C15_2 C14_2 1_555 1_555
H10_2 C15_2 1_555 1_555
C16_2 C9_2 1_555 1_555
C17_2 C16_2 1_555 1_555
H11_2 C17_2 1_555 1_555
H12_2 C18_2 1_555 1_555
N13 Zn2 1_555 1_555
C3_2 N5_2 1_555 1_555
C5_2 C6_2 1_555 1_555
N6_2 C9_2 1_555 1_555
C10_2 C12_2 1_555 1_555
C11_2 C13_2 1_555 1_555
C15_2 C16_2 1_555 1_555
C17_2 C18_2 1_555 1_555
N13 C34_2 1_555 1_555
H21_2 C33_2 1_555 1_555
C34_2 C33_2 1_555 1_555
H22_2 C34_2 1_555 1_555
C35_2 N13 1_555 1_555
H23_2 C35_2 1_555 1_555
Zn1_2 Cl1_2 1_555 1_555
N1_3 Zn2_2 1_555 1_555
Zn2_2 Cl3_3 1_555 1_555
C2_3 H1_3 1_555 1_555
Cl2_3 Zn1_2 1_555 1_555
C3_3 C2_3 1_555 1_555
H2_3 C3_3 1_555 1_555
N5_3 Zn1_2 1_555 1_555
Cl4_3 Zn2_2 1_555 1_555
C11_3 N1_3 1_555 1_555
H6_3 C11_3 1_555 1_555
H8_3 C13_3 1_555 1_555
N13_2 Zn2_2 1_555 1_555
N14_2 Zn1_2 1_555 1_555
C3_3 N5_3 1_555 1_555
C11_3 C13_3 1_555 1_555
N14_2 C29_3 1_555 1_555
H18_3 C29_3 1_555 1_555
C35_3 N13_2 1_555 1_555
H23_3 C35_3 1_555 1_555
C35_4 N11_2 1_555 1_555
H23_4 C35_4 1_555 1_555
Zn5_2 N11_2 1_555 1_555
Zn1_3 Cl1_3 1_555 1_555
N1_4 Zn5_2 1_555 1_555
Zn5_2 Cl3_4 1_555 1_555
C2_4 H1_4 1_555 1_555
Cl2_4 Zn1_3 1_555 1_555
C3_4 C2_4 1_555 1_555
H2_4 C3_4 1_555 1_555
N5_4 Zn1_3 1_555 1_555
Cl4_4 Zn5_2 1_555 1_555
C11_4 N1_4 1_555 1_555
H6_4 C11_4 1_555 1_555
H8_4 C13_4 1_555 1_555
N14_3 Zn1_3 1_555 1_555
C3_4 N5_4 1_555 1_555
C11_4 C13_4 1_555 1_555
N14_3 C29_4 1_555 1_555
H18_4 C29_4 1_555 1_555
H21_3 C33_3 1_555 1_555
C34_3 C33_3 1_555 1_555
H22_3 C34_3 1_555 1_555
N2_3 C8_3 1_555 1_555
N3_3 C4_3 1_555 1_555
N4_2 C14_3 1_555 1_555
C4_3 C1_3 1_555 1_555
C5_3 C1_3 1_555 1_555
H3_3 C5_3 1_555 1_555
N6_3 C4_3 1_555 1_555
H4_3 C6_3 1_555 1_555
C7_3 C8_3 1_555 1_555
N7_2 C24_2 1_555 1_555
C8_3 N3_3 1_555 1_555
N8_2 C24_2 1_555 1_555
C9_3 N2_3 1_555 1_555
N9_2 C21_2 1_555 1_555
C10_3 C7_3 1_555 1_555
H5_3 C10_3 1_555 1_555
N10_2 C25_2 1_555 1_555
H7_3 C12_3 1_555 1_555
N12_2 C29_5 1_555 1_555
C14_3 H9_3 1_555 1_555
C15_3 C14_3 1_555 1_555
H10_3 C15_3 1_555 1_555
C16_3 C9_3 1_555 1_555
C17_3 C16_3 1_555 1_555
H11_3 C17_3 1_555 1_555
C18_3 N4_2 1_555 1_555
H12_3 C18_3 1_555 1_555
C19_2 C20_2 1_555 1_555
C20_2 H13_2 1_555 1_555
C21_2 C20_2 1_555 1_555
H14_2 C21_2 1_555 1_555
C22_2 N9_2 1_555 1_555
H15_2 C22_2 1_555 1_555
C23_2 C19_2 1_555 1_555
H16_2 C23_2 1_555 1_555
C24_2 C19_2 1_555 1_555
C25_2 N7_2 1_555 1_555
C26_2 N8_2 1_555 1_555
C27_2 C25_2 1_555 1_555
C28_2 C27_2 1_555 1_555
H17_3 C28_2 1_555 1_555
C29_5 C28_2 1_555 1_555
H18_5 C29_5 1_555 1_555
C30_2 N12_2 1_555 1_555
H19_2 C30_2 1_555 1_555
C31_2 C27_2 1_555 1_555
H20_2 C31_2 1_555 1_555
C32_2 C26_2 1_555 1_555
C36_2 C32_2 1_555 1_555
H24_2 C36_2 1_555 1_555
Zn3_2 N4_2 1_555 1_555
Cl5_2 Zn3_2 1_555 1_555
Cl6_2 Zn3_2 1_555 1_555
Zn4_2 N12_2 1_555 1_555
C5_3 C6_3 1_555 1_555
N6_3 C9_3 1_555 1_555
N9_2 Zn3_2 1_555 1_555
C10_3 C12_3 1_555 1_555
N10_2 C26_2 1_555 1_555
C15_3 C16_3 1_555 1_555
C17_3 C18_3 1_555 1_555
C22_2 C23_2 1_555 1_555
C30_2 C31_2 1_555 1_555
N1_5 Zn2_3 1_555 1_555
C1_4 C2_5 1_555 1_555
Zn2_3 Cl3_5 1_555 1_555
N2_4 C8_4 1_555 1_555
C2_5 H1_5 1_555 1_555
Cl2_5 Zn4_2 1_555 1_555
N3_4 C4_4 1_555 1_555
C3_5 C2_5 1_555 1_555
H2_5 C3_5 1_555 1_555
C4_4 C1_4 1_555 1_555
N5_5 Zn4_2 1_555 1_555
C5_4 C1_4 1_555 1_555
H3_4 C5_4 1_555 1_555
Cl4_5 Zn2_3 1_555 1_555
N6_4 C4_4 1_555 1_555
C6_4 N5_5 1_555 1_555
H4_4 C6_4 1_555 1_555
C7_4 C8_4 1_555 1_555
C8_4 N3_4 1_555 1_555
C9_4 N2_4 1_555 1_555
C10_4 C7_4 1_555 1_555
H5_4 C10_4 1_555 1_555
C11_5 N1_5 1_555 1_555
H6_5 C11_5 1_555 1_555
C12_4 N1_5 1_555 1_555
H7_4 C12_4 1_555 1_555
C13_5 C7_4 1_555 1_555
H8_5 C13_5 1_555 1_555
C14_4 H9_4 1_555 1_555
C15_4 C14_4 1_555 1_555
H10_4 C15_4 1_555 1_555
C16_4 C9_4 1_555 1_555
C17_4 C16_4 1_555 1_555
H11_4 C17_4 1_555 1_555
H12_4 C18_4 1_555 1_555
N13_3 Zn2_3 1_555 1_555
C3_5 N5_5 1_555 1_555
C5_4 C6_4 1_555 1_555
N6_4 C9_4 1_555 1_555
C10_4 C12_4 1_555 1_555
C11_5 C13_5 1_555 1_555
C15_4 C16_4 1_555 1_555
C17_4 C18_4 1_555 1_555
N7_3 C24_3 1_555 1_555
N8_3 C24_3 1_555 1_555
N9_3 C21_3 1_555 1_555
N10_3 C25_3 1_555 1_555
N13_3 C34_4 1_555 1_555
C19_3 C20_3 1_555 1_555
C20_3 H13_3 1_555 1_555
C21_3 C20_3 1_555 1_555
H14_3 C21_3 1_555 1_555
C22_3 N9_3 1_555 1_555
H15_3 C22_3 1_555 1_555
C23_3 C19_3 1_555 1_555
H16_3 C23_3 1_555 1_555
C24_3 C19_3 1_555 1_555
C25_3 N7_3 1_555 1_555
C26_3 N8_3 1_555 1_555
C32_3 C26_3 1_555 1_555
C33_4 C32_3 1_555 1_555
H21_4 C33_4 1_555 1_555
C34_4 C33_4 1_555 1_555
H22_4 C34_4 1_555 1_555
C35_5 N13_3 1_555 1_555
H23_5 C35_5 1_555 1_555
C36_3 C32_3 1_555 1_555
H24_3 C36_3 1_555 1_555
Zn3_3 N4_3 1_555 1_555
Cl5_3 Zn3_3 1_555 1_555
Cl6_3 Zn3_3 1_555 1_555
N9_3 Zn3_3 1_555 1_555
N10_3 C26_3 1_555 1_555
C22_3 C23_3 1_555 1_555
C35_5 C36_3 1_555 1_555
N1_6 Zn2_4 1_555 1_555
Zn2_4 Cl3_6 1_555 1_555
C2_6 H1_6 1_555 1_555
Cl2_6 Zn1_4 1_555 1_555
C3_6 C2_6 1_555 1_555
H2_6 C3_6 1_555 1_555
N5_6 Zn1_4 1_555 1_555
Cl4_6 Zn2_4 1_555 1_555
C11_6 N1_6 1_555 1_555
H6_6 C11_6 1_555 1_555
H8_6 C13_6 1_555 1_555
N13_4 Zn2_4 1_555 1_555
N14_4 Zn1_4 1_555 1_555
C3_6 N5_6 1_555 1_555
C11_6 C13_6 1_555 1_555
N14_4 C29_6 1_555 1_555
H18_6 C29_6 1_555 1_555
C35_6 N13_4 1_555 1_555
H23_6 C35_6 1_555 1_555
C28_3 C27_3 1_555 1_555
H19_3 C30_3 1_555 1_555
C31_3 C27_3 1_555 1_555
H20_3 C31_3 1_555 1_555
C30_3 C31_3 1_555 1_555
N7_4 C24_4 1_555 1_555
N8_4 C24_4 1_555 1_555
N9_4 C21_4 1_555 1_555
N10_4 C25_4 1_555 1_555
N11_3 C34_5 1_555 1_555
C19_4 C20_4 1_555 1_555
C20_4 H13_4 1_555 1_555
C21_4 C20_4 1_555 1_555
H14_4 C21_4 1_555 1_555
C22_4 N9_4 1_555 1_555
H15_4 C22_4 1_555 1_555
C23_4 C19_4 1_555 1_555
H16_4 C23_4 1_555 1_555
C24_4 C19_4 1_555 1_555
C25_4 N7_4 1_555 1_555
C26_4 N8_4 1_555 1_555
C32_4 C26_4 1_555 1_555
C33_5 C32_4 1_555 1_555
H21_5 C33_5 1_555 1_555
C34_5 C33_5 1_555 1_555
H22_5 C34_5 1_555 1_555
C35_7 N11_3 1_555 1_555
H23_7 C35_7 1_555 1_555
C36_4 C32_4 1_555 1_555
H24_4 C36_4 1_555 1_555
Zn3_4 N4_4 1_555 1_555
Cl5_4 Zn3_4 1_555 1_555
Cl6_4 Zn3_4 1_555 1_555
Zn5_3 N11_3 1_555 1_555
N9_4 Zn3_4 1_555 1_555
N10_4 C26_4 1_555 1_555
C22_4 C23_4 1_555 1_555
C35_7 C36_4 1_555 1_555
N2_5 C8_5 1_555 1_555
N3_5 C4_5 1_555 1_555
N4_5 C14_5 1_555 1_555
C4_5 C1_5 1_555 1_555
C5_5 C1_5 1_555 1_555
H3_5 C5_5 1_555 1_555
N6_5 C4_5 1_555 1_555
H4_5 C6_5 1_555 1_555
C7_5 C8_5 1_555 1_555
N7_5 C24_5 1_555 1_555
C8_5 N3_5 1_555 1_555
N8_5 C24_5 1_555 1_555
C9_5 N2_5 1_555 1_555
N9_5 C21_5 1_555 1_555
C10_5 C7_5 1_555 1_555
H5_5 C10_5 1_555 1_555
N10_5 C25_5 1_555 1_555
H7_5 C12_5 1_555 1_555
N12_3 C29_7 1_555 1_555
C14_5 H9_5 1_555 1_555
C15_5 C14_5 1_555 1_555
H10_5 C15_5 1_555 1_555
C16_5 C9_5 1_555 1_555
C17_5 C16_5 1_555 1_555
H11_5 C17_5 1_555 1_555
C18_5 N4_5 1_555 1_555
H12_5 C18_5 1_555 1_555
C19_5 C20_5 1_555 1_555
C20_5 H13_5 1_555 1_555
C21_5 C20_5 1_555 1_555
H14_5 C21_5 1_555 1_555
C22_5 N9_5 1_555 1_555
H15_5 C22_5 1_555 1_555
C23_5 C19_5 1_555 1_555
H16_5 C23_5 1_555 1_555
C24_5 C19_5 1_555 1_555
C25_5 N7_5 1_555 1_555
C26_5 N8_5 1_555 1_555
C27_4 C25_5 1_555 1_555
C28_4 C27_4 1_555 1_555
H17_5 C28_4 1_555 1_555
C29_7 C28_4 1_555 1_555
H18_7 C29_7 1_555 1_555
C30_4 N12_3 1_555 1_555
H19_4 C30_4 1_555 1_555
C31_4 C27_4 1_555 1_555
H20_4 C31_4 1_555 1_555
C32_5 C26_5 1_555 1_555
C36_5 C32_5 1_555 1_555
H24_5 C36_5 1_555 1_555
Zn3_5 N4_5 1_555 1_555
Cl5_5 Zn3_5 1_555 1_555
Cl6_5 Zn3_5 1_555 1_555
Zn4_3 N12_3 1_555 1_555
C5_5 C6_5 1_555 1_555
N6_5 C9_5 1_555 1_555
N9_5 Zn3_5 1_555 1_555
C10_5 C12_5 1_555 1_555
N10_5 C26_5 1_555 1_555
C15_5 C16_5 1_555 1_555
C17_5 C18_5 1_555 1_555
C22_5 C23_5 1_555 1_555
C30_4 C31_4 1_555 1_555
N1_7 Zn5_3 1_555 1_555
C1_6 C2_7 1_555 1_555
Zn5_3 Cl3_7 1_555 1_555
N2_6 C8_6 1_555 1_555
C2_7 H1_7 1_555 1_555
Cl2_7 Zn4_3 1_555 1_555
N3_6 C4_6 1_555 1_555
C3_7 C2_7 1_555 1_555
H2_7 C3_7 1_555 1_555
C4_6 C1_6 1_555 1_555
N5_7 Zn4_3 1_555 1_555
C5_6 C1_6 1_555 1_555
H3_6 C5_6 1_555 1_555
Cl4_7 Zn5_3 1_555 1_555
N6_6 C4_6 1_555 1_555
C6_6 N5_7 1_555 1_555
H4_6 C6_6 1_555 1_555
C7_6 C8_6 1_555 1_555
C8_6 N3_6 1_555 1_555
C9_6 N2_6 1_555 1_555
C10_6 C7_6 1_555 1_555
H5_6 C10_6 1_555 1_555
C11_7 N1_7 1_555 1_555
H6_7 C11_7 1_555 1_555
C12_6 N1_7 1_555 1_555
H7_6 C12_6 1_555 1_555
C13_7 C7_6 1_555 1_555
H8_7 C13_7 1_555 1_555
C14_6 H9_6 1_555 1_555
C15_6 C14_6 1_555 1_555
H10_6 C15_6 1_555 1_555
C16_6 C9_6 1_555 1_555
C17_6 C16_6 1_555 1_555
H11_6 C17_6 1_555 1_555
H12_6 C18_6 1_555 1_555
C3_7 N5_7 1_555 1_555
C5_6 C6_6 1_555 1_555
N6_6 C9_6 1_555 1_555
C10_6 C12_6 1_555 1_555
C11_7 C13_7 1_555 1_555
C15_6 C16_6 1_555 1_555
C17_6 C18_6 1_555 1_555
N11_4 C34_6 1_555 1_555
H21_6 C33_6 1_555 1_555
C34_6 C33_6 1_555 1_555
H22_6 C34_6 1_555 1_555
C35_8 N11_4 1_555 1_555
H23_8 C35_8 1_555 1_555
Zn5_4 N11_4 1_555 1_555
N2_7 C8_7 1_555 1_555
N3_7 C4_7 1_555 1_555
N4_6 C14_7 1_555 1_555
C4_7 C1_7 1_555 1_555
C5_7 C1_7 1_555 1_555
H3_7 C5_7 1_555 1_555
N6_7 C4_7 1_555 1_555
H4_7 C6_7 1_555 1_555
C7_7 C8_7 1_555 1_555
N7_6 C24_6 1_555 1_555
C8_7 N3_7 1_555 1_555
N8_6 C24_6 1_555 1_555
C9_7 N2_7 1_555 1_555
N9_6 C21_6 1_555 1_555
C10_7 C7_7 1_555 1_555
H5_7 C10_7 1_555 1_555
N10_6 C25_6 1_555 1_555
H7_7 C12_7 1_555 1_555
N12_4 C29_8 1_555 1_555
C14_7 H9_7 1_555 1_555
C15_7 C14_7 1_555 1_555
H10_7 C15_7 1_555 1_555
C16_7 C9_7 1_555 1_555
C17_7 C16_7 1_555 1_555
H11_7 C17_7 1_555 1_555
C18_7 N4_6 1_555 1_555
H12_7 C18_7 1_555 1_555
C19_6 C20_6 1_555 1_555
C20_6 H13_6 1_555 1_555
C21_6 C20_6 1_555 1_555
H14_6 C21_6 1_555 1_555
C22_6 N9_6 1_555 1_555
H15_6 C22_6 1_555 1_555
C23_6 C19_6 1_555 1_555
H16_6 C23_6 1_555 1_555
C24_6 C19_6 1_555 1_555
C25_6 N7_6 1_555 1_555
C26_6 N8_6 1_555 1_555
C27_5 C25_6 1_555 1_555
C28_5 C27_5 1_555 1_555
H17_7 C28_5 1_555 1_555
C29_8 C28_5 1_555 1_555
H18_8 C29_8 1_555 1_555
C30_5 N12_4 1_555 1_555
H19_5 C30_5 1_555 1_555
C31_5 C27_5 1_555 1_555
H20_5 C31_5 1_555 1_555
C32_6 C26_6 1_555 1_555
C33_7 C32_6 1_555 1_555
H21_7 C33_7 1_555 1_555
C34_7 C33_7 1_555 1_555
H22_7 C34_7 1_555 1_555
C36_6 C32_6 1_555 1_555
H24_6 C36_6 1_555 1_555
Zn3_6 N4_6 1_555 1_555
Cl5_6 Zn3_6 1_555 1_555
Cl6_6 Zn3_6 1_555 1_555
Zn4_4 N12_4 1_555 1_555
C5_7 C6_7 1_555 1_555
N6_7 C9_7 1_555 1_555
N9_6 Zn3_6 1_555 1_555
C10_7 C12_7 1_555 1_555
N10_6 C26_6 1_555 1_555
C15_7 C16_7 1_555 1_555
C17_7 C18_7 1_555 1_555
C22_6 C23_6 1_555 1_555
C30_5 C31_5 1_555 1_555
Zn4_4 Cl1_5 1_555 1_555
N1_8 Zn5_4 1_555 1_555
C1_8 C2_8 1_555 1_555
Zn5_4 Cl3_8 1_555 1_555
N2_8 C8_8 1_555 1_555
C2_8 H1_8 1_555 1_555
Cl2_8 Zn4_4 1_555 1_555
N3_8 C4_8 1_555 1_555
C3_8 C2_8 1_555 1_555
H2_8 C3_8 1_555 1_555
C4_8 C1_8 1_555 1_555
N5_8 Zn4_4 1_555 1_555
C5_8 C1_8 1_555 1_555
H3_8 C5_8 1_555 1_555
Cl4_8 Zn5_4 1_555 1_555
N6_8 C4_8 1_555 1_555
C6_8 N5_8 1_555 1_555
H4_8 C6_8 1_555 1_555
C7_8 C8_8 1_555 1_555
C8_8 N3_8 1_555 1_555
C9_8 N2_8 1_555 1_555
C10_8 C7_8 1_555 1_555
H5_8 C10_8 1_555 1_555
C11_8 N1_8 1_555 1_555
H6_8 C11_8 1_555 1_555
C12_8 N1_8 1_555 1_555
H7_8 C12_8 1_555 1_555
C13_8 C7_8 1_555 1_555
H8_8 C13_8 1_555 1_555
C14_8 H9_8 1_555 1_555
C15_8 C14_8 1_555 1_555
H10_8 C15_8 1_555 1_555
C16_8 C9_8 1_555 1_555
C17_8 C16_8 1_555 1_555
H11_8 C17_8 1_555 1_555
H12_8 C18_8 1_555 1_555
C3_8 N5_8 1_555 1_555
C5_8 C6_8 1_555 1_555
N6_8 C9_8 1_555 1_555
C10_8 C12_8 1_555 1_555
C11_8 C13_8 1_555 1_555
C15_8 C16_8 1_555 1_555
C17_8 C18_8 1_555 1_555
N7_7 C24_7 1_555 1_555
N8_7 C24_7 1_555 1_555
N9_7 C21_7 1_555 1_555
N10_7 C25_7 1_555 1_555
C19_7 C20_7 1_555 1_555
C20_7 H13_7 1_555 1_555
C21_7 C20_7 1_555 1_555
H14_7 C21_7 1_555 1_555
C22_7 N9_7 1_555 1_555
H15_7 C22_7 1_555 1_555
C23_7 C19_7 1_555 1_555
H16_7 C23_7 1_555 1_555
C24_7 C19_7 1_555 1_555
C25_7 N7_7 1_555 1_555
C26_7 N8_7 1_555 1_555
C32_7 C26_7 1_555 1_555
C36_7 C32_7 1_555 1_555
H24_7 C36_7 1_555 1_555
Zn3_7 N4_7 1_555 1_555
Cl5_7 Zn3_7 1_555 1_555
Cl6_7 Zn3_7 1_555 1_555
N9_7 Zn3_7 1_555 1_555
N10_7 C26_7 1_555 1_555
C22_7 C23_7 1_555 1_555
C28_6 C27_6 1_555 1_555
H19_6 C30_6 1_555 1_555
C31_6 C27_6 1_555 1_555
H20_6 C31_6 1_555 1_555
C30_6 C31_6 1_555 1_555
H21_8 C33_8 1_555 1_555
C34_8 C33_8 1_555 1_555
H22_8 C34_8 1_555 1_555
C28_7 C27_7 1_555 1_555
H19_7 C30_7 1_555 1_555
C31_7 C27_7 1_555 1_555
H20_7 C31_7 1_555 1_555
C30_7 C31_7 1_555 1_555
C28_8 C27_8 1_555 1_555
H19_8 C30_8 1_555 1_555
C31_8 C27_8 1_555 1_555
H20_8 C31_8 1_555 1_555
C30_8 C31_8 1_555 1_555
N7_8 C24_8 1_555 1_555
N8_8 C24_8 1_555 1_555
N9_8 C21_8 1_555 1_555
N10_8 C25_8 1_555 1_555
C19_8 C20_8 1_555 1_555
C20_8 H13_8 1_555 1_555
C21_8 C20_8 1_555 1_555
H14_8 C21_8 1_555 1_555
C22_8 N9_8 1_555 1_555
H15_8 C22_8 1_555 1_555
C23_8 C19_8 1_555 1_555
H16_8 C23_8 1_555 1_555
C24_8 C19_8 1_555 1_555
C25_8 N7_8 1_555 1_555
C26_8 N8_8 1_555 1_555
C32_8 C26_8 1_555 1_555
C36_8 C32_8 1_555 1_555
H24_8 C36_8 1_555 1_555
Zn3_8 N4_8 1_555 1_555
Cl5_8 Zn3_8 1_555 1_555
Cl6_8 Zn3_8 1_555 1_555
N9_8 Zn3_8 1_555 1_555
N10_8 C26_8 1_555 1_555
C22_8 C23_8 1_555 1_555

#END
