
###############################################################################
#
# This file contains modified crystal structure data generated from the
# MOF subset of the Cambridge Structural Database (CSD) v543 
# hosted by the Cambridge Crystallographic Data Centre (CCDC).
#
# This work is licensed under the Creative Commons
# Attribution-NonCommercial-ShareAlike 4.0 International License.
# To view a copy of this license, visit
# http://creativecommons.org/licenses/by-nc-sa/4.0/
# or send a letter to
# Creative Commons, PO Box 1866, Mountain View, CA 94042, USA.
#
# CIF created using the CSD Python API on 29 September 2022
# The structure has been converted into the P1 space group
# The structure has a 3D framework
# The original CSD entry QUSHUJ is in the orthorhombic crystal system
# The original CSD entry QUSHUJ is in a Sohncke space group
# The framework has been calculated to contain at least 10.0% void space
# The void calculation uses a probe of radius 1.32A, grid spacing 0.4
# H atom positions have been added when not included in the experimental data
#
###############################################################################

data_QUSHUJ
_chemical_formula_moiety         '(C776 H984 Cu20 Mn16 N64 O156 S12)n'
_symmetry_cell_setting           triclinic
_symmetry_space_group_name_H-M   'P 1'
_symmetry_Int_Tables_number      1
_space_group_name_Hall           'P 1'
loop_
_symmetry_equiv_pos_site_id
_symmetry_equiv_pos_as_xyz
1 x,y,z
_cell_length_a                   27.310(6)
_cell_length_b                   28.430(6)
_cell_length_c                   30.556(6)
_cell_angle_alpha                90
_cell_angle_beta                 90
_cell_angle_gamma                90
_cell_volume                     23724.4
loop_
_atom_site_label
_atom_site_type_symbol
_atom_site_fract_x
_atom_site_fract_y
_atom_site_fract_z
O1 O 0.4102(6) 0.0278(5) 0.2628(5)
C3 C 0.4082(7) 0.0308(7) 0.2211(7)
O3 O 0.4021(6) 0.0661(5) 0.1980(6)
Mn1 Mn 0.39542(14) 0.05340(12) 0.12896(12)
O4 O 0.4647(5) 0.0764(5) 0.1055(5)
O5 O 0.3860(5) 0.1289(5) 0.1182(4)
O6 O 0.3690(6) 0.0301(6) 0.0690(6)
O7 O 0.3166(6) 0.0485(6) 0.1393(6)
C13 C 0.4662(7) 0.1180(7) 0.0955(7)
C14 C 0.4238(7) 0.1502(7) 0.0999(6)
C15 C 0.3219(9) 0.0389(8) 0.0651(8)
C16 C 0.2966(9) 0.0479(7) 0.1041(9)
N2 N 0.5037(6) 0.1429(6) 0.0802(6)
O8 O 0.4239(4) 0.1914(4) 0.0898(4)
N3 N 0.2978(7) 0.0413(7) 0.0250(7)
O9 O 0.2482(6) 0.0563(6) 0.0966(5)
C17 C 0.5482(6) 0.1152(8) 0.0670(6)
Cu2 Cu 0.49114(8) 0.20915(8) 0.07318(8)
Cu3 Cu 0.23425(11) 0.06710(10) 0.03628(10)
C19 C 0.5601(7) 0.1095(8) 0.0231(5)
C20 C 0.5773(8) 0.0948(8) 0.0991(5)
N4 N 0.4776(6) 0.2726(5) 0.0536(5)
O10 O 0.5595(5) 0.2288(5) 0.0661(4)
O12 O 0.2488(8) 0.1470(7) 0.0432(7)
N5 N 0.1637(7) 0.0734(7) 0.0416(6)
C23 C 0.6010(9) 0.0834(9) 0.0113(6)
C25 C 0.6182(8) 0.0687(10) 0.0874(7)
C26 C 0.5697(10) 0.1071(13) 0.1491(12)
C27 C 0.5162(6) 0.2988(6) 0.0532(5)
C28 C 0.4322(4) 0.2931(5) 0.0405(4)
C29 C 0.5626(7) 0.2728(7) 0.0592(5)
S1 S 0.2877(4) 0.1580(4) 0.0741(4)
C34 C 0.6301(8) 0.0630(10) 0.0434(8)
H16 H 0.4987 0.1487 0.0006
H17 H 0.6377 0.0551 0.1089
H18 H 0.5997 0.1210 0.1603
H19 H 0.5442 0.1307 0.1515
C36 C 0.5564(13) 0.0662(15) 0.1774(14)
O13 O 0.5176(5) 0.3428(5) 0.0473(4)
C38 C 0.3995(5) 0.3132(6) 0.0700(4)
O14 O 0.6030(5) 0.2951(5) 0.0600(5)
H24 H 0.4099 0.1004 0.0060
H25 H 0.3566 0.1096 0.0220
C42 C 0.2612(13) 0.1676(14) 0.1290(7)
C43 C 0.3088(13) 0.2173(10) 0.0622(15)
H26 H 0.6575 0.0455 0.0356
H30 H 0.5528 0.0766 0.2071
H31 H 0.5817 0.0429 0.1758
H32 H 0.5261 0.0529 0.1674
Mn2 Mn 0.58800(13) 0.37101(12) 0.06438(11)
C46 C 0.4121(9) 0.3121(8) 0.1185(9)
C47 C 0.3549(5) 0.3305(6) 0.0553(5)
H36 H 0.2153 0.0142 0.0032
H40 H 0.2866 0.1769 0.1489
H41 H 0.2464 0.1390 0.1391
H42 H 0.2369 0.1919 0.1274
H43 H 0.2815 0.2386 0.0630
H44 H 0.3326 0.2266 0.0836
H45 H 0.3234 0.2180 0.0336
O15 O 0.5919(6) 0.3605(5) 0.1363(5)
O16 O 0.5634(6) 0.4387(5) 0.0910(4)
O17 O 0.6015(5) 0.3988(5) 0.0013(4)
O18 O 0.6646(6) 0.3884(6) 0.0676(5)
C49 C 0.3429(5) 0.3277(7) 0.0112(6)
C50 C 0.4390(10) 0.3586(9) 0.1317(10)
H49 H 0.3824 0.3087 0.1355
H50 H 0.4331 0.2853 0.1246
H51 H 0.3330 0.3440 0.0750
C51 C 0.5836(8) 0.3968(7) 0.1560(6)
C52 C 0.5706(7) 0.4410(6) 0.1313(6)
C54 C 0.6799(9) 0.4037(7) 0.0315(7)
H55 H 0.3130 0.3393 0.0014
H56 H 0.4182 0.3850 0.1257
H57 H 0.4465 0.3578 0.1624
H58 H 0.4688 0.3614 0.1153
O19 O 0.5865(6) 0.4006(4) 0.1975(4)
N6 N 0.5696(7) 0.4788(6) 0.1562(5)
C55 C 0.5584(6) 0.5245(4) 0.1391(6)
C57 C 0.5145(6) 0.5458(5) 0.1506(6)
C58 C 0.5903(5) 0.5470(5) 0.1104(6)
C61 C 0.4746(12) 0.5207(10) 0.1794(10)
C62 C 0.5024(6) 0.5895(6) 0.1335(7)
C63 C 0.5781(6) 0.5908(5) 0.0933(6)
C64 C 0.6409(9) 0.5289(9) 0.1031(10)
C69 C 0.4578(9) 0.4787(10) 0.1471(13)
H59 H 0.4475 0.5416 0.1861
H60 H 0.4883 0.5086 0.2064
C70 C 0.5342(7) 0.6120(5) 0.1049(7)
H61 H 0.4730 0.6038 0.1413
H62 H 0.5994 0.6058 0.0741
H63 H 0.6536 0.5423 0.0761
H64 H 0.6396 0.4950 0.0994
C71 C 0.6766(13) 0.5407(14) 0.1410(12)
H71 H 0.4443 0.4918 0.1208
H72 H 0.4334 0.4598 0.1614
H73 H 0.4856 0.4595 0.1400
H74 H 0.5261 0.6413 0.0935
H75 H 0.6792 0.5742 0.1440
H76 H 0.6643 0.5274 0.1677
H77 H 0.7082 0.5276 0.1347
O20 O 0.7251(6) 0.4172(5) 0.0260(6)
Cu4 Cu 0.57964(10) 0.46441(8) 0.21754(8)
C18 C 0.3232(7) 0.0324(6) 0.9877(5)
C22 C 0.3590(7) 0.0621(6) 0.9708(6)
O11 O 0.2251(6) 0.0828(5) 0.9740(6)
C24 C 0.5244(12) 0.1304(12) 0.9867(10)
C32 C 0.3790(8) 0.0532(7) 0.9298(7)
C33 C 0.3768(17) 0.1068(10) 0.9961(11)
H14 H 0.6090 0.0796 0.9819
H15 H 0.5092 0.1049 0.9706
C35 C 0.5541(18) 0.1622(17) 0.9549(15)
C37 C 0.4202(6) 0.2903(6) 0.9964(4)
C39 C 0.3632(9) 0.0146(8) 0.9057(5)
H23 H 0.4029 0.0730 0.9185
C41 C 0.378(2) 0.1566(13) 0.9738(15)
H27 H 0.5325 0.1750 0.9331
H28 H 0.5791 0.1439 0.9409
H29 H 0.5690 0.1874 0.9710
C44 C 0.4532(12) 0.2695(12) 0.9657(7)
C45 C 0.3755(7) 0.3076(7) 0.9817(4)
H33 H 0.3766 0.0087 0.8782
H37 H 0.3905 0.1794 0.9940
H38 H 0.3451 0.1653 0.9654
H39 H 0.3983 0.1555 0.9482
C48 C 0.447(2) 0.275(2) 0.9156(7)
H46 H 0.4535 0.2360 0.9718
H47 H 0.4856 0.2812 0.9728
H48 H 0.3675 0.3057 0.9522
C53 C 0.6444(8) 0.4097(7) 0.9953(6)
H52 H 0.4182 0.2586 0.9063
H53 H 0.4753 0.2613 0.9012
H54 H 0.4448 0.3074 0.9082
C56 C 0.6311(7) 0.4343(7) 0.9211(5)
C59 C 0.6117(8) 0.3976(6) 0.8965(6)
C60 C 0.6210(8) 0.4806(6) 0.9097(6)
C65 C 0.6168(12) 0.3488(13) 0.9083(11)
C66 C 0.5823(8) 0.4073(8) 0.8605(6)
C67 C 0.6448(11) 0.5259(10) 0.9290(8)
C68 C 0.5915(9) 0.4903(7) 0.8737(7)
H65 H 0.6325 0.3309 0.8852
C72 C 0.5610(14) 0.3336(16) 0.9145(19)
H66 H 0.6352 0.3451 0.9352
C73 C 0.5722(8) 0.4536(9) 0.8491(6)
H67 H 0.5694 0.3827 0.8440
C74 C 0.6144(13) 0.5483(15) 0.9673(12)
H68 H 0.6484 0.5489 0.9058
H69 H 0.6773 0.5182 0.9397
H70 H 0.5848 0.5213 0.8660
H78 H 0.5594 0.3005 0.9207
H79 H 0.5470 0.3508 0.9384
H80 H 0.5431 0.3402 0.8882
H81 H 0.5525 0.4600 0.8250
H82 H 0.5828 0.5577 0.9566
H83 H 0.6104 0.5257 0.9903
H84 H 0.6314 0.5753 0.9784
N7 N 0.6637(7) 0.4266(7) 0.9584(6)
Cu5 Cu 0.73425(11) 0.43290(10) 0.96372(10)
O21 O 0.7482(6) 0.4437(6) 0.9034(5)
O22 O 0.7488(8) 0.3530(7) 0.9568(7)
N8 N 0.7978(7) 0.4587(7) 0.9750(7)
S2 S 0.7877(4) 0.3420(4) 0.9259(4)
C75 C 0.7612(13) 0.3324(14) 0.8710(7)
C76 C 0.8088(13) 0.2827(10) 0.9378(15)
H85 H 0.7866 0.3231 0.8511
H86 H 0.7464 0.3610 0.8609
H87 H 0.7369 0.3081 0.8726
H88 H 0.7815 0.2614 0.9370
H89 H 0.8326 0.2734 0.9164
H90 H 0.8234 0.2820 0.9664
Cu1 Cu 0.42036(10) 0.96441(8) 0.28246(8)
N1 N 0.4250(6) 0.9474(5) 0.2206(5)
C1 C 0.4187(7) 0.9866(7) 0.1964(7)
C2 C 0.4325(5) 0.9045(4) 0.2020(5)
O2 O 0.4188(6) 0.9872(4) 0.1543(4)
C4 C 0.4804(4) 0.8885(4) 0.1977(6)
C5 C 0.3938(4) 0.8770(5) 0.1871(7)
C6 C 0.4895(4) 0.8450(5) 0.1785(7)
C7 C 0.5276(9) 0.9197(11) 0.2113(13)
C8 C 0.4030(4) 0.8336(5) 0.1680(8)
C9 C 0.3382(9) 0.8911(14) 0.1904(15)
H1 H 0.5216 0.8344 0.1757
C10 C 0.4509(5) 0.8176(4) 0.1637(7)
H2 H 0.5430 0.9067 0.2372
H3 H 0.5179 0.9518 0.2174
C11 C 0.5655(12) 0.9181(14) 0.1696(16)
H4 H 0.3771 0.8152 0.1580
H5 H 0.3339 0.9147 0.2130
H6 H 0.3188 0.8638 0.1982
C12 C 0.3200(18) 0.912(2) 0.1442(16)
H7 H 0.4570 0.7885 0.1509
H8 H 0.5947 0.9352 0.1768
H9 H 0.5502 0.9322 0.1445
H10 H 0.5737 0.8860 0.1631
H11 H 0.2863 0.9211 0.1466
H12 H 0.3230 0.8877 0.1222
H13 H 0.3397 0.9382 0.1363
H21 H 0.2762 0.9553 0.0124
Cu1_2 Cu 0.07964(10) 0.03559(8) 0.78246(8)
N1_2 N 0.0750(6) 0.0526(5) 0.7206(5)
C1_2 C 0.0813(7) 0.0134(7) 0.6964(7)
C2_2 C 0.0675(5) 0.0955(4) 0.7020(5)
O2_2 O 0.0812(6) 0.0128(4) 0.6543(4)
C4_2 C 0.0196(4) 0.1115(4) 0.6977(6)
C5_2 C 0.1062(4) 0.1230(5) 0.6871(7)
C6_2 C 0.0105(4) 0.1550(5) 0.6785(7)
C8_2 C 0.0970(4) 0.1664(5) 0.6680(8)
C9_2 C 0.1618(9) 0.1089(14) 0.6904(15)
C10_2 C 0.0491(5) 0.1824(4) 0.6637(7)
H4_2 H 0.1229 0.1848 0.6580
H5_2 H 0.1661 0.0853 0.7130
H6_2 H 0.1812 0.1362 0.6982
C12_2 C 0.1800(18) 0.088(2) 0.6442(16)
H7_2 H 0.0430 0.2115 0.6509
H11_2 H 0.2137 0.0789 0.6466
H12_2 H 0.1770 0.1123 0.6222
H13_2 H 0.1603 0.0618 0.6363
C21 C 0.1926(7) 0.0062(6) 0.4635(7)
C30 C 0.1726(8) 0.0151(7) 0.4225(7)
C31 C 0.2331(11) 0.0362(12) 0.4828(16)
H20 H 0.1831 0.0409 0.4064
H21_2 H 0.2238 0.0447 0.5124
H22 H 0.2353 0.0650 0.4660
C40 C 0.2855(9) 0.0128(7) 0.4843(10)
H34 H 0.3088 0.0351 0.4953
H35 H 0.2948 0.0033 0.4554
O1_2 O 0.0898(6) 0.9722(5) 0.7628(5)
C3_2 C 0.0918(7) 0.9692(7) 0.7211(7)
O3_2 O 0.0979(6) 0.9339(5) 0.6980(6)
Mn1_2 Mn 0.10458(14) 0.94660(12) 0.62896(12)
O4_2 O 0.0353(5) 0.9236(5) 0.6055(5)
O5_2 O 0.1140(5) 0.8711(5) 0.6182(4)
O6_2 O 0.1310(6) 0.9699(6) 0.5690(6)
O7_2 O 0.1834(6) 0.9515(6) 0.6393(6)
C13_2 C 0.0338(7) 0.8820(7) 0.5955(7)
C14_2 C 0.0762(7) 0.8498(7) 0.5999(6)
C15_2 C 0.1781(9) 0.9611(8) 0.5651(8)
C16_2 C 0.2034(9) 0.9521(7) 0.6041(9)
O8_2 O 0.0761(4) 0.8086(4) 0.5898(4)
N3_2 N 0.2022(7) 0.9587(7) 0.5250(7)
O9_2 O 0.2518(6) 0.9437(6) 0.5966(5)
Cu2_2 Cu 0.00886(8) 0.79085(8) 0.57318(8)
C18_2 C 0.1768(7) 0.9676(6) 0.4877(5)
Cu3_2 Cu 0.26575(11) 0.93290(10) 0.53628(10)
N4_2 N 0.0224(6) 0.7274(5) 0.5536(5)
C22_2 C 0.1410(7) 0.9379(6) 0.4708(6)
O11_2 O 0.2749(6) 0.9172(5) 0.4740(6)
O12_2 O 0.2512(8) 0.8530(7) 0.5432(7)
N5_2 N 0.3363(7) 0.9266(7) 0.5416(6)
C28_2 C 0.0678(4) 0.7069(5) 0.5405(4)
C32_2 C 0.1210(8) 0.9468(7) 0.4298(7)
C33_2 C 0.1232(17) 0.8932(10) 0.4961(11)
S1_2 S 0.2123(4) 0.8420(4) 0.5741(4)
H16_2 H 0.0013 0.8513 0.5006
C37_2 C 0.0798(6) 0.7097(6) 0.4964(4)
C38_2 C 0.1005(5) 0.6868(6) 0.5700(4)
C39_2 C 0.1368(9) 0.9854(8) 0.4057(5)
H23_2 H 0.0971 0.9270 0.4185
H24_2 H 0.0901 0.8996 0.5060
H25_2 H 0.1434 0.8904 0.5220
C41_2 C 0.122(2) 0.8434(13) 0.4738(15)
C42_2 C 0.2388(13) 0.8324(14) 0.6290(7)
C43_2 C 0.1912(13) 0.7827(10) 0.5622(15)
C44_2 C 0.0468(12) 0.7305(12) 0.4657(7)
C45_2 C 0.1245(7) 0.6924(7) 0.4817(4)
C46_2 C 0.0879(9) 0.6879(8) 0.6185(9)
C47_2 C 0.1451(5) 0.6695(6) 0.5553(5)
H33_2 H 0.1234 0.9913 0.3782
H36_2 H 0.2847 0.9858 0.5032
H37_2 H 0.1095 0.8206 0.4940
H38_2 H 0.1549 0.8347 0.4654
H39_2 H 0.1017 0.8445 0.4482
H40_2 H 0.2134 0.8231 0.6489
H41_2 H 0.2536 0.8610 0.6391
H42_2 H 0.2631 0.8081 0.6274
H43_2 H 0.2185 0.7614 0.5630
H44_2 H 0.1674 0.7734 0.5836
H45_2 H 0.1766 0.7820 0.5336
C48_2 C 0.053(2) 0.725(2) 0.4156(7)
H46_2 H 0.0465 0.7640 0.4718
H47_2 H 0.0144 0.7188 0.4728
C49_2 C 0.1571(5) 0.6723(7) 0.5112(6)
H48_2 H 0.1325 0.6943 0.4522
C50_2 C 0.0610(10) 0.6414(9) 0.6317(10)
H49_2 H 0.1176 0.6913 0.6355
H50_2 H 0.0669 0.7147 0.6246
H51_2 H 0.1670 0.6560 0.5750
H52_2 H 0.0818 0.7414 0.4063
H53_2 H 0.0247 0.7387 0.4012
H54_2 H 0.0552 0.6926 0.4082
H55_2 H 0.1870 0.6607 0.5014
H56_2 H 0.0818 0.6150 0.6257
H57_2 H 0.0535 0.6422 0.6624
H58_2 H 0.0312 0.6386 0.6153
C61_2 C 0.0254(12) 0.4793(10) 0.6794(10)
C69_2 C 0.0422(9) 0.5213(10) 0.6471(13)
H59_2 H 0.0525 0.4584 0.6861
H60_2 H 0.0117 0.4914 0.7064
H61_2 H 0.0270 0.3962 0.6413
H71_2 H 0.0557 0.5082 0.6208
H72_2 H 0.0666 0.5402 0.6614
H73_2 H 0.0144 0.5405 0.6400
N2_2 N 0.9963(6) 0.8571(6) 0.5802(6)
C17_2 C 0.9518(6) 0.8848(8) 0.5670(6)
C19_2 C 0.9399(7) 0.8905(8) 0.5231(5)
C20_2 C 0.9227(8) 0.9052(8) 0.5991(5)
O10_2 O 0.9405(5) 0.7712(5) 0.5661(4)
C23_2 C 0.8990(9) 0.9166(9) 0.5113(6)
C24_2 C 0.9756(12) 0.8696(12) 0.4867(10)
C25_2 C 0.8818(8) 0.9313(10) 0.5874(7)
C26_2 C 0.9303(10) 0.8929(13) 0.6491(12)
C27_2 C 0.9838(6) 0.7012(6) 0.5532(5)
C29_2 C 0.9374(7) 0.7272(7) 0.5592(5)
H14_2 H 0.8910 0.9204 0.4819
C34_2 C 0.8699(8) 0.9370(10) 0.5434(8)
H15_2 H 0.9908 0.8951 0.4706
C35_2 C 0.9459(18) 0.8378(17) 0.4549(15)
H17_2 H 0.8623 0.9449 0.6089
H18_2 H 0.9003 0.8790 0.6603
H19_2 H 0.9558 0.8693 0.6515
C36_2 C 0.9436(13) 0.9338(15) 0.6774(14)
O13_2 O 0.9824(5) 0.6572(5) 0.5473(4)
O14_2 O 0.8970(5) 0.7049(5) 0.5600(5)
H26_2 H 0.8425 0.9545 0.5356
H27_2 H 0.9675 0.8250 0.4331
H28_2 H 0.9209 0.8561 0.4409
H29_2 H 0.9310 0.8126 0.4710
H30_2 H 0.9472 0.9234 0.7071
H31_2 H 0.9183 0.9571 0.6758
H32_2 H 0.9739 0.9471 0.6674
Mn2_2 Mn 0.91200(13) 0.62899(12) 0.56438(11)
O15_2 O 0.9081(6) 0.6395(5) 0.6363(5)
O16_2 O 0.9366(6) 0.5613(5) 0.5910(4)
O17_2 O 0.8985(5) 0.6012(5) 0.5013(4)
O18_2 O 0.8354(6) 0.6116(6) 0.5676(5)
C51_2 C 0.9164(8) 0.6032(7) 0.6560(6)
C52_2 C 0.9294(7) 0.5590(6) 0.6313(6)
C53_2 C 0.8556(8) 0.5903(7) 0.4953(6)
C54_2 C 0.8201(9) 0.5963(7) 0.5315(7)
O19_2 O 0.9135(6) 0.5994(4) 0.6975(4)
N6_2 N 0.9304(7) 0.5212(6) 0.6562(5)
C55_2 C 0.9416(6) 0.4755(4) 0.6391(6)
C56_2 C 0.8689(7) 0.5657(7) 0.4211(5)
C57_2 C 0.9855(6) 0.4542(5) 0.6506(6)
C58_2 C 0.9097(5) 0.4530(5) 0.6104(6)
C59_2 C 0.8883(8) 0.6024(6) 0.3965(6)
C60_2 C 0.8790(8) 0.5194(6) 0.4097(6)
C62_2 C 0.9976(6) 0.4105(6) 0.6335(7)
C63_2 C 0.9219(6) 0.4092(5) 0.5933(6)
C64_2 C 0.8591(9) 0.4711(9) 0.6031(10)
C65_2 C 0.8832(12) 0.6512(13) 0.4083(11)
C66_2 C 0.9177(8) 0.5927(8) 0.3605(6)
C67_2 C 0.8552(11) 0.4741(10) 0.4290(8)
C68_2 C 0.9085(9) 0.5097(7) 0.3737(7)
C70_2 C 0.9658(7) 0.3880(5) 0.6049(7)
H62_2 H 0.9006 0.3942 0.5741
H63_2 H 0.8464 0.4577 0.5761
H64_2 H 0.8604 0.5050 0.5994
C71_2 C 0.8234(13) 0.4593(14) 0.6410(12)
H65_2 H 0.8675 0.6691 0.3852
C72_2 C 0.9390(14) 0.6664(16) 0.4145(19)
H66_2 H 0.8648 0.6549 0.4352
C73_2 C 0.9278(8) 0.5464(9) 0.3491(6)
H67_2 H 0.9306 0.6173 0.3440
C74_2 C 0.8856(13) 0.4517(15) 0.4673(12)
H68_2 H 0.8516 0.4511 0.4058
H69_2 H 0.8227 0.4818 0.4397
H70_2 H 0.9152 0.4787 0.3660
H74_2 H 0.9739 0.3587 0.5935
H75_2 H 0.8208 0.4258 0.6440
H76_2 H 0.8357 0.4726 0.6677
H77_2 H 0.7918 0.4724 0.6347
H78_2 H 0.9406 0.6995 0.4207
H79_2 H 0.9530 0.6492 0.4384
H80_2 H 0.9569 0.6598 0.3882
H81_2 H 0.9475 0.5400 0.3250
H82_2 H 0.9172 0.4423 0.4566
H83_2 H 0.8896 0.4743 0.4903
H84_2 H 0.8686 0.4247 0.4784
N7_2 N 0.8363(7) 0.5734(7) 0.4584(6)
O20_2 O 0.7749(6) 0.5828(5) 0.5260(6)
Cu4_2 Cu 0.92036(10) 0.53559(8) 0.71754(8)
Cu5_2 Cu 0.76575(11) 0.56710(10) 0.46372(10)
O21_2 O 0.7518(6) 0.5563(6) 0.4034(5)
O22_2 O 0.7512(8) 0.6470(7) 0.4568(7)
N8_2 N 0.7022(7) 0.5413(7) 0.4750(7)
S2_2 S 0.7123(4) 0.6580(4) 0.4259(4)
C75_2 C 0.7388(13) 0.6676(14) 0.3710(7)
C76_2 C 0.6912(13) 0.7173(10) 0.4378(15)
H85_2 H 0.7134 0.6769 0.3511
H86_2 H 0.7536 0.6390 0.3609
H87_2 H 0.7631 0.6919 0.3726
H88_2 H 0.7185 0.7386 0.4370
H89_2 H 0.6674 0.7266 0.4164
H90_2 H 0.6766 0.7180 0.4664
C24_3 C 0.0244(12) 0.3696(12) 0.0133(10)
H14_3 H 0.1090 0.4204 0.0181
H15_3 H 0.0092 0.3951 0.0294
C35_3 C 0.0541(18) 0.3378(17) 0.0451(15)
H27_3 H 0.0325 0.3250 0.0669
H28_3 H 0.0791 0.3561 0.0591
H29_3 H 0.0690 0.3126 0.0290
C53_3 C 0.1444(8) 0.0903(7) 0.0047(6)
C56_3 C 0.1311(7) 0.0657(7) 0.0789(5)
C59_3 C 0.1117(8) 0.1024(6) 0.1035(6)
C60_3 C 0.1210(8) 0.0194(6) 0.0903(6)
C65_3 C 0.1168(12) 0.1512(13) 0.0917(11)
C66_3 C 0.0823(8) 0.0927(8) 0.1395(6)
C68_3 C 0.0915(9) 0.0097(7) 0.1263(7)
H65_3 H 0.1325 0.1691 0.1148
C72_3 C 0.0610(14) 0.1664(16) 0.0855(19)
H66_3 H 0.1352 0.1549 0.0648
C73_3 C 0.0722(8) 0.0464(9) 0.1509(6)
H67_3 H 0.0694 0.1173 0.1560
H78_3 H 0.0594 0.1995 0.0793
H79_3 H 0.0470 0.1492 0.0616
H80_3 H 0.0431 0.1598 0.1118
H81_3 H 0.0525 0.0400 0.1750
C7_2 C 0.0276(9) 0.5803(11) 0.7887(13)
H1_2 H 0.0216 0.6656 0.8243
H2_2 H 0.0430 0.5933 0.7628
H3_2 H 0.0179 0.5482 0.7826
C11_2 C 0.0655(12) 0.5819(14) 0.8304(16)
H8_2 H 0.0947 0.5648 0.8232
H9_2 H 0.0502 0.5678 0.8555
H10_2 H 0.0737 0.6140 0.8369
N2_3 N 0.0037(6) 0.3571(6) 0.9198(6)
C17_3 C 0.0482(6) 0.3848(8) 0.9330(6)
C19_3 C 0.0601(7) 0.3905(8) 0.9769(5)
C20_3 C 0.0773(8) 0.4052(8) 0.9009(5)
O10_3 O 0.0595(5) 0.2712(5) 0.9339(4)
C23_3 C 0.1010(9) 0.4166(9) 0.9887(6)
C25_3 C 0.1182(8) 0.4313(10) 0.9126(7)
C26_3 C 0.0697(10) 0.3929(13) 0.8509(12)
C27_3 C 0.0162(6) 0.2012(6) 0.9468(5)
C29_3 C 0.0626(7) 0.2272(7) 0.9408(5)
C34_3 C 0.1301(8) 0.4370(10) 0.9566(8)
H17_3 H 0.1377 0.4449 0.8911
H18_3 H 0.0997 0.3790 0.8397
H19_3 H 0.0442 0.3693 0.8485
C36_3 C 0.0564(13) 0.4338(15) 0.8226(14)
O13_3 O 0.0176(5) 0.1572(5) 0.9527(4)
O14_3 O 0.1030(5) 0.2049(5) 0.9400(5)
H26_3 H 0.1575 0.4545 0.9644
H30_3 H 0.0528 0.4234 0.7929
H31_3 H 0.0817 0.4571 0.8242
H32_3 H 0.0261 0.4471 0.8326
Mn2_3 Mn 0.08800(13) 0.12899(12) 0.93562(11)
O15_3 O 0.0919(6) 0.1395(5) 0.8637(5)
O16_3 O 0.0634(6) 0.0613(5) 0.9090(4)
O17_3 O 0.1015(5) 0.1012(5) 0.9987(4)
O18_3 O 0.1646(6) 0.1116(6) 0.9324(5)
C51_3 C 0.0836(8) 0.1032(7) 0.8440(6)
C52_3 C 0.0706(7) 0.0590(6) 0.8687(6)
C54_3 C 0.1799(9) 0.0963(7) 0.9685(7)
O19_3 O 0.0865(6) 0.0994(4) 0.8025(4)
N6_3 N 0.0696(7) 0.0212(6) 0.8438(5)
H64_3 H 0.1396 0.0050 0.9006
C18_3 C 0.8232(7) 0.4676(6) 0.0123(5)
C21_2 C 0.8074(7) 0.5062(6) 0.0365(7)
C22_3 C 0.8590(7) 0.4379(6) 0.0292(6)
C30_2 C 0.8274(8) 0.5151(7) 0.0775(7)
C31_2 C 0.7669(11) 0.5362(12) 0.0172(16)
C32_3 C 0.8790(8) 0.4468(7) 0.0702(7)
C33_3 C 0.8768(17) 0.3932(10) 0.0039(11)
C37_3 C 0.9202(6) 0.2097(6) 0.0036(4)
H20_2 H 0.8169 0.5409 0.0936
C39_3 C 0.8632(9) 0.4854(8) 0.0943(5)
H22_2 H 0.7647 0.5650 0.0340
C40_2 C 0.7145(9) 0.5128(7) 0.0157(10)
H23_3 H 0.9029 0.4270 0.0815
C41_3 C 0.878(2) 0.3434(13) 0.0262(15)
C44_3 C 0.9532(12) 0.2305(12) 0.0343(7)
C45_3 C 0.8755(7) 0.1924(7) 0.0183(4)
H33_3 H 0.8766 0.4913 0.1218
H34_2 H 0.6912 0.5351 0.0047
H35_2 H 0.7052 0.5033 0.0446
H37_3 H 0.8905 0.3206 0.0060
H38_3 H 0.8451 0.3347 0.0346
H39_3 H 0.8983 0.3445 0.0518
C48_3 C 0.947(2) 0.225(2) 0.0844(7)
H46_3 H 0.9535 0.2640 0.0282
H47_3 H 0.9856 0.2188 0.0272
H48_3 H 0.8675 0.1943 0.0478
H52_3 H 0.9182 0.2414 0.0937
H53_3 H 0.9753 0.2387 0.0988
H54_3 H 0.9448 0.1926 0.0918
N1_3 N 0.9250(6) 0.5526(5) 0.7794(5)
O1_3 O 0.9102(6) 0.4722(5) 0.7372(5)
C1_3 C 0.9187(7) 0.5134(7) 0.8036(7)
C2_3 C 0.9325(5) 0.5955(4) 0.7980(5)
C3_3 C 0.9082(7) 0.4692(7) 0.7789(7)
O2_3 O 0.9188(6) 0.5128(4) 0.8457(4)
C4_3 C 0.9804(4) 0.6115(4) 0.8023(6)
C5_3 C 0.8938(4) 0.6230(5) 0.8129(7)
O3_3 O 0.9021(6) 0.4339(5) 0.8020(6)
Mn1_3 Mn 0.89542(14) 0.44660(12) 0.87104(12)
C6_3 C 0.9895(4) 0.6550(5) 0.8215(7)
C8_3 C 0.9030(4) 0.6664(5) 0.8320(8)
C9_3 C 0.8382(9) 0.6089(14) 0.8096(15)
O4_3 O 0.9647(5) 0.4236(5) 0.8945(5)
O5_3 O 0.8860(5) 0.3711(5) 0.8818(4)
O6_3 O 0.8690(6) 0.4699(6) 0.9310(6)
O7_3 O 0.8166(6) 0.4515(6) 0.8607(6)
C10_3 C 0.9509(5) 0.6824(4) 0.8363(7)
H4_3 H 0.8771 0.6848 0.8420
H5_3 H 0.8339 0.5853 0.7870
H6_3 H 0.8188 0.6362 0.8018
C12_3 C 0.8200(18) 0.588(2) 0.8558(16)
C13_3 C 0.9662(7) 0.3820(7) 0.9045(7)
C14_3 C 0.9238(7) 0.3498(7) 0.9001(6)
C15_3 C 0.8219(9) 0.4611(8) 0.9349(8)
C16_3 C 0.7966(9) 0.4521(7) 0.8959(9)
H7_3 H 0.9570 0.7115 0.8491
H11_3 H 0.7863 0.5789 0.8534
H12_3 H 0.8230 0.6123 0.8778
H13_3 H 0.8397 0.5618 0.8637
O8_3 O 0.9239(4) 0.3086(4) 0.9102(4)
Cu2_3 Cu 0.99114(8) 0.29085(8) 0.92682(8)
N4_3 N 0.9776(6) 0.2274(5) 0.9464(5)
C28_3 C 0.9322(4) 0.2069(5) 0.9595(4)
H16_3 H 0.9987 0.3513 0.9994
C38_3 C 0.8995(5) 0.1868(6) 0.9300(4)
H21_3 H 0.7762 0.5447 0.9876
H24_3 H 0.9099 0.3996 0.9940
H25_3 H 0.8566 0.3904 0.9780
C46_3 C 0.9121(9) 0.1879(8) 0.8815(9)
C47_3 C 0.8549(5) 0.1695(6) 0.9447(5)
H36_3 H 0.7153 0.4858 0.9968
C49_3 C 0.8429(5) 0.1723(7) 0.9888(6)
C50_3 C 0.9390(10) 0.1414(9) 0.8683(10)
H49_3 H 0.8824 0.1913 0.8645
H50_3 H 0.9331 0.2147 0.8754
H51_3 H 0.8330 0.1560 0.9250
H55_3 H 0.8130 0.1607 0.9986
H56_3 H 0.9182 0.1150 0.8743
H57_3 H 0.9465 0.1422 0.8376
H58_3 H 0.9688 0.1386 0.8847
C69_3 C 0.9578(9) 0.0213(10) 0.8529(13)
H71_3 H 0.9443 0.0082 0.8792
H72_3 H 0.9334 0.0402 0.8386
H73_3 H 0.9856 0.0405 0.8600
N1_4 N 0.5750(6) 0.4474(5) 0.2794(5)
O1_4 O 0.5898(6) 0.5278(5) 0.2372(5)
C1_4 C 0.5813(7) 0.4866(7) 0.3036(7)
C2_4 C 0.5675(5) 0.4045(4) 0.2980(5)
C3_4 C 0.5918(7) 0.5308(7) 0.2789(7)
O2_4 O 0.5812(6) 0.4872(4) 0.3457(4)
C4_4 C 0.5196(4) 0.3885(4) 0.3023(6)
C5_4 C 0.6062(4) 0.3770(5) 0.3129(7)
O3_4 O 0.5979(6) 0.5661(5) 0.3020(6)
Mn1_4 Mn 0.60458(14) 0.55340(12) 0.37104(12)
C6_4 C 0.5105(4) 0.3450(5) 0.3215(7)
C7_3 C 0.4724(9) 0.4197(11) 0.2887(13)
C8_4 C 0.5970(4) 0.3336(5) 0.3320(8)
C9_4 C 0.6618(9) 0.3911(14) 0.3096(15)
O4_4 O 0.5353(5) 0.5764(5) 0.3945(5)
O5_4 O 0.6140(5) 0.6289(5) 0.3818(4)
O6_4 O 0.6310(6) 0.5301(6) 0.4310(6)
O7_4 O 0.6834(6) 0.5485(6) 0.3607(6)
H1_3 H 0.4784 0.3344 0.3243
C10_4 C 0.5491(5) 0.3176(4) 0.3363(7)
H2_3 H 0.4570 0.4067 0.2628
H3_3 H 0.4821 0.4518 0.2826
C11_3 C 0.4345(12) 0.4181(14) 0.3304(16)
H4_4 H 0.6229 0.3152 0.3420
H5_4 H 0.6661 0.4147 0.2870
H6_4 H 0.6812 0.3638 0.3018
C12_4 C 0.6800(18) 0.412(2) 0.3558(16)
C13_4 C 0.5338(7) 0.6180(7) 0.4045(7)
C14_4 C 0.5762(7) 0.6502(7) 0.4001(6)
C15_4 C 0.6781(9) 0.5389(8) 0.4349(8)
C16_4 C 0.7034(9) 0.5479(7) 0.3959(9)
H7_4 H 0.5430 0.2885 0.3491
H8_3 H 0.4053 0.4352 0.3232
H9_3 H 0.4498 0.4322 0.3555
H10_3 H 0.4263 0.3860 0.3369
H11_4 H 0.7137 0.4211 0.3534
H12_4 H 0.6770 0.3877 0.3778
H13_4 H 0.6603 0.4382 0.3637
N2_4 N 0.4963(6) 0.6429(6) 0.4198(6)
O8_4 O 0.5761(4) 0.6914(4) 0.4102(4)
C17_4 C 0.4518(6) 0.6152(8) 0.4330(6)
Cu2_4 Cu 0.50886(8) 0.70915(8) 0.42682(8)
C18_4 C 0.6768(7) 0.5324(6) 0.5123(5)
C19_4 C 0.4399(7) 0.6095(8) 0.4769(5)
C20_4 C 0.4227(8) 0.5948(8) 0.4009(5)
N4_4 N 0.5224(6) 0.7726(5) 0.4464(5)
O10_4 O 0.4405(5) 0.7288(5) 0.4339(4)
C21_3 C 0.6926(7) 0.4938(6) 0.5365(7)
C22_4 C 0.6410(7) 0.5621(6) 0.5292(6)
C23_4 C 0.3990(9) 0.5834(9) 0.4887(6)
C24_4 C 0.4756(12) 0.6304(12) 0.5133(10)
C25_4 C 0.3818(8) 0.5687(10) 0.4126(7)
C26_4 C 0.4303(10) 0.6071(13) 0.3509(12)
C27_4 C 0.4838(6) 0.7988(6) 0.4468(5)
C28_4 C 0.5678(4) 0.7931(5) 0.4595(4)
C29_4 C 0.4374(7) 0.7728(7) 0.4408(5)
C30_3 C 0.6726(8) 0.4849(7) 0.5775(7)
C31_3 C 0.7331(11) 0.4638(12) 0.5172(16)
C32_4 C 0.6210(8) 0.5532(7) 0.5702(7)
C33_4 C 0.6232(17) 0.6068(10) 0.5039(11)
H14_4 H 0.3910 0.5796 0.5181
C34_4 C 0.3699(8) 0.5630(10) 0.4566(8)
H15_4 H 0.4908 0.6049 0.5294
H16_4 H 0.5013 0.6487 0.4994
C35_4 C 0.4459(18) 0.6622(17) 0.5451(15)
H17_4 H 0.3623 0.5551 0.3911
H18_4 H 0.4003 0.6210 0.3397
H19_4 H 0.4558 0.6307 0.3485
C36_4 C 0.4436(13) 0.5662(15) 0.3226(14)
O13_4 O 0.4824(5) 0.8428(5) 0.4527(4)
C37_4 C 0.5798(6) 0.7903(6) 0.5036(4)
C38_4 C 0.6005(5) 0.8132(6) 0.4300(4)
O14_4 O 0.3970(5) 0.7951(5) 0.4400(5)
H20_3 H 0.6831 0.4591 0.5936
C39_4 C 0.6368(9) 0.5146(8) 0.5943(5)
H21_4 H 0.7238 0.4553 0.4876
H22_3 H 0.7353 0.4350 0.5340
C40_3 C 0.7855(9) 0.4872(7) 0.5157(10)
H23_4 H 0.5971 0.5730 0.5815
H24_4 H 0.5901 0.6004 0.4940
H25_4 H 0.6434 0.6096 0.4780
C41_4 C 0.622(2) 0.6566(13) 0.5262(15)
H26_4 H 0.3425 0.5455 0.4644
H27_4 H 0.4675 0.6750 0.5669
H28_4 H 0.4209 0.6439 0.5591
H29_4 H 0.4310 0.6874 0.5290
H30_4 H 0.4472 0.5766 0.2929
H31_4 H 0.4183 0.5429 0.3242
H32_4 H 0.4739 0.5529 0.3326
Mn2_4 Mn 0.41200(13) 0.87101(12) 0.43562(11)
C44_4 C 0.5468(12) 0.7695(12) 0.5343(7)
C45_4 C 0.6245(7) 0.8076(7) 0.5183(4)
C46_4 C 0.5879(9) 0.8121(8) 0.3815(9)
C47_4 C 0.6451(5) 0.8305(6) 0.4447(5)
H33_4 H 0.6234 0.5087 0.6218
H34_3 H 0.8088 0.4649 0.5047
H35_3 H 0.7948 0.4967 0.5446
H36_4 H 0.7847 0.5142 0.4968
H37_4 H 0.6095 0.6794 0.5060
H38_4 H 0.6549 0.6653 0.5346
H39_4 H 0.6017 0.6555 0.5518
O15_4 O 0.4081(6) 0.8605(5) 0.3637(5)
O16_4 O 0.4366(6) 0.9387(5) 0.4090(4)
O17_4 O 0.3985(5) 0.8988(5) 0.4987(4)
O18_4 O 0.3354(6) 0.8884(6) 0.4324(5)
C48_4 C 0.553(2) 0.775(2) 0.5844(7)
H46_4 H 0.5465 0.7360 0.5282
H47_4 H 0.5144 0.7812 0.5272
C49_4 C 0.6571(5) 0.8277(7) 0.4888(6)
H48_4 H 0.6325 0.8057 0.5478
C50_4 C 0.5610(10) 0.8586(9) 0.3683(10)
H49_4 H 0.6176 0.8087 0.3645
H50_4 H 0.5669 0.7853 0.3754
H51_4 H 0.6670 0.8440 0.4250
C51_4 C 0.4164(8) 0.8968(7) 0.3440(6)
C52_4 C 0.4294(7) 0.9410(6) 0.3687(6)
C53_4 C 0.3556(8) 0.9097(7) 0.5047(6)
C54_4 C 0.3201(9) 0.9037(7) 0.4685(7)
H52_4 H 0.5818 0.7586 0.5937
H53_4 H 0.5247 0.7613 0.5988
H54_4 H 0.5552 0.8074 0.5918
H55_4 H 0.6870 0.8393 0.4986
H56_4 H 0.5818 0.8850 0.3743
H57_4 H 0.5535 0.8578 0.3376
H58_4 H 0.5312 0.8614 0.3847
O19_4 O 0.4135(6) 0.9006(4) 0.3025(4)
N6_4 N 0.4304(7) 0.9788(6) 0.3438(5)
C56_4 C 0.3689(7) 0.9343(7) 0.5789(5)
C59_4 C 0.3883(8) 0.8976(6) 0.6035(6)
C60_4 C 0.3790(8) 0.9806(6) 0.5903(6)
C65_4 C 0.3832(12) 0.8488(13) 0.5917(11)
C66_4 C 0.4177(8) 0.9073(8) 0.6395(6)
C68_4 C 0.4085(9) 0.9903(7) 0.6263(7)
C69_4 C 0.5422(9) 0.9787(10) 0.3529(13)
H64_4 H 0.3604 0.9950 0.4006
H65_4 H 0.3675 0.8309 0.6148
C72_4 C 0.4390(14) 0.8336(16) 0.5855(19)
H66_4 H 0.3648 0.8451 0.5648
C73_4 C 0.4278(8) 0.9536(9) 0.6509(6)
H67_4 H 0.4306 0.8827 0.6560
H71_4 H 0.5557 0.9918 0.3792
H72_4 H 0.5666 0.9598 0.3386
H73_4 H 0.5144 0.9595 0.3600
H78_4 H 0.4406 0.8005 0.5793
H79_4 H 0.4530 0.8508 0.5616
H80_4 H 0.4569 0.8402 0.6118
H81_4 H 0.4475 0.9600 0.6750
C21_4 C 0.3074(7) 0.9938(6) 0.9635(7)
C30_4 C 0.3274(8) 0.9849(7) 0.9225(7)
C31_4 C 0.2669(11) 0.9638(12) 0.9828(16)
H20_4 H 0.3169 0.9591 0.9064
H22_4 H 0.2647 0.9350 0.9660
C40_4 C 0.2145(9) 0.9872(7) 0.9843(10)
H34_4 H 0.1912 0.9649 0.9953
H35_4 H 0.2052 0.9967 0.9554
C7_4 C 0.9724(9) 0.0803(11) 0.7113(13)
H1_4 H 0.9784 0.1656 0.6757
H2_4 H 0.9570 0.0933 0.7372
H3_4 H 0.9821 0.0482 0.7174
C11_4 C 0.9345(12) 0.0819(14) 0.6696(16)
H8_4 H 0.9053 0.0648 0.6768
H9_4 H 0.9498 0.0678 0.6445
H10_4 H 0.9263 0.1140 0.6631
C67_3 C 0.1448(11) 0.9741(10) 0.0710(8)
C74_3 C 0.1144(13) 0.9517(15) 0.0327(12)
H68_3 H 0.1484 0.9511 0.0942
H69_3 H 0.1773 0.9818 0.0603
H70_3 H 0.0848 0.9787 0.1340
H82_3 H 0.0828 0.9423 0.0434
H83_3 H 0.1104 0.9743 0.0097
H84_3 H 0.1314 0.9247 0.0216
C55_3 C 0.0584(6) 0.9755(4) 0.8609(6)
C57_3 C 0.0145(6) 0.9542(5) 0.8494(6)
C58_3 C 0.0903(5) 0.9530(5) 0.8896(6)
C62_3 C 0.0024(6) 0.9105(6) 0.8665(7)
C63_3 C 0.0781(6) 0.9092(5) 0.9067(6)
C64_3 C 0.1409(9) 0.9711(9) 0.8969(10)
C70_3 C 0.0342(7) 0.8880(5) 0.8951(7)
H62_3 H 0.0994 0.8942 0.9259
H63_3 H 0.1536 0.9577 0.9239
C71_3 C 0.1766(13) 0.9593(14) 0.8590(12)
H74_3 H 0.0261 0.8587 0.9065
H75_3 H 0.1792 0.9258 0.8560
H76_3 H 0.1643 0.9726 0.8323
H77_3 H 0.2082 0.9724 0.8653
C61_3 C 0.9746(12) 0.9793(10) 0.8206(10)
H59_3 H 0.9475 0.9584 0.8139
H60_3 H 0.9883 0.9914 0.7936
H61_3 H 0.9730 0.8962 0.8587
C55_4 C 0.4416(6) 0.0245(4) 0.3609(6)
C57_4 C 0.4855(6) 0.0458(5) 0.3494(6)
C58_4 C 0.4097(5) 0.0470(5) 0.3896(6)
C61_4 C 0.5254(12) 0.0207(10) 0.3206(10)
C62_4 C 0.4976(6) 0.0895(6) 0.3665(7)
C63_4 C 0.4219(6) 0.0908(5) 0.4067(6)
C64_4 C 0.3591(9) 0.0289(9) 0.3969(10)
C67_4 C 0.3552(11) 0.0259(10) 0.5710(8)
H59_4 H 0.5525 0.0416 0.3139
H60_4 H 0.5117 0.0086 0.2936
C70_4 C 0.4658(7) 0.1120(5) 0.3951(7)
H61_4 H 0.5270 0.1038 0.3587
H62_4 H 0.4006 0.1058 0.4259
H63_4 H 0.3464 0.0423 0.4239
C71_4 C 0.3234(13) 0.0407(14) 0.3590(12)
C74_4 C 0.3856(13) 0.0483(15) 0.5327(12)
H68_4 H 0.3516 0.0489 0.5942
H69_4 H 0.3227 0.0182 0.5603
H70_4 H 0.4152 0.0213 0.6340
H74_4 H 0.4739 0.1413 0.4065
H75_4 H 0.3208 0.0742 0.3560
H76_4 H 0.3357 0.0274 0.3323
H77_4 H 0.2918 0.0276 0.3653
H82_4 H 0.4172 0.0577 0.5434
H83_4 H 0.3896 0.0257 0.5097
H84_4 H 0.3686 0.0753 0.5216
C150 C 0.0580(13) 0.6876(12) 0.0334(10)
H169 H 0.0797 0.6776 0.0564
H170 H 0.0704 0.7159 0.0204
H171 H 0.0560 0.6634 0.0116
N15 N 0.0667(8) 0.7529(7) 0.1741(7)
O43 O 0.0210(8) 0.6727(5) 0.1653(7)
Cu6 Cu 0.68414(11) 0.01372(10) 0.74680(8)
H98 H 0.8223 0.0068 0.7019
H99 H 0.7653 0.0091 0.6960
C151 C 0.5622(11) 0.0356(12) 0.6628(8)
H172 H 0.5906 0.0172 0.6557
H173 H 0.5686 0.0681 0.6567
H174 H 0.5349 0.0251 0.6456
C152 C 0.5255(9) 0.0865(8) 0.7248(9)
H175 H 0.5245 0.0930 0.7556
H176 H 0.4930 0.0885 0.7129
H177 H 0.5462 0.1091 0.7105
O42 O 0.5946(7) 0.0258(7) 0.7465(5)
S4 S 0.5490(4) 0.0292(4) 0.7160(3)
N16 N 0.6993(6) 0.0807(6) 0.7565(6)
O44 O 0.6841(6) 0.0309(7) 0.6846(5)
Mn3 Mn 0.66769(17) 0.85462(17) 0.83716(13)
Cu7 Cu 0.74433(10) 0.81463(13) 0.99630(9)
C77 C 0.6831(13) 0.9520(10) 0.8095(8)
C78 C 0.6916(12) 0.9222(7) 0.7719(6)
C79 C 0.7447(6) 0.9196(6) 0.6742(5)
C80 C 0.6985(7) 0.9231(6) 0.6929(5)
C81 C 0.6580(6) 0.9046(8) 0.6713(6)
C82 C 0.6638(8) 0.8827(9) 0.6310(6)
H91 H 0.6367 0.8704 0.6165
C83 C 0.7100(9) 0.8793(9) 0.6122(5)
H92 H 0.7139 0.8646 0.5853
C84 C 0.7505(7) 0.8977(8) 0.6339(6)
H93 H 0.7814 0.8954 0.6213
C85 C 0.6036(9) 0.9090(11) 0.6899(10)
H94 H 0.6037 0.9232 0.7187
H95 H 0.5836 0.9281 0.6706
C86 C 0.7908(10) 0.9399(10) 0.6988(8)
H96 H 0.7872 0.9360 0.7301
H97 H 0.8202 0.9235 0.6895
C87 C 0.795(2) 0.9933(12) 0.6870(13)
H100 H 0.7988 0.9967 0.6560
C88 C 0.5832(18) 0.8575(14) 0.692(2)
H101 H 0.5525 0.8574 0.7075
H102 H 0.6062 0.8379 0.7075
H103 H 0.5785 0.8456 0.6631
C89 C 0.5622(11) 0.8296(8) 0.8296(7)
C90 C 0.5912(10) 0.7876(8) 0.8240(7)
C91 C 0.5497(10) 0.6967(10) 0.7472(9)
H104 H 0.5445 0.6692 0.7291
H105 H 0.5182 0.7055 0.7595
C92 C 0.5889(6) 0.7066(5) 0.8257(6)
C93 C 0.6172(7) 0.6881(7) 0.8594(5)
C94 C 0.6415(7) 0.6456(7) 0.8535(7)
H106 H 0.6604 0.6332 0.8761
C95 C 0.6377(7) 0.6217(5) 0.8140(8)
H107 H 0.6540 0.5933 0.8101
C96 C 0.6095(8) 0.6402(5) 0.7803(6)
H108 H 0.6069 0.6242 0.7539
C97 C 0.5851(6) 0.6827(6) 0.7861(6)
C98 C 0.568(2) 0.7379(14) 0.7172(14)
H109 H 0.5434 0.7444 0.6954
H110 H 0.5978 0.7290 0.7032
H111 H 0.5731 0.7655 0.7347
C99 C 0.6218(14) 0.7176(10) 0.9026(8)
H112 H 0.6373 0.7473 0.8952
H113 H 0.5889 0.7249 0.9126
C100 C 0.6500(13) 0.6964(17) 0.9417(11)
H114 H 0.6504 0.7186 0.9655
H115 H 0.6830 0.6895 0.9330
H116 H 0.6342 0.6680 0.9511
C101 C 0.6837(8) 0.8339(9) 0.9283(8)
C102 C 0.7327(8) 0.8266(9) 0.9088(8)
C103 C 0.8184(5) 0.8084(6) 0.9262(7)
C104 C 0.8488(6) 0.8473(5) 0.9219(9)
C105 C 0.8988(6) 0.8412(6) 0.9158(9)
H117 H 0.9192 0.8673 0.9129
C106 C 0.9185(5) 0.7961(7) 0.9141(9)
H118 H 0.9520 0.7921 0.9100
C107 C 0.8881(7) 0.7572(6) 0.9184(9)
H119 H 0.9012 0.7271 0.9173
C108 C 0.8381(7) 0.7633(5) 0.9245(8)
C109 C 0.8028(13) 0.7216(12) 0.9389(12)
H120 H 0.8217 0.6953 0.9500
H121 H 0.7806 0.7321 0.9617
C110 C 0.8265(8) 0.8977(7) 0.9242(15)
H122 H 0.8513 0.9193 0.9347
H123 H 0.7999 0.8977 0.9452
C111 C 0.7732(11) 0.7065(15) 0.8970(13)
H124 H 0.7520 0.6807 0.9041
H125 H 0.7956 0.6971 0.8744
H126 H 0.7539 0.7326 0.8868
C112 C 0.807(2) 0.9159(17) 0.8789(19)
H127 H 0.7944 0.9473 0.8823
H128 H 0.7810 0.8956 0.8689
H129 H 0.8329 0.9159 0.8579
H167 H 0.9682 0.6868 0.9869
H168 H 0.9838 0.7395 0.9929
N9 N 0.6907(9) 0.9469(7) 0.7358(6)
N10 N 0.5667(8) 0.7471(7) 0.8259(7)
N11 N 0.7690(8) 0.8174(7) 0.9387(6)
O23 O 0.6840(6) 0.9943(6) 0.8084(4)
O24 O 0.6778(10) 0.9303(7) 0.8471(6)
O25 O 0.6920(10) 0.8767(6) 0.7757(6)
O26 O 0.5210(8) 0.8273(5) 0.8347(7)
O27 O 0.5851(9) 0.8683(7) 0.8287(6)
O28 O 0.6385(8) 0.7864(7) 0.8190(6)
O29 O 0.7373(7) 0.8310(7) 0.8676(5)
O30 O 0.6442(7) 0.8485(7) 0.9045(5)
O31 O 0.6812(6) 0.8251(7) 0.9698(5)
Cu10 Cu 0.49767(11) 0.76151(9) 0.83611(10)
Cu10_2 Cu 0.00233(11) 0.23849(9) 0.33611(10)
Mn3_2 Mn 0.83231(17) 0.14538(17) 0.33716(13)
Mn4 Mn 0.67562(17) 0.17255(17) 0.65538(13)
Cu7_2 Cu 0.75567(10) 0.18537(13) 0.49630(9)
Cu8 Cu 0.50233(11) 0.26151(9) 0.66389(10)
C77_2 C 0.8169(13) 0.0480(10) 0.3095(8)
C78_2 C 0.8084(12) 0.0778(7) 0.2719(6)
C79_2 C 0.7553(6) 0.0804(6) 0.1742(5)
C80_2 C 0.8015(7) 0.0769(6) 0.1929(5)
C81_2 C 0.8420(6) 0.0954(8) 0.1713(6)
C82_2 C 0.8362(8) 0.1173(9) 0.1310(6)
H91_2 H 0.8633 0.1296 0.1165
C83_2 C 0.7900(9) 0.1207(9) 0.1122(5)
H92_2 H 0.7861 0.1354 0.0853
C84_2 C 0.7495(7) 0.1023(8) 0.1339(6)
H93_2 H 0.7186 0.1046 0.1213
C85_2 C 0.8964(9) 0.0910(11) 0.1899(10)
H94_2 H 0.8963 0.0768 0.2187
H95_2 H 0.9164 0.0719 0.1706
C86_2 C 0.7092(10) 0.0601(10) 0.1988(8)
H96_2 H 0.7128 0.0640 0.2301
H97_2 H 0.6798 0.0765 0.1895
C87_2 C 0.705(2) 0.0067(12) 0.1870(13)
H100_2 H 0.7012 0.0033 0.1560
C88_2 C 0.9168(18) 0.1425(14) 0.192(2)
H101_2 H 0.9475 0.1426 0.2075
H102_2 H 0.8938 0.1621 0.2075
H103_2 H 0.9215 0.1544 0.1631
C89_2 C 0.9378(11) 0.1704(8) 0.3296(7)
C90_2 C 0.9088(10) 0.2124(8) 0.3240(7)
C91_2 C 0.9503(10) 0.3033(10) 0.2472(9)
H104_2 H 0.9555 0.3308 0.2291
H105_2 H 0.9818 0.2945 0.2595
C92_2 C 0.9111(6) 0.2934(5) 0.3257(6)
C93_2 C 0.8828(7) 0.3119(7) 0.3594(5)
C94_2 C 0.8585(7) 0.3544(7) 0.3535(7)
H106_2 H 0.8396 0.3668 0.3761
C95_2 C 0.8623(7) 0.3783(5) 0.3140(8)
H107_2 H 0.8460 0.4067 0.3101
C96_2 C 0.8905(8) 0.3598(5) 0.2803(6)
H108_2 H 0.8931 0.3758 0.2539
C97_2 C 0.9149(6) 0.3173(6) 0.2861(6)
C98_2 C 0.932(2) 0.2621(14) 0.2172(14)
H109_2 H 0.9566 0.2556 0.1954
H110_2 H 0.9022 0.2710 0.2032
H111_2 H 0.9269 0.2345 0.2347
C99_2 C 0.8782(14) 0.2824(10) 0.4026(8)
H112_2 H 0.8627 0.2527 0.3952
H113_2 H 0.9111 0.2751 0.4126
C100_2 C 0.8500(13) 0.3036(17) 0.4417(11)
H114_2 H 0.8496 0.2814 0.4655
H115_2 H 0.8170 0.3105 0.4330
H116_2 H 0.8658 0.3320 0.4511
C101_2 C 0.8163(8) 0.1661(9) 0.4283(8)
C102_2 C 0.7673(8) 0.1734(9) 0.4088(8)
C103_2 C 0.6816(5) 0.1916(6) 0.4262(7)
C104_2 C 0.6512(6) 0.1527(5) 0.4219(9)
C105_2 C 0.6012(6) 0.1588(6) 0.4158(9)
H117_2 H 0.5808 0.1327 0.4129
C106_2 C 0.5815(5) 0.2039(7) 0.4141(9)
H118_2 H 0.5480 0.2079 0.4100
C107_2 C 0.6119(7) 0.2428(6) 0.4184(9)
H119_2 H 0.5988 0.2729 0.4173
C108_2 C 0.6619(7) 0.2367(5) 0.4245(8)
C109_2 C 0.6972(13) 0.2784(12) 0.4389(12)
H120_2 H 0.6783 0.3047 0.4500
H121_2 H 0.7194 0.2679 0.4617
C110_2 C 0.6735(8) 0.1023(7) 0.4242(15)
H122_2 H 0.6487 0.0807 0.4347
H123_2 H 0.7001 0.1023 0.4452
C111_2 C 0.7268(11) 0.2935(15) 0.3970(13)
H124_2 H 0.7480 0.3193 0.4041
H125_2 H 0.7044 0.3029 0.3744
H126_2 H 0.7461 0.2674 0.3868
C112_2 C 0.693(2) 0.0841(17) 0.3789(19)
H127_2 H 0.7056 0.0527 0.3823
H128_2 H 0.7190 0.1044 0.3689
H129_2 H 0.6671 0.0841 0.3579
C113 C 0.6922(9) 0.1842(14) 0.5645(9)
C114 C 0.7423(9) 0.1903(14) 0.5847(9)
C115 C 0.8270(8) 0.2032(10) 0.5689(8)
C116 C 0.8614(11) 0.1673(9) 0.5761(10)
C117 C 0.9100(12) 0.1808(14) 0.5846(14)
C118 C 0.9213(14) 0.2305(15) 0.5814(13)
C119 C 0.8926(12) 0.2649(14) 0.5692(14)
C120 C 0.8445(9) 0.2515(9) 0.5655(11)
C121 C 0.8415(15) 0.1180(11) 0.5713(17)
H130 H 0.8084 0.1211 0.5603
H131 H 0.8388 0.1052 0.6007
C122 C 0.8044(11) 0.2872(11) 0.5558(15)
H132 H 0.7744 0.2746 0.5681
H133 H 0.8001 0.2874 0.5242
C123 C 0.808(2) 0.3407(14) 0.571(3)
H134 H 0.7776 0.3564 0.5632
H135 H 0.8344 0.3557 0.5560
H136 H 0.8124 0.3422 0.6017
C124 C 0.867(2) 0.0786(16) 0.542(2)
H137 H 0.8490 0.0499 0.5442
H138 H 0.9000 0.0733 0.5531
H139 H 0.8687 0.0888 0.5125
C125 C 0.6878(7) 0.0767(9) 0.6811(7)
C126 C 0.6995(7) 0.1039(9) 0.7210(7)
C127 C 0.7113(5) 0.1022(6) 0.7961(5)
C128 C 0.6773(5) 0.1320(7) 0.8156(6)
C129 C 0.6899(6) 0.1571(7) 0.8529(6)
H140 H 0.6672 0.1771 0.8659
C130 C 0.7365(7) 0.1525(6) 0.8708(5)
H141 H 0.7449 0.1693 0.8957
C131 C 0.7704(5) 0.1227(6) 0.8513(6)
H142 H 0.8016 0.1196 0.8632
C132 C 0.7578(5) 0.0975(6) 0.8139(6)
C133 C 0.7972(12) 0.0660(10) 0.7946(11)
H143 H 0.8255 0.0853 0.7879
H144 H 0.7851 0.0533 0.7673
C134 C 0.6249(9) 0.1352(12) 0.7985(9)
H145 H 0.6128 0.1031 0.7983
H146 H 0.6279 0.1443 0.7680
C135 C 0.5824(16) 0.165(2) 0.8166(19)
H147 H 0.5534 0.1596 0.7996
H148 H 0.5909 0.1979 0.8151
H149 H 0.5763 0.1566 0.8465
C136 C 0.815(2) 0.023(2) 0.825(2)
H150 H 0.8394 0.0051 0.8094
H151 H 0.7875 0.0031 0.8314
H152 H 0.8287 0.0350 0.8514
C137 C 0.5734(8) 0.1934(8) 0.6680(7)
C138 C 0.6026(9) 0.2362(7) 0.6706(7)
C139 C 0.5959(8) 0.3228(5) 0.6758(6)
C140 C 0.6195(9) 0.3390(5) 0.6385(6)
C141 C 0.6437(10) 0.3820(5) 0.6391(7)
H153 H 0.6595 0.3928 0.6141
C142 C 0.6443(11) 0.4088(6) 0.6772(7)
H154 H 0.6605 0.4375 0.6776
C143 C 0.6207(13) 0.3926(6) 0.7145(6)
H155 H 0.6212 0.4105 0.7400
C144 C 0.5965(11) 0.3496(5) 0.7139(6)
C145 C 0.6326(13) 0.3120(10) 0.5942(9)
H156 H 0.6212 0.3301 0.5693
H157 H 0.6166 0.2816 0.5937
C146 C 0.6020(17) 0.3186(12) 0.7585(9)
H158 H 0.6268 0.2947 0.7537
H159 H 0.6138 0.3390 0.7816
C147 C 0.6906(12) 0.305(2) 0.592(2)
H160 H 0.6987 0.2867 0.5664
H161 H 0.7020 0.2897 0.6175
H162 H 0.7061 0.3355 0.5893
C148 C 0.554(2) 0.294(2) 0.7745(17)
H163 H 0.5615 0.2752 0.7997
H164 H 0.5417 0.2745 0.7515
H165 H 0.5305 0.3176 0.7820
C149 C 0.5327(14) 0.2867(13) 0.5063(10)
H166 H 0.5661 0.2784 0.5122
H167_2 H 0.5318 0.3132 0.4869
H168_2 H 0.5162 0.2605 0.4929
C150_2 C 0.4420(13) 0.3124(12) 0.5334(10)
H169_2 H 0.4203 0.3224 0.5564
H170_2 H 0.4296 0.2841 0.5204
H171_2 H 0.4440 0.3366 0.5116
N9_2 N 0.8093(9) 0.0531(7) 0.2358(6)
N10_2 N 0.9333(8) 0.2529(7) 0.3259(7)
N11_2 N 0.7310(8) 0.1826(7) 0.4387(6)
N12 N 0.7777(7) 0.1936(7) 0.5551(6)
N14 N 0.5694(8) 0.2742(6) 0.6740(6)
O23_2 O 0.8160(6) 0.0057(6) 0.3084(4)
O24_2 O 0.8222(10) 0.0697(7) 0.3471(6)
O25_2 O 0.8080(10) 0.1233(6) 0.2757(6)
O26_2 O 0.9790(8) 0.1727(5) 0.3347(7)
O27_2 O 0.9149(9) 0.1317(7) 0.3287(6)
O28_2 O 0.8615(8) 0.2136(7) 0.3190(6)
O29_2 O 0.7627(7) 0.1690(7) 0.3676(5)
O30_2 O 0.8558(7) 0.1515(7) 0.4045(5)
O31_2 O 0.8188(6) 0.1749(7) 0.4698(5)
O32 O 0.6924(6) 0.1804(10) 0.5211(6)
O33 O 0.6578(6) 0.1734(10) 0.5864(6)
O34 O 0.7454(6) 0.1925(9) 0.6245(6)
O35 O 0.7020(5) 0.1493(6) 0.7183(5)
O36 O 0.6839(6) 0.0970(7) 0.6453(5)
O38 O 0.6470(6) 0.2386(6) 0.6747(6)
O39 O 0.5972(6) 0.1551(5) 0.6662(5)
O40 O 0.5246(5) 0.1967(5) 0.6667(5)
O41 O 0.5003(7) 0.2582(6) 0.5858(6)
S3 S 0.5028(3) 0.3014(3) 0.5561(2)
N15_2 N 0.4333(8) 0.2471(7) 0.6741(7)
O43_2 O 0.4790(8) 0.3273(5) 0.6653(7)
H250 H 0.958488 0.240474 0.590305
H251 H 0.905511 0.300453 0.562661
H252 H 0.937919 0.155062 0.593206
Mn3_3 Mn 0.16769(17) 0.64538(17) 0.16284(13)
Cu6_2 Cu 0.18414(11) 0.48628(10) 0.25320(8)
Cu7_3 Cu 0.24433(10) 0.68537(13) 0.00370(9)
C77_3 C 0.1831(13) 0.5480(10) 0.1905(8)
C78_3 C 0.1916(12) 0.5778(7) 0.2281(6)
C79_3 C 0.2447(6) 0.5804(6) 0.3258(5)
C80_3 C 0.1985(7) 0.5769(6) 0.3071(5)
C81_3 C 0.1580(6) 0.5954(8) 0.3287(6)
C82_3 C 0.1638(8) 0.6173(9) 0.3690(6)
H91_3 H 0.1367 0.6296 0.3835
C83_3 C 0.2100(9) 0.6207(9) 0.3878(5)
H92_3 H 0.2139 0.6354 0.4147
C84_3 C 0.2505(7) 0.6023(8) 0.3661(6)
H93_3 H 0.2814 0.6046 0.3787
C85_3 C 0.1036(9) 0.5910(11) 0.3101(10)
H94_3 H 0.1037 0.5768 0.2813
H95_3 H 0.0836 0.5719 0.3294
C86_3 C 0.2908(10) 0.5601(10) 0.3012(8)
H96_3 H 0.2872 0.5640 0.2699
H97_3 H 0.3202 0.5765 0.3105
C87_3 C 0.295(2) 0.5067(12) 0.3130(13)
H98_2 H 0.3223 0.4932 0.2981
H99_2 H 0.2653 0.4909 0.3040
H100_3 H 0.2988 0.5033 0.3440
C88_3 C 0.0832(18) 0.6425(14) 0.308(2)
H101_3 H 0.0525 0.6426 0.2925
H102_3 H 0.1062 0.6621 0.2925
H103_3 H 0.0785 0.6544 0.3369
C89_3 C 0.0622(11) 0.6704(8) 0.1704(7)
C90_3 C 0.0912(10) 0.7124(8) 0.1760(7)
C91_3 C 0.0497(10) 0.8033(10) 0.2528(9)
H104_3 H 0.0445 0.8308 0.2709
H105_3 H 0.0182 0.7945 0.2405
C92_3 C 0.0889(6) 0.7934(5) 0.1743(6)
C93_3 C 0.1172(7) 0.8119(7) 0.1406(5)
C94_3 C 0.1415(7) 0.8544(7) 0.1465(7)
H106_3 H 0.1604 0.8668 0.1239
C95_3 C 0.1377(7) 0.8783(5) 0.1860(8)
H107_3 H 0.1540 0.9067 0.1899
C96_3 C 0.1095(8) 0.8598(5) 0.2197(6)
H108_3 H 0.1069 0.8758 0.2461
C97_3 C 0.0851(6) 0.8173(6) 0.2139(6)
C98_3 C 0.068(2) 0.7621(14) 0.2828(14)
H109_3 H 0.0434 0.7556 0.3046
H110_3 H 0.0978 0.7710 0.2968
H111_3 H 0.0731 0.7345 0.2653
C99_3 C 0.1218(14) 0.7824(10) 0.0974(8)
H112_3 H 0.1373 0.7527 0.1048
H113_3 H 0.0889 0.7751 0.0874
C100_3 C 0.1500(13) 0.8036(17) 0.0583(11)
H114_3 H 0.1504 0.7814 0.0345
H115_3 H 0.1830 0.8105 0.0670
H116_3 H 0.1342 0.8320 0.0489
C101_3 C 0.1837(8) 0.6661(9) 0.0717(8)
C102_3 C 0.2327(8) 0.6734(9) 0.0912(8)
C103_3 C 0.3184(5) 0.6916(6) 0.0738(7)
C104_3 C 0.3488(6) 0.6527(5) 0.0781(9)
C105_3 C 0.3988(6) 0.6588(6) 0.0842(9)
H117_3 H 0.4192 0.6327 0.0871
C106_3 C 0.4185(5) 0.7039(7) 0.0859(9)
H118_3 H 0.4520 0.7079 0.0900
C107_3 C 0.3881(7) 0.7428(6) 0.0816(9)
H119_3 H 0.4012 0.7729 0.0827
C108_3 C 0.3381(7) 0.7367(5) 0.0755(8)
C109_3 C 0.3028(13) 0.7784(12) 0.0611(12)
H120_3 H 0.3217 0.8047 0.0500
H121_3 H 0.2806 0.7679 0.0383
C110_3 C 0.3265(8) 0.6023(7) 0.0758(15)
H122_3 H 0.3513 0.5807 0.0653
H123_3 H 0.2999 0.6023 0.0548
C111_3 C 0.2732(11) 0.7935(15) 0.1030(13)
H124_3 H 0.2520 0.8193 0.0959
H125_3 H 0.2956 0.8029 0.1256
H126_3 H 0.2539 0.7674 0.1132
C112_3 C 0.307(2) 0.5841(17) 0.1211(19)
H127_3 H 0.2944 0.5527 0.1177
H128_3 H 0.2810 0.6044 0.1311
H129_3 H 0.3329 0.5841 0.1421
H167_3 H 0.4682 0.8132 0.0131
H168_3 H 0.4838 0.7605 0.0071
C151_2 C 0.0622(11) 0.4644(12) 0.3372(8)
H172_2 H 0.0906 0.4828 0.3443
H173_2 H 0.0686 0.4319 0.3433
H174_2 H 0.0349 0.4749 0.3544
C152_2 C 0.0255(9) 0.4135(8) 0.2752(9)
H175_2 H 0.0245 0.4070 0.2444
H177_2 H 0.0462 0.3909 0.2895
N9_3 N 0.1907(9) 0.5531(7) 0.2642(6)
N11_3 N 0.2690(8) 0.6826(7) 0.0613(6)
O23_3 O 0.1840(6) 0.5057(6) 0.1916(4)
O24_3 O 0.1778(10) 0.5697(7) 0.1529(6)
O25_3 O 0.1920(10) 0.6233(6) 0.2243(6)
O27_3 O 0.0851(9) 0.6317(7) 0.1713(6)
O28_3 O 0.1385(8) 0.7136(7) 0.1810(6)
O29_3 O 0.2373(7) 0.6690(7) 0.1324(5)
O30_3 O 0.1442(7) 0.6515(7) 0.0955(5)
O31_3 O 0.1812(6) 0.6749(7) 0.0302(5)
O42_2 O 0.0946(7) 0.4742(7) 0.2535(5)
S4_2 S 0.0490(4) 0.4708(4) 0.2840(3)
N16_2 N 0.1993(6) 0.4193(6) 0.2435(6)
O44_2 O 0.1841(6) 0.4691(7) 0.3154(5)
Mn4_2 Mn 0.32438(17) 0.67255(17) 0.84462(13)
C113_2 C 0.3078(9) 0.6842(14) 0.9355(9)
C114_2 C 0.2577(9) 0.6903(14) 0.9153(9)
C115_2 C 0.1730(8) 0.7032(10) 0.9311(8)
C116_2 C 0.1386(11) 0.6673(9) 0.9239(10)
C117_2 C 0.0900(12) 0.6808(14) 0.9154(14)
C118_2 C 0.0787(14) 0.7305(15) 0.9186(13)
C119_2 C 0.1074(12) 0.7649(14) 0.9308(14)
C120_2 C 0.1555(9) 0.7515(9) 0.9345(11)
C121_2 C 0.1585(15) 0.6180(11) 0.9287(17)
H130_2 H 0.1916 0.6211 0.9397
H131_2 H 0.1612 0.6052 0.8993
C122_2 C 0.1956(11) 0.7872(11) 0.9442(15)
H132_2 H 0.2256 0.7746 0.9319
H133_2 H 0.1999 0.7874 0.9758
C123_2 C 0.192(2) 0.8407(14) 0.929(3)
H134_2 H 0.2224 0.8564 0.9368
H135_2 H 0.1656 0.8557 0.9440
H136_2 H 0.1876 0.8422 0.8983
C124_2 C 0.133(2) 0.5786(16) 0.958(2)
H137_2 H 0.1510 0.5499 0.9558
H138_2 H 0.1000 0.5733 0.9469
H139_2 H 0.1313 0.5888 0.9875
C125_2 C 0.3122(7) 0.5767(9) 0.8189(7)
C126_2 C 0.3005(7) 0.6039(9) 0.7790(7)
C127_2 C 0.2887(5) 0.6022(6) 0.7039(5)
C128_2 C 0.3227(5) 0.6320(7) 0.6844(6)
C129_2 C 0.3101(6) 0.6571(7) 0.6471(6)
H140_2 H 0.3328 0.6771 0.6341
C130_2 C 0.2635(7) 0.6525(6) 0.6292(5)
H141_2 H 0.2551 0.6693 0.6043
C131_2 C 0.2296(5) 0.6227(6) 0.6487(6)
H142_2 H 0.1984 0.6196 0.6368
C132_2 C 0.2422(5) 0.5975(6) 0.6861(6)
C133_2 C 0.2028(12) 0.5660(10) 0.7054(11)
H143_2 H 0.1745 0.5853 0.7121
H144_2 H 0.2149 0.5533 0.7327
C134_2 C 0.3751(9) 0.6352(12) 0.7015(9)
H145_2 H 0.3872 0.6031 0.7017
H146_2 H 0.3721 0.6443 0.7320
C135_2 C 0.4176(16) 0.665(2) 0.6834(19)
H147_2 H 0.4466 0.6596 0.7004
H148_2 H 0.4091 0.6979 0.6849
H149_2 H 0.4237 0.6566 0.6535
C136_2 C 0.185(2) 0.523(2) 0.675(2)
H150_2 H 0.1606 0.5051 0.6906
H151_2 H 0.2125 0.5031 0.6686
H152_2 H 0.1713 0.5350 0.6486
C137_2 C 0.4266(8) 0.6934(8) 0.8320(7)
C138_2 C 0.3974(9) 0.7362(7) 0.8294(7)
C139_2 C 0.4041(8) 0.8228(5) 0.8242(6)
C140_2 C 0.3805(9) 0.8390(5) 0.8615(6)
C141_2 C 0.3563(10) 0.8820(5) 0.8609(7)
H153_2 H 0.3405 0.8928 0.8859
C142_2 C 0.3557(11) 0.9088(6) 0.8228(7)
H154_2 H 0.3395 0.9375 0.8224
C143_2 C 0.3793(13) 0.8926(6) 0.7855(6)
H155_2 H 0.3788 0.9105 0.7600
C144_2 C 0.4035(11) 0.8496(5) 0.7861(6)
C145_2 C 0.3674(13) 0.8120(10) 0.9058(9)
H156_2 H 0.3788 0.8301 0.9307
H157_2 H 0.3834 0.7816 0.9063
C146_2 C 0.3980(17) 0.8186(12) 0.7415(9)
H158_2 H 0.3732 0.7947 0.7463
H159_2 H 0.3862 0.8390 0.7184
C147_2 C 0.3094(12) 0.805(2) 0.908(2)
H160_2 H 0.3013 0.7867 0.9336
H161_2 H 0.2980 0.7897 0.8825
H162_2 H 0.2939 0.8355 0.9107
C148_2 C 0.446(2) 0.794(2) 0.7255(17)
H163_2 H 0.4385 0.7752 0.7003
H164_2 H 0.4583 0.7745 0.7485
H165_2 H 0.4695 0.8176 0.7180
C149_2 C 0.4673(14) 0.7867(13) 0.9937(10)
H166_2 H 0.4339 0.7784 0.9878
C150_3 C 0.5580(13) 0.8124(12) 0.9666(10)
H169_3 H 0.5797 0.8224 0.9436
H170_3 H 0.5704 0.7841 0.9796
H171_3 H 0.5560 0.8366 0.9884
N12_2 N 0.2223(7) 0.6936(7) 0.9449(6)
N13 N 0.3007(6) 0.5807(6) 0.7435(6)
N14_2 N 0.4306(8) 0.7742(6) 0.8260(6)
O32_2 O 0.3076(6) 0.6804(10) 0.9789(6)
O33_2 O 0.3422(6) 0.6734(10) 0.9136(6)
O34_2 O 0.2546(6) 0.6925(9) 0.8755(6)
O35_2 O 0.2980(5) 0.6493(6) 0.7817(5)
O36_2 O 0.3161(6) 0.5970(7) 0.8547(5)
O37 O 0.3159(6) 0.5309(7) 0.8154(5)
O38_2 O 0.3530(6) 0.7386(6) 0.8253(6)
O39_2 O 0.4028(6) 0.6551(5) 0.8338(5)
O40_2 O 0.4754(5) 0.6967(5) 0.8333(5)
O41_2 O 0.4997(7) 0.7582(6) 0.9142(6)
S3_2 S 0.4972(3) 0.8014(3) 0.9439(2)
Cu9 Cu 0.31586(11) 0.51372(10) 0.75320(8)
H250_2 H 0.0415117 0.740474 0.909695
H251_2 H 0.0944892 0.800453 0.937339
H252_2 H 0.0620813 0.655062 0.906794
Mn3_4 Mn 0.33231(17) 0.35462(17) 0.66284(13)
Mn4_3 Mn 0.17562(17) 0.32745(17) 0.34462(13)
Cu7_4 Cu 0.25567(10) 0.31463(13) 0.50370(9)
C77_4 C 0.3169(13) 0.4520(10) 0.6905(8)
C78_4 C 0.3084(12) 0.4222(7) 0.7281(6)
C79_4 C 0.2553(6) 0.4196(6) 0.8258(5)
C80_4 C 0.3015(7) 0.4231(6) 0.8071(5)
C81_4 C 0.3420(6) 0.4046(8) 0.8287(6)
C82_4 C 0.3362(8) 0.3827(9) 0.8690(6)
H91_4 H 0.3633 0.3704 0.8835
C83_4 C 0.2900(9) 0.3793(9) 0.8878(5)
H92_4 H 0.2861 0.3646 0.9147
C84_4 C 0.2495(7) 0.3977(8) 0.8661(6)
H93_4 H 0.2186 0.3954 0.8787
C85_4 C 0.3964(9) 0.4090(11) 0.8101(10)
H94_4 H 0.3963 0.4232 0.7813
H95_4 H 0.4164 0.4281 0.8294
C86_4 C 0.2092(10) 0.4399(10) 0.8012(8)
H96_4 H 0.2128 0.4360 0.7699
H97_4 H 0.1798 0.4235 0.8105
C87_4 C 0.205(2) 0.4933(12) 0.8130(13)
H98_3 H 0.1777 0.5068 0.7981
H99_3 H 0.2347 0.5091 0.8040
H100_4 H 0.2012 0.4967 0.8440
C88_4 C 0.4168(18) 0.3575(14) 0.808(2)
H101_4 H 0.4475 0.3574 0.7925
H102_4 H 0.3938 0.3379 0.7925
H103_4 H 0.4215 0.3456 0.8369
C89_4 C 0.4378(11) 0.3296(8) 0.6704(7)
C90_4 C 0.4088(10) 0.2876(8) 0.6760(7)
C91_4 C 0.4503(10) 0.1967(10) 0.7528(9)
H104_4 H 0.4555 0.1692 0.7709
H105_4 H 0.4818 0.2055 0.7405
C92_4 C 0.4111(6) 0.2066(5) 0.6743(6)
C93_4 C 0.3828(7) 0.1881(7) 0.6406(5)
C94_4 C 0.3585(7) 0.1456(7) 0.6465(7)
H106_4 H 0.3396 0.1332 0.6239
C95_4 C 0.3623(7) 0.1217(5) 0.6860(8)
H107_4 H 0.3460 0.0933 0.6899
C96_4 C 0.3905(8) 0.1402(5) 0.7197(6)
H108_4 H 0.3931 0.1242 0.7461
C97_4 C 0.4149(6) 0.1827(6) 0.7139(6)
C98_4 C 0.432(2) 0.2379(14) 0.7828(14)
H109_4 H 0.4566 0.2444 0.8046
H110_4 H 0.4022 0.2290 0.7968
H111_4 H 0.4269 0.2655 0.7653
C99_4 C 0.3782(14) 0.2176(10) 0.5974(8)
H112_4 H 0.3627 0.2473 0.6048
H113_4 H 0.4111 0.2249 0.5874
C100_4 C 0.3500(13) 0.1964(17) 0.5583(11)
H114_4 H 0.3496 0.2186 0.5345
H115_4 H 0.3170 0.1895 0.5670
H116_4 H 0.3658 0.1680 0.5489
C101_4 C 0.3163(8) 0.3339(9) 0.5717(8)
C102_4 C 0.2673(8) 0.3266(9) 0.5912(8)
C103_4 C 0.1816(5) 0.3084(6) 0.5738(7)
C104_4 C 0.1512(6) 0.3473(5) 0.5781(9)
C105_4 C 0.1012(6) 0.3412(6) 0.5842(9)
H117_4 H 0.0808 0.3673 0.5871
C106_4 C 0.0815(5) 0.2961(7) 0.5859(9)
H118_4 H 0.0480 0.2921 0.5900
C107_4 C 0.1119(7) 0.2572(6) 0.5816(9)
H119_4 H 0.0988 0.2271 0.5827
C108_4 C 0.1619(7) 0.2633(5) 0.5755(8)
C109_4 C 0.1972(13) 0.2216(12) 0.5611(12)
H120_4 H 0.1783 0.1953 0.5500
H121_4 H 0.2194 0.2321 0.5383
C110_4 C 0.1735(8) 0.3977(7) 0.5758(15)
H122_4 H 0.1487 0.4193 0.5653
H123_4 H 0.2001 0.3977 0.5548
C111_4 C 0.2268(11) 0.2065(15) 0.6030(13)
H124_4 H 0.2480 0.1807 0.5959
H125_4 H 0.2044 0.1971 0.6256
H126_4 H 0.2461 0.2326 0.6132
C112_4 C 0.193(2) 0.4159(17) 0.6211(19)
H127_4 H 0.2056 0.4473 0.6177
H128_4 H 0.2190 0.3956 0.6311
H129_4 H 0.1671 0.4159 0.6421
C113_3 C 0.1922(9) 0.3158(14) 0.4355(9)
C114_3 C 0.2423(9) 0.3097(14) 0.4153(9)
C115_3 C 0.3270(8) 0.2968(10) 0.4311(8)
C116_3 C 0.3614(11) 0.3327(9) 0.4239(10)
C117_3 C 0.4100(12) 0.3192(14) 0.4154(14)
C118_3 C 0.4213(14) 0.2695(15) 0.4186(13)
C119_3 C 0.3926(12) 0.2351(14) 0.4308(14)
C120_3 C 0.3445(9) 0.2485(9) 0.4345(11)
C121_3 C 0.3415(15) 0.3820(11) 0.4287(17)
H130_3 H 0.3084 0.3789 0.4397
H131_3 H 0.3388 0.3948 0.3993
C122_3 C 0.3044(11) 0.2128(11) 0.4442(15)
H132_3 H 0.2744 0.2254 0.4319
H133_3 H 0.3001 0.2126 0.4758
C123_3 C 0.308(2) 0.1593(14) 0.429(3)
H134_3 H 0.2776 0.1436 0.4368
H135_3 H 0.3344 0.1443 0.4440
H136_3 H 0.3124 0.1578 0.3983
C124_3 C 0.367(2) 0.4214(16) 0.458(2)
H137_3 H 0.3490 0.4501 0.4558
H138_3 H 0.4000 0.4267 0.4469
H139_3 H 0.3687 0.4112 0.4875
C125_3 C 0.1878(7) 0.4233(9) 0.3189(7)
C126_3 C 0.1995(7) 0.3961(9) 0.2790(7)
C127_3 C 0.2113(5) 0.3978(6) 0.2039(5)
C128_3 C 0.1773(5) 0.3680(7) 0.1844(6)
C129_3 C 0.1899(6) 0.3429(7) 0.1471(6)
H140_3 H 0.1672 0.3229 0.1341
C130_3 C 0.2365(7) 0.3475(6) 0.1292(5)
H141_3 H 0.2449 0.3307 0.1043
C131_3 C 0.2704(5) 0.3773(6) 0.1487(6)
H142_3 H 0.3016 0.3804 0.1368
C132_3 C 0.2578(5) 0.4025(6) 0.1861(6)
C133_3 C 0.2972(12) 0.4340(10) 0.2054(11)
H143_3 H 0.3255 0.4147 0.2121
H144_3 H 0.2851 0.4467 0.2327
C134_3 C 0.1249(9) 0.3648(12) 0.2015(9)
H145_3 H 0.1128 0.3969 0.2017
H146_3 H 0.1279 0.3557 0.2320
C135_3 C 0.0824(16) 0.335(2) 0.1834(19)
H147_3 H 0.0534 0.3404 0.2004
H148_3 H 0.0909 0.3021 0.1849
H149_3 H 0.0763 0.3434 0.1535
C136_3 C 0.315(2) 0.477(2) 0.175(2)
H150_3 H 0.3394 0.4949 0.1906
H151_3 H 0.2875 0.4969 0.1686
H152_3 H 0.3287 0.4650 0.1486
C137_3 C 0.0734(8) 0.3066(8) 0.3320(7)
C138_3 C 0.1026(9) 0.2638(7) 0.3294(7)
C139_3 C 0.0959(8) 0.1772(5) 0.3242(6)
C140_3 C 0.1195(9) 0.1610(5) 0.3615(6)
C141_3 C 0.1437(10) 0.1180(5) 0.3609(7)
H153_3 H 0.1595 0.1072 0.3859
C142_3 C 0.1443(11) 0.0912(6) 0.3228(7)
H154_3 H 0.1605 0.0625 0.3224
C143_3 C 0.1207(13) 0.1074(6) 0.2855(6)
H155_3 H 0.1212 0.0895 0.2600
C144_3 C 0.0965(11) 0.1504(5) 0.2861(6)
C145_3 C 0.1326(13) 0.1880(10) 0.4058(9)
H156_3 H 0.1212 0.1699 0.4307
H157_3 H 0.1166 0.2184 0.4063
C146_3 C 0.1020(17) 0.1814(12) 0.2415(9)
H158_3 H 0.1268 0.2053 0.2463
H159_3 H 0.1138 0.1610 0.2184
C147_3 C 0.1906(12) 0.195(2) 0.408(2)
H160_3 H 0.1987 0.2133 0.4336
H161_3 H 0.2020 0.2103 0.3825
H162_3 H 0.2061 0.1645 0.4107
C148_3 C 0.054(2) 0.206(2) 0.2255(17)
H163_3 H 0.0615 0.2248 0.2003
H164_3 H 0.0417 0.2255 0.2485
H165_3 H 0.0305 0.1824 0.2180
C149_3 C 0.0327(14) 0.2133(13) 0.4937(10)
H166_3 H 0.0661 0.2216 0.4878
H167_4 H 0.0318 0.1868 0.5131
H168_4 H 0.0162 0.2395 0.5071
C151_3 C 0.4378(11) 0.5356(12) 0.8372(8)
H172_3 H 0.4094 0.5172 0.8443
H173_3 H 0.4314 0.5681 0.8433
H174_3 H 0.4651 0.5251 0.8544
C152_3 C 0.4745(9) 0.5865(8) 0.7752(9)
H175_3 H 0.4755 0.5930 0.7444
H176_2 H 0.5070 0.5885 0.7871
H177_3 H 0.4538 0.6091 0.7895
N9_4 N 0.3093(9) 0.4469(7) 0.7642(6)
N11_4 N 0.2310(8) 0.3174(7) 0.5613(6)
N12_3 N 0.2777(7) 0.3064(7) 0.4449(6)
N14_3 N 0.0694(8) 0.2258(6) 0.3260(6)
O23_4 O 0.3160(6) 0.4943(6) 0.6916(4)
O24_4 O 0.3222(10) 0.4303(7) 0.6529(6)
O25_4 O 0.3080(10) 0.3767(6) 0.7243(6)
O27_4 O 0.4149(9) 0.3683(7) 0.6713(6)
O28_4 O 0.3615(8) 0.2864(7) 0.6810(6)
O29_4 O 0.2627(7) 0.3310(7) 0.6324(5)
O30_4 O 0.3558(7) 0.3485(7) 0.5955(5)
O31_4 O 0.3188(6) 0.3251(7) 0.5302(5)
O32_3 O 0.1924(6) 0.3196(10) 0.4789(6)
O33_3 O 0.1578(6) 0.3266(10) 0.4136(6)
O34_3 O 0.2454(6) 0.3075(9) 0.3755(6)
O35_3 O 0.2020(5) 0.3507(6) 0.2817(5)
O36_3 O 0.1839(6) 0.4030(7) 0.3547(5)
O38_3 O 0.1470(6) 0.2614(6) 0.3253(6)
O39_3 O 0.0972(6) 0.3449(5) 0.3338(5)
O40_3 O 0.0246(5) 0.3033(5) 0.3333(5)
O41_3 O 0.0003(7) 0.2418(6) 0.4142(6)
O42_3 O 0.4054(7) 0.5258(7) 0.7535(5)
S3_3 S 0.0028(3) 0.1986(3) 0.4439(2)
S4_3 S 0.4510(4) 0.5292(4) 0.7840(3)
H250_3 H 0.458488 0.259526 0.409695
H251_3 H 0.405511 0.199547 0.437339
H252_3 H 0.437919 0.344938 0.406794
C150_4 C 0.9420(13) 0.1876(12) 0.4666(10)
H169_4 H 0.9203 0.1776 0.4436
H170_4 H 0.9296 0.2159 0.4796
H171_4 H 0.9440 0.1634 0.4884
Mn4_4 Mn 0.82438(17) 0.82745(17) 0.15538(13)
Cu8_2 Cu 0.99767(11) 0.73849(9) 0.16389(10)
C113_4 C 0.8078(9) 0.8158(14) 0.0645(9)
C114_4 C 0.7577(9) 0.8097(14) 0.0847(9)
C115_4 C 0.6730(8) 0.7968(10) 0.0689(8)
C116_4 C 0.6386(11) 0.8327(9) 0.0761(10)
C117_4 C 0.5900(12) 0.8192(14) 0.0846(14)
C118_4 C 0.5787(14) 0.7695(15) 0.0814(13)
C119_4 C 0.6074(12) 0.7351(14) 0.0692(14)
C120_4 C 0.6555(9) 0.7485(9) 0.0655(11)
C121_4 C 0.6585(15) 0.8820(11) 0.0713(17)
H130_4 H 0.6916 0.8789 0.0603
H131_4 H 0.6612 0.8948 0.1007
C122_4 C 0.6956(11) 0.7128(11) 0.0558(15)
H132_4 H 0.7256 0.7254 0.0681
H133_4 H 0.6999 0.7126 0.0242
C123_4 C 0.692(2) 0.6593(14) 0.071(3)
H134_4 H 0.7224 0.6436 0.0632
H135_4 H 0.6656 0.6443 0.0560
H136_4 H 0.6876 0.6578 0.1017
C124_4 C 0.633(2) 0.9214(16) 0.042(2)
H137_4 H 0.6510 0.9501 0.0442
H138_4 H 0.6000 0.9267 0.0531
H139_4 H 0.6313 0.9112 0.0125
C125_4 C 0.8122(7) 0.9233(9) 0.1811(7)
C126_4 C 0.8005(7) 0.8961(9) 0.2210(7)
C127_4 C 0.7887(5) 0.8978(6) 0.2961(5)
C128_4 C 0.8227(5) 0.8680(7) 0.3156(6)
C129_4 C 0.8101(6) 0.8429(7) 0.3529(6)
H140_4 H 0.8328 0.8229 0.3659
C130_4 C 0.7635(7) 0.8475(6) 0.3708(5)
H141_4 H 0.7551 0.8307 0.3957
C131_4 C 0.7296(5) 0.8773(6) 0.3513(6)
H142_4 H 0.6984 0.8804 0.3632
C132_4 C 0.7422(5) 0.9025(6) 0.3139(6)
C133_4 C 0.7028(12) 0.9340(10) 0.2946(11)
H143_4 H 0.6745 0.9147 0.2879
H144_4 H 0.7149 0.9467 0.2673
C134_4 C 0.8751(9) 0.8648(12) 0.2985(9)
H145_4 H 0.8872 0.8969 0.2983
H146_4 H 0.8721 0.8557 0.2680
C135_4 C 0.9176(16) 0.835(2) 0.3166(19)
H147_4 H 0.9466 0.8404 0.2996
H148_4 H 0.9091 0.8021 0.3151
H149_4 H 0.9237 0.8434 0.3465
C136_4 C 0.685(2) 0.977(2) 0.325(2)
H150_4 H 0.6606 0.9949 0.3094
H151_4 H 0.7125 0.9969 0.3314
H152_4 H 0.6713 0.9650 0.3514
C137_4 C 0.9266(8) 0.8066(8) 0.1680(7)
C138_4 C 0.8974(9) 0.7638(7) 0.1706(7)
C139_4 C 0.9041(8) 0.6772(5) 0.1758(6)
C140_4 C 0.8805(9) 0.6610(5) 0.1385(6)
C141_4 C 0.8563(10) 0.6180(5) 0.1391(7)
H153_4 H 0.8405 0.6072 0.1141
C142_4 C 0.8557(11) 0.5912(6) 0.1772(7)
H154_4 H 0.8395 0.5625 0.1776
C143_4 C 0.8793(13) 0.6074(6) 0.2145(6)
H155_4 H 0.8788 0.5895 0.2400
C144_4 C 0.9035(11) 0.6504(5) 0.2139(6)
C145_4 C 0.8674(13) 0.6880(10) 0.0942(9)
H156_4 H 0.8788 0.6699 0.0693
H157_4 H 0.8834 0.7184 0.0937
C146_4 C 0.8980(17) 0.6814(12) 0.2585(9)
H158_4 H 0.8732 0.7053 0.2537
H159_4 H 0.8862 0.6610 0.2816
C147_4 C 0.8094(12) 0.695(2) 0.092(2)
H160_4 H 0.8013 0.7133 0.0664
H161_4 H 0.7980 0.7103 0.1175
H162_4 H 0.7939 0.6645 0.0893
C148_4 C 0.946(2) 0.706(2) 0.2745(17)
H163_4 H 0.9385 0.7248 0.2997
H164_4 H 0.9583 0.7255 0.2515
H165_4 H 0.9695 0.6824 0.2820
C149_4 C 0.9673(14) 0.7133(13) 0.0063(10)
H166_4 H 0.9339 0.7216 0.0122
N12_4 N 0.7223(7) 0.8064(7) 0.0551(6)
N13_2 N 0.8007(6) 0.9193(6) 0.2565(6)
N14_4 N 0.9306(8) 0.7258(6) 0.1740(6)
O32_4 O 0.8076(6) 0.8196(10) 0.0211(6)
O33_4 O 0.8422(6) 0.8266(10) 0.0864(6)
O34_4 O 0.7546(6) 0.8075(9) 0.1245(6)
O35_4 O 0.7980(5) 0.8507(6) 0.2183(5)
O36_4 O 0.8161(6) 0.9030(7) 0.1453(5)
O37_2 O 0.8159(6) 0.9691(7) 0.1846(5)
O38_4 O 0.8530(6) 0.7614(6) 0.1747(6)
O39_4 O 0.9028(6) 0.8449(5) 0.1662(5)
O40_4 O 0.9754(5) 0.8033(5) 0.1667(5)
O41_4 O 0.9997(7) 0.7418(6) 0.0858(6)
S3_4 S 0.9972(3) 0.6986(3) 0.0561(2)
Cu9_2 Cu 0.81586(11) 0.98628(10) 0.24680(8)
H250_4 H 0.541512 0.759526 0.0903052
H251_4 H 0.594489 0.699547 0.0626612
H252_4 H 0.562081 0.844938 0.0932064
H98_4 H 0.6777 0.9932 0.2019
H99_4 H 0.7347 0.9909 0.1960
C151_4 C 0.9378(11) 0.9644(12) 0.1628(8)
H172_4 H 0.9094 0.9828 0.1557
H173_4 H 0.9314 0.9319 0.1567
H174_4 H 0.9651 0.9749 0.1456
C152_4 C 0.9745(9) 0.9135(8) 0.2248(9)
H175_4 H 0.9755 0.9070 0.2556
H177_4 H 0.9538 0.8909 0.2105
O42_4 O 0.9054(7) 0.9742(7) 0.2465(5)
S4_4 S 0.9510(4) 0.9708(4) 0.2160(3)
H176_3 H 0.9930 0.4115 0.2871
H176_4 H 0.0070 0.9115 0.2129
C153 C 0.3960(9) 0.1446(9) 0.2843(8)
H178 H 0.4105 0.1418 0.3128
H179 H 0.3912 0.1139 0.2720
H180 H 0.3650 0.1603 0.2867
C154 C 0.4729(7) 0.1420(7) 0.2426(8)
H181 H 0.4924 0.1359 0.2681
H182 H 0.4924 0.1580 0.2211
H183 H 0.4614 0.1127 0.2308
C155 C 0.4053(9) 0.1751(8) 0.2120(9)
H184 H 0.4262 0.1914 0.1918
H185 H 0.3748 0.1916 0.2146
H186 H 0.3992 0.1438 0.2014
C156 C 0.4459(8) 0.2197(7) 0.2707(8)
H187 H 0.4675 0.2309 0.2473
C157 C 0.4779(13) 0.2182(10) 0.3102(11)
H188 H 0.5028 0.1948 0.3062
H189 H 0.4586 0.2106 0.3354
H190 H 0.4930 0.2484 0.3143
C158 C 0.4045(5) 0.2563(5) 0.2720(5)
C159 C 0.3972(6) 0.2846(5) 0.2354(4)
H191 H 0.4175 0.2814 0.2112
C160 C 0.3597(6) 0.3176(5) 0.2352(5)
H192 H 0.3549 0.3366 0.2108
C161 C 0.3294(5) 0.3224(5) 0.2715(6)
H193 H 0.3043 0.3445 0.2713
C162 C 0.3367(6) 0.2941(6) 0.3080(5)
H194 H 0.3164 0.2973 0.3323
C163 C 0.3742(6) 0.2610(5) 0.3083(4)
H195 H 0.3790 0.2421 0.3327
N17 N 0.4293(6) 0.1727(5) 0.2551(6)
C153_2 C 0.1040(9) 0.8554(9) 0.7843(8)
H178_2 H 0.0895 0.8582 0.8128
H179_2 H 0.1088 0.8861 0.7720
H180_2 H 0.1350 0.8397 0.7867
C154_2 C 0.0271(7) 0.8580(7) 0.7426(8)
H181_2 H 0.0076 0.8641 0.7681
H182_2 H 0.0076 0.8420 0.7211
H183_2 H 0.0386 0.8873 0.7308
C155_2 C 0.0947(9) 0.8249(8) 0.7120(9)
H184_2 H 0.0738 0.8086 0.6918
H185_2 H 0.1252 0.8084 0.7146
H186_2 H 0.1008 0.8562 0.7014
C156_2 C 0.0541(8) 0.7803(7) 0.7707(8)
H187_2 H 0.0325 0.7691 0.7473
C157_2 C 0.0221(13) 0.7818(10) 0.8102(11)
H189_2 H 0.0414 0.7894 0.8354
H190_2 H 0.0070 0.7516 0.8143
C158_2 C 0.0955(5) 0.7437(5) 0.7720(5)
C159_2 C 0.1028(6) 0.7154(5) 0.7354(4)
H191_2 H 0.0825 0.7186 0.7112
C160_2 C 0.1403(6) 0.6824(5) 0.7352(5)
H192_2 H 0.1451 0.6634 0.7108
C161_2 C 0.1706(5) 0.6776(5) 0.7715(6)
H193_2 H 0.1957 0.6555 0.7713
C162_2 C 0.1633(6) 0.7059(6) 0.8080(5)
H194_2 H 0.1836 0.7027 0.8323
C163_2 C 0.1258(6) 0.7390(5) 0.8083(4)
H195_2 H 0.1210 0.7579 0.8327
N17_2 N 0.0707(6) 0.8273(5) 0.7551(6)
H188_2 H 0.9972 0.8052 0.8062
H188_3 H 0.0028 0.3052 0.6938
C153_3 C 0.8960(9) 0.3554(9) 0.7157(8)
H178_3 H 0.9105 0.3582 0.6872
H179_3 H 0.8912 0.3861 0.7280
H180_3 H 0.8650 0.3397 0.7133
C154_3 C 0.9729(7) 0.3580(7) 0.7574(8)
H181_3 H 0.9924 0.3641 0.7319
H182_3 H 0.9924 0.3420 0.7789
H183_3 H 0.9614 0.3873 0.7692
C155_3 C 0.9053(9) 0.3249(8) 0.7880(9)
H184_3 H 0.9262 0.3086 0.8082
H185_3 H 0.8748 0.3084 0.7854
H186_3 H 0.8992 0.3562 0.7986
C156_3 C 0.9459(8) 0.2803(7) 0.7293(8)
H187_3 H 0.9675 0.2691 0.7527
C157_3 C 0.9779(13) 0.2818(10) 0.6898(11)
H189_3 H 0.9586 0.2894 0.6646
H190_3 H 0.9930 0.2516 0.6857
C158_3 C 0.9045(5) 0.2437(5) 0.7280(5)
C159_3 C 0.8972(6) 0.2154(5) 0.7646(4)
H191_3 H 0.9175 0.2186 0.7888
C160_3 C 0.8597(6) 0.1824(5) 0.7648(5)
H192_3 H 0.8549 0.1634 0.7892
C161_3 C 0.8294(5) 0.1776(5) 0.7285(6)
H193_3 H 0.8043 0.1555 0.7287
C162_3 C 0.8367(6) 0.2059(6) 0.6920(5)
H194_3 H 0.8164 0.2027 0.6677
C163_3 C 0.8742(6) 0.2390(5) 0.6917(4)
H195_3 H 0.8790 0.2579 0.6673
N17_3 N 0.9293(6) 0.3273(5) 0.7449(6)
C153_4 C 0.6040(9) 0.6446(9) 0.2157(8)
H178_4 H 0.5895 0.6418 0.1872
H179_4 H 0.6088 0.6139 0.2280
H180_4 H 0.6350 0.6603 0.2133
C154_4 C 0.5271(7) 0.6420(7) 0.2574(8)
H181_4 H 0.5076 0.6359 0.2319
H182_4 H 0.5076 0.6580 0.2789
H183_4 H 0.5386 0.6127 0.2692
C155_4 C 0.5947(9) 0.6751(8) 0.2880(9)
H184_4 H 0.5738 0.6914 0.3082
H185_4 H 0.6252 0.6916 0.2854
H186_4 H 0.6008 0.6438 0.2986
C156_4 C 0.5541(8) 0.7197(7) 0.2293(8)
H187_4 H 0.5325 0.7309 0.2527
C157_4 C 0.5221(13) 0.7182(10) 0.1898(11)
H188_4 H 0.4972 0.6948 0.1938
H189_4 H 0.5414 0.7106 0.1646
H190_4 H 0.5070 0.7484 0.1857
C158_4 C 0.5955(5) 0.7563(5) 0.2280(5)
C159_4 C 0.6028(6) 0.7846(5) 0.2646(4)
H191_4 H 0.5825 0.7814 0.2888
C160_4 C 0.6403(6) 0.8176(5) 0.2648(5)
H192_4 H 0.6451 0.8366 0.2892
C161_4 C 0.6706(5) 0.8224(5) 0.2285(6)
H193_4 H 0.6957 0.8445 0.2287
C162_4 C 0.6633(6) 0.7941(6) 0.1920(5)
H194_4 H 0.6836 0.7973 0.1677
C163_4 C 0.6258(6) 0.7610(5) 0.1917(4)
H195_4 H 0.6210 0.7421 0.1673
N17_4 N 0.5707(6) 0.6727(5) 0.2449(6)
C164 C 0.2557 0.9313 0.3594
H196 H 0.2287 0.9526 0.3625
H197 H 0.2769 0.9420 0.3365
H198 H 0.2736 0.9299 0.3865
C165 C 0.2202 0.8585 0.3889
H199 H 0.2082 0.8279 0.3809
H200 H 0.1944 0.8760 0.4027
H201 H 0.2471 0.8552 0.4089
C166 C 0.1896 0.8980 0.3204
H202 H 0.1732 0.8700 0.3108
H203 H 0.1996 0.9162 0.2954
H204 H 0.1678 0.9164 0.3382
C167 C 0.2869 0.8634 0.3470
H205 H 0.3102 0.8797 0.3661
C168 C 0.2894(9) 0.8085(5) 0.3517(8)
C169 C 0.3132(9) 0.7890(7) 0.3876(9)
H206 H 0.3286 0.8084 0.4078
C170 C 0.3140(7) 0.7404(7) 0.3931(11)
H207 H 0.3299 0.7274 0.4171
C171 C 0.2910(10) 0.7115(5) 0.3628(13)
H208 H 0.2915 0.6790 0.3665
C172 C 0.2672(13) 0.7310(5) 0.3269(11)
H209 H 0.2518 0.7116 0.3066
C173 C 0.2664(11) 0.7795(5) 0.3214(7)
H210 H 0.2505 0.7926 0.2974
C174 C 0.3009(16) 0.8677(9) 0.2953(9)
H211 H 0.3084 0.8998 0.2885
H212 H 0.2736 0.8575 0.2779
H213 H 0.3288 0.8483 0.2892
N18 N 0.2370 0.8840 0.3486
C164_2 C 0.2443 0.0687 0.8594
H196_2 H 0.2713 0.0474 0.8625
H197_2 H 0.2231 0.0580 0.8365
H198_2 H 0.2264 0.0701 0.8865
C165_2 C 0.2798 0.1415 0.8889
H199_2 H 0.2918 0.1721 0.8809
H200_2 H 0.3056 0.1240 0.9027
H201_2 H 0.2529 0.1448 0.9089
C166_2 C 0.3104 0.1020 0.8204
H202_2 H 0.3268 0.1300 0.8108
H203_2 H 0.3004 0.0838 0.7954
H204_2 H 0.3322 0.0836 0.8382
C167_2 C 0.2131 0.1366 0.8470
H205_2 H 0.1898 0.1203 0.8661
C168_2 C 0.2106(9) 0.1915(5) 0.8517(8)
C169_2 C 0.1868(9) 0.2110(7) 0.8876(9)
H206_2 H 0.1714 0.1916 0.9078
C170_2 C 0.1860(7) 0.2596(7) 0.8931(11)
H207_2 H 0.1701 0.2726 0.9171
C171_2 C 0.2090(10) 0.2885(5) 0.8628(13)
H208_2 H 0.2085 0.3210 0.8665
C172_2 C 0.2328(13) 0.2690(5) 0.8269(11)
H209_2 H 0.2482 0.2884 0.8066
C173_2 C 0.2336(11) 0.2205(5) 0.8214(7)
H210_2 H 0.2495 0.2074 0.7974
C174_2 C 0.1991(16) 0.1323(9) 0.7953(9)
H211_2 H 0.1916 0.1002 0.7885
H212_2 H 0.2264 0.1425 0.7779
H213_2 H 0.1712 0.1517 0.7892
N18_2 N 0.2630 0.1160 0.8486
C164_3 C 0.7557 0.5687 0.6406
H196_3 H 0.7287 0.5474 0.6375
H197_3 H 0.7769 0.5580 0.6635
H198_3 H 0.7736 0.5701 0.6135
C165_3 C 0.7202 0.6415 0.6111
H199_3 H 0.7082 0.6721 0.6191
H200_3 H 0.6944 0.6240 0.5973
H201_3 H 0.7471 0.6448 0.5911
C166_3 C 0.6896 0.6020 0.6796
H202_3 H 0.6732 0.6300 0.6892
H203_3 H 0.6996 0.5838 0.7046
H204_3 H 0.6678 0.5836 0.6618
C167_3 C 0.7869 0.6366 0.6530
H205_3 H 0.8102 0.6203 0.6339
C168_3 C 0.7894(9) 0.6915(5) 0.6483(8)
C169_3 C 0.8132(9) 0.7110(7) 0.6124(9)
H206_3 H 0.8286 0.6916 0.5922
C170_3 C 0.8140(7) 0.7596(7) 0.6069(11)
H207_3 H 0.8299 0.7726 0.5829
C171_3 C 0.7910(10) 0.7885(5) 0.6372(13)
H208_3 H 0.7915 0.8210 0.6335
C172_3 C 0.7672(13) 0.7690(5) 0.6731(11)
H209_3 H 0.7518 0.7884 0.6934
C173_3 C 0.7664(11) 0.7205(5) 0.6786(7)
H210_3 H 0.7505 0.7074 0.7026
C174_3 C 0.8009(16) 0.6323(9) 0.7047(9)
H211_3 H 0.8084 0.6002 0.7115
H212_3 H 0.7736 0.6425 0.7221
H213_3 H 0.8288 0.6517 0.7108
N18_3 N 0.7370 0.6160 0.6514
C164_4 C 0.7443 0.4313 0.1406
H196_4 H 0.7713 0.4526 0.1375
H197_4 H 0.7231 0.4420 0.1635
H198_4 H 0.7264 0.4299 0.1135
C165_4 C 0.7798 0.3585 0.1111
H199_4 H 0.7918 0.3279 0.1191
H200_4 H 0.8056 0.3760 0.0973
H201_4 H 0.7529 0.3552 0.0911
C166_4 C 0.8104 0.3980 0.1796
H202_4 H 0.8268 0.3700 0.1892
H203_4 H 0.8004 0.4162 0.2046
H204_4 H 0.8322 0.4164 0.1618
C167_4 C 0.7131 0.3634 0.1530
H205_4 H 0.6898 0.3797 0.1339
C168_4 C 0.7106(9) 0.3085(5) 0.1483(8)
C169_4 C 0.6868(9) 0.2890(7) 0.1124(9)
H206_4 H 0.6714 0.3084 0.0922
C170_4 C 0.6860(7) 0.2404(7) 0.1069(11)
H207_4 H 0.6701 0.2274 0.0829
C171_4 C 0.7090(10) 0.2115(5) 0.1372(13)
H208_4 H 0.7085 0.1790 0.1335
C172_4 C 0.7328(13) 0.2310(5) 0.1731(11)
H209_4 H 0.7482 0.2116 0.1934
C173_4 C 0.7336(11) 0.2795(5) 0.1786(7)
H210_4 H 0.7495 0.2926 0.2026
C174_4 C 0.6991(16) 0.3677(9) 0.2047(9)
H211_4 H 0.6916 0.3998 0.2115
H212_4 H 0.7264 0.3575 0.2221
H213_4 H 0.6712 0.3483 0.2108
N18_4 N 0.7630 0.3840 0.1514
H217 H 0.4781 0.0084 0.9296
H218 H 0.5294 0.0112 0.9523
C179 C 0.5018 0.0062 0.8325
C181 C 0.4445 0.0019 0.7727
C182 C 0.4323 0.0488 0.7792
H226 H 0.4090 0.0631 0.7614
C183 C 0.4547 0.0744 0.8123
H227 H 0.4465 0.1058 0.8166
C184 C 0.4894 0.0531 0.8390
H228 H 0.5044 0.0703 0.8612
C185 C 0.5829(19) 0.0135(19) 0.8680(16)
H230 H 0.5726 0.0348 0.8906
H231 H 0.5905 0.0311 0.8420
N19 N 0.5261 0.9550 0.9064
C175 C 0.5669(10) 0.9270(12) 0.9235(13)
H214 H 0.5786 0.9061 0.9012
H215 H 0.5559 0.9090 0.9482
H216 H 0.5929 0.9476 0.9325
C176 C 0.5041 0.9904 0.9424
H219 H 0.4917 0.9727 0.9667
C177 C 0.4804 0.9229 0.8917
H220 H 0.4550 0.9426 0.8801
H221 H 0.4681 0.9060 0.9166
H222 H 0.4908 0.9009 0.8697
C178 C 0.5410 0.9781 0.8581
H223 H 0.5538 0.9531 0.8391
C180 C 0.4793 0.9805 0.7994
H224 H 0.4876 0.9491 0.7951
H225 H 0.4294 0.9848 0.7505
H229 H 0.6114 0.9967 0.8775
H219_2 H 0.0083 0.0273 0.4667
C177_2 C 0.0196 0.0771 0.3917
H220_2 H 0.0450 0.0574 0.3801
H221_2 H 0.0319 0.0940 0.4166
H222_2 H 0.0092 0.0991 0.3697
C180_2 C 0.0207 0.0195 0.2994
H224_2 H 0.0124 0.0509 0.2951
H225_2 H 0.0706 0.0152 0.2505
H217_2 H 0.0219 0.9916 0.4296
C181_2 C 0.0555 0.9981 0.2727
C182_2 C 0.0677 0.9512 0.2792
H226_2 H 0.0910 0.9369 0.2614
C183_2 C 0.0453 0.9256 0.3123
H227_2 H 0.0535 0.8942 0.3166
C184_2 C 0.0106 0.9469 0.3390
N19_2 N 0.9739 0.0450 0.4064
C175_2 C 0.9331(10) 0.0730(12) 0.4235(13)
H214_2 H 0.9214 0.0939 0.4012
H215_2 H 0.9441 0.0910 0.4482
H216_2 H 0.9071 0.0524 0.4325
C176_2 C 0.9959 0.0096 0.4424
C178_2 C 0.9590 0.0219 0.3581
H223_2 H 0.9462 0.0469 0.3391
H229_2 H 0.8886 0.0033 0.3775
H218_2 H 0.9706 0.9888 0.4523
C179_2 C 0.9982 0.9938 0.3325
H228_2 H 0.9956 0.9297 0.3612
C185_2 C 0.9171(19) 0.9865(19) 0.3680(16)
H230_2 H 0.9274 0.9652 0.3906
H231_2 H 0.9095 0.9689 0.3420
N19_3 N 0.0261 0.5450 0.0936
C175_3 C 0.0669(10) 0.5730(12) 0.0765(13)
H214_3 H 0.0786 0.5939 0.0988
H215_3 H 0.0559 0.5910 0.0518
H216_3 H 0.0929 0.5524 0.0675
C176_3 C 0.0041 0.5096 0.0576
H218_3 H 0.0294 0.4888 0.0477
C178_3 C 0.0410 0.5219 0.1419
H223_3 H 0.0538 0.5469 0.1609
C179_3 C 0.0018 0.4938 0.1675
H228_3 H 0.0044 0.4297 0.1388
C185_3 C 0.0829(19) 0.4865(19) 0.1320(16)
H229_3 H 0.1114 0.5033 0.1225
H230_3 H 0.0726 0.4652 0.1094
H231_3 H 0.0905 0.4689 0.1580
H217_3 H 0.9781 0.4916 0.0704
H219_3 H 0.9917 0.5273 0.0333
C177_3 C 0.9804 0.5771 0.1083
H220_3 H 0.9550 0.5574 0.1199
H221_3 H 0.9681 0.5940 0.0834
H222_3 H 0.9908 0.5991 0.1303
C180_3 C 0.9793 0.5195 0.2006
H224_3 H 0.9876 0.5509 0.2049
C181_3 C 0.9445 0.4981 0.2273
H225_3 H 0.9294 0.5152 0.2495
C182_3 C 0.9323 0.4512 0.2208
H226_3 H 0.9090 0.4369 0.2386
C183_3 C 0.9547 0.4256 0.1877
H227_3 H 0.9465 0.3942 0.1834
C184_3 C 0.9894 0.4469 0.1610
N19_4 N 0.4739 0.4550 0.5936
C175_4 C 0.4331(10) 0.4270(12) 0.5765(13)
H214_4 H 0.4214 0.4061 0.5988
H215_4 H 0.4441 0.4090 0.5518
H216_4 H 0.4071 0.4476 0.5675
C176_4 C 0.4959 0.4904 0.5576
H217_4 H 0.5219 0.5084 0.5704
H218_4 H 0.4706 0.5112 0.5477
H219_4 H 0.5083 0.4727 0.5333
C177_4 C 0.5196 0.4229 0.6083
H220_4 H 0.5450 0.4426 0.6199
H221_4 H 0.5319 0.4060 0.5834
H222_4 H 0.5092 0.4009 0.6303
C178_4 C 0.4590 0.4781 0.6419
H223_4 H 0.4462 0.4531 0.6609
C179_4 C 0.4982 0.5062 0.6675
C180_4 C 0.5207 0.4805 0.7006
H224_4 H 0.5124 0.4491 0.7049
C181_4 C 0.5555 0.5019 0.7273
H225_4 H 0.5706 0.4848 0.7495
C182_4 C 0.5677 0.5488 0.7208
H226_4 H 0.5910 0.5631 0.7386
C183_4 C 0.5453 0.5744 0.6877
H227_4 H 0.5535 0.6058 0.6834
C184_4 C 0.5106 0.5531 0.6610
H228_4 H 0.4956 0.5703 0.6388
C185_4 C 0.4171(19) 0.5135(19) 0.6320(16)
H229_4 H 0.3886 0.4967 0.6225
H230_4 H 0.4274 0.5348 0.6094
H231_4 H 0.4095 0.5311 0.6580
C186 C 0.6688(11) 0.0605(11) 0.5363(13)
H232 H 0.6820 0.0645 0.5074
H233 H 0.6900 0.0754 0.5572
H234 H 0.6369 0.0745 0.5378
C192 C 0.7907(15) 0.0221(12) 0.4464(12)
H239 H 0.8043 0.0487 0.4336
C193 C 0.7698(12) 0.0248(10) 0.4878(11)
H240 H 0.7694 0.0533 0.5027
H242 H 0.6074 0.0126 0.5873
H243 H 0.6578 0.0103 0.6118
C196 C 0.7510(9) 0.0170(18) 0.5834(10)
H247 H 0.7323 0.0198 0.6098
H248 H 0.7586 0.0478 0.5724
H249 H 0.7809 0.0003 0.5893
N20 N 0.6651(10) 0.0102(13) 0.5462(8)
C187 C 0.7207(9) 0.9896(13) 0.5487(8)
H235 H 0.7176 0.9576 0.5601
C188 C 0.7494(10) 0.9850(12) 0.5069(7)
C189 C 0.7500(12) 0.9423(10) 0.4846(9)
H236 H 0.7364 0.9157 0.4973
C190 C 0.7709(15) 0.9396(12) 0.4432(10)
H237 H 0.7713 0.9111 0.4283
C191 C 0.7913(16) 0.9795(15) 0.4241(8)
H238 H 0.8053 0.9776 0.3964
C194 C 0.6394(9) 0.9985(16) 0.5874(8)
H241 H 0.6362 0.9650 0.5899
C195 C 0.6362(14) 0.9840(16) 0.5072(9)
H244 H 0.6324 0.9513 0.5142
H245 H 0.6543 0.9871 0.4805
H246 H 0.6044 0.9981 0.5037
C187_2 C 0.7793(9) 0.0104(13) 0.0487(8)
H235_2 H 0.7824 0.0424 0.0601
C188_2 C 0.7506(10) 0.0150(12) 0.0069(7)
C194_2 C 0.8606(9) 0.0015(16) 0.0874(8)
H241_2 H 0.8638 0.0350 0.0899
C195_2 C 0.8638(14) 0.0160(16) 0.0072(9)
H244_2 H 0.8676 0.0487 0.0142
H246_2 H 0.8956 0.0019 0.0037
C189_2 C 0.7500(12) 0.0577(10) 0.9846(9)
H236_2 H 0.7636 0.0843 0.9973
C190_2 C 0.7291(15) 0.0604(12) 0.9432(10)
H237_2 H 0.7287 0.0889 0.9283
C191_2 C 0.7087(16) 0.0205(15) 0.9241(8)
H238_2 H 0.6947 0.0224 0.8964
H245_2 H 0.8457 0.0129 0.9805
C186_2 C 0.8312(11) 0.9395(11) 0.0363(13)
H232_2 H 0.8180 0.9355 0.0074
H233_2 H 0.8100 0.9246 0.0572
H234_2 H 0.8631 0.9255 0.0378
H240_2 H 0.7306 0.9467 0.0027
H242_2 H 0.8926 0.9874 0.0873
H243_2 H 0.8422 0.9897 0.1118
C196_2 C 0.7490(9) 0.9830(18) 0.0834(10)
H247_2 H 0.7677 0.9802 0.1098
H248_2 H 0.7414 0.9522 0.0724
H249_2 H 0.7191 0.9997 0.0893
N20_2 N 0.8349(10) 0.9898(13) 0.0462(8)
C192_2 C 0.7093(15) 0.9779(12) 0.9464(12)
H239_2 H 0.6957 0.9513 0.9336
C193_2 C 0.7302(12) 0.9752(10) 0.9878(11)
C186_3 C 0.1688(11) 0.4395(11) 0.4637(13)
H232_3 H 0.1820 0.4355 0.4926
H233_3 H 0.1900 0.4246 0.4428
H234_3 H 0.1369 0.4255 0.4622
C187_3 C 0.2207(9) 0.5104(13) 0.4513(8)
H235_3 H 0.2176 0.5424 0.4399
C188_3 C 0.2494(10) 0.5150(12) 0.4931(7)
C189_3 C 0.2500(12) 0.5577(10) 0.5154(9)
H236_3 H 0.2364 0.5843 0.5027
C190_3 C 0.2709(15) 0.5604(12) 0.5568(10)
H237_3 H 0.2713 0.5889 0.5717
C191_3 C 0.2913(16) 0.5205(15) 0.5759(8)
H238_3 H 0.3053 0.5224 0.6036
C192_3 C 0.2907(15) 0.4779(12) 0.5536(12)
H239_3 H 0.3043 0.4513 0.5664
C193_3 C 0.2698(12) 0.4752(10) 0.5122(11)
H240_3 H 0.2694 0.4467 0.4973
C194_3 C 0.1394(9) 0.5015(16) 0.4126(8)
H241_3 H 0.1362 0.5350 0.4101
H242_3 H 0.1074 0.4874 0.4127
H243_3 H 0.1578 0.4897 0.3882
C195_3 C 0.1362(14) 0.5160(16) 0.4928(9)
H244_3 H 0.1324 0.5487 0.4858
H245_3 H 0.1543 0.5129 0.5195
H246_3 H 0.1044 0.5019 0.4963
C196_3 C 0.2510(9) 0.4830(18) 0.4166(10)
H247_3 H 0.2323 0.4802 0.3902
H248_3 H 0.2586 0.4522 0.4276
H249_3 H 0.2809 0.4997 0.4107
N20_3 N 0.1651(10) 0.4898(13) 0.4538(8)
C189_4 C 0.2500(12) 0.4423(10) 0.0154(9)
H236_4 H 0.2636 0.4157 0.0027
C190_4 C 0.2291(15) 0.4396(12) 0.0568(10)
H237_4 H 0.2287 0.4111 0.0717
C191_4 C 0.2087(16) 0.4795(15) 0.0759(8)
H238_4 H 0.1947 0.4776 0.1036
C192_4 C 0.2093(15) 0.5221(12) 0.0536(12)
H239_4 H 0.1957 0.5487 0.0664
C193_4 C 0.2302(12) 0.5248(10) 0.0122(11)
H245_4 H 0.3457 0.4871 0.0195
C186_4 C 0.3312(11) 0.5605(11) 0.9637(13)
H232_4 H 0.3180 0.5645 0.9926
H233_4 H 0.3100 0.5754 0.9428
H234_4 H 0.3631 0.5745 0.9622
C187_4 C 0.2793(9) 0.4896(13) 0.9513(8)
H235_4 H 0.2824 0.4576 0.9399
C188_4 C 0.2506(10) 0.4850(12) 0.9931(7)
H240_4 H 0.2306 0.5533 0.9973
C194_4 C 0.3606(9) 0.4985(16) 0.9126(8)
H241_4 H 0.3638 0.4650 0.9101
H242_4 H 0.3926 0.5126 0.9127
H243_4 H 0.3422 0.5103 0.8882
C195_4 C 0.3638(14) 0.4840(16) 0.9928(9)
H244_4 H 0.3676 0.4513 0.9858
H246_4 H 0.3956 0.4981 0.9963
C196_4 C 0.2490(9) 0.5170(18) 0.9166(10)
H247_4 H 0.2677 0.5198 0.8902
H248_4 H 0.2414 0.5478 0.9276
H249_4 H 0.2191 0.5003 0.9107
N20_4 N 0.3349(10) 0.5102(13) 0.9538(8)
loop_
_geom_bond_atom_site_label_1
_geom_bond_atom_site_label_2
_geom_bond_site_symmetry_1
_geom_bond_site_symmetry_2
C3 O1 1_555 1_555
O3 C3 1_555 1_555
O4 Mn1 1_555 1_555
O5 Mn1 1_555 1_555
O6 Mn1 1_555 1_555
O7 Mn1 1_555 1_555
C13 O4 1_555 1_555
C14 O5 1_555 1_555
C15 O6 1_555 1_555
C16 O7 1_555 1_555
N2 C13 1_555 1_555
O8 C14 1_555 1_555
N3 C15 1_555 1_555
O9 C16 1_555 1_555
C17 N2 1_555 1_555
Cu2 N2 1_555 1_555
Cu3 N3 1_555 1_555
C19 C17 1_555 1_555
C20 C17 1_555 1_555
N4 Cu2 1_555 1_555
O10 Cu2 1_555 1_555
O12 Cu3 1_555 1_555
N5 Cu3 1_555 1_555
C23 C19 1_555 1_555
C25 C20 1_555 1_555
C26 C20 1_555 1_555
C27 N4 1_555 1_555
C28 N4 1_555 1_555
C29 O10 1_555 1_555
S1 O12 1_555 1_555
C34 C23 1_555 1_555
H17 C25 1_555 1_555
H18 C26 1_555 1_555
H19 C26 1_555 1_555
C36 C26 1_555 1_555
O13 C27 1_555 1_555
C38 C28 1_555 1_555
O14 C29 1_555 1_555
C42 S1 1_555 1_555
C43 S1 1_555 1_555
H26 C34 1_555 1_555
H30 C36 1_555 1_555
H31 C36 1_555 1_555
H32 C36 1_555 1_555
Mn2 O13 1_555 1_555
C46 C38 1_555 1_555
C47 C38 1_555 1_555
H40 C42 1_555 1_555
H41 C42 1_555 1_555
H42 C42 1_555 1_555
H43 C43 1_555 1_555
H44 C43 1_555 1_555
H45 C43 1_555 1_555
O15 Mn2 1_555 1_555
O16 Mn2 1_555 1_555
O17 Mn2 1_555 1_555
O18 Mn2 1_555 1_555
C50 C46 1_555 1_555
H49 C46 1_555 1_555
H50 C46 1_555 1_555
H51 C47 1_555 1_555
C51 O15 1_555 1_555
C52 O16 1_555 1_555
C54 O18 1_555 1_555
H55 C49 1_555 1_555
H56 C50 1_555 1_555
H57 C50 1_555 1_555
H58 C50 1_555 1_555
O19 C51 1_555 1_555
N6 C52 1_555 1_555
C55 N6 1_555 1_555
C57 C55 1_555 1_555
C58 C55 1_555 1_555
C61 C57 1_555 1_555
C62 C57 1_555 1_555
C63 C58 1_555 1_555
C64 C58 1_555 1_555
C69 C61 1_555 1_555
H59 C61 1_555 1_555
H60 C61 1_555 1_555
C70 C62 1_555 1_555
H61 C62 1_555 1_555
H62 C63 1_555 1_555
H63 C64 1_555 1_555
H64 C64 1_555 1_555
C71 C64 1_555 1_555
H71 C69 1_555 1_555
H72 C69 1_555 1_555
H73 C69 1_555 1_555
H74 C70 1_555 1_555
H75 C71 1_555 1_555
H76 C71 1_555 1_555
H77 C71 1_555 1_555
O20 C54 1_555 1_555
Cu4 O19 1_555 1_555
O3 Mn1 1_555 1_555
C13 C14 1_555 1_555
C15 C16 1_555 1_555
O8 Cu2 1_555 1_555
O9 Cu3 1_555 1_555
C25 C34 1_555 1_555
C27 C29 1_555 1_555
O14 Mn2 1_555 1_555
C47 C49 1_555 1_555
C51 C52 1_555 1_555
N6 Cu4 1_555 1_555
C63 C70 1_555 1_555
C22 C18 1_555 1_555
C32 C22 1_555 1_555
C33 C22 1_555 1_555
H15 C24 1_555 1_555
C35 C24 1_555 1_555
H23 C32 1_555 1_555
C41 C33 1_555 1_555
H27 C35 1_555 1_555
H28 C35 1_555 1_555
H29 C35 1_555 1_555
C44 C37 1_555 1_555
C45 C37 1_555 1_555
H33 C39 1_555 1_555
H37 C41 1_555 1_555
H38 C41 1_555 1_555
H39 C41 1_555 1_555
C48 C44 1_555 1_555
H46 C44 1_555 1_555
H47 C44 1_555 1_555
H48 C45 1_555 1_555
H52 C48 1_555 1_555
H53 C48 1_555 1_555
H54 C48 1_555 1_555
C56 C59 1_555 1_555
C59 C65 1_555 1_555
C60 C56 1_555 1_555
C65 H65 1_555 1_555
C66 C59 1_555 1_555
C67 C60 1_555 1_555
C68 C60 1_555 1_555
C72 C65 1_555 1_555
H66 C65 1_555 1_555
C73 C66 1_555 1_555
H67 C66 1_555 1_555
C74 C67 1_555 1_555
H68 C67 1_555 1_555
H69 C67 1_555 1_555
H70 C68 1_555 1_555
H78 C72 1_555 1_555
H79 C72 1_555 1_555
H80 C72 1_555 1_555
H81 C73 1_555 1_555
H82 C74 1_555 1_555
H83 C74 1_555 1_555
H84 C74 1_555 1_555
N7 C53 1_555 1_555
Cu5 N7 1_555 1_555
O21 Cu5 1_555 1_555
O22 Cu5 1_555 1_555
N8 Cu5 1_555 1_555
S2 O22 1_555 1_555
C75 S2 1_555 1_555
C76 S2 1_555 1_555
H85 C75 1_555 1_555
H86 C75 1_555 1_555
H87 C75 1_555 1_555
H88 C76 1_555 1_555
H89 C76 1_555 1_555
H90 C76 1_555 1_555
C32 C39 1_555 1_555
C56 N7 1_555 1_555
C68 C73 1_555 1_555
Cu1 N1 1_555 1_555
N1 C1 1_555 1_555
C2 N1 1_555 1_555
O2 C1 1_555 1_555
C4 C2 1_555 1_555
C5 C2 1_555 1_555
C6 C4 1_555 1_555
C7 C4 1_555 1_555
C8 C5 1_555 1_555
C9 C5 1_555 1_555
H1 C6 1_555 1_555
C10 C6 1_555 1_555
H2 C7 1_555 1_555
H3 C7 1_555 1_555
C11 C7 1_555 1_555
H4 C8 1_555 1_555
H5 C9 1_555 1_555
H6 C9 1_555 1_555
C12 C9 1_555 1_555
H7 C10 1_555 1_555
H8 C11 1_555 1_555
H9 C11 1_555 1_555
H10 C11 1_555 1_555
H11 C12 1_555 1_555
H12 C12 1_555 1_555
H13 C12 1_555 1_555
C8 C10 1_555 1_555
Cu1_2 N1_2 1_555 1_555
N1_2 C1_2 1_555 1_555
C2_2 N1_2 1_555 1_555
O2_2 C1_2 1_555 1_555
C4_2 C2_2 1_555 1_555
C5_2 C2_2 1_555 1_555
C6_2 C4_2 1_555 1_555
C8_2 C5_2 1_555 1_555
C9_2 C5_2 1_555 1_555
C10_2 C6_2 1_555 1_555
H4_2 C8_2 1_555 1_555
H5_2 C9_2 1_555 1_555
H6_2 C9_2 1_555 1_555
C12_2 C9_2 1_555 1_555
H7_2 C10_2 1_555 1_555
H11_2 C12_2 1_555 1_555
H12_2 C12_2 1_555 1_555
H13_2 C12_2 1_555 1_555
C30 C21 1_555 1_555
C31 C21 1_555 1_555
H20 C30 1_555 1_555
H21_2 C31 1_555 1_555
H22 C31 1_555 1_555
C40 C31 1_555 1_555
H34 C40 1_555 1_555
H35 C40 1_555 1_555
C8_2 C10_2 1_555 1_555
C3_2 O1_2 1_555 1_555
O3_2 C3_2 1_555 1_555
O4_2 Mn1_2 1_555 1_555
O5_2 Mn1_2 1_555 1_555
O6_2 Mn1_2 1_555 1_555
O7_2 Mn1_2 1_555 1_555
C13_2 O4_2 1_555 1_555
C14_2 O5_2 1_555 1_555
C15_2 O6_2 1_555 1_555
C16_2 O7_2 1_555 1_555
O8_2 C14_2 1_555 1_555
N3_2 C15_2 1_555 1_555
O9_2 C16_2 1_555 1_555
C18_2 N3_2 1_555 1_555
Cu3_2 N3_2 1_555 1_555
N4_2 Cu2_2 1_555 1_555
C22_2 C18_2 1_555 1_555
O11_2 Cu3_2 1_555 1_555
O12_2 Cu3_2 1_555 1_555
N5_2 Cu3_2 1_555 1_555
C28_2 N4_2 1_555 1_555
C32_2 C22_2 1_555 1_555
C33_2 C22_2 1_555 1_555
S1_2 O12_2 1_555 1_555
C37_2 C28_2 1_555 1_555
C38_2 C28_2 1_555 1_555
H23_2 C32_2 1_555 1_555
H24_2 C33_2 1_555 1_555
H25_2 C33_2 1_555 1_555
C41_2 C33_2 1_555 1_555
C42_2 S1_2 1_555 1_555
C43_2 S1_2 1_555 1_555
C44_2 C37_2 1_555 1_555
C45_2 C37_2 1_555 1_555
C46_2 C38_2 1_555 1_555
C47_2 C38_2 1_555 1_555
H33_2 C39_2 1_555 1_555
H37_2 C41_2 1_555 1_555
H38_2 C41_2 1_555 1_555
H39_2 C41_2 1_555 1_555
H40_2 C42_2 1_555 1_555
H41_2 C42_2 1_555 1_555
H42_2 C42_2 1_555 1_555
H43_2 C43_2 1_555 1_555
H44_2 C43_2 1_555 1_555
H45_2 C43_2 1_555 1_555
C48_2 C44_2 1_555 1_555
H46_2 C44_2 1_555 1_555
H47_2 C44_2 1_555 1_555
C49_2 C45_2 1_555 1_555
H48_2 C45_2 1_555 1_555
C50_2 C46_2 1_555 1_555
H49_2 C46_2 1_555 1_555
H50_2 C46_2 1_555 1_555
H51_2 C47_2 1_555 1_555
H52_2 C48_2 1_555 1_555
H53_2 C48_2 1_555 1_555
H54_2 C48_2 1_555 1_555
H55_2 C49_2 1_555 1_555
H56_2 C50_2 1_555 1_555
H57_2 C50_2 1_555 1_555
H58_2 C50_2 1_555 1_555
C69_2 C61_2 1_555 1_555
H59_2 C61_2 1_555 1_555
H60_2 C61_2 1_555 1_555
H71_2 C69_2 1_555 1_555
H72_2 C69_2 1_555 1_555
H73_2 C69_2 1_555 1_555
O3_2 Mn1_2 1_555 1_555
C13_2 C14_2 1_555 1_555
C15_2 C16_2 1_555 1_555
O8_2 Cu2_2 1_555 1_555
O9_2 Cu3_2 1_555 1_555
C32_2 C39_2 1_555 1_555
C47_2 C49_2 1_555 1_555
C17_2 N2_2 1_555 1_555
C19_2 C17_2 1_555 1_555
C20_2 C17_2 1_555 1_555
C23_2 C19_2 1_555 1_555
C24_2 C19_2 1_555 1_555
C25_2 C20_2 1_555 1_555
C26_2 C20_2 1_555 1_555
C29_2 O10_2 1_555 1_555
H14_2 C23_2 1_555 1_555
C34_2 C23_2 1_555 1_555
H15_2 C24_2 1_555 1_555
C35_2 C24_2 1_555 1_555
H17_2 C25_2 1_555 1_555
H18_2 C26_2 1_555 1_555
H19_2 C26_2 1_555 1_555
C36_2 C26_2 1_555 1_555
O13_2 C27_2 1_555 1_555
O14_2 C29_2 1_555 1_555
H26_2 C34_2 1_555 1_555
H27_2 C35_2 1_555 1_555
H28_2 C35_2 1_555 1_555
H29_2 C35_2 1_555 1_555
H30_2 C36_2 1_555 1_555
H31_2 C36_2 1_555 1_555
H32_2 C36_2 1_555 1_555
Mn2_2 O13_2 1_555 1_555
O15_2 Mn2_2 1_555 1_555
O16_2 Mn2_2 1_555 1_555
O17_2 Mn2_2 1_555 1_555
O18_2 Mn2_2 1_555 1_555
C51_2 O15_2 1_555 1_555
C52_2 O16_2 1_555 1_555
C53_2 O17_2 1_555 1_555
C54_2 O18_2 1_555 1_555
O19_2 C51_2 1_555 1_555
N6_2 C52_2 1_555 1_555
C55_2 N6_2 1_555 1_555
C56_2 C59_2 1_555 1_555
C57_2 C55_2 1_555 1_555
C58_2 C55_2 1_555 1_555
C59_2 C65_2 1_555 1_555
C60_2 C56_2 1_555 1_555
C62_2 C57_2 1_555 1_555
C63_2 C58_2 1_555 1_555
C64_2 C58_2 1_555 1_555
C65_2 H65_2 1_555 1_555
C66_2 C59_2 1_555 1_555
C67_2 C60_2 1_555 1_555
C68_2 C60_2 1_555 1_555
C70_2 C62_2 1_555 1_555
H62_2 C63_2 1_555 1_555
H63_2 C64_2 1_555 1_555
H64_2 C64_2 1_555 1_555
C71_2 C64_2 1_555 1_555
C72_2 C65_2 1_555 1_555
H66_2 C65_2 1_555 1_555
C73_2 C66_2 1_555 1_555
H67_2 C66_2 1_555 1_555
C74_2 C67_2 1_555 1_555
H68_2 C67_2 1_555 1_555
H69_2 C67_2 1_555 1_555
H70_2 C68_2 1_555 1_555
H74_2 C70_2 1_555 1_555
H75_2 C71_2 1_555 1_555
H76_2 C71_2 1_555 1_555
H77_2 C71_2 1_555 1_555
H78_2 C72_2 1_555 1_555
H79_2 C72_2 1_555 1_555
H80_2 C72_2 1_555 1_555
H81_2 C73_2 1_555 1_555
H82_2 C74_2 1_555 1_555
H83_2 C74_2 1_555 1_555
H84_2 C74_2 1_555 1_555
N7_2 C53_2 1_555 1_555
O20_2 C54_2 1_555 1_555
Cu4_2 O19_2 1_555 1_555
Cu5_2 N7_2 1_555 1_555
O21_2 Cu5_2 1_555 1_555
O22_2 Cu5_2 1_555 1_555
N8_2 Cu5_2 1_555 1_555
S2_2 O22_2 1_555 1_555
C75_2 S2_2 1_555 1_555
C76_2 S2_2 1_555 1_555
H85_2 C75_2 1_555 1_555
H86_2 C75_2 1_555 1_555
H87_2 C75_2 1_555 1_555
H88_2 C76_2 1_555 1_555
H89_2 C76_2 1_555 1_555
H90_2 C76_2 1_555 1_555
C25_2 C34_2 1_555 1_555
C27_2 C29_2 1_555 1_555
O14_2 Mn2_2 1_555 1_555
C51_2 C52_2 1_555 1_555
C53_2 C54_2 1_555 1_555
N6_2 Cu4_2 1_555 1_555
C56_2 N7_2 1_555 1_555
C63_2 C70_2 1_555 1_555
C68_2 C73_2 1_555 1_555
O20_2 Cu5_2 1_555 1_555
H15_3 C24_3 1_555 1_555
C35_3 C24_3 1_555 1_555
H27_3 C35_3 1_555 1_555
H28_3 C35_3 1_555 1_555
H29_3 C35_3 1_555 1_555
C56_3 C59_3 1_555 1_555
C59_3 C65_3 1_555 1_555
C60_3 C56_3 1_555 1_555
C65_3 H65_3 1_555 1_555
C66_3 C59_3 1_555 1_555
C68_3 C60_3 1_555 1_555
C72_3 C65_3 1_555 1_555
H66_3 C65_3 1_555 1_555
C73_3 C66_3 1_555 1_555
H67_3 C66_3 1_555 1_555
H78_3 C72_3 1_555 1_555
H79_3 C72_3 1_555 1_555
H80_3 C72_3 1_555 1_555
H81_3 C73_3 1_555 1_555
N5 C53_3 1_555 1_555
C56_3 N5 1_555 1_555
C68_3 C73_3 1_555 1_555
H2_2 C7_2 1_555 1_555
H3_2 C7_2 1_555 1_555
C11_2 C7_2 1_555 1_555
H8_2 C11_2 1_555 1_555
H9_2 C11_2 1_555 1_555
H10_2 C11_2 1_555 1_555
C17_3 N2_3 1_555 1_555
C19_3 C17_3 1_555 1_555
C20_3 C17_3 1_555 1_555
C23_3 C19_3 1_555 1_555
C25_3 C20_3 1_555 1_555
C26_3 C20_3 1_555 1_555
C29_3 O10_3 1_555 1_555
C34_3 C23_3 1_555 1_555
H17_3 C25_3 1_555 1_555
H18_3 C26_3 1_555 1_555
H19_3 C26_3 1_555 1_555
C36_3 C26_3 1_555 1_555
O13_3 C27_3 1_555 1_555
O14_3 C29_3 1_555 1_555
H26_3 C34_3 1_555 1_555
H30_3 C36_3 1_555 1_555
H31_3 C36_3 1_555 1_555
H32_3 C36_3 1_555 1_555
Mn2_3 O13_3 1_555 1_555
O15_3 Mn2_3 1_555 1_555
O16_3 Mn2_3 1_555 1_555
O17_3 Mn2_3 1_555 1_555
O18_3 Mn2_3 1_555 1_555
C51_3 O15_3 1_555 1_555
C52_3 O16_3 1_555 1_555
C54_3 O18_3 1_555 1_555
O19_3 C51_3 1_555 1_555
N6_3 C52_3 1_555 1_555
O11 C54_3 1_555 1_555
Cu1_2 O19_3 1_555 1_555
C25_3 C34_3 1_555 1_555
C27_3 C29_3 1_555 1_555
O14_3 Mn2_3 1_555 1_555
C51_3 C52_3 1_555 1_555
N6_3 Cu1_2 1_555 1_555
C21_2 C18_3 1_555 1_555
C22_3 C18_3 1_555 1_555
C30_2 C21_2 1_555 1_555
C31_2 C21_2 1_555 1_555
C32_3 C22_3 1_555 1_555
C33_3 C22_3 1_555 1_555
H20_2 C30_2 1_555 1_555
C39_3 C30_2 1_555 1_555
H22_2 C31_2 1_555 1_555
C40_2 C31_2 1_555 1_555
H23_3 C32_3 1_555 1_555
C41_3 C33_3 1_555 1_555
C44_3 C37_3 1_555 1_555
C45_3 C37_3 1_555 1_555
H33_3 C39_3 1_555 1_555
H34_2 C40_2 1_555 1_555
H35_2 C40_2 1_555 1_555
H37_3 C41_3 1_555 1_555
H38_3 C41_3 1_555 1_555
H39_3 C41_3 1_555 1_555
C48_3 C44_3 1_555 1_555
H46_3 C44_3 1_555 1_555
H47_3 C44_3 1_555 1_555
H48_3 C45_3 1_555 1_555
H52_3 C48_3 1_555 1_555
H53_3 C48_3 1_555 1_555
H54_3 C48_3 1_555 1_555
C32_3 C39_3 1_555 1_555
Cu4_2 N1_3 1_555 1_555
N1_3 C1_3 1_555 1_555
O1_3 Cu4_2 1_555 1_555
C1_3 C3_3 1_555 1_555
C2_3 N1_3 1_555 1_555
C3_3 O1_3 1_555 1_555
O2_3 C1_3 1_555 1_555
C4_3 C2_3 1_555 1_555
C5_3 C2_3 1_555 1_555
O3_3 C3_3 1_555 1_555
Mn1_3 O2_3 1_555 1_555
C6_3 C4_3 1_555 1_555
C8_3 C5_3 1_555 1_555
C9_3 C5_3 1_555 1_555
O4_3 Mn1_3 1_555 1_555
O5_3 Mn1_3 1_555 1_555
O6_3 Mn1_3 1_555 1_555
O7_3 Mn1_3 1_555 1_555
C10_3 C6_3 1_555 1_555
H4_3 C8_3 1_555 1_555
H5_3 C9_3 1_555 1_555
H6_3 C9_3 1_555 1_555
C12_3 C9_3 1_555 1_555
C13_3 O4_3 1_555 1_555
C14_3 O5_3 1_555 1_555
C15_3 O6_3 1_555 1_555
C16_3 O7_3 1_555 1_555
H7_3 C10_3 1_555 1_555
H11_3 C12_3 1_555 1_555
H12_3 C12_3 1_555 1_555
H13_3 C12_3 1_555 1_555
O8_3 C14_3 1_555 1_555
N8 C15_3 1_555 1_555
O21 C16_3 1_555 1_555
N4_3 Cu2_3 1_555 1_555
C28_3 N4_3 1_555 1_555
C38_3 C28_3 1_555 1_555
C46_3 C38_3 1_555 1_555
C47_3 C38_3 1_555 1_555
C50_3 C46_3 1_555 1_555
H49_3 C46_3 1_555 1_555
H50_3 C46_3 1_555 1_555
H51_3 C47_3 1_555 1_555
H55_3 C49_3 1_555 1_555
H56_3 C50_3 1_555 1_555
H57_3 C50_3 1_555 1_555
H58_3 C50_3 1_555 1_555
H71_3 C69_3 1_555 1_555
H72_3 C69_3 1_555 1_555
H73_3 C69_3 1_555 1_555
O3_3 Mn1_3 1_555 1_555
C8_3 C10_3 1_555 1_555
C13_3 C14_3 1_555 1_555
C15_3 C16_3 1_555 1_555
O8_3 Cu2_3 1_555 1_555
C47_3 C49_3 1_555 1_555
Cu4 N1_4 1_555 1_555
N1_4 C1_4 1_555 1_555
O1_4 Cu4 1_555 1_555
C1_4 C3_4 1_555 1_555
C2_4 N1_4 1_555 1_555
C3_4 O1_4 1_555 1_555
O2_4 C1_4 1_555 1_555
C4_4 C2_4 1_555 1_555
C5_4 C2_4 1_555 1_555
O3_4 C3_4 1_555 1_555
Mn1_4 O2_4 1_555 1_555
C6_4 C4_4 1_555 1_555
C7_3 C4_4 1_555 1_555
C8_4 C5_4 1_555 1_555
C9_4 C5_4 1_555 1_555
O4_4 Mn1_4 1_555 1_555
O5_4 Mn1_4 1_555 1_555
O6_4 Mn1_4 1_555 1_555
O7_4 Mn1_4 1_555 1_555
H1_3 C6_4 1_555 1_555
C10_4 C6_4 1_555 1_555
H2_3 C7_3 1_555 1_555
H3_3 C7_3 1_555 1_555
C11_3 C7_3 1_555 1_555
H4_4 C8_4 1_555 1_555
H5_4 C9_4 1_555 1_555
H6_4 C9_4 1_555 1_555
C12_4 C9_4 1_555 1_555
C13_4 O4_4 1_555 1_555
C14_4 O5_4 1_555 1_555
C15_4 O6_4 1_555 1_555
C16_4 O7_4 1_555 1_555
H7_4 C10_4 1_555 1_555
H8_3 C11_3 1_555 1_555
H9_3 C11_3 1_555 1_555
H10_3 C11_3 1_555 1_555
H11_4 C12_4 1_555 1_555
H12_4 C12_4 1_555 1_555
H13_4 C12_4 1_555 1_555
N2_4 C13_4 1_555 1_555
O8_4 C14_4 1_555 1_555
N8_2 C15_4 1_555 1_555
O21_2 C16_4 1_555 1_555
C17_4 N2_4 1_555 1_555
Cu2_4 N2_4 1_555 1_555
C18_4 N8_2 1_555 1_555
C19_4 C17_4 1_555 1_555
C20_4 C17_4 1_555 1_555
N4_4 Cu2_4 1_555 1_555
O10_4 Cu2_4 1_555 1_555
C21_3 C18_4 1_555 1_555
C22_4 C18_4 1_555 1_555
C23_4 C19_4 1_555 1_555
C24_4 C19_4 1_555 1_555
C25_4 C20_4 1_555 1_555
C26_4 C20_4 1_555 1_555
C27_4 N4_4 1_555 1_555
C28_4 N4_4 1_555 1_555
C29_4 O10_4 1_555 1_555
C30_3 C21_3 1_555 1_555
C31_3 C21_3 1_555 1_555
C32_4 C22_4 1_555 1_555
C33_4 C22_4 1_555 1_555
H14_4 C23_4 1_555 1_555
C34_4 C23_4 1_555 1_555
H15_4 C24_4 1_555 1_555
H16_4 C24_4 1_555 1_555
C35_4 C24_4 1_555 1_555
H17_4 C25_4 1_555 1_555
H18_4 C26_4 1_555 1_555
H19_4 C26_4 1_555 1_555
C36_4 C26_4 1_555 1_555
O13_4 C27_4 1_555 1_555
C37_4 C28_4 1_555 1_555
C38_4 C28_4 1_555 1_555
O14_4 C29_4 1_555 1_555
H20_3 C30_3 1_555 1_555
C39_4 C30_3 1_555 1_555
H21_4 C31_3 1_555 1_555
H22_3 C31_3 1_555 1_555
C40_3 C31_3 1_555 1_555
H23_4 C32_4 1_555 1_555
H24_4 C33_4 1_555 1_555
H25_4 C33_4 1_555 1_555
C41_4 C33_4 1_555 1_555
H26_4 C34_4 1_555 1_555
H27_4 C35_4 1_555 1_555
H28_4 C35_4 1_555 1_555
H29_4 C35_4 1_555 1_555
H30_4 C36_4 1_555 1_555
H31_4 C36_4 1_555 1_555
H32_4 C36_4 1_555 1_555
Mn2_4 O13_4 1_555 1_555
C44_4 C37_4 1_555 1_555
C45_4 C37_4 1_555 1_555
C46_4 C38_4 1_555 1_555
C47_4 C38_4 1_555 1_555
H33_4 C39_4 1_555 1_555
H34_3 C40_3 1_555 1_555
H35_3 C40_3 1_555 1_555
H36_4 C40_3 1_555 1_555
H37_4 C41_4 1_555 1_555
H38_4 C41_4 1_555 1_555
H39_4 C41_4 1_555 1_555
O15_4 Mn2_4 1_555 1_555
O16_4 Mn2_4 1_555 1_555
O17_4 Mn2_4 1_555 1_555
O18_4 Mn2_4 1_555 1_555
C48_4 C44_4 1_555 1_555
H46_4 C44_4 1_555 1_555
H47_4 C44_4 1_555 1_555
C49_4 C45_4 1_555 1_555
H48_4 C45_4 1_555 1_555
C50_4 C46_4 1_555 1_555
H49_4 C46_4 1_555 1_555
H50_4 C46_4 1_555 1_555
H51_4 C47_4 1_555 1_555
C51_4 O15_4 1_555 1_555
C52_4 O16_4 1_555 1_555
C53_4 O17_4 1_555 1_555
C54_4 O18_4 1_555 1_555
H52_4 C48_4 1_555 1_555
H53_4 C48_4 1_555 1_555
H54_4 C48_4 1_555 1_555
H55_4 C49_4 1_555 1_555
H56_4 C50_4 1_555 1_555
H57_4 C50_4 1_555 1_555
H58_4 C50_4 1_555 1_555
O19_4 C51_4 1_555 1_555
N6_4 C52_4 1_555 1_555
C56_4 C59_4 1_555 1_555
C59_4 C65_4 1_555 1_555
C60_4 C56_4 1_555 1_555
C65_4 H65_4 1_555 1_555
C66_4 C59_4 1_555 1_555
C68_4 C60_4 1_555 1_555
C72_4 C65_4 1_555 1_555
H66_4 C65_4 1_555 1_555
C73_4 C66_4 1_555 1_555
H67_4 C66_4 1_555 1_555
H71_4 C69_4 1_555 1_555
H72_4 C69_4 1_555 1_555
H73_4 C69_4 1_555 1_555
H78_4 C72_4 1_555 1_555
H79_4 C72_4 1_555 1_555
H80_4 C72_4 1_555 1_555
H81_4 C73_4 1_555 1_555
N5_2 C53_4 1_555 1_555
O11_2 C54_4 1_555 1_555
Cu1 O19_4 1_555 1_555
O3_4 Mn1_4 1_555 1_555
C8_4 C10_4 1_555 1_555
C13_4 C14_4 1_555 1_555
C15_4 C16_4 1_555 1_555
O8_4 Cu2_4 1_555 1_555
C25_4 C34_4 1_555 1_555
C27_4 C29_4 1_555 1_555
C32_4 C39_4 1_555 1_555
O14_4 Mn2_4 1_555 1_555
C47_4 C49_4 1_555 1_555
C51_4 C52_4 1_555 1_555
C53_4 C54_4 1_555 1_555
N6_4 Cu1 1_555 1_555
C56_4 N5_2 1_555 1_555
C68_4 C73_4 1_555 1_555
C30_4 C21_4 1_555 1_555
C31_4 C21_4 1_555 1_555
H20_4 C30_4 1_555 1_555
H22_4 C31_4 1_555 1_555
C40_4 C31_4 1_555 1_555
H34_4 C40_4 1_555 1_555
H35_4 C40_4 1_555 1_555
H2_4 C7_4 1_555 1_555
H3_4 C7_4 1_555 1_555
C11_4 C7_4 1_555 1_555
H8_4 C11_4 1_555 1_555
H9_4 C11_4 1_555 1_555
H10_4 C11_4 1_555 1_555
C74_3 C67_3 1_555 1_555
H68_3 C67_3 1_555 1_555
H69_3 C67_3 1_555 1_555
H82_3 C74_3 1_555 1_555
H83_3 C74_3 1_555 1_555
H84_3 C74_3 1_555 1_555
C57_3 C55_3 1_555 1_555
C58_3 C55_3 1_555 1_555
C62_3 C57_3 1_555 1_555
C63_3 C58_3 1_555 1_555
C64_3 C58_3 1_555 1_555
C70_3 C62_3 1_555 1_555
H62_3 C63_3 1_555 1_555
H63_3 C64_3 1_555 1_555
C71_3 C64_3 1_555 1_555
H74_3 C70_3 1_555 1_555
H75_3 C71_3 1_555 1_555
H76_3 C71_3 1_555 1_555
H77_3 C71_3 1_555 1_555
C63_3 C70_3 1_555 1_555
H59_3 C61_3 1_555 1_555
H60_3 C61_3 1_555 1_555
C57_4 C55_4 1_555 1_555
C58_4 C55_4 1_555 1_555
C61_4 C57_4 1_555 1_555
C62_4 C57_4 1_555 1_555
C63_4 C58_4 1_555 1_555
C64_4 C58_4 1_555 1_555
H59_4 C61_4 1_555 1_555
H60_4 C61_4 1_555 1_555
C70_4 C62_4 1_555 1_555
H61_4 C62_4 1_555 1_555
H62_4 C63_4 1_555 1_555
H63_4 C64_4 1_555 1_555
C71_4 C64_4 1_555 1_555
C74_4 C67_4 1_555 1_555
H68_4 C67_4 1_555 1_555
H69_4 C67_4 1_555 1_555
H74_4 C70_4 1_555 1_555
H75_4 C71_4 1_555 1_555
H76_4 C71_4 1_555 1_555
H77_4 C71_4 1_555 1_555
H82_4 C74_4 1_555 1_555
H83_4 C74_4 1_555 1_555
H84_4 C74_4 1_555 1_555
C63_4 C70_4 1_555 1_555
C150 H169 1_555 1_555
H170 C150 1_555 1_555
H171 C150 1_555 1_555
C151 H172 1_555 1_555
H173 C151 1_555 1_555
H174 C151 1_555 1_555
C152 H175 1_555 1_555
H176 C152 1_555 1_555
H177 C152 1_555 1_555
O42 Cu6 1_555 1_555
S4 C151 1_555 1_555
N16 Cu6 1_555 1_555
O44 Cu6 1_555 1_555
C152 S4 1_555 1_555
O42 S4 1_555 1_555
Mn3 O24 1_555 1_555
Cu7 N11 1_555 1_555
C77 C78 1_555 1_555
C78 N9 1_555 1_555
C79 C80 1_555 1_555
C80 C81 1_555 1_555
C81 C82 1_555 1_555
C82 H91 1_555 1_555
C83 C82 1_555 1_555
H92 C83 1_555 1_555
C84 C79 1_555 1_555
H93 C84 1_555 1_555
C85 C81 1_555 1_555
H94 C85 1_555 1_555
H95 C85 1_555 1_555
C86 C79 1_555 1_555
H96 C86 1_555 1_555
H97 C86 1_555 1_555
C87 C86 1_555 1_555
H100 C87 1_555 1_555
C88 C85 1_555 1_555
H101 C88 1_555 1_555
H102 C88 1_555 1_555
H103 C88 1_555 1_555
C89 C90 1_555 1_555
C90 N10 1_555 1_555
C91 H104 1_555 1_555
H105 C91 1_555 1_555
C92 C93 1_555 1_555
C93 C94 1_555 1_555
C94 H106 1_555 1_555
C95 C94 1_555 1_555
H107 C95 1_555 1_555
C96 C95 1_555 1_555
H108 C96 1_555 1_555
C97 C91 1_555 1_555
C98 C91 1_555 1_555
H109 C98 1_555 1_555
H110 C98 1_555 1_555
H111 C98 1_555 1_555
C99 C93 1_555 1_555
H112 C99 1_555 1_555
H113 C99 1_555 1_555
C100 C99 1_555 1_555
H114 C100 1_555 1_555
H115 C100 1_555 1_555
H116 C100 1_555 1_555
C101 C102 1_555 1_555
C102 N11 1_555 1_555
C103 C104 1_555 1_555
C104 C105 1_555 1_555
C105 H117 1_555 1_555
C106 C105 1_555 1_555
H118 C106 1_555 1_555
C107 C106 1_555 1_555
H119 C107 1_555 1_555
C108 C103 1_555 1_555
C109 C108 1_555 1_555
H120 C109 1_555 1_555
H121 C109 1_555 1_555
C110 C104 1_555 1_555
H122 C110 1_555 1_555
H123 C110 1_555 1_555
C111 C109 1_555 1_555
H124 C111 1_555 1_555
H125 C111 1_555 1_555
H126 C111 1_555 1_555
C112 C110 1_555 1_555
H127 C112 1_555 1_555
H128 C112 1_555 1_555
H129 C112 1_555 1_555
N9 C80 1_555 1_555
N10 C92 1_555 1_555
N11 C103 1_555 1_555
O24 C77 1_555 1_555
O25 Mn3 1_555 1_555
O26 C89 1_555 1_555
O27 Mn3 1_555 1_555
O28 Mn3 1_555 1_555
O29 Mn3 1_555 1_555
O30 Mn3 1_555 1_555
O31 Cu7 1_555 1_555
Cu10 N10 1_555 1_555
C77 O23 1_555 1_555
C78 O25 1_555 1_555
C83 C84 1_555 1_555
C89 O27 1_555 1_555
C90 O28 1_555 1_555
C92 C97 1_555 1_555
C96 C97 1_555 1_555
C101 O30 1_555 1_555
C101 O31 1_555 1_555
C102 O29 1_555 1_555
C107 C108 1_555 1_555
O26 Cu10 1_555 1_555
Mn3_2 O24_2 1_555 1_555
Mn4 O33 1_555 1_555
Cu7_2 N11_2 1_555 1_555
Cu8 N14 1_555 1_555
C77_2 C78_2 1_555 1_555
C78_2 N9_2 1_555 1_555
C79_2 C80_2 1_555 1_555
C80_2 C81_2 1_555 1_555
C81_2 C82_2 1_555 1_555
C82_2 H91_2 1_555 1_555
C83_2 C82_2 1_555 1_555
H92_2 C83_2 1_555 1_555
C84_2 C79_2 1_555 1_555
H93_2 C84_2 1_555 1_555
C85_2 C81_2 1_555 1_555
H94_2 C85_2 1_555 1_555
H95_2 C85_2 1_555 1_555
C86_2 C79_2 1_555 1_555
H96_2 C86_2 1_555 1_555
H97_2 C86_2 1_555 1_555
C87_2 C86_2 1_555 1_555
H100_2 C87_2 1_555 1_555
C88_2 C85_2 1_555 1_555
H101_2 C88_2 1_555 1_555
H102_2 C88_2 1_555 1_555
H103_2 C88_2 1_555 1_555
C89_2 C90_2 1_555 1_555
C90_2 N10_2 1_555 1_555
C91_2 H104_2 1_555 1_555
H105_2 C91_2 1_555 1_555
C92_2 C93_2 1_555 1_555
C93_2 C94_2 1_555 1_555
C94_2 H106_2 1_555 1_555
C95_2 C94_2 1_555 1_555
H107_2 C95_2 1_555 1_555
C96_2 C95_2 1_555 1_555
H108_2 C96_2 1_555 1_555
C97_2 C91_2 1_555 1_555
C98_2 C91_2 1_555 1_555
H109_2 C98_2 1_555 1_555
H110_2 C98_2 1_555 1_555
H111_2 C98_2 1_555 1_555
C99_2 C93_2 1_555 1_555
H112_2 C99_2 1_555 1_555
H113_2 C99_2 1_555 1_555
C100_2 C99_2 1_555 1_555
H114_2 C100_2 1_555 1_555
H115_2 C100_2 1_555 1_555
H116_2 C100_2 1_555 1_555
C101_2 C102_2 1_555 1_555
C102_2 N11_2 1_555 1_555
C103_2 C104_2 1_555 1_555
C104_2 C105_2 1_555 1_555
C105_2 H117_2 1_555 1_555
C106_2 C105_2 1_555 1_555
H118_2 C106_2 1_555 1_555
C107_2 C106_2 1_555 1_555
H119_2 C107_2 1_555 1_555
C108_2 C103_2 1_555 1_555
C109_2 C108_2 1_555 1_555
H120_2 C109_2 1_555 1_555
H121_2 C109_2 1_555 1_555
C110_2 C104_2 1_555 1_555
H122_2 C110_2 1_555 1_555
H123_2 C110_2 1_555 1_555
C111_2 C109_2 1_555 1_555
H124_2 C111_2 1_555 1_555
H125_2 C111_2 1_555 1_555
H126_2 C111_2 1_555 1_555
C112_2 C110_2 1_555 1_555
H127_2 C112_2 1_555 1_555
H128_2 C112_2 1_555 1_555
H129_2 C112_2 1_555 1_555
C113 C114 1_555 1_555
C114 N12 1_555 1_555
C115 C116 1_555 1_555
C116 C117 1_555 1_555
C117 C118 1_555 1_555
C118 C119 1_555 1_555
C119 C120 1_555 1_555
C120 C115 1_555 1_555
C121 C116 1_555 1_555
H130 C121 1_555 1_555
H131 C121 1_555 1_555
C122 C120 1_555 1_555
H132 C122 1_555 1_555
H133 C122 1_555 1_555
C123 C122 1_555 1_555
H134 C123 1_555 1_555
H135 C123 1_555 1_555
H136 C123 1_555 1_555
C124 C121 1_555 1_555
H137 C124 1_555 1_555
H138 C124 1_555 1_555
H139 C124 1_555 1_555
C125 C126 1_555 1_555
C126 N16 1_555 1_555
C127 C128 1_555 1_555
C128 C129 1_555 1_555
C129 H140 1_555 1_555
C130 C129 1_555 1_555
H141 C130 1_555 1_555
C131 C130 1_555 1_555
H142 C131 1_555 1_555
C132 C127 1_555 1_555
C133 C132 1_555 1_555
H143 C133 1_555 1_555
H144 C133 1_555 1_555
C134 C128 1_555 1_555
H145 C134 1_555 1_555
H146 C134 1_555 1_555
C135 C134 1_555 1_555
H147 C135 1_555 1_555
H148 C135 1_555 1_555
H149 C135 1_555 1_555
C136 C133 1_555 1_555
H150 C136 1_555 1_555
H151 C136 1_555 1_555
H152 C136 1_555 1_555
C137 C138 1_555 1_555
C138 N14 1_555 1_555
C139 C140 1_555 1_555
C140 C141 1_555 1_555
C141 H153 1_555 1_555
C142 C141 1_555 1_555
H154 C142 1_555 1_555
C143 C142 1_555 1_555
H155 C143 1_555 1_555
C144 C139 1_555 1_555
C145 C140 1_555 1_555
H156 C145 1_555 1_555
H157 C145 1_555 1_555
C146 C144 1_555 1_555
H158 C146 1_555 1_555
H159 C146 1_555 1_555
C147 C145 1_555 1_555
H160 C147 1_555 1_555
H161 C147 1_555 1_555
H162 C147 1_555 1_555
C148 C146 1_555 1_555
H163 C148 1_555 1_555
H164 C148 1_555 1_555
H165 C148 1_555 1_555
C149 H166 1_555 1_555
H167_2 C149 1_555 1_555
H168_2 C149 1_555 1_555
C150_2 H169_2 1_555 1_555
H170_2 C150_2 1_555 1_555
H171_2 C150_2 1_555 1_555
N9_2 C80_2 1_555 1_555
N10_2 C92_2 1_555 1_555
N11_2 C103_2 1_555 1_555
N12 Cu7_2 1_555 1_555
N16 C127 1_555 1_555
N14 C139 1_555 1_555
O24_2 C77_2 1_555 1_555
O25_2 Mn3_2 1_555 1_555
O26_2 C89_2 1_555 1_555
O27_2 Mn3_2 1_555 1_555
O28_2 Mn3_2 1_555 1_555
O29_2 Mn3_2 1_555 1_555
O30_2 Mn3_2 1_555 1_555
O31_2 Cu7_2 1_555 1_555
O32 Cu7_2 1_555 1_555
O33 C113 1_555 1_555
O34 Mn4 1_555 1_555
O35 Mn4 1_555 1_555
O36 Mn4 1_555 1_555
O44 C125 1_555 1_555
O38 Mn4 1_555 1_555
O39 Mn4 1_555 1_555
O40 Cu8 1_555 1_555
O41 Cu8 1_555 1_555
S3 C149 1_555 1_555
N15_2 Cu8 1_555 1_555
O43_2 Cu8 1_555 1_555
C77_2 O23_2 1_555 1_555
C78_2 O25_2 1_555 1_555
C83_2 C84_2 1_555 1_555
C89_2 O27_2 1_555 1_555
C90_2 O28_2 1_555 1_555
C92_2 C97_2 1_555 1_555
C96_2 C97_2 1_555 1_555
C101_2 O30_2 1_555 1_555
C101_2 O31_2 1_555 1_555
C102_2 O29_2 1_555 1_555
C107_2 C108_2 1_555 1_555
C113 O32 1_555 1_555
C114 O34 1_555 1_555
C115 N12 1_555 1_555
C125 O36 1_555 1_555
C126 O35 1_555 1_555
C131 C132 1_555 1_555
C137 O39 1_555 1_555
C137 O40 1_555 1_555
C138 O38 1_555 1_555
C143 C144 1_555 1_555
C150_2 S3 1_555 1_555
O41 S3 1_555 1_555
C118 H250 1_555 1_555
C119 H251 1_555 1_555
C117 H252 1_555 1_555
Mn3_3 O24_3 1_555 1_555
Cu6_2 N9_3 1_555 1_555
Cu7_3 N11_3 1_555 1_555
C77_3 C78_3 1_555 1_555
C78_3 N9_3 1_555 1_555
C79_3 C80_3 1_555 1_555
C80_3 C81_3 1_555 1_555
C81_3 C82_3 1_555 1_555
C82_3 H91_3 1_555 1_555
C83_3 C82_3 1_555 1_555
H92_3 C83_3 1_555 1_555
C84_3 C79_3 1_555 1_555
H93_3 C84_3 1_555 1_555
C85_3 C81_3 1_555 1_555
H94_3 C85_3 1_555 1_555
H95_3 C85_3 1_555 1_555
C86_3 C79_3 1_555 1_555
H96_3 C86_3 1_555 1_555
H97_3 C86_3 1_555 1_555
C87_3 C86_3 1_555 1_555
H98_2 C87_3 1_555 1_555
H99_2 C87_3 1_555 1_555
H100_3 C87_3 1_555 1_555
C88_3 C85_3 1_555 1_555
H101_3 C88_3 1_555 1_555
H102_3 C88_3 1_555 1_555
H103_3 C88_3 1_555 1_555
C89_3 C90_3 1_555 1_555
C90_3 N15 1_555 1_555
C91_3 H104_3 1_555 1_555
H105_3 C91_3 1_555 1_555
C92_3 C93_3 1_555 1_555
C93_3 C94_3 1_555 1_555
C94_3 H106_3 1_555 1_555
C95_3 C94_3 1_555 1_555
H107_3 C95_3 1_555 1_555
C96_3 C95_3 1_555 1_555
H108_3 C96_3 1_555 1_555
C97_3 C91_3 1_555 1_555
C98_3 C91_3 1_555 1_555
H109_3 C98_3 1_555 1_555
H110_3 C98_3 1_555 1_555
H111_3 C98_3 1_555 1_555
C99_3 C93_3 1_555 1_555
H112_3 C99_3 1_555 1_555
H113_3 C99_3 1_555 1_555
C100_3 C99_3 1_555 1_555
H114_3 C100_3 1_555 1_555
H115_3 C100_3 1_555 1_555
H116_3 C100_3 1_555 1_555
C101_3 C102_3 1_555 1_555
C102_3 N11_3 1_555 1_555
C103_3 C104_3 1_555 1_555
C104_3 C105_3 1_555 1_555
C105_3 H117_3 1_555 1_555
C106_3 C105_3 1_555 1_555
H118_3 C106_3 1_555 1_555
C107_3 C106_3 1_555 1_555
H119_3 C107_3 1_555 1_555
C108_3 C103_3 1_555 1_555
C109_3 C108_3 1_555 1_555
H120_3 C109_3 1_555 1_555
H121_3 C109_3 1_555 1_555
C110_3 C104_3 1_555 1_555
H122_3 C110_3 1_555 1_555
H123_3 C110_3 1_555 1_555
C111_3 C109_3 1_555 1_555
H124_3 C111_3 1_555 1_555
H125_3 C111_3 1_555 1_555
H126_3 C111_3 1_555 1_555
C112_3 C110_3 1_555 1_555
H127_3 C112_3 1_555 1_555
H128_3 C112_3 1_555 1_555
H129_3 C112_3 1_555 1_555
C151_2 H172_2 1_555 1_555
H173_2 C151_2 1_555 1_555
H174_2 C151_2 1_555 1_555
C152_2 H175_2 1_555 1_555
H177_2 C152_2 1_555 1_555
N9_3 C80_3 1_555 1_555
N15 C92_3 1_555 1_555
N11_3 C103_3 1_555 1_555
O23_3 Cu6_2 1_555 1_555
O24_3 C77_3 1_555 1_555
O25_3 Mn3_3 1_555 1_555
O43 C89_3 1_555 1_555
O27_3 Mn3_3 1_555 1_555
O28_3 Mn3_3 1_555 1_555
O29_3 Mn3_3 1_555 1_555
O30_3 Mn3_3 1_555 1_555
O31_3 Cu7_3 1_555 1_555
O42_2 Cu6_2 1_555 1_555
S4_2 C151_2 1_555 1_555
N16_2 Cu6_2 1_555 1_555
O44_2 Cu6_2 1_555 1_555
C77_3 O23_3 1_555 1_555
C78_3 O25_3 1_555 1_555
C83_3 C84_3 1_555 1_555
C89_3 O27_3 1_555 1_555
C90_3 O28_3 1_555 1_555
C92_3 C97_3 1_555 1_555
C96_3 C97_3 1_555 1_555
C101_3 O30_3 1_555 1_555
C101_3 O31_3 1_555 1_555
C102_3 O29_3 1_555 1_555
C107_3 C108_3 1_555 1_555
C152_2 S4_2 1_555 1_555
O42_2 S4_2 1_555 1_555
Mn4_2 O33_2 1_555 1_555
Cu10 N14_2 1_555 1_555
C113_2 C114_2 1_555 1_555
C114_2 N12_2 1_555 1_555
C115_2 C116_2 1_555 1_555
C116_2 C117_2 1_555 1_555
C117_2 C118_2 1_555 1_555
C118_2 C119_2 1_555 1_555
C119_2 C120_2 1_555 1_555
C120_2 C115_2 1_555 1_555
C121_2 C116_2 1_555 1_555
H130_2 C121_2 1_555 1_555
H131_2 C121_2 1_555 1_555
C122_2 C120_2 1_555 1_555
H132_2 C122_2 1_555 1_555
H133_2 C122_2 1_555 1_555
C123_2 C122_2 1_555 1_555
H134_2 C123_2 1_555 1_555
H135_2 C123_2 1_555 1_555
H136_2 C123_2 1_555 1_555
C124_2 C121_2 1_555 1_555
H137_2 C124_2 1_555 1_555
H138_2 C124_2 1_555 1_555
H139_2 C124_2 1_555 1_555
C125_2 C126_2 1_555 1_555
C126_2 N13 1_555 1_555
C127_2 C128_2 1_555 1_555
C128_2 C129_2 1_555 1_555
C129_2 H140_2 1_555 1_555
C130_2 C129_2 1_555 1_555
H141_2 C130_2 1_555 1_555
C131_2 C130_2 1_555 1_555
H142_2 C131_2 1_555 1_555
C132_2 C127_2 1_555 1_555
C133_2 C132_2 1_555 1_555
H143_2 C133_2 1_555 1_555
H144_2 C133_2 1_555 1_555
C134_2 C128_2 1_555 1_555
H145_2 C134_2 1_555 1_555
H146_2 C134_2 1_555 1_555
C135_2 C134_2 1_555 1_555
H147_2 C135_2 1_555 1_555
H148_2 C135_2 1_555 1_555
H149_2 C135_2 1_555 1_555
C136_2 C133_2 1_555 1_555
H150_2 C136_2 1_555 1_555
H151_2 C136_2 1_555 1_555
H152_2 C136_2 1_555 1_555
C137_2 C138_2 1_555 1_555
C138_2 N14_2 1_555 1_555
C139_2 C140_2 1_555 1_555
C140_2 C141_2 1_555 1_555
C141_2 H153_2 1_555 1_555
C142_2 C141_2 1_555 1_555
H154_2 C142_2 1_555 1_555
C143_2 C142_2 1_555 1_555
H155_2 C143_2 1_555 1_555
C144_2 C139_2 1_555 1_555
C145_2 C140_2 1_555 1_555
H156_2 C145_2 1_555 1_555
H157_2 C145_2 1_555 1_555
C146_2 C144_2 1_555 1_555
H158_2 C146_2 1_555 1_555
H159_2 C146_2 1_555 1_555
C147_2 C145_2 1_555 1_555
H160_2 C147_2 1_555 1_555
H161_2 C147_2 1_555 1_555
H162_2 C147_2 1_555 1_555
C148_2 C146_2 1_555 1_555
H163_2 C148_2 1_555 1_555
H164_2 C148_2 1_555 1_555
H165_2 C148_2 1_555 1_555
C149_2 H166_2 1_555 1_555
C150_3 H169_3 1_555 1_555
H170_3 C150_3 1_555 1_555
H171_3 C150_3 1_555 1_555
N13 C127_2 1_555 1_555
N14_2 C139_2 1_555 1_555
O33_2 C113_2 1_555 1_555
O34_2 Mn4_2 1_555 1_555
O35_2 Mn4_2 1_555 1_555
O36_2 Mn4_2 1_555 1_555
O37 C125_2 1_555 1_555
O38_2 Mn4_2 1_555 1_555
O39_2 Mn4_2 1_555 1_555
O40_2 Cu10 1_555 1_555
O41_2 Cu10 1_555 1_555
S3_2 C149_2 1_555 1_555
Cu9 N13 1_555 1_555
C113_2 O32_2 1_555 1_555
C114_2 O34_2 1_555 1_555
C115_2 N12_2 1_555 1_555
C125_2 O36_2 1_555 1_555
C126_2 O35_2 1_555 1_555
C131_2 C132_2 1_555 1_555
C137_2 O39_2 1_555 1_555
C137_2 O40_2 1_555 1_555
C138_2 O38_2 1_555 1_555
C143_2 C144_2 1_555 1_555
C150_3 S3_2 1_555 1_555
O37 Cu9 1_555 1_555
O41_2 S3_2 1_555 1_555
C118_2 H250_2 1_555 1_555
C119_2 H251_2 1_555 1_555
C117_2 H252_2 1_555 1_555
Mn3_4 O24_4 1_555 1_555
Mn4_3 O33_3 1_555 1_555
Cu9 N9_4 1_555 1_555
Cu7_4 N11_4 1_555 1_555
Cu10_2 N14_3 1_555 1_555
C77_4 C78_4 1_555 1_555
C78_4 N9_4 1_555 1_555
C79_4 C80_4 1_555 1_555
C80_4 C81_4 1_555 1_555
C81_4 C82_4 1_555 1_555
C82_4 H91_4 1_555 1_555
C83_4 C82_4 1_555 1_555
H92_4 C83_4 1_555 1_555
C84_4 C79_4 1_555 1_555
H93_4 C84_4 1_555 1_555
C85_4 C81_4 1_555 1_555
H94_4 C85_4 1_555 1_555
H95_4 C85_4 1_555 1_555
C86_4 C79_4 1_555 1_555
H96_4 C86_4 1_555 1_555
H97_4 C86_4 1_555 1_555
C87_4 C86_4 1_555 1_555
H98_3 C87_4 1_555 1_555
H99_3 C87_4 1_555 1_555
H100_4 C87_4 1_555 1_555
C88_4 C85_4 1_555 1_555
H101_4 C88_4 1_555 1_555
H102_4 C88_4 1_555 1_555
H103_4 C88_4 1_555 1_555
C89_4 C90_4 1_555 1_555
C90_4 N15_2 1_555 1_555
C91_4 H104_4 1_555 1_555
H105_4 C91_4 1_555 1_555
C92_4 C93_4 1_555 1_555
C93_4 C94_4 1_555 1_555
C94_4 H106_4 1_555 1_555
C95_4 C94_4 1_555 1_555
H107_4 C95_4 1_555 1_555
C96_4 C95_4 1_555 1_555
H108_4 C96_4 1_555 1_555
C97_4 C91_4 1_555 1_555
C98_4 C91_4 1_555 1_555
H109_4 C98_4 1_555 1_555
H110_4 C98_4 1_555 1_555
H111_4 C98_4 1_555 1_555
C99_4 C93_4 1_555 1_555
H112_4 C99_4 1_555 1_555
H113_4 C99_4 1_555 1_555
C100_4 C99_4 1_555 1_555
H114_4 C100_4 1_555 1_555
H115_4 C100_4 1_555 1_555
H116_4 C100_4 1_555 1_555
C101_4 C102_4 1_555 1_555
C102_4 N11_4 1_555 1_555
C103_4 C104_4 1_555 1_555
C104_4 C105_4 1_555 1_555
C105_4 H117_4 1_555 1_555
C106_4 C105_4 1_555 1_555
H118_4 C106_4 1_555 1_555
C107_4 C106_4 1_555 1_555
H119_4 C107_4 1_555 1_555
C108_4 C103_4 1_555 1_555
C109_4 C108_4 1_555 1_555
H120_4 C109_4 1_555 1_555
H121_4 C109_4 1_555 1_555
C110_4 C104_4 1_555 1_555
H122_4 C110_4 1_555 1_555
H123_4 C110_4 1_555 1_555
C111_4 C109_4 1_555 1_555
H124_4 C111_4 1_555 1_555
H125_4 C111_4 1_555 1_555
H126_4 C111_4 1_555 1_555
C112_4 C110_4 1_555 1_555
H127_4 C112_4 1_555 1_555
H128_4 C112_4 1_555 1_555
H129_4 C112_4 1_555 1_555
C113_3 C114_3 1_555 1_555
C114_3 N12_3 1_555 1_555
C115_3 C116_3 1_555 1_555
C116_3 C117_3 1_555 1_555
C117_3 C118_3 1_555 1_555
C118_3 C119_3 1_555 1_555
C119_3 C120_3 1_555 1_555
C120_3 C115_3 1_555 1_555
C121_3 C116_3 1_555 1_555
H130_3 C121_3 1_555 1_555
H131_3 C121_3 1_555 1_555
C122_3 C120_3 1_555 1_555
H132_3 C122_3 1_555 1_555
H133_3 C122_3 1_555 1_555
C123_3 C122_3 1_555 1_555
H134_3 C123_3 1_555 1_555
H135_3 C123_3 1_555 1_555
H136_3 C123_3 1_555 1_555
C124_3 C121_3 1_555 1_555
H137_3 C124_3 1_555 1_555
H138_3 C124_3 1_555 1_555
H139_3 C124_3 1_555 1_555
C125_3 C126_3 1_555 1_555
C126_3 N16_2 1_555 1_555
C127_3 C128_3 1_555 1_555
C128_3 C129_3 1_555 1_555
C129_3 H140_3 1_555 1_555
C130_3 C129_3 1_555 1_555
H141_3 C130_3 1_555 1_555
C131_3 C130_3 1_555 1_555
H142_3 C131_3 1_555 1_555
C132_3 C127_3 1_555 1_555
C133_3 C132_3 1_555 1_555
H143_3 C133_3 1_555 1_555
H144_3 C133_3 1_555 1_555
C134_3 C128_3 1_555 1_555
H145_3 C134_3 1_555 1_555
H146_3 C134_3 1_555 1_555
C135_3 C134_3 1_555 1_555
H147_3 C135_3 1_555 1_555
H148_3 C135_3 1_555 1_555
H149_3 C135_3 1_555 1_555
C136_3 C133_3 1_555 1_555
H150_3 C136_3 1_555 1_555
H151_3 C136_3 1_555 1_555
H152_3 C136_3 1_555 1_555
C137_3 C138_3 1_555 1_555
C138_3 N14_3 1_555 1_555
C139_3 C140_3 1_555 1_555
C140_3 C141_3 1_555 1_555
C141_3 H153_3 1_555 1_555
C142_3 C141_3 1_555 1_555
H154_3 C142_3 1_555 1_555
C143_3 C142_3 1_555 1_555
H155_3 C143_3 1_555 1_555
C144_3 C139_3 1_555 1_555
C145_3 C140_3 1_555 1_555
H156_3 C145_3 1_555 1_555
H157_3 C145_3 1_555 1_555
C146_3 C144_3 1_555 1_555
H158_3 C146_3 1_555 1_555
H159_3 C146_3 1_555 1_555
C147_3 C145_3 1_555 1_555
H160_3 C147_3 1_555 1_555
H161_3 C147_3 1_555 1_555
H162_3 C147_3 1_555 1_555
C148_3 C146_3 1_555 1_555
H163_3 C148_3 1_555 1_555
H164_3 C148_3 1_555 1_555
H165_3 C148_3 1_555 1_555
C149_3 H166_3 1_555 1_555
H167_4 C149_3 1_555 1_555
H168_4 C149_3 1_555 1_555
C151_3 H172_3 1_555 1_555
H173_3 C151_3 1_555 1_555
H174_3 C151_3 1_555 1_555
C152_3 H175_3 1_555 1_555
H176_2 C152_3 1_555 1_555
H177_3 C152_3 1_555 1_555
N9_4 C80_4 1_555 1_555
N15_2 C92_4 1_555 1_555
N11_4 C103_4 1_555 1_555
N12_3 Cu7_4 1_555 1_555
N16_2 C127_3 1_555 1_555
N14_3 C139_3 1_555 1_555
O23_4 Cu9 1_555 1_555
O24_4 C77_4 1_555 1_555
O25_4 Mn3_4 1_555 1_555
O43_2 C89_4 1_555 1_555
O27_4 Mn3_4 1_555 1_555
O28_4 Mn3_4 1_555 1_555
O29_4 Mn3_4 1_555 1_555
O30_4 Mn3_4 1_555 1_555
O31_4 Cu7_4 1_555 1_555
O32_3 Cu7_4 1_555 1_555
O33_3 C113_3 1_555 1_555
O34_3 Mn4_3 1_555 1_555
O35_3 Mn4_3 1_555 1_555
O36_3 Mn4_3 1_555 1_555
O44_2 C125_3 1_555 1_555
O38_3 Mn4_3 1_555 1_555
O39_3 Mn4_3 1_555 1_555
O40_3 Cu10_2 1_555 1_555
O41_3 Cu10_2 1_555 1_555
O42_3 Cu9 1_555 1_555
S3_3 C149_3 1_555 1_555
S4_3 C151_3 1_555 1_555
C77_4 O23_4 1_555 1_555
C78_4 O25_4 1_555 1_555
C83_4 C84_4 1_555 1_555
C89_4 O27_4 1_555 1_555
C90_4 O28_4 1_555 1_555
C92_4 C97_4 1_555 1_555
C96_4 C97_4 1_555 1_555
C101_4 O30_4 1_555 1_555
C101_4 O31_4 1_555 1_555
C102_4 O29_4 1_555 1_555
C107_4 C108_4 1_555 1_555
C113_3 O32_3 1_555 1_555
C114_3 O34_3 1_555 1_555
C115_3 N12_3 1_555 1_555
C125_3 O36_3 1_555 1_555
C126_3 O35_3 1_555 1_555
C131_3 C132_3 1_555 1_555
C137_3 O39_3 1_555 1_555
C137_3 O40_3 1_555 1_555
C138_3 O38_3 1_555 1_555
C143_3 C144_3 1_555 1_555
C152_3 S4_3 1_555 1_555
O41_3 S3_3 1_555 1_555
O42_3 S4_3 1_555 1_555
C118_3 H250_3 1_555 1_555
C119_3 H251_3 1_555 1_555
C117_3 H252_3 1_555 1_555
C150_4 H169_4 1_555 1_555
H170_4 C150_4 1_555 1_555
H171_4 C150_4 1_555 1_555
Mn4_4 O33_4 1_555 1_555
Cu8_2 N14_4 1_555 1_555
C113_4 C114_4 1_555 1_555
C114_4 N12_4 1_555 1_555
C115_4 C116_4 1_555 1_555
C116_4 C117_4 1_555 1_555
C117_4 C118_4 1_555 1_555
C118_4 C119_4 1_555 1_555
C119_4 C120_4 1_555 1_555
C120_4 C115_4 1_555 1_555
C121_4 C116_4 1_555 1_555
H130_4 C121_4 1_555 1_555
H131_4 C121_4 1_555 1_555
C122_4 C120_4 1_555 1_555
H132_4 C122_4 1_555 1_555
H133_4 C122_4 1_555 1_555
C123_4 C122_4 1_555 1_555
H134_4 C123_4 1_555 1_555
H135_4 C123_4 1_555 1_555
H136_4 C123_4 1_555 1_555
C124_4 C121_4 1_555 1_555
H137_4 C124_4 1_555 1_555
H138_4 C124_4 1_555 1_555
H139_4 C124_4 1_555 1_555
C125_4 C126_4 1_555 1_555
C126_4 N13_2 1_555 1_555
C127_4 C128_4 1_555 1_555
C128_4 C129_4 1_555 1_555
C129_4 H140_4 1_555 1_555
C130_4 C129_4 1_555 1_555
H141_4 C130_4 1_555 1_555
C131_4 C130_4 1_555 1_555
H142_4 C131_4 1_555 1_555
C132_4 C127_4 1_555 1_555
C133_4 C132_4 1_555 1_555
H143_4 C133_4 1_555 1_555
H144_4 C133_4 1_555 1_555
C134_4 C128_4 1_555 1_555
H145_4 C134_4 1_555 1_555
H146_4 C134_4 1_555 1_555
C135_4 C134_4 1_555 1_555
H147_4 C135_4 1_555 1_555
H148_4 C135_4 1_555 1_555
H149_4 C135_4 1_555 1_555
C136_4 C133_4 1_555 1_555
H150_4 C136_4 1_555 1_555
H151_4 C136_4 1_555 1_555
H152_4 C136_4 1_555 1_555
C137_4 C138_4 1_555 1_555
C138_4 N14_4 1_555 1_555
C139_4 C140_4 1_555 1_555
C140_4 C141_4 1_555 1_555
C141_4 H153_4 1_555 1_555
C142_4 C141_4 1_555 1_555
H154_4 C142_4 1_555 1_555
C143_4 C142_4 1_555 1_555
H155_4 C143_4 1_555 1_555
C144_4 C139_4 1_555 1_555
C145_4 C140_4 1_555 1_555
H156_4 C145_4 1_555 1_555
H157_4 C145_4 1_555 1_555
C146_4 C144_4 1_555 1_555
H158_4 C146_4 1_555 1_555
H159_4 C146_4 1_555 1_555
C147_4 C145_4 1_555 1_555
H160_4 C147_4 1_555 1_555
H161_4 C147_4 1_555 1_555
H162_4 C147_4 1_555 1_555
C148_4 C146_4 1_555 1_555
H163_4 C148_4 1_555 1_555
H164_4 C148_4 1_555 1_555
H165_4 C148_4 1_555 1_555
C149_4 H166_4 1_555 1_555
N13_2 C127_4 1_555 1_555
N14_4 C139_4 1_555 1_555
O33_4 C113_4 1_555 1_555
O34_4 Mn4_4 1_555 1_555
O35_4 Mn4_4 1_555 1_555
O36_4 Mn4_4 1_555 1_555
O37_2 C125_4 1_555 1_555
O38_4 Mn4_4 1_555 1_555
O39_4 Mn4_4 1_555 1_555
O40_4 Cu8_2 1_555 1_555
O41_4 Cu8_2 1_555 1_555
S3_4 C149_4 1_555 1_555
Cu9_2 N13_2 1_555 1_555
C113_4 O32_4 1_555 1_555
C114_4 O34_4 1_555 1_555
C115_4 N12_4 1_555 1_555
C125_4 O36_4 1_555 1_555
C126_4 O35_4 1_555 1_555
C131_4 C132_4 1_555 1_555
C137_4 O39_4 1_555 1_555
C137_4 O40_4 1_555 1_555
C138_4 O38_4 1_555 1_555
C143_4 C144_4 1_555 1_555
O37_2 Cu9_2 1_555 1_555
O41_4 S3_4 1_555 1_555
C118_4 H250_4 1_555 1_555
C119_4 H251_4 1_555 1_555
C117_4 H252_4 1_555 1_555
C151_4 H172_4 1_555 1_555
H173_4 C151_4 1_555 1_555
H174_4 C151_4 1_555 1_555
C152_4 H175_4 1_555 1_555
H177_4 C152_4 1_555 1_555
O42_4 Cu9_2 1_555 1_555
S4_4 C151_4 1_555 1_555
C152_4 S4_4 1_555 1_555
O42_4 S4_4 1_555 1_555
C153 H178 1_555 1_555
H179 C153 1_555 1_555
H180 C153 1_555 1_555
C154 H181 1_555 1_555
H182 C154 1_555 1_555
H183 C154 1_555 1_555
C155 H184 1_555 1_555
H185 C155 1_555 1_555
H186 C155 1_555 1_555
C156 H187 1_555 1_555
C157 C156 1_555 1_555
H188 C157 1_555 1_555
H189 C157 1_555 1_555
H190 C157 1_555 1_555
C158 C156 1_555 1_555
C159 C158 1_555 1_555
H191 C159 1_555 1_555
C160 C159 1_555 1_555
H192 C160 1_555 1_555
C161 C160 1_555 1_555
H193 C161 1_555 1_555
C162 C161 1_555 1_555
H194 C162 1_555 1_555
C163 C158 1_555 1_555
H195 C163 1_555 1_555
N17 C153 1_555 1_555
C154 N17 1_555 1_555
C155 N17 1_555 1_555
C156 N17 1_555 1_555
C162 C163 1_555 1_555
C153_2 H178_2 1_555 1_555
H179_2 C153_2 1_555 1_555
H180_2 C153_2 1_555 1_555
C154_2 H181_2 1_555 1_555
H182_2 C154_2 1_555 1_555
H183_2 C154_2 1_555 1_555
C155_2 H184_2 1_555 1_555
H185_2 C155_2 1_555 1_555
H186_2 C155_2 1_555 1_555
C156_2 H187_2 1_555 1_555
C157_2 C156_2 1_555 1_555
H189_2 C157_2 1_555 1_555
H190_2 C157_2 1_555 1_555
C158_2 C156_2 1_555 1_555
C159_2 C158_2 1_555 1_555
H191_2 C159_2 1_555 1_555
C160_2 C159_2 1_555 1_555
H192_2 C160_2 1_555 1_555
C161_2 C160_2 1_555 1_555
H193_2 C161_2 1_555 1_555
C162_2 C161_2 1_555 1_555
H194_2 C162_2 1_555 1_555
C163_2 C158_2 1_555 1_555
H195_2 C163_2 1_555 1_555
N17_2 C153_2 1_555 1_555
C154_2 N17_2 1_555 1_555
C155_2 N17_2 1_555 1_555
C156_2 N17_2 1_555 1_555
C162_2 C163_2 1_555 1_555
C153_3 H178_3 1_555 1_555
H179_3 C153_3 1_555 1_555
H180_3 C153_3 1_555 1_555
C154_3 H181_3 1_555 1_555
H182_3 C154_3 1_555 1_555
H183_3 C154_3 1_555 1_555
C155_3 H184_3 1_555 1_555
H185_3 C155_3 1_555 1_555
H186_3 C155_3 1_555 1_555
C156_3 H187_3 1_555 1_555
C157_3 C156_3 1_555 1_555
H189_3 C157_3 1_555 1_555
H190_3 C157_3 1_555 1_555
C158_3 C156_3 1_555 1_555
C159_3 C158_3 1_555 1_555
H191_3 C159_3 1_555 1_555
C160_3 C159_3 1_555 1_555
H192_3 C160_3 1_555 1_555
C161_3 C160_3 1_555 1_555
H193_3 C161_3 1_555 1_555
C162_3 C161_3 1_555 1_555
H194_3 C162_3 1_555 1_555
C163_3 C158_3 1_555 1_555
H195_3 C163_3 1_555 1_555
N17_3 C153_3 1_555 1_555
C154_3 N17_3 1_555 1_555
C155_3 N17_3 1_555 1_555
C156_3 N17_3 1_555 1_555
C162_3 C163_3 1_555 1_555
C153_4 H178_4 1_555 1_555
H179_4 C153_4 1_555 1_555
H180_4 C153_4 1_555 1_555
C154_4 H181_4 1_555 1_555
H182_4 C154_4 1_555 1_555
H183_4 C154_4 1_555 1_555
C155_4 H184_4 1_555 1_555
H185_4 C155_4 1_555 1_555
H186_4 C155_4 1_555 1_555
C156_4 H187_4 1_555 1_555
C157_4 C156_4 1_555 1_555
H188_4 C157_4 1_555 1_555
H189_4 C157_4 1_555 1_555
H190_4 C157_4 1_555 1_555
C158_4 C156_4 1_555 1_555
C159_4 C158_4 1_555 1_555
H191_4 C159_4 1_555 1_555
C160_4 C159_4 1_555 1_555
H192_4 C160_4 1_555 1_555
C161_4 C160_4 1_555 1_555
H193_4 C161_4 1_555 1_555
C162_4 C161_4 1_555 1_555
H194_4 C162_4 1_555 1_555
C163_4 C158_4 1_555 1_555
H195_4 C163_4 1_555 1_555
N17_4 C153_4 1_555 1_555
C154_4 N17_4 1_555 1_555
C155_4 N17_4 1_555 1_555
C156_4 N17_4 1_555 1_555
C162_4 C163_4 1_555 1_555
C164 H196 1_555 1_555
H197 C164 1_555 1_555
H198 C164 1_555 1_555
C165 H199 1_555 1_555
H200 C165 1_555 1_555
H201 C165 1_555 1_555
C166 H202 1_555 1_555
H203 C166 1_555 1_555
H204 C166 1_555 1_555
C167 H205 1_555 1_555
C168 C167 1_555 1_555
C169 C168 1_555 1_555
H206 C169 1_555 1_555
C170 C169 1_555 1_555
H207 C170 1_555 1_555
C171 C170 1_555 1_555
H208 C171 1_555 1_555
C172 C171 1_555 1_555
H209 C172 1_555 1_555
C173 C168 1_555 1_555
H210 C173 1_555 1_555
C174 C167 1_555 1_555
H211 C174 1_555 1_555
H212 C174 1_555 1_555
H213 C174 1_555 1_555
N18 C164 1_555 1_555
C165 N18 1_555 1_555
C166 N18 1_555 1_555
C167 N18 1_555 1_555
C172 C173 1_555 1_555
C164_2 H196_2 1_555 1_555
H197_2 C164_2 1_555 1_555
H198_2 C164_2 1_555 1_555
C165_2 H199_2 1_555 1_555
H200_2 C165_2 1_555 1_555
H201_2 C165_2 1_555 1_555
C166_2 H202_2 1_555 1_555
H203_2 C166_2 1_555 1_555
H204_2 C166_2 1_555 1_555
C167_2 H205_2 1_555 1_555
C168_2 C167_2 1_555 1_555
C169_2 C168_2 1_555 1_555
H206_2 C169_2 1_555 1_555
C170_2 C169_2 1_555 1_555
H207_2 C170_2 1_555 1_555
C171_2 C170_2 1_555 1_555
H208_2 C171_2 1_555 1_555
C172_2 C171_2 1_555 1_555
H209_2 C172_2 1_555 1_555
C173_2 C168_2 1_555 1_555
H210_2 C173_2 1_555 1_555
C174_2 C167_2 1_555 1_555
H211_2 C174_2 1_555 1_555
H212_2 C174_2 1_555 1_555
H213_2 C174_2 1_555 1_555
N18_2 C164_2 1_555 1_555
C165_2 N18_2 1_555 1_555
C166_2 N18_2 1_555 1_555
C167_2 N18_2 1_555 1_555
C172_2 C173_2 1_555 1_555
C164_3 H196_3 1_555 1_555
H197_3 C164_3 1_555 1_555
H198_3 C164_3 1_555 1_555
C165_3 H199_3 1_555 1_555
H200_3 C165_3 1_555 1_555
H201_3 C165_3 1_555 1_555
C166_3 H202_3 1_555 1_555
H203_3 C166_3 1_555 1_555
H204_3 C166_3 1_555 1_555
C167_3 H205_3 1_555 1_555
C168_3 C167_3 1_555 1_555
C169_3 C168_3 1_555 1_555
H206_3 C169_3 1_555 1_555
C170_3 C169_3 1_555 1_555
H207_3 C170_3 1_555 1_555
C171_3 C170_3 1_555 1_555
H208_3 C171_3 1_555 1_555
C172_3 C171_3 1_555 1_555
H209_3 C172_3 1_555 1_555
C173_3 C168_3 1_555 1_555
H210_3 C173_3 1_555 1_555
C174_3 C167_3 1_555 1_555
H211_3 C174_3 1_555 1_555
H212_3 C174_3 1_555 1_555
H213_3 C174_3 1_555 1_555
N18_3 C164_3 1_555 1_555
C165_3 N18_3 1_555 1_555
C166_3 N18_3 1_555 1_555
C167_3 N18_3 1_555 1_555
C172_3 C173_3 1_555 1_555
C164_4 H196_4 1_555 1_555
H197_4 C164_4 1_555 1_555
H198_4 C164_4 1_555 1_555
C165_4 H199_4 1_555 1_555
H200_4 C165_4 1_555 1_555
H201_4 C165_4 1_555 1_555
C166_4 H202_4 1_555 1_555
H203_4 C166_4 1_555 1_555
H204_4 C166_4 1_555 1_555
C167_4 H205_4 1_555 1_555
C168_4 C167_4 1_555 1_555
C169_4 C168_4 1_555 1_555
H206_4 C169_4 1_555 1_555
C170_4 C169_4 1_555 1_555
H207_4 C170_4 1_555 1_555
C171_4 C170_4 1_555 1_555
H208_4 C171_4 1_555 1_555
C172_4 C171_4 1_555 1_555
H209_4 C172_4 1_555 1_555
C173_4 C168_4 1_555 1_555
H210_4 C173_4 1_555 1_555
C174_4 C167_4 1_555 1_555
H211_4 C174_4 1_555 1_555
H212_4 C174_4 1_555 1_555
H213_4 C174_4 1_555 1_555
N18_4 C164_4 1_555 1_555
C165_4 N18_4 1_555 1_555
C166_4 N18_4 1_555 1_555
C167_4 N18_4 1_555 1_555
C172_4 C173_4 1_555 1_555
C182 C181 1_555 1_555
H226 C182 1_555 1_555
C183 C182 1_555 1_555
H227 C183 1_555 1_555
C184 C179 1_555 1_555
H228 C184 1_555 1_555
H230 C185 1_555 1_555
H231 C185 1_555 1_555
C183 C184 1_555 1_555
N19 C175 1_555 1_555
C175 H214 1_555 1_555
H215 C175 1_555 1_555
H216 C175 1_555 1_555
C176 N19 1_555 1_555
H219 C176 1_555 1_555
C177 N19 1_555 1_555
H220 C177 1_555 1_555
H221 C177 1_555 1_555
H222 C177 1_555 1_555
C178 N19 1_555 1_555
H223 C178 1_555 1_555
H224 C180 1_555 1_555
H220_2 C177_2 1_555 1_555
H221_2 C177_2 1_555 1_555
H222_2 C177_2 1_555 1_555
H224_2 C180_2 1_555 1_555
C182_2 C181_2 1_555 1_555
H226_2 C182_2 1_555 1_555
C183_2 C182_2 1_555 1_555
H227_2 C183_2 1_555 1_555
C183_2 C184_2 1_555 1_555
N19_2 C175_2 1_555 1_555
C175_2 H214_2 1_555 1_555
H215_2 C175_2 1_555 1_555
H216_2 C175_2 1_555 1_555
C176_2 N19_2 1_555 1_555
C178_2 N19_2 1_555 1_555
H223_2 C178_2 1_555 1_555
H230_2 C185_2 1_555 1_555
H231_2 C185_2 1_555 1_555
N19_3 C175_3 1_555 1_555
C175_3 H214_3 1_555 1_555
H215_3 C175_3 1_555 1_555
H216_3 C175_3 1_555 1_555
C176_3 N19_3 1_555 1_555
H218_3 C176_3 1_555 1_555
C178_3 N19_3 1_555 1_555
H223_3 C178_3 1_555 1_555
C179_3 C178_3 1_555 1_555
C185_3 C178_3 1_555 1_555
H229_3 C185_3 1_555 1_555
H230_3 C185_3 1_555 1_555
H231_3 C185_3 1_555 1_555
H220_3 C177_3 1_555 1_555
H221_3 C177_3 1_555 1_555
H222_3 C177_3 1_555 1_555
H224_3 C180_3 1_555 1_555
C181_3 C180_3 1_555 1_555
H225_3 C181_3 1_555 1_555
C182_3 C181_3 1_555 1_555
H226_3 C182_3 1_555 1_555
C183_3 C182_3 1_555 1_555
H227_3 C183_3 1_555 1_555
C183_3 C184_3 1_555 1_555
N19_4 C175_4 1_555 1_555
C175_4 H214_4 1_555 1_555
H215_4 C175_4 1_555 1_555
H216_4 C175_4 1_555 1_555
C176_4 N19_4 1_555 1_555
H217_4 C176_4 1_555 1_555
H218_4 C176_4 1_555 1_555
H219_4 C176_4 1_555 1_555
C177_4 N19_4 1_555 1_555
H220_4 C177_4 1_555 1_555
H221_4 C177_4 1_555 1_555
H222_4 C177_4 1_555 1_555
C178_4 N19_4 1_555 1_555
H223_4 C178_4 1_555 1_555
C179_4 C178_4 1_555 1_555
C180_4 C179_4 1_555 1_555
H224_4 C180_4 1_555 1_555
C181_4 C180_4 1_555 1_555
H225_4 C181_4 1_555 1_555
C182_4 C181_4 1_555 1_555
H226_4 C182_4 1_555 1_555
C183_4 C182_4 1_555 1_555
H227_4 C183_4 1_555 1_555
C184_4 C179_4 1_555 1_555
H228_4 C184_4 1_555 1_555
C185_4 C178_4 1_555 1_555
H229_4 C185_4 1_555 1_555
H230_4 C185_4 1_555 1_555
H231_4 C185_4 1_555 1_555
C183_4 C184_4 1_555 1_555
C186 H232 1_555 1_555
H233 C186 1_555 1_555
H234 C186 1_555 1_555
H239 C192 1_555 1_555
H240 C193 1_555 1_555
H247 C196 1_555 1_555
H248 C196 1_555 1_555
H249 C196 1_555 1_555
N20 C186 1_555 1_555
C192 C193 1_555 1_555
C187 H235 1_555 1_555
C188 C187 1_555 1_555
C189 C188 1_555 1_555
H236 C189 1_555 1_555
C190 C189 1_555 1_555
H237 C190 1_555 1_555
C191 C190 1_555 1_555
H238 C191 1_555 1_555
C194 H241 1_555 1_555
C195 H244 1_555 1_555
H245 C195 1_555 1_555
H246 C195 1_555 1_555
C187_2 H235_2 1_555 1_555
C188_2 C187_2 1_555 1_555
C194_2 H241_2 1_555 1_555
C195_2 H244_2 1_555 1_555
H246_2 C195_2 1_555 1_555
H236_2 C189_2 1_555 1_555
C190_2 C189_2 1_555 1_555
H237_2 C190_2 1_555 1_555
C191_2 C190_2 1_555 1_555
H238_2 C191_2 1_555 1_555
C186_2 H232_2 1_555 1_555
H233_2 C186_2 1_555 1_555
H234_2 C186_2 1_555 1_555
H247_2 C196_2 1_555 1_555
H248_2 C196_2 1_555 1_555
H249_2 C196_2 1_555 1_555
N20_2 C186_2 1_555 1_555
H239_2 C192_2 1_555 1_555
C192_2 C193_2 1_555 1_555
C186_3 H232_3 1_555 1_555
H233_3 C186_3 1_555 1_555
H234_3 C186_3 1_555 1_555
C187_3 H235_3 1_555 1_555
C188_3 C187_3 1_555 1_555
C189_3 C188_3 1_555 1_555
H236_3 C189_3 1_555 1_555
C190_3 C189_3 1_555 1_555
H237_3 C190_3 1_555 1_555
C191_3 C190_3 1_555 1_555
H238_3 C191_3 1_555 1_555
C192_3 C191_3 1_555 1_555
H239_3 C192_3 1_555 1_555
C193_3 C188_3 1_555 1_555
H240_3 C193_3 1_555 1_555
C194_3 H241_3 1_555 1_555
H242_3 C194_3 1_555 1_555
H243_3 C194_3 1_555 1_555
C195_3 H244_3 1_555 1_555
H245_3 C195_3 1_555 1_555
H246_3 C195_3 1_555 1_555
C196_3 C187_3 1_555 1_555
H247_3 C196_3 1_555 1_555
H248_3 C196_3 1_555 1_555
H249_3 C196_3 1_555 1_555
N20_3 C186_3 1_555 1_555
C187_3 N20_3 1_555 1_555
C192_3 C193_3 1_555 1_555
C194_3 N20_3 1_555 1_555
C195_3 N20_3 1_555 1_555
H236_4 C189_4 1_555 1_555
C190_4 C189_4 1_555 1_555
H237_4 C190_4 1_555 1_555
C191_4 C190_4 1_555 1_555
H238_4 C191_4 1_555 1_555
C192_4 C191_4 1_555 1_555
H239_4 C192_4 1_555 1_555
C192_4 C193_4 1_555 1_555
C186_4 H232_4 1_555 1_555
H233_4 C186_4 1_555 1_555
H234_4 C186_4 1_555 1_555
C187_4 H235_4 1_555 1_555
C188_4 C187_4 1_555 1_555
C194_4 H241_4 1_555 1_555
H242_4 C194_4 1_555 1_555
H243_4 C194_4 1_555 1_555
C195_4 H244_4 1_555 1_555
H246_4 C195_4 1_555 1_555
C196_4 C187_4 1_555 1_555
H247_4 C196_4 1_555 1_555
H248_4 C196_4 1_555 1_555
H249_4 C196_4 1_555 1_555
N20_4 C186_4 1_555 1_555
C187_4 N20_4 1_555 1_555
C194_4 N20_4 1_555 1_555
C195_4 N20_4 1_555 1_555

#END
