
###############################################################################
#
# This file contains modified crystal structure data generated from the
# MOF subset of the Cambridge Structural Database (CSD) v543 
# hosted by the Cambridge Crystallographic Data Centre (CCDC).
#
# This work is licensed under the Creative Commons
# Attribution-NonCommercial-ShareAlike 4.0 International License.
# To view a copy of this license, visit
# http://creativecommons.org/licenses/by-nc-sa/4.0/
# or send a letter to
# Creative Commons, PO Box 1866, Mountain View, CA 94042, USA.
#
# CIF created using the CSD Python API on 29 September 2022
# The structure has been converted into the P1 space group
# The structure has a 3D framework
# The original CSD entry QUSJIA is in the monoclinic crystal system
# The original CSD entry QUSJIA is in a Sohncke space group
# The framework has been calculated to contain at least 10.0% void space
# The void calculation uses a probe of radius 1.32A, grid spacing 0.4
# The framework is charged, counterions have been retained in the structure
#
###############################################################################

data_QUSJIA
_chemical_formula_moiety         '(C424 H384 Cl48 F48 N104 O56 S16 Zn24 8-)n'
_symmetry_cell_setting           triclinic
_symmetry_space_group_name_H-M   'P 1'
_symmetry_Int_Tables_number      1
_space_group_name_Hall           'P 1'
loop_
_symmetry_equiv_pos_site_id
_symmetry_equiv_pos_as_xyz
1 x,y,z
_cell_length_a                   32.62130(11)
_cell_length_b                   14.43883(4)
_cell_length_c                   31.51628(11)
_cell_angle_alpha                90
_cell_angle_beta                 101.4006(3)
_cell_angle_gamma                90
_cell_volume                     14551.7
loop_
_atom_site_label
_atom_site_type_symbol
_atom_site_fract_x
_atom_site_fract_y
_atom_site_fract_z
S1 S 0.06145(11) 0.8808(3) 0.93156(9)
O1 O 0.0656(5) 0.9442(10) 0.9674(4)
O2 O 0.0279(3) 0.9072(7) 0.8957(2)
O3 O 0.0990(3) 0.8493(10) 0.9201(3)
C1 C 0.0434(5) 0.7696(11) 0.9489(4)
F1 F 0.0036(4) 0.7717(10) 0.9533(4)
F2 F 0.0438(5) 0.7035(9) 0.9189(4)
F3 F 0.0656(3) 0.7421(8) 0.9854(3)
S1_2 S 0.93855(11) 0.8808(3) 0.06844(9)
O1_2 O 0.9344(5) 0.9442(10) 0.0326(4)
O2_2 O 0.9721(3) 0.9072(7) 0.1043(2)
O3_2 O 0.9010(3) 0.8493(10) 0.0799(3)
C1_2 C 0.9566(5) 0.7696(11) 0.0511(4)
F1_2 F 0.9964(4) 0.7717(10) 0.0467(4)
F2_2 F 0.9562(5) 0.7035(9) 0.0811(4)
F3_2 F 0.9344(3) 0.7421(8) 0.0146(3)
S1_3 S 0.56145(11) 0.3808(3) 0.93156(9)
O1_3 O 0.5656(5) 0.4442(10) 0.9674(4)
O2_3 O 0.5279(3) 0.4072(7) 0.8957(2)
O3_3 O 0.5990(3) 0.3493(10) 0.9201(3)
C1_3 C 0.5434(5) 0.2696(11) 0.9489(4)
F1_3 F 0.5036(4) 0.2717(10) 0.9533(4)
F2_3 F 0.5438(5) 0.2035(9) 0.9189(4)
F3_3 F 0.5656(3) 0.2421(8) 0.9854(3)
S1_4 S 0.43855(11) 0.3808(3) 0.06844(9)
O1_4 O 0.4344(5) 0.4442(10) 0.0326(4)
O2_4 O 0.4721(3) 0.4072(7) 0.1043(2)
O3_4 O 0.4010(3) 0.3493(10) 0.0799(3)
C1_4 C 0.4566(5) 0.2696(11) 0.0511(4)
F1_4 F 0.4964(4) 0.2717(10) 0.0467(4)
F2_4 F 0.4562(5) 0.2035(9) 0.0811(4)
F3_4 F 0.4344(3) 0.2421(8) 0.0146(3)
C13 C 0.0763(5) 0.3427(11) 0.0239(4)
H19 H 0.072538 0.406681 0.028926
C14 C 0.1031(4) 0.2925(10) 0.0529(4)
H20 H 0.115597 0.319920 0.079774
C15 C 0.1131(4) 0.2014(9) 0.0445(3)
H21 H 0.134161 0.168966 0.064002
C16 C 0.0912(3) 0.1576(9) 0.0063(3)
H22 H 0.096681 0.094382 0.001053
H14 H 0.003107 0.071568 0.961318
C10 C 0.0396(4) 0.1638(10) 0.9354(3)
H16 H 0.058400 0.117231 0.926335
H17 H 0.034241 0.212089 0.912692
C11 C 0.0615(4) 0.2069(9) 0.9759(3)
C12 C 0.0540(5) 0.3011(10) 0.9863(4)
H18 H 0.033509 0.335971 0.967343
C2 C 0.9305(4) 0.0015(9) 0.8398(3)
C3 C 0.9389(3) 0.0356(9) 0.8870(3)
H2 H 0.919986 0.089529 0.888578
O4 O 0.9362(3) 0.0767(8) 0.8134(2)
H13 H 0.948369 0.119780 0.828820
N1 N 0.9828(3) 0.0708(7) 0.8957(3)
C9 C 0.9989(3) 0.1175(9) 0.9375(3)
H15 H 0.978421 0.164135 0.943329
H23 H 0.9985(9) 0.025(3) 0.8934(16)
H24 H 0.9838(14) 0.111(3) 0.8760(9)
H1 H 0.952808 0.955346 0.837570
C4 C 0.9320(4) 0.9659(10) 0.9211(4)
H3 H 0.943794 0.991152 0.950180
H4 H 0.947422 0.908236 0.917458
C5 C 0.8859(4) 0.9426(11) 0.9186(4)
H5 H 0.869460 0.999872 0.910861
H6 H 0.882281 0.924038 0.947887
C6 C 0.8671(5) 0.8660(11) 0.8865(4)
H7 H 0.871352 0.805655 0.901708
H8 H 0.836549 0.876373 0.878217
C7 C 0.8849(5) 0.8593(11) 0.8452(4)
H9 H 0.866503 0.818742 0.824294
H10 H 0.912784 0.829806 0.852260
C8 C 0.8890(4) 0.9540(10) 0.8235(4)
H11 H 0.885476 0.944746 0.791830
H12 H 0.866203 0.995141 0.828606
C2_2 C 0.0695(4) 0.0015(9) 0.1602(3)
C3_2 C 0.0611(3) 0.0356(9) 0.1130(3)
H2_2 H 0.080014 0.089529 0.111422
O4_2 O 0.0638(3) 0.0767(8) 0.1866(2)
H13_2 H 0.051631 0.119780 0.171180
N1_2 N 0.0172(3) 0.0708(7) 0.1043(3)
C9_2 C 0.0011(3) 0.1175(9) 0.0625(3)
H15_2 H 0.021579 0.164135 0.056671
H23_2 H 0.0015(9) 0.025(3) 0.1066(16)
H24_2 H 0.0162(14) 0.111(3) 0.1240(9)
H1_2 H 0.047192 0.955346 0.162430
C4_2 C 0.0680(4) 0.9659(10) 0.0789(4)
H3_2 H 0.056206 0.991152 0.049820
H4_2 H 0.052578 0.908236 0.082542
C5_2 C 0.1141(4) 0.9426(11) 0.0814(4)
H5_2 H 0.130540 0.999872 0.089139
H6_2 H 0.117719 0.924038 0.052113
C6_2 C 0.1329(5) 0.8660(11) 0.1135(4)
H7_2 H 0.128648 0.805655 0.098292
H8_2 H 0.163451 0.876373 0.121783
C7_2 C 0.1151(5) 0.8593(11) 0.1548(4)
H9_2 H 0.133497 0.818742 0.175706
H10_2 H 0.087216 0.829806 0.147740
C8_2 C 0.1110(4) 0.9540(10) 0.1765(4)
H11_2 H 0.114524 0.944746 0.208170
H12_2 H 0.133797 0.995141 0.171394
H14_2 H 0.996893 0.071568 0.038682
C10_2 C 0.9604(4) 0.1638(10) 0.0646(3)
H16_2 H 0.941600 0.117231 0.073665
H17_2 H 0.965759 0.212089 0.087308
C11_2 C 0.9385(4) 0.2069(9) 0.0241(3)
C12_2 C 0.9460(5) 0.3011(10) 0.0137(4)
H18_2 H 0.966491 0.335971 0.032657
C13_2 C 0.9237(5) 0.3427(11) 0.9761(4)
H19_2 H 0.927462 0.406681 0.971074
C14_2 C 0.8969(4) 0.2925(10) 0.9471(4)
H20_2 H 0.884403 0.319920 0.920226
C15_2 C 0.8869(4) 0.2014(9) 0.9555(3)
H21_2 H 0.865839 0.168966 0.935998
C16_2 C 0.9088(3) 0.1576(9) 0.9937(3)
H22_2 H 0.903319 0.094382 0.998947
C13_3 C 0.5763(5) 0.8427(11) 0.0239(4)
H19_3 H 0.572538 0.906681 0.028926
C14_3 C 0.6031(4) 0.7925(10) 0.0529(4)
H20_3 H 0.615597 0.819920 0.079774
C15_3 C 0.6131(4) 0.7014(9) 0.0445(3)
H21_3 H 0.634161 0.668966 0.064002
C16_3 C 0.5912(3) 0.6576(9) 0.0063(3)
H22_3 H 0.596681 0.594382 0.001053
C2_3 C 0.4305(4) 0.5015(9) 0.8398(3)
H1_3 H 0.452808 0.455346 0.837570
C3_3 C 0.4389(3) 0.5356(9) 0.8870(3)
H2_3 H 0.419986 0.589529 0.888578
C4_3 C 0.4320(4) 0.4659(10) 0.9211(4)
H3_3 H 0.443794 0.491152 0.950180
H4_3 H 0.447422 0.408236 0.917458
C5_3 C 0.3859(4) 0.4426(11) 0.9186(4)
H5_3 H 0.369460 0.499872 0.910861
H6_3 H 0.382281 0.424038 0.947887
C6_3 C 0.3671(5) 0.3660(11) 0.8865(4)
H7_3 H 0.371352 0.305655 0.901708
H8_3 H 0.336549 0.376373 0.878217
C7_3 C 0.3849(5) 0.3593(11) 0.8452(4)
H9_3 H 0.366503 0.318742 0.824294
H10_3 H 0.412784 0.329806 0.852260
C8_3 C 0.3890(4) 0.4540(10) 0.8235(4)
H11_3 H 0.385476 0.444746 0.791830
H12_3 H 0.366203 0.495141 0.828606
O4_3 O 0.4362(3) 0.5767(8) 0.8134(2)
H13_3 H 0.448369 0.619780 0.828820
N1_3 N 0.4828(3) 0.5708(7) 0.8957(3)
C9_3 C 0.4989(3) 0.6175(9) 0.9375(3)
H14_3 H 0.503107 0.571568 0.961318
H15_3 H 0.478421 0.664135 0.943329
C10_3 C 0.5396(4) 0.6638(10) 0.9354(3)
H16_3 H 0.558400 0.617231 0.926335
H17_3 H 0.534241 0.712089 0.912692
C11_3 C 0.5615(4) 0.7069(9) 0.9759(3)
C12_3 C 0.5540(5) 0.8011(10) 0.9863(4)
H18_3 H 0.533509 0.835971 0.967343
H23_3 H 0.4985(9) 0.525(3) 0.8934(16)
H24_3 H 0.4838(14) 0.611(3) 0.8760(9)
C2_4 C 0.5695(4) 0.5015(9) 0.1602(3)
H1_4 H 0.547192 0.455346 0.162430
C3_4 C 0.5611(3) 0.5356(9) 0.1130(3)
H2_4 H 0.580014 0.589529 0.111422
C4_4 C 0.5680(4) 0.4659(10) 0.0789(4)
H3_4 H 0.556206 0.491152 0.049820
H4_4 H 0.552578 0.408236 0.082542
C5_4 C 0.6141(4) 0.4426(11) 0.0814(4)
H5_4 H 0.630540 0.499872 0.089139
H6_4 H 0.617719 0.424038 0.052113
C6_4 C 0.6329(5) 0.3660(11) 0.1135(4)
H7_4 H 0.628648 0.305655 0.098292
H8_4 H 0.663451 0.376373 0.121783
C7_4 C 0.6151(5) 0.3593(11) 0.1548(4)
H9_4 H 0.633497 0.318742 0.175706
H10_4 H 0.587216 0.329806 0.147740
C8_4 C 0.6110(4) 0.4540(10) 0.1765(4)
H11_4 H 0.614524 0.444746 0.208170
H12_4 H 0.633797 0.495141 0.171394
O4_4 O 0.5638(3) 0.5767(8) 0.1866(2)
H13_4 H 0.551631 0.619780 0.171180
N1_4 N 0.5172(3) 0.5708(7) 0.1043(3)
C9_4 C 0.5011(3) 0.6175(9) 0.0625(3)
H14_4 H 0.496893 0.571568 0.038682
H15_4 H 0.521579 0.664135 0.056671
C10_4 C 0.4604(4) 0.6638(10) 0.0646(3)
H16_4 H 0.441600 0.617231 0.073665
H17_4 H 0.465759 0.712089 0.087308
C11_4 C 0.4385(4) 0.7069(9) 0.0241(3)
C12_4 C 0.4460(5) 0.8011(10) 0.0137(4)
H18_4 H 0.466491 0.835971 0.032657
H23_4 H 0.5015(9) 0.525(3) 0.1066(16)
H24_4 H 0.5162(14) 0.611(3) 0.1240(9)
C13_4 C 0.4237(5) 0.8427(11) 0.9761(4)
H19_4 H 0.427462 0.906681 0.971074
C14_4 C 0.3969(4) 0.7925(10) 0.9471(4)
H20_4 H 0.384403 0.819920 0.920226
C15_4 C 0.3869(4) 0.7014(9) 0.9555(3)
H21_4 H 0.365839 0.668966 0.935998
C16_4 C 0.4088(3) 0.6576(9) 0.9937(3)
H22_4 H 0.403319 0.594382 0.998947
S2 S 0.82896(10) 0.2582(3) 0.82629(11)
O5 O 0.8693(3) 0.2147(9) 0.8378(3)
O6 O 0.8155(3) 0.2991(10) 0.8647(4)
O7 O 0.8228(3) 0.3124(8) 0.7885(4)
C17 C 0.7920(4) 0.1637(9) 0.8150(4)
F4 F 0.8033(4) 0.1124(8) 0.7833(3)
F5 F 0.7944(4) 0.1073(7) 0.8490(3)
F6 F 0.7542(3) 0.1900(9) 0.8010(4)
S2_2 S 0.17104(10) 0.2582(3) 0.17371(11)
O5_2 O 0.1307(3) 0.2147(9) 0.1622(3)
O6_2 O 0.1845(3) 0.2991(10) 0.1353(4)
O7_2 O 0.1772(3) 0.3124(8) 0.2115(4)
C17_2 C 0.2080(4) 0.1637(9) 0.1850(4)
F4_2 F 0.1967(4) 0.1124(8) 0.2167(3)
F5_2 F 0.2056(4) 0.1073(7) 0.1510(3)
F6_2 F 0.2458(3) 0.1900(9) 0.1990(4)
S2_3 S 0.32896(10) 0.7582(3) 0.82629(11)
O5_3 O 0.3693(3) 0.7147(9) 0.8378(3)
O6_3 O 0.3155(3) 0.7991(10) 0.8647(4)
O7_3 O 0.3228(3) 0.8124(8) 0.7885(4)
C17_3 C 0.2920(4) 0.6637(9) 0.8150(4)
F4_3 F 0.3033(4) 0.6124(8) 0.7833(3)
F5_3 F 0.2944(4) 0.6073(7) 0.8490(3)
F6_3 F 0.2542(3) 0.6900(9) 0.8010(4)
S2_4 S 0.67104(10) 0.7582(3) 0.17371(11)
O5_4 O 0.6307(3) 0.7147(9) 0.1622(3)
O6_4 O 0.6845(3) 0.7991(10) 0.1353(4)
O7_4 O 0.6772(3) 0.8124(8) 0.2115(4)
C17_4 C 0.7080(4) 0.6637(9) 0.1850(4)
F4_4 F 0.6967(4) 0.6124(8) 0.2167(3)
F5_4 F 0.7056(4) 0.6073(7) 0.1510(3)
F6_4 F 0.7458(3) 0.6900(9) 0.1990(4)
C18 C 0.7167(4) 0.5623(10) 0.7207(5)
H25 H 0.698058 0.514843 0.703539
C19 C 0.7503(4) 0.5103(13) 0.7525(5)
H26 H 0.776543 0.547662 0.755095
C20 C 0.7417(6) 0.5010(12) 0.7995(5)
H27 H 0.757990 0.448831 0.814720
H28 H 0.711608 0.488658 0.798325
C21 C 0.7548(7) 0.5945(17) 0.8245(7)
H29 H 0.762821 0.580945 0.855872
H30 H 0.779767 0.619647 0.815056
C22 C 0.7209(8) 0.6682(15) 0.8177(6)
H31 H 0.695632 0.642551 0.826466
H32 H 0.730553 0.721451 0.836865
C23 C 0.7092(7) 0.7020(15) 0.7720(6)
H33 H 0.734598 0.726057 0.762996
H34 H 0.689274 0.754045 0.770862
C24 C 0.6894(4) 0.6270(11) 0.7396(5)
H35 H 0.671080 0.588763 0.754204
H36 H 0.670984 0.658898 0.715261
O8 O 0.7362(4) 0.6101(10) 0.6922(4)
H37 H 0.728722 0.665910 0.691263
N2 N 0.7594(4) 0.4183(9) 0.7345(4)
C25 C 0.7737(5) 0.4220(13) 0.6927(5)
H38 H 0.796504 0.468052 0.694928
H39 H 0.750278 0.443151 0.669810
C26 C 0.7893(4) 0.3295(10) 0.6795(4)
H40 H 0.796895 0.338756 0.650918
H41 H 0.815547 0.315759 0.700224
C27 C 0.7642(6) 0.2471(12) 0.6762(5)
C28 C 0.7199(5) 0.2456(16) 0.6713(6)
H42 H 0.706716 0.303946 0.672295
C29 C 0.6933(8) 0.1675(16) 0.6651(9)
H43 H 0.664077 0.171651 0.653990
C30 C 0.7129(9) 0.0872(17) 0.6763(13)
H44 H 0.697650 0.036153 0.684241
C31 C 0.7558(8) 0.0775(15) 0.6765(8)
H45 H 0.767340 0.017534 0.674804
C32 C 0.7826(8) 0.1590(13) 0.6794(6)
H46 H 0.812086 0.152445 0.683271
H47 H 0.779(2) 0.393(6) 0.7524(17)
H48 H 0.7366(18) 0.388(5) 0.730(3)
C18_2 C 0.2833(4) 0.5623(10) 0.2793(5)
H25_2 H 0.301942 0.514843 0.296461
C19_2 C 0.2497(4) 0.5103(13) 0.2475(5)
H26_2 H 0.223457 0.547662 0.244905
C20_2 C 0.2583(6) 0.5010(12) 0.2005(5)
H27_2 H 0.242010 0.448831 0.185280
H28_2 H 0.288392 0.488658 0.201675
C21_2 C 0.2452(7) 0.5945(17) 0.1755(7)
H29_2 H 0.237179 0.580945 0.144128
H30_2 H 0.220233 0.619647 0.184944
C22_2 C 0.2791(8) 0.6682(15) 0.1823(6)
H31_2 H 0.304368 0.642551 0.173534
H32_2 H 0.269447 0.721451 0.163135
C23_2 C 0.2908(7) 0.7020(15) 0.2280(6)
H33_2 H 0.265402 0.726057 0.237004
H34_2 H 0.310726 0.754045 0.229138
C24_2 C 0.3106(4) 0.6270(11) 0.2604(5)
H35_2 H 0.328920 0.588763 0.245796
H36_2 H 0.329016 0.658898 0.284739
O8_2 O 0.2638(4) 0.6101(10) 0.3078(4)
H37_2 H 0.271278 0.665910 0.308737
N2_2 N 0.2406(4) 0.4183(9) 0.2655(4)
C25_2 C 0.2263(5) 0.4220(13) 0.3073(5)
H38_2 H 0.203496 0.468052 0.305072
H39_2 H 0.249722 0.443151 0.330190
C26_2 C 0.2107(4) 0.3295(10) 0.3205(4)
H40_2 H 0.203105 0.338756 0.349082
H41_2 H 0.184453 0.315759 0.299776
C27_2 C 0.2358(6) 0.2471(12) 0.3238(5)
C28_2 C 0.2801(5) 0.2456(16) 0.3287(6)
H42_2 H 0.293284 0.303946 0.327705
C29_2 C 0.3067(8) 0.1675(16) 0.3349(9)
H43_2 H 0.335923 0.171651 0.346010
C30_2 C 0.2871(9) 0.0872(17) 0.3237(13)
H44_2 H 0.302350 0.036153 0.315759
C31_2 C 0.2442(8) 0.0775(15) 0.3235(8)
H45_2 H 0.232660 0.017534 0.325196
C32_2 C 0.2174(8) 0.1590(13) 0.3206(6)
H46_2 H 0.187914 0.152445 0.316729
H47_2 H 0.221(2) 0.393(6) 0.2476(17)
H48_2 H 0.2634(18) 0.388(5) 0.270(3)
C18_3 C 0.2167(4) 0.0623(10) 0.7207(5)
H25_3 H 0.198058 0.014843 0.703539
C19_3 C 0.2503(4) 0.0103(13) 0.7525(5)
H26_3 H 0.276543 0.047662 0.755095
C20_3 C 0.2417(6) 0.0010(12) 0.7995(5)
C21_3 C 0.2548(7) 0.0945(17) 0.8245(7)
H29_3 H 0.262821 0.080945 0.855872
H30_3 H 0.279767 0.119647 0.815056
C22_3 C 0.2209(8) 0.1682(15) 0.8177(6)
H31_3 H 0.195632 0.142551 0.826466
H32_3 H 0.230553 0.221451 0.836865
C23_3 C 0.2092(7) 0.2020(15) 0.7720(6)
H33_3 H 0.234598 0.226057 0.762996
H34_3 H 0.189274 0.254045 0.770862
C24_3 C 0.1894(4) 0.1270(11) 0.7396(5)
H35_3 H 0.171080 0.088763 0.754204
H36_3 H 0.170984 0.158898 0.715261
O8_3 O 0.2362(4) 0.1101(10) 0.6922(4)
H37_3 H 0.228722 0.165910 0.691263
H27_3 H 0.257990 0.948831 0.814720
H28_3 H 0.211608 0.988658 0.798325
N2_3 N 0.2594(4) 0.9183(9) 0.7345(4)
C25_3 C 0.2737(5) 0.9220(13) 0.6927(5)
H38_3 H 0.296504 0.968052 0.694928
H39_3 H 0.250278 0.943151 0.669810
C26_3 C 0.2893(4) 0.8295(10) 0.6795(4)
H40_3 H 0.296895 0.838756 0.650918
H41_3 H 0.315547 0.815759 0.700224
C27_3 C 0.2642(6) 0.7471(12) 0.6762(5)
C28_3 C 0.2199(5) 0.7456(16) 0.6713(6)
H42_3 H 0.206716 0.803946 0.672295
C29_3 C 0.1933(8) 0.6675(16) 0.6651(9)
H43_3 H 0.164077 0.671651 0.653990
C30_3 C 0.2129(9) 0.5872(17) 0.6763(13)
H44_3 H 0.197650 0.536153 0.684241
C31_3 C 0.2558(8) 0.5775(15) 0.6765(8)
H45_3 H 0.267340 0.517534 0.674804
C32_3 C 0.2826(8) 0.6590(13) 0.6794(6)
H46_3 H 0.312086 0.652445 0.683271
H47_3 H 0.279(2) 0.893(6) 0.7524(17)
H48_3 H 0.2366(18) 0.888(5) 0.730(3)
C18_4 C 0.7833(4) 0.0623(10) 0.2793(5)
H25_4 H 0.801942 0.014843 0.296461
C19_4 C 0.7497(4) 0.0103(13) 0.2475(5)
H26_4 H 0.723457 0.047662 0.244905
C20_4 C 0.7583(6) 0.0010(12) 0.2005(5)
C21_4 C 0.7452(7) 0.0945(17) 0.1755(7)
H29_4 H 0.737179 0.080945 0.144128
H30_4 H 0.720233 0.119647 0.184944
C22_4 C 0.7791(8) 0.1682(15) 0.1823(6)
H31_4 H 0.804368 0.142551 0.173534
H32_4 H 0.769447 0.221451 0.163135
C23_4 C 0.7908(7) 0.2020(15) 0.2280(6)
H33_4 H 0.765402 0.226057 0.237004
H34_4 H 0.810726 0.254045 0.229138
C24_4 C 0.8106(4) 0.1270(11) 0.2604(5)
H35_4 H 0.828920 0.088763 0.245796
H36_4 H 0.829016 0.158898 0.284739
O8_4 O 0.7638(4) 0.1101(10) 0.3078(4)
H37_4 H 0.771278 0.165910 0.308737
H27_4 H 0.742010 0.948831 0.185280
H28_4 H 0.788392 0.988658 0.201675
N2_4 N 0.7406(4) 0.9183(9) 0.2655(4)
C25_4 C 0.7263(5) 0.9220(13) 0.3073(5)
H38_4 H 0.703496 0.968052 0.305072
H39_4 H 0.749722 0.943151 0.330190
C26_4 C 0.7107(4) 0.8295(10) 0.3205(4)
H40_4 H 0.703105 0.838756 0.349082
H41_4 H 0.684453 0.815759 0.299776
C27_4 C 0.7358(6) 0.7471(12) 0.3238(5)
C28_4 C 0.7801(5) 0.7456(16) 0.3287(6)
H42_4 H 0.793284 0.803946 0.327705
C29_4 C 0.8067(8) 0.6675(16) 0.3349(9)
H43_4 H 0.835923 0.671651 0.346010
C30_4 C 0.7871(9) 0.5872(17) 0.3237(13)
H44_4 H 0.802350 0.536153 0.315759
C31_4 C 0.7442(8) 0.5775(15) 0.3235(8)
H45_4 H 0.732660 0.517534 0.325196
C32_4 C 0.7174(8) 0.6590(13) 0.3206(6)
H46_4 H 0.687914 0.652445 0.316729
H47_4 H 0.721(2) 0.893(6) 0.2476(17)
H48_4 H 0.7634(18) 0.888(5) 0.270(3)
S3 S 0.6480(4) 0.7717(6) 0.6146(4)
O9 O 0.6088(8) 0.740(2) 0.6253(12)
O10 O 0.6783(8) 0.6983(15) 0.6239(11)
O11 O 0.6425(11) 0.812(2) 0.5722(8)
C33 C 0.6751(9) 0.8559(17) 0.6502(8)
F7 F 0.7156(8) 0.833(2) 0.6554(11)
F8 F 0.6621(10) 0.8305(19) 0.6850(9)
F9 F 0.6690(10) 0.9300(18) 0.6249(11)
S3_2 S 0.3520(4) 0.7717(6) 0.3854(4)
O9_2 O 0.3912(8) 0.740(2) 0.3747(12)
O10_2 O 0.3217(8) 0.6983(15) 0.3761(11)
O11_2 O 0.3575(11) 0.812(2) 0.4278(8)
C33_2 C 0.3249(9) 0.8559(17) 0.3498(8)
F7_2 F 0.2844(8) 0.833(2) 0.3446(11)
F8_2 F 0.3379(10) 0.8305(19) 0.3150(9)
F9_2 F 0.3310(10) 0.9300(18) 0.3751(11)
S3_3 S 0.1480(4) 0.2717(6) 0.6146(4)
O9_3 O 0.1088(8) 0.240(2) 0.6253(12)
O10_3 O 0.1783(8) 0.1983(15) 0.6239(11)
O11_3 O 0.1425(11) 0.312(2) 0.5722(8)
C33_3 C 0.1751(9) 0.3559(17) 0.6502(8)
F7_3 F 0.2156(8) 0.333(2) 0.6554(11)
F8_3 F 0.1621(10) 0.3305(19) 0.6850(9)
F9_3 F 0.1690(10) 0.4300(18) 0.6249(11)
S3_4 S 0.8520(4) 0.2717(6) 0.3854(4)
O9_4 O 0.8912(8) 0.240(2) 0.3747(12)
O10_4 O 0.8217(8) 0.1983(15) 0.3761(11)
O11_4 O 0.8575(11) 0.312(2) 0.4278(8)
C33_4 C 0.8249(9) 0.3559(17) 0.3498(8)
F7_4 F 0.7844(8) 0.333(2) 0.3446(11)
F8_4 F 0.8379(10) 0.3305(19) 0.3150(9)
F9_4 F 0.8310(10) 0.4300(18) 0.3751(11)
S4 S 0.4509(9) 0.048(2) 0.3632(7)
O12 O 0.4747(19) 0.119(3) 0.3874(14)
O13 O 0.4201(16) 0.019(4) 0.3894(16)
O14 O 0.4265(17) 0.074(4) 0.3214(12)
C34 C 0.4745(13) 0.941(3) 0.3566(12)
F10 F 0.4933(17) 0.944(4) 0.3228(14)
F11 F 0.4454(17) 0.876(3) 0.3474(15)
F12 F 0.5023(15) 0.918(4) 0.3916(13)
S4_2 S 0.5491(9) 0.048(2) 0.6368(7)
O12_2 O 0.5253(19) 0.119(3) 0.6126(14)
O13_2 O 0.5799(16) 0.019(4) 0.6106(16)
O14_2 O 0.5735(17) 0.074(4) 0.6786(12)
C34_2 C 0.5255(13) 0.941(3) 0.6434(12)
F10_2 F 0.5067(17) 0.944(4) 0.6772(14)
F11_2 F 0.5546(17) 0.876(3) 0.6526(15)
F12_2 F 0.4977(15) 0.918(4) 0.6084(13)
F12_3 F 0.0023(15) 0.418(4) 0.3916(13)
S4_3 S 0.9509(9) 0.548(2) 0.3632(7)
O12_3 O 0.9747(19) 0.619(3) 0.3874(14)
O13_3 O 0.9201(16) 0.519(4) 0.3894(16)
O14_3 O 0.9265(17) 0.574(4) 0.3214(12)
C34_3 C 0.9745(13) 0.441(3) 0.3566(12)
F10_3 F 0.9933(17) 0.444(4) 0.3228(14)
F11_3 F 0.9454(17) 0.376(3) 0.3474(15)
S4_4 S 0.0491(9) 0.548(2) 0.6368(7)
O12_4 O 0.0253(19) 0.619(3) 0.6126(14)
O13_4 O 0.0799(16) 0.519(4) 0.6106(16)
O14_4 O 0.0735(17) 0.574(4) 0.6786(12)
C34_4 C 0.0255(13) 0.441(3) 0.6434(12)
F10_4 F 0.0067(17) 0.444(4) 0.6772(14)
F11_4 F 0.0546(17) 0.376(3) 0.6526(15)
F12_4 F 0.9977(15) 0.418(4) 0.6084(13)
N22 N 0.72429(12) 0.7118(3) 0.02160(12)
N23 N 0.74193(14) 0.5695(3) 0.05936(14)
N25 N 0.69489(18) 0.2384(3) 0.03465(19)
N26 N 0.83222(13) 0.8019(3) 0.15169(14)
C92 C 0.71245(15) 0.5294(3) 0.02906(16)
C93 C 0.74573(16) 0.6600(4) 0.05424(16)
C94 C 0.70661(16) 0.4281(3) 0.03133(17)
C95 C 0.6775(2) 0.3827(4) 0.00004(19)
C96 C 0.6734(2) 0.2876(4) 0.0032(2)
C97 C 0.7239(2) 0.2814(5) 0.0644(3)
H89 H 0.740389 0.245533 0.086769
C98 C 0.73069(18) 0.3754(4) 0.0636(2)
H90 H 0.751610 0.403701 0.084869
C99 C 0.77631(15) 0.7092(4) 0.08772(15)
C100 C 0.80551(19) 0.6601(4) 0.11773(19)
H91 H 0.806942 0.594516 0.116471
C101 C 0.83216(19) 0.7088(4) 0.1491(2)
H92 H 0.851440 0.675104 0.170060
C102 C 0.80482(17) 0.8483(4) 0.12197(17)
H93 H 0.804556 0.914021 0.123367
C103 C 0.77710(17) 0.8051(4) 0.08959(18)
H94 H 0.758636 0.840546 0.068664
Zn8 Zn 0.86914(19) 0.8727(5) 0.2041(2)
Zn9 Zn 0.6914(3) 0.0981(2) 0.0413(2)
Zn1 Zn 0.19217(10) 0.89451(10) 0.54037(8)
Cl1 Cl 0.1590(2) 0.9344(3) 0.47512(11)
Cl2 Cl 0.25252(9) 0.95435(17) 0.57267(14)
Zn3 Zn 0.1914(3) 0.5981(2) 0.0413(2)
Cl5 Cl 0.2521(2) 0.5415(5) 0.0769(6)
Zn4 Zn 0.57958(17) 0.8831(4) 0.84363(18)
Cl7 Cl 0.6180(3) 0.9909(4) 0.8173(2)
Cl8 Cl 0.5239(3) 0.9104(8) 0.8730(3)
Zn5 Zn 0.37204(9) 0.1211(3) 0.70106(11)
Cl10 Cl 0.34857(19) 0.1374(4) 0.76177(15)
N3 N 0.14690(17) 0.5787(4) 0.07887(18)
C35 C 0.09461(16) 0.5523(4) 0.13697(18)
N4 N 0.07196(12) 0.4606(3) 0.19212(14)
C36 C 0.13034(19) 0.4976(5) 0.1381(2)
H49 H 0.136840 0.449666 0.159047
Zn6 Zn 0.07992(3) 0.10816(7) 0.34335(3)
N5 N 0.03972(12) 0.6062(3) 0.17214(13)
C37 C 0.1554(2) 0.5128(5) 0.1097(3)
H50 H 0.179794 0.475987 0.111418
C38 C 0.1120(3) 0.6264(8) 0.0758(3)
H51 H 0.105107 0.669758 0.052801
N6 N 0.01860(12) 0.5150(3) 0.22682(12)
N7 N 0.06204(15) 0.2093(3) 0.29762(15)
C39 C 0.06708(14) 0.5389(4) 0.16896(16)
Cl11 Cl 0.02597(9) 0.0730(2) 0.37269(7)
C40 C 0.0846(2) 0.6164(7) 0.1046(2)
H52 H 0.059893 0.652809 0.101694
Cl12 Cl 0.11914(8) 0.00484(14) 0.31761(9)
N9 N 0.11972(19) 0.1845(4) 0.38992(17)
C41 C 0.01625(13) 0.5910(4) 0.20146(14)
N10 N 0.18694(14) 0.4185(3) 0.49788(15)
C42 C 0.04681(13) 0.4524(3) 0.22001(14)
N11 N 0.24145(15) 0.4242(3) 0.55933(15)
N12 N 0.22334(13) 0.2813(3) 0.52306(13)
N13 N 0.19863(18) 0.7544(4) 0.53648(18)
N14 N 0.33319(14) 0.1922(3) 0.65195(15)
N15 N 0.52013(12) 0.4815(3) 0.72650(13)
C47 C 0.05047(14) 0.3666(4) 0.24667(16)
H56 H 0.000218 0.754403 0.162154
N16 N 0.42435(13) 0.2050(3) 0.70761(15)
C49 C 0.0788(2) 0.2984(5) 0.2404(2)
H57 H 0.094551 0.304489 0.218239
N17 N 0.57464(12) 0.5353(3) 0.69248(14)
C50 C 0.0837(2) 0.2217(5) 0.2671(2)
H58 H 0.103544 0.175985 0.263157
N18 N 0.54292(13) 0.3902(3) 0.67312(15)
C51 C 0.03362(17) 0.2730(4) 0.30363(17)
H59 H 0.017570 0.263072 0.325294
N19 N 0.65206(18) 0.4126(4) 0.58210(19)
C52 C 0.02722(15) 0.3545(4) 0.27827(16)
H60 H 0.007409 0.399700 0.282918
N20 N 0.56179(15) 0.7870(3) 0.79837(15)
C53 C 0.16881(17) 0.2767(4) 0.45873(18)
N21 N 0.61982(16) 0.8108(3) 0.89000(15)
C54 C 0.1487(2) 0.3240(5) 0.4226(2)
H61 H 0.151277 0.389348 0.420816
C55 C 0.1245(2) 0.2745(5) 0.3887(2)
H62 H 0.110992 0.307327 0.363675
C56 C 0.1416(2) 0.1371(4) 0.4236(2)
H63 H 0.139890 0.071405 0.423521
N24 N 0.68809(13) 0.5735(3) 0.99597(14)
C57 C 0.1664(2) 0.1813(4) 0.4582(2)
H64 H 0.181821 0.146224 0.481538
C58 C 0.19481(17) 0.3278(4) 0.49524(17)
C59 C 0.24563(17) 0.3318(4) 0.55476(17)
C60 C 0.20730(17) 0.5645(4) 0.53211(17)
C61 C 0.21233(16) 0.4626(4) 0.52972(17)
C62 C 0.1735(3) 0.7047(5) 0.5054(2)
H65 H 0.152816 0.735754 0.484798
C63 C 0.1772(3) 0.6096(5) 0.5030(2)
H66 H 0.158961 0.575673 0.481246
C64 C 0.2270(3) 0.7111(5) 0.5640(3)
H67 H 0.244512 0.746397 0.585766
C65 C 0.2333(2) 0.6154(5) 0.5633(2)
H68 H 0.254765 0.586457 0.583726
C66 C 0.27734(17) 0.2838(4) 0.58793(17)
C67 C 0.2779(2) 0.1881(4) 0.5900(2)
H69 H 0.258568 0.152540 0.569935
C68 C 0.3070(2) 0.1448(4) 0.6217(2)
H70 H 0.308364 0.079121 0.622042
C69 C 0.3325(2) 0.2848(4) 0.6495(2)
H71 H 0.351807 0.319070 0.670142
C70 C 0.42757(17) 0.2823(4) 0.73286(17)
H72 H 0.408322 0.291373 0.751510
C71 C 0.4515(2) 0.1921(5) 0.6829(2)
H73 H 0.450028 0.136816 0.666283
C72 C 0.48323(19) 0.2576(5) 0.6799(2)
H74 H 0.502284 0.247214 0.661140
C73 C 0.51843(14) 0.4078(4) 0.70136(16)
C74 C 0.57084(15) 0.4562(4) 0.66993(18)
C75 C 0.54881(14) 0.5440(4) 0.72054(17)
C76 C 0.59852(17) 0.4422(4) 0.63917(19)
C77 C 0.5949(3) 0.3664(8) 0.6120(4)
H75 H 0.573663 0.321784 0.612932
C78 C 0.6204(3) 0.3548(8) 0.5845(4)
H76 H 0.616137 0.302953 0.565582
C79 C 0.6547(3) 0.4840(6) 0.6061(3)
H77 H 0.675634 0.528297 0.603602
C80 C 0.6291(2) 0.5025(6) 0.6361(3)
H78 H 0.633258 0.556401 0.653696
C81 C 0.55187(14) 0.6306(4) 0.74620(16)
C82 C 0.52758(17) 0.6445(4) 0.77702(16)
H79 H 0.506979 0.600226 0.780523
C83 C 0.53320(18) 0.7217(4) 0.80231(17)
H80 H 0.516422 0.729837 0.823471
C84 C 0.58373(16) 0.7768(4) 0.7676(2)
H81 H 0.602845 0.824230 0.763782
C85 C 0.58012(17) 0.6995(4) 0.7404(2)
H82 H 0.596424 0.694112 0.718651
C86 C 0.67080(15) 0.7158(4) 0.95698(15)
C87 C 0.65021(16) 0.6693(3) 0.92021(17)
H83 H 0.653160 0.604166 0.917755
C88 C 0.6258(2) 0.7182(4) 0.88773(19)
H84 H 0.612344 0.686042 0.862487
C89 C 0.6403(2) 0.8544(4) 0.92462(18)
H85 H 0.636577 0.919502 0.926273
C90 C 0.66673(18) 0.8114(4) 0.95862(17)
H86 H 0.681639 0.846094 0.982333
C91 C 0.69589(14) 0.6639(3) 0.99395(15)
H87 H 0.660767 0.416186 0.976996
H88 H 0.653955 0.256699 0.981339
C104 C 0.45840(15) 0.3481(4) 0.73190(16)
H95 H 0.460526 0.401228 0.750018
C105 C 0.48572(15) 0.3356(4) 0.70450(17)
C106 C 0.3049(2) 0.3324(4) 0.61823(19)
H96 H 0.304990 0.398144 0.617752
Zn7 Zn 0.69217(10) 0.39451(10) 0.54037(8)
N27 N 0.15206(18) 0.9126(4) 0.58210(19)
N28 N 0.19489(18) 0.7384(3) 0.03465(19)
Cl4 Cl 0.84369(18) 0.8518(5) 0.2646(3)
N8 N 0.92263(12) 0.7912(3) 0.20989(14)
C43 C 0.98436(14) 0.6614(4) 0.20544(15)
C44 C 0.95726(15) 0.6500(4) 0.23381(17)
H53 H 0.959075 0.596931 0.251893
C45 C 0.92746(15) 0.7177(4) 0.23525(18)
H54 H 0.909634 0.710901 0.255516
C46 C 0.94969(18) 0.8046(4) 0.18313(18)
H55 H 0.947003 0.858608 0.165565
C48 C 0.98102(17) 0.7425(4) 0.18058(17)
N22_2 N 0.22429(12) 0.2118(3) 0.02160(12)
N23_2 N 0.24193(14) 0.0695(3) 0.05936(14)
N26_2 N 0.33222(13) 0.3019(3) 0.15169(14)
C92_2 C 0.21245(15) 0.0294(3) 0.02906(16)
C93_2 C 0.24573(16) 0.1600(4) 0.05424(16)
C99_2 C 0.27631(15) 0.2092(4) 0.08772(15)
C100_2 C 0.30551(19) 0.1601(4) 0.11773(19)
H91_2 H 0.306942 0.094516 0.116471
C101_2 C 0.33216(19) 0.2088(4) 0.1491(2)
H92_2 H 0.351440 0.175104 0.170060
C102_2 C 0.30482(17) 0.3483(4) 0.12197(17)
H93_2 H 0.304556 0.414021 0.123367
C103_2 C 0.27710(17) 0.3051(4) 0.08959(18)
H94_2 H 0.258636 0.340546 0.068664
Zn8_2 Zn 0.36914(19) 0.3727(5) 0.2041(2)
C94_2 C 0.20661(16) 0.9281(3) 0.03133(17)
C95_2 C 0.1775(2) 0.8827(4) 0.00004(19)
C96_2 C 0.1734(2) 0.7876(4) 0.0032(2)
C97_2 C 0.2239(2) 0.7814(5) 0.0644(3)
H89_2 H 0.240389 0.745533 0.086769
C98_2 C 0.23069(18) 0.8754(4) 0.0636(2)
H90_2 H 0.251610 0.903701 0.084869
N15_2 N 0.02013(12) 0.9815(3) 0.72650(13)
N18_2 N 0.04292(13) 0.8902(3) 0.67312(15)
H74_2 H 0.002284 0.747214 0.661140
C73_2 C 0.01843(14) 0.9078(4) 0.70136(16)
C74_2 C 0.07084(15) 0.9562(4) 0.66993(18)
C76_2 C 0.09852(17) 0.9422(4) 0.63917(19)
C77_2 C 0.0949(3) 0.8664(8) 0.6120(4)
H75_2 H 0.073663 0.821784 0.612932
C78_2 C 0.1204(3) 0.8548(8) 0.5845(4)
H76_2 H 0.116137 0.802953 0.565582
C79_2 C 0.1547(3) 0.9840(6) 0.6061(3)
H87_2 H 0.160767 0.916186 0.976996
H88_2 H 0.153955 0.756699 0.981339
Cl1_2 Cl 0.6590(2) 0.4344(3) 0.47512(11)
Cl2_2 Cl 0.75252(9) 0.45435(17) 0.57267(14)
Cl3 Cl 0.37873(16) 0.5134(4) 0.17869(17)
Cl4_2 Cl 0.34369(18) 0.3518(5) 0.2646(3)
Cl5_2 Cl 0.7521(2) 0.0415(5) 0.0769(6)
N3_2 N 0.64690(17) 0.0787(4) 0.07887(18)
C35_2 C 0.59461(16) 0.0523(4) 0.13697(18)
N5_2 N 0.53972(12) 0.1062(3) 0.17214(13)
C37_2 C 0.6554(2) 0.0128(5) 0.1097(3)
C38_2 C 0.6120(3) 0.1264(8) 0.0758(3)
H51_2 H 0.605107 0.169758 0.052801
N6_2 N 0.51860(12) 0.0150(3) 0.22682(12)
C39_2 C 0.56708(14) 0.0389(4) 0.16896(16)
N8_2 N 0.42263(12) 0.2912(3) 0.20989(14)
C40_2 C 0.5846(2) 0.1164(7) 0.1046(2)
H52_2 H 0.559893 0.152809 0.101694
C41_2 C 0.51625(13) 0.0910(4) 0.20146(14)
C43_2 C 0.48436(14) 0.1614(4) 0.20544(15)
C44_2 C 0.45726(15) 0.1500(4) 0.23381(17)
H53_2 H 0.459075 0.096931 0.251893
C45_2 C 0.42746(15) 0.2177(4) 0.23525(18)
H54_2 H 0.409634 0.210901 0.255516
N13_2 N 0.69863(18) 0.2544(4) 0.53648(18)
C46_2 C 0.44969(18) 0.3046(4) 0.18313(18)
H55_2 H 0.447003 0.358608 0.165565
C48_2 C 0.48102(17) 0.2425(4) 0.18058(17)
H56_2 H 0.500218 0.254403 0.162154
C60_2 C 0.70730(17) 0.0645(4) 0.53211(17)
C62_2 C 0.6735(3) 0.2047(5) 0.5054(2)
H65_2 H 0.652816 0.235754 0.484798
C63_2 C 0.6772(3) 0.1096(5) 0.5030(2)
H66_2 H 0.658961 0.075673 0.481246
C64_2 C 0.7270(3) 0.2111(5) 0.5640(3)
H67_2 H 0.744512 0.246397 0.585766
C65_2 C 0.7333(2) 0.1154(5) 0.5633(2)
H68_2 H 0.754765 0.086457 0.583726
Cl6 Cl 0.1623(6) 0.5561(6) 0.9756(3)
Cl9 Cl 0.3835(2) 0.9847(6) 0.6733(2)
Cl3_2 Cl 0.87873(16) 0.0134(4) 0.17869(17)
Cl3_3 Cl 0.12127(16) 0.0134(4) 0.82131(17)
Zn2 Zn 0.13086(19) 0.8727(5) 0.7959(2)
Cl4_3 Cl 0.15631(18) 0.8518(5) 0.7354(3)
N8_3 N 0.07737(12) 0.7912(3) 0.79011(14)
C43_3 C 0.01564(14) 0.6614(4) 0.79456(15)
C44_3 C 0.04274(15) 0.6500(4) 0.76619(17)
H53_3 H 0.040925 0.596931 0.748107
C45_3 C 0.07254(15) 0.7177(4) 0.76475(18)
H54_3 H 0.090366 0.710901 0.744484
C46_3 C 0.05031(18) 0.8046(4) 0.81687(18)
H55_3 H 0.052997 0.858608 0.834435
C48_3 C 0.01898(17) 0.7425(4) 0.81942(17)
N29 N 0.16778(13) 0.8019(3) 0.84831(14)
Zn1_2 Zn 0.80783(10) 0.89451(10) 0.45963(8)
Cl1_3 Cl 0.8410(2) 0.9344(3) 0.52488(11)
Cl2_3 Cl 0.74748(9) 0.95435(17) 0.42733(14)
Zn3_2 Zn 0.8086(3) 0.5981(2) 0.9587(2)
Cl5_3 Cl 0.7479(2) 0.5415(5) 0.9231(6)
Zn4_2 Zn 0.42042(17) 0.8831(4) 0.15637(18)
Cl7_2 Cl 0.3820(3) 0.9909(4) 0.1827(2)
Cl8_2 Cl 0.4761(3) 0.9104(8) 0.1270(3)
Zn5_2 Zn 0.62796(9) 0.1211(3) 0.29894(11)
Cl10_2 Cl 0.65143(19) 0.1374(4) 0.23823(15)
N3_3 N 0.85310(17) 0.5787(4) 0.92113(18)
C35_3 C 0.90539(16) 0.5523(4) 0.86303(18)
N4_2 N 0.92804(12) 0.4606(3) 0.80788(14)
C36_2 C 0.86966(19) 0.4976(5) 0.8619(2)
H49_2 H 0.863160 0.449666 0.840953
Zn6_2 Zn 0.92008(3) 0.10816(7) 0.65665(3)
N5_3 N 0.96028(12) 0.6062(3) 0.82786(13)
C37_3 C 0.8446(2) 0.5128(5) 0.8903(3)
H50_2 H 0.820206 0.475987 0.888582
C38_3 C 0.8880(3) 0.6264(8) 0.9242(3)
H51_3 H 0.894893 0.669758 0.947199
N6_3 N 0.98140(12) 0.5150(3) 0.77318(12)
N7_2 N 0.93796(15) 0.2093(3) 0.70238(15)
C39_3 C 0.93292(14) 0.5389(4) 0.83104(16)
Cl11_2 Cl 0.97403(9) 0.0730(2) 0.62731(7)
C40_3 C 0.9154(2) 0.6164(7) 0.8954(2)
H52_3 H 0.940107 0.652809 0.898306
Cl12_2 Cl 0.88086(8) 0.00484(14) 0.68239(9)
N9_2 N 0.88028(19) 0.1845(4) 0.61008(17)
C41_3 C 0.98375(13) 0.5910(4) 0.79854(14)
N10_2 N 0.81306(14) 0.4185(3) 0.50212(15)
C42_2 C 0.95319(13) 0.4524(3) 0.77999(14)
N11_2 N 0.75855(15) 0.4242(3) 0.44067(15)
N12_2 N 0.77666(13) 0.2813(3) 0.47694(13)
N13_3 N 0.80137(18) 0.7544(4) 0.46352(18)
N14_2 N 0.66681(14) 0.1922(3) 0.34805(15)
N15_3 N 0.47987(12) 0.4815(3) 0.27350(13)
C47_2 C 0.94953(14) 0.3666(4) 0.75333(16)
H56_3 H 0.999782 0.754403 0.837846
N16_2 N 0.57565(13) 0.2050(3) 0.29239(15)
C49_2 C 0.9212(2) 0.2984(5) 0.7596(2)
H57_2 H 0.905449 0.304489 0.781761
N17_2 N 0.42536(12) 0.5353(3) 0.30752(14)
C50_2 C 0.9163(2) 0.2217(5) 0.7329(2)
H58_2 H 0.896456 0.175985 0.736843
N18_3 N 0.45708(13) 0.3902(3) 0.32688(15)
C51_2 C 0.96638(17) 0.2730(4) 0.69637(17)
H59_2 H 0.982430 0.263072 0.674706
N19_2 N 0.34794(18) 0.4126(4) 0.41790(19)
C52_2 C 0.97278(15) 0.3545(4) 0.72173(16)
H60_2 H 0.992591 0.399700 0.717082
N20_2 N 0.43821(15) 0.7870(3) 0.20163(15)
C53_2 C 0.83119(17) 0.2767(4) 0.54127(18)
N21_2 N 0.38018(16) 0.8108(3) 0.11000(15)
C54_2 C 0.8513(2) 0.3240(5) 0.5774(2)
H61_2 H 0.848723 0.389348 0.579184
C55_2 C 0.8755(2) 0.2745(5) 0.6113(2)
H62_2 H 0.889008 0.307327 0.636325
C56_2 C 0.8584(2) 0.1371(4) 0.5764(2)
H63_2 H 0.860110 0.071405 0.576479
N24_2 N 0.31191(13) 0.5735(3) 0.00403(14)
C57_2 C 0.8336(2) 0.1813(4) 0.5418(2)
H64_2 H 0.818179 0.146224 0.518462
C58_2 C 0.80519(17) 0.3278(4) 0.50476(17)
C59_2 C 0.75437(17) 0.3318(4) 0.44524(17)
C60_3 C 0.79270(17) 0.5645(4) 0.46789(17)
C61_2 C 0.78767(16) 0.4626(4) 0.47028(17)
C62_3 C 0.8265(3) 0.7047(5) 0.4946(2)
H65_3 H 0.847184 0.735754 0.515202
C63_3 C 0.8228(3) 0.6096(5) 0.4970(2)
H66_3 H 0.841039 0.575673 0.518754
C64_3 C 0.7730(3) 0.7111(5) 0.4360(3)
H67_3 H 0.755488 0.746397 0.414234
C65_3 C 0.7667(2) 0.6154(5) 0.4367(2)
H68_3 H 0.745235 0.586457 0.416274
C66_2 C 0.72266(17) 0.2838(4) 0.41207(17)
C67_2 C 0.7221(2) 0.1881(4) 0.4100(2)
H69_2 H 0.741432 0.152540 0.430065
C68_2 C 0.6930(2) 0.1448(4) 0.3783(2)
H70_2 H 0.691636 0.079121 0.377958
C69_2 C 0.6675(2) 0.2848(4) 0.3505(2)
H71_2 H 0.648193 0.319070 0.329858
C70_2 C 0.57243(17) 0.2823(4) 0.26714(17)
H72_2 H 0.591678 0.291373 0.248490
C71_2 C 0.5485(2) 0.1921(5) 0.3171(2)
H73_2 H 0.549972 0.136816 0.333717
C72_2 C 0.51677(19) 0.2576(5) 0.3201(2)
H74_3 H 0.497716 0.247214 0.338860
C73_3 C 0.48157(14) 0.4078(4) 0.29864(16)
C74_3 C 0.42916(15) 0.4562(4) 0.33007(18)
C75_2 C 0.45119(14) 0.5440(4) 0.27946(17)
C76_3 C 0.40148(17) 0.4422(4) 0.36083(19)
C77_3 C 0.4051(3) 0.3664(8) 0.3880(4)
H75_3 H 0.426337 0.321784 0.387068
C78_3 C 0.3796(3) 0.3548(8) 0.4155(4)
H76_3 H 0.383863 0.302953 0.434418
C79_3 C 0.3453(3) 0.4840(6) 0.3939(3)
H77_2 H 0.324366 0.528297 0.396398
C80_2 C 0.3709(2) 0.5025(6) 0.3639(3)
H78_2 H 0.366742 0.556401 0.346304
C81_2 C 0.44813(14) 0.6306(4) 0.25380(16)
C82_2 C 0.47242(17) 0.6445(4) 0.22298(16)
H79_2 H 0.493021 0.600226 0.219477
C83_2 C 0.46680(18) 0.7217(4) 0.19769(17)
H80_2 H 0.483578 0.729837 0.176529
C84_2 C 0.41627(16) 0.7768(4) 0.2324(2)
H81_2 H 0.397155 0.824230 0.236218
C85_2 C 0.41988(17) 0.6995(4) 0.2596(2)
H82_2 H 0.403576 0.694112 0.281349
C86_2 C 0.32920(15) 0.7158(4) 0.04302(15)
C87_2 C 0.34979(16) 0.6693(3) 0.07979(17)
H83_2 H 0.346840 0.604166 0.082245
C88_2 C 0.3742(2) 0.7182(4) 0.11227(19)
H84_2 H 0.387656 0.686042 0.137513
C89_2 C 0.3597(2) 0.8544(4) 0.07538(18)
H85_2 H 0.363423 0.919502 0.073727
C90_2 C 0.33327(18) 0.8114(4) 0.04138(17)
H86_2 H 0.318361 0.846094 0.017667
C91_2 C 0.30411(14) 0.6639(3) 0.00605(15)
H87_3 H 0.339233 0.416186 0.023004
H88_3 H 0.346045 0.256699 0.018661
C104_2 C 0.54160(15) 0.3481(4) 0.26810(16)
H95_2 H 0.539474 0.401228 0.249982
C105_2 C 0.51428(15) 0.3356(4) 0.29550(17)
C106_2 C 0.6951(2) 0.3324(4) 0.38177(19)
H96_2 H 0.695010 0.398144 0.382248
Zn7_2 Zn 0.30783(10) 0.39451(10) 0.45963(8)
N27_2 N 0.84794(18) 0.9126(4) 0.41790(19)
N28_2 N 0.80511(18) 0.7384(3) 0.96535(19)
N22_3 N 0.27571(12) 0.7118(3) 0.97840(12)
N23_3 N 0.25807(14) 0.5695(3) 0.94064(14)
N25_2 N 0.30511(18) 0.2384(3) 0.96535(19)
C92_3 C 0.28755(15) 0.5294(3) 0.97094(16)
C93_3 C 0.25427(16) 0.6600(4) 0.94576(16)
C94_3 C 0.29339(16) 0.4281(3) 0.96867(17)
C95_3 C 0.3225(2) 0.3827(4) 0.99996(19)
C96_3 C 0.3266(2) 0.2876(4) 0.9968(2)
C97_3 C 0.2761(2) 0.2814(5) 0.9356(3)
H89_3 H 0.259611 0.245533 0.913231
C98_3 C 0.26931(18) 0.3754(4) 0.9364(2)
H90_3 H 0.248390 0.403701 0.915131
C99_3 C 0.22369(15) 0.7092(4) 0.91228(15)
C100_3 C 0.19449(19) 0.6601(4) 0.88227(19)
H91_3 H 0.193058 0.594516 0.883529
C101_3 C 0.16784(19) 0.7088(4) 0.8509(2)
H92_3 H 0.148560 0.675104 0.829940
C102_3 C 0.19518(17) 0.8483(4) 0.87803(17)
H93_3 H 0.195444 0.914021 0.876633
C103_3 C 0.22290(17) 0.8051(4) 0.91041(18)
H94_3 H 0.241364 0.840546 0.931336
Zn9_2 Zn 0.3086(3) 0.0981(2) 0.9587(2)
Cl1_4 Cl 0.3410(2) 0.4344(3) 0.52488(11)
Cl2_4 Cl 0.24748(9) 0.45435(17) 0.42733(14)
Zn2_2 Zn 0.63086(19) 0.3727(5) 0.7959(2)
Cl3_4 Cl 0.62127(16) 0.5134(4) 0.82131(17)
Cl4_4 Cl 0.65631(18) 0.3518(5) 0.7354(3)
Cl5_4 Cl 0.2479(2) 0.0415(5) 0.9231(6)
N3_4 N 0.35310(17) 0.0787(4) 0.92113(18)
C35_4 C 0.40539(16) 0.0523(4) 0.86303(18)
N5_4 N 0.46028(12) 0.1062(3) 0.82786(13)
C37_4 C 0.3446(2) 0.0128(5) 0.8903(3)
C38_4 C 0.3880(3) 0.1264(8) 0.9242(3)
H51_4 H 0.394893 0.169758 0.947199
N6_4 N 0.48140(12) 0.0150(3) 0.77318(12)
C39_4 C 0.43292(14) 0.0389(4) 0.83104(16)
N8_4 N 0.57737(12) 0.2912(3) 0.79011(14)
C40_4 C 0.4154(2) 0.1164(7) 0.8954(2)
H52_4 H 0.440107 0.152809 0.898306
C41_4 C 0.48375(13) 0.0910(4) 0.79854(14)
C43_4 C 0.51564(14) 0.1614(4) 0.79456(15)
C44_4 C 0.54274(15) 0.1500(4) 0.76619(17)
H53_4 H 0.540925 0.096931 0.748107
C45_4 C 0.57254(15) 0.2177(4) 0.76475(18)
H54_4 H 0.590366 0.210901 0.744484
N13_4 N 0.30137(18) 0.2544(4) 0.46352(18)
C46_4 C 0.55031(18) 0.3046(4) 0.81687(18)
H55_4 H 0.552997 0.358608 0.834435
C48_4 C 0.51898(17) 0.2425(4) 0.81942(17)
H56_4 H 0.499782 0.254403 0.837846
C60_4 C 0.29270(17) 0.0645(4) 0.46789(17)
C62_4 C 0.3265(3) 0.2047(5) 0.4946(2)
H65_4 H 0.347184 0.235754 0.515202
C63_4 C 0.3228(3) 0.1096(5) 0.4970(2)
H66_4 H 0.341039 0.075673 0.518754
C64_4 C 0.2730(3) 0.2111(5) 0.4360(3)
H67_4 H 0.255488 0.246397 0.414234
C65_4 C 0.2667(2) 0.1154(5) 0.4367(2)
H68_4 H 0.245235 0.086457 0.416274
N29_2 N 0.66778(13) 0.3019(3) 0.84831(14)
N22_4 N 0.77571(12) 0.2118(3) 0.97840(12)
N23_4 N 0.75807(14) 0.0695(3) 0.94064(14)
C92_4 C 0.78755(15) 0.0294(3) 0.97094(16)
C93_4 C 0.75427(16) 0.1600(4) 0.94576(16)
C99_4 C 0.72369(15) 0.2092(4) 0.91228(15)
C100_4 C 0.69449(19) 0.1601(4) 0.88227(19)
H91_4 H 0.693058 0.094516 0.883529
C101_4 C 0.66784(19) 0.2088(4) 0.8509(2)
H92_4 H 0.648560 0.175104 0.829940
C102_4 C 0.69518(17) 0.3483(4) 0.87803(17)
H93_4 H 0.695444 0.414021 0.876633
C103_4 C 0.72290(17) 0.3051(4) 0.91041(18)
H94_4 H 0.741364 0.340546 0.931336
N15_4 N 0.97987(12) 0.9815(3) 0.27350(13)
N18_4 N 0.95708(13) 0.8902(3) 0.32688(15)
H74_4 H 0.997716 0.747214 0.338860
C73_4 C 0.98157(14) 0.9078(4) 0.29864(16)
C74_4 C 0.92916(15) 0.9562(4) 0.33007(18)
C76_4 C 0.90148(17) 0.9422(4) 0.36083(19)
C77_4 C 0.9051(3) 0.8664(8) 0.3880(4)
H75_4 H 0.926337 0.821784 0.387068
C78_4 C 0.8796(3) 0.8548(8) 0.4155(4)
H76_4 H 0.883863 0.802953 0.434418
C79_4 C 0.8453(3) 0.9840(6) 0.3939(3)
H87_4 H 0.839233 0.916186 0.023004
H88_4 H 0.846045 0.756699 0.018661
C94_4 C 0.79339(16) 0.9281(3) 0.96867(17)
C95_4 C 0.8225(2) 0.8827(4) 0.99996(19)
C96_4 C 0.8266(2) 0.7876(4) 0.9968(2)
C97_4 C 0.7761(2) 0.7814(5) 0.9356(3)
H89_4 H 0.759611 0.745533 0.913231
C98_4 C 0.76931(18) 0.8754(4) 0.9364(2)
H90_4 H 0.748390 0.903701 0.915131
Cl6_2 Cl 0.8377(6) 0.5561(6) 0.0244(3)
Cl9_2 Cl 0.6165(2) 0.9847(6) 0.3267(2)
Zn4_3 Zn 0.07958(17) 0.3831(4) 0.84363(18)
Cl7_3 Cl 0.1180(3) 0.4909(4) 0.8173(2)
Cl8_3 Cl 0.0239(3) 0.4104(8) 0.8730(3)
N17_3 N 0.07464(12) 0.0353(3) 0.69248(14)
N20_3 N 0.06179(15) 0.2870(3) 0.79837(15)
N21_3 N 0.11982(16) 0.3108(3) 0.89000(15)
N24_3 N 0.18809(13) 0.0735(3) 0.99597(14)
C75_3 C 0.04881(14) 0.0440(4) 0.72054(17)
H77_3 H 0.175634 0.028297 0.603602
C80_3 C 0.1291(2) 0.0025(6) 0.6361(3)
H78_3 H 0.133258 0.056401 0.653696
C81_3 C 0.05187(14) 0.1306(4) 0.74620(16)
C82_3 C 0.02758(17) 0.1445(4) 0.77702(16)
H79_3 H 0.006979 0.100226 0.780523
C83_3 C 0.03320(18) 0.2217(4) 0.80231(17)
H80_3 H 0.016422 0.229837 0.823471
C84_3 C 0.08373(16) 0.2768(4) 0.7676(2)
H81_3 H 0.102845 0.324230 0.763782
C85_3 C 0.08012(17) 0.1995(4) 0.7404(2)
H82_3 H 0.096424 0.194112 0.718651
C86_3 C 0.17080(15) 0.2158(4) 0.95698(15)
C87_3 C 0.15021(16) 0.1693(3) 0.92021(17)
H83_3 H 0.153160 0.104166 0.917755
C88_3 C 0.1258(2) 0.2182(4) 0.88773(19)
H84_3 H 0.112344 0.186042 0.862487
C89_3 C 0.1403(2) 0.3544(4) 0.92462(18)
H85_3 H 0.136577 0.419502 0.926273
C90_3 C 0.16673(18) 0.3114(4) 0.95862(17)
H86_3 H 0.181639 0.346094 0.982333
C91_3 C 0.19589(14) 0.1639(3) 0.99395(15)
Cl6_3 Cl 0.6623(6) 0.0561(6) 0.9756(3)
Zn5_3 Zn 0.87204(9) 0.6211(3) 0.70106(11)
Cl9_3 Cl 0.8835(2) 0.4847(6) 0.6733(2)
Cl10_3 Cl 0.84857(19) 0.6374(4) 0.76177(15)
N4_3 N 0.57196(12) 0.9606(3) 0.19212(14)
C36_3 C 0.63034(19) 0.9976(5) 0.1381(2)
H49_3 H 0.636840 0.949666 0.159047
Zn6_3 Zn 0.57992(3) 0.60816(7) 0.34335(3)
H50_3 H 0.679794 0.975987 0.111418
N7_3 N 0.56204(15) 0.7093(3) 0.29762(15)
Cl11_3 Cl 0.52597(9) 0.5730(2) 0.37269(7)
Cl12_3 Cl 0.61914(8) 0.50484(14) 0.31761(9)
N9_3 N 0.61972(19) 0.6845(4) 0.38992(17)
N10_3 N 0.68694(14) 0.9185(3) 0.49788(15)
C42_3 C 0.54681(13) 0.9524(3) 0.22001(14)
N11_3 N 0.74145(15) 0.9242(3) 0.55933(15)
N12_3 N 0.72334(13) 0.7813(3) 0.52306(13)
N14_3 N 0.83319(14) 0.6922(3) 0.65195(15)
C47_3 C 0.55047(14) 0.8666(4) 0.24667(16)
N16_3 N 0.92435(13) 0.7050(3) 0.70761(15)
C49_3 C 0.5788(2) 0.7984(5) 0.2404(2)
H57_3 H 0.594551 0.804489 0.218239
C50_3 C 0.5837(2) 0.7217(5) 0.2671(2)
H58_3 H 0.603544 0.675985 0.263157
C51_3 C 0.53362(17) 0.7730(4) 0.30363(17)
H59_3 H 0.517570 0.763072 0.325294
C52_3 C 0.52722(15) 0.8545(4) 0.27827(16)
H60_3 H 0.507409 0.899700 0.282918
C53_3 C 0.66881(17) 0.7767(4) 0.45873(18)
C54_3 C 0.6487(2) 0.8240(5) 0.4226(2)
H61_3 H 0.651277 0.889348 0.420816
C55_3 C 0.6245(2) 0.7745(5) 0.3887(2)
H62_3 H 0.610992 0.807327 0.363675
C56_3 C 0.6416(2) 0.6371(4) 0.4236(2)
H63_3 H 0.639890 0.571405 0.423521
C57_3 C 0.6664(2) 0.6813(4) 0.4582(2)
H64_3 H 0.681821 0.646224 0.481538
C58_3 C 0.69481(17) 0.8278(4) 0.49524(17)
C59_3 C 0.74563(17) 0.8318(4) 0.55476(17)
C61_3 C 0.71233(16) 0.9626(4) 0.52972(17)
C66_3 C 0.77734(17) 0.7838(4) 0.58793(17)
C67_3 C 0.7779(2) 0.6881(4) 0.5900(2)
H69_3 H 0.758568 0.652540 0.569935
C68_3 C 0.8070(2) 0.6448(4) 0.6217(2)
H70_3 H 0.808364 0.579121 0.622042
C69_3 C 0.8325(2) 0.7848(4) 0.6495(2)
H71_3 H 0.851807 0.819070 0.670142
C70_3 C 0.92757(17) 0.7823(4) 0.73286(17)
H72_3 H 0.908322 0.791373 0.751510
C71_3 C 0.9515(2) 0.6921(5) 0.6829(2)
H73_3 H 0.950028 0.636816 0.666283
C72_3 C 0.98323(19) 0.7576(5) 0.6799(2)
C104_3 C 0.95840(15) 0.8481(4) 0.73190(16)
H95_3 H 0.960526 0.901228 0.750018
C105_3 C 0.98572(15) 0.8356(4) 0.70450(17)
C106_3 C 0.8049(2) 0.8324(4) 0.61823(19)
H96_3 H 0.804990 0.898144 0.617752
Cl6_4 Cl 0.3377(6) 0.0561(6) 0.0244(3)
Zn5_4 Zn 0.12796(9) 0.6211(3) 0.29894(11)
Cl9_4 Cl 0.1165(2) 0.4847(6) 0.3267(2)
Cl10_4 Cl 0.15143(19) 0.6374(4) 0.23823(15)
N4_4 N 0.42804(12) 0.9606(3) 0.80788(14)
C36_4 C 0.36966(19) 0.9976(5) 0.8619(2)
H49_4 H 0.363160 0.949666 0.840953
Zn6_4 Zn 0.42008(3) 0.60816(7) 0.65665(3)
H50_4 H 0.320206 0.975987 0.888582
N7_4 N 0.43796(15) 0.7093(3) 0.70238(15)
Cl11_4 Cl 0.47403(9) 0.5730(2) 0.62731(7)
Cl12_4 Cl 0.38086(8) 0.50484(14) 0.68239(9)
N9_4 N 0.38028(19) 0.6845(4) 0.61008(17)
N10_4 N 0.31306(14) 0.9185(3) 0.50212(15)
C42_4 C 0.45319(13) 0.9524(3) 0.77999(14)
N11_4 N 0.25855(15) 0.9242(3) 0.44067(15)
N12_4 N 0.27666(13) 0.7813(3) 0.47694(13)
N14_4 N 0.16681(14) 0.6922(3) 0.34805(15)
C47_4 C 0.44953(14) 0.8666(4) 0.75333(16)
N16_4 N 0.07565(13) 0.7050(3) 0.29239(15)
C49_4 C 0.4212(2) 0.7984(5) 0.7596(2)
H57_4 H 0.405449 0.804489 0.781761
C50_4 C 0.4163(2) 0.7217(5) 0.7329(2)
H58_4 H 0.396456 0.675985 0.736843
C51_4 C 0.46638(17) 0.7730(4) 0.69637(17)
H59_4 H 0.482430 0.763072 0.674706
C52_4 C 0.47278(15) 0.8545(4) 0.72173(16)
H60_4 H 0.492591 0.899700 0.717082
C53_4 C 0.33119(17) 0.7767(4) 0.54127(18)
C54_4 C 0.3513(2) 0.8240(5) 0.5774(2)
H61_4 H 0.348723 0.889348 0.579184
C55_4 C 0.3755(2) 0.7745(5) 0.6113(2)
H62_4 H 0.389008 0.807327 0.636325
C56_4 C 0.3584(2) 0.6371(4) 0.5764(2)
H63_4 H 0.360110 0.571405 0.576479
C57_4 C 0.3336(2) 0.6813(4) 0.5418(2)
H64_4 H 0.318179 0.646224 0.518462
C58_4 C 0.30519(17) 0.8278(4) 0.50476(17)
C59_4 C 0.25437(17) 0.8318(4) 0.44524(17)
C61_4 C 0.28767(16) 0.9626(4) 0.47028(17)
C66_4 C 0.22266(17) 0.7838(4) 0.41207(17)
C67_4 C 0.2221(2) 0.6881(4) 0.4100(2)
H69_4 H 0.241432 0.652540 0.430065
C68_4 C 0.1930(2) 0.6448(4) 0.3783(2)
H70_4 H 0.191636 0.579121 0.377958
C69_4 C 0.1675(2) 0.7848(4) 0.3505(2)
H71_4 H 0.148193 0.819070 0.329858
C70_4 C 0.07243(17) 0.7823(4) 0.26714(17)
H72_4 H 0.091678 0.791373 0.248490
C71_4 C 0.0485(2) 0.6921(5) 0.3171(2)
H73_4 H 0.049972 0.636816 0.333717
C72_4 C 0.01677(19) 0.7576(5) 0.3201(2)
C104_4 C 0.04160(15) 0.8481(4) 0.26810(16)
H95_4 H 0.039474 0.901228 0.249982
C105_4 C 0.01428(15) 0.8356(4) 0.29550(17)
C106_4 C 0.1951(2) 0.8324(4) 0.38177(19)
H96_4 H 0.195010 0.898144 0.382248
Zn4_4 Zn 0.92042(17) 0.3831(4) 0.15637(18)
Cl7_4 Cl 0.8820(3) 0.4909(4) 0.1827(2)
Cl8_4 Cl 0.9761(3) 0.4104(8) 0.1270(3)
N17_4 N 0.92536(12) 0.0353(3) 0.30752(14)
N20_4 N 0.93821(15) 0.2870(3) 0.20163(15)
N21_4 N 0.88018(16) 0.3108(3) 0.11000(15)
N24_4 N 0.81191(13) 0.0735(3) 0.00403(14)
C75_4 C 0.95119(14) 0.0440(4) 0.27946(17)
H77_4 H 0.824366 0.028297 0.396398
C80_4 C 0.8709(2) 0.0025(6) 0.3639(3)
H78_4 H 0.866742 0.056401 0.346304
C81_4 C 0.94813(14) 0.1306(4) 0.25380(16)
C82_4 C 0.97242(17) 0.1445(4) 0.22298(16)
H79_4 H 0.993021 0.100226 0.219477
C83_4 C 0.96680(18) 0.2217(4) 0.19769(17)
H80_4 H 0.983578 0.229837 0.176529
C84_4 C 0.91627(16) 0.2768(4) 0.2324(2)
H81_4 H 0.897155 0.324230 0.236218
C85_4 C 0.91988(17) 0.1995(4) 0.2596(2)
H82_4 H 0.903576 0.194112 0.281349
C86_4 C 0.82920(15) 0.2158(4) 0.04302(15)
C87_4 C 0.84979(16) 0.1693(3) 0.07979(17)
H83_4 H 0.846840 0.104166 0.082245
C88_4 C 0.8742(2) 0.2182(4) 0.11227(19)
H84_4 H 0.887656 0.186042 0.137513
C89_4 C 0.8597(2) 0.3544(4) 0.07538(18)
H85_4 H 0.863423 0.419502 0.073727
C90_4 C 0.83327(18) 0.3114(4) 0.04138(17)
H86_4 H 0.818361 0.346094 0.017667
C91_4 C 0.80411(14) 0.1639(3) 0.00605(15)
loop_
_geom_bond_atom_site_label_1
_geom_bond_atom_site_label_2
_geom_bond_site_symmetry_1
_geom_bond_site_symmetry_2
S1 O1 1_555 1_555
O2 S1 1_555 1_555
O3 S1 1_555 1_555
C1 S1 1_555 1_555
F1 C1 1_555 1_555
F2 C1 1_555 1_555
F3 C1 1_555 1_555
S1_2 O1_2 1_555 1_555
O2_2 S1_2 1_555 1_555
O3_2 S1_2 1_555 1_555
C1_2 S1_2 1_555 1_555
F1_2 C1_2 1_555 1_555
F2_2 C1_2 1_555 1_555
F3_2 C1_2 1_555 1_555
S1_3 O1_3 1_555 1_555
O2_3 S1_3 1_555 1_555
O3_3 S1_3 1_555 1_555
C1_3 S1_3 1_555 1_555
F1_3 C1_3 1_555 1_555
F2_3 C1_3 1_555 1_555
F3_3 C1_3 1_555 1_555
S1_4 O1_4 1_555 1_555
O2_4 S1_4 1_555 1_555
O3_4 S1_4 1_555 1_555
C1_4 S1_4 1_555 1_555
F1_4 C1_4 1_555 1_555
F2_4 C1_4 1_555 1_555
F3_4 C1_4 1_555 1_555
H19 C13 1_555 1_555
C14 C13 1_555 1_555
H20 C14 1_555 1_555
C15 C14 1_555 1_555
H21 C15 1_555 1_555
H22 C16 1_555 1_555
C15 C16 1_555 1_555
H16 C10 1_555 1_555
H17 C10 1_555 1_555
C11 C10 1_555 1_555
C12 C11 1_555 1_555
H18 C12 1_555 1_555
C3 C2 1_555 1_555
H2 C3 1_555 1_555
O4 C2 1_555 1_555
H13 O4 1_555 1_555
N1 C3 1_555 1_555
C9 N1 1_555 1_555
H15 C9 1_555 1_555
H23 N1 1_555 1_555
H24 N1 1_555 1_555
H3 C4 1_555 1_555
H4 C4 1_555 1_555
C5 C4 1_555 1_555
H5 C5 1_555 1_555
H6 C5 1_555 1_555
C6 C5 1_555 1_555
H7 C6 1_555 1_555
H8 C6 1_555 1_555
C7 C6 1_555 1_555
H9 C7 1_555 1_555
H10 C7 1_555 1_555
H11 C8 1_555 1_555
H12 C8 1_555 1_555
C7 C8 1_555 1_555
C3_2 C2_2 1_555 1_555
H2_2 C3_2 1_555 1_555
O4_2 C2_2 1_555 1_555
H13_2 O4_2 1_555 1_555
N1_2 C3_2 1_555 1_555
C9_2 N1_2 1_555 1_555
H15_2 C9_2 1_555 1_555
H23_2 N1_2 1_555 1_555
H24_2 N1_2 1_555 1_555
H3_2 C4_2 1_555 1_555
H4_2 C4_2 1_555 1_555
C5_2 C4_2 1_555 1_555
H5_2 C5_2 1_555 1_555
H6_2 C5_2 1_555 1_555
C6_2 C5_2 1_555 1_555
H7_2 C6_2 1_555 1_555
H8_2 C6_2 1_555 1_555
C7_2 C6_2 1_555 1_555
H9_2 C7_2 1_555 1_555
H10_2 C7_2 1_555 1_555
H11_2 C8_2 1_555 1_555
H12_2 C8_2 1_555 1_555
C7_2 C8_2 1_555 1_555
H16_2 C10_2 1_555 1_555
H17_2 C10_2 1_555 1_555
C11_2 C10_2 1_555 1_555
C12_2 C11_2 1_555 1_555
H18_2 C12_2 1_555 1_555
H19_2 C13_2 1_555 1_555
C14_2 C13_2 1_555 1_555
H20_2 C14_2 1_555 1_555
C15_2 C14_2 1_555 1_555
H21_2 C15_2 1_555 1_555
H22_2 C16_2 1_555 1_555
C15_2 C16_2 1_555 1_555
H19_3 C13_3 1_555 1_555
C14_3 C13_3 1_555 1_555
H20_3 C14_3 1_555 1_555
C15_3 C14_3 1_555 1_555
H21_3 C15_3 1_555 1_555
H22_3 C16_3 1_555 1_555
C15_3 C16_3 1_555 1_555
C2_3 H1_3 1_555 1_555
C3_3 C2_3 1_555 1_555
H2_3 C3_3 1_555 1_555
C4_3 C3_3 1_555 1_555
H3_3 C4_3 1_555 1_555
H4_3 C4_3 1_555 1_555
C5_3 C4_3 1_555 1_555
H5_3 C5_3 1_555 1_555
H6_3 C5_3 1_555 1_555
C6_3 C5_3 1_555 1_555
H7_3 C6_3 1_555 1_555
H8_3 C6_3 1_555 1_555
C7_3 C6_3 1_555 1_555
H9_3 C7_3 1_555 1_555
H10_3 C7_3 1_555 1_555
C8_3 C2_3 1_555 1_555
H11_3 C8_3 1_555 1_555
H12_3 C8_3 1_555 1_555
O4_3 C2_3 1_555 1_555
H13_3 O4_3 1_555 1_555
N1_3 C3_3 1_555 1_555
C9_3 N1_3 1_555 1_555
H14_3 C9_3 1_555 1_555
H15_3 C9_3 1_555 1_555
C10_3 C9_3 1_555 1_555
H16_3 C10_3 1_555 1_555
H17_3 C10_3 1_555 1_555
C11_3 C10_3 1_555 1_555
C12_3 C11_3 1_555 1_555
H18_3 C12_3 1_555 1_555
H23_3 N1_3 1_555 1_555
H24_3 N1_3 1_555 1_555
C7_3 C8_3 1_555 1_555
C2_4 H1_4 1_555 1_555
C3_4 C2_4 1_555 1_555
H2_4 C3_4 1_555 1_555
C4_4 C3_4 1_555 1_555
H3_4 C4_4 1_555 1_555
H4_4 C4_4 1_555 1_555
C5_4 C4_4 1_555 1_555
H5_4 C5_4 1_555 1_555
H6_4 C5_4 1_555 1_555
C6_4 C5_4 1_555 1_555
H7_4 C6_4 1_555 1_555
H8_4 C6_4 1_555 1_555
C7_4 C6_4 1_555 1_555
H9_4 C7_4 1_555 1_555
H10_4 C7_4 1_555 1_555
C8_4 C2_4 1_555 1_555
H11_4 C8_4 1_555 1_555
H12_4 C8_4 1_555 1_555
O4_4 C2_4 1_555 1_555
H13_4 O4_4 1_555 1_555
N1_4 C3_4 1_555 1_555
C9_4 N1_4 1_555 1_555
H14_4 C9_4 1_555 1_555
H15_4 C9_4 1_555 1_555
C10_4 C9_4 1_555 1_555
H16_4 C10_4 1_555 1_555
H17_4 C10_4 1_555 1_555
C11_4 C10_4 1_555 1_555
C12_4 C11_4 1_555 1_555
H18_4 C12_4 1_555 1_555
H23_4 N1_4 1_555 1_555
H24_4 N1_4 1_555 1_555
C7_4 C8_4 1_555 1_555
H19_4 C13_4 1_555 1_555
C14_4 C13_4 1_555 1_555
H20_4 C14_4 1_555 1_555
C15_4 C14_4 1_555 1_555
H21_4 C15_4 1_555 1_555
H22_4 C16_4 1_555 1_555
C15_4 C16_4 1_555 1_555
S2 O5 1_555 1_555
O6 S2 1_555 1_555
O7 S2 1_555 1_555
C17 S2 1_555 1_555
F4 C17 1_555 1_555
F5 C17 1_555 1_555
F6 C17 1_555 1_555
S2_2 O5_2 1_555 1_555
O6_2 S2_2 1_555 1_555
O7_2 S2_2 1_555 1_555
C17_2 S2_2 1_555 1_555
F4_2 C17_2 1_555 1_555
F5_2 C17_2 1_555 1_555
F6_2 C17_2 1_555 1_555
S2_3 O5_3 1_555 1_555
O6_3 S2_3 1_555 1_555
O7_3 S2_3 1_555 1_555
C17_3 S2_3 1_555 1_555
F4_3 C17_3 1_555 1_555
F5_3 C17_3 1_555 1_555
F6_3 C17_3 1_555 1_555
S2_4 O5_4 1_555 1_555
O6_4 S2_4 1_555 1_555
O7_4 S2_4 1_555 1_555
C17_4 S2_4 1_555 1_555
F4_4 C17_4 1_555 1_555
F5_4 C17_4 1_555 1_555
F6_4 C17_4 1_555 1_555
C18 H25 1_555 1_555
C19 C18 1_555 1_555
H26 C19 1_555 1_555
C20 C19 1_555 1_555
H27 C20 1_555 1_555
H28 C20 1_555 1_555
C21 C20 1_555 1_555
H29 C21 1_555 1_555
H30 C21 1_555 1_555
C22 C21 1_555 1_555
H31 C22 1_555 1_555
H32 C22 1_555 1_555
C23 C22 1_555 1_555
H33 C23 1_555 1_555
H34 C23 1_555 1_555
C24 C18 1_555 1_555
H35 C24 1_555 1_555
H36 C24 1_555 1_555
O8 C18 1_555 1_555
H37 O8 1_555 1_555
N2 C19 1_555 1_555
C25 N2 1_555 1_555
H38 C25 1_555 1_555
H39 C25 1_555 1_555
C26 C25 1_555 1_555
H40 C26 1_555 1_555
H41 C26 1_555 1_555
C27 C26 1_555 1_555
C28 C27 1_555 1_555
H42 C28 1_555 1_555
C29 C28 1_555 1_555
H43 C29 1_555 1_555
C30 C29 1_555 1_555
H44 C30 1_555 1_555
C31 C30 1_555 1_555
H45 C31 1_555 1_555
C32 C27 1_555 1_555
H46 C32 1_555 1_555
H47 N2 1_555 1_555
H48 N2 1_555 1_555
C23 C24 1_555 1_555
C31 C32 1_555 1_555
C18_2 H25_2 1_555 1_555
C19_2 C18_2 1_555 1_555
H26_2 C19_2 1_555 1_555
C20_2 C19_2 1_555 1_555
H27_2 C20_2 1_555 1_555
H28_2 C20_2 1_555 1_555
C21_2 C20_2 1_555 1_555
H29_2 C21_2 1_555 1_555
H30_2 C21_2 1_555 1_555
C22_2 C21_2 1_555 1_555
H31_2 C22_2 1_555 1_555
H32_2 C22_2 1_555 1_555
C23_2 C22_2 1_555 1_555
H33_2 C23_2 1_555 1_555
H34_2 C23_2 1_555 1_555
C24_2 C18_2 1_555 1_555
H35_2 C24_2 1_555 1_555
H36_2 C24_2 1_555 1_555
O8_2 C18_2 1_555 1_555
H37_2 O8_2 1_555 1_555
N2_2 C19_2 1_555 1_555
C25_2 N2_2 1_555 1_555
H38_2 C25_2 1_555 1_555
H39_2 C25_2 1_555 1_555
C26_2 C25_2 1_555 1_555
H40_2 C26_2 1_555 1_555
H41_2 C26_2 1_555 1_555
C27_2 C26_2 1_555 1_555
C28_2 C27_2 1_555 1_555
H42_2 C28_2 1_555 1_555
C29_2 C28_2 1_555 1_555
H43_2 C29_2 1_555 1_555
C30_2 C29_2 1_555 1_555
H44_2 C30_2 1_555 1_555
C31_2 C30_2 1_555 1_555
H45_2 C31_2 1_555 1_555
C32_2 C27_2 1_555 1_555
H46_2 C32_2 1_555 1_555
H47_2 N2_2 1_555 1_555
H48_2 N2_2 1_555 1_555
C23_2 C24_2 1_555 1_555
C31_2 C32_2 1_555 1_555
C18_3 H25_3 1_555 1_555
C19_3 C18_3 1_555 1_555
H26_3 C19_3 1_555 1_555
C20_3 C19_3 1_555 1_555
C21_3 C20_3 1_555 1_555
H29_3 C21_3 1_555 1_555
H30_3 C21_3 1_555 1_555
C22_3 C21_3 1_555 1_555
H31_3 C22_3 1_555 1_555
H32_3 C22_3 1_555 1_555
C23_3 C22_3 1_555 1_555
H33_3 C23_3 1_555 1_555
H34_3 C23_3 1_555 1_555
C24_3 C18_3 1_555 1_555
H35_3 C24_3 1_555 1_555
H36_3 C24_3 1_555 1_555
O8_3 C18_3 1_555 1_555
H37_3 O8_3 1_555 1_555
C23_3 C24_3 1_555 1_555
C25_3 N2_3 1_555 1_555
H38_3 C25_3 1_555 1_555
H39_3 C25_3 1_555 1_555
C26_3 C25_3 1_555 1_555
H40_3 C26_3 1_555 1_555
H41_3 C26_3 1_555 1_555
C27_3 C26_3 1_555 1_555
C28_3 C27_3 1_555 1_555
H42_3 C28_3 1_555 1_555
C29_3 C28_3 1_555 1_555
H43_3 C29_3 1_555 1_555
C30_3 C29_3 1_555 1_555
H44_3 C30_3 1_555 1_555
C31_3 C30_3 1_555 1_555
H45_3 C31_3 1_555 1_555
C32_3 C27_3 1_555 1_555
H46_3 C32_3 1_555 1_555
H47_3 N2_3 1_555 1_555
H48_3 N2_3 1_555 1_555
C31_3 C32_3 1_555 1_555
C18_4 H25_4 1_555 1_555
C19_4 C18_4 1_555 1_555
H26_4 C19_4 1_555 1_555
C20_4 C19_4 1_555 1_555
C21_4 C20_4 1_555 1_555
H29_4 C21_4 1_555 1_555
H30_4 C21_4 1_555 1_555
C22_4 C21_4 1_555 1_555
H31_4 C22_4 1_555 1_555
H32_4 C22_4 1_555 1_555
C23_4 C22_4 1_555 1_555
H33_4 C23_4 1_555 1_555
H34_4 C23_4 1_555 1_555
C24_4 C18_4 1_555 1_555
H35_4 C24_4 1_555 1_555
H36_4 C24_4 1_555 1_555
O8_4 C18_4 1_555 1_555
H37_4 O8_4 1_555 1_555
C23_4 C24_4 1_555 1_555
C25_4 N2_4 1_555 1_555
H38_4 C25_4 1_555 1_555
H39_4 C25_4 1_555 1_555
C26_4 C25_4 1_555 1_555
H40_4 C26_4 1_555 1_555
H41_4 C26_4 1_555 1_555
C27_4 C26_4 1_555 1_555
C28_4 C27_4 1_555 1_555
H42_4 C28_4 1_555 1_555
C29_4 C28_4 1_555 1_555
H43_4 C29_4 1_555 1_555
C30_4 C29_4 1_555 1_555
H44_4 C30_4 1_555 1_555
C31_4 C30_4 1_555 1_555
H45_4 C31_4 1_555 1_555
C32_4 C27_4 1_555 1_555
H46_4 C32_4 1_555 1_555
H47_4 N2_4 1_555 1_555
H48_4 N2_4 1_555 1_555
C31_4 C32_4 1_555 1_555
S3 O9 1_555 1_555
O10 S3 1_555 1_555
O11 S3 1_555 1_555
C33 S3 1_555 1_555
F7 C33 1_555 1_555
F8 C33 1_555 1_555
F9 C33 1_555 1_555
S3_2 O9_2 1_555 1_555
O10_2 S3_2 1_555 1_555
O11_2 S3_2 1_555 1_555
C33_2 S3_2 1_555 1_555
F7_2 C33_2 1_555 1_555
F8_2 C33_2 1_555 1_555
F9_2 C33_2 1_555 1_555
S3_3 O9_3 1_555 1_555
O10_3 S3_3 1_555 1_555
O11_3 S3_3 1_555 1_555
C33_3 S3_3 1_555 1_555
F7_3 C33_3 1_555 1_555
F8_3 C33_3 1_555 1_555
F9_3 C33_3 1_555 1_555
S3_4 O9_4 1_555 1_555
O10_4 S3_4 1_555 1_555
O11_4 S3_4 1_555 1_555
C33_4 S3_4 1_555 1_555
F7_4 C33_4 1_555 1_555
F8_4 C33_4 1_555 1_555
F9_4 C33_4 1_555 1_555
S4 O12 1_555 1_555
O13 S4 1_555 1_555
O14 S4 1_555 1_555
F10 C34 1_555 1_555
F11 C34 1_555 1_555
F12 C34 1_555 1_555
S4_2 O12_2 1_555 1_555
O13_2 S4_2 1_555 1_555
O14_2 S4_2 1_555 1_555
F10_2 C34_2 1_555 1_555
F11_2 C34_2 1_555 1_555
F12_2 C34_2 1_555 1_555
S4_3 O12_3 1_555 1_555
O13_3 S4_3 1_555 1_555
O14_3 S4_3 1_555 1_555
C34_3 S4_3 1_555 1_555
F10_3 C34_3 1_555 1_555
F11_3 C34_3 1_555 1_555
S4_4 O12_4 1_555 1_555
O13_4 S4_4 1_555 1_555
O14_4 S4_4 1_555 1_555
C34_4 S4_4 1_555 1_555
F10_4 C34_4 1_555 1_555
F11_4 C34_4 1_555 1_555
N23 C92 1_555 1_555
N25 C96 1_555 1_555
N26 C101 1_555 1_555
C93 N22 1_555 1_555
C94 C92 1_555 1_555
C95 C94 1_555 1_555
C96 C95 1_555 1_555
C97 N25 1_555 1_555
H89 C97 1_555 1_555
C98 C94 1_555 1_555
H90 C98 1_555 1_555
C99 C93 1_555 1_555
C100 C99 1_555 1_555
H91 C100 1_555 1_555
C101 C100 1_555 1_555
H92 C101 1_555 1_555
C102 N26 1_555 1_555
H93 C102 1_555 1_555
C103 C99 1_555 1_555
H94 C103 1_555 1_555
Zn8 N26 1_555 1_555
Zn9 N25 1_555 1_555
N23 C93 1_555 1_555
C97 C98 1_555 1_555
C102 C103 1_555 1_555
Zn1 Cl1 1_555 1_555
Cl2 Zn1 1_555 1_555
Zn3 Cl5 1_555 1_555
Zn4 Cl7 1_555 1_555
Cl8 Zn4 1_555 1_555
Cl10 Zn5 1_555 1_555
N3 Zn3 1_555 1_555
C35 C36 1_555 1_555
N4 C39 1_555 1_555
C36 H49 1_555 1_555
Zn6 N7 1_555 1_555
N5 C39 1_555 1_555
C37 N3 1_555 1_555
H50 C37 1_555 1_555
C38 N3 1_555 1_555
H51 C38 1_555 1_555
N6 C41 1_555 1_555
N7 C50 1_555 1_555
C39 C35 1_555 1_555
Cl11 Zn6 1_555 1_555
C40 C35 1_555 1_555
H52 C40 1_555 1_555
Cl12 Zn6 1_555 1_555
N9 Zn6 1_555 1_555
C41 N5 1_555 1_555
N10 C58 1_555 1_555
C42 N4 1_555 1_555
N11 C59 1_555 1_555
N12 C58 1_555 1_555
N13 Zn1 1_555 1_555
N14 Zn5 1_555 1_555
N15 C73 1_555 1_555
C47 C42 1_555 1_555
N16 Zn5 1_555 1_555
C49 C47 1_555 1_555
H57 C49 1_555 1_555
N17 C74 1_555 1_555
C50 C49 1_555 1_555
H58 C50 1_555 1_555
N18 C73 1_555 1_555
C51 N7 1_555 1_555
H59 C51 1_555 1_555
N19 C78 1_555 1_555
C52 C47 1_555 1_555
H60 C52 1_555 1_555
N20 Zn4 1_555 1_555
C53 C54 1_555 1_555
N21 Zn4 1_555 1_555
C54 H61 1_555 1_555
C55 N9 1_555 1_555
H62 C55 1_555 1_555
C56 N9 1_555 1_555
H63 C56 1_555 1_555
N24 C91 1_555 1_555
C57 C53 1_555 1_555
H64 C57 1_555 1_555
C58 C53 1_555 1_555
C59 N12 1_555 1_555
C60 C61 1_555 1_555
C61 N10 1_555 1_555
C62 N13 1_555 1_555
H65 C62 1_555 1_555
C63 C60 1_555 1_555
H66 C63 1_555 1_555
C64 N13 1_555 1_555
H67 C64 1_555 1_555
C65 C60 1_555 1_555
H68 C65 1_555 1_555
C66 C59 1_555 1_555
C67 C66 1_555 1_555
H69 C67 1_555 1_555
C68 N14 1_555 1_555
H70 C68 1_555 1_555
C69 N14 1_555 1_555
H71 C69 1_555 1_555
C70 N16 1_555 1_555
H72 C70 1_555 1_555
C71 N16 1_555 1_555
H73 C71 1_555 1_555
C72 C71 1_555 1_555
H74 C72 1_555 1_555
C73 C105 1_555 1_555
C74 N18 1_555 1_555
C75 N15 1_555 1_555
C76 C74 1_555 1_555
C77 C76 1_555 1_555
H75 C77 1_555 1_555
C78 C77 1_555 1_555
H76 C78 1_555 1_555
C79 N19 1_555 1_555
H77 C79 1_555 1_555
C80 C76 1_555 1_555
H78 C80 1_555 1_555
C81 C75 1_555 1_555
C82 C81 1_555 1_555
H79 C82 1_555 1_555
C83 N20 1_555 1_555
H80 C83 1_555 1_555
C84 N20 1_555 1_555
H81 C84 1_555 1_555
C85 C81 1_555 1_555
H82 C85 1_555 1_555
C86 C87 1_555 1_555
C87 H83 1_555 1_555
C88 N21 1_555 1_555
H84 C88 1_555 1_555
C89 N21 1_555 1_555
H85 C89 1_555 1_555
C90 C86 1_555 1_555
H86 C90 1_555 1_555
C91 C86 1_555 1_555
C104 C70 1_555 1_555
H95 C104 1_555 1_555
C105 C72 1_555 1_555
C106 C66 1_555 1_555
H96 C106 1_555 1_555
Zn7 N19 1_555 1_555
N27 Zn1 1_555 1_555
N28 Zn3 1_555 1_555
C36 C37 1_555 1_555
C38 C40 1_555 1_555
N6 C42 1_555 1_555
N11 C61 1_555 1_555
N17 C75 1_555 1_555
C51 C52 1_555 1_555
C54 C55 1_555 1_555
C56 C57 1_555 1_555
C62 C63 1_555 1_555
C64 C65 1_555 1_555
C67 C68 1_555 1_555
C69 C106 1_555 1_555
C79 C80 1_555 1_555
C82 C83 1_555 1_555
C84 C85 1_555 1_555
C87 C88 1_555 1_555
C89 C90 1_555 1_555
C104 C105 1_555 1_555
Cl4 Zn8 1_555 1_555
N8 Zn8 1_555 1_555
C44 C43 1_555 1_555
H53 C44 1_555 1_555
C45 N8 1_555 1_555
H54 C45 1_555 1_555
C46 N8 1_555 1_555
H55 C46 1_555 1_555
C48 C43 1_555 1_555
C44 C45 1_555 1_555
C46 C48 1_555 1_555
N23_2 C92_2 1_555 1_555
N26_2 C101_2 1_555 1_555
C93_2 N22_2 1_555 1_555
C99_2 C93_2 1_555 1_555
C100_2 C99_2 1_555 1_555
H91_2 C100_2 1_555 1_555
C101_2 C100_2 1_555 1_555
H92_2 C101_2 1_555 1_555
C102_2 N26_2 1_555 1_555
H93_2 C102_2 1_555 1_555
C103_2 C99_2 1_555 1_555
H94_2 C103_2 1_555 1_555
Zn8_2 N26_2 1_555 1_555
N23_2 C93_2 1_555 1_555
C102_2 C103_2 1_555 1_555
N28 C96_2 1_555 1_555
C95_2 C94_2 1_555 1_555
C96_2 C95_2 1_555 1_555
C97_2 N28 1_555 1_555
H89_2 C97_2 1_555 1_555
C98_2 C94_2 1_555 1_555
H90_2 C98_2 1_555 1_555
C97_2 C98_2 1_555 1_555
N15_2 C73_2 1_555 1_555
N18_2 C73_2 1_555 1_555
N27 C78_2 1_555 1_555
C74_2 N18_2 1_555 1_555
C76_2 C74_2 1_555 1_555
C77_2 C76_2 1_555 1_555
H75_2 C77_2 1_555 1_555
C78_2 C77_2 1_555 1_555
H76_2 C78_2 1_555 1_555
C79_2 N27 1_555 1_555
Zn7 Cl1_2 1_555 1_555
Cl2_2 Zn7 1_555 1_555
Zn8_2 Cl3 1_555 1_555
Cl4_2 Zn8_2 1_555 1_555
Zn9 Cl5_2 1_555 1_555
N3_2 Zn9 1_555 1_555
N5_2 C39_2 1_555 1_555
C37_2 N3_2 1_555 1_555
C38_2 N3_2 1_555 1_555
H51_2 C38_2 1_555 1_555
N6_2 C41_2 1_555 1_555
C39_2 C35_2 1_555 1_555
N8_2 Zn8_2 1_555 1_555
C40_2 C35_2 1_555 1_555
H52_2 C40_2 1_555 1_555
C41_2 N5_2 1_555 1_555
C43_2 C41_2 1_555 1_555
C44_2 C43_2 1_555 1_555
H53_2 C44_2 1_555 1_555
C45_2 N8_2 1_555 1_555
H54_2 C45_2 1_555 1_555
N13_2 Zn7 1_555 1_555
C46_2 N8_2 1_555 1_555
H55_2 C46_2 1_555 1_555
C48_2 C43_2 1_555 1_555
H56_2 C48_2 1_555 1_555
C62_2 N13_2 1_555 1_555
H65_2 C62_2 1_555 1_555
C63_2 C60_2 1_555 1_555
H66_2 C63_2 1_555 1_555
C64_2 N13_2 1_555 1_555
H67_2 C64_2 1_555 1_555
C65_2 C60_2 1_555 1_555
H68_2 C65_2 1_555 1_555
C38_2 C40_2 1_555 1_555
C44_2 C45_2 1_555 1_555
C46_2 C48_2 1_555 1_555
C62_2 C63_2 1_555 1_555
C64_2 C65_2 1_555 1_555
Cl4_3 Zn2 1_555 1_555
N8_3 Zn2 1_555 1_555
C44_3 C43_3 1_555 1_555
H53_3 C44_3 1_555 1_555
C45_3 N8_3 1_555 1_555
H54_3 C45_3 1_555 1_555
C46_3 N8_3 1_555 1_555
H55_3 C46_3 1_555 1_555
C48_3 C43_3 1_555 1_555
N29 Zn2 1_555 1_555
C44_3 C45_3 1_555 1_555
C46_3 C48_3 1_555 1_555
Zn1_2 Cl1_3 1_555 1_555
Cl2_3 Zn1_2 1_555 1_555
Zn3_2 Cl5_3 1_555 1_555
Zn4_2 Cl7_2 1_555 1_555
Cl8_2 Zn4_2 1_555 1_555
Cl10_2 Zn5_2 1_555 1_555
N3_3 Zn3_2 1_555 1_555
C35_3 C36_2 1_555 1_555
N4_2 C39_3 1_555 1_555
C36_2 H49_2 1_555 1_555
Zn6_2 N7_2 1_555 1_555
N5_3 C39_3 1_555 1_555
C37_3 N3_3 1_555 1_555
H50_2 C37_3 1_555 1_555
C38_3 N3_3 1_555 1_555
H51_3 C38_3 1_555 1_555
N6_3 C41_3 1_555 1_555
N7_2 C50_2 1_555 1_555
C39_3 C35_3 1_555 1_555
Cl11_2 Zn6_2 1_555 1_555
C40_3 C35_3 1_555 1_555
H52_3 C40_3 1_555 1_555
Cl12_2 Zn6_2 1_555 1_555
N9_2 Zn6_2 1_555 1_555
C41_3 N5_3 1_555 1_555
N10_2 C58_2 1_555 1_555
C42_2 N4_2 1_555 1_555
N11_2 C59_2 1_555 1_555
N12_2 C58_2 1_555 1_555
N13_3 Zn1_2 1_555 1_555
N14_2 Zn5_2 1_555 1_555
N15_3 C73_3 1_555 1_555
C47_2 C42_2 1_555 1_555
N16_2 Zn5_2 1_555 1_555
C49_2 C47_2 1_555 1_555
H57_2 C49_2 1_555 1_555
N17_2 C74_3 1_555 1_555
C50_2 C49_2 1_555 1_555
H58_2 C50_2 1_555 1_555
N18_3 C73_3 1_555 1_555
C51_2 N7_2 1_555 1_555
H59_2 C51_2 1_555 1_555
N19_2 C78_3 1_555 1_555
C52_2 C47_2 1_555 1_555
H60_2 C52_2 1_555 1_555
N20_2 Zn4_2 1_555 1_555
C53_2 C54_2 1_555 1_555
N21_2 Zn4_2 1_555 1_555
C54_2 H61_2 1_555 1_555
C55_2 N9_2 1_555 1_555
H62_2 C55_2 1_555 1_555
C56_2 N9_2 1_555 1_555
H63_2 C56_2 1_555 1_555
N24_2 C91_2 1_555 1_555
C57_2 C53_2 1_555 1_555
H64_2 C57_2 1_555 1_555
C58_2 C53_2 1_555 1_555
C59_2 N12_2 1_555 1_555
C60_3 C61_2 1_555 1_555
C61_2 N10_2 1_555 1_555
C62_3 N13_3 1_555 1_555
H65_3 C62_3 1_555 1_555
C63_3 C60_3 1_555 1_555
H66_3 C63_3 1_555 1_555
C64_3 N13_3 1_555 1_555
H67_3 C64_3 1_555 1_555
C65_3 C60_3 1_555 1_555
H68_3 C65_3 1_555 1_555
C66_2 C59_2 1_555 1_555
C67_2 C66_2 1_555 1_555
H69_2 C67_2 1_555 1_555
C68_2 N14_2 1_555 1_555
H70_2 C68_2 1_555 1_555
C69_2 N14_2 1_555 1_555
H71_2 C69_2 1_555 1_555
C70_2 N16_2 1_555 1_555
H72_2 C70_2 1_555 1_555
C71_2 N16_2 1_555 1_555
H73_2 C71_2 1_555 1_555
C72_2 C71_2 1_555 1_555
H74_3 C72_2 1_555 1_555
C73_3 C105_2 1_555 1_555
C74_3 N18_3 1_555 1_555
C75_2 N15_3 1_555 1_555
C76_3 C74_3 1_555 1_555
C77_3 C76_3 1_555 1_555
H75_3 C77_3 1_555 1_555
C78_3 C77_3 1_555 1_555
H76_3 C78_3 1_555 1_555
C79_3 N19_2 1_555 1_555
H77_2 C79_3 1_555 1_555
C80_2 C76_3 1_555 1_555
H78_2 C80_2 1_555 1_555
C81_2 C75_2 1_555 1_555
C82_2 C81_2 1_555 1_555
H79_2 C82_2 1_555 1_555
C83_2 N20_2 1_555 1_555
H80_2 C83_2 1_555 1_555
C84_2 N20_2 1_555 1_555
H81_2 C84_2 1_555 1_555
C85_2 C81_2 1_555 1_555
H82_2 C85_2 1_555 1_555
C86_2 C87_2 1_555 1_555
C87_2 H83_2 1_555 1_555
C88_2 N21_2 1_555 1_555
H84_2 C88_2 1_555 1_555
C89_2 N21_2 1_555 1_555
H85_2 C89_2 1_555 1_555
C90_2 C86_2 1_555 1_555
H86_2 C90_2 1_555 1_555
C91_2 C86_2 1_555 1_555
C104_2 C70_2 1_555 1_555
H95_2 C104_2 1_555 1_555
C105_2 C72_2 1_555 1_555
C106_2 C66_2 1_555 1_555
H96_2 C106_2 1_555 1_555
Zn7_2 N19_2 1_555 1_555
N27_2 Zn1_2 1_555 1_555
N28_2 Zn3_2 1_555 1_555
C36_2 C37_3 1_555 1_555
C38_3 C40_3 1_555 1_555
N6_3 C42_2 1_555 1_555
N11_2 C61_2 1_555 1_555
N17_2 C75_2 1_555 1_555
C51_2 C52_2 1_555 1_555
C54_2 C55_2 1_555 1_555
C56_2 C57_2 1_555 1_555
C62_3 C63_3 1_555 1_555
C64_3 C65_3 1_555 1_555
C67_2 C68_2 1_555 1_555
C69_2 C106_2 1_555 1_555
C79_3 C80_2 1_555 1_555
C82_2 C83_2 1_555 1_555
C84_2 C85_2 1_555 1_555
C87_2 C88_2 1_555 1_555
C89_2 C90_2 1_555 1_555
C104_2 C105_2 1_555 1_555
N23_3 C92_3 1_555 1_555
N25_2 C96_3 1_555 1_555
N29 C101_3 1_555 1_555
C93_3 N22_3 1_555 1_555
C94_3 C92_3 1_555 1_555
C95_3 C94_3 1_555 1_555
C96_3 C95_3 1_555 1_555
C97_3 N25_2 1_555 1_555
H89_3 C97_3 1_555 1_555
C98_3 C94_3 1_555 1_555
H90_3 C98_3 1_555 1_555
C99_3 C93_3 1_555 1_555
C100_3 C99_3 1_555 1_555
H91_3 C100_3 1_555 1_555
C101_3 C100_3 1_555 1_555
H92_3 C101_3 1_555 1_555
C102_3 N29 1_555 1_555
H93_3 C102_3 1_555 1_555
C103_3 C99_3 1_555 1_555
H94_3 C103_3 1_555 1_555
Zn9_2 N25_2 1_555 1_555
N23_3 C93_3 1_555 1_555
C97_3 C98_3 1_555 1_555
C102_3 C103_3 1_555 1_555
Zn7_2 Cl1_4 1_555 1_555
Cl2_4 Zn7_2 1_555 1_555
Zn2_2 Cl3_4 1_555 1_555
Cl4_4 Zn2_2 1_555 1_555
Zn9_2 Cl5_4 1_555 1_555
N3_4 Zn9_2 1_555 1_555
N5_4 C39_4 1_555 1_555
C37_4 N3_4 1_555 1_555
C38_4 N3_4 1_555 1_555
H51_4 C38_4 1_555 1_555
N6_4 C41_4 1_555 1_555
C39_4 C35_4 1_555 1_555
N8_4 Zn2_2 1_555 1_555
C40_4 C35_4 1_555 1_555
H52_4 C40_4 1_555 1_555
C41_4 N5_4 1_555 1_555
C43_4 C41_4 1_555 1_555
C44_4 C43_4 1_555 1_555
H53_4 C44_4 1_555 1_555
C45_4 N8_4 1_555 1_555
H54_4 C45_4 1_555 1_555
N13_4 Zn7_2 1_555 1_555
C46_4 N8_4 1_555 1_555
H55_4 C46_4 1_555 1_555
C48_4 C43_4 1_555 1_555
H56_4 C48_4 1_555 1_555
C62_4 N13_4 1_555 1_555
H65_4 C62_4 1_555 1_555
C63_4 C60_4 1_555 1_555
H66_4 C63_4 1_555 1_555
C64_4 N13_4 1_555 1_555
H67_4 C64_4 1_555 1_555
C65_4 C60_4 1_555 1_555
H68_4 C65_4 1_555 1_555
N29_2 Zn2_2 1_555 1_555
C38_4 C40_4 1_555 1_555
C44_4 C45_4 1_555 1_555
C46_4 C48_4 1_555 1_555
C62_4 C63_4 1_555 1_555
C64_4 C65_4 1_555 1_555
N23_4 C92_4 1_555 1_555
N29_2 C101_4 1_555 1_555
C93_4 N22_4 1_555 1_555
C99_4 C93_4 1_555 1_555
C100_4 C99_4 1_555 1_555
H91_4 C100_4 1_555 1_555
C101_4 C100_4 1_555 1_555
H92_4 C101_4 1_555 1_555
C102_4 N29_2 1_555 1_555
H93_4 C102_4 1_555 1_555
C103_4 C99_4 1_555 1_555
H94_4 C103_4 1_555 1_555
N23_4 C93_4 1_555 1_555
C102_4 C103_4 1_555 1_555
N15_4 C73_4 1_555 1_555
N18_4 C73_4 1_555 1_555
N27_2 C78_4 1_555 1_555
C74_4 N18_4 1_555 1_555
C76_4 C74_4 1_555 1_555
C77_4 C76_4 1_555 1_555
H75_4 C77_4 1_555 1_555
C78_4 C77_4 1_555 1_555
H76_4 C78_4 1_555 1_555
C79_4 N27_2 1_555 1_555
N28_2 C96_4 1_555 1_555
C95_4 C94_4 1_555 1_555
C96_4 C95_4 1_555 1_555
C97_4 N28_2 1_555 1_555
H89_4 C97_4 1_555 1_555
C98_4 C94_4 1_555 1_555
H90_4 C98_4 1_555 1_555
C97_4 C98_4 1_555 1_555
Zn4_3 Cl7_3 1_555 1_555
Cl8_3 Zn4_3 1_555 1_555
N20_3 Zn4_3 1_555 1_555
N21_3 Zn4_3 1_555 1_555
N24_3 C91_3 1_555 1_555
H78_3 C80_3 1_555 1_555
C81_3 C75_3 1_555 1_555
C82_3 C81_3 1_555 1_555
H79_3 C82_3 1_555 1_555
C83_3 N20_3 1_555 1_555
H80_3 C83_3 1_555 1_555
C84_3 N20_3 1_555 1_555
H81_3 C84_3 1_555 1_555
C85_3 C81_3 1_555 1_555
H82_3 C85_3 1_555 1_555
C86_3 C87_3 1_555 1_555
C87_3 H83_3 1_555 1_555
C88_3 N21_3 1_555 1_555
H84_3 C88_3 1_555 1_555
C89_3 N21_3 1_555 1_555
H85_3 C89_3 1_555 1_555
C90_3 C86_3 1_555 1_555
H86_3 C90_3 1_555 1_555
C91_3 C86_3 1_555 1_555
N17_3 C75_3 1_555 1_555
C82_3 C83_3 1_555 1_555
C84_3 C85_3 1_555 1_555
C87_3 C88_3 1_555 1_555
C89_3 C90_3 1_555 1_555
Zn5_3 Cl9_3 1_555 1_555
Cl10_3 Zn5_3 1_555 1_555
C36_3 H49_3 1_555 1_555
Zn6_3 N7_3 1_555 1_555
N7_3 C50_3 1_555 1_555
Cl11_3 Zn6_3 1_555 1_555
Cl12_3 Zn6_3 1_555 1_555
N9_3 Zn6_3 1_555 1_555
N10_3 C58_3 1_555 1_555
C42_3 N4_3 1_555 1_555
N11_3 C59_3 1_555 1_555
N12_3 C58_3 1_555 1_555
N14_3 Zn5_3 1_555 1_555
C47_3 C42_3 1_555 1_555
N16_3 Zn5_3 1_555 1_555
C49_3 C47_3 1_555 1_555
H57_3 C49_3 1_555 1_555
C50_3 C49_3 1_555 1_555
H58_3 C50_3 1_555 1_555
C51_3 N7_3 1_555 1_555
H59_3 C51_3 1_555 1_555
C52_3 C47_3 1_555 1_555
H60_3 C52_3 1_555 1_555
C53_3 C54_3 1_555 1_555
C54_3 H61_3 1_555 1_555
C55_3 N9_3 1_555 1_555
H62_3 C55_3 1_555 1_555
C56_3 N9_3 1_555 1_555
H63_3 C56_3 1_555 1_555
C57_3 C53_3 1_555 1_555
H64_3 C57_3 1_555 1_555
C58_3 C53_3 1_555 1_555
C59_3 N12_3 1_555 1_555
C61_3 N10_3 1_555 1_555
C66_3 C59_3 1_555 1_555
C67_3 C66_3 1_555 1_555
H69_3 C67_3 1_555 1_555
C68_3 N14_3 1_555 1_555
H70_3 C68_3 1_555 1_555
C69_3 N14_3 1_555 1_555
H71_3 C69_3 1_555 1_555
C70_3 N16_3 1_555 1_555
H72_3 C70_3 1_555 1_555
C71_3 N16_3 1_555 1_555
H73_3 C71_3 1_555 1_555
C72_3 C71_3 1_555 1_555
C104_3 C70_3 1_555 1_555
H95_3 C104_3 1_555 1_555
C105_3 C72_3 1_555 1_555
C106_3 C66_3 1_555 1_555
H96_3 C106_3 1_555 1_555
N11_3 C61_3 1_555 1_555
C51_3 C52_3 1_555 1_555
C54_3 C55_3 1_555 1_555
C56_3 C57_3 1_555 1_555
C67_3 C68_3 1_555 1_555
C69_3 C106_3 1_555 1_555
C104_3 C105_3 1_555 1_555
Zn5_4 Cl9_4 1_555 1_555
Cl10_4 Zn5_4 1_555 1_555
C36_4 H49_4 1_555 1_555
Zn6_4 N7_4 1_555 1_555
N7_4 C50_4 1_555 1_555
Cl11_4 Zn6_4 1_555 1_555
Cl12_4 Zn6_4 1_555 1_555
N9_4 Zn6_4 1_555 1_555
N10_4 C58_4 1_555 1_555
C42_4 N4_4 1_555 1_555
N11_4 C59_4 1_555 1_555
N12_4 C58_4 1_555 1_555
N14_4 Zn5_4 1_555 1_555
C47_4 C42_4 1_555 1_555
N16_4 Zn5_4 1_555 1_555
C49_4 C47_4 1_555 1_555
H57_4 C49_4 1_555 1_555
C50_4 C49_4 1_555 1_555
H58_4 C50_4 1_555 1_555
C51_4 N7_4 1_555 1_555
H59_4 C51_4 1_555 1_555
C52_4 C47_4 1_555 1_555
H60_4 C52_4 1_555 1_555
C53_4 C54_4 1_555 1_555
C54_4 H61_4 1_555 1_555
C55_4 N9_4 1_555 1_555
H62_4 C55_4 1_555 1_555
C56_4 N9_4 1_555 1_555
H63_4 C56_4 1_555 1_555
C57_4 C53_4 1_555 1_555
H64_4 C57_4 1_555 1_555
C58_4 C53_4 1_555 1_555
C59_4 N12_4 1_555 1_555
C61_4 N10_4 1_555 1_555
C66_4 C59_4 1_555 1_555
C67_4 C66_4 1_555 1_555
H69_4 C67_4 1_555 1_555
C68_4 N14_4 1_555 1_555
H70_4 C68_4 1_555 1_555
C69_4 N14_4 1_555 1_555
H71_4 C69_4 1_555 1_555
C70_4 N16_4 1_555 1_555
H72_4 C70_4 1_555 1_555
C71_4 N16_4 1_555 1_555
H73_4 C71_4 1_555 1_555
C72_4 C71_4 1_555 1_555
C104_4 C70_4 1_555 1_555
H95_4 C104_4 1_555 1_555
C105_4 C72_4 1_555 1_555
C106_4 C66_4 1_555 1_555
H96_4 C106_4 1_555 1_555
N11_4 C61_4 1_555 1_555
C51_4 C52_4 1_555 1_555
C54_4 C55_4 1_555 1_555
C56_4 C57_4 1_555 1_555
C67_4 C68_4 1_555 1_555
C69_4 C106_4 1_555 1_555
C104_4 C105_4 1_555 1_555
Zn4_4 Cl7_4 1_555 1_555
Cl8_4 Zn4_4 1_555 1_555
N20_4 Zn4_4 1_555 1_555
N21_4 Zn4_4 1_555 1_555
N24_4 C91_4 1_555 1_555
H78_4 C80_4 1_555 1_555
C81_4 C75_4 1_555 1_555
C82_4 C81_4 1_555 1_555
H79_4 C82_4 1_555 1_555
C83_4 N20_4 1_555 1_555
H80_4 C83_4 1_555 1_555
C84_4 N20_4 1_555 1_555
H81_4 C84_4 1_555 1_555
C85_4 C81_4 1_555 1_555
H82_4 C85_4 1_555 1_555
C86_4 C87_4 1_555 1_555
C87_4 H83_4 1_555 1_555
C88_4 N21_4 1_555 1_555
H84_4 C88_4 1_555 1_555
C89_4 N21_4 1_555 1_555
H85_4 C89_4 1_555 1_555
C90_4 C86_4 1_555 1_555
H86_4 C90_4 1_555 1_555
C91_4 C86_4 1_555 1_555
N17_4 C75_4 1_555 1_555
C82_4 C83_4 1_555 1_555
C84_4 C85_4 1_555 1_555
C87_4 C88_4 1_555 1_555
C89_4 C90_4 1_555 1_555

#END
