
###############################################################################
#
# This file contains modified crystal structure data generated from the
# MOF subset of the Cambridge Structural Database (CSD) v543 
# hosted by the Cambridge Crystallographic Data Centre (CCDC).
#
# This work is licensed under the Creative Commons
# Attribution-NonCommercial-ShareAlike 4.0 International License.
# To view a copy of this license, visit
# http://creativecommons.org/licenses/by-nc-sa/4.0/
# or send a letter to
# Creative Commons, PO Box 1866, Mountain View, CA 94042, USA.
#
# CIF created using the CSD Python API on 29 September 2022
# The structure has been converted into the P1 space group
# The structure has a 3D framework
# The original CSD entry QUSJAS is in the monoclinic crystal system
# The original CSD entry QUSJAS is in a Sohncke space group
# The framework has been calculated to contain at least 10.0% void space
# The void calculation uses a probe of radius 1.32A, grid spacing 0.4
# The framework is charged, counterions have been retained in the structure
#
###############################################################################

data_QUSJAS
_chemical_formula_moiety         '(C412 H368 Cl48 F36 N104 O44 S12 Zn24 4-)n'
_symmetry_cell_setting           triclinic
_symmetry_space_group_name_H-M   'P 1'
_symmetry_Int_Tables_number      1
_space_group_name_Hall           'P 1'
loop_
_symmetry_equiv_pos_site_id
_symmetry_equiv_pos_as_xyz
1 x,y,z
_cell_length_a                   32.4056(2)
_cell_length_b                   14.44390(10)
_cell_length_c                   31.0983(2)
_cell_angle_alpha                90
_cell_angle_beta                 100.7700(10)
_cell_angle_gamma                90
_cell_volume                     14299.6
loop_
_atom_site_label
_atom_site_type_symbol
_atom_site_fract_x
_atom_site_fract_y
_atom_site_fract_z
S1 S 0.0642(2) 0.2960(5) 0.9302(2)
O1 O 0.0670(7) 0.2398(14) 0.9690(6)
O2 O 0.1025(5) 0.3228(15) 0.9164(5)
O3 O 0.0293(6) 0.2709(14) 0.8936(5)
C1 C 0.0485(6) 0.3953(18) 0.9466(6)
F1 F 0.0705(6) 0.4370(13) 0.9837(5)
F2 F 0.0085(5) 0.4044(16) 0.9555(6)
F3 F 0.0465(7) 0.4715(12) 0.9185(6)
S1_2 S 0.9358(2) 0.2960(5) 0.0698(2)
O1_2 O 0.9330(7) 0.2398(14) 0.0310(6)
O2_2 O 0.8975(5) 0.3228(15) 0.0836(5)
O3_2 O 0.9707(6) 0.2709(14) 0.1064(5)
C1_2 C 0.9515(6) 0.3953(18) 0.0534(6)
F1_2 F 0.9295(6) 0.4370(13) 0.0163(5)
F2_2 F 0.9915(5) 0.4044(16) 0.0445(6)
F3_2 F 0.9535(7) 0.4715(12) 0.0815(6)
S1_3 S 0.5642(2) 0.7960(5) 0.9302(2)
O1_3 O 0.5670(7) 0.7398(14) 0.9690(6)
O2_3 O 0.6025(5) 0.8228(15) 0.9164(5)
O3_3 O 0.5293(6) 0.7709(14) 0.8936(5)
C1_3 C 0.5485(6) 0.8953(18) 0.9466(6)
F1_3 F 0.5705(6) 0.9370(13) 0.9837(5)
F2_3 F 0.5085(5) 0.9044(16) 0.9555(6)
F3_3 F 0.5465(7) 0.9715(12) 0.9185(6)
S1_4 S 0.4358(2) 0.7960(5) 0.0698(2)
O1_4 O 0.4330(7) 0.7398(14) 0.0310(6)
O2_4 O 0.3975(5) 0.8228(15) 0.0836(5)
O3_4 O 0.4707(6) 0.7709(14) 0.1064(5)
C1_4 C 0.4515(6) 0.8953(18) 0.0534(6)
F1_4 F 0.4295(6) 0.9370(13) 0.0163(5)
F2_4 F 0.4915(5) 0.9044(16) 0.0445(6)
F3_4 F 0.4535(7) 0.9715(12) 0.0815(6)
H21 H 0.131825 0.015162 0.065725
C15 C 0.0916(6) 0.0196(14) 0.0060(6)
H22 H 0.097344 0.082464 0.000367
H12 H 0.000045 0.152469 0.889180
C8 C 0.0001(6) 0.0616(17) 0.9381(6)
H14 H 0.005235 0.109430 0.961291
C9 C 0.0397(6) 0.0156(18) 0.9340(6)
H16 H 0.058394 0.061943 0.923979
C12 C 0.0706(13) 0.841(3) 0.0260(9)
H19 H 0.059577 0.784928 0.034892
C13 C 0.1038(10) 0.8881(17) 0.0537(9)
H20 H 0.120204 0.856686 0.077819
C14 C 0.1124(6) 0.9801(13) 0.0454(6)
H17 H 0.033522 0.967601 0.910922
C10 C 0.0627(7) 0.9718(13) 0.9743(6)
C11 C 0.0546(9) 0.8802(16) 0.9857(7)
H18 H 0.037210 0.842903 0.964454
C2 C 0.9278(7) 0.1875(18) 0.8447(7)
H1 H 0.948052 0.239162 0.843279
C3 C 0.9386(7) 0.1447(16) 0.8897(7)
H2 H 0.918421 0.093384 0.892213
C4 C 0.9352(8) 0.218(2) 0.9228(9)
H3 H 0.956863 0.265972 0.922186
H4 H 0.940011 0.190334 0.952491
C5 C 0.8924(9) 0.261(2) 0.9130(8)
H5 H 0.872085 0.214032 0.919105
H6 H 0.892072 0.311916 0.934388
C6 C 0.8759(9) 0.300(2) 0.8689(9)
H7 H 0.890197 0.358578 0.864576
H8 H 0.845360 0.311244 0.865170
C7 C 0.8850(8) 0.227(2) 0.8364(10)
H9 H 0.864731 0.175289 0.836149
H10 H 0.879672 0.254612 0.806789
O4 O 0.9325(6) 0.1205(17) 0.8111(6)
H11 H 0.942404 0.070983 0.822894
N1 N 0.9825(5) 0.1059(12) 0.8940(5)
H13 H 0.982554 0.062788 0.872624
H15 H 0.979895 0.015878 0.945840
C2_2 C 0.0722(7) 0.1875(18) 0.1553(7)
H1_2 H 0.051948 0.239162 0.156721
C3_2 C 0.0614(7) 0.1447(16) 0.1103(7)
H2_2 H 0.081579 0.093384 0.107787
C4_2 C 0.0648(8) 0.218(2) 0.0772(9)
H3_2 H 0.043137 0.265972 0.077814
H4_2 H 0.059989 0.190334 0.047509
C5_2 C 0.1076(9) 0.261(2) 0.0870(8)
H5_2 H 0.127915 0.214032 0.080895
H6_2 H 0.107928 0.311916 0.065612
C6_2 C 0.1241(9) 0.300(2) 0.1311(9)
H7_2 H 0.109803 0.358578 0.135424
H8_2 H 0.154640 0.311244 0.134830
C7_2 C 0.1150(8) 0.227(2) 0.1636(10)
H9_2 H 0.135269 0.175289 0.163851
H10_2 H 0.120328 0.254612 0.193211
O4_2 O 0.0675(6) 0.1205(17) 0.1889(6)
H11_2 H 0.057596 0.070983 0.177106
N1_2 N 0.0175(5) 0.1059(12) 0.1060(5)
H13_2 H 0.017446 0.062788 0.127376
H15_2 H 0.020105 0.015878 0.054160
H12_2 H 0.999955 0.152469 0.110820
C8_2 C 0.9999(6) 0.0616(17) 0.0619(6)
H14_2 H 0.994765 0.109430 0.038709
C9_2 C 0.9603(6) 0.0156(18) 0.0660(6)
H16_2 H 0.941606 0.061943 0.076021
H21_2 H 0.868175 0.015162 0.934275
C15_2 C 0.9084(6) 0.0196(14) 0.9940(6)
H22_2 H 0.902656 0.082464 0.999633
H17_2 H 0.966478 0.967601 0.089078
C10_2 C 0.9373(7) 0.9718(13) 0.0257(6)
C11_2 C 0.9454(9) 0.8802(16) 0.0143(7)
H18_2 H 0.962790 0.842903 0.035546
C12_2 C 0.9294(13) 0.841(3) 0.9740(9)
H19_2 H 0.940423 0.784928 0.965108
C13_2 C 0.8962(10) 0.8881(17) 0.9463(9)
H20_2 H 0.879796 0.856686 0.922181
C14_2 C 0.8876(6) 0.9801(13) 0.9546(6)
C12_3 C 0.5706(13) 0.341(3) 0.0260(9)
H19_3 H 0.559577 0.284928 0.034892
C13_3 C 0.6038(10) 0.3881(17) 0.0537(9)
H20_3 H 0.620204 0.356686 0.077819
C14_3 C 0.6124(6) 0.4801(13) 0.0454(6)
H21_3 H 0.631825 0.515162 0.065725
C15_3 C 0.5916(6) 0.5196(14) 0.0060(6)
H22_3 H 0.597344 0.582464 0.000367
C2_3 C 0.4278(7) 0.6875(18) 0.8447(7)
H1_3 H 0.448052 0.739162 0.843279
C3_3 C 0.4386(7) 0.6447(16) 0.8897(7)
H2_3 H 0.418421 0.593384 0.892213
C4_3 C 0.4352(8) 0.718(2) 0.9228(9)
H3_3 H 0.456863 0.765972 0.922186
H4_3 H 0.440011 0.690334 0.952491
C5_3 C 0.3924(9) 0.761(2) 0.9130(8)
H5_3 H 0.372085 0.714032 0.919105
H6_3 H 0.392072 0.811916 0.934388
C6_3 C 0.3759(9) 0.800(2) 0.8689(9)
H7_3 H 0.390197 0.858578 0.864576
H8_3 H 0.345360 0.811244 0.865170
C7_3 C 0.3850(8) 0.727(2) 0.8364(10)
H9_3 H 0.364731 0.675289 0.836149
H10_3 H 0.379672 0.754612 0.806789
O4_3 O 0.4325(6) 0.6205(17) 0.8111(6)
H11_3 H 0.442404 0.570983 0.822894
N1_3 N 0.4825(5) 0.6059(12) 0.8940(5)
H12_3 H 0.500045 0.652469 0.889180
H13_3 H 0.482554 0.562788 0.872624
C8_3 C 0.5001(6) 0.5616(17) 0.9381(6)
H14_3 H 0.505235 0.609430 0.961291
H15_3 H 0.479895 0.515878 0.945840
C9_3 C 0.5397(6) 0.5156(18) 0.9340(6)
H16_3 H 0.558394 0.561943 0.923979
H17_3 H 0.533522 0.467601 0.910922
C10_3 C 0.5627(7) 0.4718(13) 0.9743(6)
C11_3 C 0.5546(9) 0.3802(16) 0.9857(7)
H18_3 H 0.537210 0.342903 0.964454
C2_4 C 0.5722(7) 0.6875(18) 0.1553(7)
H1_4 H 0.551948 0.739162 0.156721
C3_4 C 0.5614(7) 0.6447(16) 0.1103(7)
H2_4 H 0.581579 0.593384 0.107787
C4_4 C 0.5648(8) 0.718(2) 0.0772(9)
H3_4 H 0.543137 0.765972 0.077814
H4_4 H 0.559989 0.690334 0.047509
C5_4 C 0.6076(9) 0.761(2) 0.0870(8)
H5_4 H 0.627915 0.714032 0.080895
H6_4 H 0.607928 0.811916 0.065612
C6_4 C 0.6241(9) 0.800(2) 0.1311(9)
H7_4 H 0.609803 0.858578 0.135424
H8_4 H 0.654640 0.811244 0.134830
C7_4 C 0.6150(8) 0.727(2) 0.1636(10)
H9_4 H 0.635269 0.675289 0.163851
H10_4 H 0.620328 0.754612 0.193211
O4_4 O 0.5675(6) 0.6205(17) 0.1889(6)
H11_4 H 0.557596 0.570983 0.177106
N1_4 N 0.5175(5) 0.6059(12) 0.1060(5)
H12_4 H 0.499955 0.652469 0.110820
H13_4 H 0.517446 0.562788 0.127376
C8_4 C 0.4999(6) 0.5616(17) 0.0619(6)
H14_4 H 0.494765 0.609430 0.038709
H15_4 H 0.520105 0.515878 0.054160
C9_4 C 0.4603(6) 0.5156(18) 0.0660(6)
H16_4 H 0.441606 0.561943 0.076021
H17_4 H 0.466478 0.467601 0.089078
C10_4 C 0.4373(7) 0.4718(13) 0.0257(6)
C11_4 C 0.4454(9) 0.3802(16) 0.0143(7)
H18_4 H 0.462790 0.342903 0.035546
C12_4 C 0.4294(13) 0.341(3) 0.9740(9)
H19_4 H 0.440423 0.284928 0.965108
C13_4 C 0.3962(10) 0.3881(17) 0.9463(9)
H20_4 H 0.379796 0.356686 0.922181
C14_4 C 0.3876(6) 0.4801(13) 0.9546(6)
H21_4 H 0.368175 0.515162 0.934275
C15_4 C 0.4084(6) 0.5196(14) 0.9940(6)
H22_4 H 0.402656 0.582464 0.999633
C16 C 0.7954(7) 0.0035(19) 0.8151(7)
F4 F 0.8029(6) 0.0599(15) 0.7804(6)
F6 F 0.7917(5) 0.0677(13) 0.8464(5)
S2 S 0.8277(2) 0.9176(7) 0.8241(3)
O5 O 0.8688(4) 0.9609(15) 0.8382(7)
O6 O 0.8121(7) 0.8802(17) 0.8630(6)
O7 O 0.8209(6) 0.8607(15) 0.7852(7)
F5 F 0.7535(5) 0.9841(15) 0.7983(6)
C16_2 C 0.2046(7) 0.0035(19) 0.1849(7)
F4_2 F 0.1971(6) 0.0599(15) 0.2196(6)
F6_2 F 0.2083(5) 0.0677(13) 0.1536(5)
S2_2 S 0.1723(2) 0.9176(7) 0.1759(3)
O5_2 O 0.1312(4) 0.9609(15) 0.1618(7)
O6_2 O 0.1879(7) 0.8802(17) 0.1370(6)
O7_2 O 0.1791(6) 0.8607(15) 0.2148(7)
F5_2 F 0.2465(5) 0.9841(15) 0.2017(6)
S2_3 S 0.3277(2) 0.4176(7) 0.8241(3)
O5_3 O 0.3688(4) 0.4609(15) 0.8382(7)
O6_3 O 0.3121(7) 0.3802(17) 0.8630(6)
O7_3 O 0.3209(6) 0.3607(15) 0.7852(7)
C16_3 C 0.2954(7) 0.5035(19) 0.8151(7)
F4_3 F 0.3029(6) 0.5599(15) 0.7804(6)
F5_3 F 0.2535(5) 0.4841(15) 0.7983(6)
F6_3 F 0.2917(5) 0.5677(13) 0.8464(5)
S2_4 S 0.6723(2) 0.4176(7) 0.1759(3)
O5_4 O 0.6312(4) 0.4609(15) 0.1618(7)
O6_4 O 0.6879(7) 0.3802(17) 0.1370(6)
O7_4 O 0.6791(6) 0.3607(15) 0.2148(7)
C16_4 C 0.7046(7) 0.5035(19) 0.1849(7)
F4_4 F 0.6971(6) 0.5599(15) 0.2196(6)
F5_4 F 0.7465(5) 0.4841(15) 0.2017(6)
F6_4 F 0.7083(5) 0.5677(13) 0.1536(5)
C27 C 0.6920(11) 0.001(3) 0.6609(12)
C28 C 0.7126(13) 0.085(3) 0.6695(19)
H42 H 0.696532 0.140164 0.670090
C29 C 0.7565(13) 0.091(3) 0.6772(19)
H43 H 0.769739 0.150145 0.681296
C30 C 0.7811(11) 0.011(2) 0.6789(11)
H44 H 0.810659 0.015237 0.681278
C17 C 0.7203(9) 0.5963(19) 0.7309(10)
H23 H 0.692186 0.626190 0.728998
C18 C 0.7527(8) 0.6594(16) 0.7566(9)
H24 H 0.780621 0.628279 0.759067
C19 C 0.7441(12) 0.671(2) 0.8023(9)
H25 H 0.716731 0.701785 0.801456
H26 H 0.766321 0.709120 0.820135
C20 C 0.7436(15) 0.574(2) 0.8223(12)
H27 H 0.771015 0.544336 0.821584
H28 H 0.741447 0.581254 0.853457
C21 C 0.7095(12) 0.508(3) 0.8015(13)
H29 H 0.681070 0.533095 0.801850
H30 H 0.712515 0.446356 0.815258
C22 C 0.7197(11) 0.507(2) 0.7543(12)
H31 H 0.747633 0.477996 0.756086
H32 H 0.698968 0.466536 0.736018
O8 O 0.7274(10) 0.582(2) 0.6864(9)
H33 H 0.730228 0.525048 0.682045
N2 N 0.7554(8) 0.7508(15) 0.7342(9)
H34 H 0.777314 0.782297 0.750250
H35 H 0.731720 0.782897 0.736253
C23 C 0.7606(14) 0.756(2) 0.6870(11)
H36 H 0.774175 0.699031 0.679048
H37 H 0.732610 0.761179 0.667825
C24 C 0.7864(9) 0.837(2) 0.6796(12)
H38 H 0.796974 0.828526 0.651984
H39 H 0.810914 0.841841 0.703803
C25 C 0.7618(9) 0.9240(19) 0.6770(11)
C26 C 0.7179(9) 0.924(2) 0.6663(10)
H40 H 0.704572 0.865346 0.662261
H41 H 0.662401 0.996403 0.652031
C27_2 C 0.3080(11) 0.001(3) 0.3391(12)
C28_2 C 0.2874(13) 0.085(3) 0.3305(19)
H42_2 H 0.303468 0.140164 0.329910
C29_2 C 0.2435(13) 0.091(3) 0.3228(19)
H43_2 H 0.230261 0.150145 0.318704
C30_2 C 0.2189(11) 0.011(2) 0.3211(11)
H44_2 H 0.189341 0.015237 0.318722
C17_2 C 0.2797(9) 0.5963(19) 0.2691(10)
H23_2 H 0.307814 0.626190 0.271002
C18_2 C 0.2473(8) 0.6594(16) 0.2434(9)
H24_2 H 0.219379 0.628279 0.240933
C19_2 C 0.2559(12) 0.671(2) 0.1977(9)
H25_2 H 0.283269 0.701785 0.198544
H26_2 H 0.233679 0.709120 0.179865
C20_2 C 0.2564(15) 0.574(2) 0.1777(12)
H27_2 H 0.228985 0.544336 0.178416
H28_2 H 0.258553 0.581254 0.146543
C21_2 C 0.2905(12) 0.508(3) 0.1985(13)
H29_2 H 0.318930 0.533095 0.198150
H30_2 H 0.287485 0.446356 0.184742
C22_2 C 0.2803(11) 0.507(2) 0.2457(12)
H31_2 H 0.252367 0.477996 0.243914
H32_2 H 0.301032 0.466536 0.263982
O8_2 O 0.2726(10) 0.582(2) 0.3136(9)
H33_2 H 0.269772 0.525048 0.317955
N2_2 N 0.2446(8) 0.7508(15) 0.2658(9)
H34_2 H 0.222686 0.782297 0.249750
H35_2 H 0.268280 0.782897 0.263747
C23_2 C 0.2394(14) 0.756(2) 0.3130(11)
H36_2 H 0.225825 0.699031 0.320952
H37_2 H 0.267390 0.761179 0.332175
C24_2 C 0.2136(9) 0.837(2) 0.3204(12)
H38_2 H 0.203026 0.828526 0.348016
H39_2 H 0.189086 0.841841 0.296197
C25_2 C 0.2382(9) 0.9240(19) 0.3230(11)
C26_2 C 0.2821(9) 0.924(2) 0.3337(10)
H40_2 H 0.295428 0.865346 0.337739
H41_2 H 0.337599 0.996403 0.347969
C17_3 C 0.2203(9) 0.0963(19) 0.7309(10)
H23_3 H 0.192186 0.126190 0.728998
C18_3 C 0.2527(8) 0.1594(16) 0.7566(9)
H24_3 H 0.280621 0.128279 0.759067
C19_3 C 0.2441(12) 0.171(2) 0.8023(9)
H25_3 H 0.216731 0.201785 0.801456
H26_3 H 0.266321 0.209120 0.820135
C20_3 C 0.2436(15) 0.074(2) 0.8223(12)
H27_3 H 0.271015 0.044336 0.821584
H28_3 H 0.241447 0.081254 0.853457
C21_3 C 0.2095(12) 0.008(3) 0.8015(13)
H29_3 H 0.181070 0.033095 0.801850
C22_3 C 0.2197(11) 0.007(2) 0.7543(12)
O8_3 O 0.2274(10) 0.082(2) 0.6864(9)
H33_3 H 0.230228 0.025048 0.682045
N2_3 N 0.2554(8) 0.2508(15) 0.7342(9)
H34_3 H 0.277314 0.282297 0.750250
H35_3 H 0.231720 0.282897 0.736253
C23_3 C 0.2606(14) 0.256(2) 0.6870(11)
H36_3 H 0.274175 0.199031 0.679048
H37_3 H 0.232610 0.261179 0.667825
C24_3 C 0.2864(9) 0.337(2) 0.6796(12)
H38_3 H 0.296974 0.328526 0.651984
H39_3 H 0.310914 0.341841 0.703803
C25_3 C 0.2618(9) 0.4240(19) 0.6770(11)
C26_3 C 0.2179(9) 0.424(2) 0.6663(10)
H40_3 H 0.204572 0.365346 0.662261
C27_3 C 0.1920(11) 0.501(3) 0.6609(12)
H41_3 H 0.162401 0.496403 0.652031
C28_3 C 0.2126(13) 0.585(3) 0.6695(19)
H42_3 H 0.196532 0.640164 0.670090
C29_3 C 0.2565(13) 0.591(3) 0.6772(19)
H43_3 H 0.269739 0.650145 0.681296
C30_3 C 0.2811(11) 0.511(2) 0.6789(11)
H44_3 H 0.310659 0.515237 0.681278
H30_3 H 0.212515 0.946356 0.815258
H31_3 H 0.247633 0.977996 0.756086
H32_3 H 0.198968 0.966536 0.736018
C17_4 C 0.7797(9) 0.0963(19) 0.2691(10)
H23_4 H 0.807814 0.126190 0.271002
C18_4 C 0.7473(8) 0.1594(16) 0.2434(9)
H24_4 H 0.719379 0.128279 0.240933
C19_4 C 0.7559(12) 0.171(2) 0.1977(9)
H25_4 H 0.783269 0.201785 0.198544
H26_4 H 0.733679 0.209120 0.179865
C20_4 C 0.7564(15) 0.074(2) 0.1777(12)
H27_4 H 0.728985 0.044336 0.178416
H28_4 H 0.758553 0.081254 0.146543
C21_4 C 0.7905(12) 0.008(3) 0.1985(13)
H29_4 H 0.818930 0.033095 0.198150
C22_4 C 0.7803(11) 0.007(2) 0.2457(12)
O8_4 O 0.7726(10) 0.082(2) 0.3136(9)
H33_4 H 0.769772 0.025048 0.317955
N2_4 N 0.7446(8) 0.2508(15) 0.2658(9)
H34_4 H 0.722686 0.282297 0.249750
H35_4 H 0.768280 0.282897 0.263747
C23_4 C 0.7394(14) 0.256(2) 0.3130(11)
H36_4 H 0.725825 0.199031 0.320952
H37_4 H 0.767390 0.261179 0.332175
C24_4 C 0.7136(9) 0.337(2) 0.3204(12)
H38_4 H 0.703026 0.328526 0.348016
H39_4 H 0.689086 0.341841 0.296197
C25_4 C 0.7382(9) 0.4240(19) 0.3230(11)
C26_4 C 0.7821(9) 0.424(2) 0.3337(10)
H40_4 H 0.795428 0.365346 0.337739
C27_4 C 0.8080(11) 0.501(3) 0.3391(12)
H41_4 H 0.837599 0.496403 0.347969
C28_4 C 0.7874(13) 0.585(3) 0.3305(19)
H42_4 H 0.803468 0.640164 0.329910
C29_4 C 0.7435(13) 0.591(3) 0.3228(19)
H43_4 H 0.730261 0.650145 0.318704
C30_4 C 0.7189(11) 0.511(2) 0.3211(11)
H44_4 H 0.689341 0.515237 0.318722
H30_4 H 0.787485 0.946356 0.184742
H31_4 H 0.752367 0.977996 0.243914
H32_4 H 0.801032 0.966536 0.263982
S3 S 0.3604(7) 0.3959(14) 0.3832(8)
O9 O 0.3259(14) 0.451(3) 0.3922(18)
O10 O 0.3832(15) 0.447(3) 0.3538(16)
O11 O 0.3934(12) 0.337(3) 0.4068(16)
C31 C 0.3330(12) 0.329(2) 0.3470(12)
F7 F 0.2903(11) 0.345(3) 0.3391(16)
F8 F 0.3327(15) 0.237(2) 0.3580(16)
F9 F 0.3438(14) 0.325(3) 0.3067(12)
S3_2 S 0.6396(7) 0.3959(14) 0.6168(8)
O9_2 O 0.6741(14) 0.451(3) 0.6078(18)
O10_2 O 0.6168(15) 0.447(3) 0.6462(16)
O11_2 O 0.6066(12) 0.337(3) 0.5932(16)
C31_2 C 0.6670(12) 0.329(2) 0.6530(12)
F7_2 F 0.7097(11) 0.345(3) 0.6609(16)
F8_2 F 0.6673(15) 0.237(2) 0.6420(16)
F9_2 F 0.6562(14) 0.325(3) 0.6933(12)
S3_3 S 0.8604(7) 0.8959(14) 0.3832(8)
O9_3 O 0.8259(14) 0.951(3) 0.3922(18)
O10_3 O 0.8832(15) 0.947(3) 0.3538(16)
O11_3 O 0.8934(12) 0.837(3) 0.4068(16)
C31_3 C 0.8330(12) 0.829(2) 0.3470(12)
F7_3 F 0.7903(11) 0.845(3) 0.3391(16)
F8_3 F 0.8327(15) 0.737(2) 0.3580(16)
F9_3 F 0.8438(14) 0.825(3) 0.3067(12)
S3_4 S 0.1396(7) 0.8959(14) 0.6168(8)
O9_4 O 0.1741(14) 0.951(3) 0.6078(18)
O10_4 O 0.1168(15) 0.947(3) 0.6462(16)
O11_4 O 0.1066(12) 0.837(3) 0.5932(16)
C31_4 C 0.1670(12) 0.829(2) 0.6530(12)
F7_4 F 0.2097(11) 0.845(3) 0.6609(16)
F8_4 F 0.1673(15) 0.737(2) 0.6420(16)
F9_4 F 0.1562(14) 0.825(3) 0.6933(12)
Zn3 Zn 0.13055(5) 0.30148(9) 0.79534(6)
Cl5 Cl 0.15519(8) 0.3180(2) 0.73333(9)
Cl6 Cl 0.12065(11) 0.16306(18) 0.82142(14)
N20 N 0.07780(17) 0.3828(4) 0.7881(2)
C75 C 0.0171(2) 0.5149(5) 0.7925(3)
C76 C 0.0433(2) 0.5233(5) 0.7633(3)
H73 H 0.040785 0.574846 0.743944
C77 C 0.0738(2) 0.4562(6) 0.7617(3)
H74 H 0.092140 0.462869 0.741436
C78 C 0.0528(3) 0.3720(6) 0.8143(3)
H75 H 0.054994 0.316668 0.831137
C79 C 0.0209(3) 0.4388(7) 0.8204(3)
H76 H 0.003859 0.431021 0.841830
N28 N 0.16893(19) 0.3700(4) 0.8446(2)
Zn1 Zn 0.30457(13) 0.77756(12) 0.46169(13)
Cl1 Cl 0.3345(3) 0.7406(4) 0.52829(19)
Cl2 Cl 0.24461(16) 0.7185(3) 0.4293(3)
Zn4 Zn 0.42078(11) 0.28515(12) 0.15408(12)
Cl7 Cl 0.3850(2) 0.1747(4) 0.1805(3)
Cl8 Cl 0.47572(15) 0.2562(3) 0.12303(16)
Zn5 Zn 0.8046(3) 0.5733(6) 0.9534(3)
Cl9 Cl 0.7471(4) 0.6360(6) 0.9281(5)
N3 N 0.42521(19) 0.6337(4) 0.3094(2)
C32 C 0.4065(5) 0.8023(13) 0.3937(6)
H45 H 0.426993 0.848832 0.392565
C33 C 0.4023(3) 0.7252(7) 0.3641(3)
N4 N 0.3484(3) 0.7571(6) 0.4223(3)
N5 N 0.4577(2) 0.7803(5) 0.3292(2)
C34 C 0.3815(5) 0.8074(16) 0.4225(6)
H46 H 0.388396 0.851600 0.445279
N6 N 0.48038(18) 0.6884(5) 0.27523(19)
C35 C 0.3424(4) 0.6858(8) 0.3940(4)
H47 H 0.319250 0.645499 0.393955
N7 N 0.5754(2) 0.9651(5) 0.2932(3)
C36 C 0.4295(2) 0.7117(6) 0.3335(3)
N8 N 0.4368(2) 0.3844(4) 0.2025(2)
C37 C 0.3689(3) 0.6697(8) 0.3654(4)
H48 H 0.363769 0.618431 0.346016
N9 N 0.7619(2) 0.7496(4) 0.4355(2)
C38 C 0.4824(2) 0.7630(5) 0.3002(2)
N10 N 0.6671(2) 0.9810(5) 0.3458(3)
C39 C 0.4509(2) 0.6260(4) 0.2816(2)
N11 N 0.7778(2) 0.8929(4) 0.4735(2)
C40 C 0.44747(19) 0.5389(5) 0.2543(2)
C41 C 0.4153(3) 0.3951(6) 0.2340(3)
H49 H 0.396049 0.347931 0.238174
N12 N 0.8011(3) 0.4186(5) 0.4642(3)
N13 N 0.8153(2) 0.7552(4) 0.4984(2)
C42 C 0.4192(3) 0.4711(6) 0.2616(3)
H50 H 0.403308 0.476602 0.284226
C43 C 0.4660(2) 0.4473(6) 0.1965(3)
H51 H 0.482782 0.437776 0.174868
N14 N 0.8808(3) 0.9915(5) 0.6074(3)
C44 C 0.4713(2) 0.5277(5) 0.2231(3)
H52 H 0.491382 0.573411 0.219102
N15 N 0.9392(2) 0.9671(5) 0.6996(3)
C45 C 0.5408(2) 0.8240(5) 0.2682(3)
H53 H 0.538999 0.771078 0.249841
N16 N 0.98286(17) 0.6624(4) 0.77097(19)
C46 C 0.5140(2) 0.8339(5) 0.2970(3)
N17 N 0.92993(18) 0.7164(4) 0.8072(2)
C47 C 0.5712(3) 0.8927(6) 0.2660(3)
H54 H 0.588912 0.887408 0.244986
N18 N 0.96145(18) 0.5727(5) 0.8267(2)
C48 C 0.5169(3) 0.9149(7) 0.3217(4)
H55 H 0.496681 0.927836 0.339378
N19 N 0.8517(3) 0.5965(5) 0.9201(3)
C49 C 0.5486(3) 0.9748(7) 0.3204(4)
C50 C 0.7250(3) 0.8910(5) 0.4079(3)
N21 N 0.8033(3) 0.4341(5) 0.9630(4)
C51 C 0.6979(3) 0.8427(6) 0.3757(3)
H57 H 0.699126 0.777036 0.374242
N22 N 0.7596(2) 0.1038(4) 0.9378(2)
C52 C 0.6700(3) 0.8906(6) 0.3465(3)
H58 H 0.651312 0.856674 0.325057
C54 C 0.7567(2) 0.8418(5) 0.4406(3)
C55 C 0.7218(3) 0.9874(6) 0.4087(3)
C56 C 0.7901(3) 0.7118(5) 0.4657(3)
C57 C 0.8065(2) 0.8469(5) 0.5011(3)
C58 C 0.7951(3) 0.6083(5) 0.4650(3)
C59 C 0.7682(3) 0.5570(7) 0.4337(4)
H61 H 0.746956 0.585866 0.412865
C60 C 0.7739(4) 0.4628(7) 0.4344(5)
H62 H 0.757061 0.427213 0.412086
C61 C 0.8272(5) 0.4718(7) 0.4945(4)
H63 H 0.848814 0.443043 0.514980
C62 C 0.8224(4) 0.5653(7) 0.4953(4)
H64 H 0.838956 0.600242 0.518031
C63 C 0.8325(3) 0.9922(5) 0.5396(3)
C65 C 0.8787(4) 0.9012(6) 0.6072(4)
H67 H 0.894537 0.868390 0.631278
C66 C 0.8546(3) 0.8505(6) 0.5736(3)
H68 H 0.853242 0.784916 0.575415
C67 C 0.9511(2) 0.8105(5) 0.7515(3)
C68 C 0.9226(3) 0.8778(6) 0.7574(3)
H69 H 0.906440 0.871500 0.779828
C69 C 0.9177(3) 0.9556(6) 0.7302(4)
C70 C 0.9674(3) 0.9016(6) 0.6943(3)
H71 H 0.983273 0.910119 0.671870
C71 C 0.9744(2) 0.8231(5) 0.7196(2)
H72 H 0.994810 0.778860 0.714971
C72 C 0.9551(2) 0.7248(6) 0.7783(2)
C73 C 0.9339(2) 0.6388(6) 0.8303(3)
C74 C 0.9847(2) 0.5867(5) 0.7973(2)
C80 C 0.9057(2) 0.6237(6) 0.8623(3)
C81 C 0.9131(4) 0.5566(9) 0.8925(4)
H77 H 0.937941 0.520555 0.895464
C82 C 0.8833(5) 0.5395(9) 0.9203(5)
H78 H 0.886473 0.486863 0.938904
C83 C 0.8455(3) 0.6639(8) 0.8913(4)
H79 H 0.821970 0.703320 0.890947
C84 C 0.8711(3) 0.6804(8) 0.8616(3)
H80 H 0.865306 0.729556 0.841106
C85 C 0.7939(2) 0.2447(4) 0.9658(3)
C86 C 0.8209(3) 0.2918(6) 0.9987(3)
C87 C 0.8233(4) 0.3876(6) 0.9956(3)
C88 C 0.7766(4) 0.3913(7) 0.9319(5)
H83 H 0.760386 0.426113 0.908790
C89 C 0.7721(3) 0.2965(6) 0.9328(4)
H84 H 0.753336 0.266762 0.909865
C90 C 0.7889(2) 0.1435(4) 0.9691(3)
C91 C 0.7558(2) 0.0131(5) 0.9429(2)
C99 C 0.6978(3) 0.0135(5) 0.8781(3)
H89 H 0.697506 0.079246 0.878456
C103 C 0.8328(3) 0.8959(5) 0.5380(3)
Zn7 Zn 0.80457(13) 0.27756(12) 0.46169(13)
N27 N 0.3011(3) 0.9186(5) 0.4642(3)
N29 N 0.3788(2) 0.3617(4) 0.1098(2)
N24 N 0.77663(18) 0.9619(4) 0.9757(2)
N25 N 0.66893(19) 0.8700(4) 0.8446(2)
C98 C 0.7251(2) 0.9644(5) 0.9089(2)
C100 C 0.6704(3) 0.9638(6) 0.8459(3)
H90 H 0.652054 0.997442 0.823971
C101 C 0.7228(2) 0.8691(5) 0.9083(3)
H91 H 0.740334 0.833561 0.930167
C102 C 0.6945(2) 0.8258(5) 0.8754(3)
H92 H 0.693738 0.760019 0.875098
Zn8 Zn 0.63055(5) 0.80148(9) 0.79534(6)
N23 N 0.3119(2) 0.6001(4) 0.0019(2)
H81 H 0.337242 0.759402 0.022575
H82 H 0.340576 0.920335 0.018726
C92 C 0.3045(2) 0.5099(5) 0.0047(3)
C93 C 0.3286(2) 0.4563(5) 0.0419(2)
C94 C 0.3308(3) 0.3627(6) 0.0415(3)
H85 H 0.314369 0.328491 0.018330
C95 C 0.3572(3) 0.3174(6) 0.0748(3)
H86 H 0.360119 0.252120 0.072908
C96 C 0.3737(3) 0.4556(6) 0.1117(3)
H87 H 0.387011 0.487812 0.137202
C97 C 0.3504(3) 0.5044(5) 0.0784(3)
H88 H 0.348807 0.569951 0.079809
Cl5_2 Cl 0.65519(8) 0.8180(2) 0.73333(9)
Cl6_2 Cl 0.62065(11) 0.66306(18) 0.82142(14)
N20_2 N 0.57780(17) 0.8828(4) 0.7881(2)
N21_2 N 0.3033(3) 0.9341(5) 0.9630(4)
N22_2 N 0.2596(2) 0.6038(4) 0.9378(2)
N24_2 N 0.27663(18) 0.4619(4) 0.9757(2)
C60_2 C 0.2739(4) 0.9628(7) 0.4344(5)
H62_2 H 0.257061 0.927213 0.412086
C61_2 C 0.3272(5) 0.9718(7) 0.4945(4)
H63_2 H 0.348814 0.943043 0.514980
C77_2 C 0.5738(2) 0.9562(6) 0.7617(3)
H74_2 H 0.592140 0.962869 0.741436
C78_2 C 0.5528(3) 0.8720(6) 0.8143(3)
H75_2 H 0.554994 0.816668 0.831137
C79_2 C 0.5209(3) 0.9388(7) 0.8204(3)
H76_2 H 0.503859 0.931021 0.841830
H78_2 H 0.386473 0.986863 0.938904
C85_2 C 0.2939(2) 0.7447(4) 0.9658(3)
C86_2 C 0.3209(3) 0.7918(6) 0.9987(3)
C87_2 C 0.3233(4) 0.8876(6) 0.9956(3)
C88_2 C 0.2766(4) 0.8913(7) 0.9319(5)
H83_2 H 0.260386 0.926113 0.908790
C89_2 C 0.2721(3) 0.7965(6) 0.9328(4)
H84_2 H 0.253336 0.766762 0.909865
C90_2 C 0.2889(2) 0.6435(4) 0.9691(3)
C91_2 C 0.2558(2) 0.5131(5) 0.9429(2)
C98_2 C 0.2251(2) 0.4644(5) 0.9089(2)
C99_2 C 0.1978(3) 0.5135(5) 0.8781(3)
H89_2 H 0.197506 0.579246 0.878456
C100_2 C 0.1704(3) 0.4638(6) 0.8459(3)
H90_2 H 0.152054 0.497442 0.823971
C101_2 C 0.2228(2) 0.3691(5) 0.9083(3)
H91_2 H 0.240334 0.333561 0.930167
C102_2 C 0.1945(2) 0.3258(5) 0.8754(3)
H92_2 H 0.193738 0.260019 0.875098
Cl1_2 Cl 0.8345(3) 0.2406(4) 0.52829(19)
Cl2_2 Cl 0.74461(16) 0.2185(3) 0.4293(3)
N3_2 N 0.92521(19) 0.1337(4) 0.3094(2)
C32_2 C 0.9065(5) 0.3023(13) 0.3937(6)
H45_2 H 0.926993 0.348832 0.392565
C33_2 C 0.9023(3) 0.2252(7) 0.3641(3)
N4_2 N 0.8484(3) 0.2571(6) 0.4223(3)
N5_2 N 0.9577(2) 0.2803(5) 0.3292(2)
C34_2 C 0.8815(5) 0.3074(16) 0.4225(6)
H46_2 H 0.888396 0.351600 0.445279
N6_2 N 0.98038(18) 0.1884(5) 0.27523(19)
C35_2 C 0.8424(4) 0.1858(8) 0.3940(4)
H47_2 H 0.819250 0.145499 0.393955
C36_2 C 0.9295(2) 0.2117(6) 0.3335(3)
C37_2 C 0.8689(3) 0.1697(8) 0.3654(4)
H48_2 H 0.863769 0.118431 0.346016
C38_2 C 0.9824(2) 0.2630(5) 0.3002(2)
C39_2 C 0.9509(2) 0.1260(4) 0.2816(2)
C40_2 C 0.94747(19) 0.0389(5) 0.2543(2)
C44_2 C 0.9713(2) 0.0277(5) 0.2231(3)
H52_2 H 0.991382 0.073411 0.219102
H55_2 H 0.996681 0.427836 0.339378
Zn2 Zn 0.62570(4) 0.05264(10) 0.29942(6)
Cl3 Cl 0.64794(9) 0.0417(3) 0.23688(12)
Cl4 Cl 0.61194(11) 0.18519(18) 0.32969(13)
Zn6 Zn 0.9194(2) 0.0705(3) 0.65469(19)
Cl11 Cl 0.9745(4) 0.1063(8) 0.6242(3)
Cl12 Cl 0.8802(3) 0.1699(3) 0.6828(3)
H56 H 0.551866 0.026192 0.339774
C53 C 0.6925(3) 0.0301(6) 0.3775(3)
H59 H 0.689924 0.095540 0.378096
H60 H 0.739684 0.022672 0.430335
H65 H 0.815989 0.027241 0.516775
C64 C 0.8567(3) 0.0354(5) 0.5749(3)
H66 H 0.856052 0.101096 0.575985
H70 H 0.897799 0.001529 0.734318
Cl10 Cl 0.8406(5) 0.6124(6) 0.0275(3)
N23_2 N 0.8119(2) 0.1001(4) 0.0019(2)
H81_2 H 0.837242 0.259402 0.022575
H82_2 H 0.840576 0.420335 0.018726
C92_2 C 0.8045(2) 0.0099(5) 0.0047(3)
C97_2 C 0.8504(3) 0.0044(5) 0.0784(3)
H88_2 H 0.848807 0.069951 0.079809
N26 N 0.8788(2) 0.8617(4) 0.1098(2)
C93_2 C 0.8286(2) 0.9563(5) 0.0419(2)
C94_2 C 0.8308(3) 0.8627(6) 0.0415(3)
H85_2 H 0.814369 0.828491 0.018330
C95_2 C 0.8572(3) 0.8174(6) 0.0748(3)
H86_2 H 0.860119 0.752120 0.072908
C96_2 C 0.8737(3) 0.9556(6) 0.1117(3)
H87_2 H 0.887011 0.987812 0.137202
Zn9 Zn 0.92078(11) 0.78515(12) 0.15408(12)
Cl7_2 Cl 0.8850(2) 0.6747(4) 0.1805(3)
Cl8_2 Cl 0.97572(15) 0.7562(3) 0.12303(16)
N8_2 N 0.9368(2) 0.8844(4) 0.2025(2)
C41_2 C 0.9153(3) 0.8951(6) 0.2340(3)
H49_2 H 0.896049 0.847931 0.238174
C42_2 C 0.9192(3) 0.9711(6) 0.2616(3)
H50_2 H 0.903308 0.976602 0.284226
C43_2 C 0.9660(2) 0.9473(6) 0.1965(3)
H51_2 H 0.982782 0.937776 0.174868
Zn2_2 Zn 0.37430(4) 0.05264(10) 0.70058(6)
Cl3_2 Cl 0.35206(9) 0.0417(3) 0.76312(12)
Cl4_2 Cl 0.38806(11) 0.18519(18) 0.67031(13)
Zn6_2 Zn 0.0806(2) 0.0705(3) 0.34531(19)
Cl11_2 Cl 0.0255(4) 0.1063(8) 0.3758(3)
Cl12_2 Cl 0.1198(3) 0.1699(3) 0.3172(3)
H56_2 H 0.448134 0.026192 0.660226
C53_2 C 0.3075(3) 0.0301(6) 0.6225(3)
H59_2 H 0.310076 0.095540 0.621904
H60_2 H 0.260316 0.022672 0.569665
H65_2 H 0.184011 0.027241 0.483225
C64_2 C 0.1433(3) 0.0354(5) 0.4251(3)
H66_2 H 0.143948 0.101096 0.424015
H70_2 H 0.102201 0.001529 0.265682
Zn1_2 Zn 0.69543(13) 0.77756(12) 0.53831(13)
Cl1_3 Cl 0.6655(3) 0.7406(4) 0.47171(19)
Cl2_3 Cl 0.75539(16) 0.7185(3) 0.5707(3)
Zn4_2 Zn 0.57922(11) 0.28515(12) 0.84592(12)
Cl7_3 Cl 0.6150(2) 0.1747(4) 0.8195(3)
Cl8_3 Cl 0.52428(15) 0.2562(3) 0.87697(16)
Zn5_2 Zn 0.1954(3) 0.5733(6) 0.0466(3)
Cl9_2 Cl 0.2529(4) 0.6360(6) 0.0719(5)
N3_3 N 0.57479(19) 0.6337(4) 0.6906(2)
C32_3 C 0.5935(5) 0.8023(13) 0.6063(6)
H45_3 H 0.573007 0.848832 0.607435
C33_3 C 0.5977(3) 0.7252(7) 0.6359(3)
N4_3 N 0.6516(3) 0.7571(6) 0.5777(3)
N5_3 N 0.5423(2) 0.7803(5) 0.6708(2)
C34_3 C 0.6185(5) 0.8074(16) 0.5775(6)
H46_3 H 0.611604 0.851600 0.554721
N6_3 N 0.51962(18) 0.6884(5) 0.72477(19)
C35_3 C 0.6576(4) 0.6858(8) 0.6060(4)
H47_3 H 0.680750 0.645499 0.606045
N7_2 N 0.4246(2) 0.9651(5) 0.7068(3)
C36_3 C 0.5705(2) 0.7117(6) 0.6665(3)
N8_3 N 0.5632(2) 0.3844(4) 0.7975(2)
C37_3 C 0.6311(3) 0.6697(8) 0.6346(4)
H48_3 H 0.636231 0.618431 0.653984
N9_2 N 0.2381(2) 0.7496(4) 0.5645(2)
C38_3 C 0.5176(2) 0.7630(5) 0.6998(2)
N10_2 N 0.3329(2) 0.9810(5) 0.6542(3)
C39_3 C 0.5491(2) 0.6260(4) 0.7184(2)
N11_2 N 0.2222(2) 0.8929(4) 0.5265(2)
C40_3 C 0.55253(19) 0.5389(5) 0.7457(2)
C41_3 C 0.5847(3) 0.3951(6) 0.7660(3)
H49_3 H 0.603951 0.347931 0.761826
N12_2 N 0.1989(3) 0.4186(5) 0.5358(3)
N13_2 N 0.1847(2) 0.7552(4) 0.5016(2)
C42_3 C 0.5808(3) 0.4711(6) 0.7384(3)
H50_3 H 0.596692 0.476602 0.715774
C43_3 C 0.5340(2) 0.4473(6) 0.8035(3)
H51_3 H 0.517218 0.437776 0.825132
N14_2 N 0.1192(3) 0.9915(5) 0.3926(3)
C44_3 C 0.5287(2) 0.5277(5) 0.7769(3)
H52_3 H 0.508618 0.573411 0.780898
N15_2 N 0.0608(2) 0.9671(5) 0.3004(3)
C45_2 C 0.4592(2) 0.8240(5) 0.7318(3)
H53_2 H 0.461001 0.771078 0.750159
N16_2 N 0.01714(17) 0.6624(4) 0.22903(19)
C46_2 C 0.4860(2) 0.8339(5) 0.7030(3)
N17_2 N 0.07007(18) 0.7164(4) 0.1928(2)
C47_2 C 0.4288(3) 0.8927(6) 0.7340(3)
H54_2 H 0.411088 0.887408 0.755014
N18_2 N 0.03855(18) 0.5727(5) 0.1733(2)
C48_2 C 0.4831(3) 0.9149(7) 0.6783(4)
H55_3 H 0.503319 0.927836 0.660622
N19_2 N 0.1483(3) 0.5965(5) 0.0799(3)
C49_2 C 0.4514(3) 0.9748(7) 0.6796(4)
C50_2 C 0.2750(3) 0.8910(5) 0.5921(3)
N21_3 N 0.1967(3) 0.4341(5) 0.0370(4)
C51_2 C 0.3021(3) 0.8427(6) 0.6243(3)
H57_2 H 0.300874 0.777036 0.625758
N22_3 N 0.2404(2) 0.1038(4) 0.0622(2)
C52_2 C 0.3300(3) 0.8906(6) 0.6535(3)
H58_2 H 0.348688 0.856674 0.674943
C54_2 C 0.2433(2) 0.8418(5) 0.5594(3)
C55_2 C 0.2782(3) 0.9874(6) 0.5913(3)
C56_2 C 0.2099(3) 0.7118(5) 0.5343(3)
C57_2 C 0.1935(2) 0.8469(5) 0.4989(3)
C58_2 C 0.2049(3) 0.6083(5) 0.5350(3)
C59_2 C 0.2318(3) 0.5570(7) 0.5663(4)
H61_2 H 0.253044 0.585866 0.587135
C60_3 C 0.2261(4) 0.4628(7) 0.5656(5)
H62_3 H 0.242939 0.427213 0.587914
C61_3 C 0.1728(5) 0.4718(7) 0.5055(4)
H63_3 H 0.151186 0.443043 0.485020
C62_2 C 0.1776(4) 0.5653(7) 0.5047(4)
H64_2 H 0.161044 0.600242 0.481969
C63_2 C 0.1675(3) 0.9922(5) 0.4604(3)
C65_2 C 0.1213(4) 0.9012(6) 0.3928(4)
H67_2 H 0.105463 0.868390 0.368722
C66_2 C 0.1454(3) 0.8505(6) 0.4264(3)
H68_2 H 0.146758 0.784916 0.424585
C67_2 C 0.0489(2) 0.8105(5) 0.2485(3)
C68_2 C 0.0774(3) 0.8778(6) 0.2426(3)
H69_2 H 0.093560 0.871500 0.220172
C69_2 C 0.0823(3) 0.9556(6) 0.2698(4)
C70_2 C 0.0326(3) 0.9016(6) 0.3057(3)
H71_2 H 0.016727 0.910119 0.328130
C71_2 C 0.0256(2) 0.8231(5) 0.2804(2)
H72_2 H 0.005190 0.778860 0.285029
C72_2 C 0.0449(2) 0.7248(6) 0.2217(2)
C73_2 C 0.0661(2) 0.6388(6) 0.1697(3)
C74_2 C 0.0153(2) 0.5867(5) 0.2027(2)
C80_2 C 0.0943(2) 0.6237(6) 0.1377(3)
C81_2 C 0.0869(4) 0.5566(9) 0.1075(4)
H77_2 H 0.062059 0.520555 0.104536
C82_2 C 0.1167(5) 0.5395(9) 0.0797(5)
H78_3 H 0.113527 0.486863 0.061096
C83_2 C 0.1545(3) 0.6639(8) 0.1087(4)
H79_2 H 0.178030 0.703320 0.109053
C84_2 C 0.1289(3) 0.6804(8) 0.1384(3)
H80_2 H 0.134694 0.729556 0.158894
C85_3 C 0.2061(2) 0.2447(4) 0.0342(3)
C86_3 C 0.1791(3) 0.2918(6) 0.0013(3)
C87_3 C 0.1767(4) 0.3876(6) 0.0044(3)
C88_3 C 0.2234(4) 0.3913(7) 0.0681(5)
H83_3 H 0.239614 0.426113 0.091210
C89_3 C 0.2279(3) 0.2965(6) 0.0672(4)
H84_3 H 0.246664 0.266762 0.090135
C90_3 C 0.2111(2) 0.1435(4) 0.0309(3)
C91_3 C 0.2442(2) 0.0131(5) 0.0571(2)
C99_3 C 0.3022(3) 0.0135(5) 0.1219(3)
H89_3 H 0.302494 0.079246 0.121544
C103_2 C 0.1672(3) 0.8959(5) 0.4620(3)
Zn7_2 Zn 0.19543(13) 0.27756(12) 0.53831(13)
N27_2 N 0.6989(3) 0.9186(5) 0.5358(3)
N29_2 N 0.6212(2) 0.3617(4) 0.8902(2)
N24_3 N 0.22337(18) 0.9619(4) 0.0243(2)
N25_2 N 0.33107(19) 0.8700(4) 0.1554(2)
C98_3 C 0.2749(2) 0.9644(5) 0.0911(2)
C100_3 C 0.3296(3) 0.9638(6) 0.1541(3)
H90_3 H 0.347946 0.997442 0.176029
C101_3 C 0.2772(2) 0.8691(5) 0.0917(3)
H91_3 H 0.259666 0.833561 0.069833
C102_3 C 0.3055(2) 0.8258(5) 0.1246(3)
H92_3 H 0.306262 0.760019 0.124902
Zn8_2 Zn 0.36945(5) 0.80148(9) 0.20466(6)
Zn3_2 Zn 0.86945(5) 0.30148(9) 0.20466(6)
Cl5_3 Cl 0.84481(8) 0.3180(2) 0.26667(9)
Cl6_3 Cl 0.87935(11) 0.16306(18) 0.17858(14)
N20_3 N 0.92220(17) 0.3828(4) 0.2119(2)
C75_2 C 0.9829(2) 0.5149(5) 0.2075(3)
C76_2 C 0.9567(2) 0.5233(5) 0.2367(3)
H73_2 H 0.959215 0.574846 0.256056
C77_3 C 0.9262(2) 0.4562(6) 0.2383(3)
H74_3 H 0.907860 0.462869 0.258564
C78_3 C 0.9472(3) 0.3720(6) 0.1857(3)
H75_3 H 0.945006 0.316668 0.168863
C79_3 C 0.9791(3) 0.4388(7) 0.1796(3)
H76_3 H 0.996141 0.431021 0.158170
N28_2 N 0.83107(19) 0.3700(4) 0.1554(2)
Cl1_4 Cl 0.1655(3) 0.2406(4) 0.47171(19)
Cl2_4 Cl 0.25539(16) 0.2185(3) 0.5707(3)
N3_4 N 0.07479(19) 0.1337(4) 0.6906(2)
C32_4 C 0.0935(5) 0.3023(13) 0.6063(6)
H45_4 H 0.073007 0.348832 0.607435
C33_4 C 0.0977(3) 0.2252(7) 0.6359(3)
N4_4 N 0.1516(3) 0.2571(6) 0.5777(3)
N5_4 N 0.0423(2) 0.2803(5) 0.6708(2)
C34_4 C 0.1185(5) 0.3074(16) 0.5775(6)
H46_4 H 0.111604 0.351600 0.554721
N6_4 N 0.01962(18) 0.1884(5) 0.72477(19)
C35_4 C 0.1576(4) 0.1858(8) 0.6060(4)
H47_4 H 0.180750 0.145499 0.606045
C36_4 C 0.0705(2) 0.2117(6) 0.6665(3)
C37_4 C 0.1311(3) 0.1697(8) 0.6346(4)
H48_4 H 0.136231 0.118431 0.653984
C38_4 C 0.0176(2) 0.2630(5) 0.6998(2)
C39_4 C 0.0491(2) 0.1260(4) 0.7184(2)
C40_4 C 0.05253(19) 0.0389(5) 0.7457(2)
C44_4 C 0.0287(2) 0.0277(5) 0.7769(3)
H52_4 H 0.008618 0.073411 0.780898
H55_4 H 0.003319 0.427836 0.660622
Cl5_4 Cl 0.34481(8) 0.8180(2) 0.26667(9)
Cl6_4 Cl 0.37935(11) 0.66306(18) 0.17858(14)
N20_4 N 0.42220(17) 0.8828(4) 0.2119(2)
N21_4 N 0.6967(3) 0.9341(5) 0.0370(4)
N22_4 N 0.7404(2) 0.6038(4) 0.0622(2)
N24_4 N 0.72337(18) 0.4619(4) 0.0243(2)
C60_4 C 0.7261(4) 0.9628(7) 0.5656(5)
H62_4 H 0.742939 0.927213 0.587914
C61_4 C 0.6728(5) 0.9718(7) 0.5055(4)
H63_4 H 0.651186 0.943043 0.485020
C77_4 C 0.4262(2) 0.9562(6) 0.2383(3)
H74_4 H 0.407860 0.962869 0.258564
C78_4 C 0.4472(3) 0.8720(6) 0.1857(3)
H75_4 H 0.445006 0.816668 0.168863
C79_4 C 0.4791(3) 0.9388(7) 0.1796(3)
H76_4 H 0.496141 0.931021 0.158170
H78_4 H 0.613527 0.986863 0.061096
C85_4 C 0.7061(2) 0.7447(4) 0.0342(3)
C86_4 C 0.6791(3) 0.7918(6) 0.0013(3)
C87_4 C 0.6767(4) 0.8876(6) 0.0044(3)
C88_4 C 0.7234(4) 0.8913(7) 0.0681(5)
H83_4 H 0.739614 0.926113 0.091210
C89_4 C 0.7279(3) 0.7965(6) 0.0672(4)
H84_4 H 0.746664 0.766762 0.090135
C90_4 C 0.7111(2) 0.6435(4) 0.0309(3)
C91_4 C 0.7442(2) 0.5131(5) 0.0571(2)
C98_4 C 0.7749(2) 0.4644(5) 0.0911(2)
C99_4 C 0.8022(3) 0.5135(5) 0.1219(3)
H89_4 H 0.802494 0.579246 0.121544
C100_4 C 0.8296(3) 0.4638(6) 0.1541(3)
H90_4 H 0.847946 0.497442 0.176029
C101_4 C 0.7772(2) 0.3691(5) 0.0917(3)
H91_4 H 0.759666 0.333561 0.069833
C102_4 C 0.8055(2) 0.3258(5) 0.1246(3)
H92_4 H 0.806262 0.260019 0.124902
N23_3 N 0.6881(2) 0.6001(4) 0.9981(2)
H81_3 H 0.662758 0.759402 0.977425
H82_3 H 0.659424 0.920335 0.981274
C92_3 C 0.6955(2) 0.5099(5) 0.9953(3)
C93_3 C 0.6714(2) 0.4563(5) 0.9581(2)
C94_3 C 0.6692(3) 0.3627(6) 0.9585(3)
H85_3 H 0.685631 0.328491 0.981670
C95_3 C 0.6428(3) 0.3174(6) 0.9252(3)
H86_3 H 0.639881 0.252120 0.927092
C96_3 C 0.6263(3) 0.4556(6) 0.8883(3)
H87_3 H 0.612989 0.487812 0.862798
C97_3 C 0.6496(3) 0.5044(5) 0.9216(3)
H88_3 H 0.651193 0.569951 0.920191
Cl10_2 Cl 0.1594(5) 0.6124(6) 0.9725(3)
N23_4 N 0.1881(2) 0.1001(4) 0.9981(2)
H81_4 H 0.162758 0.259402 0.977425
H82_4 H 0.159424 0.420335 0.981274
C92_4 C 0.1955(2) 0.0099(5) 0.9953(3)
C97_4 C 0.1496(3) 0.0044(5) 0.9216(3)
H88_4 H 0.151193 0.069951 0.920191
N26_2 N 0.1212(2) 0.8617(4) 0.8902(2)
C93_4 C 0.1714(2) 0.9563(5) 0.9581(2)
C94_4 C 0.1692(3) 0.8627(6) 0.9585(3)
H85_4 H 0.185631 0.828491 0.981670
C95_4 C 0.1428(3) 0.8174(6) 0.9252(3)
H86_4 H 0.139881 0.752120 0.927092
C96_4 C 0.1263(3) 0.9556(6) 0.8883(3)
H87_4 H 0.112989 0.987812 0.862798
Zn9_2 Zn 0.07922(11) 0.78515(12) 0.84592(12)
Cl7_4 Cl 0.1150(2) 0.6747(4) 0.8195(3)
Cl8_4 Cl 0.02428(15) 0.7562(3) 0.87697(16)
N8_4 N 0.0632(2) 0.8844(4) 0.7975(2)
C41_4 C 0.0847(3) 0.8951(6) 0.7660(3)
H49_4 H 0.103951 0.847931 0.761826
C42_4 C 0.0808(3) 0.9711(6) 0.7384(3)
H50_4 H 0.096692 0.976602 0.715774
C43_4 C 0.0340(2) 0.9473(6) 0.8035(3)
H51_4 H 0.017218 0.937776 0.825132
Cl10_3 Cl 0.3406(5) 0.1124(6) 0.0275(3)
Zn2_3 Zn 0.12570(4) 0.55264(10) 0.29942(6)
Cl3_3 Cl 0.14794(9) 0.5417(3) 0.23688(12)
Cl4_3 Cl 0.11194(11) 0.68519(18) 0.32969(13)
Zn5_3 Zn 0.3046(3) 0.0733(6) 0.9534(3)
Cl9_3 Cl 0.2471(4) 0.1360(6) 0.9281(5)
Zn6_3 Zn 0.4194(2) 0.5705(3) 0.65469(19)
Cl11_3 Cl 0.4745(4) 0.6063(8) 0.6242(3)
Cl12_3 Cl 0.3802(3) 0.6699(3) 0.6828(3)
N7_3 N 0.0754(2) 0.4651(5) 0.2932(3)
N9_3 N 0.2619(2) 0.2496(4) 0.4355(2)
N10_3 N 0.1671(2) 0.4810(5) 0.3458(3)
N11_3 N 0.2778(2) 0.3929(4) 0.4735(2)
N13_3 N 0.3153(2) 0.2552(4) 0.4984(2)
N14_3 N 0.3808(3) 0.4915(5) 0.6074(3)
N15_3 N 0.4392(2) 0.4671(5) 0.6996(3)
C45_3 C 0.0408(2) 0.3240(5) 0.2682(3)
H53_3 H 0.038999 0.271078 0.249841
N16_3 N 0.48286(17) 0.1624(4) 0.77097(19)
C46_3 C 0.0140(2) 0.3339(5) 0.2970(3)
N17_3 N 0.42993(18) 0.2164(4) 0.8072(2)
C47_3 C 0.0712(3) 0.3927(6) 0.2660(3)
H54_3 H 0.088912 0.387408 0.244986
N18_3 N 0.46145(18) 0.0727(5) 0.8267(2)
C48_3 C 0.0169(3) 0.4149(7) 0.3217(4)
N19_3 N 0.3517(3) 0.0965(5) 0.9201(3)
C49_3 C 0.0486(3) 0.4748(7) 0.3204(4)
H56_3 H 0.051866 0.526192 0.339774
C50_3 C 0.2250(3) 0.3910(5) 0.4079(3)
C51_3 C 0.1979(3) 0.3427(6) 0.3757(3)
H57_3 H 0.199126 0.277036 0.374242
C52_3 C 0.1700(3) 0.3906(6) 0.3465(3)
H58_3 H 0.151312 0.356674 0.325057
C53_3 C 0.1925(3) 0.5301(6) 0.3775(3)
H59_3 H 0.189924 0.595540 0.378096
C54_3 C 0.2567(2) 0.3418(5) 0.4406(3)
C55_3 C 0.2218(3) 0.4874(6) 0.4087(3)
H60_3 H 0.239684 0.522672 0.430335
C56_3 C 0.2901(3) 0.2118(5) 0.4657(3)
C57_3 C 0.3065(2) 0.3469(5) 0.5011(3)
C58_3 C 0.2951(3) 0.1083(5) 0.4650(3)
C59_3 C 0.2682(3) 0.0570(7) 0.4337(4)
H61_3 H 0.246956 0.085866 0.412865
C62_3 C 0.3224(4) 0.0653(7) 0.4953(4)
H64_3 H 0.338956 0.100242 0.518031
C63_3 C 0.3325(3) 0.4922(5) 0.5396(3)
H65_3 H 0.315989 0.527241 0.516775
C64_3 C 0.3567(3) 0.5354(5) 0.5749(3)
H66_3 H 0.356052 0.601096 0.575985
C65_3 C 0.3787(4) 0.4012(6) 0.6072(4)
H67_3 H 0.394537 0.368390 0.631278
C66_3 C 0.3546(3) 0.3505(6) 0.5736(3)
H68_3 H 0.353242 0.284916 0.575415
C67_3 C 0.4511(2) 0.3105(5) 0.7515(3)
C68_3 C 0.4226(3) 0.3778(6) 0.7574(3)
H69_3 H 0.406440 0.371500 0.779828
C69_3 C 0.4177(3) 0.4556(6) 0.7302(4)
H70_3 H 0.397799 0.501529 0.734318
C70_3 C 0.4674(3) 0.4016(6) 0.6943(3)
H71_3 H 0.483273 0.410119 0.671870
C71_3 C 0.4744(2) 0.3231(5) 0.7196(2)
H72_3 H 0.494810 0.278860 0.714971
C72_3 C 0.4551(2) 0.2248(6) 0.7783(2)
C73_3 C 0.4339(2) 0.1388(6) 0.8303(3)
C74_3 C 0.4847(2) 0.0867(5) 0.7973(2)
C75_3 C 0.5171(2) 0.0149(5) 0.7925(3)
C76_3 C 0.5433(2) 0.0233(5) 0.7633(3)
H73_3 H 0.540785 0.074846 0.743944
C80_3 C 0.4057(2) 0.1237(6) 0.8623(3)
C81_3 C 0.4131(4) 0.0566(9) 0.8925(4)
H77_3 H 0.437941 0.020555 0.895464
C82_3 C 0.3833(5) 0.0395(9) 0.9203(5)
C83_3 C 0.3455(3) 0.1639(8) 0.8913(4)
H79_3 H 0.321970 0.203320 0.890947
C84_3 C 0.3711(3) 0.1804(8) 0.8616(3)
H80_3 H 0.365306 0.229556 0.841106
C103_3 C 0.3328(3) 0.3959(5) 0.5380(3)
Zn2_4 Zn 0.87430(4) 0.55264(10) 0.70058(6)
Cl3_4 Cl 0.85206(9) 0.5417(3) 0.76312(12)
Cl4_4 Cl 0.88806(11) 0.68519(18) 0.67031(13)
Zn5_4 Zn 0.6954(3) 0.0733(6) 0.0466(3)
Cl9_4 Cl 0.7529(4) 0.1360(6) 0.0719(5)
Zn6_4 Zn 0.5806(2) 0.5705(3) 0.34531(19)
Cl11_4 Cl 0.5255(4) 0.6063(8) 0.3758(3)
Cl12_4 Cl 0.6198(3) 0.6699(3) 0.3172(3)
N7_4 N 0.9246(2) 0.4651(5) 0.7068(3)
N9_4 N 0.7381(2) 0.2496(4) 0.5645(2)
N10_4 N 0.8329(2) 0.4810(5) 0.6542(3)
N11_4 N 0.7222(2) 0.3929(4) 0.5265(2)
N13_4 N 0.6847(2) 0.2552(4) 0.5016(2)
N14_4 N 0.6192(3) 0.4915(5) 0.3926(3)
N15_4 N 0.5608(2) 0.4671(5) 0.3004(3)
C45_4 C 0.9592(2) 0.3240(5) 0.7318(3)
H53_4 H 0.961001 0.271078 0.750159
N16_4 N 0.51714(17) 0.1624(4) 0.22903(19)
C46_4 C 0.9860(2) 0.3339(5) 0.7030(3)
N17_4 N 0.57007(18) 0.2164(4) 0.1928(2)
C47_4 C 0.9288(3) 0.3927(6) 0.7340(3)
H54_4 H 0.911088 0.387408 0.755014
N18_4 N 0.53855(18) 0.0727(5) 0.1733(2)
C48_4 C 0.9831(3) 0.4149(7) 0.6783(4)
N19_4 N 0.6483(3) 0.0965(5) 0.0799(3)
C49_4 C 0.9514(3) 0.4748(7) 0.6796(4)
H56_4 H 0.948134 0.526192 0.660226
C50_4 C 0.7750(3) 0.3910(5) 0.5921(3)
C51_4 C 0.8021(3) 0.3427(6) 0.6243(3)
H57_4 H 0.800874 0.277036 0.625758
C52_4 C 0.8300(3) 0.3906(6) 0.6535(3)
H58_4 H 0.848688 0.356674 0.674943
C53_4 C 0.8075(3) 0.5301(6) 0.6225(3)
H59_4 H 0.810076 0.595540 0.621904
C54_4 C 0.7433(2) 0.3418(5) 0.5594(3)
C55_4 C 0.7782(3) 0.4874(6) 0.5913(3)
H60_4 H 0.760316 0.522672 0.569665
C56_4 C 0.7099(3) 0.2118(5) 0.5343(3)
C57_4 C 0.6935(2) 0.3469(5) 0.4989(3)
C58_4 C 0.7049(3) 0.1083(5) 0.5350(3)
C59_4 C 0.7318(3) 0.0570(7) 0.5663(4)
H61_4 H 0.753044 0.085866 0.587135
C62_4 C 0.6776(4) 0.0653(7) 0.5047(4)
H64_4 H 0.661044 0.100242 0.481969
C63_4 C 0.6675(3) 0.4922(5) 0.4604(3)
H65_4 H 0.684011 0.527241 0.483225
C64_4 C 0.6433(3) 0.5354(5) 0.4251(3)
H66_4 H 0.643948 0.601096 0.424015
C65_4 C 0.6213(4) 0.4012(6) 0.3928(4)
H67_4 H 0.605463 0.368390 0.368722
C66_4 C 0.6454(3) 0.3505(6) 0.4264(3)
H68_4 H 0.646758 0.284916 0.424585
C67_4 C 0.5489(2) 0.3105(5) 0.2485(3)
C68_4 C 0.5774(3) 0.3778(6) 0.2426(3)
H69_4 H 0.593560 0.371500 0.220172
C69_4 C 0.5823(3) 0.4556(6) 0.2698(4)
H70_4 H 0.602201 0.501529 0.265682
C70_4 C 0.5326(3) 0.4016(6) 0.3057(3)
H71_4 H 0.516727 0.410119 0.328130
C71_4 C 0.5256(2) 0.3231(5) 0.2804(2)
H72_4 H 0.505190 0.278860 0.285029
C72_4 C 0.5449(2) 0.2248(6) 0.2217(2)
C73_4 C 0.5661(2) 0.1388(6) 0.1697(3)
C74_4 C 0.5153(2) 0.0867(5) 0.2027(2)
C75_4 C 0.4829(2) 0.0149(5) 0.2075(3)
C76_4 C 0.4567(2) 0.0233(5) 0.2367(3)
H73_4 H 0.459215 0.074846 0.256056
C80_4 C 0.5943(2) 0.1237(6) 0.1377(3)
C81_4 C 0.5869(4) 0.0566(9) 0.1075(4)
H77_4 H 0.562059 0.020555 0.104536
C82_4 C 0.6167(5) 0.0395(9) 0.0797(5)
C83_4 C 0.6545(3) 0.1639(8) 0.1087(4)
H79_4 H 0.678030 0.203320 0.109053
C84_4 C 0.6289(3) 0.1804(8) 0.1384(3)
H80_4 H 0.634694 0.229556 0.158894
C103_4 C 0.6672(3) 0.3959(5) 0.4620(3)
Cl10_4 Cl 0.6594(5) 0.1124(6) 0.9725(3)
loop_
_geom_bond_atom_site_label_1
_geom_bond_atom_site_label_2
_geom_bond_site_symmetry_1
_geom_bond_site_symmetry_2
S1 O1 1_555 1_555
O2 S1 1_555 1_555
O3 S1 1_555 1_555
C1 S1 1_555 1_555
F1 C1 1_555 1_555
F2 C1 1_555 1_555
F3 C1 1_555 1_555
S1_2 O1_2 1_555 1_555
O2_2 S1_2 1_555 1_555
O3_2 S1_2 1_555 1_555
C1_2 S1_2 1_555 1_555
F1_2 C1_2 1_555 1_555
F2_2 C1_2 1_555 1_555
F3_2 C1_2 1_555 1_555
S1_3 O1_3 1_555 1_555
O2_3 S1_3 1_555 1_555
O3_3 S1_3 1_555 1_555
C1_3 S1_3 1_555 1_555
F1_3 C1_3 1_555 1_555
F2_3 C1_3 1_555 1_555
F3_3 C1_3 1_555 1_555
S1_4 O1_4 1_555 1_555
O2_4 S1_4 1_555 1_555
O3_4 S1_4 1_555 1_555
C1_4 S1_4 1_555 1_555
F1_4 C1_4 1_555 1_555
F2_4 C1_4 1_555 1_555
F3_4 C1_4 1_555 1_555
H22 C15 1_555 1_555
H14 C8 1_555 1_555
C9 C8 1_555 1_555
H16 C9 1_555 1_555
H19 C12 1_555 1_555
C13 C12 1_555 1_555
H20 C13 1_555 1_555
C14 C13 1_555 1_555
C11 C10 1_555 1_555
H18 C11 1_555 1_555
C2 H1 1_555 1_555
C3 C2 1_555 1_555
H2 C3 1_555 1_555
C4 C3 1_555 1_555
H3 C4 1_555 1_555
H4 C4 1_555 1_555
C5 C4 1_555 1_555
H5 C5 1_555 1_555
H6 C5 1_555 1_555
C6 C5 1_555 1_555
H7 C6 1_555 1_555
H8 C6 1_555 1_555
C7 C2 1_555 1_555
H9 C7 1_555 1_555
H10 C7 1_555 1_555
O4 C2 1_555 1_555
H11 O4 1_555 1_555
N1 C3 1_555 1_555
H13 N1 1_555 1_555
C6 C7 1_555 1_555
C2_2 H1_2 1_555 1_555
C3_2 C2_2 1_555 1_555
H2_2 C3_2 1_555 1_555
C4_2 C3_2 1_555 1_555
H3_2 C4_2 1_555 1_555
H4_2 C4_2 1_555 1_555
C5_2 C4_2 1_555 1_555
H5_2 C5_2 1_555 1_555
H6_2 C5_2 1_555 1_555
C6_2 C5_2 1_555 1_555
H7_2 C6_2 1_555 1_555
H8_2 C6_2 1_555 1_555
C7_2 C2_2 1_555 1_555
H9_2 C7_2 1_555 1_555
H10_2 C7_2 1_555 1_555
O4_2 C2_2 1_555 1_555
H11_2 O4_2 1_555 1_555
N1_2 C3_2 1_555 1_555
H13_2 N1_2 1_555 1_555
C6_2 C7_2 1_555 1_555
H14_2 C8_2 1_555 1_555
C9_2 C8_2 1_555 1_555
H16_2 C9_2 1_555 1_555
H22_2 C15_2 1_555 1_555
C11_2 C10_2 1_555 1_555
H18_2 C11_2 1_555 1_555
H19_2 C12_2 1_555 1_555
C13_2 C12_2 1_555 1_555
H20_2 C13_2 1_555 1_555
C14_2 C13_2 1_555 1_555
H19_3 C12_3 1_555 1_555
C13_3 C12_3 1_555 1_555
H20_3 C13_3 1_555 1_555
C14_3 C13_3 1_555 1_555
H21_3 C14_3 1_555 1_555
H22_3 C15_3 1_555 1_555
C14_3 C15_3 1_555 1_555
C2_3 H1_3 1_555 1_555
C3_3 C2_3 1_555 1_555
H2_3 C3_3 1_555 1_555
C4_3 C3_3 1_555 1_555
H3_3 C4_3 1_555 1_555
H4_3 C4_3 1_555 1_555
C5_3 C4_3 1_555 1_555
H5_3 C5_3 1_555 1_555
H6_3 C5_3 1_555 1_555
C6_3 C5_3 1_555 1_555
H7_3 C6_3 1_555 1_555
H8_3 C6_3 1_555 1_555
C7_3 C2_3 1_555 1_555
H9_3 C7_3 1_555 1_555
H10_3 C7_3 1_555 1_555
O4_3 C2_3 1_555 1_555
H11_3 O4_3 1_555 1_555
N1_3 C3_3 1_555 1_555
H12_3 N1_3 1_555 1_555
H13_3 N1_3 1_555 1_555
C8_3 N1_3 1_555 1_555
H14_3 C8_3 1_555 1_555
H15_3 C8_3 1_555 1_555
C9_3 C8_3 1_555 1_555
H16_3 C9_3 1_555 1_555
H17_3 C9_3 1_555 1_555
C10_3 C9_3 1_555 1_555
C11_3 C10_3 1_555 1_555
H18_3 C11_3 1_555 1_555
C6_3 C7_3 1_555 1_555
C2_4 H1_4 1_555 1_555
C3_4 C2_4 1_555 1_555
H2_4 C3_4 1_555 1_555
C4_4 C3_4 1_555 1_555
H3_4 C4_4 1_555 1_555
H4_4 C4_4 1_555 1_555
C5_4 C4_4 1_555 1_555
H5_4 C5_4 1_555 1_555
H6_4 C5_4 1_555 1_555
C6_4 C5_4 1_555 1_555
H7_4 C6_4 1_555 1_555
H8_4 C6_4 1_555 1_555
C7_4 C2_4 1_555 1_555
H9_4 C7_4 1_555 1_555
H10_4 C7_4 1_555 1_555
O4_4 C2_4 1_555 1_555
H11_4 O4_4 1_555 1_555
N1_4 C3_4 1_555 1_555
H12_4 N1_4 1_555 1_555
H13_4 N1_4 1_555 1_555
C8_4 N1_4 1_555 1_555
H14_4 C8_4 1_555 1_555
H15_4 C8_4 1_555 1_555
C9_4 C8_4 1_555 1_555
H16_4 C9_4 1_555 1_555
H17_4 C9_4 1_555 1_555
C10_4 C9_4 1_555 1_555
C11_4 C10_4 1_555 1_555
H18_4 C11_4 1_555 1_555
C6_4 C7_4 1_555 1_555
H19_4 C12_4 1_555 1_555
C13_4 C12_4 1_555 1_555
H20_4 C13_4 1_555 1_555
C14_4 C13_4 1_555 1_555
H21_4 C14_4 1_555 1_555
H22_4 C15_4 1_555 1_555
C14_4 C15_4 1_555 1_555
F4 C16 1_555 1_555
F6 C16 1_555 1_555
S2 O5 1_555 1_555
O6 S2 1_555 1_555
O7 S2 1_555 1_555
F4_2 C16_2 1_555 1_555
F6_2 C16_2 1_555 1_555
S2_2 O5_2 1_555 1_555
O6_2 S2_2 1_555 1_555
O7_2 S2_2 1_555 1_555
S2_3 O5_3 1_555 1_555
O6_3 S2_3 1_555 1_555
O7_3 S2_3 1_555 1_555
C16_3 S2_3 1_555 1_555
F4_3 C16_3 1_555 1_555
F5_3 C16_3 1_555 1_555
F6_3 C16_3 1_555 1_555
S2_4 O5_4 1_555 1_555
O6_4 S2_4 1_555 1_555
O7_4 S2_4 1_555 1_555
C16_4 S2_4 1_555 1_555
F4_4 C16_4 1_555 1_555
F5_4 C16_4 1_555 1_555
F6_4 C16_4 1_555 1_555
C28 C27 1_555 1_555
H42 C28 1_555 1_555
C29 C28 1_555 1_555
H43 C29 1_555 1_555
H44 C30 1_555 1_555
C29 C30 1_555 1_555
C17 H23 1_555 1_555
C18 C17 1_555 1_555
H24 C18 1_555 1_555
C19 C18 1_555 1_555
H25 C19 1_555 1_555
H26 C19 1_555 1_555
C20 C19 1_555 1_555
H27 C20 1_555 1_555
H28 C20 1_555 1_555
C21 C20 1_555 1_555
H29 C21 1_555 1_555
H30 C21 1_555 1_555
C22 C17 1_555 1_555
H31 C22 1_555 1_555
H32 C22 1_555 1_555
O8 C17 1_555 1_555
H33 O8 1_555 1_555
N2 C18 1_555 1_555
H34 N2 1_555 1_555
H35 N2 1_555 1_555
C23 N2 1_555 1_555
H36 C23 1_555 1_555
H37 C23 1_555 1_555
C24 C23 1_555 1_555
H38 C24 1_555 1_555
H39 C24 1_555 1_555
C25 C24 1_555 1_555
C26 C25 1_555 1_555
H40 C26 1_555 1_555
C21 C22 1_555 1_555
C28_2 C27_2 1_555 1_555
H42_2 C28_2 1_555 1_555
C29_2 C28_2 1_555 1_555
H43_2 C29_2 1_555 1_555
H44_2 C30_2 1_555 1_555
C29_2 C30_2 1_555 1_555
C17_2 H23_2 1_555 1_555
C18_2 C17_2 1_555 1_555
H24_2 C18_2 1_555 1_555
C19_2 C18_2 1_555 1_555
H25_2 C19_2 1_555 1_555
H26_2 C19_2 1_555 1_555
C20_2 C19_2 1_555 1_555
H27_2 C20_2 1_555 1_555
H28_2 C20_2 1_555 1_555
C21_2 C20_2 1_555 1_555
H29_2 C21_2 1_555 1_555
H30_2 C21_2 1_555 1_555
C22_2 C17_2 1_555 1_555
H31_2 C22_2 1_555 1_555
H32_2 C22_2 1_555 1_555
O8_2 C17_2 1_555 1_555
H33_2 O8_2 1_555 1_555
N2_2 C18_2 1_555 1_555
H34_2 N2_2 1_555 1_555
H35_2 N2_2 1_555 1_555
C23_2 N2_2 1_555 1_555
H36_2 C23_2 1_555 1_555
H37_2 C23_2 1_555 1_555
C24_2 C23_2 1_555 1_555
H38_2 C24_2 1_555 1_555
H39_2 C24_2 1_555 1_555
C25_2 C24_2 1_555 1_555
C26_2 C25_2 1_555 1_555
H40_2 C26_2 1_555 1_555
C21_2 C22_2 1_555 1_555
C17_3 H23_3 1_555 1_555
C18_3 C17_3 1_555 1_555
H24_3 C18_3 1_555 1_555
C19_3 C18_3 1_555 1_555
H25_3 C19_3 1_555 1_555
H26_3 C19_3 1_555 1_555
C20_3 C19_3 1_555 1_555
H27_3 C20_3 1_555 1_555
H28_3 C20_3 1_555 1_555
C21_3 C20_3 1_555 1_555
H29_3 C21_3 1_555 1_555
C22_3 C17_3 1_555 1_555
O8_3 C17_3 1_555 1_555
H33_3 O8_3 1_555 1_555
N2_3 C18_3 1_555 1_555
H34_3 N2_3 1_555 1_555
H35_3 N2_3 1_555 1_555
C23_3 N2_3 1_555 1_555
H36_3 C23_3 1_555 1_555
H37_3 C23_3 1_555 1_555
C24_3 C23_3 1_555 1_555
H38_3 C24_3 1_555 1_555
H39_3 C24_3 1_555 1_555
C25_3 C24_3 1_555 1_555
C26_3 C25_3 1_555 1_555
H40_3 C26_3 1_555 1_555
C27_3 C26_3 1_555 1_555
H41_3 C27_3 1_555 1_555
C28_3 C27_3 1_555 1_555
H42_3 C28_3 1_555 1_555
C29_3 C28_3 1_555 1_555
H43_3 C29_3 1_555 1_555
C30_3 C25_3 1_555 1_555
H44_3 C30_3 1_555 1_555
C21_3 C22_3 1_555 1_555
C29_3 C30_3 1_555 1_555
C17_4 H23_4 1_555 1_555
C18_4 C17_4 1_555 1_555
H24_4 C18_4 1_555 1_555
C19_4 C18_4 1_555 1_555
H25_4 C19_4 1_555 1_555
H26_4 C19_4 1_555 1_555
C20_4 C19_4 1_555 1_555
H27_4 C20_4 1_555 1_555
H28_4 C20_4 1_555 1_555
C21_4 C20_4 1_555 1_555
H29_4 C21_4 1_555 1_555
C22_4 C17_4 1_555 1_555
O8_4 C17_4 1_555 1_555
H33_4 O8_4 1_555 1_555
N2_4 C18_4 1_555 1_555
H34_4 N2_4 1_555 1_555
H35_4 N2_4 1_555 1_555
C23_4 N2_4 1_555 1_555
H36_4 C23_4 1_555 1_555
H37_4 C23_4 1_555 1_555
C24_4 C23_4 1_555 1_555
H38_4 C24_4 1_555 1_555
H39_4 C24_4 1_555 1_555
C25_4 C24_4 1_555 1_555
C26_4 C25_4 1_555 1_555
H40_4 C26_4 1_555 1_555
C27_4 C26_4 1_555 1_555
H41_4 C27_4 1_555 1_555
C28_4 C27_4 1_555 1_555
H42_4 C28_4 1_555 1_555
C29_4 C28_4 1_555 1_555
H43_4 C29_4 1_555 1_555
C30_4 C25_4 1_555 1_555
H44_4 C30_4 1_555 1_555
C21_4 C22_4 1_555 1_555
C29_4 C30_4 1_555 1_555
S3 O9 1_555 1_555
O10 S3 1_555 1_555
O11 S3 1_555 1_555
C31 S3 1_555 1_555
F7 C31 1_555 1_555
F8 C31 1_555 1_555
F9 C31 1_555 1_555
S3_2 O9_2 1_555 1_555
O10_2 S3_2 1_555 1_555
O11_2 S3_2 1_555 1_555
C31_2 S3_2 1_555 1_555
F7_2 C31_2 1_555 1_555
F8_2 C31_2 1_555 1_555
F9_2 C31_2 1_555 1_555
S3_3 O9_3 1_555 1_555
O10_3 S3_3 1_555 1_555
O11_3 S3_3 1_555 1_555
C31_3 S3_3 1_555 1_555
F7_3 C31_3 1_555 1_555
F8_3 C31_3 1_555 1_555
F9_3 C31_3 1_555 1_555
S3_4 O9_4 1_555 1_555
O10_4 S3_4 1_555 1_555
O11_4 S3_4 1_555 1_555
C31_4 S3_4 1_555 1_555
F7_4 C31_4 1_555 1_555
F8_4 C31_4 1_555 1_555
F9_4 C31_4 1_555 1_555
Zn3 Cl5 1_555 1_555
Cl6 Zn3 1_555 1_555
N20 Zn3 1_555 1_555
C76 C75 1_555 1_555
H73 C76 1_555 1_555
C77 N20 1_555 1_555
H74 C77 1_555 1_555
C78 N20 1_555 1_555
H75 C78 1_555 1_555
C79 C75 1_555 1_555
H76 C79 1_555 1_555
N28 Zn3 1_555 1_555
C76 C77 1_555 1_555
C78 C79 1_555 1_555
Zn1 Cl1 1_555 1_555
Cl2 Zn1 1_555 1_555
Zn4 Cl7 1_555 1_555
Cl8 Zn4 1_555 1_555
Zn5 Cl9 1_555 1_555
N3 C36 1_555 1_555
C32 H45 1_555 1_555
C33 C32 1_555 1_555
N4 Zn1 1_555 1_555
N5 C36 1_555 1_555
C34 C32 1_555 1_555
H46 C34 1_555 1_555
N6 C38 1_555 1_555
C35 N4 1_555 1_555
H47 C35 1_555 1_555
C36 C33 1_555 1_555
N8 Zn4 1_555 1_555
C37 C33 1_555 1_555
H48 C37 1_555 1_555
N9 C54 1_555 1_555
C38 N5 1_555 1_555
C39 N3 1_555 1_555
N11 C54 1_555 1_555
C40 C39 1_555 1_555
C41 N8 1_555 1_555
H49 C41 1_555 1_555
N12 C60 1_555 1_555
N13 C56 1_555 1_555
C42 C40 1_555 1_555
H50 C42 1_555 1_555
C43 N8 1_555 1_555
H51 C43 1_555 1_555
C44 C40 1_555 1_555
H52 C44 1_555 1_555
C45 H53 1_555 1_555
N16 C72 1_555 1_555
C46 C38 1_555 1_555
N17 C72 1_555 1_555
C47 N7 1_555 1_555
H54 C47 1_555 1_555
N18 C73 1_555 1_555
C48 C46 1_555 1_555
H55 C48 1_555 1_555
N19 Zn5 1_555 1_555
C49 N7 1_555 1_555
C50 C51 1_555 1_555
N21 Zn5 1_555 1_555
C51 H57 1_555 1_555
N22 C90 1_555 1_555
C52 N10 1_555 1_555
H58 C52 1_555 1_555
C54 C50 1_555 1_555
C55 C50 1_555 1_555
C56 N9 1_555 1_555
C57 N11 1_555 1_555
C58 C56 1_555 1_555
C59 C58 1_555 1_555
H61 C59 1_555 1_555
C60 C59 1_555 1_555
H62 C60 1_555 1_555
C61 N12 1_555 1_555
H63 C61 1_555 1_555
C62 C58 1_555 1_555
H64 C62 1_555 1_555
C65 N14 1_555 1_555
H67 C65 1_555 1_555
C66 C65 1_555 1_555
H68 C66 1_555 1_555
C67 C68 1_555 1_555
C68 H69 1_555 1_555
C69 N15 1_555 1_555
C70 N15 1_555 1_555
H71 C70 1_555 1_555
C71 C67 1_555 1_555
H72 C71 1_555 1_555
C72 C67 1_555 1_555
C73 N17 1_555 1_555
C74 N16 1_555 1_555
C80 C73 1_555 1_555
C81 C80 1_555 1_555
H77 C81 1_555 1_555
C82 N19 1_555 1_555
H78 C82 1_555 1_555
C83 N19 1_555 1_555
H79 C83 1_555 1_555
C84 C80 1_555 1_555
H80 C84 1_555 1_555
C85 C86 1_555 1_555
C87 N21 1_555 1_555
C88 N21 1_555 1_555
H83 C88 1_555 1_555
C89 C85 1_555 1_555
H84 C89 1_555 1_555
C90 C85 1_555 1_555
C91 N22 1_555 1_555
H89 C99 1_555 1_555
C103 C57 1_555 1_555
Zn7 N12 1_555 1_555
N27 Zn1 1_555 1_555
N29 Zn4 1_555 1_555
N4 C34 1_555 1_555
N6 C39 1_555 1_555
C35 C37 1_555 1_555
C41 C42 1_555 1_555
N13 C57 1_555 1_555
C43 C44 1_555 1_555
C45 C46 1_555 1_555
C45 C47 1_555 1_555
N18 C74 1_555 1_555
C48 C49 1_555 1_555
C51 C52 1_555 1_555
C61 C62 1_555 1_555
C63 C103 1_555 1_555
C66 C103 1_555 1_555
C68 C69 1_555 1_555
C70 C71 1_555 1_555
C81 C82 1_555 1_555
C83 C84 1_555 1_555
C86 C87 1_555 1_555
C88 C89 1_555 1_555
N25 C100 1_555 1_555
H90 C100 1_555 1_555
C101 C98 1_555 1_555
H91 C101 1_555 1_555
C102 N25 1_555 1_555
H92 C102 1_555 1_555
Zn8 N25 1_555 1_555
C101 C102 1_555 1_555
N29 C95 1_555 1_555
C92 N23 1_555 1_555
C93 C92 1_555 1_555
C94 C93 1_555 1_555
H85 C94 1_555 1_555
C95 C94 1_555 1_555
H86 C95 1_555 1_555
C96 N29 1_555 1_555
H87 C96 1_555 1_555
C97 C93 1_555 1_555
H88 C97 1_555 1_555
C96 C97 1_555 1_555
Zn8 Cl5_2 1_555 1_555
Cl6_2 Zn8 1_555 1_555
N27 C60_2 1_555 1_555
N20_2 Zn8 1_555 1_555
N22_2 C90_2 1_555 1_555
N24_2 C91_2 1_555 1_555
N28 C100_2 1_555 1_555
H62_2 C60_2 1_555 1_555
C61_2 N27 1_555 1_555
H63_2 C61_2 1_555 1_555
C77_2 N20_2 1_555 1_555
H74_2 C77_2 1_555 1_555
C78_2 N20_2 1_555 1_555
H75_2 C78_2 1_555 1_555
H76_2 C79_2 1_555 1_555
C85_2 C86_2 1_555 1_555
C87_2 N21_2 1_555 1_555
C88_2 N21_2 1_555 1_555
H83_2 C88_2 1_555 1_555
C89_2 C85_2 1_555 1_555
H84_2 C89_2 1_555 1_555
C90_2 C85_2 1_555 1_555
C91_2 N22_2 1_555 1_555
C98_2 C91_2 1_555 1_555
C99_2 C98_2 1_555 1_555
H89_2 C99_2 1_555 1_555
C100_2 C99_2 1_555 1_555
H90_2 C100_2 1_555 1_555
C101_2 C98_2 1_555 1_555
H91_2 C101_2 1_555 1_555
C102_2 N28 1_555 1_555
H92_2 C102_2 1_555 1_555
C78_2 C79_2 1_555 1_555
C86_2 C87_2 1_555 1_555
C88_2 C89_2 1_555 1_555
C101_2 C102_2 1_555 1_555
Zn7 Cl1_2 1_555 1_555
Cl2_2 Zn7 1_555 1_555
N3_2 C36_2 1_555 1_555
C32_2 H45_2 1_555 1_555
C33_2 C32_2 1_555 1_555
N4_2 Zn7 1_555 1_555
N5_2 C36_2 1_555 1_555
C34_2 C32_2 1_555 1_555
H46_2 C34_2 1_555 1_555
N6_2 C38_2 1_555 1_555
C35_2 N4_2 1_555 1_555
H47_2 C35_2 1_555 1_555
C36_2 C33_2 1_555 1_555
C37_2 C33_2 1_555 1_555
H48_2 C37_2 1_555 1_555
C38_2 N5_2 1_555 1_555
C39_2 N3_2 1_555 1_555
C40_2 C39_2 1_555 1_555
C44_2 C40_2 1_555 1_555
H52_2 C44_2 1_555 1_555
N4_2 C34_2 1_555 1_555
N6_2 C39_2 1_555 1_555
C35_2 C37_2 1_555 1_555
Zn2 Cl3 1_555 1_555
Cl4 Zn2 1_555 1_555
Zn6 Cl11 1_555 1_555
Cl12 Zn6 1_555 1_555
H59 C53 1_555 1_555
H66 C64 1_555 1_555
C92_2 N23_2 1_555 1_555
H88_2 C97_2 1_555 1_555
N26 C95_2 1_555 1_555
C94_2 C93_2 1_555 1_555
H85_2 C94_2 1_555 1_555
C95_2 C94_2 1_555 1_555
H86_2 C95_2 1_555 1_555
C96_2 N26 1_555 1_555
H87_2 C96_2 1_555 1_555
Zn9 N26 1_555 1_555
Zn9 Cl7_2 1_555 1_555
Cl8_2 Zn9 1_555 1_555
N8_2 Zn9 1_555 1_555
C41_2 N8_2 1_555 1_555
H49_2 C41_2 1_555 1_555
H50_2 C42_2 1_555 1_555
C43_2 N8_2 1_555 1_555
H51_2 C43_2 1_555 1_555
C41_2 C42_2 1_555 1_555
Zn2_2 Cl3_2 1_555 1_555
Cl4_2 Zn2_2 1_555 1_555
Zn6_2 Cl11_2 1_555 1_555
Cl12_2 Zn6_2 1_555 1_555
H59_2 C53_2 1_555 1_555
H66_2 C64_2 1_555 1_555
Zn1_2 Cl1_3 1_555 1_555
Cl2_3 Zn1_2 1_555 1_555
Zn4_2 Cl7_3 1_555 1_555
Cl8_3 Zn4_2 1_555 1_555
Zn5_2 Cl9_2 1_555 1_555
N3_3 C36_3 1_555 1_555
C32_3 H45_3 1_555 1_555
C33_3 C32_3 1_555 1_555
N4_3 Zn1_2 1_555 1_555
N5_3 C36_3 1_555 1_555
C34_3 C32_3 1_555 1_555
H46_3 C34_3 1_555 1_555
N6_3 C38_3 1_555 1_555
C35_3 N4_3 1_555 1_555
H47_3 C35_3 1_555 1_555
C36_3 C33_3 1_555 1_555
N8_3 Zn4_2 1_555 1_555
C37_3 C33_3 1_555 1_555
H48_3 C37_3 1_555 1_555
N9_2 C54_2 1_555 1_555
C38_3 N5_3 1_555 1_555
C39_3 N3_3 1_555 1_555
N11_2 C54_2 1_555 1_555
C40_3 C39_3 1_555 1_555
C41_3 N8_3 1_555 1_555
H49_3 C41_3 1_555 1_555
N12_2 C60_3 1_555 1_555
N13_2 C56_2 1_555 1_555
C42_3 C40_3 1_555 1_555
H50_3 C42_3 1_555 1_555
C43_3 N8_3 1_555 1_555
H51_3 C43_3 1_555 1_555
C44_3 C40_3 1_555 1_555
H52_3 C44_3 1_555 1_555
C45_2 H53_2 1_555 1_555
N16_2 C72_2 1_555 1_555
C46_2 C38_3 1_555 1_555
N17_2 C72_2 1_555 1_555
C47_2 N7_2 1_555 1_555
H54_2 C47_2 1_555 1_555
N18_2 C73_2 1_555 1_555
C48_2 C46_2 1_555 1_555
H55_3 C48_2 1_555 1_555
N19_2 Zn5_2 1_555 1_555
C49_2 N7_2 1_555 1_555
C50_2 C51_2 1_555 1_555
N21_3 Zn5_2 1_555 1_555
C51_2 H57_2 1_555 1_555
N22_3 C90_3 1_555 1_555
C52_2 N10_2 1_555 1_555
H58_2 C52_2 1_555 1_555
C54_2 C50_2 1_555 1_555
C55_2 C50_2 1_555 1_555
C56_2 N9_2 1_555 1_555
C57_2 N11_2 1_555 1_555
C58_2 C56_2 1_555 1_555
C59_2 C58_2 1_555 1_555
H61_2 C59_2 1_555 1_555
C60_3 C59_2 1_555 1_555
H62_3 C60_3 1_555 1_555
C61_3 N12_2 1_555 1_555
H63_3 C61_3 1_555 1_555
C62_2 C58_2 1_555 1_555
H64_2 C62_2 1_555 1_555
C65_2 N14_2 1_555 1_555
H67_2 C65_2 1_555 1_555
C66_2 C65_2 1_555 1_555
H68_2 C66_2 1_555 1_555
C67_2 C68_2 1_555 1_555
C68_2 H69_2 1_555 1_555
C69_2 N15_2 1_555 1_555
C70_2 N15_2 1_555 1_555
H71_2 C70_2 1_555 1_555
C71_2 C67_2 1_555 1_555
H72_2 C71_2 1_555 1_555
C72_2 C67_2 1_555 1_555
C73_2 N17_2 1_555 1_555
C74_2 N16_2 1_555 1_555
C80_2 C73_2 1_555 1_555
C81_2 C80_2 1_555 1_555
H77_2 C81_2 1_555 1_555
C82_2 N19_2 1_555 1_555
H78_3 C82_2 1_555 1_555
C83_2 N19_2 1_555 1_555
H79_2 C83_2 1_555 1_555
C84_2 C80_2 1_555 1_555
H80_2 C84_2 1_555 1_555
C85_3 C86_3 1_555 1_555
C87_3 N21_3 1_555 1_555
C88_3 N21_3 1_555 1_555
H83_3 C88_3 1_555 1_555
C89_3 C85_3 1_555 1_555
H84_3 C89_3 1_555 1_555
C90_3 C85_3 1_555 1_555
C91_3 N22_3 1_555 1_555
H89_3 C99_3 1_555 1_555
C103_2 C57_2 1_555 1_555
Zn7_2 N12_2 1_555 1_555
N27_2 Zn1_2 1_555 1_555
N29_2 Zn4_2 1_555 1_555
N4_3 C34_3 1_555 1_555
N6_3 C39_3 1_555 1_555
C35_3 C37_3 1_555 1_555
C41_3 C42_3 1_555 1_555
N13_2 C57_2 1_555 1_555
C43_3 C44_3 1_555 1_555
C45_2 C46_2 1_555 1_555
C45_2 C47_2 1_555 1_555
N18_2 C74_2 1_555 1_555
C48_2 C49_2 1_555 1_555
C51_2 C52_2 1_555 1_555
C61_3 C62_2 1_555 1_555
C63_2 C103_2 1_555 1_555
C66_2 C103_2 1_555 1_555
C68_2 C69_2 1_555 1_555
C70_2 C71_2 1_555 1_555
C81_2 C82_2 1_555 1_555
C83_2 C84_2 1_555 1_555
C86_3 C87_3 1_555 1_555
C88_3 C89_3 1_555 1_555
N25_2 C100_3 1_555 1_555
H90_3 C100_3 1_555 1_555
C101_3 C98_3 1_555 1_555
H91_3 C101_3 1_555 1_555
C102_3 N25_2 1_555 1_555
H92_3 C102_3 1_555 1_555
Zn8_2 N25_2 1_555 1_555
C101_3 C102_3 1_555 1_555
Zn3_2 Cl5_3 1_555 1_555
Cl6_3 Zn3_2 1_555 1_555
N20_3 Zn3_2 1_555 1_555
C76_2 C75_2 1_555 1_555
H73_2 C76_2 1_555 1_555
C77_3 N20_3 1_555 1_555
H74_3 C77_3 1_555 1_555
C78_3 N20_3 1_555 1_555
H75_3 C78_3 1_555 1_555
C79_3 C75_2 1_555 1_555
H76_3 C79_3 1_555 1_555
N28_2 Zn3_2 1_555 1_555
C76_2 C77_3 1_555 1_555
C78_3 C79_3 1_555 1_555
Zn7_2 Cl1_4 1_555 1_555
Cl2_4 Zn7_2 1_555 1_555
N3_4 C36_4 1_555 1_555
C32_4 H45_4 1_555 1_555
C33_4 C32_4 1_555 1_555
N4_4 Zn7_2 1_555 1_555
N5_4 C36_4 1_555 1_555
C34_4 C32_4 1_555 1_555
H46_4 C34_4 1_555 1_555
N6_4 C38_4 1_555 1_555
C35_4 N4_4 1_555 1_555
H47_4 C35_4 1_555 1_555
C36_4 C33_4 1_555 1_555
C37_4 C33_4 1_555 1_555
H48_4 C37_4 1_555 1_555
C38_4 N5_4 1_555 1_555
C39_4 N3_4 1_555 1_555
C40_4 C39_4 1_555 1_555
C44_4 C40_4 1_555 1_555
H52_4 C44_4 1_555 1_555
N4_4 C34_4 1_555 1_555
N6_4 C39_4 1_555 1_555
C35_4 C37_4 1_555 1_555
Zn8_2 Cl5_4 1_555 1_555
Cl6_4 Zn8_2 1_555 1_555
N27_2 C60_4 1_555 1_555
N20_4 Zn8_2 1_555 1_555
N22_4 C90_4 1_555 1_555
N24_4 C91_4 1_555 1_555
N28_2 C100_4 1_555 1_555
H62_4 C60_4 1_555 1_555
C61_4 N27_2 1_555 1_555
H63_4 C61_4 1_555 1_555
C77_4 N20_4 1_555 1_555
H74_4 C77_4 1_555 1_555
C78_4 N20_4 1_555 1_555
H75_4 C78_4 1_555 1_555
H76_4 C79_4 1_555 1_555
C85_4 C86_4 1_555 1_555
C87_4 N21_4 1_555 1_555
C88_4 N21_4 1_555 1_555
H83_4 C88_4 1_555 1_555
C89_4 C85_4 1_555 1_555
H84_4 C89_4 1_555 1_555
C90_4 C85_4 1_555 1_555
C91_4 N22_4 1_555 1_555
C98_4 C91_4 1_555 1_555
C99_4 C98_4 1_555 1_555
H89_4 C99_4 1_555 1_555
C100_4 C99_4 1_555 1_555
H90_4 C100_4 1_555 1_555
C101_4 C98_4 1_555 1_555
H91_4 C101_4 1_555 1_555
C102_4 N28_2 1_555 1_555
H92_4 C102_4 1_555 1_555
C78_4 C79_4 1_555 1_555
C86_4 C87_4 1_555 1_555
C88_4 C89_4 1_555 1_555
C101_4 C102_4 1_555 1_555
N29_2 C95_3 1_555 1_555
C92_3 N23_3 1_555 1_555
C93_3 C92_3 1_555 1_555
C94_3 C93_3 1_555 1_555
H85_3 C94_3 1_555 1_555
C95_3 C94_3 1_555 1_555
H86_3 C95_3 1_555 1_555
C96_3 N29_2 1_555 1_555
H87_3 C96_3 1_555 1_555
C97_3 C93_3 1_555 1_555
H88_3 C97_3 1_555 1_555
C96_3 C97_3 1_555 1_555
C92_4 N23_4 1_555 1_555
H88_4 C97_4 1_555 1_555
N26_2 C95_4 1_555 1_555
C94_4 C93_4 1_555 1_555
H85_4 C94_4 1_555 1_555
C95_4 C94_4 1_555 1_555
H86_4 C95_4 1_555 1_555
C96_4 N26_2 1_555 1_555
H87_4 C96_4 1_555 1_555
Zn9_2 N26_2 1_555 1_555
Zn9_2 Cl7_4 1_555 1_555
Cl8_4 Zn9_2 1_555 1_555
N8_4 Zn9_2 1_555 1_555
C41_4 N8_4 1_555 1_555
H49_4 C41_4 1_555 1_555
H50_4 C42_4 1_555 1_555
C43_4 N8_4 1_555 1_555
H51_4 C43_4 1_555 1_555
C41_4 C42_4 1_555 1_555
Zn2_3 Cl3_3 1_555 1_555
Cl4_3 Zn2_3 1_555 1_555
Zn5_3 Cl9_3 1_555 1_555
Zn6_3 Cl11_3 1_555 1_555
Cl12_3 Zn6_3 1_555 1_555
N7_3 Zn2_3 1_555 1_555
N9_3 C54_3 1_555 1_555
N10_3 Zn2_3 1_555 1_555
N11_3 C54_3 1_555 1_555
N13_3 C56_3 1_555 1_555
N14_3 Zn6_3 1_555 1_555
N15_3 Zn6_3 1_555 1_555
C45_3 H53_3 1_555 1_555
N16_3 C72_3 1_555 1_555
N17_3 C72_3 1_555 1_555
C47_3 N7_3 1_555 1_555
H54_3 C47_3 1_555 1_555
N18_3 C73_3 1_555 1_555
C48_3 C46_3 1_555 1_555
N19_3 Zn5_3 1_555 1_555
C49_3 N7_3 1_555 1_555
H56_3 C49_3 1_555 1_555
C50_3 C51_3 1_555 1_555
C51_3 H57_3 1_555 1_555
C52_3 N10_3 1_555 1_555
H58_3 C52_3 1_555 1_555
C53_3 N10_3 1_555 1_555
H59_3 C53_3 1_555 1_555
C54_3 C50_3 1_555 1_555
C55_3 C50_3 1_555 1_555
H60_3 C55_3 1_555 1_555
C56_3 N9_3 1_555 1_555
C57_3 N11_3 1_555 1_555
C58_3 C56_3 1_555 1_555
C59_3 C58_3 1_555 1_555
H61_3 C59_3 1_555 1_555
C62_3 C58_3 1_555 1_555
H64_3 C62_3 1_555 1_555
C63_3 H65_3 1_555 1_555
C64_3 N14_3 1_555 1_555
H66_3 C64_3 1_555 1_555
C65_3 N14_3 1_555 1_555
H67_3 C65_3 1_555 1_555
C66_3 C65_3 1_555 1_555
H68_3 C66_3 1_555 1_555
C67_3 C68_3 1_555 1_555
C68_3 H69_3 1_555 1_555
C69_3 N15_3 1_555 1_555
H70_3 C69_3 1_555 1_555
C70_3 N15_3 1_555 1_555
H71_3 C70_3 1_555 1_555
C71_3 C67_3 1_555 1_555
H72_3 C71_3 1_555 1_555
C72_3 C67_3 1_555 1_555
C73_3 N17_3 1_555 1_555
C74_3 N16_3 1_555 1_555
C75_3 C74_3 1_555 1_555
C76_3 C75_3 1_555 1_555
H73_3 C76_3 1_555 1_555
C80_3 C73_3 1_555 1_555
C81_3 C80_3 1_555 1_555
H77_3 C81_3 1_555 1_555
C82_3 N19_3 1_555 1_555
C83_3 N19_3 1_555 1_555
H79_3 C83_3 1_555 1_555
C84_3 C80_3 1_555 1_555
H80_3 C84_3 1_555 1_555
C103_3 C57_3 1_555 1_555
N13_3 C57_3 1_555 1_555
C45_3 C46_3 1_555 1_555
C45_3 C47_3 1_555 1_555
N18_3 C74_3 1_555 1_555
C48_3 C49_3 1_555 1_555
C51_3 C52_3 1_555 1_555
C53_3 C55_3 1_555 1_555
C63_3 C64_3 1_555 1_555
C63_3 C103_3 1_555 1_555
C66_3 C103_3 1_555 1_555
C68_3 C69_3 1_555 1_555
C70_3 C71_3 1_555 1_555
C81_3 C82_3 1_555 1_555
C83_3 C84_3 1_555 1_555
Zn2_4 Cl3_4 1_555 1_555
Cl4_4 Zn2_4 1_555 1_555
Zn5_4 Cl9_4 1_555 1_555
Zn6_4 Cl11_4 1_555 1_555
Cl12_4 Zn6_4 1_555 1_555
N7_4 Zn2_4 1_555 1_555
N9_4 C54_4 1_555 1_555
N10_4 Zn2_4 1_555 1_555
N11_4 C54_4 1_555 1_555
N13_4 C56_4 1_555 1_555
N14_4 Zn6_4 1_555 1_555
N15_4 Zn6_4 1_555 1_555
C45_4 H53_4 1_555 1_555
N16_4 C72_4 1_555 1_555
N17_4 C72_4 1_555 1_555
C47_4 N7_4 1_555 1_555
H54_4 C47_4 1_555 1_555
N18_4 C73_4 1_555 1_555
C48_4 C46_4 1_555 1_555
N19_4 Zn5_4 1_555 1_555
C49_4 N7_4 1_555 1_555
H56_4 C49_4 1_555 1_555
C50_4 C51_4 1_555 1_555
C51_4 H57_4 1_555 1_555
C52_4 N10_4 1_555 1_555
H58_4 C52_4 1_555 1_555
C53_4 N10_4 1_555 1_555
H59_4 C53_4 1_555 1_555
C54_4 C50_4 1_555 1_555
C55_4 C50_4 1_555 1_555
H60_4 C55_4 1_555 1_555
C56_4 N9_4 1_555 1_555
C57_4 N11_4 1_555 1_555
C58_4 C56_4 1_555 1_555
C59_4 C58_4 1_555 1_555
H61_4 C59_4 1_555 1_555
C62_4 C58_4 1_555 1_555
H64_4 C62_4 1_555 1_555
C63_4 H65_4 1_555 1_555
C64_4 N14_4 1_555 1_555
H66_4 C64_4 1_555 1_555
C65_4 N14_4 1_555 1_555
H67_4 C65_4 1_555 1_555
C66_4 C65_4 1_555 1_555
H68_4 C66_4 1_555 1_555
C67_4 C68_4 1_555 1_555
C68_4 H69_4 1_555 1_555
C69_4 N15_4 1_555 1_555
H70_4 C69_4 1_555 1_555
C70_4 N15_4 1_555 1_555
H71_4 C70_4 1_555 1_555
C71_4 C67_4 1_555 1_555
H72_4 C71_4 1_555 1_555
C72_4 C67_4 1_555 1_555
C73_4 N17_4 1_555 1_555
C74_4 N16_4 1_555 1_555
C75_4 C74_4 1_555 1_555
C76_4 C75_4 1_555 1_555
H73_4 C76_4 1_555 1_555
C80_4 C73_4 1_555 1_555
C81_4 C80_4 1_555 1_555
H77_4 C81_4 1_555 1_555
C82_4 N19_4 1_555 1_555
C83_4 N19_4 1_555 1_555
H79_4 C83_4 1_555 1_555
C84_4 C80_4 1_555 1_555
H80_4 C84_4 1_555 1_555
C103_4 C57_4 1_555 1_555
N13_4 C57_4 1_555 1_555
C45_4 C46_4 1_555 1_555
C45_4 C47_4 1_555 1_555
N18_4 C74_4 1_555 1_555
C48_4 C49_4 1_555 1_555
C51_4 C52_4 1_555 1_555
C53_4 C55_4 1_555 1_555
C63_4 C64_4 1_555 1_555
C63_4 C103_4 1_555 1_555
C66_4 C103_4 1_555 1_555
C68_4 C69_4 1_555 1_555
C70_4 C71_4 1_555 1_555
C81_4 C82_4 1_555 1_555
C83_4 C84_4 1_555 1_555

#END
