
###############################################################################
#
# This file contains modified crystal structure data generated from the
# MOF subset of the Cambridge Structural Database (CSD) v543 
# hosted by the Cambridge Crystallographic Data Centre (CCDC).
#
# This work is licensed under the Creative Commons
# Attribution-NonCommercial-ShareAlike 4.0 International License.
# To view a copy of this license, visit
# http://creativecommons.org/licenses/by-nc-sa/4.0/
# or send a letter to
# Creative Commons, PO Box 1866, Mountain View, CA 94042, USA.
#
# CIF created using the CSD Python API on 29 September 2022
# The structure has been converted into the P1 space group
# The structure has a 3D framework
# The original CSD entry QUSNOJ is in the cubic crystal system
# The original CSD entry QUSNOJ is in a Sohncke space group
# The framework has been calculated to contain at least 10.0% void space
# The void calculation uses a probe of radius 1.32A, grid spacing 0.4
#
###############################################################################

data_QUSNOJ
_chemical_formula_moiety         '(C288 H192 Ag52 Co8 I67 N48)n'
_symmetry_cell_setting           triclinic
_symmetry_space_group_name_H-M   'P 1'
_symmetry_Int_Tables_number      1
_space_group_name_Hall           'P 1'
loop_
_symmetry_equiv_pos_site_id
_symmetry_equiv_pos_as_xyz
1 x,y,z
_cell_length_a                   22.7105(5)
_cell_length_b                   22.7105(5)
_cell_length_c                   22.7105(5)
_cell_angle_alpha                90
_cell_angle_beta                 90
_cell_angle_gamma                90
_cell_volume                     11713.3
loop_
_atom_site_label
_atom_site_type_symbol
_atom_site_fract_x
_atom_site_fract_y
_atom_site_fract_z
Co1 Co 0.31647(6) 0.31647(6) 0.31647(6)
N1 N 0.2218(4) 0.3219(4) 0.3171(4)
N2 N 0.3027(4) 0.4086(4) 0.3217(4)
C1 C 0.1831(4) 0.2789(5) 0.3119(4)
H1 H 0.1969 0.2404 0.3105
C2 C 0.1225(5) 0.2881(5) 0.3085(4)
H2 H 0.0967 0.2565 0.3051
C3 C 0.1022(5) 0.3435(4) 0.3102(4)
H3 H 0.0620 0.3500 0.3059
C4 C 0.1387(4) 0.3907(5) 0.3183(4)
C5 C 0.1181(5) 0.4481(5) 0.3220(5)
H4 H 0.0779 0.4560 0.3212
C6 C 0.1592(5) 0.4938(5) 0.3269(5)
H5 H 0.1459 0.5323 0.3303
C7 C 0.2217(5) 0.4824(5) 0.3268(5)
C8 C 0.2631(5) 0.5263(5) 0.3311(5)
H6 H 0.2513 0.5651 0.3372
C9 C 0.3223(5) 0.5127(5) 0.3265(5)
H7 H 0.3500 0.5427 0.3235
C10 C 0.3409(5) 0.4525(5) 0.3264(5)
H8 H 0.3808 0.4440 0.3297
C11 C 0.2421(5) 0.4257(5) 0.3229(5)
C12 C 0.2013(4) 0.3780(5) 0.3183(4)
N3 N 0.3171(4) 0.2218(4) 0.3219(4)
N4 N 0.3217(4) 0.3027(4) 0.4086(4)
C13 C 0.3119(4) 0.1831(4) 0.2789(5)
H9 H 0.3105 0.1969 0.2404
C14 C 0.3085(4) 0.1225(5) 0.2881(5)
H10 H 0.3051 0.0967 0.2565
C15 C 0.3102(4) 0.1022(5) 0.3435(4)
H11 H 0.3059 0.0620 0.3500
C16 C 0.3183(4) 0.1387(4) 0.3907(5)
C17 C 0.3220(5) 0.1181(5) 0.4481(5)
H12 H 0.3212 0.0779 0.4560
C18 C 0.3269(5) 0.1592(5) 0.4938(5)
H13 H 0.3303 0.1459 0.5323
C19 C 0.3268(5) 0.2217(5) 0.4824(5)
C20 C 0.3311(5) 0.2631(5) 0.5263(5)
H14 H 0.3372 0.2513 0.5651
C21 C 0.3265(5) 0.3223(5) 0.5127(5)
H15 H 0.3235 0.3500 0.5427
C22 C 0.3264(5) 0.3409(5) 0.4525(5)
H16 H 0.3297 0.3808 0.4440
C23 C 0.3229(5) 0.2421(5) 0.4257(5)
C24 C 0.3183(4) 0.2013(4) 0.3780(5)
N5 N 0.3219(4) 0.3171(4) 0.2218(4)
N6 N 0.4086(4) 0.3217(4) 0.3027(4)
C25 C 0.2789(5) 0.3119(4) 0.1831(4)
H17 H 0.2404 0.3105 0.1969
C26 C 0.2881(5) 0.3085(4) 0.1225(5)
H18 H 0.2565 0.3051 0.0967
C27 C 0.3435(4) 0.3102(4) 0.1022(5)
H19 H 0.3500 0.3059 0.0620
C28 C 0.3907(5) 0.3183(4) 0.1387(4)
C29 C 0.4481(5) 0.3220(5) 0.1181(5)
H20 H 0.4560 0.3212 0.0779
C30 C 0.4938(5) 0.3269(5) 0.1592(5)
H21 H 0.5323 0.3303 0.1459
C31 C 0.4824(5) 0.3268(5) 0.2217(5)
C32 C 0.5263(5) 0.3311(5) 0.2631(5)
H22 H 0.5651 0.3372 0.2513
C33 C 0.5127(5) 0.3265(5) 0.3223(5)
H23 H 0.5427 0.3235 0.3500
C34 C 0.4525(5) 0.3264(5) 0.3409(5)
H24 H 0.4440 0.3297 0.3808
C35 C 0.4257(5) 0.3229(5) 0.2421(5)
C36 C 0.3780(5) 0.3183(4) 0.2013(4)
H13_2 H 0.1697 0.8541 0.0323
C20_2 C 0.1689(5) 0.7369(5) 0.0263(5)
H14_2 H 0.1628 0.7487 0.0651
C21_2 C 0.1735(5) 0.6777(5) 0.0127(5)
H15_2 H 0.1765 0.6500 0.0427
Co1_2 Co 0.18353(6) 0.68353(6) 0.81647(6)
N1_2 N 0.2782(4) 0.6781(4) 0.8171(4)
N2_2 N 0.1973(4) 0.5914(4) 0.8217(4)
C1_2 C 0.3169(4) 0.7211(5) 0.8119(4)
H1_2 H 0.3031 0.7596 0.8105
C2_2 C 0.3775(5) 0.7119(5) 0.8085(4)
H2_2 H 0.4033 0.7435 0.8051
C3_2 C 0.3978(5) 0.6565(4) 0.8102(4)
H3_2 H 0.4380 0.6500 0.8059
C4_2 C 0.3613(4) 0.6093(5) 0.8183(4)
C5_2 C 0.3819(5) 0.5519(5) 0.8220(5)
H4_2 H 0.4221 0.5440 0.8212
C6_2 C 0.3408(5) 0.5062(5) 0.8269(5)
H5_2 H 0.3541 0.4677 0.8303
C7_2 C 0.2783(5) 0.5176(5) 0.8268(5)
C8_2 C 0.2369(5) 0.4737(5) 0.8311(5)
H6_2 H 0.2487 0.4349 0.8372
C9_2 C 0.1777(5) 0.4873(5) 0.8265(5)
H7_2 H 0.1500 0.4573 0.8235
C10_2 C 0.1591(5) 0.5475(5) 0.8264(5)
H8_2 H 0.1192 0.5560 0.8297
C11_2 C 0.2579(5) 0.5743(5) 0.8229(5)
C12_2 C 0.2987(4) 0.6220(5) 0.8183(4)
N3_2 N 0.1829(4) 0.7782(4) 0.8219(4)
N4_2 N 0.1783(4) 0.6973(4) 0.9086(4)
C13_2 C 0.1881(4) 0.8169(4) 0.7789(5)
H9_2 H 0.1895 0.8031 0.7404
C14_2 C 0.1915(4) 0.8775(5) 0.7881(5)
H10_2 H 0.1949 0.9033 0.7565
C15_2 C 0.1898(4) 0.8978(5) 0.8435(4)
H11_2 H 0.1941 0.9380 0.8500
C16_2 C 0.1817(4) 0.8613(4) 0.8907(5)
C17_2 C 0.1780(5) 0.8819(5) 0.9481(5)
H12_2 H 0.1788 0.9221 0.9560
C18_2 C 0.1731(5) 0.8408(5) 0.9938(5)
C19_2 C 0.1732(5) 0.7783(5) 0.9824(5)
C22_2 C 0.1736(5) 0.6591(5) 0.9525(5)
H16_2 H 0.1703 0.6192 0.9440
C23_2 C 0.1771(5) 0.7579(5) 0.9257(5)
C24_2 C 0.1817(4) 0.7987(4) 0.8780(5)
N5_2 N 0.1781(4) 0.6829(4) 0.7218(4)
N6_2 N 0.0914(4) 0.6783(4) 0.8027(4)
C25_2 C 0.2211(5) 0.6881(4) 0.6831(4)
H17_2 H 0.2596 0.6895 0.6969
C26_2 C 0.2119(5) 0.6915(4) 0.6225(5)
H18_2 H 0.2435 0.6949 0.5967
C27_2 C 0.1565(4) 0.6898(4) 0.6022(5)
H19_2 H 0.1500 0.6941 0.5620
C28_2 C 0.1093(5) 0.6817(4) 0.6387(4)
C29_2 C 0.0519(5) 0.6780(5) 0.6181(5)
H20_2 H 0.0440 0.6788 0.5779
C30_2 C 0.0062(5) 0.6731(5) 0.6592(5)
C31_2 C 0.0176(5) 0.6732(5) 0.7217(5)
C34_2 C 0.0475(5) 0.6736(5) 0.8409(5)
H24_2 H 0.0560 0.6703 0.8808
C35_2 C 0.0743(5) 0.6771(5) 0.7421(5)
C36_2 C 0.1220(5) 0.6817(4) 0.7013(4)
H21_2 H 0.9677 0.6697 0.6459
C32_2 C 0.9737(5) 0.6689(5) 0.7631(5)
H22_2 H 0.9349 0.6628 0.7513
C33_2 C 0.9873(5) 0.6735(5) 0.8223(5)
H23_2 H 0.9573 0.6765 0.8500
H5_3 H 0.8541 0.0323 0.1697
C8_3 C 0.7369(5) 0.0263(5) 0.1689(5)
H6_3 H 0.7487 0.0651 0.1628
C9_3 C 0.6777(5) 0.0127(5) 0.1735(5)
H7_3 H 0.6500 0.0427 0.1765
Co1_3 Co 0.68353(6) 0.81647(6) 0.18353(6)
N1_3 N 0.7782(4) 0.8219(4) 0.1829(4)
N2_3 N 0.6973(4) 0.9086(4) 0.1783(4)
C1_3 C 0.8169(4) 0.7789(5) 0.1881(4)
H1_3 H 0.8031 0.7404 0.1895
C2_3 C 0.8775(5) 0.7881(5) 0.1915(4)
H2_3 H 0.9033 0.7565 0.1949
C3_3 C 0.8978(5) 0.8435(4) 0.1898(4)
H3_3 H 0.9380 0.8500 0.1941
C4_3 C 0.8613(4) 0.8907(5) 0.1817(4)
C5_3 C 0.8819(5) 0.9481(5) 0.1780(5)
H4_3 H 0.9221 0.9560 0.1788
C6_3 C 0.8408(5) 0.9938(5) 0.1731(5)
C7_3 C 0.7783(5) 0.9824(5) 0.1732(5)
C10_3 C 0.6591(5) 0.9525(5) 0.1736(5)
H8_3 H 0.6192 0.9440 0.1703
C11_3 C 0.7579(5) 0.9257(5) 0.1771(5)
C12_3 C 0.7987(4) 0.8780(5) 0.1817(4)
N3_3 N 0.6829(4) 0.7218(4) 0.1781(4)
N4_3 N 0.6783(4) 0.8027(4) 0.0914(4)
C13_3 C 0.6881(4) 0.6831(4) 0.2211(5)
H9_3 H 0.6895 0.6969 0.2596
C14_3 C 0.6915(4) 0.6225(5) 0.2119(5)
H10_3 H 0.6949 0.5967 0.2435
C15_3 C 0.6898(4) 0.6022(5) 0.1565(4)
H11_3 H 0.6941 0.5620 0.1500
C16_3 C 0.6817(4) 0.6387(4) 0.1093(5)
C17_3 C 0.6780(5) 0.6181(5) 0.0519(5)
H12_3 H 0.6788 0.5779 0.0440
C18_3 C 0.6731(5) 0.6592(5) 0.0062(5)
C19_3 C 0.6732(5) 0.7217(5) 0.0176(5)
C22_3 C 0.6736(5) 0.8409(5) 0.0475(5)
H16_3 H 0.6703 0.8808 0.0560
C23_3 C 0.6771(5) 0.7421(5) 0.0743(5)
C24_3 C 0.6817(4) 0.7013(4) 0.1220(5)
N5_3 N 0.6781(4) 0.8171(4) 0.2782(4)
N6_3 N 0.5914(4) 0.8217(4) 0.1973(4)
C25_3 C 0.7211(5) 0.8119(4) 0.3169(4)
H17_3 H 0.7596 0.8105 0.3031
C26_3 C 0.7119(5) 0.8085(4) 0.3775(5)
H18_3 H 0.7435 0.8051 0.4033
C27_3 C 0.6565(4) 0.8102(4) 0.3978(5)
H19_3 H 0.6500 0.8059 0.4380
C28_3 C 0.6093(5) 0.8183(4) 0.3613(4)
C29_3 C 0.5519(5) 0.8220(5) 0.3819(5)
H20_3 H 0.5440 0.8212 0.4221
C30_3 C 0.5062(5) 0.8269(5) 0.3408(5)
H21_3 H 0.4677 0.8303 0.3541
C31_3 C 0.5176(5) 0.8268(5) 0.2783(5)
C32_3 C 0.4737(5) 0.8311(5) 0.2369(5)
H22_3 H 0.4349 0.8372 0.2487
C33_3 C 0.4873(5) 0.8265(5) 0.1777(5)
H23_3 H 0.4573 0.8235 0.1500
C34_3 C 0.5475(5) 0.8264(5) 0.1591(5)
H24_3 H 0.5560 0.8297 0.1192
C35_3 C 0.5743(5) 0.8229(5) 0.2579(5)
C36_3 C 0.6220(5) 0.8183(4) 0.2987(4)
H13_3 H 0.6697 0.6459 0.9677
C20_3 C 0.6689(5) 0.7631(5) 0.9737(5)
H14_3 H 0.6628 0.7513 0.9349
C21_3 C 0.6735(5) 0.8223(5) 0.9873(5)
H15_3 H 0.6765 0.8500 0.9573
H21_4 H 0.0323 0.1697 0.8541
C32_4 C 0.0263(5) 0.1689(5) 0.7369(5)
H22_4 H 0.0651 0.1628 0.7487
C33_4 C 0.0127(5) 0.1735(5) 0.6777(5)
H23_4 H 0.0427 0.1765 0.6500
Co1_4 Co 0.81647(6) 0.18353(6) 0.68353(6)
N1_4 N 0.7218(4) 0.1781(4) 0.6829(4)
N2_4 N 0.8027(4) 0.0914(4) 0.6783(4)
C1_4 C 0.6831(4) 0.2211(5) 0.6881(4)
H1_4 H 0.6969 0.2596 0.6895
C2_4 C 0.6225(5) 0.2119(5) 0.6915(4)
H2_4 H 0.5967 0.2435 0.6949
C3_4 C 0.6022(5) 0.1565(4) 0.6898(4)
H3_4 H 0.5620 0.1500 0.6941
C4_4 C 0.6387(4) 0.1093(5) 0.6817(4)
C5_4 C 0.6181(5) 0.0519(5) 0.6780(5)
H4_4 H 0.5779 0.0440 0.6788
C6_4 C 0.6592(5) 0.0062(5) 0.6731(5)
C7_4 C 0.7217(5) 0.0176(5) 0.6732(5)
C10_4 C 0.8409(5) 0.0475(5) 0.6736(5)
H8_4 H 0.8808 0.0560 0.6703
C11_4 C 0.7421(5) 0.0743(5) 0.6771(5)
C12_4 C 0.7013(4) 0.1220(5) 0.6817(4)
N3_4 N 0.8171(4) 0.2782(4) 0.6781(4)
N4_4 N 0.8217(4) 0.1973(4) 0.5914(4)
C13_4 C 0.8119(4) 0.3169(4) 0.7211(5)
H9_4 H 0.8105 0.3031 0.7596
C14_4 C 0.8085(4) 0.3775(5) 0.7119(5)
H10_4 H 0.8051 0.4033 0.7435
C15_4 C 0.8102(4) 0.3978(5) 0.6565(4)
H11_4 H 0.8059 0.4380 0.6500
C16_4 C 0.8183(4) 0.3613(4) 0.6093(5)
C17_4 C 0.8220(5) 0.3819(5) 0.5519(5)
H12_4 H 0.8212 0.4221 0.5440
C18_4 C 0.8269(5) 0.3408(5) 0.5062(5)
H13_4 H 0.8303 0.3541 0.4677
C19_4 C 0.8268(5) 0.2783(5) 0.5176(5)
C20_4 C 0.8311(5) 0.2369(5) 0.4737(5)
H14_4 H 0.8372 0.2487 0.4349
C21_4 C 0.8265(5) 0.1777(5) 0.4873(5)
H15_4 H 0.8235 0.1500 0.4573
C22_4 C 0.8264(5) 0.1591(5) 0.5475(5)
H16_4 H 0.8297 0.1192 0.5560
C23_4 C 0.8229(5) 0.2579(5) 0.5743(5)
C24_4 C 0.8183(4) 0.2987(4) 0.6220(5)
N5_4 N 0.8219(4) 0.1829(4) 0.7782(4)
N6_4 N 0.9086(4) 0.1783(4) 0.6973(4)
C25_4 C 0.7789(5) 0.1881(4) 0.8169(4)
H17_4 H 0.7404 0.1895 0.8031
C26_4 C 0.7881(5) 0.1915(4) 0.8775(5)
H18_4 H 0.7565 0.1949 0.9033
C27_4 C 0.8435(4) 0.1898(4) 0.8978(5)
H19_4 H 0.8500 0.1941 0.9380
C28_4 C 0.8907(5) 0.1817(4) 0.8613(4)
C29_4 C 0.9481(5) 0.1780(5) 0.8819(5)
H20_4 H 0.9560 0.1788 0.9221
C30_4 C 0.9938(5) 0.1731(5) 0.8408(5)
C31_4 C 0.9824(5) 0.1732(5) 0.7783(5)
C34_4 C 0.9525(5) 0.1736(5) 0.6591(5)
H24_4 H 0.9440 0.1703 0.6192
C35_4 C 0.9257(5) 0.1771(5) 0.7579(5)
C36_4 C 0.8780(5) 0.1817(4) 0.7987(4)
H5_4 H 0.6459 0.9677 0.6697
C8_4 C 0.7631(5) 0.9737(5) 0.6689(5)
H6_4 H 0.7513 0.9349 0.6628
C9_4 C 0.8223(5) 0.9873(5) 0.6735(5)
H7_4 H 0.8500 0.9573 0.6765
Co2 Co 0.31654(6) 0.68346(6) 0.18346(6)
N7 N 0.3220(4) 0.6816(4) 0.2777(4)
N8 N 0.4110(4) 0.6775(4) 0.1985(4)
C37 C 0.2796(5) 0.6842(5) 0.3172(4)
H25 H 0.2411 0.6807 0.3036
C38 C 0.2876(4) 0.6918(4) 0.3792(4)
H26 H 0.2557 0.6996 0.4036
C39 C 0.3410(4) 0.6875(5) 0.4010(5)
H27 H 0.3479 0.6894 0.4413
C40 C 0.3885(5) 0.6797(5) 0.3594(5)
C41 C 0.4429(5) 0.6764(5) 0.3809(5)
H28 H 0.4493 0.6770 0.4214
C42 C 0.4907(5) 0.6721(5) 0.3415(5)
H29 H 0.5285 0.6672 0.3564
C43 C 0.4824(5) 0.6750(5) 0.2805(5)
C44 C 0.5296(5) 0.6675(5) 0.2415(5)
H30 H 0.5677 0.6601 0.2545
C45 C 0.5152(5) 0.6722(5) 0.1805(6)
H31 H 0.5459 0.6735 0.1535
C46 C 0.4521(5) 0.6750(5) 0.1570(6)
H32 H 0.4433 0.6750 0.1170
C47 C 0.4217(5) 0.6783(5) 0.2558(5)
C48 C 0.3760(5) 0.6799(5) 0.2966(5)
N9 N 0.2223(4) 0.6780(4) 0.1816(4)
N10 N 0.3015(4) 0.5890(4) 0.1775(4)
C49 C 0.1828(4) 0.7204(5) 0.1842(5)
H33 H 0.1964 0.7589 0.1807
C50 C 0.1208(4) 0.7124(4) 0.1918(4)
H34 H 0.0964 0.7443 0.1996
C51 C 0.0990(5) 0.6590(4) 0.1875(5)
H35 H 0.0587 0.6521 0.1894
C52 C 0.1406(5) 0.6115(5) 0.1797(5)
C53 C 0.1191(5) 0.5571(5) 0.1764(5)
H36 H 0.0786 0.5507 0.1770
C54 C 0.1585(5) 0.5093(5) 0.1721(5)
H37 H 0.1436 0.4715 0.1672
C55 C 0.2195(5) 0.5176(5) 0.1750(5)
C56 C 0.2585(5) 0.4704(5) 0.1675(5)
H38 H 0.2455 0.4323 0.1601
C57 C 0.3195(6) 0.4848(5) 0.1722(5)
H39 H 0.3465 0.4541 0.1735
C58 C 0.3430(6) 0.5479(5) 0.1750(5)
H40 H 0.3830 0.5567 0.1750
C59 C 0.2442(5) 0.5783(5) 0.1783(5)
C60 C 0.2034(5) 0.6240(5) 0.1799(5)
N11 N 0.3184(4) 0.7777(4) 0.1780(4)
N12 N 0.3225(4) 0.6985(4) 0.0890(4)
C61 C 0.3158(5) 0.8172(4) 0.2204(5)
H41 H 0.3193 0.8036 0.2589
C62 C 0.3082(4) 0.8792(4) 0.2124(4)
H42 H 0.3004 0.9036 0.2443
C63 C 0.3125(5) 0.9010(5) 0.1590(4)
H43 H 0.3106 0.9413 0.1521
C64 C 0.3203(5) 0.8594(5) 0.1115(5)
C65 C 0.3236(5) 0.8809(5) 0.0571(5)
H44 H 0.3230 0.9214 0.0507
C66 C 0.3279(5) 0.8415(5) 0.0093(5)
C67 C 0.3250(5) 0.7805(5) 0.0176(5)
C70 C 0.3250(5) 0.6570(6) 0.0479(5)
H48 H 0.3250 0.6170 0.0567
C71 C 0.3217(5) 0.7558(5) 0.0783(5)
C72 C 0.3201(5) 0.7966(5) 0.1240(5)
H45 H 0.3328 0.8564 0.9715
C68 C 0.3325(5) 0.7415(5) 0.9704(5)
H46 H 0.3399 0.7545 0.9323
C69 C 0.3278(5) 0.6805(6) 0.9848(5)
H47 H 0.3265 0.6535 0.9541
Co2_2 Co 0.18346(6) 0.31654(6) 0.68346(6)
N7_2 N 0.1780(4) 0.3184(4) 0.7777(4)
N8_2 N 0.0890(4) 0.3225(4) 0.6985(4)
C37_2 C 0.2204(5) 0.3158(5) 0.8172(4)
H25_2 H 0.2589 0.3193 0.8036
C38_2 C 0.2124(4) 0.3082(4) 0.8792(4)
H26_2 H 0.2443 0.3004 0.9036
C39_2 C 0.1590(4) 0.3125(5) 0.9010(5)
H27_2 H 0.1521 0.3106 0.9413
C40_2 C 0.1115(5) 0.3203(5) 0.8594(5)
C41_2 C 0.0571(5) 0.3236(5) 0.8809(5)
H28_2 H 0.0507 0.3230 0.9214
C42_2 C 0.0093(5) 0.3279(5) 0.8415(5)
C43_2 C 0.0176(5) 0.3250(5) 0.7805(5)
C46_2 C 0.0479(5) 0.3250(5) 0.6570(6)
H32_2 H 0.0567 0.3250 0.6170
C47_2 C 0.0783(5) 0.3217(5) 0.7558(5)
C48_2 C 0.1240(5) 0.3201(5) 0.7966(5)
N9_2 N 0.2777(4) 0.3220(4) 0.6816(4)
N10_2 N 0.1985(4) 0.4110(4) 0.6775(4)
C49_2 C 0.3172(4) 0.2796(5) 0.6842(5)
H33_2 H 0.3036 0.2411 0.6807
C50_2 C 0.3792(4) 0.2876(4) 0.6918(4)
H34_2 H 0.4036 0.2557 0.6996
C51_2 C 0.4010(5) 0.3410(4) 0.6875(5)
H35_2 H 0.4413 0.3479 0.6894
C52_2 C 0.3594(5) 0.3885(5) 0.6797(5)
C53_2 C 0.3809(5) 0.4429(5) 0.6764(5)
H36_2 H 0.4214 0.4493 0.6770
C54_2 C 0.3415(5) 0.4907(5) 0.6721(5)
H37_2 H 0.3564 0.5285 0.6672
C55_2 C 0.2805(5) 0.4824(5) 0.6750(5)
C56_2 C 0.2415(5) 0.5296(5) 0.6675(5)
H38_2 H 0.2545 0.5677 0.6601
C57_2 C 0.1805(6) 0.5152(5) 0.6722(5)
H39_2 H 0.1535 0.5459 0.6735
C58_2 C 0.1570(6) 0.4521(5) 0.6750(5)
H40_2 H 0.1170 0.4433 0.6750
C59_2 C 0.2558(5) 0.4217(5) 0.6783(5)
C60_2 C 0.2966(5) 0.3760(5) 0.6799(5)
N11_2 N 0.1816(4) 0.2223(4) 0.6780(4)
N12_2 N 0.1775(4) 0.3015(4) 0.5890(4)
C61_2 C 0.1842(5) 0.1828(4) 0.7204(5)
H41_2 H 0.1807 0.1964 0.7589
C62_2 C 0.1918(4) 0.1208(4) 0.7124(4)
H42_2 H 0.1996 0.0964 0.7443
C63_2 C 0.1875(5) 0.0990(5) 0.6590(4)
H43_2 H 0.1894 0.0587 0.6521
C64_2 C 0.1797(5) 0.1406(5) 0.6115(5)
C65_2 C 0.1764(5) 0.1191(5) 0.5571(5)
H44_2 H 0.1770 0.0786 0.5507
C66_2 C 0.1721(5) 0.1585(5) 0.5093(5)
H45_2 H 0.1672 0.1436 0.4715
C67_2 C 0.1750(5) 0.2195(5) 0.5176(5)
C68_2 C 0.1675(5) 0.2585(5) 0.4704(5)
H46_2 H 0.1601 0.2455 0.4323
C69_2 C 0.1722(5) 0.3195(6) 0.4848(5)
H47_2 H 0.1735 0.3465 0.4541
C70_2 C 0.1750(5) 0.3430(6) 0.5479(5)
H48_2 H 0.1750 0.3830 0.5567
C71_2 C 0.1783(5) 0.2442(5) 0.5783(5)
C72_2 C 0.1799(5) 0.2034(5) 0.6240(5)
H29_2 H 0.9715 0.3328 0.8564
C44_2 C 0.9704(5) 0.3325(5) 0.7415(5)
H30_2 H 0.9323 0.3399 0.7545
C45_2 C 0.9848(5) 0.3278(5) 0.6805(6)
H31_2 H 0.9541 0.3265 0.6535
Co2_3 Co 0.68346(6) 0.18346(6) 0.31654(6)
N7_3 N 0.6780(4) 0.1816(4) 0.2223(4)
N8_3 N 0.5890(4) 0.1775(4) 0.3015(4)
C37_3 C 0.7204(5) 0.1842(5) 0.1828(4)
H25_3 H 0.7589 0.1807 0.1964
C38_3 C 0.7124(4) 0.1918(4) 0.1208(4)
H26_3 H 0.7443 0.1996 0.0964
C39_3 C 0.6590(4) 0.1875(5) 0.0990(5)
H27_3 H 0.6521 0.1894 0.0587
C40_3 C 0.6115(5) 0.1797(5) 0.1406(5)
C41_3 C 0.5571(5) 0.1764(5) 0.1191(5)
H28_3 H 0.5507 0.1770 0.0786
C42_3 C 0.5093(5) 0.1721(5) 0.1585(5)
H29_3 H 0.4715 0.1672 0.1436
C43_3 C 0.5176(5) 0.1750(5) 0.2195(5)
C44_3 C 0.4704(5) 0.1675(5) 0.2585(5)
H30_3 H 0.4323 0.1601 0.2455
C45_3 C 0.4848(5) 0.1722(5) 0.3195(6)
H31_3 H 0.4541 0.1735 0.3465
C46_3 C 0.5479(5) 0.1750(5) 0.3430(6)
H32_3 H 0.5567 0.1750 0.3830
C47_3 C 0.5783(5) 0.1783(5) 0.2442(5)
C48_3 C 0.6240(5) 0.1799(5) 0.2034(5)
N9_3 N 0.7777(4) 0.1780(4) 0.3184(4)
N10_3 N 0.6985(4) 0.0890(4) 0.3225(4)
C49_3 C 0.8172(4) 0.2204(5) 0.3158(5)
H33_3 H 0.8036 0.2589 0.3193
C50_3 C 0.8792(4) 0.2124(4) 0.3082(4)
H34_3 H 0.9036 0.2443 0.3004
C51_3 C 0.9010(5) 0.1590(4) 0.3125(5)
H35_3 H 0.9413 0.1521 0.3106
C52_3 C 0.8594(5) 0.1115(5) 0.3203(5)
C53_3 C 0.8809(5) 0.0571(5) 0.3236(5)
H36_3 H 0.9214 0.0507 0.3230
C54_3 C 0.8415(5) 0.0093(5) 0.3279(5)
C55_3 C 0.7805(5) 0.0176(5) 0.3250(5)
C58_3 C 0.6570(6) 0.0479(5) 0.3250(5)
H40_3 H 0.6170 0.0567 0.3250
C59_3 C 0.7558(5) 0.0783(5) 0.3217(5)
C60_3 C 0.7966(5) 0.1240(5) 0.3201(5)
N11_3 N 0.6816(4) 0.2777(4) 0.3220(4)
N12_3 N 0.6775(4) 0.1985(4) 0.4110(4)
C61_3 C 0.6842(5) 0.3172(4) 0.2796(5)
H41_3 H 0.6807 0.3036 0.2411
C62_3 C 0.6918(4) 0.3792(4) 0.2876(4)
H42_3 H 0.6996 0.4036 0.2557
C63_3 C 0.6875(5) 0.4010(5) 0.3410(4)
H43_3 H 0.6894 0.4413 0.3479
C64_3 C 0.6797(5) 0.3594(5) 0.3885(5)
C65_3 C 0.6764(5) 0.3809(5) 0.4429(5)
H44_3 H 0.6770 0.4214 0.4493
C66_3 C 0.6721(5) 0.3415(5) 0.4907(5)
H45_3 H 0.6672 0.3564 0.5285
C67_3 C 0.6750(5) 0.2805(5) 0.4824(5)
C68_3 C 0.6675(5) 0.2415(5) 0.5296(5)
H46_3 H 0.6601 0.2545 0.5677
C69_3 C 0.6722(5) 0.1805(6) 0.5152(5)
H47_3 H 0.6735 0.1535 0.5459
C70_3 C 0.6750(5) 0.1570(6) 0.4521(5)
H48_3 H 0.6750 0.1170 0.4433
C71_3 C 0.6783(5) 0.2558(5) 0.4217(5)
C72_3 C 0.6799(5) 0.2966(5) 0.3760(5)
H37_3 H 0.8564 0.9715 0.3328
C56_3 C 0.7415(5) 0.9704(5) 0.3325(5)
H38_3 H 0.7545 0.9323 0.3399
C57_3 C 0.6805(6) 0.9848(5) 0.3278(5)
H39_3 H 0.6535 0.9541 0.3265
H29_4 H 0.0285 0.8328 0.6436
C44_4 C 0.0296(5) 0.8325(5) 0.7585(5)
H30_4 H 0.0677 0.8399 0.7455
C45_4 C 0.0152(5) 0.8278(5) 0.8195(6)
H31_4 H 0.0459 0.8265 0.8465
H37_4 H 0.6436 0.0285 0.8328
C56_4 C 0.7585(5) 0.0296(5) 0.8325(5)
H38_4 H 0.7455 0.0677 0.8399
C57_4 C 0.8195(6) 0.0152(5) 0.8278(5)
H39_4 H 0.8465 0.0459 0.8265
H45_4 H 0.8328 0.6436 0.0285
C68_4 C 0.8325(5) 0.7585(5) 0.0296(5)
H46_4 H 0.8399 0.7455 0.0677
C69_4 C 0.8278(5) 0.8195(6) 0.0152(5)
H47_4 H 0.8265 0.8465 0.0459
Co2_4 Co 0.81654(6) 0.81654(6) 0.81654(6)
N7_4 N 0.8220(4) 0.8184(4) 0.7223(4)
N8_4 N 0.9110(4) 0.8225(4) 0.8015(4)
C37_4 C 0.7796(5) 0.8158(5) 0.6828(4)
H25_4 H 0.7411 0.8193 0.6964
C38_4 C 0.7876(4) 0.8082(4) 0.6208(4)
H26_4 H 0.7557 0.8004 0.5964
C39_4 C 0.8410(4) 0.8125(5) 0.5990(5)
H27_4 H 0.8479 0.8106 0.5587
C40_4 C 0.8885(5) 0.8203(5) 0.6406(5)
C41_4 C 0.9429(5) 0.8236(5) 0.6191(5)
H28_4 H 0.9493 0.8230 0.5786
C42_4 C 0.9907(5) 0.8279(5) 0.6585(5)
C43_4 C 0.9824(5) 0.8250(5) 0.7195(5)
C46_4 C 0.9521(5) 0.8250(5) 0.8430(6)
H32_4 H 0.9433 0.8250 0.8830
C47_4 C 0.9217(5) 0.8217(5) 0.7442(5)
C48_4 C 0.8760(5) 0.8201(5) 0.7034(5)
N9_4 N 0.7223(4) 0.8220(4) 0.8184(4)
N10_4 N 0.8015(4) 0.9110(4) 0.8225(4)
C49_4 C 0.6828(4) 0.7796(5) 0.8158(5)
H33_4 H 0.6964 0.7411 0.8193
C50_4 C 0.6208(4) 0.7876(4) 0.8082(4)
H34_4 H 0.5964 0.7557 0.8004
C51_4 C 0.5990(5) 0.8410(4) 0.8125(5)
H35_4 H 0.5587 0.8479 0.8106
C52_4 C 0.6406(5) 0.8885(5) 0.8203(5)
C53_4 C 0.6191(5) 0.9429(5) 0.8236(5)
H36_4 H 0.5786 0.9493 0.8230
C54_4 C 0.6585(5) 0.9907(5) 0.8279(5)
C55_4 C 0.7195(5) 0.9824(5) 0.8250(5)
C58_4 C 0.8430(6) 0.9521(5) 0.8250(5)
H40_4 H 0.8830 0.9433 0.8250
C59_4 C 0.7442(5) 0.9217(5) 0.8217(5)
C60_4 C 0.7034(5) 0.8760(5) 0.8201(5)
N11_4 N 0.8184(4) 0.7223(4) 0.8220(4)
N12_4 N 0.8225(4) 0.8015(4) 0.9110(4)
C61_4 C 0.8158(5) 0.6828(4) 0.7796(5)
H41_4 H 0.8193 0.6964 0.7411
C62_4 C 0.8082(4) 0.6208(4) 0.7876(4)
H42_4 H 0.8004 0.5964 0.7557
C63_4 C 0.8125(5) 0.5990(5) 0.8410(4)
H43_4 H 0.8106 0.5587 0.8479
C64_4 C 0.8203(5) 0.6406(5) 0.8885(5)
C65_4 C 0.8236(5) 0.6191(5) 0.9429(5)
H44_4 H 0.8230 0.5786 0.9493
C66_4 C 0.8279(5) 0.6585(5) 0.9907(5)
C67_4 C 0.8250(5) 0.7195(5) 0.9824(5)
C70_4 C 0.8250(5) 0.8430(6) 0.9521(5)
H48_4 H 0.8250 0.8830 0.9433
C71_4 C 0.8217(5) 0.7442(5) 0.9217(5)
C72_4 C 0.8201(5) 0.7034(5) 0.8760(5)
Ag1 Ag 0.10488(4) 0.10488(4) 0.10488(4)
Ag3 Ag 0.11295(4) 0.09578(4) 0.24635(4)
Ag4 Ag 0.10949(4) 0.01174(4) 0.34700(4)
I1 I 0.17949(3) 0.17949(3) 0.17949(3)
I2 I 0.01210(3) 0.05678(3) 0.17829(3)
I3 I 0.07588(4) 0.13279(3) 0.35707(3)
Ag7 Ag 0.24635(4) 0.11295(4) 0.09578(4)
Ag8 Ag 0.34700(4) 0.10949(4) 0.01174(4)
I8 I 0.17829(3) 0.01210(3) 0.05678(3)
I9 I 0.35707(3) 0.07588(4) 0.13279(3)
Ag11 Ag 0.09578(4) 0.24635(4) 0.11295(4)
Ag12 Ag 0.01174(4) 0.34700(4) 0.10949(4)
I13 I 0.05678(3) 0.17829(3) 0.01210(3)
I14 I 0.13279(3) 0.35707(3) 0.07588(4)
Ag6 Ag 0.15965(4) 0.11325(4) 0.98172(4)
Ag9 Ag 0.25793(4) 0.10827(5) 0.89901(4)
I10 I 0.25114(3) 0.19771(3) 0.99918(3)
I11 I 0.14226(3) 0.07541(4) 0.86646(3)
I12 I 0.31959(3) 0.01023(3) 0.94395(3)
I18 I 0.32028(3) 0.17972(3) 0.82028(3)
I22 I 0.44395(3) 0.18041(3) 0.98977(3)
Ag2 Ag 0.11325(4) 0.98172(4) 0.15965(4)
Ag5 Ag 0.10827(5) 0.89901(4) 0.25793(4)
I4 I 0.19771(3) 0.99918(3) 0.25114(3)
I5 I 0.07541(4) 0.86646(3) 0.14226(3)
I6 I 0.17972(3) 0.82028(3) 0.32028(3)
I7 I 0.01023(3) 0.94395(3) 0.31959(3)
Ag17 Ag 0.24207(4) 0.89173(5) 0.39901(4)
Ag18 Ag 0.10099(4) 0.75793(4) 0.39173(5)
I21 I 0.18041(3) 0.98977(3) 0.44395(3)
Ag14 Ag 0.39051(4) 0.98826(4) 0.84700(4)
Ag10 Ag 0.98172(4) 0.15965(4) 0.11325(4)
Ag13 Ag 0.89901(4) 0.25793(4) 0.10827(5)
I15 I 0.99918(3) 0.25114(3) 0.19771(3)
I16 I 0.86646(3) 0.14226(3) 0.07541(4)
I17 I 0.94395(3) 0.31959(3) 0.01023(3)
I19 I 0.82028(3) 0.32028(3) 0.17972(3)
I20 I 0.98977(3) 0.44395(3) 0.18041(3)
Ag15 Ag 0.84700(4) 0.39051(4) 0.98826(4)
Ag16 Ag 0.98826(4) 0.84700(4) 0.39051(4)
Ag2_2 Ag 0.38675(4) 0.01828(4) 0.65965(4)
Ag5_2 Ag 0.39173(5) 0.10099(4) 0.75793(4)
I4_2 I 0.30229(3) 0.00082(3) 0.75114(3)
I5_2 I 0.42459(4) 0.13354(3) 0.64226(3)
I7_2 I 0.48977(3) 0.05605(3) 0.81959(3)
Ag16_2 Ag 0.51174(4) 0.15300(4) 0.89051(4)
Ag18_2 Ag 0.39901(4) 0.24207(4) 0.89173(5)
Ag1_2 Ag 0.39512(4) 0.89512(4) 0.60488(4)
Ag3_2 Ag 0.38705(4) 0.90422(4) 0.74635(4)
I1_2 I 0.32051(3) 0.82051(3) 0.67949(3)
I2_2 I 0.48790(3) 0.94322(3) 0.67829(3)
I3_2 I 0.42412(4) 0.86721(3) 0.85707(3)
Ag6_2 Ag 0.34035(4) 0.88675(4) 0.48172(4)
Ag7_2 Ag 0.25365(4) 0.88705(4) 0.59578(4)
Ag8_2 Ag 0.15300(4) 0.89051(4) 0.51174(4)
I8_2 I 0.32171(3) 0.98790(3) 0.55678(3)
I9_2 I 0.14293(3) 0.92412(4) 0.63279(3)
I10_2 I 0.24886(3) 0.80229(3) 0.49918(3)
I11_2 I 0.35774(3) 0.92459(4) 0.36646(3)
Ag10_2 Ag 0.51828(4) 0.84035(4) 0.61325(4)
Ag11_2 Ag 0.40422(4) 0.75365(4) 0.61295(4)
Ag12_2 Ag 0.48826(4) 0.65300(4) 0.60949(4)
Ag13_2 Ag 0.60099(4) 0.74207(4) 0.60827(5)
I13_2 I 0.44322(3) 0.82171(3) 0.51210(3)
I14_2 I 0.36721(3) 0.64293(3) 0.57588(4)
I15_2 I 0.50082(3) 0.74886(3) 0.69771(3)
I16_2 I 0.63354(3) 0.85774(3) 0.57541(4)
I17_2 I 0.55605(3) 0.68041(3) 0.51023(3)
Ag15_2 Ag 0.65300(4) 0.60949(4) 0.48826(4)
I19_2 I 0.67972(3) 0.67972(3) 0.67972(3)
I20_2 I 0.51023(3) 0.55605(3) 0.68041(3)
I22_2 I 0.05605(3) 0.81959(3) 0.48977(3)
Ag10_3 Ag 0.01828(4) 0.65965(4) 0.38675(4)
I15_3 I 0.00082(3) 0.75114(3) 0.30229(3)
I16_3 I 0.13354(3) 0.64226(3) 0.42459(4)
Ag1_3 Ag 0.89512(4) 0.60488(4) 0.39512(4)
Ag2_3 Ag 0.88675(4) 0.48172(4) 0.34035(4)
Ag3_3 Ag 0.88705(4) 0.59578(4) 0.25365(4)
Ag4_2 Ag 0.89051(4) 0.51174(4) 0.15300(4)
Ag5_3 Ag 0.89173(5) 0.39901(4) 0.24207(4)
I1_3 I 0.82051(3) 0.67949(3) 0.32051(3)
I2_3 I 0.98790(3) 0.55678(3) 0.32171(3)
I3_3 I 0.92412(4) 0.63279(3) 0.14293(3)
I4_3 I 0.80229(3) 0.49918(3) 0.24886(3)
I5_3 I 0.92459(4) 0.36646(3) 0.35774(3)
Ag6_3 Ag 0.84035(4) 0.61325(4) 0.51828(4)
Ag7_3 Ag 0.75365(4) 0.61295(4) 0.40422(4)
Ag9_2 Ag 0.74207(4) 0.60827(5) 0.60099(4)
I8_3 I 0.82171(3) 0.51210(3) 0.44322(3)
I9_3 I 0.64293(3) 0.57588(4) 0.36721(3)
I10_3 I 0.74886(3) 0.69771(3) 0.50082(3)
I11_3 I 0.85774(3) 0.57541(4) 0.63354(3)
I12_2 I 0.68041(3) 0.51023(3) 0.55605(3)
Ag11_3 Ag 0.90422(4) 0.74635(4) 0.38705(4)
I13_3 I 0.94322(3) 0.67829(3) 0.48790(3)
I14_3 I 0.86721(3) 0.85707(3) 0.42412(4)
Ag14_2 Ag 0.60949(4) 0.48826(4) 0.65300(4)
Ag17_2 Ag 0.75793(4) 0.39173(5) 0.10099(4)
I21_2 I 0.81959(3) 0.48977(3) 0.05605(3)
Ag6_4 Ag 0.65965(4) 0.38675(4) 0.01828(4)
I10_4 I 0.75114(3) 0.30229(3) 0.00082(3)
I11_4 I 0.64226(3) 0.42459(4) 0.13354(3)
Ag1_4 Ag 0.60488(4) 0.39512(4) 0.89512(4)
Ag2_4 Ag 0.61325(4) 0.51828(4) 0.84035(4)
Ag3_4 Ag 0.61295(4) 0.40422(4) 0.75365(4)
Ag5_4 Ag 0.60827(5) 0.60099(4) 0.74207(4)
I1_4 I 0.67949(3) 0.32051(3) 0.82051(3)
I2_4 I 0.51210(3) 0.44322(3) 0.82171(3)
I3_4 I 0.57588(4) 0.36721(3) 0.64293(3)
I4_4 I 0.69771(3) 0.50082(3) 0.74886(3)
I5_4 I 0.57541(4) 0.63354(3) 0.85774(3)
Ag7_4 Ag 0.74635(4) 0.38705(4) 0.90422(4)
I8_4 I 0.67829(3) 0.48790(3) 0.94322(3)
I9_4 I 0.85707(3) 0.42412(4) 0.86721(3)
Ag10_4 Ag 0.48172(4) 0.34035(4) 0.88675(4)
Ag11_4 Ag 0.59578(4) 0.25365(4) 0.88705(4)
I13_4 I 0.55678(3) 0.32171(3) 0.98790(3)
I14_4 I 0.63279(3) 0.14293(3) 0.92412(4)
I15_4 I 0.49918(3) 0.24886(3) 0.80229(3)
I16_4 I 0.36646(3) 0.35774(3) 0.92459(4)
loop_
_geom_bond_atom_site_label_1
_geom_bond_atom_site_label_2
_geom_bond_site_symmetry_1
_geom_bond_site_symmetry_2
Co1 N1 1_555 1_555
N1 C1 1_555 1_555
N2 Co1 1_555 1_555
C1 H1 1_555 1_555
C2 C1 1_555 1_555
H2 C2 1_555 1_555
C3 C2 1_555 1_555
H3 C3 1_555 1_555
C4 C3 1_555 1_555
C5 C4 1_555 1_555
H4 C5 1_555 1_555
C6 C5 1_555 1_555
H5 C6 1_555 1_555
C7 C6 1_555 1_555
C8 C7 1_555 1_555
H6 C8 1_555 1_555
C9 C8 1_555 1_555
H7 C9 1_555 1_555
C10 N2 1_555 1_555
H8 C10 1_555 1_555
C11 N2 1_555 1_555
C12 N1 1_555 1_555
N3 Co1 1_555 1_555
N4 Co1 1_555 1_555
C13 N3 1_555 1_555
H9 C13 1_555 1_555
C14 C13 1_555 1_555
H10 C14 1_555 1_555
C15 C14 1_555 1_555
H11 C15 1_555 1_555
C16 C15 1_555 1_555
C17 C16 1_555 1_555
H12 C17 1_555 1_555
C18 C17 1_555 1_555
H13 C18 1_555 1_555
C19 C18 1_555 1_555
C20 C19 1_555 1_555
H14 C20 1_555 1_555
C21 C20 1_555 1_555
H15 C21 1_555 1_555
C22 N4 1_555 1_555
H16 C22 1_555 1_555
C23 N4 1_555 1_555
C24 N3 1_555 1_555
N5 Co1 1_555 1_555
N6 Co1 1_555 1_555
C25 N5 1_555 1_555
H17 C25 1_555 1_555
C26 C25 1_555 1_555
H18 C26 1_555 1_555
C27 C26 1_555 1_555
H19 C27 1_555 1_555
C28 C27 1_555 1_555
C29 C28 1_555 1_555
H20 C29 1_555 1_555
C30 C29 1_555 1_555
H21 C30 1_555 1_555
C31 C30 1_555 1_555
C32 C31 1_555 1_555
H22 C32 1_555 1_555
C33 C32 1_555 1_555
H23 C33 1_555 1_555
C34 N6 1_555 1_555
H24 C34 1_555 1_555
C35 N6 1_555 1_555
C36 N5 1_555 1_555
C4 C12 1_555 1_555
C7 C11 1_555 1_555
C9 C10 1_555 1_555
C11 C12 1_555 1_555
C16 C24 1_555 1_555
C19 C23 1_555 1_555
C21 C22 1_555 1_555
C23 C24 1_555 1_555
C28 C36 1_555 1_555
C31 C35 1_555 1_555
C33 C34 1_555 1_555
C35 C36 1_555 1_555
H14_2 C20_2 1_555 1_555
C21_2 C20_2 1_555 1_555
H15_2 C21_2 1_555 1_555
Co1_2 N1_2 1_555 1_555
N1_2 C1_2 1_555 1_555
N2_2 Co1_2 1_555 1_555
C1_2 H1_2 1_555 1_555
C2_2 C1_2 1_555 1_555
H2_2 C2_2 1_555 1_555
C3_2 C2_2 1_555 1_555
H3_2 C3_2 1_555 1_555
C4_2 C3_2 1_555 1_555
C5_2 C4_2 1_555 1_555
H4_2 C5_2 1_555 1_555
C6_2 C5_2 1_555 1_555
H5_2 C6_2 1_555 1_555
C7_2 C6_2 1_555 1_555
C8_2 C7_2 1_555 1_555
H6_2 C8_2 1_555 1_555
C9_2 C8_2 1_555 1_555
H7_2 C9_2 1_555 1_555
C10_2 N2_2 1_555 1_555
H8_2 C10_2 1_555 1_555
C11_2 N2_2 1_555 1_555
C12_2 N1_2 1_555 1_555
N3_2 Co1_2 1_555 1_555
N4_2 Co1_2 1_555 1_555
C13_2 N3_2 1_555 1_555
H9_2 C13_2 1_555 1_555
C14_2 C13_2 1_555 1_555
H10_2 C14_2 1_555 1_555
C15_2 C14_2 1_555 1_555
H11_2 C15_2 1_555 1_555
C16_2 C15_2 1_555 1_555
C17_2 C16_2 1_555 1_555
H12_2 C17_2 1_555 1_555
C18_2 C17_2 1_555 1_555
C19_2 C18_2 1_555 1_555
C22_2 N4_2 1_555 1_555
H16_2 C22_2 1_555 1_555
C23_2 N4_2 1_555 1_555
C24_2 N3_2 1_555 1_555
N5_2 Co1_2 1_555 1_555
N6_2 Co1_2 1_555 1_555
C25_2 N5_2 1_555 1_555
H17_2 C25_2 1_555 1_555
C26_2 C25_2 1_555 1_555
H18_2 C26_2 1_555 1_555
C27_2 C26_2 1_555 1_555
H19_2 C27_2 1_555 1_555
C28_2 C27_2 1_555 1_555
C29_2 C28_2 1_555 1_555
H20_2 C29_2 1_555 1_555
C30_2 C29_2 1_555 1_555
C31_2 C30_2 1_555 1_555
C34_2 N6_2 1_555 1_555
H24_2 C34_2 1_555 1_555
C35_2 N6_2 1_555 1_555
C36_2 N5_2 1_555 1_555
C4_2 C12_2 1_555 1_555
C7_2 C11_2 1_555 1_555
C9_2 C10_2 1_555 1_555
C11_2 C12_2 1_555 1_555
C16_2 C24_2 1_555 1_555
C19_2 C23_2 1_555 1_555
C23_2 C24_2 1_555 1_555
C28_2 C36_2 1_555 1_555
C31_2 C35_2 1_555 1_555
C35_2 C36_2 1_555 1_555
H22_2 C32_2 1_555 1_555
C33_2 C32_2 1_555 1_555
H23_2 C33_2 1_555 1_555
H6_3 C8_3 1_555 1_555
C9_3 C8_3 1_555 1_555
H7_3 C9_3 1_555 1_555
Co1_3 N1_3 1_555 1_555
N1_3 C1_3 1_555 1_555
N2_3 Co1_3 1_555 1_555
C1_3 H1_3 1_555 1_555
C2_3 C1_3 1_555 1_555
H2_3 C2_3 1_555 1_555
C3_3 C2_3 1_555 1_555
H3_3 C3_3 1_555 1_555
C4_3 C3_3 1_555 1_555
C5_3 C4_3 1_555 1_555
H4_3 C5_3 1_555 1_555
C6_3 C5_3 1_555 1_555
C7_3 C6_3 1_555 1_555
C10_3 N2_3 1_555 1_555
H8_3 C10_3 1_555 1_555
C11_3 N2_3 1_555 1_555
C12_3 N1_3 1_555 1_555
N3_3 Co1_3 1_555 1_555
N4_3 Co1_3 1_555 1_555
C13_3 N3_3 1_555 1_555
H9_3 C13_3 1_555 1_555
C14_3 C13_3 1_555 1_555
H10_3 C14_3 1_555 1_555
C15_3 C14_3 1_555 1_555
H11_3 C15_3 1_555 1_555
C16_3 C15_3 1_555 1_555
C17_3 C16_3 1_555 1_555
H12_3 C17_3 1_555 1_555
C18_3 C17_3 1_555 1_555
C19_3 C18_3 1_555 1_555
C22_3 N4_3 1_555 1_555
H16_3 C22_3 1_555 1_555
C23_3 N4_3 1_555 1_555
C24_3 N3_3 1_555 1_555
N5_3 Co1_3 1_555 1_555
N6_3 Co1_3 1_555 1_555
C25_3 N5_3 1_555 1_555
H17_3 C25_3 1_555 1_555
C26_3 C25_3 1_555 1_555
H18_3 C26_3 1_555 1_555
C27_3 C26_3 1_555 1_555
H19_3 C27_3 1_555 1_555
C28_3 C27_3 1_555 1_555
C29_3 C28_3 1_555 1_555
H20_3 C29_3 1_555 1_555
C30_3 C29_3 1_555 1_555
H21_3 C30_3 1_555 1_555
C31_3 C30_3 1_555 1_555
C32_3 C31_3 1_555 1_555
H22_3 C32_3 1_555 1_555
C33_3 C32_3 1_555 1_555
H23_3 C33_3 1_555 1_555
C34_3 N6_3 1_555 1_555
H24_3 C34_3 1_555 1_555
C35_3 N6_3 1_555 1_555
C36_3 N5_3 1_555 1_555
C4_3 C12_3 1_555 1_555
C7_3 C11_3 1_555 1_555
C11_3 C12_3 1_555 1_555
C16_3 C24_3 1_555 1_555
C19_3 C23_3 1_555 1_555
C23_3 C24_3 1_555 1_555
C28_3 C36_3 1_555 1_555
C31_3 C35_3 1_555 1_555
C33_3 C34_3 1_555 1_555
C35_3 C36_3 1_555 1_555
H14_3 C20_3 1_555 1_555
C21_3 C20_3 1_555 1_555
H15_3 C21_3 1_555 1_555
H22_4 C32_4 1_555 1_555
C33_4 C32_4 1_555 1_555
H23_4 C33_4 1_555 1_555
Co1_4 N1_4 1_555 1_555
N1_4 C1_4 1_555 1_555
N2_4 Co1_4 1_555 1_555
C1_4 H1_4 1_555 1_555
C2_4 C1_4 1_555 1_555
H2_4 C2_4 1_555 1_555
C3_4 C2_4 1_555 1_555
H3_4 C3_4 1_555 1_555
C4_4 C3_4 1_555 1_555
C5_4 C4_4 1_555 1_555
H4_4 C5_4 1_555 1_555
C6_4 C5_4 1_555 1_555
C7_4 C6_4 1_555 1_555
C10_4 N2_4 1_555 1_555
H8_4 C10_4 1_555 1_555
C11_4 N2_4 1_555 1_555
C12_4 N1_4 1_555 1_555
N3_4 Co1_4 1_555 1_555
N4_4 Co1_4 1_555 1_555
C13_4 N3_4 1_555 1_555
H9_4 C13_4 1_555 1_555
C14_4 C13_4 1_555 1_555
H10_4 C14_4 1_555 1_555
C15_4 C14_4 1_555 1_555
H11_4 C15_4 1_555 1_555
C16_4 C15_4 1_555 1_555
C17_4 C16_4 1_555 1_555
H12_4 C17_4 1_555 1_555
C18_4 C17_4 1_555 1_555
H13_4 C18_4 1_555 1_555
C19_4 C18_4 1_555 1_555
C20_4 C19_4 1_555 1_555
H14_4 C20_4 1_555 1_555
C21_4 C20_4 1_555 1_555
H15_4 C21_4 1_555 1_555
C22_4 N4_4 1_555 1_555
H16_4 C22_4 1_555 1_555
C23_4 N4_4 1_555 1_555
C24_4 N3_4 1_555 1_555
N5_4 Co1_4 1_555 1_555
N6_4 Co1_4 1_555 1_555
C25_4 N5_4 1_555 1_555
H17_4 C25_4 1_555 1_555
C26_4 C25_4 1_555 1_555
H18_4 C26_4 1_555 1_555
C27_4 C26_4 1_555 1_555
H19_4 C27_4 1_555 1_555
C28_4 C27_4 1_555 1_555
C29_4 C28_4 1_555 1_555
H20_4 C29_4 1_555 1_555
C30_4 C29_4 1_555 1_555
C31_4 C30_4 1_555 1_555
C34_4 N6_4 1_555 1_555
H24_4 C34_4 1_555 1_555
C35_4 N6_4 1_555 1_555
C36_4 N5_4 1_555 1_555
C4_4 C12_4 1_555 1_555
C7_4 C11_4 1_555 1_555
C11_4 C12_4 1_555 1_555
C16_4 C24_4 1_555 1_555
C19_4 C23_4 1_555 1_555
C21_4 C22_4 1_555 1_555
C23_4 C24_4 1_555 1_555
C28_4 C36_4 1_555 1_555
C31_4 C35_4 1_555 1_555
C35_4 C36_4 1_555 1_555
H6_4 C8_4 1_555 1_555
C9_4 C8_4 1_555 1_555
H7_4 C9_4 1_555 1_555
Co2 N7 1_555 1_555
N7 C37 1_555 1_555
N8 Co2 1_555 1_555
C37 H25 1_555 1_555
C38 C37 1_555 1_555
H26 C38 1_555 1_555
C39 C38 1_555 1_555
H27 C39 1_555 1_555
C40 C39 1_555 1_555
C41 C40 1_555 1_555
H28 C41 1_555 1_555
C42 C41 1_555 1_555
H29 C42 1_555 1_555
C43 C42 1_555 1_555
C44 C43 1_555 1_555
H30 C44 1_555 1_555
C45 C44 1_555 1_555
H31 C45 1_555 1_555
C46 N8 1_555 1_555
H32 C46 1_555 1_555
C47 N8 1_555 1_555
C48 N7 1_555 1_555
N9 Co2 1_555 1_555
N10 Co2 1_555 1_555
C49 N9 1_555 1_555
H33 C49 1_555 1_555
C50 C49 1_555 1_555
H34 C50 1_555 1_555
C51 C50 1_555 1_555
H35 C51 1_555 1_555
C52 C51 1_555 1_555
C53 C52 1_555 1_555
H36 C53 1_555 1_555
C54 C53 1_555 1_555
H37 C54 1_555 1_555
C55 C54 1_555 1_555
C56 C55 1_555 1_555
H38 C56 1_555 1_555
C57 C56 1_555 1_555
H39 C57 1_555 1_555
C58 N10 1_555 1_555
H40 C58 1_555 1_555
C59 N10 1_555 1_555
C60 N9 1_555 1_555
N11 Co2 1_555 1_555
N12 Co2 1_555 1_555
C61 N11 1_555 1_555
H41 C61 1_555 1_555
C62 C61 1_555 1_555
H42 C62 1_555 1_555
C63 C62 1_555 1_555
H43 C63 1_555 1_555
C64 C63 1_555 1_555
C65 C64 1_555 1_555
H44 C65 1_555 1_555
C66 C65 1_555 1_555
C67 C66 1_555 1_555
C70 N12 1_555 1_555
H48 C70 1_555 1_555
C71 N12 1_555 1_555
C72 N11 1_555 1_555
C40 C48 1_555 1_555
C43 C47 1_555 1_555
C45 C46 1_555 1_555
C47 C48 1_555 1_555
C52 C60 1_555 1_555
C55 C59 1_555 1_555
C57 C58 1_555 1_555
C59 C60 1_555 1_555
C64 C72 1_555 1_555
C67 C71 1_555 1_555
C71 C72 1_555 1_555
H46 C68 1_555 1_555
C69 C68 1_555 1_555
H47 C69 1_555 1_555
Co2_2 N7_2 1_555 1_555
N7_2 C37_2 1_555 1_555
N8_2 Co2_2 1_555 1_555
C37_2 H25_2 1_555 1_555
C38_2 C37_2 1_555 1_555
H26_2 C38_2 1_555 1_555
C39_2 C38_2 1_555 1_555
H27_2 C39_2 1_555 1_555
C40_2 C39_2 1_555 1_555
C41_2 C40_2 1_555 1_555
H28_2 C41_2 1_555 1_555
C42_2 C41_2 1_555 1_555
C43_2 C42_2 1_555 1_555
C46_2 N8_2 1_555 1_555
H32_2 C46_2 1_555 1_555
C47_2 N8_2 1_555 1_555
C48_2 N7_2 1_555 1_555
N9_2 Co2_2 1_555 1_555
N10_2 Co2_2 1_555 1_555
C49_2 N9_2 1_555 1_555
H33_2 C49_2 1_555 1_555
C50_2 C49_2 1_555 1_555
H34_2 C50_2 1_555 1_555
C51_2 C50_2 1_555 1_555
H35_2 C51_2 1_555 1_555
C52_2 C51_2 1_555 1_555
C53_2 C52_2 1_555 1_555
H36_2 C53_2 1_555 1_555
C54_2 C53_2 1_555 1_555
H37_2 C54_2 1_555 1_555
C55_2 C54_2 1_555 1_555
C56_2 C55_2 1_555 1_555
H38_2 C56_2 1_555 1_555
C57_2 C56_2 1_555 1_555
H39_2 C57_2 1_555 1_555
C58_2 N10_2 1_555 1_555
H40_2 C58_2 1_555 1_555
C59_2 N10_2 1_555 1_555
C60_2 N9_2 1_555 1_555
N11_2 Co2_2 1_555 1_555
N12_2 Co2_2 1_555 1_555
C61_2 N11_2 1_555 1_555
H41_2 C61_2 1_555 1_555
C62_2 C61_2 1_555 1_555
H42_2 C62_2 1_555 1_555
C63_2 C62_2 1_555 1_555
H43_2 C63_2 1_555 1_555
C64_2 C63_2 1_555 1_555
C65_2 C64_2 1_555 1_555
H44_2 C65_2 1_555 1_555
C66_2 C65_2 1_555 1_555
H45_2 C66_2 1_555 1_555
C67_2 C66_2 1_555 1_555
C68_2 C67_2 1_555 1_555
H46_2 C68_2 1_555 1_555
C69_2 C68_2 1_555 1_555
H47_2 C69_2 1_555 1_555
C70_2 N12_2 1_555 1_555
H48_2 C70_2 1_555 1_555
C71_2 N12_2 1_555 1_555
C72_2 N11_2 1_555 1_555
C40_2 C48_2 1_555 1_555
C43_2 C47_2 1_555 1_555
C47_2 C48_2 1_555 1_555
C52_2 C60_2 1_555 1_555
C55_2 C59_2 1_555 1_555
C57_2 C58_2 1_555 1_555
C59_2 C60_2 1_555 1_555
C64_2 C72_2 1_555 1_555
C67_2 C71_2 1_555 1_555
C69_2 C70_2 1_555 1_555
C71_2 C72_2 1_555 1_555
H30_2 C44_2 1_555 1_555
C45_2 C44_2 1_555 1_555
H31_2 C45_2 1_555 1_555
Co2_3 N7_3 1_555 1_555
N7_3 C37_3 1_555 1_555
N8_3 Co2_3 1_555 1_555
C37_3 H25_3 1_555 1_555
C38_3 C37_3 1_555 1_555
H26_3 C38_3 1_555 1_555
C39_3 C38_3 1_555 1_555
H27_3 C39_3 1_555 1_555
C40_3 C39_3 1_555 1_555
C41_3 C40_3 1_555 1_555
H28_3 C41_3 1_555 1_555
C42_3 C41_3 1_555 1_555
H29_3 C42_3 1_555 1_555
C43_3 C42_3 1_555 1_555
C44_3 C43_3 1_555 1_555
H30_3 C44_3 1_555 1_555
C45_3 C44_3 1_555 1_555
H31_3 C45_3 1_555 1_555
C46_3 N8_3 1_555 1_555
H32_3 C46_3 1_555 1_555
C47_3 N8_3 1_555 1_555
C48_3 N7_3 1_555 1_555
N9_3 Co2_3 1_555 1_555
N10_3 Co2_3 1_555 1_555
C49_3 N9_3 1_555 1_555
H33_3 C49_3 1_555 1_555
C50_3 C49_3 1_555 1_555
H34_3 C50_3 1_555 1_555
C51_3 C50_3 1_555 1_555
H35_3 C51_3 1_555 1_555
C52_3 C51_3 1_555 1_555
C53_3 C52_3 1_555 1_555
H36_3 C53_3 1_555 1_555
C54_3 C53_3 1_555 1_555
C55_3 C54_3 1_555 1_555
C58_3 N10_3 1_555 1_555
H40_3 C58_3 1_555 1_555
C59_3 N10_3 1_555 1_555
C60_3 N9_3 1_555 1_555
N11_3 Co2_3 1_555 1_555
N12_3 Co2_3 1_555 1_555
C61_3 N11_3 1_555 1_555
H41_3 C61_3 1_555 1_555
C62_3 C61_3 1_555 1_555
H42_3 C62_3 1_555 1_555
C63_3 C62_3 1_555 1_555
H43_3 C63_3 1_555 1_555
C64_3 C63_3 1_555 1_555
C65_3 C64_3 1_555 1_555
H44_3 C65_3 1_555 1_555
C66_3 C65_3 1_555 1_555
H45_3 C66_3 1_555 1_555
C67_3 C66_3 1_555 1_555
C68_3 C67_3 1_555 1_555
H46_3 C68_3 1_555 1_555
C69_3 C68_3 1_555 1_555
H47_3 C69_3 1_555 1_555
C70_3 N12_3 1_555 1_555
H48_3 C70_3 1_555 1_555
C71_3 N12_3 1_555 1_555
C72_3 N11_3 1_555 1_555
C40_3 C48_3 1_555 1_555
C43_3 C47_3 1_555 1_555
C45_3 C46_3 1_555 1_555
C47_3 C48_3 1_555 1_555
C52_3 C60_3 1_555 1_555
C55_3 C59_3 1_555 1_555
C59_3 C60_3 1_555 1_555
C64_3 C72_3 1_555 1_555
C67_3 C71_3 1_555 1_555
C69_3 C70_3 1_555 1_555
C71_3 C72_3 1_555 1_555
H38_3 C56_3 1_555 1_555
C57_3 C56_3 1_555 1_555
H39_3 C57_3 1_555 1_555
H30_4 C44_4 1_555 1_555
C45_4 C44_4 1_555 1_555
H31_4 C45_4 1_555 1_555
H38_4 C56_4 1_555 1_555
C57_4 C56_4 1_555 1_555
H39_4 C57_4 1_555 1_555
H46_4 C68_4 1_555 1_555
C69_4 C68_4 1_555 1_555
H47_4 C69_4 1_555 1_555
Co2_4 N7_4 1_555 1_555
N7_4 C37_4 1_555 1_555
N8_4 Co2_4 1_555 1_555
C37_4 H25_4 1_555 1_555
C38_4 C37_4 1_555 1_555
H26_4 C38_4 1_555 1_555
C39_4 C38_4 1_555 1_555
H27_4 C39_4 1_555 1_555
C40_4 C39_4 1_555 1_555
C41_4 C40_4 1_555 1_555
H28_4 C41_4 1_555 1_555
C42_4 C41_4 1_555 1_555
C43_4 C42_4 1_555 1_555
C46_4 N8_4 1_555 1_555
H32_4 C46_4 1_555 1_555
C47_4 N8_4 1_555 1_555
C48_4 N7_4 1_555 1_555
N9_4 Co2_4 1_555 1_555
N10_4 Co2_4 1_555 1_555
C49_4 N9_4 1_555 1_555
H33_4 C49_4 1_555 1_555
C50_4 C49_4 1_555 1_555
H34_4 C50_4 1_555 1_555
C51_4 C50_4 1_555 1_555
H35_4 C51_4 1_555 1_555
C52_4 C51_4 1_555 1_555
C53_4 C52_4 1_555 1_555
H36_4 C53_4 1_555 1_555
C54_4 C53_4 1_555 1_555
C55_4 C54_4 1_555 1_555
C58_4 N10_4 1_555 1_555
H40_4 C58_4 1_555 1_555
C59_4 N10_4 1_555 1_555
C60_4 N9_4 1_555 1_555
N11_4 Co2_4 1_555 1_555
N12_4 Co2_4 1_555 1_555
C61_4 N11_4 1_555 1_555
H41_4 C61_4 1_555 1_555
C62_4 C61_4 1_555 1_555
H42_4 C62_4 1_555 1_555
C63_4 C62_4 1_555 1_555
H43_4 C63_4 1_555 1_555
C64_4 C63_4 1_555 1_555
C65_4 C64_4 1_555 1_555
H44_4 C65_4 1_555 1_555
C66_4 C65_4 1_555 1_555
C67_4 C66_4 1_555 1_555
C70_4 N12_4 1_555 1_555
H48_4 C70_4 1_555 1_555
C71_4 N12_4 1_555 1_555
C72_4 N11_4 1_555 1_555
C40_4 C48_4 1_555 1_555
C43_4 C47_4 1_555 1_555
C47_4 C48_4 1_555 1_555
C52_4 C60_4 1_555 1_555
C55_4 C59_4 1_555 1_555
C59_4 C60_4 1_555 1_555
C64_4 C72_4 1_555 1_555
C67_4 C71_4 1_555 1_555
C71_4 C72_4 1_555 1_555
Ag1 I1 1_555 1_555
Ag3 I1 1_555 1_555
Ag4 I3 1_555 1_555
I1 Ag7 1_555 1_555
I2 Ag1 1_555 1_555
I3 Ag3 1_555 1_555
Ag7 I8 1_555 1_555
Ag8 I9 1_555 1_555
I8 Ag1 1_555 1_555
I9 Ag7 1_555 1_555
Ag11 I1 1_555 1_555
Ag12 I14 1_555 1_555
I13 Ag1 1_555 1_555
I14 Ag11 1_555 1_555
Ag3 I2 1_555 1_555
Ag11 I13 1_555 1_555
Ag9 I10 1_555 1_555
I10 Ag6 1_555 1_555
I11 Ag6 1_555 1_555
I18 Ag9 1_555 1_555
Ag9 I11 1_555 1_555
Ag9 I12 1_555 1_555
Ag5 I4 1_555 1_555
I4 Ag2 1_555 1_555
I5 Ag2 1_555 1_555
I6 Ag5 1_555 1_555
Ag17 I6 1_555 1_555
Ag18 I6 1_555 1_555
Ag5 I5 1_555 1_555
Ag5 I7 1_555 1_555
Ag17 I21 1_555 1_555
Ag13 I15 1_555 1_555
I15 Ag10 1_555 1_555
I16 Ag10 1_555 1_555
I19 Ag13 1_555 1_555
Ag13 I16 1_555 1_555
Ag13 I17 1_555 1_555
Ag5_2 I4_2 1_555 1_555
I4_2 Ag2_2 1_555 1_555
I5_2 Ag2_2 1_555 1_555
I18 Ag5_2 1_555 1_555
Ag16_2 I7_2 1_555 1_555
Ag18_2 I18 1_555 1_555
Ag5_2 I5_2 1_555 1_555
Ag5_2 I7_2 1_555 1_555
Ag1_2 I1_2 1_555 1_555
Ag3_2 I1_2 1_555 1_555
Ag14 I3_2 1_555 1_555
I1_2 Ag7_2 1_555 1_555
I2_2 Ag1_2 1_555 1_555
I3_2 Ag3_2 1_555 1_555
Ag6_2 I8_2 1_555 1_555
Ag7_2 I8_2 1_555 1_555
Ag8_2 I9_2 1_555 1_555
Ag17 I10_2 1_555 1_555
I8_2 Ag1_2 1_555 1_555
I9_2 Ag7_2 1_555 1_555
I10_2 Ag6_2 1_555 1_555
I11_2 Ag6_2 1_555 1_555
I21 Ag8_2 1_555 1_555
Ag10_2 I2_2 1_555 1_555
Ag11_2 I1_2 1_555 1_555
Ag12_2 I14_2 1_555 1_555
Ag13_2 I15_2 1_555 1_555
I13_2 Ag1_2 1_555 1_555
I14_2 Ag11_2 1_555 1_555
I15_2 Ag10_2 1_555 1_555
I16_2 Ag10_2 1_555 1_555
I17_2 Ag12_2 1_555 1_555
Ag15_2 I17_2 1_555 1_555
I19_2 Ag13_2 1_555 1_555
I20_2 Ag12_2 1_555 1_555
I22_2 Ag8_2 1_555 1_555
Ag3_2 I2_2 1_555 1_555
Ag6_2 I13_2 1_555 1_555
Ag7_2 I10_2 1_555 1_555
Ag8_2 I10_2 1_555 1_555
Ag17 I11_2 1_555 1_555
Ag10_2 I13_2 1_555 1_555
Ag11_2 I13_2 1_555 1_555
Ag11_2 I15_2 1_555 1_555
Ag12_2 I15_2 1_555 1_555
Ag13_2 I16_2 1_555 1_555
Ag13_2 I17_2 1_555 1_555
Ag18 I15_3 1_555 1_555
I15_3 Ag10_3 1_555 1_555
I16_3 Ag10_3 1_555 1_555
Ag18 I16_3 1_555 1_555
Ag18 I22_2 1_555 1_555
Ag1_3 I1_3 1_555 1_555
Ag2_3 I2_3 1_555 1_555
Ag3_3 I1_3 1_555 1_555
Ag4_2 I3_3 1_555 1_555
Ag5_3 I4_3 1_555 1_555
I1_3 Ag7_3 1_555 1_555
I2_3 Ag1_3 1_555 1_555
I3_3 Ag3_3 1_555 1_555
I4_3 Ag2_3 1_555 1_555
I5_3 Ag2_3 1_555 1_555
I19 Ag5_3 1_555 1_555
I20 Ag4_2 1_555 1_555
Ag6_3 I8_3 1_555 1_555
Ag7_3 I8_3 1_555 1_555
Ag15_2 I9_3 1_555 1_555
Ag9_2 I10_3 1_555 1_555
I8_3 Ag1_3 1_555 1_555
I9_3 Ag7_3 1_555 1_555
I10_3 Ag6_3 1_555 1_555
I11_3 Ag6_3 1_555 1_555
I12_2 Ag15_2 1_555 1_555
Ag11_3 I1_3 1_555 1_555
Ag16 I14_3 1_555 1_555
I13_3 Ag1_3 1_555 1_555
I14_3 Ag11_3 1_555 1_555
Ag14_2 I12_2 1_555 1_555
Ag17_2 I19 1_555 1_555
I19_2 Ag9_2 1_555 1_555
I21_2 Ag4_2 1_555 1_555
Ag2_3 I8_3 1_555 1_555
Ag3_3 I2_3 1_555 1_555
Ag3_3 I4_3 1_555 1_555
Ag4_2 I4_3 1_555 1_555
Ag5_3 I5_3 1_555 1_555
Ag5_3 I20 1_555 1_555
Ag6_3 I13_3 1_555 1_555
Ag7_3 I10_3 1_555 1_555
Ag15_2 I10_3 1_555 1_555
Ag9_2 I11_3 1_555 1_555
Ag9_2 I12_2 1_555 1_555
Ag11_3 I13_3 1_555 1_555
Ag17_2 I21_2 1_555 1_555
Ag17_2 I10_4 1_555 1_555
I10_4 Ag6_4 1_555 1_555
I11_4 Ag6_4 1_555 1_555
Ag17_2 I11_4 1_555 1_555
Ag1_4 I1_4 1_555 1_555
Ag2_4 I2_4 1_555 1_555
Ag3_4 I1_4 1_555 1_555
Ag14_2 I3_4 1_555 1_555
Ag5_4 I4_4 1_555 1_555
I1_4 Ag7_4 1_555 1_555
I2_4 Ag1_4 1_555 1_555
I3_4 Ag3_4 1_555 1_555
I4_4 Ag2_4 1_555 1_555
I5_4 Ag2_4 1_555 1_555
I19_2 Ag5_4 1_555 1_555
I20_2 Ag14_2 1_555 1_555
Ag7_4 I8_4 1_555 1_555
Ag15 I9_4 1_555 1_555
I8_4 Ag1_4 1_555 1_555
I9_4 Ag7_4 1_555 1_555
Ag10_4 I2_4 1_555 1_555
Ag11_4 I1_4 1_555 1_555
Ag16_2 I14_4 1_555 1_555
Ag18_2 I15_4 1_555 1_555
I13_4 Ag1_4 1_555 1_555
I14_4 Ag11_4 1_555 1_555
I15_4 Ag10_4 1_555 1_555
I16_4 Ag10_4 1_555 1_555
I22 Ag16_2 1_555 1_555
Ag2_4 I8_4 1_555 1_555
Ag3_4 I2_4 1_555 1_555
Ag3_4 I4_4 1_555 1_555
Ag14_2 I4_4 1_555 1_555
Ag5_4 I5_4 1_555 1_555
Ag5_4 I20_2 1_555 1_555
Ag10_4 I13_4 1_555 1_555
Ag11_4 I13_4 1_555 1_555
Ag11_4 I15_4 1_555 1_555
Ag16_2 I15_4 1_555 1_555
Ag18_2 I16_4 1_555 1_555
Ag18_2 I22 1_555 1_555

#END
