
###############################################################################
#
# This file contains modified crystal structure data generated from the
# MOF subset of the Cambridge Structural Database (CSD) v543 
# hosted by the Cambridge Crystallographic Data Centre (CCDC).
#
# This work is licensed under the Creative Commons
# Attribution-NonCommercial-ShareAlike 4.0 International License.
# To view a copy of this license, visit
# http://creativecommons.org/licenses/by-nc-sa/4.0/
# or send a letter to
# Creative Commons, PO Box 1866, Mountain View, CA 94042, USA.
#
# CIF created using the CSD Python API on 29 September 2022
# The structure has been converted into the P1 space group
# The structure has a 3D framework
# The original CSD entry QUSQIG is in the tetragonal crystal system
# The framework has been calculated to contain at least 10.0% void space
# The void calculation uses a probe of radius 1.32A, grid spacing 0.4
#
###############################################################################

data_QUSQIG
_chemical_formula_moiety         '(C544 H352 Ir16 N64 O58 Zn18)n'
_symmetry_cell_setting           triclinic
_symmetry_space_group_name_H-M   'P 1'
_symmetry_Int_Tables_number      1
_space_group_name_Hall           'P 1'
loop_
_symmetry_equiv_pos_site_id
_symmetry_equiv_pos_as_xyz
1 x,y,z
_cell_length_a                   17.14298(12)
_cell_length_b                   17.14298(12)
_cell_length_c                   49.0687(6)
_cell_angle_alpha                90
_cell_angle_beta                 90
_cell_angle_gamma                90
_cell_volume                     14420.4
loop_
_atom_site_label
_atom_site_type_symbol
_atom_site_fract_x
_atom_site_fract_y
_atom_site_fract_z
H14 H 0.0362 0.6750 0.3076
H15 H 0.0260 0.9174 0.4148
H16 H 0.0370 0.8430 0.3784
H18 H 0.0392 0.7643 0.3413
Zn3 Zn -0.0000 0.5000 0.51488(3)
Ir1 Ir 0.784288(18) 0.707186(17) 0.383080(14)
Zn1 Zn 0.5000 0.5000 0.26488(3)
O1 O 0.9427(4) 0.6230(4) 0.47862(13)
O2 O 0.9121(4) 0.4998(4) 0.48970(11)
O3 O 0.5669(7) 0.6330(5) 0.30030(19)
O4 O 0.5826(4) 0.5059(4) 0.29202(12)
C1 C 0.8562(5) 0.5528(5) 0.44997(15)
C2 C 0.6751(7) 0.7167(7) 0.4317(2)
H1 H 0.7018 0.6735 0.4383
C3 C 0.6794(7) 0.8359(7) 0.3707(3)
C4 C 0.6308(5) 0.5590(6) 0.33291(16)
C5 C 0.7431(7) 0.7945(6) 0.3590(2)
C6 C 0.7132(4) 0.5481(5) 0.38032(19)
C7 C 0.7693(9) 0.8145(6) 0.3325(2)
H2 H 0.8109 0.7882 0.3245
C8 C 0.9330(6) 0.7885(4) 0.3826(3)
C9 C 0.6161(7) 0.7481(9) 0.4472(3)
H3 H 0.6048 0.7273 0.4642
C10 C 0.6438(9) 0.8962(7) 0.3567(3)
H4 H 0.6017 0.9228 0.3642
C11 C 0.9246(6) 0.8744(6) 0.4293(2)
H5 H 0.9237 0.9026 0.4455
C12 C 0.8109(6) 0.4905(6) 0.44593(16)
H6 H 0.8112 0.4499 0.4585
N1 N 0.8076(4) 0.6103(3) 0.40930(13)
C13 C 0.6719(5) 0.6226(5) 0.34352(16)
H7 H 0.6718 0.6697 0.3341
C14 C 0.6703(5) 0.4849(6) 0.37080(17)
H8 H 0.6693 0.4385 0.3807
C15 C 0.9350(7) 0.6255(7) 0.3189(2)
H9 H 0.9339 0.5876 0.3053
C16 C 0.8642(5) 0.7822(5) 0.39848(17)
N2 N 0.7113(3) 0.6168(4) 0.36701(13)
C17 C 0.6724(10) 0.9157(7) 0.3316(3)
H10 H 0.6513 0.9586 0.3226
C18 C 0.5898(7) 0.5677(6) 0.30593(17)
C19 C 0.6514(7) 0.8058(7) 0.3977(2)
C20 C 0.7640(6) 0.4859(6) 0.42335(17)
H11 H 0.7340 0.4416 0.4204
C21 C 0.6307(5) 0.4908(6) 0.34754(17)
H12 H 0.6027 0.4482 0.3411
C22 C 0.7314(9) 0.8741(7) 0.3188(3)
H13 H 0.7456 0.8864 0.3010
C23 C 0.9961(8) 0.6771(7) 0.3203(2)
C24 C 0.9871(8) 0.8811(6) 0.4111(3)
C25 C 0.9930(7) 0.8393(6) 0.3894(2)
C26 C 0.5903(8) 0.8375(8) 0.4123(3)
H17 H 0.5605 0.8775 0.4049
C27 C 0.9974(8) 0.7300(7) 0.3401(2)
C28 C 0.5744(7) 0.8097(9) 0.4375(3)
H19 H 0.5354 0.8324 0.4480
C29 C 0.7613(5) 0.5463(5) 0.40526(15)
C30 C 0.9072(5) 0.5621(5) 0.47445(14)
C31 C 0.9369(6) 0.7345(5) 0.3589(2)
C32 C 0.8623(6) 0.8227(5) 0.4222(2)
H20 H 0.8201 0.8168 0.4340
C33 C 0.8766(7) 0.6303(5) 0.33729(19)
H21 H 0.8362 0.5942 0.3363
C34 C 0.8526(4) 0.6131(5) 0.43139(17)
H22 H 0.8828 0.6574 0.4344
N3 N 0.8743(4) 0.6840(4) 0.35666(14)
N4 N 0.6955(4) 0.7464(5) 0.40726(15)
Ir2 Ir 0.215712(18) 0.292814(17) 0.383080(14)
O5 O 0.0573(4) 0.3770(4) 0.47862(13)
O6 O 0.0879(4) 0.5002(4) 0.48970(11)
O7 O 0.4331(7) 0.3670(5) 0.30030(19)
O8 O 0.4174(4) 0.4941(4) 0.29202(12)
C35 C 0.1438(5) 0.4472(5) 0.44997(15)
C36 C 0.3249(7) 0.2833(7) 0.4317(2)
H23 H 0.2982 0.3265 0.4383
C37 C 0.3206(7) 0.1641(7) 0.3707(3)
C38 C 0.3692(5) 0.4410(6) 0.33291(16)
C39 C 0.2569(7) 0.2055(6) 0.3590(2)
C40 C 0.2868(4) 0.4519(5) 0.38032(19)
C41 C 0.2307(9) 0.1855(6) 0.3325(2)
H24 H 0.1891 0.2118 0.3245
C42 C 0.0670(6) 0.2115(4) 0.3826(3)
C43 C 0.3839(7) 0.2519(9) 0.4472(3)
H25 H 0.3952 0.2727 0.4642
C44 C 0.3562(9) 0.1038(7) 0.3567(3)
H26 H 0.3983 0.0772 0.3642
C45 C 0.0754(6) 0.1256(6) 0.4293(2)
H27 H 0.0763 0.0974 0.4455
C46 C 0.1891(6) 0.5095(6) 0.44593(16)
H28 H 0.1888 0.5501 0.4585
N5 N 0.1924(4) 0.3897(3) 0.40930(13)
C47 C 0.3281(5) 0.3774(5) 0.34352(16)
H29 H 0.3282 0.3303 0.3341
C48 C 0.3297(5) 0.5151(6) 0.37080(17)
H30 H 0.3307 0.5615 0.3807
C49 C 0.0650(7) 0.3745(7) 0.3189(2)
H31 H 0.0661 0.4124 0.3053
C50 C 0.1358(5) 0.2178(5) 0.39848(17)
N6 N 0.2887(3) 0.3832(4) 0.36701(13)
C51 C 0.3276(10) 0.0843(7) 0.3316(3)
H32 H 0.3487 0.0414 0.3226
C52 C 0.4102(7) 0.4323(6) 0.30593(17)
C53 C 0.3486(7) 0.1942(7) 0.3977(2)
C54 C 0.2360(6) 0.5141(6) 0.42335(17)
H33 H 0.2660 0.5584 0.4204
C55 C 0.3693(5) 0.5092(6) 0.34754(17)
H34 H 0.3973 0.5518 0.3411
C56 C 0.2686(9) 0.1259(7) 0.3188(3)
H35 H 0.2544 0.1136 0.3010
C57 C 0.0039(8) 0.3229(7) 0.3203(2)
C58 C 0.0129(8) 0.1189(6) 0.4111(3)
C59 C 0.0070(7) 0.1607(6) 0.3894(2)
C60 C 0.4097(8) 0.1625(8) 0.4123(3)
H39 H 0.4395 0.1225 0.4049
C61 C 0.0026(8) 0.2700(7) 0.3401(2)
C62 C 0.4256(7) 0.1903(9) 0.4375(3)
H41 H 0.4646 0.1676 0.4480
C63 C 0.2387(5) 0.4537(5) 0.40526(15)
C64 C 0.0928(5) 0.4379(5) 0.47445(14)
C65 C 0.0631(6) 0.2655(5) 0.3589(2)
C66 C 0.1377(6) 0.1773(5) 0.4222(2)
H42 H 0.1799 0.1832 0.4340
C67 C 0.1234(7) 0.3697(5) 0.33729(19)
H43 H 0.1638 0.4058 0.3363
C68 C 0.1474(4) 0.3869(5) 0.43139(17)
H44 H 0.1172 0.3426 0.4344
N7 N 0.1257(4) 0.3160(4) 0.35666(14)
N8 N 0.3045(4) 0.2536(5) 0.40726(15)
Zn3_2 Zn 1.0000 0.5000 0.51488(3)
O9 O 0.5002(4) 0.5879(4) 0.23970(11)
O10 O 0.4998(4) 0.4121(4) 0.23970(11)
H36 H 0.9638 0.3250 0.3076
H37 H 0.9740 0.0826 0.4148
H38 H 0.9630 0.1570 0.3784
H40 H 0.9608 0.2357 0.3413
H36_2 H 0.1750 0.0362 0.5576
H37_2 H 0.4174 0.0260 0.6648
H38_2 H 0.3430 0.0370 0.6284
H40_2 H 0.2643 0.0392 0.5913
Zn2 Zn 0.0000 0.0000 0.76488(3)
O2_2 O 0.0002(4) 0.0879(4) 0.73970(11)
C12_2 C 0.0095(6) 0.1891(6) 0.69593(16)
H6_2 H 0.0501 0.1888 0.7085
C14_2 C 0.0151(6) 0.3297(5) 0.62080(17)
H8_2 H 0.0615 0.3307 0.6307
C20_2 C 0.0141(6) 0.2360(6) 0.67335(17)
H11_2 H 0.0584 0.2660 0.6704
C21_2 C 0.0092(6) 0.3693(5) 0.59754(17)
H12_2 H 0.0518 0.3973 0.5911
Ir2_2 Ir 0.207186(17) 0.784288(18) 0.633080(14)
O5_2 O 0.1230(4) 0.9427(4) 0.72862(13)
O7_2 O 0.1330(5) 0.5669(7) 0.55030(19)
O8_2 O 0.0059(4) 0.5826(4) 0.54202(12)
C35_2 C 0.0528(5) 0.8562(5) 0.69997(15)
C36_2 C 0.2167(7) 0.6751(7) 0.6817(2)
H23_2 H 0.1735 0.7018 0.6883
C37_2 C 0.3359(7) 0.6794(7) 0.6207(3)
C38_2 C 0.0590(6) 0.6308(5) 0.58291(16)
C39_2 C 0.2945(6) 0.7431(7) 0.6090(2)
C40_2 C 0.0481(5) 0.7132(4) 0.63032(19)
C41_2 C 0.3145(6) 0.7693(9) 0.5825(2)
H24_2 H 0.2882 0.8109 0.5745
C42_2 C 0.2885(4) 0.9330(6) 0.6326(3)
C43_2 C 0.2481(9) 0.6161(7) 0.6972(3)
H25_2 H 0.2273 0.6048 0.7142
C44_2 C 0.3962(7) 0.6438(9) 0.6067(3)
H26_2 H 0.4228 0.6017 0.6142
C45_2 C 0.3744(6) 0.9246(6) 0.6793(2)
H27_2 H 0.4026 0.9237 0.6955
N5_2 N 0.1103(3) 0.8076(4) 0.65930(13)
C47_2 C 0.1226(5) 0.6719(5) 0.59352(16)
H29_2 H 0.1697 0.6718 0.5841
C49_2 C 0.1255(7) 0.9350(7) 0.5689(2)
H31_2 H 0.0876 0.9339 0.5553
C50_2 C 0.2822(5) 0.8642(5) 0.64848(17)
N6_2 N 0.1168(4) 0.7113(3) 0.61701(13)
C51_2 C 0.4157(7) 0.6724(10) 0.5816(3)
H32_2 H 0.4586 0.6513 0.5726
C52_2 C 0.0677(6) 0.5898(7) 0.55593(17)
C53_2 C 0.3058(7) 0.6514(7) 0.6477(2)
C56_2 C 0.3741(7) 0.7314(9) 0.5688(3)
H35_2 H 0.3864 0.7456 0.5510
C57_2 C 0.1771(7) 0.9961(8) 0.5703(2)
C58_2 C 0.3811(6) 0.9871(8) 0.6611(3)
C59_2 C 0.3393(6) 0.9930(7) 0.6394(2)
C60_2 C 0.3375(8) 0.5903(8) 0.6623(3)
H39_2 H 0.3775 0.5605 0.6549
C61_2 C 0.2300(7) 0.9974(8) 0.5901(2)
C62_2 C 0.3097(9) 0.5744(7) 0.6875(3)
H41_2 H 0.3324 0.5354 0.6980
C63_2 C 0.0463(5) 0.7613(5) 0.65526(15)
C64_2 C 0.0621(5) 0.9072(5) 0.72445(14)
C65_2 C 0.2345(5) 0.9369(6) 0.6089(2)
C66_2 C 0.3227(5) 0.8623(6) 0.6722(2)
H42_2 H 0.3168 0.8201 0.6840
C67_2 C 0.1303(5) 0.8766(7) 0.58729(19)
H43_2 H 0.0942 0.8362 0.5863
C68_2 C 0.1131(5) 0.8526(4) 0.68139(17)
H44_2 H 0.1574 0.8828 0.6844
N7_2 N 0.1840(4) 0.8743(4) 0.60666(14)
N8_2 N 0.2464(5) 0.6955(4) 0.65726(15)
Zn2_2 Zn -0.0000 1.0000 0.76488(3)
Zn2_3 Zn 1.0000 0.0000 0.76488(3)
Ir1_2 Ir 0.792814(17) 0.215712(18) 0.633080(14)
O1_2 O 0.8770(4) 0.0573(4) 0.72862(13)
O3_2 O 0.8670(5) 0.4331(7) 0.55030(19)
O4_2 O 0.9941(4) 0.4174(4) 0.54202(12)
C1_2 C 0.9472(5) 0.1438(5) 0.69997(15)
C2_2 C 0.7833(7) 0.3249(7) 0.6817(2)
H1_2 H 0.8265 0.2982 0.6883
C3_2 C 0.6641(7) 0.3206(7) 0.6207(3)
C4_2 C 0.9410(6) 0.3692(5) 0.58291(16)
C5_2 C 0.7055(6) 0.2569(7) 0.6090(2)
C6_2 C 0.9519(5) 0.2868(4) 0.63032(19)
C7_2 C 0.6855(6) 0.2307(9) 0.5825(2)
H2_2 H 0.7118 0.1891 0.5745
C8_2 C 0.7115(4) 0.0670(6) 0.6326(3)
C9_2 C 0.7519(9) 0.3839(7) 0.6972(3)
H3_2 H 0.7727 0.3952 0.7142
C10_2 C 0.6038(7) 0.3562(9) 0.6067(3)
H4_2 H 0.5772 0.3983 0.6142
C11_2 C 0.6256(6) 0.0754(6) 0.6793(2)
H5_2 H 0.5974 0.0763 0.6955
N1_2 N 0.8897(3) 0.1924(4) 0.65930(13)
C13_2 C 0.8774(5) 0.3281(5) 0.59352(16)
H7_2 H 0.8303 0.3282 0.5841
C15_2 C 0.8745(7) 0.0650(7) 0.5689(2)
H9_2 H 0.9124 0.0661 0.5553
C16_2 C 0.7178(5) 0.1358(5) 0.64848(17)
N2_2 N 0.8832(4) 0.2887(3) 0.61701(13)
C17_2 C 0.5843(7) 0.3276(10) 0.5816(3)
H10_2 H 0.5414 0.3487 0.5726
C18_2 C 0.9323(6) 0.4102(7) 0.55593(17)
C19_2 C 0.6942(7) 0.3486(7) 0.6477(2)
C22_2 C 0.6259(7) 0.2686(9) 0.5688(3)
H13_2 H 0.6136 0.2544 0.5510
C23_2 C 0.8229(7) 0.0039(8) 0.5703(2)
C24_2 C 0.6189(6) 0.0129(8) 0.6611(3)
C25_2 C 0.6607(6) 0.0070(7) 0.6394(2)
C26_2 C 0.6625(8) 0.4097(8) 0.6623(3)
H17_2 H 0.6225 0.4395 0.6549
C27_2 C 0.7700(7) 0.0026(8) 0.5901(2)
C28_2 C 0.6903(9) 0.4256(7) 0.6875(3)
H19_2 H 0.6676 0.4646 0.6980
C29_2 C 0.9537(5) 0.2387(5) 0.65526(15)
C30_2 C 0.9379(5) 0.0928(5) 0.72445(14)
C31_2 C 0.7655(5) 0.0631(6) 0.6089(2)
C32_2 C 0.6773(5) 0.1377(6) 0.6722(2)
H20_2 H 0.6832 0.1799 0.6840
C33_2 C 0.8697(5) 0.1234(7) 0.58729(19)
H21_2 H 0.9058 0.1638 0.5863
C34_2 C 0.8869(5) 0.1474(4) 0.68139(17)
H22_2 H 0.8426 0.1172 0.6844
N3_2 N 0.8160(4) 0.1257(4) 0.60666(14)
N4_2 N 0.7536(5) 0.3045(4) 0.65726(15)
O6_2 O 0.9998(4) 0.9121(4) 0.73970(11)
C46_2 C 0.9905(6) 0.8109(6) 0.69593(16)
H28_2 H 0.9499 0.8112 0.7085
C48_2 C 0.9849(6) 0.6703(5) 0.62080(17)
H30_2 H 0.9385 0.6693 0.6307
C54_2 C 0.9859(6) 0.7640(6) 0.67335(17)
H33_2 H 0.9416 0.7340 0.6704
C55_2 C 0.9908(6) 0.6307(5) 0.59754(17)
H34_2 H 0.9482 0.6027 0.5911
Zn2_4 Zn 1.0000 1.0000 0.76488(3)
H14_2 H 0.8250 0.9638 0.5576
H15_2 H 0.5826 0.9740 0.6648
H16_2 H 0.6570 0.9630 0.6284
H18_2 H 0.7357 0.9608 0.5913
Zn3_3 Zn 0.5000 0.0000 0.01488(3)
Ir1_3 Ir 0.284288(18) 0.207186(17) 0.883080(14)
O1_3 O 0.4427(4) 0.1230(4) 0.97862(13)
O3_3 O 0.0669(7) 0.1330(5) 0.80030(19)
O4_3 O 0.0826(4) 0.0059(4) 0.79202(12)
C1_3 C 0.3562(5) 0.0528(5) 0.94997(15)
C2_3 C 0.1751(7) 0.2167(7) 0.9317(2)
H1_3 H 0.2018 0.1735 0.9383
C3_3 C 0.1794(7) 0.3359(7) 0.8707(3)
C4_3 C 0.1308(5) 0.0590(6) 0.83291(16)
C5_3 C 0.2431(7) 0.2945(6) 0.8590(2)
C6_3 C 0.2132(4) 0.0481(5) 0.88032(19)
C7_3 C 0.2693(9) 0.3145(6) 0.8325(2)
H2_3 H 0.3109 0.2882 0.8245
C8_3 C 0.4330(6) 0.2885(4) 0.8826(3)
C9_3 C 0.1161(7) 0.2481(9) 0.9472(3)
H3_3 H 0.1048 0.2273 0.9642
C10_3 C 0.1438(9) 0.3962(7) 0.8567(3)
H4_3 H 0.1017 0.4228 0.8642
C11_3 C 0.4246(6) 0.3744(6) 0.9293(2)
H5_3 H 0.4237 0.4026 0.9455
N1_3 N 0.3076(4) 0.1103(3) 0.90930(13)
C13_3 C 0.1719(5) 0.1226(5) 0.84352(16)
H7_3 H 0.1718 0.1697 0.8341
C15_3 C 0.4350(7) 0.1255(7) 0.8189(2)
H9_3 H 0.4339 0.0876 0.8053
C16_3 C 0.3642(5) 0.2822(5) 0.89848(17)
N2_3 N 0.2113(3) 0.1168(4) 0.86701(13)
C17_3 C 0.1724(10) 0.4157(7) 0.8316(3)
H10_3 H 0.1513 0.4586 0.8226
C18_3 C 0.0898(7) 0.0677(6) 0.80593(17)
C19_3 C 0.1514(7) 0.3058(7) 0.8977(2)
C22_3 C 0.2314(9) 0.3741(7) 0.8188(3)
H13_3 H 0.2456 0.3864 0.8010
C23_3 C 0.4961(8) 0.1771(7) 0.8203(2)
H14_3 H 0.5362 0.1750 0.8076
C24_3 C 0.4871(8) 0.3811(6) 0.9111(3)
H15_3 H 0.5260 0.4174 0.9148
C25_3 C 0.4930(7) 0.3393(6) 0.8894(2)
H16_3 H 0.5370 0.3430 0.8784
C26_3 C 0.0903(8) 0.3375(8) 0.9123(3)
H17_3 H 0.0605 0.3775 0.9049
C27_3 C 0.4974(8) 0.2300(7) 0.8401(2)
H18_3 H 0.5392 0.2643 0.8413
C28_3 C 0.0744(7) 0.3097(9) 0.9375(3)
H19_3 H 0.0354 0.3324 0.9480
C29_3 C 0.2613(5) 0.0463(5) 0.90526(15)
C30_3 C 0.4072(5) 0.0621(5) 0.97445(14)
C31_3 C 0.4369(6) 0.2345(5) 0.8589(2)
C32_3 C 0.3623(6) 0.3227(5) 0.9222(2)
H20_3 H 0.3201 0.3168 0.9340
C33_3 C 0.3766(7) 0.1303(5) 0.83729(19)
H21_3 H 0.3362 0.0942 0.8363
C34_3 C 0.3526(4) 0.1131(5) 0.93139(17)
H22_3 H 0.3828 0.1574 0.9344
N3_3 N 0.3743(4) 0.1840(4) 0.85666(14)
N4_3 N 0.1955(4) 0.2464(5) 0.90726(15)
Zn3_4 Zn 0.5000 1.0000 0.01488(3)
O2_3 O 0.4121(4) 0.9998(4) 0.98970(11)
C12_3 C 0.3109(6) 0.9905(6) 0.94593(16)
H6_3 H 0.3112 0.9499 0.9585
C14_3 C 0.1703(5) 0.9849(6) 0.87080(17)
H8_3 H 0.1693 0.9385 0.8807
C20_3 C 0.2640(6) 0.9859(6) 0.92335(17)
H11_3 H 0.2340 0.9416 0.9204
C21_3 C 0.1307(5) 0.9908(6) 0.84754(17)
H12_3 H 0.1027 0.9482 0.8411
O6_3 O 0.5879(4) 0.0002(4) 0.98970(11)
C46_3 C 0.6891(6) 0.0095(6) 0.94593(16)
H28_3 H 0.6888 0.0501 0.9585
C48_3 C 0.8297(5) 0.0151(6) 0.87080(17)
H30_3 H 0.8307 0.0615 0.8807
C54_3 C 0.7360(6) 0.0141(6) 0.92335(17)
H33_3 H 0.7660 0.0584 0.9204
C55_3 C 0.8693(5) 0.0092(6) 0.84754(17)
H34_3 H 0.8973 0.0518 0.8411
Ir2_3 Ir 0.715712(18) 0.792814(17) 0.883080(14)
O5_3 O 0.5573(4) 0.8770(4) 0.97862(13)
O7_3 O 0.9331(7) 0.8670(5) 0.80030(19)
O8_3 O 0.9174(4) 0.9941(4) 0.79202(12)
C35_3 C 0.6438(5) 0.9472(5) 0.94997(15)
C36_3 C 0.8249(7) 0.7833(7) 0.9317(2)
H23_3 H 0.7982 0.8265 0.9383
C37_3 C 0.8206(7) 0.6641(7) 0.8707(3)
C38_3 C 0.8692(5) 0.9410(6) 0.83291(16)
C39_3 C 0.7569(7) 0.7055(6) 0.8590(2)
C40_3 C 0.7868(4) 0.9519(5) 0.88032(19)
C41_3 C 0.7307(9) 0.6855(6) 0.8325(2)
H24_3 H 0.6891 0.7118 0.8245
C42_3 C 0.5670(6) 0.7115(4) 0.8826(3)
C43_3 C 0.8839(7) 0.7519(9) 0.9472(3)
H25_3 H 0.8952 0.7727 0.9642
C44_3 C 0.8562(9) 0.6038(7) 0.8567(3)
H26_3 H 0.8983 0.5772 0.8642
C45_3 C 0.5754(6) 0.6256(6) 0.9293(2)
H27_3 H 0.5763 0.5974 0.9455
N5_3 N 0.6924(4) 0.8897(3) 0.90930(13)
C47_3 C 0.8281(5) 0.8774(5) 0.84352(16)
H29_3 H 0.8282 0.8303 0.8341
C49_3 C 0.5650(7) 0.8745(7) 0.8189(2)
H31_3 H 0.5661 0.9124 0.8053
C50_3 C 0.6358(5) 0.7178(5) 0.89848(17)
N6_3 N 0.7887(3) 0.8832(4) 0.86701(13)
C51_3 C 0.8276(10) 0.5843(7) 0.8316(3)
H32_3 H 0.8487 0.5414 0.8226
C52_3 C 0.9102(7) 0.9323(6) 0.80593(17)
C53_3 C 0.8486(7) 0.6942(7) 0.8977(2)
C56_3 C 0.7686(9) 0.6259(7) 0.8188(3)
H35_3 H 0.7544 0.6136 0.8010
C57_3 C 0.5039(8) 0.8229(7) 0.8203(2)
H36_3 H 0.4638 0.8250 0.8076
C58_3 C 0.5129(8) 0.6189(6) 0.9111(3)
H37_3 H 0.4740 0.5826 0.9148
C59_3 C 0.5070(7) 0.6607(6) 0.8894(2)
H38_3 H 0.4630 0.6570 0.8784
C60_3 C 0.9097(8) 0.6625(8) 0.9123(3)
H39_3 H 0.9395 0.6225 0.9049
C61_3 C 0.5026(8) 0.7700(7) 0.8401(2)
H40_3 H 0.4608 0.7357 0.8413
C62_3 C 0.9256(7) 0.6903(9) 0.9375(3)
H41_3 H 0.9646 0.6676 0.9480
C63_3 C 0.7387(5) 0.9537(5) 0.90526(15)
C64_3 C 0.5928(5) 0.9379(5) 0.97445(14)
C65_3 C 0.5631(6) 0.7655(5) 0.8589(2)
C66_3 C 0.6377(6) 0.6773(5) 0.9222(2)
H42_3 H 0.6799 0.6832 0.9340
C67_3 C 0.6234(7) 0.8697(5) 0.83729(19)
H43_3 H 0.6638 0.9058 0.8363
C68_3 C 0.6474(4) 0.8869(5) 0.93139(17)
H44_3 H 0.6172 0.8426 0.9344
N7_3 N 0.6257(4) 0.8160(4) 0.85666(14)
N8_3 N 0.8045(4) 0.7536(5) 0.90726(15)
Ir2_4 Ir 0.707186(17) 0.284288(18) 0.133080(14)
O5_4 O 0.6230(4) 0.4427(4) 0.22862(13)
O7_4 O 0.6330(5) 0.0669(7) 0.05030(19)
O8_4 O 0.5059(4) 0.0826(4) 0.04202(12)
C35_4 C 0.5528(5) 0.3562(5) 0.19997(15)
C36_4 C 0.7167(7) 0.1751(7) 0.1817(2)
H23_4 H 0.6735 0.2018 0.1883
C37_4 C 0.8359(7) 0.1794(7) 0.1207(3)
C38_4 C 0.5590(6) 0.1308(5) 0.08291(16)
C39_4 C 0.7945(6) 0.2431(7) 0.1090(2)
C40_4 C 0.5481(5) 0.2132(4) 0.13032(19)
C41_4 C 0.8145(6) 0.2693(9) 0.0825(2)
H24_4 H 0.7882 0.3109 0.0745
C42_4 C 0.7885(4) 0.4330(6) 0.1326(3)
C43_4 C 0.7481(9) 0.1161(7) 0.1972(3)
H25_4 H 0.7273 0.1048 0.2142
C44_4 C 0.8962(7) 0.1438(9) 0.1067(3)
H26_4 H 0.9228 0.1017 0.1142
C45_4 C 0.8744(6) 0.4246(6) 0.1793(2)
H27_4 H 0.9026 0.4237 0.1955
C46_4 C 0.4905(6) 0.3109(6) 0.19593(16)
H28_4 H 0.4499 0.3112 0.2085
N5_4 N 0.6103(3) 0.3076(4) 0.15930(13)
C47_4 C 0.6226(5) 0.1719(5) 0.09352(16)
H29_4 H 0.6697 0.1718 0.0841
C48_4 C 0.4849(6) 0.1703(5) 0.12080(17)
H30_4 H 0.4385 0.1693 0.1307
C49_4 C 0.6255(7) 0.4350(7) 0.0689(2)
H31_4 H 0.5876 0.4339 0.0553
C50_4 C 0.7822(5) 0.3642(5) 0.14848(17)
N6_4 N 0.6168(4) 0.2113(3) 0.11701(13)
C51_4 C 0.9157(7) 0.1724(10) 0.0816(3)
H32_4 H 0.9586 0.1513 0.0726
C52_4 C 0.5677(6) 0.0898(7) 0.05593(17)
C53_4 C 0.8058(7) 0.1514(7) 0.1477(2)
C54_4 C 0.4859(6) 0.2640(6) 0.17335(17)
H33_4 H 0.4416 0.2340 0.1704
C55_4 C 0.4908(6) 0.1307(5) 0.09754(17)
H34_4 H 0.4482 0.1027 0.0911
C56_4 C 0.8741(7) 0.2314(9) 0.0688(3)
H35_4 H 0.8864 0.2456 0.0510
C57_4 C 0.6771(7) 0.4961(8) 0.0703(2)
H36_4 H 0.6750 0.5362 0.0576
C58_4 C 0.8811(6) 0.4871(8) 0.1611(3)
H37_4 H 0.9174 0.5260 0.1648
C59_4 C 0.8393(6) 0.4930(7) 0.1394(2)
H38_4 H 0.8430 0.5370 0.1284
C60_4 C 0.8375(8) 0.0903(8) 0.1623(3)
H39_4 H 0.8775 0.0605 0.1549
C61_4 C 0.7300(7) 0.4974(8) 0.0901(2)
H40_4 H 0.7643 0.5392 0.0913
C62_4 C 0.8097(9) 0.0744(7) 0.1875(3)
H41_4 H 0.8324 0.0354 0.1980
C63_4 C 0.5463(5) 0.2613(5) 0.15526(15)
C64_4 C 0.5621(5) 0.4072(5) 0.22445(14)
C65_4 C 0.7345(5) 0.4369(6) 0.1089(2)
C66_4 C 0.8227(5) 0.3623(6) 0.1722(2)
H42_4 H 0.8168 0.3201 0.1840
C67_4 C 0.6303(5) 0.3766(7) 0.08729(19)
H43_4 H 0.5942 0.3362 0.0863
C68_4 C 0.6131(5) 0.3526(4) 0.18139(17)
H44_4 H 0.6574 0.3828 0.1844
N7_4 N 0.6840(4) 0.3743(4) 0.10666(14)
N8_4 N 0.7464(5) 0.1955(4) 0.15726(15)
Ir1_4 Ir 0.292814(17) 0.715712(18) 0.133080(14)
O1_4 O 0.3770(4) 0.5573(4) 0.22862(13)
O3_4 O 0.3670(5) 0.9331(7) 0.05030(19)
O4_4 O 0.4941(4) 0.9174(4) 0.04202(12)
C1_4 C 0.4472(5) 0.6438(5) 0.19997(15)
C2_4 C 0.2833(7) 0.8249(7) 0.1817(2)
H1_4 H 0.3265 0.7982 0.1883
C3_4 C 0.1641(7) 0.8206(7) 0.1207(3)
C4_4 C 0.4410(6) 0.8692(5) 0.08291(16)
C5_4 C 0.2055(6) 0.7569(7) 0.1090(2)
C6_4 C 0.4519(5) 0.7868(4) 0.13032(19)
C7_4 C 0.1855(6) 0.7307(9) 0.0825(2)
H2_4 H 0.2118 0.6891 0.0745
C8_4 C 0.2115(4) 0.5670(6) 0.1326(3)
C9_4 C 0.2519(9) 0.8839(7) 0.1972(3)
H3_4 H 0.2727 0.8952 0.2142
C10_4 C 0.1038(7) 0.8562(9) 0.1067(3)
H4_4 H 0.0772 0.8983 0.1142
C11_4 C 0.1256(6) 0.5754(6) 0.1793(2)
H5_4 H 0.0974 0.5763 0.1955
C12_4 C 0.5095(6) 0.6891(6) 0.19593(16)
H6_4 H 0.5501 0.6888 0.2085
N1_4 N 0.3897(3) 0.6924(4) 0.15930(13)
C13_4 C 0.3774(5) 0.8281(5) 0.09352(16)
H7_4 H 0.3303 0.8282 0.0841
C14_4 C 0.5151(6) 0.8297(5) 0.12080(17)
H8_4 H 0.5615 0.8307 0.1307
C15_4 C 0.3745(7) 0.5650(7) 0.0689(2)
H9_4 H 0.4124 0.5661 0.0553
C16_4 C 0.2178(5) 0.6358(5) 0.14848(17)
N2_4 N 0.3832(4) 0.7887(3) 0.11701(13)
C17_4 C 0.0843(7) 0.8276(10) 0.0816(3)
H10_4 H 0.0414 0.8487 0.0726
C18_4 C 0.4323(6) 0.9102(7) 0.05593(17)
C19_4 C 0.1942(7) 0.8486(7) 0.1477(2)
C20_4 C 0.5141(6) 0.7360(6) 0.17335(17)
H11_4 H 0.5584 0.7660 0.1704
C21_4 C 0.5092(6) 0.8693(5) 0.09754(17)
H12_4 H 0.5518 0.8973 0.0911
C22_4 C 0.1259(7) 0.7686(9) 0.0688(3)
H13_4 H 0.1136 0.7544 0.0510
C23_4 C 0.3229(7) 0.5039(8) 0.0703(2)
H14_4 H 0.3250 0.4638 0.0576
C24_4 C 0.1189(6) 0.5129(8) 0.1611(3)
H15_4 H 0.0826 0.4740 0.1648
C25_4 C 0.1607(6) 0.5070(7) 0.1394(2)
H16_4 H 0.1570 0.4630 0.1284
C26_4 C 0.1625(8) 0.9097(8) 0.1623(3)
H17_4 H 0.1225 0.9395 0.1549
C27_4 C 0.2700(7) 0.5026(8) 0.0901(2)
H18_4 H 0.2357 0.4608 0.0913
C28_4 C 0.1903(9) 0.9256(7) 0.1875(3)
H19_4 H 0.1676 0.9646 0.1980
C29_4 C 0.4537(5) 0.7387(5) 0.15526(15)
C30_4 C 0.4379(5) 0.5928(5) 0.22445(14)
C31_4 C 0.2655(5) 0.5631(6) 0.1089(2)
C32_4 C 0.1773(5) 0.6377(6) 0.1722(2)
H20_4 H 0.1832 0.6799 0.1840
C33_4 C 0.3697(5) 0.6234(7) 0.08729(19)
H21_4 H 0.4058 0.6638 0.0863
C34_4 C 0.3869(5) 0.6474(4) 0.18139(17)
H22_4 H 0.3426 0.6172 0.1844
N3_4 N 0.3160(4) 0.6257(4) 0.10666(14)
N4_4 N 0.2536(5) 0.8045(4) 0.15726(15)
Ir1_5 Ir 0.292814(17) 0.284288(18) 0.633080(14)
Zn1_2 Zn 0.5000 -0.0000 0.51488(3)
O1_5 O 0.3770(4) 0.4427(4) 0.72862(13)
O2_4 O 0.5002(4) 0.4121(4) 0.73970(11)
O3_5 O 0.3670(5) 0.0669(7) 0.55030(19)
O4_5 O 0.4941(4) 0.0826(4) 0.54202(12)
C1_5 C 0.4472(5) 0.3562(5) 0.69997(15)
C2_5 C 0.2833(7) 0.1751(7) 0.6817(2)
H1_5 H 0.3265 0.2018 0.6883
C3_5 C 0.1641(7) 0.1794(7) 0.6207(3)
C4_5 C 0.4410(6) 0.1308(5) 0.58291(16)
C5_5 C 0.2055(6) 0.2431(7) 0.6090(2)
C6_5 C 0.4519(5) 0.2132(4) 0.63032(19)
C7_5 C 0.1855(6) 0.2693(9) 0.5825(2)
H2_5 H 0.2118 0.3109 0.5745
C8_5 C 0.2115(4) 0.4330(6) 0.6326(3)
C9_5 C 0.2519(9) 0.1161(7) 0.6972(3)
H3_5 H 0.2727 0.1048 0.7142
C10_5 C 0.1038(7) 0.1438(9) 0.6067(3)
H4_5 H 0.0772 0.1017 0.6142
C11_5 C 0.1256(6) 0.4246(6) 0.6793(2)
H5_5 H 0.0974 0.4237 0.6955
C12_5 C 0.5095(6) 0.3109(6) 0.69593(16)
H6_5 H 0.5501 0.3112 0.7085
N1_5 N 0.3897(3) 0.3076(4) 0.65930(13)
C13_5 C 0.3774(5) 0.1719(5) 0.59352(16)
H7_5 H 0.3303 0.1718 0.5841
C14_5 C 0.5151(6) 0.1703(5) 0.62080(17)
H8_5 H 0.5615 0.1693 0.6307
C15_5 C 0.3745(7) 0.4350(7) 0.5689(2)
H9_5 H 0.4124 0.4339 0.5553
C16_5 C 0.2178(5) 0.3642(5) 0.64848(17)
N2_5 N 0.3832(4) 0.2113(3) 0.61701(13)
C17_5 C 0.0843(7) 0.1724(10) 0.5816(3)
H10_5 H 0.0414 0.1513 0.5726
C18_5 C 0.4323(6) 0.0898(7) 0.55593(17)
C19_5 C 0.1942(7) 0.1514(7) 0.6477(2)
C20_5 C 0.5141(6) 0.2640(6) 0.67335(17)
H11_5 H 0.5584 0.2340 0.6704
C21_5 C 0.5092(6) 0.1307(5) 0.59754(17)
H12_5 H 0.5518 0.1027 0.5911
C22_5 C 0.1259(7) 0.2314(9) 0.5688(3)
H13_5 H 0.1136 0.2456 0.5510
C23_5 C 0.3229(7) 0.4961(8) 0.5703(2)
H14_5 H 0.3250 0.5362 0.5576
C24_5 C 0.1189(6) 0.4871(8) 0.6611(3)
H15_5 H 0.0826 0.5260 0.6648
C25_5 C 0.1607(6) 0.4930(7) 0.6394(2)
H16_5 H 0.1570 0.5370 0.6284
C26_5 C 0.1625(8) 0.0903(8) 0.6623(3)
H17_5 H 0.1225 0.0605 0.6549
C27_5 C 0.2700(7) 0.4974(8) 0.5901(2)
H18_5 H 0.2357 0.5392 0.5913
C28_5 C 0.1903(9) 0.0744(7) 0.6875(3)
H19_5 H 0.1676 0.0354 0.6980
C29_5 C 0.4537(5) 0.2613(5) 0.65526(15)
C30_5 C 0.4379(5) 0.4072(5) 0.72445(14)
C31_5 C 0.2655(5) 0.4369(6) 0.6089(2)
C32_5 C 0.1773(5) 0.3623(6) 0.6722(2)
H20_5 H 0.1832 0.3201 0.6840
C33_5 C 0.3697(5) 0.3766(7) 0.58729(19)
H21_5 H 0.4058 0.3362 0.5863
C34_5 C 0.3869(5) 0.3526(4) 0.68139(17)
H22_5 H 0.3426 0.3828 0.6844
N3_5 N 0.3160(4) 0.3743(4) 0.60666(14)
N4_5 N 0.2536(5) 0.1955(4) 0.65726(15)
Zn3_5 Zn 0.5000 0.5000 0.76488(3)
O9_2 O 0.4121(4) 0.0002(4) 0.48970(11)
Zn1_3 Zn 0.5000 1.0000 0.51488(3)
Ir2_5 Ir 0.707186(17) 0.715712(18) 0.633080(14)
O5_5 O 0.6230(4) 0.5573(4) 0.72862(13)
O6_4 O 0.4998(4) 0.5879(4) 0.73970(11)
O7_5 O 0.6330(5) 0.9331(7) 0.55030(19)
O8_5 O 0.5059(4) 0.9174(4) 0.54202(12)
C35_5 C 0.5528(5) 0.6438(5) 0.69997(15)
C36_5 C 0.7167(7) 0.8249(7) 0.6817(2)
H23_5 H 0.6735 0.7982 0.6883
C37_5 C 0.8359(7) 0.8206(7) 0.6207(3)
C38_5 C 0.5590(6) 0.8692(5) 0.58291(16)
C39_5 C 0.7945(6) 0.7569(7) 0.6090(2)
C40_5 C 0.5481(5) 0.7868(4) 0.63032(19)
C41_5 C 0.8145(6) 0.7307(9) 0.5825(2)
H24_5 H 0.7882 0.6891 0.5745
C42_5 C 0.7885(4) 0.5670(6) 0.6326(3)
C43_5 C 0.7481(9) 0.8839(7) 0.6972(3)
H25_5 H 0.7273 0.8952 0.7142
C44_5 C 0.8962(7) 0.8562(9) 0.6067(3)
H26_5 H 0.9228 0.8983 0.6142
C45_5 C 0.8744(6) 0.5754(6) 0.6793(2)
H27_5 H 0.9026 0.5763 0.6955
C46_5 C 0.4905(6) 0.6891(6) 0.69593(16)
H28_5 H 0.4499 0.6888 0.7085
N5_5 N 0.6103(3) 0.6924(4) 0.65930(13)
C47_5 C 0.6226(5) 0.8281(5) 0.59352(16)
H29_5 H 0.6697 0.8282 0.5841
C48_5 C 0.4849(6) 0.8297(5) 0.62080(17)
H30_5 H 0.4385 0.8307 0.6307
C49_5 C 0.6255(7) 0.5650(7) 0.5689(2)
H31_5 H 0.5876 0.5661 0.5553
C50_5 C 0.7822(5) 0.6358(5) 0.64848(17)
N6_5 N 0.6168(4) 0.7887(3) 0.61701(13)
C51_5 C 0.9157(7) 0.8276(10) 0.5816(3)
H32_5 H 0.9586 0.8487 0.5726
C52_5 C 0.5677(6) 0.9102(7) 0.55593(17)
C53_5 C 0.8058(7) 0.8486(7) 0.6477(2)
C54_5 C 0.4859(6) 0.7360(6) 0.67335(17)
H33_5 H 0.4416 0.7660 0.6704
C55_5 C 0.4908(6) 0.8693(5) 0.59754(17)
H34_5 H 0.4482 0.8973 0.5911
C56_5 C 0.8741(7) 0.7686(9) 0.5688(3)
H35_5 H 0.8864 0.7544 0.5510
C57_5 C 0.6771(7) 0.5039(8) 0.5703(2)
H36_5 H 0.6750 0.4638 0.5576
C58_5 C 0.8811(6) 0.5129(8) 0.6611(3)
H37_5 H 0.9174 0.4740 0.6648
C59_5 C 0.8393(6) 0.5070(7) 0.6394(2)
H38_5 H 0.8430 0.4630 0.6284
C60_5 C 0.8375(8) 0.9097(8) 0.6623(3)
H39_5 H 0.8775 0.9395 0.6549
C61_5 C 0.7300(7) 0.5026(8) 0.5901(2)
H40_5 H 0.7643 0.4608 0.5913
C62_5 C 0.8097(9) 0.9256(7) 0.6875(3)
H41_5 H 0.8324 0.9646 0.6980
C63_5 C 0.5463(5) 0.7387(5) 0.65526(15)
C64_5 C 0.5621(5) 0.5928(5) 0.72445(14)
C65_5 C 0.7345(5) 0.5631(6) 0.6089(2)
C66_5 C 0.8227(5) 0.6377(6) 0.6722(2)
H42_5 H 0.8168 0.6799 0.6840
C67_5 C 0.6303(5) 0.6234(7) 0.58729(19)
H43_5 H 0.5942 0.6638 0.5863
C68_5 C 0.6131(5) 0.6474(4) 0.68139(17)
H44_5 H 0.6574 0.6172 0.6844
N7_5 N 0.6840(4) 0.6257(4) 0.60666(14)
N8_5 N 0.7464(5) 0.8045(4) 0.65726(15)
O10_2 O 0.5879(4) 0.9998(4) 0.48970(11)
Zn2_5 Zn 0.0000 0.5000 0.01488(3)
Zn2_6 Zn 1.0000 0.5000 0.01488(3)
Ir1_6 Ir 0.215712(18) 0.707186(17) 0.883080(14)
O1_6 O 0.0573(4) 0.6230(4) 0.97862(13)
O2_5 O 0.0879(4) 0.4998(4) 0.98970(11)
O3_6 O 0.4331(7) 0.6330(5) 0.80030(19)
O4_6 O 0.4174(4) 0.5059(4) 0.79202(12)
C1_6 C 0.1438(5) 0.5528(5) 0.94997(15)
C2_6 C 0.3249(7) 0.7167(7) 0.9317(2)
H1_6 H 0.2982 0.6735 0.9383
C3_6 C 0.3206(7) 0.8359(7) 0.8707(3)
C4_6 C 0.3692(5) 0.5590(6) 0.83291(16)
C5_6 C 0.2569(7) 0.7945(6) 0.8590(2)
C6_6 C 0.2868(4) 0.5481(5) 0.88032(19)
C7_6 C 0.2307(9) 0.8145(6) 0.8325(2)
H2_6 H 0.1891 0.7882 0.8245
C8_6 C 0.0670(6) 0.7885(4) 0.8826(3)
C9_6 C 0.3839(7) 0.7481(9) 0.9472(3)
H3_6 H 0.3952 0.7273 0.9642
C10_6 C 0.3562(9) 0.8962(7) 0.8567(3)
H4_6 H 0.3983 0.9228 0.8642
C11_6 C 0.0754(6) 0.8744(6) 0.9293(2)
H5_6 H 0.0763 0.9026 0.9455
C12_6 C 0.1891(6) 0.4905(6) 0.94593(16)
H6_6 H 0.1888 0.4499 0.9585
N1_6 N 0.1924(4) 0.6103(3) 0.90930(13)
C13_6 C 0.3281(5) 0.6226(5) 0.84352(16)
H7_6 H 0.3282 0.6697 0.8341
C14_6 C 0.3297(5) 0.4849(6) 0.87080(17)
H8_6 H 0.3307 0.4385 0.8807
C15_6 C 0.0650(7) 0.6255(7) 0.8189(2)
H9_6 H 0.0661 0.5876 0.8053
C16_6 C 0.1358(5) 0.7822(5) 0.89848(17)
N2_6 N 0.2887(3) 0.6168(4) 0.86701(13)
C17_6 C 0.3276(10) 0.9157(7) 0.8316(3)
H10_6 H 0.3487 0.9586 0.8226
C18_6 C 0.4102(7) 0.5677(6) 0.80593(17)
C19_6 C 0.3486(7) 0.8058(7) 0.8977(2)
C20_6 C 0.2360(6) 0.4859(6) 0.92335(17)
H11_6 H 0.2660 0.4416 0.9204
C21_6 C 0.3693(5) 0.4908(6) 0.84754(17)
H12_6 H 0.3973 0.4482 0.8411
C22_6 C 0.2686(9) 0.8741(7) 0.8188(3)
H13_6 H 0.2544 0.8864 0.8010
C23_6 C 0.0039(8) 0.6771(7) 0.8203(2)
C24_6 C 0.0129(8) 0.8811(6) 0.9111(3)
C25_6 C 0.0070(7) 0.8393(6) 0.8894(2)
C26_6 C 0.4097(8) 0.8375(8) 0.9123(3)
H17_6 H 0.4395 0.8775 0.9049
C27_6 C 0.0026(8) 0.7300(7) 0.8401(2)
C28_6 C 0.4256(7) 0.8097(9) 0.9375(3)
H19_6 H 0.4646 0.8324 0.9480
C29_6 C 0.2387(5) 0.5463(5) 0.90526(15)
C30_6 C 0.0928(5) 0.5621(5) 0.97445(14)
C31_6 C 0.0631(6) 0.7345(5) 0.8589(2)
C32_6 C 0.1377(6) 0.8227(5) 0.9222(2)
H20_6 H 0.1799 0.8168 0.9340
C33_6 C 0.1234(7) 0.6303(5) 0.83729(19)
H21_6 H 0.1638 0.5942 0.8363
C34_6 C 0.1474(4) 0.6131(5) 0.93139(17)
H22_6 H 0.1172 0.6574 0.9344
N3_6 N 0.1257(4) 0.6840(4) 0.85666(14)
N4_6 N 0.3045(4) 0.7464(5) 0.90726(15)
Ir2_6 Ir 0.784288(18) 0.292814(17) 0.883080(14)
O5_6 O 0.9427(4) 0.3770(4) 0.97862(13)
O6_5 O 0.9121(4) 0.5002(4) 0.98970(11)
O7_6 O 0.5669(7) 0.3670(5) 0.80030(19)
O8_6 O 0.5826(4) 0.4941(4) 0.79202(12)
C35_6 C 0.8562(5) 0.4472(5) 0.94997(15)
C36_6 C 0.6751(7) 0.2833(7) 0.9317(2)
H23_6 H 0.7018 0.3265 0.9383
C37_6 C 0.6794(7) 0.1641(7) 0.8707(3)
C38_6 C 0.6308(5) 0.4410(6) 0.83291(16)
C39_6 C 0.7431(7) 0.2055(6) 0.8590(2)
C40_6 C 0.7132(4) 0.4519(5) 0.88032(19)
C41_6 C 0.7693(9) 0.1855(6) 0.8325(2)
H24_6 H 0.8109 0.2118 0.8245
C42_6 C 0.9330(6) 0.2115(4) 0.8826(3)
C43_6 C 0.6161(7) 0.2519(9) 0.9472(3)
H25_6 H 0.6048 0.2727 0.9642
C44_6 C 0.6438(9) 0.1038(7) 0.8567(3)
H26_6 H 0.6017 0.0772 0.8642
C45_6 C 0.9246(6) 0.1256(6) 0.9293(2)
H27_6 H 0.9237 0.0974 0.9455
C46_6 C 0.8109(6) 0.5095(6) 0.94593(16)
H28_6 H 0.8112 0.5501 0.9585
N5_6 N 0.8076(4) 0.3897(3) 0.90930(13)
C47_6 C 0.6719(5) 0.3774(5) 0.84352(16)
H29_6 H 0.6718 0.3303 0.8341
C48_6 C 0.6703(5) 0.5151(6) 0.87080(17)
H30_6 H 0.6693 0.5615 0.8807
C49_6 C 0.9350(7) 0.3745(7) 0.8189(2)
H31_6 H 0.9339 0.4124 0.8053
C50_6 C 0.8642(5) 0.2178(5) 0.89848(17)
N6_6 N 0.7113(3) 0.3832(4) 0.86701(13)
C51_6 C 0.6724(10) 0.0843(7) 0.8316(3)
H32_6 H 0.6513 0.0414 0.8226
C52_6 C 0.5898(7) 0.4323(6) 0.80593(17)
C53_6 C 0.6514(7) 0.1942(7) 0.8977(2)
C54_6 C 0.7640(6) 0.5141(6) 0.92335(17)
H33_6 H 0.7340 0.5584 0.9204
C55_6 C 0.6307(5) 0.5092(6) 0.84754(17)
H34_6 H 0.6027 0.5518 0.8411
C56_6 C 0.7314(9) 0.1259(7) 0.8188(3)
H35_6 H 0.7456 0.1136 0.8010
C57_6 C 0.9961(8) 0.3229(7) 0.8203(2)
C58_6 C 0.9871(8) 0.1189(6) 0.9111(3)
C59_6 C 0.9930(7) 0.1607(6) 0.8894(2)
C60_6 C 0.5903(8) 0.1625(8) 0.9123(3)
H39_6 H 0.5605 0.1225 0.9049
C61_6 C 0.9974(8) 0.2700(7) 0.8401(2)
C62_6 C 0.5744(7) 0.1903(9) 0.9375(3)
H41_6 H 0.5354 0.1676 0.9480
C63_6 C 0.7613(5) 0.4537(5) 0.90526(15)
C64_6 C 0.9072(5) 0.4379(5) 0.97445(14)
C65_6 C 0.9369(6) 0.2655(5) 0.8589(2)
C66_6 C 0.8623(6) 0.1773(5) 0.9222(2)
H42_6 H 0.8201 0.1832 0.9340
C67_6 C 0.8766(7) 0.3697(5) 0.83729(19)
H43_6 H 0.8362 0.4058 0.8363
C68_6 C 0.8526(4) 0.3869(5) 0.93139(17)
H44_6 H 0.8828 0.3426 0.9344
N7_6 N 0.8743(4) 0.3160(4) 0.85666(14)
N8_6 N 0.6955(4) 0.2536(5) 0.90726(15)
Zn3_6 Zn 0.0000 -0.0000 0.26488(3)
O2_6 O 0.0002(4) 0.9121(4) 0.23970(11)
C12_7 C 0.0095(6) 0.8109(6) 0.19593(16)
H6_7 H 0.0501 0.8112 0.2085
C14_7 C 0.0151(6) 0.6703(5) 0.12080(17)
H8_7 H 0.0615 0.6693 0.1307
C20_7 C 0.0141(6) 0.7640(6) 0.17335(17)
H11_7 H 0.0584 0.7340 0.1704
C21_7 C 0.0092(6) 0.6307(5) 0.09754(17)
H12_7 H 0.0518 0.6027 0.0911
Ir2_7 Ir 0.207186(17) 0.215712(18) 0.133080(14)
O5_7 O 0.1230(4) 0.0573(4) 0.22862(13)
O7_7 O 0.1330(5) 0.4331(7) 0.05030(19)
O8_7 O 0.0059(4) 0.4174(4) 0.04202(12)
C35_7 C 0.0528(5) 0.1438(5) 0.19997(15)
C36_7 C 0.2167(7) 0.3249(7) 0.1817(2)
H23_7 H 0.1735 0.2982 0.1883
C37_7 C 0.3359(7) 0.3206(7) 0.1207(3)
C38_7 C 0.0590(6) 0.3692(5) 0.08291(16)
C39_7 C 0.2945(6) 0.2569(7) 0.1090(2)
C40_7 C 0.0481(5) 0.2868(4) 0.13032(19)
C41_7 C 0.3145(6) 0.2307(9) 0.0825(2)
H24_7 H 0.2882 0.1891 0.0745
C42_7 C 0.2885(4) 0.0670(6) 0.1326(3)
C43_7 C 0.2481(9) 0.3839(7) 0.1972(3)
H25_7 H 0.2273 0.3952 0.2142
C44_7 C 0.3962(7) 0.3562(9) 0.1067(3)
H26_7 H 0.4228 0.3983 0.1142
C45_7 C 0.3744(6) 0.0754(6) 0.1793(2)
H27_7 H 0.4026 0.0763 0.1955
N5_7 N 0.1103(3) 0.1924(4) 0.15930(13)
C47_7 C 0.1226(5) 0.3281(5) 0.09352(16)
H29_7 H 0.1697 0.3282 0.0841
C49_7 C 0.1255(7) 0.0650(7) 0.0689(2)
H31_7 H 0.0876 0.0661 0.0553
C50_7 C 0.2822(5) 0.1358(5) 0.14848(17)
N6_7 N 0.1168(4) 0.2887(3) 0.11701(13)
C51_7 C 0.4157(7) 0.3276(10) 0.0816(3)
H32_7 H 0.4586 0.3487 0.0726
C52_7 C 0.0677(6) 0.4102(7) 0.05593(17)
C53_7 C 0.3058(7) 0.3486(7) 0.1477(2)
C56_7 C 0.3741(7) 0.2686(9) 0.0688(3)
H35_7 H 0.3864 0.2544 0.0510
C57_7 C 0.1771(7) 0.0039(8) 0.0703(2)
C58_7 C 0.3811(6) 0.0129(8) 0.1611(3)
C59_7 C 0.3393(6) 0.0070(7) 0.1394(2)
C60_7 C 0.3375(8) 0.4097(8) 0.1623(3)
H39_7 H 0.3775 0.4395 0.1549
C61_7 C 0.2300(7) 0.0026(8) 0.0901(2)
C62_7 C 0.3097(9) 0.4256(7) 0.1875(3)
H41_7 H 0.3324 0.4646 0.1980
C63_7 C 0.0463(5) 0.2387(5) 0.15526(15)
C64_7 C 0.0621(5) 0.0928(5) 0.22445(14)
C65_7 C 0.2345(5) 0.0631(6) 0.1089(2)
C66_7 C 0.3227(5) 0.1377(6) 0.1722(2)
H42_7 H 0.3168 0.1799 0.1840
C67_7 C 0.1303(5) 0.1234(7) 0.08729(19)
H43_7 H 0.0942 0.1638 0.0863
C68_7 C 0.1131(5) 0.1474(4) 0.18139(17)
H44_7 H 0.1574 0.1172 0.1844
N7_7 N 0.1840(4) 0.1257(4) 0.10666(14)
N8_7 N 0.2464(5) 0.3045(4) 0.15726(15)
Zn3_7 Zn -0.0000 1.0000 0.26488(3)
H36_6 H 0.1750 0.9638 0.0576
H37_6 H 0.4174 0.9740 0.1648
H38_6 H 0.3430 0.9630 0.1284
H40_6 H 0.2643 0.9608 0.0913
H14_6 H 0.8250 0.0362 0.0576
H15_6 H 0.5826 0.0260 0.1648
H16_6 H 0.6570 0.0370 0.1284
H18_6 H 0.7357 0.0392 0.0913
Zn3_8 Zn 1.0000 -0.0000 0.26488(3)
Ir1_7 Ir 0.792814(17) 0.784288(18) 0.133080(14)
O1_7 O 0.8770(4) 0.9427(4) 0.22862(13)
O3_7 O 0.8670(5) 0.5669(7) 0.05030(19)
O4_7 O 0.9941(4) 0.5826(4) 0.04202(12)
C1_7 C 0.9472(5) 0.8562(5) 0.19997(15)
C2_7 C 0.7833(7) 0.6751(7) 0.1817(2)
H1_7 H 0.8265 0.7018 0.1883
C3_7 C 0.6641(7) 0.6794(7) 0.1207(3)
C4_7 C 0.9410(6) 0.6308(5) 0.08291(16)
C5_7 C 0.7055(6) 0.7431(7) 0.1090(2)
C6_7 C 0.9519(5) 0.7132(4) 0.13032(19)
C7_7 C 0.6855(6) 0.7693(9) 0.0825(2)
H2_7 H 0.7118 0.8109 0.0745
C8_7 C 0.7115(4) 0.9330(6) 0.1326(3)
C9_7 C 0.7519(9) 0.6161(7) 0.1972(3)
H3_7 H 0.7727 0.6048 0.2142
C10_7 C 0.6038(7) 0.6438(9) 0.1067(3)
H4_7 H 0.5772 0.6017 0.1142
C11_7 C 0.6256(6) 0.9246(6) 0.1793(2)
H5_7 H 0.5974 0.9237 0.1955
N1_7 N 0.8897(3) 0.8076(4) 0.15930(13)
C13_7 C 0.8774(5) 0.6719(5) 0.09352(16)
H7_7 H 0.8303 0.6718 0.0841
C15_7 C 0.8745(7) 0.9350(7) 0.0689(2)
H9_7 H 0.9124 0.9339 0.0553
C16_7 C 0.7178(5) 0.8642(5) 0.14848(17)
N2_7 N 0.8832(4) 0.7113(3) 0.11701(13)
C17_7 C 0.5843(7) 0.6724(10) 0.0816(3)
H10_7 H 0.5414 0.6513 0.0726
C18_7 C 0.9323(6) 0.5898(7) 0.05593(17)
C19_7 C 0.6942(7) 0.6514(7) 0.1477(2)
C22_7 C 0.6259(7) 0.7314(9) 0.0688(3)
H13_7 H 0.6136 0.7456 0.0510
C23_7 C 0.8229(7) 0.9961(8) 0.0703(2)
C24_7 C 0.6189(6) 0.9871(8) 0.1611(3)
C25_7 C 0.6607(6) 0.9930(7) 0.1394(2)
C26_7 C 0.6625(8) 0.5903(8) 0.1623(3)
H17_7 H 0.6225 0.5605 0.1549
C27_7 C 0.7700(7) 0.9974(8) 0.0901(2)
C28_7 C 0.6903(9) 0.5744(7) 0.1875(3)
H19_7 H 0.6676 0.5354 0.1980
C29_7 C 0.9537(5) 0.7613(5) 0.15526(15)
C30_7 C 0.9379(5) 0.9072(5) 0.22445(14)
C31_7 C 0.7655(5) 0.9369(6) 0.1089(2)
C32_7 C 0.6773(5) 0.8623(6) 0.1722(2)
H20_7 H 0.6832 0.8201 0.1840
C33_7 C 0.8697(5) 0.8766(7) 0.08729(19)
H21_7 H 0.9058 0.8362 0.0863
C34_7 C 0.8869(5) 0.8526(4) 0.18139(17)
H22_7 H 0.8426 0.8828 0.1844
N3_7 N 0.8160(4) 0.8743(4) 0.10666(14)
N4_7 N 0.7536(5) 0.6955(4) 0.15726(15)
O6_6 O 0.9998(4) 0.0879(4) 0.23970(11)
C46_7 C 0.9905(6) 0.1891(6) 0.19593(16)
H28_7 H 0.9499 0.1888 0.2085
C48_7 C 0.9849(6) 0.3297(5) 0.12080(17)
H30_7 H 0.9385 0.3307 0.1307
C54_7 C 0.9859(6) 0.2360(6) 0.17335(17)
H33_7 H 0.9416 0.2660 0.1704
C55_7 C 0.9908(6) 0.3693(5) 0.09754(17)
H34_7 H 0.9482 0.3973 0.0911
Zn3_9 Zn 1.0000 1.0000 0.26488(3)
C46_8 C 0.3109(6) 0.0095(6) 0.44593(16)
H28_8 H 0.3112 0.0501 0.4585
C48_8 C 0.1703(5) 0.0151(6) 0.37080(17)
H30_8 H 0.1693 0.0615 0.3807
C54_8 C 0.2640(6) 0.0141(6) 0.42335(17)
H33_8 H 0.2340 0.0584 0.4204
C55_8 C 0.1307(5) 0.0092(6) 0.34754(17)
H34_8 H 0.1027 0.0518 0.3411
Ir2_8 Ir 0.284288(18) 0.792814(17) 0.383080(14)
O5_8 O 0.4427(4) 0.8770(4) 0.47862(13)
O7_8 O 0.0669(7) 0.8670(5) 0.30030(19)
O8_8 O 0.0826(4) 0.9941(4) 0.29202(12)
C35_8 C 0.3562(5) 0.9472(5) 0.44997(15)
C36_8 C 0.1751(7) 0.7833(7) 0.4317(2)
H23_8 H 0.2018 0.8265 0.4383
C37_8 C 0.1794(7) 0.6641(7) 0.3707(3)
C38_8 C 0.1308(5) 0.9410(6) 0.33291(16)
C39_8 C 0.2431(7) 0.7055(6) 0.3590(2)
C40_8 C 0.2132(4) 0.9519(5) 0.38032(19)
C41_8 C 0.2693(9) 0.6855(6) 0.3325(2)
H24_8 H 0.3109 0.7118 0.3245
C42_8 C 0.4330(6) 0.7115(4) 0.3826(3)
C43_8 C 0.1161(7) 0.7519(9) 0.4472(3)
H25_8 H 0.1048 0.7727 0.4642
C44_8 C 0.1438(9) 0.6038(7) 0.3567(3)
H26_8 H 0.1017 0.5772 0.3642
C45_8 C 0.4246(6) 0.6256(6) 0.4293(2)
H27_8 H 0.4237 0.5974 0.4455
N5_8 N 0.3076(4) 0.8897(3) 0.40930(13)
C47_8 C 0.1719(5) 0.8774(5) 0.34352(16)
H29_8 H 0.1718 0.8303 0.3341
C49_8 C 0.4350(7) 0.8745(7) 0.3189(2)
H31_8 H 0.4339 0.9124 0.3053
C50_8 C 0.3642(5) 0.7178(5) 0.39848(17)
N6_8 N 0.2113(3) 0.8832(4) 0.36701(13)
C51_8 C 0.1724(10) 0.5843(7) 0.3316(3)
H32_8 H 0.1513 0.5414 0.3226
C52_8 C 0.0898(7) 0.9323(6) 0.30593(17)
C53_8 C 0.1514(7) 0.6942(7) 0.3977(2)
C56_8 C 0.2314(9) 0.6259(7) 0.3188(3)
H35_8 H 0.2456 0.6136 0.3010
C57_8 C 0.4961(8) 0.8229(7) 0.3203(2)
H36_7 H 0.5362 0.8250 0.3076
C58_8 C 0.4871(8) 0.6189(6) 0.4111(3)
H37_7 H 0.5260 0.5826 0.4148
C59_8 C 0.4930(7) 0.6607(6) 0.3894(2)
H38_7 H 0.5370 0.6570 0.3784
C60_8 C 0.0903(8) 0.6625(8) 0.4123(3)
H39_8 H 0.0605 0.6225 0.4049
C61_8 C 0.4974(8) 0.7700(7) 0.3401(2)
H40_7 H 0.5392 0.7357 0.3413
C62_8 C 0.0744(7) 0.6903(9) 0.4375(3)
H41_8 H 0.0354 0.6676 0.4480
C63_8 C 0.2613(5) 0.9537(5) 0.40526(15)
C64_8 C 0.4072(5) 0.9379(5) 0.47445(14)
C65_8 C 0.4369(6) 0.7655(5) 0.3589(2)
C66_8 C 0.3623(6) 0.6773(5) 0.4222(2)
H42_8 H 0.3201 0.6832 0.4340
C67_8 C 0.3766(7) 0.8697(5) 0.33729(19)
H43_8 H 0.3362 0.9058 0.3363
C68_8 C 0.3526(4) 0.8869(5) 0.43139(17)
H44_8 H 0.3828 0.8426 0.4344
N7_8 N 0.3743(4) 0.8160(4) 0.35666(14)
N8_8 N 0.1955(4) 0.7536(5) 0.40726(15)
Ir1_8 Ir 0.715712(18) 0.207186(17) 0.383080(14)
O1_8 O 0.5573(4) 0.1230(4) 0.47862(13)
O3_8 O 0.9331(7) 0.1330(5) 0.30030(19)
O4_8 O 0.9174(4) 0.0059(4) 0.29202(12)
C1_8 C 0.6438(5) 0.0528(5) 0.44997(15)
C2_8 C 0.8249(7) 0.2167(7) 0.4317(2)
H1_8 H 0.7982 0.1735 0.4383
C3_8 C 0.8206(7) 0.3359(7) 0.3707(3)
C4_8 C 0.8692(5) 0.0590(6) 0.33291(16)
C5_8 C 0.7569(7) 0.2945(6) 0.3590(2)
C6_8 C 0.7868(4) 0.0481(5) 0.38032(19)
C7_8 C 0.7307(9) 0.3145(6) 0.3325(2)
H2_8 H 0.6891 0.2882 0.3245
C8_8 C 0.5670(6) 0.2885(4) 0.3826(3)
C9_8 C 0.8839(7) 0.2481(9) 0.4472(3)
H3_8 H 0.8952 0.2273 0.4642
C10_8 C 0.8562(9) 0.3962(7) 0.3567(3)
H4_8 H 0.8983 0.4228 0.3642
C11_8 C 0.5754(6) 0.3744(6) 0.4293(2)
H5_8 H 0.5763 0.4026 0.4455
N1_8 N 0.6924(4) 0.1103(3) 0.40930(13)
C13_8 C 0.8281(5) 0.1226(5) 0.34352(16)
H7_8 H 0.8282 0.1697 0.3341
C15_8 C 0.5650(7) 0.1255(7) 0.3189(2)
H9_8 H 0.5661 0.0876 0.3053
C16_8 C 0.6358(5) 0.2822(5) 0.39848(17)
N2_8 N 0.7887(3) 0.1168(4) 0.36701(13)
C17_8 C 0.8276(10) 0.4157(7) 0.3316(3)
H10_8 H 0.8487 0.4586 0.3226
C18_8 C 0.9102(7) 0.0677(6) 0.30593(17)
C19_8 C 0.8486(7) 0.3058(7) 0.3977(2)
C22_8 C 0.7686(9) 0.3741(7) 0.3188(3)
H13_8 H 0.7544 0.3864 0.3010
C23_8 C 0.5039(8) 0.1771(7) 0.3203(2)
H14_7 H 0.4638 0.1750 0.3076
C24_8 C 0.5129(8) 0.3811(6) 0.4111(3)
H15_7 H 0.4740 0.4174 0.4148
C25_8 C 0.5070(7) 0.3393(6) 0.3894(2)
H16_7 H 0.4630 0.3430 0.3784
C26_8 C 0.9097(8) 0.3375(8) 0.4123(3)
H17_8 H 0.9395 0.3775 0.4049
C27_8 C 0.5026(8) 0.2300(7) 0.3401(2)
H18_7 H 0.4608 0.2643 0.3413
C28_8 C 0.9256(7) 0.3097(9) 0.4375(3)
H19_8 H 0.9646 0.3324 0.4480
C29_8 C 0.7387(5) 0.0463(5) 0.40526(15)
C30_8 C 0.5928(5) 0.0621(5) 0.47445(14)
C31_8 C 0.5631(6) 0.2345(5) 0.3589(2)
C32_8 C 0.6377(6) 0.3227(5) 0.4222(2)
H20_8 H 0.6799 0.3168 0.4340
C33_8 C 0.6234(7) 0.1303(5) 0.33729(19)
H21_8 H 0.6638 0.0942 0.3363
C34_8 C 0.6474(4) 0.1131(5) 0.43139(17)
H22_8 H 0.6172 0.1574 0.4344
N3_8 N 0.6257(4) 0.1840(4) 0.35666(14)
N4_8 N 0.8045(4) 0.2464(5) 0.40726(15)
C12_8 C 0.6891(6) 0.9905(6) 0.44593(16)
H6_8 H 0.6888 0.9499 0.4585
C14_8 C 0.8297(5) 0.9849(6) 0.37080(17)
H8_8 H 0.8307 0.9385 0.3807
C20_8 C 0.7360(6) 0.9859(6) 0.42335(17)
H11_8 H 0.7660 0.9416 0.4204
C21_8 C 0.8693(5) 0.9908(6) 0.34754(17)
H12_8 H 0.8973 0.9482 0.3411
H36_8 H 0.0362 0.3250 0.8076
H37_8 H 0.0260 0.0826 0.9148
H38_8 H 0.0370 0.1570 0.8784
H40_8 H 0.0392 0.2357 0.8413
H14_8 H 0.9638 0.6750 0.8076
H15_8 H 0.9740 0.9174 0.9148
H16_8 H 0.9630 0.8430 0.8784
H18_8 H 0.9608 0.7643 0.8413
loop_
_geom_bond_atom_site_label_1
_geom_bond_atom_site_label_2
_geom_bond_site_symmetry_1
_geom_bond_site_symmetry_2
Ir1 C5 1_555 1_555
Zn1 O4 1_555 1_555
O1 C30 1_555 1_555
O2 C30 1_555 1_555
O3 C18 1_555 1_555
O4 C18 1_555 1_555
C1 C12 1_555 1_555
C2 H1 1_555 1_555
C3 C5 1_555 1_555
C4 C13 1_555 1_555
C5 C7 1_555 1_555
C6 C14 1_555 1_555
C7 H2 1_555 1_555
C8 C16 1_555 1_555
C9 C2 1_555 1_555
H3 C9 1_555 1_555
C10 C3 1_555 1_555
H4 C10 1_555 1_555
C11 H5 1_555 1_555
C12 H6 1_555 1_555
N1 Ir1 1_555 1_555
C13 H7 1_555 1_555
C14 H8 1_555 1_555
C15 H9 1_555 1_555
C16 Ir1 1_555 1_555
N2 Ir1 1_555 1_555
C17 C10 1_555 1_555
H10 C17 1_555 1_555
C18 C4 1_555 1_555
C19 C3 1_555 1_555
C20 C12 1_555 1_555
H11 C20 1_555 1_555
C21 C4 1_555 1_555
H12 C21 1_555 1_555
C22 C7 1_555 1_555
H13 C22 1_555 1_555
C23 C15 1_555 1_555
C24 C11 1_555 1_555
C25 C8 1_555 1_555
C26 C19 1_555 1_555
H17 C26 1_555 1_555
C27 C23 1_555 1_555
C28 C9 1_555 1_555
H19 C28 1_555 1_555
C29 C6 1_555 1_555
C30 C1 1_555 1_555
C31 C8 1_555 1_555
C32 C11 1_555 1_555
H20 C32 1_555 1_555
C33 C15 1_555 1_555
H21 C33 1_555 1_555
C34 C1 1_555 1_555
H22 C34 1_555 1_555
N3 Ir1 1_555 1_555
N4 Ir1 1_555 1_555
Ir2 C39 1_555 1_555
O5 C64 1_555 1_555
O6 C64 1_555 1_555
O7 C52 1_555 1_555
O8 Zn1 1_555 1_555
C35 C46 1_555 1_555
C36 H23 1_555 1_555
C37 C39 1_555 1_555
C38 C47 1_555 1_555
C39 C41 1_555 1_555
C40 C48 1_555 1_555
C41 H24 1_555 1_555
C42 C50 1_555 1_555
C43 C36 1_555 1_555
H25 C43 1_555 1_555
C44 C37 1_555 1_555
H26 C44 1_555 1_555
C45 H27 1_555 1_555
C46 H28 1_555 1_555
N5 Ir2 1_555 1_555
C47 H29 1_555 1_555
C48 H30 1_555 1_555
C49 H31 1_555 1_555
C50 Ir2 1_555 1_555
N6 Ir2 1_555 1_555
C51 C44 1_555 1_555
H32 C51 1_555 1_555
C52 O8 1_555 1_555
C53 C37 1_555 1_555
C54 C46 1_555 1_555
H33 C54 1_555 1_555
C55 C38 1_555 1_555
H34 C55 1_555 1_555
C56 C41 1_555 1_555
H35 C56 1_555 1_555
C57 C49 1_555 1_555
C58 C45 1_555 1_555
C59 C42 1_555 1_555
C60 C53 1_555 1_555
H39 C60 1_555 1_555
C61 C57 1_555 1_555
C62 C43 1_555 1_555
H41 C62 1_555 1_555
C63 C40 1_555 1_555
C64 C35 1_555 1_555
C65 C42 1_555 1_555
C66 C45 1_555 1_555
H42 C66 1_555 1_555
C67 C49 1_555 1_555
H43 C67 1_555 1_555
C68 C35 1_555 1_555
H44 C68 1_555 1_555
N7 Ir2 1_555 1_555
N8 Ir2 1_555 1_555
Zn3 O6 1_555 1_555
Zn3_2 O2 1_555 1_555
O9 Zn1 1_555 1_555
O10 Zn1 1_555 1_555
C2 N4 1_555 1_555
C6 N2 1_555 1_555
N1 C29 1_555 1_555
N1 C34 1_555 1_555
C13 N2 1_555 1_555
C14 C21 1_555 1_555
C16 C32 1_555 1_555
C17 C22 1_555 1_555
C19 N4 1_555 1_555
C20 C29 1_555 1_555
C24 C25 1_555 1_555
C26 C28 1_555 1_555
C27 C31 1_555 1_555
C31 N3 1_555 1_555
C33 N3 1_555 1_555
C36 N8 1_555 1_555
C38 C52 1_555 1_555
C40 N6 1_555 1_555
N5 C63 1_555 1_555
N5 C68 1_555 1_555
C47 N6 1_555 1_555
C48 C55 1_555 1_555
C50 C66 1_555 1_555
C51 C56 1_555 1_555
C53 N8 1_555 1_555
C54 C63 1_555 1_555
C58 C59 1_555 1_555
C60 C62 1_555 1_555
C61 C65 1_555 1_555
C65 N7 1_555 1_555
C67 N7 1_555 1_555
C12_2 H6_2 1_555 1_555
C14_2 H8_2 1_555 1_555
C20_2 C12_2 1_555 1_555
H11_2 C20_2 1_555 1_555
H12_2 C21_2 1_555 1_555
Ir2_2 C39_2 1_555 1_555
O5_2 C64_2 1_555 1_555
O7_2 C52_2 1_555 1_555
O8_2 Zn3 1_555 1_555
C36_2 H23_2 1_555 1_555
C37_2 C39_2 1_555 1_555
C38_2 C47_2 1_555 1_555
C39_2 C41_2 1_555 1_555
C41_2 H24_2 1_555 1_555
C42_2 C50_2 1_555 1_555
C43_2 C36_2 1_555 1_555
H25_2 C43_2 1_555 1_555
C44_2 C37_2 1_555 1_555
H26_2 C44_2 1_555 1_555
C45_2 H27_2 1_555 1_555
N5_2 Ir2_2 1_555 1_555
C47_2 H29_2 1_555 1_555
C49_2 H31_2 1_555 1_555
C50_2 Ir2_2 1_555 1_555
N6_2 Ir2_2 1_555 1_555
C51_2 C44_2 1_555 1_555
H32_2 C51_2 1_555 1_555
C52_2 O8_2 1_555 1_555
C53_2 C37_2 1_555 1_555
C56_2 C41_2 1_555 1_555
H35_2 C56_2 1_555 1_555
C57_2 C49_2 1_555 1_555
C58_2 C45_2 1_555 1_555
C59_2 C42_2 1_555 1_555
C60_2 C53_2 1_555 1_555
H39_2 C60_2 1_555 1_555
C61_2 C57_2 1_555 1_555
C62_2 C43_2 1_555 1_555
H41_2 C62_2 1_555 1_555
C63_2 C40_2 1_555 1_555
C64_2 C35_2 1_555 1_555
C65_2 C42_2 1_555 1_555
C66_2 C45_2 1_555 1_555
H42_2 C66_2 1_555 1_555
C67_2 C49_2 1_555 1_555
H43_2 C67_2 1_555 1_555
C68_2 C35_2 1_555 1_555
H44_2 C68_2 1_555 1_555
N7_2 Ir2_2 1_555 1_555
N8_2 Ir2_2 1_555 1_555
Zn2 O2_2 1_555 1_555
C14_2 C21_2 1_555 1_555
C36_2 N8_2 1_555 1_555
C38_2 C52_2 1_555 1_555
C40_2 N6_2 1_555 1_555
N5_2 C63_2 1_555 1_555
N5_2 C68_2 1_555 1_555
C47_2 N6_2 1_555 1_555
C50_2 C66_2 1_555 1_555
C51_2 C56_2 1_555 1_555
C53_2 N8_2 1_555 1_555
C58_2 C59_2 1_555 1_555
C60_2 C62_2 1_555 1_555
C61_2 C65_2 1_555 1_555
C65_2 N7_2 1_555 1_555
C67_2 N7_2 1_555 1_555
Ir1_2 C5_2 1_555 1_555
Zn3_2 O4_2 1_555 1_555
O1_2 C30_2 1_555 1_555
O3_2 C18_2 1_555 1_555
O4_2 C18_2 1_555 1_555
C2_2 H1_2 1_555 1_555
C3_2 C5_2 1_555 1_555
C4_2 C13_2 1_555 1_555
C5_2 C7_2 1_555 1_555
C7_2 H2_2 1_555 1_555
C8_2 C16_2 1_555 1_555
C9_2 C2_2 1_555 1_555
H3_2 C9_2 1_555 1_555
C10_2 C3_2 1_555 1_555
H4_2 C10_2 1_555 1_555
C11_2 H5_2 1_555 1_555
N1_2 Ir1_2 1_555 1_555
C13_2 H7_2 1_555 1_555
C15_2 H9_2 1_555 1_555
C16_2 Ir1_2 1_555 1_555
N2_2 Ir1_2 1_555 1_555
C17_2 C10_2 1_555 1_555
H10_2 C17_2 1_555 1_555
C18_2 C4_2 1_555 1_555
C19_2 C3_2 1_555 1_555
C22_2 C7_2 1_555 1_555
H13_2 C22_2 1_555 1_555
C23_2 C15_2 1_555 1_555
C24_2 C11_2 1_555 1_555
C25_2 C8_2 1_555 1_555
C26_2 C19_2 1_555 1_555
H17_2 C26_2 1_555 1_555
C27_2 C23_2 1_555 1_555
C28_2 C9_2 1_555 1_555
H19_2 C28_2 1_555 1_555
C29_2 C6_2 1_555 1_555
C30_2 C1_2 1_555 1_555
C31_2 C8_2 1_555 1_555
C32_2 C11_2 1_555 1_555
H20_2 C32_2 1_555 1_555
C33_2 C15_2 1_555 1_555
H21_2 C33_2 1_555 1_555
C34_2 C1_2 1_555 1_555
H22_2 C34_2 1_555 1_555
N3_2 Ir1_2 1_555 1_555
N4_2 Ir1_2 1_555 1_555
C46_2 H28_2 1_555 1_555
C48_2 H30_2 1_555 1_555
C54_2 C46_2 1_555 1_555
H33_2 C54_2 1_555 1_555
H34_2 C55_2 1_555 1_555
Zn2_4 O6_2 1_555 1_555
C2_2 N4_2 1_555 1_555
C6_2 N2_2 1_555 1_555
N1_2 C29_2 1_555 1_555
N1_2 C34_2 1_555 1_555
C13_2 N2_2 1_555 1_555
C16_2 C32_2 1_555 1_555
C17_2 C22_2 1_555 1_555
C19_2 N4_2 1_555 1_555
C24_2 C25_2 1_555 1_555
C26_2 C28_2 1_555 1_555
C27_2 C31_2 1_555 1_555
C31_2 N3_2 1_555 1_555
C33_2 N3_2 1_555 1_555
C48_2 C55_2 1_555 1_555
Ir1_3 C5_3 1_555 1_555
Zn2 O4_3 1_555 1_555
O1_3 C30_3 1_555 1_555
O3_3 C18_3 1_555 1_555
O4_3 C18_3 1_555 1_555
C2_3 H1_3 1_555 1_555
C3_3 C5_3 1_555 1_555
C4_3 C13_3 1_555 1_555
C5_3 C7_3 1_555 1_555
C7_3 H2_3 1_555 1_555
C8_3 C16_3 1_555 1_555
C9_3 C2_3 1_555 1_555
H3_3 C9_3 1_555 1_555
C10_3 C3_3 1_555 1_555
H4_3 C10_3 1_555 1_555
C11_3 H5_3 1_555 1_555
N1_3 Ir1_3 1_555 1_555
C13_3 H7_3 1_555 1_555
C15_3 H9_3 1_555 1_555
C16_3 Ir1_3 1_555 1_555
N2_3 Ir1_3 1_555 1_555
C17_3 C10_3 1_555 1_555
H10_3 C17_3 1_555 1_555
C18_3 C4_3 1_555 1_555
C19_3 C3_3 1_555 1_555
C22_3 C7_3 1_555 1_555
H13_3 C22_3 1_555 1_555
C23_3 C15_3 1_555 1_555
H14_3 C23_3 1_555 1_555
C24_3 C11_3 1_555 1_555
H15_3 C24_3 1_555 1_555
C25_3 C8_3 1_555 1_555
H16_3 C25_3 1_555 1_555
C26_3 C19_3 1_555 1_555
H17_3 C26_3 1_555 1_555
C27_3 C23_3 1_555 1_555
H18_3 C27_3 1_555 1_555
C28_3 C9_3 1_555 1_555
H19_3 C28_3 1_555 1_555
C29_3 C6_3 1_555 1_555
C30_3 C1_3 1_555 1_555
C31_3 C8_3 1_555 1_555
C32_3 C11_3 1_555 1_555
H20_3 C32_3 1_555 1_555
C33_3 C15_3 1_555 1_555
H21_3 C33_3 1_555 1_555
C34_3 C1_3 1_555 1_555
H22_3 C34_3 1_555 1_555
N3_3 Ir1_3 1_555 1_555
N4_3 Ir1_3 1_555 1_555
C2_3 N4_3 1_555 1_555
C6_3 N2_3 1_555 1_555
N1_3 C29_3 1_555 1_555
N1_3 C34_3 1_555 1_555
C13_3 N2_3 1_555 1_555
C16_3 C32_3 1_555 1_555
C17_3 C22_3 1_555 1_555
C19_3 N4_3 1_555 1_555
C24_3 C25_3 1_555 1_555
C26_3 C28_3 1_555 1_555
C27_3 C31_3 1_555 1_555
C31_3 N3_3 1_555 1_555
C33_3 N3_3 1_555 1_555
C12_3 H6_3 1_555 1_555
C14_3 H8_3 1_555 1_555
C20_3 C12_3 1_555 1_555
H11_3 C20_3 1_555 1_555
H12_3 C21_3 1_555 1_555
C14_3 C21_3 1_555 1_555
C46_3 H28_3 1_555 1_555
C48_3 H30_3 1_555 1_555
C54_3 C46_3 1_555 1_555
H33_3 C54_3 1_555 1_555
H34_3 C55_3 1_555 1_555
C48_3 C55_3 1_555 1_555
Ir2_3 C39_3 1_555 1_555
O5_3 C64_3 1_555 1_555
O7_3 C52_3 1_555 1_555
O8_3 Zn2_4 1_555 1_555
C36_3 H23_3 1_555 1_555
C37_3 C39_3 1_555 1_555
C38_3 C47_3 1_555 1_555
C39_3 C41_3 1_555 1_555
C41_3 H24_3 1_555 1_555
C42_3 C50_3 1_555 1_555
C43_3 C36_3 1_555 1_555
H25_3 C43_3 1_555 1_555
C44_3 C37_3 1_555 1_555
H26_3 C44_3 1_555 1_555
C45_3 H27_3 1_555 1_555
N5_3 Ir2_3 1_555 1_555
C47_3 H29_3 1_555 1_555
C49_3 H31_3 1_555 1_555
C50_3 Ir2_3 1_555 1_555
N6_3 Ir2_3 1_555 1_555
C51_3 C44_3 1_555 1_555
H32_3 C51_3 1_555 1_555
C52_3 O8_3 1_555 1_555
C53_3 C37_3 1_555 1_555
C56_3 C41_3 1_555 1_555
H35_3 C56_3 1_555 1_555
C57_3 C49_3 1_555 1_555
H36_3 C57_3 1_555 1_555
C58_3 C45_3 1_555 1_555
H37_3 C58_3 1_555 1_555
C59_3 C42_3 1_555 1_555
H38_3 C59_3 1_555 1_555
C60_3 C53_3 1_555 1_555
H39_3 C60_3 1_555 1_555
C61_3 C57_3 1_555 1_555
H40_3 C61_3 1_555 1_555
C62_3 C43_3 1_555 1_555
H41_3 C62_3 1_555 1_555
C63_3 C40_3 1_555 1_555
C64_3 C35_3 1_555 1_555
C65_3 C42_3 1_555 1_555
C66_3 C45_3 1_555 1_555
H42_3 C66_3 1_555 1_555
C67_3 C49_3 1_555 1_555
H43_3 C67_3 1_555 1_555
C68_3 C35_3 1_555 1_555
H44_3 C68_3 1_555 1_555
N7_3 Ir2_3 1_555 1_555
N8_3 Ir2_3 1_555 1_555
C36_3 N8_3 1_555 1_555
C38_3 C52_3 1_555 1_555
C40_3 N6_3 1_555 1_555
N5_3 C63_3 1_555 1_555
N5_3 C68_3 1_555 1_555
C47_3 N6_3 1_555 1_555
C50_3 C66_3 1_555 1_555
C51_3 C56_3 1_555 1_555
C53_3 N8_3 1_555 1_555
C58_3 C59_3 1_555 1_555
C60_3 C62_3 1_555 1_555
C61_3 C65_3 1_555 1_555
C65_3 N7_3 1_555 1_555
C67_3 N7_3 1_555 1_555
Ir2_4 C39_4 1_555 1_555
O5_4 C64_4 1_555 1_555
O10 C64_4 1_555 1_555
O7_4 C52_4 1_555 1_555
O8_4 Zn3_3 1_555 1_555
C35_4 C46_4 1_555 1_555
C36_4 H23_4 1_555 1_555
C37_4 C39_4 1_555 1_555
C38_4 C47_4 1_555 1_555
C39_4 C41_4 1_555 1_555
C40_4 C48_4 1_555 1_555
C41_4 H24_4 1_555 1_555
C42_4 C50_4 1_555 1_555
C43_4 C36_4 1_555 1_555
H25_4 C43_4 1_555 1_555
C44_4 C37_4 1_555 1_555
H26_4 C44_4 1_555 1_555
C45_4 H27_4 1_555 1_555
C46_4 H28_4 1_555 1_555
N5_4 Ir2_4 1_555 1_555
C47_4 H29_4 1_555 1_555
C48_4 H30_4 1_555 1_555
C49_4 H31_4 1_555 1_555
C50_4 Ir2_4 1_555 1_555
N6_4 Ir2_4 1_555 1_555
C51_4 C44_4 1_555 1_555
H32_4 C51_4 1_555 1_555
C52_4 O8_4 1_555 1_555
C53_4 C37_4 1_555 1_555
C54_4 C46_4 1_555 1_555
H33_4 C54_4 1_555 1_555
C55_4 C38_4 1_555 1_555
H34_4 C55_4 1_555 1_555
C56_4 C41_4 1_555 1_555
H35_4 C56_4 1_555 1_555
C57_4 C49_4 1_555 1_555
H36_4 C57_4 1_555 1_555
C58_4 C45_4 1_555 1_555
H37_4 C58_4 1_555 1_555
C59_4 C42_4 1_555 1_555
H38_4 C59_4 1_555 1_555
C60_4 C53_4 1_555 1_555
H39_4 C60_4 1_555 1_555
C61_4 C57_4 1_555 1_555
H40_4 C61_4 1_555 1_555
C62_4 C43_4 1_555 1_555
H41_4 C62_4 1_555 1_555
C63_4 C40_4 1_555 1_555
C64_4 C35_4 1_555 1_555
C65_4 C42_4 1_555 1_555
C66_4 C45_4 1_555 1_555
H42_4 C66_4 1_555 1_555
C67_4 C49_4 1_555 1_555
H43_4 C67_4 1_555 1_555
C68_4 C35_4 1_555 1_555
H44_4 C68_4 1_555 1_555
N7_4 Ir2_4 1_555 1_555
N8_4 Ir2_4 1_555 1_555
C36_4 N8_4 1_555 1_555
C38_4 C52_4 1_555 1_555
C40_4 N6_4 1_555 1_555
N5_4 C63_4 1_555 1_555
N5_4 C68_4 1_555 1_555
C47_4 N6_4 1_555 1_555
C48_4 C55_4 1_555 1_555
C50_4 C66_4 1_555 1_555
C51_4 C56_4 1_555 1_555
C53_4 N8_4 1_555 1_555
C54_4 C63_4 1_555 1_555
C58_4 C59_4 1_555 1_555
C60_4 C62_4 1_555 1_555
C61_4 C65_4 1_555 1_555
C65_4 N7_4 1_555 1_555
C67_4 N7_4 1_555 1_555
Ir1_4 C5_4 1_555 1_555
Zn3_4 O4_4 1_555 1_555
O1_4 C30_4 1_555 1_555
O9 C30_4 1_555 1_555
O3_4 C18_4 1_555 1_555
O4_4 C18_4 1_555 1_555
C1_4 C12_4 1_555 1_555
C2_4 H1_4 1_555 1_555
C3_4 C5_4 1_555 1_555
C4_4 C13_4 1_555 1_555
C5_4 C7_4 1_555 1_555
C6_4 C14_4 1_555 1_555
C7_4 H2_4 1_555 1_555
C8_4 C16_4 1_555 1_555
C9_4 C2_4 1_555 1_555
H3_4 C9_4 1_555 1_555
C10_4 C3_4 1_555 1_555
H4_4 C10_4 1_555 1_555
C11_4 H5_4 1_555 1_555
C12_4 H6_4 1_555 1_555
N1_4 Ir1_4 1_555 1_555
C13_4 H7_4 1_555 1_555
C14_4 H8_4 1_555 1_555
C15_4 H9_4 1_555 1_555
C16_4 Ir1_4 1_555 1_555
N2_4 Ir1_4 1_555 1_555
C17_4 C10_4 1_555 1_555
H10_4 C17_4 1_555 1_555
C18_4 C4_4 1_555 1_555
C19_4 C3_4 1_555 1_555
C20_4 C12_4 1_555 1_555
H11_4 C20_4 1_555 1_555
C21_4 C4_4 1_555 1_555
H12_4 C21_4 1_555 1_555
C22_4 C7_4 1_555 1_555
H13_4 C22_4 1_555 1_555
C23_4 C15_4 1_555 1_555
H14_4 C23_4 1_555 1_555
C24_4 C11_4 1_555 1_555
H15_4 C24_4 1_555 1_555
C25_4 C8_4 1_555 1_555
H16_4 C25_4 1_555 1_555
C26_4 C19_4 1_555 1_555
H17_4 C26_4 1_555 1_555
C27_4 C23_4 1_555 1_555
H18_4 C27_4 1_555 1_555
C28_4 C9_4 1_555 1_555
H19_4 C28_4 1_555 1_555
C29_4 C6_4 1_555 1_555
C30_4 C1_4 1_555 1_555
C31_4 C8_4 1_555 1_555
C32_4 C11_4 1_555 1_555
H20_4 C32_4 1_555 1_555
C33_4 C15_4 1_555 1_555
H21_4 C33_4 1_555 1_555
C34_4 C1_4 1_555 1_555
H22_4 C34_4 1_555 1_555
N3_4 Ir1_4 1_555 1_555
N4_4 Ir1_4 1_555 1_555
C2_4 N4_4 1_555 1_555
C6_4 N2_4 1_555 1_555
N1_4 C29_4 1_555 1_555
N1_4 C34_4 1_555 1_555
C13_4 N2_4 1_555 1_555
C14_4 C21_4 1_555 1_555
C16_4 C32_4 1_555 1_555
C17_4 C22_4 1_555 1_555
C19_4 N4_4 1_555 1_555
C20_4 C29_4 1_555 1_555
C24_4 C25_4 1_555 1_555
C26_4 C28_4 1_555 1_555
C27_4 C31_4 1_555 1_555
C31_4 N3_4 1_555 1_555
C33_4 N3_4 1_555 1_555
Ir1_5 C5_5 1_555 1_555
Zn1_2 O4_5 1_555 1_555
O1_5 C30_5 1_555 1_555
O2_4 C30_5 1_555 1_555
O3_5 C18_5 1_555 1_555
O4_5 C18_5 1_555 1_555
C1_5 C12_5 1_555 1_555
C2_5 H1_5 1_555 1_555
C3_5 C5_5 1_555 1_555
C4_5 C13_5 1_555 1_555
C5_5 C7_5 1_555 1_555
C6_5 C14_5 1_555 1_555
C7_5 H2_5 1_555 1_555
C8_5 C16_5 1_555 1_555
C9_5 C2_5 1_555 1_555
H3_5 C9_5 1_555 1_555
C10_5 C3_5 1_555 1_555
H4_5 C10_5 1_555 1_555
C11_5 H5_5 1_555 1_555
C12_5 H6_5 1_555 1_555
N1_5 Ir1_5 1_555 1_555
C13_5 H7_5 1_555 1_555
C14_5 H8_5 1_555 1_555
C15_5 H9_5 1_555 1_555
C16_5 Ir1_5 1_555 1_555
N2_5 Ir1_5 1_555 1_555
C17_5 C10_5 1_555 1_555
H10_5 C17_5 1_555 1_555
C18_5 C4_5 1_555 1_555
C19_5 C3_5 1_555 1_555
C20_5 C12_5 1_555 1_555
H11_5 C20_5 1_555 1_555
C21_5 C4_5 1_555 1_555
H12_5 C21_5 1_555 1_555
C22_5 C7_5 1_555 1_555
H13_5 C22_5 1_555 1_555
C23_5 C15_5 1_555 1_555
H14_5 C23_5 1_555 1_555
C24_5 C11_5 1_555 1_555
H15_5 C24_5 1_555 1_555
C25_5 C8_5 1_555 1_555
H16_5 C25_5 1_555 1_555
C26_5 C19_5 1_555 1_555
H17_5 C26_5 1_555 1_555
C27_5 C23_5 1_555 1_555
H18_5 C27_5 1_555 1_555
C28_5 C9_5 1_555 1_555
H19_5 C28_5 1_555 1_555
C29_5 C6_5 1_555 1_555
C30_5 C1_5 1_555 1_555
C31_5 C8_5 1_555 1_555
C32_5 C11_5 1_555 1_555
H20_5 C32_5 1_555 1_555
C33_5 C15_5 1_555 1_555
H21_5 C33_5 1_555 1_555
C34_5 C1_5 1_555 1_555
H22_5 C34_5 1_555 1_555
N3_5 Ir1_5 1_555 1_555
N4_5 Ir1_5 1_555 1_555
Zn3_5 O2_4 1_555 1_555
O9_2 Zn1_2 1_555 1_555
C2_5 N4_5 1_555 1_555
C6_5 N2_5 1_555 1_555
N1_5 C29_5 1_555 1_555
N1_5 C34_5 1_555 1_555
C13_5 N2_5 1_555 1_555
C14_5 C21_5 1_555 1_555
C16_5 C32_5 1_555 1_555
C17_5 C22_5 1_555 1_555
C19_5 N4_5 1_555 1_555
C20_5 C29_5 1_555 1_555
C24_5 C25_5 1_555 1_555
C26_5 C28_5 1_555 1_555
C27_5 C31_5 1_555 1_555
C31_5 N3_5 1_555 1_555
C33_5 N3_5 1_555 1_555
Ir2_5 C39_5 1_555 1_555
O5_5 C64_5 1_555 1_555
O6_4 C64_5 1_555 1_555
O7_5 C52_5 1_555 1_555
O8_5 Zn1_3 1_555 1_555
C35_5 C46_5 1_555 1_555
C36_5 H23_5 1_555 1_555
C37_5 C39_5 1_555 1_555
C38_5 C47_5 1_555 1_555
C39_5 C41_5 1_555 1_555
C40_5 C48_5 1_555 1_555
C41_5 H24_5 1_555 1_555
C42_5 C50_5 1_555 1_555
C43_5 C36_5 1_555 1_555
H25_5 C43_5 1_555 1_555
C44_5 C37_5 1_555 1_555
H26_5 C44_5 1_555 1_555
C45_5 H27_5 1_555 1_555
C46_5 H28_5 1_555 1_555
N5_5 Ir2_5 1_555 1_555
C47_5 H29_5 1_555 1_555
C48_5 H30_5 1_555 1_555
C49_5 H31_5 1_555 1_555
C50_5 Ir2_5 1_555 1_555
N6_5 Ir2_5 1_555 1_555
C51_5 C44_5 1_555 1_555
H32_5 C51_5 1_555 1_555
C52_5 O8_5 1_555 1_555
C53_5 C37_5 1_555 1_555
C54_5 C46_5 1_555 1_555
H33_5 C54_5 1_555 1_555
C55_5 C38_5 1_555 1_555
H34_5 C55_5 1_555 1_555
C56_5 C41_5 1_555 1_555
H35_5 C56_5 1_555 1_555
C57_5 C49_5 1_555 1_555
H36_5 C57_5 1_555 1_555
C58_5 C45_5 1_555 1_555
H37_5 C58_5 1_555 1_555
C59_5 C42_5 1_555 1_555
H38_5 C59_5 1_555 1_555
C60_5 C53_5 1_555 1_555
H39_5 C60_5 1_555 1_555
C61_5 C57_5 1_555 1_555
H40_5 C61_5 1_555 1_555
C62_5 C43_5 1_555 1_555
H41_5 C62_5 1_555 1_555
C63_5 C40_5 1_555 1_555
C64_5 C35_5 1_555 1_555
C65_5 C42_5 1_555 1_555
C66_5 C45_5 1_555 1_555
H42_5 C66_5 1_555 1_555
C67_5 C49_5 1_555 1_555
H43_5 C67_5 1_555 1_555
C68_5 C35_5 1_555 1_555
H44_5 C68_5 1_555 1_555
N7_5 Ir2_5 1_555 1_555
N8_5 Ir2_5 1_555 1_555
Zn3_5 O6_4 1_555 1_555
O10_2 Zn1_3 1_555 1_555
C36_5 N8_5 1_555 1_555
C38_5 C52_5 1_555 1_555
C40_5 N6_5 1_555 1_555
N5_5 C63_5 1_555 1_555
N5_5 C68_5 1_555 1_555
C47_5 N6_5 1_555 1_555
C48_5 C55_5 1_555 1_555
C50_5 C66_5 1_555 1_555
C51_5 C56_5 1_555 1_555
C53_5 N8_5 1_555 1_555
C54_5 C63_5 1_555 1_555
C58_5 C59_5 1_555 1_555
C60_5 C62_5 1_555 1_555
C61_5 C65_5 1_555 1_555
C65_5 N7_5 1_555 1_555
C67_5 N7_5 1_555 1_555
Ir1_6 C5_6 1_555 1_555
Zn3_5 O4_6 1_555 1_555
O1_6 C30_6 1_555 1_555
O2_5 C30_6 1_555 1_555
O3_6 C18_6 1_555 1_555
O4_6 C18_6 1_555 1_555
C1_6 C12_6 1_555 1_555
C2_6 H1_6 1_555 1_555
C3_6 C5_6 1_555 1_555
C4_6 C13_6 1_555 1_555
C5_6 C7_6 1_555 1_555
C6_6 C14_6 1_555 1_555
C7_6 H2_6 1_555 1_555
C8_6 C16_6 1_555 1_555
C9_6 C2_6 1_555 1_555
H3_6 C9_6 1_555 1_555
C10_6 C3_6 1_555 1_555
H4_6 C10_6 1_555 1_555
C11_6 H5_6 1_555 1_555
C12_6 H6_6 1_555 1_555
N1_6 Ir1_6 1_555 1_555
C13_6 H7_6 1_555 1_555
C14_6 H8_6 1_555 1_555
C15_6 H9_6 1_555 1_555
C16_6 Ir1_6 1_555 1_555
N2_6 Ir1_6 1_555 1_555
C17_6 C10_6 1_555 1_555
H10_6 C17_6 1_555 1_555
C18_6 C4_6 1_555 1_555
C19_6 C3_6 1_555 1_555
C20_6 C12_6 1_555 1_555
H11_6 C20_6 1_555 1_555
C21_6 C4_6 1_555 1_555
H12_6 C21_6 1_555 1_555
C22_6 C7_6 1_555 1_555
H13_6 C22_6 1_555 1_555
C23_6 C15_6 1_555 1_555
C24_6 C11_6 1_555 1_555
C25_6 C8_6 1_555 1_555
C26_6 C19_6 1_555 1_555
H17_6 C26_6 1_555 1_555
C27_6 C23_6 1_555 1_555
C28_6 C9_6 1_555 1_555
H19_6 C28_6 1_555 1_555
C29_6 C6_6 1_555 1_555
C30_6 C1_6 1_555 1_555
C31_6 C8_6 1_555 1_555
C32_6 C11_6 1_555 1_555
H20_6 C32_6 1_555 1_555
C33_6 C15_6 1_555 1_555
H21_6 C33_6 1_555 1_555
C34_6 C1_6 1_555 1_555
H22_6 C34_6 1_555 1_555
N3_6 Ir1_6 1_555 1_555
N4_6 Ir1_6 1_555 1_555
Ir2_6 C39_6 1_555 1_555
O5_6 C64_6 1_555 1_555
O6_5 C64_6 1_555 1_555
O7_6 C52_6 1_555 1_555
O8_6 Zn3_5 1_555 1_555
C35_6 C46_6 1_555 1_555
C36_6 H23_6 1_555 1_555
C37_6 C39_6 1_555 1_555
C38_6 C47_6 1_555 1_555
C39_6 C41_6 1_555 1_555
C40_6 C48_6 1_555 1_555
C41_6 H24_6 1_555 1_555
C42_6 C50_6 1_555 1_555
C43_6 C36_6 1_555 1_555
H25_6 C43_6 1_555 1_555
C44_6 C37_6 1_555 1_555
H26_6 C44_6 1_555 1_555
C45_6 H27_6 1_555 1_555
C46_6 H28_6 1_555 1_555
N5_6 Ir2_6 1_555 1_555
C47_6 H29_6 1_555 1_555
C48_6 H30_6 1_555 1_555
C49_6 H31_6 1_555 1_555
C50_6 Ir2_6 1_555 1_555
N6_6 Ir2_6 1_555 1_555
C51_6 C44_6 1_555 1_555
H32_6 C51_6 1_555 1_555
C52_6 O8_6 1_555 1_555
C53_6 C37_6 1_555 1_555
C54_6 C46_6 1_555 1_555
H33_6 C54_6 1_555 1_555
C55_6 C38_6 1_555 1_555
H34_6 C55_6 1_555 1_555
C56_6 C41_6 1_555 1_555
H35_6 C56_6 1_555 1_555
C57_6 C49_6 1_555 1_555
C58_6 C45_6 1_555 1_555
C59_6 C42_6 1_555 1_555
C60_6 C53_6 1_555 1_555
H39_6 C60_6 1_555 1_555
C61_6 C57_6 1_555 1_555
C62_6 C43_6 1_555 1_555
H41_6 C62_6 1_555 1_555
C63_6 C40_6 1_555 1_555
C64_6 C35_6 1_555 1_555
C65_6 C42_6 1_555 1_555
C66_6 C45_6 1_555 1_555
H42_6 C66_6 1_555 1_555
C67_6 C49_6 1_555 1_555
H43_6 C67_6 1_555 1_555
C68_6 C35_6 1_555 1_555
H44_6 C68_6 1_555 1_555
N7_6 Ir2_6 1_555 1_555
N8_6 Ir2_6 1_555 1_555
C2_6 N4_6 1_555 1_555
C6_6 N2_6 1_555 1_555
N1_6 C29_6 1_555 1_555
N1_6 C34_6 1_555 1_555
C13_6 N2_6 1_555 1_555
C14_6 C21_6 1_555 1_555
C16_6 C32_6 1_555 1_555
C17_6 C22_6 1_555 1_555
C19_6 N4_6 1_555 1_555
C20_6 C29_6 1_555 1_555
C24_6 C25_6 1_555 1_555
C26_6 C28_6 1_555 1_555
C27_6 C31_6 1_555 1_555
C31_6 N3_6 1_555 1_555
C33_6 N3_6 1_555 1_555
C36_6 N8_6 1_555 1_555
C38_6 C52_6 1_555 1_555
C40_6 N6_6 1_555 1_555
N5_6 C63_6 1_555 1_555
N5_6 C68_6 1_555 1_555
C47_6 N6_6 1_555 1_555
C48_6 C55_6 1_555 1_555
C50_6 C66_6 1_555 1_555
C51_6 C56_6 1_555 1_555
C53_6 N8_6 1_555 1_555
C54_6 C63_6 1_555 1_555
C58_6 C59_6 1_555 1_555
C60_6 C62_6 1_555 1_555
C61_6 C65_6 1_555 1_555
C65_6 N7_6 1_555 1_555
C67_6 N7_6 1_555 1_555
C12_7 H6_7 1_555 1_555
C14_7 H8_7 1_555 1_555
C20_7 C12_7 1_555 1_555
H11_7 C20_7 1_555 1_555
H12_7 C21_7 1_555 1_555
Ir2_7 C39_7 1_555 1_555
O5_7 C64_7 1_555 1_555
O7_7 C52_7 1_555 1_555
O8_7 Zn2_5 1_555 1_555
C36_7 H23_7 1_555 1_555
C37_7 C39_7 1_555 1_555
C38_7 C47_7 1_555 1_555
C39_7 C41_7 1_555 1_555
C41_7 H24_7 1_555 1_555
C42_7 C50_7 1_555 1_555
C43_7 C36_7 1_555 1_555
H25_7 C43_7 1_555 1_555
C44_7 C37_7 1_555 1_555
H26_7 C44_7 1_555 1_555
C45_7 H27_7 1_555 1_555
N5_7 Ir2_7 1_555 1_555
C47_7 H29_7 1_555 1_555
C49_7 H31_7 1_555 1_555
C50_7 Ir2_7 1_555 1_555
N6_7 Ir2_7 1_555 1_555
C51_7 C44_7 1_555 1_555
H32_7 C51_7 1_555 1_555
C52_7 O8_7 1_555 1_555
C53_7 C37_7 1_555 1_555
C56_7 C41_7 1_555 1_555
H35_7 C56_7 1_555 1_555
C57_7 C49_7 1_555 1_555
C58_7 C45_7 1_555 1_555
C59_7 C42_7 1_555 1_555
C60_7 C53_7 1_555 1_555
H39_7 C60_7 1_555 1_555
C61_7 C57_7 1_555 1_555
C62_7 C43_7 1_555 1_555
H41_7 C62_7 1_555 1_555
C63_7 C40_7 1_555 1_555
C64_7 C35_7 1_555 1_555
C65_7 C42_7 1_555 1_555
C66_7 C45_7 1_555 1_555
H42_7 C66_7 1_555 1_555
C67_7 C49_7 1_555 1_555
H43_7 C67_7 1_555 1_555
C68_7 C35_7 1_555 1_555
H44_7 C68_7 1_555 1_555
N7_7 Ir2_7 1_555 1_555
N8_7 Ir2_7 1_555 1_555
Zn3_7 O2_6 1_555 1_555
C14_7 C21_7 1_555 1_555
C36_7 N8_7 1_555 1_555
C38_7 C52_7 1_555 1_555
C40_7 N6_7 1_555 1_555
N5_7 C63_7 1_555 1_555
N5_7 C68_7 1_555 1_555
C47_7 N6_7 1_555 1_555
C50_7 C66_7 1_555 1_555
C51_7 C56_7 1_555 1_555
C53_7 N8_7 1_555 1_555
C58_7 C59_7 1_555 1_555
C60_7 C62_7 1_555 1_555
C61_7 C65_7 1_555 1_555
C65_7 N7_7 1_555 1_555
C67_7 N7_7 1_555 1_555
Ir1_7 C5_7 1_555 1_555
Zn2_6 O4_7 1_555 1_555
O1_7 C30_7 1_555 1_555
O3_7 C18_7 1_555 1_555
O4_7 C18_7 1_555 1_555
C2_7 H1_7 1_555 1_555
C3_7 C5_7 1_555 1_555
C4_7 C13_7 1_555 1_555
C5_7 C7_7 1_555 1_555
C7_7 H2_7 1_555 1_555
C8_7 C16_7 1_555 1_555
C9_7 C2_7 1_555 1_555
H3_7 C9_7 1_555 1_555
C10_7 C3_7 1_555 1_555
H4_7 C10_7 1_555 1_555
C11_7 H5_7 1_555 1_555
N1_7 Ir1_7 1_555 1_555
C13_7 H7_7 1_555 1_555
C15_7 H9_7 1_555 1_555
C16_7 Ir1_7 1_555 1_555
N2_7 Ir1_7 1_555 1_555
C17_7 C10_7 1_555 1_555
H10_7 C17_7 1_555 1_555
C18_7 C4_7 1_555 1_555
C19_7 C3_7 1_555 1_555
C22_7 C7_7 1_555 1_555
H13_7 C22_7 1_555 1_555
C23_7 C15_7 1_555 1_555
C24_7 C11_7 1_555 1_555
C25_7 C8_7 1_555 1_555
C26_7 C19_7 1_555 1_555
H17_7 C26_7 1_555 1_555
C27_7 C23_7 1_555 1_555
C28_7 C9_7 1_555 1_555
H19_7 C28_7 1_555 1_555
C29_7 C6_7 1_555 1_555
C30_7 C1_7 1_555 1_555
C31_7 C8_7 1_555 1_555
C32_7 C11_7 1_555 1_555
H20_7 C32_7 1_555 1_555
C33_7 C15_7 1_555 1_555
H21_7 C33_7 1_555 1_555
C34_7 C1_7 1_555 1_555
H22_7 C34_7 1_555 1_555
N3_7 Ir1_7 1_555 1_555
N4_7 Ir1_7 1_555 1_555
C46_7 H28_7 1_555 1_555
C48_7 H30_7 1_555 1_555
C54_7 C46_7 1_555 1_555
H33_7 C54_7 1_555 1_555
H34_7 C55_7 1_555 1_555
Zn3_8 O6_6 1_555 1_555
C2_7 N4_7 1_555 1_555
C6_7 N2_7 1_555 1_555
N1_7 C29_7 1_555 1_555
N1_7 C34_7 1_555 1_555
C13_7 N2_7 1_555 1_555
C16_7 C32_7 1_555 1_555
C17_7 C22_7 1_555 1_555
C19_7 N4_7 1_555 1_555
C24_7 C25_7 1_555 1_555
C26_7 C28_7 1_555 1_555
C27_7 C31_7 1_555 1_555
C31_7 N3_7 1_555 1_555
C33_7 N3_7 1_555 1_555
C48_7 C55_7 1_555 1_555
C46_8 H28_8 1_555 1_555
C48_8 H30_8 1_555 1_555
C54_8 C46_8 1_555 1_555
H33_8 C54_8 1_555 1_555
H34_8 C55_8 1_555 1_555
C48_8 C55_8 1_555 1_555
Ir2_8 C39_8 1_555 1_555
O5_8 C64_8 1_555 1_555
O7_8 C52_8 1_555 1_555
O8_8 Zn3_7 1_555 1_555
C36_8 H23_8 1_555 1_555
C37_8 C39_8 1_555 1_555
C38_8 C47_8 1_555 1_555
C39_8 C41_8 1_555 1_555
C41_8 H24_8 1_555 1_555
C42_8 C50_8 1_555 1_555
C43_8 C36_8 1_555 1_555
H25_8 C43_8 1_555 1_555
C44_8 C37_8 1_555 1_555
H26_8 C44_8 1_555 1_555
C45_8 H27_8 1_555 1_555
N5_8 Ir2_8 1_555 1_555
C47_8 H29_8 1_555 1_555
C49_8 H31_8 1_555 1_555
C50_8 Ir2_8 1_555 1_555
N6_8 Ir2_8 1_555 1_555
C51_8 C44_8 1_555 1_555
H32_8 C51_8 1_555 1_555
C52_8 O8_8 1_555 1_555
C53_8 C37_8 1_555 1_555
C56_8 C41_8 1_555 1_555
H35_8 C56_8 1_555 1_555
C57_8 C49_8 1_555 1_555
H36_7 C57_8 1_555 1_555
C58_8 C45_8 1_555 1_555
H37_7 C58_8 1_555 1_555
C59_8 C42_8 1_555 1_555
H38_7 C59_8 1_555 1_555
C60_8 C53_8 1_555 1_555
H39_8 C60_8 1_555 1_555
C61_8 C57_8 1_555 1_555
H40_7 C61_8 1_555 1_555
C62_8 C43_8 1_555 1_555
H41_8 C62_8 1_555 1_555
C63_8 C40_8 1_555 1_555
C64_8 C35_8 1_555 1_555
C65_8 C42_8 1_555 1_555
C66_8 C45_8 1_555 1_555
H42_8 C66_8 1_555 1_555
C67_8 C49_8 1_555 1_555
H43_8 C67_8 1_555 1_555
C68_8 C35_8 1_555 1_555
H44_8 C68_8 1_555 1_555
N7_8 Ir2_8 1_555 1_555
N8_8 Ir2_8 1_555 1_555
C36_8 N8_8 1_555 1_555
C38_8 C52_8 1_555 1_555
C40_8 N6_8 1_555 1_555
N5_8 C63_8 1_555 1_555
N5_8 C68_8 1_555 1_555
C47_8 N6_8 1_555 1_555
C50_8 C66_8 1_555 1_555
C51_8 C56_8 1_555 1_555
C53_8 N8_8 1_555 1_555
C58_8 C59_8 1_555 1_555
C60_8 C62_8 1_555 1_555
C61_8 C65_8 1_555 1_555
C65_8 N7_8 1_555 1_555
C67_8 N7_8 1_555 1_555
Ir1_8 C5_8 1_555 1_555
Zn3_8 O4_8 1_555 1_555
O1_8 C30_8 1_555 1_555
O3_8 C18_8 1_555 1_555
O4_8 C18_8 1_555 1_555
C2_8 H1_8 1_555 1_555
C3_8 C5_8 1_555 1_555
C4_8 C13_8 1_555 1_555
C5_8 C7_8 1_555 1_555
C7_8 H2_8 1_555 1_555
C8_8 C16_8 1_555 1_555
C9_8 C2_8 1_555 1_555
H3_8 C9_8 1_555 1_555
C10_8 C3_8 1_555 1_555
H4_8 C10_8 1_555 1_555
C11_8 H5_8 1_555 1_555
N1_8 Ir1_8 1_555 1_555
C13_8 H7_8 1_555 1_555
C15_8 H9_8 1_555 1_555
C16_8 Ir1_8 1_555 1_555
N2_8 Ir1_8 1_555 1_555
C17_8 C10_8 1_555 1_555
H10_8 C17_8 1_555 1_555
C18_8 C4_8 1_555 1_555
C19_8 C3_8 1_555 1_555
C22_8 C7_8 1_555 1_555
H13_8 C22_8 1_555 1_555
C23_8 C15_8 1_555 1_555
H14_7 C23_8 1_555 1_555
C24_8 C11_8 1_555 1_555
H15_7 C24_8 1_555 1_555
C25_8 C8_8 1_555 1_555
H16_7 C25_8 1_555 1_555
C26_8 C19_8 1_555 1_555
H17_8 C26_8 1_555 1_555
C27_8 C23_8 1_555 1_555
H18_7 C27_8 1_555 1_555
C28_8 C9_8 1_555 1_555
H19_8 C28_8 1_555 1_555
C29_8 C6_8 1_555 1_555
C30_8 C1_8 1_555 1_555
C31_8 C8_8 1_555 1_555
C32_8 C11_8 1_555 1_555
H20_8 C32_8 1_555 1_555
C33_8 C15_8 1_555 1_555
H21_8 C33_8 1_555 1_555
C34_8 C1_8 1_555 1_555
H22_8 C34_8 1_555 1_555
N3_8 Ir1_8 1_555 1_555
N4_8 Ir1_8 1_555 1_555
C2_8 N4_8 1_555 1_555
C6_8 N2_8 1_555 1_555
N1_8 C29_8 1_555 1_555
N1_8 C34_8 1_555 1_555
C13_8 N2_8 1_555 1_555
C16_8 C32_8 1_555 1_555
C17_8 C22_8 1_555 1_555
C19_8 N4_8 1_555 1_555
C24_8 C25_8 1_555 1_555
C26_8 C28_8 1_555 1_555
C27_8 C31_8 1_555 1_555
C31_8 N3_8 1_555 1_555
C33_8 N3_8 1_555 1_555
C12_8 H6_8 1_555 1_555
C14_8 H8_8 1_555 1_555
C20_8 C12_8 1_555 1_555
H11_8 C20_8 1_555 1_555
H12_8 C21_8 1_555 1_555
C14_8 C21_8 1_555 1_555

#END
