
###############################################################################
#
# This file contains modified crystal structure data generated from the
# MOF subset of the Cambridge Structural Database (CSD) v543 
# hosted by the Cambridge Crystallographic Data Centre (CCDC).
#
# This work is licensed under the Creative Commons
# Attribution-NonCommercial-ShareAlike 4.0 International License.
# To view a copy of this license, visit
# http://creativecommons.org/licenses/by-nc-sa/4.0/
# or send a letter to
# Creative Commons, PO Box 1866, Mountain View, CA 94042, USA.
#
# CIF created using the CSD Python API on 29 September 2022
# The structure has been converted into the P1 space group
# The structure has a 3D framework
# The original CSD entry QUSRUT is in the triclinic crystal system
# The framework has been calculated to contain at least 10.0% void space
# The void calculation uses a probe of radius 1.32A, grid spacing 0.4
# Generated hydrogen atom positions removed from atoms on special positions
#
###############################################################################

data_QUSRUT
_chemical_formula_moiety         '(C60 H68 N24 O72 U10)n'
_symmetry_cell_setting           triclinic
_symmetry_space_group_name_H-M   'P 1'
_symmetry_Int_Tables_number      1
_space_group_name_Hall           'P 1'
loop_
_symmetry_equiv_pos_site_id
_symmetry_equiv_pos_as_xyz
1 x,y,z
_cell_length_a                   14.533(3)
_cell_length_b                   15.479(4)
_cell_length_c                   15.666(4)
_cell_angle_alpha                74.643(4)
_cell_angle_beta                 74.576(4)
_cell_angle_gamma                81.431(4)
_cell_volume                     3264.22
loop_
_atom_site_label
_atom_site_type_symbol
_atom_site_fract_x
_atom_site_fract_y
_atom_site_fract_z
C15 C 0.0274(10) 0.6279(9) 0.3366(9)
C16 C 0.0297(10) 0.6989(10) 0.3889(10)
H15 H 0.0725 0.6746 0.4293
H16 H 0.0569 0.7513 0.3452
O26 O 0.1057(8) 0.6117(7) 0.2808(7)
O36 O 0.0161(19) 0.9533(17) 0.1141(16)
O37 O 0.053(3) 0.860(3) 0.071(4)
H31 H 0.0524 0.8062 0.0762
U11 U 0.15810(4) 0.50299(4) 0.19238(3)
O29 O 0.6253(10) 0.0312(7) 0.3504(8)
O30 O 0.5273(10) 0.0063(8) 0.2800(10)
U8 U 0.47894(5) 0.14105(4) 0.17948(4)
U9 U 0.73176(5) 0.07883(4) 0.41549(4)
O43 O 0.3380(12) 0.0280(8) 0.4570(8)
C7 C 0.4633(11) 0.7265(10) 0.0494(10)
C8 C 0.4434(11) 0.6380(10) 0.0356(9)
H7 H 0.4599 0.5892 0.0839
H8 H 0.3755 0.6388 0.0398
C11 C 0.1666(10) 0.6204(12) 0.0182(10)
O18 O 0.4476(7) 0.7287(7) 0.1329(6)
O21 O 0.1856(8) 0.5409(7) 0.0255(6)
O22 O 0.1380(10) 0.6500(8) 0.0912(7)
U7 U 0.54415(4) 0.65670(4) 0.23706(4)
U1 U 0.45585(4) 0.34330(4) 0.76294(4)
U2 U 0.52106(5) 0.85895(4) 0.82052(4)
U3 U 0.26824(5) 0.92117(4) 0.58451(4)
U4 U 0.84190(4) 0.49701(4) 0.80762(3)
U5 U 0.81348(4) 0.52101(3) 0.43292(3)
C1 C 0.3822(11) 0.5358(10) 0.6085(9)
C2 C 0.4534(11) 0.6039(11) 0.5918(9)
H1 H 0.4995 0.6021 0.5346
H2 H 0.4194 0.6633 0.5846
C3 C 0.6424(10) 0.4797(9) 0.6355(10)
C4 C 0.6102(10) 0.5730(11) 0.6373(10)
H3 H 0.6366 0.6109 0.5781
H4 H 0.6357 0.5891 0.6817
C5 C 0.6685(12) 0.6601(11) 0.8673(10)
C6 C 0.6006(10) 0.5912(10) 0.9350(10)
H5 H 0.6125 0.5360 0.9142
H6 H 0.6160 0.5777 0.9940
C9 C 0.1926(11) 0.7706(11) 0.7145(11)
C10 C 0.1735(10) 0.6774(9) 0.7746(10)
H9 H 0.1049 0.6739 0.7978
H10 H 0.1973 0.6333 0.7383
C12 C 0.1709(11) 0.6919(11) 0.9300(11)
H11 H 0.1064 0.7156 0.9251
H12 H 0.2049 0.7410 0.9306
C13 C 0.8822(11) 0.6146(11) 0.5822(10)
C14 C 0.9211(11) 0.7034(10) 0.5409(10)
H13 H 0.8751 0.7492 0.5636
H14 H 0.9793 0.7034 0.5600
C17 C 0.6342(13) 0.8969(12) 0.5904(10)
C18 C 0.6082(12) 0.8285(12) 0.5489(11)
H17 H 0.6405 0.7703 0.5702
H18 H 0.5397 0.8231 0.5693
C19 C 0.5732(11) 0.9827(10) 0.3387(11)
C20 C 0.5585(10) 0.8953(11) 0.4019(11)
H19 H 0.5492 0.8541 0.3683
H20 H 0.4994 0.9013 0.4474
C21 C 0.6900(13) 0.7753(11) 0.1641(10)
C22 C 0.7595(12) 0.8486(12) 0.1365(12)
H21 H 0.7833 0.8617 0.0708
H22 H 0.7239 0.9028 0.1518
C23 C 0.3178(9) 0.6374(8) 0.8346(9)
C24 C 0.4567(9) 0.6052(9) 0.7443(9)
C25 C 0.4502(12) 0.6196(9) 0.8814(9)
C26 C 0.8699(10) 0.7703(10) 0.3996(9)
C27 C 0.7201(10) 0.8289(9) 0.4026(9)
C28 C 0.8219(12) 0.8206(10) 0.2675(11)
C29 C 0.9294(13) 0.8023(15) 0.1301(12)
H23 H 0.9293 0.7884 0.0733
H24 H 0.9602 0.7520 0.1674
C30 C 0.973(3) 0.890(2) 0.115(2)
N1 N 0.5047(8) 0.6005(8) 0.8054(8)
N2 N 0.3553(8) 0.6353(7) 0.9022(7)
N3 N 0.3612(8) 0.6238(8) 0.7527(8)
N4 N 0.5041(8) 0.5926(8) 0.6598(7)
N5 N 0.2190(8) 0.6553(8) 0.8513(8)
N6 N 0.4981(8) 0.6213(8) 0.9464(8)
N7 N 0.7870(8) 0.7914(7) 0.4482(7)
N8 N 0.7326(9) 0.8443(8) 0.3114(8)
N9 N 0.8954(8) 0.7885(10) 0.3052(8)
N10 N 0.6346(9) 0.8531(8) 0.4501(8)
N11 N 0.9424(9) 0.7266(8) 0.4402(8)
N12 N 0.8385(9) 0.8290(9) 0.1762(8)
O1 O 0.4037(7) 0.4083(7) 0.8436(7)
O2 O 0.5027(9) 0.2766(10) 0.6859(8)
O3 O 0.5915(9) 0.9246(8) 0.8489(9)
O4 O 0.4496(9) 0.7987(7) 0.7873(8)
O5 O 0.1731(10) 0.9982(8) 0.6233(9)
O6 O 0.3622(9) 0.8412(8) 0.5492(8)
O7 O 0.7284(7) 0.4695(7) 0.8102(7)
O8 O 0.9557(9) 0.5220(9) 0.8050(8)
O9 O 0.7401(7) 0.6212(7) 0.4235(6)
O10 O 0.8850(7) 0.4194(7) 0.4379(7)
O11 O 0.3089(8) 0.5599(7) 0.5786(7)
O12 O 0.4011(8) 0.4559(7) 0.6511(7)
O13 O 0.5962(8) 0.4160(7) 0.6978(8)
O14 O 0.7185(7) 0.4603(7) 0.5824(7)
O15 O 0.7556(7) 0.6299(6) 0.8465(7)
O16 O 0.6384(8) 0.7370(7) 0.8386(8)
O17 O 0.4864(9) 0.7893(7) 0.9843(7)
O19 O 0.2378(8) 0.8218(7) 0.7376(7)
O20 O 0.1680(8) 0.7927(8) 0.6407(7)
O23 O 0.8569(10) 0.5961(10) 0.6659(8)
O24 O 0.8793(9) 0.5595(8) 0.5363(7)
O25 O 0.9555(7) 0.5895(8) 0.3484(7)
O27 O 0.6297(11) 0.8731(9) 0.6747(8)
O28 O 0.6620(12) 0.9720(8) 0.5430(8)
O31 O 0.7081(8) 0.7017(7) 0.2142(8)
O32 O 0.6134(10) 0.7942(9) 0.1353(10)
O33 O 0.3771(11) 0.9252(10) 0.8997(10)
H25 H 0.3526 0.9662 0.8620
H26 H 0.3382 0.8850 0.9260
O34 O 0.1902(14) 0.9087(10) 0.4679(10)
H27 H 0.2052 0.9508 0.4205
H28 H 0.2087 0.8582 0.4544
O35 O 0.8264(9) 0.5402(9) 0.2703(8)
H29 H 0.8752 0.5684 0.2401
H30 H 0.8328 0.4887 0.2586
U12 U 0.18652(4) 0.47899(3) 0.56708(3)
O38 O 0.6911(8) 0.4401(7) 0.4214(7)
O39 O 0.5524(7) 0.2713(7) 0.8671(6)
O40 O 0.8144(8) 0.4591(7) 0.9745(6)
O41 O 0.8620(10) 0.3500(8) 0.9088(7)
O42 O 0.8943(8) 0.3883(7) 0.7192(7)
O44 O 0.3747(10) 0.9688(7) 0.6496(8)
O45 O 0.4727(10) 0.9937(8) 0.7200(10)
O46 O 0.2919(8) 0.2983(7) 0.7858(8)
O47 O 0.3866(10) 0.2058(9) 0.8647(10)
C1_2 C 0.6178(11) 0.4642(10) 0.3915(9)
C2_2 C 0.5466(11) 0.3961(11) 0.4082(9)
H1_2 H 0.5005 0.3979 0.4654
H2_2 H 0.5806 0.3367 0.4154
C3_2 C 0.3576(10) 0.5203(9) 0.3645(10)
C4_2 C 0.3898(10) 0.4270(11) 0.3627(10)
H3_2 H 0.3634 0.3891 0.4219
H4_2 H 0.3643 0.4109 0.3183
C5_2 C 0.3315(12) 0.3399(11) 0.1327(10)
C6_2 C 0.3994(10) 0.4088(10) 0.0650(10)
H5_2 H 0.3875 0.4640 0.0858
H6_2 H 0.3840 0.4223 0.0060
C9_2 C 0.8074(11) 0.2294(11) 0.2855(11)
C10_2 C 0.8265(10) 0.3226(9) 0.2254(10)
H9_2 H 0.8951 0.3261 0.2022
H10_2 H 0.8027 0.3667 0.2617
C12_2 C 0.8291(11) 0.3081(11) 0.0700(11)
H11_2 H 0.8936 0.2844 0.0749
H12_2 H 0.7951 0.2590 0.0694
C13_2 C 0.1178(11) 0.3854(11) 0.4178(10)
C14_2 C 0.0789(11) 0.2966(10) 0.4591(10)
H13_2 H 0.1249 0.2508 0.4364
H14_2 H 0.0207 0.2966 0.4400
C17_2 C 0.3658(13) 0.1031(12) 0.4096(10)
C18_2 C 0.3918(12) 0.1715(12) 0.4511(11)
H17_2 H 0.3595 0.2297 0.4298
H18_2 H 0.4603 0.1769 0.4307
C19_2 C 0.4268(11) 0.0173(10) 0.6613(11)
C20_2 C 0.4415(10) 0.1047(11) 0.5981(11)
H19_2 H 0.4508 0.1459 0.6317
H20_2 H 0.5006 0.0987 0.5526
C21_2 C 0.3100(13) 0.2247(11) 0.8359(10)
C22_2 C 0.2405(12) 0.1514(12) 0.8635(12)
H21_2 H 0.2167 0.1383 0.9292
H22_2 H 0.2761 0.0972 0.8482
C23_2 C 0.6822(9) 0.3626(8) 0.1654(9)
C24_2 C 0.5433(9) 0.3948(9) 0.2557(9)
C25_2 C 0.5498(12) 0.3804(9) 0.1186(9)
C26_2 C 0.1301(10) 0.2297(10) 0.6004(9)
C27_2 C 0.2799(10) 0.1711(9) 0.5974(9)
C28_2 C 0.1781(12) 0.1794(10) 0.7325(11)
C29_2 C 0.0706(13) 0.1977(15) 0.8699(12)
H23_2 H 0.0707 0.2116 0.9267
H24_2 H 0.0398 0.2480 0.8326
C30_2 C 0.027(3) 0.110(2) 0.885(2)
N1_2 N 0.4953(8) 0.3995(8) 0.1946(8)
N2_2 N 0.6447(8) 0.3647(7) 0.0978(7)
N3_2 N 0.6388(8) 0.3762(8) 0.2473(8)
N4_2 N 0.4959(8) 0.4074(8) 0.3402(7)
N5_2 N 0.7810(8) 0.3447(8) 0.1487(8)
N6_2 N 0.5019(8) 0.3787(8) 0.0536(8)
N7_2 N 0.2130(8) 0.2086(7) 0.5518(7)
N8_2 N 0.2674(9) 0.1557(8) 0.6886(8)
N9_2 N 0.1046(8) 0.2115(10) 0.6948(8)
N10_2 N 0.3654(9) 0.1469(8) 0.5499(8)
N11_2 N 0.0576(9) 0.2734(8) 0.5598(8)
N12_2 N 0.1615(9) 0.1710(9) 0.8238(8)
O1_2 O 0.5963(7) 0.5917(7) 0.1564(7)
O2_2 O 0.4973(9) 0.7234(10) 0.3141(8)
O3_2 O 0.4085(9) 0.0754(8) 0.1511(9)
O4_2 O 0.5504(9) 0.2013(7) 0.2127(8)
O5_2 O 0.8269(10) 0.0018(8) 0.3767(9)
O6_2 O 0.6378(9) 0.1588(8) 0.4508(8)
O7_2 O 0.2716(7) 0.5305(7) 0.1898(7)
O8_2 O 0.0443(9) 0.4780(9) 0.1950(8)
O9_2 O 0.2599(7) 0.3788(7) 0.5765(6)
O10_2 O 0.1150(7) 0.5806(7) 0.5621(7)
O12_2 O 0.5989(8) 0.5441(7) 0.3489(7)
O13_2 O 0.4038(8) 0.5840(7) 0.3022(8)
O14_2 O 0.2815(7) 0.5397(7) 0.4176(7)
O15_2 O 0.2444(7) 0.3701(6) 0.1535(7)
O16_2 O 0.3616(8) 0.2630(7) 0.1614(8)
O17_2 O 0.5136(9) 0.2107(7) 0.0157(7)
O19_2 O 0.7622(8) 0.1782(7) 0.2624(7)
O20_2 O 0.8320(8) 0.2073(8) 0.3593(7)
O23_2 O 0.1431(10) 0.4039(10) 0.3341(8)
O24_2 O 0.1207(9) 0.4405(8) 0.4637(7)
O25_2 O 0.0445(7) 0.4105(8) 0.6516(7)
O27_2 O 0.3703(11) 0.1269(9) 0.3253(8)
O33_2 O 0.6229(11) 0.0748(10) 0.1003(10)
H25_2 H 0.6474 0.0338 0.1380
H26_2 H 0.6618 0.1150 0.0740
O34_2 O 0.8098(14) 0.0913(10) 0.5321(10)
H27_2 H 0.7948 0.0492 0.5795
H28_2 H 0.7913 0.1418 0.5456
O35_2 O 0.1736(9) 0.4598(9) 0.7297(8)
H29_2 H 0.1248 0.4316 0.7599
H30_2 H 0.1672 0.5113 0.7414
C7_2 C 0.5367(11) 0.2735(10) 0.9506(10)
C8_2 C 0.5566(11) 0.3620(10) 0.9644(9)
H7_2 H 0.5401 0.4108 0.9161
H8_2 H 0.6245 0.3612 0.9602
C11_2 C 0.8334(10) 0.3796(12) 0.9818(10)
C15_2 C 0.9726(10) 0.3721(9) 0.6634(9)
C16_2 C 0.9703(10) 0.3011(10) 0.6111(10)
H15_2 H 0.9275 0.3254 0.5707
H16_2 H 0.9431 0.2487 0.6548
O36_2 O 0.9839(19) 0.0467(17) 0.8859(16)
O37_2 O 0.947(3) 0.140(3) 0.929(4)
H31_2 H 0.9476 0.1938 0.9238
O48 O 0.8263(6) 0.0801(6) 0.8452(6)
O48_2 O 0.1737(6) 0.9199(6) 0.1548(6)
loop_
_geom_bond_atom_site_label_1
_geom_bond_atom_site_label_2
_geom_bond_site_symmetry_1
_geom_bond_site_symmetry_2
C15 C16 1_555 1_555
C16 H15 1_555 1_555
H16 C16 1_555 1_555
O26 C15 1_555 1_555
H31 O37 1_555 1_555
U11 O26 1_555 1_555
U8 O30 1_555 1_555
O29 U9 1_555 1_555
C7 C8 1_555 1_555
C8 H7 1_555 1_555
H8 C8 1_555 1_555
O18 C7 1_555 1_555
O21 C11 1_555 1_555
O22 C11 1_555 1_555
U7 O18 1_555 1_555
U11 O21 1_555 1_555
O22 U11 1_555 1_555
U1 O1 1_555 1_555
U2 O3 1_555 1_555
U3 O5 1_555 1_555
U4 O7 1_555 1_555
U5 O9 1_555 1_555
C1 C2 1_555 1_555
C2 H1 1_555 1_555
H2 C2 1_555 1_555
C3 C4 1_555 1_555
C4 H3 1_555 1_555
H4 C4 1_555 1_555
C5 C6 1_555 1_555
C6 H5 1_555 1_555
H6 C6 1_555 1_555
C9 C10 1_555 1_555
C10 H9 1_555 1_555
H10 C10 1_555 1_555
C12 H11 1_555 1_555
H12 C12 1_555 1_555
C13 C14 1_555 1_555
C14 H13 1_555 1_555
H14 C14 1_555 1_555
C17 C18 1_555 1_555
C18 H17 1_555 1_555
H18 C18 1_555 1_555
C19 C20 1_555 1_555
C20 H19 1_555 1_555
H20 C20 1_555 1_555
C21 C22 1_555 1_555
C22 H21 1_555 1_555
H22 C22 1_555 1_555
C23 N2 1_555 1_555
C24 N1 1_555 1_555
C25 N1 1_555 1_555
C26 N7 1_555 1_555
C27 N7 1_555 1_555
C28 N8 1_555 1_555
C29 H23 1_555 1_555
H24 C29 1_555 1_555
C30 C29 1_555 1_555
N2 C25 1_555 1_555
N3 C23 1_555 1_555
N4 C2 1_555 1_555
N5 C10 1_555 1_555
N6 C6 1_555 1_555
N8 C27 1_555 1_555
N9 C26 1_555 1_555
N10 C18 1_555 1_555
N11 C14 1_555 1_555
N12 C22 1_555 1_555
O2 U1 1_555 1_555
O4 U2 1_555 1_555
O6 U3 1_555 1_555
O8 U4 1_555 1_555
O10 U5 1_555 1_555
O11 C1 1_555 1_555
O12 U1 1_555 1_555
O13 U1 1_555 1_555
O14 U5 1_555 1_555
O15 U4 1_555 1_555
O16 U2 1_555 1_555
O17 U2 1_555 1_555
O19 U3 1_555 1_555
O20 U3 1_555 1_555
O23 U4 1_555 1_555
O24 U5 1_555 1_555
O25 U5 1_555 1_555
O27 U2 1_555 1_555
O28 C17 1_555 1_555
O31 C21 1_555 1_555
O32 C21 1_555 1_555
O33 U2 1_555 1_555
H25 O33 1_555 1_555
H26 O33 1_555 1_555
O34 U3 1_555 1_555
H27 O34 1_555 1_555
H28 O34 1_555 1_555
O35 U5 1_555 1_555
H29 O35 1_555 1_555
H30 O35 1_555 1_555
U7 O31 1_555 1_555
U12 O11 1_555 1_555
O38 U5 1_555 1_555
O39 U1 1_555 1_555
O40 U4 1_555 1_555
O41 U4 1_555 1_555
O42 U4 1_555 1_555
O44 U3 1_555 1_555
O45 U2 1_555 1_555
O46 U1 1_555 1_555
O47 U1 1_555 1_555
C1 O12 1_555 1_555
C3 O13 1_555 1_555
C3 O14 1_555 1_555
C4 N4 1_555 1_555
C5 O15 1_555 1_555
C5 O16 1_555 1_555
C9 O19 1_555 1_555
C9 O20 1_555 1_555
C12 N5 1_555 1_555
C13 O23 1_555 1_555
C13 O24 1_555 1_555
C17 O27 1_555 1_555
C20 N10 1_555 1_555
C23 N5 1_555 1_555
C24 N3 1_555 1_555
C24 N4 1_555 1_555
C25 N6 1_555 1_555
C26 N11 1_555 1_555
C27 N10 1_555 1_555
C28 N9 1_555 1_555
C28 N12 1_555 1_555
C29 N12 1_555 1_555
O32 U7 1_555 1_555
U7 O1_2 1_555 1_555
U8 O3_2 1_555 1_555
U9 O5_2 1_555 1_555
U11 O7_2 1_555 1_555
U12 O9_2 1_555 1_555
C1_2 C2_2 1_555 1_555
C2_2 H1_2 1_555 1_555
H2_2 C2_2 1_555 1_555
C3_2 C4_2 1_555 1_555
C4_2 H3_2 1_555 1_555
H4_2 C4_2 1_555 1_555
C5_2 C6_2 1_555 1_555
C6_2 H5_2 1_555 1_555
H6_2 C6_2 1_555 1_555
C9_2 C10_2 1_555 1_555
C10_2 H9_2 1_555 1_555
H10_2 C10_2 1_555 1_555
C12_2 H11_2 1_555 1_555
H12_2 C12_2 1_555 1_555
C13_2 C14_2 1_555 1_555
C14_2 H13_2 1_555 1_555
H14_2 C14_2 1_555 1_555
C17_2 C18_2 1_555 1_555
C18_2 H17_2 1_555 1_555
H18_2 C18_2 1_555 1_555
C19_2 C20_2 1_555 1_555
C20_2 H19_2 1_555 1_555
H20_2 C20_2 1_555 1_555
C21_2 C22_2 1_555 1_555
C22_2 H21_2 1_555 1_555
H22_2 C22_2 1_555 1_555
C23_2 N2_2 1_555 1_555
C24_2 N1_2 1_555 1_555
C25_2 N1_2 1_555 1_555
C26_2 N7_2 1_555 1_555
C27_2 N7_2 1_555 1_555
C28_2 N8_2 1_555 1_555
C29_2 H23_2 1_555 1_555
H24_2 C29_2 1_555 1_555
C30_2 C29_2 1_555 1_555
N2_2 C25_2 1_555 1_555
N3_2 C23_2 1_555 1_555
N4_2 C2_2 1_555 1_555
N5_2 C10_2 1_555 1_555
N6_2 C6_2 1_555 1_555
N8_2 C27_2 1_555 1_555
N9_2 C26_2 1_555 1_555
N10_2 C18_2 1_555 1_555
N11_2 C14_2 1_555 1_555
N12_2 C22_2 1_555 1_555
O2_2 U7 1_555 1_555
O4_2 U8 1_555 1_555
O6_2 U9 1_555 1_555
O8_2 U11 1_555 1_555
O10_2 U12 1_555 1_555
O38 C1_2 1_555 1_555
O12_2 U7 1_555 1_555
O13_2 U7 1_555 1_555
O14_2 U12 1_555 1_555
O15_2 U11 1_555 1_555
O16_2 U8 1_555 1_555
O17_2 U8 1_555 1_555
O19_2 U9 1_555 1_555
O20_2 U9 1_555 1_555
O23_2 U11 1_555 1_555
O24_2 U12 1_555 1_555
O25_2 U12 1_555 1_555
O27_2 U8 1_555 1_555
O43 C17_2 1_555 1_555
O46 C21_2 1_555 1_555
O47 C21_2 1_555 1_555
O33_2 U8 1_555 1_555
H25_2 O33_2 1_555 1_555
H26_2 O33_2 1_555 1_555
O34_2 U9 1_555 1_555
H27_2 O34_2 1_555 1_555
H28_2 O34_2 1_555 1_555
O35_2 U12 1_555 1_555
H29_2 O35_2 1_555 1_555
H30_2 O35_2 1_555 1_555
C1_2 O12_2 1_555 1_555
C3_2 O13_2 1_555 1_555
C3_2 O14_2 1_555 1_555
C4_2 N4_2 1_555 1_555
C5_2 O15_2 1_555 1_555
C5_2 O16_2 1_555 1_555
C9_2 O19_2 1_555 1_555
C9_2 O20_2 1_555 1_555
C12_2 N5_2 1_555 1_555
C13_2 O23_2 1_555 1_555
C13_2 O24_2 1_555 1_555
C17_2 O27_2 1_555 1_555
C20_2 N10_2 1_555 1_555
C23_2 N5_2 1_555 1_555
C24_2 N3_2 1_555 1_555
C24_2 N4_2 1_555 1_555
C25_2 N6_2 1_555 1_555
C26_2 N11_2 1_555 1_555
C27_2 N10_2 1_555 1_555
C28_2 N9_2 1_555 1_555
C28_2 N12_2 1_555 1_555
C29_2 N12_2 1_555 1_555
C7_2 C8_2 1_555 1_555
C8_2 H7_2 1_555 1_555
H8_2 C8_2 1_555 1_555
O39 C7_2 1_555 1_555
O40 C11_2 1_555 1_555
O41 C11_2 1_555 1_555
C15_2 C16_2 1_555 1_555
C16_2 H15_2 1_555 1_555
H16_2 C16_2 1_555 1_555
O42 C15_2 1_555 1_555
H31_2 O37_2 1_555 1_555

#END
