
###############################################################################
#
# This file contains modified crystal structure data generated from the
# MOF subset of the Cambridge Structural Database (CSD) v543 
# hosted by the Cambridge Crystallographic Data Centre (CCDC).
#
# This work is licensed under the Creative Commons
# Attribution-NonCommercial-ShareAlike 4.0 International License.
# To view a copy of this license, visit
# http://creativecommons.org/licenses/by-nc-sa/4.0/
# or send a letter to
# Creative Commons, PO Box 1866, Mountain View, CA 94042, USA.
#
# CIF created using the CSD Python API on 29 September 2022
# The structure has been converted into the P1 space group
# The structure has a 3D framework
# The original CSD entry QUSSOO is in the triclinic crystal system
# The framework has been calculated to contain at least 10.0% void space
# The void calculation uses a probe of radius 1.32A, grid spacing 0.4
# The framework is charged, counterions have been retained in the structure
# H atom positions have been added when not included in the experimental data
#
###############################################################################

data_QUSSOO
_chemical_formula_moiety         '(C130 H98 N8 O44 Zn10)n'
_symmetry_cell_setting           triclinic
_symmetry_space_group_name_H-M   'P 1'
_symmetry_Int_Tables_number      1
_space_group_name_Hall           'P 1'
loop_
_symmetry_equiv_pos_site_id
_symmetry_equiv_pos_as_xyz
1 x,y,z
_cell_length_a                   11.092(1)
_cell_length_b                   12.199(2)
_cell_length_c                   28.767(5)
_cell_angle_alpha                97.64(1)
_cell_angle_beta                 92.01(1)
_cell_angle_gamma                115.936(9)
_cell_volume                     3450.36
loop_
_atom_site_label
_atom_site_type_symbol
_atom_site_fract_x
_atom_site_fract_y
_atom_site_fract_z
Zn22 Zn 0.00078(4) 0.28460(4) 0.164843(17)
C108 C 0.0210(5) 0.5195(5) 0.37402(17)
H76 H 0.0033 0.347 0.3634
C111 C 0.1686(5) 0.5828(6) 0.3650(2)
O32 O 0.2270(4) 0.5163(4) 0.35422(14)
O33 O 0.2264(4) 0.6981(4) 0.36945(17)
Zn24 Zn 0.41389(5) 0.69131(4) 0.352302(18)
C78 C 0.7297(5) 0.0532(5) 0.1476(2)
H54 H 0.7844 0.0167 0.1549
C80 C 0.5092(4) 0.0339(4) 0.13086(17)
C81 C 0.5677(5) 0.1541(5) 0.1238(2)
H56 H 0.5146 0.1905 0.1144
C82 C 0.7067(4) 0.2212(5) 0.1307(2)
H57 H 0.7451 0.3036 0.1267
H60 H 0.3008 0.0154 0.0729
N6 N 0.7882(3) 0.1728(4) 0.14280(15)
C62 C 0.1395(5) 0.0768(5) 0.00852(16)
H38 H 0.2317 0.1279 0.0142
C74 C 0.1109(5) 0.1581(4) 0.09012(15)
C75 C 0.0535(4) 0.0795(4) 0.04256(15)
O28 O 0.2372(3) 0.2279(3) 0.09603(11)
O29 O 0.0331(3) 0.1485(3) 0.12156(10)
Zn11 Zn 0.31560(4) 0.31142(4) 0.160107(17)
H44 H 0.0665 0.0045 0.7377
H46 H 0.208 0.0103 0.7504
H68 H 0.1925 0.979 0.4211
C99 C 0.0003(7) 0.9567(8) 0.4205(3)
H83 H 0.0583 0.7301 0.2711
O40 O 0.1064(3) 0.5852(3) 0.21106(11)
Zn16 Zn 0.25980(5) 0.56129(5) 0.178605(17)
C58 C 0.1144(4) 0.5955(4) 0.02636(16)
H36 H 0.191 0.659 0.0438
C70 C 0.0874(4) 0.4726(4) 0.09249(15)
C71 C 0.0422(4) 0.4858(4) 0.04419(15)
O26 O 0.1910(3) 0.5622(3) 0.11458(10)
O27 O 0.0169(3) 0.3748(3) 0.10720(12)
C57 C 0.0709(5) 0.6088(5) 0.98242(16)
H35 H 0.1183 0.6819 0.9708
C61 C 0.0846(5) 0.9963(5) 0.96609(16)
H37 H 0.1408 0.9931 0.9432
C64 C 0.0571(8) 0.8347(6) 0.7393(2)
H43 H 0.1201 0.7991 0.7367
C65 C 0.1243(14) 0.9659(10) 0.7306(5)
H45 H 0.1413 0.9669 0.6981
O23 O 0.0131(3) 0.8326(3) 0.78531(10)
N9 N 0.2118(3) 0.8272(4) 0.85720(15)
O53 O 0.0541(3) 0.6071(3) 0.78973(13)
C88 C 0.9424(4) 0.7527(4) 0.13182(18)
C89 C 0.8679(12) 0.6437(12) 0.1016(6)
H62 H 0.9062 0.6194 0.0765
C90 C 0.7349(15) 0.5698(14) 0.1086(7)
H63 H 0.6885 0.4911 0.091
C91 C 0.6748(4) 0.6102(4) 0.1397(2)
C92 C 0.7417(16) 0.7300(17) 0.1661(9)
H64 H 0.6942 0.7632 0.1843
C93 C 0.8781(15) 0.7976(14) 0.1647(9)
H65 H 0.9266 0.8718 0.1851
C94 C 0.5278(5) 0.5296(5) 0.1470(2)
C95 C 0.9778(7) 0.1330(7) 0.4198(3)
H66 H 0.9243 0.1739 0.4243
C112 C 0.2873(5) 0.1333(4) 0.22272(18)
C113 C 0.3605(4) 0.0953(4) 0.25742(16)
C114 C 0.5005(4) 0.1490(4) 0.26218(17)
H78 H 0.5487 0.2098 0.2446
C115 C 0.5685(4) 0.1121(4) 0.29309(17)
H79 H 0.6622 0.1484 0.2962
C116 C 0.4970(4) 0.0205(4) 0.31973(16)
C118 C 0.2882(4) 0.0057(4) 0.28436(18)
N7 N 0.9209(4) 0.0088(4) 0.41623(18)
O30 O 0.4976(3) 0.4232(3) 0.14987(17)
O31 O 0.4458(4) 0.5742(4) 0.1439(2)
O34 O 0.3619(3) 0.2189(3) 0.20119(12)
O35 O 0.1622(4) 0.0767(3) 0.21590(17)
O36 O 0.6969(3) 0.0436(3) 0.36231(13)
O42 O 0.2097(3) 0.3902(3) 0.18940(9)
H87 H 0.2202 0.4022 0.2233
O45 O 0.6768(6) 0.0017(5) 0.46417(19)
H89 H 0.0194 0.214 0.2842
H94 H 0.0448 0.1202 0.2151
O60 O 0.4018(3) 0.7219(3) 0.21022(12)
C76 C 0.9154(5) 0.0037(5) 0.03391(16)
H52 H 0.8592 0.0069 0.0568
H16 H 0.0367 0.1251 0.5748
C40 C 0.6435(4) 0.0334(4) 0.68479(17)
H27 H 0.6917 0.0949 0.6675
H28 H 0.8053 0.0282 0.7181
C42 C 0.4266(5) 0.0205(4) 0.64818(16)
C43 C 0.3310(5) 0.3020(4) 0.67358(18)
C44 C 0.2492(5) 0.3519(4) 0.70183(18)
C45 C 0.1123(5) 0.2765(4) 0.70376(17)
H29 H 0.0737 0.1951 0.6884
C46 C 0.0328(4) 0.3210(4) 0.72820(16)
C47 C 0.0905(4) 0.4426(4) 0.75163(17)
C48 C 0.2265(5) 0.5180(5) 0.7502(2)
H31 H 0.2649 0.5996 0.7654
C49 C 0.3050(5) 0.4730(4) 0.7263(2)
H32 H 0.3966 0.5238 0.7264
C50 C 0.0051(4) 0.4919(4) 0.77873(16)
C51 C 0.4414(5) 0.3102(5) 0.55788(18)
C52 C 0.4696(5) 0.4079(4) 0.52741(15)
C53 C 0.6037(5) 0.4805(5) 0.52013(16)
H33 H 0.6725 0.4667 0.5333
C54 C 0.6333(5) 0.5735(5) 0.49304(15)
H34 H 0.7223 0.6233 0.4886
C63 C 0.5712(5) 0.2605(4) 0.74579(17)
H39 H 0.4962 0.188 0.7325
O8 O 0.4883(3) 0.1188(3) 0.63173(12)
O9 O 0.2752(4) 0.1889(3) 0.65713(13)
O10 O 0.4493(3) 0.3774(3) 0.66720(12)
O13 O 0.3202(4) 0.2384(4) 0.56086(15)
O14 O 0.5420(4) 0.3063(4) 0.57820(12)
O20 O 0.6328(3) 0.3282(3) 0.71913(11)
O21 O 0.5982(3) 0.2781(3) 0.78978(12)
H41 H 0.4208 0.0056 0.5248
Zn4 Zn 0.29018(5) 0.09178(5) 0.59387(2)
Zn5 Zn 0.58611(5) 0.30869(4) 0.647698(18)
C66 C 0.5586(5) 0.6898(5) 0.44212(18)
C67 C 0.5304(5) 0.5921(4) 0.47259(15)
C68 C 0.3963(5) 0.5195(5) 0.47987(16)
H48 H 0.3275 0.5333 0.4667
C69 C 0.3667(5) 0.4265(5) 0.50696(15)
H49 H 0.2777 0.3767 0.5114
O24 O 0.6798(4) 0.7616(4) 0.43914(15)
O25 O 0.4580(4) 0.6937(4) 0.42180(12)
H69 H 0.9633 0.8749 0.4252
C117 C 0.3565(4) 0.9666(4) 0.31521(17)
H80 H 0.3083 0.9051 0.3325
H81 H 0.1947 0.9718 0.2819
C119 C 0.5734(5) 0.9795(4) 0.35182(16)
C120 C 0.6690(5) 0.6980(4) 0.32642(18)
C121 C 0.7508(5) 0.6481(4) 0.29817(18)
C122 C 0.8877(5) 0.7235(4) 0.29624(17)
H82 H 0.9263 0.8049 0.3116
C123 C 0.9672(4) 0.6790(4) 0.27180(16)
C124 C 0.9095(4) 0.5574(4) 0.24837(17)
C125 C 0.7735(5) 0.4820(5) 0.2498(2)
H84 H 0.7351 0.4004 0.2346
C126 C 0.6950(5) 0.5270(4) 0.2737(2)
H85 H 0.6034 0.4762 0.2736
C127 C 0.9949(4) 0.5081(4) 0.22127(16)
C128 C 0.4288(5) 0.7395(4) 0.25421(17)
H86 H 0.5038 0.812 0.2675
O37 O 0.5117(3) 0.8812(3) 0.36827(12)
O38 O 0.7248(4) 0.8111(3) 0.34287(13)
O39 O 0.5507(3) 0.6226(3) 0.33280(12)
O41 O 0.9459(3) 0.3929(3) 0.21027(13)
O43 O 0.3672(3) 0.6718(3) 0.28087(11)
H88 H 0.5792 0.9944 0.4752
Zn9 Zn 0.70982(5) 0.90822(5) 0.40613(2)
O47 O 0.7730(4) 0.4837(4) 0.64578(14)
O49 O 0.7736(4) 0.3019(4) 0.63055(17)
Zn13 Zn 0.74020(5) 0.43871(5) 0.821395(17)
H96 H 0.717913 0.982154 0.491136
C72 C 0.9291(5) 0.3912(5) 0.01758(16)
H50 H 0.8817 0.3181 0.0292
C11 C 0.0576(4) 0.2473(4) 0.86818(18)
C12 C 0.1321(12) 0.3563(12) 0.8984(6)
H9 H 0.0938 0.3806 0.9235
C13 C 0.2651(15) 0.4302(14) 0.8914(7)
H10 H 0.3115 0.5089 0.909
C14 C 0.3252(4) 0.3898(4) 0.8603(2)
C15 C 0.2583(16) 0.2700(17) 0.8339(9)
H11 H 0.3058 0.2368 0.8157
C16 C 0.1219(15) 0.2024(14) 0.8353(9)
H12 H 0.0734 0.1282 0.8149
C17 C 0.4722(5) 0.4704(5) 0.8530(2)
C18 C 0.0222(7) 0.8670(7) 0.5802(3)
H13 H 0.0757 0.8261 0.5757
C35 C 0.7127(5) 0.8667(4) 0.77728(18)
C36 C 0.6395(4) 0.9047(4) 0.74258(16)
C37 C 0.4995(4) 0.8510(4) 0.73782(17)
H25 H 0.4513 0.7902 0.7554
C38 C 0.4315(4) 0.8879(4) 0.70691(17)
H26 H 0.3378 0.8516 0.7038
C39 C 0.5030(4) 0.9795(4) 0.68027(16)
C41 C 0.7118(4) 0.9943(4) 0.71564(18)
C55 C 0.9126(4) 0.5274(4) 0.90751(15)
C56 C 0.9578(4) 0.5142(4) 0.95581(15)
C59 C 0.8891(5) 0.8419(4) 0.90988(15)
C60 C 0.9465(4) 0.9205(4) 0.95744(15)
N3 N 0.0791(4) 0.9912(4) 0.58377(18)
O1 O 0.5024(3) 0.5768(3) 0.85013(17)
O2 O 0.5542(4) 0.4258(4) 0.8561(2)
O5 O 0.6381(3) 0.7811(3) 0.79881(12)
O6 O 0.8378(4) 0.9233(3) 0.78410(17)
O7 O 0.3031(3) 0.9564(3) 0.63769(13)
O15 O 0.8090(3) 0.4378(3) 0.88542(10)
O16 O 0.9831(3) 0.6252(3) 0.89280(12)
O17 O 0.7628(3) 0.7721(3) 0.90397(11)
O18 O 0.9669(3) 0.8515(3) 0.87844(10)
O19 O 0.7903(3) 0.6098(3) 0.81060(9)
H40 H 0.7798 0.5978 0.7767
O22 O 0.3232(6) 0.9983(5) 0.53583(19)
Zn1 Zn 0.68440(4) 0.68858(4) 0.839893(17)
Zn3 Zn 0.99922(4) 0.71540(4) 0.835157(17)
H42 H 0.9806 0.786 0.7158
H47 H 0.9552 0.8798 0.7849
C73 C 0.8856(4) 0.4045(4) 0.97364(16)
H51 H 0.809 0.341 0.9562
C77 C 0.8605(5) 0.9232(5) 0.99148(16)
H53 H 0.7683 0.8721 0.9858
O51 O 0.8936(3) 0.4148(3) 0.78894(11)
H95 H 0.270163 0.909775 0.538379
C129 C 0.9429(8) 0.1653(6) 0.2607(2)
H90 H 0.8799 0.2009 0.2633
C130 C 0.8757(14) 0.0341(10) 0.2694(5)
H92 H 0.8587 0.0331 0.3019
O46 O 0.9869(3) 0.1674(3) 0.21469(10)
H15 H 0.8075 0.021 0.5789
C22 C 0.9997(7) 0.0433(8) 0.5795(3)
H30 H 0.9417 0.2699 0.7289
H91 H 0.9335 0.9955 0.2623
H93 H 0.792 0.9897 0.2496
C1 C 0.2703(5) 0.9468(5) 0.8524(2)
H1 H 0.2156 0.9833 0.8451
C3 C 0.4908(4) 0.9661(4) 0.86914(17)
C4 C 0.4323(5) 0.8459(5) 0.8762(2)
H3 H 0.4854 0.8095 0.8856
C5 C 0.2933(4) 0.7788(5) 0.8693(2)
H4 H 0.2549 0.6964 0.8733
H7 H 0.6992 0.9846 0.9271
C31 C 0.9790(5) 0.4805(5) 0.62598(17)
H23 H 0.9967 0.653 0.6366
C34 C 0.8314(5) 0.4172(6) 0.6350(2)
H95_2 H 0.729837 0.0902252 0.461621
H96_2 H 0.282087 0.0178464 0.508864
C79 C 0.5926(5) 0.9825(5) 0.1421(2)
H55 H 0.5561 0.9001 0.146
C83 C 0.3607(4) 0.9601(4) 0.12913(17)
C84 C 0.3078(4) 0.8850(4) 0.16192(19)
H58 H 0.3657 0.8796 0.1847
C85 C 0.1711(5) 0.8175(4) 0.16194(18)
H59 H 0.1374 0.7666 0.1844
C86 C 0.2695(5) 0.9648(6) 0.0956(2)
C87 C 0.1334(5) 0.8947(6) 0.0963(2)
H61 H 0.0729 0.8957 0.0734
C96 C 0.1146(6) 0.2006(6) 0.4168(3)
H67 H 0.1512 0.2857 0.4178
C97 C 0.1973(4) 0.1416(5) 0.41232(18)
C98 C 0.1391(6) 0.0196(7) 0.4184(3)
C100 C 0.3441(4) 0.2123(4) 0.40854(17)
C101 C 0.3898(5) 0.3081(5) 0.38227(19)
H70 H 0.3288 0.3295 0.3678
C102 C 0.5249(5) 0.3709(5) 0.37770(19)
H71 H 0.5547 0.4345 0.36
C103 C 0.5728(4) 0.2509(5) 0.42456(17)
H72 H 0.6359 0.2325 0.4394
C104 C 0.4380(4) 0.1845(5) 0.42975(18)
H73 H 0.4107 0.121 0.4476
C105 C 0.7569(4) 0.4051(4) 0.39091(15)
C106 C 0.8176(5) 0.5313(5) 0.39362(18)
H74 H 0.7702 0.5771 0.4007
C107 C 0.9528(5) 0.5886(5) 0.38535(19)
H75 H 0.9971 0.674 0.3875
C109 C 0.9570(5) 0.3935(5) 0.37111(19)
C110 C 0.8227(5) 0.3356(5) 0.37964(19)
H77 H 0.7784 0.2502 0.3776
N5 N 0.0873(3) 0.8248(3) 0.13005(14)
N8 N 0.6142(3) 0.3415(3) 0.39852(13)
C2 C 0.4074(5) 0.0175(5) 0.8579(2)
H2 H 0.4439 0.0999 0.854
C6 C 0.6393(4) 0.0399(4) 0.87087(17)
C7 C 0.6922(4) 0.1150(4) 0.83808(19)
H5 H 0.6343 0.1204 0.8153
C8 C 0.8289(5) 0.1825(4) 0.83806(18)
H6 H 0.8626 0.2334 0.8156
C9 C 0.7305(5) 0.0352(6) 0.9044(2)
C10 C 0.8666(5) 0.1053(6) 0.9037(2)
H8 H 0.9271 0.1043 0.9266
C19 C 0.8854(6) 0.7994(6) 0.5832(3)
H14 H 0.8488 0.7143 0.5822
C20 C 0.8027(4) 0.8584(5) 0.58768(18)
C21 C 0.8609(6) 0.9804(7) 0.5816(3)
C23 C 0.6559(4) 0.7877(4) 0.59146(17)
C24 C 0.6102(5) 0.6919(5) 0.61773(19)
H17 H 0.6712 0.6705 0.6322
C25 C 0.4751(5) 0.6291(5) 0.62230(19)
H18 H 0.4453 0.5655 0.64
C26 C 0.4272(4) 0.7491(5) 0.57544(17)
H19 H 0.3641 0.7675 0.5606
C27 C 0.5620(4) 0.8155(5) 0.57025(18)
H20 H 0.5893 0.879 0.5524
C28 C 0.2431(4) 0.5949(4) 0.60909(15)
C29 C 0.1824(5) 0.4687(5) 0.60638(18)
H21 H 0.2298 0.4229 0.5993
C30 C 0.0472(5) 0.4114(5) 0.61465(19)
H22 H 0.0029 0.326 0.6125
C32 C 0.0430(5) 0.6065(5) 0.62889(19)
C33 C 0.1773(5) 0.6644(5) 0.62036(19)
H24 H 0.2216 0.7498 0.6224
N1 N 0.9127(3) 0.1752(3) 0.86995(14)
N4 N 0.3858(3) 0.6585(3) 0.60148(13)
loop_
_geom_bond_atom_site_label_1
_geom_bond_atom_site_label_2
_geom_bond_site_symmetry_1
_geom_bond_site_symmetry_2
C111 C108 1_555 1_555
O32 C111 1_555 1_555
O33 C111 1_555 1_555
Zn24 O32 1_555 1_555
O33 Zn24 1_555 1_555
C78 H54 1_555 1_555
C81 C80 1_555 1_555
H56 C81 1_555 1_555
C82 C81 1_555 1_555
H57 C82 1_555 1_555
N6 C78 1_555 1_555
C82 N6 1_555 1_555
H38 C62 1_555 1_555
C74 C75 1_555 1_555
C75 C62 1_555 1_555
O28 C74 1_555 1_555
O29 C74 1_555 1_555
Zn11 O28 1_555 1_555
Zn22 O29 1_555 1_555
Zn16 O40 1_555 1_555
H36 C58 1_555 1_555
C70 C71 1_555 1_555
C71 C58 1_555 1_555
O26 C70 1_555 1_555
O27 C70 1_555 1_555
Zn16 O26 1_555 1_555
Zn22 O27 1_555 1_555
C57 H35 1_555 1_555
C61 H37 1_555 1_555
H43 C64 1_555 1_555
C65 C64 1_555 1_555
H45 C65 1_555 1_555
C64 O23 1_555 1_555
C88 C89 1_555 1_555
C89 H62 1_555 1_555
C90 C89 1_555 1_555
H63 C90 1_555 1_555
C91 C90 1_555 1_555
C92 C91 1_555 1_555
H64 C92 1_555 1_555
C93 C88 1_555 1_555
H65 C93 1_555 1_555
C94 C91 1_555 1_555
C95 H66 1_555 1_555
C112 C113 1_555 1_555
C113 C114 1_555 1_555
C114 H78 1_555 1_555
C115 C114 1_555 1_555
H79 C115 1_555 1_555
C116 C115 1_555 1_555
C118 C113 1_555 1_555
N7 C95 1_555 1_555
O30 C94 1_555 1_555
O31 C94 1_555 1_555
O34 C112 1_555 1_555
O35 C112 1_555 1_555
O42 H87 1_555 1_555
Zn11 O30 1_555 1_555
Zn16 O31 1_555 1_555
Zn22 O42 1_555 1_555
O60 Zn16 1_555 1_555
C92 C93 1_555 1_555
O34 Zn11 1_555 1_555
O42 Zn11 1_555 1_555
O42 Zn16 1_555 1_555
H52 C76 1_555 1_555
H27 C40 1_555 1_555
C43 C44 1_555 1_555
C44 C45 1_555 1_555
C45 H29 1_555 1_555
C46 C45 1_555 1_555
C47 C46 1_555 1_555
C48 C47 1_555 1_555
H31 C48 1_555 1_555
C49 C44 1_555 1_555
H32 C49 1_555 1_555
C50 C47 1_555 1_555
C51 C52 1_555 1_555
C52 C53 1_555 1_555
C53 H33 1_555 1_555
C54 C53 1_555 1_555
H34 C54 1_555 1_555
C63 H39 1_555 1_555
O8 C42 1_555 1_555
O9 C43 1_555 1_555
O10 C43 1_555 1_555
O53 C50 1_555 1_555
O13 C51 1_555 1_555
O14 C51 1_555 1_555
O20 C63 1_555 1_555
O21 C63 1_555 1_555
Zn5 O8 1_555 1_555
C66 C67 1_555 1_555
C67 C54 1_555 1_555
C68 C67 1_555 1_555
H48 C68 1_555 1_555
C69 C52 1_555 1_555
H49 C69 1_555 1_555
O24 C66 1_555 1_555
O25 C66 1_555 1_555
H80 C117 1_555 1_555
C120 C121 1_555 1_555
C121 C122 1_555 1_555
C122 H82 1_555 1_555
C123 C122 1_555 1_555
C124 C123 1_555 1_555
C125 C124 1_555 1_555
H84 C125 1_555 1_555
C126 C121 1_555 1_555
H85 C126 1_555 1_555
C127 C124 1_555 1_555
C128 H86 1_555 1_555
O37 C119 1_555 1_555
O38 C120 1_555 1_555
O39 C120 1_555 1_555
O41 C127 1_555 1_555
O43 C128 1_555 1_555
O60 C128 1_555 1_555
Zn9 O24 1_555 1_555
Zn24 O25 1_555 1_555
O47 Zn5 1_555 1_555
O49 Zn5 1_555 1_555
Zn13 O21 1_555 1_555
C48 C49 1_555 1_555
O8 Zn4 1_555 1_555
O9 Zn4 1_555 1_555
O10 Zn5 1_555 1_555
O13 Zn4 1_555 1_555
O14 Zn5 1_555 1_555
O20 Zn5 1_555 1_555
C68 C69 1_555 1_555
C125 C126 1_555 1_555
O37 Zn9 1_555 1_555
O37 Zn24 1_555 1_555
O38 Zn9 1_555 1_555
O39 Zn24 1_555 1_555
O43 Zn24 1_555 1_555
H50 C72 1_555 1_555
C11 C12 1_555 1_555
C12 H9 1_555 1_555
C13 C12 1_555 1_555
H10 C13 1_555 1_555
C14 C13 1_555 1_555
C15 C14 1_555 1_555
H11 C15 1_555 1_555
C16 C11 1_555 1_555
H12 C16 1_555 1_555
C17 C14 1_555 1_555
C18 H13 1_555 1_555
C35 C36 1_555 1_555
C36 C37 1_555 1_555
C37 H25 1_555 1_555
C38 C37 1_555 1_555
H26 C38 1_555 1_555
C39 C38 1_555 1_555
C41 C36 1_555 1_555
C55 C56 1_555 1_555
C59 C60 1_555 1_555
N3 C18 1_555 1_555
O1 C17 1_555 1_555
O2 C17 1_555 1_555
O5 C35 1_555 1_555
O6 C35 1_555 1_555
O15 C55 1_555 1_555
O16 C55 1_555 1_555
O17 C59 1_555 1_555
O18 C59 1_555 1_555
O19 H40 1_555 1_555
Zn1 O1 1_555 1_555
Zn13 O2 1_555 1_555
Zn3 O16 1_555 1_555
C73 C56 1_555 1_555
H51 C73 1_555 1_555
C77 C60 1_555 1_555
H53 C77 1_555 1_555
O51 Zn13 1_555 1_555
C15 C16 1_555 1_555
O5 Zn1 1_555 1_555
O15 Zn13 1_555 1_555
O17 Zn1 1_555 1_555
O18 Zn3 1_555 1_555
O19 Zn1 1_555 1_555
O19 Zn13 1_555 1_555
O19 Zn3 1_555 1_555
O22 H95 1_555 1_555
H90 C129 1_555 1_555
C130 C129 1_555 1_555
H92 C130 1_555 1_555
C129 O46 1_555 1_555
C1 H1 1_555 1_555
C4 C3 1_555 1_555
H3 C4 1_555 1_555
C5 C4 1_555 1_555
H4 C5 1_555 1_555
N9 C1 1_555 1_555
C5 N9 1_555 1_555
C34 C31 1_555 1_555
O47 C34 1_555 1_555
O49 C34 1_555 1_555
O45 H95_2 1_555 1_555
H55 C79 1_555 1_555
C84 C83 1_555 1_555
H58 C84 1_555 1_555
C85 C84 1_555 1_555
H59 C85 1_555 1_555
C86 C83 1_555 1_555
C87 C86 1_555 1_555
H61 C87 1_555 1_555
H67 C96 1_555 1_555
C97 C96 1_555 1_555
C98 C97 1_555 1_555
C100 C97 1_555 1_555
C101 C100 1_555 1_555
H70 C101 1_555 1_555
C102 C101 1_555 1_555
H71 C102 1_555 1_555
C103 H72 1_555 1_555
C104 C100 1_555 1_555
H73 C104 1_555 1_555
C105 C106 1_555 1_555
C106 H74 1_555 1_555
C107 C106 1_555 1_555
H75 C107 1_555 1_555
C110 C105 1_555 1_555
H77 C110 1_555 1_555
N5 C85 1_555 1_555
N8 C102 1_555 1_555
C87 N5 1_555 1_555
C103 C104 1_555 1_555
C103 N8 1_555 1_555
C105 N8 1_555 1_555
C109 C110 1_555 1_555
H2 C2 1_555 1_555
C7 C6 1_555 1_555
H5 C7 1_555 1_555
C8 C7 1_555 1_555
H6 C8 1_555 1_555
C9 C6 1_555 1_555
C10 C9 1_555 1_555
H8 C10 1_555 1_555
H14 C19 1_555 1_555
C20 C19 1_555 1_555
C21 C20 1_555 1_555
C23 C20 1_555 1_555
C24 C23 1_555 1_555
H17 C24 1_555 1_555
C25 C24 1_555 1_555
H18 C25 1_555 1_555
C26 H19 1_555 1_555
C27 C23 1_555 1_555
H20 C27 1_555 1_555
C28 C29 1_555 1_555
C29 H21 1_555 1_555
C30 C29 1_555 1_555
H22 C30 1_555 1_555
C33 C28 1_555 1_555
H24 C33 1_555 1_555
N1 C8 1_555 1_555
N4 C25 1_555 1_555
C10 N1 1_555 1_555
C26 C27 1_555 1_555
C26 N4 1_555 1_555
C28 N4 1_555 1_555
C32 C33 1_555 1_555

#END
