
###############################################################################
#
# This file contains modified crystal structure data generated from the
# MOF subset of the Cambridge Structural Database (CSD) v543 
# hosted by the Cambridge Crystallographic Data Centre (CCDC).
#
# This work is licensed under the Creative Commons
# Attribution-NonCommercial-ShareAlike 4.0 International License.
# To view a copy of this license, visit
# http://creativecommons.org/licenses/by-nc-sa/4.0/
# or send a letter to
# Creative Commons, PO Box 1866, Mountain View, CA 94042, USA.
#
# CIF created using the CSD Python API on 29 September 2022
# The structure has been converted into the P1 space group
# The structure has a 3D framework
# The original CSD entry QUSSAB is in the rhombohedral crystal system
# The framework has been calculated to contain at least 10.0% void space
# The void calculation uses a probe of radius 1.32A, grid spacing 0.4
# H atom positions have been added when not included in the experimental data
# Generated hydrogen atom positions removed from atoms on special positions
#
###############################################################################

data_QUSSAB
_chemical_formula_moiety         '(C324 H288 Cu18 N18 O82)n'
_symmetry_cell_setting           triclinic
_symmetry_space_group_name_H-M   'P 1'
_symmetry_Int_Tables_number      1
_space_group_name_Hall           'P 1'
loop_
_symmetry_equiv_pos_site_id
_symmetry_equiv_pos_as_xyz
1 x,y,z
_cell_length_a                   23.110(3)
_cell_length_b                   23.110(3)
_cell_length_c                   49.600(10)
_cell_angle_alpha                90
_cell_angle_beta                 90
_cell_angle_gamma                120
_cell_volume                     22941
loop_
_atom_site_label
_atom_site_type_symbol
_atom_site_fract_x
_atom_site_fract_y
_atom_site_fract_z
Cu7 Cu 0.47238(3) 0.52762(2) 0.01441(2)
Cu8 Cu 0.05523(2) 0.52762(3) 0.01441(2)
Cu1 Cu 0.27810(2) 0.13905(2) 0.65226(2)
O1 O 0.25039(8) 0.18448(9) 0.67781(4)
O2 O 0.34422(8) 0.23211(10) 0.70255(4)
O3 O 0.18589(15) 0.09294(8) 0.62997(8)
N1 N 0.17209(10) 0.34418(19) 0.75758(7)
C1 C 0.28588(12) 0.22155(13) 0.69723(5)
C2 C 0.19356(12) 0.24204(14) 0.70918(5)
H1 H 0.167743 0.212355 0.695686
C3 C 0.16835(13) 0.27369(15) 0.72428(6)
C4 C 0.25771(12) 0.25431(13) 0.71401(5)
C5 C 0.20728(16) 0.31729(17) 0.74550(6)
C6 C 0.18095(14) 0.3619(3) 0.80710(11)
C7 C 0.29479(14) 0.29676(16) 0.73511(7)
H2 H 0.337155 0.303265 0.738660
C8 C 0.27132(16) 0.32876(19) 0.75056(7)
H3 H 0.297339 0.357664 0.764219
C9 C 0.19579(14) 0.3916(3) 0.77983(12)
H4 H 0.176135 0.419944 0.778124
C10 C 0.1843(2) 0.3686(4) 0.85498(13)
H5 H 0.198498 0.396997 0.869831
C11 C 0.19931(17) 0.3986(3) 0.82885(17)
H6 H 0.222469 0.444939 0.827309
O4 O 0.39924(12) 0.48219(9) 0.98886(4)
O5 O 0.44544(13) 0.43456(10) 0.96412(4)
N2 N 0.16124(21) 0.32249(19) 0.90909(7)
C12 C 0.39766(18) 0.44512(13) 0.96944(5)
C13 C 0.28485(18) 0.42463(14) 0.95749(5)
H7 H 0.288721 0.454312 0.970981
C14 C 0.22799(20) 0.39298(15) 0.94239(6)
C15 C 0.33673(18) 0.41236(13) 0.95266(5)
C16 C 0.22332(23) 0.34938(17) 0.92117(6)
C17 C 0.15238(33) 0.3048(3) 0.85957(11)
C18 C 0.33136(21) 0.36991(16) 0.93156(7)
H8 H 0.367223 0.363402 0.928007
C19 C 0.27589(25) 0.33791(19) 0.91611(7)
H9 H 0.273008 0.309003 0.902448
C20 C 0.13752(33) 0.2751(3) 0.88684(12)
H10 H 0.089524 0.246723 0.888543
C21 C 0.1490(4) 0.2981(4) 0.81169(13)
H11 H 0.134834 0.269670 0.796836
C22 C 0.13404(34) 0.2681(3) 0.83782(17)
H12 H 0.110863 0.221728 0.839358
C24 C 0.04848(18) 0.24204(14) 0.70918(5)
H13 H 0.044612 0.212355 0.695686
C25 C 0.10534(20) 0.27369(15) 0.72428(6)
C27 C 0.11001(23) 0.31729(17) 0.74550(6)
C28 C 0.00197(21) 0.29676(16) 0.73511(7)
C29 C 0.05744(25) 0.32876(19) 0.75056(7)
H15 H 0.060325 0.357664 0.764219
H16 H 0.243809 0.419944 0.778124
O8 O 0.08294(8) 0.48219(9) 0.98886(4)
C30 C 0.04745(12) 0.44512(13) 0.96944(5)
C31 C 0.13977(12) 0.42463(14) 0.95749(5)
H17 H 0.165590 0.454312 0.970981
C32 C 0.16498(13) 0.39298(15) 0.94239(6)
C33 C 0.07562(12) 0.41236(13) 0.95266(5)
C34 C 0.12605(16) 0.34938(17) 0.92117(6)
C35 C 0.03854(14) 0.36991(16) 0.93156(7)
C36 C 0.06201(16) 0.33791(19) 0.91611(7)
H19 H 0.035994 0.309003 0.902448
H20 H 0.157198 0.246723 0.888543
Cu4 Cu 0.52762(2) 0.47238(3) 0.98559(2)
Cu6 Cu 0.38857(2) 0.19428(3) 0.68107(2)
O12 O 0.25039(8) 0.06591(12) 0.67781(4)
O14 O 0.32245(8) 0.22122(13) 0.63078(4)
O15 O 0.32245(8) 0.10122(10) 0.63078(4)
O6 O 0.93409(12) 0.18448(9) 0.67781(4)
O7 O 0.88789(13) 0.23211(10) 0.70255(4)
C23 C 0.93567(18) 0.22155(13) 0.69723(5)
C26 C 0.99660(18) 0.25431(13) 0.71401(5)
H14 H 0.966110 0.303265 0.738660
O9 O 0.98911(8) 0.43456(10) 0.96412(4)
H18 H 0.996178 0.363402 0.928007
Cu2 Cu 0.86095(2) 0.13905(3) 0.65226(2)
O10 O 0.90706(8) 0.09295(17) 0.62997(8)
Cu3 Cu 0.94477(2) 0.47238(2) 0.98559(2)
Cu5 Cu 0.80572(3) 0.19428(2) 0.68107(2)
O11 O 0.81552(9) 0.06591(12) 0.67781(4)
O13 O 0.77878(13) 0.10122(10) 0.63078(4)
O16 O 0.89878(10) 0.22122(13) 0.63078(4)
O2_2 O 0.76789(10) 0.11211(13) 0.70255(4)
C1_2 C 0.77845(13) 0.06433(18) 0.69723(5)
C4_2 C 0.74569(13) 0.00340(18) 0.71401(5)
H2_2 H 0.696735 0.033890 0.738660
O5_2 O 0.56544(10) 0.01089(16) 0.96412(4)
H8_2 H 0.636598 0.003822 0.928007
Cu4_2 Cu 0.52762(3) 0.05523(4) 0.98559(2)
Cu7_2 Cu 0.47238(2) 0.94477(4) 0.01441(2)
N1_2 N 0.65582(19) 0.82791(21) 0.75758(7)
C2_2 C 0.75796(14) 0.95152(18) 0.70918(5)
H1_2 H 0.787645 0.955388 0.695686
C3_2 C 0.72631(15) 0.89466(20) 0.72428(6)
C5_2 C 0.68271(17) 0.88999(23) 0.74550(6)
C6_2 C 0.6381(3) 0.81905(33) 0.80710(11)
C7_2 C 0.70324(16) 0.99803(21) 0.73511(7)
C8_2 C 0.67124(19) 0.94256(25) 0.75056(7)
H3_2 H 0.642336 0.939675 0.764219
C9_2 C 0.6084(3) 0.80419(33) 0.77983(12)
H4_2 H 0.580056 0.756191 0.778124
C10_2 C 0.6314(4) 0.8157(4) 0.85498(13)
H5_2 H 0.603003 0.801501 0.869831
C11_2 C 0.6014(3) 0.80071(34) 0.82885(17)
H6_2 H 0.555061 0.777530 0.827309
O4_2 O 0.51781(9) 0.91706(15) 0.98886(4)
N2_2 N 0.67751(19) 0.83876(28) 0.90909(7)
C12_2 C 0.55488(13) 0.95255(22) 0.96944(5)
C13_2 C 0.57537(14) 0.86023(23) 0.95749(5)
H7_2 H 0.545688 0.834410 0.970981
C14_2 C 0.60702(15) 0.83502(25) 0.94239(6)
C15_2 C 0.58764(13) 0.92438(22) 0.95266(5)
C16_2 C 0.65062(17) 0.87395(29) 0.92117(6)
C17_2 C 0.6952(3) 0.84762(45) 0.85957(11)
C18_2 C 0.63009(16) 0.96146(26) 0.93156(7)
C19_2 C 0.66209(19) 0.93799(31) 0.91611(7)
H9_2 H 0.690997 0.964006 0.902448
C20_2 C 0.7249(3) 0.86246(45) 0.88684(12)
H10_2 H 0.753277 0.842802 0.888543
C21_2 C 0.7019(4) 0.8510(6) 0.81169(13)
H11_2 H 0.730330 0.865165 0.796836
C22_2 C 0.7319(3) 0.86598(45) 0.83782(17)
H12_2 H 0.778272 0.889136 0.839358
O6_2 O 0.81552(9) 0.74961(15) 0.67781(4)
O7_2 O 0.76789(10) 0.65578(16) 0.70255(4)
C23_2 C 0.77845(13) 0.71412(22) 0.69723(5)
C24_2 C 0.75796(14) 0.80644(23) 0.70918(5)
H13_2 H 0.787645 0.832257 0.695686
C25_2 C 0.72631(15) 0.83165(25) 0.72428(6)
C26_2 C 0.74569(13) 0.74229(22) 0.71401(5)
C27_2 C 0.68271(17) 0.79272(29) 0.74550(6)
C28_2 C 0.70324(16) 0.70521(26) 0.73511(7)
H14_2 H 0.696735 0.662845 0.738660
C29_2 C 0.67124(19) 0.72868(31) 0.75056(7)
H15_2 H 0.642336 0.702661 0.764219
H16_2 H 0.580056 0.823865 0.778124
O8_2 O 0.51781(9) 0.60076(12) 0.98886(4)
O9_2 O 0.56544(10) 0.55456(13) 0.96412(4)
C30_2 C 0.55488(13) 0.60234(18) 0.96944(5)
C31_2 C 0.57537(14) 0.71515(18) 0.95749(5)
H17_2 H 0.545688 0.711279 0.970981
C32_2 C 0.60702(15) 0.77201(20) 0.94239(6)
C33_2 C 0.58764(13) 0.66327(18) 0.95266(5)
C34_2 C 0.65062(17) 0.77668(23) 0.92117(6)
C35_2 C 0.63009(16) 0.66864(21) 0.93156(7)
H18_2 H 0.636598 0.632777 0.928007
C36_2 C 0.66209(19) 0.72411(25) 0.91611(7)
H19_2 H 0.690997 0.726992 0.902448
H20_2 H 0.753277 0.910476 0.888543
Cu2_2 Cu 0.86095(3) 0.72190(4) 0.65226(2)
O10_2 O 0.90705(17) 0.81411(19) 0.62997(8)
Cu5_2 Cu 0.80572(2) 0.61143(4) 0.68107(2)
O11_2 O 0.93409(12) 0.74961(15) 0.67781(4)
O13_2 O 0.89878(10) 0.67755(16) 0.63078(4)
O16_2 O 0.77878(13) 0.67755(16) 0.63078(4)
O7_3 O 0.34422(16) 0.11211(13) 0.70255(4)
C23_3 C 0.28588(22) 0.06433(18) 0.69723(5)
C26_3 C 0.25771(22) 0.00340(18) 0.71401(5)
H14_3 H 0.337155 0.033890 0.738660
O9_3 O 0.44544(13) 0.01089(8) 0.96412(4)
H18_3 H 0.367223 0.003822 0.928007
N1_3 N 0.17209(21) 0.82791(10) 0.75758(7)
C2_3 C 0.04848(18) 0.80644(12) 0.70918(5)
H1_3 H 0.044612 0.832257 0.695686
C3_3 C 0.10534(20) 0.83165(13) 0.72428(6)
C5_3 C 0.11001(23) 0.79272(16) 0.74550(6)
C6_3 C 0.18095(33) 0.81905(14) 0.80710(11)
C7_3 C 0.00197(21) 0.70521(14) 0.73511(7)
C8_3 C 0.05744(25) 0.72868(16) 0.75056(7)
H3_3 H 0.060325 0.702661 0.764219
C9_3 C 0.19581(33) 0.80421(14) 0.77983(12)
H4_3 H 0.243809 0.823865 0.778124
C10_3 C 0.1843(4) 0.8157(2) 0.85498(13)
H5_3 H 0.198499 0.801502 0.869831
C11_3 C 0.19929(34) 0.80069(17) 0.82885(17)
H6_3 H 0.222470 0.777531 0.827309
O4_3 O 0.08294(15) 0.60076(12) 0.98886(4)
N2_3 N 0.16124(28) 0.83876(21) 0.90909(7)
C12_3 C 0.04745(22) 0.60234(18) 0.96944(5)
C13_3 C 0.13977(23) 0.71515(18) 0.95749(5)
H7_3 H 0.165590 0.711279 0.970981
C14_3 C 0.16498(25) 0.77201(20) 0.94239(6)
C15_3 C 0.07562(22) 0.66327(18) 0.95266(5)
C16_3 C 0.12605(29) 0.77668(23) 0.92117(6)
C17_3 C 0.15238(45) 0.84762(33) 0.85957(11)
C18_3 C 0.03854(26) 0.66864(21) 0.93156(7)
C19_3 C 0.06201(31) 0.72411(25) 0.91611(7)
H9_3 H 0.035994 0.726992 0.902448
C20_3 C 0.13754(45) 0.86248(33) 0.88684(12)
H10_3 H 0.157198 0.910476 0.888543
C21_3 C 0.1490(6) 0.8510(4) 0.81169(13)
H11_3 H 0.134835 0.865166 0.796836
C22_3 C 0.13402(45) 0.86596(34) 0.83782(17)
H12_3 H 0.110864 0.889137 0.839358
C24_3 C 0.19356(23) 0.95152(18) 0.70918(5)
H13_3 H 0.167743 0.955388 0.695686
C25_3 C 0.16835(25) 0.89466(20) 0.72428(6)
C27_3 C 0.20728(29) 0.88999(23) 0.74550(6)
C28_3 C 0.29479(26) 0.99803(21) 0.73511(7)
C29_3 C 0.27132(31) 0.94256(25) 0.75056(7)
H15_3 H 0.297339 0.939675 0.764219
H16_3 H 0.176135 0.756191 0.778124
O8_3 O 0.39924(12) 0.91706(8) 0.98886(4)
C30_3 C 0.39766(18) 0.95255(12) 0.96944(5)
C31_3 C 0.28485(18) 0.86023(12) 0.95749(5)
H17_3 H 0.288721 0.834410 0.970981
C32_3 C 0.22799(20) 0.83502(13) 0.94239(6)
C33_3 C 0.33673(18) 0.92438(12) 0.95266(5)
C34_3 C 0.22332(23) 0.87395(16) 0.92117(6)
C35_3 C 0.33136(21) 0.96146(14) 0.93156(7)
C36_3 C 0.27589(25) 0.93799(16) 0.91611(7)
H19_3 H 0.273008 0.964006 0.902448
H20_3 H 0.089524 0.842802 0.888543
O2_3 O 0.88789(13) 0.65578(8) 0.70255(4)
C1_3 C 0.93567(18) 0.71412(12) 0.69723(5)
C4_3 C 0.99660(18) 0.74229(12) 0.71401(5)
H2_3 H 0.966110 0.662845 0.738660
O5_3 O 0.98911(16) 0.55456(13) 0.96412(4)
H8_3 H 0.996178 0.632777 0.928007
Cu1_2 Cu 0.13905(2) 0.27810(2) 0.34774(2)
O1_2 O 0.18448(9) 0.25039(8) 0.32219(4)
O2_4 O 0.23211(10) 0.34422(8) 0.29745(4)
O3_2 O 0.09294(8) 0.18589(15) 0.37003(8)
N1_4 N 0.34418(19) 0.17209(10) 0.24242(7)
C1_4 C 0.22155(13) 0.28588(12) 0.30277(5)
C2_4 C 0.24204(14) 0.19356(12) 0.29082(5)
H1_4 H 0.212355 0.167743 0.304314
C3_4 C 0.27369(15) 0.16835(13) 0.27572(6)
C4_4 C 0.25431(13) 0.25771(12) 0.28599(5)
C5_4 C 0.31729(17) 0.20728(16) 0.25450(6)
C6_4 C 0.3619(3) 0.18095(14) 0.19290(11)
C7_4 C 0.29676(16) 0.29479(14) 0.26489(7)
H2_4 H 0.303265 0.337155 0.261340
C8_4 C 0.32876(19) 0.27132(16) 0.24944(7)
H3_4 H 0.357664 0.297339 0.235781
C9_4 C 0.3916(3) 0.19579(14) 0.22017(12)
H4_4 H 0.419944 0.176135 0.221876
C10_4 C 0.3686(4) 0.1843(2) 0.14502(13)
H5_4 H 0.396997 0.198498 0.130169
C11_4 C 0.3986(3) 0.19931(17) 0.17115(17)
H6_4 H 0.444939 0.222469 0.172691
O4_4 O 0.48219(9) 0.39924(12) 0.01114(4)
O5_4 O 0.43456(10) 0.44544(13) 0.03588(4)
N2_4 N 0.32249(19) 0.16124(21) 0.09091(7)
C12_4 C 0.44512(13) 0.39766(18) 0.03056(5)
C13_4 C 0.42463(14) 0.28485(18) 0.04251(5)
H7_4 H 0.454312 0.288721 0.029019
C14_4 C 0.39298(15) 0.22799(20) 0.05761(6)
C15_4 C 0.41236(13) 0.33673(18) 0.04734(5)
C16_4 C 0.34938(17) 0.22332(23) 0.07883(6)
C17_4 C 0.3048(3) 0.15238(33) 0.14043(11)
C18_4 C 0.36991(16) 0.33136(21) 0.06844(7)
H8_4 H 0.363402 0.367223 0.071993
C19_4 C 0.33791(19) 0.27589(25) 0.08389(7)
H9_4 H 0.309003 0.273008 0.097552
C20_4 C 0.2751(3) 0.13752(33) 0.11316(12)
H10_4 H 0.246723 0.089524 0.111457
C21_4 C 0.2981(4) 0.1490(4) 0.18831(13)
H11_4 H 0.269670 0.134834 0.203164
C22_4 C 0.2681(3) 0.13404(34) 0.16218(17)
H12_4 H 0.221728 0.110863 0.160642
C24_4 C 0.24204(14) 0.04848(18) 0.29082(5)
H13_4 H 0.212355 0.044612 0.304314
C25_4 C 0.27369(15) 0.10534(20) 0.27572(6)
C27_4 C 0.31729(17) 0.11001(23) 0.25450(6)
C28_4 C 0.29676(16) 0.00197(21) 0.26489(7)
C29_4 C 0.32876(19) 0.05744(25) 0.24944(7)
H15_4 H 0.357664 0.060325 0.235781
H16_4 H 0.419944 0.243809 0.221876
O8_4 O 0.48219(9) 0.08294(8) 0.01114(4)
C30_4 C 0.44512(13) 0.04745(12) 0.03056(5)
C31_4 C 0.42463(14) 0.13977(12) 0.04251(5)
H17_4 H 0.454312 0.165590 0.029019
C32_4 C 0.39298(15) 0.16498(13) 0.05761(6)
C33_4 C 0.41236(13) 0.07562(12) 0.04734(5)
C34_4 C 0.34938(17) 0.12605(16) 0.07883(6)
C35_4 C 0.36991(16) 0.03854(14) 0.06844(7)
C36_4 C 0.33791(19) 0.06201(16) 0.08389(7)
H19_4 H 0.309003 0.035994 0.097552
H20_4 H 0.246723 0.157198 0.111457
Cu6_2 Cu 0.19428(3) 0.38857(2) 0.31893(2)
O12_2 O 0.06591(12) 0.25039(8) 0.32219(4)
O14_2 O 0.22122(13) 0.32245(8) 0.36922(4)
O15_2 O 0.10122(10) 0.32245(8) 0.36922(4)
O6_3 O 0.18448(9) 0.93409(12) 0.32219(4)
O7_4 O 0.23211(10) 0.88789(13) 0.29745(4)
C23_4 C 0.22155(13) 0.93567(18) 0.30277(5)
C26_4 C 0.25431(13) 0.99660(18) 0.28599(5)
H14_4 H 0.303265 0.966110 0.261340
O9_4 O 0.43456(10) 0.98911(8) 0.03588(4)
H18_4 H 0.363402 0.996178 0.071993
Cu2_3 Cu 0.13905(3) 0.86095(2) 0.34774(2)
O10_3 O 0.09295(17) 0.90706(8) 0.37003(8)
Cu5_3 Cu 0.19428(2) 0.80572(3) 0.31893(2)
O11_3 O 0.06591(12) 0.81552(9) 0.32219(4)
O13_3 O 0.10122(10) 0.77878(13) 0.36922(4)
O16_3 O 0.22122(13) 0.89878(10) 0.36922(4)
O2_5 O 0.11211(13) 0.76789(10) 0.29745(4)
C1_5 C 0.06433(18) 0.77845(13) 0.30277(5)
C4_5 C 0.00340(18) 0.74569(13) 0.28599(5)
H2_5 H 0.033890 0.696735 0.261340
O5_5 O 0.01089(16) 0.56544(10) 0.03588(4)
H8_5 H 0.003822 0.636598 0.071993
N1_5 N 0.82791(21) 0.65582(19) 0.24242(7)
C2_5 C 0.95152(18) 0.75796(14) 0.29082(5)
H1_5 H 0.955388 0.787645 0.304314
C3_5 C 0.89466(20) 0.72631(15) 0.27572(6)
C5_5 C 0.88999(23) 0.68271(17) 0.25450(6)
C6_5 C 0.81905(33) 0.6381(3) 0.19290(11)
C7_5 C 0.99803(21) 0.70324(16) 0.26489(7)
C8_5 C 0.94256(25) 0.67124(19) 0.24944(7)
H3_5 H 0.939675 0.642336 0.235781
C9_5 C 0.80419(33) 0.6084(3) 0.22017(12)
H4_5 H 0.756191 0.580056 0.221876
C10_5 C 0.8157(4) 0.6314(4) 0.14502(13)
H5_5 H 0.801501 0.603003 0.130169
C11_5 C 0.80071(34) 0.6014(3) 0.17115(17)
H6_5 H 0.777530 0.555061 0.172691
O4_5 O 0.91706(15) 0.51781(9) 0.01114(4)
N2_5 N 0.83876(28) 0.67751(19) 0.09091(7)
C12_5 C 0.95255(22) 0.55488(13) 0.03056(5)
C13_5 C 0.86023(23) 0.57537(14) 0.04251(5)
H7_5 H 0.834410 0.545688 0.029019
C14_5 C 0.83502(25) 0.60702(15) 0.05761(6)
C15_5 C 0.92438(22) 0.58764(13) 0.04734(5)
C16_5 C 0.87395(29) 0.65062(17) 0.07883(6)
C17_5 C 0.84762(45) 0.6952(3) 0.14043(11)
C18_5 C 0.96146(26) 0.63009(16) 0.06844(7)
C19_5 C 0.93799(31) 0.66209(19) 0.08389(7)
H9_5 H 0.964006 0.690997 0.097552
C20_5 C 0.86246(45) 0.7249(3) 0.11316(12)
H10_5 H 0.842802 0.753277 0.111457
C21_5 C 0.8510(6) 0.7019(4) 0.18831(13)
H11_5 H 0.865165 0.730330 0.203164
C22_5 C 0.86598(45) 0.7319(3) 0.16218(17)
H12_5 H 0.889136 0.778272 0.160642
O6_4 O 0.74961(15) 0.81552(9) 0.32219(4)
O7_5 O 0.65578(16) 0.76789(10) 0.29745(4)
C23_5 C 0.71412(22) 0.77845(13) 0.30277(5)
C24_5 C 0.80644(23) 0.75796(14) 0.29082(5)
H13_5 H 0.832257 0.787645 0.304314
C25_5 C 0.83165(25) 0.72631(15) 0.27572(6)
C26_5 C 0.74229(22) 0.74569(13) 0.28599(5)
C27_5 C 0.79272(29) 0.68271(17) 0.25450(6)
C28_5 C 0.70521(26) 0.70324(16) 0.26489(7)
H14_5 H 0.662845 0.696735 0.261340
C29_5 C 0.72868(31) 0.67124(19) 0.24944(7)
H15_5 H 0.702661 0.642336 0.235781
H16_5 H 0.823865 0.580056 0.221876
O8_5 O 0.60076(12) 0.51781(9) 0.01114(4)
O9_5 O 0.55456(13) 0.56544(10) 0.03588(4)
C30_5 C 0.60234(18) 0.55488(13) 0.03056(5)
C31_5 C 0.71515(18) 0.57537(14) 0.04251(5)
H17_5 H 0.711279 0.545688 0.029019
C32_5 C 0.77201(20) 0.60702(15) 0.05761(6)
C33_5 C 0.66327(18) 0.58764(13) 0.04734(5)
C34_5 C 0.77668(23) 0.65062(17) 0.07883(6)
C35_5 C 0.66864(21) 0.63009(16) 0.06844(7)
H18_5 H 0.632777 0.636598 0.071993
C36_5 C 0.72411(25) 0.66209(19) 0.08389(7)
H19_5 H 0.726992 0.690997 0.097552
H20_5 H 0.910476 0.753277 0.111457
Cu2_4 Cu 0.72190(4) 0.86095(3) 0.34774(2)
O10_4 O 0.81411(19) 0.90705(17) 0.37003(8)
Cu5_4 Cu 0.61143(4) 0.80572(2) 0.31893(2)
O11_4 O 0.74961(15) 0.93409(12) 0.32219(4)
O13_4 O 0.67755(16) 0.89878(10) 0.36922(4)
O16_4 O 0.67755(16) 0.77878(13) 0.36922(4)
O7_6 O 0.11211(13) 0.34422(16) 0.29745(4)
C23_6 C 0.06433(18) 0.28588(22) 0.30277(5)
C26_6 C 0.00340(18) 0.25771(22) 0.28599(5)
H14_6 H 0.033890 0.337155 0.261340
O9_6 O 0.01089(8) 0.44544(13) 0.03588(4)
H18_6 H 0.003822 0.367223 0.071993
N1_6 N 0.82791(10) 0.17209(21) 0.24242(7)
C2_6 C 0.80644(12) 0.04848(18) 0.29082(5)
H1_6 H 0.832257 0.044612 0.304314
C3_6 C 0.83165(13) 0.10534(20) 0.27572(6)
C5_6 C 0.79272(16) 0.11001(23) 0.25450(6)
C6_6 C 0.81905(14) 0.18095(33) 0.19290(11)
C7_6 C 0.70521(14) 0.00197(21) 0.26489(7)
C8_6 C 0.72868(16) 0.05744(25) 0.24944(7)
H3_6 H 0.702661 0.060325 0.235781
C9_6 C 0.80421(14) 0.19581(33) 0.22017(12)
H4_6 H 0.823865 0.243809 0.221876
C10_6 C 0.8157(2) 0.1843(4) 0.14502(13)
H5_6 H 0.801502 0.198499 0.130169
C11_6 C 0.80069(17) 0.19929(34) 0.17115(17)
H6_6 H 0.777531 0.222470 0.172691
O4_6 O 0.60076(12) 0.08294(15) 0.01114(4)
N2_6 N 0.83876(21) 0.16124(28) 0.09091(7)
C12_6 C 0.60234(18) 0.04745(22) 0.03056(5)
C13_6 C 0.71515(18) 0.13977(23) 0.04251(5)
H7_6 H 0.711279 0.165590 0.029019
C14_6 C 0.77201(20) 0.16498(25) 0.05761(6)
C15_6 C 0.66327(18) 0.07562(22) 0.04734(5)
C16_6 C 0.77668(23) 0.12605(29) 0.07883(6)
C17_6 C 0.84762(33) 0.15238(45) 0.14043(11)
C18_6 C 0.66864(21) 0.03854(26) 0.06844(7)
C19_6 C 0.72411(25) 0.06201(31) 0.08389(7)
H9_6 H 0.726992 0.035994 0.097552
C20_6 C 0.86248(33) 0.13754(45) 0.11316(12)
H10_6 H 0.910476 0.157198 0.111457
C21_6 C 0.8510(4) 0.1490(6) 0.18831(13)
H11_6 H 0.865166 0.134835 0.203164
C22_6 C 0.86596(34) 0.13402(45) 0.16218(17)
H12_6 H 0.889137 0.110864 0.160642
C24_6 C 0.95152(18) 0.19356(23) 0.29082(5)
H13_6 H 0.955388 0.167743 0.304314
C25_6 C 0.89466(20) 0.16835(25) 0.27572(6)
C27_6 C 0.88999(23) 0.20728(29) 0.25450(6)
C28_6 C 0.99803(21) 0.29479(26) 0.26489(7)
C29_6 C 0.94256(25) 0.27132(31) 0.24944(7)
H15_6 H 0.939675 0.297339 0.235781
H16_6 H 0.756191 0.176135 0.221876
O8_6 O 0.91706(8) 0.39924(12) 0.01114(4)
C30_6 C 0.95255(12) 0.39766(18) 0.03056(5)
C31_6 C 0.86023(12) 0.28485(18) 0.04251(5)
H17_6 H 0.834410 0.288721 0.029019
C32_6 C 0.83502(13) 0.22799(20) 0.05761(6)
C33_6 C 0.92438(12) 0.33673(18) 0.04734(5)
C34_6 C 0.87395(16) 0.22332(23) 0.07883(6)
C35_6 C 0.96146(14) 0.33136(21) 0.06844(7)
C36_6 C 0.93799(16) 0.27589(25) 0.08389(7)
H19_6 H 0.964006 0.273008 0.097552
H20_6 H 0.842802 0.089524 0.111457
O2_6 O 0.65578(8) 0.88789(13) 0.29745(4)
C1_6 C 0.71412(12) 0.93567(18) 0.30277(5)
C4_6 C 0.74229(12) 0.99660(18) 0.28599(5)
H2_6 H 0.662845 0.966110 0.261340
O5_6 O 0.55456(13) 0.98911(16) 0.03588(4)
H8_6 H 0.632777 0.996178 0.071993
O3_3 O 0.85256(15) 0.42627(8) 0.96330(8)
O10_5 O 0.57373(8) 0.42628(17) 0.96330(8)
O10_6 O 0.57372(17) 0.14744(19) 0.96330(8)
N1_7 N 0.01085(19) 0.50542(10) 0.57575(7)
C6_7 C 0.0286(3) 0.51428(14) 0.52623(11)
H3_7 H 0.024331 0.630672 0.569114
C9_7 C 0.0583(3) 0.52912(14) 0.55350(12)
H4_7 H 0.086611 0.509468 0.555209
C10_7 C 0.0353(4) 0.5176(2) 0.47835(13)
H5_7 H 0.063664 0.531831 0.463502
C11_7 C 0.0653(3) 0.53264(17) 0.50448(17)
H6_7 H 0.111606 0.555802 0.506024
O4_7 O 0.14885(9) 0.73258(12) 0.34448(4)
C12_7 C 0.11178(13) 0.73100(18) 0.36390(5)
C13_7 C 0.09129(14) 0.61819(18) 0.37585(5)
H7_7 H 0.120978 0.622055 0.362353
C14_7 C 0.05964(15) 0.56133(20) 0.39095(6)
C15_7 C 0.07902(13) 0.67007(18) 0.38068(5)
C16_7 C 0.01604(17) 0.55666(23) 0.41217(6)
C18_7 C 0.03657(16) 0.66470(21) 0.40178(7)
H8_7 H 0.030068 0.700557 0.405327
C19_7 C 0.00457(19) 0.60923(25) 0.41723(7)
H15_7 H 0.024331 0.393658 0.569114
H16_7 H 0.086611 0.577142 0.555209
O8_7 O 0.14885(9) 0.41628(8) 0.34448(4)
C30_7 C 0.11178(13) 0.38079(12) 0.36390(5)
C31_7 C 0.09129(14) 0.47311(12) 0.37585(5)
H17_7 H 0.120978 0.498924 0.362353
C32_7 C 0.05964(15) 0.49832(13) 0.39095(6)
C33_7 C 0.07902(13) 0.40896(12) 0.38068(5)
C34_7 C 0.01604(17) 0.45939(16) 0.41217(6)
C35_7 C 0.03657(16) 0.37188(14) 0.40178(7)
H18_7 H 0.030068 0.329512 0.405327
C36_7 C 0.00457(19) 0.39535(16) 0.41723(7)
O1_3 O 0.85115(9) 0.58372(8) 0.65552(4)
O3_4 O 0.75961(8) 0.51922(15) 0.70336(8)
C1_7 C 0.88822(13) 0.61921(12) 0.63610(5)
C2_7 C 0.90871(14) 0.52689(12) 0.62415(5)
H1_7 H 0.879022 0.501076 0.637647
C3_7 C 0.94036(15) 0.50168(13) 0.60905(6)
C4_7 C 0.92098(13) 0.59104(12) 0.61932(5)
C5_7 C 0.98396(17) 0.54061(16) 0.58783(6)
C7_7 C 0.96343(16) 0.62812(14) 0.59822(7)
H2_7 H 0.969932 0.670488 0.594673
C8_7 C 0.99543(19) 0.60465(16) 0.58277(7)
N2_7 N 0.98915(19) 0.49458(21) 0.42425(7)
C17_7 C 0.9714(3) 0.48572(33) 0.47377(11)
H9_7 H 0.975669 0.606342 0.430886
C20_7 C 0.9417(3) 0.47086(33) 0.44650(12)
H10_7 H 0.913389 0.422858 0.444791
C21_7 C 0.9647(4) 0.4824(4) 0.52165(13)
H11_7 H 0.936336 0.468168 0.536498
C22_7 C 0.9347(3) 0.46738(34) 0.49552(17)
H12_7 H 0.888394 0.444197 0.493976
O6_5 O 0.85115(9) 0.26742(12) 0.65552(4)
C23_7 C 0.88822(13) 0.26900(18) 0.63610(5)
C24_7 C 0.90871(14) 0.38181(18) 0.62415(5)
H13_7 H 0.879022 0.377945 0.637647
C25_7 C 0.94036(15) 0.43867(20) 0.60905(6)
C26_7 C 0.92098(13) 0.32993(18) 0.61932(5)
C27_7 C 0.98396(17) 0.44334(23) 0.58783(6)
C28_7 C 0.96343(16) 0.33530(21) 0.59822(7)
H14_7 H 0.969932 0.299443 0.594673
C29_7 C 0.99543(19) 0.39077(25) 0.58277(7)
H19_7 H 0.975669 0.369328 0.430886
H20_7 H 0.913389 0.490532 0.444791
O10_7 O 0.75962(17) 0.24039(8) 0.70336(8)
O11_5 O 0.73258(12) 0.14885(9) 0.65552(4)
O12_3 O 0.73258(12) 0.58372(8) 0.65552(4)
C1_8 C 0.73100(18) 0.11178(13) 0.63610(5)
C2_8 C 0.61819(18) 0.09129(14) 0.62415(5)
H1_8 H 0.622055 0.120978 0.637647
C3_8 C 0.56133(20) 0.05964(15) 0.60905(6)
C4_8 C 0.67007(18) 0.07902(13) 0.61932(5)
C5_8 C 0.55666(23) 0.01604(17) 0.58783(6)
C7_8 C 0.66470(21) 0.03657(16) 0.59822(7)
H2_8 H 0.700557 0.030068 0.594673
C8_8 C 0.60923(25) 0.00457(19) 0.58277(7)
N2_8 N 0.50542(28) 0.01085(19) 0.42425(7)
C17_8 C 0.51428(45) 0.0286(3) 0.47377(11)
H9_8 H 0.630672 0.024331 0.430886
C20_8 C 0.52912(45) 0.0583(3) 0.44650(12)
H10_8 H 0.509468 0.086611 0.444791
C21_8 C 0.5176(6) 0.0353(4) 0.52165(13)
H11_8 H 0.531831 0.063664 0.536498
C22_8 C 0.53264(45) 0.0653(3) 0.49552(17)
H12_8 H 0.555802 0.111606 0.493976
O6_6 O 0.41628(15) 0.14885(9) 0.65552(4)
C23_8 C 0.38079(22) 0.11178(13) 0.63610(5)
C24_8 C 0.47311(23) 0.09129(14) 0.62415(5)
H13_8 H 0.498924 0.120978 0.637647
C25_8 C 0.49832(25) 0.05964(15) 0.60905(6)
C26_8 C 0.40896(22) 0.07902(13) 0.61932(5)
C27_8 C 0.45939(29) 0.01604(17) 0.58783(6)
C28_8 C 0.37188(26) 0.03657(16) 0.59822(7)
H14_8 H 0.329512 0.030068 0.594673
C29_8 C 0.39535(31) 0.00457(19) 0.58277(7)
H19_8 H 0.393658 0.024331 0.430886
H20_8 H 0.577142 0.086611 0.444791
O10_8 O 0.48078(19) 0.24038(17) 0.70336(8)
O11_6 O 0.41628(15) 0.26742(12) 0.65552(4)
N1_8 N 0.49458(21) 0.98915(19) 0.57575(7)
C6_8 C 0.48572(33) 0.9714(3) 0.52623(11)
H3_8 H 0.606342 0.975669 0.569114
C9_8 C 0.47086(33) 0.9417(3) 0.55350(12)
H4_8 H 0.422858 0.913389 0.555209
C10_8 C 0.4824(4) 0.9647(4) 0.47835(13)
H5_8 H 0.468168 0.936336 0.463502
C11_8 C 0.46738(34) 0.9347(3) 0.50448(17)
H6_8 H 0.444197 0.888394 0.506024
O4_8 O 0.58372(15) 0.85115(9) 0.34448(4)
C12_8 C 0.61921(22) 0.88822(13) 0.36390(5)
C13_8 C 0.52689(23) 0.90871(14) 0.37585(5)
H7_8 H 0.501076 0.879022 0.362353
C14_8 C 0.50168(25) 0.94036(15) 0.39095(6)
C15_8 C 0.59104(22) 0.92098(13) 0.38068(5)
C16_8 C 0.54061(29) 0.98396(17) 0.41217(6)
C18_8 C 0.62812(26) 0.96343(16) 0.40178(7)
H8_8 H 0.670488 0.969932 0.405327
C19_8 C 0.60465(31) 0.99543(19) 0.41723(7)
H15_8 H 0.369328 0.975669 0.569114
H16_8 H 0.490532 0.913389 0.555209
O8_8 O 0.26742(12) 0.85115(9) 0.34448(4)
C30_8 C 0.26900(18) 0.88822(13) 0.36390(5)
C31_8 C 0.38181(18) 0.90871(14) 0.37585(5)
H17_8 H 0.377945 0.879022 0.362353
C32_8 C 0.43867(20) 0.94036(15) 0.39095(6)
C33_8 C 0.32993(18) 0.92098(13) 0.38068(5)
C34_8 C 0.44334(23) 0.98396(17) 0.41217(6)
C35_8 C 0.33530(21) 0.96343(16) 0.40178(7)
H18_8 H 0.299443 0.969932 0.405327
C36_8 C 0.39077(25) 0.99543(19) 0.41723(7)
N1_9 N 0.49458(10) 0.50542(21) 0.57575(7)
C1_9 C 0.38079(12) 0.26900(18) 0.63610(5)
C2_9 C 0.47311(12) 0.38181(18) 0.62415(5)
H1_9 H 0.498924 0.377945 0.637647
C3_9 C 0.49832(13) 0.43867(20) 0.60905(6)
C4_9 C 0.40896(12) 0.32993(18) 0.61932(5)
C5_9 C 0.45939(16) 0.44334(23) 0.58783(6)
C6_9 C 0.48572(14) 0.51428(33) 0.52623(11)
C7_9 C 0.37188(14) 0.33530(21) 0.59822(7)
H2_9 H 0.329512 0.299443 0.594673
C8_9 C 0.39535(16) 0.39077(25) 0.58277(7)
H3_9 H 0.369328 0.393658 0.569114
C9_9 C 0.47088(14) 0.52914(33) 0.55350(12)
H4_9 H 0.490532 0.577142 0.555209
C10_9 C 0.4824(2) 0.5176(4) 0.47835(13)
H5_9 H 0.468169 0.531832 0.463502
C11_9 C 0.46736(17) 0.53262(34) 0.50448(17)
H6_9 H 0.444198 0.555803 0.506024
O4_9 O 0.26742(12) 0.41628(15) 0.34448(4)
N2_9 N 0.50542(21) 0.49458(28) 0.42425(7)
C12_9 C 0.26900(18) 0.38079(22) 0.36390(5)
C13_9 C 0.38181(18) 0.47311(23) 0.37585(5)
H7_9 H 0.377945 0.498924 0.362353
C14_9 C 0.43867(20) 0.49832(25) 0.39095(6)
C15_9 C 0.32993(18) 0.40896(22) 0.38068(5)
C16_9 C 0.44334(23) 0.45939(29) 0.41217(6)
C17_9 C 0.51428(33) 0.48572(45) 0.47377(11)
C18_9 C 0.33530(21) 0.37188(26) 0.40178(7)
H8_9 H 0.299443 0.329512 0.405327
C19_9 C 0.39077(25) 0.39535(31) 0.41723(7)
H9_9 H 0.393658 0.369328 0.430886
C20_9 C 0.52914(33) 0.47088(45) 0.44650(12)
H10_9 H 0.577142 0.490532 0.444791
C21_9 C 0.5176(4) 0.4824(6) 0.52165(13)
H11_9 H 0.531832 0.468169 0.536498
C22_9 C 0.53262(34) 0.46736(45) 0.49552(17)
H12_9 H 0.555803 0.444198 0.493976
C23_9 C 0.73100(18) 0.61921(22) 0.63610(5)
C24_9 C 0.61819(18) 0.52689(23) 0.62415(5)
H13_9 H 0.622055 0.501076 0.637647
C25_9 C 0.56133(20) 0.50168(25) 0.60905(6)
C26_9 C 0.67007(18) 0.59104(22) 0.61932(5)
C27_9 C 0.55666(23) 0.54061(29) 0.58783(6)
C28_9 C 0.66470(21) 0.62812(26) 0.59822(7)
H14_9 H 0.700557 0.670488 0.594673
C29_9 C 0.60923(25) 0.60465(31) 0.58277(7)
H15_9 H 0.606342 0.630672 0.569114
H16_9 H 0.422858 0.509468 0.555209
O8_9 O 0.58372(8) 0.73258(12) 0.34448(4)
C30_9 C 0.61921(12) 0.73100(18) 0.36390(5)
C31_9 C 0.52689(12) 0.61819(18) 0.37585(5)
H17_9 H 0.501076 0.622055 0.362353
C32_9 C 0.50168(13) 0.56133(20) 0.39095(6)
C33_9 C 0.59104(12) 0.67007(18) 0.38068(5)
C34_9 C 0.54061(16) 0.55666(23) 0.41217(6)
C35_9 C 0.62812(14) 0.66470(21) 0.40178(7)
H18_9 H 0.670488 0.700557 0.405327
C36_9 C 0.60465(16) 0.60923(25) 0.41723(7)
H19_9 H 0.630672 0.606342 0.430886
H20_9 H 0.509468 0.422858 0.444791
O3_5 O 0.51922(15) 0.75961(8) 0.29664(8)
O10_9 O 0.24039(8) 0.75962(17) 0.29664(8)
O10_10 O 0.24038(17) 0.48078(19) 0.29664(8)
O3_6 O 0.42627(8) 0.85256(15) 0.03670(8)
O10_11 O 0.42628(17) 0.57373(8) 0.03670(8)
O10_12 O 0.14744(19) 0.57372(17) 0.03670(8)
loop_
_geom_bond_atom_site_label_1
_geom_bond_atom_site_label_2
_geom_bond_site_symmetry_1
_geom_bond_site_symmetry_2
Cu1 O1 1_555 1_555
O1 C1 1_555 1_555
O2 C1 1_555 1_555
O3 Cu1 1_555 1_555
N1 C5 1_555 1_555
C1 C4 1_555 1_555
C2 H1 1_555 1_555
C3 C2 1_555 1_555
C4 C2 1_555 1_555
C5 C3 1_555 1_555
C6 C9 1_555 1_555
C7 C4 1_555 1_555
H2 C7 1_555 1_555
C8 C5 1_555 1_555
H3 C8 1_555 1_555
C9 N1 1_555 1_555
H4 C9 1_555 1_555
C10 H5 1_555 1_555
C11 C6 1_555 1_555
H6 C11 1_555 1_555
O4 C12 1_555 1_555
O5 C12 1_555 1_555
N2 C16 1_555 1_555
C12 C15 1_555 1_555
C13 H7 1_555 1_555
C14 C13 1_555 1_555
C15 C13 1_555 1_555
C16 C14 1_555 1_555
C17 C10 1_555 1_555
C18 C15 1_555 1_555
H8 C18 1_555 1_555
C19 C16 1_555 1_555
H9 C19 1_555 1_555
C20 N2 1_555 1_555
H10 C20 1_555 1_555
C21 C6 1_555 1_555
H11 C21 1_555 1_555
C22 C17 1_555 1_555
H12 C22 1_555 1_555
C24 H13 1_555 1_555
C25 C3 1_555 1_555
C27 N1 1_555 1_555
C29 C27 1_555 1_555
H15 C29 1_555 1_555
H16 C9 1_555 1_555
O8 C30 1_555 1_555
C30 C33 1_555 1_555
C31 H17 1_555 1_555
C32 C14 1_555 1_555
C33 C31 1_555 1_555
C34 N2 1_555 1_555
C35 C33 1_555 1_555
C36 C34 1_555 1_555
H19 C36 1_555 1_555
H20 C20 1_555 1_555
Cu4 O5 1_555 1_555
Cu6 Cu1 1_555 1_555
O12 Cu1 1_555 1_555
O14 Cu1 1_555 1_555
O15 Cu1 1_555 1_555
O2 Cu6 1_555 1_555
C7 C8 1_555 1_555
C10 C11 1_555 1_555
C17 C20 1_555 1_555
C18 C19 1_555 1_555
C21 C22 1_555 1_555
C24 C25 1_555 1_555
C25 C27 1_555 1_555
C28 C29 1_555 1_555
C31 C32 1_555 1_555
C32 C34 1_555 1_555
C35 C36 1_555 1_555
O6 C23 1_555 1_555
O7 C23 1_555 1_555
C23 C26 1_555 1_555
Cu2 O6 1_555 1_555
O10 Cu2 1_555 1_555
Cu3 O9 1_555 1_555
Cu5 O7 1_555 1_555
O11 Cu2 1_555 1_555
O13 Cu2 1_555 1_555
O16 Cu2 1_555 1_555
Cu2 Cu5 1_555 1_555
O11 C1_2 1_555 1_555
O2_2 C1_2 1_555 1_555
C1_2 C4_2 1_555 1_555
Cu4_2 O5_2 1_555 1_555
O2_2 Cu5 1_555 1_555
N1_2 C5_2 1_555 1_555
C2_2 H1_2 1_555 1_555
C3_2 C2_2 1_555 1_555
C5_2 C3_2 1_555 1_555
C6_2 C9_2 1_555 1_555
C8_2 C5_2 1_555 1_555
H3_2 C8_2 1_555 1_555
C9_2 N1_2 1_555 1_555
H4_2 C9_2 1_555 1_555
C10_2 H5_2 1_555 1_555
C11_2 C6_2 1_555 1_555
H6_2 C11_2 1_555 1_555
O4_2 C12_2 1_555 1_555
N2_2 C16_2 1_555 1_555
C12_2 C15_2 1_555 1_555
C13_2 H7_2 1_555 1_555
C14_2 C13_2 1_555 1_555
C15_2 C13_2 1_555 1_555
C16_2 C14_2 1_555 1_555
C17_2 C10_2 1_555 1_555
C18_2 C15_2 1_555 1_555
C19_2 C16_2 1_555 1_555
H9_2 C19_2 1_555 1_555
C20_2 N2_2 1_555 1_555
H10_2 C20_2 1_555 1_555
C21_2 C6_2 1_555 1_555
H11_2 C21_2 1_555 1_555
C22_2 C17_2 1_555 1_555
H12_2 C22_2 1_555 1_555
O6_2 C23_2 1_555 1_555
O7_2 C23_2 1_555 1_555
C23_2 C26_2 1_555 1_555
C24_2 H13_2 1_555 1_555
C25_2 C3_2 1_555 1_555
C26_2 C24_2 1_555 1_555
C27_2 N1_2 1_555 1_555
C28_2 C26_2 1_555 1_555
H14_2 C28_2 1_555 1_555
C29_2 C27_2 1_555 1_555
H15_2 C29_2 1_555 1_555
H16_2 C9_2 1_555 1_555
O8_2 C30_2 1_555 1_555
O9_2 C30_2 1_555 1_555
C30_2 C33_2 1_555 1_555
C31_2 H17_2 1_555 1_555
C32_2 C14_2 1_555 1_555
C33_2 C31_2 1_555 1_555
C34_2 N2_2 1_555 1_555
C35_2 C33_2 1_555 1_555
H18_2 C35_2 1_555 1_555
C36_2 C34_2 1_555 1_555
H19_2 C36_2 1_555 1_555
H20_2 C20_2 1_555 1_555
Cu2_2 O6_2 1_555 1_555
O10_2 Cu2_2 1_555 1_555
Cu4 O9_2 1_555 1_555
Cu5_2 O7_2 1_555 1_555
O11_2 Cu2_2 1_555 1_555
O13_2 Cu2_2 1_555 1_555
O16_2 Cu2_2 1_555 1_555
C7_2 C8_2 1_555 1_555
C10_2 C11_2 1_555 1_555
C17_2 C20_2 1_555 1_555
C18_2 C19_2 1_555 1_555
C21_2 C22_2 1_555 1_555
C24_2 C25_2 1_555 1_555
C25_2 C27_2 1_555 1_555
C28_2 C29_2 1_555 1_555
C31_2 C32_2 1_555 1_555
C32_2 C34_2 1_555 1_555
C35_2 C36_2 1_555 1_555
Cu2_2 Cu5_2 1_555 1_555
O12 C23_3 1_555 1_555
O7_3 C23_3 1_555 1_555
C23_3 C26_3 1_555 1_555
Cu4_2 O9_3 1_555 1_555
Cu6 O7_3 1_555 1_555
N1_3 C5_3 1_555 1_555
C2_3 H1_3 1_555 1_555
C3_3 C2_3 1_555 1_555
C5_3 C3_3 1_555 1_555
C6_3 C9_3 1_555 1_555
C8_3 C5_3 1_555 1_555
H3_3 C8_3 1_555 1_555
C9_3 N1_3 1_555 1_555
H4_3 C9_3 1_555 1_555
C10_3 H5_3 1_555 1_555
C11_3 C6_3 1_555 1_555
H6_3 C11_3 1_555 1_555
O4_3 C12_3 1_555 1_555
N2_3 C16_3 1_555 1_555
C12_3 C15_3 1_555 1_555
C13_3 H7_3 1_555 1_555
C14_3 C13_3 1_555 1_555
C15_3 C13_3 1_555 1_555
C16_3 C14_3 1_555 1_555
C17_3 C10_3 1_555 1_555
C18_3 C15_3 1_555 1_555
C19_3 C16_3 1_555 1_555
H9_3 C19_3 1_555 1_555
C20_3 N2_3 1_555 1_555
H10_3 C20_3 1_555 1_555
C21_3 C6_3 1_555 1_555
H11_3 C21_3 1_555 1_555
C22_3 C17_3 1_555 1_555
H12_3 C22_3 1_555 1_555
C24_3 H13_3 1_555 1_555
C25_3 C3_3 1_555 1_555
C27_3 N1_3 1_555 1_555
C29_3 C27_3 1_555 1_555
H15_3 C29_3 1_555 1_555
H16_3 C9_3 1_555 1_555
O8_3 C30_3 1_555 1_555
C30_3 C33_3 1_555 1_555
C31_3 H17_3 1_555 1_555
C32_3 C14_3 1_555 1_555
C33_3 C31_3 1_555 1_555
C34_3 N2_3 1_555 1_555
C35_3 C33_3 1_555 1_555
C36_3 C34_3 1_555 1_555
H19_3 C36_3 1_555 1_555
H20_3 C20_3 1_555 1_555
C7_3 C8_3 1_555 1_555
C10_3 C11_3 1_555 1_555
C17_3 C20_3 1_555 1_555
C18_3 C19_3 1_555 1_555
C21_3 C22_3 1_555 1_555
C24_3 C25_3 1_555 1_555
C25_3 C27_3 1_555 1_555
C28_3 C29_3 1_555 1_555
C31_3 C32_3 1_555 1_555
C32_3 C34_3 1_555 1_555
C35_3 C36_3 1_555 1_555
O11_2 C1_3 1_555 1_555
O2_3 C1_3 1_555 1_555
C1_3 C4_3 1_555 1_555
Cu3 O5_3 1_555 1_555
O2_3 Cu5_2 1_555 1_555
Cu1_2 O1_2 1_555 1_555
O1_2 C1_4 1_555 1_555
O2_4 C1_4 1_555 1_555
O3_2 Cu1_2 1_555 1_555
N1_4 C5_4 1_555 1_555
C1_4 C4_4 1_555 1_555
C2_4 H1_4 1_555 1_555
C3_4 C2_4 1_555 1_555
C4_4 C2_4 1_555 1_555
C5_4 C3_4 1_555 1_555
C6_4 C9_4 1_555 1_555
C7_4 C4_4 1_555 1_555
H2_4 C7_4 1_555 1_555
C8_4 C5_4 1_555 1_555
H3_4 C8_4 1_555 1_555
C9_4 N1_4 1_555 1_555
H4_4 C9_4 1_555 1_555
C10_4 H5_4 1_555 1_555
C11_4 C6_4 1_555 1_555
H6_4 C11_4 1_555 1_555
O4_4 C12_4 1_555 1_555
O5_4 C12_4 1_555 1_555
N2_4 C16_4 1_555 1_555
C12_4 C15_4 1_555 1_555
C13_4 H7_4 1_555 1_555
C14_4 C13_4 1_555 1_555
C15_4 C13_4 1_555 1_555
C16_4 C14_4 1_555 1_555
C17_4 C10_4 1_555 1_555
C18_4 C15_4 1_555 1_555
H8_4 C18_4 1_555 1_555
C19_4 C16_4 1_555 1_555
H9_4 C19_4 1_555 1_555
C20_4 N2_4 1_555 1_555
H10_4 C20_4 1_555 1_555
C21_4 C6_4 1_555 1_555
H11_4 C21_4 1_555 1_555
C22_4 C17_4 1_555 1_555
H12_4 C22_4 1_555 1_555
C24_4 H13_4 1_555 1_555
C25_4 C3_4 1_555 1_555
C27_4 N1_4 1_555 1_555
C29_4 C27_4 1_555 1_555
H15_4 C29_4 1_555 1_555
H16_4 C9_4 1_555 1_555
O8_4 C30_4 1_555 1_555
C30_4 C33_4 1_555 1_555
C31_4 H17_4 1_555 1_555
C32_4 C14_4 1_555 1_555
C33_4 C31_4 1_555 1_555
C34_4 N2_4 1_555 1_555
C35_4 C33_4 1_555 1_555
C36_4 C34_4 1_555 1_555
H19_4 C36_4 1_555 1_555
H20_4 C20_4 1_555 1_555
Cu7 O5_4 1_555 1_555
Cu6_2 Cu1_2 1_555 1_555
O12_2 Cu1_2 1_555 1_555
O14_2 Cu1_2 1_555 1_555
O15_2 Cu1_2 1_555 1_555
O2_4 Cu6_2 1_555 1_555
C7_4 C8_4 1_555 1_555
C10_4 C11_4 1_555 1_555
C17_4 C20_4 1_555 1_555
C18_4 C19_4 1_555 1_555
C21_4 C22_4 1_555 1_555
C24_4 C25_4 1_555 1_555
C25_4 C27_4 1_555 1_555
C28_4 C29_4 1_555 1_555
C31_4 C32_4 1_555 1_555
C32_4 C34_4 1_555 1_555
C35_4 C36_4 1_555 1_555
O6_3 C23_4 1_555 1_555
O7_4 C23_4 1_555 1_555
C23_4 C26_4 1_555 1_555
Cu2_3 O6_3 1_555 1_555
O10_3 Cu2_3 1_555 1_555
Cu7_2 O9_4 1_555 1_555
Cu5_3 O7_4 1_555 1_555
O11_3 Cu2_3 1_555 1_555
O13_3 Cu2_3 1_555 1_555
O16_3 Cu2_3 1_555 1_555
Cu2_3 Cu5_3 1_555 1_555
O11_3 C1_5 1_555 1_555
O2_5 C1_5 1_555 1_555
C1_5 C4_5 1_555 1_555
Cu8 O5_5 1_555 1_555
O2_5 Cu5_3 1_555 1_555
N1_5 C5_5 1_555 1_555
C2_5 H1_5 1_555 1_555
C3_5 C2_5 1_555 1_555
C5_5 C3_5 1_555 1_555
C6_5 C9_5 1_555 1_555
C8_5 C5_5 1_555 1_555
H3_5 C8_5 1_555 1_555
C9_5 N1_5 1_555 1_555
H4_5 C9_5 1_555 1_555
C10_5 H5_5 1_555 1_555
C11_5 C6_5 1_555 1_555
H6_5 C11_5 1_555 1_555
O4_5 C12_5 1_555 1_555
N2_5 C16_5 1_555 1_555
C12_5 C15_5 1_555 1_555
C13_5 H7_5 1_555 1_555
C14_5 C13_5 1_555 1_555
C15_5 C13_5 1_555 1_555
C16_5 C14_5 1_555 1_555
C17_5 C10_5 1_555 1_555
C18_5 C15_5 1_555 1_555
C19_5 C16_5 1_555 1_555
H9_5 C19_5 1_555 1_555
C20_5 N2_5 1_555 1_555
H10_5 C20_5 1_555 1_555
C21_5 C6_5 1_555 1_555
H11_5 C21_5 1_555 1_555
C22_5 C17_5 1_555 1_555
H12_5 C22_5 1_555 1_555
O6_4 C23_5 1_555 1_555
O7_5 C23_5 1_555 1_555
C23_5 C26_5 1_555 1_555
C24_5 H13_5 1_555 1_555
C25_5 C3_5 1_555 1_555
C26_5 C24_5 1_555 1_555
C27_5 N1_5 1_555 1_555
C28_5 C26_5 1_555 1_555
H14_5 C28_5 1_555 1_555
C29_5 C27_5 1_555 1_555
H15_5 C29_5 1_555 1_555
H16_5 C9_5 1_555 1_555
O8_5 C30_5 1_555 1_555
O9_5 C30_5 1_555 1_555
C30_5 C33_5 1_555 1_555
C31_5 H17_5 1_555 1_555
C32_5 C14_5 1_555 1_555
C33_5 C31_5 1_555 1_555
C34_5 N2_5 1_555 1_555
C35_5 C33_5 1_555 1_555
H18_5 C35_5 1_555 1_555
C36_5 C34_5 1_555 1_555
H19_5 C36_5 1_555 1_555
H20_5 C20_5 1_555 1_555
Cu2_4 O6_4 1_555 1_555
O10_4 Cu2_4 1_555 1_555
Cu7 O9_5 1_555 1_555
Cu5_4 O7_5 1_555 1_555
O11_4 Cu2_4 1_555 1_555
O13_4 Cu2_4 1_555 1_555
O16_4 Cu2_4 1_555 1_555
C7_5 C8_5 1_555 1_555
C10_5 C11_5 1_555 1_555
C17_5 C20_5 1_555 1_555
C18_5 C19_5 1_555 1_555
C21_5 C22_5 1_555 1_555
C24_5 C25_5 1_555 1_555
C25_5 C27_5 1_555 1_555
C28_5 C29_5 1_555 1_555
C31_5 C32_5 1_555 1_555
C32_5 C34_5 1_555 1_555
C35_5 C36_5 1_555 1_555
Cu2_4 Cu5_4 1_555 1_555
O12_2 C23_6 1_555 1_555
O7_6 C23_6 1_555 1_555
C23_6 C26_6 1_555 1_555
Cu8 O9_6 1_555 1_555
Cu6_2 O7_6 1_555 1_555
N1_6 C5_6 1_555 1_555
C2_6 H1_6 1_555 1_555
C3_6 C2_6 1_555 1_555
C5_6 C3_6 1_555 1_555
C6_6 C9_6 1_555 1_555
C8_6 C5_6 1_555 1_555
H3_6 C8_6 1_555 1_555
C9_6 N1_6 1_555 1_555
H4_6 C9_6 1_555 1_555
C10_6 H5_6 1_555 1_555
C11_6 C6_6 1_555 1_555
H6_6 C11_6 1_555 1_555
O4_6 C12_6 1_555 1_555
N2_6 C16_6 1_555 1_555
C12_6 C15_6 1_555 1_555
C13_6 H7_6 1_555 1_555
C14_6 C13_6 1_555 1_555
C15_6 C13_6 1_555 1_555
C16_6 C14_6 1_555 1_555
C17_6 C10_6 1_555 1_555
C18_6 C15_6 1_555 1_555
C19_6 C16_6 1_555 1_555
H9_6 C19_6 1_555 1_555
C20_6 N2_6 1_555 1_555
H10_6 C20_6 1_555 1_555
C21_6 C6_6 1_555 1_555
H11_6 C21_6 1_555 1_555
C22_6 C17_6 1_555 1_555
H12_6 C22_6 1_555 1_555
C24_6 H13_6 1_555 1_555
C25_6 C3_6 1_555 1_555
C27_6 N1_6 1_555 1_555
C29_6 C27_6 1_555 1_555
H15_6 C29_6 1_555 1_555
H16_6 C9_6 1_555 1_555
O8_6 C30_6 1_555 1_555
C30_6 C33_6 1_555 1_555
C31_6 H17_6 1_555 1_555
C32_6 C14_6 1_555 1_555
C33_6 C31_6 1_555 1_555
C34_6 N2_6 1_555 1_555
C35_6 C33_6 1_555 1_555
C36_6 C34_6 1_555 1_555
H19_6 C36_6 1_555 1_555
H20_6 C20_6 1_555 1_555
C7_6 C8_6 1_555 1_555
C10_6 C11_6 1_555 1_555
C17_6 C20_6 1_555 1_555
C18_6 C19_6 1_555 1_555
C21_6 C22_6 1_555 1_555
C24_6 C25_6 1_555 1_555
C25_6 C27_6 1_555 1_555
C28_6 C29_6 1_555 1_555
C31_6 C32_6 1_555 1_555
C32_6 C34_6 1_555 1_555
C35_6 C36_6 1_555 1_555
O11_4 C1_6 1_555 1_555
O2_6 C1_6 1_555 1_555
C1_6 C4_6 1_555 1_555
Cu7_2 O5_6 1_555 1_555
O2_6 Cu5_4 1_555 1_555
O3_3 Cu3 1_555 1_555
O10_5 Cu4 1_555 1_555
O10_6 Cu4_2 1_555 1_555
C6_7 C9_7 1_555 1_555
C9_7 N1_7 1_555 1_555
H4_7 C9_7 1_555 1_555
C10_7 H5_7 1_555 1_555
C11_7 C6_7 1_555 1_555
H6_7 C11_7 1_555 1_555
O4_7 C12_7 1_555 1_555
O13_3 C12_7 1_555 1_555
C12_7 C15_7 1_555 1_555
C13_7 H7_7 1_555 1_555
C14_7 C13_7 1_555 1_555
C15_7 C13_7 1_555 1_555
C16_7 C14_7 1_555 1_555
C18_7 C15_7 1_555 1_555
H8_7 C18_7 1_555 1_555
C19_7 C16_7 1_555 1_555
H16_7 C9_7 1_555 1_555
O8_7 C30_7 1_555 1_555
O15_2 C30_7 1_555 1_555
C30_7 C33_7 1_555 1_555
C31_7 H17_7 1_555 1_555
C32_7 C14_7 1_555 1_555
C33_7 C31_7 1_555 1_555
C35_7 C33_7 1_555 1_555
H18_7 C35_7 1_555 1_555
C36_7 C34_7 1_555 1_555
Cu5_3 O4_7 1_555 1_555
Cu6_2 O8_7 1_555 1_555
C10_7 C11_7 1_555 1_555
C18_7 C19_7 1_555 1_555
C31_7 C32_7 1_555 1_555
C32_7 C34_7 1_555 1_555
C35_7 C36_7 1_555 1_555
Cu5_2 O1_3 1_555 1_555
O1_3 C1_7 1_555 1_555
O13_2 C1_7 1_555 1_555
O3_4 Cu5_2 1_555 1_555
C1_7 C4_7 1_555 1_555
C2_7 H1_7 1_555 1_555
C3_7 C2_7 1_555 1_555
C4_7 C2_7 1_555 1_555
C5_7 C3_7 1_555 1_555
C7_7 C4_7 1_555 1_555
H2_7 C7_7 1_555 1_555
C8_7 C5_7 1_555 1_555
C20_7 N2_7 1_555 1_555
H10_7 C20_7 1_555 1_555
H11_7 C21_7 1_555 1_555
C22_7 C17_7 1_555 1_555
H12_7 C22_7 1_555 1_555
O6_5 C23_7 1_555 1_555
O16 C23_7 1_555 1_555
C23_7 C26_7 1_555 1_555
C24_7 H13_7 1_555 1_555
C25_7 C3_7 1_555 1_555
C26_7 C24_7 1_555 1_555
C28_7 C26_7 1_555 1_555
H14_7 C28_7 1_555 1_555
C29_7 C27_7 1_555 1_555
H20_7 C20_7 1_555 1_555
Cu5 O6_5 1_555 1_555
O10_7 Cu5 1_555 1_555
O11_5 Cu5 1_555 1_555
O12_3 Cu5_2 1_555 1_555
C7_7 C8_7 1_555 1_555
C17_7 C20_7 1_555 1_555
C21_7 C22_7 1_555 1_555
C24_7 C25_7 1_555 1_555
C25_7 C27_7 1_555 1_555
C28_7 C29_7 1_555 1_555
O11_5 C1_8 1_555 1_555
O13 C1_8 1_555 1_555
C1_8 C4_8 1_555 1_555
C2_8 H1_8 1_555 1_555
C3_8 C2_8 1_555 1_555
C4_8 C2_8 1_555 1_555
C5_8 C3_8 1_555 1_555
C7_8 C4_8 1_555 1_555
H2_8 C7_8 1_555 1_555
C8_8 C5_8 1_555 1_555
C20_8 N2_8 1_555 1_555
H10_8 C20_8 1_555 1_555
H11_8 C21_8 1_555 1_555
C22_8 C17_8 1_555 1_555
H12_8 C22_8 1_555 1_555
O6_6 C23_8 1_555 1_555
O15 C23_8 1_555 1_555
C23_8 C26_8 1_555 1_555
C24_8 H13_8 1_555 1_555
C25_8 C3_8 1_555 1_555
C26_8 C24_8 1_555 1_555
C28_8 C26_8 1_555 1_555
H14_8 C28_8 1_555 1_555
C29_8 C27_8 1_555 1_555
H20_8 C20_8 1_555 1_555
Cu6 O6_6 1_555 1_555
O10_8 Cu6 1_555 1_555
O11_6 Cu6 1_555 1_555
C7_8 C8_8 1_555 1_555
C17_8 C20_8 1_555 1_555
C21_8 C22_8 1_555 1_555
C24_8 C25_8 1_555 1_555
C25_8 C27_8 1_555 1_555
C28_8 C29_8 1_555 1_555
C6_8 C9_8 1_555 1_555
C9_8 N1_8 1_555 1_555
H4_8 C9_8 1_555 1_555
C10_8 H5_8 1_555 1_555
C11_8 C6_8 1_555 1_555
H6_8 C11_8 1_555 1_555
O4_8 C12_8 1_555 1_555
O13_4 C12_8 1_555 1_555
C12_8 C15_8 1_555 1_555
C13_8 H7_8 1_555 1_555
C14_8 C13_8 1_555 1_555
C15_8 C13_8 1_555 1_555
C16_8 C14_8 1_555 1_555
C18_8 C15_8 1_555 1_555
H8_8 C18_8 1_555 1_555
C19_8 C16_8 1_555 1_555
H16_8 C9_8 1_555 1_555
O8_8 C30_8 1_555 1_555
O16_3 C30_8 1_555 1_555
C30_8 C33_8 1_555 1_555
C31_8 H17_8 1_555 1_555
C32_8 C14_8 1_555 1_555
C33_8 C31_8 1_555 1_555
C35_8 C33_8 1_555 1_555
H18_8 C35_8 1_555 1_555
C36_8 C34_8 1_555 1_555
Cu5_4 O4_8 1_555 1_555
Cu5_3 O8_8 1_555 1_555
C10_8 C11_8 1_555 1_555
C18_8 C19_8 1_555 1_555
C31_8 C32_8 1_555 1_555
C32_8 C34_8 1_555 1_555
C35_8 C36_8 1_555 1_555
O11_6 C1_9 1_555 1_555
O14 C1_9 1_555 1_555
N1_9 C5_9 1_555 1_555
C1_9 C4_9 1_555 1_555
C2_9 H1_9 1_555 1_555
C3_9 C2_9 1_555 1_555
C4_9 C2_9 1_555 1_555
C5_9 C3_9 1_555 1_555
C6_9 C9_9 1_555 1_555
C7_9 C4_9 1_555 1_555
H2_9 C7_9 1_555 1_555
C8_9 C5_9 1_555 1_555
H3_9 C8_9 1_555 1_555
C9_9 N1_9 1_555 1_555
H4_9 C9_9 1_555 1_555
C10_9 H5_9 1_555 1_555
C11_9 C6_9 1_555 1_555
H6_9 C11_9 1_555 1_555
O4_9 C12_9 1_555 1_555
O14_2 C12_9 1_555 1_555
N2_9 C16_9 1_555 1_555
C12_9 C15_9 1_555 1_555
C13_9 H7_9 1_555 1_555
C14_9 C13_9 1_555 1_555
C15_9 C13_9 1_555 1_555
C16_9 C14_9 1_555 1_555
C17_9 C10_9 1_555 1_555
C18_9 C15_9 1_555 1_555
H8_9 C18_9 1_555 1_555
C19_9 C16_9 1_555 1_555
H9_9 C19_9 1_555 1_555
C20_9 N2_9 1_555 1_555
H10_9 C20_9 1_555 1_555
C21_9 C6_9 1_555 1_555
H11_9 C21_9 1_555 1_555
C22_9 C17_9 1_555 1_555
H12_9 C22_9 1_555 1_555
O12_3 C23_9 1_555 1_555
O16_2 C23_9 1_555 1_555
C23_9 C26_9 1_555 1_555
C24_9 H13_9 1_555 1_555
C25_9 C3_9 1_555 1_555
C26_9 C24_9 1_555 1_555
C27_9 N1_9 1_555 1_555
C28_9 C26_9 1_555 1_555
H14_9 C28_9 1_555 1_555
C29_9 C27_9 1_555 1_555
H15_9 C29_9 1_555 1_555
H16_9 C9_9 1_555 1_555
O8_9 C30_9 1_555 1_555
O16_4 C30_9 1_555 1_555
C30_9 C33_9 1_555 1_555
C31_9 H17_9 1_555 1_555
C32_9 C14_9 1_555 1_555
C33_9 C31_9 1_555 1_555
C34_9 N2_9 1_555 1_555
C35_9 C33_9 1_555 1_555
H18_9 C35_9 1_555 1_555
C36_9 C34_9 1_555 1_555
H19_9 C36_9 1_555 1_555
H20_9 C20_9 1_555 1_555
Cu6_2 O4_9 1_555 1_555
Cu5_4 O8_9 1_555 1_555
C7_9 C8_9 1_555 1_555
C10_9 C11_9 1_555 1_555
C17_9 C20_9 1_555 1_555
C18_9 C19_9 1_555 1_555
C21_9 C22_9 1_555 1_555
C24_9 C25_9 1_555 1_555
C25_9 C27_9 1_555 1_555
C28_9 C29_9 1_555 1_555
C31_9 C32_9 1_555 1_555
C32_9 C34_9 1_555 1_555
C35_9 C36_9 1_555 1_555
O3_5 Cu5_4 1_555 1_555
O10_9 Cu5_3 1_555 1_555
O10_10 Cu6_2 1_555 1_555
O3_6 Cu7_2 1_555 1_555
O10_11 Cu7 1_555 1_555
O10_12 Cu8 1_555 1_555

#END
