
###############################################################################
#
# This file contains modified crystal structure data generated from the
# MOF subset of the Cambridge Structural Database (CSD) v543 
# hosted by the Cambridge Crystallographic Data Centre (CCDC).
#
# This work is licensed under the Creative Commons
# Attribution-NonCommercial-ShareAlike 4.0 International License.
# To view a copy of this license, visit
# http://creativecommons.org/licenses/by-nc-sa/4.0/
# or send a letter to
# Creative Commons, PO Box 1866, Mountain View, CA 94042, USA.
#
# CIF created using the CSD Python API on 29 September 2022
# The structure has been converted into the P1 space group
# The structure has a 3D framework
# The original CSD entry QUVDUH is in the orthorhombic crystal system
# The original CSD entry QUVDUH is in a Sohncke space group
# The framework has been calculated to contain at least 10.0% void space
# The void calculation uses a probe of radius 1.32A, grid spacing 0.4
#
###############################################################################

data_QUVDUH
_chemical_formula_moiety         '(C56 H64 N8 O70 P8 Y8)n'
_symmetry_cell_setting           triclinic
_symmetry_space_group_name_H-M   'P 1'
_symmetry_Int_Tables_number      1
_space_group_name_Hall           'P 1'
loop_
_symmetry_equiv_pos_site_id
_symmetry_equiv_pos_as_xyz
1 x,y,z
_cell_length_a                   11.358(4)
_cell_length_b                   14.829(5)
_cell_length_c                   16.325(6)
_cell_angle_alpha                90
_cell_angle_beta                 90
_cell_angle_gamma                90
_cell_volume                     2749.58
loop_
_atom_site_label
_atom_site_type_symbol
_atom_site_fract_x
_atom_site_fract_y
_atom_site_fract_z
C5 C 0.0268(13) 0.0646(11) 0.1963(9)
H13 H 0.0028 0.1218 0.1801
C6 C 0.1060(16) 0.0135(11) 0.1456(10)
H14 H 0.1300 0.0363 0.0952
N2 N 0.1044(11) 0.8989(7) 0.2430(8)
H6 H 0.1294 0.8471 0.2593
C7 C 0.1452(13) 0.9330(10) 0.1711(10)
H15 H 0.1996 0.9009 0.1400
C8 C 0.0242(12) 0.9449(10) 0.2906(9)
Y1 Y 0.72445(10) 0.25503(6) 0.56866(5)
P1 P 0.7434(3) 0.18226(19) 0.16747(17)
P2 P 0.6786(3) 0.0518(2) 0.45313(18)
O1 O 0.8229(11) 0.2393(6) 0.2179(6)
O2 O 0.7729(9) 0.1708(6) 0.0797(5)
O3 O 0.6105(10) 0.2104(8) 0.1709(7)
H1 H 0.6025 0.2526 0.2028
O5 O 0.7319(10) 0.1157(5) 0.5125(5)
O6 O 0.5456(9) 0.0477(8) 0.4698(7)
O7 O 0.6065(7) 0.2744(6) 0.4493(5)
O8 O 0.4225(7) 0.2652(8) 0.4008(5)
O9 O 0.3453(7) 0.2217(7) 0.5480(5)
O10 O 0.5258(7) 0.2372(7) 0.6008(5)
O11 O 0.7224(9) 0.1501(5) 0.6781(5)
O12 O 0.7401(8) 0.1305(5) 0.8135(4)
O13 O 0.7738(9) 0.3030(5) 0.8348(4)
O14 O 0.7507(8) 0.3268(5) 0.6993(5)
O15 O 0.4692(7) 0.3494(6) 0.0488(6)
O18 O 0.3934(7) 0.1841(6) 0.0132(5)
O19 O 0.6875(11) 0.4091(8) 0.5514(7)
H3 H 0.7444 0.4328 0.5254
H4 H 0.6820 0.4347 0.5979
N1 N 0.7728(11) 0.0532(6) 0.2958(5)
C1 C 0.7436(10) 0.0673(7) 0.2061(6)
H7 H 0.6663 0.0417 0.1961
H8 H 0.7996 0.0328 0.1740
C2 C 0.6866(12) 0.1008(9) 0.3484(7)
H9 H 0.6094 0.0976 0.3231
H10 H 0.7085 0.1638 0.3523
C3 C 0.8977(12) 0.0762(9) 0.3189(8)
H11 H 0.9086 0.1409 0.3142
H12 H 0.9107 0.0597 0.3757
C4 C 0.9875(12) 0.0298(8) 0.2668(8)
C9 C 0.4981(10) 0.2603(8) 0.4566(7)
C10 C 0.4495(10) 0.2368(10) 0.5410(8)
C11 C 0.7382(10) 0.1761(7) 0.7496(6)
C12 C 0.7536(10) 0.2774(7) 0.7629(6)
C13 C 0.5416(12) 0.2974(9) 0.0122(7)
Y3 Y 0.22445(10) 0.24497(6) 0.43134(5)
Y4 Y 0.76720(10) 0.19497(6) 0.94548(6)
Y6 Y 0.26720(10) 0.30503(6) 0.05452(6)
O21 O 0.9225(7) 0.2348(8) 0.5992(5)
O22 O 0.8453(7) 0.2783(7) 0.4520(5)
O16 O 0.6425(7) 0.3156(6) 0.9932(5)
O17 O 0.5657(7) 0.1529(5) 0.9568(6)
C14 C 0.4942(10) 0.2026(8) 0.9915(7)
O20 O 0.7646(8) 0.0397(5) 0.9501(4)
O25 O 0.9692(7) 0.1506(6) 0.9512(6)
O26 O 0.8934(7) 0.3159(6) 0.9868(5)
O4 O 0.7354(8) 0.9603(5) 0.4501(4)
H2 H 0.5232 0.9953 0.4671
H5 H 0.7636 0.9933 0.3059
H16 H 0.9950 0.9190 0.3383
Y5 Y 0.73280(10) 0.80503(6) 0.44548(6)
O9_2 O 0.1547(7) 0.7783(7) 0.0480(5)
C10_2 C 0.0505(10) 0.7632(10) 0.0410(8)
O8_2 O 0.0775(7) 0.7348(8) 0.9008(5)
O15_2 O 0.0308(7) 0.6506(6) 0.5488(6)
O18_2 O 0.1066(7) 0.8159(6) 0.5132(5)
C9_2 C 0.0019(10) 0.7397(8) 0.9566(7)
C14_2 C 0.0058(10) 0.7974(8) 0.4915(7)
Y3_2 Y 0.27555(10) 0.75503(6) 0.93134(5)
Y6_2 Y 0.23280(10) 0.69497(6) 0.55452(6)
H2_2 H 0.9768 0.0047 0.9671
H5_2 H 0.7364 0.0067 0.8059
N2_2 N 0.3956(11) 0.1011(7) 0.7430(8)
H6_2 H 0.3706 0.1529 0.7593
C7_2 C 0.3548(13) 0.0670(10) 0.6711(10)
H15_2 H 0.3004 0.0991 0.6400
C8_2 C 0.4758(12) 0.0551(10) 0.7906(9)
H16_2 H 0.5050 0.0810 0.8383
Y1_2 Y 0.77555(10) 0.74497(6) 0.06866(5)
O5_2 O 0.7681(10) 0.8843(5) 0.0125(5)
O10_2 O 0.9742(7) 0.7628(7) 0.1008(5)
O11_2 O 0.7776(9) 0.8499(5) 0.1781(5)
O12_2 O 0.7599(8) 0.8695(5) 0.3135(4)
O13_2 O 0.7262(9) 0.6970(5) 0.3348(4)
O14_2 O 0.7493(8) 0.6732(5) 0.1993(5)
O19_2 O 0.8125(11) 0.5909(8) 0.0514(7)
H3_2 H 0.7556 0.5672 0.0254
H4_2 H 0.8180 0.5653 0.0979
C11_2 C 0.7618(10) 0.8239(7) 0.2496(6)
C12_2 C 0.7464(10) 0.7226(7) 0.2629(6)
O21_2 O 0.5775(7) 0.7652(8) 0.0992(5)
P1_2 P 0.7566(3) 0.81774(19) 0.66747(17)
P2_2 P 0.8214(3) 0.9482(2) 0.95313(18)
O1_2 O 0.6771(11) 0.7607(6) 0.7179(6)
O2_2 O 0.7271(9) 0.8292(6) 0.5797(5)
O3_2 O 0.8895(10) 0.7896(8) 0.6709(7)
H1_2 H 0.8975 0.7474 0.7028
O6_2 O 0.9544(9) 0.9523(8) 0.9698(7)
O7_2 O 0.8935(7) 0.7256(6) 0.9493(5)
O16_2 O 0.8575(7) 0.6844(6) 0.4932(5)
O17_2 O 0.9343(7) 0.8471(5) 0.4568(6)
N1_2 N 0.7272(11) 0.9468(6) 0.7958(5)
C1_2 C 0.7564(10) 0.9327(7) 0.7061(6)
H7_2 H 0.8337 0.9583 0.6961
H8_2 H 0.7004 0.9672 0.6740
C2_2 C 0.8134(12) 0.8992(9) 0.8484(7)
H9_2 H 0.8906 0.9024 0.8231
H10_2 H 0.7915 0.8362 0.8523
C3_2 C 0.6023(12) 0.9238(9) 0.8189(8)
H11_2 H 0.5914 0.8591 0.8142
H12_2 H 0.5893 0.9403 0.8757
C4_2 C 0.5125(12) 0.9702(8) 0.7668(8)
C5_2 C 0.4732(13) 0.9354(11) 0.6963(9)
H13_2 H 0.4972 0.8782 0.6801
C6_2 C 0.3940(16) 0.9865(11) 0.6456(10)
H14_2 H 0.3700 0.9637 0.5952
C13_2 C 0.9584(12) 0.7026(9) 0.5122(7)
O22_2 O 0.6547(7) 0.7217(7) 0.9520(5)
O25_2 O 0.5308(7) 0.8494(6) 0.4512(6)
O26_2 O 0.6066(7) 0.6841(6) 0.4868(5)
P1_3 P 0.2566(3) 0.68226(19) 0.33253(17)
P2_3 P 0.3214(3) 0.5518(2) 0.04687(18)
O1_3 O 0.1771(11) 0.7393(6) 0.2821(6)
O2_3 O 0.2271(9) 0.6708(6) 0.4203(5)
O3_3 O 0.3895(10) 0.7104(8) 0.3291(7)
H1_3 H 0.3975 0.7526 0.2972
O4_2 O 0.2646(8) 0.4603(5) 0.0499(4)
O6_3 O 0.4544(9) 0.5477(8) 0.0302(7)
H2_3 H 0.4768 0.4953 0.0329
O7_3 O 0.3935(7) 0.7744(6) 0.0507(5)
O16_3 O 0.3575(7) 0.8156(6) 0.5068(5)
O17_3 O 0.4343(7) 0.6529(5) 0.5432(6)
N1_3 N 0.2272(11) 0.5532(6) 0.2042(5)
H5_3 H 0.2364 0.4933 0.1941
C1_3 C 0.2564(10) 0.5673(7) 0.2939(6)
H7_3 H 0.3337 0.5417 0.3039
H8_3 H 0.2004 0.5328 0.3260
C2_3 C 0.3134(12) 0.6008(9) 0.1516(7)
H9_3 H 0.3906 0.5976 0.1769
H10_3 H 0.2915 0.6638 0.1477
C3_3 C 0.1023(12) 0.5762(9) 0.1811(8)
H11_3 H 0.0914 0.6409 0.1858
H12_3 H 0.0893 0.5597 0.1243
C4_3 C 0.0125(12) 0.5298(8) 0.2332(8)
H16_3 H 0.0050 0.4190 0.1617
C9_3 C 0.5019(10) 0.7603(8) 0.0434(7)
C13_3 C 0.4584(12) 0.7974(9) 0.4878(7)
C14_3 C 0.5058(10) 0.7026(8) 0.5085(7)
O20_2 O 0.2354(8) 0.5397(5) 0.5499(4)
O23 O 0.2599(8) 0.6305(5) 0.6865(4)
O24 O 0.2262(9) 0.8030(5) 0.6652(4)
O5_3 O 0.2681(10) 0.6157(5) 0.9875(5)
O10_3 O 0.4742(7) 0.7372(7) 0.8992(5)
O11_3 O 0.2776(9) 0.6501(5) 0.8219(5)
O14_3 O 0.2493(8) 0.8268(5) 0.8007(5)
O19_3 O 0.3125(11) 0.9091(8) 0.9486(7)
H3_3 H 0.2556 0.9328 0.9746
H4_3 H 0.3180 0.9347 0.9021
C10_3 C 0.5505(10) 0.7368(10) 0.9590(8)
C11_3 C 0.2618(10) 0.6761(7) 0.7504(6)
C12_3 C 0.2464(10) 0.7774(7) 0.7371(6)
O16_4 O 0.1425(7) 0.1844(6) 0.0068(5)
O17_4 O 0.0657(7) 0.3471(5) 0.0432(6)
O23_2 O 0.2401(8) 0.3695(5) 0.1865(4)
O24_2 O 0.2738(9) 0.1970(5) 0.1652(4)
P1_4 P 0.2434(3) 0.31774(19) 0.83253(17)
P2_4 P 0.1786(3) 0.4482(2) 0.54687(18)
O1_4 O 0.3229(11) 0.2607(6) 0.7821(6)
O2_4 O 0.2729(9) 0.3292(6) 0.9203(5)
O3_4 O 0.1105(10) 0.2896(8) 0.8291(7)
H1_4 H 0.1025 0.2474 0.7972
O5_4 O 0.2319(10) 0.3843(5) 0.4875(5)
O6_4 O 0.0456(9) 0.4523(8) 0.5302(7)
H2_4 H 0.0232 0.5047 0.5329
O7_4 O 0.1065(7) 0.2256(6) 0.5507(5)
O10_4 O 0.0258(7) 0.2628(7) 0.3992(5)
O11_4 O 0.2224(9) 0.3499(5) 0.3219(5)
O14_4 O 0.2507(8) 0.1732(5) 0.3007(5)
O19_4 O 0.1875(11) 0.0909(8) 0.4486(7)
H3_4 H 0.2444 0.0672 0.4746
H4_4 H 0.1820 0.0653 0.4021
N1_4 N 0.2728(11) 0.4468(6) 0.7042(5)
H5_4 H 0.2636 0.5067 0.6941
N2_3 N 0.6044(11) 0.6011(7) 0.7570(8)
H6_3 H 0.6294 0.6529 0.7407
C1_4 C 0.2436(10) 0.4327(7) 0.7939(6)
H7_4 H 0.1663 0.4583 0.8039
H8_4 H 0.2996 0.4672 0.8260
C2_4 C 0.1866(12) 0.3992(9) 0.6516(7)
H9_4 H 0.1094 0.4024 0.6769
H10_4 H 0.2085 0.3362 0.6477
C3_4 C 0.3977(12) 0.4238(9) 0.6811(8)
H11_4 H 0.4086 0.3591 0.6858
H12_4 H 0.4107 0.4403 0.6243
C4_4 C 0.4875(12) 0.4702(8) 0.7332(8)
C5_3 C 0.5268(13) 0.4354(11) 0.8037(9)
H13_3 H 0.5028 0.3782 0.8199
C6_3 C 0.6060(16) 0.4865(11) 0.8544(10)
H14_3 H 0.6300 0.4637 0.9048
C7_3 C 0.6452(13) 0.5670(10) 0.8289(10)
H15_3 H 0.6996 0.5991 0.8600
C8_3 C 0.5242(12) 0.5551(10) 0.7094(9)
H16_4 H 0.4950 0.5810 0.6617
C11_4 C 0.2382(10) 0.3239(7) 0.2504(6)
C12_4 C 0.2536(10) 0.2226(7) 0.2371(6)
C13_4 C 0.0416(12) 0.2026(9) 0.9878(7)
C9_4 C 0.9981(10) 0.2397(8) 0.5434(7)
C10_4 C 0.9495(10) 0.2632(10) 0.4590(8)
N2_4 N 0.8956(11) 0.3989(7) 0.2570(8)
H6_4 H 0.8706 0.3471 0.2407
C5_4 C 0.9732(13) 0.5646(11) 0.3037(9)
H13_4 H 0.9972 0.6218 0.3199
C6_4 C 0.8940(16) 0.5135(11) 0.3544(10)
H14_4 H 0.8700 0.5363 0.4048
C7_4 C 0.8548(13) 0.4330(10) 0.3289(10)
H15_4 H 0.8004 0.4009 0.3600
C8_4 C 0.9758(12) 0.4449(10) 0.2094(9)
C14_4 C 0.9942(10) 0.2974(8) 0.0085(7)
loop_
_geom_bond_atom_site_label_1
_geom_bond_atom_site_label_2
_geom_bond_site_symmetry_1
_geom_bond_site_symmetry_2
H13 C5 1_555 1_555
C6 C5 1_555 1_555
H14 C6 1_555 1_555
N2 H6 1_555 1_555
C7 N2 1_555 1_555
H15 C7 1_555 1_555
C8 N2 1_555 1_555
Y1 O5 1_555 1_555
P1 O1 1_555 1_555
O2 P1 1_555 1_555
O3 P1 1_555 1_555
H1 O3 1_555 1_555
O5 P2 1_555 1_555
O6 P2 1_555 1_555
O7 Y1 1_555 1_555
O8 C9 1_555 1_555
O9 C10 1_555 1_555
O10 Y1 1_555 1_555
O11 Y1 1_555 1_555
O12 C11 1_555 1_555
O13 C12 1_555 1_555
O14 Y1 1_555 1_555
O15 C13 1_555 1_555
O19 Y1 1_555 1_555
H3 O19 1_555 1_555
H4 O19 1_555 1_555
C1 P1 1_555 1_555
H7 C1 1_555 1_555
H8 C1 1_555 1_555
C2 P2 1_555 1_555
H9 C2 1_555 1_555
H10 C2 1_555 1_555
C3 N1 1_555 1_555
H11 C3 1_555 1_555
H12 C3 1_555 1_555
C4 C3 1_555 1_555
C9 O7 1_555 1_555
C10 O10 1_555 1_555
C11 O11 1_555 1_555
C12 O14 1_555 1_555
Y3 O8 1_555 1_555
Y4 O12 1_555 1_555
Y6 O15 1_555 1_555
O21 Y1 1_555 1_555
O22 Y1 1_555 1_555
O9 Y3 1_555 1_555
O13 Y4 1_555 1_555
O18 Y6 1_555 1_555
N1 C1 1_555 1_555
N1 C2 1_555 1_555
C9 C10 1_555 1_555
C11 C12 1_555 1_555
O16 Y4 1_555 1_555
O17 Y4 1_555 1_555
C14 O17 1_555 1_555
O20 Y4 1_555 1_555
O25 Y4 1_555 1_555
O26 Y4 1_555 1_555
O4 Y5 1_555 1_555
O9_2 C10_2 1_555 1_555
O8_2 C9_2 1_555 1_555
O18_2 C14_2 1_555 1_555
Y3_2 O8_2 1_555 1_555
Y6_2 O15_2 1_555 1_555
O18_2 Y6_2 1_555 1_555
N2_2 H6_2 1_555 1_555
C7_2 N2_2 1_555 1_555
H15_2 C7_2 1_555 1_555
C8_2 N2_2 1_555 1_555
H16_2 C8_2 1_555 1_555
Y1_2 O5_2 1_555 1_555
O10_2 Y1_2 1_555 1_555
O11_2 Y1_2 1_555 1_555
O12_2 C11_2 1_555 1_555
O13_2 C12_2 1_555 1_555
O14_2 Y1_2 1_555 1_555
O19_2 Y1_2 1_555 1_555
H3_2 O19_2 1_555 1_555
H4_2 O19_2 1_555 1_555
C11_2 O11_2 1_555 1_555
C12_2 O14_2 1_555 1_555
Y5 O12_2 1_555 1_555
O21_2 Y1_2 1_555 1_555
O13_2 Y5 1_555 1_555
C11_2 C12_2 1_555 1_555
Y5 O2_2 1_555 1_555
P1_2 O1_2 1_555 1_555
O2_2 P1_2 1_555 1_555
O3_2 P1_2 1_555 1_555
H1_2 O3_2 1_555 1_555
O6_2 P2_2 1_555 1_555
O16_2 Y5 1_555 1_555
O17_2 Y5 1_555 1_555
C1_2 P1_2 1_555 1_555
H7_2 C1_2 1_555 1_555
H8_2 C1_2 1_555 1_555
C2_2 P2_2 1_555 1_555
H9_2 C2_2 1_555 1_555
H10_2 C2_2 1_555 1_555
C3_2 N1_2 1_555 1_555
H11_2 C3_2 1_555 1_555
H12_2 C3_2 1_555 1_555
C4_2 C3_2 1_555 1_555
C5_2 C4_2 1_555 1_555
H13_2 C5_2 1_555 1_555
C6_2 C5_2 1_555 1_555
H14_2 C6_2 1_555 1_555
C13_2 O16_2 1_555 1_555
O25_2 Y5 1_555 1_555
O26_2 Y5 1_555 1_555
N1_2 C1_2 1_555 1_555
N1_2 C2_2 1_555 1_555
Y6_2 O2_3 1_555 1_555
P1_3 O1_3 1_555 1_555
P2_3 O4_2 1_555 1_555
O2_3 P1_3 1_555 1_555
O3_3 P1_3 1_555 1_555
H1_3 O3_3 1_555 1_555
O4_2 Y6 1_555 1_555
O6_3 P2_3 1_555 1_555
H2_3 O6_3 1_555 1_555
O21_2 C9_3 1_555 1_555
O25_2 C13_3 1_555 1_555
O16_3 Y6_2 1_555 1_555
O17_3 Y6_2 1_555 1_555
O26_2 C14_3 1_555 1_555
N1_3 H5_3 1_555 1_555
C1_3 P1_3 1_555 1_555
H7_3 C1_3 1_555 1_555
H8_3 C1_3 1_555 1_555
C2_3 P2_3 1_555 1_555
H9_3 C2_3 1_555 1_555
H10_3 C2_3 1_555 1_555
C3_3 N1_3 1_555 1_555
H11_3 C3_3 1_555 1_555
H12_3 C3_3 1_555 1_555
C4_3 C3_3 1_555 1_555
C9_3 O7_3 1_555 1_555
C13_3 O16_3 1_555 1_555
C14_3 O17_3 1_555 1_555
O20_2 Y6_2 1_555 1_555
O23 Y6_2 1_555 1_555
O24 Y6_2 1_555 1_555
N1_3 C1_3 1_555 1_555
N1_3 C2_3 1_555 1_555
C13_3 C14_3 1_555 1_555
Y3_2 O5_3 1_555 1_555
O22_2 C10_3 1_555 1_555
O10_3 Y3_2 1_555 1_555
O11_3 Y3_2 1_555 1_555
O23 C11_3 1_555 1_555
O24 C12_3 1_555 1_555
O14_3 Y3_2 1_555 1_555
O19_3 Y3_2 1_555 1_555
H3_3 O19_3 1_555 1_555
H4_3 O19_3 1_555 1_555
C10_3 O10_3 1_555 1_555
C11_3 O11_3 1_555 1_555
C12_3 O14_3 1_555 1_555
C11_3 C12_3 1_555 1_555
O16_4 Y6 1_555 1_555
O17_4 Y6 1_555 1_555
O23_2 Y6 1_555 1_555
O24_2 Y6 1_555 1_555
Y3 O5_4 1_555 1_555
P1_4 O1_4 1_555 1_555
P2_4 O20_2 1_555 1_555
O2_4 P1_4 1_555 1_555
O3_4 P1_4 1_555 1_555
H1_4 O3_4 1_555 1_555
O5_4 P2_4 1_555 1_555
O6_4 P2_4 1_555 1_555
H2_4 O6_4 1_555 1_555
O7_4 Y3 1_555 1_555
O10_4 Y3 1_555 1_555
O11_4 Y3 1_555 1_555
O23_2 C11_4 1_555 1_555
O24_2 C12_4 1_555 1_555
O14_4 Y3 1_555 1_555
O19_4 Y3 1_555 1_555
H3_4 O19_4 1_555 1_555
H4_4 O19_4 1_555 1_555
N1_4 H5_4 1_555 1_555
N2_3 H6_3 1_555 1_555
C1_4 P1_4 1_555 1_555
H7_4 C1_4 1_555 1_555
H8_4 C1_4 1_555 1_555
C2_4 P2_4 1_555 1_555
H9_4 C2_4 1_555 1_555
H10_4 C2_4 1_555 1_555
C3_4 N1_4 1_555 1_555
H11_4 C3_4 1_555 1_555
H12_4 C3_4 1_555 1_555
C4_4 C3_4 1_555 1_555
C5_3 C4_4 1_555 1_555
H13_3 C5_3 1_555 1_555
C6_3 C5_3 1_555 1_555
H14_3 C6_3 1_555 1_555
C7_3 N2_3 1_555 1_555
H15_3 C7_3 1_555 1_555
C8_3 N2_3 1_555 1_555
H16_4 C8_3 1_555 1_555
C11_4 O11_4 1_555 1_555
C12_4 O14_4 1_555 1_555
N1_4 C1_4 1_555 1_555
N1_4 C2_4 1_555 1_555
C4_4 C8_3 1_555 1_555
C6_3 C7_3 1_555 1_555
C11_4 C12_4 1_555 1_555
O21 C9_4 1_555 1_555
O22 C10_4 1_555 1_555
C9_4 C10_4 1_555 1_555
N2_4 H6_4 1_555 1_555
H13_4 C5_4 1_555 1_555
C6_4 C5_4 1_555 1_555
H14_4 C6_4 1_555 1_555
C7_4 N2_4 1_555 1_555
H15_4 C7_4 1_555 1_555
C8_4 N2_4 1_555 1_555
C6_4 C7_4 1_555 1_555

#END
