
###############################################################################
#
# This file contains modified crystal structure data generated from the
# MOF subset of the Cambridge Structural Database (CSD) v543 
# hosted by the Cambridge Crystallographic Data Centre (CCDC).
#
# This work is licensed under the Creative Commons
# Attribution-NonCommercial-ShareAlike 4.0 International License.
# To view a copy of this license, visit
# http://creativecommons.org/licenses/by-nc-sa/4.0/
# or send a letter to
# Creative Commons, PO Box 1866, Mountain View, CA 94042, USA.
#
# CIF created using the CSD Python API on 29 September 2022
# The structure has been converted into the P1 space group
# The structure has a 3D framework
# The original CSD entry QUVDOB is in the orthorhombic crystal system
# The original CSD entry QUVDOB is in a Sohncke space group
# The framework has been calculated to contain at least 10.0% void space
# The void calculation uses a probe of radius 1.32A, grid spacing 0.4
#
###############################################################################

data_QUVDOB
_chemical_formula_moiety         '(C56 H64 Dy8 N8 O70 P8)n'
_symmetry_cell_setting           triclinic
_symmetry_space_group_name_H-M   'P 1'
_symmetry_Int_Tables_number      1
_space_group_name_Hall           'P 1'
loop_
_symmetry_equiv_pos_site_id
_symmetry_equiv_pos_as_xyz
1 x,y,z
_cell_length_a                   11.4319(14)
_cell_length_b                   14.8457(19)
_cell_length_c                   16.389(2)
_cell_angle_alpha                90
_cell_angle_beta                 90
_cell_angle_gamma                90
_cell_volume                     2781.45
loop_
_atom_site_label
_atom_site_type_symbol
_atom_site_fract_x
_atom_site_fract_y
_atom_site_fract_z
C5 C 0.032(2) 0.0610(18) 0.1950(14)
H13 H 0.0061 0.1171 0.1772
C6 C 0.1114(19) 0.0149(18) 0.1484(17)
H14 H 0.1411 0.0401 0.1007
N2 N 0.1039(19) 0.9000(13) 0.2419(14)
H6 H 0.1226 0.8463 0.2564
C7 C 0.146(2) 0.932(2) 0.1730(16)
H15 H 0.1983 0.8986 0.1420
C8 C 0.0313(19) 0.9492(16) 0.2910(14)
H16 H 0.0110 0.9277 0.3424
Dy1 Dy 0.72594(7) 0.25592(5) 0.56857(4)
P1 P 0.7417(5) 0.1822(3) 0.1676(3)
P2 P 0.6825(5) 0.0523(3) 0.4527(3)
O1 O 0.8190(16) 0.2361(11) 0.2162(9)
O2 O 0.7676(16) 0.1702(9) 0.0807(7)
O3 O 0.6088(17) 0.2106(14) 0.1715(13)
H1 H 0.6011 0.2527 0.2034
O5 O 0.737(2) 0.1155(8) 0.5106(7)
O6 O 0.5497(16) 0.0455(14) 0.4689(11)
O7 O 0.6072(11) 0.2736(11) 0.4484(10)
O8 O 0.4260(12) 0.2632(13) 0.3997(8)
O9 O 0.3476(11) 0.2205(11) 0.5470(8)
O10 O 0.5284(13) 0.2383(13) 0.5987(8)
O11 O 0.7279(16) 0.1503(8) 0.6779(7)
O12 O 0.7406(17) 0.1314(8) 0.8130(7)
O13 O 0.7718(15) 0.3039(9) 0.8338(7)
O14 O 0.7491(15) 0.3273(8) 0.6997(7)
O15 O 0.4686(11) 0.3496(9) 0.0477(9)
O18 O 0.3916(11) 0.1841(9) 0.0137(9)
O19 O 0.6844(19) 0.4098(11) 0.5511(11)
H3 H 0.7413 0.4336 0.5251
H4 H 0.6790 0.4354 0.5976
N1 N 0.7760(18) 0.0549(10) 0.2957(8)
C1 C 0.7424(18) 0.0685(11) 0.2058(9)
H7 H 0.6649 0.0434 0.1977
H8 H 0.7961 0.0336 0.1726
C2 C 0.689(2) 0.1000(15) 0.3476(12)
H9 H 0.6126 0.0946 0.3224
H10 H 0.7080 0.1636 0.3509
C3 C 0.898(2) 0.0772(15) 0.3172(13)
H11 H 0.9113 0.0621 0.3740
H12 H 0.9094 0.1417 0.3114
C4 C 0.990(2) 0.0284(13) 0.2649(13)
C9 C 0.4999(17) 0.2601(16) 0.4566(12)
C10 C 0.4513(19) 0.2353(16) 0.5426(11)
C11 C 0.7387(17) 0.1765(12) 0.7488(10)
C12 C 0.757(2) 0.2769(12) 0.7628(10)
C13 C 0.5375(15) 0.2976(13) 0.0125(11)
Dy3 Dy 0.22594(7) 0.24408(5) 0.43143(4)
Dy4 Dy 0.76373(8) 0.19486(5) 0.94504(4)
Dy6 Dy 0.26373(8) 0.30514(5) 0.05496(4)
O21 O 0.9260(12) 0.2368(13) 0.6003(8)
O22 O 0.8476(11) 0.2795(11) 0.4530(8)
O16 O 0.6387(11) 0.3161(10) 0.9920(9)
O17 O 0.5644(12) 0.1528(9) 0.9556(10)
C14 C 0.4918(16) 0.2018(15) 0.9923(12)
O20 O 0.7608(12) 0.0388(8) 0.9487(7)
O25 O 0.9686(11) 0.1504(9) 0.9523(9)
O26 O 0.8916(11) 0.3159(9) 0.9863(9)
O4 O 0.7392(12) 0.9612(8) 0.4487(7)
H2 H 0.5291 0.9927 0.4659
H5 H 0.7678 0.9949 0.3056
Dy5 Dy 0.73627(8) 0.80514(5) 0.44504(4)
O9_2 O 0.1524(11) 0.7795(11) 0.0470(8)
C10_2 C 0.0487(19) 0.7647(16) 0.0426(11)
O8_2 O 0.0740(12) 0.7368(13) 0.8997(8)
O15_2 O 0.0314(11) 0.6504(9) 0.5477(9)
O18_2 O 0.1084(11) 0.8159(9) 0.5137(9)
C9_2 C 0.0001(17) 0.7399(16) 0.9566(12)
C14_2 C 0.0082(16) 0.7982(15) 0.4923(12)
Dy3_2 Dy 0.27406(7) 0.75592(5) 0.93143(4)
Dy6_2 Dy 0.23627(8) 0.69486(5) 0.55496(4)
H2_2 H 0.9709 0.0073 0.9659
H5_2 H 0.7322 0.0051 0.8056
N2_2 N 0.3961(19) 0.1000(13) 0.7419(14)
H6_2 H 0.3774 0.1537 0.7564
C7_2 C 0.354(2) 0.068(2) 0.6730(16)
H15_2 H 0.3017 0.1014 0.6420
C8_2 C 0.4687(19) 0.0508(16) 0.7910(14)
H16_2 H 0.4890 0.0723 0.8424
Dy1_2 Dy 0.77406(7) 0.74408(5) 0.06857(4)
O5_2 O 0.763(2) 0.8845(8) 0.0106(7)
O10_2 O 0.9716(13) 0.7617(13) 0.0987(8)
O11_2 O 0.7721(16) 0.8497(8) 0.1779(7)
O12_2 O 0.7594(17) 0.8686(8) 0.3130(7)
O13_2 O 0.7282(15) 0.6961(9) 0.3338(7)
O14_2 O 0.7509(15) 0.6727(8) 0.1997(7)
O19_2 O 0.8156(19) 0.5902(11) 0.0511(11)
H3_2 H 0.7587 0.5664 0.0251
H4_2 H 0.8210 0.5646 0.0976
C11_2 C 0.7613(17) 0.8235(12) 0.2488(10)
C12_2 C 0.743(2) 0.7231(12) 0.2628(10)
O21_2 O 0.5740(12) 0.7632(13) 0.1003(8)
P1_2 P 0.7583(5) 0.8178(3) 0.6676(3)
P2_2 P 0.8175(5) 0.9477(3) 0.9527(3)
O1_2 O 0.6810(16) 0.7639(11) 0.7162(9)
O2_2 O 0.7324(16) 0.8298(9) 0.5807(7)
O3_2 O 0.8912(17) 0.7894(14) 0.6715(13)
H1_2 H 0.8989 0.7473 0.7034
O6_2 O 0.9503(16) 0.9545(14) 0.9689(11)
O7_2 O 0.8928(11) 0.7264(11) 0.9484(10)
O16_2 O 0.8613(11) 0.6839(10) 0.4920(9)
O17_2 O 0.9356(12) 0.8472(9) 0.4556(10)
N1_2 N 0.7240(18) 0.9451(10) 0.7957(8)
C1_2 C 0.7576(18) 0.9315(11) 0.7058(9)
H7_2 H 0.8351 0.9566 0.6977
H8_2 H 0.7039 0.9664 0.6726
C2_2 C 0.811(2) 0.9000(15) 0.8476(12)
H9_2 H 0.8874 0.9054 0.8224
H10_2 H 0.7920 0.8364 0.8509
C3_2 C 0.602(2) 0.9228(15) 0.8172(13)
H11_2 H 0.5887 0.9379 0.8740
H12_2 H 0.5906 0.8583 0.8114
C4_2 C 0.510(2) 0.9716(13) 0.7649(13)
C5_2 C 0.468(2) 0.9390(18) 0.6950(14)
H13_2 H 0.4939 0.8829 0.6772
C6_2 C 0.3886(19) 0.9851(18) 0.6484(17)
H14_2 H 0.3589 0.9599 0.6007
C13_2 C 0.9625(15) 0.7024(13) 0.5125(11)
O22_2 O 0.6524(11) 0.7205(11) 0.9530(8)
O25_2 O 0.5314(11) 0.8496(9) 0.4523(9)
O26_2 O 0.6084(11) 0.6841(9) 0.4863(9)
P1_3 P 0.2583(5) 0.6822(3) 0.3324(3)
P2_3 P 0.3175(5) 0.5523(3) 0.0473(3)
O1_3 O 0.1810(16) 0.7361(11) 0.2838(9)
O2_3 O 0.2324(16) 0.6702(9) 0.4193(7)
O3_3 O 0.3912(17) 0.7106(14) 0.3285(13)
H1_3 H 0.3989 0.7527 0.2966
O4_2 O 0.2608(12) 0.4612(8) 0.0513(7)
O6_3 O 0.4503(16) 0.5455(14) 0.0311(11)
H2_3 H 0.4709 0.4927 0.0341
O7_3 O 0.3928(11) 0.7736(11) 0.0516(10)
O16_3 O 0.3613(11) 0.8161(10) 0.5080(9)
O17_3 O 0.4356(12) 0.6528(9) 0.5444(10)
N1_3 N 0.2240(18) 0.5549(10) 0.2043(8)
H5_3 H 0.2322 0.4949 0.1944
C1_3 C 0.2576(18) 0.5685(11) 0.2942(9)
H7_3 H 0.3351 0.5434 0.3023
H8_3 H 0.2039 0.5336 0.3274
C2_3 C 0.311(2) 0.6000(15) 0.1524(12)
H9_3 H 0.3874 0.5946 0.1776
H10_3 H 0.2920 0.6636 0.1491
C3_3 C 0.102(2) 0.5772(15) 0.1828(13)
H11_3 H 0.0887 0.5621 0.1260
H12_3 H 0.0906 0.6417 0.1886
C4_3 C 0.010(2) 0.5284(13) 0.2351(13)
C9_3 C 0.5001(17) 0.7601(16) 0.0434(12)
C13_3 C 0.4625(15) 0.7976(13) 0.4875(11)
C14_3 C 0.5082(16) 0.7018(15) 0.5077(12)
O20_2 O 0.2392(12) 0.5388(8) 0.5513(7)
O23 O 0.2594(17) 0.6314(8) 0.6870(7)
O24 O 0.2282(15) 0.8039(9) 0.6662(7)
O5_3 O 0.263(2) 0.6155(8) 0.9894(7)
O10_3 O 0.4716(13) 0.7383(13) 0.9013(8)
O11_3 O 0.2721(16) 0.6503(8) 0.8221(7)
O14_3 O 0.2509(15) 0.8273(8) 0.8003(7)
O19_3 O 0.3156(19) 0.9098(11) 0.9489(11)
H3_3 H 0.2587 0.9336 0.9749
H4_3 H 0.3210 0.9354 0.9024
C10_3 C 0.5487(19) 0.7353(16) 0.9574(11)
C11_3 C 0.2613(17) 0.6765(12) 0.7512(10)
C12_3 C 0.243(2) 0.7769(12) 0.7372(10)
O16_4 O 0.1387(11) 0.1839(10) 0.0080(9)
O17_4 O 0.0644(12) 0.3472(9) 0.0444(10)
O23_2 O 0.2406(17) 0.3686(8) 0.1870(7)
O24_2 O 0.2718(15) 0.1961(9) 0.1662(7)
P1_4 P 0.2417(5) 0.3178(3) 0.8324(3)
P2_4 P 0.1825(5) 0.4477(3) 0.5473(3)
O1_4 O 0.3190(16) 0.2639(11) 0.7838(9)
O2_4 O 0.2676(16) 0.3298(9) 0.9193(7)
O3_4 O 0.1088(17) 0.2894(14) 0.8285(13)
H1_4 H 0.1011 0.2473 0.7966
O5_4 O 0.237(2) 0.3845(8) 0.4894(7)
O6_4 O 0.0497(16) 0.4545(14) 0.5311(11)
H2_4 H 0.0291 0.5073 0.5341
O7_4 O 0.1072(11) 0.2264(11) 0.5516(10)
O10_4 O 0.0284(13) 0.2617(13) 0.4013(8)
O11_4 O 0.2279(16) 0.3497(8) 0.3221(7)
O14_4 O 0.2491(15) 0.1727(8) 0.3003(7)
O19_4 O 0.1844(19) 0.0902(11) 0.4489(11)
H3_4 H 0.2413 0.0664 0.4749
H4_4 H 0.1790 0.0646 0.4024
N1_4 N 0.2760(18) 0.4451(10) 0.7043(8)
H5_4 H 0.2678 0.5051 0.6944
N2_3 N 0.6039(19) 0.6000(13) 0.7581(14)
H6_3 H 0.6226 0.6537 0.7436
C1_4 C 0.2424(18) 0.4315(11) 0.7942(9)
H7_4 H 0.1649 0.4566 0.8023
H8_4 H 0.2961 0.4664 0.8274
C2_4 C 0.189(2) 0.4000(15) 0.6524(12)
H9_4 H 0.1126 0.4054 0.6776
H10_4 H 0.2080 0.3364 0.6491
C3_4 C 0.398(2) 0.4228(15) 0.6828(13)
H11_4 H 0.4113 0.4379 0.6260
H12_4 H 0.4094 0.3583 0.6886
C4_4 C 0.490(2) 0.4716(13) 0.7351(13)
C5_3 C 0.532(2) 0.4390(18) 0.8050(14)
H13_3 H 0.5061 0.3829 0.8228
C6_3 C 0.6114(19) 0.4851(18) 0.8516(17)
H14_3 H 0.6411 0.4599 0.8993
C7_3 C 0.646(2) 0.568(2) 0.8270(16)
H15_3 H 0.6983 0.6014 0.8580
C8_3 C 0.5313(19) 0.5508(16) 0.7090(14)
H16_3 H 0.5110 0.5723 0.6576
C11_4 C 0.2387(17) 0.3235(12) 0.2512(10)
C12_4 C 0.257(2) 0.2231(12) 0.2372(10)
C13_4 C 0.0375(15) 0.2024(13) 0.9875(11)
C9_4 C 0.9999(17) 0.2399(16) 0.5434(12)
C10_4 C 0.9513(19) 0.2647(16) 0.4574(11)
N2_4 N 0.8961(19) 0.4000(13) 0.2581(14)
H6_4 H 0.8774 0.3463 0.2436
C5_4 C 0.968(2) 0.5610(18) 0.3050(14)
H13_4 H 0.9939 0.6171 0.3228
C6_4 C 0.8886(19) 0.5149(18) 0.3516(17)
H14_4 H 0.8589 0.5401 0.3993
C7_4 C 0.854(2) 0.432(2) 0.3270(16)
H15_4 H 0.8017 0.3986 0.3580
C8_4 C 0.9687(19) 0.4492(16) 0.2090(14)
H16_4 H 0.9890 0.4277 0.1576
C14_4 C 0.9918(16) 0.2982(15) 0.0077(12)
loop_
_geom_bond_atom_site_label_1
_geom_bond_atom_site_label_2
_geom_bond_site_symmetry_1
_geom_bond_site_symmetry_2
H13 C5 1_555 1_555
C6 C5 1_555 1_555
H14 C6 1_555 1_555
N2 H6 1_555 1_555
C7 N2 1_555 1_555
H15 C7 1_555 1_555
C8 N2 1_555 1_555
H16 C8 1_555 1_555
Dy1 O5 1_555 1_555
P1 O1 1_555 1_555
O2 P1 1_555 1_555
O3 P1 1_555 1_555
H1 O3 1_555 1_555
O5 P2 1_555 1_555
O6 P2 1_555 1_555
O7 Dy1 1_555 1_555
O8 C9 1_555 1_555
O9 C10 1_555 1_555
O10 Dy1 1_555 1_555
O11 Dy1 1_555 1_555
O12 C11 1_555 1_555
O13 C12 1_555 1_555
O14 Dy1 1_555 1_555
O15 C13 1_555 1_555
O19 Dy1 1_555 1_555
H3 O19 1_555 1_555
H4 O19 1_555 1_555
C1 P1 1_555 1_555
H7 C1 1_555 1_555
H8 C1 1_555 1_555
C2 P2 1_555 1_555
H9 C2 1_555 1_555
H10 C2 1_555 1_555
C3 N1 1_555 1_555
H11 C3 1_555 1_555
H12 C3 1_555 1_555
C4 C3 1_555 1_555
C9 O7 1_555 1_555
C10 O10 1_555 1_555
C11 O11 1_555 1_555
C12 O14 1_555 1_555
Dy3 O8 1_555 1_555
Dy4 O12 1_555 1_555
Dy6 O15 1_555 1_555
O21 Dy1 1_555 1_555
O22 Dy1 1_555 1_555
O9 Dy3 1_555 1_555
O13 Dy4 1_555 1_555
O18 Dy6 1_555 1_555
N1 C1 1_555 1_555
N1 C2 1_555 1_555
C9 C10 1_555 1_555
C11 C12 1_555 1_555
O16 Dy4 1_555 1_555
O17 Dy4 1_555 1_555
C14 O17 1_555 1_555
O20 Dy4 1_555 1_555
O25 Dy4 1_555 1_555
O26 Dy4 1_555 1_555
O4 Dy5 1_555 1_555
O9_2 C10_2 1_555 1_555
O8_2 C9_2 1_555 1_555
O18_2 C14_2 1_555 1_555
Dy3_2 O8_2 1_555 1_555
Dy6_2 O15_2 1_555 1_555
O18_2 Dy6_2 1_555 1_555
N2_2 H6_2 1_555 1_555
C7_2 N2_2 1_555 1_555
H15_2 C7_2 1_555 1_555
C8_2 N2_2 1_555 1_555
H16_2 C8_2 1_555 1_555
Dy1_2 O5_2 1_555 1_555
O10_2 Dy1_2 1_555 1_555
O11_2 Dy1_2 1_555 1_555
O12_2 C11_2 1_555 1_555
O13_2 C12_2 1_555 1_555
O14_2 Dy1_2 1_555 1_555
O19_2 Dy1_2 1_555 1_555
H3_2 O19_2 1_555 1_555
H4_2 O19_2 1_555 1_555
C11_2 O11_2 1_555 1_555
C12_2 O14_2 1_555 1_555
Dy5 O12_2 1_555 1_555
O21_2 Dy1_2 1_555 1_555
O13_2 Dy5 1_555 1_555
C11_2 C12_2 1_555 1_555
Dy5 O2_2 1_555 1_555
P1_2 O1_2 1_555 1_555
O2_2 P1_2 1_555 1_555
O3_2 P1_2 1_555 1_555
H1_2 O3_2 1_555 1_555
O6_2 P2_2 1_555 1_555
O16_2 Dy5 1_555 1_555
O17_2 Dy5 1_555 1_555
C1_2 P1_2 1_555 1_555
H7_2 C1_2 1_555 1_555
H8_2 C1_2 1_555 1_555
C2_2 P2_2 1_555 1_555
H9_2 C2_2 1_555 1_555
H10_2 C2_2 1_555 1_555
C3_2 N1_2 1_555 1_555
H11_2 C3_2 1_555 1_555
H12_2 C3_2 1_555 1_555
C4_2 C3_2 1_555 1_555
C5_2 C4_2 1_555 1_555
H13_2 C5_2 1_555 1_555
C6_2 C5_2 1_555 1_555
H14_2 C6_2 1_555 1_555
C13_2 O16_2 1_555 1_555
O25_2 Dy5 1_555 1_555
O26_2 Dy5 1_555 1_555
N1_2 C1_2 1_555 1_555
N1_2 C2_2 1_555 1_555
Dy6_2 O2_3 1_555 1_555
P1_3 O1_3 1_555 1_555
P2_3 O4_2 1_555 1_555
O2_3 P1_3 1_555 1_555
O3_3 P1_3 1_555 1_555
H1_3 O3_3 1_555 1_555
O4_2 Dy6 1_555 1_555
O6_3 P2_3 1_555 1_555
H2_3 O6_3 1_555 1_555
O21_2 C9_3 1_555 1_555
O25_2 C13_3 1_555 1_555
O16_3 Dy6_2 1_555 1_555
O17_3 Dy6_2 1_555 1_555
O26_2 C14_3 1_555 1_555
N1_3 H5_3 1_555 1_555
C1_3 P1_3 1_555 1_555
H7_3 C1_3 1_555 1_555
H8_3 C1_3 1_555 1_555
C2_3 P2_3 1_555 1_555
H9_3 C2_3 1_555 1_555
H10_3 C2_3 1_555 1_555
C3_3 N1_3 1_555 1_555
H11_3 C3_3 1_555 1_555
H12_3 C3_3 1_555 1_555
C4_3 C3_3 1_555 1_555
C9_3 O7_3 1_555 1_555
C13_3 O16_3 1_555 1_555
C14_3 O17_3 1_555 1_555
O20_2 Dy6_2 1_555 1_555
O23 Dy6_2 1_555 1_555
O24 Dy6_2 1_555 1_555
N1_3 C1_3 1_555 1_555
N1_3 C2_3 1_555 1_555
C13_3 C14_3 1_555 1_555
Dy3_2 O5_3 1_555 1_555
O22_2 C10_3 1_555 1_555
O10_3 Dy3_2 1_555 1_555
O11_3 Dy3_2 1_555 1_555
O23 C11_3 1_555 1_555
O24 C12_3 1_555 1_555
O14_3 Dy3_2 1_555 1_555
O19_3 Dy3_2 1_555 1_555
H3_3 O19_3 1_555 1_555
H4_3 O19_3 1_555 1_555
C10_3 O10_3 1_555 1_555
C11_3 O11_3 1_555 1_555
C12_3 O14_3 1_555 1_555
C11_3 C12_3 1_555 1_555
O16_4 Dy6 1_555 1_555
O17_4 Dy6 1_555 1_555
O23_2 Dy6 1_555 1_555
O24_2 Dy6 1_555 1_555
Dy3 O5_4 1_555 1_555
P1_4 O1_4 1_555 1_555
P2_4 O20_2 1_555 1_555
O2_4 P1_4 1_555 1_555
O3_4 P1_4 1_555 1_555
H1_4 O3_4 1_555 1_555
O5_4 P2_4 1_555 1_555
O6_4 P2_4 1_555 1_555
H2_4 O6_4 1_555 1_555
O7_4 Dy3 1_555 1_555
O10_4 Dy3 1_555 1_555
O11_4 Dy3 1_555 1_555
O23_2 C11_4 1_555 1_555
O24_2 C12_4 1_555 1_555
O14_4 Dy3 1_555 1_555
O19_4 Dy3 1_555 1_555
H3_4 O19_4 1_555 1_555
H4_4 O19_4 1_555 1_555
N1_4 H5_4 1_555 1_555
N2_3 H6_3 1_555 1_555
C1_4 P1_4 1_555 1_555
H7_4 C1_4 1_555 1_555
H8_4 C1_4 1_555 1_555
C2_4 P2_4 1_555 1_555
H9_4 C2_4 1_555 1_555
H10_4 C2_4 1_555 1_555
C3_4 N1_4 1_555 1_555
H11_4 C3_4 1_555 1_555
H12_4 C3_4 1_555 1_555
C4_4 C3_4 1_555 1_555
C5_3 C4_4 1_555 1_555
H13_3 C5_3 1_555 1_555
C6_3 C5_3 1_555 1_555
H14_3 C6_3 1_555 1_555
C7_3 N2_3 1_555 1_555
H15_3 C7_3 1_555 1_555
C8_3 N2_3 1_555 1_555
H16_3 C8_3 1_555 1_555
C11_4 O11_4 1_555 1_555
C12_4 O14_4 1_555 1_555
N1_4 C1_4 1_555 1_555
N1_4 C2_4 1_555 1_555
C4_4 C8_3 1_555 1_555
C6_3 C7_3 1_555 1_555
C11_4 C12_4 1_555 1_555
O21 C9_4 1_555 1_555
O22 C10_4 1_555 1_555
C9_4 C10_4 1_555 1_555
N2_4 H6_4 1_555 1_555
H13_4 C5_4 1_555 1_555
C6_4 C5_4 1_555 1_555
H14_4 C6_4 1_555 1_555
C7_4 N2_4 1_555 1_555
H15_4 C7_4 1_555 1_555
C8_4 N2_4 1_555 1_555
H16_4 C8_4 1_555 1_555
C6_4 C7_4 1_555 1_555

#END
