
###############################################################################
#
# This file contains modified crystal structure data generated from the
# MOF subset of the Cambridge Structural Database (CSD) v543 
# hosted by the Cambridge Crystallographic Data Centre (CCDC).
#
# This work is licensed under the Creative Commons
# Attribution-NonCommercial-ShareAlike 4.0 International License.
# To view a copy of this license, visit
# http://creativecommons.org/licenses/by-nc-sa/4.0/
# or send a letter to
# Creative Commons, PO Box 1866, Mountain View, CA 94042, USA.
#
# CIF created using the CSD Python API on 29 September 2022
# The structure has been converted into the P1 space group
# The structure has a 3D framework
# The original CSD entry QUVGEV is in the monoclinic crystal system
# The framework has been calculated to contain at least 10.0% void space
# The void calculation uses a probe of radius 1.32A, grid spacing 0.4
#
###############################################################################

data_QUVGEV
_chemical_formula_moiety         '(C320 H196 N16 O104 S16 Tb16)n'
_symmetry_cell_setting           triclinic
_symmetry_space_group_name_H-M   'P 1'
_symmetry_Int_Tables_number      1
_space_group_name_Hall           'P 1'
loop_
_symmetry_equiv_pos_site_id
_symmetry_equiv_pos_as_xyz
1 x,y,z
_cell_length_a                   14.107(3)
_cell_length_b                   35.234(6)
_cell_length_c                   17.394(3)
_cell_angle_alpha                90
_cell_angle_beta                 92.918(3)
_cell_angle_gamma                90
_cell_volume                     8634.41
loop_
_atom_site_label
_atom_site_type_symbol
_atom_site_fract_x
_atom_site_fract_y
_atom_site_fract_z
S3 S 0.3360(2) 0.23780(10) 0.4848(2)
O2 O 0.0184(5) 0.0020(2) 0.3075(5)
O6 O 0.6365(5) 0.0127(2) 0.2022(5)
O13 O 0.0866(5) 0.0903(2) 0.3351(5)
O15 O 0.3957(6) 0.2190(2) 0.5422(6)
O16 O 0.3799(6) 0.2623(3) 0.4307(6)
O17 O 0.0484(5) 0.3636(2) 0.6463(5)
C29 C 0.0699(8) 0.1255(3) 0.3296(7)
C30 C 0.1434(8) 0.1524(3) 0.3639(7)
C31 C 0.1405(8) 0.1904(3) 0.3411(7)
H17 H 0.0972 0.1983 0.3022
C32 C 0.2018(9) 0.2160(3) 0.3765(8)
H18 H 0.2005 0.2414 0.3617
C33 C 0.2652(8) 0.2039(3) 0.4339(8)
C34 C 0.2680(9) 0.1669(3) 0.4557(8)
H19 H 0.3103 0.1589 0.4952
C35 C 0.2085(8) 0.1414(3) 0.4192(8)
H20 H 0.2128 0.1158 0.4327
C36 C 0.0414(8) 0.3296(3) 0.6396(7)
C37 C 0.1157(8) 0.3071(3) 0.6039(7)
C38 C 0.1359(9) 0.2705(3) 0.6284(8)
H21 H 0.1031 0.2597 0.6680
C39 C 0.2062(9) 0.2497(3) 0.5929(8)
H22 H 0.2225 0.2256 0.6107
C40 C 0.2511(8) 0.2651(3) 0.5315(8)
C41 C 0.2282(8) 0.3004(3) 0.5057(7)
H23 H 0.2577 0.3103 0.4634
C42 C 0.1613(8) 0.3220(3) 0.5418(7)
H24 H 0.1469 0.3463 0.5243
Tb6 Tb 0.85532(4) 0.027786(13) 0.13699(3)
Tb9 Tb 0.67873(3) 0.067115(14) 0.26982(3)
O31 O 0.0237(8) 0.0433(6) 0.4679(7)
O33 O 0.0484(5) 0.1364(2) 0.1463(5)
S2 S 0.1579(4) 0.16126(14) 0.7763(2)
O9 O 0.2534(9) 0.1465(4) 0.7883(7)
O10 O 0.1417(8) 0.2010(3) 0.7736(6)
C18 C 0.0144(11) 0.1640(4) 0.8754(9)
H10 H 0.0000 0.1875 0.8536
C19 C 0.0875(10) 0.1429(4) 0.8504(7)
C20 C 0.1074(9) 0.1082(4) 0.8771(8)
H11 H 0.1564 0.0943 0.8569
C21 C 0.0546(8) 0.0927(3) 0.9355(6)
H12 H 0.0686 0.0687 0.9552
C23 C 0.0400(10) 0.1047(4) 0.5636(9)
C24 C 0.1065(14) 0.0854(6) 0.6073(12)
H13 H 0.1300 0.0615 0.5959
C25 C 0.1333(19) 0.1063(9) 0.6700(11)
H14 H 0.1781 0.0948 0.7035
C26 C 0.1049(14) 0.1413(6) 0.6916(10)
C27 C 0.0363(18) 0.1601(6) 0.6507(11)
H15 H 0.0138 0.1840 0.6638
C28 C 0.0004(15) 0.1380(4) 0.5813(10)
S1 S 0.3466(2) 0.87145(9) 0.2270(3)
O3 O 0.3329(6) 0.8500(2) 0.1580(7)
O4 O 0.3541(6) 0.8525(2) 0.3006(6)
O5 O 0.7461(5) 0.97376(19) 0.1605(5)
C1 C 0.0278(8) 0.9854(3) 0.2453(8)
C2 C 0.1079(7) 0.9565(3) 0.2412(8)
C3 C 0.1498(8) 0.9430(3) 0.3095(8)
H1 H 0.1306 0.9513 0.3570
C4 C 0.2248(8) 0.9153(3) 0.3038(9)
H2 H 0.2529 0.9043 0.3480
C5 C 0.2539(8) 0.9053(3) 0.2325(9)
C6 C 0.2117(9) 0.9195(4) 0.1657(9)
H3 H 0.2322 0.9116 0.1183
C7 C 0.1391(8) 0.9452(3) 0.1692(7)
H4 H 0.1106 0.9551 0.1242
C8 C 0.6669(8) 0.9801(3) 0.1868(7)
C9 C 0.5986(8) 0.9495(3) 0.2020(8)
C10 C 0.5496(9) 0.9498(4) 0.2679(9)
H5 H 0.5658 0.9674 0.3062
C11 C 0.4762(10) 0.9243(4) 0.2789(9)
H6 H 0.4458 0.9237 0.3251
C12 C 0.4494(8) 0.8997(3) 0.2194(8)
C13 C 0.4995(11) 0.8976(4) 0.1561(10)
H7 H 0.4825 0.8802 0.1176
C14 C 0.5789(10) 0.9221(4) 0.1478(8)
H8 H 0.6169 0.9195 0.1060
O24 O 0.7355(6) 0.0300(2) 0.0292(5)
Tb2 Tb 0.93775(4) 0.057171(14) 0.34327(3)
Tb3 Tb 0.88138(4) 0.131978(14) 0.19787(3)
N1 N 0.7386(6) 0.1706(2) 0.1362(6)
N2 N 0.8161(6) 0.1880(2) 0.2788(6)
N3 N 0.5622(6) 0.0990(3) 0.1734(6)
N4 N 0.6066(6) 0.1285(2) 0.3133(6)
O7 O 0.9357(6) 0.0637(2) 0.0440(5)
O8 O 0.8778(5) 0.1213(2) 0.0638(5)
O14 O 0.9949(5) 0.1393(2) 0.2999(5)
O18 O 0.9667(6) 0.3123(2) 0.6605(5)
O19 O 0.8310(6) 0.0314(3) 0.4305(5)
O20 O 0.6818(5) 0.0477(2) 0.3950(4)
O25 O 0.9519(4) 0.07149(17) 0.2102(4)
O26 O 0.7641(4) 0.08242(16) 0.1638(4)
O27 O 0.8154(4) 0.02686(17) 0.2692(4)
O28 O 0.8148(4) 0.10228(18) 0.3088(4)
C15 C 0.9280(8) 0.0981(4) 0.0287(7)
C43 C 0.7439(9) 0.0323(3) 0.4411(7)
C44 C 0.7068(7) 0.0121(3) 0.5104(6)
C45 C 0.6164(8) 0.0172(3) 0.5322(7)
H25 H 0.5775 0.0348 0.5060
H26 H 0.5201 0.0010 0.6059
C50 C 0.7741(8) 0.0018(3) 0.9982(7)
H29 H 0.6143 0.0180 0.9213
C57 C 0.7004(8) 0.1636(4) 0.0675(8)
H33 H 0.7233 0.1428 0.0412
C58 C 0.6260(9) 0.1855(4) 0.0294(9)
C59 C 0.5914(10) 0.2146(5) 0.0682(10)
H35 H 0.5421 0.2292 0.0462
C60 C 0.6285(9) 0.2229(3) 0.1398(9)
C61 C 0.5935(12) 0.2543(4) 0.1815(11)
H36 H 0.5448 0.2692 0.1594
C62 C 0.6294(11) 0.2627(4) 0.2511(12)
H37 H 0.6041 0.2828 0.2779
C63 C 0.7065(11) 0.2413(3) 0.2862(10)
C64 C 0.7521(12) 0.2509(4) 0.3568(13)
H38 H 0.7347 0.2729 0.3821
C65 C 0.8218(12) 0.2283(4) 0.3889(9)
H39 H 0.8475 0.2335 0.4381
C66 C 0.8549(9) 0.1969(4) 0.3473(8)
H40 H 0.9045 0.1822 0.3685
C67 C 0.7436(8) 0.2106(3) 0.2465(8)
C68 C 0.7017(8) 0.2007(3) 0.1733(8)
C69 C 0.5378(9) 0.0831(4) 0.1056(7)
H41 H 0.5705 0.0619 0.0895
C70 C 0.4643(10) 0.0978(5) 0.0587(9)
H42 H 0.4483 0.0863 0.0117
C71 C 0.4168(11) 0.1281(6) 0.0802(12)
H43 H 0.3675 0.1375 0.0482
C72 C 0.4394(10) 0.1460(5) 0.1498(11)
C73 C 0.3895(14) 0.1786(7) 0.1745(14)
H44 H 0.3401 0.1891 0.1441
C74 C 0.4153(13) 0.1930(6) 0.2408(14)
H45 H 0.3835 0.2145 0.2567
C75 C 0.4888(11) 0.1782(4) 0.2908(11)
C76 C 0.5145(11) 0.1929(4) 0.3607(12)
H46 H 0.4850 0.2149 0.3768
C77 C 0.5830(11) 0.1762(4) 0.4090(10)
H47 H 0.5997 0.1862 0.4572
C78 C 0.6273(9) 0.1425(4) 0.3809(9)
H48 H 0.6728 0.1304 0.4127
C79 C 0.5390(8) 0.1462(3) 0.2676(9)
C80 C 0.5119(8) 0.1298(4) 0.1944(8)
Tb8 Tb 0.88138(4) 0.368022(14) 0.69787(3)
O32 O 0.9401(7) 0.1017(3) 0.4508(6)
O34 O 0.9667(6) 0.1877(2) 0.1605(5)
O35 O 0.5045(5) 0.0522(2) 0.3001(4)
C16 C 0.9805(8) 0.1140(3) 0.9636(6)
C17 C 0.9610(9) 0.1494(3) 0.9346(7)
H9 H 0.9124 0.1638 0.9541
H10_2 H 1.0000 0.1875 0.8536
C22 C 0.9992(15) 0.0809(5) 0.4891(12)
H16 H 0.9502 0.1475 0.5503
H34 H 0.6028 0.1796 0.9799
O23 O 0.8511(5) 0.98799(19) 0.0242(4)
S4 S 0.5971(2) 0.94119(8) 0.70070(17)
O1 O 0.9765(5) 0.9894(2) 0.1836(5)
O21 O 0.6314(5) 0.9028(2) 0.6883(5)
O22 O 0.4955(5) 0.9478(2) 0.6999(4)
C46 C 0.5819(8) 0.9972(3) 0.5913(7)
C47 C 0.6412(7) 0.9707(3) 0.6299(6)
C48 C 0.7341(8) 0.9665(3) 0.6103(7)
H27 H 0.7735 0.9495 0.6375
C49 C 0.7691(8) 0.9873(3) 0.5504(7)
H28 H 0.8318 0.9848 0.5371
C51 C 0.7300(7) 0.9862(3) 0.9235(6)
C52 C 0.6450(8) 0.9991(3) 0.8947(7)
C53 C 0.6023(8) 0.9852(3) 0.8274(7)
H30 H 0.5433 0.9941 0.8091
C54 C 0.6486(7) 0.9582(3) 0.7886(6)
C55 C 0.7358(8) 0.9434(3) 0.8152(7)
H31 H 0.7670 0.9250 0.7877
C56 C 0.7745(8) 0.9577(3) 0.8859(7)
H32 H 0.8308 0.9476 0.9071
Tb10 Tb 0.32127(3) 0.932885(14) 0.73018(3)
O12 O 0.0599(7) 0.6017(3) 0.0492(6)
C22_2 C 0.0008(15) 0.5809(5) 0.0109(12)
Tb7 Tb 0.06225(4) 0.557171(14) 0.15673(3)
Tb1 Tb 0.14468(4) 0.527786(13) 0.36301(3)
Tb3_2 Tb 0.11862(4) 0.631978(14) 0.30213(3)
Tb4 Tb 0.32127(3) 0.567115(14) 0.23018(3)
N1_2 N 0.2614(6) 0.6706(2) 0.3638(6)
N2_2 N 0.1839(6) 0.6880(2) 0.2212(6)
N3_2 N 0.4378(6) 0.5990(3) 0.3266(6)
N4_2 N 0.3934(6) 0.6285(2) 0.1867(6)
O1_2 O 0.0235(5) 0.4894(2) 0.3164(5)
O7_2 O 0.0643(6) 0.5637(2) 0.4560(5)
O8_2 O 0.1222(5) 0.6213(2) 0.4362(5)
O14_2 O 0.0051(5) 0.6393(2) 0.2001(5)
O19_2 O 0.1690(6) 0.5314(3) 0.0695(5)
O20_2 O 0.3182(5) 0.5477(2) 0.1050(4)
O25_2 O 0.0481(4) 0.57149(17) 0.2898(4)
O26_2 O 0.2359(4) 0.58242(16) 0.3362(4)
O27_2 O 0.1846(4) 0.52686(17) 0.2308(4)
O28_2 O 0.1852(4) 0.60228(18) 0.1912(4)
C15_2 C 0.0720(8) 0.5981(4) 0.4713(7)
C16_2 C 0.0195(8) 0.6140(3) 0.5364(6)
C17_2 C 0.0390(9) 0.6494(3) 0.5654(7)
H9_2 H 0.0876 0.6638 0.5459
H10_3 H 0.0000 0.6875 0.6464
H16_2 H 0.0498 0.6475 0.9497
C43_2 C 0.2561(9) 0.5323(3) 0.0589(7)
C57_2 C 0.2996(8) 0.6636(4) 0.4325(8)
H33_2 H 0.2767 0.6428 0.4588
C58_2 C 0.3740(9) 0.6855(4) 0.4706(9)
H34_2 H 0.3972 0.6796 0.5201
C59_2 C 0.4086(10) 0.7146(5) 0.4318(10)
H35_2 H 0.4579 0.7292 0.4538
C60_2 C 0.3715(9) 0.7229(3) 0.3602(9)
C61_2 C 0.4065(12) 0.7543(4) 0.3185(11)
H36_2 H 0.4552 0.7692 0.3406
C62_2 C 0.3706(11) 0.7627(4) 0.2489(12)
H37_2 H 0.3959 0.7828 0.2221
C63_2 C 0.2935(11) 0.7413(3) 0.2138(10)
C64_2 C 0.2479(12) 0.7509(4) 0.1432(13)
H38_2 H 0.2653 0.7729 0.1179
C65_2 C 0.1782(12) 0.7283(4) 0.1111(9)
H39_2 H 0.1525 0.7335 0.0619
C66_2 C 0.1451(9) 0.6969(4) 0.1527(8)
H40_2 H 0.0955 0.6822 0.1315
C67_2 C 0.2564(8) 0.7106(3) 0.2535(8)
C68_2 C 0.2983(8) 0.7007(3) 0.3267(8)
C69_2 C 0.4622(9) 0.5831(4) 0.3944(7)
H41_2 H 0.4295 0.5619 0.4105
C70_2 C 0.5357(10) 0.5978(5) 0.4413(9)
H42_2 H 0.5517 0.5863 0.4883
C71_2 C 0.5832(11) 0.6281(6) 0.4198(12)
H43_2 H 0.6325 0.6375 0.4518
C72_2 C 0.5606(10) 0.6460(5) 0.3502(11)
C73_2 C 0.6105(14) 0.6786(7) 0.3255(14)
H44_2 H 0.6599 0.6891 0.3559
C74_2 C 0.5847(13) 0.6930(6) 0.2592(14)
H45_2 H 0.6165 0.7145 0.2433
C75_2 C 0.5112(11) 0.6782(4) 0.2092(11)
C76_2 C 0.4855(11) 0.6929(4) 0.1393(12)
H46_2 H 0.5150 0.7149 0.1232
C77_2 C 0.4170(11) 0.6762(4) 0.0910(10)
H47_2 H 0.4003 0.6862 0.0428
C78_2 C 0.3727(9) 0.6425(4) 0.1191(9)
H48_2 H 0.3272 0.6304 0.0873
C79_2 C 0.4610(8) 0.6462(3) 0.2324(9)
C80_2 C 0.4881(8) 0.6298(4) 0.3056(8)
O29 O 0.2539(5) 0.47376(19) 0.3395(5)
O30 O 0.3635(5) 0.5127(2) 0.2978(5)
O34_2 O 0.0333(6) 0.6877(2) 0.3395(5)
O35_2 O 0.4955(5) 0.5522(2) 0.1999(4)
O36 O 0.1489(5) 0.48799(19) 0.4758(4)
O37 O 0.2645(6) 0.5300(2) 0.4708(5)
S4_2 S 0.4029(2) 0.44119(8) 0.79930(17)
O18_2 O 0.0333(6) 0.8123(2) 0.8395(5)
O21_2 O 0.3686(5) 0.4028(2) 0.8117(5)
O22_2 O 0.5045(5) 0.4478(2) 0.8001(4)
C44_2 C 0.2932(7) 0.5121(3) 0.9896(6)
C45_2 C 0.3836(8) 0.5172(3) 0.9678(7)
H25_2 H 0.4225 0.5348 0.9940
C46_2 C 0.4181(8) 0.4972(3) 0.9087(7)
H26_2 H 0.4799 0.5010 0.8941
C47_2 C 0.3588(7) 0.4707(3) 0.8701(6)
C48_2 C 0.2659(8) 0.4665(3) 0.8897(7)
H27_2 H 0.2265 0.4495 0.8625
C49_2 C 0.2309(8) 0.4873(3) 0.9496(7)
H28_2 H 0.1682 0.4848 0.9629
C50_2 C 0.2259(8) 0.5018(3) 0.5018(7)
C51_2 C 0.2700(7) 0.4862(3) 0.5765(6)
C52_2 C 0.3550(8) 0.4991(3) 0.6053(7)
H29_2 H 0.3857 0.5180 0.5787
C53_2 C 0.3977(8) 0.4852(3) 0.6726(7)
H30_2 H 0.4567 0.4941 0.6909
C54_2 C 0.3514(7) 0.4582(3) 0.7114(6)
C55_2 C 0.2642(8) 0.4434(3) 0.6848(7)
H31_2 H 0.2330 0.4250 0.7123
C56_2 C 0.2255(8) 0.4577(3) 0.6141(7)
H32_2 H 0.1692 0.4476 0.5929
Tb8_2 Tb 0.11862(4) 0.868022(14) 0.80213(3)
Tb10_2 Tb 0.67873(3) 0.432885(14) 0.76982(3)
O11 O 0.9763(8) 0.5433(6) 0.0321(7)
S1_2 S 0.6534(2) 0.37145(9) 0.2730(3)
S2_2 S 0.8421(4) 0.66126(14) 0.7237(2)
S3_2 S 0.6640(2) 0.73780(10) 0.0152(2)
O2_2 O 0.9816(5) 0.5020(2) 0.1925(5)
O3_2 O 0.6671(6) 0.3500(2) 0.3420(7)
O4_2 O 0.6459(6) 0.3525(2) 0.1994(6)
O9_2 O 0.7466(9) 0.6465(4) 0.7117(7)
O10_2 O 0.8583(8) 0.7010(3) 0.7264(6)
O13_2 O 0.9134(5) 0.5903(2) 0.1649(5)
O16_2 O 0.6201(6) 0.7623(3) 0.0693(6)
C1_2 C 0.9722(8) 0.4854(3) 0.2547(8)
C2_2 C 0.8921(7) 0.4565(3) 0.2588(8)
C3_2 C 0.8502(8) 0.4430(3) 0.1905(8)
H1_2 H 0.8694 0.4513 0.1430
C4_2 C 0.7752(8) 0.4153(3) 0.1962(9)
H2_2 H 0.7471 0.4043 0.1520
C5_2 C 0.7461(8) 0.4053(3) 0.2675(9)
C6_2 C 0.7883(9) 0.4195(4) 0.3343(9)
H3_2 H 0.7678 0.4116 0.3817
C7_2 C 0.8609(8) 0.4452(3) 0.3308(7)
H4_2 H 0.8894 0.4551 0.3758
C8_2 C 0.3331(8) 0.4801(3) 0.3132(7)
C9_2 C 0.4014(8) 0.4495(3) 0.2980(8)
C10_2 C 0.4504(9) 0.4498(4) 0.2321(9)
H5_2 H 0.4342 0.4674 0.1938
C11_2 C 0.5238(10) 0.4243(4) 0.2211(9)
H6_2 H 0.5542 0.4237 0.1749
C12_2 C 0.5506(8) 0.3997(3) 0.2806(8)
C13_2 C 0.5005(11) 0.3976(4) 0.3439(10)
H7_2 H 0.5175 0.3802 0.3824
C14_2 C 0.4211(10) 0.4221(4) 0.3522(8)
H8_2 H 0.3831 0.4195 0.3940
C18_2 C 0.9856(11) 0.6640(4) 0.6246(9)
H10_4 H 1.0000 0.6875 0.6464
C19_2 C 0.9125(10) 0.6429(4) 0.6496(7)
C20_2 C 0.8926(9) 0.6082(4) 0.6229(8)
H11_2 H 0.8436 0.5943 0.6431
C21_2 C 0.9454(8) 0.5927(3) 0.5645(6)
H12_2 H 0.9314 0.5687 0.5448
C23_2 C 0.9600(10) 0.6047(4) 0.9364(9)
C24_2 C 0.8935(14) 0.5854(6) 0.8927(12)
H13_2 H 0.8700 0.5615 0.9041
C25_2 C 0.8667(19) 0.6063(9) 0.8300(11)
H14_2 H 0.8219 0.5948 0.7965
C26_2 C 0.8951(14) 0.6413(6) 0.8084(10)
C27_2 C 0.9637(18) 0.6601(6) 0.8493(11)
H15_2 H 0.9862 0.6840 0.8362
C28_2 C 0.9996(15) 0.6380(4) 0.9187(10)
C29_2 C 0.9301(8) 0.6255(3) 0.1704(7)
C30_2 C 0.8566(8) 0.6524(3) 0.1361(7)
C31_2 C 0.8595(8) 0.6904(3) 0.1589(7)
H17_2 H 0.9028 0.6983 0.1978
C32_2 C 0.7982(9) 0.7160(3) 0.1235(8)
H18_2 H 0.7995 0.7414 0.1383
C33_2 C 0.7348(8) 0.7039(3) 0.0661(8)
C34_2 C 0.7320(9) 0.6669(3) 0.0443(8)
H19_2 H 0.6897 0.6589 0.0048
C35_2 C 0.7915(8) 0.6414(3) 0.0808(8)
H20_2 H 0.7872 0.6158 0.0673
H23_2 H 0.7423 0.8103 0.0366
O33_2 O 0.9516(5) 0.6364(2) 0.3537(5)
O15_2 O 0.6043(6) 0.7190(2) 0.9578(6)
O17_2 O 0.9516(5) 0.8636(2) 0.8537(5)
C36_2 C 0.9586(8) 0.8296(3) 0.8604(7)
C37_2 C 0.8843(8) 0.8071(3) 0.8961(7)
C38_2 C 0.8641(9) 0.7705(3) 0.8716(8)
H21_2 H 0.8969 0.7597 0.8320
C39_2 C 0.7938(9) 0.7497(3) 0.9071(8)
H22_2 H 0.7775 0.7256 0.8893
C40_2 C 0.7489(8) 0.7651(3) 0.9685(8)
C41_2 C 0.7718(8) 0.8004(3) 0.9943(7)
C42_2 C 0.8387(8) 0.8220(3) 0.9582(7)
H24_2 H 0.8531 0.8463 0.9757
S4_3 S 0.4029(2) 0.05881(8) 0.29930(17)
O1_3 O 0.0235(5) 0.0106(2) 0.8164(5)
O21_3 O 0.3686(5) 0.0972(2) 0.3117(5)
C46_3 C 0.4181(8) 0.0028(3) 0.4087(7)
C47_3 C 0.3588(7) 0.0293(3) 0.3701(6)
C48_3 C 0.2659(8) 0.0335(3) 0.3897(7)
H27_3 H 0.2265 0.0505 0.3625
C49_3 C 0.2309(8) 0.0127(3) 0.4496(7)
H28_3 H 0.1682 0.0152 0.4629
C51_3 C 0.2700(7) 0.0138(3) 0.0765(6)
C52_3 C 0.3550(8) 0.0009(3) 0.1053(7)
C53_3 C 0.3977(8) 0.0148(3) 0.1726(7)
H30_3 H 0.4567 0.0059 0.1909
C54_3 C 0.3514(7) 0.0418(3) 0.2114(6)
C55_3 C 0.2642(8) 0.0566(3) 0.1848(7)
H31_3 H 0.2330 0.0750 0.2123
C56_3 C 0.2255(8) 0.0423(3) 0.1141(7)
H32_3 H 0.1692 0.0524 0.0929
O29_2 O 0.2539(5) 0.02624(19) 0.8395(5)
O36_2 O 0.1489(5) 0.01201(19) 0.9758(4)
O12_2 O 0.0599(7) 0.8983(3) 0.5492(6)
C16_3 C 0.0195(8) 0.8860(3) 0.0364(6)
C17_3 C 0.0390(9) 0.8506(3) 0.0654(7)
H9_3 H 0.0876 0.8362 0.0459
H10_5 H -0.0000 0.8125 0.1464
C22_3 C 0.0008(15) 0.9191(5) 0.5109(12)
H16_3 H 0.0498 0.8525 0.4497
H34_3 H 0.3972 0.8204 0.0201
Tb7_2 Tb 0.06225(4) 0.942829(14) 0.65673(3)
Tb1_2 Tb 0.14468(4) 0.972214(13) 0.86301(3)
N1_3 N 0.2614(6) 0.8294(2) 0.8638(6)
N2_3 N 0.1839(6) 0.8120(2) 0.7212(6)
N3_3 N 0.4378(6) 0.9010(3) 0.8266(6)
N4_3 N 0.3934(6) 0.8715(2) 0.6867(6)
O7_3 O 0.0643(6) 0.9363(2) 0.9560(5)
O8_3 O 0.1222(5) 0.8787(2) 0.9362(5)
O14_3 O 0.0051(5) 0.8607(2) 0.7001(5)
O19_3 O 0.1690(6) 0.9686(3) 0.5695(5)
O20_3 O 0.3182(5) 0.9523(2) 0.6050(4)
O25_3 O 0.0481(4) 0.92851(17) 0.7898(4)
O26_3 O 0.2359(4) 0.91758(16) 0.8362(4)
O27_3 O 0.1846(4) 0.97314(17) 0.7308(4)
O28_3 O 0.1852(4) 0.89772(18) 0.6912(4)
C15_3 C 0.0720(8) 0.9019(4) 0.9713(7)
C43_3 C 0.2561(9) 0.9677(3) 0.5589(7)
C44_3 C 0.2932(7) 0.9879(3) 0.4896(6)
C45_3 C 0.3836(8) 0.9828(3) 0.4678(7)
H25_3 H 0.4225 0.9652 0.4940
H26_3 H 0.4799 0.9990 0.3941
C50_3 C 0.2259(8) 0.9982(3) 0.0018(7)
H29_3 H 0.3857 0.9820 0.0787
C57_3 C 0.2996(8) 0.8364(4) 0.9325(8)
H33_3 H 0.2767 0.8572 0.9588
C58_3 C 0.3740(9) 0.8145(4) 0.9706(9)
C59_3 C 0.4086(10) 0.7854(5) 0.9318(10)
H35_3 H 0.4579 0.7708 0.9538
C60_3 C 0.3715(9) 0.7771(3) 0.8602(9)
C61_3 C 0.4065(12) 0.7457(4) 0.8185(11)
H36_3 H 0.4552 0.7308 0.8406
C62_3 C 0.3706(11) 0.7373(4) 0.7489(12)
H37_3 H 0.3959 0.7172 0.7221
C63_3 C 0.2935(11) 0.7587(3) 0.7138(10)
C64_3 C 0.2479(12) 0.7491(4) 0.6432(13)
H38_3 H 0.2653 0.7271 0.6179
C65_3 C 0.1782(12) 0.7717(4) 0.6111(9)
H39_3 H 0.1525 0.7665 0.5619
C66_3 C 0.1451(9) 0.8031(4) 0.6527(8)
H40_3 H 0.0955 0.8178 0.6315
C67_3 C 0.2564(8) 0.7894(3) 0.7535(8)
C68_3 C 0.2983(8) 0.7993(3) 0.8267(8)
C69_3 C 0.4622(9) 0.9169(4) 0.8944(7)
H41_3 H 0.4295 0.9381 0.9105
C70_3 C 0.5357(10) 0.9022(5) 0.9413(9)
H42_3 H 0.5517 0.9137 0.9883
C71_3 C 0.5832(11) 0.8719(6) 0.9198(12)
H43_3 H 0.6325 0.8625 0.9518
C72_3 C 0.5606(10) 0.8540(5) 0.8502(11)
C73_3 C 0.6105(14) 0.8214(7) 0.8255(14)
H44_3 H 0.6599 0.8109 0.8559
C74_3 C 0.5847(13) 0.8070(6) 0.7592(14)
H45_3 H 0.6165 0.7855 0.7433
C75_3 C 0.5112(11) 0.8218(4) 0.7092(11)
C76_3 C 0.4855(11) 0.8071(4) 0.6393(12)
H46_3 H 0.5150 0.7851 0.6232
C77_3 C 0.4170(11) 0.8238(4) 0.5910(10)
H47_3 H 0.4003 0.8138 0.5428
C78_3 C 0.3727(9) 0.8575(4) 0.6191(9)
H48_3 H 0.3272 0.8696 0.5873
C79_3 C 0.4610(8) 0.8538(3) 0.7324(9)
C80_3 C 0.4881(8) 0.8702(4) 0.8056(8)
O30_2 O 0.3635(5) 0.9873(2) 0.7978(5)
O37_2 O 0.2645(6) 0.9700(2) 0.9708(5)
S1_3 S 0.6534(2) 0.12855(9) 0.7730(3)
O3_3 O 0.6671(6) 0.1500(2) 0.8420(7)
O4_3 O 0.6459(6) 0.1475(2) 0.6994(6)
C1_3 C 0.9722(8) 0.0146(3) 0.7547(8)
C2_3 C 0.8921(7) 0.0435(3) 0.7588(8)
C3_3 C 0.8502(8) 0.0570(3) 0.6905(8)
H1_3 H 0.8694 0.0487 0.6430
C4_3 C 0.7752(8) 0.0847(3) 0.6962(9)
H2_3 H 0.7471 0.0957 0.6520
C5_3 C 0.7461(8) 0.0947(3) 0.7675(9)
C6_3 C 0.7883(9) 0.0805(4) 0.8343(9)
H3_3 H 0.7678 0.0884 0.8817
C7_3 C 0.8609(8) 0.0548(3) 0.8308(7)
H4_3 H 0.8894 0.0449 0.8758
C8_3 C 0.3331(8) 0.0199(3) 0.8132(7)
C9_3 C 0.4014(8) 0.0505(3) 0.7980(8)
C10_3 C 0.4504(9) 0.0502(4) 0.7321(9)
H5_3 H 0.4342 0.0326 0.6938
C11_3 C 0.5238(10) 0.0757(4) 0.7211(9)
H6_3 H 0.5542 0.0763 0.6749
C12_3 C 0.5506(8) 0.1003(3) 0.7806(8)
C13_3 C 0.5005(11) 0.1024(4) 0.8439(10)
H7_3 H 0.5175 0.1198 0.8824
C14_3 C 0.4211(10) 0.0779(4) 0.8522(8)
H8_3 H 0.3831 0.0805 0.8940
S2_3 S 0.8421(4) 0.83874(14) 0.2237(2)
O9_3 O 0.7466(9) 0.8535(4) 0.2117(7)
O10_3 O 0.8583(8) 0.7990(3) 0.2264(6)
O11_2 O 0.9763(8) 0.9567(6) 0.5321(7)
C18_3 C 0.9856(11) 0.8360(4) 0.1246(9)
H10_6 H 1.0000 0.8125 0.1464
C19_3 C 0.9125(10) 0.8571(4) 0.1496(7)
C20_3 C 0.8926(9) 0.8918(4) 0.1229(8)
H11_3 H 0.8436 0.9057 0.1431
C21_3 C 0.9454(8) 0.9073(3) 0.0645(6)
H12_3 H 0.9314 0.9313 0.0448
C23_3 C 0.9600(10) 0.8953(4) 0.4364(9)
C24_3 C 0.8935(14) 0.9146(6) 0.3927(12)
H13_3 H 0.8700 0.9385 0.4041
C25_3 C 0.8667(19) 0.8937(9) 0.3300(11)
H14_3 H 0.8219 0.9052 0.2965
C26_3 C 0.8951(14) 0.8587(6) 0.3084(10)
C27_3 C 0.9637(18) 0.8399(6) 0.3493(11)
H15_3 H 0.9862 0.8160 0.3362
C28_3 C 0.9996(15) 0.8620(4) 0.4187(10)
S3_3 S 0.6640(2) 0.76220(10) 0.5152(2)
O2_3 O 0.9816(5) 0.9980(2) 0.6925(5)
O13_3 O 0.9134(5) 0.9097(2) 0.6649(5)
O15_3 O 0.6043(6) 0.7810(2) 0.4578(6)
O16_3 O 0.6201(6) 0.7377(3) 0.5693(6)
C29_3 C 0.9301(8) 0.8745(3) 0.6704(7)
C30_3 C 0.8566(8) 0.8476(3) 0.6361(7)
C31_3 C 0.8595(8) 0.8096(3) 0.6589(7)
H17_3 H 0.9028 0.8017 0.6978
C32_3 C 0.7982(9) 0.7840(3) 0.6235(8)
H18_3 H 0.7995 0.7586 0.6383
C33_3 C 0.7348(8) 0.7961(3) 0.5661(8)
C34_3 C 0.7320(9) 0.8331(3) 0.5443(8)
H19_3 H 0.6897 0.8411 0.5048
C35_3 C 0.7915(8) 0.8586(3) 0.5808(8)
H20_3 H 0.7872 0.8842 0.5673
C36_3 C 0.9586(8) 0.6704(3) 0.3604(7)
C37_3 C 0.8843(8) 0.6929(3) 0.3961(7)
C38_3 C 0.8641(9) 0.7295(3) 0.3716(8)
H21_3 H 0.8969 0.7403 0.3320
C39_3 C 0.7938(9) 0.7503(3) 0.4071(8)
H22_3 H 0.7775 0.7744 0.3893
C40_3 C 0.7489(8) 0.7349(3) 0.4685(8)
C41_3 C 0.7718(8) 0.6996(3) 0.4943(7)
H23_3 H 0.7423 0.6897 0.5366
C42_3 C 0.8387(8) 0.6780(3) 0.4582(7)
H24_3 H 0.8531 0.6537 0.4757
O15_4 O 0.3957(6) 0.2810(2) 0.0422(6)
C36_4 C 0.0414(8) 0.1704(3) 0.1396(7)
C37_4 C 0.1157(8) 0.1929(3) 0.1039(7)
C38_4 C 0.1359(9) 0.2295(3) 0.1284(8)
H21_4 H 0.1031 0.2403 0.1680
C39_4 C 0.2062(9) 0.2503(3) 0.0929(8)
H22_4 H 0.2225 0.2744 0.1107
C40_4 C 0.2511(8) 0.2349(3) 0.0315(8)
C41_4 C 0.2282(8) 0.1996(3) 0.0057(7)
C42_4 C 0.1613(8) 0.1780(3) 0.0418(7)
H24_4 H 0.1469 0.1537 0.0243
S1_4 S 0.3466(2) 0.62855(9) 0.7270(3)
S2_4 S 0.1579(4) 0.33874(14) 0.2763(2)
S3_4 S 0.3360(2) 0.26220(10) 0.9848(2)
O2_4 O 0.0184(5) 0.4980(2) 0.8075(5)
O3_4 O 0.3329(6) 0.6500(2) 0.6580(7)
O4_4 O 0.3541(6) 0.6475(2) 0.8006(6)
O5_2 O 0.7461(5) 0.52624(19) 0.6605(5)
O6_2 O 0.6365(5) 0.4873(2) 0.7022(5)
O9_4 O 0.2534(9) 0.3535(4) 0.2883(7)
O10_4 O 0.1417(8) 0.2990(3) 0.2736(6)
O13_4 O 0.0866(5) 0.4097(2) 0.8351(5)
O16_4 O 0.3799(6) 0.2377(3) 0.9307(6)
C1_4 C 0.0278(8) 0.5146(3) 0.7453(8)
C2_4 C 0.1079(7) 0.5435(3) 0.7412(8)
C3_4 C 0.1498(8) 0.5570(3) 0.8095(8)
H1_4 H 0.1306 0.5487 0.8570
C4_4 C 0.2248(8) 0.5847(3) 0.8038(9)
H2_4 H 0.2529 0.5957 0.8480
C5_4 C 0.2539(8) 0.5947(3) 0.7325(9)
C6_4 C 0.2117(9) 0.5805(4) 0.6657(9)
H3_4 H 0.2322 0.5884 0.6183
C7_4 C 0.1391(8) 0.5548(3) 0.6692(7)
H4_4 H 0.1106 0.5449 0.6242
C8_4 C 0.6669(8) 0.5199(3) 0.6868(7)
C9_4 C 0.5986(8) 0.5505(3) 0.7020(8)
C10_4 C 0.5496(9) 0.5502(4) 0.7679(9)
H5_4 H 0.5658 0.5326 0.8062
C11_4 C 0.4762(10) 0.5757(4) 0.7789(9)
H6_4 H 0.4458 0.5763 0.8251
C12_4 C 0.4494(8) 0.6003(3) 0.7194(8)
C13_4 C 0.4995(11) 0.6024(4) 0.6561(10)
H7_4 H 0.4825 0.6198 0.6176
C14_4 C 0.5789(10) 0.5779(4) 0.6478(8)
H8_4 H 0.6169 0.5805 0.6060
C18_4 C 0.0144(11) 0.3360(4) 0.3754(9)
H10_7 H -0.0000 0.3125 0.3536
C19_4 C 0.0875(10) 0.3571(4) 0.3504(7)
C20_4 C 0.1074(9) 0.3918(4) 0.3771(8)
H11_4 H 0.1564 0.4057 0.3569
C21_4 C 0.0546(8) 0.4073(3) 0.4355(6)
H12_4 H 0.0686 0.4313 0.4552
C23_4 C 0.0400(10) 0.3953(4) 0.0636(9)
C24_4 C 0.1065(14) 0.4146(6) 0.1073(12)
H13_4 H 0.1300 0.4385 0.0959
C25_4 C 0.1333(19) 0.3937(9) 0.1700(11)
H14_4 H 0.1781 0.4052 0.2035
C26_4 C 0.1049(14) 0.3587(6) 0.1916(10)
C27_4 C 0.0363(18) 0.3399(6) 0.1507(11)
H15_4 H 0.0138 0.3160 0.1638
C28_4 C 0.0004(15) 0.3620(4) 0.0813(10)
C29_4 C 0.0699(8) 0.3745(3) 0.8296(7)
C30_4 C 0.1434(8) 0.3476(3) 0.8639(7)
C31_4 C 0.1405(8) 0.3096(3) 0.8411(7)
H17_4 H 0.0972 0.3017 0.8022
C32_4 C 0.2018(9) 0.2840(3) 0.8765(8)
H18_4 H 0.2005 0.2586 0.8617
C33_4 C 0.2652(8) 0.2961(3) 0.9339(8)
C34_4 C 0.2680(9) 0.3331(3) 0.9557(8)
H19_4 H 0.3103 0.3411 0.9952
C35_4 C 0.2085(8) 0.3586(3) 0.9192(8)
H20_4 H 0.2128 0.3842 0.9327
H23_4 H 0.2577 0.1897 0.9634
Tb6_2 Tb 0.85532(4) 0.472214(13) 0.63699(3)
O31_2 O 0.0237(8) 0.4567(6) 0.9679(7)
S4_4 S 0.5971(2) 0.55881(8) 0.20070(17)
O21_4 O 0.6314(5) 0.5972(2) 0.1883(5)
O23_2 O 0.8511(5) 0.51201(19) 0.5242(4)
O24_2 O 0.7355(6) 0.4700(2) 0.5292(5)
C44_4 C 0.7068(7) 0.4879(3) 0.0104(6)
C45_4 C 0.6164(8) 0.4828(3) 0.0322(7)
H25_4 H 0.5775 0.4652 0.0060
C46_4 C 0.5819(8) 0.5028(3) 0.0913(7)
H26_4 H 0.5201 0.4990 0.1059
C47_4 C 0.6412(7) 0.5293(3) 0.1299(6)
C48_4 C 0.7341(8) 0.5335(3) 0.1103(7)
H27_4 H 0.7735 0.5505 0.1375
C49_4 C 0.7691(8) 0.5127(3) 0.0504(7)
H28_4 H 0.8318 0.5152 0.0371
C50_4 C 0.7741(8) 0.4982(3) 0.4982(7)
C51_4 C 0.7300(7) 0.5138(3) 0.4235(6)
C52_4 C 0.6450(8) 0.5009(3) 0.3947(7)
H29_4 H 0.6143 0.4820 0.4213
C53_4 C 0.6023(8) 0.5148(3) 0.3274(7)
H30_4 H 0.5433 0.5059 0.3091
C54_4 C 0.6486(7) 0.5418(3) 0.2886(6)
C55_4 C 0.7358(8) 0.5566(3) 0.3152(7)
H31_4 H 0.7670 0.5750 0.2877
C56_4 C 0.7745(8) 0.5423(3) 0.3859(7)
H32_4 H 0.8308 0.5524 0.4071
Tb2_2 Tb 0.93775(4) 0.442829(14) 0.84327(3)
N1_4 N 0.7386(6) 0.3294(2) 0.6362(6)
N2_4 N 0.8161(6) 0.3120(2) 0.7788(6)
N3_4 N 0.5622(6) 0.4010(3) 0.6734(6)
N4_4 N 0.6066(6) 0.3715(2) 0.8133(6)
O1_4 O 0.9765(5) 0.5106(2) 0.6836(5)
O7_4 O 0.9357(6) 0.4363(2) 0.5440(5)
O8_4 O 0.8778(5) 0.3787(2) 0.5638(5)
O14_4 O 0.9949(5) 0.3607(2) 0.7999(5)
O19_4 O 0.8310(6) 0.4686(3) 0.9305(5)
O20_4 O 0.6818(5) 0.4523(2) 0.8950(4)
O25_4 O 0.9519(4) 0.42851(17) 0.7102(4)
O26_4 O 0.7641(4) 0.41758(16) 0.6638(4)
O27_4 O 0.8154(4) 0.47314(17) 0.7692(4)
O28_4 O 0.8148(4) 0.39772(18) 0.8088(4)
C15_4 C 0.9280(8) 0.4019(4) 0.5287(7)
C16_4 C 0.9805(8) 0.3860(3) 0.4636(6)
C17_4 C 0.9610(9) 0.3506(3) 0.4346(7)
H9_4 H 0.9124 0.3362 0.4541
H10_8 H 1.0000 0.3125 0.3536
H16_4 H 0.9502 0.3525 0.0503
C43_4 C 0.7439(9) 0.4677(3) 0.9411(7)
C57_4 C 0.7004(8) 0.3364(4) 0.5675(8)
H33_4 H 0.7233 0.3572 0.5412
C58_4 C 0.6260(9) 0.3145(4) 0.5294(9)
H34_4 H 0.6028 0.3204 0.4799
C59_4 C 0.5914(10) 0.2854(5) 0.5682(10)
H35_4 H 0.5421 0.2708 0.5462
C60_4 C 0.6285(9) 0.2771(3) 0.6398(9)
C61_4 C 0.5935(12) 0.2457(4) 0.6815(11)
H36_4 H 0.5448 0.2308 0.6594
C62_4 C 0.6294(11) 0.2373(4) 0.7511(12)
H37_4 H 0.6041 0.2172 0.7779
C63_4 C 0.7065(11) 0.2587(3) 0.7862(10)
C64_4 C 0.7521(12) 0.2491(4) 0.8568(13)
H38_4 H 0.7347 0.2271 0.8821
C65_4 C 0.8218(12) 0.2717(4) 0.8889(9)
H39_4 H 0.8475 0.2665 0.9381
C66_4 C 0.8549(9) 0.3031(4) 0.8473(8)
H40_4 H 0.9045 0.3178 0.8685
C67_4 C 0.7436(8) 0.2894(3) 0.7465(8)
C68_4 C 0.7017(8) 0.2993(3) 0.6733(8)
C69_4 C 0.5378(9) 0.4169(4) 0.6056(7)
H41_4 H 0.5705 0.4381 0.5895
C70_4 C 0.4643(10) 0.4022(5) 0.5587(9)
H42_4 H 0.4483 0.4137 0.5117
C71_4 C 0.4168(11) 0.3719(6) 0.5802(12)
H43_4 H 0.3675 0.3625 0.5482
C72_4 C 0.4394(10) 0.3540(5) 0.6498(11)
C73_4 C 0.3895(14) 0.3214(7) 0.6745(14)
H44_4 H 0.3401 0.3109 0.6441
C74_4 C 0.4153(13) 0.3070(6) 0.7408(14)
H45_4 H 0.3835 0.2855 0.7567
C75_4 C 0.4888(11) 0.3218(4) 0.7908(11)
C76_4 C 0.5145(11) 0.3071(4) 0.8607(12)
H46_4 H 0.4850 0.2851 0.8768
C77_4 C 0.5830(11) 0.3238(4) 0.9090(10)
H47_4 H 0.5997 0.3138 0.9572
C78_4 C 0.6273(9) 0.3575(4) 0.8809(9)
H48_4 H 0.6728 0.3696 0.9127
C79_4 C 0.5390(8) 0.3538(3) 0.7676(9)
C80_4 C 0.5119(8) 0.3702(4) 0.6944(8)
O32_2 O 0.9401(7) 0.3983(3) 0.9508(6)
C22_4 C 0.9992(15) 0.4191(5) 0.9891(12)
loop_
_geom_bond_atom_site_label_1
_geom_bond_atom_site_label_2
_geom_bond_site_symmetry_1
_geom_bond_site_symmetry_2
S3 O15 1_555 1_555
O16 S3 1_555 1_555
O17 C36 1_555 1_555
C29 O13 1_555 1_555
C30 C29 1_555 1_555
C31 C30 1_555 1_555
H17 C31 1_555 1_555
C32 C31 1_555 1_555
H18 C32 1_555 1_555
C33 S3 1_555 1_555
C34 C33 1_555 1_555
H19 C34 1_555 1_555
C35 C30 1_555 1_555
H20 C35 1_555 1_555
C36 C37 1_555 1_555
C37 C38 1_555 1_555
C38 H21 1_555 1_555
C39 C38 1_555 1_555
H22 C39 1_555 1_555
C40 S3 1_555 1_555
C41 C40 1_555 1_555
H23 C41 1_555 1_555
C42 C37 1_555 1_555
H24 C42 1_555 1_555
Tb9 O6 1_555 1_555
C32 C33 1_555 1_555
C34 C35 1_555 1_555
C39 C40 1_555 1_555
C41 C42 1_555 1_555
S2 O9 1_555 1_555
O10 S2 1_555 1_555
H10 C18 1_555 1_555
C19 S2 1_555 1_555
C20 C19 1_555 1_555
H11 C20 1_555 1_555
H12 C21 1_555 1_555
C23 C24 1_555 1_555
C24 H13 1_555 1_555
C25 C24 1_555 1_555
H14 C25 1_555 1_555
C26 S2 1_555 1_555
C27 C26 1_555 1_555
H15 C27 1_555 1_555
C28 C23 1_555 1_555
C18 C19 1_555 1_555
C20 C21 1_555 1_555
C25 C26 1_555 1_555
C27 C28 1_555 1_555
S1 O3 1_555 1_555
O4 S1 1_555 1_555
O5 C8 1_555 1_555
C1 C2 1_555 1_555
C2 C3 1_555 1_555
C3 H1 1_555 1_555
C4 C3 1_555 1_555
H2 C4 1_555 1_555
C5 S1 1_555 1_555
C6 C5 1_555 1_555
H3 C6 1_555 1_555
C7 C2 1_555 1_555
H4 C7 1_555 1_555
C8 C9 1_555 1_555
C9 C10 1_555 1_555
C10 H5 1_555 1_555
C11 C10 1_555 1_555
H6 C11 1_555 1_555
C12 S1 1_555 1_555
C13 C12 1_555 1_555
H7 C13 1_555 1_555
C14 C9 1_555 1_555
H8 C14 1_555 1_555
C4 C5 1_555 1_555
C6 C7 1_555 1_555
C11 C12 1_555 1_555
C13 C14 1_555 1_555
O24 Tb6 1_555 1_555
Tb3 N1 1_555 1_555
Tb9 N3 1_555 1_555
N1 C57 1_555 1_555
N2 Tb3 1_555 1_555
N3 C69 1_555 1_555
N4 Tb9 1_555 1_555
O7 Tb6 1_555 1_555
O8 Tb3 1_555 1_555
O14 Tb3 1_555 1_555
O19 Tb2 1_555 1_555
O20 Tb9 1_555 1_555
O25 Tb6 1_555 1_555
O26 Tb6 1_555 1_555
O27 Tb6 1_555 1_555
O28 Tb2 1_555 1_555
C15 O7 1_555 1_555
C43 O19 1_555 1_555
C44 C43 1_555 1_555
C45 C44 1_555 1_555
H25 C45 1_555 1_555
C57 H33 1_555 1_555
C58 C57 1_555 1_555
C59 C58 1_555 1_555
H35 C59 1_555 1_555
C60 C59 1_555 1_555
C61 C60 1_555 1_555
H36 C61 1_555 1_555
C62 C61 1_555 1_555
H37 C62 1_555 1_555
C63 C62 1_555 1_555
C64 C63 1_555 1_555
H38 C64 1_555 1_555
C65 C64 1_555 1_555
H39 C65 1_555 1_555
C66 N2 1_555 1_555
H40 C66 1_555 1_555
C67 N2 1_555 1_555
C68 N1 1_555 1_555
C69 H41 1_555 1_555
C70 C69 1_555 1_555
H42 C70 1_555 1_555
C71 C70 1_555 1_555
H43 C71 1_555 1_555
C72 C71 1_555 1_555
C73 C72 1_555 1_555
H44 C73 1_555 1_555
C74 C73 1_555 1_555
H45 C74 1_555 1_555
C75 C74 1_555 1_555
C76 C75 1_555 1_555
H46 C76 1_555 1_555
C77 C76 1_555 1_555
H47 C77 1_555 1_555
C78 N4 1_555 1_555
H48 C78 1_555 1_555
C79 N4 1_555 1_555
C80 N3 1_555 1_555
O32 Tb2 1_555 1_555
O34 Tb3 1_555 1_555
O35 Tb9 1_555 1_555
Tb2 O25 1_555 1_555
Tb2 O27 1_555 1_555
Tb3 O25 1_555 1_555
Tb3 O26 1_555 1_555
Tb3 O28 1_555 1_555
Tb9 O26 1_555 1_555
Tb9 O27 1_555 1_555
Tb9 O28 1_555 1_555
O8 C15 1_555 1_555
O18 Tb8 1_555 1_555
O20 C43 1_555 1_555
C60 C68 1_555 1_555
C63 C67 1_555 1_555
C65 C66 1_555 1_555
C67 C68 1_555 1_555
C72 C80 1_555 1_555
C75 C79 1_555 1_555
C77 C78 1_555 1_555
C79 C80 1_555 1_555
O32 C22 1_555 1_555
C17 C16 1_555 1_555
H9 C17 1_555 1_555
S4 O21 1_555 1_555
O22 S4 1_555 1_555
C47 S4 1_555 1_555
C48 C47 1_555 1_555
H27 C48 1_555 1_555
H28 C49 1_555 1_555
C51 C52 1_555 1_555
C53 C52 1_555 1_555
H30 C53 1_555 1_555
C54 S4 1_555 1_555
C55 C54 1_555 1_555
H31 C55 1_555 1_555
C56 C51 1_555 1_555
H32 C56 1_555 1_555
Tb10 O22 1_555 1_555
C46 C47 1_555 1_555
C48 C49 1_555 1_555
C53 C54 1_555 1_555
C55 C56 1_555 1_555
O12 C22_2 1_555 1_555
O12 Tb7 1_555 1_555
Tb1 O1_2 1_555 1_555
Tb3_2 N1_2 1_555 1_555
Tb4 N3_2 1_555 1_555
N1_2 C57_2 1_555 1_555
N2_2 Tb3_2 1_555 1_555
N3_2 C69_2 1_555 1_555
N4_2 Tb4 1_555 1_555
O7_2 Tb1 1_555 1_555
O8_2 Tb3_2 1_555 1_555
O14_2 Tb3_2 1_555 1_555
O19_2 Tb7 1_555 1_555
O20_2 Tb4 1_555 1_555
O25_2 Tb1 1_555 1_555
O26_2 Tb1 1_555 1_555
O27_2 Tb1 1_555 1_555
O28_2 Tb7 1_555 1_555
C15_2 O7_2 1_555 1_555
C16_2 C15_2 1_555 1_555
C17_2 C16_2 1_555 1_555
H9_2 C17_2 1_555 1_555
C43_2 O19_2 1_555 1_555
C57_2 H33_2 1_555 1_555
C58_2 C57_2 1_555 1_555
H34_2 C58_2 1_555 1_555
C59_2 C58_2 1_555 1_555
H35_2 C59_2 1_555 1_555
C60_2 C59_2 1_555 1_555
C61_2 C60_2 1_555 1_555
H36_2 C61_2 1_555 1_555
C62_2 C61_2 1_555 1_555
H37_2 C62_2 1_555 1_555
C63_2 C62_2 1_555 1_555
C64_2 C63_2 1_555 1_555
H38_2 C64_2 1_555 1_555
C65_2 C64_2 1_555 1_555
H39_2 C65_2 1_555 1_555
C66_2 N2_2 1_555 1_555
H40_2 C66_2 1_555 1_555
C67_2 N2_2 1_555 1_555
C68_2 N1_2 1_555 1_555
C69_2 H41_2 1_555 1_555
C70_2 C69_2 1_555 1_555
H42_2 C70_2 1_555 1_555
C71_2 C70_2 1_555 1_555
H43_2 C71_2 1_555 1_555
C72_2 C71_2 1_555 1_555
C73_2 C72_2 1_555 1_555
H44_2 C73_2 1_555 1_555
C74_2 C73_2 1_555 1_555
H45_2 C74_2 1_555 1_555
C75_2 C74_2 1_555 1_555
C76_2 C75_2 1_555 1_555
H46_2 C76_2 1_555 1_555
C77_2 C76_2 1_555 1_555
H47_2 C77_2 1_555 1_555
C78_2 N4_2 1_555 1_555
H48_2 C78_2 1_555 1_555
C79_2 N4_2 1_555 1_555
C80_2 N3_2 1_555 1_555
O29 Tb1 1_555 1_555
O30 Tb4 1_555 1_555
O34_2 Tb3_2 1_555 1_555
O35_2 Tb4 1_555 1_555
O36 Tb1 1_555 1_555
O37 Tb1 1_555 1_555
Tb7 O25_2 1_555 1_555
Tb7 O27_2 1_555 1_555
Tb3_2 O25_2 1_555 1_555
Tb3_2 O26_2 1_555 1_555
Tb3_2 O28_2 1_555 1_555
Tb4 O26_2 1_555 1_555
Tb4 O27_2 1_555 1_555
Tb4 O28_2 1_555 1_555
O8_2 C15_2 1_555 1_555
O20_2 C43_2 1_555 1_555
C60_2 C68_2 1_555 1_555
C63_2 C67_2 1_555 1_555
C65_2 C66_2 1_555 1_555
C67_2 C68_2 1_555 1_555
C72_2 C80_2 1_555 1_555
C75_2 C79_2 1_555 1_555
C77_2 C78_2 1_555 1_555
C79_2 C80_2 1_555 1_555
S4_2 O21_2 1_555 1_555
O22_2 S4_2 1_555 1_555
O36 C50_2 1_555 1_555
O37 C50_2 1_555 1_555
C45_2 C44_2 1_555 1_555
H25_2 C45_2 1_555 1_555
C46_2 C45_2 1_555 1_555
H26_2 C46_2 1_555 1_555
C47_2 S4_2 1_555 1_555
C48_2 C47_2 1_555 1_555
H27_2 C48_2 1_555 1_555
C49_2 C44_2 1_555 1_555
H28_2 C49_2 1_555 1_555
C50_2 C51_2 1_555 1_555
C51_2 C52_2 1_555 1_555
C52_2 H29_2 1_555 1_555
C53_2 C52_2 1_555 1_555
H30_2 C53_2 1_555 1_555
C54_2 S4_2 1_555 1_555
C55_2 C54_2 1_555 1_555
H31_2 C55_2 1_555 1_555
C56_2 C51_2 1_555 1_555
H32_2 C56_2 1_555 1_555
Tb10_2 O22_2 1_555 1_555
O18_2 Tb8_2 1_555 1_555
C46_2 C47_2 1_555 1_555
C48_2 C49_2 1_555 1_555
C53_2 C54_2 1_555 1_555
C55_2 C56_2 1_555 1_555
S1_2 O3_2 1_555 1_555
S2_2 O9_2 1_555 1_555
O2_2 C1_2 1_555 1_555
O4_2 S1_2 1_555 1_555
O29 C8_2 1_555 1_555
O30 C8_2 1_555 1_555
O10_2 S2_2 1_555 1_555
O16_2 S3_2 1_555 1_555
C1_2 C2_2 1_555 1_555
C2_2 C3_2 1_555 1_555
C3_2 H1_2 1_555 1_555
C4_2 C3_2 1_555 1_555
H2_2 C4_2 1_555 1_555
C5_2 S1_2 1_555 1_555
C6_2 C5_2 1_555 1_555
H3_2 C6_2 1_555 1_555
C7_2 C2_2 1_555 1_555
H4_2 C7_2 1_555 1_555
C8_2 C9_2 1_555 1_555
C9_2 C10_2 1_555 1_555
C10_2 H5_2 1_555 1_555
C11_2 C10_2 1_555 1_555
H6_2 C11_2 1_555 1_555
C12_2 S1_2 1_555 1_555
C13_2 C12_2 1_555 1_555
H7_2 C13_2 1_555 1_555
C14_2 C9_2 1_555 1_555
H8_2 C14_2 1_555 1_555
H10_4 C18_2 1_555 1_555
C19_2 S2_2 1_555 1_555
C20_2 C19_2 1_555 1_555
H11_2 C20_2 1_555 1_555
H12_2 C21_2 1_555 1_555
C23_2 C24_2 1_555 1_555
C24_2 H13_2 1_555 1_555
C25_2 C24_2 1_555 1_555
H14_2 C25_2 1_555 1_555
C26_2 S2_2 1_555 1_555
C27_2 C26_2 1_555 1_555
H15_2 C27_2 1_555 1_555
C28_2 C23_2 1_555 1_555
C29_2 O13_2 1_555 1_555
C30_2 C29_2 1_555 1_555
C31_2 C30_2 1_555 1_555
H17_2 C31_2 1_555 1_555
C32_2 C31_2 1_555 1_555
H18_2 C32_2 1_555 1_555
C33_2 S3_2 1_555 1_555
C34_2 C33_2 1_555 1_555
H19_2 C34_2 1_555 1_555
C35_2 C30_2 1_555 1_555
H20_2 C35_2 1_555 1_555
C4_2 C5_2 1_555 1_555
C6_2 C7_2 1_555 1_555
C11_2 C12_2 1_555 1_555
C13_2 C14_2 1_555 1_555
C18_2 C19_2 1_555 1_555
C20_2 C21_2 1_555 1_555
C25_2 C26_2 1_555 1_555
C27_2 C28_2 1_555 1_555
C32_2 C33_2 1_555 1_555
C34_2 C35_2 1_555 1_555
O17_2 C36_2 1_555 1_555
C36_2 C37_2 1_555 1_555
C37_2 C38_2 1_555 1_555
C38_2 H21_2 1_555 1_555
C39_2 C38_2 1_555 1_555
H22_2 C39_2 1_555 1_555
C41_2 C40_2 1_555 1_555
C42_2 C37_2 1_555 1_555
H24_2 C42_2 1_555 1_555
C39_2 C40_2 1_555 1_555
C41_2 C42_2 1_555 1_555
S4_3 O21_3 1_555 1_555
O35 S4_3 1_555 1_555
C47_3 S4_3 1_555 1_555
C48_3 C47_3 1_555 1_555
H27_3 C48_3 1_555 1_555
H28_3 C49_3 1_555 1_555
C51_3 C52_3 1_555 1_555
C53_3 C52_3 1_555 1_555
H30_3 C53_3 1_555 1_555
C54_3 S4_3 1_555 1_555
C55_3 C54_3 1_555 1_555
H31_3 C55_3 1_555 1_555
C56_3 C51_3 1_555 1_555
H32_3 C56_3 1_555 1_555
C46_3 C47_3 1_555 1_555
C48_3 C49_3 1_555 1_555
C53_3 C54_3 1_555 1_555
C55_3 C56_3 1_555 1_555
O12_2 C22_3 1_555 1_555
C17_3 C16_3 1_555 1_555
H9_3 C17_3 1_555 1_555
O12_2 Tb7_2 1_555 1_555
Tb8_2 N1_3 1_555 1_555
Tb10 N3_3 1_555 1_555
N1_3 C57_3 1_555 1_555
N2_3 Tb8_2 1_555 1_555
N3_3 C69_3 1_555 1_555
N4_3 Tb10 1_555 1_555
O7_3 Tb1_2 1_555 1_555
O8_3 Tb8_2 1_555 1_555
O14_3 Tb8_2 1_555 1_555
O19_3 Tb7_2 1_555 1_555
O20_3 Tb10 1_555 1_555
O25_3 Tb1_2 1_555 1_555
O26_3 Tb1_2 1_555 1_555
O27_3 Tb1_2 1_555 1_555
O28_3 Tb7_2 1_555 1_555
C15_3 O7_3 1_555 1_555
C43_3 O19_3 1_555 1_555
C44_3 C43_3 1_555 1_555
C45_3 C44_3 1_555 1_555
H25_3 C45_3 1_555 1_555
C57_3 H33_3 1_555 1_555
C58_3 C57_3 1_555 1_555
C59_3 C58_3 1_555 1_555
H35_3 C59_3 1_555 1_555
C60_3 C59_3 1_555 1_555
C61_3 C60_3 1_555 1_555
H36_3 C61_3 1_555 1_555
C62_3 C61_3 1_555 1_555
H37_3 C62_3 1_555 1_555
C63_3 C62_3 1_555 1_555
C64_3 C63_3 1_555 1_555
H38_3 C64_3 1_555 1_555
C65_3 C64_3 1_555 1_555
H39_3 C65_3 1_555 1_555
C66_3 N2_3 1_555 1_555
H40_3 C66_3 1_555 1_555
C67_3 N2_3 1_555 1_555
C68_3 N1_3 1_555 1_555
C69_3 H41_3 1_555 1_555
C70_3 C69_3 1_555 1_555
H42_3 C70_3 1_555 1_555
C71_3 C70_3 1_555 1_555
H43_3 C71_3 1_555 1_555
C72_3 C71_3 1_555 1_555
C73_3 C72_3 1_555 1_555
H44_3 C73_3 1_555 1_555
C74_3 C73_3 1_555 1_555
H45_3 C74_3 1_555 1_555
C75_3 C74_3 1_555 1_555
C76_3 C75_3 1_555 1_555
H46_3 C76_3 1_555 1_555
C77_3 C76_3 1_555 1_555
H47_3 C77_3 1_555 1_555
C78_3 N4_3 1_555 1_555
H48_3 C78_3 1_555 1_555
C79_3 N4_3 1_555 1_555
C80_3 N3_3 1_555 1_555
O30_2 Tb10 1_555 1_555
O37_2 Tb1_2 1_555 1_555
Tb7_2 O25_3 1_555 1_555
Tb7_2 O27_3 1_555 1_555
Tb8_2 O25_3 1_555 1_555
Tb8_2 O26_3 1_555 1_555
Tb8_2 O28_3 1_555 1_555
Tb10 O26_3 1_555 1_555
Tb10 O27_3 1_555 1_555
Tb10 O28_3 1_555 1_555
O8_3 C15_3 1_555 1_555
O20_3 C43_3 1_555 1_555
C60_3 C68_3 1_555 1_555
C63_3 C67_3 1_555 1_555
C65_3 C66_3 1_555 1_555
C67_3 C68_3 1_555 1_555
C72_3 C80_3 1_555 1_555
C75_3 C79_3 1_555 1_555
C77_3 C78_3 1_555 1_555
C79_3 C80_3 1_555 1_555
S1_3 O3_3 1_555 1_555
O4_3 S1_3 1_555 1_555
O29_2 C8_3 1_555 1_555
C1_3 C2_3 1_555 1_555
C2_3 C3_3 1_555 1_555
C3_3 H1_3 1_555 1_555
C4_3 C3_3 1_555 1_555
H2_3 C4_3 1_555 1_555
C5_3 S1_3 1_555 1_555
C6_3 C5_3 1_555 1_555
H3_3 C6_3 1_555 1_555
C7_3 C2_3 1_555 1_555
H4_3 C7_3 1_555 1_555
C8_3 C9_3 1_555 1_555
C9_3 C10_3 1_555 1_555
C10_3 H5_3 1_555 1_555
C11_3 C10_3 1_555 1_555
H6_3 C11_3 1_555 1_555
C12_3 S1_3 1_555 1_555
C13_3 C12_3 1_555 1_555
H7_3 C13_3 1_555 1_555
C14_3 C9_3 1_555 1_555
H8_3 C14_3 1_555 1_555
C4_3 C5_3 1_555 1_555
C6_3 C7_3 1_555 1_555
C11_3 C12_3 1_555 1_555
C13_3 C14_3 1_555 1_555
S2_3 O9_3 1_555 1_555
O10_3 S2_3 1_555 1_555
H10_6 C18_3 1_555 1_555
C19_3 S2_3 1_555 1_555
C20_3 C19_3 1_555 1_555
H11_3 C20_3 1_555 1_555
H12_3 C21_3 1_555 1_555
C23_3 C24_3 1_555 1_555
C24_3 H13_3 1_555 1_555
C25_3 C24_3 1_555 1_555
H14_3 C25_3 1_555 1_555
C26_3 S2_3 1_555 1_555
C27_3 C26_3 1_555 1_555
H15_3 C27_3 1_555 1_555
C28_3 C23_3 1_555 1_555
C18_3 C19_3 1_555 1_555
C20_3 C21_3 1_555 1_555
C25_3 C26_3 1_555 1_555
C27_3 C28_3 1_555 1_555
S3_3 O15_3 1_555 1_555
O16_3 S3_3 1_555 1_555
O33_2 C36_3 1_555 1_555
C29_3 O13_3 1_555 1_555
C30_3 C29_3 1_555 1_555
C31_3 C30_3 1_555 1_555
H17_3 C31_3 1_555 1_555
C32_3 C31_3 1_555 1_555
H18_3 C32_3 1_555 1_555
C33_3 S3_3 1_555 1_555
C34_3 C33_3 1_555 1_555
H19_3 C34_3 1_555 1_555
C35_3 C30_3 1_555 1_555
H20_3 C35_3 1_555 1_555
C36_3 C37_3 1_555 1_555
C37_3 C38_3 1_555 1_555
C38_3 H21_3 1_555 1_555
C39_3 C38_3 1_555 1_555
H22_3 C39_3 1_555 1_555
C40_3 S3_3 1_555 1_555
C41_3 C40_3 1_555 1_555
H23_3 C41_3 1_555 1_555
C42_3 C37_3 1_555 1_555
H24_3 C42_3 1_555 1_555
C32_3 C33_3 1_555 1_555
C34_3 C35_3 1_555 1_555
C39_3 C40_3 1_555 1_555
C41_3 C42_3 1_555 1_555
O33 C36_4 1_555 1_555
C36_4 C37_4 1_555 1_555
C37_4 C38_4 1_555 1_555
C38_4 H21_4 1_555 1_555
C39_4 C38_4 1_555 1_555
H22_4 C39_4 1_555 1_555
C41_4 C40_4 1_555 1_555
C42_4 C37_4 1_555 1_555
H24_4 C42_4 1_555 1_555
C39_4 C40_4 1_555 1_555
C41_4 C42_4 1_555 1_555
S1_4 O3_4 1_555 1_555
S2_4 O9_4 1_555 1_555
O2_4 C1_4 1_555 1_555
O4_4 S1_4 1_555 1_555
O5_2 C8_4 1_555 1_555
O6_2 C8_4 1_555 1_555
O10_4 S2_4 1_555 1_555
O16_4 S3_4 1_555 1_555
C1_4 C2_4 1_555 1_555
C2_4 C3_4 1_555 1_555
C3_4 H1_4 1_555 1_555
C4_4 C3_4 1_555 1_555
H2_4 C4_4 1_555 1_555
C5_4 S1_4 1_555 1_555
C6_4 C5_4 1_555 1_555
H3_4 C6_4 1_555 1_555
C7_4 C2_4 1_555 1_555
H4_4 C7_4 1_555 1_555
C8_4 C9_4 1_555 1_555
C9_4 C10_4 1_555 1_555
C10_4 H5_4 1_555 1_555
C11_4 C10_4 1_555 1_555
H6_4 C11_4 1_555 1_555
C12_4 S1_4 1_555 1_555
C13_4 C12_4 1_555 1_555
H7_4 C13_4 1_555 1_555
C14_4 C9_4 1_555 1_555
H8_4 C14_4 1_555 1_555
H10_7 C18_4 1_555 1_555
C19_4 S2_4 1_555 1_555
C20_4 C19_4 1_555 1_555
H11_4 C20_4 1_555 1_555
H12_4 C21_4 1_555 1_555
C23_4 C24_4 1_555 1_555
C24_4 H13_4 1_555 1_555
C25_4 C24_4 1_555 1_555
H14_4 C25_4 1_555 1_555
C26_4 S2_4 1_555 1_555
C27_4 C26_4 1_555 1_555
H15_4 C27_4 1_555 1_555
C28_4 C23_4 1_555 1_555
C29_4 O13_4 1_555 1_555
C30_4 C29_4 1_555 1_555
C31_4 C30_4 1_555 1_555
H17_4 C31_4 1_555 1_555
C32_4 C31_4 1_555 1_555
H18_4 C32_4 1_555 1_555
C33_4 S3_4 1_555 1_555
C34_4 C33_4 1_555 1_555
H19_4 C34_4 1_555 1_555
C35_4 C30_4 1_555 1_555
H20_4 C35_4 1_555 1_555
Tb6_2 O5_2 1_555 1_555
Tb10_2 O6_2 1_555 1_555
C4_4 C5_4 1_555 1_555
C6_4 C7_4 1_555 1_555
C11_4 C12_4 1_555 1_555
C13_4 C14_4 1_555 1_555
C18_4 C19_4 1_555 1_555
C20_4 C21_4 1_555 1_555
C25_4 C26_4 1_555 1_555
C27_4 C28_4 1_555 1_555
C32_4 C33_4 1_555 1_555
C34_4 C35_4 1_555 1_555
S4_4 O21_4 1_555 1_555
O35_2 S4_4 1_555 1_555
O23_2 C50_4 1_555 1_555
O24_2 C50_4 1_555 1_555
C45_4 C44_4 1_555 1_555
H25_4 C45_4 1_555 1_555
C46_4 C45_4 1_555 1_555
H26_4 C46_4 1_555 1_555
C47_4 S4_4 1_555 1_555
C48_4 C47_4 1_555 1_555
H27_4 C48_4 1_555 1_555
C49_4 C44_4 1_555 1_555
H28_4 C49_4 1_555 1_555
C50_4 C51_4 1_555 1_555
C51_4 C52_4 1_555 1_555
C52_4 H29_4 1_555 1_555
C53_4 C52_4 1_555 1_555
H30_4 C53_4 1_555 1_555
C54_4 S4_4 1_555 1_555
C55_4 C54_4 1_555 1_555
H31_4 C55_4 1_555 1_555
C56_4 C51_4 1_555 1_555
H32_4 C56_4 1_555 1_555
Tb6_2 O23_2 1_555 1_555
O24_2 Tb6_2 1_555 1_555
C46_4 C47_4 1_555 1_555
C48_4 C49_4 1_555 1_555
C53_4 C54_4 1_555 1_555
C55_4 C56_4 1_555 1_555
Tb6_2 O1_4 1_555 1_555
Tb8 N1_4 1_555 1_555
Tb10_2 N3_4 1_555 1_555
N1_4 C57_4 1_555 1_555
N2_4 Tb8 1_555 1_555
N3_4 C69_4 1_555 1_555
N4_4 Tb10_2 1_555 1_555
O7_4 Tb6_2 1_555 1_555
O8_4 Tb8 1_555 1_555
O14_4 Tb8 1_555 1_555
O19_4 Tb2_2 1_555 1_555
O20_4 Tb10_2 1_555 1_555
O25_4 Tb6_2 1_555 1_555
O26_4 Tb6_2 1_555 1_555
O27_4 Tb6_2 1_555 1_555
O28_4 Tb2_2 1_555 1_555
C15_4 O7_4 1_555 1_555
C16_4 C15_4 1_555 1_555
C17_4 C16_4 1_555 1_555
H9_4 C17_4 1_555 1_555
C43_4 O19_4 1_555 1_555
C57_4 H33_4 1_555 1_555
C58_4 C57_4 1_555 1_555
H34_4 C58_4 1_555 1_555
C59_4 C58_4 1_555 1_555
H35_4 C59_4 1_555 1_555
C60_4 C59_4 1_555 1_555
C61_4 C60_4 1_555 1_555
H36_4 C61_4 1_555 1_555
C62_4 C61_4 1_555 1_555
H37_4 C62_4 1_555 1_555
C63_4 C62_4 1_555 1_555
C64_4 C63_4 1_555 1_555
H38_4 C64_4 1_555 1_555
C65_4 C64_4 1_555 1_555
H39_4 C65_4 1_555 1_555
C66_4 N2_4 1_555 1_555
H40_4 C66_4 1_555 1_555
C67_4 N2_4 1_555 1_555
C68_4 N1_4 1_555 1_555
C69_4 H41_4 1_555 1_555
C70_4 C69_4 1_555 1_555
H42_4 C70_4 1_555 1_555
C71_4 C70_4 1_555 1_555
H43_4 C71_4 1_555 1_555
C72_4 C71_4 1_555 1_555
C73_4 C72_4 1_555 1_555
H44_4 C73_4 1_555 1_555
C74_4 C73_4 1_555 1_555
H45_4 C74_4 1_555 1_555
C75_4 C74_4 1_555 1_555
C76_4 C75_4 1_555 1_555
H46_4 C76_4 1_555 1_555
C77_4 C76_4 1_555 1_555
H47_4 C77_4 1_555 1_555
C78_4 N4_4 1_555 1_555
H48_4 C78_4 1_555 1_555
C79_4 N4_4 1_555 1_555
C80_4 N3_4 1_555 1_555
O32_2 Tb2_2 1_555 1_555
Tb2_2 O25_4 1_555 1_555
Tb2_2 O27_4 1_555 1_555
Tb8 O25_4 1_555 1_555
Tb8 O26_4 1_555 1_555
Tb8 O28_4 1_555 1_555
Tb10_2 O26_4 1_555 1_555
Tb10_2 O27_4 1_555 1_555
Tb10_2 O28_4 1_555 1_555
O8_4 C15_4 1_555 1_555
O20_4 C43_4 1_555 1_555
C60_4 C68_4 1_555 1_555
C63_4 C67_4 1_555 1_555
C65_4 C66_4 1_555 1_555
C67_4 C68_4 1_555 1_555
C72_4 C80_4 1_555 1_555
C75_4 C79_4 1_555 1_555
C77_4 C78_4 1_555 1_555
C79_4 C80_4 1_555 1_555
O32_2 C22_4 1_555 1_555

#END
