
###############################################################################
#
# This file contains modified crystal structure data generated from the
# MOF subset of the Cambridge Structural Database (CSD) v543 
# hosted by the Cambridge Crystallographic Data Centre (CCDC).
#
# This work is licensed under the Creative Commons
# Attribution-NonCommercial-ShareAlike 4.0 International License.
# To view a copy of this license, visit
# http://creativecommons.org/licenses/by-nc-sa/4.0/
# or send a letter to
# Creative Commons, PO Box 1866, Mountain View, CA 94042, USA.
#
# CIF created using the CSD Python API on 29 September 2022
# The structure has been converted into the P1 space group
# The structure has a 3D framework
# The original CSD entry QUVLAW is in the hexagonal crystal system
# The original CSD entry QUVLAW is in a Sohncke space group
# The framework has been calculated to contain at least 10.0% void space
# The void calculation uses a probe of radius 1.32A, grid spacing 0.4
#
###############################################################################

data_QUVLAW
_chemical_formula_moiety         '(C126 H60 N6 O36 Tb2)n'
_symmetry_cell_setting           triclinic
_symmetry_space_group_name_H-M   'P 1'
_symmetry_Int_Tables_number      1
_space_group_name_Hall           'P 1'
loop_
_symmetry_equiv_pos_site_id
_symmetry_equiv_pos_as_xyz
1 x,y,z
_cell_length_a                   15.4248(5)
_cell_length_b                   15.4248(5)
_cell_length_c                   19.3027(9)
_cell_angle_alpha                90
_cell_angle_beta                 90
_cell_angle_gamma                120
_cell_volume                     3977.29
loop_
_atom_site_label
_atom_site_type_symbol
_atom_site_fract_x
_atom_site_fract_y
_atom_site_fract_z
C1 C 0.1422(12) 0.2203(13) 0.4472(9)
H1 H 0.0952 0.1566 0.4320
C2 C 0.1426(10) 0.2479(11) 0.5180(9)
C3 C 0.2140(18) 0.3401(16) 0.5387(10)
H2 H 0.2130 0.3587 0.5844
C4 C 0.2904(18) 0.4099(16) 0.4944(12)
H3 H 0.3414 0.4708 0.5111
C5 C 0.2861(16) 0.3844(16) 0.4270(10)
C6 C 0.2111(13) 0.2878(13) 0.4020(9)
C7 C 0.2320(13) 0.2881(13) 0.3294(9)
C8 C 0.1838(12) 0.2169(12) 0.2762(9)
H4 H 0.1292 0.1544 0.2862
C9 C 0.2190(13) 0.2414(12) 0.2091(9)
C10 C 0.3093(14) 0.3364(13) 0.1970(10)
H5 H 0.3348 0.3511 0.1522
C11 C 0.3571(17) 0.4027(15) 0.2458(10)
H6 H 0.4166 0.4615 0.2365
C12 C 0.3143(15) 0.3812(13) 0.3138(10)
C13 C 0.4344(15) 0.5355(16) 0.3824(9)
C14 C 0.5279(15) 0.5436(13) 0.3653(11)
H7 H 0.5305 0.4912 0.3435
C15 C 0.6160(16) 0.6326(13) 0.3821(9)
H8 H 0.6781 0.6412 0.3697
C16 C 0.6096(12) 0.7054(11) 0.4165(9)
C17 C 0.5148(13) 0.6924(15) 0.4302(10)
H9 H 0.5097 0.7426 0.4534
C18 C 0.4330(14) 0.6114(15) 0.4111(11)
H10 H 0.3717 0.6078 0.4183
C19 C 0.0721(11) 0.1818(13) 0.5710(8)
C20 C 0.1799(13) 0.1718(13) 0.1498(10)
C21 C 0.7040(12) 0.7984(12) 0.4455(9)
N1 N 0.3448(11) 0.4367(11) 0.3722(7)
O1 O 0.0735(9) 0.2180(8) 0.6281(6)
O2 O 0.0088(8) 0.0877(8) 0.5591(6)
O3 O 0.1023(8) 0.0811(8) 0.1613(6)
O4 O 0.2151(9) 0.1964(8) 0.0897(6)
O5 O 0.7884(7) 0.8026(8) 0.4356(7)
O6 O 0.6959(8) 0.8627(8) 0.4762(7)
Tb3 Tb 0.86432(7) 0.94533(5) 0.52041(6)
Tb4 Tb 0.91899(5) 0.86432(7) 0.35375(6)
Tb6 Tb 0.13568(7) 0.05467(5) 0.02041(6)
O7 O 0.0877(8) 0.0789(11) 0.7258(6)
O11 O 0.0142(11) 0.2116(7) 0.7689(7)
Tb5 Tb 0.05467(5) 0.91899(5) 0.18708(6)
Tb1 Tb 0.94533(5) 0.08101(5) 0.68708(6)
O8 O 0.9189(8) 0.0212(11) 0.8280(6)
O10 O 0.8036(8) 0.0187(12) 0.7564(6)
O12 O 0.8026(8) 0.0142(11) 0.6023(7)
O13 O 0.8627(8) 0.1668(11) 0.6429(7)
O9 O 0.8977(8) 0.9189(8) 0.6613(6)
H7_2 H 0.0393 0.5305 0.1768
H8_2 H 0.0369 0.6781 0.2030
C20_2 C 0.0081(18) 0.1799(13) 0.9831(10)
O3_2 O 0.0212(11) 0.1023(8) 0.9946(6)
O4_2 O 0.0187(12) 0.2151(9) 0.9230(6)
Tb6_2 Tb 0.08101(9) 0.13568(7) 0.85375(6)
C1_2 C 0.9219(18) 0.1422(12) 0.2805(9)
H1_2 H 0.9386 0.0952 0.2653
C2_2 C 0.8947(15) 0.1426(10) 0.3513(9)
C3_2 C 0.8739(24) 0.2140(18) 0.3720(10)
H2_2 H 0.8543 0.2130 0.4177
C4_2 C 0.8805(24) 0.2904(18) 0.3277(12)
H3_2 H 0.8706 0.3414 0.3444
C5_2 C 0.9017(23) 0.2861(16) 0.2603(10)
C6_2 C 0.9233(18) 0.2111(13) 0.2353(9)
C7_2 C 0.9439(18) 0.2320(13) 0.1627(9)
C8_2 C 0.9669(17) 0.1838(12) 0.1095(9)
H4_2 H 0.9748 0.1292 0.1195
C9_2 C 0.9776(18) 0.2190(13) 0.0424(9)
C10_2 C 0.9729(19) 0.3093(14) 0.0303(10)
C11_2 C 0.9544(23) 0.3571(17) 0.0791(10)
H6_2 H 0.9551 0.4166 0.0698
C12_2 C 0.9331(20) 0.3143(15) 0.1471(10)
C13_2 C 0.8989(22) 0.4344(15) 0.2157(9)
C14_2 C 0.9843(20) 0.5279(15) 0.1986(11)
C15_2 C 0.9834(21) 0.6160(16) 0.2154(9)
C16_2 C 0.9042(16) 0.6096(12) 0.2498(9)
C17_2 C 0.8224(20) 0.5148(13) 0.2635(10)
H9_2 H 0.7671 0.5097 0.2867
C18_2 C 0.8216(21) 0.4330(14) 0.2444(11)
H10_2 H 0.7639 0.3717 0.2516
C19_2 C 0.8903(17) 0.0721(11) 0.4043(8)
C21_2 C 0.9056(17) 0.7040(12) 0.2788(9)
N1_2 N 0.9081(16) 0.3448(11) 0.2055(7)
O1_2 O 0.8555(12) 0.0735(9) 0.4614(6)
O2_2 O 0.9211(11) 0.0088(8) 0.3924(6)
O5_2 O 0.9858(11) 0.7884(7) 0.2689(7)
O6_2 O 0.8332(11) 0.6959(8) 0.3095(7)
O9_2 O 0.9788(11) 0.8977(8) 0.4946(6)
O10_2 O 0.7849(14) 0.8036(8) 0.5897(6)
O9_3 O 0.0811(8) 0.9788(11) 0.3280(6)
H7_3 H 0.5088 0.0393 0.0102
H8_3 H 0.3588 0.0369 0.0364
C20_3 C 0.8282(13) 0.0081(18) 0.8165(10)
C1_3 C 0.7797(13) 0.9219(18) 0.1139(9)
H1_3 H 0.8434 0.9386 0.0987
C2_3 C 0.7521(11) 0.8947(15) 0.1847(9)
C3_3 C 0.6599(16) 0.8739(24) 0.2054(10)
H2_3 H 0.6413 0.8543 0.2511
C4_3 C 0.5901(16) 0.8805(24) 0.1611(12)
H3_3 H 0.5292 0.8706 0.1778
C5_3 C 0.6156(16) 0.9017(23) 0.0937(10)
C6_3 C 0.7122(13) 0.9233(18) 0.0687(9)
C13_3 C 0.4645(16) 0.8989(22) 0.0491(9)
C14_3 C 0.4564(13) 0.9843(20) 0.0320(11)
C15_3 C 0.3674(13) 0.9834(21) 0.0488(9)
C16_3 C 0.2946(11) 0.9042(16) 0.0832(9)
C17_3 C 0.3076(15) 0.8224(20) 0.0969(10)
H9_3 H 0.2574 0.7671 0.1201
C18_3 C 0.3886(15) 0.8216(21) 0.0778(11)
H10_3 H 0.3922 0.7639 0.0850
C19_3 C 0.8182(13) 0.8903(17) 0.2377(8)
C21_3 C 0.2016(12) 0.9056(17) 0.1122(9)
N1_3 N 0.5633(11) 0.9081(16) 0.0389(7)
O1_3 O 0.7820(8) 0.8555(12) 0.2948(6)
O2_3 O 0.9123(8) 0.9211(11) 0.2258(6)
O5_3 O 0.1974(8) 0.9858(11) 0.1023(7)
O6_3 O 0.1373(8) 0.8332(11) 0.1429(7)
O10_3 O 0.9813(12) 0.7849(14) 0.4230(6)
O10_4 O 0.1964(8) 0.9813(12) 0.2564(6)
C2_4 C 0.8574(10) 0.7521(11) 0.0180(9)
C3_4 C 0.7860(18) 0.6599(16) 0.0387(10)
H2_4 H 0.7870 0.6413 0.0844
H3_4 H 0.6586 0.5292 0.0111
C19_4 C 0.9279(11) 0.8182(13) 0.0710(8)
O1_4 O 0.9265(9) 0.7820(8) 0.1281(6)
O2_4 O 0.9912(8) 0.9123(8) 0.0591(6)
C1_4 C 0.8578(12) 0.7797(13) 0.9472(9)
H1_4 H 0.9048 0.8434 0.9320
C4_4 C 0.7096(18) 0.5901(16) 0.9944(12)
C5_4 C 0.7139(16) 0.6156(16) 0.9270(10)
C6_4 C 0.7889(13) 0.7122(13) 0.9020(9)
C7_3 C 0.7680(13) 0.7119(13) 0.8294(9)
C8_3 C 0.8162(12) 0.7831(12) 0.7762(9)
H4_3 H 0.8708 0.8456 0.7862
C9_3 C 0.7810(13) 0.7586(12) 0.7091(9)
C10_3 C 0.6907(14) 0.6636(13) 0.6970(10)
H5_2 H 0.6652 0.6489 0.6522
C11_3 C 0.6429(17) 0.5973(15) 0.7458(10)
H6_3 H 0.5834 0.5385 0.7365
C12_3 C 0.6857(15) 0.6188(13) 0.8138(10)
C13_4 C 0.5656(15) 0.4645(16) 0.8824(9)
C14_4 C 0.4721(15) 0.4564(13) 0.8653(11)
H7_4 H 0.4695 0.5088 0.8435
C15_4 C 0.3840(16) 0.3674(13) 0.8821(9)
H8_4 H 0.3219 0.3588 0.8697
C16_4 C 0.3904(12) 0.2946(11) 0.9165(9)
C17_4 C 0.4852(13) 0.3076(15) 0.9302(10)
H9_4 H 0.4903 0.2574 0.9534
C18_4 C 0.5670(14) 0.3886(15) 0.9111(11)
H10_4 H 0.6283 0.3922 0.9183
C20_4 C 0.8201(13) 0.8282(13) 0.6498(10)
C21_4 C 0.2960(12) 0.2016(12) 0.9455(9)
N1_4 N 0.6552(11) 0.5633(11) 0.8722(7)
O5_4 O 0.2116(7) 0.1974(8) 0.9356(7)
O6_4 O 0.3041(8) 0.1373(8) 0.9762(7)
C1_5 C 0.0781(18) 0.8578(12) 0.7805(9)
H1_5 H 0.0614 0.9048 0.7653
C2_5 C 0.1053(15) 0.8574(10) 0.8513(9)
C3_5 C 0.1261(24) 0.7860(18) 0.8720(10)
H2_5 H 0.1457 0.7870 0.9177
C4_5 C 0.1195(24) 0.7096(18) 0.8277(12)
H3_5 H 0.1294 0.6586 0.8444
C5_5 C 0.0983(23) 0.7139(16) 0.7603(10)
C6_5 C 0.0767(18) 0.7889(13) 0.7353(9)
C7_4 C 0.0561(18) 0.7680(13) 0.6627(9)
C8_4 C 0.0331(17) 0.8162(12) 0.6095(9)
H4_4 H 0.0252 0.8708 0.6195
C9_4 C 0.0224(18) 0.7810(13) 0.5424(9)
C10_4 C 0.0271(19) 0.6907(14) 0.5303(10)
H5_3 H 0.0163 0.6652 0.4855
C11_4 C 0.0456(23) 0.6429(17) 0.5791(10)
H6_4 H 0.0449 0.5834 0.5698
C12_4 C 0.0669(20) 0.6857(15) 0.6471(10)
C13_5 C 0.1011(22) 0.5656(15) 0.7157(9)
C14_5 C 0.0157(20) 0.4721(15) 0.6986(11)
C15_5 C 0.0166(21) 0.3840(16) 0.7154(9)
C16_5 C 0.0958(16) 0.3904(12) 0.7498(9)
C17_5 C 0.1776(20) 0.4852(13) 0.7635(10)
H9_5 H 0.2329 0.4903 0.7867
C18_5 C 0.1784(21) 0.5670(14) 0.7444(11)
H10_5 H 0.2361 0.6283 0.7516
C19_5 C 0.1097(17) 0.9279(11) 0.9043(8)
C21_5 C 0.0944(17) 0.2960(12) 0.7788(9)
N1_5 N 0.0919(16) 0.6552(11) 0.7055(7)
O1_5 O 0.1445(12) 0.9265(9) 0.9614(6)
O2_5 O 0.0789(11) 0.9912(8) 0.8924(6)
O6_5 O 0.1668(11) 0.3041(8) 0.8095(7)
H7_5 H 0.9607 0.4695 0.6768
H8_5 H 0.9631 0.3219 0.7030
C20_5 C 0.9919(18) 0.8201(13) 0.4831(10)
C1_6 C 0.2203(13) 0.0781(18) 0.6139(9)
H1_6 H 0.1566 0.0614 0.5987
C2_6 C 0.2479(11) 0.1053(15) 0.6847(9)
C3_6 C 0.3401(16) 0.1261(24) 0.7054(10)
H2_6 H 0.3587 0.1457 0.7511
C4_6 C 0.4099(16) 0.1195(24) 0.6611(12)
H3_6 H 0.4708 0.1294 0.6778
C5_6 C 0.3844(16) 0.0983(23) 0.5937(10)
C6_6 C 0.2878(13) 0.0767(18) 0.5687(9)
C7_5 C 0.2881(13) 0.0561(18) 0.4961(9)
C8_5 C 0.2169(12) 0.0331(17) 0.4429(9)
H4_5 H 0.1544 0.0252 0.4529
C9_5 C 0.2414(12) 0.0224(18) 0.3758(9)
C10_5 C 0.3364(13) 0.0271(19) 0.3637(10)
H5_4 H 0.3511 0.0163 0.3189
C11_5 C 0.4027(15) 0.0456(23) 0.4125(10)
H6_5 H 0.4615 0.0449 0.4032
C12_5 C 0.3812(13) 0.0669(20) 0.4805(10)
C13_6 C 0.5355(16) 0.1011(22) 0.5491(9)
C14_6 C 0.5436(13) 0.0157(20) 0.5320(11)
C15_6 C 0.6326(13) 0.0166(21) 0.5488(9)
C16_6 C 0.7054(11) 0.0958(16) 0.5832(9)
C17_6 C 0.6924(15) 0.1776(20) 0.5969(10)
H9_6 H 0.7426 0.2329 0.6201
C18_6 C 0.6114(15) 0.1784(21) 0.5778(11)
H10_6 H 0.6078 0.2361 0.5850
C19_6 C 0.1818(13) 0.1097(17) 0.7377(8)
C21_6 C 0.7984(12) 0.0944(17) 0.6122(9)
N1_6 N 0.4367(11) 0.0919(16) 0.5389(7)
O1_6 O 0.2180(8) 0.1445(12) 0.7948(6)
H7_6 H 0.4912 0.9607 0.5102
H8_6 H 0.6412 0.9631 0.5364
C20_6 C 0.1718(13) 0.9919(18) 0.3165(10)
H5_5 H 0.9837 0.3348 0.9855
C7_6 C 0.7119(13) 0.9439(18) 0.9961(9)
C8_6 C 0.7831(12) 0.9669(17) 0.9429(9)
H4_6 H 0.8456 0.9748 0.9529
C9_6 C 0.7586(12) 0.9776(18) 0.8758(9)
C10_6 C 0.6636(13) 0.9729(19) 0.8637(10)
H5_6 H 0.6489 0.9837 0.8189
C11_6 C 0.5973(15) 0.9544(23) 0.9125(10)
H6_6 H 0.5385 0.9551 0.9032
C12_6 C 0.6188(13) 0.9331(20) 0.9805(10)
loop_
_geom_bond_atom_site_label_1
_geom_bond_atom_site_label_2
_geom_bond_site_symmetry_1
_geom_bond_site_symmetry_2
C1 H1 1_555 1_555
C2 C1 1_555 1_555
C3 C2 1_555 1_555
H2 C3 1_555 1_555
C4 C3 1_555 1_555
H3 C4 1_555 1_555
C5 C4 1_555 1_555
C6 C1 1_555 1_555
C7 C6 1_555 1_555
C8 C7 1_555 1_555
H4 C8 1_555 1_555
C9 C8 1_555 1_555
C10 C9 1_555 1_555
H5 C10 1_555 1_555
C11 C10 1_555 1_555
H6 C11 1_555 1_555
C12 C7 1_555 1_555
C13 C14 1_555 1_555
C14 H7 1_555 1_555
C15 C14 1_555 1_555
H8 C15 1_555 1_555
C16 C15 1_555 1_555
C17 C16 1_555 1_555
H9 C17 1_555 1_555
C18 C13 1_555 1_555
H10 C18 1_555 1_555
C19 C2 1_555 1_555
C20 C9 1_555 1_555
C21 C16 1_555 1_555
N1 C5 1_555 1_555
O1 C19 1_555 1_555
O3 C20 1_555 1_555
O4 C20 1_555 1_555
O5 C21 1_555 1_555
O6 C21 1_555 1_555
Tb3 O5 1_555 1_555
Tb4 O5 1_555 1_555
Tb6 O3 1_555 1_555
C5 C6 1_555 1_555
C11 C12 1_555 1_555
C12 N1 1_555 1_555
C13 N1 1_555 1_555
C17 C18 1_555 1_555
C19 O2 1_555 1_555
O4 Tb6 1_555 1_555
O6 Tb3 1_555 1_555
O8 Tb1 1_555 1_555
O10 Tb1 1_555 1_555
O12 Tb1 1_555 1_555
O13 Tb1 1_555 1_555
Tb3 O9 1_555 1_555
O3_2 C20_2 1_555 1_555
O4_2 C20_2 1_555 1_555
Tb6_2 O3_2 1_555 1_555
O4_2 Tb6_2 1_555 1_555
C1_2 H1_2 1_555 1_555
C2_2 C1_2 1_555 1_555
C3_2 C2_2 1_555 1_555
H2_2 C3_2 1_555 1_555
C4_2 C3_2 1_555 1_555
H3_2 C4_2 1_555 1_555
C5_2 C4_2 1_555 1_555
C6_2 C1_2 1_555 1_555
C7_2 C6_2 1_555 1_555
C8_2 C7_2 1_555 1_555
H4_2 C8_2 1_555 1_555
C9_2 C8_2 1_555 1_555
C10_2 C9_2 1_555 1_555
C11_2 C10_2 1_555 1_555
H6_2 C11_2 1_555 1_555
C12_2 C7_2 1_555 1_555
C13_2 C14_2 1_555 1_555
C15_2 C14_2 1_555 1_555
C16_2 C15_2 1_555 1_555
C17_2 C16_2 1_555 1_555
H9_2 C17_2 1_555 1_555
C18_2 C13_2 1_555 1_555
H10_2 C18_2 1_555 1_555
C19_2 C2_2 1_555 1_555
C21_2 C16_2 1_555 1_555
N1_2 C5_2 1_555 1_555
O1_2 C19_2 1_555 1_555
O5_2 C21_2 1_555 1_555
O6_2 C21_2 1_555 1_555
Tb4 O5_2 1_555 1_555
C5_2 C6_2 1_555 1_555
C11_2 C12_2 1_555 1_555
C12_2 N1_2 1_555 1_555
C13_2 N1_2 1_555 1_555
C17_2 C18_2 1_555 1_555
C19_2 O2_2 1_555 1_555
O6_2 Tb4 1_555 1_555
O9_2 Tb3 1_555 1_555
O10_2 Tb3 1_555 1_555
Tb4 O9_2 1_555 1_555
Tb5 O9_3 1_555 1_555
O8 C20_3 1_555 1_555
O10 C20_3 1_555 1_555
Tb4 O1_3 1_555 1_555
C1_3 H1_3 1_555 1_555
C2_3 C1_3 1_555 1_555
C3_3 C2_3 1_555 1_555
H2_3 C3_3 1_555 1_555
C4_3 C3_3 1_555 1_555
H3_3 C4_3 1_555 1_555
C5_3 C4_3 1_555 1_555
C6_3 C1_3 1_555 1_555
C13_3 C14_3 1_555 1_555
C15_3 C14_3 1_555 1_555
C16_3 C15_3 1_555 1_555
C17_3 C16_3 1_555 1_555
H9_3 C17_3 1_555 1_555
C18_3 C13_3 1_555 1_555
H10_3 C18_3 1_555 1_555
C19_3 C2_3 1_555 1_555
C21_3 C16_3 1_555 1_555
N1_3 C5_3 1_555 1_555
O1_3 C19_3 1_555 1_555
O2_3 Tb4 1_555 1_555
O5_3 C21_3 1_555 1_555
O6_3 C21_3 1_555 1_555
Tb5 O5_3 1_555 1_555
O10_3 Tb4 1_555 1_555
C5_3 C6_3 1_555 1_555
C13_3 N1_3 1_555 1_555
C17_3 C18_3 1_555 1_555
C19_3 O2_3 1_555 1_555
O6_3 Tb5 1_555 1_555
O10_4 Tb5 1_555 1_555
C3_4 C2_4 1_555 1_555
H2_4 C3_4 1_555 1_555
C19_4 C2_4 1_555 1_555
O1_4 C19_4 1_555 1_555
C19_4 O2_4 1_555 1_555
C1_4 H1_4 1_555 1_555
C5_4 C4_4 1_555 1_555
C6_4 C1_4 1_555 1_555
C7_3 C6_4 1_555 1_555
C8_3 C7_3 1_555 1_555
H4_3 C8_3 1_555 1_555
C9_3 C8_3 1_555 1_555
C10_3 C9_3 1_555 1_555
H5_2 C10_3 1_555 1_555
C11_3 C10_3 1_555 1_555
H6_3 C11_3 1_555 1_555
C12_3 C7_3 1_555 1_555
C13_4 C14_4 1_555 1_555
C14_4 H7_4 1_555 1_555
C15_4 C14_4 1_555 1_555
H8_4 C15_4 1_555 1_555
C16_4 C15_4 1_555 1_555
C17_4 C16_4 1_555 1_555
H9_4 C17_4 1_555 1_555
C18_4 C13_4 1_555 1_555
H10_4 C18_4 1_555 1_555
C20_4 C9_3 1_555 1_555
C21_4 C16_4 1_555 1_555
N1_4 C5_4 1_555 1_555
O9 C20_4 1_555 1_555
O10_2 C20_4 1_555 1_555
O5_4 C21_4 1_555 1_555
O6_4 C21_4 1_555 1_555
Tb6_2 O5_4 1_555 1_555
C5_4 C6_4 1_555 1_555
C11_3 C12_3 1_555 1_555
C12_3 N1_4 1_555 1_555
C13_4 N1_4 1_555 1_555
C17_4 C18_4 1_555 1_555
C1_5 H1_5 1_555 1_555
C2_5 C1_5 1_555 1_555
C3_5 C2_5 1_555 1_555
H2_5 C3_5 1_555 1_555
C4_5 C3_5 1_555 1_555
H3_5 C4_5 1_555 1_555
C5_5 C4_5 1_555 1_555
C6_5 C1_5 1_555 1_555
C7_4 C6_5 1_555 1_555
C8_4 C7_4 1_555 1_555
H4_4 C8_4 1_555 1_555
C9_4 C8_4 1_555 1_555
C10_4 C9_4 1_555 1_555
H5_3 C10_4 1_555 1_555
C11_4 C10_4 1_555 1_555
H6_4 C11_4 1_555 1_555
C12_4 C7_4 1_555 1_555
C13_5 C14_5 1_555 1_555
C15_5 C14_5 1_555 1_555
C16_5 C15_5 1_555 1_555
C17_5 C16_5 1_555 1_555
H9_5 C17_5 1_555 1_555
C18_5 C13_5 1_555 1_555
H10_5 C18_5 1_555 1_555
C19_5 C2_5 1_555 1_555
C21_5 C16_5 1_555 1_555
N1_5 C5_5 1_555 1_555
O1_5 C19_5 1_555 1_555
O11 C21_5 1_555 1_555
O6_5 C21_5 1_555 1_555
Tb6_2 O11 1_555 1_555
C5_5 C6_5 1_555 1_555
C11_4 C12_4 1_555 1_555
C12_4 N1_5 1_555 1_555
C13_5 N1_5 1_555 1_555
C17_5 C18_5 1_555 1_555
C19_5 O2_5 1_555 1_555
O6_5 Tb6_2 1_555 1_555
O9_2 C20_5 1_555 1_555
O10_3 C20_5 1_555 1_555
Tb6_2 O1_6 1_555 1_555
C1_6 H1_6 1_555 1_555
C2_6 C1_6 1_555 1_555
C3_6 C2_6 1_555 1_555
H2_6 C3_6 1_555 1_555
C4_6 C3_6 1_555 1_555
H3_6 C4_6 1_555 1_555
C5_6 C4_6 1_555 1_555
C6_6 C1_6 1_555 1_555
C7_5 C6_6 1_555 1_555
C8_5 C7_5 1_555 1_555
H4_5 C8_5 1_555 1_555
C9_5 C8_5 1_555 1_555
C10_5 C9_5 1_555 1_555
H5_4 C10_5 1_555 1_555
C11_5 C10_5 1_555 1_555
H6_5 C11_5 1_555 1_555
C12_5 C7_5 1_555 1_555
C13_6 C14_6 1_555 1_555
C15_6 C14_6 1_555 1_555
C16_6 C15_6 1_555 1_555
C17_6 C16_6 1_555 1_555
H9_6 C17_6 1_555 1_555
C18_6 C13_6 1_555 1_555
H10_6 C18_6 1_555 1_555
C19_6 C2_6 1_555 1_555
C21_6 C16_6 1_555 1_555
N1_6 C5_6 1_555 1_555
O1_6 C19_6 1_555 1_555
O7 Tb6_2 1_555 1_555
O12 C21_6 1_555 1_555
O13 C21_6 1_555 1_555
C5_6 C6_6 1_555 1_555
C11_5 C12_5 1_555 1_555
C12_5 N1_6 1_555 1_555
C13_6 N1_6 1_555 1_555
C17_6 C18_6 1_555 1_555
C19_6 O7 1_555 1_555
O9_3 C20_6 1_555 1_555
O10_4 C20_6 1_555 1_555
C8_6 C7_6 1_555 1_555
H4_6 C8_6 1_555 1_555
C9_6 C8_6 1_555 1_555
C10_6 C9_6 1_555 1_555
H5_6 C10_6 1_555 1_555
C11_6 C10_6 1_555 1_555
H6_6 C11_6 1_555 1_555
C12_6 C7_6 1_555 1_555
C11_6 C12_6 1_555 1_555

#END
