
###############################################################################
#
# This file contains modified crystal structure data generated from the
# MOF subset of the Cambridge Structural Database (CSD) v543 
# hosted by the Cambridge Crystallographic Data Centre (CCDC).
#
# This work is licensed under the Creative Commons
# Attribution-NonCommercial-ShareAlike 4.0 International License.
# To view a copy of this license, visit
# http://creativecommons.org/licenses/by-nc-sa/4.0/
# or send a letter to
# Creative Commons, PO Box 1866, Mountain View, CA 94042, USA.
#
# CIF created using the CSD Python API on 29 September 2022
# The structure has been converted into the P1 space group
# The structure has a 3D framework
# The original CSD entry QUWWUD is in the monoclinic crystal system
# The framework has been calculated to contain at least 10.0% void space
# The void calculation uses a probe of radius 1.32A, grid spacing 0.4
#
###############################################################################

data_QUWWUD
_chemical_formula_moiety         '(C144 H124 Ba8 Cd8 N4 O94)n'
_symmetry_cell_setting           triclinic
_symmetry_space_group_name_H-M   'P 1'
_symmetry_Int_Tables_number      1
_space_group_name_Hall           'P 1'
loop_
_symmetry_equiv_pos_site_id
_symmetry_equiv_pos_as_xyz
1 x,y,z
_cell_length_a                   16.9525(5)
_cell_length_b                   16.9372(5)
_cell_length_c                   17.9986(6)
_cell_angle_alpha                90
_cell_angle_beta                 105.050(4)
_cell_angle_gamma                90
_cell_volume                     4990.64
loop_
_atom_site_label
_atom_site_type_symbol
_atom_site_fract_x
_atom_site_fract_y
_atom_site_fract_z
O26 O 0.0272(3) 0.4619(3) 0.2739(3)
Ba1 Ba 0.37508(2) 0.33723(2) 0.73182(3)
Ba2 Ba 0.11355(2) 0.34420(2) 0.23539(3)
Cd1 Cd 0.88746(2) 0.39148(2) 0.23829(3)
Cd2 Cd 0.39022(2) 0.61431(3) 0.25246(3)
O3 O 0.5217(3) 0.5423(3) 0.2749(3)
O4 O 0.3132(6) 0.4056(5) 0.5952(5)
O5 O 0.4055(3) 0.4791(3) 0.2562(3)
O6 O 0.2452(5) 0.4225(5) 0.7519(7)
H1 H 0.2080 0.3908 0.7574
H2 H 0.2233 0.4476 0.7106
O7 O 0.7573(3) 0.4017(3) 0.2398(3)
O8 O 0.4068(8) 0.3951(10) 0.8730(7)
H3 H 0.3860 0.3672 0.9335
H4 H 0.4471 0.4593 0.9008
O9 O 0.7793(3) 0.2769(3) 0.2755(3)
O10 O 0.1370(7) 0.4155(8) 0.1098(7)
H5 H 0.1928 0.4328 0.1003
H6 H 0.0924 0.4329 0.0603
O11 O 0.4283(3) 0.3356(3) 0.3320(2)
O12 O 0.1893(13) 0.3869(13) 0.4009(11)
O13 O 0.5697(3) 0.3756(3) 0.6087(3)
O14 O 0.2572(4) 0.4349(4) 0.2889(4)
H7 H 0.2505 0.4669 0.3232
H8 H 0.2638 0.4644 0.2528
O15 O 0.5167(3) 0.2906(2) 0.6747(2)
O16 O 0.4530(3) 0.1299(3) 0.6319(3)
O17 O 0.3495(3) 0.2053(3) 0.6372(3)
O18 O 0.2633(3) 0.6084(3) 0.2584(3)
O19 O 0.2836(3) 0.7326(3) 0.2981(3)
O21 O 0.0713(3) 0.6226(3) 0.6268(3)
O22 O 0.0184(3) 0.7092(3) 0.6911(3)
C1 C 0.5299(4) 0.4045(3) 0.2867(4)
H9 H 0.0188 0.6350 0.4879
C3 C 0.5040(3) 0.3358(3) 0.3161(3)
C4 C 0.5521(4) 0.2687(4) 0.3288(4)
H10 H 0.5342 0.2235 0.3488
C5 C 0.6265(4) 0.2691(4) 0.3117(4)
H11 H 0.6583 0.2237 0.3197
C6 C 0.6551(4) 0.3365(4) 0.2823(4)
C7 C 0.6060(4) 0.4026(4) 0.2699(4)
H12 H 0.6241 0.4475 0.2496
C8 C 0.4825(4) 0.4802(4) 0.2718(4)
C9 C 0.7367(4) 0.3376(4) 0.2648(4)
C10 C 0.4248(4) 0.2987(4) 0.4002(3)
C11 C 0.4769(4) 0.3213(4) 0.4688(4)
H13 H 0.5163 0.3597 0.4694
C12 C 0.4709(3) 0.2871(4) 0.5376(3)
C13 C 0.4120(4) 0.2285(4) 0.5353(4)
C14 C 0.3585(4) 0.2098(4) 0.4661(4)
H14 H 0.3178 0.1727 0.4649
C15 C 0.3639(4) 0.2447(5) 0.3983(4)
H15 H 0.3268 0.2319 0.3520
C16 C 0.5236(4) 0.3197(4) 0.6113(4)
C17 C 0.4051(4) 0.1860(4) 0.6069(4)
C18 C 0.1102(4) 0.6045(4) 0.2807(4)
H16 H 0.1289 0.5624 0.2568
C19 C 0.1590(3) 0.6702(3) 0.2998(4)
C20 C 0.1306(4) 0.7329(4) 0.3359(4)
H17 H 0.1627 0.7779 0.3493
C21 C 0.0557(4) 0.7288(4) 0.3519(4)
H18 H 0.0371 0.7714 0.3753
C22 C 0.0077(3) 0.6617(3) 0.3334(3)
C23 C 0.0335(3) 0.5985(3) 0.2959(3)
C24 C 0.2418(4) 0.6721(4) 0.2852(4)
C31 C 0.0234(4) 0.6776(4) 0.6288(4)
C33 C 0.3817(8) 0.4895(9) 0.5192(9)
H21 H 0.4297 0.4607 0.5452
H22 H 0.3915 0.5451 0.5270
H23 H 0.3685 0.4779 0.4652
C34 C 0.3126(10) 0.4660(9) 0.5507(9)
C35 C 0.1783(10) 0.4858(11) 0.5605(14)
H24 H 0.1875 0.4347 0.5843
H25 H 0.1291 0.4848 0.5195
H26 H 0.1731 0.5244 0.5981
N1 N 0.2503(11) 0.5074(9) 0.5284(10)
C36 C 0.2525(12) 0.5723(13) 0.4789(13)
H27 H 0.2914 0.6105 0.5057
H28 H 0.1993 0.5961 0.4633
H29 H 0.2681 0.5540 0.4343
H30 H 0.1509 0.3917 0.4607
H31 H 0.2707 0.4058 0.4348
Ba3 Ba 0.12492(2) 0.83723(2) 0.76818(3)
Ba4 Ba 0.62492(2) 0.66277(2) 0.26818(3)
Ba5 Ba 0.87508(2) 0.16277(2) 0.23182(3)
Ba6 Ba 0.38645(2) 0.84420(2) 0.26461(3)
Ba8 Ba 0.61355(2) 0.15580(2) 0.73539(3)
Cd4 Cd 0.11254(2) 0.60852(2) 0.76171(3)
Cd5 Cd 0.38746(2) 0.10852(2) 0.73829(3)
Cd6 Cd 0.60978(2) 0.38569(3) 0.74754(3)
O25 O 0.9102(3) 0.5244(3) 0.2516(3)
O27 O 0.4783(3) 0.4577(3) 0.7251(3)
O28 O 0.2793(3) 0.2231(3) 0.7755(3)
O29 O 0.4303(3) 0.6244(3) 0.3913(3)
O30 O 0.4833(3) 0.7094(2) 0.3253(2)
O31 O 0.0167(3) 0.2094(2) 0.1747(2)
O33 O 0.9530(3) 0.3701(3) 0.1319(3)
O34 O 0.8495(3) 0.2947(3) 0.1372(3)
O35 O 0.2164(3) 0.2326(3) 0.2019(3)
O36 O 0.9287(3) 0.3774(3) 0.3732(3)
O37 O 0.4816(3) 0.2092(3) 0.8089(3)
O39 O 0.9816(3) 0.2908(3) 0.3089(3)
O40 O 0.1515(4) 0.2285(5) 0.3436(4)
O41 O 0.3485(4) 0.7285(5) 0.1564(4)
O42 O 0.4274(6) 0.6345(4) 0.1382(4)
O20 O 0.9325(3) 0.6561(3) 0.3491(3)
O23 O 0.8485(4) 0.7715(5) 0.6564(4)
O24 O 0.9274(6) 0.8655(4) 0.6382(4)
C2 C 0.9773(4) 0.6713(4) 0.4862(4)
C25 C 0.9869(3) 0.5236(3) 0.2722(3)
C26 C 0.9250(4) 0.6918(4) 0.4166(3)
C27 C 0.8624(4) 0.7437(4) 0.4123(4)
H19 H 0.8264 0.7555 0.3651
C28 C 0.8531(5) 0.7783(5) 0.4786(4)
H20 H 0.8109 0.8143 0.4757
C29 C 0.9056(4) 0.7606(4) 0.5499(4)
C30 C 0.9681(4) 0.7046(4) 0.5536(4)
C32 C 0.8926(5) 0.8010(5) 0.6200(4)
Ba7 Ba 0.88645(2) 0.65580(2) 0.76461(3)
Cd7 Cd 0.89022(2) 0.88569(3) 0.75246(3)
Cd2_2 Cd 0.10978(2) 0.11431(3) 0.24754(3)
O1 O 0.5898(3) 0.0244(3) 0.2484(3)
O18_2 O 0.2367(3) 0.1084(3) 0.2416(3)
O20_2 O 0.5675(3) 0.1561(3) 0.1509(3)
C2_2 C 0.5227(4) 0.1713(4) 0.0138(4)
H9_2 H 0.4812 0.1350 0.0121
C18_2 C 0.3898(4) 0.1045(4) 0.2193(4)
H16_2 H 0.3711 0.0624 0.2432
C19_2 C 0.3410(3) 0.1702(3) 0.2002(4)
C20_2 C 0.3694(4) 0.2329(4) 0.1641(4)
H17_2 H 0.3373 0.2779 0.1507
C21_2 C 0.4443(4) 0.2288(4) 0.1481(4)
H18_2 H 0.4629 0.2714 0.1247
C22_2 C 0.4923(3) 0.1617(3) 0.1666(3)
C23_2 C 0.4665(3) 0.0985(3) 0.2041(3)
C24_2 C 0.2582(4) 0.1721(4) 0.2148(4)
C25_2 C 0.5131(3) 0.0236(3) 0.2278(3)
C26_2 C 0.5750(4) 0.1918(4) 0.0834(3)
C27_2 C 0.6376(4) 0.2437(4) 0.0877(4)
H19_2 H 0.6736 0.2555 0.1349
C28_2 C 0.6469(5) 0.2783(5) 0.0214(4)
H20_2 H 0.6891 0.3143 0.0243
C36_2 C 0.2475(12) 0.0723(13) 0.0211(13)
H28_2 H 0.3007 0.0961 0.0367
H29_2 H 0.2319 0.0540 0.0657
O29_2 O 0.0697(3) 0.1244(3) 0.1087(3)
O42_2 O 0.0726(6) 0.1345(4) 0.3618(4)
O21_2 O 0.4287(3) 0.1226(3) 0.8732(3)
O23_2 O 0.6515(4) 0.2715(5) 0.8436(4)
O24_2 O 0.5726(6) 0.3655(4) 0.8618(4)
C29_2 C 0.5944(4) 0.2606(4) 0.9501(4)
C30_2 C 0.5319(4) 0.2046(4) 0.9464(4)
C31_2 C 0.4766(4) 0.1776(4) 0.8712(4)
C32_2 C 0.6074(5) 0.3010(5) 0.8800(4)
H22_2 H 0.1085 0.0451 0.9730
H26_2 H 0.3269 0.0244 0.9019
N1_2 N 0.2497(11) 0.0074(9) 0.9716(10)
H27_2 H 0.2086 0.1105 0.9943
O2 O 0.4728(3) 0.9619(3) 0.2261(3)
O5_2 O 0.0945(3) 0.9791(3) 0.2438(3)
O10_2 O 0.3630(7) 0.9155(8) 0.3902(7)
H5_2 H 0.3072 0.9328 0.3997
H6_2 H 0.4076 0.9329 0.4397
O11_2 O 0.0717(3) 0.8356(3) 0.1680(2)
O12_2 O 0.3107(13) 0.8869(13) 0.0991(11)
O14_2 O 0.2428(4) 0.9349(4) 0.2111(4)
H7_2 H 0.2495 0.9669 0.1768
H8_2 H 0.2362 0.9644 0.2472
C8_2 C 0.0175(4) 0.9802(4) 0.2282(4)
C10_2 C 0.0752(4) 0.7987(4) 0.0998(3)
C11_2 C 0.0231(4) 0.8213(4) 0.0312(4)
C14_2 C 0.1415(4) 0.7098(4) 0.0339(4)
H14_2 H 0.1822 0.6727 0.0351
C15_2 C 0.1361(4) 0.7447(5) 0.1017(4)
H15_2 H 0.1732 0.7319 0.1480
H23_2 H 0.1315 0.9779 0.0348
H30_2 H 0.3491 0.8917 0.0393
H31_2 H 0.2293 0.9058 0.0652
Cd3 Cd 0.61254(2) 0.89148(2) 0.26171(3)
O32 O 0.5470(3) 0.8701(3) 0.3681(3)
O38 O 0.5184(3) 0.7908(3) 0.1911(3)
O4_2 O 0.1868(6) 0.9056(5) 0.9048(5)
O6_2 O 0.2548(5) 0.9225(5) 0.7481(7)
H1_2 H 0.2920 0.8908 0.7426
H2_2 H 0.2767 0.9476 0.7894
O8_2 O 0.0932(8) 0.8951(10) 0.6270(7)
H3_2 H 0.1140 0.8672 0.5665
H4_2 H 0.0529 0.9593 0.5992
O16_2 O 0.0470(3) 0.6299(3) 0.8681(3)
O17_2 O 0.1505(3) 0.7053(3) 0.8628(3)
C12_2 C 0.0291(3) 0.7871(4) 0.9624(3)
C13_2 C 0.0880(4) 0.7285(4) 0.9647(4)
C17_2 C 0.0949(4) 0.6860(4) 0.8931(4)
C33_2 C 0.1183(8) 0.9895(9) 0.9808(9)
H21_2 H 0.0703 0.9607 0.9548
C34_2 C 0.1874(10) 0.9660(9) 0.9493(9)
C35_2 C 0.3217(10) 0.9858(11) 0.9395(14)
H24_2 H 0.3125 0.9347 0.9157
H25_2 H 0.3709 0.9848 0.9805
O27_2 O 0.0217(3) 0.9577(3) 0.7749(3)
O28_2 O 0.2207(3) 0.7231(3) 0.7245(3)
O3_2 O 0.9783(3) 0.0423(3) 0.2251(3)
O7_2 O 0.7427(3) 0.9017(3) 0.2602(3)
O9_2 O 0.7207(3) 0.7769(3) 0.2245(3)
C1_2 C 0.9701(4) 0.9045(3) 0.2133(4)
C3_2 C 0.9960(3) 0.8358(3) 0.1839(3)
C4_2 C 0.9479(4) 0.7687(4) 0.1712(4)
H10_2 H 0.9658 0.7235 0.1512
C5_2 C 0.8735(4) 0.7691(4) 0.1883(4)
H11_2 H 0.8417 0.7237 0.1803
C6_2 C 0.8449(4) 0.8365(4) 0.2177(4)
C7_2 C 0.8940(4) 0.9026(4) 0.2301(4)
H12_2 H 0.8759 0.9475 0.2504
C9_2 C 0.7633(4) 0.8376(4) 0.2352(4)
H13_2 H 0.9837 0.8597 0.0306
O34_2 O 0.6505(3) 0.7947(3) 0.3628(3)
O36_2 O 0.5713(3) 0.8774(3) 0.1268(3)
O13_2 O 0.9303(3) 0.8756(3) 0.8913(3)
O15_2 O 0.9833(3) 0.7906(2) 0.8253(2)
C16_2 C 0.9764(4) 0.8197(4) 0.8887(4)
O1_2 O 0.0898(3) 0.4756(3) 0.7484(3)
O20_3 O 0.0675(3) 0.3439(3) 0.6509(3)
C2_3 C 0.0227(4) 0.3287(4) 0.5138(4)
C25_3 C 0.0131(3) 0.4764(3) 0.7278(3)
C26_3 C 0.0750(4) 0.3082(4) 0.5834(3)
C27_3 C 0.1376(4) 0.2563(4) 0.5877(4)
H19_3 H 0.1736 0.2445 0.6349
C28_3 C 0.1469(5) 0.2217(5) 0.5214(4)
H20_3 H 0.1891 0.1857 0.5243
C29_3 C 0.0944(4) 0.2394(4) 0.4501(4)
C30_3 C 0.0319(4) 0.2954(4) 0.4464(4)
C32_3 C 0.1074(5) 0.1990(5) 0.3800(4)
O2_2 O 0.9728(3) 0.5381(3) 0.7261(3)
O4_3 O 0.6868(6) 0.5944(5) 0.4048(5)
O5_3 O 0.5945(3) 0.5209(3) 0.7438(3)
O6_3 O 0.7548(5) 0.5775(5) 0.2481(7)
H1_3 H 0.7920 0.6092 0.2426
H2_3 H 0.7767 0.5524 0.2894
O7_3 O 0.2427(3) 0.5983(3) 0.7602(3)
O8_3 O 0.5932(8) 0.6049(10) 0.1270(7)
H3_3 H 0.6140 0.6328 0.0665
H4_3 H 0.5529 0.5407 0.0992
O10_3 O 0.8630(7) 0.5845(8) 0.8902(7)
H5_3 H 0.8072 0.5672 0.8997
H6_3 H 0.9076 0.5671 0.9397
O11_3 O 0.5717(3) 0.6644(3) 0.6680(2)
O12_3 O 0.8107(13) 0.6131(13) 0.5991(11)
O14_3 O 0.7428(4) 0.5651(4) 0.7111(4)
H7_3 H 0.7495 0.5331 0.6768
H8_3 H 0.7362 0.5356 0.7472
O18_3 O 0.7367(3) 0.3916(3) 0.7416(3)
O19_2 O 0.7164(3) 0.2674(3) 0.7019(3)
C1_3 C 0.4701(4) 0.5955(3) 0.7133(4)
H9_3 H 0.9812 0.3650 0.5121
C3_3 C 0.4960(3) 0.6642(3) 0.6839(3)
C4_3 C 0.4479(4) 0.7313(4) 0.6712(4)
H10_3 H 0.4658 0.7765 0.6512
C5_3 C 0.3735(4) 0.7309(4) 0.6883(4)
H11_3 H 0.3417 0.7763 0.6803
C6_3 C 0.3449(4) 0.6635(4) 0.7177(4)
C7_3 C 0.3940(4) 0.5974(4) 0.7301(4)
H12_3 H 0.3759 0.5525 0.7504
C8_3 C 0.5175(4) 0.5198(4) 0.7282(4)
C9_3 C 0.2633(4) 0.6624(4) 0.7352(4)
C10_3 C 0.5752(4) 0.7013(4) 0.5998(3)
C11_3 C 0.5231(4) 0.6787(4) 0.5312(4)
H13_3 H 0.4837 0.6403 0.5306
C12_3 C 0.5291(3) 0.7129(4) 0.4624(3)
C13_3 C 0.5880(4) 0.7715(4) 0.4647(4)
C14_3 C 0.6415(4) 0.7902(4) 0.5339(4)
H14_3 H 0.6822 0.8273 0.5351
C15_3 C 0.6361(4) 0.7553(5) 0.6017(4)
H15_3 H 0.6732 0.7681 0.6480
C16_3 C 0.4764(4) 0.6803(4) 0.3887(4)
C17_3 C 0.5949(4) 0.8140(4) 0.3931(4)
C18_3 C 0.8898(4) 0.3955(4) 0.7193(4)
H16_3 H 0.8711 0.4376 0.7432
C19_3 C 0.8410(3) 0.3298(3) 0.7002(4)
C20_3 C 0.8694(4) 0.2671(4) 0.6641(4)
H17_3 H 0.8373 0.2221 0.6507
C21_3 C 0.9443(4) 0.2712(4) 0.6481(4)
H18_3 H 0.9629 0.2286 0.6247
C22_3 C 0.9923(3) 0.3383(3) 0.6666(3)
C23_3 C 0.9665(3) 0.4015(3) 0.7041(3)
C24_3 C 0.7582(4) 0.3279(4) 0.7148(4)
C31_3 C 0.9766(4) 0.3224(4) 0.3712(4)
C33_3 C 0.6183(8) 0.5105(9) 0.4808(9)
H21_3 H 0.5703 0.5393 0.4548
H22_3 H 0.6085 0.4549 0.4730
H23_3 H 0.6315 0.5221 0.5348
C34_3 C 0.6874(10) 0.5340(9) 0.4493(9)
C35_3 C 0.8217(10) 0.5142(11) 0.4395(14)
H24_3 H 0.8125 0.5653 0.4157
H25_3 H 0.8709 0.5152 0.4805
H26_3 H 0.8269 0.4756 0.4019
N1_3 N 0.7497(11) 0.4926(9) 0.4716(10)
C36_3 C 0.7475(12) 0.4277(13) 0.5211(13)
H27_3 H 0.7086 0.3895 0.4943
H28_3 H 0.8007 0.4039 0.5367
H29_3 H 0.7319 0.4460 0.5657
H30_3 H 0.8491 0.6083 0.5393
H31_3 H 0.7293 0.5942 0.5652
O35_2 O 0.7836(3) 0.7674(3) 0.7981(3)
C16_4 C 0.0236(4) 0.1803(4) 0.1113(4)
O7_4 O 0.2573(3) 0.0983(3) 0.7398(3)
C1_4 C 0.0299(4) 0.0955(3) 0.7867(4)
C3_4 C 0.0040(3) 0.1642(3) 0.8161(3)
C4_4 C 0.0521(4) 0.2313(4) 0.8288(4)
H10_4 H 0.0342 0.2765 0.8488
C5_4 C 0.1265(4) 0.2309(4) 0.8117(4)
H11_4 H 0.1583 0.2763 0.8197
C6_4 C 0.1551(4) 0.1635(4) 0.7823(4)
C7_4 C 0.1060(4) 0.0974(4) 0.7699(4)
H12_4 H 0.1241 0.0525 0.7496
C9_4 C 0.2367(4) 0.1624(4) 0.7648(4)
H13_4 H 0.0163 0.1403 0.9694
O26_2 O 0.5272(3) 0.0381(3) 0.7739(3)
O25_2 O 0.4102(3) 0.9756(3) 0.7516(3)
O4_4 O 0.8132(6) 0.0944(5) 0.0952(5)
O6_4 O 0.7452(5) 0.0775(5) 0.2519(7)
H1_4 H 0.7080 0.1092 0.2574
H2_4 H 0.7233 0.0524 0.2106
O8_4 O 0.9068(8) 0.1049(10) 0.3730(7)
H3_4 H 0.8860 0.1328 0.4335
H4_4 H 0.9471 0.0407 0.4008
C12_4 C 0.9709(3) 0.2129(4) 0.0376(3)
C13_4 C 0.9120(4) 0.2715(4) 0.0353(4)
C17_4 C 0.9051(4) 0.3140(4) 0.1069(4)
C33_4 C 0.8817(8) 0.0105(9) 0.0192(9)
H21_4 H 0.9297 0.0393 0.0452
C34_4 C 0.8126(10) 0.0340(9) 0.0507(9)
C35_4 C 0.6783(10) 0.0142(11) 0.0605(14)
H24_4 H 0.6875 0.0653 0.0843
H25_4 H 0.6291 0.0152 0.0195
O5_4 O 0.9055(3) 0.0209(3) 0.7562(3)
O10_4 O 0.6370(7) 0.0845(8) 0.6098(7)
H5_4 H 0.6928 0.0672 0.6003
H6_4 H 0.5924 0.0671 0.5603
O11_4 O 0.9283(3) 0.1644(3) 0.8320(2)
O12_4 O 0.6893(13) 0.1131(13) 0.9009(11)
O14_4 O 0.7572(4) 0.0651(4) 0.7889(4)
H7_4 H 0.7505 0.0331 0.8232
H8_4 H 0.7638 0.0356 0.7528
C8_4 C 0.9825(4) 0.0198(4) 0.7718(4)
C10_4 C 0.9248(4) 0.2013(4) 0.9002(3)
C11_4 C 0.9769(4) 0.1787(4) 0.9688(4)
C14_4 C 0.8585(4) 0.2902(4) 0.9661(4)
H14_4 H 0.8178 0.3273 0.9649
C15_4 C 0.8639(4) 0.2553(5) 0.8983(4)
H15_4 H 0.8268 0.2681 0.8520
H23_4 H 0.8685 0.0221 0.9652
H30_4 H 0.6509 0.1083 0.9607
H31_4 H 0.7707 0.0942 0.9348
C29_4 C 0.4056(4) 0.7394(4) 0.0499(4)
C30_4 C 0.4681(4) 0.7954(4) 0.0536(4)
C31_4 C 0.5234(4) 0.8224(4) 0.1288(4)
C32_4 C 0.3926(5) 0.6990(5) 0.1200(4)
H22_4 H 0.8915 0.9549 0.0270
H26_4 H 0.6731 0.9756 0.0981
N1_4 N 0.7503(11) 0.9926(9) 0.0284(10)
H27_4 H 0.7914 0.8895 0.0057
O18_4 O 0.7633(3) 0.8916(3) 0.7584(3)
O20_4 O 0.4325(3) 0.8439(3) 0.8491(3)
C2_4 C 0.4773(4) 0.8287(4) 0.9862(4)
H9_4 H 0.5188 0.8650 0.9879
C18_4 C 0.6102(4) 0.8955(4) 0.7807(4)
H16_4 H 0.6289 0.9376 0.7568
C19_4 C 0.6590(3) 0.8298(3) 0.7998(4)
C20_4 C 0.6306(4) 0.7671(4) 0.8359(4)
H17_4 H 0.6627 0.7221 0.8493
C21_4 C 0.5557(4) 0.7712(4) 0.8519(4)
H18_4 H 0.5371 0.7286 0.8753
C22_4 C 0.5077(3) 0.8383(3) 0.8334(3)
C23_4 C 0.5335(3) 0.9015(3) 0.7959(3)
C24_4 C 0.7418(4) 0.8279(4) 0.7852(4)
C25_4 C 0.4869(3) 0.9764(3) 0.7722(3)
C26_4 C 0.4250(4) 0.8082(4) 0.9166(3)
C27_4 C 0.3624(4) 0.7563(4) 0.9123(4)
H19_4 H 0.3264 0.7445 0.8651
C28_4 C 0.3531(5) 0.7217(5) 0.9786(4)
H20_4 H 0.3109 0.6857 0.9757
C36_4 C 0.7525(12) 0.9277(13) 0.9789(13)
H28_4 H 0.6993 0.9039 0.9633
H29_4 H 0.7681 0.9460 0.9343
loop_
_geom_bond_atom_site_label_1
_geom_bond_atom_site_label_2
_geom_bond_site_symmetry_1
_geom_bond_site_symmetry_2
Ba1 O4 1_555 1_555
Ba2 O26 1_555 1_555
Cd1 O7 1_555 1_555
Cd2 O3 1_555 1_555
O3 C8 1_555 1_555
O4 C34 1_555 1_555
O5 Cd2 1_555 1_555
O6 Ba1 1_555 1_555
H1 O6 1_555 1_555
H2 O6 1_555 1_555
O7 C9 1_555 1_555
O8 Ba1 1_555 1_555
H3 O8 1_555 1_555
H4 O8 1_555 1_555
O9 C9 1_555 1_555
O10 Ba2 1_555 1_555
H5 O10 1_555 1_555
H6 O10 1_555 1_555
O11 C3 1_555 1_555
O12 Ba2 1_555 1_555
O13 C16 1_555 1_555
O14 Ba2 1_555 1_555
H7 O14 1_555 1_555
H8 O14 1_555 1_555
O15 Ba1 1_555 1_555
O16 C17 1_555 1_555
O17 Ba1 1_555 1_555
O18 Cd2 1_555 1_555
O19 C24 1_555 1_555
O21 C31 1_555 1_555
O22 C31 1_555 1_555
C1 C3 1_555 1_555
C3 C4 1_555 1_555
C4 H10 1_555 1_555
C5 C4 1_555 1_555
H11 C5 1_555 1_555
C6 C5 1_555 1_555
C7 C1 1_555 1_555
H12 C7 1_555 1_555
C8 O5 1_555 1_555
C9 C6 1_555 1_555
C10 O11 1_555 1_555
C11 C10 1_555 1_555
H13 C11 1_555 1_555
C12 C11 1_555 1_555
C13 C12 1_555 1_555
C14 C13 1_555 1_555
H14 C14 1_555 1_555
C15 C10 1_555 1_555
H15 C15 1_555 1_555
C16 O15 1_555 1_555
C17 O17 1_555 1_555
C18 H16 1_555 1_555
C19 C18 1_555 1_555
C20 C19 1_555 1_555
H17 C20 1_555 1_555
C21 C20 1_555 1_555
H18 C21 1_555 1_555
C22 C21 1_555 1_555
C23 C18 1_555 1_555
C24 O18 1_555 1_555
C33 H21 1_555 1_555
H22 C33 1_555 1_555
H23 C33 1_555 1_555
C34 C33 1_555 1_555
C35 H24 1_555 1_555
H25 C35 1_555 1_555
H26 C35 1_555 1_555
N1 C34 1_555 1_555
C36 N1 1_555 1_555
H27 C36 1_555 1_555
H28 C36 1_555 1_555
H29 C36 1_555 1_555
H30 O12 1_555 1_555
H31 O12 1_555 1_555
Ba3 O22 1_555 1_555
Ba4 O3 1_555 1_555
Ba5 O9 1_555 1_555
Ba6 O19 1_555 1_555
Ba8 O15 1_555 1_555
Cd4 O21 1_555 1_555
Cd5 O16 1_555 1_555
Cd6 O13 1_555 1_555
O25 Cd1 1_555 1_555
O27 Ba1 1_555 1_555
O28 Ba1 1_555 1_555
O29 Cd2 1_555 1_555
O30 Cd2 1_555 1_555
O31 Ba2 1_555 1_555
O33 Cd1 1_555 1_555
O34 Cd1 1_555 1_555
O35 Ba2 1_555 1_555
O36 Cd1 1_555 1_555
O37 Ba1 1_555 1_555
O39 Cd1 1_555 1_555
O40 Ba2 1_555 1_555
O41 Cd2 1_555 1_555
O42 Cd2 1_555 1_555
O15 Cd6 1_555 1_555
O16 Ba8 1_555 1_555
O17 Cd5 1_555 1_555
O22 Cd4 1_555 1_555
C1 C8 1_555 1_555
C6 C7 1_555 1_555
C12 C16 1_555 1_555
C13 C17 1_555 1_555
C14 C15 1_555 1_555
C19 C24 1_555 1_555
C22 C23 1_555 1_555
C35 N1 1_555 1_555
Ba4 O30 1_555 1_555
Ba5 O34 1_555 1_555
Ba5 O39 1_555 1_555
Ba6 O30 1_555 1_555
Ba6 O41 1_555 1_555
Ba8 O37 1_555 1_555
Cd5 O37 1_555 1_555
Cd6 O27 1_555 1_555
O25 C25 1_555 1_555
O23 C32 1_555 1_555
O24 C32 1_555 1_555
C26 O20 1_555 1_555
C27 C26 1_555 1_555
H19 C27 1_555 1_555
C28 C27 1_555 1_555
H20 C28 1_555 1_555
C29 C28 1_555 1_555
C30 C2 1_555 1_555
C32 C29 1_555 1_555
Cd7 O23 1_555 1_555
O23 Ba7 1_555 1_555
O24 Cd7 1_555 1_555
C2 C26 1_555 1_555
C29 C30 1_555 1_555
O1 C25_2 1_555 1_555
O18_2 Cd2_2 1_555 1_555
O35 C24_2 1_555 1_555
O20_2 C22_2 1_555 1_555
C2_2 H9_2 1_555 1_555
C18_2 H16_2 1_555 1_555
C19_2 C18_2 1_555 1_555
C20_2 C19_2 1_555 1_555
H17_2 C20_2 1_555 1_555
C21_2 C20_2 1_555 1_555
H18_2 C21_2 1_555 1_555
C22_2 C21_2 1_555 1_555
C23_2 C18_2 1_555 1_555
C24_2 O18_2 1_555 1_555
C25_2 C23_2 1_555 1_555
C26_2 O20_2 1_555 1_555
C27_2 C26_2 1_555 1_555
H19_2 C27_2 1_555 1_555
C28_2 C27_2 1_555 1_555
H20_2 C28_2 1_555 1_555
H28_2 C36_2 1_555 1_555
H29_2 C36_2 1_555 1_555
O29_2 Cd2_2 1_555 1_555
O31 Cd2_2 1_555 1_555
O40 Cd2_2 1_555 1_555
O42_2 Cd2_2 1_555 1_555
C2_2 C26_2 1_555 1_555
C19_2 C24_2 1_555 1_555
C22_2 C23_2 1_555 1_555
O21_2 C31_2 1_555 1_555
O37 C31_2 1_555 1_555
O23_2 C32_2 1_555 1_555
O24_2 C32_2 1_555 1_555
C31_2 C30_2 1_555 1_555
C32_2 C29_2 1_555 1_555
Cd5 O21_2 1_555 1_555
Cd6 O23_2 1_555 1_555
O23_2 Ba8 1_555 1_555
O24_2 Cd6 1_555 1_555
C29_2 C30_2 1_555 1_555
Ba6 O2 1_555 1_555
O10_2 Ba6 1_555 1_555
H5_2 O10_2 1_555 1_555
H6_2 O10_2 1_555 1_555
O12_2 Ba6 1_555 1_555
O14_2 Ba6 1_555 1_555
H7_2 O14_2 1_555 1_555
H8_2 O14_2 1_555 1_555
C8_2 O5_2 1_555 1_555
C10_2 O11_2 1_555 1_555
C11_2 C10_2 1_555 1_555
H14_2 C14_2 1_555 1_555
C15_2 C10_2 1_555 1_555
H15_2 C15_2 1_555 1_555
H30_2 O12_2 1_555 1_555
H31_2 O12_2 1_555 1_555
O32 Ba6 1_555 1_555
O38 Ba6 1_555 1_555
O2 Cd3 1_555 1_555
C14_2 C15_2 1_555 1_555
Cd3 O32 1_555 1_555
Cd3 O38 1_555 1_555
Ba3 O4_2 1_555 1_555
O4_2 C34_2 1_555 1_555
O6_2 Ba3 1_555 1_555
H1_2 O6_2 1_555 1_555
H2_2 O6_2 1_555 1_555
O8_2 Ba3 1_555 1_555
H3_2 O8_2 1_555 1_555
H4_2 O8_2 1_555 1_555
O16_2 C17_2 1_555 1_555
O17_2 Ba3 1_555 1_555
C13_2 C12_2 1_555 1_555
C17_2 O17_2 1_555 1_555
C33_2 H21_2 1_555 1_555
C34_2 C33_2 1_555 1_555
C35_2 H24_2 1_555 1_555
H25_2 C35_2 1_555 1_555
Cd4 O16_2 1_555 1_555
O27_2 Ba3 1_555 1_555
O28_2 Ba3 1_555 1_555
O17_2 Cd4 1_555 1_555
C13_2 C17_2 1_555 1_555
Ba5 O3_2 1_555 1_555
Cd3 O7_2 1_555 1_555
O7_2 C9_2 1_555 1_555
O9_2 C9_2 1_555 1_555
C1_2 C3_2 1_555 1_555
C3_2 C4_2 1_555 1_555
C4_2 H10_2 1_555 1_555
C5_2 C4_2 1_555 1_555
H11_2 C5_2 1_555 1_555
C6_2 C5_2 1_555 1_555
C7_2 C1_2 1_555 1_555
H12_2 C7_2 1_555 1_555
C9_2 C6_2 1_555 1_555
Ba4 O9_2 1_555 1_555
O34_2 Cd3 1_555 1_555
O36_2 Cd3 1_555 1_555
C6_2 C7_2 1_555 1_555
Ba4 O34_2 1_555 1_555
Ba4 O38 1_555 1_555
O13_2 C16_2 1_555 1_555
C16_2 O15_2 1_555 1_555
Ba7 O15_2 1_555 1_555
Cd7 O13_2 1_555 1_555
O15_2 Cd7 1_555 1_555
O1_2 C25_3 1_555 1_555
O40 C32_3 1_555 1_555
O42_2 C32_3 1_555 1_555
C26_3 O20_3 1_555 1_555
C27_3 C26_3 1_555 1_555
H19_3 C27_3 1_555 1_555
C28_3 C27_3 1_555 1_555
H20_3 C28_3 1_555 1_555
C29_3 C28_3 1_555 1_555
C30_3 C2_3 1_555 1_555
C32_3 C29_3 1_555 1_555
Cd4 O1_2 1_555 1_555
C2_3 C26_3 1_555 1_555
C29_3 C30_3 1_555 1_555
Ba4 O4_3 1_555 1_555
Ba7 O2_2 1_555 1_555
Cd4 O7_3 1_555 1_555
O27 C8_3 1_555 1_555
O4_3 C34_3 1_555 1_555
O5_3 Cd6 1_555 1_555
O6_3 Ba4 1_555 1_555
H1_3 O6_3 1_555 1_555
H2_3 O6_3 1_555 1_555
O7_3 C9_3 1_555 1_555
O8_3 Ba4 1_555 1_555
H3_3 O8_3 1_555 1_555
H4_3 O8_3 1_555 1_555
O28_2 C9_3 1_555 1_555
O10_3 Ba7 1_555 1_555
H5_3 O10_3 1_555 1_555
H6_3 O10_3 1_555 1_555
O11_3 C3_3 1_555 1_555
O12_3 Ba7 1_555 1_555
O29 C16_3 1_555 1_555
O14_3 Ba7 1_555 1_555
H7_3 O14_3 1_555 1_555
H8_3 O14_3 1_555 1_555
O32 C17_3 1_555 1_555
O18_3 Cd6 1_555 1_555
O19_2 C24_3 1_555 1_555
O36 C31_3 1_555 1_555
O39 C31_3 1_555 1_555
C1_3 C3_3 1_555 1_555
C3_3 C4_3 1_555 1_555
C4_3 H10_3 1_555 1_555
C5_3 C4_3 1_555 1_555
H11_3 C5_3 1_555 1_555
C6_3 C5_3 1_555 1_555
C7_3 C1_3 1_555 1_555
H12_3 C7_3 1_555 1_555
C8_3 O5_3 1_555 1_555
C9_3 C6_3 1_555 1_555
C10_3 O11_3 1_555 1_555
C11_3 C10_3 1_555 1_555
H13_3 C11_3 1_555 1_555
C12_3 C11_3 1_555 1_555
C13_3 C12_3 1_555 1_555
C14_3 C13_3 1_555 1_555
H14_3 C14_3 1_555 1_555
C15_3 C10_3 1_555 1_555
H15_3 C15_3 1_555 1_555
C16_3 O30 1_555 1_555
C17_3 O34_2 1_555 1_555
C18_3 H16_3 1_555 1_555
C19_3 C18_3 1_555 1_555
C20_3 C19_3 1_555 1_555
H17_3 C20_3 1_555 1_555
C21_3 C20_3 1_555 1_555
H18_3 C21_3 1_555 1_555
C22_3 C21_3 1_555 1_555
C23_3 C18_3 1_555 1_555
C24_3 O18_3 1_555 1_555
C33_3 H21_3 1_555 1_555
H22_3 C33_3 1_555 1_555
H23_3 C33_3 1_555 1_555
C34_3 C33_3 1_555 1_555
C35_3 H24_3 1_555 1_555
H25_3 C35_3 1_555 1_555
H26_3 C35_3 1_555 1_555
N1_3 C34_3 1_555 1_555
C36_3 N1_3 1_555 1_555
H27_3 C36_3 1_555 1_555
H28_3 C36_3 1_555 1_555
H29_3 C36_3 1_555 1_555
H30_3 O12_3 1_555 1_555
H31_3 O12_3 1_555 1_555
Ba8 O19_2 1_555 1_555
O35_2 Ba7 1_555 1_555
C1_3 C8_3 1_555 1_555
C6_3 C7_3 1_555 1_555
C12_3 C16_3 1_555 1_555
C13_3 C17_3 1_555 1_555
C14_3 C15_3 1_555 1_555
C19_3 C24_3 1_555 1_555
C22_3 C23_3 1_555 1_555
C35_3 N1_3 1_555 1_555
O29_2 C16_4 1_555 1_555
C16_4 O31 1_555 1_555
Cd5 O7_4 1_555 1_555
O7_4 C9_4 1_555 1_555
O28 C9_4 1_555 1_555
C1_4 C3_4 1_555 1_555
C3_4 C4_4 1_555 1_555
C4_4 H10_4 1_555 1_555
C5_4 C4_4 1_555 1_555
H11_4 C5_4 1_555 1_555
C6_4 C5_4 1_555 1_555
C7_4 C1_4 1_555 1_555
H12_4 C7_4 1_555 1_555
C9_4 C6_4 1_555 1_555
O26_2 Cd5 1_555 1_555
C6_4 C7_4 1_555 1_555
Ba5 O4_4 1_555 1_555
O4_4 C34_4 1_555 1_555
O6_4 Ba5 1_555 1_555
H1_4 O6_4 1_555 1_555
H2_4 O6_4 1_555 1_555
O8_4 Ba5 1_555 1_555
H3_4 O8_4 1_555 1_555
H4_4 O8_4 1_555 1_555
O33 C17_4 1_555 1_555
C13_4 C12_4 1_555 1_555
C17_4 O34 1_555 1_555
C33_4 H21_4 1_555 1_555
C34_4 C33_4 1_555 1_555
C35_4 H24_4 1_555 1_555
H25_4 C35_4 1_555 1_555
C13_4 C17_4 1_555 1_555
Ba8 O26_2 1_555 1_555
O10_4 Ba8 1_555 1_555
H5_4 O10_4 1_555 1_555
H6_4 O10_4 1_555 1_555
O12_4 Ba8 1_555 1_555
O14_4 Ba8 1_555 1_555
H7_4 O14_4 1_555 1_555
H8_4 O14_4 1_555 1_555
C8_4 O5_4 1_555 1_555
C10_4 O11_4 1_555 1_555
C11_4 C10_4 1_555 1_555
H14_4 C14_4 1_555 1_555
C15_4 C10_4 1_555 1_555
H15_4 C15_4 1_555 1_555
H30_4 O12_4 1_555 1_555
H31_4 O12_4 1_555 1_555
C14_4 C15_4 1_555 1_555
O36_2 C31_4 1_555 1_555
O38 C31_4 1_555 1_555
O41 C32_4 1_555 1_555
O42 C32_4 1_555 1_555
C31_4 C30_4 1_555 1_555
C32_4 C29_4 1_555 1_555
C29_4 C30_4 1_555 1_555
O25_2 C25_4 1_555 1_555
O18_4 Cd7 1_555 1_555
O35_2 C24_4 1_555 1_555
O20_4 C22_4 1_555 1_555
C2_4 H9_4 1_555 1_555
C18_4 H16_4 1_555 1_555
C19_4 C18_4 1_555 1_555
C20_4 C19_4 1_555 1_555
H17_4 C20_4 1_555 1_555
C21_4 C20_4 1_555 1_555
H18_4 C21_4 1_555 1_555
C22_4 C21_4 1_555 1_555
C23_4 C18_4 1_555 1_555
C24_4 O18_4 1_555 1_555
C25_4 C23_4 1_555 1_555
C26_4 O20_4 1_555 1_555
C27_4 C26_4 1_555 1_555
H19_4 C27_4 1_555 1_555
C28_4 C27_4 1_555 1_555
H20_4 C28_4 1_555 1_555
H28_4 C36_4 1_555 1_555
H29_4 C36_4 1_555 1_555
C2_4 C26_4 1_555 1_555
C19_4 C24_4 1_555 1_555
C22_4 C23_4 1_555 1_555

#END
