
###############################################################################
#
# This file contains modified crystal structure data generated from the
# MOF subset of the Cambridge Structural Database (CSD) v543 
# hosted by the Cambridge Crystallographic Data Centre (CCDC).
#
# This work is licensed under the Creative Commons
# Attribution-NonCommercial-ShareAlike 4.0 International License.
# To view a copy of this license, visit
# http://creativecommons.org/licenses/by-nc-sa/4.0/
# or send a letter to
# Creative Commons, PO Box 1866, Mountain View, CA 94042, USA.
#
# CIF created using the CSD Python API on 29 September 2022
# The structure has been converted into the P1 space group
# The structure has a 3D framework
# The original CSD entry QUWYEO is in the monoclinic crystal system
# The framework has been calculated to contain at least 10.0% void space
# The void calculation uses a probe of radius 1.32A, grid spacing 0.4
#
###############################################################################

data_QUWYEO
_chemical_formula_moiety         '(C56 H32 Ca2 O22 S4)n'
_symmetry_cell_setting           triclinic
_symmetry_space_group_name_H-M   'P 1'
_symmetry_Int_Tables_number      1
_space_group_name_Hall           'P 1'
loop_
_symmetry_equiv_pos_site_id
_symmetry_equiv_pos_as_xyz
1 x,y,z
_cell_length_a                   11.6884(5)
_cell_length_b                   5.5643(2)
_cell_length_c                   22.8159(10)
_cell_angle_alpha                90
_cell_angle_beta                 100.691(4)
_cell_angle_gamma                90
_cell_volume                     1458.14
loop_
_atom_site_label
_atom_site_type_symbol
_atom_site_fract_x
_atom_site_fract_y
_atom_site_fract_z
O5 O 0.08446(9) 0.22059(17) 0.38950(4)
C2 C 0.20595(12) 0.0620(2) 0.50775(6)
H1 H 0.2278 0.2111 0.4928
C3 C 0.23276(12) 0.0122(2) 0.56837(6)
H2 H 0.2722 0.1283 0.5953
C9 C 0.30779(12) 0.0591(2) 0.35955(6)
H5 H 0.3071 0.2051 0.3811
C10 C 0.39763(11) 0.0098(2) 0.32897(6)
H6 H 0.4576 0.1245 0.3285
Ca3 Ca 0.63742(2) 0.25633(4) 0.22182(2)
Ca5 Ca 0.13742(2) 0.24367(4) 0.72182(2)
S1 S 0.10145(3) 0.96454(5) 0.39330(2)
O1 O 0.23970(8) 0.91505(17) 0.69092(4)
O2 O 0.23621(8) 0.52343(17) 0.67212(4)
O3 O 0.54211(9) 0.91879(18) 0.24461(4)
O4 O 0.51296(8) 0.52383(17) 0.25348(4)
O6 O 0.00494(8) 0.80562(17) 0.37030(4)
C1 C 0.14670(11) 0.8909(2) 0.46929(5)
C4 C 0.20170(11) 0.7914(2) 0.58960(5)
C5 C 0.14677(12) 0.6188(2) 0.55025(6)
H3 H 0.1287 0.4663 0.5649
C6 C 0.11802(12) 0.6670(2) 0.48962(6)
H4 H 0.0796 0.5499 0.4626
C7 C 0.22619(10) 0.7384(2) 0.65525(5)
C8 C 0.21873(11) 0.8908(2) 0.35811(5)
C11 C 0.39952(11) 0.7918(2) 0.29902(6)
C12 C 0.31163(11) 0.6232(2) 0.29972(6)
H7 H 0.3146 0.4732 0.2801
C13 C 0.21940(11) 0.6721(2) 0.32884(6)
H8 H 0.1586 0.5588 0.3287
C14 C 0.49352(11) 0.7410(2) 0.26289(6)
Ca6 Ca 0.36258(2) 0.74367(4) 0.77818(2)
O7 O 0.76030(8) 0.08495(17) 0.30908(4)
O11 O 0.98704(8) 0.02383(17) 0.24652(4)
Ca1 Ca 0.86258(2) 0.75633(4) 0.27818(2)
O8 O 0.73970(8) 0.58495(17) 0.19092(4)
O9 O 0.76379(8) 0.47657(17) 0.32788(4)
O10 O 0.95789(9) 0.41879(18) 0.25539(4)
S1_2 S 0.39855(3) 0.46454(5) 0.10670(2)
O5_2 O 0.41554(9) 0.72059(17) 0.11050(4)
O6_2 O 0.49506(8) 0.30562(17) 0.12970(4)
C1_2 C 0.35330(11) 0.3909(2) 0.03071(5)
H1_2 H 0.2722 0.7111 0.0072
C6_2 C 0.38198(12) 0.1670(2) 0.01038(6)
H4_2 H 0.4204 0.0499 0.0374
C8_2 C 0.28127(11) 0.3908(2) 0.14189(5)
C9_2 C 0.19221(12) 0.5591(2) 0.14045(6)
H5_2 H 0.1929 0.7051 0.1189
C10_2 C 0.10237(11) 0.5098(2) 0.17103(6)
H6_2 H 0.0424 0.6245 0.1715
C11_2 C 0.10048(11) 0.2918(2) 0.20098(6)
C12_2 C 0.18837(11) 0.1232(2) 0.20028(6)
C13_2 C 0.28060(11) 0.1721(2) 0.17116(6)
H8_2 H 0.3414 0.0588 0.1713
C14_2 C 0.00648(11) 0.2410(2) 0.23711(6)
O1_2 O 0.26030(8) 0.41505(17) 0.80908(4)
O2_2 O 0.26379(8) 0.02343(17) 0.82788(4)
C2_2 C 0.29405(12) 0.5620(2) 0.99225(6)
C3_2 C 0.26724(12) 0.5122(2) 0.93163(6)
H2_2 H 0.2278 0.6283 0.9047
C4_2 C 0.29830(11) 0.2914(2) 0.91040(5)
C5_2 C 0.35323(12) 0.1188(2) 0.94975(6)
C7_2 C 0.27381(10) 0.2384(2) 0.84475(5)
H7_2 H 0.1854 0.9732 0.2199
O9_2 O 0.73621(8) 0.97657(17) 0.17212(4)
H3_2 H 0.3713 0.9663 0.9351
O10_2 O 0.04211(9) 0.58121(18) 0.74461(4)
O11_2 O 0.01296(8) 0.97617(17) 0.75348(4)
S1_3 S 0.89855(3) 0.03546(5) 0.60670(2)
O3_2 O 0.45789(9) 0.08121(18) 0.75539(4)
O4_2 O 0.48704(8) 0.47617(17) 0.74652(4)
O6_3 O 0.99506(8) 0.19438(17) 0.62970(4)
C1_3 C 0.85330(11) 0.1091(2) 0.53071(5)
C4_3 C 0.79830(11) 0.2086(2) 0.41040(5)
C5_3 C 0.85323(12) 0.3812(2) 0.44975(6)
H3_3 H 0.8713 0.5337 0.4351
C6_3 C 0.88198(12) 0.3330(2) 0.51038(6)
H4_3 H 0.9204 0.4501 0.5374
C7_3 C 0.77381(10) 0.2616(2) 0.34475(5)
C8_3 C 0.78127(11) 0.1092(2) 0.64189(5)
C11_3 C 0.60048(11) 0.2082(2) 0.70098(6)
C12_3 C 0.68837(11) 0.3768(2) 0.70028(6)
H7_3 H 0.6854 0.5268 0.7199
C13_3 C 0.78060(11) 0.3279(2) 0.67116(6)
H8_3 H 0.8414 0.4412 0.6713
C14_3 C 0.50648(11) 0.2590(2) 0.73711(6)
O5_3 O 0.91554(9) 0.77941(17) 0.61050(4)
C2_3 C 0.79405(12) 0.9380(2) 0.49225(6)
H1_3 H 0.7722 0.7889 0.5072
C3_3 C 0.76724(12) 0.9878(2) 0.43163(6)
H2_3 H 0.7278 0.8717 0.4047
C9_3 C 0.69221(12) 0.9409(2) 0.64045(6)
H5_3 H 0.6929 0.7949 0.6189
C10_3 C 0.60237(11) 0.9902(2) 0.67103(6)
H6_3 H 0.5424 0.8755 0.6715
H3_4 H 0.6287 0.0337 0.0649
H7_4 H 0.8146 0.0268 0.7801
C2_4 C 0.70595(12) 0.4380(2) 0.00775(6)
C3_4 C 0.73276(12) 0.4878(2) 0.06837(6)
H2_4 H 0.7722 0.3717 0.0953
C4_4 C 0.70170(11) 0.7086(2) 0.08960(5)
C5_4 C 0.64677(12) 0.8812(2) 0.05025(6)
C7_4 C 0.72619(10) 0.7616(2) 0.15525(5)
S1_4 S 0.60145(3) 0.53546(5) 0.89330(2)
O5_4 O 0.58446(9) 0.27941(17) 0.88950(4)
O6_4 O 0.50494(8) 0.69438(17) 0.87030(4)
C1_4 C 0.64670(11) 0.6091(2) 0.96929(5)
H1_4 H 0.7278 0.2889 0.9928
C6_4 C 0.61802(12) 0.8330(2) 0.98962(6)
H4_4 H 0.5796 0.9501 0.9626
C8_4 C 0.71873(11) 0.6092(2) 0.85811(5)
C9_4 C 0.80779(12) 0.4409(2) 0.85955(6)
H5_4 H 0.8071 0.2949 0.8811
C10_4 C 0.89763(11) 0.4902(2) 0.82897(6)
H6_4 H 0.9576 0.3755 0.8285
C11_4 C 0.89952(11) 0.7082(2) 0.79902(6)
C12_4 C 0.81163(11) 0.8768(2) 0.79972(6)
C13_4 C 0.71940(11) 0.8279(2) 0.82884(6)
H8_4 H 0.6586 0.9412 0.8287
C14_4 C 0.99352(11) 0.7590(2) 0.76289(6)
loop_
_geom_bond_atom_site_label_1
_geom_bond_atom_site_label_2
_geom_bond_site_symmetry_1
_geom_bond_site_symmetry_2
H1 C2 1_555 1_555
C3 C2 1_555 1_555
H2 C3 1_555 1_555
H5 C9 1_555 1_555
C10 C9 1_555 1_555
H6 C10 1_555 1_555
O1 C7 1_555 1_555
O2 C7 1_555 1_555
O3 C14 1_555 1_555
O4 C14 1_555 1_555
O6 S1 1_555 1_555
C1 S1 1_555 1_555
C5 C4 1_555 1_555
H3 C5 1_555 1_555
C6 C1 1_555 1_555
H4 C6 1_555 1_555
C7 C4 1_555 1_555
C8 S1 1_555 1_555
C12 C11 1_555 1_555
H7 C12 1_555 1_555
C13 C8 1_555 1_555
H8 C13 1_555 1_555
C14 C11 1_555 1_555
Ca3 O4 1_555 1_555
Ca5 O2 1_555 1_555
Ca6 O1 1_555 1_555
C5 C6 1_555 1_555
C12 C13 1_555 1_555
O8 Ca1 1_555 1_555
O9 Ca1 1_555 1_555
O10 Ca1 1_555 1_555
Ca3 O6_2 1_555 1_555
S1_2 O5_2 1_555 1_555
O6_2 S1_2 1_555 1_555
C1_2 S1_2 1_555 1_555
C6_2 C1_2 1_555 1_555
H4_2 C6_2 1_555 1_555
C8_2 S1_2 1_555 1_555
C9_2 C8_2 1_555 1_555
H5_2 C9_2 1_555 1_555
C10_2 C9_2 1_555 1_555
H6_2 C10_2 1_555 1_555
C11_2 C10_2 1_555 1_555
C12_2 C11_2 1_555 1_555
C13_2 C8_2 1_555 1_555
H8_2 C13_2 1_555 1_555
C14_2 C11_2 1_555 1_555
O8 Ca3 1_555 1_555
O7 Ca3 1_555 1_555
C12_2 C13_2 1_555 1_555
O1_2 C7_2 1_555 1_555
O2_2 C7_2 1_555 1_555
C3_2 C2_2 1_555 1_555
H2_2 C3_2 1_555 1_555
C4_2 C3_2 1_555 1_555
C5_2 C4_2 1_555 1_555
C7_2 C4_2 1_555 1_555
Ca6 O1_2 1_555 1_555
Ca5 O1_2 1_555 1_555
O10_2 Ca5 1_555 1_555
O7 C7_3 1_555 1_555
O9 C7_3 1_555 1_555
O3_2 C14_3 1_555 1_555
O4_2 C14_3 1_555 1_555
O6_3 S1_3 1_555 1_555
C1_3 S1_3 1_555 1_555
C5_3 C4_3 1_555 1_555
H3_3 C5_3 1_555 1_555
C6_3 C1_3 1_555 1_555
H4_3 C6_3 1_555 1_555
C7_3 C4_3 1_555 1_555
C8_3 S1_3 1_555 1_555
C12_3 C11_3 1_555 1_555
H7_3 C12_3 1_555 1_555
C13_3 C8_3 1_555 1_555
H8_3 C13_3 1_555 1_555
C14_3 C11_3 1_555 1_555
Ca6 O4_2 1_555 1_555
C5_3 C6_3 1_555 1_555
C12_3 C13_3 1_555 1_555
H1_3 C2_3 1_555 1_555
C3_3 C2_3 1_555 1_555
H2_3 C3_3 1_555 1_555
H5_3 C9_3 1_555 1_555
C10_3 C9_3 1_555 1_555
H6_3 C10_3 1_555 1_555
O8 C7_4 1_555 1_555
O9_2 C7_4 1_555 1_555
C3_4 C2_4 1_555 1_555
H2_4 C3_4 1_555 1_555
C4_4 C3_4 1_555 1_555
C5_4 C4_4 1_555 1_555
C7_4 C4_4 1_555 1_555
Ca6 O6_4 1_555 1_555
S1_4 O5_4 1_555 1_555
O6_4 S1_4 1_555 1_555
C1_4 S1_4 1_555 1_555
C6_4 C1_4 1_555 1_555
H4_4 C6_4 1_555 1_555
C8_4 S1_4 1_555 1_555
C9_4 C8_4 1_555 1_555
H5_4 C9_4 1_555 1_555
C10_4 C9_4 1_555 1_555
H6_4 C10_4 1_555 1_555
C11_4 C10_4 1_555 1_555
C12_4 C11_4 1_555 1_555
C13_4 C8_4 1_555 1_555
H8_4 C13_4 1_555 1_555
C14_4 C11_4 1_555 1_555
C12_4 C13_4 1_555 1_555

#END
