
###############################################################################
#
# This file contains modified crystal structure data generated from the
# MOF subset of the Cambridge Structural Database (CSD) v543 
# hosted by the Cambridge Crystallographic Data Centre (CCDC).
#
# This work is licensed under the Creative Commons
# Attribution-NonCommercial-ShareAlike 4.0 International License.
# To view a copy of this license, visit
# http://creativecommons.org/licenses/by-nc-sa/4.0/
# or send a letter to
# Creative Commons, PO Box 1866, Mountain View, CA 94042, USA.
#
# CIF created using the CSD Python API on 29 September 2022
# The structure has been converted into the P1 space group
# The structure has a 3D framework
# The original CSD entry QUXJUR is in the monoclinic crystal system
# The framework has been calculated to contain at least 10.0% void space
# The void calculation uses a probe of radius 1.32A, grid spacing 0.4
# H atom positions have been added when not included in the experimental data
#
###############################################################################

data_QUXJUR
_chemical_formula_moiety         '(C352 H368 Li32 N32 O84)n'
_symmetry_cell_setting           triclinic
_symmetry_space_group_name_H-M   'P 1'
_symmetry_Int_Tables_number      1
_space_group_name_Hall           'P 1'
loop_
_symmetry_equiv_pos_site_id
_symmetry_equiv_pos_as_xyz
1 x,y,z
_cell_length_a                   34.5163(4)
_cell_length_b                   32.0310(3)
_cell_length_c                   12.8356(2)
_cell_angle_alpha                90
_cell_angle_beta                 96.4030(10)
_cell_angle_gamma                90
_cell_volume                     14102.4
loop_
_atom_site_label
_atom_site_type_symbol
_atom_site_fract_x
_atom_site_fract_y
_atom_site_fract_z
C1 C 0.31593(9) 0.73639(11) 0.5103(2)
C2 C 0.35541(8) 0.71581(10) 0.5147(2)
C3 C 0.36809(10) 0.68825(12) 0.5937(3)
H1 H 0.352596 0.683363 0.647234
C4 C 0.40291(8) 0.66798(10) 0.5949(3)
H2 H 0.411011 0.649502 0.648903
C5 C 0.42543(7) 0.67487(8) 0.5178(2)
C6 C 0.37984(9) 0.72310(12) 0.4391(3)
H3 H 0.372653 0.742356 0.386183
C7 C 0.46258(6) 0.64957(8) 0.51256(18)
C8 C 0.45489(7) 0.61884(8) 0.41965(19)
H4 H 0.433251 0.600692 0.430929
H5 H 0.447898 0.634340 0.355385
C9 C 0.47349(6) 0.62399(7) 0.61246(18)
H6 H 0.478654 0.642644 0.671926
H7 H 0.451894 0.606010 0.625107
C10 C 0.49731(7) 0.67798(8) 0.49396(19)
H8 H 0.502511 0.697200 0.552244
H9 H 0.490806 0.694245 0.430671
C11 C 0.53407(7) 0.65150(8) 0.48308(19)
C12 C 0.50971(6) 0.59739(8) 0.60137(18)
H10 H 0.516313 0.581259 0.665777
C13 C 0.49135(7) 0.59237(8) 0.40890(19)
H11 H 0.486148 0.573222 0.349433
C14 C 0.50175(7) 0.56748(8) 0.5088(2)
H12 H 0.524685 0.550597 0.502362
H13 H 0.480410 0.548953 0.520414
C15 C 0.54397(7) 0.62589(8) 0.58344(19)
H14 H 0.567024 0.609145 0.577394
H15 H 0.549499 0.644528 0.642803
C16 C 0.52513(7) 0.62152(8) 0.39009(19)
H16 H 0.518299 0.637437 0.326404
H17 H 0.548134 0.605083 0.381158
C17 C 0.56787(7) 0.67987(9) 0.4636(2)
C18 C 0.5998(3) 0.6865(3) 0.5399(5)
H18 H 0.600369 0.673953 0.605385
C19 C 0.6303(3) 0.7117(3) 0.5175(7)
H19 H 0.651384 0.716289 0.567822
C20 C 0.59538(19) 0.7269(3) 0.3561(4)
H20 H 0.593221 0.741953 0.293832
N1 N 0.56489(14) 0.7030(2) 0.3772(4)
C21 C 0.62912(8) 0.72980(10) 0.4218(2)
C22 C 0.66251(9) 0.75675(11) 0.3953(2)
C23 C 0.73250(10) 0.68804(10) 0.3214(2)
C24 C 0.66179(8) 0.57902(8) 0.3138(2)
C25 C 0.70763(9) 0.64928(9) 0.3198(2)
N2 N 0.69030(13) 0.58193(14) 0.3839(4)
C26 C 0.6759(2) 0.64592(19) 0.2407(4)
H21 H 0.670567 0.667277 0.192107
C27 C 0.65299(17) 0.61050(16) 0.2363(4)
H22 H 0.632282 0.607260 0.184051
C28 C 0.71249(15) 0.61652(19) 0.3891(4)
H23 H 0.732597 0.618398 0.443461
C29 C 0.63706(7) 0.53984(7) 0.31134(19)
C30 C 0.66191(7) 0.50115(7) 0.29101(18)
H24 H 0.672354 0.504344 0.224368
H25 H 0.683671 0.499099 0.345522
C31 C 0.62053(7) 0.53359(8) 0.41702(19)
H26 H 0.641860 0.531330 0.472726
H27 H 0.604928 0.557645 0.431515
C32 C 0.60267(7) 0.54214(7) 0.22428(19)
H28 H 0.586590 0.566156 0.235944
H29 H 0.612518 0.545594 0.156918
C33 C 0.56143(7) 0.49745(7) 0.32777(19)
H30 H 0.545462 0.472494 0.326539
H31 H 0.545250 0.521291 0.340280
C34 C 0.57809(7) 0.50252(7) 0.22292(18)
H32 H 0.556564 0.504544 0.166516
C35 C 0.59539(7) 0.49412(7) 0.41494(19)
H33 H 0.585057 0.491000 0.482602
C36 C 0.60308(7) 0.46456(7) 0.20363(19)
H34 H 0.612744 0.467154 0.135798
H35 H 0.587291 0.439484 0.202814
C37 C 0.62101(7) 0.45620(7) 0.39627(19)
H36 H 0.605667 0.430832 0.396505
H37 H 0.642307 0.454238 0.452134
C38 C 0.63751(6) 0.46086(7) 0.28926(18)
C39 C 0.66295(7) 0.42336(8) 0.2701(2)
C40 C 0.65706(10) 0.40078(10) 0.1803(3)
H38 H 0.636642 0.407515 0.129575
C41 C 0.68139(12) 0.36785(12) 0.1645(3)
H39 H 0.677660 0.352856 0.102120
C42 C 0.71095(8) 0.35695(9) 0.2394(2)
C43 C 0.71564(10) 0.38129(10) 0.3285(2)
H40 H 0.735793 0.374937 0.380372
C44 C 0.73744(9) 0.32087(9) 0.2229(2)
Li1 Li 0.24215(16) 0.7068(2) 0.5602(4)
Li2 Li 0.70384(16) 0.76261(19) 0.2151(4)
Li3 Li 0.72547(19) 0.8105(2) 0.4548(4)
Li4 Li 0.71203(17) 0.75487(17) 0.6116(4)
O1 O 0.29503(6) 0.72773(10) 0.58084(18)
O2 O 0.30626(6) 0.76079(8) 0.43610(16)
O3 O 0.66293(8) 0.76727(10) 0.30220(17)
O4 O 0.68775(7) 0.76642(8) 0.46850(17)
O5 O 0.72952(9) 0.71022(8) 0.2414(2)
O6 O 0.75450(8) 0.69590(9) 0.40112(17)
O7 O 0.73277(7) 0.30248(7) 0.13571(16)
O8 O 0.76281(6) 0.31156(7) 0.29634(15)
O9 O 0.70449(15) 0.86528(12) 0.4185(4)
O10 O 0.67850(8) 0.76227(10) 0.7228(2)
O11 O 0.23890(11) 0.67168(12) 0.4399(2)
N3 N 0.41460(8) 0.70241(11) 0.4405(2)
N4 N 0.69225(8) 0.41385(8) 0.3437(2)
Li5 Li 0.75785(16) 0.2932(2) 0.4398(4)
Li6 Li 0.25785(16) 0.7932(2) 0.4398(4)
Li7 Li 0.29616(16) 0.76261(19) 0.2849(4)
Li8 Li 0.79616(16) 0.26261(19) 0.2849(4)
Li9 Li 0.77453(19) 0.3105(2) 0.0452(4)
Li10 Li 0.77453(19) 0.6895(2) 0.5452(4)
Li11 Li 0.71203(17) 0.24513(17) 0.1116(4)
Li12 Li 0.78797(17) 0.74513(17) 0.3884(4)
O12 O 0.69374(6) 0.76079(8) 0.06390(16)
O13 O 0.19374(6) 0.73921(8) 0.56390(16)
O14 O 0.74550(8) 0.80410(9) 0.59888(17)
O15 O 0.76723(7) 0.80248(7) 0.36429(16)
O16 O 0.73277(7) 0.69752(7) 0.63571(16)
O17 O 0.73719(6) 0.81156(7) 0.20366(15)
O18 O 0.23719(6) 0.68844(7) 0.70366(15)
H41 H 0.655735 0.743242 0.710554
H42 H 0.693414 0.755706 0.791524
H43 H 0.68837 0.874846 0.473328
H44 H 0.726238 0.885226 0.41363
H45 H 0.257859 0.648416 0.452488
H46 H 0.212113 0.660146 0.426166
C6_2 C 0.62016(9) 0.72310(12) 0.0609(3)
H3_2 H 0.627347 0.742356 0.113817
C8_2 C 0.54511(7) 0.61884(8) 0.08035(19)
H4_2 H 0.566749 0.600692 0.069071
H5_2 H 0.552102 0.634340 0.144615
C10_2 C 0.50269(7) 0.67798(8) 0.00604(19)
H9_2 H 0.509194 0.694245 0.069329
C11_2 C 0.46593(7) 0.65150(8) 0.01692(19)
C13_2 C 0.50865(7) 0.59237(8) 0.09110(19)
H11_2 H 0.513852 0.573222 0.150567
C16_2 C 0.47487(7) 0.62152(8) 0.10991(19)
H16_2 H 0.481701 0.637437 0.173596
H17_2 H 0.451866 0.605083 0.118842
C17_2 C 0.43213(7) 0.67987(9) 0.0364(2)
C20_2 C 0.40462(19) 0.7269(3) 0.1439(4)
H20_2 H 0.406779 0.741953 0.206168
N1_2 N 0.43511(14) 0.7030(2) 0.1228(4)
C21_2 C 0.37088(8) 0.72980(10) 0.0782(2)
C22_2 C 0.33749(9) 0.75675(11) 0.1047(2)
C23_2 C 0.26750(10) 0.68804(10) 0.1786(2)
C24_2 C 0.33821(8) 0.57902(8) 0.1862(2)
C25_2 C 0.29237(9) 0.64928(9) 0.1802(2)
N2_2 N 0.30970(13) 0.58193(14) 0.1161(4)
C26_2 C 0.3241(2) 0.64592(19) 0.2593(4)
H21_2 H 0.329433 0.667277 0.307893
C27_2 C 0.34701(17) 0.61050(16) 0.2637(4)
H22_2 H 0.367718 0.607260 0.315949
C28_2 C 0.28751(15) 0.61652(19) 0.1109(4)
H23_2 H 0.267403 0.618398 0.056539
C29_2 C 0.36294(7) 0.53984(7) 0.18866(19)
C30_2 C 0.33809(7) 0.50115(7) 0.20899(18)
H24_2 H 0.327646 0.504344 0.275632
H25_2 H 0.316329 0.499099 0.154478
C31_2 C 0.37947(7) 0.53359(8) 0.08298(19)
H26_2 H 0.358140 0.531330 0.027274
H27_2 H 0.395072 0.557645 0.068485
C32_2 C 0.39733(7) 0.54214(7) 0.27572(19)
H28_2 H 0.413410 0.566156 0.264056
H29_2 H 0.387482 0.545594 0.343082
C33_2 C 0.43857(7) 0.49745(7) 0.17223(19)
H30_2 H 0.454538 0.472494 0.173461
H31_2 H 0.454750 0.521291 0.159720
C34_2 C 0.42191(7) 0.50252(7) 0.27708(18)
H32_2 H 0.443436 0.504544 0.333484
C35_2 C 0.40461(7) 0.49412(7) 0.08506(19)
H33_2 H 0.414943 0.491000 0.017398
C36_2 C 0.39692(7) 0.46456(7) 0.29637(19)
H34_2 H 0.387256 0.467154 0.364202
H35_2 H 0.412709 0.439484 0.297186
C37_2 C 0.37899(7) 0.45620(7) 0.10373(19)
H36_2 H 0.394333 0.430832 0.103495
H37_2 H 0.357693 0.454238 0.047866
C38_2 C 0.36249(6) 0.46086(7) 0.21074(18)
C39_2 C 0.33705(7) 0.42336(8) 0.2299(2)
C40_2 C 0.34294(10) 0.40078(10) 0.3197(3)
H38_2 H 0.363358 0.407515 0.370425
C41_2 C 0.31861(12) 0.36785(12) 0.3355(3)
H39_2 H 0.322340 0.352856 0.397880
C42_2 C 0.28905(8) 0.35695(9) 0.2606(2)
C43_2 C 0.28436(10) 0.38129(10) 0.1715(2)
H40_2 H 0.264207 0.374937 0.119628
C44_2 C 0.26256(9) 0.32087(9) 0.2771(2)
Li3_2 Li 0.27453(19) 0.8105(2) 0.0452(4)
O3_2 O 0.33707(8) 0.76727(10) 0.19780(17)
O4_2 O 0.31225(7) 0.76642(8) 0.03150(17)
O5_2 O 0.27048(9) 0.71022(8) 0.2586(2)
O6_2 O 0.24550(8) 0.69590(9) 0.09888(17)
O7_2 O 0.26723(7) 0.30248(7) 0.36429(16)
O8_2 O 0.23719(6) 0.31156(7) 0.20366(15)
O9_2 O 0.29551(15) 0.86528(12) 0.0815(4)
O11_2 O 0.76110(11) 0.67168(12) 0.0601(2)
N3_2 N 0.58540(8) 0.70241(11) 0.0595(2)
N4_2 N 0.30775(8) 0.41385(8) 0.1563(2)
Li5_2 Li 0.24215(16) 0.2932(2) 0.0602(4)
Li6_2 Li 0.74215(16) 0.7932(2) 0.0602(4)
Li8_2 Li 0.20384(16) 0.26261(19) 0.2151(4)
Li9_2 Li 0.22547(19) 0.3105(2) 0.4548(4)
Li11_2 Li 0.28797(17) 0.24513(17) 0.3884(4)
Li12_2 Li 0.21203(17) 0.74513(17) 0.1116(4)
O15_2 O 0.23277(7) 0.80248(7) 0.13571(16)
O17_2 O 0.26281(6) 0.81156(7) 0.29634(15)
H43_2 H 0.31163 0.874846 0.0266721
H44_2 H 0.273762 0.885226 0.0863702
H45_2 H 0.742141 0.648416 0.0475123
H46_2 H 0.787887 0.660146 0.0738336
C1_2 C 0.68407(9) 0.73639(11) 0.9897(2)
C2_2 C 0.64459(8) 0.71581(10) 0.9853(2)
C3_2 C 0.63191(10) 0.68825(12) 0.9063(3)
H1_2 H 0.647404 0.683363 0.852766
C4_2 C 0.59709(8) 0.66798(10) 0.9051(3)
H2_2 H 0.588989 0.649502 0.851097
C5_2 C 0.57457(7) 0.67487(8) 0.9822(2)
C7_2 C 0.53742(6) 0.64957(8) 0.98744(18)
C9_2 C 0.52651(6) 0.62399(7) 0.88754(18)
H6_2 H 0.521346 0.642644 0.828074
H7_2 H 0.548106 0.606010 0.874893
H8_2 H 0.497489 0.697200 0.947756
C12_2 C 0.49029(6) 0.59739(8) 0.89863(18)
H10_2 H 0.483687 0.581259 0.834223
C14_2 C 0.49825(7) 0.56748(8) 0.9912(2)
H12_2 H 0.475315 0.550597 0.997638
H13_2 H 0.519590 0.548953 0.979586
C15_2 C 0.45603(7) 0.62589(8) 0.91656(19)
H14_2 H 0.432976 0.609145 0.922606
H15_2 H 0.450501 0.644528 0.857197
C18_2 C 0.4002(3) 0.6865(3) 0.9601(5)
H18_2 H 0.399631 0.673953 0.894615
C19_2 C 0.3697(3) 0.7117(3) 0.9825(7)
H19_2 H 0.348616 0.716289 0.932178
Li1_2 Li 0.75785(16) 0.7068(2) 0.9398(4)
Li4_2 Li 0.28797(17) 0.75487(17) 0.8884(4)
O1_2 O 0.70497(6) 0.72773(10) 0.91916(18)
O10_2 O 0.32150(8) 0.76227(10) 0.7772(2)
Li10_2 Li 0.22547(19) 0.6895(2) 0.9548(4)
O13_2 O 0.80626(6) 0.73921(8) 0.93610(16)
O14_2 O 0.25450(8) 0.80410(9) 0.90112(17)
O16_2 O 0.26723(7) 0.69752(7) 0.86429(16)
O18_2 O 0.76281(6) 0.68844(7) 0.79634(15)
H41_2 H 0.344265 0.743242 0.789446
H42_2 H 0.306586 0.755706 0.708476
H8_3 H 0.002511 0.197200 0.552244
C11_3 C 0.03407(7) 0.15150(8) 0.48308(19)
C12_3 C 0.00971(6) 0.09739(8) 0.60137(18)
H10_3 H 0.016313 0.081259 0.665777
C14_3 C 0.00175(7) 0.06748(8) 0.5088(2)
H12_3 H 0.024685 0.050597 0.502362
C15_3 C 0.04397(7) 0.12589(8) 0.58344(19)
H14_3 H 0.067024 0.109145 0.577394
H15_3 H 0.049499 0.144528 0.642803
C16_3 C 0.02513(7) 0.12152(8) 0.39009(19)
H16_3 H 0.018299 0.137437 0.326404
H17_3 H 0.048134 0.105083 0.381158
C17_3 C 0.06787(7) 0.17987(9) 0.4636(2)
C18_3 C 0.0998(3) 0.1865(3) 0.5399(5)
H18_3 H 0.100369 0.173953 0.605385
C19_3 C 0.1303(3) 0.2117(3) 0.5175(7)
H19_3 H 0.151384 0.216289 0.567822
C20_3 C 0.09538(19) 0.2269(3) 0.3561(4)
H20_3 H 0.093221 0.241953 0.293832
N1_3 N 0.06489(14) 0.2030(2) 0.3772(4)
C21_3 C 0.12912(8) 0.22980(10) 0.4218(2)
C22_3 C 0.16251(9) 0.25675(11) 0.3953(2)
C23_3 C 0.23250(10) 0.18804(10) 0.3214(2)
C24_3 C 0.16179(8) 0.07902(8) 0.3138(2)
C25_3 C 0.20763(9) 0.14928(9) 0.3198(2)
N2_3 N 0.19030(13) 0.08193(14) 0.3839(4)
C26_3 C 0.1759(2) 0.14592(19) 0.2407(4)
H21_3 H 0.170567 0.167277 0.192107
C27_3 C 0.15299(17) 0.11050(16) 0.2363(4)
H22_3 H 0.132282 0.107260 0.184051
C28_3 C 0.21249(15) 0.11652(19) 0.3891(4)
H23_3 H 0.232597 0.118398 0.443461
C29_3 C 0.13706(7) 0.03984(7) 0.31134(19)
C30_3 C 0.16191(7) 0.00115(7) 0.29101(18)
H24_3 H 0.172354 0.004344 0.224368
C31_3 C 0.12053(7) 0.03359(8) 0.41702(19)
H26_3 H 0.141860 0.031330 0.472726
H27_3 H 0.104928 0.057645 0.431515
C32_3 C 0.10267(7) 0.04214(7) 0.22428(19)
H28_3 H 0.086590 0.066156 0.235944
H29_3 H 0.112518 0.045594 0.156918
H31_3 H 0.045250 0.021291 0.340280
C34_3 C 0.07809(7) 0.00252(7) 0.22292(18)
H32_3 H 0.056564 0.004544 0.166516
Li4_3 Li 0.21203(17) 0.25487(17) 0.6116(4)
O3_3 O 0.16293(8) 0.26727(10) 0.30220(17)
O4_3 O 0.18775(7) 0.26642(8) 0.46850(17)
O5_3 O 0.22952(9) 0.21022(8) 0.2414(2)
O6_3 O 0.25450(8) 0.19590(9) 0.40112(17)
O9_3 O 0.20449(15) 0.36528(12) 0.4185(4)
O10_3 O 0.17850(8) 0.26227(10) 0.7228(2)
Li10_3 Li 0.27453(19) 0.1895(2) 0.5452(4)
O12_2 O 0.19374(6) 0.26079(8) 0.06390(16)
O14_3 O 0.24550(8) 0.30410(9) 0.59888(17)
O16_3 O 0.23277(7) 0.19752(7) 0.63571(16)
H41_3 H 0.155735 0.243242 0.710554
H42_3 H 0.193414 0.255706 0.791524
H43_3 H 0.18837 0.374846 0.473328
H44_3 H 0.226238 0.385226 0.41363
H25_3 H 0.183671 0.999099 0.345522
C33_3 C 0.06143(7) 0.99745(7) 0.32777(19)
H30_3 H 0.045462 0.972494 0.326539
C35_3 C 0.09539(7) 0.99412(7) 0.41494(19)
H33_3 H 0.085057 0.991000 0.482602
C36_3 C 0.10308(7) 0.96456(7) 0.20363(19)
H34_3 H 0.112744 0.967154 0.135798
H35_3 H 0.087291 0.939484 0.202814
C37_3 C 0.12101(7) 0.95620(7) 0.39627(19)
H36_3 H 0.105667 0.930832 0.396505
H37_3 H 0.142307 0.954238 0.452134
C38_3 C 0.13751(6) 0.96086(7) 0.28926(18)
C39_3 C 0.16295(7) 0.92336(8) 0.2701(2)
C40_3 C 0.15706(10) 0.90078(10) 0.1803(3)
H38_3 H 0.136642 0.907515 0.129575
C41_3 C 0.18139(12) 0.86785(12) 0.1645(3)
H39_3 H 0.177660 0.852856 0.102120
C42_3 C 0.21095(8) 0.85695(9) 0.2394(2)
C43_3 C 0.21564(10) 0.88129(10) 0.3285(2)
H40_3 H 0.235793 0.874937 0.380372
C44_3 C 0.23744(9) 0.82087(9) 0.2229(2)
N4_3 N 0.19225(8) 0.91385(8) 0.3437(2)
C1_3 C 0.81593(9) 0.23639(11) 0.5103(2)
C2_3 C 0.85541(8) 0.21581(10) 0.5147(2)
C3_3 C 0.86809(10) 0.18825(12) 0.5937(3)
H1_3 H 0.852596 0.183363 0.647234
C4_3 C 0.90291(8) 0.16798(10) 0.5949(3)
H2_3 H 0.911011 0.149502 0.648903
C5_3 C 0.92543(7) 0.17487(8) 0.5178(2)
C6_3 C 0.87984(9) 0.22310(12) 0.4391(3)
H3_3 H 0.872653 0.242356 0.386183
C7_3 C 0.96258(6) 0.14957(8) 0.51256(18)
C8_3 C 0.95489(7) 0.11884(8) 0.41965(19)
H4_3 H 0.933251 0.100692 0.430929
H5_3 H 0.947898 0.134340 0.355385
C9_3 C 0.97349(6) 0.12399(7) 0.61246(18)
H6_3 H 0.978654 0.142644 0.671926
H7_3 H 0.951894 0.106010 0.625107
C10_3 C 0.99731(7) 0.17798(8) 0.49396(19)
H9_3 H 0.990806 0.194245 0.430671
C13_3 C 0.99135(7) 0.09237(8) 0.40890(19)
H11_3 H 0.986148 0.073222 0.349433
H13_3 H 0.980410 0.048953 0.520414
Li1_3 Li 0.74215(16) 0.2068(2) 0.5602(4)
O1_3 O 0.79503(6) 0.22773(10) 0.58084(18)
O2_2 O 0.80626(6) 0.26079(8) 0.43610(16)
O11_3 O 0.73890(11) 0.17168(12) 0.4399(2)
N3_3 N 0.91460(8) 0.20241(11) 0.4405(2)
O13_3 O 0.69374(6) 0.23921(8) 0.56390(16)
O18_3 O 0.73719(6) 0.18844(7) 0.70366(15)
H45_3 H 0.757859 0.148416 0.452488
H46_3 H 0.712113 0.160146 0.426166
C6_4 C 0.12016(9) 0.22310(12) 0.0609(3)
H3_4 H 0.127347 0.242356 0.113817
C8_4 C 0.04511(7) 0.11884(8) 0.08035(19)
H4_4 H 0.066749 0.100692 0.069071
H5_4 H 0.052102 0.134340 0.144615
C10_4 C 0.00269(7) 0.17798(8) 0.00604(19)
H9_4 H 0.009194 0.194245 0.069329
C13_4 C 0.00865(7) 0.09237(8) 0.09110(19)
H11_4 H 0.013852 0.073222 0.150567
O11_4 O 0.26110(11) 0.17168(12) 0.0601(2)
N3_4 N 0.08540(8) 0.20241(11) 0.0595(2)
H45_4 H 0.242141 0.148416 0.0475123
H46_4 H 0.287887 0.160146 0.0738336
C1_4 C 0.18407(9) 0.23639(11) 0.9897(2)
C2_4 C 0.14459(8) 0.21581(10) 0.9853(2)
C3_4 C 0.13191(10) 0.18825(12) 0.9063(3)
H1_4 H 0.147404 0.183363 0.852766
C4_4 C 0.09709(8) 0.16798(10) 0.9051(3)
H2_4 H 0.088989 0.149502 0.851097
C5_4 C 0.07457(7) 0.17487(8) 0.9822(2)
C7_4 C 0.03742(6) 0.14957(8) 0.98744(18)
C9_4 C 0.02651(6) 0.12399(7) 0.88754(18)
H6_4 H 0.021346 0.142644 0.828074
H7_4 H 0.048106 0.106010 0.874893
H13_4 H 0.019590 0.048953 0.979586
Li1_4 Li 0.25785(16) 0.2068(2) 0.9398(4)
O1_4 O 0.20497(6) 0.22773(10) 0.91916(18)
O13_4 O 0.30626(6) 0.23921(8) 0.93610(16)
O18_4 O 0.26281(6) 0.18844(7) 0.79634(15)
C11_4 C 0.96593(7) 0.15150(8) 0.01692(19)
C16_4 C 0.97487(7) 0.12152(8) 0.10991(19)
H16_4 H 0.981701 0.137437 0.173596
H17_4 H 0.951866 0.105083 0.118842
C17_4 C 0.93213(7) 0.17987(9) 0.0364(2)
C20_4 C 0.90462(19) 0.2269(3) 0.1439(4)
H20_4 H 0.906779 0.241953 0.206168
N1_4 N 0.93511(14) 0.2030(2) 0.1228(4)
C21_4 C 0.87088(8) 0.22980(10) 0.0782(2)
C22_4 C 0.83749(9) 0.25675(11) 0.1047(2)
C23_4 C 0.76750(10) 0.18804(10) 0.1786(2)
C24_4 C 0.83821(8) 0.07902(8) 0.1862(2)
C25_4 C 0.79237(9) 0.14928(9) 0.1802(2)
N2_4 N 0.80970(13) 0.08193(14) 0.1161(4)
C26_4 C 0.8241(2) 0.14592(19) 0.2593(4)
H21_4 H 0.829433 0.167277 0.307893
C27_4 C 0.84701(17) 0.11050(16) 0.2637(4)
H22_4 H 0.867718 0.107260 0.315949
C28_4 C 0.78751(15) 0.11652(19) 0.1109(4)
H23_4 H 0.767403 0.118398 0.056539
C29_4 C 0.86294(7) 0.03984(7) 0.18866(19)
C30_4 C 0.83809(7) 0.00115(7) 0.20899(18)
H24_4 H 0.827646 0.004344 0.275632
C31_4 C 0.87947(7) 0.03359(8) 0.08298(19)
H26_4 H 0.858140 0.031330 0.027274
H27_4 H 0.895072 0.057645 0.068485
C32_4 C 0.89733(7) 0.04214(7) 0.27572(19)
H28_4 H 0.913410 0.066156 0.264056
H29_4 H 0.887482 0.045594 0.343082
H31_4 H 0.954750 0.021291 0.159720
C34_4 C 0.92191(7) 0.00252(7) 0.27708(18)
H32_4 H 0.943436 0.004544 0.333484
O3_4 O 0.83707(8) 0.26727(10) 0.19780(17)
O4_4 O 0.81225(7) 0.26642(8) 0.03150(17)
O5_4 O 0.77048(9) 0.21022(8) 0.2586(2)
O6_4 O 0.74550(8) 0.19590(9) 0.09888(17)
O9_4 O 0.79551(15) 0.36528(12) 0.0815(4)
H43_4 H 0.81163 0.374846 0.0266721
H44_4 H 0.773762 0.385226 0.0863702
H8_4 H 0.997489 0.197200 0.947756
C12_4 C 0.99029(6) 0.09739(8) 0.89863(18)
H10_4 H 0.983687 0.081259 0.834223
C14_4 C 0.99825(7) 0.06748(8) 0.9912(2)
H12_4 H 0.975315 0.050597 0.997638
C15_4 C 0.95603(7) 0.12589(8) 0.91656(19)
H14_4 H 0.932976 0.109145 0.922606
H15_4 H 0.950501 0.144528 0.857197
C18_4 C 0.9002(3) 0.1865(3) 0.9601(5)
H18_4 H 0.899631 0.173953 0.894615
C19_4 C 0.8697(3) 0.2117(3) 0.9825(7)
H19_4 H 0.848616 0.216289 0.932178
Li4_4 Li 0.78797(17) 0.25487(17) 0.8884(4)
O10_4 O 0.82150(8) 0.26227(10) 0.7772(2)
Li10_4 Li 0.72547(19) 0.1895(2) 0.9548(4)
O14_4 O 0.75450(8) 0.30410(9) 0.90112(17)
O16_4 O 0.76723(7) 0.19752(7) 0.86429(16)
H41_4 H 0.844265 0.243242 0.789446
H42_4 H 0.806586 0.255706 0.708476
H25_4 H 0.816329 0.999099 0.154478
C33_4 C 0.93857(7) 0.99745(7) 0.17223(19)
H30_4 H 0.954538 0.972494 0.173461
C35_4 C 0.90461(7) 0.99412(7) 0.08506(19)
H33_4 H 0.914943 0.991000 0.017398
C36_4 C 0.89692(7) 0.96456(7) 0.29637(19)
H34_4 H 0.887256 0.967154 0.364202
H35_4 H 0.912709 0.939484 0.297186
C37_4 C 0.87899(7) 0.95620(7) 0.10373(19)
H36_4 H 0.894333 0.930832 0.103495
H37_4 H 0.857693 0.954238 0.047866
C38_4 C 0.86249(6) 0.96086(7) 0.21074(18)
C39_4 C 0.83705(7) 0.92336(8) 0.2299(2)
C40_4 C 0.84294(10) 0.90078(10) 0.3197(3)
H38_4 H 0.863358 0.907515 0.370425
C41_4 C 0.81861(12) 0.86785(12) 0.3355(3)
H39_4 H 0.822340 0.852856 0.397880
C42_4 C 0.78905(8) 0.85695(9) 0.2606(2)
C43_4 C 0.78436(10) 0.88129(10) 0.1715(2)
H40_4 H 0.764207 0.874937 0.119628
C44_4 C 0.76256(9) 0.82087(9) 0.2771(2)
N4_4 N 0.80775(8) 0.91385(8) 0.1563(2)
C1_5 C 0.68407(9) 0.26361(11) 0.4897(2)
C2_5 C 0.64459(8) 0.28419(10) 0.4853(2)
C3_5 C 0.63191(10) 0.31175(12) 0.4063(3)
H1_5 H 0.647404 0.316637 0.352766
C4_5 C 0.59709(8) 0.33202(10) 0.4051(3)
H2_5 H 0.588989 0.350498 0.351097
C5_5 C 0.57457(7) 0.32513(8) 0.4822(2)
C6_5 C 0.62016(9) 0.27690(12) 0.5609(3)
H3_5 H 0.627347 0.257644 0.613817
C7_5 C 0.53742(6) 0.35043(8) 0.48744(18)
C8_5 C 0.54511(7) 0.38116(8) 0.58035(19)
H4_5 H 0.566749 0.399308 0.569071
H5_5 H 0.552102 0.365660 0.644615
C9_5 C 0.52651(6) 0.37601(7) 0.38754(18)
H6_5 H 0.521346 0.357356 0.328074
H7_5 H 0.548106 0.393990 0.374893
C10_5 C 0.50269(7) 0.32202(8) 0.50604(19)
H8_5 H 0.497489 0.302800 0.447756
H9_5 H 0.509194 0.305755 0.569329
C11_5 C 0.46593(7) 0.34850(8) 0.51692(19)
C12_5 C 0.49029(6) 0.40261(8) 0.39863(18)
H10_5 H 0.483687 0.418741 0.334223
C13_5 C 0.50865(7) 0.40763(8) 0.59110(19)
H11_5 H 0.513852 0.426778 0.650567
C14_5 C 0.49825(7) 0.43252(8) 0.4912(2)
H12_5 H 0.475315 0.449403 0.497638
H13_5 H 0.519590 0.451047 0.479586
C15_5 C 0.45603(7) 0.37411(8) 0.41656(19)
H14_5 H 0.432976 0.390855 0.422606
H15_5 H 0.450501 0.355472 0.357197
C16_5 C 0.47487(7) 0.37848(8) 0.60991(19)
H16_5 H 0.481701 0.362563 0.673596
H17_5 H 0.451866 0.394917 0.618842
C17_5 C 0.43213(7) 0.32013(9) 0.5364(2)
C18_5 C 0.4002(3) 0.3135(3) 0.4601(5)
H18_5 H 0.399631 0.326047 0.394615
C19_5 C 0.3697(3) 0.2883(3) 0.4825(7)
H19_5 H 0.348616 0.283711 0.432178
C20_5 C 0.40462(19) 0.2731(3) 0.6439(4)
H20_5 H 0.406779 0.258047 0.706168
N1_5 N 0.43511(14) 0.2970(2) 0.6228(4)
C21_5 C 0.37088(8) 0.27020(10) 0.5782(2)
C22_5 C 0.33749(9) 0.24325(11) 0.6047(2)
C23_5 C 0.26750(10) 0.31196(10) 0.6786(2)
C24_5 C 0.33821(8) 0.42098(8) 0.6862(2)
C25_5 C 0.29237(9) 0.35072(9) 0.6802(2)
N2_5 N 0.30970(13) 0.41807(14) 0.6161(4)
C26_5 C 0.3241(2) 0.35408(19) 0.7593(4)
H21_5 H 0.329433 0.332723 0.807893
C27_5 C 0.34701(17) 0.38950(16) 0.7637(4)
H22_5 H 0.367718 0.392740 0.815949
C28_5 C 0.28751(15) 0.38348(19) 0.6109(4)
H23_5 H 0.267403 0.381602 0.556539
C29_5 C 0.36294(7) 0.46016(7) 0.68866(19)
C30_5 C 0.33809(7) 0.49885(7) 0.70899(18)
H24_5 H 0.327646 0.495656 0.775632
H25_5 H 0.316329 0.500901 0.654478
C31_5 C 0.37947(7) 0.46641(8) 0.58298(19)
H26_5 H 0.358140 0.468670 0.527274
H27_5 H 0.395072 0.442355 0.568485
C32_5 C 0.39733(7) 0.45786(7) 0.77572(19)
H28_5 H 0.413410 0.433844 0.764056
H29_5 H 0.387482 0.454406 0.843082
C33_5 C 0.43857(7) 0.50255(7) 0.67223(19)
H30_5 H 0.454538 0.527506 0.673461
H31_5 H 0.454750 0.478709 0.659720
C34_5 C 0.42191(7) 0.49748(7) 0.77708(18)
H32_5 H 0.443436 0.495456 0.833484
C35_5 C 0.40461(7) 0.50588(7) 0.58506(19)
H33_5 H 0.414943 0.509000 0.517398
C36_5 C 0.39692(7) 0.53544(7) 0.79637(19)
H34_5 H 0.387256 0.532846 0.864202
H35_5 H 0.412709 0.560516 0.797186
C37_5 C 0.37899(7) 0.54380(7) 0.60373(19)
H36_5 H 0.394333 0.569168 0.603495
H37_5 H 0.357693 0.545762 0.547866
C38_5 C 0.36249(6) 0.53914(7) 0.71074(18)
C39_5 C 0.33705(7) 0.57664(8) 0.7299(2)
C40_5 C 0.34294(10) 0.59922(10) 0.8197(3)
H38_5 H 0.363358 0.592485 0.870425
C41_5 C 0.31861(12) 0.63215(12) 0.8355(3)
H39_5 H 0.322340 0.647144 0.897880
C42_5 C 0.28905(8) 0.64305(9) 0.7606(2)
C43_5 C 0.28436(10) 0.61871(10) 0.6715(2)
H40_5 H 0.264207 0.625063 0.619628
C44_5 C 0.26256(9) 0.67913(9) 0.7771(2)
Li2_2 Li 0.29616(16) 0.23739(19) 0.7849(4)
O1_5 O 0.70497(6) 0.27227(10) 0.41916(18)
O3_5 O 0.33707(8) 0.23273(10) 0.69780(17)
O4_5 O 0.31225(7) 0.23358(8) 0.53150(17)
O5_5 O 0.27048(9) 0.28978(8) 0.7586(2)
O9_5 O 0.29551(15) 0.13472(12) 0.5815(4)
O10_5 O 0.32150(8) 0.23773(10) 0.2772(2)
O11_5 O 0.76110(11) 0.32832(12) 0.5601(2)
N3_5 N 0.58540(8) 0.29759(11) 0.5595(2)
N4_5 N 0.30775(8) 0.58615(8) 0.6563(2)
Li7_2 Li 0.70384(16) 0.23739(19) 0.7151(4)
Li8_3 Li 0.20384(16) 0.73739(19) 0.7151(4)
H41_5 H 0.344265 0.256758 0.289446
H42_5 H 0.306586 0.244294 0.208476
H43_5 H 0.31163 0.125154 0.526672
H44_5 H 0.273762 0.114774 0.58637
H45_5 H 0.742141 0.351584 0.547512
H46_5 H 0.787887 0.339854 0.573834
C1_6 C 0.31593(9) 0.26361(11) 0.0103(2)
C2_6 C 0.35541(8) 0.28419(10) 0.0147(2)
C3_6 C 0.36809(10) 0.31175(12) 0.0937(3)
H1_6 H 0.352596 0.316637 0.147234
C4_6 C 0.40291(8) 0.33202(10) 0.0949(3)
H2_6 H 0.411011 0.350498 0.148903
C5_6 C 0.42543(7) 0.32513(8) 0.0178(2)
C7_6 C 0.46258(6) 0.35043(8) 0.01256(18)
C9_6 C 0.47349(6) 0.37601(7) 0.11246(18)
H6_6 H 0.478654 0.357356 0.171926
H7_6 H 0.451894 0.393990 0.125107
H8_6 H 0.502511 0.302800 0.052244
C12_6 C 0.50971(6) 0.40261(8) 0.10137(18)
H10_6 H 0.516313 0.418741 0.165777
C14_6 C 0.50175(7) 0.43252(8) 0.0088(2)
H12_6 H 0.524685 0.449403 0.002362
H13_6 H 0.480410 0.451047 0.020414
C15_6 C 0.54397(7) 0.37411(8) 0.08344(19)
H14_6 H 0.567024 0.390855 0.077394
H15_6 H 0.549499 0.355472 0.142803
C18_6 C 0.5998(3) 0.3135(3) 0.0399(5)
H18_6 H 0.600369 0.326047 0.105385
C19_6 C 0.6303(3) 0.2883(3) 0.0175(7)
H19_6 H 0.651384 0.283711 0.067822
O1_6 O 0.29503(6) 0.27227(10) 0.08084(18)
O10_6 O 0.67850(8) 0.23773(10) 0.2228(2)
H41_6 H 0.655735 0.256758 0.210554
H42_6 H 0.693414 0.244294 0.291524
C6_6 C 0.37984(9) 0.27690(12) 0.9391(3)
H3_6 H 0.372653 0.257644 0.886183
C8_6 C 0.45489(7) 0.38116(8) 0.91965(19)
H4_6 H 0.433251 0.399308 0.930929
H5_6 H 0.447898 0.365660 0.855385
C10_6 C 0.49731(7) 0.32202(8) 0.99396(19)
H9_6 H 0.490806 0.305755 0.930671
C11_6 C 0.53407(7) 0.34850(8) 0.98308(19)
C13_6 C 0.49135(7) 0.40763(8) 0.90890(19)
H11_6 H 0.486148 0.426778 0.849433
C16_6 C 0.52513(7) 0.37848(8) 0.89009(19)
H16_6 H 0.518299 0.362563 0.826404
H17_6 H 0.548134 0.394917 0.881158
C17_6 C 0.56787(7) 0.32013(9) 0.9636(2)
C20_6 C 0.59538(19) 0.2731(3) 0.8561(4)
H20_6 H 0.593221 0.258047 0.793832
N1_6 N 0.56489(14) 0.2970(2) 0.8772(4)
C21_6 C 0.62912(8) 0.27020(10) 0.9218(2)
C22_6 C 0.66251(9) 0.24325(11) 0.8953(2)
C23_6 C 0.73250(10) 0.31196(10) 0.8214(2)
C24_6 C 0.66179(8) 0.42098(8) 0.8138(2)
C25_6 C 0.70763(9) 0.35072(9) 0.8198(2)
N2_6 N 0.69030(13) 0.41807(14) 0.8839(4)
C26_6 C 0.6759(2) 0.35408(19) 0.7407(4)
H21_6 H 0.670567 0.332723 0.692107
C27_6 C 0.65299(17) 0.38950(16) 0.7363(4)
H22_6 H 0.632282 0.392740 0.684051
C28_6 C 0.71249(15) 0.38348(19) 0.8891(4)
H23_6 H 0.732597 0.381602 0.943461
C29_6 C 0.63706(7) 0.46016(7) 0.81134(19)
C30_6 C 0.66191(7) 0.49885(7) 0.79101(18)
H24_6 H 0.672354 0.495656 0.724368
H25_6 H 0.683671 0.500901 0.845522
C31_6 C 0.62053(7) 0.46641(8) 0.91702(19)
H26_6 H 0.641860 0.468670 0.972726
H27_6 H 0.604928 0.442355 0.931515
C32_6 C 0.60267(7) 0.45786(7) 0.72428(19)
H28_6 H 0.586590 0.433844 0.735944
H29_6 H 0.612518 0.454406 0.656918
C33_6 C 0.56143(7) 0.50255(7) 0.82777(19)
H30_6 H 0.545462 0.527506 0.826539
H31_6 H 0.545250 0.478709 0.840280
C34_6 C 0.57809(7) 0.49748(7) 0.72292(18)
H32_6 H 0.556564 0.495456 0.666516
C35_6 C 0.59539(7) 0.50588(7) 0.91494(19)
H33_6 H 0.585057 0.509000 0.982602
C36_6 C 0.60308(7) 0.53544(7) 0.70363(19)
H34_6 H 0.612744 0.532846 0.635798
H35_6 H 0.587291 0.560516 0.702814
C37_6 C 0.62101(7) 0.54380(7) 0.89627(19)
H36_6 H 0.605667 0.569168 0.896505
H37_6 H 0.642307 0.545762 0.952134
C38_6 C 0.63751(6) 0.53914(7) 0.78926(18)
C39_6 C 0.66295(7) 0.57664(8) 0.7701(2)
C40_6 C 0.65706(10) 0.59922(10) 0.6803(3)
H38_6 H 0.636642 0.592485 0.629575
C41_6 C 0.68139(12) 0.63215(12) 0.6645(3)
H39_6 H 0.677660 0.647144 0.602120
C42_6 C 0.71095(8) 0.64305(9) 0.7394(2)
C43_6 C 0.71564(10) 0.61871(10) 0.8285(2)
H40_6 H 0.735793 0.625063 0.880372
C44_6 C 0.73744(9) 0.67913(9) 0.7229(2)
O3_6 O 0.66293(8) 0.23273(10) 0.80220(17)
O4_6 O 0.68775(7) 0.23358(8) 0.96850(17)
O5_6 O 0.72952(9) 0.28978(8) 0.7414(2)
O9_6 O 0.70449(15) 0.13472(12) 0.9185(4)
O11_6 O 0.23890(11) 0.32832(12) 0.9399(2)
N3_6 N 0.41460(8) 0.29759(11) 0.9405(2)
N4_6 N 0.69225(8) 0.58615(8) 0.8437(2)
Li8_4 Li 0.79616(16) 0.73739(19) 0.7849(4)
H43_6 H 0.68837 0.125154 0.973328
H44_6 H 0.726238 0.114774 0.91363
H45_6 H 0.257859 0.351584 0.952488
H46_6 H 0.212113 0.339854 0.926166
C1_7 C 0.18407(9) 0.76361(11) 0.4897(2)
C2_7 C 0.14459(8) 0.78419(10) 0.4853(2)
C3_7 C 0.13191(10) 0.81175(12) 0.4063(3)
H1_7 H 0.147404 0.816637 0.352766
C4_7 C 0.09709(8) 0.83202(10) 0.4051(3)
H2_7 H 0.088989 0.850498 0.351097
C5_7 C 0.07457(7) 0.82513(8) 0.4822(2)
C6_7 C 0.12016(9) 0.77690(12) 0.5609(3)
H3_7 H 0.127347 0.757644 0.613817
C7_7 C 0.03742(6) 0.85043(8) 0.48744(18)
C8_7 C 0.04511(7) 0.88116(8) 0.58035(19)
H4_7 H 0.066749 0.899308 0.569071
H5_7 H 0.052102 0.865660 0.644615
C9_7 C 0.02651(6) 0.87601(7) 0.38754(18)
H6_7 H 0.021346 0.857356 0.328074
H7_7 H 0.048106 0.893990 0.374893
C10_7 C 0.00269(7) 0.82202(8) 0.50604(19)
H9_7 H 0.009194 0.805755 0.569329
C13_7 C 0.00865(7) 0.90763(8) 0.59110(19)
H11_7 H 0.013852 0.926778 0.650567
H13_7 H 0.019590 0.951047 0.479586
O1_7 O 0.20497(6) 0.77227(10) 0.41916(18)
O11_7 O 0.26110(11) 0.82832(12) 0.5601(2)
N3_7 N 0.08540(8) 0.79759(11) 0.5595(2)
H45_7 H 0.242141 0.851584 0.547512
H46_7 H 0.287887 0.839854 0.573834
H25_7 H 0.816329 0.000901 0.654478
C33_7 C 0.93857(7) 0.00255(7) 0.67223(19)
H30_7 H 0.954538 0.027506 0.673461
C35_7 C 0.90461(7) 0.00588(7) 0.58506(19)
H33_7 H 0.914943 0.009000 0.517398
C36_7 C 0.89692(7) 0.03544(7) 0.79637(19)
H34_7 H 0.887256 0.032846 0.864202
H35_7 H 0.912709 0.060516 0.797186
C37_7 C 0.87899(7) 0.04380(7) 0.60373(19)
H36_7 H 0.894333 0.069168 0.603495
H37_7 H 0.857693 0.045762 0.547866
C38_7 C 0.86249(6) 0.03914(7) 0.71074(18)
C39_7 C 0.83705(7) 0.07664(8) 0.7299(2)
C40_7 C 0.84294(10) 0.09922(10) 0.8197(3)
H38_7 H 0.863358 0.092485 0.870425
C41_7 C 0.81861(12) 0.13215(12) 0.8355(3)
H39_7 H 0.822340 0.147144 0.897880
C42_7 C 0.78905(8) 0.14305(9) 0.7606(2)
C43_7 C 0.78436(10) 0.11871(10) 0.6715(2)
H40_7 H 0.764207 0.125063 0.619628
C44_7 C 0.76256(9) 0.17913(9) 0.7771(2)
N4_7 N 0.80775(8) 0.08615(8) 0.6563(2)
H8_7 H 0.997489 0.802800 0.447756
C11_7 C 0.96593(7) 0.84850(8) 0.51692(19)
C12_7 C 0.99029(6) 0.90261(8) 0.39863(18)
H10_7 H 0.983687 0.918741 0.334223
C14_7 C 0.99825(7) 0.93252(8) 0.4912(2)
H12_7 H 0.975315 0.949403 0.497638
C15_7 C 0.95603(7) 0.87411(8) 0.41656(19)
H14_7 H 0.932976 0.890855 0.422606
H15_7 H 0.950501 0.855472 0.357197
C16_7 C 0.97487(7) 0.87848(8) 0.60991(19)
H16_7 H 0.981701 0.862563 0.673596
H17_7 H 0.951866 0.894917 0.618842
C17_7 C 0.93213(7) 0.82013(9) 0.5364(2)
C18_7 C 0.9002(3) 0.8135(3) 0.4601(5)
H18_7 H 0.899631 0.826047 0.394615
C19_7 C 0.8697(3) 0.7883(3) 0.4825(7)
H19_7 H 0.848616 0.783711 0.432178
C20_7 C 0.90462(19) 0.7731(3) 0.6439(4)
H20_7 H 0.906779 0.758047 0.706168
N1_7 N 0.93511(14) 0.7970(2) 0.6228(4)
C21_7 C 0.87088(8) 0.77020(10) 0.5782(2)
C22_7 C 0.83749(9) 0.74325(11) 0.6047(2)
C23_7 C 0.76750(10) 0.81196(10) 0.6786(2)
C24_7 C 0.83821(8) 0.92098(8) 0.6862(2)
C25_7 C 0.79237(9) 0.85072(9) 0.6802(2)
N2_7 N 0.80970(13) 0.91807(14) 0.6161(4)
C26_7 C 0.8241(2) 0.85408(19) 0.7593(4)
H21_7 H 0.829433 0.832723 0.807893
C27_7 C 0.84701(17) 0.88950(16) 0.7637(4)
H22_7 H 0.867718 0.892740 0.815949
C28_7 C 0.78751(15) 0.88348(19) 0.6109(4)
H23_7 H 0.767403 0.881602 0.556539
C29_7 C 0.86294(7) 0.96016(7) 0.68866(19)
C30_7 C 0.83809(7) 0.99885(7) 0.70899(18)
H24_7 H 0.827646 0.995656 0.775632
C31_7 C 0.87947(7) 0.96641(8) 0.58298(19)
H26_7 H 0.858140 0.968670 0.527274
H27_7 H 0.895072 0.942355 0.568485
C32_7 C 0.89733(7) 0.95786(7) 0.77572(19)
H28_7 H 0.913410 0.933844 0.764056
H29_7 H 0.887482 0.954406 0.843082
H31_7 H 0.954750 0.978709 0.659720
C34_7 C 0.92191(7) 0.99748(7) 0.77708(18)
H32_7 H 0.943436 0.995456 0.833484
O3_7 O 0.83707(8) 0.73273(10) 0.69780(17)
O4_7 O 0.81225(7) 0.73358(8) 0.53150(17)
O5_7 O 0.77048(9) 0.78978(8) 0.7586(2)
O9_7 O 0.79551(15) 0.63472(12) 0.5815(4)
O10_7 O 0.82150(8) 0.73773(10) 0.2772(2)
H41_7 H 0.844265 0.756758 0.289446
H42_7 H 0.806586 0.744294 0.208476
H43_7 H 0.81163 0.625154 0.526672
H44_7 H 0.773762 0.614774 0.58637
H25_8 H 0.183671 0.000901 0.845522
C33_8 C 0.06143(7) 0.00255(7) 0.82777(19)
H30_8 H 0.045462 0.027506 0.826539
C35_8 C 0.09539(7) 0.00588(7) 0.91494(19)
H33_8 H 0.085057 0.009000 0.982602
C36_8 C 0.10308(7) 0.03544(7) 0.70363(19)
H34_8 H 0.112744 0.032846 0.635798
H35_8 H 0.087291 0.060516 0.702814
C37_8 C 0.12101(7) 0.04380(7) 0.89627(19)
H36_8 H 0.105667 0.069168 0.896505
H37_8 H 0.142307 0.045762 0.952134
C38_8 C 0.13751(6) 0.03914(7) 0.78926(18)
C39_8 C 0.16295(7) 0.07664(8) 0.7701(2)
C40_8 C 0.15706(10) 0.09922(10) 0.6803(3)
H38_8 H 0.136642 0.092485 0.629575
C41_8 C 0.18139(12) 0.13215(12) 0.6645(3)
H39_8 H 0.177660 0.147144 0.602120
C42_8 C 0.21095(8) 0.14305(9) 0.7394(2)
C43_8 C 0.21564(10) 0.11871(10) 0.8285(2)
H40_8 H 0.235793 0.125063 0.880372
C44_8 C 0.23744(9) 0.17913(9) 0.7229(2)
N4_8 N 0.19225(8) 0.08615(8) 0.8437(2)
H8_8 H 0.002511 0.802800 0.052244
C12_8 C 0.00971(6) 0.90261(8) 0.10137(18)
H10_8 H 0.016313 0.918741 0.165777
C14_8 C 0.00175(7) 0.93252(8) 0.0088(2)
H12_8 H 0.024685 0.949403 0.002362
C15_8 C 0.04397(7) 0.87411(8) 0.08344(19)
H14_8 H 0.067024 0.890855 0.077394
H15_8 H 0.049499 0.855472 0.142803
C18_8 C 0.0998(3) 0.8135(3) 0.0399(5)
H18_8 H 0.100369 0.826047 0.105385
C19_8 C 0.1303(3) 0.7883(3) 0.0175(7)
H19_8 H 0.151384 0.783711 0.067822
O10_8 O 0.17850(8) 0.73773(10) 0.2228(2)
H41_8 H 0.155735 0.756758 0.210554
H42_8 H 0.193414 0.744294 0.291524
C11_8 C 0.03407(7) 0.84850(8) 0.98308(19)
C16_8 C 0.02513(7) 0.87848(8) 0.89009(19)
H16_8 H 0.018299 0.862563 0.826404
H17_8 H 0.048134 0.894917 0.881158
C17_8 C 0.06787(7) 0.82013(9) 0.9636(2)
C20_8 C 0.09538(19) 0.7731(3) 0.8561(4)
H20_8 H 0.093221 0.758047 0.793832
N1_8 N 0.06489(14) 0.7970(2) 0.8772(4)
C21_8 C 0.12912(8) 0.77020(10) 0.9218(2)
C22_8 C 0.16251(9) 0.74325(11) 0.8953(2)
C23_8 C 0.23250(10) 0.81196(10) 0.8214(2)
C24_8 C 0.16179(8) 0.92098(8) 0.8138(2)
C25_8 C 0.20763(9) 0.85072(9) 0.8198(2)
N2_8 N 0.19030(13) 0.91807(14) 0.8839(4)
C26_8 C 0.1759(2) 0.85408(19) 0.7407(4)
H21_8 H 0.170567 0.832723 0.692107
C27_8 C 0.15299(17) 0.88950(16) 0.7363(4)
H22_8 H 0.132282 0.892740 0.684051
C28_8 C 0.21249(15) 0.88348(19) 0.8891(4)
H23_8 H 0.232597 0.881602 0.943461
C29_8 C 0.13706(7) 0.96016(7) 0.81134(19)
C30_8 C 0.16191(7) 0.99885(7) 0.79101(18)
H24_8 H 0.172354 0.995656 0.724368
C31_8 C 0.12053(7) 0.96641(8) 0.91702(19)
H26_8 H 0.141860 0.968670 0.972726
H27_8 H 0.104928 0.942355 0.931515
C32_8 C 0.10267(7) 0.95786(7) 0.72428(19)
H28_8 H 0.086590 0.933844 0.735944
H29_8 H 0.112518 0.954406 0.656918
H31_8 H 0.045250 0.978709 0.840280
C34_8 C 0.07809(7) 0.99748(7) 0.72292(18)
H32_8 H 0.056564 0.995456 0.666516
O3_8 O 0.16293(8) 0.73273(10) 0.80220(17)
O4_8 O 0.18775(7) 0.73358(8) 0.96850(17)
O5_8 O 0.22952(9) 0.78978(8) 0.7414(2)
O9_8 O 0.20449(15) 0.63472(12) 0.9185(4)
H43_8 H 0.18837 0.625154 0.973328
H44_8 H 0.226238 0.614774 0.91363
C1_8 C 0.81593(9) 0.76361(11) 0.0103(2)
C2_8 C 0.85541(8) 0.78419(10) 0.0147(2)
C3_8 C 0.86809(10) 0.81175(12) 0.0937(3)
H1_8 H 0.852596 0.816637 0.147234
C4_8 C 0.90291(8) 0.83202(10) 0.0949(3)
H2_8 H 0.911011 0.850498 0.148903
C5_8 C 0.92543(7) 0.82513(8) 0.0178(2)
C7_8 C 0.96258(6) 0.85043(8) 0.01256(18)
C9_8 C 0.97349(6) 0.87601(7) 0.11246(18)
H6_8 H 0.978654 0.857356 0.171926
H7_8 H 0.951894 0.893990 0.125107
H13_8 H 0.980410 0.951047 0.020414
O1_8 O 0.79503(6) 0.77227(10) 0.08084(18)
C6_8 C 0.87984(9) 0.77690(12) 0.9391(3)
H3_8 H 0.872653 0.757644 0.886183
C8_8 C 0.95489(7) 0.88116(8) 0.91965(19)
H4_8 H 0.933251 0.899308 0.930929
H5_8 H 0.947898 0.865660 0.855385
C10_8 C 0.99731(7) 0.82202(8) 0.99396(19)
H9_8 H 0.990806 0.805755 0.930671
C13_8 C 0.99135(7) 0.90763(8) 0.90890(19)
H11_8 H 0.986148 0.926778 0.849433
O11_8 O 0.73890(11) 0.82832(12) 0.9399(2)
N3_8 N 0.91460(8) 0.79759(11) 0.9405(2)
H45_8 H 0.757859 0.851584 0.952488
H46_8 H 0.712113 0.839854 0.926166
loop_
_geom_bond_atom_site_label_1
_geom_bond_atom_site_label_2
_geom_bond_site_symmetry_1
_geom_bond_site_symmetry_2
C1 C2 1_555 1_555
C2 C3 1_555 1_555
C3 H1 1_555 1_555
C4 C3 1_555 1_555
H2 C4 1_555 1_555
C5 C4 1_555 1_555
C6 C2 1_555 1_555
H3 C6 1_555 1_555
C7 C5 1_555 1_555
C8 C7 1_555 1_555
H4 C8 1_555 1_555
H5 C8 1_555 1_555
C9 C7 1_555 1_555
H6 C9 1_555 1_555
H7 C9 1_555 1_555
C10 C7 1_555 1_555
H8 C10 1_555 1_555
H9 C10 1_555 1_555
C11 C10 1_555 1_555
C12 C9 1_555 1_555
H10 C12 1_555 1_555
C13 C8 1_555 1_555
H11 C13 1_555 1_555
C14 C12 1_555 1_555
H12 C14 1_555 1_555
H13 C14 1_555 1_555
C15 C11 1_555 1_555
H14 C15 1_555 1_555
H15 C15 1_555 1_555
C16 C11 1_555 1_555
H16 C16 1_555 1_555
H17 C16 1_555 1_555
C17 C11 1_555 1_555
C18 C17 1_555 1_555
H18 C18 1_555 1_555
C19 C18 1_555 1_555
H19 C19 1_555 1_555
C20 H20 1_555 1_555
N1 C17 1_555 1_555
C21 C19 1_555 1_555
C22 C21 1_555 1_555
C23 C25 1_555 1_555
C24 N2 1_555 1_555
C25 C26 1_555 1_555
N2 C28 1_555 1_555
C26 H21 1_555 1_555
C27 C24 1_555 1_555
H22 C27 1_555 1_555
C28 C25 1_555 1_555
H23 C28 1_555 1_555
C29 C24 1_555 1_555
C30 C29 1_555 1_555
H24 C30 1_555 1_555
H25 C30 1_555 1_555
C31 C29 1_555 1_555
H26 C31 1_555 1_555
H27 C31 1_555 1_555
C32 C29 1_555 1_555
H28 C32 1_555 1_555
H29 C32 1_555 1_555
C33 H30 1_555 1_555
H31 C33 1_555 1_555
C34 C32 1_555 1_555
H32 C34 1_555 1_555
C35 C31 1_555 1_555
H33 C35 1_555 1_555
C36 C34 1_555 1_555
H34 C36 1_555 1_555
H35 C36 1_555 1_555
C37 C35 1_555 1_555
H36 C37 1_555 1_555
H37 C37 1_555 1_555
C38 C30 1_555 1_555
C39 C38 1_555 1_555
C40 C39 1_555 1_555
H38 C40 1_555 1_555
C41 C40 1_555 1_555
H39 C41 1_555 1_555
C42 C41 1_555 1_555
C43 C42 1_555 1_555
H40 C43 1_555 1_555
C44 C42 1_555 1_555
Li1 O1 1_555 1_555
Li2 O3 1_555 1_555
Li3 O4 1_555 1_555
Li4 O4 1_555 1_555
O1 C1 1_555 1_555
O2 C1 1_555 1_555
O3 C22 1_555 1_555
O4 C22 1_555 1_555
O5 C23 1_555 1_555
O6 C23 1_555 1_555
O7 C44 1_555 1_555
O8 C44 1_555 1_555
O9 Li3 1_555 1_555
O10 Li4 1_555 1_555
O11 Li1 1_555 1_555
N3 C5 1_555 1_555
N4 C39 1_555 1_555
Li5 O8 1_555 1_555
Li6 O2 1_555 1_555
Li7 O2 1_555 1_555
Li8 O8 1_555 1_555
Li9 O7 1_555 1_555
Li10 O6 1_555 1_555
Li11 O7 1_555 1_555
Li12 O6 1_555 1_555
O12 Li2 1_555 1_555
O13 Li1 1_555 1_555
O14 Li3 1_555 1_555
O15 Li3 1_555 1_555
O16 Li4 1_555 1_555
O17 Li2 1_555 1_555
O18 Li1 1_555 1_555
C6 N3 1_555 1_555
C12 C15 1_555 1_555
C13 C14 1_555 1_555
C13 C16 1_555 1_555
C20 N1 1_555 1_555
C20 C21 1_555 1_555
C26 C27 1_555 1_555
C33 C34 1_555 1_555
C33 C35 1_555 1_555
C36 C38 1_555 1_555
C37 C38 1_555 1_555
C43 N4 1_555 1_555
Li2 O5 1_555 1_555
Li4 O14 1_555 1_555
Li10 O16 1_555 1_555
Li12 O15 1_555 1_555
O10 H41 1_555 1_555
O10 H42 1_555 1_555
O9 H43 1_555 1_555
O9 H44 1_555 1_555
O11 H45 1_555 1_555
O11 H46 1_555 1_555
H3_2 C6_2 1_555 1_555
H4_2 C8_2 1_555 1_555
H5_2 C8_2 1_555 1_555
H9_2 C10_2 1_555 1_555
C11_2 C10_2 1_555 1_555
C13_2 C8_2 1_555 1_555
H11_2 C13_2 1_555 1_555
C16_2 C11_2 1_555 1_555
H16_2 C16_2 1_555 1_555
H17_2 C16_2 1_555 1_555
C17_2 C11_2 1_555 1_555
C20_2 H20_2 1_555 1_555
N1_2 C17_2 1_555 1_555
C22_2 C21_2 1_555 1_555
C23_2 C25_2 1_555 1_555
C24_2 N2_2 1_555 1_555
C25_2 C26_2 1_555 1_555
N2_2 C28_2 1_555 1_555
C26_2 H21_2 1_555 1_555
C27_2 C24_2 1_555 1_555
H22_2 C27_2 1_555 1_555
C28_2 C25_2 1_555 1_555
H23_2 C28_2 1_555 1_555
C29_2 C24_2 1_555 1_555
C30_2 C29_2 1_555 1_555
H24_2 C30_2 1_555 1_555
H25_2 C30_2 1_555 1_555
C31_2 C29_2 1_555 1_555
H26_2 C31_2 1_555 1_555
H27_2 C31_2 1_555 1_555
C32_2 C29_2 1_555 1_555
H28_2 C32_2 1_555 1_555
H29_2 C32_2 1_555 1_555
C33_2 H30_2 1_555 1_555
H31_2 C33_2 1_555 1_555
C34_2 C32_2 1_555 1_555
H32_2 C34_2 1_555 1_555
C35_2 C31_2 1_555 1_555
H33_2 C35_2 1_555 1_555
C36_2 C34_2 1_555 1_555
H34_2 C36_2 1_555 1_555
H35_2 C36_2 1_555 1_555
C37_2 C35_2 1_555 1_555
H36_2 C37_2 1_555 1_555
H37_2 C37_2 1_555 1_555
C38_2 C30_2 1_555 1_555
C39_2 C38_2 1_555 1_555
C40_2 C39_2 1_555 1_555
H38_2 C40_2 1_555 1_555
C41_2 C40_2 1_555 1_555
H39_2 C41_2 1_555 1_555
C42_2 C41_2 1_555 1_555
C43_2 C42_2 1_555 1_555
H40_2 C43_2 1_555 1_555
C44_2 C42_2 1_555 1_555
Li7 O3_2 1_555 1_555
Li3_2 O4_2 1_555 1_555
O3_2 C22_2 1_555 1_555
O4_2 C22_2 1_555 1_555
O5_2 C23_2 1_555 1_555
O6_2 C23_2 1_555 1_555
O7_2 C44_2 1_555 1_555
O8_2 C44_2 1_555 1_555
O9_2 Li3_2 1_555 1_555
N4_2 C39_2 1_555 1_555
Li5_2 O8_2 1_555 1_555
Li6_2 O12 1_555 1_555
Li8_2 O8_2 1_555 1_555
Li9_2 O7_2 1_555 1_555
Li11_2 O7_2 1_555 1_555
Li12_2 O6_2 1_555 1_555
O15_2 Li3_2 1_555 1_555
O17_2 Li7 1_555 1_555
C6_2 N3_2 1_555 1_555
C13_2 C16_2 1_555 1_555
C20_2 N1_2 1_555 1_555
C20_2 C21_2 1_555 1_555
C26_2 C27_2 1_555 1_555
C33_2 C34_2 1_555 1_555
C33_2 C35_2 1_555 1_555
C36_2 C38_2 1_555 1_555
C37_2 C38_2 1_555 1_555
C43_2 N4_2 1_555 1_555
Li7 O5_2 1_555 1_555
Li12_2 O15_2 1_555 1_555
O9_2 H43_2 1_555 1_555
O9_2 H44_2 1_555 1_555
O11_2 H45_2 1_555 1_555
O11_2 H46_2 1_555 1_555
C1_2 C2_2 1_555 1_555
C2_2 C3_2 1_555 1_555
C3_2 H1_2 1_555 1_555
C4_2 C3_2 1_555 1_555
H2_2 C4_2 1_555 1_555
C5_2 C4_2 1_555 1_555
C7_2 C5_2 1_555 1_555
C9_2 C7_2 1_555 1_555
H6_2 C9_2 1_555 1_555
H7_2 C9_2 1_555 1_555
C12_2 C9_2 1_555 1_555
H10_2 C12_2 1_555 1_555
C14_2 C12_2 1_555 1_555
H12_2 C14_2 1_555 1_555
H13_2 C14_2 1_555 1_555
H14_2 C15_2 1_555 1_555
H15_2 C15_2 1_555 1_555
H18_2 C18_2 1_555 1_555
C19_2 C18_2 1_555 1_555
H19_2 C19_2 1_555 1_555
Li1_2 O1_2 1_555 1_555
O1_2 C1_2 1_555 1_555
O10_2 Li4_2 1_555 1_555
O13_2 Li1_2 1_555 1_555
O16_2 Li4_2 1_555 1_555
O18_2 Li1_2 1_555 1_555
C12_2 C15_2 1_555 1_555
Li4_2 O14_2 1_555 1_555
Li10_2 O16_2 1_555 1_555
O10_2 H41_2 1_555 1_555
O10_2 H42_2 1_555 1_555
H10_3 C12_3 1_555 1_555
C14_3 C12_3 1_555 1_555
H12_3 C14_3 1_555 1_555
C15_3 C11_3 1_555 1_555
H14_3 C15_3 1_555 1_555
H15_3 C15_3 1_555 1_555
C16_3 C11_3 1_555 1_555
H16_3 C16_3 1_555 1_555
H17_3 C16_3 1_555 1_555
C17_3 C11_3 1_555 1_555
C18_3 C17_3 1_555 1_555
H18_3 C18_3 1_555 1_555
C19_3 C18_3 1_555 1_555
H19_3 C19_3 1_555 1_555
C20_3 H20_3 1_555 1_555
N1_3 C17_3 1_555 1_555
C21_3 C19_3 1_555 1_555
C22_3 C21_3 1_555 1_555
C23_3 C25_3 1_555 1_555
C24_3 N2_3 1_555 1_555
C25_3 C26_3 1_555 1_555
N2_3 C28_3 1_555 1_555
C26_3 H21_3 1_555 1_555
C27_3 C24_3 1_555 1_555
H22_3 C27_3 1_555 1_555
C28_3 C25_3 1_555 1_555
H23_3 C28_3 1_555 1_555
C29_3 C24_3 1_555 1_555
C30_3 C29_3 1_555 1_555
H24_3 C30_3 1_555 1_555
C31_3 C29_3 1_555 1_555
H26_3 C31_3 1_555 1_555
H27_3 C31_3 1_555 1_555
C32_3 C29_3 1_555 1_555
H28_3 C32_3 1_555 1_555
H29_3 C32_3 1_555 1_555
C34_3 C32_3 1_555 1_555
H32_3 C34_3 1_555 1_555
Li8_2 O3_3 1_555 1_555
Li9_2 O4_3 1_555 1_555
Li4_3 O4_3 1_555 1_555
O3_3 C22_3 1_555 1_555
O4_3 C22_3 1_555 1_555
O5_3 C23_3 1_555 1_555
O6_3 C23_3 1_555 1_555
O9_3 Li9_2 1_555 1_555
O10_3 Li4_3 1_555 1_555
Li10_3 O6_3 1_555 1_555
Li11_2 O6_3 1_555 1_555
O12_2 Li8_2 1_555 1_555
O14_3 Li9_2 1_555 1_555
O16_3 Li4_3 1_555 1_555
C12_3 C15_3 1_555 1_555
C20_3 N1_3 1_555 1_555
C20_3 C21_3 1_555 1_555
C26_3 C27_3 1_555 1_555
Li8_2 O5_3 1_555 1_555
Li4_3 O14_3 1_555 1_555
Li10_3 O16_3 1_555 1_555
O10_3 H41_3 1_555 1_555
O10_3 H42_3 1_555 1_555
O9_3 H43_3 1_555 1_555
O9_3 H44_3 1_555 1_555
C33_3 H30_3 1_555 1_555
H33_3 C35_3 1_555 1_555
H34_3 C36_3 1_555 1_555
H35_3 C36_3 1_555 1_555
C37_3 C35_3 1_555 1_555
H36_3 C37_3 1_555 1_555
H37_3 C37_3 1_555 1_555
C39_3 C38_3 1_555 1_555
C40_3 C39_3 1_555 1_555
H38_3 C40_3 1_555 1_555
C41_3 C40_3 1_555 1_555
H39_3 C41_3 1_555 1_555
C42_3 C41_3 1_555 1_555
C43_3 C42_3 1_555 1_555
H40_3 C43_3 1_555 1_555
C44_3 C42_3 1_555 1_555
O15_2 C44_3 1_555 1_555
O17_2 C44_3 1_555 1_555
N4_3 C39_3 1_555 1_555
Li6 O17_2 1_555 1_555
C33_3 C35_3 1_555 1_555
C36_3 C38_3 1_555 1_555
C37_3 C38_3 1_555 1_555
C43_3 N4_3 1_555 1_555
C1_3 C2_3 1_555 1_555
C2_3 C3_3 1_555 1_555
C3_3 H1_3 1_555 1_555
C4_3 C3_3 1_555 1_555
H2_3 C4_3 1_555 1_555
C5_3 C4_3 1_555 1_555
C6_3 C2_3 1_555 1_555
H3_3 C6_3 1_555 1_555
C7_3 C5_3 1_555 1_555
C8_3 C7_3 1_555 1_555
H4_3 C8_3 1_555 1_555
H5_3 C8_3 1_555 1_555
C9_3 C7_3 1_555 1_555
H6_3 C9_3 1_555 1_555
H7_3 C9_3 1_555 1_555
C10_3 C7_3 1_555 1_555
H9_3 C10_3 1_555 1_555
C13_3 C8_3 1_555 1_555
H11_3 C13_3 1_555 1_555
Li1_3 O1_3 1_555 1_555
O1_3 C1_3 1_555 1_555
O2_2 C1_3 1_555 1_555
O11_3 Li1_3 1_555 1_555
N3_3 C5_3 1_555 1_555
Li5 O2_2 1_555 1_555
Li8 O2_2 1_555 1_555
O13_3 Li1_3 1_555 1_555
O18_3 Li1_3 1_555 1_555
C6_3 N3_3 1_555 1_555
O11_3 H45_3 1_555 1_555
O11_3 H46_3 1_555 1_555
H3_4 C6_4 1_555 1_555
H4_4 C8_4 1_555 1_555
H5_4 C8_4 1_555 1_555
H9_4 C10_4 1_555 1_555
C13_4 C8_4 1_555 1_555
H11_4 C13_4 1_555 1_555
Li5_2 O12_2 1_555 1_555
C6_4 N3_4 1_555 1_555
O11_4 H45_4 1_555 1_555
O11_4 H46_4 1_555 1_555
C1_4 C2_4 1_555 1_555
C2_4 C3_4 1_555 1_555
C3_4 H1_4 1_555 1_555
C4_4 C3_4 1_555 1_555
H2_4 C4_4 1_555 1_555
C5_4 C4_4 1_555 1_555
C7_4 C5_4 1_555 1_555
C9_4 C7_4 1_555 1_555
H6_4 C9_4 1_555 1_555
H7_4 C9_4 1_555 1_555
Li1_4 O1_4 1_555 1_555
O1_4 C1_4 1_555 1_555
O13_4 Li1_4 1_555 1_555
O18_4 Li1_4 1_555 1_555
C16_4 C11_4 1_555 1_555
H16_4 C16_4 1_555 1_555
H17_4 C16_4 1_555 1_555
C17_4 C11_4 1_555 1_555
C20_4 H20_4 1_555 1_555
N1_4 C17_4 1_555 1_555
C22_4 C21_4 1_555 1_555
C23_4 C25_4 1_555 1_555
C24_4 N2_4 1_555 1_555
C25_4 C26_4 1_555 1_555
N2_4 C28_4 1_555 1_555
C26_4 H21_4 1_555 1_555
C27_4 C24_4 1_555 1_555
H22_4 C27_4 1_555 1_555
C28_4 C25_4 1_555 1_555
H23_4 C28_4 1_555 1_555
C29_4 C24_4 1_555 1_555
C30_4 C29_4 1_555 1_555
H24_4 C30_4 1_555 1_555
C31_4 C29_4 1_555 1_555
H26_4 C31_4 1_555 1_555
H27_4 C31_4 1_555 1_555
C32_4 C29_4 1_555 1_555
H28_4 C32_4 1_555 1_555
H29_4 C32_4 1_555 1_555
C34_4 C32_4 1_555 1_555
H32_4 C34_4 1_555 1_555
Li8 O3_4 1_555 1_555
Li9 O4_4 1_555 1_555
O3_4 C22_4 1_555 1_555
O4_4 C22_4 1_555 1_555
O5_4 C23_4 1_555 1_555
O6_4 C23_4 1_555 1_555
O9_4 Li9 1_555 1_555
Li11 O6_4 1_555 1_555
C20_4 N1_4 1_555 1_555
C20_4 C21_4 1_555 1_555
C26_4 C27_4 1_555 1_555
Li8 O5_4 1_555 1_555
O9_4 H43_4 1_555 1_555
O9_4 H44_4 1_555 1_555
H10_4 C12_4 1_555 1_555
C14_4 C12_4 1_555 1_555
H12_4 C14_4 1_555 1_555
H14_4 C15_4 1_555 1_555
H15_4 C15_4 1_555 1_555
H18_4 C18_4 1_555 1_555
C19_4 C18_4 1_555 1_555
H19_4 C19_4 1_555 1_555
O10_4 Li4_4 1_555 1_555
O16_4 Li4_4 1_555 1_555
C12_4 C15_4 1_555 1_555
Li4_4 O14_4 1_555 1_555
Li10_4 O16_4 1_555 1_555
O10_4 H41_4 1_555 1_555
O10_4 H42_4 1_555 1_555
C33_4 H30_4 1_555 1_555
H33_4 C35_4 1_555 1_555
H34_4 C36_4 1_555 1_555
H35_4 C36_4 1_555 1_555
C37_4 C35_4 1_555 1_555
H36_4 C37_4 1_555 1_555
H37_4 C37_4 1_555 1_555
C39_4 C38_4 1_555 1_555
C40_4 C39_4 1_555 1_555
H38_4 C40_4 1_555 1_555
C41_4 C40_4 1_555 1_555
H39_4 C41_4 1_555 1_555
C42_4 C41_4 1_555 1_555
C43_4 C42_4 1_555 1_555
H40_4 C43_4 1_555 1_555
C44_4 C42_4 1_555 1_555
O15 C44_4 1_555 1_555
O17 C44_4 1_555 1_555
N4_4 C39_4 1_555 1_555
Li6_2 O17 1_555 1_555
C33_4 C35_4 1_555 1_555
C36_4 C38_4 1_555 1_555
C37_4 C38_4 1_555 1_555
C43_4 N4_4 1_555 1_555
C1_5 C2_5 1_555 1_555
C2_5 C3_5 1_555 1_555
C3_5 H1_5 1_555 1_555
C4_5 C3_5 1_555 1_555
H2_5 C4_5 1_555 1_555
C5_5 C4_5 1_555 1_555
C6_5 C2_5 1_555 1_555
H3_5 C6_5 1_555 1_555
C7_5 C5_5 1_555 1_555
C8_5 C7_5 1_555 1_555
H4_5 C8_5 1_555 1_555
H5_5 C8_5 1_555 1_555
C9_5 C7_5 1_555 1_555
H6_5 C9_5 1_555 1_555
H7_5 C9_5 1_555 1_555
C10_5 C7_5 1_555 1_555
H8_5 C10_5 1_555 1_555
H9_5 C10_5 1_555 1_555
C11_5 C10_5 1_555 1_555
C12_5 C9_5 1_555 1_555
H10_5 C12_5 1_555 1_555
C13_5 C8_5 1_555 1_555
H11_5 C13_5 1_555 1_555
C14_5 C12_5 1_555 1_555
H12_5 C14_5 1_555 1_555
H13_5 C14_5 1_555 1_555
C15_5 C11_5 1_555 1_555
H14_5 C15_5 1_555 1_555
H15_5 C15_5 1_555 1_555
C16_5 C11_5 1_555 1_555
H16_5 C16_5 1_555 1_555
H17_5 C16_5 1_555 1_555
C17_5 C11_5 1_555 1_555
C18_5 C17_5 1_555 1_555
H18_5 C18_5 1_555 1_555
C19_5 C18_5 1_555 1_555
H19_5 C19_5 1_555 1_555
C20_5 H20_5 1_555 1_555
N1_5 C17_5 1_555 1_555
C21_5 C19_5 1_555 1_555
C22_5 C21_5 1_555 1_555
C23_5 C25_5 1_555 1_555
C24_5 N2_5 1_555 1_555
C25_5 C26_5 1_555 1_555
N2_5 C28_5 1_555 1_555
C26_5 H21_5 1_555 1_555
C27_5 C24_5 1_555 1_555
H22_5 C27_5 1_555 1_555
C28_5 C25_5 1_555 1_555
H23_5 C28_5 1_555 1_555
C29_5 C24_5 1_555 1_555
C30_5 C29_5 1_555 1_555
H24_5 C30_5 1_555 1_555
H25_5 C30_5 1_555 1_555
C31_5 C29_5 1_555 1_555
H26_5 C31_5 1_555 1_555
H27_5 C31_5 1_555 1_555
C32_5 C29_5 1_555 1_555
H28_5 C32_5 1_555 1_555
H29_5 C32_5 1_555 1_555
C33_5 H30_5 1_555 1_555
H31_5 C33_5 1_555 1_555
C34_5 C32_5 1_555 1_555
H32_5 C34_5 1_555 1_555
C35_5 C31_5 1_555 1_555
H33_5 C35_5 1_555 1_555
C36_5 C34_5 1_555 1_555
H34_5 C36_5 1_555 1_555
H35_5 C36_5 1_555 1_555
C37_5 C35_5 1_555 1_555
H36_5 C37_5 1_555 1_555
H37_5 C37_5 1_555 1_555
C38_5 C30_5 1_555 1_555
C39_5 C38_5 1_555 1_555
C40_5 C39_5 1_555 1_555
H38_5 C40_5 1_555 1_555
C41_5 C40_5 1_555 1_555
H39_5 C41_5 1_555 1_555
C42_5 C41_5 1_555 1_555
C43_5 C42_5 1_555 1_555
H40_5 C43_5 1_555 1_555
C44_5 C42_5 1_555 1_555
Li5 O1_5 1_555 1_555
Li2_2 O3_5 1_555 1_555
Li10_3 O4_5 1_555 1_555
Li11_2 O4_5 1_555 1_555
O1_5 C1_5 1_555 1_555
O13_3 C1_5 1_555 1_555
O3_5 C22_5 1_555 1_555
O4_5 C22_5 1_555 1_555
O5_5 C23_5 1_555 1_555
O14_3 C23_5 1_555 1_555
O16_2 C44_5 1_555 1_555
O18 C44_5 1_555 1_555
O9_5 Li10_3 1_555 1_555
O10_5 Li11_2 1_555 1_555
O11_5 Li5 1_555 1_555
N3_5 C5_5 1_555 1_555
N4_5 C39_5 1_555 1_555
Li7_2 O13_3 1_555 1_555
Li8_3 O18 1_555 1_555
O13_4 Li2_2 1_555 1_555
O18_4 Li2_2 1_555 1_555
C6_5 N3_5 1_555 1_555
C12_5 C15_5 1_555 1_555
C13_5 C14_5 1_555 1_555
C13_5 C16_5 1_555 1_555
C20_5 N1_5 1_555 1_555
C20_5 C21_5 1_555 1_555
C26_5 C27_5 1_555 1_555
C33_5 C34_5 1_555 1_555
C33_5 C35_5 1_555 1_555
C36_5 C38_5 1_555 1_555
C37_5 C38_5 1_555 1_555
C43_5 N4_5 1_555 1_555
Li2_2 O5_5 1_555 1_555
O10_5 H41_5 1_555 1_555
O10_5 H42_5 1_555 1_555
O9_5 H43_5 1_555 1_555
O9_5 H44_5 1_555 1_555
O11_5 H45_5 1_555 1_555
O11_5 H46_5 1_555 1_555
C1_6 C2_6 1_555 1_555
C2_6 C3_6 1_555 1_555
C3_6 H1_6 1_555 1_555
C4_6 C3_6 1_555 1_555
H2_6 C4_6 1_555 1_555
C5_6 C4_6 1_555 1_555
C7_6 C5_6 1_555 1_555
C9_6 C7_6 1_555 1_555
H6_6 C9_6 1_555 1_555
H7_6 C9_6 1_555 1_555
C12_6 C9_6 1_555 1_555
H10_6 C12_6 1_555 1_555
C14_6 C12_6 1_555 1_555
H12_6 C14_6 1_555 1_555
H13_6 C14_6 1_555 1_555
H14_6 C15_6 1_555 1_555
H15_6 C15_6 1_555 1_555
H18_6 C18_6 1_555 1_555
C19_6 C18_6 1_555 1_555
H19_6 C19_6 1_555 1_555
Li5_2 O1_6 1_555 1_555
O1_6 C1_6 1_555 1_555
O10_6 Li11 1_555 1_555
C12_6 C15_6 1_555 1_555
O10_6 H41_6 1_555 1_555
O10_6 H42_6 1_555 1_555
H3_6 C6_6 1_555 1_555
H4_6 C8_6 1_555 1_555
H5_6 C8_6 1_555 1_555
H9_6 C10_6 1_555 1_555
C11_6 C10_6 1_555 1_555
C13_6 C8_6 1_555 1_555
H11_6 C13_6 1_555 1_555
C16_6 C11_6 1_555 1_555
H16_6 C16_6 1_555 1_555
H17_6 C16_6 1_555 1_555
C17_6 C11_6 1_555 1_555
C20_6 H20_6 1_555 1_555
N1_6 C17_6 1_555 1_555
C22_6 C21_6 1_555 1_555
C23_6 C25_6 1_555 1_555
C24_6 N2_6 1_555 1_555
C25_6 C26_6 1_555 1_555
N2_6 C28_6 1_555 1_555
C26_6 H21_6 1_555 1_555
C27_6 C24_6 1_555 1_555
H22_6 C27_6 1_555 1_555
C28_6 C25_6 1_555 1_555
H23_6 C28_6 1_555 1_555
C29_6 C24_6 1_555 1_555
C30_6 C29_6 1_555 1_555
H24_6 C30_6 1_555 1_555
H25_6 C30_6 1_555 1_555
C31_6 C29_6 1_555 1_555
H26_6 C31_6 1_555 1_555
H27_6 C31_6 1_555 1_555
C32_6 C29_6 1_555 1_555
H28_6 C32_6 1_555 1_555
H29_6 C32_6 1_555 1_555
C33_6 H30_6 1_555 1_555
H31_6 C33_6 1_555 1_555
C34_6 C32_6 1_555 1_555
H32_6 C34_6 1_555 1_555
C35_6 C31_6 1_555 1_555
H33_6 C35_6 1_555 1_555
C36_6 C34_6 1_555 1_555
H34_6 C36_6 1_555 1_555
H35_6 C36_6 1_555 1_555
C37_6 C35_6 1_555 1_555
H36_6 C37_6 1_555 1_555
H37_6 C37_6 1_555 1_555
C38_6 C30_6 1_555 1_555
C39_6 C38_6 1_555 1_555
C40_6 C39_6 1_555 1_555
H38_6 C40_6 1_555 1_555
C41_6 C40_6 1_555 1_555
H39_6 C41_6 1_555 1_555
C42_6 C41_6 1_555 1_555
C43_6 C42_6 1_555 1_555
H40_6 C43_6 1_555 1_555
C44_6 C42_6 1_555 1_555
Li7_2 O3_6 1_555 1_555
Li10_4 O4_6 1_555 1_555
O3_6 C22_6 1_555 1_555
O4_6 C22_6 1_555 1_555
O5_6 C23_6 1_555 1_555
O14_4 C23_6 1_555 1_555
O16 C44_6 1_555 1_555
O18_2 C44_6 1_555 1_555
O9_6 Li10_4 1_555 1_555
N4_6 C39_6 1_555 1_555
Li8_4 O18_2 1_555 1_555
O18_3 Li7_2 1_555 1_555
C6_6 N3_6 1_555 1_555
C13_6 C16_6 1_555 1_555
C20_6 N1_6 1_555 1_555
C20_6 C21_6 1_555 1_555
C26_6 C27_6 1_555 1_555
C33_6 C34_6 1_555 1_555
C33_6 C35_6 1_555 1_555
C36_6 C38_6 1_555 1_555
C37_6 C38_6 1_555 1_555
C43_6 N4_6 1_555 1_555
Li7_2 O5_6 1_555 1_555
O9_6 H43_6 1_555 1_555
O9_6 H44_6 1_555 1_555
O11_6 H45_6 1_555 1_555
O11_6 H46_6 1_555 1_555
C1_7 C2_7 1_555 1_555
C2_7 C3_7 1_555 1_555
C3_7 H1_7 1_555 1_555
C4_7 C3_7 1_555 1_555
H2_7 C4_7 1_555 1_555
C5_7 C4_7 1_555 1_555
C6_7 C2_7 1_555 1_555
H3_7 C6_7 1_555 1_555
C7_7 C5_7 1_555 1_555
C8_7 C7_7 1_555 1_555
H4_7 C8_7 1_555 1_555
H5_7 C8_7 1_555 1_555
C9_7 C7_7 1_555 1_555
H6_7 C9_7 1_555 1_555
H7_7 C9_7 1_555 1_555
C10_7 C7_7 1_555 1_555
H9_7 C10_7 1_555 1_555
C13_7 C8_7 1_555 1_555
H11_7 C13_7 1_555 1_555
Li6 O1_7 1_555 1_555
O1_7 C1_7 1_555 1_555
O13 C1_7 1_555 1_555
O11_7 Li6 1_555 1_555
N3_7 C5_7 1_555 1_555
Li8_3 O13 1_555 1_555
C6_7 N3_7 1_555 1_555
O11_7 H45_7 1_555 1_555
O11_7 H46_7 1_555 1_555
C33_7 H30_7 1_555 1_555
H33_7 C35_7 1_555 1_555
H34_7 C36_7 1_555 1_555
H35_7 C36_7 1_555 1_555
C37_7 C35_7 1_555 1_555
H36_7 C37_7 1_555 1_555
H37_7 C37_7 1_555 1_555
C39_7 C38_7 1_555 1_555
C40_7 C39_7 1_555 1_555
H38_7 C40_7 1_555 1_555
C41_7 C40_7 1_555 1_555
H39_7 C41_7 1_555 1_555
C42_7 C41_7 1_555 1_555
C43_7 C42_7 1_555 1_555
H40_7 C43_7 1_555 1_555
C44_7 C42_7 1_555 1_555
O16_4 C44_7 1_555 1_555
O18_3 C44_7 1_555 1_555
N4_7 C39_7 1_555 1_555
C33_7 C35_7 1_555 1_555
C36_7 C38_7 1_555 1_555
C37_7 C38_7 1_555 1_555
C43_7 N4_7 1_555 1_555
H10_7 C12_7 1_555 1_555
C14_7 C12_7 1_555 1_555
H12_7 C14_7 1_555 1_555
C15_7 C11_7 1_555 1_555
H14_7 C15_7 1_555 1_555
H15_7 C15_7 1_555 1_555
C16_7 C11_7 1_555 1_555
H16_7 C16_7 1_555 1_555
H17_7 C16_7 1_555 1_555
C17_7 C11_7 1_555 1_555
C18_7 C17_7 1_555 1_555
H18_7 C18_7 1_555 1_555
C19_7 C18_7 1_555 1_555
H19_7 C19_7 1_555 1_555
C20_7 H20_7 1_555 1_555
N1_7 C17_7 1_555 1_555
C21_7 C19_7 1_555 1_555
C22_7 C21_7 1_555 1_555
C23_7 C25_7 1_555 1_555
C24_7 N2_7 1_555 1_555
C25_7 C26_7 1_555 1_555
N2_7 C28_7 1_555 1_555
C26_7 H21_7 1_555 1_555
C27_7 C24_7 1_555 1_555
H22_7 C27_7 1_555 1_555
C28_7 C25_7 1_555 1_555
H23_7 C28_7 1_555 1_555
C29_7 C24_7 1_555 1_555
C30_7 C29_7 1_555 1_555
H24_7 C30_7 1_555 1_555
C31_7 C29_7 1_555 1_555
H26_7 C31_7 1_555 1_555
H27_7 C31_7 1_555 1_555
C32_7 C29_7 1_555 1_555
H28_7 C32_7 1_555 1_555
H29_7 C32_7 1_555 1_555
C34_7 C32_7 1_555 1_555
H32_7 C34_7 1_555 1_555
Li8_4 O3_7 1_555 1_555
Li10 O4_7 1_555 1_555
Li12 O4_7 1_555 1_555
O3_7 C22_7 1_555 1_555
O4_7 C22_7 1_555 1_555
O5_7 C23_7 1_555 1_555
O14 C23_7 1_555 1_555
O9_7 Li10 1_555 1_555
O10_7 Li12 1_555 1_555
O13_2 Li8_4 1_555 1_555
C12_7 C15_7 1_555 1_555
C20_7 N1_7 1_555 1_555
C20_7 C21_7 1_555 1_555
C26_7 C27_7 1_555 1_555
Li8_4 O5_7 1_555 1_555
O10_7 H41_7 1_555 1_555
O10_7 H42_7 1_555 1_555
O9_7 H43_7 1_555 1_555
O9_7 H44_7 1_555 1_555
C33_8 H30_8 1_555 1_555
H33_8 C35_8 1_555 1_555
H34_8 C36_8 1_555 1_555
H35_8 C36_8 1_555 1_555
C37_8 C35_8 1_555 1_555
H36_8 C37_8 1_555 1_555
H37_8 C37_8 1_555 1_555
C39_8 C38_8 1_555 1_555
C40_8 C39_8 1_555 1_555
H38_8 C40_8 1_555 1_555
C41_8 C40_8 1_555 1_555
H39_8 C41_8 1_555 1_555
C42_8 C41_8 1_555 1_555
C43_8 C42_8 1_555 1_555
H40_8 C43_8 1_555 1_555
C44_8 C42_8 1_555 1_555
O16_3 C44_8 1_555 1_555
O18_4 C44_8 1_555 1_555
N4_8 C39_8 1_555 1_555
C33_8 C35_8 1_555 1_555
C36_8 C38_8 1_555 1_555
C37_8 C38_8 1_555 1_555
C43_8 N4_8 1_555 1_555
H10_8 C12_8 1_555 1_555
C14_8 C12_8 1_555 1_555
H12_8 C14_8 1_555 1_555
H14_8 C15_8 1_555 1_555
H15_8 C15_8 1_555 1_555
H18_8 C18_8 1_555 1_555
C19_8 C18_8 1_555 1_555
H19_8 C19_8 1_555 1_555
O10_8 Li12_2 1_555 1_555
C12_8 C15_8 1_555 1_555
O10_8 H41_8 1_555 1_555
O10_8 H42_8 1_555 1_555
C16_8 C11_8 1_555 1_555
H16_8 C16_8 1_555 1_555
H17_8 C16_8 1_555 1_555
C17_8 C11_8 1_555 1_555
C20_8 H20_8 1_555 1_555
N1_8 C17_8 1_555 1_555
C22_8 C21_8 1_555 1_555
C23_8 C25_8 1_555 1_555
C24_8 N2_8 1_555 1_555
C25_8 C26_8 1_555 1_555
N2_8 C28_8 1_555 1_555
C26_8 H21_8 1_555 1_555
C27_8 C24_8 1_555 1_555
H22_8 C27_8 1_555 1_555
C28_8 C25_8 1_555 1_555
H23_8 C28_8 1_555 1_555
C29_8 C24_8 1_555 1_555
C30_8 C29_8 1_555 1_555
H24_8 C30_8 1_555 1_555
C31_8 C29_8 1_555 1_555
H26_8 C31_8 1_555 1_555
H27_8 C31_8 1_555 1_555
C32_8 C29_8 1_555 1_555
H28_8 C32_8 1_555 1_555
H29_8 C32_8 1_555 1_555
C34_8 C32_8 1_555 1_555
H32_8 C34_8 1_555 1_555
Li8_3 O3_8 1_555 1_555
Li10_2 O4_8 1_555 1_555
O3_8 C22_8 1_555 1_555
O4_8 C22_8 1_555 1_555
O5_8 C23_8 1_555 1_555
O14_2 C23_8 1_555 1_555
O9_8 Li10_2 1_555 1_555
C20_8 N1_8 1_555 1_555
C20_8 C21_8 1_555 1_555
C26_8 C27_8 1_555 1_555
Li8_3 O5_8 1_555 1_555
O9_8 H43_8 1_555 1_555
O9_8 H44_8 1_555 1_555
C1_8 C2_8 1_555 1_555
C2_8 C3_8 1_555 1_555
C3_8 H1_8 1_555 1_555
C4_8 C3_8 1_555 1_555
H2_8 C4_8 1_555 1_555
C5_8 C4_8 1_555 1_555
C7_8 C5_8 1_555 1_555
C9_8 C7_8 1_555 1_555
H6_8 C9_8 1_555 1_555
H7_8 C9_8 1_555 1_555
Li6_2 O1_8 1_555 1_555
O1_8 C1_8 1_555 1_555
H3_8 C6_8 1_555 1_555
H4_8 C8_8 1_555 1_555
H5_8 C8_8 1_555 1_555
H9_8 C10_8 1_555 1_555
C13_8 C8_8 1_555 1_555
H11_8 C13_8 1_555 1_555
C6_8 N3_8 1_555 1_555
O11_8 H45_8 1_555 1_555
O11_8 H46_8 1_555 1_555

#END
