
###############################################################################
#
# This file contains modified crystal structure data generated from the
# MOF subset of the Cambridge Structural Database (CSD) v543 
# hosted by the Cambridge Crystallographic Data Centre (CCDC).
#
# This work is licensed under the Creative Commons
# Attribution-NonCommercial-ShareAlike 4.0 International License.
# To view a copy of this license, visit
# http://creativecommons.org/licenses/by-nc-sa/4.0/
# or send a letter to
# Creative Commons, PO Box 1866, Mountain View, CA 94042, USA.
#
# CIF created using the CSD Python API on 29 September 2022
# The structure has been converted into the P1 space group
# The structure has a 3D framework
# The original CSD entry QUZPIN is in the monoclinic crystal system
# The framework has been calculated to contain at least 10.0% void space
# The void calculation uses a probe of radius 1.32A, grid spacing 0.4
#
###############################################################################

data_QUZPIN
_chemical_formula_moiety         '(C320 H224 Cu12 N48 O80)n'
_symmetry_cell_setting           triclinic
_symmetry_space_group_name_H-M   'P 1'
_symmetry_Int_Tables_number      1
_space_group_name_Hall           'P 1'
loop_
_symmetry_equiv_pos_site_id
_symmetry_equiv_pos_as_xyz
1 x,y,z
_cell_length_a                   37.134(3)
_cell_length_b                   27.084(3)
_cell_length_c                   24.826(4)
_cell_angle_alpha                90
_cell_angle_beta                 131.120(2)
_cell_angle_gamma                90
_cell_volume                     18809.6
loop_
_atom_site_label
_atom_site_type_symbol
_atom_site_fract_x
_atom_site_fract_y
_atom_site_fract_z
C1 C 0.37249(11) 0.17961(12) 0.57279(16)
C2 C 0.38232(11) 0.13690(12) 0.61823(17)
C3 C 0.34579(13) 0.10914(15) 0.6051(2)
H1 H 0.3144 0.1187 0.5679
C4 C 0.35385(14) 0.06863(16) 0.6441(2)
H2 H 0.3284 0.0505 0.6328
C5 C 0.40124(15) 0.05468(18) 0.7018(3)
C6 C 0.43790(15) 0.08270(19) 0.7162(3)
H3 H 0.4695 0.0740 0.7542
C7 C 0.42847(14) 0.12293(16) 0.6755(2)
H4 H 0.4538 0.1413 0.6866
C16 C 0.35142(12) 0.31632(13) 0.41354(18)
C17 C 0.34245(14) 0.35453(15) 0.3626(2)
C18 C 0.29871(17) 0.3592(2) 0.2964(3)
H9 H 0.2742 0.3385 0.2837
C19 C 0.28925(19) 0.3932(2) 0.2477(3)
H10 H 0.2597 0.3935 0.2014
C20 C 0.32469(19) 0.4276(2) 0.2684(3)
C21 C 0.37041(18) 0.4225(2) 0.3358(3)
H11 H 0.3949 0.4437 0.3496
C22 C 0.37854(16) 0.38685(17) 0.3804(2)
H12 H 0.4092 0.3834 0.4246
C23 C 0.3383(2) 0.5007(2) 0.2224(3)
C24 C 0.32233(17) 0.5734(2) 0.1450(3)
C25 C 0.28523(15) 0.60252(18) 0.0896(2)
H13 H 0.2542 0.5974 0.0715
C26 C 0.29436(13) 0.63862(16) 0.0619(2)
H14 H 0.2693 0.6580 0.0247
C27 C 0.34037(12) 0.64724(13) 0.08774(18)
C28 C 0.37705(14) 0.61898(15) 0.1455(2)
H15 H 0.4084 0.6255 0.1660
C29 C 0.36861(16) 0.58190(19) 0.1733(3)
H16 H 0.3937 0.5626 0.2107
C30 C 0.34939(11) 0.68623(12) 0.05602(16)
C31 C 0.50781(14) 0.2628(2) 0.6839(2)
H17 H 0.4904 0.2572 0.6981
C32 C 0.55719(14) 0.2637(2) 0.7366(2)
H18 H 0.5719 0.2588 0.7842
C33 C 0.58378(11) 0.27176(14) 0.71818(17)
C34 C 0.55930(14) 0.2807(2) 0.6476(2)
H19 H 0.5756 0.2875 0.6317
C35 C 0.50932(14) 0.2793(2) 0.5994(2)
H20 H 0.4932 0.2863 0.5516
C36 C 0.71051(12) 0.24437(15) 0.8813(2)
H21 H 0.7262 0.2261 0.9231
C37 C 0.66129(12) 0.24457(16) 0.8340(2)
H22 H 0.6448 0.2270 0.8440
C38 C 0.63711(11) 0.27113(14) 0.77189(17)
C39 C 0.66489(13) 0.2977(2) 0.7631(2)
H23 H 0.6504 0.3176 0.7231
C40 C 0.71340(12) 0.29455(18) 0.8130(2)
H24 H 0.7310 0.3123 0.8052
Cu1 Cu 0.40697(2) 0.25981(2) 0.53914(2)
N1 N 0.41424(14) 0.01386(17) 0.7462(2)
H25 H 0.4441 0.0065 0.7755
N3 N 0.30987(18) 0.4661(2) 0.2197(3)
H27 H 0.2796 0.4683 0.1841
N4 N 0.30935(16) 0.5348(2) 0.1676(3)
H28 H 0.2792 0.5320 0.1441
N5 N 0.48415(9) 0.26909(11) 0.61658(14)
N6 N 0.73700(9) 0.26792(10) 0.87192(14)
O1 O 0.40855(8) 0.20441(8) 0.59258(12)
O2 O 0.33022(7) 0.18860(8) 0.51804(12)
O6 O 0.39285(8) 0.31205(9) 0.47304(12)
O7 O 0.31609(8) 0.29105(9) 0.39322(12)
O8 O 0.37888(14) 0.50209(16) 0.2629(2)
O9 O 0.39221(7) 0.69425(9) 0.08384(11)
O10 O 0.31361(7) 0.70920(8) 0.00303(11)
Cu4 Cu 0.40697(2) 0.74019(2) 0.03914(2)
Cu6 Cu 0.81428(2) 0.26083(2) 0.94751(2)
Cu7 Cu 0.31428(2) 0.23917(2) 0.44751(2)
O11 O 0.33022(7) 0.81140(8) 0.01804(12)
O13 O 0.40558(8) 0.21179(9) 0.47793(12)
O15 O 0.39221(7) 0.30575(9) 0.58384(11)
Cu2 Cu 0.31428(2) 0.76083(2) 0.94751(2)
N7 N 0.23700(9) 0.76792(10) 0.87192(14)
O12 O 0.32850(8) 0.80972(9) 0.90481(12)
O14 O 0.31609(8) 0.70895(9) 0.89322(12)
C8 C 0.38553(19) 0.9840(2) 0.7492(3)
C9 C 0.39730(17) 0.91451(18) 0.8244(3)
C10 C 0.35309(16) 0.91008(18) 0.8027(3)
H5 H 0.3283 0.9294 0.7649
C11 C 0.34410(15) 0.87783(16) 0.8351(2)
H6 H 0.3134 0.8763 0.8193
C12 C 0.37926(13) 0.84758(14) 0.8906(2)
C13 C 0.42300(16) 0.85125(19) 0.9122(3)
H7 H 0.4476 0.8319 0.9501
C14 C 0.43234(19) 0.8839(2) 0.8787(3)
H8 H 0.4627 0.8848 0.8934
C15 C 0.37045(12) 0.81262(12) 0.92701(17)
N2 N 0.41221(15) 0.94702(17) 0.7991(3)
H26 H 0.4411 0.9437 0.8164
O3 O 0.34428(13) 0.98972(15) 0.7141(2)
O5 O 0.40558(8) 0.78821(9) 0.97793(12)
C31_2 C 0.00781(14) 0.7628(2) 0.6839(2)
C32_2 C 0.05719(14) 0.7637(2) 0.7366(2)
H18_2 H 0.0719 0.7588 0.7842
C33_2 C 0.08378(11) 0.77176(14) 0.71818(17)
C34_2 C 0.05930(14) 0.7807(2) 0.6476(2)
H19_2 H 0.0756 0.7875 0.6317
C35_2 C 0.00932(14) 0.7793(2) 0.5994(2)
C36_2 C 0.21051(12) 0.74437(15) 0.8813(2)
H21_2 H 0.2262 0.7261 0.9231
C37_2 C 0.16129(12) 0.74457(16) 0.8340(2)
H22_2 H 0.1448 0.7270 0.8440
C38_2 C 0.13711(11) 0.77113(14) 0.77189(17)
C39_2 C 0.16489(13) 0.7977(2) 0.7631(2)
H23_2 H 0.1504 0.8176 0.7231
C40_2 C 0.21340(12) 0.79455(18) 0.8130(2)
H24_2 H 0.2310 0.8123 0.8052
C23_2 C 0.8383(2) 0.0007(2) 0.2224(3)
C24_2 C 0.82233(17) 0.0734(2) 0.1450(3)
C25_2 C 0.78523(15) 0.10252(18) 0.0896(2)
H13_2 H 0.7542 0.0974 0.0715
C26_2 C 0.79436(13) 0.13862(16) 0.0619(2)
H14_2 H 0.7693 0.1580 0.0247
C27_2 C 0.84037(12) 0.14724(13) 0.08774(18)
C28_2 C 0.87705(14) 0.11898(15) 0.1455(2)
H15_2 H 0.9084 0.1255 0.1660
C29_2 C 0.86861(16) 0.08190(19) 0.1733(3)
H16_2 H 0.8937 0.0626 0.2107
C30_2 C 0.84939(11) 0.18623(12) 0.05602(16)
N4_2 N 0.80935(16) 0.0348(2) 0.1676(3)
H28_2 H 0.7792 0.0320 0.1441
O8_2 O 0.87888(14) 0.00209(16) 0.2629(2)
O9_2 O 0.89221(7) 0.19425(9) 0.08384(11)
O10_2 O 0.81361(7) 0.20920(8) 0.00303(11)
Cu4_2 Cu 0.90697(2) 0.24019(2) 0.03914(2)
O11_2 O 0.83022(7) 0.31140(8) 0.01804(12)
O12_2 O 0.82850(8) 0.30972(9) 0.90481(12)
O14_2 O 0.81609(8) 0.20895(9) 0.89322(12)
C1_2 C 0.87249(11) 0.67961(12) 0.57279(16)
C2_2 C 0.88232(11) 0.63690(12) 0.61823(17)
C3_2 C 0.84579(13) 0.60914(15) 0.6051(2)
H1_2 H 0.8144 0.6187 0.5679
C4_2 C 0.85385(14) 0.56863(16) 0.6441(2)
H2_2 H 0.8284 0.5505 0.6328
C5_2 C 0.90124(15) 0.55468(18) 0.7018(3)
C6_2 C 0.93790(15) 0.58270(19) 0.7162(3)
H3_2 H 0.9695 0.5740 0.7542
C7_2 C 0.92847(14) 0.62293(16) 0.6755(2)
H4_2 H 0.9538 0.6413 0.6866
C8_2 C 0.88553(19) 0.4840(2) 0.7492(3)
C9_2 C 0.89730(17) 0.41451(18) 0.8244(3)
C10_2 C 0.85309(16) 0.41008(18) 0.8027(3)
H5_2 H 0.8283 0.4294 0.7649
C11_2 C 0.84410(15) 0.37783(16) 0.8351(2)
H6_2 H 0.8134 0.3763 0.8193
C12_2 C 0.87926(13) 0.34758(14) 0.8906(2)
C13_2 C 0.92300(16) 0.35125(19) 0.9122(3)
H7_2 H 0.9476 0.3319 0.9501
C14_2 C 0.93234(19) 0.3839(2) 0.8787(3)
H8_2 H 0.9627 0.3848 0.8934
C15_2 C 0.87045(12) 0.31262(12) 0.92701(17)
C16_2 C 0.85142(12) 0.81632(13) 0.41354(18)
C17_2 C 0.84245(14) 0.85453(15) 0.3626(2)
C18_2 C 0.79871(17) 0.8592(2) 0.2964(3)
H9_2 H 0.7742 0.8385 0.2837
C19_2 C 0.78925(19) 0.8932(2) 0.2477(3)
H10_2 H 0.7597 0.8935 0.2014
C20_2 C 0.82469(19) 0.9276(2) 0.2684(3)
C21_2 C 0.87041(18) 0.9225(2) 0.3358(3)
H11_2 H 0.8949 0.9437 0.3496
C22_2 C 0.87854(16) 0.88685(17) 0.3804(2)
H12_2 H 0.9092 0.8834 0.4246
H17_2 H 0.9904 0.7572 0.6981
H20_2 H 0.9932 0.7863 0.5516
Cu1_2 Cu 0.90697(2) 0.75981(2) 0.53914(2)
N1_2 N 0.91424(14) 0.51386(17) 0.7462(2)
H25_2 H 0.9441 0.5065 0.7755
N2_2 N 0.91221(15) 0.44702(17) 0.7991(3)
H26_2 H 0.9411 0.4437 0.8164
N3_2 N 0.80987(18) 0.9661(2) 0.2197(3)
H27_2 H 0.7796 0.9683 0.1841
N5_2 N 0.98415(9) 0.76909(11) 0.61658(14)
O1_2 O 0.90855(8) 0.70441(8) 0.59258(12)
O2_2 O 0.83022(7) 0.68860(8) 0.51804(12)
O3_2 O 0.84428(13) 0.48972(15) 0.7141(2)
O5_2 O 0.90558(8) 0.28821(9) 0.97793(12)
O6_2 O 0.89285(8) 0.81205(9) 0.47304(12)
O7_2 O 0.81609(8) 0.79105(9) 0.39322(12)
Cu7_2 Cu 0.81428(2) 0.73917(2) 0.44751(2)
O13_2 O 0.90558(8) 0.71179(9) 0.47793(12)
O15_2 O 0.89221(7) 0.80575(9) 0.58384(11)
C8_3 C 0.38553(19) 0.0160(2) 0.2492(3)
C9_3 C 0.39730(17) 0.08549(18) 0.3244(3)
C10_3 C 0.35309(16) 0.08992(18) 0.3027(3)
H5_3 H 0.3283 0.0706 0.2649
C11_3 C 0.34410(15) 0.12217(16) 0.3351(2)
H6_3 H 0.3134 0.1237 0.3193
C12_3 C 0.37926(13) 0.15242(14) 0.3906(2)
C13_3 C 0.42300(16) 0.14875(19) 0.4122(3)
H7_3 H 0.4476 0.1681 0.4501
C14_3 C 0.43234(19) 0.1161(2) 0.3787(3)
H8_3 H 0.4627 0.1152 0.3934
C15_3 C 0.37045(12) 0.18738(12) 0.42701(17)
N2_3 N 0.41221(15) 0.05298(17) 0.2991(3)
H26_3 H 0.4411 0.0563 0.3164
O3_3 O 0.34428(13) 0.01028(15) 0.2141(2)
O4 O 0.32850(8) 0.19028(9) 0.40481(12)
C1_3 C 0.37249(11) 0.82039(12) 0.07279(16)
C2_3 C 0.38232(11) 0.86310(12) 0.11823(17)
C3_3 C 0.34579(13) 0.89086(15) 0.1051(2)
H1_3 H 0.3144 0.8813 0.0679
C4_3 C 0.35385(14) 0.93137(16) 0.1441(2)
H2_3 H 0.3284 0.9495 0.1328
C5_3 C 0.40124(15) 0.94532(18) 0.2018(3)
C6_3 C 0.43790(15) 0.91730(19) 0.2162(3)
H3_3 H 0.4695 0.9260 0.2542
C7_3 C 0.42847(14) 0.87707(16) 0.1755(2)
H4_3 H 0.4538 0.8587 0.1866
C31_3 C 0.50781(14) 0.7372(2) 0.1839(2)
H17_3 H 0.4904 0.7428 0.1981
C32_3 C 0.55719(14) 0.7363(2) 0.2366(2)
H18_3 H 0.5719 0.7412 0.2842
C33_3 C 0.58378(11) 0.72824(14) 0.21818(17)
C34_3 C 0.55930(14) 0.7193(2) 0.1476(2)
H19_3 H 0.5756 0.7125 0.1317
C35_3 C 0.50932(14) 0.7207(2) 0.0994(2)
H20_3 H 0.4932 0.7137 0.0516
C36_3 C 0.71051(12) 0.75563(15) 0.3813(2)
H21_3 H 0.7262 0.7739 0.4231
C37_3 C 0.66129(12) 0.75543(16) 0.3340(2)
H22_3 H 0.6448 0.7730 0.3440
C38_3 C 0.63711(11) 0.72887(14) 0.27189(17)
C39_3 C 0.66489(13) 0.7023(2) 0.2631(2)
H23_3 H 0.6504 0.6824 0.2231
C40_3 C 0.71340(12) 0.70545(18) 0.3130(2)
H24_3 H 0.7310 0.6877 0.3052
N1_3 N 0.41424(14) 0.98614(17) 0.2462(2)
H25_3 H 0.4441 0.9935 0.2755
N5_3 N 0.48415(9) 0.73091(11) 0.11658(14)
N6_2 N 0.73700(9) 0.73208(10) 0.37192(14)
O1_3 O 0.40855(8) 0.79559(8) 0.09258(12)
C16_3 C 0.35142(12) 0.68368(13) 0.91354(18)
C17_3 C 0.34245(14) 0.64547(15) 0.8626(2)
C18_3 C 0.29871(17) 0.6408(2) 0.7964(3)
H9_3 H 0.2742 0.6615 0.7837
C19_3 C 0.28925(19) 0.6068(2) 0.7477(3)
H10_3 H 0.2597 0.6065 0.7014
C20_3 C 0.32469(19) 0.5724(2) 0.7684(3)
C21_3 C 0.37041(18) 0.5775(2) 0.8358(3)
H11_3 H 0.3949 0.5563 0.8496
C22_3 C 0.37854(16) 0.61315(17) 0.8804(2)
H12_3 H 0.4092 0.6166 0.9246
C23_3 C 0.3383(2) 0.4993(2) 0.7224(3)
C24_3 C 0.32233(17) 0.4266(2) 0.6450(3)
C25_3 C 0.28523(15) 0.39748(18) 0.5896(2)
H13_3 H 0.2542 0.4026 0.5715
C26_3 C 0.29436(13) 0.36138(16) 0.5619(2)
H14_3 H 0.2693 0.3420 0.5247
C27_3 C 0.34037(12) 0.35276(13) 0.58774(18)
C28_3 C 0.37705(14) 0.38102(15) 0.6455(2)
H15_3 H 0.4084 0.3745 0.6660
C29_3 C 0.36861(16) 0.41810(19) 0.6733(3)
H16_3 H 0.3937 0.4374 0.7107
C30_3 C 0.34939(11) 0.31377(12) 0.55602(16)
N3_3 N 0.30987(18) 0.5339(2) 0.7197(3)
H27_3 H 0.2796 0.5317 0.6841
N4_3 N 0.30935(16) 0.4652(2) 0.6676(3)
H28_3 H 0.2792 0.4680 0.6441
O6_3 O 0.39285(8) 0.68795(9) 0.97304(12)
O8_3 O 0.37888(14) 0.49791(16) 0.7629(2)
O10_3 O 0.31361(7) 0.29080(8) 0.50303(11)
N7_2 N 0.23700(9) 0.23208(10) 0.37192(14)
C31_4 C 0.00781(14) 0.2372(2) 0.1839(2)
C32_4 C 0.05719(14) 0.2363(2) 0.2366(2)
H18_4 H 0.0719 0.2412 0.2842
C33_4 C 0.08378(11) 0.22824(14) 0.21818(17)
C34_4 C 0.05930(14) 0.2193(2) 0.1476(2)
H19_4 H 0.0756 0.2125 0.1317
C35_4 C 0.00932(14) 0.2207(2) 0.0994(2)
C36_4 C 0.21051(12) 0.25563(15) 0.3813(2)
H21_4 H 0.2262 0.2739 0.4231
C37_4 C 0.16129(12) 0.25543(16) 0.3340(2)
H22_4 H 0.1448 0.2730 0.3440
C38_4 C 0.13711(11) 0.22887(14) 0.27189(17)
C39_4 C 0.16489(13) 0.2023(2) 0.2631(2)
H23_4 H 0.1504 0.1824 0.2231
C40_4 C 0.21340(12) 0.20545(18) 0.3130(2)
H24_4 H 0.2310 0.1877 0.3052
C1_4 C 0.87249(11) 0.32039(12) 0.07279(16)
C2_4 C 0.88232(11) 0.36310(12) 0.11823(17)
C3_4 C 0.84579(13) 0.39086(15) 0.1051(2)
H1_4 H 0.8144 0.3813 0.0679
C4_4 C 0.85385(14) 0.43137(16) 0.1441(2)
H2_4 H 0.8284 0.4495 0.1328
C5_4 C 0.90124(15) 0.44532(18) 0.2018(3)
C6_4 C 0.93790(15) 0.41730(19) 0.2162(3)
H3_4 H 0.9695 0.4260 0.2542
C7_4 C 0.92847(14) 0.37707(16) 0.1755(2)
H4_4 H 0.9538 0.3587 0.1866
C8_4 C 0.88553(19) 0.5160(2) 0.2492(3)
C9_4 C 0.89730(17) 0.58549(18) 0.3244(3)
C10_4 C 0.85309(16) 0.58992(18) 0.3027(3)
H5_4 H 0.8283 0.5706 0.2649
C11_4 C 0.84410(15) 0.62217(16) 0.3351(2)
H6_4 H 0.8134 0.6237 0.3193
C12_4 C 0.87926(13) 0.65242(14) 0.3906(2)
C13_4 C 0.92300(16) 0.64875(19) 0.4122(3)
H7_4 H 0.9476 0.6681 0.4501
C14_4 C 0.93234(19) 0.6161(2) 0.3787(3)
H8_4 H 0.9627 0.6152 0.3934
C15_4 C 0.87045(12) 0.68738(12) 0.42701(17)
H17_4 H 0.9904 0.2428 0.1981
H20_4 H 0.9932 0.2137 0.0516
N1_4 N 0.91424(14) 0.48614(17) 0.2462(2)
H25_4 H 0.9441 0.4935 0.2755
N2_4 N 0.91221(15) 0.55298(17) 0.2991(3)
H26_4 H 0.9411 0.5563 0.3164
N5_4 N 0.98415(9) 0.23091(11) 0.11658(14)
O1_4 O 0.90855(8) 0.29559(8) 0.09258(12)
O3_4 O 0.84428(13) 0.51028(15) 0.2141(2)
O4_2 O 0.82850(8) 0.69028(9) 0.40481(12)
C16_4 C 0.85142(12) 0.18368(13) 0.91354(18)
C17_4 C 0.84245(14) 0.14547(15) 0.8626(2)
C18_4 C 0.79871(17) 0.1408(2) 0.7964(3)
H9_4 H 0.7742 0.1615 0.7837
C19_4 C 0.78925(19) 0.1068(2) 0.7477(3)
H10_4 H 0.7597 0.1065 0.7014
C20_4 C 0.82469(19) 0.0724(2) 0.7684(3)
C21_4 C 0.87041(18) 0.0775(2) 0.8358(3)
H11_4 H 0.8949 0.0563 0.8496
C22_4 C 0.87854(16) 0.11315(17) 0.8804(2)
H12_4 H 0.9092 0.1166 0.9246
N3_4 N 0.80987(18) 0.0339(2) 0.7197(3)
H27_4 H 0.7796 0.0317 0.6841
O6_4 O 0.89285(8) 0.18795(9) 0.97304(12)
C23_4 C 0.8383(2) 0.9993(2) 0.7224(3)
C24_4 C 0.82233(17) 0.9266(2) 0.6450(3)
C25_4 C 0.78523(15) 0.89748(18) 0.5896(2)
H13_4 H 0.7542 0.9026 0.5715
C26_4 C 0.79436(13) 0.86138(16) 0.5619(2)
H14_4 H 0.7693 0.8420 0.5247
C27_4 C 0.84037(12) 0.85276(13) 0.58774(18)
C28_4 C 0.87705(14) 0.88102(15) 0.6455(2)
H15_4 H 0.9084 0.8745 0.6660
C29_4 C 0.86861(16) 0.91810(19) 0.6733(3)
H16_4 H 0.8937 0.9374 0.7107
C30_4 C 0.84939(11) 0.81377(12) 0.55602(16)
N4_4 N 0.80935(16) 0.9652(2) 0.6676(3)
H28_4 H 0.7792 0.9680 0.6441
O8_4 O 0.87888(14) 0.99791(16) 0.7629(2)
O10_4 O 0.81361(7) 0.79080(8) 0.50303(11)
C16_5 C 0.64858(12) 0.31632(13) 0.08646(18)
C17_5 C 0.65755(14) 0.35453(15) 0.1374(2)
C18_5 C 0.70129(17) 0.3592(2) 0.2036(3)
H9_5 H 0.7258 0.3385 0.2163
C19_5 C 0.71075(19) 0.3932(2) 0.2523(3)
H10_5 H 0.7403 0.3935 0.2986
C20_5 C 0.67531(19) 0.4276(2) 0.2316(3)
C21_5 C 0.62959(18) 0.4225(2) 0.1642(3)
H11_5 H 0.6051 0.4437 0.1504
C22_5 C 0.62146(16) 0.38685(17) 0.1196(2)
H12_5 H 0.5908 0.3834 0.0754
C23_5 C 0.6617(2) 0.5007(2) 0.2776(3)
C24_5 C 0.67767(17) 0.5734(2) 0.3550(3)
C25_5 C 0.71477(15) 0.60252(18) 0.4104(2)
H13_5 H 0.7458 0.5974 0.4285
C26_5 C 0.70564(13) 0.63862(16) 0.4381(2)
H14_5 H 0.7307 0.6580 0.4753
C27_5 C 0.65963(12) 0.64724(13) 0.41226(18)
C28_5 C 0.62295(14) 0.61898(15) 0.3545(2)
H15_5 H 0.5916 0.6255 0.3340
C29_5 C 0.63139(16) 0.58190(19) 0.3267(3)
H16_5 H 0.6063 0.5626 0.2893
C30_5 C 0.65061(11) 0.68623(12) 0.44398(16)
Cu2_2 Cu 0.68572(2) 0.76083(2) 0.55249(2)
N3_5 N 0.69013(18) 0.4661(2) 0.2803(3)
H27_5 H 0.7204 0.4683 0.3159
N4_5 N 0.69065(16) 0.5348(2) 0.3324(3)
H28_5 H 0.7208 0.5320 0.3559
O6_5 O 0.60715(8) 0.31205(9) 0.02696(12)
O7_3 O 0.68391(8) 0.29105(9) 0.10678(12)
O8_5 O 0.62112(14) 0.50209(16) 0.2371(2)
O9_3 O 0.60779(7) 0.69425(9) 0.41616(11)
O10_5 O 0.68639(7) 0.70920(8) 0.49697(11)
Cu4_3 Cu 0.59303(2) 0.74019(2) 0.46086(2)
Cu7_3 Cu 0.68572(2) 0.23917(2) 0.05249(2)
N7_3 N 0.76300(9) 0.76792(10) 0.62808(14)
O11_3 O 0.66978(7) 0.81140(8) 0.48196(12)
O12_3 O 0.67150(8) 0.80972(9) 0.59519(12)
O13_3 O 0.59442(8) 0.21179(9) 0.02207(12)
O14_3 O 0.68391(8) 0.70895(9) 0.60678(12)
C1_5 C 0.62751(11) 0.17961(12) 0.92721(16)
C2_5 C 0.61768(11) 0.13690(12) 0.88177(17)
C3_5 C 0.65421(13) 0.10914(15) 0.8949(2)
H1_5 H 0.6856 0.1187 0.9321
C4_5 C 0.64615(14) 0.06863(16) 0.8559(2)
H2_5 H 0.6716 0.0505 0.8672
C5_5 C 0.59876(15) 0.05468(18) 0.7982(3)
C6_5 C 0.56210(15) 0.08270(19) 0.7838(3)
H3_5 H 0.5305 0.0740 0.7458
C7_5 C 0.57153(14) 0.12293(16) 0.8245(2)
H4_5 H 0.5462 0.1413 0.8134
C31_5 C 0.49219(14) 0.2628(2) 0.8161(2)
H17_5 H 0.5096 0.2572 0.8019
C32_5 C 0.44281(14) 0.2637(2) 0.7634(2)
H18_5 H 0.4281 0.2588 0.7158
C33_5 C 0.41622(11) 0.27176(14) 0.78182(17)
C34_5 C 0.44070(14) 0.2807(2) 0.8524(2)
H19_5 H 0.4244 0.2875 0.8683
C35_5 C 0.49068(14) 0.2793(2) 0.9006(2)
H20_5 H 0.5068 0.2863 0.9484
C36_5 C 0.28949(12) 0.24437(15) 0.6187(2)
H21_5 H 0.2738 0.2261 0.5769
C37_5 C 0.33871(12) 0.24457(16) 0.6660(2)
H22_5 H 0.3552 0.2270 0.6560
C38_5 C 0.36289(11) 0.27113(14) 0.72811(17)
C39_5 C 0.33511(13) 0.2977(2) 0.7369(2)
H23_5 H 0.3496 0.3176 0.7769
C40_5 C 0.28660(12) 0.29455(18) 0.6870(2)
H24_5 H 0.2690 0.3123 0.6948
Cu1_3 Cu 0.59303(2) 0.25981(2) 0.96086(2)
N1_5 N 0.58576(14) 0.01386(17) 0.7538(2)
H25_5 H 0.5559 0.0065 0.7245
N5_5 N 0.51585(9) 0.26909(11) 0.88342(14)
N6_3 N 0.26300(9) 0.26792(10) 0.62808(14)
O1_5 O 0.59145(8) 0.20441(8) 0.90742(12)
O2_3 O 0.66978(7) 0.18860(8) 0.98196(12)
Cu6_2 Cu 0.18572(2) 0.26083(2) 0.55249(2)
O15_3 O 0.60779(7) 0.30575(9) 0.91616(11)
C8_5 C 0.61447(19) 0.9840(2) 0.7508(3)
C9_5 C 0.60270(17) 0.91451(18) 0.6756(3)
C10_5 C 0.64691(16) 0.91008(18) 0.6973(3)
H5_5 H 0.6717 0.9294 0.7351
C11_5 C 0.65590(15) 0.87783(16) 0.6649(2)
H6_5 H 0.6866 0.8763 0.6807
C12_5 C 0.62074(13) 0.84758(14) 0.6094(2)
C13_5 C 0.57700(16) 0.85125(19) 0.5878(3)
H7_5 H 0.5524 0.8319 0.5499
C14_5 C 0.56766(19) 0.8839(2) 0.6213(3)
H8_5 H 0.5373 0.8848 0.6066
C15_5 C 0.62955(12) 0.81262(12) 0.57299(17)
N2_5 N 0.58779(15) 0.94702(17) 0.7009(3)
H26_5 H 0.5589 0.9437 0.6836
O3_5 O 0.65572(13) 0.98972(15) 0.7859(2)
O5_3 O 0.59442(8) 0.78821(9) 0.52207(12)
C23_6 C 0.1617(2) 0.0007(2) 0.2776(3)
C24_6 C 0.17767(17) 0.0734(2) 0.3550(3)
C25_6 C 0.21477(15) 0.10252(18) 0.4104(2)
H13_6 H 0.2458 0.0974 0.4285
C26_6 C 0.20564(13) 0.13862(16) 0.4381(2)
H14_6 H 0.2307 0.1580 0.4753
C27_6 C 0.15963(12) 0.14724(13) 0.41226(18)
C28_6 C 0.12295(14) 0.11898(15) 0.3545(2)
H15_6 H 0.0916 0.1255 0.3340
C29_6 C 0.13139(16) 0.08190(19) 0.3267(3)
H16_6 H 0.1063 0.0626 0.2893
C30_6 C 0.15061(11) 0.18623(12) 0.44398(16)
N4_6 N 0.19065(16) 0.0348(2) 0.3324(3)
H28_6 H 0.2208 0.0320 0.3559
O8_6 O 0.12112(14) 0.00209(16) 0.2371(2)
O9_4 O 0.10779(7) 0.19425(9) 0.41616(11)
O10_6 O 0.18639(7) 0.20920(8) 0.49697(11)
Cu4_4 Cu 0.09303(2) 0.24019(2) 0.46086(2)
O11_4 O 0.16978(7) 0.31140(8) 0.48196(12)
O12_4 O 0.17150(8) 0.30972(9) 0.59519(12)
O14_4 O 0.18391(8) 0.20895(9) 0.60678(12)
C16_6 C 0.14858(12) 0.81632(13) 0.08646(18)
C17_6 C 0.15755(14) 0.85453(15) 0.1374(2)
C18_6 C 0.20129(17) 0.8592(2) 0.2036(3)
H9_6 H 0.2258 0.8385 0.2163
C19_6 C 0.21075(19) 0.8932(2) 0.2523(3)
H10_6 H 0.2403 0.8935 0.2986
C20_6 C 0.17531(19) 0.9276(2) 0.2316(3)
C21_6 C 0.12959(18) 0.9225(2) 0.1642(3)
H11_6 H 0.1051 0.9437 0.1504
C22_6 C 0.12146(16) 0.88685(17) 0.1196(2)
H12_6 H 0.0908 0.8834 0.0754
N3_6 N 0.19013(18) 0.9661(2) 0.2803(3)
H27_6 H 0.2204 0.9683 0.3159
O6_6 O 0.10715(8) 0.81205(9) 0.02696(12)
O7_4 O 0.18391(8) 0.79105(9) 0.10678(12)
Cu7_4 Cu 0.18572(2) 0.73917(2) 0.05249(2)
O13_4 O 0.09442(8) 0.71179(9) 0.02207(12)
C1_6 C 0.12751(11) 0.67961(12) 0.92721(16)
C2_6 C 0.11768(11) 0.63690(12) 0.88177(17)
C3_6 C 0.15421(13) 0.60914(15) 0.8949(2)
H1_6 H 0.1856 0.6187 0.9321
C4_6 C 0.14615(14) 0.56863(16) 0.8559(2)
H2_6 H 0.1716 0.5505 0.8672
C5_6 C 0.09876(15) 0.55468(18) 0.7982(3)
C6_6 C 0.06210(15) 0.58270(19) 0.7838(3)
H3_6 H 0.0305 0.5740 0.7458
C7_6 C 0.07153(14) 0.62293(16) 0.8245(2)
H4_6 H 0.0462 0.6413 0.8134
C8_6 C 0.11447(19) 0.4840(2) 0.7508(3)
C9_6 C 0.10270(17) 0.41451(18) 0.6756(3)
C10_6 C 0.14691(16) 0.41008(18) 0.6973(3)
H5_6 H 0.1717 0.4294 0.7351
C11_6 C 0.15590(15) 0.37783(16) 0.6649(2)
H6_6 H 0.1866 0.3763 0.6807
C12_6 C 0.12074(13) 0.34758(14) 0.6094(2)
C13_6 C 0.07700(16) 0.35125(19) 0.5878(3)
H7_6 H 0.0524 0.3319 0.5499
C14_6 C 0.06766(19) 0.3839(2) 0.6213(3)
H8_6 H 0.0373 0.3848 0.6066
C15_6 C 0.12955(12) 0.31262(12) 0.57299(17)
H17_6 H 0.0096 0.7572 0.8019
H20_6 H 0.0068 0.7863 0.9484
Cu1_4 Cu 0.09303(2) 0.75981(2) 0.96086(2)
N1_6 N 0.08576(14) 0.51386(17) 0.7538(2)
H25_6 H 0.0559 0.5065 0.7245
N2_6 N 0.08779(15) 0.44702(17) 0.7009(3)
H26_6 H 0.0589 0.4437 0.6836
N5_6 N 0.01585(9) 0.76909(11) 0.88342(14)
O1_6 O 0.09145(8) 0.70441(8) 0.90742(12)
O2_4 O 0.16978(7) 0.68860(8) 0.98196(12)
O3_6 O 0.15572(13) 0.48972(15) 0.7859(2)
O5_4 O 0.09442(8) 0.28821(9) 0.52207(12)
O15_4 O 0.10779(7) 0.80575(9) 0.91616(11)
C31_6 C 0.99219(14) 0.7628(2) 0.8161(2)
C32_6 C 0.94281(14) 0.7637(2) 0.7634(2)
H18_6 H 0.9281 0.7588 0.7158
C33_6 C 0.91622(11) 0.77176(14) 0.78182(17)
C34_6 C 0.94070(14) 0.7807(2) 0.8524(2)
H19_6 H 0.9244 0.7875 0.8683
C35_6 C 0.99068(14) 0.7793(2) 0.9006(2)
C36_6 C 0.78949(12) 0.74437(15) 0.6187(2)
H21_6 H 0.7738 0.7261 0.5769
C37_6 C 0.83871(12) 0.74457(16) 0.6660(2)
H22_6 H 0.8552 0.7270 0.6560
C38_6 C 0.86289(11) 0.77113(14) 0.72811(17)
C39_6 C 0.83511(13) 0.7977(2) 0.7369(2)
H23_6 H 0.8496 0.8176 0.7769
C40_6 C 0.78660(12) 0.79455(18) 0.6870(2)
H24_6 H 0.7690 0.8123 0.6948
C8_7 C 0.61447(19) 0.0160(2) 0.2508(3)
C9_7 C 0.60270(17) 0.08549(18) 0.1756(3)
C10_7 C 0.64691(16) 0.08992(18) 0.1973(3)
H5_7 H 0.6717 0.0706 0.2351
C11_7 C 0.65590(15) 0.12217(16) 0.1649(2)
H6_7 H 0.6866 0.1237 0.1807
C12_7 C 0.62074(13) 0.15242(14) 0.1094(2)
C13_7 C 0.57700(16) 0.14875(19) 0.0878(3)
H7_7 H 0.5524 0.1681 0.0499
C14_7 C 0.56766(19) 0.1161(2) 0.1213(3)
H8_7 H 0.5373 0.1152 0.1066
C15_7 C 0.62955(12) 0.18738(12) 0.07299(17)
N2_7 N 0.58779(15) 0.05298(17) 0.2009(3)
H26_7 H 0.5589 0.0563 0.1836
O3_7 O 0.65572(13) 0.01028(15) 0.2859(2)
O4_3 O 0.67150(8) 0.19028(9) 0.09519(12)
N7_4 N 0.76300(9) 0.23208(10) 0.12808(14)
C1_7 C 0.62751(11) 0.82039(12) 0.42721(16)
C2_7 C 0.61768(11) 0.86310(12) 0.38177(17)
C3_7 C 0.65421(13) 0.89086(15) 0.3949(2)
H1_7 H 0.6856 0.8813 0.4321
C4_7 C 0.64615(14) 0.93137(16) 0.3559(2)
H2_7 H 0.6716 0.9495 0.3672
C5_7 C 0.59876(15) 0.94532(18) 0.2982(3)
C6_7 C 0.56210(15) 0.91730(19) 0.2838(3)
H3_7 H 0.5305 0.9260 0.2458
C7_7 C 0.57153(14) 0.87707(16) 0.3245(2)
H4_7 H 0.5462 0.8587 0.3134
C16_7 C 0.64858(12) 0.68368(13) 0.58646(18)
C17_7 C 0.65755(14) 0.64547(15) 0.6374(2)
C18_7 C 0.70129(17) 0.6408(2) 0.7036(3)
H9_7 H 0.7258 0.6615 0.7163
C19_7 C 0.71075(19) 0.6068(2) 0.7523(3)
H10_7 H 0.7403 0.6065 0.7986
C20_7 C 0.67531(19) 0.5724(2) 0.7316(3)
C21_7 C 0.62959(18) 0.5775(2) 0.6642(3)
H11_7 H 0.6051 0.5563 0.6504
C22_7 C 0.62146(16) 0.61315(17) 0.6196(2)
H12_7 H 0.5908 0.6166 0.5754
C23_7 C 0.6617(2) 0.4993(2) 0.7776(3)
C24_7 C 0.67767(17) 0.4266(2) 0.8550(3)
C25_7 C 0.71477(15) 0.39748(18) 0.9104(2)
H13_7 H 0.7458 0.4026 0.9285
C26_7 C 0.70564(13) 0.36138(16) 0.9381(2)
H14_7 H 0.7307 0.3420 0.9753
C27_7 C 0.65963(12) 0.35276(13) 0.91226(18)
C28_7 C 0.62295(14) 0.38102(15) 0.8545(2)
H15_7 H 0.5916 0.3745 0.8340
C29_7 C 0.63139(16) 0.41810(19) 0.8267(3)
H16_7 H 0.6063 0.4374 0.7893
C30_7 C 0.65061(11) 0.31377(12) 0.94398(16)
C31_7 C 0.49219(14) 0.7372(2) 0.3161(2)
H17_7 H 0.5096 0.7428 0.3019
C32_7 C 0.44281(14) 0.7363(2) 0.2634(2)
H18_7 H 0.4281 0.7412 0.2158
C33_7 C 0.41622(11) 0.72824(14) 0.28182(17)
C34_7 C 0.44070(14) 0.7193(2) 0.3524(2)
H19_7 H 0.4244 0.7125 0.3683
C35_7 C 0.49068(14) 0.7207(2) 0.4006(2)
H20_7 H 0.5068 0.7137 0.4484
C36_7 C 0.28949(12) 0.75563(15) 0.1187(2)
H21_7 H 0.2738 0.7739 0.0769
C37_7 C 0.33871(12) 0.75543(16) 0.1660(2)
H22_7 H 0.3552 0.7730 0.1560
C38_7 C 0.36289(11) 0.72887(14) 0.22811(17)
C39_7 C 0.33511(13) 0.7023(2) 0.2369(2)
H23_7 H 0.3496 0.6824 0.2769
C40_7 C 0.28660(12) 0.70545(18) 0.1870(2)
H24_7 H 0.2690 0.6877 0.1948
N1_7 N 0.58576(14) 0.98614(17) 0.2538(2)
H25_7 H 0.5559 0.9935 0.2245
N3_7 N 0.69013(18) 0.5339(2) 0.7803(3)
H27_7 H 0.7204 0.5317 0.8159
N4_7 N 0.69065(16) 0.4652(2) 0.8324(3)
H28_7 H 0.7208 0.4680 0.8559
N5_7 N 0.51585(9) 0.73091(11) 0.38342(14)
N6_4 N 0.26300(9) 0.73208(10) 0.12808(14)
O1_7 O 0.59145(8) 0.79559(8) 0.40742(12)
O6_7 O 0.60715(8) 0.68795(9) 0.52696(12)
O8_7 O 0.62112(14) 0.49791(16) 0.7371(2)
O10_7 O 0.68639(7) 0.29080(8) 0.99697(11)
C1_8 C 0.12751(11) 0.32039(12) 0.42721(16)
C2_8 C 0.11768(11) 0.36310(12) 0.38177(17)
C3_8 C 0.15421(13) 0.39086(15) 0.3949(2)
H1_8 H 0.1856 0.3813 0.4321
C4_8 C 0.14615(14) 0.43137(16) 0.3559(2)
H2_8 H 0.1716 0.4495 0.3672
C5_8 C 0.09876(15) 0.44532(18) 0.2982(3)
C6_8 C 0.06210(15) 0.41730(19) 0.2838(3)
H3_8 H 0.0305 0.4260 0.2458
C7_8 C 0.07153(14) 0.37707(16) 0.3245(2)
H4_8 H 0.0462 0.3587 0.3134
C8_8 C 0.11447(19) 0.5160(2) 0.2508(3)
C9_8 C 0.10270(17) 0.58549(18) 0.1756(3)
C10_8 C 0.14691(16) 0.58992(18) 0.1973(3)
H5_8 H 0.1717 0.5706 0.2351
C11_8 C 0.15590(15) 0.62217(16) 0.1649(2)
H6_8 H 0.1866 0.6237 0.1807
C12_8 C 0.12074(13) 0.65242(14) 0.1094(2)
C13_8 C 0.07700(16) 0.64875(19) 0.0878(3)
H7_8 H 0.0524 0.6681 0.0499
C14_8 C 0.06766(19) 0.6161(2) 0.1213(3)
H8_8 H 0.0373 0.6152 0.1066
C15_8 C 0.12955(12) 0.68738(12) 0.07299(17)
C16_8 C 0.14858(12) 0.18368(13) 0.58646(18)
C17_8 C 0.15755(14) 0.14547(15) 0.6374(2)
C18_8 C 0.20129(17) 0.1408(2) 0.7036(3)
H9_8 H 0.2258 0.1615 0.7163
C19_8 C 0.21075(19) 0.1068(2) 0.7523(3)
H10_8 H 0.2403 0.1065 0.7986
C20_8 C 0.17531(19) 0.0724(2) 0.7316(3)
C21_8 C 0.12959(18) 0.0775(2) 0.6642(3)
H11_8 H 0.1051 0.0563 0.6504
C22_8 C 0.12146(16) 0.11315(17) 0.6196(2)
H12_8 H 0.0908 0.1166 0.5754
H17_8 H 0.0096 0.2428 0.3019
H20_8 H 0.0068 0.2137 0.4484
N1_8 N 0.08576(14) 0.48614(17) 0.2538(2)
H25_8 H 0.0559 0.4935 0.2245
N2_8 N 0.08779(15) 0.55298(17) 0.2009(3)
H26_8 H 0.0589 0.5563 0.1836
N3_8 N 0.19013(18) 0.0339(2) 0.7803(3)
H27_8 H 0.2204 0.0317 0.8159
N5_8 N 0.01585(9) 0.23091(11) 0.38342(14)
O1_8 O 0.09145(8) 0.29559(8) 0.40742(12)
O3_8 O 0.15572(13) 0.51028(15) 0.2859(2)
O4_4 O 0.17150(8) 0.69028(9) 0.09519(12)
O6_8 O 0.10715(8) 0.18795(9) 0.52696(12)
C23_8 C 0.1617(2) 0.9993(2) 0.7776(3)
C24_8 C 0.17767(17) 0.9266(2) 0.8550(3)
C25_8 C 0.21477(15) 0.89748(18) 0.9104(2)
H13_8 H 0.2458 0.9026 0.9285
C26_8 C 0.20564(13) 0.86138(16) 0.9381(2)
H14_8 H 0.2307 0.8420 0.9753
C27_8 C 0.15963(12) 0.85276(13) 0.91226(18)
C28_8 C 0.12295(14) 0.88102(15) 0.8545(2)
H15_8 H 0.0916 0.8745 0.8340
C29_8 C 0.13139(16) 0.91810(19) 0.8267(3)
H16_8 H 0.1063 0.9374 0.7893
C30_8 C 0.15061(11) 0.81377(12) 0.94398(16)
N4_8 N 0.19065(16) 0.9652(2) 0.8324(3)
H28_8 H 0.2208 0.9680 0.8559
O8_8 O 0.12112(14) 0.99791(16) 0.7371(2)
O10_8 O 0.18639(7) 0.79080(8) 0.99697(11)
C31_8 C 0.99219(14) 0.2372(2) 0.3161(2)
C32_8 C 0.94281(14) 0.2363(2) 0.2634(2)
H18_8 H 0.9281 0.2412 0.2158
C33_8 C 0.91622(11) 0.22824(14) 0.28182(17)
C34_8 C 0.94070(14) 0.2193(2) 0.3524(2)
H19_8 H 0.9244 0.2125 0.3683
C35_8 C 0.99068(14) 0.2207(2) 0.4006(2)
C36_8 C 0.78949(12) 0.25563(15) 0.1187(2)
H21_8 H 0.7738 0.2739 0.0769
C37_8 C 0.83871(12) 0.25543(16) 0.1660(2)
H22_8 H 0.8552 0.2730 0.1560
C38_8 C 0.86289(11) 0.22887(14) 0.22811(17)
C39_8 C 0.83511(13) 0.2023(2) 0.2369(2)
H23_8 H 0.8496 0.1824 0.2769
C40_8 C 0.78660(12) 0.20545(18) 0.1870(2)
H24_8 H 0.7690 0.1877 0.1948
loop_
_geom_bond_atom_site_label_1
_geom_bond_atom_site_label_2
_geom_bond_site_symmetry_1
_geom_bond_site_symmetry_2
C1 C2 1_555 1_555
C2 C3 1_555 1_555
C3 H1 1_555 1_555
C4 C3 1_555 1_555
H2 C4 1_555 1_555
C5 C4 1_555 1_555
C6 C5 1_555 1_555
H3 C6 1_555 1_555
C7 C2 1_555 1_555
H4 C7 1_555 1_555
C16 C17 1_555 1_555
C17 C18 1_555 1_555
C18 H9 1_555 1_555
C19 C18 1_555 1_555
H10 C19 1_555 1_555
C20 C19 1_555 1_555
C21 C20 1_555 1_555
H11 C21 1_555 1_555
C22 C17 1_555 1_555
H12 C22 1_555 1_555
C23 N3 1_555 1_555
C24 C25 1_555 1_555
C25 H13 1_555 1_555
C26 C25 1_555 1_555
H14 C26 1_555 1_555
C27 C26 1_555 1_555
C28 C27 1_555 1_555
H15 C28 1_555 1_555
C29 C24 1_555 1_555
H16 C29 1_555 1_555
C30 C27 1_555 1_555
C31 H17 1_555 1_555
C32 C31 1_555 1_555
H18 C32 1_555 1_555
C33 C32 1_555 1_555
C34 C33 1_555 1_555
H19 C34 1_555 1_555
C35 C34 1_555 1_555
H20 C35 1_555 1_555
C36 H21 1_555 1_555
C37 C36 1_555 1_555
H22 C37 1_555 1_555
C38 C33 1_555 1_555
C39 C38 1_555 1_555
H23 C39 1_555 1_555
C40 C39 1_555 1_555
H24 C40 1_555 1_555
Cu1 N5 1_555 1_555
N1 C5 1_555 1_555
H25 N1 1_555 1_555
N3 C20 1_555 1_555
H27 N3 1_555 1_555
N4 C23 1_555 1_555
H28 N4 1_555 1_555
N5 C31 1_555 1_555
N6 C36 1_555 1_555
O1 C1 1_555 1_555
O2 C1 1_555 1_555
O6 C16 1_555 1_555
O7 C16 1_555 1_555
O8 C23 1_555 1_555
O9 C30 1_555 1_555
O10 C30 1_555 1_555
Cu4 O9 1_555 1_555
Cu6 N6 1_555 1_555
Cu7 O2 1_555 1_555
O13 Cu1 1_555 1_555
O15 Cu1 1_555 1_555
C6 C7 1_555 1_555
C21 C22 1_555 1_555
C24 N4 1_555 1_555
C28 C29 1_555 1_555
C35 N5 1_555 1_555
C37 C38 1_555 1_555
C40 N6 1_555 1_555
Cu1 O1 1_555 1_555
Cu1 O6 1_555 1_555
O7 Cu7 1_555 1_555
N7 Cu2 1_555 1_555
O12 Cu2 1_555 1_555
O14 Cu2 1_555 1_555
C9 C10 1_555 1_555
C10 H5 1_555 1_555
C11 C10 1_555 1_555
H6 C11 1_555 1_555
C12 C11 1_555 1_555
C13 C12 1_555 1_555
H7 C13 1_555 1_555
C14 C9 1_555 1_555
H8 C14 1_555 1_555
C15 C12 1_555 1_555
N2 C8 1_555 1_555
H26 N2 1_555 1_555
O3 C8 1_555 1_555
O12 C15 1_555 1_555
O5 C15 1_555 1_555
C9 N2 1_555 1_555
C13 C14 1_555 1_555
C32_2 C31_2 1_555 1_555
H18_2 C32_2 1_555 1_555
C33_2 C32_2 1_555 1_555
C34_2 C33_2 1_555 1_555
H19_2 C34_2 1_555 1_555
C35_2 C34_2 1_555 1_555
C36_2 H21_2 1_555 1_555
C37_2 C36_2 1_555 1_555
H22_2 C37_2 1_555 1_555
C38_2 C33_2 1_555 1_555
C39_2 C38_2 1_555 1_555
H23_2 C39_2 1_555 1_555
C40_2 C39_2 1_555 1_555
H24_2 C40_2 1_555 1_555
N7 C36_2 1_555 1_555
C37_2 C38_2 1_555 1_555
C40_2 N7 1_555 1_555
C24_2 C25_2 1_555 1_555
C25_2 H13_2 1_555 1_555
C26_2 C25_2 1_555 1_555
H14_2 C26_2 1_555 1_555
C27_2 C26_2 1_555 1_555
C28_2 C27_2 1_555 1_555
H15_2 C28_2 1_555 1_555
C29_2 C24_2 1_555 1_555
H16_2 C29_2 1_555 1_555
C30_2 C27_2 1_555 1_555
N4_2 C23_2 1_555 1_555
H28_2 N4_2 1_555 1_555
O8_2 C23_2 1_555 1_555
O9_2 C30_2 1_555 1_555
O10_2 C30_2 1_555 1_555
Cu4_2 O9_2 1_555 1_555
C24_2 N4_2 1_555 1_555
C28_2 C29_2 1_555 1_555
O12_2 Cu6 1_555 1_555
O14_2 Cu6 1_555 1_555
C1_2 C2_2 1_555 1_555
C2_2 C3_2 1_555 1_555
C3_2 H1_2 1_555 1_555
C4_2 C3_2 1_555 1_555
H2_2 C4_2 1_555 1_555
C5_2 C4_2 1_555 1_555
C6_2 C5_2 1_555 1_555
H3_2 C6_2 1_555 1_555
C7_2 C2_2 1_555 1_555
H4_2 C7_2 1_555 1_555
C8_2 N1_2 1_555 1_555
C9_2 C10_2 1_555 1_555
C10_2 H5_2 1_555 1_555
C11_2 C10_2 1_555 1_555
H6_2 C11_2 1_555 1_555
C12_2 C11_2 1_555 1_555
C13_2 C12_2 1_555 1_555
H7_2 C13_2 1_555 1_555
C14_2 C9_2 1_555 1_555
H8_2 C14_2 1_555 1_555
C15_2 C12_2 1_555 1_555
C16_2 C17_2 1_555 1_555
C17_2 C18_2 1_555 1_555
C18_2 H9_2 1_555 1_555
C19_2 C18_2 1_555 1_555
H10_2 C19_2 1_555 1_555
C20_2 C19_2 1_555 1_555
C21_2 C20_2 1_555 1_555
H11_2 C21_2 1_555 1_555
C22_2 C17_2 1_555 1_555
H12_2 C22_2 1_555 1_555
Cu1_2 N5_2 1_555 1_555
N1_2 C5_2 1_555 1_555
H25_2 N1_2 1_555 1_555
N2_2 C8_2 1_555 1_555
H26_2 N2_2 1_555 1_555
N3_2 C20_2 1_555 1_555
H27_2 N3_2 1_555 1_555
O1_2 C1_2 1_555 1_555
O2_2 C1_2 1_555 1_555
O3_2 C8_2 1_555 1_555
O12_2 C15_2 1_555 1_555
O5_2 C15_2 1_555 1_555
O6_2 C16_2 1_555 1_555
O7_2 C16_2 1_555 1_555
Cu7_2 O2_2 1_555 1_555
O13_2 Cu1_2 1_555 1_555
O15_2 Cu1_2 1_555 1_555
C6_2 C7_2 1_555 1_555
C9_2 N2_2 1_555 1_555
C13_2 C14_2 1_555 1_555
C21_2 C22_2 1_555 1_555
Cu1_2 O1_2 1_555 1_555
Cu1_2 O6_2 1_555 1_555
O7_2 Cu7_2 1_555 1_555
C9_3 C10_3 1_555 1_555
C10_3 H5_3 1_555 1_555
C11_3 C10_3 1_555 1_555
H6_3 C11_3 1_555 1_555
C12_3 C11_3 1_555 1_555
C13_3 C12_3 1_555 1_555
H7_3 C13_3 1_555 1_555
C14_3 C9_3 1_555 1_555
H8_3 C14_3 1_555 1_555
C15_3 C12_3 1_555 1_555
N2_3 C8_3 1_555 1_555
H26_3 N2_3 1_555 1_555
O3_3 C8_3 1_555 1_555
O4 C15_3 1_555 1_555
O13 C15_3 1_555 1_555
Cu7 O4 1_555 1_555
C9_3 N2_3 1_555 1_555
C13_3 C14_3 1_555 1_555
C1_3 C2_3 1_555 1_555
C2_3 C3_3 1_555 1_555
C3_3 H1_3 1_555 1_555
C4_3 C3_3 1_555 1_555
H2_3 C4_3 1_555 1_555
C5_3 C4_3 1_555 1_555
C6_3 C5_3 1_555 1_555
H3_3 C6_3 1_555 1_555
C7_3 C2_3 1_555 1_555
H4_3 C7_3 1_555 1_555
C31_3 H17_3 1_555 1_555
C32_3 C31_3 1_555 1_555
H18_3 C32_3 1_555 1_555
C33_3 C32_3 1_555 1_555
C34_3 C33_3 1_555 1_555
H19_3 C34_3 1_555 1_555
C35_3 C34_3 1_555 1_555
H20_3 C35_3 1_555 1_555
C36_3 H21_3 1_555 1_555
C37_3 C36_3 1_555 1_555
H22_3 C37_3 1_555 1_555
C38_3 C33_3 1_555 1_555
C39_3 C38_3 1_555 1_555
H23_3 C39_3 1_555 1_555
C40_3 C39_3 1_555 1_555
H24_3 C40_3 1_555 1_555
Cu4 N5_3 1_555 1_555
N1_3 C5_3 1_555 1_555
H25_3 N1_3 1_555 1_555
N5_3 C31_3 1_555 1_555
N6_2 C36_3 1_555 1_555
O1_3 C1_3 1_555 1_555
O11 C1_3 1_555 1_555
Cu7_2 N6_2 1_555 1_555
C6_3 C7_3 1_555 1_555
C35_3 N5_3 1_555 1_555
C37_3 C38_3 1_555 1_555
C40_3 N6_2 1_555 1_555
Cu4 O1_3 1_555 1_555
C16_3 C17_3 1_555 1_555
C17_3 C18_3 1_555 1_555
C18_3 H9_3 1_555 1_555
C19_3 C18_3 1_555 1_555
H10_3 C19_3 1_555 1_555
C20_3 C19_3 1_555 1_555
C21_3 C20_3 1_555 1_555
H11_3 C21_3 1_555 1_555
C22_3 C17_3 1_555 1_555
H12_3 C22_3 1_555 1_555
C23_3 N3_3 1_555 1_555
C24_3 C25_3 1_555 1_555
C25_3 H13_3 1_555 1_555
C26_3 C25_3 1_555 1_555
H14_3 C26_3 1_555 1_555
C27_3 C26_3 1_555 1_555
C28_3 C27_3 1_555 1_555
H15_3 C28_3 1_555 1_555
C29_3 C24_3 1_555 1_555
H16_3 C29_3 1_555 1_555
C30_3 C27_3 1_555 1_555
Cu7 O10_3 1_555 1_555
N3_3 C20_3 1_555 1_555
H27_3 N3_3 1_555 1_555
N4_3 C23_3 1_555 1_555
H28_3 N4_3 1_555 1_555
O6_3 C16_3 1_555 1_555
O14 C16_3 1_555 1_555
O8_3 C23_3 1_555 1_555
O15 C30_3 1_555 1_555
O10_3 C30_3 1_555 1_555
N7_2 Cu7 1_555 1_555
C21_3 C22_3 1_555 1_555
C24_3 N4_3 1_555 1_555
C28_3 C29_3 1_555 1_555
C32_4 C31_4 1_555 1_555
H18_4 C32_4 1_555 1_555
C33_4 C32_4 1_555 1_555
C34_4 C33_4 1_555 1_555
H19_4 C34_4 1_555 1_555
C35_4 C34_4 1_555 1_555
C36_4 H21_4 1_555 1_555
C37_4 C36_4 1_555 1_555
H22_4 C37_4 1_555 1_555
C38_4 C33_4 1_555 1_555
C39_4 C38_4 1_555 1_555
H23_4 C39_4 1_555 1_555
C40_4 C39_4 1_555 1_555
H24_4 C40_4 1_555 1_555
N7_2 C36_4 1_555 1_555
C37_4 C38_4 1_555 1_555
C40_4 N7_2 1_555 1_555
C1_4 C2_4 1_555 1_555
C2_4 C3_4 1_555 1_555
C3_4 H1_4 1_555 1_555
C4_4 C3_4 1_555 1_555
H2_4 C4_4 1_555 1_555
C5_4 C4_4 1_555 1_555
C6_4 C5_4 1_555 1_555
H3_4 C6_4 1_555 1_555
C7_4 C2_4 1_555 1_555
H4_4 C7_4 1_555 1_555
C8_4 N1_4 1_555 1_555
C9_4 C10_4 1_555 1_555
C10_4 H5_4 1_555 1_555
C11_4 C10_4 1_555 1_555
H6_4 C11_4 1_555 1_555
C12_4 C11_4 1_555 1_555
C13_4 C12_4 1_555 1_555
H7_4 C13_4 1_555 1_555
C14_4 C9_4 1_555 1_555
H8_4 C14_4 1_555 1_555
C15_4 C12_4 1_555 1_555
Cu4_2 N5_4 1_555 1_555
N1_4 C5_4 1_555 1_555
H25_4 N1_4 1_555 1_555
N2_4 C8_4 1_555 1_555
H26_4 N2_4 1_555 1_555
O1_4 C1_4 1_555 1_555
O11_2 C1_4 1_555 1_555
O3_4 C8_4 1_555 1_555
O4_2 C15_4 1_555 1_555
O13_2 C15_4 1_555 1_555
Cu7_2 O4_2 1_555 1_555
C6_4 C7_4 1_555 1_555
C9_4 N2_4 1_555 1_555
C13_4 C14_4 1_555 1_555
Cu4_2 O1_4 1_555 1_555
C16_4 C17_4 1_555 1_555
C17_4 C18_4 1_555 1_555
C18_4 H9_4 1_555 1_555
C19_4 C18_4 1_555 1_555
H10_4 C19_4 1_555 1_555
C20_4 C19_4 1_555 1_555
C21_4 C20_4 1_555 1_555
H11_4 C21_4 1_555 1_555
C22_4 C17_4 1_555 1_555
H12_4 C22_4 1_555 1_555
N3_4 C20_4 1_555 1_555
H27_4 N3_4 1_555 1_555
O6_4 C16_4 1_555 1_555
O14_2 C16_4 1_555 1_555
C21_4 C22_4 1_555 1_555
C24_4 C25_4 1_555 1_555
C25_4 H13_4 1_555 1_555
C26_4 C25_4 1_555 1_555
H14_4 C26_4 1_555 1_555
C27_4 C26_4 1_555 1_555
C28_4 C27_4 1_555 1_555
H15_4 C28_4 1_555 1_555
C29_4 C24_4 1_555 1_555
H16_4 C29_4 1_555 1_555
C30_4 C27_4 1_555 1_555
Cu7_2 O10_4 1_555 1_555
N4_4 C23_4 1_555 1_555
H28_4 N4_4 1_555 1_555
O8_4 C23_4 1_555 1_555
O15_2 C30_4 1_555 1_555
O10_4 C30_4 1_555 1_555
C24_4 N4_4 1_555 1_555
C28_4 C29_4 1_555 1_555
C16_5 C17_5 1_555 1_555
C17_5 C18_5 1_555 1_555
C18_5 H9_5 1_555 1_555
C19_5 C18_5 1_555 1_555
H10_5 C19_5 1_555 1_555
C20_5 C19_5 1_555 1_555
C21_5 C20_5 1_555 1_555
H11_5 C21_5 1_555 1_555
C22_5 C17_5 1_555 1_555
H12_5 C22_5 1_555 1_555
C23_5 N3_5 1_555 1_555
C24_5 C25_5 1_555 1_555
C25_5 H13_5 1_555 1_555
C26_5 C25_5 1_555 1_555
H14_5 C26_5 1_555 1_555
C27_5 C26_5 1_555 1_555
C28_5 C27_5 1_555 1_555
H15_5 C28_5 1_555 1_555
C29_5 C24_5 1_555 1_555
H16_5 C29_5 1_555 1_555
C30_5 C27_5 1_555 1_555
Cu2_2 O10_5 1_555 1_555
N3_5 C20_5 1_555 1_555
H27_5 N3_5 1_555 1_555
N4_5 C23_5 1_555 1_555
H28_5 N4_5 1_555 1_555
O6_5 C16_5 1_555 1_555
O7_3 C16_5 1_555 1_555
O8_5 C23_5 1_555 1_555
O9_3 C30_5 1_555 1_555
O10_5 C30_5 1_555 1_555
Cu4_3 O9_3 1_555 1_555
N7_3 Cu2_2 1_555 1_555
O11_3 Cu2_2 1_555 1_555
O12_3 Cu2_2 1_555 1_555
O14_3 Cu2_2 1_555 1_555
C21_5 C22_5 1_555 1_555
C24_5 N4_5 1_555 1_555
C28_5 C29_5 1_555 1_555
O7_3 Cu7_3 1_555 1_555
C1_5 C2_5 1_555 1_555
C2_5 C3_5 1_555 1_555
C3_5 H1_5 1_555 1_555
C4_5 C3_5 1_555 1_555
H2_5 C4_5 1_555 1_555
C5_5 C4_5 1_555 1_555
C6_5 C5_5 1_555 1_555
H3_5 C6_5 1_555 1_555
C7_5 C2_5 1_555 1_555
H4_5 C7_5 1_555 1_555
C31_5 H17_5 1_555 1_555
C32_5 C31_5 1_555 1_555
H18_5 C32_5 1_555 1_555
C33_5 C32_5 1_555 1_555
C34_5 C33_5 1_555 1_555
H19_5 C34_5 1_555 1_555
C35_5 C34_5 1_555 1_555
H20_5 C35_5 1_555 1_555
C36_5 H21_5 1_555 1_555
C37_5 C36_5 1_555 1_555
H22_5 C37_5 1_555 1_555
C38_5 C33_5 1_555 1_555
C39_5 C38_5 1_555 1_555
H23_5 C39_5 1_555 1_555
C40_5 C39_5 1_555 1_555
H24_5 C40_5 1_555 1_555
Cu1_3 N5_5 1_555 1_555
N1_5 C5_5 1_555 1_555
H25_5 N1_5 1_555 1_555
N5_5 C31_5 1_555 1_555
N6_3 C36_5 1_555 1_555
O1_5 C1_5 1_555 1_555
O2_3 C1_5 1_555 1_555
Cu6_2 N6_3 1_555 1_555
O15_3 Cu1_3 1_555 1_555
C6_5 C7_5 1_555 1_555
C35_5 N5_5 1_555 1_555
C37_5 C38_5 1_555 1_555
C40_5 N6_3 1_555 1_555
Cu1_3 O1_5 1_555 1_555
C9_5 C10_5 1_555 1_555
C10_5 H5_5 1_555 1_555
C11_5 C10_5 1_555 1_555
H6_5 C11_5 1_555 1_555
C12_5 C11_5 1_555 1_555
C13_5 C12_5 1_555 1_555
H7_5 C13_5 1_555 1_555
C14_5 C9_5 1_555 1_555
H8_5 C14_5 1_555 1_555
C15_5 C12_5 1_555 1_555
N2_5 C8_5 1_555 1_555
H26_5 N2_5 1_555 1_555
O3_5 C8_5 1_555 1_555
O12_3 C15_5 1_555 1_555
O5_3 C15_5 1_555 1_555
Cu4_3 O5_3 1_555 1_555
C9_5 N2_5 1_555 1_555
C13_5 C14_5 1_555 1_555
C24_6 C25_6 1_555 1_555
C25_6 H13_6 1_555 1_555
C26_6 C25_6 1_555 1_555
H14_6 C26_6 1_555 1_555
C27_6 C26_6 1_555 1_555
C28_6 C27_6 1_555 1_555
H15_6 C28_6 1_555 1_555
C29_6 C24_6 1_555 1_555
H16_6 C29_6 1_555 1_555
C30_6 C27_6 1_555 1_555
Cu6_2 O10_6 1_555 1_555
N4_6 C23_6 1_555 1_555
H28_6 N4_6 1_555 1_555
O8_6 C23_6 1_555 1_555
O9_4 C30_6 1_555 1_555
O10_6 C30_6 1_555 1_555
Cu4_4 O9_4 1_555 1_555
O11_4 Cu6_2 1_555 1_555
O12_4 Cu6_2 1_555 1_555
O14_4 Cu6_2 1_555 1_555
C24_6 N4_6 1_555 1_555
C28_6 C29_6 1_555 1_555
C16_6 C17_6 1_555 1_555
C17_6 C18_6 1_555 1_555
C18_6 H9_6 1_555 1_555
C19_6 C18_6 1_555 1_555
H10_6 C19_6 1_555 1_555
C20_6 C19_6 1_555 1_555
C21_6 C20_6 1_555 1_555
H11_6 C21_6 1_555 1_555
C22_6 C17_6 1_555 1_555
H12_6 C22_6 1_555 1_555
N3_6 C20_6 1_555 1_555
H27_6 N3_6 1_555 1_555
O6_6 C16_6 1_555 1_555
O7_4 C16_6 1_555 1_555
C21_6 C22_6 1_555 1_555
O7_4 Cu7_4 1_555 1_555
C1_6 C2_6 1_555 1_555
C2_6 C3_6 1_555 1_555
C3_6 H1_6 1_555 1_555
C4_6 C3_6 1_555 1_555
H2_6 C4_6 1_555 1_555
C5_6 C4_6 1_555 1_555
C6_6 C5_6 1_555 1_555
H3_6 C6_6 1_555 1_555
C7_6 C2_6 1_555 1_555
H4_6 C7_6 1_555 1_555
C8_6 N1_6 1_555 1_555
C9_6 C10_6 1_555 1_555
C10_6 H5_6 1_555 1_555
C11_6 C10_6 1_555 1_555
H6_6 C11_6 1_555 1_555
C12_6 C11_6 1_555 1_555
C13_6 C12_6 1_555 1_555
H7_6 C13_6 1_555 1_555
C14_6 C9_6 1_555 1_555
H8_6 C14_6 1_555 1_555
C15_6 C12_6 1_555 1_555
Cu1_4 N5_6 1_555 1_555
N1_6 C5_6 1_555 1_555
H25_6 N1_6 1_555 1_555
N2_6 C8_6 1_555 1_555
H26_6 N2_6 1_555 1_555
O1_6 C1_6 1_555 1_555
O2_4 C1_6 1_555 1_555
O3_6 C8_6 1_555 1_555
O12_4 C15_6 1_555 1_555
O5_4 C15_6 1_555 1_555
Cu4_4 O5_4 1_555 1_555
O15_4 Cu1_4 1_555 1_555
C6_6 C7_6 1_555 1_555
C9_6 N2_6 1_555 1_555
C13_6 C14_6 1_555 1_555
Cu1_4 O1_6 1_555 1_555
C32_6 C31_6 1_555 1_555
H18_6 C32_6 1_555 1_555
C33_6 C32_6 1_555 1_555
C34_6 C33_6 1_555 1_555
H19_6 C34_6 1_555 1_555
C35_6 C34_6 1_555 1_555
C36_6 H21_6 1_555 1_555
C37_6 C36_6 1_555 1_555
H22_6 C37_6 1_555 1_555
C38_6 C33_6 1_555 1_555
C39_6 C38_6 1_555 1_555
H23_6 C39_6 1_555 1_555
C40_6 C39_6 1_555 1_555
H24_6 C40_6 1_555 1_555
N7_3 C36_6 1_555 1_555
C37_6 C38_6 1_555 1_555
C40_6 N7_3 1_555 1_555
C9_7 C10_7 1_555 1_555
C10_7 H5_7 1_555 1_555
C11_7 C10_7 1_555 1_555
H6_7 C11_7 1_555 1_555
C12_7 C11_7 1_555 1_555
C13_7 C12_7 1_555 1_555
H7_7 C13_7 1_555 1_555
C14_7 C9_7 1_555 1_555
H8_7 C14_7 1_555 1_555
C15_7 C12_7 1_555 1_555
N2_7 C8_7 1_555 1_555
H26_7 N2_7 1_555 1_555
O3_7 C8_7 1_555 1_555
O4_3 C15_7 1_555 1_555
O13_3 C15_7 1_555 1_555
Cu7_3 O4_3 1_555 1_555
C9_7 N2_7 1_555 1_555
C13_7 C14_7 1_555 1_555
N7_4 Cu7_3 1_555 1_555
C1_7 C2_7 1_555 1_555
C2_7 C3_7 1_555 1_555
C3_7 H1_7 1_555 1_555
C4_7 C3_7 1_555 1_555
H2_7 C4_7 1_555 1_555
C5_7 C4_7 1_555 1_555
C6_7 C5_7 1_555 1_555
H3_7 C6_7 1_555 1_555
C7_7 C2_7 1_555 1_555
H4_7 C7_7 1_555 1_555
C16_7 C17_7 1_555 1_555
C17_7 C18_7 1_555 1_555
C18_7 H9_7 1_555 1_555
C19_7 C18_7 1_555 1_555
H10_7 C19_7 1_555 1_555
C20_7 C19_7 1_555 1_555
C21_7 C20_7 1_555 1_555
H11_7 C21_7 1_555 1_555
C22_7 C17_7 1_555 1_555
H12_7 C22_7 1_555 1_555
C23_7 N3_7 1_555 1_555
C24_7 C25_7 1_555 1_555
C25_7 H13_7 1_555 1_555
C26_7 C25_7 1_555 1_555
H14_7 C26_7 1_555 1_555
C27_7 C26_7 1_555 1_555
C28_7 C27_7 1_555 1_555
H15_7 C28_7 1_555 1_555
C29_7 C24_7 1_555 1_555
H16_7 C29_7 1_555 1_555
C30_7 C27_7 1_555 1_555
C31_7 H17_7 1_555 1_555
C32_7 C31_7 1_555 1_555
H18_7 C32_7 1_555 1_555
C33_7 C32_7 1_555 1_555
C34_7 C33_7 1_555 1_555
H19_7 C34_7 1_555 1_555
C35_7 C34_7 1_555 1_555
H20_7 C35_7 1_555 1_555
C36_7 H21_7 1_555 1_555
C37_7 C36_7 1_555 1_555
H22_7 C37_7 1_555 1_555
C38_7 C33_7 1_555 1_555
C39_7 C38_7 1_555 1_555
H23_7 C39_7 1_555 1_555
C40_7 C39_7 1_555 1_555
H24_7 C40_7 1_555 1_555
Cu4_3 N5_7 1_555 1_555
N1_7 C5_7 1_555 1_555
H25_7 N1_7 1_555 1_555
N3_7 C20_7 1_555 1_555
H27_7 N3_7 1_555 1_555
N4_7 C23_7 1_555 1_555
H28_7 N4_7 1_555 1_555
N5_7 C31_7 1_555 1_555
N6_4 C36_7 1_555 1_555
O1_7 C1_7 1_555 1_555
O11_3 C1_7 1_555 1_555
O6_7 C16_7 1_555 1_555
O14_3 C16_7 1_555 1_555
O8_7 C23_7 1_555 1_555
O15_3 C30_7 1_555 1_555
O10_7 C30_7 1_555 1_555
Cu7_4 N6_4 1_555 1_555
C6_7 C7_7 1_555 1_555
C21_7 C22_7 1_555 1_555
C24_7 N4_7 1_555 1_555
C28_7 C29_7 1_555 1_555
C35_7 N5_7 1_555 1_555
C37_7 C38_7 1_555 1_555
C40_7 N6_4 1_555 1_555
Cu4_3 O1_7 1_555 1_555
Cu4_3 O6_7 1_555 1_555
C1_8 C2_8 1_555 1_555
C2_8 C3_8 1_555 1_555
C3_8 H1_8 1_555 1_555
C4_8 C3_8 1_555 1_555
H2_8 C4_8 1_555 1_555
C5_8 C4_8 1_555 1_555
C6_8 C5_8 1_555 1_555
H3_8 C6_8 1_555 1_555
C7_8 C2_8 1_555 1_555
H4_8 C7_8 1_555 1_555
C8_8 N1_8 1_555 1_555
C9_8 C10_8 1_555 1_555
C10_8 H5_8 1_555 1_555
C11_8 C10_8 1_555 1_555
H6_8 C11_8 1_555 1_555
C12_8 C11_8 1_555 1_555
C13_8 C12_8 1_555 1_555
H7_8 C13_8 1_555 1_555
C14_8 C9_8 1_555 1_555
H8_8 C14_8 1_555 1_555
C15_8 C12_8 1_555 1_555
C16_8 C17_8 1_555 1_555
C17_8 C18_8 1_555 1_555
C18_8 H9_8 1_555 1_555
C19_8 C18_8 1_555 1_555
H10_8 C19_8 1_555 1_555
C20_8 C19_8 1_555 1_555
C21_8 C20_8 1_555 1_555
H11_8 C21_8 1_555 1_555
C22_8 C17_8 1_555 1_555
H12_8 C22_8 1_555 1_555
Cu4_4 N5_8 1_555 1_555
N1_8 C5_8 1_555 1_555
H25_8 N1_8 1_555 1_555
N2_8 C8_8 1_555 1_555
H26_8 N2_8 1_555 1_555
N3_8 C20_8 1_555 1_555
H27_8 N3_8 1_555 1_555
O1_8 C1_8 1_555 1_555
O11_4 C1_8 1_555 1_555
O3_8 C8_8 1_555 1_555
O4_4 C15_8 1_555 1_555
O13_4 C15_8 1_555 1_555
O6_8 C16_8 1_555 1_555
O14_4 C16_8 1_555 1_555
Cu7_4 O4_4 1_555 1_555
C6_8 C7_8 1_555 1_555
C9_8 N2_8 1_555 1_555
C13_8 C14_8 1_555 1_555
C21_8 C22_8 1_555 1_555
Cu4_4 O1_8 1_555 1_555
Cu4_4 O6_8 1_555 1_555
C24_8 C25_8 1_555 1_555
C25_8 H13_8 1_555 1_555
C26_8 C25_8 1_555 1_555
H14_8 C26_8 1_555 1_555
C27_8 C26_8 1_555 1_555
C28_8 C27_8 1_555 1_555
H15_8 C28_8 1_555 1_555
C29_8 C24_8 1_555 1_555
H16_8 C29_8 1_555 1_555
C30_8 C27_8 1_555 1_555
N4_8 C23_8 1_555 1_555
H28_8 N4_8 1_555 1_555
O8_8 C23_8 1_555 1_555
O15_4 C30_8 1_555 1_555
O10_8 C30_8 1_555 1_555
C24_8 N4_8 1_555 1_555
C28_8 C29_8 1_555 1_555
C32_8 C31_8 1_555 1_555
H18_8 C32_8 1_555 1_555
C33_8 C32_8 1_555 1_555
C34_8 C33_8 1_555 1_555
H19_8 C34_8 1_555 1_555
C35_8 C34_8 1_555 1_555
C36_8 H21_8 1_555 1_555
C37_8 C36_8 1_555 1_555
H22_8 C37_8 1_555 1_555
C38_8 C33_8 1_555 1_555
C39_8 C38_8 1_555 1_555
H23_8 C39_8 1_555 1_555
C40_8 C39_8 1_555 1_555
H24_8 C40_8 1_555 1_555
N7_4 C36_8 1_555 1_555
C37_8 C38_8 1_555 1_555
C40_8 N7_4 1_555 1_555

#END
