
###############################################################################
#
# This file contains modified crystal structure data generated from the
# MOF subset of the Cambridge Structural Database (CSD) v543 
# hosted by the Cambridge Crystallographic Data Centre (CCDC).
#
# This work is licensed under the Creative Commons
# Attribution-NonCommercial-ShareAlike 4.0 International License.
# To view a copy of this license, visit
# http://creativecommons.org/licenses/by-nc-sa/4.0/
# or send a letter to
# Creative Commons, PO Box 1866, Mountain View, CA 94042, USA.
#
# CIF created using the CSD Python API on 29 September 2022
# The structure has been converted into the P1 space group
# The structure has a 3D framework
# The original CSD entry QUZVEO is in the orthorhombic crystal system
# The framework has been calculated to contain at least 10.0% void space
# The void calculation uses a probe of radius 1.32A, grid spacing 0.4
#
###############################################################################

data_QUZVEO
_chemical_formula_moiety         '(C96 H80 Dy8 N8 O68)n'
_symmetry_cell_setting           triclinic
_symmetry_space_group_name_H-M   'P 1'
_symmetry_Int_Tables_number      1
_space_group_name_Hall           'P 1'
loop_
_symmetry_equiv_pos_site_id
_symmetry_equiv_pos_as_xyz
1 x,y,z
_cell_length_a                   8.6326(3)
_cell_length_b                   28.1206(10)
_cell_length_c                   15.3462(5)
_cell_angle_alpha                90
_cell_angle_beta                 90
_cell_angle_gamma                90
_cell_volume                     3725.35
loop_
_atom_site_label
_atom_site_type_symbol
_atom_site_fract_x
_atom_site_fract_y
_atom_site_fract_z
C22 C 0.0714(13) 0.4138(4) 0.0150(8)
H14 H 0.0525 0.4461 0.0078
N2 N 0.0662(10) 0.3994(4) 0.0909(6)
C23 C 0.0397(13) 0.4250(5) 0.1676(8)
H16 H 0.0723 0.4064 0.2167
H17 H 0.0973 0.4542 0.1660
C24 C 0.1655(13) 0.3509(4) 0.1075(7)
H18 H 0.2327 0.3453 0.0587
H19 H 0.2264 0.3543 0.1594
H20 H 0.0958 0.3245 0.1141
O1 O 0.2067(6) 0.62836(18) 0.3045(3)
O2 O 0.0490(6) 0.6632(2) 0.2105(4)
O3 O 0.0441(6) 0.5227(2) 0.2828(4)
O4 O 0.2051(5) 0.46592(17) 0.4674(3)
O5 O 0.1264(7) 0.3970(2) 0.6551(4)
O6 O 0.1348(8) 0.7500 0.2625(5)
C1 C 0.1472(9) 0.5105(3) 0.3353(5)
C2 C 0.1946(8) 0.7112(3) 0.3038(4)
C3 C 0.1488(8) 0.6646(2) 0.2701(5)
O7 O 0.3384(6) 0.4374(2) 0.6195(3)
O9 O 0.2846(6) 0.52669(18) 0.3381(4)
C4 C 0.1308(8) 0.4338(3) 0.5222(4)
C6 C 0.1013(8) 0.4745(2) 0.4011(4)
C7 C 0.2894(8) 0.7246(3) 0.3685(5)
H2 H 0.3442 0.7048 0.4060
C8 C 0.2036(9) 0.4218(3) 0.6053(5)
O10 O 0.0490(6) 0.8368(2) 0.2105(4)
C13 C 0.1946(8) 0.7888(3) 0.3038(4)
C14 C 0.1488(8) 0.8354(2) 0.2701(5)
C15 C 0.2894(8) 0.7754(3) 0.3685(5)
H11 H 0.3442 0.7952 0.4060
O11 O 0.2067(6) 0.87164(18) 0.3045(3)
Dy2 Dy 0.05239(4) 0.413280(13) 0.79795(2)
O16 O 0.0981(10) 0.3915(3) 0.9468(5)
C18 C 0.0281(9) 0.5499(3) 0.5876(5)
H12 H 0.1139 0.5499 0.6242
C21 C 0.0116(10) 0.5757(3) 0.5109(5)
H13 H 0.0852 0.5958 0.4866
Dy4 Dy 0.55239(4) 0.413280(13) 0.70205(2)
Dy5 Dy 0.44761(4) 0.913280(13) 0.29795(2)
Dy7 Dy 0.44761(4) 0.586720(13) 0.29795(2)
O18 O 0.2933(6) 0.37164(18) 0.8045(3)
O21 O 0.1616(6) 0.5626(2) 0.1195(3)
O23 O 0.2154(6) 0.47331(18) 0.8381(4)
Dy1 Dy 0.94761(4) 0.586720(13) 0.20205(2)
O8 O 0.9019(10) 0.6085(3) 0.0532(5)
C5 C 0.9719(9) 0.4501(3) 0.4124(5)
H1 H 0.8861 0.4501 0.3758
C9 C 0.9884(10) 0.4243(3) 0.4891(5)
H3 H 0.9148 0.4042 0.5134
O12 O 0.9559(6) 0.4773(2) 0.7172(4)
O13 O 0.7949(5) 0.53408(17) 0.5326(3)
O14 O 0.8736(7) 0.6030(2) 0.3449(4)
C16 C 0.8528(9) 0.4895(3) 0.6647(5)
O15 O 0.6616(6) 0.5626(2) 0.3805(3)
O17 O 0.7154(6) 0.47331(18) 0.6619(4)
C17 C 0.8692(8) 0.5662(3) 0.4778(4)
C19 C 0.8987(8) 0.5255(2) 0.5989(4)
C20 C 0.7964(9) 0.5782(3) 0.3947(5)
Dy8 Dy 0.94761(4) 0.913280(13) 0.20205(2)
O19 O 0.7067(6) 0.62836(18) 0.1955(3)
O20 O 0.9510(6) 0.3368(2) 0.7895(4)
O22 O 0.8384(6) 0.4374(2) 0.8805(3)
O24 O 0.7846(6) 0.52669(18) 0.1619(4)
O5_2 O 0.3736(7) 0.6030(2) 0.1551(4)
C4_2 C 0.3692(8) 0.5662(3) 0.0222(4)
C8_2 C 0.2964(9) 0.5782(3) 0.1053(5)
H3_2 H 0.5852 0.5958 0.0134
O12_2 O 0.5441(6) 0.5227(2) 0.2172(4)
O13_2 O 0.7051(5) 0.46592(17) 0.0326(3)
C16_2 C 0.6472(9) 0.5105(3) 0.1647(5)
O16_2 O 0.4019(10) 0.6085(3) 0.4468(5)
C18_2 C 0.4719(9) 0.4501(3) 0.0876(5)
H12_2 H 0.3861 0.4501 0.1242
C19_2 C 0.6013(8) 0.4745(2) 0.0989(4)
C21_2 C 0.4884(10) 0.4243(3) 0.0109(5)
C22_2 C 0.4286(13) 0.5862(4) 0.5150(8)
H14_2 H 0.4475 0.5539 0.5078
N2_2 N 0.4338(10) 0.6006(4) 0.5909(6)
C23_2 C 0.4603(13) 0.5750(5) 0.6676(8)
H15 H 0.5688 0.5680 0.6726
H16_2 H 0.4277 0.5936 0.7167
H17_2 H 0.4027 0.5458 0.6660
C24_2 C 0.3345(13) 0.6491(4) 0.6075(7)
H18_2 H 0.2673 0.6547 0.5587
H19_2 H 0.2736 0.6457 0.6594
H20_2 H 0.4042 0.6755 0.6141
O20_2 O 0.5490(6) 0.6632(2) 0.2895(4)
O2_2 O 0.4510(6) 0.3368(2) 0.7105(4)
O3_2 O 0.4559(6) 0.4773(2) 0.7828(4)
O4_2 O 0.2949(5) 0.53408(17) 0.9674(3)
O6_2 O 0.3652(8) 0.2500 0.7625(5)
C1_2 C 0.3528(9) 0.4895(3) 0.8353(5)
C2_2 C 0.3054(8) 0.2888(3) 0.8038(4)
C3_2 C 0.3512(8) 0.3354(2) 0.7701(5)
O8_2 O 0.5981(10) 0.3915(3) 0.5532(5)
C5_2 C 0.5281(9) 0.5499(3) 0.9124(5)
H1_2 H 0.6139 0.5499 0.8758
C6_2 C 0.3987(8) 0.5255(2) 0.9011(4)
C7_2 C 0.2106(8) 0.2754(3) 0.8685(5)
H2_2 H 0.1558 0.2952 0.9060
C9_2 C 0.5116(10) 0.5757(3) 0.9891(5)
C10 C 0.5714(13) 0.4138(4) 0.4850(8)
H4 H 0.5525 0.4461 0.4922
N1 N 0.5662(10) 0.3994(4) 0.4091(6)
C11 C 0.5397(13) 0.4250(5) 0.3324(8)
H5 H 0.4312 0.4320 0.3274
H6 H 0.5723 0.4064 0.2833
H7 H 0.5973 0.4542 0.3340
C12 C 0.6655(13) 0.3509(4) 0.3925(7)
H8 H 0.7327 0.3453 0.4413
H9 H 0.7264 0.3543 0.3406
H10 H 0.5958 0.3245 0.3859
O10_2 O 0.4510(6) 0.1632(2) 0.7105(4)
C13_2 C 0.3054(8) 0.2112(3) 0.8038(4)
C14_2 C 0.3512(8) 0.1646(2) 0.7701(5)
C15_2 C 0.2106(8) 0.2246(3) 0.8685(5)
H11_2 H 0.1558 0.2048 0.9060
O11_2 O 0.2933(6) 0.12836(18) 0.8045(3)
O14_2 O 0.6264(7) 0.3970(2) 0.8449(4)
C17_2 C 0.6308(8) 0.4338(3) 0.9778(4)
C20_2 C 0.7036(9) 0.4218(3) 0.8947(5)
H13_2 H 0.4148 0.4042 0.9866
Dy5_2 Dy 0.05239(4) 0.086720(13) 0.79795(2)
Dy8_2 Dy 0.55239(4) 0.086720(13) 0.70205(2)
O19_2 O 0.7933(6) 0.37164(18) 0.6955(3)
O5_3 O 0.6264(7) 0.1030(2) 0.8449(4)
O7_2 O 0.8384(6) 0.0626(2) 0.8805(3)
C4_3 C 0.6308(8) 0.0662(3) 0.9778(4)
C8_3 C 0.7036(9) 0.0782(3) 0.8947(5)
H3_3 H 0.4148 0.0958 0.9866
O12_3 O 0.4559(6) 0.0227(2) 0.7828(4)
C16_3 C 0.3528(9) 0.0105(3) 0.8353(5)
O16_3 O 0.5981(10) 0.1085(3) 0.5532(5)
O17_2 O 0.2154(6) 0.02669(18) 0.8381(4)
C22_3 C 0.5714(13) 0.0862(4) 0.4850(8)
H14_3 H 0.5525 0.0539 0.4922
N2_3 N 0.5662(10) 0.1006(4) 0.4091(6)
C23_3 C 0.5397(13) 0.0750(5) 0.3324(8)
H15_2 H 0.4312 0.0680 0.3274
H16_3 H 0.5723 0.0936 0.2833
H17_3 H 0.5973 0.0458 0.3340
C24_3 C 0.6655(13) 0.1491(4) 0.3925(7)
H18_3 H 0.7327 0.1547 0.4413
H19_3 H 0.7264 0.1457 0.3406
H20_3 H 0.5958 0.1755 0.3859
O18_2 O 0.7933(6) 0.12836(18) 0.6955(3)
O22_2 O 0.3384(6) 0.0626(2) 0.6195(3)
O23_2 O 0.7154(6) 0.02669(18) 0.6619(4)
O1_2 O 0.7067(6) 0.87164(18) 0.1955(3)
O2_3 O 0.5490(6) 0.8368(2) 0.2895(4)
O3_3 O 0.5441(6) 0.9773(2) 0.2172(4)
O6_3 O 0.6348(8) 0.7500 0.2375(5)
C1_3 C 0.6472(9) 0.9895(3) 0.1647(5)
C2_3 C 0.6946(8) 0.7888(3) 0.1962(4)
C3_3 C 0.6488(8) 0.8354(2) 0.2299(5)
O8_3 O 0.4019(10) 0.8915(3) 0.4468(5)
O9_2 O 0.7846(6) 0.97331(18) 0.1619(4)
C7_3 C 0.7894(8) 0.7754(3) 0.1315(5)
H2_3 H 0.8442 0.7952 0.0940
C10_2 C 0.4286(13) 0.9138(4) 0.5150(8)
H4_2 H 0.4475 0.9461 0.5078
N1_2 N 0.4338(10) 0.8994(4) 0.5909(6)
C11_2 C 0.4603(13) 0.9250(5) 0.6676(8)
H5_2 H 0.5688 0.9320 0.6726
H6_2 H 0.4277 0.9064 0.7167
H7_2 H 0.4027 0.9542 0.6660
C12_2 C 0.3345(13) 0.8509(4) 0.6075(7)
H8_2 H 0.2673 0.8453 0.5587
H9_2 H 0.2736 0.8543 0.6594
H10_2 H 0.4042 0.8245 0.6141
C13_3 C 0.6946(8) 0.7112(3) 0.1962(4)
C14_3 C 0.6488(8) 0.6646(2) 0.2299(5)
C15_3 C 0.7894(8) 0.7246(3) 0.1315(5)
H11_3 H 0.8442 0.7048 0.0940
O14_3 O 0.3736(7) 0.8970(2) 0.1551(4)
O15_2 O 0.1616(6) 0.9374(2) 0.1195(3)
C17_3 C 0.3692(8) 0.9338(3) 0.0222(4)
C20_3 C 0.2964(9) 0.9218(3) 0.1053(5)
H13_3 H 0.5852 0.9042 0.0134
O21_2 O 0.6616(6) 0.9374(2) 0.3805(3)
O24_2 O 0.2846(6) 0.97331(18) 0.3381(4)
O8_4 O 0.0981(10) 0.1085(3) 0.9468(5)
O13_3 O 0.2051(5) 0.03408(17) 0.4674(3)
O14_4 O 0.1264(7) 0.1030(2) 0.6551(4)
C17_4 C 0.1308(8) 0.0662(3) 0.5222(4)
C19_3 C 0.1013(8) 0.0255(2) 0.4011(4)
C20_4 C 0.2036(9) 0.0782(3) 0.6053(5)
C5_3 C 0.0281(9) 0.9501(3) 0.5876(5)
H1_3 H 0.1139 0.9501 0.6242
C9_3 C 0.0116(10) 0.9243(3) 0.5109(5)
H3_4 H 0.0852 0.9042 0.4866
O12_4 O 0.0441(6) 0.9773(2) 0.2828(4)
C16_4 C 0.1472(9) 0.9895(3) 0.3353(5)
O2_4 O 0.9510(6) 0.1632(2) 0.7895(4)
O3_4 O 0.9559(6) 0.0227(2) 0.7172(4)
O6_4 O 0.8652(8) 0.2500 0.7375(5)
C1_4 C 0.8528(9) 0.0105(3) 0.6647(5)
C2_4 C 0.8054(8) 0.2112(3) 0.6962(4)
C3_4 C 0.8512(8) 0.1646(2) 0.7299(5)
C7_4 C 0.7106(8) 0.2246(3) 0.6315(5)
H2_4 H 0.6558 0.2048 0.5940
C13_4 C 0.8054(8) 0.2888(3) 0.6962(4)
C14_4 C 0.8512(8) 0.3354(2) 0.7299(5)
C15_4 C 0.7106(8) 0.2754(3) 0.6315(5)
H11_4 H 0.6558 0.2952 0.5940
C18_3 C 0.9719(9) 0.0499(3) 0.4124(5)
H12_3 H 0.8861 0.0499 0.3758
C21_3 C 0.9884(10) 0.0757(3) 0.4891(5)
H13_4 H 0.9148 0.0958 0.5134
O4_3 O 0.7949(5) 0.96592(17) 0.5326(3)
O5_4 O 0.8736(7) 0.8970(2) 0.3449(4)
C4_4 C 0.8692(8) 0.9338(3) 0.4778(4)
C6_3 C 0.8987(8) 0.9745(2) 0.5989(4)
C8_4 C 0.7964(9) 0.9218(3) 0.3947(5)
O16_4 O 0.9019(10) 0.8915(3) 0.0532(5)
H5_3 H 0.0688 0.5680 0.8274
H15_3 H 0.9312 0.4320 0.1726
C10_3 C 0.9286(13) 0.5862(4) 0.9850(8)
H4_3 H 0.9475 0.5539 0.9922
N1_3 N 0.9338(10) 0.6006(4) 0.9091(6)
C11_3 C 0.9603(13) 0.5750(5) 0.8324(8)
H6_3 H 0.9277 0.5936 0.7833
H7_3 H 0.9027 0.5458 0.8340
C12_3 C 0.8345(13) 0.6491(4) 0.8925(7)
H8_3 H 0.7673 0.6547 0.9413
H9_3 H 0.7736 0.6457 0.8406
H10_3 H 0.9042 0.6755 0.8859
O4_4 O 0.7051(5) 0.03408(17) 0.0326(3)
C5_4 C 0.4719(9) 0.0499(3) 0.0876(5)
H1_4 H 0.3861 0.0499 0.1242
C6_4 C 0.6013(8) 0.0255(2) 0.0989(4)
C9_4 C 0.4884(10) 0.0757(3) 0.0109(5)
O13_4 O 0.2949(5) 0.96592(17) 0.9674(3)
C18_4 C 0.5281(9) 0.9501(3) 0.9124(5)
H12_4 H 0.6139 0.9501 0.8758
C19_4 C 0.3987(8) 0.9745(2) 0.9011(4)
C21_4 C 0.5116(10) 0.9243(3) 0.9891(5)
C10_4 C 0.0714(13) 0.0862(4) 0.0150(8)
H4_4 H 0.0525 0.0539 0.0078
N1_4 N 0.0662(10) 0.1006(4) 0.0909(6)
C11_4 C 0.0397(13) 0.0750(5) 0.1676(8)
H6_4 H 0.0723 0.0936 0.2167
H7_4 H 0.0973 0.0458 0.1660
C12_4 C 0.1655(13) 0.1491(4) 0.1075(7)
H8_4 H 0.2327 0.1547 0.0587
H9_4 H 0.2264 0.1457 0.1594
H10_4 H 0.0958 0.1755 0.1141
H15_4 H 0.0688 0.9320 0.8274
H5_4 H 0.9312 0.0680 0.1726
C22_4 C 0.9286(13) 0.9138(4) 0.9850(8)
H14_4 H 0.9475 0.9461 0.9922
N2_4 N 0.9338(10) 0.8994(4) 0.9091(6)
C23_4 C 0.9603(13) 0.9250(5) 0.8324(8)
H16_4 H 0.9277 0.9064 0.7833
H17_4 H 0.9027 0.9542 0.8340
C24_4 C 0.8345(13) 0.8509(4) 0.8925(7)
H18_4 H 0.7673 0.8453 0.9413
H19_4 H 0.7736 0.8543 0.8406
H20_4 H 0.9042 0.8245 0.8859
loop_
_geom_bond_atom_site_label_1
_geom_bond_atom_site_label_2
_geom_bond_site_symmetry_1
_geom_bond_site_symmetry_2
H14 C22 1_555 1_555
N2 C22 1_555 1_555
C23 N2 1_555 1_555
H16 C23 1_555 1_555
H17 C23 1_555 1_555
C24 N2 1_555 1_555
H18 C24 1_555 1_555
H19 C24 1_555 1_555
H20 C24 1_555 1_555
O1 C3 1_555 1_555
O2 C3 1_555 1_555
O4 C4 1_555 1_555
O5 C8 1_555 1_555
O6 C2 1_555 1_555
C1 O3 1_555 1_555
C2 C3 1_555 1_555
O7 C8 1_555 1_555
O9 C1 1_555 1_555
C4 C8 1_555 1_555
C6 O4 1_555 1_555
C7 C2 1_555 1_555
H2 C7 1_555 1_555
O10 C14 1_555 1_555
C13 O6 1_555 1_555
C14 C13 1_555 1_555
C15 C7 1_555 1_555
H11 C15 1_555 1_555
O11 C14 1_555 1_555
Dy2 O5 1_555 1_555
O16 Dy2 1_555 1_555
C18 H12 1_555 1_555
H13 C21 1_555 1_555
Dy4 O7 1_555 1_555
Dy5 O11 1_555 1_555
Dy7 O1 1_555 1_555
O18 Dy2 1_555 1_555
O23 Dy2 1_555 1_555
C1 C6 1_555 1_555
O9 Dy7 1_555 1_555
C13 C15 1_555 1_555
C18 C21 1_555 1_555
O8 Dy1 1_555 1_555
C5 H1 1_555 1_555
H3 C9 1_555 1_555
O13 C17 1_555 1_555
O14 Dy1 1_555 1_555
C16 O12 1_555 1_555
O15 C20 1_555 1_555
O17 C16 1_555 1_555
C17 C20 1_555 1_555
C19 O13 1_555 1_555
C20 O14 1_555 1_555
Dy4 O17 1_555 1_555
Dy7 O15 1_555 1_555
O19 Dy1 1_555 1_555
O24 Dy1 1_555 1_555
C5 C9 1_555 1_555
C16 C19 1_555 1_555
O5_2 C8_2 1_555 1_555
O21 C8_2 1_555 1_555
C4_2 C8_2 1_555 1_555
Dy7 O5_2 1_555 1_555
O12_2 Dy7 1_555 1_555
C16_2 O12_2 1_555 1_555
O16_2 Dy7 1_555 1_555
O24 C16_2 1_555 1_555
C18_2 H12_2 1_555 1_555
C19_2 O13_2 1_555 1_555
C22_2 O16_2 1_555 1_555
H14_2 C22_2 1_555 1_555
N2_2 C22_2 1_555 1_555
C23_2 N2_2 1_555 1_555
H15 C23_2 1_555 1_555
H16_2 C23_2 1_555 1_555
H17_2 C23_2 1_555 1_555
C24_2 N2_2 1_555 1_555
H18_2 C24_2 1_555 1_555
H19_2 C24_2 1_555 1_555
H20_2 C24_2 1_555 1_555
O20_2 Dy7 1_555 1_555
C16_2 C19_2 1_555 1_555
C18_2 C19_2 1_555 1_555
C18_2 C21_2 1_555 1_555
Dy4 O2_2 1_555 1_555
O18 C3_2 1_555 1_555
O2_2 C3_2 1_555 1_555
O3_2 Dy4 1_555 1_555
O6_2 C2_2 1_555 1_555
C1_2 O3_2 1_555 1_555
C2_2 C3_2 1_555 1_555
O8_2 Dy4 1_555 1_555
O23 C1_2 1_555 1_555
C5_2 H1_2 1_555 1_555
C6_2 O4_2 1_555 1_555
C7_2 C2_2 1_555 1_555
H2_2 C7_2 1_555 1_555
C10 O8_2 1_555 1_555
H4 C10 1_555 1_555
N1 C10 1_555 1_555
C11 N1 1_555 1_555
H5 C11 1_555 1_555
H6 C11 1_555 1_555
H7 C11 1_555 1_555
C12 N1 1_555 1_555
H8 C12 1_555 1_555
H9 C12 1_555 1_555
H10 C12 1_555 1_555
O10_2 C14_2 1_555 1_555
C13_2 O6_2 1_555 1_555
C14_2 C13_2 1_555 1_555
C15_2 C7_2 1_555 1_555
H11_2 C15_2 1_555 1_555
O11_2 C14_2 1_555 1_555
O14_2 Dy4 1_555 1_555
O22 C20_2 1_555 1_555
C17_2 C20_2 1_555 1_555
C20_2 O14_2 1_555 1_555
Dy5_2 O11_2 1_555 1_555
Dy8_2 O10_2 1_555 1_555
O19_2 Dy4 1_555 1_555
C1_2 C6_2 1_555 1_555
C5_2 C6_2 1_555 1_555
C5_2 C9_2 1_555 1_555
C13_2 C15_2 1_555 1_555
O5_3 C8_3 1_555 1_555
O7_2 C8_3 1_555 1_555
C4_3 C8_3 1_555 1_555
Dy8_2 O5_3 1_555 1_555
O12_3 Dy8_2 1_555 1_555
C16_3 O12_3 1_555 1_555
O16_3 Dy8_2 1_555 1_555
O17_2 C16_3 1_555 1_555
C22_3 O16_3 1_555 1_555
H14_3 C22_3 1_555 1_555
N2_3 C22_3 1_555 1_555
C23_3 N2_3 1_555 1_555
H15_2 C23_3 1_555 1_555
H16_3 C23_3 1_555 1_555
H17_3 C23_3 1_555 1_555
C24_3 N2_3 1_555 1_555
H18_3 C24_3 1_555 1_555
H19_3 C24_3 1_555 1_555
H20_3 C24_3 1_555 1_555
Dy5_2 O17_2 1_555 1_555
O18_2 Dy8_2 1_555 1_555
O22_2 Dy8_2 1_555 1_555
O23_2 Dy8_2 1_555 1_555
Dy5 O2_3 1_555 1_555
O1_2 C3_3 1_555 1_555
O2_3 C3_3 1_555 1_555
O3_3 Dy5 1_555 1_555
O6_3 C2_3 1_555 1_555
C1_3 O3_3 1_555 1_555
C2_3 C3_3 1_555 1_555
O8_3 Dy5 1_555 1_555
O9_2 C1_3 1_555 1_555
C7_3 C2_3 1_555 1_555
H2_3 C7_3 1_555 1_555
C10_2 O8_3 1_555 1_555
H4_2 C10_2 1_555 1_555
N1_2 C10_2 1_555 1_555
C11_2 N1_2 1_555 1_555
H5_2 C11_2 1_555 1_555
H6_2 C11_2 1_555 1_555
H7_2 C11_2 1_555 1_555
C12_2 N1_2 1_555 1_555
H8_2 C12_2 1_555 1_555
H9_2 C12_2 1_555 1_555
H10_2 C12_2 1_555 1_555
O20_2 C14_3 1_555 1_555
C13_3 O6_3 1_555 1_555
C14_3 C13_3 1_555 1_555
C15_3 C7_3 1_555 1_555
H11_3 C15_3 1_555 1_555
O19 C14_3 1_555 1_555
O14_3 Dy5 1_555 1_555
O15_2 C20_3 1_555 1_555
C17_3 C20_3 1_555 1_555
C20_3 O14_3 1_555 1_555
Dy8 O1_2 1_555 1_555
O21_2 Dy5 1_555 1_555
O24_2 Dy5 1_555 1_555
O9_2 Dy8 1_555 1_555
C13_3 C15_3 1_555 1_555
O8_4 Dy5_2 1_555 1_555
O13_3 C17_4 1_555 1_555
O14_4 Dy5_2 1_555 1_555
O22_2 C20_4 1_555 1_555
C17_4 C20_4 1_555 1_555
C19_3 O13_3 1_555 1_555
C20_4 O14_4 1_555 1_555
C5_3 H1_3 1_555 1_555
H3_4 C9_3 1_555 1_555
C16_4 O12_4 1_555 1_555
O24_2 C16_4 1_555 1_555
C5_3 C9_3 1_555 1_555
O18_2 C3_4 1_555 1_555
O2_4 C3_4 1_555 1_555
O6_4 C2_4 1_555 1_555
C1_4 O3_4 1_555 1_555
C2_4 C3_4 1_555 1_555
O23_2 C1_4 1_555 1_555
C7_4 C2_4 1_555 1_555
H2_4 C7_4 1_555 1_555
O20 C14_4 1_555 1_555
C13_4 O6_4 1_555 1_555
C14_4 C13_4 1_555 1_555
C15_4 C7_4 1_555 1_555
H11_4 C15_4 1_555 1_555
O19_2 C14_4 1_555 1_555
C18_3 H12_3 1_555 1_555
H13_4 C21_3 1_555 1_555
C13_4 C15_4 1_555 1_555
C18_3 C21_3 1_555 1_555
O4_3 C4_4 1_555 1_555
O5_4 C8_4 1_555 1_555
O21_2 C8_4 1_555 1_555
C4_4 C8_4 1_555 1_555
C6_3 O4_3 1_555 1_555
Dy8 O5_4 1_555 1_555
O16_4 Dy8 1_555 1_555
H4_3 C10_3 1_555 1_555
N1_3 C10_3 1_555 1_555
C11_3 N1_3 1_555 1_555
H6_3 C11_3 1_555 1_555
H7_3 C11_3 1_555 1_555
C12_3 N1_3 1_555 1_555
H8_3 C12_3 1_555 1_555
H9_3 C12_3 1_555 1_555
H10_3 C12_3 1_555 1_555
C5_4 H1_4 1_555 1_555
C6_4 O4_4 1_555 1_555
C5_4 C6_4 1_555 1_555
C5_4 C9_4 1_555 1_555
C18_4 H12_4 1_555 1_555
C19_4 O13_4 1_555 1_555
C18_4 C19_4 1_555 1_555
C18_4 C21_4 1_555 1_555
H4_4 C10_4 1_555 1_555
N1_4 C10_4 1_555 1_555
C11_4 N1_4 1_555 1_555
H6_4 C11_4 1_555 1_555
H7_4 C11_4 1_555 1_555
C12_4 N1_4 1_555 1_555
H8_4 C12_4 1_555 1_555
H9_4 C12_4 1_555 1_555
H10_4 C12_4 1_555 1_555
H14_4 C22_4 1_555 1_555
N2_4 C22_4 1_555 1_555
C23_4 N2_4 1_555 1_555
H16_4 C23_4 1_555 1_555
H17_4 C23_4 1_555 1_555
C24_4 N2_4 1_555 1_555
H18_4 C24_4 1_555 1_555
H19_4 C24_4 1_555 1_555
H20_4 C24_4 1_555 1_555

#END
