
###############################################################################
#
# This file contains modified crystal structure data generated from the
# MOF subset of the Cambridge Structural Database (CSD) v543 
# hosted by the Cambridge Crystallographic Data Centre (CCDC).
#
# This work is licensed under the Creative Commons
# Attribution-NonCommercial-ShareAlike 4.0 International License.
# To view a copy of this license, visit
# http://creativecommons.org/licenses/by-nc-sa/4.0/
# or send a letter to
# Creative Commons, PO Box 1866, Mountain View, CA 94042, USA.
#
# CIF created using the CSD Python API on 29 September 2022
# The structure has been converted into the P1 space group
# The structure has a 3D framework
# The original CSD entry RACHUA01 is in the hexagonal crystal system
# The original CSD entry RACHUA01 is in a Sohncke space group
# The framework has been calculated to contain at least 10.0% void space
# The void calculation uses a probe of radius 1.32A, grid spacing 0.4
#
###############################################################################

data_RACHUA01
_chemical_formula_moiety         '(C228 H168 O52 Zn16)n'
_symmetry_cell_setting           triclinic
_symmetry_space_group_name_H-M   'P 1'
_symmetry_Int_Tables_number      1
_space_group_name_Hall           'P 1'
loop_
_symmetry_equiv_pos_site_id
_symmetry_equiv_pos_as_xyz
1 x,y,z
_cell_length_a                   22.249(3)
_cell_length_b                   22.249(3)
_cell_length_c                   25.906(5)
_cell_angle_alpha                90
_cell_angle_beta                 90
_cell_angle_gamma                120
_cell_volume                     11105.9
loop_
_atom_site_label
_atom_site_type_symbol
_atom_site_fract_x
_atom_site_fract_y
_atom_site_fract_z
Zn4 Zn 0.3334 0.6667 0.83361(2)
Zn10 Zn 0.24780(3) 0.66153(2) 0.931639(14)
O9 O 0.25600(17) 0.67388(11) 0.80829(9)
O13 O 0.18234(21) 0.64093(15) 0.87523(9)
C21 C 0.14021(25) 0.64270(17) 0.79173(12)
C23 C 0.15634(24) 0.66291(16) 0.74002(12)
H16 H 0.2018 0.6824 0.7283
C25 C 0.1049(4) 0.6538(2) 0.70711(13)
C27 C 0.0358(4) 0.6245(2) 0.72318(15)
C29 C 0.0198(4) 0.6024(2) 0.77413(17)
C31 C 0.0718(4) 0.6130(2) 0.80879(16)
H20 H 0.0610 0.6003 0.8432
C33 C 0.1099(5) 0.6712(3) 0.65255(16)
H22 H 0.1333 0.6509 0.6340
H24 H 0.1362 0.7212 0.6480
C35 C 0.0340(5) 0.6415(3) 0.63143(17)
C39 C 0.0121(4) 0.5762(2) 0.59863(18)
H30 H 0.0497 0.5817 0.5765
C45 C 0.0229(6) 0.6879(4) 0.5963(3)
H34 H 0.0614 0.7117 0.5725
H36 H 0.0170 0.7219 0.6156
C57 C 0.19646(25) 0.65348(17) 0.82816(13)
Zn1 Zn 0.6667 0.3333 0.33361(2)
Zn2 Zn 0.66153(2) 0.41373(2) 0.431639(14)
O1 O 0.6667 0.3333 0.40796(13)
O2 O 0.67388(11) 0.41788(13) 0.30829(9)
O3 O 0.64093(15) 0.45859(14) 0.37523(9)
C1 C 0.64270(17) 0.50249(19) 0.29173(12)
C2 C 0.66291(16) 0.50657(18) 0.24002(12)
H1 H 0.6824 0.4806 0.2283
C3 C 0.6538(2) 0.5489(3) 0.20711(13)
C4 C 0.6245(2) 0.5887(3) 0.22318(15)
C5 C 0.6024(2) 0.5826(3) 0.27413(17)
H2 H 0.5803 0.6065 0.2851
C6 C 0.6130(2) 0.5412(3) 0.30879(16)
H3 H 0.6003 0.5393 0.3432
C7 C 0.6712(3) 0.5613(4) 0.15255(16)
H4 H 0.6509 0.5176 0.1340
H5 H 0.7212 0.5850 0.1480
C8 C 0.6415(3) 0.6075(4) 0.13143(17)
C9 C 0.6229(3) 0.6337(5) 0.1819(2)
H6 H 0.6566 0.6819 0.1885
H7 H 0.5772 0.6288 0.1793
C10 C 0.5762(2) 0.5641(3) 0.09863(18)
H8 H 0.5817 0.5320 0.0765
H9 H 0.5355 0.5383 0.1202
C11 C 0.5708(2) 0.6190(3) 0.06691(15)
C12 C 0.6368(3) 0.6812(4) 0.0676(2)
C13 C 0.6879(4) 0.6650(4) 0.0963(3)
H10 H 0.7117 0.6503 0.0725
H11 H 0.7219 0.7049 0.1156
C14 C 0.5274(2) 0.6777(3) 0.01305(14)
C15 C 0.5185(2) 0.6175(2) 0.03977(14)
H12 H 0.4759 0.5766 0.0383
C16 C 0.5920(4) 0.7386(3) 0.0159(3)
H13 H 0.5973 0.7785 0.0002
C17 C 0.6492(4) 0.7416(4) 0.0416(3)
H14 H 0.6927 0.7814 0.0413
C19 C 0.65348(17) 0.45702(18) 0.32816(13)
Zn5 Zn 0.58627(2) 0.24780(3) 0.431639(14)
Zn6 Zn 0.75220(3) 0.33847(2) 0.431639(14)
Zn9 Zn 0.33847(2) 0.58627(2) 0.931639(14)
O6 O 0.58212(13) 0.25600(17) 0.30829(9)
O7 O 0.74400(17) 0.32612(11) 0.30829(9)
O8 O 0.32612(11) 0.58212(13) 0.80829(9)
O10 O 0.54141(14) 0.18234(21) 0.37523(9)
O11 O 0.81766(21) 0.35907(15) 0.37523(9)
O12 O 0.35907(15) 0.54141(14) 0.87523(9)
O14 O 0.58279(16) 0.38233(17) 0.47898(10)
O15 O 0.79954(23) 0.41721(16) 0.47898(10)
O16 O 0.61767(17) 0.20046(23) 0.47898(10)
O17 O 0.51997(16) 0.26863(14) 0.46394(10)
O18 O 0.74866(21) 0.48003(16) 0.46394(10)
O19 O 0.73137(14) 0.25134(21) 0.46394(10)
C20 C 0.35730(17) 0.49751(19) 0.79173(12)
C22 C 0.33709(16) 0.49343(18) 0.74002(12)
H15 H 0.3176 0.5194 0.7283
C24 C 0.3462(2) 0.4511(3) 0.70711(13)
C26 C 0.3755(2) 0.4113(3) 0.72318(15)
C28 C 0.3976(2) 0.4174(3) 0.77413(17)
H17 H 0.4197 0.3935 0.7851
H18 H 0.9738 0.5803 0.7851
C30 C 0.3870(2) 0.4588(3) 0.80879(16)
H19 H 0.3997 0.4607 0.8432
C32 C 0.3288(3) 0.4387(4) 0.65255(16)
H21 H 0.3491 0.4824 0.6340
H23 H 0.2788 0.4150 0.6480
C34 C 0.3585(3) 0.3925(4) 0.63143(17)
C36 C 0.3771(3) 0.3663(5) 0.6819(2)
C37 C 0.9892(6) 0.6229(3) 0.6819(2)
H25 H 0.3434 0.3181 0.6885
H26 H 0.9747 0.6566 0.6885
H27 H 0.4228 0.3712 0.6793
H28 H 0.9484 0.5772 0.6793
C38 C 0.4238(2) 0.4359(3) 0.59863(18)
H29 H 0.4183 0.4680 0.5765
H31 H 0.4645 0.4617 0.6202
H32 H 0.9972 0.5355 0.6202
C40 C 0.4292(2) 0.3810(3) 0.56691(15)
C41 C 0.9518(4) 0.5708(2) 0.56691(15)
C42 C 0.3632(3) 0.3188(4) 0.5676(2)
C43 C 0.9556(5) 0.6368(3) 0.5676(2)
C44 C 0.3121(4) 0.3350(4) 0.5963(3)
H33 H 0.2883 0.3497 0.5725
H35 H 0.2781 0.2951 0.6156
C46 C 0.4726(2) 0.3223(3) 0.51305(14)
C47 C 0.8497(4) 0.5274(2) 0.51305(14)
C48 C 0.4815(2) 0.3825(2) 0.53977(14)
C49 C 0.9010(3) 0.5185(2) 0.53977(14)
H37 H 0.5241 0.4234 0.5383
H38 H 0.8993 0.4759 0.5383
C50 C 0.4080(4) 0.2614(3) 0.5159(3)
C51 C 0.8534(5) 0.5920(4) 0.5159(3)
H39 H 0.4027 0.2215 0.5002
H40 H 0.8188 0.5973 0.5002
C52 C 0.3508(4) 0.2584(4) 0.5416(3)
C53 C 0.9076(6) 0.6492(4) 0.5416(3)
H41 H 0.3073 0.2186 0.5413
H42 H 0.9113 0.6927 0.5413
C54 C 0.5286(2) 0.3235(2) 0.48380(13)
C55 C 0.7949(3) 0.4714(2) 0.48380(13)
C56 C 0.34652(17) 0.54298(18) 0.82816(13)
O4 O 0.41721(16) 0.61767(17) 0.97898(10)
O5 O 0.48003(16) 0.73137(14) 0.96394(10)
C18 C 0.4714(2) 0.6765(2) 0.98380(13)
Zn8 Zn 0.41373(2) 0.75220(3) 0.931639(14)
H18_2 H 0.0262 0.4197 0.2851
C37_2 C 0.0108(6) 0.3771(3) 0.1819(2)
H26_2 H 0.0253 0.3434 0.1885
H28_2 H 0.0516 0.4228 0.1793
H32_2 H 0.0028 0.4645 0.1202
C41_2 C 0.0482(4) 0.4292(2) 0.06691(15)
C43_2 C 0.0444(5) 0.3632(3) 0.0676(2)
C47_2 C 0.1503(4) 0.4726(2) 0.01305(14)
C49_2 C 0.0990(3) 0.4815(2) 0.03977(14)
H38_2 H 0.1007 0.5241 0.0383
C51_2 C 0.1466(5) 0.4080(4) 0.0159(3)
H40_2 H 0.1812 0.4027 0.0002
C53_2 C 0.0924(6) 0.3508(4) 0.0416(3)
H42_2 H 0.0887 0.3073 0.0413
O1_2 O 0.3333 0.6667 0.90796(13)
O6_2 O 0.41788(13) 0.74400(17) 0.80829(9)
O10_2 O 0.45859(14) 0.81766(21) 0.87523(9)
O15_2 O 0.20046(23) 0.58279(16) 0.97898(10)
O16_2 O 0.38233(17) 0.79954(23) 0.97898(10)
O18_2 O 0.25134(21) 0.51997(16) 0.96394(10)
O19_2 O 0.26863(14) 0.74866(21) 0.96394(10)
C55_2 C 0.2051(3) 0.5286(2) 0.98380(13)
C21_2 C 0.85979(25) 0.35730(17) 0.29173(12)
C23_2 C 0.84366(24) 0.33709(16) 0.24002(12)
H16_2 H 0.7982 0.3176 0.2283
C25_2 C 0.8951(4) 0.3462(2) 0.20711(13)
C27_2 C 0.9642(4) 0.3755(2) 0.22318(15)
C29_2 C 0.9802(4) 0.3976(2) 0.27413(17)
C31_2 C 0.9282(4) 0.3870(2) 0.30879(16)
H20_2 H 0.9390 0.3997 0.3432
C33_2 C 0.8901(5) 0.3288(3) 0.15255(16)
H22_2 H 0.8667 0.3491 0.1340
H24_2 H 0.8638 0.2788 0.1480
C35_2 C 0.9660(5) 0.3585(3) 0.13143(17)
C39_2 C 0.9879(4) 0.4238(2) 0.09863(18)
H30_2 H 0.9503 0.4183 0.0765
C45_2 C 0.9771(6) 0.3121(4) 0.0963(3)
H34_2 H 0.9386 0.2883 0.0725
H36_2 H 0.9830 0.2781 0.1156
C57_2 C 0.80354(25) 0.34652(17) 0.32816(13)
C1_2 C 0.49751(19) 0.14021(25) 0.29173(12)
C2_2 C 0.49343(18) 0.15634(24) 0.24002(12)
H1_2 H 0.5194 0.2018 0.2283
C3_2 C 0.4511(3) 0.1049(4) 0.20711(13)
C4_2 C 0.4113(3) 0.0358(4) 0.22318(15)
C5_2 C 0.4174(3) 0.0198(4) 0.27413(17)
C6_2 C 0.4588(3) 0.0718(4) 0.30879(16)
H3_2 H 0.4607 0.0610 0.3432
C7_2 C 0.4387(4) 0.1099(5) 0.15255(16)
H4_2 H 0.4824 0.1333 0.1340
H5_2 H 0.4150 0.1362 0.1480
C8_2 C 0.3925(4) 0.0340(5) 0.13143(17)
C10_2 C 0.4359(3) 0.0121(4) 0.09863(18)
H8_2 H 0.4680 0.0497 0.0765
C13_2 C 0.3350(4) 0.0229(6) 0.0963(3)
H10_2 H 0.3497 0.0614 0.0725
H11_2 H 0.2951 0.0170 0.1156
C19_2 C 0.54298(18) 0.19646(25) 0.32816(13)
H17_2 H 0.6065 0.0262 0.7851
C36_2 C 0.6337(5) 0.0108(6) 0.6819(2)
H25_2 H 0.6819 0.0253 0.6885
H27_2 H 0.6288 0.0516 0.6793
H31_2 H 0.5383 0.0028 0.6202
C40_2 C 0.6190(3) 0.0482(4) 0.56691(15)
C42_2 C 0.6812(4) 0.0444(5) 0.5676(2)
C46_2 C 0.6777(3) 0.1503(4) 0.51305(14)
C48_2 C 0.6175(2) 0.0990(3) 0.53977(14)
H37_2 H 0.5766 0.1007 0.5383
C50_2 C 0.7386(3) 0.1466(5) 0.5159(3)
H39_2 H 0.7785 0.1812 0.5002
C52_2 C 0.7416(4) 0.0924(6) 0.5416(3)
H41_2 H 0.7814 0.0887 0.5413
C54_2 C 0.6765(2) 0.2051(3) 0.48380(13)
H2_2 H 0.3935 0.9738 0.2851
C9_2 C 0.3663(5) 0.9892(6) 0.1819(2)
H6_2 H 0.3181 0.9747 0.1885
H7_2 H 0.3712 0.9484 0.1793
H9_2 H 0.4617 0.9972 0.1202
C11_2 C 0.3810(3) 0.9518(4) 0.06691(15)
C12_2 C 0.3188(4) 0.9556(5) 0.0676(2)
C14_2 C 0.3223(3) 0.8497(4) 0.01305(14)
C15_2 C 0.3825(2) 0.9010(3) 0.03977(14)
H12_2 H 0.4234 0.8993 0.0383
C16_2 C 0.2614(3) 0.8534(5) 0.0159(3)
H13_2 H 0.2215 0.8188 0.0002
C17_2 C 0.2584(4) 0.9076(6) 0.0416(3)
H14_2 H 0.2186 0.9113 0.0413
C20_2 C 0.50249(19) 0.85979(25) 0.79173(12)
C22_2 C 0.50657(18) 0.84366(24) 0.74002(12)
H15_2 H 0.4806 0.7982 0.7283
C24_2 C 0.5489(3) 0.8951(4) 0.70711(13)
C26_2 C 0.5887(3) 0.9642(4) 0.72318(15)
C28_2 C 0.5826(3) 0.9802(4) 0.77413(17)
C30_2 C 0.5412(3) 0.9282(4) 0.80879(16)
H19_2 H 0.5393 0.9390 0.8432
C32_2 C 0.5613(4) 0.8901(5) 0.65255(16)
H21_2 H 0.5176 0.8667 0.6340
H23_2 H 0.5850 0.8638 0.6480
C34_2 C 0.6075(4) 0.9660(5) 0.63143(17)
C38_2 C 0.5641(3) 0.9879(4) 0.59863(18)
H29_2 H 0.5320 0.9503 0.5765
C44_2 C 0.6650(4) 0.9771(6) 0.5963(3)
H33_2 H 0.6503 0.9386 0.5725
H35_2 H 0.7049 0.9830 0.6156
C56_2 C 0.45702(18) 0.80354(25) 0.82816(13)
C18_2 C 0.3235(2) 0.7949(3) 0.98380(13)
Zn1_2 Zn 0.6667 0.3333 0.16639(2)
Zn2_2 Zn 0.58627(2) 0.33847(2) 0.068361(14)
O1_3 O 0.6667 0.3333 0.09204(13)
O2_2 O 0.58212(13) 0.32612(11) 0.19171(9)
O3_2 O 0.54141(14) 0.35907(15) 0.12477(9)
O4_2 O 0.38233(17) 0.58279(16) 0.52102(10)
O5_2 O 0.26863(14) 0.51997(16) 0.53606(10)
C1_3 C 0.49751(19) 0.35730(17) 0.20827(12)
C2_3 C 0.49343(18) 0.33709(16) 0.25998(12)
H1_3 H 0.5194 0.3176 0.2717
C3_3 C 0.4511(3) 0.3462(2) 0.29289(13)
C4_3 C 0.4113(3) 0.3755(2) 0.27682(15)
C5_3 C 0.4174(3) 0.3976(2) 0.22587(17)
H2_3 H 0.3935 0.4197 0.2149
C6_3 C 0.4588(3) 0.3870(2) 0.19121(16)
H3_3 H 0.4607 0.3997 0.1568
C7_3 C 0.4387(4) 0.3288(3) 0.34745(16)
H4_3 H 0.4824 0.3491 0.3660
H5_3 H 0.4150 0.2788 0.3520
C8_3 C 0.3925(4) 0.3585(3) 0.36857(17)
C9_3 C 0.3663(5) 0.3771(3) 0.3181(2)
H6_3 H 0.3181 0.3434 0.3115
H7_3 H 0.3712 0.4228 0.3207
C10_3 C 0.4359(3) 0.4238(2) 0.40137(18)
H8_3 H 0.4680 0.4183 0.4235
H9_3 H 0.4617 0.4645 0.3798
C11_3 C 0.3810(3) 0.4292(2) 0.43309(15)
C12_3 C 0.3188(4) 0.3632(3) 0.4324(2)
C13_3 C 0.3350(4) 0.3121(4) 0.4037(3)
H10_3 H 0.3497 0.2883 0.4275
H11_3 H 0.2951 0.2781 0.3844
C14_3 C 0.3223(3) 0.4726(2) 0.48695(14)
C15_3 C 0.3825(2) 0.4815(2) 0.46023(14)
H12_3 H 0.4234 0.5241 0.4617
C16_3 C 0.2614(3) 0.4080(4) 0.4841(3)
H13_3 H 0.2215 0.4027 0.4998
C17_3 C 0.2584(4) 0.3508(4) 0.4584(3)
H14_3 H 0.2186 0.3073 0.4587
C18_3 C 0.3235(2) 0.5286(2) 0.51620(13)
C19_3 C 0.54298(18) 0.34652(17) 0.17184(13)
Zn5_2 Zn 0.75220(3) 0.41373(2) 0.068361(14)
Zn6_2 Zn 0.66153(2) 0.24780(3) 0.068361(14)
Zn7 Zn 0.41373(2) 0.66153(2) 0.568361(14)
Zn8_2 Zn 0.24780(3) 0.58627(2) 0.568361(14)
O6_3 O 0.74400(17) 0.41788(13) 0.19171(9)
O7_2 O 0.67388(11) 0.25600(17) 0.19171(9)
O10_3 O 0.81766(21) 0.45859(14) 0.12477(9)
O11_2 O 0.64093(15) 0.18234(21) 0.12477(9)
O14_2 O 0.61767(17) 0.41721(16) 0.02102(10)
O15_3 O 0.58279(16) 0.20046(23) 0.02102(10)
O16_3 O 0.79954(23) 0.38233(17) 0.02102(10)
O17_2 O 0.73137(14) 0.48003(16) 0.03606(10)
O18_3 O 0.51997(16) 0.25134(21) 0.03606(10)
O19_3 O 0.74866(21) 0.26863(14) 0.03606(10)
C54_3 C 0.6765(2) 0.4714(2) 0.01620(13)
C55_3 C 0.5286(2) 0.2051(3) 0.01620(13)
Zn3 Zn 0.3333 0.6667 0.66639(2)
O8_2 O 0.41788(13) 0.67388(11) 0.69171(9)
O12_2 O 0.45859(14) 0.64093(15) 0.62477(9)
C20_3 C 0.50249(19) 0.64270(17) 0.70827(12)
C22_3 C 0.50657(18) 0.66291(16) 0.75998(12)
H15_3 H 0.4806 0.6824 0.7717
C24_3 C 0.5489(3) 0.6538(2) 0.79289(13)
C26_3 C 0.5887(3) 0.6245(2) 0.77682(15)
C28_3 C 0.5826(3) 0.6024(2) 0.72587(17)
H17_3 H 0.6065 0.5803 0.7149
H18_3 H 0.4197 0.0262 0.7149
C30_3 C 0.5412(3) 0.6130(2) 0.69121(16)
H19_3 H 0.5393 0.6003 0.6568
C32_3 C 0.5613(4) 0.6712(3) 0.84745(16)
H21_3 H 0.5176 0.6509 0.8660
H23_3 H 0.5850 0.7212 0.8520
C34_3 C 0.6075(4) 0.6415(3) 0.86857(17)
C36_3 C 0.6337(5) 0.6229(3) 0.8181(2)
C37_3 C 0.3771(3) 0.0108(6) 0.8181(2)
H25_3 H 0.6819 0.6566 0.8115
H26_3 H 0.3434 0.0253 0.8115
H27_3 H 0.6288 0.5772 0.8207
H28_3 H 0.4228 0.0516 0.8207
C38_3 C 0.5641(3) 0.5762(2) 0.90137(18)
H29_3 H 0.5320 0.5817 0.9235
H31_3 H 0.5383 0.5355 0.8798
H32_3 H 0.4645 0.0028 0.8798
C40_3 C 0.6190(3) 0.5708(2) 0.93309(15)
C41_3 C 0.4292(2) 0.0482(4) 0.93309(15)
C42_3 C 0.6812(4) 0.6368(3) 0.9324(2)
C43_3 C 0.3632(3) 0.0444(5) 0.9324(2)
C44_3 C 0.6650(4) 0.6879(4) 0.9037(3)
H33_3 H 0.6503 0.7117 0.9275
H35_3 H 0.7049 0.7219 0.8844
C46_3 C 0.6777(3) 0.5274(2) 0.98695(14)
C47_3 C 0.4726(2) 0.1503(4) 0.98695(14)
C48_3 C 0.6175(2) 0.5185(2) 0.96023(14)
C49_3 C 0.4815(2) 0.0990(3) 0.96023(14)
H37_3 H 0.5766 0.4759 0.9617
H38_3 H 0.5241 0.1007 0.9617
C50_3 C 0.7386(3) 0.5920(4) 0.9841(3)
C51_3 C 0.4080(4) 0.1466(5) 0.9841(3)
H39_3 H 0.7785 0.5973 0.9998
H40_3 H 0.4027 0.1812 0.9998
C52_3 C 0.7416(4) 0.6492(4) 0.9584(3)
C53_3 C 0.3508(4) 0.0924(6) 0.9584(3)
H41_3 H 0.7814 0.6927 0.9587
H42_3 H 0.3073 0.0887 0.9587
C56_3 C 0.45702(18) 0.65348(17) 0.67184(13)
Zn10_2 Zn 0.33847(2) 0.75220(3) 0.568361(14)
O9_2 O 0.32612(11) 0.74400(17) 0.69171(9)
O13_2 O 0.35907(15) 0.81766(21) 0.62477(9)
C21_3 C 0.35730(17) 0.85979(25) 0.70827(12)
C23_3 C 0.33709(16) 0.84366(24) 0.75998(12)
H16_3 H 0.3176 0.7982 0.7717
C25_3 C 0.3462(2) 0.8951(4) 0.79289(13)
C27_3 C 0.3755(2) 0.9642(4) 0.77682(15)
C29_3 C 0.3976(2) 0.9802(4) 0.72587(17)
C31_3 C 0.3870(2) 0.9282(4) 0.69121(16)
H20_3 H 0.3997 0.9390 0.6568
C33_3 C 0.3288(3) 0.8901(5) 0.84745(16)
H22_3 H 0.3491 0.8667 0.8660
H24_3 H 0.2788 0.8638 0.8520
C35_3 C 0.3585(3) 0.9660(5) 0.86857(17)
C39_3 C 0.4238(2) 0.9879(4) 0.90137(18)
H30_3 H 0.4183 0.9503 0.9235
C45_3 C 0.3121(4) 0.9771(6) 0.9037(3)
H34_3 H 0.2883 0.9386 0.9275
H36_3 H 0.2781 0.9830 0.8844
C57_3 C 0.34652(17) 0.80354(25) 0.67184(13)
C21_4 C 0.64270(17) 0.14021(25) 0.20827(12)
C23_4 C 0.66291(16) 0.15634(24) 0.25998(12)
H16_4 H 0.6824 0.2018 0.2717
C25_4 C 0.6538(2) 0.1049(4) 0.29289(13)
C27_4 C 0.6245(2) 0.0358(4) 0.27682(15)
C29_4 C 0.6024(2) 0.0198(4) 0.22587(17)
C31_4 C 0.6130(2) 0.0718(4) 0.19121(16)
H20_4 H 0.6003 0.0610 0.1568
C33_4 C 0.6712(3) 0.1099(5) 0.34745(16)
H22_4 H 0.6509 0.1333 0.3660
H24_4 H 0.7212 0.1362 0.3520
C35_4 C 0.6415(3) 0.0340(5) 0.36857(17)
C39_4 C 0.5762(2) 0.0121(4) 0.40137(18)
H30_4 H 0.5817 0.0497 0.4235
C45_4 C 0.6879(4) 0.0229(6) 0.4037(3)
H34_4 H 0.7117 0.0614 0.4275
H36_4 H 0.7219 0.0170 0.3844
C57_4 C 0.65348(17) 0.19646(25) 0.17184(13)
O1_4 O 0.3333 0.6667 0.59204(13)
O6_4 O 0.25600(17) 0.58212(13) 0.69171(9)
O10_4 O 0.18234(21) 0.54141(14) 0.62477(9)
O15_4 O 0.41721(16) 0.79954(23) 0.52102(10)
O16_4 O 0.20046(23) 0.61767(17) 0.52102(10)
O18_4 O 0.48003(16) 0.74866(21) 0.53606(10)
O19_4 O 0.25134(21) 0.73137(14) 0.53606(10)
H18_4 H 0.5803 0.9738 0.2149
C37_4 C 0.6229(3) 0.9892(6) 0.3181(2)
H26_4 H 0.6566 0.9747 0.3115
H28_4 H 0.5772 0.9484 0.3207
H32_4 H 0.5355 0.9972 0.3798
C41_4 C 0.5708(2) 0.9518(4) 0.43309(15)
C43_4 C 0.6368(3) 0.9556(5) 0.4324(2)
C47_4 C 0.5274(2) 0.8497(4) 0.48695(14)
C49_4 C 0.5185(2) 0.9010(3) 0.46023(14)
H38_4 H 0.4759 0.8993 0.4617
C51_4 C 0.5920(4) 0.8534(5) 0.4841(3)
H40_4 H 0.5973 0.8188 0.4998
C53_4 C 0.6492(4) 0.9076(6) 0.4584(3)
H42_4 H 0.6927 0.9113 0.4587
C55_4 C 0.4714(2) 0.7949(3) 0.51620(13)
C1_4 C 0.14021(25) 0.49751(19) 0.70827(12)
C2_4 C 0.15634(24) 0.49343(18) 0.75998(12)
H1_4 H 0.2018 0.5194 0.7717
C3_4 C 0.1049(4) 0.4511(3) 0.79289(13)
C4_4 C 0.0358(4) 0.4113(3) 0.77682(15)
C5_4 C 0.0198(4) 0.4174(3) 0.72587(17)
C6_4 C 0.0718(4) 0.4588(3) 0.69121(16)
H3_4 H 0.0610 0.4607 0.6568
C7_4 C 0.1099(5) 0.4387(4) 0.84745(16)
H4_4 H 0.1333 0.4824 0.8660
H5_4 H 0.1362 0.4150 0.8520
C8_4 C 0.0340(5) 0.3925(4) 0.86857(17)
C10_4 C 0.0121(4) 0.4359(3) 0.90137(18)
H8_4 H 0.0497 0.4680 0.9235
C13_4 C 0.0229(6) 0.3350(4) 0.9037(3)
H10_4 H 0.0614 0.3497 0.9275
H11_4 H 0.0170 0.2951 0.8844
C19_4 C 0.19646(25) 0.54298(18) 0.67184(13)
H17_4 H 0.0262 0.6065 0.2149
C36_4 C 0.0108(6) 0.6337(5) 0.3181(2)
H25_4 H 0.0253 0.6819 0.3115
H27_4 H 0.0516 0.6288 0.3207
H31_4 H 0.0028 0.5383 0.3798
C40_4 C 0.0482(4) 0.6190(3) 0.43309(15)
C42_4 C 0.0444(5) 0.6812(4) 0.4324(2)
C46_4 C 0.1503(4) 0.6777(3) 0.48695(14)
C48_4 C 0.0990(3) 0.6175(2) 0.46023(14)
H37_4 H 0.1007 0.5766 0.4617
C50_4 C 0.1466(5) 0.7386(3) 0.4841(3)
H39_4 H 0.1812 0.7785 0.4998
C52_4 C 0.0924(6) 0.7416(4) 0.4584(3)
H41_4 H 0.0887 0.7814 0.4587
C54_4 C 0.2051(3) 0.6765(2) 0.51620(13)
C18_4 C 0.7949(3) 0.3235(2) 0.01620(13)
H2_4 H 0.9738 0.3935 0.7149
C9_4 C 0.9892(6) 0.3663(5) 0.8181(2)
H6_4 H 0.9747 0.3181 0.8115
H7_4 H 0.9484 0.3712 0.8207
H9_4 H 0.9972 0.4617 0.8798
C11_4 C 0.9518(4) 0.3810(3) 0.93309(15)
C12_4 C 0.9556(5) 0.3188(4) 0.9324(2)
C14_4 C 0.8497(4) 0.3223(3) 0.98695(14)
C15_4 C 0.9010(3) 0.3825(2) 0.96023(14)
H12_4 H 0.8993 0.4234 0.9617
C16_4 C 0.8534(5) 0.2614(3) 0.9841(3)
H13_4 H 0.8188 0.2215 0.9998
C17_4 C 0.9076(6) 0.2584(4) 0.9584(3)
H14_4 H 0.9113 0.2186 0.9587
C20_4 C 0.85979(25) 0.50249(19) 0.20827(12)
C22_4 C 0.84366(24) 0.50657(18) 0.25998(12)
H15_4 H 0.7982 0.4806 0.2717
C24_4 C 0.8951(4) 0.5489(3) 0.29289(13)
C26_4 C 0.9642(4) 0.5887(3) 0.27682(15)
C28_4 C 0.9802(4) 0.5826(3) 0.22587(17)
C30_4 C 0.9282(4) 0.5412(3) 0.19121(16)
H19_4 H 0.9390 0.5393 0.1568
C32_4 C 0.8901(5) 0.5613(4) 0.34745(16)
H21_4 H 0.8667 0.5176 0.3660
H23_4 H 0.8638 0.5850 0.3520
C34_4 C 0.9660(5) 0.6075(4) 0.36857(17)
C38_4 C 0.9879(4) 0.5641(3) 0.40137(18)
H29_4 H 0.9503 0.5320 0.4235
C44_4 C 0.9771(6) 0.6650(4) 0.4037(3)
H33_4 H 0.9386 0.6503 0.4275
H35_4 H 0.9830 0.7049 0.3844
C56_4 C 0.80354(25) 0.45702(18) 0.17184(13)
loop_
_geom_bond_atom_site_label_1
_geom_bond_atom_site_label_2
_geom_bond_site_symmetry_1
_geom_bond_site_symmetry_2
Zn4 O9 1_555 1_555
Zn10 O13 1_555 1_555
O9 C57 1_555 1_555
O13 C57 1_555 1_555
C21 C23 1_555 1_555
C23 H16 1_555 1_555
C25 C23 1_555 1_555
C27 C25 1_555 1_555
C29 C27 1_555 1_555
C31 C21 1_555 1_555
H20 C31 1_555 1_555
C33 C25 1_555 1_555
H22 C33 1_555 1_555
H24 C33 1_555 1_555
C35 C33 1_555 1_555
C39 C35 1_555 1_555
H30 C39 1_555 1_555
C45 C35 1_555 1_555
H34 C45 1_555 1_555
H36 C45 1_555 1_555
C57 C21 1_555 1_555
C29 C31 1_555 1_555
Zn1 O1 1_555 1_555
Zn2 O1 1_555 1_555
O1 Zn5 1_555 1_555
O2 Zn1 1_555 1_555
O3 Zn2 1_555 1_555
C1 C2 1_555 1_555
C2 H1 1_555 1_555
C3 C2 1_555 1_555
C4 C3 1_555 1_555
C5 C4 1_555 1_555
H2 C5 1_555 1_555
C6 C1 1_555 1_555
H3 C6 1_555 1_555
C7 C3 1_555 1_555
H4 C7 1_555 1_555
H5 C7 1_555 1_555
C8 C7 1_555 1_555
C9 C4 1_555 1_555
H6 C9 1_555 1_555
H7 C9 1_555 1_555
C10 C8 1_555 1_555
H8 C10 1_555 1_555
H9 C10 1_555 1_555
C11 C10 1_555 1_555
C12 C11 1_555 1_555
C13 C8 1_555 1_555
H10 C13 1_555 1_555
H11 C13 1_555 1_555
C14 C15 1_555 1_555
C15 C11 1_555 1_555
H12 C15 1_555 1_555
C16 C14 1_555 1_555
H13 C16 1_555 1_555
C17 C12 1_555 1_555
H14 C17 1_555 1_555
C19 O2 1_555 1_555
Zn4 O8 1_555 1_555
Zn5 O10 1_555 1_555
Zn6 O1 1_555 1_555
Zn9 O12 1_555 1_555
O6 Zn1 1_555 1_555
O7 Zn1 1_555 1_555
O8 C56 1_555 1_555
O11 Zn6 1_555 1_555
O12 C56 1_555 1_555
O14 Zn2 1_555 1_555
O15 Zn6 1_555 1_555
O16 Zn5 1_555 1_555
O17 Zn5 1_555 1_555
O18 Zn2 1_555 1_555
O19 Zn6 1_555 1_555
C20 C22 1_555 1_555
C22 H15 1_555 1_555
C24 C22 1_555 1_555
C26 C24 1_555 1_555
C28 C26 1_555 1_555
H17 C28 1_555 1_555
C30 C20 1_555 1_555
H19 C30 1_555 1_555
C32 C24 1_555 1_555
H21 C32 1_555 1_555
H23 C32 1_555 1_555
C34 C32 1_555 1_555
C36 C26 1_555 1_555
H25 C36 1_555 1_555
H26 C37 1_555 1_555
H27 C36 1_555 1_555
H28 C37 1_555 1_555
C38 C34 1_555 1_555
H29 C38 1_555 1_555
H31 C38 1_555 1_555
C40 C38 1_555 1_555
C42 C40 1_555 1_555
C43 C41 1_555 1_555
C44 C34 1_555 1_555
H33 C44 1_555 1_555
H35 C44 1_555 1_555
C46 C48 1_555 1_555
C47 C49 1_555 1_555
C48 C40 1_555 1_555
C49 C41 1_555 1_555
H37 C48 1_555 1_555
H38 C49 1_555 1_555
C50 C46 1_555 1_555
C51 C47 1_555 1_555
H39 C50 1_555 1_555
H40 C51 1_555 1_555
C52 C42 1_555 1_555
C53 C43 1_555 1_555
H41 C52 1_555 1_555
H42 C53 1_555 1_555
C54 O14 1_555 1_555
C55 O15 1_555 1_555
C56 C20 1_555 1_555
O3 C19 1_555 1_555
C1 C19 1_555 1_555
C5 C6 1_555 1_555
C8 C9 1_555 1_555
C12 C13 1_555 1_555
C16 C17 1_555 1_555
O17 C54 1_555 1_555
O18 C55 1_555 1_555
C28 C30 1_555 1_555
C34 C36 1_555 1_555
C42 C44 1_555 1_555
C46 C54 1_555 1_555
C47 C55 1_555 1_555
C50 C52 1_555 1_555
C51 C53 1_555 1_555
O4 C18 1_555 1_555
O5 C18 1_555 1_555
Zn9 O4 1_555 1_555
Zn8 O5 1_555 1_555
H26_2 C37_2 1_555 1_555
H28_2 C37_2 1_555 1_555
C43_2 C41_2 1_555 1_555
C47_2 C49_2 1_555 1_555
C49_2 C41_2 1_555 1_555
H38_2 C49_2 1_555 1_555
C51_2 C47_2 1_555 1_555
H40_2 C51_2 1_555 1_555
C53_2 C43_2 1_555 1_555
H42_2 C53_2 1_555 1_555
C51_2 C53_2 1_555 1_555
Zn4 O1_2 1_555 1_555
Zn9 O1_2 1_555 1_555
O1_2 Zn8 1_555 1_555
Zn8 O10_2 1_555 1_555
Zn10 O1_2 1_555 1_555
O6_2 Zn4 1_555 1_555
O15_2 Zn10 1_555 1_555
O16_2 Zn8 1_555 1_555
O18_2 Zn9 1_555 1_555
O19_2 Zn10 1_555 1_555
C55_2 O15_2 1_555 1_555
O18_2 C55_2 1_555 1_555
O7 C57_2 1_555 1_555
O11 C57_2 1_555 1_555
C21_2 C23_2 1_555 1_555
C23_2 H16_2 1_555 1_555
C25_2 C23_2 1_555 1_555
C27_2 C25_2 1_555 1_555
C29_2 C27_2 1_555 1_555
C31_2 C21_2 1_555 1_555
H20_2 C31_2 1_555 1_555
C33_2 C25_2 1_555 1_555
H22_2 C33_2 1_555 1_555
H24_2 C33_2 1_555 1_555
C35_2 C33_2 1_555 1_555
C39_2 C35_2 1_555 1_555
H30_2 C39_2 1_555 1_555
C45_2 C35_2 1_555 1_555
H34_2 C45_2 1_555 1_555
H36_2 C45_2 1_555 1_555
C57_2 C21_2 1_555 1_555
C29_2 C31_2 1_555 1_555
C1_2 C2_2 1_555 1_555
C2_2 H1_2 1_555 1_555
C3_2 C2_2 1_555 1_555
C4_2 C3_2 1_555 1_555
C5_2 C4_2 1_555 1_555
C6_2 C1_2 1_555 1_555
H3_2 C6_2 1_555 1_555
C7_2 C3_2 1_555 1_555
H4_2 C7_2 1_555 1_555
H5_2 C7_2 1_555 1_555
C8_2 C7_2 1_555 1_555
C10_2 C8_2 1_555 1_555
H8_2 C10_2 1_555 1_555
C13_2 C8_2 1_555 1_555
H10_2 C13_2 1_555 1_555
H11_2 C13_2 1_555 1_555
C19_2 O6 1_555 1_555
H25_2 C36_2 1_555 1_555
H27_2 C36_2 1_555 1_555
C42_2 C40_2 1_555 1_555
C46_2 C48_2 1_555 1_555
C48_2 C40_2 1_555 1_555
H37_2 C48_2 1_555 1_555
C50_2 C46_2 1_555 1_555
H39_2 C50_2 1_555 1_555
C52_2 C42_2 1_555 1_555
H41_2 C52_2 1_555 1_555
C54_2 O16 1_555 1_555
O10 C19_2 1_555 1_555
C1_2 C19_2 1_555 1_555
C5_2 C6_2 1_555 1_555
O19 C54_2 1_555 1_555
C46_2 C54_2 1_555 1_555
C50_2 C52_2 1_555 1_555
H6_2 C9_2 1_555 1_555
H7_2 C9_2 1_555 1_555
C12_2 C11_2 1_555 1_555
C14_2 C15_2 1_555 1_555
C15_2 C11_2 1_555 1_555
H12_2 C15_2 1_555 1_555
C16_2 C14_2 1_555 1_555
H13_2 C16_2 1_555 1_555
C17_2 C12_2 1_555 1_555
H14_2 C17_2 1_555 1_555
O6_2 C56_2 1_555 1_555
O10_2 C56_2 1_555 1_555
C20_2 C22_2 1_555 1_555
C22_2 H15_2 1_555 1_555
C24_2 C22_2 1_555 1_555
C26_2 C24_2 1_555 1_555
C28_2 C26_2 1_555 1_555
C30_2 C20_2 1_555 1_555
H19_2 C30_2 1_555 1_555
C32_2 C24_2 1_555 1_555
H21_2 C32_2 1_555 1_555
H23_2 C32_2 1_555 1_555
C34_2 C32_2 1_555 1_555
C38_2 C34_2 1_555 1_555
H29_2 C38_2 1_555 1_555
C44_2 C34_2 1_555 1_555
H33_2 C44_2 1_555 1_555
H35_2 C44_2 1_555 1_555
C56_2 C20_2 1_555 1_555
C16_2 C17_2 1_555 1_555
C28_2 C30_2 1_555 1_555
O16_2 C18_2 1_555 1_555
O19_2 C18_2 1_555 1_555
Zn1_2 O1_3 1_555 1_555
Zn2_2 O1_3 1_555 1_555
O1_3 Zn5_2 1_555 1_555
O2_2 Zn1_2 1_555 1_555
O3_2 Zn2_2 1_555 1_555
O4_2 C18_3 1_555 1_555
O5_2 C18_3 1_555 1_555
C1_3 C2_3 1_555 1_555
C2_3 H1_3 1_555 1_555
C3_3 C2_3 1_555 1_555
C4_3 C3_3 1_555 1_555
C5_3 C4_3 1_555 1_555
H2_3 C5_3 1_555 1_555
C6_3 C1_3 1_555 1_555
H3_3 C6_3 1_555 1_555
C7_3 C3_3 1_555 1_555
H4_3 C7_3 1_555 1_555
H5_3 C7_3 1_555 1_555
C8_3 C7_3 1_555 1_555
C9_3 C4_3 1_555 1_555
H6_3 C9_3 1_555 1_555
H7_3 C9_3 1_555 1_555
C10_3 C8_3 1_555 1_555
H8_3 C10_3 1_555 1_555
H9_3 C10_3 1_555 1_555
C11_3 C10_3 1_555 1_555
C12_3 C11_3 1_555 1_555
C13_3 C8_3 1_555 1_555
H10_3 C13_3 1_555 1_555
H11_3 C13_3 1_555 1_555
C14_3 C15_3 1_555 1_555
C15_3 C11_3 1_555 1_555
H12_3 C15_3 1_555 1_555
C16_3 C14_3 1_555 1_555
H13_3 C16_3 1_555 1_555
C17_3 C12_3 1_555 1_555
H14_3 C17_3 1_555 1_555
C18_3 C14_3 1_555 1_555
C19_3 O2_2 1_555 1_555
Zn5_2 O10_3 1_555 1_555
Zn6_2 O1_3 1_555 1_555
Zn7 O4_2 1_555 1_555
Zn8_2 O5_2 1_555 1_555
O6_3 Zn1_2 1_555 1_555
O7_2 Zn1_2 1_555 1_555
O11_2 Zn6_2 1_555 1_555
O14_2 Zn2_2 1_555 1_555
O15_3 Zn6_2 1_555 1_555
O16_3 Zn5_2 1_555 1_555
O17_2 Zn5_2 1_555 1_555
O18_3 Zn2_2 1_555 1_555
O19_3 Zn6_2 1_555 1_555
C54_3 O14_2 1_555 1_555
C55_3 O15_3 1_555 1_555
O3_2 C19_3 1_555 1_555
C1_3 C19_3 1_555 1_555
C5_3 C6_3 1_555 1_555
C8_3 C9_3 1_555 1_555
C12_3 C13_3 1_555 1_555
C16_3 C17_3 1_555 1_555
O17_2 C54_3 1_555 1_555
O18_3 C55_3 1_555 1_555
Zn3 O8_2 1_555 1_555
Zn7 O12_2 1_555 1_555
O8_2 C56_3 1_555 1_555
O12_2 C56_3 1_555 1_555
C20_3 C22_3 1_555 1_555
C22_3 H15_3 1_555 1_555
C24_3 C22_3 1_555 1_555
C26_3 C24_3 1_555 1_555
C28_3 C26_3 1_555 1_555
H17_3 C28_3 1_555 1_555
C30_3 C20_3 1_555 1_555
H19_3 C30_3 1_555 1_555
C32_3 C24_3 1_555 1_555
H21_3 C32_3 1_555 1_555
H23_3 C32_3 1_555 1_555
C34_3 C32_3 1_555 1_555
C36_3 C26_3 1_555 1_555
H25_3 C36_3 1_555 1_555
H26_3 C37_3 1_555 1_555
H27_3 C36_3 1_555 1_555
H28_3 C37_3 1_555 1_555
C38_3 C34_3 1_555 1_555
H29_3 C38_3 1_555 1_555
H31_3 C38_3 1_555 1_555
C40_3 C38_3 1_555 1_555
C42_3 C40_3 1_555 1_555
C43_3 C41_3 1_555 1_555
C44_3 C34_3 1_555 1_555
H33_3 C44_3 1_555 1_555
H35_3 C44_3 1_555 1_555
C46_3 C48_3 1_555 1_555
C47_3 C49_3 1_555 1_555
C48_3 C40_3 1_555 1_555
C49_3 C41_3 1_555 1_555
H37_3 C48_3 1_555 1_555
H38_3 C49_3 1_555 1_555
C50_3 C46_3 1_555 1_555
C51_3 C47_3 1_555 1_555
H39_3 C50_3 1_555 1_555
H40_3 C51_3 1_555 1_555
C52_3 C42_3 1_555 1_555
C53_3 C43_3 1_555 1_555
H41_3 C52_3 1_555 1_555
H42_3 C53_3 1_555 1_555
C56_3 C20_3 1_555 1_555
C28_3 C30_3 1_555 1_555
C34_3 C36_3 1_555 1_555
C42_3 C44_3 1_555 1_555
C50_3 C52_3 1_555 1_555
C51_3 C53_3 1_555 1_555
Zn3 O9_2 1_555 1_555
Zn10_2 O13_2 1_555 1_555
O9_2 C57_3 1_555 1_555
O13_2 C57_3 1_555 1_555
C21_3 C23_3 1_555 1_555
C23_3 H16_3 1_555 1_555
C25_3 C23_3 1_555 1_555
C27_3 C25_3 1_555 1_555
C29_3 C27_3 1_555 1_555
C31_3 C21_3 1_555 1_555
H20_3 C31_3 1_555 1_555
C33_3 C25_3 1_555 1_555
H22_3 C33_3 1_555 1_555
H24_3 C33_3 1_555 1_555
C35_3 C33_3 1_555 1_555
C39_3 C35_3 1_555 1_555
H30_3 C39_3 1_555 1_555
C45_3 C35_3 1_555 1_555
H34_3 C45_3 1_555 1_555
H36_3 C45_3 1_555 1_555
C57_3 C21_3 1_555 1_555
C29_3 C31_3 1_555 1_555
O7_2 C57_4 1_555 1_555
O11_2 C57_4 1_555 1_555
C21_4 C23_4 1_555 1_555
C23_4 H16_4 1_555 1_555
C25_4 C23_4 1_555 1_555
C27_4 C25_4 1_555 1_555
C29_4 C27_4 1_555 1_555
C31_4 C21_4 1_555 1_555
H20_4 C31_4 1_555 1_555
C33_4 C25_4 1_555 1_555
H22_4 C33_4 1_555 1_555
H24_4 C33_4 1_555 1_555
C35_4 C33_4 1_555 1_555
C39_4 C35_4 1_555 1_555
H30_4 C39_4 1_555 1_555
C45_4 C35_4 1_555 1_555
H34_4 C45_4 1_555 1_555
H36_4 C45_4 1_555 1_555
C57_4 C21_4 1_555 1_555
C29_4 C31_4 1_555 1_555
Zn3 O1_4 1_555 1_555
Zn7 O1_4 1_555 1_555
O1_4 Zn8_2 1_555 1_555
Zn8_2 O10_4 1_555 1_555
Zn10_2 O1_4 1_555 1_555
O6_4 Zn3 1_555 1_555
O15_4 Zn10_2 1_555 1_555
O16_4 Zn8_2 1_555 1_555
O18_4 Zn7 1_555 1_555
O19_4 Zn10_2 1_555 1_555
H26_4 C37_4 1_555 1_555
H28_4 C37_4 1_555 1_555
C43_4 C41_4 1_555 1_555
C47_4 C49_4 1_555 1_555
C49_4 C41_4 1_555 1_555
H38_4 C49_4 1_555 1_555
C51_4 C47_4 1_555 1_555
H40_4 C51_4 1_555 1_555
C53_4 C43_4 1_555 1_555
H42_4 C53_4 1_555 1_555
C55_4 O15_4 1_555 1_555
O18_4 C55_4 1_555 1_555
C47_4 C55_4 1_555 1_555
C51_4 C53_4 1_555 1_555
C1_4 C2_4 1_555 1_555
C2_4 H1_4 1_555 1_555
C3_4 C2_4 1_555 1_555
C4_4 C3_4 1_555 1_555
C5_4 C4_4 1_555 1_555
C6_4 C1_4 1_555 1_555
H3_4 C6_4 1_555 1_555
C7_4 C3_4 1_555 1_555
H4_4 C7_4 1_555 1_555
H5_4 C7_4 1_555 1_555
C8_4 C7_4 1_555 1_555
C10_4 C8_4 1_555 1_555
H8_4 C10_4 1_555 1_555
C13_4 C8_4 1_555 1_555
H10_4 C13_4 1_555 1_555
H11_4 C13_4 1_555 1_555
C19_4 O6_4 1_555 1_555
H25_4 C36_4 1_555 1_555
H27_4 C36_4 1_555 1_555
C42_4 C40_4 1_555 1_555
C46_4 C48_4 1_555 1_555
C48_4 C40_4 1_555 1_555
H37_4 C48_4 1_555 1_555
C50_4 C46_4 1_555 1_555
H39_4 C50_4 1_555 1_555
C52_4 C42_4 1_555 1_555
H41_4 C52_4 1_555 1_555
C54_4 O16_4 1_555 1_555
O10_4 C19_4 1_555 1_555
C1_4 C19_4 1_555 1_555
C5_4 C6_4 1_555 1_555
O19_4 C54_4 1_555 1_555
C46_4 C54_4 1_555 1_555
C50_4 C52_4 1_555 1_555
O16_3 C18_4 1_555 1_555
O19_3 C18_4 1_555 1_555
H6_4 C9_4 1_555 1_555
H7_4 C9_4 1_555 1_555
C12_4 C11_4 1_555 1_555
C14_4 C15_4 1_555 1_555
C15_4 C11_4 1_555 1_555
H12_4 C15_4 1_555 1_555
C16_4 C14_4 1_555 1_555
H13_4 C16_4 1_555 1_555
C17_4 C12_4 1_555 1_555
H14_4 C17_4 1_555 1_555
O6_3 C56_4 1_555 1_555
O10_3 C56_4 1_555 1_555
C20_4 C22_4 1_555 1_555
C22_4 H15_4 1_555 1_555
C24_4 C22_4 1_555 1_555
C26_4 C24_4 1_555 1_555
C28_4 C26_4 1_555 1_555
C30_4 C20_4 1_555 1_555
H19_4 C30_4 1_555 1_555
C32_4 C24_4 1_555 1_555
H21_4 C32_4 1_555 1_555
H23_4 C32_4 1_555 1_555
C34_4 C32_4 1_555 1_555
C38_4 C34_4 1_555 1_555
H29_4 C38_4 1_555 1_555
C44_4 C34_4 1_555 1_555
H33_4 C44_4 1_555 1_555
H35_4 C44_4 1_555 1_555
C56_4 C20_4 1_555 1_555
C16_4 C17_4 1_555 1_555
C28_4 C30_4 1_555 1_555

#END
