
###############################################################################
#
# This file contains modified crystal structure data generated from the
# MOF subset of the Cambridge Structural Database (CSD) v543 
# hosted by the Cambridge Crystallographic Data Centre (CCDC).
#
# This work is licensed under the Creative Commons
# Attribution-NonCommercial-ShareAlike 4.0 International License.
# To view a copy of this license, visit
# http://creativecommons.org/licenses/by-nc-sa/4.0/
# or send a letter to
# Creative Commons, PO Box 1866, Mountain View, CA 94042, USA.
#
# CIF created using the CSD Python API on 29 September 2022
# The structure has been converted into the P1 space group
# The structure has a 3D framework
# The original CSD entry RACHUA is in the hexagonal crystal system
# The original CSD entry RACHUA is in a Sohncke space group
# The framework has been calculated to contain at least 10.0% void space
# The void calculation uses a probe of radius 1.32A, grid spacing 0.4
# H atom positions have been added when not included in the experimental data
#
###############################################################################

data_RACHUA
_chemical_formula_moiety         '(C756 H672 N24 O180 Zn48)n'
_symmetry_cell_setting           triclinic
_symmetry_space_group_name_H-M   'P 1'
_symmetry_Int_Tables_number      1
_space_group_name_Hall           'P 1'
loop_
_symmetry_equiv_pos_site_id
_symmetry_equiv_pos_as_xyz
1 x,y,z
_cell_length_a                   21.560(3)
_cell_length_b                   21.560(3)
_cell_length_c                   77.814(16)
_cell_angle_alpha                90
_cell_angle_beta                 90
_cell_angle_gamma                120
_cell_volume                     31324.6
loop_
_atom_site_label
_atom_site_type_symbol
_atom_site_fract_x
_atom_site_fract_y
_atom_site_fract_z
O12 O 0.56578(14) 0.24755(15) 0.27242(3)
O13 O 0.51582(16) 0.17403(16) 0.29474(3)
H33 H 0.4602 0.0302 0.1892
C46 C 0.4117(3) 0.0105(3) 0.21242(7)
H35 H 0.3377 0.0399 0.2021
C48 C 0.4599(3) 0.0868(2) 0.21861(6)
H36 H 0.5088 0.1044 0.2149
H37 H 0.4436 0.1182 0.2141
C49 C 0.4556(3) 0.0846(3) 0.23780(6)
C50 C 0.4199(4) 0.0168(3) 0.24243(7)
C52 C 0.48983(18) 0.14264(16) 0.24891(4)
H40 H 0.5156 0.1894 0.2448
C53 C 0.4839(2) 0.1277(2) 0.26662(5)
C54 C 0.4468(3) 0.0560(3) 0.27213(6)
H41 H 0.4432 0.0452 0.2838
C55 C 0.4175(4) 0.0047(3) 0.26077(8)
C56 C 0.52400(19) 0.1879(2) 0.27890(5)
H49 H 0.6126 0.0287 0.1676
H52 H 0.6903 0.0203 0.1546
Zn6 Zn 0.65477(2) 0.32728(3) 0.281309(5)
Zn8 Zn 0.56960(3) 0.24165(4) 0.313559(6)
Zn1 Zn 0.23016(2) 0.64154(2) 0.145530(5)
Zn2 Zn 0.32749(2) 0.65477(2) 0.114642(5)
Zn3 Zn 0.32795(3) 0.56960(3) 0.146892(6)
Zn4 Zn 0.40206(2) 0.74265(3) 0.148513(6)
O1 O 0.32169(13) 0.65075(13) 0.13924(4)
O2 O 0.16678(13) 0.62292(14) 0.12517(3)
O3 O 0.25017(12) 0.66308(12) 0.10432(3)
O6 O 0.17585(15) 0.55553(18) 0.16022(3)
O7 O 0.2367(2) 0.49534(17) 0.15691(4)
O10 O 0.22338(18) 0.71538(19) 0.15863(4)
O11 O 0.3328(2) 0.78533(17) 0.15022(4)
C1 C 0.13700(18) 0.6415(2) 0.09718(4)
C2 C 0.15946(18) 0.66504(18) 0.08082(4)
H1 H 0.2062 0.6793 0.0776
C3 C 0.1127(2) 0.6675(2) 0.06914(5)
C4 C 0.0413(2) 0.6430(3) 0.07321(5)
C5 C 0.0174(2) 0.6177(3) 0.08990(6)
C6 C 0.0640(2) 0.6170(3) 0.10228(5)
H3 H 0.0485 0.6014 0.1134
C7 C 0.1289(3) 0.6972(3) 0.05083(5)
H4 H 0.1596 0.6832 0.0449
H5 H 0.1515 0.7490 0.0508
C8 C 0.0524(3) 0.6616(3) 0.04241(6)
C9 C 0.0009(3) 0.6537(3) 0.05904(6)
C10 C 0.0270(2) 0.5913(2) 0.03464(6)
H8 H 0.0055 0.5535 0.0431
H9 H 0.0657 0.5888 0.0289
C13 C 0.0426(3) 0.7067(3) 0.02778(7)
H10 H 0.0320 0.7419 0.0325
H11 H 0.0849 0.7306 0.0205
C19 C 0.18851(18) 0.64215(18) 0.11002(4)
C20 C 0.1336(3) 0.4437(2) 0.17343(5)
C21 C 0.0795(2) 0.4524(2) 0.18312(5)
H15 H 0.0785 0.4950 0.1828
C22 C 0.0315(3) 0.3955(3) 0.19243(6)
C23 C 0.0276(3) 0.3297(3) 0.19153(8)
C24 C 0.0769(4) 0.3198(3) 0.18263(9)
H16 H 0.0761 0.2763 0.1828
C25 C 0.1273(3) 0.3770(3) 0.17342(7)
H17 H 0.1592 0.3703 0.1667
H24 H 0.0408 0.3828 0.2291
H25 H 0.0035 0.3004 0.2334
H28 H 0.0183 0.3985 0.2661
C38 C 0.1837(3) 0.4991(3) 0.16304(6)
C39 C 0.2912(3) 0.8288(3) 0.17214(6)
C40 C 0.3577(3) 0.8818(2) 0.17619(6)
H29 H 0.3970 0.8844 0.1706
C41 C 0.3685(2) 0.9319(3) 0.18839(6)
C42 C 0.3072(3) 0.9358(3) 0.19504(7)
C43 C 0.2369(3) 0.8808(3) 0.19040(7)
H30 H 0.1963 0.8804 0.1947
C44 C 0.2315(3) 0.8289(3) 0.17944(7)
H31 H 0.1860 0.7917 0.1766
C45 C 0.4352(3) 0.9895(3) 0.19681(7)
H32 H 0.4671 0.9716 0.1997
C47 C 0.3344(3) 0.9979(3) 0.20748(7)
H34 H 0.3037 0.9855 0.2175
C51 C 0.40350(18) 0.96717(16) 0.22800(4)
H38 H 0.3550 0.9271 0.2289
H39 H 0.4365 0.9490 0.2277
H42 H 0.3937 0.9576 0.2647
C57 C 0.2822(3) 0.7705(3) 0.15959(6)
O14 O 0.3565(2) 0.6965(2) 0.17411(5)
C58 C 0.3886(6) 0.7379(6) 0.18597(11)
N1 N 0.3289(6) 0.7176(6) 0.19953(15)
C59 C 0.3383(7) 0.7663(7) 0.21541(16)
H43 H 0.2967 0.7428 0.2226
H44 H 0.3442 0.8112 0.2115
H45 H 0.3798 0.7747 0.2218
C60 C 0.2538(6) 0.6516(7) 0.20010(16)
H46 H 0.2305 0.6518 0.2106
H47 H 0.2575 0.6090 0.1996
H48 H 0.2264 0.6525 0.1905
O15 O 0.4818(2) 0.8345(3) 0.16224(5)
C61 C 0.5434(6) 0.8530(8) 0.15526(18)
N2 N 0.5881(6) 0.9310(6) 0.15751(14)
C62 C 0.5701(7) 0.9826(8) 0.16661(14)
H50 H 0.5516 0.9646 0.1779
H51 H 0.5348 0.9872 0.1601
C63 C 0.6666(6) 0.9717(8) 0.15054(16)
H53 H 0.6659 0.9716 0.1382
H54 H 0.6920 0.9484 0.1545
O16 O 0.4073(2) 0.5896(3) 0.16157(4)
O17 O 0.4728(2) 0.70063(27) 0.15060(4)
O18 O 0.41473(21) 0.73026(14) 0.10470(3)
O19 O 0.44863(20) 0.80649(14) 0.12705(3)
O20 O 0.31823(21) 0.56578(14) 0.10575(3)
O21 O 0.34179(23) 0.51582(16) 0.12807(3)
H55 H 0.444983 0.778702 0.186752
H56 H 0.55893 0.81769 0.148972
O8 O 0.73026(14) 0.31553(15) 0.27137(3)
O9 O 0.80649(14) 0.35786(14) 0.29372(3)
H2 H 0.9698 0.6011 0.0928
H6 H 0.9980 0.6968 0.0607
H7 H 0.9531 0.6129 0.0578
C11 C 0.9706(2) 0.5863(3) 0.02156(5)
C12 C 0.9805(3) 0.6503(3) 0.01814(6)
C14 C 0.9176(3) 0.5230(3) 0.01332(5)
H12 H 0.9138 0.4789 0.0156
C15 C 0.8727(2) 0.5285(3) 0.00211(5)
C17 C 0.9375(3) 0.6592(3) 0.00672(6)
H14 H 0.9431 0.7041 0.0045
C26 C 0.9711(3) 0.3906(2) 0.20419(6)
H18 H 0.9883 0.4324 0.2115
H19 H 0.9306 0.3850 0.1975
C27 C 0.9515(3) 0.3229(3) 0.21472(7)
C28 C 0.9584(3) 0.2726(3) 0.20192(8)
H20 H 0.9167 0.2485 0.1946
H21 H 0.9665 0.2374 0.2077
C29 C 0.8728(3) 0.2895(3) 0.22104(6)
H22 H 0.8456 0.3040 0.2138
H23 H 0.8491 0.2376 0.2213
C30 C 0.8820(2) 0.3202(2) 0.23913(5)
C31 C 0.9513(2) 0.3489(3) 0.24464(6)
C32 C 0.9950(3) 0.3393(3) 0.23057(7)
C33 C 0.8308(2) 0.3193(2) 0.25021(5)
H26 H 0.7839 0.3010 0.2465
C34 C 0.84950(18) 0.3457(2) 0.26696(4)
C35 C 0.9192(2) 0.3748(2) 0.27250(5)
H27 H 0.9308 0.3926 0.2837
C36 C 0.9713(3) 0.3783(3) 0.26220(6)
C37 C 0.79210(18) 0.3404(2) 0.27807(4)
Zn10 Zn 0.74265(3) 0.34059(4) 0.315180(6)
O4 O 0.8177(2) 0.4073(2) 0.99490(4)
O5 O 0.77217(18) 0.4728(2) 0.98393(4)
C16 C 0.8844(3) 0.5973(4) 0.99850(7)
H13 H 0.8556 0.6021 0.9903
C18 C 0.8173(3) 0.4648(3) 0.99282(6)
Zn7 Zn 0.75835(4) 0.32795(3) 0.980225(6)
Zn9 Zn 0.65941(4) 0.40206(2) 0.981846(6)
Zn1_2 Zn 0.35846(2) 0.58862(3) 0.812197(5)
Zn2_2 Zn 0.34523(2) 0.67272(3) 0.781309(5)
Zn3_2 Zn 0.43040(3) 0.75835(4) 0.813559(6)
Zn4_2 Zn 0.25735(3) 0.65941(4) 0.815180(6)
O1_2 O 0.34925(13) 0.67094(18) 0.80591(4)
O2_2 O 0.37708(14) 0.54386(19) 0.79184(3)
O3_2 O 0.33692(12) 0.58709(17) 0.77099(3)
O4_2 O 0.5927(2) 0.4104(3) 0.66157(4)
O5_2 O 0.5272(2) 0.29937(27) 0.65060(4)
O6_2 O 0.44447(18) 0.62032(23) 0.82689(3)
O7_2 O 0.50466(17) 0.74136(26) 0.82358(4)
O8_2 O 0.68447(15) 0.41473(21) 0.93804(3)
O9_2 O 0.64214(14) 0.44863(20) 0.96039(3)
O10_2 O 0.28462(19) 0.50800(26) 0.82530(4)
O11_2 O 0.21467(17) 0.54747(26) 0.81689(4)
C1_2 C 0.3585(2) 0.49550(27) 0.76385(4)
C2_2 C 0.33496(18) 0.49442(25) 0.74749(4)
H1_2 H 0.3207 0.5269 0.7443
C3_2 C 0.3325(2) 0.4452(3) 0.73581(5)
C4_2 C 0.3570(3) 0.3983(4) 0.73988(5)
C5_2 C 0.3823(3) 0.3997(4) 0.75657(6)
H2_2 H 0.3989 0.3687 0.7595
C6_2 C 0.3830(3) 0.4470(4) 0.76895(5)
H3_2 H 0.3986 0.4471 0.7801
C7_2 C 0.3028(3) 0.4317(4) 0.71750(5)
H4_2 H 0.3168 0.4764 0.7116
H5_2 H 0.2510 0.4025 0.7175
C8_2 C 0.3384(3) 0.3908(4) 0.70908(6)
C9_2 C 0.3463(3) 0.3472(4) 0.72571(6)
H6_2 H 0.3032 0.3012 0.7274
H7_2 H 0.3871 0.3402 0.7245
C10_2 C 0.4087(2) 0.4357(3) 0.70131(6)
H8_2 H 0.4465 0.4520 0.7098
H9_2 H 0.4112 0.4769 0.6956
C11_2 C 0.4137(3) 0.3843(4) 0.68823(5)
C12_2 C 0.3497(3) 0.3302(4) 0.68481(6)
C13_2 C 0.2933(3) 0.3359(4) 0.69445(7)
H10_2 H 0.2581 0.2901 0.6992
H11_2 H 0.2694 0.3543 0.6872
C14_2 C 0.4770(3) 0.3946(4) 0.67999(5)
H12_2 H 0.5211 0.4349 0.6823
C15_2 C 0.4715(3) 0.3442(4) 0.66878(5)
C16_2 C 0.4027(4) 0.2871(5) 0.66517(7)
H13_2 H 0.3979 0.2535 0.6570
C17_2 C 0.3408(3) 0.2783(4) 0.67339(6)
H14_2 H 0.2959 0.2390 0.6712
C18_2 C 0.5352(3) 0.3525(4) 0.65949(6)
C19_2 C 0.35785(18) 0.54636(25) 0.77669(4)
C20_2 C 0.5563(2) 0.6899(4) 0.84010(5)
C21_2 C 0.5476(2) 0.6271(3) 0.84979(5)
H15_2 H 0.5050 0.5835 0.8495
C22_2 C 0.6045(3) 0.6360(4) 0.85910(6)
C23_2 C 0.6703(3) 0.6979(4) 0.85820(8)
C24_2 C 0.6802(3) 0.7571(5) 0.84930(9)
H16_2 H 0.7237 0.7998 0.8495
C25_2 C 0.6230(3) 0.7503(4) 0.84009(7)
H17_2 H 0.6297 0.7889 0.8334
C26_2 C 0.6094(2) 0.5805(4) 0.87086(6)
H18_2 H 0.5676 0.5559 0.8782
H19_2 H 0.6150 0.5456 0.8642
C27_2 C 0.6771(3) 0.6286(4) 0.88139(7)
C28_2 C 0.7274(3) 0.6858(4) 0.86859(8)
H20_2 H 0.7515 0.6682 0.8613
H21_2 H 0.7626 0.7291 0.8744
C29_2 C 0.7105(3) 0.5833(4) 0.88771(6)
H22_2 H 0.6960 0.5416 0.8805
H23_2 H 0.7624 0.6115 0.8880
C30_2 C 0.6798(2) 0.5618(3) 0.90580(5)
C31_2 C 0.6511(3) 0.6024(4) 0.91131(6)
C32_2 C 0.6607(3) 0.6557(4) 0.89724(7)
H24_2 H 0.6172 0.6580 0.8958
H25_2 H 0.6996 0.7031 0.9001
C33_2 C 0.6807(2) 0.5115(3) 0.91688(5)
H26_2 H 0.6990 0.4829 0.9132
C34_2 C 0.6543(2) 0.50380(27) 0.93363(4)
C35_2 C 0.6252(2) 0.5444(3) 0.93917(5)
H27_2 H 0.6074 0.5382 0.9504
C36_2 C 0.6217(3) 0.5930(4) 0.92887(6)
H28_2 H 0.6015 0.6198 0.9328
C37_2 C 0.6596(2) 0.45170(27) 0.94474(4)
C38_2 C 0.5009(3) 0.6846(4) 0.82971(6)
C39_2 C 0.1712(3) 0.4624(4) 0.83881(6)
C40_2 C 0.1182(2) 0.4759(4) 0.84286(6)
H29_2 H 0.1156 0.5126 0.8373
C41_2 C 0.0681(3) 0.4366(4) 0.85506(6)
C42_2 C 0.0642(3) 0.3714(4) 0.86171(7)
C43_2 C 0.1192(3) 0.3561(4) 0.85707(7)
H30_2 H 0.1196 0.3159 0.8614
C44_2 C 0.1711(3) 0.4026(4) 0.84611(7)
H31_2 H 0.2083 0.3943 0.8433
C45_2 C 0.0105(3) 0.4457(4) 0.86348(7)
H32_2 H 0.0284 0.4955 0.8664
C47_2 C 0.0021(3) 0.3365(4) 0.87415(7)
H34_2 H 0.0145 0.3182 0.8842
C51_2 C 0.03283(16) 0.43633(24) 0.89467(4)
H38_2 H 0.0729 0.4279 0.8956
H39_2 H 0.0510 0.4875 0.8944
H42_2 H 0.0424 0.4361 0.9314
C57_2 C 0.2295(3) 0.5117(4) 0.82626(6)
O14_2 O 0.3035(2) 0.6600(3) 0.84078(5)
C58_2 C 0.2621(6) 0.6507(8) 0.85264(11)
N1_2 N 0.2824(6) 0.6113(8) 0.86620(15)
C59_2 C 0.2337(7) 0.5720(10) 0.88208(16)
H43_2 H 0.2572 0.5539 0.8893
H44_2 H 0.1888 0.5330 0.8782
H45_2 H 0.2253 0.6051 0.8885
C60_2 C 0.3484(7) 0.6022(9) 0.86677(16)
H46_2 H 0.3482 0.5787 0.8773
H47_2 H 0.3910 0.6485 0.8663
H48_2 H 0.3475 0.5739 0.8572
O15_2 O 0.1655(3) 0.6473(4) 0.82891(5)
C61_2 C 0.1470(8) 0.6904(10) 0.82193(18)
N2_2 N 0.0690(6) 0.6571(8) 0.82418(14)
C62_2 C 0.0174(8) 0.5875(11) 0.83328(14)
H50_2 H 0.0354 0.5870 0.8446
H51_2 H 0.0128 0.5476 0.8268
C63_2 C 0.0283(8) 0.6949(10) 0.81721(16)
H53_2 H 0.0284 0.6943 0.8049
H54_2 H 0.0516 0.7436 0.8212
Zn5 Zn 0.67272(3) 0.32749(4) 0.947975(5)
Zn7_2 Zn 0.67205(3) 0.43040(5) 0.646892(6)
Zn9_2 Zn 0.59794(2) 0.25735(4) 0.648513(6)
O16_2 O 0.4104(3) 0.8177(4) 0.82823(4)
O17_2 O 0.29937(27) 0.77217(34) 0.81726(4)
O18_2 O 0.26974(14) 0.68447(25) 0.77137(3)
O19_2 O 0.19351(14) 0.64214(24) 0.79372(3)
O20_2 O 0.43422(14) 0.75245(25) 0.77242(3)
O21_2 O 0.48418(16) 0.82597(28) 0.79474(3)
H55_2 H 0.221298 0.666281 0.853418
H56_2 H 0.18231 0.741239 0.815639
O12_2 O 0.75245(15) 0.31823(21) 0.93909(3)
O13_2 O 0.82597(16) 0.34179(23) 0.96141(3)
H33_2 H 0.9698 0.4300 0.8559
C46_2 C 0.9895(3) 0.4012(4) 0.87909(7)
H35_2 H 0.9601 0.2978 0.8688
C48_2 C 0.9132(2) 0.3731(4) 0.88528(6)
H36_2 H 0.8956 0.4044 0.8816
H37_2 H 0.8818 0.3254 0.8808
C49_2 C 0.9154(3) 0.3710(4) 0.90447(6)
C50_2 C 0.9832(3) 0.4031(5) 0.90910(7)
C52_2 C 0.85736(16) 0.34719(24) 0.91558(4)
H40_2 H 0.8106 0.3262 0.9115
C53_2 C 0.8723(2) 0.3562(3) 0.93329(5)
C54_2 C 0.9440(3) 0.3908(4) 0.93880(6)
H41_2 H 0.9548 0.3980 0.9505
C55_2 C 0.9953(3) 0.4128(5) 0.92744(8)
C56_2 C 0.8121(2) 0.33610(28) 0.94557(5)
H49_2 H 0.9713 0.5839 0.8343
H52_2 H 0.9797 0.6700 0.8213
O4_3 O 0.5896(3) 0.1823(2) 0.32823(4)
O5_3 O 0.70063(27) 0.22783(18) 0.31726(4)
O8_3 O 0.58527(21) 0.26974(14) 0.60470(3)
O9_3 O 0.55137(20) 0.19351(14) 0.62705(3)
H2_3 H 0.6313 0.0302 0.4261
H6_3 H 0.6988 0.0020 0.3940
H7_3 H 0.6598 0.0469 0.3911
C11_3 C 0.6157(4) 0.0294(2) 0.35489(5)
C12_3 C 0.6698(4) 0.0195(3) 0.35147(6)
C14_3 C 0.6054(4) 0.0824(3) 0.34665(5)
H12_3 H 0.5651 0.0862 0.3489
C15_3 C 0.6558(4) 0.1273(2) 0.33544(5)
C16_3 C 0.7129(5) 0.1156(3) 0.33183(7)
H13_3 H 0.7465 0.1444 0.3236
C17_3 C 0.7217(4) 0.0625(3) 0.34005(6)
H14_3 H 0.7610 0.0569 0.3378
C18_3 C 0.6475(4) 0.1827(3) 0.32615(6)
C26_3 C 0.4195(4) 0.0289(3) 0.53752(6)
H18_3 H 0.4441 0.0117 0.5448
H19_3 H 0.4544 0.0694 0.5308
C27_3 C 0.3714(4) 0.0485(3) 0.54805(7)
C28_3 C 0.3142(4) 0.0416(3) 0.53525(8)
H20_3 H 0.3318 0.0833 0.5279
H21_3 H 0.2709 0.0335 0.5410
C29_3 C 0.4167(4) 0.1272(3) 0.55437(6)
H22_3 H 0.4584 0.1544 0.5471
H23_3 H 0.3885 0.1509 0.5546
C30_3 C 0.4382(3) 0.1180(2) 0.57246(5)
C31_3 C 0.3976(4) 0.0487(2) 0.57797(6)
C32_3 C 0.3443(4) 0.0050(3) 0.56390(7)
C33_3 C 0.4885(3) 0.1692(2) 0.58354(5)
H26_3 H 0.5171 0.2161 0.5798
C34_3 C 0.49620(27) 0.15050(18) 0.60029(4)
C35_3 C 0.4556(3) 0.0808(2) 0.60583(5)
H27_3 H 0.4618 0.0692 0.6170
C36_3 C 0.4070(4) 0.0287(3) 0.59553(6)
C37_3 C 0.54830(27) 0.20790(18) 0.61140(4)
Zn5_2 Zn 0.67251(4) 0.34523(2) 0.614642(5)
Zn1_3 Zn 0.41138(3) 0.76984(2) 0.478863(5)
Zn2_3 Zn 0.32728(3) 0.67251(2) 0.447975(5)
Zn3_3 Zn 0.24165(4) 0.67205(3) 0.480225(6)
Zn4_3 Zn 0.34059(4) 0.59794(2) 0.481846(6)
O1_3 O 0.32906(18) 0.67831(13) 0.47257(4)
O2_3 O 0.45614(19) 0.83322(13) 0.45850(3)
O3_3 O 0.41291(17) 0.74983(12) 0.43765(3)
O6_3 O 0.37968(23) 0.82415(15) 0.49355(3)
O7_3 O 0.25864(26) 0.7633(2) 0.49024(4)
O10_3 O 0.49200(26) 0.77662(18) 0.49196(4)
O11_3 O 0.45253(26) 0.6672(2) 0.48355(4)
O12_3 O 0.68177(21) 0.43422(14) 0.60575(3)
O13_3 O 0.65821(23) 0.48418(16) 0.62807(3)
C1_3 C 0.50450(27) 0.86300(18) 0.43051(4)
C2_3 C 0.50558(25) 0.84054(18) 0.41415(4)
H1_3 H 0.4731 0.7938 0.4109
C3_3 C 0.5548(3) 0.8873(2) 0.40247(5)
C4_3 C 0.6017(4) 0.9587(2) 0.40654(5)
C5_3 C 0.6003(4) 0.9826(2) 0.42323(6)
C6_3 C 0.5530(4) 0.9360(2) 0.43561(5)
H3_3 H 0.5529 0.9515 0.4467
C7_3 C 0.5683(4) 0.8711(3) 0.38416(5)
H4_3 H 0.5236 0.8404 0.3782
H5_3 H 0.5975 0.8485 0.3841
C8_3 C 0.6092(4) 0.9476(3) 0.37574(6)
C9_3 C 0.6528(4) 0.9991(3) 0.39237(6)
C10_3 C 0.5643(3) 0.9730(2) 0.36797(6)
H8_3 H 0.5480 0.9945 0.3764
H9_3 H 0.5231 0.9343 0.3622
C13_3 C 0.6641(4) 0.9574(3) 0.36111(7)
H10_3 H 0.7099 0.9680 0.3658
H11_3 H 0.6457 0.9151 0.3538
C19_3 C 0.45364(25) 0.81149(18) 0.44335(4)
C20_3 C 0.3101(4) 0.8664(3) 0.50676(5)
C21_3 C 0.3729(3) 0.9205(2) 0.51645(5)
H15_3 H 0.4165 0.9215 0.5161
C22_3 C 0.3640(4) 0.9685(3) 0.52576(6)
C23_3 C 0.3021(4) 0.9724(3) 0.52486(8)
C24_3 C 0.2429(5) 0.9231(4) 0.51596(9)
H16_3 H 0.2002 0.9239 0.5161
C25_3 C 0.2497(4) 0.8727(3) 0.50675(7)
H17_3 H 0.2111 0.8408 0.5000
H24_3 H 0.3420 0.9592 0.5624
H25_3 H 0.2969 0.9965 0.5667
H28_3 H 0.3802 0.9817 0.5994
C38_3 C 0.3154(4) 0.8163(3) 0.49637(6)
C39_3 C 0.5376(4) 0.7088(3) 0.50547(6)
C40_3 C 0.5241(4) 0.6423(3) 0.50952(6)
H29_3 H 0.4874 0.6030 0.5039
C41_3 C 0.5634(4) 0.6315(2) 0.52172(6)
C42_3 C 0.6286(4) 0.6928(3) 0.52837(7)
C43_3 C 0.6439(4) 0.7631(3) 0.52373(7)
H30_3 H 0.6841 0.8037 0.5280
C44_3 C 0.5974(4) 0.7685(3) 0.51277(7)
H31_3 H 0.6057 0.8140 0.5099
C45_3 C 0.5543(4) 0.5648(3) 0.53014(7)
H32_3 H 0.5045 0.5329 0.5330
H33_3 H 0.5700 0.5398 0.5225
C46_3 C 0.5988(4) 0.5883(3) 0.54575(7)
C47_3 C 0.6635(4) 0.6656(3) 0.54081(7)
H34_3 H 0.6818 0.6963 0.5508
H35_3 H 0.7022 0.6623 0.5354
C48_3 C 0.6269(4) 0.5401(3) 0.55194(6)
H36_3 H 0.5956 0.4912 0.5482
H37_3 H 0.6746 0.5564 0.5474
C49_3 C 0.6290(4) 0.5444(3) 0.57113(6)
C50_3 C 0.5969(5) 0.5801(4) 0.57576(7)
C51_3 C 0.56367(24) 0.59650(18) 0.56133(4)
H38_3 H 0.5721 0.6450 0.5622
H39_3 H 0.5125 0.5635 0.5610
C52_3 C 0.65281(24) 0.51017(18) 0.58224(4)
H40_3 H 0.6738 0.4844 0.5781
C53_3 C 0.6438(3) 0.5161(2) 0.59995(5)
C54_3 C 0.6092(4) 0.5532(3) 0.60546(6)
H41_3 H 0.6020 0.5568 0.6171
C55_3 C 0.5872(5) 0.5825(4) 0.59410(8)
H42_3 H 0.5639 0.6063 0.5980
C56_3 C 0.66390(28) 0.47600(19) 0.61223(5)
C57_3 C 0.4883(4) 0.7178(3) 0.49292(6)
O14_3 O 0.3400(3) 0.6435(2) 0.50744(5)
C58_3 C 0.3493(8) 0.6114(6) 0.51930(11)
N1_3 N 0.3887(8) 0.6711(6) 0.53286(15)
C59_3 C 0.4280(10) 0.6617(7) 0.54874(16)
H43_3 H 0.4461 0.7033 0.5559
H44_3 H 0.4670 0.6558 0.5448
H45_3 H 0.3949 0.6202 0.5551
C60_3 C 0.3978(9) 0.7462(6) 0.53343(16)
H46_3 H 0.4213 0.7695 0.5439
H47_3 H 0.3515 0.7425 0.5329
H48_3 H 0.4261 0.7736 0.5238
O15_3 O 0.3527(4) 0.5182(2) 0.49557(5)
C61_3 C 0.3096(10) 0.4566(6) 0.48859(18)
N2_3 N 0.3429(8) 0.4119(6) 0.49084(14)
C62_3 C 0.4125(11) 0.4299(7) 0.49994(14)
H49_3 H 0.4161 0.3874 0.5009
H50_3 H 0.4130 0.4484 0.5112
H51_3 H 0.4524 0.4652 0.4934
C63_3 C 0.3051(10) 0.3334(6) 0.48387(16)
H52_3 H 0.3300 0.3097 0.4879
H53_3 H 0.3057 0.3341 0.4715
H54_3 H 0.2564 0.3080 0.4878
O16_3 O 0.1823(4) 0.5927(2) 0.49490(4)
O17_3 O 0.22783(34) 0.5272(2) 0.48393(4)
O18_3 O 0.31553(25) 0.58527(21) 0.43804(3)
O19_3 O 0.35786(24) 0.55137(20) 0.46039(3)
O20_3 O 0.24755(25) 0.68177(21) 0.43909(3)
O21_3 O 0.17403(28) 0.65821(23) 0.46141(3)
H55_3 H 0.333719 0.555017 0.520085
H56_3 H 0.258761 0.44107 0.482306
H2_4 H 0.0302 0.3989 0.5928
H6_4 H 0.0020 0.3032 0.5607
H7_4 H 0.0469 0.3871 0.5578
C11_4 C 0.0294(2) 0.4137(3) 0.52156(5)
C12_4 C 0.0195(3) 0.3497(3) 0.51814(6)
C14_4 C 0.0824(3) 0.4770(3) 0.51332(5)
H12_4 H 0.0862 0.5211 0.5156
C15_4 C 0.1273(2) 0.4715(3) 0.50211(5)
C16_4 C 0.1156(3) 0.4027(4) 0.49850(7)
H13_4 H 0.1444 0.3979 0.4903
C17_4 C 0.0625(3) 0.3408(3) 0.50672(6)
H14_4 H 0.0569 0.2959 0.5045
C18_4 C 0.1827(3) 0.5352(3) 0.49282(6)
C26_4 C 0.0289(3) 0.6094(2) 0.70419(6)
H18_4 H 0.0117 0.5676 0.7115
H19_4 H 0.0694 0.6150 0.6975
C27_4 C 0.0485(3) 0.6771(3) 0.71472(7)
C28_4 C 0.0416(3) 0.7274(3) 0.70192(8)
H20_4 H 0.0833 0.7515 0.6946
H21_4 H 0.0335 0.7626 0.7077
C29_4 C 0.1272(3) 0.7105(3) 0.72104(6)
H22_4 H 0.1544 0.6960 0.7138
H23_4 H 0.1509 0.7624 0.7213
C30_4 C 0.1180(2) 0.6798(2) 0.73913(5)
C31_4 C 0.0487(2) 0.6511(3) 0.74464(6)
C32_4 C 0.0050(3) 0.6607(3) 0.73057(7)
C33_4 C 0.1692(2) 0.6807(2) 0.75021(5)
H26_4 H 0.2161 0.6990 0.7465
C34_4 C 0.15050(18) 0.6543(2) 0.76696(4)
C35_4 C 0.0808(2) 0.6252(2) 0.77250(5)
H27_4 H 0.0692 0.6074 0.7837
C36_4 C 0.0287(3) 0.6217(3) 0.76220(6)
C37_4 C 0.20790(18) 0.6596(2) 0.77807(4)
Zn1_4 Zn 0.76984(2) 0.35846(2) 0.645530(5)
O1_4 O 0.67831(13) 0.34925(13) 0.63924(4)
O2_4 O 0.83322(13) 0.37708(14) 0.62517(3)
O3_4 O 0.74983(12) 0.33692(12) 0.60432(3)
O6_4 O 0.82415(15) 0.44447(18) 0.66022(3)
O7_4 O 0.7633(2) 0.50466(17) 0.65691(4)
O10_4 O 0.77662(18) 0.28462(19) 0.65863(4)
O11_4 O 0.6672(2) 0.21467(17) 0.65022(4)
C1_4 C 0.86300(18) 0.3585(2) 0.59718(4)
C2_4 C 0.84054(18) 0.33496(18) 0.58082(4)
H1_4 H 0.7938 0.3207 0.5776
C3_4 C 0.8873(2) 0.3325(2) 0.56914(5)
C4_4 C 0.9587(2) 0.3570(3) 0.57321(5)
C5_4 C 0.9826(2) 0.3823(3) 0.58990(6)
C6_4 C 0.9360(2) 0.3830(3) 0.60228(5)
H3_4 H 0.9515 0.3986 0.6134
C7_4 C 0.8711(3) 0.3028(3) 0.55083(5)
H4_4 H 0.8404 0.3168 0.5449
H5_4 H 0.8485 0.2510 0.5508
C8_4 C 0.9476(3) 0.3384(3) 0.54241(6)
C9_4 C 0.9991(3) 0.3463(3) 0.55904(6)
C10_4 C 0.9730(2) 0.4087(2) 0.53464(6)
H8_4 H 0.9945 0.4465 0.5431
H9_4 H 0.9343 0.4112 0.5289
C13_4 C 0.9574(3) 0.2933(3) 0.52778(7)
H10_4 H 0.9680 0.2581 0.5325
H11_4 H 0.9151 0.2694 0.5205
C19_4 C 0.81149(18) 0.35785(18) 0.61002(4)
C20_4 C 0.8664(3) 0.5563(2) 0.67343(5)
C21_4 C 0.9205(2) 0.5476(2) 0.68312(5)
H15_4 H 0.9215 0.5050 0.6828
C22_4 C 0.9685(3) 0.6045(3) 0.69243(6)
C23_4 C 0.9724(3) 0.6703(3) 0.69153(8)
C24_4 C 0.9231(4) 0.6802(3) 0.68263(9)
H16_4 H 0.9239 0.7237 0.6828
C25_4 C 0.8727(3) 0.6230(3) 0.67342(7)
H17_4 H 0.8408 0.6297 0.6667
H24_4 H 0.9592 0.6172 0.7291
H25_4 H 0.9965 0.6996 0.7334
H28_4 H 0.9817 0.6015 0.7661
C38_4 C 0.8163(3) 0.5009(3) 0.66304(6)
C39_4 C 0.7088(3) 0.1712(3) 0.67214(6)
C40_4 C 0.6423(3) 0.1182(2) 0.67619(6)
H29_4 H 0.6030 0.1156 0.6706
C41_4 C 0.6315(2) 0.0681(3) 0.68839(6)
C42_4 C 0.6928(3) 0.0642(3) 0.69504(7)
C43_4 C 0.7631(3) 0.1192(3) 0.69040(7)
H30_4 H 0.8037 0.1196 0.6947
C44_4 C 0.7685(3) 0.1711(3) 0.67944(7)
H31_4 H 0.8140 0.2083 0.6766
C45_4 C 0.5648(3) 0.0105(3) 0.69681(7)
H32_4 H 0.5329 0.0284 0.6997
C47_4 C 0.6656(3) 0.0021(3) 0.70748(7)
H34_4 H 0.6963 0.0145 0.7175
C51_4 C 0.59650(18) 0.03283(16) 0.72800(4)
H38_4 H 0.6450 0.0729 0.7289
H39_4 H 0.5635 0.0510 0.7277
H42_4 H 0.6063 0.0424 0.7647
C57_4 C 0.7178(3) 0.2295(3) 0.65959(6)
O14_4 O 0.6435(2) 0.3035(2) 0.67411(5)
C58_4 C 0.6114(6) 0.2621(6) 0.68597(11)
N1_4 N 0.6711(6) 0.2824(6) 0.69953(15)
C59_4 C 0.6617(7) 0.2337(7) 0.71541(16)
H43_4 H 0.7033 0.2572 0.7226
H44_4 H 0.6558 0.1888 0.7115
H45_4 H 0.6202 0.2253 0.7218
C60_4 C 0.7462(6) 0.3484(7) 0.70010(16)
H46_4 H 0.7695 0.3482 0.7106
H47_4 H 0.7425 0.3910 0.6996
H48_4 H 0.7736 0.3475 0.6905
O15_4 O 0.5182(2) 0.1655(3) 0.66224(5)
C61_4 C 0.4566(6) 0.1470(8) 0.65526(18)
N2_4 N 0.4119(6) 0.0690(6) 0.65751(14)
C62_4 C 0.4299(7) 0.0174(8) 0.66661(14)
H50_4 H 0.4484 0.0354 0.6779
H51_4 H 0.4652 0.0128 0.6601
C63_4 C 0.3334(6) 0.0283(8) 0.65054(16)
H53_4 H 0.3341 0.0284 0.6382
H54_4 H 0.3080 0.0516 0.6545
H55_4 H 0.555017 0.221298 0.686752
H56_4 H 0.44107 0.18231 0.648972
H33_4 H 0.5398 0.9698 0.6892
C46_4 C 0.5883(3) 0.9895(3) 0.71242(7)
H35_4 H 0.6623 0.9601 0.7021
C48_4 C 0.5401(3) 0.9132(2) 0.71861(6)
H36_4 H 0.4912 0.8956 0.7149
H37_4 H 0.5564 0.8818 0.7141
C49_4 C 0.5444(3) 0.9154(3) 0.73780(6)
C50_4 C 0.5801(4) 0.9832(3) 0.74243(7)
C52_4 C 0.51017(18) 0.85736(16) 0.74891(4)
H40_4 H 0.4844 0.8106 0.7448
C53_4 C 0.5161(2) 0.8723(2) 0.76662(5)
C54_4 C 0.5532(3) 0.9440(3) 0.77213(6)
H41_4 H 0.5568 0.9548 0.7838
C55_4 C 0.5825(4) 0.9953(3) 0.76077(8)
C56_4 C 0.47600(19) 0.8121(2) 0.77890(5)
H49_4 H 0.3874 0.9713 0.6676
H52_4 H 0.3097 0.9797 0.6546
H33_5 H 0.0302 0.5700 0.3559
C46_5 C 0.0105(3) 0.5988(4) 0.37909(7)
H35_5 H 0.0399 0.7022 0.3688
C48_5 C 0.0868(2) 0.6269(4) 0.38528(6)
H36_5 H 0.1044 0.5956 0.3816
H37_5 H 0.1182 0.6746 0.3808
C49_5 C 0.0846(3) 0.6290(4) 0.40447(6)
C50_5 C 0.0168(3) 0.5969(5) 0.40910(7)
C52_5 C 0.14264(16) 0.65281(24) 0.41558(4)
H40_5 H 0.1894 0.6738 0.4115
C53_5 C 0.1277(2) 0.6438(3) 0.43329(5)
C54_5 C 0.0560(3) 0.6092(4) 0.43880(6)
H41_5 H 0.0452 0.6020 0.4505
C55_5 C 0.0047(3) 0.5872(5) 0.42744(8)
C56_5 C 0.1879(2) 0.66390(28) 0.44557(5)
H49_5 H 0.0287 0.4161 0.3343
H52_5 H 0.0203 0.3300 0.3213
Zn1_5 Zn 0.64154(2) 0.41138(3) 0.312197(5)
O1_5 O 0.65075(13) 0.32906(18) 0.30591(4)
O2_5 O 0.62292(14) 0.45614(19) 0.29184(3)
O3_5 O 0.66308(12) 0.41291(17) 0.27099(3)
O6_5 O 0.55553(18) 0.37968(23) 0.32689(3)
O7_5 O 0.49534(17) 0.25864(26) 0.32358(4)
O10_5 O 0.71538(19) 0.49200(26) 0.32530(4)
O11_5 O 0.78533(17) 0.45253(26) 0.31689(4)
C1_5 C 0.6415(2) 0.50450(27) 0.26385(4)
C2_5 C 0.66504(18) 0.50558(25) 0.24749(4)
H1_5 H 0.6793 0.4731 0.2443
C3_5 C 0.6675(2) 0.5548(3) 0.23581(5)
C4_5 C 0.6430(3) 0.6017(4) 0.23988(5)
C5_5 C 0.6177(3) 0.6003(4) 0.25657(6)
H2_5 H 0.6011 0.6313 0.2595
C6_5 C 0.6170(3) 0.5530(4) 0.26895(5)
H3_5 H 0.6014 0.5529 0.2801
C7_5 C 0.6972(3) 0.5683(4) 0.21750(5)
H4_5 H 0.6832 0.5236 0.2116
H5_5 H 0.7490 0.5975 0.2175
C8_5 C 0.6616(3) 0.6092(4) 0.20908(6)
C9_5 C 0.6537(3) 0.6528(4) 0.22571(6)
H6_5 H 0.6968 0.6988 0.2274
H7_5 H 0.6129 0.6598 0.2245
C10_5 C 0.5913(2) 0.5643(3) 0.20131(6)
H8_5 H 0.5535 0.5480 0.2098
H9_5 H 0.5888 0.5231 0.1956
C11_5 C 0.5863(3) 0.6157(4) 0.18823(5)
C12_5 C 0.6503(3) 0.6698(4) 0.18481(6)
C13_5 C 0.7067(3) 0.6641(4) 0.19445(7)
H10_5 H 0.7419 0.7099 0.1992
H11_5 H 0.7306 0.6457 0.1872
C14_5 C 0.5230(3) 0.6054(4) 0.17999(5)
H12_5 H 0.4789 0.5651 0.1823
C15_5 C 0.5285(3) 0.6558(4) 0.16878(5)
C16_5 C 0.5973(4) 0.7129(5) 0.16517(7)
H13_5 H 0.6021 0.7465 0.1570
C17_5 C 0.6592(3) 0.7217(4) 0.17339(6)
H14_5 H 0.7041 0.7610 0.1712
C18_5 C 0.4648(3) 0.6475(4) 0.15949(6)
C19_5 C 0.64215(18) 0.45364(25) 0.27669(4)
C20_5 C 0.4437(2) 0.3101(4) 0.34010(5)
C21_5 C 0.4524(2) 0.3729(3) 0.34979(5)
H15_5 H 0.4950 0.4165 0.3495
C22_5 C 0.3955(3) 0.3640(4) 0.35910(6)
C23_5 C 0.3297(3) 0.3021(4) 0.35820(8)
C24_5 C 0.3198(3) 0.2429(5) 0.34930(9)
H16_5 H 0.2763 0.2002 0.3495
C25_5 C 0.3770(3) 0.2497(4) 0.34009(7)
H17_5 H 0.3703 0.2111 0.3334
C26_5 C 0.3906(2) 0.4195(4) 0.37086(6)
H18_5 H 0.4324 0.4441 0.3782
H19_5 H 0.3850 0.4544 0.3642
C27_5 C 0.3229(3) 0.3714(4) 0.38139(7)
C28_5 C 0.2726(3) 0.3142(4) 0.36859(8)
H20_5 H 0.2485 0.3318 0.3613
H21_5 H 0.2374 0.2709 0.3744
C29_5 C 0.2895(3) 0.4167(4) 0.38771(6)
H22_5 H 0.3040 0.4584 0.3805
H23_5 H 0.2376 0.3885 0.3880
C30_5 C 0.3202(2) 0.4382(3) 0.40580(5)
C31_5 C 0.3489(3) 0.3976(4) 0.41131(6)
C32_5 C 0.3393(3) 0.3443(4) 0.39724(7)
H24_5 H 0.3828 0.3420 0.3958
H25_5 H 0.3004 0.2969 0.4001
C33_5 C 0.3193(2) 0.4885(3) 0.41688(5)
H26_5 H 0.3010 0.5171 0.4132
C34_5 C 0.3457(2) 0.49620(27) 0.43363(4)
C35_5 C 0.3748(2) 0.4556(3) 0.43917(5)
H27_5 H 0.3926 0.4618 0.4504
C36_5 C 0.3783(3) 0.4070(4) 0.42887(6)
H28_5 H 0.3985 0.3802 0.4328
C37_5 C 0.3404(2) 0.54830(27) 0.44474(4)
C38_5 C 0.4991(3) 0.3154(4) 0.32971(6)
C39_5 C 0.8288(3) 0.5376(4) 0.33881(6)
C40_5 C 0.8818(2) 0.5241(4) 0.34286(6)
H29_5 H 0.8844 0.4874 0.3373
C41_5 C 0.9319(3) 0.5634(4) 0.35506(6)
C42_5 C 0.9358(3) 0.6286(4) 0.36171(7)
C43_5 C 0.8808(3) 0.6439(4) 0.35707(7)
H30_5 H 0.8804 0.6841 0.3614
C44_5 C 0.8289(3) 0.5974(4) 0.34611(7)
H31_5 H 0.7917 0.6057 0.3433
C45_5 C 0.9895(3) 0.5543(4) 0.36348(7)
H32_5 H 0.9716 0.5045 0.3664
C47_5 C 0.9979(3) 0.6635(4) 0.37415(7)
H34_5 H 0.9855 0.6818 0.3842
C51_5 C 0.96717(16) 0.56367(24) 0.39467(4)
H38_5 H 0.9271 0.5721 0.3956
H39_5 H 0.9490 0.5125 0.3944
H42_5 H 0.9576 0.5639 0.4314
C57_5 C 0.7705(3) 0.4883(4) 0.32626(6)
O14_5 O 0.6965(2) 0.3400(3) 0.34078(5)
C58_5 C 0.7379(6) 0.3493(8) 0.35264(11)
N1_5 N 0.7176(6) 0.3887(8) 0.36620(15)
C59_5 C 0.7663(7) 0.4280(10) 0.38208(16)
H43_5 H 0.7428 0.4461 0.3893
H44_5 H 0.8112 0.4670 0.3782
H45_5 H 0.7747 0.3949 0.3885
C60_5 C 0.6516(7) 0.3978(9) 0.36677(16)
H46_5 H 0.6518 0.4213 0.3773
H47_5 H 0.6090 0.3515 0.3663
H48_5 H 0.6525 0.4261 0.3572
O15_5 O 0.8345(3) 0.3527(4) 0.32891(5)
C61_5 C 0.8530(8) 0.3096(10) 0.32193(18)
N2_5 N 0.9310(6) 0.3429(8) 0.32418(14)
C62_5 C 0.9826(8) 0.4125(11) 0.33328(14)
H50_5 H 0.9646 0.4130 0.3446
H51_5 H 0.9872 0.4524 0.3268
C63_5 C 0.9717(8) 0.3051(10) 0.31721(16)
H53_5 H 0.9716 0.3057 0.3049
H54_5 H 0.9484 0.2564 0.3212
H55_5 H 0.778702 0.333719 0.353418
H56_5 H 0.81769 0.258761 0.315639
C20_6 C 0.6899(4) 0.1336(3) 0.00676(5)
C21_6 C 0.6271(3) 0.0795(2) 0.01645(5)
H15_6 H 0.5835 0.0785 0.0161
C22_6 C 0.6360(4) 0.0315(3) 0.02576(6)
C23_6 C 0.6979(4) 0.0276(3) 0.02486(8)
C24_6 C 0.7571(5) 0.0769(4) 0.01596(9)
H16_6 H 0.7998 0.0761 0.0161
C25_6 C 0.7503(4) 0.1273(3) 0.00675(7)
H17_6 H 0.7889 0.1592 0.0000
H24_6 H 0.6580 0.0408 0.0624
H25_6 H 0.7031 0.0035 0.0667
H28_6 H 0.6198 0.0183 0.0994
C39_6 C 0.4624(4) 0.2912(3) 0.00547(6)
C40_6 C 0.4759(4) 0.3577(3) 0.00952(6)
H29_6 H 0.5126 0.3970 0.0039
C41_6 C 0.4366(4) 0.3685(2) 0.02172(6)
C42_6 C 0.3714(4) 0.3072(3) 0.02837(7)
C43_6 C 0.3561(4) 0.2369(3) 0.02373(7)
H30_6 H 0.3159 0.1963 0.0280
C44_6 C 0.4026(4) 0.2315(3) 0.01277(7)
H31_6 H 0.3943 0.1860 0.0099
C45_6 C 0.4457(4) 0.4352(3) 0.03014(7)
H32_6 H 0.4955 0.4671 0.0330
H33_6 H 0.4300 0.4602 0.0225
C46_6 C 0.4012(4) 0.4117(3) 0.04575(7)
C47_6 C 0.3365(4) 0.3344(3) 0.04081(7)
H34_6 H 0.3182 0.3037 0.0508
H35_6 H 0.2978 0.3377 0.0354
C48_6 C 0.3731(4) 0.4599(3) 0.05194(6)
H36_6 H 0.4044 0.5088 0.0482
H37_6 H 0.3254 0.4436 0.0474
C49_6 C 0.3710(4) 0.4556(3) 0.07113(6)
C50_6 C 0.4031(5) 0.4199(4) 0.07576(7)
C51_6 C 0.43633(24) 0.40350(18) 0.06133(4)
H38_6 H 0.4279 0.3550 0.0622
H39_6 H 0.4875 0.4365 0.0610
C52_6 C 0.34719(24) 0.48983(18) 0.08224(4)
H40_6 H 0.3262 0.5156 0.0781
C53_6 C 0.3562(3) 0.4839(2) 0.09995(5)
C54_6 C 0.3908(4) 0.4468(3) 0.10546(6)
H41_6 H 0.3980 0.4432 0.1171
C55_6 C 0.4128(5) 0.4175(4) 0.09410(8)
H42_6 H 0.4361 0.3937 0.0980
C56_6 C 0.33610(28) 0.52400(19) 0.11223(5)
O14_6 O 0.6600(3) 0.3565(2) 0.00744(5)
C58_6 C 0.6507(8) 0.3886(6) 0.01930(11)
N1_6 N 0.6113(8) 0.3289(6) 0.03286(15)
C59_6 C 0.5720(10) 0.3383(7) 0.04874(16)
H43_6 H 0.5539 0.2967 0.0559
H44_6 H 0.5330 0.3442 0.0448
H45_6 H 0.6051 0.3798 0.0551
C60_6 C 0.6022(9) 0.2538(6) 0.03343(16)
H46_6 H 0.5787 0.2305 0.0439
H47_6 H 0.6485 0.2575 0.0329
H48_6 H 0.5739 0.2264 0.0238
H49_6 H 0.5839 0.6126 0.0009
H50_6 H 0.5870 0.5516 0.0112
H55_6 H 0.666281 0.444983 0.020085
Zn1_6 Zn 0.58862(3) 0.23016(2) 0.978863(5)
O1_6 O 0.67094(18) 0.32169(13) 0.97257(4)
O2_6 O 0.54386(19) 0.16678(13) 0.95850(3)
O3_6 O 0.58709(17) 0.25017(12) 0.93765(3)
O6_6 O 0.62032(23) 0.17585(15) 0.99355(3)
O7_6 O 0.74136(26) 0.2367(2) 0.99024(4)
O10_6 O 0.50800(26) 0.22338(18) 0.99196(4)
O11_6 O 0.54747(26) 0.3328(2) 0.98355(4)
C1_6 C 0.49550(27) 0.13700(18) 0.93051(4)
C2_6 C 0.49442(25) 0.15946(18) 0.91415(4)
H1_6 H 0.5269 0.2062 0.9109
C3_6 C 0.4452(3) 0.1127(2) 0.90247(5)
C4_6 C 0.3983(4) 0.0413(2) 0.90654(5)
C5_6 C 0.3997(4) 0.0174(2) 0.92323(6)
C6_6 C 0.4470(4) 0.0640(2) 0.93561(5)
H3_6 H 0.4471 0.0485 0.9467
C7_6 C 0.4317(4) 0.1289(3) 0.88416(5)
H4_6 H 0.4764 0.1596 0.8782
H5_6 H 0.4025 0.1515 0.8841
C8_6 C 0.3908(4) 0.0524(3) 0.87574(6)
C9_6 C 0.3472(4) 0.0009(3) 0.89237(6)
C10_6 C 0.4357(3) 0.0270(2) 0.86797(6)
H8_6 H 0.4520 0.0055 0.8764
H9_6 H 0.4769 0.0657 0.8622
C13_6 C 0.3359(4) 0.0426(3) 0.86111(7)
H10_6 H 0.2901 0.0320 0.8658
H11_6 H 0.3543 0.0849 0.8538
C19_6 C 0.54636(25) 0.18851(18) 0.94335(4)
C38_6 C 0.6846(4) 0.1837(3) 0.99637(6)
C57_6 C 0.5117(4) 0.2822(3) 0.99292(6)
O15_6 O 0.6473(4) 0.4818(2) 0.99557(5)
C61_6 C 0.6904(10) 0.5434(6) 0.98859(18)
N2_6 N 0.6571(8) 0.5881(6) 0.99084(14)
C62_6 C 0.5875(11) 0.5701(7) 0.99994(14)
H51_6 H 0.5476 0.5348 0.9934
C63_6 C 0.6949(10) 0.6666(6) 0.98387(16)
H52_6 H 0.6700 0.6903 0.9879
H53_6 H 0.6943 0.6659 0.9715
H54_6 H 0.7436 0.6920 0.9878
H56_6 H 0.741239 0.55893 0.982306
C26_6 C 0.5805(4) 0.9711(3) 0.03752(6)
H18_6 H 0.5559 0.9883 0.0448
H19_6 H 0.5456 0.9306 0.0308
C27_6 C 0.6286(4) 0.9515(3) 0.04805(7)
C28_6 C 0.6858(4) 0.9584(3) 0.03525(8)
H20_6 H 0.6682 0.9167 0.0279
H21_6 H 0.7291 0.9665 0.0410
C29_6 C 0.5833(4) 0.8728(3) 0.05437(6)
H22_6 H 0.5416 0.8456 0.0471
H23_6 H 0.6115 0.8491 0.0546
C30_6 C 0.5618(3) 0.8820(2) 0.07246(5)
C31_6 C 0.6024(4) 0.9513(2) 0.07797(6)
C32_6 C 0.6557(4) 0.9950(3) 0.06390(7)
C33_6 C 0.5115(3) 0.8308(2) 0.08354(5)
H26_6 H 0.4829 0.7839 0.0798
C34_6 C 0.50380(27) 0.84950(18) 0.10029(4)
C35_6 C 0.5444(3) 0.9192(2) 0.10583(5)
H27_6 H 0.5382 0.9308 0.1170
C36_6 C 0.5930(4) 0.9713(3) 0.09553(6)
C37_6 C 0.45170(27) 0.79210(18) 0.11140(4)
H2_6 H 0.3687 0.9698 0.9261
H6_6 H 0.3012 0.9980 0.8940
H7_6 H 0.3402 0.9531 0.8911
C11_6 C 0.3843(4) 0.9706(2) 0.85489(5)
C12_6 C 0.3302(4) 0.9805(3) 0.85147(6)
C14_6 C 0.3946(4) 0.9176(3) 0.84665(5)
H12_6 H 0.4349 0.9138 0.8489
C15_6 C 0.3442(4) 0.8727(2) 0.83544(5)
C16_6 C 0.2871(5) 0.8844(3) 0.83183(7)
H13_6 H 0.2535 0.8556 0.8236
C17_6 C 0.2783(4) 0.9375(3) 0.84005(6)
H14_6 H 0.2390 0.9431 0.8378
C18_6 C 0.3525(4) 0.8173(3) 0.82615(6)
O12_4 O 0.24755(15) 0.56578(14) 0.39425(3)
O13_4 O 0.17403(16) 0.51582(16) 0.37193(3)
H33_7 H 0.0302 0.4602 0.4775
C46_7 C 0.0105(3) 0.4117(3) 0.45425(7)
H35_7 H 0.0399 0.3377 0.4646
C48_7 C 0.0868(2) 0.4599(3) 0.44806(6)
H36_7 H 0.1044 0.5088 0.4518
H37_7 H 0.1182 0.4436 0.4526
C49_7 C 0.0846(3) 0.4556(3) 0.42887(6)
C50_7 C 0.0168(3) 0.4199(4) 0.42424(7)
C52_7 C 0.14264(16) 0.48983(18) 0.41776(4)
H40_7 H 0.1894 0.5156 0.4219
C53_7 C 0.1277(2) 0.4839(2) 0.40005(5)
C54_7 C 0.0560(3) 0.4468(3) 0.39454(6)
H41_7 H 0.0452 0.4432 0.3829
C55_7 C 0.0047(3) 0.4175(4) 0.40590(8)
C56_7 C 0.1879(2) 0.52400(19) 0.38777(5)
H49_7 H 0.0287 0.6126 0.4991
H52_7 H 0.0203 0.6903 0.5121
Zn6_2 Zn 0.32728(3) 0.65477(2) 0.385358(5)
Zn8_2 Zn 0.24165(4) 0.56960(3) 0.353108(6)
Zn1_7 Zn 0.64154(2) 0.23016(2) 0.521137(5)
Zn2_4 Zn 0.65477(2) 0.32749(2) 0.552025(5)
Zn3_4 Zn 0.56960(3) 0.32795(3) 0.519775(6)
Zn4_4 Zn 0.74265(3) 0.40206(2) 0.518154(6)
O1_7 O 0.65075(13) 0.32169(13) 0.52743(4)
O2_7 O 0.62292(14) 0.16678(13) 0.54150(3)
O3_7 O 0.66308(12) 0.25017(12) 0.56235(3)
O6_7 O 0.55553(18) 0.17585(15) 0.50645(3)
O7_7 O 0.49534(17) 0.2367(2) 0.50976(4)
O10_7 O 0.71538(19) 0.22338(18) 0.50804(4)
O11_7 O 0.78533(17) 0.3328(2) 0.51645(4)
C1_7 C 0.6415(2) 0.13700(18) 0.56949(4)
C2_7 C 0.66504(18) 0.15946(18) 0.58585(4)
H1_7 H 0.6793 0.2062 0.5891
C3_7 C 0.6675(2) 0.1127(2) 0.59753(5)
C4_7 C 0.6430(3) 0.0413(2) 0.59346(5)
C5_7 C 0.6177(3) 0.0174(2) 0.57677(6)
C6_7 C 0.6170(3) 0.0640(2) 0.56439(5)
H3_7 H 0.6014 0.0485 0.5533
C7_7 C 0.6972(3) 0.1289(3) 0.61584(5)
H4_7 H 0.6832 0.1596 0.6218
H5_7 H 0.7490 0.1515 0.6159
C8_7 C 0.6616(3) 0.0524(3) 0.62426(6)
C9_7 C 0.6537(3) 0.0009(3) 0.60763(6)
C10_7 C 0.5913(2) 0.0270(2) 0.63203(6)
H8_7 H 0.5535 0.0055 0.6236
H9_7 H 0.5888 0.0657 0.6378
C13_7 C 0.7067(3) 0.0426(3) 0.63889(7)
H10_7 H 0.7419 0.0320 0.6342
H11_7 H 0.7306 0.0849 0.6462
C19_7 C 0.64215(18) 0.18851(18) 0.55665(4)
C20_7 C 0.4437(2) 0.1336(3) 0.49324(5)
C21_7 C 0.4524(2) 0.0795(2) 0.48355(5)
H15_7 H 0.4950 0.0785 0.4839
C22_7 C 0.3955(3) 0.0315(3) 0.47424(6)
C23_7 C 0.3297(3) 0.0276(3) 0.47514(8)
C24_7 C 0.3198(3) 0.0769(4) 0.48404(9)
H16_7 H 0.2763 0.0761 0.4839
C25_7 C 0.3770(3) 0.1273(3) 0.49325(7)
H17_7 H 0.3703 0.1592 0.5000
H24_7 H 0.3828 0.0408 0.4376
H25_7 H 0.3004 0.0035 0.4333
H28_7 H 0.3985 0.0183 0.4006
C38_7 C 0.4991(3) 0.1837(3) 0.50363(6)
C39_7 C 0.8288(3) 0.2912(3) 0.49453(6)
C40_7 C 0.8818(2) 0.3577(3) 0.49048(6)
H29_7 H 0.8844 0.3970 0.4961
C41_7 C 0.9319(3) 0.3685(2) 0.47828(6)
C42_7 C 0.9358(3) 0.3072(3) 0.47163(7)
C43_7 C 0.8808(3) 0.2369(3) 0.47627(7)
H30_7 H 0.8804 0.1963 0.4720
C44_7 C 0.8289(3) 0.2315(3) 0.48723(7)
H31_7 H 0.7917 0.1860 0.4901
C45_7 C 0.9895(3) 0.4352(3) 0.46986(7)
H32_7 H 0.9716 0.4671 0.4670
C47_7 C 0.9979(3) 0.3344(3) 0.45919(7)
H34_7 H 0.9855 0.3037 0.4492
C51_7 C 0.96717(16) 0.40350(18) 0.43867(4)
H38_7 H 0.9271 0.3550 0.4378
H39_7 H 0.9490 0.4365 0.4390
H42_7 H 0.9576 0.3937 0.4020
C57_7 C 0.7705(3) 0.2822(3) 0.50708(6)
O14_7 O 0.6965(2) 0.3565(2) 0.49256(5)
C58_7 C 0.7379(6) 0.3886(6) 0.48070(11)
N1_7 N 0.7176(6) 0.3289(6) 0.46714(15)
C59_7 C 0.7663(7) 0.3383(7) 0.45126(16)
H43_7 H 0.7428 0.2967 0.4441
H44_7 H 0.8112 0.3442 0.4552
H45_7 H 0.7747 0.3798 0.4449
C60_7 C 0.6516(7) 0.2538(6) 0.46657(16)
H46_7 H 0.6518 0.2305 0.4561
H47_7 H 0.6090 0.2575 0.4671
H48_7 H 0.6525 0.2264 0.4762
O15_7 O 0.8345(3) 0.4818(2) 0.50443(5)
C61_7 C 0.8530(8) 0.5434(6) 0.51141(18)
N2_7 N 0.9310(6) 0.5881(6) 0.50916(14)
C62_7 C 0.9826(8) 0.5701(7) 0.50006(14)
H50_7 H 0.9646 0.5516 0.4888
H51_7 H 0.9872 0.5348 0.5066
C63_7 C 0.9717(8) 0.6666(6) 0.51613(16)
H53_7 H 0.9716 0.6659 0.5285
H54_7 H 0.9484 0.6920 0.5122
O16_4 O 0.5896(3) 0.4073(2) 0.50510(4)
O17_4 O 0.70063(27) 0.4728(2) 0.51607(4)
O18_4 O 0.73026(14) 0.41473(21) 0.56196(3)
O19_4 O 0.80649(14) 0.44863(20) 0.53961(3)
O20_4 O 0.56578(14) 0.31823(21) 0.56091(3)
O21_4 O 0.51582(16) 0.34179(23) 0.53859(3)
H55_7 H 0.778702 0.444983 0.479915
H56_7 H 0.81769 0.55893 0.517694
O4_4 O 0.4073(2) 0.8177(2) 0.67177(4)
O5_4 O 0.4728(2) 0.77217(18) 0.68274(4)
O8_4 O 0.31553(15) 0.73026(14) 0.39530(3)
O9_4 O 0.35786(14) 0.80649(14) 0.37295(3)
H2_7 H 0.6011 0.9698 0.5739
H6_7 H 0.6968 0.9980 0.6060
H7_7 H 0.6129 0.9531 0.6089
C11_7 C 0.5863(3) 0.9706(2) 0.64511(5)
C12_7 C 0.6503(3) 0.9805(3) 0.64853(6)
C14_7 C 0.5230(3) 0.9176(3) 0.65335(5)
H12_7 H 0.4789 0.9138 0.6511
C15_7 C 0.5285(3) 0.8727(2) 0.66456(5)
C16_7 C 0.5973(4) 0.8844(3) 0.66817(7)
H13_7 H 0.6021 0.8556 0.6764
C17_7 C 0.6592(3) 0.9375(3) 0.65995(6)
H14_7 H 0.7041 0.9431 0.6622
C18_7 C 0.4648(3) 0.8173(3) 0.67385(6)
C26_7 C 0.3906(2) 0.9711(3) 0.46248(6)
H18_7 H 0.4324 0.9883 0.4552
H19_7 H 0.3850 0.9306 0.4692
C27_7 C 0.3229(3) 0.9515(3) 0.45195(7)
C28_7 C 0.2726(3) 0.9584(3) 0.46475(8)
H20_7 H 0.2485 0.9167 0.4721
H21_7 H 0.2374 0.9665 0.4590
C29_7 C 0.2895(3) 0.8728(3) 0.44563(6)
H22_7 H 0.3040 0.8456 0.4529
H23_7 H 0.2376 0.8491 0.4454
C30_7 C 0.3202(2) 0.8820(2) 0.42754(5)
C31_7 C 0.3489(3) 0.9513(2) 0.42203(6)
C32_7 C 0.3393(3) 0.9950(3) 0.43610(7)
C33_7 C 0.3193(2) 0.8308(2) 0.41646(5)
H26_7 H 0.3010 0.7839 0.4202
C34_7 C 0.3457(2) 0.84950(18) 0.39971(4)
C35_7 C 0.3748(2) 0.9192(2) 0.39417(5)
H27_7 H 0.3926 0.9308 0.3830
C36_7 C 0.3783(3) 0.9713(3) 0.40447(6)
C37_7 C 0.3404(2) 0.79210(18) 0.38860(4)
Zn7_3 Zn 0.32795(3) 0.75835(4) 0.686441(6)
Zn9_3 Zn 0.40206(2) 0.65941(4) 0.684820(6)
Zn10_2 Zn 0.34059(4) 0.74265(3) 0.351487(6)
O4_5 O 0.4104(3) 0.5927(2) 0.00510(4)
O5_5 O 0.29937(27) 0.5272(2) 0.01607(4)
C16_8 C 0.2871(5) 0.4027(4) 0.00150(7)
H13_8 H 0.2535 0.3979 0.0097
C18_8 C 0.3525(4) 0.5352(3) 0.00718(6)
Zn7_4 Zn 0.43040(5) 0.67205(3) 0.019775(6)
Zn9_4 Zn 0.25735(4) 0.59794(2) 0.018154(6)
Zn1_8 Zn 0.58862(3) 0.35846(2) 0.854470(5)
Zn2_5 Zn 0.67272(3) 0.34523(2) 0.885358(5)
Zn3_5 Zn 0.75835(4) 0.43040(3) 0.853108(6)
Zn4_5 Zn 0.65941(4) 0.25735(3) 0.851487(6)
O1_8 O 0.67094(18) 0.34925(13) 0.86076(4)
O2_8 O 0.54386(19) 0.37708(14) 0.87483(3)
O3_8 O 0.58709(17) 0.33692(12) 0.89568(3)
O6_8 O 0.62032(23) 0.44447(18) 0.83978(3)
O7_8 O 0.74136(26) 0.50466(17) 0.84309(4)
O8_5 O 0.41473(21) 0.68447(15) 0.72863(3)
O9_5 O 0.44863(20) 0.64214(14) 0.70628(3)
O10_8 O 0.50800(26) 0.28462(19) 0.84137(4)
O11_8 O 0.54747(26) 0.21467(17) 0.84978(4)
C1_8 C 0.49550(27) 0.3585(2) 0.90282(4)
C2_8 C 0.49442(25) 0.33496(18) 0.91918(4)
H1_8 H 0.5269 0.3207 0.9224
C3_8 C 0.4452(3) 0.3325(2) 0.93086(5)
C4_8 C 0.3983(4) 0.3570(3) 0.92679(5)
C5_8 C 0.3997(4) 0.3823(3) 0.91010(6)
H2_8 H 0.3687 0.3989 0.9072
C6_8 C 0.4470(4) 0.3830(3) 0.89772(5)
H3_8 H 0.4471 0.3986 0.8866
C7_8 C 0.4317(4) 0.3028(3) 0.94917(5)
H4_8 H 0.4764 0.3168 0.9551
H5_8 H 0.4025 0.2510 0.9492
C8_8 C 0.3908(4) 0.3384(3) 0.95759(6)
C9_8 C 0.3472(4) 0.3463(3) 0.94096(6)
H6_8 H 0.3012 0.3032 0.9393
H7_8 H 0.3402 0.3871 0.9422
C10_8 C 0.4357(3) 0.4087(2) 0.96536(6)
H8_8 H 0.4520 0.4465 0.9569
H9_8 H 0.4769 0.4112 0.9711
C11_8 C 0.3843(4) 0.4137(3) 0.97844(5)
C12_8 C 0.3302(4) 0.3497(3) 0.98186(6)
C13_8 C 0.3359(4) 0.2933(3) 0.97222(7)
H10_8 H 0.2901 0.2581 0.9675
H11_8 H 0.3543 0.2694 0.9795
C14_8 C 0.3946(4) 0.4770(3) 0.98668(5)
H12_8 H 0.4349 0.5211 0.9844
C15_8 C 0.3442(4) 0.4715(3) 0.99789(5)
C17_8 C 0.2783(4) 0.3408(3) 0.99328(6)
H14_8 H 0.2390 0.2959 0.9955
C19_8 C 0.54636(25) 0.35785(18) 0.88998(4)
C20_8 C 0.6899(4) 0.5563(2) 0.82657(5)
C21_8 C 0.6271(3) 0.5476(2) 0.81688(5)
H15_8 H 0.5835 0.5050 0.8172
C22_8 C 0.6360(4) 0.6045(3) 0.80757(6)
C23_8 C 0.6979(4) 0.6703(3) 0.80847(8)
C24_8 C 0.7571(5) 0.6802(3) 0.81737(9)
H16_8 H 0.7998 0.7237 0.8172
C25_8 C 0.7503(4) 0.6230(3) 0.82658(7)
H17_8 H 0.7889 0.6297 0.8333
C26_8 C 0.5805(4) 0.6094(2) 0.79581(6)
H18_8 H 0.5559 0.5676 0.7885
H19_8 H 0.5456 0.6150 0.8025
C27_8 C 0.6286(4) 0.6771(3) 0.78528(7)
C28_8 C 0.6858(4) 0.7274(3) 0.79808(8)
H20_8 H 0.6682 0.7515 0.8054
H21_8 H 0.7291 0.7626 0.7923
C29_8 C 0.5833(4) 0.7105(3) 0.77896(6)
H22_8 H 0.5416 0.6960 0.7862
H23_8 H 0.6115 0.7624 0.7787
C30_8 C 0.5618(3) 0.6798(2) 0.76087(5)
C31_8 C 0.6024(4) 0.6511(3) 0.75536(6)
C32_8 C 0.6557(4) 0.6607(3) 0.76943(7)
H24_8 H 0.6580 0.6172 0.7709
H25_8 H 0.7031 0.6996 0.7666
C33_8 C 0.5115(3) 0.6807(2) 0.74979(5)
H26_8 H 0.4829 0.6990 0.7535
C34_8 C 0.50380(27) 0.6543(2) 0.73304(4)
C35_8 C 0.5444(3) 0.6252(2) 0.72750(5)
H27_8 H 0.5382 0.6074 0.7163
C36_8 C 0.5930(4) 0.6217(3) 0.73780(6)
H28_8 H 0.6198 0.6015 0.7339
C37_8 C 0.45170(27) 0.6596(2) 0.72193(4)
C38_8 C 0.6846(4) 0.5009(3) 0.83696(6)
C39_8 C 0.4624(4) 0.1712(3) 0.82786(6)
C40_8 C 0.4759(4) 0.1182(2) 0.82381(6)
H29_8 H 0.5126 0.1156 0.8294
C41_8 C 0.4366(4) 0.0681(3) 0.81161(6)
C42_8 C 0.3714(4) 0.0642(3) 0.80496(7)
C43_8 C 0.3561(4) 0.1192(3) 0.80960(7)
H30_8 H 0.3159 0.1196 0.8053
C44_8 C 0.4026(4) 0.1711(3) 0.82056(7)
H31_8 H 0.3943 0.2083 0.8234
C45_8 C 0.4457(4) 0.0105(3) 0.80319(7)
H32_8 H 0.4955 0.0284 0.8003
C47_8 C 0.3365(4) 0.0021(3) 0.79252(7)
H34_8 H 0.3182 0.0145 0.7825
C51_8 C 0.43633(24) 0.03283(16) 0.77200(4)
H38_8 H 0.4279 0.0729 0.7711
H39_8 H 0.4875 0.0510 0.7723
H42_8 H 0.4361 0.0424 0.7353
C57_8 C 0.5117(4) 0.2295(3) 0.84041(6)
O14_8 O 0.6600(3) 0.3035(2) 0.82589(5)
C58_8 C 0.6507(8) 0.2621(6) 0.81403(11)
N1_8 N 0.6113(8) 0.2824(6) 0.80047(15)
C59_8 C 0.5720(10) 0.2337(7) 0.78459(16)
H43_8 H 0.5539 0.2572 0.7774
H44_8 H 0.5330 0.1888 0.7885
H45_8 H 0.6051 0.2253 0.7782
C60_8 C 0.6022(9) 0.3484(7) 0.79990(16)
H46_8 H 0.5787 0.3482 0.7894
H47_8 H 0.6485 0.3910 0.8004
H48_8 H 0.5739 0.3475 0.8095
O15_8 O 0.6473(4) 0.1655(3) 0.83776(5)
C61_8 C 0.6904(10) 0.1470(8) 0.84474(18)
N2_8 N 0.6571(8) 0.0690(6) 0.84249(14)
C62_8 C 0.5875(11) 0.0174(8) 0.83339(14)
H50_8 H 0.5870 0.0354 0.8221
H51_8 H 0.5476 0.0128 0.8399
C63_8 C 0.6949(10) 0.0283(8) 0.84946(16)
H53_8 H 0.6943 0.0284 0.8618
H54_8 H 0.7436 0.0516 0.8455
Zn5_3 Zn 0.32749(4) 0.67272(3) 0.718691(5)
O16_5 O 0.8177(4) 0.4104(3) 0.83843(4)
O17_5 O 0.77217(34) 0.29937(27) 0.84940(4)
O18_5 O 0.68447(25) 0.26974(14) 0.89530(3)
O19_5 O 0.64214(24) 0.19351(14) 0.87295(3)
O20_5 O 0.75245(25) 0.43422(14) 0.89425(3)
O21_5 O 0.82597(28) 0.48418(16) 0.87193(3)
H55_8 H 0.666281 0.221298 0.813248
H56_8 H 0.741239 0.18231 0.851028
O12_5 O 0.31823(21) 0.75245(15) 0.72758(3)
O13_5 O 0.34179(23) 0.82597(16) 0.70526(3)
H33_8 H 0.4300 0.9698 0.8108
C46_8 C 0.4012(4) 0.9895(3) 0.78758(7)
H35_8 H 0.2978 0.9601 0.7979
C48_8 C 0.3731(4) 0.9132(2) 0.78139(6)
H36_8 H 0.4044 0.8956 0.7851
H37_8 H 0.3254 0.8818 0.7859
C49_8 C 0.3710(4) 0.9154(3) 0.76220(6)
C50_8 C 0.4031(5) 0.9832(3) 0.75757(7)
C52_8 C 0.34719(24) 0.85736(16) 0.75109(4)
H40_8 H 0.3262 0.8106 0.7552
C53_8 C 0.3562(3) 0.8723(2) 0.73338(5)
C54_8 C 0.3908(4) 0.9440(3) 0.72787(6)
H41_8 H 0.3980 0.9548 0.7162
C55_8 C 0.4128(5) 0.9953(3) 0.73923(8)
C56_8 C 0.33610(28) 0.8121(2) 0.72110(5)
H49_8 H 0.5839 0.9713 0.8324
H52_8 H 0.6700 0.9797 0.8454
O4_6 O 0.1823(2) 0.5896(3) 0.33843(4)
O5_6 O 0.22783(18) 0.70063(27) 0.34940(4)
O8_6 O 0.26974(14) 0.58527(21) 0.06196(3)
O9_6 O 0.19351(14) 0.55137(20) 0.03961(3)
H2_9 H 0.0302 0.6313 0.2405
H6_9 H 0.0020 0.6988 0.2726
H7_9 H 0.0469 0.6598 0.2755
C11_9 C 0.0294(2) 0.6157(4) 0.31177(5)
C12_9 C 0.0195(3) 0.6698(4) 0.31519(6)
C14_9 C 0.0824(3) 0.6054(4) 0.32001(5)
H12_9 H 0.0862 0.5651 0.3177
C15_9 C 0.1273(2) 0.6558(4) 0.33122(5)
C16_9 C 0.1156(3) 0.7129(5) 0.33483(7)
H13_9 H 0.1444 0.7465 0.3430
C17_9 C 0.0625(3) 0.7217(4) 0.32661(6)
H14_9 H 0.0569 0.7610 0.3288
C18_9 C 0.1827(3) 0.6475(4) 0.34051(6)
C26_9 C 0.0289(3) 0.4195(4) 0.12914(6)
H18_9 H 0.0117 0.4441 0.1218
H19_9 H 0.0694 0.4544 0.1358
C27_9 C 0.0485(3) 0.3714(4) 0.11861(7)
C28_9 C 0.0416(3) 0.3142(4) 0.13141(8)
H20_9 H 0.0833 0.3318 0.1387
H21_9 H 0.0335 0.2709 0.1256
C29_9 C 0.1272(3) 0.4167(4) 0.11229(6)
H22_9 H 0.1544 0.4584 0.1195
H23_9 H 0.1509 0.3885 0.1120
C30_9 C 0.1180(2) 0.4382(3) 0.09420(5)
C31_9 C 0.0487(2) 0.3976(4) 0.08869(6)
C32_9 C 0.0050(3) 0.3443(4) 0.10276(7)
C33_9 C 0.1692(2) 0.4885(3) 0.08312(5)
H26_9 H 0.2161 0.5171 0.0868
C34_9 C 0.15050(18) 0.49620(27) 0.06637(4)
C35_9 C 0.0808(2) 0.4556(3) 0.06083(5)
H27_9 H 0.0692 0.4618 0.0496
C36_9 C 0.0287(3) 0.4070(4) 0.07113(6)
C37_9 C 0.20790(18) 0.54830(27) 0.05526(4)
Zn5_4 Zn 0.34523(2) 0.67251(4) 0.052025(5)
Zn1_9 Zn 0.76984(2) 0.41138(3) 0.187803(5)
Zn2_6 Zn 0.67251(2) 0.32728(3) 0.218691(5)
Zn3_6 Zn 0.67205(3) 0.24165(4) 0.186441(6)
Zn4_6 Zn 0.59794(2) 0.34059(4) 0.184820(6)
O1_9 O 0.67831(13) 0.32906(18) 0.19409(4)
O2_9 O 0.83322(13) 0.45614(19) 0.20816(3)
O3_9 O 0.74983(12) 0.41291(17) 0.22901(3)
O6_9 O 0.82415(15) 0.37968(23) 0.17311(3)
O7_9 O 0.7633(2) 0.25864(26) 0.17642(4)
O10_9 O 0.77662(18) 0.49200(26) 0.17470(4)
O11_9 O 0.6672(2) 0.45253(26) 0.18311(4)
O12_6 O 0.43422(14) 0.68177(21) 0.06091(3)
O13_6 O 0.48418(16) 0.65821(23) 0.03859(3)
C1_9 C 0.86300(18) 0.50450(27) 0.23615(4)
C2_9 C 0.84054(18) 0.50558(25) 0.25251(4)
H1_9 H 0.7938 0.4731 0.2557
C3_9 C 0.8873(2) 0.5548(3) 0.26419(5)
C4_9 C 0.9587(2) 0.6017(4) 0.26012(5)
C5_9 C 0.9826(2) 0.6003(4) 0.24343(6)
C6_9 C 0.9360(2) 0.5530(4) 0.23105(5)
H3_9 H 0.9515 0.5529 0.2199
C7_9 C 0.8711(3) 0.5683(4) 0.28250(5)
H4_9 H 0.8404 0.5236 0.2884
H5_9 H 0.8485 0.5975 0.2825
C8_9 C 0.9476(3) 0.6092(4) 0.29092(6)
C9_9 C 0.9991(3) 0.6528(4) 0.27429(6)
C10_9 C 0.9730(2) 0.5643(3) 0.29869(6)
H8_9 H 0.9945 0.5480 0.2902
H9_9 H 0.9343 0.5231 0.3044
C13_9 C 0.9574(3) 0.6641(4) 0.30555(7)
H10_9 H 0.9680 0.7099 0.3008
H11_9 H 0.9151 0.6457 0.3128
C19_9 C 0.81149(18) 0.45364(25) 0.22331(4)
C20_9 C 0.8664(3) 0.3101(4) 0.15990(5)
C21_9 C 0.9205(2) 0.3729(3) 0.15021(5)
H15_9 H 0.9215 0.4165 0.1505
C22_9 C 0.9685(3) 0.3640(4) 0.14090(6)
C23_9 C 0.9724(3) 0.3021(4) 0.14180(8)
C24_9 C 0.9231(4) 0.2429(5) 0.15070(9)
H16_9 H 0.9239 0.2002 0.1505
C25_9 C 0.8727(3) 0.2497(4) 0.15991(7)
H17_9 H 0.8408 0.2111 0.1666
H24_9 H 0.9592 0.3420 0.1042
H25_9 H 0.9965 0.2969 0.0999
H28_9 H 0.9817 0.3802 0.0672
C38_9 C 0.8163(3) 0.3154(4) 0.17029(6)
C39_9 C 0.7088(3) 0.5376(4) 0.16119(6)
C40_9 C 0.6423(3) 0.5241(4) 0.15714(6)
H29_9 H 0.6030 0.4874 0.1627
C41_9 C 0.6315(2) 0.5634(4) 0.14494(6)
C42_9 C 0.6928(3) 0.6286(4) 0.13829(7)
C43_9 C 0.7631(3) 0.6439(4) 0.14293(7)
H30_9 H 0.8037 0.6841 0.1386
C44_9 C 0.7685(3) 0.5974(4) 0.15389(7)
H31_9 H 0.8140 0.6057 0.1567
C45_9 C 0.5648(3) 0.5543(4) 0.13652(7)
H32_9 H 0.5329 0.5045 0.1336
H33_9 H 0.5398 0.5700 0.1441
C46_9 C 0.5883(3) 0.5988(4) 0.12091(7)
C47_9 C 0.6656(3) 0.6635(4) 0.12585(7)
H34_9 H 0.6963 0.6818 0.1158
H35_9 H 0.6623 0.7022 0.1312
C48_9 C 0.5401(3) 0.6269(4) 0.11472(6)
H36_9 H 0.4912 0.5956 0.1184
H37_9 H 0.5564 0.6746 0.1192
C49_9 C 0.5444(3) 0.6290(4) 0.09553(6)
C50_9 C 0.5801(4) 0.5969(5) 0.09090(7)
C51_9 C 0.59650(18) 0.56367(24) 0.10533(4)
H38_9 H 0.6450 0.5721 0.1044
H39_9 H 0.5635 0.5125 0.1056
C52_9 C 0.51017(18) 0.65281(24) 0.08442(4)
H40_9 H 0.4844 0.6738 0.0885
C53_9 C 0.5161(2) 0.6438(3) 0.06671(5)
C54_9 C 0.5532(3) 0.6092(4) 0.06120(6)
H41_9 H 0.5568 0.6020 0.0495
C55_9 C 0.5825(4) 0.5872(5) 0.07256(8)
H42_9 H 0.6063 0.5639 0.0686
C56_9 C 0.47600(19) 0.66390(28) 0.05443(5)
C57_9 C 0.7178(3) 0.4883(4) 0.17374(6)
O14_9 O 0.6435(2) 0.3400(3) 0.15922(5)
C58_9 C 0.6114(6) 0.3493(8) 0.14736(11)
N1_9 N 0.6711(6) 0.3887(8) 0.13380(15)
C59_9 C 0.6617(7) 0.4280(10) 0.11792(16)
H43_9 H 0.7033 0.4461 0.1107
H44_9 H 0.6558 0.4670 0.1218
H45_9 H 0.6202 0.3949 0.1115
C60_9 C 0.7462(6) 0.3978(9) 0.13323(16)
H46_9 H 0.7695 0.4213 0.1227
H47_9 H 0.7425 0.3515 0.1337
H48_9 H 0.7736 0.4261 0.1428
O15_9 O 0.5182(2) 0.3527(4) 0.17109(5)
C61_9 C 0.4566(6) 0.3096(10) 0.17807(18)
N2_9 N 0.4119(6) 0.3429(8) 0.17582(14)
C62_9 C 0.4299(7) 0.4125(11) 0.16672(14)
H49_9 H 0.3874 0.4161 0.1657
H50_9 H 0.4484 0.4130 0.1554
H51_9 H 0.4652 0.4524 0.1732
C63_9 C 0.3334(6) 0.3051(10) 0.18279(16)
H52_9 H 0.3097 0.3300 0.1787
H53_9 H 0.3341 0.3057 0.1951
H54_9 H 0.3080 0.2564 0.1788
O16_6 O 0.5927(2) 0.1823(4) 0.17177(4)
O17_6 O 0.5272(2) 0.22783(34) 0.18274(4)
O18_6 O 0.58527(21) 0.31553(25) 0.22863(3)
O19_6 O 0.55137(20) 0.35786(24) 0.20628(3)
O20_6 O 0.68177(21) 0.24755(25) 0.22758(3)
O21_6 O 0.65821(23) 0.17403(28) 0.20526(3)
H55_9 H 0.555017 0.333719 0.146582
H56_9 H 0.44107 0.258761 0.184361
H2_10 H 0.3989 0.0302 0.0739
H6_10 H 0.3032 0.0020 0.1060
H7_10 H 0.3871 0.0469 0.1089
C11_10 C 0.4137(3) 0.0294(2) 0.14511(5)
C12_10 C 0.3497(3) 0.0195(3) 0.14853(6)
C14_10 C 0.4770(3) 0.0824(3) 0.15335(5)
H12_10 H 0.5211 0.0862 0.1511
C15_10 C 0.4715(3) 0.1273(2) 0.16456(5)
C16_10 C 0.4027(4) 0.1156(3) 0.16817(7)
H13_10 H 0.3979 0.1444 0.1764
C17_10 C 0.3408(3) 0.0625(3) 0.15995(6)
H14_10 H 0.2959 0.0569 0.1622
C18_10 C 0.5352(3) 0.1827(3) 0.17385(6)
C26_10 C 0.6094(2) 0.0289(3) 0.96248(6)
H18_10 H 0.5676 0.0117 0.9552
H19_10 H 0.6150 0.0694 0.9692
C27_10 C 0.6771(3) 0.0485(3) 0.95195(7)
C28_10 C 0.7274(3) 0.0416(3) 0.96475(8)
H20_10 H 0.7515 0.0833 0.9721
H21_10 H 0.7626 0.0335 0.9590
C29_10 C 0.7105(3) 0.1272(3) 0.94563(6)
H22_10 H 0.6960 0.1544 0.9529
H23_10 H 0.7624 0.1509 0.9454
C30_10 C 0.6798(2) 0.1180(2) 0.92754(5)
C31_10 C 0.6511(3) 0.0487(2) 0.92203(6)
C32_10 C 0.6607(3) 0.0050(3) 0.93610(7)
C33_10 C 0.6807(2) 0.1692(2) 0.91646(5)
H26_10 H 0.6990 0.2161 0.9202
C34_10 C 0.6543(2) 0.15050(18) 0.89971(4)
C35_10 C 0.6252(2) 0.0808(2) 0.89417(5)
H27_10 H 0.6074 0.0692 0.8830
C36_10 C 0.6217(3) 0.0287(3) 0.90447(6)
C37_10 C 0.6596(2) 0.20790(18) 0.88860(4)
Zn1_10 Zn 0.35846(2) 0.76984(2) 0.021137(5)
O1_10 O 0.34925(13) 0.67831(13) 0.02743(4)
O2_10 O 0.37708(14) 0.83322(13) 0.04150(3)
O3_10 O 0.33692(12) 0.74983(12) 0.06235(3)
O6_10 O 0.44447(18) 0.82415(15) 0.00645(3)
O7_10 O 0.50466(17) 0.7633(2) 0.00976(4)
O10_10 O 0.28462(19) 0.77662(18) 0.00804(4)
O11_10 O 0.21467(17) 0.6672(2) 0.01645(4)
C1_10 C 0.3585(2) 0.86300(18) 0.06949(4)
C2_10 C 0.33496(18) 0.84054(18) 0.08585(4)
H1_10 H 0.3207 0.7938 0.0891
C3_10 C 0.3325(2) 0.8873(2) 0.09753(5)
C4_10 C 0.3570(3) 0.9587(2) 0.09346(5)
C5_10 C 0.3823(3) 0.9826(2) 0.07677(6)
C6_10 C 0.3830(3) 0.9360(2) 0.06439(5)
H3_10 H 0.3986 0.9515 0.0533
C7_10 C 0.3028(3) 0.8711(3) 0.11584(5)
H4_10 H 0.3168 0.8404 0.1218
H5_10 H 0.2510 0.8485 0.1159
C8_10 C 0.3384(3) 0.9476(3) 0.12426(6)
C9_10 C 0.3463(3) 0.9991(3) 0.10763(6)
C10_10 C 0.4087(2) 0.9730(2) 0.13203(6)
H8_10 H 0.4465 0.9945 0.1236
H9_10 H 0.4112 0.9343 0.1378
C13_10 C 0.2933(3) 0.9574(3) 0.13889(7)
H10_10 H 0.2581 0.9680 0.1342
H11_10 H 0.2694 0.9151 0.1462
C19_10 C 0.35785(18) 0.81149(18) 0.05665(4)
C38_10 C 0.5009(3) 0.8163(3) 0.00363(6)
C57_10 C 0.2295(3) 0.7178(3) 0.00708(6)
O15_10 O 0.1655(3) 0.5182(2) 0.00443(5)
C61_10 C 0.1470(8) 0.4566(6) 0.01141(18)
N2_10 N 0.0690(6) 0.4119(6) 0.00916(14)
C62_10 C 0.0174(8) 0.4299(7) 0.00006(14)
H51_10 H 0.0128 0.4652 0.0066
C63_10 C 0.0283(8) 0.3334(6) 0.01613(16)
H53_10 H 0.0284 0.3341 0.0285
H54_10 H 0.0516 0.3080 0.0122
H56_10 H 0.18231 0.44107 0.0176945
H33_10 H 0.9698 0.5398 0.9775
C46_10 C 0.9895(3) 0.5883(3) 0.95425(7)
H35_10 H 0.9601 0.6623 0.9646
C48_10 C 0.9132(2) 0.5401(3) 0.94806(6)
H36_10 H 0.8956 0.4912 0.9518
H37_10 H 0.8818 0.5564 0.9526
C49_10 C 0.9154(3) 0.5444(3) 0.92887(6)
C50_10 C 0.9832(3) 0.5801(4) 0.92424(7)
C52_10 C 0.85736(16) 0.51017(18) 0.91776(4)
H40_10 H 0.8106 0.4844 0.9219
C53_10 C 0.8723(2) 0.5161(2) 0.90005(5)
C54_10 C 0.9440(3) 0.5532(3) 0.89454(6)
H41_10 H 0.9548 0.5568 0.8829
C55_10 C 0.9953(3) 0.5825(4) 0.90590(8)
C56_10 C 0.8121(2) 0.47600(19) 0.88777(5)
H49_10 H 0.9713 0.3874 0.9991
H33_11 H 0.5700 0.0302 0.3108
C46_11 C 0.5988(4) 0.0105(3) 0.28758(7)
H35_11 H 0.7022 0.0399 0.2979
C48_11 C 0.6269(4) 0.0868(2) 0.28139(6)
H36_11 H 0.5956 0.1044 0.2851
H37_11 H 0.6746 0.1182 0.2859
C49_11 C 0.6290(4) 0.0846(3) 0.26220(6)
C50_11 C 0.5969(5) 0.0168(3) 0.25757(7)
C52_11 C 0.65281(24) 0.14264(16) 0.25109(4)
H40_11 H 0.6738 0.1894 0.2552
C53_11 C 0.6438(3) 0.1277(2) 0.23338(5)
C54_11 C 0.6092(4) 0.0560(3) 0.22787(6)
H41_11 H 0.6020 0.0452 0.2162
C55_11 C 0.5872(5) 0.0047(3) 0.23923(8)
C56_11 C 0.66390(28) 0.1879(2) 0.22110(5)
H49_11 H 0.4161 0.0287 0.3324
H52_10 H 0.3300 0.0203 0.3454
Zn1_11 Zn 0.41138(3) 0.64154(2) 0.354470(5)
O1_11 O 0.32906(18) 0.65075(13) 0.36076(4)
O2_11 O 0.45614(19) 0.62292(14) 0.37483(3)
O3_11 O 0.41291(17) 0.66308(12) 0.39568(3)
O6_11 O 0.37968(23) 0.55553(18) 0.33978(3)
O7_11 O 0.25864(26) 0.49534(17) 0.34309(4)
O10_11 O 0.49200(26) 0.71538(19) 0.34137(4)
O11_11 O 0.45253(26) 0.78533(17) 0.34978(4)
C1_11 C 0.50450(27) 0.6415(2) 0.40282(4)
C2_11 C 0.50558(25) 0.66504(18) 0.41918(4)
H1_11 H 0.4731 0.6793 0.4224
C3_11 C 0.5548(3) 0.6675(2) 0.43086(5)
C4_11 C 0.6017(4) 0.6430(3) 0.42679(5)
C5_11 C 0.6003(4) 0.6177(3) 0.41010(6)
H2_11 H 0.6313 0.6011 0.4072
C6_11 C 0.5530(4) 0.6170(3) 0.39772(5)
H3_11 H 0.5529 0.6014 0.3866
C7_11 C 0.5683(4) 0.6972(3) 0.44917(5)
H4_11 H 0.5236 0.6832 0.4551
H5_11 H 0.5975 0.7490 0.4492
C8_11 C 0.6092(4) 0.6616(3) 0.45759(6)
C9_11 C 0.6528(4) 0.6537(3) 0.44096(6)
H6_11 H 0.6988 0.6968 0.4393
H7_11 H 0.6598 0.6129 0.4422
C10_11 C 0.5643(3) 0.5913(2) 0.46536(6)
H8_11 H 0.5480 0.5535 0.4569
H9_11 H 0.5231 0.5888 0.4711
C11_11 C 0.6157(4) 0.5863(3) 0.47844(5)
C12_11 C 0.6698(4) 0.6503(3) 0.48186(6)
C13_11 C 0.6641(4) 0.7067(3) 0.47222(7)
H10_11 H 0.7099 0.7419 0.4675
H11_11 H 0.6457 0.7306 0.4795
C14_11 C 0.6054(4) 0.5230(3) 0.48668(5)
H12_11 H 0.5651 0.4789 0.4844
C15_11 C 0.6558(4) 0.5285(3) 0.49789(5)
C16_11 C 0.7129(5) 0.5973(4) 0.50150(7)
H13_11 H 0.7465 0.6021 0.5097
C17_11 C 0.7217(4) 0.6592(3) 0.49328(6)
H14_11 H 0.7610 0.7041 0.4955
C18_11 C 0.6475(4) 0.4648(3) 0.50718(6)
C19_11 C 0.45364(25) 0.64215(18) 0.38998(4)
C20_10 C 0.3101(4) 0.4437(2) 0.32657(5)
C21_10 C 0.3729(3) 0.4524(2) 0.31688(5)
H15_10 H 0.4165 0.4950 0.3172
C22_10 C 0.3640(4) 0.3955(3) 0.30757(6)
C23_10 C 0.3021(4) 0.3297(3) 0.30847(8)
C24_10 C 0.2429(5) 0.3198(3) 0.31737(9)
H16_10 H 0.2002 0.2763 0.3172
C25_10 C 0.2497(4) 0.3770(3) 0.32658(7)
H17_10 H 0.2111 0.3703 0.3333
C26_11 C 0.4195(4) 0.3906(2) 0.29581(6)
H18_11 H 0.4441 0.4324 0.2885
H19_11 H 0.4544 0.3850 0.3025
C27_11 C 0.3714(4) 0.3229(3) 0.28528(7)
C28_11 C 0.3142(4) 0.2726(3) 0.29808(8)
H20_11 H 0.3318 0.2485 0.3054
H21_11 H 0.2709 0.2374 0.2923
C29_11 C 0.4167(4) 0.2895(3) 0.27896(6)
H22_11 H 0.4584 0.3040 0.2862
H23_11 H 0.3885 0.2376 0.2787
C30_11 C 0.4382(3) 0.3202(2) 0.26087(5)
C31_11 C 0.3976(4) 0.3489(3) 0.25536(6)
C32_11 C 0.3443(4) 0.3393(3) 0.26943(7)
H24_10 H 0.3420 0.3828 0.2709
H25_10 H 0.2969 0.3004 0.2666
C33_11 C 0.4885(3) 0.3193(2) 0.24979(5)
H26_11 H 0.5171 0.3010 0.2535
C34_11 C 0.49620(27) 0.3457(2) 0.23304(4)
C35_11 C 0.4556(3) 0.3748(2) 0.22750(5)
H27_11 H 0.4618 0.3926 0.2163
C36_11 C 0.4070(4) 0.3783(3) 0.23780(6)
H28_10 H 0.3802 0.3985 0.2339
C37_11 C 0.54830(27) 0.3404(2) 0.22193(4)
C38_11 C 0.3154(4) 0.4991(3) 0.33696(6)
C39_10 C 0.5376(4) 0.8288(3) 0.32786(6)
C40_10 C 0.5241(4) 0.8818(2) 0.32381(6)
H29_10 H 0.4874 0.8844 0.3294
C41_10 C 0.5634(4) 0.9319(3) 0.31161(6)
C42_10 C 0.6286(4) 0.9358(3) 0.30496(7)
C43_10 C 0.6439(4) 0.8808(3) 0.30960(7)
H30_10 H 0.6841 0.8804 0.3053
C44_10 C 0.5974(4) 0.8289(3) 0.32056(7)
H31_10 H 0.6057 0.7917 0.3234
C45_10 C 0.5543(4) 0.9895(3) 0.30319(7)
H32_10 H 0.5045 0.9716 0.3003
C47_10 C 0.6635(4) 0.9979(3) 0.29252(7)
H34_10 H 0.6818 0.9855 0.2825
C51_10 C 0.56367(24) 0.96717(16) 0.27200(4)
H38_10 H 0.5721 0.9271 0.2711
H39_10 H 0.5125 0.9490 0.2723
H42_10 H 0.5639 0.9576 0.2353
C57_11 C 0.4883(4) 0.7705(3) 0.34041(6)
O14_10 O 0.3400(3) 0.6965(2) 0.32589(5)
C58_10 C 0.3493(8) 0.7379(6) 0.31403(11)
N1_10 N 0.3887(8) 0.7176(6) 0.30047(15)
C59_10 C 0.4280(10) 0.7663(7) 0.28459(16)
H43_10 H 0.4461 0.7428 0.2774
H44_10 H 0.4670 0.8112 0.2885
H45_10 H 0.3949 0.7747 0.2782
C60_10 C 0.3978(9) 0.6516(7) 0.29990(16)
H46_10 H 0.4213 0.6518 0.2894
H47_10 H 0.3515 0.6090 0.3004
H48_10 H 0.4261 0.6525 0.3095
O15_11 O 0.3527(4) 0.8345(3) 0.33776(5)
C61_11 C 0.3096(10) 0.8530(8) 0.34474(18)
N2_11 N 0.3429(8) 0.9310(6) 0.34249(14)
C62_11 C 0.4125(11) 0.9826(8) 0.33339(14)
H50_10 H 0.4130 0.9646 0.3221
H51_11 H 0.4524 0.9872 0.3399
C63_11 C 0.3051(10) 0.9717(8) 0.34946(16)
H53_11 H 0.3057 0.9716 0.3618
H54_11 H 0.2564 0.9484 0.3455
H55_10 H 0.333719 0.778702 0.313248
H56_11 H 0.258761 0.81769 0.351028
Zn1_12 Zn 0.23016(2) 0.58862(3) 0.687803(5)
O1_12 O 0.32169(13) 0.67094(18) 0.69409(4)
O2_12 O 0.16678(13) 0.54386(19) 0.70816(3)
O3_12 O 0.25017(12) 0.58709(17) 0.72901(3)
O6_12 O 0.17585(15) 0.62032(23) 0.67311(3)
O7_12 O 0.2367(2) 0.74136(26) 0.67642(4)
O10_12 O 0.22338(18) 0.50800(26) 0.67470(4)
O11_12 O 0.3328(2) 0.54747(26) 0.68311(4)
C1_12 C 0.13700(18) 0.49550(27) 0.73615(4)
C2_12 C 0.15946(18) 0.49442(25) 0.75251(4)
H1_12 H 0.2062 0.5269 0.7557
C3_12 C 0.1127(2) 0.4452(3) 0.76419(5)
C4_12 C 0.0413(2) 0.3983(4) 0.76012(5)
C5_12 C 0.0174(2) 0.3997(4) 0.74343(6)
C6_12 C 0.0640(2) 0.4470(4) 0.73105(5)
H3_12 H 0.0485 0.4471 0.7199
C7_12 C 0.1289(3) 0.4317(4) 0.78250(5)
H4_12 H 0.1596 0.4764 0.7884
H5_12 H 0.1515 0.4025 0.7825
C8_12 C 0.0524(3) 0.3908(4) 0.79092(6)
C9_12 C 0.0009(3) 0.3472(4) 0.77429(6)
C10_12 C 0.0270(2) 0.4357(3) 0.79869(6)
H8_12 H 0.0055 0.4520 0.7902
H9_12 H 0.0657 0.4769 0.8044
C13_12 C 0.0426(3) 0.3359(4) 0.80555(7)
H10_12 H 0.0320 0.2901 0.8008
H11_12 H 0.0849 0.3543 0.8128
C19_12 C 0.18851(18) 0.54636(25) 0.72331(4)
C20_11 C 0.1336(3) 0.6899(4) 0.65990(5)
C21_11 C 0.0795(2) 0.6271(3) 0.65021(5)
H15_11 H 0.0785 0.5835 0.6505
C22_11 C 0.0315(3) 0.6360(4) 0.64090(6)
C23_11 C 0.0276(3) 0.6979(4) 0.64180(8)
C24_11 C 0.0769(4) 0.7571(5) 0.65070(9)
H16_11 H 0.0761 0.7998 0.6505
C25_11 C 0.1273(3) 0.7503(4) 0.65991(7)
H17_11 H 0.1592 0.7889 0.6666
H24_11 H 0.0408 0.6580 0.6042
H25_11 H 0.0035 0.7031 0.5999
H28_11 H 0.0183 0.6198 0.5672
C38_12 C 0.1837(3) 0.6846(4) 0.67029(6)
C39_11 C 0.2912(3) 0.4624(4) 0.66119(6)
C40_11 C 0.3577(3) 0.4759(4) 0.65714(6)
H29_11 H 0.3970 0.5126 0.6627
C41_11 C 0.3685(2) 0.4366(4) 0.64494(6)
C42_11 C 0.3072(3) 0.3714(4) 0.63829(7)
C43_11 C 0.2369(3) 0.3561(4) 0.64293(7)
H30_11 H 0.1963 0.3159 0.6386
C44_11 C 0.2315(3) 0.4026(4) 0.65389(7)
H31_11 H 0.1860 0.3943 0.6567
C45_11 C 0.4352(3) 0.4457(4) 0.63652(7)
H32_11 H 0.4671 0.4955 0.6336
H33_12 H 0.4602 0.4300 0.6441
C46_12 C 0.4117(3) 0.4012(4) 0.62091(7)
C47_11 C 0.3344(3) 0.3365(4) 0.62585(7)
H34_11 H 0.3037 0.3182 0.6158
H35_12 H 0.3377 0.2978 0.6312
C48_12 C 0.4599(3) 0.3731(4) 0.61472(6)
H36_12 H 0.5088 0.4044 0.6184
H37_12 H 0.4436 0.3254 0.6192
C49_12 C 0.4556(3) 0.3710(4) 0.59553(6)
C50_12 C 0.4199(4) 0.4031(5) 0.59090(7)
C51_11 C 0.40350(18) 0.43633(24) 0.60533(4)
H38_11 H 0.3550 0.4279 0.6044
H39_11 H 0.4365 0.4875 0.6056
C52_12 C 0.48983(18) 0.34719(24) 0.58442(4)
H40_12 H 0.5156 0.3262 0.5885
C53_12 C 0.4839(2) 0.3562(3) 0.56671(5)
C54_12 C 0.4468(3) 0.3908(4) 0.56120(6)
H41_12 H 0.4432 0.3980 0.5495
C55_12 C 0.4175(4) 0.4128(5) 0.57256(8)
H42_11 H 0.3937 0.4361 0.5686
C56_12 C 0.52400(19) 0.33610(28) 0.55443(5)
C57_12 C 0.2822(3) 0.5117(4) 0.67374(6)
O14_11 O 0.3565(2) 0.6600(3) 0.65922(5)
C58_11 C 0.3886(6) 0.6507(8) 0.64736(11)
N1_11 N 0.3289(6) 0.6113(8) 0.63380(15)
C59_11 C 0.3383(7) 0.5720(10) 0.61792(16)
H43_11 H 0.2967 0.5539 0.6107
H44_11 H 0.3442 0.5330 0.6218
H45_11 H 0.3798 0.6051 0.6115
C60_11 C 0.2538(6) 0.6022(9) 0.63323(16)
H46_11 H 0.2305 0.5787 0.6227
H47_11 H 0.2575 0.6485 0.6337
H48_11 H 0.2264 0.5739 0.6428
O15_12 O 0.4818(2) 0.6473(4) 0.67109(5)
C61_12 C 0.5434(6) 0.6904(10) 0.67807(18)
N2_12 N 0.5881(6) 0.6571(8) 0.67582(14)
C62_12 C 0.5701(7) 0.5875(11) 0.66672(14)
H49_12 H 0.6126 0.5839 0.6657
H50_11 H 0.5516 0.5870 0.6554
H51_12 H 0.5348 0.5476 0.6732
C63_12 C 0.6666(6) 0.6949(10) 0.68279(16)
H52_11 H 0.6903 0.6700 0.6787
H53_12 H 0.6659 0.6943 0.6951
H54_12 H 0.6920 0.7436 0.6788
H55_11 H 0.444983 0.666281 0.646582
H56_12 H 0.55893 0.741239 0.684361
H2_12 H 0.9698 0.3687 0.7405
H6_12 H 0.9980 0.3012 0.7726
H7_12 H 0.9531 0.3402 0.7755
C11_12 C 0.9706(2) 0.3843(4) 0.81177(5)
C12_12 C 0.9805(3) 0.3302(4) 0.81519(6)
C14_12 C 0.9176(3) 0.3946(4) 0.82001(5)
H12_12 H 0.9138 0.4349 0.8177
C15_12 C 0.8727(2) 0.3442(4) 0.83122(5)
C16_12 C 0.8844(3) 0.2871(5) 0.83483(7)
H13_12 H 0.8556 0.2535 0.8430
C17_12 C 0.9375(3) 0.2783(4) 0.82661(6)
H14_12 H 0.9431 0.2390 0.8288
C18_12 C 0.8173(3) 0.3525(4) 0.84051(6)
C26_12 C 0.9711(3) 0.5805(4) 0.62914(6)
H18_12 H 0.9883 0.5559 0.6218
H19_12 H 0.9306 0.5456 0.6358
C27_12 C 0.9515(3) 0.6286(4) 0.61861(7)
C28_12 C 0.9584(3) 0.6858(4) 0.63141(8)
H20_12 H 0.9167 0.6682 0.6387
H21_12 H 0.9665 0.7291 0.6256
C29_12 C 0.8728(3) 0.5833(4) 0.61229(6)
H22_12 H 0.8456 0.5416 0.6195
H23_12 H 0.8491 0.6115 0.6120
C30_12 C 0.8820(2) 0.5618(3) 0.59420(5)
C31_12 C 0.9513(2) 0.6024(4) 0.58869(6)
C32_12 C 0.9950(3) 0.6557(4) 0.60276(7)
C33_12 C 0.8308(2) 0.5115(3) 0.58312(5)
H26_12 H 0.7839 0.4829 0.5868
C34_12 C 0.84950(18) 0.50380(27) 0.56637(4)
C35_12 C 0.9192(2) 0.5444(3) 0.56083(5)
H27_12 H 0.9308 0.5382 0.5496
C36_12 C 0.9713(3) 0.5930(4) 0.57113(6)
C37_12 C 0.79210(18) 0.45170(27) 0.55526(4)
C20_12 C 0.5563(2) 0.8664(3) 0.99324(5)
C21_12 C 0.5476(2) 0.9205(2) 0.98355(5)
H15_12 H 0.5050 0.9215 0.9839
C22_12 C 0.6045(3) 0.9685(3) 0.97424(6)
C23_12 C 0.6703(3) 0.9724(3) 0.97514(8)
C24_12 C 0.6802(3) 0.9231(4) 0.98404(9)
H16_12 H 0.7237 0.9239 0.9839
C25_12 C 0.6230(3) 0.8727(3) 0.99325(7)
H17_12 H 0.6297 0.8408 1.0000
H24_12 H 0.6172 0.9592 0.9376
H25_12 H 0.6996 0.9965 0.9333
H28_12 H 0.6015 0.9817 0.9006
C39_12 C 0.1712(3) 0.7088(3) 0.99453(6)
C40_12 C 0.1182(2) 0.6423(3) 0.99048(6)
H29_12 H 0.1156 0.6030 0.9961
C41_12 C 0.0681(3) 0.6315(2) 0.97828(6)
C42_12 C 0.0642(3) 0.6928(3) 0.97163(7)
C43_12 C 0.1192(3) 0.7631(3) 0.97627(7)
H30_12 H 0.1196 0.8037 0.9720
C44_12 C 0.1711(3) 0.7685(3) 0.98723(7)
H31_12 H 0.2083 0.8140 0.9901
C45_12 C 0.0105(3) 0.5648(3) 0.96986(7)
H32_12 H 0.0284 0.5329 0.9670
C47_12 C 0.0021(3) 0.6656(3) 0.95919(7)
H34_12 H 0.0145 0.6963 0.9492
C51_12 C 0.03283(16) 0.59650(18) 0.93867(4)
H38_12 H 0.0729 0.6450 0.9378
H39_12 H 0.0510 0.5635 0.9390
H42_12 H 0.0424 0.6063 0.9020
O14_12 O 0.3035(2) 0.6435(2) 0.99256(5)
C58_12 C 0.2621(6) 0.6114(6) 0.98070(11)
N1_12 N 0.2824(6) 0.6711(6) 0.96714(15)
C59_12 C 0.2337(7) 0.6617(7) 0.95126(16)
H43_12 H 0.2572 0.7033 0.9441
H44_12 H 0.1888 0.6558 0.9552
H45_12 H 0.2253 0.6202 0.9449
C60_12 C 0.3484(7) 0.7462(6) 0.96657(16)
H46_12 H 0.3482 0.7695 0.9561
H47_12 H 0.3910 0.7425 0.9671
H48_12 H 0.3475 0.7736 0.9762
H50_12 H 0.0354 0.4484 0.9888
H55_12 H 0.221298 0.555017 0.979915
H52_12 H 0.9797 0.3097 0.0121
loop_
_geom_bond_atom_site_label_1
_geom_bond_atom_site_label_2
_geom_bond_site_symmetry_1
_geom_bond_site_symmetry_2
O12 C56 1_555 1_555
O13 C56 1_555 1_555
C48 C46 1_555 1_555
H36 C48 1_555 1_555
H37 C48 1_555 1_555
C49 C48 1_555 1_555
C50 C49 1_555 1_555
C52 C49 1_555 1_555
H40 C52 1_555 1_555
C53 C52 1_555 1_555
C54 C53 1_555 1_555
H41 C54 1_555 1_555
C55 C50 1_555 1_555
C56 C53 1_555 1_555
Zn6 O12 1_555 1_555
Zn8 O13 1_555 1_555
C54 C55 1_555 1_555
Zn1 O1 1_555 1_555
Zn2 O1 1_555 1_555
Zn3 O1 1_555 1_555
Zn4 O1 1_555 1_555
O2 Zn1 1_555 1_555
O3 Zn2 1_555 1_555
O6 Zn1 1_555 1_555
O7 Zn3 1_555 1_555
O10 Zn1 1_555 1_555
O11 Zn4 1_555 1_555
C1 C2 1_555 1_555
C2 H1 1_555 1_555
C3 C2 1_555 1_555
C4 C3 1_555 1_555
C5 C4 1_555 1_555
C6 C1 1_555 1_555
H3 C6 1_555 1_555
C7 C3 1_555 1_555
H4 C7 1_555 1_555
H5 C7 1_555 1_555
C8 C7 1_555 1_555
C9 C4 1_555 1_555
C10 C8 1_555 1_555
H8 C10 1_555 1_555
H9 C10 1_555 1_555
C13 C8 1_555 1_555
H10 C13 1_555 1_555
H11 C13 1_555 1_555
C19 O2 1_555 1_555
C20 C21 1_555 1_555
C21 H15 1_555 1_555
C22 C21 1_555 1_555
C23 C22 1_555 1_555
C24 C23 1_555 1_555
H16 C24 1_555 1_555
C25 C20 1_555 1_555
H17 C25 1_555 1_555
C38 O6 1_555 1_555
C39 C40 1_555 1_555
C40 H29 1_555 1_555
C41 C40 1_555 1_555
C42 C41 1_555 1_555
C43 C42 1_555 1_555
H30 C43 1_555 1_555
C44 C39 1_555 1_555
H31 C44 1_555 1_555
C45 C41 1_555 1_555
H32 C45 1_555 1_555
C47 C42 1_555 1_555
H34 C47 1_555 1_555
H38 C51 1_555 1_555
H39 C51 1_555 1_555
C57 O10 1_555 1_555
O14 Zn4 1_555 1_555
C58 O14 1_555 1_555
N1 C58 1_555 1_555
C59 N1 1_555 1_555
H43 C59 1_555 1_555
H44 C59 1_555 1_555
H45 C59 1_555 1_555
C60 N1 1_555 1_555
H46 C60 1_555 1_555
H47 C60 1_555 1_555
H48 C60 1_555 1_555
O15 Zn4 1_555 1_555
C61 O15 1_555 1_555
N2 C61 1_555 1_555
C62 N2 1_555 1_555
H50 C62 1_555 1_555
H51 C62 1_555 1_555
C63 N2 1_555 1_555
H53 C63 1_555 1_555
H54 C63 1_555 1_555
O16 Zn3 1_555 1_555
O17 Zn4 1_555 1_555
O18 Zn2 1_555 1_555
O19 Zn4 1_555 1_555
O20 Zn2 1_555 1_555
O21 Zn3 1_555 1_555
O3 C19 1_555 1_555
O7 C38 1_555 1_555
O11 C57 1_555 1_555
C1 C19 1_555 1_555
C5 C6 1_555 1_555
C8 C9 1_555 1_555
C20 C38 1_555 1_555
C24 C25 1_555 1_555
C39 C57 1_555 1_555
C43 C44 1_555 1_555
C58 H55 1_555 1_555
C61 H56 1_555 1_555
O8 C37 1_555 1_555
O9 C37 1_555 1_555
C12 C11 1_555 1_555
C14 C11 1_555 1_555
H12 C14 1_555 1_555
C15 C14 1_555 1_555
C17 C12 1_555 1_555
H14 C17 1_555 1_555
H18 C26 1_555 1_555
H19 C26 1_555 1_555
C27 C26 1_555 1_555
H20 C28 1_555 1_555
H21 C28 1_555 1_555
C29 C27 1_555 1_555
H22 C29 1_555 1_555
H23 C29 1_555 1_555
C30 C29 1_555 1_555
C31 C30 1_555 1_555
C32 C27 1_555 1_555
C33 C30 1_555 1_555
H26 C33 1_555 1_555
C34 C33 1_555 1_555
C35 C34 1_555 1_555
H27 C35 1_555 1_555
C36 C31 1_555 1_555
C37 C34 1_555 1_555
Zn6 O8 1_555 1_555
Zn10 O9 1_555 1_555
C27 C28 1_555 1_555
C31 C32 1_555 1_555
C35 C36 1_555 1_555
O4 C18 1_555 1_555
O5 C18 1_555 1_555
H13 C16 1_555 1_555
Zn7 O4 1_555 1_555
Zn9 O5 1_555 1_555
Zn1_2 O1_2 1_555 1_555
Zn2_2 O1_2 1_555 1_555
Zn3_2 O1_2 1_555 1_555
Zn4_2 O1_2 1_555 1_555
O2_2 Zn1_2 1_555 1_555
O3_2 Zn2_2 1_555 1_555
O4_2 C18_2 1_555 1_555
O5_2 C18_2 1_555 1_555
O6_2 Zn1_2 1_555 1_555
O7_2 Zn3_2 1_555 1_555
O8_2 C37_2 1_555 1_555
O9_2 C37_2 1_555 1_555
O10_2 Zn1_2 1_555 1_555
O11_2 Zn4_2 1_555 1_555
C1_2 C2_2 1_555 1_555
C2_2 H1_2 1_555 1_555
C3_2 C2_2 1_555 1_555
C4_2 C3_2 1_555 1_555
C5_2 C4_2 1_555 1_555
H2_2 C5_2 1_555 1_555
C6_2 C1_2 1_555 1_555
H3_2 C6_2 1_555 1_555
C7_2 C3_2 1_555 1_555
H4_2 C7_2 1_555 1_555
H5_2 C7_2 1_555 1_555
C8_2 C7_2 1_555 1_555
C9_2 C4_2 1_555 1_555
H6_2 C9_2 1_555 1_555
H7_2 C9_2 1_555 1_555
C10_2 C8_2 1_555 1_555
H8_2 C10_2 1_555 1_555
H9_2 C10_2 1_555 1_555
C11_2 C10_2 1_555 1_555
C12_2 C11_2 1_555 1_555
C13_2 C8_2 1_555 1_555
H10_2 C13_2 1_555 1_555
H11_2 C13_2 1_555 1_555
C14_2 C11_2 1_555 1_555
H12_2 C14_2 1_555 1_555
C15_2 C14_2 1_555 1_555
C16_2 C15_2 1_555 1_555
H13_2 C16_2 1_555 1_555
C17_2 C12_2 1_555 1_555
H14_2 C17_2 1_555 1_555
C18_2 C15_2 1_555 1_555
C19_2 O2_2 1_555 1_555
C20_2 C21_2 1_555 1_555
C21_2 H15_2 1_555 1_555
C22_2 C21_2 1_555 1_555
C23_2 C22_2 1_555 1_555
C24_2 C23_2 1_555 1_555
H16_2 C24_2 1_555 1_555
C25_2 C20_2 1_555 1_555
H17_2 C25_2 1_555 1_555
C26_2 C22_2 1_555 1_555
H18_2 C26_2 1_555 1_555
H19_2 C26_2 1_555 1_555
C27_2 C26_2 1_555 1_555
C28_2 C23_2 1_555 1_555
H20_2 C28_2 1_555 1_555
H21_2 C28_2 1_555 1_555
C29_2 C27_2 1_555 1_555
H22_2 C29_2 1_555 1_555
H23_2 C29_2 1_555 1_555
C30_2 C29_2 1_555 1_555
C31_2 C30_2 1_555 1_555
C32_2 C27_2 1_555 1_555
H24_2 C32_2 1_555 1_555
H25_2 C32_2 1_555 1_555
C33_2 C30_2 1_555 1_555
H26_2 C33_2 1_555 1_555
C34_2 C33_2 1_555 1_555
C35_2 C34_2 1_555 1_555
H27_2 C35_2 1_555 1_555
C36_2 C31_2 1_555 1_555
H28_2 C36_2 1_555 1_555
C37_2 C34_2 1_555 1_555
C38_2 O6_2 1_555 1_555
C39_2 C40_2 1_555 1_555
C40_2 H29_2 1_555 1_555
C41_2 C40_2 1_555 1_555
C42_2 C41_2 1_555 1_555
C43_2 C42_2 1_555 1_555
H30_2 C43_2 1_555 1_555
C44_2 C39_2 1_555 1_555
H31_2 C44_2 1_555 1_555
C45_2 C41_2 1_555 1_555
H32_2 C45_2 1_555 1_555
C47_2 C42_2 1_555 1_555
H34_2 C47_2 1_555 1_555
H38_2 C51_2 1_555 1_555
H39_2 C51_2 1_555 1_555
C57_2 O10_2 1_555 1_555
O14_2 Zn4_2 1_555 1_555
C58_2 O14_2 1_555 1_555
N1_2 C58_2 1_555 1_555
C59_2 N1_2 1_555 1_555
H43_2 C59_2 1_555 1_555
H44_2 C59_2 1_555 1_555
H45_2 C59_2 1_555 1_555
C60_2 N1_2 1_555 1_555
H46_2 C60_2 1_555 1_555
H47_2 C60_2 1_555 1_555
H48_2 C60_2 1_555 1_555
O15_2 Zn4_2 1_555 1_555
C61_2 O15_2 1_555 1_555
N2_2 C61_2 1_555 1_555
C62_2 N2_2 1_555 1_555
H50_2 C62_2 1_555 1_555
H51_2 C62_2 1_555 1_555
C63_2 N2_2 1_555 1_555
H53_2 C63_2 1_555 1_555
H54_2 C63_2 1_555 1_555
Zn5 O8_2 1_555 1_555
Zn7_2 O4_2 1_555 1_555
Zn9_2 O5_2 1_555 1_555
Zn9 O9_2 1_555 1_555
O16_2 Zn3_2 1_555 1_555
O17_2 Zn4_2 1_555 1_555
O18_2 Zn2_2 1_555 1_555
O19_2 Zn4_2 1_555 1_555
O20_2 Zn2_2 1_555 1_555
O21_2 Zn3_2 1_555 1_555
O3_2 C19_2 1_555 1_555
O7_2 C38_2 1_555 1_555
O11_2 C57_2 1_555 1_555
C1_2 C19_2 1_555 1_555
C5_2 C6_2 1_555 1_555
C8_2 C9_2 1_555 1_555
C12_2 C13_2 1_555 1_555
C16_2 C17_2 1_555 1_555
C20_2 C38_2 1_555 1_555
C24_2 C25_2 1_555 1_555
C27_2 C28_2 1_555 1_555
C31_2 C32_2 1_555 1_555
C35_2 C36_2 1_555 1_555
C39_2 C57_2 1_555 1_555
C43_2 C44_2 1_555 1_555
C58_2 H55_2 1_555 1_555
C61_2 H56_2 1_555 1_555
O12_2 C56_2 1_555 1_555
O13_2 C56_2 1_555 1_555
C48_2 C46_2 1_555 1_555
H36_2 C48_2 1_555 1_555
H37_2 C48_2 1_555 1_555
C49_2 C48_2 1_555 1_555
C50_2 C49_2 1_555 1_555
C52_2 C49_2 1_555 1_555
H40_2 C52_2 1_555 1_555
C53_2 C52_2 1_555 1_555
C54_2 C53_2 1_555 1_555
H41_2 C54_2 1_555 1_555
C55_2 C50_2 1_555 1_555
C56_2 C53_2 1_555 1_555
Zn5 O12_2 1_555 1_555
Zn7 O13_2 1_555 1_555
C54_2 C55_2 1_555 1_555
O4_3 C18_3 1_555 1_555
O5_3 C18_3 1_555 1_555
O8_3 C37_3 1_555 1_555
O9_3 C37_3 1_555 1_555
C12_3 C11_3 1_555 1_555
C14_3 C11_3 1_555 1_555
H12_3 C14_3 1_555 1_555
C15_3 C14_3 1_555 1_555
C16_3 C15_3 1_555 1_555
H13_3 C16_3 1_555 1_555
C17_3 C12_3 1_555 1_555
H14_3 C17_3 1_555 1_555
C18_3 C15_3 1_555 1_555
H18_3 C26_3 1_555 1_555
H19_3 C26_3 1_555 1_555
C27_3 C26_3 1_555 1_555
H20_3 C28_3 1_555 1_555
H21_3 C28_3 1_555 1_555
C29_3 C27_3 1_555 1_555
H22_3 C29_3 1_555 1_555
H23_3 C29_3 1_555 1_555
C30_3 C29_3 1_555 1_555
C31_3 C30_3 1_555 1_555
C32_3 C27_3 1_555 1_555
C33_3 C30_3 1_555 1_555
H26_3 C33_3 1_555 1_555
C34_3 C33_3 1_555 1_555
C35_3 C34_3 1_555 1_555
H27_3 C35_3 1_555 1_555
C36_3 C31_3 1_555 1_555
C37_3 C34_3 1_555 1_555
Zn5_2 O8_3 1_555 1_555
Zn8 O4_3 1_555 1_555
Zn10 O5_3 1_555 1_555
Zn9_2 O9_3 1_555 1_555
C16_3 C17_3 1_555 1_555
C27_3 C28_3 1_555 1_555
C31_3 C32_3 1_555 1_555
C35_3 C36_3 1_555 1_555
Zn1_3 O1_3 1_555 1_555
Zn2_3 O1_3 1_555 1_555
Zn3_3 O1_3 1_555 1_555
Zn4_3 O1_3 1_555 1_555
O2_3 Zn1_3 1_555 1_555
O3_3 Zn2_3 1_555 1_555
O6_3 Zn1_3 1_555 1_555
O7_3 Zn3_3 1_555 1_555
O10_3 Zn1_3 1_555 1_555
O11_3 Zn4_3 1_555 1_555
O12_3 C56_3 1_555 1_555
O13_3 C56_3 1_555 1_555
C1_3 C2_3 1_555 1_555
C2_3 H1_3 1_555 1_555
C3_3 C2_3 1_555 1_555
C4_3 C3_3 1_555 1_555
C5_3 C4_3 1_555 1_555
C6_3 C1_3 1_555 1_555
H3_3 C6_3 1_555 1_555
C7_3 C3_3 1_555 1_555
H4_3 C7_3 1_555 1_555
H5_3 C7_3 1_555 1_555
C8_3 C7_3 1_555 1_555
C9_3 C4_3 1_555 1_555
C10_3 C8_3 1_555 1_555
H8_3 C10_3 1_555 1_555
H9_3 C10_3 1_555 1_555
C13_3 C8_3 1_555 1_555
H10_3 C13_3 1_555 1_555
H11_3 C13_3 1_555 1_555
C19_3 O2_3 1_555 1_555
C20_3 C21_3 1_555 1_555
C21_3 H15_3 1_555 1_555
C22_3 C21_3 1_555 1_555
C23_3 C22_3 1_555 1_555
C24_3 C23_3 1_555 1_555
H16_3 C24_3 1_555 1_555
C25_3 C20_3 1_555 1_555
H17_3 C25_3 1_555 1_555
C38_3 O6_3 1_555 1_555
C39_3 C40_3 1_555 1_555
C40_3 H29_3 1_555 1_555
C41_3 C40_3 1_555 1_555
C42_3 C41_3 1_555 1_555
C43_3 C42_3 1_555 1_555
H30_3 C43_3 1_555 1_555
C44_3 C39_3 1_555 1_555
H31_3 C44_3 1_555 1_555
C45_3 C41_3 1_555 1_555
H32_3 C45_3 1_555 1_555
H33_3 C45_3 1_555 1_555
C46_3 C45_3 1_555 1_555
C47_3 C42_3 1_555 1_555
H34_3 C47_3 1_555 1_555
H35_3 C47_3 1_555 1_555
C48_3 C46_3 1_555 1_555
H36_3 C48_3 1_555 1_555
H37_3 C48_3 1_555 1_555
C49_3 C48_3 1_555 1_555
C50_3 C49_3 1_555 1_555
C51_3 C46_3 1_555 1_555
H38_3 C51_3 1_555 1_555
H39_3 C51_3 1_555 1_555
C52_3 C49_3 1_555 1_555
H40_3 C52_3 1_555 1_555
C53_3 C52_3 1_555 1_555
C54_3 C53_3 1_555 1_555
H41_3 C54_3 1_555 1_555
C55_3 C50_3 1_555 1_555
H42_3 C55_3 1_555 1_555
C56_3 C53_3 1_555 1_555
C57_3 O10_3 1_555 1_555
O14_3 Zn4_3 1_555 1_555
C58_3 O14_3 1_555 1_555
N1_3 C58_3 1_555 1_555
C59_3 N1_3 1_555 1_555
H43_3 C59_3 1_555 1_555
H44_3 C59_3 1_555 1_555
H45_3 C59_3 1_555 1_555
C60_3 N1_3 1_555 1_555
H46_3 C60_3 1_555 1_555
H47_3 C60_3 1_555 1_555
H48_3 C60_3 1_555 1_555
O15_3 Zn4_3 1_555 1_555
C61_3 O15_3 1_555 1_555
N2_3 C61_3 1_555 1_555
C62_3 N2_3 1_555 1_555
H49_3 C62_3 1_555 1_555
H50_3 C62_3 1_555 1_555
H51_3 C62_3 1_555 1_555
C63_3 N2_3 1_555 1_555
H52_3 C63_3 1_555 1_555
H53_3 C63_3 1_555 1_555
H54_3 C63_3 1_555 1_555
Zn5_2 O12_3 1_555 1_555
Zn7_2 O13_3 1_555 1_555
O16_3 Zn3_3 1_555 1_555
O17_3 Zn4_3 1_555 1_555
O18_3 Zn2_3 1_555 1_555
O19_3 Zn4_3 1_555 1_555
O20_3 Zn2_3 1_555 1_555
O21_3 Zn3_3 1_555 1_555
O3_3 C19_3 1_555 1_555
O7_3 C38_3 1_555 1_555
O11_3 C57_3 1_555 1_555
C1_3 C19_3 1_555 1_555
C5_3 C6_3 1_555 1_555
C8_3 C9_3 1_555 1_555
C20_3 C38_3 1_555 1_555
C24_3 C25_3 1_555 1_555
C39_3 C57_3 1_555 1_555
C43_3 C44_3 1_555 1_555
C46_3 C47_3 1_555 1_555
C50_3 C51_3 1_555 1_555
C54_3 C55_3 1_555 1_555
C58_3 H55_3 1_555 1_555
C61_3 H56_3 1_555 1_555
O16_3 C18_4 1_555 1_555
O17_3 C18_4 1_555 1_555
O18_2 C37_4 1_555 1_555
O19_2 C37_4 1_555 1_555
C12_4 C11_4 1_555 1_555
C14_4 C11_4 1_555 1_555
H12_4 C14_4 1_555 1_555
C15_4 C14_4 1_555 1_555
C16_4 C15_4 1_555 1_555
H13_4 C16_4 1_555 1_555
C17_4 C12_4 1_555 1_555
H14_4 C17_4 1_555 1_555
C18_4 C15_4 1_555 1_555
H18_4 C26_4 1_555 1_555
H19_4 C26_4 1_555 1_555
C27_4 C26_4 1_555 1_555
H20_4 C28_4 1_555 1_555
H21_4 C28_4 1_555 1_555
C29_4 C27_4 1_555 1_555
H22_4 C29_4 1_555 1_555
H23_4 C29_4 1_555 1_555
C30_4 C29_4 1_555 1_555
C31_4 C30_4 1_555 1_555
C32_4 C27_4 1_555 1_555
C33_4 C30_4 1_555 1_555
H26_4 C33_4 1_555 1_555
C34_4 C33_4 1_555 1_555
C35_4 C34_4 1_555 1_555
H27_4 C35_4 1_555 1_555
C36_4 C31_4 1_555 1_555
C37_4 C34_4 1_555 1_555
C16_4 C17_4 1_555 1_555
C27_4 C28_4 1_555 1_555
C31_4 C32_4 1_555 1_555
C35_4 C36_4 1_555 1_555
Zn1_4 O1_4 1_555 1_555
Zn5_2 O1_4 1_555 1_555
Zn7_2 O1_4 1_555 1_555
Zn9_2 O1_4 1_555 1_555
O2_4 Zn1_4 1_555 1_555
O3_4 Zn5_2 1_555 1_555
O6_4 Zn1_4 1_555 1_555
O7_4 Zn7_2 1_555 1_555
O10_4 Zn1_4 1_555 1_555
O11_4 Zn9_2 1_555 1_555
C1_4 C2_4 1_555 1_555
C2_4 H1_4 1_555 1_555
C3_4 C2_4 1_555 1_555
C4_4 C3_4 1_555 1_555
C5_4 C4_4 1_555 1_555
C6_4 C1_4 1_555 1_555
H3_4 C6_4 1_555 1_555
C7_4 C3_4 1_555 1_555
H4_4 C7_4 1_555 1_555
H5_4 C7_4 1_555 1_555
C8_4 C7_4 1_555 1_555
C9_4 C4_4 1_555 1_555
C10_4 C8_4 1_555 1_555
H8_4 C10_4 1_555 1_555
H9_4 C10_4 1_555 1_555
C13_4 C8_4 1_555 1_555
H10_4 C13_4 1_555 1_555
H11_4 C13_4 1_555 1_555
C19_4 O2_4 1_555 1_555
C20_4 C21_4 1_555 1_555
C21_4 H15_4 1_555 1_555
C22_4 C21_4 1_555 1_555
C23_4 C22_4 1_555 1_555
C24_4 C23_4 1_555 1_555
H16_4 C24_4 1_555 1_555
C25_4 C20_4 1_555 1_555
H17_4 C25_4 1_555 1_555
C38_4 O6_4 1_555 1_555
C39_4 C40_4 1_555 1_555
C40_4 H29_4 1_555 1_555
C41_4 C40_4 1_555 1_555
C42_4 C41_4 1_555 1_555
C43_4 C42_4 1_555 1_555
H30_4 C43_4 1_555 1_555
C44_4 C39_4 1_555 1_555
H31_4 C44_4 1_555 1_555
C45_4 C41_4 1_555 1_555
H32_4 C45_4 1_555 1_555
C47_4 C42_4 1_555 1_555
H34_4 C47_4 1_555 1_555
H38_4 C51_4 1_555 1_555
H39_4 C51_4 1_555 1_555
C57_4 O10_4 1_555 1_555
O14_4 Zn9_2 1_555 1_555
C58_4 O14_4 1_555 1_555
N1_4 C58_4 1_555 1_555
C59_4 N1_4 1_555 1_555
H43_4 C59_4 1_555 1_555
H44_4 C59_4 1_555 1_555
H45_4 C59_4 1_555 1_555
C60_4 N1_4 1_555 1_555
H46_4 C60_4 1_555 1_555
H47_4 C60_4 1_555 1_555
H48_4 C60_4 1_555 1_555
O15_4 Zn9_2 1_555 1_555
C61_4 O15_4 1_555 1_555
N2_4 C61_4 1_555 1_555
C62_4 N2_4 1_555 1_555
H50_4 C62_4 1_555 1_555
H51_4 C62_4 1_555 1_555
C63_4 N2_4 1_555 1_555
H53_4 C63_4 1_555 1_555
H54_4 C63_4 1_555 1_555
O3_4 C19_4 1_555 1_555
O7_4 C38_4 1_555 1_555
O11_4 C57_4 1_555 1_555
C1_4 C19_4 1_555 1_555
C5_4 C6_4 1_555 1_555
C8_4 C9_4 1_555 1_555
C20_4 C38_4 1_555 1_555
C24_4 C25_4 1_555 1_555
C39_4 C57_4 1_555 1_555
C43_4 C44_4 1_555 1_555
C58_4 H55_4 1_555 1_555
C61_4 H56_4 1_555 1_555
O20_2 C56_4 1_555 1_555
O21_2 C56_4 1_555 1_555
C48_4 C46_4 1_555 1_555
H36_4 C48_4 1_555 1_555
H37_4 C48_4 1_555 1_555
C49_4 C48_4 1_555 1_555
C50_4 C49_4 1_555 1_555
C52_4 C49_4 1_555 1_555
H40_4 C52_4 1_555 1_555
C53_4 C52_4 1_555 1_555
C54_4 C53_4 1_555 1_555
H41_4 C54_4 1_555 1_555
C55_4 C50_4 1_555 1_555
C56_4 C53_4 1_555 1_555
C54_4 C55_4 1_555 1_555
O20_3 C56_5 1_555 1_555
O21_3 C56_5 1_555 1_555
C48_5 C46_5 1_555 1_555
H36_5 C48_5 1_555 1_555
H37_5 C48_5 1_555 1_555
C49_5 C48_5 1_555 1_555
C50_5 C49_5 1_555 1_555
C52_5 C49_5 1_555 1_555
H40_5 C52_5 1_555 1_555
C53_5 C52_5 1_555 1_555
C54_5 C53_5 1_555 1_555
H41_5 C54_5 1_555 1_555
C55_5 C50_5 1_555 1_555
C56_5 C53_5 1_555 1_555
C54_5 C55_5 1_555 1_555
Zn1_5 O1_5 1_555 1_555
Zn6 O1_5 1_555 1_555
Zn8 O1_5 1_555 1_555
Zn10 O1_5 1_555 1_555
O2_5 Zn1_5 1_555 1_555
O3_5 Zn6 1_555 1_555
O16 C18_5 1_555 1_555
O17 C18_5 1_555 1_555
O6_5 Zn1_5 1_555 1_555
O7_5 Zn8 1_555 1_555
O18_3 C37_5 1_555 1_555
O19_3 C37_5 1_555 1_555
O10_5 Zn1_5 1_555 1_555
O11_5 Zn10 1_555 1_555
C1_5 C2_5 1_555 1_555
C2_5 H1_5 1_555 1_555
C3_5 C2_5 1_555 1_555
C4_5 C3_5 1_555 1_555
C5_5 C4_5 1_555 1_555
H2_5 C5_5 1_555 1_555
C6_5 C1_5 1_555 1_555
H3_5 C6_5 1_555 1_555
C7_5 C3_5 1_555 1_555
H4_5 C7_5 1_555 1_555
H5_5 C7_5 1_555 1_555
C8_5 C7_5 1_555 1_555
C9_5 C4_5 1_555 1_555
H6_5 C9_5 1_555 1_555
H7_5 C9_5 1_555 1_555
C10_5 C8_5 1_555 1_555
H8_5 C10_5 1_555 1_555
H9_5 C10_5 1_555 1_555
C11_5 C10_5 1_555 1_555
C12_5 C11_5 1_555 1_555
C13_5 C8_5 1_555 1_555
H10_5 C13_5 1_555 1_555
H11_5 C13_5 1_555 1_555
C14_5 C11_5 1_555 1_555
H12_5 C14_5 1_555 1_555
C15_5 C14_5 1_555 1_555
C16_5 C15_5 1_555 1_555
H13_5 C16_5 1_555 1_555
C17_5 C12_5 1_555 1_555
H14_5 C17_5 1_555 1_555
C18_5 C15_5 1_555 1_555
C19_5 O2_5 1_555 1_555
C20_5 C21_5 1_555 1_555
C21_5 H15_5 1_555 1_555
C22_5 C21_5 1_555 1_555
C23_5 C22_5 1_555 1_555
C24_5 C23_5 1_555 1_555
H16_5 C24_5 1_555 1_555
C25_5 C20_5 1_555 1_555
H17_5 C25_5 1_555 1_555
C26_5 C22_5 1_555 1_555
H18_5 C26_5 1_555 1_555
H19_5 C26_5 1_555 1_555
C27_5 C26_5 1_555 1_555
C28_5 C23_5 1_555 1_555
H20_5 C28_5 1_555 1_555
H21_5 C28_5 1_555 1_555
C29_5 C27_5 1_555 1_555
H22_5 C29_5 1_555 1_555
H23_5 C29_5 1_555 1_555
C30_5 C29_5 1_555 1_555
C31_5 C30_5 1_555 1_555
C32_5 C27_5 1_555 1_555
H24_5 C32_5 1_555 1_555
H25_5 C32_5 1_555 1_555
C33_5 C30_5 1_555 1_555
H26_5 C33_5 1_555 1_555
C34_5 C33_5 1_555 1_555
C35_5 C34_5 1_555 1_555
H27_5 C35_5 1_555 1_555
C36_5 C31_5 1_555 1_555
H28_5 C36_5 1_555 1_555
C37_5 C34_5 1_555 1_555
C38_5 O6_5 1_555 1_555
C39_5 C40_5 1_555 1_555
C40_5 H29_5 1_555 1_555
C41_5 C40_5 1_555 1_555
C42_5 C41_5 1_555 1_555
C43_5 C42_5 1_555 1_555
H30_5 C43_5 1_555 1_555
C44_5 C39_5 1_555 1_555
H31_5 C44_5 1_555 1_555
C45_5 C41_5 1_555 1_555
H32_5 C45_5 1_555 1_555
C47_5 C42_5 1_555 1_555
H34_5 C47_5 1_555 1_555
H38_5 C51_5 1_555 1_555
H39_5 C51_5 1_555 1_555
C57_5 O10_5 1_555 1_555
O14_5 Zn10 1_555 1_555
C58_5 O14_5 1_555 1_555
N1_5 C58_5 1_555 1_555
C59_5 N1_5 1_555 1_555
H43_5 C59_5 1_555 1_555
H44_5 C59_5 1_555 1_555
H45_5 C59_5 1_555 1_555
C60_5 N1_5 1_555 1_555
H46_5 C60_5 1_555 1_555
H47_5 C60_5 1_555 1_555
H48_5 C60_5 1_555 1_555
O15_5 Zn10 1_555 1_555
C61_5 O15_5 1_555 1_555
N2_5 C61_5 1_555 1_555
C62_5 N2_5 1_555 1_555
H50_5 C62_5 1_555 1_555
H51_5 C62_5 1_555 1_555
C63_5 N2_5 1_555 1_555
H53_5 C63_5 1_555 1_555
H54_5 C63_5 1_555 1_555
O3_5 C19_5 1_555 1_555
O7_5 C38_5 1_555 1_555
O11_5 C57_5 1_555 1_555
C1_5 C19_5 1_555 1_555
C5_5 C6_5 1_555 1_555
C8_5 C9_5 1_555 1_555
C12_5 C13_5 1_555 1_555
C16_5 C17_5 1_555 1_555
C20_5 C38_5 1_555 1_555
C24_5 C25_5 1_555 1_555
C27_5 C28_5 1_555 1_555
C31_5 C32_5 1_555 1_555
C35_5 C36_5 1_555 1_555
C39_5 C57_5 1_555 1_555
C43_5 C44_5 1_555 1_555
C58_5 H55_5 1_555 1_555
C61_5 H56_5 1_555 1_555
O20 C56_6 1_555 1_555
O21 C56_6 1_555 1_555
C20_6 C21_6 1_555 1_555
C21_6 H15_6 1_555 1_555
C22_6 C21_6 1_555 1_555
C23_6 C22_6 1_555 1_555
C24_6 C23_6 1_555 1_555
H16_6 C24_6 1_555 1_555
C25_6 C20_6 1_555 1_555
H17_6 C25_6 1_555 1_555
C39_6 C40_6 1_555 1_555
C40_6 H29_6 1_555 1_555
C41_6 C40_6 1_555 1_555
C42_6 C41_6 1_555 1_555
C43_6 C42_6 1_555 1_555
H30_6 C43_6 1_555 1_555
C44_6 C39_6 1_555 1_555
H31_6 C44_6 1_555 1_555
C45_6 C41_6 1_555 1_555
H32_6 C45_6 1_555 1_555
H33_6 C45_6 1_555 1_555
C46_6 C45_6 1_555 1_555
C47_6 C42_6 1_555 1_555
H34_6 C47_6 1_555 1_555
H35_6 C47_6 1_555 1_555
C48_6 C46_6 1_555 1_555
H36_6 C48_6 1_555 1_555
H37_6 C48_6 1_555 1_555
C49_6 C48_6 1_555 1_555
C50_6 C49_6 1_555 1_555
C51_6 C46_6 1_555 1_555
H38_6 C51_6 1_555 1_555
H39_6 C51_6 1_555 1_555
C52_6 C49_6 1_555 1_555
H40_6 C52_6 1_555 1_555
C53_6 C52_6 1_555 1_555
C54_6 C53_6 1_555 1_555
H41_6 C54_6 1_555 1_555
C55_6 C50_6 1_555 1_555
H42_6 C55_6 1_555 1_555
C56_6 C53_6 1_555 1_555
C58_6 O14_6 1_555 1_555
N1_6 C58_6 1_555 1_555
C59_6 N1_6 1_555 1_555
H43_6 C59_6 1_555 1_555
H44_6 C59_6 1_555 1_555
H45_6 C59_6 1_555 1_555
C60_6 N1_6 1_555 1_555
H46_6 C60_6 1_555 1_555
H47_6 C60_6 1_555 1_555
H48_6 C60_6 1_555 1_555
C24_6 C25_6 1_555 1_555
C43_6 C44_6 1_555 1_555
C46_6 C47_6 1_555 1_555
C50_6 C51_6 1_555 1_555
C54_6 C55_6 1_555 1_555
C58_6 H55_6 1_555 1_555
Zn1_6 O1_6 1_555 1_555
Zn5 O1_6 1_555 1_555
Zn7 O1_6 1_555 1_555
Zn9 O1_6 1_555 1_555
O2_6 Zn1_6 1_555 1_555
O3_6 Zn5 1_555 1_555
O6_6 Zn1_6 1_555 1_555
O7_6 Zn7 1_555 1_555
O10_6 Zn1_6 1_555 1_555
O11_6 Zn9 1_555 1_555
C1_6 C2_6 1_555 1_555
C2_6 H1_6 1_555 1_555
C3_6 C2_6 1_555 1_555
C4_6 C3_6 1_555 1_555
C5_6 C4_6 1_555 1_555
C6_6 C1_6 1_555 1_555
H3_6 C6_6 1_555 1_555
C7_6 C3_6 1_555 1_555
H4_6 C7_6 1_555 1_555
H5_6 C7_6 1_555 1_555
C8_6 C7_6 1_555 1_555
C9_6 C4_6 1_555 1_555
C10_6 C8_6 1_555 1_555
H8_6 C10_6 1_555 1_555
H9_6 C10_6 1_555 1_555
C13_6 C8_6 1_555 1_555
H10_6 C13_6 1_555 1_555
H11_6 C13_6 1_555 1_555
C19_6 O2_6 1_555 1_555
C38_6 O6_6 1_555 1_555
C57_6 O10_6 1_555 1_555
O15_6 Zn9 1_555 1_555
C61_6 O15_6 1_555 1_555
N2_6 C61_6 1_555 1_555
C62_6 N2_6 1_555 1_555
H51_6 C62_6 1_555 1_555
C63_6 N2_6 1_555 1_555
H52_6 C63_6 1_555 1_555
H53_6 C63_6 1_555 1_555
H54_6 C63_6 1_555 1_555
O3_6 C19_6 1_555 1_555
O7_6 C38_6 1_555 1_555
O11_6 C57_6 1_555 1_555
C1_6 C19_6 1_555 1_555
C5_6 C6_6 1_555 1_555
C8_6 C9_6 1_555 1_555
C61_6 H56_6 1_555 1_555
O18 C37_6 1_555 1_555
O19 C37_6 1_555 1_555
H18_6 C26_6 1_555 1_555
H19_6 C26_6 1_555 1_555
C27_6 C26_6 1_555 1_555
H20_6 C28_6 1_555 1_555
H21_6 C28_6 1_555 1_555
C29_6 C27_6 1_555 1_555
H22_6 C29_6 1_555 1_555
H23_6 C29_6 1_555 1_555
C30_6 C29_6 1_555 1_555
C31_6 C30_6 1_555 1_555
C32_6 C27_6 1_555 1_555
C33_6 C30_6 1_555 1_555
H26_6 C33_6 1_555 1_555
C34_6 C33_6 1_555 1_555
C35_6 C34_6 1_555 1_555
H27_6 C35_6 1_555 1_555
C36_6 C31_6 1_555 1_555
C37_6 C34_6 1_555 1_555
C27_6 C28_6 1_555 1_555
C31_6 C32_6 1_555 1_555
C35_6 C36_6 1_555 1_555
O16_2 C18_6 1_555 1_555
O17_2 C18_6 1_555 1_555
C12_6 C11_6 1_555 1_555
C14_6 C11_6 1_555 1_555
H12_6 C14_6 1_555 1_555
C15_6 C14_6 1_555 1_555
C16_6 C15_6 1_555 1_555
H13_6 C16_6 1_555 1_555
C17_6 C12_6 1_555 1_555
H14_6 C17_6 1_555 1_555
C18_6 C15_6 1_555 1_555
C16_6 C17_6 1_555 1_555
O12_4 C56_7 1_555 1_555
O13_4 C56_7 1_555 1_555
C48_7 C46_7 1_555 1_555
H36_7 C48_7 1_555 1_555
H37_7 C48_7 1_555 1_555
C49_7 C48_7 1_555 1_555
C50_7 C49_7 1_555 1_555
C52_7 C49_7 1_555 1_555
H40_7 C52_7 1_555 1_555
C53_7 C52_7 1_555 1_555
C54_7 C53_7 1_555 1_555
H41_7 C54_7 1_555 1_555
C55_7 C50_7 1_555 1_555
C56_7 C53_7 1_555 1_555
Zn6_2 O12_4 1_555 1_555
Zn8_2 O13_4 1_555 1_555
C54_7 C55_7 1_555 1_555
Zn1_7 O1_7 1_555 1_555
Zn2_4 O1_7 1_555 1_555
Zn3_4 O1_7 1_555 1_555
Zn4_4 O1_7 1_555 1_555
O2_7 Zn1_7 1_555 1_555
O3_7 Zn2_4 1_555 1_555
O6_7 Zn1_7 1_555 1_555
O7_7 Zn3_4 1_555 1_555
O10_7 Zn1_7 1_555 1_555
O11_7 Zn4_4 1_555 1_555
C1_7 C2_7 1_555 1_555
C2_7 H1_7 1_555 1_555
C3_7 C2_7 1_555 1_555
C4_7 C3_7 1_555 1_555
C5_7 C4_7 1_555 1_555
C6_7 C1_7 1_555 1_555
H3_7 C6_7 1_555 1_555
C7_7 C3_7 1_555 1_555
H4_7 C7_7 1_555 1_555
H5_7 C7_7 1_555 1_555
C8_7 C7_7 1_555 1_555
C9_7 C4_7 1_555 1_555
C10_7 C8_7 1_555 1_555
H8_7 C10_7 1_555 1_555
H9_7 C10_7 1_555 1_555
C13_7 C8_7 1_555 1_555
H10_7 C13_7 1_555 1_555
H11_7 C13_7 1_555 1_555
C19_7 O2_7 1_555 1_555
C20_7 C21_7 1_555 1_555
C21_7 H15_7 1_555 1_555
C22_7 C21_7 1_555 1_555
C23_7 C22_7 1_555 1_555
C24_7 C23_7 1_555 1_555
H16_7 C24_7 1_555 1_555
C25_7 C20_7 1_555 1_555
H17_7 C25_7 1_555 1_555
C38_7 O6_7 1_555 1_555
C39_7 C40_7 1_555 1_555
C40_7 H29_7 1_555 1_555
C41_7 C40_7 1_555 1_555
C42_7 C41_7 1_555 1_555
C43_7 C42_7 1_555 1_555
H30_7 C43_7 1_555 1_555
C44_7 C39_7 1_555 1_555
H31_7 C44_7 1_555 1_555
C45_7 C41_7 1_555 1_555
H32_7 C45_7 1_555 1_555
C47_7 C42_7 1_555 1_555
H34_7 C47_7 1_555 1_555
H38_7 C51_7 1_555 1_555
H39_7 C51_7 1_555 1_555
C57_7 O10_7 1_555 1_555
O14_7 Zn4_4 1_555 1_555
C58_7 O14_7 1_555 1_555
N1_7 C58_7 1_555 1_555
C59_7 N1_7 1_555 1_555
H43_7 C59_7 1_555 1_555
H44_7 C59_7 1_555 1_555
H45_7 C59_7 1_555 1_555
C60_7 N1_7 1_555 1_555
H46_7 C60_7 1_555 1_555
H47_7 C60_7 1_555 1_555
H48_7 C60_7 1_555 1_555
O15_7 Zn4_4 1_555 1_555
C61_7 O15_7 1_555 1_555
N2_7 C61_7 1_555 1_555
C62_7 N2_7 1_555 1_555
H50_7 C62_7 1_555 1_555
H51_7 C62_7 1_555 1_555
C63_7 N2_7 1_555 1_555
H53_7 C63_7 1_555 1_555
H54_7 C63_7 1_555 1_555
O16_4 Zn3_4 1_555 1_555
O17_4 Zn4_4 1_555 1_555
O18_4 Zn2_4 1_555 1_555
O19_4 Zn4_4 1_555 1_555
O20_4 Zn2_4 1_555 1_555
O21_4 Zn3_4 1_555 1_555
O3_7 C19_7 1_555 1_555
O7_7 C38_7 1_555 1_555
O11_7 C57_7 1_555 1_555
C1_7 C19_7 1_555 1_555
C5_7 C6_7 1_555 1_555
C8_7 C9_7 1_555 1_555
C20_7 C38_7 1_555 1_555
C24_7 C25_7 1_555 1_555
C39_7 C57_7 1_555 1_555
C43_7 C44_7 1_555 1_555
C58_7 H55_7 1_555 1_555
C61_7 H56_7 1_555 1_555
O4_4 C18_7 1_555 1_555
O5_4 C18_7 1_555 1_555
O8_4 C37_7 1_555 1_555
O9_4 C37_7 1_555 1_555
C12_7 C11_7 1_555 1_555
C14_7 C11_7 1_555 1_555
H12_7 C14_7 1_555 1_555
C15_7 C14_7 1_555 1_555
C16_7 C15_7 1_555 1_555
H13_7 C16_7 1_555 1_555
C17_7 C12_7 1_555 1_555
H14_7 C17_7 1_555 1_555
C18_7 C15_7 1_555 1_555
H18_7 C26_7 1_555 1_555
H19_7 C26_7 1_555 1_555
C27_7 C26_7 1_555 1_555
H20_7 C28_7 1_555 1_555
H21_7 C28_7 1_555 1_555
C29_7 C27_7 1_555 1_555
H22_7 C29_7 1_555 1_555
H23_7 C29_7 1_555 1_555
C30_7 C29_7 1_555 1_555
C31_7 C30_7 1_555 1_555
C32_7 C27_7 1_555 1_555
C33_7 C30_7 1_555 1_555
H26_7 C33_7 1_555 1_555
C34_7 C33_7 1_555 1_555
C35_7 C34_7 1_555 1_555
H27_7 C35_7 1_555 1_555
C36_7 C31_7 1_555 1_555
C37_7 C34_7 1_555 1_555
Zn6_2 O8_4 1_555 1_555
Zn7_3 O4_4 1_555 1_555
Zn9_3 O5_4 1_555 1_555
Zn10_2 O9_4 1_555 1_555
C16_7 C17_7 1_555 1_555
C27_7 C28_7 1_555 1_555
C31_7 C32_7 1_555 1_555
C35_7 C36_7 1_555 1_555
O4_5 C18_8 1_555 1_555
O5_5 C18_8 1_555 1_555
H13_8 C16_8 1_555 1_555
Zn7_4 O4_5 1_555 1_555
Zn9_4 O5_5 1_555 1_555
Zn1_8 O1_8 1_555 1_555
Zn2_5 O1_8 1_555 1_555
Zn3_5 O1_8 1_555 1_555
Zn4_5 O1_8 1_555 1_555
O2_8 Zn1_8 1_555 1_555
O3_8 Zn2_5 1_555 1_555
O6_8 Zn1_8 1_555 1_555
O7_8 Zn3_5 1_555 1_555
O8_5 C37_8 1_555 1_555
O9_5 C37_8 1_555 1_555
O10_8 Zn1_8 1_555 1_555
O11_8 Zn4_5 1_555 1_555
C1_8 C2_8 1_555 1_555
C2_8 H1_8 1_555 1_555
C3_8 C2_8 1_555 1_555
C4_8 C3_8 1_555 1_555
C5_8 C4_8 1_555 1_555
H2_8 C5_8 1_555 1_555
C6_8 C1_8 1_555 1_555
H3_8 C6_8 1_555 1_555
C7_8 C3_8 1_555 1_555
H4_8 C7_8 1_555 1_555
H5_8 C7_8 1_555 1_555
C8_8 C7_8 1_555 1_555
C9_8 C4_8 1_555 1_555
H6_8 C9_8 1_555 1_555
H7_8 C9_8 1_555 1_555
C10_8 C8_8 1_555 1_555
H8_8 C10_8 1_555 1_555
H9_8 C10_8 1_555 1_555
C11_8 C10_8 1_555 1_555
C12_8 C11_8 1_555 1_555
C13_8 C8_8 1_555 1_555
H10_8 C13_8 1_555 1_555
H11_8 C13_8 1_555 1_555
C14_8 C11_8 1_555 1_555
H12_8 C14_8 1_555 1_555
C15_8 C14_8 1_555 1_555
C17_8 C12_8 1_555 1_555
H14_8 C17_8 1_555 1_555
C19_8 O2_8 1_555 1_555
C20_8 C21_8 1_555 1_555
C21_8 H15_8 1_555 1_555
C22_8 C21_8 1_555 1_555
C23_8 C22_8 1_555 1_555
C24_8 C23_8 1_555 1_555
H16_8 C24_8 1_555 1_555
C25_8 C20_8 1_555 1_555
H17_8 C25_8 1_555 1_555
C26_8 C22_8 1_555 1_555
H18_8 C26_8 1_555 1_555
H19_8 C26_8 1_555 1_555
C27_8 C26_8 1_555 1_555
C28_8 C23_8 1_555 1_555
H20_8 C28_8 1_555 1_555
H21_8 C28_8 1_555 1_555
C29_8 C27_8 1_555 1_555
H22_8 C29_8 1_555 1_555
H23_8 C29_8 1_555 1_555
C30_8 C29_8 1_555 1_555
C31_8 C30_8 1_555 1_555
C32_8 C27_8 1_555 1_555
H24_8 C32_8 1_555 1_555
H25_8 C32_8 1_555 1_555
C33_8 C30_8 1_555 1_555
H26_8 C33_8 1_555 1_555
C34_8 C33_8 1_555 1_555
C35_8 C34_8 1_555 1_555
H27_8 C35_8 1_555 1_555
C36_8 C31_8 1_555 1_555
H28_8 C36_8 1_555 1_555
C37_8 C34_8 1_555 1_555
C38_8 O6_8 1_555 1_555
C39_8 C40_8 1_555 1_555
C40_8 H29_8 1_555 1_555
C41_8 C40_8 1_555 1_555
C42_8 C41_8 1_555 1_555
C43_8 C42_8 1_555 1_555
H30_8 C43_8 1_555 1_555
C44_8 C39_8 1_555 1_555
H31_8 C44_8 1_555 1_555
C45_8 C41_8 1_555 1_555
H32_8 C45_8 1_555 1_555
C47_8 C42_8 1_555 1_555
H34_8 C47_8 1_555 1_555
H38_8 C51_8 1_555 1_555
H39_8 C51_8 1_555 1_555
C57_8 O10_8 1_555 1_555
O14_8 Zn4_5 1_555 1_555
C58_8 O14_8 1_555 1_555
N1_8 C58_8 1_555 1_555
C59_8 N1_8 1_555 1_555
H43_8 C59_8 1_555 1_555
H44_8 C59_8 1_555 1_555
H45_8 C59_8 1_555 1_555
C60_8 N1_8 1_555 1_555
H46_8 C60_8 1_555 1_555
H47_8 C60_8 1_555 1_555
H48_8 C60_8 1_555 1_555
O15_8 Zn4_5 1_555 1_555
C61_8 O15_8 1_555 1_555
N2_8 C61_8 1_555 1_555
C62_8 N2_8 1_555 1_555
H50_8 C62_8 1_555 1_555
H51_8 C62_8 1_555 1_555
C63_8 N2_8 1_555 1_555
H53_8 C63_8 1_555 1_555
H54_8 C63_8 1_555 1_555
Zn5_3 O8_5 1_555 1_555
Zn9_3 O9_5 1_555 1_555
O16_5 Zn3_5 1_555 1_555
O17_5 Zn4_5 1_555 1_555
O18_5 Zn2_5 1_555 1_555
O19_5 Zn4_5 1_555 1_555
O20_5 Zn2_5 1_555 1_555
O21_5 Zn3_5 1_555 1_555
O3_8 C19_8 1_555 1_555
O7_8 C38_8 1_555 1_555
O11_8 C57_8 1_555 1_555
C1_8 C19_8 1_555 1_555
C5_8 C6_8 1_555 1_555
C8_8 C9_8 1_555 1_555
C12_8 C13_8 1_555 1_555
C20_8 C38_8 1_555 1_555
C24_8 C25_8 1_555 1_555
C27_8 C28_8 1_555 1_555
C31_8 C32_8 1_555 1_555
C35_8 C36_8 1_555 1_555
C39_8 C57_8 1_555 1_555
C43_8 C44_8 1_555 1_555
C58_8 H55_8 1_555 1_555
C61_8 H56_8 1_555 1_555
O12_5 C56_8 1_555 1_555
O13_5 C56_8 1_555 1_555
C48_8 C46_8 1_555 1_555
H36_8 C48_8 1_555 1_555
H37_8 C48_8 1_555 1_555
C49_8 C48_8 1_555 1_555
C50_8 C49_8 1_555 1_555
C52_8 C49_8 1_555 1_555
H40_8 C52_8 1_555 1_555
C53_8 C52_8 1_555 1_555
C54_8 C53_8 1_555 1_555
H41_8 C54_8 1_555 1_555
C55_8 C50_8 1_555 1_555
C56_8 C53_8 1_555 1_555
Zn5_3 O12_5 1_555 1_555
Zn7_3 O13_5 1_555 1_555
C54_8 C55_8 1_555 1_555
O4_6 C18_9 1_555 1_555
O5_6 C18_9 1_555 1_555
O8_6 C37_9 1_555 1_555
O9_6 C37_9 1_555 1_555
C12_9 C11_9 1_555 1_555
C14_9 C11_9 1_555 1_555
H12_9 C14_9 1_555 1_555
C15_9 C14_9 1_555 1_555
C16_9 C15_9 1_555 1_555
H13_9 C16_9 1_555 1_555
C17_9 C12_9 1_555 1_555
H14_9 C17_9 1_555 1_555
C18_9 C15_9 1_555 1_555
H18_9 C26_9 1_555 1_555
H19_9 C26_9 1_555 1_555
C27_9 C26_9 1_555 1_555
H20_9 C28_9 1_555 1_555
H21_9 C28_9 1_555 1_555
C29_9 C27_9 1_555 1_555
H22_9 C29_9 1_555 1_555
H23_9 C29_9 1_555 1_555
C30_9 C29_9 1_555 1_555
C31_9 C30_9 1_555 1_555
C32_9 C27_9 1_555 1_555
C33_9 C30_9 1_555 1_555
H26_9 C33_9 1_555 1_555
C34_9 C33_9 1_555 1_555
C35_9 C34_9 1_555 1_555
H27_9 C35_9 1_555 1_555
C36_9 C31_9 1_555 1_555
C37_9 C34_9 1_555 1_555
Zn5_4 O8_6 1_555 1_555
Zn8_2 O4_6 1_555 1_555
Zn10_2 O5_6 1_555 1_555
Zn9_4 O9_6 1_555 1_555
C16_9 C17_9 1_555 1_555
C27_9 C28_9 1_555 1_555
C31_9 C32_9 1_555 1_555
C35_9 C36_9 1_555 1_555
Zn1_9 O1_9 1_555 1_555
Zn2_6 O1_9 1_555 1_555
Zn3_6 O1_9 1_555 1_555
Zn4_6 O1_9 1_555 1_555
O2_9 Zn1_9 1_555 1_555
O3_9 Zn2_6 1_555 1_555
O6_9 Zn1_9 1_555 1_555
O7_9 Zn3_6 1_555 1_555
O10_9 Zn1_9 1_555 1_555
O11_9 Zn4_6 1_555 1_555
O12_6 C56_9 1_555 1_555
O13_6 C56_9 1_555 1_555
C1_9 C2_9 1_555 1_555
C2_9 H1_9 1_555 1_555
C3_9 C2_9 1_555 1_555
C4_9 C3_9 1_555 1_555
C5_9 C4_9 1_555 1_555
C6_9 C1_9 1_555 1_555
H3_9 C6_9 1_555 1_555
C7_9 C3_9 1_555 1_555
H4_9 C7_9 1_555 1_555
H5_9 C7_9 1_555 1_555
C8_9 C7_9 1_555 1_555
C9_9 C4_9 1_555 1_555
C10_9 C8_9 1_555 1_555
H8_9 C10_9 1_555 1_555
H9_9 C10_9 1_555 1_555
C13_9 C8_9 1_555 1_555
H10_9 C13_9 1_555 1_555
H11_9 C13_9 1_555 1_555
C19_9 O2_9 1_555 1_555
C20_9 C21_9 1_555 1_555
C21_9 H15_9 1_555 1_555
C22_9 C21_9 1_555 1_555
C23_9 C22_9 1_555 1_555
C24_9 C23_9 1_555 1_555
H16_9 C24_9 1_555 1_555
C25_9 C20_9 1_555 1_555
H17_9 C25_9 1_555 1_555
C38_9 O6_9 1_555 1_555
C39_9 C40_9 1_555 1_555
C40_9 H29_9 1_555 1_555
C41_9 C40_9 1_555 1_555
C42_9 C41_9 1_555 1_555
C43_9 C42_9 1_555 1_555
H30_9 C43_9 1_555 1_555
C44_9 C39_9 1_555 1_555
H31_9 C44_9 1_555 1_555
C45_9 C41_9 1_555 1_555
H32_9 C45_9 1_555 1_555
H33_9 C45_9 1_555 1_555
C46_9 C45_9 1_555 1_555
C47_9 C42_9 1_555 1_555
H34_9 C47_9 1_555 1_555
H35_9 C47_9 1_555 1_555
C48_9 C46_9 1_555 1_555
H36_9 C48_9 1_555 1_555
H37_9 C48_9 1_555 1_555
C49_9 C48_9 1_555 1_555
C50_9 C49_9 1_555 1_555
C51_9 C46_9 1_555 1_555
H38_9 C51_9 1_555 1_555
H39_9 C51_9 1_555 1_555
C52_9 C49_9 1_555 1_555
H40_9 C52_9 1_555 1_555
C53_9 C52_9 1_555 1_555
C54_9 C53_9 1_555 1_555
H41_9 C54_9 1_555 1_555
C55_9 C50_9 1_555 1_555
H42_9 C55_9 1_555 1_555
C56_9 C53_9 1_555 1_555
C57_9 O10_9 1_555 1_555
O14_9 Zn4_6 1_555 1_555
C58_9 O14_9 1_555 1_555
N1_9 C58_9 1_555 1_555
C59_9 N1_9 1_555 1_555
H43_9 C59_9 1_555 1_555
H44_9 C59_9 1_555 1_555
H45_9 C59_9 1_555 1_555
C60_9 N1_9 1_555 1_555
H46_9 C60_9 1_555 1_555
H47_9 C60_9 1_555 1_555
H48_9 C60_9 1_555 1_555
O15_9 Zn4_6 1_555 1_555
C61_9 O15_9 1_555 1_555
N2_9 C61_9 1_555 1_555
C62_9 N2_9 1_555 1_555
H49_9 C62_9 1_555 1_555
H50_9 C62_9 1_555 1_555
H51_9 C62_9 1_555 1_555
C63_9 N2_9 1_555 1_555
H52_9 C63_9 1_555 1_555
H53_9 C63_9 1_555 1_555
H54_9 C63_9 1_555 1_555
Zn5_4 O12_6 1_555 1_555
Zn7_4 O13_6 1_555 1_555
O16_6 Zn3_6 1_555 1_555
O17_6 Zn4_6 1_555 1_555
O18_6 Zn2_6 1_555 1_555
O19_6 Zn4_6 1_555 1_555
O20_6 Zn2_6 1_555 1_555
O21_6 Zn3_6 1_555 1_555
O3_9 C19_9 1_555 1_555
O7_9 C38_9 1_555 1_555
O11_9 C57_9 1_555 1_555
C1_9 C19_9 1_555 1_555
C5_9 C6_9 1_555 1_555
C8_9 C9_9 1_555 1_555
C20_9 C38_9 1_555 1_555
C24_9 C25_9 1_555 1_555
C39_9 C57_9 1_555 1_555
C43_9 C44_9 1_555 1_555
C46_9 C47_9 1_555 1_555
C50_9 C51_9 1_555 1_555
C54_9 C55_9 1_555 1_555
C58_9 H55_9 1_555 1_555
C61_9 H56_9 1_555 1_555
O16_6 C18_10 1_555 1_555
O17_6 C18_10 1_555 1_555
C12_10 C11_10 1_555 1_555
C14_10 C11_10 1_555 1_555
H12_10 C14_10 1_555 1_555
C15_10 C14_10 1_555 1_555
C16_10 C15_10 1_555 1_555
H13_10 C16_10 1_555 1_555
C17_10 C12_10 1_555 1_555
H14_10 C17_10 1_555 1_555
C18_10 C15_10 1_555 1_555
C16_10 C17_10 1_555 1_555
O18_5 C37_10 1_555 1_555
O19_5 C37_10 1_555 1_555
H18_10 C26_10 1_555 1_555
H19_10 C26_10 1_555 1_555
C27_10 C26_10 1_555 1_555
H20_10 C28_10 1_555 1_555
H21_10 C28_10 1_555 1_555
C29_10 C27_10 1_555 1_555
H22_10 C29_10 1_555 1_555
H23_10 C29_10 1_555 1_555
C30_10 C29_10 1_555 1_555
C31_10 C30_10 1_555 1_555
C32_10 C27_10 1_555 1_555
C33_10 C30_10 1_555 1_555
H26_10 C33_10 1_555 1_555
C34_10 C33_10 1_555 1_555
C35_10 C34_10 1_555 1_555
H27_10 C35_10 1_555 1_555
C36_10 C31_10 1_555 1_555
C37_10 C34_10 1_555 1_555
C27_10 C28_10 1_555 1_555
C31_10 C32_10 1_555 1_555
C35_10 C36_10 1_555 1_555
Zn1_10 O1_10 1_555 1_555
Zn5_4 O1_10 1_555 1_555
Zn7_4 O1_10 1_555 1_555
Zn9_4 O1_10 1_555 1_555
O2_10 Zn1_10 1_555 1_555
O3_10 Zn5_4 1_555 1_555
O6_10 Zn1_10 1_555 1_555
O7_10 Zn7_4 1_555 1_555
O10_10 Zn1_10 1_555 1_555
O11_10 Zn9_4 1_555 1_555
C1_10 C2_10 1_555 1_555
C2_10 H1_10 1_555 1_555
C3_10 C2_10 1_555 1_555
C4_10 C3_10 1_555 1_555
C5_10 C4_10 1_555 1_555
C6_10 C1_10 1_555 1_555
H3_10 C6_10 1_555 1_555
C7_10 C3_10 1_555 1_555
H4_10 C7_10 1_555 1_555
H5_10 C7_10 1_555 1_555
C8_10 C7_10 1_555 1_555
C9_10 C4_10 1_555 1_555
C10_10 C8_10 1_555 1_555
H8_10 C10_10 1_555 1_555
H9_10 C10_10 1_555 1_555
C13_10 C8_10 1_555 1_555
H10_10 C13_10 1_555 1_555
H11_10 C13_10 1_555 1_555
C19_10 O2_10 1_555 1_555
C38_10 O6_10 1_555 1_555
C57_10 O10_10 1_555 1_555
O15_10 Zn9_4 1_555 1_555
C61_10 O15_10 1_555 1_555
N2_10 C61_10 1_555 1_555
C62_10 N2_10 1_555 1_555
H51_10 C62_10 1_555 1_555
C63_10 N2_10 1_555 1_555
H53_10 C63_10 1_555 1_555
H54_10 C63_10 1_555 1_555
O3_10 C19_10 1_555 1_555
O7_10 C38_10 1_555 1_555
O11_10 C57_10 1_555 1_555
C1_10 C19_10 1_555 1_555
C5_10 C6_10 1_555 1_555
C8_10 C9_10 1_555 1_555
C61_10 H56_10 1_555 1_555
O20_5 C56_10 1_555 1_555
O21_5 C56_10 1_555 1_555
C48_10 C46_10 1_555 1_555
H36_10 C48_10 1_555 1_555
H37_10 C48_10 1_555 1_555
C49_10 C48_10 1_555 1_555
C50_10 C49_10 1_555 1_555
C52_10 C49_10 1_555 1_555
H40_10 C52_10 1_555 1_555
C53_10 C52_10 1_555 1_555
C54_10 C53_10 1_555 1_555
H41_10 C54_10 1_555 1_555
C55_10 C50_10 1_555 1_555
C56_10 C53_10 1_555 1_555
C54_10 C55_10 1_555 1_555
O20_6 C56_11 1_555 1_555
O21_6 C56_11 1_555 1_555
C48_11 C46_11 1_555 1_555
H36_11 C48_11 1_555 1_555
H37_11 C48_11 1_555 1_555
C49_11 C48_11 1_555 1_555
C50_11 C49_11 1_555 1_555
C52_11 C49_11 1_555 1_555
H40_11 C52_11 1_555 1_555
C53_11 C52_11 1_555 1_555
C54_11 C53_11 1_555 1_555
H41_11 C54_11 1_555 1_555
C55_11 C50_11 1_555 1_555
C56_11 C53_11 1_555 1_555
C54_11 C55_11 1_555 1_555
Zn1_11 O1_11 1_555 1_555
Zn6_2 O1_11 1_555 1_555
Zn8_2 O1_11 1_555 1_555
Zn10_2 O1_11 1_555 1_555
O2_11 Zn1_11 1_555 1_555
O3_11 Zn6_2 1_555 1_555
O16_4 C18_11 1_555 1_555
O17_4 C18_11 1_555 1_555
O6_11 Zn1_11 1_555 1_555
O7_11 Zn8_2 1_555 1_555
O18_6 C37_11 1_555 1_555
O19_6 C37_11 1_555 1_555
O10_11 Zn1_11 1_555 1_555
O11_11 Zn10_2 1_555 1_555
C1_11 C2_11 1_555 1_555
C2_11 H1_11 1_555 1_555
C3_11 C2_11 1_555 1_555
C4_11 C3_11 1_555 1_555
C5_11 C4_11 1_555 1_555
H2_11 C5_11 1_555 1_555
C6_11 C1_11 1_555 1_555
H3_11 C6_11 1_555 1_555
C7_11 C3_11 1_555 1_555
H4_11 C7_11 1_555 1_555
H5_11 C7_11 1_555 1_555
C8_11 C7_11 1_555 1_555
C9_11 C4_11 1_555 1_555
H6_11 C9_11 1_555 1_555
H7_11 C9_11 1_555 1_555
C10_11 C8_11 1_555 1_555
H8_11 C10_11 1_555 1_555
H9_11 C10_11 1_555 1_555
C11_11 C10_11 1_555 1_555
C12_11 C11_11 1_555 1_555
C13_11 C8_11 1_555 1_555
H10_11 C13_11 1_555 1_555
H11_11 C13_11 1_555 1_555
C14_11 C11_11 1_555 1_555
H12_11 C14_11 1_555 1_555
C15_11 C14_11 1_555 1_555
C16_11 C15_11 1_555 1_555
H13_11 C16_11 1_555 1_555
C17_11 C12_11 1_555 1_555
H14_11 C17_11 1_555 1_555
C18_11 C15_11 1_555 1_555
C19_11 O2_11 1_555 1_555
C20_10 C21_10 1_555 1_555
C21_10 H15_10 1_555 1_555
C22_10 C21_10 1_555 1_555
C23_10 C22_10 1_555 1_555
C24_10 C23_10 1_555 1_555
H16_10 C24_10 1_555 1_555
C25_10 C20_10 1_555 1_555
H17_10 C25_10 1_555 1_555
C26_11 C22_10 1_555 1_555
H18_11 C26_11 1_555 1_555
H19_11 C26_11 1_555 1_555
C27_11 C26_11 1_555 1_555
C28_11 C23_10 1_555 1_555
H20_11 C28_11 1_555 1_555
H21_11 C28_11 1_555 1_555
C29_11 C27_11 1_555 1_555
H22_11 C29_11 1_555 1_555
H23_11 C29_11 1_555 1_555
C30_11 C29_11 1_555 1_555
C31_11 C30_11 1_555 1_555
C32_11 C27_11 1_555 1_555
H24_10 C32_11 1_555 1_555
H25_10 C32_11 1_555 1_555
C33_11 C30_11 1_555 1_555
H26_11 C33_11 1_555 1_555
C34_11 C33_11 1_555 1_555
C35_11 C34_11 1_555 1_555
H27_11 C35_11 1_555 1_555
C36_11 C31_11 1_555 1_555
H28_10 C36_11 1_555 1_555
C37_11 C34_11 1_555 1_555
C38_11 O6_11 1_555 1_555
C39_10 C40_10 1_555 1_555
C40_10 H29_10 1_555 1_555
C41_10 C40_10 1_555 1_555
C42_10 C41_10 1_555 1_555
C43_10 C42_10 1_555 1_555
H30_10 C43_10 1_555 1_555
C44_10 C39_10 1_555 1_555
H31_10 C44_10 1_555 1_555
C45_10 C41_10 1_555 1_555
H32_10 C45_10 1_555 1_555
C47_10 C42_10 1_555 1_555
H34_10 C47_10 1_555 1_555
H38_10 C51_10 1_555 1_555
H39_10 C51_10 1_555 1_555
C57_11 O10_11 1_555 1_555
O14_10 Zn10_2 1_555 1_555
C58_10 O14_10 1_555 1_555
N1_10 C58_10 1_555 1_555
C59_10 N1_10 1_555 1_555
H43_10 C59_10 1_555 1_555
H44_10 C59_10 1_555 1_555
H45_10 C59_10 1_555 1_555
C60_10 N1_10 1_555 1_555
H46_10 C60_10 1_555 1_555
H47_10 C60_10 1_555 1_555
H48_10 C60_10 1_555 1_555
O15_11 Zn10_2 1_555 1_555
C61_11 O15_11 1_555 1_555
N2_11 C61_11 1_555 1_555
C62_11 N2_11 1_555 1_555
H50_10 C62_11 1_555 1_555
H51_11 C62_11 1_555 1_555
C63_11 N2_11 1_555 1_555
H53_11 C63_11 1_555 1_555
H54_11 C63_11 1_555 1_555
O3_11 C19_11 1_555 1_555
O7_11 C38_11 1_555 1_555
O11_11 C57_11 1_555 1_555
C1_11 C19_11 1_555 1_555
C5_11 C6_11 1_555 1_555
C8_11 C9_11 1_555 1_555
C12_11 C13_11 1_555 1_555
C16_11 C17_11 1_555 1_555
C20_10 C38_11 1_555 1_555
C24_10 C25_10 1_555 1_555
C27_11 C28_11 1_555 1_555
C31_11 C32_11 1_555 1_555
C35_11 C36_11 1_555 1_555
C39_10 C57_11 1_555 1_555
C43_10 C44_10 1_555 1_555
C58_10 H55_10 1_555 1_555
C61_11 H56_11 1_555 1_555
Zn1_12 O1_12 1_555 1_555
Zn5_3 O1_12 1_555 1_555
Zn7_3 O1_12 1_555 1_555
Zn9_3 O1_12 1_555 1_555
O2_12 Zn1_12 1_555 1_555
O3_12 Zn5_3 1_555 1_555
O6_12 Zn1_12 1_555 1_555
O7_12 Zn7_3 1_555 1_555
O10_12 Zn1_12 1_555 1_555
O11_12 Zn9_3 1_555 1_555
O20_4 C56_12 1_555 1_555
O21_4 C56_12 1_555 1_555
C1_12 C2_12 1_555 1_555
C2_12 H1_12 1_555 1_555
C3_12 C2_12 1_555 1_555
C4_12 C3_12 1_555 1_555
C5_12 C4_12 1_555 1_555
C6_12 C1_12 1_555 1_555
H3_12 C6_12 1_555 1_555
C7_12 C3_12 1_555 1_555
H4_12 C7_12 1_555 1_555
H5_12 C7_12 1_555 1_555
C8_12 C7_12 1_555 1_555
C9_12 C4_12 1_555 1_555
C10_12 C8_12 1_555 1_555
H8_12 C10_12 1_555 1_555
H9_12 C10_12 1_555 1_555
C13_12 C8_12 1_555 1_555
H10_12 C13_12 1_555 1_555
H11_12 C13_12 1_555 1_555
C19_12 O2_12 1_555 1_555
C20_11 C21_11 1_555 1_555
C21_11 H15_11 1_555 1_555
C22_11 C21_11 1_555 1_555
C23_11 C22_11 1_555 1_555
C24_11 C23_11 1_555 1_555
H16_11 C24_11 1_555 1_555
C25_11 C20_11 1_555 1_555
H17_11 C25_11 1_555 1_555
C38_12 O6_12 1_555 1_555
C39_11 C40_11 1_555 1_555
C40_11 H29_11 1_555 1_555
C41_11 C40_11 1_555 1_555
C42_11 C41_11 1_555 1_555
C43_11 C42_11 1_555 1_555
H30_11 C43_11 1_555 1_555
C44_11 C39_11 1_555 1_555
H31_11 C44_11 1_555 1_555
C45_11 C41_11 1_555 1_555
H32_11 C45_11 1_555 1_555
H33_12 C45_11 1_555 1_555
C46_12 C45_11 1_555 1_555
C47_11 C42_11 1_555 1_555
H34_11 C47_11 1_555 1_555
H35_12 C47_11 1_555 1_555
C48_12 C46_12 1_555 1_555
H36_12 C48_12 1_555 1_555
H37_12 C48_12 1_555 1_555
C49_12 C48_12 1_555 1_555
C50_12 C49_12 1_555 1_555
C51_11 C46_12 1_555 1_555
H38_11 C51_11 1_555 1_555
H39_11 C51_11 1_555 1_555
C52_12 C49_12 1_555 1_555
H40_12 C52_12 1_555 1_555
C53_12 C52_12 1_555 1_555
C54_12 C53_12 1_555 1_555
H41_12 C54_12 1_555 1_555
C55_12 C50_12 1_555 1_555
H42_11 C55_12 1_555 1_555
C56_12 C53_12 1_555 1_555
C57_12 O10_12 1_555 1_555
O14_11 Zn9_3 1_555 1_555
C58_11 O14_11 1_555 1_555
N1_11 C58_11 1_555 1_555
C59_11 N1_11 1_555 1_555
H43_11 C59_11 1_555 1_555
H44_11 C59_11 1_555 1_555
H45_11 C59_11 1_555 1_555
C60_11 N1_11 1_555 1_555
H46_11 C60_11 1_555 1_555
H47_11 C60_11 1_555 1_555
H48_11 C60_11 1_555 1_555
O15_12 Zn9_3 1_555 1_555
C61_12 O15_12 1_555 1_555
N2_12 C61_12 1_555 1_555
C62_12 N2_12 1_555 1_555
H49_12 C62_12 1_555 1_555
H50_11 C62_12 1_555 1_555
H51_12 C62_12 1_555 1_555
C63_12 N2_12 1_555 1_555
H52_11 C63_12 1_555 1_555
H53_12 C63_12 1_555 1_555
H54_12 C63_12 1_555 1_555
O3_12 C19_12 1_555 1_555
O7_12 C38_12 1_555 1_555
O11_12 C57_12 1_555 1_555
C1_12 C19_12 1_555 1_555
C5_12 C6_12 1_555 1_555
C8_12 C9_12 1_555 1_555
C20_11 C38_12 1_555 1_555
C24_11 C25_11 1_555 1_555
C39_11 C57_12 1_555 1_555
C43_11 C44_11 1_555 1_555
C46_12 C47_11 1_555 1_555
C50_12 C51_11 1_555 1_555
C54_12 C55_12 1_555 1_555
C58_11 H55_11 1_555 1_555
C61_12 H56_12 1_555 1_555
O16_5 C18_12 1_555 1_555
O17_5 C18_12 1_555 1_555
O18_4 C37_12 1_555 1_555
O19_4 C37_12 1_555 1_555
C12_12 C11_12 1_555 1_555
C14_12 C11_12 1_555 1_555
H12_12 C14_12 1_555 1_555
C15_12 C14_12 1_555 1_555
C16_12 C15_12 1_555 1_555
H13_12 C16_12 1_555 1_555
C17_12 C12_12 1_555 1_555
H14_12 C17_12 1_555 1_555
C18_12 C15_12 1_555 1_555
H18_12 C26_12 1_555 1_555
H19_12 C26_12 1_555 1_555
C27_12 C26_12 1_555 1_555
H20_12 C28_12 1_555 1_555
H21_12 C28_12 1_555 1_555
C29_12 C27_12 1_555 1_555
H22_12 C29_12 1_555 1_555
H23_12 C29_12 1_555 1_555
C30_12 C29_12 1_555 1_555
C31_12 C30_12 1_555 1_555
C32_12 C27_12 1_555 1_555
C33_12 C30_12 1_555 1_555
H26_12 C33_12 1_555 1_555
C34_12 C33_12 1_555 1_555
C35_12 C34_12 1_555 1_555
H27_12 C35_12 1_555 1_555
C36_12 C31_12 1_555 1_555
C37_12 C34_12 1_555 1_555
C16_12 C17_12 1_555 1_555
C27_12 C28_12 1_555 1_555
C31_12 C32_12 1_555 1_555
C35_12 C36_12 1_555 1_555
C20_12 C21_12 1_555 1_555
C21_12 H15_12 1_555 1_555
C22_12 C21_12 1_555 1_555
C23_12 C22_12 1_555 1_555
C24_12 C23_12 1_555 1_555
H16_12 C24_12 1_555 1_555
C25_12 C20_12 1_555 1_555
H17_12 C25_12 1_555 1_555
C39_12 C40_12 1_555 1_555
C40_12 H29_12 1_555 1_555
C41_12 C40_12 1_555 1_555
C42_12 C41_12 1_555 1_555
C43_12 C42_12 1_555 1_555
H30_12 C43_12 1_555 1_555
C44_12 C39_12 1_555 1_555
H31_12 C44_12 1_555 1_555
C45_12 C41_12 1_555 1_555
H32_12 C45_12 1_555 1_555
C47_12 C42_12 1_555 1_555
H34_12 C47_12 1_555 1_555
H38_12 C51_12 1_555 1_555
H39_12 C51_12 1_555 1_555
C58_12 O14_12 1_555 1_555
N1_12 C58_12 1_555 1_555
C59_12 N1_12 1_555 1_555
H43_12 C59_12 1_555 1_555
H44_12 C59_12 1_555 1_555
H45_12 C59_12 1_555 1_555
C60_12 N1_12 1_555 1_555
H46_12 C60_12 1_555 1_555
H47_12 C60_12 1_555 1_555
H48_12 C60_12 1_555 1_555
C24_12 C25_12 1_555 1_555
C43_12 C44_12 1_555 1_555
C58_12 H55_12 1_555 1_555

#END
