
###############################################################################
#
# This file contains modified crystal structure data generated from the
# MOF subset of the Cambridge Structural Database (CSD) v543 
# hosted by the Cambridge Crystallographic Data Centre (CCDC).
#
# This work is licensed under the Creative Commons
# Attribution-NonCommercial-ShareAlike 4.0 International License.
# To view a copy of this license, visit
# http://creativecommons.org/licenses/by-nc-sa/4.0/
# or send a letter to
# Creative Commons, PO Box 1866, Mountain View, CA 94042, USA.
#
# CIF created using the CSD Python API on 29 September 2022
# The structure has been converted into the P1 space group
# The structure has a 3D framework
# The original CSD entry RACZIG is in the orthorhombic crystal system
# The framework has been calculated to contain at least 10.0% void space
# The void calculation uses a probe of radius 1.32A, grid spacing 0.4
#
###############################################################################

data_RACZIG
_chemical_formula_moiety         '(C56 H16 F16 N10 O12 Zn8)n'
_symmetry_cell_setting           triclinic
_symmetry_space_group_name_H-M   'P 1'
_symmetry_Int_Tables_number      1
_space_group_name_Hall           'P 1'
loop_
_symmetry_equiv_pos_site_id
_symmetry_equiv_pos_as_xyz
1 x,y,z
_cell_length_a                   26.376(3)
_cell_length_b                   8.9842(10)
_cell_length_c                   6.3964(7)
_cell_angle_alpha                90
_cell_angle_beta                 90
_cell_angle_gamma                90
_cell_volume                     1515.74
loop_
_atom_site_label
_atom_site_type_symbol
_atom_site_fract_x
_atom_site_fract_y
_atom_site_fract_z
Zn2 Zn 0.28656(2) 0.0000 0.0000
Zn4 Zn 0.21344(2) 0.0000 0.5000
Zn2_2 Zn 0.28656(2) 0.0000 1.0000
C1 C 0.2500 0.2567(6) 0.2500
C2 C 0.2500 0.4246(7) 0.2500
C3 C 0.20573(14) 0.5077(5) 0.2454(6)
C4 C 0.20565(16) 0.6615(5) 0.2416(7)
C5 C 0.2500 0.7446(6) 0.2500
C6 C 0.39191(19) 0.0711(6) 0.1455(9)
H1 H 0.3744 0.1216 0.2499
C7 C 0.44389(18) 0.0739(6) 0.1499(9)
H2 H 0.4606 0.1261 0.2548
C8 C 0.4714(2) 0.0000 0.0000
N1 N 0.36525(18) 0.0000 0.0000
O1 O 0.28689(11) 0.1939(3) 0.1638(5)
O2 O 0.2500 0.8939(4) 0.2500
F1 F 0.16001(9) 0.4395(3) 0.2362(5)
F2 F 0.16083(9) 0.7337(3) 0.2294(5)
Zn2_3 Zn 0.28656(2) 1.0000 0.0000
Zn4_2 Zn 0.21344(2) 1.0000 0.5000
Zn5 Zn 0.71344(2) 0.0000 0.0000
C9 C 0.29427(14) 0.5077(5) 0.2546(6)
C10 C 0.29435(16) 0.6615(5) 0.2584(7)
C13 C 0.60809(19) 0.0711(6) 0.1455(9)
H5 H 0.6256 0.1216 0.2499
C16 C 0.55611(18) 0.0739(6) 0.1499(9)
H8 H 0.5394 0.1261 0.2548
C17 C 0.5286(2) 0.0000 0.0000
N2 N 0.63475(18) 0.0000 0.0000
O3 O 0.21311(11) 0.1939(3) 0.3362(5)
F3 F 0.33999(9) 0.4395(3) 0.2638(5)
F4 F 0.33917(9) 0.7337(3) 0.2706(5)
C8_2 C 0.4714(2) 0.0000 1.0000
N1_2 N 0.36525(18) 0.0000 1.0000
Zn2_4 Zn 0.28656(2) 1.0000 1.0000
Zn5_2 Zn 0.71344(2) 0.0000 1.0000
C17_2 C 0.5286(2) 0.0000 1.0000
N2_2 N 0.63475(18) 0.0000 1.0000
O6 O 0.2500 0.1061(4) 0.7500
C8_3 C 0.4714(2) 1.0000 0.0000
N1_3 N 0.36525(18) 1.0000 0.0000
Zn5_3 Zn 0.71344(2) 1.0000 0.0000
C17_3 C 0.5286(2) 1.0000 0.0000
N2_3 N 0.63475(18) 1.0000 0.0000
C8_4 C 0.4714(2) 1.0000 1.0000
N1_4 N 0.36525(18) 1.0000 1.0000
Zn5_4 Zn 0.71344(2) 1.0000 1.0000
C11 C 0.39191(19) 0.9289(6) 0.8545(9)
C12 C 0.60809(19) 0.9289(6) 0.8545(9)
H3 H 0.3744 0.8784 0.7501
H4 H 0.6256 0.8784 0.7501
C14 C 0.44389(18) 0.9261(6) 0.8501(9)
C15 C 0.55611(18) 0.9261(6) 0.8501(9)
H6 H 0.4606 0.8739 0.7452
H7 H 0.5394 0.8739 0.7452
C17_4 C 0.5286(2) 1.0000 1.0000
N2_4 N 0.63475(18) 1.0000 1.0000
O4 O 0.28689(11) 0.8061(3) 0.8362(5)
C8_5 C 0.0286(2) 0.0000 0.5000
N1_5 N 0.13475(18) 0.0000 0.5000
C11_2 C 0.10809(19) 0.0711(6) 0.3545(9)
H3_2 H 0.1256 0.1216 0.2501
C14_2 C 0.05611(18) 0.0739(6) 0.3501(9)
H6_2 H 0.0394 0.1261 0.2452
C1_2 C 0.2500 0.7433(6) 0.7500
C2_2 C 0.2500 0.5754(7) 0.7500
C3_2 C 0.29427(14) 0.4923(5) 0.7454(6)
C4_2 C 0.29435(16) 0.3385(5) 0.7416(7)
C5_2 C 0.2500 0.2554(6) 0.7500
C6_2 C 0.10809(19) 0.9289(6) 0.6455(9)
H1_2 H 0.1256 0.8784 0.7499
C7_2 C 0.05611(18) 0.9261(6) 0.6499(9)
H2_2 H 0.0394 0.8739 0.7548
C8_6 C 0.0286(2) 1.0000 0.5000
N1_6 N 0.13475(18) 1.0000 0.5000
O1_2 O 0.21311(11) 0.8061(3) 0.6638(5)
F1_2 F 0.33999(9) 0.5605(3) 0.7362(5)
F2_2 F 0.33917(9) 0.2663(3) 0.7294(5)
C9_2 C 0.20573(14) 0.4923(5) 0.7546(6)
C10_2 C 0.20565(16) 0.3385(5) 0.7584(7)
F3_2 F 0.16001(9) 0.5605(3) 0.7638(5)
F4_2 F 0.16083(9) 0.2663(3) 0.7706(5)
Zn5_5 Zn 0.78656(2) 0.0000 0.5000
C12_2 C 0.89191(19) 0.0711(6) 0.3545(9)
H4_2 H 0.8744 0.1216 0.2501
C15_2 C 0.94389(18) 0.0739(6) 0.3501(9)
H7_2 H 0.9606 0.1261 0.2452
C17_5 C 0.9714(2) 0.0000 0.5000
N2_5 N 0.86525(18) 0.0000 0.5000
Zn5_6 Zn 0.78656(2) 1.0000 0.5000
C13_2 C 0.89191(19) 0.9289(6) 0.6455(9)
H5_2 H 0.8744 0.8784 0.7499
C16_2 C 0.94389(18) 0.9261(6) 0.6499(9)
H8_2 H 0.9606 0.8739 0.7548
C17_6 C 0.9714(2) 1.0000 0.5000
N2_6 N 0.86525(18) 1.0000 0.5000
O4_2 O 0.71311(11) 0.1939(3) 0.1638(5)
O5 O 0.7500 0.1061(4) 0.7500
O6_2 O 0.7500 0.8939(4) 0.2500
C1_3 C 0.7500 0.7433(6) 0.7500
C2_3 C 0.7500 0.5754(7) 0.7500
C3_3 C 0.79427(14) 0.4923(5) 0.7546(6)
C4_3 C 0.79435(16) 0.3385(5) 0.7584(7)
C5_3 C 0.7500 0.2554(6) 0.7500
O1_3 O 0.71311(11) 0.8061(3) 0.8362(5)
F1_3 F 0.83999(9) 0.5605(3) 0.7638(5)
F2_3 F 0.83917(9) 0.2663(3) 0.7706(5)
C9_3 C 0.70573(14) 0.4923(5) 0.7454(6)
C10_3 C 0.70565(16) 0.3385(5) 0.7416(7)
O3_2 O 0.78689(11) 0.8061(3) 0.6638(5)
F3_3 F 0.66001(9) 0.5605(3) 0.7362(5)
F4_3 F 0.66083(9) 0.2663(3) 0.7294(5)
C1_4 C 0.7500 0.2567(6) 0.2500
C2_4 C 0.7500 0.4246(7) 0.2500
C3_4 C 0.70573(14) 0.5077(5) 0.2546(6)
C4_4 C 0.70565(16) 0.6615(5) 0.2584(7)
C5_4 C 0.7500 0.7446(6) 0.2500
O1_4 O 0.78689(11) 0.1939(3) 0.3362(5)
F1_4 F 0.66001(9) 0.4395(3) 0.2638(5)
F2_4 F 0.66083(9) 0.7337(3) 0.2706(5)
C9_4 C 0.79427(14) 0.5077(5) 0.2454(6)
C10_4 C 0.79435(16) 0.6615(5) 0.2416(7)
F3_4 F 0.83999(9) 0.4395(3) 0.2362(5)
F4_4 F 0.83917(9) 0.7337(3) 0.2294(5)
loop_
_geom_bond_atom_site_label_1
_geom_bond_atom_site_label_2
_geom_bond_site_symmetry_1
_geom_bond_site_symmetry_2
Zn2 N1 1_555 1_555
C1 C2 1_555 1_555
C2 C3 1_555 1_555
C3 C4 1_555 1_555
C4 C5 1_555 1_555
C5 O2 1_555 1_555
C6 H1 1_555 1_555
C7 C6 1_555 1_555
H2 C7 1_555 1_555
C8 C7 1_555 1_555
N1 C6 1_555 1_555
O1 Zn2 1_555 1_555
O2 Zn2_3 1_555 1_555
F1 C3 1_555 1_555
F2 C4 1_555 1_555
Zn4 O3 1_555 1_555
Zn4_2 O2 1_555 1_555
Zn5 N2 1_555 1_555
C9 C2 1_555 1_555
C10 C5 1_555 1_555
C13 H5 1_555 1_555
C16 C13 1_555 1_555
H8 C16 1_555 1_555
C17 C8 1_555 1_555
O3 C1 1_555 1_555
F3 C9 1_555 1_555
F4 C10 1_555 1_555
C1 O1 1_555 1_555
C9 C10 1_555 1_555
C13 N2 1_555 1_555
C16 C17 1_555 1_555
Zn2_2 N1_2 1_555 1_555
Zn5_2 N2_2 1_555 1_555
C17_2 C8_2 1_555 1_555
O6 Zn2_2 1_555 1_555
Zn2_3 N1_3 1_555 1_555
Zn5_3 N2_3 1_555 1_555
C17_3 C8_3 1_555 1_555
Zn2_4 N1_4 1_555 1_555
Zn5_4 N2_4 1_555 1_555
C11 N1_4 1_555 1_555
C12 H4 1_555 1_555
H3 C11 1_555 1_555
C14 C8_4 1_555 1_555
C15 C12 1_555 1_555
H6 C14 1_555 1_555
H7 C15 1_555 1_555
C17_4 C8_4 1_555 1_555
N2_4 C12 1_555 1_555
O4 Zn2_4 1_555 1_555
C11 C14 1_555 1_555
C15 C17_4 1_555 1_555
Zn4 N1_5 1_555 1_555
C11_2 N1_5 1_555 1_555
H3_2 C11_2 1_555 1_555
C14_2 C8_5 1_555 1_555
H6_2 C14_2 1_555 1_555
O6 Zn4 1_555 1_555
C11_2 C14_2 1_555 1_555
Zn4_2 N1_6 1_555 1_555
C1_2 C2_2 1_555 1_555
C2_2 C3_2 1_555 1_555
C3_2 C4_2 1_555 1_555
C4_2 C5_2 1_555 1_555
C5_2 O6 1_555 1_555
C6_2 H1_2 1_555 1_555
C7_2 C6_2 1_555 1_555
H2_2 C7_2 1_555 1_555
C8_6 C7_2 1_555 1_555
N1_6 C6_2 1_555 1_555
O1_2 Zn4_2 1_555 1_555
F1_2 C3_2 1_555 1_555
F2_2 C4_2 1_555 1_555
C9_2 C2_2 1_555 1_555
C10_2 C5_2 1_555 1_555
O4 C1_2 1_555 1_555
F3_2 C9_2 1_555 1_555
F4_2 C10_2 1_555 1_555
C1_2 O1_2 1_555 1_555
C9_2 C10_2 1_555 1_555
Zn5_5 N2_5 1_555 1_555
C12_2 H4_2 1_555 1_555
C15_2 C12_2 1_555 1_555
H7_2 C15_2 1_555 1_555
N2_5 C12_2 1_555 1_555
C15_2 C17_5 1_555 1_555
Zn5_6 N2_6 1_555 1_555
C13_2 H5_2 1_555 1_555
C16_2 C13_2 1_555 1_555
H8_2 C16_2 1_555 1_555
C13_2 N2_6 1_555 1_555
C16_2 C17_6 1_555 1_555
O4_2 Zn5 1_555 1_555
O5 Zn5_2 1_555 1_555
Zn5_5 O5 1_555 1_555
O6_2 Zn5_3 1_555 1_555
C1_3 C2_3 1_555 1_555
C2_3 C3_3 1_555 1_555
C3_3 C4_3 1_555 1_555
C4_3 C5_3 1_555 1_555
C5_3 O5 1_555 1_555
O1_3 Zn5_4 1_555 1_555
F1_3 C3_3 1_555 1_555
F2_3 C4_3 1_555 1_555
Zn5_6 O3_2 1_555 1_555
C9_3 C2_3 1_555 1_555
C10_3 C5_3 1_555 1_555
O3_2 C1_3 1_555 1_555
F3_3 C9_3 1_555 1_555
F4_3 C10_3 1_555 1_555
C1_3 O1_3 1_555 1_555
C9_3 C10_3 1_555 1_555
C1_4 C2_4 1_555 1_555
C2_4 C3_4 1_555 1_555
C3_4 C4_4 1_555 1_555
C4_4 C5_4 1_555 1_555
C5_4 O6_2 1_555 1_555
O1_4 Zn5_5 1_555 1_555
O6_2 Zn5_6 1_555 1_555
F1_4 C3_4 1_555 1_555
F2_4 C4_4 1_555 1_555
C9_4 C2_4 1_555 1_555
C10_4 C5_4 1_555 1_555
O4_2 C1_4 1_555 1_555
F3_4 C9_4 1_555 1_555
F4_4 C10_4 1_555 1_555
C1_4 O1_4 1_555 1_555
C9_4 C10_4 1_555 1_555

#END
