
###############################################################################
#
# This file contains modified crystal structure data generated from the
# MOF subset of the Cambridge Structural Database (CSD) v543 
# hosted by the Cambridge Crystallographic Data Centre (CCDC).
#
# This work is licensed under the Creative Commons
# Attribution-NonCommercial-ShareAlike 4.0 International License.
# To view a copy of this license, visit
# http://creativecommons.org/licenses/by-nc-sa/4.0/
# or send a letter to
# Creative Commons, PO Box 1866, Mountain View, CA 94042, USA.
#
# CIF created using the CSD Python API on 29 September 2022
# The structure has been converted into the P1 space group
# The structure has a 3D framework
# The original CSD entry RACZEC is in the orthorhombic crystal system
# The framework has been calculated to contain at least 10.0% void space
# The void calculation uses a probe of radius 1.32A, grid spacing 0.4
#
###############################################################################

data_RACZEC
_chemical_formula_moiety         '(C56 H16 Co8 F16 N10 O12)n'
_symmetry_cell_setting           triclinic
_symmetry_space_group_name_H-M   'P 1'
_symmetry_Int_Tables_number      1
_space_group_name_Hall           'P 1'
loop_
_symmetry_equiv_pos_site_id
_symmetry_equiv_pos_as_xyz
1 x,y,z
_cell_length_a                   26.271(4)
_cell_length_b                   8.9909(12)
_cell_length_c                   6.4018(9)
_cell_angle_alpha                90
_cell_angle_beta                 90
_cell_angle_gamma                90
_cell_volume                     1512.1
loop_
_atom_site_label
_atom_site_type_symbol
_atom_site_fract_x
_atom_site_fract_y
_atom_site_fract_z
Co3 Co 0.28523(4) 0.0000 0.0000
Co4 Co 0.21477(4) 0.0000 0.5000
Co3_2 Co 0.28523(4) 0.0000 1.0000
C1 C 0.2500 0.2583(8) 0.2500
C2 C 0.2500 0.4269(9) 0.2500
C3 C 0.20599(18) 0.5084(6) 0.2437(8)
C4 C 0.2059(2) 0.6628(6) 0.2395(9)
C5 C 0.2500 0.7440(8) 0.2500
C6 C 0.3913(2) 0.0719(8) 0.1428(11)
H1 H 0.3735 0.1233 0.2456
C7 C 0.4439(2) 0.0750(8) 0.1481(12)
H2 H 0.4606 0.1280 0.2521
C8 C 0.4713(3) 0.0000 0.0000
N1 N 0.3650(2) 0.0000 0.0000
O1 O 0.28692(14) 0.1958(4) 0.1638(6)
O2 O 0.2500 0.8949(6) 0.2500
F1 F 0.15987(11) 0.4412(3) 0.2340(6)
F2 F 0.16077(11) 0.7346(3) 0.2272(6)
Co2 Co 0.71477(4) 0.0000 0.0000
Co3_3 Co 0.28523(4) 1.0000 0.0000
Co4_2 Co 0.21477(4) 1.0000 0.5000
C9 C 0.29401(18) 0.5084(6) 0.2563(8)
C10 C 0.2941(2) 0.6628(6) 0.2605(9)
C13 C 0.6087(2) 0.0719(8) 0.1428(11)
H5 H 0.6265 0.1233 0.2456
C16 C 0.5561(2) 0.0750(8) 0.1481(12)
H7 H 0.5394 0.1280 0.2521
C17 C 0.5287(3) 0.0000 0.0000
N2 N 0.6350(2) 0.0000 0.0000
O3 O 0.21308(14) 0.1958(4) 0.3362(6)
F3 F 0.34013(11) 0.4412(3) 0.2660(6)
F4 F 0.33923(11) 0.7346(3) 0.2728(6)
C8_2 C 0.4713(3) 0.0000 1.0000
N1_2 N 0.3650(2) 0.0000 1.0000
Co2_2 Co 0.71477(4) 0.0000 1.0000
Co3_4 Co 0.28523(4) 1.0000 1.0000
C17_2 C 0.5287(3) 0.0000 1.0000
N2_2 N 0.6350(2) 0.0000 1.0000
O6 O 0.2500 0.1051(6) 0.7500
C8_3 C 0.4713(3) 1.0000 0.0000
N1_3 N 0.3650(2) 1.0000 0.0000
Co2_3 Co 0.71477(4) 1.0000 0.0000
C17_3 C 0.5287(3) 1.0000 0.0000
N2_3 N 0.6350(2) 1.0000 0.0000
C8_4 C 0.4713(3) 1.0000 1.0000
N1_4 N 0.3650(2) 1.0000 1.0000
Co2_4 Co 0.71477(4) 1.0000 1.0000
C11 C 0.3913(2) 0.9281(8) 0.8572(11)
C12 C 0.6087(2) 0.9281(8) 0.8572(11)
H3 H 0.3735 0.8767 0.7544
H4 H 0.6265 0.8767 0.7544
C14 C 0.4439(2) 0.9250(8) 0.8519(12)
C15 C 0.5561(2) 0.9250(8) 0.8519(12)
H6 H 0.4606 0.8720 0.7479
H8 H 0.5394 0.8720 0.7479
C17_4 C 0.5287(3) 1.0000 1.0000
N2_4 N 0.6350(2) 1.0000 1.0000
O4 O 0.28692(14) 0.8042(4) 0.8362(6)
C8_5 C 0.0287(3) 0.0000 0.5000
N1_5 N 0.1350(2) 0.0000 0.5000
C11_2 C 0.1087(2) 0.0719(8) 0.3572(11)
H3_2 H 0.1265 0.1233 0.2544
C14_2 C 0.0561(2) 0.0750(8) 0.3519(12)
H6_2 H 0.0394 0.1280 0.2479
C1_2 C 0.2500 0.7417(8) 0.7500
C2_2 C 0.2500 0.5731(9) 0.7500
C3_2 C 0.29401(18) 0.4916(6) 0.7437(8)
C4_2 C 0.2941(2) 0.3372(6) 0.7395(9)
C5_2 C 0.2500 0.2560(8) 0.7500
C6_2 C 0.1087(2) 0.9281(8) 0.6428(11)
H1_2 H 0.1265 0.8767 0.7456
C7_2 C 0.0561(2) 0.9250(8) 0.6481(12)
H2_2 H 0.0394 0.8720 0.7521
C8_6 C 0.0287(3) 1.0000 0.5000
N1_6 N 0.1350(2) 1.0000 0.5000
O1_2 O 0.21308(14) 0.8042(4) 0.6638(6)
F1_2 F 0.34013(11) 0.5588(3) 0.7340(6)
F2_2 F 0.33923(11) 0.2654(3) 0.7272(6)
C9_2 C 0.20599(18) 0.4916(6) 0.7563(8)
C10_2 C 0.2059(2) 0.3372(6) 0.7605(9)
F3_2 F 0.15987(11) 0.5588(3) 0.7660(6)
F4_2 F 0.16077(11) 0.2654(3) 0.7728(6)
Co2_5 Co 0.78523(4) 0.0000 0.5000
C12_2 C 0.8913(2) 0.0719(8) 0.3572(11)
H4_2 H 0.8735 0.1233 0.2544
C15_2 C 0.9439(2) 0.0750(8) 0.3519(12)
H8_2 H 0.9606 0.1280 0.2479
C17_5 C 0.9713(3) 0.0000 0.5000
N2_5 N 0.8650(2) 0.0000 0.5000
Co2_6 Co 0.78523(4) 1.0000 0.5000
C13_2 C 0.8913(2) 0.9281(8) 0.6428(11)
H5_2 H 0.8735 0.8767 0.7456
C16_2 C 0.9439(2) 0.9250(8) 0.6481(12)
H7_2 H 0.9606 0.8720 0.7521
C17_6 C 0.9713(3) 1.0000 0.5000
N2_6 N 0.8650(2) 1.0000 0.5000
O4_2 O 0.71308(14) 0.1958(4) 0.1638(6)
O5 O 0.7500 0.1051(6) 0.7500
O6_2 O 0.7500 0.8949(6) 0.2500
C1_3 C 0.7500 0.7417(8) 0.7500
C2_3 C 0.7500 0.5731(9) 0.7500
C3_3 C 0.79401(18) 0.4916(6) 0.7563(8)
C4_3 C 0.7941(2) 0.3372(6) 0.7605(9)
C5_3 C 0.7500 0.2560(8) 0.7500
O1_3 O 0.71308(14) 0.8042(4) 0.8362(6)
F1_3 F 0.84013(11) 0.5588(3) 0.7660(6)
F2_3 F 0.83923(11) 0.2654(3) 0.7728(6)
C9_3 C 0.70599(18) 0.4916(6) 0.7437(8)
C10_3 C 0.7059(2) 0.3372(6) 0.7395(9)
O3_2 O 0.78692(14) 0.8042(4) 0.6638(6)
F3_3 F 0.65987(11) 0.5588(3) 0.7340(6)
F4_3 F 0.66077(11) 0.2654(3) 0.7272(6)
C1_4 C 0.7500 0.2583(8) 0.2500
C2_4 C 0.7500 0.4269(9) 0.2500
C3_4 C 0.70599(18) 0.5084(6) 0.2563(8)
C4_4 C 0.7059(2) 0.6628(6) 0.2605(9)
C5_4 C 0.7500 0.7440(8) 0.2500
O1_4 O 0.78692(14) 0.1958(4) 0.3362(6)
F1_4 F 0.65987(11) 0.4412(3) 0.2660(6)
F2_4 F 0.66077(11) 0.7346(3) 0.2728(6)
C9_4 C 0.79401(18) 0.5084(6) 0.2437(8)
C10_4 C 0.7941(2) 0.6628(6) 0.2395(9)
F3_4 F 0.84013(11) 0.4412(3) 0.2340(6)
F4_4 F 0.83923(11) 0.7346(3) 0.2272(6)
loop_
_geom_bond_atom_site_label_1
_geom_bond_atom_site_label_2
_geom_bond_site_symmetry_1
_geom_bond_site_symmetry_2
Co3 N1 1_555 1_555
C1 C2 1_555 1_555
C2 C3 1_555 1_555
C3 C4 1_555 1_555
C4 C5 1_555 1_555
C5 O2 1_555 1_555
C6 H1 1_555 1_555
C7 C6 1_555 1_555
H2 C7 1_555 1_555
C8 C7 1_555 1_555
N1 C6 1_555 1_555
O1 Co3 1_555 1_555
O2 Co3_3 1_555 1_555
F1 C3 1_555 1_555
F2 C4 1_555 1_555
Co2 N2 1_555 1_555
Co4_2 O2 1_555 1_555
Co4 O3 1_555 1_555
C9 C2 1_555 1_555
C10 C5 1_555 1_555
C13 H5 1_555 1_555
C16 C13 1_555 1_555
H7 C16 1_555 1_555
C17 C8 1_555 1_555
O3 C1 1_555 1_555
F3 C9 1_555 1_555
F4 C10 1_555 1_555
C1 O1 1_555 1_555
C9 C10 1_555 1_555
C13 N2 1_555 1_555
C16 C17 1_555 1_555
Co3_2 N1_2 1_555 1_555
Co2_2 N2_2 1_555 1_555
C17_2 C8_2 1_555 1_555
O6 Co3_2 1_555 1_555
Co3_3 N1_3 1_555 1_555
Co2_3 N2_3 1_555 1_555
C17_3 C8_3 1_555 1_555
Co3_4 N1_4 1_555 1_555
Co2_4 N2_4 1_555 1_555
C11 N1_4 1_555 1_555
C12 H4 1_555 1_555
H3 C11 1_555 1_555
C14 C8_4 1_555 1_555
C15 C12 1_555 1_555
H6 C14 1_555 1_555
H8 C15 1_555 1_555
C17_4 C8_4 1_555 1_555
N2_4 C12 1_555 1_555
O4 Co3_4 1_555 1_555
C11 C14 1_555 1_555
C15 C17_4 1_555 1_555
Co4 N1_5 1_555 1_555
C11_2 N1_5 1_555 1_555
H3_2 C11_2 1_555 1_555
C14_2 C8_5 1_555 1_555
H6_2 C14_2 1_555 1_555
O6 Co4 1_555 1_555
C11_2 C14_2 1_555 1_555
Co4_2 N1_6 1_555 1_555
C1_2 C2_2 1_555 1_555
C2_2 C3_2 1_555 1_555
C3_2 C4_2 1_555 1_555
C4_2 C5_2 1_555 1_555
C5_2 O6 1_555 1_555
C6_2 H1_2 1_555 1_555
C7_2 C6_2 1_555 1_555
H2_2 C7_2 1_555 1_555
C8_6 C7_2 1_555 1_555
N1_6 C6_2 1_555 1_555
O1_2 Co4_2 1_555 1_555
F1_2 C3_2 1_555 1_555
F2_2 C4_2 1_555 1_555
C9_2 C2_2 1_555 1_555
C10_2 C5_2 1_555 1_555
O4 C1_2 1_555 1_555
F3_2 C9_2 1_555 1_555
F4_2 C10_2 1_555 1_555
C1_2 O1_2 1_555 1_555
C9_2 C10_2 1_555 1_555
Co2_5 N2_5 1_555 1_555
C12_2 H4_2 1_555 1_555
C15_2 C12_2 1_555 1_555
H8_2 C15_2 1_555 1_555
N2_5 C12_2 1_555 1_555
C15_2 C17_5 1_555 1_555
Co2_6 N2_6 1_555 1_555
C13_2 H5_2 1_555 1_555
C16_2 C13_2 1_555 1_555
H7_2 C16_2 1_555 1_555
C13_2 N2_6 1_555 1_555
C16_2 C17_6 1_555 1_555
O4_2 Co2 1_555 1_555
O5 Co2_2 1_555 1_555
Co2_5 O5 1_555 1_555
O6_2 Co2_3 1_555 1_555
C1_3 C2_3 1_555 1_555
C2_3 C3_3 1_555 1_555
C3_3 C4_3 1_555 1_555
C4_3 C5_3 1_555 1_555
C5_3 O5 1_555 1_555
O1_3 Co2_4 1_555 1_555
F1_3 C3_3 1_555 1_555
F2_3 C4_3 1_555 1_555
Co2_6 O3_2 1_555 1_555
C9_3 C2_3 1_555 1_555
C10_3 C5_3 1_555 1_555
O3_2 C1_3 1_555 1_555
F3_3 C9_3 1_555 1_555
F4_3 C10_3 1_555 1_555
C1_3 O1_3 1_555 1_555
C9_3 C10_3 1_555 1_555
C1_4 C2_4 1_555 1_555
C2_4 C3_4 1_555 1_555
C3_4 C4_4 1_555 1_555
C4_4 C5_4 1_555 1_555
C5_4 O6_2 1_555 1_555
O1_4 Co2_5 1_555 1_555
O6_2 Co2_6 1_555 1_555
F1_4 C3_4 1_555 1_555
F2_4 C4_4 1_555 1_555
C9_4 C2_4 1_555 1_555
C10_4 C5_4 1_555 1_555
O4_2 C1_4 1_555 1_555
F3_4 C9_4 1_555 1_555
F4_4 C10_4 1_555 1_555
C1_4 O1_4 1_555 1_555
C9_4 C10_4 1_555 1_555

#END
