
###############################################################################
#
# This file contains modified crystal structure data generated from the
# MOF subset of the Cambridge Structural Database (CSD) v543 
# hosted by the Cambridge Crystallographic Data Centre (CCDC).
#
# This work is licensed under the Creative Commons
# Attribution-NonCommercial-ShareAlike 4.0 International License.
# To view a copy of this license, visit
# http://creativecommons.org/licenses/by-nc-sa/4.0/
# or send a letter to
# Creative Commons, PO Box 1866, Mountain View, CA 94042, USA.
#
# CIF created using the CSD Python API on 29 September 2022
# The structure has been converted into the P1 space group
# The structure has a 3D framework
# The original CSD entry RAFTOL is in the orthorhombic crystal system
# The framework has been calculated to contain at least 10.0% void space
# The void calculation uses a probe of radius 1.32A, grid spacing 0.4
#
###############################################################################

data_RAFTOL
_chemical_formula_moiety         '(C192 H94 O154 S40 Sc38)n'
_symmetry_cell_setting           triclinic
_symmetry_space_group_name_H-M   'P 1'
_symmetry_Int_Tables_number      1
_space_group_name_Hall           'P 1'
loop_
_symmetry_equiv_pos_site_id
_symmetry_equiv_pos_as_xyz
1 x,y,z
_cell_length_a                   21.9009(7)
_cell_length_b                   25.7997(9)
_cell_length_c                   22.4066(8)
_cell_angle_alpha                90
_cell_angle_beta                 90
_cell_angle_gamma                90
_cell_volume                     12660.6
loop_
_atom_site_label
_atom_site_type_symbol
_atom_site_fract_x
_atom_site_fract_y
_atom_site_fract_z
Sc14 Sc 0.01926(2) 0.86778(2) 0.24944(2)
Sc17 Sc 0.04706(2) 0.73813(2) 0.30383(2)
Sc24 Sc -0.000000 0.500000 0.19961(2)
Sc1 Sc 0.500000 0.500000 0.19876(2)
Sc2 Sc 0.48074(2) 0.36778(2) 0.24944(2)
Sc3 Sc 0.45294(2) 0.23813(2) 0.30383(2)
Sc4 Sc 0.41281(2) 0.11120(2) 0.24927(2)
Sc5 Sc 0.500000 0.000000 0.19961(2)
O1 O 0.51526(6) 0.44139(5) 0.25748(6)
H1 H 0.5413(8) 0.4461(8) 0.2867(7)
O2 O 0.44286(6) 0.29552(5) 0.24278(5)
H2 H 0.4162(8) 0.2922(8) 0.2137(7)
O3 O 0.46323(6) 0.17768(5) 0.24580(6)
H3 H 0.4729(10) 0.1897(8) 0.2111(6)
O4 O 0.48380(6) 0.06015(5) 0.25621(5)
H4 H 0.5117(7) 0.0640(8) 0.2838(7)
O5 O 0.50883(6) 0.44654(5) 0.12736(6)
O6 O 0.50285(7) 0.36437(5) 0.15725(6)
C1 C 0.50560(9) 0.39860(7) 0.11791(8)
C2 C 0.50513(9) 0.38219(7) 0.05470(8)
C3 C 0.49628(12) 0.33431(8) 0.03136(9)
H5 H 0.490681 0.304030 0.054858
S1 S 0.51348(3) 0.42816(2) 0.000000
O7 O 0.40388(6) 0.48372(5) 0.20064(6)
O8 O 0.39742(6) 0.40012(5) 0.22443(7)
O9 O 0.09418(6) 0.48107(5) 0.20260(6)
O10 O 0.14736(6) 0.54823(5) 0.23840(6)
C4 C 0.37469(8) 0.44351(7) 0.21314(8)
C5 C 0.30701(8) 0.44569(7) 0.21447(9)
C6 C 0.26788(9) 0.40459(8) 0.21327(11)
H6 H 0.280892 0.369480 0.212257
C7 C 0.20647(9) 0.41967(8) 0.21370(10)
H7 H 0.173168 0.396101 0.212325
C8 C 0.20014(8) 0.47207(8) 0.21633(9)
C9 C 0.14272(8) 0.50252(7) 0.21963(8)
S2 S 0.26890(2) 0.50339(2) 0.21739(2)
O11 O 0.46076(7) 0.37297(5) 0.34239(6)
O12 O 0.44489(7) 0.29230(5) 0.37423(6)
C10 C 0.45259(9) 0.33998(7) 0.38251(8)
C11 C 0.45268(11) 0.35694(8) 0.44544(8)
C12 C 0.46277(18) 0.40505(9) 0.46822(10)
H8 H 0.469067 0.435114 0.444524
S3 S 0.44340(3) 0.31168(3) 0.500000
O13 O 0.45873(7) 0.18292(5) 0.37385(6)
O14 O 0.40801(6) 0.11281(5) 0.34336(6)
C13 C 0.43021(9) 0.14137(7) 0.38271(8)
C14 C 0.42175(10) 0.12615(8) 0.44565(8)
C15 C 0.39111(11) 0.08418(8) 0.46855(9)
H9 H 0.372177 0.058239 0.444822
S4 S 0.45020(4) 0.16579(3) 0.500000
O15 O 0.35959(6) 0.22556(5) 0.30302(6)
O16 O 0.33016(6) 0.15542(5) 0.25191(6)
O17 O 0.06395(6) 0.16828(5) 0.27074(7)
O18 O 0.04689(6) 0.24880(5) 0.30366(7)
C16 C 0.32029(8) 0.19766(8) 0.27735(9)
C17 C 0.25705(8) 0.21680(8) 0.28023(10)
C18 C 0.23864(10) 0.26524(9) 0.29481(12)
H10 H 0.265789 0.293183 0.302423
C19 C 0.17488(10) 0.26943(9) 0.29739(12)
H11 H 0.153807 0.300632 0.306492
C20 C 0.14664(9) 0.22354(8) 0.28533(10)
C21 C 0.08110(8) 0.21292(8) 0.28634(9)
S5 S 0.19740(2) 0.17558(2) 0.26915(3)
O19 O 0.41644(7) 0.11289(6) 0.15545(6)
O20 O 0.48160(6) 0.05088(5) 0.12739(6)
C22 C 0.44666(9) 0.08855(7) 0.11710(8)
C23 C 0.43997(10) 0.10417(8) 0.05430(8)
C24 C 0.40665(13) 0.14409(10) 0.03144(9)
H12 H 0.385846 0.169014 0.055127
S6 S 0.47185(3) 0.06663(3) 0.000000
O23 O 0.46076(7) 0.37297(5) 0.65761(6)
O24 O 0.44489(7) 0.29230(5) 0.62577(6)
C28 C 0.45259(9) 0.33998(7) 0.61749(8)
C29 C 0.45268(11) 0.35694(8) 0.55456(8)
C30 C 0.46277(18) 0.40505(9) 0.53178(10)
H14 H 0.469067 0.435114 0.555476
O25 O 0.45873(7) 0.18292(5) 0.62615(6)
O26 O 0.40801(6) 0.11281(5) 0.65664(6)
C31 C 0.43021(9) 0.14137(7) 0.61729(8)
C32 C 0.42175(10) 0.12615(8) 0.55435(8)
C33 C 0.39111(11) 0.08418(8) 0.53145(9)
H15 H 0.372177 0.058239 0.555178
Sc12 Sc 0.48074(2) 0.36778(2) 0.75056(2)
Sc15 Sc 0.45294(2) 0.23813(2) 0.69617(2)
Sc19 Sc 0.41281(2) 0.11120(2) 0.75073(2)
Sc21 Sc 0.08719(2) 0.61120(2) 0.24927(2)
O41 O 0.48474(6) 0.55861(5) 0.25748(6)
O42 O 0.49117(6) 0.55346(5) 0.12736(6)
O44 O 0.59612(6) 0.51628(5) 0.20064(6)
O45 O 0.59418(6) 0.01893(5) 0.20260(6)
O48 O 0.35264(6) 0.04823(5) 0.23840(6)
O53 O 0.56395(6) 0.33172(5) 0.27074(7)
O55 O 0.54689(6) 0.25120(5) 0.30366(7)
S1_2 S 0.51348(3) 0.42816(2) 1.000000
S6_2 S 0.47185(3) 0.06663(3) 1.000000
O21 O 0.50883(6) 0.44654(5) 0.87264(6)
O22 O 0.50285(7) 0.36437(5) 0.84275(6)
C25 C 0.50560(9) 0.39860(7) 0.88209(8)
C26 C 0.50513(9) 0.38219(7) 0.94530(8)
C27 C 0.49628(12) 0.33431(8) 0.96864(9)
H13 H 0.490681 0.304030 0.945142
O27 O 0.41644(7) 0.11289(6) 0.84455(6)
O28 O 0.48160(6) 0.05088(5) 0.87261(6)
C34 C 0.44666(9) 0.08855(7) 0.88290(8)
C35 C 0.43997(10) 0.10417(8) 0.94570(8)
C36 C 0.40665(13) 0.14409(10) 0.96856(9)
H16 H 0.385846 0.169014 0.944873
Sc10 Sc 0.500000 0.500000 0.80124(2)
Sc22 Sc 0.500000 -0.000000 0.80039(2)
Sc5_2 Sc 0.500000 1.000000 0.19961(2)
Sc6 Sc 0.51926(2) 0.63222(2) 0.24944(2)
Sc7 Sc 0.54706(2) 0.76187(2) 0.30383(2)
Sc8 Sc 0.58719(2) 0.88880(2) 0.24927(2)
H17 H 0.4587(8) 0.5539(8) 0.2867(7)
O30 O 0.55714(6) 0.70448(5) 0.24278(5)
H18 H 0.5838(8) 0.7078(8) 0.2137(7)
O31 O 0.53677(6) 0.82232(5) 0.24580(6)
H19 H 0.5271(10) 0.8103(8) 0.2111(6)
O32 O 0.51620(6) 0.93985(5) 0.25621(5)
H20 H 0.4883(7) 0.9360(8) 0.2838(7)
O34 O 0.60258(6) 0.59988(5) 0.22443(7)
O35 O 0.90582(6) 0.51893(5) 0.20260(6)
O36 O 0.85264(6) 0.45177(5) 0.23840(6)
C37 C 0.62531(8) 0.55649(7) 0.21314(8)
C38 C 0.69299(8) 0.55431(7) 0.21447(9)
C39 C 0.73212(9) 0.59541(8) 0.21327(11)
H21 H 0.719108 0.630520 0.212257
C40 C 0.79353(9) 0.58033(8) 0.21370(10)
H22 H 0.826832 0.603899 0.212325
C41 C 0.79986(8) 0.52793(8) 0.21633(9)
C42 C 0.85728(8) 0.49748(7) 0.21963(8)
S7 S 0.73110(2) 0.49661(2) 0.21739(2)
O37 O 0.64041(6) 0.77444(5) 0.30302(6)
O38 O 0.66984(6) 0.84458(5) 0.25191(6)
O39 O 0.93605(6) 0.83172(5) 0.27074(7)
O40 O 0.95311(6) 0.75120(5) 0.30366(7)
C43 C 0.67971(8) 0.80234(8) 0.27735(9)
C44 C 0.74295(8) 0.78320(8) 0.28023(10)
C45 C 0.76136(10) 0.73476(9) 0.29481(12)
H23 H 0.734211 0.706817 0.302423
C46 C 0.82512(10) 0.73057(9) 0.29739(12)
H24 H 0.846193 0.699368 0.306492
C47 C 0.85336(9) 0.77646(8) 0.28533(10)
C48 C 0.91890(8) 0.78708(8) 0.28634(9)
S8 S 0.80260(2) 0.82442(2) 0.26915(3)
Sc20 Sc 0.91281(2) 0.38880(2) 0.24927(2)
Sc24_2 Sc 1.000000 0.500000 0.19961(2)
O43 O 0.49715(7) 0.63563(5) 0.15725(6)
O46 O 0.40582(6) 0.98107(5) 0.20260(6)
O47 O 0.64736(6) 0.95177(5) 0.23840(6)
O49 O 0.53924(7) 0.62703(5) 0.34239(6)
O50 O 0.55511(7) 0.70770(5) 0.37423(6)
O51 O 0.54127(7) 0.81708(5) 0.37385(6)
O52 O 0.59199(6) 0.88719(5) 0.34336(6)
O54 O 0.43605(6) 0.66828(5) 0.27074(7)
O56 O 0.45311(6) 0.74880(5) 0.30366(7)
O57 O 0.58356(7) 0.88711(6) 0.15545(6)
O58 O 0.51840(6) 0.94912(5) 0.12739(6)
Sc22_2 Sc 0.500000 1.000000 0.80039(2)
Sc13 Sc 0.98074(2) 0.13222(2) 0.24944(2)
Sc16 Sc 0.95294(2) 0.26187(2) 0.30383(2)
C1_2 C 0.49440(9) 0.60140(7) 0.11791(8)
C2_2 C 0.49487(9) 0.61781(7) 0.05470(8)
C3_2 C 0.50372(12) 0.66569(8) 0.03136(9)
H5_2 H 0.509319 0.695970 0.054858
S1_3 S 0.48652(3) 0.57184(2) 0.000000
C10_2 C 0.54741(9) 0.66002(7) 0.38251(8)
C11_2 C 0.54732(11) 0.64306(8) 0.44544(8)
C12_2 C 0.53723(18) 0.59495(9) 0.46822(10)
H8_2 H 0.530933 0.564886 0.444524
S3_2 S 0.55660(3) 0.68832(3) 0.500000
C13_2 C 0.56979(9) 0.85863(7) 0.38271(8)
C14_2 C 0.57825(10) 0.87385(8) 0.44565(8)
C15_2 C 0.60889(11) 0.91582(8) 0.46855(9)
H9_2 H 0.627823 0.941761 0.444822
S4_2 S 0.54980(4) 0.83421(3) 0.500000
C22_2 C 0.55334(9) 0.91145(7) 0.11710(8)
C23_2 C 0.56003(10) 0.89583(8) 0.05430(8)
C24_2 C 0.59335(13) 0.85591(10) 0.03144(9)
H12_2 H 0.614154 0.830986 0.055127
S6_3 S 0.52815(3) 0.93337(3) 0.000000
O23_2 O 0.53924(7) 0.62703(5) 0.65761(6)
O24_2 O 0.55511(7) 0.70770(5) 0.62577(6)
C28_2 C 0.54741(9) 0.66002(7) 0.61749(8)
C29_2 C 0.54732(11) 0.64306(8) 0.55456(8)
C30_2 C 0.53723(18) 0.59495(9) 0.53178(10)
H14_2 H 0.530933 0.564886 0.555476
O25_2 O 0.54127(7) 0.81708(5) 0.62615(6)
O26_2 O 0.59199(6) 0.88719(5) 0.65664(6)
C31_2 C 0.56979(9) 0.85863(7) 0.61729(8)
C32_2 C 0.57825(10) 0.87385(8) 0.55435(8)
C33_2 C 0.60889(11) 0.91582(8) 0.53145(9)
H15_2 H 0.627823 0.941761 0.555178
Sc12_2 Sc 0.51926(2) 0.63222(2) 0.75056(2)
Sc15_2 Sc 0.54706(2) 0.76187(2) 0.69617(2)
Sc19_2 Sc 0.58719(2) 0.88880(2) 0.75073(2)
S1_4 S 0.48652(3) 0.57184(2) 1.000000
S6_4 S 0.52815(3) 0.93337(3) 1.000000
O21_2 O 0.49117(6) 0.55346(5) 0.87264(6)
O22_2 O 0.49715(7) 0.63563(5) 0.84275(6)
C25_2 C 0.49440(9) 0.60140(7) 0.88209(8)
C26_2 C 0.49487(9) 0.61781(7) 0.94530(8)
C27_2 C 0.50372(12) 0.66569(8) 0.96864(9)
H13_2 H 0.509319 0.695970 0.945142
O27_2 O 0.58356(7) 0.88711(6) 0.84455(6)
O28_2 O 0.51840(6) 0.94912(5) 0.87261(6)
C34_2 C 0.55334(9) 0.91145(7) 0.88290(8)
C35_2 C 0.56003(10) 0.89583(8) 0.94570(8)
C36_2 C 0.59335(13) 0.85591(10) 0.96856(9)
H16_2 H 0.614154 0.830986 0.944873
Sc10_2 Sc 0.000000 0.000000 0.19876(2)
Sc1_2 Sc 0.000000 -0.000000 0.80124(2)
O10_2 O 0.35264(6) 0.04823(5) 0.76160(6)
C9_2 C 0.35728(8) 0.00252(7) 0.78037(8)
S2_2 S 0.23110(2) 0.00339(2) 0.78261(2)
O41_2 O 0.01526(6) 0.05861(5) 0.74252(6)
O42_2 O 0.00883(6) 0.05346(5) 0.87264(6)
S6_5 S 0.02815(3) 0.56663(3) 0.000000
C27_3 C 0.00372(12) 0.83431(8) 0.03136(9)
H13_3 H 0.009319 0.804030 0.054858
O27_3 O 0.08356(7) 0.61289(6) 0.15545(6)
O28_3 O 0.01840(6) 0.55088(5) 0.12739(6)
C34_3 C 0.05334(9) 0.58855(7) 0.11710(8)
C35_3 C 0.06003(10) 0.60417(8) 0.05430(8)
C36_3 C 0.09335(13) 0.64409(10) 0.03144(9)
H16_3 H 0.114154 0.669014 0.055127
Sc10_3 Sc 0.000000 1.000000 0.19876(2)
Sc1_3 Sc 0.000000 1.000000 0.80124(2)
Sc2_2 Sc 0.01926(2) 0.86778(2) 0.75056(2)
Sc3_2 Sc 0.04706(2) 0.73813(2) 0.69617(2)
Sc4_2 Sc 0.08719(2) 0.61120(2) 0.75073(2)
Sc5_3 Sc 0.000000 0.500000 0.80039(2)
O2_2 O 0.05714(6) 0.79552(5) 0.75722(5)
H2_2 H 0.0838(8) 0.7922(8) 0.7863(7)
O3_2 O 0.03677(6) 0.67768(5) 0.75420(6)
H3_2 H 0.0271(10) 0.6897(8) 0.7889(6)
O4_2 O 0.01620(6) 0.56015(5) 0.74379(5)
C3_3 C 0.00372(12) 0.83431(8) 0.96864(9)
H5_3 H 0.009319 0.804030 0.945142
O7_2 O 0.09612(6) 0.98372(5) 0.79936(6)
O8_2 O 0.10258(6) 0.90012(5) 0.77557(7)
O9_2 O 0.40582(6) 0.98107(5) 0.79740(6)
C4_2 C 0.12531(8) 0.94351(7) 0.78686(8)
C5_2 C 0.19299(8) 0.94569(7) 0.78553(9)
C6_2 C 0.23212(9) 0.90459(8) 0.78673(11)
H6_2 H 0.219108 0.869480 0.787743
C7_2 C 0.29353(9) 0.91967(8) 0.78630(10)
H7_2 H 0.326832 0.896101 0.787675
C8_2 C 0.29986(8) 0.97207(8) 0.78367(9)
O11_2 O 0.03924(7) 0.87297(5) 0.65761(6)
O12_2 O 0.05511(7) 0.79230(5) 0.62577(6)
C10_3 C 0.04741(9) 0.83998(7) 0.61749(8)
C11_3 C 0.04732(11) 0.85694(8) 0.55456(8)
C12_3 C 0.03723(18) 0.90505(9) 0.53178(10)
H8_3 H 0.030933 0.935114 0.555476
S3_3 S 0.05660(3) 0.81168(3) 0.500000
O13_2 O 0.04127(7) 0.68292(5) 0.62615(6)
O14_2 O 0.09199(6) 0.61281(5) 0.65664(6)
C13_3 C 0.06979(9) 0.64137(7) 0.61729(8)
C14_3 C 0.07825(10) 0.62615(8) 0.55435(8)
C15_3 C 0.10889(11) 0.58418(8) 0.53145(9)
H9_3 H 0.127823 0.558239 0.555178
S4_3 S 0.04980(4) 0.66579(3) 0.500000
O15_2 O 0.14041(6) 0.72556(5) 0.69698(6)
O16_2 O 0.16984(6) 0.65542(5) 0.74809(6)
O17_2 O 0.43605(6) 0.66828(5) 0.72926(7)
O18_2 O 0.45311(6) 0.74880(5) 0.69634(7)
C16_2 C 0.17971(8) 0.69766(8) 0.72265(9)
C17_2 C 0.24295(8) 0.71680(8) 0.71977(10)
C18_2 C 0.26136(10) 0.76524(9) 0.70519(12)
H10_2 H 0.234211 0.793183 0.697577
C19_2 C 0.32512(10) 0.76943(9) 0.70261(12)
H11_2 H 0.346193 0.800632 0.693508
C20_2 C 0.35336(9) 0.72354(8) 0.71467(10)
C21_2 C 0.41890(8) 0.71292(8) 0.71366(9)
S5_2 S 0.30260(2) 0.67558(2) 0.73085(3)
O19_2 O 0.08356(7) 0.61289(6) 0.84455(6)
O20_2 O 0.01840(6) 0.55088(5) 0.87261(6)
C22_3 C 0.05334(9) 0.58855(7) 0.88290(8)
C23_3 C 0.06003(10) 0.60417(8) 0.94570(8)
C24_3 C 0.09335(13) 0.64409(10) 0.96856(9)
H12_3 H 0.114154 0.669014 0.944873
S6_6 S 0.02815(3) 0.56663(3) 1.000000
O23_3 O 0.03924(7) 0.87297(5) 0.34239(6)
O24_3 O 0.05511(7) 0.79230(5) 0.37423(6)
C28_3 C 0.04741(9) 0.83998(7) 0.38251(8)
C29_3 C 0.04732(11) 0.85694(8) 0.44544(8)
C30_3 C 0.03723(18) 0.90505(9) 0.46822(10)
H14_3 H 0.030933 0.935114 0.444524
O25_3 O 0.04127(7) 0.68292(5) 0.37385(6)
O26_3 O 0.09199(6) 0.61281(5) 0.34336(6)
C31_3 C 0.06979(9) 0.64137(7) 0.38271(8)
C32_3 C 0.07825(10) 0.62615(8) 0.44565(8)
C33_3 C 0.10889(11) 0.58418(8) 0.46855(9)
H15_3 H 0.127823 0.558239 0.444822
H17_2 H 0.0413(8) 0.0539(8) 0.7133(7)
H20_2 H 0.0117(7) 0.4360(8) 0.7162(7)
O43_2 O 0.00285(7) 0.13563(5) 0.84275(6)
O46_2 O 0.09418(6) 0.48107(5) 0.79740(6)
O48_2 O 0.14736(6) 0.54823(5) 0.76160(6)
O54_2 O 0.06395(6) 0.16828(5) 0.72926(7)
O56_2 O 0.04689(6) 0.24880(5) 0.69634(7)
Sc10_4 Sc 1.000000 0.000000 0.19876(2)
Sc1_4 Sc 1.000000 -0.000000 0.80124(2)
O44_2 O 0.90388(6) 0.01628(5) 0.79936(6)
S1_5 S 0.98652(3) 0.92816(2) 0.000000
O21_3 O 0.99117(6) 0.94654(5) 0.12736(6)
O22_3 O 0.99715(7) 0.86437(5) 0.15725(6)
C25_3 C 0.99440(9) 0.89860(7) 0.11791(8)
C26_3 C 0.99487(9) 0.88219(7) 0.05470(8)
Sc10_5 Sc 1.000000 1.000000 0.19876(2)
Sc1_5 Sc 1.000000 1.000000 0.80124(2)
Sc5_4 Sc 1.000000 0.500000 0.80039(2)
O1_2 O 0.98474(6) 0.94139(5) 0.74252(6)
H1_2 H 0.9587(8) 0.9461(8) 0.7133(7)
H4_2 H 0.9883(7) 0.5640(8) 0.7162(7)
O5_2 O 0.99117(6) 0.94654(5) 0.87264(6)
O6_2 O 0.99715(7) 0.86437(5) 0.84275(6)
C1_3 C 0.99440(9) 0.89860(7) 0.88209(8)
C2_3 C 0.99487(9) 0.88219(7) 0.94530(8)
S1_6 S 0.98652(3) 0.92816(2) 1.000000
Sc6_2 Sc 0.98074(2) 0.13222(2) 0.75056(2)
Sc7_2 Sc 0.95294(2) 0.26187(2) 0.69617(2)
Sc8_2 Sc 0.91281(2) 0.38880(2) 0.75073(2)
O30_2 O 0.94286(6) 0.20448(5) 0.75722(5)
H18_2 H 0.9162(8) 0.2078(8) 0.7863(7)
O31_2 O 0.96323(6) 0.32232(5) 0.75420(6)
H19_2 H 0.9729(10) 0.3103(8) 0.7889(6)
O32_2 O 0.98380(6) 0.43985(5) 0.74379(5)
O34_2 O 0.89742(6) 0.09988(5) 0.77557(7)
O35_2 O 0.59418(6) 0.01893(5) 0.79740(6)
C37_2 C 0.87469(8) 0.05649(7) 0.78686(8)
C38_2 C 0.80701(8) 0.05431(7) 0.78553(9)
C39_2 C 0.76788(9) 0.09541(8) 0.78673(11)
H21_2 H 0.780892 0.130520 0.787743
C40_2 C 0.70647(9) 0.08033(8) 0.78630(10)
H22_2 H 0.673168 0.103899 0.787675
C41_2 C 0.70014(8) 0.02793(8) 0.78367(9)
O37_2 O 0.85959(6) 0.27444(5) 0.69698(6)
O38_2 O 0.83016(6) 0.34458(5) 0.74809(6)
O39_2 O 0.56395(6) 0.33172(5) 0.72926(7)
O40_2 O 0.54689(6) 0.25120(5) 0.69634(7)
C43_2 C 0.82029(8) 0.30234(8) 0.72265(9)
C44_2 C 0.75705(8) 0.28320(8) 0.71977(10)
C45_2 C 0.73864(10) 0.23476(9) 0.70519(12)
H23_2 H 0.765789 0.206817 0.697577
C46_2 C 0.67488(10) 0.23057(9) 0.70261(12)
H24_2 H 0.653807 0.199368 0.693508
C47_2 C 0.64664(9) 0.27646(8) 0.71467(10)
C48_2 C 0.58110(8) 0.28708(8) 0.71366(9)
S8_2 S 0.69740(2) 0.32442(2) 0.73085(3)
O45_2 O 0.90582(6) 0.51893(5) 0.79740(6)
O47_2 O 0.85264(6) 0.45177(5) 0.76160(6)
O49_2 O 0.96076(7) 0.12703(5) 0.65761(6)
O50_2 O 0.94489(7) 0.20770(5) 0.62577(6)
O51_2 O 0.95873(7) 0.31708(5) 0.62615(6)
O52_2 O 0.90801(6) 0.38719(5) 0.65664(6)
O53_2 O 0.93605(6) 0.83172(5) 0.72926(7)
O55_2 O 0.95311(6) 0.75120(5) 0.69634(7)
O57_2 O 0.91644(7) 0.38711(6) 0.84455(6)
O58_2 O 0.98160(6) 0.44912(5) 0.87261(6)
O36_2 O 0.64736(6) 0.95177(5) 0.76160(6)
C42_2 C 0.64272(8) 0.99748(7) 0.78037(8)
S7_2 S 0.76890(2) 0.99661(2) 0.78261(2)
S1_7 S 0.01348(3) 0.07184(2) 0.000000
O21_4 O 0.00883(6) 0.05346(5) 0.12736(6)
O22_4 O 0.00285(7) 0.13563(5) 0.15725(6)
C25_4 C 0.00560(9) 0.10140(7) 0.11791(8)
C26_4 C 0.00513(9) 0.11781(7) 0.05470(8)
C1_4 C 0.00560(9) 0.10140(7) 0.88209(8)
C2_4 C 0.00513(9) 0.11781(7) 0.94530(8)
S1_8 S 0.01348(3) 0.07184(2) 1.000000
S6_7 S 0.97185(3) 0.43337(3) 0.000000
C27_4 C 0.99628(12) 0.16569(8) 0.03136(9)
H13_4 H 0.990681 0.195970 0.054858
O27_4 O 0.91644(7) 0.38711(6) 0.15545(6)
O28_4 O 0.98160(6) 0.44912(5) 0.12739(6)
C34_4 C 0.94666(9) 0.41145(7) 0.11710(8)
C35_4 C 0.93997(10) 0.39583(8) 0.05430(8)
C36_4 C 0.90665(13) 0.35591(10) 0.03144(9)
H16_4 H 0.885846 0.330986 0.055127
C3_4 C 0.99628(12) 0.16569(8) 0.96864(9)
H5_4 H 0.990681 0.195970 0.945142
C10_4 C 0.95259(9) 0.16002(7) 0.61749(8)
C11_4 C 0.95268(11) 0.14306(8) 0.55456(8)
C12_4 C 0.96277(18) 0.09495(9) 0.53178(10)
H8_4 H 0.969067 0.064886 0.555476
S3_4 S 0.94340(3) 0.18832(3) 0.500000
C13_4 C 0.93021(9) 0.35863(7) 0.61729(8)
C14_4 C 0.92175(10) 0.37385(8) 0.55435(8)
C15_4 C 0.89111(11) 0.41582(8) 0.53145(9)
H9_4 H 0.872177 0.441761 0.555178
S4_4 S 0.95020(4) 0.33421(3) 0.500000
C22_4 C 0.94666(9) 0.41145(7) 0.88290(8)
C23_4 C 0.93997(10) 0.39583(8) 0.94570(8)
C24_4 C 0.90665(13) 0.35591(10) 0.96856(9)
H12_4 H 0.885846 0.330986 0.944873
S6_8 S 0.97185(3) 0.43337(3) 1.000000
O23_4 O 0.96076(7) 0.12703(5) 0.34239(6)
O24_4 O 0.94489(7) 0.20770(5) 0.37423(6)
C28_4 C 0.95259(9) 0.16002(7) 0.38251(8)
C29_4 C 0.95268(11) 0.14306(8) 0.44544(8)
C30_4 C 0.96277(18) 0.09495(9) 0.46822(10)
H14_4 H 0.969067 0.064886 0.444524
O25_4 O 0.95873(7) 0.31708(5) 0.37385(6)
O26_4 O 0.90801(6) 0.38719(5) 0.34336(6)
C31_4 C 0.93021(9) 0.35863(7) 0.38271(8)
C32_4 C 0.92175(10) 0.37385(8) 0.44565(8)
C33_4 C 0.89111(11) 0.41582(8) 0.46855(9)
H15_4 H 0.872177 0.441761 0.444822
O29 O 0.51526(6) 0.44139(5) 0.74252(6)
H17_3 H 0.5413(8) 0.4461(8) 0.7133(7)
O30_3 O 0.44286(6) 0.29552(5) 0.75722(5)
H18_3 H 0.4162(8) 0.2922(8) 0.7863(7)
O31_3 O 0.46323(6) 0.17768(5) 0.75420(6)
H19_3 H 0.4729(10) 0.1897(8) 0.7889(6)
O32_3 O 0.48380(6) 0.06015(5) 0.74379(5)
H20_3 H 0.5117(7) 0.0640(8) 0.7162(7)
O33 O 0.40388(6) 0.48372(5) 0.79936(6)
O34_3 O 0.39742(6) 0.40012(5) 0.77557(7)
C37_3 C 0.37469(8) 0.44351(7) 0.78686(8)
C38_3 C 0.30701(8) 0.44569(7) 0.78553(9)
C39_3 C 0.26788(9) 0.40459(8) 0.78673(11)
H21_3 H 0.280892 0.369480 0.787743
C40_3 C 0.20647(9) 0.41967(8) 0.78630(10)
H22_3 H 0.173168 0.396101 0.787675
C41_3 C 0.20014(8) 0.47207(8) 0.78367(9)
C42_3 C 0.14272(8) 0.50252(7) 0.78037(8)
S7_3 S 0.26890(2) 0.50339(2) 0.78261(2)
O37_3 O 0.35959(6) 0.22556(5) 0.69698(6)
O38_3 O 0.33016(6) 0.15542(5) 0.74809(6)
C43_3 C 0.32029(8) 0.19766(8) 0.72265(9)
C44_3 C 0.25705(8) 0.21680(8) 0.71977(10)
C45_3 C 0.23864(10) 0.26524(9) 0.70519(12)
H23_3 H 0.265789 0.293183 0.697577
C46_3 C 0.17488(10) 0.26943(9) 0.70261(12)
H24_3 H 0.153807 0.300632 0.693508
C47_3 C 0.14664(9) 0.22354(8) 0.71467(10)
C48_3 C 0.08110(8) 0.21292(8) 0.71366(9)
S8_3 S 0.19740(2) 0.17558(2) 0.73085(3)
O1_3 O 0.48474(6) 0.55861(5) 0.74252(6)
H1_3 H 0.4587(8) 0.5539(8) 0.7133(7)
O2_3 O 0.55714(6) 0.70448(5) 0.75722(5)
H2_3 H 0.5838(8) 0.7078(8) 0.7863(7)
O3_3 O 0.53677(6) 0.82232(5) 0.75420(6)
H3_3 H 0.5271(10) 0.8103(8) 0.7889(6)
O4_3 O 0.51620(6) 0.93985(5) 0.74379(5)
H4_3 H 0.4883(7) 0.9360(8) 0.7162(7)
O7_3 O 0.59612(6) 0.51628(5) 0.79936(6)
O8_3 O 0.60258(6) 0.59988(5) 0.77557(7)
C4_3 C 0.62531(8) 0.55649(7) 0.78686(8)
C5_3 C 0.69299(8) 0.55431(7) 0.78553(9)
C6_3 C 0.73212(9) 0.59541(8) 0.78673(11)
H6_3 H 0.719108 0.630520 0.787743
C7_3 C 0.79353(9) 0.58033(8) 0.78630(10)
H7_3 H 0.826832 0.603899 0.787675
C8_3 C 0.79986(8) 0.52793(8) 0.78367(9)
C9_3 C 0.85728(8) 0.49748(7) 0.78037(8)
S2_3 S 0.73110(2) 0.49661(2) 0.78261(2)
O15_3 O 0.64041(6) 0.77444(5) 0.69698(6)
O16_3 O 0.66984(6) 0.84458(5) 0.74809(6)
C16_3 C 0.67971(8) 0.80234(8) 0.72265(9)
C17_3 C 0.74295(8) 0.78320(8) 0.71977(10)
C18_3 C 0.76136(10) 0.73476(9) 0.70519(12)
H10_3 H 0.734211 0.706817 0.697577
C19_3 C 0.82512(10) 0.73057(9) 0.70261(12)
H11_3 H 0.846193 0.699368 0.693508
C20_3 C 0.85336(9) 0.77646(8) 0.71467(10)
C21_3 C 0.91890(8) 0.78708(8) 0.71366(9)
S5_3 S 0.80260(2) 0.82442(2) 0.73085(3)
C42_4 C 0.35728(8) 0.00252(7) 0.21963(8)
S7_4 S 0.23110(2) 0.00339(2) 0.21739(2)
O1_4 O 0.01526(6) 0.05861(5) 0.25748(6)
H1_4 H 0.0413(8) 0.0539(8) 0.2867(7)
H4_4 H 0.0117(7) 0.4360(8) 0.2838(7)
O30_4 O 0.05714(6) 0.79552(5) 0.24278(5)
H18_4 H 0.0838(8) 0.7922(8) 0.2137(7)
O31_4 O 0.03677(6) 0.67768(5) 0.24580(6)
H19_4 H 0.0271(10) 0.6897(8) 0.2111(6)
O32_4 O 0.01620(6) 0.56015(5) 0.25621(5)
O33_2 O 0.09612(6) 0.98372(5) 0.20064(6)
O34_4 O 0.10258(6) 0.90012(5) 0.22443(7)
C37_4 C 0.12531(8) 0.94351(7) 0.21314(8)
C38_4 C 0.19299(8) 0.94569(7) 0.21447(9)
C39_4 C 0.23212(9) 0.90459(8) 0.21327(11)
H21_4 H 0.219108 0.869480 0.212257
C40_4 C 0.29353(9) 0.91967(8) 0.21370(10)
H22_4 H 0.326832 0.896101 0.212325
C41_4 C 0.29986(8) 0.97207(8) 0.21633(9)
O37_4 O 0.14041(6) 0.72556(5) 0.30302(6)
O38_4 O 0.16984(6) 0.65542(5) 0.25191(6)
C43_4 C 0.17971(8) 0.69766(8) 0.27735(9)
C44_4 C 0.24295(8) 0.71680(8) 0.28023(10)
C45_4 C 0.26136(10) 0.76524(9) 0.29481(12)
H23_4 H 0.234211 0.793183 0.302423
C46_4 C 0.32512(10) 0.76943(9) 0.29739(12)
H24_4 H 0.346193 0.800632 0.306492
C47_4 C 0.35336(9) 0.72354(8) 0.28533(10)
C48_4 C 0.41890(8) 0.71292(8) 0.28634(9)
S8_4 S 0.30260(2) 0.67558(2) 0.26915(3)
O2_4 O 0.94286(6) 0.20448(5) 0.24278(5)
H2_4 H 0.9162(8) 0.2078(8) 0.2137(7)
O3_4 O 0.96323(6) 0.32232(5) 0.24580(6)
H3_4 H 0.9729(10) 0.3103(8) 0.2111(6)
O4_4 O 0.98380(6) 0.43985(5) 0.25621(5)
O7_4 O 0.90388(6) 0.01628(5) 0.20064(6)
O8_4 O 0.89742(6) 0.09988(5) 0.22443(7)
C4_4 C 0.87469(8) 0.05649(7) 0.21314(8)
C5_4 C 0.80701(8) 0.05431(7) 0.21447(9)
C6_4 C 0.76788(9) 0.09541(8) 0.21327(11)
H6_4 H 0.780892 0.130520 0.212257
C7_4 C 0.70647(9) 0.08033(8) 0.21370(10)
H7_4 H 0.673168 0.103899 0.212325
C8_4 C 0.70014(8) 0.02793(8) 0.21633(9)
O15_4 O 0.85959(6) 0.27444(5) 0.30302(6)
O16_4 O 0.83016(6) 0.34458(5) 0.25191(6)
C16_4 C 0.82029(8) 0.30234(8) 0.27735(9)
C17_4 C 0.75705(8) 0.28320(8) 0.28023(10)
C18_4 C 0.73864(10) 0.23476(9) 0.29481(12)
H10_4 H 0.765789 0.206817 0.302423
C19_4 C 0.67488(10) 0.23057(9) 0.29739(12)
H11_4 H 0.653807 0.199368 0.306492
C20_4 C 0.64664(9) 0.27646(8) 0.28533(10)
C21_4 C 0.58110(8) 0.28708(8) 0.28634(9)
S5_4 S 0.69740(2) 0.32442(2) 0.26915(3)
O29_2 O 0.98474(6) 0.94139(5) 0.25748(6)
H17_4 H 0.9587(8) 0.9461(8) 0.2867(7)
H20_4 H 0.9883(7) 0.5640(8) 0.2838(7)
C9_4 C 0.64272(8) 0.99748(7) 0.21963(8)
S2_4 S 0.76890(2) 0.99661(2) 0.21739(2)
loop_
_geom_bond_atom_site_label_1
_geom_bond_atom_site_label_2
_geom_bond_site_symmetry_1
_geom_bond_site_symmetry_2
Sc1 O1 1_555 1_555
Sc2 O1 1_555 1_555
Sc3 O2 1_555 1_555
Sc4 O3 1_555 1_555
Sc5 O4 1_555 1_555
O1 H1 1_555 1_555
O2 Sc2 1_555 1_555
H2 O2 1_555 1_555
O3 Sc3 1_555 1_555
H3 O3 1_555 1_555
O4 Sc4 1_555 1_555
H4 O4 1_555 1_555
O5 Sc1 1_555 1_555
O6 Sc2 1_555 1_555
C1 O5 1_555 1_555
C2 C1 1_555 1_555
C3 C2 1_555 1_555
H5 C3 1_555 1_555
S1 C2 1_555 1_555
O7 Sc1 1_555 1_555
O8 Sc2 1_555 1_555
O9 C9 1_555 1_555
O10 C9 1_555 1_555
C4 O7 1_555 1_555
C5 C4 1_555 1_555
C6 C5 1_555 1_555
H6 C6 1_555 1_555
C7 C6 1_555 1_555
H7 C7 1_555 1_555
C8 C7 1_555 1_555
C9 C8 1_555 1_555
S2 C5 1_555 1_555
O11 Sc2 1_555 1_555
O12 Sc3 1_555 1_555
C10 O11 1_555 1_555
C11 C10 1_555 1_555
C12 C11 1_555 1_555
H8 C12 1_555 1_555
S3 C11 1_555 1_555
O13 Sc3 1_555 1_555
O14 Sc4 1_555 1_555
C13 O13 1_555 1_555
C14 C13 1_555 1_555
C15 C14 1_555 1_555
H9 C15 1_555 1_555
S4 C14 1_555 1_555
O15 Sc3 1_555 1_555
O16 Sc4 1_555 1_555
O17 C21 1_555 1_555
O18 C21 1_555 1_555
C16 O15 1_555 1_555
C17 C16 1_555 1_555
C18 C17 1_555 1_555
H10 C18 1_555 1_555
C19 C18 1_555 1_555
H11 C19 1_555 1_555
C20 C19 1_555 1_555
C21 C20 1_555 1_555
S5 C17 1_555 1_555
O19 Sc4 1_555 1_555
O20 Sc5 1_555 1_555
C22 O19 1_555 1_555
C23 C22 1_555 1_555
C24 C23 1_555 1_555
H12 C24 1_555 1_555
S6 C23 1_555 1_555
O23 C28 1_555 1_555
O24 C28 1_555 1_555
C28 C29 1_555 1_555
C29 S3 1_555 1_555
C30 C12 1_555 1_555
H14 C30 1_555 1_555
O25 C31 1_555 1_555
O26 C31 1_555 1_555
C31 C32 1_555 1_555
C32 S4 1_555 1_555
C33 C15 1_555 1_555
H15 C33 1_555 1_555
Sc12 O23 1_555 1_555
Sc15 O24 1_555 1_555
Sc19 O26 1_555 1_555
Sc21 O10 1_555 1_555
Sc24 O9 1_555 1_555
O41 Sc1 1_555 1_555
O42 Sc1 1_555 1_555
O44 Sc1 1_555 1_555
O45 Sc5 1_555 1_555
O48 Sc4 1_555 1_555
O53 Sc2 1_555 1_555
O55 Sc3 1_555 1_555
O6 C1 1_555 1_555
O8 C4 1_555 1_555
C8 S2 1_555 1_555
O12 C10 1_555 1_555
O14 C13 1_555 1_555
O16 C16 1_555 1_555
C20 S5 1_555 1_555
O20 C22 1_555 1_555
C29 C30 1_555 1_555
O25 Sc15 1_555 1_555
C32 C33 1_555 1_555
O21 C25 1_555 1_555
O22 C25 1_555 1_555
C25 C26 1_555 1_555
C26 S1_2 1_555 1_555
H13 C27 1_555 1_555
O27 C34 1_555 1_555
O28 C34 1_555 1_555
C34 C35 1_555 1_555
C35 S6_2 1_555 1_555
H16 C36 1_555 1_555
Sc10 O21 1_555 1_555
Sc12 O22 1_555 1_555
Sc19 O27 1_555 1_555
Sc22 O28 1_555 1_555
C26 C27 1_555 1_555
C35 C36 1_555 1_555
Sc6 O41 1_555 1_555
Sc7 O30 1_555 1_555
Sc8 O31 1_555 1_555
O41 H17 1_555 1_555
O30 Sc6 1_555 1_555
H18 O30 1_555 1_555
O31 Sc7 1_555 1_555
H19 O31 1_555 1_555
O32 Sc5_2 1_555 1_555
H20 O32 1_555 1_555
O44 C37 1_555 1_555
O34 Sc6 1_555 1_555
O35 C42 1_555 1_555
O36 C42 1_555 1_555
C37 O34 1_555 1_555
C38 C37 1_555 1_555
C39 C38 1_555 1_555
H21 C39 1_555 1_555
C40 C39 1_555 1_555
H22 C40 1_555 1_555
C41 C40 1_555 1_555
C42 C41 1_555 1_555
S7 C38 1_555 1_555
O37 Sc7 1_555 1_555
O38 Sc8 1_555 1_555
O39 C48 1_555 1_555
O40 C48 1_555 1_555
C43 O37 1_555 1_555
C44 C43 1_555 1_555
C45 C44 1_555 1_555
H23 C45 1_555 1_555
C46 C45 1_555 1_555
H24 C46 1_555 1_555
C47 C46 1_555 1_555
C48 C47 1_555 1_555
S8 C44 1_555 1_555
Sc20 O36 1_555 1_555
Sc24_2 O35 1_555 1_555
O43 Sc6 1_555 1_555
O46 Sc5_2 1_555 1_555
O47 Sc8 1_555 1_555
O49 Sc6 1_555 1_555
O50 Sc7 1_555 1_555
O51 Sc7 1_555 1_555
O52 Sc8 1_555 1_555
O54 Sc6 1_555 1_555
O56 Sc7 1_555 1_555
O57 Sc8 1_555 1_555
O58 Sc5_2 1_555 1_555
Sc8 O32 1_555 1_555
C41 S7 1_555 1_555
O38 C43 1_555 1_555
C47 S8 1_555 1_555
C1_2 O42 1_555 1_555
C2_2 C1_2 1_555 1_555
C3_2 C2_2 1_555 1_555
H5_2 C3_2 1_555 1_555
S1_3 C2_2 1_555 1_555
C10_2 O49 1_555 1_555
C11_2 C10_2 1_555 1_555
C12_2 C11_2 1_555 1_555
H8_2 C12_2 1_555 1_555
S3_2 C11_2 1_555 1_555
C13_2 O51 1_555 1_555
C14_2 C13_2 1_555 1_555
C15_2 C14_2 1_555 1_555
H9_2 C15_2 1_555 1_555
S4_2 C14_2 1_555 1_555
C22_2 O57 1_555 1_555
C23_2 C22_2 1_555 1_555
C24_2 C23_2 1_555 1_555
H12_2 C24_2 1_555 1_555
S6_3 C23_2 1_555 1_555
O23_2 C28_2 1_555 1_555
O24_2 C28_2 1_555 1_555
C28_2 C29_2 1_555 1_555
C29_2 S3_2 1_555 1_555
C30_2 C12_2 1_555 1_555
H14_2 C30_2 1_555 1_555
O25_2 C31_2 1_555 1_555
O26_2 C31_2 1_555 1_555
C31_2 C32_2 1_555 1_555
C32_2 S4_2 1_555 1_555
C33_2 C15_2 1_555 1_555
H15_2 C33_2 1_555 1_555
Sc12_2 O23_2 1_555 1_555
Sc15_2 O24_2 1_555 1_555
Sc19_2 O26_2 1_555 1_555
O43 C1_2 1_555 1_555
O50 C10_2 1_555 1_555
O52 C13_2 1_555 1_555
O58 C22_2 1_555 1_555
C29_2 C30_2 1_555 1_555
O25_2 Sc15_2 1_555 1_555
C32_2 C33_2 1_555 1_555
O21_2 C25_2 1_555 1_555
O22_2 C25_2 1_555 1_555
C25_2 C26_2 1_555 1_555
C26_2 S1_4 1_555 1_555
H13_2 C27_2 1_555 1_555
O27_2 C34_2 1_555 1_555
O28_2 C34_2 1_555 1_555
C34_2 C35_2 1_555 1_555
C35_2 S6_4 1_555 1_555
H16_2 C36_2 1_555 1_555
Sc10 O21_2 1_555 1_555
Sc12_2 O22_2 1_555 1_555
Sc19_2 O27_2 1_555 1_555
Sc22_2 O28_2 1_555 1_555
C26_2 C27_2 1_555 1_555
C35_2 C36_2 1_555 1_555
O10_2 C9_2 1_555 1_555
Sc19 O10_2 1_555 1_555
O41_2 Sc1_2 1_555 1_555
O42_2 Sc1_2 1_555 1_555
H13_3 C27_3 1_555 1_555
O27_3 C34_3 1_555 1_555
O28_3 C34_3 1_555 1_555
C34_3 C35_3 1_555 1_555
C35_3 S6_5 1_555 1_555
H16_3 C36_3 1_555 1_555
Sc21 O27_3 1_555 1_555
Sc24 O28_3 1_555 1_555
C35_3 C36_3 1_555 1_555
Sc3_2 O2_2 1_555 1_555
Sc4_2 O3_2 1_555 1_555
Sc5_3 O4_2 1_555 1_555
O2_2 Sc2_2 1_555 1_555
H2_2 O2_2 1_555 1_555
O3_2 Sc3_2 1_555 1_555
H3_2 O3_2 1_555 1_555
O4_2 Sc4_2 1_555 1_555
H5_3 C3_3 1_555 1_555
O7_2 Sc1_3 1_555 1_555
O8_2 Sc2_2 1_555 1_555
C4_2 O7_2 1_555 1_555
C5_2 C4_2 1_555 1_555
C6_2 C5_2 1_555 1_555
H6_2 C6_2 1_555 1_555
C7_2 C6_2 1_555 1_555
H7_2 C7_2 1_555 1_555
C8_2 C7_2 1_555 1_555
O11_2 Sc2_2 1_555 1_555
O12_2 Sc3_2 1_555 1_555
C10_3 O11_2 1_555 1_555
C11_3 C10_3 1_555 1_555
C12_3 C11_3 1_555 1_555
H8_3 C12_3 1_555 1_555
S3_3 C11_3 1_555 1_555
O13_2 Sc3_2 1_555 1_555
O14_2 Sc4_2 1_555 1_555
C13_3 O13_2 1_555 1_555
C14_3 C13_3 1_555 1_555
C15_3 C14_3 1_555 1_555
H9_3 C15_3 1_555 1_555
S4_3 C14_3 1_555 1_555
O15_2 Sc3_2 1_555 1_555
O16_2 Sc4_2 1_555 1_555
O17_2 C21_2 1_555 1_555
O18_2 C21_2 1_555 1_555
C16_2 O15_2 1_555 1_555
C17_2 C16_2 1_555 1_555
C18_2 C17_2 1_555 1_555
H10_2 C18_2 1_555 1_555
C19_2 C18_2 1_555 1_555
H11_2 C19_2 1_555 1_555
C20_2 C19_2 1_555 1_555
C21_2 C20_2 1_555 1_555
S5_2 C17_2 1_555 1_555
O19_2 Sc4_2 1_555 1_555
O20_2 Sc5_3 1_555 1_555
C22_3 O19_2 1_555 1_555
C23_3 C22_3 1_555 1_555
C24_3 C23_3 1_555 1_555
H12_3 C24_3 1_555 1_555
S6_6 C23_3 1_555 1_555
O23_3 C28_3 1_555 1_555
O24_3 C28_3 1_555 1_555
C28_3 C29_3 1_555 1_555
C29_3 S3_3 1_555 1_555
C30_3 C12_3 1_555 1_555
H14_3 C30_3 1_555 1_555
O25_3 C31_3 1_555 1_555
O26_3 C31_3 1_555 1_555
C31_3 C32_3 1_555 1_555
C32_3 S4_3 1_555 1_555
C33_3 C15_3 1_555 1_555
H15_3 C33_3 1_555 1_555
O41_2 H17_2 1_555 1_555
Sc14 O23_3 1_555 1_555
Sc12_2 O17_2 1_555 1_555
Sc17 O24_3 1_555 1_555
Sc15_2 O18_2 1_555 1_555
Sc21 O26_3 1_555 1_555
Sc22_2 O9_2 1_555 1_555
O46_2 Sc5_3 1_555 1_555
O48_2 Sc4_2 1_555 1_555
O8_2 C4_2 1_555 1_555
O12_2 C10_3 1_555 1_555
O14_2 C13_3 1_555 1_555
O16_2 C16_2 1_555 1_555
C20_2 S5_2 1_555 1_555
O20_2 C22_3 1_555 1_555
C29_3 C30_3 1_555 1_555
O25_3 Sc17 1_555 1_555
C32_3 C33_3 1_555 1_555
O44_2 Sc1_4 1_555 1_555
O21_3 C25_3 1_555 1_555
O22_3 C25_3 1_555 1_555
C25_3 C26_3 1_555 1_555
C26_3 S1_5 1_555 1_555
Sc10_5 O21_3 1_555 1_555
Sc1_5 O1_2 1_555 1_555
O1_2 H1_2 1_555 1_555
O5_2 Sc1_5 1_555 1_555
C1_3 O5_2 1_555 1_555
C2_3 C1_3 1_555 1_555
S1_6 C2_3 1_555 1_555
Sc7_2 O30_2 1_555 1_555
Sc8_2 O31_2 1_555 1_555
O30_2 Sc6_2 1_555 1_555
H18_2 O30_2 1_555 1_555
O31_2 Sc7_2 1_555 1_555
H19_2 O31_2 1_555 1_555
O32_2 Sc5_4 1_555 1_555
O44_2 C37_2 1_555 1_555
O34_2 Sc6_2 1_555 1_555
C37_2 O34_2 1_555 1_555
C38_2 C37_2 1_555 1_555
C39_2 C38_2 1_555 1_555
H21_2 C39_2 1_555 1_555
C40_2 C39_2 1_555 1_555
H22_2 C40_2 1_555 1_555
C41_2 C40_2 1_555 1_555
O37_2 Sc7_2 1_555 1_555
O38_2 Sc8_2 1_555 1_555
O39_2 C48_2 1_555 1_555
O40_2 C48_2 1_555 1_555
C43_2 O37_2 1_555 1_555
C44_2 C43_2 1_555 1_555
C45_2 C44_2 1_555 1_555
H23_2 C45_2 1_555 1_555
C46_2 C45_2 1_555 1_555
H24_2 C46_2 1_555 1_555
C47_2 C46_2 1_555 1_555
C48_2 C47_2 1_555 1_555
S8_2 C44_2 1_555 1_555
Sc12 O39_2 1_555 1_555
Sc15 O40_2 1_555 1_555
Sc22 O35_2 1_555 1_555
O45_2 Sc5_4 1_555 1_555
O47_2 Sc8_2 1_555 1_555
O49_2 Sc6_2 1_555 1_555
O50_2 Sc7_2 1_555 1_555
O51_2 Sc7_2 1_555 1_555
O52_2 Sc8_2 1_555 1_555
O57_2 Sc8_2 1_555 1_555
O58_2 Sc5_4 1_555 1_555
O6_2 C1_3 1_555 1_555
Sc8_2 O32_2 1_555 1_555
O38_2 C43_2 1_555 1_555
C47_2 S8_2 1_555 1_555
O36_2 C42_2 1_555 1_555
Sc19_2 O36_2 1_555 1_555
O21_4 C25_4 1_555 1_555
O22_4 C25_4 1_555 1_555
C25_4 C26_4 1_555 1_555
C26_4 S1_7 1_555 1_555
Sc10_2 O21_4 1_555 1_555
C1_4 O42_2 1_555 1_555
C2_4 C1_4 1_555 1_555
S1_8 C2_4 1_555 1_555
O43_2 C1_4 1_555 1_555
H13_4 C27_4 1_555 1_555
O27_4 C34_4 1_555 1_555
O28_4 C34_4 1_555 1_555
C34_4 C35_4 1_555 1_555
C35_4 S6_7 1_555 1_555
H16_4 C36_4 1_555 1_555
Sc20 O27_4 1_555 1_555
Sc24_2 O28_4 1_555 1_555
C35_4 C36_4 1_555 1_555
H5_4 C3_4 1_555 1_555
C10_4 O49_2 1_555 1_555
C11_4 C10_4 1_555 1_555
C12_4 C11_4 1_555 1_555
H8_4 C12_4 1_555 1_555
S3_4 C11_4 1_555 1_555
C13_4 O51_2 1_555 1_555
C14_4 C13_4 1_555 1_555
C15_4 C14_4 1_555 1_555
H9_4 C15_4 1_555 1_555
S4_4 C14_4 1_555 1_555
C22_4 O57_2 1_555 1_555
C23_4 C22_4 1_555 1_555
C24_4 C23_4 1_555 1_555
H12_4 C24_4 1_555 1_555
S6_8 C23_4 1_555 1_555
O23_4 C28_4 1_555 1_555
O24_4 C28_4 1_555 1_555
C28_4 C29_4 1_555 1_555
C29_4 S3_4 1_555 1_555
C30_4 C12_4 1_555 1_555
H14_4 C30_4 1_555 1_555
O25_4 C31_4 1_555 1_555
O26_4 C31_4 1_555 1_555
C31_4 C32_4 1_555 1_555
C32_4 S4_4 1_555 1_555
C33_4 C15_4 1_555 1_555
H15_4 C33_4 1_555 1_555
Sc13 O23_4 1_555 1_555
Sc16 O24_4 1_555 1_555
Sc20 O26_4 1_555 1_555
O50_2 C10_4 1_555 1_555
O52_2 C13_4 1_555 1_555
O58_2 C22_4 1_555 1_555
C29_4 C30_4 1_555 1_555
O25_4 Sc16 1_555 1_555
C32_4 C33_4 1_555 1_555
Sc12 O29 1_555 1_555
Sc15 O30_3 1_555 1_555
Sc19 O31_3 1_555 1_555
O29 H17_3 1_555 1_555
O30_3 Sc12 1_555 1_555
H18_3 O30_3 1_555 1_555
O31_3 Sc15 1_555 1_555
H19_3 O31_3 1_555 1_555
O32_3 Sc22 1_555 1_555
H20_3 O32_3 1_555 1_555
O33 C37_3 1_555 1_555
O34_3 Sc12 1_555 1_555
O46_2 C42_3 1_555 1_555
O48_2 C42_3 1_555 1_555
C37_3 O34_3 1_555 1_555
C38_3 C37_3 1_555 1_555
C39_3 C38_3 1_555 1_555
H21_3 C39_3 1_555 1_555
C40_3 C39_3 1_555 1_555
H22_3 C40_3 1_555 1_555
C41_3 C40_3 1_555 1_555
C42_3 C41_3 1_555 1_555
S7_3 C38_3 1_555 1_555
O37_3 Sc15 1_555 1_555
O38_3 Sc19 1_555 1_555
O54_2 C48_3 1_555 1_555
O56_2 C48_3 1_555 1_555
C43_3 O37_3 1_555 1_555
C44_3 C43_3 1_555 1_555
C45_3 C44_3 1_555 1_555
H23_3 C45_3 1_555 1_555
C46_3 C45_3 1_555 1_555
H24_3 C46_3 1_555 1_555
C47_3 C46_3 1_555 1_555
C48_3 C47_3 1_555 1_555
S8_3 C44_3 1_555 1_555
Sc10 O29 1_555 1_555
Sc19 O32_3 1_555 1_555
O33 Sc10 1_555 1_555
C41_3 S7_3 1_555 1_555
O38_3 C43_3 1_555 1_555
C47_3 S8_3 1_555 1_555
Sc10 O1_3 1_555 1_555
Sc12_2 O1_3 1_555 1_555
Sc15_2 O2_3 1_555 1_555
Sc19_2 O3_3 1_555 1_555
Sc22_2 O4_3 1_555 1_555
O1_3 H1_3 1_555 1_555
O2_3 Sc12_2 1_555 1_555
H2_3 O2_3 1_555 1_555
O3_3 Sc15_2 1_555 1_555
H3_3 O3_3 1_555 1_555
O4_3 Sc19_2 1_555 1_555
H4_3 O4_3 1_555 1_555
O7_3 Sc10 1_555 1_555
O8_3 Sc12_2 1_555 1_555
O45_2 C9_3 1_555 1_555
O47_2 C9_3 1_555 1_555
C4_3 O7_3 1_555 1_555
C5_3 C4_3 1_555 1_555
C6_3 C5_3 1_555 1_555
H6_3 C6_3 1_555 1_555
C7_3 C6_3 1_555 1_555
H7_3 C7_3 1_555 1_555
C8_3 C7_3 1_555 1_555
C9_3 C8_3 1_555 1_555
S2_3 C5_3 1_555 1_555
O15_3 Sc15_2 1_555 1_555
O16_3 Sc19_2 1_555 1_555
O53_2 C21_3 1_555 1_555
O55_2 C21_3 1_555 1_555
C16_3 O15_3 1_555 1_555
C17_3 C16_3 1_555 1_555
C18_3 C17_3 1_555 1_555
H10_3 C18_3 1_555 1_555
C19_3 C18_3 1_555 1_555
H11_3 C19_3 1_555 1_555
C20_3 C19_3 1_555 1_555
C21_3 C20_3 1_555 1_555
S5_3 C17_3 1_555 1_555
O8_3 C4_3 1_555 1_555
C8_3 S2_3 1_555 1_555
O16_3 C16_3 1_555 1_555
C20_3 S5_3 1_555 1_555
O48 C42_4 1_555 1_555
Sc10_2 O1_4 1_555 1_555
O1_4 H1_4 1_555 1_555
Sc17 O30_4 1_555 1_555
Sc21 O31_4 1_555 1_555
O30_4 Sc14 1_555 1_555
H18_4 O30_4 1_555 1_555
O31_4 Sc17 1_555 1_555
H19_4 O31_4 1_555 1_555
O32_4 Sc24 1_555 1_555
O33_2 C37_4 1_555 1_555
O34_4 Sc14 1_555 1_555
C37_4 O34_4 1_555 1_555
C38_4 C37_4 1_555 1_555
C39_4 C38_4 1_555 1_555
H21_4 C39_4 1_555 1_555
C40_4 C39_4 1_555 1_555
H22_4 C40_4 1_555 1_555
C41_4 C40_4 1_555 1_555
O37_4 Sc17 1_555 1_555
O38_4 Sc21 1_555 1_555
O54 C48_4 1_555 1_555
O56 C48_4 1_555 1_555
C43_4 O37_4 1_555 1_555
C44_4 C43_4 1_555 1_555
C45_4 C44_4 1_555 1_555
H23_4 C45_4 1_555 1_555
C46_4 C45_4 1_555 1_555
H24_4 C46_4 1_555 1_555
C47_4 C46_4 1_555 1_555
C48_4 C47_4 1_555 1_555
S8_4 C44_4 1_555 1_555
Sc21 O32_4 1_555 1_555
O33_2 Sc10_3 1_555 1_555
O38_4 C43_4 1_555 1_555
C47_4 S8_4 1_555 1_555
Sc16 O2_4 1_555 1_555
Sc20 O3_4 1_555 1_555
Sc24_2 O4_4 1_555 1_555
O2_4 Sc13 1_555 1_555
H2_4 O2_4 1_555 1_555
O3_4 Sc16 1_555 1_555
H3_4 O3_4 1_555 1_555
O4_4 Sc20 1_555 1_555
O7_4 Sc10_4 1_555 1_555
O8_4 Sc13 1_555 1_555
C4_4 O7_4 1_555 1_555
C5_4 C4_4 1_555 1_555
C6_4 C5_4 1_555 1_555
H6_4 C6_4 1_555 1_555
C7_4 C6_4 1_555 1_555
H7_4 C7_4 1_555 1_555
C8_4 C7_4 1_555 1_555
O15_4 Sc16 1_555 1_555
O16_4 Sc20 1_555 1_555
O53 C21_4 1_555 1_555
O55 C21_4 1_555 1_555
C16_4 O15_4 1_555 1_555
C17_4 C16_4 1_555 1_555
C18_4 C17_4 1_555 1_555
H10_4 C18_4 1_555 1_555
C19_4 C18_4 1_555 1_555
H11_4 C19_4 1_555 1_555
C20_4 C19_4 1_555 1_555
C21_4 C20_4 1_555 1_555
S5_4 C17_4 1_555 1_555
O29_2 H17_4 1_555 1_555
Sc10_5 O29_2 1_555 1_555
O8_4 C4_4 1_555 1_555
O16_4 C16_4 1_555 1_555
C20_4 S5_4 1_555 1_555
O47 C9_4 1_555 1_555

#END
