
###############################################################################
#
# This file contains modified crystal structure data generated from the
# MOF subset of the Cambridge Structural Database (CSD) v543 
# hosted by the Cambridge Crystallographic Data Centre (CCDC).
#
# This work is licensed under the Creative Commons
# Attribution-NonCommercial-ShareAlike 4.0 International License.
# To view a copy of this license, visit
# http://creativecommons.org/licenses/by-nc-sa/4.0/
# or send a letter to
# Creative Commons, PO Box 1866, Mountain View, CA 94042, USA.
#
# CIF created using the CSD Python API on 29 September 2022
# The structure has been converted into the P1 space group
# The structure has a 3D framework
# The original CSD entry RAGMOE is in the hexagonal crystal system
# The original CSD entry RAGMOE is in a Sohncke space group
# The framework has been calculated to contain at least 10.0% void space
# The void calculation uses a probe of radius 1.32A, grid spacing 0.4
# The framework is charged, counterions have been retained in the structure
#
###############################################################################

data_RAGMOE
_chemical_formula_moiety         '(C286 H200 La5 N22 O72 1+)n'
_symmetry_cell_setting           triclinic
_symmetry_space_group_name_H-M   'P 1'
_symmetry_Int_Tables_number      1
_space_group_name_Hall           'P 1'
loop_
_symmetry_equiv_pos_site_id
_symmetry_equiv_pos_as_xyz
1 x,y,z
_cell_length_a                   16.18114(17)
_cell_length_b                   16.18114(17)
_cell_length_c                   30.4774(3)
_cell_angle_alpha                90
_cell_angle_beta                 90
_cell_angle_gamma                120
_cell_volume                     6910.78
loop_
_atom_site_label
_atom_site_type_symbol
_atom_site_fract_x
_atom_site_fract_y
_atom_site_fract_z
O6 O 0.0759(4) 0.7996(4) 0.28713(14)
H11 H 0.1416 0.8137 0.2893
La6 La -0.0000 0.64334(2) 0.1667
La5 La 0.64334(2) -0.0000 0.5000
La1 La 0.35666(2) -0.0000 0.5000
O1 O 0.6431(3) 0.1235(2) 0.44678(12)
O2 O 0.9723(2) 0.6993(3) 0.23985(11)
O3 O 0.4984(2) 0.1020(2) 0.45773(12)
C1 C 0.6214(3) 0.2571(3) 0.44027(13)
C2 C 0.6860(3) 0.4499(3) 0.42262(15)
N1 N 0.7198(3) 0.5478(3) 0.41358(13)
O4 O 0.6747(4) 0.7898(3) 0.56772(12)
O5 O 0.6828(3) 0.8746(3) 0.50910(11)
C3 C 0.8410(3) 0.5979(3) 0.30593(14)
H1 H 0.8314 0.5691 0.2786
C4 C 0.5628(3) 0.2963(3) 0.44675(14)
H2 H 0.5012 0.2577 0.4573
C5 C 0.6862(3) 0.5860(3) 0.48679(15)
H3 H 0.6853 0.5323 0.4983
C6 C 0.5939(4) 0.3909(3) 0.43787(15)
H4 H 0.5531 0.4151 0.4421
C7 C 0.7884(3) 0.5947(3) 0.37999(15)
C8 C 0.7141(4) 0.3171(3) 0.42548(17)
H5 H 0.7548 0.2927 0.4212
C9 C 0.6983(3) 0.6034(3) 0.44191(15)
C10 C 0.9362(4) 0.7284(3) 0.35449(15)
H6 H 0.9904 0.7869 0.3600
C11 C 0.7753(4) 0.5525(3) 0.33852(15)
H7 H 0.7218 0.4933 0.3331
C12 C 0.6927(4) 0.6807(3) 0.42487(15)
H8 H 0.6952 0.6902 0.3947
C13 C 0.6754(3) 0.6477(3) 0.51434(15)
H9 H 0.6674 0.6354 0.5443
C14 C 0.5858(3) 0.1544(3) 0.44913(13)
C15 C 0.8696(4) 0.6828(3) 0.38739(15)
H10 H 0.8793 0.7115 0.4148
C16 C 0.9923(4) 0.7311(4) 0.27646(14)
C17 C 0.6772(4) 0.8031(4) 0.52661(16)
C18 C 0.7462(3) 0.4119(3) 0.41714(18)
H12 H 0.8087 0.4512 0.4078
C19 C 0.9221(3) 0.6869(3) 0.31313(15)
C20 C 0.6835(4) 0.7426(3) 0.45249(15)
H13 H 0.6819 0.7949 0.4408
C21 C 0.6765(3) 0.7286(3) 0.49756(15)
La5_2 La 0.64334(2) 1.0000 0.5000
La6_2 La 1.0000 0.64334(2) 0.1667
O13 O 0.4804(4) 0.1235(2) 0.55322(12)
O15 O 0.3007(3) 0.0277(2) 0.42682(11)
O17 O 0.3172(3) 0.1254(3) 0.50910(11)
La1_2 La 0.35666(2) 1.0000 0.5000
O7 O 0.3569(3) 0.8765(2) 0.44678(12)
O8 O 0.0277(2) 0.3007(3) 0.23985(11)
O9 O 0.5016(2) 0.8980(2) 0.45773(12)
C22 C 0.3786(3) 0.7429(3) 0.44027(13)
C23 C 0.3140(3) 0.5501(3) 0.42262(15)
N2 N 0.2802(3) 0.4522(3) 0.41358(13)
O10 O 0.3253(4) 0.2102(3) 0.56772(12)
C24 C 0.1590(3) 0.4021(3) 0.30593(14)
H14 H 0.1686 0.4309 0.2786
C25 C 0.4372(3) 0.7037(3) 0.44675(14)
H15 H 0.4988 0.7423 0.4573
C26 C 0.3138(3) 0.4140(3) 0.48679(15)
H16 H 0.3147 0.4677 0.4983
C27 C 0.4061(4) 0.6091(3) 0.43787(15)
H17 H 0.4469 0.5849 0.4421
C28 C 0.2116(3) 0.4053(3) 0.37999(15)
C29 C 0.2859(4) 0.6829(3) 0.42548(17)
H18 H 0.2452 0.7073 0.4212
C30 C 0.3017(3) 0.3966(3) 0.44191(15)
C31 C 0.0638(4) 0.2716(3) 0.35449(15)
H19 H 0.0096 0.2131 0.3600
C32 C 0.2247(4) 0.4475(3) 0.33852(15)
H20 H 0.2782 0.5067 0.3331
C33 C 0.3073(4) 0.3193(3) 0.42487(15)
H21 H 0.3048 0.3098 0.3947
C34 C 0.3246(3) 0.3523(3) 0.51434(15)
H22 H 0.3326 0.3646 0.5443
C35 C 0.4142(3) 0.8456(3) 0.44913(13)
C36 C 0.1304(4) 0.3172(3) 0.38739(15)
H23 H 0.1207 0.2885 0.4148
C37 C 0.0077(4) 0.2689(4) 0.27646(14)
C38 C 0.3228(4) 0.1969(4) 0.52661(16)
C39 C 0.2538(3) 0.5881(3) 0.41714(18)
H25 H 0.1913 0.5488 0.4078
C40 C 0.0779(3) 0.3131(3) 0.31313(15)
C41 C 0.3165(4) 0.2574(3) 0.45249(15)
H26 H 0.3181 0.2051 0.4408
C42 C 0.3235(3) 0.2714(3) 0.49756(15)
La3 La -0.0000 0.35666(2) 0.1667
O14 O 0.2730(4) 0.9723(2) 0.57318(11)
O16 O 0.3964(3) 0.8980(2) 0.54227(12)
O18 O 0.1918(4) 0.8746(3) 0.49090(11)
O12 O 0.9241(4) 0.2004(4) 0.28713(14)
H24 H 0.8584 0.1863 0.2893
La3_2 La 1.0000 0.35666(2) 0.1667
O10_2 O 0.7898(3) 0.1151(5) 0.23439(12)
O11 O 0.8746(3) 0.1918(4) 0.17577(11)
C38_2 C 0.8031(4) 0.1259(6) 0.19328(16)
C41_2 C 0.7426(3) 0.0591(5) 0.11916(15)
H26_2 H 0.7949 0.1130 0.1075
C42_2 C 0.7286(3) 0.0521(4) 0.16423(15)
O7_2 O 0.1235(2) 0.4804(4) 0.11345(12)
O9_2 O 0.1020(2) 0.6036(3) 0.12440(12)
C22_2 C 0.2571(3) 0.6357(4) 0.10694(13)
C23_2 C 0.4499(3) 0.7639(4) 0.08929(15)
N2_2 N 0.5478(3) 0.8280(4) 0.08025(13)
C25_2 C 0.2963(3) 0.7335(4) 0.11342(14)
H15_2 H 0.2577 0.7565 0.1240
C26_2 C 0.5860(3) 0.8998(4) 0.15346(15)
H16_2 H 0.5323 0.8470 0.1650
C27_2 C 0.3909(3) 0.7970(5) 0.10454(15)
H17_2 H 0.4151 0.8620 0.1088
C28_2 C 0.5947(3) 0.8063(4) 0.04666(15)
C29_2 C 0.3171(3) 0.6030(5) 0.09215(17)
H18_2 H 0.2927 0.5379 0.0879
C30_2 C 0.6034(3) 0.9051(4) 0.10858(15)
C31_2 C 0.7284(3) 0.7922(5) 0.02116(15)
H19_2 H 0.7869 0.7965 0.0267
C32_2 C 0.5525(3) 0.7772(5) 0.00519(15)
C33_2 C 0.6807(3) 0.9880(5) 0.09154(15)
H21_2 H 0.6902 0.9950 0.0614
C34_2 C 0.6477(3) 0.9723(4) 0.18101(15)
H22_2 H 0.6354 0.9680 0.2110
C35_2 C 0.1544(3) 0.5686(4) 0.11580(13)
C36_2 C 0.6828(3) 0.8132(5) 0.05406(15)
H23_2 H 0.7115 0.8322 0.0815
C39_2 C 0.4119(3) 0.6657(4) 0.08381(18)
H25_2 H 0.4512 0.6425 0.0745
O16_2 O 0.1020(2) 0.4984(4) 0.20894(12)
O18_2 O 0.1254(3) 0.3172(5) 0.15757(11)
O8_2 O 0.6993(3) 0.7270(4) 0.90652(11)
C24_2 C 0.5979(3) 0.7569(4) 0.97260(14)
H14_2 H 0.5691 0.7377 0.9453
H20_2 H 0.4933 0.7715 0.9998
C37_2 C 0.7311(4) 0.7388(6) 0.94313(14)
O12_2 O 0.7996(4) 0.7237(6) 0.95380(14)
H24_2 H 0.8137 0.6721 0.9560
C40_2 C 0.6869(3) 0.7648(4) 0.97980(15)
La3_3 La 0.64334(2) 0.64334(2) 0.8333
O1_2 O 0.8765(2) 0.5196(4) 0.11345(12)
O3_2 O 0.8980(2) 0.3964(3) 0.12440(12)
C1_2 C 0.7429(3) 0.3643(4) 0.10694(13)
C2_2 C 0.5501(3) 0.2361(4) 0.08929(15)
N1_2 N 0.4522(3) 0.1720(4) 0.08025(13)
C4_2 C 0.7037(3) 0.2665(4) 0.11342(14)
H2_2 H 0.7423 0.2435 0.1240
C5_2 C 0.4140(3) 0.1002(4) 0.15346(15)
H3_2 H 0.4677 0.1530 0.1650
C6_2 C 0.6091(3) 0.2030(5) 0.10454(15)
H4_2 H 0.5849 0.1380 0.1088
C7_2 C 0.4053(3) 0.1937(4) 0.04666(15)
C8_2 C 0.6829(3) 0.3970(5) 0.09215(17)
H5_2 H 0.7073 0.4621 0.0879
C9_2 C 0.3966(3) 0.0949(4) 0.10858(15)
C10_2 C 0.2716(3) 0.2078(5) 0.02116(15)
H6_2 H 0.2131 0.2035 0.0267
C11_2 C 0.4475(3) 0.2228(5) 0.00519(15)
C12_2 C 0.3193(3) 0.0120(5) 0.09154(15)
H8_2 H 0.3098 0.0050 0.0614
C13_2 C 0.3523(3) 0.0277(4) 0.18101(15)
H9_2 H 0.3646 0.0320 0.2110
C14_2 C 0.8456(3) 0.4314(4) 0.11580(13)
C15_2 C 0.3172(3) 0.1868(5) 0.05406(15)
H10_2 H 0.2885 0.1678 0.0815
C18_2 C 0.5881(3) 0.3343(4) 0.08381(18)
H12_2 H 0.5488 0.3575 0.0745
O13_2 O 0.8765(2) 0.3569(4) 0.21989(12)
O15_2 O 0.9723(2) 0.2730(4) 0.09348(11)
O2_2 O 0.3007(3) 0.2730(4) 0.90652(11)
C3_2 C 0.4021(3) 0.2431(4) 0.97260(14)
H1_2 H 0.4309 0.2623 0.9453
H7_2 H 0.5067 0.2285 0.9998
C16_2 C 0.2689(4) 0.2612(6) 0.94313(14)
O6_2 O 0.2004(4) 0.2763(6) 0.95380(14)
H11_2 H 0.1863 0.3279 0.9560
C19_2 C 0.3131(3) 0.2352(4) 0.97980(15)
La6_3 La 0.35666(2) 0.35666(2) 0.8333
O4_2 O 0.2102(3) 0.8849(5) 0.23439(12)
O5_2 O 0.1254(3) 0.8082(4) 0.17577(11)
C17_2 C 0.1969(4) 0.8741(6) 0.19328(16)
C20_2 C 0.2574(3) 0.9409(5) 0.11916(15)
H13_2 H 0.2051 0.8870 0.1075
C21_2 C 0.2714(3) 0.9479(4) 0.16423(15)
O4_3 O 0.1151(5) 0.3253(4) 0.90105(12)
O5_3 O 0.1918(4) 0.3172(3) 0.84243(11)
C17_3 C 0.1259(6) 0.3228(4) 0.85994(16)
C20_3 C 0.0591(5) 0.3165(4) 0.78582(15)
H13_3 H 0.1130 0.3181 0.7741
C21_3 C 0.0521(4) 0.3235(3) 0.83089(15)
O12_3 O 0.2763(6) 0.0759(4) 0.62046(14)
H24_3 H 0.3279 0.1416 0.6226
O1_3 O 0.4804(4) 0.3569(3) 0.78011(12)
O2_3 O 0.7270(4) 0.0277(2) 0.57318(11)
O3_3 O 0.6036(3) 0.5016(2) 0.79106(12)
C1_3 C 0.6357(4) 0.3786(3) 0.77360(13)
C2_3 C 0.7639(4) 0.3140(3) 0.75595(15)
N1_3 N 0.8280(4) 0.2802(3) 0.74691(13)
C3_3 C 0.7569(4) 0.1590(3) 0.63926(14)
H1_3 H 0.7377 0.1686 0.6119
C4_3 C 0.7335(4) 0.4372(3) 0.78008(14)
H2_3 H 0.7565 0.4988 0.7906
C5_3 C 0.8998(4) 0.3138(3) 0.82012(15)
H3_3 H 0.8470 0.3147 0.8316
C6_3 C 0.7970(5) 0.4061(4) 0.77120(15)
H4_3 H 0.8620 0.4469 0.7754
C7_3 C 0.8063(4) 0.2116(3) 0.71332(15)
C8_3 C 0.6030(5) 0.2859(4) 0.75881(17)
H5_3 H 0.5379 0.2452 0.7545
C9_3 C 0.9051(4) 0.3017(3) 0.77524(15)
C10_3 C 0.7922(5) 0.0638(4) 0.68782(15)
H6_3 H 0.7965 0.0096 0.6933
C11_3 C 0.7772(5) 0.2247(4) 0.67185(15)
H7_3 H 0.7715 0.2782 0.6664
C12_3 C 0.9880(5) 0.3073(4) 0.75820(15)
H8_3 H 0.9950 0.3048 0.7280
C13_3 C 0.9723(4) 0.3246(3) 0.84767(15)
H9_3 H 0.9680 0.3326 0.8776
C14_3 C 0.5686(4) 0.4142(3) 0.78246(13)
C15_3 C 0.8132(5) 0.1304(4) 0.72072(15)
H10_3 H 0.8322 0.1207 0.7481
C16_3 C 0.7388(6) 0.0077(4) 0.60979(14)
C18_3 C 0.6657(4) 0.2538(3) 0.75047(18)
H12_3 H 0.6425 0.1913 0.7411
C19_3 C 0.7648(4) 0.0779(3) 0.64646(15)
O7_3 O 0.5196(4) 0.6431(3) 0.78011(12)
O9_3 O 0.3964(3) 0.4984(2) 0.79106(12)
C22_3 C 0.3643(4) 0.6214(3) 0.77360(13)
C23_3 C 0.2361(4) 0.6860(3) 0.75595(15)
N2_3 N 0.1720(4) 0.7198(3) 0.74691(13)
C24_3 C 0.2431(4) 0.8410(3) 0.63926(14)
H14_3 H 0.2623 0.8314 0.6119
C25_3 C 0.2665(4) 0.5628(3) 0.78008(14)
H15_3 H 0.2435 0.5012 0.7906
C26_3 C 0.1002(4) 0.6862(3) 0.82012(15)
H16_3 H 0.1530 0.6853 0.8316
C27_3 C 0.2030(5) 0.5939(4) 0.77120(15)
H17_3 H 0.1380 0.5531 0.7754
C28_3 C 0.1937(4) 0.7884(3) 0.71332(15)
C29_3 C 0.3970(5) 0.7141(4) 0.75881(17)
H18_3 H 0.4621 0.7548 0.7545
C30_3 C 0.0949(4) 0.6983(3) 0.77524(15)
C31_3 C 0.2078(5) 0.9362(4) 0.68782(15)
H19_3 H 0.2035 0.9904 0.6933
C32_3 C 0.2228(5) 0.7753(4) 0.67185(15)
H20_3 H 0.2285 0.7218 0.6664
C33_3 C 0.0120(5) 0.6927(4) 0.75820(15)
H21_3 H 0.0050 0.6952 0.7280
C34_3 C 0.0277(4) 0.6754(3) 0.84767(15)
H22_3 H 0.0320 0.6674 0.8776
C35_3 C 0.4314(4) 0.5858(3) 0.78246(13)
C36_3 C 0.1868(5) 0.8696(4) 0.72072(15)
H23_3 H 0.1678 0.8793 0.7481
C37_3 C 0.2612(6) 0.9923(4) 0.60979(14)
C39_3 C 0.3343(4) 0.7462(3) 0.75047(18)
H25_3 H 0.3575 0.8087 0.7411
C40_3 C 0.2352(4) 0.9221(3) 0.64646(15)
O13_3 O 0.6431(4) 0.5196(4) 0.88655(12)
O15_3 O 0.7270(4) 0.6993(3) 0.76015(11)
O16_3 O 0.5016(4) 0.6036(3) 0.87560(12)
O17_2 O 0.8082(4) 0.6828(3) 0.84243(11)
O18_3 O 0.6828(5) 0.8082(4) 0.82423(11)
O6_3 O 0.7237(6) 0.9241(4) 0.62046(14)
H11_3 H 0.6721 0.8584 0.6226
O10_3 O 0.8849(5) 0.6747(4) 0.90105(12)
C38_3 C 0.8741(6) 0.6772(4) 0.85994(16)
C41_3 C 0.9409(5) 0.6835(4) 0.78582(15)
H26_3 H 0.8870 0.6819 0.7741
C42_3 C 0.9479(4) 0.6765(3) 0.83089(15)
O16_4 O 0.6036(3) 0.1020(2) 0.54227(12)
O18_4 O 0.8082(4) 0.1254(3) 0.49090(11)
O13_4 O 0.5196(4) 0.8765(2) 0.55322(12)
O15_4 O 0.6993(3) 0.9723(2) 0.42682(11)
O13_5 O 0.1235(2) 0.6431(4) 0.21989(12)
O15_5 O 0.0277(2) 0.7270(4) 0.09348(11)
O16_5 O 0.8980(2) 0.5016(4) 0.20894(12)
O18_5 O 0.8746(3) 0.6828(5) 0.15757(11)
O13_6 O 0.3569(4) 0.4804(4) 0.88655(12)
O15_6 O 0.2730(4) 0.3007(3) 0.76015(11)
O16_6 O 0.4984(4) 0.3964(3) 0.87560(12)
O18_6 O 0.3172(5) 0.1918(4) 0.82423(11)
O6_4 O 0.7996(4) 0.0759(4) 0.37954(14)
H11_4 H 0.8137 0.1416 0.3774
C1_4 C 0.2571(3) 0.6214(3) 0.22640(13)
C2_4 C 0.4499(3) 0.6860(3) 0.24405(15)
N1_4 N 0.5478(3) 0.7198(3) 0.25309(13)
O4_4 O 0.7898(3) 0.6747(4) 0.09895(12)
C3_4 C 0.5979(3) 0.8410(3) 0.36074(14)
H1_4 H 0.5691 0.8314 0.3881
C4_4 C 0.2963(3) 0.5628(3) 0.21992(14)
H2_4 H 0.2577 0.5012 0.2094
C5_4 C 0.5860(3) 0.6862(3) 0.17988(15)
H3_4 H 0.5323 0.6853 0.1684
C6_4 C 0.3909(3) 0.5939(4) 0.22880(15)
H4_4 H 0.4151 0.5531 0.2246
C7_4 C 0.5947(3) 0.7884(3) 0.28668(15)
C8_4 C 0.3171(3) 0.7141(4) 0.24119(17)
H5_4 H 0.2927 0.7548 0.2455
C9_4 C 0.6034(3) 0.6983(3) 0.22476(15)
C10_4 C 0.7284(3) 0.9362(4) 0.31218(15)
H6_4 H 0.7869 0.9904 0.3067
C11_4 C 0.5525(3) 0.7753(4) 0.32815(15)
H7_4 H 0.4933 0.7218 0.3336
C12_4 C 0.6807(3) 0.6927(4) 0.24180(15)
H8_4 H 0.6902 0.6952 0.2720
C13_4 C 0.6477(3) 0.6754(3) 0.15233(15)
H9_4 H 0.6354 0.6674 0.1224
C14_4 C 0.1544(3) 0.5858(3) 0.21754(13)
C15_4 C 0.6828(3) 0.8696(4) 0.27928(15)
H10_4 H 0.7115 0.8793 0.2519
C16_4 C 0.7311(4) 0.9923(4) 0.39021(14)
C17_4 C 0.8031(4) 0.6772(4) 0.14006(16)
C18_4 C 0.4119(3) 0.7462(3) 0.24953(18)
H12_4 H 0.4512 0.8087 0.2589
C19_4 C 0.6869(3) 0.9221(3) 0.35354(15)
C20_4 C 0.7426(3) 0.6835(4) 0.21418(15)
H13_4 H 0.7949 0.6819 0.2259
C21_4 C 0.7286(3) 0.6765(3) 0.16911(15)
C22_4 C 0.7429(3) 0.3786(3) 0.22640(13)
C23_4 C 0.5501(3) 0.3140(3) 0.24405(15)
N2_4 N 0.4522(3) 0.2802(3) 0.25309(13)
O10_4 O 0.2102(3) 0.3253(4) 0.09895(12)
C24_4 C 0.4021(3) 0.1590(3) 0.36074(14)
H14_4 H 0.4309 0.1686 0.3881
C25_4 C 0.7037(3) 0.4372(3) 0.21992(14)
H15_4 H 0.7423 0.4988 0.2094
C26_4 C 0.4140(3) 0.3138(3) 0.17988(15)
H16_4 H 0.4677 0.3147 0.1684
C27_4 C 0.6091(3) 0.4061(4) 0.22880(15)
H17_4 H 0.5849 0.4469 0.2246
C28_4 C 0.4053(3) 0.2116(3) 0.28668(15)
C29_4 C 0.6829(3) 0.2859(4) 0.24119(17)
H18_4 H 0.7073 0.2452 0.2455
C30_4 C 0.3966(3) 0.3017(3) 0.22476(15)
C31_4 C 0.2716(3) 0.0638(4) 0.31218(15)
H19_4 H 0.2131 0.0096 0.3067
C32_4 C 0.4475(3) 0.2247(4) 0.32815(15)
H20_4 H 0.5067 0.2782 0.3336
C33_4 C 0.3193(3) 0.3073(4) 0.24180(15)
H21_4 H 0.3098 0.3048 0.2720
C34_4 C 0.3523(3) 0.3246(3) 0.15233(15)
H22_4 H 0.3646 0.3326 0.1224
C35_4 C 0.8456(3) 0.4142(3) 0.21754(13)
C36_4 C 0.3172(3) 0.1304(4) 0.27928(15)
H23_4 H 0.2885 0.1207 0.2519
C37_4 C 0.2689(4) 0.0077(4) 0.39021(14)
C38_4 C 0.1969(4) 0.3228(4) 0.14006(16)
C39_4 C 0.5881(3) 0.2538(3) 0.24953(18)
H25_4 H 0.5488 0.1913 0.2589
C40_4 C 0.3131(3) 0.0779(3) 0.35354(15)
C41_4 C 0.2574(3) 0.3165(4) 0.21418(15)
H26_4 H 0.2051 0.3181 0.2259
C42_4 C 0.2714(3) 0.3235(3) 0.16911(15)
O12_4 O 0.2004(4) 0.9241(4) 0.37954(14)
H24_4 H 0.1863 0.8584 0.3774
O10_5 O 0.1151(5) 0.7898(3) 0.43228(12)
C38_5 C 0.1259(6) 0.8031(4) 0.47339(16)
C41_5 C 0.0591(5) 0.7426(3) 0.54751(15)
H26_5 H 0.1130 0.7949 0.5592
C42_5 C 0.0521(4) 0.7286(3) 0.50244(15)
C22_5 C 0.6357(4) 0.2571(3) 0.55973(13)
C23_5 C 0.7639(4) 0.4499(3) 0.57738(15)
N2_5 N 0.8280(4) 0.5478(3) 0.58642(13)
C24_5 C 0.7569(4) 0.5979(3) 0.69407(14)
H14_5 H 0.7377 0.5691 0.7214
C25_5 C 0.7335(4) 0.2963(3) 0.55325(14)
H15_5 H 0.7565 0.2577 0.5427
C26_5 C 0.8998(4) 0.5860(3) 0.51321(15)
H16_5 H 0.8470 0.5323 0.5017
C27_5 C 0.7970(5) 0.3909(3) 0.56213(15)
H17_5 H 0.8620 0.4151 0.5579
C28_5 C 0.8063(4) 0.5947(3) 0.62001(15)
C29_5 C 0.6030(5) 0.3171(3) 0.57452(17)
H18_5 H 0.5379 0.2927 0.5788
C30_5 C 0.9051(4) 0.6034(3) 0.55809(15)
C31_5 C 0.7922(5) 0.7284(3) 0.64551(15)
H19_5 H 0.7965 0.7869 0.6400
C32_5 C 0.7772(5) 0.5525(3) 0.66148(15)
H20_5 H 0.7715 0.4933 0.6669
C33_5 C 0.9880(5) 0.6807(3) 0.57513(15)
H21_5 H 0.9950 0.6902 0.6053
C34_5 C 0.9723(4) 0.6477(3) 0.48566(15)
H22_5 H 0.9680 0.6354 0.4557
C35_5 C 0.5686(4) 0.1544(3) 0.55087(13)
C36_5 C 0.8132(5) 0.6828(3) 0.61261(15)
H23_5 H 0.8322 0.7115 0.5852
C37_5 C 0.7388(6) 0.7311(4) 0.72354(14)
O12_5 O 0.7237(6) 0.7996(4) 0.71287(14)
H24_5 H 0.6721 0.8137 0.7107
C39_5 C 0.6657(4) 0.4119(3) 0.58286(18)
H25_5 H 0.6425 0.4512 0.5922
C40_5 C 0.7648(4) 0.6869(3) 0.68687(15)
C1_5 C 0.3643(4) 0.7429(3) 0.55973(13)
C2_5 C 0.2361(4) 0.5501(3) 0.57738(15)
N1_5 N 0.1720(4) 0.4522(3) 0.58642(13)
C3_5 C 0.2431(4) 0.4021(3) 0.69407(14)
H1_5 H 0.2623 0.4309 0.7214
C4_5 C 0.2665(4) 0.7037(3) 0.55325(14)
H2_5 H 0.2435 0.7423 0.5427
C5_5 C 0.1002(4) 0.4140(3) 0.51321(15)
H3_5 H 0.1530 0.4677 0.5017
C6_5 C 0.2030(5) 0.6091(3) 0.56213(15)
H4_5 H 0.1380 0.5849 0.5579
C7_5 C 0.1937(4) 0.4053(3) 0.62001(15)
C8_5 C 0.3970(5) 0.6829(3) 0.57452(17)
H5_5 H 0.4621 0.7073 0.5788
C9_5 C 0.0949(4) 0.3966(3) 0.55809(15)
C10_5 C 0.2078(5) 0.2716(3) 0.64551(15)
H6_5 H 0.2035 0.2131 0.6400
C11_5 C 0.2228(5) 0.4475(3) 0.66148(15)
H7_5 H 0.2285 0.5067 0.6669
C12_5 C 0.0120(5) 0.3193(3) 0.57513(15)
H8_5 H 0.0050 0.3098 0.6053
C13_5 C 0.0277(4) 0.3523(3) 0.48566(15)
H9_5 H 0.0320 0.3646 0.4557
C14_5 C 0.4314(4) 0.8456(3) 0.55087(13)
C15_5 C 0.1868(5) 0.3172(3) 0.61261(15)
H10_5 H 0.1678 0.2885 0.5852
C16_5 C 0.2612(6) 0.2689(4) 0.72354(14)
O6_5 O 0.2763(6) 0.2004(4) 0.71287(14)
H11_5 H 0.3279 0.1863 0.7107
C18_5 C 0.3343(4) 0.5881(3) 0.58286(18)
H12_5 H 0.3575 0.5488 0.5922
C19_5 C 0.2352(4) 0.3131(3) 0.68687(15)
O4_5 O 0.8849(5) 0.2102(3) 0.43228(12)
C17_5 C 0.8741(6) 0.1969(4) 0.47339(16)
C20_5 C 0.9409(5) 0.2574(3) 0.54751(15)
H13_5 H 0.8870 0.2051 0.5592
C21_5 C 0.9479(4) 0.2714(3) 0.50244(15)
O12_6 O 0.0759(4) 0.2763(6) 0.04620(14)
H24_6 H 0.1416 0.3279 0.0440
O4_6 O 0.3253(4) 0.1151(5) 0.76561(12)
C17_6 C 0.3228(4) 0.1259(6) 0.80672(16)
C20_6 C 0.3165(4) 0.0591(5) 0.88084(15)
H13_6 H 0.3181 0.1130 0.8925
C21_6 C 0.3235(3) 0.0521(4) 0.83577(15)
C3_6 C 0.1590(3) 0.7569(4) 0.02740(14)
H1_6 H 0.1686 0.7377 0.0547
H7_6 H 0.2782 0.7715 0.0002
C16_6 C 0.0077(4) 0.7388(6) 0.05687(14)
C19_6 C 0.0779(3) 0.7648(4) 0.02020(15)
C24_6 C 0.8410(3) 0.2431(4) 0.02740(14)
H14_6 H 0.8314 0.2623 0.0547
H20_6 H 0.7218 0.2285 0.0002
C37_6 C 0.9923(4) 0.2612(6) 0.05687(14)
C40_6 C 0.9221(3) 0.2352(4) 0.02020(15)
C1_6 C 0.3786(3) 0.6357(4) 0.89306(13)
C2_6 C 0.3140(3) 0.7639(4) 0.91071(15)
N1_6 N 0.2802(3) 0.8280(4) 0.91975(13)
C4_6 C 0.4372(3) 0.7335(4) 0.88658(14)
H2_6 H 0.4988 0.7565 0.8760
C5_6 C 0.3138(3) 0.8998(4) 0.84654(15)
H3_6 H 0.3147 0.8470 0.8350
C6_6 C 0.4061(4) 0.7970(5) 0.89546(15)
H4_6 H 0.4469 0.8620 0.8912
C7_6 C 0.2116(3) 0.8063(4) 0.95334(15)
C8_6 C 0.2859(4) 0.6030(5) 0.90785(17)
H5_6 H 0.2452 0.5379 0.9121
C9_6 C 0.3017(3) 0.9051(4) 0.89142(15)
C10_6 C 0.0638(4) 0.7922(5) 0.97884(15)
H6_6 H 0.0096 0.7965 0.9733
C11_6 C 0.2247(4) 0.7772(5) 0.99481(15)
C12_6 C 0.3073(4) 0.9880(5) 0.90846(15)
H8_6 H 0.3048 0.9950 0.9386
C13_6 C 0.3246(3) 0.9723(4) 0.81899(15)
H9_6 H 0.3326 0.9680 0.7890
C14_6 C 0.4142(3) 0.5686(4) 0.88420(13)
C15_6 C 0.1304(4) 0.8132(5) 0.94594(15)
H10_6 H 0.1207 0.8322 0.9185
C18_6 C 0.2538(3) 0.6657(4) 0.91619(18)
H12_6 H 0.1913 0.6425 0.9255
C22_6 C 0.6214(3) 0.3643(4) 0.89306(13)
C23_6 C 0.6860(3) 0.2361(4) 0.91071(15)
N2_6 N 0.7198(3) 0.1720(4) 0.91975(13)
C25_6 C 0.5628(3) 0.2665(4) 0.88658(14)
H15_6 H 0.5012 0.2435 0.8760
C26_6 C 0.6862(3) 0.1002(4) 0.84654(15)
H16_6 H 0.6853 0.1530 0.8350
C27_6 C 0.5939(4) 0.2030(5) 0.89546(15)
H17_6 H 0.5531 0.1380 0.8912
C28_6 C 0.7884(3) 0.1937(4) 0.95334(15)
C29_6 C 0.7141(4) 0.3970(5) 0.90785(17)
H18_6 H 0.7548 0.4621 0.9121
C30_6 C 0.6983(3) 0.0949(4) 0.89142(15)
C31_6 C 0.9362(4) 0.2078(5) 0.97884(15)
H19_6 H 0.9904 0.2035 0.9733
C32_6 C 0.7753(4) 0.2228(5) 0.99481(15)
C33_6 C 0.6927(4) 0.0120(5) 0.90846(15)
H21_6 H 0.6952 0.0050 0.9386
C34_6 C 0.6754(3) 0.0277(4) 0.81899(15)
H22_6 H 0.6674 0.0320 0.7890
C35_6 C 0.5858(3) 0.4314(4) 0.88420(13)
C36_6 C 0.8696(4) 0.1868(5) 0.94594(15)
H23_6 H 0.8793 0.1678 0.9185
C39_6 C 0.7462(3) 0.3343(4) 0.91619(18)
H25_6 H 0.8087 0.3575 0.9255
O10_6 O 0.6747(4) 0.8849(5) 0.76561(12)
C38_6 C 0.6772(4) 0.8741(6) 0.80672(16)
C41_6 C 0.6835(4) 0.9409(5) 0.88084(15)
H26_6 H 0.6819 0.8870 0.8925
C42_6 C 0.6765(3) 0.9479(4) 0.83577(15)
O6_6 O 0.9241(4) 0.7237(6) 0.04620(14)
H11_6 H 0.8584 0.6721 0.0440
N3 N -0.0000 0.5000 0.3890(3)
H27 H -0.0000 0.5000 0.4172
C43 C -0.0000 0.5000 0.3018(3)
H28 H -0.0000 0.5000 0.2713
C44 C 0.0505(6) 0.5800(7) 0.3227(3)
H29 H 0.0869 0.6360 0.3069
C45 C 0.0512(6) 0.5832(6) 0.3663(3)
H30 H 0.0858 0.6409 0.3810
N3_2 N 1.0000 0.5000 0.3890(3)
H27_2 H 1.0000 0.5000 0.4172
C43_2 C 1.0000 0.5000 0.3018(3)
H28_2 H 1.0000 0.5000 0.2713
C46 C 0.9495(6) 0.4200(7) 0.3227(3)
H31 H 0.9131 0.3640 0.3069
C47 C 0.9488(6) 0.4168(6) 0.3663(3)
H32 H 0.9142 0.3591 0.3810
N3_3 N 0.5000 0.5000 0.0557(3)
H27_3 H 0.5000 0.5000 0.0839
C45_2 C 0.4168(6) 0.4680(8) 0.0330(3)
H30_2 H 0.3591 0.4449 0.0477
C47_2 C 0.5832(6) 0.5320(8) 0.0330(3)
H32_2 H 0.6409 0.5551 0.0477
C43_3 C 0.5000 0.5000 0.9685(3)
H28_3 H 0.5000 0.5000 0.9380
C44_2 C 0.4200(7) 0.4705(9) 0.9894(3)
H29_2 H 0.3640 0.4509 0.9736
C46_2 C 0.5800(7) 0.5295(9) 0.9894(3)
H31_2 H 0.6360 0.5491 0.9736
N3_4 N 0.5000 0.0000 0.7223(3)
H27_4 H 0.5000 0.0000 0.7505
C43_4 C 0.5000 0.0000 0.6351(3)
H28_4 H 0.5000 0.0000 0.6046
C46_3 C 0.4705(9) 0.0505(6) 0.6560(3)
H31_3 H 0.4509 0.0869 0.6402
C47_3 C 0.4680(8) 0.0512(6) 0.6996(3)
H32_3 H 0.4449 0.0858 0.7143
N3_5 N 0.5000 1.0000 0.7223(3)
H27_5 H 0.5000 1.0000 0.7505
C43_5 C 0.5000 1.0000 0.6351(3)
H28_5 H 0.5000 1.0000 0.6046
C44_3 C 0.5295(9) 0.9495(6) 0.6560(3)
H29_3 H 0.5491 0.9131 0.6402
C45_3 C 0.5320(8) 0.9488(6) 0.6996(3)
H30_3 H 0.5551 0.9142 0.7143
N3_6 N 0.5000 -0.0000 0.2777(3)
H27_6 H 0.5000 -0.0000 0.2495
C43_6 C 0.5000 -0.0000 0.3649(3)
H28_6 H 0.5000 -0.0000 0.3954
C44_4 C 0.5800(7) 0.0505(6) 0.3440(3)
H29_4 H 0.6360 0.0869 0.3598
C45_4 C 0.5832(6) 0.0512(6) 0.3004(3)
H30_4 H 0.6409 0.0858 0.2857
N3_7 N 0.5000 1.0000 0.2777(3)
H27_7 H 0.5000 1.0000 0.2495
C43_7 C 0.5000 1.0000 0.3649(3)
H28_7 H 0.5000 1.0000 0.3954
C46_4 C 0.4200(7) 0.9495(6) 0.3440(3)
H31_4 H 0.3640 0.9131 0.3598
C47_4 C 0.4168(6) 0.9488(6) 0.3004(3)
H32_4 H 0.3591 0.9142 0.2857
N3_8 N 0.5000 0.5000 0.6110(3)
H27_8 H 0.5000 0.5000 0.5828
C43_8 C 0.5000 0.5000 0.6982(3)
H28_8 H 0.5000 0.5000 0.7287
C44_5 C 0.4705(9) 0.4200(7) 0.6773(3)
H29_5 H 0.4509 0.3640 0.6931
C45_5 C 0.4680(8) 0.4168(6) 0.6337(3)
H30_5 H 0.4449 0.3591 0.6190
C46_5 C 0.5295(9) 0.5800(7) 0.6773(3)
H31_5 H 0.5491 0.6360 0.6931
C47_5 C 0.5320(8) 0.5832(6) 0.6337(3)
H32_5 H 0.5551 0.6409 0.6190
C43_9 C 0.0000 0.5000 0.0315(3)
H28_9 H 0.0000 0.5000 0.0620
C46_6 C 0.0505(6) 0.4705(9) 0.0106(3)
H31_6 H 0.0869 0.4509 0.0264
N3_9 N 0.0000 0.5000 0.9443(3)
H27_9 H 0.0000 0.5000 0.9161
C47_6 C 0.0512(6) 0.4680(8) 0.9670(3)
H32_6 H 0.0858 0.4449 0.9523
C43_10 C 1.0000 0.5000 0.0315(3)
H28_10 H 1.0000 0.5000 0.0620
C44_6 C 0.9495(6) 0.5295(9) 0.0106(3)
H29_6 H 0.9131 0.5491 0.0264
N3_10 N 1.0000 0.5000 0.9443(3)
H27_10 H 1.0000 0.5000 0.9161
C45_6 C 0.9488(6) 0.5320(8) 0.9670(3)
H30_6 H 0.9142 0.5551 0.9523
loop_
_geom_bond_atom_site_label_1
_geom_bond_atom_site_label_2
_geom_bond_site_symmetry_1
_geom_bond_site_symmetry_2
O6 H11 1_555 1_555
La1 O3 1_555 1_555
O1 C14 1_555 1_555
O2 C16 1_555 1_555
O3 C14 1_555 1_555
C1 C4 1_555 1_555
C2 N1 1_555 1_555
N1 C7 1_555 1_555
O4 C17 1_555 1_555
O5 C17 1_555 1_555
C3 H1 1_555 1_555
C4 H2 1_555 1_555
C5 H3 1_555 1_555
C6 C2 1_555 1_555
H4 C6 1_555 1_555
C7 C11 1_555 1_555
C8 C1 1_555 1_555
H5 C8 1_555 1_555
C9 N1 1_555 1_555
C10 H6 1_555 1_555
C11 C3 1_555 1_555
H7 C11 1_555 1_555
C12 C9 1_555 1_555
H8 C12 1_555 1_555
C13 C5 1_555 1_555
H9 C13 1_555 1_555
C14 C1 1_555 1_555
C15 C7 1_555 1_555
H10 C15 1_555 1_555
C17 C21 1_555 1_555
C18 C2 1_555 1_555
H12 C18 1_555 1_555
C19 C3 1_555 1_555
C20 C12 1_555 1_555
H13 C20 1_555 1_555
C21 C13 1_555 1_555
La5 O1 1_555 1_555
La5_2 O5 1_555 1_555
La6_2 O2 1_555 1_555
O13 La1 1_555 1_555
O15 La1 1_555 1_555
O17 La1 1_555 1_555
C4 C6 1_555 1_555
C5 C9 1_555 1_555
C8 C18 1_555 1_555
C10 C15 1_555 1_555
C10 C19 1_555 1_555
C16 C19 1_555 1_555
C20 C21 1_555 1_555
O7 La1_2 1_555 1_555
O8 C37 1_555 1_555
O9 C35 1_555 1_555
C22 C25 1_555 1_555
C23 N2 1_555 1_555
N2 C28 1_555 1_555
O10 C38 1_555 1_555
O17 C38 1_555 1_555
C24 H14 1_555 1_555
C25 H15 1_555 1_555
C26 H16 1_555 1_555
C27 C23 1_555 1_555
H17 C27 1_555 1_555
C28 C32 1_555 1_555
C29 C22 1_555 1_555
H18 C29 1_555 1_555
C30 N2 1_555 1_555
C31 H19 1_555 1_555
C32 C24 1_555 1_555
H20 C32 1_555 1_555
C33 C30 1_555 1_555
H21 C33 1_555 1_555
C34 C26 1_555 1_555
H22 C34 1_555 1_555
C35 O7 1_555 1_555
C36 C28 1_555 1_555
H23 C36 1_555 1_555
C38 C42 1_555 1_555
C39 C23 1_555 1_555
H25 C39 1_555 1_555
C40 C24 1_555 1_555
C41 C33 1_555 1_555
H26 C41 1_555 1_555
C42 C34 1_555 1_555
La3 O8 1_555 1_555
O14 La1_2 1_555 1_555
O16 La1_2 1_555 1_555
O18 La1_2 1_555 1_555
O9 La5_2 1_555 1_555
C22 C35 1_555 1_555
C25 C27 1_555 1_555
C26 C30 1_555 1_555
C29 C39 1_555 1_555
C31 C36 1_555 1_555
C31 C40 1_555 1_555
C37 C40 1_555 1_555
C41 C42 1_555 1_555
O12 H24 1_555 1_555
O10_2 C38_2 1_555 1_555
O11 C38_2 1_555 1_555
C38_2 C42_2 1_555 1_555
H26_2 C41_2 1_555 1_555
La3_2 O11 1_555 1_555
C41_2 C42_2 1_555 1_555
O7_2 La3 1_555 1_555
O9_2 C35_2 1_555 1_555
C22_2 C25_2 1_555 1_555
C23_2 N2_2 1_555 1_555
N2_2 C28_2 1_555 1_555
C25_2 H15_2 1_555 1_555
C26_2 H16_2 1_555 1_555
C27_2 C23_2 1_555 1_555
H17_2 C27_2 1_555 1_555
C28_2 C32_2 1_555 1_555
C29_2 C22_2 1_555 1_555
H18_2 C29_2 1_555 1_555
C30_2 N2_2 1_555 1_555
C31_2 H19_2 1_555 1_555
C33_2 C30_2 1_555 1_555
H21_2 C33_2 1_555 1_555
C34_2 C26_2 1_555 1_555
H22_2 C34_2 1_555 1_555
C35_2 O7_2 1_555 1_555
C36_2 C28_2 1_555 1_555
H23_2 C36_2 1_555 1_555
C39_2 C23_2 1_555 1_555
H25_2 C39_2 1_555 1_555
O16_2 La3 1_555 1_555
O18_2 La3 1_555 1_555
O9_2 La6 1_555 1_555
C22_2 C35_2 1_555 1_555
C25_2 C27_2 1_555 1_555
C26_2 C30_2 1_555 1_555
C29_2 C39_2 1_555 1_555
C31_2 C36_2 1_555 1_555
O8_2 C37_2 1_555 1_555
C24_2 H14_2 1_555 1_555
C37_2 O12_2 1_555 1_555
O12_2 H24_2 1_555 1_555
C40_2 C24_2 1_555 1_555
La3_3 O8_2 1_555 1_555
C37_2 C40_2 1_555 1_555
La3_2 O3_2 1_555 1_555
O1_2 C14_2 1_555 1_555
O3_2 C14_2 1_555 1_555
C1_2 C4_2 1_555 1_555
C2_2 N1_2 1_555 1_555
N1_2 C7_2 1_555 1_555
C4_2 H2_2 1_555 1_555
C5_2 H3_2 1_555 1_555
C6_2 C2_2 1_555 1_555
H4_2 C6_2 1_555 1_555
C7_2 C11_2 1_555 1_555
C8_2 C1_2 1_555 1_555
H5_2 C8_2 1_555 1_555
C9_2 N1_2 1_555 1_555
C10_2 H6_2 1_555 1_555
C12_2 C9_2 1_555 1_555
H8_2 C12_2 1_555 1_555
C13_2 C5_2 1_555 1_555
H9_2 C13_2 1_555 1_555
C14_2 C1_2 1_555 1_555
C15_2 C7_2 1_555 1_555
H10_2 C15_2 1_555 1_555
C18_2 C2_2 1_555 1_555
H12_2 C18_2 1_555 1_555
La6_2 O1_2 1_555 1_555
O13_2 La3_2 1_555 1_555
O15_2 La3_2 1_555 1_555
C4_2 C6_2 1_555 1_555
C5_2 C9_2 1_555 1_555
C8_2 C18_2 1_555 1_555
C10_2 C15_2 1_555 1_555
O2_2 C16_2 1_555 1_555
C3_2 H1_2 1_555 1_555
C16_2 O6_2 1_555 1_555
O6_2 H11_2 1_555 1_555
C19_2 C3_2 1_555 1_555
La6_3 O2_2 1_555 1_555
C16_2 C19_2 1_555 1_555
O4_2 C17_2 1_555 1_555
O5_2 C17_2 1_555 1_555
C17_2 C21_2 1_555 1_555
H13_2 C20_2 1_555 1_555
La6 O5_2 1_555 1_555
C20_2 C21_2 1_555 1_555
O4_3 C17_3 1_555 1_555
O5_3 C17_3 1_555 1_555
C17_3 C21_3 1_555 1_555
H13_3 C20_3 1_555 1_555
La6_3 O5_3 1_555 1_555
C20_3 C21_3 1_555 1_555
O12_3 H24_3 1_555 1_555
La3_3 O3_3 1_555 1_555
O1_3 C14_3 1_555 1_555
O2_3 C16_3 1_555 1_555
O3_3 C14_3 1_555 1_555
C1_3 C4_3 1_555 1_555
C2_3 N1_3 1_555 1_555
N1_3 C7_3 1_555 1_555
C3_3 H1_3 1_555 1_555
C4_3 H2_3 1_555 1_555
C5_3 H3_3 1_555 1_555
C6_3 C2_3 1_555 1_555
H4_3 C6_3 1_555 1_555
C7_3 C11_3 1_555 1_555
C8_3 C1_3 1_555 1_555
H5_3 C8_3 1_555 1_555
C9_3 N1_3 1_555 1_555
C10_3 H6_3 1_555 1_555
C11_3 C3_3 1_555 1_555
H7_3 C11_3 1_555 1_555
C12_3 C9_3 1_555 1_555
H8_3 C12_3 1_555 1_555
C13_3 C5_3 1_555 1_555
H9_3 C13_3 1_555 1_555
C14_3 C1_3 1_555 1_555
C15_3 C7_3 1_555 1_555
H10_3 C15_3 1_555 1_555
C18_3 C2_3 1_555 1_555
H12_3 C18_3 1_555 1_555
C19_3 C3_3 1_555 1_555
O7_3 La3_3 1_555 1_555
O14 C37_3 1_555 1_555
O9_3 C35_3 1_555 1_555
C22_3 C25_3 1_555 1_555
C23_3 N2_3 1_555 1_555
N2_3 C28_3 1_555 1_555
C24_3 H14_3 1_555 1_555
C25_3 H15_3 1_555 1_555
C26_3 H16_3 1_555 1_555
C27_3 C23_3 1_555 1_555
H17_3 C27_3 1_555 1_555
C28_3 C32_3 1_555 1_555
C29_3 C22_3 1_555 1_555
H18_3 C29_3 1_555 1_555
C30_3 N2_3 1_555 1_555
C31_3 H19_3 1_555 1_555
C32_3 C24_3 1_555 1_555
H20_3 C32_3 1_555 1_555
C33_3 C30_3 1_555 1_555
H21_3 C33_3 1_555 1_555
C34_3 C26_3 1_555 1_555
H22_3 C34_3 1_555 1_555
C35_3 O7_3 1_555 1_555
C36_3 C28_3 1_555 1_555
H23_3 C36_3 1_555 1_555
C39_3 C23_3 1_555 1_555
H25_3 C39_3 1_555 1_555
C40_3 C24_3 1_555 1_555
La6_3 O1_3 1_555 1_555
La5 O2_3 1_555 1_555
O13_3 La3_3 1_555 1_555
O15_3 La3_3 1_555 1_555
O16_3 La3_3 1_555 1_555
O17_2 La3_3 1_555 1_555
O18_3 La3_3 1_555 1_555
C4_3 C6_3 1_555 1_555
C5_3 C9_3 1_555 1_555
C8_3 C18_3 1_555 1_555
C10_3 C15_3 1_555 1_555
C10_3 C19_3 1_555 1_555
C16_3 C19_3 1_555 1_555
O9_3 La6_3 1_555 1_555
C22_3 C35_3 1_555 1_555
C25_3 C27_3 1_555 1_555
C26_3 C30_3 1_555 1_555
C29_3 C39_3 1_555 1_555
C31_3 C36_3 1_555 1_555
C31_3 C40_3 1_555 1_555
C37_3 C40_3 1_555 1_555
O6_3 H11_3 1_555 1_555
O10_3 C38_3 1_555 1_555
O17_2 C38_3 1_555 1_555
C38_3 C42_3 1_555 1_555
H26_3 C41_3 1_555 1_555
C41_3 C42_3 1_555 1_555
O16_4 La5 1_555 1_555
O18_4 La5 1_555 1_555
O13_4 La5_2 1_555 1_555
O15_4 La5_2 1_555 1_555
O13_5 La6 1_555 1_555
O15_5 La6 1_555 1_555
O16_5 La6_2 1_555 1_555
O18_5 La6_2 1_555 1_555
O13_6 La6_3 1_555 1_555
O15_6 La6_3 1_555 1_555
O16_6 La6_3 1_555 1_555
O18_6 La6_3 1_555 1_555
O6_4 H11_4 1_555 1_555
O13_5 C14_4 1_555 1_555
O15_4 C16_4 1_555 1_555
O16_2 C14_4 1_555 1_555
C1_4 C4_4 1_555 1_555
C2_4 N1_4 1_555 1_555
N1_4 C7_4 1_555 1_555
O4_4 C17_4 1_555 1_555
O18_5 C17_4 1_555 1_555
C3_4 H1_4 1_555 1_555
C4_4 H2_4 1_555 1_555
C5_4 H3_4 1_555 1_555
C6_4 C2_4 1_555 1_555
H4_4 C6_4 1_555 1_555
C7_4 C11_4 1_555 1_555
C8_4 C1_4 1_555 1_555
H5_4 C8_4 1_555 1_555
C9_4 N1_4 1_555 1_555
C10_4 H6_4 1_555 1_555
C11_4 C3_4 1_555 1_555
H7_4 C11_4 1_555 1_555
C12_4 C9_4 1_555 1_555
H8_4 C12_4 1_555 1_555
C13_4 C5_4 1_555 1_555
H9_4 C13_4 1_555 1_555
C14_4 C1_4 1_555 1_555
C15_4 C7_4 1_555 1_555
H10_4 C15_4 1_555 1_555
C17_4 C21_4 1_555 1_555
C18_4 C2_4 1_555 1_555
H12_4 C18_4 1_555 1_555
C19_4 C3_4 1_555 1_555
C20_4 C12_4 1_555 1_555
H13_4 C20_4 1_555 1_555
C21_4 C13_4 1_555 1_555
C4_4 C6_4 1_555 1_555
C5_4 C9_4 1_555 1_555
C8_4 C18_4 1_555 1_555
C10_4 C15_4 1_555 1_555
C10_4 C19_4 1_555 1_555
C16_4 C19_4 1_555 1_555
C20_4 C21_4 1_555 1_555
O15 C37_4 1_555 1_555
O16_5 C35_4 1_555 1_555
C22_4 C25_4 1_555 1_555
C23_4 N2_4 1_555 1_555
N2_4 C28_4 1_555 1_555
O10_4 C38_4 1_555 1_555
O18_2 C38_4 1_555 1_555
C24_4 H14_4 1_555 1_555
C25_4 H15_4 1_555 1_555
C26_4 H16_4 1_555 1_555
C27_4 C23_4 1_555 1_555
H17_4 C27_4 1_555 1_555
C28_4 C32_4 1_555 1_555
C29_4 C22_4 1_555 1_555
H18_4 C29_4 1_555 1_555
C30_4 N2_4 1_555 1_555
C31_4 H19_4 1_555 1_555
C32_4 C24_4 1_555 1_555
H20_4 C32_4 1_555 1_555
C33_4 C30_4 1_555 1_555
H21_4 C33_4 1_555 1_555
C34_4 C26_4 1_555 1_555
H22_4 C34_4 1_555 1_555
C35_4 O13_2 1_555 1_555
C36_4 C28_4 1_555 1_555
H23_4 C36_4 1_555 1_555
C38_4 C42_4 1_555 1_555
C39_4 C23_4 1_555 1_555
H25_4 C39_4 1_555 1_555
C40_4 C24_4 1_555 1_555
C41_4 C33_4 1_555 1_555
H26_4 C41_4 1_555 1_555
C42_4 C34_4 1_555 1_555
C22_4 C35_4 1_555 1_555
C25_4 C27_4 1_555 1_555
C26_4 C30_4 1_555 1_555
C29_4 C39_4 1_555 1_555
C31_4 C36_4 1_555 1_555
C31_4 C40_4 1_555 1_555
C37_4 C40_4 1_555 1_555
C41_4 C42_4 1_555 1_555
O12_4 H24_4 1_555 1_555
O10_5 C38_5 1_555 1_555
O18 C38_5 1_555 1_555
C38_5 C42_5 1_555 1_555
H26_5 C41_5 1_555 1_555
C41_5 C42_5 1_555 1_555
O15_3 C37_5 1_555 1_555
O16_4 C35_5 1_555 1_555
C22_5 C25_5 1_555 1_555
C23_5 N2_5 1_555 1_555
N2_5 C28_5 1_555 1_555
C24_5 H14_5 1_555 1_555
C25_5 H15_5 1_555 1_555
C26_5 H16_5 1_555 1_555
C27_5 C23_5 1_555 1_555
H17_5 C27_5 1_555 1_555
C28_5 C32_5 1_555 1_555
C29_5 C22_5 1_555 1_555
H18_5 C29_5 1_555 1_555
C30_5 N2_5 1_555 1_555
C31_5 H19_5 1_555 1_555
C32_5 C24_5 1_555 1_555
H20_5 C32_5 1_555 1_555
C33_5 C30_5 1_555 1_555
H21_5 C33_5 1_555 1_555
C34_5 C26_5 1_555 1_555
H22_5 C34_5 1_555 1_555
C35_5 O13 1_555 1_555
C36_5 C28_5 1_555 1_555
H23_5 C36_5 1_555 1_555
C37_5 O12_5 1_555 1_555
O12_5 H24_5 1_555 1_555
C39_5 C23_5 1_555 1_555
H25_5 C39_5 1_555 1_555
C40_5 C24_5 1_555 1_555
C22_5 C35_5 1_555 1_555
C25_5 C27_5 1_555 1_555
C26_5 C30_5 1_555 1_555
C29_5 C39_5 1_555 1_555
C31_5 C36_5 1_555 1_555
C31_5 C40_5 1_555 1_555
C37_5 C40_5 1_555 1_555
O13_4 C14_5 1_555 1_555
O15_6 C16_5 1_555 1_555
O16 C14_5 1_555 1_555
C1_5 C4_5 1_555 1_555
C2_5 N1_5 1_555 1_555
N1_5 C7_5 1_555 1_555
C3_5 H1_5 1_555 1_555
C4_5 H2_5 1_555 1_555
C5_5 H3_5 1_555 1_555
C6_5 C2_5 1_555 1_555
H4_5 C6_5 1_555 1_555
C7_5 C11_5 1_555 1_555
C8_5 C1_5 1_555 1_555
H5_5 C8_5 1_555 1_555
C9_5 N1_5 1_555 1_555
C10_5 H6_5 1_555 1_555
C11_5 C3_5 1_555 1_555
H7_5 C11_5 1_555 1_555
C12_5 C9_5 1_555 1_555
H8_5 C12_5 1_555 1_555
C13_5 C5_5 1_555 1_555
H9_5 C13_5 1_555 1_555
C14_5 C1_5 1_555 1_555
C15_5 C7_5 1_555 1_555
H10_5 C15_5 1_555 1_555
C16_5 O6_5 1_555 1_555
O6_5 H11_5 1_555 1_555
C18_5 C2_5 1_555 1_555
H12_5 C18_5 1_555 1_555
C19_5 C3_5 1_555 1_555
C4_5 C6_5 1_555 1_555
C5_5 C9_5 1_555 1_555
C8_5 C18_5 1_555 1_555
C10_5 C15_5 1_555 1_555
C10_5 C19_5 1_555 1_555
C16_5 C19_5 1_555 1_555
O4_5 C17_5 1_555 1_555
O18_4 C17_5 1_555 1_555
C17_5 C21_5 1_555 1_555
H13_5 C20_5 1_555 1_555
C20_5 C21_5 1_555 1_555
O12_6 H24_6 1_555 1_555
O4_6 C17_6 1_555 1_555
O18_6 C17_6 1_555 1_555
C17_6 C21_6 1_555 1_555
H13_6 C20_6 1_555 1_555
C20_6 C21_6 1_555 1_555
O15_5 C16_6 1_555 1_555
C3_6 H1_6 1_555 1_555
C19_6 C3_6 1_555 1_555
O15_2 C37_6 1_555 1_555
C24_6 H14_6 1_555 1_555
C40_6 C24_6 1_555 1_555
C16_6 C19_6 1_555 1_555
C37_6 C40_6 1_555 1_555
O13_6 C14_6 1_555 1_555
O16_3 C14_6 1_555 1_555
C1_6 C4_6 1_555 1_555
C2_6 N1_6 1_555 1_555
N1_6 C7_6 1_555 1_555
C4_6 H2_6 1_555 1_555
C5_6 H3_6 1_555 1_555
C6_6 C2_6 1_555 1_555
H4_6 C6_6 1_555 1_555
C7_6 C11_6 1_555 1_555
C8_6 C1_6 1_555 1_555
H5_6 C8_6 1_555 1_555
C9_6 N1_6 1_555 1_555
C10_6 H6_6 1_555 1_555
C12_6 C9_6 1_555 1_555
H8_6 C12_6 1_555 1_555
C13_6 C5_6 1_555 1_555
H9_6 C13_6 1_555 1_555
C14_6 C1_6 1_555 1_555
C15_6 C7_6 1_555 1_555
H10_6 C15_6 1_555 1_555
C18_6 C2_6 1_555 1_555
H12_6 C18_6 1_555 1_555
O16_6 C35_6 1_555 1_555
C22_6 C25_6 1_555 1_555
C23_6 N2_6 1_555 1_555
N2_6 C28_6 1_555 1_555
C25_6 H15_6 1_555 1_555
C26_6 H16_6 1_555 1_555
C27_6 C23_6 1_555 1_555
H17_6 C27_6 1_555 1_555
C28_6 C32_6 1_555 1_555
C29_6 C22_6 1_555 1_555
H18_6 C29_6 1_555 1_555
C30_6 N2_6 1_555 1_555
C31_6 H19_6 1_555 1_555
C33_6 C30_6 1_555 1_555
H21_6 C33_6 1_555 1_555
C34_6 C26_6 1_555 1_555
H22_6 C34_6 1_555 1_555
C35_6 O13_3 1_555 1_555
C36_6 C28_6 1_555 1_555
H23_6 C36_6 1_555 1_555
C39_6 C23_6 1_555 1_555
H25_6 C39_6 1_555 1_555
C4_6 C6_6 1_555 1_555
C5_6 C9_6 1_555 1_555
C8_6 C18_6 1_555 1_555
C10_6 C15_6 1_555 1_555
C22_6 C35_6 1_555 1_555
C25_6 C27_6 1_555 1_555
C26_6 C30_6 1_555 1_555
C29_6 C39_6 1_555 1_555
C31_6 C36_6 1_555 1_555
O10_6 C38_6 1_555 1_555
O18_3 C38_6 1_555 1_555
C38_6 C42_6 1_555 1_555
H26_6 C41_6 1_555 1_555
C41_6 C42_6 1_555 1_555
O6_6 H11_6 1_555 1_555
N3 H27 1_555 1_555
C43 H28 1_555 1_555
C44 C43 1_555 1_555
H29 C44 1_555 1_555
C45 N3 1_555 1_555
H30 C45 1_555 1_555
C44 C45 1_555 1_555
N3_2 H27_2 1_555 1_555
C43_2 H28_2 1_555 1_555
C46 C43_2 1_555 1_555
H31 C46 1_555 1_555
C47 N3_2 1_555 1_555
H32 C47 1_555 1_555
C46 C47 1_555 1_555
N3_3 H27_3 1_555 1_555
C45_2 N3_3 1_555 1_555
H30_2 C45_2 1_555 1_555
C47_2 N3_3 1_555 1_555
H32_2 C47_2 1_555 1_555
C43_3 H28_3 1_555 1_555
C44_2 C43_3 1_555 1_555
H29_2 C44_2 1_555 1_555
C46_2 C43_3 1_555 1_555
H31_2 C46_2 1_555 1_555
N3_4 H27_4 1_555 1_555
C43_4 H28_4 1_555 1_555
C46_3 C43_4 1_555 1_555
H31_3 C46_3 1_555 1_555
C47_3 N3_4 1_555 1_555
H32_3 C47_3 1_555 1_555
C46_3 C47_3 1_555 1_555
N3_5 H27_5 1_555 1_555
C43_5 H28_5 1_555 1_555
C44_3 C43_5 1_555 1_555
H29_3 C44_3 1_555 1_555
C45_3 N3_5 1_555 1_555
H30_3 C45_3 1_555 1_555
C44_3 C45_3 1_555 1_555
N3_6 H27_6 1_555 1_555
C43_6 H28_6 1_555 1_555
C44_4 C43_6 1_555 1_555
H29_4 C44_4 1_555 1_555
C45_4 N3_6 1_555 1_555
H30_4 C45_4 1_555 1_555
C44_4 C45_4 1_555 1_555
N3_7 H27_7 1_555 1_555
C43_7 H28_7 1_555 1_555
C46_4 C43_7 1_555 1_555
H31_4 C46_4 1_555 1_555
C47_4 N3_7 1_555 1_555
H32_4 C47_4 1_555 1_555
C46_4 C47_4 1_555 1_555
N3_8 H27_8 1_555 1_555
C43_8 H28_8 1_555 1_555
C44_5 C43_8 1_555 1_555
H29_5 C44_5 1_555 1_555
C45_5 N3_8 1_555 1_555
H30_5 C45_5 1_555 1_555
C46_5 C43_8 1_555 1_555
H31_5 C46_5 1_555 1_555
C47_5 N3_8 1_555 1_555
H32_5 C47_5 1_555 1_555
C44_5 C45_5 1_555 1_555
C46_5 C47_5 1_555 1_555
C43_9 H28_9 1_555 1_555
C46_6 C43_9 1_555 1_555
H31_6 C46_6 1_555 1_555
N3_9 H27_9 1_555 1_555
C47_6 N3_9 1_555 1_555
H32_6 C47_6 1_555 1_555
C43_10 H28_10 1_555 1_555
C44_6 C43_10 1_555 1_555
H29_6 C44_6 1_555 1_555
N3_10 H27_10 1_555 1_555
C45_6 N3_10 1_555 1_555
H30_6 C45_6 1_555 1_555

#END
