
###############################################################################
#
# This file contains modified crystal structure data generated from the
# MOF subset of the Cambridge Structural Database (CSD) v543 
# hosted by the Cambridge Crystallographic Data Centre (CCDC).
#
# This work is licensed under the Creative Commons
# Attribution-NonCommercial-ShareAlike 4.0 International License.
# To view a copy of this license, visit
# http://creativecommons.org/licenses/by-nc-sa/4.0/
# or send a letter to
# Creative Commons, PO Box 1866, Mountain View, CA 94042, USA.
#
# CIF created using the CSD Python API on 29 September 2022
# The structure has been converted into the P1 space group
# The structure has a 3D framework
# The original CSD entry RAGYAB is in the tetragonal crystal system
# The original CSD entry RAGYAB is in a Sohncke space group
# The framework has been calculated to contain at least 10.0% void space
# The void calculation uses a probe of radius 1.32A, grid spacing 0.4
# H atom positions have been added when not included in the experimental data
#
###############################################################################

data_RAGYAB
_chemical_formula_moiety         '(C32 H52 Ba4 Ge7 O68)n'
_symmetry_cell_setting           triclinic
_symmetry_space_group_name_H-M   'P 1'
_symmetry_Int_Tables_number      1
_space_group_name_Hall           'P 1'
loop_
_symmetry_equiv_pos_site_id
_symmetry_equiv_pos_as_xyz
1 x,y,z
_cell_length_a                   8.5033(2)
_cell_length_b                   8.5033(2)
_cell_length_c                   30.9393(11)
_cell_angle_alpha                90
_cell_angle_beta                 90
_cell_angle_gamma                90
_cell_volume                     2237.1
loop_
_atom_site_label
_atom_site_type_symbol
_atom_site_fract_x
_atom_site_fract_y
_atom_site_fract_z
Ba1 Ba 0.50239(4) 0.50386(3) 0.422220(5)
O9 O 0.1040(3) 0.1278(3) 0.38809(8)
O11 O 0.1711(3) 0.1460(3) 0.49970(9)
O12 O 0.2533(3) 0.3601(3) 0.46489(10)
O14 O 0.0968(3) 0.0992(3) 0.30081(9)
O15 O 0.3774(4) 0.7123(5) 0.47930(12)
O16 O 0.5952(4) 0.2355(4) 0.46638(12)
O17 O 0.5845(4) 0.7902(4) 0.38307(13)
O18 O 0.4512(6) 0.4472(6) 0.33414(19)
C6 C 0.0166(4) 0.2604(4) 0.40101(12)
H3 H 0.0741 0.3552 0.3923
C8 C 0.1525(4) 0.2617(5) 0.47191(12)
H6 H 0.1838 0.0960 0.3004
H7 H 0.4171 0.7448 0.5074
H8 H 0.3008 0.7985 0.4780
H9 H 0.5763 0.2253 0.4905
H10 H 0.6980 0.1983 0.4632
H11 H 0.5376 0.8906 0.3956
H12 H 0.6588 0.8491 0.3876
H13 H 0.3638 0.4754 0.3220
Ge3 Ge 0.00319(5) 0.00136(6) 0.251600(12)
O19 O 0.2439(3) 0.6427(3) 0.38881(10)
O20 O 0.7531(3) 0.6366(4) 0.46774(10)
O21 O 0.7619(3) 0.3663(3) 0.38538(9)
H14 H 0.460866 0.331867 0.329865
Ge2 Ge 0.00027(5) 0.99961(5) 0.349930(12)
O1 O 0.1686(3) 0.8539(3) 0.35235(9)
O4 O 0.0976(3) 0.8700(3) 0.46401(9)
C1 C 0.1474(4) 0.7429(4) 0.37985(13)
C3 C 0.0079(4) 0.7407(4) 0.45059(12)
H2 H 0.0640 0.6444 0.4587
O22 O 0.0966(3) 0.9063(3) 0.55022(8)
Ge1 Ge 0.99864(6) 0.00319(5) 0.501600(12)
O7 O 0.8314(3) 0.1463(3) 0.35236(9)
O10 O 0.8995(3) 0.1369(3) 0.46437(8)
C5 C 0.8564(4) 0.2617(4) 0.37891(12)
C7 C 0.9929(4) 0.2648(4) 0.44999(12)
H4 H 0.9397 0.3631 0.4576
O23 O 0.9008(3) 0.0968(3) 0.55081(9)
O3 O 0.8942(3) 0.8686(3) 0.38739(9)
O5 O 0.8265(3) 0.8588(3) 0.49915(9)
O13 O 0.9063(3) 0.9034(3) 0.30022(8)
C2 C 0.9853(4) 0.7403(4) 0.40118(11)
H1 H 0.9315 0.6429 0.3929
C4 C 0.8484(4) 0.7405(5) 0.47318(12)
H5 H 0.8088 0.9007 0.2987
O3_2 O 0.1058(3) 0.1314(3) 0.88739(9)
O5_2 O 0.1735(3) 0.1412(3) 0.99915(9)
O6 O 0.2469(3) 0.3634(4) 0.96774(10)
O13_2 O 0.0937(3) 0.0966(3) 0.80022(8)
C2_2 C 0.0147(4) 0.2597(4) 0.90118(11)
H1_2 H 0.0685 0.3571 0.8929
C4_2 C 0.1516(4) 0.2595(5) 0.97318(12)
H5_2 H 0.1912 0.0993 0.7987
Ba4 Ba 0.49761(4) 0.49614(3) 0.922220(5)
Ge1_2 Ge 0.00136(6) 0.99681(5) 0.001600(12)
O23_2 O 0.0992(3) 0.9032(3) 0.05081(9)
O7_2 O 0.1686(3) 0.8537(3) 0.85236(9)
O8 O 0.2381(3) 0.6337(3) 0.88538(9)
O10_2 O 0.1005(3) 0.8631(3) 0.96437(8)
C5_2 C 0.1436(4) 0.7383(4) 0.87891(12)
C7_2 C 0.0071(4) 0.7352(4) 0.94999(12)
H4_2 H 0.0603 0.6369 0.9576
O22_2 O 0.9034(3) 0.0937(3) 0.05022(8)
Ge2_2 Ge 0.99973(5) 0.00039(5) 0.849930(12)
O1_2 O 0.8314(3) 0.1461(3) 0.85235(9)
O2 O 0.7561(3) 0.3573(3) 0.88881(10)
O4_2 O 0.9024(3) 0.1300(3) 0.96401(9)
C1_2 C 0.8526(4) 0.2571(4) 0.87985(13)
C3_2 C 0.9921(4) 0.2593(4) 0.95059(12)
H2_2 H 0.9360 0.3556 0.9587
O9_2 O 0.8960(3) 0.8722(3) 0.88809(8)
O11_2 O 0.8289(3) 0.8540(3) 0.99970(9)
O12_2 O 0.7467(3) 0.6399(3) 0.96489(10)
O14_2 O 0.9032(3) 0.9008(3) 0.80081(9)
O15_2 O 0.6226(4) 0.2877(5) 0.97930(12)
O16_2 O 0.4048(4) 0.7645(4) 0.96638(12)
O17_2 O 0.4155(4) 0.2098(4) 0.88307(13)
O18_2 O 0.5488(6) 0.5528(6) 0.83414(19)
C6_2 C 0.9834(4) 0.7396(4) 0.90101(12)
H3_2 H 0.9259 0.6448 0.8923
C8_2 C 0.8475(4) 0.7383(5) 0.97191(12)
H6_2 H 0.8162 0.9040 0.8004
H8_2 H 0.6992 0.2015 0.9780
H9_2 H 0.4237 0.7747 0.9905
H10_2 H 0.3020 0.8017 0.9632
H11_2 H 0.4624 0.1094 0.8956
H12_2 H 0.3412 0.1509 0.8876
H13_2 H 0.6362 0.5246 0.8220
Ge3_2 Ge 0.99681(5) 0.99864(6) 0.751600(12)
H14_2 H 0.539134 0.668133 0.829865
Ge2_3 Ge 0.00039(5) 0.00027(5) 0.599930(12)
O1_3 O 0.1461(3) 0.1686(3) 0.60235(9)
O2_2 O 0.3573(3) 0.2439(3) 0.63881(10)
O4_3 O 0.1300(3) 0.0976(3) 0.71401(9)
C1_3 C 0.2571(4) 0.1474(4) 0.62985(13)
C3_3 C 0.2593(4) 0.0079(4) 0.70059(12)
H2_3 H 0.3556 0.0640 0.7087
Ba2 Ba 0.49614(3) 0.50239(4) 0.672220(5)
O3_3 O 0.1314(3) 0.8942(3) 0.63739(9)
O5_3 O 0.1412(3) 0.8265(3) 0.74915(9)
O6_2 O 0.3634(4) 0.7531(3) 0.71774(10)
C2_3 C 0.2597(4) 0.9853(4) 0.65118(11)
H1_3 H 0.3571 0.9315 0.6429
C4_3 C 0.2595(5) 0.8484(4) 0.72318(12)
H5_3 H 0.0993 0.8088 0.5487
O9_3 O 0.8722(3) 0.1040(3) 0.63809(8)
O11_3 O 0.8540(3) 0.1711(3) 0.74970(9)
O12_3 O 0.6399(3) 0.2533(3) 0.71489(10)
O15_3 O 0.2877(5) 0.3774(4) 0.72930(12)
O16_3 O 0.7645(4) 0.5952(4) 0.71638(12)
O17_3 O 0.2098(4) 0.5845(4) 0.63307(13)
O18_3 O 0.5528(6) 0.4512(6) 0.58414(19)
C6_3 C 0.7396(4) 0.0166(4) 0.65101(12)
H3_3 H 0.6448 0.0741 0.6423
C8_3 C 0.7383(5) 0.1525(4) 0.72191(12)
H6_3 H 0.9040 0.1838 0.5504
H7_2 H 0.2552 0.4171 0.7574
H8_3 H 0.2015 0.3008 0.7280
H9_3 H 0.7747 0.5763 0.7405
H10_3 H 0.8017 0.6980 0.7132
H11_3 H 0.1094 0.5376 0.6456
H12_3 H 0.1509 0.6588 0.6376
H13_3 H 0.5246 0.3638 0.5720
O21_2 O 0.6337(3) 0.7619(3) 0.63538(9)
H14_3 H 0.668133 0.460866 0.579865
O7_3 O 0.8537(3) 0.8314(3) 0.60236(9)
O10_3 O 0.8631(3) 0.8995(3) 0.71437(8)
C5_3 C 0.7383(4) 0.8564(4) 0.62891(12)
C7_3 C 0.7352(4) 0.9929(4) 0.69999(12)
H4_3 H 0.6369 0.9397 0.7076
O7_4 O 0.1463(3) 0.1686(3) 0.10236(9)
O8_2 O 0.3663(3) 0.2381(3) 0.13538(9)
O10_4 O 0.1369(3) 0.1005(3) 0.21437(8)
C5_4 C 0.2617(4) 0.1436(4) 0.12891(12)
C7_4 C 0.2648(4) 0.0071(4) 0.19999(12)
H4_4 H 0.3631 0.0603 0.2076
Ba3 Ba 0.50386(3) 0.49761(4) 0.172220(5)
O9_4 O 0.1278(3) 0.8960(3) 0.13809(8)
O11_4 O 0.1460(3) 0.8289(3) 0.24970(9)
O12_4 O 0.3601(3) 0.7467(3) 0.21489(10)
O15_4 O 0.7123(5) 0.6226(4) 0.22930(12)
O16_4 O 0.2355(4) 0.4048(4) 0.21638(12)
O17_4 O 0.7902(4) 0.4155(4) 0.13307(13)
O18_4 O 0.4472(6) 0.5488(6) 0.08414(19)
C6_4 C 0.2604(4) 0.9834(4) 0.15101(12)
H3_4 H 0.3552 0.9259 0.1423
C8_4 C 0.2617(5) 0.8475(4) 0.22191(12)
H6_4 H 0.0960 0.8162 0.0504
H7_3 H 0.7448 0.5829 0.2574
H8_4 H 0.7985 0.6992 0.2280
H9_4 H 0.2253 0.4237 0.2405
H10_4 H 0.1983 0.3020 0.2132
H11_4 H 0.8906 0.4624 0.1456
H12_4 H 0.8491 0.3412 0.1376
H13_4 H 0.4754 0.6362 0.0720
O19_2 O 0.6427(3) 0.7561(3) 0.13881(10)
O20_2 O 0.6366(4) 0.2469(3) 0.21774(10)
H14_4 H 0.331867 0.539134 0.0798653
O3_4 O 0.8686(3) 0.1058(3) 0.13739(9)
O5_4 O 0.8588(3) 0.1735(3) 0.24915(9)
C2_4 C 0.7403(4) 0.0147(4) 0.15118(11)
H1_4 H 0.6429 0.0685 0.1429
C4_4 C 0.7405(5) 0.1516(4) 0.22318(12)
H5_4 H 0.9007 0.1912 0.0487
Ge2_4 Ge 0.99961(5) 0.99973(5) 0.099930(12)
O1_4 O 0.8539(3) 0.8314(3) 0.10235(9)
O4_4 O 0.8700(3) 0.9024(3) 0.21401(9)
C1_4 C 0.7429(4) 0.8526(4) 0.12985(13)
C3_4 C 0.7407(4) 0.9921(4) 0.20059(12)
H2_4 H 0.6444 0.9360 0.2087
H7_4 H 0.5829 0.2552 0.0074
loop_
_geom_bond_atom_site_label_1
_geom_bond_atom_site_label_2
_geom_bond_site_symmetry_1
_geom_bond_site_symmetry_2
Ba1 O12 1_555 1_555
O12 C8 1_555 1_555
O15 Ba1 1_555 1_555
O16 Ba1 1_555 1_555
O17 Ba1 1_555 1_555
O18 Ba1 1_555 1_555
C6 O9 1_555 1_555
H3 C6 1_555 1_555
C8 O11 1_555 1_555
H6 O14 1_555 1_555
H7 O15 1_555 1_555
H8 O15 1_555 1_555
H9 O16 1_555 1_555
H10 O16 1_555 1_555
H11 O17 1_555 1_555
H12 O17 1_555 1_555
H13 O18 1_555 1_555
O19 Ba1 1_555 1_555
O20 Ba1 1_555 1_555
O21 Ba1 1_555 1_555
O14 Ge3 1_555 1_555
O18 H14 1_555 1_555
Ge2 O1 1_555 1_555
O1 C1 1_555 1_555
O19 C1 1_555 1_555
O4 C3 1_555 1_555
H2 C3 1_555 1_555
O21 C5 1_555 1_555
O10 Ge1 1_555 1_555
C5 O7 1_555 1_555
C7 O10 1_555 1_555
H4 C7 1_555 1_555
O23 Ge1 1_555 1_555
O20 C4 1_555 1_555
C2 O3 1_555 1_555
H1 C2 1_555 1_555
C4 O5 1_555 1_555
H5 O13 1_555 1_555
O6 C4_2 1_555 1_555
C2_2 O3_2 1_555 1_555
H1_2 C2_2 1_555 1_555
C4_2 O5_2 1_555 1_555
H5_2 O13_2 1_555 1_555
Ba4 O6 1_555 1_555
O23_2 Ge1_2 1_555 1_555
O8 C5_2 1_555 1_555
C5_2 O7_2 1_555 1_555
C7_2 O10_2 1_555 1_555
H4_2 C7_2 1_555 1_555
Ba4 O8 1_555 1_555
Ge2_2 O1_2 1_555 1_555
O1_2 C1_2 1_555 1_555
O2 C1_2 1_555 1_555
O4_2 C3_2 1_555 1_555
H2_2 C3_2 1_555 1_555
Ba4 O2 1_555 1_555
Ba4 O12_2 1_555 1_555
O12_2 C8_2 1_555 1_555
O15_2 Ba4 1_555 1_555
O16_2 Ba4 1_555 1_555
O17_2 Ba4 1_555 1_555
O18_2 Ba4 1_555 1_555
C6_2 O9_2 1_555 1_555
H3_2 C6_2 1_555 1_555
C8_2 O11_2 1_555 1_555
H6_2 O14_2 1_555 1_555
H8_2 O15_2 1_555 1_555
H9_2 O16_2 1_555 1_555
H10_2 O16_2 1_555 1_555
H11_2 O17_2 1_555 1_555
H12_2 O17_2 1_555 1_555
H13_2 O18_2 1_555 1_555
O14_2 Ge3_2 1_555 1_555
O18_2 H14_2 1_555 1_555
Ge2_3 O1_3 1_555 1_555
O1_3 C1_3 1_555 1_555
O2_2 C1_3 1_555 1_555
O4_3 C3_3 1_555 1_555
H2_3 C3_3 1_555 1_555
Ba2 O2_2 1_555 1_555
O6_2 C4_3 1_555 1_555
C2_3 O3_3 1_555 1_555
H1_3 C2_3 1_555 1_555
C4_3 O5_3 1_555 1_555
H5_3 O22 1_555 1_555
Ba2 O6_2 1_555 1_555
Ba2 O12_3 1_555 1_555
O12_3 C8_3 1_555 1_555
O15_3 Ba2 1_555 1_555
O16_3 Ba2 1_555 1_555
O17_3 Ba2 1_555 1_555
O18_3 Ba2 1_555 1_555
C6_3 O9_3 1_555 1_555
H3_3 C6_3 1_555 1_555
C8_3 O11_3 1_555 1_555
H6_3 O23 1_555 1_555
H7_2 O15_3 1_555 1_555
H8_3 O15_3 1_555 1_555
H9_3 O16_3 1_555 1_555
H10_3 O16_3 1_555 1_555
H11_3 O17_3 1_555 1_555
H12_3 O17_3 1_555 1_555
H13_3 O18_3 1_555 1_555
O21_2 Ba2 1_555 1_555
O18_3 H14_3 1_555 1_555
O21_2 C5_3 1_555 1_555
O10_3 Ge3_2 1_555 1_555
C5_3 O7_3 1_555 1_555
C7_3 O10_3 1_555 1_555
H4_3 C7_3 1_555 1_555
O8_2 C5_4 1_555 1_555
O10_4 Ge3 1_555 1_555
C5_4 O7_4 1_555 1_555
C7_4 O10_4 1_555 1_555
H4_4 C7_4 1_555 1_555
Ba3 O8_2 1_555 1_555
Ba3 O12_4 1_555 1_555
O12_4 C8_4 1_555 1_555
O15_4 Ba3 1_555 1_555
O16_4 Ba3 1_555 1_555
O17_4 Ba3 1_555 1_555
O18_4 Ba3 1_555 1_555
C6_4 O9_4 1_555 1_555
H3_4 C6_4 1_555 1_555
C8_4 O11_4 1_555 1_555
H6_4 O23_2 1_555 1_555
H7_3 O15_4 1_555 1_555
H8_4 O15_4 1_555 1_555
H9_4 O16_4 1_555 1_555
H10_4 O16_4 1_555 1_555
H11_4 O17_4 1_555 1_555
H12_4 O17_4 1_555 1_555
H13_4 O18_4 1_555 1_555
O19_2 Ba3 1_555 1_555
O20_2 Ba3 1_555 1_555
O18_4 H14_4 1_555 1_555
O20_2 C4_4 1_555 1_555
C2_4 O3_4 1_555 1_555
H1_4 C2_4 1_555 1_555
C4_4 O5_4 1_555 1_555
H5_4 O22_2 1_555 1_555
Ge2_4 O1_4 1_555 1_555
O1_4 C1_4 1_555 1_555
O19_2 C1_4 1_555 1_555
O4_4 C3_4 1_555 1_555
H2_4 C3_4 1_555 1_555

#END
