
###############################################################################
#
# This file contains modified crystal structure data generated from the
# MOF subset of the Cambridge Structural Database (CSD) v543 
# hosted by the Cambridge Crystallographic Data Centre (CCDC).
#
# This work is licensed under the Creative Commons
# Attribution-NonCommercial-ShareAlike 4.0 International License.
# To view a copy of this license, visit
# http://creativecommons.org/licenses/by-nc-sa/4.0/
# or send a letter to
# Creative Commons, PO Box 1866, Mountain View, CA 94042, USA.
#
# CIF created using the CSD Python API on 29 September 2022
# The structure has been converted into the P1 space group
# The structure has a 3D framework
# The original CSD entry RAHBUZ is in the orthorhombic crystal system
# The original CSD entry RAHBUZ is in a Sohncke space group
# The framework has been calculated to contain at least 10.0% void space
# The void calculation uses a probe of radius 1.32A, grid spacing 0.4
#
###############################################################################

data_RAHBUZ
_chemical_formula_moiety         '(C72 H84 N4 O32 Zn6)n'
_symmetry_cell_setting           triclinic
_symmetry_space_group_name_H-M   'P 1'
_symmetry_Int_Tables_number      1
_space_group_name_Hall           'P 1'
loop_
_symmetry_equiv_pos_site_id
_symmetry_equiv_pos_as_xyz
1 x,y,z
_cell_length_a                   10.1209(5)
_cell_length_b                   13.9753(6)
_cell_length_c                   18.0091(7)
_cell_angle_alpha                90
_cell_angle_beta                 90
_cell_angle_gamma                90
_cell_volume                     2547.25
loop_
_atom_site_label
_atom_site_type_symbol
_atom_site_fract_x
_atom_site_fract_y
_atom_site_fract_z
O5 O 0.1228(4) 0.2517(3) 0.3133(3)
O6 O 0.0230(4) 0.3883(3) 0.3308(3)
C3 C 0.0186(5) 0.2995(4) 0.3227(3)
Zn6 Zn 0.23980(5) 0.36410(4) 0.34091(3)
Zn1 Zn 0.44480(6) 0.52352(4) 0.41257(3)
O1 O 0.5509(4) 0.4182(3) 0.3749(2)
O2 O 0.4140(3) 0.3002(3) 0.3418(3)
C1 C 0.5277(5) 0.3344(4) 0.3556(3)
O3 O 0.6631(4) 0.0849(3) 0.1612(2)
C2 C 0.7062(5) 0.0495(4) 0.2216(3)
O7 O 0.8662(5) 0.0207(3) 0.4965(2)
O8 O 0.7254(4) 0.1189(3) 0.5507(2)
C4 C 0.7855(5) 0.0886(4) 0.4962(3)
C5 C 0.6422(4) 0.2650(3) 0.3494(3)
C6 C 0.7320(5) 0.1204(3) 0.2837(3)
C7 C 0.8867(4) 0.2471(4) 0.3312(3)
C8 C 0.7663(5) 0.1397(3) 0.4217(3)
C9 C 0.6179(5) 0.1922(4) 0.2878(3)
H1 H 0.6093 0.2258 0.2397
H2 H 0.5343 0.1576 0.2975
C10 C 0.7721(4) 0.3184(3) 0.3349(3)
H3 H 0.7659 0.3539 0.2874
H4 H 0.7882 0.3651 0.3752
C11 C 0.6520(5) 0.2111(4) 0.4249(3)
H5 H 0.6670 0.2574 0.4656
H6 H 0.5682 0.1768 0.4350
C12 C 0.8623(5) 0.1744(4) 0.2689(3)
H7 H 0.9366 0.1284 0.2666
H8 H 0.8571 0.2079 0.2205
C13 C 0.7434(5) 0.0670(3) 0.3575(3)
H9 H 0.8181 0.0213 0.3552
H10 H 0.6615 0.0303 0.3668
C14 C 0.8969(5) 0.1936(4) 0.4057(3)
H11 H 0.9148 0.2399 0.4461
H12 H 0.9711 0.1475 0.4038
O9 O 0.5716(4) 0.6196(3) 0.4471(3)
C15 C 0.6567(6) 0.6675(4) 0.4129(4)
C16 C 0.6814(9) 0.6488(8) 0.3318(5)
H13 H 0.7507 0.6919 0.3138
H14 H 0.5999 0.6600 0.3037
H15 H 0.7096 0.5823 0.3251
N1 N 0.7280(6) 0.7316(4) 0.4483(5)
C17 C 0.8237(9) 0.7932(6) 0.4105(7)
H16 H 0.8654 0.8359 0.4468
H17 H 0.7784 0.8314 0.3727
H18 H 0.8915 0.7535 0.3868
C18 C 0.7117(10) 0.7465(7) 0.5293(6)
H19 H 0.7714 0.7973 0.5459
H20 H 0.7326 0.6871 0.5557
H21 H 0.6202 0.7650 0.5399
Zn3 Zn 0.55520(6) 0.02352(4) 0.08743(3)
Zn7 Zn 0.73980(5) 0.13590(4) 0.65909(3)
O10 O 0.3369(4) 0.5849(3) 0.3388(2)
O11 O 0.2708(5) 0.4641(3) 0.2676(2)
O14 O 0.3662(5) 0.4793(3) 0.5035(2)
O15 O 0.2254(4) 0.3811(3) 0.4493(2)
O4 O 0.7292(5) 0.9641(3) 0.2324(2)
Zn4 Zn 0.94480(6) 0.97648(4) 0.58743(3)
Zn5 Zn 0.76020(5) 0.86410(4) 0.15909(3)
O14_2 O 0.1338(5) 0.5207(3) 0.0035(2)
Zn1_2 Zn 0.05520(6) 0.47648(4) 0.91257(3)
Zn2 Zn 0.26020(5) 0.63590(4) 0.84091(3)
O2_2 O 0.0860(3) 0.6998(3) 0.8418(3)
O10_2 O 0.1631(4) 0.4151(3) 0.8388(2)
O11_2 O 0.2292(5) 0.5359(3) 0.7676(2)
O12 O 0.3772(4) 0.7483(3) 0.8133(3)
O13 O 0.4770(4) 0.6117(3) 0.8308(3)
O15_2 O 0.2746(4) 0.6189(3) 0.9493(2)
O4_2 O 0.7708(5) 0.0359(3) 0.7324(2)
O8_2 O 0.7746(4) 0.8811(3) 0.0507(2)
C18_2 C 0.7883(10) 0.2535(7) 0.0293(6)
H19_2 H 0.7286 0.2027 0.0459
H20_2 H 0.7674 0.3129 0.0557
H21_2 H 0.8798 0.2350 0.0399
O1_2 O 0.9491(4) 0.5818(3) 0.8749(2)
C1_2 C 0.9723(5) 0.6656(4) 0.8556(3)
O3_2 O 0.8369(4) 0.9151(3) 0.6612(2)
C2_2 C 0.7938(5) 0.9505(4) 0.7216(3)
C3_2 C 0.4814(5) 0.7005(4) 0.8227(3)
O7_2 O 0.6338(5) 0.9793(3) 0.9965(2)
C4_2 C 0.7145(5) 0.9114(4) 0.9962(3)
C5_2 C 0.8578(4) 0.7350(3) 0.8494(3)
C6_2 C 0.7680(5) 0.8796(3) 0.7837(3)
C7_2 C 0.6133(4) 0.7529(4) 0.8312(3)
C8_2 C 0.7337(5) 0.8603(3) 0.9217(3)
C9_2 C 0.8821(5) 0.8078(4) 0.7878(3)
H1_2 H 0.8907 0.7742 0.7397
H2_2 H 0.9657 0.8424 0.7975
C10_2 C 0.7279(4) 0.6816(3) 0.8349(3)
H3_2 H 0.7341 0.6461 0.7874
H4_2 H 0.7118 0.6349 0.8752
C11_2 C 0.8480(5) 0.7889(4) 0.9249(3)
H5_2 H 0.8330 0.7426 0.9656
H6_2 H 0.9318 0.8232 0.9350
C12_2 C 0.6377(5) 0.8256(4) 0.7689(3)
H7_2 H 0.5634 0.8716 0.7666
H8_2 H 0.6429 0.7921 0.7205
C13_2 C 0.7566(5) 0.9330(3) 0.8575(3)
H9_2 H 0.6819 0.9787 0.8552
H10_2 H 0.8385 0.9697 0.8668
C14_2 C 0.6031(5) 0.8064(4) 0.9057(3)
H11_2 H 0.5852 0.7601 0.9461
H12_2 H 0.5289 0.8525 0.9038
O9_2 O 0.9284(4) 0.3804(3) 0.9471(3)
C15_2 C 0.8433(6) 0.3325(4) 0.9129(4)
C16_2 C 0.8186(9) 0.3512(8) 0.8318(5)
H13_2 H 0.7493 0.3081 0.8138
H14_2 H 0.9001 0.3400 0.8037
H15_2 H 0.7904 0.4177 0.8251
N1_2 N 0.7720(6) 0.2684(4) 0.9483(5)
C17_2 C 0.6763(9) 0.2068(6) 0.9105(7)
H16_2 H 0.6346 0.1641 0.9468
H17_2 H 0.7216 0.1686 0.8727
H18_2 H 0.6085 0.2465 0.8868
O9_3 O 0.4284(4) 0.1196(3) 0.0529(3)
C15_3 C 0.3433(6) 0.1675(4) 0.0871(4)
C16_3 C 0.3186(9) 0.1488(8) 0.1682(5)
H13_3 H 0.2493 0.1919 0.1862
H14_3 H 0.4001 0.1600 0.1963
H15_3 H 0.2904 0.0823 0.1749
N1_3 N 0.2720(6) 0.2316(4) 0.0517(5)
C17_3 C 0.1763(9) 0.2932(6) 0.0895(7)
H16_3 H 0.1346 0.3359 0.0532
H17_3 H 0.2216 0.3314 0.1273
H18_3 H 0.1085 0.2535 0.1132
O1_3 O 0.4491(4) 0.9182(3) 0.1251(2)
O2_3 O 0.5860(3) 0.8002(3) 0.1582(3)
C1_3 C 0.4723(5) 0.8344(4) 0.1444(3)
C2_3 C 0.2938(5) 0.5495(4) 0.2784(3)
C4_3 C 0.2145(5) 0.5886(4) 0.0038(3)
C5_3 C 0.3578(4) 0.7650(3) 0.1506(3)
C6_3 C 0.2680(5) 0.6204(3) 0.2163(3)
C7_3 C 0.1133(4) 0.7471(4) 0.1688(3)
C8_3 C 0.2337(5) 0.6397(3) 0.0783(3)
C9_3 C 0.3821(5) 0.6922(4) 0.2122(3)
H1_3 H 0.3907 0.7258 0.2603
H2_3 H 0.4657 0.6576 0.2025
C10_3 C 0.2279(4) 0.8184(3) 0.1651(3)
H3_3 H 0.2341 0.8539 0.2126
H4_3 H 0.2118 0.8651 0.1248
C11_3 C 0.3480(5) 0.7111(4) 0.0751(3)
H5_3 H 0.3330 0.7574 0.0344
H6_3 H 0.4318 0.6768 0.0650
C12_3 C 0.1377(5) 0.6744(4) 0.2311(3)
H7_3 H 0.0634 0.6284 0.2334
H8_3 H 0.1429 0.7079 0.2795
C13_3 C 0.2566(5) 0.5670(3) 0.1425(3)
H9_3 H 0.1819 0.5213 0.1448
H10_3 H 0.3385 0.5303 0.1332
C14_3 C 0.1031(5) 0.6936(4) 0.0943(3)
H11_3 H 0.0852 0.7399 0.0539
H12_3 H 0.0289 0.6475 0.0962
O12_2 O 0.8772(4) 0.7517(3) 0.1867(3)
O13_2 O 0.9770(4) 0.8883(3) 0.1692(3)
C3_3 C 0.9814(5) 0.7995(4) 0.1773(3)
O1_4 O 0.0509(4) 0.0818(3) 0.6251(2)
C1_4 C 0.0277(5) 0.1656(4) 0.6444(3)
C2_4 C 0.2062(5) 0.4505(4) 0.7784(3)
O5_2 O 0.6228(4) 0.2483(3) 0.6867(3)
O6_2 O 0.5230(4) 0.1117(3) 0.6692(3)
C3_4 C 0.5186(5) 0.2005(4) 0.6773(3)
C4_4 C 0.2855(5) 0.4114(4) 0.5038(3)
C5_4 C 0.1422(4) 0.2350(3) 0.6506(3)
C6_4 C 0.2320(5) 0.3796(3) 0.7163(3)
C7_4 C 0.3867(4) 0.2529(4) 0.6688(3)
C8_4 C 0.2663(5) 0.3603(3) 0.5783(3)
C9_4 C 0.1179(5) 0.3078(4) 0.7122(3)
H1_4 H 0.1093 0.2742 0.7603
H2_4 H 0.0343 0.3424 0.7025
C10_4 C 0.2721(4) 0.1816(3) 0.6651(3)
H3_4 H 0.2659 0.1461 0.7126
H4_4 H 0.2882 0.1349 0.6248
C11_4 C 0.1520(5) 0.2889(4) 0.5751(3)
H5_4 H 0.1670 0.2426 0.5344
H6_4 H 0.0682 0.3232 0.5650
C12_4 C 0.3623(5) 0.3256(4) 0.7311(3)
H7_4 H 0.4366 0.3716 0.7334
H8_4 H 0.3571 0.2921 0.7795
C13_4 C 0.2434(5) 0.4330(3) 0.6425(3)
H9_4 H 0.3181 0.4787 0.6448
H10_4 H 0.1615 0.4697 0.6332
C14_4 C 0.3969(5) 0.3064(4) 0.5943(3)
H11_4 H 0.4148 0.2601 0.5539
H12_4 H 0.4711 0.3525 0.5962
O2_4 O 0.9140(3) 0.1998(3) 0.6582(3)
C18_3 C 0.2883(10) 0.2465(7) 0.9707(6)
H19_3 H 0.2286 0.2973 0.9541
H20_3 H 0.2674 0.1871 0.9443
H21_3 H 0.3798 0.2650 0.9601
O9_4 O 0.0716(4) 0.8804(3) 0.5529(3)
C15_4 C 0.1567(6) 0.8325(4) 0.5871(4)
C16_4 C 0.1814(9) 0.8512(8) 0.6682(5)
H13_4 H 0.2507 0.8081 0.6862
H14_4 H 0.0999 0.8400 0.6963
H15_4 H 0.2096 0.9177 0.6749
N1_4 N 0.2280(6) 0.7684(4) 0.5517(5)
C17_4 C 0.3237(9) 0.7068(6) 0.5895(7)
H16_4 H 0.3654 0.6641 0.5532
H17_4 H 0.2784 0.6686 0.6273
H18_4 H 0.3915 0.7465 0.6132
C18_4 C 0.2117(10) 0.7535(7) 0.4707(6)
H19_4 H 0.2714 0.7027 0.4541
H20_4 H 0.2326 0.8129 0.4443
H21_4 H 0.1202 0.7350 0.4601
loop_
_geom_bond_atom_site_label_1
_geom_bond_atom_site_label_2
_geom_bond_site_symmetry_1
_geom_bond_site_symmetry_2
O5 C3 1_555 1_555
O6 C3 1_555 1_555
Zn6 O5 1_555 1_555
O6 Zn6 1_555 1_555
Zn1 O1 1_555 1_555
Zn6 O2 1_555 1_555
O1 C1 1_555 1_555
O2 C1 1_555 1_555
C1 C5 1_555 1_555
O3 C2 1_555 1_555
C2 C6 1_555 1_555
O7 C4 1_555 1_555
O8 C4 1_555 1_555
C4 C8 1_555 1_555
C5 C9 1_555 1_555
C6 C9 1_555 1_555
C7 C10 1_555 1_555
C8 C11 1_555 1_555
C9 H1 1_555 1_555
H2 C9 1_555 1_555
C10 C5 1_555 1_555
H3 C10 1_555 1_555
H4 C10 1_555 1_555
C11 C5 1_555 1_555
H5 C11 1_555 1_555
H6 C11 1_555 1_555
C12 C6 1_555 1_555
H7 C12 1_555 1_555
H8 C12 1_555 1_555
C13 C6 1_555 1_555
H9 C13 1_555 1_555
H10 C13 1_555 1_555
C14 C7 1_555 1_555
H11 C14 1_555 1_555
H12 C14 1_555 1_555
O9 Zn1 1_555 1_555
C15 O9 1_555 1_555
C16 C15 1_555 1_555
H13 C16 1_555 1_555
H14 C16 1_555 1_555
H15 C16 1_555 1_555
N1 C15 1_555 1_555
C17 N1 1_555 1_555
H16 C17 1_555 1_555
H17 C17 1_555 1_555
H18 C17 1_555 1_555
C18 N1 1_555 1_555
H19 C18 1_555 1_555
H20 C18 1_555 1_555
H21 C18 1_555 1_555
Zn3 O3 1_555 1_555
Zn7 O8 1_555 1_555
O10 Zn1 1_555 1_555
O11 Zn6 1_555 1_555
O14 Zn1 1_555 1_555
O15 Zn6 1_555 1_555
C7 C12 1_555 1_555
C8 C13 1_555 1_555
C8 C14 1_555 1_555
Zn5 O4 1_555 1_555
Zn2 O2_2 1_555 1_555
O10_2 Zn1_2 1_555 1_555
O11_2 Zn2 1_555 1_555
O12 Zn2 1_555 1_555
O13 Zn2 1_555 1_555
O15_2 Zn2 1_555 1_555
Zn7 O4_2 1_555 1_555
H19_2 C18_2 1_555 1_555
H20_2 C18_2 1_555 1_555
H21_2 C18_2 1_555 1_555
Zn5 O8_2 1_555 1_555
O1_2 C1_2 1_555 1_555
C1_2 C5_2 1_555 1_555
O3_2 C2_2 1_555 1_555
C2_2 C6_2 1_555 1_555
O12 C3_2 1_555 1_555
O13 C3_2 1_555 1_555
C3_2 C7_2 1_555 1_555
O7_2 C4_2 1_555 1_555
C4_2 C8_2 1_555 1_555
C5_2 C9_2 1_555 1_555
C6_2 C9_2 1_555 1_555
C7_2 C10_2 1_555 1_555
C8_2 C11_2 1_555 1_555
C9_2 H1_2 1_555 1_555
H2_2 C9_2 1_555 1_555
C10_2 C5_2 1_555 1_555
H3_2 C10_2 1_555 1_555
H4_2 C10_2 1_555 1_555
C11_2 C5_2 1_555 1_555
H5_2 C11_2 1_555 1_555
H6_2 C11_2 1_555 1_555
C12_2 C6_2 1_555 1_555
H7_2 C12_2 1_555 1_555
H8_2 C12_2 1_555 1_555
C13_2 C6_2 1_555 1_555
H9_2 C13_2 1_555 1_555
H10_2 C13_2 1_555 1_555
C14_2 C7_2 1_555 1_555
H11_2 C14_2 1_555 1_555
H12_2 C14_2 1_555 1_555
C15_2 O9_2 1_555 1_555
C16_2 C15_2 1_555 1_555
H13_2 C16_2 1_555 1_555
H14_2 C16_2 1_555 1_555
H15_2 C16_2 1_555 1_555
N1_2 C15_2 1_555 1_555
C17_2 N1_2 1_555 1_555
H16_2 C17_2 1_555 1_555
H17_2 C17_2 1_555 1_555
H18_2 C17_2 1_555 1_555
Zn4 O3_2 1_555 1_555
C7_2 C12_2 1_555 1_555
C8_2 C13_2 1_555 1_555
C8_2 C14_2 1_555 1_555
O9_3 Zn3 1_555 1_555
C15_3 O9_3 1_555 1_555
C16_3 C15_3 1_555 1_555
H13_3 C16_3 1_555 1_555
H14_3 C16_3 1_555 1_555
H15_3 C16_3 1_555 1_555
N1_3 C15_3 1_555 1_555
C17_3 N1_3 1_555 1_555
H16_3 C17_3 1_555 1_555
H17_3 C17_3 1_555 1_555
H18_3 C17_3 1_555 1_555
Zn5 O2_3 1_555 1_555
O1_3 C1_3 1_555 1_555
O2_3 C1_3 1_555 1_555
C1_3 C5_3 1_555 1_555
O10 C2_3 1_555 1_555
O11 C2_3 1_555 1_555
C2_3 C6_3 1_555 1_555
O14_2 C4_3 1_555 1_555
C4_3 C8_3 1_555 1_555
C5_3 C9_3 1_555 1_555
C6_3 C9_3 1_555 1_555
C7_3 C10_3 1_555 1_555
C8_3 C11_3 1_555 1_555
C9_3 H1_3 1_555 1_555
H2_3 C9_3 1_555 1_555
C10_3 C5_3 1_555 1_555
H3_3 C10_3 1_555 1_555
H4_3 C10_3 1_555 1_555
C11_3 C5_3 1_555 1_555
H5_3 C11_3 1_555 1_555
H6_3 C11_3 1_555 1_555
C12_3 C6_3 1_555 1_555
H7_3 C12_3 1_555 1_555
H8_3 C12_3 1_555 1_555
C13_3 C6_3 1_555 1_555
H9_3 C13_3 1_555 1_555
H10_3 C13_3 1_555 1_555
C14_3 C7_3 1_555 1_555
H11_3 C14_3 1_555 1_555
H12_3 C14_3 1_555 1_555
O12_2 Zn5 1_555 1_555
O13_2 Zn5 1_555 1_555
C7_3 C12_3 1_555 1_555
C8_3 C13_3 1_555 1_555
C8_3 C14_3 1_555 1_555
O12_2 C3_3 1_555 1_555
O13_2 C3_3 1_555 1_555
O1_4 C1_4 1_555 1_555
C1_4 C5_4 1_555 1_555
O10_2 C2_4 1_555 1_555
O11_2 C2_4 1_555 1_555
C2_4 C6_4 1_555 1_555
O5_2 C3_4 1_555 1_555
O6_2 C3_4 1_555 1_555
C3_4 C7_4 1_555 1_555
O14 C4_4 1_555 1_555
O15 C4_4 1_555 1_555
C4_4 C8_4 1_555 1_555
C5_4 C9_4 1_555 1_555
C6_4 C9_4 1_555 1_555
C7_4 C10_4 1_555 1_555
C8_4 C11_4 1_555 1_555
C9_4 H1_4 1_555 1_555
H2_4 C9_4 1_555 1_555
C10_4 C5_4 1_555 1_555
H3_4 C10_4 1_555 1_555
H4_4 C10_4 1_555 1_555
C11_4 C5_4 1_555 1_555
H5_4 C11_4 1_555 1_555
H6_4 C11_4 1_555 1_555
C12_4 C6_4 1_555 1_555
H7_4 C12_4 1_555 1_555
H8_4 C12_4 1_555 1_555
C13_4 C6_4 1_555 1_555
H9_4 C13_4 1_555 1_555
H10_4 C13_4 1_555 1_555
C14_4 C7_4 1_555 1_555
H11_4 C14_4 1_555 1_555
H12_4 C14_4 1_555 1_555
Zn7 O5_2 1_555 1_555
O6_2 Zn7 1_555 1_555
C7_4 C12_4 1_555 1_555
C8_4 C13_4 1_555 1_555
C8_4 C14_4 1_555 1_555
Zn7 O2_4 1_555 1_555
H19_3 C18_3 1_555 1_555
H20_3 C18_3 1_555 1_555
H21_3 C18_3 1_555 1_555
C15_4 O9_4 1_555 1_555
C16_4 C15_4 1_555 1_555
H13_4 C16_4 1_555 1_555
H14_4 C16_4 1_555 1_555
H15_4 C16_4 1_555 1_555
N1_4 C15_4 1_555 1_555
C17_4 N1_4 1_555 1_555
H16_4 C17_4 1_555 1_555
H17_4 C17_4 1_555 1_555
H18_4 C17_4 1_555 1_555
C18_4 N1_4 1_555 1_555
H19_4 C18_4 1_555 1_555
H20_4 C18_4 1_555 1_555
H21_4 C18_4 1_555 1_555

#END
