
###############################################################################
#
# This file contains modified crystal structure data generated from the
# MOF subset of the Cambridge Structural Database (CSD) v543 
# hosted by the Cambridge Crystallographic Data Centre (CCDC).
#
# This work is licensed under the Creative Commons
# Attribution-NonCommercial-ShareAlike 4.0 International License.
# To view a copy of this license, visit
# http://creativecommons.org/licenses/by-nc-sa/4.0/
# or send a letter to
# Creative Commons, PO Box 1866, Mountain View, CA 94042, USA.
#
# CIF created using the CSD Python API on 29 September 2022
# The structure has been converted into the P1 space group
# The structure has a 3D framework
# The original CSD entry RAHBOU is in the tetragonal crystal system
# The framework has been calculated to contain at least 10.0% void space
# The void calculation uses a probe of radius 1.32A, grid spacing 0.4
# H atom positions have been added when not included in the experimental data
# Generated hydrogen atom positions removed from atoms on special positions
#
###############################################################################

data_RAHBOU
_chemical_formula_moiety         '(C564 H780 Cu98 O386)n'
_symmetry_cell_setting           triclinic
_symmetry_space_group_name_H-M   'P 1'
_symmetry_Int_Tables_number      1
_space_group_name_Hall           'P 1'
loop_
_symmetry_equiv_pos_site_id
_symmetry_equiv_pos_as_xyz
1 x,y,z
_cell_length_a                   33.3822(16)
_cell_length_b                   33.3822(16)
_cell_length_c                   27.7891(15)
_cell_angle_alpha                90
_cell_angle_beta                 90
_cell_angle_gamma                90
_cell_volume                     30967.4
loop_
_atom_site_label
_atom_site_type_symbol
_atom_site_fract_x
_atom_site_fract_y
_atom_site_fract_z
Cu1 Cu 0.16904(2) 0.0000 0.20150(3)
Cu2 Cu 0.22529(2) 0.0000 0.26916(3)
Cu3 Cu 0.17006(3) 0.17006(3) 0.0000
Cu4 Cu 0.22589(3) 0.22589(3) 0.0000
Cu5 Cu 0.5000 0.0000 0.29774(4)
Cu6 Cu 0.0000 0.0000 0.45245(5)
O1 O 0.20251(11) 0.04124(11) 0.17230(13)
O2 O 0.25017(11) 0.04127(10) 0.22867(13)
O3 O 0.20304(11) 0.14495(11) 0.04926(13)
O4 O 0.25088(11) 0.19223(10) 0.04931(13)
O5 O 0.35259(10) 0.14002(11) 0.16398(14)
O6 O 0.45866(10) 0.04119(10) 0.29021(12)
O7 O 0.14438(11) 0.04160(11) 0.24119(13)
O8 O 0.19161(11) 0.04118(11) 0.29927(13)
O9 O 0.14590(10) 0.14590(10) 0.41601(16)
O10 O 0.04113(9) 0.04113(9) 0.45965(16)
O11 O 0.1230(2) 0.0000 0.1453(3)
O12 O 0.2711(2) 0.0000 0.3251(2)
O13 O 0.12321(18) 0.12321(18) 0.0000
O14 O 0.2703(2) 0.2703(2) 0.0000
O15 O 0.5000 0.0000 0.3761(4)
O16 O 0.0000 0.0000 0.3726(6)
C1 C 0.25680(15) 0.08638(15) 0.16373(18)
C2 C 0.23774(16) 0.10620(15) 0.12577(18)
H1 H 0.2123 0.0984 0.1160
C3 C 0.25685(15) 0.13725(14) 0.10297(17)
C4 C 0.29479(15) 0.14885(15) 0.11725(18)
H2 H 0.3074 0.1704 0.1024
C5 C 0.31370(16) 0.12807(15) 0.15377(18)
C6 C 0.29435(14) 0.09750(14) 0.17799(18)
H3 H 0.3068 0.0847 0.2037
C7 C 0.23441(16) 0.05339(15) 0.19021(18)
C8 C 0.23526(17) 0.15996(16) 0.06398(18)
C9 C 0.36909(15) 0.12661(15) 0.20793(19)
C10 C 0.35560(16) 0.14440(16) 0.2500
H4 H 0.3359 0.1641 0.2500
C11 C 0.39791(15) 0.09795(15) 0.2071(2)
H5 H 0.4062 0.0870 0.1780
C12 C 0.41482(14) 0.08518(14) 0.2500
C13 C 0.44683(15) 0.05317(15) 0.2500
C14 C 0.13898(15) 0.08749(15) 0.30556(17)
C15 C 0.10652(15) 0.10652(15) 0.2830(3)
H6 H 0.0976 0.0976 0.2531
C16 C 0.15105(15) 0.10031(15) 0.35017(17)
H7 H 0.1724 0.0878 0.3656
C17 C 0.13167(15) 0.13167(15) 0.3721(2)
C18 C 0.15912(16) 0.05380(16) 0.2800(2)
C19 C 0.12878(15) 0.12878(15) 0.4571(2)
C20 C 0.09952(14) 0.09952(14) 0.4559(3)
H8 H 0.0897 0.0897 0.4269
C21 C 0.08528(18) 0.08528(18) 0.5000
C22 C 0.0538(2) 0.0538(2) 0.5000
C23 C 0.1444(2) 0.1444(2) 0.5000
H9 H 0.1641 0.1641 0.5000
O17 O 0.45876(11) 0.29749(11) 0.32770(13)
O18 O 0.45873(10) 0.24983(11) 0.27133(13)
O19 O 0.35505(11) 0.29696(11) 0.45074(13)
O20 O 0.30777(10) 0.24912(11) 0.45069(13)
O21 O 0.35998(11) 0.14741(10) 0.33602(14)
O22 O 0.45881(10) 0.04134(10) 0.20979(12)
C24 C 0.41362(15) 0.24320(15) 0.33627(18)
C25 C 0.39380(15) 0.26226(16) 0.37423(18)
H10 H 0.4016 0.2877 0.3840
C26 C 0.36275(14) 0.24315(15) 0.39703(17)
C27 C 0.35115(15) 0.20521(15) 0.38275(18)
H11 H 0.3296 0.1926 0.3976
C28 C 0.37193(15) 0.18630(16) 0.34623(18)
C29 C 0.40250(14) 0.20565(14) 0.32201(18)
H12 H 0.4153 0.1932 0.2963
C30 C 0.44661(15) 0.26559(16) 0.30979(18)
C31 C 0.34004(16) 0.26474(17) 0.43602(18)
C32 C 0.37339(15) 0.13091(15) 0.29207(19)
C33 C 0.40205(15) 0.10209(15) 0.2929(2)
H13 H 0.4130 0.0938 0.3220
O23 O 0.04160(11) 0.14438(11) 0.75881(13)
O24 O 0.04118(11) 0.19161(11) 0.70073(13)
O25 O 0.14590(10) 0.14590(10) 0.58399(16)
O26 O 0.04113(9) 0.04113(9) 0.54035(16)
C34 C 0.08749(15) 0.13898(15) 0.69444(17)
C35 C 0.10652(15) 0.10652(15) 0.7170(3)
H14 H 0.0976 0.0976 0.7469
C36 C 0.10031(15) 0.15105(15) 0.64983(17)
H15 H 0.0878 0.1724 0.6344
C37 C 0.13167(15) 0.13167(15) 0.6279(2)
C38 C 0.05380(16) 0.15912(16) 0.7200(2)
C39 C 0.12878(15) 0.12878(15) 0.5429(2)
C40 C 0.09952(14) 0.09952(14) 0.5441(3)
H16 H 0.0897 0.0897 0.5731
O27 O 0.14438(11) 0.04160(11) 0.75881(13)
O28 O 0.19161(11) 0.04118(11) 0.70073(13)
C41 C 0.13898(15) 0.08749(15) 0.69444(17)
C42 C 0.15105(15) 0.10031(15) 0.64983(17)
H17 H 0.1724 0.0878 0.6344
C43 C 0.15912(16) 0.05380(16) 0.7200(2)
O29 O 0.04160(11) 0.14438(11) 0.24119(13)
O30 O 0.04118(11) 0.19161(11) 0.29927(13)
C44 C 0.08749(15) 0.13898(15) 0.30556(17)
C45 C 0.10031(15) 0.15105(15) 0.35017(17)
H18 H 0.0878 0.1724 0.3656
C46 C 0.05380(16) 0.15912(16) 0.2800(2)
Cu7 Cu 0.0000 0.16904(2) 0.20150(3)
Cu8 Cu -0.0000 0.22529(2) 0.26916(3)
O35 O 0.0000 0.1230(2) 0.1453(3)
O36 O 0.0000 0.2711(2) 0.3251(2)
O73 O 0.04124(11) 0.20251(11) 0.17230(13)
O74 O 0.04127(10) 0.25017(11) 0.22867(13)
O75 O 0.14495(11) 0.20304(11) 0.04926(13)
O76 O 0.19223(10) 0.25088(11) 0.04931(13)
O77 O 0.14002(11) 0.35259(10) 0.16398(14)
O78 O 0.04119(10) 0.45866(10) 0.29021(12)
C116 C 0.08638(15) 0.25680(15) 0.16373(18)
C117 C 0.10620(15) 0.23774(16) 0.12577(18)
H46 H 0.0984 0.2123 0.1160
C118 C 0.13725(14) 0.25685(15) 0.10297(17)
C119 C 0.14885(15) 0.29479(15) 0.11725(18)
H47 H 0.1704 0.3074 0.1024
C120 C 0.12807(15) 0.31370(16) 0.15377(18)
C121 C 0.09750(14) 0.29435(14) 0.17799(18)
H48 H 0.0847 0.3068 0.2037
C122 C 0.05339(15) 0.23441(16) 0.19021(18)
C123 C 0.15996(16) 0.23526(17) 0.06398(18)
C124 C 0.12661(15) 0.36909(15) 0.20793(19)
C125 C 0.14440(16) 0.35560(16) 0.2500
H49 H 0.1641 0.3359 0.2500
C126 C 0.09795(15) 0.39791(15) 0.2071(2)
H50 H 0.0870 0.4062 0.1780
C127 C 0.08518(14) 0.41482(14) 0.2500
C128 C 0.05317(15) 0.44683(15) 0.2500
O79 O 0.29749(11) 0.45876(11) 0.32770(13)
O80 O 0.24983(11) 0.45873(10) 0.27133(13)
O81 O 0.29696(11) 0.35505(11) 0.45074(13)
O82 O 0.24912(11) 0.30777(10) 0.45069(13)
O83 O 0.14741(10) 0.35998(11) 0.33602(14)
O84 O 0.04134(10) 0.45881(10) 0.20979(12)
C129 C 0.24320(15) 0.41362(15) 0.33627(18)
C130 C 0.26226(16) 0.39380(15) 0.37423(18)
H51 H 0.2877 0.4016 0.3840
C131 C 0.24315(15) 0.36275(14) 0.39703(17)
C132 C 0.20521(15) 0.35115(15) 0.38275(18)
H52 H 0.1926 0.3296 0.3976
C133 C 0.18630(16) 0.37193(15) 0.34623(18)
C134 C 0.20565(14) 0.40250(14) 0.32201(18)
H53 H 0.1932 0.4153 0.2963
C135 C 0.26559(16) 0.44661(15) 0.30979(18)
C136 C 0.26474(17) 0.34004(16) 0.43602(18)
C137 C 0.13091(15) 0.37339(15) 0.29207(19)
C138 C 0.10209(15) 0.40205(15) 0.2929(2)
H54 H 0.0938 0.4130 0.3220
Cu13 Cu 0.5000 0.33096(2) 0.29850(3)
O85 O 0.5000 0.3770(2) 0.3547(3)
Cu14 Cu 0.5000 0.27471(2) 0.23084(3)
O86 O 0.5000 0.2289(2) 0.1749(2)
Cu15 Cu 0.5000 0.0000 0.20226(4)
O87 O 0.5000 0.0000 0.1239(4)
Cu16 Cu 0.16904(2) -0.0000 0.79850(3)
Cu17 Cu -0.0000 0.16904(2) 0.79850(3)
Cu20 Cu 0.33096(2) 0.5000 0.29850(3)
Cu22 Cu 0.22529(2) 0.0000 0.73084(3)
Cu23 Cu 0.0000 0.22529(2) 0.73084(3)
Cu26 Cu 0.27471(2) 0.5000 0.23084(3)
Cu30 Cu 0.32994(3) 0.32994(3) 0.5000
Cu34 Cu 0.27411(3) 0.27411(3) 0.5000
Cu37 Cu 0.0000 0.5000 0.29774(4)
Cu38 Cu 0.0000 0.5000 0.20226(4)
Cu40 Cu 0.0000 0.0000 0.54755(5)
O90 O 0.54124(11) 0.29749(11) 0.32770(13)
O93 O 0.54127(10) 0.24983(11) 0.27133(13)
O106 O 0.54134(10) 0.04119(10) 0.29021(12)
O107 O 0.54119(10) 0.04134(10) 0.20979(12)
O109 O 0.45840(11) 0.35562(11) 0.25881(13)
O111 O 0.54160(11) 0.35562(11) 0.25881(13)
O113 O 0.45882(11) 0.30839(11) 0.20073(13)
O115 O 0.54118(11) 0.30839(11) 0.20073(13)
Cu3_2 Cu 0.17006(3) 0.17006(3) 1.0000
Cu4_2 Cu 0.22589(3) 0.22589(3) 1.0000
O13_2 O 0.12321(18) 0.12321(18) 1.0000
O14_2 O 0.2703(2) 0.2703(2) 1.0000
O95 O 0.14495(11) 0.20304(11) 0.95074(13)
O97 O 0.20304(11) 0.14495(11) 0.95074(13)
O100 O 0.19223(10) 0.25088(11) 0.95069(13)
O102 O 0.25088(11) 0.19223(10) 0.95069(13)
Cu1_2 Cu 0.16904(2) 1.0000 0.20150(3)
Cu2_2 Cu 0.22529(2) 1.0000 0.26916(3)
Cu5_2 Cu 0.5000 1.0000 0.29774(4)
Cu6_2 Cu 0.0000 1.0000 0.45245(5)
O11_2 O 0.1230(2) 1.0000 0.1453(3)
O12_2 O 0.2711(2) 1.0000 0.3251(2)
O15_2 O 0.5000 1.0000 0.3761(4)
O16_2 O 0.0000 1.0000 0.3726(6)
O61 O 0.20251(11) 0.95876(11) 0.17230(13)
O62 O 0.25017(11) 0.95873(10) 0.22867(13)
O63 O 0.20304(11) 0.85505(11) 0.04926(13)
O64 O 0.25088(11) 0.80777(10) 0.04931(13)
O65 O 0.35259(10) 0.85998(11) 0.16398(14)
O66 O 0.45866(10) 0.95881(10) 0.29021(12)
C93 C 0.25680(15) 0.91362(15) 0.16373(18)
C94 C 0.23774(16) 0.89380(15) 0.12577(18)
H37 H 0.2123 0.9016 0.1160
C95 C 0.25685(15) 0.86275(14) 0.10297(17)
C96 C 0.29479(15) 0.85115(15) 0.11725(18)
H38 H 0.3074 0.8296 0.1024
C97 C 0.31370(16) 0.87193(15) 0.15377(18)
C98 C 0.29435(14) 0.90250(14) 0.17799(18)
H39 H 0.3068 0.9153 0.2037
C99 C 0.23441(16) 0.94661(15) 0.19021(18)
C100 C 0.23526(17) 0.84004(16) 0.06398(18)
C101 C 0.36909(15) 0.87339(15) 0.20793(19)
C102 C 0.35560(16) 0.85560(16) 0.2500
H40 H 0.3359 0.8359 0.2500
C103 C 0.39791(15) 0.90205(15) 0.2071(2)
H41 H 0.4062 0.9130 0.1780
C104 C 0.41482(14) 0.91482(14) 0.2500
C105 C 0.44683(15) 0.94683(15) 0.2500
O67 O 0.45876(11) 0.70251(11) 0.32770(13)
O68 O 0.45873(10) 0.75017(11) 0.27133(13)
O69 O 0.35505(11) 0.70304(11) 0.45074(13)
O70 O 0.30777(10) 0.75088(11) 0.45069(13)
O71 O 0.35998(11) 0.85259(10) 0.33602(14)
O72 O 0.45881(10) 0.95866(10) 0.20979(12)
C106 C 0.41362(15) 0.75680(15) 0.33627(18)
C107 C 0.39380(15) 0.73774(16) 0.37423(18)
H42 H 0.4016 0.7123 0.3840
C108 C 0.36275(14) 0.75685(15) 0.39703(17)
C109 C 0.35115(15) 0.79479(15) 0.38275(18)
H43 H 0.3296 0.8074 0.3976
C110 C 0.37193(15) 0.81370(16) 0.34623(18)
C111 C 0.40250(14) 0.79435(14) 0.32201(18)
H44 H 0.4153 0.8068 0.2963
C112 C 0.44661(15) 0.73441(16) 0.30979(18)
C113 C 0.34004(16) 0.73526(17) 0.43602(18)
C114 C 0.37339(15) 0.86909(15) 0.29207(19)
C115 C 0.40205(15) 0.89791(15) 0.2929(2)
H45 H 0.4130 0.9062 0.3220
Cu15_2 Cu 0.5000 1.0000 0.20226(4)
O87_2 O 0.5000 1.0000 0.1239(4)
Cu16_2 Cu 0.16904(2) 1.0000 0.79850(3)
Cu19 Cu 0.5000 0.66904(2) 0.29850(3)
Cu22_2 Cu 0.22529(2) 1.0000 0.73084(3)
Cu25 Cu 0.5000 0.72529(2) 0.23084(3)
Cu28 Cu 0.17006(3) 0.82994(3) 0.0000
Cu29 Cu 0.32994(3) 0.67006(3) 0.5000
Cu32 Cu 0.22589(3) 0.77411(3) 0.0000
Cu33 Cu 0.27411(3) 0.72589(3) 0.5000
Cu40_2 Cu 0.0000 1.0000 0.54755(5)
O104 O 0.54134(10) 0.95881(10) 0.29021(12)
O105 O 0.54119(10) 0.95866(10) 0.20979(12)
O110 O 0.14438(11) 0.95840(11) 0.24119(13)
O114 O 0.19161(11) 0.95882(11) 0.29927(13)
O117 O 0.04113(9) 0.95887(9) 0.45965(16)
Cu28_2 Cu 0.17006(3) 0.82994(3) 1.0000
Cu32_2 Cu 0.22589(3) 0.77411(3) 1.0000
Cu6_3 Cu 1.0000 0.0000 0.45245(5)
O16_3 O 1.0000 0.0000 0.3726(6)
Cu7_2 Cu 1.0000 0.16904(2) 0.20150(3)
Cu8_2 Cu 1.0000 0.22529(2) 0.26916(3)
Cu9 Cu 0.82994(3) 0.17006(3) 0.0000
Cu10 Cu 0.77411(3) 0.22589(3) 0.0000
O31 O 0.95840(11) 0.14438(11) 0.24119(13)
O32 O 0.95882(11) 0.19161(11) 0.29927(13)
O33 O 0.85410(10) 0.14590(10) 0.41601(16)
O34 O 0.95887(9) 0.04113(9) 0.45965(16)
O35_2 O 1.0000 0.1230(2) 0.1453(3)
O36_2 O 1.0000 0.2711(2) 0.3251(2)
O37 O 0.87679(18) 0.12321(18) 0.0000
O38 O 0.7297(2) 0.2703(2) 0.0000
C47 C 0.91251(15) 0.13898(15) 0.30556(17)
C48 C 0.89348(15) 0.10652(15) 0.2830(3)
H19 H 0.9024 0.0976 0.2531
C49 C 0.89969(15) 0.15105(15) 0.35017(17)
H20 H 0.9122 0.1724 0.3656
C50 C 0.86833(15) 0.13167(15) 0.3721(2)
C51 C 0.94620(16) 0.15912(16) 0.2800(2)
C52 C 0.87122(15) 0.12878(15) 0.4571(2)
C53 C 0.90048(14) 0.09952(14) 0.4559(3)
H21 H 0.9103 0.0897 0.4269
C54 C 0.91472(18) 0.08528(18) 0.5000
C55 C 0.9462(2) 0.0538(2) 0.5000
C56 C 0.8556(2) 0.1444(2) 0.5000
H22 H 0.8359 0.1641 0.5000
O39 O 0.85562(11) 0.04160(11) 0.75881(13)
O40 O 0.80839(11) 0.04118(11) 0.70073(13)
O41 O 0.85410(10) 0.14590(10) 0.58399(16)
O42 O 0.95887(9) 0.04113(9) 0.54035(16)
C57 C 0.86102(15) 0.08749(15) 0.69444(17)
C58 C 0.89348(15) 0.10652(15) 0.7170(3)
H23 H 0.9024 0.0976 0.7469
C59 C 0.84895(15) 0.10031(15) 0.64983(17)
H24 H 0.8276 0.0878 0.6344
C60 C 0.86833(15) 0.13167(15) 0.6279(2)
C61 C 0.84088(16) 0.05380(16) 0.7200(2)
C62 C 0.87122(15) 0.12878(15) 0.5429(2)
C63 C 0.90048(14) 0.09952(14) 0.5441(3)
H25 H 0.9103 0.0897 0.5731
O43 O 0.95840(11) 0.14438(11) 0.75881(13)
O44 O 0.95882(11) 0.19161(11) 0.70073(13)
C64 C 0.91251(15) 0.13898(15) 0.69444(17)
C65 C 0.89969(15) 0.15105(15) 0.64983(17)
H26 H 0.9122 0.1724 0.6344
C66 C 0.94620(16) 0.15912(16) 0.7200(2)
O45 O 0.85562(11) 0.04160(11) 0.24119(13)
O46 O 0.80839(11) 0.04118(11) 0.29927(13)
C67 C 0.86102(15) 0.08749(15) 0.30556(17)
C68 C 0.84895(15) 0.10031(15) 0.35017(17)
H27 H 0.8276 0.0878 0.3656
C69 C 0.84088(16) 0.05380(16) 0.2800(2)
Cu11 Cu 0.83096(2) 0.0000 0.20150(3)
Cu12 Cu 0.77471(2) 0.0000 0.26916(3)
O47 O 0.8770(2) 0.0000 0.1453(3)
O48 O 0.7289(2) 0.0000 0.3251(2)
O49 O 0.79749(11) 0.04124(11) 0.17230(13)
O50 O 0.74983(11) 0.04127(10) 0.22867(13)
O51 O 0.79696(11) 0.14495(11) 0.04926(13)
O52 O 0.74912(11) 0.19223(10) 0.04931(13)
O53 O 0.64741(10) 0.14002(11) 0.16398(14)
C70 C 0.74320(15) 0.08638(15) 0.16373(18)
C71 C 0.76226(16) 0.10620(15) 0.12577(18)
H28 H 0.7877 0.0984 0.1160
C72 C 0.74315(15) 0.13725(14) 0.10297(17)
C73 C 0.70521(15) 0.14885(15) 0.11725(18)
H29 H 0.6926 0.1704 0.1024
C74 C 0.68630(16) 0.12807(15) 0.15377(18)
C75 C 0.70565(14) 0.09750(14) 0.17799(18)
H30 H 0.6932 0.0847 0.2037
C76 C 0.76559(16) 0.05339(15) 0.19021(18)
C77 C 0.76474(17) 0.15996(16) 0.06398(18)
C78 C 0.63091(15) 0.12661(15) 0.20793(19)
C79 C 0.64440(16) 0.14440(16) 0.2500
H31 H 0.6641 0.1641 0.2500
C80 C 0.60209(15) 0.09795(15) 0.2071(2)
H32 H 0.5938 0.0870 0.1780
C81 C 0.58518(14) 0.08518(14) 0.2500
C82 C 0.55317(15) 0.05317(15) 0.2500
O57 O 0.64495(11) 0.29696(11) 0.45074(13)
O58 O 0.69223(10) 0.24912(11) 0.45069(13)
O59 O 0.64002(11) 0.14741(10) 0.33602(14)
C83 C 0.58638(15) 0.24320(15) 0.33627(18)
C84 C 0.60620(15) 0.26226(16) 0.37423(18)
H33 H 0.5984 0.2877 0.3840
C85 C 0.63725(14) 0.24315(15) 0.39703(17)
C86 C 0.64885(15) 0.20521(15) 0.38275(18)
H34 H 0.6704 0.1926 0.3976
C87 C 0.62807(15) 0.18630(16) 0.34623(18)
C88 C 0.59750(14) 0.20565(14) 0.32201(18)
H35 H 0.5847 0.1932 0.2963
C89 C 0.55339(15) 0.26559(16) 0.30979(18)
C90 C 0.65996(16) 0.26474(17) 0.43602(18)
C91 C 0.62661(15) 0.13091(15) 0.29207(19)
C92 C 0.59795(15) 0.10209(15) 0.2929(2)
H36 H 0.5870 0.0938 0.3220
Cu17_2 Cu 1.0000 0.16904(2) 0.79850(3)
Cu18 Cu 0.83096(2) -0.0000 0.79850(3)
Cu23_2 Cu 1.0000 0.22529(2) 0.73084(3)
Cu24 Cu 0.77471(2) 0.0000 0.73084(3)
Cu31 Cu 0.67006(3) 0.32994(3) 0.5000
Cu35 Cu 0.72589(3) 0.27411(3) 0.5000
Cu37_2 Cu 1.0000 0.5000 0.29774(4)
Cu38_2 Cu 1.0000 0.5000 0.20226(4)
Cu40_3 Cu 1.0000 0.0000 0.54755(5)
O88 O 0.95876(11) 0.20251(11) 0.17230(13)
O91 O 0.95873(10) 0.25017(11) 0.22867(13)
O94 O 0.85505(11) 0.20304(11) 0.04926(13)
O99 O 0.80777(10) 0.25088(11) 0.04931(13)
Cu9_2 Cu 0.82994(3) 0.17006(3) 1.0000
Cu10_2 Cu 0.77411(3) 0.22589(3) 1.0000
O37_2 O 0.87679(18) 0.12321(18) 1.0000
O38_2 O 0.7297(2) 0.2703(2) 1.0000
O96 O 0.79696(11) 0.14495(11) 0.95074(13)
O98 O 0.85505(11) 0.20304(11) 0.95074(13)
O101 O 0.74912(11) 0.19223(10) 0.95069(13)
O103 O 0.80777(10) 0.25088(11) 0.95069(13)
Cu6_4 Cu 1.0000 1.0000 0.45245(5)
O16_4 O 1.0000 1.0000 0.3726(6)
Cu11_2 Cu 0.83096(2) 1.0000 0.20150(3)
Cu12_2 Cu 0.77471(2) 1.0000 0.26916(3)
O47_2 O 0.8770(2) 1.0000 0.1453(3)
O48_2 O 0.7289(2) 1.0000 0.3251(2)
Cu18_2 Cu 0.83096(2) 1.0000 0.79850(3)
Cu24_2 Cu 0.77471(2) 1.0000 0.73084(3)
Cu40_4 Cu 1.0000 1.0000 0.54755(5)
O89 O 0.79749(11) 0.95876(11) 0.17230(13)
O92 O 0.74983(11) 0.95873(10) 0.22867(13)
O108 O 0.85562(11) 0.95840(11) 0.24119(13)
O112 O 0.80839(11) 0.95882(11) 0.29927(13)
O116 O 0.95887(9) 0.95887(9) 0.45965(16)
O15_3 O 0.0000 0.5000 0.3761(4)
O87_3 O -0.0000 0.5000 0.1239(4)
O104_2 O 0.04119(10) 0.54134(10) 0.29021(12)
O105_2 O 0.04134(10) 0.54119(10) 0.20979(12)
Cu11_3 Cu -0.0000 0.83096(2) 0.20150(3)
Cu12_3 Cu -0.0000 0.77471(2) 0.26916(3)
O47_3 O 0.0000 0.8770(2) 0.1453(3)
O48_3 O -0.0000 0.7289(2) 0.3251(2)
Cu18_3 Cu 0.0000 0.83096(2) 0.79850(3)
Cu24_3 Cu 0.0000 0.77471(2) 0.73084(3)
O89_2 O 0.04124(11) 0.79749(11) 0.17230(13)
O92_2 O 0.04127(10) 0.74983(11) 0.22867(13)
O108_2 O 0.04160(11) 0.85562(11) 0.24119(13)
O112_2 O 0.04118(11) 0.80839(11) 0.29927(13)
O5_2 O 0.85998(11) 0.35259(10) 0.16398(14)
O6_2 O 0.95881(10) 0.45866(10) 0.29021(12)
O15_4 O 1.0000 0.5000 0.3761(4)
C1_2 C 0.91362(15) 0.25680(15) 0.16373(18)
C2_2 C 0.89380(15) 0.23774(16) 0.12577(18)
H1_2 H 0.9016 0.2123 0.1160
C3_2 C 0.86275(14) 0.25685(15) 0.10297(17)
C4_2 C 0.85115(15) 0.29479(15) 0.11725(18)
H2_2 H 0.8296 0.3074 0.1024
C5_2 C 0.87193(15) 0.31370(16) 0.15377(18)
C6_2 C 0.90250(14) 0.29435(14) 0.17799(18)
H3_2 H 0.9153 0.3068 0.2037
C7_2 C 0.94661(15) 0.23441(16) 0.19021(18)
C8_2 C 0.84004(16) 0.23526(17) 0.06398(18)
C9_2 C 0.87339(15) 0.36909(15) 0.20793(19)
C10_2 C 0.85560(16) 0.35560(16) 0.2500
H4_2 H 0.8359 0.3359 0.2500
C11_2 C 0.90205(15) 0.39791(15) 0.2071(2)
H5_2 H 0.9130 0.4062 0.1780
C12_2 C 0.91482(14) 0.41482(14) 0.2500
C13_2 C 0.94683(15) 0.44683(15) 0.2500
O17_2 O 0.70251(11) 0.45876(11) 0.32770(13)
O18_2 O 0.75017(11) 0.45873(10) 0.27133(13)
O19_2 O 0.70304(11) 0.35505(11) 0.45074(13)
O20_2 O 0.75088(11) 0.30777(10) 0.45069(13)
O21_2 O 0.85259(10) 0.35998(11) 0.33602(14)
O22_2 O 0.95866(10) 0.45881(10) 0.20979(12)
C24_2 C 0.75680(15) 0.41362(15) 0.33627(18)
C25_2 C 0.73774(16) 0.39380(15) 0.37423(18)
H10_2 H 0.7123 0.4016 0.3840
C26_2 C 0.75685(15) 0.36275(14) 0.39703(17)
C27_2 C 0.79479(15) 0.35115(15) 0.38275(18)
H11_2 H 0.8074 0.3296 0.3976
C28_2 C 0.81370(16) 0.37193(15) 0.34623(18)
C29_2 C 0.79435(14) 0.40250(14) 0.32201(18)
H12_2 H 0.8068 0.4153 0.2963
C30_2 C 0.73441(16) 0.44661(15) 0.30979(18)
C31_2 C 0.73526(17) 0.34004(16) 0.43602(18)
C32_2 C 0.86909(15) 0.37339(15) 0.29207(19)
C33_2 C 0.89791(15) 0.40205(15) 0.2929(2)
H13_2 H 0.9062 0.4130 0.3220
Cu13_2 Cu 0.66904(2) 0.5000 0.29850(3)
O85_2 O 0.6230(2) 0.5000 0.3547(3)
Cu14_2 Cu 0.72529(2) 0.5000 0.23084(3)
O86_2 O 0.7711(2) 0.5000 0.1749(2)
O87_4 O 1.0000 0.5000 0.1239(4)
O90_2 O 0.70251(11) 0.54124(11) 0.32770(13)
O93_2 O 0.75017(11) 0.54127(10) 0.27133(13)
O106_2 O 0.95881(10) 0.54134(10) 0.29021(12)
O107_2 O 0.95866(10) 0.54119(10) 0.20979(12)
O109_2 O 0.64438(11) 0.45840(11) 0.25881(13)
O111_2 O 0.64438(11) 0.54160(11) 0.25881(13)
O113_2 O 0.69161(11) 0.45882(11) 0.20073(13)
O115_2 O 0.69161(11) 0.54118(11) 0.20073(13)
Cu9_3 Cu 0.82994(3) 0.82994(3) 0.0000
Cu10_3 Cu 0.77411(3) 0.77411(3) 0.0000
O33_2 O 0.85410(10) 0.85410(10) 0.41601(16)
O37_3 O 0.87679(18) 0.87679(18) 0.0000
O38_3 O 0.7297(2) 0.7297(2) 0.0000
C47_2 C 0.86102(15) 0.91251(15) 0.30556(17)
C48_2 C 0.89348(15) 0.89348(15) 0.2830(3)
H19_2 H 0.9024 0.9024 0.2531
C49_2 C 0.84895(15) 0.89969(15) 0.35017(17)
H20_2 H 0.8276 0.9122 0.3656
C50_2 C 0.86833(15) 0.86833(15) 0.3721(2)
C51_2 C 0.84088(16) 0.94620(16) 0.2800(2)
C52_2 C 0.87122(15) 0.87122(15) 0.4571(2)
C53_2 C 0.90048(14) 0.90048(14) 0.4559(3)
H21_2 H 0.9103 0.9103 0.4269
C54_2 C 0.91472(18) 0.91472(18) 0.5000
C55_2 C 0.9462(2) 0.9462(2) 0.5000
C56_2 C 0.8556(2) 0.8556(2) 0.5000
H22_2 H 0.8359 0.8359 0.5000
O39_2 O 0.95840(11) 0.85562(11) 0.75881(13)
O40_2 O 0.95882(11) 0.80839(11) 0.70073(13)
O41_2 O 0.85410(10) 0.85410(10) 0.58399(16)
O42_2 O 0.95887(9) 0.95887(9) 0.54035(16)
C57_2 C 0.91251(15) 0.86102(15) 0.69444(17)
C58_2 C 0.89348(15) 0.89348(15) 0.7170(3)
H23_2 H 0.9024 0.9024 0.7469
C59_2 C 0.89969(15) 0.84895(15) 0.64983(17)
H24_2 H 0.9122 0.8276 0.6344
C60_2 C 0.86833(15) 0.86833(15) 0.6279(2)
C61_2 C 0.94620(16) 0.84088(16) 0.7200(2)
C62_2 C 0.87122(15) 0.87122(15) 0.5429(2)
C63_2 C 0.90048(14) 0.90048(14) 0.5441(3)
H25_2 H 0.9103 0.9103 0.5731
O43_2 O 0.85562(11) 0.95840(11) 0.75881(13)
O44_2 O 0.80839(11) 0.95882(11) 0.70073(13)
C64_2 C 0.86102(15) 0.91251(15) 0.69444(17)
C65_2 C 0.84895(15) 0.89969(15) 0.64983(17)
H26_2 H 0.8276 0.9122 0.6344
C66_2 C 0.84088(16) 0.94620(16) 0.7200(2)
O45_2 O 0.95840(11) 0.85562(11) 0.24119(13)
O46_2 O 0.95882(11) 0.80839(11) 0.29927(13)
C67_2 C 0.91251(15) 0.86102(15) 0.30556(17)
C68_2 C 0.89969(15) 0.84895(15) 0.35017(17)
H27_2 H 0.9122 0.8276 0.3656
C69_2 C 0.94620(16) 0.84088(16) 0.2800(2)
Cu11_4 Cu 1.0000 0.83096(2) 0.20150(3)
Cu12_4 Cu 1.0000 0.77471(2) 0.26916(3)
O47_4 O 1.0000 0.8770(2) 0.1453(3)
O48_4 O 1.0000 0.7289(2) 0.3251(2)
O49_2 O 0.95876(11) 0.79749(11) 0.17230(13)
O50_2 O 0.95873(10) 0.74983(11) 0.22867(13)
O51_2 O 0.85505(11) 0.79696(11) 0.04926(13)
O52_2 O 0.80777(10) 0.74912(11) 0.04931(13)
O53_2 O 0.85998(11) 0.64741(10) 0.16398(14)
C70_2 C 0.91362(15) 0.74320(15) 0.16373(18)
C71_2 C 0.89380(15) 0.76226(16) 0.12577(18)
H28_2 H 0.9016 0.7877 0.1160
C72_2 C 0.86275(14) 0.74315(15) 0.10297(17)
C73_2 C 0.85115(15) 0.70521(15) 0.11725(18)
H29_2 H 0.8296 0.6926 0.1024
C74_2 C 0.87193(15) 0.68630(16) 0.15377(18)
C75_2 C 0.90250(14) 0.70565(14) 0.17799(18)
H30_2 H 0.9153 0.6932 0.2037
C76_2 C 0.94661(15) 0.76559(16) 0.19021(18)
C77_2 C 0.84004(16) 0.76474(17) 0.06398(18)
C78_2 C 0.87339(15) 0.63091(15) 0.20793(19)
C79_2 C 0.85560(16) 0.64440(16) 0.2500
H31_2 H 0.8359 0.6641 0.2500
C80_2 C 0.90205(15) 0.60209(15) 0.2071(2)
H32_2 H 0.9130 0.5938 0.1780
C81_2 C 0.91482(14) 0.58518(14) 0.2500
C82_2 C 0.94683(15) 0.55317(15) 0.2500
O57_2 O 0.70304(11) 0.64495(11) 0.45074(13)
O58_2 O 0.75088(11) 0.69223(10) 0.45069(13)
O59_2 O 0.85259(10) 0.64002(11) 0.33602(14)
C83_2 C 0.75680(15) 0.58638(15) 0.33627(18)
C84_2 C 0.73774(16) 0.60620(15) 0.37423(18)
H33_2 H 0.7123 0.5984 0.3840
C85_2 C 0.75685(15) 0.63725(14) 0.39703(17)
C86_2 C 0.79479(15) 0.64885(15) 0.38275(18)
H34_2 H 0.8074 0.6704 0.3976
C87_2 C 0.81370(16) 0.62807(15) 0.34623(18)
C88_2 C 0.79435(14) 0.59750(14) 0.32201(18)
H35_2 H 0.8068 0.5847 0.2963
C89_2 C 0.73441(16) 0.55339(15) 0.30979(18)
C90_2 C 0.73526(17) 0.65996(16) 0.43602(18)
C91_2 C 0.86909(15) 0.62661(15) 0.29207(19)
C92_2 C 0.89791(15) 0.59795(15) 0.2929(2)
H36_2 H 0.9062 0.5870 0.3220
Cu18_4 Cu 1.0000 0.83096(2) 0.79850(3)
Cu24_4 Cu 1.0000 0.77471(2) 0.73084(3)
Cu31_2 Cu 0.67006(3) 0.67006(3) 0.5000
Cu35_2 Cu 0.72589(3) 0.72589(3) 0.5000
O94_2 O 0.79696(11) 0.85505(11) 0.04926(13)
O99_2 O 0.74912(11) 0.80777(10) 0.04931(13)
Cu9_4 Cu 0.82994(3) 0.82994(3) 1.0000
Cu10_4 Cu 0.77411(3) 0.77411(3) 1.0000
O37_4 O 0.87679(18) 0.87679(18) 1.0000
O38_4 O 0.7297(2) 0.7297(2) 1.0000
O96_2 O 0.85505(11) 0.79696(11) 0.95074(13)
O98_2 O 0.79696(11) 0.85505(11) 0.95074(13)
O101_2 O 0.80777(10) 0.74912(11) 0.95069(13)
O103_2 O 0.74912(11) 0.80777(10) 0.95069(13)
O33_3 O 0.14590(10) 0.85410(10) 0.41601(16)
O37_5 O 0.12321(18) 0.87679(18) 0.0000
O38_5 O 0.2703(2) 0.7297(2) 0.0000
C47_3 C 0.08749(15) 0.86102(15) 0.30556(17)
C48_3 C 0.10652(15) 0.89348(15) 0.2830(3)
H19_3 H 0.0976 0.9024 0.2531
C49_3 C 0.10031(15) 0.84895(15) 0.35017(17)
H20_3 H 0.0878 0.8276 0.3656
C50_3 C 0.13167(15) 0.86833(15) 0.3721(2)
C51_3 C 0.05380(16) 0.84088(16) 0.2800(2)
C52_3 C 0.12878(15) 0.87122(15) 0.4571(2)
C53_3 C 0.09952(14) 0.90048(14) 0.4559(3)
H21_3 H 0.0897 0.9103 0.4269
C54_3 C 0.08528(18) 0.91472(18) 0.5000
C55_3 C 0.0538(2) 0.9462(2) 0.5000
C56_3 C 0.1444(2) 0.8556(2) 0.5000
H22_3 H 0.1641 0.8359 0.5000
O39_3 O 0.14438(11) 0.95840(11) 0.75881(13)
O40_3 O 0.19161(11) 0.95882(11) 0.70073(13)
O41_3 O 0.14590(10) 0.85410(10) 0.58399(16)
O42_3 O 0.04113(9) 0.95887(9) 0.54035(16)
C57_3 C 0.13898(15) 0.91251(15) 0.69444(17)
C58_3 C 0.10652(15) 0.89348(15) 0.7170(3)
H23_3 H 0.0976 0.9024 0.7469
C59_3 C 0.15105(15) 0.89969(15) 0.64983(17)
H24_3 H 0.1724 0.9122 0.6344
C60_3 C 0.13167(15) 0.86833(15) 0.6279(2)
C61_3 C 0.15912(16) 0.94620(16) 0.7200(2)
C62_3 C 0.12878(15) 0.87122(15) 0.5429(2)
C63_3 C 0.09952(14) 0.90048(14) 0.5441(3)
H25_3 H 0.0897 0.9103 0.5731
O43_3 O 0.04160(11) 0.85562(11) 0.75881(13)
O44_3 O 0.04118(11) 0.80839(11) 0.70073(13)
C64_3 C 0.08749(15) 0.86102(15) 0.69444(17)
C65_3 C 0.10031(15) 0.84895(15) 0.64983(17)
H26_3 H 0.0878 0.8276 0.6344
C66_3 C 0.05380(16) 0.84088(16) 0.7200(2)
C67_3 C 0.13898(15) 0.91251(15) 0.30556(17)
C68_3 C 0.15105(15) 0.89969(15) 0.35017(17)
H27_3 H 0.1724 0.9122 0.3656
C69_3 C 0.15912(16) 0.94620(16) 0.2800(2)
O94_3 O 0.14495(11) 0.79696(11) 0.04926(13)
O99_3 O 0.19223(10) 0.74912(11) 0.04931(13)
O37_6 O 0.12321(18) 0.87679(18) 1.0000
O38_6 O 0.2703(2) 0.7297(2) 1.0000
O96_3 O 0.20304(11) 0.85505(11) 0.95074(13)
O98_3 O 0.14495(11) 0.79696(11) 0.95074(13)
O101_3 O 0.25088(11) 0.80777(10) 0.95069(13)
O103_3 O 0.19223(10) 0.74912(11) 0.95069(13)
O5_3 O 0.64741(10) 0.85998(11) 0.16398(14)
C1_3 C 0.74320(15) 0.91362(15) 0.16373(18)
C2_3 C 0.76226(16) 0.89380(15) 0.12577(18)
H1_3 H 0.7877 0.9016 0.1160
C3_3 C 0.74315(15) 0.86275(14) 0.10297(17)
C4_3 C 0.70521(15) 0.85115(15) 0.11725(18)
H2_3 H 0.6926 0.8296 0.1024
C5_3 C 0.68630(16) 0.87193(15) 0.15377(18)
C6_3 C 0.70565(14) 0.90250(14) 0.17799(18)
H3_3 H 0.6932 0.9153 0.2037
C7_3 C 0.76559(16) 0.94661(15) 0.19021(18)
C8_3 C 0.76474(17) 0.84004(16) 0.06398(18)
C9_3 C 0.63091(15) 0.87339(15) 0.20793(19)
C10_3 C 0.64440(16) 0.85560(16) 0.2500
H4_3 H 0.6641 0.8359 0.2500
C11_3 C 0.60209(15) 0.90205(15) 0.2071(2)
H5_3 H 0.5938 0.9130 0.1780
C12_3 C 0.58518(14) 0.91482(14) 0.2500
C13_3 C 0.55317(15) 0.94683(15) 0.2500
O17_3 O 0.54124(11) 0.70251(11) 0.32770(13)
O18_3 O 0.54127(10) 0.75017(11) 0.27133(13)
O19_3 O 0.64495(11) 0.70304(11) 0.45074(13)
O20_3 O 0.69223(10) 0.75088(11) 0.45069(13)
O21_3 O 0.64002(11) 0.85259(10) 0.33602(14)
C24_3 C 0.58638(15) 0.75680(15) 0.33627(18)
C25_3 C 0.60620(15) 0.73774(16) 0.37423(18)
H10_3 H 0.5984 0.7123 0.3840
C26_3 C 0.63725(14) 0.75685(15) 0.39703(17)
C27_3 C 0.64885(15) 0.79479(15) 0.38275(18)
H11_3 H 0.6704 0.8074 0.3976
C28_3 C 0.62807(15) 0.81370(16) 0.34623(18)
C29_3 C 0.59750(14) 0.79435(14) 0.32201(18)
H12_3 H 0.5847 0.8068 0.2963
C30_3 C 0.55339(15) 0.73441(16) 0.30979(18)
C31_3 C 0.65996(16) 0.73526(17) 0.43602(18)
C32_3 C 0.62661(15) 0.86909(15) 0.29207(19)
C33_3 C 0.59795(15) 0.89791(15) 0.2929(2)
H13_3 H 0.5870 0.9062 0.3220
O85_3 O 0.5000 0.6230(2) 0.3547(3)
O86_3 O 0.5000 0.7711(2) 0.1749(2)
O109_3 O 0.54160(11) 0.64438(11) 0.25881(13)
O111_3 O 0.45840(11) 0.64438(11) 0.25881(13)
O113_3 O 0.54118(11) 0.69161(11) 0.20073(13)
O115_3 O 0.45882(11) 0.69161(11) 0.20073(13)
O5_4 O 0.14002(11) 0.64741(10) 0.16398(14)
C1_4 C 0.08638(15) 0.74320(15) 0.16373(18)
C2_4 C 0.10620(15) 0.76226(16) 0.12577(18)
H1_4 H 0.0984 0.7877 0.1160
C3_4 C 0.13725(14) 0.74315(15) 0.10297(17)
C4_4 C 0.14885(15) 0.70521(15) 0.11725(18)
H2_4 H 0.1704 0.6926 0.1024
C5_4 C 0.12807(15) 0.68630(16) 0.15377(18)
C6_4 C 0.09750(14) 0.70565(14) 0.17799(18)
H3_4 H 0.0847 0.6932 0.2037
C7_4 C 0.05339(15) 0.76559(16) 0.19021(18)
C8_4 C 0.15996(16) 0.76474(17) 0.06398(18)
C9_4 C 0.12661(15) 0.63091(15) 0.20793(19)
C10_4 C 0.14440(16) 0.64440(16) 0.2500
H4_4 H 0.1641 0.6641 0.2500
C11_4 C 0.09795(15) 0.60209(15) 0.2071(2)
H5_4 H 0.0870 0.5938 0.1780
C12_4 C 0.08518(14) 0.58518(14) 0.2500
C13_4 C 0.05317(15) 0.55317(15) 0.2500
O17_4 O 0.29749(11) 0.54124(11) 0.32770(13)
O18_4 O 0.24983(11) 0.54127(10) 0.27133(13)
O19_4 O 0.29696(11) 0.64495(11) 0.45074(13)
O20_4 O 0.24912(11) 0.69223(10) 0.45069(13)
O21_4 O 0.14741(10) 0.64002(11) 0.33602(14)
C24_4 C 0.24320(15) 0.58638(15) 0.33627(18)
C25_4 C 0.26226(16) 0.60620(15) 0.37423(18)
H10_4 H 0.2877 0.5984 0.3840
C26_4 C 0.24315(15) 0.63725(14) 0.39703(17)
C27_4 C 0.20521(15) 0.64885(15) 0.38275(18)
H11_4 H 0.1926 0.6704 0.3976
C28_4 C 0.18630(16) 0.62807(15) 0.34623(18)
C29_4 C 0.20565(14) 0.59750(14) 0.32201(18)
H12_4 H 0.1932 0.5847 0.2963
C30_4 C 0.26559(16) 0.55339(15) 0.30979(18)
C31_4 C 0.26474(17) 0.65996(16) 0.43602(18)
C32_4 C 0.13091(15) 0.62661(15) 0.29207(19)
C33_4 C 0.10209(15) 0.59795(15) 0.2929(2)
H13_4 H 0.0938 0.5870 0.3220
O85_4 O 0.3770(2) 0.5000 0.3547(3)
O86_4 O 0.2289(2) 0.5000 0.1749(2)
O109_4 O 0.35562(11) 0.54160(11) 0.25881(13)
O111_4 O 0.35562(11) 0.45840(11) 0.25881(13)
O113_4 O 0.30839(11) 0.54118(11) 0.20073(13)
O115_4 O 0.30839(11) 0.45882(11) 0.20073(13)
Cu5_3 Cu 0.5000 0.0000 0.70226(4)
O11_3 O 0.1230(2) -0.0000 0.8547(3)
O12_3 O 0.2711(2) 0.0000 0.6749(2)
O15_5 O 0.5000 0.0000 0.6239(4)
O16_5 O 0.0000 0.0000 0.6274(6)
O61_2 O 0.20251(11) 0.04124(11) 0.82770(13)
O62_2 O 0.25017(11) 0.04127(10) 0.77133(13)
O65_2 O 0.35259(10) 0.14002(11) 0.83602(14)
O66_2 O 0.45866(10) 0.04119(10) 0.70979(12)
C93_2 C 0.25680(15) 0.08638(15) 0.83627(18)
C94_2 C 0.23774(16) 0.10620(15) 0.87423(18)
H37_2 H 0.2123 0.0984 0.8840
C95_2 C 0.25685(15) 0.13725(14) 0.89703(17)
C96_2 C 0.29479(15) 0.14885(15) 0.88275(18)
H38_2 H 0.3074 0.1704 0.8976
C97_2 C 0.31370(16) 0.12807(15) 0.84623(18)
C98_2 C 0.29435(14) 0.09750(14) 0.82201(18)
H39_2 H 0.3068 0.0847 0.7963
C99_2 C 0.23441(16) 0.05339(15) 0.80979(18)
C100_2 C 0.23526(17) 0.15996(16) 0.93602(18)
C101_2 C 0.36909(15) 0.12661(15) 0.79207(19)
C102_2 C 0.35560(16) 0.14440(16) 0.7500
H40_2 H 0.3359 0.1641 0.7500
C103_2 C 0.39791(15) 0.09795(15) 0.7929(2)
H41_2 H 0.4062 0.0870 0.8220
C104_2 C 0.41482(14) 0.08518(14) 0.7500
C105_2 C 0.44683(15) 0.05317(15) 0.7500
O67_2 O 0.45876(11) 0.29749(11) 0.67230(13)
O68_2 O 0.45873(10) 0.24983(11) 0.72867(13)
O69_2 O 0.35505(11) 0.29696(11) 0.54926(13)
O70_2 O 0.30777(10) 0.24912(11) 0.54931(13)
O71_2 O 0.35998(11) 0.14741(10) 0.66398(14)
O72_2 O 0.45881(10) 0.04134(10) 0.79021(12)
C106_2 C 0.41362(15) 0.24320(15) 0.66373(18)
C107_2 C 0.39380(15) 0.26226(16) 0.62577(18)
H42_2 H 0.4016 0.2877 0.6160
C108_2 C 0.36275(14) 0.24315(15) 0.60297(17)
C109_2 C 0.35115(15) 0.20521(15) 0.61725(18)
H43_2 H 0.3296 0.1926 0.6024
C110_2 C 0.37193(15) 0.18630(16) 0.65377(18)
C111_2 C 0.40250(14) 0.20565(14) 0.67799(18)
H44_2 H 0.4153 0.1932 0.7037
C112_2 C 0.44661(15) 0.26559(16) 0.69021(18)
C113_2 C 0.34004(16) 0.26474(17) 0.56398(18)
C114_2 C 0.37339(15) 0.13091(15) 0.70793(19)
C115_2 C 0.40205(15) 0.10209(15) 0.7071(2)
H45_2 H 0.4130 0.0938 0.6780
Cu15_3 Cu 0.5000 -0.0000 0.79774(4)
O87_5 O 0.5000 -0.0000 0.8761(4)
Cu19_2 Cu 0.5000 0.33096(2) 0.70150(3)
Cu25_2 Cu 0.5000 0.27471(2) 0.76916(3)
O104_3 O 0.54134(10) 0.04119(10) 0.70979(12)
O105_3 O 0.54119(10) 0.04134(10) 0.79021(12)
Cu5_4 Cu 0.5000 1.0000 0.70226(4)
O1_2 O 0.20251(11) 0.95876(11) 0.82770(13)
O2_2 O 0.25017(11) 0.95873(10) 0.77133(13)
O5_5 O 0.35259(10) 0.85998(11) 0.83602(14)
O6_3 O 0.45866(10) 0.95881(10) 0.70979(12)
O11_4 O 0.1230(2) 1.0000 0.8547(3)
O12_4 O 0.2711(2) 1.0000 0.6749(2)
O15_6 O 0.5000 1.0000 0.6239(4)
O16_6 O -0.0000 1.0000 0.6274(6)
C1_5 C 0.25680(15) 0.91362(15) 0.83627(18)
C2_5 C 0.23774(16) 0.89380(15) 0.87423(18)
H1_5 H 0.2123 0.9016 0.8840
C3_5 C 0.25685(15) 0.86275(14) 0.89703(17)
C4_5 C 0.29479(15) 0.85115(15) 0.88275(18)
H2_5 H 0.3074 0.8296 0.8976
C5_5 C 0.31370(16) 0.87193(15) 0.84623(18)
C6_5 C 0.29435(14) 0.90250(14) 0.82201(18)
H3_5 H 0.3068 0.9153 0.7963
C7_5 C 0.23441(16) 0.94661(15) 0.80979(18)
C8_5 C 0.23526(17) 0.84004(16) 0.93602(18)
C9_5 C 0.36909(15) 0.87339(15) 0.79207(19)
C10_5 C 0.35560(16) 0.85560(16) 0.7500
H4_5 H 0.3359 0.8359 0.7500
C11_5 C 0.39791(15) 0.90205(15) 0.7929(2)
H5_5 H 0.4062 0.9130 0.8220
C12_5 C 0.41482(14) 0.91482(14) 0.7500
C13_5 C 0.44683(15) 0.94683(15) 0.7500
O17_5 O 0.45876(11) 0.70251(11) 0.67230(13)
O18_5 O 0.45873(10) 0.75017(11) 0.72867(13)
O19_5 O 0.35505(11) 0.70304(11) 0.54926(13)
O20_5 O 0.30777(10) 0.75088(11) 0.54931(13)
O21_5 O 0.35998(11) 0.85259(10) 0.66398(14)
O22_3 O 0.45881(10) 0.95866(10) 0.79021(12)
C24_5 C 0.41362(15) 0.75680(15) 0.66373(18)
C25_5 C 0.39380(15) 0.73774(16) 0.62577(18)
H10_5 H 0.4016 0.7123 0.6160
C26_5 C 0.36275(14) 0.75685(15) 0.60297(17)
C27_5 C 0.35115(15) 0.79479(15) 0.61725(18)
H11_5 H 0.3296 0.8074 0.6024
C28_5 C 0.37193(15) 0.81370(16) 0.65377(18)
C29_5 C 0.40250(14) 0.79435(14) 0.67799(18)
H12_5 H 0.4153 0.8068 0.7037
C30_5 C 0.44661(15) 0.73441(16) 0.69021(18)
C31_5 C 0.34004(16) 0.73526(17) 0.56398(18)
C32_5 C 0.37339(15) 0.86909(15) 0.70793(19)
C33_5 C 0.40205(15) 0.89791(15) 0.7071(2)
H13_5 H 0.4130 0.9062 0.6780
O35_3 O 0.0000 0.8770(2) 0.8547(3)
O36_3 O 0.0000 0.7289(2) 0.6749(2)
O73_2 O 0.04124(11) 0.79749(11) 0.82770(13)
O74_2 O 0.04127(10) 0.74983(11) 0.77133(13)
O77_2 O 0.14002(11) 0.64741(10) 0.83602(14)
O78_2 O 0.04119(10) 0.54134(10) 0.70979(12)
C116_2 C 0.08638(15) 0.74320(15) 0.83627(18)
C117_2 C 0.10620(15) 0.76226(16) 0.87423(18)
H46_2 H 0.0984 0.7877 0.8840
C118_2 C 0.13725(14) 0.74315(15) 0.89703(17)
C119_2 C 0.14885(15) 0.70521(15) 0.88275(18)
H47_2 H 0.1704 0.6926 0.8976
C120_2 C 0.12807(15) 0.68630(16) 0.84623(18)
C121_2 C 0.09750(14) 0.70565(14) 0.82201(18)
H48_2 H 0.0847 0.6932 0.7963
C122_2 C 0.05339(15) 0.76559(16) 0.80979(18)
C123_2 C 0.15996(16) 0.76474(17) 0.93602(18)
C124_2 C 0.12661(15) 0.63091(15) 0.79207(19)
C125_2 C 0.14440(16) 0.64440(16) 0.7500
H49_2 H 0.1641 0.6641 0.7500
C126_2 C 0.09795(15) 0.60209(15) 0.7929(2)
H50_2 H 0.0870 0.5938 0.8220
C127_2 C 0.08518(14) 0.58518(14) 0.7500
C128_2 C 0.05317(15) 0.55317(15) 0.7500
O79_2 O 0.29749(11) 0.54124(11) 0.67230(13)
O80_2 O 0.24983(11) 0.54127(10) 0.72867(13)
O81_2 O 0.29696(11) 0.64495(11) 0.54926(13)
O82_2 O 0.24912(11) 0.69223(10) 0.54931(13)
O83_2 O 0.14741(10) 0.64002(11) 0.66398(14)
O84_2 O 0.04134(10) 0.54119(10) 0.79021(12)
C129_2 C 0.24320(15) 0.58638(15) 0.66373(18)
C130_2 C 0.26226(16) 0.60620(15) 0.62577(18)
H51_2 H 0.2877 0.5984 0.6160
C131_2 C 0.24315(15) 0.63725(14) 0.60297(17)
C132_2 C 0.20521(15) 0.64885(15) 0.61725(18)
H52_2 H 0.1926 0.6704 0.6024
C133_2 C 0.18630(16) 0.62807(15) 0.65377(18)
C134_2 C 0.20565(14) 0.59750(14) 0.67799(18)
H53_2 H 0.1932 0.5847 0.7037
C135_2 C 0.26559(16) 0.55339(15) 0.69021(18)
C136_2 C 0.26474(17) 0.65996(16) 0.56398(18)
C137_2 C 0.13091(15) 0.62661(15) 0.70793(19)
C138_2 C 0.10209(15) 0.59795(15) 0.7071(2)
H54_2 H 0.0938 0.5870 0.6780
Cu13_3 Cu 0.5000 0.66904(2) 0.70150(3)
O85_5 O 0.5000 0.6230(2) 0.6453(3)
Cu14_3 Cu 0.5000 0.72529(2) 0.76916(3)
O86_5 O 0.5000 0.7711(2) 0.8251(2)
Cu15_4 Cu 0.5000 1.0000 0.79774(4)
O87_6 O 0.5000 1.0000 0.8761(4)
Cu20_2 Cu 0.33096(2) 0.5000 0.70150(3)
Cu26_2 Cu 0.27471(2) 0.5000 0.76916(3)
Cu37_3 Cu 0.0000 0.5000 0.70226(4)
Cu38_3 Cu -0.0000 0.5000 0.79774(4)
O90_3 O 0.54124(11) 0.70251(11) 0.67230(13)
O93_3 O 0.54127(10) 0.75017(11) 0.72867(13)
O106_3 O 0.54134(10) 0.95881(10) 0.70979(12)
O107_3 O 0.54119(10) 0.95866(10) 0.79021(12)
O109_5 O 0.45840(11) 0.64438(11) 0.74119(13)
O111_5 O 0.54160(11) 0.64438(11) 0.74119(13)
O113_5 O 0.45882(11) 0.69161(11) 0.79927(13)
O115_5 O 0.54118(11) 0.69161(11) 0.79927(13)
O16_7 O 1.0000 0.0000 0.6274(6)
O47_5 O 0.8770(2) -0.0000 0.8547(3)
O48_5 O 0.7289(2) 0.0000 0.6749(2)
O89_3 O 0.79749(11) 0.04124(11) 0.82770(13)
O92_3 O 0.74983(11) 0.04127(10) 0.77133(13)
O16_8 O 1.0000 1.0000 0.6274(6)
O35_4 O 1.0000 0.8770(2) 0.8547(3)
O36_4 O 1.0000 0.7289(2) 0.6749(2)
O47_6 O 0.8770(2) 1.0000 0.8547(3)
O48_6 O 0.7289(2) 1.0000 0.6749(2)
O49_3 O 0.79749(11) 0.95876(11) 0.82770(13)
O50_3 O 0.74983(11) 0.95873(10) 0.77133(13)
O53_3 O 0.64741(10) 0.85998(11) 0.83602(14)
C70_3 C 0.74320(15) 0.91362(15) 0.83627(18)
C71_3 C 0.76226(16) 0.89380(15) 0.87423(18)
H28_3 H 0.7877 0.9016 0.8840
C72_3 C 0.74315(15) 0.86275(14) 0.89703(17)
C73_3 C 0.70521(15) 0.85115(15) 0.88275(18)
H29_3 H 0.6926 0.8296 0.8976
C74_3 C 0.68630(16) 0.87193(15) 0.84623(18)
C75_3 C 0.70565(14) 0.90250(14) 0.82201(18)
H30_3 H 0.6932 0.9153 0.7963
C76_3 C 0.76559(16) 0.94661(15) 0.80979(18)
C77_3 C 0.76474(17) 0.84004(16) 0.93602(18)
C78_3 C 0.63091(15) 0.87339(15) 0.79207(19)
C79_3 C 0.64440(16) 0.85560(16) 0.7500
H31_3 H 0.6641 0.8359 0.7500
C80_3 C 0.60209(15) 0.90205(15) 0.7929(2)
H32_3 H 0.5938 0.9130 0.8220
C81_3 C 0.58518(14) 0.91482(14) 0.7500
C82_3 C 0.55317(15) 0.94683(15) 0.7500
O57_3 O 0.64495(11) 0.70304(11) 0.54926(13)
O58_3 O 0.69223(10) 0.75088(11) 0.54931(13)
O59_3 O 0.64002(11) 0.85259(10) 0.66398(14)
C83_3 C 0.58638(15) 0.75680(15) 0.66373(18)
C84_3 C 0.60620(15) 0.73774(16) 0.62577(18)
H33_3 H 0.5984 0.7123 0.6160
C85_3 C 0.63725(14) 0.75685(15) 0.60297(17)
C86_3 C 0.64885(15) 0.79479(15) 0.61725(18)
H34_3 H 0.6704 0.8074 0.6024
C87_3 C 0.62807(15) 0.81370(16) 0.65377(18)
C88_3 C 0.59750(14) 0.79435(14) 0.67799(18)
H35_3 H 0.5847 0.8068 0.7037
C89_3 C 0.55339(15) 0.73441(16) 0.69021(18)
C90_3 C 0.65996(16) 0.73526(17) 0.56398(18)
C91_3 C 0.62661(15) 0.86909(15) 0.70793(19)
C92_3 C 0.59795(15) 0.89791(15) 0.7071(2)
H36_3 H 0.5870 0.9062 0.6780
Cu37_4 Cu 1.0000 0.5000 0.70226(4)
Cu38_4 Cu 1.0000 0.5000 0.79774(4)
O88_2 O 0.95876(11) 0.79749(11) 0.82770(13)
O91_2 O 0.95873(10) 0.74983(11) 0.77133(13)
O1_3 O 0.04124(11) 0.20251(11) 0.82770(13)
O2_3 O 0.04127(10) 0.25017(11) 0.77133(13)
O5_6 O 0.14002(11) 0.35259(10) 0.83602(14)
O6_4 O 0.04119(10) 0.45866(10) 0.70979(12)
O11_5 O 0.0000 0.1230(2) 0.8547(3)
O12_5 O 0.0000 0.2711(2) 0.6749(2)
O15_7 O -0.0000 0.5000 0.6239(4)
C1_6 C 0.08638(15) 0.25680(15) 0.83627(18)
C2_6 C 0.10620(15) 0.23774(16) 0.87423(18)
H1_6 H 0.0984 0.2123 0.8840
C3_6 C 0.13725(14) 0.25685(15) 0.89703(17)
C4_6 C 0.14885(15) 0.29479(15) 0.88275(18)
H2_6 H 0.1704 0.3074 0.8976
C5_6 C 0.12807(15) 0.31370(16) 0.84623(18)
C6_6 C 0.09750(14) 0.29435(14) 0.82201(18)
H3_6 H 0.0847 0.3068 0.7963
C7_6 C 0.05339(15) 0.23441(16) 0.80979(18)
C8_6 C 0.15996(16) 0.23526(17) 0.93602(18)
C9_6 C 0.12661(15) 0.36909(15) 0.79207(19)
C10_6 C 0.14440(16) 0.35560(16) 0.7500
H4_6 H 0.1641 0.3359 0.7500
C11_6 C 0.09795(15) 0.39791(15) 0.7929(2)
H5_6 H 0.0870 0.4062 0.8220
C12_6 C 0.08518(14) 0.41482(14) 0.7500
C13_6 C 0.05317(15) 0.44683(15) 0.7500
O17_6 O 0.29749(11) 0.45876(11) 0.67230(13)
O18_6 O 0.24983(11) 0.45873(10) 0.72867(13)
O19_6 O 0.29696(11) 0.35505(11) 0.54926(13)
O20_6 O 0.24912(11) 0.30777(10) 0.54931(13)
O21_6 O 0.14741(10) 0.35998(11) 0.66398(14)
O22_4 O 0.04134(10) 0.45881(10) 0.79021(12)
C24_6 C 0.24320(15) 0.41362(15) 0.66373(18)
C25_6 C 0.26226(16) 0.39380(15) 0.62577(18)
H10_6 H 0.2877 0.4016 0.6160
C26_6 C 0.24315(15) 0.36275(14) 0.60297(17)
C27_6 C 0.20521(15) 0.35115(15) 0.61725(18)
H11_6 H 0.1926 0.3296 0.6024
C28_6 C 0.18630(16) 0.37193(15) 0.65377(18)
C29_6 C 0.20565(14) 0.40250(14) 0.67799(18)
H12_6 H 0.1932 0.4153 0.7037
C30_6 C 0.26559(16) 0.44661(15) 0.69021(18)
C31_6 C 0.26474(17) 0.34004(16) 0.56398(18)
C32_6 C 0.13091(15) 0.37339(15) 0.70793(19)
C33_6 C 0.10209(15) 0.40205(15) 0.7071(2)
H13_6 H 0.0938 0.4130 0.6780
O85_6 O 0.3770(2) 0.5000 0.6453(3)
O86_6 O 0.2289(2) 0.5000 0.8251(2)
O87_7 O 0.0000 0.5000 0.8761(4)
O109_6 O 0.35562(11) 0.45840(11) 0.74119(13)
O111_6 O 0.35562(11) 0.54160(11) 0.74119(13)
O113_6 O 0.30839(11) 0.45882(11) 0.79927(13)
O115_6 O 0.30839(11) 0.54118(11) 0.79927(13)
O11_6 O 1.0000 0.1230(2) 0.8547(3)
O12_6 O 1.0000 0.2711(2) 0.6749(2)
O15_8 O 1.0000 0.5000 0.6239(4)
O61_3 O 0.95876(11) 0.20251(11) 0.82770(13)
O62_3 O 0.95873(10) 0.25017(11) 0.77133(13)
O65_3 O 0.85998(11) 0.35259(10) 0.83602(14)
O66_3 O 0.95881(10) 0.45866(10) 0.70979(12)
C93_3 C 0.91362(15) 0.25680(15) 0.83627(18)
C94_3 C 0.89380(15) 0.23774(16) 0.87423(18)
H37_3 H 0.9016 0.2123 0.8840
C95_3 C 0.86275(14) 0.25685(15) 0.89703(17)
C96_3 C 0.85115(15) 0.29479(15) 0.88275(18)
H38_3 H 0.8296 0.3074 0.8976
C97_3 C 0.87193(15) 0.31370(16) 0.84623(18)
C98_3 C 0.90250(14) 0.29435(14) 0.82201(18)
H39_3 H 0.9153 0.3068 0.7963
C99_3 C 0.94661(15) 0.23441(16) 0.80979(18)
C100_3 C 0.84004(16) 0.23526(17) 0.93602(18)
C101_3 C 0.87339(15) 0.36909(15) 0.79207(19)
C102_3 C 0.85560(16) 0.35560(16) 0.7500
H40_3 H 0.8359 0.3359 0.7500
C103_3 C 0.90205(15) 0.39791(15) 0.7929(2)
H41_3 H 0.9130 0.4062 0.8220
C104_3 C 0.91482(14) 0.41482(14) 0.7500
C105_3 C 0.94683(15) 0.44683(15) 0.7500
O67_3 O 0.70251(11) 0.45876(11) 0.67230(13)
O68_3 O 0.75017(11) 0.45873(10) 0.72867(13)
O69_3 O 0.70304(11) 0.35505(11) 0.54926(13)
O70_3 O 0.75088(11) 0.30777(10) 0.54931(13)
O71_3 O 0.85259(10) 0.35998(11) 0.66398(14)
O72_3 O 0.95866(10) 0.45881(10) 0.79021(12)
C106_3 C 0.75680(15) 0.41362(15) 0.66373(18)
C107_3 C 0.73774(16) 0.39380(15) 0.62577(18)
H42_3 H 0.7123 0.4016 0.6160
C108_3 C 0.75685(15) 0.36275(14) 0.60297(17)
C109_3 C 0.79479(15) 0.35115(15) 0.61725(18)
H43_3 H 0.8074 0.3296 0.6024
C110_3 C 0.81370(16) 0.37193(15) 0.65377(18)
C111_3 C 0.79435(14) 0.40250(14) 0.67799(18)
H44_3 H 0.8068 0.4153 0.7037
C112_3 C 0.73441(16) 0.44661(15) 0.69021(18)
C113_3 C 0.73526(17) 0.34004(16) 0.56398(18)
C114_3 C 0.86909(15) 0.37339(15) 0.70793(19)
C115_3 C 0.89791(15) 0.40205(15) 0.7071(2)
H45_3 H 0.9062 0.4130 0.6780
O87_8 O 1.0000 0.5000 0.8761(4)
Cu19_3 Cu 0.66904(2) 0.5000 0.70150(3)
Cu25_3 Cu 0.72529(2) 0.5000 0.76916(3)
O104_4 O 0.95881(10) 0.54134(10) 0.70979(12)
O105_4 O 0.95866(10) 0.54119(10) 0.79021(12)
O5_7 O 0.64741(10) 0.14002(11) 0.83602(14)
C1_7 C 0.74320(15) 0.08638(15) 0.83627(18)
C2_7 C 0.76226(16) 0.10620(15) 0.87423(18)
H1_7 H 0.7877 0.0984 0.8840
C3_7 C 0.74315(15) 0.13725(14) 0.89703(17)
C4_7 C 0.70521(15) 0.14885(15) 0.88275(18)
H2_7 H 0.6926 0.1704 0.8976
C5_7 C 0.68630(16) 0.12807(15) 0.84623(18)
C6_7 C 0.70565(14) 0.09750(14) 0.82201(18)
H3_7 H 0.6932 0.0847 0.7963
C7_7 C 0.76559(16) 0.05339(15) 0.80979(18)
C8_7 C 0.76474(17) 0.15996(16) 0.93602(18)
C9_7 C 0.63091(15) 0.12661(15) 0.79207(19)
C10_7 C 0.64440(16) 0.14440(16) 0.7500
H4_7 H 0.6641 0.1641 0.7500
C11_7 C 0.60209(15) 0.09795(15) 0.7929(2)
H5_7 H 0.5938 0.0870 0.8220
C12_7 C 0.58518(14) 0.08518(14) 0.7500
C13_7 C 0.55317(15) 0.05317(15) 0.7500
O17_7 O 0.54124(11) 0.29749(11) 0.67230(13)
O18_7 O 0.54127(10) 0.24983(11) 0.72867(13)
O19_7 O 0.64495(11) 0.29696(11) 0.54926(13)
O20_7 O 0.69223(10) 0.24912(11) 0.54931(13)
O21_7 O 0.64002(11) 0.14741(10) 0.66398(14)
C24_7 C 0.58638(15) 0.24320(15) 0.66373(18)
C25_7 C 0.60620(15) 0.26226(16) 0.62577(18)
H10_7 H 0.5984 0.2877 0.6160
C26_7 C 0.63725(14) 0.24315(15) 0.60297(17)
C27_7 C 0.64885(15) 0.20521(15) 0.61725(18)
H11_7 H 0.6704 0.1926 0.6024
C28_7 C 0.62807(15) 0.18630(16) 0.65377(18)
C29_7 C 0.59750(14) 0.20565(14) 0.67799(18)
H12_7 H 0.5847 0.1932 0.7037
C30_7 C 0.55339(15) 0.26559(16) 0.69021(18)
C31_7 C 0.65996(16) 0.26474(17) 0.56398(18)
C32_7 C 0.62661(15) 0.13091(15) 0.70793(19)
C33_7 C 0.59795(15) 0.10209(15) 0.7071(2)
H13_7 H 0.5870 0.0938 0.6780
O85_7 O 0.5000 0.3770(2) 0.6453(3)
O86_7 O 0.5000 0.2289(2) 0.8251(2)
O109_7 O 0.54160(11) 0.35562(11) 0.74119(13)
O111_7 O 0.45840(11) 0.35562(11) 0.74119(13)
O113_7 O 0.54118(11) 0.30839(11) 0.79927(13)
O115_7 O 0.45882(11) 0.30839(11) 0.79927(13)
O5_8 O 0.85998(11) 0.64741(10) 0.83602(14)
C1_8 C 0.91362(15) 0.74320(15) 0.83627(18)
C2_8 C 0.89380(15) 0.76226(16) 0.87423(18)
H1_8 H 0.9016 0.7877 0.8840
C3_8 C 0.86275(14) 0.74315(15) 0.89703(17)
C4_8 C 0.85115(15) 0.70521(15) 0.88275(18)
H2_8 H 0.8296 0.6926 0.8976
C5_8 C 0.87193(15) 0.68630(16) 0.84623(18)
C6_8 C 0.90250(14) 0.70565(14) 0.82201(18)
H3_8 H 0.9153 0.6932 0.7963
C7_8 C 0.94661(15) 0.76559(16) 0.80979(18)
C8_8 C 0.84004(16) 0.76474(17) 0.93602(18)
C9_8 C 0.87339(15) 0.63091(15) 0.79207(19)
C10_8 C 0.85560(16) 0.64440(16) 0.7500
H4_8 H 0.8359 0.6641 0.7500
C11_8 C 0.90205(15) 0.60209(15) 0.7929(2)
H5_8 H 0.9130 0.5938 0.8220
C12_8 C 0.91482(14) 0.58518(14) 0.7500
C13_8 C 0.94683(15) 0.55317(15) 0.7500
O17_8 O 0.70251(11) 0.54124(11) 0.67230(13)
O18_8 O 0.75017(11) 0.54127(10) 0.72867(13)
O19_8 O 0.70304(11) 0.64495(11) 0.54926(13)
O20_8 O 0.75088(11) 0.69223(10) 0.54931(13)
O21_8 O 0.85259(10) 0.64002(11) 0.66398(14)
C24_8 C 0.75680(15) 0.58638(15) 0.66373(18)
C25_8 C 0.73774(16) 0.60620(15) 0.62577(18)
H10_8 H 0.7123 0.5984 0.6160
C26_8 C 0.75685(15) 0.63725(14) 0.60297(17)
C27_8 C 0.79479(15) 0.64885(15) 0.61725(18)
H11_8 H 0.8074 0.6704 0.6024
C28_8 C 0.81370(16) 0.62807(15) 0.65377(18)
C29_8 C 0.79435(14) 0.59750(14) 0.67799(18)
H12_8 H 0.8068 0.5847 0.7037
C30_8 C 0.73441(16) 0.55339(15) 0.69021(18)
C31_8 C 0.73526(17) 0.65996(16) 0.56398(18)
C32_8 C 0.86909(15) 0.62661(15) 0.70793(19)
C33_8 C 0.89791(15) 0.59795(15) 0.7071(2)
H13_8 H 0.9062 0.5870 0.6780
O85_8 O 0.6230(2) 0.5000 0.6453(3)
O86_8 O 0.7711(2) 0.5000 0.8251(2)
O109_8 O 0.64438(11) 0.54160(11) 0.74119(13)
O111_8 O 0.64438(11) 0.45840(11) 0.74119(13)
O113_8 O 0.69161(11) 0.54118(11) 0.79927(13)
O115_8 O 0.69161(11) 0.45882(11) 0.79927(13)
C21_2 C 0.58528(18) 0.58528(18) 0.0000
C22_2 C 0.5538(2) 0.5538(2) 0.0000
C23_2 C 0.6444(2) 0.6444(2) 0.0000
H9_2 H 0.6641 0.6641 0.0000
O25_2 O 0.64590(10) 0.64590(10) 0.08399(16)
O26_2 O 0.54113(9) 0.54113(9) 0.04035(16)
C34_2 C 0.58749(15) 0.63898(15) 0.19444(17)
C35_2 C 0.60652(15) 0.60652(15) 0.2170(3)
H14_2 H 0.5976 0.5976 0.2469
C36_2 C 0.60031(15) 0.65105(15) 0.14983(17)
H15_2 H 0.5878 0.6724 0.1344
C37_2 C 0.63167(15) 0.63167(15) 0.1279(2)
C38_2 C 0.55380(16) 0.65912(16) 0.2200(2)
C39_2 C 0.62878(15) 0.62878(15) 0.0429(2)
C40_2 C 0.59952(14) 0.59952(14) 0.0441(3)
H16_2 H 0.5897 0.5897 0.0731
C41_2 C 0.63898(15) 0.58749(15) 0.19444(17)
C42_2 C 0.65105(15) 0.60031(15) 0.14983(17)
H17_2 H 0.6724 0.5878 0.1344
C43_2 C 0.65912(16) 0.55380(16) 0.2200(2)
C54_4 C 0.41472(18) 0.58528(18) 0.0000
C55_4 C 0.4462(2) 0.5538(2) 0.0000
C56_4 C 0.3556(2) 0.6444(2) 0.0000
H22_4 H 0.3359 0.6641 0.0000
O41_4 O 0.35410(10) 0.64590(10) 0.08399(16)
O42_4 O 0.45887(9) 0.54113(9) 0.04035(16)
C57_4 C 0.36102(15) 0.58749(15) 0.19444(17)
C58_4 C 0.39348(15) 0.60652(15) 0.2170(3)
H23_4 H 0.4024 0.5976 0.2469
C59_4 C 0.34895(15) 0.60031(15) 0.14983(17)
H24_4 H 0.3276 0.5878 0.1344
C60_4 C 0.36833(15) 0.63167(15) 0.1279(2)
C61_4 C 0.34088(16) 0.55380(16) 0.2200(2)
C62_4 C 0.37122(15) 0.62878(15) 0.0429(2)
C63_4 C 0.40048(14) 0.59952(14) 0.0441(3)
H25_4 H 0.4103 0.5897 0.0731
C64_4 C 0.41251(15) 0.63898(15) 0.19444(17)
C65_4 C 0.39969(15) 0.65105(15) 0.14983(17)
H26_4 H 0.4122 0.6724 0.1344
C66_4 C 0.44620(16) 0.65912(16) 0.2200(2)
Cu40_5 Cu 0.5000 0.5000 0.04755(5)
Cu6_5 Cu 0.5000 0.5000 0.95245(5)
O9_2 O 0.64590(10) 0.64590(10) 0.91601(16)
O10_2 O 0.54113(9) 0.54113(9) 0.95965(16)
O13_3 O 0.62321(18) 0.62321(18) 0.5000
O14_3 O 0.7703(2) 0.7703(2) 0.5000
O16_9 O 0.5000 0.5000 0.8726(6)
C14_2 C 0.63898(15) 0.58749(15) 0.80556(17)
C15_2 C 0.60652(15) 0.60652(15) 0.7830(3)
H6_2 H 0.5976 0.5976 0.7531
C16_2 C 0.65105(15) 0.60031(15) 0.85017(17)
H7_2 H 0.6724 0.5878 0.8656
C17_2 C 0.63167(15) 0.63167(15) 0.8721(2)
C18_2 C 0.65912(16) 0.55380(16) 0.7800(2)
C19_2 C 0.62878(15) 0.62878(15) 0.9571(2)
C20_2 C 0.59952(14) 0.59952(14) 0.9559(3)
H8_2 H 0.5897 0.5897 0.9269
C21_3 C 0.58528(18) 0.58528(18) 1.0000
C22_3 C 0.5538(2) 0.5538(2) 1.0000
C23_3 C 0.6444(2) 0.6444(2) 1.0000
H9_3 H 0.6641 0.6641 1.0000
C44_2 C 0.58749(15) 0.63898(15) 0.80556(17)
C45_2 C 0.60031(15) 0.65105(15) 0.85017(17)
H18_2 H 0.5878 0.6724 0.8656
C46_2 C 0.55380(16) 0.65912(16) 0.7800(2)
O33_4 O 0.35410(10) 0.64590(10) 0.91601(16)
O34_2 O 0.45887(9) 0.54113(9) 0.95965(16)
O37_7 O 0.37679(18) 0.62321(18) 0.5000
O38_7 O 0.2297(2) 0.7703(2) 0.5000
C47_4 C 0.41251(15) 0.63898(15) 0.80556(17)
C48_4 C 0.39348(15) 0.60652(15) 0.7830(3)
H19_4 H 0.4024 0.5976 0.7531
C49_4 C 0.39969(15) 0.65105(15) 0.85017(17)
H20_4 H 0.4122 0.6724 0.8656
C50_4 C 0.36833(15) 0.63167(15) 0.8721(2)
C51_4 C 0.44620(16) 0.65912(16) 0.7800(2)
C52_4 C 0.37122(15) 0.62878(15) 0.9571(2)
C53_4 C 0.40048(14) 0.59952(14) 0.9559(3)
H21_4 H 0.4103 0.5897 0.9269
C54_5 C 0.41472(18) 0.58528(18) 1.0000
C55_5 C 0.4462(2) 0.5538(2) 1.0000
C56_5 C 0.3556(2) 0.6444(2) 1.0000
H22_5 H 0.3359 0.6641 1.0000
C67_4 C 0.36102(15) 0.58749(15) 0.80556(17)
C68_4 C 0.34895(15) 0.60031(15) 0.85017(17)
H27_4 H 0.3276 0.5878 0.8656
C69_4 C 0.34088(16) 0.55380(16) 0.7800(2)
O116_2 O 0.45887(9) 0.45887(9) 0.95965(16)
O117_2 O 0.54113(9) 0.45887(9) 0.95965(16)
C54_6 C 0.41472(18) 0.41472(18) 0.0000
C55_6 C 0.4462(2) 0.4462(2) 0.0000
C56_6 C 0.3556(2) 0.3556(2) 0.0000
H22_6 H 0.3359 0.3359 0.0000
O41_5 O 0.35410(10) 0.35410(10) 0.08399(16)
O42_5 O 0.45887(9) 0.45887(9) 0.04035(16)
C57_5 C 0.41251(15) 0.36102(15) 0.19444(17)
C58_5 C 0.39348(15) 0.39348(15) 0.2170(3)
H23_5 H 0.4024 0.4024 0.2469
C59_5 C 0.39969(15) 0.34895(15) 0.14983(17)
H24_5 H 0.4122 0.3276 0.1344
C60_5 C 0.36833(15) 0.36833(15) 0.1279(2)
C61_5 C 0.44620(16) 0.34088(16) 0.2200(2)
C62_5 C 0.37122(15) 0.37122(15) 0.0429(2)
C63_5 C 0.40048(14) 0.40048(14) 0.0441(3)
H25_5 H 0.4103 0.4103 0.0731
C64_5 C 0.36102(15) 0.41251(15) 0.19444(17)
C65_5 C 0.34895(15) 0.39969(15) 0.14983(17)
H26_5 H 0.3276 0.4122 0.1344
C66_5 C 0.34088(16) 0.44620(16) 0.2200(2)
O33_5 O 0.35410(10) 0.35410(10) 0.91601(16)
O37_8 O 0.37679(18) 0.37679(18) 0.5000
O38_8 O 0.2297(2) 0.2297(2) 0.5000
C47_5 C 0.36102(15) 0.41251(15) 0.80556(17)
C48_5 C 0.39348(15) 0.39348(15) 0.7830(3)
H19_5 H 0.4024 0.4024 0.7531
C49_5 C 0.34895(15) 0.39969(15) 0.85017(17)
H20_5 H 0.3276 0.4122 0.8656
C50_5 C 0.36833(15) 0.36833(15) 0.8721(2)
C51_5 C 0.34088(16) 0.44620(16) 0.7800(2)
C52_5 C 0.37122(15) 0.37122(15) 0.9571(2)
C53_5 C 0.40048(14) 0.40048(14) 0.9559(3)
H21_5 H 0.4103 0.4103 0.9269
C54_7 C 0.41472(18) 0.41472(18) 1.0000
C55_7 C 0.4462(2) 0.4462(2) 1.0000
C56_7 C 0.3556(2) 0.3556(2) 1.0000
H22_7 H 0.3359 0.3359 1.0000
C67_5 C 0.41251(15) 0.36102(15) 0.80556(17)
C68_5 C 0.39969(15) 0.34895(15) 0.85017(17)
H27_5 H 0.4122 0.3276 0.8656
C69_5 C 0.44620(16) 0.34088(16) 0.7800(2)
C54_8 C 0.58528(18) 0.41472(18) 0.0000
C55_8 C 0.5538(2) 0.4462(2) 0.0000
C56_8 C 0.6444(2) 0.3556(2) 0.0000
H22_8 H 0.6641 0.3359 0.0000
O41_6 O 0.64590(10) 0.35410(10) 0.08399(16)
O42_6 O 0.54113(9) 0.45887(9) 0.04035(16)
C57_6 C 0.63898(15) 0.41251(15) 0.19444(17)
C58_6 C 0.60652(15) 0.39348(15) 0.2170(3)
H23_6 H 0.5976 0.4024 0.2469
C59_6 C 0.65105(15) 0.39969(15) 0.14983(17)
H24_6 H 0.6724 0.4122 0.1344
C60_6 C 0.63167(15) 0.36833(15) 0.1279(2)
C61_6 C 0.65912(16) 0.44620(16) 0.2200(2)
C62_6 C 0.62878(15) 0.37122(15) 0.0429(2)
C63_6 C 0.59952(14) 0.40048(14) 0.0441(3)
H25_6 H 0.5897 0.4103 0.0731
C64_6 C 0.58749(15) 0.36102(15) 0.19444(17)
C65_6 C 0.60031(15) 0.34895(15) 0.14983(17)
H26_6 H 0.5878 0.3276 0.1344
C66_6 C 0.55380(16) 0.34088(16) 0.2200(2)
O33_6 O 0.64590(10) 0.35410(10) 0.91601(16)
O37_9 O 0.62321(18) 0.37679(18) 0.5000
O38_9 O 0.7703(2) 0.2297(2) 0.5000
C47_6 C 0.58749(15) 0.36102(15) 0.80556(17)
C48_6 C 0.60652(15) 0.39348(15) 0.7830(3)
H19_6 H 0.5976 0.4024 0.7531
C49_6 C 0.60031(15) 0.34895(15) 0.85017(17)
H20_6 H 0.5878 0.3276 0.8656
C50_6 C 0.63167(15) 0.36833(15) 0.8721(2)
C51_6 C 0.55380(16) 0.34088(16) 0.7800(2)
C52_6 C 0.62878(15) 0.37122(15) 0.9571(2)
C53_6 C 0.59952(14) 0.40048(14) 0.9559(3)
H21_6 H 0.5897 0.4103 0.9269
C54_9 C 0.58528(18) 0.41472(18) 1.0000
C55_9 C 0.5538(2) 0.4462(2) 1.0000
C56_9 C 0.6444(2) 0.3556(2) 1.0000
H22_9 H 0.6641 0.3359 1.0000
C67_6 C 0.63898(15) 0.41251(15) 0.80556(17)
C68_6 C 0.65105(15) 0.39969(15) 0.85017(17)
H27_6 H 0.6724 0.4122 0.8656
C69_6 C 0.65912(16) 0.44620(16) 0.7800(2)
O16_10 O 0.5000 0.5000 0.1274(6)
loop_
_geom_bond_atom_site_label_1
_geom_bond_atom_site_label_2
_geom_bond_site_symmetry_1
_geom_bond_site_symmetry_2
Cu1 O1 1_555 1_555
Cu2 O2 1_555 1_555
Cu3 O3 1_555 1_555
Cu4 O4 1_555 1_555
Cu5 O6 1_555 1_555
Cu6 O10 1_555 1_555
O1 C7 1_555 1_555
O2 C7 1_555 1_555
O3 C8 1_555 1_555
O4 C8 1_555 1_555
O5 C5 1_555 1_555
O6 C13 1_555 1_555
O7 Cu1 1_555 1_555
O8 Cu2 1_555 1_555
O9 C17 1_555 1_555
O10 C22 1_555 1_555
O11 Cu1 1_555 1_555
O12 Cu2 1_555 1_555
O13 Cu3 1_555 1_555
O14 Cu4 1_555 1_555
O15 Cu5 1_555 1_555
O16 Cu6 1_555 1_555
C1 C2 1_555 1_555
C2 H1 1_555 1_555
C3 C2 1_555 1_555
C4 C3 1_555 1_555
H2 C4 1_555 1_555
C5 C4 1_555 1_555
C6 C1 1_555 1_555
H3 C6 1_555 1_555
C7 C1 1_555 1_555
C8 C3 1_555 1_555
C9 O5 1_555 1_555
C10 C9 1_555 1_555
H4 C10 1_555 1_555
C11 C9 1_555 1_555
H5 C11 1_555 1_555
C12 C11 1_555 1_555
C13 C12 1_555 1_555
C14 C15 1_555 1_555
C15 H6 1_555 1_555
C16 C14 1_555 1_555
H7 C16 1_555 1_555
C17 C16 1_555 1_555
C18 O7 1_555 1_555
C19 O9 1_555 1_555
C20 C19 1_555 1_555
H8 C20 1_555 1_555
C21 C20 1_555 1_555
C22 C21 1_555 1_555
C23 C19 1_555 1_555
H9 C23 1_555 1_555
O17 C30 1_555 1_555
O18 C30 1_555 1_555
O19 C31 1_555 1_555
O20 C31 1_555 1_555
O21 C28 1_555 1_555
O22 C13 1_555 1_555
C24 C25 1_555 1_555
C25 H10 1_555 1_555
C26 C25 1_555 1_555
C27 C26 1_555 1_555
H11 C27 1_555 1_555
C28 C27 1_555 1_555
C29 C24 1_555 1_555
H12 C29 1_555 1_555
C30 C24 1_555 1_555
C31 C26 1_555 1_555
C32 C10 1_555 1_555
C33 C12 1_555 1_555
H13 C33 1_555 1_555
O23 C38 1_555 1_555
O24 C38 1_555 1_555
O25 C37 1_555 1_555
O26 C22 1_555 1_555
C34 C35 1_555 1_555
C35 H14 1_555 1_555
C36 C34 1_555 1_555
H15 C36 1_555 1_555
C37 C36 1_555 1_555
C38 C34 1_555 1_555
C39 C23 1_555 1_555
C40 C21 1_555 1_555
H16 C40 1_555 1_555
O27 C43 1_555 1_555
O28 C43 1_555 1_555
C41 C35 1_555 1_555
C42 C37 1_555 1_555
H17 C42 1_555 1_555
C43 C41 1_555 1_555
O29 C46 1_555 1_555
O30 C46 1_555 1_555
C44 C15 1_555 1_555
C45 C17 1_555 1_555
H18 C45 1_555 1_555
C46 C44 1_555 1_555
Cu7 O29 1_555 1_555
Cu8 O30 1_555 1_555
O35 Cu7 1_555 1_555
O36 Cu8 1_555 1_555
O73 Cu7 1_555 1_555
O74 Cu8 1_555 1_555
O75 Cu3 1_555 1_555
O76 Cu4 1_555 1_555
O77 C120 1_555 1_555
O78 C128 1_555 1_555
C116 C117 1_555 1_555
C117 H46 1_555 1_555
C118 C117 1_555 1_555
C119 C118 1_555 1_555
H47 C119 1_555 1_555
C120 C119 1_555 1_555
C121 C116 1_555 1_555
H48 C121 1_555 1_555
C122 O73 1_555 1_555
C123 O75 1_555 1_555
C124 O77 1_555 1_555
C125 C124 1_555 1_555
H49 C125 1_555 1_555
C126 C124 1_555 1_555
H50 C126 1_555 1_555
C127 C126 1_555 1_555
C128 C127 1_555 1_555
O79 C135 1_555 1_555
O80 C135 1_555 1_555
O81 C136 1_555 1_555
O82 C136 1_555 1_555
O83 C133 1_555 1_555
O84 C128 1_555 1_555
C129 C130 1_555 1_555
C130 H51 1_555 1_555
C131 C130 1_555 1_555
C132 C131 1_555 1_555
H52 C132 1_555 1_555
C133 C132 1_555 1_555
C134 C129 1_555 1_555
H53 C134 1_555 1_555
C135 C129 1_555 1_555
C136 C131 1_555 1_555
C137 C125 1_555 1_555
C138 C127 1_555 1_555
H54 C138 1_555 1_555
Cu13 O17 1_555 1_555
O85 Cu13 1_555 1_555
Cu14 O18 1_555 1_555
O86 Cu14 1_555 1_555
Cu15 O22 1_555 1_555
O87 Cu15 1_555 1_555
Cu16 O27 1_555 1_555
Cu17 O23 1_555 1_555
Cu20 O79 1_555 1_555
Cu22 O28 1_555 1_555
Cu23 O24 1_555 1_555
Cu26 O80 1_555 1_555
Cu30 O19 1_555 1_555
Cu34 O20 1_555 1_555
Cu37 O78 1_555 1_555
Cu38 O84 1_555 1_555
Cu40 O26 1_555 1_555
O90 Cu13 1_555 1_555
O93 Cu14 1_555 1_555
O106 Cu5 1_555 1_555
O107 Cu15 1_555 1_555
O109 Cu13 1_555 1_555
O111 Cu13 1_555 1_555
O113 Cu14 1_555 1_555
O115 Cu14 1_555 1_555
O8 C18 1_555 1_555
C5 C6 1_555 1_555
C14 C18 1_555 1_555
O21 C32 1_555 1_555
C28 C29 1_555 1_555
C32 C33 1_555 1_555
O25 C39 1_555 1_555
C39 C40 1_555 1_555
C41 C42 1_555 1_555
C44 C45 1_555 1_555
O74 C122 1_555 1_555
O76 C123 1_555 1_555
C116 C122 1_555 1_555
C118 C123 1_555 1_555
C120 C121 1_555 1_555
O81 Cu30 1_555 1_555
O82 Cu34 1_555 1_555
O83 C137 1_555 1_555
C133 C134 1_555 1_555
C137 C138 1_555 1_555
O13_2 Cu3_2 1_555 1_555
O14_2 Cu4_2 1_555 1_555
O95 Cu3_2 1_555 1_555
O97 Cu3_2 1_555 1_555
O100 Cu4_2 1_555 1_555
O102 Cu4_2 1_555 1_555
O11_2 Cu1_2 1_555 1_555
O12_2 Cu2_2 1_555 1_555
O15_2 Cu5_2 1_555 1_555
O16_2 Cu6_2 1_555 1_555
O61 Cu1_2 1_555 1_555
O62 Cu2_2 1_555 1_555
O63 C100 1_555 1_555
O64 C100 1_555 1_555
O65 C97 1_555 1_555
O66 Cu5_2 1_555 1_555
C93 C94 1_555 1_555
C94 H37 1_555 1_555
C95 C94 1_555 1_555
C96 C95 1_555 1_555
H38 C96 1_555 1_555
C97 C96 1_555 1_555
C98 C93 1_555 1_555
H39 C98 1_555 1_555
C99 O61 1_555 1_555
C100 C95 1_555 1_555
C101 O65 1_555 1_555
C102 C101 1_555 1_555
H40 C102 1_555 1_555
C103 C101 1_555 1_555
H41 C103 1_555 1_555
C104 C103 1_555 1_555
C105 O66 1_555 1_555
O67 C112 1_555 1_555
O68 C112 1_555 1_555
O69 C113 1_555 1_555
O70 C113 1_555 1_555
O71 C110 1_555 1_555
O72 C105 1_555 1_555
C106 C107 1_555 1_555
C107 H42 1_555 1_555
C108 C107 1_555 1_555
C109 C108 1_555 1_555
H43 C109 1_555 1_555
C110 C109 1_555 1_555
C111 C106 1_555 1_555
H44 C111 1_555 1_555
C112 C106 1_555 1_555
C113 C108 1_555 1_555
C114 C102 1_555 1_555
C115 C104 1_555 1_555
H45 C115 1_555 1_555
O87_2 Cu15_2 1_555 1_555
Cu19 O67 1_555 1_555
Cu25 O68 1_555 1_555
Cu28 O63 1_555 1_555
Cu29 O69 1_555 1_555
Cu32 O64 1_555 1_555
Cu33 O70 1_555 1_555
O104 Cu5_2 1_555 1_555
O105 Cu15_2 1_555 1_555
O110 Cu1_2 1_555 1_555
O114 Cu2_2 1_555 1_555
O117 Cu6_2 1_555 1_555
O62 C99 1_555 1_555
C93 C99 1_555 1_555
C97 C98 1_555 1_555
C104 C105 1_555 1_555
O71 C114 1_555 1_555
O72 Cu15_2 1_555 1_555
C110 C111 1_555 1_555
C114 C115 1_555 1_555
O16_3 Cu6_3 1_555 1_555
Cu9 O37 1_555 1_555
Cu10 O38 1_555 1_555
O31 Cu7_2 1_555 1_555
O32 Cu8_2 1_555 1_555
O33 C50 1_555 1_555
O34 Cu6_3 1_555 1_555
O35_2 Cu7_2 1_555 1_555
O36_2 Cu8_2 1_555 1_555
C47 C48 1_555 1_555
C48 H19 1_555 1_555
C49 C47 1_555 1_555
H20 C49 1_555 1_555
C50 C49 1_555 1_555
C51 O31 1_555 1_555
C52 O33 1_555 1_555
C53 C52 1_555 1_555
H21 C53 1_555 1_555
C54 C53 1_555 1_555
C55 O34 1_555 1_555
C56 C52 1_555 1_555
H22 C56 1_555 1_555
O39 C61 1_555 1_555
O40 C61 1_555 1_555
O41 C60 1_555 1_555
O42 C55 1_555 1_555
C57 C58 1_555 1_555
C58 H23 1_555 1_555
C59 C57 1_555 1_555
H24 C59 1_555 1_555
C60 C59 1_555 1_555
C61 C57 1_555 1_555
C62 C56 1_555 1_555
C63 C54 1_555 1_555
H25 C63 1_555 1_555
O43 C66 1_555 1_555
O44 C66 1_555 1_555
C64 C58 1_555 1_555
C65 C60 1_555 1_555
H26 C65 1_555 1_555
C66 C64 1_555 1_555
O45 C69 1_555 1_555
O46 C69 1_555 1_555
C67 C48 1_555 1_555
C68 C50 1_555 1_555
H27 C68 1_555 1_555
C69 C67 1_555 1_555
Cu11 O45 1_555 1_555
Cu12 O46 1_555 1_555
O47 Cu11 1_555 1_555
O48 Cu12 1_555 1_555
O49 Cu11 1_555 1_555
O50 Cu12 1_555 1_555
O51 Cu9 1_555 1_555
O52 Cu10 1_555 1_555
O53 C74 1_555 1_555
O106 C82 1_555 1_555
C70 C71 1_555 1_555
C71 H28 1_555 1_555
C72 C71 1_555 1_555
C73 C72 1_555 1_555
H29 C73 1_555 1_555
C74 C73 1_555 1_555
C75 C70 1_555 1_555
H30 C75 1_555 1_555
C76 O49 1_555 1_555
C77 O51 1_555 1_555
C78 O53 1_555 1_555
C79 C78 1_555 1_555
H31 C79 1_555 1_555
C80 C78 1_555 1_555
H32 C80 1_555 1_555
C81 C80 1_555 1_555
C82 C81 1_555 1_555
O90 C89 1_555 1_555
O93 C89 1_555 1_555
O57 C90 1_555 1_555
O58 C90 1_555 1_555
O59 C87 1_555 1_555
O107 C82 1_555 1_555
C83 C84 1_555 1_555
C84 H33 1_555 1_555
C85 C84 1_555 1_555
C86 C85 1_555 1_555
H34 C86 1_555 1_555
C87 C86 1_555 1_555
C88 C83 1_555 1_555
H35 C88 1_555 1_555
C89 C83 1_555 1_555
C90 C85 1_555 1_555
C91 C79 1_555 1_555
C92 C81 1_555 1_555
H36 C92 1_555 1_555
Cu18 O39 1_555 1_555
Cu24 O40 1_555 1_555
Cu31 O57 1_555 1_555
Cu35 O58 1_555 1_555
O88 Cu7_2 1_555 1_555
O91 Cu8_2 1_555 1_555
O94 Cu9 1_555 1_555
O99 Cu10 1_555 1_555
O32 C51 1_555 1_555
C47 C51 1_555 1_555
C54 C55 1_555 1_555
O41 C62 1_555 1_555
O42 Cu40_3 1_555 1_555
C62 C63 1_555 1_555
O43 Cu17_2 1_555 1_555
O44 Cu23_2 1_555 1_555
C64 C65 1_555 1_555
C67 C68 1_555 1_555
O50 C76 1_555 1_555
O52 C77 1_555 1_555
C70 C76 1_555 1_555
C72 C77 1_555 1_555
C74 C75 1_555 1_555
O59 C91 1_555 1_555
C87 C88 1_555 1_555
C91 C92 1_555 1_555
Cu9_2 O37_2 1_555 1_555
Cu10_2 O38_2 1_555 1_555
O96 Cu9_2 1_555 1_555
O98 Cu9_2 1_555 1_555
O101 Cu10_2 1_555 1_555
O103 Cu10_2 1_555 1_555
O16_4 Cu6_4 1_555 1_555
O47_2 Cu11_2 1_555 1_555
O48_2 Cu12_2 1_555 1_555
O89 Cu11_2 1_555 1_555
O92 Cu12_2 1_555 1_555
O108 Cu11_2 1_555 1_555
O112 Cu12_2 1_555 1_555
O116 Cu6_4 1_555 1_555
O15_3 Cu37 1_555 1_555
O87_3 Cu38 1_555 1_555
O104_2 Cu37 1_555 1_555
O105_2 Cu38 1_555 1_555
O47_3 Cu11_3 1_555 1_555
O48_3 Cu12_3 1_555 1_555
O89_2 Cu11_3 1_555 1_555
O92_2 Cu12_3 1_555 1_555
O108_2 Cu11_3 1_555 1_555
O112_2 Cu12_3 1_555 1_555
Cu37_2 O6_2 1_555 1_555
O88 C7_2 1_555 1_555
O91 C7_2 1_555 1_555
O94 C8_2 1_555 1_555
O99 C8_2 1_555 1_555
O5_2 C5_2 1_555 1_555
O6_2 C13_2 1_555 1_555
O15_4 Cu37_2 1_555 1_555
C1_2 C2_2 1_555 1_555
C2_2 H1_2 1_555 1_555
C3_2 C2_2 1_555 1_555
C4_2 C3_2 1_555 1_555
H2_2 C4_2 1_555 1_555
C5_2 C4_2 1_555 1_555
C6_2 C1_2 1_555 1_555
H3_2 C6_2 1_555 1_555
C7_2 C1_2 1_555 1_555
C8_2 C3_2 1_555 1_555
C9_2 O5_2 1_555 1_555
C10_2 C9_2 1_555 1_555
H4_2 C10_2 1_555 1_555
C11_2 C9_2 1_555 1_555
H5_2 C11_2 1_555 1_555
C12_2 C11_2 1_555 1_555
C13_2 C12_2 1_555 1_555
O17_2 C30_2 1_555 1_555
O18_2 C30_2 1_555 1_555
O19_2 C31_2 1_555 1_555
O20_2 C31_2 1_555 1_555
O21_2 C28_2 1_555 1_555
O22_2 C13_2 1_555 1_555
C24_2 C25_2 1_555 1_555
C25_2 H10_2 1_555 1_555
C26_2 C25_2 1_555 1_555
C27_2 C26_2 1_555 1_555
H11_2 C27_2 1_555 1_555
C28_2 C27_2 1_555 1_555
C29_2 C24_2 1_555 1_555
H12_2 C29_2 1_555 1_555
C30_2 C24_2 1_555 1_555
C31_2 C26_2 1_555 1_555
C32_2 C10_2 1_555 1_555
C33_2 C12_2 1_555 1_555
H13_2 C33_2 1_555 1_555
Cu13_2 O17_2 1_555 1_555
O85_2 Cu13_2 1_555 1_555
Cu14_2 O18_2 1_555 1_555
O86_2 Cu14_2 1_555 1_555
Cu38_2 O22_2 1_555 1_555
O87_4 Cu38_2 1_555 1_555
Cu31 O19_2 1_555 1_555
Cu35 O20_2 1_555 1_555
O90_2 Cu13_2 1_555 1_555
O93_2 Cu14_2 1_555 1_555
O106_2 Cu37_2 1_555 1_555
O107_2 Cu38_2 1_555 1_555
O109_2 Cu13_2 1_555 1_555
O111_2 Cu13_2 1_555 1_555
O113_2 Cu14_2 1_555 1_555
O115_2 Cu14_2 1_555 1_555
C5_2 C6_2 1_555 1_555
O21_2 C32_2 1_555 1_555
C28_2 C29_2 1_555 1_555
C32_2 C33_2 1_555 1_555
Cu9_3 O37_3 1_555 1_555
Cu10_3 O38_3 1_555 1_555
O33_2 C50_2 1_555 1_555
C47_2 C48_2 1_555 1_555
C48_2 H19_2 1_555 1_555
C49_2 C47_2 1_555 1_555
H20_2 C49_2 1_555 1_555
C50_2 C49_2 1_555 1_555
C51_2 O108 1_555 1_555
C52_2 O33_2 1_555 1_555
C53_2 C52_2 1_555 1_555
H21_2 C53_2 1_555 1_555
C54_2 C53_2 1_555 1_555
C55_2 O116 1_555 1_555
C56_2 C52_2 1_555 1_555
H22_2 C56_2 1_555 1_555
O39_2 C61_2 1_555 1_555
O40_2 C61_2 1_555 1_555
O41_2 C60_2 1_555 1_555
O42_2 C55_2 1_555 1_555
C57_2 C58_2 1_555 1_555
C58_2 H23_2 1_555 1_555
C59_2 C57_2 1_555 1_555
H24_2 C59_2 1_555 1_555
C60_2 C59_2 1_555 1_555
C61_2 C57_2 1_555 1_555
C62_2 C56_2 1_555 1_555
C63_2 C54_2 1_555 1_555
H25_2 C63_2 1_555 1_555
O43_2 C66_2 1_555 1_555
O44_2 C66_2 1_555 1_555
C64_2 C58_2 1_555 1_555
C65_2 C60_2 1_555 1_555
H26_2 C65_2 1_555 1_555
C66_2 C64_2 1_555 1_555
O45_2 C69_2 1_555 1_555
O46_2 C69_2 1_555 1_555
C67_2 C48_2 1_555 1_555
C68_2 C50_2 1_555 1_555
H27_2 C68_2 1_555 1_555
C69_2 C67_2 1_555 1_555
Cu11_4 O45_2 1_555 1_555
Cu12_4 O46_2 1_555 1_555
O47_4 Cu11_4 1_555 1_555
O48_4 Cu12_4 1_555 1_555
O49_2 Cu11_4 1_555 1_555
O50_2 Cu12_4 1_555 1_555
O51_2 Cu9_3 1_555 1_555
O52_2 Cu10_3 1_555 1_555
O53_2 C74_2 1_555 1_555
O106_2 C82_2 1_555 1_555
C70_2 C71_2 1_555 1_555
C71_2 H28_2 1_555 1_555
C72_2 C71_2 1_555 1_555
C73_2 C72_2 1_555 1_555
H29_2 C73_2 1_555 1_555
C74_2 C73_2 1_555 1_555
C75_2 C70_2 1_555 1_555
H30_2 C75_2 1_555 1_555
C76_2 O49_2 1_555 1_555
C77_2 O51_2 1_555 1_555
C78_2 O53_2 1_555 1_555
C79_2 C78_2 1_555 1_555
H31_2 C79_2 1_555 1_555
C80_2 C78_2 1_555 1_555
H32_2 C80_2 1_555 1_555
C81_2 C80_2 1_555 1_555
C82_2 C81_2 1_555 1_555
O90_2 C89_2 1_555 1_555
O93_2 C89_2 1_555 1_555
O57_2 C90_2 1_555 1_555
O58_2 C90_2 1_555 1_555
O59_2 C87_2 1_555 1_555
O107_2 C82_2 1_555 1_555
C83_2 C84_2 1_555 1_555
C84_2 H33_2 1_555 1_555
C85_2 C84_2 1_555 1_555
C86_2 C85_2 1_555 1_555
H34_2 C86_2 1_555 1_555
C87_2 C86_2 1_555 1_555
C88_2 C83_2 1_555 1_555
H35_2 C88_2 1_555 1_555
C89_2 C83_2 1_555 1_555
C90_2 C85_2 1_555 1_555
C91_2 C79_2 1_555 1_555
C92_2 C81_2 1_555 1_555
H36_2 C92_2 1_555 1_555
Cu18_4 O39_2 1_555 1_555
Cu24_4 O40_2 1_555 1_555
Cu31_2 O57_2 1_555 1_555
Cu35_2 O58_2 1_555 1_555
O94_2 Cu9_3 1_555 1_555
O99_2 Cu10_3 1_555 1_555
O112 C51_2 1_555 1_555
C47_2 C51_2 1_555 1_555
C54_2 C55_2 1_555 1_555
O41_2 C62_2 1_555 1_555
O42_2 Cu40_4 1_555 1_555
C62_2 C63_2 1_555 1_555
O43_2 Cu18_2 1_555 1_555
O44_2 Cu24_2 1_555 1_555
C64_2 C65_2 1_555 1_555
C67_2 C68_2 1_555 1_555
O50_2 C76_2 1_555 1_555
O52_2 C77_2 1_555 1_555
C70_2 C76_2 1_555 1_555
C72_2 C77_2 1_555 1_555
C74_2 C75_2 1_555 1_555
O59_2 C91_2 1_555 1_555
C87_2 C88_2 1_555 1_555
C91_2 C92_2 1_555 1_555
Cu9_4 O37_4 1_555 1_555
Cu10_4 O38_4 1_555 1_555
O96_2 Cu9_4 1_555 1_555
O98_2 Cu9_4 1_555 1_555
O101_2 Cu10_4 1_555 1_555
O103_2 Cu10_4 1_555 1_555
Cu28 O37_5 1_555 1_555
Cu32 O38_5 1_555 1_555
O33_3 C50_3 1_555 1_555
C47_3 C48_3 1_555 1_555
C48_3 H19_3 1_555 1_555
C49_3 C47_3 1_555 1_555
H20_3 C49_3 1_555 1_555
C50_3 C49_3 1_555 1_555
C51_3 O108_2 1_555 1_555
C52_3 O33_3 1_555 1_555
C53_3 C52_3 1_555 1_555
H21_3 C53_3 1_555 1_555
C54_3 C53_3 1_555 1_555
C55_3 O117 1_555 1_555
C56_3 C52_3 1_555 1_555
H22_3 C56_3 1_555 1_555
O39_3 C61_3 1_555 1_555
O40_3 C61_3 1_555 1_555
O41_3 C60_3 1_555 1_555
O42_3 C55_3 1_555 1_555
C57_3 C58_3 1_555 1_555
C58_3 H23_3 1_555 1_555
C59_3 C57_3 1_555 1_555
H24_3 C59_3 1_555 1_555
C60_3 C59_3 1_555 1_555
C61_3 C57_3 1_555 1_555
C62_3 C56_3 1_555 1_555
C63_3 C54_3 1_555 1_555
H25_3 C63_3 1_555 1_555
O43_3 C66_3 1_555 1_555
O44_3 C66_3 1_555 1_555
C64_3 C58_3 1_555 1_555
C65_3 C60_3 1_555 1_555
H26_3 C65_3 1_555 1_555
C66_3 C64_3 1_555 1_555
O110 C69_3 1_555 1_555
O114 C69_3 1_555 1_555
C67_3 C48_3 1_555 1_555
C68_3 C50_3 1_555 1_555
H27_3 C68_3 1_555 1_555
C69_3 C67_3 1_555 1_555
Cu16_2 O39_3 1_555 1_555
Cu22_2 O40_3 1_555 1_555
O94_3 Cu28 1_555 1_555
O99_3 Cu32 1_555 1_555
O112_2 C51_3 1_555 1_555
C47_3 C51_3 1_555 1_555
C54_3 C55_3 1_555 1_555
O41_3 C62_3 1_555 1_555
O42_3 Cu40_2 1_555 1_555
C62_3 C63_3 1_555 1_555
O43_3 Cu18_3 1_555 1_555
O44_3 Cu24_3 1_555 1_555
C64_3 C65_3 1_555 1_555
C67_3 C68_3 1_555 1_555
Cu28_2 O37_6 1_555 1_555
Cu32_2 O38_6 1_555 1_555
O96_3 Cu28_2 1_555 1_555
O98_3 Cu28_2 1_555 1_555
O101_3 Cu32_2 1_555 1_555
O103_3 Cu32_2 1_555 1_555
O89 C7_3 1_555 1_555
O92 C7_3 1_555 1_555
O94_2 C8_3 1_555 1_555
O99_2 C8_3 1_555 1_555
O5_3 C5_3 1_555 1_555
O104 C13_3 1_555 1_555
C1_3 C2_3 1_555 1_555
C2_3 H1_3 1_555 1_555
C3_3 C2_3 1_555 1_555
C4_3 C3_3 1_555 1_555
H2_3 C4_3 1_555 1_555
C5_3 C4_3 1_555 1_555
C6_3 C1_3 1_555 1_555
H3_3 C6_3 1_555 1_555
C7_3 C1_3 1_555 1_555
C8_3 C3_3 1_555 1_555
C9_3 O5_3 1_555 1_555
C10_3 C9_3 1_555 1_555
H4_3 C10_3 1_555 1_555
C11_3 C9_3 1_555 1_555
H5_3 C11_3 1_555 1_555
C12_3 C11_3 1_555 1_555
C13_3 C12_3 1_555 1_555
O17_3 C30_3 1_555 1_555
O18_3 C30_3 1_555 1_555
O19_3 C31_3 1_555 1_555
O20_3 C31_3 1_555 1_555
O21_3 C28_3 1_555 1_555
O105 C13_3 1_555 1_555
C24_3 C25_3 1_555 1_555
C25_3 H10_3 1_555 1_555
C26_3 C25_3 1_555 1_555
C27_3 C26_3 1_555 1_555
H11_3 C27_3 1_555 1_555
C28_3 C27_3 1_555 1_555
C29_3 C24_3 1_555 1_555
H12_3 C29_3 1_555 1_555
C30_3 C24_3 1_555 1_555
C31_3 C26_3 1_555 1_555
C32_3 C10_3 1_555 1_555
C33_3 C12_3 1_555 1_555
H13_3 C33_3 1_555 1_555
Cu19 O17_3 1_555 1_555
O85_3 Cu19 1_555 1_555
Cu25 O18_3 1_555 1_555
O86_3 Cu25 1_555 1_555
Cu31_2 O19_3 1_555 1_555
Cu35_2 O20_3 1_555 1_555
O109_3 Cu19 1_555 1_555
O111_3 Cu19 1_555 1_555
O113_3 Cu25 1_555 1_555
O115_3 Cu25 1_555 1_555
C5_3 C6_3 1_555 1_555
O21_3 C32_3 1_555 1_555
C28_3 C29_3 1_555 1_555
C32_3 C33_3 1_555 1_555
O89_2 C7_4 1_555 1_555
O92_2 C7_4 1_555 1_555
O94_3 C8_4 1_555 1_555
O99_3 C8_4 1_555 1_555
O5_4 C5_4 1_555 1_555
O104_2 C13_4 1_555 1_555
C1_4 C2_4 1_555 1_555
C2_4 H1_4 1_555 1_555
C3_4 C2_4 1_555 1_555
C4_4 C3_4 1_555 1_555
H2_4 C4_4 1_555 1_555
C5_4 C4_4 1_555 1_555
C6_4 C1_4 1_555 1_555
H3_4 C6_4 1_555 1_555
C7_4 C1_4 1_555 1_555
C8_4 C3_4 1_555 1_555
C9_4 O5_4 1_555 1_555
C10_4 C9_4 1_555 1_555
H4_4 C10_4 1_555 1_555
C11_4 C9_4 1_555 1_555
H5_4 C11_4 1_555 1_555
C12_4 C11_4 1_555 1_555
C13_4 C12_4 1_555 1_555
O17_4 C30_4 1_555 1_555
O18_4 C30_4 1_555 1_555
O19_4 C31_4 1_555 1_555
O20_4 C31_4 1_555 1_555
O21_4 C28_4 1_555 1_555
O105_2 C13_4 1_555 1_555
C24_4 C25_4 1_555 1_555
C25_4 H10_4 1_555 1_555
C26_4 C25_4 1_555 1_555
C27_4 C26_4 1_555 1_555
H11_4 C27_4 1_555 1_555
C28_4 C27_4 1_555 1_555
C29_4 C24_4 1_555 1_555
H12_4 C29_4 1_555 1_555
C30_4 C24_4 1_555 1_555
C31_4 C26_4 1_555 1_555
C32_4 C10_4 1_555 1_555
C33_4 C12_4 1_555 1_555
H13_4 C33_4 1_555 1_555
Cu20 O17_4 1_555 1_555
O85_4 Cu20 1_555 1_555
Cu26 O18_4 1_555 1_555
O86_4 Cu26 1_555 1_555
Cu29 O19_4 1_555 1_555
Cu33 O20_4 1_555 1_555
O109_4 Cu20 1_555 1_555
O111_4 Cu20 1_555 1_555
O113_4 Cu26 1_555 1_555
O115_4 Cu26 1_555 1_555
C5_4 C6_4 1_555 1_555
O21_4 C32_4 1_555 1_555
C28_4 C29_4 1_555 1_555
C32_4 C33_4 1_555 1_555
O11_3 Cu16 1_555 1_555
O12_3 Cu22 1_555 1_555
O15_5 Cu5_3 1_555 1_555
O16_5 Cu40 1_555 1_555
O61_2 Cu16 1_555 1_555
O62_2 Cu22 1_555 1_555
O97 C100_2 1_555 1_555
O102 C100_2 1_555 1_555
O65_2 C97_2 1_555 1_555
O66_2 Cu5_3 1_555 1_555
C93_2 C94_2 1_555 1_555
C94_2 H37_2 1_555 1_555
C95_2 C94_2 1_555 1_555
C96_2 C95_2 1_555 1_555
H38_2 C96_2 1_555 1_555
C97_2 C96_2 1_555 1_555
C98_2 C93_2 1_555 1_555
H39_2 C98_2 1_555 1_555
C99_2 O61_2 1_555 1_555
C100_2 C95_2 1_555 1_555
C101_2 O65_2 1_555 1_555
C102_2 C101_2 1_555 1_555
H40_2 C102_2 1_555 1_555
C103_2 C101_2 1_555 1_555
H41_2 C103_2 1_555 1_555
C104_2 C103_2 1_555 1_555
C105_2 O66_2 1_555 1_555
O67_2 C112_2 1_555 1_555
O68_2 C112_2 1_555 1_555
O69_2 C113_2 1_555 1_555
O70_2 C113_2 1_555 1_555
O71_2 C110_2 1_555 1_555
O72_2 C105_2 1_555 1_555
C106_2 C107_2 1_555 1_555
C107_2 H42_2 1_555 1_555
C108_2 C107_2 1_555 1_555
C109_2 C108_2 1_555 1_555
H43_2 C109_2 1_555 1_555
C110_2 C109_2 1_555 1_555
C111_2 C106_2 1_555 1_555
H44_2 C111_2 1_555 1_555
C112_2 C106_2 1_555 1_555
C113_2 C108_2 1_555 1_555
C114_2 C102_2 1_555 1_555
C115_2 C104_2 1_555 1_555
H45_2 C115_2 1_555 1_555
O87_5 Cu15_3 1_555 1_555
Cu19_2 O67_2 1_555 1_555
Cu25_2 O68_2 1_555 1_555
Cu30 O69_2 1_555 1_555
Cu34 O70_2 1_555 1_555
O104_3 Cu5_3 1_555 1_555
O105_3 Cu15_3 1_555 1_555
O62_2 C99_2 1_555 1_555
C93_2 C99_2 1_555 1_555
C97_2 C98_2 1_555 1_555
C104_2 C105_2 1_555 1_555
O71_2 C114_2 1_555 1_555
O72_2 Cu15_3 1_555 1_555
C110_2 C111_2 1_555 1_555
C114_2 C115_2 1_555 1_555
Cu16_2 O1_2 1_555 1_555
Cu22_2 O2_2 1_555 1_555
Cu5_4 O6_3 1_555 1_555
O1_2 C7_5 1_555 1_555
O2_2 C7_5 1_555 1_555
O96_3 C8_5 1_555 1_555
O101_3 C8_5 1_555 1_555
O5_5 C5_5 1_555 1_555
O6_3 C13_5 1_555 1_555
O11_4 Cu16_2 1_555 1_555
O12_4 Cu22_2 1_555 1_555
O15_6 Cu5_4 1_555 1_555
O16_6 Cu40_2 1_555 1_555
C1_5 C2_5 1_555 1_555
C2_5 H1_5 1_555 1_555
C3_5 C2_5 1_555 1_555
C4_5 C3_5 1_555 1_555
H2_5 C4_5 1_555 1_555
C5_5 C4_5 1_555 1_555
C6_5 C1_5 1_555 1_555
H3_5 C6_5 1_555 1_555
C7_5 C1_5 1_555 1_555
C8_5 C3_5 1_555 1_555
C9_5 O5_5 1_555 1_555
C10_5 C9_5 1_555 1_555
H4_5 C10_5 1_555 1_555
C11_5 C9_5 1_555 1_555
H5_5 C11_5 1_555 1_555
C12_5 C11_5 1_555 1_555
C13_5 C12_5 1_555 1_555
O17_5 C30_5 1_555 1_555
O18_5 C30_5 1_555 1_555
O19_5 C31_5 1_555 1_555
O20_5 C31_5 1_555 1_555
O21_5 C28_5 1_555 1_555
O22_3 C13_5 1_555 1_555
C24_5 C25_5 1_555 1_555
C25_5 H10_5 1_555 1_555
C26_5 C25_5 1_555 1_555
C27_5 C26_5 1_555 1_555
H11_5 C27_5 1_555 1_555
C28_5 C27_5 1_555 1_555
C29_5 C24_5 1_555 1_555
H12_5 C29_5 1_555 1_555
C30_5 C24_5 1_555 1_555
C31_5 C26_5 1_555 1_555
C32_5 C10_5 1_555 1_555
C33_5 C12_5 1_555 1_555
H13_5 C33_5 1_555 1_555
O35_3 Cu18_3 1_555 1_555
O36_3 Cu24_3 1_555 1_555
O73_2 Cu18_3 1_555 1_555
O74_2 Cu24_3 1_555 1_555
O77_2 C120_2 1_555 1_555
O78_2 C128_2 1_555 1_555
C116_2 C117_2 1_555 1_555
C117_2 H46_2 1_555 1_555
C118_2 C117_2 1_555 1_555
C119_2 C118_2 1_555 1_555
H47_2 C119_2 1_555 1_555
C120_2 C119_2 1_555 1_555
C121_2 C116_2 1_555 1_555
H48_2 C121_2 1_555 1_555
C122_2 O73_2 1_555 1_555
C123_2 O98_3 1_555 1_555
C124_2 O77_2 1_555 1_555
C125_2 C124_2 1_555 1_555
H49_2 C125_2 1_555 1_555
C126_2 C124_2 1_555 1_555
H50_2 C126_2 1_555 1_555
C127_2 C126_2 1_555 1_555
C128_2 C127_2 1_555 1_555
O79_2 C135_2 1_555 1_555
O80_2 C135_2 1_555 1_555
O81_2 C136_2 1_555 1_555
O82_2 C136_2 1_555 1_555
O83_2 C133_2 1_555 1_555
O84_2 C128_2 1_555 1_555
C129_2 C130_2 1_555 1_555
C130_2 H51_2 1_555 1_555
C131_2 C130_2 1_555 1_555
C132_2 C131_2 1_555 1_555
H52_2 C132_2 1_555 1_555
C133_2 C132_2 1_555 1_555
C134_2 C129_2 1_555 1_555
H53_2 C134_2 1_555 1_555
C135_2 C129_2 1_555 1_555
C136_2 C131_2 1_555 1_555
C137_2 C125_2 1_555 1_555
C138_2 C127_2 1_555 1_555
H54_2 C138_2 1_555 1_555
Cu13_3 O17_5 1_555 1_555
O85_5 Cu13_3 1_555 1_555
Cu14_3 O18_5 1_555 1_555
O86_5 Cu14_3 1_555 1_555
Cu15_4 O22_3 1_555 1_555
O87_6 Cu15_4 1_555 1_555
Cu20_2 O79_2 1_555 1_555
Cu26_2 O80_2 1_555 1_555
Cu29 O19_5 1_555 1_555
Cu33 O20_5 1_555 1_555
Cu37_3 O78_2 1_555 1_555
Cu38_3 O84_2 1_555 1_555
O90_3 Cu13_3 1_555 1_555
O93_3 Cu14_3 1_555 1_555
O106_3 Cu5_4 1_555 1_555
O107_3 Cu15_4 1_555 1_555
O109_5 Cu13_3 1_555 1_555
O111_5 Cu13_3 1_555 1_555
O113_5 Cu14_3 1_555 1_555
O115_5 Cu14_3 1_555 1_555
C5_5 C6_5 1_555 1_555
O21_5 C32_5 1_555 1_555
C28_5 C29_5 1_555 1_555
C32_5 C33_5 1_555 1_555
O74_2 C122_2 1_555 1_555
O103_3 C123_2 1_555 1_555
C116_2 C122_2 1_555 1_555
C118_2 C123_2 1_555 1_555
C120_2 C121_2 1_555 1_555
O81_2 Cu29 1_555 1_555
O82_2 Cu33 1_555 1_555
O83_2 C137_2 1_555 1_555
C133_2 C134_2 1_555 1_555
C137_2 C138_2 1_555 1_555
O16_7 Cu40_3 1_555 1_555
O47_5 Cu18 1_555 1_555
O48_5 Cu24 1_555 1_555
O89_3 Cu18 1_555 1_555
O92_3 Cu24 1_555 1_555
O16_8 Cu40_4 1_555 1_555
O35_4 Cu18_4 1_555 1_555
O36_4 Cu24_4 1_555 1_555
O47_6 Cu18_2 1_555 1_555
O48_6 Cu24_2 1_555 1_555
O49_3 Cu18_2 1_555 1_555
O50_3 Cu24_2 1_555 1_555
O53_3 C74_3 1_555 1_555
O106_3 C82_3 1_555 1_555
C70_3 C71_3 1_555 1_555
C71_3 H28_3 1_555 1_555
C72_3 C71_3 1_555 1_555
C73_3 C72_3 1_555 1_555
H29_3 C73_3 1_555 1_555
C74_3 C73_3 1_555 1_555
C75_3 C70_3 1_555 1_555
H30_3 C75_3 1_555 1_555
C76_3 O49_3 1_555 1_555
C77_3 O98_2 1_555 1_555
C78_3 O53_3 1_555 1_555
C79_3 C78_3 1_555 1_555
H31_3 C79_3 1_555 1_555
C80_3 C78_3 1_555 1_555
H32_3 C80_3 1_555 1_555
C81_3 C80_3 1_555 1_555
C82_3 C81_3 1_555 1_555
O90_3 C89_3 1_555 1_555
O93_3 C89_3 1_555 1_555
O57_3 C90_3 1_555 1_555
O58_3 C90_3 1_555 1_555
O59_3 C87_3 1_555 1_555
O107_3 C82_3 1_555 1_555
C83_3 C84_3 1_555 1_555
C84_3 H33_3 1_555 1_555
C85_3 C84_3 1_555 1_555
C86_3 C85_3 1_555 1_555
H34_3 C86_3 1_555 1_555
C87_3 C86_3 1_555 1_555
C88_3 C83_3 1_555 1_555
H35_3 C88_3 1_555 1_555
C89_3 C83_3 1_555 1_555
C90_3 C85_3 1_555 1_555
C91_3 C79_3 1_555 1_555
C92_3 C81_3 1_555 1_555
H36_3 C92_3 1_555 1_555
Cu31_2 O57_3 1_555 1_555
Cu35_2 O58_3 1_555 1_555
O88_2 Cu18_4 1_555 1_555
O91_2 Cu24_4 1_555 1_555
O50_3 C76_3 1_555 1_555
O103_2 C77_3 1_555 1_555
C70_3 C76_3 1_555 1_555
C72_3 C77_3 1_555 1_555
C74_3 C75_3 1_555 1_555
O59_3 C91_3 1_555 1_555
C87_3 C88_3 1_555 1_555
C91_3 C92_3 1_555 1_555
Cu17 O1_3 1_555 1_555
Cu23 O2_3 1_555 1_555
Cu37_3 O6_4 1_555 1_555
O1_3 C7_6 1_555 1_555
O2_3 C7_6 1_555 1_555
O95 C8_6 1_555 1_555
O100 C8_6 1_555 1_555
O5_6 C5_6 1_555 1_555
O6_4 C13_6 1_555 1_555
O11_5 Cu17 1_555 1_555
O12_5 Cu23 1_555 1_555
O15_7 Cu37_3 1_555 1_555
C1_6 C2_6 1_555 1_555
C2_6 H1_6 1_555 1_555
C3_6 C2_6 1_555 1_555
C4_6 C3_6 1_555 1_555
H2_6 C4_6 1_555 1_555
C5_6 C4_6 1_555 1_555
C6_6 C1_6 1_555 1_555
H3_6 C6_6 1_555 1_555
C7_6 C1_6 1_555 1_555
C8_6 C3_6 1_555 1_555
C9_6 O5_6 1_555 1_555
C10_6 C9_6 1_555 1_555
H4_6 C10_6 1_555 1_555
C11_6 C9_6 1_555 1_555
H5_6 C11_6 1_555 1_555
C12_6 C11_6 1_555 1_555
C13_6 C12_6 1_555 1_555
O17_6 C30_6 1_555 1_555
O18_6 C30_6 1_555 1_555
O19_6 C31_6 1_555 1_555
O20_6 C31_6 1_555 1_555
O21_6 C28_6 1_555 1_555
O22_4 C13_6 1_555 1_555
C24_6 C25_6 1_555 1_555
C25_6 H10_6 1_555 1_555
C26_6 C25_6 1_555 1_555
C27_6 C26_6 1_555 1_555
H11_6 C27_6 1_555 1_555
C28_6 C27_6 1_555 1_555
C29_6 C24_6 1_555 1_555
H12_6 C29_6 1_555 1_555
C30_6 C24_6 1_555 1_555
C31_6 C26_6 1_555 1_555
C32_6 C10_6 1_555 1_555
C33_6 C12_6 1_555 1_555
H13_6 C33_6 1_555 1_555
Cu20_2 O17_6 1_555 1_555
O85_6 Cu20_2 1_555 1_555
Cu26_2 O18_6 1_555 1_555
O86_6 Cu26_2 1_555 1_555
Cu38_3 O22_4 1_555 1_555
O87_7 Cu38_3 1_555 1_555
Cu30 O19_6 1_555 1_555
Cu34 O20_6 1_555 1_555
O109_6 Cu20_2 1_555 1_555
O111_6 Cu20_2 1_555 1_555
O113_6 Cu26_2 1_555 1_555
O115_6 Cu26_2 1_555 1_555
C5_6 C6_6 1_555 1_555
O21_6 C32_6 1_555 1_555
C28_6 C29_6 1_555 1_555
C32_6 C33_6 1_555 1_555
O11_6 Cu17_2 1_555 1_555
O12_6 Cu23_2 1_555 1_555
O15_8 Cu37_4 1_555 1_555
O61_3 Cu17_2 1_555 1_555
O62_3 Cu23_2 1_555 1_555
O98 C100_3 1_555 1_555
O103 C100_3 1_555 1_555
O65_3 C97_3 1_555 1_555
O66_3 Cu37_4 1_555 1_555
C93_3 C94_3 1_555 1_555
C94_3 H37_3 1_555 1_555
C95_3 C94_3 1_555 1_555
C96_3 C95_3 1_555 1_555
H38_3 C96_3 1_555 1_555
C97_3 C96_3 1_555 1_555
C98_3 C93_3 1_555 1_555
H39_3 C98_3 1_555 1_555
C99_3 O61_3 1_555 1_555
C100_3 C95_3 1_555 1_555
C101_3 O65_3 1_555 1_555
C102_3 C101_3 1_555 1_555
H40_3 C102_3 1_555 1_555
C103_3 C101_3 1_555 1_555
H41_3 C103_3 1_555 1_555
C104_3 C103_3 1_555 1_555
C105_3 O66_3 1_555 1_555
O67_3 C112_3 1_555 1_555
O68_3 C112_3 1_555 1_555
O69_3 C113_3 1_555 1_555
O70_3 C113_3 1_555 1_555
O71_3 C110_3 1_555 1_555
O72_3 C105_3 1_555 1_555
C106_3 C107_3 1_555 1_555
C107_3 H42_3 1_555 1_555
C108_3 C107_3 1_555 1_555
C109_3 C108_3 1_555 1_555
H43_3 C109_3 1_555 1_555
C110_3 C109_3 1_555 1_555
C111_3 C106_3 1_555 1_555
H44_3 C111_3 1_555 1_555
C112_3 C106_3 1_555 1_555
C113_3 C108_3 1_555 1_555
C114_3 C102_3 1_555 1_555
C115_3 C104_3 1_555 1_555
H45_3 C115_3 1_555 1_555
O87_8 Cu38_4 1_555 1_555
Cu19_3 O67_3 1_555 1_555
Cu25_3 O68_3 1_555 1_555
Cu31 O69_3 1_555 1_555
Cu35 O70_3 1_555 1_555
O104_4 Cu37_4 1_555 1_555
O105_4 Cu38_4 1_555 1_555
O62_3 C99_3 1_555 1_555
C93_3 C99_3 1_555 1_555
C97_3 C98_3 1_555 1_555
C104_3 C105_3 1_555 1_555
O71_3 C114_3 1_555 1_555
O72_3 Cu38_4 1_555 1_555
C110_3 C111_3 1_555 1_555
C114_3 C115_3 1_555 1_555
O89_3 C7_7 1_555 1_555
O92_3 C7_7 1_555 1_555
O96 C8_7 1_555 1_555
O101 C8_7 1_555 1_555
O5_7 C5_7 1_555 1_555
O104_3 C13_7 1_555 1_555
C1_7 C2_7 1_555 1_555
C2_7 H1_7 1_555 1_555
C3_7 C2_7 1_555 1_555
C4_7 C3_7 1_555 1_555
H2_7 C4_7 1_555 1_555
C5_7 C4_7 1_555 1_555
C6_7 C1_7 1_555 1_555
H3_7 C6_7 1_555 1_555
C7_7 C1_7 1_555 1_555
C8_7 C3_7 1_555 1_555
C9_7 O5_7 1_555 1_555
C10_7 C9_7 1_555 1_555
H4_7 C10_7 1_555 1_555
C11_7 C9_7 1_555 1_555
H5_7 C11_7 1_555 1_555
C12_7 C11_7 1_555 1_555
C13_7 C12_7 1_555 1_555
O17_7 C30_7 1_555 1_555
O18_7 C30_7 1_555 1_555
O19_7 C31_7 1_555 1_555
O20_7 C31_7 1_555 1_555
O21_7 C28_7 1_555 1_555
O105_3 C13_7 1_555 1_555
C24_7 C25_7 1_555 1_555
C25_7 H10_7 1_555 1_555
C26_7 C25_7 1_555 1_555
C27_7 C26_7 1_555 1_555
H11_7 C27_7 1_555 1_555
C28_7 C27_7 1_555 1_555
C29_7 C24_7 1_555 1_555
H12_7 C29_7 1_555 1_555
C30_7 C24_7 1_555 1_555
C31_7 C26_7 1_555 1_555
C32_7 C10_7 1_555 1_555
C33_7 C12_7 1_555 1_555
H13_7 C33_7 1_555 1_555
Cu19_2 O17_7 1_555 1_555
O85_7 Cu19_2 1_555 1_555
Cu25_2 O18_7 1_555 1_555
O86_7 Cu25_2 1_555 1_555
Cu31 O19_7 1_555 1_555
Cu35 O20_7 1_555 1_555
O109_7 Cu19_2 1_555 1_555
O111_7 Cu19_2 1_555 1_555
O113_7 Cu25_2 1_555 1_555
O115_7 Cu25_2 1_555 1_555
C5_7 C6_7 1_555 1_555
O21_7 C32_7 1_555 1_555
C28_7 C29_7 1_555 1_555
C32_7 C33_7 1_555 1_555
O88_2 C7_8 1_555 1_555
O91_2 C7_8 1_555 1_555
O96_2 C8_8 1_555 1_555
O101_2 C8_8 1_555 1_555
O5_8 C5_8 1_555 1_555
O104_4 C13_8 1_555 1_555
C1_8 C2_8 1_555 1_555
C2_8 H1_8 1_555 1_555
C3_8 C2_8 1_555 1_555
C4_8 C3_8 1_555 1_555
H2_8 C4_8 1_555 1_555
C5_8 C4_8 1_555 1_555
C6_8 C1_8 1_555 1_555
H3_8 C6_8 1_555 1_555
C7_8 C1_8 1_555 1_555
C8_8 C3_8 1_555 1_555
C9_8 O5_8 1_555 1_555
C10_8 C9_8 1_555 1_555
H4_8 C10_8 1_555 1_555
C11_8 C9_8 1_555 1_555
H5_8 C11_8 1_555 1_555
C12_8 C11_8 1_555 1_555
C13_8 C12_8 1_555 1_555
O17_8 C30_8 1_555 1_555
O18_8 C30_8 1_555 1_555
O19_8 C31_8 1_555 1_555
O20_8 C31_8 1_555 1_555
O21_8 C28_8 1_555 1_555
O105_4 C13_8 1_555 1_555
C24_8 C25_8 1_555 1_555
C25_8 H10_8 1_555 1_555
C26_8 C25_8 1_555 1_555
C27_8 C26_8 1_555 1_555
H11_8 C27_8 1_555 1_555
C28_8 C27_8 1_555 1_555
C29_8 C24_8 1_555 1_555
H12_8 C29_8 1_555 1_555
C30_8 C24_8 1_555 1_555
C31_8 C26_8 1_555 1_555
C32_8 C10_8 1_555 1_555
C33_8 C12_8 1_555 1_555
H13_8 C33_8 1_555 1_555
Cu19_3 O17_8 1_555 1_555
O85_8 Cu19_3 1_555 1_555
Cu25_3 O18_8 1_555 1_555
O86_8 Cu25_3 1_555 1_555
Cu31_2 O19_8 1_555 1_555
Cu35_2 O20_8 1_555 1_555
O109_8 Cu19_3 1_555 1_555
O111_8 Cu19_3 1_555 1_555
O113_8 Cu25_3 1_555 1_555
O115_8 Cu25_3 1_555 1_555
C5_8 C6_8 1_555 1_555
O21_8 C32_8 1_555 1_555
C28_8 C29_8 1_555 1_555
C32_8 C33_8 1_555 1_555
C22_2 C21_2 1_555 1_555
H9_2 C23_2 1_555 1_555
O109_3 C38_2 1_555 1_555
O113_3 C38_2 1_555 1_555
O25_2 C37_2 1_555 1_555
O26_2 C22_2 1_555 1_555
C34_2 C35_2 1_555 1_555
C35_2 H14_2 1_555 1_555
C36_2 C34_2 1_555 1_555
H15_2 C36_2 1_555 1_555
C37_2 C36_2 1_555 1_555
C38_2 C34_2 1_555 1_555
C39_2 C23_2 1_555 1_555
C40_2 C21_2 1_555 1_555
H16_2 C40_2 1_555 1_555
O111_2 C43_2 1_555 1_555
O115_2 C43_2 1_555 1_555
C41_2 C35_2 1_555 1_555
C42_2 C37_2 1_555 1_555
H17_2 C42_2 1_555 1_555
C43_2 C41_2 1_555 1_555
H22_4 C56_4 1_555 1_555
O109_4 C61_4 1_555 1_555
O113_4 C61_4 1_555 1_555
O41_4 C60_4 1_555 1_555
O42_4 C55_4 1_555 1_555
C57_4 C58_4 1_555 1_555
C58_4 H23_4 1_555 1_555
C59_4 C57_4 1_555 1_555
H24_4 C59_4 1_555 1_555
C60_4 C59_4 1_555 1_555
C61_4 C57_4 1_555 1_555
C62_4 C56_4 1_555 1_555
C63_4 C54_4 1_555 1_555
H25_4 C63_4 1_555 1_555
O111_3 C66_4 1_555 1_555
O115_3 C66_4 1_555 1_555
C64_4 C58_4 1_555 1_555
C65_4 C60_4 1_555 1_555
H26_4 C65_4 1_555 1_555
C66_4 C64_4 1_555 1_555
Cu40_5 O26_2 1_555 1_555
O25_2 C39_2 1_555 1_555
C39_2 C40_2 1_555 1_555
C41_2 C42_2 1_555 1_555
C54_4 C55_4 1_555 1_555
O41_4 C62_4 1_555 1_555
O42_4 Cu40_5 1_555 1_555
C62_4 C63_4 1_555 1_555
C64_4 C65_4 1_555 1_555
Cu6_5 O10_2 1_555 1_555
O9_2 C17_2 1_555 1_555
O10_2 C22_3 1_555 1_555
O13_3 Cu31_2 1_555 1_555
O14_3 Cu35_2 1_555 1_555
O16_9 Cu6_5 1_555 1_555
C14_2 C15_2 1_555 1_555
C15_2 H6_2 1_555 1_555
C16_2 C14_2 1_555 1_555
H7_2 C16_2 1_555 1_555
C17_2 C16_2 1_555 1_555
C18_2 O109_8 1_555 1_555
C19_2 O9_2 1_555 1_555
C20_2 C19_2 1_555 1_555
H8_2 C20_2 1_555 1_555
C21_3 C20_2 1_555 1_555
C22_3 C21_3 1_555 1_555
C23_3 C19_2 1_555 1_555
H9_3 C23_3 1_555 1_555
O111_5 C46_2 1_555 1_555
O115_5 C46_2 1_555 1_555
C44_2 C15_2 1_555 1_555
C45_2 C17_2 1_555 1_555
H18_2 C45_2 1_555 1_555
C46_2 C44_2 1_555 1_555
Cu29 O37_7 1_555 1_555
Cu33 O38_7 1_555 1_555
O33_4 C50_4 1_555 1_555
O34_2 Cu6_5 1_555 1_555
C47_4 C48_4 1_555 1_555
C48_4 H19_4 1_555 1_555
C49_4 C47_4 1_555 1_555
H20_4 C49_4 1_555 1_555
C50_4 C49_4 1_555 1_555
C51_4 O109_5 1_555 1_555
C52_4 O33_4 1_555 1_555
C53_4 C52_4 1_555 1_555
H21_4 C53_4 1_555 1_555
C54_5 C53_4 1_555 1_555
C55_5 O34_2 1_555 1_555
C56_5 C52_4 1_555 1_555
H22_5 C56_5 1_555 1_555
O111_6 C69_4 1_555 1_555
O115_6 C69_4 1_555 1_555
C67_4 C48_4 1_555 1_555
C68_4 C50_4 1_555 1_555
H27_4 C68_4 1_555 1_555
C69_4 C67_4 1_555 1_555
O116_2 Cu6_5 1_555 1_555
O117_2 Cu6_5 1_555 1_555
O113_8 C18_2 1_555 1_555
C14_2 C18_2 1_555 1_555
C44_2 C45_2 1_555 1_555
O113_5 C51_4 1_555 1_555
C47_4 C51_4 1_555 1_555
C54_5 C55_5 1_555 1_555
C67_4 C68_4 1_555 1_555
H22_6 C56_6 1_555 1_555
O109 C61_5 1_555 1_555
O113 C61_5 1_555 1_555
O41_5 C60_5 1_555 1_555
O42_5 C55_6 1_555 1_555
C57_5 C58_5 1_555 1_555
C58_5 H23_5 1_555 1_555
C59_5 C57_5 1_555 1_555
H24_5 C59_5 1_555 1_555
C60_5 C59_5 1_555 1_555
C61_5 C57_5 1_555 1_555
C62_5 C56_6 1_555 1_555
C63_5 C54_6 1_555 1_555
H25_5 C63_5 1_555 1_555
O111_4 C66_5 1_555 1_555
O115_4 C66_5 1_555 1_555
C64_5 C58_5 1_555 1_555
C65_5 C60_5 1_555 1_555
H26_5 C65_5 1_555 1_555
C66_5 C64_5 1_555 1_555
C54_6 C55_6 1_555 1_555
O41_5 C62_5 1_555 1_555
O42_5 Cu40_5 1_555 1_555
C62_5 C63_5 1_555 1_555
C64_5 C65_5 1_555 1_555
Cu30 O37_8 1_555 1_555
Cu34 O38_8 1_555 1_555
O33_5 C50_5 1_555 1_555
C47_5 C48_5 1_555 1_555
C48_5 H19_5 1_555 1_555
C49_5 C47_5 1_555 1_555
H20_5 C49_5 1_555 1_555
C50_5 C49_5 1_555 1_555
C51_5 O109_6 1_555 1_555
C52_5 O33_5 1_555 1_555
C53_5 C52_5 1_555 1_555
H21_5 C53_5 1_555 1_555
C54_7 C53_5 1_555 1_555
C55_7 O116_2 1_555 1_555
C56_7 C52_5 1_555 1_555
H22_7 C56_7 1_555 1_555
O111_7 C69_5 1_555 1_555
O115_7 C69_5 1_555 1_555
C67_5 C48_5 1_555 1_555
C68_5 C50_5 1_555 1_555
H27_5 C68_5 1_555 1_555
C69_5 C67_5 1_555 1_555
O113_6 C51_5 1_555 1_555
C47_5 C51_5 1_555 1_555
C54_7 C55_7 1_555 1_555
C67_5 C68_5 1_555 1_555
H22_8 C56_8 1_555 1_555
O109_2 C61_6 1_555 1_555
O113_2 C61_6 1_555 1_555
O41_6 C60_6 1_555 1_555
O42_6 C55_8 1_555 1_555
C57_6 C58_6 1_555 1_555
C58_6 H23_6 1_555 1_555
C59_6 C57_6 1_555 1_555
H24_6 C59_6 1_555 1_555
C60_6 C59_6 1_555 1_555
C61_6 C57_6 1_555 1_555
C62_6 C56_8 1_555 1_555
C63_6 C54_8 1_555 1_555
H25_6 C63_6 1_555 1_555
O111 C66_6 1_555 1_555
O115 C66_6 1_555 1_555
C64_6 C58_6 1_555 1_555
C65_6 C60_6 1_555 1_555
H26_6 C65_6 1_555 1_555
C66_6 C64_6 1_555 1_555
C54_8 C55_8 1_555 1_555
O41_6 C62_6 1_555 1_555
O42_6 Cu40_5 1_555 1_555
C62_6 C63_6 1_555 1_555
C64_6 C65_6 1_555 1_555
Cu31 O37_9 1_555 1_555
Cu35 O38_9 1_555 1_555
O33_6 C50_6 1_555 1_555
C47_6 C48_6 1_555 1_555
C48_6 H19_6 1_555 1_555
C49_6 C47_6 1_555 1_555
H20_6 C49_6 1_555 1_555
C50_6 C49_6 1_555 1_555
C51_6 O109_7 1_555 1_555
C52_6 O33_6 1_555 1_555
C53_6 C52_6 1_555 1_555
H21_6 C53_6 1_555 1_555
C54_9 C53_6 1_555 1_555
C55_9 O117_2 1_555 1_555
C56_9 C52_6 1_555 1_555
H22_9 C56_9 1_555 1_555
O111_8 C69_6 1_555 1_555
O115_8 C69_6 1_555 1_555
C67_6 C48_6 1_555 1_555
C68_6 C50_6 1_555 1_555
H27_6 C68_6 1_555 1_555
C69_6 C67_6 1_555 1_555
O113_7 C51_6 1_555 1_555
C47_6 C51_6 1_555 1_555
C54_9 C55_9 1_555 1_555
C67_6 C68_6 1_555 1_555
O16_10 Cu40_5 1_555 1_555

#END
