
###############################################################################
#
# This file contains modified crystal structure data generated from the
# MOF subset of the Cambridge Structural Database (CSD) v543 
# hosted by the Cambridge Crystallographic Data Centre (CCDC).
#
# This work is licensed under the Creative Commons
# Attribution-NonCommercial-ShareAlike 4.0 International License.
# To view a copy of this license, visit
# http://creativecommons.org/licenses/by-nc-sa/4.0/
# or send a letter to
# Creative Commons, PO Box 1866, Mountain View, CA 94042, USA.
#
# CIF created using the CSD Python API on 29 September 2022
# The structure has been converted into the P1 space group
# The structure has a 3D framework
# The original CSD entry RAHNOF is in the cubic crystal system
# The framework has been calculated to contain at least 10.0% void space
# The void calculation uses a probe of radius 1.32A, grid spacing 0.4
# H atom positions have been added when not included in the experimental data
# Generated hydrogen atom positions removed from atoms on special positions
#
###############################################################################

data_RAHNOF
_chemical_formula_moiety         '(C1152 H1632 Cu144 N96 O528)n'
_symmetry_cell_setting           triclinic
_symmetry_space_group_name_H-M   'P 1'
_symmetry_Int_Tables_number      1
_space_group_name_Hall           'P 1'
loop_
_symmetry_equiv_pos_site_id
_symmetry_equiv_pos_as_xyz
1 x,y,z
_cell_length_a                   42.710(5)
_cell_length_b                   42.710(5)
_cell_length_c                   42.710(5)
_cell_angle_alpha                90
_cell_angle_beta                 90
_cell_angle_gamma                90
_cell_volume                     77909.2
loop_
_atom_site_label
_atom_site_type_symbol
_atom_site_fract_x
_atom_site_fract_y
_atom_site_fract_z
Cu1 Cu 0.13127(3) 0.5000 0.36873(3)
Cu2 Cu 0.17504(3) 0.5000 0.32496(3)
O1 O 0.09587(18) 0.5000 0.40413(18)
O2 O 0.11224(11) 0.46817(12) 0.34310(12)
O3 O 0.21120(16) 0.5000 0.28880(16)
O4 O 0.14888(11) 0.46802(11) 0.30574(11)
C1 C 0.12362(17) 0.45798(16) 0.31731(16)
C2 C 0.08227(17) 0.41773(17) 0.3153(3)
H1 H 0.0744 0.4256 0.3346
C3 C 0.10751(18) 0.43207(18) 0.30198(17)
C4 C 0.1185(2) 0.42145(19) 0.2734(2)
H2 H 0.1364 0.4307 0.2640
C5 C 0.1030(2) 0.3970(2) 0.2589(3)
C6 C 0.1137(3) 0.3863(3) 0.2286(3)
C7 C 0.1235(3) 0.3765(3) 0.2049(4)
C8 C 0.1378(4) 0.3622(4) 0.1781(4)
C9 C 0.1237(5) 0.3360(4) 0.1640(4)
N1 N 0.0962(9) 0.3271(6) 0.1729(6)
H3 H 0.0867 0.3367 0.1891
O5 O 0.34310(12) 0.38776(11) 0.03183(12)
O6 O 0.30574(11) 0.35112(11) 0.03198(11)
C10 C 0.31731(16) 0.37638(17) 0.04202(16)
C11 C 0.3153(3) 0.41773(17) 0.08227(17)
H4 H 0.3346 0.4256 0.0744
C12 C 0.30198(17) 0.39249(18) 0.06793(18)
C13 C 0.2734(2) 0.3815(2) 0.07855(19)
H5 H 0.2640 0.3636 0.0693
C14 C 0.2589(3) 0.3970(2) 0.1030(2)
C15 C 0.2286(3) 0.3863(3) 0.1137(3)
C16 C 0.2049(4) 0.3765(3) 0.1235(3)
C17 C 0.1781(4) 0.3622(4) 0.1378(4)
C18 C 0.1640(4) 0.3763(5) 0.1640(4)
N2 N 0.1729(6) 0.4038(9) 0.1729(6)
H6 H 0.1891 0.4133 0.1633
O7 O 0.03183(12) 0.15690(12) 0.11224(11)
O8 O 0.03198(11) 0.19426(11) 0.14888(11)
C19 C 0.04202(16) 0.18269(16) 0.12362(17)
C20 C 0.08227(17) 0.1847(3) 0.08227(17)
H7 H 0.0744 0.1654 0.0744
C21 C 0.06793(18) 0.19802(17) 0.10751(18)
C22 C 0.07855(19) 0.2266(2) 0.1185(2)
H8 H 0.0693 0.2360 0.1364
C23 C 0.1030(2) 0.2411(3) 0.1030(2)
C24 C 0.1137(3) 0.2714(3) 0.1137(3)
C25 C 0.1235(3) 0.2951(4) 0.1235(3)
C26 C 0.1378(4) 0.3219(4) 0.1378(4)
C27 C 0.1640(4) 0.3360(4) 0.1237(5)
N3 N 0.1729(6) 0.3271(6) 0.0962(9)
H9 H 0.1633 0.3109 0.0867
O9 O 0.11224(11) 0.15690(12) 0.03183(12)
O10 O 0.14888(11) 0.19426(11) 0.03198(11)
C28 C 0.12362(17) 0.18269(16) 0.04202(16)
C29 C 0.10751(18) 0.19802(17) 0.06793(18)
C30 C 0.1185(2) 0.2266(2) 0.07855(19)
H10 H 0.1364 0.2360 0.0693
H11 H 0.0867 0.3109 0.1633
O11 O 0.03183(12) 0.38776(11) 0.34310(12)
O12 O 0.03198(11) 0.35112(11) 0.30574(11)
C31 C 0.04202(16) 0.37638(17) 0.31731(16)
C32 C 0.06793(18) 0.39249(18) 0.30198(17)
C33 C 0.07855(19) 0.3815(2) 0.2734(2)
H12 H 0.0693 0.3636 0.2640
H13 H 0.1633 0.4133 0.1891
O13 O 0.34310(12) 0.46817(12) 0.11224(11)
O14 O 0.30574(11) 0.46802(11) 0.14888(11)
C34 C 0.31731(16) 0.45798(16) 0.12362(17)
C35 C 0.30198(17) 0.43207(18) 0.10751(18)
C36 C 0.2734(2) 0.42145(19) 0.1185(2)
H14 H 0.2640 0.4307 0.1364
H15 H 0.1891 0.3367 0.0867
Cu3 Cu 0.36873(3) 0.5000 0.13127(3)
Cu4 Cu 0.32496(3) 0.5000 0.17504(3)
O15 O 0.40413(18) 0.5000 0.09587(18)
O16 O 0.34310(12) 0.53183(12) 0.11224(11)
O17 O 0.28880(16) 0.5000 0.21120(16)
O18 O 0.30574(11) 0.53198(11) 0.14888(11)
C37 C 0.31731(16) 0.54202(16) 0.12362(17)
C38 C 0.3153(3) 0.58227(17) 0.08227(17)
H16 H 0.3346 0.5744 0.0744
C39 C 0.30198(17) 0.56793(18) 0.10751(18)
C40 C 0.2734(2) 0.57855(19) 0.1185(2)
H17 H 0.2640 0.5693 0.1364
C41 C 0.2589(3) 0.6030(2) 0.1030(2)
C42 C 0.2286(3) 0.6137(3) 0.1137(3)
C43 C 0.2049(4) 0.6235(3) 0.1235(3)
C44 C 0.1781(4) 0.6378(4) 0.1378(4)
C45 C 0.1640(4) 0.6640(4) 0.1237(5)
N4 N 0.1729(6) 0.6729(6) 0.0962(9)
H18 H 0.1891 0.6633 0.0867
O19 O 0.03183(12) 0.61224(11) 0.34310(12)
O20 O 0.03198(11) 0.64888(11) 0.30574(11)
C46 C 0.04202(16) 0.62362(17) 0.31731(16)
C47 C 0.08227(17) 0.58227(17) 0.3153(3)
H19 H 0.0744 0.5744 0.3346
C48 C 0.06793(18) 0.60751(18) 0.30198(17)
C49 C 0.07855(19) 0.6185(2) 0.2734(2)
H20 H 0.0693 0.6364 0.2640
C50 C 0.1030(2) 0.6030(2) 0.2589(3)
C51 C 0.1137(3) 0.6137(3) 0.2286(3)
C52 C 0.1235(3) 0.6235(3) 0.2049(4)
C53 C 0.1378(4) 0.6378(4) 0.1781(4)
C54 C 0.1640(4) 0.6237(5) 0.1640(4)
N5 N 0.1729(6) 0.5962(9) 0.1729(6)
H21 H 0.1633 0.5867 0.1891
O21 O 0.11224(11) 0.84310(12) 0.03183(12)
O22 O 0.14888(11) 0.80574(11) 0.03198(11)
C55 C 0.12362(17) 0.81731(16) 0.04202(16)
C56 C 0.08227(17) 0.8153(3) 0.08227(17)
H22 H 0.0744 0.8346 0.0744
C57 C 0.10751(18) 0.80198(17) 0.06793(18)
C58 C 0.1185(2) 0.7734(2) 0.07855(19)
H23 H 0.1364 0.7640 0.0693
C59 C 0.1030(2) 0.7589(3) 0.1030(2)
C60 C 0.1137(3) 0.7286(3) 0.1137(3)
C61 C 0.1235(3) 0.7049(4) 0.1235(3)
C62 C 0.1378(4) 0.6781(4) 0.1378(4)
C63 C 0.1237(5) 0.6640(4) 0.1640(4)
N6 N 0.0962(9) 0.6729(6) 0.1729(6)
H24 H 0.0867 0.6891 0.1633
O23 O 0.03183(12) 0.84310(12) 0.11224(11)
O24 O 0.03198(11) 0.80574(11) 0.14888(11)
C64 C 0.04202(16) 0.81731(16) 0.12362(17)
C65 C 0.06793(18) 0.80198(17) 0.10751(18)
C66 C 0.07855(19) 0.7734(2) 0.1185(2)
H25 H 0.0693 0.7640 0.1364
H26 H 0.1633 0.6891 0.0867
O25 O 0.34310(12) 0.61224(11) 0.03183(12)
O26 O 0.30574(11) 0.64888(11) 0.03198(11)
C67 C 0.31731(16) 0.62362(17) 0.04202(16)
C68 C 0.30198(17) 0.60751(18) 0.06793(18)
C69 C 0.2734(2) 0.6185(2) 0.07855(19)
H27 H 0.2640 0.6364 0.0693
H28 H 0.1891 0.5867 0.1633
O27 O 0.11224(11) 0.53183(12) 0.34310(12)
O28 O 0.14888(11) 0.53198(11) 0.30574(11)
C70 C 0.12362(17) 0.54202(16) 0.31731(16)
C71 C 0.10751(18) 0.56793(18) 0.30198(17)
C72 C 0.1185(2) 0.57855(19) 0.2734(2)
H29 H 0.1364 0.5693 0.2640
H30 H 0.0867 0.6633 0.1891
Cu5 Cu 0.13127(3) 0.86873(3) 0.0000
Cu6 Cu 0.17504(3) 0.82496(3) 0.0000
O29 O 0.09587(18) 0.90413(18) 0.0000
O30 O 0.21120(16) 0.78880(16) 0.0000
Cu7 Cu 0.36873(3) 0.63127(3) 0.0000
Cu8 Cu 0.13127(3) 0.13127(3) 0.0000
Cu9 Cu 0.0000 0.13127(3) 0.13127(3)
Cu10 Cu 0.36873(3) 0.36873(3) 0.0000
Cu11 Cu 0.0000 0.86873(3) 0.13127(3)
Cu12 Cu -0.0000 0.36873(3) 0.36873(3)
Cu13 Cu -0.0000 0.63127(3) 0.36873(3)
Cu14 Cu 0.32496(3) 0.67504(3) 0.0000
Cu15 Cu 0.17504(3) 0.17504(3) 0.0000
Cu16 Cu -0.0000 0.17504(3) 0.17504(3)
Cu17 Cu 0.32496(3) 0.32496(3) 0.0000
Cu18 Cu -0.0000 0.82496(3) 0.17504(3)
Cu19 Cu 0.0000 0.32496(3) 0.32496(3)
Cu20 Cu 0.0000 0.67504(3) 0.32496(3)
O31 O 0.38776(11) 0.46817(12) 0.15690(12)
O33 O 0.15690(12) 0.53183(12) 0.38776(11)
O34 O 0.38776(11) 0.53183(12) 0.15690(12)
O35 O 0.15690(12) 0.88776(11) 0.03183(12)
O36 O 0.15690(12) 0.46817(12) 0.38776(11)
O38 O 0.35112(11) 0.46802(11) 0.19426(11)
O40 O 0.19426(11) 0.53198(11) 0.35112(11)
O41 O 0.35112(11) 0.53198(11) 0.19426(11)
O42 O 0.19426(11) 0.85112(11) 0.03198(11)
O43 O 0.19426(11) 0.46802(11) 0.35112(11)
Cu5_2 Cu 0.13127(3) 0.86873(3) 1.0000
Cu6_2 Cu 0.17504(3) 0.82496(3) 1.0000
O29_2 O 0.09587(18) 0.90413(18) 1.0000
O30_2 O 0.21120(16) 0.78880(16) 1.0000
Cu7_2 Cu 0.36873(3) 0.63127(3) 1.0000
Cu8_2 Cu 0.13127(3) 0.13127(3) 1.0000
Cu10_2 Cu 0.36873(3) 0.36873(3) 1.0000
Cu14_2 Cu 0.32496(3) 0.67504(3) 1.0000
Cu15_2 Cu 0.17504(3) 0.17504(3) 1.0000
Cu17_2 Cu 0.32496(3) 0.32496(3) 1.0000
O32 O 0.15690(12) 0.88776(11) 0.96817(12)
O37 O 0.11224(11) 0.84310(12) 0.96817(12)
O39 O 0.19426(11) 0.85112(11) 0.96802(11)
O44 O 0.14888(11) 0.80574(11) 0.96802(11)
Cu9_2 Cu 1.0000 0.13127(3) 0.13127(3)
Cu11_2 Cu 1.0000 0.86873(3) 0.13127(3)
Cu12_2 Cu 1.0000 0.36873(3) 0.36873(3)
Cu13_2 Cu 1.0000 0.63127(3) 0.36873(3)
Cu16_2 Cu 1.0000 0.17504(3) 0.17504(3)
Cu18_2 Cu 1.0000 0.82496(3) 0.17504(3)
Cu19_2 Cu 1.0000 0.32496(3) 0.32496(3)
Cu20_2 Cu 1.0000 0.67504(3) 0.32496(3)
Cu1_2 Cu 0.36873(3) 0.13127(3) 0.5000
Cu2_2 Cu 0.32496(3) 0.17504(3) 0.5000
O1_2 O 0.40413(18) 0.09587(18) 0.5000
O2_2 O 0.34310(12) 0.11224(11) 0.46817(12)
O3_2 O 0.28880(16) 0.21120(16) 0.5000
O4_2 O 0.30574(11) 0.14888(11) 0.46802(11)
C1_2 C 0.31731(16) 0.12362(17) 0.45798(16)
C2_2 C 0.3153(3) 0.08227(17) 0.41773(17)
H1_2 H 0.3346 0.0744 0.4256
C3_2 C 0.30198(17) 0.10751(18) 0.43207(18)
C4_2 C 0.2734(2) 0.1185(2) 0.42145(19)
H2_2 H 0.2640 0.1364 0.4307
C5_2 C 0.2589(3) 0.1030(2) 0.3970(2)
C6_2 C 0.2286(3) 0.1137(3) 0.3863(3)
C7_2 C 0.2049(4) 0.1235(3) 0.3765(3)
C8_2 C 0.1781(4) 0.1378(4) 0.3622(4)
C9_2 C 0.1640(4) 0.1237(5) 0.3360(4)
N1_2 N 0.1729(6) 0.0962(9) 0.3271(6)
H3_2 H 0.1891 0.0867 0.3367
O5_2 O 0.03183(12) 0.34310(12) 0.38776(11)
O6_2 O 0.03198(11) 0.30574(11) 0.35112(11)
C10_2 C 0.04202(16) 0.31731(16) 0.37638(17)
C11_2 C 0.08227(17) 0.3153(3) 0.41773(17)
H4_2 H 0.0744 0.3346 0.4256
C12_2 C 0.06793(18) 0.30198(17) 0.39249(18)
C13_2 C 0.07855(19) 0.2734(2) 0.3815(2)
H5_2 H 0.0693 0.2640 0.3636
C14_2 C 0.1030(2) 0.2589(3) 0.3970(2)
C15_2 C 0.1137(3) 0.2286(3) 0.3863(3)
C16_2 C 0.1235(3) 0.2049(4) 0.3765(3)
C17_2 C 0.1378(4) 0.1781(4) 0.3622(4)
C18_2 C 0.1640(4) 0.1640(4) 0.3763(5)
N2_2 N 0.1729(6) 0.1729(6) 0.4038(9)
H6_2 H 0.1633 0.1891 0.4133
O7_2 O 0.11224(11) 0.03183(12) 0.15690(12)
O8_2 O 0.14888(11) 0.03198(11) 0.19426(11)
C19_2 C 0.12362(17) 0.04202(16) 0.18269(16)
C20_2 C 0.08227(17) 0.08227(17) 0.1847(3)
H7_2 H 0.0744 0.0744 0.1654
C21_2 C 0.10751(18) 0.06793(18) 0.19802(17)
C22_2 C 0.1185(2) 0.07855(19) 0.2266(2)
H8_2 H 0.1364 0.0693 0.2360
C23_2 C 0.1030(2) 0.1030(2) 0.2411(3)
C24_2 C 0.1137(3) 0.1137(3) 0.2714(3)
C25_2 C 0.1235(3) 0.1235(3) 0.2951(4)
C26_2 C 0.1378(4) 0.1378(4) 0.3219(4)
C27_2 C 0.1237(5) 0.1640(4) 0.3360(4)
N3_2 N 0.0962(9) 0.1729(6) 0.3271(6)
H9_2 H 0.0867 0.1633 0.3109
O9_2 O 0.03183(12) 0.11224(11) 0.15690(12)
O10_2 O 0.03198(11) 0.14888(11) 0.19426(11)
C28_2 C 0.04202(16) 0.12362(17) 0.18269(16)
C29_2 C 0.06793(18) 0.10751(18) 0.19802(17)
C30_2 C 0.07855(19) 0.1185(2) 0.2266(2)
H10_2 H 0.0693 0.1364 0.2360
H11_2 H 0.1633 0.0867 0.3109
O11_2 O 0.34310(12) 0.03183(12) 0.38776(11)
O12_2 O 0.30574(11) 0.03198(11) 0.35112(11)
C31_2 C 0.31731(16) 0.04202(16) 0.37638(17)
C32_2 C 0.30198(17) 0.06793(18) 0.39249(18)
C33_2 C 0.2734(2) 0.07855(19) 0.3815(2)
H12_2 H 0.2640 0.0693 0.3636
H13_2 H 0.1891 0.1633 0.4133
O13_2 O 0.11224(11) 0.34310(12) 0.46817(12)
O14_2 O 0.14888(11) 0.30574(11) 0.46802(11)
C34_2 C 0.12362(17) 0.31731(16) 0.45798(16)
C35_2 C 0.10751(18) 0.30198(17) 0.43207(18)
C36_2 C 0.1185(2) 0.2734(2) 0.42145(19)
H14_2 H 0.1364 0.2640 0.4307
H15_2 H 0.0867 0.1891 0.3367
Cu3_2 Cu 0.13127(3) 0.36873(3) 0.5000
Cu4_2 Cu 0.17504(3) 0.32496(3) 0.5000
O15_2 O 0.09587(18) 0.40413(18) 0.5000
O16_2 O 0.11224(11) 0.34310(12) 0.53183(12)
O17_2 O 0.21120(16) 0.28880(16) 0.5000
O18_2 O 0.14888(11) 0.30574(11) 0.53198(11)
C37_2 C 0.12362(17) 0.31731(16) 0.54202(16)
C38_2 C 0.08227(17) 0.3153(3) 0.58227(17)
H16_2 H 0.0744 0.3346 0.5744
C39_2 C 0.10751(18) 0.30198(17) 0.56793(18)
C40_2 C 0.1185(2) 0.2734(2) 0.57855(19)
H17_2 H 0.1364 0.2640 0.5693
C41_2 C 0.1030(2) 0.2589(3) 0.6030(2)
C42_2 C 0.1137(3) 0.2286(3) 0.6137(3)
C43_2 C 0.1235(3) 0.2049(4) 0.6235(3)
C44_2 C 0.1378(4) 0.1781(4) 0.6378(4)
C45_2 C 0.1237(5) 0.1640(4) 0.6640(4)
N4_2 N 0.0962(9) 0.1729(6) 0.6729(6)
H18_2 H 0.0867 0.1891 0.6633
O19_2 O 0.34310(12) 0.03183(12) 0.61224(11)
O20_2 O 0.30574(11) 0.03198(11) 0.64888(11)
C46_2 C 0.31731(16) 0.04202(16) 0.62362(17)
C47_2 C 0.3153(3) 0.08227(17) 0.58227(17)
H19_2 H 0.3346 0.0744 0.5744
C48_2 C 0.30198(17) 0.06793(18) 0.60751(18)
C49_2 C 0.2734(2) 0.07855(19) 0.6185(2)
H20_2 H 0.2640 0.0693 0.6364
C50_2 C 0.2589(3) 0.1030(2) 0.6030(2)
C51_2 C 0.2286(3) 0.1137(3) 0.6137(3)
C52_2 C 0.2049(4) 0.1235(3) 0.6235(3)
C53_2 C 0.1781(4) 0.1378(4) 0.6378(4)
C54_2 C 0.1640(4) 0.1640(4) 0.6237(5)
N5_2 N 0.1729(6) 0.1729(6) 0.5962(9)
H21_2 H 0.1891 0.1633 0.5867
O21_2 O 0.03183(12) 0.11224(11) 0.84310(12)
O22_2 O 0.03198(11) 0.14888(11) 0.80574(11)
C55_2 C 0.04202(16) 0.12362(17) 0.81731(16)
C56_2 C 0.08227(17) 0.08227(17) 0.8153(3)
H22_2 H 0.0744 0.0744 0.8346
C57_2 C 0.06793(18) 0.10751(18) 0.80198(17)
C58_2 C 0.07855(19) 0.1185(2) 0.7734(2)
H23_2 H 0.0693 0.1364 0.7640
C59_2 C 0.1030(2) 0.1030(2) 0.7589(3)
C60_2 C 0.1137(3) 0.1137(3) 0.7286(3)
C61_2 C 0.1235(3) 0.1235(3) 0.7049(4)
C62_2 C 0.1378(4) 0.1378(4) 0.6781(4)
C63_2 C 0.1640(4) 0.1237(5) 0.6640(4)
N6_2 N 0.1729(6) 0.0962(9) 0.6729(6)
H24_2 H 0.1633 0.0867 0.6891
O23_2 O 0.11224(11) 0.03183(12) 0.84310(12)
O24_2 O 0.14888(11) 0.03198(11) 0.80574(11)
C64_2 C 0.12362(17) 0.04202(16) 0.81731(16)
C65_2 C 0.10751(18) 0.06793(18) 0.80198(17)
C66_2 C 0.1185(2) 0.07855(19) 0.7734(2)
H25_2 H 0.1364 0.0693 0.7640
H26_2 H 0.0867 0.1633 0.6891
O25_2 O 0.03183(12) 0.34310(12) 0.61224(11)
O26_2 O 0.03198(11) 0.30574(11) 0.64888(11)
C67_2 C 0.04202(16) 0.31731(16) 0.62362(17)
C68_2 C 0.06793(18) 0.30198(17) 0.60751(18)
C69_2 C 0.07855(19) 0.2734(2) 0.6185(2)
H27_2 H 0.0693 0.2640 0.6364
H28_2 H 0.1633 0.1891 0.5867
O27_2 O 0.34310(12) 0.11224(11) 0.53183(12)
O28_2 O 0.30574(11) 0.14888(11) 0.53198(11)
C70_2 C 0.31731(16) 0.12362(17) 0.54202(16)
C71_2 C 0.30198(17) 0.10751(18) 0.56793(18)
C72_2 C 0.2734(2) 0.1185(2) 0.57855(19)
H29_2 H 0.2640 0.1364 0.5693
H30_2 H 0.1891 0.0867 0.6633
Cu5_3 Cu 0.0000 0.13127(3) 0.86873(3)
Cu6_3 Cu -0.0000 0.17504(3) 0.82496(3)
O29_3 O -0.0000 0.09587(18) 0.90413(18)
O30_3 O 0.0000 0.21120(16) 0.78880(16)
Cu7_3 Cu -0.0000 0.36873(3) 0.63127(3)
Cu9_3 Cu 0.13127(3) 0.0000 0.13127(3)
Cu11_3 Cu 0.13127(3) 0.0000 0.86873(3)
Cu12_3 Cu 0.36873(3) -0.0000 0.36873(3)
Cu13_3 Cu 0.36873(3) -0.0000 0.63127(3)
Cu14_3 Cu -0.0000 0.32496(3) 0.67504(3)
Cu16_3 Cu 0.17504(3) -0.0000 0.17504(3)
Cu18_3 Cu 0.17504(3) -0.0000 0.82496(3)
Cu19_3 Cu 0.32496(3) 0.0000 0.32496(3)
Cu20_3 Cu 0.32496(3) -0.0000 0.67504(3)
O31_2 O 0.15690(12) 0.38776(11) 0.46817(12)
O33_2 O 0.38776(11) 0.15690(12) 0.53183(12)
O34_2 O 0.15690(12) 0.38776(11) 0.53183(12)
O35_2 O 0.03183(12) 0.15690(12) 0.88776(11)
O36_2 O 0.38776(11) 0.15690(12) 0.46817(12)
O38_2 O 0.19426(11) 0.35112(11) 0.46802(11)
O40_2 O 0.35112(11) 0.19426(11) 0.53198(11)
O41_2 O 0.19426(11) 0.35112(11) 0.53198(11)
O42_2 O 0.03198(11) 0.19426(11) 0.85112(11)
O43_2 O 0.35112(11) 0.19426(11) 0.46802(11)
Cu9_4 Cu 0.13127(3) 1.0000 0.13127(3)
Cu11_4 Cu 0.13127(3) 1.0000 0.86873(3)
Cu12_4 Cu 0.36873(3) 1.0000 0.36873(3)
Cu13_4 Cu 0.36873(3) 1.0000 0.63127(3)
Cu16_4 Cu 0.17504(3) 1.0000 0.17504(3)
Cu18_4 Cu 0.17504(3) 1.0000 0.82496(3)
Cu19_4 Cu 0.32496(3) 1.0000 0.32496(3)
Cu20_4 Cu 0.32496(3) 1.0000 0.67504(3)
Cu5_4 Cu 1.0000 0.13127(3) 0.86873(3)
Cu6_4 Cu 1.0000 0.17504(3) 0.82496(3)
O29_4 O 1.0000 0.09587(18) 0.90413(18)
O30_4 O 1.0000 0.21120(16) 0.78880(16)
Cu7_4 Cu 1.0000 0.36873(3) 0.63127(3)
Cu14_4 Cu 1.0000 0.32496(3) 0.67504(3)
O32_2 O 0.96817(12) 0.15690(12) 0.88776(11)
O37_2 O 0.96817(12) 0.11224(11) 0.84310(12)
O39_2 O 0.96802(11) 0.19426(11) 0.85112(11)
O44_2 O 0.96802(11) 0.14888(11) 0.80574(11)
Cu1_3 Cu 0.5000 0.36873(3) 0.13127(3)
Cu2_3 Cu 0.5000 0.32496(3) 0.17504(3)
O1_3 O 0.5000 0.40413(18) 0.09587(18)
O2_3 O 0.46817(12) 0.34310(12) 0.11224(11)
O3_3 O 0.5000 0.28880(16) 0.21120(16)
O4_3 O 0.46802(11) 0.30574(11) 0.14888(11)
C1_3 C 0.45798(16) 0.31731(16) 0.12362(17)
C2_3 C 0.41773(17) 0.3153(3) 0.08227(17)
H1_3 H 0.4256 0.3346 0.0744
C3_3 C 0.43207(18) 0.30198(17) 0.10751(18)
C4_3 C 0.42145(19) 0.2734(2) 0.1185(2)
H2_3 H 0.4307 0.2640 0.1364
C5_3 C 0.3970(2) 0.2589(3) 0.1030(2)
C6_3 C 0.3863(3) 0.2286(3) 0.1137(3)
C7_3 C 0.3765(3) 0.2049(4) 0.1235(3)
C8_3 C 0.3622(4) 0.1781(4) 0.1378(4)
C9_3 C 0.3360(4) 0.1640(4) 0.1237(5)
N1_3 N 0.3271(6) 0.1729(6) 0.0962(9)
H3_3 H 0.3367 0.1891 0.0867
O5_3 O 0.38776(11) 0.03183(12) 0.34310(12)
O6_3 O 0.35112(11) 0.03198(11) 0.30574(11)
C10_3 C 0.37638(17) 0.04202(16) 0.31731(16)
C11_3 C 0.41773(17) 0.08227(17) 0.3153(3)
H4_3 H 0.4256 0.0744 0.3346
C12_3 C 0.39249(18) 0.06793(18) 0.30198(17)
C13_3 C 0.3815(2) 0.07855(19) 0.2734(2)
H5_3 H 0.3636 0.0693 0.2640
C14_3 C 0.3970(2) 0.1030(2) 0.2589(3)
C15_3 C 0.3863(3) 0.1137(3) 0.2286(3)
C16_3 C 0.3765(3) 0.1235(3) 0.2049(4)
C17_3 C 0.3622(4) 0.1378(4) 0.1781(4)
C18_3 C 0.3763(5) 0.1640(4) 0.1640(4)
N2_3 N 0.4038(9) 0.1729(6) 0.1729(6)
H6_3 H 0.4133 0.1633 0.1891
O7_3 O 0.15690(12) 0.11224(11) 0.03183(12)
O8_3 O 0.19426(11) 0.14888(11) 0.03198(11)
C19_3 C 0.18269(16) 0.12362(17) 0.04202(16)
C20_3 C 0.1847(3) 0.08227(17) 0.08227(17)
H7_3 H 0.1654 0.0744 0.0744
C21_3 C 0.19802(17) 0.10751(18) 0.06793(18)
C22_3 C 0.2266(2) 0.1185(2) 0.07855(19)
H8_3 H 0.2360 0.1364 0.0693
C23_3 C 0.2411(3) 0.1030(2) 0.1030(2)
C24_3 C 0.2714(3) 0.1137(3) 0.1137(3)
C25_3 C 0.2951(4) 0.1235(3) 0.1235(3)
C26_3 C 0.3219(4) 0.1378(4) 0.1378(4)
C27_3 C 0.3360(4) 0.1237(5) 0.1640(4)
N3_3 N 0.3271(6) 0.0962(9) 0.1729(6)
H9_3 H 0.3109 0.0867 0.1633
O9_3 O 0.15690(12) 0.03183(12) 0.11224(11)
O10_3 O 0.19426(11) 0.03198(11) 0.14888(11)
C28_3 C 0.18269(16) 0.04202(16) 0.12362(17)
C29_3 C 0.19802(17) 0.06793(18) 0.10751(18)
C30_3 C 0.2266(2) 0.07855(19) 0.1185(2)
H10_3 H 0.2360 0.0693 0.1364
H11_3 H 0.3109 0.1633 0.0867
O11_3 O 0.38776(11) 0.34310(12) 0.03183(12)
O12_3 O 0.35112(11) 0.30574(11) 0.03198(11)
C31_3 C 0.37638(17) 0.31731(16) 0.04202(16)
C32_3 C 0.39249(18) 0.30198(17) 0.06793(18)
C33_3 C 0.3815(2) 0.2734(2) 0.07855(19)
H12_3 H 0.3636 0.2640 0.0693
H13_3 H 0.4133 0.1891 0.1633
O13_3 O 0.46817(12) 0.11224(11) 0.34310(12)
O14_3 O 0.46802(11) 0.14888(11) 0.30574(11)
C34_3 C 0.45798(16) 0.12362(17) 0.31731(16)
C35_3 C 0.43207(18) 0.10751(18) 0.30198(17)
C36_3 C 0.42145(19) 0.1185(2) 0.2734(2)
H14_3 H 0.4307 0.1364 0.2640
H15_3 H 0.3367 0.0867 0.1891
Cu3_3 Cu 0.5000 0.13127(3) 0.36873(3)
Cu4_3 Cu 0.5000 0.17504(3) 0.32496(3)
O15_3 O 0.5000 0.09587(18) 0.40413(18)
O16_3 O 0.53183(12) 0.11224(11) 0.34310(12)
O17_3 O 0.5000 0.21120(16) 0.28880(16)
O18_3 O 0.53198(11) 0.14888(11) 0.30574(11)
C37_3 C 0.54202(16) 0.12362(17) 0.31731(16)
C38_3 C 0.58227(17) 0.08227(17) 0.3153(3)
H16_3 H 0.5744 0.0744 0.3346
C39_3 C 0.56793(18) 0.10751(18) 0.30198(17)
C40_3 C 0.57855(19) 0.1185(2) 0.2734(2)
H17_3 H 0.5693 0.1364 0.2640
C41_3 C 0.6030(2) 0.1030(2) 0.2589(3)
C42_3 C 0.6137(3) 0.1137(3) 0.2286(3)
C43_3 C 0.6235(3) 0.1235(3) 0.2049(4)
C44_3 C 0.6378(4) 0.1378(4) 0.1781(4)
C45_3 C 0.6640(4) 0.1237(5) 0.1640(4)
N4_3 N 0.6729(6) 0.0962(9) 0.1729(6)
H18_3 H 0.6633 0.0867 0.1891
O19_3 O 0.61224(11) 0.34310(12) 0.03183(12)
O20_3 O 0.64888(11) 0.30574(11) 0.03198(11)
C46_3 C 0.62362(17) 0.31731(16) 0.04202(16)
C47_3 C 0.58227(17) 0.3153(3) 0.08227(17)
H19_3 H 0.5744 0.3346 0.0744
C48_3 C 0.60751(18) 0.30198(17) 0.06793(18)
C49_3 C 0.6185(2) 0.2734(2) 0.07855(19)
H20_3 H 0.6364 0.2640 0.0693
C50_3 C 0.6030(2) 0.2589(3) 0.1030(2)
C51_3 C 0.6137(3) 0.2286(3) 0.1137(3)
C52_3 C 0.6235(3) 0.2049(4) 0.1235(3)
C53_3 C 0.6378(4) 0.1781(4) 0.1378(4)
C54_3 C 0.6237(5) 0.1640(4) 0.1640(4)
N5_3 N 0.5962(9) 0.1729(6) 0.1729(6)
H21_3 H 0.5867 0.1891 0.1633
O21_3 O 0.84310(12) 0.03183(12) 0.11224(11)
O22_3 O 0.80574(11) 0.03198(11) 0.14888(11)
C55_3 C 0.81731(16) 0.04202(16) 0.12362(17)
C56_3 C 0.8153(3) 0.08227(17) 0.08227(17)
H22_3 H 0.8346 0.0744 0.0744
C57_3 C 0.80198(17) 0.06793(18) 0.10751(18)
C58_3 C 0.7734(2) 0.07855(19) 0.1185(2)
H23_3 H 0.7640 0.0693 0.1364
C59_3 C 0.7589(3) 0.1030(2) 0.1030(2)
C60_3 C 0.7286(3) 0.1137(3) 0.1137(3)
C61_3 C 0.7049(4) 0.1235(3) 0.1235(3)
C62_3 C 0.6781(4) 0.1378(4) 0.1378(4)
C63_3 C 0.6640(4) 0.1640(4) 0.1237(5)
N6_3 N 0.6729(6) 0.1729(6) 0.0962(9)
H24_3 H 0.6891 0.1633 0.0867
O23_3 O 0.84310(12) 0.11224(11) 0.03183(12)
O24_3 O 0.80574(11) 0.14888(11) 0.03198(11)
C64_3 C 0.81731(16) 0.12362(17) 0.04202(16)
C65_3 C 0.80198(17) 0.10751(18) 0.06793(18)
C66_3 C 0.7734(2) 0.1185(2) 0.07855(19)
H25_3 H 0.7640 0.1364 0.0693
H26_3 H 0.6891 0.0867 0.1633
O25_3 O 0.61224(11) 0.03183(12) 0.34310(12)
O26_3 O 0.64888(11) 0.03198(11) 0.30574(11)
C67_3 C 0.62362(17) 0.04202(16) 0.31731(16)
C68_3 C 0.60751(18) 0.06793(18) 0.30198(17)
C69_3 C 0.6185(2) 0.07855(19) 0.2734(2)
H27_3 H 0.6364 0.0693 0.2640
H28_3 H 0.5867 0.1633 0.1891
O27_3 O 0.53183(12) 0.34310(12) 0.11224(11)
O28_3 O 0.53198(11) 0.30574(11) 0.14888(11)
C70_3 C 0.54202(16) 0.31731(16) 0.12362(17)
C71_3 C 0.56793(18) 0.30198(17) 0.10751(18)
C72_3 C 0.57855(19) 0.2734(2) 0.1185(2)
H29_3 H 0.5693 0.2640 0.1364
H30_3 H 0.6633 0.1891 0.0867
Cu5_5 Cu 0.86873(3) -0.0000 0.13127(3)
Cu6_5 Cu 0.82496(3) -0.0000 0.17504(3)
O29_5 O 0.90413(18) -0.0000 0.09587(18)
O30_5 O 0.78880(16) 0.0000 0.21120(16)
Cu7_5 Cu 0.63127(3) -0.0000 0.36873(3)
Cu11_5 Cu 0.86873(3) 0.13127(3) 0.0000
Cu13_5 Cu 0.63127(3) 0.36873(3) -0.0000
Cu14_5 Cu 0.67504(3) 0.0000 0.32496(3)
Cu18_5 Cu 0.82496(3) 0.17504(3) -0.0000
Cu20_5 Cu 0.67504(3) 0.32496(3) 0.0000
O31_3 O 0.46817(12) 0.15690(12) 0.38776(11)
O33_3 O 0.53183(12) 0.38776(11) 0.15690(12)
O34_3 O 0.53183(12) 0.15690(12) 0.38776(11)
O35_3 O 0.88776(11) 0.03183(12) 0.15690(12)
O36_3 O 0.46817(12) 0.38776(11) 0.15690(12)
O38_3 O 0.46802(11) 0.19426(11) 0.35112(11)
O40_3 O 0.53198(11) 0.35112(11) 0.19426(11)
O41_3 O 0.53198(11) 0.19426(11) 0.35112(11)
O42_3 O 0.85112(11) 0.03198(11) 0.19426(11)
O43_3 O 0.46802(11) 0.35112(11) 0.19426(11)
Cu11_6 Cu 0.86873(3) 0.13127(3) 1.0000
Cu13_6 Cu 0.63127(3) 0.36873(3) 1.0000
Cu18_6 Cu 0.82496(3) 0.17504(3) 1.0000
Cu20_6 Cu 0.67504(3) 0.32496(3) 1.0000
Cu5_6 Cu 0.86873(3) 1.0000 0.13127(3)
Cu6_6 Cu 0.82496(3) 1.0000 0.17504(3)
O29_6 O 0.90413(18) 1.0000 0.09587(18)
O30_6 O 0.78880(16) 1.0000 0.21120(16)
Cu7_6 Cu 0.63127(3) 1.0000 0.36873(3)
Cu14_6 Cu 0.67504(3) 1.0000 0.32496(3)
O32_3 O 0.88776(11) 0.96817(12) 0.15690(12)
O37_3 O 0.84310(12) 0.96817(12) 0.11224(11)
O39_3 O 0.85112(11) 0.96802(11) 0.19426(11)
O44_3 O 0.80574(11) 0.96802(11) 0.14888(11)
O29_7 O 0.90413(18) 0.09587(18) 0.0000
O30_7 O 0.78880(16) 0.21120(16) 0.0000
O32_4 O 0.88776(11) 0.15690(12) 0.03183(12)
O39_4 O 0.85112(11) 0.19426(11) 0.03198(11)
Cu1_4 Cu 0.5000 0.13127(3) 0.63127(3)
Cu2_4 Cu 0.5000 0.17504(3) 0.67504(3)
O1_4 O 0.5000 0.09587(18) 0.59587(18)
O2_4 O 0.46817(12) 0.11224(11) 0.65690(12)
O3_4 O 0.5000 0.21120(16) 0.71120(16)
O4_4 O 0.46802(11) 0.14888(11) 0.69426(11)
C1_4 C 0.45798(16) 0.12362(17) 0.68269(16)
C2_4 C 0.41773(17) 0.08227(17) 0.6847(3)
H1_4 H 0.4256 0.0744 0.6654
C3_4 C 0.43207(18) 0.10751(18) 0.69802(17)
C4_4 C 0.42145(19) 0.1185(2) 0.7266(2)
H2_4 H 0.4307 0.1364 0.7360
C5_4 C 0.3970(2) 0.1030(2) 0.7411(3)
C6_4 C 0.3863(3) 0.1137(3) 0.7714(3)
C7_4 C 0.3765(3) 0.1235(3) 0.7951(4)
C8_4 C 0.3622(4) 0.1378(4) 0.8219(4)
C9_4 C 0.3360(4) 0.1237(5) 0.8360(4)
N1_4 N 0.3271(6) 0.0962(9) 0.8271(6)
H3_4 H 0.3367 0.0867 0.8109
O5_4 O 0.38776(11) 0.34310(12) 0.96817(12)
O6_4 O 0.35112(11) 0.30574(11) 0.96802(11)
C10_4 C 0.37638(17) 0.31731(16) 0.95798(16)
C11_4 C 0.41773(17) 0.3153(3) 0.91773(17)
H4_4 H 0.4256 0.3346 0.9256
C12_4 C 0.39249(18) 0.30198(17) 0.93207(18)
C13_4 C 0.3815(2) 0.2734(2) 0.92145(19)
H5_4 H 0.3636 0.2640 0.9307
C14_4 C 0.3970(2) 0.2589(3) 0.8970(2)
C15_4 C 0.3863(3) 0.2286(3) 0.8863(3)
C16_4 C 0.3765(3) 0.2049(4) 0.8765(3)
C17_4 C 0.3622(4) 0.1781(4) 0.8622(4)
C18_4 C 0.3763(5) 0.1640(4) 0.8360(4)
N2_4 N 0.4038(9) 0.1729(6) 0.8271(6)
H6_4 H 0.4133 0.1891 0.8367
O7_4 O 0.15690(12) 0.03183(12) 0.88776(11)
O8_4 O 0.19426(11) 0.03198(11) 0.85112(11)
C19_4 C 0.18269(16) 0.04202(16) 0.87638(17)
C20_4 C 0.1847(3) 0.08227(17) 0.91773(17)
H7_4 H 0.1654 0.0744 0.9256
C21_4 C 0.19802(17) 0.06793(18) 0.89249(18)
C22_4 C 0.2266(2) 0.07855(19) 0.8815(2)
H8_4 H 0.2360 0.0693 0.8636
C23_4 C 0.2411(3) 0.1030(2) 0.8970(2)
C24_4 C 0.2714(3) 0.1137(3) 0.8863(3)
C25_4 C 0.2951(4) 0.1235(3) 0.8765(3)
C26_4 C 0.3219(4) 0.1378(4) 0.8622(4)
C27_4 C 0.3360(4) 0.1640(4) 0.8763(5)
N3_4 N 0.3271(6) 0.1729(6) 0.9038(9)
H9_4 H 0.3109 0.1633 0.9133
O9_4 O 0.15690(12) 0.11224(11) 0.96817(12)
O10_4 O 0.19426(11) 0.14888(11) 0.96802(11)
C28_4 C 0.18269(16) 0.12362(17) 0.95798(16)
C29_4 C 0.19802(17) 0.10751(18) 0.93207(18)
C30_4 C 0.2266(2) 0.1185(2) 0.92145(19)
H10_4 H 0.2360 0.1364 0.9307
H11_4 H 0.3109 0.0867 0.8367
O11_4 O 0.38776(11) 0.03183(12) 0.65690(12)
O12_4 O 0.35112(11) 0.03198(11) 0.69426(11)
C31_4 C 0.37638(17) 0.04202(16) 0.68269(16)
C32_4 C 0.39249(18) 0.06793(18) 0.69802(17)
C33_4 C 0.3815(2) 0.07855(19) 0.7266(2)
H12_4 H 0.3636 0.0693 0.7360
H13_4 H 0.4133 0.1633 0.8109
O13_4 O 0.46817(12) 0.34310(12) 0.88776(11)
O14_4 O 0.46802(11) 0.30574(11) 0.85112(11)
C34_4 C 0.45798(16) 0.31731(16) 0.87638(17)
C35_4 C 0.43207(18) 0.30198(17) 0.89249(18)
C36_4 C 0.42145(19) 0.2734(2) 0.8815(2)
H14_4 H 0.4307 0.2640 0.8636
H15_4 H 0.3367 0.1891 0.9133
Cu3_4 Cu 0.5000 0.36873(3) 0.86873(3)
Cu4_4 Cu 0.5000 0.32496(3) 0.82496(3)
O15_4 O 0.5000 0.40413(18) 0.90413(18)
O16_4 O 0.53183(12) 0.34310(12) 0.88776(11)
O17_4 O 0.5000 0.28880(16) 0.78880(16)
O18_4 O 0.53198(11) 0.30574(11) 0.85112(11)
C37_4 C 0.54202(16) 0.31731(16) 0.87638(17)
C38_4 C 0.58227(17) 0.3153(3) 0.91773(17)
H16_4 H 0.5744 0.3346 0.9256
C39_4 C 0.56793(18) 0.30198(17) 0.89249(18)
C40_4 C 0.57855(19) 0.2734(2) 0.8815(2)
H17_4 H 0.5693 0.2640 0.8636
C41_4 C 0.6030(2) 0.2589(3) 0.8970(2)
C42_4 C 0.6137(3) 0.2286(3) 0.8863(3)
C43_4 C 0.6235(3) 0.2049(4) 0.8765(3)
C44_4 C 0.6378(4) 0.1781(4) 0.8622(4)
C45_4 C 0.6640(4) 0.1640(4) 0.8763(5)
N4_4 N 0.6729(6) 0.1729(6) 0.9038(9)
H18_4 H 0.6633 0.1891 0.9133
O19_4 O 0.61224(11) 0.03183(12) 0.65690(12)
O20_4 O 0.64888(11) 0.03198(11) 0.69426(11)
C46_4 C 0.62362(17) 0.04202(16) 0.68269(16)
C47_4 C 0.58227(17) 0.08227(17) 0.6847(3)
H19_4 H 0.5744 0.0744 0.6654
C48_4 C 0.60751(18) 0.06793(18) 0.69802(17)
C49_4 C 0.6185(2) 0.07855(19) 0.7266(2)
H20_4 H 0.6364 0.0693 0.7360
C50_4 C 0.6030(2) 0.1030(2) 0.7411(3)
C51_4 C 0.6137(3) 0.1137(3) 0.7714(3)
C52_4 C 0.6235(3) 0.1235(3) 0.7951(4)
C53_4 C 0.6378(4) 0.1378(4) 0.8219(4)
C54_4 C 0.6237(5) 0.1640(4) 0.8360(4)
N5_4 N 0.5962(9) 0.1729(6) 0.8271(6)
H21_4 H 0.5867 0.1633 0.8109
O21_4 O 0.84310(12) 0.11224(11) 0.96817(12)
O22_4 O 0.80574(11) 0.14888(11) 0.96802(11)
C55_4 C 0.81731(16) 0.12362(17) 0.95798(16)
C56_4 C 0.8153(3) 0.08227(17) 0.91773(17)
H22_4 H 0.8346 0.0744 0.9256
C57_4 C 0.80198(17) 0.10751(18) 0.93207(18)
C58_4 C 0.7734(2) 0.1185(2) 0.92145(19)
H23_4 H 0.7640 0.1364 0.9307
C59_4 C 0.7589(3) 0.1030(2) 0.8970(2)
C60_4 C 0.7286(3) 0.1137(3) 0.8863(3)
C61_4 C 0.7049(4) 0.1235(3) 0.8765(3)
C62_4 C 0.6781(4) 0.1378(4) 0.8622(4)
C63_4 C 0.6640(4) 0.1237(5) 0.8360(4)
N6_4 N 0.6729(6) 0.0962(9) 0.8271(6)
H24_4 H 0.6891 0.0867 0.8367
O23_4 O 0.84310(12) 0.03183(12) 0.88776(11)
O24_4 O 0.80574(11) 0.03198(11) 0.85112(11)
C64_4 C 0.81731(16) 0.04202(16) 0.87638(17)
C65_4 C 0.80198(17) 0.06793(18) 0.89249(18)
C66_4 C 0.7734(2) 0.07855(19) 0.8815(2)
H25_4 H 0.7640 0.0693 0.8636
H26_4 H 0.6891 0.1633 0.9133
O25_4 O 0.61224(11) 0.34310(12) 0.96817(12)
O26_4 O 0.64888(11) 0.30574(11) 0.96802(11)
C67_4 C 0.62362(17) 0.31731(16) 0.95798(16)
C68_4 C 0.60751(18) 0.30198(17) 0.93207(18)
C69_4 C 0.6185(2) 0.2734(2) 0.92145(19)
H27_4 H 0.6364 0.2640 0.9307
H28_4 H 0.5867 0.1891 0.8367
O27_4 O 0.53183(12) 0.11224(11) 0.65690(12)
O28_4 O 0.53198(11) 0.14888(11) 0.69426(11)
C70_4 C 0.54202(16) 0.12362(17) 0.68269(16)
C71_4 C 0.56793(18) 0.10751(18) 0.69802(17)
C72_4 C 0.57855(19) 0.1185(2) 0.7266(2)
H29_4 H 0.5693 0.1364 0.7360
H30_4 H 0.6633 0.0867 0.8109
O29_8 O 0.90413(18) 0.09587(18) 1.0000
O30_8 O 0.78880(16) 0.21120(16) 1.0000
Cu11_7 Cu 0.86873(3) 0.0000 0.86873(3)
Cu13_7 Cu 0.63127(3) -0.0000 0.63127(3)
Cu18_7 Cu 0.82496(3) -0.0000 0.82496(3)
Cu20_7 Cu 0.67504(3) -0.0000 0.67504(3)
O31_4 O 0.46817(12) 0.38776(11) 0.84310(12)
O33_4 O 0.53183(12) 0.15690(12) 0.61224(11)
O34_4 O 0.53183(12) 0.38776(11) 0.84310(12)
O35_4 O 0.88776(11) 0.15690(12) 0.96817(12)
O36_4 O 0.46817(12) 0.15690(12) 0.61224(11)
O38_4 O 0.46802(11) 0.35112(11) 0.80574(11)
O40_4 O 0.53198(11) 0.19426(11) 0.64888(11)
O41_4 O 0.53198(11) 0.35112(11) 0.80574(11)
O42_4 O 0.85112(11) 0.19426(11) 0.96802(11)
O43_4 O 0.46802(11) 0.19426(11) 0.64888(11)
Cu11_8 Cu 0.86873(3) 1.0000 0.86873(3)
Cu13_8 Cu 0.63127(3) 1.0000 0.63127(3)
Cu18_8 Cu 0.82496(3) 1.0000 0.82496(3)
Cu20_8 Cu 0.67504(3) 1.0000 0.67504(3)
Cu1_5 Cu 0.5000 0.86873(3) 0.36873(3)
Cu2_5 Cu 0.5000 0.82496(3) 0.32496(3)
O1_5 O 0.5000 0.90413(18) 0.40413(18)
O2_5 O 0.46817(12) 0.88776(11) 0.34310(12)
O3_5 O 0.5000 0.78880(16) 0.28880(16)
O4_5 O 0.46802(11) 0.85112(11) 0.30574(11)
C1_5 C 0.45798(16) 0.87638(17) 0.31731(16)
C2_5 C 0.41773(17) 0.91773(17) 0.3153(3)
H1_5 H 0.4256 0.9256 0.3346
C3_5 C 0.43207(18) 0.89249(18) 0.30198(17)
C4_5 C 0.42145(19) 0.8815(2) 0.2734(2)
H2_5 H 0.4307 0.8636 0.2640
C5_5 C 0.3970(2) 0.8970(2) 0.2589(3)
C6_5 C 0.3863(3) 0.8863(3) 0.2286(3)
C7_5 C 0.3765(3) 0.8765(3) 0.2049(4)
C8_5 C 0.3622(4) 0.8622(4) 0.1781(4)
C9_5 C 0.3360(4) 0.8763(5) 0.1640(4)
N1_5 N 0.3271(6) 0.9038(9) 0.1729(6)
H3_5 H 0.3367 0.9133 0.1891
O5_5 O 0.38776(11) 0.65690(12) 0.03183(12)
O6_5 O 0.35112(11) 0.69426(11) 0.03198(11)
C10_5 C 0.37638(17) 0.68269(16) 0.04202(16)
C11_5 C 0.41773(17) 0.6847(3) 0.08227(17)
H4_5 H 0.4256 0.6654 0.0744
C12_5 C 0.39249(18) 0.69802(17) 0.06793(18)
C13_5 C 0.3815(2) 0.7266(2) 0.07855(19)
H5_5 H 0.3636 0.7360 0.0693
C14_5 C 0.3970(2) 0.7411(3) 0.1030(2)
C15_5 C 0.3863(3) 0.7714(3) 0.1137(3)
C16_5 C 0.3765(3) 0.7951(4) 0.1235(3)
C17_5 C 0.3622(4) 0.8219(4) 0.1378(4)
C18_5 C 0.3763(5) 0.8360(4) 0.1640(4)
N2_5 N 0.4038(9) 0.8271(6) 0.1729(6)
H6_5 H 0.4133 0.8109 0.1633
O7_5 O 0.15690(12) 0.96817(12) 0.11224(11)
O8_5 O 0.19426(11) 0.96802(11) 0.14888(11)
C19_5 C 0.18269(16) 0.95798(16) 0.12362(17)
C20_5 C 0.1847(3) 0.91773(17) 0.08227(17)
H7_5 H 0.1654 0.9256 0.0744
C21_5 C 0.19802(17) 0.93207(18) 0.10751(18)
C22_5 C 0.2266(2) 0.92145(19) 0.1185(2)
H8_5 H 0.2360 0.9307 0.1364
C23_5 C 0.2411(3) 0.8970(2) 0.1030(2)
C24_5 C 0.2714(3) 0.8863(3) 0.1137(3)
C25_5 C 0.2951(4) 0.8765(3) 0.1235(3)
C26_5 C 0.3219(4) 0.8622(4) 0.1378(4)
C27_5 C 0.3360(4) 0.8360(4) 0.1237(5)
N3_5 N 0.3271(6) 0.8271(6) 0.0962(9)
H9_5 H 0.3109 0.8367 0.0867
C28_5 C 0.18269(16) 0.87638(17) 0.04202(16)
C29_5 C 0.19802(17) 0.89249(18) 0.06793(18)
C30_5 C 0.2266(2) 0.8815(2) 0.07855(19)
H10_5 H 0.2360 0.8636 0.0693
H11_5 H 0.3109 0.9133 0.1633
O11_5 O 0.38776(11) 0.96817(12) 0.34310(12)
O12_5 O 0.35112(11) 0.96802(11) 0.30574(11)
C31_5 C 0.37638(17) 0.95798(16) 0.31731(16)
C32_5 C 0.39249(18) 0.93207(18) 0.30198(17)
C33_5 C 0.3815(2) 0.92145(19) 0.2734(2)
H12_5 H 0.3636 0.9307 0.2640
H13_5 H 0.4133 0.8367 0.1891
O13_5 O 0.46817(12) 0.65690(12) 0.11224(11)
O14_5 O 0.46802(11) 0.69426(11) 0.14888(11)
C34_5 C 0.45798(16) 0.68269(16) 0.12362(17)
C35_5 C 0.43207(18) 0.69802(17) 0.10751(18)
C36_5 C 0.42145(19) 0.7266(2) 0.1185(2)
H14_5 H 0.4307 0.7360 0.1364
H15_5 H 0.3367 0.8109 0.0867
Cu3_5 Cu 0.5000 0.63127(3) 0.13127(3)
Cu4_5 Cu 0.5000 0.67504(3) 0.17504(3)
O15_5 O 0.5000 0.59587(18) 0.09587(18)
O16_5 O 0.53183(12) 0.65690(12) 0.11224(11)
O17_5 O 0.5000 0.71120(16) 0.21120(16)
O18_5 O 0.53198(11) 0.69426(11) 0.14888(11)
C37_5 C 0.54202(16) 0.68269(16) 0.12362(17)
C38_5 C 0.58227(17) 0.6847(3) 0.08227(17)
H16_5 H 0.5744 0.6654 0.0744
C39_5 C 0.56793(18) 0.69802(17) 0.10751(18)
C40_5 C 0.57855(19) 0.7266(2) 0.1185(2)
H17_5 H 0.5693 0.7360 0.1364
C41_5 C 0.6030(2) 0.7411(3) 0.1030(2)
C42_5 C 0.6137(3) 0.7714(3) 0.1137(3)
C43_5 C 0.6235(3) 0.7951(4) 0.1235(3)
C44_5 C 0.6378(4) 0.8219(4) 0.1378(4)
C45_5 C 0.6640(4) 0.8360(4) 0.1237(5)
N4_5 N 0.6729(6) 0.8271(6) 0.0962(9)
H18_5 H 0.6633 0.8109 0.0867
O19_5 O 0.61224(11) 0.96817(12) 0.34310(12)
O20_5 O 0.64888(11) 0.96802(11) 0.30574(11)
C46_5 C 0.62362(17) 0.95798(16) 0.31731(16)
C47_5 C 0.58227(17) 0.91773(17) 0.3153(3)
H19_5 H 0.5744 0.9256 0.3346
C48_5 C 0.60751(18) 0.93207(18) 0.30198(17)
C49_5 C 0.6185(2) 0.92145(19) 0.2734(2)
H20_5 H 0.6364 0.9307 0.2640
C50_5 C 0.6030(2) 0.8970(2) 0.2589(3)
C51_5 C 0.6137(3) 0.8863(3) 0.2286(3)
C52_5 C 0.6235(3) 0.8765(3) 0.2049(4)
C53_5 C 0.6378(4) 0.8622(4) 0.1781(4)
C54_5 C 0.6237(5) 0.8360(4) 0.1640(4)
N5_5 N 0.5962(9) 0.8271(6) 0.1729(6)
H21_5 H 0.5867 0.8367 0.1891
O21_5 O 0.84310(12) 0.88776(11) 0.03183(12)
O22_5 O 0.80574(11) 0.85112(11) 0.03198(11)
C55_5 C 0.81731(16) 0.87638(17) 0.04202(16)
C56_5 C 0.8153(3) 0.91773(17) 0.08227(17)
H22_5 H 0.8346 0.9256 0.0744
C57_5 C 0.80198(17) 0.89249(18) 0.06793(18)
C58_5 C 0.7734(2) 0.8815(2) 0.07855(19)
H23_5 H 0.7640 0.8636 0.0693
C59_5 C 0.7589(3) 0.8970(2) 0.1030(2)
C60_5 C 0.7286(3) 0.8863(3) 0.1137(3)
C61_5 C 0.7049(4) 0.8765(3) 0.1235(3)
C62_5 C 0.6781(4) 0.8622(4) 0.1378(4)
C63_5 C 0.6640(4) 0.8763(5) 0.1640(4)
N6_5 N 0.6729(6) 0.9038(9) 0.1729(6)
H24_5 H 0.6891 0.9133 0.1633
C64_5 C 0.81731(16) 0.95798(16) 0.12362(17)
C65_5 C 0.80198(17) 0.93207(18) 0.10751(18)
C66_5 C 0.7734(2) 0.92145(19) 0.1185(2)
H25_5 H 0.7640 0.9307 0.1364
H26_5 H 0.6891 0.8367 0.0867
O25_5 O 0.61224(11) 0.65690(12) 0.03183(12)
O26_5 O 0.64888(11) 0.69426(11) 0.03198(11)
C67_5 C 0.62362(17) 0.68269(16) 0.04202(16)
C68_5 C 0.60751(18) 0.69802(17) 0.06793(18)
C69_5 C 0.6185(2) 0.7266(2) 0.07855(19)
H27_5 H 0.6364 0.7360 0.0693
H28_5 H 0.5867 0.8109 0.1633
O27_5 O 0.53183(12) 0.88776(11) 0.34310(12)
O28_5 O 0.53198(11) 0.85112(11) 0.30574(11)
C70_5 C 0.54202(16) 0.87638(17) 0.31731(16)
C71_5 C 0.56793(18) 0.89249(18) 0.30198(17)
C72_5 C 0.57855(19) 0.8815(2) 0.2734(2)
H29_5 H 0.5693 0.8636 0.2640
H30_5 H 0.6633 0.9133 0.1891
Cu5_7 Cu 0.86873(3) 0.86873(3) 0.0000
Cu6_7 Cu 0.82496(3) 0.82496(3) 0.0000
O29_9 O 0.90413(18) 0.90413(18) 0.0000
O30_9 O 0.78880(16) 0.78880(16) 0.0000
Cu7_7 Cu 0.63127(3) 0.63127(3) 0.0000
Cu14_7 Cu 0.67504(3) 0.67504(3) 0.0000
O31_5 O 0.46817(12) 0.61224(11) 0.15690(12)
O33_5 O 0.53183(12) 0.84310(12) 0.38776(11)
O34_5 O 0.53183(12) 0.61224(11) 0.15690(12)
O35_5 O 0.88776(11) 0.84310(12) 0.03183(12)
O36_5 O 0.46817(12) 0.84310(12) 0.38776(11)
O38_5 O 0.46802(11) 0.64888(11) 0.19426(11)
O40_5 O 0.53198(11) 0.80574(11) 0.35112(11)
O41_5 O 0.53198(11) 0.64888(11) 0.19426(11)
O42_5 O 0.85112(11) 0.80574(11) 0.03198(11)
O43_5 O 0.46802(11) 0.80574(11) 0.35112(11)
Cu5_8 Cu 0.86873(3) 0.86873(3) 1.0000
Cu6_8 Cu 0.82496(3) 0.82496(3) 1.0000
O29_10 O 0.90413(18) 0.90413(18) 1.0000
O30_10 O 0.78880(16) 0.78880(16) 1.0000
Cu7_8 Cu 0.63127(3) 0.63127(3) 1.0000
Cu14_8 Cu 0.67504(3) 0.67504(3) 1.0000
O32_5 O 0.88776(11) 0.84310(12) 0.96817(12)
O37_4 O 0.84310(12) 0.88776(11) 0.96817(12)
O39_5 O 0.85112(11) 0.80574(11) 0.96802(11)
O44_4 O 0.80574(11) 0.85112(11) 0.96802(11)
O29_11 O 0.09587(18) 0.09587(18) 0.0000
O30_11 O 0.21120(16) 0.21120(16) 0.0000
O29_12 O 0.09587(18) 0.09587(18) 1.0000
O30_12 O 0.21120(16) 0.21120(16) 1.0000
O32_6 O 0.11224(11) 0.15690(12) 0.96817(12)
O39_6 O 0.14888(11) 0.19426(11) 0.96802(11)
O29_13 O 0.09587(18) 0.0000 0.09587(18)
O30_13 O 0.21120(16) -0.0000 0.21120(16)
O29_14 O 0.09587(18) 1.0000 0.09587(18)
O30_14 O 0.21120(16) 1.0000 0.21120(16)
O37_5 O 0.11224(11) 0.96817(12) 0.15690(12)
O44_5 O 0.14888(11) 0.96802(11) 0.19426(11)
Cu1_6 Cu 0.86873(3) 0.36873(3) 0.5000
Cu2_6 Cu 0.82496(3) 0.32496(3) 0.5000
O1_6 O 0.90413(18) 0.40413(18) 0.5000
O2_6 O 0.88776(11) 0.34310(12) 0.46817(12)
O3_6 O 0.78880(16) 0.28880(16) 0.5000
O4_6 O 0.85112(11) 0.30574(11) 0.46802(11)
C1_6 C 0.87638(17) 0.31731(16) 0.45798(16)
C2_6 C 0.91773(17) 0.3153(3) 0.41773(17)
H1_6 H 0.9256 0.3346 0.4256
C3_6 C 0.89249(18) 0.30198(17) 0.43207(18)
C4_6 C 0.8815(2) 0.2734(2) 0.42145(19)
H2_6 H 0.8636 0.2640 0.4307
C5_6 C 0.8970(2) 0.2589(3) 0.3970(2)
C6_6 C 0.8863(3) 0.2286(3) 0.3863(3)
C7_6 C 0.8765(3) 0.2049(4) 0.3765(3)
C8_6 C 0.8622(4) 0.1781(4) 0.3622(4)
C9_6 C 0.8763(5) 0.1640(4) 0.3360(4)
N1_6 N 0.9038(9) 0.1729(6) 0.3271(6)
H3_6 H 0.9133 0.1891 0.3367
O5_6 O 0.65690(12) 0.03183(12) 0.38776(11)
O6_6 O 0.69426(11) 0.03198(11) 0.35112(11)
C10_6 C 0.68269(16) 0.04202(16) 0.37638(17)
C11_6 C 0.6847(3) 0.08227(17) 0.41773(17)
H4_6 H 0.6654 0.0744 0.4256
C12_6 C 0.69802(17) 0.06793(18) 0.39249(18)
C13_6 C 0.7266(2) 0.07855(19) 0.3815(2)
H5_6 H 0.7360 0.0693 0.3636
C14_6 C 0.7411(3) 0.1030(2) 0.3970(2)
C15_6 C 0.7714(3) 0.1137(3) 0.3863(3)
C16_6 C 0.7951(4) 0.1235(3) 0.3765(3)
C17_6 C 0.8219(4) 0.1378(4) 0.3622(4)
C18_6 C 0.8360(4) 0.1640(4) 0.3763(5)
N2_6 N 0.8271(6) 0.1729(6) 0.4038(9)
H6_6 H 0.8109 0.1633 0.4133
O7_6 O 0.96817(12) 0.11224(11) 0.15690(12)
O8_6 O 0.96802(11) 0.14888(11) 0.19426(11)
C19_6 C 0.95798(16) 0.12362(17) 0.18269(16)
C20_6 C 0.91773(17) 0.08227(17) 0.1847(3)
H7_6 H 0.9256 0.0744 0.1654
C21_6 C 0.93207(18) 0.10751(18) 0.19802(17)
C22_6 C 0.92145(19) 0.1185(2) 0.2266(2)
H8_6 H 0.9307 0.1364 0.2360
C23_6 C 0.8970(2) 0.1030(2) 0.2411(3)
C24_6 C 0.8863(3) 0.1137(3) 0.2714(3)
C25_6 C 0.8765(3) 0.1235(3) 0.2951(4)
C26_6 C 0.8622(4) 0.1378(4) 0.3219(4)
C27_6 C 0.8360(4) 0.1237(5) 0.3360(4)
N3_6 N 0.8271(6) 0.0962(9) 0.3271(6)
H9_6 H 0.8367 0.0867 0.3109
C28_6 C 0.87638(17) 0.04202(16) 0.18269(16)
C29_6 C 0.89249(18) 0.06793(18) 0.19802(17)
C30_6 C 0.8815(2) 0.07855(19) 0.2266(2)
H10_6 H 0.8636 0.0693 0.2360
H11_6 H 0.9133 0.1633 0.3109
O11_6 O 0.96817(12) 0.34310(12) 0.38776(11)
O12_6 O 0.96802(11) 0.30574(11) 0.35112(11)
C31_6 C 0.95798(16) 0.31731(16) 0.37638(17)
C32_6 C 0.93207(18) 0.30198(17) 0.39249(18)
C33_6 C 0.92145(19) 0.2734(2) 0.3815(2)
H12_6 H 0.9307 0.2640 0.3636
H13_6 H 0.8367 0.1891 0.4133
O13_6 O 0.65690(12) 0.11224(11) 0.46817(12)
O14_6 O 0.69426(11) 0.14888(11) 0.46802(11)
C34_6 C 0.68269(16) 0.12362(17) 0.45798(16)
C35_6 C 0.69802(17) 0.10751(18) 0.43207(18)
C36_6 C 0.7266(2) 0.1185(2) 0.42145(19)
H14_6 H 0.7360 0.1364 0.4307
H15_6 H 0.8109 0.0867 0.3367
Cu3_6 Cu 0.63127(3) 0.13127(3) 0.5000
Cu4_6 Cu 0.67504(3) 0.17504(3) 0.5000
O15_6 O 0.59587(18) 0.09587(18) 0.5000
O16_6 O 0.65690(12) 0.11224(11) 0.53183(12)
O17_6 O 0.71120(16) 0.21120(16) 0.5000
O18_6 O 0.69426(11) 0.14888(11) 0.53198(11)
C37_6 C 0.68269(16) 0.12362(17) 0.54202(16)
C38_6 C 0.6847(3) 0.08227(17) 0.58227(17)
H16_6 H 0.6654 0.0744 0.5744
C39_6 C 0.69802(17) 0.10751(18) 0.56793(18)
C40_6 C 0.7266(2) 0.1185(2) 0.57855(19)
H17_6 H 0.7360 0.1364 0.5693
C41_6 C 0.7411(3) 0.1030(2) 0.6030(2)
C42_6 C 0.7714(3) 0.1137(3) 0.6137(3)
C43_6 C 0.7951(4) 0.1235(3) 0.6235(3)
C44_6 C 0.8219(4) 0.1378(4) 0.6378(4)
C45_6 C 0.8360(4) 0.1237(5) 0.6640(4)
N4_6 N 0.8271(6) 0.0962(9) 0.6729(6)
H18_6 H 0.8109 0.0867 0.6633
O19_6 O 0.96817(12) 0.34310(12) 0.61224(11)
O20_6 O 0.96802(11) 0.30574(11) 0.64888(11)
C46_6 C 0.95798(16) 0.31731(16) 0.62362(17)
C47_6 C 0.91773(17) 0.3153(3) 0.58227(17)
H19_6 H 0.9256 0.3346 0.5744
C48_6 C 0.93207(18) 0.30198(17) 0.60751(18)
C49_6 C 0.92145(19) 0.2734(2) 0.6185(2)
H20_6 H 0.9307 0.2640 0.6364
C50_6 C 0.8970(2) 0.2589(3) 0.6030(2)
C51_6 C 0.8863(3) 0.2286(3) 0.6137(3)
C52_6 C 0.8765(3) 0.2049(4) 0.6235(3)
C53_6 C 0.8622(4) 0.1781(4) 0.6378(4)
C54_6 C 0.8360(4) 0.1640(4) 0.6237(5)
N5_6 N 0.8271(6) 0.1729(6) 0.5962(9)
H21_6 H 0.8367 0.1891 0.5867
O21_6 O 0.88776(11) 0.03183(12) 0.84310(12)
O22_6 O 0.85112(11) 0.03198(11) 0.80574(11)
C55_6 C 0.87638(17) 0.04202(16) 0.81731(16)
C56_6 C 0.91773(17) 0.08227(17) 0.8153(3)
H22_6 H 0.9256 0.0744 0.8346
C57_6 C 0.89249(18) 0.06793(18) 0.80198(17)
C58_6 C 0.8815(2) 0.07855(19) 0.7734(2)
H23_6 H 0.8636 0.0693 0.7640
C59_6 C 0.8970(2) 0.1030(2) 0.7589(3)
C60_6 C 0.8863(3) 0.1137(3) 0.7286(3)
C61_6 C 0.8765(3) 0.1235(3) 0.7049(4)
C62_6 C 0.8622(4) 0.1378(4) 0.6781(4)
C63_6 C 0.8763(5) 0.1640(4) 0.6640(4)
N6_6 N 0.9038(9) 0.1729(6) 0.6729(6)
H24_6 H 0.9133 0.1633 0.6891
C64_6 C 0.95798(16) 0.12362(17) 0.81731(16)
C65_6 C 0.93207(18) 0.10751(18) 0.80198(17)
C66_6 C 0.92145(19) 0.1185(2) 0.7734(2)
H25_6 H 0.9307 0.1364 0.7640
H26_6 H 0.8367 0.0867 0.6891
O25_6 O 0.65690(12) 0.03183(12) 0.61224(11)
O26_6 O 0.69426(11) 0.03198(11) 0.64888(11)
C67_6 C 0.68269(16) 0.04202(16) 0.62362(17)
C68_6 C 0.69802(17) 0.06793(18) 0.60751(18)
C69_6 C 0.7266(2) 0.07855(19) 0.6185(2)
H27_6 H 0.7360 0.0693 0.6364
H28_6 H 0.8109 0.1633 0.5867
O27_6 O 0.88776(11) 0.34310(12) 0.53183(12)
O28_6 O 0.85112(11) 0.30574(11) 0.53198(11)
C70_6 C 0.87638(17) 0.31731(16) 0.54202(16)
C71_6 C 0.89249(18) 0.30198(17) 0.56793(18)
C72_6 C 0.8815(2) 0.2734(2) 0.57855(19)
H29_6 H 0.8636 0.2640 0.5693
H30_6 H 0.9133 0.1891 0.6633
O29_15 O 0.90413(18) 0.0000 0.90413(18)
O30_15 O 0.78880(16) -0.0000 0.78880(16)
O31_6 O 0.61224(11) 0.15690(12) 0.46817(12)
O33_6 O 0.84310(12) 0.38776(11) 0.53183(12)
O34_6 O 0.61224(11) 0.15690(12) 0.53183(12)
O36_6 O 0.84310(12) 0.38776(11) 0.46817(12)
O38_6 O 0.64888(11) 0.19426(11) 0.46802(11)
O40_6 O 0.80574(11) 0.35112(11) 0.53198(11)
O41_6 O 0.64888(11) 0.19426(11) 0.53198(11)
O43_6 O 0.80574(11) 0.35112(11) 0.46802(11)
O29_16 O 0.90413(18) 1.0000 0.90413(18)
O30_16 O 0.78880(16) 1.0000 0.78880(16)
O32_7 O 0.84310(12) 0.96817(12) 0.88776(11)
O37_6 O 0.88776(11) 0.96817(12) 0.84310(12)
O39_7 O 0.80574(11) 0.96802(11) 0.85112(11)
O44_6 O 0.85112(11) 0.96802(11) 0.80574(11)
O29_17 O 0.09587(18) 0.0000 0.90413(18)
O30_17 O 0.21120(16) -0.0000 0.78880(16)
Cu1_7 Cu 0.13127(3) 0.63127(3) 0.5000
Cu2_7 Cu 0.17504(3) 0.67504(3) 0.5000
O1_7 O 0.09587(18) 0.59587(18) 0.5000
O2_7 O 0.11224(11) 0.65690(12) 0.46817(12)
O3_7 O 0.21120(16) 0.71120(16) 0.5000
O4_7 O 0.14888(11) 0.69426(11) 0.46802(11)
C1_7 C 0.12362(17) 0.68269(16) 0.45798(16)
C2_7 C 0.08227(17) 0.6847(3) 0.41773(17)
H1_7 H 0.0744 0.6654 0.4256
C3_7 C 0.10751(18) 0.69802(17) 0.43207(18)
C4_7 C 0.1185(2) 0.7266(2) 0.42145(19)
H2_7 H 0.1364 0.7360 0.4307
C5_7 C 0.1030(2) 0.7411(3) 0.3970(2)
C6_7 C 0.1137(3) 0.7714(3) 0.3863(3)
C7_7 C 0.1235(3) 0.7951(4) 0.3765(3)
C8_7 C 0.1378(4) 0.8219(4) 0.3622(4)
C9_7 C 0.1237(5) 0.8360(4) 0.3360(4)
N1_7 N 0.0962(9) 0.8271(6) 0.3271(6)
H3_7 H 0.0867 0.8109 0.3367
O5_7 O 0.34310(12) 0.96817(12) 0.38776(11)
O6_7 O 0.30574(11) 0.96802(11) 0.35112(11)
C10_7 C 0.31731(16) 0.95798(16) 0.37638(17)
C11_7 C 0.3153(3) 0.91773(17) 0.41773(17)
H4_7 H 0.3346 0.9256 0.4256
C12_7 C 0.30198(17) 0.93207(18) 0.39249(18)
C13_7 C 0.2734(2) 0.92145(19) 0.3815(2)
H5_7 H 0.2640 0.9307 0.3636
C14_7 C 0.2589(3) 0.8970(2) 0.3970(2)
C15_7 C 0.2286(3) 0.8863(3) 0.3863(3)
C16_7 C 0.2049(4) 0.8765(3) 0.3765(3)
C17_7 C 0.1781(4) 0.8622(4) 0.3622(4)
C18_7 C 0.1640(4) 0.8360(4) 0.3763(5)
N2_7 N 0.1729(6) 0.8271(6) 0.4038(9)
H6_7 H 0.1891 0.8367 0.4133
O7_7 O 0.03183(12) 0.88776(11) 0.15690(12)
O8_7 O 0.03198(11) 0.85112(11) 0.19426(11)
C19_7 C 0.04202(16) 0.87638(17) 0.18269(16)
C20_7 C 0.08227(17) 0.91773(17) 0.1847(3)
H7_7 H 0.0744 0.9256 0.1654
C21_7 C 0.06793(18) 0.89249(18) 0.19802(17)
C22_7 C 0.07855(19) 0.8815(2) 0.2266(2)
H8_7 H 0.0693 0.8636 0.2360
C23_7 C 0.1030(2) 0.8970(2) 0.2411(3)
C24_7 C 0.1137(3) 0.8863(3) 0.2714(3)
C25_7 C 0.1235(3) 0.8765(3) 0.2951(4)
C26_7 C 0.1378(4) 0.8622(4) 0.3219(4)
C27_7 C 0.1640(4) 0.8763(5) 0.3360(4)
N3_7 N 0.1729(6) 0.9038(9) 0.3271(6)
H9_7 H 0.1633 0.9133 0.3109
C28_7 C 0.12362(17) 0.95798(16) 0.18269(16)
C29_7 C 0.10751(18) 0.93207(18) 0.19802(17)
C30_7 C 0.1185(2) 0.92145(19) 0.2266(2)
H10_7 H 0.1364 0.9307 0.2360
H11_7 H 0.0867 0.8367 0.3109
O11_7 O 0.03183(12) 0.65690(12) 0.38776(11)
O12_7 O 0.03198(11) 0.69426(11) 0.35112(11)
C31_7 C 0.04202(16) 0.68269(16) 0.37638(17)
C32_7 C 0.06793(18) 0.69802(17) 0.39249(18)
C33_7 C 0.07855(19) 0.7266(2) 0.3815(2)
H12_7 H 0.0693 0.7360 0.3636
H13_7 H 0.1633 0.8109 0.4133
O13_7 O 0.34310(12) 0.88776(11) 0.46817(12)
O14_7 O 0.30574(11) 0.85112(11) 0.46802(11)
C34_7 C 0.31731(16) 0.87638(17) 0.45798(16)
C35_7 C 0.30198(17) 0.89249(18) 0.43207(18)
C36_7 C 0.2734(2) 0.8815(2) 0.42145(19)
H14_7 H 0.2640 0.8636 0.4307
H15_7 H 0.1891 0.9133 0.3367
Cu3_7 Cu 0.36873(3) 0.86873(3) 0.5000
Cu4_7 Cu 0.32496(3) 0.82496(3) 0.5000
O15_7 O 0.40413(18) 0.90413(18) 0.5000
O16_7 O 0.34310(12) 0.88776(11) 0.53183(12)
O17_7 O 0.28880(16) 0.78880(16) 0.5000
O18_7 O 0.30574(11) 0.85112(11) 0.53198(11)
C37_7 C 0.31731(16) 0.87638(17) 0.54202(16)
C38_7 C 0.3153(3) 0.91773(17) 0.58227(17)
H16_7 H 0.3346 0.9256 0.5744
C39_7 C 0.30198(17) 0.89249(18) 0.56793(18)
C40_7 C 0.2734(2) 0.8815(2) 0.57855(19)
H17_7 H 0.2640 0.8636 0.5693
C41_7 C 0.2589(3) 0.8970(2) 0.6030(2)
C42_7 C 0.2286(3) 0.8863(3) 0.6137(3)
C43_7 C 0.2049(4) 0.8765(3) 0.6235(3)
C44_7 C 0.1781(4) 0.8622(4) 0.6378(4)
C45_7 C 0.1640(4) 0.8763(5) 0.6640(4)
N4_7 N 0.1729(6) 0.9038(9) 0.6729(6)
H18_7 H 0.1891 0.9133 0.6633
O19_7 O 0.03183(12) 0.65690(12) 0.61224(11)
O20_7 O 0.03198(11) 0.69426(11) 0.64888(11)
C46_7 C 0.04202(16) 0.68269(16) 0.62362(17)
C47_7 C 0.08227(17) 0.6847(3) 0.58227(17)
H19_7 H 0.0744 0.6654 0.5744
C48_7 C 0.06793(18) 0.69802(17) 0.60751(18)
C49_7 C 0.07855(19) 0.7266(2) 0.6185(2)
H20_7 H 0.0693 0.7360 0.6364
C50_7 C 0.1030(2) 0.7411(3) 0.6030(2)
C51_7 C 0.1137(3) 0.7714(3) 0.6137(3)
C52_7 C 0.1235(3) 0.7951(4) 0.6235(3)
C53_7 C 0.1378(4) 0.8219(4) 0.6378(4)
C54_7 C 0.1640(4) 0.8360(4) 0.6237(5)
N5_7 N 0.1729(6) 0.8271(6) 0.5962(9)
H21_7 H 0.1633 0.8109 0.5867
O21_7 O 0.11224(11) 0.96817(12) 0.84310(12)
O22_7 O 0.14888(11) 0.96802(11) 0.80574(11)
C55_7 C 0.12362(17) 0.95798(16) 0.81731(16)
C56_7 C 0.08227(17) 0.91773(17) 0.8153(3)
H22_7 H 0.0744 0.9256 0.8346
C57_7 C 0.10751(18) 0.93207(18) 0.80198(17)
C58_7 C 0.1185(2) 0.92145(19) 0.7734(2)
H23_7 H 0.1364 0.9307 0.7640
C59_7 C 0.1030(2) 0.8970(2) 0.7589(3)
C60_7 C 0.1137(3) 0.8863(3) 0.7286(3)
C61_7 C 0.1235(3) 0.8765(3) 0.7049(4)
C62_7 C 0.1378(4) 0.8622(4) 0.6781(4)
C63_7 C 0.1237(5) 0.8360(4) 0.6640(4)
N6_7 N 0.0962(9) 0.8271(6) 0.6729(6)
H24_7 H 0.0867 0.8367 0.6891
O23_5 O 0.03183(12) 0.88776(11) 0.84310(12)
O24_5 O 0.03198(11) 0.85112(11) 0.80574(11)
C64_7 C 0.04202(16) 0.87638(17) 0.81731(16)
C65_7 C 0.06793(18) 0.89249(18) 0.80198(17)
C66_7 C 0.07855(19) 0.8815(2) 0.7734(2)
H25_7 H 0.0693 0.8636 0.7640
H26_7 H 0.1633 0.9133 0.6891
O25_7 O 0.34310(12) 0.96817(12) 0.61224(11)
O26_7 O 0.30574(11) 0.96802(11) 0.64888(11)
C67_7 C 0.31731(16) 0.95798(16) 0.62362(17)
C68_7 C 0.30198(17) 0.93207(18) 0.60751(18)
C69_7 C 0.2734(2) 0.92145(19) 0.6185(2)
H27_7 H 0.2640 0.9307 0.6364
H28_7 H 0.1891 0.8367 0.5867
O27_7 O 0.11224(11) 0.65690(12) 0.53183(12)
O28_7 O 0.14888(11) 0.69426(11) 0.53198(11)
C70_7 C 0.12362(17) 0.68269(16) 0.54202(16)
C71_7 C 0.10751(18) 0.69802(17) 0.56793(18)
C72_7 C 0.1185(2) 0.7266(2) 0.57855(19)
H29_7 H 0.1364 0.7360 0.5693
H30_7 H 0.0867 0.8109 0.6633
O29_18 O 0.09587(18) 1.0000 0.90413(18)
O30_18 O 0.21120(16) 1.0000 0.78880(16)
Cu11_9 Cu 0.0000 0.86873(3) 0.86873(3)
Cu13_9 Cu -0.0000 0.63127(3) 0.63127(3)
Cu18_9 Cu -0.0000 0.82496(3) 0.82496(3)
Cu20_9 Cu -0.0000 0.67504(3) 0.67504(3)
O31_7 O 0.38776(11) 0.84310(12) 0.46817(12)
O33_7 O 0.15690(12) 0.61224(11) 0.53183(12)
O34_7 O 0.38776(11) 0.84310(12) 0.53183(12)
O35_6 O 0.15690(12) 0.96817(12) 0.88776(11)
O36_7 O 0.15690(12) 0.61224(11) 0.46817(12)
O38_7 O 0.35112(11) 0.80574(11) 0.46802(11)
O40_7 O 0.19426(11) 0.64888(11) 0.53198(11)
O41_7 O 0.35112(11) 0.80574(11) 0.53198(11)
O42_6 O 0.19426(11) 0.96802(11) 0.85112(11)
O43_7 O 0.19426(11) 0.64888(11) 0.46802(11)
Cu11_10 Cu 1.0000 0.86873(3) 0.86873(3)
Cu13_10 Cu 1.0000 0.63127(3) 0.63127(3)
Cu18_10 Cu 1.0000 0.82496(3) 0.82496(3)
Cu20_10 Cu 1.0000 0.67504(3) 0.67504(3)
Cu1_8 Cu 0.36873(3) 0.5000 0.86873(3)
Cu2_8 Cu 0.32496(3) 0.5000 0.82496(3)
O1_8 O 0.40413(18) 0.5000 0.90413(18)
O2_8 O 0.34310(12) 0.46817(12) 0.88776(11)
O3_8 O 0.28880(16) 0.5000 0.78880(16)
O4_8 O 0.30574(11) 0.46802(11) 0.85112(11)
C1_8 C 0.31731(16) 0.45798(16) 0.87638(17)
C2_8 C 0.3153(3) 0.41773(17) 0.91773(17)
H1_8 H 0.3346 0.4256 0.9256
C3_8 C 0.30198(17) 0.43207(18) 0.89249(18)
C4_8 C 0.2734(2) 0.42145(19) 0.8815(2)
H2_8 H 0.2640 0.4307 0.8636
C5_8 C 0.2589(3) 0.3970(2) 0.8970(2)
C6_8 C 0.2286(3) 0.3863(3) 0.8863(3)
C7_8 C 0.2049(4) 0.3765(3) 0.8765(3)
C8_8 C 0.1781(4) 0.3622(4) 0.8622(4)
C9_8 C 0.1640(4) 0.3360(4) 0.8763(5)
N1_8 N 0.1729(6) 0.3271(6) 0.9038(9)
H3_8 H 0.1891 0.3367 0.9133
O5_8 O 0.03183(12) 0.38776(11) 0.65690(12)
O6_8 O 0.03198(11) 0.35112(11) 0.69426(11)
C10_8 C 0.04202(16) 0.37638(17) 0.68269(16)
C11_8 C 0.08227(17) 0.41773(17) 0.6847(3)
H4_8 H 0.0744 0.4256 0.6654
C12_8 C 0.06793(18) 0.39249(18) 0.69802(17)
C13_8 C 0.07855(19) 0.3815(2) 0.7266(2)
H5_8 H 0.0693 0.3636 0.7360
C14_8 C 0.1030(2) 0.3970(2) 0.7411(3)
C15_8 C 0.1137(3) 0.3863(3) 0.7714(3)
C16_8 C 0.1235(3) 0.3765(3) 0.7951(4)
C17_8 C 0.1378(4) 0.3622(4) 0.8219(4)
C18_8 C 0.1640(4) 0.3763(5) 0.8360(4)
N2_8 N 0.1729(6) 0.4038(9) 0.8271(6)
H6_8 H 0.1633 0.4133 0.8109
C19_8 C 0.12362(17) 0.18269(16) 0.95798(16)
C20_8 C 0.08227(17) 0.1847(3) 0.91773(17)
H7_8 H 0.0744 0.1654 0.9256
C21_8 C 0.10751(18) 0.19802(17) 0.93207(18)
C22_8 C 0.1185(2) 0.2266(2) 0.92145(19)
H8_8 H 0.1364 0.2360 0.9307
C23_8 C 0.1030(2) 0.2411(3) 0.8970(2)
C24_8 C 0.1137(3) 0.2714(3) 0.8863(3)
C25_8 C 0.1235(3) 0.2951(4) 0.8765(3)
C26_8 C 0.1378(4) 0.3219(4) 0.8622(4)
C27_8 C 0.1237(5) 0.3360(4) 0.8360(4)
N3_8 N 0.0962(9) 0.3271(6) 0.8271(6)
H9_8 H 0.0867 0.3109 0.8367
C28_8 C 0.04202(16) 0.18269(16) 0.87638(17)
C29_8 C 0.06793(18) 0.19802(17) 0.89249(18)
C30_8 C 0.07855(19) 0.2266(2) 0.8815(2)
H10_8 H 0.0693 0.2360 0.8636
H11_8 H 0.1633 0.3109 0.9133
O11_8 O 0.34310(12) 0.38776(11) 0.96817(12)
O12_8 O 0.30574(11) 0.35112(11) 0.96802(11)
C31_8 C 0.31731(16) 0.37638(17) 0.95798(16)
C32_8 C 0.30198(17) 0.39249(18) 0.93207(18)
C33_8 C 0.2734(2) 0.3815(2) 0.92145(19)
H12_8 H 0.2640 0.3636 0.9307
H13_8 H 0.1891 0.4133 0.8367
O13_8 O 0.11224(11) 0.46817(12) 0.65690(12)
O14_8 O 0.14888(11) 0.46802(11) 0.69426(11)
C34_8 C 0.12362(17) 0.45798(16) 0.68269(16)
C35_8 C 0.10751(18) 0.43207(18) 0.69802(17)
C36_8 C 0.1185(2) 0.42145(19) 0.7266(2)
H14_8 H 0.1364 0.4307 0.7360
H15_8 H 0.0867 0.3367 0.8109
Cu3_8 Cu 0.13127(3) 0.5000 0.63127(3)
Cu4_8 Cu 0.17504(3) 0.5000 0.67504(3)
O15_8 O 0.09587(18) 0.5000 0.59587(18)
O16_8 O 0.11224(11) 0.53183(12) 0.65690(12)
O17_8 O 0.21120(16) 0.5000 0.71120(16)
O18_8 O 0.14888(11) 0.53198(11) 0.69426(11)
C37_8 C 0.12362(17) 0.54202(16) 0.68269(16)
C38_8 C 0.08227(17) 0.58227(17) 0.6847(3)
H16_8 H 0.0744 0.5744 0.6654
C39_8 C 0.10751(18) 0.56793(18) 0.69802(17)
C40_8 C 0.1185(2) 0.57855(19) 0.7266(2)
H17_8 H 0.1364 0.5693 0.7360
C41_8 C 0.1030(2) 0.6030(2) 0.7411(3)
C42_8 C 0.1137(3) 0.6137(3) 0.7714(3)
C43_8 C 0.1235(3) 0.6235(3) 0.7951(4)
C44_8 C 0.1378(4) 0.6378(4) 0.8219(4)
C45_8 C 0.1237(5) 0.6640(4) 0.8360(4)
N4_8 N 0.0962(9) 0.6729(6) 0.8271(6)
H18_8 H 0.0867 0.6633 0.8109
O19_8 O 0.34310(12) 0.61224(11) 0.96817(12)
O20_8 O 0.30574(11) 0.64888(11) 0.96802(11)
C46_8 C 0.31731(16) 0.62362(17) 0.95798(16)
C47_8 C 0.3153(3) 0.58227(17) 0.91773(17)
H19_8 H 0.3346 0.5744 0.9256
C48_8 C 0.30198(17) 0.60751(18) 0.93207(18)
C49_8 C 0.2734(2) 0.6185(2) 0.92145(19)
H20_8 H 0.2640 0.6364 0.9307
C50_8 C 0.2589(3) 0.6030(2) 0.8970(2)
C51_8 C 0.2286(3) 0.6137(3) 0.8863(3)
C52_8 C 0.2049(4) 0.6235(3) 0.8765(3)
C53_8 C 0.1781(4) 0.6378(4) 0.8622(4)
C54_8 C 0.1640(4) 0.6237(5) 0.8360(4)
N5_8 N 0.1729(6) 0.5962(9) 0.8271(6)
H21_8 H 0.1891 0.5867 0.8367
O21_8 O 0.03183(12) 0.84310(12) 0.88776(11)
O22_8 O 0.03198(11) 0.80574(11) 0.85112(11)
C55_8 C 0.04202(16) 0.81731(16) 0.87638(17)
C56_8 C 0.08227(17) 0.8153(3) 0.91773(17)
H22_8 H 0.0744 0.8346 0.9256
C57_8 C 0.06793(18) 0.80198(17) 0.89249(18)
C58_8 C 0.07855(19) 0.7734(2) 0.8815(2)
H23_8 H 0.0693 0.7640 0.8636
C59_8 C 0.1030(2) 0.7589(3) 0.8970(2)
C60_8 C 0.1137(3) 0.7286(3) 0.8863(3)
C61_8 C 0.1235(3) 0.7049(4) 0.8765(3)
C62_8 C 0.1378(4) 0.6781(4) 0.8622(4)
C63_8 C 0.1640(4) 0.6640(4) 0.8763(5)
N6_8 N 0.1729(6) 0.6729(6) 0.9038(9)
H24_8 H 0.1633 0.6891 0.9133
C64_8 C 0.12362(17) 0.81731(16) 0.95798(16)
C65_8 C 0.10751(18) 0.80198(17) 0.93207(18)
C66_8 C 0.1185(2) 0.7734(2) 0.92145(19)
H25_8 H 0.1364 0.7640 0.9307
H26_8 H 0.0867 0.6891 0.8367
O25_8 O 0.03183(12) 0.61224(11) 0.65690(12)
O26_8 O 0.03198(11) 0.64888(11) 0.69426(11)
C67_8 C 0.04202(16) 0.62362(17) 0.68269(16)
C68_8 C 0.06793(18) 0.60751(18) 0.69802(17)
C69_8 C 0.07855(19) 0.6185(2) 0.7266(2)
H27_8 H 0.0693 0.6364 0.7360
H28_8 H 0.1633 0.5867 0.8109
O27_8 O 0.34310(12) 0.53183(12) 0.88776(11)
O28_8 O 0.30574(11) 0.53198(11) 0.85112(11)
C70_8 C 0.31731(16) 0.54202(16) 0.87638(17)
C71_8 C 0.30198(17) 0.56793(18) 0.89249(18)
C72_8 C 0.2734(2) 0.57855(19) 0.8815(2)
H29_8 H 0.2640 0.5693 0.8636
H30_8 H 0.1891 0.6633 0.9133
O29_19 O -0.0000 0.90413(18) 0.90413(18)
O30_19 O -0.0000 0.78880(16) 0.78880(16)
O31_8 O 0.15690(12) 0.46817(12) 0.61224(11)
O33_8 O 0.38776(11) 0.53183(12) 0.84310(12)
O34_8 O 0.15690(12) 0.53183(12) 0.61224(11)
O36_8 O 0.38776(11) 0.46817(12) 0.84310(12)
O38_8 O 0.19426(11) 0.46802(11) 0.64888(11)
O40_8 O 0.35112(11) 0.53198(11) 0.80574(11)
O41_8 O 0.19426(11) 0.53198(11) 0.64888(11)
O43_8 O 0.35112(11) 0.46802(11) 0.80574(11)
O29_20 O 1.0000 0.90413(18) 0.90413(18)
O30_20 O 1.0000 0.78880(16) 0.78880(16)
O32_8 O 0.96817(12) 0.88776(11) 0.84310(12)
O37_7 O 0.96817(12) 0.84310(12) 0.88776(11)
O39_8 O 0.96802(11) 0.85112(11) 0.80574(11)
O44_7 O 0.96802(11) 0.80574(11) 0.85112(11)
O29_21 O -0.0000 0.09587(18) 0.09587(18)
O30_21 O -0.0000 0.21120(16) 0.21120(16)
O29_22 O 1.0000 0.09587(18) 0.09587(18)
O30_22 O 1.0000 0.21120(16) 0.21120(16)
O37_8 O 0.96817(12) 0.15690(12) 0.11224(11)
O44_8 O 0.96802(11) 0.19426(11) 0.14888(11)
O29_23 O -0.0000 0.90413(18) 0.09587(18)
O30_23 O 0.0000 0.78880(16) 0.21120(16)
Cu1_9 Cu 0.63127(3) 0.5000 0.13127(3)
Cu2_9 Cu 0.67504(3) 0.5000 0.17504(3)
O1_9 O 0.59587(18) 0.5000 0.09587(18)
O2_9 O 0.65690(12) 0.46817(12) 0.11224(11)
O3_9 O 0.71120(16) 0.5000 0.21120(16)
O4_9 O 0.69426(11) 0.46802(11) 0.14888(11)
C1_9 C 0.68269(16) 0.45798(16) 0.12362(17)
C2_9 C 0.6847(3) 0.41773(17) 0.08227(17)
H1_9 H 0.6654 0.4256 0.0744
C3_9 C 0.69802(17) 0.43207(18) 0.10751(18)
C4_9 C 0.7266(2) 0.42145(19) 0.1185(2)
H2_9 H 0.7360 0.4307 0.1364
C5_9 C 0.7411(3) 0.3970(2) 0.1030(2)
C6_9 C 0.7714(3) 0.3863(3) 0.1137(3)
C7_9 C 0.7951(4) 0.3765(3) 0.1235(3)
C8_9 C 0.8219(4) 0.3622(4) 0.1378(4)
C9_9 C 0.8360(4) 0.3360(4) 0.1237(5)
N1_9 N 0.8271(6) 0.3271(6) 0.0962(9)
H3_9 H 0.8109 0.3367 0.0867
O5_9 O 0.96817(12) 0.38776(11) 0.34310(12)
O6_9 O 0.96802(11) 0.35112(11) 0.30574(11)
C10_9 C 0.95798(16) 0.37638(17) 0.31731(16)
C11_9 C 0.91773(17) 0.41773(17) 0.3153(3)
H4_9 H 0.9256 0.4256 0.3346
C12_9 C 0.93207(18) 0.39249(18) 0.30198(17)
C13_9 C 0.92145(19) 0.3815(2) 0.2734(2)
H5_9 H 0.9307 0.3636 0.2640
C14_9 C 0.8970(2) 0.3970(2) 0.2589(3)
C15_9 C 0.8863(3) 0.3863(3) 0.2286(3)
C16_9 C 0.8765(3) 0.3765(3) 0.2049(4)
C17_9 C 0.8622(4) 0.3622(4) 0.1781(4)
C18_9 C 0.8360(4) 0.3763(5) 0.1640(4)
N2_9 N 0.8271(6) 0.4038(9) 0.1729(6)
H6_9 H 0.8367 0.4133 0.1891
C19_9 C 0.87638(17) 0.18269(16) 0.04202(16)
C20_9 C 0.91773(17) 0.1847(3) 0.08227(17)
H7_9 H 0.9256 0.1654 0.0744
C21_9 C 0.89249(18) 0.19802(17) 0.06793(18)
C22_9 C 0.8815(2) 0.2266(2) 0.07855(19)
H8_9 H 0.8636 0.2360 0.0693
C23_9 C 0.8970(2) 0.2411(3) 0.1030(2)
C24_9 C 0.8863(3) 0.2714(3) 0.1137(3)
C25_9 C 0.8765(3) 0.2951(4) 0.1235(3)
C26_9 C 0.8622(4) 0.3219(4) 0.1378(4)
C27_9 C 0.8763(5) 0.3360(4) 0.1640(4)
N3_9 N 0.9038(9) 0.3271(6) 0.1729(6)
H9_9 H 0.9133 0.3109 0.1633
C28_9 C 0.95798(16) 0.18269(16) 0.12362(17)
C29_9 C 0.93207(18) 0.19802(17) 0.10751(18)
C30_9 C 0.92145(19) 0.2266(2) 0.1185(2)
H10_9 H 0.9307 0.2360 0.1364
H11_9 H 0.8367 0.3109 0.0867
O11_9 O 0.65690(12) 0.38776(11) 0.03183(12)
O12_9 O 0.69426(11) 0.35112(11) 0.03198(11)
C31_9 C 0.68269(16) 0.37638(17) 0.04202(16)
C32_9 C 0.69802(17) 0.39249(18) 0.06793(18)
C33_9 C 0.7266(2) 0.3815(2) 0.07855(19)
H12_9 H 0.7360 0.3636 0.0693
H13_9 H 0.8109 0.4133 0.1633
O13_9 O 0.88776(11) 0.46817(12) 0.34310(12)
O14_9 O 0.85112(11) 0.46802(11) 0.30574(11)
C34_9 C 0.87638(17) 0.45798(16) 0.31731(16)
C35_9 C 0.89249(18) 0.43207(18) 0.30198(17)
C36_9 C 0.8815(2) 0.42145(19) 0.2734(2)
H14_9 H 0.8636 0.4307 0.2640
H15_9 H 0.9133 0.3367 0.1891
Cu3_9 Cu 0.86873(3) 0.5000 0.36873(3)
Cu4_9 Cu 0.82496(3) 0.5000 0.32496(3)
O15_9 O 0.90413(18) 0.5000 0.40413(18)
O16_9 O 0.88776(11) 0.53183(12) 0.34310(12)
O17_9 O 0.78880(16) 0.5000 0.28880(16)
O18_9 O 0.85112(11) 0.53198(11) 0.30574(11)
C37_9 C 0.87638(17) 0.54202(16) 0.31731(16)
C38_9 C 0.91773(17) 0.58227(17) 0.3153(3)
H16_9 H 0.9256 0.5744 0.3346
C39_9 C 0.89249(18) 0.56793(18) 0.30198(17)
C40_9 C 0.8815(2) 0.57855(19) 0.2734(2)
H17_9 H 0.8636 0.5693 0.2640
C41_9 C 0.8970(2) 0.6030(2) 0.2589(3)
C42_9 C 0.8863(3) 0.6137(3) 0.2286(3)
C43_9 C 0.8765(3) 0.6235(3) 0.2049(4)
C44_9 C 0.8622(4) 0.6378(4) 0.1781(4)
C45_9 C 0.8763(5) 0.6640(4) 0.1640(4)
N4_9 N 0.9038(9) 0.6729(6) 0.1729(6)
H18_9 H 0.9133 0.6633 0.1891
O19_9 O 0.65690(12) 0.61224(11) 0.03183(12)
O20_9 O 0.69426(11) 0.64888(11) 0.03198(11)
C46_9 C 0.68269(16) 0.62362(17) 0.04202(16)
C47_9 C 0.6847(3) 0.58227(17) 0.08227(17)
H19_9 H 0.6654 0.5744 0.0744
C48_9 C 0.69802(17) 0.60751(18) 0.06793(18)
C49_9 C 0.7266(2) 0.6185(2) 0.07855(19)
H20_9 H 0.7360 0.6364 0.0693
C50_9 C 0.7411(3) 0.6030(2) 0.1030(2)
C51_9 C 0.7714(3) 0.6137(3) 0.1137(3)
C52_9 C 0.7951(4) 0.6235(3) 0.1235(3)
C53_9 C 0.8219(4) 0.6378(4) 0.1378(4)
C54_9 C 0.8360(4) 0.6237(5) 0.1640(4)
N5_9 N 0.8271(6) 0.5962(9) 0.1729(6)
H21_9 H 0.8109 0.5867 0.1633
O21_9 O 0.96817(12) 0.84310(12) 0.11224(11)
O22_9 O 0.96802(11) 0.80574(11) 0.14888(11)
C55_9 C 0.95798(16) 0.81731(16) 0.12362(17)
C56_9 C 0.91773(17) 0.8153(3) 0.08227(17)
H22_9 H 0.9256 0.8346 0.0744
C57_9 C 0.93207(18) 0.80198(17) 0.10751(18)
C58_9 C 0.92145(19) 0.7734(2) 0.1185(2)
H23_9 H 0.9307 0.7640 0.1364
C59_9 C 0.8970(2) 0.7589(3) 0.1030(2)
C60_9 C 0.8863(3) 0.7286(3) 0.1137(3)
C61_9 C 0.8765(3) 0.7049(4) 0.1235(3)
C62_9 C 0.8622(4) 0.6781(4) 0.1378(4)
C63_9 C 0.8360(4) 0.6640(4) 0.1237(5)
N6_9 N 0.8271(6) 0.6729(6) 0.0962(9)
H24_9 H 0.8367 0.6891 0.0867
C64_9 C 0.87638(17) 0.81731(16) 0.04202(16)
C65_9 C 0.89249(18) 0.80198(17) 0.06793(18)
C66_9 C 0.8815(2) 0.7734(2) 0.07855(19)
H25_9 H 0.8636 0.7640 0.0693
H26_9 H 0.9133 0.6891 0.1633
O25_9 O 0.96817(12) 0.61224(11) 0.34310(12)
O26_9 O 0.96802(11) 0.64888(11) 0.30574(11)
C67_9 C 0.95798(16) 0.62362(17) 0.31731(16)
C68_9 C 0.93207(18) 0.60751(18) 0.30198(17)
C69_9 C 0.92145(19) 0.6185(2) 0.2734(2)
H27_9 H 0.9307 0.6364 0.2640
H28_9 H 0.8367 0.5867 0.1891
O27_9 O 0.65690(12) 0.53183(12) 0.11224(11)
O28_9 O 0.69426(11) 0.53198(11) 0.14888(11)
C70_9 C 0.68269(16) 0.54202(16) 0.12362(17)
C71_9 C 0.69802(17) 0.56793(18) 0.10751(18)
C72_9 C 0.7266(2) 0.57855(19) 0.1185(2)
H29_9 H 0.7360 0.5693 0.1364
H30_9 H 0.8109 0.6633 0.0867
O29_24 O 1.0000 0.90413(18) 0.09587(18)
O30_24 O 1.0000 0.78880(16) 0.21120(16)
O31_9 O 0.84310(12) 0.46817(12) 0.38776(11)
O33_9 O 0.61224(11) 0.53183(12) 0.15690(12)
O34_9 O 0.84310(12) 0.53183(12) 0.38776(11)
O35_7 O 0.96817(12) 0.88776(11) 0.15690(12)
O36_9 O 0.61224(11) 0.46817(12) 0.15690(12)
O38_9 O 0.80574(11) 0.46802(11) 0.35112(11)
O40_9 O 0.64888(11) 0.53198(11) 0.19426(11)
O41_9 O 0.80574(11) 0.53198(11) 0.35112(11)
O42_7 O 0.96802(11) 0.85112(11) 0.19426(11)
O43_9 O 0.64888(11) 0.46802(11) 0.19426(11)
O15_10 O 0.40413(18) -0.0000 0.59587(18)
O17_10 O 0.28880(16) 0.0000 0.71120(16)
O15_11 O 0.40413(18) 1.0000 0.59587(18)
O17_11 O 0.28880(16) 1.0000 0.71120(16)
O31_10 O 0.38776(11) 0.96817(12) 0.65690(12)
O38_10 O 0.35112(11) 0.96802(11) 0.69426(11)
O1_10 O 0.40413(18) 0.59587(18) 0.0000
O3_10 O 0.28880(16) 0.71120(16) 0.0000
O29_25 O -0.0000 0.59587(18) 0.40413(18)
O30_25 O 0.0000 0.71120(16) 0.28880(16)
O1_11 O 0.40413(18) 0.59587(18) 1.0000
O3_11 O 0.28880(16) 0.71120(16) 1.0000
O36_10 O 0.38776(11) 0.65690(12) 0.96817(12)
O43_10 O 0.35112(11) 0.69426(11) 0.96802(11)
O29_26 O 1.0000 0.59587(18) 0.40413(18)
O30_26 O 1.0000 0.71120(16) 0.28880(16)
O32_9 O 0.96817(12) 0.65690(12) 0.38776(11)
O39_9 O 0.96802(11) 0.69426(11) 0.35112(11)
Cu1_10 Cu 0.5000 0.86873(3) 0.63127(3)
Cu2_10 Cu 0.5000 0.82496(3) 0.67504(3)
O1_12 O 0.5000 0.90413(18) 0.59587(18)
O2_10 O 0.46817(12) 0.84310(12) 0.61224(11)
O3_12 O 0.5000 0.78880(16) 0.71120(16)
O4_10 O 0.46802(11) 0.80574(11) 0.64888(11)
C1_10 C 0.45798(16) 0.81731(16) 0.62362(17)
C2_10 C 0.41773(17) 0.8153(3) 0.58227(17)
H1_10 H 0.4256 0.8346 0.5744
C3_10 C 0.43207(18) 0.80198(17) 0.60751(18)
C4_10 C 0.42145(19) 0.7734(2) 0.6185(2)
H2_10 H 0.4307 0.7640 0.6364
C5_10 C 0.3970(2) 0.7589(3) 0.6030(2)
C6_10 C 0.3863(3) 0.7286(3) 0.6137(3)
C7_10 C 0.3765(3) 0.7049(4) 0.6235(3)
C8_10 C 0.3622(4) 0.6781(4) 0.6378(4)
C9_10 C 0.3360(4) 0.6640(4) 0.6237(5)
N1_10 N 0.3271(6) 0.6729(6) 0.5962(9)
H3_10 H 0.3367 0.6891 0.5867
C10_10 C 0.37638(17) 0.54202(16) 0.81731(16)
C11_10 C 0.41773(17) 0.58227(17) 0.8153(3)
H4_10 H 0.4256 0.5744 0.8346
C12_10 C 0.39249(18) 0.56793(18) 0.80198(17)
C13_10 C 0.3815(2) 0.57855(19) 0.7734(2)
H5_10 H 0.3636 0.5693 0.7640
C14_10 C 0.3970(2) 0.6030(2) 0.7589(3)
C15_10 C 0.3863(3) 0.6137(3) 0.7286(3)
C16_10 C 0.3765(3) 0.6235(3) 0.7049(4)
C17_10 C 0.3622(4) 0.6378(4) 0.6781(4)
C18_10 C 0.3763(5) 0.6640(4) 0.6640(4)
N2_10 N 0.4038(9) 0.6729(6) 0.6729(6)
H6_10 H 0.4133 0.6633 0.6891
C19_10 C 0.18269(16) 0.62362(17) 0.54202(16)
C20_10 C 0.1847(3) 0.58227(17) 0.58227(17)
H7_10 H 0.1654 0.5744 0.5744
C21_10 C 0.19802(17) 0.60751(18) 0.56793(18)
C22_10 C 0.2266(2) 0.6185(2) 0.57855(19)
H8_10 H 0.2360 0.6364 0.5693
C23_10 C 0.2411(3) 0.6030(2) 0.6030(2)
C24_10 C 0.2714(3) 0.6137(3) 0.6137(3)
C25_10 C 0.2951(4) 0.6235(3) 0.6235(3)
C26_10 C 0.3219(4) 0.6378(4) 0.6378(4)
C27_10 C 0.3360(4) 0.6237(5) 0.6640(4)
N3_10 N 0.3271(6) 0.5962(9) 0.6729(6)
H9_10 H 0.3109 0.5867 0.6633
C28_10 C 0.18269(16) 0.54202(16) 0.62362(17)
C29_10 C 0.19802(17) 0.56793(18) 0.60751(18)
C30_10 C 0.2266(2) 0.57855(19) 0.6185(2)
H10_10 H 0.2360 0.5693 0.6364
H11_10 H 0.3109 0.6633 0.5867
C31_10 C 0.37638(17) 0.81731(16) 0.54202(16)
C32_10 C 0.39249(18) 0.80198(17) 0.56793(18)
C33_10 C 0.3815(2) 0.7734(2) 0.57855(19)
H12_10 H 0.3636 0.7640 0.5693
H13_10 H 0.4133 0.6891 0.6633
O13_10 O 0.46817(12) 0.61224(11) 0.84310(12)
O14_10 O 0.46802(11) 0.64888(11) 0.80574(11)
C34_10 C 0.45798(16) 0.62362(17) 0.81731(16)
C35_10 C 0.43207(18) 0.60751(18) 0.80198(17)
C36_10 C 0.42145(19) 0.6185(2) 0.7734(2)
H14_10 H 0.4307 0.6364 0.7640
H15_10 H 0.3367 0.5867 0.6891
Cu3_10 Cu 0.5000 0.63127(3) 0.86873(3)
Cu4_10 Cu 0.5000 0.67504(3) 0.82496(3)
O15_12 O 0.5000 0.59587(18) 0.90413(18)
O16_10 O 0.53183(12) 0.61224(11) 0.84310(12)
O17_12 O 0.5000 0.71120(16) 0.78880(16)
O18_10 O 0.53198(11) 0.64888(11) 0.80574(11)
C37_10 C 0.54202(16) 0.62362(17) 0.81731(16)
C38_10 C 0.58227(17) 0.58227(17) 0.8153(3)
H16_10 H 0.5744 0.5744 0.8346
C39_10 C 0.56793(18) 0.60751(18) 0.80198(17)
C40_10 C 0.57855(19) 0.6185(2) 0.7734(2)
H17_10 H 0.5693 0.6364 0.7640
C41_10 C 0.6030(2) 0.6030(2) 0.7589(3)
C42_10 C 0.6137(3) 0.6137(3) 0.7286(3)
C43_10 C 0.6235(3) 0.6235(3) 0.7049(4)
C44_10 C 0.6378(4) 0.6378(4) 0.6781(4)
C45_10 C 0.6640(4) 0.6237(5) 0.6640(4)
N4_10 N 0.6729(6) 0.5962(9) 0.6729(6)
H18_10 H 0.6633 0.5867 0.6891
O19_10 O 0.61224(11) 0.84310(12) 0.53183(12)
O20_10 O 0.64888(11) 0.80574(11) 0.53198(11)
C46_10 C 0.62362(17) 0.81731(16) 0.54202(16)
C47_10 C 0.58227(17) 0.8153(3) 0.58227(17)
H19_10 H 0.5744 0.8346 0.5744
C48_10 C 0.60751(18) 0.80198(17) 0.56793(18)
C49_10 C 0.6185(2) 0.7734(2) 0.57855(19)
H20_10 H 0.6364 0.7640 0.5693
C50_10 C 0.6030(2) 0.7589(3) 0.6030(2)
C51_10 C 0.6137(3) 0.7286(3) 0.6137(3)
C52_10 C 0.6235(3) 0.7049(4) 0.6235(3)
C53_10 C 0.6378(4) 0.6781(4) 0.6378(4)
C54_10 C 0.6237(5) 0.6640(4) 0.6640(4)
N5_10 N 0.5962(9) 0.6729(6) 0.6729(6)
H21_10 H 0.5867 0.6891 0.6633
O21_10 O 0.84310(12) 0.53183(12) 0.61224(11)
O22_10 O 0.80574(11) 0.53198(11) 0.64888(11)
C55_10 C 0.81731(16) 0.54202(16) 0.62362(17)
C56_10 C 0.8153(3) 0.58227(17) 0.58227(17)
H22_10 H 0.8346 0.5744 0.5744
C57_10 C 0.80198(17) 0.56793(18) 0.60751(18)
C58_10 C 0.7734(2) 0.57855(19) 0.6185(2)
H23_10 H 0.7640 0.5693 0.6364
C59_10 C 0.7589(3) 0.6030(2) 0.6030(2)
C60_10 C 0.7286(3) 0.6137(3) 0.6137(3)
C61_10 C 0.7049(4) 0.6235(3) 0.6235(3)
C62_10 C 0.6781(4) 0.6378(4) 0.6378(4)
C63_10 C 0.6640(4) 0.6640(4) 0.6237(5)
N6_10 N 0.6729(6) 0.6729(6) 0.5962(9)
H24_10 H 0.6891 0.6633 0.5867
O23_6 O 0.84310(12) 0.61224(11) 0.53183(12)
O24_6 O 0.80574(11) 0.64888(11) 0.53198(11)
C64_10 C 0.81731(16) 0.62362(17) 0.54202(16)
C65_10 C 0.80198(17) 0.60751(18) 0.56793(18)
C66_10 C 0.7734(2) 0.6185(2) 0.57855(19)
H25_10 H 0.7640 0.6364 0.5693
H26_10 H 0.6891 0.5867 0.6633
O25_10 O 0.61224(11) 0.53183(12) 0.84310(12)
O26_10 O 0.64888(11) 0.53198(11) 0.80574(11)
C67_10 C 0.62362(17) 0.54202(16) 0.81731(16)
C68_10 C 0.60751(18) 0.56793(18) 0.80198(17)
C69_10 C 0.6185(2) 0.57855(19) 0.7734(2)
H27_10 H 0.6364 0.5693 0.7640
H28_10 H 0.5867 0.6633 0.6891
O27_10 O 0.53183(12) 0.84310(12) 0.61224(11)
O28_10 O 0.53198(11) 0.80574(11) 0.64888(11)
C70_10 C 0.54202(16) 0.81731(16) 0.62362(17)
C71_10 C 0.56793(18) 0.80198(17) 0.60751(18)
C72_10 C 0.57855(19) 0.7734(2) 0.6185(2)
H29_10 H 0.5693 0.7640 0.6364
H30_10 H 0.6633 0.6891 0.5867
Cu5_9 Cu 0.86873(3) 0.5000 0.63127(3)
Cu6_9 Cu 0.82496(3) 0.5000 0.67504(3)
O29_27 O 0.90413(18) 0.5000 0.59587(18)
O30_27 O 0.78880(16) 0.5000 0.71120(16)
Cu7_9 Cu 0.63127(3) 0.5000 0.86873(3)
Cu11_11 Cu 0.86873(3) 0.63127(3) 0.5000
Cu13_11 Cu 0.63127(3) 0.86873(3) 0.5000
Cu14_9 Cu 0.67504(3) 0.5000 0.82496(3)
Cu18_11 Cu 0.82496(3) 0.67504(3) 0.5000
Cu20_11 Cu 0.67504(3) 0.82496(3) 0.5000
O31_11 O 0.46817(12) 0.65690(12) 0.88776(11)
O32_10 O 0.88776(11) 0.46817(12) 0.65690(12)
O33_10 O 0.53183(12) 0.88776(11) 0.65690(12)
O34_10 O 0.53183(12) 0.65690(12) 0.88776(11)
O35_8 O 0.88776(11) 0.53183(12) 0.65690(12)
O36_11 O 0.46817(12) 0.88776(11) 0.65690(12)
O37_9 O 0.84310(12) 0.46817(12) 0.61224(11)
O38_11 O 0.46802(11) 0.69426(11) 0.85112(11)
O39_10 O 0.85112(11) 0.46802(11) 0.69426(11)
O40_10 O 0.53198(11) 0.85112(11) 0.69426(11)
O41_10 O 0.53198(11) 0.69426(11) 0.85112(11)
O42_8 O 0.85112(11) 0.53198(11) 0.69426(11)
O43_11 O 0.46802(11) 0.85112(11) 0.69426(11)
O44_9 O 0.80574(11) 0.46802(11) 0.64888(11)
C1_11 C 0.45798(16) 0.62362(17) 0.18269(16)
C2_11 C 0.41773(17) 0.58227(17) 0.1847(3)
H1_11 H 0.4256 0.5744 0.1654
C3_11 C 0.43207(18) 0.60751(18) 0.19802(17)
C4_11 C 0.42145(19) 0.6185(2) 0.2266(2)
H2_11 H 0.4307 0.6364 0.2360
C5_11 C 0.3970(2) 0.6030(2) 0.2411(3)
C6_11 C 0.3863(3) 0.6137(3) 0.2714(3)
C7_11 C 0.3765(3) 0.6235(3) 0.2951(4)
C8_11 C 0.3622(4) 0.6378(4) 0.3219(4)
C9_11 C 0.3360(4) 0.6237(5) 0.3360(4)
N1_11 N 0.3271(6) 0.5962(9) 0.3271(6)
H3_11 H 0.3367 0.5867 0.3109
C10_11 C 0.37638(17) 0.81731(16) 0.45798(16)
C11_11 C 0.41773(17) 0.8153(3) 0.41773(17)
H4_11 H 0.4256 0.8346 0.4256
C12_11 C 0.39249(18) 0.80198(17) 0.43207(18)
C13_11 C 0.3815(2) 0.7734(2) 0.42145(19)
H5_11 H 0.3636 0.7640 0.4307
C14_11 C 0.3970(2) 0.7589(3) 0.3970(2)
C15_11 C 0.3863(3) 0.7286(3) 0.3863(3)
C16_11 C 0.3765(3) 0.7049(4) 0.3765(3)
C17_11 C 0.3622(4) 0.6781(4) 0.3622(4)
C18_11 C 0.3763(5) 0.6640(4) 0.3360(4)
N2_11 N 0.4038(9) 0.6729(6) 0.3271(6)
H6_11 H 0.4133 0.6891 0.3367
C19_11 C 0.18269(16) 0.54202(16) 0.37638(17)
C20_11 C 0.1847(3) 0.58227(17) 0.41773(17)
H7_11 H 0.1654 0.5744 0.4256
C21_11 C 0.19802(17) 0.56793(18) 0.39249(18)
C22_11 C 0.2266(2) 0.57855(19) 0.3815(2)
H8_11 H 0.2360 0.5693 0.3636
C23_11 C 0.2411(3) 0.6030(2) 0.3970(2)
C24_11 C 0.2714(3) 0.6137(3) 0.3863(3)
C25_11 C 0.2951(4) 0.6235(3) 0.3765(3)
C26_11 C 0.3219(4) 0.6378(4) 0.3622(4)
C27_11 C 0.3360(4) 0.6640(4) 0.3763(5)
N3_11 N 0.3271(6) 0.6729(6) 0.4038(9)
H9_11 H 0.3109 0.6633 0.4133
C28_11 C 0.18269(16) 0.62362(17) 0.45798(16)
C29_11 C 0.19802(17) 0.60751(18) 0.43207(18)
C30_11 C 0.2266(2) 0.6185(2) 0.42145(19)
H10_11 H 0.2360 0.6364 0.4307
H11_11 H 0.3109 0.5867 0.3367
C31_11 C 0.37638(17) 0.54202(16) 0.18269(16)
C32_11 C 0.39249(18) 0.56793(18) 0.19802(17)
C33_11 C 0.3815(2) 0.57855(19) 0.2266(2)
H12_11 H 0.3636 0.5693 0.2360
H13_11 H 0.4133 0.6633 0.3109
C34_11 C 0.45798(16) 0.81731(16) 0.37638(17)
C35_11 C 0.43207(18) 0.80198(17) 0.39249(18)
C36_11 C 0.42145(19) 0.7734(2) 0.3815(2)
H14_11 H 0.4307 0.7640 0.3636
H15_11 H 0.3367 0.6891 0.4133
C37_11 C 0.54202(16) 0.81731(16) 0.37638(17)
C38_11 C 0.58227(17) 0.8153(3) 0.41773(17)
H16_11 H 0.5744 0.8346 0.4256
C39_11 C 0.56793(18) 0.80198(17) 0.39249(18)
C40_11 C 0.57855(19) 0.7734(2) 0.3815(2)
H17_11 H 0.5693 0.7640 0.3636
C41_11 C 0.6030(2) 0.7589(3) 0.3970(2)
C42_11 C 0.6137(3) 0.7286(3) 0.3863(3)
C43_11 C 0.6235(3) 0.7049(4) 0.3765(3)
C44_11 C 0.6378(4) 0.6781(4) 0.3622(4)
C45_11 C 0.6640(4) 0.6640(4) 0.3763(5)
N4_11 N 0.6729(6) 0.6729(6) 0.4038(9)
H18_11 H 0.6633 0.6891 0.4133
C46_11 C 0.62362(17) 0.54202(16) 0.18269(16)
C47_11 C 0.58227(17) 0.58227(17) 0.1847(3)
H19_11 H 0.5744 0.5744 0.1654
C48_11 C 0.60751(18) 0.56793(18) 0.19802(17)
C49_11 C 0.6185(2) 0.57855(19) 0.2266(2)
H20_11 H 0.6364 0.5693 0.2360
C50_11 C 0.6030(2) 0.6030(2) 0.2411(3)
C51_11 C 0.6137(3) 0.6137(3) 0.2714(3)
C52_11 C 0.6235(3) 0.6235(3) 0.2951(4)
C53_11 C 0.6378(4) 0.6378(4) 0.3219(4)
C54_11 C 0.6237(5) 0.6640(4) 0.3360(4)
N5_11 N 0.5962(9) 0.6729(6) 0.3271(6)
H21_11 H 0.5867 0.6633 0.3109
O21_11 O 0.84310(12) 0.61224(11) 0.46817(12)
O22_11 O 0.80574(11) 0.64888(11) 0.46802(11)
C55_11 C 0.81731(16) 0.62362(17) 0.45798(16)
C56_11 C 0.8153(3) 0.58227(17) 0.41773(17)
H22_11 H 0.8346 0.5744 0.4256
C57_11 C 0.80198(17) 0.60751(18) 0.43207(18)
C58_11 C 0.7734(2) 0.6185(2) 0.42145(19)
H23_11 H 0.7640 0.6364 0.4307
C59_11 C 0.7589(3) 0.6030(2) 0.3970(2)
C60_11 C 0.7286(3) 0.6137(3) 0.3863(3)
C61_11 C 0.7049(4) 0.6235(3) 0.3765(3)
C62_11 C 0.6781(4) 0.6378(4) 0.3622(4)
C63_11 C 0.6640(4) 0.6237(5) 0.3360(4)
N6_11 N 0.6729(6) 0.5962(9) 0.3271(6)
H24_11 H 0.6891 0.5867 0.3367
C64_11 C 0.81731(16) 0.54202(16) 0.37638(17)
C65_11 C 0.80198(17) 0.56793(18) 0.39249(18)
C66_11 C 0.7734(2) 0.57855(19) 0.3815(2)
H25_11 H 0.7640 0.5693 0.3636
H26_11 H 0.6891 0.6633 0.4133
O25_11 O 0.61224(11) 0.84310(12) 0.46817(12)
O26_11 O 0.64888(11) 0.80574(11) 0.46802(11)
C67_11 C 0.62362(17) 0.81731(16) 0.45798(16)
C68_11 C 0.60751(18) 0.80198(17) 0.43207(18)
C69_11 C 0.6185(2) 0.7734(2) 0.42145(19)
H27_11 H 0.6364 0.7640 0.4307
H28_11 H 0.5867 0.6891 0.3367
C70_11 C 0.54202(16) 0.62362(17) 0.18269(16)
C71_11 C 0.56793(18) 0.60751(18) 0.19802(17)
C72_11 C 0.57855(19) 0.6185(2) 0.2266(2)
H29_11 H 0.5693 0.6364 0.2360
H30_11 H 0.6633 0.5867 0.3109
O29_28 O 0.90413(18) 0.59587(18) 0.5000
O30_28 O 0.78880(16) 0.71120(16) 0.5000
O32_11 O 0.88776(11) 0.65690(12) 0.53183(12)
O35_9 O 0.88776(11) 0.65690(12) 0.46817(12)
O39_11 O 0.85112(11) 0.69426(11) 0.53198(11)
O42_9 O 0.85112(11) 0.69426(11) 0.46802(11)
C1_12 C 0.45798(16) 0.37638(17) 0.81731(16)
C2_12 C 0.41773(17) 0.41773(17) 0.8153(3)
H1_12 H 0.4256 0.4256 0.8346
C3_12 C 0.43207(18) 0.39249(18) 0.80198(17)
C4_12 C 0.42145(19) 0.3815(2) 0.7734(2)
H2_12 H 0.4307 0.3636 0.7640
C5_12 C 0.3970(2) 0.3970(2) 0.7589(3)
C6_12 C 0.3863(3) 0.3863(3) 0.7286(3)
C7_12 C 0.3765(3) 0.3765(3) 0.7049(4)
C8_12 C 0.3622(4) 0.3622(4) 0.6781(4)
C9_12 C 0.3360(4) 0.3763(5) 0.6640(4)
N1_12 N 0.3271(6) 0.4038(9) 0.6729(6)
H3_12 H 0.3367 0.4133 0.6891
C10_12 C 0.37638(17) 0.18269(16) 0.54202(16)
C11_12 C 0.41773(17) 0.1847(3) 0.58227(17)
H4_12 H 0.4256 0.1654 0.5744
C12_12 C 0.39249(18) 0.19802(17) 0.56793(18)
C13_12 C 0.3815(2) 0.2266(2) 0.57855(19)
H5_12 H 0.3636 0.2360 0.5693
C14_12 C 0.3970(2) 0.2411(3) 0.6030(2)
C15_12 C 0.3863(3) 0.2714(3) 0.6137(3)
C16_12 C 0.3765(3) 0.2951(4) 0.6235(3)
C17_12 C 0.3622(4) 0.3219(4) 0.6378(4)
C18_12 C 0.3763(5) 0.3360(4) 0.6640(4)
N2_12 N 0.4038(9) 0.3271(6) 0.6729(6)
H6_12 H 0.4133 0.3109 0.6633
C19_12 C 0.18269(16) 0.45798(16) 0.62362(17)
C20_12 C 0.1847(3) 0.41773(17) 0.58227(17)
H7_12 H 0.1654 0.4256 0.5744
C21_12 C 0.19802(17) 0.43207(18) 0.60751(18)
C22_12 C 0.2266(2) 0.42145(19) 0.6185(2)
H8_12 H 0.2360 0.4307 0.6364
C23_12 C 0.2411(3) 0.3970(2) 0.6030(2)
C24_12 C 0.2714(3) 0.3863(3) 0.6137(3)
C25_12 C 0.2951(4) 0.3765(3) 0.6235(3)
C26_12 C 0.3219(4) 0.3622(4) 0.6378(4)
C27_12 C 0.3360(4) 0.3360(4) 0.6237(5)
N3_12 N 0.3271(6) 0.3271(6) 0.5962(9)
H9_12 H 0.3109 0.3367 0.5867
C28_12 C 0.18269(16) 0.37638(17) 0.54202(16)
C29_12 C 0.19802(17) 0.39249(18) 0.56793(18)
C30_12 C 0.2266(2) 0.3815(2) 0.57855(19)
H10_12 H 0.2360 0.3636 0.5693
H11_12 H 0.3109 0.4133 0.6633
C31_12 C 0.37638(17) 0.45798(16) 0.81731(16)
C32_12 C 0.39249(18) 0.43207(18) 0.80198(17)
C33_12 C 0.3815(2) 0.42145(19) 0.7734(2)
H12_12 H 0.3636 0.4307 0.7640
H13_12 H 0.4133 0.3367 0.6891
C34_12 C 0.45798(16) 0.18269(16) 0.62362(17)
C35_12 C 0.43207(18) 0.19802(17) 0.60751(18)
C36_12 C 0.42145(19) 0.2266(2) 0.6185(2)
H14_12 H 0.4307 0.2360 0.6364
H15_12 H 0.3367 0.3109 0.5867
C37_12 C 0.54202(16) 0.18269(16) 0.62362(17)
C38_12 C 0.58227(17) 0.1847(3) 0.58227(17)
H16_12 H 0.5744 0.1654 0.5744
C39_12 C 0.56793(18) 0.19802(17) 0.60751(18)
C40_12 C 0.57855(19) 0.2266(2) 0.6185(2)
H17_12 H 0.5693 0.2360 0.6364
C41_12 C 0.6030(2) 0.2411(3) 0.6030(2)
C42_12 C 0.6137(3) 0.2714(3) 0.6137(3)
C43_12 C 0.6235(3) 0.2951(4) 0.6235(3)
C44_12 C 0.6378(4) 0.3219(4) 0.6378(4)
C45_12 C 0.6640(4) 0.3360(4) 0.6237(5)
N4_12 N 0.6729(6) 0.3271(6) 0.5962(9)
H18_12 H 0.6633 0.3109 0.5867
O19_11 O 0.61224(11) 0.46817(12) 0.84310(12)
O20_11 O 0.64888(11) 0.46802(11) 0.80574(11)
C46_12 C 0.62362(17) 0.45798(16) 0.81731(16)
C47_12 C 0.58227(17) 0.41773(17) 0.8153(3)
H19_12 H 0.5744 0.4256 0.8346
C48_12 C 0.60751(18) 0.43207(18) 0.80198(17)
C49_12 C 0.6185(2) 0.42145(19) 0.7734(2)
H20_12 H 0.6364 0.4307 0.7640
C50_12 C 0.6030(2) 0.3970(2) 0.7589(3)
C51_12 C 0.6137(3) 0.3863(3) 0.7286(3)
C52_12 C 0.6235(3) 0.3765(3) 0.7049(4)
C53_12 C 0.6378(4) 0.3622(4) 0.6781(4)
C54_12 C 0.6237(5) 0.3360(4) 0.6640(4)
N5_12 N 0.5962(9) 0.3271(6) 0.6729(6)
H21_12 H 0.5867 0.3367 0.6891
C55_12 C 0.81731(16) 0.37638(17) 0.54202(16)
C56_12 C 0.8153(3) 0.41773(17) 0.58227(17)
H22_12 H 0.8346 0.4256 0.5744
C57_12 C 0.80198(17) 0.39249(18) 0.56793(18)
C58_12 C 0.7734(2) 0.3815(2) 0.57855(19)
H23_12 H 0.7640 0.3636 0.5693
C59_12 C 0.7589(3) 0.3970(2) 0.6030(2)
C60_12 C 0.7286(3) 0.3863(3) 0.6137(3)
C61_12 C 0.7049(4) 0.3765(3) 0.6235(3)
C62_12 C 0.6781(4) 0.3622(4) 0.6378(4)
C63_12 C 0.6640(4) 0.3763(5) 0.6640(4)
N6_12 N 0.6729(6) 0.4038(9) 0.6729(6)
H24_12 H 0.6891 0.4133 0.6633
C64_12 C 0.81731(16) 0.45798(16) 0.62362(17)
C65_12 C 0.80198(17) 0.43207(18) 0.60751(18)
C66_12 C 0.7734(2) 0.42145(19) 0.6185(2)
H25_12 H 0.7640 0.4307 0.6364
H26_12 H 0.6891 0.3367 0.5867
C67_12 C 0.62362(17) 0.18269(16) 0.54202(16)
C68_12 C 0.60751(18) 0.19802(17) 0.56793(18)
C69_12 C 0.6185(2) 0.2266(2) 0.57855(19)
H27_12 H 0.6364 0.2360 0.5693
H28_12 H 0.5867 0.3109 0.6633
C70_12 C 0.54202(16) 0.37638(17) 0.81731(16)
C71_12 C 0.56793(18) 0.39249(18) 0.80198(17)
C72_12 C 0.57855(19) 0.3815(2) 0.7734(2)
H29_12 H 0.5693 0.3636 0.7640
H30_12 H 0.6633 0.4133 0.6891
O15_13 O 0.59587(18) 0.59587(18) 0.0000
O17_13 O 0.71120(16) 0.71120(16) 0.0000
C1_13 C 0.87638(17) 0.81731(16) 0.95798(16)
C2_13 C 0.91773(17) 0.8153(3) 0.91773(17)
H1_13 H 0.9256 0.8346 0.9256
C3_13 C 0.89249(18) 0.80198(17) 0.93207(18)
C4_13 C 0.8815(2) 0.7734(2) 0.92145(19)
H2_13 H 0.8636 0.7640 0.9307
C5_13 C 0.8970(2) 0.7589(3) 0.8970(2)
C6_13 C 0.8863(3) 0.7286(3) 0.8863(3)
C7_13 C 0.8765(3) 0.7049(4) 0.8765(3)
C8_13 C 0.8622(4) 0.6781(4) 0.8622(4)
C9_13 C 0.8763(5) 0.6640(4) 0.8360(4)
N1_13 N 0.9038(9) 0.6729(6) 0.8271(6)
H3_13 H 0.9133 0.6891 0.8367
O5_10 O 0.65690(12) 0.53183(12) 0.88776(11)
O6_10 O 0.69426(11) 0.53198(11) 0.85112(11)
C10_13 C 0.68269(16) 0.54202(16) 0.87638(17)
C11_13 C 0.6847(3) 0.58227(17) 0.91773(17)
H4_13 H 0.6654 0.5744 0.9256
C12_13 C 0.69802(17) 0.56793(18) 0.89249(18)
C13_13 C 0.7266(2) 0.57855(19) 0.8815(2)
H5_13 H 0.7360 0.5693 0.8636
C14_13 C 0.7411(3) 0.6030(2) 0.8970(2)
C15_13 C 0.7714(3) 0.6137(3) 0.8863(3)
C16_13 C 0.7951(4) 0.6235(3) 0.8765(3)
C17_13 C 0.8219(4) 0.6378(4) 0.8622(4)
C18_13 C 0.8360(4) 0.6640(4) 0.8763(5)
N2_13 N 0.8271(6) 0.6729(6) 0.9038(9)
H6_13 H 0.8109 0.6633 0.9133
O7_8 O 0.96817(12) 0.61224(11) 0.65690(12)
O8_8 O 0.96802(11) 0.64888(11) 0.69426(11)
C19_13 C 0.95798(16) 0.62362(17) 0.68269(16)
C20_13 C 0.91773(17) 0.58227(17) 0.6847(3)
H7_13 H 0.9256 0.5744 0.6654
C21_13 C 0.93207(18) 0.60751(18) 0.69802(17)
C22_13 C 0.92145(19) 0.6185(2) 0.7266(2)
H8_13 H 0.9307 0.6364 0.7360
C23_13 C 0.8970(2) 0.6030(2) 0.7411(3)
C24_13 C 0.8863(3) 0.6137(3) 0.7714(3)
C25_13 C 0.8765(3) 0.6235(3) 0.7951(4)
C26_13 C 0.8622(4) 0.6378(4) 0.8219(4)
C27_13 C 0.8360(4) 0.6237(5) 0.8360(4)
N3_13 N 0.8271(6) 0.5962(9) 0.8271(6)
H9_13 H 0.8367 0.5867 0.8109
C28_13 C 0.87638(17) 0.54202(16) 0.68269(16)
C29_13 C 0.89249(18) 0.56793(18) 0.69802(17)
C30_13 C 0.8815(2) 0.57855(19) 0.7266(2)
H10_13 H 0.8636 0.5693 0.7360
H11_13 H 0.9133 0.6633 0.8109
C31_13 C 0.95798(16) 0.81731(16) 0.87638(17)
C32_13 C 0.93207(18) 0.80198(17) 0.89249(18)
C33_13 C 0.92145(19) 0.7734(2) 0.8815(2)
H12_13 H 0.9307 0.7640 0.8636
H13_13 H 0.8367 0.6891 0.9133
O13_11 O 0.65690(12) 0.61224(11) 0.96817(12)
O14_11 O 0.69426(11) 0.64888(11) 0.96802(11)
C34_13 C 0.68269(16) 0.62362(17) 0.95798(16)
C35_13 C 0.69802(17) 0.60751(18) 0.93207(18)
C36_13 C 0.7266(2) 0.6185(2) 0.92145(19)
H14_13 H 0.7360 0.6364 0.9307
H15_13 H 0.8109 0.5867 0.8367
O15_14 O 0.59587(18) 0.59587(18) 1.0000
O17_14 O 0.71120(16) 0.71120(16) 1.0000
O31_12 O 0.61224(11) 0.65690(12) 0.96817(12)
O38_12 O 0.64888(11) 0.69426(11) 0.96802(11)
O15_15 O 0.40413(18) 0.40413(18) 0.0000
O17_15 O 0.28880(16) 0.28880(16) 0.0000
O15_16 O 0.40413(18) 0.40413(18) 1.0000
O17_16 O 0.28880(16) 0.28880(16) 1.0000
O1_13 O 0.40413(18) 0.0000 0.40413(18)
O3_13 O 0.28880(16) 0.0000 0.28880(16)
O29_29 O 0.0000 0.40413(18) 0.40413(18)
O30_29 O 0.0000 0.28880(16) 0.28880(16)
O1_14 O 0.40413(18) 1.0000 0.40413(18)
O3_14 O 0.28880(16) 1.0000 0.28880(16)
O29_30 O 1.0000 0.40413(18) 0.40413(18)
O30_30 O 1.0000 0.28880(16) 0.28880(16)
O29_31 O -0.0000 0.59587(18) 0.59587(18)
O30_31 O -0.0000 0.71120(16) 0.71120(16)
O29_32 O 1.0000 0.59587(18) 0.59587(18)
O30_32 O 1.0000 0.71120(16) 0.71120(16)
O37_10 O 0.96817(12) 0.65690(12) 0.61224(11)
O44_10 O 0.96802(11) 0.69426(11) 0.64888(11)
O29_33 O -0.0000 0.40413(18) 0.59587(18)
O30_33 O 0.0000 0.28880(16) 0.71120(16)
O1_15 O 0.59587(18) -0.0000 0.59587(18)
O3_15 O 0.71120(16) 0.0000 0.71120(16)
O29_34 O 1.0000 0.40413(18) 0.59587(18)
O30_34 O 1.0000 0.28880(16) 0.71120(16)
O35_10 O 0.96817(12) 0.38776(11) 0.65690(12)
O42_10 O 0.96802(11) 0.35112(11) 0.69426(11)
O1_16 O 0.59587(18) 1.0000 0.59587(18)
O2_11 O 0.65690(12) 0.96817(12) 0.61224(11)
O3_16 O 0.71120(16) 1.0000 0.71120(16)
O4_11 O 0.69426(11) 0.96802(11) 0.64888(11)
C1_14 C 0.68269(16) 0.95798(16) 0.62362(17)
C2_14 C 0.6847(3) 0.91773(17) 0.58227(17)
H1_14 H 0.6654 0.9256 0.5744
C3_14 C 0.69802(17) 0.93207(18) 0.60751(18)
C4_14 C 0.7266(2) 0.92145(19) 0.6185(2)
H2_14 H 0.7360 0.9307 0.6364
C5_14 C 0.7411(3) 0.8970(2) 0.6030(2)
C6_14 C 0.7714(3) 0.8863(3) 0.6137(3)
C7_14 C 0.7951(4) 0.8765(3) 0.6235(3)
C8_14 C 0.8219(4) 0.8622(4) 0.6378(4)
C9_14 C 0.8360(4) 0.8360(4) 0.6237(5)
N1_14 N 0.8271(6) 0.8271(6) 0.5962(9)
H3_14 H 0.8109 0.8367 0.5867
C10_14 C 0.95798(16) 0.87638(17) 0.81731(16)
C11_14 C 0.91773(17) 0.91773(17) 0.8153(3)
H4_14 H 0.9256 0.9256 0.8346
C12_14 C 0.93207(18) 0.89249(18) 0.80198(17)
C13_14 C 0.92145(19) 0.8815(2) 0.7734(2)
H5_14 H 0.9307 0.8636 0.7640
C14_14 C 0.8970(2) 0.8970(2) 0.7589(3)
C15_14 C 0.8863(3) 0.8863(3) 0.7286(3)
C16_14 C 0.8765(3) 0.8765(3) 0.7049(4)
C17_14 C 0.8622(4) 0.8622(4) 0.6781(4)
C18_14 C 0.8360(4) 0.8763(5) 0.6640(4)
N2_14 N 0.8271(6) 0.9038(9) 0.6729(6)
H6_14 H 0.8367 0.9133 0.6891
C19_14 C 0.87638(17) 0.68269(16) 0.54202(16)
C20_14 C 0.91773(17) 0.6847(3) 0.58227(17)
H7_14 H 0.9256 0.6654 0.5744
C21_14 C 0.89249(18) 0.69802(17) 0.56793(18)
C22_14 C 0.8815(2) 0.7266(2) 0.57855(19)
H8_14 H 0.8636 0.7360 0.5693
C23_14 C 0.8970(2) 0.7411(3) 0.6030(2)
C24_14 C 0.8863(3) 0.7714(3) 0.6137(3)
C25_14 C 0.8765(3) 0.7951(4) 0.6235(3)
C26_14 C 0.8622(4) 0.8219(4) 0.6378(4)
C27_14 C 0.8763(5) 0.8360(4) 0.6640(4)
N3_14 N 0.9038(9) 0.8271(6) 0.6729(6)
H9_14 H 0.9133 0.8109 0.6633
C28_14 C 0.95798(16) 0.68269(16) 0.62362(17)
C29_14 C 0.93207(18) 0.69802(17) 0.60751(18)
C30_14 C 0.92145(19) 0.7266(2) 0.6185(2)
H10_14 H 0.9307 0.7360 0.6364
H11_14 H 0.8367 0.8109 0.5867
O11_10 O 0.65690(12) 0.88776(11) 0.53183(12)
O12_10 O 0.69426(11) 0.85112(11) 0.53198(11)
C31_14 C 0.68269(16) 0.87638(17) 0.54202(16)
C32_14 C 0.69802(17) 0.89249(18) 0.56793(18)
C33_14 C 0.7266(2) 0.8815(2) 0.57855(19)
H12_14 H 0.7360 0.8636 0.5693
H13_14 H 0.8109 0.9133 0.6633
C34_14 C 0.87638(17) 0.95798(16) 0.81731(16)
C35_14 C 0.89249(18) 0.93207(18) 0.80198(17)
C36_14 C 0.8815(2) 0.92145(19) 0.7734(2)
H14_14 H 0.8636 0.9307 0.7640
H15_14 H 0.9133 0.8367 0.6891
O36_12 O 0.61224(11) 0.96817(12) 0.65690(12)
O43_12 O 0.64888(11) 0.96802(11) 0.69426(11)
O1_17 O 0.59587(18) 0.5000 0.90413(18)
O3_17 O 0.71120(16) 0.5000 0.78880(16)
O29_35 O 0.59587(18) 0.90413(18) 0.5000
O30_35 O 0.71120(16) 0.78880(16) 0.5000
O32_12 O 0.65690(12) 0.88776(11) 0.46817(12)
O36_13 O 0.65690(12) 0.46817(12) 0.88776(11)
O39_12 O 0.69426(11) 0.85112(11) 0.46802(11)
O43_13 O 0.69426(11) 0.46802(11) 0.85112(11)
O15_17 O 0.59587(18) 0.40413(18) 0.0000
O17_17 O 0.71120(16) 0.28880(16) 0.0000
O15_18 O 0.59587(18) 0.40413(18) 1.0000
O17_18 O 0.71120(16) 0.28880(16) 1.0000
O31_13 O 0.65690(12) 0.38776(11) 0.96817(12)
O38_13 O 0.69426(11) 0.35112(11) 0.96802(11)
O29_36 O 0.59587(18) -0.0000 0.40413(18)
O30_36 O 0.71120(16) 0.0000 0.28880(16)
O29_37 O 0.59587(18) 1.0000 0.40413(18)
O30_37 O 0.71120(16) 1.0000 0.28880(16)
O35_11 O 0.65690(12) 0.96817(12) 0.38776(11)
O42_11 O 0.69426(11) 0.96802(11) 0.35112(11)
C1_15 C 0.62362(17) 0.68269(16) 0.95798(16)
C2_15 C 0.58227(17) 0.6847(3) 0.91773(17)
H1_15 H 0.5744 0.6654 0.9256
C3_15 C 0.60751(18) 0.69802(17) 0.93207(18)
C4_15 C 0.6185(2) 0.7266(2) 0.92145(19)
H2_15 H 0.6364 0.7360 0.9307
C5_15 C 0.6030(2) 0.7411(3) 0.8970(2)
C6_15 C 0.6137(3) 0.7714(3) 0.8863(3)
C7_15 C 0.6235(3) 0.7951(4) 0.8765(3)
C8_15 C 0.6378(4) 0.8219(4) 0.8622(4)
C9_15 C 0.6237(5) 0.8360(4) 0.8360(4)
N1_15 N 0.5962(9) 0.8271(6) 0.8271(6)
H3_15 H 0.5867 0.8109 0.8367
C10_15 C 0.81731(16) 0.95798(16) 0.87638(17)
C11_15 C 0.8153(3) 0.91773(17) 0.91773(17)
H4_15 H 0.8346 0.9256 0.9256
C12_15 C 0.80198(17) 0.93207(18) 0.89249(18)
C13_15 C 0.7734(2) 0.92145(19) 0.8815(2)
H5_15 H 0.7640 0.9307 0.8636
C14_15 C 0.7589(3) 0.8970(2) 0.8970(2)
C15_15 C 0.7286(3) 0.8863(3) 0.8863(3)
C16_15 C 0.7049(4) 0.8765(3) 0.8765(3)
C17_15 C 0.6781(4) 0.8622(4) 0.8622(4)
C18_15 C 0.6640(4) 0.8360(4) 0.8763(5)
N2_15 N 0.6729(6) 0.8271(6) 0.9038(9)
H6_15 H 0.6891 0.8367 0.9133
C19_15 C 0.54202(16) 0.87638(17) 0.68269(16)
C20_15 C 0.58227(17) 0.91773(17) 0.6847(3)
H7_15 H 0.5744 0.9256 0.6654
C21_15 C 0.56793(18) 0.89249(18) 0.69802(17)
C22_15 C 0.57855(19) 0.8815(2) 0.7266(2)
H8_15 H 0.5693 0.8636 0.7360
C23_15 C 0.6030(2) 0.8970(2) 0.7411(3)
C24_15 C 0.6137(3) 0.8863(3) 0.7714(3)
C25_15 C 0.6235(3) 0.8765(3) 0.7951(4)
C26_15 C 0.6378(4) 0.8622(4) 0.8219(4)
C27_15 C 0.6640(4) 0.8763(5) 0.8360(4)
N3_15 N 0.6729(6) 0.9038(9) 0.8271(6)
H9_15 H 0.6633 0.9133 0.8109
C28_15 C 0.62362(17) 0.95798(16) 0.68269(16)
C29_15 C 0.60751(18) 0.93207(18) 0.69802(17)
C30_15 C 0.6185(2) 0.92145(19) 0.7266(2)
H10_15 H 0.6364 0.9307 0.7360
H11_15 H 0.5867 0.8367 0.8109
C31_15 C 0.54202(16) 0.68269(16) 0.87638(17)
C32_15 C 0.56793(18) 0.69802(17) 0.89249(18)
C33_15 C 0.57855(19) 0.7266(2) 0.8815(2)
H12_15 H 0.5693 0.7360 0.8636
H13_15 H 0.6633 0.8109 0.9133
C34_15 C 0.81731(16) 0.87638(17) 0.95798(16)
C35_15 C 0.80198(17) 0.89249(18) 0.93207(18)
C36_15 C 0.7734(2) 0.8815(2) 0.92145(19)
H14_15 H 0.7640 0.8636 0.9307
H15_15 H 0.6891 0.9133 0.8367
C1_16 C 0.81731(16) 0.45798(16) 0.37638(17)
C2_16 C 0.8153(3) 0.41773(17) 0.41773(17)
H1_16 H 0.8346 0.4256 0.4256
C3_16 C 0.80198(17) 0.43207(18) 0.39249(18)
C4_16 C 0.7734(2) 0.42145(19) 0.3815(2)
H2_16 H 0.7640 0.4307 0.3636
C5_16 C 0.7589(3) 0.3970(2) 0.3970(2)
C6_16 C 0.7286(3) 0.3863(3) 0.3863(3)
C7_16 C 0.7049(4) 0.3765(3) 0.3765(3)
C8_16 C 0.6781(4) 0.3622(4) 0.3622(4)
C9_16 C 0.6640(4) 0.3360(4) 0.3763(5)
N1_16 N 0.6729(6) 0.3271(6) 0.4038(9)
H3_16 H 0.6891 0.3367 0.4133
C10_16 C 0.54202(16) 0.37638(17) 0.18269(16)
C11_16 C 0.58227(17) 0.41773(17) 0.1847(3)
H4_16 H 0.5744 0.4256 0.1654
C12_16 C 0.56793(18) 0.39249(18) 0.19802(17)
C13_16 C 0.57855(19) 0.3815(2) 0.2266(2)
H5_16 H 0.5693 0.3636 0.2360
C14_16 C 0.6030(2) 0.3970(2) 0.2411(3)
C15_16 C 0.6137(3) 0.3863(3) 0.2714(3)
C16_16 C 0.6235(3) 0.3765(3) 0.2951(4)
C17_16 C 0.6378(4) 0.3622(4) 0.3219(4)
C18_16 C 0.6640(4) 0.3763(5) 0.3360(4)
N2_16 N 0.6729(6) 0.4038(9) 0.3271(6)
H6_16 H 0.6633 0.4133 0.3109
C19_16 C 0.62362(17) 0.18269(16) 0.45798(16)
C20_16 C 0.58227(17) 0.1847(3) 0.41773(17)
H7_16 H 0.5744 0.1654 0.4256
C21_16 C 0.60751(18) 0.19802(17) 0.43207(18)
C22_16 C 0.6185(2) 0.2266(2) 0.42145(19)
H8_16 H 0.6364 0.2360 0.4307
C23_16 C 0.6030(2) 0.2411(3) 0.3970(2)
C24_16 C 0.6137(3) 0.2714(3) 0.3863(3)
C25_16 C 0.6235(3) 0.2951(4) 0.3765(3)
C26_16 C 0.6378(4) 0.3219(4) 0.3622(4)
C27_16 C 0.6237(5) 0.3360(4) 0.3360(4)
N3_16 N 0.5962(9) 0.3271(6) 0.3271(6)
H9_16 H 0.5867 0.3109 0.3367
C28_16 C 0.54202(16) 0.18269(16) 0.37638(17)
C29_16 C 0.56793(18) 0.19802(17) 0.39249(18)
C30_16 C 0.57855(19) 0.2266(2) 0.3815(2)
H10_16 H 0.5693 0.2360 0.3636
H11_16 H 0.6633 0.3109 0.4133
C31_16 C 0.81731(16) 0.37638(17) 0.45798(16)
C32_16 C 0.80198(17) 0.39249(18) 0.43207(18)
C33_16 C 0.7734(2) 0.3815(2) 0.42145(19)
H12_16 H 0.7640 0.3636 0.4307
H13_16 H 0.6891 0.4133 0.3367
C34_16 C 0.62362(17) 0.45798(16) 0.18269(16)
C35_16 C 0.60751(18) 0.43207(18) 0.19802(17)
C36_16 C 0.6185(2) 0.42145(19) 0.2266(2)
H14_16 H 0.6364 0.4307 0.2360
H15_16 H 0.5867 0.3367 0.3109
C1_17 C 0.87638(17) 0.45798(16) 0.68269(16)
C2_17 C 0.91773(17) 0.41773(17) 0.6847(3)
H1_17 H 0.9256 0.4256 0.6654
C3_17 C 0.89249(18) 0.43207(18) 0.69802(17)
C4_17 C 0.8815(2) 0.42145(19) 0.7266(2)
H2_17 H 0.8636 0.4307 0.7360
C5_17 C 0.8970(2) 0.3970(2) 0.7411(3)
C6_17 C 0.8863(3) 0.3863(3) 0.7714(3)
C7_17 C 0.8765(3) 0.3765(3) 0.7951(4)
C8_17 C 0.8622(4) 0.3622(4) 0.8219(4)
C9_17 C 0.8763(5) 0.3360(4) 0.8360(4)
N1_17 N 0.9038(9) 0.3271(6) 0.8271(6)
H3_17 H 0.9133 0.3367 0.8109
C10_17 C 0.68269(16) 0.37638(17) 0.95798(16)
C11_17 C 0.6847(3) 0.41773(17) 0.91773(17)
H4_17 H 0.6654 0.4256 0.9256
C12_17 C 0.69802(17) 0.39249(18) 0.93207(18)
C13_17 C 0.7266(2) 0.3815(2) 0.92145(19)
H5_17 H 0.7360 0.3636 0.9307
C14_17 C 0.7411(3) 0.3970(2) 0.8970(2)
C15_17 C 0.7714(3) 0.3863(3) 0.8863(3)
C16_17 C 0.7951(4) 0.3765(3) 0.8765(3)
C17_17 C 0.8219(4) 0.3622(4) 0.8622(4)
C18_17 C 0.8360(4) 0.3763(5) 0.8360(4)
N2_17 N 0.8271(6) 0.4038(9) 0.8271(6)
H6_17 H 0.8109 0.4133 0.8367
C19_17 C 0.95798(16) 0.18269(16) 0.87638(17)
C20_17 C 0.91773(17) 0.1847(3) 0.91773(17)
H7_17 H 0.9256 0.1654 0.9256
C21_17 C 0.93207(18) 0.19802(17) 0.89249(18)
C22_17 C 0.92145(19) 0.2266(2) 0.8815(2)
H8_17 H 0.9307 0.2360 0.8636
C23_17 C 0.8970(2) 0.2411(3) 0.8970(2)
C24_17 C 0.8863(3) 0.2714(3) 0.8863(3)
C25_17 C 0.8765(3) 0.2951(4) 0.8765(3)
C26_17 C 0.8622(4) 0.3219(4) 0.8622(4)
C27_17 C 0.8360(4) 0.3360(4) 0.8763(5)
N3_17 N 0.8271(6) 0.3271(6) 0.9038(9)
H9_17 H 0.8367 0.3109 0.9133
C28_17 C 0.87638(17) 0.18269(16) 0.95798(16)
C29_17 C 0.89249(18) 0.19802(17) 0.93207(18)
C30_17 C 0.8815(2) 0.2266(2) 0.92145(19)
H10_17 H 0.8636 0.2360 0.9307
H11_17 H 0.9133 0.3109 0.8367
C31_17 C 0.95798(16) 0.37638(17) 0.68269(16)
C32_17 C 0.93207(18) 0.39249(18) 0.69802(17)
C33_17 C 0.92145(19) 0.3815(2) 0.7266(2)
H12_17 H 0.9307 0.3636 0.7360
H13_17 H 0.8367 0.4133 0.8109
C34_17 C 0.68269(16) 0.45798(16) 0.87638(17)
C35_17 C 0.69802(17) 0.43207(18) 0.89249(18)
C36_17 C 0.7266(2) 0.42145(19) 0.8815(2)
H14_17 H 0.7360 0.4307 0.8636
H15_17 H 0.8109 0.3367 0.9133
C1_18 C 0.68269(16) 0.87638(17) 0.45798(16)
C2_18 C 0.6847(3) 0.91773(17) 0.41773(17)
H1_18 H 0.6654 0.9256 0.4256
C3_18 C 0.69802(17) 0.89249(18) 0.43207(18)
C4_18 C 0.7266(2) 0.8815(2) 0.42145(19)
H2_18 H 0.7360 0.8636 0.4307
C5_18 C 0.7411(3) 0.8970(2) 0.3970(2)
C6_18 C 0.7714(3) 0.8863(3) 0.3863(3)
C7_18 C 0.7951(4) 0.8765(3) 0.3765(3)
C8_18 C 0.8219(4) 0.8622(4) 0.3622(4)
C9_18 C 0.8360(4) 0.8763(5) 0.3360(4)
N1_18 N 0.8271(6) 0.9038(9) 0.3271(6)
H3_18 H 0.8109 0.9133 0.3367
C10_18 C 0.95798(16) 0.68269(16) 0.37638(17)
C11_18 C 0.91773(17) 0.6847(3) 0.41773(17)
H4_18 H 0.9256 0.6654 0.4256
C12_18 C 0.93207(18) 0.69802(17) 0.39249(18)
C13_18 C 0.92145(19) 0.7266(2) 0.3815(2)
H5_18 H 0.9307 0.7360 0.3636
C14_18 C 0.8970(2) 0.7411(3) 0.3970(2)
C15_18 C 0.8863(3) 0.7714(3) 0.3863(3)
C16_18 C 0.8765(3) 0.7951(4) 0.3765(3)
C17_18 C 0.8622(4) 0.8219(4) 0.3622(4)
C18_18 C 0.8360(4) 0.8360(4) 0.3763(5)
N2_18 N 0.8271(6) 0.8271(6) 0.4038(9)
H6_18 H 0.8367 0.8109 0.4133
C19_18 C 0.87638(17) 0.95798(16) 0.18269(16)
C20_18 C 0.91773(17) 0.91773(17) 0.1847(3)
H7_18 H 0.9256 0.9256 0.1654
C21_18 C 0.89249(18) 0.93207(18) 0.19802(17)
C22_18 C 0.8815(2) 0.92145(19) 0.2266(2)
H8_18 H 0.8636 0.9307 0.2360
C23_18 C 0.8970(2) 0.8970(2) 0.2411(3)
C24_18 C 0.8863(3) 0.8863(3) 0.2714(3)
C25_18 C 0.8765(3) 0.8765(3) 0.2951(4)
C26_18 C 0.8622(4) 0.8622(4) 0.3219(4)
C27_18 C 0.8763(5) 0.8360(4) 0.3360(4)
N3_18 N 0.9038(9) 0.8271(6) 0.3271(6)
H9_18 H 0.9133 0.8367 0.3109
C28_18 C 0.95798(16) 0.87638(17) 0.18269(16)
C29_18 C 0.93207(18) 0.89249(18) 0.19802(17)
C30_18 C 0.92145(19) 0.8815(2) 0.2266(2)
H10_18 H 0.9307 0.8636 0.2360
H11_18 H 0.8367 0.9133 0.3109
C31_18 C 0.68269(16) 0.95798(16) 0.37638(17)
C32_18 C 0.69802(17) 0.93207(18) 0.39249(18)
C33_18 C 0.7266(2) 0.92145(19) 0.3815(2)
H12_18 H 0.7360 0.9307 0.3636
H13_18 H 0.8109 0.8367 0.4133
C34_18 C 0.87638(17) 0.68269(16) 0.45798(16)
C35_18 C 0.89249(18) 0.69802(17) 0.43207(18)
C36_18 C 0.8815(2) 0.7266(2) 0.42145(19)
H14_18 H 0.8636 0.7360 0.4307
H15_18 H 0.9133 0.8109 0.3367
C1_19 C 0.45798(16) 0.68269(16) 0.87638(17)
C2_19 C 0.41773(17) 0.6847(3) 0.91773(17)
H1_19 H 0.4256 0.6654 0.9256
C3_19 C 0.43207(18) 0.69802(17) 0.89249(18)
C4_19 C 0.42145(19) 0.7266(2) 0.8815(2)
H2_19 H 0.4307 0.7360 0.8636
C5_19 C 0.3970(2) 0.7411(3) 0.8970(2)
C6_19 C 0.3863(3) 0.7714(3) 0.8863(3)
C7_19 C 0.3765(3) 0.7951(4) 0.8765(3)
C8_19 C 0.3622(4) 0.8219(4) 0.8622(4)
C9_19 C 0.3360(4) 0.8360(4) 0.8763(5)
N1_19 N 0.3271(6) 0.8271(6) 0.9038(9)
H3_19 H 0.3367 0.8109 0.9133
C10_19 C 0.37638(17) 0.95798(16) 0.68269(16)
C11_19 C 0.41773(17) 0.91773(17) 0.6847(3)
H4_19 H 0.4256 0.9256 0.6654
C12_19 C 0.39249(18) 0.93207(18) 0.69802(17)
C13_19 C 0.3815(2) 0.92145(19) 0.7266(2)
H5_19 H 0.3636 0.9307 0.7360
C14_19 C 0.3970(2) 0.8970(2) 0.7411(3)
C15_19 C 0.3863(3) 0.8863(3) 0.7714(3)
C16_19 C 0.3765(3) 0.8765(3) 0.7951(4)
C17_19 C 0.3622(4) 0.8622(4) 0.8219(4)
C18_19 C 0.3763(5) 0.8360(4) 0.8360(4)
N2_19 N 0.4038(9) 0.8271(6) 0.8271(6)
H6_19 H 0.4133 0.8367 0.8109
C19_19 C 0.18269(16) 0.87638(17) 0.95798(16)
C20_19 C 0.1847(3) 0.91773(17) 0.91773(17)
H7_19 H 0.1654 0.9256 0.9256
C21_19 C 0.19802(17) 0.89249(18) 0.93207(18)
C22_19 C 0.2266(2) 0.8815(2) 0.92145(19)
H8_19 H 0.2360 0.8636 0.9307
C23_19 C 0.2411(3) 0.8970(2) 0.8970(2)
C24_19 C 0.2714(3) 0.8863(3) 0.8863(3)
C25_19 C 0.2951(4) 0.8765(3) 0.8765(3)
C26_19 C 0.3219(4) 0.8622(4) 0.8622(4)
C27_19 C 0.3360(4) 0.8763(5) 0.8360(4)
N3_19 N 0.3271(6) 0.9038(9) 0.8271(6)
H9_19 H 0.3109 0.9133 0.8367
C28_19 C 0.18269(16) 0.95798(16) 0.87638(17)
C29_19 C 0.19802(17) 0.93207(18) 0.89249(18)
C30_19 C 0.2266(2) 0.92145(19) 0.8815(2)
H10_19 H 0.2360 0.9307 0.8636
H11_19 H 0.3109 0.8367 0.9133
C31_19 C 0.37638(17) 0.68269(16) 0.95798(16)
C32_19 C 0.39249(18) 0.69802(17) 0.93207(18)
C33_19 C 0.3815(2) 0.7266(2) 0.92145(19)
H12_19 H 0.3636 0.7360 0.9307
H13_19 H 0.4133 0.8109 0.8367
C34_19 C 0.45798(16) 0.87638(17) 0.68269(16)
C35_19 C 0.43207(18) 0.89249(18) 0.69802(17)
C36_19 C 0.42145(19) 0.8815(2) 0.7266(2)
H14_19 H 0.4307 0.8636 0.7360
H15_19 H 0.3367 0.9133 0.8109
C1_20 C 0.45798(16) 0.18269(16) 0.37638(17)
C2_20 C 0.41773(17) 0.1847(3) 0.41773(17)
H1_20 H 0.4256 0.1654 0.4256
C3_20 C 0.43207(18) 0.19802(17) 0.39249(18)
C4_20 C 0.42145(19) 0.2266(2) 0.3815(2)
H2_20 H 0.4307 0.2360 0.3636
C5_20 C 0.3970(2) 0.2411(3) 0.3970(2)
C6_20 C 0.3863(3) 0.2714(3) 0.3863(3)
C7_20 C 0.3765(3) 0.2951(4) 0.3765(3)
C8_20 C 0.3622(4) 0.3219(4) 0.3622(4)
C9_20 C 0.3360(4) 0.3360(4) 0.3763(5)
N1_20 N 0.3271(6) 0.3271(6) 0.4038(9)
H3_20 H 0.3367 0.3109 0.4133
C10_20 C 0.37638(17) 0.45798(16) 0.18269(16)
C11_20 C 0.41773(17) 0.41773(17) 0.1847(3)
H4_20 H 0.4256 0.4256 0.1654
C12_20 C 0.39249(18) 0.43207(18) 0.19802(17)
C13_20 C 0.3815(2) 0.42145(19) 0.2266(2)
H5_20 H 0.3636 0.4307 0.2360
C14_20 C 0.3970(2) 0.3970(2) 0.2411(3)
C15_20 C 0.3863(3) 0.3863(3) 0.2714(3)
C16_20 C 0.3765(3) 0.3765(3) 0.2951(4)
C17_20 C 0.3622(4) 0.3622(4) 0.3219(4)
C18_20 C 0.3763(5) 0.3360(4) 0.3360(4)
N2_20 N 0.4038(9) 0.3271(6) 0.3271(6)
H6_20 H 0.4133 0.3367 0.3109
C19_20 C 0.18269(16) 0.37638(17) 0.45798(16)
C20_20 C 0.1847(3) 0.41773(17) 0.41773(17)
H7_20 H 0.1654 0.4256 0.4256
C21_20 C 0.19802(17) 0.39249(18) 0.43207(18)
C22_20 C 0.2266(2) 0.3815(2) 0.42145(19)
H8_20 H 0.2360 0.3636 0.4307
C23_20 C 0.2411(3) 0.3970(2) 0.3970(2)
C24_20 C 0.2714(3) 0.3863(3) 0.3863(3)
C25_20 C 0.2951(4) 0.3765(3) 0.3765(3)
C26_20 C 0.3219(4) 0.3622(4) 0.3622(4)
C27_20 C 0.3360(4) 0.3763(5) 0.3360(4)
N3_20 N 0.3271(6) 0.4038(9) 0.3271(6)
H9_20 H 0.3109 0.4133 0.3367
C28_20 C 0.18269(16) 0.45798(16) 0.37638(17)
C29_20 C 0.19802(17) 0.43207(18) 0.39249(18)
C30_20 C 0.2266(2) 0.42145(19) 0.3815(2)
H10_20 H 0.2360 0.4307 0.3636
H11_20 H 0.3109 0.3367 0.4133
C31_20 C 0.37638(17) 0.18269(16) 0.45798(16)
C32_20 C 0.39249(18) 0.19802(17) 0.43207(18)
C33_20 C 0.3815(2) 0.2266(2) 0.42145(19)
H12_20 H 0.3636 0.2360 0.4307
H13_20 H 0.4133 0.3109 0.3367
C34_20 C 0.45798(16) 0.37638(17) 0.18269(16)
C35_20 C 0.43207(18) 0.39249(18) 0.19802(17)
C36_20 C 0.42145(19) 0.3815(2) 0.2266(2)
H14_20 H 0.4307 0.3636 0.2360
H15_20 H 0.3367 0.4133 0.3109
loop_
_geom_bond_atom_site_label_1
_geom_bond_atom_site_label_2
_geom_bond_site_symmetry_1
_geom_bond_site_symmetry_2
Cu1 Cu2 1_555 1_555
Cu2 O3 1_555 1_555
O1 Cu1 1_555 1_555
O2 Cu1 1_555 1_555
O4 Cu2 1_555 1_555
C1 O2 1_555 1_555
C2 H1 1_555 1_555
C3 C1 1_555 1_555
C4 C3 1_555 1_555
H2 C4 1_555 1_555
C5 C4 1_555 1_555
C6 C5 1_555 1_555
C7 C6 1_555 1_555
C8 C7 1_555 1_555
C9 C8 1_555 1_555
N1 C9 1_555 1_555
H3 N1 1_555 1_555
O5 C10 1_555 1_555
O6 C10 1_555 1_555
C10 C12 1_555 1_555
C11 H4 1_555 1_555
C12 C11 1_555 1_555
C13 C12 1_555 1_555
H5 C13 1_555 1_555
C14 C13 1_555 1_555
C15 C14 1_555 1_555
C16 C15 1_555 1_555
C17 C16 1_555 1_555
C18 C8 1_555 1_555
N2 C18 1_555 1_555
H6 N2 1_555 1_555
O7 C19 1_555 1_555
O8 C19 1_555 1_555
C19 C21 1_555 1_555
C20 H7 1_555 1_555
C21 C20 1_555 1_555
C22 C21 1_555 1_555
H8 C22 1_555 1_555
C23 C22 1_555 1_555
C24 C23 1_555 1_555
C25 C24 1_555 1_555
C26 C9 1_555 1_555
C27 C17 1_555 1_555
N3 C27 1_555 1_555
H9 N3 1_555 1_555
O9 C28 1_555 1_555
O10 C28 1_555 1_555
C28 C29 1_555 1_555
C29 C20 1_555 1_555
C30 C23 1_555 1_555
H10 C30 1_555 1_555
H11 N1 1_555 1_555
O11 C31 1_555 1_555
O12 C31 1_555 1_555
C31 C32 1_555 1_555
C32 C2 1_555 1_555
C33 C5 1_555 1_555
H12 C33 1_555 1_555
H13 N2 1_555 1_555
O13 C34 1_555 1_555
O14 C34 1_555 1_555
C34 C35 1_555 1_555
C35 C11 1_555 1_555
C36 C14 1_555 1_555
H14 C36 1_555 1_555
H15 N3 1_555 1_555
Cu3 O13 1_555 1_555
Cu4 O14 1_555 1_555
O15 Cu3 1_555 1_555
O16 Cu3 1_555 1_555
O17 Cu4 1_555 1_555
O18 Cu4 1_555 1_555
C37 O16 1_555 1_555
C38 H16 1_555 1_555
C39 C37 1_555 1_555
C40 C39 1_555 1_555
H17 C40 1_555 1_555
C41 C40 1_555 1_555
C42 C41 1_555 1_555
C43 C42 1_555 1_555
C44 C43 1_555 1_555
C45 C44 1_555 1_555
N4 C45 1_555 1_555
H18 N4 1_555 1_555
O19 C46 1_555 1_555
O20 C46 1_555 1_555
C46 C48 1_555 1_555
C47 H19 1_555 1_555
C48 C47 1_555 1_555
C49 C48 1_555 1_555
H20 C49 1_555 1_555
C50 C49 1_555 1_555
C51 C50 1_555 1_555
C52 C51 1_555 1_555
C53 C52 1_555 1_555
C54 C44 1_555 1_555
N5 C54 1_555 1_555
H21 N5 1_555 1_555
O21 C55 1_555 1_555
O22 C55 1_555 1_555
C55 C57 1_555 1_555
C56 H22 1_555 1_555
C57 C56 1_555 1_555
C58 C57 1_555 1_555
H23 C58 1_555 1_555
C59 C58 1_555 1_555
C60 C59 1_555 1_555
C61 C60 1_555 1_555
C62 C45 1_555 1_555
C63 C53 1_555 1_555
N6 C63 1_555 1_555
H24 N6 1_555 1_555
O23 C64 1_555 1_555
O24 C64 1_555 1_555
C64 C65 1_555 1_555
C65 C56 1_555 1_555
C66 C59 1_555 1_555
H25 C66 1_555 1_555
H26 N4 1_555 1_555
O25 C67 1_555 1_555
O26 C67 1_555 1_555
C67 C68 1_555 1_555
C68 C38 1_555 1_555
C69 C41 1_555 1_555
H27 C69 1_555 1_555
H28 N5 1_555 1_555
O27 Cu1 1_555 1_555
O28 Cu2 1_555 1_555
C70 O27 1_555 1_555
C71 C47 1_555 1_555
C72 C50 1_555 1_555
H29 C72 1_555 1_555
H30 N6 1_555 1_555
Cu5 O21 1_555 1_555
Cu6 O22 1_555 1_555
O29 Cu5 1_555 1_555
O30 Cu6 1_555 1_555
Cu7 O25 1_555 1_555
Cu8 O9 1_555 1_555
Cu9 O7 1_555 1_555
Cu10 O5 1_555 1_555
Cu11 O23 1_555 1_555
Cu12 O11 1_555 1_555
Cu13 O19 1_555 1_555
Cu14 O26 1_555 1_555
Cu15 O10 1_555 1_555
Cu16 O8 1_555 1_555
Cu17 O6 1_555 1_555
Cu18 O24 1_555 1_555
Cu19 O12 1_555 1_555
Cu20 O20 1_555 1_555
O31 Cu3 1_555 1_555
O33 Cu1 1_555 1_555
O34 Cu3 1_555 1_555
O35 Cu5 1_555 1_555
O36 Cu1 1_555 1_555
O38 Cu4 1_555 1_555
O40 Cu2 1_555 1_555
O41 Cu4 1_555 1_555
O42 Cu6 1_555 1_555
O43 Cu2 1_555 1_555
O4 C1 1_555 1_555
C2 C3 1_555 1_555
C17 C18 1_555 1_555
C25 C26 1_555 1_555
C26 C27 1_555 1_555
C29 C30 1_555 1_555
C32 C33 1_555 1_555
C35 C36 1_555 1_555
Cu3 Cu4 1_555 1_555
O18 C37 1_555 1_555
C38 C39 1_555 1_555
C53 C54 1_555 1_555
C61 C62 1_555 1_555
C62 C63 1_555 1_555
C65 C66 1_555 1_555
C68 C69 1_555 1_555
O28 C70 1_555 1_555
C70 C71 1_555 1_555
C71 C72 1_555 1_555
Cu5 Cu6 1_555 1_555
Cu7 Cu14 1_555 1_555
Cu8 Cu15 1_555 1_555
Cu9 Cu16 1_555 1_555
Cu10 Cu17 1_555 1_555
Cu11 Cu18 1_555 1_555
Cu12 Cu19 1_555 1_555
Cu13 Cu20 1_555 1_555
O29_2 Cu5_2 1_555 1_555
O30_2 Cu6_2 1_555 1_555
O32 Cu5_2 1_555 1_555
O37 Cu5_2 1_555 1_555
O39 Cu6_2 1_555 1_555
O44 Cu6_2 1_555 1_555
Cu5_2 Cu6_2 1_555 1_555
Cu7_2 Cu14_2 1_555 1_555
Cu8_2 Cu15_2 1_555 1_555
Cu10_2 Cu17_2 1_555 1_555
Cu9_2 Cu16_2 1_555 1_555
Cu11_2 Cu18_2 1_555 1_555
Cu12_2 Cu19_2 1_555 1_555
Cu13_2 Cu20_2 1_555 1_555
Cu1_2 Cu2_2 1_555 1_555
Cu2_2 O3_2 1_555 1_555
O1_2 Cu1_2 1_555 1_555
O2_2 Cu1_2 1_555 1_555
O4_2 Cu2_2 1_555 1_555
C1_2 O2_2 1_555 1_555
C2_2 H1_2 1_555 1_555
C3_2 C1_2 1_555 1_555
C4_2 C3_2 1_555 1_555
H2_2 C4_2 1_555 1_555
C5_2 C4_2 1_555 1_555
C6_2 C5_2 1_555 1_555
C7_2 C6_2 1_555 1_555
C8_2 C7_2 1_555 1_555
C9_2 C8_2 1_555 1_555
N1_2 C9_2 1_555 1_555
H3_2 N1_2 1_555 1_555
O5_2 C10_2 1_555 1_555
O6_2 C10_2 1_555 1_555
C10_2 C12_2 1_555 1_555
C11_2 H4_2 1_555 1_555
C12_2 C11_2 1_555 1_555
C13_2 C12_2 1_555 1_555
H5_2 C13_2 1_555 1_555
C14_2 C13_2 1_555 1_555
C15_2 C14_2 1_555 1_555
C16_2 C15_2 1_555 1_555
C17_2 C16_2 1_555 1_555
C18_2 C8_2 1_555 1_555
N2_2 C18_2 1_555 1_555
H6_2 N2_2 1_555 1_555
O7_2 C19_2 1_555 1_555
O8_2 C19_2 1_555 1_555
C19_2 C21_2 1_555 1_555
C20_2 H7_2 1_555 1_555
C21_2 C20_2 1_555 1_555
C22_2 C21_2 1_555 1_555
H8_2 C22_2 1_555 1_555
C23_2 C22_2 1_555 1_555
C24_2 C23_2 1_555 1_555
C25_2 C24_2 1_555 1_555
C26_2 C9_2 1_555 1_555
C27_2 C17_2 1_555 1_555
N3_2 C27_2 1_555 1_555
H9_2 N3_2 1_555 1_555
O9_2 C28_2 1_555 1_555
O10_2 C28_2 1_555 1_555
C28_2 C29_2 1_555 1_555
C29_2 C20_2 1_555 1_555
C30_2 C23_2 1_555 1_555
H10_2 C30_2 1_555 1_555
H11_2 N1_2 1_555 1_555
O11_2 C31_2 1_555 1_555
O12_2 C31_2 1_555 1_555
C31_2 C32_2 1_555 1_555
C32_2 C2_2 1_555 1_555
C33_2 C5_2 1_555 1_555
H12_2 C33_2 1_555 1_555
H13_2 N2_2 1_555 1_555
O13_2 C34_2 1_555 1_555
O14_2 C34_2 1_555 1_555
C34_2 C35_2 1_555 1_555
C35_2 C11_2 1_555 1_555
C36_2 C14_2 1_555 1_555
H14_2 C36_2 1_555 1_555
H15_2 N3_2 1_555 1_555
Cu3_2 O13_2 1_555 1_555
Cu4_2 O14_2 1_555 1_555
O15_2 Cu3_2 1_555 1_555
O16_2 Cu3_2 1_555 1_555
O17_2 Cu4_2 1_555 1_555
O18_2 Cu4_2 1_555 1_555
C37_2 O16_2 1_555 1_555
C38_2 H16_2 1_555 1_555
C39_2 C37_2 1_555 1_555
C40_2 C39_2 1_555 1_555
H17_2 C40_2 1_555 1_555
C41_2 C40_2 1_555 1_555
C42_2 C41_2 1_555 1_555
C43_2 C42_2 1_555 1_555
C44_2 C43_2 1_555 1_555
C45_2 C44_2 1_555 1_555
N4_2 C45_2 1_555 1_555
H18_2 N4_2 1_555 1_555
O19_2 C46_2 1_555 1_555
O20_2 C46_2 1_555 1_555
C46_2 C48_2 1_555 1_555
C47_2 H19_2 1_555 1_555
C48_2 C47_2 1_555 1_555
C49_2 C48_2 1_555 1_555
H20_2 C49_2 1_555 1_555
C50_2 C49_2 1_555 1_555
C51_2 C50_2 1_555 1_555
C52_2 C51_2 1_555 1_555
C53_2 C52_2 1_555 1_555
C54_2 C44_2 1_555 1_555
N5_2 C54_2 1_555 1_555
H21_2 N5_2 1_555 1_555
O21_2 C55_2 1_555 1_555
O22_2 C55_2 1_555 1_555
C55_2 C57_2 1_555 1_555
C56_2 H22_2 1_555 1_555
C57_2 C56_2 1_555 1_555
C58_2 C57_2 1_555 1_555
H23_2 C58_2 1_555 1_555
C59_2 C58_2 1_555 1_555
C60_2 C59_2 1_555 1_555
C61_2 C60_2 1_555 1_555
C62_2 C45_2 1_555 1_555
C63_2 C53_2 1_555 1_555
N6_2 C63_2 1_555 1_555
H24_2 N6_2 1_555 1_555
O23_2 C64_2 1_555 1_555
O24_2 C64_2 1_555 1_555
C64_2 C65_2 1_555 1_555
C65_2 C56_2 1_555 1_555
C66_2 C59_2 1_555 1_555
H25_2 C66_2 1_555 1_555
H26_2 N4_2 1_555 1_555
O25_2 C67_2 1_555 1_555
O26_2 C67_2 1_555 1_555
C67_2 C68_2 1_555 1_555
C68_2 C38_2 1_555 1_555
C69_2 C41_2 1_555 1_555
H27_2 C69_2 1_555 1_555
H28_2 N5_2 1_555 1_555
O27_2 Cu1_2 1_555 1_555
O28_2 Cu2_2 1_555 1_555
C70_2 O27_2 1_555 1_555
C71_2 C47_2 1_555 1_555
C72_2 C50_2 1_555 1_555
H29_2 C72_2 1_555 1_555
H30_2 N6_2 1_555 1_555
Cu5_3 O21_2 1_555 1_555
Cu6_3 O22_2 1_555 1_555
O29_3 Cu5_3 1_555 1_555
O30_3 Cu6_3 1_555 1_555
Cu7_3 O25_2 1_555 1_555
Cu9 O9_2 1_555 1_555
Cu9_3 O7_2 1_555 1_555
Cu12 O5_2 1_555 1_555
Cu11_3 O23_2 1_555 1_555
Cu12_3 O11_2 1_555 1_555
Cu13_3 O19_2 1_555 1_555
Cu14_3 O26_2 1_555 1_555
Cu16 O10_2 1_555 1_555
Cu16_3 O8_2 1_555 1_555
Cu19 O6_2 1_555 1_555
Cu18_3 O24_2 1_555 1_555
Cu19_3 O12_2 1_555 1_555
Cu20_3 O20_2 1_555 1_555
O31_2 Cu3_2 1_555 1_555
O33_2 Cu1_2 1_555 1_555
O34_2 Cu3_2 1_555 1_555
O35_2 Cu5_3 1_555 1_555
O36_2 Cu1_2 1_555 1_555
O38_2 Cu4_2 1_555 1_555
O40_2 Cu2_2 1_555 1_555
O41_2 Cu4_2 1_555 1_555
O42_2 Cu6_3 1_555 1_555
O43_2 Cu2_2 1_555 1_555
O4_2 C1_2 1_555 1_555
C2_2 C3_2 1_555 1_555
C17_2 C18_2 1_555 1_555
C25_2 C26_2 1_555 1_555
C26_2 C27_2 1_555 1_555
C29_2 C30_2 1_555 1_555
C32_2 C33_2 1_555 1_555
C35_2 C36_2 1_555 1_555
Cu3_2 Cu4_2 1_555 1_555
O18_2 C37_2 1_555 1_555
C38_2 C39_2 1_555 1_555
C53_2 C54_2 1_555 1_555
C61_2 C62_2 1_555 1_555
C62_2 C63_2 1_555 1_555
C65_2 C66_2 1_555 1_555
C68_2 C69_2 1_555 1_555
O28_2 C70_2 1_555 1_555
C70_2 C71_2 1_555 1_555
C71_2 C72_2 1_555 1_555
Cu5_3 Cu6_3 1_555 1_555
Cu7_3 Cu14_3 1_555 1_555
Cu9_3 Cu16_3 1_555 1_555
Cu11_3 Cu18_3 1_555 1_555
Cu12_3 Cu19_3 1_555 1_555
Cu13_3 Cu20_3 1_555 1_555
Cu9_4 Cu16_4 1_555 1_555
Cu11_4 Cu18_4 1_555 1_555
Cu12_4 Cu19_4 1_555 1_555
Cu13_4 Cu20_4 1_555 1_555
O29_4 Cu5_4 1_555 1_555
O30_4 Cu6_4 1_555 1_555
O32_2 Cu5_4 1_555 1_555
O37_2 Cu5_4 1_555 1_555
O39_2 Cu6_4 1_555 1_555
O44_2 Cu6_4 1_555 1_555
Cu5_4 Cu6_4 1_555 1_555
Cu7_4 Cu14_4 1_555 1_555
Cu1_3 Cu2_3 1_555 1_555
Cu2_3 O3_3 1_555 1_555
O1_3 Cu1_3 1_555 1_555
O2_3 Cu1_3 1_555 1_555
O4_3 Cu2_3 1_555 1_555
C1_3 O2_3 1_555 1_555
C2_3 H1_3 1_555 1_555
C3_3 C1_3 1_555 1_555
C4_3 C3_3 1_555 1_555
H2_3 C4_3 1_555 1_555
C5_3 C4_3 1_555 1_555
C6_3 C5_3 1_555 1_555
C7_3 C6_3 1_555 1_555
C8_3 C7_3 1_555 1_555
C9_3 C8_3 1_555 1_555
N1_3 C9_3 1_555 1_555
H3_3 N1_3 1_555 1_555
O5_3 C10_3 1_555 1_555
O6_3 C10_3 1_555 1_555
C10_3 C12_3 1_555 1_555
C11_3 H4_3 1_555 1_555
C12_3 C11_3 1_555 1_555
C13_3 C12_3 1_555 1_555
H5_3 C13_3 1_555 1_555
C14_3 C13_3 1_555 1_555
C15_3 C14_3 1_555 1_555
C16_3 C15_3 1_555 1_555
C17_3 C16_3 1_555 1_555
C18_3 C8_3 1_555 1_555
N2_3 C18_3 1_555 1_555
H6_3 N2_3 1_555 1_555
O7_3 C19_3 1_555 1_555
O8_3 C19_3 1_555 1_555
C19_3 C21_3 1_555 1_555
C20_3 H7_3 1_555 1_555
C21_3 C20_3 1_555 1_555
C22_3 C21_3 1_555 1_555
H8_3 C22_3 1_555 1_555
C23_3 C22_3 1_555 1_555
C24_3 C23_3 1_555 1_555
C25_3 C24_3 1_555 1_555
C26_3 C9_3 1_555 1_555
C27_3 C17_3 1_555 1_555
N3_3 C27_3 1_555 1_555
H9_3 N3_3 1_555 1_555
O9_3 C28_3 1_555 1_555
O10_3 C28_3 1_555 1_555
C28_3 C29_3 1_555 1_555
C29_3 C20_3 1_555 1_555
C30_3 C23_3 1_555 1_555
H10_3 C30_3 1_555 1_555
H11_3 N1_3 1_555 1_555
O11_3 C31_3 1_555 1_555
O12_3 C31_3 1_555 1_555
C31_3 C32_3 1_555 1_555
C32_3 C2_3 1_555 1_555
C33_3 C5_3 1_555 1_555
H12_3 C33_3 1_555 1_555
H13_3 N2_3 1_555 1_555
O13_3 C34_3 1_555 1_555
O14_3 C34_3 1_555 1_555
C34_3 C35_3 1_555 1_555
C35_3 C11_3 1_555 1_555
C36_3 C14_3 1_555 1_555
H14_3 C36_3 1_555 1_555
H15_3 N3_3 1_555 1_555
Cu3_3 O13_3 1_555 1_555
Cu4_3 O14_3 1_555 1_555
O15_3 Cu3_3 1_555 1_555
O16_3 Cu3_3 1_555 1_555
O17_3 Cu4_3 1_555 1_555
O18_3 Cu4_3 1_555 1_555
C37_3 O16_3 1_555 1_555
C38_3 H16_3 1_555 1_555
C39_3 C37_3 1_555 1_555
C40_3 C39_3 1_555 1_555
H17_3 C40_3 1_555 1_555
C41_3 C40_3 1_555 1_555
C42_3 C41_3 1_555 1_555
C43_3 C42_3 1_555 1_555
C44_3 C43_3 1_555 1_555
C45_3 C44_3 1_555 1_555
N4_3 C45_3 1_555 1_555
H18_3 N4_3 1_555 1_555
O19_3 C46_3 1_555 1_555
O20_3 C46_3 1_555 1_555
C46_3 C48_3 1_555 1_555
C47_3 H19_3 1_555 1_555
C48_3 C47_3 1_555 1_555
C49_3 C48_3 1_555 1_555
H20_3 C49_3 1_555 1_555
C50_3 C49_3 1_555 1_555
C51_3 C50_3 1_555 1_555
C52_3 C51_3 1_555 1_555
C53_3 C52_3 1_555 1_555
C54_3 C44_3 1_555 1_555
N5_3 C54_3 1_555 1_555
H21_3 N5_3 1_555 1_555
O21_3 C55_3 1_555 1_555
O22_3 C55_3 1_555 1_555
C55_3 C57_3 1_555 1_555
C56_3 H22_3 1_555 1_555
C57_3 C56_3 1_555 1_555
C58_3 C57_3 1_555 1_555
H23_3 C58_3 1_555 1_555
C59_3 C58_3 1_555 1_555
C60_3 C59_3 1_555 1_555
C61_3 C60_3 1_555 1_555
C62_3 C45_3 1_555 1_555
C63_3 C53_3 1_555 1_555
N6_3 C63_3 1_555 1_555
H24_3 N6_3 1_555 1_555
O23_3 C64_3 1_555 1_555
O24_3 C64_3 1_555 1_555
C64_3 C65_3 1_555 1_555
C65_3 C56_3 1_555 1_555
C66_3 C59_3 1_555 1_555
H25_3 C66_3 1_555 1_555
H26_3 N4_3 1_555 1_555
O25_3 C67_3 1_555 1_555
O26_3 C67_3 1_555 1_555
C67_3 C68_3 1_555 1_555
C68_3 C38_3 1_555 1_555
C69_3 C41_3 1_555 1_555
H27_3 C69_3 1_555 1_555
H28_3 N5_3 1_555 1_555
O27_3 Cu1_3 1_555 1_555
O28_3 Cu2_3 1_555 1_555
C70_3 O27_3 1_555 1_555
C71_3 C47_3 1_555 1_555
C72_3 C50_3 1_555 1_555
H29_3 C72_3 1_555 1_555
H30_3 N6_3 1_555 1_555
Cu5_5 O21_3 1_555 1_555
Cu6_5 O22_3 1_555 1_555
O29_5 Cu5_5 1_555 1_555
O30_5 Cu6_5 1_555 1_555
Cu7_5 O25_3 1_555 1_555
Cu9_3 O9_3 1_555 1_555
Cu8 O7_3 1_555 1_555
Cu12_3 O5_3 1_555 1_555
Cu11_5 O23_3 1_555 1_555
Cu10 O11_3 1_555 1_555
Cu13_5 O19_3 1_555 1_555
Cu14_5 O26_3 1_555 1_555
Cu16_3 O10_3 1_555 1_555
Cu15 O8_3 1_555 1_555
Cu19_3 O6_3 1_555 1_555
Cu18_5 O24_3 1_555 1_555
Cu17 O12_3 1_555 1_555
Cu20_5 O20_3 1_555 1_555
O31_3 Cu3_3 1_555 1_555
O33_3 Cu1_3 1_555 1_555
O34_3 Cu3_3 1_555 1_555
O35_3 Cu5_5 1_555 1_555
O36_3 Cu1_3 1_555 1_555
O38_3 Cu4_3 1_555 1_555
O40_3 Cu2_3 1_555 1_555
O41_3 Cu4_3 1_555 1_555
O42_3 Cu6_5 1_555 1_555
O43_3 Cu2_3 1_555 1_555
O4_3 C1_3 1_555 1_555
C2_3 C3_3 1_555 1_555
C17_3 C18_3 1_555 1_555
C25_3 C26_3 1_555 1_555
C26_3 C27_3 1_555 1_555
C29_3 C30_3 1_555 1_555
C32_3 C33_3 1_555 1_555
C35_3 C36_3 1_555 1_555
Cu3_3 Cu4_3 1_555 1_555
O18_3 C37_3 1_555 1_555
C38_3 C39_3 1_555 1_555
C53_3 C54_3 1_555 1_555
C61_3 C62_3 1_555 1_555
C62_3 C63_3 1_555 1_555
C65_3 C66_3 1_555 1_555
C68_3 C69_3 1_555 1_555
O28_3 C70_3 1_555 1_555
C70_3 C71_3 1_555 1_555
C71_3 C72_3 1_555 1_555
Cu5_5 Cu6_5 1_555 1_555
Cu7_5 Cu14_5 1_555 1_555
Cu11_5 Cu18_5 1_555 1_555
Cu13_5 Cu20_5 1_555 1_555
Cu11_6 Cu18_6 1_555 1_555
Cu13_6 Cu20_6 1_555 1_555
O29_6 Cu5_6 1_555 1_555
O30_6 Cu6_6 1_555 1_555
O32_3 Cu5_6 1_555 1_555
O37_3 Cu5_6 1_555 1_555
O39_3 Cu6_6 1_555 1_555
O44_3 Cu6_6 1_555 1_555
Cu5_6 Cu6_6 1_555 1_555
Cu7_6 Cu14_6 1_555 1_555
O29_7 Cu11_5 1_555 1_555
O30_7 Cu18_5 1_555 1_555
O32_4 Cu11_5 1_555 1_555
O39_4 Cu18_5 1_555 1_555
Cu1_4 Cu2_4 1_555 1_555
Cu2_4 O3_4 1_555 1_555
O1_4 Cu1_4 1_555 1_555
O2_4 Cu1_4 1_555 1_555
O4_4 Cu2_4 1_555 1_555
C1_4 O2_4 1_555 1_555
C2_4 H1_4 1_555 1_555
C3_4 C1_4 1_555 1_555
C4_4 C3_4 1_555 1_555
H2_4 C4_4 1_555 1_555
C5_4 C4_4 1_555 1_555
C6_4 C5_4 1_555 1_555
C7_4 C6_4 1_555 1_555
C8_4 C7_4 1_555 1_555
C9_4 C8_4 1_555 1_555
N1_4 C9_4 1_555 1_555
H3_4 N1_4 1_555 1_555
O5_4 C10_4 1_555 1_555
O6_4 C10_4 1_555 1_555
C10_4 C12_4 1_555 1_555
C11_4 H4_4 1_555 1_555
C12_4 C11_4 1_555 1_555
C13_4 C12_4 1_555 1_555
H5_4 C13_4 1_555 1_555
C14_4 C13_4 1_555 1_555
C15_4 C14_4 1_555 1_555
C16_4 C15_4 1_555 1_555
C17_4 C16_4 1_555 1_555
C18_4 C8_4 1_555 1_555
N2_4 C18_4 1_555 1_555
H6_4 N2_4 1_555 1_555
O7_4 C19_4 1_555 1_555
O8_4 C19_4 1_555 1_555
C19_4 C21_4 1_555 1_555
C20_4 H7_4 1_555 1_555
C21_4 C20_4 1_555 1_555
C22_4 C21_4 1_555 1_555
H8_4 C22_4 1_555 1_555
C23_4 C22_4 1_555 1_555
C24_4 C23_4 1_555 1_555
C25_4 C24_4 1_555 1_555
C26_4 C9_4 1_555 1_555
C27_4 C17_4 1_555 1_555
N3_4 C27_4 1_555 1_555
H9_4 N3_4 1_555 1_555
O9_4 C28_4 1_555 1_555
O10_4 C28_4 1_555 1_555
C28_4 C29_4 1_555 1_555
C29_4 C20_4 1_555 1_555
C30_4 C23_4 1_555 1_555
H10_4 C30_4 1_555 1_555
H11_4 N1_4 1_555 1_555
O11_4 C31_4 1_555 1_555
O12_4 C31_4 1_555 1_555
C31_4 C32_4 1_555 1_555
C32_4 C2_4 1_555 1_555
C33_4 C5_4 1_555 1_555
H12_4 C33_4 1_555 1_555
H13_4 N2_4 1_555 1_555
O13_4 C34_4 1_555 1_555
O14_4 C34_4 1_555 1_555
C34_4 C35_4 1_555 1_555
C35_4 C11_4 1_555 1_555
C36_4 C14_4 1_555 1_555
H14_4 C36_4 1_555 1_555
H15_4 N3_4 1_555 1_555
Cu3_4 O13_4 1_555 1_555
Cu4_4 O14_4 1_555 1_555
O15_4 Cu3_4 1_555 1_555
O16_4 Cu3_4 1_555 1_555
O17_4 Cu4_4 1_555 1_555
O18_4 Cu4_4 1_555 1_555
C37_4 O16_4 1_555 1_555
C38_4 H16_4 1_555 1_555
C39_4 C37_4 1_555 1_555
C40_4 C39_4 1_555 1_555
H17_4 C40_4 1_555 1_555
C41_4 C40_4 1_555 1_555
C42_4 C41_4 1_555 1_555
C43_4 C42_4 1_555 1_555
C44_4 C43_4 1_555 1_555
C45_4 C44_4 1_555 1_555
N4_4 C45_4 1_555 1_555
H18_4 N4_4 1_555 1_555
O19_4 C46_4 1_555 1_555
O20_4 C46_4 1_555 1_555
C46_4 C48_4 1_555 1_555
C47_4 H19_4 1_555 1_555
C48_4 C47_4 1_555 1_555
C49_4 C48_4 1_555 1_555
H20_4 C49_4 1_555 1_555
C50_4 C49_4 1_555 1_555
C51_4 C50_4 1_555 1_555
C52_4 C51_4 1_555 1_555
C53_4 C52_4 1_555 1_555
C54_4 C44_4 1_555 1_555
N5_4 C54_4 1_555 1_555
H21_4 N5_4 1_555 1_555
O21_4 C55_4 1_555 1_555
O22_4 C55_4 1_555 1_555
C55_4 C57_4 1_555 1_555
C56_4 H22_4 1_555 1_555
C57_4 C56_4 1_555 1_555
C58_4 C57_4 1_555 1_555
H23_4 C58_4 1_555 1_555
C59_4 C58_4 1_555 1_555
C60_4 C59_4 1_555 1_555
C61_4 C60_4 1_555 1_555
C62_4 C45_4 1_555 1_555
C63_4 C53_4 1_555 1_555
N6_4 C63_4 1_555 1_555
H24_4 N6_4 1_555 1_555
O23_4 C64_4 1_555 1_555
O24_4 C64_4 1_555 1_555
C64_4 C65_4 1_555 1_555
C65_4 C56_4 1_555 1_555
C66_4 C59_4 1_555 1_555
H25_4 C66_4 1_555 1_555
H26_4 N4_4 1_555 1_555
O25_4 C67_4 1_555 1_555
O26_4 C67_4 1_555 1_555
C67_4 C68_4 1_555 1_555
C68_4 C38_4 1_555 1_555
C69_4 C41_4 1_555 1_555
H27_4 C69_4 1_555 1_555
H28_4 N5_4 1_555 1_555
O27_4 Cu1_4 1_555 1_555
O28_4 Cu2_4 1_555 1_555
C70_4 O27_4 1_555 1_555
C71_4 C47_4 1_555 1_555
C72_4 C50_4 1_555 1_555
H29_4 C72_4 1_555 1_555
H30_4 N6_4 1_555 1_555
Cu11_6 O21_4 1_555 1_555
Cu18_6 O22_4 1_555 1_555
O29_8 Cu11_6 1_555 1_555
O30_8 Cu18_6 1_555 1_555
Cu13_6 O25_4 1_555 1_555
Cu8_2 O9_4 1_555 1_555
Cu11_3 O7_4 1_555 1_555
Cu10_2 O5_4 1_555 1_555
Cu11_7 O23_4 1_555 1_555
Cu13_3 O11_4 1_555 1_555
Cu13_7 O19_4 1_555 1_555
Cu20_6 O26_4 1_555 1_555
Cu15_2 O10_4 1_555 1_555
Cu18_3 O8_4 1_555 1_555
Cu17_2 O6_4 1_555 1_555
Cu18_7 O24_4 1_555 1_555
Cu20_3 O12_4 1_555 1_555
Cu20_7 O20_4 1_555 1_555
O31_4 Cu3_4 1_555 1_555
O33_4 Cu1_4 1_555 1_555
O34_4 Cu3_4 1_555 1_555
O35_4 Cu11_6 1_555 1_555
O36_4 Cu1_4 1_555 1_555
O38_4 Cu4_4 1_555 1_555
O40_4 Cu2_4 1_555 1_555
O41_4 Cu4_4 1_555 1_555
O42_4 Cu18_6 1_555 1_555
O43_4 Cu2_4 1_555 1_555
O4_4 C1_4 1_555 1_555
C2_4 C3_4 1_555 1_555
C17_4 C18_4 1_555 1_555
C25_4 C26_4 1_555 1_555
C26_4 C27_4 1_555 1_555
C29_4 C30_4 1_555 1_555
C32_4 C33_4 1_555 1_555
C35_4 C36_4 1_555 1_555
Cu3_4 Cu4_4 1_555 1_555
O18_4 C37_4 1_555 1_555
C38_4 C39_4 1_555 1_555
C53_4 C54_4 1_555 1_555
C61_4 C62_4 1_555 1_555
C62_4 C63_4 1_555 1_555
C65_4 C66_4 1_555 1_555
C68_4 C69_4 1_555 1_555
O28_4 C70_4 1_555 1_555
C70_4 C71_4 1_555 1_555
C71_4 C72_4 1_555 1_555
Cu11_7 Cu18_7 1_555 1_555
Cu13_7 Cu20_7 1_555 1_555
Cu11_8 Cu18_8 1_555 1_555
Cu13_8 Cu20_8 1_555 1_555
Cu1_5 Cu2_5 1_555 1_555
Cu2_5 O3_5 1_555 1_555
O1_5 Cu1_5 1_555 1_555
O2_5 Cu1_5 1_555 1_555
O4_5 Cu2_5 1_555 1_555
C1_5 O2_5 1_555 1_555
C2_5 H1_5 1_555 1_555
C3_5 C1_5 1_555 1_555
C4_5 C3_5 1_555 1_555
H2_5 C4_5 1_555 1_555
C5_5 C4_5 1_555 1_555
C6_5 C5_5 1_555 1_555
C7_5 C6_5 1_555 1_555
C8_5 C7_5 1_555 1_555
C9_5 C8_5 1_555 1_555
N1_5 C9_5 1_555 1_555
H3_5 N1_5 1_555 1_555
O5_5 C10_5 1_555 1_555
O6_5 C10_5 1_555 1_555
C10_5 C12_5 1_555 1_555
C11_5 H4_5 1_555 1_555
C12_5 C11_5 1_555 1_555
C13_5 C12_5 1_555 1_555
H5_5 C13_5 1_555 1_555
C14_5 C13_5 1_555 1_555
C15_5 C14_5 1_555 1_555
C16_5 C15_5 1_555 1_555
C17_5 C16_5 1_555 1_555
C18_5 C8_5 1_555 1_555
N2_5 C18_5 1_555 1_555
H6_5 N2_5 1_555 1_555
O7_5 C19_5 1_555 1_555
O8_5 C19_5 1_555 1_555
C19_5 C21_5 1_555 1_555
C20_5 H7_5 1_555 1_555
C21_5 C20_5 1_555 1_555
C22_5 C21_5 1_555 1_555
H8_5 C22_5 1_555 1_555
C23_5 C22_5 1_555 1_555
C24_5 C23_5 1_555 1_555
C25_5 C24_5 1_555 1_555
C26_5 C9_5 1_555 1_555
C27_5 C17_5 1_555 1_555
N3_5 C27_5 1_555 1_555
H9_5 N3_5 1_555 1_555
O35 C28_5 1_555 1_555
O42 C28_5 1_555 1_555
C28_5 C29_5 1_555 1_555
C29_5 C20_5 1_555 1_555
C30_5 C23_5 1_555 1_555
H10_5 C30_5 1_555 1_555
H11_5 N1_5 1_555 1_555
O11_5 C31_5 1_555 1_555
O12_5 C31_5 1_555 1_555
C31_5 C32_5 1_555 1_555
C32_5 C2_5 1_555 1_555
C33_5 C5_5 1_555 1_555
H12_5 C33_5 1_555 1_555
H13_5 N2_5 1_555 1_555
O13_5 C34_5 1_555 1_555
O14_5 C34_5 1_555 1_555
C34_5 C35_5 1_555 1_555
C35_5 C11_5 1_555 1_555
C36_5 C14_5 1_555 1_555
H14_5 C36_5 1_555 1_555
H15_5 N3_5 1_555 1_555
Cu3_5 O13_5 1_555 1_555
Cu4_5 O14_5 1_555 1_555
O15_5 Cu3_5 1_555 1_555
O16_5 Cu3_5 1_555 1_555
O17_5 Cu4_5 1_555 1_555
O18_5 Cu4_5 1_555 1_555
C37_5 O16_5 1_555 1_555
C38_5 H16_5 1_555 1_555
C39_5 C37_5 1_555 1_555
C40_5 C39_5 1_555 1_555
H17_5 C40_5 1_555 1_555
C41_5 C40_5 1_555 1_555
C42_5 C41_5 1_555 1_555
C43_5 C42_5 1_555 1_555
C44_5 C43_5 1_555 1_555
C45_5 C44_5 1_555 1_555
N4_5 C45_5 1_555 1_555
H18_5 N4_5 1_555 1_555
O19_5 C46_5 1_555 1_555
O20_5 C46_5 1_555 1_555
C46_5 C48_5 1_555 1_555
C47_5 H19_5 1_555 1_555
C48_5 C47_5 1_555 1_555
C49_5 C48_5 1_555 1_555
H20_5 C49_5 1_555 1_555
C50_5 C49_5 1_555 1_555
C51_5 C50_5 1_555 1_555
C52_5 C51_5 1_555 1_555
C53_5 C52_5 1_555 1_555
C54_5 C44_5 1_555 1_555
N5_5 C54_5 1_555 1_555
H21_5 N5_5 1_555 1_555
O21_5 C55_5 1_555 1_555
O22_5 C55_5 1_555 1_555
C55_5 C57_5 1_555 1_555
C56_5 H22_5 1_555 1_555
C57_5 C56_5 1_555 1_555
C58_5 C57_5 1_555 1_555
H23_5 C58_5 1_555 1_555
C59_5 C58_5 1_555 1_555
C60_5 C59_5 1_555 1_555
C61_5 C60_5 1_555 1_555
C62_5 C45_5 1_555 1_555
C63_5 C53_5 1_555 1_555
N6_5 C63_5 1_555 1_555
H24_5 N6_5 1_555 1_555
O37_3 C64_5 1_555 1_555
O44_3 C64_5 1_555 1_555
C64_5 C65_5 1_555 1_555
C65_5 C56_5 1_555 1_555
C66_5 C59_5 1_555 1_555
H25_5 C66_5 1_555 1_555
H26_5 N4_5 1_555 1_555
O25_5 C67_5 1_555 1_555
O26_5 C67_5 1_555 1_555
C67_5 C68_5 1_555 1_555
C68_5 C38_5 1_555 1_555
C69_5 C41_5 1_555 1_555
H27_5 C69_5 1_555 1_555
H28_5 N5_5 1_555 1_555
O27_5 Cu1_5 1_555 1_555
O28_5 Cu2_5 1_555 1_555
C70_5 O27_5 1_555 1_555
C71_5 C47_5 1_555 1_555
C72_5 C50_5 1_555 1_555
H29_5 C72_5 1_555 1_555
H30_5 N6_5 1_555 1_555
Cu5_7 O21_5 1_555 1_555
Cu6_7 O22_5 1_555 1_555
O29_9 Cu5_7 1_555 1_555
O30_9 Cu6_7 1_555 1_555
Cu7_7 O25_5 1_555 1_555
Cu9_4 O7_5 1_555 1_555
Cu7 O5_5 1_555 1_555
Cu12_4 O11_5 1_555 1_555
Cu7_6 O19_5 1_555 1_555
Cu14_7 O26_5 1_555 1_555
Cu16_4 O8_5 1_555 1_555
Cu14 O6_5 1_555 1_555
Cu19_4 O12_5 1_555 1_555
Cu14_6 O20_5 1_555 1_555
O31_5 Cu3_5 1_555 1_555
O33_5 Cu1_5 1_555 1_555
O34_5 Cu3_5 1_555 1_555
O35_5 Cu5_7 1_555 1_555
O36_5 Cu1_5 1_555 1_555
O38_5 Cu4_5 1_555 1_555
O40_5 Cu2_5 1_555 1_555
O41_5 Cu4_5 1_555 1_555
O42_5 Cu6_7 1_555 1_555
O43_5 Cu2_5 1_555 1_555
O4_5 C1_5 1_555 1_555
C2_5 C3_5 1_555 1_555
C17_5 C18_5 1_555 1_555
C25_5 C26_5 1_555 1_555
C26_5 C27_5 1_555 1_555
C29_5 C30_5 1_555 1_555
C32_5 C33_5 1_555 1_555
C35_5 C36_5 1_555 1_555
Cu3_5 Cu4_5 1_555 1_555
O18_5 C37_5 1_555 1_555
C38_5 C39_5 1_555 1_555
C53_5 C54_5 1_555 1_555
C61_5 C62_5 1_555 1_555
C62_5 C63_5 1_555 1_555
C65_5 C66_5 1_555 1_555
C68_5 C69_5 1_555 1_555
O28_5 C70_5 1_555 1_555
C70_5 C71_5 1_555 1_555
C71_5 C72_5 1_555 1_555
Cu5_7 Cu6_7 1_555 1_555
Cu7_7 Cu14_7 1_555 1_555
O29_10 Cu5_8 1_555 1_555
O30_10 Cu6_8 1_555 1_555
O32_5 Cu5_8 1_555 1_555
O37_4 Cu5_8 1_555 1_555
O39_5 Cu6_8 1_555 1_555
O44_4 Cu6_8 1_555 1_555
Cu5_8 Cu6_8 1_555 1_555
Cu7_8 Cu14_8 1_555 1_555
O29_11 Cu8 1_555 1_555
O30_11 Cu15 1_555 1_555
O29_12 Cu8_2 1_555 1_555
O30_12 Cu15_2 1_555 1_555
O32_6 Cu8_2 1_555 1_555
O39_6 Cu15_2 1_555 1_555
O29_13 Cu9_3 1_555 1_555
O30_13 Cu16_3 1_555 1_555
O29_14 Cu9_4 1_555 1_555
O30_14 Cu16_4 1_555 1_555
O37_5 Cu9_4 1_555 1_555
O44_5 Cu16_4 1_555 1_555
Cu1_6 Cu2_6 1_555 1_555
Cu2_6 O3_6 1_555 1_555
O1_6 Cu1_6 1_555 1_555
O2_6 Cu1_6 1_555 1_555
O4_6 Cu2_6 1_555 1_555
C1_6 O2_6 1_555 1_555
C2_6 H1_6 1_555 1_555
C3_6 C1_6 1_555 1_555
C4_6 C3_6 1_555 1_555
H2_6 C4_6 1_555 1_555
C5_6 C4_6 1_555 1_555
C6_6 C5_6 1_555 1_555
C7_6 C6_6 1_555 1_555
C8_6 C7_6 1_555 1_555
C9_6 C8_6 1_555 1_555
N1_6 C9_6 1_555 1_555
H3_6 N1_6 1_555 1_555
O5_6 C10_6 1_555 1_555
O6_6 C10_6 1_555 1_555
C10_6 C12_6 1_555 1_555
C11_6 H4_6 1_555 1_555
C12_6 C11_6 1_555 1_555
C13_6 C12_6 1_555 1_555
H5_6 C13_6 1_555 1_555
C14_6 C13_6 1_555 1_555
C15_6 C14_6 1_555 1_555
C16_6 C15_6 1_555 1_555
C17_6 C16_6 1_555 1_555
C18_6 C8_6 1_555 1_555
N2_6 C18_6 1_555 1_555
H6_6 N2_6 1_555 1_555
O7_6 C19_6 1_555 1_555
O8_6 C19_6 1_555 1_555
C19_6 C21_6 1_555 1_555
C20_6 H7_6 1_555 1_555
C21_6 C20_6 1_555 1_555
C22_6 C21_6 1_555 1_555
H8_6 C22_6 1_555 1_555
C23_6 C22_6 1_555 1_555
C24_6 C23_6 1_555 1_555
C25_6 C24_6 1_555 1_555
C26_6 C9_6 1_555 1_555
C27_6 C17_6 1_555 1_555
N3_6 C27_6 1_555 1_555
H9_6 N3_6 1_555 1_555
O35_3 C28_6 1_555 1_555
O42_3 C28_6 1_555 1_555
C28_6 C29_6 1_555 1_555
C29_6 C20_6 1_555 1_555
C30_6 C23_6 1_555 1_555
H10_6 C30_6 1_555 1_555
H11_6 N1_6 1_555 1_555
O11_6 C31_6 1_555 1_555
O12_6 C31_6 1_555 1_555
C31_6 C32_6 1_555 1_555
C32_6 C2_6 1_555 1_555
C33_6 C5_6 1_555 1_555
H12_6 C33_6 1_555 1_555
H13_6 N2_6 1_555 1_555
O13_6 C34_6 1_555 1_555
O14_6 C34_6 1_555 1_555
C34_6 C35_6 1_555 1_555
C35_6 C11_6 1_555 1_555
C36_6 C14_6 1_555 1_555
H14_6 C36_6 1_555 1_555
H15_6 N3_6 1_555 1_555
Cu3_6 O13_6 1_555 1_555
Cu4_6 O14_6 1_555 1_555
O15_6 Cu3_6 1_555 1_555
O16_6 Cu3_6 1_555 1_555
O17_6 Cu4_6 1_555 1_555
O18_6 Cu4_6 1_555 1_555
C37_6 O16_6 1_555 1_555
C38_6 H16_6 1_555 1_555
C39_6 C37_6 1_555 1_555
C40_6 C39_6 1_555 1_555
H17_6 C40_6 1_555 1_555
C41_6 C40_6 1_555 1_555
C42_6 C41_6 1_555 1_555
C43_6 C42_6 1_555 1_555
C44_6 C43_6 1_555 1_555
C45_6 C44_6 1_555 1_555
N4_6 C45_6 1_555 1_555
H18_6 N4_6 1_555 1_555
O19_6 C46_6 1_555 1_555
O20_6 C46_6 1_555 1_555
C46_6 C48_6 1_555 1_555
C47_6 H19_6 1_555 1_555
C48_6 C47_6 1_555 1_555
C49_6 C48_6 1_555 1_555
H20_6 C49_6 1_555 1_555
C50_6 C49_6 1_555 1_555
C51_6 C50_6 1_555 1_555
C52_6 C51_6 1_555 1_555
C53_6 C52_6 1_555 1_555
C54_6 C44_6 1_555 1_555
N5_6 C54_6 1_555 1_555
H21_6 N5_6 1_555 1_555
O21_6 C55_6 1_555 1_555
O22_6 C55_6 1_555 1_555
C55_6 C57_6 1_555 1_555
C56_6 H22_6 1_555 1_555
C57_6 C56_6 1_555 1_555
C58_6 C57_6 1_555 1_555
H23_6 C58_6 1_555 1_555
C59_6 C58_6 1_555 1_555
C60_6 C59_6 1_555 1_555
C61_6 C60_6 1_555 1_555
C62_6 C45_6 1_555 1_555
C63_6 C53_6 1_555 1_555
N6_6 C63_6 1_555 1_555
H24_6 N6_6 1_555 1_555
O37_2 C64_6 1_555 1_555
O44_2 C64_6 1_555 1_555
C64_6 C65_6 1_555 1_555
C65_6 C56_6 1_555 1_555
C66_6 C59_6 1_555 1_555
H25_6 C66_6 1_555 1_555
H26_6 N4_6 1_555 1_555
O25_6 C67_6 1_555 1_555
O26_6 C67_6 1_555 1_555
C67_6 C68_6 1_555 1_555
C68_6 C38_6 1_555 1_555
C69_6 C41_6 1_555 1_555
H27_6 C69_6 1_555 1_555
H28_6 N5_6 1_555 1_555
O27_6 Cu1_6 1_555 1_555
O28_6 Cu2_6 1_555 1_555
C70_6 O27_6 1_555 1_555
C71_6 C47_6 1_555 1_555
C72_6 C50_6 1_555 1_555
H29_6 C72_6 1_555 1_555
H30_6 N6_6 1_555 1_555
Cu11_7 O21_6 1_555 1_555
Cu18_7 O22_6 1_555 1_555
O29_15 Cu11_7 1_555 1_555
O30_15 Cu18_7 1_555 1_555
Cu13_7 O25_6 1_555 1_555
Cu9_2 O7_6 1_555 1_555
Cu7_5 O5_6 1_555 1_555
Cu12_2 O11_6 1_555 1_555
Cu7_4 O19_6 1_555 1_555
Cu20_7 O26_6 1_555 1_555
Cu16_2 O8_6 1_555 1_555
Cu14_5 O6_6 1_555 1_555
Cu19_2 O12_6 1_555 1_555
Cu14_4 O20_6 1_555 1_555
O31_6 Cu3_6 1_555 1_555
O33_6 Cu1_6 1_555 1_555
O34_6 Cu3_6 1_555 1_555
O36_6 Cu1_6 1_555 1_555
O38_6 Cu4_6 1_555 1_555
O40_6 Cu2_6 1_555 1_555
O41_6 Cu4_6 1_555 1_555
O43_6 Cu2_6 1_555 1_555
O4_6 C1_6 1_555 1_555
C2_6 C3_6 1_555 1_555
C17_6 C18_6 1_555 1_555
C25_6 C26_6 1_555 1_555
C26_6 C27_6 1_555 1_555
C29_6 C30_6 1_555 1_555
C32_6 C33_6 1_555 1_555
C35_6 C36_6 1_555 1_555
Cu3_6 Cu4_6 1_555 1_555
O18_6 C37_6 1_555 1_555
C38_6 C39_6 1_555 1_555
C53_6 C54_6 1_555 1_555
C61_6 C62_6 1_555 1_555
C62_6 C63_6 1_555 1_555
C65_6 C66_6 1_555 1_555
C68_6 C69_6 1_555 1_555
O28_6 C70_6 1_555 1_555
C70_6 C71_6 1_555 1_555
C71_6 C72_6 1_555 1_555
O29_16 Cu11_8 1_555 1_555
O30_16 Cu18_8 1_555 1_555
O32_7 Cu11_8 1_555 1_555
O37_6 Cu11_8 1_555 1_555
O39_7 Cu18_8 1_555 1_555
O44_6 Cu18_8 1_555 1_555
O29_17 Cu11_3 1_555 1_555
O30_17 Cu18_3 1_555 1_555
Cu1_7 Cu2_7 1_555 1_555
Cu2_7 O3_7 1_555 1_555
O1_7 Cu1_7 1_555 1_555
O2_7 Cu1_7 1_555 1_555
O4_7 Cu2_7 1_555 1_555
C1_7 O2_7 1_555 1_555
C2_7 H1_7 1_555 1_555
C3_7 C1_7 1_555 1_555
C4_7 C3_7 1_555 1_555
H2_7 C4_7 1_555 1_555
C5_7 C4_7 1_555 1_555
C6_7 C5_7 1_555 1_555
C7_7 C6_7 1_555 1_555
C8_7 C7_7 1_555 1_555
C9_7 C8_7 1_555 1_555
N1_7 C9_7 1_555 1_555
H3_7 N1_7 1_555 1_555
O5_7 C10_7 1_555 1_555
O6_7 C10_7 1_555 1_555
C10_7 C12_7 1_555 1_555
C11_7 H4_7 1_555 1_555
C12_7 C11_7 1_555 1_555
C13_7 C12_7 1_555 1_555
H5_7 C13_7 1_555 1_555
C14_7 C13_7 1_555 1_555
C15_7 C14_7 1_555 1_555
C16_7 C15_7 1_555 1_555
C17_7 C16_7 1_555 1_555
C18_7 C8_7 1_555 1_555
N2_7 C18_7 1_555 1_555
H6_7 N2_7 1_555 1_555
O7_7 C19_7 1_555 1_555
O8_7 C19_7 1_555 1_555
C19_7 C21_7 1_555 1_555
C20_7 H7_7 1_555 1_555
C21_7 C20_7 1_555 1_555
C22_7 C21_7 1_555 1_555
H8_7 C22_7 1_555 1_555
C23_7 C22_7 1_555 1_555
C24_7 C23_7 1_555 1_555
C25_7 C24_7 1_555 1_555
C26_7 C9_7 1_555 1_555
C27_7 C17_7 1_555 1_555
N3_7 C27_7 1_555 1_555
H9_7 N3_7 1_555 1_555
O37_5 C28_7 1_555 1_555
O44_5 C28_7 1_555 1_555
C28_7 C29_7 1_555 1_555
C29_7 C20_7 1_555 1_555
C30_7 C23_7 1_555 1_555
H10_7 C30_7 1_555 1_555
H11_7 N1_7 1_555 1_555
O11_7 C31_7 1_555 1_555
O12_7 C31_7 1_555 1_555
C31_7 C32_7 1_555 1_555
C32_7 C2_7 1_555 1_555
C33_7 C5_7 1_555 1_555
H12_7 C33_7 1_555 1_555
H13_7 N2_7 1_555 1_555
O13_7 C34_7 1_555 1_555
O14_7 C34_7 1_555 1_555
C34_7 C35_7 1_555 1_555
C35_7 C11_7 1_555 1_555
C36_7 C14_7 1_555 1_555
H14_7 C36_7 1_555 1_555
H15_7 N3_7 1_555 1_555
Cu3_7 O13_7 1_555 1_555
Cu4_7 O14_7 1_555 1_555
O15_7 Cu3_7 1_555 1_555
O16_7 Cu3_7 1_555 1_555
O17_7 Cu4_7 1_555 1_555
O18_7 Cu4_7 1_555 1_555
C37_7 O16_7 1_555 1_555
C38_7 H16_7 1_555 1_555
C39_7 C37_7 1_555 1_555
C40_7 C39_7 1_555 1_555
H17_7 C40_7 1_555 1_555
C41_7 C40_7 1_555 1_555
C42_7 C41_7 1_555 1_555
C43_7 C42_7 1_555 1_555
C44_7 C43_7 1_555 1_555
C45_7 C44_7 1_555 1_555
N4_7 C45_7 1_555 1_555
H18_7 N4_7 1_555 1_555
O19_7 C46_7 1_555 1_555
O20_7 C46_7 1_555 1_555
C46_7 C48_7 1_555 1_555
C47_7 H19_7 1_555 1_555
C48_7 C47_7 1_555 1_555
C49_7 C48_7 1_555 1_555
H20_7 C49_7 1_555 1_555
C50_7 C49_7 1_555 1_555
C51_7 C50_7 1_555 1_555
C52_7 C51_7 1_555 1_555
C53_7 C52_7 1_555 1_555
C54_7 C44_7 1_555 1_555
N5_7 C54_7 1_555 1_555
H21_7 N5_7 1_555 1_555
O21_7 C55_7 1_555 1_555
O22_7 C55_7 1_555 1_555
C55_7 C57_7 1_555 1_555
C56_7 H22_7 1_555 1_555
C57_7 C56_7 1_555 1_555
C58_7 C57_7 1_555 1_555
H23_7 C58_7 1_555 1_555
C59_7 C58_7 1_555 1_555
C60_7 C59_7 1_555 1_555
C61_7 C60_7 1_555 1_555
C62_7 C45_7 1_555 1_555
C63_7 C53_7 1_555 1_555
N6_7 C63_7 1_555 1_555
H24_7 N6_7 1_555 1_555
O23_5 C64_7 1_555 1_555
O24_5 C64_7 1_555 1_555
C64_7 C65_7 1_555 1_555
C65_7 C56_7 1_555 1_555
C66_7 C59_7 1_555 1_555
H25_7 C66_7 1_555 1_555
H26_7 N4_7 1_555 1_555
O25_7 C67_7 1_555 1_555
O26_7 C67_7 1_555 1_555
C67_7 C68_7 1_555 1_555
C68_7 C38_7 1_555 1_555
C69_7 C41_7 1_555 1_555
H27_7 C69_7 1_555 1_555
H28_7 N5_7 1_555 1_555
O27_7 Cu1_7 1_555 1_555
O28_7 Cu2_7 1_555 1_555
C70_7 O27_7 1_555 1_555
C71_7 C47_7 1_555 1_555
C72_7 C50_7 1_555 1_555
H29_7 C72_7 1_555 1_555
H30_7 N6_7 1_555 1_555
Cu11_4 O21_7 1_555 1_555
Cu18_4 O22_7 1_555 1_555
O29_18 Cu11_4 1_555 1_555
O30_18 Cu18_4 1_555 1_555
Cu13_4 O25_7 1_555 1_555
Cu11 O7_7 1_555 1_555
Cu12_4 O5_7 1_555 1_555
Cu11_9 O23_5 1_555 1_555
Cu13 O11_7 1_555 1_555
Cu13_9 O19_7 1_555 1_555
Cu20_4 O26_7 1_555 1_555
Cu18 O8_7 1_555 1_555
Cu19_4 O6_7 1_555 1_555
Cu18_9 O24_5 1_555 1_555
Cu20 O12_7 1_555 1_555
Cu20_9 O20_7 1_555 1_555
O31_7 Cu3_7 1_555 1_555
O33_7 Cu1_7 1_555 1_555
O34_7 Cu3_7 1_555 1_555
O35_6 Cu11_4 1_555 1_555
O36_7 Cu1_7 1_555 1_555
O38_7 Cu4_7 1_555 1_555
O40_7 Cu2_7 1_555 1_555
O41_7 Cu4_7 1_555 1_555
O42_6 Cu18_4 1_555 1_555
O43_7 Cu2_7 1_555 1_555
O4_7 C1_7 1_555 1_555
C2_7 C3_7 1_555 1_555
C17_7 C18_7 1_555 1_555
C25_7 C26_7 1_555 1_555
C26_7 C27_7 1_555 1_555
C29_7 C30_7 1_555 1_555
C32_7 C33_7 1_555 1_555
C35_7 C36_7 1_555 1_555
Cu3_7 Cu4_7 1_555 1_555
O18_7 C37_7 1_555 1_555
C38_7 C39_7 1_555 1_555
C53_7 C54_7 1_555 1_555
C61_7 C62_7 1_555 1_555
C62_7 C63_7 1_555 1_555
C65_7 C66_7 1_555 1_555
C68_7 C69_7 1_555 1_555
O28_7 C70_7 1_555 1_555
C70_7 C71_7 1_555 1_555
C71_7 C72_7 1_555 1_555
Cu11_9 Cu18_9 1_555 1_555
Cu13_9 Cu20_9 1_555 1_555
Cu11_10 Cu18_10 1_555 1_555
Cu13_10 Cu20_10 1_555 1_555
Cu1_8 Cu2_8 1_555 1_555
Cu2_8 O3_8 1_555 1_555
O1_8 Cu1_8 1_555 1_555
O2_8 Cu1_8 1_555 1_555
O4_8 Cu2_8 1_555 1_555
C1_8 O2_8 1_555 1_555
C2_8 H1_8 1_555 1_555
C3_8 C1_8 1_555 1_555
C4_8 C3_8 1_555 1_555
H2_8 C4_8 1_555 1_555
C5_8 C4_8 1_555 1_555
C6_8 C5_8 1_555 1_555
C7_8 C6_8 1_555 1_555
C8_8 C7_8 1_555 1_555
C9_8 C8_8 1_555 1_555
N1_8 C9_8 1_555 1_555
H3_8 N1_8 1_555 1_555
O5_8 C10_8 1_555 1_555
O6_8 C10_8 1_555 1_555
C10_8 C12_8 1_555 1_555
C11_8 H4_8 1_555 1_555
C12_8 C11_8 1_555 1_555
C13_8 C12_8 1_555 1_555
H5_8 C13_8 1_555 1_555
C14_8 C13_8 1_555 1_555
C15_8 C14_8 1_555 1_555
C16_8 C15_8 1_555 1_555
C17_8 C16_8 1_555 1_555
C18_8 C8_8 1_555 1_555
N2_8 C18_8 1_555 1_555
H6_8 N2_8 1_555 1_555
O32_6 C19_8 1_555 1_555
O39_6 C19_8 1_555 1_555
C19_8 C21_8 1_555 1_555
C20_8 H7_8 1_555 1_555
C21_8 C20_8 1_555 1_555
C22_8 C21_8 1_555 1_555
H8_8 C22_8 1_555 1_555
C23_8 C22_8 1_555 1_555
C24_8 C23_8 1_555 1_555
C25_8 C24_8 1_555 1_555
C26_8 C9_8 1_555 1_555
C27_8 C17_8 1_555 1_555
N3_8 C27_8 1_555 1_555
H9_8 N3_8 1_555 1_555
O35_2 C28_8 1_555 1_555
O42_2 C28_8 1_555 1_555
C28_8 C29_8 1_555 1_555
C29_8 C20_8 1_555 1_555
C30_8 C23_8 1_555 1_555
H10_8 C30_8 1_555 1_555
H11_8 N1_8 1_555 1_555
O11_8 C31_8 1_555 1_555
O12_8 C31_8 1_555 1_555
C31_8 C32_8 1_555 1_555
C32_8 C2_8 1_555 1_555
C33_8 C5_8 1_555 1_555
H12_8 C33_8 1_555 1_555
H13_8 N2_8 1_555 1_555
O13_8 C34_8 1_555 1_555
O14_8 C34_8 1_555 1_555
C34_8 C35_8 1_555 1_555
C35_8 C11_8 1_555 1_555
C36_8 C14_8 1_555 1_555
H14_8 C36_8 1_555 1_555
H15_8 N3_8 1_555 1_555
Cu3_8 O13_8 1_555 1_555
Cu4_8 O14_8 1_555 1_555
O15_8 Cu3_8 1_555 1_555
O16_8 Cu3_8 1_555 1_555
O17_8 Cu4_8 1_555 1_555
O18_8 Cu4_8 1_555 1_555
C37_8 O16_8 1_555 1_555
C38_8 H16_8 1_555 1_555
C39_8 C37_8 1_555 1_555
C40_8 C39_8 1_555 1_555
H17_8 C40_8 1_555 1_555
C41_8 C40_8 1_555 1_555
C42_8 C41_8 1_555 1_555
C43_8 C42_8 1_555 1_555
C44_8 C43_8 1_555 1_555
C45_8 C44_8 1_555 1_555
N4_8 C45_8 1_555 1_555
H18_8 N4_8 1_555 1_555
O19_8 C46_8 1_555 1_555
O20_8 C46_8 1_555 1_555
C46_8 C48_8 1_555 1_555
C47_8 H19_8 1_555 1_555
C48_8 C47_8 1_555 1_555
C49_8 C48_8 1_555 1_555
H20_8 C49_8 1_555 1_555
C50_8 C49_8 1_555 1_555
C51_8 C50_8 1_555 1_555
C52_8 C51_8 1_555 1_555
C53_8 C52_8 1_555 1_555
C54_8 C44_8 1_555 1_555
N5_8 C54_8 1_555 1_555
H21_8 N5_8 1_555 1_555
O21_8 C55_8 1_555 1_555
O22_8 C55_8 1_555 1_555
C55_8 C57_8 1_555 1_555
C56_8 H22_8 1_555 1_555
C57_8 C56_8 1_555 1_555
C58_8 C57_8 1_555 1_555
H23_8 C58_8 1_555 1_555
C59_8 C58_8 1_555 1_555
C60_8 C59_8 1_555 1_555
C61_8 C60_8 1_555 1_555
C62_8 C45_8 1_555 1_555
C63_8 C53_8 1_555 1_555
N6_8 C63_8 1_555 1_555
H24_8 N6_8 1_555 1_555
O37 C64_8 1_555 1_555
O44 C64_8 1_555 1_555
C64_8 C65_8 1_555 1_555
C65_8 C56_8 1_555 1_555
C66_8 C59_8 1_555 1_555
H25_8 C66_8 1_555 1_555
H26_8 N4_8 1_555 1_555
O25_8 C67_8 1_555 1_555
O26_8 C67_8 1_555 1_555
C67_8 C68_8 1_555 1_555
C68_8 C38_8 1_555 1_555
C69_8 C41_8 1_555 1_555
H27_8 C69_8 1_555 1_555
H28_8 N5_8 1_555 1_555
O27_8 Cu1_8 1_555 1_555
O28_8 Cu2_8 1_555 1_555
C70_8 O27_8 1_555 1_555
C71_8 C47_8 1_555 1_555
C72_8 C50_8 1_555 1_555
H29_8 C72_8 1_555 1_555
H30_8 N6_8 1_555 1_555
Cu11_9 O21_8 1_555 1_555
Cu18_9 O22_8 1_555 1_555
O29_19 Cu11_9 1_555 1_555
O30_19 Cu18_9 1_555 1_555
Cu13_9 O25_8 1_555 1_555
Cu7_3 O5_8 1_555 1_555
Cu10_2 O11_8 1_555 1_555
Cu7_2 O19_8 1_555 1_555
Cu20_9 O26_8 1_555 1_555
Cu14_3 O6_8 1_555 1_555
Cu17_2 O12_8 1_555 1_555
Cu14_2 O20_8 1_555 1_555
O31_8 Cu3_8 1_555 1_555
O33_8 Cu1_8 1_555 1_555
O34_8 Cu3_8 1_555 1_555
O36_8 Cu1_8 1_555 1_555
O38_8 Cu4_8 1_555 1_555
O40_8 Cu2_8 1_555 1_555
O41_8 Cu4_8 1_555 1_555
O43_8 Cu2_8 1_555 1_555
O4_8 C1_8 1_555 1_555
C2_8 C3_8 1_555 1_555
C17_8 C18_8 1_555 1_555
C25_8 C26_8 1_555 1_555
C26_8 C27_8 1_555 1_555
C29_8 C30_8 1_555 1_555
C32_8 C33_8 1_555 1_555
C35_8 C36_8 1_555 1_555
Cu3_8 Cu4_8 1_555 1_555
O18_8 C37_8 1_555 1_555
C38_8 C39_8 1_555 1_555
C53_8 C54_8 1_555 1_555
C61_8 C62_8 1_555 1_555
C62_8 C63_8 1_555 1_555
C65_8 C66_8 1_555 1_555
C68_8 C69_8 1_555 1_555
O28_8 C70_8 1_555 1_555
C70_8 C71_8 1_555 1_555
C71_8 C72_8 1_555 1_555
O29_20 Cu11_10 1_555 1_555
O30_20 Cu18_10 1_555 1_555
O32_8 Cu11_10 1_555 1_555
O37_7 Cu11_10 1_555 1_555
O39_8 Cu18_10 1_555 1_555
O44_7 Cu18_10 1_555 1_555
O29_21 Cu9 1_555 1_555
O30_21 Cu16 1_555 1_555
O29_22 Cu9_2 1_555 1_555
O30_22 Cu16_2 1_555 1_555
O37_8 Cu9_2 1_555 1_555
O44_8 Cu16_2 1_555 1_555
O29_23 Cu11 1_555 1_555
O30_23 Cu18 1_555 1_555
Cu1_9 Cu2_9 1_555 1_555
Cu2_9 O3_9 1_555 1_555
O1_9 Cu1_9 1_555 1_555
O2_9 Cu1_9 1_555 1_555
O4_9 Cu2_9 1_555 1_555
C1_9 O2_9 1_555 1_555
C2_9 H1_9 1_555 1_555
C3_9 C1_9 1_555 1_555
C4_9 C3_9 1_555 1_555
H2_9 C4_9 1_555 1_555
C5_9 C4_9 1_555 1_555
C6_9 C5_9 1_555 1_555
C7_9 C6_9 1_555 1_555
C8_9 C7_9 1_555 1_555
C9_9 C8_9 1_555 1_555
N1_9 C9_9 1_555 1_555
H3_9 N1_9 1_555 1_555
O5_9 C10_9 1_555 1_555
O6_9 C10_9 1_555 1_555
C10_9 C12_9 1_555 1_555
C11_9 H4_9 1_555 1_555
C12_9 C11_9 1_555 1_555
C13_9 C12_9 1_555 1_555
H5_9 C13_9 1_555 1_555
C14_9 C13_9 1_555 1_555
C15_9 C14_9 1_555 1_555
C16_9 C15_9 1_555 1_555
C17_9 C16_9 1_555 1_555
C18_9 C8_9 1_555 1_555
N2_9 C18_9 1_555 1_555
H6_9 N2_9 1_555 1_555
O32_4 C19_9 1_555 1_555
O39_4 C19_9 1_555 1_555
C19_9 C21_9 1_555 1_555
C20_9 H7_9 1_555 1_555
C21_9 C20_9 1_555 1_555
C22_9 C21_9 1_555 1_555
H8_9 C22_9 1_555 1_555
C23_9 C22_9 1_555 1_555
C24_9 C23_9 1_555 1_555
C25_9 C24_9 1_555 1_555
C26_9 C9_9 1_555 1_555
C27_9 C17_9 1_555 1_555
N3_9 C27_9 1_555 1_555
H9_9 N3_9 1_555 1_555
O37_8 C28_9 1_555 1_555
O44_8 C28_9 1_555 1_555
C28_9 C29_9 1_555 1_555
C29_9 C20_9 1_555 1_555
C30_9 C23_9 1_555 1_555
H10_9 C30_9 1_555 1_555
H11_9 N1_9 1_555 1_555
O11_9 C31_9 1_555 1_555
O12_9 C31_9 1_555 1_555
C31_9 C32_9 1_555 1_555
C32_9 C2_9 1_555 1_555
C33_9 C5_9 1_555 1_555
H12_9 C33_9 1_555 1_555
H13_9 N2_9 1_555 1_555
O13_9 C34_9 1_555 1_555
O14_9 C34_9 1_555 1_555
C34_9 C35_9 1_555 1_555
C35_9 C11_9 1_555 1_555
C36_9 C14_9 1_555 1_555
H14_9 C36_9 1_555 1_555
H15_9 N3_9 1_555 1_555
Cu3_9 O13_9 1_555 1_555
Cu4_9 O14_9 1_555 1_555
O15_9 Cu3_9 1_555 1_555
O16_9 Cu3_9 1_555 1_555
O17_9 Cu4_9 1_555 1_555
O18_9 Cu4_9 1_555 1_555
C37_9 O16_9 1_555 1_555
C38_9 H16_9 1_555 1_555
C39_9 C37_9 1_555 1_555
C40_9 C39_9 1_555 1_555
H17_9 C40_9 1_555 1_555
C41_9 C40_9 1_555 1_555
C42_9 C41_9 1_555 1_555
C43_9 C42_9 1_555 1_555
C44_9 C43_9 1_555 1_555
C45_9 C44_9 1_555 1_555
N4_9 C45_9 1_555 1_555
H18_9 N4_9 1_555 1_555
O19_9 C46_9 1_555 1_555
O20_9 C46_9 1_555 1_555
C46_9 C48_9 1_555 1_555
C47_9 H19_9 1_555 1_555
C48_9 C47_9 1_555 1_555
C49_9 C48_9 1_555 1_555
H20_9 C49_9 1_555 1_555
C50_9 C49_9 1_555 1_555
C51_9 C50_9 1_555 1_555
C52_9 C51_9 1_555 1_555
C53_9 C52_9 1_555 1_555
C54_9 C44_9 1_555 1_555
N5_9 C54_9 1_555 1_555
H21_9 N5_9 1_555 1_555
O21_9 C55_9 1_555 1_555
O22_9 C55_9 1_555 1_555
C55_9 C57_9 1_555 1_555
C56_9 H22_9 1_555 1_555
C57_9 C56_9 1_555 1_555
C58_9 C57_9 1_555 1_555
H23_9 C58_9 1_555 1_555
C59_9 C58_9 1_555 1_555
C60_9 C59_9 1_555 1_555
C61_9 C60_9 1_555 1_555
C62_9 C45_9 1_555 1_555
C63_9 C53_9 1_555 1_555
N6_9 C63_9 1_555 1_555
H24_9 N6_9 1_555 1_555
O35_5 C64_9 1_555 1_555
O42_5 C64_9 1_555 1_555
C64_9 C65_9 1_555 1_555
C65_9 C56_9 1_555 1_555
C66_9 C59_9 1_555 1_555
H25_9 C66_9 1_555 1_555
H26_9 N4_9 1_555 1_555
O25_9 C67_9 1_555 1_555
O26_9 C67_9 1_555 1_555
C67_9 C68_9 1_555 1_555
C68_9 C38_9 1_555 1_555
C69_9 C41_9 1_555 1_555
H27_9 C69_9 1_555 1_555
H28_9 N5_9 1_555 1_555
O27_9 Cu1_9 1_555 1_555
O28_9 Cu2_9 1_555 1_555
C70_9 O27_9 1_555 1_555
C71_9 C47_9 1_555 1_555
C72_9 C50_9 1_555 1_555
H29_9 C72_9 1_555 1_555
H30_9 N6_9 1_555 1_555
Cu11_2 O21_9 1_555 1_555
Cu18_2 O22_9 1_555 1_555
O29_24 Cu11_2 1_555 1_555
O30_24 Cu18_2 1_555 1_555
Cu13_2 O25_9 1_555 1_555
Cu12_2 O5_9 1_555 1_555
Cu13_5 O11_9 1_555 1_555
Cu7_7 O19_9 1_555 1_555
Cu20_2 O26_9 1_555 1_555
Cu19_2 O6_9 1_555 1_555
Cu20_5 O12_9 1_555 1_555
Cu14_7 O20_9 1_555 1_555
O31_9 Cu3_9 1_555 1_555
O33_9 Cu1_9 1_555 1_555
O34_9 Cu3_9 1_555 1_555
O35_7 Cu11_2 1_555 1_555
O36_9 Cu1_9 1_555 1_555
O38_9 Cu4_9 1_555 1_555
O40_9 Cu2_9 1_555 1_555
O41_9 Cu4_9 1_555 1_555
O42_7 Cu18_2 1_555 1_555
O43_9 Cu2_9 1_555 1_555
O4_9 C1_9 1_555 1_555
C2_9 C3_9 1_555 1_555
C17_9 C18_9 1_555 1_555
C25_9 C26_9 1_555 1_555
C26_9 C27_9 1_555 1_555
C29_9 C30_9 1_555 1_555
C32_9 C33_9 1_555 1_555
C35_9 C36_9 1_555 1_555
Cu3_9 Cu4_9 1_555 1_555
O18_9 C37_9 1_555 1_555
C38_9 C39_9 1_555 1_555
C53_9 C54_9 1_555 1_555
C61_9 C62_9 1_555 1_555
C62_9 C63_9 1_555 1_555
C65_9 C66_9 1_555 1_555
C68_9 C69_9 1_555 1_555
O28_9 C70_9 1_555 1_555
C70_9 C71_9 1_555 1_555
C71_9 C72_9 1_555 1_555
O15_10 Cu13_3 1_555 1_555
O17_10 Cu20_3 1_555 1_555
O15_11 Cu13_4 1_555 1_555
O17_11 Cu20_4 1_555 1_555
O31_10 Cu13_4 1_555 1_555
O38_10 Cu20_4 1_555 1_555
Cu14 O3_10 1_555 1_555
O1_10 Cu7 1_555 1_555
O29_25 Cu13 1_555 1_555
O30_25 Cu20 1_555 1_555
Cu14_2 O3_11 1_555 1_555
O1_11 Cu7_2 1_555 1_555
O36_10 Cu7_2 1_555 1_555
O43_10 Cu14_2 1_555 1_555
O29_26 Cu13_2 1_555 1_555
O30_26 Cu20_2 1_555 1_555
O32_9 Cu13_2 1_555 1_555
O39_9 Cu20_2 1_555 1_555
Cu1_10 Cu2_10 1_555 1_555
Cu2_10 O3_12 1_555 1_555
O1_12 Cu1_10 1_555 1_555
O2_10 Cu1_10 1_555 1_555
O4_10 Cu2_10 1_555 1_555
C1_10 O2_10 1_555 1_555
C2_10 H1_10 1_555 1_555
C3_10 C1_10 1_555 1_555
C4_10 C3_10 1_555 1_555
H2_10 C4_10 1_555 1_555
C5_10 C4_10 1_555 1_555
C6_10 C5_10 1_555 1_555
C7_10 C6_10 1_555 1_555
C8_10 C7_10 1_555 1_555
C9_10 C8_10 1_555 1_555
N1_10 C9_10 1_555 1_555
H3_10 N1_10 1_555 1_555
O33_8 C10_10 1_555 1_555
O40_8 C10_10 1_555 1_555
C10_10 C12_10 1_555 1_555
C11_10 H4_10 1_555 1_555
C12_10 C11_10 1_555 1_555
C13_10 C12_10 1_555 1_555
H5_10 C13_10 1_555 1_555
C14_10 C13_10 1_555 1_555
C15_10 C14_10 1_555 1_555
C16_10 C15_10 1_555 1_555
C17_10 C16_10 1_555 1_555
C18_10 C8_10 1_555 1_555
N2_10 C18_10 1_555 1_555
H6_10 N2_10 1_555 1_555
O33_7 C19_10 1_555 1_555
O40_7 C19_10 1_555 1_555
C19_10 C21_10 1_555 1_555
C20_10 H7_10 1_555 1_555
C21_10 C20_10 1_555 1_555
C22_10 C21_10 1_555 1_555
H8_10 C22_10 1_555 1_555
C23_10 C22_10 1_555 1_555
C24_10 C23_10 1_555 1_555
C25_10 C24_10 1_555 1_555
C26_10 C9_10 1_555 1_555
C27_10 C17_10 1_555 1_555
N3_10 C27_10 1_555 1_555
H9_10 N3_10 1_555 1_555
O34_8 C28_10 1_555 1_555
O41_8 C28_10 1_555 1_555
C28_10 C29_10 1_555 1_555
C29_10 C20_10 1_555 1_555
C30_10 C23_10 1_555 1_555
H10_10 C30_10 1_555 1_555
H11_10 N1_10 1_555 1_555
O34_7 C31_10 1_555 1_555
O41_7 C31_10 1_555 1_555
C31_10 C32_10 1_555 1_555
C32_10 C2_10 1_555 1_555
C33_10 C5_10 1_555 1_555
H12_10 C33_10 1_555 1_555
H13_10 N2_10 1_555 1_555
O13_10 C34_10 1_555 1_555
O14_10 C34_10 1_555 1_555
C34_10 C35_10 1_555 1_555
C35_10 C11_10 1_555 1_555
C36_10 C14_10 1_555 1_555
H14_10 C36_10 1_555 1_555
H15_10 N3_10 1_555 1_555
Cu3_10 O13_10 1_555 1_555
Cu4_10 O14_10 1_555 1_555
O15_12 Cu3_10 1_555 1_555
O16_10 Cu3_10 1_555 1_555
O17_12 Cu4_10 1_555 1_555
O18_10 Cu4_10 1_555 1_555
C37_10 O16_10 1_555 1_555
C38_10 H16_10 1_555 1_555
C39_10 C37_10 1_555 1_555
C40_10 C39_10 1_555 1_555
H17_10 C40_10 1_555 1_555
C41_10 C40_10 1_555 1_555
C42_10 C41_10 1_555 1_555
C43_10 C42_10 1_555 1_555
C44_10 C43_10 1_555 1_555
C45_10 C44_10 1_555 1_555
N4_10 C45_10 1_555 1_555
H18_10 N4_10 1_555 1_555
O19_10 C46_10 1_555 1_555
O20_10 C46_10 1_555 1_555
C46_10 C48_10 1_555 1_555
C47_10 H19_10 1_555 1_555
C48_10 C47_10 1_555 1_555
C49_10 C48_10 1_555 1_555
H20_10 C49_10 1_555 1_555
C50_10 C49_10 1_555 1_555
C51_10 C50_10 1_555 1_555
C52_10 C51_10 1_555 1_555
C53_10 C52_10 1_555 1_555
C54_10 C44_10 1_555 1_555
N5_10 C54_10 1_555 1_555
H21_10 N5_10 1_555 1_555
O21_10 C55_10 1_555 1_555
O22_10 C55_10 1_555 1_555
C55_10 C57_10 1_555 1_555
C56_10 H22_10 1_555 1_555
C57_10 C56_10 1_555 1_555
C58_10 C57_10 1_555 1_555
H23_10 C58_10 1_555 1_555
C59_10 C58_10 1_555 1_555
C60_10 C59_10 1_555 1_555
C61_10 C60_10 1_555 1_555
C62_10 C45_10 1_555 1_555
C63_10 C53_10 1_555 1_555
N6_10 C63_10 1_555 1_555
H24_10 N6_10 1_555 1_555
O23_6 C64_10 1_555 1_555
O24_6 C64_10 1_555 1_555
C64_10 C65_10 1_555 1_555
C65_10 C56_10 1_555 1_555
C66_10 C59_10 1_555 1_555
H25_10 C66_10 1_555 1_555
H26_10 N4_10 1_555 1_555
O25_10 C67_10 1_555 1_555
O26_10 C67_10 1_555 1_555
C67_10 C68_10 1_555 1_555
C68_10 C38_10 1_555 1_555
C69_10 C41_10 1_555 1_555
H27_10 C69_10 1_555 1_555
H28_10 N5_10 1_555 1_555
O27_10 Cu1_10 1_555 1_555
O28_10 Cu2_10 1_555 1_555
C70_10 O27_10 1_555 1_555
C71_10 C47_10 1_555 1_555
C72_10 C50_10 1_555 1_555
H29_10 C72_10 1_555 1_555
H30_10 N6_10 1_555 1_555
Cu5_9 O21_10 1_555 1_555
Cu6_9 O22_10 1_555 1_555
O29_27 Cu5_9 1_555 1_555
O30_27 Cu6_9 1_555 1_555
Cu7_9 O25_10 1_555 1_555
Cu11_11 O23_6 1_555 1_555
Cu13_11 O19_10 1_555 1_555
Cu14_9 O26_10 1_555 1_555
Cu18_11 O24_6 1_555 1_555
Cu20_11 O20_10 1_555 1_555
O31_11 Cu3_10 1_555 1_555
O32_10 Cu5_9 1_555 1_555
O33_10 Cu1_10 1_555 1_555
O34_10 Cu3_10 1_555 1_555
O35_8 Cu5_9 1_555 1_555
O36_11 Cu1_10 1_555 1_555
O37_9 Cu5_9 1_555 1_555
O38_11 Cu4_10 1_555 1_555
O39_10 Cu6_9 1_555 1_555
O40_10 Cu2_10 1_555 1_555
O41_10 Cu4_10 1_555 1_555
O42_8 Cu6_9 1_555 1_555
O43_11 Cu2_10 1_555 1_555
O44_9 Cu6_9 1_555 1_555
O4_10 C1_10 1_555 1_555
C2_10 C3_10 1_555 1_555
C17_10 C18_10 1_555 1_555
C25_10 C26_10 1_555 1_555
C26_10 C27_10 1_555 1_555
C29_10 C30_10 1_555 1_555
C32_10 C33_10 1_555 1_555
C35_10 C36_10 1_555 1_555
Cu3_10 Cu4_10 1_555 1_555
O18_10 C37_10 1_555 1_555
C38_10 C39_10 1_555 1_555
C53_10 C54_10 1_555 1_555
C61_10 C62_10 1_555 1_555
C62_10 C63_10 1_555 1_555
C65_10 C66_10 1_555 1_555
C68_10 C69_10 1_555 1_555
O28_10 C70_10 1_555 1_555
C70_10 C71_10 1_555 1_555
C71_10 C72_10 1_555 1_555
Cu5_9 Cu6_9 1_555 1_555
Cu7_9 Cu14_9 1_555 1_555
Cu11_11 Cu18_11 1_555 1_555
Cu13_11 Cu20_11 1_555 1_555
C1_11 O31_5 1_555 1_555
C2_11 H1_11 1_555 1_555
C3_11 C1_11 1_555 1_555
C4_11 C3_11 1_555 1_555
H2_11 C4_11 1_555 1_555
C5_11 C4_11 1_555 1_555
C6_11 C5_11 1_555 1_555
C7_11 C6_11 1_555 1_555
C8_11 C7_11 1_555 1_555
C9_11 C8_11 1_555 1_555
N1_11 C9_11 1_555 1_555
H3_11 N1_11 1_555 1_555
O31_7 C10_11 1_555 1_555
O38_7 C10_11 1_555 1_555
C10_11 C12_11 1_555 1_555
C11_11 H4_11 1_555 1_555
C12_11 C11_11 1_555 1_555
C13_11 C12_11 1_555 1_555
H5_11 C13_11 1_555 1_555
C14_11 C13_11 1_555 1_555
C15_11 C14_11 1_555 1_555
C16_11 C15_11 1_555 1_555
C17_11 C16_11 1_555 1_555
C18_11 C8_11 1_555 1_555
N2_11 C18_11 1_555 1_555
H6_11 N2_11 1_555 1_555
O33 C19_11 1_555 1_555
O40 C19_11 1_555 1_555
C19_11 C21_11 1_555 1_555
C20_11 H7_11 1_555 1_555
C21_11 C20_11 1_555 1_555
C22_11 C21_11 1_555 1_555
H8_11 C22_11 1_555 1_555
C23_11 C22_11 1_555 1_555
C24_11 C23_11 1_555 1_555
C25_11 C24_11 1_555 1_555
C26_11 C9_11 1_555 1_555
C27_11 C17_11 1_555 1_555
N3_11 C27_11 1_555 1_555
H9_11 N3_11 1_555 1_555
O36_7 C28_11 1_555 1_555
O43_7 C28_11 1_555 1_555
C28_11 C29_11 1_555 1_555
C29_11 C20_11 1_555 1_555
C30_11 C23_11 1_555 1_555
H10_11 C30_11 1_555 1_555
H11_11 N1_11 1_555 1_555
O34 C31_11 1_555 1_555
O41 C31_11 1_555 1_555
C31_11 C32_11 1_555 1_555
C32_11 C2_11 1_555 1_555
C33_11 C5_11 1_555 1_555
H12_11 C33_11 1_555 1_555
H13_11 N2_11 1_555 1_555
O36_5 C34_11 1_555 1_555
O43_5 C34_11 1_555 1_555
C34_11 C35_11 1_555 1_555
C35_11 C11_11 1_555 1_555
C36_11 C14_11 1_555 1_555
H14_11 C36_11 1_555 1_555
H15_11 N3_11 1_555 1_555
C37_11 O33_5 1_555 1_555
C38_11 H16_11 1_555 1_555
C39_11 C37_11 1_555 1_555
C40_11 C39_11 1_555 1_555
H17_11 C40_11 1_555 1_555
C41_11 C40_11 1_555 1_555
C42_11 C41_11 1_555 1_555
C43_11 C42_11 1_555 1_555
C44_11 C43_11 1_555 1_555
C45_11 C44_11 1_555 1_555
N4_11 C45_11 1_555 1_555
H18_11 N4_11 1_555 1_555
O33_9 C46_11 1_555 1_555
O40_9 C46_11 1_555 1_555
C46_11 C48_11 1_555 1_555
C47_11 H19_11 1_555 1_555
C48_11 C47_11 1_555 1_555
C49_11 C48_11 1_555 1_555
H20_11 C49_11 1_555 1_555
C50_11 C49_11 1_555 1_555
C51_11 C50_11 1_555 1_555
C52_11 C51_11 1_555 1_555
C53_11 C52_11 1_555 1_555
C54_11 C44_11 1_555 1_555
N5_11 C54_11 1_555 1_555
H21_11 N5_11 1_555 1_555
O21_11 C55_11 1_555 1_555
O22_11 C55_11 1_555 1_555
C55_11 C57_11 1_555 1_555
C56_11 H22_11 1_555 1_555
C57_11 C56_11 1_555 1_555
C58_11 C57_11 1_555 1_555
H23_11 C58_11 1_555 1_555
C59_11 C58_11 1_555 1_555
C60_11 C59_11 1_555 1_555
C61_11 C60_11 1_555 1_555
C62_11 C45_11 1_555 1_555
C63_11 C53_11 1_555 1_555
N6_11 C63_11 1_555 1_555
H24_11 N6_11 1_555 1_555
O34_9 C64_11 1_555 1_555
O41_9 C64_11 1_555 1_555
C64_11 C65_11 1_555 1_555
C65_11 C56_11 1_555 1_555
C66_11 C59_11 1_555 1_555
H25_11 C66_11 1_555 1_555
H26_11 N4_11 1_555 1_555
O25_11 C67_11 1_555 1_555
O26_11 C67_11 1_555 1_555
C67_11 C68_11 1_555 1_555
C68_11 C38_11 1_555 1_555
C69_11 C41_11 1_555 1_555
H27_11 C69_11 1_555 1_555
H28_11 N5_11 1_555 1_555
C70_11 O34_5 1_555 1_555
C71_11 C47_11 1_555 1_555
C72_11 C50_11 1_555 1_555
H29_11 C72_11 1_555 1_555
H30_11 N6_11 1_555 1_555
Cu11_11 O21_11 1_555 1_555
Cu18_11 O22_11 1_555 1_555
O29_28 Cu11_11 1_555 1_555
O30_28 Cu18_11 1_555 1_555
Cu13_11 O25_11 1_555 1_555
Cu20_11 O26_11 1_555 1_555
O32_11 Cu11_11 1_555 1_555
O35_9 Cu11_11 1_555 1_555
O39_11 Cu18_11 1_555 1_555
O42_9 Cu18_11 1_555 1_555
O38_5 C1_11 1_555 1_555
C2_11 C3_11 1_555 1_555
C17_11 C18_11 1_555 1_555
C25_11 C26_11 1_555 1_555
C26_11 C27_11 1_555 1_555
C29_11 C30_11 1_555 1_555
C32_11 C33_11 1_555 1_555
C35_11 C36_11 1_555 1_555
O40_5 C37_11 1_555 1_555
C38_11 C39_11 1_555 1_555
C53_11 C54_11 1_555 1_555
C61_11 C62_11 1_555 1_555
C62_11 C63_11 1_555 1_555
C65_11 C66_11 1_555 1_555
C68_11 C69_11 1_555 1_555
O41_5 C70_11 1_555 1_555
C70_11 C71_11 1_555 1_555
C71_11 C72_11 1_555 1_555
C1_12 O31_4 1_555 1_555
C2_12 H1_12 1_555 1_555
C3_12 C1_12 1_555 1_555
C4_12 C3_12 1_555 1_555
H2_12 C4_12 1_555 1_555
C5_12 C4_12 1_555 1_555
C6_12 C5_12 1_555 1_555
C7_12 C6_12 1_555 1_555
C8_12 C7_12 1_555 1_555
C9_12 C8_12 1_555 1_555
N1_12 C9_12 1_555 1_555
H3_12 N1_12 1_555 1_555
O33_2 C10_12 1_555 1_555
O40_2 C10_12 1_555 1_555
C10_12 C12_12 1_555 1_555
C11_12 H4_12 1_555 1_555
C12_12 C11_12 1_555 1_555
C13_12 C12_12 1_555 1_555
H5_12 C13_12 1_555 1_555
C14_12 C13_12 1_555 1_555
C15_12 C14_12 1_555 1_555
C16_12 C15_12 1_555 1_555
C17_12 C16_12 1_555 1_555
C18_12 C8_12 1_555 1_555
N2_12 C18_12 1_555 1_555
H6_12 N2_12 1_555 1_555
O31_8 C19_12 1_555 1_555
O38_8 C19_12 1_555 1_555
C19_12 C21_12 1_555 1_555
C20_12 H7_12 1_555 1_555
C21_12 C20_12 1_555 1_555
C22_12 C21_12 1_555 1_555
H8_12 C22_12 1_555 1_555
C23_12 C22_12 1_555 1_555
C24_12 C23_12 1_555 1_555
C25_12 C24_12 1_555 1_555
C26_12 C9_12 1_555 1_555
C27_12 C17_12 1_555 1_555
N3_12 C27_12 1_555 1_555
H9_12 N3_12 1_555 1_555
O34_2 C28_12 1_555 1_555
O41_2 C28_12 1_555 1_555
C28_12 C29_12 1_555 1_555
C29_12 C20_12 1_555 1_555
C30_12 C23_12 1_555 1_555
H10_12 C30_12 1_555 1_555
H11_12 N1_12 1_555 1_555
O36_8 C31_12 1_555 1_555
O43_8 C31_12 1_555 1_555
C31_12 C32_12 1_555 1_555
C32_12 C2_12 1_555 1_555
C33_12 C5_12 1_555 1_555
H12_12 C33_12 1_555 1_555
H13_12 N2_12 1_555 1_555
O36_4 C34_12 1_555 1_555
O43_4 C34_12 1_555 1_555
C34_12 C35_12 1_555 1_555
C35_12 C11_12 1_555 1_555
C36_12 C14_12 1_555 1_555
H14_12 C36_12 1_555 1_555
H15_12 N3_12 1_555 1_555
C37_12 O33_4 1_555 1_555
C38_12 H16_12 1_555 1_555
C39_12 C37_12 1_555 1_555
C40_12 C39_12 1_555 1_555
H17_12 C40_12 1_555 1_555
C41_12 C40_12 1_555 1_555
C42_12 C41_12 1_555 1_555
C43_12 C42_12 1_555 1_555
C44_12 C43_12 1_555 1_555
C45_12 C44_12 1_555 1_555
N4_12 C45_12 1_555 1_555
H18_12 N4_12 1_555 1_555
O19_11 C46_12 1_555 1_555
O20_11 C46_12 1_555 1_555
C46_12 C48_12 1_555 1_555
C47_12 H19_12 1_555 1_555
C48_12 C47_12 1_555 1_555
C49_12 C48_12 1_555 1_555
H20_12 C49_12 1_555 1_555
C50_12 C49_12 1_555 1_555
C51_12 C50_12 1_555 1_555
C52_12 C51_12 1_555 1_555
C53_12 C52_12 1_555 1_555
C54_12 C44_12 1_555 1_555
N5_12 C54_12 1_555 1_555
H21_12 N5_12 1_555 1_555
O33_6 C55_12 1_555 1_555
O40_6 C55_12 1_555 1_555
C55_12 C57_12 1_555 1_555
C56_12 H22_12 1_555 1_555
C57_12 C56_12 1_555 1_555
C58_12 C57_12 1_555 1_555
H23_12 C58_12 1_555 1_555
C59_12 C58_12 1_555 1_555
C60_12 C59_12 1_555 1_555
C61_12 C60_12 1_555 1_555
C62_12 C45_12 1_555 1_555
C63_12 C53_12 1_555 1_555
N6_12 C63_12 1_555 1_555
H24_12 N6_12 1_555 1_555
O37_9 C64_12 1_555 1_555
O44_9 C64_12 1_555 1_555
C64_12 C65_12 1_555 1_555
C65_12 C56_12 1_555 1_555
C66_12 C59_12 1_555 1_555
H25_12 C66_12 1_555 1_555
H26_12 N4_12 1_555 1_555
O34_6 C67_12 1_555 1_555
O41_6 C67_12 1_555 1_555
C67_12 C68_12 1_555 1_555
C68_12 C38_12 1_555 1_555
C69_12 C41_12 1_555 1_555
H27_12 C69_12 1_555 1_555
H28_12 N5_12 1_555 1_555
C70_12 O34_4 1_555 1_555
C71_12 C47_12 1_555 1_555
C72_12 C50_12 1_555 1_555
H29_12 C72_12 1_555 1_555
H30_12 N6_12 1_555 1_555
Cu7_9 O19_11 1_555 1_555
Cu14_9 O20_11 1_555 1_555
O38_4 C1_12 1_555 1_555
C2_12 C3_12 1_555 1_555
C17_12 C18_12 1_555 1_555
C25_12 C26_12 1_555 1_555
C26_12 C27_12 1_555 1_555
C29_12 C30_12 1_555 1_555
C32_12 C33_12 1_555 1_555
C35_12 C36_12 1_555 1_555
O40_4 C37_12 1_555 1_555
C38_12 C39_12 1_555 1_555
C53_12 C54_12 1_555 1_555
C61_12 C62_12 1_555 1_555
C62_12 C63_12 1_555 1_555
C65_12 C66_12 1_555 1_555
C68_12 C69_12 1_555 1_555
O41_4 C70_12 1_555 1_555
C70_12 C71_12 1_555 1_555
C71_12 C72_12 1_555 1_555
O15_13 Cu7_7 1_555 1_555
O17_13 Cu14_7 1_555 1_555
C1_13 O32_5 1_555 1_555
C2_13 H1_13 1_555 1_555
C3_13 C1_13 1_555 1_555
C4_13 C3_13 1_555 1_555
H2_13 C4_13 1_555 1_555
C5_13 C4_13 1_555 1_555
C6_13 C5_13 1_555 1_555
C7_13 C6_13 1_555 1_555
C8_13 C7_13 1_555 1_555
C9_13 C8_13 1_555 1_555
N1_13 C9_13 1_555 1_555
H3_13 N1_13 1_555 1_555
O5_10 C10_13 1_555 1_555
O6_10 C10_13 1_555 1_555
C10_13 C12_13 1_555 1_555
C11_13 H4_13 1_555 1_555
C12_13 C11_13 1_555 1_555
C13_13 C12_13 1_555 1_555
H5_13 C13_13 1_555 1_555
C14_13 C13_13 1_555 1_555
C15_13 C14_13 1_555 1_555
C16_13 C15_13 1_555 1_555
C17_13 C16_13 1_555 1_555
C18_13 C8_13 1_555 1_555
N2_13 C18_13 1_555 1_555
H6_13 N2_13 1_555 1_555
O7_8 C19_13 1_555 1_555
O8_8 C19_13 1_555 1_555
C19_13 C21_13 1_555 1_555
C20_13 H7_13 1_555 1_555
C21_13 C20_13 1_555 1_555
C22_13 C21_13 1_555 1_555
H8_13 C22_13 1_555 1_555
C23_13 C22_13 1_555 1_555
C24_13 C23_13 1_555 1_555
C25_13 C24_13 1_555 1_555
C26_13 C9_13 1_555 1_555
C27_13 C17_13 1_555 1_555
N3_13 C27_13 1_555 1_555
H9_13 N3_13 1_555 1_555
O35_8 C28_13 1_555 1_555
O42_8 C28_13 1_555 1_555
C28_13 C29_13 1_555 1_555
C29_13 C20_13 1_555 1_555
C30_13 C23_13 1_555 1_555
H10_13 C30_13 1_555 1_555
H11_13 N1_13 1_555 1_555
O37_7 C31_13 1_555 1_555
O44_7 C31_13 1_555 1_555
C31_13 C32_13 1_555 1_555
C32_13 C2_13 1_555 1_555
C33_13 C5_13 1_555 1_555
H12_13 C33_13 1_555 1_555
H13_13 N2_13 1_555 1_555
O13_11 C34_13 1_555 1_555
O14_11 C34_13 1_555 1_555
C34_13 C35_13 1_555 1_555
C35_13 C11_13 1_555 1_555
C36_13 C14_13 1_555 1_555
H14_13 C36_13 1_555 1_555
H15_13 N3_13 1_555 1_555
Cu7_8 O13_11 1_555 1_555
Cu14_8 O14_11 1_555 1_555
O15_14 Cu7_8 1_555 1_555
O17_14 Cu14_8 1_555 1_555
Cu13_10 O7_8 1_555 1_555
Cu7_9 O5_10 1_555 1_555
Cu20_10 O8_8 1_555 1_555
Cu14_9 O6_10 1_555 1_555
O31_12 Cu7_8 1_555 1_555
O38_12 Cu14_8 1_555 1_555
O39_5 C1_13 1_555 1_555
C2_13 C3_13 1_555 1_555
C17_13 C18_13 1_555 1_555
C25_13 C26_13 1_555 1_555
C26_13 C27_13 1_555 1_555
C29_13 C30_13 1_555 1_555
C32_13 C33_13 1_555 1_555
C35_13 C36_13 1_555 1_555
O15_15 Cu10 1_555 1_555
O17_15 Cu17 1_555 1_555
O15_16 Cu10_2 1_555 1_555
O17_16 Cu17_2 1_555 1_555
Cu19_3 O3_13 1_555 1_555
O1_13 Cu12_3 1_555 1_555
O29_29 Cu12 1_555 1_555
O30_29 Cu19 1_555 1_555
Cu19_4 O3_14 1_555 1_555
O1_14 Cu12_4 1_555 1_555
O29_30 Cu12_2 1_555 1_555
O30_30 Cu19_2 1_555 1_555
O29_31 Cu13_9 1_555 1_555
O30_31 Cu20_9 1_555 1_555
O29_32 Cu13_10 1_555 1_555
O30_32 Cu20_10 1_555 1_555
O37_10 Cu13_10 1_555 1_555
O44_10 Cu20_10 1_555 1_555
O29_33 Cu7_3 1_555 1_555
O30_33 Cu14_3 1_555 1_555
Cu20_7 O3_15 1_555 1_555
O1_15 Cu13_7 1_555 1_555
O29_34 Cu7_4 1_555 1_555
O30_34 Cu14_4 1_555 1_555
O35_10 Cu7_4 1_555 1_555
O42_10 Cu14_4 1_555 1_555
Cu20_8 O3_16 1_555 1_555
O1_16 Cu13_8 1_555 1_555
O2_11 Cu13_8 1_555 1_555
O4_11 Cu20_8 1_555 1_555
C1_14 O2_11 1_555 1_555
C2_14 H1_14 1_555 1_555
C3_14 C1_14 1_555 1_555
C4_14 C3_14 1_555 1_555
H2_14 C4_14 1_555 1_555
C5_14 C4_14 1_555 1_555
C6_14 C5_14 1_555 1_555
C7_14 C6_14 1_555 1_555
C8_14 C7_14 1_555 1_555
C9_14 C8_14 1_555 1_555
N1_14 C9_14 1_555 1_555
H3_14 N1_14 1_555 1_555
O32_8 C10_14 1_555 1_555
O39_8 C10_14 1_555 1_555
C10_14 C12_14 1_555 1_555
C11_14 H4_14 1_555 1_555
C12_14 C11_14 1_555 1_555
C13_14 C12_14 1_555 1_555
H5_14 C13_14 1_555 1_555
C14_14 C13_14 1_555 1_555
C15_14 C14_14 1_555 1_555
C16_14 C15_14 1_555 1_555
C17_14 C16_14 1_555 1_555
C18_14 C8_14 1_555 1_555
N2_14 C18_14 1_555 1_555
H6_14 N2_14 1_555 1_555
O32_11 C19_14 1_555 1_555
O39_11 C19_14 1_555 1_555
C19_14 C21_14 1_555 1_555
C20_14 H7_14 1_555 1_555
C21_14 C20_14 1_555 1_555
C22_14 C21_14 1_555 1_555
H8_14 C22_14 1_555 1_555
C23_14 C22_14 1_555 1_555
C24_14 C23_14 1_555 1_555
C25_14 C24_14 1_555 1_555
C26_14 C9_14 1_555 1_555
C27_14 C17_14 1_555 1_555
N3_14 C27_14 1_555 1_555
H9_14 N3_14 1_555 1_555
O37_10 C28_14 1_555 1_555
O44_10 C28_14 1_555 1_555
C28_14 C29_14 1_555 1_555
C29_14 C20_14 1_555 1_555
C30_14 C23_14 1_555 1_555
H10_14 C30_14 1_555 1_555
H11_14 N1_14 1_555 1_555
O11_10 C31_14 1_555 1_555
O12_10 C31_14 1_555 1_555
C31_14 C32_14 1_555 1_555
C32_14 C2_14 1_555 1_555
C33_14 C5_14 1_555 1_555
H12_14 C33_14 1_555 1_555
H13_14 N2_14 1_555 1_555
O37_6 C34_14 1_555 1_555
O44_6 C34_14 1_555 1_555
C34_14 C35_14 1_555 1_555
C35_14 C11_14 1_555 1_555
C36_14 C14_14 1_555 1_555
H14_14 C36_14 1_555 1_555
H15_14 N3_14 1_555 1_555
Cu13_11 O11_10 1_555 1_555
Cu20_11 O12_10 1_555 1_555
O36_12 Cu13_8 1_555 1_555
O43_12 Cu20_8 1_555 1_555
O4_11 C1_14 1_555 1_555
C2_14 C3_14 1_555 1_555
C17_14 C18_14 1_555 1_555
C25_14 C26_14 1_555 1_555
C26_14 C27_14 1_555 1_555
C29_14 C30_14 1_555 1_555
C32_14 C33_14 1_555 1_555
C35_14 C36_14 1_555 1_555
Cu14_9 O3_17 1_555 1_555
O1_17 Cu7_9 1_555 1_555
O29_35 Cu13_11 1_555 1_555
O30_35 Cu20_11 1_555 1_555
O32_12 Cu13_11 1_555 1_555
O36_13 Cu7_9 1_555 1_555
O39_12 Cu20_11 1_555 1_555
O43_13 Cu14_9 1_555 1_555
O15_17 Cu13_5 1_555 1_555
O17_17 Cu20_5 1_555 1_555
O15_18 Cu13_6 1_555 1_555
O17_18 Cu20_6 1_555 1_555
O31_13 Cu13_6 1_555 1_555
O38_13 Cu20_6 1_555 1_555
O29_36 Cu7_5 1_555 1_555
O30_36 Cu14_5 1_555 1_555
O29_37 Cu7_6 1_555 1_555
O30_37 Cu14_6 1_555 1_555
O35_11 Cu7_6 1_555 1_555
O42_11 Cu14_6 1_555 1_555
C1_15 O31_12 1_555 1_555
C2_15 H1_15 1_555 1_555
C3_15 C1_15 1_555 1_555
C4_15 C3_15 1_555 1_555
H2_15 C4_15 1_555 1_555
C5_15 C4_15 1_555 1_555
C6_15 C5_15 1_555 1_555
C7_15 C6_15 1_555 1_555
C8_15 C7_15 1_555 1_555
C9_15 C8_15 1_555 1_555
N1_15 C9_15 1_555 1_555
H3_15 N1_15 1_555 1_555
O32_7 C10_15 1_555 1_555
O39_7 C10_15 1_555 1_555
C10_15 C12_15 1_555 1_555
C11_15 H4_15 1_555 1_555
C12_15 C11_15 1_555 1_555
C13_15 C12_15 1_555 1_555
H5_15 C13_15 1_555 1_555
C14_15 C13_15 1_555 1_555
C15_15 C14_15 1_555 1_555
C16_15 C15_15 1_555 1_555
C17_15 C16_15 1_555 1_555
C18_15 C8_15 1_555 1_555
N2_15 C18_15 1_555 1_555
H6_15 N2_15 1_555 1_555
O33_10 C19_15 1_555 1_555
O40_10 C19_15 1_555 1_555
C19_15 C21_15 1_555 1_555
C20_15 H7_15 1_555 1_555
C21_15 C20_15 1_555 1_555
C22_15 C21_15 1_555 1_555
H8_15 C22_15 1_555 1_555
C23_15 C22_15 1_555 1_555
C24_15 C23_15 1_555 1_555
C25_15 C24_15 1_555 1_555
C26_15 C9_15 1_555 1_555
C27_15 C17_15 1_555 1_555
N3_15 C27_15 1_555 1_555
H9_15 N3_15 1_555 1_555
O36_12 C28_15 1_555 1_555
O43_12 C28_15 1_555 1_555
C28_15 C29_15 1_555 1_555
C29_15 C20_15 1_555 1_555
C30_15 C23_15 1_555 1_555
H10_15 C30_15 1_555 1_555
H11_15 N1_15 1_555 1_555
O34_10 C31_15 1_555 1_555
O41_10 C31_15 1_555 1_555
C31_15 C32_15 1_555 1_555
C32_15 C2_15 1_555 1_555
C33_15 C5_15 1_555 1_555
H12_15 C33_15 1_555 1_555
H13_15 N2_15 1_555 1_555
O37_4 C34_15 1_555 1_555
O44_4 C34_15 1_555 1_555
C34_15 C35_15 1_555 1_555
C35_15 C11_15 1_555 1_555
C36_15 C14_15 1_555 1_555
H14_15 C36_15 1_555 1_555
H15_15 N3_15 1_555 1_555
O38_12 C1_15 1_555 1_555
C2_15 C3_15 1_555 1_555
C17_15 C18_15 1_555 1_555
C25_15 C26_15 1_555 1_555
C26_15 C27_15 1_555 1_555
C29_15 C30_15 1_555 1_555
C32_15 C33_15 1_555 1_555
C35_15 C36_15 1_555 1_555
C1_16 O31_9 1_555 1_555
C2_16 H1_16 1_555 1_555
C3_16 C1_16 1_555 1_555
C4_16 C3_16 1_555 1_555
H2_16 C4_16 1_555 1_555
C5_16 C4_16 1_555 1_555
C6_16 C5_16 1_555 1_555
C7_16 C6_16 1_555 1_555
C8_16 C7_16 1_555 1_555
C9_16 C8_16 1_555 1_555
N1_16 C9_16 1_555 1_555
H3_16 N1_16 1_555 1_555
O33_3 C10_16 1_555 1_555
O40_3 C10_16 1_555 1_555
C10_16 C12_16 1_555 1_555
C11_16 H4_16 1_555 1_555
C12_16 C11_16 1_555 1_555
C13_16 C12_16 1_555 1_555
H5_16 C13_16 1_555 1_555
C14_16 C13_16 1_555 1_555
C15_16 C14_16 1_555 1_555
C16_16 C15_16 1_555 1_555
C17_16 C16_16 1_555 1_555
C18_16 C8_16 1_555 1_555
N2_16 C18_16 1_555 1_555
H6_16 N2_16 1_555 1_555
O31_6 C19_16 1_555 1_555
O38_6 C19_16 1_555 1_555
C19_16 C21_16 1_555 1_555
C20_16 H7_16 1_555 1_555
C21_16 C20_16 1_555 1_555
C22_16 C21_16 1_555 1_555
H8_16 C22_16 1_555 1_555
C23_16 C22_16 1_555 1_555
C24_16 C23_16 1_555 1_555
C25_16 C24_16 1_555 1_555
C26_16 C9_16 1_555 1_555
C27_16 C17_16 1_555 1_555
N3_16 C27_16 1_555 1_555
H9_16 N3_16 1_555 1_555
O34_3 C28_16 1_555 1_555
O41_3 C28_16 1_555 1_555
C28_16 C29_16 1_555 1_555
C29_16 C20_16 1_555 1_555
C30_16 C23_16 1_555 1_555
H10_16 C30_16 1_555 1_555
H11_16 N1_16 1_555 1_555
O36_6 C31_16 1_555 1_555
O43_6 C31_16 1_555 1_555
C31_16 C32_16 1_555 1_555
C32_16 C2_16 1_555 1_555
C33_16 C5_16 1_555 1_555
H12_16 C33_16 1_555 1_555
H13_16 N2_16 1_555 1_555
O36_9 C34_16 1_555 1_555
O43_9 C34_16 1_555 1_555
C34_16 C35_16 1_555 1_555
C35_16 C11_16 1_555 1_555
C36_16 C14_16 1_555 1_555
H14_16 C36_16 1_555 1_555
H15_16 N3_16 1_555 1_555
O38_9 C1_16 1_555 1_555
C2_16 C3_16 1_555 1_555
C17_16 C18_16 1_555 1_555
C25_16 C26_16 1_555 1_555
C26_16 C27_16 1_555 1_555
C29_16 C30_16 1_555 1_555
C32_16 C33_16 1_555 1_555
C35_16 C36_16 1_555 1_555
C1_17 O32_10 1_555 1_555
C2_17 H1_17 1_555 1_555
C3_17 C1_17 1_555 1_555
C4_17 C3_17 1_555 1_555
H2_17 C4_17 1_555 1_555
C5_17 C4_17 1_555 1_555
C6_17 C5_17 1_555 1_555
C7_17 C6_17 1_555 1_555
C8_17 C7_17 1_555 1_555
C9_17 C8_17 1_555 1_555
N1_17 C9_17 1_555 1_555
H3_17 N1_17 1_555 1_555
O31_13 C10_17 1_555 1_555
O38_13 C10_17 1_555 1_555
C10_17 C12_17 1_555 1_555
C11_17 H4_17 1_555 1_555
C12_17 C11_17 1_555 1_555
C13_17 C12_17 1_555 1_555
H5_17 C13_17 1_555 1_555
C14_17 C13_17 1_555 1_555
C15_17 C14_17 1_555 1_555
C16_17 C15_17 1_555 1_555
C17_17 C16_17 1_555 1_555
C18_17 C8_17 1_555 1_555
N2_17 C18_17 1_555 1_555
H6_17 N2_17 1_555 1_555
O32_2 C19_17 1_555 1_555
O39_2 C19_17 1_555 1_555
C19_17 C21_17 1_555 1_555
C20_17 H7_17 1_555 1_555
C21_17 C20_17 1_555 1_555
C22_17 C21_17 1_555 1_555
H8_17 C22_17 1_555 1_555
C23_17 C22_17 1_555 1_555
C24_17 C23_17 1_555 1_555
C25_17 C24_17 1_555 1_555
C26_17 C9_17 1_555 1_555
C27_17 C17_17 1_555 1_555
N3_17 C27_17 1_555 1_555
H9_17 N3_17 1_555 1_555
O35_4 C28_17 1_555 1_555
O42_4 C28_17 1_555 1_555
C28_17 C29_17 1_555 1_555
C29_17 C20_17 1_555 1_555
C30_17 C23_17 1_555 1_555
H10_17 C30_17 1_555 1_555
H11_17 N1_17 1_555 1_555
O35_10 C31_17 1_555 1_555
O42_10 C31_17 1_555 1_555
C31_17 C32_17 1_555 1_555
C32_17 C2_17 1_555 1_555
C33_17 C5_17 1_555 1_555
H12_17 C33_17 1_555 1_555
H13_17 N2_17 1_555 1_555
O36_13 C34_17 1_555 1_555
O43_13 C34_17 1_555 1_555
C34_17 C35_17 1_555 1_555
C35_17 C11_17 1_555 1_555
C36_17 C14_17 1_555 1_555
H14_17 C36_17 1_555 1_555
H15_17 N3_17 1_555 1_555
O39_10 C1_17 1_555 1_555
C2_17 C3_17 1_555 1_555
C17_17 C18_17 1_555 1_555
C25_17 C26_17 1_555 1_555
C26_17 C27_17 1_555 1_555
C29_17 C30_17 1_555 1_555
C32_17 C33_17 1_555 1_555
C35_17 C36_17 1_555 1_555
C1_18 O32_12 1_555 1_555
C2_18 H1_18 1_555 1_555
C3_18 C1_18 1_555 1_555
C4_18 C3_18 1_555 1_555
H2_18 C4_18 1_555 1_555
C5_18 C4_18 1_555 1_555
C6_18 C5_18 1_555 1_555
C7_18 C6_18 1_555 1_555
C8_18 C7_18 1_555 1_555
C9_18 C8_18 1_555 1_555
N1_18 C9_18 1_555 1_555
H3_18 N1_18 1_555 1_555
O32_9 C10_18 1_555 1_555
O39_9 C10_18 1_555 1_555
C10_18 C12_18 1_555 1_555
C11_18 H4_18 1_555 1_555
C12_18 C11_18 1_555 1_555
C13_18 C12_18 1_555 1_555
H5_18 C13_18 1_555 1_555
C14_18 C13_18 1_555 1_555
C15_18 C14_18 1_555 1_555
C16_18 C15_18 1_555 1_555
C17_18 C16_18 1_555 1_555
C18_18 C8_18 1_555 1_555
N2_18 C18_18 1_555 1_555
H6_18 N2_18 1_555 1_555
O32_3 C19_18 1_555 1_555
O39_3 C19_18 1_555 1_555
C19_18 C21_18 1_555 1_555
C20_18 H7_18 1_555 1_555
C21_18 C20_18 1_555 1_555
C22_18 C21_18 1_555 1_555
H8_18 C22_18 1_555 1_555
C23_18 C22_18 1_555 1_555
C24_18 C23_18 1_555 1_555
C25_18 C24_18 1_555 1_555
C26_18 C9_18 1_555 1_555
C27_18 C17_18 1_555 1_555
N3_18 C27_18 1_555 1_555
H9_18 N3_18 1_555 1_555
O35_7 C28_18 1_555 1_555
O42_7 C28_18 1_555 1_555
C28_18 C29_18 1_555 1_555
C29_18 C20_18 1_555 1_555
C30_18 C23_18 1_555 1_555
H10_18 C30_18 1_555 1_555
H11_18 N1_18 1_555 1_555
O35_11 C31_18 1_555 1_555
O42_11 C31_18 1_555 1_555
C31_18 C32_18 1_555 1_555
C32_18 C2_18 1_555 1_555
C33_18 C5_18 1_555 1_555
H12_18 C33_18 1_555 1_555
H13_18 N2_18 1_555 1_555
O35_9 C34_18 1_555 1_555
O42_9 C34_18 1_555 1_555
C34_18 C35_18 1_555 1_555
C35_18 C11_18 1_555 1_555
C36_18 C14_18 1_555 1_555
H14_18 C36_18 1_555 1_555
H15_18 N3_18 1_555 1_555
O39_12 C1_18 1_555 1_555
C2_18 C3_18 1_555 1_555
C17_18 C18_18 1_555 1_555
C25_18 C26_18 1_555 1_555
C26_18 C27_18 1_555 1_555
C29_18 C30_18 1_555 1_555
C32_18 C33_18 1_555 1_555
C35_18 C36_18 1_555 1_555
C1_19 O31_11 1_555 1_555
C2_19 H1_19 1_555 1_555
C3_19 C1_19 1_555 1_555
C4_19 C3_19 1_555 1_555
H2_19 C4_19 1_555 1_555
C5_19 C4_19 1_555 1_555
C6_19 C5_19 1_555 1_555
C7_19 C6_19 1_555 1_555
C8_19 C7_19 1_555 1_555
C9_19 C8_19 1_555 1_555
N1_19 C9_19 1_555 1_555
H3_19 N1_19 1_555 1_555
O31_10 C10_19 1_555 1_555
O38_10 C10_19 1_555 1_555
C10_19 C12_19 1_555 1_555
C11_19 H4_19 1_555 1_555
C12_19 C11_19 1_555 1_555
C13_19 C12_19 1_555 1_555
H5_19 C13_19 1_555 1_555
C14_19 C13_19 1_555 1_555
C15_19 C14_19 1_555 1_555
C16_19 C15_19 1_555 1_555
C17_19 C16_19 1_555 1_555
C18_19 C8_19 1_555 1_555
N2_19 C18_19 1_555 1_555
H6_19 N2_19 1_555 1_555
O32 C19_19 1_555 1_555
O39 C19_19 1_555 1_555
C19_19 C21_19 1_555 1_555
C20_19 H7_19 1_555 1_555
C21_19 C20_19 1_555 1_555
C22_19 C21_19 1_555 1_555
H8_19 C22_19 1_555 1_555
C23_19 C22_19 1_555 1_555
C24_19 C23_19 1_555 1_555
C25_19 C24_19 1_555 1_555
C26_19 C9_19 1_555 1_555
C27_19 C17_19 1_555 1_555
N3_19 C27_19 1_555 1_555
H9_19 N3_19 1_555 1_555
O35_6 C28_19 1_555 1_555
O42_6 C28_19 1_555 1_555
C28_19 C29_19 1_555 1_555
C29_19 C20_19 1_555 1_555
C30_19 C23_19 1_555 1_555
H10_19 C30_19 1_555 1_555
H11_19 N1_19 1_555 1_555
O36_10 C31_19 1_555 1_555
O43_10 C31_19 1_555 1_555
C31_19 C32_19 1_555 1_555
C32_19 C2_19 1_555 1_555
C33_19 C5_19 1_555 1_555
H12_19 C33_19 1_555 1_555
H13_19 N2_19 1_555 1_555
O36_11 C34_19 1_555 1_555
O43_11 C34_19 1_555 1_555
C34_19 C35_19 1_555 1_555
C35_19 C11_19 1_555 1_555
C36_19 C14_19 1_555 1_555
H14_19 C36_19 1_555 1_555
H15_19 N3_19 1_555 1_555
O38_11 C1_19 1_555 1_555
C2_19 C3_19 1_555 1_555
C17_19 C18_19 1_555 1_555
C25_19 C26_19 1_555 1_555
C26_19 C27_19 1_555 1_555
C29_19 C30_19 1_555 1_555
C32_19 C33_19 1_555 1_555
C35_19 C36_19 1_555 1_555
C1_20 O31_3 1_555 1_555
C2_20 H1_20 1_555 1_555
C3_20 C1_20 1_555 1_555
C4_20 C3_20 1_555 1_555
H2_20 C4_20 1_555 1_555
C5_20 C4_20 1_555 1_555
C6_20 C5_20 1_555 1_555
C7_20 C6_20 1_555 1_555
C8_20 C7_20 1_555 1_555
C9_20 C8_20 1_555 1_555
N1_20 C9_20 1_555 1_555
H3_20 N1_20 1_555 1_555
O31 C10_20 1_555 1_555
O38 C10_20 1_555 1_555
C10_20 C12_20 1_555 1_555
C11_20 H4_20 1_555 1_555
C12_20 C11_20 1_555 1_555
C13_20 C12_20 1_555 1_555
H5_20 C13_20 1_555 1_555
C14_20 C13_20 1_555 1_555
C15_20 C14_20 1_555 1_555
C16_20 C15_20 1_555 1_555
C17_20 C16_20 1_555 1_555
C18_20 C8_20 1_555 1_555
N2_20 C18_20 1_555 1_555
H6_20 N2_20 1_555 1_555
O31_2 C19_20 1_555 1_555
O38_2 C19_20 1_555 1_555
C19_20 C21_20 1_555 1_555
C20_20 H7_20 1_555 1_555
C21_20 C20_20 1_555 1_555
C22_20 C21_20 1_555 1_555
H8_20 C22_20 1_555 1_555
C23_20 C22_20 1_555 1_555
C24_20 C23_20 1_555 1_555
C25_20 C24_20 1_555 1_555
C26_20 C9_20 1_555 1_555
C27_20 C17_20 1_555 1_555
N3_20 C27_20 1_555 1_555
H9_20 N3_20 1_555 1_555
O36 C28_20 1_555 1_555
O43 C28_20 1_555 1_555
C28_20 C29_20 1_555 1_555
C29_20 C20_20 1_555 1_555
C30_20 C23_20 1_555 1_555
H10_20 C30_20 1_555 1_555
H11_20 N1_20 1_555 1_555
O36_2 C31_20 1_555 1_555
O43_2 C31_20 1_555 1_555
C31_20 C32_20 1_555 1_555
C32_20 C2_20 1_555 1_555
C33_20 C5_20 1_555 1_555
H12_20 C33_20 1_555 1_555
H13_20 N2_20 1_555 1_555
O36_3 C34_20 1_555 1_555
O43_3 C34_20 1_555 1_555
C34_20 C35_20 1_555 1_555
C35_20 C11_20 1_555 1_555
C36_20 C14_20 1_555 1_555
H14_20 C36_20 1_555 1_555
H15_20 N3_20 1_555 1_555
O38_3 C1_20 1_555 1_555
C2_20 C3_20 1_555 1_555
C17_20 C18_20 1_555 1_555
C25_20 C26_20 1_555 1_555
C26_20 C27_20 1_555 1_555
C29_20 C30_20 1_555 1_555
C32_20 C33_20 1_555 1_555
C35_20 C36_20 1_555 1_555

#END
