
###############################################################################
#
# This file contains modified crystal structure data generated from the
# MOF subset of the Cambridge Structural Database (CSD) v543 
# hosted by the Cambridge Crystallographic Data Centre (CCDC).
#
# This work is licensed under the Creative Commons
# Attribution-NonCommercial-ShareAlike 4.0 International License.
# To view a copy of this license, visit
# http://creativecommons.org/licenses/by-nc-sa/4.0/
# or send a letter to
# Creative Commons, PO Box 1866, Mountain View, CA 94042, USA.
#
# CIF created using the CSD Python API on 29 September 2022
# The structure has been converted into the P1 space group
# The structure has a 3D framework
# The original CSD entry RAJFAL is in the triclinic crystal system
# The framework has been calculated to contain at least 10.0% void space
# The void calculation uses a probe of radius 1.32A, grid spacing 0.4
# H atom positions have been added when not included in the experimental data
# Generated hydrogen atom positions removed from atoms on special positions
#
###############################################################################

data_RAJFAL
_chemical_formula_moiety         '(C32 H34 Ca4 O18)n'
_symmetry_cell_setting           triclinic
_symmetry_space_group_name_H-M   'P 1'
_symmetry_Int_Tables_number      1
_space_group_name_Hall           'P 1'
loop_
_symmetry_equiv_pos_site_id
_symmetry_equiv_pos_as_xyz
1 x,y,z
_cell_length_a                   9.824(5)
_cell_length_b                   9.963(5)
_cell_length_c                   10.150(5)
_cell_angle_alpha                74.044(5)
_cell_angle_beta                 86.361(5)
_cell_angle_gamma                78.328(5)
_cell_volume                     935.388
loop_
_atom_site_label
_atom_site_type_symbol
_atom_site_fract_x
_atom_site_fract_y
_atom_site_fract_z
Ca7 Ca 0.49216(4) 0.12032(4) 0.11653(4)
C29 C 0.0471(2) 0.2897(2) 0.0321(2)
C30 C 0.1340(3) 0.2143(3) 0.1570(2)
O10 O 0.07663(19) 0.2000(2) 0.27205(16)
O11 O 0.26097(18) 0.1681(2) 0.14084(18)
Ca10 Ca 0.5000 0.0000 0.5000
O17 O 0.54587(17) 0.18922(14) 0.32385(14)
O19 O 0.52014(19) 0.34879(15) 0.12374(14)
O26 O 0.73198(19) 0.0658(2) 0.07872(19)
H24 H 0.781939 0.0859856 0.150984
O24 O 0.49201(16) 0.13759(14) 0.88544(13)
H23 H 0.755827 0.124758 0.987517
O8 O 0.25970(19) 0.0722(2) 0.47443(17)
Ca10_2 Ca 0.5000 1.0000 0.5000
C17 C 0.5512(2) 0.3130(2) 0.24692(19)
C18 C 0.5939(2) 0.4196(2) 0.30782(19)
C19 C 0.6653(2) 0.3753(2) 0.43005(19)
H10 H 0.6914 0.2788 0.4730
C20 C 0.6982(2) 0.4756(2) 0.48885(19)
C21 C 0.6545(2) 0.6190(2) 0.42814(19)
H11 H 0.6724 0.6860 0.4696
C22 C 0.5834(2) 0.6628(2) 0.30407(18)
C23 C 0.5555(2) 0.5633(2) 0.24236(19)
H12 H 0.5115 0.5927 0.1579
C24 C 0.5347(2) 0.8177(2) 0.24076(19)
C25 C 0.8087(3) 0.5231(2) 0.6725(2)
H13 H 0.7260 0.5837 0.6964
H14 H 0.8646 0.5827 0.6096
C26 C 0.8900(2) 0.4394(2) 0.7988(2)
C27 C 0.8294(2) 0.4250(2) 0.9283(2)
H15 H 0.7362 0.4645 0.9376
O14 O 0.77075(18) 0.42196(15) 0.60956(15)
O20 O 0.52058(17) 0.90394(14) 0.31392(14)
O21 O 0.47942(17) 0.09606(14) 0.68608(14)
O22 O 0.50799(16) 0.86241(14) 0.11456(13)
Ca8 Ca 0.50784(4) 0.87968(4) 0.88347(4)
H20 H 0.758878 0.13872 0.998475
O16 O 0.45413(17) 0.81078(14) 0.67615(14)
O25 O 0.74030(19) 0.9278(2) 0.52557(17)
H19 H 0.756768 0.970792 0.0605793
H21 H 0.21704 0.987807 0.483546
C1 C 0.4488(2) 0.6870(2) 0.75308(19)
C2 C 0.4061(2) 0.5804(2) 0.69218(19)
C3 C 0.3347(2) 0.6247(2) 0.56995(19)
H1 H 0.3086 0.7212 0.5270
C4 C 0.3018(2) 0.5244(2) 0.51115(19)
C5 C 0.3455(2) 0.3810(2) 0.57186(19)
H2 H 0.3276 0.3140 0.5304
C6 C 0.4166(2) 0.3372(2) 0.69593(18)
C7 C 0.4445(2) 0.4367(2) 0.75764(19)
H3 H 0.4885 0.4073 0.8421
C8 C 0.4653(2) 0.1823(2) 0.75924(19)
C9 C 0.1913(3) 0.4769(2) 0.3275(2)
H4 H 0.2740 0.4163 0.3036
H5 H 0.1354 0.4173 0.3904
C10 C 0.1100(2) 0.5606(2) 0.2012(2)
C11 C 0.1706(2) 0.5750(2) 0.0717(2)
H6 H 0.2638 0.5355 0.0624
O3 O 0.22925(18) 0.57804(15) 0.39044(15)
O5 O 0.47986(19) 0.65121(15) 0.87626(14)
H19_2 H 0.243232 0.0292077 0.939421
H21_2 H 0.78296 0.0121934 0.516454
H20_2 H 0.241122 0.86128 0.00152534
O9 O 0.26802(19) 0.9342(2) 0.92128(19)
O12 O 0.73903(18) 0.8319(2) 0.85916(18)
H23_2 H 0.244173 0.875242 0.0124827
H24_2 H 0.218061 0.914014 0.849016
C13 C 0.9529(2) 0.7103(2) 0.9679(2)
C14 C 0.8660(3) 0.7857(3) 0.8430(2)
O1 O 0.92337(19) 0.8000(2) 0.72795(16)
C31 C 0.1053(3) 0.3021(3) 0.9020(2)
H17 H 0.1974 0.2596 0.8923
C32 C 0.0279(3) 0.3766(3) 0.7875(2)
H18 H 0.0688 0.3850 0.7012
C28 C 0.9086(2) 0.3513(3) 0.0436(2)
H16 H 0.8681 0.3431 0.1301
C12 C 0.0914(2) 0.6487(3) 0.9564(2)
H7 H 0.1319 0.6569 0.8699
C15 C 0.8947(3) 0.6979(3) 0.0980(2)
H8 H 0.8026 0.7404 0.1077
C16 C 0.9721(3) 0.6234(3) 0.2125(2)
H9 H 0.9312 0.6150 0.2988
loop_
_geom_bond_atom_site_label_1
_geom_bond_atom_site_label_2
_geom_bond_site_symmetry_1
_geom_bond_site_symmetry_2
Ca7 O11 1_555 1_555
C30 C29 1_555 1_555
O10 C30 1_555 1_555
O11 C30 1_555 1_555
Ca10 O17 1_555 1_555
O17 Ca7 1_555 1_555
O19 Ca7 1_555 1_555
O26 Ca7 1_555 1_555
O26 H24 1_555 1_555
O8 Ca10 1_555 1_555
C17 C18 1_555 1_555
C18 C19 1_555 1_555
C19 H10 1_555 1_555
C20 C19 1_555 1_555
C21 C20 1_555 1_555
H11 C21 1_555 1_555
C22 C21 1_555 1_555
C23 C18 1_555 1_555
H12 C23 1_555 1_555
C24 C22 1_555 1_555
C25 H13 1_555 1_555
H14 C25 1_555 1_555
C26 C25 1_555 1_555
C27 C26 1_555 1_555
H15 C27 1_555 1_555
O14 C20 1_555 1_555
O21 Ca10 1_555 1_555
Ca10_2 O20 1_555 1_555
C17 O17 1_555 1_555
C17 O19 1_555 1_555
C22 C23 1_555 1_555
C24 O20 1_555 1_555
C24 O22 1_555 1_555
C25 O14 1_555 1_555
O16 Ca10_2 1_555 1_555
O25 Ca10_2 1_555 1_555
C1 C2 1_555 1_555
C2 C3 1_555 1_555
C3 H1 1_555 1_555
C4 C3 1_555 1_555
C5 C4 1_555 1_555
H2 C5 1_555 1_555
C6 C5 1_555 1_555
C7 C2 1_555 1_555
H3 C7 1_555 1_555
C8 C6 1_555 1_555
C9 H4 1_555 1_555
H5 C9 1_555 1_555
C10 C9 1_555 1_555
C11 C10 1_555 1_555
H6 C11 1_555 1_555
O3 C4 1_555 1_555
O16 C1 1_555 1_555
O5 C1 1_555 1_555
O21 C8 1_555 1_555
Ca8 O16 1_555 1_555
C6 C7 1_555 1_555
C8 O24 1_555 1_555
C9 O3 1_555 1_555
O5 Ca8 1_555 1_555
O9 Ca8 1_555 1_555
O12 Ca8 1_555 1_555
O9 H24_2 1_555 1_555
C14 C13 1_555 1_555
O1 C14 1_555 1_555
O12 C14 1_555 1_555
H17 C31 1_555 1_555
H18 C32 1_555 1_555
C31 C32 1_555 1_555
H16 C28 1_555 1_555
H7 C12 1_555 1_555
H8 C15 1_555 1_555
H9 C16 1_555 1_555
C15 C16 1_555 1_555

#END
