
###############################################################################
#
# This file contains modified crystal structure data generated from the
# MOF subset of the Cambridge Structural Database (CSD) v543 
# hosted by the Cambridge Crystallographic Data Centre (CCDC).
#
# This work is licensed under the Creative Commons
# Attribution-NonCommercial-ShareAlike 4.0 International License.
# To view a copy of this license, visit
# http://creativecommons.org/licenses/by-nc-sa/4.0/
# or send a letter to
# Creative Commons, PO Box 1866, Mountain View, CA 94042, USA.
#
# CIF created using the CSD Python API on 29 September 2022
# The structure has been converted into the P1 space group
# The structure has a 3D framework
# The original CSD entry RAJFEQ is in the monoclinic crystal system
# The framework has been calculated to contain at least 10.0% void space
# The void calculation uses a probe of radius 1.32A, grid spacing 0.4
#
###############################################################################

data_RAJFEQ
_chemical_formula_moiety         '(C56 H32 Co10 N24 O24)n'
_symmetry_cell_setting           triclinic
_symmetry_space_group_name_H-M   'P 1'
_symmetry_Int_Tables_number      1
_space_group_name_Hall           'P 1'
loop_
_symmetry_equiv_pos_site_id
_symmetry_equiv_pos_as_xyz
1 x,y,z
_cell_length_a                   18.280(3)
_cell_length_b                   11.9163(18)
_cell_length_c                   11.0923(17)
_cell_angle_alpha                90
_cell_angle_beta                 94.040(2)
_cell_angle_gamma                90
_cell_volume                     2410.23
loop_
_atom_site_label
_atom_site_type_symbol
_atom_site_fract_x
_atom_site_fract_y
_atom_site_fract_z
Co5 Co 0.0000 0.89937(6) 0.2500
Co1 Co 0.5000 0.39937(6) 0.2500
C1 C 0.6300(2) 0.2600(4) 0.1676(3)
C2 C 0.6956(2) 0.1942(4) 0.2214(3)
C3 C 0.7508(2) 0.1618(4) 0.1500(3)
H1 H 0.7485 0.1765 0.0675
C4 C 0.8106(2) 0.1053(4) 0.2086(3)
C5 C 0.8130(2) 0.0813(4) 0.3308(3)
C6 C 0.7572(2) 0.1140(4) 0.4035(4)
H2 H 0.7594 0.0988 0.4860
C7 C 0.6992(2) 0.1696(4) 0.3460(4)
H3 H 0.6606 0.1920 0.3909
N1 N 0.87299(18) 0.0622(3) 0.1652(3)
N2 N 0.91108(16) 0.0160(3) 0.2589(3)
N3 N 0.87712(17) 0.0258(3) 0.3602(3)
O1 O 0.47979(14) 0.4144(2) 0.0667(2)
O2 O 0.63150(15) 0.2941(3) 0.0588(2)
O3 O 0.57891(15) 0.2760(3) 0.2353(3)
H4 H 0.4567(18) 0.355(2) 0.047(5)
Co3 Co 0.42296(3) 0.43290(5) 0.50434(4)
C8 C 0.3700(2) 0.2600(4) 0.3324(3)
C9 C 0.3044(2) 0.1942(4) 0.2786(3)
C10 C 0.2492(2) 0.1618(4) 0.3500(3)
H5 H 0.2515 0.1765 0.4325
C11 C 0.1894(2) 0.1053(4) 0.2914(3)
C12 C 0.1870(2) 0.0813(4) 0.1692(3)
C13 C 0.2428(2) 0.1140(4) 0.0965(4)
H6 H 0.2406 0.0988 0.0140
C14 C 0.3008(2) 0.1696(4) 0.1540(4)
H7 H 0.3394 0.1920 0.1091
N4 N 0.12701(18) 0.0622(3) 0.3348(3)
N5 N 0.08892(16) 0.0160(3) 0.2411(3)
N6 N 0.12288(17) 0.0258(3) 0.1398(3)
O4 O 0.52021(14) 0.4144(2) 0.4333(2)
O5 O 0.36850(15) 0.2941(3) 0.4412(2)
O6 O 0.42109(15) 0.2760(3) 0.2647(3)
H8 H 0.5433(18) 0.355(2) 0.453(5)
Co8 Co 0.42296(3) 0.56710(5) 0.00434(4)
Co9 Co 0.57704(3) 0.56710(5) 0.49566(4)
Co10 Co 0.92296(3) 0.06710(5) 0.00434(4)
Co11 Co 0.07704(3) 0.06710(5) 0.49566(4)
N8 N 0.37299(18) 0.4378(3) 0.6652(3)
N9 N 0.41108(16) 0.5160(3) 0.2589(3)
N10 N 0.58892(16) 0.5160(3) 0.2411(3)
N11 N 0.37712(17) 0.5258(3) 0.3602(3)
N12 N 0.62288(17) 0.5258(3) 0.1398(3)
O8 O 0.47979(14) 0.5856(2) 0.5667(2)
Co2 Co 0.57704(3) 0.43290(5) 0.99566(4)
N7 N 0.62701(18) 0.4378(3) 0.8348(3)
O7 O 0.52021(14) 0.5856(2) 0.9333(2)
Co5_2 Co 1.0000 0.89937(6) 0.2500
Co7 Co 0.92296(3) 0.93290(5) 0.50434(4)
Co6 Co 0.07704(3) 0.93290(5) 0.99566(4)
O7_2 O 0.02021(14) 0.0856(2) 0.9333(2)
C1_2 C 0.1300(2) 0.7600(4) 0.1676(3)
C2_2 C 0.1956(2) 0.6942(4) 0.2214(3)
C3_2 C 0.2508(2) 0.6618(4) 0.1500(3)
H1_2 H 0.2485 0.6765 0.0675
C4_2 C 0.3106(2) 0.6053(4) 0.2086(3)
C5_2 C 0.3130(2) 0.5813(4) 0.3308(3)
C6_2 C 0.2572(2) 0.6140(4) 0.4035(4)
H2_2 H 0.2594 0.5988 0.4860
C7_2 C 0.1992(2) 0.6696(4) 0.3460(4)
H3_2 H 0.1606 0.6920 0.3909
N1_2 N 0.37299(18) 0.5622(3) 0.1652(3)
O2_2 O 0.13150(15) 0.7941(3) 0.0588(2)
O3_2 O 0.07891(15) 0.7760(3) 0.2353(3)
O4_2 O 0.02021(14) 0.9144(2) 0.4333(2)
H8_2 H 0.0433(18) 0.855(2) 0.453(5)
N7_2 N 0.12701(18) 0.9378(3) 0.8348(3)
O8_2 O 0.97979(14) 0.0856(2) 0.5667(2)
O1_2 O 0.97979(14) 0.9144(2) 0.0667(2)
H4_2 H 0.9567(18) 0.855(2) 0.047(5)
C8_2 C 0.8700(2) 0.7600(4) 0.3324(3)
C9_2 C 0.8044(2) 0.6942(4) 0.2786(3)
C10_2 C 0.7492(2) 0.6618(4) 0.3500(3)
H5_2 H 0.7515 0.6765 0.4325
C11_2 C 0.6894(2) 0.6053(4) 0.2914(3)
C12_2 C 0.6870(2) 0.5813(4) 0.1692(3)
C13_2 C 0.7428(2) 0.6140(4) 0.0965(4)
H6_2 H 0.7406 0.5988 0.0140
C14_2 C 0.8008(2) 0.6696(4) 0.1540(4)
H7_2 H 0.8394 0.6920 0.1091
N4_2 N 0.62701(18) 0.5622(3) 0.3348(3)
O5_2 O 0.86850(15) 0.7941(3) 0.4412(2)
O6_2 O 0.92109(15) 0.7760(3) 0.2647(3)
N8_2 N 0.87299(18) 0.9378(3) 0.6652(3)
Co4 Co 0.0000 0.10063(6) 0.7500
Co4_2 Co 1.0000 0.10063(6) 0.7500
Co1_2 Co 0.5000 0.60063(6) 0.7500
C1_3 C 0.3700(2) 0.7400(4) 0.8324(3)
C2_3 C 0.3044(2) 0.8058(4) 0.7786(3)
C3_3 C 0.2492(2) 0.8382(4) 0.8500(3)
H1_3 H 0.2515 0.8235 0.9325
C4_3 C 0.1894(2) 0.8947(4) 0.7914(3)
C5_3 C 0.1870(2) 0.9187(4) 0.6692(3)
C6_3 C 0.2428(2) 0.8860(4) 0.5965(4)
H2_3 H 0.2406 0.9012 0.5140
C7_3 C 0.3008(2) 0.8304(4) 0.6540(4)
H3_3 H 0.3394 0.8080 0.6091
N2_2 N 0.08892(16) 0.9840(3) 0.7411(3)
N3_2 N 0.12288(17) 0.9742(3) 0.6398(3)
O2_3 O 0.36850(15) 0.7059(3) 0.9412(2)
O3_3 O 0.42109(15) 0.7240(3) 0.7647(3)
H4_3 H 0.5433(18) 0.645(2) 0.953(5)
C8_3 C 0.6300(2) 0.7400(4) 0.6676(3)
C9_3 C 0.6956(2) 0.8058(4) 0.7214(3)
C10_3 C 0.7508(2) 0.8382(4) 0.6500(3)
H5_3 H 0.7485 0.8235 0.5675
C11_3 C 0.8106(2) 0.8947(4) 0.7086(3)
C12_3 C 0.8130(2) 0.9187(4) 0.8308(3)
C13_3 C 0.7572(2) 0.8860(4) 0.9035(4)
H6_3 H 0.7594 0.9012 0.9860
C14_3 C 0.6992(2) 0.8304(4) 0.8460(4)
H7_3 H 0.6606 0.8080 0.8909
N5_2 N 0.91108(16) 0.9840(3) 0.7589(3)
N6_2 N 0.87712(17) 0.9742(3) 0.8602(3)
O5_3 O 0.63150(15) 0.7059(3) 0.5588(2)
O6_3 O 0.57891(15) 0.7240(3) 0.7353(3)
H8_3 H 0.4567(18) 0.645(2) 0.547(5)
N9_2 N 0.58892(16) 0.4840(3) 0.7411(3)
N10_2 N 0.41108(16) 0.4840(3) 0.7589(3)
N11_2 N 0.62288(17) 0.4742(3) 0.6398(3)
N12_2 N 0.37712(17) 0.4742(3) 0.8602(3)
H4_4 H 0.0433(18) 0.145(2) 0.953(5)
C8_4 C 0.1300(2) 0.2400(4) 0.6676(3)
C9_4 C 0.1956(2) 0.3058(4) 0.7214(3)
C10_4 C 0.2508(2) 0.3382(4) 0.6500(3)
H5_4 H 0.2485 0.3235 0.5675
C11_4 C 0.3106(2) 0.3947(4) 0.7086(3)
C12_4 C 0.3130(2) 0.4187(4) 0.8308(3)
C13_4 C 0.2572(2) 0.3860(4) 0.9035(4)
H6_4 H 0.2594 0.4012 0.9860
C14_4 C 0.1992(2) 0.3304(4) 0.8460(4)
H7_4 H 0.1606 0.3080 0.8909
O5_4 O 0.13150(15) 0.2059(3) 0.5588(2)
O6_4 O 0.07891(15) 0.2240(3) 0.7353(3)
C1_4 C 0.8700(2) 0.2400(4) 0.8324(3)
C2_4 C 0.8044(2) 0.3058(4) 0.7786(3)
C3_4 C 0.7492(2) 0.3382(4) 0.8500(3)
H1_4 H 0.7515 0.3235 0.9325
C4_4 C 0.6894(2) 0.3947(4) 0.7914(3)
C5_4 C 0.6870(2) 0.4187(4) 0.6692(3)
C6_4 C 0.7428(2) 0.3860(4) 0.5965(4)
H2_4 H 0.7406 0.4012 0.5140
C7_4 C 0.8008(2) 0.3304(4) 0.6540(4)
H3_4 H 0.8394 0.3080 0.6091
O2_4 O 0.86850(15) 0.2059(3) 0.9412(2)
O3_4 O 0.92109(15) 0.2240(3) 0.7647(3)
H8_4 H 0.9567(18) 0.145(2) 0.547(5)
loop_
_geom_bond_atom_site_label_1
_geom_bond_atom_site_label_2
_geom_bond_site_symmetry_1
_geom_bond_site_symmetry_2
Co1 O1 1_555 1_555
C1 C2 1_555 1_555
C2 C3 1_555 1_555
C3 H1 1_555 1_555
C4 C3 1_555 1_555
C5 C4 1_555 1_555
C6 C5 1_555 1_555
H2 C6 1_555 1_555
C7 C2 1_555 1_555
H3 C7 1_555 1_555
N1 C4 1_555 1_555
N2 N1 1_555 1_555
N3 C5 1_555 1_555
O1 H4 1_555 1_555
O3 Co1 1_555 1_555
Co3 O4 1_555 1_555
C8 C9 1_555 1_555
C9 C10 1_555 1_555
C10 H5 1_555 1_555
C11 C10 1_555 1_555
C12 C11 1_555 1_555
C13 C12 1_555 1_555
H6 C13 1_555 1_555
C14 C9 1_555 1_555
H7 C14 1_555 1_555
N4 C11 1_555 1_555
N5 N4 1_555 1_555
N6 C12 1_555 1_555
O4 Co1 1_555 1_555
O5 Co3 1_555 1_555
O6 Co1 1_555 1_555
H8 O4 1_555 1_555
Co8 O1 1_555 1_555
Co9 O4 1_555 1_555
Co10 N1 1_555 1_555
Co11 N4 1_555 1_555
N8 Co3 1_555 1_555
N9 Co1 1_555 1_555
N10 Co1 1_555 1_555
N11 Co3 1_555 1_555
O8 Co3 1_555 1_555
C1 O2 1_555 1_555
C1 O3 1_555 1_555
C6 C7 1_555 1_555
N2 N3 1_555 1_555
C8 O5 1_555 1_555
C8 O6 1_555 1_555
C13 C14 1_555 1_555
N5 N6 1_555 1_555
Co9 O8 1_555 1_555
N9 N11 1_555 1_555
N10 N12 1_555 1_555
N7 Co2 1_555 1_555
O7 Co2 1_555 1_555
C1_2 C2_2 1_555 1_555
C2_2 C3_2 1_555 1_555
C3_2 H1_2 1_555 1_555
C4_2 C3_2 1_555 1_555
C5_2 C4_2 1_555 1_555
C6_2 C5_2 1_555 1_555
H2_2 C6_2 1_555 1_555
C7_2 C2_2 1_555 1_555
H3_2 C7_2 1_555 1_555
N1_2 C4_2 1_555 1_555
N9 N1_2 1_555 1_555
N11 C5_2 1_555 1_555
O3_2 Co5 1_555 1_555
O4_2 Co5 1_555 1_555
H8_2 O4_2 1_555 1_555
Co8 N1_2 1_555 1_555
C1_2 O2_2 1_555 1_555
C1_2 O3_2 1_555 1_555
C6_2 C7_2 1_555 1_555
N7_2 Co6 1_555 1_555
Co5_2 O1_2 1_555 1_555
O1_2 H4_2 1_555 1_555
C8_2 C9_2 1_555 1_555
C9_2 C10_2 1_555 1_555
C10_2 H5_2 1_555 1_555
C11_2 C10_2 1_555 1_555
C12_2 C11_2 1_555 1_555
C13_2 C12_2 1_555 1_555
H6_2 C13_2 1_555 1_555
C14_2 C9_2 1_555 1_555
H7_2 C14_2 1_555 1_555
N4_2 C11_2 1_555 1_555
N10 N4_2 1_555 1_555
N12 C12_2 1_555 1_555
O5_2 Co7 1_555 1_555
O6_2 Co5_2 1_555 1_555
Co9 N4_2 1_555 1_555
N8_2 Co7 1_555 1_555
C8_2 O5_2 1_555 1_555
C8_2 O6_2 1_555 1_555
C13_2 C14_2 1_555 1_555
Co1_2 O7 1_555 1_555
C1_3 C2_3 1_555 1_555
C2_3 C3_3 1_555 1_555
C3_3 H1_3 1_555 1_555
C4_3 C3_3 1_555 1_555
C5_3 C4_3 1_555 1_555
C6_3 C5_3 1_555 1_555
H2_3 C6_3 1_555 1_555
C7_3 C2_3 1_555 1_555
H3_3 C7_3 1_555 1_555
N7_2 C4_3 1_555 1_555
N2_2 N7_2 1_555 1_555
N3_2 C5_3 1_555 1_555
O7 H4_3 1_555 1_555
O3_3 Co1_2 1_555 1_555
C8_3 C9_3 1_555 1_555
C9_3 C10_3 1_555 1_555
C10_3 H5_3 1_555 1_555
C11_3 C10_3 1_555 1_555
C12_3 C11_3 1_555 1_555
C13_3 C12_3 1_555 1_555
H6_3 C13_3 1_555 1_555
C14_3 C9_3 1_555 1_555
H7_3 C14_3 1_555 1_555
N8_2 C11_3 1_555 1_555
N5_2 N8_2 1_555 1_555
N6_2 C12_3 1_555 1_555
O8 Co1_2 1_555 1_555
O5_3 Co9 1_555 1_555
O6_3 Co1_2 1_555 1_555
H8_3 O8 1_555 1_555
N9_2 Co1_2 1_555 1_555
N10_2 Co1_2 1_555 1_555
N11_2 Co9 1_555 1_555
C1_3 O2_3 1_555 1_555
C1_3 O3_3 1_555 1_555
C6_3 C7_3 1_555 1_555
N2_2 N3_2 1_555 1_555
C8_3 O5_3 1_555 1_555
C8_3 O6_3 1_555 1_555
C13_3 C14_3 1_555 1_555
N5_2 N6_2 1_555 1_555
N9_2 N11_2 1_555 1_555
N10_2 N12_2 1_555 1_555
Co4 O7_2 1_555 1_555
O7_2 H4_4 1_555 1_555
C8_4 C9_4 1_555 1_555
C9_4 C10_4 1_555 1_555
C10_4 H5_4 1_555 1_555
C11_4 C10_4 1_555 1_555
C12_4 C11_4 1_555 1_555
C13_4 C12_4 1_555 1_555
H6_4 C13_4 1_555 1_555
C14_4 C9_4 1_555 1_555
H7_4 C14_4 1_555 1_555
N8 C11_4 1_555 1_555
N10_2 N8 1_555 1_555
N12_2 C12_4 1_555 1_555
O5_4 Co11 1_555 1_555
O6_4 Co4 1_555 1_555
C8_4 O5_4 1_555 1_555
C8_4 O6_4 1_555 1_555
C13_4 C14_4 1_555 1_555
C1_4 C2_4 1_555 1_555
C2_4 C3_4 1_555 1_555
C3_4 H1_4 1_555 1_555
C4_4 C3_4 1_555 1_555
C5_4 C4_4 1_555 1_555
C6_4 C5_4 1_555 1_555
H2_4 C6_4 1_555 1_555
C7_4 C2_4 1_555 1_555
H3_4 C7_4 1_555 1_555
N7 C4_4 1_555 1_555
N9_2 N7 1_555 1_555
N11_2 C5_4 1_555 1_555
O3_4 Co4_2 1_555 1_555
O8_2 Co4_2 1_555 1_555
H8_4 O8_2 1_555 1_555
C1_4 O2_4 1_555 1_555
C1_4 O3_4 1_555 1_555
C6_4 C7_4 1_555 1_555

#END
