
###############################################################################
#
# This file contains modified crystal structure data generated from the
# MOF subset of the Cambridge Structural Database (CSD) v543 
# hosted by the Cambridge Crystallographic Data Centre (CCDC).
#
# This work is licensed under the Creative Commons
# Attribution-NonCommercial-ShareAlike 4.0 International License.
# To view a copy of this license, visit
# http://creativecommons.org/licenses/by-nc-sa/4.0/
# or send a letter to
# Creative Commons, PO Box 1866, Mountain View, CA 94042, USA.
#
# CIF created using the CSD Python API on 29 September 2022
# The structure has been converted into the P1 space group
# The structure has a 3D framework
# The original CSD entry RAJFAM is in the monoclinic crystal system
# The framework has been calculated to contain at least 10.0% void space
# The void calculation uses a probe of radius 1.32A, grid spacing 0.4
#
###############################################################################

data_RAJFAM
_chemical_formula_moiety         '(C56 H32 Co10 N24 O24)n'
_symmetry_cell_setting           triclinic
_symmetry_space_group_name_H-M   'P 1'
_symmetry_Int_Tables_number      1
_space_group_name_Hall           'P 1'
loop_
_symmetry_equiv_pos_site_id
_symmetry_equiv_pos_as_xyz
1 x,y,z
_cell_length_a                   18.373(9)
_cell_length_b                   11.523(6)
_cell_length_c                   11.034(5)
_cell_angle_alpha                90
_cell_angle_beta                 94.251(9)
_cell_angle_gamma                90
_cell_volume                     2329.6
loop_
_atom_site_label
_atom_site_type_symbol
_atom_site_fract_x
_atom_site_fract_y
_atom_site_fract_z
Co9 Co 0.07530(4) 0.06978(7) 0.49285(6)
N8 N 0.1229(2) 0.0238(4) 0.1385(4)
N10 N 0.0885(2) 0.0131(4) 0.2400(4)
O7 O 0.0204(2) 0.0864(4) 0.9324(3)
Co1 Co 0.0000 0.89567(9) 0.2500
C1 C 0.1280(3) 0.7522(5) 0.1658(5)
C2 C 0.1954(3) 0.6876(5) 0.2210(5)
C3 C 0.2004(3) 0.6651(7) 0.3469(5)
H1 H 0.1614 0.6881 0.3936
C4 C 0.2595(3) 0.6114(6) 0.4035(5)
H2 H 0.2633 0.5973 0.4886
C5 C 0.3131(3) 0.5791(5) 0.3311(5)
C6 C 0.3105(3) 0.6019(5) 0.2085(5)
C7 C 0.2498(3) 0.6591(5) 0.1495(5)
H3 H 0.2472 0.6765 0.0651
N1 N 0.3771(2) 0.5238(4) 0.3615(4)
N2 N 0.4115(2) 0.5131(4) 0.2600(4)
N3 N 0.3728(3) 0.5595(4) 0.1661(4)
O2 O 0.0777(2) 0.7672(4) 0.2335(4)
O3 O 0.1303(2) 0.7862(4) 0.0570(3)
O4 O 0.0204(2) 0.9136(4) 0.4324(3)
H8 H 0.0425(3) 0.8572(6) 0.4620(4)
Co5 Co 0.5000 0.39567(9) 0.2500
Co7 Co 0.42470(4) 0.43022(7) 0.50715(6)
Co10 Co 0.42470(4) 0.56978(7) 0.00715(6)
Co2 Co 0.07530(4) 0.93022(7) 0.99285(6)
N11 N 0.1272(3) 0.9405(4) 0.8339(4)
Co8 Co 0.92470(4) 0.06978(7) 0.00715(6)
N7 N 0.8771(2) 0.0238(4) 0.3615(4)
N9 N 0.9115(2) 0.0131(4) 0.2600(4)
O8 O 0.9796(2) 0.0864(4) 0.5676(3)
Co1_2 Co 1.0000 0.89567(9) 0.2500
O1 O 0.9796(2) 0.9136(4) 0.0676(3)
H4 H 0.9575(3) 0.8572(6) 0.0380(4)
Co3 Co 0.92470(4) 0.93022(7) 0.50715(6)
C8 C 0.8720(3) 0.7522(5) 0.3342(5)
C9 C 0.8046(3) 0.6876(5) 0.2790(5)
C10 C 0.7996(3) 0.6651(7) 0.1531(5)
H5 H 0.8386 0.6881 0.1064
C11 C 0.7405(3) 0.6114(6) 0.0965(5)
H6 H 0.7367 0.5973 0.0114
C12 C 0.6869(3) 0.5791(5) 0.1689(5)
C13 C 0.6895(3) 0.6019(5) 0.2915(5)
C14 C 0.7502(3) 0.6591(5) 0.3505(5)
H7 H 0.7528 0.6765 0.4349
N4 N 0.6229(2) 0.5238(4) 0.1385(4)
N5 N 0.5885(2) 0.5131(4) 0.2400(4)
N6 N 0.6272(3) 0.5595(4) 0.3339(4)
O5 O 0.9223(2) 0.7672(4) 0.2665(4)
O6 O 0.8697(2) 0.7862(4) 0.4430(3)
Co11 Co 0.57530(4) 0.56978(7) 0.49285(6)
N12 N 0.8728(3) 0.9405(4) 0.6661(4)
Co6 Co 0.57530(4) 0.43022(7) 0.99285(6)
C1_2 C 0.6280(3) 0.2522(5) 0.1658(5)
C2_2 C 0.6954(3) 0.1876(5) 0.2210(5)
C3_2 C 0.7004(3) 0.1651(7) 0.3469(5)
H1_2 H 0.6614 0.1881 0.3936
C4_2 C 0.7595(3) 0.1114(6) 0.4035(5)
H2_2 H 0.7633 0.0973 0.4886
C5_2 C 0.8131(3) 0.0791(5) 0.3311(5)
C6_2 C 0.8105(3) 0.1019(5) 0.2085(5)
C7_2 C 0.7498(3) 0.1591(5) 0.1495(5)
H3_2 H 0.7472 0.1765 0.0651
N3_2 N 0.8728(3) 0.0595(4) 0.1661(4)
O1_2 O 0.4796(2) 0.4136(4) 0.0676(3)
H4_2 H 0.4575(3) 0.3572(6) 0.0380(4)
O2_2 O 0.5777(2) 0.2672(4) 0.2335(4)
O3_2 O 0.6303(2) 0.2862(4) 0.0570(3)
C8_2 C 0.3720(3) 0.2522(5) 0.3342(5)
C9_2 C 0.3046(3) 0.1876(5) 0.2790(5)
C10_2 C 0.2996(3) 0.1651(7) 0.1531(5)
H5_2 H 0.3386 0.1881 0.1064
C11_2 C 0.2405(3) 0.1114(6) 0.0965(5)
H6_2 H 0.2367 0.0973 0.0114
C12_2 C 0.1869(3) 0.0791(5) 0.1689(5)
C13_2 C 0.1895(3) 0.1019(5) 0.2915(5)
C14_2 C 0.2502(3) 0.1591(5) 0.3505(5)
H7_2 H 0.2528 0.1765 0.4349
N6_2 N 0.1272(3) 0.0595(4) 0.3339(4)
O4_2 O 0.5204(2) 0.4136(4) 0.4324(3)
H8_2 H 0.5425(3) 0.3572(6) 0.4620(4)
O5_2 O 0.4223(2) 0.2672(4) 0.2665(4)
O6_2 O 0.3697(2) 0.2862(4) 0.4430(3)
N12_2 N 0.3728(3) 0.4405(4) 0.6661(4)
O8_2 O 0.4796(2) 0.5864(4) 0.5676(3)
N11_2 N 0.6272(3) 0.4405(4) 0.8339(4)
O7_2 O 0.5204(2) 0.5864(4) 0.9324(3)
Co1_3 Co -0.0000 0.10433(9) 0.7500
H4_3 H 0.0425(3) 0.1428(6) 0.9620(4)
C8_3 C 0.1280(3) 0.2478(5) 0.6658(5)
C9_3 C 0.1954(3) 0.3124(5) 0.7210(5)
C10_3 C 0.2004(3) 0.3349(7) 0.8469(5)
H5_3 H 0.1614 0.3119 0.8936
C11_3 C 0.2595(3) 0.3886(6) 0.9035(5)
H6_3 H 0.2633 0.4027 0.9886
C12_3 C 0.3131(3) 0.4209(5) 0.8311(5)
C13_3 C 0.3105(3) 0.3981(5) 0.7085(5)
C14_3 C 0.2498(3) 0.3409(5) 0.6495(5)
H7_3 H 0.2472 0.3235 0.5651
N4_2 N 0.3771(2) 0.4762(4) 0.8615(4)
N5_2 N 0.4115(2) 0.4869(4) 0.7600(4)
O5_3 O 0.0777(2) 0.2328(4) 0.7335(4)
O6_3 O 0.1303(2) 0.2138(4) 0.5570(3)
Co4 Co 0.5000 0.60433(9) 0.7500
N7_2 N 0.1229(2) 0.9762(4) 0.6385(4)
N9_2 N 0.0885(2) 0.9869(4) 0.7400(4)
Co1_4 Co 1.0000 0.10433(9) 0.7500
C1_3 C 0.8720(3) 0.2478(5) 0.8342(5)
C2_3 C 0.8046(3) 0.3124(5) 0.7790(5)
C3_3 C 0.7996(3) 0.3349(7) 0.6531(5)
H1_3 H 0.8386 0.3119 0.6064
C4_3 C 0.7405(3) 0.3886(6) 0.5965(5)
H2_3 H 0.7367 0.4027 0.5114
C5_3 C 0.6869(3) 0.4209(5) 0.6689(5)
C6_3 C 0.6895(3) 0.3981(5) 0.7915(5)
C7_3 C 0.7502(3) 0.3409(5) 0.8505(5)
H3_3 H 0.7528 0.3235 0.9349
N1_2 N 0.6229(2) 0.4762(4) 0.6385(4)
N2_2 N 0.5885(2) 0.4869(4) 0.7400(4)
O2_3 O 0.9223(2) 0.2328(4) 0.7665(4)
O3_3 O 0.8697(2) 0.2138(4) 0.9430(3)
H8_3 H 0.9575(3) 0.1428(6) 0.5380(4)
N8_2 N 0.8771(2) 0.9762(4) 0.8615(4)
N10_2 N 0.9115(2) 0.9869(4) 0.7600(4)
C1_4 C 0.3720(3) 0.7478(5) 0.8342(5)
C2_4 C 0.3046(3) 0.8124(5) 0.7790(5)
C3_4 C 0.2996(3) 0.8349(7) 0.6531(5)
H1_4 H 0.3386 0.8119 0.6064
C4_4 C 0.2405(3) 0.8886(6) 0.5965(5)
H2_4 H 0.2367 0.9027 0.5114
C5_4 C 0.1869(3) 0.9209(5) 0.6689(5)
C6_4 C 0.1895(3) 0.8981(5) 0.7915(5)
C7_4 C 0.2502(3) 0.8409(5) 0.8505(5)
H3_4 H 0.2528 0.8235 0.9349
H4_4 H 0.5425(3) 0.6428(6) 0.9620(4)
O2_4 O 0.4223(2) 0.7328(4) 0.7665(4)
O3_4 O 0.3697(2) 0.7138(4) 0.9430(3)
C8_4 C 0.6280(3) 0.7478(5) 0.6658(5)
C9_4 C 0.6954(3) 0.8124(5) 0.7210(5)
C10_4 C 0.7004(3) 0.8349(7) 0.8469(5)
H5_4 H 0.6614 0.8119 0.8936
C11_4 C 0.7595(3) 0.8886(6) 0.9035(5)
H6_4 H 0.7633 0.9027 0.9886
C12_4 C 0.8131(3) 0.9209(5) 0.8311(5)
C13_4 C 0.8105(3) 0.8981(5) 0.7085(5)
C14_4 C 0.7498(3) 0.8409(5) 0.6495(5)
H7_4 H 0.7472 0.8235 0.5651
H8_4 H 0.4575(3) 0.6428(6) 0.5380(4)
O5_4 O 0.5777(2) 0.7328(4) 0.7335(4)
O6_4 O 0.6303(2) 0.7138(4) 0.5570(3)
loop_
_geom_bond_atom_site_label_1
_geom_bond_atom_site_label_2
_geom_bond_site_symmetry_1
_geom_bond_site_symmetry_2
N8 N10 1_555 1_555
C1 C2 1_555 1_555
C2 C3 1_555 1_555
C3 H1 1_555 1_555
C4 C3 1_555 1_555
H2 C4 1_555 1_555
C5 C4 1_555 1_555
C6 C5 1_555 1_555
C7 C2 1_555 1_555
H3 C7 1_555 1_555
N1 C5 1_555 1_555
N2 N1 1_555 1_555
N3 C6 1_555 1_555
O2 Co1 1_555 1_555
O4 Co1 1_555 1_555
H8 O4 1_555 1_555
Co5 N2 1_555 1_555
Co7 N1 1_555 1_555
Co10 N3 1_555 1_555
C1 O2 1_555 1_555
C1 O3 1_555 1_555
C6 C7 1_555 1_555
N2 N3 1_555 1_555
N11 Co2 1_555 1_555
N7 N9 1_555 1_555
Co1_2 O1 1_555 1_555
O1 H4 1_555 1_555
C8 C9 1_555 1_555
C9 C10 1_555 1_555
C10 H5 1_555 1_555
C11 C10 1_555 1_555
H6 C11 1_555 1_555
C12 C11 1_555 1_555
C13 C12 1_555 1_555
C14 C9 1_555 1_555
H7 C14 1_555 1_555
N4 C12 1_555 1_555
N5 N4 1_555 1_555
N6 C13 1_555 1_555
O5 Co1_2 1_555 1_555
O6 Co3 1_555 1_555
Co5 N5 1_555 1_555
Co11 N6 1_555 1_555
N12 Co3 1_555 1_555
C8 O5 1_555 1_555
C8 O6 1_555 1_555
C13 C14 1_555 1_555
N5 N6 1_555 1_555
Co5 O1_2 1_555 1_555
C1_2 C2_2 1_555 1_555
C2_2 C3_2 1_555 1_555
C3_2 H1_2 1_555 1_555
C4_2 C3_2 1_555 1_555
H2_2 C4_2 1_555 1_555
C5_2 C4_2 1_555 1_555
C6_2 C5_2 1_555 1_555
C7_2 C2_2 1_555 1_555
H3_2 C7_2 1_555 1_555
N7 C5_2 1_555 1_555
N3_2 C6_2 1_555 1_555
O1_2 H4_2 1_555 1_555
O2_2 Co5 1_555 1_555
Co7 O4_2 1_555 1_555
C8_2 C9_2 1_555 1_555
C9_2 C10_2 1_555 1_555
C10_2 H5_2 1_555 1_555
C11_2 C10_2 1_555 1_555
H6_2 C11_2 1_555 1_555
C12_2 C11_2 1_555 1_555
C13_2 C12_2 1_555 1_555
C14_2 C9_2 1_555 1_555
H7_2 C14_2 1_555 1_555
N8 C12_2 1_555 1_555
N6_2 C13_2 1_555 1_555
O4_2 Co5 1_555 1_555
H8_2 O4_2 1_555 1_555
O5_2 Co5 1_555 1_555
O6_2 Co7 1_555 1_555
Co10 O1_2 1_555 1_555
Co11 O4_2 1_555 1_555
Co8 N3_2 1_555 1_555
Co9 N6_2 1_555 1_555
N12_2 Co7 1_555 1_555
O8_2 Co7 1_555 1_555
C1_2 O2_2 1_555 1_555
C1_2 O3_2 1_555 1_555
C6_2 C7_2 1_555 1_555
N9 N3_2 1_555 1_555
C8_2 O5_2 1_555 1_555
C8_2 O6_2 1_555 1_555
C13_2 C14_2 1_555 1_555
N10 N6_2 1_555 1_555
Co11 O8_2 1_555 1_555
N11_2 Co6 1_555 1_555
O7_2 Co6 1_555 1_555
Co1_3 O7 1_555 1_555
O7 H4_3 1_555 1_555
C8_3 C9_3 1_555 1_555
C9_3 C10_3 1_555 1_555
C10_3 H5_3 1_555 1_555
C11_3 C10_3 1_555 1_555
H6_3 C11_3 1_555 1_555
C12_3 C11_3 1_555 1_555
C13_3 C12_3 1_555 1_555
C14_3 C9_3 1_555 1_555
H7_3 C14_3 1_555 1_555
N4_2 C12_3 1_555 1_555
N5_2 N4_2 1_555 1_555
N12_2 C13_3 1_555 1_555
O5_3 Co1_3 1_555 1_555
O6_3 Co9 1_555 1_555
Co4 N5_2 1_555 1_555
C8_3 O5_3 1_555 1_555
C8_3 O6_3 1_555 1_555
C13_3 C14_3 1_555 1_555
N5_2 N12_2 1_555 1_555
N7_2 N9_2 1_555 1_555
C1_3 C2_3 1_555 1_555
C2_3 C3_3 1_555 1_555
C3_3 H1_3 1_555 1_555
C4_3 C3_3 1_555 1_555
H2_3 C4_3 1_555 1_555
C5_3 C4_3 1_555 1_555
C6_3 C5_3 1_555 1_555
C7_3 C2_3 1_555 1_555
H3_3 C7_3 1_555 1_555
N1_2 C5_3 1_555 1_555
N2_2 N1_2 1_555 1_555
N11_2 C6_3 1_555 1_555
O2_3 Co1_4 1_555 1_555
O8 Co1_4 1_555 1_555
H8_3 O8 1_555 1_555
Co4 N2_2 1_555 1_555
Co11 N1_2 1_555 1_555
C1_3 O2_3 1_555 1_555
C1_3 O3_3 1_555 1_555
C6_3 C7_3 1_555 1_555
N2_2 N11_2 1_555 1_555
N8_2 N10_2 1_555 1_555
Co4 O7_2 1_555 1_555
C1_4 C2_4 1_555 1_555
C2_4 C3_4 1_555 1_555
C3_4 H1_4 1_555 1_555
C4_4 C3_4 1_555 1_555
H2_4 C4_4 1_555 1_555
C5_4 C4_4 1_555 1_555
C6_4 C5_4 1_555 1_555
C7_4 C2_4 1_555 1_555
H3_4 C7_4 1_555 1_555
N7_2 C5_4 1_555 1_555
N11 C6_4 1_555 1_555
O7_2 H4_4 1_555 1_555
O2_4 Co4 1_555 1_555
C8_4 C9_4 1_555 1_555
C9_4 C10_4 1_555 1_555
C10_4 H5_4 1_555 1_555
C11_4 C10_4 1_555 1_555
H6_4 C11_4 1_555 1_555
C12_4 C11_4 1_555 1_555
C13_4 C12_4 1_555 1_555
C14_4 C9_4 1_555 1_555
H7_4 C14_4 1_555 1_555
N8_2 C12_4 1_555 1_555
N12 C13_4 1_555 1_555
O8_2 Co4 1_555 1_555
H8_4 O8_2 1_555 1_555
O5_4 Co4 1_555 1_555
O6_4 Co11 1_555 1_555
C1_4 O2_4 1_555 1_555
C1_4 O3_4 1_555 1_555
C6_4 C7_4 1_555 1_555
N9_2 N11 1_555 1_555
C8_4 O5_4 1_555 1_555
C8_4 O6_4 1_555 1_555
C13_4 C14_4 1_555 1_555
N10_2 N12 1_555 1_555

#END
