
###############################################################################
#
# This file contains modified crystal structure data generated from the
# MOF subset of the Cambridge Structural Database (CSD) v543 
# hosted by the Cambridge Crystallographic Data Centre (CCDC).
#
# This work is licensed under the Creative Commons
# Attribution-NonCommercial-ShareAlike 4.0 International License.
# To view a copy of this license, visit
# http://creativecommons.org/licenses/by-nc-sa/4.0/
# or send a letter to
# Creative Commons, PO Box 1866, Mountain View, CA 94042, USA.
#
# CIF created using the CSD Python API on 29 September 2022
# The structure has been converted into the P1 space group
# The structure has a 3D framework
# The original CSD entry RAJQEC is in the tetragonal crystal system
# The framework has been calculated to contain at least 10.0% void space
# The void calculation uses a probe of radius 1.32A, grid spacing 0.4
# The framework is charged, counterions have been retained in the structure
# H atom positions have been added when not included in the experimental data
#
###############################################################################

data_RAJQEC
_chemical_formula_moiety         '(C230 H144 Np16 O88 12-)n'
_symmetry_cell_setting           triclinic
_symmetry_space_group_name_H-M   'P 1'
_symmetry_Int_Tables_number      1
_space_group_name_Hall           'P 1'
loop_
_symmetry_equiv_pos_site_id
_symmetry_equiv_pos_as_xyz
1 x,y,z
_cell_length_a                   35.051(4)
_cell_length_b                   35.051(4)
_cell_length_c                   7.1939(8)
_cell_angle_alpha                90
_cell_angle_beta                 90
_cell_angle_gamma                90
_cell_volume                     8838.23
loop_
_atom_site_label
_atom_site_type_symbol
_atom_site_fract_x
_atom_site_fract_y
_atom_site_fract_z
O19 O 0.28523(17) 0.07425(17) 0.0335(8)
O23 O 0.71477(17) 0.42575(17) 0.0335(8)
Np10 Np 0.23298(2) 0.07537(2) 0.25502(4)
Np12 Np 0.76702(2) 0.42463(2) 0.25502(4)
O9 O 0.35899(19) 0.07942(19) 0.4340(9)
O10 O 0.36186(18) 0.03441(18) 0.2169(8)
C32 C 0.3688(2) 0.0680(2) 0.2745(11)
C38 C 0.3996(3) 0.1308(3) 0.1972(12)
H22 H 0.395948 0.138409 0.319700
C39 C 0.3871(2) 0.0952(2) 0.1418(10)
C40 C 0.4175(3) 0.1553(2) 0.0736(12)
H23 H 0.426549 0.178846 0.113327
O11 O 0.64101(19) 0.42058(19) 0.4340(9)
O12 O 0.63814(18) 0.46559(18) 0.2169(8)
C45 C 0.6312(2) 0.4320(2) 0.2745(11)
C51 C 0.6004(3) 0.3692(3) 0.1972(12)
H30 H 0.604052 0.361591 0.319700
C52 C 0.6129(2) 0.4048(2) 0.1418(10)
C53 C 0.5825(3) 0.3447(2) 0.0736(12)
H31 H 0.573451 0.321154 0.113327
Np3 Np 0.32537(2) 0.01702(2) 0.50502(4)
O18 O 0.28070(16) 0.03706(16) 0.4052(8)
O20 O 0.31282(19) 0.0528(2) 0.7819(8)
C56 C 0.2950(3) 0.0480(3) 0.9282(12)
Np4 Np 0.67463(2) 0.48298(2) 0.50502(4)
O21 O 0.63046(17) 0.50233(19) 0.6064(9)
O22 O 0.71930(16) 0.46294(16) 0.4052(8)
O24 O 0.68718(19) 0.4472(2) 0.7819(8)
C57 C 0.7050(3) 0.4520(3) 0.9282(12)
O28 O 0.71294(16) 0.53070(16) 0.6552(8)
O32 O 0.67575(17) 0.53523(17) 0.2835(8)
H34 H 0.287409 0.0189472 0.967057
H35 H 0.712591 0.481053 0.967057
O17 O 0.36954(17) 0.99767(19) 0.6064(9)
O27 O 0.28706(16) 0.96930(16) 0.6552(8)
O31 O 0.32425(17) 0.96477(17) 0.2835(8)
O17_2 O 0.13046(17) 0.00233(19) 0.1064(9)
O27_2 O 0.21294(16) 0.03070(16) 0.1552(8)
O31_2 O 0.17575(17) 0.03523(17) 0.7835(8)
Np3_2 Np 0.17463(2) 0.98298(2) 0.00502(4)
O19_2 O 0.21477(17) 0.92575(17) 0.5335(8)
O20_2 O 0.18718(19) 0.9472(2) 0.2819(8)
C56_2 C 0.2050(3) 0.9520(3) 0.4282(12)
Np10_2 Np 0.26702(2) 0.92463(2) 0.75502(4)
H34_2 H 0.212591 0.981053 0.467057
O9_2 O 0.14101(19) 0.92058(19) 0.9340(9)
O10_2 O 0.13814(18) 0.96559(18) 0.7169(8)
C29 C 0.02016(19) 0.77901(19) 0.0069(9)
C30 C 0.0433(2) 0.7656(2) 0.1475(10)
H17 H 0.046263 0.739320 0.160525
C31 C 0.0585(2) 0.8285(2) 0.2538(11)
C32_2 C 0.1312(2) 0.9320(2) 0.7745(11)
C34 C 0.0622(2) 0.7890(2) 0.2684(10)
H19 H 0.077556 0.778506 0.360752
C35 C 0.0783(2) 0.8559(2) 0.3896(11)
C36 C 0.0353(2) 0.8424(2) 0.1145(11)
H20 H 0.032289 0.868650 0.102209
C37 C 0.0912(3) 0.8901(3) 0.3313(12)
H21 H 0.088801 0.896780 0.206668
C38_2 C 0.1004(3) 0.8692(3) 0.6972(12)
H22_2 H 0.104052 0.861591 0.819700
C39_2 C 0.1129(2) 0.9048(2) 0.6418(10)
C40_2 C 0.0825(3) 0.8447(2) 0.5736(12)
H23_2 H 0.073451 0.821154 0.613327
C41 C 0.1078(3) 0.9154(3) 0.4536(12)
H24 H 0.115672 0.939266 0.412716
O18_2 O 0.21930(16) 0.96294(16) 0.9052(8)
Np4_2 Np 0.82537(2) 0.51702(2) 0.00502(4)
O21_2 O 0.86954(17) 0.49767(19) 0.1064(9)
O23_2 O 0.78523(17) 0.57425(17) 0.5335(8)
O24_2 O 0.81282(19) 0.5528(2) 0.2819(8)
C57_2 C 0.7950(3) 0.5480(3) 0.4282(12)
Np12_2 Np 0.73298(2) 0.57537(2) 0.75502(4)
O28_2 O 0.78706(16) 0.46930(16) 0.1552(8)
H35_2 H 0.787409 0.518947 0.467057
O11_2 O 0.85899(19) 0.57942(19) 0.9340(9)
O12_2 O 0.86186(18) 0.53441(18) 0.7169(8)
C42 C 0.97984(19) 0.72099(19) 0.0069(9)
C43 C 0.9567(2) 0.7344(2) 0.1475(10)
H25 H 0.953737 0.760680 0.160525
C44 C 0.9415(2) 0.6715(2) 0.2538(11)
C45_2 C 0.8688(2) 0.5680(2) 0.7745(11)
C47 C 0.9378(2) 0.7110(2) 0.2684(10)
H27 H 0.922444 0.721494 0.360752
C48 C 0.9217(2) 0.6441(2) 0.3896(11)
C49 C 0.9647(2) 0.6576(2) 0.1145(11)
H28 H 0.967711 0.631350 0.102209
C50 C 0.9088(3) 0.6099(3) 0.3313(12)
H29 H 0.911199 0.603220 0.206668
C51_2 C 0.8996(3) 0.6308(3) 0.6972(12)
H30_2 H 0.895948 0.638409 0.819700
C52_2 C 0.8871(2) 0.5952(2) 0.6418(10)
C53_2 C 0.9175(3) 0.6553(2) 0.5736(12)
H31_2 H 0.926549 0.678846 0.613327
C54 C 0.8922(3) 0.5846(3) 0.4536(12)
H32 H 0.884328 0.560734 0.412716
O22_2 O 0.78070(16) 0.53706(16) 0.9052(8)
O32_2 O 0.82425(17) 0.46477(17) 0.7835(8)
O20_3 O 0.6972(2) 0.56282(19) 0.0319(8)
C56_3 C 0.7020(3) 0.5450(3) 0.1782(12)
O24_3 O 0.3028(2) 0.93718(19) 0.0319(8)
C57_3 C 0.2980(3) 0.9550(3) 0.1782(12)
H34_3 H 0.731053 0.537409 0.217057
H35_3 H 0.268947 0.962591 0.217057
O9_3 O 0.67058(19) 0.60899(19) 0.6840(9)
O10_3 O 0.71559(18) 0.61186(18) 0.4669(8)
C31_2 C 0.5785(2) 0.6915(2) 0.0038(11)
C32_3 C 0.6820(2) 0.6188(2) 0.5245(11)
C34_2 C 0.5390(2) 0.6878(2) 0.0184(10)
H19_2 H 0.528506 0.672444 0.110752
C35_2 C 0.6059(2) 0.6717(2) 0.1396(11)
C37_2 C 0.6401(3) 0.6588(3) 0.0813(12)
C38_3 C 0.6192(3) 0.6496(3) 0.4472(12)
H22_3 H 0.611591 0.645948 0.569700
C39_3 C 0.6548(2) 0.6371(2) 0.3918(10)
C40_3 C 0.5947(2) 0.6675(3) 0.3236(12)
H23_3 H 0.571154 0.676549 0.363327
C41_2 C 0.6654(3) 0.6422(3) 0.2036(12)
H24_2 H 0.689266 0.634328 0.162716
O11_3 O 0.32942(19) 0.89101(19) 0.6840(9)
O12_3 O 0.28441(18) 0.88814(18) 0.4669(8)
C44_2 C 0.4215(2) 0.8085(2) 0.0038(11)
C45_3 C 0.3180(2) 0.8812(2) 0.5245(11)
C47_2 C 0.4610(2) 0.8122(2) 0.0184(10)
H27_2 H 0.471494 0.827556 0.110752
C48_2 C 0.3941(2) 0.8283(2) 0.1396(11)
C50_2 C 0.3599(3) 0.8412(3) 0.0813(12)
C51_3 C 0.3808(3) 0.8504(3) 0.4472(12)
H30_3 H 0.388409 0.854052 0.569700
C52_3 C 0.3452(2) 0.8629(2) 0.3918(10)
C53_3 C 0.4053(2) 0.8325(3) 0.3236(12)
H31_3 H 0.428846 0.823451 0.363327
C54_2 C 0.3346(3) 0.8578(3) 0.2036(12)
H32_2 H 0.310734 0.865672 0.162716
O17_3 O 0.75233(19) 0.61954(17) 0.8564(9)
O21_3 O 0.24767(19) 0.88046(17) 0.8564(9)
O11_4 O 0.17058(19) 0.10899(19) 0.1840(9)
C45_4 C 0.1820(2) 0.1188(2) 0.0245(11)
H30_4 H 0.111591 0.145948 0.069700
O21_4 O 0.25233(19) 0.11954(17) 0.3564(9)
O24_4 O 0.1972(2) 0.06282(19) 0.5319(8)
C57_4 C 0.2020(3) 0.0450(3) 0.6782(12)
H35_4 H 0.231053 0.0374093 0.717057
O9_4 O 0.82942(19) 0.39101(19) 0.1840(9)
C32_4 C 0.8180(2) 0.3812(2) 0.0245(11)
H22_4 H 0.888409 0.354052 0.069700
O17_4 O 0.74767(19) 0.38046(17) 0.3564(9)
O20_4 O 0.8028(2) 0.43718(19) 0.5319(8)
C56_4 C 0.7980(3) 0.4550(3) 0.6782(12)
H34_4 H 0.768947 0.462591 0.717057
C1 C 0.500000 0.250000 0.375000
C2 C 0.52901(19) 0.22984(19) 0.2431(9)
C3 C 0.5156(2) 0.2067(2) 0.1025(10)
H1 H 0.489320 0.203737 0.089475
C6 C 0.5683(2) 0.2337(2) 0.2583(10)
H2 H 0.578619 0.249126 0.350929
C9 C 0.5924(2) 0.2147(2) 0.1355(11)
H4 H 0.618650 0.217711 0.147791
H5 H 0.646780 0.161199 0.043332
C16 C 0.47099(19) 0.27016(19) 0.2431(9)
C17 C 0.4844(2) 0.2933(2) 0.1025(10)
H9 H 0.510680 0.296263 0.089475
C20 C 0.4317(2) 0.2663(2) 0.2583(10)
H10 H 0.421381 0.250874 0.350929
C23 C 0.4076(2) 0.2853(2) 0.1355(11)
H12 H 0.381350 0.282289 0.147791
H13 H 0.353220 0.338801 0.043332
C29_2 C 0.47984(19) 0.22099(19) 0.5069(9)
C30_2 C 0.4567(2) 0.2344(2) 0.6475(10)
H17_2 H 0.453737 0.260680 0.660525
C31_3 C 0.4415(2) 0.1715(2) 0.7538(11)
C33 C 0.4837(2) 0.1817(2) 0.4917(10)
H18 H 0.499126 0.171381 0.399071
C34_3 C 0.4378(2) 0.2110(2) 0.7684(10)
H19_3 H 0.422444 0.221494 0.860752
C35_3 C 0.4217(2) 0.1441(2) 0.8896(11)
C36_2 C 0.4647(2) 0.1576(2) 0.6145(11)
H20_2 H 0.467711 0.131350 0.602209
C37_3 C 0.4088(3) 0.1099(3) 0.8313(12)
H21_2 H 0.411199 0.103220 0.706668
C41_3 C 0.3922(3) 0.0846(3) 0.9536(12)
H24_3 H 0.384328 0.060734 0.912716
C42_2 C 0.52016(19) 0.27901(19) 0.5069(9)
C43_2 C 0.5433(2) 0.2656(2) 0.6475(10)
H25_2 H 0.546263 0.239320 0.660525
C44_3 C 0.5585(2) 0.3285(2) 0.7538(11)
C46 C 0.5163(2) 0.3183(2) 0.4917(10)
H26 H 0.500874 0.328619 0.399071
C47_3 C 0.5622(2) 0.2890(2) 0.7684(10)
H27_3 H 0.577556 0.278506 0.860752
C48_3 C 0.5783(2) 0.3559(2) 0.8896(11)
C49_2 C 0.5353(2) 0.3424(2) 0.6145(11)
H28_2 H 0.532289 0.368650 0.602209
C50_3 C 0.5912(3) 0.3901(3) 0.8313(12)
H29_2 H 0.588801 0.396780 0.706668
C54_3 C 0.6078(3) 0.4154(3) 0.9536(12)
H32_3 H 0.615672 0.439266 0.912716
Np1 Np 0.73298(2) 0.07537(2) 0.24498(4)
O1 O 0.75233(19) 0.11954(17) 0.1436(9)
O2 O 0.71294(16) 0.03070(16) 0.3448(8)
O3 O 0.67058(19) 0.10899(19) 0.3160(9)
O5 O 0.71559(18) 0.11186(18) 0.5331(8)
C4 C 0.5785(2) 0.1915(2) 0.9962(11)
C5 C 0.6820(2) 0.1188(2) 0.4755(11)
C7 C 0.5390(2) 0.1878(2) 0.9816(10)
H3 H 0.528506 0.172444 0.889248
C8 C 0.6059(2) 0.1717(2) 0.8604(11)
C10 C 0.6401(3) 0.1588(3) 0.9187(12)
C11 C 0.6192(3) 0.1496(3) 0.5528(12)
H6 H 0.611591 0.145948 0.430300
C12 C 0.6548(2) 0.1371(2) 0.6082(10)
C13 C 0.5947(2) 0.1675(3) 0.6764(12)
H7 H 0.571154 0.176549 0.636673
C14 C 0.6654(3) 0.1422(3) 0.7964(12)
H8 H 0.689266 0.134328 0.837284
O7 O 0.32942(19) 0.39101(19) 0.3160(9)
O8 O 0.28441(18) 0.38814(18) 0.5331(8)
C18 C 0.4215(2) 0.3085(2) 0.9962(11)
C19 C 0.3180(2) 0.3812(2) 0.4755(11)
C21 C 0.4610(2) 0.3122(2) 0.9816(10)
H11 H 0.471494 0.327556 0.889248
C22 C 0.3941(2) 0.3283(2) 0.8604(11)
C24 C 0.3599(3) 0.3412(3) 0.9187(12)
C25 C 0.3808(3) 0.3504(3) 0.5528(12)
H14 H 0.388409 0.354052 0.430300
C26 C 0.3452(2) 0.3629(2) 0.6082(10)
C27 C 0.4053(2) 0.3325(3) 0.6764(12)
H15 H 0.428846 0.323451 0.636673
C28 C 0.3346(3) 0.3578(3) 0.7964(12)
H16 H 0.310734 0.365672 0.837284
Np2 Np 0.26702(2) 0.42463(2) 0.24498(4)
O13 O 0.24767(19) 0.38046(17) 0.1436(9)
O14 O 0.28706(16) 0.46930(16) 0.3448(8)
Np8 Np 0.32537(2) 0.51702(2) 0.49498(4)
O25 O 0.78070(16) 0.03706(16) 0.0948(8)
O26 O 0.21930(16) 0.46294(16) 0.0948(8)
O29 O 0.78523(17) 0.07425(17) 0.4665(8)
O30 O 0.21477(17) 0.42575(17) 0.4665(8)
O4 O 0.67575(17) 0.03523(17) 0.7165(8)
O6 O 0.6972(2) 0.06282(19) 0.9681(8)
C15 C 0.7020(3) 0.0450(3) 0.8218(12)
O15 O 0.32425(17) 0.46477(17) 0.7165(8)
O16 O 0.3028(2) 0.43718(19) 0.9681(8)
C55 C 0.2980(3) 0.4550(3) 0.8218(12)
H33 H 0.268947 0.462591 0.782943
H36 H 0.731053 0.0374093 0.782943
Np6 Np 0.67463(2) 0.98298(2) 0.49498(4)
O7_2 O 0.17058(19) 0.60899(19) 0.8160(9)
C19_2 C 0.1820(2) 0.6188(2) 0.9755(11)
H14_2 H 0.111591 0.645948 0.930300
Np2_2 Np 0.23298(2) 0.57537(2) 0.74498(4)
O13_2 O 0.25233(19) 0.61954(17) 0.6436(9)
O14_2 O 0.21294(16) 0.53070(16) 0.8448(8)
O15_2 O 0.17575(17) 0.53523(17) 0.2165(8)
O16_2 O 0.1972(2) 0.56282(19) 0.4681(8)
C55_2 C 0.2020(3) 0.5450(3) 0.3218(12)
Np8_2 Np 0.17463(2) 0.48298(2) 0.99498(4)
O26_2 O 0.28070(16) 0.53706(16) 0.5948(8)
O30_2 O 0.28523(17) 0.57425(17) 0.9665(8)
H33_2 H 0.231053 0.537409 0.282943
Np6_2 Np 0.82537(2) 0.01702(2) 0.99498(4)
Np1_2 Np 0.76702(2) 0.92463(2) 0.74498(4)
O1_2 O 0.74767(19) 0.88046(17) 0.6436(9)
O2_2 O 0.78706(16) 0.96930(16) 0.8448(8)
O3_2 O 0.82942(19) 0.89101(19) 0.8160(9)
O4_2 O 0.82425(17) 0.96477(17) 0.2165(8)
O6_2 O 0.8028(2) 0.93718(19) 0.4681(8)
C5_2 C 0.8180(2) 0.8812(2) 0.9755(11)
H6_2 H 0.888409 0.854052 0.930300
C15_2 C 0.7980(3) 0.9550(3) 0.3218(12)
O25_2 O 0.71930(16) 0.96294(16) 0.5948(8)
O29_2 O 0.71477(17) 0.92575(17) 0.9665(8)
H36_2 H 0.768947 0.962591 0.282943
O1_3 O 0.63046(17) 0.00233(19) 0.3936(9)
O3_3 O 0.64101(19) 0.92058(19) 0.5660(9)
O5_2 O 0.63814(18) 0.96559(18) 0.7831(8)
O6_3 O 0.68718(19) 0.9472(2) 0.2181(8)
C5_3 C 0.6312(2) 0.9320(2) 0.7255(11)
C11_2 C 0.6004(3) 0.8692(3) 0.8028(12)
H6_3 H 0.604052 0.861591 0.680300
C12_2 C 0.6129(2) 0.9048(2) 0.8582(10)
C13_2 C 0.5825(3) 0.8447(2) 0.9264(12)
H7_2 H 0.573451 0.821154 0.886673
C15_3 C 0.7050(3) 0.9520(3) 0.0718(12)
O7_3 O 0.35899(19) 0.57942(19) 0.5660(9)
O8_2 O 0.36186(18) 0.53441(18) 0.7831(8)
C19_3 C 0.3688(2) 0.5680(2) 0.7255(11)
C25_2 C 0.3996(3) 0.6308(3) 0.8028(12)
H14_3 H 0.395948 0.638409 0.680300
C26_2 C 0.3871(2) 0.5952(2) 0.8582(10)
C27_2 C 0.4175(3) 0.6553(2) 0.9264(12)
H15_2 H 0.426549 0.678846 0.886673
O13_3 O 0.36954(17) 0.49767(19) 0.3936(9)
O16_3 O 0.31282(19) 0.5528(2) 0.2181(8)
C55_3 C 0.2950(3) 0.5480(3) 0.0718(12)
H33_3 H 0.287409 0.518947 0.0329434
H36_3 H 0.712591 0.981053 0.0329434
O7_4 O 0.14101(19) 0.42058(19) 0.0660(9)
O8_3 O 0.13814(18) 0.46559(18) 0.2831(8)
C16_2 C 0.02016(19) 0.27901(19) 0.9931(9)
C17_2 C 0.0433(2) 0.2656(2) 0.8525(10)
H9_2 H 0.046263 0.239320 0.839475
C18_2 C 0.0585(2) 0.3285(2) 0.7462(11)
C19_4 C 0.1312(2) 0.4320(2) 0.2255(11)
C21_2 C 0.0622(2) 0.2890(2) 0.7316(10)
H11_2 H 0.077556 0.278506 0.639248
C22_2 C 0.0783(2) 0.3559(2) 0.6104(11)
C23_2 C 0.0353(2) 0.3424(2) 0.8855(11)
H12_2 H 0.032289 0.368650 0.897791
C24_2 C 0.0912(3) 0.3901(3) 0.6687(12)
H13_2 H 0.088801 0.396780 0.793332
C25_3 C 0.1004(3) 0.3692(3) 0.3028(12)
H14_4 H 0.104052 0.361591 0.180300
C26_3 C 0.1129(2) 0.4048(2) 0.3582(10)
C27_3 C 0.0825(3) 0.3447(2) 0.4264(12)
H15_3 H 0.073451 0.321154 0.386673
C28_2 C 0.1078(3) 0.4154(3) 0.5464(12)
H16_2 H 0.115672 0.439266 0.587284
O13_4 O 0.13046(17) 0.50233(19) 0.8936(9)
O16_4 O 0.18718(19) 0.4472(2) 0.7181(8)
C55_4 C 0.2050(3) 0.4520(3) 0.5718(12)
H33_4 H 0.212591 0.481053 0.532943
O3_4 O 0.85899(19) 0.07942(19) 0.0660(9)
O5_3 O 0.86186(18) 0.03441(18) 0.2831(8)
C2_2 C 0.97984(19) 0.22099(19) 0.9931(9)
C3_2 C 0.9567(2) 0.2344(2) 0.8525(10)
H1_2 H 0.953737 0.260680 0.839475
C4_2 C 0.9415(2) 0.1715(2) 0.7462(11)
C5_4 C 0.8688(2) 0.0680(2) 0.2255(11)
C7_2 C 0.9378(2) 0.2110(2) 0.7316(10)
H3_2 H 0.922444 0.221494 0.639248
C8_2 C 0.9217(2) 0.1441(2) 0.6104(11)
C9_2 C 0.9647(2) 0.1576(2) 0.8855(11)
H4_2 H 0.967711 0.131350 0.897791
C10_2 C 0.9088(3) 0.1099(3) 0.6687(12)
H5_2 H 0.911199 0.103220 0.793332
C11_3 C 0.8996(3) 0.1308(3) 0.3028(12)
H6_4 H 0.895948 0.138409 0.180300
C12_3 C 0.8871(2) 0.0952(2) 0.3582(10)
C13_3 C 0.9175(3) 0.1553(2) 0.4264(12)
H7_3 H 0.926549 0.178846 0.386673
C14_2 C 0.8922(3) 0.0846(3) 0.5464(12)
H8_2 H 0.884328 0.060734 0.587284
O6_4 O 0.81282(19) 0.0528(2) 0.7181(8)
C15_4 C 0.7950(3) 0.0480(3) 0.5718(12)
H36_4 H 0.787409 0.0189472 0.532943
O1_4 O 0.86954(17) 0.99767(19) 0.8936(9)
C1_2 C 0.000000 0.750000 0.875000
H1_3 H 0.010680 0.796263 0.589475
O8_4 O 0.21559(18) 0.61186(18) 0.0331(8)
C16_3 C 0.02901(19) 0.72984(19) 0.7431(9)
C17_3 C 0.0156(2) 0.7067(2) 0.6025(10)
C18_3 C 0.0785(2) 0.6915(2) 0.4962(11)
C20_2 C 0.0683(2) 0.7337(2) 0.7583(10)
H10_2 H 0.078619 0.749126 0.850929
C21_3 C 0.0390(2) 0.6878(2) 0.4816(10)
H11_3 H 0.028506 0.672444 0.389248
C22_3 C 0.1059(2) 0.6717(2) 0.3604(11)
C23_3 C 0.0924(2) 0.7147(2) 0.6355(11)
H12_3 H 0.118650 0.717711 0.647791
C24_3 C 0.1401(3) 0.6588(3) 0.4187(12)
H13_3 H 0.146780 0.661199 0.543332
C25_4 C 0.1192(3) 0.6496(3) 0.0528(12)
C26_4 C 0.1548(2) 0.6371(2) 0.1082(10)
C27_4 C 0.0947(2) 0.6675(3) 0.1764(12)
H15_4 H 0.071154 0.676549 0.136673
C28_3 C 0.1654(3) 0.6422(3) 0.2964(12)
H16_3 H 0.189266 0.634328 0.337284
C33_2 C 0.0163(2) 0.8183(2) 0.9917(10)
H18_2 H 0.000874 0.828619 0.899071
O5_4 O 0.78441(18) 0.88814(18) 0.0331(8)
C1_3 C 1.000000 0.750000 0.875000
C2_3 C 0.97099(19) 0.77016(19) 0.7431(9)
C3_3 C 0.9844(2) 0.7933(2) 0.6025(10)
C4_3 C 0.9215(2) 0.8085(2) 0.4962(11)
C6_2 C 0.9317(2) 0.7663(2) 0.7583(10)
H2_2 H 0.921381 0.750874 0.850929
C7_3 C 0.9610(2) 0.8122(2) 0.4816(10)
H3_3 H 0.971494 0.827556 0.389248
C8_3 C 0.8941(2) 0.8283(2) 0.3604(11)
C9_3 C 0.9076(2) 0.7853(2) 0.6355(11)
H4_3 H 0.881350 0.782289 0.647791
C10_3 C 0.8599(3) 0.8412(3) 0.4187(12)
H5_3 H 0.853220 0.838801 0.543332
C11_4 C 0.8808(3) 0.8504(3) 0.0528(12)
C12_4 C 0.8452(2) 0.8629(2) 0.1082(10)
C13_4 C 0.9053(2) 0.8325(3) 0.1764(12)
H7_4 H 0.928846 0.823451 0.136673
C14_3 C 0.8346(3) 0.8578(3) 0.2964(12)
H8_3 H 0.810734 0.865672 0.337284
H9_3 H 0.989320 0.703737 0.589475
C46_2 C 0.9837(2) 0.6817(2) 0.9917(10)
H26_2 H 0.999126 0.671381 0.899071
C1_4 C 0.500000 0.750000 0.625000
C2_4 C 0.52016(19) 0.77901(19) 0.4931(9)
C3_4 C 0.5433(2) 0.7656(2) 0.3525(10)
H1_4 H 0.546263 0.739320 0.339475
C4_4 C 0.5585(2) 0.8285(2) 0.2462(11)
C6_3 C 0.5163(2) 0.8183(2) 0.5083(10)
H2_3 H 0.500874 0.828619 0.600929
C7_4 C 0.5622(2) 0.7890(2) 0.2316(10)
H3_4 H 0.577556 0.778506 0.139248
C8_4 C 0.5783(2) 0.8559(2) 0.1104(11)
C9_4 C 0.5353(2) 0.8424(2) 0.3855(11)
H4_4 H 0.532289 0.868650 0.397791
C10_4 C 0.5912(3) 0.8901(3) 0.1687(12)
H5_4 H 0.588801 0.896780 0.293332
C14_4 C 0.6078(3) 0.9154(3) 0.0464(12)
H8_4 H 0.615672 0.939266 0.087284
C16_4 C 0.47984(19) 0.72099(19) 0.4931(9)
C17_4 C 0.4567(2) 0.7344(2) 0.3525(10)
H9_4 H 0.453737 0.760680 0.339475
C18_4 C 0.4415(2) 0.6715(2) 0.2462(11)
C20_3 C 0.4837(2) 0.6817(2) 0.5083(10)
H10_3 H 0.499126 0.671381 0.600929
C21_4 C 0.4378(2) 0.7110(2) 0.2316(10)
H11_4 H 0.422444 0.721494 0.139248
C22_4 C 0.4217(2) 0.6441(2) 0.1104(11)
C23_4 C 0.4647(2) 0.6576(2) 0.3855(11)
H12_4 H 0.467711 0.631350 0.397791
C24_4 C 0.4088(3) 0.6099(3) 0.1687(12)
H13_4 H 0.411199 0.603220 0.293332
C28_4 C 0.3922(3) 0.5846(3) 0.0464(12)
H16_4 H 0.384328 0.560734 0.087284
C29_3 C 0.52901(19) 0.72984(19) 0.7569(9)
C30_3 C 0.5156(2) 0.7067(2) 0.8975(10)
H17_3 H 0.489320 0.703737 0.910525
C33_3 C 0.5683(2) 0.7337(2) 0.7417(10)
H18_3 H 0.578619 0.749126 0.649071
C36_3 C 0.5924(2) 0.7147(2) 0.8645(11)
H20_3 H 0.618650 0.717711 0.852209
H21_3 H 0.646780 0.661199 0.956668
C42_3 C 0.47099(19) 0.77016(19) 0.7569(9)
C43_3 C 0.4844(2) 0.7933(2) 0.8975(10)
H25_3 H 0.510680 0.796263 0.910525
C46_3 C 0.4317(2) 0.7663(2) 0.7417(10)
H26_3 H 0.421381 0.750874 0.649071
C49_3 C 0.4076(2) 0.7853(2) 0.8645(11)
H28_3 H 0.381350 0.782289 0.852209
H29_3 H 0.353220 0.838801 0.956668
C1_5 C -0.000000 0.250000 0.125000
C20_4 C 0.0163(2) 0.3183(2) 0.0083(10)
H10_4 H 0.000874 0.328619 0.100929
H17_4 H 0.010680 0.296263 0.410525
O12_4 O 0.21559(18) 0.11186(18) 0.9669(8)
C42_4 C 0.02901(19) 0.22984(19) 0.2569(9)
C43_4 C 0.0156(2) 0.2067(2) 0.3975(10)
C44_4 C 0.0785(2) 0.1915(2) 0.5038(11)
C46_4 C 0.0683(2) 0.2337(2) 0.2417(10)
H26_4 H 0.078619 0.249126 0.149071
C47_4 C 0.0390(2) 0.1878(2) 0.5184(10)
H27_4 H 0.028506 0.172444 0.610752
C48_4 C 0.1059(2) 0.1717(2) 0.6396(11)
C49_4 C 0.0924(2) 0.2147(2) 0.3645(11)
H28_4 H 0.118650 0.217711 0.352209
C50_4 C 0.1401(3) 0.1588(3) 0.5813(12)
H29_4 H 0.146780 0.161199 0.456668
C51_4 C 0.1192(3) 0.1496(3) 0.9472(12)
C52_4 C 0.1548(2) 0.1371(2) 0.8918(10)
C53_4 C 0.0947(2) 0.1675(3) 0.8236(12)
H31_4 H 0.071154 0.176549 0.863327
C54_4 C 0.1654(3) 0.1422(3) 0.7036(12)
H32_4 H 0.189266 0.134328 0.662716
C1_6 C 1.000000 0.250000 0.125000
C6_4 C 0.9837(2) 0.1817(2) 0.0083(10)
H2_4 H 0.999126 0.171381 0.100929
O10_4 O 0.78441(18) 0.38814(18) 0.9669(8)
C29_4 C 0.97099(19) 0.27016(19) 0.2569(9)
C30_4 C 0.9844(2) 0.2933(2) 0.3975(10)
C31_4 C 0.9215(2) 0.3085(2) 0.5038(11)
C33_4 C 0.9317(2) 0.2663(2) 0.2417(10)
H18_4 H 0.921381 0.250874 0.149071
C34_4 C 0.9610(2) 0.3122(2) 0.5184(10)
H19_4 H 0.971494 0.327556 0.610752
C35_4 C 0.8941(2) 0.3283(2) 0.6396(11)
C36_4 C 0.9076(2) 0.2853(2) 0.3645(11)
H20_4 H 0.881350 0.282289 0.352209
C37_4 C 0.8599(3) 0.3412(3) 0.5813(12)
H21_4 H 0.853220 0.338801 0.456668
C38_4 C 0.8808(3) 0.3504(3) 0.9472(12)
C39_4 C 0.8452(2) 0.3629(2) 0.8918(10)
C40_4 C 0.9053(2) 0.3325(3) 0.8236(12)
H23_4 H 0.928846 0.323451 0.863327
C41_4 C 0.8346(3) 0.3578(3) 0.7036(12)
H24_4 H 0.810734 0.365672 0.662716
H25_4 H 0.989320 0.203737 0.410525
loop_
_geom_bond_atom_site_label_1
_geom_bond_atom_site_label_2
_geom_bond_site_symmetry_1
_geom_bond_site_symmetry_2
Np10 O19 1_555 1_555
Np12 O23 1_555 1_555
O9 C32 1_555 1_555
O10 C32 1_555 1_555
C32 C39 1_555 1_555
C38 H22 1_555 1_555
C39 C38 1_555 1_555
H23 C40 1_555 1_555
O11 C45 1_555 1_555
O12 C45 1_555 1_555
C45 C52 1_555 1_555
C51 H30 1_555 1_555
C52 C51 1_555 1_555
H31 C53 1_555 1_555
Np3 O9 1_555 1_555
O18 Np3 1_555 1_555
O20 Np3 1_555 1_555
C56 O20 1_555 1_555
Np4 O11 1_555 1_555
O21 Np4 1_555 1_555
O22 Np4 1_555 1_555
O24 Np4 1_555 1_555
C57 O24 1_555 1_555
Np10 O18 1_555 1_555
Np12 O22 1_555 1_555
O28 Np4 1_555 1_555
O32 Np4 1_555 1_555
O10 Np3 1_555 1_555
C38 C40 1_555 1_555
O12 Np4 1_555 1_555
C51 C53 1_555 1_555
C56 H34 1_555 1_555
C57 H35 1_555 1_555
O19_2 C56_2 1_555 1_555
O20_2 Np3_2 1_555 1_555
C56_2 O20_2 1_555 1_555
Np10_2 O19_2 1_555 1_555
C56_2 H34_2 1_555 1_555
O9_2 C32_2 1_555 1_555
O10_2 C32_2 1_555 1_555
C30 C29 1_555 1_555
H17 C30 1_555 1_555
C31 C34 1_555 1_555
C32_2 C39_2 1_555 1_555
C34 C30 1_555 1_555
H19 C34 1_555 1_555
C35 C31 1_555 1_555
C36 C31 1_555 1_555
H20 C36 1_555 1_555
C37 C35 1_555 1_555
H21 C37 1_555 1_555
C38_2 H22_2 1_555 1_555
C39_2 C38_2 1_555 1_555
C40_2 C35 1_555 1_555
H23_2 C40_2 1_555 1_555
C41 C37 1_555 1_555
H24 C41 1_555 1_555
Np10_2 O18_2 1_555 1_555
C38_2 C40_2 1_555 1_555
C39_2 C41 1_555 1_555
O21_2 Np4_2 1_555 1_555
O23_2 C57_2 1_555 1_555
O24_2 Np4_2 1_555 1_555
C57_2 O24_2 1_555 1_555
Np12_2 O23_2 1_555 1_555
O28_2 Np4_2 1_555 1_555
C57_2 H35_2 1_555 1_555
O11_2 C45_2 1_555 1_555
O12_2 C45_2 1_555 1_555
C43 C42 1_555 1_555
H25 C43 1_555 1_555
C44 C47 1_555 1_555
C45_2 C52_2 1_555 1_555
C47 C43 1_555 1_555
H27 C47 1_555 1_555
C48 C44 1_555 1_555
C49 C44 1_555 1_555
H28 C49 1_555 1_555
C50 C48 1_555 1_555
H29 C50 1_555 1_555
C51_2 H30_2 1_555 1_555
C52_2 C51_2 1_555 1_555
C53_2 C48 1_555 1_555
H31_2 C53_2 1_555 1_555
C54 C50 1_555 1_555
H32 C54 1_555 1_555
Np12_2 O22_2 1_555 1_555
C51_2 C53_2 1_555 1_555
C52_2 C54 1_555 1_555
O32 C56_3 1_555 1_555
C56_3 O20_3 1_555 1_555
O31 C57_3 1_555 1_555
C57_3 O24_3 1_555 1_555
C56_3 H34_3 1_555 1_555
C57_3 H35_3 1_555 1_555
O9_3 C32_3 1_555 1_555
O10_3 C32_3 1_555 1_555
C31_2 C34_2 1_555 1_555
C32_3 C39_3 1_555 1_555
H19_2 C34_2 1_555 1_555
C35_2 C31_2 1_555 1_555
C37_2 C35_2 1_555 1_555
C38_3 H22_3 1_555 1_555
C39_3 C38_3 1_555 1_555
C40_3 C35_2 1_555 1_555
H23_3 C40_3 1_555 1_555
C41_2 C37_2 1_555 1_555
H24_2 C41_2 1_555 1_555
O11_3 C45_3 1_555 1_555
O12_3 C45_3 1_555 1_555
C44_2 C47_2 1_555 1_555
C45_3 C52_3 1_555 1_555
H27_2 C47_2 1_555 1_555
C48_2 C44_2 1_555 1_555
C50_2 C48_2 1_555 1_555
C51_3 H30_3 1_555 1_555
C52_3 C51_3 1_555 1_555
C53_3 C48_2 1_555 1_555
H31_3 C53_3 1_555 1_555
C54_2 C50_2 1_555 1_555
H32_2 C54_2 1_555 1_555
Np12_2 O9_3 1_555 1_555
O17_3 Np12_2 1_555 1_555
O28 Np12_2 1_555 1_555
Np10_2 O11_3 1_555 1_555
O21_3 Np10_2 1_555 1_555
O27 Np10_2 1_555 1_555
O10_3 Np12_2 1_555 1_555
C38_3 C40_3 1_555 1_555
C39_3 C41_2 1_555 1_555
O12_3 Np10_2 1_555 1_555
C51_3 C53_3 1_555 1_555
C52_3 C54_2 1_555 1_555
O11_4 C45_4 1_555 1_555
Np10 O11_4 1_555 1_555
O21_4 Np10 1_555 1_555
O27_2 Np10 1_555 1_555
O31_2 C57_4 1_555 1_555
O24_4 Np10 1_555 1_555
C57_4 O24_4 1_555 1_555
C57_4 H35_4 1_555 1_555
O9_4 C32_4 1_555 1_555
Np12 O9_4 1_555 1_555
O17_4 Np12 1_555 1_555
O28_2 Np12 1_555 1_555
O32_2 C56_4 1_555 1_555
O20_4 Np12 1_555 1_555
C56_4 O20_4 1_555 1_555
C56_4 H34_4 1_555 1_555
C1 C2 1_555 1_555
C2 C3 1_555 1_555
C3 H1 1_555 1_555
C6 C2 1_555 1_555
H2 C6 1_555 1_555
H4 C9 1_555 1_555
C16 C1 1_555 1_555
C17 C16 1_555 1_555
H9 C17 1_555 1_555
C20 C16 1_555 1_555
H10 C20 1_555 1_555
H12 C23 1_555 1_555
C29_2 C1 1_555 1_555
C30_2 C29_2 1_555 1_555
H17_2 C30_2 1_555 1_555
C31_3 C34_3 1_555 1_555
C33 C29_2 1_555 1_555
H18 C33 1_555 1_555
C34_3 C30_2 1_555 1_555
H19_3 C34_3 1_555 1_555
C35_3 C31_3 1_555 1_555
C36_2 C31_3 1_555 1_555
H20_2 C36_2 1_555 1_555
C37_3 C35_3 1_555 1_555
H21_2 C37_3 1_555 1_555
C41_3 C37_3 1_555 1_555
H24_3 C41_3 1_555 1_555
C42_2 C1 1_555 1_555
C43_2 C42_2 1_555 1_555
H25_2 C43_2 1_555 1_555
C44_3 C47_3 1_555 1_555
C46 C42_2 1_555 1_555
H26 C46 1_555 1_555
C47_3 C43_2 1_555 1_555
H27_3 C47_3 1_555 1_555
C48_3 C44_3 1_555 1_555
C49_2 C44_3 1_555 1_555
H28_2 C49_2 1_555 1_555
C50_3 C48_3 1_555 1_555
H29_2 C50_3 1_555 1_555
C54_3 C50_3 1_555 1_555
H32_3 C54_3 1_555 1_555
C6 C9 1_555 1_555
C20 C23 1_555 1_555
C33 C36_2 1_555 1_555
C46 C49_2 1_555 1_555
Np1 O1 1_555 1_555
O2 Np1 1_555 1_555
O3 Np1 1_555 1_555
O5 Np1 1_555 1_555
C4 C7 1_555 1_555
C5 O3 1_555 1_555
H3 C7 1_555 1_555
C8 C4 1_555 1_555
C10 C8 1_555 1_555
C11 H6 1_555 1_555
C12 C5 1_555 1_555
C13 C8 1_555 1_555
H7 C13 1_555 1_555
C14 C10 1_555 1_555
H8 C14 1_555 1_555
O7 C19 1_555 1_555
O8 C19 1_555 1_555
C18 C21 1_555 1_555
C19 C26 1_555 1_555
H11 C21 1_555 1_555
C22 C18 1_555 1_555
C24 C22 1_555 1_555
C25 H14 1_555 1_555
C26 C25 1_555 1_555
C27 C22 1_555 1_555
H15 C27 1_555 1_555
C28 C24 1_555 1_555
H16 C28 1_555 1_555
Np2 O7 1_555 1_555
O13 Np2 1_555 1_555
O14 Np2 1_555 1_555
Np8 O14 1_555 1_555
O25 Np1 1_555 1_555
O26 Np2 1_555 1_555
O29 Np1 1_555 1_555
O30 Np2 1_555 1_555
O5 C5 1_555 1_555
C11 C12 1_555 1_555
C11 C13 1_555 1_555
C12 C14 1_555 1_555
O8 Np2 1_555 1_555
C25 C27 1_555 1_555
C26 C28 1_555 1_555
O4 C15 1_555 1_555
C15 O6 1_555 1_555
O15 C55 1_555 1_555
C55 O16 1_555 1_555
Np8 O15 1_555 1_555
C55 H33 1_555 1_555
C15 H36 1_555 1_555
O7_2 C19_2 1_555 1_555
Np2_2 O7_2 1_555 1_555
O13_2 Np2_2 1_555 1_555
O14_2 Np2_2 1_555 1_555
O15_2 C55_2 1_555 1_555
O16_2 Np2_2 1_555 1_555
C55_2 O16_2 1_555 1_555
Np8_2 O14_2 1_555 1_555
O26_2 Np2_2 1_555 1_555
O30_2 Np2_2 1_555 1_555
C55_2 H33_2 1_555 1_555
Np1_2 O1_2 1_555 1_555
O2_2 Np1_2 1_555 1_555
O3_2 Np1_2 1_555 1_555
O4_2 C15_2 1_555 1_555
O6_2 Np1_2 1_555 1_555
C5_2 O3_2 1_555 1_555
C15_2 O6_2 1_555 1_555
O25_2 Np1_2 1_555 1_555
O29_2 Np1_2 1_555 1_555
C15_2 H36_2 1_555 1_555
O25_2 Np6 1_555 1_555
O3_3 Np6 1_555 1_555
O5_2 Np6 1_555 1_555
O6_3 Np6 1_555 1_555
C5_3 O3_3 1_555 1_555
C11_2 H6_3 1_555 1_555
C12_2 C5_3 1_555 1_555
H7_2 C13_2 1_555 1_555
C15_3 O6_3 1_555 1_555
O7_3 C19_3 1_555 1_555
O8_2 C19_3 1_555 1_555
C19_3 C26_2 1_555 1_555
C25_2 H14_3 1_555 1_555
C26_2 C25_2 1_555 1_555
H15_2 C27_2 1_555 1_555
Np8 O7_3 1_555 1_555
O13_3 Np8 1_555 1_555
O26_2 Np8 1_555 1_555
O16_3 Np8 1_555 1_555
C55_3 O16_3 1_555 1_555
O5_2 C5_3 1_555 1_555
C11_2 C12_2 1_555 1_555
C11_2 C13_2 1_555 1_555
O8_2 Np8 1_555 1_555
C25_2 C27_2 1_555 1_555
C55_3 H33_3 1_555 1_555
C15_3 H36_3 1_555 1_555
O7_4 C19_4 1_555 1_555
O8_3 C19_4 1_555 1_555
C17_2 C16_2 1_555 1_555
H9_2 C17_2 1_555 1_555
C18_2 C21_2 1_555 1_555
C19_4 C26_3 1_555 1_555
C21_2 C17_2 1_555 1_555
H11_2 C21_2 1_555 1_555
C22_2 C18_2 1_555 1_555
C23_2 C18_2 1_555 1_555
H12_2 C23_2 1_555 1_555
C24_2 C22_2 1_555 1_555
H13_2 C24_2 1_555 1_555
C25_3 H14_4 1_555 1_555
C26_3 C25_3 1_555 1_555
C27_3 C22_2 1_555 1_555
H15_3 C27_3 1_555 1_555
C28_2 C24_2 1_555 1_555
H16_2 C28_2 1_555 1_555
C25_3 C27_3 1_555 1_555
C26_3 C28_2 1_555 1_555
O13_4 Np8_2 1_555 1_555
O30 C55_4 1_555 1_555
O16_4 Np8_2 1_555 1_555
C55_4 O16_4 1_555 1_555
C55_4 H33_4 1_555 1_555
C2_2 C3_2 1_555 1_555
C3_2 H1_2 1_555 1_555
C4_2 C7_2 1_555 1_555
C5_4 O3_4 1_555 1_555
C7_2 C3_2 1_555 1_555
H3_2 C7_2 1_555 1_555
C8_2 C4_2 1_555 1_555
C9_2 C4_2 1_555 1_555
H4_2 C9_2 1_555 1_555
C10_2 C8_2 1_555 1_555
H5_2 C10_2 1_555 1_555
C11_3 H6_4 1_555 1_555
C12_3 C5_4 1_555 1_555
C13_3 C8_2 1_555 1_555
H7_3 C13_3 1_555 1_555
C14_2 C10_2 1_555 1_555
H8_2 C14_2 1_555 1_555
O5_3 C5_4 1_555 1_555
C11_3 C12_3 1_555 1_555
C11_3 C13_3 1_555 1_555
C12_3 C14_2 1_555 1_555
O29 C15_4 1_555 1_555
O6_4 Np6_2 1_555 1_555
C15_4 O6_4 1_555 1_555
C15_4 H36_4 1_555 1_555
C16_3 C1_2 1_555 1_555
C17_3 C16_3 1_555 1_555
C18_3 C21_3 1_555 1_555
C20_2 C16_3 1_555 1_555
H10_2 C20_2 1_555 1_555
C21_3 C17_3 1_555 1_555
H11_3 C21_3 1_555 1_555
C22_3 C18_3 1_555 1_555
C23_3 C18_3 1_555 1_555
H12_3 C23_3 1_555 1_555
C24_3 C22_3 1_555 1_555
H13_3 C24_3 1_555 1_555
C26_4 C25_4 1_555 1_555
C27_4 C22_3 1_555 1_555
H15_4 C27_4 1_555 1_555
C28_3 C24_3 1_555 1_555
H16_3 C28_3 1_555 1_555
H18_2 C33_2 1_555 1_555
C20_2 C23_3 1_555 1_555
C25_4 C27_4 1_555 1_555
C26_4 C28_3 1_555 1_555
C1_3 C2_3 1_555 1_555
C2_3 C3_3 1_555 1_555
C4_3 C7_3 1_555 1_555
C6_2 C2_3 1_555 1_555
H2_2 C6_2 1_555 1_555
C7_3 C3_3 1_555 1_555
H3_3 C7_3 1_555 1_555
C8_3 C4_3 1_555 1_555
C9_3 C4_3 1_555 1_555
H4_3 C9_3 1_555 1_555
C10_3 C8_3 1_555 1_555
H5_3 C10_3 1_555 1_555
C13_4 C8_3 1_555 1_555
H7_4 C13_4 1_555 1_555
C14_3 C10_3 1_555 1_555
H8_3 C14_3 1_555 1_555
H26_2 C46_2 1_555 1_555
C6_2 C9_3 1_555 1_555
C11_4 C12_4 1_555 1_555
C11_4 C13_4 1_555 1_555
C12_4 C14_3 1_555 1_555
C1_4 C2_4 1_555 1_555
C2_4 C3_4 1_555 1_555
C3_4 H1_4 1_555 1_555
C4_4 C7_4 1_555 1_555
C6_3 C2_4 1_555 1_555
H2_3 C6_3 1_555 1_555
C7_4 C3_4 1_555 1_555
H3_4 C7_4 1_555 1_555
C8_4 C4_4 1_555 1_555
C9_4 C4_4 1_555 1_555
H4_4 C9_4 1_555 1_555
C10_4 C8_4 1_555 1_555
H5_4 C10_4 1_555 1_555
C14_4 C10_4 1_555 1_555
H8_4 C14_4 1_555 1_555
C16_4 C1_4 1_555 1_555
C17_4 C16_4 1_555 1_555
H9_4 C17_4 1_555 1_555
C18_4 C21_4 1_555 1_555
C20_3 C16_4 1_555 1_555
H10_3 C20_3 1_555 1_555
C21_4 C17_4 1_555 1_555
H11_4 C21_4 1_555 1_555
C22_4 C18_4 1_555 1_555
C23_4 C18_4 1_555 1_555
H12_4 C23_4 1_555 1_555
C24_4 C22_4 1_555 1_555
H13_4 C24_4 1_555 1_555
C28_4 C24_4 1_555 1_555
H16_4 C28_4 1_555 1_555
C29_3 C1_4 1_555 1_555
C30_3 C29_3 1_555 1_555
H17_3 C30_3 1_555 1_555
C33_3 C29_3 1_555 1_555
H18_3 C33_3 1_555 1_555
H20_3 C36_3 1_555 1_555
C42_3 C1_4 1_555 1_555
C43_3 C42_3 1_555 1_555
H25_3 C43_3 1_555 1_555
C46_3 C42_3 1_555 1_555
H26_3 C46_3 1_555 1_555
H28_3 C49_3 1_555 1_555
C6_3 C9_4 1_555 1_555
C20_3 C23_4 1_555 1_555
C33_3 C36_3 1_555 1_555
C46_3 C49_3 1_555 1_555
H10_4 C20_4 1_555 1_555
C42_4 C1_5 1_555 1_555
C43_4 C42_4 1_555 1_555
C44_4 C47_4 1_555 1_555
C46_4 C42_4 1_555 1_555
H26_4 C46_4 1_555 1_555
C47_4 C43_4 1_555 1_555
H27_4 C47_4 1_555 1_555
C48_4 C44_4 1_555 1_555
C49_4 C44_4 1_555 1_555
H28_4 C49_4 1_555 1_555
C50_4 C48_4 1_555 1_555
H29_4 C50_4 1_555 1_555
C52_4 C51_4 1_555 1_555
C53_4 C48_4 1_555 1_555
H31_4 C53_4 1_555 1_555
C54_4 C50_4 1_555 1_555
H32_4 C54_4 1_555 1_555
C46_4 C49_4 1_555 1_555
C51_4 C53_4 1_555 1_555
C52_4 C54_4 1_555 1_555
H2_4 C6_4 1_555 1_555
C29_4 C1_6 1_555 1_555
C30_4 C29_4 1_555 1_555
C31_4 C34_4 1_555 1_555
C33_4 C29_4 1_555 1_555
H18_4 C33_4 1_555 1_555
C34_4 C30_4 1_555 1_555
H19_4 C34_4 1_555 1_555
C35_4 C31_4 1_555 1_555
C36_4 C31_4 1_555 1_555
H20_4 C36_4 1_555 1_555
C37_4 C35_4 1_555 1_555
H21_4 C37_4 1_555 1_555
C39_4 C38_4 1_555 1_555
C40_4 C35_4 1_555 1_555
H23_4 C40_4 1_555 1_555
C41_4 C37_4 1_555 1_555
H24_4 C41_4 1_555 1_555
C33_4 C36_4 1_555 1_555
C38_4 C40_4 1_555 1_555
C39_4 C41_4 1_555 1_555

#END
