
###############################################################################
#
# This file contains modified crystal structure data generated from the
# MOF subset of the Cambridge Structural Database (CSD) v543 
# hosted by the Cambridge Crystallographic Data Centre (CCDC).
#
# This work is licensed under the Creative Commons
# Attribution-NonCommercial-ShareAlike 4.0 International License.
# To view a copy of this license, visit
# http://creativecommons.org/licenses/by-nc-sa/4.0/
# or send a letter to
# Creative Commons, PO Box 1866, Mountain View, CA 94042, USA.
#
# CIF created using the CSD Python API on 29 September 2022
# The structure has been converted into the P1 space group
# The structure has a 3D framework
# The original CSD entry RALDOB is in the rhombohedral crystal system
# The framework has been calculated to contain at least 10.0% void space
# The void calculation uses a probe of radius 1.32A, grid spacing 0.4
#
###############################################################################

data_RALDOB
_chemical_formula_moiety         '(C396 H252 Co18 N36 O70)n'
_symmetry_cell_setting           triclinic
_symmetry_space_group_name_H-M   'P 1'
_symmetry_Int_Tables_number      1
_space_group_name_Hall           'P 1'
loop_
_symmetry_equiv_pos_site_id
_symmetry_equiv_pos_as_xyz
1 x,y,z
_cell_length_a                   27.0844(11)
_cell_length_b                   27.0844(11)
_cell_length_c                   22.219(2)
_cell_angle_alpha                90
_cell_angle_beta                 90
_cell_angle_gamma                120
_cell_volume                     14115.4
loop_
_atom_site_label
_atom_site_type_symbol
_atom_site_fract_x
_atom_site_fract_y
_atom_site_fract_z
Co4 Co 0.00097(2) 0.48048(3) 0.91137(3)
O1 O 0.41539(13) 0.00853(13) 0.86396(16)
O3 O 0.32890(13) 0.10733(13) 0.65664(17)
O4 O 0.33464(12) 0.11129(12) 0.75515(17)
N2 N 0.53038(14) 0.09089(13) 0.90932(19)
C1 C 0.43422(19) 0.00193(17) 0.8147(3)
C2 C 0.40892(17) 0.00854(18) 0.7564(2)
C3 C 0.38248(17) 0.04161(16) 0.7571(2)
H1 H 0.378305 0.056492 0.793185
C4 C 0.36277(17) 0.05211(17) 0.7048(2)
C5 C 0.3678(2) 0.02846(19) 0.6512(3)
H2 H 0.354293 0.035247 0.615441
C8 C 0.34000(16) 0.09256(17) 0.7054(3)
C16 C 0.51296(17) 0.12363(17) 0.9368(2)
H10 H 0.477249 0.105625 0.954957
C17 C 0.54467(17) 0.18235(17) 0.9398(2)
H11 H 0.530584 0.202860 0.959808
C18 C 0.59787(16) 0.21038(16) 0.9124(2)
C19 C 0.61570(17) 0.17726(16) 0.8825(2)
H12 H 0.650359 0.194169 0.862146
C20 C 0.58116(18) 0.11861(17) 0.8832(2)
H13 H 0.594498 0.097046 0.863968
C21 C 0.63345(16) 0.27386(16) 0.9140(2)
C22 C 0.60766(16) 0.30723(16) 0.9140(2)
H14 H 0.568102 0.289750 0.914010
N5 N 0.90911(13) 0.43949(19) 0.90932(19)
C37 C 0.87637(17) 0.38933(24) 0.9368(2)
H25 H 0.894375 0.371624 0.954957
C38 C 0.81765(17) 0.36232(24) 0.9398(2)
H26 H 0.797140 0.327724 0.959808
C39 C 0.78962(16) 0.38749(23) 0.9124(2)
C40 C 0.82274(16) 0.43844(23) 0.8825(2)
H27 H 0.805831 0.456190 0.862146
C41 C 0.88139(17) 0.46255(25) 0.8832(2)
H28 H 0.902954 0.497452 0.863968
C42 C 0.72614(16) 0.35959(23) 0.9140(2)
C43 C 0.69277(16) 0.30043(23) 0.9140(2)
H29 H 0.710250 0.278352 0.914010
N6 N 0.56051(19) 0.46962(14) 0.90932(19)
C44 C 0.61067(24) 0.48704(17) 0.9368(2)
H30 H 0.628376 0.522751 0.954957
C45 C 0.63768(24) 0.45533(17) 0.9398(2)
H31 H 0.672276 0.469416 0.959808
C46 C 0.61251(23) 0.40213(16) 0.9124(2)
C47 C 0.56156(23) 0.38430(17) 0.8825(2)
H32 H 0.543810 0.349641 0.862146
C48 C 0.53745(25) 0.41884(18) 0.8832(2)
H33 H 0.502548 0.405502 0.863968
C49 C 0.64041(23) 0.36655(16) 0.9140(2)
C50 C 0.69957(23) 0.39234(16) 0.9140(2)
H34 H 0.721648 0.431898 0.914010
Co5 Co 0.51952(3) 0.52049(2) 0.91137(3)
Co7 Co 0.33430(2) 0.14715(3) 0.57804(3)
Co10 Co 0.33236(2) 0.18619(3) 0.75530(3)
O15 O 0.44510(18) 0.00443(13) 0.98997(17)
O18 O 0.55668(17) 0.00131(12) 0.91152(17)
Co1 Co 0.47951(2) 0.99903(2) 0.91137(3)
O2 O 0.47363(13) 0.99063(13) 0.81309(17)
N1 N 0.43677(13) 0.90887(13) 0.91569(17)
C6 C 0.3930(2) 0.9948(2) 0.6511(3)
H3 H 0.395137 0.977883 0.615554
C7 C 0.4147(2) 0.9862(2) 0.7033(3)
H4 H 0.433385 0.965311 0.702569
C9 C 0.46003(18) 0.88168(18) 0.8877(2)
H5 H 0.494309 0.903599 0.867433
C10 C 0.43631(17) 0.82290(17) 0.8868(3)
H6 H 0.454322 0.806334 0.866368
C11 C 0.38566(16) 0.78937(16) 0.9167(2)
C12 C 0.36135(16) 0.81705(16) 0.9462(2)
H7 H 0.327099 0.796109 0.966772
C13 C 0.38800(16) 0.87554(17) 0.9450(2)
H8 H 0.371121 0.893039 0.965841
C14 C 0.35857(17) 0.72624(16) 0.9181(2)
C15 C 0.29960(17) 0.69212(17) 0.9183(2)
H9 H 0.276949 0.708978 0.918602
N3 N 0.09113(13) 0.52790(18) 0.91569(17)
C23 C 0.11832(18) 0.57835(25) 0.8877(2)
H15 H 0.096401 0.590710 0.867433
C24 C 0.17710(17) 0.61341(24) 0.8868(3)
H16 H 0.193666 0.647988 0.866368
C25 C 0.21063(16) 0.59629(23) 0.9167(2)
C26 C 0.18295(16) 0.54430(23) 0.9462(2)
H17 H 0.203891 0.530990 0.966772
C27 C 0.12446(17) 0.51246(23) 0.9450(2)
H18 H 0.106961 0.478082 0.965841
C28 C 0.27376(16) 0.63233(23) 0.9181(2)
C29 C 0.30788(17) 0.60748(24) 0.9183(2)
H19 H 0.291022 0.567971 0.918602
N4 N 0.47210(18) 0.56323(13) 0.91569(17)
C30 C 0.42165(25) 0.53997(18) 0.8877(2)
H20 H 0.409290 0.505691 0.867433
C31 C 0.38659(24) 0.56369(17) 0.8868(3)
H21 H 0.352012 0.545678 0.866368
C32 C 0.40371(23) 0.61434(16) 0.9167(2)
C33 C 0.45570(23) 0.63865(16) 0.9462(2)
H22 H 0.469010 0.672901 0.966772
C34 C 0.48754(23) 0.61200(16) 0.9450(2)
H23 H 0.521918 0.628879 0.965841
C35 C 0.36767(23) 0.64143(17) 0.9181(2)
C36 C 0.39252(24) 0.70040(17) 0.9183(2)
H24 H 0.432029 0.723051 0.918602
O6 O 0.00937(13) 0.48300(18) 0.81309(17)
C56 C 0.0052(2) 0.3982(3) 0.6511(3)
H37 H 0.022117 0.417254 0.615554
C57 C 0.0138(2) 0.4285(3) 0.7033(3)
H38 H 0.034689 0.468074 0.702569
O9 O 0.59314(18) 0.58461(13) 0.86396(16)
O10 O 0.51700(18) 0.52637(13) 0.81309(17)
O11 O 0.77843(18) 0.67110(13) 0.65664(17)
O12 O 0.77665(17) 0.66536(12) 0.75515(17)
C59 C 0.56771(25) 0.56578(19) 0.8147(3)
C60 C 0.59962(25) 0.59108(17) 0.7564(2)
C61 C 0.65913(23) 0.61752(17) 0.7571(2)
H39 H 0.678187 0.621695 0.793185
C62 C 0.68934(24) 0.63723(17) 0.7048(2)
C63 C 0.66066(28) 0.6322(2) 0.6512(3)
H40 H 0.680954 0.645707 0.615441
C64 C 0.6018(3) 0.6070(2) 0.6511(3)
H41 H 0.582746 0.604863 0.615554
C65 C 0.5715(3) 0.5853(2) 0.7033(3)
H42 H 0.531926 0.566615 0.702569
C66 C 0.75256(23) 0.66000(16) 0.7054(3)
Co6 Co 0.81284(2) 0.66570(2) 0.57804(3)
Co9 Co 0.85382(2) 0.66764(2) 0.75530(3)
O14 O 0.55934(13) 0.55490(18) 0.98997(17)
O17 O 0.44462(12) 0.44332(17) 0.91152(17)
O5 O 0.99147(13) 0.40686(18) 0.86396(16)
O7 O 0.89267(13) 0.22157(18) 0.65664(17)
O8 O 0.88871(12) 0.22335(17) 0.75515(17)
C51 C 0.99807(17) 0.43229(25) 0.8147(3)
C52 C 0.99146(18) 0.40038(25) 0.7564(2)
C53 C 0.95839(16) 0.34087(23) 0.7571(2)
H35 H 0.943508 0.321813 0.793185
C54 C 0.94789(17) 0.31066(24) 0.7048(2)
C55 C 0.97154(19) 0.33934(28) 0.6512(3)
H36 H 0.964753 0.319046 0.615441
C58 C 0.90744(17) 0.24744(23) 0.7054(3)
Co8 Co 0.85285(3) 0.18716(2) 0.57804(3)
Co11 Co 0.81381(3) 0.14618(2) 0.75530(3)
O13 O 0.99557(13) 0.44066(13) 0.98997(17)
O16 O 0.99869(12) 0.55538(12) 0.91152(17)
Co1_2 Co 0.14618(2) 0.33236(2) 0.24470(3)
O1_2 O 0.08206(13) 0.34186(13) 0.19729(16)
O2_2 O 0.14030(13) 0.32396(13) 0.14642(17)
O4_2 O 0.00131(12) 0.44462(12) 0.08848(17)
N1_2 N 0.10344(13) 0.24220(13) 0.24902(17)
N2_2 N 0.19705(14) 0.42422(13) 0.24265(19)
C1_2 C 0.10089(19) 0.33526(17) 0.1480(3)
C2_2 C 0.07559(17) 0.34187(18) 0.0897(2)
C3_2 C 0.04915(17) 0.37494(16) 0.0904(2)
H1_2 H 0.044972 0.389825 0.126518
C4_2 C 0.02944(17) 0.38544(17) 0.0381(2)
C7_2 C 0.0814(2) 0.3195(2) 0.0366(3)
H4_2 H 0.100052 0.298644 0.035902
C8_2 C 0.00667(16) 0.42589(17) 0.0387(3)
C9_2 C 0.12670(18) 0.21501(18) 0.2210(2)
H5_2 H 0.160976 0.236932 0.200766
C10_2 C 0.10298(17) 0.15623(17) 0.2201(3)
H6_2 H 0.120989 0.139667 0.199701
C11_2 C 0.05233(16) 0.12270(16) 0.2500(2)
C12_2 C 0.02802(16) 0.15038(16) 0.2795(2)
C13_2 C 0.05467(16) 0.20887(17) 0.2783(2)
H8_2 H 0.037788 0.226372 0.299174
C14_2 C 0.02524(17) 0.05957(16) 0.2514(2)
C16_2 C 0.17963(17) 0.45696(17) 0.2701(2)
H10_2 H 0.143916 0.438958 0.288290
C17_2 C 0.21134(17) 0.51568(17) 0.2731(2)
H11_2 H 0.197251 0.536193 0.293141
C18_2 C 0.26454(16) 0.54371(16) 0.2457(2)
C19_2 C 0.28237(17) 0.51059(16) 0.2158(2)
H12_2 H 0.317026 0.527502 0.195479
C20_2 C 0.24783(18) 0.45194(17) 0.2165(2)
H13_2 H 0.261165 0.430379 0.197301
C21_2 C 0.30012(16) 0.60719(16) 0.2473(2)
C22_2 C 0.27433(16) 0.64056(16) 0.2473(2)
H14_2 H 0.234769 0.623083 0.247343
H22_2 H 0.135677 0.006234 0.300105
C36_2 C 0.05919(24) 0.03373(17) 0.2516(2)
H24_2 H 0.098696 0.056384 0.251935
N5_2 N 0.57578(13) 0.77282(19) 0.24265(19)
C37_2 C 0.54304(17) 0.72266(24) 0.2701(2)
H25_2 H 0.561042 0.704957 0.288290
C38_2 C 0.48432(17) 0.69565(24) 0.2731(2)
H26_2 H 0.463807 0.661057 0.293141
C39_2 C 0.45629(16) 0.72082(23) 0.2457(2)
C40_2 C 0.48941(16) 0.77177(23) 0.2158(2)
H27_2 H 0.472498 0.789523 0.195479
C41_2 C 0.54806(17) 0.79588(25) 0.2165(2)
H28_2 H 0.569621 0.830785 0.197301
C42_2 C 0.39281(16) 0.69292(23) 0.2473(2)
C43_2 C 0.35944(16) 0.63376(23) 0.2473(2)
H29_2 H 0.376917 0.611685 0.247343
N6_2 N 0.22718(19) 0.80295(14) 0.24265(19)
C44_2 C 0.27734(24) 0.82037(17) 0.2701(2)
H30_2 H 0.295043 0.856084 0.288290
C45_2 C 0.30435(24) 0.78866(17) 0.2731(2)
H31_2 H 0.338943 0.802749 0.293141
C46_2 C 0.27918(23) 0.73546(16) 0.2457(2)
C47_2 C 0.22823(23) 0.71763(17) 0.2158(2)
H32_2 H 0.210477 0.682974 0.195479
C48_2 C 0.20412(25) 0.75217(18) 0.2165(2)
H33_2 H 0.169215 0.738835 0.197301
C49_2 C 0.30708(23) 0.69988(16) 0.2473(2)
C50_2 C 0.36624(23) 0.72567(16) 0.2473(2)
H34_2 H 0.388315 0.765231 0.247343
Co4_2 Co 0.66764(2) 0.81381(3) 0.24470(3)
Co5_2 Co 0.18619(3) 0.85382(2) 0.24470(3)
Co9_2 Co 0.52049(2) 0.00097(2) 0.08863(3)
O15_2 O 0.11176(18) 0.33777(13) 0.32331(17)
O18_2 O 0.22335(17) 0.33464(12) 0.24485(17)
C5_2 C 0.0345(2) 0.36179(19) 0.9845(3)
H2_2 H 0.020960 0.368580 0.948774
C6_2 C 0.0597(2) 0.3281(2) 0.9844(3)
H3_2 H 0.061804 0.311216 0.948887
N4_2 N 0.13877(18) 0.89656(13) 0.24902(17)
C30_2 C 0.08832(25) 0.87330(18) 0.2210(2)
H20_2 H 0.075957 0.839024 0.200766
C31_2 C 0.05326(24) 0.89702(17) 0.2201(3)
H21_2 H 0.018679 0.879011 0.199701
C32_2 C 0.07038(23) 0.94767(16) 0.2500(2)
C33_2 C 0.12237(23) 0.97198(16) 0.2795(2)
C34_2 C 0.15421(23) 0.94533(16) 0.2783(2)
H23_2 H 0.188585 0.962212 0.299174
C35_2 C 0.03434(23) 0.97476(17) 0.2514(2)
O9_2 O 0.25981(18) 0.91794(13) 0.19729(16)
O10_2 O 0.18367(18) 0.85970(13) 0.14642(17)
O12_2 O 0.44332(17) 0.99869(12) 0.08848(17)
C59_2 C 0.23438(25) 0.89911(19) 0.1480(3)
C60_2 C 0.26629(25) 0.92441(17) 0.0897(2)
C61_2 C 0.32580(23) 0.95085(17) 0.0904(2)
H39_2 H 0.344854 0.955028 0.126518
C62_2 C 0.35601(24) 0.97056(17) 0.0381(2)
C65_2 C 0.2382(3) 0.9186(2) 0.0366(3)
H42_2 H 0.198593 0.899948 0.035902
C66_2 C 0.41923(23) 0.99333(16) 0.0387(3)
O14_2 O 0.22600(13) 0.88824(18) 0.32331(17)
O17_2 O 0.11129(12) 0.77665(17) 0.24485(17)
C63_2 C 0.32733(28) 0.9655(2) 0.9845(3)
H40_2 H 0.347621 0.979040 0.948774
C64_2 C 0.2685(3) 0.9403(2) 0.9844(3)
H41_2 H 0.249413 0.938196 0.948887
H7_2 H 0.993766 0.129442 0.300105
C15_2 C 0.96627(17) 0.02545(17) 0.2516(2)
H9_2 H 0.943616 0.042311 0.251935
Co10_2 Co 0.99903(2) 0.51952(3) 0.08863(3)
N3_2 N 0.75780(13) 0.86123(18) 0.24902(17)
C23_2 C 0.78499(18) 0.91168(25) 0.2210(2)
H15_2 H 0.763068 0.924043 0.200766
C24_2 C 0.84377(17) 0.94674(24) 0.2201(3)
H16_2 H 0.860333 0.981321 0.199701
C25_2 C 0.87730(16) 0.92962(23) 0.2500(2)
C26_2 C 0.84962(16) 0.87763(23) 0.2795(2)
H17_2 H 0.870558 0.864323 0.300105
C27_2 C 0.79113(17) 0.84579(23) 0.2783(2)
H18_2 H 0.773628 0.811415 0.299174
C28_2 C 0.94043(16) 0.96566(23) 0.2514(2)
C29_2 C 0.97455(17) 0.94081(24) 0.2516(2)
H19_2 H 0.957689 0.901304 0.251935
O5_2 O 0.65814(13) 0.74019(18) 0.19729(16)
O6_2 O 0.67604(13) 0.81633(18) 0.14642(17)
O8_2 O 0.55538(12) 0.55668(17) 0.08848(17)
C51_2 C 0.66474(17) 0.76562(25) 0.1480(3)
C52_2 C 0.65813(18) 0.73371(25) 0.0897(2)
C53_2 C 0.62506(16) 0.67420(23) 0.0904(2)
H35_2 H 0.610175 0.655146 0.126518
C54_2 C 0.61456(17) 0.64399(24) 0.0381(2)
C57_2 C 0.6805(2) 0.7618(3) 0.0366(3)
H38_2 H 0.701356 0.801407 0.035902
C58_2 C 0.57411(17) 0.58077(23) 0.0387(3)
Co11_2 Co 0.48048(3) 0.47951(2) 0.08863(3)
O13_2 O 0.66223(13) 0.77400(13) 0.32331(17)
O16_2 O 0.66536(12) 0.88871(12) 0.24485(17)
C55_2 C 0.63821(19) 0.67267(28) 0.9845(3)
H36_2 H 0.631420 0.652379 0.948774
C56_2 C 0.6719(2) 0.7315(3) 0.9844(3)
H37_2 H 0.688784 0.750587 0.948887
N5_3 N 0.24244(13) 0.10616(19) 0.57599(19)
C37_3 C 0.20970(17) 0.05600(24) 0.6035(2)
H25_3 H 0.227708 0.038291 0.621624
C38_3 C 0.15098(17) 0.02899(24) 0.6065(2)
C39_3 C 0.12295(16) 0.05416(23) 0.5791(2)
C40_3 C 0.15607(16) 0.10511(23) 0.5492(2)
H27_3 H 0.139164 0.122857 0.528813
C41_3 C 0.21472(17) 0.12922(25) 0.5499(2)
H28_3 H 0.236287 0.164119 0.530635
C42_3 C 0.05947(16) 0.02626(23) 0.5807(2)
H31_3 H 0.005609 0.136083 0.626475
C50_3 C 0.03290(23) 0.05901(16) 0.5807(2)
H34_3 H 0.054981 0.098565 0.580677
H26_3 H 0.130473 0.994391 0.626475
C43_3 C 0.02610(16) 0.96710(23) 0.5807(2)
H29_3 H 0.043583 0.945019 0.580677
O12_3 O 0.10998(17) 0.33203(12) 0.42182(17)
H39_3 H 0.011520 0.288362 0.459852
C62_3 C 0.02267(24) 0.30390(17) 0.3715(2)
H40_3 H 0.014287 0.312374 0.282108
C66_3 C 0.08589(23) 0.32667(16) 0.3721(3)
Co9_3 Co 0.18716(2) 0.33430(2) 0.42196(3)
N6_3 N 0.89384(19) 0.13629(14) 0.57599(19)
C44_3 C 0.94400(24) 0.15371(17) 0.6035(2)
H30_3 H 0.961709 0.189418 0.621624
C45_3 C 0.97101(24) 0.12200(17) 0.6065(2)
C46_3 C 0.94584(23) 0.06880(16) 0.5791(2)
C47_3 C 0.89489(23) 0.05097(17) 0.5492(2)
H32_3 H 0.877143 0.016308 0.528813
C48_3 C 0.87078(25) 0.08551(18) 0.5499(2)
H33_3 H 0.835881 0.072169 0.530635
C49_3 C 0.97374(23) 0.03322(16) 0.5807(2)
O1_3 O 0.74872(13) 0.67520(13) 0.53063(16)
O2_3 O 0.80696(13) 0.65730(13) 0.47976(17)
O4_3 O 0.66797(12) 0.77796(12) 0.42182(17)
N1_3 N 0.77010(13) 0.57554(13) 0.58236(17)
N2_3 N 0.86371(14) 0.75756(13) 0.57599(19)
C1_3 C 0.76755(19) 0.66860(17) 0.4814(3)
C2_3 C 0.74225(17) 0.67521(18) 0.4231(2)
C3_3 C 0.71581(17) 0.70828(16) 0.4238(2)
H1_3 H 0.711638 0.723159 0.459852
C4_3 C 0.69610(17) 0.71878(17) 0.3715(2)
C5_3 C 0.7011(2) 0.69513(19) 0.3179(3)
H2_3 H 0.687626 0.701914 0.282108
C6_3 C 0.7263(2) 0.6615(2) 0.3178(3)
H3_3 H 0.728470 0.644550 0.282221
C7_3 C 0.7480(2) 0.6529(2) 0.3700(3)
H4_3 H 0.766718 0.631978 0.369236
C8_3 C 0.67333(16) 0.75923(17) 0.3721(3)
C9_3 C 0.79336(18) 0.54835(18) 0.5544(2)
H5_3 H 0.827642 0.570266 0.534100
C10_3 C 0.76964(17) 0.48957(17) 0.5535(3)
H6_3 H 0.787655 0.473001 0.533035
C11_3 C 0.71899(16) 0.45604(16) 0.5834(2)
C12_3 C 0.69468(16) 0.48372(16) 0.6129(2)
H7_3 H 0.660432 0.462776 0.633439
C13_3 C 0.72133(16) 0.54221(17) 0.6117(2)
H8_3 H 0.704454 0.559706 0.632508
C14_3 C 0.69190(17) 0.39291(16) 0.5848(2)
C15_3 C 0.63293(17) 0.35879(17) 0.5850(2)
H9_3 H 0.610282 0.375645 0.585269
C16_3 C 0.84629(17) 0.79030(17) 0.6035(2)
H10_3 H 0.810582 0.772292 0.621624
C17_3 C 0.87800(17) 0.84902(17) 0.6065(2)
H11_3 H 0.863917 0.869527 0.626475
C18_3 C 0.93120(16) 0.87705(16) 0.5791(2)
C19_3 C 0.94903(17) 0.84393(16) 0.5492(2)
H12_3 H 0.983692 0.860836 0.528813
C20_3 C 0.91449(18) 0.78528(17) 0.5499(2)
H13_3 H 0.927831 0.763713 0.530635
C21_3 C 0.96678(16) 0.94053(16) 0.5807(2)
C22_3 C 0.94099(16) 0.97390(16) 0.5807(2)
H14_3 H 0.901435 0.956417 0.580677
N3_3 N 0.42446(13) 0.19457(18) 0.58236(17)
C23_3 C 0.45165(18) 0.24502(25) 0.5544(2)
H15_3 H 0.429734 0.257377 0.534100
C24_3 C 0.51043(17) 0.28008(24) 0.5535(3)
H16_3 H 0.526999 0.314655 0.533035
C25_3 C 0.54396(16) 0.26296(23) 0.5834(2)
C26_3 C 0.51628(16) 0.21097(23) 0.6129(2)
H17_3 H 0.537224 0.197657 0.633439
C27_3 C 0.45779(17) 0.17913(23) 0.6117(2)
H18_3 H 0.440294 0.144749 0.632508
C28_3 C 0.60709(16) 0.29900(23) 0.5848(2)
C29_3 C 0.64121(17) 0.27415(24) 0.5850(2)
H19_3 H 0.624355 0.234638 0.585269
N4_3 N 0.80543(18) 0.22990(13) 0.58236(17)
C30_3 C 0.75498(25) 0.20664(18) 0.5544(2)
H20_3 H 0.742623 0.172358 0.534100
C31_3 C 0.71992(24) 0.23036(17) 0.5535(3)
H21_3 H 0.685345 0.212345 0.533035
C32_3 C 0.73704(23) 0.28101(16) 0.5834(2)
C33_3 C 0.78903(23) 0.30532(16) 0.6129(2)
H22_3 H 0.802343 0.339568 0.633439
C34_3 C 0.82087(23) 0.27867(16) 0.6117(2)
H23_3 H 0.855251 0.295546 0.632508
C35_3 C 0.70100(23) 0.30810(17) 0.5848(2)
C36_3 C 0.72585(24) 0.36707(17) 0.5850(2)
H24_3 H 0.765362 0.389718 0.585269
O5_3 O 0.32480(13) 0.07353(18) 0.53063(16)
O6_3 O 0.34270(13) 0.14967(18) 0.47976(17)
C51_3 C 0.33140(17) 0.09896(25) 0.4814(3)
C52_3 C 0.32479(18) 0.06705(25) 0.4231(2)
C53_3 C 0.29172(16) 0.00754(23) 0.4238(2)
C55_3 C 0.30487(19) 0.00601(28) 0.3179(3)
C56_3 C 0.3385(2) 0.0649(3) 0.3178(3)
H37_3 H 0.355450 0.083921 0.282221
C57_3 C 0.3471(2) 0.0952(3) 0.3700(3)
H38_3 H 0.368022 0.134741 0.369236
O9_3 O 0.92647(18) 0.25128(13) 0.53063(16)
O10_3 O 0.85033(18) 0.19304(13) 0.47976(17)
C59_3 C 0.90104(25) 0.23245(19) 0.4814(3)
C60_3 C 0.93295(25) 0.25775(17) 0.4231(2)
C61_3 C 0.99246(23) 0.28419(17) 0.4238(2)
C63_3 C 0.99399(28) 0.2989(2) 0.3179(3)
C64_3 C 0.9351(3) 0.2737(2) 0.3178(3)
H41_3 H 0.916079 0.271530 0.282221
C65_3 C 0.9048(3) 0.2520(2) 0.3700(3)
H42_3 H 0.865259 0.233282 0.369236
Co10_3 Co 0.66570(2) 0.85285(3) 0.42196(3)
O16_3 O 0.33203(12) 0.22204(12) 0.57818(17)
O17_3 O 0.77796(12) 0.10998(17) 0.57818(17)
O18_3 O 0.89002(17) 0.66797(12) 0.57818(17)
O8_3 O 0.22204(12) 0.89002(17) 0.42182(17)
H35_3 H 0.276841 0.988480 0.459852
C54_3 C 0.28122(17) 0.97733(24) 0.3715(2)
H36_3 H 0.298086 0.985713 0.282108
C58_3 C 0.24077(17) 0.91411(23) 0.3721(3)
Co11_3 Co 0.14715(3) 0.81284(2) 0.42196(3)
O5_4 O 0.00853(13) 0.59314(18) 0.13604(16)
O7_2 O 0.10733(13) 0.77843(18) 0.34336(17)
C51_4 C 0.00193(17) 0.56771(25) 0.1853(3)
C52_4 C 0.00854(18) 0.59962(25) 0.2436(2)
C53_4 C 0.04161(16) 0.65913(23) 0.2429(2)
H35_4 H 0.056492 0.678187 0.206815
C54_4 C 0.05211(17) 0.68934(24) 0.2952(2)
C55_4 C 0.02846(19) 0.66066(28) 0.3488(3)
H36_4 H 0.035247 0.680954 0.384559
C58_4 C 0.09256(17) 0.75256(23) 0.2946(3)
O13_3 O 0.00443(13) 0.55934(13) 0.01003(17)
N7 N 0.09089(13) 0.56051(19) 0.09068(19)
O2_4 O 0.52637(13) 0.00937(13) 0.18691(17)
N1_4 N 0.56323(13) 0.09113(13) 0.08431(17)
C6_4 C 0.6070(2) 0.0052(2) 0.3489(3)
H3_4 H 0.604863 0.022117 0.384446
C7_4 C 0.5853(2) 0.0138(2) 0.2967(3)
H4_4 H 0.566615 0.034689 0.297431
C9_4 C 0.53997(18) 0.11832(18) 0.1123(2)
H5_4 H 0.505691 0.096401 0.132567
C10_4 C 0.56369(17) 0.17710(17) 0.1132(3)
H6_4 H 0.545678 0.193666 0.133632
C11_4 C 0.61434(16) 0.21063(16) 0.0833(2)
C12_4 C 0.63865(16) 0.18295(16) 0.0538(2)
H7_4 H 0.672901 0.203891 0.033228
C13_4 C 0.61200(16) 0.12446(17) 0.0550(2)
H8_4 H 0.628879 0.106961 0.034159
C14_4 C 0.64143(17) 0.27376(16) 0.0819(2)
C15_4 C 0.70040(17) 0.30788(17) 0.0817(2)
H9_4 H 0.723051 0.291022 0.081398
N3_4 N 0.90887(13) 0.47210(18) 0.08431(17)
C23_4 C 0.88168(18) 0.42165(25) 0.1123(2)
H15_4 H 0.903599 0.409290 0.132567
C24_4 C 0.82290(17) 0.38659(24) 0.1132(3)
H16_4 H 0.806334 0.352012 0.133632
C25_4 C 0.78937(16) 0.40371(23) 0.0833(2)
C26_4 C 0.81705(16) 0.45570(23) 0.0538(2)
H17_4 H 0.796109 0.469010 0.033228
C27_4 C 0.87554(17) 0.48754(23) 0.0550(2)
H18_4 H 0.893039 0.521918 0.034159
C28_4 C 0.72624(16) 0.36767(23) 0.0819(2)
C29_4 C 0.69212(17) 0.39252(24) 0.0817(2)
H19_4 H 0.708978 0.432029 0.081398
N4_4 N 0.52790(18) 0.43677(13) 0.08431(17)
C30_4 C 0.57835(25) 0.46003(18) 0.1123(2)
H20_4 H 0.590710 0.494309 0.132567
C31_4 C 0.61341(24) 0.43631(17) 0.1132(3)
H21_4 H 0.647988 0.454322 0.133632
C32_4 C 0.59629(23) 0.38566(16) 0.0833(2)
C33_4 C 0.54430(23) 0.36135(16) 0.0538(2)
H22_4 H 0.530990 0.327099 0.033228
C34_4 C 0.51246(23) 0.38800(16) 0.0550(2)
H23_4 H 0.478082 0.371121 0.034159
C35_4 C 0.63233(23) 0.35857(17) 0.0819(2)
C36_4 C 0.60748(24) 0.29960(17) 0.0817(2)
H24_4 H 0.567971 0.276949 0.081398
O6_4 O 0.99063(13) 0.51700(18) 0.18691(17)
C56_4 C 0.9948(2) 0.6018(3) 0.3489(3)
H37_4 H 0.977883 0.582746 0.384446
C57_4 C 0.9862(2) 0.5715(3) 0.2967(3)
H38_4 H 0.965311 0.531926 0.297431
O9_4 O 0.40686(18) 0.41539(13) 0.13604(16)
O10_4 O 0.48300(18) 0.47363(13) 0.18691(17)
O11_2 O 0.22157(18) 0.32890(13) 0.34336(17)
C59_4 C 0.43229(25) 0.43422(19) 0.1853(3)
C60_4 C 0.40038(25) 0.40892(17) 0.2436(2)
C61_4 C 0.34087(23) 0.38248(17) 0.2429(2)
H39_4 H 0.321813 0.378305 0.206815
C62_4 C 0.31066(24) 0.36277(17) 0.2952(2)
C63_4 C 0.33934(28) 0.3678(2) 0.3488(3)
H40_4 H 0.319046 0.354293 0.384559
C64_4 C 0.3982(3) 0.3930(2) 0.3489(3)
H41_4 H 0.417254 0.395137 0.384446
C65_4 C 0.4285(3) 0.4147(2) 0.2967(3)
H42_4 H 0.468074 0.433385 0.297431
C66_4 C 0.24744(23) 0.34000(16) 0.2946(3)
O14_3 O 0.44066(13) 0.44510(18) 0.01003(17)
N8 N 0.43949(19) 0.53038(14) 0.09068(19)
O1_4 O 0.58461(13) 0.99147(13) 0.13604(16)
O3_2 O 0.67110(13) 0.89267(13) 0.34336(17)
N2_4 N 0.46962(14) 0.90911(13) 0.09068(19)
C1_4 C 0.56578(19) 0.99807(17) 0.1853(3)
C2_4 C 0.59108(17) 0.99146(18) 0.2436(2)
C3_4 C 0.61752(17) 0.95839(16) 0.2429(2)
H1_4 H 0.621695 0.943508 0.206815
C4_4 C 0.63723(17) 0.94789(17) 0.2952(2)
C5_4 C 0.6322(2) 0.97154(19) 0.3488(3)
H2_4 H 0.645707 0.964753 0.384559
C8_4 C 0.66000(16) 0.90744(17) 0.2946(3)
C16_4 C 0.48704(17) 0.87637(17) 0.0632(2)
H10_4 H 0.522751 0.894375 0.045043
C17_4 C 0.45533(17) 0.81765(17) 0.0602(2)
H11_4 H 0.469416 0.797140 0.040192
C18_4 C 0.40213(16) 0.78962(16) 0.0876(2)
C19_4 C 0.38430(17) 0.82274(16) 0.1175(2)
H12_4 H 0.349641 0.805831 0.137854
C20_4 C 0.41884(18) 0.88139(17) 0.1168(2)
H13_4 H 0.405502 0.902954 0.136032
C21_4 C 0.36655(16) 0.72614(16) 0.0860(2)
C22_4 C 0.39234(16) 0.69277(16) 0.0860(2)
H14_4 H 0.431898 0.710250 0.085990
C37_4 C 0.12363(17) 0.61067(24) 0.0632(2)
H25_4 H 0.105625 0.628376 0.045043
C38_4 C 0.18235(17) 0.63768(24) 0.0602(2)
H26_4 H 0.202860 0.672276 0.040192
C39_4 C 0.21038(16) 0.61251(23) 0.0876(2)
C40_4 C 0.17726(16) 0.56156(23) 0.1175(2)
H27_4 H 0.194169 0.543810 0.137854
C41_4 C 0.11861(17) 0.53745(25) 0.1168(2)
H28_4 H 0.097046 0.502548 0.136032
C42_4 C 0.27386(16) 0.64041(23) 0.0860(2)
C43_4 C 0.30723(16) 0.69957(23) 0.0860(2)
H29_4 H 0.289750 0.721648 0.085990
C44_4 C 0.38933(24) 0.51296(17) 0.0632(2)
H30_4 H 0.371624 0.477249 0.045043
C45_4 C 0.36232(24) 0.54467(17) 0.0602(2)
H31_4 H 0.327724 0.530584 0.040192
C46_4 C 0.38749(23) 0.59787(16) 0.0876(2)
C47_4 C 0.43844(23) 0.61570(17) 0.1175(2)
H32_4 H 0.456190 0.650359 0.137854
C48_4 C 0.46255(25) 0.58116(18) 0.1168(2)
H33_4 H 0.497452 0.594498 0.136032
C49_4 C 0.35959(23) 0.63345(16) 0.0860(2)
C50_4 C 0.30043(23) 0.60766(16) 0.0860(2)
H34_4 H 0.278352 0.568102 0.085990
O15_3 O 0.55490(18) 0.99557(13) 0.01003(17)
C55_5 C 0.36179(19) 0.32733(28) 0.0155(3)
H36_5 H 0.368580 0.347621 0.051226
C56_5 C 0.3281(2) 0.2685(3) 0.0156(3)
H37_5 H 0.311216 0.249413 0.051113
N3_5 N 0.24220(13) 0.13877(18) 0.75098(17)
C23_5 C 0.21501(18) 0.08832(25) 0.7790(2)
H15_5 H 0.236932 0.075957 0.799234
C24_5 C 0.15623(17) 0.05326(24) 0.7799(3)
H16_5 H 0.139667 0.018679 0.800299
C25_5 C 0.12270(16) 0.07038(23) 0.7500(2)
C26_5 C 0.15038(16) 0.12237(23) 0.7205(2)
H17_5 H 0.129442 0.135677 0.699895
C27_5 C 0.20887(17) 0.15421(23) 0.7217(2)
H18_5 H 0.226372 0.188585 0.700826
C28_5 C 0.05957(16) 0.03434(23) 0.7486(2)
C29_5 C 0.02545(17) 0.05919(24) 0.7484(2)
H19_5 H 0.042311 0.098696 0.748065
O5_5 O 0.34186(13) 0.25981(18) 0.80271(16)
O6_5 O 0.32396(13) 0.18367(18) 0.85358(17)
C51_5 C 0.33526(17) 0.23438(25) 0.8520(3)
C52_5 C 0.34187(18) 0.26629(25) 0.9103(2)
C53_5 C 0.37494(16) 0.32580(23) 0.9096(2)
H35_5 H 0.389825 0.344854 0.873482
C54_5 C 0.38544(17) 0.35601(24) 0.9619(2)
C57_5 C 0.3195(2) 0.2382(3) 0.9634(3)
H38_5 H 0.298644 0.198593 0.964098
C58_5 C 0.42589(17) 0.41923(23) 0.9613(3)
O13_4 O 0.33777(13) 0.22600(13) 0.67669(17)
N7_2 N 0.42422(13) 0.22718(19) 0.75735(19)
H7_5 H 0.006234 0.870558 0.699895
C15_5 C 0.03373(17) 0.97455(17) 0.7484(2)
H9_5 H 0.056384 0.957689 0.748065
C63_5 C 0.67267(28) 0.0345(2) 0.0155(3)
H40_5 H 0.652379 0.020960 0.051226
C64_5 C 0.7315(3) 0.0597(2) 0.0156(3)
H41_5 H 0.750587 0.061804 0.051113
N4_5 N 0.86123(18) 0.10344(13) 0.75098(17)
C30_5 C 0.91168(25) 0.12670(18) 0.7790(2)
H20_5 H 0.924043 0.160976 0.799234
C31_5 C 0.94674(24) 0.10298(17) 0.7799(3)
H21_5 H 0.981321 0.120989 0.800299
C32_5 C 0.92962(23) 0.05233(16) 0.7500(2)
C33_5 C 0.87763(23) 0.02802(16) 0.7205(2)
C34_5 C 0.84579(23) 0.05467(16) 0.7217(2)
H23_5 H 0.811415 0.037788 0.700826
C35_5 C 0.96566(23) 0.02524(17) 0.7486(2)
O9_5 O 0.74019(18) 0.08206(13) 0.80271(16)
O10_5 O 0.81633(18) 0.14030(13) 0.85358(17)
C59_5 C 0.76562(25) 0.10089(19) 0.8520(3)
C60_5 C 0.73371(25) 0.07559(17) 0.9103(2)
C61_5 C 0.67420(23) 0.04915(17) 0.9096(2)
H39_5 H 0.655146 0.044972 0.873482
C62_5 C 0.64399(24) 0.02944(17) 0.9619(2)
C65_5 C 0.7618(3) 0.0814(2) 0.9634(3)
H42_5 H 0.801407 0.100052 0.964098
C66_5 C 0.58077(23) 0.00667(16) 0.9613(3)
O14_4 O 0.77400(13) 0.11176(18) 0.67669(17)
N8_2 N 0.77282(19) 0.19705(14) 0.75735(19)
C5_5 C 0.9655(2) 0.63821(19) 0.0155(3)
H2_5 H 0.979040 0.631420 0.051226
C6_5 C 0.9403(2) 0.6719(2) 0.0156(3)
H3_5 H 0.938196 0.688784 0.051113
O1_5 O 0.91794(13) 0.65814(13) 0.80271(16)
O2_5 O 0.85970(13) 0.67604(13) 0.85358(17)
N1_5 N 0.89656(13) 0.75780(13) 0.75098(17)
N2_5 N 0.80295(14) 0.57578(13) 0.75735(19)
C1_5 C 0.89911(19) 0.66474(17) 0.8520(3)
C2_5 C 0.92441(17) 0.65813(18) 0.9103(2)
C3_5 C 0.95085(17) 0.62506(16) 0.9096(2)
H1_5 H 0.955028 0.610175 0.873482
C4_5 C 0.97056(17) 0.61456(17) 0.9619(2)
C7_5 C 0.9186(2) 0.6805(2) 0.9634(3)
H4_5 H 0.899948 0.701356 0.964098
C8_5 C 0.99333(16) 0.57411(17) 0.9613(3)
C9_5 C 0.87330(18) 0.78499(18) 0.7790(2)
H5_5 H 0.839024 0.763068 0.799234
C10_5 C 0.89702(17) 0.84377(17) 0.7799(3)
H6_5 H 0.879011 0.860333 0.800299
C11_5 C 0.94767(16) 0.87730(16) 0.7500(2)
C12_5 C 0.97198(16) 0.84962(16) 0.7205(2)
C13_5 C 0.94533(16) 0.79113(17) 0.7217(2)
H8_5 H 0.962212 0.773628 0.700826
C14_5 C 0.97476(17) 0.94043(16) 0.7486(2)
C16_5 C 0.82037(17) 0.54304(17) 0.7299(2)
H10_5 H 0.856084 0.561042 0.711710
C17_5 C 0.78866(17) 0.48432(17) 0.7269(2)
H11_5 H 0.802749 0.463807 0.706859
C18_5 C 0.73546(16) 0.45629(16) 0.7543(2)
C19_5 C 0.71763(17) 0.48941(16) 0.7842(2)
H12_5 H 0.682974 0.472498 0.804521
C20_5 C 0.75217(18) 0.54806(17) 0.7835(2)
H13_5 H 0.738835 0.569621 0.802699
C21_5 C 0.69988(16) 0.39281(16) 0.7527(2)
C22_5 C 0.72567(16) 0.35944(16) 0.7527(2)
H14_5 H 0.765231 0.376917 0.752657
H22_5 H 0.864323 0.993766 0.699895
C36_5 C 0.94081(24) 0.96627(17) 0.7484(2)
H24_5 H 0.901304 0.943616 0.748065
C37_5 C 0.45696(17) 0.27734(24) 0.7299(2)
H25_5 H 0.438958 0.295043 0.711710
C38_5 C 0.51568(17) 0.30435(24) 0.7269(2)
H26_5 H 0.536193 0.338943 0.706859
C39_5 C 0.54371(16) 0.27918(23) 0.7543(2)
C40_5 C 0.51059(16) 0.22823(23) 0.7842(2)
H27_5 H 0.527502 0.210477 0.804521
C41_5 C 0.45194(17) 0.20412(25) 0.7835(2)
H28_5 H 0.430379 0.169215 0.802699
C42_5 C 0.60719(16) 0.30708(23) 0.7527(2)
C43_5 C 0.64056(16) 0.36624(23) 0.7527(2)
H29_5 H 0.623083 0.388315 0.752657
C44_5 C 0.72266(24) 0.17963(17) 0.7299(2)
H30_5 H 0.704957 0.143916 0.711710
C45_5 C 0.69565(24) 0.21134(17) 0.7269(2)
H31_5 H 0.661057 0.197251 0.706859
C46_5 C 0.72082(23) 0.26454(16) 0.7543(2)
C47_5 C 0.77177(23) 0.28237(17) 0.7842(2)
H32_5 H 0.789523 0.317026 0.804521
C48_5 C 0.79588(25) 0.24783(18) 0.7835(2)
H33_5 H 0.830785 0.261165 0.802699
C49_5 C 0.69292(23) 0.30012(16) 0.7527(2)
C50_5 C 0.63376(23) 0.27433(16) 0.7527(2)
H34_5 H 0.611685 0.234769 0.752657
O15_4 O 0.88824(18) 0.66223(13) 0.67669(17)
H35_6 H 0.723159 0.011520 0.540148
C54_6 C 0.71878(17) 0.02267(24) 0.6285(2)
H36_6 H 0.701914 0.014287 0.717892
C58_6 C 0.75923(17) 0.08589(23) 0.6279(3)
O1_6 O 0.25128(13) 0.32480(13) 0.46937(16)
O2_6 O 0.19304(13) 0.34270(13) 0.52024(17)
N1_6 N 0.22990(13) 0.42446(13) 0.41764(17)
N2_6 N 0.13629(14) 0.24244(13) 0.42401(19)
C1_6 C 0.23245(19) 0.33140(17) 0.5186(3)
C2_6 C 0.25775(17) 0.32479(18) 0.5769(2)
C3_6 C 0.28419(17) 0.29172(16) 0.5762(2)
H1_6 H 0.288362 0.276841 0.540148
C4_6 C 0.30390(17) 0.28122(17) 0.6285(2)
C5_6 C 0.2989(2) 0.30487(19) 0.6821(3)
H2_6 H 0.312374 0.298086 0.717892
C6_6 C 0.2737(2) 0.3385(2) 0.6822(3)
H3_6 H 0.271530 0.355450 0.717779
C7_6 C 0.2520(2) 0.3471(2) 0.6300(3)
H4_6 H 0.233282 0.368022 0.630764
C8_6 C 0.32667(16) 0.24077(17) 0.6279(3)
C9_6 C 0.20664(18) 0.45165(18) 0.4456(2)
H5_6 H 0.172358 0.429734 0.465900
C10_6 C 0.23036(17) 0.51043(17) 0.4465(3)
H6_6 H 0.212345 0.526999 0.466965
C11_6 C 0.28101(16) 0.54396(16) 0.4166(2)
C12_6 C 0.30532(16) 0.51628(16) 0.3871(2)
H7_6 H 0.339568 0.537224 0.366561
C13_6 C 0.27867(16) 0.45779(17) 0.3883(2)
H8_6 H 0.295546 0.440294 0.367492
C14_6 C 0.30810(17) 0.60709(16) 0.4152(2)
C15_6 C 0.36707(17) 0.64121(17) 0.4150(2)
H9_6 H 0.389718 0.624355 0.414731
C16_6 C 0.15371(17) 0.20970(17) 0.3965(2)
H10_6 H 0.189418 0.227708 0.378376
C17_6 C 0.12200(17) 0.15098(17) 0.3935(2)
H11_6 H 0.136083 0.130473 0.373525
C18_6 C 0.06880(16) 0.12295(16) 0.4209(2)
C19_6 C 0.05097(17) 0.15607(16) 0.4508(2)
H12_6 H 0.016308 0.139164 0.471187
C20_6 C 0.08551(18) 0.21472(17) 0.4501(2)
H13_6 H 0.072169 0.236287 0.469365
C21_6 C 0.03322(16) 0.05947(16) 0.4193(2)
C22_6 C 0.05901(16) 0.02610(16) 0.4193(2)
H14_6 H 0.098565 0.043583 0.419323
N3_6 N 0.57554(13) 0.80543(18) 0.41764(17)
C23_6 C 0.54835(18) 0.75498(25) 0.4456(2)
H15_6 H 0.570266 0.742623 0.465900
C24_6 C 0.48957(17) 0.71992(24) 0.4465(3)
H16_6 H 0.473001 0.685345 0.466965
C25_6 C 0.45604(16) 0.73704(23) 0.4166(2)
C26_6 C 0.48372(16) 0.78903(23) 0.3871(2)
H17_6 H 0.462776 0.802343 0.366561
C27_6 C 0.54221(17) 0.82087(23) 0.3883(2)
H18_6 H 0.559706 0.855251 0.367492
C28_6 C 0.39291(16) 0.70100(23) 0.4152(2)
C29_6 C 0.35879(17) 0.72585(24) 0.4150(2)
H19_6 H 0.375645 0.765362 0.414731
N4_6 N 0.19457(18) 0.77010(13) 0.41764(17)
C30_6 C 0.24502(25) 0.79336(18) 0.4456(2)
H20_6 H 0.257377 0.827642 0.465900
C31_6 C 0.28008(24) 0.76964(17) 0.4465(3)
H21_6 H 0.314655 0.787655 0.466965
C32_6 C 0.26296(23) 0.71899(16) 0.4166(2)
C33_6 C 0.21097(23) 0.69468(16) 0.3871(2)
H22_6 H 0.197657 0.660432 0.366561
C34_6 C 0.17913(23) 0.72133(16) 0.3883(2)
H23_6 H 0.144749 0.704454 0.367492
C35_6 C 0.29900(23) 0.69190(17) 0.4152(2)
C36_6 C 0.27415(24) 0.63293(17) 0.4150(2)
H24_6 H 0.234638 0.610282 0.414731
O5_6 O 0.67520(13) 0.92647(18) 0.46937(16)
O6_6 O 0.65730(13) 0.85033(18) 0.52024(17)
C51_6 C 0.66860(17) 0.90104(25) 0.5186(3)
C52_6 C 0.67521(18) 0.93295(25) 0.5769(2)
C53_6 C 0.70828(16) 0.99246(23) 0.5762(2)
C55_6 C 0.69513(19) 0.99399(28) 0.6821(3)
C56_6 C 0.6615(2) 0.9351(3) 0.6822(3)
H37_6 H 0.644550 0.916079 0.717779
C57_6 C 0.6529(2) 0.9048(3) 0.6300(3)
H38_6 H 0.631978 0.865259 0.630764
O9_6 O 0.07353(18) 0.74872(13) 0.46937(16)
O10_6 O 0.14967(18) 0.80696(13) 0.52024(17)
C59_6 C 0.09896(25) 0.76755(19) 0.5186(3)
C60_6 C 0.06705(25) 0.74225(17) 0.5769(2)
C61_6 C 0.00754(23) 0.71581(17) 0.5762(2)
C63_6 C 0.00601(28) 0.7011(2) 0.6821(3)
C64_6 C 0.0649(3) 0.7263(2) 0.6822(3)
H41_6 H 0.083921 0.728470 0.717779
C65_6 C 0.0952(3) 0.7480(2) 0.6300(3)
H42_6 H 0.134741 0.766718 0.630764
N7_3 N 0.75756(13) 0.89384(19) 0.42401(19)
N8_3 N 0.10616(19) 0.86371(14) 0.42401(19)
C44_6 C 0.05600(24) 0.84629(17) 0.3965(2)
H30_6 H 0.038291 0.810582 0.378376
C45_6 C 0.02899(24) 0.87800(17) 0.3935(2)
C46_6 C 0.05416(23) 0.93120(16) 0.4209(2)
C47_6 C 0.10511(23) 0.94903(17) 0.4508(2)
H32_6 H 0.122857 0.983692 0.471187
C48_6 C 0.12922(25) 0.91449(18) 0.4501(2)
H33_6 H 0.164119 0.927831 0.469365
C49_6 C 0.02626(23) 0.96678(16) 0.4193(2)
H26_6 H 0.869527 0.005609 0.373525
C43_6 C 0.97390(16) 0.03290(23) 0.4193(2)
H29_6 H 0.956417 0.054981 0.419323
H39_6 H 0.988480 0.711638 0.540148
C62_6 C 0.97733(24) 0.69610(17) 0.6285(2)
H40_6 H 0.985713 0.687626 0.717892
C66_6 C 0.91411(23) 0.67333(16) 0.6279(3)
C37_6 C 0.79030(17) 0.94400(24) 0.3965(2)
H25_6 H 0.772292 0.961709 0.378376
C38_6 C 0.84902(17) 0.97101(24) 0.3935(2)
C39_6 C 0.87705(16) 0.94584(23) 0.4209(2)
C40_6 C 0.84393(16) 0.89489(23) 0.4508(2)
H27_6 H 0.860836 0.877143 0.471187
C41_6 C 0.78528(17) 0.87078(25) 0.4501(2)
H28_6 H 0.763713 0.835881 0.469365
C42_6 C 0.94053(16) 0.97374(23) 0.4193(2)
H31_6 H 0.994391 0.863917 0.373525
C50_6 C 0.96710(23) 0.94099(16) 0.4193(2)
H34_6 H 0.945019 0.901435 0.419323
loop_
_geom_bond_atom_site_label_1
_geom_bond_atom_site_label_2
_geom_bond_site_symmetry_1
_geom_bond_site_symmetry_2
O1 C1 1_555 1_555
O3 C8 1_555 1_555
O4 C8 1_555 1_555
C2 C1 1_555 1_555
C3 C2 1_555 1_555
H1 C3 1_555 1_555
C4 C3 1_555 1_555
C5 C4 1_555 1_555
H2 C5 1_555 1_555
C8 C4 1_555 1_555
C16 N2 1_555 1_555
H10 C16 1_555 1_555
C17 C16 1_555 1_555
H11 C17 1_555 1_555
C18 C17 1_555 1_555
C19 C18 1_555 1_555
H12 C19 1_555 1_555
C20 N2 1_555 1_555
H13 C20 1_555 1_555
C21 C18 1_555 1_555
C22 C21 1_555 1_555
H14 C22 1_555 1_555
N5 C37 1_555 1_555
C37 H25 1_555 1_555
C38 C37 1_555 1_555
H26 C38 1_555 1_555
C39 C38 1_555 1_555
C40 C39 1_555 1_555
H27 C40 1_555 1_555
C41 N5 1_555 1_555
H28 C41 1_555 1_555
C42 C39 1_555 1_555
C43 C21 1_555 1_555
H29 C43 1_555 1_555
N6 C44 1_555 1_555
C44 H30 1_555 1_555
C45 C44 1_555 1_555
H31 C45 1_555 1_555
C46 C45 1_555 1_555
C47 C46 1_555 1_555
H32 C47 1_555 1_555
C48 N6 1_555 1_555
H33 C48 1_555 1_555
C49 C22 1_555 1_555
C50 C42 1_555 1_555
H34 C50 1_555 1_555
Co5 N6 1_555 1_555
Co7 O3 1_555 1_555
Co10 O4 1_555 1_555
C19 C20 1_555 1_555
C40 C41 1_555 1_555
C42 C43 1_555 1_555
C46 C49 1_555 1_555
C47 C48 1_555 1_555
C49 C50 1_555 1_555
O2 Co1 1_555 1_555
N1 Co1 1_555 1_555
H3 C6 1_555 1_555
H4 C7 1_555 1_555
C9 N1 1_555 1_555
H5 C9 1_555 1_555
C10 C9 1_555 1_555
H6 C10 1_555 1_555
C11 C10 1_555 1_555
C12 C11 1_555 1_555
H7 C12 1_555 1_555
C13 N1 1_555 1_555
H8 C13 1_555 1_555
C14 C11 1_555 1_555
C15 C14 1_555 1_555
H9 C15 1_555 1_555
N3 C23 1_555 1_555
C23 H15 1_555 1_555
C24 C23 1_555 1_555
H16 C24 1_555 1_555
C25 C24 1_555 1_555
C26 C25 1_555 1_555
H17 C26 1_555 1_555
C27 N3 1_555 1_555
H18 C27 1_555 1_555
C28 C15 1_555 1_555
C29 C28 1_555 1_555
H19 C29 1_555 1_555
N4 C30 1_555 1_555
C30 H20 1_555 1_555
C31 C30 1_555 1_555
H21 C31 1_555 1_555
C32 C31 1_555 1_555
C33 C32 1_555 1_555
H22 C33 1_555 1_555
C34 N4 1_555 1_555
H23 C34 1_555 1_555
C35 C29 1_555 1_555
C36 C14 1_555 1_555
H24 C36 1_555 1_555
Co4 N3 1_555 1_555
O6 Co4 1_555 1_555
H37 C56 1_555 1_555
H38 C57 1_555 1_555
Co5 N4 1_555 1_555
O9 Co5 1_555 1_555
O10 Co5 1_555 1_555
O11 C66 1_555 1_555
O12 C66 1_555 1_555
C59 O9 1_555 1_555
C60 C59 1_555 1_555
C61 C60 1_555 1_555
H39 C61 1_555 1_555
C62 C61 1_555 1_555
C63 C62 1_555 1_555
H40 C63 1_555 1_555
C64 C63 1_555 1_555
H41 C64 1_555 1_555
C65 C60 1_555 1_555
H42 C65 1_555 1_555
C66 C62 1_555 1_555
Co6 O11 1_555 1_555
Co9 O12 1_555 1_555
O14 Co5 1_555 1_555
O17 Co5 1_555 1_555
C6 C7 1_555 1_555
C12 C13 1_555 1_555
C25 C28 1_555 1_555
C26 C27 1_555 1_555
C32 C35 1_555 1_555
C33 C34 1_555 1_555
C35 C36 1_555 1_555
C56 C57 1_555 1_555
O10 C59 1_555 1_555
C64 C65 1_555 1_555
O7 C58 1_555 1_555
O8 C58 1_555 1_555
C51 O5 1_555 1_555
C52 C51 1_555 1_555
C53 C52 1_555 1_555
H35 C53 1_555 1_555
C54 C53 1_555 1_555
C55 C54 1_555 1_555
H36 C55 1_555 1_555
C58 C54 1_555 1_555
Co8 O7 1_555 1_555
Co11 O8 1_555 1_555
Co1_2 O1_2 1_555 1_555
O1_2 C1_2 1_555 1_555
O2_2 Co1_2 1_555 1_555
O4_2 C8_2 1_555 1_555
N1_2 Co1_2 1_555 1_555
N2_2 Co1_2 1_555 1_555
C1_2 O2_2 1_555 1_555
C2_2 C1_2 1_555 1_555
C3_2 C2_2 1_555 1_555
H1_2 C3_2 1_555 1_555
C4_2 C3_2 1_555 1_555
C7_2 C2_2 1_555 1_555
H4_2 C7_2 1_555 1_555
C8_2 C4_2 1_555 1_555
C9_2 N1_2 1_555 1_555
H5_2 C9_2 1_555 1_555
C10_2 C9_2 1_555 1_555
H6_2 C10_2 1_555 1_555
C11_2 C10_2 1_555 1_555
C12_2 C11_2 1_555 1_555
C13_2 N1_2 1_555 1_555
H8_2 C13_2 1_555 1_555
C14_2 C11_2 1_555 1_555
C16_2 N2_2 1_555 1_555
H10_2 C16_2 1_555 1_555
C17_2 C16_2 1_555 1_555
H11_2 C17_2 1_555 1_555
C18_2 C17_2 1_555 1_555
C19_2 C18_2 1_555 1_555
H12_2 C19_2 1_555 1_555
C20_2 N2_2 1_555 1_555
H13_2 C20_2 1_555 1_555
C21_2 C18_2 1_555 1_555
C22_2 C21_2 1_555 1_555
H14_2 C22_2 1_555 1_555
C36_2 C14_2 1_555 1_555
H24_2 C36_2 1_555 1_555
N5_2 C37_2 1_555 1_555
C37_2 H25_2 1_555 1_555
C38_2 C37_2 1_555 1_555
H26_2 C38_2 1_555 1_555
C39_2 C38_2 1_555 1_555
C40_2 C39_2 1_555 1_555
H27_2 C40_2 1_555 1_555
C41_2 N5_2 1_555 1_555
H28_2 C41_2 1_555 1_555
C42_2 C39_2 1_555 1_555
C43_2 C21_2 1_555 1_555
H29_2 C43_2 1_555 1_555
N6_2 C44_2 1_555 1_555
C44_2 H30_2 1_555 1_555
C45_2 C44_2 1_555 1_555
H31_2 C45_2 1_555 1_555
C46_2 C45_2 1_555 1_555
C47_2 C46_2 1_555 1_555
H32_2 C47_2 1_555 1_555
C48_2 N6_2 1_555 1_555
H33_2 C48_2 1_555 1_555
C49_2 C22_2 1_555 1_555
C50_2 C42_2 1_555 1_555
H34_2 C50_2 1_555 1_555
Co4_2 N5_2 1_555 1_555
Co5_2 N6_2 1_555 1_555
O15_2 Co1_2 1_555 1_555
O18_2 Co1_2 1_555 1_555
C12_2 C13_2 1_555 1_555
C19_2 C20_2 1_555 1_555
C40_2 C41_2 1_555 1_555
C42_2 C43_2 1_555 1_555
C46_2 C49_2 1_555 1_555
C47_2 C48_2 1_555 1_555
C49_2 C50_2 1_555 1_555
H2_2 C5_2 1_555 1_555
C6_2 C5_2 1_555 1_555
H3_2 C6_2 1_555 1_555
N4_2 C30_2 1_555 1_555
C30_2 H20_2 1_555 1_555
C31_2 C30_2 1_555 1_555
H21_2 C31_2 1_555 1_555
C32_2 C31_2 1_555 1_555
C33_2 C32_2 1_555 1_555
C34_2 N4_2 1_555 1_555
H23_2 C34_2 1_555 1_555
Co5_2 N4_2 1_555 1_555
O9_2 Co5_2 1_555 1_555
O10_2 Co5_2 1_555 1_555
O12_2 C66_2 1_555 1_555
C59_2 O9_2 1_555 1_555
C60_2 C59_2 1_555 1_555
C61_2 C60_2 1_555 1_555
H39_2 C61_2 1_555 1_555
C62_2 C61_2 1_555 1_555
C65_2 C60_2 1_555 1_555
H42_2 C65_2 1_555 1_555
C66_2 C62_2 1_555 1_555
O14_2 Co5_2 1_555 1_555
O17_2 Co5_2 1_555 1_555
C32_2 C35_2 1_555 1_555
C33_2 C34_2 1_555 1_555
O10_2 C59_2 1_555 1_555
H40_2 C63_2 1_555 1_555
C64_2 C63_2 1_555 1_555
H41_2 C64_2 1_555 1_555
H9_2 C15_2 1_555 1_555
N3_2 C23_2 1_555 1_555
C23_2 H15_2 1_555 1_555
C24_2 C23_2 1_555 1_555
H16_2 C24_2 1_555 1_555
C25_2 C24_2 1_555 1_555
C26_2 C25_2 1_555 1_555
H17_2 C26_2 1_555 1_555
C27_2 N3_2 1_555 1_555
H18_2 C27_2 1_555 1_555
C29_2 C28_2 1_555 1_555
H19_2 C29_2 1_555 1_555
Co4_2 N3_2 1_555 1_555
O5_2 Co4_2 1_555 1_555
O6_2 Co4_2 1_555 1_555
O8_2 C58_2 1_555 1_555
C51_2 O5_2 1_555 1_555
C52_2 C51_2 1_555 1_555
C53_2 C52_2 1_555 1_555
H35_2 C53_2 1_555 1_555
C54_2 C53_2 1_555 1_555
C57_2 C52_2 1_555 1_555
H38_2 C57_2 1_555 1_555
C58_2 C54_2 1_555 1_555
Co11_2 O8_2 1_555 1_555
O13_2 Co4_2 1_555 1_555
O16_2 Co4_2 1_555 1_555
C25_2 C28_2 1_555 1_555
C26_2 C27_2 1_555 1_555
O6_2 C51_2 1_555 1_555
H36_2 C55_2 1_555 1_555
C56_2 C55_2 1_555 1_555
H37_2 C56_2 1_555 1_555
N5_3 C37_3 1_555 1_555
C37_3 H25_3 1_555 1_555
C38_3 C37_3 1_555 1_555
C39_3 C38_3 1_555 1_555
C40_3 C39_3 1_555 1_555
H27_3 C40_3 1_555 1_555
C41_3 N5_3 1_555 1_555
H28_3 C41_3 1_555 1_555
C42_3 C39_3 1_555 1_555
C50_3 C42_3 1_555 1_555
H34_3 C50_3 1_555 1_555
Co7 N5_3 1_555 1_555
C40_3 C41_3 1_555 1_555
H29_3 C43_3 1_555 1_555
O15_2 C66_3 1_555 1_555
O12_3 C66_3 1_555 1_555
C66_3 C62_3 1_555 1_555
Co9_3 O12_3 1_555 1_555
N6_3 C44_3 1_555 1_555
C44_3 H30_3 1_555 1_555
C45_3 C44_3 1_555 1_555
C46_3 C45_3 1_555 1_555
C47_3 C46_3 1_555 1_555
H32_3 C47_3 1_555 1_555
C48_3 N6_3 1_555 1_555
H33_3 C48_3 1_555 1_555
Co8 N6_3 1_555 1_555
C46_3 C49_3 1_555 1_555
C47_3 C48_3 1_555 1_555
Co6 O1_3 1_555 1_555
O1_3 C1_3 1_555 1_555
O2_3 Co6 1_555 1_555
O13_2 C8_3 1_555 1_555
O4_3 C8_3 1_555 1_555
N1_3 Co6 1_555 1_555
N2_3 Co6 1_555 1_555
C1_3 O2_3 1_555 1_555
C2_3 C1_3 1_555 1_555
C3_3 C2_3 1_555 1_555
H1_3 C3_3 1_555 1_555
C4_3 C3_3 1_555 1_555
C5_3 C4_3 1_555 1_555
H2_3 C5_3 1_555 1_555
C6_3 C5_3 1_555 1_555
H3_3 C6_3 1_555 1_555
C7_3 C2_3 1_555 1_555
H4_3 C7_3 1_555 1_555
C8_3 C4_3 1_555 1_555
C9_3 N1_3 1_555 1_555
H5_3 C9_3 1_555 1_555
C10_3 C9_3 1_555 1_555
H6_3 C10_3 1_555 1_555
C11_3 C10_3 1_555 1_555
C12_3 C11_3 1_555 1_555
H7_3 C12_3 1_555 1_555
C13_3 N1_3 1_555 1_555
H8_3 C13_3 1_555 1_555
C14_3 C11_3 1_555 1_555
C15_3 C14_3 1_555 1_555
H9_3 C15_3 1_555 1_555
C16_3 N2_3 1_555 1_555
H10_3 C16_3 1_555 1_555
C17_3 C16_3 1_555 1_555
H11_3 C17_3 1_555 1_555
C18_3 C17_3 1_555 1_555
C19_3 C18_3 1_555 1_555
H12_3 C19_3 1_555 1_555
C20_3 N2_3 1_555 1_555
H13_3 C20_3 1_555 1_555
C21_3 C18_3 1_555 1_555
C22_3 C21_3 1_555 1_555
H14_3 C22_3 1_555 1_555
N3_3 C23_3 1_555 1_555
C23_3 H15_3 1_555 1_555
C24_3 C23_3 1_555 1_555
H16_3 C24_3 1_555 1_555
C25_3 C24_3 1_555 1_555
C26_3 C25_3 1_555 1_555
H17_3 C26_3 1_555 1_555
C27_3 N3_3 1_555 1_555
H18_3 C27_3 1_555 1_555
C28_3 C15_3 1_555 1_555
C29_3 C28_3 1_555 1_555
H19_3 C29_3 1_555 1_555
N4_3 C30_3 1_555 1_555
C30_3 H20_3 1_555 1_555
C31_3 C30_3 1_555 1_555
H21_3 C31_3 1_555 1_555
C32_3 C31_3 1_555 1_555
C33_3 C32_3 1_555 1_555
H22_3 C33_3 1_555 1_555
C34_3 N4_3 1_555 1_555
H23_3 C34_3 1_555 1_555
C35_3 C29_3 1_555 1_555
C36_3 C14_3 1_555 1_555
H24_3 C36_3 1_555 1_555
Co7 N3_3 1_555 1_555
O5_3 Co7 1_555 1_555
O6_3 Co7 1_555 1_555
C51_3 O5_3 1_555 1_555
C52_3 C51_3 1_555 1_555
C53_3 C52_3 1_555 1_555
C56_3 C55_3 1_555 1_555
H37_3 C56_3 1_555 1_555
C57_3 C52_3 1_555 1_555
H38_3 C57_3 1_555 1_555
Co8 N4_3 1_555 1_555
O9_3 Co8 1_555 1_555
O10_3 Co8 1_555 1_555
C59_3 O9_3 1_555 1_555
C60_3 C59_3 1_555 1_555
C61_3 C60_3 1_555 1_555
C64_3 C63_3 1_555 1_555
H41_3 C64_3 1_555 1_555
C65_3 C60_3 1_555 1_555
H42_3 C65_3 1_555 1_555
Co10_3 O4_3 1_555 1_555
O16_3 Co7 1_555 1_555
O17_3 Co8 1_555 1_555
O18_3 Co6 1_555 1_555
C6_3 C7_3 1_555 1_555
C12_3 C13_3 1_555 1_555
C19_3 C20_3 1_555 1_555
C25_3 C28_3 1_555 1_555
C26_3 C27_3 1_555 1_555
C32_3 C35_3 1_555 1_555
C33_3 C34_3 1_555 1_555
C35_3 C36_3 1_555 1_555
O6_3 C51_3 1_555 1_555
C56_3 C57_3 1_555 1_555
O10_3 C59_3 1_555 1_555
C64_3 C65_3 1_555 1_555
O14_2 C58_3 1_555 1_555
O8_3 C58_3 1_555 1_555
C58_3 C54_3 1_555 1_555
Co11_3 O8_3 1_555 1_555
O7_2 C58_4 1_555 1_555
O17_2 C58_4 1_555 1_555
C51_4 O5_4 1_555 1_555
C52_4 C51_4 1_555 1_555
C53_4 C52_4 1_555 1_555
H35_4 C53_4 1_555 1_555
C54_4 C53_4 1_555 1_555
C55_4 C54_4 1_555 1_555
H36_4 C55_4 1_555 1_555
C58_4 C54_4 1_555 1_555
Co11_3 O7_2 1_555 1_555
O2_4 Co9_2 1_555 1_555
N1_4 Co9_2 1_555 1_555
H3_4 C6_4 1_555 1_555
H4_4 C7_4 1_555 1_555
C9_4 N1_4 1_555 1_555
H5_4 C9_4 1_555 1_555
C10_4 C9_4 1_555 1_555
H6_4 C10_4 1_555 1_555
C11_4 C10_4 1_555 1_555
C12_4 C11_4 1_555 1_555
H7_4 C12_4 1_555 1_555
C13_4 N1_4 1_555 1_555
H8_4 C13_4 1_555 1_555
C14_4 C11_4 1_555 1_555
C15_4 C14_4 1_555 1_555
H9_4 C15_4 1_555 1_555
N3_4 C23_4 1_555 1_555
C23_4 H15_4 1_555 1_555
C24_4 C23_4 1_555 1_555
H16_4 C24_4 1_555 1_555
C25_4 C24_4 1_555 1_555
C26_4 C25_4 1_555 1_555
H17_4 C26_4 1_555 1_555
C27_4 N3_4 1_555 1_555
H18_4 C27_4 1_555 1_555
C28_4 C15_4 1_555 1_555
C29_4 C28_4 1_555 1_555
H19_4 C29_4 1_555 1_555
N4_4 C30_4 1_555 1_555
C30_4 H20_4 1_555 1_555
C31_4 C30_4 1_555 1_555
H21_4 C31_4 1_555 1_555
C32_4 C31_4 1_555 1_555
C33_4 C32_4 1_555 1_555
H22_4 C33_4 1_555 1_555
C34_4 N4_4 1_555 1_555
H23_4 C34_4 1_555 1_555
C35_4 C29_4 1_555 1_555
C36_4 C14_4 1_555 1_555
H24_4 C36_4 1_555 1_555
Co10_2 N3_4 1_555 1_555
O6_4 Co10_2 1_555 1_555
H37_4 C56_4 1_555 1_555
H38_4 C57_4 1_555 1_555
Co11_2 N4_4 1_555 1_555
O9_4 Co11_2 1_555 1_555
O10_4 Co11_2 1_555 1_555
O11_2 C66_4 1_555 1_555
O18_2 C66_4 1_555 1_555
C59_4 O9_4 1_555 1_555
C60_4 C59_4 1_555 1_555
C61_4 C60_4 1_555 1_555
H39_4 C61_4 1_555 1_555
C62_4 C61_4 1_555 1_555
C63_4 C62_4 1_555 1_555
H40_4 C63_4 1_555 1_555
C64_4 C63_4 1_555 1_555
H41_4 C64_4 1_555 1_555
C65_4 C60_4 1_555 1_555
H42_4 C65_4 1_555 1_555
C66_4 C62_4 1_555 1_555
Co9_3 O11_2 1_555 1_555
O14_3 Co11_2 1_555 1_555
N8 Co11_2 1_555 1_555
C6_4 C7_4 1_555 1_555
C12_4 C13_4 1_555 1_555
C25_4 C28_4 1_555 1_555
C26_4 C27_4 1_555 1_555
C32_4 C35_4 1_555 1_555
C33_4 C34_4 1_555 1_555
C35_4 C36_4 1_555 1_555
C56_4 C57_4 1_555 1_555
O10_4 C59_4 1_555 1_555
C64_4 C65_4 1_555 1_555
O1_4 C1_4 1_555 1_555
O3_2 C8_4 1_555 1_555
O16_2 C8_4 1_555 1_555
C2_4 C1_4 1_555 1_555
C3_4 C2_4 1_555 1_555
H1_4 C3_4 1_555 1_555
C4_4 C3_4 1_555 1_555
C5_4 C4_4 1_555 1_555
H2_4 C5_4 1_555 1_555
C8_4 C4_4 1_555 1_555
C16_4 N2_4 1_555 1_555
H10_4 C16_4 1_555 1_555
C17_4 C16_4 1_555 1_555
H11_4 C17_4 1_555 1_555
C18_4 C17_4 1_555 1_555
C19_4 C18_4 1_555 1_555
H12_4 C19_4 1_555 1_555
C20_4 N2_4 1_555 1_555
H13_4 C20_4 1_555 1_555
C21_4 C18_4 1_555 1_555
C22_4 C21_4 1_555 1_555
H14_4 C22_4 1_555 1_555
N7 C37_4 1_555 1_555
C37_4 H25_4 1_555 1_555
C38_4 C37_4 1_555 1_555
H26_4 C38_4 1_555 1_555
C39_4 C38_4 1_555 1_555
C40_4 C39_4 1_555 1_555
H27_4 C40_4 1_555 1_555
C41_4 N7 1_555 1_555
H28_4 C41_4 1_555 1_555
C42_4 C39_4 1_555 1_555
C43_4 C21_4 1_555 1_555
H29_4 C43_4 1_555 1_555
N8 C44_4 1_555 1_555
C44_4 H30_4 1_555 1_555
C45_4 C44_4 1_555 1_555
H31_4 C45_4 1_555 1_555
C46_4 C45_4 1_555 1_555
C47_4 C46_4 1_555 1_555
H32_4 C47_4 1_555 1_555
C48_4 N8 1_555 1_555
H33_4 C48_4 1_555 1_555
C49_4 C22_4 1_555 1_555
C50_4 C42_4 1_555 1_555
H34_4 C50_4 1_555 1_555
Co10_3 O3_2 1_555 1_555
C19_4 C20_4 1_555 1_555
C40_4 C41_4 1_555 1_555
C42_4 C43_4 1_555 1_555
C46_4 C49_4 1_555 1_555
C47_4 C48_4 1_555 1_555
C49_4 C50_4 1_555 1_555
H36_5 C55_5 1_555 1_555
C56_5 C55_5 1_555 1_555
H37_5 C56_5 1_555 1_555
N3_5 C23_5 1_555 1_555
C23_5 H15_5 1_555 1_555
C24_5 C23_5 1_555 1_555
H16_5 C24_5 1_555 1_555
C25_5 C24_5 1_555 1_555
C26_5 C25_5 1_555 1_555
H17_5 C26_5 1_555 1_555
C27_5 N3_5 1_555 1_555
H18_5 C27_5 1_555 1_555
C29_5 C28_5 1_555 1_555
H19_5 C29_5 1_555 1_555
Co10 N3_5 1_555 1_555
O5_5 Co10 1_555 1_555
O6_5 Co10 1_555 1_555
O17 C58_5 1_555 1_555
C51_5 O5_5 1_555 1_555
C52_5 C51_5 1_555 1_555
C53_5 C52_5 1_555 1_555
H35_5 C53_5 1_555 1_555
C54_5 C53_5 1_555 1_555
C57_5 C52_5 1_555 1_555
H38_5 C57_5 1_555 1_555
C58_5 C54_5 1_555 1_555
O13_4 Co10 1_555 1_555
N7_2 Co10 1_555 1_555
C25_5 C28_5 1_555 1_555
C26_5 C27_5 1_555 1_555
O6_5 C51_5 1_555 1_555
H9_5 C15_5 1_555 1_555
H40_5 C63_5 1_555 1_555
C64_5 C63_5 1_555 1_555
H41_5 C64_5 1_555 1_555
N4_5 C30_5 1_555 1_555
C30_5 H20_5 1_555 1_555
C31_5 C30_5 1_555 1_555
H21_5 C31_5 1_555 1_555
C32_5 C31_5 1_555 1_555
C33_5 C32_5 1_555 1_555
C34_5 N4_5 1_555 1_555
H23_5 C34_5 1_555 1_555
Co11 N4_5 1_555 1_555
O9_5 Co11 1_555 1_555
O10_5 Co11 1_555 1_555
O18 C66_5 1_555 1_555
C59_5 O9_5 1_555 1_555
C60_5 C59_5 1_555 1_555
C61_5 C60_5 1_555 1_555
H39_5 C61_5 1_555 1_555
C62_5 C61_5 1_555 1_555
C65_5 C60_5 1_555 1_555
H42_5 C65_5 1_555 1_555
C66_5 C62_5 1_555 1_555
O14_4 Co11 1_555 1_555
N8_2 Co11 1_555 1_555
C32_5 C35_5 1_555 1_555
C33_5 C34_5 1_555 1_555
O10_5 C59_5 1_555 1_555
H2_5 C5_5 1_555 1_555
C6_5 C5_5 1_555 1_555
H3_5 C6_5 1_555 1_555
Co9 O1_5 1_555 1_555
O1_5 C1_5 1_555 1_555
O2_5 Co9 1_555 1_555
O16 C8_5 1_555 1_555
N1_5 Co9 1_555 1_555
N2_5 Co9 1_555 1_555
C1_5 O2_5 1_555 1_555
C2_5 C1_5 1_555 1_555
C3_5 C2_5 1_555 1_555
H1_5 C3_5 1_555 1_555
C4_5 C3_5 1_555 1_555
C7_5 C2_5 1_555 1_555
H4_5 C7_5 1_555 1_555
C8_5 C4_5 1_555 1_555
C9_5 N1_5 1_555 1_555
H5_5 C9_5 1_555 1_555
C10_5 C9_5 1_555 1_555
H6_5 C10_5 1_555 1_555
C11_5 C10_5 1_555 1_555
C12_5 C11_5 1_555 1_555
C13_5 N1_5 1_555 1_555
H8_5 C13_5 1_555 1_555
C14_5 C11_5 1_555 1_555
C16_5 N2_5 1_555 1_555
H10_5 C16_5 1_555 1_555
C17_5 C16_5 1_555 1_555
H11_5 C17_5 1_555 1_555
C18_5 C17_5 1_555 1_555
C19_5 C18_5 1_555 1_555
H12_5 C19_5 1_555 1_555
C20_5 N2_5 1_555 1_555
H13_5 C20_5 1_555 1_555
C21_5 C18_5 1_555 1_555
C22_5 C21_5 1_555 1_555
H14_5 C22_5 1_555 1_555
C36_5 C14_5 1_555 1_555
H24_5 C36_5 1_555 1_555
N7_2 C37_5 1_555 1_555
C37_5 H25_5 1_555 1_555
C38_5 C37_5 1_555 1_555
H26_5 C38_5 1_555 1_555
C39_5 C38_5 1_555 1_555
C40_5 C39_5 1_555 1_555
H27_5 C40_5 1_555 1_555
C41_5 N7_2 1_555 1_555
H28_5 C41_5 1_555 1_555
C42_5 C39_5 1_555 1_555
C43_5 C21_5 1_555 1_555
H29_5 C43_5 1_555 1_555
N8_2 C44_5 1_555 1_555
C44_5 H30_5 1_555 1_555
C45_5 C44_5 1_555 1_555
H31_5 C45_5 1_555 1_555
C46_5 C45_5 1_555 1_555
C47_5 C46_5 1_555 1_555
H32_5 C47_5 1_555 1_555
C48_5 N8_2 1_555 1_555
H33_5 C48_5 1_555 1_555
C49_5 C22_5 1_555 1_555
C50_5 C42_5 1_555 1_555
H34_5 C50_5 1_555 1_555
O15_4 Co9 1_555 1_555
C12_5 C13_5 1_555 1_555
C19_5 C20_5 1_555 1_555
C40_5 C41_5 1_555 1_555
C42_5 C43_5 1_555 1_555
C46_5 C49_5 1_555 1_555
C47_5 C48_5 1_555 1_555
C49_5 C50_5 1_555 1_555
O14_4 C58_6 1_555 1_555
O17_3 C58_6 1_555 1_555
C58_6 C54_6 1_555 1_555
Co9_3 O1_6 1_555 1_555
O1_6 C1_6 1_555 1_555
O2_6 Co9_3 1_555 1_555
O13_4 C8_6 1_555 1_555
O16_3 C8_6 1_555 1_555
N1_6 Co9_3 1_555 1_555
N2_6 Co9_3 1_555 1_555
C1_6 O2_6 1_555 1_555
C2_6 C1_6 1_555 1_555
C3_6 C2_6 1_555 1_555
H1_6 C3_6 1_555 1_555
C4_6 C3_6 1_555 1_555
C5_6 C4_6 1_555 1_555
H2_6 C5_6 1_555 1_555
C6_6 C5_6 1_555 1_555
H3_6 C6_6 1_555 1_555
C7_6 C2_6 1_555 1_555
H4_6 C7_6 1_555 1_555
C8_6 C4_6 1_555 1_555
C9_6 N1_6 1_555 1_555
H5_6 C9_6 1_555 1_555
C10_6 C9_6 1_555 1_555
H6_6 C10_6 1_555 1_555
C11_6 C10_6 1_555 1_555
C12_6 C11_6 1_555 1_555
H7_6 C12_6 1_555 1_555
C13_6 N1_6 1_555 1_555
H8_6 C13_6 1_555 1_555
C14_6 C11_6 1_555 1_555
C15_6 C14_6 1_555 1_555
H9_6 C15_6 1_555 1_555
C16_6 N2_6 1_555 1_555
H10_6 C16_6 1_555 1_555
C17_6 C16_6 1_555 1_555
H11_6 C17_6 1_555 1_555
C18_6 C17_6 1_555 1_555
C19_6 C18_6 1_555 1_555
H12_6 C19_6 1_555 1_555
C20_6 N2_6 1_555 1_555
H13_6 C20_6 1_555 1_555
C21_6 C18_6 1_555 1_555
C22_6 C21_6 1_555 1_555
H14_6 C22_6 1_555 1_555
N3_6 C23_6 1_555 1_555
C23_6 H15_6 1_555 1_555
C24_6 C23_6 1_555 1_555
H16_6 C24_6 1_555 1_555
C25_6 C24_6 1_555 1_555
C26_6 C25_6 1_555 1_555
H17_6 C26_6 1_555 1_555
C27_6 N3_6 1_555 1_555
H18_6 C27_6 1_555 1_555
C28_6 C15_6 1_555 1_555
C29_6 C28_6 1_555 1_555
H19_6 C29_6 1_555 1_555
N4_6 C30_6 1_555 1_555
C30_6 H20_6 1_555 1_555
C31_6 C30_6 1_555 1_555
H21_6 C31_6 1_555 1_555
C32_6 C31_6 1_555 1_555
C33_6 C32_6 1_555 1_555
H22_6 C33_6 1_555 1_555
C34_6 N4_6 1_555 1_555
H23_6 C34_6 1_555 1_555
C35_6 C29_6 1_555 1_555
C36_6 C14_6 1_555 1_555
H24_6 C36_6 1_555 1_555
Co10_3 N3_6 1_555 1_555
O5_6 Co10_3 1_555 1_555
O6_6 Co10_3 1_555 1_555
C51_6 O5_6 1_555 1_555
C52_6 C51_6 1_555 1_555
C53_6 C52_6 1_555 1_555
C56_6 C55_6 1_555 1_555
H37_6 C56_6 1_555 1_555
C57_6 C52_6 1_555 1_555
H38_6 C57_6 1_555 1_555
Co11_3 N4_6 1_555 1_555
O9_6 Co11_3 1_555 1_555
O10_6 Co11_3 1_555 1_555
C59_6 O9_6 1_555 1_555
C60_6 C59_6 1_555 1_555
C61_6 C60_6 1_555 1_555
C64_6 C63_6 1_555 1_555
H41_6 C64_6 1_555 1_555
C65_6 C60_6 1_555 1_555
H42_6 C65_6 1_555 1_555
N7_3 Co10_3 1_555 1_555
N8_3 Co11_3 1_555 1_555
C6_6 C7_6 1_555 1_555
C12_6 C13_6 1_555 1_555
C19_6 C20_6 1_555 1_555
C25_6 C28_6 1_555 1_555
C26_6 C27_6 1_555 1_555
C32_6 C35_6 1_555 1_555
C33_6 C34_6 1_555 1_555
C35_6 C36_6 1_555 1_555
O6_6 C51_6 1_555 1_555
C56_6 C57_6 1_555 1_555
O10_6 C59_6 1_555 1_555
C64_6 C65_6 1_555 1_555
N8_3 C44_6 1_555 1_555
C44_6 H30_6 1_555 1_555
C45_6 C44_6 1_555 1_555
C46_6 C45_6 1_555 1_555
C47_6 C46_6 1_555 1_555
H32_6 C47_6 1_555 1_555
C48_6 N8_3 1_555 1_555
H33_6 C48_6 1_555 1_555
C46_6 C49_6 1_555 1_555
C47_6 C48_6 1_555 1_555
H29_6 C43_6 1_555 1_555
O15_4 C66_6 1_555 1_555
O18_3 C66_6 1_555 1_555
C66_6 C62_6 1_555 1_555
N7_3 C37_6 1_555 1_555
C37_6 H25_6 1_555 1_555
C38_6 C37_6 1_555 1_555
C39_6 C38_6 1_555 1_555
C40_6 C39_6 1_555 1_555
H27_6 C40_6 1_555 1_555
C41_6 N7_3 1_555 1_555
H28_6 C41_6 1_555 1_555
C42_6 C39_6 1_555 1_555
C50_6 C42_6 1_555 1_555
H34_6 C50_6 1_555 1_555
C40_6 C41_6 1_555 1_555

#END
