
###############################################################################
#
# This file contains modified crystal structure data generated from the
# MOF subset of the Cambridge Structural Database (CSD) v543 
# hosted by the Cambridge Crystallographic Data Centre (CCDC).
#
# This work is licensed under the Creative Commons
# Attribution-NonCommercial-ShareAlike 4.0 International License.
# To view a copy of this license, visit
# http://creativecommons.org/licenses/by-nc-sa/4.0/
# or send a letter to
# Creative Commons, PO Box 1866, Mountain View, CA 94042, USA.
#
# CIF created using the CSD Python API on 29 September 2022
# The structure has been converted into the P1 space group
# The structure has a 3D framework
# The original CSD entry RALDIV is in the orthorhombic crystal system
# The framework has been calculated to contain at least 10.0% void space
# The void calculation uses a probe of radius 1.32A, grid spacing 0.4
# The framework is charged, counterions have been retained in the structure
#
###############################################################################

data_RALDIV
_chemical_formula_moiety         '(C224 H120 Eu8 N16 O90 4+)n'
_symmetry_cell_setting           triclinic
_symmetry_space_group_name_H-M   'P 1'
_symmetry_Int_Tables_number      1
_space_group_name_Hall           'P 1'
loop_
_symmetry_equiv_pos_site_id
_symmetry_equiv_pos_as_xyz
1 x,y,z
_cell_length_a                   27.0123(16)
_cell_length_b                   21.1322(11)
_cell_length_c                   11.5913(6)
_cell_angle_alpha                90
_cell_angle_beta                 90
_cell_angle_gamma                90
_cell_volume                     6616.65
loop_
_atom_site_label
_atom_site_type_symbol
_atom_site_fract_x
_atom_site_fract_y
_atom_site_fract_z
Eu1 Eu 0.2500 0.0000 0.44698(2)
O1 O 0.27627(11) 0.06600(13) 0.3004(2)
O2 O 0.32213(15) 0.15192(16) 0.2915(2)
H1 H 0.333(2) 0.157(3) 0.361(2)
C1 C 0.30391(14) 0.10361(17) 0.2474(3)
C2 C 0.31549(13) 0.09007(17) 0.1232(3)
C3 C 0.30770(13) 0.03006(17) 0.0784(3)
C7 C 0.33466(13) 0.13725(16) 0.0527(3)
H6 H 0.3399 0.1776 0.0821
H17 H 0.1873 0.0897 0.0618
H18 H 0.2047 0.0016 0.1260
H21 H 0.2101 0.1852 0.0070
O22 O 0.16969(10) 0.05401(13) 0.3958(2)
O23 O 0.02337(10) 0.19839(13) 0.3376(3)
C49 C 0.02487(14) 0.0409(2) 0.6354(4)
C50 C 0.07188(14) 0.02138(19) 0.6025(4)
C51 C 0.09561(13) 0.04794(18) 0.5079(3)
C52 C 0.07202(14) 0.09553(18) 0.4457(4)
H29 H 0.0880 0.1143 0.3833
C53 C 0.02520(14) 0.1149(2) 0.4761(4)
C54 C 0.00164(14) 0.0873(2) 0.5693(4)
C56 C 0.14608(13) 0.02630(17) 0.4749(3)
O28 O 0.24361(10) 0.08083(12) 0.5788(2)
O30 O 0.33414(9) 0.01856(12) 0.5305(2)
Eu2 Eu 0.44411(2) 0.2500 0.7500
O3 O 0.37865(10) 0.16283(13) 0.7604(2)
O4 O 0.38192(9) 0.22633(11) 0.9094(2)
O7 O 0.47413(11) 0.16839(13) 0.8716(2)
O8 O 0.53808(15) 0.15871(16) 0.9866(3)
C4 C 0.31811(13) 0.01637(16) 0.9632(3)
C5 C 0.33729(13) 0.06418(16) 0.8938(3)
H5 H 0.3443 0.0559 0.8168
C6 C 0.34601(13) 0.12407(16) 0.9382(3)
C8 C 0.36965(13) 0.17435(16) 0.8633(3)
C15 C 0.50967(15) 0.13801(19) 0.9128(3)
C16 C 0.51786(14) 0.07120(18) 0.8695(3)
C17 C 0.49027(14) 0.04649(19) 0.7793(3)
H10 H 0.4649 0.0702 0.7466
C20 C 0.55339(17) 0.0341(2) 0.9196(4)
H12 H 0.5725 0.0493 0.9804
H13 H 0.4122 0.0101 0.6447
O17 O 0.23934(18) 0.18246(14) 0.6061(3)
N3 N 0.19503(14) 0.09545(14) 0.9906(3)
C37 C 0.19312(14) 0.04735(17) 0.9159(3)
C38 C 0.2090(2) 0.15222(19) 0.9539(4)
C39 C 0.22183(18) 0.16482(18) 0.8419(3)
H22 H 0.2321 0.2051 0.8199
C40 C 0.21922(14) 0.11634(16) 0.7625(3)
C41 C 0.20488(13) 0.05671(16) 0.8003(3)
H23 H 0.2032 0.0232 0.7485
C42 C 0.23449(16) 0.12748(17) 0.6391(4)
O25 O 0.37865(10) 0.33717(13) 0.7396(2)
O26 O 0.38192(9) 0.27367(11) 0.5906(2)
O29 O 0.47413(11) 0.33161(13) 0.6284(2)
O32 O 0.52337(10) 0.19839(13) 0.6624(3)
O33 O 0.52337(10) 0.30161(13) 0.8376(3)
O34 O 0.45358(10) 0.17369(15) 0.5814(3)
O35 O 0.45358(10) 0.32631(15) 0.9186(3)
Eu1_2 Eu 0.2500 1.0000 0.44698(2)
H2 H 0.3127 0.9103 0.0618
H4 H 0.2953 0.9984 0.1260
H7 H 0.2899 0.8148 0.0070
O13 O 0.22373(11) 0.93400(13) 0.3004(2)
O14 O 0.17787(15) 0.84808(16) 0.2915(2)
H16 H 0.167(2) 0.843(3) 0.361(2)
C29 C 0.19609(14) 0.89639(17) 0.2474(3)
C30 C 0.18451(13) 0.90993(17) 0.1232(3)
C31 C 0.19230(13) 0.96994(17) 0.0784(3)
C35 C 0.16534(13) 0.86275(16) 0.0527(3)
H20 H 0.1601 0.8224 0.0821
O19 O 0.02587(11) 0.83161(13) 0.8716(2)
O21 O 0.16586(9) 0.98144(12) 0.5305(2)
C45 C 0.00973(14) 0.95351(19) 0.7793(3)
H25 H 0.0351 0.9298 0.7466
H28 H 0.0878 0.9899 0.6447
Eu5 Eu 0.05589(2) 0.7500 0.7500
O27 O 0.25639(10) 0.91917(12) 0.5788(2)
O31 O 0.33031(10) 0.94599(13) 0.3958(2)
O5 O 0.26066(18) 0.81754(14) 0.6061(3)
O11 O 0.47663(10) 0.80161(13) 0.3376(3)
O12 O 0.54642(10) 0.82631(15) 0.4186(3)
N1 N 0.30497(14) 0.90455(14) 0.9906(3)
N2 N 0.53528(14) 0.95061(18) 0.7885(4)
H3 H 0.5413 0.9131 0.7634
C9 C 0.30688(14) 0.95265(17) 0.9159(3)
C10 C 0.2910(2) 0.84778(19) 0.9539(4)
C11 C 0.27817(18) 0.83518(18) 0.8419(3)
H8 H 0.2679 0.7949 0.8199
C12 C 0.28078(14) 0.88366(16) 0.7625(3)
C13 C 0.29512(13) 0.94329(16) 0.8003(3)
H9 H 0.2968 0.9768 0.7485
C14 C 0.26551(16) 0.87252(17) 0.6391(4)
C18 C 0.50063(14) 0.98650(19) 0.7383(4)
C19 C 0.56014(18) 0.9738(2) 0.8777(5)
H11 H 0.5833 0.9479 0.9138
C21 C 0.47513(14) 0.9591(2) 0.6354(4)
C22 C 0.42812(14) 0.97862(19) 0.6025(4)
C23 C 0.40439(13) 0.95206(18) 0.5079(3)
C24 C 0.42798(14) 0.90447(18) 0.4457(4)
H14 H 0.4120 0.8857 0.3833
C25 C 0.47480(14) 0.8851(2) 0.4761(4)
C26 C 0.49836(14) 0.9127(2) 0.5693(4)
H15 H 0.5303 0.9001 0.5881
C27 C 0.50096(14) 0.8342(2) 0.4072(4)
C28 C 0.35392(13) 0.97370(17) 0.4749(3)
O15 O 0.12135(10) 0.83717(13) 0.7604(2)
O16 O 0.11808(9) 0.77367(11) 0.9094(2)
C32 C 0.18189(13) 0.98363(16) 0.9632(3)
C33 C 0.16271(13) 0.93582(16) 0.8938(3)
H19 H 0.1557 0.9441 0.8168
C34 C 0.15399(13) 0.87593(16) 0.9382(3)
C36 C 0.13035(13) 0.82565(16) 0.8633(3)
Eu6 Eu 0.55589(2) 0.7500 0.2500
O24 O 0.95358(10) 0.17369(15) 0.4186(3)
N4 N 0.96472(14) 0.04939(18) 0.7885(4)
H24 H 0.9587 0.0869 0.7634
C46 C 0.99937(14) 0.01350(19) 0.7383(4)
C47 C 0.93986(18) 0.0262(2) 0.8777(5)
H26 H 0.9167 0.0521 0.9138
H30 H 0.9697 0.0999 0.5881
C55 C 0.99904(14) 0.1658(2) 0.4072(4)
Eu7 Eu 0.94411(2) 0.2500 0.2500
O20 O 0.96192(15) 0.84129(16) 0.9866(3)
C43 C 0.99033(15) 0.86199(19) 0.9128(3)
C44 C 0.98214(14) 0.92880(18) 0.8695(3)
C48 C 0.94661(17) 0.9659(2) 0.9196(4)
H27 H 0.9275 0.9507 0.9804
O25_2 O 0.12135(10) 0.66283(13) 0.7396(2)
O26_2 O 0.11808(9) 0.72633(11) 0.5906(2)
O29_2 O 0.02587(11) 0.66839(13) 0.6284(2)
O34_2 O 0.04642(10) 0.82631(15) 0.5814(3)
O35_2 O 0.04642(10) 0.67369(15) 0.9186(3)
O32_2 O 0.97663(10) 0.80161(13) 0.6624(3)
O33_2 O 0.97663(10) 0.69839(13) 0.8376(3)
O10 O 0.16969(10) 0.44599(13) 0.1042(2)
O11_2 O 0.02337(10) 0.30161(13) 0.1624(3)
C24_2 C 0.07202(14) 0.40447(18) 0.0543(4)
H14_2 H 0.0880 0.3857 0.1167
C25_2 C 0.02520(14) 0.3851(2) 0.0239(4)
C28_2 C 0.14608(13) 0.47370(17) 0.0251(3)
Eu3 Eu 0.2500 0.5000 0.05302(2)
O1_2 O 0.22373(11) 0.56600(13) 0.1996(2)
O2_2 O 0.17787(15) 0.65192(16) 0.2085(2)
H1_2 H 0.167(2) 0.657(3) 0.139(2)
O5_2 O 0.23934(18) 0.31754(14) 0.8939(3)
O6 O 0.24361(10) 0.41917(12) 0.9212(2)
O9 O 0.16586(9) 0.51856(12) 0.9695(2)
N1_2 N 0.19503(14) 0.40455(14) 0.5094(3)
H2_2 H 0.1873 0.4103 0.4382
C1_2 C 0.19609(14) 0.60361(17) 0.2526(3)
C2_2 C 0.18451(13) 0.59007(17) 0.3768(3)
C3_2 C 0.19230(13) 0.53006(17) 0.4216(3)
H4_2 H 0.2047 0.4984 0.3740
C4_2 C 0.18189(13) 0.51637(16) 0.5368(3)
C5_2 C 0.16271(13) 0.56418(16) 0.6062(3)
H5_2 H 0.1557 0.5559 0.6832
C6_2 C 0.15399(13) 0.62407(16) 0.5618(3)
C7_2 C 0.16534(13) 0.63725(16) 0.4473(3)
H6_2 H 0.1601 0.6776 0.4179
C8_2 C 0.13035(13) 0.67435(16) 0.6367(3)
C9_2 C 0.19312(14) 0.45265(17) 0.5841(3)
C10_2 C 0.2090(2) 0.34778(19) 0.5461(4)
H7_2 H 0.2101 0.3148 0.4930
C11_2 C 0.22183(18) 0.33518(18) 0.6581(3)
H8_2 H 0.2321 0.2949 0.6801
C12_2 C 0.21922(14) 0.38366(16) 0.7375(3)
C13_2 C 0.20488(13) 0.44329(16) 0.6997(3)
H9_2 H 0.2032 0.4768 0.7515
C14_2 C 0.23449(16) 0.37252(17) 0.8609(4)
C17_2 C 0.00973(14) 0.54649(19) 0.7207(3)
H10_2 H 0.0351 0.5702 0.7534
C21_2 C 0.02487(14) 0.4591(2) 0.8646(4)
C22_2 C 0.07188(14) 0.47862(19) 0.8975(4)
H13_2 H 0.0878 0.5101 0.8553
C23_2 C 0.09561(13) 0.45206(18) 0.9921(3)
C26_2 C 0.00164(14) 0.4127(2) 0.9307(4)
O13_2 O 0.27627(11) 0.43400(13) 0.1996(2)
O14_2 O 0.32213(15) 0.34808(16) 0.2085(2)
H16_2 H 0.333(2) 0.343(3) 0.139(2)
O17_2 O 0.26066(18) 0.68246(14) 0.8939(3)
O18 O 0.25639(10) 0.58083(12) 0.9212(2)
N3_2 N 0.30497(14) 0.59545(14) 0.5094(3)
H17_2 H 0.3127 0.5897 0.4382
C29_2 C 0.30391(14) 0.39639(17) 0.2526(3)
C30_2 C 0.31549(13) 0.40993(17) 0.3768(3)
C31_2 C 0.30770(13) 0.46994(17) 0.4216(3)
H18_2 H 0.2953 0.5016 0.3740
C32_2 C 0.31811(13) 0.48363(16) 0.5368(3)
C33_2 C 0.33729(13) 0.43582(16) 0.6062(3)
H19_2 H 0.3443 0.4441 0.6832
C34_2 C 0.34601(13) 0.37593(16) 0.5618(3)
C35_2 C 0.33466(13) 0.36275(16) 0.4473(3)
H20_2 H 0.3399 0.3224 0.4179
C36_2 C 0.36965(13) 0.32565(16) 0.6367(3)
C37_2 C 0.30688(14) 0.54735(17) 0.5841(3)
C38_2 C 0.2910(2) 0.65222(19) 0.5461(4)
H21_2 H 0.2899 0.6852 0.4930
C39_2 C 0.27817(18) 0.66482(18) 0.6581(3)
H22_2 H 0.2679 0.7051 0.6801
C40_2 C 0.28078(14) 0.61634(16) 0.7375(3)
C41_2 C 0.29512(13) 0.55671(16) 0.6997(3)
H23_2 H 0.2968 0.5232 0.7515
C42_2 C 0.26551(16) 0.62748(17) 0.8609(4)
O22_2 O 0.33031(10) 0.55401(13) 0.1042(2)
O23_2 O 0.47663(10) 0.69839(13) 0.1624(3)
O24_2 O 0.54642(10) 0.67369(15) 0.0814(3)
C52_2 C 0.42798(14) 0.59553(18) 0.0543(4)
H29_2 H 0.4120 0.6143 0.1167
C53_2 C 0.47480(14) 0.6149(2) 0.0239(4)
C55_2 C 0.50096(14) 0.6658(2) 0.0928(4)
C56_2 C 0.35392(13) 0.52630(17) 0.0251(3)
O20_2 O 0.53808(15) 0.34129(16) 0.5134(3)
O21_2 O 0.33414(9) 0.48144(12) 0.9695(2)
N4_2 N 0.53528(14) 0.54939(18) 0.7115(4)
H24_2 H 0.5413 0.5869 0.7366
C43_2 C 0.50967(15) 0.36199(19) 0.5872(3)
C44_2 C 0.51786(14) 0.42880(18) 0.6305(3)
C45_2 C 0.49027(14) 0.45351(19) 0.7207(3)
H25_2 H 0.4649 0.4298 0.7534
C46_2 C 0.50063(14) 0.51350(19) 0.7617(4)
C47_2 C 0.56014(18) 0.5262(2) 0.6223(5)
H26_2 H 0.5833 0.5521 0.5862
C48_2 C 0.55339(17) 0.4659(2) 0.5804(4)
H27_2 H 0.5725 0.4507 0.5196
C49_2 C 0.47513(14) 0.5409(2) 0.8646(4)
C50_2 C 0.42812(14) 0.52138(19) 0.8975(4)
H28_2 H 0.4122 0.4899 0.8553
C51_2 C 0.40439(13) 0.54794(18) 0.9921(3)
C54_2 C 0.49836(14) 0.5873(2) 0.9307(4)
H30_2 H 0.5303 0.5999 0.9119
O12_2 O 0.95358(10) 0.32631(15) 0.0814(3)
C27_2 C 0.99904(14) 0.3342(2) 0.0928(4)
O8_2 O 0.96192(15) 0.65871(16) 0.5134(3)
N2_2 N 0.96472(14) 0.45061(18) 0.7115(4)
H3_2 H 0.9587 0.4131 0.7366
C15_2 C 0.99033(15) 0.63801(19) 0.5872(3)
C16_2 C 0.98214(14) 0.57120(18) 0.6305(3)
C18_2 C 0.99937(14) 0.48650(19) 0.7617(4)
C19_2 C 0.93986(18) 0.4738(2) 0.6223(5)
H11_2 H 0.9167 0.4479 0.5862
C20_2 C 0.94661(17) 0.5341(2) 0.5804(4)
H12_2 H 0.9275 0.5493 0.5196
H15_2 H 0.9697 0.4001 0.9119
O20_3 O 0.03808(15) 0.15871(16) 0.0134(3)
C43_3 C 0.00967(15) 0.13801(19) 0.0872(3)
C44_3 C 0.01786(14) 0.07120(18) 0.1305(3)
C48_3 C 0.05339(17) 0.0341(2) 0.0804(4)
H27_3 H 0.0725 0.0493 0.0196
N4_3 N 0.03528(14) 0.95061(18) 0.2115(4)
H24_3 H 0.0413 0.9131 0.2366
C46_3 C 0.00063(14) 0.98650(19) 0.2617(4)
C47_3 C 0.06014(18) 0.9738(2) 0.1223(5)
H26_3 H 0.0833 0.9479 0.0862
H30_3 H 0.0303 0.9001 0.4119
C55_3 C 0.00096(14) 0.8342(2) 0.5928(4)
O5_3 O 0.73934(18) 0.18246(14) 0.3939(3)
O6_2 O 0.74361(10) 0.08083(12) 0.4212(2)
O10_2 O 0.66969(10) 0.05401(13) 0.6042(2)
N1_3 N 0.69503(14) 0.09545(14) 0.0094(3)
N2_3 N 0.46472(14) 0.04939(18) 0.2115(4)
H3_3 H 0.4587 0.0869 0.2366
C9_3 C 0.69312(14) 0.04735(17) 0.0841(3)
C10_3 C 0.7090(2) 0.15222(19) 0.0461(4)
C11_3 C 0.72183(18) 0.16482(18) 0.1581(3)
H8_3 H 0.7321 0.2051 0.1801
C12_3 C 0.71922(14) 0.11634(16) 0.2375(3)
C13_3 C 0.70488(13) 0.05671(16) 0.1997(3)
H9_3 H 0.7032 0.0232 0.2515
C14_3 C 0.73449(16) 0.12748(17) 0.3609(4)
C18_3 C 0.49937(14) 0.01350(19) 0.2617(4)
C19_3 C 0.43986(18) 0.0262(2) 0.1223(5)
H11_3 H 0.4167 0.0521 0.0862
C21_3 C 0.52487(14) 0.0409(2) 0.3646(4)
C22_3 C 0.57188(14) 0.02138(19) 0.3975(4)
C23_3 C 0.59561(13) 0.04794(18) 0.4921(3)
C24_3 C 0.57202(14) 0.09553(18) 0.5543(4)
H14_3 H 0.5880 0.1143 0.6167
C25_3 C 0.52520(14) 0.1149(2) 0.5239(4)
C26_3 C 0.50164(14) 0.0873(2) 0.4307(4)
H15_3 H 0.4697 0.0999 0.4119
C27_3 C 0.49904(14) 0.1658(2) 0.5928(4)
C28_3 C 0.64608(13) 0.02630(17) 0.5251(3)
O15_2 O 0.87865(10) 0.16283(13) 0.2396(2)
O16_2 O 0.88192(9) 0.22633(11) 0.0906(2)
C32_3 C 0.81811(13) 0.01637(16) 0.0368(3)
C33_3 C 0.83729(13) 0.06418(16) 0.1062(3)
H19_3 H 0.8443 0.0559 0.1832
C34_3 C 0.84601(13) 0.12407(16) 0.0618(3)
C36_3 C 0.86965(13) 0.17435(16) 0.1367(3)
Eu3_2 Eu 0.7500 -0.0000 0.55302(2)
H2_3 H 0.6873 0.0897 0.9382
H4_3 H 0.7047 0.0016 0.8740
H7_3 H 0.7101 0.1852 0.9930
O13_3 O 0.77627(11) 0.06600(13) 0.6996(2)
O14_3 O 0.82213(15) 0.15192(16) 0.7085(2)
H16_3 H 0.833(2) 0.157(3) 0.639(2)
C29_3 C 0.80391(14) 0.10361(17) 0.7526(3)
C30_3 C 0.81549(13) 0.09007(17) 0.8768(3)
C31_3 C 0.80770(13) 0.03006(17) 0.9216(3)
C35_3 C 0.83466(13) 0.13725(16) 0.9473(3)
H20_3 H 0.8399 0.1776 0.9179
O19_2 O 0.97413(11) 0.16839(13) 0.1284(2)
O21_3 O 0.83414(9) 0.01856(12) 0.4695(2)
C45_3 C 0.99027(14) 0.04649(19) 0.2207(3)
H25_3 H 0.9649 0.0702 0.2534
H28_3 H 0.9122 0.0101 0.3553
O3_2 O 0.62135(10) 0.83717(13) 0.2396(2)
O4_2 O 0.61808(9) 0.77367(11) 0.0906(2)
O7_2 O 0.52587(11) 0.83161(13) 0.1284(2)
O8_3 O 0.46192(15) 0.84129(16) 0.0134(3)
O9_2 O 0.66586(9) 0.98144(12) 0.4695(2)
C4_3 C 0.68189(13) 0.98363(16) 0.0368(3)
C5_3 C 0.66271(13) 0.93582(16) 0.1062(3)
H5_3 H 0.6557 0.9441 0.1832
C6_3 C 0.65399(13) 0.87593(16) 0.0618(3)
C8_3 C 0.63035(13) 0.82565(16) 0.1367(3)
C15_3 C 0.49033(15) 0.86199(19) 0.0872(3)
C16_3 C 0.48214(14) 0.92880(18) 0.1305(3)
C17_3 C 0.50973(14) 0.95351(19) 0.2207(3)
H10_3 H 0.5351 0.9298 0.2534
C20_3 C 0.44661(17) 0.9659(2) 0.0804(4)
H12_3 H 0.4275 0.9507 0.0196
H13_3 H 0.5878 0.9899 0.3553
O17_3 O 0.76066(18) 0.81754(14) 0.3939(3)
O18_2 O 0.75639(10) 0.91917(12) 0.4212(2)
N3_3 N 0.80497(14) 0.90455(14) 0.0094(3)
C37_3 C 0.80688(14) 0.95265(17) 0.0841(3)
C38_3 C 0.7910(2) 0.84778(19) 0.0461(4)
C39_3 C 0.77817(18) 0.83518(18) 0.1581(3)
H22_3 H 0.7679 0.7949 0.1801
C40_3 C 0.78078(14) 0.88366(16) 0.2375(3)
C41_3 C 0.79512(13) 0.94329(16) 0.1997(3)
H23_3 H 0.7968 0.9768 0.2515
C42_3 C 0.76551(16) 0.87252(17) 0.3609(4)
Eu3_3 Eu 0.7500 1.0000 0.55302(2)
O25_3 O 0.62135(10) 0.66283(13) 0.2604(2)
O26_3 O 0.61808(9) 0.72633(11) 0.4094(2)
O29_3 O 0.52587(11) 0.66839(13) 0.3716(2)
O1_3 O 0.72373(11) 0.93400(13) 0.6996(2)
O2_3 O 0.67787(15) 0.84808(16) 0.7085(2)
H1_3 H 0.667(2) 0.843(3) 0.639(2)
C1_3 C 0.69609(14) 0.89639(17) 0.7526(3)
C2_3 C 0.68451(13) 0.90993(17) 0.8768(3)
C3_3 C 0.69230(13) 0.96994(17) 0.9216(3)
C7_3 C 0.66534(13) 0.86275(16) 0.9473(3)
H6_3 H 0.6601 0.8224 0.9179
H17_3 H 0.8127 0.9103 0.9382
H18_3 H 0.7953 0.9984 0.8740
H21_3 H 0.7899 0.8148 0.9930
O22_3 O 0.83031(10) 0.94599(13) 0.6042(2)
C49_3 C 0.97513(14) 0.9591(2) 0.3646(4)
C50_3 C 0.92812(14) 0.97862(19) 0.3975(4)
C51_3 C 0.90439(13) 0.95206(18) 0.4921(3)
C52_3 C 0.92798(14) 0.90447(18) 0.5543(4)
H29_3 H 0.9120 0.8857 0.6167
C53_3 C 0.97480(14) 0.8851(2) 0.5239(4)
C54_3 C 0.99836(14) 0.9127(2) 0.4307(4)
C56_3 C 0.85392(13) 0.97370(17) 0.5251(3)
O25_4 O 0.87865(10) 0.33717(13) 0.2604(2)
O26_4 O 0.88192(9) 0.27367(11) 0.4094(2)
O29_4 O 0.97413(11) 0.33161(13) 0.3716(2)
O8_4 O 0.03808(15) 0.34129(16) 0.4866(3)
N2_4 N 0.03528(14) 0.54939(18) 0.2885(4)
H3_4 H 0.0413 0.5869 0.2634
C15_4 C 0.00967(15) 0.36199(19) 0.4128(3)
C16_4 C 0.01786(14) 0.42880(18) 0.3695(3)
C18_4 C 0.00063(14) 0.51350(19) 0.2383(4)
C19_4 C 0.06014(18) 0.5262(2) 0.3777(5)
H11_4 H 0.0833 0.5521 0.4138
C20_4 C 0.05339(17) 0.4659(2) 0.4196(4)
H12_4 H 0.0725 0.4507 0.4804
H15_4 H 0.0303 0.5999 0.0881
C27_4 C 0.00096(14) 0.6658(2) 0.9072(4)
O20_4 O 0.46192(15) 0.65871(16) 0.4866(3)
O21_4 O 0.66586(9) 0.51856(12) 0.0305(2)
N4_4 N 0.46472(14) 0.45061(18) 0.2885(4)
H24_4 H 0.4587 0.4131 0.2634
C43_4 C 0.49033(15) 0.63801(19) 0.4128(3)
C44_4 C 0.48214(14) 0.57120(18) 0.3695(3)
C45_4 C 0.50973(14) 0.54649(19) 0.2793(3)
H25_4 H 0.5351 0.5702 0.2466
C46_4 C 0.49937(14) 0.48650(19) 0.2383(4)
C47_4 C 0.43986(18) 0.4738(2) 0.3777(5)
H26_4 H 0.4167 0.4479 0.4138
C48_4 C 0.44661(17) 0.5341(2) 0.4196(4)
H27_4 H 0.4275 0.5493 0.4804
C49_4 C 0.52487(14) 0.4591(2) 0.1354(4)
C50_4 C 0.57188(14) 0.47862(19) 0.1025(4)
H28_4 H 0.5878 0.5101 0.1447
C51_4 C 0.59561(13) 0.45206(18) 0.0079(3)
C54_4 C 0.50164(14) 0.4127(2) 0.0693(4)
H30_4 H 0.4697 0.4001 0.0881
O27_2 O 0.75639(10) 0.58083(12) 0.0788(2)
O28_2 O 0.74361(10) 0.41917(12) 0.0788(2)
O30_2 O 0.83414(9) 0.48144(12) 0.0305(2)
Eu1_3 Eu 0.7500 0.5000 0.94698(2)
O1_4 O 0.77627(11) 0.43400(13) 0.8004(2)
O2_4 O 0.82213(15) 0.34808(16) 0.7915(2)
H1_4 H 0.833(2) 0.343(3) 0.861(2)
O5_4 O 0.76066(18) 0.68246(14) 0.1061(3)
N1_4 N 0.80497(14) 0.59545(14) 0.4906(3)
H2_4 H 0.8127 0.5897 0.5618
C1_4 C 0.80391(14) 0.39639(17) 0.7474(3)
C2_4 C 0.81549(13) 0.40993(17) 0.6232(3)
C3_4 C 0.80770(13) 0.46994(17) 0.5784(3)
H4_4 H 0.7953 0.5016 0.6260
C4_4 C 0.81811(13) 0.48363(16) 0.4632(3)
C5_4 C 0.83729(13) 0.43582(16) 0.3938(3)
H5_4 H 0.8443 0.4441 0.3168
C6_4 C 0.84601(13) 0.37593(16) 0.4382(3)
C7_4 C 0.83466(13) 0.36275(16) 0.5527(3)
H6_4 H 0.8399 0.3224 0.5821
C8_4 C 0.86965(13) 0.32565(16) 0.3633(3)
C9_4 C 0.80688(14) 0.54735(17) 0.4159(3)
C10_4 C 0.7910(2) 0.65222(19) 0.4539(4)
H7_4 H 0.7899 0.6852 0.5070
C11_4 C 0.77817(18) 0.66482(18) 0.3419(3)
H8_4 H 0.7679 0.7051 0.3199
C12_4 C 0.78078(14) 0.61634(16) 0.2625(3)
C13_4 C 0.79512(13) 0.55671(16) 0.3003(3)
H9_4 H 0.7968 0.5232 0.2485
C14_4 C 0.76551(16) 0.62748(17) 0.1391(4)
C17_4 C 0.99027(14) 0.45351(19) 0.2793(3)
H10_4 H 0.9649 0.4298 0.2466
C21_4 C 0.97513(14) 0.5409(2) 0.1354(4)
C22_4 C 0.92812(14) 0.52138(19) 0.1025(4)
H13_4 H 0.9122 0.4899 0.1447
C23_4 C 0.90439(13) 0.54794(18) 0.0079(3)
C26_4 C 0.99836(14) 0.5873(2) 0.0693(4)
O13_4 O 0.72373(11) 0.56600(13) 0.8004(2)
O14_4 O 0.67787(15) 0.65192(16) 0.7915(2)
H16_4 H 0.667(2) 0.657(3) 0.861(2)
O17_4 O 0.73934(18) 0.31754(14) 0.1061(3)
N3_4 N 0.69503(14) 0.40455(14) 0.4906(3)
H17_4 H 0.6873 0.4103 0.5618
C29_4 C 0.69609(14) 0.60361(17) 0.7474(3)
C30_4 C 0.68451(13) 0.59007(17) 0.6232(3)
C31_4 C 0.69230(13) 0.53006(17) 0.5784(3)
H18_4 H 0.7047 0.4984 0.6260
C32_4 C 0.68189(13) 0.51637(16) 0.4632(3)
C33_4 C 0.66271(13) 0.56418(16) 0.3938(3)
H19_4 H 0.6557 0.5559 0.3168
C34_4 C 0.65399(13) 0.62407(16) 0.4382(3)
C35_4 C 0.66534(13) 0.63725(16) 0.5527(3)
H20_4 H 0.6601 0.6776 0.5821
C36_4 C 0.63035(13) 0.67435(16) 0.3633(3)
C37_4 C 0.69312(14) 0.45265(17) 0.4159(3)
C38_4 C 0.7090(2) 0.34778(19) 0.4539(4)
H21_4 H 0.7101 0.3148 0.5070
C39_4 C 0.72183(18) 0.33518(18) 0.3419(3)
H22_4 H 0.7321 0.2949 0.3199
C40_4 C 0.71922(14) 0.38366(16) 0.2625(3)
C41_4 C 0.70488(13) 0.44329(16) 0.3003(3)
H23_4 H 0.7032 0.4768 0.2485
C42_4 C 0.73449(16) 0.37252(17) 0.1391(4)
O22_4 O 0.66969(10) 0.44599(13) 0.8958(2)
C52_4 C 0.57202(14) 0.40447(18) 0.9457(4)
H29_4 H 0.5880 0.3857 0.8833
C53_4 C 0.52520(14) 0.3851(2) 0.9761(4)
C55_4 C 0.49904(14) 0.3342(2) 0.9072(4)
C56_4 C 0.64608(13) 0.47370(17) 0.9749(3)
O31_2 O 0.83031(10) 0.55401(13) 0.8958(2)
C24_4 C 0.92798(14) 0.59553(18) 0.9457(4)
H14_4 H 0.9120 0.6143 0.8833
C25_4 C 0.97480(14) 0.6149(2) 0.9761(4)
C28_4 C 0.85392(13) 0.52630(17) 0.9749(3)
loop_
_geom_bond_atom_site_label_1
_geom_bond_atom_site_label_2
_geom_bond_site_symmetry_1
_geom_bond_site_symmetry_2
Eu1 O1 1_555 1_555
O1 C1 1_555 1_555
O2 H1 1_555 1_555
C1 O2 1_555 1_555
C2 C1 1_555 1_555
C3 C2 1_555 1_555
C7 C2 1_555 1_555
H6 C7 1_555 1_555
O22 Eu1 1_555 1_555
C50 C49 1_555 1_555
C51 C50 1_555 1_555
C52 C51 1_555 1_555
H29 C52 1_555 1_555
C53 C52 1_555 1_555
C54 C49 1_555 1_555
O28 Eu1 1_555 1_555
O30 Eu1 1_555 1_555
O22 C56 1_555 1_555
C51 C56 1_555 1_555
C53 C54 1_555 1_555
Eu2 O3 1_555 1_555
O3 C8 1_555 1_555
O4 Eu2 1_555 1_555
O7 Eu2 1_555 1_555
O8 C15 1_555 1_555
C5 C4 1_555 1_555
H5 C5 1_555 1_555
C6 C5 1_555 1_555
C8 O4 1_555 1_555
C15 O7 1_555 1_555
C16 C15 1_555 1_555
C17 C16 1_555 1_555
H10 C17 1_555 1_555
C20 C16 1_555 1_555
H12 C20 1_555 1_555
O17 C42 1_555 1_555
O28 C42 1_555 1_555
C37 N3 1_555 1_555
C38 N3 1_555 1_555
C39 C38 1_555 1_555
H22 C39 1_555 1_555
C40 C39 1_555 1_555
C41 C37 1_555 1_555
H23 C41 1_555 1_555
C42 C40 1_555 1_555
O25 Eu2 1_555 1_555
O26 Eu2 1_555 1_555
O29 Eu2 1_555 1_555
O32 Eu2 1_555 1_555
O33 Eu2 1_555 1_555
O34 Eu2 1_555 1_555
O35 Eu2 1_555 1_555
C6 C8 1_555 1_555
C40 C41 1_555 1_555
O13 Eu1_2 1_555 1_555
O14 H16 1_555 1_555
C29 O13 1_555 1_555
C30 C29 1_555 1_555
C31 C30 1_555 1_555
C35 C30 1_555 1_555
H20 C35 1_555 1_555
O21 Eu1_2 1_555 1_555
C45 H25 1_555 1_555
Eu5 O19 1_555 1_555
O27 Eu1_2 1_555 1_555
O31 Eu1_2 1_555 1_555
O14 C29 1_555 1_555
O5 C14 1_555 1_555
O27 C14 1_555 1_555
O31 C28 1_555 1_555
O11 C27 1_555 1_555
O12 C27 1_555 1_555
N2 H3 1_555 1_555
C9 N1 1_555 1_555
C10 N1 1_555 1_555
C11 C10 1_555 1_555
H8 C11 1_555 1_555
C12 C11 1_555 1_555
C13 C9 1_555 1_555
H9 C13 1_555 1_555
C14 C12 1_555 1_555
C18 N2 1_555 1_555
C19 N2 1_555 1_555
H11 C19 1_555 1_555
C21 C18 1_555 1_555
C22 C21 1_555 1_555
C23 C22 1_555 1_555
C24 C23 1_555 1_555
H14 C24 1_555 1_555
C25 C24 1_555 1_555
C26 C21 1_555 1_555
H15 C26 1_555 1_555
C27 C25 1_555 1_555
C28 C23 1_555 1_555
O15 C36 1_555 1_555
O16 C36 1_555 1_555
C33 C32 1_555 1_555
H19 C33 1_555 1_555
C34 C33 1_555 1_555
C36 C34 1_555 1_555
Eu5 O15 1_555 1_555
Eu6 O11 1_555 1_555
O12 Eu6 1_555 1_555
C12 C13 1_555 1_555
C25 C26 1_555 1_555
O16 Eu5 1_555 1_555
O24 C55 1_555 1_555
N4 H24 1_555 1_555
C46 N4 1_555 1_555
C47 N4 1_555 1_555
H26 C47 1_555 1_555
O24 Eu7 1_555 1_555
O20 C43 1_555 1_555
C43 C44 1_555 1_555
C48 C44 1_555 1_555
H27 C48 1_555 1_555
O25_2 Eu5 1_555 1_555
O26_2 Eu5 1_555 1_555
O29_2 Eu5 1_555 1_555
O34_2 Eu5 1_555 1_555
O35_2 Eu5 1_555 1_555
O10 C28_2 1_555 1_555
H14_2 C24_2 1_555 1_555
C25_2 C24_2 1_555 1_555
O10 Eu3 1_555 1_555
Eu3 O1_2 1_555 1_555
O1_2 C1_2 1_555 1_555
O2_2 H1_2 1_555 1_555
O25_2 C8_2 1_555 1_555
O5_2 C14_2 1_555 1_555
O6 C14_2 1_555 1_555
N1_2 H2_2 1_555 1_555
C1_2 O2_2 1_555 1_555
C2_2 C1_2 1_555 1_555
C3_2 C2_2 1_555 1_555
H4_2 C3_2 1_555 1_555
C4_2 C3_2 1_555 1_555
C5_2 C4_2 1_555 1_555
H5_2 C5_2 1_555 1_555
C6_2 C5_2 1_555 1_555
C7_2 C2_2 1_555 1_555
H6_2 C7_2 1_555 1_555
C8_2 O26_2 1_555 1_555
C9_2 N1_2 1_555 1_555
C10_2 N1_2 1_555 1_555
H7_2 C10_2 1_555 1_555
C11_2 C10_2 1_555 1_555
H8_2 C11_2 1_555 1_555
C12_2 C11_2 1_555 1_555
C13_2 C9_2 1_555 1_555
H9_2 C13_2 1_555 1_555
C14_2 C12_2 1_555 1_555
H10_2 C17_2 1_555 1_555
C22_2 C21_2 1_555 1_555
H13_2 C22_2 1_555 1_555
C23_2 C22_2 1_555 1_555
C26_2 C21_2 1_555 1_555
O13_2 Eu3 1_555 1_555
O14_2 H16_2 1_555 1_555
O25 C36_2 1_555 1_555
O26 C36_2 1_555 1_555
O17_2 C42_2 1_555 1_555
O18 C42_2 1_555 1_555
N3_2 H17_2 1_555 1_555
C29_2 O13_2 1_555 1_555
C30_2 C29_2 1_555 1_555
C31_2 C30_2 1_555 1_555
H18_2 C31_2 1_555 1_555
C32_2 C31_2 1_555 1_555
C33_2 C32_2 1_555 1_555
H19_2 C33_2 1_555 1_555
C34_2 C33_2 1_555 1_555
C35_2 C30_2 1_555 1_555
H20_2 C35_2 1_555 1_555
C36_2 C34_2 1_555 1_555
C37_2 N3_2 1_555 1_555
C38_2 N3_2 1_555 1_555
H21_2 C38_2 1_555 1_555
C39_2 C38_2 1_555 1_555
H22_2 C39_2 1_555 1_555
C40_2 C39_2 1_555 1_555
C41_2 C37_2 1_555 1_555
H23_2 C41_2 1_555 1_555
C42_2 C40_2 1_555 1_555
O22_2 Eu3 1_555 1_555
O23_2 C55_2 1_555 1_555
O24_2 C55_2 1_555 1_555
H29_2 C52_2 1_555 1_555
C53_2 C52_2 1_555 1_555
C55_2 C53_2 1_555 1_555
Eu6 O23_2 1_555 1_555
C4_2 C9_2 1_555 1_555
C6_2 C7_2 1_555 1_555
C6_2 C8_2 1_555 1_555
C12_2 C13_2 1_555 1_555
O14_2 C29_2 1_555 1_555
C32_2 C37_2 1_555 1_555
C34_2 C35_2 1_555 1_555
C40_2 C41_2 1_555 1_555
O22_2 C56_2 1_555 1_555
O24_2 Eu6 1_555 1_555
O29 C43_2 1_555 1_555
O20_2 C43_2 1_555 1_555
N4_2 H24_2 1_555 1_555
C43_2 C44_2 1_555 1_555
C44_2 C45_2 1_555 1_555
C45_2 H25_2 1_555 1_555
C46_2 N4_2 1_555 1_555
C47_2 N4_2 1_555 1_555
H26_2 C47_2 1_555 1_555
C48_2 C44_2 1_555 1_555
H27_2 C48_2 1_555 1_555
C49_2 C46_2 1_555 1_555
C50_2 C49_2 1_555 1_555
H28_2 C50_2 1_555 1_555
C51_2 C50_2 1_555 1_555
C54_2 C49_2 1_555 1_555
H30_2 C54_2 1_555 1_555
C45_2 C46_2 1_555 1_555
C47_2 C48_2 1_555 1_555
O12_2 C27_2 1_555 1_555
O12_2 Eu7 1_555 1_555
O8_2 C15_2 1_555 1_555
N2_2 H3_2 1_555 1_555
C16_2 C15_2 1_555 1_555
C18_2 N2_2 1_555 1_555
C19_2 N2_2 1_555 1_555
H11_2 C19_2 1_555 1_555
C20_2 C16_2 1_555 1_555
H12_2 C20_2 1_555 1_555
C19_2 C20_2 1_555 1_555
O20_3 C43_3 1_555 1_555
C43_3 C44_3 1_555 1_555
C48_3 C44_3 1_555 1_555
H27_3 C48_3 1_555 1_555
O34_2 C55_3 1_555 1_555
N4_3 H24_3 1_555 1_555
C46_3 N4_3 1_555 1_555
C47_3 N4_3 1_555 1_555
H26_3 C47_3 1_555 1_555
O5_3 C14_3 1_555 1_555
O6_2 C14_3 1_555 1_555
O10_2 C28_3 1_555 1_555
O32 C27_3 1_555 1_555
O34 C27_3 1_555 1_555
N2_3 H3_3 1_555 1_555
C9_3 N1_3 1_555 1_555
C10_3 N1_3 1_555 1_555
C11_3 C10_3 1_555 1_555
H8_3 C11_3 1_555 1_555
C12_3 C11_3 1_555 1_555
C13_3 C9_3 1_555 1_555
H9_3 C13_3 1_555 1_555
C14_3 C12_3 1_555 1_555
C18_3 N2_3 1_555 1_555
C19_3 N2_3 1_555 1_555
H11_3 C19_3 1_555 1_555
C21_3 C18_3 1_555 1_555
C22_3 C21_3 1_555 1_555
C23_3 C22_3 1_555 1_555
C24_3 C23_3 1_555 1_555
H14_3 C24_3 1_555 1_555
C25_3 C24_3 1_555 1_555
C26_3 C21_3 1_555 1_555
H15_3 C26_3 1_555 1_555
C27_3 C25_3 1_555 1_555
C28_3 C23_3 1_555 1_555
O15_2 C36_3 1_555 1_555
O16_2 C36_3 1_555 1_555
C33_3 C32_3 1_555 1_555
H19_3 C33_3 1_555 1_555
C34_3 C33_3 1_555 1_555
C36_3 C34_3 1_555 1_555
Eu3_2 O6_2 1_555 1_555
Eu7 O15_2 1_555 1_555
O10_2 Eu3_2 1_555 1_555
C12_3 C13_3 1_555 1_555
C25_3 C26_3 1_555 1_555
O16_2 Eu7 1_555 1_555
O13_3 Eu3_2 1_555 1_555
O14_3 H16_3 1_555 1_555
C29_3 O13_3 1_555 1_555
C30_3 C29_3 1_555 1_555
C31_3 C30_3 1_555 1_555
C35_3 C30_3 1_555 1_555
H20_3 C35_3 1_555 1_555
O21_3 Eu3_2 1_555 1_555
C45_3 H25_3 1_555 1_555
Eu7 O19_2 1_555 1_555
O14_3 C29_3 1_555 1_555
Eu6 O3_2 1_555 1_555
O3_2 C8_3 1_555 1_555
O4_2 Eu6 1_555 1_555
O7_2 Eu6 1_555 1_555
O8_3 C15_3 1_555 1_555
C5_3 C4_3 1_555 1_555
H5_3 C5_3 1_555 1_555
C6_3 C5_3 1_555 1_555
C8_3 O4_2 1_555 1_555
C15_3 O7_2 1_555 1_555
C16_3 C15_3 1_555 1_555
C17_3 C16_3 1_555 1_555
H10_3 C17_3 1_555 1_555
C20_3 C16_3 1_555 1_555
H12_3 C20_3 1_555 1_555
O17_3 C42_3 1_555 1_555
O18_2 C42_3 1_555 1_555
C37_3 N3_3 1_555 1_555
C38_3 N3_3 1_555 1_555
C39_3 C38_3 1_555 1_555
H22_3 C39_3 1_555 1_555
C40_3 C39_3 1_555 1_555
C41_3 C37_3 1_555 1_555
H23_3 C41_3 1_555 1_555
C42_3 C40_3 1_555 1_555
O25_3 Eu6 1_555 1_555
O26_3 Eu6 1_555 1_555
O29_3 Eu6 1_555 1_555
O9_2 Eu3_3 1_555 1_555
C6_3 C8_3 1_555 1_555
O18_2 Eu3_3 1_555 1_555
C40_3 C41_3 1_555 1_555
Eu3_3 O1_3 1_555 1_555
O1_3 C1_3 1_555 1_555
O2_3 H1_3 1_555 1_555
C1_3 O2_3 1_555 1_555
C2_3 C1_3 1_555 1_555
C3_3 C2_3 1_555 1_555
C7_3 C2_3 1_555 1_555
H6_3 C7_3 1_555 1_555
O22_3 Eu3_3 1_555 1_555
C50_3 C49_3 1_555 1_555
C51_3 C50_3 1_555 1_555
C52_3 C51_3 1_555 1_555
H29_3 C52_3 1_555 1_555
C53_3 C52_3 1_555 1_555
C54_3 C49_3 1_555 1_555
O22_3 C56_3 1_555 1_555
C51_3 C56_3 1_555 1_555
C53_3 C54_3 1_555 1_555
O25_4 Eu7 1_555 1_555
O26_4 Eu7 1_555 1_555
O29_4 Eu7 1_555 1_555
O8_4 C15_4 1_555 1_555
N2_4 H3_4 1_555 1_555
C16_4 C15_4 1_555 1_555
C18_4 N2_4 1_555 1_555
C19_4 N2_4 1_555 1_555
H11_4 C19_4 1_555 1_555
C20_4 C16_4 1_555 1_555
H12_4 C20_4 1_555 1_555
C19_4 C20_4 1_555 1_555
O35_2 C27_4 1_555 1_555
O29_3 C43_4 1_555 1_555
O20_4 C43_4 1_555 1_555
N4_4 H24_4 1_555 1_555
C43_4 C44_4 1_555 1_555
C44_4 C45_4 1_555 1_555
C45_4 H25_4 1_555 1_555
C46_4 N4_4 1_555 1_555
C47_4 N4_4 1_555 1_555
H26_4 C47_4 1_555 1_555
C48_4 C44_4 1_555 1_555
H27_4 C48_4 1_555 1_555
C49_4 C46_4 1_555 1_555
C50_4 C49_4 1_555 1_555
H28_4 C50_4 1_555 1_555
C51_4 C50_4 1_555 1_555
C54_4 C49_4 1_555 1_555
H30_4 C54_4 1_555 1_555
C45_4 C46_4 1_555 1_555
C47_4 C48_4 1_555 1_555
Eu1_3 O1_4 1_555 1_555
O1_4 C1_4 1_555 1_555
O2_4 H1_4 1_555 1_555
O25_4 C8_4 1_555 1_555
O5_4 C14_4 1_555 1_555
O27_2 C14_4 1_555 1_555
N1_4 H2_4 1_555 1_555
C1_4 O2_4 1_555 1_555
C2_4 C1_4 1_555 1_555
C3_4 C2_4 1_555 1_555
H4_4 C3_4 1_555 1_555
C4_4 C3_4 1_555 1_555
C5_4 C4_4 1_555 1_555
H5_4 C5_4 1_555 1_555
C6_4 C5_4 1_555 1_555
C7_4 C2_4 1_555 1_555
H6_4 C7_4 1_555 1_555
C8_4 O26_4 1_555 1_555
C9_4 N1_4 1_555 1_555
C10_4 N1_4 1_555 1_555
H7_4 C10_4 1_555 1_555
C11_4 C10_4 1_555 1_555
H8_4 C11_4 1_555 1_555
C12_4 C11_4 1_555 1_555
C13_4 C9_4 1_555 1_555
H9_4 C13_4 1_555 1_555
C14_4 C12_4 1_555 1_555
H10_4 C17_4 1_555 1_555
C22_4 C21_4 1_555 1_555
H13_4 C22_4 1_555 1_555
C23_4 C22_4 1_555 1_555
C26_4 C21_4 1_555 1_555
O13_4 Eu1_3 1_555 1_555
O14_4 H16_4 1_555 1_555
O25_3 C36_4 1_555 1_555
O26_3 C36_4 1_555 1_555
O17_4 C42_4 1_555 1_555
O28_2 C42_4 1_555 1_555
N3_4 H17_4 1_555 1_555
C29_4 O13_4 1_555 1_555
C30_4 C29_4 1_555 1_555
C31_4 C30_4 1_555 1_555
H18_4 C31_4 1_555 1_555
C32_4 C31_4 1_555 1_555
C33_4 C32_4 1_555 1_555
H19_4 C33_4 1_555 1_555
C34_4 C33_4 1_555 1_555
C35_4 C30_4 1_555 1_555
H20_4 C35_4 1_555 1_555
C36_4 C34_4 1_555 1_555
C37_4 N3_4 1_555 1_555
C38_4 N3_4 1_555 1_555
H21_4 C38_4 1_555 1_555
C39_4 C38_4 1_555 1_555
H22_4 C39_4 1_555 1_555
C40_4 C39_4 1_555 1_555
C41_4 C37_4 1_555 1_555
H23_4 C41_4 1_555 1_555
C42_4 C40_4 1_555 1_555
O22_4 Eu1_3 1_555 1_555
O33 C55_4 1_555 1_555
O35 C55_4 1_555 1_555
H29_4 C52_4 1_555 1_555
C53_4 C52_4 1_555 1_555
C55_4 C53_4 1_555 1_555
O31_2 Eu1_3 1_555 1_555
C4_4 C9_4 1_555 1_555
C6_4 C7_4 1_555 1_555
C6_4 C8_4 1_555 1_555
C12_4 C13_4 1_555 1_555
O14_4 C29_4 1_555 1_555
C32_4 C37_4 1_555 1_555
C34_4 C35_4 1_555 1_555
C40_4 C41_4 1_555 1_555
O22_4 C56_4 1_555 1_555
O31_2 C28_4 1_555 1_555
H14_4 C24_4 1_555 1_555
C25_4 C24_4 1_555 1_555

#END
