
###############################################################################
#
# This file contains modified crystal structure data generated from the
# MOF subset of the Cambridge Structural Database (CSD) v543 
# hosted by the Cambridge Crystallographic Data Centre (CCDC).
#
# This work is licensed under the Creative Commons
# Attribution-NonCommercial-ShareAlike 4.0 International License.
# To view a copy of this license, visit
# http://creativecommons.org/licenses/by-nc-sa/4.0/
# or send a letter to
# Creative Commons, PO Box 1866, Mountain View, CA 94042, USA.
#
# CIF created using the CSD Python API on 29 September 2022
# The structure has been converted into the P1 space group
# The structure has a 3D framework
# The original CSD entry RALFIX is in the rhombohedral crystal system
# The framework has been calculated to contain at least 10.0% void space
# The void calculation uses a probe of radius 1.32A, grid spacing 0.4
# H atom positions have been added when not included in the experimental data
#
###############################################################################

data_RALFIX
_chemical_formula_moiety         '(C396 H252 Co18 N36 O86)n'
_symmetry_cell_setting           triclinic
_symmetry_space_group_name_H-M   'P 1'
_symmetry_Int_Tables_number      1
_space_group_name_Hall           'P 1'
loop_
_symmetry_equiv_pos_site_id
_symmetry_equiv_pos_as_xyz
1 x,y,z
_cell_length_a                   27.0648(13)
_cell_length_b                   27.0648(13)
_cell_length_c                   22.965(3)
_cell_angle_alpha                90
_cell_angle_beta                 90
_cell_angle_gamma                120
_cell_volume                     14568.2
loop_
_atom_site_label
_atom_site_type_symbol
_atom_site_fract_x
_atom_site_fract_y
_atom_site_fract_z
C25 C 0.05875(13) 0.03429(18) 0.41935(17)
H16 H 0.098245 0.057322 0.419335
H17 H 0.134807 0.005701 0.368455
N4 N 0.10150(16) 0.24187(11) 0.42168(15)
C30 C 0.12389(21) 0.21499(14) 0.45163(18)
H19 H 0.156813 0.236841 0.473321
C31 C 0.05378(21) 0.20876(14) 0.3912(2)
H20 H 0.037574 0.226330 0.369956
C33 C 0.02767(21) 0.15022(14) 0.3897(2)
C34 C 0.10023(19) 0.15649(13) 0.45162(19)
H23 H 0.117356 0.139842 0.472877
C35 C 0.02475(18) 0.05931(12) 0.41936(17)
C36 C 0.05143(18) 0.12270(13) 0.42030(17)
Co5 Co 0.14402(3) 0.33390(2) 0.41956(2)
N3 N 0.14037(12) 0.89850(16) 0.42168(15)
C23 C 0.09110(15) 0.87611(21) 0.45163(18)
H14 H 0.080028 0.843187 0.473321
C24 C 0.15498(15) 0.94622(21) 0.3912(2)
H15 H 0.188756 0.962426 0.369956
C26 C 0.12255(15) 0.97233(21) 0.3897(2)
C27 C 0.05626(14) 0.89977(19) 0.45162(19)
H18 H 0.022486 0.882644 0.472877
C28 C 0.03456(13) 0.97525(18) 0.41936(17)
C29 C 0.07127(13) 0.94857(18) 0.42030(17)
Co4 Co 0.18988(2) 0.85598(3) 0.41956(2)
C32 C 0.96571(18) 0.02446(13) 0.41935(17)
H21 H 0.942678 0.040923 0.419335
H22 H 0.994299 0.129106 0.368455
O8 O 0.47880(11) 0.00733(16) 0.18077(15)
O10 O 0.4282(2) 0.0396(4) 0.3856(2)
C57 C 0.42621(18) 0.01831(35) 0.2860(3)
H36 H 0.465629 0.041697 0.284494
C58 C 0.3990(2) 0.0122(4) 0.3375(3)
Co8 Co 0.47735(3) 0.00057(2) 0.08623(2)
H41 H 0.423562 0.0112502 0.415702
Co1 Co 0.66610(2) 0.81012(2) 0.41956(2)
O1 O 0.58946(13) 0.59716(12) 0.13330(14)
O2 O 0.67029(11) 0.77614(10) 0.34328(13)
O3 O 0.52853(12) 0.52120(11) 0.18077(15)
O4 O 0.66362(10) 0.77914(10) 0.24811(12)
O5 O 0.6114(4) 0.5718(2) 0.3856(2)
N1 N 0.75813(11) 0.85963(12) 0.42168(15)
N2 N 0.57503(11) 0.76794(11) 0.41685(15)
C1 C 0.54892(15) 0.79234(16) 0.4425(2)
H1 H 0.571070 0.827191 0.461039
C2 C 0.54130(14) 0.71796(14) 0.3905(2)
H2 H 0.558528 0.699686 0.372469
C3 C 0.49030(15) 0.76855(16) 0.4430(2)
H3 H 0.473975 0.787035 0.462416
C4 C 0.78501(14) 0.90890(15) 0.45163(18)
H4 H 0.763159 0.919972 0.473321
C5 C 0.48321(14) 0.69216(15) 0.3885(2)
H5 H 0.462088 0.657497 0.369331
C6 C 0.79124(14) 0.84502(15) 0.3912(2)
H6 H 0.773670 0.811244 0.369956
C7 C 0.36781(13) 0.72580(14) 0.4142(2)
H7 H 0.390875 0.765292 0.414136
C8 C 0.97554(13) 0.94125(13) 0.41935(17)
H8 H 0.959077 0.901755 0.419335
C9 C 0.39273(13) 0.69131(13) 0.41427(19)
C10 C 0.56920(16) 0.57180(16) 0.1799(2)
C11 C 0.84978(14) 0.87745(15) 0.3897(2)
H9 H 0.870894 0.865193 0.368455
C12 C 0.84351(13) 0.94374(14) 0.45162(19)
H10 H 0.860158 0.977514 0.472877
C13 C 0.59345(16) 0.60193(15) 0.2369(2)
C14 C 0.63720(15) 0.68988(13) 0.29097(17)
C15 C 0.45597(13) 0.71766(13) 0.41506(18)
C16 C 0.94069(12) 0.96544(13) 0.41936(17)
C17 C 0.65849(12) 0.75278(13) 0.29465(18)
C18 C 0.87730(13) 0.92873(13) 0.42030(17)
C19 C 0.61655(14) 0.66122(14) 0.23881(17)
H11 H 0.618004 0.681158 0.205266
C20 C 0.6358(2) 0.66062(18) 0.3412(2)
H12 H 0.649484 0.679765 0.376303
C21 C 0.5921(3) 0.57379(18) 0.2860(3)
H13 H 0.576068 0.534371 0.284494
C22 C 0.6132(3) 0.6010(2) 0.3375(3)
N5 N 0.23206(11) 0.80709(16) 0.41685(15)
C37 C 0.20766(16) 0.75658(22) 0.4425(2)
H24 H 0.172809 0.743879 0.461039
C38 C 0.28204(14) 0.82334(20) 0.3905(2)
H25 H 0.300314 0.858842 0.372469
C39 C 0.23145(16) 0.72175(22) 0.4430(2)
H26 H 0.212965 0.686940 0.462416
C40 C 0.30784(15) 0.79105(21) 0.3885(2)
H27 H 0.342503 0.804591 0.369331
C41 C 0.27420(14) 0.64201(19) 0.4142(2)
H28 H 0.234708 0.625583 0.414136
C42 C 0.30869(13) 0.70142(18) 0.41427(19)
C43 C 0.28234(13) 0.73831(18) 0.41506(18)
N6 N 0.19291(16) 0.42497(11) 0.41685(15)
C44 C 0.24342(22) 0.45108(15) 0.4425(2)
H29 H 0.256121 0.428930 0.461039
C45 C 0.17666(20) 0.45870(14) 0.3905(2)
H30 H 0.141158 0.441472 0.372469
C46 C 0.27825(22) 0.50970(15) 0.4430(2)
H31 H 0.313060 0.526025 0.462416
C47 C 0.20895(21) 0.51679(14) 0.3885(2)
H32 H 0.195409 0.537912 0.369331
C48 C 0.35799(19) 0.63219(13) 0.4142(2)
H33 H 0.374417 0.609125 0.414136
C49 C 0.29858(18) 0.60727(13) 0.41427(19)
C50 C 0.26169(18) 0.54403(13) 0.41506(18)
O6 O 0.40284(12) 0.99230(18) 0.13330(14)
O7 O 0.22386(10) 0.89415(15) 0.34328(13)
O9 O 0.22086(10) 0.88448(14) 0.24811(12)
C51 C 0.42820(16) 0.99740(23) 0.1799(2)
C52 C 0.39807(15) 0.99152(22) 0.2369(2)
C53 C 0.31012(13) 0.94732(20) 0.29097(17)
C54 C 0.24722(13) 0.90571(18) 0.29465(18)
C55 C 0.33878(14) 0.95533(20) 0.23881(17)
H34 H 0.318842 0.936846 0.205266
C56 C 0.33938(18) 0.97518(27) 0.3412(2)
H35 H 0.320235 0.969719 0.376303
O11 O 0.00770(18) 0.41054(13) 0.13330(14)
O12 O 0.10585(15) 0.32971(11) 0.34328(13)
O14 O 0.11552(14) 0.33638(10) 0.24811(12)
C59 C 0.00260(23) 0.43080(16) 0.1799(2)
C60 C 0.00848(22) 0.40655(16) 0.2369(2)
C61 C 0.05268(20) 0.36280(15) 0.29097(17)
C62 C 0.09429(18) 0.34151(12) 0.29465(18)
C63 C 0.04467(20) 0.38345(14) 0.23881(17)
H37 H 0.063154 0.381996 0.205266
C64 C 0.02482(27) 0.3642(2) 0.3412(2)
H38 H 0.030281 0.350516 0.376303
Co7 Co 0.52321(2) 0.52265(3) 0.08623(2)
Co9 Co 0.66723(2) 0.85655(2) 0.24711(2)
Co10 Co 0.14345(2) 0.81069(3) 0.24711(2)
Co11 Co 0.18931(3) 0.33277(2) 0.24711(2)
O16 O 0.25613(13) 0.93049(12) 0.46663(14)
O17 O 0.06951(12) 0.32563(18) 0.46663(14)
O18 O 0.67437(18) 0.74387(13) 0.46663(14)
O19 O 0.19520(12) 0.85453(11) 0.51410(15)
O20 O 0.14547(11) 0.34066(16) 0.51410(15)
O21 O 0.65934(16) 0.80480(12) 0.51410(15)
O22 O 0.66971(10) 0.88753(10) 0.41856(12)
O23 O 0.11247(10) 0.78219(14) 0.41856(12)
O24 O 0.21781(14) 0.33029(10) 0.41856(12)
H40 H 0.587688 0.576438 0.415702
O13 O 0.99267(16) 0.47147(12) 0.18077(15)
O15 O 0.9604(4) 0.3886(4) 0.3856(2)
C65 C 0.98169(35) 0.4079(3) 0.2860(3)
H39 H 0.958303 0.423932 0.284494
C66 C 0.9878(4) 0.3868(3) 0.3375(3)
Co6 Co 0.99943(2) 0.47679(2) 0.08623(2)
H42 H 0.98875 0.412312 0.415702
Co1_2 Co 0.33277(2) 0.14345(2) 0.75289(2)
O2_2 O 0.33696(11) 0.10947(10) 0.67661(13)
O4_2 O 0.33029(10) 0.11247(10) 0.58144(12)
N1_2 N 0.42480(11) 0.19296(12) 0.75501(15)
N2_2 N 0.24170(11) 0.10127(11) 0.75018(15)
C1_2 C 0.21559(15) 0.12567(16) 0.7758(2)
H1_2 H 0.237737 0.160524 0.794372
C2_2 C 0.20797(14) 0.05129(14) 0.7238(2)
H2_2 H 0.225195 0.033019 0.705802
C3_2 C 0.15697(15) 0.10188(16) 0.7763(2)
H3_2 H 0.140642 0.120368 0.795749
C4_2 C 0.45168(14) 0.24223(15) 0.78496(18)
H4_2 H 0.429826 0.253305 0.806654
C5_2 C 0.14988(14) 0.02549(15) 0.7218(2)
C6_2 C 0.45791(14) 0.17835(15) 0.7245(2)
H6_2 H 0.440337 0.144577 0.703289
C7_2 C 0.03448(13) 0.05913(14) 0.7475(2)
H7_2 H 0.057542 0.098625 0.747469
C8_2 C 0.64221(13) 0.27458(13) 0.75268(17)
H8_2 H 0.625744 0.235088 0.752668
C9_2 C 0.05940(13) 0.02464(13) 0.74760(19)
C11_2 C 0.51645(14) 0.21078(15) 0.7230(2)
H9_2 H 0.537561 0.198526 0.701788
C12_2 C 0.51018(13) 0.27707(14) 0.78495(19)
H10_2 H 0.526825 0.310847 0.806210
C14_2 C 0.30387(15) 0.02321(13) 0.62430(17)
C15_2 C 0.12264(13) 0.05099(13) 0.74839(18)
C16_2 C 0.60736(12) 0.29877(13) 0.75269(17)
C17_2 C 0.32516(12) 0.08611(13) 0.62798(18)
C18_2 C 0.54397(13) 0.26206(13) 0.75363(17)
H11_2 H 0.284671 0.014491 0.538599
H12_2 H 0.316151 0.013098 0.709636
N3_2 N 0.80704(12) 0.23183(16) 0.75501(15)
C23_2 C 0.75777(15) 0.20944(21) 0.78496(18)
H14_2 H 0.746695 0.176520 0.806654
C24_2 C 0.82165(15) 0.27955(21) 0.7245(2)
H15_2 H 0.855423 0.295759 0.703289
C25_2 C 0.72542(13) 0.36762(18) 0.75268(17)
H16_2 H 0.764912 0.390655 0.752668
C26_2 C 0.78922(15) 0.30566(21) 0.7230(2)
H17_2 H 0.801474 0.339034 0.701788
C27_2 C 0.72293(14) 0.23310(19) 0.78495(19)
H18_2 H 0.689153 0.215977 0.806210
C28_2 C 0.70123(13) 0.30858(18) 0.75269(17)
C29_2 C 0.73794(13) 0.28190(18) 0.75363(17)
N4_2 N 0.76817(16) 0.57520(11) 0.75501(15)
C30_2 C 0.79056(21) 0.54832(14) 0.78496(18)
H19_2 H 0.823480 0.570174 0.806654
C31_2 C 0.72045(21) 0.54209(14) 0.7245(2)
H20_2 H 0.704241 0.559663 0.703289
C32_2 C 0.63238(18) 0.35779(13) 0.75268(17)
H21_2 H 0.609345 0.374256 0.752668
C33_2 C 0.69434(21) 0.48355(14) 0.7230(2)
H22_2 H 0.660966 0.462439 0.701788
C34_2 C 0.76690(19) 0.48982(13) 0.78495(19)
H23_2 H 0.784023 0.473175 0.806210
C35_2 C 0.69142(18) 0.39264(12) 0.75269(17)
C36_2 C 0.71810(18) 0.45603(13) 0.75363(17)
H27_2 H 0.009170 0.137924 0.702664
O10_2 O 0.0949(2) 0.3729(4) 0.7189(2)
C51_2 C 0.09487(16) 0.33073(23) 0.5132(2)
C52_2 C 0.06474(15) 0.32485(22) 0.5702(2)
C55_2 C 0.00545(14) 0.28866(20) 0.57214(17)
C56_2 C 0.00605(18) 0.30851(27) 0.6745(2)
C57_2 C 0.09288(18) 0.35164(35) 0.6193(3)
H36_2 H 0.132296 0.375030 0.617827
C58_2 C 0.0657(2) 0.3455(4) 0.6708(3)
Co4_2 Co 0.85655(2) 0.18931(3) 0.75289(2)
Co5_2 Co 0.81069(3) 0.66723(2) 0.75289(2)
Co9_2 Co 0.33390(2) 0.18988(2) 0.58044(2)
O18_2 O 0.34103(18) 0.07721(13) 0.79997(14)
O21_2 O 0.32600(16) 0.13814(12) 0.84744(15)
O22_2 O 0.33638(10) 0.22086(10) 0.75189(12)
H41_2 H 0.0902287 0.344584 0.749035
O5_2 O 0.2781(4) 0.9051(2) 0.7189(2)
H5_2 H 0.128755 0.990830 0.702664
C10_2 C 0.23587(16) 0.90513(16) 0.5132(2)
C13_2 C 0.26012(16) 0.93526(15) 0.5702(2)
C19_2 C 0.28322(14) 0.99455(14) 0.57214(17)
C20_2 C 0.3025(2) 0.99395(18) 0.6745(2)
C21_2 C 0.2588(3) 0.90712(18) 0.6193(3)
H13_2 H 0.242735 0.867704 0.617827
C22_2 C 0.2799(3) 0.9343(2) 0.6708(3)
C48_2 C 0.02466(19) 0.96552(13) 0.7475(2)
H33_2 H 0.041084 0.942458 0.747469
H40_2 H 0.254355 0.909771 0.749035
N5_2 N 0.89873(11) 0.14042(16) 0.75018(15)
C37_2 C 0.87433(16) 0.08991(22) 0.7758(2)
H24_2 H 0.839476 0.077212 0.794372
C38_2 C 0.94871(14) 0.15667(20) 0.7238(2)
H25_2 H 0.966981 0.192175 0.705802
C39_2 C 0.89812(16) 0.05508(22) 0.7763(2)
H26_2 H 0.879632 0.020273 0.795749
C40_2 C 0.97451(15) 0.12438(21) 0.7218(2)
C42_2 C 0.97536(13) 0.03475(18) 0.74760(19)
C43_2 C 0.94901(13) 0.07164(18) 0.74839(18)
O7_2 O 0.89053(10) 0.22748(15) 0.67661(13)
O9_2 O 0.88753(10) 0.21781(14) 0.58144(12)
C53_2 C 0.97679(13) 0.28065(20) 0.62430(17)
C54_2 C 0.91389(13) 0.23904(18) 0.62798(18)
H34_2 H 0.985509 0.270179 0.538599
H35_2 H 0.986902 0.303052 0.709636
Co10_2 Co 0.81012(2) 0.14402(3) 0.58044(2)
O16_2 O 0.92279(13) 0.26383(12) 0.79997(14)
O19_2 O 0.86186(12) 0.18787(11) 0.84744(15)
O23_2 O 0.77914(10) 0.11552(14) 0.75189(12)
C41_2 C 0.94087(14) 0.97534(19) 0.7475(2)
H28_2 H 0.901375 0.958916 0.747469
N6_2 N 0.85958(16) 0.75830(11) 0.75018(15)
C44_2 C 0.91009(22) 0.78441(15) 0.7758(2)
H29_2 H 0.922788 0.762263 0.794372
C45_2 C 0.84333(20) 0.79203(14) 0.7238(2)
H30_2 H 0.807825 0.774805 0.705802
C46_2 C 0.94492(22) 0.84303(15) 0.7763(2)
H31_2 H 0.979727 0.859358 0.795749
C47_2 C 0.87562(21) 0.85012(14) 0.7218(2)
H32_2 H 0.862076 0.871245 0.702664
C49_2 C 0.96525(18) 0.94060(13) 0.74760(19)
C50_2 C 0.92836(18) 0.87736(13) 0.74839(18)
O12_2 O 0.77252(15) 0.66304(11) 0.67661(13)
O14_2 O 0.78219(14) 0.66971(10) 0.58144(12)
O15_2 O 0.6271(4) 0.7219(4) 0.7189(2)
C59_2 C 0.66927(23) 0.76413(16) 0.5132(2)
C60_2 C 0.67515(22) 0.73988(16) 0.5702(2)
C61_2 C 0.71935(20) 0.69613(15) 0.62430(17)
C62_2 C 0.76096(18) 0.67484(12) 0.62798(18)
C63_2 C 0.71134(20) 0.71678(14) 0.57214(17)
H37_2 H 0.729821 0.715329 0.538599
C64_2 C 0.69149(27) 0.6975(2) 0.6745(2)
H38_2 H 0.696948 0.683849 0.709636
C65_2 C 0.64836(35) 0.7412(3) 0.6193(3)
H39_2 H 0.624970 0.757265 0.617827
C66_2 C 0.6545(4) 0.7201(3) 0.6708(3)
Co11_2 Co 0.85598(3) 0.66610(2) 0.58044(2)
O17_2 O 0.73617(12) 0.65897(18) 0.79997(14)
O20_2 O 0.81213(11) 0.67400(16) 0.84744(15)
O24_2 O 0.88448(14) 0.66362(10) 0.75189(12)
H42_2 H 0.655416 0.745645 0.749035
O2_3 O 0.00362(11) 0.44281(10) 0.00995(13)
N1_3 N 0.09146(11) 0.52630(12) 0.08835(15)
C4_3 C 0.11834(14) 0.57557(15) 0.11830(18)
H4_3 H 0.096492 0.586639 0.139988
C6_3 C 0.12457(14) 0.51169(15) 0.0579(2)
H6_3 H 0.107003 0.477911 0.036623
C8_3 C 0.30887(13) 0.60792(13) 0.08602(17)
H8_3 H 0.292410 0.568422 0.086002
C11_3 C 0.18311(14) 0.54412(15) 0.0564(2)
H9_3 H 0.204227 0.531860 0.035122
C12_3 C 0.17684(13) 0.61041(14) 0.11829(19)
H10_3 H 0.193491 0.644181 0.139544
C16_3 C 0.27402(12) 0.63211(13) 0.08603(17)
C18_3 C 0.21063(13) 0.59540(13) 0.08697(17)
N3_3 N 0.47370(12) 0.56517(16) 0.08835(15)
C23_3 C 0.42443(15) 0.54278(21) 0.11830(18)
H14_3 H 0.413361 0.509854 0.139988
C24_3 C 0.48831(15) 0.61289(21) 0.0579(2)
H15_3 H 0.522089 0.629093 0.036623
C25_3 C 0.39208(13) 0.70096(18) 0.08602(17)
H16_3 H 0.431578 0.723989 0.086002
C26_3 C 0.45588(15) 0.63900(21) 0.0564(2)
H17_3 H 0.468140 0.672368 0.035122
C27_3 C 0.38959(14) 0.56644(19) 0.11829(19)
H18_3 H 0.355819 0.549311 0.139544
C28_3 C 0.36789(13) 0.64192(18) 0.08603(17)
C29_3 C 0.40460(13) 0.61524(18) 0.08697(17)
N4_3 N 0.43483(16) 0.90854(11) 0.08835(15)
C30_3 C 0.45722(21) 0.88166(14) 0.11830(18)
H19_3 H 0.490146 0.903508 0.139988
C31_3 C 0.38711(21) 0.87543(14) 0.0579(2)
H20_3 H 0.370907 0.892997 0.036623
C32_3 C 0.29904(18) 0.69113(13) 0.08602(17)
H21_3 H 0.276011 0.707590 0.086002
C33_3 C 0.36100(21) 0.81689(14) 0.0564(2)
H22_3 H 0.327632 0.795773 0.035122
C34_3 C 0.43356(19) 0.82316(13) 0.11829(19)
H23_3 H 0.450689 0.806509 0.139544
C35_3 C 0.35808(18) 0.72598(12) 0.08603(17)
C36_3 C 0.38476(18) 0.78937(13) 0.08697(17)
O22_3 O 0.00305(10) 0.55419(10) 0.08522(12)
Co9_3 Co 0.00057(2) 0.52321(2) 0.91377(2)
O5_3 O 0.9447(4) 0.2385(2) 0.0523(2)
N2_3 N 0.90836(11) 0.43461(11) 0.08352(15)
C1_3 C 0.88225(15) 0.45901(16) 0.1092(2)
H1_3 H 0.904403 0.493858 0.127706
C2_3 C 0.87463(14) 0.38463(14) 0.0572(2)
H2_3 H 0.891861 0.366353 0.039136
C3_3 C 0.82363(15) 0.43522(16) 0.1097(2)
H3_3 H 0.807308 0.453702 0.129083
C5_3 C 0.81654(14) 0.35883(15) 0.0552(2)
H5_3 H 0.795421 0.324164 0.035998
C7_3 C 0.70114(13) 0.39247(14) 0.0809(2)
H7_3 H 0.724208 0.431959 0.080803
C9_3 C 0.72606(13) 0.35798(13) 0.08094(19)
C15_3 C 0.78930(13) 0.38433(13) 0.08173(18)
C20_3 C 0.9691(2) 0.32729(18) 0.0079(2)
H12_3 H 0.982817 0.346432 0.042970
C22_3 C 0.9465(3) 0.2677(2) 0.0042(3)
N5_3 N 0.56539(11) 0.47376(16) 0.08352(15)
C37_3 C 0.54099(16) 0.42325(22) 0.1092(2)
H24_3 H 0.506142 0.410546 0.127706
C38_3 C 0.61537(14) 0.49001(20) 0.0572(2)
H25_3 H 0.633647 0.525509 0.039136
C39_3 C 0.56478(16) 0.38842(22) 0.1097(2)
H26_3 H 0.546298 0.353607 0.129083
C40_3 C 0.64117(15) 0.45772(21) 0.0552(2)
H27_3 H 0.675836 0.471258 0.035998
C41_3 C 0.60753(14) 0.30868(19) 0.0809(2)
H28_3 H 0.568041 0.292250 0.080803
C42_3 C 0.64202(13) 0.36809(18) 0.08094(19)
C43_3 C 0.61567(13) 0.40498(18) 0.08173(18)
N6_3 N 0.52624(16) 0.09164(11) 0.08352(15)
C44_3 C 0.57675(22) 0.11775(15) 0.1092(2)
H29_3 H 0.589454 0.095597 0.127706
C45_3 C 0.50999(20) 0.12537(14) 0.0572(2)
H30_3 H 0.474491 0.108139 0.039136
C46_3 C 0.61158(22) 0.17637(15) 0.1097(2)
H31_3 H 0.646393 0.192692 0.129083
C47_3 C 0.54228(21) 0.18346(14) 0.0552(2)
H32_3 H 0.528742 0.204579 0.035998
C48_3 C 0.69132(19) 0.29886(13) 0.0809(2)
H33_3 H 0.707750 0.275792 0.080803
C49_3 C 0.63191(18) 0.27394(13) 0.08094(19)
C50_3 C 0.59502(18) 0.21070(13) 0.08173(18)
O7_3 O 0.55719(10) 0.56082(15) 0.00995(13)
O10_3 O 0.7615(2) 0.7063(4) 0.0523(2)
C56_3 C 0.67271(18) 0.64185(27) 0.0079(2)
H35_3 H 0.653568 0.636386 0.042970
C58_3 C 0.7323(2) 0.6789(4) 0.0042(3)
O15_3 O 0.2937(4) 0.0553(4) 0.0523(2)
C64_3 C 0.35815(27) 0.0309(2) 0.0079(2)
H38_3 H 0.363614 0.017183 0.042970
C66_3 C 0.3211(4) 0.0535(3) 0.0042(3)
O23_3 O 0.44581(10) 0.44885(14) 0.08522(12)
H40_3 H 0.921022 0.243105 0.0823686
H41_3 H 0.756895 0.677917 0.0823686
H42_3 H 0.322083 0.0789785 0.0823686
O4_3 O 0.99695(10) 0.44581(10) 0.91478(12)
C10_3 C 0.90253(16) 0.23847(16) 0.8466(2)
C13_3 C 0.92678(16) 0.26860(15) 0.9036(2)
C14_3 C 0.97053(15) 0.35655(13) 0.95764(17)
C17_3 C 0.99182(12) 0.41945(13) 0.96132(18)
C19_3 C 0.94988(14) 0.32789(14) 0.90548(17)
H11_3 H 0.951337 0.347825 0.871933
C21_3 C 0.9254(3) 0.24046(18) 0.9527(3)
H13_3 H 0.909401 0.201038 0.951161
O9_3 O 0.55419(10) 0.55115(14) 0.91478(12)
C51_3 C 0.76153(16) 0.66407(23) 0.8466(2)
C52_3 C 0.73140(15) 0.65819(22) 0.9036(2)
C53_3 C 0.64345(13) 0.61399(20) 0.95764(17)
C54_3 C 0.58055(13) 0.57238(18) 0.96132(18)
C55_3 C 0.67211(14) 0.62200(20) 0.90548(17)
H34_3 H 0.652175 0.603513 0.871933
C57_3 C 0.75954(18) 0.68498(35) 0.9527(3)
H36_3 H 0.798962 0.708364 0.951161
O14_3 O 0.44885(14) 0.00305(10) 0.91478(12)
C59_3 C 0.33593(23) 0.09747(16) 0.8466(2)
C60_3 C 0.34181(22) 0.07322(16) 0.9036(2)
C61_3 C 0.38601(20) 0.02947(15) 0.95764(17)
C62_3 C 0.42762(18) 0.00818(12) 0.96132(18)
C63_3 C 0.37800(20) 0.05012(14) 0.90548(17)
H37_3 H 0.396487 0.048663 0.871933
C65_3 C 0.31502(35) 0.0746(3) 0.9527(3)
H39_3 H 0.291636 0.090599 0.951161
Co10_3 Co 0.47679(2) 0.47735(3) 0.91377(2)
O12_3 O 0.43918(15) 0.99638(11) 0.00995(13)
O24_3 O 0.55115(14) 0.99695(10) 0.08522(12)
Co11_3 Co 0.52265(3) 0.99943(2) 0.91377(2)
O13_2 O 0.00733(16) 0.52853(12) 0.81923(15)
O15_4 O 0.0396(4) 0.6114(4) 0.6144(2)
C65_4 C 0.01831(35) 0.5921(3) 0.7140(3)
H39_4 H 0.041697 0.576068 0.715506
C66_4 C 0.0122(4) 0.6132(3) 0.6625(3)
H42_4 H 0.0112502 0.587688 0.584298
O1_2 O 0.41054(13) 0.40284(12) 0.86670(14)
O2_4 O 0.32971(11) 0.22386(10) 0.65672(13)
O3_2 O 0.47147(12) 0.47880(11) 0.81923(15)
O5_4 O 0.3886(4) 0.4282(2) 0.6144(2)
N1_4 N 0.24187(11) 0.14037(12) 0.57832(15)
N2_4 N 0.42497(11) 0.23206(11) 0.58315(15)
C1_4 C 0.45108(15) 0.20766(16) 0.5575(2)
H1_4 H 0.428930 0.172809 0.538961
C2_4 C 0.45870(14) 0.28204(14) 0.6095(2)
H2_4 H 0.441472 0.300314 0.627531
C3_4 C 0.50970(15) 0.23145(16) 0.5570(2)
H3_4 H 0.526025 0.212965 0.537584
C4_4 C 0.21499(14) 0.09110(15) 0.54837(18)
H4_4 H 0.236841 0.080028 0.526679
C5_4 C 0.51679(14) 0.30784(15) 0.6115(2)
H5_4 H 0.537912 0.342503 0.630669
C6_4 C 0.20876(14) 0.15498(15) 0.6088(2)
H6_4 H 0.226330 0.188756 0.630044
C7_4 C 0.63219(13) 0.27420(14) 0.5858(2)
H7_4 H 0.609125 0.234708 0.585864
C8_4 C 0.02446(13) 0.05875(13) 0.58065(17)
H8_4 H 0.040923 0.098245 0.580665
C9_4 C 0.60727(13) 0.30869(13) 0.58573(19)
C10_4 C 0.43080(16) 0.42820(16) 0.8201(2)
C11_4 C 0.15022(14) 0.12255(15) 0.6103(2)
H9_4 H 0.129106 0.134807 0.631545
C12_4 C 0.15649(13) 0.05626(14) 0.54838(19)
H10_4 H 0.139842 0.022486 0.527123
C13_4 C 0.40655(16) 0.39807(15) 0.7631(2)
C14_4 C 0.36280(15) 0.31012(13) 0.70903(17)
C15_4 C 0.54403(13) 0.28234(13) 0.58494(18)
C16_4 C 0.05931(12) 0.03456(13) 0.58064(17)
C17_4 C 0.34151(12) 0.24722(13) 0.70535(18)
C18_4 C 0.12270(13) 0.07127(13) 0.57970(17)
C19_4 C 0.38345(14) 0.33878(14) 0.76119(17)
H11_4 H 0.381996 0.318842 0.794734
C20_4 C 0.3642(2) 0.33938(18) 0.6588(2)
H12_4 H 0.350516 0.320235 0.623697
C21_4 C 0.4079(3) 0.42621(18) 0.7140(3)
H13_4 H 0.423932 0.465629 0.715506
C22_4 C 0.3868(3) 0.3990(2) 0.6625(3)
N5_4 N 0.76794(11) 0.19291(16) 0.58315(15)
C37_4 C 0.79234(16) 0.24342(22) 0.5575(2)
H24_4 H 0.827191 0.256121 0.538961
C38_4 C 0.71796(14) 0.17666(20) 0.6095(2)
H25_4 H 0.699686 0.141158 0.627531
C39_4 C 0.76855(16) 0.27825(22) 0.5570(2)
H26_4 H 0.787035 0.313060 0.537584
C40_4 C 0.69216(15) 0.20895(21) 0.6115(2)
H27_4 H 0.657497 0.195409 0.630669
C41_4 C 0.72580(14) 0.35799(19) 0.5858(2)
H28_4 H 0.765292 0.374417 0.585864
C42_4 C 0.69131(13) 0.29858(18) 0.58573(19)
C43_4 C 0.71766(13) 0.26169(18) 0.58494(18)
N6_4 N 0.80709(16) 0.57503(11) 0.58315(15)
C44_4 C 0.75658(22) 0.54892(15) 0.5575(2)
H29_4 H 0.743879 0.571070 0.538961
C45_4 C 0.82334(20) 0.54130(14) 0.6095(2)
H30_4 H 0.858842 0.558528 0.627531
C46_4 C 0.72175(22) 0.49030(15) 0.5570(2)
H31_4 H 0.686940 0.473975 0.537584
C47_4 C 0.79105(21) 0.48321(14) 0.6115(2)
H32_4 H 0.804591 0.462088 0.630669
C48_4 C 0.64201(19) 0.36781(13) 0.5858(2)
H33_4 H 0.625583 0.390875 0.585864
C49_4 C 0.70142(18) 0.39273(13) 0.58573(19)
C50_4 C 0.73831(18) 0.45597(13) 0.58494(18)
O6_2 O 0.59716(12) 0.00770(18) 0.86670(14)
O7_4 O 0.77614(10) 0.10585(15) 0.65672(13)
C51_4 C 0.57180(16) 0.00260(23) 0.8201(2)
C52_4 C 0.60193(15) 0.00848(22) 0.7631(2)
C53_4 C 0.68988(13) 0.05268(20) 0.70903(17)
C54_4 C 0.75278(13) 0.09429(18) 0.70535(18)
C55_4 C 0.66122(14) 0.04467(20) 0.76119(17)
H34_4 H 0.681158 0.063154 0.794734
C56_4 C 0.66062(18) 0.02482(27) 0.6588(2)
H35_4 H 0.679765 0.030281 0.623697
O11_2 O 0.99230(18) 0.58946(13) 0.86670(14)
O12_4 O 0.89415(15) 0.67029(11) 0.65672(13)
C59_4 C 0.99740(23) 0.56920(16) 0.8201(2)
C60_4 C 0.99152(22) 0.59345(16) 0.7631(2)
C61_4 C 0.94732(20) 0.63720(15) 0.70903(17)
C62_4 C 0.90571(18) 0.65849(12) 0.70535(18)
C63_4 C 0.95533(20) 0.61655(14) 0.76119(17)
H37_4 H 0.936846 0.618004 0.794734
C64_4 C 0.97518(27) 0.6358(2) 0.6588(2)
H38_4 H 0.969719 0.649484 0.623697
O16_3 O 0.74387(13) 0.06951(12) 0.53337(14)
O17_3 O 0.93049(12) 0.67437(18) 0.53337(14)
O18_3 O 0.32563(18) 0.25613(13) 0.53337(14)
O19_3 O 0.80480(12) 0.14547(11) 0.48590(15)
O20_3 O 0.85453(11) 0.65934(16) 0.48590(15)
O21_3 O 0.34066(16) 0.19520(12) 0.48590(15)
N7 N 0.85963(12) 0.10150(16) 0.57832(15)
N8 N 0.89850(16) 0.75813(11) 0.57832(15)
H40_4 H 0.412312 0.423562 0.584298
C32_4 C 0.03429(18) 0.97554(13) 0.58065(17)
H21_4 H 0.057322 0.959077 0.580665
H22_4 H 0.005701 0.870894 0.631545
O8_2 O 0.52120(11) 0.99267(16) 0.81923(15)
O10_4 O 0.5718(2) 0.9604(4) 0.6144(2)
C57_4 C 0.57379(18) 0.98169(35) 0.7140(3)
H36_4 H 0.534371 0.958303 0.715506
C58_4 C 0.6010(2) 0.9878(4) 0.6625(3)
H41_4 H 0.576438 0.98875 0.584298
C23_4 C 0.90890(15) 0.12389(21) 0.54837(18)
H14_4 H 0.919972 0.156813 0.526679
C24_4 C 0.84502(15) 0.05378(21) 0.6088(2)
H15_4 H 0.811244 0.037574 0.630044
C26_4 C 0.87745(15) 0.02767(21) 0.6103(2)
C27_4 C 0.94374(14) 0.10023(19) 0.54838(19)
H18_4 H 0.977514 0.117356 0.527123
C28_4 C 0.96544(13) 0.02475(18) 0.58064(17)
C29_4 C 0.92873(13) 0.05143(18) 0.57970(17)
C25_4 C 0.94125(13) 0.96571(18) 0.58065(17)
H16_4 H 0.901755 0.942678 0.580665
H17_4 H 0.865193 0.994299 0.631545
C30_4 C 0.87611(21) 0.78501(14) 0.54837(18)
H19_4 H 0.843187 0.763159 0.526679
C31_4 C 0.94622(21) 0.79124(14) 0.6088(2)
H20_4 H 0.962426 0.773670 0.630044
C33_4 C 0.97233(21) 0.84978(14) 0.6103(2)
C34_4 C 0.89977(19) 0.84351(13) 0.54838(19)
H23_4 H 0.882644 0.860158 0.527123
C35_4 C 0.97525(18) 0.94069(12) 0.58064(17)
C36_4 C 0.94857(18) 0.87730(13) 0.57970(17)
C41_5 C 0.05913(14) 0.02466(19) 0.2525(2)
H28_5 H 0.098625 0.041084 0.252531
N6_5 N 0.14042(16) 0.24170(11) 0.24982(15)
C44_5 C 0.08991(22) 0.21559(15) 0.2242(2)
H29_5 H 0.077212 0.237737 0.205628
C45_5 C 0.15667(20) 0.20797(14) 0.2762(2)
H30_5 H 0.192175 0.225195 0.294198
C46_5 C 0.05508(22) 0.15697(15) 0.2237(2)
H31_5 H 0.020273 0.140642 0.204251
C47_5 C 0.12438(21) 0.14988(14) 0.2782(2)
H32_5 H 0.137924 0.128755 0.297336
C49_5 C 0.03475(18) 0.05940(13) 0.25240(19)
C50_5 C 0.07164(18) 0.12264(13) 0.25161(18)
O12_5 O 0.22748(15) 0.33696(11) 0.32339(13)
O15_5 O 0.3729(4) 0.2781(4) 0.2811(2)
C59_5 C 0.33073(23) 0.23587(16) 0.4868(2)
C60_5 C 0.32485(22) 0.26012(16) 0.4298(2)
C61_5 C 0.28065(20) 0.30387(15) 0.37570(17)
C62_5 C 0.23904(18) 0.32516(12) 0.37202(18)
C63_5 C 0.28866(20) 0.28322(14) 0.42786(17)
H37_5 H 0.270179 0.284671 0.461401
C64_5 C 0.30851(27) 0.3025(2) 0.3255(2)
H38_5 H 0.303052 0.316151 0.290364
C65_5 C 0.35164(35) 0.2588(3) 0.3807(3)
H39_5 H 0.375030 0.242735 0.382173
C66_5 C 0.3455(4) 0.2799(3) 0.3292(3)
O17_4 O 0.26383(12) 0.34103(18) 0.20003(14)
O20_4 O 0.18787(11) 0.32600(16) 0.15256(15)
N8_2 N 0.23183(16) 0.42480(11) 0.24499(15)
H42_5 H 0.344584 0.254355 0.250965
N5_5 N 0.10127(11) 0.85958(16) 0.24982(15)
C37_5 C 0.12567(16) 0.91009(22) 0.2242(2)
H24_5 H 0.160524 0.922788 0.205628
C38_5 C 0.05129(14) 0.84333(20) 0.2762(2)
H25_5 H 0.033019 0.807825 0.294198
C39_5 C 0.10188(16) 0.94492(22) 0.2237(2)
H26_5 H 0.120368 0.979727 0.204251
C40_5 C 0.02549(15) 0.87562(21) 0.2782(2)
C42_5 C 0.02464(13) 0.96525(18) 0.25240(19)
C43_5 C 0.05099(13) 0.92836(18) 0.25161(18)
O7_5 O 0.10947(10) 0.77252(15) 0.32339(13)
C53_5 C 0.02321(13) 0.71935(20) 0.37570(17)
C54_5 C 0.08611(13) 0.76096(18) 0.37202(18)
H34_5 H 0.014491 0.729821 0.461401
H35_5 H 0.013098 0.696948 0.290364
O16_4 O 0.07721(13) 0.73617(12) 0.20003(14)
O19_4 O 0.13814(12) 0.81213(11) 0.15256(15)
N7_2 N 0.19296(12) 0.76817(16) 0.24499(15)
O5_5 O 0.7219(4) 0.0949(2) 0.2811(2)
H5_5 H 0.871245 0.009170 0.297336
C10_5 C 0.76413(16) 0.09487(16) 0.4868(2)
C13_5 C 0.73988(16) 0.06474(15) 0.4298(2)
C19_5 C 0.71678(14) 0.00545(14) 0.42786(17)
C20_5 C 0.6975(2) 0.00605(18) 0.3255(2)
C21_5 C 0.7412(3) 0.09288(18) 0.3807(3)
H13_5 H 0.757265 0.132296 0.382173
C22_5 C 0.7201(3) 0.0657(2) 0.3292(3)
C48_5 C 0.97534(19) 0.03448(13) 0.2525(2)
H33_5 H 0.958916 0.057542 0.252531
H40_5 H 0.745645 0.0902287 0.250965
O2_5 O 0.66304(11) 0.89053(10) 0.32339(13)
N1_5 N 0.57520(11) 0.80704(12) 0.24499(15)
N2_5 N 0.75830(11) 0.89873(11) 0.24982(15)
C1_5 C 0.78441(15) 0.87433(16) 0.2242(2)
H1_5 H 0.762263 0.839476 0.205628
C2_5 C 0.79203(14) 0.94871(14) 0.2762(2)
H2_5 H 0.774805 0.966981 0.294198
C3_5 C 0.84303(15) 0.89812(16) 0.2237(2)
H3_5 H 0.859358 0.879632 0.204251
C4_5 C 0.54832(14) 0.75777(15) 0.21504(18)
H4_5 H 0.570174 0.746695 0.193346
C5_5 C 0.85012(14) 0.97451(15) 0.2782(2)
C6_5 C 0.54209(14) 0.82165(15) 0.2755(2)
H6_5 H 0.559663 0.855423 0.296711
C7_5 C 0.96552(13) 0.94087(14) 0.2525(2)
H7_5 H 0.942458 0.901375 0.252531
C8_5 C 0.35779(13) 0.72542(13) 0.24732(17)
H8_5 H 0.374256 0.764912 0.247332
C9_5 C 0.94060(13) 0.97536(13) 0.25240(19)
C11_5 C 0.48355(14) 0.78922(15) 0.2770(2)
H9_5 H 0.462439 0.801474 0.298212
C12_5 C 0.48982(13) 0.72293(14) 0.21505(19)
H10_5 H 0.473175 0.689153 0.193790
C14_5 C 0.69613(15) 0.97679(13) 0.37570(17)
C15_5 C 0.87736(13) 0.94901(13) 0.25161(18)
C16_5 C 0.39264(12) 0.70123(13) 0.24731(17)
C17_5 C 0.67484(12) 0.91389(13) 0.37202(18)
C18_5 C 0.45603(13) 0.73794(13) 0.24637(17)
H11_5 H 0.715329 0.985509 0.461401
H12_5 H 0.683849 0.986902 0.290364
C23_5 C 0.24223(15) 0.79056(21) 0.21504(18)
H14_5 H 0.253305 0.823480 0.193346
C24_5 C 0.17835(15) 0.72045(21) 0.2755(2)
H15_5 H 0.144577 0.704241 0.296711
C25_5 C 0.27458(13) 0.63238(18) 0.24732(17)
H16_5 H 0.235088 0.609345 0.247332
C26_5 C 0.21078(15) 0.69434(21) 0.2770(2)
H17_5 H 0.198526 0.660966 0.298212
C27_5 C 0.27707(14) 0.76690(19) 0.21505(19)
H18_5 H 0.310847 0.784023 0.193790
C28_5 C 0.29877(13) 0.69142(18) 0.24731(17)
C29_5 C 0.26206(13) 0.71810(18) 0.24637(17)
C30_5 C 0.20944(21) 0.45168(14) 0.21504(18)
H19_5 H 0.176520 0.429826 0.193346
C31_5 C 0.27955(21) 0.45791(14) 0.2755(2)
H20_5 H 0.295759 0.440337 0.296711
C32_5 C 0.36762(18) 0.64221(13) 0.24732(17)
H21_5 H 0.390655 0.625744 0.247332
C33_5 C 0.30566(21) 0.51645(14) 0.2770(2)
H22_5 H 0.339034 0.537561 0.298212
C34_5 C 0.23310(19) 0.51018(13) 0.21505(19)
H23_5 H 0.215977 0.526825 0.193790
C35_5 C 0.30858(18) 0.60736(12) 0.24731(17)
C36_5 C 0.28190(18) 0.54397(13) 0.24637(17)
H27_5 H 0.990830 0.862076 0.297336
O10_5 O 0.9051(2) 0.6271(4) 0.2811(2)
C51_5 C 0.90513(16) 0.66927(23) 0.4868(2)
C52_5 C 0.93526(15) 0.67515(22) 0.4298(2)
C55_5 C 0.99455(14) 0.71134(20) 0.42786(17)
C56_5 C 0.99395(18) 0.69149(27) 0.3255(2)
C57_5 C 0.90712(18) 0.64836(35) 0.3807(3)
H36_5 H 0.867704 0.624970 0.382173
C58_5 C 0.9343(2) 0.6545(4) 0.3292(3)
O18_4 O 0.65897(18) 0.92279(13) 0.20003(14)
O21_4 O 0.67400(16) 0.86186(12) 0.15256(15)
H41_5 H 0.909771 0.655416 0.250965
O12_6 O 0.56082(15) 0.00362(11) 0.99005(13)
N8_3 N 0.56517(16) 0.09146(11) 0.91165(15)
C10_6 C 0.09747(16) 0.76153(16) 0.1534(2)
C13_6 C 0.07322(16) 0.73140(15) 0.0964(2)
C14_6 C 0.02947(15) 0.64345(13) 0.04236(17)
C17_6 C 0.00818(12) 0.58055(13) 0.03868(18)
C19_6 C 0.05012(14) 0.67211(14) 0.09452(17)
H11_6 H 0.048663 0.652175 0.128067
C21_6 C 0.0746(3) 0.75954(18) 0.0473(3)
H13_6 H 0.090599 0.798962 0.048839
C51_6 C 0.23847(16) 0.33593(23) 0.1534(2)
C52_6 C 0.26860(15) 0.34181(22) 0.0964(2)
C53_6 C 0.35655(13) 0.38601(20) 0.04236(17)
C54_6 C 0.41945(13) 0.42762(18) 0.03868(18)
C55_6 C 0.32789(14) 0.37800(20) 0.09452(17)
H34_6 H 0.347825 0.396487 0.128067
C57_6 C 0.24046(18) 0.31502(35) 0.0473(3)
H36_6 H 0.201038 0.291636 0.048839
C59_6 C 0.66407(23) 0.90253(16) 0.1534(2)
C60_6 C 0.65819(22) 0.92678(16) 0.0964(2)
C61_6 C 0.61399(20) 0.97053(15) 0.04236(17)
C62_6 C 0.57238(18) 0.99182(12) 0.03868(18)
C63_6 C 0.62200(20) 0.94988(14) 0.09452(17)
H37_6 H 0.603513 0.951337 0.128067
C65_6 C 0.68498(35) 0.9254(3) 0.0473(3)
H39_6 H 0.708364 0.909401 0.048839
O5_6 O 0.0553(4) 0.7615(2) 0.9477(2)
N2_6 N 0.09164(11) 0.56539(11) 0.91648(15)
C1_6 C 0.11775(15) 0.54099(16) 0.8908(2)
H1_6 H 0.095597 0.506142 0.872294
C2_6 C 0.12537(14) 0.61537(14) 0.9428(2)
H2_6 H 0.108139 0.633647 0.960864
C3_6 C 0.17637(15) 0.56478(16) 0.8903(2)
H3_6 H 0.192692 0.546298 0.870917
C5_6 C 0.18346(14) 0.64117(15) 0.9448(2)
H5_6 H 0.204579 0.675836 0.964002
C7_6 C 0.29886(13) 0.60753(14) 0.9191(2)
H7_6 H 0.275792 0.568041 0.919197
C9_6 C 0.27394(13) 0.64202(13) 0.91906(19)
C15_6 C 0.21070(13) 0.61567(13) 0.91827(18)
C20_6 C 0.0309(2) 0.67271(18) 0.9921(2)
H12_6 H 0.017183 0.653568 0.957030
C22_6 C 0.0535(3) 0.7323(2) 0.9958(3)
N5_6 N 0.43461(11) 0.52624(16) 0.91648(15)
C37_6 C 0.45901(16) 0.57675(22) 0.8908(2)
H24_6 H 0.493858 0.589454 0.872294
C38_6 C 0.38463(14) 0.50999(20) 0.9428(2)
H25_6 H 0.366353 0.474491 0.960864
C39_6 C 0.43522(16) 0.61158(22) 0.8903(2)
H26_6 H 0.453702 0.646393 0.870917
C40_6 C 0.35883(15) 0.54228(21) 0.9448(2)
H27_6 H 0.324164 0.528742 0.964002
C41_6 C 0.39247(14) 0.69132(19) 0.9191(2)
H28_6 H 0.431959 0.707750 0.919197
C42_6 C 0.35798(13) 0.63191(18) 0.91906(19)
C43_6 C 0.38433(13) 0.59502(18) 0.91827(18)
N6_6 N 0.47376(16) 0.90836(11) 0.91648(15)
C44_6 C 0.42325(22) 0.88225(15) 0.8908(2)
H29_6 H 0.410546 0.904403 0.872294
C45_6 C 0.49001(20) 0.87463(14) 0.9428(2)
H30_6 H 0.525509 0.891861 0.960864
C46_6 C 0.38842(22) 0.82363(15) 0.8903(2)
H31_6 H 0.353607 0.807308 0.870917
C47_6 C 0.45772(21) 0.81654(14) 0.9448(2)
H32_6 H 0.471258 0.795421 0.964002
C48_6 C 0.30868(19) 0.70114(13) 0.9191(2)
H33_6 H 0.292250 0.724208 0.919197
C49_6 C 0.36809(18) 0.72606(13) 0.91906(19)
C50_6 C 0.40498(18) 0.78930(13) 0.91827(18)
O7_6 O 0.44281(10) 0.43918(15) 0.99005(13)
O10_6 O 0.2385(2) 0.2937(4) 0.9477(2)
C56_6 C 0.32729(18) 0.35815(27) 0.9921(2)
H35_6 H 0.346432 0.363614 0.957030
C58_6 C 0.2677(2) 0.3211(4) 0.9958(3)
O15_6 O 0.7063(4) 0.9447(4) 0.9477(2)
C64_6 C 0.64185(27) 0.9691(2) 0.9921(2)
H38_6 H 0.636386 0.982817 0.957030
C66_6 C 0.6789(4) 0.9465(3) 0.9958(3)
N7_3 N 0.52630(12) 0.43483(16) 0.91165(15)
H40_6 H 0.0789785 0.756895 0.917631
H41_6 H 0.243105 0.322083 0.917631
H42_6 H 0.677917 0.921022 0.917631
O2_6 O 0.99638(11) 0.55719(10) 0.99005(13)
N1_6 N 0.90854(11) 0.47370(12) 0.91165(15)
C4_6 C 0.88166(14) 0.42443(15) 0.88170(18)
H4_6 H 0.903508 0.413361 0.860012
C6_6 C 0.87543(14) 0.48831(15) 0.9421(2)
H6_6 H 0.892997 0.522089 0.963377
C8_6 C 0.69113(13) 0.39208(13) 0.91398(17)
H8_6 H 0.707590 0.431578 0.913998
C11_6 C 0.81689(14) 0.45588(15) 0.9436(2)
H9_6 H 0.795773 0.468140 0.964878
C12_6 C 0.82316(13) 0.38959(14) 0.88171(19)
H10_6 H 0.806509 0.355819 0.860456
C16_6 C 0.72598(12) 0.36789(13) 0.91397(17)
C18_6 C 0.78937(13) 0.40460(13) 0.91303(17)
C23_6 C 0.57557(15) 0.45722(21) 0.88170(18)
H14_6 H 0.586639 0.490146 0.860012
C24_6 C 0.51169(15) 0.38711(21) 0.9421(2)
H15_6 H 0.477911 0.370907 0.963377
C25_6 C 0.60792(13) 0.29904(18) 0.91398(17)
H16_6 H 0.568422 0.276011 0.913998
C26_6 C 0.54412(15) 0.36100(21) 0.9436(2)
H17_6 H 0.531860 0.327632 0.964878
C27_6 C 0.61041(14) 0.43356(19) 0.88171(19)
H18_6 H 0.644181 0.450689 0.860456
C28_6 C 0.63211(13) 0.35808(18) 0.91397(17)
C29_6 C 0.59540(13) 0.38476(18) 0.91303(17)
C30_6 C 0.54278(21) 0.11834(14) 0.88170(18)
H19_6 H 0.509854 0.096492 0.860012
C31_6 C 0.61289(21) 0.12457(14) 0.9421(2)
H20_6 H 0.629093 0.107003 0.963377
C32_6 C 0.70096(18) 0.30887(13) 0.91398(17)
H21_6 H 0.723989 0.292410 0.913998
C33_6 C 0.63900(21) 0.18311(14) 0.9436(2)
H22_6 H 0.672368 0.204227 0.964878
C34_6 C 0.56644(19) 0.17684(13) 0.88171(19)
H23_6 H 0.549311 0.193491 0.860456
C35_6 C 0.64192(18) 0.27402(12) 0.91397(17)
C36_6 C 0.61524(18) 0.21063(13) 0.91303(17)
loop_
_geom_bond_atom_site_label_1
_geom_bond_atom_site_label_2
_geom_bond_site_symmetry_1
_geom_bond_site_symmetry_2
C25 H16 1_555 1_555
N4 C30 1_555 1_555
C30 H19 1_555 1_555
C31 N4 1_555 1_555
H20 C31 1_555 1_555
C33 C31 1_555 1_555
C34 C30 1_555 1_555
H23 C34 1_555 1_555
C35 C25 1_555 1_555
C36 C33 1_555 1_555
Co5 N4 1_555 1_555
C34 C36 1_555 1_555
C35 C36 1_555 1_555
N3 C23 1_555 1_555
C23 H14 1_555 1_555
C24 N3 1_555 1_555
H15 C24 1_555 1_555
C26 C24 1_555 1_555
C27 C23 1_555 1_555
H18 C27 1_555 1_555
C29 C26 1_555 1_555
Co4 N3 1_555 1_555
C27 C29 1_555 1_555
C28 C29 1_555 1_555
H21 C32 1_555 1_555
O10 C58 1_555 1_555
H36 C57 1_555 1_555
O8 Co8 1_555 1_555
C57 C58 1_555 1_555
O10 H41 1_555 1_555
Co1 O2 1_555 1_555
O1 C10 1_555 1_555
O2 C17 1_555 1_555
O3 C10 1_555 1_555
O4 C17 1_555 1_555
O5 C22 1_555 1_555
N1 Co1 1_555 1_555
N2 Co1 1_555 1_555
C1 N2 1_555 1_555
H1 C1 1_555 1_555
C2 N2 1_555 1_555
H2 C2 1_555 1_555
C3 C1 1_555 1_555
H3 C3 1_555 1_555
C4 N1 1_555 1_555
H4 C4 1_555 1_555
C5 C2 1_555 1_555
H5 C5 1_555 1_555
C6 N1 1_555 1_555
H6 C6 1_555 1_555
C7 H7 1_555 1_555
C8 H8 1_555 1_555
C9 C7 1_555 1_555
C10 C13 1_555 1_555
C11 C6 1_555 1_555
H9 C11 1_555 1_555
C12 C4 1_555 1_555
H10 C12 1_555 1_555
C13 C19 1_555 1_555
C14 C17 1_555 1_555
C15 C3 1_555 1_555
C16 C8 1_555 1_555
C18 C11 1_555 1_555
C19 C14 1_555 1_555
H11 C19 1_555 1_555
C20 C14 1_555 1_555
H12 C20 1_555 1_555
C21 C13 1_555 1_555
H13 C21 1_555 1_555
C22 C20 1_555 1_555
N5 C37 1_555 1_555
C37 H24 1_555 1_555
C38 N5 1_555 1_555
H25 C38 1_555 1_555
C39 C37 1_555 1_555
H26 C39 1_555 1_555
C40 C38 1_555 1_555
H27 C40 1_555 1_555
C41 H28 1_555 1_555
C42 C7 1_555 1_555
C43 C39 1_555 1_555
N6 C44 1_555 1_555
C44 H29 1_555 1_555
C45 N6 1_555 1_555
H30 C45 1_555 1_555
C46 C44 1_555 1_555
H31 C46 1_555 1_555
C47 C45 1_555 1_555
H32 C47 1_555 1_555
C48 C9 1_555 1_555
H33 C48 1_555 1_555
C49 C41 1_555 1_555
C50 C46 1_555 1_555
Co4 N5 1_555 1_555
O6 C51 1_555 1_555
O7 Co4 1_555 1_555
O9 C54 1_555 1_555
C51 C52 1_555 1_555
C52 C55 1_555 1_555
C53 C54 1_555 1_555
C54 O7 1_555 1_555
C55 C53 1_555 1_555
H34 C55 1_555 1_555
C56 C53 1_555 1_555
H35 C56 1_555 1_555
Co5 N6 1_555 1_555
O11 C59 1_555 1_555
O12 Co5 1_555 1_555
O14 C62 1_555 1_555
C59 C60 1_555 1_555
C60 C63 1_555 1_555
C61 C62 1_555 1_555
C62 O12 1_555 1_555
C63 C61 1_555 1_555
H37 C63 1_555 1_555
C64 C61 1_555 1_555
H38 C64 1_555 1_555
Co7 O1 1_555 1_555
Co9 O4 1_555 1_555
Co10 O9 1_555 1_555
Co11 O14 1_555 1_555
O16 Co4 1_555 1_555
O17 Co5 1_555 1_555
O18 Co1 1_555 1_555
O19 Co4 1_555 1_555
O20 Co5 1_555 1_555
O21 Co1 1_555 1_555
O22 Co1 1_555 1_555
O23 Co4 1_555 1_555
O24 Co5 1_555 1_555
O3 Co7 1_555 1_555
C5 C15 1_555 1_555
C9 C15 1_555 1_555
C12 C18 1_555 1_555
C16 C18 1_555 1_555
C21 C22 1_555 1_555
C40 C43 1_555 1_555
C41 C42 1_555 1_555
C42 C43 1_555 1_555
C47 C50 1_555 1_555
C48 C49 1_555 1_555
C49 C50 1_555 1_555
O5 H40 1_555 1_555
O15 C66 1_555 1_555
H39 C65 1_555 1_555
O13 Co6 1_555 1_555
C65 C66 1_555 1_555
O15 H42 1_555 1_555
Co1_2 O2_2 1_555 1_555
O2_2 C17_2 1_555 1_555
O4_2 C17_2 1_555 1_555
N1_2 Co1_2 1_555 1_555
N2_2 Co1_2 1_555 1_555
C1_2 N2_2 1_555 1_555
H1_2 C1_2 1_555 1_555
C2_2 N2_2 1_555 1_555
H2_2 C2_2 1_555 1_555
C3_2 C1_2 1_555 1_555
H3_2 C3_2 1_555 1_555
C4_2 N1_2 1_555 1_555
H4_2 C4_2 1_555 1_555
C5_2 C2_2 1_555 1_555
C6_2 N1_2 1_555 1_555
H6_2 C6_2 1_555 1_555
C7_2 H7_2 1_555 1_555
C8_2 H8_2 1_555 1_555
C9_2 C7_2 1_555 1_555
C11_2 C6_2 1_555 1_555
H9_2 C11_2 1_555 1_555
C12_2 C4_2 1_555 1_555
H10_2 C12_2 1_555 1_555
C14_2 C17_2 1_555 1_555
C15_2 C3_2 1_555 1_555
C16_2 C8_2 1_555 1_555
C18_2 C11_2 1_555 1_555
N3_2 C23_2 1_555 1_555
C23_2 H14_2 1_555 1_555
C24_2 N3_2 1_555 1_555
H15_2 C24_2 1_555 1_555
C25_2 H16_2 1_555 1_555
C26_2 C24_2 1_555 1_555
H17_2 C26_2 1_555 1_555
C27_2 C23_2 1_555 1_555
H18_2 C27_2 1_555 1_555
C28_2 C8_2 1_555 1_555
C29_2 C26_2 1_555 1_555
N4_2 C30_2 1_555 1_555
C30_2 H19_2 1_555 1_555
C31_2 N4_2 1_555 1_555
H20_2 C31_2 1_555 1_555
C32_2 C16_2 1_555 1_555
H21_2 C32_2 1_555 1_555
C33_2 C31_2 1_555 1_555
H22_2 C33_2 1_555 1_555
C34_2 C30_2 1_555 1_555
H23_2 C34_2 1_555 1_555
C35_2 C25_2 1_555 1_555
C36_2 C33_2 1_555 1_555
O17 C51_2 1_555 1_555
O20 C51_2 1_555 1_555
O10_2 C58_2 1_555 1_555
C51_2 C52_2 1_555 1_555
C52_2 C55_2 1_555 1_555
C57_2 C52_2 1_555 1_555
H36_2 C57_2 1_555 1_555
C58_2 C56_2 1_555 1_555
Co4_2 N3_2 1_555 1_555
Co5_2 N4_2 1_555 1_555
Co9_2 O4_2 1_555 1_555
O18_2 Co1_2 1_555 1_555
O21_2 Co1_2 1_555 1_555
O22_2 Co1_2 1_555 1_555
C5_2 C15_2 1_555 1_555
C9_2 C15_2 1_555 1_555
C12_2 C18_2 1_555 1_555
C16_2 C18_2 1_555 1_555
C25_2 C28_2 1_555 1_555
C27_2 C29_2 1_555 1_555
C28_2 C29_2 1_555 1_555
C32_2 C35_2 1_555 1_555
C34_2 C36_2 1_555 1_555
C35_2 C36_2 1_555 1_555
C57_2 C58_2 1_555 1_555
O10_2 H41_2 1_555 1_555
O16 C10_2 1_555 1_555
O19 C10_2 1_555 1_555
O5_2 C22_2 1_555 1_555
C10_2 C13_2 1_555 1_555
C13_2 C19_2 1_555 1_555
C21_2 C13_2 1_555 1_555
H13_2 C21_2 1_555 1_555
C22_2 C20_2 1_555 1_555
H33_2 C48_2 1_555 1_555
C21_2 C22_2 1_555 1_555
O5_2 H40_2 1_555 1_555
N5_2 C37_2 1_555 1_555
C37_2 H24_2 1_555 1_555
C38_2 N5_2 1_555 1_555
H25_2 C38_2 1_555 1_555
C39_2 C37_2 1_555 1_555
H26_2 C39_2 1_555 1_555
C40_2 C38_2 1_555 1_555
C43_2 C39_2 1_555 1_555
Co4_2 N5_2 1_555 1_555
O7_2 Co4_2 1_555 1_555
O9_2 C54_2 1_555 1_555
C53_2 C54_2 1_555 1_555
C54_2 O7_2 1_555 1_555
Co10_2 O9_2 1_555 1_555
O16_2 Co4_2 1_555 1_555
O19_2 Co4_2 1_555 1_555
O23_2 Co4_2 1_555 1_555
C40_2 C43_2 1_555 1_555
C42_2 C43_2 1_555 1_555
C41_2 H28_2 1_555 1_555
N6_2 C44_2 1_555 1_555
C44_2 H29_2 1_555 1_555
C45_2 N6_2 1_555 1_555
H30_2 C45_2 1_555 1_555
C46_2 C44_2 1_555 1_555
H31_2 C46_2 1_555 1_555
C47_2 C45_2 1_555 1_555
H32_2 C47_2 1_555 1_555
C49_2 C41_2 1_555 1_555
C50_2 C46_2 1_555 1_555
Co5_2 N6_2 1_555 1_555
O18 C59_2 1_555 1_555
O12_2 Co5_2 1_555 1_555
O21 C59_2 1_555 1_555
O14_2 C62_2 1_555 1_555
O15_2 C66_2 1_555 1_555
C59_2 C60_2 1_555 1_555
C60_2 C63_2 1_555 1_555
C61_2 C62_2 1_555 1_555
C62_2 O12_2 1_555 1_555
C63_2 C61_2 1_555 1_555
H37_2 C63_2 1_555 1_555
C64_2 C61_2 1_555 1_555
H38_2 C64_2 1_555 1_555
C65_2 C60_2 1_555 1_555
H39_2 C65_2 1_555 1_555
C66_2 C64_2 1_555 1_555
Co11_2 O14_2 1_555 1_555
O17_2 Co5_2 1_555 1_555
O20_2 Co5_2 1_555 1_555
O24_2 Co5_2 1_555 1_555
C47_2 C50_2 1_555 1_555
C49_2 C50_2 1_555 1_555
C65_2 C66_2 1_555 1_555
O15_2 H42_2 1_555 1_555
C4_3 N1_3 1_555 1_555
H4_3 C4_3 1_555 1_555
C6_3 N1_3 1_555 1_555
H6_3 C6_3 1_555 1_555
C8_3 H8_3 1_555 1_555
C11_3 C6_3 1_555 1_555
H9_3 C11_3 1_555 1_555
C12_3 C4_3 1_555 1_555
H10_3 C12_3 1_555 1_555
C16_3 C8_3 1_555 1_555
C18_3 C11_3 1_555 1_555
N3_3 C23_3 1_555 1_555
C23_3 H14_3 1_555 1_555
C24_3 N3_3 1_555 1_555
H15_3 C24_3 1_555 1_555
C25_3 H16_3 1_555 1_555
C26_3 C24_3 1_555 1_555
H17_3 C26_3 1_555 1_555
C27_3 C23_3 1_555 1_555
H18_3 C27_3 1_555 1_555
C28_3 C8_3 1_555 1_555
C29_3 C26_3 1_555 1_555
N4_3 C30_3 1_555 1_555
C30_3 H19_3 1_555 1_555
C31_3 N4_3 1_555 1_555
H20_3 C31_3 1_555 1_555
C32_3 C16_3 1_555 1_555
H21_3 C32_3 1_555 1_555
C33_3 C31_3 1_555 1_555
H22_3 C33_3 1_555 1_555
C34_3 C30_3 1_555 1_555
H23_3 C34_3 1_555 1_555
C35_3 C25_3 1_555 1_555
C36_3 C33_3 1_555 1_555
Co7 N3_3 1_555 1_555
C12_3 C18_3 1_555 1_555
C16_3 C18_3 1_555 1_555
C25_3 C28_3 1_555 1_555
C27_3 C29_3 1_555 1_555
C28_3 C29_3 1_555 1_555
C32_3 C35_3 1_555 1_555
C34_3 C36_3 1_555 1_555
C35_3 C36_3 1_555 1_555
O5_3 C22_3 1_555 1_555
N2_3 Co6 1_555 1_555
C1_3 N2_3 1_555 1_555
H1_3 C1_3 1_555 1_555
C2_3 N2_3 1_555 1_555
H2_3 C2_3 1_555 1_555
C3_3 C1_3 1_555 1_555
H3_3 C3_3 1_555 1_555
C5_3 C2_3 1_555 1_555
H5_3 C5_3 1_555 1_555
C7_3 H7_3 1_555 1_555
C9_3 C7_3 1_555 1_555
C15_3 C3_3 1_555 1_555
H12_3 C20_3 1_555 1_555
C22_3 C20_3 1_555 1_555
N5_3 C37_3 1_555 1_555
C37_3 H24_3 1_555 1_555
C38_3 N5_3 1_555 1_555
H25_3 C38_3 1_555 1_555
C39_3 C37_3 1_555 1_555
H26_3 C39_3 1_555 1_555
C40_3 C38_3 1_555 1_555
H27_3 C40_3 1_555 1_555
C41_3 H28_3 1_555 1_555
C42_3 C7_3 1_555 1_555
C43_3 C39_3 1_555 1_555
N6_3 C44_3 1_555 1_555
C44_3 H29_3 1_555 1_555
C45_3 N6_3 1_555 1_555
H30_3 C45_3 1_555 1_555
C46_3 C44_3 1_555 1_555
H31_3 C46_3 1_555 1_555
C47_3 C45_3 1_555 1_555
H32_3 C47_3 1_555 1_555
C48_3 C9_3 1_555 1_555
H33_3 C48_3 1_555 1_555
C49_3 C41_3 1_555 1_555
C50_3 C46_3 1_555 1_555
Co7 N5_3 1_555 1_555
O7_3 Co7 1_555 1_555
O10_3 C58_3 1_555 1_555
H35_3 C56_3 1_555 1_555
C58_3 C56_3 1_555 1_555
Co8 N6_3 1_555 1_555
O15_3 C66_3 1_555 1_555
H38_3 C64_3 1_555 1_555
C66_3 C64_3 1_555 1_555
O23_3 Co7 1_555 1_555
C5_3 C15_3 1_555 1_555
C9_3 C15_3 1_555 1_555
C40_3 C43_3 1_555 1_555
C41_3 C42_3 1_555 1_555
C42_3 C43_3 1_555 1_555
C47_3 C50_3 1_555 1_555
C48_3 C49_3 1_555 1_555
C49_3 C50_3 1_555 1_555
O5_3 H40_3 1_555 1_555
O10_3 H41_3 1_555 1_555
O15_3 H42_3 1_555 1_555
O16_2 C10_3 1_555 1_555
O19_2 C10_3 1_555 1_555
O4_3 C17_3 1_555 1_555
C10_3 C13_3 1_555 1_555
C13_3 C19_3 1_555 1_555
C14_3 C17_3 1_555 1_555
C19_3 C14_3 1_555 1_555
H11_3 C19_3 1_555 1_555
C21_3 C13_3 1_555 1_555
H13_3 C21_3 1_555 1_555
O17_2 C51_3 1_555 1_555
O20_2 C51_3 1_555 1_555
O9_3 C54_3 1_555 1_555
C51_3 C52_3 1_555 1_555
C52_3 C55_3 1_555 1_555
C53_3 C54_3 1_555 1_555
C55_3 C53_3 1_555 1_555
H34_3 C55_3 1_555 1_555
C57_3 C52_3 1_555 1_555
H36_3 C57_3 1_555 1_555
O18_2 C59_3 1_555 1_555
O21_2 C59_3 1_555 1_555
O14_3 C62_3 1_555 1_555
C59_3 C60_3 1_555 1_555
C60_3 C63_3 1_555 1_555
C61_3 C62_3 1_555 1_555
C63_3 C61_3 1_555 1_555
H37_3 C63_3 1_555 1_555
C65_3 C60_3 1_555 1_555
H39_3 C65_3 1_555 1_555
Co10_3 O9_3 1_555 1_555
O15_4 C66_4 1_555 1_555
H39_4 C65_4 1_555 1_555
O13_2 Co9_3 1_555 1_555
C65_4 C66_4 1_555 1_555
O15_4 H42_4 1_555 1_555
Co9_2 O2_4 1_555 1_555
O1_2 C10_4 1_555 1_555
O2_4 C17_4 1_555 1_555
O3_2 C10_4 1_555 1_555
O22_2 C17_4 1_555 1_555
O5_4 C22_4 1_555 1_555
N1_4 Co9_2 1_555 1_555
N2_4 Co9_2 1_555 1_555
C1_4 N2_4 1_555 1_555
H1_4 C1_4 1_555 1_555
C2_4 N2_4 1_555 1_555
H2_4 C2_4 1_555 1_555
C3_4 C1_4 1_555 1_555
H3_4 C3_4 1_555 1_555
C4_4 N1_4 1_555 1_555
H4_4 C4_4 1_555 1_555
C5_4 C2_4 1_555 1_555
H5_4 C5_4 1_555 1_555
C6_4 N1_4 1_555 1_555
H6_4 C6_4 1_555 1_555
C7_4 H7_4 1_555 1_555
C8_4 H8_4 1_555 1_555
C9_4 C7_4 1_555 1_555
C10_4 C13_4 1_555 1_555
C11_4 C6_4 1_555 1_555
H9_4 C11_4 1_555 1_555
C12_4 C4_4 1_555 1_555
H10_4 C12_4 1_555 1_555
C13_4 C19_4 1_555 1_555
C14_4 C17_4 1_555 1_555
C15_4 C3_4 1_555 1_555
C16_4 C8_4 1_555 1_555
C18_4 C11_4 1_555 1_555
C19_4 C14_4 1_555 1_555
H11_4 C19_4 1_555 1_555
C20_4 C14_4 1_555 1_555
H12_4 C20_4 1_555 1_555
C21_4 C13_4 1_555 1_555
H13_4 C21_4 1_555 1_555
C22_4 C20_4 1_555 1_555
N5_4 C37_4 1_555 1_555
C37_4 H24_4 1_555 1_555
C38_4 N5_4 1_555 1_555
H25_4 C38_4 1_555 1_555
C39_4 C37_4 1_555 1_555
H26_4 C39_4 1_555 1_555
C40_4 C38_4 1_555 1_555
H27_4 C40_4 1_555 1_555
C41_4 H28_4 1_555 1_555
C42_4 C7_4 1_555 1_555
C43_4 C39_4 1_555 1_555
N6_4 C44_4 1_555 1_555
C44_4 H29_4 1_555 1_555
C45_4 N6_4 1_555 1_555
H30_4 C45_4 1_555 1_555
C46_4 C44_4 1_555 1_555
H31_4 C46_4 1_555 1_555
C47_4 C45_4 1_555 1_555
H32_4 C47_4 1_555 1_555
C48_4 C9_4 1_555 1_555
H33_4 C48_4 1_555 1_555
C49_4 C41_4 1_555 1_555
C50_4 C46_4 1_555 1_555
Co10_2 N5_4 1_555 1_555
O6_2 C51_4 1_555 1_555
O7_4 Co10_2 1_555 1_555
O23_2 C54_4 1_555 1_555
C51_4 C52_4 1_555 1_555
C52_4 C55_4 1_555 1_555
C53_4 C54_4 1_555 1_555
C54_4 O7_4 1_555 1_555
C55_4 C53_4 1_555 1_555
H34_4 C55_4 1_555 1_555
C56_4 C53_4 1_555 1_555
H35_4 C56_4 1_555 1_555
Co11_2 N6_4 1_555 1_555
O11_2 C59_4 1_555 1_555
O12_4 Co11_2 1_555 1_555
O24_2 C62_4 1_555 1_555
C59_4 C60_4 1_555 1_555
C60_4 C63_4 1_555 1_555
C61_4 C62_4 1_555 1_555
C62_4 O12_4 1_555 1_555
C63_4 C61_4 1_555 1_555
H37_4 C63_4 1_555 1_555
C64_4 C61_4 1_555 1_555
H38_4 C64_4 1_555 1_555
Co10_3 O1_2 1_555 1_555
O16_3 Co10_2 1_555 1_555
O17_3 Co11_2 1_555 1_555
O18_3 Co9_2 1_555 1_555
O19_3 Co10_2 1_555 1_555
O20_3 Co11_2 1_555 1_555
O21_3 Co9_2 1_555 1_555
N7 Co10_2 1_555 1_555
N8 Co11_2 1_555 1_555
O3_2 Co10_3 1_555 1_555
C5_4 C15_4 1_555 1_555
C9_4 C15_4 1_555 1_555
C12_4 C18_4 1_555 1_555
C16_4 C18_4 1_555 1_555
C21_4 C22_4 1_555 1_555
C40_4 C43_4 1_555 1_555
C41_4 C42_4 1_555 1_555
C42_4 C43_4 1_555 1_555
C47_4 C50_4 1_555 1_555
C48_4 C49_4 1_555 1_555
C49_4 C50_4 1_555 1_555
O5_4 H40_4 1_555 1_555
H21_4 C32_4 1_555 1_555
O10_4 C58_4 1_555 1_555
H36_4 C57_4 1_555 1_555
O8_2 Co11_3 1_555 1_555
C57_4 C58_4 1_555 1_555
O10_4 H41_4 1_555 1_555
N7 C23_4 1_555 1_555
C23_4 H14_4 1_555 1_555
C24_4 N7 1_555 1_555
H15_4 C24_4 1_555 1_555
C26_4 C24_4 1_555 1_555
C27_4 C23_4 1_555 1_555
H18_4 C27_4 1_555 1_555
C29_4 C26_4 1_555 1_555
C27_4 C29_4 1_555 1_555
C28_4 C29_4 1_555 1_555
C25_4 H16_4 1_555 1_555
N8 C30_4 1_555 1_555
C30_4 H19_4 1_555 1_555
C31_4 N8 1_555 1_555
H20_4 C31_4 1_555 1_555
C33_4 C31_4 1_555 1_555
C34_4 C30_4 1_555 1_555
H23_4 C34_4 1_555 1_555
C35_4 C25_4 1_555 1_555
C36_4 C33_4 1_555 1_555
C34_4 C36_4 1_555 1_555
C35_4 C36_4 1_555 1_555
C41_5 H28_5 1_555 1_555
N6_5 C44_5 1_555 1_555
C44_5 H29_5 1_555 1_555
C45_5 N6_5 1_555 1_555
H30_5 C45_5 1_555 1_555
C46_5 C44_5 1_555 1_555
H31_5 C46_5 1_555 1_555
C47_5 C45_5 1_555 1_555
H32_5 C47_5 1_555 1_555
C49_5 C41_5 1_555 1_555
C50_5 C46_5 1_555 1_555
Co11 N6_5 1_555 1_555
O18_3 C59_5 1_555 1_555
O12_5 Co11 1_555 1_555
O21_3 C59_5 1_555 1_555
O24 C62_5 1_555 1_555
O15_5 C66_5 1_555 1_555
C59_5 C60_5 1_555 1_555
C60_5 C63_5 1_555 1_555
C61_5 C62_5 1_555 1_555
C62_5 O12_5 1_555 1_555
C63_5 C61_5 1_555 1_555
H37_5 C63_5 1_555 1_555
C64_5 C61_5 1_555 1_555
H38_5 C64_5 1_555 1_555
C65_5 C60_5 1_555 1_555
H39_5 C65_5 1_555 1_555
C66_5 C64_5 1_555 1_555
O17_4 Co11 1_555 1_555
O20_4 Co11 1_555 1_555
N8_2 Co11 1_555 1_555
C47_5 C50_5 1_555 1_555
C49_5 C50_5 1_555 1_555
C65_5 C66_5 1_555 1_555
O15_5 H42_5 1_555 1_555
N5_5 C37_5 1_555 1_555
C37_5 H24_5 1_555 1_555
C38_5 N5_5 1_555 1_555
H25_5 C38_5 1_555 1_555
C39_5 C37_5 1_555 1_555
H26_5 C39_5 1_555 1_555
C40_5 C38_5 1_555 1_555
C43_5 C39_5 1_555 1_555
Co10 N5_5 1_555 1_555
O7_5 Co10 1_555 1_555
O23 C54_5 1_555 1_555
C53_5 C54_5 1_555 1_555
C54_5 O7_5 1_555 1_555
O16_4 Co10 1_555 1_555
O19_4 Co10 1_555 1_555
N7_2 Co10 1_555 1_555
C40_5 C43_5 1_555 1_555
C42_5 C43_5 1_555 1_555
O16_3 C10_5 1_555 1_555
O19_3 C10_5 1_555 1_555
O5_5 C22_5 1_555 1_555
C10_5 C13_5 1_555 1_555
C13_5 C19_5 1_555 1_555
C21_5 C13_5 1_555 1_555
H13_5 C21_5 1_555 1_555
C22_5 C20_5 1_555 1_555
H33_5 C48_5 1_555 1_555
C21_5 C22_5 1_555 1_555
O5_5 H40_5 1_555 1_555
Co9 O2_5 1_555 1_555
O2_5 C17_5 1_555 1_555
O22 C17_5 1_555 1_555
N1_5 Co9 1_555 1_555
N2_5 Co9 1_555 1_555
C1_5 N2_5 1_555 1_555
H1_5 C1_5 1_555 1_555
C2_5 N2_5 1_555 1_555
H2_5 C2_5 1_555 1_555
C3_5 C1_5 1_555 1_555
H3_5 C3_5 1_555 1_555
C4_5 N1_5 1_555 1_555
H4_5 C4_5 1_555 1_555
C5_5 C2_5 1_555 1_555
C6_5 N1_5 1_555 1_555
H6_5 C6_5 1_555 1_555
C7_5 H7_5 1_555 1_555
C8_5 H8_5 1_555 1_555
C9_5 C7_5 1_555 1_555
C11_5 C6_5 1_555 1_555
H9_5 C11_5 1_555 1_555
C12_5 C4_5 1_555 1_555
H10_5 C12_5 1_555 1_555
C14_5 C17_5 1_555 1_555
C15_5 C3_5 1_555 1_555
C16_5 C8_5 1_555 1_555
C18_5 C11_5 1_555 1_555
N7_2 C23_5 1_555 1_555
C23_5 H14_5 1_555 1_555
C24_5 N7_2 1_555 1_555
H15_5 C24_5 1_555 1_555
C25_5 H16_5 1_555 1_555
C26_5 C24_5 1_555 1_555
H17_5 C26_5 1_555 1_555
C27_5 C23_5 1_555 1_555
H18_5 C27_5 1_555 1_555
C28_5 C8_5 1_555 1_555
C29_5 C26_5 1_555 1_555
N8_2 C30_5 1_555 1_555
C30_5 H19_5 1_555 1_555
C31_5 N8_2 1_555 1_555
H20_5 C31_5 1_555 1_555
C32_5 C16_5 1_555 1_555
H21_5 C32_5 1_555 1_555
C33_5 C31_5 1_555 1_555
H22_5 C33_5 1_555 1_555
C34_5 C30_5 1_555 1_555
H23_5 C34_5 1_555 1_555
C35_5 C25_5 1_555 1_555
C36_5 C33_5 1_555 1_555
O17_3 C51_5 1_555 1_555
O20_3 C51_5 1_555 1_555
O10_5 C58_5 1_555 1_555
C51_5 C52_5 1_555 1_555
C52_5 C55_5 1_555 1_555
C57_5 C52_5 1_555 1_555
H36_5 C57_5 1_555 1_555
C58_5 C56_5 1_555 1_555
O18_4 Co9 1_555 1_555
O21_4 Co9 1_555 1_555
C5_5 C15_5 1_555 1_555
C9_5 C15_5 1_555 1_555
C12_5 C18_5 1_555 1_555
C16_5 C18_5 1_555 1_555
C25_5 C28_5 1_555 1_555
C27_5 C29_5 1_555 1_555
C28_5 C29_5 1_555 1_555
C32_5 C35_5 1_555 1_555
C34_5 C36_5 1_555 1_555
C35_5 C36_5 1_555 1_555
C57_5 C58_5 1_555 1_555
O10_5 H41_5 1_555 1_555
O16_4 C10_6 1_555 1_555
O19_4 C10_6 1_555 1_555
O22_3 C17_6 1_555 1_555
C10_6 C13_6 1_555 1_555
C13_6 C19_6 1_555 1_555
C14_6 C17_6 1_555 1_555
C19_6 C14_6 1_555 1_555
H11_6 C19_6 1_555 1_555
C21_6 C13_6 1_555 1_555
H13_6 C21_6 1_555 1_555
O17_4 C51_6 1_555 1_555
O20_4 C51_6 1_555 1_555
O23_3 C54_6 1_555 1_555
C51_6 C52_6 1_555 1_555
C52_6 C55_6 1_555 1_555
C53_6 C54_6 1_555 1_555
C55_6 C53_6 1_555 1_555
H34_6 C55_6 1_555 1_555
C57_6 C52_6 1_555 1_555
H36_6 C57_6 1_555 1_555
O18_4 C59_6 1_555 1_555
O21_4 C59_6 1_555 1_555
O24_3 C62_6 1_555 1_555
C59_6 C60_6 1_555 1_555
C60_6 C63_6 1_555 1_555
C61_6 C62_6 1_555 1_555
C63_6 C61_6 1_555 1_555
H37_6 C63_6 1_555 1_555
C65_6 C60_6 1_555 1_555
H39_6 C65_6 1_555 1_555
O5_6 C22_6 1_555 1_555
N2_6 Co9_3 1_555 1_555
C1_6 N2_6 1_555 1_555
H1_6 C1_6 1_555 1_555
C2_6 N2_6 1_555 1_555
H2_6 C2_6 1_555 1_555
C3_6 C1_6 1_555 1_555
H3_6 C3_6 1_555 1_555
C5_6 C2_6 1_555 1_555
H5_6 C5_6 1_555 1_555
C7_6 H7_6 1_555 1_555
C9_6 C7_6 1_555 1_555
C15_6 C3_6 1_555 1_555
H12_6 C20_6 1_555 1_555
C22_6 C20_6 1_555 1_555
N5_6 C37_6 1_555 1_555
C37_6 H24_6 1_555 1_555
C38_6 N5_6 1_555 1_555
H25_6 C38_6 1_555 1_555
C39_6 C37_6 1_555 1_555
H26_6 C39_6 1_555 1_555
C40_6 C38_6 1_555 1_555
H27_6 C40_6 1_555 1_555
C41_6 H28_6 1_555 1_555
C42_6 C7_6 1_555 1_555
C43_6 C39_6 1_555 1_555
N6_6 C44_6 1_555 1_555
C44_6 H29_6 1_555 1_555
C45_6 N6_6 1_555 1_555
H30_6 C45_6 1_555 1_555
C46_6 C44_6 1_555 1_555
H31_6 C46_6 1_555 1_555
C47_6 C45_6 1_555 1_555
H32_6 C47_6 1_555 1_555
C48_6 C9_6 1_555 1_555
H33_6 C48_6 1_555 1_555
C49_6 C41_6 1_555 1_555
C50_6 C46_6 1_555 1_555
Co10_3 N5_6 1_555 1_555
O7_6 Co10_3 1_555 1_555
O10_6 C58_6 1_555 1_555
H35_6 C56_6 1_555 1_555
C58_6 C56_6 1_555 1_555
Co11_3 N6_6 1_555 1_555
O15_6 C66_6 1_555 1_555
H38_6 C64_6 1_555 1_555
C66_6 C64_6 1_555 1_555
N7_3 Co10_3 1_555 1_555
C5_6 C15_6 1_555 1_555
C9_6 C15_6 1_555 1_555
C40_6 C43_6 1_555 1_555
C41_6 C42_6 1_555 1_555
C42_6 C43_6 1_555 1_555
C47_6 C50_6 1_555 1_555
C48_6 C49_6 1_555 1_555
C49_6 C50_6 1_555 1_555
O5_6 H40_6 1_555 1_555
O10_6 H41_6 1_555 1_555
O15_6 H42_6 1_555 1_555
C4_6 N1_6 1_555 1_555
H4_6 C4_6 1_555 1_555
C6_6 N1_6 1_555 1_555
H6_6 C6_6 1_555 1_555
C8_6 H8_6 1_555 1_555
C11_6 C6_6 1_555 1_555
H9_6 C11_6 1_555 1_555
C12_6 C4_6 1_555 1_555
H10_6 C12_6 1_555 1_555
C16_6 C8_6 1_555 1_555
C18_6 C11_6 1_555 1_555
N7_3 C23_6 1_555 1_555
C23_6 H14_6 1_555 1_555
C24_6 N7_3 1_555 1_555
H15_6 C24_6 1_555 1_555
C25_6 H16_6 1_555 1_555
C26_6 C24_6 1_555 1_555
H17_6 C26_6 1_555 1_555
C27_6 C23_6 1_555 1_555
H18_6 C27_6 1_555 1_555
C28_6 C8_6 1_555 1_555
C29_6 C26_6 1_555 1_555
N8_3 C30_6 1_555 1_555
C30_6 H19_6 1_555 1_555
C31_6 N8_3 1_555 1_555
H20_6 C31_6 1_555 1_555
C32_6 C16_6 1_555 1_555
H21_6 C32_6 1_555 1_555
C33_6 C31_6 1_555 1_555
H22_6 C33_6 1_555 1_555
C34_6 C30_6 1_555 1_555
H23_6 C34_6 1_555 1_555
C35_6 C25_6 1_555 1_555
C36_6 C33_6 1_555 1_555
C12_6 C18_6 1_555 1_555
C16_6 C18_6 1_555 1_555
C25_6 C28_6 1_555 1_555
C27_6 C29_6 1_555 1_555
C28_6 C29_6 1_555 1_555
C32_6 C35_6 1_555 1_555
C34_6 C36_6 1_555 1_555
C35_6 C36_6 1_555 1_555

#END
