
###############################################################################
#
# This file contains modified crystal structure data generated from the
# MOF subset of the Cambridge Structural Database (CSD) v543 
# hosted by the Cambridge Crystallographic Data Centre (CCDC).
#
# This work is licensed under the Creative Commons
# Attribution-NonCommercial-ShareAlike 4.0 International License.
# To view a copy of this license, visit
# http://creativecommons.org/licenses/by-nc-sa/4.0/
# or send a letter to
# Creative Commons, PO Box 1866, Mountain View, CA 94042, USA.
#
# CIF created using the CSD Python API on 29 September 2022
# The structure has been converted into the P1 space group
# The structure has a 3D framework
# The original CSD entry RAMJOH is in the monoclinic crystal system
# The framework has been calculated to contain at least 10.0% void space
# The void calculation uses a probe of radius 1.32A, grid spacing 0.4
# The framework is charged, counterions have been retained in the structure
# H atom positions have been added when not included in the experimental data
# Generated hydrogen atom positions removed from atoms on special positions
#
###############################################################################

data_RAMJOH
_chemical_formula_moiety         '(C936 H724 Cd44 N32 O250 2-)n'
_symmetry_cell_setting           triclinic
_symmetry_space_group_name_H-M   'P 1'
_symmetry_Int_Tables_number      1
_space_group_name_Hall           'P 1'
loop_
_symmetry_equiv_pos_site_id
_symmetry_equiv_pos_as_xyz
1 x,y,z
_cell_length_a                   53.600(11)
_cell_length_b                   13.976(3)
_cell_length_c                   47.389(9)
_cell_angle_alpha                90
_cell_angle_beta                 118.27(3)
_cell_angle_gamma                90
_cell_volume                     31265.5
loop_
_atom_site_label
_atom_site_type_symbol
_atom_site_fract_x
_atom_site_fract_y
_atom_site_fract_z
H9 H 0.2167 0.0141 0.0894
C18 C 0.17743(16) 0.0409(7) 0.05175(19)
H10 H 0.1730 0.0896 0.0620
C19 C 0.15820(16) 0.0167(6) 0.02181(18)
C22 C 0.12967(15) 0.0532(6) 0.00579(17)
C23 C 0.11610(16) 0.0791(6) 0.02326(19)
H13 H 0.1260 0.0728 0.0454
C24 C 0.08908(15) 0.1134(6) 0.00980(18)
H14 H 0.0815 0.1345 0.0227
C45 C 0.36270(17) 0.0054(7) 0.1724(2)
H25 H 0.3579 0.0009 0.1508
C46 C 0.38729(17) 0.0514(7) 0.19312(18)
H26 H 0.3992 0.0741 0.1853
C47 C 0.39530(15) 0.0659(6) 0.22635(17)
C48 C 0.37618(17) 0.0315(7) 0.23570(19)
H27 H 0.3799 0.0398 0.2568
C50 C 0.42188(15) 0.1117(6) 0.24827(17)
C51 C 0.44043(16) 0.1465(6) 0.23668(18)
H29 H 0.4349 0.1453 0.2149
C52 C 0.46616(16) 0.1811(6) 0.25800(17)
H30 H 0.4782 0.2023 0.2502
C53 C 0.47570(14) 0.1870(6) 0.29081(16)
C54 C 0.45685(15) 0.1571(6) 0.30149(18)
H31 H 0.4620 0.1615 0.3232
C55 C 0.43030(16) 0.1208(6) 0.28016(17)
H32 H 0.4180 0.1024 0.2879
C56 C 0.50486(15) 0.2161(6) 0.31288(18)
O15 O 0.51427(9) 0.2029(3) 0.34318(10)
O16 O 0.52008(10) 0.2516(4) 0.30227(11)
Cd15 Cd 0.515436(9) 0.28404(3) 0.385495(10)
Cd17 Cd 0.560853(9) 0.26892(3) 0.351900(11)
C25 C 0.07299(15) 0.1165(6) 0.97655(17)
C26 C 0.08531(14) 0.0894(5) 0.95791(17)
H15 H 0.0748 0.0912 0.9357
C27 C 0.11336(15) 0.0595(6) 0.97224(17)
H16 H 0.1215 0.0433 0.9594
C28 C 0.04227(15) 0.1481(6) 0.96171(18)
O7 O 0.03337(10) 0.1801(5) 0.97981(12)
O8 O 0.02685(9) 0.1371(3) 0.93261(11)
Cd13 Cd 0.015436(9) 0.21596(3) 0.885495(10)
O42 O 0.00889(13) 0.3828(4) 0.94843(15)
C1 C 0.33139(16) 0.7604(6) 0.07575(19)
C2 C 0.35152(14) 0.7541(5) 0.06145(16)
C3 C 0.34537(15) 0.8039(5) 0.03396(17)
H1 H 0.3290 0.8408 0.0242
C4 C 0.36362(14) 0.7993(5) 0.02065(17)
H2 H 0.3590 0.8329 0.0019
C5 C 0.38840(14) 0.7465(5) 0.03439(17)
C6 C 0.39444(14) 0.6963(5) 0.06214(17)
H3 H 0.4109 0.6598 0.0718
C7 C 0.37683(14) 0.6989(5) 0.07567(17)
H4 H 0.3814 0.6643 0.0943
C8 C 0.40706(14) 0.7428(5) 0.02013(17)
C9 C 0.40931(14) 0.8248(6) 0.00323(17)
H5 H 0.3999 0.8812 0.0027
C12 C 0.43787(14) 0.6583(5) 0.00404(16)
H7 H 0.4474 0.6021 0.0047
C13 C 0.42150(13) 0.6603(5) 0.01952(16)
H8 H 0.4201 0.6054 0.0298
C15 C 0.23978(15) 0.8778(6) 0.07310(18)
C16 C 0.21236(15) 0.9254(6) 0.05500(17)
C17 C 0.20437(17) 0.9951(7) 0.06856(19)
C20 C 0.16719(15) 0.9419(6) 0.00801(18)
C21 C 0.19316(15) 0.8994(6) 0.02377(17)
H12 H 0.1981 0.8522 0.0135
C29 C 0.27687(16) 0.6162(5) 0.1152(2)
C30 C 0.26852(16) 0.5242(5) 0.12473(19)
C31 C 0.25952(17) 0.4449(6) 0.1032(2)
H17 H 0.2586 0.4508 0.0832
C32 C 0.25233(17) 0.3605(6) 0.1119(2)
H18 H 0.2461 0.3101 0.0973
C33 C 0.25395(16) 0.3474(6) 0.14151(19)
C34 C 0.26186(16) 0.4256(5) 0.16207(19)
H19 H 0.2623 0.4191 0.1818
C35 C 0.26914(16) 0.5126(5) 0.15421(19)
H20 H 0.2744 0.5633 0.1686
C36 C 0.24805(18) 0.2506(5) 0.1509(2)
C37 C 0.25882(16) 0.1707(5) 0.14340(18)
H21 H 0.2690 0.1781 0.1322
C38 C 0.25469(16) 0.0770(5) 0.15239(18)
H22 H 0.2619 0.0241 0.1468
C39 C 0.24006(16) 0.0649(5) 0.16942(18)
C40 C 0.23021(17) 0.1488(5) 0.17831(18)
H23 H 0.2201 0.1431 0.1897
C41 C 0.23565(18) 0.2382(6) 0.1701(2)
H24 H 0.2307 0.2920 0.1780
C43 C 0.32042(16) 0.9073(6) 0.16208(18)
C44 C 0.34475(15) 0.9652(6) 0.18309(17)
C49 C 0.35135(17) 0.9845(7) 0.21420(19)
H28 H 0.3387 0.9654 0.2214
C57 C 0.27285(15) 0.6966(6) 0.21758(17)
C58 C 0.29929(15) 0.6473(6) 0.23873(16)
C59 C 0.30027(15) 0.5790(6) 0.26262(17)
H33 H 0.2841 0.5658 0.2644
C60 C 0.32542(15) 0.5348(6) 0.28233(17)
H34 H 0.3259 0.4918 0.2975
C61 C 0.35053(15) 0.5515(6) 0.28059(17)
C62 C 0.34883(15) 0.6093(6) 0.25669(17)
H35 H 0.3646 0.6158 0.2536
C63 C 0.32435(15) 0.6591(6) 0.23674(17)
H36 H 0.3246 0.7013 0.2217
C64 C 0.37703(15) 0.5016(6) 0.30238(18)
C65 C 0.38252(15) 0.4783(6) 0.33309(18)
H37 H 0.3692 0.4923 0.3399
C66 C 0.40840(16) 0.4331(6) 0.35438(19)
H38 H 0.4115 0.4152 0.3747
C67 C 0.42861(14) 0.4156(6) 0.34582(18)
C68 C 0.42310(15) 0.4357(6) 0.31488(18)
H39 H 0.4364 0.4205 0.3082
C69 C 0.39768(15) 0.4786(6) 0.29368(19)
H40 H 0.3944 0.4925 0.2730
C70 C 0.45631(15) 0.3724(6) 0.37022(18)
C71 C 0.20837(16) 0.6670(6) 0.12245(19)
C72 C 0.19061(14) 0.6016(5) 0.09456(17)
C73 C 0.19645(15) 0.5936(5) 0.06986(17)
H41 H 0.2116 0.6272 0.0703
C74 C 0.18003(14) 0.5358(5) 0.04389(17)
H42 H 0.1847 0.5303 0.0274
C75 C 0.15667(14) 0.4853(5) 0.04166(17)
C76 C 0.15107(15) 0.4948(6) 0.06727(17)
H43 H 0.1357 0.4626 0.0667
C77 C 0.16770(15) 0.5506(6) 0.09345(18)
H44 H 0.1637 0.5545 0.1105
C78 C 0.13783(15) 0.4324(5) 0.01218(16)
C83 C 0.10916(14) 0.4169(5) 0.00284(16)
H48 H 0.1019 0.4373 0.0162
C85 C 0.2076(2) 0.7355(8) 0.2421(2)
H49 H 0.2264 0.7168 0.2498
C86 C 0.1968(2) 0.7346(8) 0.2635(3)
H50 H 0.2081 0.7188 0.2850
C87 C 0.1689(2) 0.7578(8) 0.2521(3)
C88 C 0.1528(2) 0.7751(8) 0.2201(3)
H51 H 0.1334 0.7855 0.2113
C89 C 0.1661(2) 0.7771(7) 0.2006(2)
H52 H 0.1551 0.7903 0.1790
C90 C 0.1566(2) 0.7677(9) 0.2763(3)
H53 H 0.1362 0.7599 0.2649
H54 H 0.1644 0.7180 0.2924
C91 C 0.1635(2) 0.8598(9) 0.2914(2)
H55 H 0.1487 0.9045 0.2782
H56 H 0.1809 0.8817 0.2921
C92 C 0.1670(2) 0.8633(9) 0.3241(2)
H57 H 0.1721 0.9281 0.3320
H58 H 0.1828 0.8223 0.3375
C93 C 0.1416(2) 0.8339(9) 0.3280(3)
C94 C 0.1435(2) 0.7758(9) 0.3498(3)
H59 H 0.1609 0.7471 0.3625
C95 C 0.1217(2) 0.7532(9) 0.3555(3)
H60 H 0.1246 0.7096 0.3716
C96 C 0.0932(2) 0.8444(8) 0.3155(2)
H61 H 0.0755 0.8704 0.3018
C97 C 0.1156(2) 0.8636(9) 0.3100(3)
H62 H 0.1120 0.9005 0.2922
C112 C 0.16928(19) 0.8547(7) 0.1169(2)
H71 H 0.1852 0.8689 0.1146
C113 C 0.1438(2) 0.8165(9) 0.0588(2)
H72 H 0.1610 0.8380 0.0593
H73 H 0.1279 0.8493 0.0421
H74 H 0.1417 0.7489 0.0549
C114 C 0.1191(3) 0.8342(13) 0.0927(3)
H75 H 0.1088 0.7769 0.0829
H76 H 0.1077 0.8890 0.0823
H77 H 0.1240 0.8349 0.1150
Cd1 Cd 0.293315(10) 0.77986(3) 0.097628(11)
Cd2 Cd 0.263400(9) 0.80358(3) 0.148364(11)
Cd3 Cd 0.217361(10) 0.78457(3) 0.183223(11)
N1 N 0.19337(12) 0.7609(5) 0.21168(14)
N2 N 0.09568(13) 0.7935(5) 0.33801(16)
N3 N 0.14492(15) 0.8370(8) 0.08965(18)
O1 O 0.30876(11) 0.8027(5) 0.06089(13)
O2 O 0.33839(12) 0.7204(4) 0.10194(14)
O5 O 0.25326(10) 0.8887(4) 0.10255(12)
O6 O 0.24937(11) 0.8284(5) 0.05850(12)
O9 O 0.28613(10) 0.6831(4) 0.13524(13)
O10 O 0.27518(12) 0.6234(4) 0.08808(13)
O13 O 0.30350(10) 0.8851(4) 0.17195(11)
O14 O 0.31850(10) 0.8832(4) 0.13513(12)
O17 O 0.27251(13) 0.7392(5) 0.19495(14)
O18 O 0.25324(11) 0.6976(5) 0.22307(12)
O19 O 0.47452(9) 0.3590(4) 0.36068(11)
O20 O 0.45880(10) 0.3529(4) 0.39702(11)
O21 O 0.20363(11) 0.6679(4) 0.14611(12)
O22 O 0.22560(11) 0.7187(4) 0.11863(12)
O29 O 0.17246(11) 0.8540(5) 0.14406(12)
Cd11 Cd 0.489325(10) 0.27265(4) 0.440424(11)
Cd16 Cd 0.060853(9) 0.76892(3) 0.351900(11)
O34 O 0.23449(10) 0.8997(3) 0.16012(12)
O35 O 0.22705(12) 0.9558(4) 0.19805(13)
C10 C 0.42558(15) 0.8192(6) 0.98779(17)
H6 H 0.4267 0.8729 0.9769
C11 C 0.44063(15) 0.7355(5) 0.98776(18)
C14 C 0.45651(16) 0.7319(6) 0.96998(18)
H11 H 0.1548 0.9214 0.9874
C79 C 0.14732(16) 0.3968(6) 0.99151(17)
H45 H 0.1665 0.4019 0.9973
C80 C 0.12888(15) 0.3534(6) 0.96206(18)
H46 H 0.1356 0.3335 0.9482
C81 C 0.10025(14) 0.3405(5) 0.95381(16)
C82 C 0.09151(15) 0.3727(5) 0.97469(16)
H47 H 0.0726 0.3642 0.9696
C84 C 0.08064(15) 0.2965(5) 0.92244(17)
C98 C 0.04442(16) 0.0436(5) 0.85769(19)
C115 C 0.06786(18) 0.4493(6) 0.8684(2)
H78 H 0.0520 0.4389 0.8712
C116 C 0.1139(2) 0.5154(9) 0.8876(3)
H79 H 0.1252 0.4627 0.9000
H80 H 0.1230 0.5745 0.8974
H81 H 0.1117 0.5119 0.8663
C117 C 0.0816(2) 0.5622(7) 0.9111(2)
H82 H 0.0667 0.5326 0.9137
H83 H 0.0768 0.6278 0.9048
H84 H 0.0989 0.5595 0.9309
Cd6 Cd 0.060853(9) 0.23108(3) 0.851900(11)
N4 N 0.08528(17) 0.5110(6) 0.88610(19)
O3 O 0.45661(13) 0.8000(5) 0.95329(16)
O4 O 0.47061(13) 0.6607(5) 0.97195(14)
O23 O 0.05505(9) 0.2997(3) 0.91541(11)
O24 O 0.09012(9) 0.2663(4) 0.90459(11)
O25 O 0.05402(15) 0.0495(4) 0.83911(17)
O26 O 0.04258(9) 0.1159(3) 0.87287(12)
O30 O 0.06993(12) 0.3995(4) 0.84697(14)
Cd10 Cd 0.489325(10) 0.72735(4) 0.940424(11)
N5 N 0.09568(13) 0.2065(5) 0.83801(16)
O36 O 0.01427(9) 0.2971(3) 0.84318(10)
O37 O 0.02008(10) 0.2484(4) 0.80227(11)
C42 C 0.23397(16) 0.9694(5) 0.17736(19)
C99 C 0.03683(16) 0.9481(5) 0.86616(18)
C100 C 0.03906(17) 0.8652(5) 0.85089(19)
H63 H 0.0448 0.8700 0.8352
C101 C 0.03283(18) 0.7757(5) 0.8589(2)
H64 H 0.0349 0.7211 0.8490
C102 C 0.02350(17) 0.7674(5) 0.88168(19)
C103 C 0.02110(16) 0.8510(5) 0.89639(18)
H65 H 0.0149 0.8469 0.9116
C104 C 0.02766(16) 0.9379(5) 0.88900(18)
H66 H 0.0260 0.9919 0.8994
C105 C 0.01764(17) 0.6725(5) 0.89119(19)
C106 C 0.00639(17) 0.5975(5) 0.86877(19)
H67 H 0.0024 0.6075 0.8476
C107 C 0.00139(17) 0.5107(6) 0.8778(2)
C108 C 0.00851(16) 0.4907(5) 0.90987(19)
C109 C 0.02098(17) 0.5633(5) 0.9323(2)
H69 H 0.0270 0.5512 0.9539
C110 C 0.02452(16) 0.6543(5) 0.92264(18)
H70 H 0.0316 0.7035 0.9376
C111 C 0.00326(16) 0.3964(5) 0.9201(2)
Cd4 Cd 0.989325(10) 0.22735(4) 0.940424(11)
O31 O 0.95661(13) 0.3000(5) 0.95329(16)
O32 O 0.97061(13) 0.1607(5) 0.97195(14)
O39 O 0.95880(10) 0.1471(4) 0.89702(11)
O41 O 0.99210(9) 0.3301(3) 0.89834(13)
O38 O 0.97452(9) 0.1410(4) 0.86068(11)
H68 H 0.9930 0.4631 0.8625
C56_2 C 0.00486(15) 0.7161(6) 0.31288(18)
O15_2 O 0.01427(9) 0.7029(3) 0.34318(10)
O16_2 O 0.02008(10) 0.7516(4) 0.30227(11)
Cd15_2 Cd 0.015436(9) 0.78404(3) 0.385495(10)
C1_2 C 0.83139(16) 0.2604(6) 0.07575(19)
C2_2 C 0.85152(14) 0.2541(5) 0.06145(16)
C3_2 C 0.84537(15) 0.3039(5) 0.03396(17)
H1_2 H 0.8290 0.3408 0.0242
C4_2 C 0.86362(14) 0.2993(5) 0.02065(17)
H2_2 H 0.8590 0.3329 0.0019
C5_2 C 0.88840(14) 0.2465(5) 0.03439(17)
C6_2 C 0.89444(14) 0.1963(5) 0.06214(17)
H3_2 H 0.9109 0.1598 0.0718
C7_2 C 0.87683(14) 0.1989(5) 0.07567(17)
H4_2 H 0.8814 0.1643 0.0943
C8_2 C 0.90706(14) 0.2428(5) 0.02013(17)
C9_2 C 0.90931(14) 0.3248(6) 0.00323(17)
H5_2 H 0.8999 0.3812 0.0027
C12_2 C 0.93787(14) 0.1583(5) 0.00404(16)
H7_2 H 0.9474 0.1021 0.0047
C13_2 C 0.92150(13) 0.1603(5) 0.01952(16)
H8_2 H 0.9201 0.1054 0.0298
C15_2 C 0.73978(15) 0.3778(6) 0.07310(18)
C16_2 C 0.71236(15) 0.4254(6) 0.05500(17)
C17_2 C 0.70437(17) 0.4951(7) 0.06856(19)
H9_2 H 0.7167 0.5141 0.0894
C18_2 C 0.67743(16) 0.5409(7) 0.05175(19)
H10_2 H 0.6730 0.5896 0.0620
C19_2 C 0.65820(16) 0.5167(6) 0.02181(18)
C20_2 C 0.66719(15) 0.4419(6) 0.00801(18)
C21_2 C 0.69316(15) 0.3994(6) 0.02377(17)
H12_2 H 0.6981 0.3522 0.0135
C22_2 C 0.62967(15) 0.5532(6) 0.00579(17)
C23_2 C 0.61610(16) 0.5791(6) 0.02326(19)
H13_2 H 0.6260 0.5728 0.0454
C24_2 C 0.58908(15) 0.6134(6) 0.00980(18)
H14_2 H 0.5815 0.6345 0.0227
C29_2 C 0.77687(16) 0.1162(5) 0.1152(2)
C30_2 C 0.76852(16) 0.0242(5) 0.12473(19)
C35_2 C 0.76914(16) 0.0126(5) 0.15421(19)
H20_2 H 0.7744 0.0633 0.1686
C43_2 C 0.82042(16) 0.4073(6) 0.16208(18)
C44_2 C 0.84475(15) 0.4652(6) 0.18309(17)
C45_2 C 0.86270(17) 0.5054(7) 0.1724(2)
H25_2 H 0.8579 0.5009 0.1508
C46_2 C 0.88729(17) 0.5514(7) 0.19312(18)
H26_2 H 0.8992 0.5741 0.1853
C47_2 C 0.89530(15) 0.5659(6) 0.22635(17)
C48_2 C 0.87618(17) 0.5315(7) 0.23570(19)
H27_2 H 0.8799 0.5398 0.2568
C49_2 C 0.85135(17) 0.4845(7) 0.21420(19)
H28_2 H 0.8387 0.4654 0.2214
C50_2 C 0.92188(15) 0.6117(6) 0.24827(17)
C51_2 C 0.94043(16) 0.6465(6) 0.23668(18)
H29_2 H 0.9349 0.6453 0.2149
C52_2 C 0.96616(16) 0.6811(6) 0.25800(17)
H30_2 H 0.9782 0.7023 0.2502
C53_2 C 0.97570(14) 0.6870(6) 0.29081(16)
C54_2 C 0.95685(15) 0.6571(6) 0.30149(18)
H31_2 H 0.9620 0.6615 0.3232
C55_2 C 0.93030(16) 0.6208(6) 0.28016(17)
H32_2 H 0.9180 0.6024 0.2879
C57_2 C 0.77285(15) 0.1966(6) 0.21758(17)
C58_2 C 0.79929(15) 0.1473(6) 0.23873(16)
C59_2 C 0.80027(15) 0.0790(6) 0.26262(17)
H33_2 H 0.7841 0.0658 0.2644
C60_2 C 0.82542(15) 0.0348(6) 0.28233(17)
C61_2 C 0.85053(15) 0.0515(6) 0.28059(17)
C62_2 C 0.84883(15) 0.1093(6) 0.25669(17)
H35_2 H 0.8646 0.1158 0.2536
C63_2 C 0.82435(15) 0.1591(6) 0.23674(17)
H36_2 H 0.8246 0.2013 0.2217
C64_2 C 0.87703(15) 0.0016(6) 0.30238(18)
C71_2 C 0.70837(16) 0.1670(6) 0.12245(19)
C72_2 C 0.69061(14) 0.1016(5) 0.09456(17)
C73_2 C 0.69645(15) 0.0936(5) 0.06986(17)
H41_2 H 0.7116 0.1272 0.0703
C74_2 C 0.68003(14) 0.0358(5) 0.04389(17)
H42_2 H 0.6847 0.0303 0.0274
C77_2 C 0.66770(15) 0.0506(6) 0.09345(18)
H44_2 H 0.6637 0.0545 0.1105
C85_2 C 0.7076(2) 0.2355(8) 0.2421(2)
H49_2 H 0.7264 0.2168 0.2498
C86_2 C 0.6968(2) 0.2346(8) 0.2635(3)
H50_2 H 0.7081 0.2188 0.2850
C87_2 C 0.6689(2) 0.2578(8) 0.2521(3)
C88_2 C 0.6528(2) 0.2751(8) 0.2201(3)
H51_2 H 0.6334 0.2855 0.2113
C89_2 C 0.6661(2) 0.2771(7) 0.2006(2)
H52_2 H 0.6551 0.2903 0.1790
C90_2 C 0.6566(2) 0.2677(9) 0.2763(3)
H53_2 H 0.6362 0.2599 0.2649
H54_2 H 0.6644 0.2180 0.2924
C91_2 C 0.6635(2) 0.3598(9) 0.2914(2)
H55_2 H 0.6487 0.4045 0.2782
H56_2 H 0.6809 0.3817 0.2921
C92_2 C 0.6670(2) 0.3633(9) 0.3241(2)
H57_2 H 0.6721 0.4281 0.3320
H58_2 H 0.6828 0.3223 0.3375
C93_2 C 0.6416(2) 0.3339(9) 0.3280(3)
C94_2 C 0.6435(2) 0.2758(9) 0.3498(3)
H59_2 H 0.6609 0.2471 0.3625
C95_2 C 0.6217(2) 0.2532(9) 0.3555(3)
H60_2 H 0.6246 0.2096 0.3716
C96_2 C 0.5932(2) 0.3444(8) 0.3155(2)
H61_2 H 0.5755 0.3704 0.3018
C97_2 C 0.6156(2) 0.3636(9) 0.3100(3)
H62_2 H 0.6120 0.4005 0.2922
C112_2 C 0.66928(19) 0.3547(7) 0.1169(2)
H71_2 H 0.6852 0.3689 0.1146
C113_2 C 0.6438(2) 0.3165(9) 0.0588(2)
H72_2 H 0.6610 0.3380 0.0593
H73_2 H 0.6279 0.3493 0.0421
H74_2 H 0.6417 0.2489 0.0549
C114_2 C 0.6191(3) 0.3342(13) 0.0927(3)
H75_2 H 0.6088 0.2769 0.0829
H76_2 H 0.6077 0.3890 0.0823
H77_2 H 0.6240 0.3349 0.1150
Cd1_2 Cd 0.793315(10) 0.27986(3) 0.097628(11)
Cd2_2 Cd 0.763400(9) 0.30358(3) 0.148364(11)
Cd3_2 Cd 0.717361(10) 0.28457(3) 0.183223(11)
N1_2 N 0.69337(12) 0.2609(5) 0.21168(14)
N2_2 N 0.59568(13) 0.2935(5) 0.33801(16)
N3_2 N 0.64492(15) 0.3370(8) 0.08965(18)
O1_2 O 0.80876(11) 0.3027(5) 0.06089(13)
O2_2 O 0.83839(12) 0.2204(4) 0.10194(14)
O5_2 O 0.75326(10) 0.3887(4) 0.10255(12)
O6_2 O 0.74937(11) 0.3284(5) 0.05850(12)
O9_2 O 0.78613(10) 0.1831(4) 0.13524(13)
O10_2 O 0.77518(12) 0.1234(4) 0.08808(13)
O13_2 O 0.80350(10) 0.3851(4) 0.17195(11)
O14_2 O 0.81850(10) 0.3832(4) 0.13513(12)
O17_2 O 0.77251(13) 0.2392(5) 0.19495(14)
O18_2 O 0.75324(11) 0.1976(5) 0.22307(12)
O21_2 O 0.70363(11) 0.1679(4) 0.14611(12)
O22_2 O 0.72560(11) 0.2187(4) 0.11863(12)
O29_2 O 0.67246(11) 0.3540(5) 0.14406(12)
O34_2 O 0.73449(10) 0.3997(3) 0.16012(12)
O35_2 O 0.72705(12) 0.4558(4) 0.19805(13)
C10_2 C 0.92558(15) 0.3192(6) 0.98779(17)
H6_2 H 0.9267 0.3729 0.9769
C11_2 C 0.94063(15) 0.2355(5) 0.98776(18)
C14_2 C 0.95651(16) 0.2319(6) 0.96998(18)
H11_2 H 0.6548 0.4214 0.9874
C25_2 C 0.57299(15) 0.6165(6) 0.97655(17)
C26_2 C 0.58531(14) 0.5894(5) 0.95791(17)
H15_2 H 0.5748 0.5912 0.9357
C27_2 C 0.61336(15) 0.5595(6) 0.97224(17)
H16_2 H 0.6215 0.5433 0.9594
C28_2 C 0.54227(15) 0.6481(6) 0.96171(18)
C116_2 C 0.6139(2) 0.0154(9) 0.8876(3)
H80_2 H 0.6230 0.0745 0.8974
H81_2 H 0.6117 0.0119 0.8663
C117_2 C 0.5816(2) 0.0622(7) 0.9111(2)
H82_2 H 0.5667 0.0326 0.9137
H83_2 H 0.5768 0.1278 0.9048
H84_2 H 0.5989 0.0595 0.9309
N4_2 N 0.58528(17) 0.0110(6) 0.88610(19)
O7_2 O 0.53337(10) 0.6801(5) 0.97981(12)
O8_2 O 0.52685(9) 0.6371(3) 0.93261(11)
Cd13_2 Cd 0.515436(9) 0.71596(3) 0.885495(10)
O39_2 O 0.45880(10) 0.6471(4) 0.89702(11)
O41_2 O 0.49210(9) 0.8301(3) 0.89834(13)
O42_2 O 0.50889(13) 0.8828(4) 0.94843(15)
C31_2 C 0.75952(17) 0.9449(6) 0.1032(2)
H17_2 H 0.7586 0.9508 0.0832
C32_2 C 0.75233(17) 0.8605(6) 0.1119(2)
H18_2 H 0.7461 0.8101 0.0973
C33_2 C 0.75395(16) 0.8474(6) 0.14151(19)
C34_2 C 0.76186(16) 0.9256(5) 0.16207(19)
H19_2 H 0.7623 0.9191 0.1818
C36_2 C 0.74805(18) 0.7506(5) 0.1509(2)
C37_2 C 0.75882(16) 0.6707(5) 0.14340(18)
H21_2 H 0.7690 0.6781 0.1322
C38_2 C 0.75469(16) 0.5770(5) 0.15239(18)
H22_2 H 0.7619 0.5241 0.1468
C39_2 C 0.74006(16) 0.5649(5) 0.16942(18)
C40_2 C 0.73021(17) 0.6488(5) 0.17831(18)
H23_2 H 0.7201 0.6431 0.1897
C41_2 C 0.73565(18) 0.7382(6) 0.1701(2)
H24_2 H 0.7307 0.7920 0.1780
C42_2 C 0.73397(16) 0.4694(5) 0.17736(19)
H34_2 H 0.8259 0.9918 0.2975
C65_2 C 0.88252(15) 0.9783(6) 0.33309(18)
H37_2 H 0.8692 0.9923 0.3399
C66_2 C 0.90840(16) 0.9331(6) 0.35438(19)
H38_2 H 0.9115 0.9152 0.3747
C67_2 C 0.92861(14) 0.9156(6) 0.34582(18)
C68_2 C 0.92310(15) 0.9357(6) 0.31488(18)
H39_2 H 0.9364 0.9205 0.3082
C69_2 C 0.89768(15) 0.9786(6) 0.29368(19)
H40_2 H 0.8944 0.9925 0.2730
C70_2 C 0.95631(15) 0.8724(6) 0.37022(18)
C75_2 C 0.65667(14) 0.9853(5) 0.04166(17)
C76_2 C 0.65107(15) 0.9948(6) 0.06727(17)
H43_2 H 0.6357 0.9626 0.0667
C78_2 C 0.63783(15) 0.9324(5) 0.01218(16)
C83_2 C 0.60916(14) 0.9169(5) 0.00284(16)
H48_2 H 0.6019 0.9373 0.0162
O19_2 O 0.97452(9) 0.8590(4) 0.36068(11)
O20_2 O 0.95880(10) 0.8529(4) 0.39702(11)
Cd11_2 Cd 0.989325(10) 0.77265(4) 0.440424(11)
C79_2 C 0.64732(16) 0.8968(6) 0.99151(17)
H45_2 H 0.6665 0.9019 0.9973
C80_2 C 0.62888(15) 0.8534(6) 0.96206(18)
H46_2 H 0.6356 0.8335 0.9482
C81_2 C 0.60025(14) 0.8405(5) 0.95381(16)
C82_2 C 0.59151(15) 0.8727(5) 0.97469(16)
H47_2 H 0.5726 0.8642 0.9696
C84_2 C 0.58064(15) 0.7965(5) 0.92244(17)
C98_2 C 0.54442(16) 0.5436(5) 0.85769(19)
C99_2 C 0.53683(16) 0.4481(5) 0.86616(18)
C100_2 C 0.53906(17) 0.3652(5) 0.85089(19)
H63_2 H 0.5448 0.3700 0.8352
C101_2 C 0.53283(18) 0.2757(5) 0.8589(2)
H64_2 H 0.5349 0.2211 0.8490
C102_2 C 0.52350(17) 0.2674(5) 0.88168(19)
C103_2 C 0.52110(16) 0.3510(5) 0.89639(18)
H65_2 H 0.5149 0.3469 0.9116
C104_2 C 0.52766(16) 0.4379(5) 0.88900(18)
H66_2 H 0.5260 0.4919 0.8994
C105_2 C 0.51764(17) 0.1725(5) 0.89119(19)
C106_2 C 0.50639(17) 0.0975(5) 0.86877(19)
H67_2 H 0.5024 0.1075 0.8476
C107_2 C 0.50139(17) 0.0107(6) 0.8778(2)
C109_2 C 0.52098(17) 0.0633(5) 0.9323(2)
H69_2 H 0.5270 0.0512 0.9539
C110_2 C 0.52452(16) 0.1543(5) 0.92264(18)
H70_2 H 0.5316 0.2035 0.9376
C115_2 C 0.56786(18) 0.9493(6) 0.8684(2)
H78_2 H 0.5520 0.9389 0.8712
H79_2 H 0.6252 0.9627 0.9000
Cd6_2 Cd 0.560853(9) 0.73108(3) 0.851900(11)
O23_2 O 0.55505(9) 0.7997(3) 0.91541(11)
O24_2 O 0.59012(9) 0.7663(4) 0.90459(11)
O25_2 O 0.55402(15) 0.5495(4) 0.83911(17)
O26_2 O 0.54258(9) 0.6159(3) 0.87287(12)
O30_2 O 0.56993(12) 0.8995(4) 0.84697(14)
N5_2 N 0.59568(13) 0.7065(5) 0.83801(16)
O36_2 O 0.51427(9) 0.7971(3) 0.84318(10)
O37_2 O 0.52008(10) 0.7484(4) 0.80227(11)
O38_2 O 0.47452(9) 0.6410(4) 0.86068(11)
H68_2 H 0.4930 0.9631 0.8625
C108_2 C 0.50851(16) 0.9907(5) 0.90987(19)
C111_2 C 0.50326(16) 0.8964(5) 0.9201(2)
C42_3 C 0.23397(16) 0.0306(5) 0.67736(19)
C99_3 C 0.03683(16) 0.0519(5) 0.36616(18)
C100_3 C 0.03906(17) 0.1348(5) 0.35089(19)
H63_3 H 0.0448 0.1300 0.3352
C101_3 C 0.03283(18) 0.2243(5) 0.3589(2)
H64_3 H 0.0349 0.2789 0.3490
C102_3 C 0.02350(17) 0.2326(5) 0.38168(19)
C103_3 C 0.02110(16) 0.1490(5) 0.39639(18)
H65_3 H 0.0149 0.1531 0.4116
C104_3 C 0.02766(16) 0.0621(5) 0.38900(18)
H66_3 H 0.0260 0.0081 0.3994
C105_3 C 0.01764(17) 0.3275(5) 0.39119(19)
C106_3 C 0.00639(17) 0.4025(5) 0.36877(19)
H67_3 H 0.0024 0.3925 0.3476
C107_3 C 0.00139(17) 0.4893(6) 0.3778(2)
C108_3 C 0.00851(16) 0.5093(5) 0.40987(19)
C109_3 C 0.02098(17) 0.4367(5) 0.4323(2)
H69_3 H 0.0270 0.4488 0.4539
C110_3 C 0.02452(16) 0.3457(5) 0.42264(18)
H70_3 H 0.0316 0.2965 0.4376
C111_3 C 0.00326(16) 0.6036(5) 0.4201(2)
O11 O 0.23449(10) 0.1003(3) 0.66012(12)
O12 O 0.22705(12) 0.0442(4) 0.69805(13)
O28 O 0.00889(13) 0.6172(4) 0.44843(15)
Cd7 Cd 0.263400(9) 0.19642(3) 0.648364(11)
Cd8 Cd 0.217361(10) 0.21543(3) 0.683223(11)
C1_3 C 0.33139(16) 0.2396(6) 0.57575(19)
C2_3 C 0.35152(14) 0.2459(5) 0.56145(16)
C3_3 C 0.34537(15) 0.1961(5) 0.53396(17)
H1_3 H 0.3290 0.1592 0.5242
C4_3 C 0.36362(14) 0.2007(5) 0.52065(17)
H2_3 H 0.3590 0.1671 0.5019
C5_3 C 0.38840(14) 0.2535(5) 0.53439(17)
C6_3 C 0.39444(14) 0.3037(5) 0.56214(17)
H3_3 H 0.4109 0.3402 0.5718
C7_3 C 0.37683(14) 0.3011(5) 0.57567(17)
H4_3 H 0.3814 0.3357 0.5943
C8_3 C 0.40706(14) 0.2572(5) 0.52013(17)
C9_3 C 0.40931(14) 0.1752(6) 0.50323(17)
H5_3 H 0.3999 0.1188 0.5027
C10_3 C 0.42558(15) 0.1808(6) 0.48779(17)
H6_3 H 0.4267 0.1271 0.4769
C11_3 C 0.44063(15) 0.2645(5) 0.48776(18)
C12_3 C 0.43787(14) 0.3417(5) 0.50404(16)
H7_3 H 0.4474 0.3979 0.5047
C13_3 C 0.42150(13) 0.3397(5) 0.51952(16)
H8_3 H 0.4201 0.3946 0.5298
C14_3 C 0.45651(16) 0.2681(6) 0.46998(18)
C15_3 C 0.23978(15) 0.1222(6) 0.57310(18)
C16_3 C 0.21236(15) 0.0746(6) 0.55500(17)
C17_3 C 0.20437(17) 0.0049(7) 0.56856(19)
C20_3 C 0.16719(15) 0.0581(6) 0.50801(18)
H11_3 H 0.1548 0.0786 0.4874
C21_3 C 0.19316(15) 0.1006(6) 0.52377(17)
H12_3 H 0.1981 0.1478 0.5135
C29_3 C 0.27687(16) 0.3838(5) 0.6152(2)
C30_3 C 0.26852(16) 0.4758(5) 0.62473(19)
C31_3 C 0.25952(17) 0.5551(6) 0.6032(2)
H17_3 H 0.2586 0.5492 0.5832
C32_3 C 0.25233(17) 0.6395(6) 0.6119(2)
H18_3 H 0.2461 0.6899 0.5973
C33_3 C 0.25395(16) 0.6526(6) 0.64151(19)
C34_3 C 0.26186(16) 0.5744(5) 0.66207(19)
H19_3 H 0.2623 0.5809 0.6818
C35_3 C 0.26914(16) 0.4874(5) 0.65421(19)
H20_3 H 0.2744 0.4367 0.6686
C36_3 C 0.24805(18) 0.7494(5) 0.6509(2)
C37_3 C 0.25882(16) 0.8293(5) 0.64340(18)
H21_3 H 0.2690 0.8219 0.6322
C38_3 C 0.25469(16) 0.9230(5) 0.65239(18)
H22_3 H 0.2619 0.9759 0.6468
C39_3 C 0.24006(16) 0.9351(5) 0.66942(18)
C40_3 C 0.23021(17) 0.8512(5) 0.67831(18)
H23_3 H 0.2201 0.8569 0.6897
C41_3 C 0.23565(18) 0.7618(6) 0.6701(2)
H24_3 H 0.2307 0.7080 0.6780
C43_3 C 0.32042(16) 0.0927(6) 0.66208(18)
C44_3 C 0.34475(15) 0.0348(6) 0.68309(17)
C49_3 C 0.35135(17) 0.0155(7) 0.71420(19)
H28_3 H 0.3387 0.0346 0.7214
C57_3 C 0.27285(15) 0.3034(6) 0.71758(17)
C58_3 C 0.29929(15) 0.3527(6) 0.73873(16)
C59_3 C 0.30027(15) 0.4210(6) 0.76262(17)
H33_3 H 0.2841 0.4342 0.7644
C60_3 C 0.32542(15) 0.4652(6) 0.78233(17)
H34_3 H 0.3259 0.5082 0.7975
C61_3 C 0.35053(15) 0.4485(6) 0.78059(17)
C62_3 C 0.34883(15) 0.3907(6) 0.75669(17)
H35_3 H 0.3646 0.3842 0.7536
C63_3 C 0.32435(15) 0.3409(6) 0.73674(17)
H36_3 H 0.3246 0.2987 0.7217
C64_3 C 0.37703(15) 0.4984(6) 0.80238(18)
C65_3 C 0.38252(15) 0.5217(6) 0.83309(18)
H37_3 H 0.3692 0.5077 0.8399
C66_3 C 0.40840(16) 0.5669(6) 0.85438(19)
H38_3 H 0.4115 0.5848 0.8747
C67_3 C 0.42861(14) 0.5844(6) 0.84582(18)
C68_3 C 0.42310(15) 0.5643(6) 0.81488(18)
H39_3 H 0.4364 0.5795 0.8082
C69_3 C 0.39768(15) 0.5214(6) 0.79368(19)
H40_3 H 0.3944 0.5075 0.7730
C70_3 C 0.45631(15) 0.6276(6) 0.87022(18)
C71_3 C 0.20837(16) 0.3330(6) 0.62245(19)
C72_3 C 0.19061(14) 0.3984(5) 0.59456(17)
C73_3 C 0.19645(15) 0.4064(5) 0.56986(17)
H41_3 H 0.2116 0.3728 0.5703
C74_3 C 0.18003(14) 0.4642(5) 0.54389(17)
H42_3 H 0.1847 0.4697 0.5274
C75_3 C 0.15667(14) 0.5147(5) 0.54166(17)
C76_3 C 0.15107(15) 0.5052(6) 0.56727(17)
H43_3 H 0.1357 0.5374 0.5667
C77_3 C 0.16770(15) 0.4494(6) 0.59345(18)
H44_3 H 0.1637 0.4455 0.6105
C78_3 C 0.13783(15) 0.5676(5) 0.51218(16)
C79_3 C 0.14732(16) 0.6032(6) 0.49151(17)
H45_3 H 0.1665 0.5981 0.4973
C80_3 C 0.12888(15) 0.6466(6) 0.46206(18)
H46_3 H 0.1356 0.6665 0.4482
C81_3 C 0.10025(14) 0.6595(5) 0.45381(16)
C82_3 C 0.09151(15) 0.6273(5) 0.47469(16)
H47_3 H 0.0726 0.6358 0.4696
C83_3 C 0.10916(14) 0.5831(5) 0.50284(16)
H48_3 H 0.1019 0.5627 0.5162
C84_3 C 0.08064(15) 0.7035(5) 0.42244(17)
C85_3 C 0.2076(2) 0.2645(8) 0.7421(2)
H49_3 H 0.2264 0.2832 0.7498
C86_3 C 0.1968(2) 0.2654(8) 0.7635(3)
H50_3 H 0.2081 0.2812 0.7850
C87_3 C 0.1689(2) 0.2422(8) 0.7521(3)
C88_3 C 0.1528(2) 0.2249(8) 0.7201(3)
H51_3 H 0.1334 0.2145 0.7113
C89_3 C 0.1661(2) 0.2229(7) 0.7006(2)
H52_3 H 0.1551 0.2097 0.6790
C90_3 C 0.1566(2) 0.2323(9) 0.7763(3)
H53_3 H 0.1362 0.2401 0.7649
H54_3 H 0.1644 0.2820 0.7924
C91_3 C 0.1635(2) 0.1402(9) 0.7914(2)
H55_3 H 0.1487 0.0955 0.7782
H56_3 H 0.1809 0.1183 0.7921
C92_3 C 0.1670(2) 0.1367(9) 0.8241(2)
H57_3 H 0.1721 0.0719 0.8320
H58_3 H 0.1828 0.1777 0.8375
C93_3 C 0.1416(2) 0.1661(9) 0.8280(3)
C94_3 C 0.1435(2) 0.2242(9) 0.8498(3)
H59_3 H 0.1609 0.2529 0.8625
C95_3 C 0.1217(2) 0.2468(9) 0.8555(3)
H60_3 H 0.1246 0.2904 0.8716
C96_3 C 0.0932(2) 0.1556(8) 0.8155(2)
H61_3 H 0.0755 0.1296 0.8018
C97_3 C 0.1156(2) 0.1364(9) 0.8100(3)
H62_3 H 0.1120 0.0995 0.7922
C98_3 C 0.04442(16) 0.9564(5) 0.35769(19)
C112_3 C 0.16928(19) 0.1453(7) 0.6169(2)
H71_3 H 0.1852 0.1311 0.6146
C113_3 C 0.1438(2) 0.1835(9) 0.5588(2)
H72_3 H 0.1610 0.1620 0.5593
H73_3 H 0.1279 0.1507 0.5421
H74_3 H 0.1417 0.2511 0.5549
C114_3 C 0.1191(3) 0.1658(13) 0.5927(3)
H75_3 H 0.1088 0.2231 0.5829
H76_3 H 0.1077 0.1110 0.5823
H77_3 H 0.1240 0.1651 0.6150
C115_3 C 0.06786(18) 0.5507(6) 0.3684(2)
H78_3 H 0.0520 0.5611 0.3712
C116_3 C 0.1139(2) 0.4846(9) 0.3876(3)
H79_3 H 0.1252 0.5373 0.4000
H80_3 H 0.1230 0.4255 0.3974
H81_3 H 0.1117 0.4881 0.3663
C117_3 C 0.0816(2) 0.4378(7) 0.4111(2)
H82_3 H 0.0667 0.4674 0.4137
H83_3 H 0.0768 0.3722 0.4048
H84_3 H 0.0989 0.4405 0.4309
Cd1_3 Cd 0.293315(10) 0.22014(3) 0.597628(11)
N1_3 N 0.19337(12) 0.2391(5) 0.71168(14)
N3_3 N 0.14492(15) 0.1630(8) 0.58965(18)
N4_3 N 0.08528(17) 0.4890(6) 0.38610(19)
O1_3 O 0.30876(11) 0.1973(5) 0.56089(13)
O2_3 O 0.33839(12) 0.2796(4) 0.60194(14)
O3_2 O 0.45661(13) 0.2000(5) 0.45329(16)
O4_2 O 0.47061(13) 0.3393(5) 0.47195(14)
O5_3 O 0.25326(10) 0.1113(4) 0.60255(12)
O6_3 O 0.24937(11) 0.1716(5) 0.55850(12)
O9_3 O 0.28613(10) 0.3169(4) 0.63524(13)
O10_3 O 0.27518(12) 0.3766(4) 0.58808(13)
O13_3 O 0.30350(10) 0.1149(4) 0.67195(11)
O14_3 O 0.31850(10) 0.1168(4) 0.63513(12)
O17_3 O 0.27251(13) 0.2608(5) 0.69495(14)
O18_3 O 0.25324(11) 0.3024(5) 0.72307(12)
O21_3 O 0.20363(11) 0.3321(4) 0.64611(12)
O22_3 O 0.22560(11) 0.2813(4) 0.61863(12)
O23_3 O 0.05505(9) 0.7003(3) 0.41541(11)
O24_3 O 0.09012(9) 0.7337(4) 0.40459(11)
O25_3 O 0.05402(15) 0.9505(4) 0.33911(17)
O26_3 O 0.04258(9) 0.8841(3) 0.37287(12)
O29_3 O 0.17246(11) 0.1460(5) 0.64406(12)
O30_3 O 0.06993(12) 0.6005(4) 0.34697(14)
O33 O 0.02685(9) 0.8629(3) 0.43261(11)
H9_3 H 0.2167 0.9859 0.5894
C18_3 C 0.17743(16) 0.9591(7) 0.55175(19)
H10_3 H 0.1730 0.9104 0.5620
C19_3 C 0.15820(16) 0.9833(6) 0.52181(18)
C22_3 C 0.12967(15) 0.9468(6) 0.50579(17)
C23_3 C 0.11610(16) 0.9209(6) 0.52326(19)
H13_3 H 0.1260 0.9272 0.5454
C24_3 C 0.08908(15) 0.8866(6) 0.50980(18)
H14_3 H 0.0815 0.8655 0.5227
C25_3 C 0.07299(15) 0.8835(6) 0.47655(17)
C26_3 C 0.08531(14) 0.9106(5) 0.45791(17)
H15_3 H 0.0748 0.9088 0.4357
C27_3 C 0.11336(15) 0.9405(6) 0.47224(17)
H16_3 H 0.1215 0.9567 0.4594
C28_3 C 0.04227(15) 0.8519(6) 0.46171(18)
C45_3 C 0.36270(17) 0.9946(7) 0.6724(2)
H25_3 H 0.3579 0.9991 0.6508
C46_3 C 0.38729(17) 0.9486(7) 0.69312(18)
H26_3 H 0.3992 0.9259 0.6853
C47_3 C 0.39530(15) 0.9341(6) 0.72635(17)
C48_3 C 0.37618(17) 0.9685(7) 0.73570(19)
H27_3 H 0.3799 0.9602 0.7568
C50_3 C 0.42188(15) 0.8883(6) 0.74827(17)
C51_3 C 0.44043(16) 0.8535(6) 0.73668(18)
H29_3 H 0.4349 0.8547 0.7149
C52_3 C 0.46616(16) 0.8189(6) 0.75800(17)
H30_3 H 0.4782 0.7977 0.7502
C53_3 C 0.47570(14) 0.8130(6) 0.79081(16)
C54_3 C 0.45685(15) 0.8429(6) 0.80149(18)
H31_3 H 0.4620 0.8385 0.8232
C55_3 C 0.43030(16) 0.8792(6) 0.78016(17)
H32_3 H 0.4180 0.8976 0.7879
C56_3 C 0.50486(15) 0.7839(6) 0.81288(18)
O7_3 O 0.03337(10) 0.8199(5) 0.47981(12)
H68_3 H 0.9930 0.5369 0.3625
O27 O 0.99210(9) 0.6699(3) 0.39834(13)
O31_2 O 0.95661(13) 0.7000(5) 0.45329(16)
O32_2 O 0.97061(13) 0.8393(5) 0.47195(14)
C56_4 C 0.00486(15) 0.2839(6) 0.81288(18)
H68_4 H 0.4930 0.0369 0.3625
C108_4 C 0.50851(16) 0.0093(5) 0.40987(19)
C111_4 C 0.50326(16) 0.1036(5) 0.4201(2)
O27_2 O 0.49210(9) 0.1699(3) 0.39834(13)
O28_2 O 0.50889(13) 0.1172(4) 0.44843(15)
C31_4 C 0.75952(17) 0.0551(6) 0.6032(2)
H17_4 H 0.7586 0.0492 0.5832
C32_4 C 0.75233(17) 0.1395(6) 0.6119(2)
H18_4 H 0.7461 0.1899 0.5973
C33_4 C 0.75395(16) 0.1526(6) 0.64151(19)
C34_4 C 0.76186(16) 0.0744(5) 0.66207(19)
H19_4 H 0.7623 0.0809 0.6818
C36_4 C 0.74805(18) 0.2494(5) 0.6509(2)
C37_4 C 0.75882(16) 0.3293(5) 0.64340(18)
H21_4 H 0.7690 0.3219 0.6322
C38_4 C 0.75469(16) 0.4230(5) 0.65239(18)
H22_4 H 0.7619 0.4759 0.6468
C39_4 C 0.74006(16) 0.4351(5) 0.66942(18)
C40_4 C 0.73021(17) 0.3512(5) 0.67831(18)
H23_4 H 0.7201 0.3569 0.6897
C41_4 C 0.73565(18) 0.2618(6) 0.6701(2)
H24_4 H 0.7307 0.2080 0.6780
C42_4 C 0.73397(16) 0.5306(5) 0.67736(19)
H34_4 H 0.8259 0.0082 0.7975
C65_4 C 0.88252(15) 0.0217(6) 0.83309(18)
H37_4 H 0.8692 0.0077 0.8399
C66_4 C 0.90840(16) 0.0669(6) 0.85438(19)
H38_4 H 0.9115 0.0848 0.8747
C67_4 C 0.92861(14) 0.0844(6) 0.84582(18)
C68_4 C 0.92310(15) 0.0643(6) 0.81488(18)
H39_4 H 0.9364 0.0795 0.8082
C69_4 C 0.89768(15) 0.0214(6) 0.79368(19)
H40_4 H 0.8944 0.0075 0.7730
C70_4 C 0.95631(15) 0.1276(6) 0.87022(18)
C75_4 C 0.65667(14) 0.0147(5) 0.54166(17)
C76_4 C 0.65107(15) 0.0052(6) 0.56727(17)
H43_4 H 0.6357 0.0374 0.5667
C78_4 C 0.63783(15) 0.0676(5) 0.51218(16)
C79_4 C 0.64732(16) 0.1032(6) 0.49151(17)
H45_4 H 0.6665 0.0981 0.4973
C80_4 C 0.62888(15) 0.1466(6) 0.46206(18)
H46_4 H 0.6356 0.1665 0.4482
C81_4 C 0.60025(14) 0.1595(5) 0.45381(16)
C82_4 C 0.59151(15) 0.1273(5) 0.47469(16)
H47_4 H 0.5726 0.1358 0.4696
C83_4 C 0.60916(14) 0.0831(5) 0.50284(16)
H48_4 H 0.6019 0.0627 0.5162
C84_4 C 0.58064(15) 0.2035(5) 0.42244(17)
C98_4 C 0.54442(16) 0.4564(5) 0.35769(19)
C99_4 C 0.53683(16) 0.5519(5) 0.36616(18)
C100_4 C 0.53906(17) 0.6348(5) 0.35089(19)
H63_4 H 0.5448 0.6300 0.3352
C101_4 C 0.53283(18) 0.7243(5) 0.3589(2)
H64_4 H 0.5349 0.7789 0.3490
C102_4 C 0.52350(17) 0.7326(5) 0.38168(19)
C103_4 C 0.52110(16) 0.6490(5) 0.39639(18)
H65_4 H 0.5149 0.6531 0.4116
C104_4 C 0.52766(16) 0.5621(5) 0.38900(18)
H66_4 H 0.5260 0.5081 0.3994
C105_4 C 0.51764(17) 0.8275(5) 0.39119(19)
C106_4 C 0.50639(17) 0.9025(5) 0.36877(19)
H67_4 H 0.5024 0.8925 0.3476
C107_4 C 0.50139(17) 0.9893(6) 0.3778(2)
C109_4 C 0.52098(17) 0.9367(5) 0.4323(2)
H69_4 H 0.5270 0.9488 0.4539
C110_4 C 0.52452(16) 0.8457(5) 0.42264(18)
H70_4 H 0.5316 0.7965 0.4376
C115_4 C 0.56786(18) 0.0507(6) 0.3684(2)
H78_4 H 0.5520 0.0611 0.3712
H79_4 H 0.6252 0.0373 0.4000
O11_2 O 0.73449(10) 0.6003(3) 0.66012(12)
O12_2 O 0.72705(12) 0.5442(4) 0.69805(13)
O23_4 O 0.55505(9) 0.2003(3) 0.41541(11)
O24_4 O 0.59012(9) 0.2337(4) 0.40459(11)
O25_4 O 0.55402(15) 0.4505(4) 0.33911(17)
O26_4 O 0.54258(9) 0.3841(3) 0.37287(12)
O30_4 O 0.56993(12) 0.1005(4) 0.34697(14)
Cd7_2 Cd 0.763400(9) 0.69642(3) 0.648364(11)
Cd8_2 Cd 0.717361(10) 0.71543(3) 0.683223(11)
O33_2 O 0.52685(9) 0.3629(3) 0.43261(11)
C1_4 C 0.83139(16) 0.7396(6) 0.57575(19)
C2_4 C 0.85152(14) 0.7459(5) 0.56145(16)
C3_4 C 0.84537(15) 0.6961(5) 0.53396(17)
H1_4 H 0.8290 0.6592 0.5242
C4_4 C 0.86362(14) 0.7007(5) 0.52065(17)
H2_4 H 0.8590 0.6671 0.5019
C5_4 C 0.88840(14) 0.7535(5) 0.53439(17)
C6_4 C 0.89444(14) 0.8037(5) 0.56214(17)
H3_4 H 0.9109 0.8402 0.5718
C7_4 C 0.87683(14) 0.8011(5) 0.57567(17)
H4_4 H 0.8814 0.8357 0.5943
C8_4 C 0.90706(14) 0.7572(5) 0.52013(17)
C9_4 C 0.90931(14) 0.6752(6) 0.50323(17)
H5_4 H 0.8999 0.6188 0.5027
C10_4 C 0.92558(15) 0.6808(6) 0.48779(17)
H6_4 H 0.9267 0.6271 0.4769
C11_4 C 0.94063(15) 0.7645(5) 0.48776(18)
C12_4 C 0.93787(14) 0.8417(5) 0.50404(16)
H7_4 H 0.9474 0.8979 0.5047
C13_4 C 0.92150(13) 0.8397(5) 0.51952(16)
H8_4 H 0.9201 0.8946 0.5298
C14_4 C 0.95651(16) 0.7681(6) 0.46998(18)
C15_4 C 0.73978(15) 0.6222(6) 0.57310(18)
C16_4 C 0.71236(15) 0.5746(6) 0.55500(17)
C17_4 C 0.70437(17) 0.5049(7) 0.56856(19)
H9_4 H 0.7167 0.4859 0.5894
C18_4 C 0.67743(16) 0.4591(7) 0.55175(19)
H10_4 H 0.6730 0.4104 0.5620
C19_4 C 0.65820(16) 0.4833(6) 0.52181(18)
C20_4 C 0.66719(15) 0.5581(6) 0.50801(18)
H11_4 H 0.6548 0.5786 0.4874
C21_4 C 0.69316(15) 0.6006(6) 0.52377(17)
H12_4 H 0.6981 0.6478 0.5135
C22_4 C 0.62967(15) 0.4468(6) 0.50579(17)
C23_4 C 0.61610(16) 0.4209(6) 0.52326(19)
H13_4 H 0.6260 0.4272 0.5454
C24_4 C 0.58908(15) 0.3866(6) 0.50980(18)
H14_4 H 0.5815 0.3655 0.5227
C25_4 C 0.57299(15) 0.3835(6) 0.47655(17)
C26_4 C 0.58531(14) 0.4106(5) 0.45791(17)
H15_4 H 0.5748 0.4088 0.4357
C27_4 C 0.61336(15) 0.4405(6) 0.47224(17)
H16_4 H 0.6215 0.4567 0.4594
C28_4 C 0.54227(15) 0.3519(6) 0.46171(18)
C29_4 C 0.77687(16) 0.8838(5) 0.6152(2)
C30_4 C 0.76852(16) 0.9758(5) 0.62473(19)
C35_4 C 0.76914(16) 0.9874(5) 0.65421(19)
H20_4 H 0.7744 0.9367 0.6686
C43_4 C 0.82042(16) 0.5927(6) 0.66208(18)
C44_4 C 0.84475(15) 0.5348(6) 0.68309(17)
C45_4 C 0.86270(17) 0.4946(7) 0.6724(2)
H25_4 H 0.8579 0.4991 0.6508
C46_4 C 0.88729(17) 0.4486(7) 0.69312(18)
H26_4 H 0.8992 0.4259 0.6853
C47_4 C 0.89530(15) 0.4341(6) 0.72635(17)
C48_4 C 0.87618(17) 0.4685(7) 0.73570(19)
H27_4 H 0.8799 0.4602 0.7568
C49_4 C 0.85135(17) 0.5155(7) 0.71420(19)
H28_4 H 0.8387 0.5346 0.7214
C50_4 C 0.92188(15) 0.3883(6) 0.74827(17)
C51_4 C 0.94043(16) 0.3535(6) 0.73668(18)
H29_4 H 0.9349 0.3547 0.7149
C52_4 C 0.96616(16) 0.3189(6) 0.75800(17)
H30_4 H 0.9782 0.2977 0.7502
C53_4 C 0.97570(14) 0.3130(6) 0.79081(16)
C54_4 C 0.95685(15) 0.3429(6) 0.80149(18)
H31_4 H 0.9620 0.3385 0.8232
C55_4 C 0.93030(16) 0.3792(6) 0.78016(17)
H32_4 H 0.9180 0.3976 0.7879
C57_4 C 0.77285(15) 0.8034(6) 0.71758(17)
C58_4 C 0.79929(15) 0.8527(6) 0.73873(16)
C59_4 C 0.80027(15) 0.9210(6) 0.76262(17)
H33_4 H 0.7841 0.9342 0.7644
C60_4 C 0.82542(15) 0.9652(6) 0.78233(17)
C61_4 C 0.85053(15) 0.9485(6) 0.78059(17)
C62_4 C 0.84883(15) 0.8907(6) 0.75669(17)
H35_4 H 0.8646 0.8842 0.7536
C63_4 C 0.82435(15) 0.8409(6) 0.73674(17)
H36_4 H 0.8246 0.7987 0.7217
C64_4 C 0.87703(15) 0.9984(6) 0.80238(18)
C71_4 C 0.70837(16) 0.8330(6) 0.62245(19)
C72_4 C 0.69061(14) 0.8984(5) 0.59456(17)
C73_4 C 0.69645(15) 0.9064(5) 0.56986(17)
H41_4 H 0.7116 0.8728 0.5703
C74_4 C 0.68003(14) 0.9642(5) 0.54389(17)
H42_4 H 0.6847 0.9697 0.5274
C77_4 C 0.66770(15) 0.9494(6) 0.59345(18)
H44_4 H 0.6637 0.9455 0.6105
C85_4 C 0.7076(2) 0.7645(8) 0.7421(2)
H49_4 H 0.7264 0.7832 0.7498
C86_4 C 0.6968(2) 0.7654(8) 0.7635(3)
H50_4 H 0.7081 0.7812 0.7850
C87_4 C 0.6689(2) 0.7422(8) 0.7521(3)
C88_4 C 0.6528(2) 0.7249(8) 0.7201(3)
H51_4 H 0.6334 0.7145 0.7113
C89_4 C 0.6661(2) 0.7229(7) 0.7006(2)
H52_4 H 0.6551 0.7097 0.6790
C90_4 C 0.6566(2) 0.7323(9) 0.7763(3)
H53_4 H 0.6362 0.7401 0.7649
H54_4 H 0.6644 0.7820 0.7924
C91_4 C 0.6635(2) 0.6402(9) 0.7914(2)
H55_4 H 0.6487 0.5955 0.7782
H56_4 H 0.6809 0.6183 0.7921
C92_4 C 0.6670(2) 0.6367(9) 0.8241(2)
H57_4 H 0.6721 0.5719 0.8320
H58_4 H 0.6828 0.6777 0.8375
C93_4 C 0.6416(2) 0.6661(9) 0.8280(3)
C94_4 C 0.6435(2) 0.7242(9) 0.8498(3)
H59_4 H 0.6609 0.7529 0.8625
C95_4 C 0.6217(2) 0.7468(9) 0.8555(3)
H60_4 H 0.6246 0.7904 0.8716
C96_4 C 0.5932(2) 0.6556(8) 0.8155(2)
H61_4 H 0.5755 0.6296 0.8018
C97_4 C 0.6156(2) 0.6364(9) 0.8100(3)
H62_4 H 0.6120 0.5995 0.7922
C112_4 C 0.66928(19) 0.6453(7) 0.6169(2)
H71_4 H 0.6852 0.6311 0.6146
C113_4 C 0.6438(2) 0.6835(9) 0.5588(2)
H72_4 H 0.6610 0.6620 0.5593
H73_4 H 0.6279 0.6507 0.5421
H74_4 H 0.6417 0.7511 0.5549
C114_4 C 0.6191(3) 0.6658(13) 0.5927(3)
H75_4 H 0.6088 0.7231 0.5829
H76_4 H 0.6077 0.6110 0.5823
H77_4 H 0.6240 0.6651 0.6150
C116_4 C 0.6139(2) 0.9846(9) 0.3876(3)
H80_4 H 0.6230 0.9255 0.3974
H81_4 H 0.6117 0.9881 0.3663
C117_4 C 0.5816(2) 0.9378(7) 0.4111(2)
H82_4 H 0.5667 0.9674 0.4137
H83_4 H 0.5768 0.8722 0.4048
H84_4 H 0.5989 0.9405 0.4309
Cd1_4 Cd 0.793315(10) 0.72014(3) 0.597628(11)
N1_4 N 0.69337(12) 0.7391(5) 0.71168(14)
N3_4 N 0.64492(15) 0.6630(8) 0.58965(18)
N4_4 N 0.58528(17) 0.9890(6) 0.38610(19)
O1_4 O 0.80876(11) 0.6973(5) 0.56089(13)
O2_4 O 0.83839(12) 0.7796(4) 0.60194(14)
O5_4 O 0.75326(10) 0.6113(4) 0.60255(12)
O6_4 O 0.74937(11) 0.6716(5) 0.55850(12)
O7_4 O 0.53337(10) 0.3199(5) 0.47981(12)
O9_4 O 0.78613(10) 0.8169(4) 0.63524(13)
O10_4 O 0.77518(12) 0.8766(4) 0.58808(13)
O13_4 O 0.80350(10) 0.6149(4) 0.67195(11)
O14_4 O 0.81850(10) 0.6168(4) 0.63513(12)
O17_4 O 0.77251(13) 0.7608(5) 0.69495(14)
O18_4 O 0.75324(11) 0.8024(5) 0.72307(12)
O21_4 O 0.70363(11) 0.8321(4) 0.64611(12)
O22_4 O 0.72560(11) 0.7813(4) 0.61863(12)
O29_4 O 0.67246(11) 0.6460(5) 0.64406(12)
Cd4_2 Cd 0.010675(10) 0.22735(4) 0.559576(11)
O31_3 O 0.04339(13) 0.3000(5) 0.54671(16)
O32_3 O 0.02939(13) 0.1607(5) 0.52805(14)
O39_3 O 0.04120(10) 0.1471(4) 0.60298(11)
O41_3 O 0.00790(9) 0.3301(3) 0.60166(13)
O38_3 O 0.02548(9) 0.1410(4) 0.63932(11)
H68_5 H 0.0070 0.4631 0.6375
H9_5 H 0.7833 0.0141 0.4106
C18_5 C 0.82257(16) 0.0409(7) 0.44825(19)
H10_5 H 0.8270 0.0896 0.4380
C19_5 C 0.84180(16) 0.0167(6) 0.47819(18)
C22_5 C 0.87033(15) 0.0532(6) 0.49421(17)
C23_5 C 0.88390(16) 0.0791(6) 0.47674(19)
H13_5 H 0.8740 0.0728 0.4546
C24_5 C 0.91092(15) 0.1134(6) 0.49020(18)
H14_5 H 0.9185 0.1345 0.4773
C25_5 C 0.92701(15) 0.1165(6) 0.52345(17)
C26_5 C 0.91469(14) 0.0894(5) 0.54209(17)
H15_5 H 0.9252 0.0912 0.5643
C27_5 C 0.88664(15) 0.0595(6) 0.52776(17)
H16_5 H 0.8785 0.0433 0.5406
C28_5 C 0.95773(15) 0.1481(6) 0.53829(18)
C45_5 C 0.63730(17) 0.0054(7) 0.3276(2)
H25_5 H 0.6421 0.0009 0.3492
C46_5 C 0.61271(17) 0.0514(7) 0.30688(18)
H26_5 H 0.6008 0.0741 0.3147
C47_5 C 0.60470(15) 0.0659(6) 0.27365(17)
C48_5 C 0.62382(17) 0.0315(7) 0.26430(19)
H27_5 H 0.6201 0.0398 0.2432
C50_5 C 0.57812(15) 0.1117(6) 0.25173(17)
C51_5 C 0.55957(16) 0.1465(6) 0.26332(18)
H29_5 H 0.5651 0.1453 0.2851
C52_5 C 0.53384(16) 0.1811(6) 0.24200(17)
H30_5 H 0.5218 0.2023 0.2498
C53_5 C 0.52430(14) 0.1870(6) 0.20919(16)
C54_5 C 0.54315(15) 0.1571(6) 0.19851(18)
H31_5 H 0.5380 0.1615 0.1768
C55_5 C 0.56970(16) 0.1208(6) 0.21984(17)
H32_5 H 0.5820 0.1024 0.2121
C56_5 C 0.49514(15) 0.2161(6) 0.18712(18)
O7_5 O 0.96663(10) 0.1801(5) 0.52019(12)
O8_3 O 0.97315(9) 0.1371(3) 0.56739(11)
O15_3 O 0.48573(9) 0.2029(3) 0.15682(10)
O16_3 O 0.47992(10) 0.2516(4) 0.19773(11)
Cd13_3 Cd 0.984564(9) 0.21596(3) 0.614505(10)
Cd15_3 Cd 0.484564(9) 0.28404(3) 0.114505(10)
Cd17_2 Cd 0.439147(9) 0.26892(3) 0.148100(11)
O42_3 O 0.99111(13) 0.3828(4) 0.55157(15)
C1_5 C 0.66861(16) 0.7604(6) 0.42425(19)
C2_5 C 0.64848(14) 0.7541(5) 0.43855(16)
C3_5 C 0.65463(15) 0.8039(5) 0.46604(17)
H1_5 H 0.6710 0.8408 0.4758
C4_5 C 0.63638(14) 0.7993(5) 0.47935(17)
H2_5 H 0.6410 0.8329 0.4981
C5_5 C 0.61160(14) 0.7465(5) 0.46561(17)
C6_5 C 0.60556(14) 0.6963(5) 0.43786(17)
H3_5 H 0.5891 0.6598 0.4282
C7_5 C 0.62317(14) 0.6989(5) 0.42433(17)
H4_5 H 0.6186 0.6643 0.4057
C8_5 C 0.59294(14) 0.7428(5) 0.47987(17)
C9_5 C 0.59069(14) 0.8248(6) 0.49677(17)
H5_5 H 0.6001 0.8812 0.4973
C10_5 C 0.57442(15) 0.8192(6) 0.51221(17)
H6_5 H 0.5733 0.8729 0.5231
C11_5 C 0.55937(15) 0.7355(5) 0.51224(18)
C12_5 C 0.56213(14) 0.6583(5) 0.49596(16)
H7_5 H 0.5526 0.6021 0.4953
C13_5 C 0.57850(13) 0.6603(5) 0.48048(16)
H8_5 H 0.5799 0.6054 0.4702
C14_5 C 0.54349(16) 0.7319(6) 0.53002(18)
C15_5 C 0.76022(15) 0.8778(6) 0.42690(18)
C16_5 C 0.78764(15) 0.9254(6) 0.44500(17)
C17_5 C 0.79563(17) 0.9951(7) 0.43144(19)
C20_5 C 0.83281(15) 0.9419(6) 0.49199(18)
H11_5 H 0.8452 0.9214 0.5126
C21_5 C 0.80684(15) 0.8994(6) 0.47623(17)
H12_5 H 0.8019 0.8522 0.4865
C29_5 C 0.72313(16) 0.6162(5) 0.3848(2)
C30_5 C 0.73148(16) 0.5242(5) 0.37527(19)
C31_5 C 0.74048(17) 0.4449(6) 0.3968(2)
H17_5 H 0.7414 0.4508 0.4168
C32_5 C 0.74767(17) 0.3605(6) 0.3881(2)
H18_5 H 0.7539 0.3101 0.4027
C33_5 C 0.74605(16) 0.3474(6) 0.35849(19)
C34_5 C 0.73814(16) 0.4256(5) 0.33793(19)
H19_5 H 0.7377 0.4191 0.3182
C35_5 C 0.73086(16) 0.5126(5) 0.34579(19)
H20_5 H 0.7256 0.5633 0.3314
C36_5 C 0.75195(18) 0.2506(5) 0.3491(2)
C37_5 C 0.74118(16) 0.1707(5) 0.35660(18)
H21_5 H 0.7310 0.1781 0.3678
C38_5 C 0.74531(16) 0.0770(5) 0.34761(18)
H22_5 H 0.7381 0.0241 0.3532
C39_5 C 0.75994(16) 0.0649(5) 0.33058(18)
C40_5 C 0.76979(17) 0.1488(5) 0.32169(18)
H23_5 H 0.7799 0.1431 0.3103
C41_5 C 0.76435(18) 0.2382(6) 0.3299(2)
H24_5 H 0.7693 0.2920 0.3220
C43_5 C 0.67958(16) 0.9073(6) 0.33792(18)
C44_5 C 0.65525(15) 0.9652(6) 0.31691(17)
C49_5 C 0.64865(17) 0.9845(7) 0.28580(19)
H28_5 H 0.6613 0.9654 0.2786
C57_5 C 0.72715(15) 0.6966(6) 0.28242(17)
C58_5 C 0.70071(15) 0.6473(6) 0.26127(16)
C59_5 C 0.69973(15) 0.5790(6) 0.23738(17)
H33_5 H 0.7159 0.5658 0.2356
C60_5 C 0.67458(15) 0.5348(6) 0.21767(17)
H34_5 H 0.6741 0.4918 0.2025
C61_5 C 0.64947(15) 0.5515(6) 0.21941(17)
C62_5 C 0.65117(15) 0.6093(6) 0.24331(17)
H35_5 H 0.6354 0.6158 0.2464
C63_5 C 0.67565(15) 0.6591(6) 0.26326(17)
H36_5 H 0.6754 0.7013 0.2783
C64_5 C 0.62297(15) 0.5016(6) 0.19762(18)
C65_5 C 0.61748(15) 0.4783(6) 0.16691(18)
H37_5 H 0.6308 0.4923 0.1601
C66_5 C 0.59160(16) 0.4331(6) 0.14562(19)
H38_5 H 0.5885 0.4152 0.1253
C67_5 C 0.57139(14) 0.4156(6) 0.15418(18)
C68_5 C 0.57690(15) 0.4357(6) 0.18512(18)
H39_5 H 0.5636 0.4205 0.1918
C69_5 C 0.60232(15) 0.4786(6) 0.20632(19)
H40_5 H 0.6056 0.4925 0.2270
C70_5 C 0.54369(15) 0.3724(6) 0.12978(18)
C71_5 C 0.79163(16) 0.6670(6) 0.37755(19)
C72_5 C 0.80939(14) 0.6016(5) 0.40544(17)
C73_5 C 0.80355(15) 0.5936(5) 0.43014(17)
H41_5 H 0.7884 0.6272 0.4297
C74_5 C 0.81997(14) 0.5358(5) 0.45611(17)
H42_5 H 0.8153 0.5303 0.4726
C75_5 C 0.84333(14) 0.4853(5) 0.45834(17)
C76_5 C 0.84893(15) 0.4948(6) 0.43273(17)
H43_5 H 0.8643 0.4626 0.4333
C77_5 C 0.83230(15) 0.5506(6) 0.40655(18)
H44_5 H 0.8363 0.5545 0.3895
C78_5 C 0.86217(15) 0.4324(5) 0.48782(16)
C79_5 C 0.85268(16) 0.3968(6) 0.50849(17)
H45_5 H 0.8335 0.4019 0.5027
C80_5 C 0.87112(15) 0.3534(6) 0.53794(18)
H46_5 H 0.8644 0.3335 0.5518
C81_5 C 0.89975(14) 0.3405(5) 0.54619(16)
C82_5 C 0.90849(15) 0.3727(5) 0.52531(16)
H47_5 H 0.9274 0.3642 0.5304
C83_5 C 0.89084(14) 0.4169(5) 0.49716(16)
H48_5 H 0.8981 0.4373 0.4838
C84_5 C 0.91936(15) 0.2965(5) 0.57756(17)
C85_5 C 0.7924(2) 0.7355(8) 0.2579(2)
H49_5 H 0.7736 0.7168 0.2502
C86_5 C 0.8032(2) 0.7346(8) 0.2365(3)
H50_5 H 0.7919 0.7188 0.2150
C87_5 C 0.8311(2) 0.7578(8) 0.2479(3)
C88_5 C 0.8472(2) 0.7751(8) 0.2799(3)
H51_5 H 0.8666 0.7855 0.2887
C89_5 C 0.8339(2) 0.7771(7) 0.2994(2)
H52_5 H 0.8449 0.7903 0.3210
C90_5 C 0.8434(2) 0.7677(9) 0.2237(3)
H53_5 H 0.8638 0.7599 0.2351
H54_5 H 0.8356 0.7180 0.2076
C91_5 C 0.8365(2) 0.8598(9) 0.2086(2)
H55_5 H 0.8513 0.9045 0.2218
H56_5 H 0.8191 0.8817 0.2079
C92_5 C 0.8330(2) 0.8633(9) 0.1759(2)
H57_5 H 0.8279 0.9281 0.1680
H58_5 H 0.8172 0.8223 0.1625
C93_5 C 0.8584(2) 0.8339(9) 0.1720(3)
C94_5 C 0.8565(2) 0.7758(9) 0.1502(3)
H59_5 H 0.8391 0.7471 0.1375
C95_5 C 0.8783(2) 0.7532(9) 0.1445(3)
H60_5 H 0.8754 0.7096 0.1284
C96_5 C 0.9068(2) 0.8444(8) 0.1845(2)
H61_5 H 0.9245 0.8704 0.1982
C97_5 C 0.8844(2) 0.8636(9) 0.1900(3)
H62_5 H 0.8880 0.9005 0.2078
C98_5 C 0.95558(16) 0.0436(5) 0.64231(19)
C112_5 C 0.83072(19) 0.8547(7) 0.3831(2)
H71_5 H 0.8148 0.8689 0.3854
C113_5 C 0.8562(2) 0.8165(9) 0.4412(2)
H72_5 H 0.8390 0.8380 0.4407
H73_5 H 0.8721 0.8493 0.4579
H74_5 H 0.8583 0.7489 0.4451
C114_5 C 0.8809(3) 0.8342(13) 0.4073(3)
H75_5 H 0.8912 0.7769 0.4171
H76_5 H 0.8923 0.8890 0.4177
H77_5 H 0.8760 0.8349 0.3850
C115_5 C 0.93214(18) 0.4493(6) 0.6316(2)
H78_5 H 0.9480 0.4389 0.6288
C116_5 C 0.8861(2) 0.5154(9) 0.6124(3)
H79_5 H 0.8748 0.4627 0.6000
H80_5 H 0.8770 0.5745 0.6026
H81_5 H 0.8883 0.5119 0.6337
C117_5 C 0.9184(2) 0.5622(7) 0.5889(2)
H82_5 H 0.9333 0.5326 0.5863
H83_5 H 0.9232 0.6278 0.5952
H84_5 H 0.9011 0.5595 0.5691
Cd1_5 Cd 0.706685(10) 0.77986(3) 0.402372(11)
Cd2_3 Cd 0.736600(9) 0.80358(3) 0.351636(11)
Cd3_3 Cd 0.782639(10) 0.78457(3) 0.316777(11)
Cd6_3 Cd 0.939147(9) 0.23108(3) 0.648100(11)
N1_5 N 0.80663(12) 0.7609(5) 0.28832(14)
N2_3 N 0.90432(13) 0.7935(5) 0.16199(16)
N3_5 N 0.85508(15) 0.8370(8) 0.41035(18)
N4_5 N 0.91472(17) 0.5110(6) 0.61390(19)
O1_5 O 0.69124(11) 0.8027(5) 0.43911(13)
O2_5 O 0.66161(12) 0.7204(4) 0.39806(14)
O3_3 O 0.54339(13) 0.8000(5) 0.54671(16)
O4_3 O 0.52939(13) 0.6607(5) 0.52805(14)
O5_5 O 0.74674(10) 0.8887(4) 0.39745(12)
O6_5 O 0.75063(11) 0.8284(5) 0.44150(12)
O9_5 O 0.71387(10) 0.6831(4) 0.36476(13)
O10_5 O 0.72482(12) 0.6234(4) 0.41192(13)
O13_5 O 0.69650(10) 0.8851(4) 0.32805(11)
O14_5 O 0.68150(10) 0.8832(4) 0.36487(12)
O17_5 O 0.72749(13) 0.7392(5) 0.30505(14)
O18_5 O 0.74676(11) 0.6976(5) 0.27693(12)
O19_3 O 0.52548(9) 0.3590(4) 0.13932(11)
O20_3 O 0.54120(10) 0.3529(4) 0.10298(11)
O21_5 O 0.79637(11) 0.6679(4) 0.35389(12)
O22_5 O 0.77440(11) 0.7187(4) 0.38137(12)
O23_5 O 0.94495(9) 0.2997(3) 0.58459(11)
O24_5 O 0.90988(9) 0.2663(4) 0.59541(11)
O25_5 O 0.94598(15) 0.0495(4) 0.66089(17)
O26_5 O 0.95742(9) 0.1159(3) 0.62713(12)
O29_5 O 0.82754(11) 0.8540(5) 0.35594(12)
O30_5 O 0.93007(12) 0.3995(4) 0.65303(14)
Cd10_2 Cd 0.510675(10) 0.72735(4) 0.559576(11)
Cd11_3 Cd 0.510675(10) 0.27265(4) 0.059576(11)
Cd16_2 Cd 0.939147(9) 0.76892(3) 0.148100(11)
N5_3 N 0.90432(13) 0.2065(5) 0.66199(16)
O34_3 O 0.76551(10) 0.8997(3) 0.33988(12)
O35_3 O 0.77295(12) 0.9558(4) 0.30195(13)
O36_3 O 0.98573(9) 0.2971(3) 0.65682(10)
O37_3 O 0.97992(10) 0.2484(4) 0.69773(11)
C42_5 C 0.76603(16) 0.9694(5) 0.32264(19)
C99_5 C 0.96317(16) 0.9481(5) 0.63384(18)
C100_5 C 0.96094(17) 0.8652(5) 0.64911(19)
H63_5 H 0.9552 0.8700 0.6648
C101_5 C 0.96717(18) 0.7757(5) 0.6411(2)
H64_5 H 0.9651 0.7211 0.6510
C102_5 C 0.97650(17) 0.7674(5) 0.61832(19)
C103_5 C 0.97890(16) 0.8510(5) 0.60361(18)
H65_5 H 0.9851 0.8469 0.5884
C104_5 C 0.97234(16) 0.9379(5) 0.61100(18)
H66_5 H 0.9740 0.9919 0.6006
C105_5 C 0.98236(17) 0.6725(5) 0.60881(19)
C106_5 C 0.99361(17) 0.5975(5) 0.63123(19)
H67_5 H 0.9976 0.6075 0.6524
C107_5 C 0.99861(17) 0.5107(6) 0.6222(2)
C108_5 C 0.99149(16) 0.4907(5) 0.59013(19)
C109_5 C 0.97902(17) 0.5633(5) 0.5677(2)
H69_5 H 0.9730 0.5512 0.5461
C110_5 C 0.97548(16) 0.6543(5) 0.57736(18)
H70_5 H 0.9684 0.7035 0.5624
C111_5 C 0.99674(16) 0.3964(5) 0.5799(2)
C1_6 C 0.16861(16) 0.2604(6) 0.42425(19)
C2_6 C 0.14848(14) 0.2541(5) 0.43855(16)
C3_6 C 0.15463(15) 0.3039(5) 0.46604(17)
H1_6 H 0.1710 0.3408 0.4758
C4_6 C 0.13638(14) 0.2993(5) 0.47935(17)
H2_6 H 0.1410 0.3329 0.4981
C5_6 C 0.11160(14) 0.2465(5) 0.46561(17)
C6_6 C 0.10556(14) 0.1963(5) 0.43786(17)
H3_6 H 0.0891 0.1598 0.4282
C7_6 C 0.12317(14) 0.1989(5) 0.42433(17)
H4_6 H 0.1186 0.1643 0.4057
C8_6 C 0.09294(14) 0.2428(5) 0.47987(17)
C9_6 C 0.09069(14) 0.3248(6) 0.49677(17)
H5_6 H 0.1001 0.3812 0.4973
C10_6 C 0.07442(15) 0.3192(6) 0.51221(17)
H6_6 H 0.0733 0.3729 0.5231
C11_6 C 0.05937(15) 0.2355(5) 0.51224(18)
C12_6 C 0.06213(14) 0.1583(5) 0.49596(16)
H7_6 H 0.0526 0.1021 0.4953
C13_6 C 0.07850(13) 0.1603(5) 0.48048(16)
H8_6 H 0.0799 0.1054 0.4702
C14_6 C 0.04349(16) 0.2319(6) 0.53002(18)
C15_6 C 0.26022(15) 0.3778(6) 0.42690(18)
C16_6 C 0.28764(15) 0.4254(6) 0.44500(17)
C17_6 C 0.29563(17) 0.4951(7) 0.43144(19)
H9_6 H 0.2833 0.5141 0.4106
C18_6 C 0.32257(16) 0.5409(7) 0.44825(19)
H10_6 H 0.3270 0.5896 0.4380
C19_6 C 0.34180(16) 0.5167(6) 0.47819(18)
C20_6 C 0.33281(15) 0.4419(6) 0.49199(18)
H11_6 H 0.3452 0.4214 0.5126
C21_6 C 0.30684(15) 0.3994(6) 0.47623(17)
H12_6 H 0.3019 0.3522 0.4865
C22_6 C 0.37033(15) 0.5532(6) 0.49421(17)
C23_6 C 0.38390(16) 0.5791(6) 0.47674(19)
H13_6 H 0.3740 0.5728 0.4546
C24_6 C 0.41092(15) 0.6134(6) 0.49020(18)
H14_6 H 0.4185 0.6345 0.4773
C25_6 C 0.42701(15) 0.6165(6) 0.52345(17)
C26_6 C 0.41469(14) 0.5894(5) 0.54209(17)
H15_6 H 0.4252 0.5912 0.5643
C27_6 C 0.38664(15) 0.5595(6) 0.52776(17)
H16_6 H 0.3785 0.5433 0.5406
C28_6 C 0.45773(15) 0.6481(6) 0.53829(18)
C29_6 C 0.22313(16) 0.1162(5) 0.3848(2)
C30_6 C 0.23148(16) 0.0242(5) 0.37527(19)
C35_6 C 0.23086(16) 0.0126(5) 0.34579(19)
H20_6 H 0.2256 0.0633 0.3314
C43_6 C 0.17958(16) 0.4073(6) 0.33792(18)
C44_6 C 0.15525(15) 0.4652(6) 0.31691(17)
C45_6 C 0.13730(17) 0.5054(7) 0.3276(2)
H25_6 H 0.1421 0.5009 0.3492
C46_6 C 0.11271(17) 0.5514(7) 0.30688(18)
H26_6 H 0.1008 0.5741 0.3147
C47_6 C 0.10470(15) 0.5659(6) 0.27365(17)
C48_6 C 0.12382(17) 0.5315(7) 0.26430(19)
H27_6 H 0.1201 0.5398 0.2432
C49_6 C 0.14865(17) 0.4845(7) 0.28580(19)
H28_6 H 0.1613 0.4654 0.2786
C50_6 C 0.07812(15) 0.6117(6) 0.25173(17)
C51_6 C 0.05957(16) 0.6465(6) 0.26332(18)
H29_6 H 0.0651 0.6453 0.2851
C52_6 C 0.03384(16) 0.6811(6) 0.24200(17)
H30_6 H 0.0218 0.7023 0.2498
C53_6 C 0.02430(14) 0.6870(6) 0.20919(16)
C54_6 C 0.04315(15) 0.6571(6) 0.19851(18)
H31_6 H 0.0380 0.6615 0.1768
C55_6 C 0.06970(16) 0.6208(6) 0.21984(17)
H32_6 H 0.0820 0.6024 0.2121
C57_6 C 0.22715(15) 0.1966(6) 0.28242(17)
C58_6 C 0.20071(15) 0.1473(6) 0.26127(16)
C59_6 C 0.19973(15) 0.0790(6) 0.23738(17)
H33_6 H 0.2159 0.0658 0.2356
C60_6 C 0.17458(15) 0.0348(6) 0.21767(17)
C61_6 C 0.14947(15) 0.0515(6) 0.21941(17)
C62_6 C 0.15117(15) 0.1093(6) 0.24331(17)
H35_6 H 0.1354 0.1158 0.2464
C63_6 C 0.17565(15) 0.1591(6) 0.26326(17)
H36_6 H 0.1754 0.2013 0.2783
C64_6 C 0.12297(15) 0.0016(6) 0.19762(18)
C71_6 C 0.29163(16) 0.1670(6) 0.37755(19)
C72_6 C 0.30939(14) 0.1016(5) 0.40544(17)
C73_6 C 0.30355(15) 0.0936(5) 0.43014(17)
H41_6 H 0.2884 0.1272 0.4297
C74_6 C 0.31997(14) 0.0358(5) 0.45611(17)
H42_6 H 0.3153 0.0303 0.4726
C77_6 C 0.33230(15) 0.0506(6) 0.40655(18)
H44_6 H 0.3363 0.0545 0.3895
C85_6 C 0.2924(2) 0.2355(8) 0.2579(2)
H49_6 H 0.2736 0.2168 0.2502
C86_6 C 0.3032(2) 0.2346(8) 0.2365(3)
H50_6 H 0.2919 0.2188 0.2150
C87_6 C 0.3311(2) 0.2578(8) 0.2479(3)
C88_6 C 0.3472(2) 0.2751(8) 0.2799(3)
H51_6 H 0.3666 0.2855 0.2887
C89_6 C 0.3339(2) 0.2771(7) 0.2994(2)
H52_6 H 0.3449 0.2903 0.3210
C90_6 C 0.3434(2) 0.2677(9) 0.2237(3)
H53_6 H 0.3638 0.2599 0.2351
H54_6 H 0.3356 0.2180 0.2076
C91_6 C 0.3365(2) 0.3598(9) 0.2086(2)
H55_6 H 0.3513 0.4045 0.2218
H56_6 H 0.3191 0.3817 0.2079
C92_6 C 0.3330(2) 0.3633(9) 0.1759(2)
H57_6 H 0.3279 0.4281 0.1680
H58_6 H 0.3172 0.3223 0.1625
C93_6 C 0.3584(2) 0.3339(9) 0.1720(3)
C94_6 C 0.3565(2) 0.2758(9) 0.1502(3)
H59_6 H 0.3391 0.2471 0.1375
C95_6 C 0.3783(2) 0.2532(9) 0.1445(3)
H60_6 H 0.3754 0.2096 0.1284
C96_6 C 0.4068(2) 0.3444(8) 0.1845(2)
H61_6 H 0.4245 0.3704 0.1982
C97_6 C 0.3844(2) 0.3636(9) 0.1900(3)
H62_6 H 0.3880 0.4005 0.2078
C112_6 C 0.33072(19) 0.3547(7) 0.3831(2)
H71_6 H 0.3148 0.3689 0.3854
C113_6 C 0.3562(2) 0.3165(9) 0.4412(2)
H72_6 H 0.3390 0.3380 0.4407
H73_6 H 0.3721 0.3493 0.4579
H74_6 H 0.3583 0.2489 0.4451
C114_6 C 0.3809(3) 0.3342(13) 0.4073(3)
H75_6 H 0.3912 0.2769 0.4171
H76_6 H 0.3923 0.3890 0.4177
H77_6 H 0.3760 0.3349 0.3850
C116_6 C 0.3861(2) 0.0154(9) 0.6124(3)
H80_6 H 0.3770 0.0745 0.6026
H81_6 H 0.3883 0.0119 0.6337
C117_6 C 0.4184(2) 0.0622(7) 0.5889(2)
H82_6 H 0.4333 0.0326 0.5863
H83_6 H 0.4232 0.1278 0.5952
H84_6 H 0.4011 0.0595 0.5691
Cd1_6 Cd 0.206685(10) 0.27986(3) 0.402372(11)
Cd2_4 Cd 0.236600(9) 0.30358(3) 0.351636(11)
Cd3_4 Cd 0.282639(10) 0.28457(3) 0.316777(11)
N1_6 N 0.30663(12) 0.2609(5) 0.28832(14)
N2_4 N 0.40432(13) 0.2935(5) 0.16199(16)
N3_6 N 0.35508(15) 0.3370(8) 0.41035(18)
N4_6 N 0.41472(17) 0.0110(6) 0.61390(19)
O1_6 O 0.19124(11) 0.3027(5) 0.43911(13)
O2_6 O 0.16161(12) 0.2204(4) 0.39806(14)
O5_6 O 0.24674(10) 0.3887(4) 0.39745(12)
O6_6 O 0.25063(11) 0.3284(5) 0.44150(12)
O7_6 O 0.46663(10) 0.6801(5) 0.52019(12)
O8_4 O 0.47315(9) 0.6371(3) 0.56739(11)
O9_6 O 0.21387(10) 0.1831(4) 0.36476(13)
O10_6 O 0.22482(12) 0.1234(4) 0.41192(13)
O13_6 O 0.19650(10) 0.3851(4) 0.32805(11)
O14_6 O 0.18150(10) 0.3832(4) 0.36487(12)
O17_6 O 0.22749(13) 0.2392(5) 0.30505(14)
O18_6 O 0.24676(11) 0.1976(5) 0.27693(12)
O21_6 O 0.29637(11) 0.1679(4) 0.35389(12)
O22_6 O 0.27440(11) 0.2187(4) 0.38137(12)
O29_6 O 0.32754(11) 0.3540(5) 0.35594(12)
Cd13_4 Cd 0.484564(9) 0.71596(3) 0.614505(10)
O34_4 O 0.26551(10) 0.3997(3) 0.33988(12)
O35_4 O 0.27295(12) 0.4558(4) 0.30195(13)
O39_4 O 0.54120(10) 0.6471(4) 0.60298(11)
O41_4 O 0.50790(9) 0.8301(3) 0.60166(13)
O42_4 O 0.49111(13) 0.8828(4) 0.55157(15)
C31_6 C 0.24048(17) 0.9449(6) 0.3968(2)
H17_6 H 0.2414 0.9508 0.4168
C32_6 C 0.24767(17) 0.8605(6) 0.3881(2)
H18_6 H 0.2539 0.8101 0.4027
C33_6 C 0.24605(16) 0.8474(6) 0.35849(19)
C34_6 C 0.23814(16) 0.9256(5) 0.33793(19)
H19_6 H 0.2377 0.9191 0.3182
C36_6 C 0.25195(18) 0.7506(5) 0.3491(2)
C37_6 C 0.24118(16) 0.6707(5) 0.35660(18)
H21_6 H 0.2310 0.6781 0.3678
C38_6 C 0.24531(16) 0.5770(5) 0.34761(18)
H22_6 H 0.2381 0.5241 0.3532
C39_6 C 0.25994(16) 0.5649(5) 0.33058(18)
C40_6 C 0.26979(17) 0.6488(5) 0.32169(18)
H23_6 H 0.2799 0.6431 0.3103
C41_6 C 0.26435(18) 0.7382(6) 0.3299(2)
H24_6 H 0.2693 0.7920 0.3220
C42_6 C 0.26603(16) 0.4694(5) 0.32264(19)
H34_6 H 0.1741 0.9918 0.2025
C65_6 C 0.11748(15) 0.9783(6) 0.16691(18)
H37_6 H 0.1308 0.9923 0.1601
C66_6 C 0.09160(16) 0.9331(6) 0.14562(19)
H38_6 H 0.0885 0.9152 0.1253
C67_6 C 0.07139(14) 0.9156(6) 0.15418(18)
C68_6 C 0.07690(15) 0.9357(6) 0.18512(18)
H39_6 H 0.0636 0.9205 0.1918
C69_6 C 0.10232(15) 0.9786(6) 0.20632(19)
H40_6 H 0.1056 0.9925 0.2270
C70_6 C 0.04369(15) 0.8724(6) 0.12978(18)
C75_6 C 0.34333(14) 0.9853(5) 0.45834(17)
C76_6 C 0.34893(15) 0.9948(6) 0.43273(17)
H43_6 H 0.3643 0.9626 0.4333
C78_6 C 0.36217(15) 0.9324(5) 0.48782(16)
C79_6 C 0.35268(16) 0.8968(6) 0.50849(17)
H45_6 H 0.3335 0.9019 0.5027
C80_6 C 0.37112(15) 0.8534(6) 0.53794(18)
H46_6 H 0.3644 0.8335 0.5518
C81_6 C 0.39975(14) 0.8405(5) 0.54619(16)
C82_6 C 0.40849(15) 0.8727(5) 0.52531(16)
H47_6 H 0.4274 0.8642 0.5304
C83_6 C 0.39084(14) 0.9169(5) 0.49716(16)
H48_6 H 0.3981 0.9373 0.4838
C84_6 C 0.41936(15) 0.7965(5) 0.57756(17)
C98_6 C 0.45558(16) 0.5436(5) 0.64231(19)
C99_6 C 0.46317(16) 0.4481(5) 0.63384(18)
C100_6 C 0.46094(17) 0.3652(5) 0.64911(19)
H63_6 H 0.4552 0.3700 0.6648
C101_6 C 0.46717(18) 0.2757(5) 0.6411(2)
H64_6 H 0.4651 0.2211 0.6510
C102_6 C 0.47650(17) 0.2674(5) 0.61832(19)
C103_6 C 0.47890(16) 0.3510(5) 0.60361(18)
H65_6 H 0.4851 0.3469 0.5884
C104_6 C 0.47234(16) 0.4379(5) 0.61100(18)
H66_6 H 0.4740 0.4919 0.6006
C105_6 C 0.48236(17) 0.1725(5) 0.60881(19)
C106_6 C 0.49361(17) 0.0975(5) 0.63123(19)
H67_6 H 0.4976 0.1075 0.6524
C107_6 C 0.49861(17) 0.0107(6) 0.6222(2)
C109_6 C 0.47902(17) 0.0633(5) 0.5677(2)
H69_6 H 0.4730 0.0512 0.5461
C110_6 C 0.47548(16) 0.1543(5) 0.57736(18)
H70_6 H 0.4684 0.2035 0.5624
C115_6 C 0.43214(18) 0.9493(6) 0.6316(2)
H78_6 H 0.4480 0.9389 0.6288
H79_6 H 0.3748 0.9627 0.6000
Cd6_4 Cd 0.439147(9) 0.73108(3) 0.648100(11)
O19_4 O 0.02548(9) 0.8590(4) 0.13932(11)
O20_4 O 0.04120(10) 0.8529(4) 0.10298(11)
O23_6 O 0.44495(9) 0.7997(3) 0.58459(11)
O24_6 O 0.40988(9) 0.7663(4) 0.59541(11)
O25_6 O 0.44598(15) 0.5495(4) 0.66089(17)
O26_6 O 0.45742(9) 0.6159(3) 0.62713(12)
O30_6 O 0.43007(12) 0.8995(4) 0.65303(14)
Cd11_4 Cd 0.010675(10) 0.77265(4) 0.059576(11)
N5_4 N 0.40432(13) 0.7065(5) 0.66199(16)
O36_4 O 0.48573(9) 0.7971(3) 0.65682(10)
O37_4 O 0.47992(10) 0.7484(4) 0.69773(11)
O38_4 O 0.52548(9) 0.6410(4) 0.63932(11)
H68_6 H 0.5070 0.9631 0.6375
C108_6 C 0.49149(16) 0.9907(5) 0.59013(19)
C111_6 C 0.49674(16) 0.8964(5) 0.5799(2)
C56_6 C 0.99514(15) 0.7161(6) 0.18712(18)
O15_4 O 0.98573(9) 0.7029(3) 0.15682(10)
O16_4 O 0.97992(10) 0.7516(4) 0.19773(11)
Cd15_4 Cd 0.984564(9) 0.78404(3) 0.114505(10)
H68_7 H 0.0070 0.5369 0.1375
O27_3 O 0.00790(9) 0.6699(3) 0.10166(13)
O31_4 O 0.04339(13) 0.7000(5) 0.04671(16)
O32_4 O 0.02939(13) 0.8393(5) 0.02805(14)
C99_7 C 0.96317(16) 0.0519(5) 0.13384(18)
C100_7 C 0.96094(17) 0.1348(5) 0.14911(19)
H63_7 H 0.9552 0.1300 0.1648
C101_7 C 0.96717(18) 0.2243(5) 0.1411(2)
H64_7 H 0.9651 0.2789 0.1510
C102_7 C 0.97650(17) 0.2326(5) 0.11832(19)
C103_7 C 0.97890(16) 0.1490(5) 0.10361(18)
H65_7 H 0.9851 0.1531 0.0884
C104_7 C 0.97234(16) 0.0621(5) 0.11100(18)
H66_7 H 0.9740 0.0081 0.1006
C105_7 C 0.98236(17) 0.3275(5) 0.10881(19)
C106_7 C 0.99361(17) 0.4025(5) 0.13123(19)
H67_7 H 0.9976 0.3925 0.1524
C107_7 C 0.99861(17) 0.4893(6) 0.1222(2)
C108_7 C 0.99149(16) 0.5093(5) 0.09013(19)
C109_7 C 0.97902(17) 0.4367(5) 0.0677(2)
H69_7 H 0.9730 0.4488 0.0461
C110_7 C 0.97548(16) 0.3457(5) 0.07736(18)
H70_7 H 0.9684 0.2965 0.0624
C111_7 C 0.99674(16) 0.6036(5) 0.0799(2)
O28_3 O 0.99111(13) 0.6172(4) 0.05157(15)
C42_7 C 0.76603(16) 0.0306(5) 0.82264(19)
O11_3 O 0.76551(10) 0.1003(3) 0.83988(12)
O12_3 O 0.77295(12) 0.0442(4) 0.80195(13)
Cd7_3 Cd 0.736600(9) 0.19642(3) 0.851636(11)
Cd8_3 Cd 0.782639(10) 0.21543(3) 0.816777(11)
C10_7 C 0.57442(15) 0.1808(6) 0.01221(17)
H6_7 H 0.5733 0.1271 0.0231
C11_7 C 0.55937(15) 0.2645(5) 0.01224(18)
C14_7 C 0.54349(16) 0.2681(6) 0.03002(18)
H11_7 H 0.8452 0.0786 0.0126
C79_7 C 0.85268(16) 0.6032(6) 0.00849(17)
H45_7 H 0.8335 0.5981 0.0027
C80_7 C 0.87112(15) 0.6466(6) 0.03794(18)
H46_7 H 0.8644 0.6665 0.0518
C81_7 C 0.89975(14) 0.6595(5) 0.04619(16)
C82_7 C 0.90849(15) 0.6273(5) 0.02531(16)
H47_7 H 0.9274 0.6358 0.0304
C84_7 C 0.91936(15) 0.7035(5) 0.07756(17)
C98_7 C 0.95558(16) 0.9564(5) 0.14231(19)
C115_7 C 0.93214(18) 0.5507(6) 0.1316(2)
H78_7 H 0.9480 0.5611 0.1288
C116_7 C 0.8861(2) 0.4846(9) 0.1124(3)
H79_7 H 0.8748 0.5373 0.1000
H80_7 H 0.8770 0.4255 0.1026
H81_7 H 0.8883 0.4881 0.1337
C117_7 C 0.9184(2) 0.4378(7) 0.0889(2)
H82_7 H 0.9333 0.4674 0.0863
H83_7 H 0.9232 0.3722 0.0952
H84_7 H 0.9011 0.4405 0.0691
N4_7 N 0.91472(17) 0.4890(6) 0.11390(19)
O3_4 O 0.54339(13) 0.2000(5) 0.04671(16)
O4_4 O 0.52939(13) 0.3393(5) 0.02805(14)
O23_7 O 0.94495(9) 0.7003(3) 0.08459(11)
O24_7 O 0.90988(9) 0.7337(4) 0.09541(11)
O25_7 O 0.94598(15) 0.9505(4) 0.16089(17)
O26_7 O 0.95742(9) 0.8841(3) 0.12713(12)
O30_7 O 0.93007(12) 0.6005(4) 0.15303(14)
O33_3 O 0.97315(9) 0.8629(3) 0.06739(11)
C1_7 C 0.66861(16) 0.2396(6) 0.92425(19)
C2_7 C 0.64848(14) 0.2459(5) 0.93855(16)
C3_7 C 0.65463(15) 0.1961(5) 0.96604(17)
H1_7 H 0.6710 0.1592 0.9758
C4_7 C 0.63638(14) 0.2007(5) 0.97935(17)
H2_7 H 0.6410 0.1671 0.9981
C5_7 C 0.61160(14) 0.2535(5) 0.96561(17)
C6_7 C 0.60556(14) 0.3037(5) 0.93786(17)
H3_7 H 0.5891 0.3402 0.9282
C7_7 C 0.62317(14) 0.3011(5) 0.92433(17)
H4_7 H 0.6186 0.3357 0.9057
C8_7 C 0.59294(14) 0.2572(5) 0.97987(17)
C9_7 C 0.59069(14) 0.1752(6) 0.99677(17)
H5_7 H 0.6001 0.1188 0.9973
C12_7 C 0.56213(14) 0.3417(5) 0.99596(16)
H7_7 H 0.5526 0.3979 0.9953
C13_7 C 0.57850(13) 0.3397(5) 0.98048(16)
H8_7 H 0.5799 0.3946 0.9702
C15_7 C 0.76022(15) 0.1222(6) 0.92690(18)
C16_7 C 0.78764(15) 0.0746(6) 0.94500(17)
C17_7 C 0.79563(17) 0.0049(7) 0.93144(19)
C20_7 C 0.83281(15) 0.0581(6) 0.99199(18)
C21_7 C 0.80684(15) 0.1006(6) 0.97623(17)
H12_7 H 0.8019 0.1478 0.9865
C29_7 C 0.72313(16) 0.3838(5) 0.8848(2)
C30_7 C 0.73148(16) 0.4758(5) 0.87527(19)
C31_7 C 0.74048(17) 0.5551(6) 0.8968(2)
H17_7 H 0.7414 0.5492 0.9168
C32_7 C 0.74767(17) 0.6395(6) 0.8881(2)
H18_7 H 0.7539 0.6899 0.9027
C33_7 C 0.74605(16) 0.6526(6) 0.85849(19)
C34_7 C 0.73814(16) 0.5744(5) 0.83793(19)
H19_7 H 0.7377 0.5809 0.8182
C35_7 C 0.73086(16) 0.4874(5) 0.84579(19)
H20_7 H 0.7256 0.4367 0.8314
C36_7 C 0.75195(18) 0.7494(5) 0.8491(2)
C37_7 C 0.74118(16) 0.8293(5) 0.85660(18)
H21_7 H 0.7310 0.8219 0.8678
C38_7 C 0.74531(16) 0.9230(5) 0.84761(18)
H22_7 H 0.7381 0.9759 0.8532
C39_7 C 0.75994(16) 0.9351(5) 0.83058(18)
C40_7 C 0.76979(17) 0.8512(5) 0.82169(18)
H23_7 H 0.7799 0.8569 0.8103
C41_7 C 0.76435(18) 0.7618(6) 0.8299(2)
H24_7 H 0.7693 0.7080 0.8220
C43_7 C 0.67958(16) 0.0927(6) 0.83792(18)
C44_7 C 0.65525(15) 0.0348(6) 0.81691(17)
C49_7 C 0.64865(17) 0.0155(7) 0.78580(19)
H28_7 H 0.6613 0.0346 0.7786
C57_7 C 0.72715(15) 0.3034(6) 0.78242(17)
C58_7 C 0.70071(15) 0.3527(6) 0.76127(16)
C59_7 C 0.69973(15) 0.4210(6) 0.73738(17)
H33_7 H 0.7159 0.4342 0.7356
C60_7 C 0.67458(15) 0.4652(6) 0.71767(17)
H34_7 H 0.6741 0.5082 0.7025
C61_7 C 0.64947(15) 0.4485(6) 0.71941(17)
C62_7 C 0.65117(15) 0.3907(6) 0.74331(17)
H35_7 H 0.6354 0.3842 0.7464
C63_7 C 0.67565(15) 0.3409(6) 0.76326(17)
H36_7 H 0.6754 0.2987 0.7783
C64_7 C 0.62297(15) 0.4984(6) 0.69762(18)
C65_7 C 0.61748(15) 0.5217(6) 0.66691(18)
H37_7 H 0.6308 0.5077 0.6601
C66_7 C 0.59160(16) 0.5669(6) 0.64562(19)
H38_7 H 0.5885 0.5848 0.6253
C67_7 C 0.57139(14) 0.5844(6) 0.65418(18)
C68_7 C 0.57690(15) 0.5643(6) 0.68512(18)
H39_7 H 0.5636 0.5795 0.6918
C69_7 C 0.60232(15) 0.5214(6) 0.70632(19)
H40_7 H 0.6056 0.5075 0.7270
C70_7 C 0.54369(15) 0.6276(6) 0.62978(18)
C71_7 C 0.79163(16) 0.3330(6) 0.87755(19)
C72_7 C 0.80939(14) 0.3984(5) 0.90544(17)
C73_7 C 0.80355(15) 0.4064(5) 0.93014(17)
H41_7 H 0.7884 0.3728 0.9297
C74_7 C 0.81997(14) 0.4642(5) 0.95611(17)
H42_7 H 0.8153 0.4697 0.9726
C75_7 C 0.84333(14) 0.5147(5) 0.95834(17)
C76_7 C 0.84893(15) 0.5052(6) 0.93273(17)
H43_7 H 0.8643 0.5374 0.9333
C77_7 C 0.83230(15) 0.4494(6) 0.90655(18)
H44_7 H 0.8363 0.4455 0.8895
C78_7 C 0.86217(15) 0.5676(5) 0.98782(16)
C83_7 C 0.89084(14) 0.5831(5) 0.99716(16)
H48_7 H 0.8981 0.5627 0.9838
C85_7 C 0.7924(2) 0.2645(8) 0.7579(2)
H49_7 H 0.7736 0.2832 0.7502
C86_7 C 0.8032(2) 0.2654(8) 0.7365(3)
H50_7 H 0.7919 0.2812 0.7150
C87_7 C 0.8311(2) 0.2422(8) 0.7479(3)
C88_7 C 0.8472(2) 0.2249(8) 0.7799(3)
H51_7 H 0.8666 0.2145 0.7887
C89_7 C 0.8339(2) 0.2229(7) 0.7994(2)
H52_7 H 0.8449 0.2097 0.8210
C90_7 C 0.8434(2) 0.2323(9) 0.7237(3)
H53_7 H 0.8638 0.2401 0.7351
H54_7 H 0.8356 0.2820 0.7076
C91_7 C 0.8365(2) 0.1402(9) 0.7086(2)
H55_7 H 0.8513 0.0955 0.7218
H56_7 H 0.8191 0.1183 0.7079
C92_7 C 0.8330(2) 0.1367(9) 0.6759(2)
H57_7 H 0.8279 0.0719 0.6680
H58_7 H 0.8172 0.1777 0.6625
C93_7 C 0.8584(2) 0.1661(9) 0.6720(3)
C94_7 C 0.8565(2) 0.2242(9) 0.6502(3)
H59_7 H 0.8391 0.2529 0.6375
C95_7 C 0.8783(2) 0.2468(9) 0.6445(3)
H60_7 H 0.8754 0.2904 0.6284
C96_7 C 0.9068(2) 0.1556(8) 0.6845(2)
H61_7 H 0.9245 0.1296 0.6982
C97_7 C 0.8844(2) 0.1364(9) 0.6900(3)
H62_7 H 0.8880 0.0995 0.7078
C112_7 C 0.83072(19) 0.1453(7) 0.8831(2)
H71_7 H 0.8148 0.1311 0.8854
C113_7 C 0.8562(2) 0.1835(9) 0.9412(2)
H72_7 H 0.8390 0.1620 0.9407
H73_7 H 0.8721 0.1507 0.9579
H74_7 H 0.8583 0.2511 0.9451
C114_7 C 0.8809(3) 0.1658(13) 0.9073(3)
H75_7 H 0.8912 0.2231 0.9171
H76_7 H 0.8923 0.1110 0.9177
H77_7 H 0.8760 0.1651 0.8850
Cd1_7 Cd 0.706685(10) 0.22014(3) 0.902372(11)
N1_7 N 0.80663(12) 0.2391(5) 0.78832(14)
N3_7 N 0.85508(15) 0.1630(8) 0.91035(18)
O1_7 O 0.69124(11) 0.1973(5) 0.93911(13)
O2_7 O 0.66161(12) 0.2796(4) 0.89806(14)
O5_7 O 0.74674(10) 0.1113(4) 0.89745(12)
O6_7 O 0.75063(11) 0.1716(5) 0.94150(12)
O9_7 O 0.71387(10) 0.3169(4) 0.86476(13)
O10_7 O 0.72482(12) 0.3766(4) 0.91192(13)
O13_7 O 0.69650(10) 0.1149(4) 0.82805(11)
O14_7 O 0.68150(10) 0.1168(4) 0.86487(12)
O17_7 O 0.72749(13) 0.2608(5) 0.80505(14)
O18_7 O 0.74676(11) 0.3024(5) 0.77693(12)
O21_7 O 0.79637(11) 0.3321(4) 0.85389(12)
O22_7 O 0.77440(11) 0.2813(4) 0.88137(12)
O29_7 O 0.82754(11) 0.1460(5) 0.85594(12)
C25_7 C 0.92701(15) 0.8835(6) 0.02345(17)
C26_7 C 0.91469(14) 0.9106(5) 0.04209(17)
H15_7 H 0.9252 0.9088 0.0643
C27_7 C 0.88664(15) 0.9405(6) 0.02776(17)
H16_7 H 0.8785 0.9567 0.0406
C28_7 C 0.95773(15) 0.8519(6) 0.03829(18)
O7_7 O 0.96663(10) 0.8199(5) 0.02019(12)
H9_7 H 0.7833 0.9859 0.9106
C18_7 C 0.82257(16) 0.9591(7) 0.94825(19)
H10_7 H 0.8270 0.9104 0.9380
C19_7 C 0.84180(16) 0.9833(6) 0.97819(18)
C22_7 C 0.87033(15) 0.9468(6) 0.99421(17)
C23_7 C 0.88390(16) 0.9209(6) 0.97674(19)
H13_7 H 0.8740 0.9272 0.9546
C24_7 C 0.91092(15) 0.8866(6) 0.99020(18)
H14_7 H 0.9185 0.8655 0.9773
C45_7 C 0.63730(17) 0.9946(7) 0.8276(2)
H25_7 H 0.6421 0.9991 0.8492
C46_7 C 0.61271(17) 0.9486(7) 0.80688(18)
H26_7 H 0.6008 0.9259 0.8147
C47_7 C 0.60470(15) 0.9341(6) 0.77365(17)
C48_7 C 0.62382(17) 0.9685(7) 0.76430(19)
H27_7 H 0.6201 0.9602 0.7432
C50_7 C 0.57812(15) 0.8883(6) 0.75173(17)
C51_7 C 0.55957(16) 0.8535(6) 0.76332(18)
H29_7 H 0.5651 0.8547 0.7851
C52_7 C 0.53384(16) 0.8189(6) 0.74200(17)
H30_7 H 0.5218 0.7977 0.7498
C53_7 C 0.52430(14) 0.8130(6) 0.70919(16)
C54_7 C 0.54315(15) 0.8429(6) 0.69851(18)
H31_7 H 0.5380 0.8385 0.6768
C55_7 C 0.56970(16) 0.8792(6) 0.71984(17)
H32_7 H 0.5820 0.8976 0.7121
C56_7 C 0.49514(15) 0.7839(6) 0.68712(18)
H68_8 H 0.5070 0.0369 0.1375
C108_8 C 0.49149(16) 0.0093(5) 0.09013(19)
C111_8 C 0.49674(16) 0.1036(5) 0.0799(2)
O27_4 O 0.50790(9) 0.1699(3) 0.10166(13)
O28_4 O 0.49111(13) 0.1172(4) 0.05157(15)
C79_8 C 0.35268(16) 0.1032(6) 0.00849(17)
H45_8 H 0.3335 0.0981 0.0027
C80_8 C 0.37112(15) 0.1466(6) 0.03794(18)
H46_8 H 0.3644 0.1665 0.0518
C81_8 C 0.39975(14) 0.1595(5) 0.04619(16)
C82_8 C 0.40849(15) 0.1273(5) 0.02531(16)
H47_8 H 0.4274 0.1358 0.0304
C84_8 C 0.41936(15) 0.2035(5) 0.07756(17)
C98_8 C 0.45558(16) 0.4564(5) 0.14231(19)
C99_8 C 0.46317(16) 0.5519(5) 0.13384(18)
C100_8 C 0.46094(17) 0.6348(5) 0.14911(19)
H63_8 H 0.4552 0.6300 0.1648
C101_8 C 0.46717(18) 0.7243(5) 0.1411(2)
H64_8 H 0.4651 0.7789 0.1510
C102_8 C 0.47650(17) 0.7326(5) 0.11832(19)
C103_8 C 0.47890(16) 0.6490(5) 0.10361(18)
H65_8 H 0.4851 0.6531 0.0884
C104_8 C 0.47234(16) 0.5621(5) 0.11100(18)
H66_8 H 0.4740 0.5081 0.1006
C105_8 C 0.48236(17) 0.8275(5) 0.10881(19)
C106_8 C 0.49361(17) 0.9025(5) 0.13123(19)
H67_8 H 0.4976 0.8925 0.1524
C107_8 C 0.49861(17) 0.9893(6) 0.1222(2)
C109_8 C 0.47902(17) 0.9367(5) 0.0677(2)
H69_8 H 0.4730 0.9488 0.0461
C110_8 C 0.47548(16) 0.8457(5) 0.07736(18)
H70_8 H 0.4684 0.7965 0.0624
C115_8 C 0.43214(18) 0.0507(6) 0.1316(2)
H78_8 H 0.4480 0.0611 0.1288
H79_8 H 0.3748 0.0373 0.1000
O23_8 O 0.44495(9) 0.2003(3) 0.08459(11)
O24_8 O 0.40988(9) 0.2337(4) 0.09541(11)
O25_8 O 0.44598(15) 0.4505(4) 0.16089(17)
O26_8 O 0.45742(9) 0.3841(3) 0.12713(12)
O30_8 O 0.43007(12) 0.1005(4) 0.15303(14)
O33_4 O 0.47315(9) 0.3629(3) 0.06739(11)
C31_8 C 0.24048(17) 0.0551(6) 0.8968(2)
H17_8 H 0.2414 0.0492 0.9168
C32_8 C 0.24767(17) 0.1395(6) 0.8881(2)
H18_8 H 0.2539 0.1899 0.9027
C33_8 C 0.24605(16) 0.1526(6) 0.85849(19)
C34_8 C 0.23814(16) 0.0744(5) 0.83793(19)
H19_8 H 0.2377 0.0809 0.8182
C36_8 C 0.25195(18) 0.2494(5) 0.8491(2)
C37_8 C 0.24118(16) 0.3293(5) 0.85660(18)
H21_8 H 0.2310 0.3219 0.8678
C38_8 C 0.24531(16) 0.4230(5) 0.84761(18)
H22_8 H 0.2381 0.4759 0.8532
C39_8 C 0.25994(16) 0.4351(5) 0.83058(18)
C40_8 C 0.26979(17) 0.3512(5) 0.82169(18)
H23_8 H 0.2799 0.3569 0.8103
C41_8 C 0.26435(18) 0.2618(6) 0.8299(2)
H24_8 H 0.2693 0.2080 0.8220
C42_8 C 0.26603(16) 0.5306(5) 0.82264(19)
H34_8 H 0.1741 0.0082 0.7025
C65_8 C 0.11748(15) 0.0217(6) 0.66691(18)
H37_8 H 0.1308 0.0077 0.6601
C66_8 C 0.09160(16) 0.0669(6) 0.64562(19)
H38_8 H 0.0885 0.0848 0.6253
C67_8 C 0.07139(14) 0.0844(6) 0.65418(18)
C68_8 C 0.07690(15) 0.0643(6) 0.68512(18)
H39_8 H 0.0636 0.0795 0.6918
C69_8 C 0.10232(15) 0.0214(6) 0.70632(19)
H40_8 H 0.1056 0.0075 0.7270
C70_8 C 0.04369(15) 0.1276(6) 0.62978(18)
C75_8 C 0.34333(14) 0.0147(5) 0.95834(17)
C76_8 C 0.34893(15) 0.0052(6) 0.93273(17)
H43_8 H 0.3643 0.0374 0.9333
C78_8 C 0.36217(15) 0.0676(5) 0.98782(16)
C83_8 C 0.39084(14) 0.0831(5) 0.99716(16)
H48_8 H 0.3981 0.0627 0.9838
O11_4 O 0.26551(10) 0.6003(3) 0.83988(12)
O12_4 O 0.27295(12) 0.5442(4) 0.80195(13)
Cd7_4 Cd 0.236600(9) 0.69642(3) 0.851636(11)
Cd8_4 Cd 0.282639(10) 0.71543(3) 0.816777(11)
C10_8 C 0.07442(15) 0.6808(6) 0.01221(17)
H6_8 H 0.0733 0.6271 0.0231
C11_8 C 0.05937(15) 0.7645(5) 0.01224(18)
C14_8 C 0.04349(16) 0.7681(6) 0.03002(18)
H11_8 H 0.3452 0.5786 0.0126
C25_8 C 0.42701(15) 0.3835(6) 0.02345(17)
C26_8 C 0.41469(14) 0.4106(5) 0.04209(17)
H15_8 H 0.4252 0.4088 0.0643
C27_8 C 0.38664(15) 0.4405(6) 0.02776(17)
H16_8 H 0.3785 0.4567 0.0406
C28_8 C 0.45773(15) 0.3519(6) 0.03829(18)
C116_8 C 0.3861(2) 0.9846(9) 0.1124(3)
H80_8 H 0.3770 0.9255 0.1026
H81_8 H 0.3883 0.9881 0.1337
C117_8 C 0.4184(2) 0.9378(7) 0.0889(2)
H82_8 H 0.4333 0.9674 0.0863
H83_8 H 0.4232 0.8722 0.0952
H84_8 H 0.4011 0.9405 0.0691
N4_8 N 0.41472(17) 0.9890(6) 0.11390(19)
O7_8 O 0.46663(10) 0.3199(5) 0.02019(12)
C1_8 C 0.16861(16) 0.7396(6) 0.92425(19)
C2_8 C 0.14848(14) 0.7459(5) 0.93855(16)
C3_8 C 0.15463(15) 0.6961(5) 0.96604(17)
H1_8 H 0.1710 0.6592 0.9758
C4_8 C 0.13638(14) 0.7007(5) 0.97935(17)
H2_8 H 0.1410 0.6671 0.9981
C5_8 C 0.11160(14) 0.7535(5) 0.96561(17)
C6_8 C 0.10556(14) 0.8037(5) 0.93786(17)
H3_8 H 0.0891 0.8402 0.9282
C7_8 C 0.12317(14) 0.8011(5) 0.92433(17)
H4_8 H 0.1186 0.8357 0.9057
C8_8 C 0.09294(14) 0.7572(5) 0.97987(17)
C9_8 C 0.09069(14) 0.6752(6) 0.99677(17)
H5_8 H 0.1001 0.6188 0.9973
C12_8 C 0.06213(14) 0.8417(5) 0.99596(16)
H7_8 H 0.0526 0.8979 0.9953
C13_8 C 0.07850(13) 0.8397(5) 0.98048(16)
H8_8 H 0.0799 0.8946 0.9702
C15_8 C 0.26022(15) 0.6222(6) 0.92690(18)
C16_8 C 0.28764(15) 0.5746(6) 0.94500(17)
C17_8 C 0.29563(17) 0.5049(7) 0.93144(19)
H9_8 H 0.2833 0.4859 0.9106
C18_8 C 0.32257(16) 0.4591(7) 0.94825(19)
H10_8 H 0.3270 0.4104 0.9380
C19_8 C 0.34180(16) 0.4833(6) 0.97819(18)
C20_8 C 0.33281(15) 0.5581(6) 0.99199(18)
C21_8 C 0.30684(15) 0.6006(6) 0.97623(17)
H12_8 H 0.3019 0.6478 0.9865
C22_8 C 0.37033(15) 0.4468(6) 0.99421(17)
C23_8 C 0.38390(16) 0.4209(6) 0.97674(19)
H13_8 H 0.3740 0.4272 0.9546
C24_8 C 0.41092(15) 0.3866(6) 0.99020(18)
H14_8 H 0.4185 0.3655 0.9773
C29_8 C 0.22313(16) 0.8838(5) 0.8848(2)
C30_8 C 0.23148(16) 0.9758(5) 0.87527(19)
C35_8 C 0.23086(16) 0.9874(5) 0.84579(19)
H20_8 H 0.2256 0.9367 0.8314
C43_8 C 0.17958(16) 0.5927(6) 0.83792(18)
C44_8 C 0.15525(15) 0.5348(6) 0.81691(17)
C45_8 C 0.13730(17) 0.4946(7) 0.8276(2)
H25_8 H 0.1421 0.4991 0.8492
C46_8 C 0.11271(17) 0.4486(7) 0.80688(18)
H26_8 H 0.1008 0.4259 0.8147
C47_8 C 0.10470(15) 0.4341(6) 0.77365(17)
C48_8 C 0.12382(17) 0.4685(7) 0.76430(19)
H27_8 H 0.1201 0.4602 0.7432
C49_8 C 0.14865(17) 0.5155(7) 0.78580(19)
H28_8 H 0.1613 0.5346 0.7786
C50_8 C 0.07812(15) 0.3883(6) 0.75173(17)
C51_8 C 0.05957(16) 0.3535(6) 0.76332(18)
H29_8 H 0.0651 0.3547 0.7851
C52_8 C 0.03384(16) 0.3189(6) 0.74200(17)
H30_8 H 0.0218 0.2977 0.7498
C53_8 C 0.02430(14) 0.3130(6) 0.70919(16)
C54_8 C 0.04315(15) 0.3429(6) 0.69851(18)
H31_8 H 0.0380 0.3385 0.6768
C55_8 C 0.06970(16) 0.3792(6) 0.71984(17)
H32_8 H 0.0820 0.3976 0.7121
C57_8 C 0.22715(15) 0.8034(6) 0.78242(17)
C58_8 C 0.20071(15) 0.8527(6) 0.76127(16)
C59_8 C 0.19973(15) 0.9210(6) 0.73738(17)
H33_8 H 0.2159 0.9342 0.7356
C60_8 C 0.17458(15) 0.9652(6) 0.71767(17)
C61_8 C 0.14947(15) 0.9485(6) 0.71941(17)
C62_8 C 0.15117(15) 0.8907(6) 0.74331(17)
H35_8 H 0.1354 0.8842 0.7464
C63_8 C 0.17565(15) 0.8409(6) 0.76326(17)
H36_8 H 0.1754 0.7987 0.7783
C64_8 C 0.12297(15) 0.9984(6) 0.69762(18)
C71_8 C 0.29163(16) 0.8330(6) 0.87755(19)
C72_8 C 0.30939(14) 0.8984(5) 0.90544(17)
C73_8 C 0.30355(15) 0.9064(5) 0.93014(17)
H41_8 H 0.2884 0.8728 0.9297
C74_8 C 0.31997(14) 0.9642(5) 0.95611(17)
H42_8 H 0.3153 0.9697 0.9726
C77_8 C 0.33230(15) 0.9494(6) 0.90655(18)
H44_8 H 0.3363 0.9455 0.8895
C85_8 C 0.2924(2) 0.7645(8) 0.7579(2)
H49_8 H 0.2736 0.7832 0.7502
C86_8 C 0.3032(2) 0.7654(8) 0.7365(3)
H50_8 H 0.2919 0.7812 0.7150
C87_8 C 0.3311(2) 0.7422(8) 0.7479(3)
C88_8 C 0.3472(2) 0.7249(8) 0.7799(3)
H51_8 H 0.3666 0.7145 0.7887
C89_8 C 0.3339(2) 0.7229(7) 0.7994(2)
H52_8 H 0.3449 0.7097 0.8210
C90_8 C 0.3434(2) 0.7323(9) 0.7237(3)
H53_8 H 0.3638 0.7401 0.7351
H54_8 H 0.3356 0.7820 0.7076
C91_8 C 0.3365(2) 0.6402(9) 0.7086(2)
H55_8 H 0.3513 0.5955 0.7218
H56_8 H 0.3191 0.6183 0.7079
C92_8 C 0.3330(2) 0.6367(9) 0.6759(2)
H57_8 H 0.3279 0.5719 0.6680
H58_8 H 0.3172 0.6777 0.6625
C93_8 C 0.3584(2) 0.6661(9) 0.6720(3)
C94_8 C 0.3565(2) 0.7242(9) 0.6502(3)
H59_8 H 0.3391 0.7529 0.6375
C95_8 C 0.3783(2) 0.7468(9) 0.6445(3)
H60_8 H 0.3754 0.7904 0.6284
C96_8 C 0.4068(2) 0.6556(8) 0.6845(2)
H61_8 H 0.4245 0.6296 0.6982
C97_8 C 0.3844(2) 0.6364(9) 0.6900(3)
H62_8 H 0.3880 0.5995 0.7078
C112_8 C 0.33072(19) 0.6453(7) 0.8831(2)
H71_8 H 0.3148 0.6311 0.8854
C113_8 C 0.3562(2) 0.6835(9) 0.9412(2)
H72_8 H 0.3390 0.6620 0.9407
H73_8 H 0.3721 0.6507 0.9579
H74_8 H 0.3583 0.7511 0.9451
C114_8 C 0.3809(3) 0.6658(13) 0.9073(3)
H75_8 H 0.3912 0.7231 0.9171
H76_8 H 0.3923 0.6110 0.9177
H77_8 H 0.3760 0.6651 0.8850
Cd1_8 Cd 0.206685(10) 0.72014(3) 0.902372(11)
N1_8 N 0.30663(12) 0.7391(5) 0.78832(14)
N3_8 N 0.35508(15) 0.6630(8) 0.91035(18)
O1_8 O 0.19124(11) 0.6973(5) 0.93911(13)
O2_8 O 0.16161(12) 0.7796(4) 0.89806(14)
O5_8 O 0.24674(10) 0.6113(4) 0.89745(12)
O6_8 O 0.25063(11) 0.6716(5) 0.94150(12)
O9_8 O 0.21387(10) 0.8169(4) 0.86476(13)
O10_8 O 0.22482(12) 0.8766(4) 0.91192(13)
O13_8 O 0.19650(10) 0.6149(4) 0.82805(11)
O14_8 O 0.18150(10) 0.6168(4) 0.86487(12)
O17_8 O 0.22749(13) 0.7608(5) 0.80505(14)
O18_8 O 0.24676(11) 0.8024(5) 0.77693(12)
O21_8 O 0.29637(11) 0.8321(4) 0.85389(12)
O22_8 O 0.27440(11) 0.7813(4) 0.88137(12)
O29_8 O 0.32754(11) 0.6460(5) 0.85594(12)
C56_8 C 0.99514(15) 0.2839(6) 0.68712(18)
O43 O 0.1959(3) 0.4433(13) 0.2136(4)
O43_2 O 0.8041(3) 0.4433(13) 0.2864(4)
H86 H 0.685028 0.00131239 0.202384
O43_3 O 0.6959(3) 0.9433(13) 0.2136(4)
H85 H 0.714426 0.9433 0.2136
H87 H 0.685028 0.885288 0.202384
H86_2 H 0.314972 0.00131239 0.297616
O43_4 O 0.3041(3) 0.9433(13) 0.2864(4)
H85_2 H 0.285574 0.9433 0.2864
H87_2 H 0.314972 0.885288 0.297616
O43_5 O 0.8041(3) 0.5567(13) 0.7864(4)
O43_6 O 0.1959(3) 0.5567(13) 0.7136(4)
O43_7 O 0.3041(3) 0.0567(13) 0.7864(4)
H85_3 H 0.285574 0.0567 0.7864
H87_3 H 0.314972 0.114712 0.797616
H86_3 H 0.314972 0.998688 0.797616
O43_8 O 0.6959(3) 0.0567(13) 0.7136(4)
H85_4 H 0.714426 0.0567 0.7136
H87_4 H 0.685028 0.114712 0.702384
H86_4 H 0.685028 0.998688 0.702384
O44 O 0.2500 0.7500 0.0000
O44_2 O 0.2500 0.7500 1.0000
O44_3 O 0.7500 0.7500 0.5000
O44_4 O 0.7500 0.2500 0.0000
O44_5 O 0.7500 0.2500 1.0000
O44_6 O 0.2500 0.2500 0.5000
loop_
_geom_bond_atom_site_label_1
_geom_bond_atom_site_label_2
_geom_bond_site_symmetry_1
_geom_bond_site_symmetry_2
H10 C18 1_555 1_555
C19 C18 1_555 1_555
C22 C19 1_555 1_555
C23 C22 1_555 1_555
H13 C23 1_555 1_555
C24 C23 1_555 1_555
H14 C24 1_555 1_555
C45 H25 1_555 1_555
C46 C45 1_555 1_555
H26 C46 1_555 1_555
C47 C46 1_555 1_555
C48 C47 1_555 1_555
H27 C48 1_555 1_555
C50 C47 1_555 1_555
C51 C50 1_555 1_555
H29 C51 1_555 1_555
C52 C51 1_555 1_555
H30 C52 1_555 1_555
C53 C52 1_555 1_555
C54 C53 1_555 1_555
H31 C54 1_555 1_555
C55 C50 1_555 1_555
H32 C55 1_555 1_555
C56 C53 1_555 1_555
O15 C56 1_555 1_555
O16 C56 1_555 1_555
Cd15 O15 1_555 1_555
Cd17 O15 1_555 1_555
C54 C55 1_555 1_555
O16 Cd17 1_555 1_555
C26 C25 1_555 1_555
H15 C26 1_555 1_555
H16 C27 1_555 1_555
C28 C25 1_555 1_555
O7 C28 1_555 1_555
O8 C28 1_555 1_555
Cd13 O8 1_555 1_555
C26 C27 1_555 1_555
C1 C2 1_555 1_555
C2 C3 1_555 1_555
C3 H1 1_555 1_555
C4 C3 1_555 1_555
H2 C4 1_555 1_555
C5 C4 1_555 1_555
C6 C5 1_555 1_555
H3 C6 1_555 1_555
C7 C2 1_555 1_555
H4 C7 1_555 1_555
C8 C5 1_555 1_555
C9 C8 1_555 1_555
H5 C9 1_555 1_555
H7 C12 1_555 1_555
C13 C8 1_555 1_555
H8 C13 1_555 1_555
C15 C16 1_555 1_555
C16 C17 1_555 1_555
C21 C16 1_555 1_555
H12 C21 1_555 1_555
C29 C30 1_555 1_555
C30 C31 1_555 1_555
C31 H17 1_555 1_555
C32 C31 1_555 1_555
H18 C32 1_555 1_555
C33 C32 1_555 1_555
C34 C33 1_555 1_555
H19 C34 1_555 1_555
C35 C30 1_555 1_555
H20 C35 1_555 1_555
C36 C33 1_555 1_555
C37 C36 1_555 1_555
H21 C37 1_555 1_555
C38 C37 1_555 1_555
H22 C38 1_555 1_555
C39 C38 1_555 1_555
C40 C39 1_555 1_555
H23 C40 1_555 1_555
C41 C36 1_555 1_555
H24 C41 1_555 1_555
C43 C44 1_555 1_555
C49 C44 1_555 1_555
H28 C49 1_555 1_555
C57 C58 1_555 1_555
C58 C59 1_555 1_555
C59 H33 1_555 1_555
C60 C59 1_555 1_555
H34 C60 1_555 1_555
C61 C60 1_555 1_555
C62 C61 1_555 1_555
H35 C62 1_555 1_555
C63 C58 1_555 1_555
H36 C63 1_555 1_555
C64 C61 1_555 1_555
C65 C64 1_555 1_555
H37 C65 1_555 1_555
C66 C65 1_555 1_555
H38 C66 1_555 1_555
C67 C66 1_555 1_555
C68 C67 1_555 1_555
H39 C68 1_555 1_555
C69 C64 1_555 1_555
H40 C69 1_555 1_555
C70 C67 1_555 1_555
C71 C72 1_555 1_555
C72 C73 1_555 1_555
C73 H41 1_555 1_555
C74 C73 1_555 1_555
H42 C74 1_555 1_555
C75 C74 1_555 1_555
C76 C75 1_555 1_555
H43 C76 1_555 1_555
C77 C72 1_555 1_555
H44 C77 1_555 1_555
C78 C75 1_555 1_555
C83 C78 1_555 1_555
H48 C83 1_555 1_555
C85 H49 1_555 1_555
C86 C85 1_555 1_555
H50 C86 1_555 1_555
C87 C86 1_555 1_555
C88 C87 1_555 1_555
H51 C88 1_555 1_555
C89 C88 1_555 1_555
H52 C89 1_555 1_555
C90 C87 1_555 1_555
H53 C90 1_555 1_555
H54 C90 1_555 1_555
C91 C90 1_555 1_555
H55 C91 1_555 1_555
H56 C91 1_555 1_555
C92 C91 1_555 1_555
H57 C92 1_555 1_555
H58 C92 1_555 1_555
C93 C92 1_555 1_555
C94 C93 1_555 1_555
H59 C94 1_555 1_555
C95 C94 1_555 1_555
H60 C95 1_555 1_555
C96 H61 1_555 1_555
C97 C93 1_555 1_555
H62 C97 1_555 1_555
C112 H71 1_555 1_555
C113 H72 1_555 1_555
H73 C113 1_555 1_555
H74 C113 1_555 1_555
C114 H75 1_555 1_555
H76 C114 1_555 1_555
H77 C114 1_555 1_555
Cd1 O1 1_555 1_555
Cd2 O5 1_555 1_555
Cd3 N1 1_555 1_555
N1 C85 1_555 1_555
N2 C95 1_555 1_555
N3 C112 1_555 1_555
O1 C1 1_555 1_555
O2 C1 1_555 1_555
O5 C15 1_555 1_555
O6 C15 1_555 1_555
O9 C29 1_555 1_555
O10 C29 1_555 1_555
O13 C43 1_555 1_555
O14 C43 1_555 1_555
O17 C57 1_555 1_555
O18 C57 1_555 1_555
O19 C70 1_555 1_555
O20 C70 1_555 1_555
O21 C71 1_555 1_555
O22 C71 1_555 1_555
O29 C112 1_555 1_555
Cd11 O20 1_555 1_555
Cd15 O19 1_555 1_555
Cd16 N2 1_555 1_555
O34 Cd2 1_555 1_555
O35 Cd3 1_555 1_555
C6 C7 1_555 1_555
C12 C13 1_555 1_555
C20 C21 1_555 1_555
C34 C35 1_555 1_555
C40 C41 1_555 1_555
C62 C63 1_555 1_555
C68 C69 1_555 1_555
C76 C77 1_555 1_555
C89 N1 1_555 1_555
C96 C97 1_555 1_555
C96 N2 1_555 1_555
C113 N3 1_555 1_555
C114 N3 1_555 1_555
Cd1 O2 1_555 1_555
Cd1 O5 1_555 1_555
Cd1 O6 1_555 1_555
Cd1 O9 1_555 1_555
Cd1 O10 1_555 1_555
Cd1 O14 1_555 1_555
Cd2 O9 1_555 1_555
Cd2 O13 1_555 1_555
Cd2 O17 1_555 1_555
Cd2 O22 1_555 1_555
Cd3 O17 1_555 1_555
Cd3 O18 1_555 1_555
Cd3 O21 1_555 1_555
Cd3 O29 1_555 1_555
Cd3 O34 1_555 1_555
H6 C10 1_555 1_555
C11 C10 1_555 1_555
C14 C11 1_555 1_555
H45 C79 1_555 1_555
C80 C79 1_555 1_555
H46 C80 1_555 1_555
C81 C80 1_555 1_555
C82 C81 1_555 1_555
H47 C82 1_555 1_555
C84 C81 1_555 1_555
C115 H78 1_555 1_555
C116 H79 1_555 1_555
H80 C116 1_555 1_555
H81 C116 1_555 1_555
C117 H82 1_555 1_555
H83 C117 1_555 1_555
H84 C117 1_555 1_555
Cd13 O23 1_555 1_555
Cd6 O24 1_555 1_555
N4 C115 1_555 1_555
O3 C14 1_555 1_555
O4 C14 1_555 1_555
O23 C84 1_555 1_555
O24 C84 1_555 1_555
O25 C98 1_555 1_555
O26 C98 1_555 1_555
O30 C115 1_555 1_555
Cd10 O3 1_555 1_555
N5 Cd6 1_555 1_555
O36 Cd13 1_555 1_555
O37 Cd6 1_555 1_555
C116 N4 1_555 1_555
C117 N4 1_555 1_555
Cd13 O26 1_555 1_555
Cd6 O25 1_555 1_555
Cd6 O26 1_555 1_555
Cd6 O30 1_555 1_555
Cd6 O36 1_555 1_555
O4 Cd10 1_555 1_555
O34 C42 1_555 1_555
O35 C42 1_555 1_555
C99 C100 1_555 1_555
C100 H63 1_555 1_555
C101 C100 1_555 1_555
H64 C101 1_555 1_555
C102 C101 1_555 1_555
C103 C102 1_555 1_555
H65 C103 1_555 1_555
C104 C99 1_555 1_555
H66 C104 1_555 1_555
C105 C102 1_555 1_555
C106 C105 1_555 1_555
H67 C106 1_555 1_555
C107 C106 1_555 1_555
C108 C107 1_555 1_555
C109 C108 1_555 1_555
H69 C109 1_555 1_555
C110 C105 1_555 1_555
H70 C110 1_555 1_555
C111 C108 1_555 1_555
O42 C111 1_555 1_555
C103 C104 1_555 1_555
C109 C110 1_555 1_555
O31 Cd4 1_555 1_555
O32 Cd4 1_555 1_555
O39 Cd4 1_555 1_555
O41 Cd4 1_555 1_555
O15_2 C56_2 1_555 1_555
O16_2 C56_2 1_555 1_555
Cd15_2 O15_2 1_555 1_555
Cd16 O15_2 1_555 1_555
O16_2 Cd16 1_555 1_555
C1_2 C2_2 1_555 1_555
C2_2 C3_2 1_555 1_555
C3_2 H1_2 1_555 1_555
C4_2 C3_2 1_555 1_555
H2_2 C4_2 1_555 1_555
C5_2 C4_2 1_555 1_555
C6_2 C5_2 1_555 1_555
H3_2 C6_2 1_555 1_555
C7_2 C2_2 1_555 1_555
H4_2 C7_2 1_555 1_555
C8_2 C5_2 1_555 1_555
C9_2 C8_2 1_555 1_555
H5_2 C9_2 1_555 1_555
H7_2 C12_2 1_555 1_555
C13_2 C8_2 1_555 1_555
H8_2 C13_2 1_555 1_555
C15_2 C16_2 1_555 1_555
C16_2 C17_2 1_555 1_555
C17_2 H9_2 1_555 1_555
C18_2 C17_2 1_555 1_555
H10_2 C18_2 1_555 1_555
C19_2 C18_2 1_555 1_555
C20_2 C19_2 1_555 1_555
C21_2 C16_2 1_555 1_555
H12_2 C21_2 1_555 1_555
C22_2 C19_2 1_555 1_555
C23_2 C22_2 1_555 1_555
H13_2 C23_2 1_555 1_555
C24_2 C23_2 1_555 1_555
H14_2 C24_2 1_555 1_555
C29_2 C30_2 1_555 1_555
C35_2 C30_2 1_555 1_555
H20_2 C35_2 1_555 1_555
C43_2 C44_2 1_555 1_555
C44_2 C45_2 1_555 1_555
C45_2 H25_2 1_555 1_555
C46_2 C45_2 1_555 1_555
H26_2 C46_2 1_555 1_555
C47_2 C46_2 1_555 1_555
C48_2 C47_2 1_555 1_555
H27_2 C48_2 1_555 1_555
C49_2 C44_2 1_555 1_555
H28_2 C49_2 1_555 1_555
C50_2 C47_2 1_555 1_555
C51_2 C50_2 1_555 1_555
H29_2 C51_2 1_555 1_555
C52_2 C51_2 1_555 1_555
H30_2 C52_2 1_555 1_555
C53_2 C52_2 1_555 1_555
C54_2 C53_2 1_555 1_555
H31_2 C54_2 1_555 1_555
C55_2 C50_2 1_555 1_555
H32_2 C55_2 1_555 1_555
C57_2 C58_2 1_555 1_555
C58_2 C59_2 1_555 1_555
C59_2 H33_2 1_555 1_555
C60_2 C59_2 1_555 1_555
C61_2 C60_2 1_555 1_555
C62_2 C61_2 1_555 1_555
H35_2 C62_2 1_555 1_555
C63_2 C58_2 1_555 1_555
H36_2 C63_2 1_555 1_555
C64_2 C61_2 1_555 1_555
C71_2 C72_2 1_555 1_555
C72_2 C73_2 1_555 1_555
C73_2 H41_2 1_555 1_555
C74_2 C73_2 1_555 1_555
H42_2 C74_2 1_555 1_555
C77_2 C72_2 1_555 1_555
H44_2 C77_2 1_555 1_555
C85_2 H49_2 1_555 1_555
C86_2 C85_2 1_555 1_555
H50_2 C86_2 1_555 1_555
C87_2 C86_2 1_555 1_555
C88_2 C87_2 1_555 1_555
H51_2 C88_2 1_555 1_555
C89_2 C88_2 1_555 1_555
H52_2 C89_2 1_555 1_555
C90_2 C87_2 1_555 1_555
H53_2 C90_2 1_555 1_555
H54_2 C90_2 1_555 1_555
C91_2 C90_2 1_555 1_555
H55_2 C91_2 1_555 1_555
H56_2 C91_2 1_555 1_555
C92_2 C91_2 1_555 1_555
H57_2 C92_2 1_555 1_555
H58_2 C92_2 1_555 1_555
C93_2 C92_2 1_555 1_555
C94_2 C93_2 1_555 1_555
H59_2 C94_2 1_555 1_555
C95_2 C94_2 1_555 1_555
H60_2 C95_2 1_555 1_555
C96_2 H61_2 1_555 1_555
C97_2 C93_2 1_555 1_555
H62_2 C97_2 1_555 1_555
C112_2 H71_2 1_555 1_555
C113_2 H72_2 1_555 1_555
H73_2 C113_2 1_555 1_555
H74_2 C113_2 1_555 1_555
C114_2 H75_2 1_555 1_555
H76_2 C114_2 1_555 1_555
H77_2 C114_2 1_555 1_555
Cd1_2 O1_2 1_555 1_555
Cd2_2 O5_2 1_555 1_555
Cd3_2 N1_2 1_555 1_555
N1_2 C85_2 1_555 1_555
N2_2 C95_2 1_555 1_555
N3_2 C112_2 1_555 1_555
O1_2 C1_2 1_555 1_555
O2_2 C1_2 1_555 1_555
O5_2 C15_2 1_555 1_555
O6_2 C15_2 1_555 1_555
O9_2 C29_2 1_555 1_555
O10_2 C29_2 1_555 1_555
O13_2 C43_2 1_555 1_555
O14_2 C43_2 1_555 1_555
O17_2 C57_2 1_555 1_555
O18_2 C57_2 1_555 1_555
O21_2 C71_2 1_555 1_555
O22_2 C71_2 1_555 1_555
O29_2 C112_2 1_555 1_555
Cd17 N2_2 1_555 1_555
O34_2 Cd2_2 1_555 1_555
O35_2 Cd3_2 1_555 1_555
C6_2 C7_2 1_555 1_555
C12_2 C13_2 1_555 1_555
C20_2 C21_2 1_555 1_555
C48_2 C49_2 1_555 1_555
C54_2 C55_2 1_555 1_555
C62_2 C63_2 1_555 1_555
C89_2 N1_2 1_555 1_555
C96_2 C97_2 1_555 1_555
C96_2 N2_2 1_555 1_555
C113_2 N3_2 1_555 1_555
C114_2 N3_2 1_555 1_555
Cd1_2 O2_2 1_555 1_555
Cd1_2 O5_2 1_555 1_555
Cd1_2 O6_2 1_555 1_555
Cd1_2 O9_2 1_555 1_555
Cd1_2 O10_2 1_555 1_555
Cd1_2 O14_2 1_555 1_555
Cd2_2 O9_2 1_555 1_555
Cd2_2 O13_2 1_555 1_555
Cd2_2 O17_2 1_555 1_555
Cd2_2 O22_2 1_555 1_555
Cd3_2 O17_2 1_555 1_555
Cd3_2 O18_2 1_555 1_555
Cd3_2 O21_2 1_555 1_555
Cd3_2 O29_2 1_555 1_555
Cd3_2 O34_2 1_555 1_555
H6_2 C10_2 1_555 1_555
C11_2 C10_2 1_555 1_555
C14_2 C11_2 1_555 1_555
C26_2 C25_2 1_555 1_555
H15_2 C26_2 1_555 1_555
H16_2 C27_2 1_555 1_555
C28_2 C25_2 1_555 1_555
H80_2 C116_2 1_555 1_555
H81_2 C116_2 1_555 1_555
C117_2 H82_2 1_555 1_555
H83_2 C117_2 1_555 1_555
H84_2 C117_2 1_555 1_555
Cd10 O7_2 1_555 1_555
O31 C14_2 1_555 1_555
O32 C14_2 1_555 1_555
O7_2 C28_2 1_555 1_555
O8_2 C28_2 1_555 1_555
Cd13_2 O8_2 1_555 1_555
O39_2 Cd10 1_555 1_555
O41_2 Cd10 1_555 1_555
O42_2 Cd10 1_555 1_555
C26_2 C27_2 1_555 1_555
C116_2 N4_2 1_555 1_555
C117_2 N4_2 1_555 1_555
Cd10 O8_2 1_555 1_555
Cd13_2 O41_2 1_555 1_555
C31_2 H17_2 1_555 1_555
C32_2 C31_2 1_555 1_555
H18_2 C32_2 1_555 1_555
C33_2 C32_2 1_555 1_555
C34_2 C33_2 1_555 1_555
H19_2 C34_2 1_555 1_555
C36_2 C33_2 1_555 1_555
C37_2 C36_2 1_555 1_555
H21_2 C37_2 1_555 1_555
C38_2 C37_2 1_555 1_555
H22_2 C38_2 1_555 1_555
C39_2 C38_2 1_555 1_555
C40_2 C39_2 1_555 1_555
H23_2 C40_2 1_555 1_555
C41_2 C36_2 1_555 1_555
H24_2 C41_2 1_555 1_555
C42_2 C39_2 1_555 1_555
H37_2 C65_2 1_555 1_555
C66_2 C65_2 1_555 1_555
H38_2 C66_2 1_555 1_555
C67_2 C66_2 1_555 1_555
C68_2 C67_2 1_555 1_555
H39_2 C68_2 1_555 1_555
H40_2 C69_2 1_555 1_555
C70_2 C67_2 1_555 1_555
C76_2 C75_2 1_555 1_555
H43_2 C76_2 1_555 1_555
C78_2 C75_2 1_555 1_555
C83_2 C78_2 1_555 1_555
H48_2 C83_2 1_555 1_555
O34_2 C42_2 1_555 1_555
O35_2 C42_2 1_555 1_555
O19_2 C70_2 1_555 1_555
O20_2 C70_2 1_555 1_555
Cd11_2 O20_2 1_555 1_555
C40_2 C41_2 1_555 1_555
C68_2 C69_2 1_555 1_555
H45_2 C79_2 1_555 1_555
C80_2 C79_2 1_555 1_555
H46_2 C80_2 1_555 1_555
C81_2 C80_2 1_555 1_555
C82_2 C81_2 1_555 1_555
H47_2 C82_2 1_555 1_555
C84_2 C81_2 1_555 1_555
C98_2 C99_2 1_555 1_555
C99_2 C100_2 1_555 1_555
C100_2 H63_2 1_555 1_555
C101_2 C100_2 1_555 1_555
H64_2 C101_2 1_555 1_555
C102_2 C101_2 1_555 1_555
C103_2 C102_2 1_555 1_555
H65_2 C103_2 1_555 1_555
C104_2 C99_2 1_555 1_555
H66_2 C104_2 1_555 1_555
C105_2 C102_2 1_555 1_555
C106_2 C105_2 1_555 1_555
H67_2 C106_2 1_555 1_555
C107_2 C106_2 1_555 1_555
H69_2 C109_2 1_555 1_555
C110_2 C105_2 1_555 1_555
H70_2 C110_2 1_555 1_555
C115_2 H78_2 1_555 1_555
Cd13_2 O23_2 1_555 1_555
Cd6_2 O24_2 1_555 1_555
O23_2 C84_2 1_555 1_555
O24_2 C84_2 1_555 1_555
O25_2 C98_2 1_555 1_555
O26_2 C98_2 1_555 1_555
O30_2 C115_2 1_555 1_555
N5_2 Cd6_2 1_555 1_555
O36_2 Cd13_2 1_555 1_555
O37_2 Cd6_2 1_555 1_555
O38_2 Cd13_2 1_555 1_555
C103_2 C104_2 1_555 1_555
C109_2 C110_2 1_555 1_555
Cd13_2 O26_2 1_555 1_555
Cd6_2 O25_2 1_555 1_555
Cd6_2 O26_2 1_555 1_555
Cd6_2 O30_2 1_555 1_555
Cd6_2 O36_2 1_555 1_555
C111_2 C108_2 1_555 1_555
O41_2 C111_2 1_555 1_555
O42_2 C111_2 1_555 1_555
C99_3 C100_3 1_555 1_555
C100_3 H63_3 1_555 1_555
C101_3 C100_3 1_555 1_555
H64_3 C101_3 1_555 1_555
C102_3 C101_3 1_555 1_555
C103_3 C102_3 1_555 1_555
H65_3 C103_3 1_555 1_555
C104_3 C99_3 1_555 1_555
H66_3 C104_3 1_555 1_555
C105_3 C102_3 1_555 1_555
C106_3 C105_3 1_555 1_555
H67_3 C106_3 1_555 1_555
C107_3 C106_3 1_555 1_555
C108_3 C107_3 1_555 1_555
C109_3 C108_3 1_555 1_555
H69_3 C109_3 1_555 1_555
C110_3 C105_3 1_555 1_555
H70_3 C110_3 1_555 1_555
C111_3 C108_3 1_555 1_555
O11 C42_3 1_555 1_555
O12 C42_3 1_555 1_555
O28 C111_3 1_555 1_555
Cd7 O11 1_555 1_555
Cd8 O11 1_555 1_555
C103_3 C104_3 1_555 1_555
C109_3 C110_3 1_555 1_555
O12 Cd8 1_555 1_555
C1_3 C2_3 1_555 1_555
C2_3 C3_3 1_555 1_555
C3_3 H1_3 1_555 1_555
C4_3 C3_3 1_555 1_555
H2_3 C4_3 1_555 1_555
C5_3 C4_3 1_555 1_555
C6_3 C5_3 1_555 1_555
H3_3 C6_3 1_555 1_555
C7_3 C2_3 1_555 1_555
H4_3 C7_3 1_555 1_555
C8_3 C5_3 1_555 1_555
C9_3 C8_3 1_555 1_555
H5_3 C9_3 1_555 1_555
C10_3 C9_3 1_555 1_555
H6_3 C10_3 1_555 1_555
C11_3 C10_3 1_555 1_555
C12_3 C11_3 1_555 1_555
H7_3 C12_3 1_555 1_555
C13_3 C8_3 1_555 1_555
H8_3 C13_3 1_555 1_555
C14_3 C11_3 1_555 1_555
C15_3 C16_3 1_555 1_555
C16_3 C17_3 1_555 1_555
H11_3 C20_3 1_555 1_555
C21_3 C16_3 1_555 1_555
H12_3 C21_3 1_555 1_555
C29_3 C30_3 1_555 1_555
C30_3 C31_3 1_555 1_555
C31_3 H17_3 1_555 1_555
C32_3 C31_3 1_555 1_555
H18_3 C32_3 1_555 1_555
C33_3 C32_3 1_555 1_555
C34_3 C33_3 1_555 1_555
H19_3 C34_3 1_555 1_555
C35_3 C30_3 1_555 1_555
H20_3 C35_3 1_555 1_555
C36_3 C33_3 1_555 1_555
C37_3 C36_3 1_555 1_555
H21_3 C37_3 1_555 1_555
C38_3 C37_3 1_555 1_555
H22_3 C38_3 1_555 1_555
C39_3 C38_3 1_555 1_555
C40_3 C39_3 1_555 1_555
H23_3 C40_3 1_555 1_555
C41_3 C36_3 1_555 1_555
H24_3 C41_3 1_555 1_555
C43_3 C44_3 1_555 1_555
C49_3 C44_3 1_555 1_555
H28_3 C49_3 1_555 1_555
C57_3 C58_3 1_555 1_555
C58_3 C59_3 1_555 1_555
C59_3 H33_3 1_555 1_555
C60_3 C59_3 1_555 1_555
H34_3 C60_3 1_555 1_555
C61_3 C60_3 1_555 1_555
C62_3 C61_3 1_555 1_555
H35_3 C62_3 1_555 1_555
C63_3 C58_3 1_555 1_555
H36_3 C63_3 1_555 1_555
C64_3 C61_3 1_555 1_555
C65_3 C64_3 1_555 1_555
H37_3 C65_3 1_555 1_555
C66_3 C65_3 1_555 1_555
H38_3 C66_3 1_555 1_555
C67_3 C66_3 1_555 1_555
C68_3 C67_3 1_555 1_555
H39_3 C68_3 1_555 1_555
C69_3 C64_3 1_555 1_555
H40_3 C69_3 1_555 1_555
C70_3 C67_3 1_555 1_555
C71_3 C72_3 1_555 1_555
C72_3 C73_3 1_555 1_555
C73_3 H41_3 1_555 1_555
C74_3 C73_3 1_555 1_555
H42_3 C74_3 1_555 1_555
C75_3 C74_3 1_555 1_555
C76_3 C75_3 1_555 1_555
H43_3 C76_3 1_555 1_555
C77_3 C72_3 1_555 1_555
H44_3 C77_3 1_555 1_555
C78_3 C75_3 1_555 1_555
C79_3 C78_3 1_555 1_555
H45_3 C79_3 1_555 1_555
C80_3 C79_3 1_555 1_555
H46_3 C80_3 1_555 1_555
C81_3 C80_3 1_555 1_555
C82_3 C81_3 1_555 1_555
H47_3 C82_3 1_555 1_555
C83_3 C78_3 1_555 1_555
H48_3 C83_3 1_555 1_555
C84_3 C81_3 1_555 1_555
C85_3 H49_3 1_555 1_555
C86_3 C85_3 1_555 1_555
H50_3 C86_3 1_555 1_555
C87_3 C86_3 1_555 1_555
C88_3 C87_3 1_555 1_555
H51_3 C88_3 1_555 1_555
C89_3 C88_3 1_555 1_555
H52_3 C89_3 1_555 1_555
C90_3 C87_3 1_555 1_555
H53_3 C90_3 1_555 1_555
H54_3 C90_3 1_555 1_555
C91_3 C90_3 1_555 1_555
H55_3 C91_3 1_555 1_555
H56_3 C91_3 1_555 1_555
C92_3 C91_3 1_555 1_555
H57_3 C92_3 1_555 1_555
H58_3 C92_3 1_555 1_555
C93_3 C92_3 1_555 1_555
C94_3 C93_3 1_555 1_555
H59_3 C94_3 1_555 1_555
C95_3 C94_3 1_555 1_555
H60_3 C95_3 1_555 1_555
C96_3 H61_3 1_555 1_555
C97_3 C93_3 1_555 1_555
H62_3 C97_3 1_555 1_555
C112_3 H71_3 1_555 1_555
C113_3 H72_3 1_555 1_555
H73_3 C113_3 1_555 1_555
H74_3 C113_3 1_555 1_555
C114_3 H75_3 1_555 1_555
H76_3 C114_3 1_555 1_555
H77_3 C114_3 1_555 1_555
C115_3 H78_3 1_555 1_555
C116_3 H79_3 1_555 1_555
H80_3 C116_3 1_555 1_555
H81_3 C116_3 1_555 1_555
C117_3 H82_3 1_555 1_555
H83_3 C117_3 1_555 1_555
H84_3 C117_3 1_555 1_555
Cd1_3 O1_3 1_555 1_555
Cd7 O5_3 1_555 1_555
Cd8 N1_3 1_555 1_555
Cd15_2 O23_3 1_555 1_555
Cd16 O24_3 1_555 1_555
N1_3 C85_3 1_555 1_555
N5 C95_3 1_555 1_555
N3_3 C112_3 1_555 1_555
N4_3 C115_3 1_555 1_555
O1_3 C1_3 1_555 1_555
O2_3 C1_3 1_555 1_555
O3_2 C14_3 1_555 1_555
O4_2 C14_3 1_555 1_555
O5_3 C15_3 1_555 1_555
O6_3 C15_3 1_555 1_555
O9_3 C29_3 1_555 1_555
O10_3 C29_3 1_555 1_555
O13_3 C43_3 1_555 1_555
O14_3 C43_3 1_555 1_555
O17_3 C57_3 1_555 1_555
O18_3 C57_3 1_555 1_555
O38_2 C70_3 1_555 1_555
O39_2 C70_3 1_555 1_555
O21_3 C71_3 1_555 1_555
O22_3 C71_3 1_555 1_555
O23_3 C84_3 1_555 1_555
O24_3 C84_3 1_555 1_555
O25_3 C98_3 1_555 1_555
O26_3 C98_3 1_555 1_555
O29_3 C112_3 1_555 1_555
O30_3 C115_3 1_555 1_555
Cd11 O3_2 1_555 1_555
O33 Cd15_2 1_555 1_555
C6_3 C7_3 1_555 1_555
C12_3 C13_3 1_555 1_555
C20_3 C21_3 1_555 1_555
C34_3 C35_3 1_555 1_555
C40_3 C41_3 1_555 1_555
C62_3 C63_3 1_555 1_555
C68_3 C69_3 1_555 1_555
C76_3 C77_3 1_555 1_555
C82_3 C83_3 1_555 1_555
C89_3 N1_3 1_555 1_555
C96_3 C97_3 1_555 1_555
C96_3 N5 1_555 1_555
C113_3 N3_3 1_555 1_555
C114_3 N3_3 1_555 1_555
C116_3 N4_3 1_555 1_555
C117_3 N4_3 1_555 1_555
Cd1_3 O2_3 1_555 1_555
Cd1_3 O5_3 1_555 1_555
Cd1_3 O6_3 1_555 1_555
Cd1_3 O9_3 1_555 1_555
Cd1_3 O10_3 1_555 1_555
Cd1_3 O14_3 1_555 1_555
Cd7 O9_3 1_555 1_555
Cd7 O13_3 1_555 1_555
Cd7 O17_3 1_555 1_555
Cd7 O22_3 1_555 1_555
Cd8 O17_3 1_555 1_555
Cd8 O18_3 1_555 1_555
Cd8 O21_3 1_555 1_555
Cd8 O29_3 1_555 1_555
Cd15_2 O26_3 1_555 1_555
Cd16 O25_3 1_555 1_555
Cd16 O26_3 1_555 1_555
Cd16 O30_3 1_555 1_555
O4_2 Cd11 1_555 1_555
H10_3 C18_3 1_555 1_555
C19_3 C18_3 1_555 1_555
C22_3 C19_3 1_555 1_555
C23_3 C22_3 1_555 1_555
H13_3 C23_3 1_555 1_555
C24_3 C23_3 1_555 1_555
H14_3 C24_3 1_555 1_555
C25_3 C24_3 1_555 1_555
C26_3 C25_3 1_555 1_555
H15_3 C26_3 1_555 1_555
C27_3 C22_3 1_555 1_555
H16_3 C27_3 1_555 1_555
C28_3 C25_3 1_555 1_555
C45_3 H25_3 1_555 1_555
C46_3 C45_3 1_555 1_555
H26_3 C46_3 1_555 1_555
C47_3 C46_3 1_555 1_555
C48_3 C47_3 1_555 1_555
H27_3 C48_3 1_555 1_555
C50_3 C47_3 1_555 1_555
C51_3 C50_3 1_555 1_555
H29_3 C51_3 1_555 1_555
C52_3 C51_3 1_555 1_555
H30_3 C52_3 1_555 1_555
C53_3 C52_3 1_555 1_555
C54_3 C53_3 1_555 1_555
H31_3 C54_3 1_555 1_555
C55_3 C50_3 1_555 1_555
H32_3 C55_3 1_555 1_555
C56_3 C53_3 1_555 1_555
O7_3 C28_3 1_555 1_555
O33 C28_3 1_555 1_555
O36_2 C56_3 1_555 1_555
O37_2 C56_3 1_555 1_555
C26_3 C27_3 1_555 1_555
C54_3 C55_3 1_555 1_555
Cd11_2 O27 1_555 1_555
O31_2 Cd11_2 1_555 1_555
O32_2 Cd11_2 1_555 1_555
O36 C56_4 1_555 1_555
O37 C56_4 1_555 1_555
C111_4 C108_4 1_555 1_555
O27_2 C111_4 1_555 1_555
O28_2 C111_4 1_555 1_555
Cd11 O27_2 1_555 1_555
Cd15 O27_2 1_555 1_555
O28_2 Cd11 1_555 1_555
C31_4 H17_4 1_555 1_555
C32_4 C31_4 1_555 1_555
H18_4 C32_4 1_555 1_555
C33_4 C32_4 1_555 1_555
C34_4 C33_4 1_555 1_555
H19_4 C34_4 1_555 1_555
C36_4 C33_4 1_555 1_555
C37_4 C36_4 1_555 1_555
H21_4 C37_4 1_555 1_555
C38_4 C37_4 1_555 1_555
H22_4 C38_4 1_555 1_555
C39_4 C38_4 1_555 1_555
C40_4 C39_4 1_555 1_555
H23_4 C40_4 1_555 1_555
C41_4 C36_4 1_555 1_555
H24_4 C41_4 1_555 1_555
C42_4 C39_4 1_555 1_555
H37_4 C65_4 1_555 1_555
C66_4 C65_4 1_555 1_555
H38_4 C66_4 1_555 1_555
C67_4 C66_4 1_555 1_555
C68_4 C67_4 1_555 1_555
H39_4 C68_4 1_555 1_555
H40_4 C69_4 1_555 1_555
C70_4 C67_4 1_555 1_555
C76_4 C75_4 1_555 1_555
H43_4 C76_4 1_555 1_555
C78_4 C75_4 1_555 1_555
C79_4 C78_4 1_555 1_555
H45_4 C79_4 1_555 1_555
C80_4 C79_4 1_555 1_555
H46_4 C80_4 1_555 1_555
C81_4 C80_4 1_555 1_555
C82_4 C81_4 1_555 1_555
H47_4 C82_4 1_555 1_555
C83_4 C78_4 1_555 1_555
H48_4 C83_4 1_555 1_555
C84_4 C81_4 1_555 1_555
C98_4 C99_4 1_555 1_555
C99_4 C100_4 1_555 1_555
C100_4 H63_4 1_555 1_555
C101_4 C100_4 1_555 1_555
H64_4 C101_4 1_555 1_555
C102_4 C101_4 1_555 1_555
C103_4 C102_4 1_555 1_555
H65_4 C103_4 1_555 1_555
C104_4 C99_4 1_555 1_555
H66_4 C104_4 1_555 1_555
C105_4 C102_4 1_555 1_555
C106_4 C105_4 1_555 1_555
H67_4 C106_4 1_555 1_555
C107_4 C106_4 1_555 1_555
H69_4 C109_4 1_555 1_555
C110_4 C105_4 1_555 1_555
H70_4 C110_4 1_555 1_555
C115_4 H78_4 1_555 1_555
Cd15 O23_4 1_555 1_555
Cd17 O24_4 1_555 1_555
O11_2 C42_4 1_555 1_555
O12_2 C42_4 1_555 1_555
O38 C70_4 1_555 1_555
O39 C70_4 1_555 1_555
O23_4 C84_4 1_555 1_555
O24_4 C84_4 1_555 1_555
O25_4 C98_4 1_555 1_555
O26_4 C98_4 1_555 1_555
O30_4 C115_4 1_555 1_555
Cd7_2 O11_2 1_555 1_555
Cd8_2 O11_2 1_555 1_555
O33_2 Cd15 1_555 1_555
C40_4 C41_4 1_555 1_555
C68_4 C69_4 1_555 1_555
C82_4 C83_4 1_555 1_555
C103_4 C104_4 1_555 1_555
C109_4 C110_4 1_555 1_555
Cd15 O26_4 1_555 1_555
Cd17 O25_4 1_555 1_555
Cd17 O26_4 1_555 1_555
Cd17 O30_4 1_555 1_555
O12_2 Cd8_2 1_555 1_555
C1_4 C2_4 1_555 1_555
C2_4 C3_4 1_555 1_555
C3_4 H1_4 1_555 1_555
C4_4 C3_4 1_555 1_555
H2_4 C4_4 1_555 1_555
C5_4 C4_4 1_555 1_555
C6_4 C5_4 1_555 1_555
H3_4 C6_4 1_555 1_555
C7_4 C2_4 1_555 1_555
H4_4 C7_4 1_555 1_555
C8_4 C5_4 1_555 1_555
C9_4 C8_4 1_555 1_555
H5_4 C9_4 1_555 1_555
C10_4 C9_4 1_555 1_555
H6_4 C10_4 1_555 1_555
C11_4 C10_4 1_555 1_555
C12_4 C11_4 1_555 1_555
H7_4 C12_4 1_555 1_555
C13_4 C8_4 1_555 1_555
H8_4 C13_4 1_555 1_555
C14_4 C11_4 1_555 1_555
C15_4 C16_4 1_555 1_555
C16_4 C17_4 1_555 1_555
C17_4 H9_4 1_555 1_555
C18_4 C17_4 1_555 1_555
H10_4 C18_4 1_555 1_555
C19_4 C18_4 1_555 1_555
C20_4 C19_4 1_555 1_555
H11_4 C20_4 1_555 1_555
C21_4 C16_4 1_555 1_555
H12_4 C21_4 1_555 1_555
C22_4 C19_4 1_555 1_555
C23_4 C22_4 1_555 1_555
H13_4 C23_4 1_555 1_555
C24_4 C23_4 1_555 1_555
H14_4 C24_4 1_555 1_555
C25_4 C24_4 1_555 1_555
C26_4 C25_4 1_555 1_555
H15_4 C26_4 1_555 1_555
C27_4 C22_4 1_555 1_555
H16_4 C27_4 1_555 1_555
C28_4 C25_4 1_555 1_555
C29_4 C30_4 1_555 1_555
C35_4 C30_4 1_555 1_555
H20_4 C35_4 1_555 1_555
C43_4 C44_4 1_555 1_555
C44_4 C45_4 1_555 1_555
C45_4 H25_4 1_555 1_555
C46_4 C45_4 1_555 1_555
H26_4 C46_4 1_555 1_555
C47_4 C46_4 1_555 1_555
C48_4 C47_4 1_555 1_555
H27_4 C48_4 1_555 1_555
C49_4 C44_4 1_555 1_555
H28_4 C49_4 1_555 1_555
C50_4 C47_4 1_555 1_555
C51_4 C50_4 1_555 1_555
H29_4 C51_4 1_555 1_555
C52_4 C51_4 1_555 1_555
H30_4 C52_4 1_555 1_555
C53_4 C52_4 1_555 1_555
C54_4 C53_4 1_555 1_555
H31_4 C54_4 1_555 1_555
C55_4 C50_4 1_555 1_555
H32_4 C55_4 1_555 1_555
C57_4 C58_4 1_555 1_555
C58_4 C59_4 1_555 1_555
C59_4 H33_4 1_555 1_555
C60_4 C59_4 1_555 1_555
C61_4 C60_4 1_555 1_555
C62_4 C61_4 1_555 1_555
H35_4 C62_4 1_555 1_555
C63_4 C58_4 1_555 1_555
H36_4 C63_4 1_555 1_555
C64_4 C61_4 1_555 1_555
C71_4 C72_4 1_555 1_555
C72_4 C73_4 1_555 1_555
C73_4 H41_4 1_555 1_555
C74_4 C73_4 1_555 1_555
H42_4 C74_4 1_555 1_555
C77_4 C72_4 1_555 1_555
H44_4 C77_4 1_555 1_555
C85_4 H49_4 1_555 1_555
C86_4 C85_4 1_555 1_555
H50_4 C86_4 1_555 1_555
C87_4 C86_4 1_555 1_555
C88_4 C87_4 1_555 1_555
H51_4 C88_4 1_555 1_555
C89_4 C88_4 1_555 1_555
H52_4 C89_4 1_555 1_555
C90_4 C87_4 1_555 1_555
H53_4 C90_4 1_555 1_555
H54_4 C90_4 1_555 1_555
C91_4 C90_4 1_555 1_555
H55_4 C91_4 1_555 1_555
H56_4 C91_4 1_555 1_555
C92_4 C91_4 1_555 1_555
H57_4 C92_4 1_555 1_555
H58_4 C92_4 1_555 1_555
C93_4 C92_4 1_555 1_555
C94_4 C93_4 1_555 1_555
H59_4 C94_4 1_555 1_555
C95_4 C94_4 1_555 1_555
H60_4 C95_4 1_555 1_555
C96_4 H61_4 1_555 1_555
C97_4 C93_4 1_555 1_555
H62_4 C97_4 1_555 1_555
C112_4 H71_4 1_555 1_555
C113_4 H72_4 1_555 1_555
H73_4 C113_4 1_555 1_555
H74_4 C113_4 1_555 1_555
C114_4 H75_4 1_555 1_555
H76_4 C114_4 1_555 1_555
H77_4 C114_4 1_555 1_555
H80_4 C116_4 1_555 1_555
H81_4 C116_4 1_555 1_555
C117_4 H82_4 1_555 1_555
H83_4 C117_4 1_555 1_555
H84_4 C117_4 1_555 1_555
Cd1_4 O1_4 1_555 1_555
Cd7_2 O5_4 1_555 1_555
Cd8_2 N1_4 1_555 1_555
Cd11 O7_4 1_555 1_555
N1_4 C85_4 1_555 1_555
N5_2 C95_4 1_555 1_555
N3_4 C112_4 1_555 1_555
O1_4 C1_4 1_555 1_555
O2_4 C1_4 1_555 1_555
O31_2 C14_4 1_555 1_555
O32_2 C14_4 1_555 1_555
O5_4 C15_4 1_555 1_555
O6_4 C15_4 1_555 1_555
O7_4 C28_4 1_555 1_555
O33_2 C28_4 1_555 1_555
O9_4 C29_4 1_555 1_555
O10_4 C29_4 1_555 1_555
O13_4 C43_4 1_555 1_555
O14_4 C43_4 1_555 1_555
O17_4 C57_4 1_555 1_555
O18_4 C57_4 1_555 1_555
O21_4 C71_4 1_555 1_555
O22_4 C71_4 1_555 1_555
O29_4 C112_4 1_555 1_555
C6_4 C7_4 1_555 1_555
C12_4 C13_4 1_555 1_555
C20_4 C21_4 1_555 1_555
C26_4 C27_4 1_555 1_555
C48_4 C49_4 1_555 1_555
C54_4 C55_4 1_555 1_555
C62_4 C63_4 1_555 1_555
C89_4 N1_4 1_555 1_555
C96_4 C97_4 1_555 1_555
C96_4 N5_2 1_555 1_555
C113_4 N3_4 1_555 1_555
C114_4 N3_4 1_555 1_555
C116_4 N4_4 1_555 1_555
C117_4 N4_4 1_555 1_555
Cd1_4 O2_4 1_555 1_555
Cd1_4 O5_4 1_555 1_555
Cd1_4 O6_4 1_555 1_555
Cd1_4 O9_4 1_555 1_555
Cd1_4 O10_4 1_555 1_555
Cd1_4 O14_4 1_555 1_555
Cd7_2 O9_4 1_555 1_555
Cd7_2 O13_4 1_555 1_555
Cd7_2 O17_4 1_555 1_555
Cd7_2 O22_4 1_555 1_555
Cd8_2 O17_4 1_555 1_555
Cd8_2 O18_4 1_555 1_555
Cd8_2 O21_4 1_555 1_555
Cd8_2 O29_4 1_555 1_555
Cd11 O33_2 1_555 1_555
O31_3 Cd4_2 1_555 1_555
O32_3 Cd4_2 1_555 1_555
O39_3 Cd4_2 1_555 1_555
O41_3 Cd4_2 1_555 1_555
H10_5 C18_5 1_555 1_555
C19_5 C18_5 1_555 1_555
C22_5 C19_5 1_555 1_555
C23_5 C22_5 1_555 1_555
H13_5 C23_5 1_555 1_555
C24_5 C23_5 1_555 1_555
H14_5 C24_5 1_555 1_555
C25_5 C24_5 1_555 1_555
C26_5 C25_5 1_555 1_555
H15_5 C26_5 1_555 1_555
C27_5 C22_5 1_555 1_555
H16_5 C27_5 1_555 1_555
C28_5 C25_5 1_555 1_555
C45_5 H25_5 1_555 1_555
C46_5 C45_5 1_555 1_555
H26_5 C46_5 1_555 1_555
C47_5 C46_5 1_555 1_555
C48_5 C47_5 1_555 1_555
H27_5 C48_5 1_555 1_555
C50_5 C47_5 1_555 1_555
C51_5 C50_5 1_555 1_555
H29_5 C51_5 1_555 1_555
C52_5 C51_5 1_555 1_555
H30_5 C52_5 1_555 1_555
C53_5 C52_5 1_555 1_555
C54_5 C53_5 1_555 1_555
H31_5 C54_5 1_555 1_555
C55_5 C50_5 1_555 1_555
H32_5 C55_5 1_555 1_555
C56_5 C53_5 1_555 1_555
O7_5 C28_5 1_555 1_555
O8_3 C28_5 1_555 1_555
O15_3 C56_5 1_555 1_555
O16_3 C56_5 1_555 1_555
Cd13_3 O8_3 1_555 1_555
Cd15_3 O15_3 1_555 1_555
Cd17_2 O15_3 1_555 1_555
C26_5 C27_5 1_555 1_555
C54_5 C55_5 1_555 1_555
O16_3 Cd17_2 1_555 1_555
C1_5 C2_5 1_555 1_555
C2_5 C3_5 1_555 1_555
C3_5 H1_5 1_555 1_555
C4_5 C3_5 1_555 1_555
H2_5 C4_5 1_555 1_555
C5_5 C4_5 1_555 1_555
C6_5 C5_5 1_555 1_555
H3_5 C6_5 1_555 1_555
C7_5 C2_5 1_555 1_555
H4_5 C7_5 1_555 1_555
C8_5 C5_5 1_555 1_555
C9_5 C8_5 1_555 1_555
H5_5 C9_5 1_555 1_555
C10_5 C9_5 1_555 1_555
H6_5 C10_5 1_555 1_555
C11_5 C10_5 1_555 1_555
C12_5 C11_5 1_555 1_555
H7_5 C12_5 1_555 1_555
C13_5 C8_5 1_555 1_555
H8_5 C13_5 1_555 1_555
C14_5 C11_5 1_555 1_555
C15_5 C16_5 1_555 1_555
C16_5 C17_5 1_555 1_555
H11_5 C20_5 1_555 1_555
C21_5 C16_5 1_555 1_555
H12_5 C21_5 1_555 1_555
C29_5 C30_5 1_555 1_555
C30_5 C31_5 1_555 1_555
C31_5 H17_5 1_555 1_555
C32_5 C31_5 1_555 1_555
H18_5 C32_5 1_555 1_555
C33_5 C32_5 1_555 1_555
C34_5 C33_5 1_555 1_555
H19_5 C34_5 1_555 1_555
C35_5 C30_5 1_555 1_555
H20_5 C35_5 1_555 1_555
C36_5 C33_5 1_555 1_555
C37_5 C36_5 1_555 1_555
H21_5 C37_5 1_555 1_555
C38_5 C37_5 1_555 1_555
H22_5 C38_5 1_555 1_555
C39_5 C38_5 1_555 1_555
C40_5 C39_5 1_555 1_555
H23_5 C40_5 1_555 1_555
C41_5 C36_5 1_555 1_555
H24_5 C41_5 1_555 1_555
C43_5 C44_5 1_555 1_555
C49_5 C44_5 1_555 1_555
H28_5 C49_5 1_555 1_555
C57_5 C58_5 1_555 1_555
C58_5 C59_5 1_555 1_555
C59_5 H33_5 1_555 1_555
C60_5 C59_5 1_555 1_555
H34_5 C60_5 1_555 1_555
C61_5 C60_5 1_555 1_555
C62_5 C61_5 1_555 1_555
H35_5 C62_5 1_555 1_555
C63_5 C58_5 1_555 1_555
H36_5 C63_5 1_555 1_555
C64_5 C61_5 1_555 1_555
C65_5 C64_5 1_555 1_555
H37_5 C65_5 1_555 1_555
C66_5 C65_5 1_555 1_555
H38_5 C66_5 1_555 1_555
C67_5 C66_5 1_555 1_555
C68_5 C67_5 1_555 1_555
H39_5 C68_5 1_555 1_555
C69_5 C64_5 1_555 1_555
H40_5 C69_5 1_555 1_555
C70_5 C67_5 1_555 1_555
C71_5 C72_5 1_555 1_555
C72_5 C73_5 1_555 1_555
C73_5 H41_5 1_555 1_555
C74_5 C73_5 1_555 1_555
H42_5 C74_5 1_555 1_555
C75_5 C74_5 1_555 1_555
C76_5 C75_5 1_555 1_555
H43_5 C76_5 1_555 1_555
C77_5 C72_5 1_555 1_555
H44_5 C77_5 1_555 1_555
C78_5 C75_5 1_555 1_555
C79_5 C78_5 1_555 1_555
H45_5 C79_5 1_555 1_555
C80_5 C79_5 1_555 1_555
H46_5 C80_5 1_555 1_555
C81_5 C80_5 1_555 1_555
C82_5 C81_5 1_555 1_555
H47_5 C82_5 1_555 1_555
C83_5 C78_5 1_555 1_555
H48_5 C83_5 1_555 1_555
C84_5 C81_5 1_555 1_555
C85_5 H49_5 1_555 1_555
C86_5 C85_5 1_555 1_555
H50_5 C86_5 1_555 1_555
C87_5 C86_5 1_555 1_555
C88_5 C87_5 1_555 1_555
H51_5 C88_5 1_555 1_555
C89_5 C88_5 1_555 1_555
H52_5 C89_5 1_555 1_555
C90_5 C87_5 1_555 1_555
H53_5 C90_5 1_555 1_555
H54_5 C90_5 1_555 1_555
C91_5 C90_5 1_555 1_555
H55_5 C91_5 1_555 1_555
H56_5 C91_5 1_555 1_555
C92_5 C91_5 1_555 1_555
H57_5 C92_5 1_555 1_555
H58_5 C92_5 1_555 1_555
C93_5 C92_5 1_555 1_555
C94_5 C93_5 1_555 1_555
H59_5 C94_5 1_555 1_555
C95_5 C94_5 1_555 1_555
H60_5 C95_5 1_555 1_555
C96_5 H61_5 1_555 1_555
C97_5 C93_5 1_555 1_555
H62_5 C97_5 1_555 1_555
C112_5 H71_5 1_555 1_555
C113_5 H72_5 1_555 1_555
H73_5 C113_5 1_555 1_555
H74_5 C113_5 1_555 1_555
C114_5 H75_5 1_555 1_555
H76_5 C114_5 1_555 1_555
H77_5 C114_5 1_555 1_555
C115_5 H78_5 1_555 1_555
C116_5 H79_5 1_555 1_555
H80_5 C116_5 1_555 1_555
H81_5 C116_5 1_555 1_555
C117_5 H82_5 1_555 1_555
H83_5 C117_5 1_555 1_555
H84_5 C117_5 1_555 1_555
Cd1_5 O1_5 1_555 1_555
Cd2_3 O5_5 1_555 1_555
Cd3_3 N1_5 1_555 1_555
Cd13_3 O23_5 1_555 1_555
Cd6_3 O24_5 1_555 1_555
N1_5 C85_5 1_555 1_555
N2_3 C95_5 1_555 1_555
N3_5 C112_5 1_555 1_555
N4_5 C115_5 1_555 1_555
O1_5 C1_5 1_555 1_555
O2_5 C1_5 1_555 1_555
O3_3 C14_5 1_555 1_555
O4_3 C14_5 1_555 1_555
O5_5 C15_5 1_555 1_555
O6_5 C15_5 1_555 1_555
O9_5 C29_5 1_555 1_555
O10_5 C29_5 1_555 1_555
O13_5 C43_5 1_555 1_555
O14_5 C43_5 1_555 1_555
O17_5 C57_5 1_555 1_555
O18_5 C57_5 1_555 1_555
O19_3 C70_5 1_555 1_555
O20_3 C70_5 1_555 1_555
O21_5 C71_5 1_555 1_555
O22_5 C71_5 1_555 1_555
O23_5 C84_5 1_555 1_555
O24_5 C84_5 1_555 1_555
O25_5 C98_5 1_555 1_555
O26_5 C98_5 1_555 1_555
O29_5 C112_5 1_555 1_555
O30_5 C115_5 1_555 1_555
Cd10_2 O3_3 1_555 1_555
Cd11_3 O20_3 1_555 1_555
Cd15_3 O19_3 1_555 1_555
Cd16_2 N2_3 1_555 1_555
N5_3 Cd6_3 1_555 1_555
O34_3 Cd2_3 1_555 1_555
O35_3 Cd3_3 1_555 1_555
O36_3 Cd13_3 1_555 1_555
O37_3 Cd6_3 1_555 1_555
C6_5 C7_5 1_555 1_555
C12_5 C13_5 1_555 1_555
C20_5 C21_5 1_555 1_555
C34_5 C35_5 1_555 1_555
C40_5 C41_5 1_555 1_555
C62_5 C63_5 1_555 1_555
C68_5 C69_5 1_555 1_555
C76_5 C77_5 1_555 1_555
C82_5 C83_5 1_555 1_555
C89_5 N1_5 1_555 1_555
C96_5 C97_5 1_555 1_555
C96_5 N2_3 1_555 1_555
C113_5 N3_5 1_555 1_555
C114_5 N3_5 1_555 1_555
C116_5 N4_5 1_555 1_555
C117_5 N4_5 1_555 1_555
Cd1_5 O2_5 1_555 1_555
Cd1_5 O5_5 1_555 1_555
Cd1_5 O6_5 1_555 1_555
Cd1_5 O9_5 1_555 1_555
Cd1_5 O10_5 1_555 1_555
Cd1_5 O14_5 1_555 1_555
Cd2_3 O9_5 1_555 1_555
Cd2_3 O13_5 1_555 1_555
Cd2_3 O17_5 1_555 1_555
Cd2_3 O22_5 1_555 1_555
Cd3_3 O17_5 1_555 1_555
Cd3_3 O18_5 1_555 1_555
Cd3_3 O21_5 1_555 1_555
Cd3_3 O29_5 1_555 1_555
Cd3_3 O34_3 1_555 1_555
Cd13_3 O26_5 1_555 1_555
Cd6_3 O25_5 1_555 1_555
Cd6_3 O26_5 1_555 1_555
Cd6_3 O30_5 1_555 1_555
Cd6_3 O36_3 1_555 1_555
O4_3 Cd10_2 1_555 1_555
C99_5 C100_5 1_555 1_555
C100_5 H63_5 1_555 1_555
C101_5 C100_5 1_555 1_555
H64_5 C101_5 1_555 1_555
C102_5 C101_5 1_555 1_555
C103_5 C102_5 1_555 1_555
H65_5 C103_5 1_555 1_555
C104_5 C99_5 1_555 1_555
H66_5 C104_5 1_555 1_555
C105_5 C102_5 1_555 1_555
C106_5 C105_5 1_555 1_555
H67_5 C106_5 1_555 1_555
C107_5 C106_5 1_555 1_555
C108_5 C107_5 1_555 1_555
C109_5 C108_5 1_555 1_555
H69_5 C109_5 1_555 1_555
C110_5 C105_5 1_555 1_555
H70_5 C110_5 1_555 1_555
C111_5 C108_5 1_555 1_555
O34_3 C42_5 1_555 1_555
O35_3 C42_5 1_555 1_555
O42_3 C111_5 1_555 1_555
C103_5 C104_5 1_555 1_555
C109_5 C110_5 1_555 1_555
C1_6 C2_6 1_555 1_555
C2_6 C3_6 1_555 1_555
C3_6 H1_6 1_555 1_555
C4_6 C3_6 1_555 1_555
H2_6 C4_6 1_555 1_555
C5_6 C4_6 1_555 1_555
C6_6 C5_6 1_555 1_555
H3_6 C6_6 1_555 1_555
C7_6 C2_6 1_555 1_555
H4_6 C7_6 1_555 1_555
C8_6 C5_6 1_555 1_555
C9_6 C8_6 1_555 1_555
H5_6 C9_6 1_555 1_555
C10_6 C9_6 1_555 1_555
H6_6 C10_6 1_555 1_555
C11_6 C10_6 1_555 1_555
C12_6 C11_6 1_555 1_555
H7_6 C12_6 1_555 1_555
C13_6 C8_6 1_555 1_555
H8_6 C13_6 1_555 1_555
C14_6 C11_6 1_555 1_555
C15_6 C16_6 1_555 1_555
C16_6 C17_6 1_555 1_555
C17_6 H9_6 1_555 1_555
C18_6 C17_6 1_555 1_555
H10_6 C18_6 1_555 1_555
C19_6 C18_6 1_555 1_555
C20_6 C19_6 1_555 1_555
H11_6 C20_6 1_555 1_555
C21_6 C16_6 1_555 1_555
H12_6 C21_6 1_555 1_555
C22_6 C19_6 1_555 1_555
C23_6 C22_6 1_555 1_555
H13_6 C23_6 1_555 1_555
C24_6 C23_6 1_555 1_555
H14_6 C24_6 1_555 1_555
C25_6 C24_6 1_555 1_555
C26_6 C25_6 1_555 1_555
H15_6 C26_6 1_555 1_555
C27_6 C22_6 1_555 1_555
H16_6 C27_6 1_555 1_555
C28_6 C25_6 1_555 1_555
C29_6 C30_6 1_555 1_555
C35_6 C30_6 1_555 1_555
H20_6 C35_6 1_555 1_555
C43_6 C44_6 1_555 1_555
C44_6 C45_6 1_555 1_555
C45_6 H25_6 1_555 1_555
C46_6 C45_6 1_555 1_555
H26_6 C46_6 1_555 1_555
C47_6 C46_6 1_555 1_555
C48_6 C47_6 1_555 1_555
H27_6 C48_6 1_555 1_555
C49_6 C44_6 1_555 1_555
H28_6 C49_6 1_555 1_555
C50_6 C47_6 1_555 1_555
C51_6 C50_6 1_555 1_555
H29_6 C51_6 1_555 1_555
C52_6 C51_6 1_555 1_555
H30_6 C52_6 1_555 1_555
C53_6 C52_6 1_555 1_555
C54_6 C53_6 1_555 1_555
H31_6 C54_6 1_555 1_555
C55_6 C50_6 1_555 1_555
H32_6 C55_6 1_555 1_555
C57_6 C58_6 1_555 1_555
C58_6 C59_6 1_555 1_555
C59_6 H33_6 1_555 1_555
C60_6 C59_6 1_555 1_555
C61_6 C60_6 1_555 1_555
C62_6 C61_6 1_555 1_555
H35_6 C62_6 1_555 1_555
C63_6 C58_6 1_555 1_555
H36_6 C63_6 1_555 1_555
C64_6 C61_6 1_555 1_555
C71_6 C72_6 1_555 1_555
C72_6 C73_6 1_555 1_555
C73_6 H41_6 1_555 1_555
C74_6 C73_6 1_555 1_555
H42_6 C74_6 1_555 1_555
C77_6 C72_6 1_555 1_555
H44_6 C77_6 1_555 1_555
C85_6 H49_6 1_555 1_555
C86_6 C85_6 1_555 1_555
H50_6 C86_6 1_555 1_555
C87_6 C86_6 1_555 1_555
C88_6 C87_6 1_555 1_555
H51_6 C88_6 1_555 1_555
C89_6 C88_6 1_555 1_555
H52_6 C89_6 1_555 1_555
C90_6 C87_6 1_555 1_555
H53_6 C90_6 1_555 1_555
H54_6 C90_6 1_555 1_555
C91_6 C90_6 1_555 1_555
H55_6 C91_6 1_555 1_555
H56_6 C91_6 1_555 1_555
C92_6 C91_6 1_555 1_555
H57_6 C92_6 1_555 1_555
H58_6 C92_6 1_555 1_555
C93_6 C92_6 1_555 1_555
C94_6 C93_6 1_555 1_555
H59_6 C94_6 1_555 1_555
C95_6 C94_6 1_555 1_555
H60_6 C95_6 1_555 1_555
C96_6 H61_6 1_555 1_555
C97_6 C93_6 1_555 1_555
H62_6 C97_6 1_555 1_555
C112_6 H71_6 1_555 1_555
C113_6 H72_6 1_555 1_555
H73_6 C113_6 1_555 1_555
H74_6 C113_6 1_555 1_555
C114_6 H75_6 1_555 1_555
H76_6 C114_6 1_555 1_555
H77_6 C114_6 1_555 1_555
H80_6 C116_6 1_555 1_555
H81_6 C116_6 1_555 1_555
C117_6 H82_6 1_555 1_555
H83_6 C117_6 1_555 1_555
H84_6 C117_6 1_555 1_555
Cd1_6 O1_6 1_555 1_555
Cd2_4 O5_6 1_555 1_555
Cd3_4 N1_6 1_555 1_555
Cd10_2 O7_6 1_555 1_555
N1_6 C85_6 1_555 1_555
N2_4 C95_6 1_555 1_555
N3_6 C112_6 1_555 1_555
O1_6 C1_6 1_555 1_555
O2_6 C1_6 1_555 1_555
O31_3 C14_6 1_555 1_555
O32_3 C14_6 1_555 1_555
O5_6 C15_6 1_555 1_555
O6_6 C15_6 1_555 1_555
O7_6 C28_6 1_555 1_555
O8_4 C28_6 1_555 1_555
O9_6 C29_6 1_555 1_555
O10_6 C29_6 1_555 1_555
O13_6 C43_6 1_555 1_555
O14_6 C43_6 1_555 1_555
O17_6 C57_6 1_555 1_555
O18_6 C57_6 1_555 1_555
O21_6 C71_6 1_555 1_555
O22_6 C71_6 1_555 1_555
O29_6 C112_6 1_555 1_555
Cd13_4 O8_4 1_555 1_555
Cd17_2 N2_4 1_555 1_555
O34_4 Cd2_4 1_555 1_555
O35_4 Cd3_4 1_555 1_555
O39_4 Cd10_2 1_555 1_555
O41_4 Cd10_2 1_555 1_555
O42_4 Cd10_2 1_555 1_555
C6_6 C7_6 1_555 1_555
C12_6 C13_6 1_555 1_555
C20_6 C21_6 1_555 1_555
C26_6 C27_6 1_555 1_555
C48_6 C49_6 1_555 1_555
C54_6 C55_6 1_555 1_555
C62_6 C63_6 1_555 1_555
C89_6 N1_6 1_555 1_555
C96_6 C97_6 1_555 1_555
C96_6 N2_4 1_555 1_555
C113_6 N3_6 1_555 1_555
C114_6 N3_6 1_555 1_555
C116_6 N4_6 1_555 1_555
C117_6 N4_6 1_555 1_555
Cd1_6 O2_6 1_555 1_555
Cd1_6 O5_6 1_555 1_555
Cd1_6 O6_6 1_555 1_555
Cd1_6 O9_6 1_555 1_555
Cd1_6 O10_6 1_555 1_555
Cd1_6 O14_6 1_555 1_555
Cd2_4 O9_6 1_555 1_555
Cd2_4 O13_6 1_555 1_555
Cd2_4 O17_6 1_555 1_555
Cd2_4 O22_6 1_555 1_555
Cd3_4 O17_6 1_555 1_555
Cd3_4 O18_6 1_555 1_555
Cd3_4 O21_6 1_555 1_555
Cd3_4 O29_6 1_555 1_555
Cd3_4 O34_4 1_555 1_555
Cd10_2 O8_4 1_555 1_555
Cd13_4 O41_4 1_555 1_555
C31_6 H17_6 1_555 1_555
C32_6 C31_6 1_555 1_555
H18_6 C32_6 1_555 1_555
C33_6 C32_6 1_555 1_555
C34_6 C33_6 1_555 1_555
H19_6 C34_6 1_555 1_555
C36_6 C33_6 1_555 1_555
C37_6 C36_6 1_555 1_555
H21_6 C37_6 1_555 1_555
C38_6 C37_6 1_555 1_555
H22_6 C38_6 1_555 1_555
C39_6 C38_6 1_555 1_555
C40_6 C39_6 1_555 1_555
H23_6 C40_6 1_555 1_555
C41_6 C36_6 1_555 1_555
H24_6 C41_6 1_555 1_555
C42_6 C39_6 1_555 1_555
H37_6 C65_6 1_555 1_555
C66_6 C65_6 1_555 1_555
H38_6 C66_6 1_555 1_555
C67_6 C66_6 1_555 1_555
C68_6 C67_6 1_555 1_555
H39_6 C68_6 1_555 1_555
H40_6 C69_6 1_555 1_555
C70_6 C67_6 1_555 1_555
C76_6 C75_6 1_555 1_555
H43_6 C76_6 1_555 1_555
C78_6 C75_6 1_555 1_555
C79_6 C78_6 1_555 1_555
H45_6 C79_6 1_555 1_555
C80_6 C79_6 1_555 1_555
H46_6 C80_6 1_555 1_555
C81_6 C80_6 1_555 1_555
C82_6 C81_6 1_555 1_555
H47_6 C82_6 1_555 1_555
C83_6 C78_6 1_555 1_555
H48_6 C83_6 1_555 1_555
C84_6 C81_6 1_555 1_555
C98_6 C99_6 1_555 1_555
C99_6 C100_6 1_555 1_555
C100_6 H63_6 1_555 1_555
C101_6 C100_6 1_555 1_555
H64_6 C101_6 1_555 1_555
C102_6 C101_6 1_555 1_555
C103_6 C102_6 1_555 1_555
H65_6 C103_6 1_555 1_555
C104_6 C99_6 1_555 1_555
H66_6 C104_6 1_555 1_555
C105_6 C102_6 1_555 1_555
C106_6 C105_6 1_555 1_555
H67_6 C106_6 1_555 1_555
C107_6 C106_6 1_555 1_555
H69_6 C109_6 1_555 1_555
C110_6 C105_6 1_555 1_555
H70_6 C110_6 1_555 1_555
C115_6 H78_6 1_555 1_555
Cd13_4 O23_6 1_555 1_555
Cd6_4 O24_6 1_555 1_555
O34_4 C42_6 1_555 1_555
O35_4 C42_6 1_555 1_555
O19_4 C70_6 1_555 1_555
O20_4 C70_6 1_555 1_555
O23_6 C84_6 1_555 1_555
O24_6 C84_6 1_555 1_555
O25_6 C98_6 1_555 1_555
O26_6 C98_6 1_555 1_555
O30_6 C115_6 1_555 1_555
Cd11_4 O20_4 1_555 1_555
N5_4 Cd6_4 1_555 1_555
O36_4 Cd13_4 1_555 1_555
O37_4 Cd6_4 1_555 1_555
O38_4 Cd13_4 1_555 1_555
C40_6 C41_6 1_555 1_555
C68_6 C69_6 1_555 1_555
C82_6 C83_6 1_555 1_555
C103_6 C104_6 1_555 1_555
C109_6 C110_6 1_555 1_555
Cd13_4 O26_6 1_555 1_555
Cd6_4 O25_6 1_555 1_555
Cd6_4 O26_6 1_555 1_555
Cd6_4 O30_6 1_555 1_555
Cd6_4 O36_4 1_555 1_555
C111_6 C108_6 1_555 1_555
O41_4 C111_6 1_555 1_555
O42_4 C111_6 1_555 1_555
O15_4 C56_6 1_555 1_555
O16_4 C56_6 1_555 1_555
Cd15_4 O15_4 1_555 1_555
Cd16_2 O15_4 1_555 1_555
O16_4 Cd16_2 1_555 1_555
Cd11_4 O27_3 1_555 1_555
O31_4 Cd11_4 1_555 1_555
O32_4 Cd11_4 1_555 1_555
C99_7 C100_7 1_555 1_555
C100_7 H63_7 1_555 1_555
C101_7 C100_7 1_555 1_555
H64_7 C101_7 1_555 1_555
C102_7 C101_7 1_555 1_555
C103_7 C102_7 1_555 1_555
H65_7 C103_7 1_555 1_555
C104_7 C99_7 1_555 1_555
H66_7 C104_7 1_555 1_555
C105_7 C102_7 1_555 1_555
C106_7 C105_7 1_555 1_555
H67_7 C106_7 1_555 1_555
C107_7 C106_7 1_555 1_555
C108_7 C107_7 1_555 1_555
C109_7 C108_7 1_555 1_555
H69_7 C109_7 1_555 1_555
C110_7 C105_7 1_555 1_555
H70_7 C110_7 1_555 1_555
C111_7 C108_7 1_555 1_555
O28_3 C111_7 1_555 1_555
C103_7 C104_7 1_555 1_555
C109_7 C110_7 1_555 1_555
O11_3 C42_7 1_555 1_555
O12_3 C42_7 1_555 1_555
Cd7_3 O11_3 1_555 1_555
Cd8_3 O11_3 1_555 1_555
O12_3 Cd8_3 1_555 1_555
H6_7 C10_7 1_555 1_555
C11_7 C10_7 1_555 1_555
C14_7 C11_7 1_555 1_555
H45_7 C79_7 1_555 1_555
C80_7 C79_7 1_555 1_555
H46_7 C80_7 1_555 1_555
C81_7 C80_7 1_555 1_555
C82_7 C81_7 1_555 1_555
H47_7 C82_7 1_555 1_555
C84_7 C81_7 1_555 1_555
C115_7 H78_7 1_555 1_555
C116_7 H79_7 1_555 1_555
H80_7 C116_7 1_555 1_555
H81_7 C116_7 1_555 1_555
C117_7 H82_7 1_555 1_555
H83_7 C117_7 1_555 1_555
H84_7 C117_7 1_555 1_555
Cd15_4 O23_7 1_555 1_555
Cd16_2 O24_7 1_555 1_555
N4_7 C115_7 1_555 1_555
O3_4 C14_7 1_555 1_555
O4_4 C14_7 1_555 1_555
O23_7 C84_7 1_555 1_555
O24_7 C84_7 1_555 1_555
O25_7 C98_7 1_555 1_555
O26_7 C98_7 1_555 1_555
O30_7 C115_7 1_555 1_555
Cd11_3 O3_4 1_555 1_555
O33_3 Cd15_4 1_555 1_555
C116_7 N4_7 1_555 1_555
C117_7 N4_7 1_555 1_555
Cd15_4 O26_7 1_555 1_555
Cd16_2 O25_7 1_555 1_555
Cd16_2 O26_7 1_555 1_555
Cd16_2 O30_7 1_555 1_555
O4_4 Cd11_3 1_555 1_555
C1_7 C2_7 1_555 1_555
C2_7 C3_7 1_555 1_555
C3_7 H1_7 1_555 1_555
C4_7 C3_7 1_555 1_555
H2_7 C4_7 1_555 1_555
C5_7 C4_7 1_555 1_555
C6_7 C5_7 1_555 1_555
H3_7 C6_7 1_555 1_555
C7_7 C2_7 1_555 1_555
H4_7 C7_7 1_555 1_555
C8_7 C5_7 1_555 1_555
C9_7 C8_7 1_555 1_555
H5_7 C9_7 1_555 1_555
H7_7 C12_7 1_555 1_555
C13_7 C8_7 1_555 1_555
H8_7 C13_7 1_555 1_555
C15_7 C16_7 1_555 1_555
C16_7 C17_7 1_555 1_555
C21_7 C16_7 1_555 1_555
H12_7 C21_7 1_555 1_555
C29_7 C30_7 1_555 1_555
C30_7 C31_7 1_555 1_555
C31_7 H17_7 1_555 1_555
C32_7 C31_7 1_555 1_555
H18_7 C32_7 1_555 1_555
C33_7 C32_7 1_555 1_555
C34_7 C33_7 1_555 1_555
H19_7 C34_7 1_555 1_555
C35_7 C30_7 1_555 1_555
H20_7 C35_7 1_555 1_555
C36_7 C33_7 1_555 1_555
C37_7 C36_7 1_555 1_555
H21_7 C37_7 1_555 1_555
C38_7 C37_7 1_555 1_555
H22_7 C38_7 1_555 1_555
C39_7 C38_7 1_555 1_555
C40_7 C39_7 1_555 1_555
H23_7 C40_7 1_555 1_555
C41_7 C36_7 1_555 1_555
H24_7 C41_7 1_555 1_555
C43_7 C44_7 1_555 1_555
C49_7 C44_7 1_555 1_555
H28_7 C49_7 1_555 1_555
C57_7 C58_7 1_555 1_555
C58_7 C59_7 1_555 1_555
C59_7 H33_7 1_555 1_555
C60_7 C59_7 1_555 1_555
H34_7 C60_7 1_555 1_555
C61_7 C60_7 1_555 1_555
C62_7 C61_7 1_555 1_555
H35_7 C62_7 1_555 1_555
C63_7 C58_7 1_555 1_555
H36_7 C63_7 1_555 1_555
C64_7 C61_7 1_555 1_555
C65_7 C64_7 1_555 1_555
H37_7 C65_7 1_555 1_555
C66_7 C65_7 1_555 1_555
H38_7 C66_7 1_555 1_555
C67_7 C66_7 1_555 1_555
C68_7 C67_7 1_555 1_555
H39_7 C68_7 1_555 1_555
C69_7 C64_7 1_555 1_555
H40_7 C69_7 1_555 1_555
C70_7 C67_7 1_555 1_555
C71_7 C72_7 1_555 1_555
C72_7 C73_7 1_555 1_555
C73_7 H41_7 1_555 1_555
C74_7 C73_7 1_555 1_555
H42_7 C74_7 1_555 1_555
C75_7 C74_7 1_555 1_555
C76_7 C75_7 1_555 1_555
H43_7 C76_7 1_555 1_555
C77_7 C72_7 1_555 1_555
H44_7 C77_7 1_555 1_555
C78_7 C75_7 1_555 1_555
C83_7 C78_7 1_555 1_555
H48_7 C83_7 1_555 1_555
C85_7 H49_7 1_555 1_555
C86_7 C85_7 1_555 1_555
H50_7 C86_7 1_555 1_555
C87_7 C86_7 1_555 1_555
C88_7 C87_7 1_555 1_555
H51_7 C88_7 1_555 1_555
C89_7 C88_7 1_555 1_555
H52_7 C89_7 1_555 1_555
C90_7 C87_7 1_555 1_555
H53_7 C90_7 1_555 1_555
H54_7 C90_7 1_555 1_555
C91_7 C90_7 1_555 1_555
H55_7 C91_7 1_555 1_555
H56_7 C91_7 1_555 1_555
C92_7 C91_7 1_555 1_555
H57_7 C92_7 1_555 1_555
H58_7 C92_7 1_555 1_555
C93_7 C92_7 1_555 1_555
C94_7 C93_7 1_555 1_555
H59_7 C94_7 1_555 1_555
C95_7 C94_7 1_555 1_555
H60_7 C95_7 1_555 1_555
C96_7 H61_7 1_555 1_555
C97_7 C93_7 1_555 1_555
H62_7 C97_7 1_555 1_555
C112_7 H71_7 1_555 1_555
C113_7 H72_7 1_555 1_555
H73_7 C113_7 1_555 1_555
H74_7 C113_7 1_555 1_555
C114_7 H75_7 1_555 1_555
H76_7 C114_7 1_555 1_555
H77_7 C114_7 1_555 1_555
Cd1_7 O1_7 1_555 1_555
Cd7_3 O5_7 1_555 1_555
Cd8_3 N1_7 1_555 1_555
N1_7 C85_7 1_555 1_555
N5_3 C95_7 1_555 1_555
N3_7 C112_7 1_555 1_555
O1_7 C1_7 1_555 1_555
O2_7 C1_7 1_555 1_555
O5_7 C15_7 1_555 1_555
O6_7 C15_7 1_555 1_555
O9_7 C29_7 1_555 1_555
O10_7 C29_7 1_555 1_555
O13_7 C43_7 1_555 1_555
O14_7 C43_7 1_555 1_555
O17_7 C57_7 1_555 1_555
O18_7 C57_7 1_555 1_555
O38_4 C70_7 1_555 1_555
O39_4 C70_7 1_555 1_555
O21_7 C71_7 1_555 1_555
O22_7 C71_7 1_555 1_555
O29_7 C112_7 1_555 1_555
C6_7 C7_7 1_555 1_555
C12_7 C13_7 1_555 1_555
C20_7 C21_7 1_555 1_555
C34_7 C35_7 1_555 1_555
C40_7 C41_7 1_555 1_555
C62_7 C63_7 1_555 1_555
C68_7 C69_7 1_555 1_555
C76_7 C77_7 1_555 1_555
C89_7 N1_7 1_555 1_555
C96_7 C97_7 1_555 1_555
C96_7 N5_3 1_555 1_555
C113_7 N3_7 1_555 1_555
C114_7 N3_7 1_555 1_555
Cd1_7 O2_7 1_555 1_555
Cd1_7 O5_7 1_555 1_555
Cd1_7 O6_7 1_555 1_555
Cd1_7 O9_7 1_555 1_555
Cd1_7 O10_7 1_555 1_555
Cd1_7 O14_7 1_555 1_555
Cd7_3 O9_7 1_555 1_555
Cd7_3 O13_7 1_555 1_555
Cd7_3 O17_7 1_555 1_555
Cd7_3 O22_7 1_555 1_555
Cd8_3 O17_7 1_555 1_555
Cd8_3 O18_7 1_555 1_555
Cd8_3 O21_7 1_555 1_555
Cd8_3 O29_7 1_555 1_555
C26_7 C25_7 1_555 1_555
H15_7 C26_7 1_555 1_555
H16_7 C27_7 1_555 1_555
C28_7 C25_7 1_555 1_555
O7_7 C28_7 1_555 1_555
O33_3 C28_7 1_555 1_555
C26_7 C27_7 1_555 1_555
H10_7 C18_7 1_555 1_555
C19_7 C18_7 1_555 1_555
C22_7 C19_7 1_555 1_555
C23_7 C22_7 1_555 1_555
H13_7 C23_7 1_555 1_555
C24_7 C23_7 1_555 1_555
H14_7 C24_7 1_555 1_555
C45_7 H25_7 1_555 1_555
C46_7 C45_7 1_555 1_555
H26_7 C46_7 1_555 1_555
C47_7 C46_7 1_555 1_555
C48_7 C47_7 1_555 1_555
H27_7 C48_7 1_555 1_555
C50_7 C47_7 1_555 1_555
C51_7 C50_7 1_555 1_555
H29_7 C51_7 1_555 1_555
C52_7 C51_7 1_555 1_555
H30_7 C52_7 1_555 1_555
C53_7 C52_7 1_555 1_555
C54_7 C53_7 1_555 1_555
H31_7 C54_7 1_555 1_555
C55_7 C50_7 1_555 1_555
H32_7 C55_7 1_555 1_555
C56_7 C53_7 1_555 1_555
O36_4 C56_7 1_555 1_555
O37_4 C56_7 1_555 1_555
C54_7 C55_7 1_555 1_555
C111_8 C108_8 1_555 1_555
O27_4 C111_8 1_555 1_555
O28_4 C111_8 1_555 1_555
Cd11_3 O27_4 1_555 1_555
Cd15_3 O27_4 1_555 1_555
O28_4 Cd11_3 1_555 1_555
H45_8 C79_8 1_555 1_555
C80_8 C79_8 1_555 1_555
H46_8 C80_8 1_555 1_555
C81_8 C80_8 1_555 1_555
C82_8 C81_8 1_555 1_555
H47_8 C82_8 1_555 1_555
C84_8 C81_8 1_555 1_555
C98_8 C99_8 1_555 1_555
C99_8 C100_8 1_555 1_555
C100_8 H63_8 1_555 1_555
C101_8 C100_8 1_555 1_555
H64_8 C101_8 1_555 1_555
C102_8 C101_8 1_555 1_555
C103_8 C102_8 1_555 1_555
H65_8 C103_8 1_555 1_555
C104_8 C99_8 1_555 1_555
H66_8 C104_8 1_555 1_555
C105_8 C102_8 1_555 1_555
C106_8 C105_8 1_555 1_555
H67_8 C106_8 1_555 1_555
C107_8 C106_8 1_555 1_555
H69_8 C109_8 1_555 1_555
C110_8 C105_8 1_555 1_555
H70_8 C110_8 1_555 1_555
C115_8 H78_8 1_555 1_555
Cd15_3 O23_8 1_555 1_555
Cd17_2 O24_8 1_555 1_555
O23_8 C84_8 1_555 1_555
O24_8 C84_8 1_555 1_555
O25_8 C98_8 1_555 1_555
O26_8 C98_8 1_555 1_555
O30_8 C115_8 1_555 1_555
O33_4 Cd15_3 1_555 1_555
C103_8 C104_8 1_555 1_555
C109_8 C110_8 1_555 1_555
Cd15_3 O26_8 1_555 1_555
Cd17_2 O25_8 1_555 1_555
Cd17_2 O26_8 1_555 1_555
Cd17_2 O30_8 1_555 1_555
C31_8 H17_8 1_555 1_555
C32_8 C31_8 1_555 1_555
H18_8 C32_8 1_555 1_555
C33_8 C32_8 1_555 1_555
C34_8 C33_8 1_555 1_555
H19_8 C34_8 1_555 1_555
C36_8 C33_8 1_555 1_555
C37_8 C36_8 1_555 1_555
H21_8 C37_8 1_555 1_555
C38_8 C37_8 1_555 1_555
H22_8 C38_8 1_555 1_555
C39_8 C38_8 1_555 1_555
C40_8 C39_8 1_555 1_555
H23_8 C40_8 1_555 1_555
C41_8 C36_8 1_555 1_555
H24_8 C41_8 1_555 1_555
C42_8 C39_8 1_555 1_555
H37_8 C65_8 1_555 1_555
C66_8 C65_8 1_555 1_555
H38_8 C66_8 1_555 1_555
C67_8 C66_8 1_555 1_555
C68_8 C67_8 1_555 1_555
H39_8 C68_8 1_555 1_555
H40_8 C69_8 1_555 1_555
C70_8 C67_8 1_555 1_555
C76_8 C75_8 1_555 1_555
H43_8 C76_8 1_555 1_555
C78_8 C75_8 1_555 1_555
C83_8 C78_8 1_555 1_555
H48_8 C83_8 1_555 1_555
O11_4 C42_8 1_555 1_555
O12_4 C42_8 1_555 1_555
O38_3 C70_8 1_555 1_555
O39_3 C70_8 1_555 1_555
Cd7_4 O11_4 1_555 1_555
Cd8_4 O11_4 1_555 1_555
C40_8 C41_8 1_555 1_555
C68_8 C69_8 1_555 1_555
O12_4 Cd8_4 1_555 1_555
H6_8 C10_8 1_555 1_555
C11_8 C10_8 1_555 1_555
C14_8 C11_8 1_555 1_555
C26_8 C25_8 1_555 1_555
H15_8 C26_8 1_555 1_555
H16_8 C27_8 1_555 1_555
C28_8 C25_8 1_555 1_555
H80_8 C116_8 1_555 1_555
H81_8 C116_8 1_555 1_555
C117_8 H82_8 1_555 1_555
H83_8 C117_8 1_555 1_555
H84_8 C117_8 1_555 1_555
Cd11_3 O7_8 1_555 1_555
O31_4 C14_8 1_555 1_555
O32_4 C14_8 1_555 1_555
O7_8 C28_8 1_555 1_555
O33_4 C28_8 1_555 1_555
C26_8 C27_8 1_555 1_555
C116_8 N4_8 1_555 1_555
C117_8 N4_8 1_555 1_555
Cd11_3 O33_4 1_555 1_555
C1_8 C2_8 1_555 1_555
C2_8 C3_8 1_555 1_555
C3_8 H1_8 1_555 1_555
C4_8 C3_8 1_555 1_555
H2_8 C4_8 1_555 1_555
C5_8 C4_8 1_555 1_555
C6_8 C5_8 1_555 1_555
H3_8 C6_8 1_555 1_555
C7_8 C2_8 1_555 1_555
H4_8 C7_8 1_555 1_555
C8_8 C5_8 1_555 1_555
C9_8 C8_8 1_555 1_555
H5_8 C9_8 1_555 1_555
H7_8 C12_8 1_555 1_555
C13_8 C8_8 1_555 1_555
H8_8 C13_8 1_555 1_555
C15_8 C16_8 1_555 1_555
C16_8 C17_8 1_555 1_555
C17_8 H9_8 1_555 1_555
C18_8 C17_8 1_555 1_555
H10_8 C18_8 1_555 1_555
C19_8 C18_8 1_555 1_555
C20_8 C19_8 1_555 1_555
C21_8 C16_8 1_555 1_555
H12_8 C21_8 1_555 1_555
C22_8 C19_8 1_555 1_555
C23_8 C22_8 1_555 1_555
H13_8 C23_8 1_555 1_555
C24_8 C23_8 1_555 1_555
H14_8 C24_8 1_555 1_555
C29_8 C30_8 1_555 1_555
C35_8 C30_8 1_555 1_555
H20_8 C35_8 1_555 1_555
C43_8 C44_8 1_555 1_555
C44_8 C45_8 1_555 1_555
C45_8 H25_8 1_555 1_555
C46_8 C45_8 1_555 1_555
H26_8 C46_8 1_555 1_555
C47_8 C46_8 1_555 1_555
C48_8 C47_8 1_555 1_555
H27_8 C48_8 1_555 1_555
C49_8 C44_8 1_555 1_555
H28_8 C49_8 1_555 1_555
C50_8 C47_8 1_555 1_555
C51_8 C50_8 1_555 1_555
H29_8 C51_8 1_555 1_555
C52_8 C51_8 1_555 1_555
H30_8 C52_8 1_555 1_555
C53_8 C52_8 1_555 1_555
C54_8 C53_8 1_555 1_555
H31_8 C54_8 1_555 1_555
C55_8 C50_8 1_555 1_555
H32_8 C55_8 1_555 1_555
C57_8 C58_8 1_555 1_555
C58_8 C59_8 1_555 1_555
C59_8 H33_8 1_555 1_555
C60_8 C59_8 1_555 1_555
C61_8 C60_8 1_555 1_555
C62_8 C61_8 1_555 1_555
H35_8 C62_8 1_555 1_555
C63_8 C58_8 1_555 1_555
H36_8 C63_8 1_555 1_555
C64_8 C61_8 1_555 1_555
C71_8 C72_8 1_555 1_555
C72_8 C73_8 1_555 1_555
C73_8 H41_8 1_555 1_555
C74_8 C73_8 1_555 1_555
H42_8 C74_8 1_555 1_555
C77_8 C72_8 1_555 1_555
H44_8 C77_8 1_555 1_555
C85_8 H49_8 1_555 1_555
C86_8 C85_8 1_555 1_555
H50_8 C86_8 1_555 1_555
C87_8 C86_8 1_555 1_555
C88_8 C87_8 1_555 1_555
H51_8 C88_8 1_555 1_555
C89_8 C88_8 1_555 1_555
H52_8 C89_8 1_555 1_555
C90_8 C87_8 1_555 1_555
H53_8 C90_8 1_555 1_555
H54_8 C90_8 1_555 1_555
C91_8 C90_8 1_555 1_555
H55_8 C91_8 1_555 1_555
H56_8 C91_8 1_555 1_555
C92_8 C91_8 1_555 1_555
H57_8 C92_8 1_555 1_555
H58_8 C92_8 1_555 1_555
C93_8 C92_8 1_555 1_555
C94_8 C93_8 1_555 1_555
H59_8 C94_8 1_555 1_555
C95_8 C94_8 1_555 1_555
H60_8 C95_8 1_555 1_555
C96_8 H61_8 1_555 1_555
C97_8 C93_8 1_555 1_555
H62_8 C97_8 1_555 1_555
C112_8 H71_8 1_555 1_555
C113_8 H72_8 1_555 1_555
H73_8 C113_8 1_555 1_555
H74_8 C113_8 1_555 1_555
C114_8 H75_8 1_555 1_555
H76_8 C114_8 1_555 1_555
H77_8 C114_8 1_555 1_555
Cd1_8 O1_8 1_555 1_555
Cd7_4 O5_8 1_555 1_555
Cd8_4 N1_8 1_555 1_555
N1_8 C85_8 1_555 1_555
N5_4 C95_8 1_555 1_555
N3_8 C112_8 1_555 1_555
O1_8 C1_8 1_555 1_555
O2_8 C1_8 1_555 1_555
O5_8 C15_8 1_555 1_555
O6_8 C15_8 1_555 1_555
O9_8 C29_8 1_555 1_555
O10_8 C29_8 1_555 1_555
O13_8 C43_8 1_555 1_555
O14_8 C43_8 1_555 1_555
O17_8 C57_8 1_555 1_555
O18_8 C57_8 1_555 1_555
O21_8 C71_8 1_555 1_555
O22_8 C71_8 1_555 1_555
O29_8 C112_8 1_555 1_555
C6_8 C7_8 1_555 1_555
C12_8 C13_8 1_555 1_555
C20_8 C21_8 1_555 1_555
C48_8 C49_8 1_555 1_555
C54_8 C55_8 1_555 1_555
C62_8 C63_8 1_555 1_555
C89_8 N1_8 1_555 1_555
C96_8 C97_8 1_555 1_555
C96_8 N5_4 1_555 1_555
C113_8 N3_8 1_555 1_555
C114_8 N3_8 1_555 1_555
Cd1_8 O2_8 1_555 1_555
Cd1_8 O5_8 1_555 1_555
Cd1_8 O6_8 1_555 1_555
Cd1_8 O9_8 1_555 1_555
Cd1_8 O10_8 1_555 1_555
Cd1_8 O14_8 1_555 1_555
Cd7_4 O9_8 1_555 1_555
Cd7_4 O13_8 1_555 1_555
Cd7_4 O17_8 1_555 1_555
Cd7_4 O22_8 1_555 1_555
Cd8_4 O17_8 1_555 1_555
Cd8_4 O18_8 1_555 1_555
Cd8_4 O21_8 1_555 1_555
Cd8_4 O29_8 1_555 1_555
O36_3 C56_8 1_555 1_555
O37_3 C56_8 1_555 1_555
O43_3 H85 1_555 1_555
O43_3 H87 1_555 1_555
O43_4 H85_2 1_555 1_555
O43_4 H87_2 1_555 1_555
O43_7 H85_3 1_555 1_555
O43_7 H87_3 1_555 1_555
O43_8 H85_4 1_555 1_555
O43_8 H87_4 1_555 1_555

#END
