
###############################################################################
#
# This file contains modified crystal structure data generated from the
# MOF subset of the Cambridge Structural Database (CSD) v543 
# hosted by the Cambridge Crystallographic Data Centre (CCDC).
#
# This work is licensed under the Creative Commons
# Attribution-NonCommercial-ShareAlike 4.0 International License.
# To view a copy of this license, visit
# http://creativecommons.org/licenses/by-nc-sa/4.0/
# or send a letter to
# Creative Commons, PO Box 1866, Mountain View, CA 94042, USA.
#
# CIF created using the CSD Python API on 29 September 2022
# The structure has been converted into the P1 space group
# The structure has a 3D framework
# The original CSD entry RAMJUN is in the monoclinic crystal system
# The framework has been calculated to contain at least 10.0% void space
# The void calculation uses a probe of radius 1.32A, grid spacing 0.4
#
###############################################################################

data_RAMJUN
_chemical_formula_moiety         '(C168 H144 Cd8 N16 O40)n'
_symmetry_cell_setting           triclinic
_symmetry_space_group_name_H-M   'P 1'
_symmetry_Int_Tables_number      1
_space_group_name_Hall           'P 1'
loop_
_symmetry_equiv_pos_site_id
_symmetry_equiv_pos_as_xyz
1 x,y,z
_cell_length_a                   16.375(3)
_cell_length_b                   12.766(3)
_cell_length_c                   25.320(5)
_cell_angle_alpha                90
_cell_angle_beta                 98.43(3)
_cell_angle_gamma                90
_cell_volume                     5235.79
loop_
_atom_site_label
_atom_site_type_symbol
_atom_site_fract_x
_atom_site_fract_y
_atom_site_fract_z
C1 C 0.2339(9) 0.1993(9) 0.1539(4)
H1 H 0.2143 0.2669 0.1573
C2 C 0.2742(9) 0.1506(10) 0.1989(5)
H2 H 0.2823 0.1861 0.2311
C3 C 0.3032(7) 0.0505(8) 0.1965(4)
C4 C 0.2932(8) 0.0065(8) 0.1466(4)
C5 C 0.2514(8) 0.0604(8) 0.1033(4)
H4 H 0.2456 0.0281 0.0701
C7 C 0.3962(5) 0.0605(8) 0.2862(3)
H7 H 0.4353 0.1004 0.2691
H8 H 0.3599 0.1094 0.3003
C9 C 0.5632(8) 0.0716(10) 0.4636(5)
H11 H 0.5815 0.0358 0.4951
C10 C 0.5192(10) 0.0167(10) 0.4228(5)
C11 C 0.4906(6) 0.0601(8) 0.3763(4)
C12 C 0.5146(10) 0.1626(11) 0.3715(6)
H13 H 0.4997 0.1966 0.3392
C13 C 0.5609(10) 0.2140(11) 0.4131(6)
H14 H 0.5763 0.2830 0.4080
C14 C 0.0027(5) 0.1716(6) 0.0665(3)
Cd1 Cd 0.14772(3) 0.24137(4) 0.03460(2)
N1 N 0.2213(4) 0.1552(6) 0.1066(3)
N2 N 0.5808(4) 0.1710(6) 0.4613(3)
O1 O 0.0355(4) 0.2562(4) 0.0872(3)
O2 O 0.0347(4) 0.1221(5) 0.0330(3)
Cd4 Cd 0.64772(3) 0.25863(4) 0.53460(2)
O6 O 0.1980(4) 0.3945(5) 0.0724(3)
N3 N 0.0808(4) 0.3290(6) 0.9613(3)
O7 O 0.2075(4) 0.1353(5) 0.9793(3)
C21 C 0.7644(5) 0.9158(6) 0.0564(3)
O3 O 0.6980(4) 0.8945(5) 0.0724(3)
O4 O 0.7925(4) 0.8647(5) 0.0207(3)
Cd2 Cd 0.64772(3) 0.74137(4) 0.03460(2)
Cd3 Cd 0.85228(3) 0.75863(4) 0.96540(2)
C21_2 C 0.2356(5) 0.9158(6) 0.4436(3)
O3_2 O 0.3020(4) 0.8945(5) 0.4276(3)
O4_2 O 0.2075(4) 0.8647(5) 0.4793(3)
Cd2_2 Cd 0.35228(3) 0.74137(4) 0.46540(2)
Cd3_2 Cd 0.14772(3) 0.75863(4) 0.53460(2)
C1_2 C 0.7661(9) 0.1993(9) 0.3461(4)
H1_2 H 0.7857 0.2669 0.3427
C2_2 C 0.7258(9) 0.1506(10) 0.3011(5)
H2_2 H 0.7177 0.1861 0.2689
C3_2 C 0.6968(7) 0.0505(8) 0.3035(4)
C4_2 C 0.7068(8) 0.0065(8) 0.3534(4)
C5_2 C 0.7486(8) 0.0604(8) 0.3967(4)
H4_2 H 0.7544 0.0281 0.4299
C7_2 C 0.6038(5) 0.0605(8) 0.2138(3)
H7_2 H 0.5647 0.1004 0.2309
H8_2 H 0.6401 0.1094 0.1997
C9_2 C 0.4368(8) 0.0716(10) 0.0364(5)
H11_2 H 0.4185 0.0358 0.0049
C10_2 C 0.4808(10) 0.0167(10) 0.0772(5)
C11_2 C 0.5094(6) 0.0601(8) 0.1237(4)
C12_2 C 0.4854(10) 0.1626(11) 0.1285(6)
H13_2 H 0.5003 0.1966 0.1608
C13_2 C 0.4391(10) 0.2140(11) 0.0869(6)
H14_2 H 0.4237 0.2830 0.0920
C14_2 C 0.9973(5) 0.1716(6) 0.4335(3)
Cd1_2 Cd 0.85228(3) 0.24137(4) 0.46540(2)
N1_2 N 0.7787(4) 0.1552(6) 0.3934(3)
N2_2 N 0.4192(4) 0.1710(6) 0.0387(3)
O1_2 O 0.9645(4) 0.2562(4) 0.4128(3)
O2_2 O 0.9653(4) 0.1221(5) 0.4670(3)
N3_2 N 0.9192(4) 0.3290(6) 0.5387(3)
O6_2 O 0.8020(4) 0.3945(5) 0.4276(3)
O7_2 O 0.7925(4) 0.1353(5) 0.5207(3)
Cd4_2 Cd 0.35228(3) 0.25863(4) 0.96540(2)
C9_3 C 0.0632(8) 0.5716(10) 0.4636(5)
H11_3 H 0.0815 0.5358 0.4951
C10_3 C 0.0192(10) 0.5167(10) 0.4228(5)
H12 H 0.0103 0.4457 0.4276
C12_3 C 0.0146(10) 0.6626(11) 0.3715(6)
C13_3 C 0.0609(10) 0.7140(11) 0.4131(6)
H14_3 H 0.0763 0.7830 0.4080
N2_3 N 0.0808(4) 0.6710(6) 0.4613(3)
C1_3 C 0.7339(9) 0.6993(9) 0.1539(4)
H1_3 H 0.7143 0.7669 0.1573
C2_3 C 0.7742(9) 0.6506(10) 0.1989(5)
H2_3 H 0.7823 0.6861 0.2311
C3_3 C 0.8032(7) 0.5505(8) 0.1965(4)
C4_3 C 0.7932(8) 0.5065(8) 0.1466(4)
H3 H 0.8143 0.4401 0.1420
C5_3 C 0.7514(8) 0.5604(8) 0.1033(4)
H4_3 H 0.7456 0.5281 0.0701
C6 C 0.8456(8) 0.4917(9) 0.2447(4)
H5 H 0.8817 0.4392 0.2329
H6 H 0.8041 0.4554 0.2614
C7_3 C 0.8962(5) 0.5605(8) 0.2862(3)
H7_3 H 0.9353 0.6004 0.2691
H8_3 H 0.8599 0.6094 0.3003
C8 C 0.9430(7) 0.4975(8) 0.3313(4)
H9 H 0.9038 0.4535 0.3460
H10 H 0.9814 0.4518 0.3169
C11_3 C 0.9906(6) 0.5601(8) 0.3763(4)
H13_3 H 0.9997 0.6966 0.3392
C14_3 C 0.5027(5) 0.6716(6) 0.0665(3)
C15 C 0.4260(5) 0.6331(6) 0.0860(3)
C16 C 0.3847(5) 0.5438(6) 0.0633(3)
H15 H 0.4054 0.5073 0.0364
C17 C 0.3127(4) 0.5097(6) 0.0802(3)
C18 C 0.2823(6) 0.5636(8) 0.1215(4)
H16 H 0.2345 0.5405 0.1336
C19 C 0.3215(6) 0.6525(8) 0.1432(4)
H17 H 0.3004 0.6880 0.1703
C20 C 0.3931(6) 0.6869(7) 0.1273(4)
C21_3 C 0.2644(5) 0.4158(6) 0.0564(3)
N1_3 N 0.7213(4) 0.6552(6) 0.1066(3)
O1_3 O 0.5355(4) 0.7562(4) 0.0872(3)
O2_3 O 0.5347(4) 0.6221(5) 0.0330(3)
O4_3 O 0.2925(4) 0.3647(5) 0.0207(3)
O5 O 0.4296(6) 0.7722(6) 0.1501(4)
H18 H 0.4722 0.7849 0.1379
N3_3 N 0.5808(4) 0.8290(6) 0.9613(3)
O7_3 O 0.7075(4) 0.6353(5) 0.9793(3)
C1_4 C 0.2661(9) 0.6993(9) 0.3461(4)
H1_4 H 0.2857 0.7669 0.3427
C2_4 C 0.2258(9) 0.6506(10) 0.3011(5)
H2_4 H 0.2177 0.6861 0.2689
C3_4 C 0.1968(7) 0.5505(8) 0.3035(4)
C4_4 C 0.2068(8) 0.5065(8) 0.3534(4)
H3_2 H 0.1857 0.4401 0.3580
C5_4 C 0.2486(8) 0.5604(8) 0.3967(4)
H4_4 H 0.2544 0.5281 0.4299
C6_2 C 0.1544(8) 0.4917(9) 0.2553(4)
H5_2 H 0.1183 0.4392 0.2671
H6_2 H 0.1959 0.4554 0.2386
C7_4 C 0.1038(5) 0.5605(8) 0.2138(3)
H7_4 H 0.0647 0.6004 0.2309
H8_4 H 0.1401 0.6094 0.1997
C8_2 C 0.0570(7) 0.4975(8) 0.1687(4)
H9_2 H 0.0962 0.4535 0.1540
H10_2 H 0.0186 0.4518 0.1831
C11_4 C 0.0094(6) 0.5601(8) 0.1237(4)
H13_4 H 0.0003 0.6966 0.1608
C14_4 C 0.4973(5) 0.6716(6) 0.4335(3)
C15_2 C 0.5740(5) 0.6331(6) 0.4140(3)
C16_2 C 0.6153(5) 0.5438(6) 0.4367(3)
H15_2 H 0.5946 0.5073 0.4636
C17_2 C 0.6873(4) 0.5097(6) 0.4198(3)
C18_2 C 0.7177(6) 0.5636(8) 0.3785(4)
H16_2 H 0.7655 0.5405 0.3664
C19_2 C 0.6785(6) 0.6525(8) 0.3568(4)
H17_2 H 0.6996 0.6880 0.3297
C20_2 C 0.6069(6) 0.6869(7) 0.3727(4)
C21_4 C 0.7356(5) 0.4158(6) 0.4436(3)
N1_4 N 0.2787(4) 0.6552(6) 0.3934(3)
O1_4 O 0.4645(4) 0.7562(4) 0.4128(3)
O2_4 O 0.4653(4) 0.6221(5) 0.4670(3)
O4_4 O 0.7075(4) 0.3647(5) 0.4793(3)
O5_2 O 0.5704(6) 0.7722(6) 0.3499(4)
H18_2 H 0.5278 0.7849 0.3621
N3_4 N 0.4192(4) 0.8290(6) 0.5387(3)
O7_4 O 0.2925(4) 0.6353(5) 0.5207(3)
C9_4 C 0.9368(8) 0.5716(10) 0.0364(5)
H11_4 H 0.9185 0.5358 0.0049
C10_4 C 0.9808(10) 0.5167(10) 0.0772(5)
H12_2 H 0.9897 0.4457 0.0724
C12_4 C 0.9854(10) 0.6626(11) 0.1285(6)
C13_4 C 0.9391(10) 0.7140(11) 0.0869(6)
H14_4 H 0.9237 0.7830 0.0920
N2_4 N 0.9192(4) 0.6710(6) 0.0387(3)
C21_5 C 0.2356(5) 0.0842(6) 0.9436(3)
O3_3 O 0.3020(4) 0.1055(5) 0.9276(3)
C1_5 C 0.7661(9) 0.8007(9) 0.8461(4)
H1_5 H 0.7857 0.7331 0.8427
C2_5 C 0.7258(9) 0.8494(10) 0.8011(5)
H2_5 H 0.7177 0.8139 0.7689
C3_5 C 0.6968(7) 0.9495(8) 0.8035(4)
C4_5 C 0.7068(8) 0.9935(8) 0.8534(4)
C5_5 C 0.7486(8) 0.9396(8) 0.8967(4)
H4_5 H 0.7544 0.9719 0.9299
C7_5 C 0.6038(5) 0.9395(8) 0.7138(3)
H7_5 H 0.5647 0.8996 0.7309
H8_5 H 0.6401 0.8906 0.6997
C9_5 C 0.4368(8) 0.9284(10) 0.5364(5)
H11_5 H 0.4185 0.9642 0.5049
C10_5 C 0.4808(10) 0.9833(10) 0.5772(5)
C11_5 C 0.5094(6) 0.9399(8) 0.6237(4)
C12_5 C 0.4854(10) 0.8374(11) 0.6285(6)
H13_5 H 0.5003 0.8034 0.6608
C13_5 C 0.4391(10) 0.7860(11) 0.5869(6)
H14_5 H 0.4237 0.7170 0.5920
C14_5 C 0.9973(5) 0.8284(6) 0.9335(3)
N1_5 N 0.7787(4) 0.8448(6) 0.8934(3)
O1_5 O 0.9645(4) 0.7438(4) 0.9128(3)
O2_5 O 0.9653(4) 0.8779(5) 0.9670(3)
O6_3 O 0.8020(4) 0.6055(5) 0.9276(3)
C1_6 C 0.2339(9) 0.8007(9) 0.6539(4)
H1_6 H 0.2143 0.7331 0.6573
C2_6 C 0.2742(9) 0.8494(10) 0.6989(5)
H2_6 H 0.2823 0.8139 0.7311
C3_6 C 0.3032(7) 0.9495(8) 0.6965(4)
C4_6 C 0.2932(8) 0.9935(8) 0.6466(4)
C5_6 C 0.2514(8) 0.9396(8) 0.6033(4)
H4_6 H 0.2456 0.9719 0.5701
C7_6 C 0.3962(5) 0.9395(8) 0.7862(3)
H7_6 H 0.4353 0.8996 0.7691
H8_6 H 0.3599 0.8906 0.8003
C9_6 C 0.5632(8) 0.9284(10) 0.9636(5)
H11_6 H 0.5815 0.9642 0.9951
C10_6 C 0.5192(10) 0.9833(10) 0.9228(5)
C11_6 C 0.4906(6) 0.9399(8) 0.8763(4)
C12_6 C 0.5146(10) 0.8374(11) 0.8715(6)
H13_6 H 0.4997 0.8034 0.8392
C13_6 C 0.5609(10) 0.7860(11) 0.9131(6)
H14_6 H 0.5763 0.7170 0.9080
C14_6 C 0.0027(5) 0.8284(6) 0.5665(3)
N1_6 N 0.2213(4) 0.8448(6) 0.6066(3)
O1_6 O 0.0355(4) 0.7438(4) 0.5872(3)
O2_6 O 0.0347(4) 0.8779(5) 0.5330(3)
O6_4 O 0.1980(4) 0.6055(5) 0.5724(3)
C21_6 C 0.7644(5) 0.0842(6) 0.5564(3)
O3_4 O 0.6980(4) 0.1055(5) 0.5724(3)
C1_7 C 0.2661(9) 0.3007(9) 0.8461(4)
H1_7 H 0.2857 0.2331 0.8427
C2_7 C 0.2258(9) 0.3494(10) 0.8011(5)
H2_7 H 0.2177 0.3139 0.7689
C3_7 C 0.1968(7) 0.4495(8) 0.8035(4)
C4_7 C 0.2068(8) 0.4935(8) 0.8534(4)
H3_3 H 0.1857 0.5599 0.8580
C5_7 C 0.2486(8) 0.4396(8) 0.8967(4)
H4_7 H 0.2544 0.4719 0.9299
C6_3 C 0.1544(8) 0.5083(9) 0.7553(4)
H5_3 H 0.1183 0.5608 0.7671
H6_3 H 0.1959 0.5446 0.7386
C7_7 C 0.1038(5) 0.4395(8) 0.7138(3)
H7_7 H 0.0647 0.3996 0.7309
H8_7 H 0.1401 0.3906 0.6997
C8_3 C 0.0570(7) 0.5025(8) 0.6687(4)
H9_3 H 0.0962 0.5465 0.6540
H10_3 H 0.0186 0.5482 0.6831
C11_7 C 0.0094(6) 0.4399(8) 0.6237(4)
H13_7 H 0.0003 0.3034 0.6608
C14_7 C 0.4973(5) 0.3284(6) 0.9335(3)
C15_3 C 0.5740(5) 0.3669(6) 0.9140(3)
C16_3 C 0.6153(5) 0.4562(6) 0.9367(3)
H15_3 H 0.5946 0.4927 0.9636
C17_3 C 0.6873(4) 0.4903(6) 0.9198(3)
C18_3 C 0.7177(6) 0.4364(8) 0.8785(4)
H16_3 H 0.7655 0.4595 0.8664
C19_3 C 0.6785(6) 0.3475(8) 0.8568(4)
H17_3 H 0.6996 0.3120 0.8297
C20_3 C 0.6069(6) 0.3131(7) 0.8727(4)
C21_7 C 0.7356(5) 0.5842(6) 0.9436(3)
N1_7 N 0.2787(4) 0.3448(6) 0.8934(3)
O1_7 O 0.4645(4) 0.2438(4) 0.9128(3)
O2_7 O 0.4653(4) 0.3779(5) 0.9670(3)
O5_3 O 0.5704(6) 0.2278(6) 0.8499(4)
H18_3 H 0.5278 0.2151 0.8621
C9_7 C 0.9368(8) 0.4284(10) 0.5364(5)
H11_7 H 0.9185 0.4642 0.5049
C10_7 C 0.9808(10) 0.4833(10) 0.5772(5)
H12_3 H 0.9897 0.5543 0.5724
C12_7 C 0.9854(10) 0.3374(11) 0.6285(6)
C13_7 C 0.9391(10) 0.2860(11) 0.5869(6)
H14_7 H 0.9237 0.2170 0.5920
C9_8 C 0.0632(8) 0.4284(10) 0.9636(5)
H11_8 H 0.0815 0.4642 0.9951
C10_8 C 0.0192(10) 0.4833(10) 0.9228(5)
H12_4 H 0.0103 0.5543 0.9276
C12_8 C 0.0146(10) 0.3374(11) 0.8715(6)
C13_8 C 0.0609(10) 0.2860(11) 0.9131(6)
H14_8 H 0.0763 0.2170 0.9080
C1_8 C 0.7339(9) 0.3007(9) 0.6539(4)
H1_8 H 0.7143 0.2331 0.6573
C2_8 C 0.7742(9) 0.3494(10) 0.6989(5)
H2_8 H 0.7823 0.3139 0.7311
C3_8 C 0.8032(7) 0.4495(8) 0.6965(4)
C4_8 C 0.7932(8) 0.4935(8) 0.6466(4)
H3_4 H 0.8143 0.5599 0.6420
C5_8 C 0.7514(8) 0.4396(8) 0.6033(4)
H4_8 H 0.7456 0.4719 0.5701
C6_4 C 0.8456(8) 0.5083(9) 0.7447(4)
H5_4 H 0.8817 0.5608 0.7329
H6_4 H 0.8041 0.5446 0.7614
C7_8 C 0.8962(5) 0.4395(8) 0.7862(3)
H7_8 H 0.9353 0.3996 0.7691
H8_8 H 0.8599 0.3906 0.8003
C8_4 C 0.9430(7) 0.5025(8) 0.8313(4)
H9_4 H 0.9038 0.5465 0.8460
H10_4 H 0.9814 0.5482 0.8169
C11_8 C 0.9906(6) 0.4399(8) 0.8763(4)
H13_8 H 0.9997 0.3034 0.8392
C14_8 C 0.5027(5) 0.3284(6) 0.5665(3)
C15_4 C 0.4260(5) 0.3669(6) 0.5860(3)
C16_4 C 0.3847(5) 0.4562(6) 0.5633(3)
H15_4 H 0.4054 0.4927 0.5364
C17_4 C 0.3127(4) 0.4903(6) 0.5802(3)
C18_4 C 0.2823(6) 0.4364(8) 0.6215(4)
H16_4 H 0.2345 0.4595 0.6336
C19_4 C 0.3215(6) 0.3475(8) 0.6432(4)
H17_4 H 0.3004 0.3120 0.6703
C20_4 C 0.3931(6) 0.3131(7) 0.6273(4)
C21_8 C 0.2644(5) 0.5842(6) 0.5564(3)
N1_8 N 0.7213(4) 0.3448(6) 0.6066(3)
O1_8 O 0.5355(4) 0.2438(4) 0.5872(3)
O2_8 O 0.5347(4) 0.3779(5) 0.5330(3)
O5_4 O 0.4296(6) 0.2278(6) 0.6501(4)
H18_4 H 0.4722 0.2151 0.6379
H3_5 H 0.3143 0.9401 0.1420
C6_5 C 0.3456(8) 0.9917(9) 0.2447(4)
H5_5 H 0.3817 0.9392 0.2329
H6_5 H 0.3041 0.9554 0.2614
C8_5 C 0.4430(7) 0.9975(8) 0.3313(4)
H9_5 H 0.4038 0.9535 0.3460
H10_5 H 0.4814 0.9518 0.3169
H12_5 H 0.5103 0.9457 0.4276
C15_5 C 0.9260(5) 0.1331(6) 0.0860(3)
C16_5 C 0.8847(5) 0.0438(6) 0.0633(3)
H15_5 H 0.9054 0.0073 0.0364
C17_5 C 0.8127(4) 0.0097(6) 0.0802(3)
C18_5 C 0.7823(6) 0.0636(8) 0.1215(4)
H16_5 H 0.7345 0.0405 0.1336
C19_5 C 0.8215(6) 0.1525(8) 0.1432(4)
H17_5 H 0.8004 0.1880 0.1703
C20_5 C 0.8931(6) 0.1869(7) 0.1273(4)
O5_5 O 0.9296(6) 0.2722(6) 0.1501(4)
H18_5 H 0.9722 0.2849 0.1379
C15_6 C 0.0740(5) 0.1331(6) 0.4140(3)
C16_6 C 0.1153(5) 0.0438(6) 0.4367(3)
H15_6 H 0.0946 0.0073 0.4636
C17_6 C 0.1873(4) 0.0097(6) 0.4198(3)
C18_6 C 0.2177(6) 0.0636(8) 0.3785(4)
H16_6 H 0.2655 0.0405 0.3664
C19_6 C 0.1785(6) 0.1525(8) 0.3568(4)
H17_6 H 0.1996 0.1880 0.3297
C20_6 C 0.1069(6) 0.1869(7) 0.3727(4)
O5_6 O 0.0704(6) 0.2722(6) 0.3499(4)
H18_6 H 0.0278 0.2849 0.3621
H3_6 H 0.6857 0.9401 0.3580
C6_6 C 0.6544(8) 0.9917(9) 0.2553(4)
H5_6 H 0.6183 0.9392 0.2671
H6_6 H 0.6959 0.9554 0.2386
C8_6 C 0.5570(7) 0.9975(8) 0.1687(4)
H9_6 H 0.5962 0.9535 0.1540
H10_6 H 0.5186 0.9518 0.1831
H12_6 H 0.4897 0.9457 0.0724
C15_7 C 0.0740(5) 0.8669(6) 0.9140(3)
C16_7 C 0.1153(5) 0.9562(6) 0.9367(3)
H15_7 H 0.0946 0.9927 0.9636
C17_7 C 0.1873(4) 0.9903(6) 0.9198(3)
C18_7 C 0.2177(6) 0.9364(8) 0.8785(4)
H16_7 H 0.2655 0.9595 0.8664
C19_7 C 0.1785(6) 0.8475(8) 0.8568(4)
H17_7 H 0.1996 0.8120 0.8297
C20_7 C 0.1069(6) 0.8131(7) 0.8727(4)
O5_7 O 0.0704(6) 0.7278(6) 0.8499(4)
H18_7 H 0.0278 0.7151 0.8621
H3_7 H 0.6857 0.0599 0.8580
C6_7 C 0.6544(8) 0.0083(9) 0.7553(4)
H5_7 H 0.6183 0.0608 0.7671
H6_7 H 0.6959 0.0446 0.7386
C8_7 C 0.5570(7) 0.0025(8) 0.6687(4)
H9_7 H 0.5962 0.0465 0.6540
H10_7 H 0.5186 0.0482 0.6831
H12_7 H 0.4897 0.0543 0.5724
H3_8 H 0.3143 0.0599 0.6420
C6_8 C 0.3456(8) 0.0083(9) 0.7447(4)
H5_8 H 0.3817 0.0608 0.7329
H6_8 H 0.3041 0.0446 0.7614
C8_8 C 0.4430(7) 0.0025(8) 0.8313(4)
H9_8 H 0.4038 0.0465 0.8460
H10_8 H 0.4814 0.0482 0.8169
H12_8 H 0.5103 0.0543 0.9276
C15_8 C 0.9260(5) 0.8669(6) 0.5860(3)
C16_8 C 0.8847(5) 0.9562(6) 0.5633(3)
H15_8 H 0.9054 0.9927 0.5364
C17_8 C 0.8127(4) 0.9903(6) 0.5802(3)
C18_8 C 0.7823(6) 0.9364(8) 0.6215(4)
H16_8 H 0.7345 0.9595 0.6336
C19_8 C 0.8215(6) 0.8475(8) 0.6432(4)
H17_8 H 0.8004 0.8120 0.6703
C20_8 C 0.8931(6) 0.8131(7) 0.6273(4)
O5_8 O 0.9296(6) 0.7278(6) 0.6501(4)
H18_8 H 0.9722 0.7151 0.6379
loop_
_geom_bond_atom_site_label_1
_geom_bond_atom_site_label_2
_geom_bond_site_symmetry_1
_geom_bond_site_symmetry_2
C1 H1 1_555 1_555
C2 C1 1_555 1_555
H2 C2 1_555 1_555
C3 C2 1_555 1_555
C4 C3 1_555 1_555
C5 C4 1_555 1_555
H4 C5 1_555 1_555
H7 C7 1_555 1_555
H8 C7 1_555 1_555
C9 H11 1_555 1_555
C10 C9 1_555 1_555
C12 C11 1_555 1_555
H13 C12 1_555 1_555
C13 C12 1_555 1_555
H14 C13 1_555 1_555
Cd1 N1 1_555 1_555
N1 C1 1_555 1_555
N2 C9 1_555 1_555
O1 C14 1_555 1_555
O2 C14 1_555 1_555
Cd4 N2 1_555 1_555
O6 Cd1 1_555 1_555
C5 N1 1_555 1_555
C10 C11 1_555 1_555
C13 N2 1_555 1_555
Cd1 O1 1_555 1_555
Cd1 O2 1_555 1_555
O3 C21 1_555 1_555
O4 C21 1_555 1_555
Cd2 O3 1_555 1_555
O3_2 C21_2 1_555 1_555
O4_2 C21_2 1_555 1_555
Cd2_2 O3_2 1_555 1_555
Cd3_2 O4_2 1_555 1_555
C1_2 H1_2 1_555 1_555
C2_2 C1_2 1_555 1_555
H2_2 C2_2 1_555 1_555
C3_2 C2_2 1_555 1_555
C4_2 C3_2 1_555 1_555
C5_2 C4_2 1_555 1_555
H4_2 C5_2 1_555 1_555
H7_2 C7_2 1_555 1_555
H8_2 C7_2 1_555 1_555
C9_2 H11_2 1_555 1_555
C10_2 C9_2 1_555 1_555
C12_2 C11_2 1_555 1_555
H13_2 C12_2 1_555 1_555
C13_2 C12_2 1_555 1_555
H14_2 C13_2 1_555 1_555
Cd1_2 N1_2 1_555 1_555
N1_2 C1_2 1_555 1_555
N2_2 C9_2 1_555 1_555
O1_2 C14_2 1_555 1_555
O2_2 C14_2 1_555 1_555
N3_2 Cd1_2 1_555 1_555
O6_2 Cd1_2 1_555 1_555
O7_2 Cd1_2 1_555 1_555
C5_2 N1_2 1_555 1_555
C10_2 C11_2 1_555 1_555
C13_2 N2_2 1_555 1_555
Cd1_2 O1_2 1_555 1_555
Cd1_2 O2_2 1_555 1_555
C9_3 H11_3 1_555 1_555
C10_3 C9_3 1_555 1_555
H12 C10_3 1_555 1_555
C13_3 C12_3 1_555 1_555
H14_3 C13_3 1_555 1_555
N2_3 C9_3 1_555 1_555
Cd3_2 N2_3 1_555 1_555
C13_3 N2_3 1_555 1_555
C1_3 H1_3 1_555 1_555
C2_3 C1_3 1_555 1_555
H2_3 C2_3 1_555 1_555
C3_3 C2_3 1_555 1_555
C4_3 C3_3 1_555 1_555
H3 C4_3 1_555 1_555
C5_3 C4_3 1_555 1_555
H4_3 C5_3 1_555 1_555
C6 C3_3 1_555 1_555
H5 C6 1_555 1_555
H6 C6 1_555 1_555
C7_3 C6 1_555 1_555
H7_3 C7_3 1_555 1_555
H8_3 C7_3 1_555 1_555
C8 C7_3 1_555 1_555
H9 C8 1_555 1_555
H10 C8 1_555 1_555
C11_3 C8 1_555 1_555
C14_3 C15 1_555 1_555
C15 C16 1_555 1_555
C16 H15 1_555 1_555
C17 C16 1_555 1_555
C18 C17 1_555 1_555
H16 C18 1_555 1_555
C19 C18 1_555 1_555
H17 C19 1_555 1_555
C20 C15 1_555 1_555
C21_3 C17 1_555 1_555
Cd2 N1_3 1_555 1_555
N1_3 C1_3 1_555 1_555
O1_3 C14_3 1_555 1_555
O2_3 C14_3 1_555 1_555
O6 C21_3 1_555 1_555
O4_3 C21_3 1_555 1_555
O5 C20 1_555 1_555
H18 O5 1_555 1_555
C5_3 N1_3 1_555 1_555
C19 C20 1_555 1_555
Cd2 O1_3 1_555 1_555
Cd2 O2_3 1_555 1_555
C1_4 H1_4 1_555 1_555
C2_4 C1_4 1_555 1_555
H2_4 C2_4 1_555 1_555
C3_4 C2_4 1_555 1_555
C4_4 C3_4 1_555 1_555
H3_2 C4_4 1_555 1_555
C5_4 C4_4 1_555 1_555
H4_4 C5_4 1_555 1_555
C6_2 C3_4 1_555 1_555
H5_2 C6_2 1_555 1_555
H6_2 C6_2 1_555 1_555
C7_4 C6_2 1_555 1_555
H7_4 C7_4 1_555 1_555
H8_4 C7_4 1_555 1_555
C8_2 C7_4 1_555 1_555
H9_2 C8_2 1_555 1_555
H10_2 C8_2 1_555 1_555
C11_4 C8_2 1_555 1_555
C14_4 C15_2 1_555 1_555
C15_2 C16_2 1_555 1_555
C16_2 H15_2 1_555 1_555
C17_2 C16_2 1_555 1_555
C18_2 C17_2 1_555 1_555
H16_2 C18_2 1_555 1_555
C19_2 C18_2 1_555 1_555
H17_2 C19_2 1_555 1_555
C20_2 C15_2 1_555 1_555
C21_4 C17_2 1_555 1_555
Cd2_2 N1_4 1_555 1_555
N1_4 C1_4 1_555 1_555
O1_4 C14_4 1_555 1_555
O2_4 C14_4 1_555 1_555
O6_2 C21_4 1_555 1_555
O4_4 C21_4 1_555 1_555
O5_2 C20_2 1_555 1_555
H18_2 O5_2 1_555 1_555
Cd4 O4_4 1_555 1_555
N3_4 Cd2_2 1_555 1_555
O7_4 Cd2_2 1_555 1_555
C5_4 N1_4 1_555 1_555
C19_2 C20_2 1_555 1_555
Cd2_2 O1_4 1_555 1_555
Cd2_2 O2_4 1_555 1_555
C9_4 H11_4 1_555 1_555
C10_4 C9_4 1_555 1_555
H12_2 C10_4 1_555 1_555
C13_4 C12_4 1_555 1_555
H14_4 C13_4 1_555 1_555
N2_4 C9_4 1_555 1_555
C13_4 N2_4 1_555 1_555
O3_3 C21_5 1_555 1_555
O7 C21_5 1_555 1_555
Cd4_2 O3_3 1_555 1_555
C1_5 H1_5 1_555 1_555
C2_5 C1_5 1_555 1_555
H2_5 C2_5 1_555 1_555
C3_5 C2_5 1_555 1_555
C4_5 C3_5 1_555 1_555
C5_5 C4_5 1_555 1_555
H4_5 C5_5 1_555 1_555
H7_5 C7_5 1_555 1_555
H8_5 C7_5 1_555 1_555
C9_5 H11_5 1_555 1_555
C10_5 C9_5 1_555 1_555
C12_5 C11_5 1_555 1_555
H13_5 C12_5 1_555 1_555
C13_5 C12_5 1_555 1_555
H14_5 C13_5 1_555 1_555
Cd3 N1_5 1_555 1_555
N1_5 C1_5 1_555 1_555
N3_4 C9_5 1_555 1_555
O1_5 C14_5 1_555 1_555
O2_5 C14_5 1_555 1_555
O6_3 Cd3 1_555 1_555
C5_5 N1_5 1_555 1_555
C10_5 C11_5 1_555 1_555
C13_5 N3_4 1_555 1_555
Cd3 O1_5 1_555 1_555
Cd3 O2_5 1_555 1_555
C1_6 H1_6 1_555 1_555
C2_6 C1_6 1_555 1_555
H2_6 C2_6 1_555 1_555
C3_6 C2_6 1_555 1_555
C4_6 C3_6 1_555 1_555
C5_6 C4_6 1_555 1_555
H4_6 C5_6 1_555 1_555
H7_6 C7_6 1_555 1_555
H8_6 C7_6 1_555 1_555
C9_6 H11_6 1_555 1_555
C10_6 C9_6 1_555 1_555
C12_6 C11_6 1_555 1_555
H13_6 C12_6 1_555 1_555
C13_6 C12_6 1_555 1_555
H14_6 C13_6 1_555 1_555
Cd3_2 N1_6 1_555 1_555
N1_6 C1_6 1_555 1_555
N3_3 C9_6 1_555 1_555
O1_6 C14_6 1_555 1_555
O2_6 C14_6 1_555 1_555
O6_4 Cd3_2 1_555 1_555
C5_6 N1_6 1_555 1_555
C10_6 C11_6 1_555 1_555
C13_6 N3_3 1_555 1_555
Cd3_2 O1_6 1_555 1_555
Cd3_2 O2_6 1_555 1_555
O3_4 C21_6 1_555 1_555
O7_2 C21_6 1_555 1_555
Cd4 O3_4 1_555 1_555
C1_7 H1_7 1_555 1_555
C2_7 C1_7 1_555 1_555
H2_7 C2_7 1_555 1_555
C3_7 C2_7 1_555 1_555
C4_7 C3_7 1_555 1_555
H3_3 C4_7 1_555 1_555
C5_7 C4_7 1_555 1_555
H4_7 C5_7 1_555 1_555
C6_3 C3_7 1_555 1_555
H5_3 C6_3 1_555 1_555
H6_3 C6_3 1_555 1_555
C7_7 C6_3 1_555 1_555
H7_7 C7_7 1_555 1_555
H8_7 C7_7 1_555 1_555
C8_3 C7_7 1_555 1_555
H9_3 C8_3 1_555 1_555
H10_3 C8_3 1_555 1_555
C11_7 C8_3 1_555 1_555
C14_7 C15_3 1_555 1_555
C15_3 C16_3 1_555 1_555
C16_3 H15_3 1_555 1_555
C17_3 C16_3 1_555 1_555
C18_3 C17_3 1_555 1_555
H16_3 C18_3 1_555 1_555
C19_3 C18_3 1_555 1_555
H17_3 C19_3 1_555 1_555
C20_3 C15_3 1_555 1_555
C21_7 C17_3 1_555 1_555
Cd4_2 N1_7 1_555 1_555
N1_7 C1_7 1_555 1_555
O1_7 C14_7 1_555 1_555
O2_7 C14_7 1_555 1_555
O6_3 C21_7 1_555 1_555
O7_3 C21_7 1_555 1_555
O5_3 C20_3 1_555 1_555
H18_3 O5_3 1_555 1_555
C5_7 N1_7 1_555 1_555
C19_3 C20_3 1_555 1_555
Cd4_2 O1_7 1_555 1_555
Cd4_2 O2_7 1_555 1_555
C9_7 H11_7 1_555 1_555
C10_7 C9_7 1_555 1_555
H12_3 C10_7 1_555 1_555
C13_7 C12_7 1_555 1_555
H14_7 C13_7 1_555 1_555
N3_2 C9_7 1_555 1_555
C13_7 N3_2 1_555 1_555
C9_8 H11_8 1_555 1_555
C10_8 C9_8 1_555 1_555
H12_4 C10_8 1_555 1_555
C13_8 C12_8 1_555 1_555
H14_8 C13_8 1_555 1_555
N3 C9_8 1_555 1_555
C13_8 N3 1_555 1_555
C1_8 H1_8 1_555 1_555
C2_8 C1_8 1_555 1_555
H2_8 C2_8 1_555 1_555
C3_8 C2_8 1_555 1_555
C4_8 C3_8 1_555 1_555
H3_4 C4_8 1_555 1_555
C5_8 C4_8 1_555 1_555
H4_8 C5_8 1_555 1_555
C6_4 C3_8 1_555 1_555
H5_4 C6_4 1_555 1_555
H6_4 C6_4 1_555 1_555
C7_8 C6_4 1_555 1_555
H7_8 C7_8 1_555 1_555
H8_8 C7_8 1_555 1_555
C8_4 C7_8 1_555 1_555
H9_4 C8_4 1_555 1_555
H10_4 C8_4 1_555 1_555
C11_8 C8_4 1_555 1_555
C14_8 C15_4 1_555 1_555
C15_4 C16_4 1_555 1_555
C16_4 H15_4 1_555 1_555
C17_4 C16_4 1_555 1_555
C18_4 C17_4 1_555 1_555
H16_4 C18_4 1_555 1_555
C19_4 C18_4 1_555 1_555
H17_4 C19_4 1_555 1_555
C20_4 C15_4 1_555 1_555
C21_8 C17_4 1_555 1_555
Cd4 N1_8 1_555 1_555
N1_8 C1_8 1_555 1_555
O1_8 C14_8 1_555 1_555
O2_8 C14_8 1_555 1_555
O6_4 C21_8 1_555 1_555
O7_4 C21_8 1_555 1_555
O5_4 C20_4 1_555 1_555
H18_4 O5_4 1_555 1_555
C5_8 N1_8 1_555 1_555
C19_4 C20_4 1_555 1_555
Cd4 O1_8 1_555 1_555
Cd4 O2_8 1_555 1_555
H5_5 C6_5 1_555 1_555
H6_5 C6_5 1_555 1_555
H9_5 C8_5 1_555 1_555
H10_5 C8_5 1_555 1_555
C15_5 C16_5 1_555 1_555
C16_5 H15_5 1_555 1_555
C17_5 C16_5 1_555 1_555
C18_5 C17_5 1_555 1_555
H16_5 C18_5 1_555 1_555
C19_5 C18_5 1_555 1_555
H17_5 C19_5 1_555 1_555
C20_5 C15_5 1_555 1_555
O5_5 C20_5 1_555 1_555
H18_5 O5_5 1_555 1_555
C19_5 C20_5 1_555 1_555
C15_6 C16_6 1_555 1_555
C16_6 H15_6 1_555 1_555
C17_6 C16_6 1_555 1_555
C18_6 C17_6 1_555 1_555
H16_6 C18_6 1_555 1_555
C19_6 C18_6 1_555 1_555
H17_6 C19_6 1_555 1_555
C20_6 C15_6 1_555 1_555
O5_6 C20_6 1_555 1_555
H18_6 O5_6 1_555 1_555
C19_6 C20_6 1_555 1_555
H5_6 C6_6 1_555 1_555
H6_6 C6_6 1_555 1_555
H9_6 C8_6 1_555 1_555
H10_6 C8_6 1_555 1_555
C15_7 C16_7 1_555 1_555
C16_7 H15_7 1_555 1_555
C17_7 C16_7 1_555 1_555
C18_7 C17_7 1_555 1_555
H16_7 C18_7 1_555 1_555
C19_7 C18_7 1_555 1_555
H17_7 C19_7 1_555 1_555
C20_7 C15_7 1_555 1_555
O5_7 C20_7 1_555 1_555
H18_7 O5_7 1_555 1_555
C19_7 C20_7 1_555 1_555
H5_7 C6_7 1_555 1_555
H6_7 C6_7 1_555 1_555
H9_7 C8_7 1_555 1_555
H10_7 C8_7 1_555 1_555
H5_8 C6_8 1_555 1_555
H6_8 C6_8 1_555 1_555
H9_8 C8_8 1_555 1_555
H10_8 C8_8 1_555 1_555
C15_8 C16_8 1_555 1_555
C16_8 H15_8 1_555 1_555
C17_8 C16_8 1_555 1_555
C18_8 C17_8 1_555 1_555
H16_8 C18_8 1_555 1_555
C19_8 C18_8 1_555 1_555
H17_8 C19_8 1_555 1_555
C20_8 C15_8 1_555 1_555
O5_8 C20_8 1_555 1_555
H18_8 O5_8 1_555 1_555
C19_8 C20_8 1_555 1_555

#END
