
###############################################################################
#
# This file contains modified crystal structure data generated from the
# MOF subset of the Cambridge Structural Database (CSD) v543 
# hosted by the Cambridge Crystallographic Data Centre (CCDC).
#
# This work is licensed under the Creative Commons
# Attribution-NonCommercial-ShareAlike 4.0 International License.
# To view a copy of this license, visit
# http://creativecommons.org/licenses/by-nc-sa/4.0/
# or send a letter to
# Creative Commons, PO Box 1866, Mountain View, CA 94042, USA.
#
# CIF created using the CSD Python API on 29 September 2022
# The structure has been converted into the P1 space group
# The structure has a 3D framework
# The original CSD entry RAMQOP is in the monoclinic crystal system
# The framework has been calculated to contain at least 10.0% void space
# The void calculation uses a probe of radius 1.32A, grid spacing 0.4
# The framework is charged, counterions have been retained in the structure
#
###############################################################################

data_RAMQOP
_chemical_formula_moiety         '(C168 H176 Co12 N8 O69)n'
_symmetry_cell_setting           triclinic
_symmetry_space_group_name_H-M   'P 1'
_symmetry_Int_Tables_number      1
_space_group_name_Hall           'P 1'
loop_
_symmetry_equiv_pos_site_id
_symmetry_equiv_pos_as_xyz
1 x,y,z
_cell_length_a                   32.8455(2)
_cell_length_b                   9.70870(10)
_cell_length_c                   18.40350(10)
_cell_angle_alpha                90
_cell_angle_beta                 93.6060(10)
_cell_angle_gamma                90
_cell_volume                     5857.02
loop_
_atom_site_label
_atom_site_type_symbol
_atom_site_fract_x
_atom_site_fract_y
_atom_site_fract_z
O6 O 0.18322(12) 0.0063(4) 0.3968(2)
C9 C 0.22804(13) 0.1323(4) 0.4783(2)
C10 C 0.24610(14) 0.1422(5) 0.5485(2)
H5 H 0.2437 0.0696 0.5810
C11 C 0.23255(15) 0.2413(5) 0.4297(3)
H6 H 0.2210 0.2350 0.3824
C12 C 0.20361(13) 0.0094(4) 0.4556(3)
C14 C 0.03537(17) 0.0750(7) 0.4996(4)
H7 H 0.0593 0.1263 0.4992
O9 O 0.29639(9) 0.5923(3) 0.49768(17)
O10 O 0.31678(12) 0.4937(4) 0.6032(2)
C17 C 0.27196(13) 0.3677(4) 0.5217(2)
C18 C 0.25390(14) 0.3578(5) 0.4515(2)
H9 H 0.2563 0.4304 0.4190
C19 C 0.26745(15) 0.2587(5) 0.5703(3)
H10 H 0.2790 0.2650 0.6176
C20 C 0.29639(13) 0.4906(4) 0.5444(3)
Co6 Co 0.34734(2) 0.70353(7) 0.51655(3)
Co7 Co 0.2500 0.7500 0.5000
Co10 Co 0.2500 0.2500 0.0000
Co1 Co 0.15266(2) 0.79647(7) 0.48345(3)
O1 O 0.15305(10) 0.7020(4) 0.57938(19)
O2 O 0.21447(9) 0.6193(3) 0.55734(17)
O3 O 0.15836(10) 0.3256(4) 0.90007(18)
O4 O 0.22674(9) 0.3201(3) 0.90056(16)
C1 C 0.18643(13) 0.5591(5) 0.6680(2)
C2 C 0.15117(14) 0.5411(6) 0.7047(3)
H1 H 0.1264 0.5747 0.6850
C3 C 0.15316(14) 0.4724(6) 0.7713(3)
H2 H 0.1295 0.4590 0.7956
C4 C 0.19005(13) 0.4241(5) 0.8014(2)
C5 C 0.22540(14) 0.4439(6) 0.7648(3)
H3 H 0.2503 0.4128 0.7854
C6 C 0.22367(14) 0.5094(5) 0.6981(3)
H4 H 0.2473 0.5205 0.6733
C7 C 0.18475(13) 0.6316(5) 0.5962(2)
C8 C 0.19238(13) 0.3507(5) 0.8734(2)
O5 O 0.20361(9) 0.9077(3) 0.50232(17)
O7 O 0.10869(12) 0.9366(5) 0.4864(3)
O8 O 0.07821(15) 0.7376(5) 0.4722(3)
C13 C 0.03665(15) 0.9339(6) 0.4904(3)
C15 C 0.00140(18) 0.8597(7) 0.4905(4)
H8 H 0.0020 0.7648 0.4840
C16 C 0.07670(17) 0.8624(7) 0.4821(3)
Co5 Co 0.15266(2) 0.20353(7) 0.98345(3)
Co10_2 Co 0.2500 0.2500 1.0000
O17 O 0.28553(9) 0.8807(3) 0.44266(17)
O19 O 0.15836(10) 0.6744(4) 0.40007(18)
O20 O 0.27326(9) 0.8201(3) 0.59944(16)
O21 O 0.22674(9) 0.6799(3) 0.40056(16)
O11 O 0.89131(12) 0.0634(5) 0.5136(3)
O12 O 0.92179(15) 0.2624(5) 0.5278(3)
C21 C 0.96335(15) 0.0661(6) 0.5096(3)
C23 C 0.99860(18) 0.1403(7) 0.5095(4)
H12 H 0.9980 0.2352 0.5160
C24 C 0.92330(17) 0.1376(7) 0.5179(3)
Co3 Co 0.84734(2) 0.20353(7) 0.51655(3)
O13 O 0.84695(10) 0.2980(4) 0.42062(19)
O14 O 0.78553(9) 0.3807(3) 0.44266(17)
O15 O 0.84164(10) 0.6744(4) 0.09993(18)
O16 O 0.77326(9) 0.6799(3) 0.09944(16)
C25 C 0.81357(13) 0.4409(5) 0.3320(2)
C26 C 0.84883(14) 0.4589(6) 0.2953(3)
H13 H 0.8736 0.4253 0.3150
C27 C 0.84684(14) 0.5276(6) 0.2287(3)
H14 H 0.8705 0.5410 0.2044
C28 C 0.80995(13) 0.5759(5) 0.1986(2)
C29 C 0.77460(14) 0.5561(6) 0.2352(3)
H15 H 0.7497 0.5872 0.2146
C30 C 0.77633(14) 0.4906(5) 0.3019(3)
H16 H 0.7527 0.4795 0.3267
C31 C 0.81525(13) 0.3684(5) 0.4038(2)
C32 C 0.80762(13) 0.6493(5) 0.1266(2)
Co4 Co 0.84734(2) 0.79647(7) 0.01655(3)
Co8 Co 0.7500 0.7500 0.0000
Co9 Co 0.7500 0.2500 0.5000
O18 O 0.84164(10) 0.3256(4) 0.59993(18)
O22 O 0.79639(9) 0.0923(3) 0.49768(17)
Co8_2 Co 0.7500 0.7500 1.0000
C22 C 0.96463(17) 0.9250(7) 0.5004(4)
H11 H 0.9407 0.8737 0.5008
O13_2 O 0.15305(10) 0.2980(4) 0.07938(19)
O14_2 O 0.21447(9) 0.3807(3) 0.05734(17)
C25_2 C 0.18643(13) 0.4409(5) 0.1680(2)
C26_2 C 0.15117(14) 0.4589(6) 0.2047(3)
H13_2 H 0.1264 0.4253 0.1850
C27_2 C 0.15316(14) 0.5276(6) 0.2713(3)
H14_2 H 0.1295 0.5410 0.2956
C28_2 C 0.19005(13) 0.5759(5) 0.3014(2)
C29_2 C 0.22540(14) 0.5561(6) 0.2648(3)
H15_2 H 0.2503 0.5872 0.2854
C30_2 C 0.22367(14) 0.4906(5) 0.1981(3)
H16_2 H 0.2473 0.4795 0.1733
C31_2 C 0.18475(13) 0.3684(5) 0.0962(2)
C32_2 C 0.19238(13) 0.6493(5) 0.3734(2)
O22_2 O 0.20361(9) 0.0923(3) 0.00232(17)
O11_2 O 0.10869(12) 0.0634(5) 0.9864(3)
O12_2 O 0.07821(15) 0.2624(5) 0.9722(3)
C21_2 C 0.03665(15) 0.0661(6) 0.9904(3)
C23_2 C 0.00140(18) 0.1403(7) 0.9905(4)
H12_2 H 0.0020 0.2352 0.9840
C24_2 C 0.07670(17) 0.1376(7) 0.9821(3)
C22_2 C 0.03537(17) 0.9250(7) 0.9996(4)
H11_2 H 0.0593 0.8737 0.9992
O6_2 O 0.81678(12) 0.0063(4) 0.1032(2)
C9_2 C 0.77196(13) 0.1323(4) 0.0217(2)
C11_2 C 0.76745(15) 0.2413(5) 0.0703(3)
H6_2 H 0.7790 0.2350 0.1176
C12_2 C 0.79639(13) 0.0094(4) 0.0444(3)
C14_2 C 0.96463(17) 0.0750(7) 0.0004(4)
H7_2 H 0.9407 0.1263 0.0008
O9_2 O 0.70361(9) 0.5923(3) 0.00232(17)
C18_2 C 0.74610(14) 0.3578(5) 0.0485(2)
H9_2 H 0.7437 0.4304 0.0810
C10_2 C 0.75390(14) 0.1422(5) 0.9515(2)
H5_2 H 0.7563 0.0696 0.9190
O10_2 O 0.68322(12) 0.4937(4) 0.8968(2)
C17_2 C 0.72804(13) 0.3677(4) 0.9783(2)
C19_2 C 0.73255(15) 0.2587(5) 0.9297(3)
H10_2 H 0.7210 0.2650 0.8824
C20_2 C 0.70361(13) 0.4906(4) 0.9556(3)
Co6_2 Co 0.65266(2) 0.70353(7) 0.98345(3)
O7_2 O 0.89131(12) 0.9366(5) 0.0136(3)
O8_2 O 0.92179(15) 0.7376(5) 0.0278(3)
C13_2 C 0.96335(15) 0.9339(6) 0.0096(3)
C15_2 C 0.99860(18) 0.8597(7) 0.0095(4)
H8_2 H 0.9980 0.7648 0.0160
C16_2 C 0.92330(17) 0.8624(7) 0.0179(3)
O17_2 O 0.71447(9) 0.8807(3) 0.05734(17)
O1_2 O 0.84695(10) 0.7020(4) 0.92062(19)
O2_2 O 0.78553(9) 0.6193(3) 0.94266(17)
O4_2 O 0.77326(9) 0.3201(3) 0.59944(16)
C1_2 C 0.81357(13) 0.5591(5) 0.8320(2)
C2_2 C 0.84883(14) 0.5411(6) 0.7953(3)
H1_2 H 0.8736 0.5747 0.8150
C3_2 C 0.84684(14) 0.4724(6) 0.7287(3)
H2_2 H 0.8705 0.4590 0.7044
C4_2 C 0.80995(13) 0.4241(5) 0.6986(2)
C5_2 C 0.77460(14) 0.4439(6) 0.7352(3)
H3_2 H 0.7497 0.4128 0.7146
C6_2 C 0.77633(14) 0.5094(5) 0.8019(3)
H4_2 H 0.7527 0.5205 0.8267
C7_2 C 0.81525(13) 0.6316(5) 0.9038(2)
C8_2 C 0.80762(13) 0.3507(5) 0.6266(2)
O5_2 O 0.79639(9) 0.9077(3) 0.99768(17)
O20_2 O 0.72674(9) 0.8201(3) 0.90056(16)
O15_2 O 0.34164(10) 0.1744(4) 0.09993(18)
O16_2 O 0.27326(9) 0.1799(3) 0.09944(16)
C27_3 C 0.34684(14) 0.0276(6) 0.2287(3)
H14_3 H 0.3705 0.0410 0.2044
C28_3 C 0.30995(13) 0.0759(5) 0.1986(2)
C29_3 C 0.27460(14) 0.0561(6) 0.2352(3)
H15_3 H 0.2497 0.0872 0.2146
C32_3 C 0.30762(13) 0.1493(5) 0.1266(2)
Co4_2 Co 0.34734(2) 0.29647(7) 0.01655(3)
Co1_2 Co 0.65266(2) 0.29647(7) 0.48345(3)
O1_3 O 0.65305(10) 0.2020(4) 0.57938(19)
O2_3 O 0.71447(9) 0.1193(3) 0.55734(17)
C1_3 C 0.68643(13) 0.0591(5) 0.6680(2)
C2_3 C 0.65117(14) 0.0411(6) 0.7047(3)
H1_3 H 0.6264 0.0747 0.6850
C6_3 C 0.72367(14) 0.0094(5) 0.6981(3)
H4_3 H 0.7473 0.0205 0.6733
C7_3 C 0.68475(13) 0.1316(5) 0.5962(2)
O5_3 O 0.70361(9) 0.4077(3) 0.50232(17)
O6_3 O 0.68322(12) 0.5063(4) 0.3968(2)
C9_3 C 0.72804(13) 0.6323(4) 0.4783(2)
C10_3 C 0.74610(14) 0.6422(5) 0.5485(2)
H5_3 H 0.7437 0.5696 0.5810
C11_3 C 0.73255(15) 0.7413(5) 0.4297(3)
H6_3 H 0.7210 0.7350 0.3824
C12_3 C 0.70361(13) 0.5094(4) 0.4556(3)
O7_3 O 0.60869(12) 0.4366(5) 0.4864(3)
O8_3 O 0.57821(15) 0.2376(5) 0.4722(3)
C13_3 C 0.53665(15) 0.4339(6) 0.4904(3)
C14_3 C 0.53537(17) 0.5750(7) 0.4996(4)
H7_3 H 0.5593 0.6263 0.4992
C15_3 C 0.50140(18) 0.3597(7) 0.4905(4)
H8_3 H 0.5020 0.2648 0.4840
C16_3 C 0.57670(17) 0.3624(7) 0.4821(3)
O10_3 O 0.81678(12) 0.9937(4) 0.6032(2)
C17_3 C 0.77196(13) 0.8677(4) 0.5217(2)
C18_3 C 0.75390(14) 0.8578(5) 0.4515(2)
H9_3 H 0.7563 0.9304 0.4190
C19_3 C 0.76745(15) 0.7587(5) 0.5703(3)
H10_3 H 0.7790 0.7650 0.6176
C20_3 C 0.79639(13) 0.9906(4) 0.5444(3)
O11_3 O 0.39131(12) 0.5634(5) 0.5136(3)
O12_3 O 0.42179(15) 0.7624(5) 0.5278(3)
C21_3 C 0.46335(15) 0.5661(6) 0.5096(3)
C22_3 C 0.46463(17) 0.4250(7) 0.5004(4)
H11_3 H 0.4407 0.3737 0.5008
C23_3 C 0.49860(18) 0.6403(7) 0.5095(4)
H12_3 H 0.4980 0.7352 0.5160
C24_3 C 0.42330(17) 0.6376(7) 0.5179(3)
O13_3 O 0.34695(10) 0.7980(4) 0.42062(19)
C25_3 C 0.31357(13) 0.9409(5) 0.3320(2)
C26_3 C 0.34883(14) 0.9589(6) 0.2953(3)
H13_3 H 0.3736 0.9253 0.3150
C30_3 C 0.27633(14) 0.9906(5) 0.3019(3)
H16_3 H 0.2527 0.9795 0.3267
C31_3 C 0.31525(13) 0.8684(5) 0.4038(2)
O18_2 O 0.34164(10) 0.8256(4) 0.59993(18)
O19_2 O 0.65836(10) 0.1744(4) 0.40007(18)
O21_2 O 0.72674(9) 0.1799(3) 0.40056(16)
O3_2 O 0.65836(10) 0.8256(4) 0.90007(18)
C3_3 C 0.65316(14) 0.9724(6) 0.7713(3)
H2_3 H 0.6295 0.9590 0.7956
C4_3 C 0.69005(13) 0.9241(5) 0.8014(2)
C5_3 C 0.72540(14) 0.9439(6) 0.7648(3)
H3_3 H 0.7503 0.9128 0.7854
C8_3 C 0.69238(13) 0.8507(5) 0.8734(2)
C27_4 C 0.65316(14) 0.0276(6) 0.2713(3)
H14_4 H 0.6295 0.0410 0.2956
C28_4 C 0.69005(13) 0.0759(5) 0.3014(2)
C29_4 C 0.72540(14) 0.0561(6) 0.2648(3)
H15_4 H 0.7503 0.0872 0.2854
C32_4 C 0.69238(13) 0.1493(5) 0.3734(2)
O6_4 O 0.31678(12) 0.5063(4) 0.1032(2)
C9_4 C 0.27196(13) 0.6323(4) 0.0217(2)
C11_4 C 0.26745(15) 0.7413(5) 0.0703(3)
H6_4 H 0.2790 0.7350 0.1176
C12_4 C 0.29639(13) 0.5094(4) 0.0444(3)
O7_4 O 0.39131(12) 0.4366(5) 0.0136(3)
O8_4 O 0.42179(15) 0.2376(5) 0.0278(3)
C13_4 C 0.46335(15) 0.4339(6) 0.0096(3)
C14_4 C 0.46463(17) 0.5750(7) 0.0004(4)
H7_4 H 0.4407 0.6263 0.0008
C15_4 C 0.49860(18) 0.3597(7) 0.0095(4)
H8_4 H 0.4980 0.2648 0.0160
C16_4 C 0.42330(17) 0.3624(7) 0.0179(3)
C18_4 C 0.24610(14) 0.8578(5) 0.0485(2)
H9_4 H 0.2437 0.9304 0.0810
O13_4 O 0.65305(10) 0.7980(4) 0.07938(19)
C25_4 C 0.68643(13) 0.9409(5) 0.1680(2)
C26_4 C 0.65117(14) 0.9589(6) 0.2047(3)
H13_4 H 0.6264 0.9253 0.1850
C30_4 C 0.72367(14) 0.9906(5) 0.1981(3)
H16_4 H 0.7473 0.9795 0.1733
C31_4 C 0.68475(13) 0.8684(5) 0.0962(2)
O1_4 O 0.34695(10) 0.2020(4) 0.92062(19)
O2_4 O 0.28553(9) 0.1193(3) 0.94266(17)
C1_4 C 0.31357(13) 0.0591(5) 0.8320(2)
C2_4 C 0.34883(14) 0.0411(6) 0.7953(3)
H1_4 H 0.3736 0.0747 0.8150
C6_4 C 0.27633(14) 0.0094(5) 0.8019(3)
H4_4 H 0.2527 0.0205 0.8267
C7_4 C 0.31525(13) 0.1316(5) 0.9038(2)
O5_4 O 0.29639(9) 0.4077(3) 0.99768(17)
C10_4 C 0.25390(14) 0.6422(5) 0.9515(2)
H5_4 H 0.2563 0.5696 0.9190
O10_4 O 0.18322(12) 0.9937(4) 0.8968(2)
C17_4 C 0.22804(13) 0.8677(4) 0.9783(2)
C19_4 C 0.23255(15) 0.7587(5) 0.9297(3)
H10_4 H 0.2210 0.7650 0.8824
C20_4 C 0.20361(13) 0.9906(4) 0.9556(3)
O11_4 O 0.60869(12) 0.5634(5) 0.9864(3)
O12_4 O 0.57821(15) 0.7624(5) 0.9722(3)
C21_4 C 0.53665(15) 0.5661(6) 0.9904(3)
C22_4 C 0.53537(17) 0.4250(7) 0.9996(4)
H11_4 H 0.5593 0.3737 0.9992
C23_4 C 0.50140(18) 0.6403(7) 0.9905(4)
H12_4 H 0.5020 0.7352 0.9840
C24_4 C 0.57670(17) 0.6376(7) 0.9821(3)
C3_4 C 0.34684(14) 0.9724(6) 0.7287(3)
H2_4 H 0.3705 0.9590 0.7044
C4_4 C 0.30995(13) 0.9241(5) 0.6986(2)
C5_4 C 0.27460(14) 0.9439(6) 0.7352(3)
H3_4 H 0.2497 0.9128 0.7146
C8_4 C 0.30762(13) 0.8507(5) 0.6266(2)
N1 N 0.1127(3) 0.0124(12) 0.2361(6)
C34 C 0.0844(4) 0.0418(17) 0.1749(8)
H19 H 0.0571 0.0247 0.1881
H20 H 0.0870 0.1366 0.1610
C35 C 0.1536(4) 0.035(2) 0.2209(10)
H22 H 0.1556 0.1201 0.1947
H23 H 0.1701 0.0401 0.2657
C36 C 0.1034(6) 0.1193(19) 0.2990(11)
H25 H 0.0757 0.1086 0.3118
H26 H 0.1215 0.1021 0.3410
H27 H 0.1074 0.2116 0.2820
C33 C 0.1054(5) 0.8880(15) 0.2752(8)
H17 H 0.1198 0.8147 0.2517
H18 H 0.1185 0.8987 0.3236
H21 H 0.0904 0.9838 0.1347
H24 H 0.1628 0.9607 0.1918
O24 O 0.0349(7) 0.791(3) 0.2263(13)
H28 H 0.0121 0.7906 0.2419
C37 C 0.0651(7) 0.840(3) 0.2840(16)
H29 H 0.0516 0.9144 0.3083
H30 H 0.0680 0.7656 0.3190
N1_2 N 0.8873(3) 0.0124(12) 0.2639(6)
C34_2 C 0.9156(4) 0.0418(17) 0.3251(8)
H19_2 H 0.9429 0.0247 0.3119
H20_2 H 0.9130 0.1366 0.3390
C35_2 C 0.8464(4) 0.035(2) 0.2791(10)
H22_2 H 0.8444 0.1201 0.3053
H23_2 H 0.8299 0.0401 0.2343
C36_2 C 0.8966(6) 0.1193(19) 0.2010(11)
H25_2 H 0.9243 0.1086 0.1882
H26_2 H 0.8785 0.1021 0.1590
H27_2 H 0.8926 0.2116 0.2180
C33_2 C 0.8946(5) 0.8880(15) 0.2248(8)
H17_2 H 0.8802 0.8147 0.2483
H18_2 H 0.8815 0.8987 0.1764
H21_2 H 0.9096 0.9838 0.3653
H24_2 H 0.8372 0.9607 0.3082
O24_2 O 0.9651(7) 0.791(3) 0.2737(13)
H28_2 H 0.9879 0.7906 0.2581
C37_2 C 0.9349(7) 0.840(3) 0.2160(16)
H29_2 H 0.9484 0.9144 0.1917
H30_2 H 0.9320 0.7656 0.1810
N1_3 N 0.6127(3) 0.5124(12) 0.2361(6)
C33_3 C 0.6054(5) 0.3880(15) 0.2752(8)
H17_3 H 0.6198 0.3147 0.2517
H18_3 H 0.6185 0.3987 0.3236
C34_3 C 0.5844(4) 0.5418(17) 0.1749(8)
H19_3 H 0.5571 0.5247 0.1881
H20_3 H 0.5870 0.6366 0.1610
H21_3 H 0.5904 0.4838 0.1347
C35_3 C 0.6536(4) 0.535(2) 0.2209(10)
H22_3 H 0.6556 0.6201 0.1947
H23_3 H 0.6701 0.5401 0.2657
H24_3 H 0.6628 0.4607 0.1918
C36_3 C 0.6034(6) 0.6193(19) 0.2990(11)
H25_3 H 0.5757 0.6086 0.3118
H26_3 H 0.6215 0.6021 0.3410
H27_3 H 0.6074 0.7116 0.2820
O24_3 O 0.5349(7) 0.291(3) 0.2263(13)
H28_3 H 0.5121 0.2906 0.2419
C37_3 C 0.5651(7) 0.340(3) 0.2840(16)
H29_3 H 0.5516 0.4144 0.3083
H30_3 H 0.5680 0.2656 0.3190
N1_4 N 0.3873(3) 0.5124(12) 0.2639(6)
C33_4 C 0.3946(5) 0.3880(15) 0.2248(8)
H17_4 H 0.3802 0.3147 0.2483
H18_4 H 0.3815 0.3987 0.1764
C34_4 C 0.4156(4) 0.5418(17) 0.3251(8)
H19_4 H 0.4429 0.5247 0.3119
H20_4 H 0.4130 0.6366 0.3390
H21_4 H 0.4096 0.4838 0.3653
C35_4 C 0.3464(4) 0.535(2) 0.2791(10)
H22_4 H 0.3444 0.6201 0.3053
H23_4 H 0.3299 0.5401 0.2343
H24_4 H 0.3372 0.4607 0.3082
C36_4 C 0.3966(6) 0.6193(19) 0.2010(11)
H25_4 H 0.4243 0.6086 0.1882
H26_4 H 0.3785 0.6021 0.1590
H27_4 H 0.3926 0.7116 0.2180
O24_4 O 0.4651(7) 0.291(3) 0.2737(13)
H28_4 H 0.4879 0.2906 0.2581
C37_4 C 0.4349(7) 0.340(3) 0.2160(16)
H29_4 H 0.4484 0.4144 0.1917
H30_4 H 0.4320 0.2656 0.1810
C33_5 C 0.8946(5) 0.1120(15) 0.7248(8)
H17_5 H 0.8802 0.1853 0.7483
H18_5 H 0.8815 0.1013 0.6764
H21_5 H 0.9096 0.0162 0.8653
H24_5 H 0.8372 0.0393 0.8082
O24_5 O 0.9651(7) 0.209(3) 0.7737(13)
H28_5 H 0.9879 0.2094 0.7581
C37_5 C 0.9349(7) 0.160(3) 0.7160(16)
H29_5 H 0.9484 0.0856 0.6917
H30_5 H 0.9320 0.2344 0.6810
N1_5 N 0.8873(3) 0.9876(12) 0.7639(6)
C34_5 C 0.9156(4) 0.9582(17) 0.8251(8)
H19_5 H 0.9429 0.9753 0.8119
H20_5 H 0.9130 0.8634 0.8390
C35_5 C 0.8464(4) 0.965(2) 0.7791(10)
H22_5 H 0.8444 0.8799 0.8053
H23_5 H 0.8299 0.9599 0.7343
C36_5 C 0.8966(6) 0.8807(19) 0.7010(11)
H25_5 H 0.9243 0.8914 0.6882
H26_5 H 0.8785 0.8979 0.6590
H27_5 H 0.8926 0.7884 0.7180
C33_6 C 0.1054(5) 0.1120(15) 0.7752(8)
H17_6 H 0.1198 0.1853 0.7517
H18_6 H 0.1185 0.1013 0.8236
H21_6 H 0.0904 0.0162 0.6347
H24_6 H 0.1628 0.0393 0.6918
O24_6 O 0.0349(7) 0.209(3) 0.7263(13)
H28_6 H 0.0121 0.2094 0.7419
C37_6 C 0.0651(7) 0.160(3) 0.7840(16)
H29_6 H 0.0516 0.0856 0.8083
H30_6 H 0.0680 0.2344 0.8190
N1_6 N 0.1127(3) 0.9876(12) 0.7361(6)
C34_6 C 0.0844(4) 0.9582(17) 0.6749(8)
H19_6 H 0.0571 0.9753 0.6881
H20_6 H 0.0870 0.8634 0.6610
C35_6 C 0.1536(4) 0.965(2) 0.7209(10)
H22_6 H 0.1556 0.8799 0.6947
H23_6 H 0.1701 0.9599 0.7657
C36_6 C 0.1034(6) 0.8807(19) 0.7990(11)
H25_6 H 0.0757 0.8914 0.8118
H26_6 H 0.1215 0.8979 0.8410
H27_6 H 0.1074 0.7884 0.7820
N1_7 N 0.3873(3) 0.4876(12) 0.7639(6)
C33_7 C 0.3946(5) 0.6120(15) 0.7248(8)
H17_7 H 0.3802 0.6853 0.7483
H18_7 H 0.3815 0.6013 0.6764
C34_7 C 0.4156(4) 0.4582(17) 0.8251(8)
H19_7 H 0.4429 0.4753 0.8119
H20_7 H 0.4130 0.3634 0.8390
H21_7 H 0.4096 0.5162 0.8653
C35_7 C 0.3464(4) 0.465(2) 0.7791(10)
H22_7 H 0.3444 0.3799 0.8053
H23_7 H 0.3299 0.4599 0.7343
H24_7 H 0.3372 0.5393 0.8082
C36_7 C 0.3966(6) 0.3807(19) 0.7010(11)
H25_7 H 0.4243 0.3914 0.6882
H26_7 H 0.3785 0.3979 0.6590
H27_7 H 0.3926 0.2884 0.7180
O24_7 O 0.4651(7) 0.709(3) 0.7737(13)
H28_7 H 0.4879 0.7094 0.7581
C37_7 C 0.4349(7) 0.660(3) 0.7160(16)
H29_7 H 0.4484 0.5856 0.6917
H30_7 H 0.4320 0.7344 0.6810
N1_8 N 0.6127(3) 0.4876(12) 0.7361(6)
C33_8 C 0.6054(5) 0.6120(15) 0.7752(8)
H17_8 H 0.6198 0.6853 0.7517
H18_8 H 0.6185 0.6013 0.8236
C34_8 C 0.5844(4) 0.4582(17) 0.6749(8)
H19_8 H 0.5571 0.4753 0.6881
H20_8 H 0.5870 0.3634 0.6610
H21_8 H 0.5904 0.5162 0.6347
C35_8 C 0.6536(4) 0.465(2) 0.7209(10)
H22_8 H 0.6556 0.3799 0.6947
H23_8 H 0.6701 0.4599 0.7657
H24_8 H 0.6628 0.5393 0.6918
C36_8 C 0.6034(6) 0.3807(19) 0.7990(11)
H25_8 H 0.5757 0.3914 0.8118
H26_8 H 0.6215 0.3979 0.8410
H27_8 H 0.6074 0.2884 0.7820
O24_8 O 0.5349(7) 0.709(3) 0.7263(13)
H28_8 H 0.5121 0.7094 0.7419
C37_8 C 0.5651(7) 0.660(3) 0.7840(16)
H29_8 H 0.5516 0.5856 0.8083
H30_8 H 0.5680 0.7344 0.8190
loop_
_geom_bond_atom_site_label_1
_geom_bond_atom_site_label_2
_geom_bond_site_symmetry_1
_geom_bond_site_symmetry_2
O6 C12 1_555 1_555
C9 C10 1_555 1_555
C10 H5 1_555 1_555
C11 C9 1_555 1_555
H6 C11 1_555 1_555
C14 H7 1_555 1_555
O9 C20 1_555 1_555
O10 C20 1_555 1_555
C17 C18 1_555 1_555
C18 C11 1_555 1_555
H9 C18 1_555 1_555
C19 C10 1_555 1_555
H10 C19 1_555 1_555
C20 C17 1_555 1_555
Co6 O9 1_555 1_555
Co7 O9 1_555 1_555
C9 C12 1_555 1_555
C17 C19 1_555 1_555
Co1 O1 1_555 1_555
Co7 O2 1_555 1_555
O1 C7 1_555 1_555
O2 C7 1_555 1_555
O3 C8 1_555 1_555
O4 C8 1_555 1_555
C1 C2 1_555 1_555
C2 H1 1_555 1_555
C3 C2 1_555 1_555
H2 C3 1_555 1_555
C4 C3 1_555 1_555
C5 C4 1_555 1_555
H3 C5 1_555 1_555
C6 C1 1_555 1_555
H4 C6 1_555 1_555
C7 C1 1_555 1_555
C8 C4 1_555 1_555
O5 Co1 1_555 1_555
O7 Co1 1_555 1_555
O8 C16 1_555 1_555
C15 C13 1_555 1_555
H8 C15 1_555 1_555
C16 O7 1_555 1_555
Co5 O3 1_555 1_555
Co10_2 O4 1_555 1_555
O17 Co7 1_555 1_555
O19 Co1 1_555 1_555
O20 Co7 1_555 1_555
O21 Co7 1_555 1_555
Co7 O5 1_555 1_555
C5 C6 1_555 1_555
C13 C16 1_555 1_555
O11 C24 1_555 1_555
O12 C24 1_555 1_555
H12 C23 1_555 1_555
C24 C21 1_555 1_555
Co3 O11 1_555 1_555
O13 Co3 1_555 1_555
O14 C31 1_555 1_555
O15 C32 1_555 1_555
O16 C32 1_555 1_555
C25 C26 1_555 1_555
C26 H13 1_555 1_555
C27 C26 1_555 1_555
H14 C27 1_555 1_555
C28 C27 1_555 1_555
C29 C28 1_555 1_555
H15 C29 1_555 1_555
C30 C25 1_555 1_555
H16 C30 1_555 1_555
C31 O13 1_555 1_555
C32 C28 1_555 1_555
Co4 O15 1_555 1_555
Co8 O16 1_555 1_555
Co9 O14 1_555 1_555
O18 Co3 1_555 1_555
O22 Co3 1_555 1_555
C21 C23 1_555 1_555
C25 C31 1_555 1_555
C29 C30 1_555 1_555
Co9 O22 1_555 1_555
H11 C22 1_555 1_555
O14_2 C31_2 1_555 1_555
O19 C32_2 1_555 1_555
O21 C32_2 1_555 1_555
C25_2 C26_2 1_555 1_555
C26_2 H13_2 1_555 1_555
C27_2 C26_2 1_555 1_555
H14_2 C27_2 1_555 1_555
C28_2 C27_2 1_555 1_555
C29_2 C28_2 1_555 1_555
H15_2 C29_2 1_555 1_555
C30_2 C25_2 1_555 1_555
H16_2 C30_2 1_555 1_555
C31_2 O13_2 1_555 1_555
C32_2 C28_2 1_555 1_555
Co10 O14_2 1_555 1_555
C25_2 C31_2 1_555 1_555
C29_2 C30_2 1_555 1_555
Co10 O22_2 1_555 1_555
O11_2 C24_2 1_555 1_555
O12_2 C24_2 1_555 1_555
H12_2 C23_2 1_555 1_555
C24_2 C21_2 1_555 1_555
Co5 O11_2 1_555 1_555
C21_2 C23_2 1_555 1_555
H11_2 C22_2 1_555 1_555
O6_2 C12_2 1_555 1_555
C11_2 C9_2 1_555 1_555
H6_2 C11_2 1_555 1_555
C14_2 H7_2 1_555 1_555
C18_2 C11_2 1_555 1_555
H9_2 C18_2 1_555 1_555
Co8 O9_2 1_555 1_555
C9_2 C12_2 1_555 1_555
C10_2 H5_2 1_555 1_555
O10_2 C20_2 1_555 1_555
C19_2 C10_2 1_555 1_555
H10_2 C19_2 1_555 1_555
C20_2 C17_2 1_555 1_555
C17_2 C19_2 1_555 1_555
O7_2 Co4 1_555 1_555
O8_2 C16_2 1_555 1_555
C15_2 C13_2 1_555 1_555
H8_2 C15_2 1_555 1_555
C16_2 O7_2 1_555 1_555
O17_2 Co8 1_555 1_555
C13_2 C16_2 1_555 1_555
Co8_2 O2_2 1_555 1_555
O1_2 C7_2 1_555 1_555
O2_2 C7_2 1_555 1_555
O18 C8_2 1_555 1_555
O4_2 C8_2 1_555 1_555
C1_2 C2_2 1_555 1_555
C2_2 H1_2 1_555 1_555
C3_2 C2_2 1_555 1_555
H2_2 C3_2 1_555 1_555
C4_2 C3_2 1_555 1_555
C5_2 C4_2 1_555 1_555
H3_2 C5_2 1_555 1_555
C6_2 C1_2 1_555 1_555
H4_2 C6_2 1_555 1_555
C7_2 C1_2 1_555 1_555
C8_2 C4_2 1_555 1_555
Co9 O4_2 1_555 1_555
O20_2 Co8_2 1_555 1_555
Co8_2 O5_2 1_555 1_555
C5_2 C6_2 1_555 1_555
O15_2 C32_3 1_555 1_555
O16_2 C32_3 1_555 1_555
H14_3 C27_3 1_555 1_555
C28_3 C27_3 1_555 1_555
C29_3 C28_3 1_555 1_555
H15_3 C29_3 1_555 1_555
C32_3 C28_3 1_555 1_555
Co4_2 O15_2 1_555 1_555
Co10 O16_2 1_555 1_555
Co1_2 O1_3 1_555 1_555
Co9 O2_3 1_555 1_555
O1_3 C7_3 1_555 1_555
O2_3 C7_3 1_555 1_555
C1_3 C2_3 1_555 1_555
C2_3 H1_3 1_555 1_555
C6_3 C1_3 1_555 1_555
H4_3 C6_3 1_555 1_555
C7_3 C1_3 1_555 1_555
O5_3 Co1_2 1_555 1_555
O6_3 C12_3 1_555 1_555
C9_3 C10_3 1_555 1_555
C10_3 H5_3 1_555 1_555
C11_3 C9_3 1_555 1_555
H6_3 C11_3 1_555 1_555
C12_3 O5_3 1_555 1_555
O7_3 Co1_2 1_555 1_555
O8_3 C16_3 1_555 1_555
C13_3 C14_3 1_555 1_555
C14_3 H7_3 1_555 1_555
C15_3 C13_3 1_555 1_555
H8_3 C15_3 1_555 1_555
C16_3 O7_3 1_555 1_555
O10_3 C20_3 1_555 1_555
C17_3 C18_3 1_555 1_555
C18_3 C11_3 1_555 1_555
H9_3 C18_3 1_555 1_555
C19_3 C10_3 1_555 1_555
H10_3 C19_3 1_555 1_555
C20_3 C17_3 1_555 1_555
O11_3 C24_3 1_555 1_555
O12_3 C24_3 1_555 1_555
C21_3 C22_3 1_555 1_555
C22_3 C15_3 1_555 1_555
H11_3 C22_3 1_555 1_555
C23_3 C14_3 1_555 1_555
H12_3 C23_3 1_555 1_555
C24_3 C21_3 1_555 1_555
Co6 O11_3 1_555 1_555
O13_3 Co6 1_555 1_555
O17 C31_3 1_555 1_555
C25_3 C26_3 1_555 1_555
C26_3 H13_3 1_555 1_555
C30_3 C25_3 1_555 1_555
H16_3 C30_3 1_555 1_555
C31_3 O13_3 1_555 1_555
O18_2 Co6 1_555 1_555
O19_2 Co1_2 1_555 1_555
O21_2 Co9 1_555 1_555
Co9 O5_3 1_555 1_555
C9_3 C12_3 1_555 1_555
C13_3 C16_3 1_555 1_555
C17_3 C19_3 1_555 1_555
C21_3 C23_3 1_555 1_555
C25_3 C31_3 1_555 1_555
O3_2 C8_3 1_555 1_555
O20_2 C8_3 1_555 1_555
H2_3 C3_3 1_555 1_555
C4_3 C3_3 1_555 1_555
C5_3 C4_3 1_555 1_555
H3_3 C5_3 1_555 1_555
C8_3 C4_3 1_555 1_555
Co6_2 O3_2 1_555 1_555
O19_2 C32_4 1_555 1_555
O21_2 C32_4 1_555 1_555
H14_4 C27_4 1_555 1_555
C28_4 C27_4 1_555 1_555
C29_4 C28_4 1_555 1_555
H15_4 C29_4 1_555 1_555
C32_4 C28_4 1_555 1_555
O6_4 C12_4 1_555 1_555
C11_4 C9_4 1_555 1_555
H6_4 C11_4 1_555 1_555
O7_4 Co4_2 1_555 1_555
O8_4 C16_4 1_555 1_555
C13_4 C14_4 1_555 1_555
C14_4 H7_4 1_555 1_555
C15_4 C13_4 1_555 1_555
H8_4 C15_4 1_555 1_555
C16_4 O7_4 1_555 1_555
C18_4 C11_4 1_555 1_555
H9_4 C18_4 1_555 1_555
O17_2 C31_4 1_555 1_555
C25_4 C26_4 1_555 1_555
C26_4 H13_4 1_555 1_555
C30_4 C25_4 1_555 1_555
H16_4 C30_4 1_555 1_555
C31_4 O13_4 1_555 1_555
C9_4 C12_4 1_555 1_555
C13_4 C16_4 1_555 1_555
C25_4 C31_4 1_555 1_555
Co10_2 O2_4 1_555 1_555
O1_4 C7_4 1_555 1_555
O2_4 C7_4 1_555 1_555
C1_4 C2_4 1_555 1_555
C2_4 H1_4 1_555 1_555
C6_4 C1_4 1_555 1_555
H4_4 C6_4 1_555 1_555
C7_4 C1_4 1_555 1_555
C10_4 H5_4 1_555 1_555
O10_4 C20_4 1_555 1_555
C19_4 C10_4 1_555 1_555
H10_4 C19_4 1_555 1_555
C20_4 C17_4 1_555 1_555
O11_4 C24_4 1_555 1_555
O12_4 C24_4 1_555 1_555
C21_4 C22_4 1_555 1_555
H11_4 C22_4 1_555 1_555
H12_4 C23_4 1_555 1_555
C24_4 C21_4 1_555 1_555
Co6_2 O11_4 1_555 1_555
Co10_2 O5_4 1_555 1_555
C17_4 C19_4 1_555 1_555
C21_4 C23_4 1_555 1_555
O18_2 C8_4 1_555 1_555
O20 C8_4 1_555 1_555
H2_4 C3_4 1_555 1_555
C4_4 C3_4 1_555 1_555
C5_4 C4_4 1_555 1_555
H3_4 C5_4 1_555 1_555
C8_4 C4_4 1_555 1_555
C34 N1 1_555 1_555
H19 C34 1_555 1_555
H20 C34 1_555 1_555
C35 N1 1_555 1_555
H22 C35 1_555 1_555
H23 C35 1_555 1_555
C36 N1 1_555 1_555
H25 C36 1_555 1_555
H26 C36 1_555 1_555
H27 C36 1_555 1_555
C33 H17 1_555 1_555
H18 C33 1_555 1_555
O24 H28 1_555 1_555
C37 C33 1_555 1_555
H29 C37 1_555 1_555
H30 C37 1_555 1_555
O24 C37 1_555 1_555
C34_2 N1_2 1_555 1_555
H19_2 C34_2 1_555 1_555
H20_2 C34_2 1_555 1_555
C35_2 N1_2 1_555 1_555
H22_2 C35_2 1_555 1_555
H23_2 C35_2 1_555 1_555
C36_2 N1_2 1_555 1_555
H25_2 C36_2 1_555 1_555
H26_2 C36_2 1_555 1_555
H27_2 C36_2 1_555 1_555
C33_2 H17_2 1_555 1_555
H18_2 C33_2 1_555 1_555
O24_2 H28_2 1_555 1_555
C37_2 C33_2 1_555 1_555
H29_2 C37_2 1_555 1_555
H30_2 C37_2 1_555 1_555
O24_2 C37_2 1_555 1_555
N1_3 C33_3 1_555 1_555
C33_3 H17_3 1_555 1_555
H18_3 C33_3 1_555 1_555
C34_3 N1_3 1_555 1_555
H19_3 C34_3 1_555 1_555
H20_3 C34_3 1_555 1_555
H21_3 C34_3 1_555 1_555
C35_3 N1_3 1_555 1_555
H22_3 C35_3 1_555 1_555
H23_3 C35_3 1_555 1_555
H24_3 C35_3 1_555 1_555
C36_3 N1_3 1_555 1_555
H25_3 C36_3 1_555 1_555
H26_3 C36_3 1_555 1_555
H27_3 C36_3 1_555 1_555
O24_3 H28_3 1_555 1_555
C37_3 C33_3 1_555 1_555
H29_3 C37_3 1_555 1_555
H30_3 C37_3 1_555 1_555
O24_3 C37_3 1_555 1_555
N1_4 C33_4 1_555 1_555
C33_4 H17_4 1_555 1_555
H18_4 C33_4 1_555 1_555
C34_4 N1_4 1_555 1_555
H19_4 C34_4 1_555 1_555
H20_4 C34_4 1_555 1_555
H21_4 C34_4 1_555 1_555
C35_4 N1_4 1_555 1_555
H22_4 C35_4 1_555 1_555
H23_4 C35_4 1_555 1_555
H24_4 C35_4 1_555 1_555
C36_4 N1_4 1_555 1_555
H25_4 C36_4 1_555 1_555
H26_4 C36_4 1_555 1_555
H27_4 C36_4 1_555 1_555
O24_4 H28_4 1_555 1_555
C37_4 C33_4 1_555 1_555
H29_4 C37_4 1_555 1_555
H30_4 C37_4 1_555 1_555
O24_4 C37_4 1_555 1_555
C33_5 H17_5 1_555 1_555
H18_5 C33_5 1_555 1_555
O24_5 H28_5 1_555 1_555
C37_5 C33_5 1_555 1_555
H29_5 C37_5 1_555 1_555
H30_5 C37_5 1_555 1_555
O24_5 C37_5 1_555 1_555
C34_5 N1_5 1_555 1_555
H19_5 C34_5 1_555 1_555
H20_5 C34_5 1_555 1_555
C35_5 N1_5 1_555 1_555
H22_5 C35_5 1_555 1_555
H23_5 C35_5 1_555 1_555
C36_5 N1_5 1_555 1_555
H25_5 C36_5 1_555 1_555
H26_5 C36_5 1_555 1_555
H27_5 C36_5 1_555 1_555
C33_6 H17_6 1_555 1_555
H18_6 C33_6 1_555 1_555
O24_6 H28_6 1_555 1_555
C37_6 C33_6 1_555 1_555
H29_6 C37_6 1_555 1_555
H30_6 C37_6 1_555 1_555
O24_6 C37_6 1_555 1_555
C34_6 N1_6 1_555 1_555
H19_6 C34_6 1_555 1_555
H20_6 C34_6 1_555 1_555
C35_6 N1_6 1_555 1_555
H22_6 C35_6 1_555 1_555
H23_6 C35_6 1_555 1_555
C36_6 N1_6 1_555 1_555
H25_6 C36_6 1_555 1_555
H26_6 C36_6 1_555 1_555
H27_6 C36_6 1_555 1_555
N1_7 C33_7 1_555 1_555
C33_7 H17_7 1_555 1_555
H18_7 C33_7 1_555 1_555
C34_7 N1_7 1_555 1_555
H19_7 C34_7 1_555 1_555
H20_7 C34_7 1_555 1_555
H21_7 C34_7 1_555 1_555
C35_7 N1_7 1_555 1_555
H22_7 C35_7 1_555 1_555
H23_7 C35_7 1_555 1_555
H24_7 C35_7 1_555 1_555
C36_7 N1_7 1_555 1_555
H25_7 C36_7 1_555 1_555
H26_7 C36_7 1_555 1_555
H27_7 C36_7 1_555 1_555
O24_7 H28_7 1_555 1_555
C37_7 C33_7 1_555 1_555
H29_7 C37_7 1_555 1_555
H30_7 C37_7 1_555 1_555
O24_7 C37_7 1_555 1_555
N1_8 C33_8 1_555 1_555
C33_8 H17_8 1_555 1_555
H18_8 C33_8 1_555 1_555
C34_8 N1_8 1_555 1_555
H19_8 C34_8 1_555 1_555
H20_8 C34_8 1_555 1_555
H21_8 C34_8 1_555 1_555
C35_8 N1_8 1_555 1_555
H22_8 C35_8 1_555 1_555
H23_8 C35_8 1_555 1_555
H24_8 C35_8 1_555 1_555
C36_8 N1_8 1_555 1_555
H25_8 C36_8 1_555 1_555
H26_8 C36_8 1_555 1_555
H27_8 C36_8 1_555 1_555
O24_8 H28_8 1_555 1_555
C37_8 C33_8 1_555 1_555
H29_8 C37_8 1_555 1_555
H30_8 C37_8 1_555 1_555
O24_8 C37_8 1_555 1_555

#END
