
###############################################################################
#
# This file contains modified crystal structure data generated from the
# MOF subset of the Cambridge Structural Database (CSD) v543 
# hosted by the Cambridge Crystallographic Data Centre (CCDC).
#
# This work is licensed under the Creative Commons
# Attribution-NonCommercial-ShareAlike 4.0 International License.
# To view a copy of this license, visit
# http://creativecommons.org/licenses/by-nc-sa/4.0/
# or send a letter to
# Creative Commons, PO Box 1866, Mountain View, CA 94042, USA.
#
# CIF created using the CSD Python API on 29 September 2022
# The structure has been converted into the P1 space group
# The structure has a 3D framework
# The original CSD entry RAMSAC is in the monoclinic crystal system
# The original CSD entry RAMSAC is in a Sohncke space group
# The framework has been calculated to contain at least 10.0% void space
# The void calculation uses a probe of radius 1.32A, grid spacing 0.4
#
###############################################################################

data_RAMSAC
_chemical_formula_moiety         '(C36 H60 N52 O8 Zn7)n'
_symmetry_cell_setting           triclinic
_symmetry_space_group_name_H-M   'P 1'
_symmetry_Int_Tables_number      1
_space_group_name_Hall           'P 1'
loop_
_symmetry_equiv_pos_site_id
_symmetry_equiv_pos_as_xyz
1 x,y,z
_cell_length_a                   10.175(4)
_cell_length_b                   21.481(10)
_cell_length_c                   10.493(5)
_cell_angle_alpha                90
_cell_angle_beta                 93.144(9)
_cell_angle_gamma                90
_cell_volume                     2289.99
loop_
_atom_site_label
_atom_site_type_symbol
_atom_site_fract_x
_atom_site_fract_y
_atom_site_fract_z
Zn7 Zn 0.0145(2) 0.69784(11) 0.1835(2)
Zn1 Zn 0.4893(2) 0.42656(11) 0.3209(2)
Zn2 Zn 0.5282(2) 0.65311(11) 0.4850(2)
O1 O 0.5273(15) 0.5530(7) 0.4202(14)
O2 O 0.4706(18) 0.4600(8) 0.4956(16)
O4 O 0.0348(17) 0.6634(9) 0.0190(16)
N1 N 0.8455(17) 0.4518(10) 0.1469(19)
N2 N 0.8597(19) 0.3999(10) 0.2236(19)
N3 N 0.7514(17) 0.3885(11) 0.2914(18)
N4 N 0.6709(14) 0.4335(9) 0.2554(16)
N5 N 0.4566(19) 0.3369(10) 0.3592(18)
N6 N 0.3722(19) 0.3051(10) 0.2815(19)
N7 N 0.3733(19) 0.2482(11) 0.327(2)
N8 N 0.4547(18) 0.2432(10) 0.4328(19)
N9 N 0.3557(16) 0.4504(10) 0.1875(18)
N10 N 0.3681(18) 0.4383(12) 0.0639(18)
N12 N 0.1653(15) 0.4616(10) 0.0869(17)
N17 N 0.8407(16) 0.6860(10) 0.2527(19)
N18 N 0.7383(17) 0.7299(11) 0.2236(19)
N19 N 0.6407(16) 0.7199(12) 0.282(2)
N20 N 0.6682(16) 0.6710(9) 0.3593(16)
N21 N 0.1541(16) 0.6699(9) 0.3132(17)
N22 N 0.1314(17) 0.6803(11) 0.4398(18)
N23 N 0.2416(16) 0.6793(11) 0.5024(15)
N24 N 0.3384(15) 0.6582(10) 0.4251(15)
N25 N 0.554(2) 0.6060(11) 0.6432(18)
H1 H 0.6387 0.5969 0.6566
H2 H 0.5296 0.6292 0.7081
C1 C 0.723(2) 0.4739(13) 0.169(2)
C2 C 0.6560(19) 0.5313(10) 0.114(2)
H5 H 0.5700 0.5350 0.1465
H6 H 0.7073 0.5674 0.1374
H7 H 0.6479 0.5279 0.0225
C3 C 0.503(2) 0.2986(11) 0.447(2)
C4 C 0.597(2) 0.3178(12) 0.5514(19)
H8 H 0.6191 0.3609 0.5414
H9 H 0.5580 0.3119 0.6317
H10 H 0.6757 0.2931 0.5493
C5 C 0.2249(15) 0.4667(10) 0.1939(18)
C6 C 0.159(2) 0.4837(14) 0.312(2)
H11 H 0.2233 0.4849 0.3830
H12 H 0.1188 0.5239 0.3019
H13 H 0.0931 0.4533 0.3288
C8 C 0.109(3) 0.3092(13) 0.040(2)
H14 H 0.1294 0.2659 0.0306
H15 H 0.1863 0.3338 0.0298
H16 H 0.0767 0.3164 0.1229
C9 C 0.7849(17) 0.6526(9) 0.3376(17)
C10 C 0.852(3) 0.6024(13) 0.403(3)
H17 H 0.9376 0.5973 0.3707
H18 H 0.8606 0.6115 0.4928
H19 H 0.8022 0.5647 0.3899
C11 C 0.274(2) 0.6592(10) 0.304(2)
C12 C 0.337(2) 0.6429(15) 0.184(2)
H20 H 0.4297 0.6369 0.2010
H21 H 0.2986 0.6052 0.1493
H22 H 0.3229 0.6760 0.1231
C13 C 0.499(3) 0.5185(12) 0.505(2)
C14 C 0.473(2) 0.5452(10) 0.6383(17)
H23 H 0.3794 0.5563 0.6390
C15 C 0.503(3) 0.5001(9) 0.7466(15)
H24 H 0.4487 0.4639 0.7356
H25 H 0.5943 0.4880 0.7467
H26 H 0.4869 0.5198 0.8263
Zn5 Zn 0.4718(2) 0.15311(11) 0.5150(2)
Zn6 Zn 0.9760(2) 0.47007(11) 0.0156(3)
N28 N 0.5453(18) 0.7432(10) 0.5672(19)
N29 N 0.0477(17) 0.7885(9) 0.1493(17)
O3 O 0.9822(17) 0.5707(9) 0.0855(15)
N13 N 0.9523(17) 0.2885(9) 0.8507(17)
N14 N 0.8630(17) 0.3227(9) 0.7801(18)
N15 N 0.8609(17) 0.3793(7) 0.8223(17)
N16 N 0.9506(17) 0.3840(9) 0.9224(16)
N26 N 0.949(2) 0.5239(9) 0.849(2)
H3 H 0.9877 0.5047 0.7857
H4 H 0.8638 0.5265 0.8277
H27 H 0.9510 0.6143 0.8067
Zn8 Zn 0.9855(2) 0.19784(11) 0.8165(2)
O3_2 O 0.0178(17) 0.0707(9) 0.9145(15)
N30 N 0.1593(16) 0.1860(10) 0.7473(19)
N14_2 N 0.1370(17) 0.8227(9) 0.2199(18)
N15_2 N 0.1391(17) 0.8793(7) 0.1777(17)
N16_2 N 0.0494(17) 0.8840(9) 0.0776(16)
Zn3 Zn 0.0240(2) 0.97007(11) 0.9844(3)
N27 N 0.1545(17) 0.9518(10) 0.8531(19)
O1_2 O 0.4727(15) 0.0530(7) 0.5798(14)
O4_2 O 0.9652(17) 0.1634(9) 0.9810(16)
N18_2 N 0.2617(17) 0.2299(11) 0.7764(19)
N19_2 N 0.3593(16) 0.2199(12) 0.718(2)
N20_2 N 0.3318(16) 0.1710(9) 0.6407(16)
N21_2 N 0.8459(16) 0.1699(9) 0.6868(17)
N22_2 N 0.8686(17) 0.1803(11) 0.5602(18)
N23_2 N 0.7584(16) 0.1793(11) 0.4976(15)
N24_2 N 0.6616(15) 0.1582(10) 0.5749(15)
N25_2 N 0.446(2) 0.1060(11) 0.3568(18)
H1_2 H 0.3613 0.0969 0.3434
H2_2 H 0.4704 0.1292 0.2919
C2_2 C 0.3440(19) 0.0313(10) 0.886(2)
H5_2 H 0.4300 0.0350 0.8535
H6_2 H 0.2927 0.0674 0.8626
H7_2 H 0.3521 0.0279 0.9775
H12_2 H 0.8812 0.0239 0.6981
C9_2 C 0.2151(17) 0.1526(9) 0.6624(17)
C10_2 C 0.148(3) 0.1024(13) 0.597(3)
H17_2 H 0.0624 0.0973 0.6293
H18_2 H 0.1394 0.1115 0.5072
H19_2 H 0.1978 0.0647 0.6101
C11_2 C 0.726(2) 0.1592(10) 0.696(2)
C12_2 C 0.663(2) 0.1429(15) 0.816(2)
H20_2 H 0.5703 0.1369 0.7990
H21_2 H 0.7014 0.1052 0.8507
H22_2 H 0.6771 0.1760 0.8769
C13_2 C 0.501(3) 0.0185(12) 0.495(2)
C14_2 C 0.527(2) 0.0452(10) 0.3617(17)
H23_2 H 0.6206 0.0563 0.3610
C15_2 C 0.497(3) 0.0001(9) 0.2534(15)
H26_2 H 0.5131 0.0198 0.1737
Zn1_2 Zn 0.5107(2) 0.92656(11) 0.6791(2)
O2_2 O 0.5294(18) 0.9600(8) 0.5044(16)
N2_2 N 0.1403(19) 0.8999(10) 0.7764(19)
N3_2 N 0.2486(17) 0.8885(11) 0.7086(18)
N4_2 N 0.3291(14) 0.9335(9) 0.7446(16)
N5_2 N 0.5434(19) 0.8369(10) 0.6408(18)
N6_2 N 0.6278(19) 0.8051(10) 0.7185(19)
N7_2 N 0.6267(19) 0.7482(11) 0.673(2)
N9_2 N 0.6443(16) 0.9504(10) 0.8125(18)
N10_2 N 0.6319(18) 0.9383(12) 0.9361(18)
N12_2 N 0.8347(15) 0.9616(10) 0.9131(17)
C1_2 C 0.277(2) 0.9739(13) 0.831(2)
C3_2 C 0.497(2) 0.7986(11) 0.553(2)
C4_2 C 0.403(2) 0.8178(12) 0.4486(19)
H8_2 H 0.3809 0.8609 0.4586
H9_2 H 0.4420 0.8119 0.3683
H10_2 H 0.3243 0.7931 0.4507
C5_2 C 0.7751(15) 0.9667(10) 0.8061(18)
C6_2 C 0.841(2) 0.9837(14) 0.688(2)
H11_2 H 0.7767 0.9849 0.6170
H13_2 H 0.9069 0.9533 0.6712
C8_2 C 0.891(3) 0.8092(13) 0.960(2)
H14_2 H 0.8706 0.7659 0.9694
H15_2 H 0.8137 0.8338 0.9702
H16_2 H 0.9233 0.8164 0.8771
H24_2 H 0.5513 0.9639 0.2644
H25_2 H 0.4057 0.9880 0.2533
N11 N 0.2548(19) 0.4506(8) 0.9975(18)
C7 C 0.006(2) 0.3273(11) 0.941(2)
C16 C 0.010(3) 0.6077(14) 0.996(3)
C17 C 0.002(2) 0.5852(12) 0.862(2)
C18 C 0.140(2) 0.5767(11) 0.814(2)
H28 H 0.1856 0.6158 0.8186
H29 H 0.1870 0.5468 0.8670
H30 H 0.1336 0.5623 0.7277
N26_2 N 0.051(2) 0.0239(9) 0.151(2)
H3_2 H 0.0123 0.0047 0.2143
H4_2 H 0.1362 0.0265 0.1723
H27_2 H 0.0490 0.1143 0.1933
C16_2 C 0.990(3) 0.1077(14) 0.004(3)
C17_2 C 0.998(2) 0.0852(12) 0.138(2)
C18_2 C 0.860(2) 0.0767(11) 0.186(2)
H28_2 H 0.8144 0.1158 0.1814
H29_2 H 0.8130 0.0468 0.1330
H30_2 H 0.8664 0.0623 0.2723
N11_2 N 0.7452(19) 0.9506(8) 0.0025(18)
C7_2 C 0.994(2) 0.8273(11) 0.059(2)
loop_
_geom_bond_atom_site_label_1
_geom_bond_atom_site_label_2
_geom_bond_site_symmetry_1
_geom_bond_site_symmetry_2
Zn1 O2 1_555 1_555
Zn2 O1 1_555 1_555
Zn7 O4 1_555 1_555
O1 C13 1_555 1_555
O2 C13 1_555 1_555
N1 N2 1_555 1_555
N2 N3 1_555 1_555
N3 N4 1_555 1_555
N4 Zn1 1_555 1_555
N5 Zn1 1_555 1_555
N6 N5 1_555 1_555
N7 N6 1_555 1_555
N8 N7 1_555 1_555
N9 Zn1 1_555 1_555
N10 N9 1_555 1_555
N17 N18 1_555 1_555
N18 N19 1_555 1_555
N19 N20 1_555 1_555
N20 Zn2 1_555 1_555
N21 Zn7 1_555 1_555
N22 N21 1_555 1_555
N23 N22 1_555 1_555
N24 Zn2 1_555 1_555
N25 Zn2 1_555 1_555
H1 N25 1_555 1_555
H2 N25 1_555 1_555
C1 N1 1_555 1_555
C2 C1 1_555 1_555
H5 C2 1_555 1_555
H6 C2 1_555 1_555
H7 C2 1_555 1_555
C3 N5 1_555 1_555
C4 C3 1_555 1_555
H8 C4 1_555 1_555
H9 C4 1_555 1_555
H10 C4 1_555 1_555
C5 N9 1_555 1_555
C6 C5 1_555 1_555
H11 C6 1_555 1_555
H12 C6 1_555 1_555
H13 C6 1_555 1_555
H14 C8 1_555 1_555
H15 C8 1_555 1_555
H16 C8 1_555 1_555
C9 N17 1_555 1_555
C10 C9 1_555 1_555
H17 C10 1_555 1_555
H18 C10 1_555 1_555
H19 C10 1_555 1_555
C11 N21 1_555 1_555
C12 C11 1_555 1_555
H20 C12 1_555 1_555
H21 C12 1_555 1_555
H22 C12 1_555 1_555
C13 C14 1_555 1_555
C14 N25 1_555 1_555
H23 C14 1_555 1_555
C15 C14 1_555 1_555
H24 C15 1_555 1_555
H25 C15 1_555 1_555
H26 C15 1_555 1_555
Zn5 N8 1_555 1_555
Zn6 N1 1_555 1_555
N28 Zn2 1_555 1_555
N29 Zn7 1_555 1_555
N4 C1 1_555 1_555
N8 C3 1_555 1_555
N12 C5 1_555 1_555
N20 C9 1_555 1_555
N23 N24 1_555 1_555
N24 C11 1_555 1_555
Zn6 O3 1_555 1_555
N13 N14 1_555 1_555
N14 N15 1_555 1_555
N15 N16 1_555 1_555
H3 N26 1_555 1_555
H4 N26 1_555 1_555
Zn8 N13 1_555 1_555
N29 N14_2 1_555 1_555
N14_2 N15_2 1_555 1_555
N15_2 N16_2 1_555 1_555
N27 Zn3 1_555 1_555
Zn5 O1_2 1_555 1_555
Zn8 O4_2 1_555 1_555
O1_2 C13_2 1_555 1_555
N30 N18_2 1_555 1_555
N18_2 N19_2 1_555 1_555
N19_2 N20_2 1_555 1_555
N20_2 Zn5 1_555 1_555
N21_2 Zn8 1_555 1_555
N22_2 N21_2 1_555 1_555
N23_2 N22_2 1_555 1_555
N24_2 Zn5 1_555 1_555
N25_2 Zn5 1_555 1_555
H1_2 N25_2 1_555 1_555
H2_2 N25_2 1_555 1_555
H5_2 C2_2 1_555 1_555
H6_2 C2_2 1_555 1_555
H7_2 C2_2 1_555 1_555
C9_2 N30 1_555 1_555
C10_2 C9_2 1_555 1_555
H17_2 C10_2 1_555 1_555
H18_2 C10_2 1_555 1_555
H19_2 C10_2 1_555 1_555
C11_2 N21_2 1_555 1_555
C12_2 C11_2 1_555 1_555
H20_2 C12_2 1_555 1_555
H21_2 C12_2 1_555 1_555
H22_2 C12_2 1_555 1_555
C13_2 C14_2 1_555 1_555
C14_2 N25_2 1_555 1_555
H23_2 C14_2 1_555 1_555
C15_2 C14_2 1_555 1_555
H26_2 C15_2 1_555 1_555
N20_2 C9_2 1_555 1_555
N23_2 N24_2 1_555 1_555
N24_2 C11_2 1_555 1_555
Zn1_2 O2_2 1_555 1_555
N27 N2_2 1_555 1_555
N2_2 N3_2 1_555 1_555
N3_2 N4_2 1_555 1_555
N4_2 Zn1_2 1_555 1_555
N5_2 Zn1_2 1_555 1_555
N6_2 N5_2 1_555 1_555
N7_2 N6_2 1_555 1_555
N28 N7_2 1_555 1_555
N9_2 Zn1_2 1_555 1_555
N10_2 N9_2 1_555 1_555
C1_2 N27 1_555 1_555
C3_2 N5_2 1_555 1_555
C4_2 C3_2 1_555 1_555
H8_2 C4_2 1_555 1_555
H9_2 C4_2 1_555 1_555
H10_2 C4_2 1_555 1_555
C5_2 N9_2 1_555 1_555
C6_2 C5_2 1_555 1_555
H11_2 C6_2 1_555 1_555
H13_2 C6_2 1_555 1_555
H14_2 C8_2 1_555 1_555
H15_2 C8_2 1_555 1_555
H16_2 C8_2 1_555 1_555
N4_2 C1_2 1_555 1_555
N28 C3_2 1_555 1_555
N12_2 C5_2 1_555 1_555
C16 C17 1_555 1_555
C18 C17 1_555 1_555
H28 C18 1_555 1_555
H29 C18 1_555 1_555
H30 C18 1_555 1_555
H3_2 N26_2 1_555 1_555
H4_2 N26_2 1_555 1_555
C16_2 C17_2 1_555 1_555
C18_2 C17_2 1_555 1_555
H28_2 C18_2 1_555 1_555
H29_2 C18_2 1_555 1_555
H30_2 C18_2 1_555 1_555

#END
