
###############################################################################
#
# This file contains modified crystal structure data generated from the
# MOF subset of the Cambridge Structural Database (CSD) v543 
# hosted by the Cambridge Crystallographic Data Centre (CCDC).
#
# This work is licensed under the Creative Commons
# Attribution-NonCommercial-ShareAlike 4.0 International License.
# To view a copy of this license, visit
# http://creativecommons.org/licenses/by-nc-sa/4.0/
# or send a letter to
# Creative Commons, PO Box 1866, Mountain View, CA 94042, USA.
#
# CIF created using the CSD Python API on 29 September 2022
# The structure has been converted into the P1 space group
# The structure has a 3D framework
# The original CSD entry RANPAA is in the triclinic crystal system
# The framework has been calculated to contain at least 10.0% void space
# The void calculation uses a probe of radius 1.32A, grid spacing 0.4
#
###############################################################################

data_RANPAA
_chemical_formula_moiety         'C24 H34 La2 O26 P6'
_symmetry_cell_setting           triclinic
_symmetry_space_group_name_H-M   'P 1'
_symmetry_Int_Tables_number      1
_space_group_name_Hall           'P 1'
loop_
_symmetry_equiv_pos_site_id
_symmetry_equiv_pos_as_xyz
1 x,y,z
_cell_length_a                   10.35(2)
_cell_length_b                   11.94(3)
_cell_length_c                   12.75(3)
_cell_angle_alpha                104.97(4)
_cell_angle_beta                 90.47(2)
_cell_angle_gamma                93.06(3)
_cell_volume                     1519.59
loop_
_atom_site_label
_atom_site_type_symbol
_atom_site_fract_x
_atom_site_fract_y
_atom_site_fract_z
_atom_site_U_iso_or_equiv
_atom_site_thermal_displace_type
La8 La 0.00066(5) 0.27267(5) 0.07942(5) 0.0215 Uani
H4 H 0.2217 0.7108 0.0614 0.0590 Uiso
C5 C 0.2296(10) 0.5526(10) 0.0074(10) 0.0309 Uani
H12 H 0.1947 0.5459 0.0769 0.0370 Uiso
C6 C 0.3713(10) 0.5277(9) 0.0066(9) 0.0247 Uani
C7 C 0.4159(12) 0.4461(11) 0.0570(11) 0.0371 Uani
H13 H 0.3593 0.4095 0.0955 0.0450 Uiso
P5 P 0.8652(2) 0.5484(2) 0.1011(2) 0.0225 Uani
O18 O 0.7729(8) 0.5856(7) 0.1994(7) 0.0333 Uani
O19 O 0.9714(7) 0.4846(7) 0.1312(7) 0.0290 Uani
O20 O 0.9080(7) 0.6678(7) 0.0654(6) 0.0244 Uani
H23 H 0.9607 0.7012 0.1168 0.0370 Uiso
O21 O 0.7898(8) 0.3338(7) 0.0021(8) 0.0396 Uani
C20 C 0.5418(11) 0.4203(11) 0.0496(11) 0.0349 Uani
H27 H 0.5703 0.3658 0.0837 0.0420 Uiso
O33 O 0.0961(8) 0.8787(7) 0.0651(7) 0.0327 Uani
P1 P 0.1996(4) 0.6411(3) 0.6688(3) 0.0431 Uani
P2 P 0.1348(2) 0.4516(2) 0.8989(2) 0.0225 Uani
O1 O 0.1493(8) 0.7176(8) 0.7737(7) 0.0390 Uani
O2 O 0.1513(12) 0.6843(11) 0.5723(8) 0.0621 Uani
H1 H 0.1137 0.7442 0.5951 0.0930 Uiso
O3 O 0.1719(11) 0.5121(9) 0.6469(8) 0.0553 Uani
O4 O 0.4097(13) 0.7828(11) 0.6717(11) 0.0829 Uani
H2 H 0.4888 0.7924 0.6733 0.1240 Uiso
O5 O 0.2271(8) 0.4144(7) 0.8006(7) 0.0333 Uani
O6 O 0.0286(7) 0.5154(7) 0.8688(7) 0.0290 Uani
O7 O 0.0920(7) 0.3322(7) 0.9346(6) 0.0244 Uani
H3 H 0.0393 0.2988 0.8832 0.0370 Uiso
O8 O 0.2102(8) 0.6662(7) 0.9979(8) 0.0396 Uani
C1 C 0.3741(15) 0.6663(15) 0.6748(12) 0.0520 Uani
H9 H 0.4058 0.6556 0.7440 0.0620 Uiso
C2 C 0.4389(14) 0.5764(14) 0.5807(13) 0.0513 Uani
C3 C 0.4997(19) 0.4876(16) 0.6038(14) 0.0694 Uani
H10 H 0.5017 0.4796 0.6744 0.0830 Uiso
C4 C 0.442(2) 0.5899(18) 0.4768(14) 0.0694 Uani
H11 H 0.4041 0.6529 0.4615 0.0830 Uiso
C8 C 0.4582(11) 0.5797(11) 0.9504(11) 0.0349 Uani
H14 H 0.4297 0.6342 0.9163 0.0420 Uiso
P4 P 0.8004(4) 0.3589(3) 0.3312(3) 0.0431 Uani
O14 O 0.8507(8) 0.2824(8) 0.2263(7) 0.0390 Uani
O15 O 0.8487(12) 0.3157(11) 0.4277(8) 0.0621 Uani
H18 H 0.8863 0.2558 0.4049 0.0930 Uiso
O16 O 0.8281(11) 0.4879(9) 0.3531(8) 0.0553 Uani
O17 O 0.5903(13) 0.2172(11) 0.3283(11) 0.0829 Uani
H19 H 0.5112 0.2076 0.3267 0.1240 Uiso
C13 C 0.6259(15) 0.3337(15) 0.3252(12) 0.0520 Uani
H20 H 0.5942 0.3444 0.2560 0.0620 Uiso
C14 C 0.5611(14) 0.4236(14) 0.4193(13) 0.0513 Uani
C15 C 0.5003(19) 0.5124(16) 0.3962(14) 0.0694 Uani
H21 H 0.4983 0.5204 0.3256 0.0830 Uiso
C16 C 0.558(2) 0.4101(18) 0.5232(14) 0.0694 Uani
H22 H 0.5959 0.3471 0.5385 0.0830 Uiso
H24 H 0.7783 0.2892 0.9386 0.0590 Uiso
C17 C 0.7704(10) 0.4474(10) 0.9926(10) 0.0309 Uani
H25 H 0.8053 0.4541 0.9231 0.0370 Uiso
C18 C 0.6287(10) 0.4723(9) 0.9934(9) 0.0247 Uani
C19 C 0.5841(12) 0.5539(11) 0.9430(11) 0.0371 Uani
H26 H 0.6407 0.5905 0.9045 0.0450 Uiso
La4 La 0.99934(5) 0.72733(5) 0.92058(5) 0.0215 Uani
C12 C 0.5910(10) 0.0791(10) 0.0620(11) 0.0333 Uani
H17 H 0.6515 0.1329 0.1040 0.0400 Uiso
P6 P 0.1425(2) 0.0092(2) 0.1055(2) 0.0229 Uani
O22 O 0.2429(8) 0.0149(8) 0.2002(7) 0.0356 Uani
O23 O 0.0450(7) 0.0974(7) 0.1460(6) 0.0282 Uani
O25 O 0.2120(7) 0.1727(7) 0.0102(7) 0.0334 Uani
C23 C 0.4609(10) 0.1058(12) 0.0594(12) 0.0419 Uani
H31 H 0.4348 0.1773 0.0996 0.0500 Uiso
O26 O 0.1712(9) 0.3588(9) 0.2235(8) 0.0456 Uani
H33 H 0.1470 0.4193 0.2686 0.0680 Uiso
H34 H 0.1939 0.3098 0.2571 0.0680 Uiso
O11 O 0.9039(8) 0.1213(7) 0.9349(7) 0.0327 Uani
H5 H 0.9447 0.1321 0.9923 0.0490 Uiso
H29 H 0.2263 0.1859 0.9489 0.0500 Uiso
C21 C 0.2296(10) 0.0515(9) 0.9973(10) 0.0259 Uani
H30 H 0.1897 0.0080 0.9277 0.0310 Uiso
C22 C 0.3715(9) 0.0252(9) 0.9969(9) 0.0246 Uani
H6 H 0.7737 0.8141 0.0511 0.0500 Uiso
C9 C 0.7704(10) 0.9485(9) 0.0027(10) 0.0259 Uani
H15 H 0.8103 0.9920 0.0723 0.0310 Uiso
C10 C 0.6285(9) 0.9748(9) 0.0031(9) 0.0246 Uani
H28 H 0.0553 0.8679 0.0077 0.0490 Uiso
P3 P 0.8575(2) 0.9908(2) 0.8945(2) 0.0229 Uani
O9 O 0.7571(8) 0.9851(8) 0.7998(7) 0.0356 Uani
O10 O 0.9550(7) 0.9026(7) 0.8540(6) 0.0282 Uani
O12 O 0.7880(7) 0.8273(7) 0.9898(7) 0.0334 Uani
O13 O 0.8288(9) 0.6412(9) 0.7765(8) 0.0456 Uani
H7 H 0.8530 0.5807 0.7314 0.0680 Uiso
H8 H 0.8061 0.6902 0.7429 0.0680 Uiso
C11 C 0.5391(10) 0.8942(12) 0.9406(12) 0.0419 Uani
H16 H 0.5652 0.8227 0.9004 0.0500 Uiso
C24 C 0.4090(10) 0.9209(10) 0.9380(11) 0.0333 Uani
H32 H 0.3485 0.8671 0.8960 0.0400 Uiso
loop_
_atom_site_aniso_label
_atom_site_aniso_U_11
_atom_site_aniso_U_22
_atom_site_aniso_U_33
_atom_site_aniso_U_23
_atom_site_aniso_U_13
_atom_site_aniso_U_12
La8 0.0118 0.016 0.037 0.0063 0.0019 0.0051
C5 0.013 0.039 0.042 0.01 0.012 0.013
C6 0.014 0.022 0.04 0.011 -0.002 0.005
C7 0.024 0.039 0.058 0.029 0.008 0.006
P5 0.0114 0.0158 0.0411 0.0084 0.0023 0.0033
O18 0.025 0.036 0.04 0.009 0.01 0.015
O19 0.016 0.024 0.042 -0.001 -0.002 0.003
O20 0.02 0.031 0.024 0.0076 0.0023 0.0144
O21 0.023 0.021 0.068 -0.002 -0.007 0.01
C20 0.017 0.033 0.062 0.025 -0.001 0.004
O33 0.025 0.035 0.033 -0.0006 -0.0021 0.0032
P1 0.0394 0.046 0.0422 0.006 0.0104 0.0122
P2 0.0114 0.0158 0.0411 0.0084 0.0023 0.0033
O1 0.032 0.043 0.045 0.013 0.012 0.019
O2 0.075 0.068 0.045 0.014 -0.002 0.024
O3 0.069 0.053 0.043 0.009 0.008 0.012
O4 0.064 0.068 0.098 -0.015 0.014 0.017
O5 0.025 0.036 0.04 0.009 0.01 0.015
O6 0.016 0.024 0.042 -0.001 -0.002 0.003
O7 0.02 0.031 0.024 0.0076 0.0023 0.0144
O8 0.023 0.021 0.068 -0.002 -0.007 0.01
C1 0.047 0.062 0.043 0.004 -0.001 0.016
C2 0.04 0.054 0.05 -0.003 0.004 -0.004
C3 0.089 0.07 0.057 0.022 0.032 0.043
C4 0.08 0.08 0.057 0.029 0.011 0.027
C8 0.017 0.033 0.062 0.025 -0.001 0.004
P4 0.0394 0.046 0.0422 0.006 0.0104 0.0122
O14 0.032 0.043 0.045 0.013 0.012 0.019
O15 0.075 0.068 0.045 0.014 -0.002 0.024
O16 0.069 0.053 0.043 0.009 0.008 0.012
O17 0.064 0.068 0.098 -0.015 0.014 0.017
C13 0.047 0.062 0.043 0.004 -0.001 0.016
C14 0.04 0.054 0.05 -0.003 0.004 -0.004
C15 0.089 0.07 0.057 0.022 0.032 0.043
C16 0.08 0.08 0.057 0.029 0.011 0.027
C17 0.013 0.039 0.042 0.01 0.012 0.013
C18 0.014 0.022 0.04 0.011 -0.002 0.005
C19 0.024 0.039 0.058 0.029 0.008 0.006
La4 0.0118 0.016 0.037 0.0063 0.0019 0.0051
C12 0.009 0.028 0.06 0.006 -0.001 0.003
P6 0.0125 0.0167 0.0401 0.008 -0.0018 0.0047
O22 0.022 0.041 0.041 0.005 -0.009 0.005
O23 0.019 0.025 0.043 0.011 0.004 0.011
O25 0.018 0.031 0.062 0.028 0.012 0.016
C23 0.009 0.041 0.067 -0.004 0.005 0.012
O26 0.034 0.046 0.051 0.002 -0.008 0.004
O11 0.025 0.035 0.033 -0.0006 -0.0021 0.0032
C21 0.016 0.013 0.046 0.003 -0.002 0.001
C22 0.008 0.023 0.043 0.01 0.003 -0.005
C9 0.016 0.013 0.046 0.003 -0.002 0.001
C10 0.008 0.023 0.043 0.01 0.003 -0.005
P3 0.0125 0.0167 0.0401 0.008 -0.0018 0.0047
O9 0.022 0.041 0.041 0.005 -0.009 0.005
O10 0.019 0.025 0.043 0.011 0.004 0.011
O12 0.018 0.031 0.062 0.028 0.012 0.016
O13 0.034 0.046 0.051 0.002 -0.008 0.004
C11 0.009 0.041 0.067 -0.004 0.005 0.012
C24 0.009 0.028 0.06 0.006 -0.001 0.003
loop_
_geom_bond_atom_site_label_1
_geom_bond_atom_site_label_2
_geom_bond_site_symmetry_1
_geom_bond_site_symmetry_2
H12 C5 1_555 1_555
C6 C5 1_555 1_555
C7 C6 1_555 1_555
H13 C7 1_555 1_555
P5 O18 1_555 1_555
O19 P5 1_555 1_555
O20 P5 1_555 1_555
H23 O20 1_555 1_555
C20 C7 1_555 1_555
H27 C20 1_555 1_555
P1 O1 1_555 1_555
P2 O5 1_555 1_555
O2 P1 1_555 1_555
H1 O2 1_555 1_555
O3 P1 1_555 1_555
O4 H2 1_555 1_555
O7 P2 1_555 1_555
H3 O7 1_555 1_555
C1 P1 1_555 1_555
H9 C1 1_555 1_555
C2 C1 1_555 1_555
C3 C2 1_555 1_555
H10 C3 1_555 1_555
C4 C2 1_555 1_555
H11 C4 1_555 1_555
H14 C8 1_555 1_555
P4 O14 1_555 1_555
O15 P4 1_555 1_555
H18 O15 1_555 1_555
O16 P4 1_555 1_555
O17 H19 1_555 1_555
C13 P4 1_555 1_555
H20 C13 1_555 1_555
C14 C13 1_555 1_555
C15 C4 1_555 1_555
H21 C15 1_555 1_555
C16 C3 1_555 1_555
H22 C16 1_555 1_555
H25 C17 1_555 1_555
C18 C17 1_555 1_555
C19 C8 1_555 1_555
H26 C19 1_555 1_555
P2 O6 1_555 1_555
O4 C1 1_555 1_555
O17 C13 1_555 1_555
C14 C15 1_555 1_555
C14 C16 1_555 1_555
C18 C19 1_555 1_555
H17 C12 1_555 1_555
P6 O22 1_555 1_555
O23 P6 1_555 1_555
C23 C12 1_555 1_555
H31 C23 1_555 1_555
La8 O23 1_555 1_555
O26 La8 1_555 1_555
H33 O26 1_555 1_555
H34 O26 1_555 1_555
O25 La8 1_555 1_555
H5 O11 1_555 1_555
H30 C21 1_555 1_555
C22 C21 1_555 1_555
H15 C9 1_555 1_555
C10 C9 1_555 1_555
H28 O33 1_555 1_555
P3 O9 1_555 1_555
O10 La4 1_555 1_555
O12 La4 1_555 1_555
O13 La4 1_555 1_555
H7 O13 1_555 1_555
H8 O13 1_555 1_555
H16 C11 1_555 1_555
C24 C11 1_555 1_555
H32 C24 1_555 1_555
P3 O10 1_555 1_555

#END
