
###############################################################################
#
# This file contains modified crystal structure data generated from the
# MOF subset of the Cambridge Structural Database (CSD) v543 
# hosted by the Cambridge Crystallographic Data Centre (CCDC).
#
# This work is licensed under the Creative Commons
# Attribution-NonCommercial-ShareAlike 4.0 International License.
# To view a copy of this license, visit
# http://creativecommons.org/licenses/by-nc-sa/4.0/
# or send a letter to
# Creative Commons, PO Box 1866, Mountain View, CA 94042, USA.
#
# CIF created using the CSD Python API on 29 September 2022
# The structure has been converted into the P1 space group
# The structure has a 3D framework
# The original CSD entry RANTOS is in the trigonal crystal system
# The framework has been calculated to contain at least 10.0% void space
# The void calculation uses a probe of radius 1.32A, grid spacing 0.4
# The framework is charged, counterions have been retained in the structure
#
###############################################################################

data_RANTOS
_chemical_formula_moiety         '(C12 H12 Cr4 O17 Zn2 1-)n'
_symmetry_cell_setting           triclinic
_symmetry_space_group_name_H-M   'P 1'
_symmetry_Int_Tables_number      1
_space_group_name_Hall           'P 1'
loop_
_symmetry_equiv_pos_site_id
_symmetry_equiv_pos_as_xyz
1 x,y,z
_cell_length_a                   8.1831(12)
_cell_length_b                   8.1831(12)
_cell_length_c                   13.567(3)
_cell_angle_alpha                90
_cell_angle_beta                 90
_cell_angle_gamma                120
_cell_volume                     786.774
loop_
_atom_site_label
_atom_site_type_symbol
_atom_site_fract_x
_atom_site_fract_y
_atom_site_fract_z
Cr3 Cr 0.0000 0.0000 0.0000
Cr3_2 Cr -0.0000 0.0000 1.0000
Cr3_3 Cr -0.0000 1.0000 0.0000
Cr3_4 Cr -0.0000 1.0000 1.0000
O5 O 0.34138(17) 0.45665(23) 0.16666(9)
O6 O 0.20393(14) 0.19319(21) 0.08156(8)
C3 C 0.2097(2) 0.3355(3) 0.11893(12)
H3 H 0.1050 0.3460 0.1070
O10 O 0.80681(21) 0.01074(15) 0.08156(8)
O12 O 0.20393(14) 0.01074(15) 0.41844(8)
Zn3 Zn 0.3333 0.6667 0.2500
Cr3_5 Cr 1.0000 0.0000 0.0000
Cr4 Cr -0.0000 0.0000 0.5000
Cr3_6 Cr 1.0000 0.0000 1.0000
O15 O 0.01074(15) 0.20393(14) 0.91844(8)
O1 O 0.11527(15) 0.65862(17) 0.16666(9)
C1 C 0.1258(2) 0.7903(2) 0.11893(12)
H1 H 0.2410 0.8950 0.1070
O9 O 0.54335(23) 0.88473(15) 0.16666(9)
C5 C 0.6645(3) 0.8742(2) 0.11893(12)
H5 H 0.6540 0.7590 0.1070
O11 O 0.34138(17) 0.88473(15) 0.33334(9)
C6 C 0.2097(2) 0.8742(2) 0.38107(12)
H6 H 0.1050 0.7590 0.3930
Cr3_7 Cr 1.0000 1.0000 0.0000
Cr4_2 Cr -0.0000 1.0000 0.5000
O13 O 0.54335(23) 0.65862(17) 0.33334(9)
O14 O 0.11527(15) 0.45665(23) 0.33334(9)
Cr3_8 Cr 1.0000 1.0000 1.0000
O17 O 0.19319(21) 0.98926(15) 0.91844(8)
Cr4_3 Cr 1.0000 0.0000 0.5000
O2 O 0.98926(15) 0.79607(14) 0.08156(8)
Cr4_4 Cr 1.0000 1.0000 0.5000
O16 O 0.79607(14) 0.80681(21) 0.91844(8)
C6_2 C 0.1258(2) 0.3355(3) 0.38107(12)
H6_2 H 0.2410 0.3460 0.3930
O12_2 O 0.98926(15) 0.19319(21) 0.41844(8)
O12_3 O 0.80681(21) 0.79607(14) 0.41844(8)
C6_3 C 0.6645(3) 0.7903(2) 0.38107(12)
H6_3 H 0.6540 0.8950 0.3930
O16_2 O 0.19319(21) 0.20393(14) 0.58156(8)
O17_2 O 0.01074(15) 0.80681(21) 0.58156(8)
O15_2 O 0.79607(14) 0.98926(15) 0.58156(8)
O7 O 0.45665(23) 0.11527(15) 0.83334(9)
C4 C 0.3355(3) 0.1258(2) 0.88107(12)
H4 H 0.3460 0.2410 0.8930
Zn2 Zn 0.6667 0.3333 0.7500
O1_2 O 0.88473(15) 0.34138(17) 0.83334(9)
C1_2 C 0.8742(2) 0.2097(2) 0.88107(12)
H1_2 H 0.7590 0.1050 0.8930
O3 O 0.65862(17) 0.54335(23) 0.83334(9)
C2 C 0.7903(2) 0.6645(3) 0.88107(12)
H2 H 0.8950 0.6540 0.8930
O11_2 O 0.65862(17) 0.11527(15) 0.66666(9)
C6_4 C 0.7903(2) 0.1258(2) 0.61893(12)
H6_4 H 0.8950 0.2410 0.6070
O13_2 O 0.45665(23) 0.34138(17) 0.66666(9)
O14_2 O 0.88473(15) 0.54335(23) 0.66666(9)
C6_5 C 0.8742(2) 0.6645(3) 0.61893(12)
H6_5 H 0.7590 0.6540 0.6070
C6_6 C 0.3355(3) 0.2097(2) 0.61893(12)
H6_6 H 0.3460 0.1050 0.6070
loop_
_geom_bond_atom_site_label_1
_geom_bond_atom_site_label_2
_geom_bond_site_symmetry_1
_geom_bond_site_symmetry_2
O5 C3 1_555 1_555
O6 Cr3 1_555 1_555
C3 O6 1_555 1_555
H3 C3 1_555 1_555
Zn3 O5 1_555 1_555
Cr3_5 O10 1_555 1_555
Cr4 O12 1_555 1_555
O15 Cr3_2 1_555 1_555
Zn3 O1 1_555 1_555
O1 C1 1_555 1_555
C1 H1 1_555 1_555
O9 Zn3 1_555 1_555
C5 O9 1_555 1_555
H5 C5 1_555 1_555
O11 Zn3 1_555 1_555
C6 O11 1_555 1_555
H6 C6 1_555 1_555
O13 Zn3 1_555 1_555
O14 Zn3 1_555 1_555
O17 Cr3_4 1_555 1_555
Cr3_7 O2 1_555 1_555
O16 Cr3_8 1_555 1_555
C6_2 O14 1_555 1_555
H6_2 C6_2 1_555 1_555
Cr4_3 O12_2 1_555 1_555
O12_3 C6_3 1_555 1_555
C6_3 O13 1_555 1_555
H6_3 C6_3 1_555 1_555
Cr4_4 O12_3 1_555 1_555
O16_2 Cr4 1_555 1_555
O17_2 Cr4_2 1_555 1_555
O15_2 Cr4_4 1_555 1_555
O7 C4 1_555 1_555
H4 C4 1_555 1_555
Zn2 O7 1_555 1_555
Zn2 O1_2 1_555 1_555
O1_2 C1_2 1_555 1_555
C1_2 H1_2 1_555 1_555
O3 Zn2 1_555 1_555
O16 C2 1_555 1_555
C2 O3 1_555 1_555
H2 C2 1_555 1_555
O11_2 Zn2 1_555 1_555
C6_4 O11_2 1_555 1_555
H6_4 C6_4 1_555 1_555
O13_2 Zn2 1_555 1_555
O14_2 Zn2 1_555 1_555
C6_5 O14_2 1_555 1_555
H6_5 C6_5 1_555 1_555
O16_2 C6_6 1_555 1_555
C6_6 O13_2 1_555 1_555
H6_6 C6_6 1_555 1_555

#END
