
###############################################################################
#
# This file contains modified crystal structure data generated from the
# MOF subset of the Cambridge Structural Database (CSD) v543 
# hosted by the Cambridge Crystallographic Data Centre (CCDC).
#
# This work is licensed under the Creative Commons
# Attribution-NonCommercial-ShareAlike 4.0 International License.
# To view a copy of this license, visit
# http://creativecommons.org/licenses/by-nc-sa/4.0/
# or send a letter to
# Creative Commons, PO Box 1866, Mountain View, CA 94042, USA.
#
# CIF created using the CSD Python API on 29 September 2022
# The structure has been converted into the P1 space group
# The structure has a 3D framework
# The original CSD entry RANWAH is in the cubic crystal system
# The framework has been calculated to contain at least 10.0% void space
# The void calculation uses a probe of radius 1.32A, grid spacing 0.4
# H atom positions have been added when not included in the experimental data
# Generated hydrogen atom positions removed from atoms on special positions
#
###############################################################################

data_RANWAH
_chemical_formula_moiety         '(C960 H1152 Mn144 O528 S192)n'
_symmetry_cell_setting           triclinic
_symmetry_space_group_name_H-M   'P 1'
_symmetry_Int_Tables_number      1
_space_group_name_Hall           'P 1'
loop_
_symmetry_equiv_pos_site_id
_symmetry_equiv_pos_as_xyz
1 x,y,z
_cell_length_a                   39.2006(3)
_cell_length_b                   39.2006(3)
_cell_length_c                   39.2006(3)
_cell_angle_alpha                90
_cell_angle_beta                 90
_cell_angle_gamma                90
_cell_volume                     60239.1
loop_
_atom_site_label
_atom_site_type_symbol
_atom_site_fract_x
_atom_site_fract_y
_atom_site_fract_z
Mn11 Mn -0.0000 0.31614(2) 0.77163(2)
O24 O -0.0000 0.35115(17) 0.81613(12)
O27 O 0.04092(7) 0.34404(7) 0.74589(7)
O28 O 0.03515(7) 0.28170(7) 0.79480(8)
Mn12 Mn -0.0000 0.27163(2) 0.68386(2)
Mn18 Mn -0.0000 0.22837(2) 0.81614(2)
O38 O -0.0000 0.18387(12) 0.85115(17)
O39 O 0.04092(7) 0.25411(7) 0.84404(7)
O41 O 0.03515(7) 0.20520(8) 0.78170(7)
Mn26 Mn -0.0000 0.27163(2) 0.31614(2)
O67 O -0.0000 0.31613(12) 0.35115(17)
O70 O 0.04092(7) 0.24589(7) 0.34404(7)
O71 O 0.03515(7) 0.29480(8) 0.28170(7)
Mn27 Mn -0.0000 0.18386(2) 0.27163(2)
Mn32 Mn -0.0000 0.31614(2) 0.22837(2)
O79 O -0.0000 0.35115(17) 0.18387(12)
O80 O 0.04092(7) 0.34404(7) 0.25411(7)
O82 O 0.03515(7) 0.28170(7) 0.20520(8)
Mn4 Mn 0.68386(2) 0.77163(2) -0.0000
Mn10 Mn 0.72837(2) 0.68386(2) -0.0000
Mn16 Mn 0.72837(2) 0.31614(2) -0.0000
Mn17 Mn 0.81614(2) 0.27163(2) -0.0000
Mn1 Mn 0.68386(2) 0.5000 0.77163(2)
S1 S 0.62990(3) 0.60091(3) 0.70936(3)
O1 O 0.64885(17) 0.5000 0.81613(12)
O2 O 0.65596(7) 0.54092(7) 0.74589(7)
O3 O 0.70520(8) 0.53515(7) 0.71830(7)
C1 C 0.67652(12) 0.54892(10) 0.72254(10)
C2 C 0.66652(12) 0.57756(10) 0.69992(9)
C3 C 0.68545(13) 0.58877(10) 0.67043(10)
H1 H 0.7059 0.5791 0.6618
C4 C 0.66670(11) 0.61814(11) 0.65646(10)
C5 C 0.63770(11) 0.62744(10) 0.67547(11)
S2 S 0.70936(3) 0.62990(3) 0.60091(3)
O4 O 0.74589(7) 0.65596(7) 0.54092(7)
O5 O 0.71830(7) 0.70520(8) 0.53515(7)
C6 C 0.72254(10) 0.67652(12) 0.54892(10)
C7 C 0.69992(9) 0.66652(12) 0.57756(10)
C8 C 0.67043(10) 0.68545(13) 0.58877(10)
H2 H 0.6618 0.7059 0.5791
C9 C 0.65646(10) 0.66670(11) 0.61814(11)
C10 C 0.67547(11) 0.63770(11) 0.62744(10)
S3 S 0.60091(3) 0.70936(3) 0.62990(3)
O6 O 0.54092(7) 0.74589(7) 0.65596(7)
O7 O 0.53515(7) 0.71830(7) 0.70520(8)
C11 C 0.54892(10) 0.72254(10) 0.67652(12)
C12 C 0.57756(10) 0.69992(9) 0.66652(12)
C13 C 0.58877(10) 0.67043(10) 0.68545(13)
H3 H 0.5791 0.6618 0.7059
C14 C 0.61814(11) 0.65646(10) 0.66670(11)
C15 C 0.62744(10) 0.67547(11) 0.63770(11)
S4 S 0.62990(3) 0.70936(3) 0.89909(3)
O8 O 0.65596(7) 0.74589(7) 0.95908(7)
O9 O 0.70520(8) 0.71830(7) 0.96485(7)
C16 C 0.67652(12) 0.72254(10) 0.95108(10)
C17 C 0.66652(12) 0.69992(9) 0.92244(10)
C18 C 0.68545(13) 0.67043(10) 0.91123(10)
H4 H 0.7059 0.6618 0.9209
C19 C 0.66670(11) 0.65646(10) 0.88186(11)
C20 C 0.63770(11) 0.67547(11) 0.87256(10)
S5 S 0.70936(3) 0.60091(3) 0.87010(3)
O10 O 0.74589(7) 0.54092(7) 0.84404(7)
O11 O 0.71830(7) 0.53515(7) 0.79480(8)
C21 C 0.72254(10) 0.54892(10) 0.82348(12)
C22 C 0.69992(9) 0.57756(10) 0.83348(12)
C23 C 0.67043(10) 0.58877(10) 0.81455(13)
H5 H 0.6618 0.5791 0.7941
C24 C 0.65646(10) 0.61814(11) 0.83330(11)
C25 C 0.67547(11) 0.62744(10) 0.86230(11)
S6 S 0.60091(3) 0.62990(3) 0.79064(3)
O12 O 0.54092(7) 0.65596(7) 0.75411(7)
O13 O 0.53515(7) 0.70520(8) 0.78170(7)
C26 C 0.54892(10) 0.67652(12) 0.77746(10)
C27 C 0.57756(10) 0.66652(12) 0.80008(9)
C28 C 0.58877(10) 0.68545(13) 0.82957(10)
H6 H 0.5791 0.7059 0.8382
C29 C 0.61814(11) 0.66670(11) 0.84354(10)
C30 C 0.62744(10) 0.63770(11) 0.82453(11)
Mn2 Mn 0.77163(2) 0.5000 0.81614(2)
O14 O 0.81613(12) 0.5000 0.85115(17)
Mn3 Mn 0.77163(2) 0.68386(2) 0.5000
O15 O 0.81613(12) 0.64885(17) 0.5000
Mn4_2 Mn 0.68386(2) 0.77163(2) 1.0000
Mn5 Mn 0.5000 0.77163(2) 0.68386(2)
Mn6 Mn 0.5000 0.68386(2) 0.72837(2)
Mn7 Mn 0.68386(2) 0.72837(2) 0.5000
Mn8 Mn 0.5000 0.72837(2) 0.81614(2)
Mn9 Mn 0.72837(2) 0.5000 0.68386(2)
Mn10_2 Mn 0.72837(2) 0.68386(2) 1.0000
O16 O 0.65596(7) 0.45908(7) 0.74589(7)
O17 O 0.74589(7) 0.45908(7) 0.84404(7)
O18 O 0.74589(7) 0.65596(7) 0.45908(7)
O19 O 0.79480(8) 0.53515(7) 0.78170(7)
O20 O 0.79480(8) 0.71830(7) 0.53515(7)
O21 O 0.71830(7) 0.46485(7) 0.79480(8)
O22 O 0.79480(8) 0.46485(7) 0.78170(7)
O23 O 0.79480(8) 0.71830(7) 0.46485(7)
Mn11_2 Mn 1.0000 0.31614(2) 0.77163(2)
O24_2 O 1.0000 0.35115(17) 0.81613(12)
O25 O 0.95908(7) 0.34404(7) 0.74589(7)
O26 O 0.96485(7) 0.28170(7) 0.79480(8)
S7 S 0.89909(3) 0.37010(3) 0.70936(3)
C31 C 0.92244(10) 0.33348(12) 0.69992(9)
C32 C 0.87256(10) 0.36230(11) 0.67547(11)
C33 C 0.95108(10) 0.32348(12) 0.72254(10)
O29 O 0.96485(7) 0.29480(8) 0.71830(7)
Mn12_2 Mn 1.0000 0.27163(2) 0.68386(2)
C34 C 0.91123(10) 0.31455(13) 0.67043(10)
H7 H 0.9209 0.2941 0.6618
C35 C 0.88186(11) 0.33330(11) 0.65646(10)
C36 C 0.86230(11) 0.32453(11) 0.62744(10)
C37 C 0.84354(10) 0.38186(11) 0.66670(11)
S8 S 0.87010(3) 0.29064(3) 0.60091(3)
C38 C 0.83348(12) 0.30008(9) 0.57756(10)
O30 O 0.84404(7) 0.25411(7) 0.54092(7)
C39 C 0.82348(12) 0.27746(10) 0.54892(10)
Mn13 Mn 0.81614(2) 0.22837(2) 0.5000
O31 O 0.79480(8) 0.28170(7) 0.53515(7)
Mn14 Mn 0.77163(2) 0.31614(2) 0.5000
C40 C 0.81455(13) 0.32957(10) 0.58877(10)
H8 H 0.7941 0.3382 0.5791
C41 C 0.83330(11) 0.34354(10) 0.61814(11)
C42 C 0.82453(11) 0.37256(10) 0.63770(11)
S9 S 0.79064(3) 0.39909(3) 0.62990(3)
C43 C 0.80008(9) 0.42244(10) 0.66652(12)
O32 O 0.75411(7) 0.45908(7) 0.65596(7)
C44 C 0.77746(10) 0.45108(10) 0.67652(12)
O33 O 0.78170(7) 0.46485(7) 0.70520(8)
Mn15 Mn 0.81614(2) 0.5000 0.72837(2)
C45 C 0.82957(10) 0.41123(10) 0.68545(13)
H9 H 0.8382 0.4209 0.7059
S10 S 0.79064(3) 0.37010(3) 0.89909(3)
C46 C 0.80008(9) 0.33348(12) 0.92244(10)
C47 C 0.82453(11) 0.36230(11) 0.87256(10)
O34 O 0.75411(7) 0.34404(7) 0.95908(7)
C48 C 0.77746(10) 0.32348(12) 0.95108(10)
Mn16_2 Mn 0.72837(2) 0.31614(2) 1.0000
O35 O 0.78170(7) 0.29480(8) 0.96485(7)
Mn17_2 Mn 0.81614(2) 0.27163(2) 1.0000
C49 C 0.82957(10) 0.31455(13) 0.91123(10)
H10 H 0.8382 0.2941 0.9209
C50 C 0.84354(10) 0.33330(11) 0.88186(11)
C51 C 0.87256(10) 0.32453(11) 0.86230(11)
C52 C 0.83330(11) 0.38186(11) 0.84354(10)
S11 S 0.89909(3) 0.29064(3) 0.87010(3)
C53 C 0.92244(10) 0.30008(9) 0.83348(12)
O36 O 0.95908(7) 0.25411(7) 0.84404(7)
C54 C 0.95108(10) 0.27746(10) 0.82348(12)
Mn18_2 Mn 1.0000 0.22837(2) 0.81614(2)
C55 C 0.91123(10) 0.32957(10) 0.81455(13)
H11 H 0.9209 0.3382 0.7941
C56 C 0.88186(11) 0.34354(10) 0.83330(11)
C57 C 0.86230(11) 0.37256(10) 0.82453(11)
S12 S 0.87010(3) 0.39909(3) 0.79064(3)
C58 C 0.83348(12) 0.42244(10) 0.80008(9)
O37 O 0.84404(7) 0.45908(7) 0.75411(7)
C59 C 0.82348(12) 0.45108(10) 0.77746(10)
C60 C 0.81455(13) 0.41123(10) 0.82957(10)
H12 H 0.7941 0.4209 0.8382
O38_2 O 1.0000 0.18387(12) 0.85115(17)
O40 O 0.96485(7) 0.20520(8) 0.78170(7)
O42 O 0.85115(17) 0.18387(12) 0.5000
O43 O 0.84404(7) 0.25411(7) 0.45908(7)
O44 O 0.78170(7) 0.20520(8) 0.53515(7)
O45 O 0.78170(7) 0.20520(8) 0.46485(7)
Mn19 Mn 0.68386(2) 0.27163(2) 0.5000
O46 O 0.64885(17) 0.31613(12) 0.5000
O47 O 0.65596(7) 0.24589(7) 0.54092(7)
O48 O 0.71830(7) 0.29480(8) 0.53515(7)
O49 O 0.65596(7) 0.24589(7) 0.45908(7)
O50 O 0.71830(7) 0.29480(8) 0.46485(7)
S13 S 0.62990(3) 0.20936(3) 0.60091(3)
C61 C 0.66652(12) 0.19992(9) 0.57756(10)
C62 C 0.63770(11) 0.17547(11) 0.62744(10)
C63 C 0.67652(12) 0.22254(10) 0.54892(10)
O51 O 0.70520(8) 0.21830(7) 0.53515(7)
Mn20 Mn 0.72837(2) 0.18386(2) 0.5000
C64 C 0.68545(13) 0.17043(10) 0.58877(10)
H13 H 0.7059 0.1618 0.5791
C65 C 0.66670(11) 0.15646(10) 0.61814(11)
C66 C 0.67547(11) 0.12744(10) 0.63770(11)
C67 C 0.61814(11) 0.16670(11) 0.65646(10)
S14 S 0.70936(3) 0.10091(3) 0.62990(3)
C68 C 0.69992(9) 0.07756(10) 0.66652(12)
O52 O 0.74589(7) 0.04092(7) 0.65596(7)
C69 C 0.72254(10) 0.04892(10) 0.67652(12)
Mn21 Mn 0.77163(2) -0.0000 0.68386(2)
O53 O 0.71830(7) 0.03515(7) 0.70520(8)
Mn22 Mn 0.68386(2) -0.0000 0.72837(2)
C70 C 0.67043(10) 0.08877(10) 0.68545(13)
H14 H 0.6618 0.0791 0.7059
C71 C 0.65646(10) 0.11814(11) 0.66670(11)
C72 C 0.62744(10) 0.13770(11) 0.67547(11)
S15 S 0.60091(3) 0.12990(3) 0.70936(3)
C73 C 0.57756(10) 0.16652(12) 0.69992(9)
O54 O 0.54092(7) 0.15596(7) 0.74589(7)
C74 C 0.54892(10) 0.17652(12) 0.72254(10)
Mn23 Mn 0.5000 0.18386(2) 0.77163(2)
O55 O 0.53515(7) 0.20520(8) 0.71830(7)
Mn24 Mn 0.5000 0.22837(2) 0.68386(2)
C75 C 0.58877(10) 0.18545(13) 0.67043(10)
H15 H 0.5791 0.2059 0.6618
S16 S 0.62990(3) 0.39909(3) 0.70936(3)
C76 C 0.66652(12) 0.42244(10) 0.69992(9)
C77 C 0.63770(11) 0.37256(10) 0.67547(11)
C78 C 0.67652(12) 0.45108(10) 0.72254(10)
O56 O 0.70520(8) 0.46485(7) 0.71830(7)
C79 C 0.68545(13) 0.41123(10) 0.67043(10)
H16 H 0.7059 0.4209 0.6618
C80 C 0.66670(11) 0.38186(11) 0.65646(10)
C81 C 0.67547(11) 0.36230(11) 0.62744(10)
C82 C 0.61814(11) 0.34354(10) 0.66670(11)
S17 S 0.70936(3) 0.37010(3) 0.60091(3)
C83 C 0.69992(9) 0.33348(12) 0.57756(10)
O57 O 0.74589(7) 0.34404(7) 0.54092(7)
C84 C 0.72254(10) 0.32348(12) 0.54892(10)
C85 C 0.67043(10) 0.31455(13) 0.58877(10)
H17 H 0.6618 0.2941 0.5791
C86 C 0.65646(10) 0.33330(11) 0.61814(11)
C87 C 0.62744(10) 0.32453(11) 0.63770(11)
S18 S 0.60091(3) 0.29064(3) 0.62990(3)
C88 C 0.57756(10) 0.30008(9) 0.66652(12)
O58 O 0.54092(7) 0.25411(7) 0.65596(7)
C89 C 0.54892(10) 0.27746(10) 0.67652(12)
O59 O 0.53515(7) 0.28170(7) 0.70520(8)
Mn25 Mn 0.5000 0.31614(2) 0.72837(2)
C90 C 0.58877(10) 0.32957(10) 0.68545(13)
H18 H 0.5791 0.3382 0.7059
O60 O 0.81613(12) 0.35115(17) 0.5000
O61 O 0.74589(7) 0.34404(7) 0.45908(7)
O62 O 0.79480(8) 0.28170(7) 0.46485(7)
O63 O 0.81613(12) 0.0000 0.64885(17)
O65 O 0.79480(8) 0.03515(7) 0.71830(7)
Mn26_2 Mn 1.0000 0.27163(2) 0.31614(2)
O67_2 O 1.0000 0.31613(12) 0.35115(17)
O68 O 0.95908(7) 0.24589(7) 0.34404(7)
O69 O 0.96485(7) 0.29480(8) 0.28170(7)
S19 S 0.89909(3) 0.20936(3) 0.37010(3)
C91 C 0.92244(10) 0.19992(9) 0.33348(12)
C92 C 0.87256(10) 0.17547(11) 0.36230(11)
C93 C 0.95108(10) 0.22254(10) 0.32348(12)
O72 O 0.96485(7) 0.21830(7) 0.29480(8)
Mn27_2 Mn 1.0000 0.18386(2) 0.27163(2)
C94 C 0.91123(10) 0.17043(10) 0.31455(13)
H19 H 0.9209 0.1618 0.2941
C95 C 0.88186(11) 0.15646(10) 0.33330(11)
C96 C 0.86230(11) 0.12744(10) 0.32453(11)
C97 C 0.84354(10) 0.16670(11) 0.38186(11)
S20 S 0.87010(3) 0.10091(3) 0.29064(3)
C98 C 0.83348(12) 0.07756(10) 0.30008(9)
O73 O 0.84404(7) 0.04092(7) 0.25411(7)
C99 C 0.82348(12) 0.04892(10) 0.27746(10)
Mn28 Mn 0.81614(2) 0.0000 0.22837(2)
O74 O 0.79480(8) 0.03515(7) 0.28170(7)
Mn29 Mn 0.77163(2) -0.0000 0.31614(2)
C100 C 0.81455(13) 0.08877(10) 0.32957(10)
H20 H 0.7941 0.0791 0.3382
C101 C 0.83330(11) 0.11814(11) 0.34354(10)
C102 C 0.82453(11) 0.13770(11) 0.37256(10)
S21 S 0.79064(3) 0.12990(3) 0.39909(3)
C103 C 0.80008(9) 0.16652(12) 0.42244(10)
O75 O 0.75411(7) 0.15596(7) 0.45908(7)
C104 C 0.77746(10) 0.17652(12) 0.45108(10)
C105 C 0.82957(10) 0.18545(13) 0.41123(10)
H21 H 0.8382 0.2059 0.4209
S22 S 0.79064(3) 0.39909(3) 0.37010(3)
C106 C 0.80008(9) 0.42244(10) 0.33348(12)
C107 C 0.82453(11) 0.37256(10) 0.36230(11)
O76 O 0.75411(7) 0.45908(7) 0.34404(7)
C108 C 0.77746(10) 0.45108(10) 0.32348(12)
Mn30 Mn 0.72837(2) 0.5000 0.31614(2)
O77 O 0.78170(7) 0.46485(7) 0.29480(8)
Mn31 Mn 0.81614(2) 0.5000 0.27163(2)
C109 C 0.82957(10) 0.41123(10) 0.31455(13)
H22 H 0.8382 0.4209 0.2941
C110 C 0.84354(10) 0.38186(11) 0.33330(11)
C111 C 0.87256(10) 0.36230(11) 0.32453(11)
C112 C 0.83330(11) 0.34354(10) 0.38186(11)
S23 S 0.89909(3) 0.37010(3) 0.29064(3)
C113 C 0.92244(10) 0.33348(12) 0.30008(9)
O78 O 0.95908(7) 0.34404(7) 0.25411(7)
C114 C 0.95108(10) 0.32348(12) 0.27746(10)
Mn32_2 Mn 1.0000 0.31614(2) 0.22837(2)
C115 C 0.91123(10) 0.31455(13) 0.32957(10)
H23 H 0.9209 0.2941 0.3382
C116 C 0.88186(11) 0.33330(11) 0.34354(10)
C117 C 0.86230(11) 0.32453(11) 0.37256(10)
S24 S 0.87010(3) 0.29064(3) 0.39909(3)
C118 C 0.83348(12) 0.30008(9) 0.42244(10)
C119 C 0.82348(12) 0.27746(10) 0.45108(10)
C120 C 0.81455(13) 0.32957(10) 0.41123(10)
H24 H 0.7941 0.3382 0.4209
O79_2 O 1.0000 0.35115(17) 0.18387(12)
O81 O 0.96485(7) 0.28170(7) 0.20520(8)
O83 O 0.85115(17) -0.0000 0.18387(12)
O85 O 0.78170(7) 0.03515(7) 0.20520(8)
Mn21_2 Mn 0.77163(2) 1.0000 0.68386(2)
Mn22_2 Mn 0.68386(2) 1.0000 0.72837(2)
O63_2 O 0.81613(12) 1.0000 0.64885(17)
O64 O 0.74589(7) 0.95908(7) 0.65596(7)
O66 O 0.79480(8) 0.96485(7) 0.71830(7)
Mn28_2 Mn 0.81614(2) 1.0000 0.22837(2)
Mn29_2 Mn 0.77163(2) 1.0000 0.31614(2)
O83_2 O 0.85115(17) 1.0000 0.18387(12)
O84 O 0.84404(7) 0.95908(7) 0.25411(7)
O86 O 0.78170(7) 0.96485(7) 0.20520(8)
Mn21_3 Mn 0.0000 0.77163(2) 0.18386(2)
Mn22_3 Mn 0.0000 0.68386(2) 0.22837(2)
O63_3 O 0.0000 0.81613(12) 0.14885(17)
O64_2 O 0.04092(7) 0.74589(7) 0.15596(7)
O66_2 O 0.03515(7) 0.79480(8) 0.21830(7)
Mn28_3 Mn -0.0000 0.81614(2) 0.72837(2)
Mn29_3 Mn -0.0000 0.77163(2) 0.81614(2)
O83_3 O -0.0000 0.85115(17) 0.68387(12)
O84_2 O 0.04092(7) 0.84404(7) 0.75411(7)
O86_2 O 0.03515(7) 0.78170(7) 0.70520(8)
Mn11_3 Mn 0.68386(2) -0.0000 0.27163(2)
O24_3 O 0.64885(17) -0.0000 0.31613(12)
O27_2 O 0.65596(7) 0.04092(7) 0.24589(7)
O28_2 O 0.71830(7) 0.03515(7) 0.29480(8)
Mn12_3 Mn 0.72837(2) -0.0000 0.18386(2)
O38_3 O 0.81613(12) -0.0000 0.35115(17)
O39_2 O 0.74589(7) 0.04092(7) 0.34404(7)
Mn26_3 Mn 0.72837(2) -0.0000 0.81614(2)
O67_3 O 0.68387(12) -0.0000 0.85115(17)
O70_2 O 0.75411(7) 0.04092(7) 0.84404(7)
O71_2 O 0.70520(8) 0.03515(7) 0.78170(7)
Mn27_3 Mn 0.81614(2) -0.0000 0.77163(2)
O79_3 O 0.64885(17) -0.0000 0.68387(12)
O80_2 O 0.65596(7) 0.04092(7) 0.75411(7)
Mn1_2 Mn 0.5000 0.68386(2) 0.27163(2)
S1_2 S 0.39909(3) 0.62990(3) 0.20936(3)
O1_2 O 0.5000 0.64885(17) 0.31613(12)
O2_2 O 0.45908(7) 0.65596(7) 0.24589(7)
O3_2 O 0.46485(7) 0.70520(8) 0.21830(7)
C1_2 C 0.45108(10) 0.67652(12) 0.22254(10)
C2_2 C 0.42244(10) 0.66652(12) 0.19992(9)
C3_2 C 0.41123(10) 0.68545(13) 0.17043(10)
H1_2 H 0.4209 0.7059 0.1618
C4_2 C 0.38186(11) 0.66670(11) 0.15646(10)
C5_2 C 0.37256(10) 0.63770(11) 0.17547(11)
S2_2 S 0.37010(3) 0.70936(3) 0.10091(3)
O4_2 O 0.34404(7) 0.74589(7) 0.04092(7)
O5_2 O 0.29480(8) 0.71830(7) 0.03515(7)
C6_2 C 0.32348(12) 0.72254(10) 0.04892(10)
C7_2 C 0.33348(12) 0.69992(9) 0.07756(10)
C8_2 C 0.31455(13) 0.67043(10) 0.08877(10)
H2_2 H 0.2941 0.6618 0.0791
C9_2 C 0.33330(11) 0.65646(10) 0.11814(11)
C10_2 C 0.36230(11) 0.67547(11) 0.12744(10)
S3_2 S 0.29064(3) 0.60091(3) 0.12990(3)
O6_2 O 0.25411(7) 0.54092(7) 0.15596(7)
O7_2 O 0.28170(7) 0.53515(7) 0.20520(8)
C11_2 C 0.27746(10) 0.54892(10) 0.17652(12)
C12_2 C 0.30008(9) 0.57756(10) 0.16652(12)
C13_2 C 0.32957(10) 0.58877(10) 0.18545(13)
H3_2 H 0.3382 0.5791 0.2059
C14_2 C 0.34354(10) 0.61814(11) 0.16670(11)
C15_2 C 0.32453(11) 0.62744(10) 0.13770(11)
S4_2 S 0.29064(3) 0.62990(3) 0.39909(3)
O8_2 O 0.25411(7) 0.65596(7) 0.45908(7)
O9_2 O 0.28170(7) 0.70520(8) 0.46485(7)
C16_2 C 0.27746(10) 0.67652(12) 0.45108(10)
C17_2 C 0.30008(9) 0.66652(12) 0.42244(10)
C18_2 C 0.32957(10) 0.68545(13) 0.41123(10)
H4_2 H 0.3382 0.7059 0.4209
C19_2 C 0.34354(10) 0.66670(11) 0.38186(11)
C20_2 C 0.32453(11) 0.63770(11) 0.37256(10)
S5_2 S 0.39909(3) 0.70936(3) 0.37010(3)
O10_2 O 0.45908(7) 0.74589(7) 0.34404(7)
O11_2 O 0.46485(7) 0.71830(7) 0.29480(8)
C21_2 C 0.45108(10) 0.72254(10) 0.32348(12)
C22_2 C 0.42244(10) 0.69992(9) 0.33348(12)
C23_2 C 0.41123(10) 0.67043(10) 0.31455(13)
H5_2 H 0.4209 0.6618 0.2941
C24_2 C 0.38186(11) 0.65646(10) 0.33330(11)
C25_2 C 0.37256(10) 0.67547(11) 0.36230(11)
S6_2 S 0.37010(3) 0.60091(3) 0.29064(3)
O12_2 O 0.34404(7) 0.54092(7) 0.25411(7)
O13_2 O 0.29480(8) 0.53515(7) 0.28170(7)
C26_2 C 0.32348(12) 0.54892(10) 0.27746(10)
C27_2 C 0.33348(12) 0.57756(10) 0.30008(9)
C28_2 C 0.31455(13) 0.58877(10) 0.32957(10)
H6_2 H 0.2941 0.5791 0.3382
C29_2 C 0.33330(11) 0.61814(11) 0.34354(10)
C30_2 C 0.36230(11) 0.62744(10) 0.32453(11)
Mn2_2 Mn 0.5000 0.77163(2) 0.31614(2)
O14_2 O 0.5000 0.81613(12) 0.35115(17)
Mn3_2 Mn 0.31614(2) 0.77163(2) -0.0000
O15_2 O 0.35115(17) 0.81613(12) -0.0000
Mn4_3 Mn 0.22837(2) 0.68386(2) 0.5000
Mn5_2 Mn 0.22837(2) 0.5000 0.18386(2)
Mn6_2 Mn 0.31614(2) 0.5000 0.22837(2)
Mn7_2 Mn 0.27163(2) 0.68386(2) -0.0000
Mn8_2 Mn 0.27163(2) 0.5000 0.31614(2)
Mn9_2 Mn 0.5000 0.72837(2) 0.18386(2)
Mn10_3 Mn 0.31614(2) 0.72837(2) 0.5000
O16_2 O 0.54092(7) 0.65596(7) 0.24589(7)
O17_2 O 0.54092(7) 0.74589(7) 0.34404(7)
O19_2 O 0.46485(7) 0.79480(8) 0.28170(7)
O20_2 O 0.28170(7) 0.79480(8) 0.03515(7)
O21_2 O 0.53515(7) 0.71830(7) 0.29480(8)
O22_2 O 0.53515(7) 0.79480(8) 0.28170(7)
Mn11_4 Mn 0.68386(2) 1.0000 0.27163(2)
O24_4 O 0.64885(17) 1.0000 0.31613(12)
O25_2 O 0.65596(7) 0.95908(7) 0.24589(7)
O26_2 O 0.71830(7) 0.96485(7) 0.29480(8)
S7_2 S 0.62990(3) 0.89909(3) 0.20936(3)
C31_2 C 0.66652(12) 0.92244(10) 0.19992(9)
C32_2 C 0.63770(11) 0.87256(10) 0.17547(11)
C33_2 C 0.67652(12) 0.95108(10) 0.22254(10)
O29_2 O 0.70520(8) 0.96485(7) 0.21830(7)
Mn12_4 Mn 0.72837(2) 1.0000 0.18386(2)
C34_2 C 0.68545(13) 0.91123(10) 0.17043(10)
H7_2 H 0.7059 0.9209 0.1618
C35_2 C 0.66670(11) 0.88186(11) 0.15646(10)
C36_2 C 0.67547(11) 0.86230(11) 0.12744(10)
C37_2 C 0.61814(11) 0.84354(10) 0.16670(11)
S8_2 S 0.70936(3) 0.87010(3) 0.10091(3)
C38_2 C 0.69992(9) 0.83348(12) 0.07756(10)
O30_2 O 0.74589(7) 0.84404(7) 0.04092(7)
C39_2 C 0.72254(10) 0.82348(12) 0.04892(10)
Mn13_2 Mn 0.77163(2) 0.81614(2) -0.0000
O31_2 O 0.71830(7) 0.79480(8) 0.03515(7)
C40_2 C 0.67043(10) 0.81455(13) 0.08877(10)
H8_2 H 0.6618 0.7941 0.0791
C41_2 C 0.65646(10) 0.83330(11) 0.11814(11)
C42_2 C 0.62744(10) 0.82453(11) 0.13770(11)
S9_2 S 0.60091(3) 0.79064(3) 0.12990(3)
C43_2 C 0.57756(10) 0.80008(9) 0.16652(12)
O32_2 O 0.54092(7) 0.75411(7) 0.15596(7)
C44_2 C 0.54892(10) 0.77746(10) 0.17652(12)
O33_2 O 0.53515(7) 0.78170(7) 0.20520(8)
Mn15_2 Mn 0.5000 0.81614(2) 0.22837(2)
C45_2 C 0.58877(10) 0.82957(10) 0.18545(13)
H9_2 H 0.5791 0.8382 0.2059
S10_2 S 0.62990(3) 0.79064(3) 0.39909(3)
C46_2 C 0.66652(12) 0.80008(9) 0.42244(10)
C47_2 C 0.63770(11) 0.82453(11) 0.37256(10)
O34_2 O 0.65596(7) 0.75411(7) 0.45908(7)
C48_2 C 0.67652(12) 0.77746(10) 0.45108(10)
O35_2 O 0.70520(8) 0.78170(7) 0.46485(7)
Mn17_3 Mn 0.72837(2) 0.81614(2) 0.5000
C49_2 C 0.68545(13) 0.82957(10) 0.41123(10)
H10_2 H 0.7059 0.8382 0.4209
C50_2 C 0.66670(11) 0.84354(10) 0.38186(11)
C51_2 C 0.67547(11) 0.87256(10) 0.36230(11)
C52_2 C 0.61814(11) 0.83330(11) 0.34354(10)
S11_2 S 0.70936(3) 0.89909(3) 0.37010(3)
C53_2 C 0.69992(9) 0.92244(10) 0.33348(12)
O36_2 O 0.74589(7) 0.95908(7) 0.34404(7)
C54_2 C 0.72254(10) 0.95108(10) 0.32348(12)
C55_2 C 0.67043(10) 0.91123(10) 0.31455(13)
H11_2 H 0.6618 0.9209 0.2941
C56_2 C 0.65646(10) 0.88186(11) 0.33330(11)
C57_2 C 0.62744(10) 0.86230(11) 0.32453(11)
S12_2 S 0.60091(3) 0.87010(3) 0.29064(3)
C58_2 C 0.57756(10) 0.83348(12) 0.30008(9)
O37_2 O 0.54092(7) 0.84404(7) 0.25411(7)
C59_2 C 0.54892(10) 0.82348(12) 0.27746(10)
C60_2 C 0.58877(10) 0.81455(13) 0.32957(10)
H12_2 H 0.5791 0.7941 0.3382
O38_4 O 0.81613(12) 1.0000 0.35115(17)
O40_2 O 0.79480(8) 0.96485(7) 0.28170(7)
O42_2 O 0.81613(12) 0.85115(17) -0.0000
O44_2 O 0.79480(8) 0.78170(7) 0.03515(7)
O46_2 O 0.68387(12) 0.64885(17) -0.0000
O47_2 O 0.75411(7) 0.65596(7) 0.04092(7)
O48_2 O 0.70520(8) 0.71830(7) 0.03515(7)
S13_2 S 0.79064(3) 0.62990(3) 0.10091(3)
C61_2 C 0.80008(9) 0.66652(12) 0.07756(10)
C62_2 C 0.82453(11) 0.63770(11) 0.12744(10)
C63_2 C 0.77746(10) 0.67652(12) 0.04892(10)
O51_2 O 0.78170(7) 0.70520(8) 0.03515(7)
Mn20_2 Mn 0.81614(2) 0.72837(2) -0.0000
C64_2 C 0.82957(10) 0.68545(13) 0.08877(10)
H13_2 H 0.8382 0.7059 0.0791
C65_2 C 0.84354(10) 0.66670(11) 0.11814(11)
C66_2 C 0.87256(10) 0.67547(11) 0.13770(11)
C67_2 C 0.83330(11) 0.61814(11) 0.15646(10)
S14_2 S 0.89909(3) 0.70936(3) 0.12990(3)
C68_2 C 0.92244(10) 0.69992(9) 0.16652(12)
O52_2 O 0.95908(7) 0.74589(7) 0.15596(7)
C69_2 C 0.95108(10) 0.72254(10) 0.17652(12)
Mn21_4 Mn 1.0000 0.77163(2) 0.18386(2)
O53_2 O 0.96485(7) 0.71830(7) 0.20520(8)
Mn22_4 Mn 1.0000 0.68386(2) 0.22837(2)
C70_2 C 0.91123(10) 0.67043(10) 0.18545(13)
H14_2 H 0.9209 0.6618 0.2059
C71_2 C 0.88186(11) 0.65646(10) 0.16670(11)
C72_2 C 0.86230(11) 0.62744(10) 0.17547(11)
S15_2 S 0.87010(3) 0.60091(3) 0.20936(3)
C73_2 C 0.83348(12) 0.57756(10) 0.19992(9)
O54_2 O 0.84404(7) 0.54092(7) 0.24589(7)
C74_2 C 0.82348(12) 0.54892(10) 0.22254(10)
O55_2 O 0.79480(8) 0.53515(7) 0.21830(7)
Mn24_2 Mn 0.77163(2) 0.5000 0.18386(2)
C75_2 C 0.81455(13) 0.58877(10) 0.17043(10)
H15_2 H 0.7941 0.5791 0.1618
S16_2 S 0.60091(3) 0.62990(3) 0.20936(3)
C76_2 C 0.57756(10) 0.66652(12) 0.19992(9)
C77_2 C 0.62744(10) 0.63770(11) 0.17547(11)
C78_2 C 0.54892(10) 0.67652(12) 0.22254(10)
O56_2 O 0.53515(7) 0.70520(8) 0.21830(7)
C79_2 C 0.58877(10) 0.68545(13) 0.17043(10)
H16_2 H 0.5791 0.7059 0.1618
C80_2 C 0.61814(11) 0.66670(11) 0.15646(10)
C81_2 C 0.63770(11) 0.67547(11) 0.12744(10)
C82_2 C 0.65646(10) 0.61814(11) 0.16670(11)
S17_2 S 0.62990(3) 0.70936(3) 0.10091(3)
C83_2 C 0.66652(12) 0.69992(9) 0.07756(10)
O57_2 O 0.65596(7) 0.74589(7) 0.04092(7)
C84_2 C 0.67652(12) 0.72254(10) 0.04892(10)
C85_2 C 0.68545(13) 0.67043(10) 0.08877(10)
H17_2 H 0.7059 0.6618 0.0791
C86_2 C 0.66670(11) 0.65646(10) 0.11814(11)
C87_2 C 0.67547(11) 0.62744(10) 0.13770(11)
S18_2 S 0.70936(3) 0.60091(3) 0.12990(3)
C88_2 C 0.69992(9) 0.57756(10) 0.16652(12)
O58_2 O 0.74589(7) 0.54092(7) 0.15596(7)
C89_2 C 0.72254(10) 0.54892(10) 0.17652(12)
O59_2 O 0.71830(7) 0.53515(7) 0.20520(8)
Mn25_2 Mn 0.68386(2) 0.5000 0.22837(2)
C90_2 C 0.67043(10) 0.58877(10) 0.18545(13)
H18_2 H 0.6618 0.5791 0.2059
O60_2 O 0.64885(17) 0.81613(12) -0.0000
O63_4 O 1.0000 0.81613(12) 0.14885(17)
O65_2 O 0.96485(7) 0.79480(8) 0.21830(7)
Mn3_3 Mn 0.31614(2) 0.77163(2) 1.0000
O15_3 O 0.35115(17) 0.81613(12) 1.0000
Mn7_3 Mn 0.27163(2) 0.68386(2) 1.0000
O18_2 O 0.34404(7) 0.74589(7) 0.95908(7)
O23_2 O 0.28170(7) 0.79480(8) 0.96485(7)
Mn13_3 Mn 0.77163(2) 0.81614(2) 1.0000
O42_3 O 0.81613(12) 0.85115(17) 1.0000
O43_2 O 0.74589(7) 0.84404(7) 0.95908(7)
O45_2 O 0.79480(8) 0.78170(7) 0.96485(7)
O46_3 O 0.68387(12) 0.64885(17) 1.0000
O49_2 O 0.75411(7) 0.65596(7) 0.95908(7)
Mn20_3 Mn 0.81614(2) 0.72837(2) 1.0000
O60_3 O 0.64885(17) 0.81613(12) 1.0000
O62_2 O 0.71830(7) 0.79480(8) 0.96485(7)
Mn26_4 Mn 0.72837(2) 1.0000 0.81614(2)
O67_4 O 0.68387(12) 1.0000 0.85115(17)
O68_2 O 0.75411(7) 0.95908(7) 0.84404(7)
O69_2 O 0.70520(8) 0.96485(7) 0.78170(7)
S19_2 S 0.79064(3) 0.89909(3) 0.87010(3)
C91_2 C 0.80008(9) 0.92244(10) 0.83348(12)
C92_2 C 0.82453(11) 0.87256(10) 0.86230(11)
C93_2 C 0.77746(10) 0.95108(10) 0.82348(12)
O72_2 O 0.78170(7) 0.96485(7) 0.79480(8)
Mn27_4 Mn 0.81614(2) 1.0000 0.77163(2)
C94_2 C 0.82957(10) 0.91123(10) 0.81455(13)
H19_2 H 0.8382 0.9209 0.7941
C95_2 C 0.84354(10) 0.88186(11) 0.83330(11)
C96_2 C 0.87256(10) 0.86230(11) 0.82453(11)
C97_2 C 0.83330(11) 0.84354(10) 0.88186(11)
S20_2 S 0.89909(3) 0.87010(3) 0.79064(3)
C98_2 C 0.92244(10) 0.83348(12) 0.80008(9)
O73_2 O 0.95908(7) 0.84404(7) 0.75411(7)
C99_2 C 0.95108(10) 0.82348(12) 0.77746(10)
Mn28_4 Mn 1.0000 0.81614(2) 0.72837(2)
O74_2 O 0.96485(7) 0.79480(8) 0.78170(7)
Mn29_4 Mn 1.0000 0.77163(2) 0.81614(2)
C100_2 C 0.91123(10) 0.81455(13) 0.82957(10)
H20_2 H 0.9209 0.7941 0.8382
C101_2 C 0.88186(11) 0.83330(11) 0.84354(10)
C102_2 C 0.86230(11) 0.82453(11) 0.87256(10)
S21_2 S 0.87010(3) 0.79064(3) 0.89909(3)
C103_2 C 0.83348(12) 0.80008(9) 0.92244(10)
O75_2 O 0.84404(7) 0.75411(7) 0.95908(7)
C104_2 C 0.82348(12) 0.77746(10) 0.95108(10)
C105_2 C 0.81455(13) 0.82957(10) 0.91123(10)
H21_2 H 0.7941 0.8382 0.9209
S22_2 S 0.60091(3) 0.79064(3) 0.87010(3)
C106_2 C 0.57756(10) 0.80008(9) 0.83348(12)
C107_2 C 0.62744(10) 0.82453(11) 0.86230(11)
O76_2 O 0.54092(7) 0.75411(7) 0.84404(7)
C108_2 C 0.54892(10) 0.77746(10) 0.82348(12)
O77_2 O 0.53515(7) 0.78170(7) 0.79480(8)
Mn31_2 Mn 0.5000 0.81614(2) 0.77163(2)
C109_2 C 0.58877(10) 0.82957(10) 0.81455(13)
H22_2 H 0.5791 0.8382 0.7941
C110_2 C 0.61814(11) 0.84354(10) 0.83330(11)
C111_2 C 0.63770(11) 0.87256(10) 0.82453(11)
C112_2 C 0.65646(10) 0.83330(11) 0.88186(11)
S23_2 S 0.62990(3) 0.89909(3) 0.79064(3)
C113_2 C 0.66652(12) 0.92244(10) 0.80008(9)
O78_2 O 0.65596(7) 0.95908(7) 0.75411(7)
C114_2 C 0.67652(12) 0.95108(10) 0.77746(10)
C115_2 C 0.68545(13) 0.91123(10) 0.82957(10)
H23_2 H 0.7059 0.9209 0.8382
C116_2 C 0.66670(11) 0.88186(11) 0.84354(10)
C117_2 C 0.67547(11) 0.86230(11) 0.87256(10)
S24_2 S 0.70936(3) 0.87010(3) 0.89909(3)
C118_2 C 0.69992(9) 0.83348(12) 0.92244(10)
C119_2 C 0.72254(10) 0.82348(12) 0.95108(10)
C120_2 C 0.67043(10) 0.81455(13) 0.91123(10)
H24_2 H 0.6618 0.7941 0.9209
O79_4 O 0.64885(17) 1.0000 0.68387(12)
O81_2 O 0.71830(7) 0.96485(7) 0.70520(8)
O83_4 O 1.0000 0.85115(17) 0.68387(12)
O85_2 O 0.96485(7) 0.78170(7) 0.70520(8)
Mn21_5 Mn 0.22837(2) 0.0000 0.68386(2)
Mn22_5 Mn 0.31614(2) 0.0000 0.72837(2)
O63_5 O 0.18387(12) 0.0000 0.64885(17)
O64_3 O 0.25411(7) 0.04092(7) 0.65596(7)
O66_3 O 0.20520(8) 0.03515(7) 0.71830(7)
Mn28_5 Mn 0.18386(2) 0.0000 0.22837(2)
Mn29_5 Mn 0.22837(2) 0.0000 0.31614(2)
O83_5 O 0.14885(17) 0.0000 0.18387(12)
O84_3 O 0.15596(7) 0.04092(7) 0.25411(7)
O86_3 O 0.21830(7) 0.03515(7) 0.20520(8)
Mn4_4 Mn 0.31614(2) 0.22837(2) -0.0000
Mn10_4 Mn 0.27163(2) 0.31614(2) -0.0000
Mn17_4 Mn 0.18386(2) 0.72837(2) -0.0000
Mn1_3 Mn 0.31614(2) 0.5000 0.77163(2)
S1_3 S 0.37010(3) 0.39909(3) 0.70936(3)
O1_3 O 0.35115(17) 0.5000 0.81613(12)
O2_3 O 0.34404(7) 0.45908(7) 0.74589(7)
O3_3 O 0.29480(8) 0.46485(7) 0.71830(7)
C1_3 C 0.32348(12) 0.45108(10) 0.72254(10)
C2_3 C 0.33348(12) 0.42244(10) 0.69992(9)
C3_3 C 0.31455(13) 0.41123(10) 0.67043(10)
H1_3 H 0.2941 0.4209 0.6618
C4_3 C 0.33330(11) 0.38186(11) 0.65646(10)
C5_3 C 0.36230(11) 0.37256(10) 0.67547(11)
S2_3 S 0.29064(3) 0.37010(3) 0.60091(3)
O4_3 O 0.25411(7) 0.34404(7) 0.54092(7)
O5_3 O 0.28170(7) 0.29480(8) 0.53515(7)
C6_3 C 0.27746(10) 0.32348(12) 0.54892(10)
C7_3 C 0.30008(9) 0.33348(12) 0.57756(10)
C8_3 C 0.32957(10) 0.31455(13) 0.58877(10)
H2_3 H 0.3382 0.2941 0.5791
C9_3 C 0.34354(10) 0.33330(11) 0.61814(11)
C10_3 C 0.32453(11) 0.36230(11) 0.62744(10)
S3_3 S 0.39909(3) 0.29064(3) 0.62990(3)
O6_3 O 0.45908(7) 0.25411(7) 0.65596(7)
O7_3 O 0.46485(7) 0.28170(7) 0.70520(8)
C11_3 C 0.45108(10) 0.27746(10) 0.67652(12)
C12_3 C 0.42244(10) 0.30008(9) 0.66652(12)
C13_3 C 0.41123(10) 0.32957(10) 0.68545(13)
H3_3 H 0.4209 0.3382 0.7059
C14_3 C 0.38186(11) 0.34354(10) 0.66670(11)
C15_3 C 0.37256(10) 0.32453(11) 0.63770(11)
S4_3 S 0.37010(3) 0.29064(3) 0.89909(3)
O8_3 O 0.34404(7) 0.25411(7) 0.95908(7)
O9_3 O 0.29480(8) 0.28170(7) 0.96485(7)
C16_3 C 0.32348(12) 0.27746(10) 0.95108(10)
C17_3 C 0.33348(12) 0.30008(9) 0.92244(10)
C18_3 C 0.31455(13) 0.32957(10) 0.91123(10)
H4_3 H 0.2941 0.3382 0.9209
C19_3 C 0.33330(11) 0.34354(10) 0.88186(11)
C20_3 C 0.36230(11) 0.32453(11) 0.87256(10)
S5_3 S 0.29064(3) 0.39909(3) 0.87010(3)
O10_3 O 0.25411(7) 0.45908(7) 0.84404(7)
O11_3 O 0.28170(7) 0.46485(7) 0.79480(8)
C21_3 C 0.27746(10) 0.45108(10) 0.82348(12)
C22_3 C 0.30008(9) 0.42244(10) 0.83348(12)
C23_3 C 0.32957(10) 0.41123(10) 0.81455(13)
H5_3 H 0.3382 0.4209 0.7941
C24_3 C 0.34354(10) 0.38186(11) 0.83330(11)
C25_3 C 0.32453(11) 0.37256(10) 0.86230(11)
S6_3 S 0.39909(3) 0.37010(3) 0.79064(3)
O12_3 O 0.45908(7) 0.34404(7) 0.75411(7)
O13_3 O 0.46485(7) 0.29480(8) 0.78170(7)
C26_3 C 0.45108(10) 0.32348(12) 0.77746(10)
C27_3 C 0.42244(10) 0.33348(12) 0.80008(9)
C28_3 C 0.41123(10) 0.31455(13) 0.82957(10)
H6_3 H 0.4209 0.2941 0.8382
C29_3 C 0.38186(11) 0.33330(11) 0.84354(10)
C30_3 C 0.37256(10) 0.36230(11) 0.82453(11)
Mn2_3 Mn 0.22837(2) 0.5000 0.81614(2)
O14_3 O 0.18387(12) 0.5000 0.85115(17)
Mn3_4 Mn 0.22837(2) 0.31614(2) 0.5000
O15_4 O 0.18387(12) 0.35115(17) 0.5000
Mn4_5 Mn 0.31614(2) 0.22837(2) 1.0000
Mn7_4 Mn 0.31614(2) 0.27163(2) 0.5000
Mn8_3 Mn 0.5000 0.27163(2) 0.81614(2)
Mn9_3 Mn 0.27163(2) 0.5000 0.68386(2)
Mn10_5 Mn 0.27163(2) 0.31614(2) 1.0000
O16_3 O 0.34404(7) 0.54092(7) 0.74589(7)
O17_3 O 0.25411(7) 0.54092(7) 0.84404(7)
O18_3 O 0.25411(7) 0.34404(7) 0.45908(7)
O19_3 O 0.20520(8) 0.46485(7) 0.78170(7)
O20_3 O 0.20520(8) 0.28170(7) 0.53515(7)
O21_3 O 0.28170(7) 0.53515(7) 0.79480(8)
O22_3 O 0.20520(8) 0.53515(7) 0.78170(7)
O23_3 O 0.20520(8) 0.28170(7) 0.46485(7)
Mn11_5 Mn 0.0000 0.68386(2) 0.77163(2)
O24_5 O 0.0000 0.64885(17) 0.81613(12)
O25_3 O 0.04092(7) 0.65596(7) 0.74589(7)
O26_3 O 0.03515(7) 0.71830(7) 0.79480(8)
S7_3 S 0.10091(3) 0.62990(3) 0.70936(3)
C31_3 C 0.07756(10) 0.66652(12) 0.69992(9)
C32_3 C 0.12744(10) 0.63770(11) 0.67547(11)
C33_3 C 0.04892(10) 0.67652(12) 0.72254(10)
O29_3 O 0.03515(7) 0.70520(8) 0.71830(7)
Mn12_5 Mn 0.0000 0.72837(2) 0.68386(2)
C34_3 C 0.08877(10) 0.68545(13) 0.67043(10)
H7_3 H 0.0791 0.7059 0.6618
C35_3 C 0.11814(11) 0.66670(11) 0.65646(10)
C36_3 C 0.13770(11) 0.67547(11) 0.62744(10)
C37_3 C 0.15646(10) 0.61814(11) 0.66670(11)
S8_3 S 0.12990(3) 0.70936(3) 0.60091(3)
C38_3 C 0.16652(12) 0.69992(9) 0.57756(10)
O30_3 O 0.15596(7) 0.74589(7) 0.54092(7)
C39_3 C 0.17652(12) 0.72254(10) 0.54892(10)
Mn13_4 Mn 0.18386(2) 0.77163(2) 0.5000
O31_3 O 0.20520(8) 0.71830(7) 0.53515(7)
C40_3 C 0.18545(13) 0.67043(10) 0.58877(10)
H8_3 H 0.2059 0.6618 0.5791
C41_3 C 0.16670(11) 0.65646(10) 0.61814(11)
C42_3 C 0.17547(11) 0.62744(10) 0.63770(11)
S9_3 S 0.20936(3) 0.60091(3) 0.62990(3)
C43_3 C 0.19992(9) 0.57756(10) 0.66652(12)
O32_3 O 0.24589(7) 0.54092(7) 0.65596(7)
C44_3 C 0.22254(10) 0.54892(10) 0.67652(12)
O33_3 O 0.21830(7) 0.53515(7) 0.70520(8)
Mn15_3 Mn 0.18386(2) 0.5000 0.72837(2)
C45_3 C 0.17043(10) 0.58877(10) 0.68545(13)
H9_3 H 0.1618 0.5791 0.7059
S10_3 S 0.20936(3) 0.62990(3) 0.89909(3)
C46_3 C 0.19992(9) 0.66652(12) 0.92244(10)
C47_3 C 0.17547(11) 0.63770(11) 0.87256(10)
O34_3 O 0.24589(7) 0.65596(7) 0.95908(7)
C48_3 C 0.22254(10) 0.67652(12) 0.95108(10)
O35_3 O 0.21830(7) 0.70520(8) 0.96485(7)
Mn17_5 Mn 0.18386(2) 0.72837(2) 1.0000
C49_3 C 0.17043(10) 0.68545(13) 0.91123(10)
H10_3 H 0.1618 0.7059 0.9209
C50_3 C 0.15646(10) 0.66670(11) 0.88186(11)
C51_3 C 0.12744(10) 0.67547(11) 0.86230(11)
C52_3 C 0.16670(11) 0.61814(11) 0.84354(10)
S11_3 S 0.10091(3) 0.70936(3) 0.87010(3)
C53_3 C 0.07756(10) 0.69992(9) 0.83348(12)
O36_3 O 0.04092(7) 0.74589(7) 0.84404(7)
C54_3 C 0.04892(10) 0.72254(10) 0.82348(12)
C55_3 C 0.08877(10) 0.67043(10) 0.81455(13)
H11_3 H 0.0791 0.6618 0.7941
C56_3 C 0.11814(11) 0.65646(10) 0.83330(11)
C57_3 C 0.13770(11) 0.62744(10) 0.82453(11)
S12_3 S 0.12990(3) 0.60091(3) 0.79064(3)
C58_3 C 0.16652(12) 0.57756(10) 0.80008(9)
O37_3 O 0.15596(7) 0.54092(7) 0.75411(7)
C59_3 C 0.17652(12) 0.54892(10) 0.77746(10)
C60_3 C 0.18545(13) 0.58877(10) 0.82957(10)
H12_3 H 0.2059 0.5791 0.8382
O38_5 O 0.0000 0.81613(12) 0.85115(17)
O40_3 O 0.03515(7) 0.79480(8) 0.78170(7)
O42_4 O 0.14885(17) 0.81613(12) 0.5000
O43_3 O 0.15596(7) 0.74589(7) 0.45908(7)
O44_3 O 0.21830(7) 0.79480(8) 0.53515(7)
O45_3 O 0.21830(7) 0.79480(8) 0.46485(7)
O46_4 O 0.35115(17) 0.68387(12) 0.5000
O47_3 O 0.34404(7) 0.75411(7) 0.54092(7)
O48_3 O 0.28170(7) 0.70520(8) 0.53515(7)
O49_3 O 0.34404(7) 0.75411(7) 0.45908(7)
S13_3 S 0.37010(3) 0.79064(3) 0.60091(3)
C61_3 C 0.33348(12) 0.80008(9) 0.57756(10)
C62_3 C 0.36230(11) 0.82453(11) 0.62744(10)
C63_3 C 0.32348(12) 0.77746(10) 0.54892(10)
O51_3 O 0.29480(8) 0.78170(7) 0.53515(7)
Mn20_4 Mn 0.27163(2) 0.81614(2) 0.5000
C64_3 C 0.31455(13) 0.82957(10) 0.58877(10)
H13_3 H 0.2941 0.8382 0.5791
C65_3 C 0.33330(11) 0.84354(10) 0.61814(11)
C66_3 C 0.32453(11) 0.87256(10) 0.63770(11)
C67_3 C 0.38186(11) 0.83330(11) 0.65646(10)
S14_3 S 0.29064(3) 0.89909(3) 0.62990(3)
C68_3 C 0.30008(9) 0.92244(10) 0.66652(12)
O52_3 O 0.25411(7) 0.95908(7) 0.65596(7)
C69_3 C 0.27746(10) 0.95108(10) 0.67652(12)
Mn21_6 Mn 0.22837(2) 1.0000 0.68386(2)
O53_3 O 0.28170(7) 0.96485(7) 0.70520(8)
Mn22_6 Mn 0.31614(2) 1.0000 0.72837(2)
C70_3 C 0.32957(10) 0.91123(10) 0.68545(13)
H14_3 H 0.3382 0.9209 0.7059
C71_3 C 0.34354(10) 0.88186(11) 0.66670(11)
C72_3 C 0.37256(10) 0.86230(11) 0.67547(11)
S15_3 S 0.39909(3) 0.87010(3) 0.70936(3)
C73_3 C 0.42244(10) 0.83348(12) 0.69992(9)
O54_3 O 0.45908(7) 0.84404(7) 0.74589(7)
C74_3 C 0.45108(10) 0.82348(12) 0.72254(10)
O55_3 O 0.46485(7) 0.79480(8) 0.71830(7)
C75_3 C 0.41123(10) 0.81455(13) 0.67043(10)
H15_3 H 0.4209 0.7941 0.6618
S16_3 S 0.37010(3) 0.60091(3) 0.70936(3)
C76_3 C 0.33348(12) 0.57756(10) 0.69992(9)
C77_3 C 0.36230(11) 0.62744(10) 0.67547(11)
C78_3 C 0.32348(12) 0.54892(10) 0.72254(10)
O56_3 O 0.29480(8) 0.53515(7) 0.71830(7)
C79_3 C 0.31455(13) 0.58877(10) 0.67043(10)
H16_3 H 0.2941 0.5791 0.6618
C80_3 C 0.33330(11) 0.61814(11) 0.65646(10)
C81_3 C 0.32453(11) 0.63770(11) 0.62744(10)
C82_3 C 0.38186(11) 0.65646(10) 0.66670(11)
S17_3 S 0.29064(3) 0.62990(3) 0.60091(3)
C83_3 C 0.30008(9) 0.66652(12) 0.57756(10)
O57_3 O 0.25411(7) 0.65596(7) 0.54092(7)
C84_3 C 0.27746(10) 0.67652(12) 0.54892(10)
C85_3 C 0.32957(10) 0.68545(13) 0.58877(10)
H17_3 H 0.3382 0.7059 0.5791
C86_3 C 0.34354(10) 0.66670(11) 0.61814(11)
C87_3 C 0.37256(10) 0.67547(11) 0.63770(11)
S18_3 S 0.39909(3) 0.70936(3) 0.62990(3)
C88_3 C 0.42244(10) 0.69992(9) 0.66652(12)
O58_3 O 0.45908(7) 0.74589(7) 0.65596(7)
C89_3 C 0.45108(10) 0.72254(10) 0.67652(12)
O59_3 O 0.46485(7) 0.71830(7) 0.70520(8)
C90_3 C 0.41123(10) 0.67043(10) 0.68545(13)
H18_3 H 0.4209 0.6618 0.7059
O60_4 O 0.18387(12) 0.64885(17) 0.5000
O62_3 O 0.20520(8) 0.71830(7) 0.46485(7)
O63_6 O 0.18387(12) 1.0000 0.64885(17)
O65_3 O 0.20520(8) 0.96485(7) 0.71830(7)
Mn26_5 Mn 0.0000 0.72837(2) 0.31614(2)
O67_5 O 0.0000 0.68387(12) 0.35115(17)
O68_3 O 0.04092(7) 0.75411(7) 0.34404(7)
O69_3 O 0.03515(7) 0.70520(8) 0.28170(7)
S19_3 S 0.10091(3) 0.79064(3) 0.37010(3)
C91_3 C 0.07756(10) 0.80008(9) 0.33348(12)
C92_3 C 0.12744(10) 0.82453(11) 0.36230(11)
C93_3 C 0.04892(10) 0.77746(10) 0.32348(12)
O72_3 O 0.03515(7) 0.78170(7) 0.29480(8)
Mn27_5 Mn 0.0000 0.81614(2) 0.27163(2)
C94_3 C 0.08877(10) 0.82957(10) 0.31455(13)
H19_3 H 0.0791 0.8382 0.2941
C95_3 C 0.11814(11) 0.84354(10) 0.33330(11)
C96_3 C 0.13770(11) 0.87256(10) 0.32453(11)
C97_3 C 0.15646(10) 0.83330(11) 0.38186(11)
S20_3 S 0.12990(3) 0.89909(3) 0.29064(3)
C98_3 C 0.16652(12) 0.92244(10) 0.30008(9)
O73_3 O 0.15596(7) 0.95908(7) 0.25411(7)
C99_3 C 0.17652(12) 0.95108(10) 0.27746(10)
Mn28_6 Mn 0.18386(2) 1.0000 0.22837(2)
O74_3 O 0.20520(8) 0.96485(7) 0.28170(7)
Mn29_6 Mn 0.22837(2) 1.0000 0.31614(2)
C100_3 C 0.18545(13) 0.91123(10) 0.32957(10)
H20_3 H 0.2059 0.9209 0.3382
C101_3 C 0.16670(11) 0.88186(11) 0.34354(10)
C102_3 C 0.17547(11) 0.86230(11) 0.37256(10)
S21_3 S 0.20936(3) 0.87010(3) 0.39909(3)
C103_3 C 0.19992(9) 0.83348(12) 0.42244(10)
O75_3 O 0.24589(7) 0.84404(7) 0.45908(7)
C104_3 C 0.22254(10) 0.82348(12) 0.45108(10)
C105_3 C 0.17043(10) 0.81455(13) 0.41123(10)
H21_3 H 0.1618 0.7941 0.4209
S22_3 S 0.20936(3) 0.60091(3) 0.37010(3)
C106_3 C 0.19992(9) 0.57756(10) 0.33348(12)
C107_3 C 0.17547(11) 0.62744(10) 0.36230(11)
O76_3 O 0.24589(7) 0.54092(7) 0.34404(7)
C108_3 C 0.22254(10) 0.54892(10) 0.32348(12)
O77_3 O 0.21830(7) 0.53515(7) 0.29480(8)
Mn31_3 Mn 0.18386(2) 0.5000 0.27163(2)
C109_3 C 0.17043(10) 0.58877(10) 0.31455(13)
H22_3 H 0.1618 0.5791 0.2941
C110_3 C 0.15646(10) 0.61814(11) 0.33330(11)
C111_3 C 0.12744(10) 0.63770(11) 0.32453(11)
C112_3 C 0.16670(11) 0.65646(10) 0.38186(11)
S23_3 S 0.10091(3) 0.62990(3) 0.29064(3)
C113_3 C 0.07756(10) 0.66652(12) 0.30008(9)
O78_3 O 0.04092(7) 0.65596(7) 0.25411(7)
C114_3 C 0.04892(10) 0.67652(12) 0.27746(10)
C115_3 C 0.08877(10) 0.68545(13) 0.32957(10)
H23_3 H 0.0791 0.7059 0.3382
C116_3 C 0.11814(11) 0.66670(11) 0.34354(10)
C117_3 C 0.13770(11) 0.67547(11) 0.37256(10)
S24_3 S 0.12990(3) 0.70936(3) 0.39909(3)
C118_3 C 0.16652(12) 0.69992(9) 0.42244(10)
C119_3 C 0.17652(12) 0.72254(10) 0.45108(10)
C120_3 C 0.18545(13) 0.67043(10) 0.41123(10)
H24_3 H 0.2059 0.6618 0.4209
O79_5 O 0.0000 0.64885(17) 0.18387(12)
O81_3 O 0.03515(7) 0.71830(7) 0.20520(8)
O83_6 O 0.14885(17) 1.0000 0.18387(12)
O85_3 O 0.21830(7) 0.96485(7) 0.20520(8)
Mn11_6 Mn 1.0000 0.68386(2) 0.77163(2)
O24_6 O 1.0000 0.64885(17) 0.81613(12)
O27_3 O 0.95908(7) 0.65596(7) 0.74589(7)
O28_3 O 0.96485(7) 0.71830(7) 0.79480(8)
Mn12_6 Mn 1.0000 0.72837(2) 0.68386(2)
O38_6 O 1.0000 0.81613(12) 0.85115(17)
O39_3 O 0.95908(7) 0.74589(7) 0.84404(7)
Mn26_6 Mn 1.0000 0.72837(2) 0.31614(2)
O67_6 O 1.0000 0.68387(12) 0.35115(17)
O70_3 O 0.95908(7) 0.75411(7) 0.34404(7)
O71_3 O 0.96485(7) 0.70520(8) 0.28170(7)
Mn27_6 Mn 1.0000 0.81614(2) 0.27163(2)
O79_6 O 1.0000 0.64885(17) 0.18387(12)
O80_3 O 0.95908(7) 0.65596(7) 0.25411(7)
Mn1_4 Mn 0.5000 0.31614(2) 0.27163(2)
S1_4 S 0.60091(3) 0.37010(3) 0.20936(3)
O1_4 O 0.5000 0.35115(17) 0.31613(12)
O2_4 O 0.54092(7) 0.34404(7) 0.24589(7)
O3_4 O 0.53515(7) 0.29480(8) 0.21830(7)
C1_4 C 0.54892(10) 0.32348(12) 0.22254(10)
C2_4 C 0.57756(10) 0.33348(12) 0.19992(9)
C3_4 C 0.58877(10) 0.31455(13) 0.17043(10)
H1_4 H 0.5791 0.2941 0.1618
C4_4 C 0.61814(11) 0.33330(11) 0.15646(10)
C5_4 C 0.62744(10) 0.36230(11) 0.17547(11)
S2_4 S 0.62990(3) 0.29064(3) 0.10091(3)
O4_4 O 0.65596(7) 0.25411(7) 0.04092(7)
O5_4 O 0.70520(8) 0.28170(7) 0.03515(7)
C6_4 C 0.67652(12) 0.27746(10) 0.04892(10)
C7_4 C 0.66652(12) 0.30008(9) 0.07756(10)
C8_4 C 0.68545(13) 0.32957(10) 0.08877(10)
H2_4 H 0.7059 0.3382 0.0791
C9_4 C 0.66670(11) 0.34354(10) 0.11814(11)
C10_4 C 0.63770(11) 0.32453(11) 0.12744(10)
S3_4 S 0.70936(3) 0.39909(3) 0.12990(3)
O6_4 O 0.74589(7) 0.45908(7) 0.15596(7)
O7_4 O 0.71830(7) 0.46485(7) 0.20520(8)
C11_4 C 0.72254(10) 0.45108(10) 0.17652(12)
C12_4 C 0.69992(9) 0.42244(10) 0.16652(12)
C13_4 C 0.67043(10) 0.41123(10) 0.18545(13)
H3_4 H 0.6618 0.4209 0.2059
C14_4 C 0.65646(10) 0.38186(11) 0.16670(11)
C15_4 C 0.67547(11) 0.37256(10) 0.13770(11)
S4_4 S 0.70936(3) 0.37010(3) 0.39909(3)
C16_4 C 0.72254(10) 0.32348(12) 0.45108(10)
C17_4 C 0.69992(9) 0.33348(12) 0.42244(10)
C18_4 C 0.67043(10) 0.31455(13) 0.41123(10)
H4_4 H 0.6618 0.2941 0.4209
C19_4 C 0.65646(10) 0.33330(11) 0.38186(11)
C20_4 C 0.67547(11) 0.36230(11) 0.37256(10)
S5_4 S 0.60091(3) 0.29064(3) 0.37010(3)
O10_4 O 0.54092(7) 0.25411(7) 0.34404(7)
O11_4 O 0.53515(7) 0.28170(7) 0.29480(8)
C21_4 C 0.54892(10) 0.27746(10) 0.32348(12)
C22_4 C 0.57756(10) 0.30008(9) 0.33348(12)
C23_4 C 0.58877(10) 0.32957(10) 0.31455(13)
H5_4 H 0.5791 0.3382 0.2941
C24_4 C 0.61814(11) 0.34354(10) 0.33330(11)
C25_4 C 0.62744(10) 0.32453(11) 0.36230(11)
S6_4 S 0.62990(3) 0.39909(3) 0.29064(3)
O12_4 O 0.65596(7) 0.45908(7) 0.25411(7)
O13_4 O 0.70520(8) 0.46485(7) 0.28170(7)
C26_4 C 0.67652(12) 0.45108(10) 0.27746(10)
C27_4 C 0.66652(12) 0.42244(10) 0.30008(9)
C28_4 C 0.68545(13) 0.41123(10) 0.32957(10)
H6_4 H 0.7059 0.4209 0.3382
C29_4 C 0.66670(11) 0.38186(11) 0.34354(10)
C30_4 C 0.63770(11) 0.37256(10) 0.32453(11)
Mn2_4 Mn 0.5000 0.22837(2) 0.31614(2)
O14_4 O 0.5000 0.18387(12) 0.35115(17)
Mn3_5 Mn 0.68386(2) 0.22837(2) -0.0000
O15_5 O 0.64885(17) 0.18387(12) -0.0000
Mn9_4 Mn 0.5000 0.27163(2) 0.18386(2)
O16_4 O 0.45908(7) 0.34404(7) 0.24589(7)
O17_4 O 0.45908(7) 0.25411(7) 0.34404(7)
O19_4 O 0.53515(7) 0.20520(8) 0.28170(7)
O20_4 O 0.71830(7) 0.20520(8) 0.03515(7)
O21_4 O 0.46485(7) 0.28170(7) 0.29480(8)
O22_4 O 0.46485(7) 0.20520(8) 0.28170(7)
Mn11_7 Mn 0.31614(2) 0.0000 0.27163(2)
O24_7 O 0.35115(17) 0.0000 0.31613(12)
O25_4 O 0.34404(7) 0.04092(7) 0.24589(7)
O26_4 O 0.28170(7) 0.03515(7) 0.29480(8)
S7_4 S 0.37010(3) 0.10091(3) 0.20936(3)
C31_4 C 0.33348(12) 0.07756(10) 0.19992(9)
C32_4 C 0.36230(11) 0.12744(10) 0.17547(11)
C33_4 C 0.32348(12) 0.04892(10) 0.22254(10)
O29_4 O 0.29480(8) 0.03515(7) 0.21830(7)
Mn12_7 Mn 0.27163(2) 0.0000 0.18386(2)
C34_4 C 0.31455(13) 0.08877(10) 0.17043(10)
H7_4 H 0.2941 0.0791 0.1618
C35_4 C 0.33330(11) 0.11814(11) 0.15646(10)
C36_4 C 0.32453(11) 0.13770(11) 0.12744(10)
C37_4 C 0.38186(11) 0.15646(10) 0.16670(11)
S8_4 S 0.29064(3) 0.12990(3) 0.10091(3)
C38_4 C 0.30008(9) 0.16652(12) 0.07756(10)
O30_4 O 0.25411(7) 0.15596(7) 0.04092(7)
C39_4 C 0.27746(10) 0.17652(12) 0.04892(10)
Mn13_5 Mn 0.22837(2) 0.18386(2) -0.0000
O31_4 O 0.28170(7) 0.20520(8) 0.03515(7)
C40_4 C 0.32957(10) 0.18545(13) 0.08877(10)
H8_4 H 0.3382 0.2059 0.0791
C41_4 C 0.34354(10) 0.16670(11) 0.11814(11)
C42_4 C 0.37256(10) 0.17547(11) 0.13770(11)
S9_4 S 0.39909(3) 0.20936(3) 0.12990(3)
C43_4 C 0.42244(10) 0.19992(9) 0.16652(12)
O32_4 O 0.45908(7) 0.24589(7) 0.15596(7)
C44_4 C 0.45108(10) 0.22254(10) 0.17652(12)
O33_4 O 0.46485(7) 0.21830(7) 0.20520(8)
Mn15_4 Mn 0.5000 0.18386(2) 0.22837(2)
C45_4 C 0.41123(10) 0.17043(10) 0.18545(13)
H9_4 H 0.4209 0.1618 0.2059
S10_4 S 0.37010(3) 0.20936(3) 0.39909(3)
C46_4 C 0.33348(12) 0.19992(9) 0.42244(10)
C47_4 C 0.36230(11) 0.17547(11) 0.37256(10)
O34_4 O 0.34404(7) 0.24589(7) 0.45908(7)
C48_4 C 0.32348(12) 0.22254(10) 0.45108(10)
O35_4 O 0.29480(8) 0.21830(7) 0.46485(7)
Mn17_6 Mn 0.27163(2) 0.18386(2) 0.5000
C49_4 C 0.31455(13) 0.17043(10) 0.41123(10)
H10_4 H 0.2941 0.1618 0.4209
C50_4 C 0.33330(11) 0.15646(10) 0.38186(11)
C51_4 C 0.32453(11) 0.12744(10) 0.36230(11)
C52_4 C 0.38186(11) 0.16670(11) 0.34354(10)
S11_4 S 0.29064(3) 0.10091(3) 0.37010(3)
C53_4 C 0.30008(9) 0.07756(10) 0.33348(12)
O36_4 O 0.25411(7) 0.04092(7) 0.34404(7)
C54_4 C 0.27746(10) 0.04892(10) 0.32348(12)
C55_4 C 0.32957(10) 0.08877(10) 0.31455(13)
H11_4 H 0.3382 0.0791 0.2941
C56_4 C 0.34354(10) 0.11814(11) 0.33330(11)
C57_4 C 0.37256(10) 0.13770(11) 0.32453(11)
S12_4 S 0.39909(3) 0.12990(3) 0.29064(3)
C58_4 C 0.42244(10) 0.16652(12) 0.30008(9)
O37_4 O 0.45908(7) 0.15596(7) 0.25411(7)
C59_4 C 0.45108(10) 0.17652(12) 0.27746(10)
C60_4 C 0.41123(10) 0.18545(13) 0.32957(10)
H12_4 H 0.4209 0.2059 0.3382
O38_7 O 0.18387(12) 0.0000 0.35115(17)
O40_4 O 0.20520(8) 0.03515(7) 0.28170(7)
O42_5 O 0.18387(12) 0.14885(17) -0.0000
O44_4 O 0.20520(8) 0.21830(7) 0.03515(7)
O46_5 O 0.31613(12) 0.35115(17) -0.0000
O47_4 O 0.24589(7) 0.34404(7) 0.04092(7)
O48_4 O 0.29480(8) 0.28170(7) 0.03515(7)
S13_4 S 0.20936(3) 0.37010(3) 0.10091(3)
C61_4 C 0.19992(9) 0.33348(12) 0.07756(10)
C62_4 C 0.17547(11) 0.36230(11) 0.12744(10)
C63_4 C 0.22254(10) 0.32348(12) 0.04892(10)
O51_4 O 0.21830(7) 0.29480(8) 0.03515(7)
Mn20_5 Mn 0.18386(2) 0.27163(2) -0.0000
C64_4 C 0.17043(10) 0.31455(13) 0.08877(10)
H13_4 H 0.1618 0.2941 0.0791
C65_4 C 0.15646(10) 0.33330(11) 0.11814(11)
C66_4 C 0.12744(10) 0.32453(11) 0.13770(11)
C67_4 C 0.16670(11) 0.38186(11) 0.15646(10)
S14_4 S 0.10091(3) 0.29064(3) 0.12990(3)
C68_4 C 0.07756(10) 0.30008(9) 0.16652(12)
O52_4 O 0.04092(7) 0.25411(7) 0.15596(7)
C69_4 C 0.04892(10) 0.27746(10) 0.17652(12)
Mn21_7 Mn -0.0000 0.22837(2) 0.18386(2)
C70_4 C 0.08877(10) 0.32957(10) 0.18545(13)
H14_4 H 0.0791 0.3382 0.2059
C71_4 C 0.11814(11) 0.34354(10) 0.16670(11)
C72_4 C 0.13770(11) 0.37256(10) 0.17547(11)
S15_4 S 0.12990(3) 0.39909(3) 0.20936(3)
C73_4 C 0.16652(12) 0.42244(10) 0.19992(9)
O54_4 O 0.15596(7) 0.45908(7) 0.24589(7)
C74_4 C 0.17652(12) 0.45108(10) 0.22254(10)
O55_4 O 0.20520(8) 0.46485(7) 0.21830(7)
C75_4 C 0.18545(13) 0.41123(10) 0.17043(10)
H15_4 H 0.2059 0.4209 0.1618
S16_4 S 0.39909(3) 0.37010(3) 0.20936(3)
C76_4 C 0.42244(10) 0.33348(12) 0.19992(9)
C77_4 C 0.37256(10) 0.36230(11) 0.17547(11)
C78_4 C 0.45108(10) 0.32348(12) 0.22254(10)
O56_4 O 0.46485(7) 0.29480(8) 0.21830(7)
C79_4 C 0.41123(10) 0.31455(13) 0.17043(10)
H16_4 H 0.4209 0.2941 0.1618
C80_4 C 0.38186(11) 0.33330(11) 0.15646(10)
C81_4 C 0.36230(11) 0.32453(11) 0.12744(10)
C82_4 C 0.34354(10) 0.38186(11) 0.16670(11)
S17_4 S 0.37010(3) 0.29064(3) 0.10091(3)
C83_4 C 0.33348(12) 0.30008(9) 0.07756(10)
O57_4 O 0.34404(7) 0.25411(7) 0.04092(7)
C84_4 C 0.32348(12) 0.27746(10) 0.04892(10)
C85_4 C 0.31455(13) 0.32957(10) 0.08877(10)
H17_4 H 0.2941 0.3382 0.0791
C86_4 C 0.33330(11) 0.34354(10) 0.11814(11)
C87_4 C 0.32453(11) 0.37256(10) 0.13770(11)
S18_4 S 0.29064(3) 0.39909(3) 0.12990(3)
C88_4 C 0.30008(9) 0.42244(10) 0.16652(12)
O58_4 O 0.25411(7) 0.45908(7) 0.15596(7)
C89_4 C 0.27746(10) 0.45108(10) 0.17652(12)
O59_4 O 0.28170(7) 0.46485(7) 0.20520(8)
C90_4 C 0.32957(10) 0.41123(10) 0.18545(13)
H18_4 H 0.3382 0.4209 0.2059
O60_5 O 0.35115(17) 0.18387(12) -0.0000
O63_7 O 0.0000 0.18387(12) 0.14885(17)
O65_4 O 0.03515(7) 0.20520(8) 0.21830(7)
Mn3_6 Mn 0.68386(2) 0.22837(2) 1.0000
O15_6 O 0.64885(17) 0.18387(12) 1.0000
O18_4 O 0.65596(7) 0.25411(7) 0.95908(7)
O23_4 O 0.71830(7) 0.20520(8) 0.96485(7)
Mn13_6 Mn 0.22837(2) 0.18386(2) 1.0000
O42_6 O 0.18387(12) 0.14885(17) 1.0000
O43_4 O 0.25411(7) 0.15596(7) 0.95908(7)
O45_4 O 0.20520(8) 0.21830(7) 0.96485(7)
O46_6 O 0.31613(12) 0.35115(17) 1.0000
O49_4 O 0.24589(7) 0.34404(7) 0.95908(7)
Mn20_6 Mn 0.18386(2) 0.27163(2) 1.0000
O60_6 O 0.35115(17) 0.18387(12) 1.0000
O62_4 O 0.28170(7) 0.20520(8) 0.96485(7)
Mn26_7 Mn 0.27163(2) 0.0000 0.81614(2)
O67_7 O 0.31613(12) 0.0000 0.85115(17)
O68_4 O 0.24589(7) 0.04092(7) 0.84404(7)
O69_4 O 0.29480(8) 0.03515(7) 0.78170(7)
S19_4 S 0.20936(3) 0.10091(3) 0.87010(3)
C91_4 C 0.19992(9) 0.07756(10) 0.83348(12)
C92_4 C 0.17547(11) 0.12744(10) 0.86230(11)
C93_4 C 0.22254(10) 0.04892(10) 0.82348(12)
O72_4 O 0.21830(7) 0.03515(7) 0.79480(8)
Mn27_7 Mn 0.18386(2) 0.0000 0.77163(2)
C94_4 C 0.17043(10) 0.08877(10) 0.81455(13)
H19_4 H 0.1618 0.0791 0.7941
C95_4 C 0.15646(10) 0.11814(11) 0.83330(11)
C96_4 C 0.12744(10) 0.13770(11) 0.82453(11)
C97_4 C 0.16670(11) 0.15646(10) 0.88186(11)
S20_4 S 0.10091(3) 0.12990(3) 0.79064(3)
C98_4 C 0.07756(10) 0.16652(12) 0.80008(9)
O73_4 O 0.04092(7) 0.15596(7) 0.75411(7)
C99_4 C 0.04892(10) 0.17652(12) 0.77746(10)
Mn28_7 Mn -0.0000 0.18386(2) 0.72837(2)
C100_4 C 0.08877(10) 0.18545(13) 0.82957(10)
H20_4 H 0.0791 0.2059 0.8382
C101_4 C 0.11814(11) 0.16670(11) 0.84354(10)
C102_4 C 0.13770(11) 0.17547(11) 0.87256(10)
S21_4 S 0.12990(3) 0.20936(3) 0.89909(3)
C103_4 C 0.16652(12) 0.19992(9) 0.92244(10)
O75_4 O 0.15596(7) 0.24589(7) 0.95908(7)
C104_4 C 0.17652(12) 0.22254(10) 0.95108(10)
C105_4 C 0.18545(13) 0.17043(10) 0.91123(10)
H21_4 H 0.2059 0.1618 0.9209
S22_4 S 0.39909(3) 0.20936(3) 0.87010(3)
C106_4 C 0.42244(10) 0.19992(9) 0.83348(12)
C107_4 C 0.37256(10) 0.17547(11) 0.86230(11)
O76_4 O 0.45908(7) 0.24589(7) 0.84404(7)
C108_4 C 0.45108(10) 0.22254(10) 0.82348(12)
O77_4 O 0.46485(7) 0.21830(7) 0.79480(8)
C109_4 C 0.41123(10) 0.17043(10) 0.81455(13)
H22_4 H 0.4209 0.1618 0.7941
C110_4 C 0.38186(11) 0.15646(10) 0.83330(11)
C111_4 C 0.36230(11) 0.12744(10) 0.82453(11)
C112_4 C 0.34354(10) 0.16670(11) 0.88186(11)
S23_4 S 0.37010(3) 0.10091(3) 0.79064(3)
C113_4 C 0.33348(12) 0.07756(10) 0.80008(9)
O78_4 O 0.34404(7) 0.04092(7) 0.75411(7)
C114_4 C 0.32348(12) 0.04892(10) 0.77746(10)
C115_4 C 0.31455(13) 0.08877(10) 0.82957(10)
H23_4 H 0.2941 0.0791 0.8382
C116_4 C 0.33330(11) 0.11814(11) 0.84354(10)
C117_4 C 0.32453(11) 0.13770(11) 0.87256(10)
S24_4 S 0.29064(3) 0.12990(3) 0.89909(3)
C118_4 C 0.30008(9) 0.16652(12) 0.92244(10)
C119_4 C 0.27746(10) 0.17652(12) 0.95108(10)
C120_4 C 0.32957(10) 0.18545(13) 0.91123(10)
H24_4 H 0.3382 0.2059 0.9209
O79_7 O 0.35115(17) 0.0000 0.68387(12)
O81_4 O 0.28170(7) 0.03515(7) 0.70520(8)
O83_7 O -0.0000 0.14885(17) 0.68387(12)
O85_4 O 0.03515(7) 0.21830(7) 0.70520(8)
Mn11_8 Mn 0.31614(2) 1.0000 0.27163(2)
O24_8 O 0.35115(17) 1.0000 0.31613(12)
O27_4 O 0.34404(7) 0.95908(7) 0.24589(7)
O28_4 O 0.28170(7) 0.96485(7) 0.29480(8)
Mn12_8 Mn 0.27163(2) 1.0000 0.18386(2)
O38_8 O 0.18387(12) 1.0000 0.35115(17)
O39_4 O 0.25411(7) 0.95908(7) 0.34404(7)
Mn26_8 Mn 0.27163(2) 1.0000 0.81614(2)
O67_8 O 0.31613(12) 1.0000 0.85115(17)
O70_4 O 0.24589(7) 0.95908(7) 0.84404(7)
O71_4 O 0.29480(8) 0.96485(7) 0.78170(7)
Mn27_8 Mn 0.18386(2) 1.0000 0.77163(2)
O79_8 O 0.35115(17) 1.0000 0.68387(12)
O80_4 O 0.34404(7) 0.95908(7) 0.75411(7)
Mn21_8 Mn 1.0000 0.22837(2) 0.18386(2)
O63_8 O 1.0000 0.18387(12) 0.14885(17)
O64_4 O 0.95908(7) 0.25411(7) 0.15596(7)
O66_4 O 0.96485(7) 0.20520(8) 0.21830(7)
Mn28_8 Mn 1.0000 0.18386(2) 0.72837(2)
O83_8 O 1.0000 0.14885(17) 0.68387(12)
O84_4 O 0.95908(7) 0.15596(7) 0.75411(7)
O86_4 O 0.96485(7) 0.21830(7) 0.70520(8)
S4_5 S 0.62990(3) 0.10091(3) 0.20936(3)
O9_4 O 0.70520(8) 0.03515(7) 0.21830(7)
C16_5 C 0.67652(12) 0.04892(10) 0.22254(10)
C17_5 C 0.66652(12) 0.07756(10) 0.19992(9)
C18_5 C 0.68545(13) 0.08877(10) 0.17043(10)
H4_5 H 0.7059 0.0791 0.1618
C19_5 C 0.66670(11) 0.11814(11) 0.15646(10)
C20_5 C 0.63770(11) 0.12744(10) 0.17547(11)
S5_5 S 0.70936(3) 0.12990(3) 0.10091(3)
O10_5 O 0.74589(7) 0.15596(7) 0.04092(7)
C21_5 C 0.72254(10) 0.17652(12) 0.04892(10)
C22_5 C 0.69992(9) 0.16652(12) 0.07756(10)
C23_5 C 0.67043(10) 0.18545(13) 0.08877(10)
H5_5 H 0.6618 0.2059 0.0791
C24_5 C 0.65646(10) 0.16670(11) 0.11814(11)
C25_5 C 0.67547(11) 0.13770(11) 0.12744(10)
S6_5 S 0.60091(3) 0.20936(3) 0.12990(3)
O12_5 O 0.54092(7) 0.24589(7) 0.15596(7)
O13_5 O 0.53515(7) 0.21830(7) 0.20520(8)
C26_5 C 0.54892(10) 0.22254(10) 0.17652(12)
C27_5 C 0.57756(10) 0.19992(9) 0.16652(12)
C28_5 C 0.58877(10) 0.17043(10) 0.18545(13)
H6_5 H 0.5791 0.1618 0.2059
C29_5 C 0.61814(11) 0.15646(10) 0.16670(11)
C30_5 C 0.62744(10) 0.17547(11) 0.13770(11)
Mn2_5 Mn 0.77163(2) 0.18386(2) -0.0000
O14_5 O 0.81613(12) 0.14885(17) -0.0000
O15_7 O 0.81613(12) 0.5000 0.14885(17)
O19_5 O 0.79480(8) 0.21830(7) 0.03515(7)
O20_5 O 0.79480(8) 0.46485(7) 0.21830(7)
Mn2_6 Mn 0.77163(2) 0.18386(2) 1.0000
O14_6 O 0.81613(12) 0.14885(17) 1.0000
O17_5 O 0.74589(7) 0.15596(7) 0.95908(7)
O22_5 O 0.79480(8) 0.21830(7) 0.96485(7)
S10_5 S 0.79064(3) 0.10091(3) 0.87010(3)
C46_5 C 0.80008(9) 0.07756(10) 0.83348(12)
C47_5 C 0.82453(11) 0.12744(10) 0.86230(11)
C48_5 C 0.77746(10) 0.04892(10) 0.82348(12)
O35_5 O 0.78170(7) 0.03515(7) 0.79480(8)
C49_5 C 0.82957(10) 0.08877(10) 0.81455(13)
H10_5 H 0.8382 0.0791 0.7941
C50_5 C 0.84354(10) 0.11814(11) 0.83330(11)
C51_5 C 0.87256(10) 0.13770(11) 0.82453(11)
C52_5 C 0.83330(11) 0.15646(10) 0.88186(11)
S11_5 S 0.89909(3) 0.12990(3) 0.79064(3)
C53_5 C 0.92244(10) 0.16652(12) 0.80008(9)
C54_5 C 0.95108(10) 0.17652(12) 0.77746(10)
C55_5 C 0.91123(10) 0.18545(13) 0.82957(10)
H11_5 H 0.9209 0.2059 0.8382
C56_5 C 0.88186(11) 0.16670(11) 0.84354(10)
C57_5 C 0.86230(11) 0.17547(11) 0.87256(10)
S12_5 S 0.87010(3) 0.20936(3) 0.89909(3)
C58_5 C 0.83348(12) 0.19992(9) 0.92244(10)
O37_5 O 0.84404(7) 0.24589(7) 0.95908(7)
C59_5 C 0.82348(12) 0.22254(10) 0.95108(10)
C60_5 C 0.81455(13) 0.17043(10) 0.91123(10)
H12_5 H 0.7941 0.1618 0.9209
O42_7 O 0.85115(17) 0.5000 0.68387(12)
O43_5 O 0.84404(7) 0.54092(7) 0.75411(7)
O45_5 O 0.78170(7) 0.53515(7) 0.70520(8)
S16_5 S 0.62990(3) 0.29064(3) 0.89909(3)
C76_5 C 0.66652(12) 0.30008(9) 0.92244(10)
C77_5 C 0.63770(11) 0.32453(11) 0.87256(10)
C78_5 C 0.67652(12) 0.27746(10) 0.95108(10)
O56_5 O 0.70520(8) 0.28170(7) 0.96485(7)
C79_5 C 0.68545(13) 0.32957(10) 0.91123(10)
H16_5 H 0.7059 0.3382 0.9209
C80_5 C 0.66670(11) 0.34354(10) 0.88186(11)
C81_5 C 0.67547(11) 0.37256(10) 0.86230(11)
C82_5 C 0.61814(11) 0.33330(11) 0.84354(10)
S17_5 S 0.70936(3) 0.39909(3) 0.87010(3)
C83_5 C 0.69992(9) 0.42244(10) 0.83348(12)
C84_5 C 0.72254(10) 0.45108(10) 0.82348(12)
C85_5 C 0.67043(10) 0.41123(10) 0.81455(13)
H17_5 H 0.6618 0.4209 0.7941
C86_5 C 0.65646(10) 0.38186(11) 0.83330(11)
C87_5 C 0.62744(10) 0.36230(11) 0.82453(11)
S18_5 S 0.60091(3) 0.37010(3) 0.79064(3)
C88_5 C 0.57756(10) 0.33348(12) 0.80008(9)
O58_5 O 0.54092(7) 0.34404(7) 0.75411(7)
C89_5 C 0.54892(10) 0.32348(12) 0.77746(10)
O59_5 O 0.53515(7) 0.29480(8) 0.78170(7)
C90_5 C 0.58877(10) 0.31455(13) 0.82957(10)
H18_5 H 0.5791 0.2941 0.8382
S19_5 S 0.89909(3) 0.62990(3) 0.70936(3)
C91_5 C 0.92244(10) 0.66652(12) 0.69992(9)
C92_5 C 0.87256(10) 0.63770(11) 0.67547(11)
C93_5 C 0.95108(10) 0.67652(12) 0.72254(10)
O72_5 O 0.96485(7) 0.70520(8) 0.71830(7)
C94_5 C 0.91123(10) 0.68545(13) 0.67043(10)
H19_5 H 0.9209 0.7059 0.6618
C95_5 C 0.88186(11) 0.66670(11) 0.65646(10)
C96_5 C 0.86230(11) 0.67547(11) 0.62744(10)
C97_5 C 0.84354(10) 0.61814(11) 0.66670(11)
S20_5 S 0.87010(3) 0.70936(3) 0.60091(3)
C98_5 C 0.83348(12) 0.69992(9) 0.57756(10)
O73_5 O 0.84404(7) 0.74589(7) 0.54092(7)
C99_5 C 0.82348(12) 0.72254(10) 0.54892(10)
Mn28_9 Mn 0.81614(2) 0.77163(2) 0.5000
C100_5 C 0.81455(13) 0.67043(10) 0.58877(10)
H20_5 H 0.7941 0.6618 0.5791
C101_5 C 0.83330(11) 0.65646(10) 0.61814(11)
C102_5 C 0.82453(11) 0.62744(10) 0.63770(11)
S21_5 S 0.79064(3) 0.60091(3) 0.62990(3)
C103_5 C 0.80008(9) 0.57756(10) 0.66652(12)
O75_5 O 0.75411(7) 0.54092(7) 0.65596(7)
C104_5 C 0.77746(10) 0.54892(10) 0.67652(12)
C105_5 C 0.82957(10) 0.58877(10) 0.68545(13)
H21_5 H 0.8382 0.5791 0.7059
S22_5 S 0.79064(3) 0.62990(3) 0.89909(3)
C106_5 C 0.80008(9) 0.66652(12) 0.92244(10)
C107_5 C 0.82453(11) 0.63770(11) 0.87256(10)
C108_5 C 0.77746(10) 0.67652(12) 0.95108(10)
O77_5 O 0.78170(7) 0.70520(8) 0.96485(7)
C109_5 C 0.82957(10) 0.68545(13) 0.91123(10)
H22_5 H 0.8382 0.7059 0.9209
C110_5 C 0.84354(10) 0.66670(11) 0.88186(11)
C111_5 C 0.87256(10) 0.67547(11) 0.86230(11)
C112_5 C 0.83330(11) 0.61814(11) 0.84354(10)
S23_5 S 0.89909(3) 0.70936(3) 0.87010(3)
C113_5 C 0.92244(10) 0.69992(9) 0.83348(12)
C114_5 C 0.95108(10) 0.72254(10) 0.82348(12)
C115_5 C 0.91123(10) 0.67043(10) 0.81455(13)
H23_5 H 0.9209 0.6618 0.7941
C116_5 C 0.88186(11) 0.65646(10) 0.83330(11)
C117_5 C 0.86230(11) 0.62744(10) 0.82453(11)
S24_5 S 0.87010(3) 0.60091(3) 0.79064(3)
C118_5 C 0.83348(12) 0.57756(10) 0.80008(9)
C119_5 C 0.82348(12) 0.54892(10) 0.77746(10)
C120_5 C 0.81455(13) 0.58877(10) 0.82957(10)
H24_5 H 0.7941 0.5791 0.8382
O83_9 O 0.85115(17) 0.81613(12) 0.5000
O84_5 O 0.84404(7) 0.74589(7) 0.45908(7)
O85_5 O 0.78170(7) 0.79480(8) 0.53515(7)
O86_5 O 0.78170(7) 0.79480(8) 0.46485(7)
O67_9 O -0.0000 0.68387(12) 0.64885(17)
O70_5 O 0.04092(7) 0.75411(7) 0.65596(7)
O83_10 O 0.85115(17) 0.0000 0.81613(12)
O84_6 O 0.84404(7) 0.04092(7) 0.74589(7)
O1_5 O 0.64885(17) 0.5000 0.18387(12)
O16_5 O 0.65596(7) 0.54092(7) 0.25411(7)
S7_5 S 0.89909(3) 0.62990(3) 0.29064(3)
C31_5 C 0.92244(10) 0.66652(12) 0.30008(9)
C32_5 C 0.87256(10) 0.63770(11) 0.32453(11)
C33_5 C 0.95108(10) 0.67652(12) 0.27746(10)
C34_5 C 0.91123(10) 0.68545(13) 0.32957(10)
H7_5 H 0.9209 0.7059 0.3382
C35_5 C 0.88186(11) 0.66670(11) 0.34354(10)
C36_5 C 0.86230(11) 0.67547(11) 0.37256(10)
C37_5 C 0.84354(10) 0.61814(11) 0.33330(11)
S8_5 S 0.87010(3) 0.70936(3) 0.39909(3)
C38_5 C 0.83348(12) 0.69992(9) 0.42244(10)
C39_5 C 0.82348(12) 0.72254(10) 0.45108(10)
C40_5 C 0.81455(13) 0.67043(10) 0.41123(10)
H8_5 H 0.7941 0.6618 0.4209
C41_5 C 0.83330(11) 0.65646(10) 0.38186(11)
C42_5 C 0.82453(11) 0.62744(10) 0.36230(11)
S9_5 S 0.79064(3) 0.60091(3) 0.37010(3)
C43_5 C 0.80008(9) 0.57756(10) 0.33348(12)
O32_5 O 0.75411(7) 0.54092(7) 0.34404(7)
C44_5 C 0.77746(10) 0.54892(10) 0.32348(12)
O33_5 O 0.78170(7) 0.53515(7) 0.29480(8)
C45_5 C 0.82957(10) 0.58877(10) 0.31455(13)
H9_5 H 0.8382 0.5791 0.2941
O46_7 O 0.64885(17) 0.68387(12) 0.5000
O48_5 O 0.71830(7) 0.70520(8) 0.46485(7)
O49_5 O 0.65596(7) 0.75411(7) 0.54092(7)
S16_6 S 0.62990(3) 0.60091(3) 0.29064(3)
C76_6 C 0.66652(12) 0.57756(10) 0.30008(9)
C77_6 C 0.63770(11) 0.62744(10) 0.32453(11)
C78_6 C 0.67652(12) 0.54892(10) 0.27746(10)
O56_6 O 0.70520(8) 0.53515(7) 0.28170(7)
C79_6 C 0.68545(13) 0.58877(10) 0.32957(10)
H16_6 H 0.7059 0.5791 0.3382
C80_6 C 0.66670(11) 0.61814(11) 0.34354(10)
C81_6 C 0.67547(11) 0.63770(11) 0.37256(10)
C82_6 C 0.61814(11) 0.65646(10) 0.33330(11)
S17_6 S 0.70936(3) 0.62990(3) 0.39909(3)
C83_6 C 0.69992(9) 0.66652(12) 0.42244(10)
C84_6 C 0.72254(10) 0.67652(12) 0.45108(10)
C85_6 C 0.67043(10) 0.68545(13) 0.41123(10)
H17_6 H 0.6618 0.7059 0.4209
C86_6 C 0.65646(10) 0.66670(11) 0.38186(11)
C87_6 C 0.62744(10) 0.67547(11) 0.36230(11)
S18_6 S 0.60091(3) 0.70936(3) 0.37010(3)
C88_6 C 0.57756(10) 0.69992(9) 0.33348(12)
C89_6 C 0.54892(10) 0.72254(10) 0.32348(12)
C90_6 C 0.58877(10) 0.67043(10) 0.31455(13)
H18_6 H 0.5791 0.6618 0.2941
O67_10 O 1.0000 0.68387(12) 0.64885(17)
O68_5 O 0.95908(7) 0.75411(7) 0.65596(7)
S19_6 S 0.89909(3) 0.79064(3) 0.62990(3)
C91_6 C 0.92244(10) 0.80008(9) 0.66652(12)
C92_6 C 0.87256(10) 0.82453(11) 0.63770(11)
C93_6 C 0.95108(10) 0.77746(10) 0.67652(12)
C94_6 C 0.91123(10) 0.82957(10) 0.68545(13)
H19_6 H 0.9209 0.8382 0.7059
C95_6 C 0.88186(11) 0.84354(10) 0.66670(11)
C96_6 C 0.86230(11) 0.87256(10) 0.67547(11)
C97_6 C 0.84354(10) 0.83330(11) 0.61814(11)
S20_6 S 0.87010(3) 0.89909(3) 0.70936(3)
C98_6 C 0.83348(12) 0.92244(10) 0.69992(9)
O73_6 O 0.84404(7) 0.95908(7) 0.74589(7)
C99_6 C 0.82348(12) 0.95108(10) 0.72254(10)
C100_6 C 0.81455(13) 0.91123(10) 0.67043(10)
H20_6 H 0.7941 0.9209 0.6618
C101_6 C 0.83330(11) 0.88186(11) 0.65646(10)
C102_6 C 0.82453(11) 0.86230(11) 0.62744(10)
S21_6 S 0.79064(3) 0.87010(3) 0.60091(3)
C103_6 C 0.80008(9) 0.83348(12) 0.57756(10)
O75_6 O 0.75411(7) 0.84404(7) 0.54092(7)
C104_6 C 0.77746(10) 0.82348(12) 0.54892(10)
C105_6 C 0.82957(10) 0.81455(13) 0.58877(10)
H21_6 H 0.8382 0.7941 0.5791
O83_11 O 0.85115(17) 1.0000 0.81613(12)
O38_9 O -0.0000 0.85115(17) 0.31613(12)
O39_5 O 0.04092(7) 0.84404(7) 0.24589(7)
S10_6 S 0.79064(3) 0.89909(3) 0.12990(3)
C46_6 C 0.80008(9) 0.92244(10) 0.16652(12)
C47_6 C 0.82453(11) 0.87256(10) 0.13770(11)
O34_5 O 0.75411(7) 0.95908(7) 0.15596(7)
C48_6 C 0.77746(10) 0.95108(10) 0.17652(12)
C49_6 C 0.82957(10) 0.91123(10) 0.18545(13)
H10_6 H 0.8382 0.9209 0.2059
C50_6 C 0.84354(10) 0.88186(11) 0.16670(11)
C51_6 C 0.87256(10) 0.86230(11) 0.17547(11)
C52_6 C 0.83330(11) 0.84354(10) 0.11814(11)
S11_6 S 0.89909(3) 0.87010(3) 0.20936(3)
C53_6 C 0.92244(10) 0.83348(12) 0.19992(9)
O36_5 O 0.95908(7) 0.84404(7) 0.24589(7)
C54_6 C 0.95108(10) 0.82348(12) 0.22254(10)
C55_6 C 0.91123(10) 0.81455(13) 0.17043(10)
H11_6 H 0.9209 0.7941 0.1618
C56_6 C 0.88186(11) 0.83330(11) 0.15646(10)
C57_6 C 0.86230(11) 0.82453(11) 0.12744(10)
S12_6 S 0.87010(3) 0.79064(3) 0.10091(3)
C58_6 C 0.83348(12) 0.80008(9) 0.07756(10)
O37_6 O 0.84404(7) 0.75411(7) 0.04092(7)
C59_6 C 0.82348(12) 0.77746(10) 0.04892(10)
C60_6 C 0.81455(13) 0.82957(10) 0.08877(10)
H12_6 H 0.7941 0.8382 0.0791
O38_10 O 1.0000 0.85115(17) 0.31613(12)
O40_5 O 0.96485(7) 0.78170(7) 0.29480(8)
O42_8 O 0.85115(17) 0.5000 0.31613(12)
O43_6 O 0.84404(7) 0.45908(7) 0.24589(7)
S22_6 S 0.79064(3) 0.37010(3) 0.10091(3)
C106_6 C 0.80008(9) 0.33348(12) 0.07756(10)
C107_6 C 0.82453(11) 0.36230(11) 0.12744(10)
O76_5 O 0.75411(7) 0.34404(7) 0.04092(7)
C108_6 C 0.77746(10) 0.32348(12) 0.04892(10)
O77_6 O 0.78170(7) 0.29480(8) 0.03515(7)
C109_6 C 0.82957(10) 0.31455(13) 0.08877(10)
H22_6 H 0.8382 0.2941 0.0791
C110_6 C 0.84354(10) 0.33330(11) 0.11814(11)
C111_6 C 0.87256(10) 0.32453(11) 0.13770(11)
C112_6 C 0.83330(11) 0.38186(11) 0.15646(10)
S23_6 S 0.89909(3) 0.29064(3) 0.12990(3)
C113_6 C 0.92244(10) 0.30008(9) 0.16652(12)
C114_6 C 0.95108(10) 0.27746(10) 0.17652(12)
C115_6 C 0.91123(10) 0.32957(10) 0.18545(13)
H23_6 H 0.9209 0.3382 0.2059
C116_6 C 0.88186(11) 0.34354(10) 0.16670(11)
C117_6 C 0.86230(11) 0.37256(10) 0.17547(11)
S24_6 S 0.87010(3) 0.39909(3) 0.20936(3)
C118_6 C 0.83348(12) 0.42244(10) 0.19992(9)
C119_6 C 0.82348(12) 0.45108(10) 0.22254(10)
C120_6 C 0.81455(13) 0.41123(10) 0.17043(10)
H24_6 H 0.7941 0.4209 0.1618
O15_8 O 0.5000 0.64885(17) 0.68387(12)
O18_5 O 0.45908(7) 0.65596(7) 0.75411(7)
O42_9 O 0.5000 0.18387(12) 0.64885(17)
O45_6 O 0.46485(7) 0.20520(8) 0.71830(7)
O46_8 O 0.5000 0.31613(12) 0.85115(17)
O47_5 O 0.54092(7) 0.24589(7) 0.84404(7)
S13_5 S 0.60091(3) 0.20936(3) 0.87010(3)
C61_5 C 0.57756(10) 0.19992(9) 0.83348(12)
C62_5 C 0.62744(10) 0.17547(11) 0.86230(11)
C63_5 C 0.54892(10) 0.22254(10) 0.82348(12)
O51_5 O 0.53515(7) 0.21830(7) 0.79480(8)
C64_5 C 0.58877(10) 0.17043(10) 0.81455(13)
H13_5 H 0.5791 0.1618 0.7941
C65_5 C 0.61814(11) 0.15646(10) 0.83330(11)
C66_5 C 0.63770(11) 0.12744(10) 0.82453(11)
C67_5 C 0.65646(10) 0.16670(11) 0.88186(11)
S14_5 S 0.62990(3) 0.10091(3) 0.79064(3)
C68_5 C 0.66652(12) 0.07756(10) 0.80008(9)
C69_5 C 0.67652(12) 0.04892(10) 0.77746(10)
C70_5 C 0.68545(13) 0.08877(10) 0.82957(10)
H14_5 H 0.7059 0.0791 0.8382
C71_5 C 0.66670(11) 0.11814(11) 0.84354(10)
C72_5 C 0.67547(11) 0.13770(11) 0.87256(10)
S15_5 S 0.70936(3) 0.12990(3) 0.89909(3)
C73_5 C 0.69992(9) 0.16652(12) 0.92244(10)
C74_5 C 0.72254(10) 0.17652(12) 0.95108(10)
C75_5 C 0.67043(10) 0.18545(13) 0.91123(10)
H15_5 H 0.6618 0.2059 0.9209
O60_7 O 0.5000 0.35115(17) 0.68387(12)
O67_11 O 0.35115(17) 0.31613(12) 0.5000
O68_6 O 0.34404(7) 0.24589(7) 0.54092(7)
O71_5 O 0.28170(7) 0.29480(8) 0.46485(7)
S19_7 S 0.37010(3) 0.20936(3) 0.60091(3)
C91_7 C 0.33348(12) 0.19992(9) 0.57756(10)
C92_7 C 0.36230(11) 0.17547(11) 0.62744(10)
C93_7 C 0.32348(12) 0.22254(10) 0.54892(10)
O72_6 O 0.29480(8) 0.21830(7) 0.53515(7)
C94_7 C 0.31455(13) 0.17043(10) 0.58877(10)
H19_7 H 0.2941 0.1618 0.5791
C95_7 C 0.33330(11) 0.15646(10) 0.61814(11)
C96_7 C 0.32453(11) 0.12744(10) 0.63770(11)
C97_7 C 0.38186(11) 0.16670(11) 0.65646(10)
S20_7 S 0.29064(3) 0.10091(3) 0.62990(3)
C98_7 C 0.30008(9) 0.07756(10) 0.66652(12)
C99_7 C 0.27746(10) 0.04892(10) 0.67652(12)
C100_7 C 0.32957(10) 0.08877(10) 0.68545(13)
H20_7 H 0.3382 0.0791 0.7059
C101_7 C 0.34354(10) 0.11814(11) 0.66670(11)
C102_7 C 0.37256(10) 0.13770(11) 0.67547(11)
S21_7 S 0.39909(3) 0.12990(3) 0.70936(3)
C103_7 C 0.42244(10) 0.16652(12) 0.69992(9)
O75_7 O 0.45908(7) 0.15596(7) 0.74589(7)
C104_7 C 0.45108(10) 0.17652(12) 0.72254(10)
C105_7 C 0.41123(10) 0.18545(13) 0.67043(10)
H21_7 H 0.4209 0.2059 0.6618
O1_6 O 0.35115(17) 0.5000 0.18387(12)
O14_7 O 0.18387(12) 0.5000 0.14885(17)
O16_6 O 0.34404(7) 0.45908(7) 0.25411(7)
O19_6 O 0.20520(8) 0.53515(7) 0.21830(7)
S7_6 S 0.10091(3) 0.37010(3) 0.29064(3)
C31_6 C 0.07756(10) 0.33348(12) 0.30008(9)
C32_6 C 0.12744(10) 0.36230(11) 0.32453(11)
C33_6 C 0.04892(10) 0.32348(12) 0.27746(10)
C34_6 C 0.08877(10) 0.31455(13) 0.32957(10)
H7_6 H 0.0791 0.2941 0.3382
C35_6 C 0.11814(11) 0.33330(11) 0.34354(10)
C36_6 C 0.13770(11) 0.32453(11) 0.37256(10)
C37_6 C 0.15646(10) 0.38186(11) 0.33330(11)
S8_6 S 0.12990(3) 0.29064(3) 0.39909(3)
C38_6 C 0.16652(12) 0.30008(9) 0.42244(10)
O30_5 O 0.15596(7) 0.25411(7) 0.45908(7)
C39_6 C 0.17652(12) 0.27746(10) 0.45108(10)
Mn13_7 Mn 0.18386(2) 0.22837(2) 0.5000
C40_6 C 0.18545(13) 0.32957(10) 0.41123(10)
H8_6 H 0.2059 0.3382 0.4209
C41_6 C 0.16670(11) 0.34354(10) 0.38186(11)
C42_6 C 0.17547(11) 0.37256(10) 0.36230(11)
S9_6 S 0.20936(3) 0.39909(3) 0.37010(3)
C43_6 C 0.19992(9) 0.42244(10) 0.33348(12)
O32_6 O 0.24589(7) 0.45908(7) 0.34404(7)
C44_6 C 0.22254(10) 0.45108(10) 0.32348(12)
O33_6 O 0.21830(7) 0.46485(7) 0.29480(8)
C45_6 C 0.17043(10) 0.41123(10) 0.31455(13)
H9_6 H 0.1618 0.4209 0.2941
O42_10 O 0.14885(17) 0.18387(12) 0.5000
O43_7 O 0.15596(7) 0.25411(7) 0.54092(7)
O44_5 O 0.21830(7) 0.20520(8) 0.46485(7)
O45_7 O 0.21830(7) 0.20520(8) 0.53515(7)
S16_7 S 0.37010(3) 0.39909(3) 0.29064(3)
C76_7 C 0.33348(12) 0.42244(10) 0.30008(9)
C77_7 C 0.36230(11) 0.37256(10) 0.32453(11)
C78_7 C 0.32348(12) 0.45108(10) 0.27746(10)
O56_7 O 0.29480(8) 0.46485(7) 0.28170(7)
C79_7 C 0.31455(13) 0.41123(10) 0.32957(10)
H16_7 H 0.2941 0.4209 0.3382
C80_7 C 0.33330(11) 0.38186(11) 0.34354(10)
C81_7 C 0.32453(11) 0.36230(11) 0.37256(10)
C82_7 C 0.38186(11) 0.34354(10) 0.33330(11)
S17_7 S 0.29064(3) 0.37010(3) 0.39909(3)
C83_7 C 0.30008(9) 0.33348(12) 0.42244(10)
C84_7 C 0.27746(10) 0.32348(12) 0.45108(10)
C85_7 C 0.32957(10) 0.31455(13) 0.41123(10)
H17_7 H 0.3382 0.2941 0.4209
C86_7 C 0.34354(10) 0.33330(11) 0.38186(11)
C87_7 C 0.37256(10) 0.32453(11) 0.36230(11)
S18_7 S 0.39909(3) 0.29064(3) 0.37010(3)
C88_7 C 0.42244(10) 0.30008(9) 0.33348(12)
C89_7 C 0.45108(10) 0.27746(10) 0.32348(12)
C90_7 C 0.41123(10) 0.32957(10) 0.31455(13)
H18_7 H 0.4209 0.3382 0.2941
O67_12 O 0.0000 0.31613(12) 0.64885(17)
O68_7 O 0.04092(7) 0.24589(7) 0.65596(7)
O69_5 O 0.03515(7) 0.29480(8) 0.71830(7)
S19_8 S 0.10091(3) 0.20936(3) 0.62990(3)
C91_8 C 0.07756(10) 0.19992(9) 0.66652(12)
C92_8 C 0.12744(10) 0.17547(11) 0.63770(11)
C93_8 C 0.04892(10) 0.22254(10) 0.67652(12)
C94_8 C 0.08877(10) 0.17043(10) 0.68545(13)
H19_8 H 0.0791 0.1618 0.7059
C95_8 C 0.11814(11) 0.15646(10) 0.66670(11)
C96_8 C 0.13770(11) 0.12744(10) 0.67547(11)
C97_8 C 0.15646(10) 0.16670(11) 0.61814(11)
S20_8 S 0.12990(3) 0.10091(3) 0.70936(3)
C98_8 C 0.16652(12) 0.07756(10) 0.69992(9)
O73_7 O 0.15596(7) 0.04092(7) 0.74589(7)
C99_8 C 0.17652(12) 0.04892(10) 0.72254(10)
C100_8 C 0.18545(13) 0.08877(10) 0.67043(10)
H20_8 H 0.2059 0.0791 0.6618
C101_8 C 0.16670(11) 0.11814(11) 0.65646(10)
C102_8 C 0.17547(11) 0.13770(11) 0.62744(10)
S21_8 S 0.20936(3) 0.12990(3) 0.60091(3)
C103_8 C 0.19992(9) 0.16652(12) 0.57756(10)
O75_8 O 0.24589(7) 0.15596(7) 0.54092(7)
C104_8 C 0.22254(10) 0.17652(12) 0.54892(10)
C105_8 C 0.17043(10) 0.18545(13) 0.58877(10)
H21_8 H 0.1618 0.2059 0.5791
S22_7 S 0.20936(3) 0.39909(3) 0.62990(3)
C106_7 C 0.19992(9) 0.42244(10) 0.66652(12)
C107_7 C 0.17547(11) 0.37256(10) 0.63770(11)
O76_6 O 0.24589(7) 0.45908(7) 0.65596(7)
C108_7 C 0.22254(10) 0.45108(10) 0.67652(12)
O77_7 O 0.21830(7) 0.46485(7) 0.70520(8)
C109_7 C 0.17043(10) 0.41123(10) 0.68545(13)
H22_7 H 0.1618 0.4209 0.7059
C110_7 C 0.15646(10) 0.38186(11) 0.66670(11)
C111_7 C 0.12744(10) 0.36230(11) 0.67547(11)
C112_7 C 0.16670(11) 0.34354(10) 0.61814(11)
S23_7 S 0.10091(3) 0.37010(3) 0.70936(3)
C113_7 C 0.07756(10) 0.33348(12) 0.69992(9)
C114_7 C 0.04892(10) 0.32348(12) 0.72254(10)
C115_7 C 0.08877(10) 0.31455(13) 0.67043(10)
H23_7 H 0.0791 0.2941 0.6618
C116_7 C 0.11814(11) 0.33330(11) 0.65646(10)
C117_7 C 0.13770(11) 0.32453(11) 0.62744(10)
S24_7 S 0.12990(3) 0.29064(3) 0.60091(3)
C118_7 C 0.16652(12) 0.30008(9) 0.57756(10)
C119_7 C 0.17652(12) 0.27746(10) 0.54892(10)
C120_7 C 0.18545(13) 0.32957(10) 0.58877(10)
H24_7 H 0.2059 0.3382 0.5791
O83_12 O 0.14885(17) 0.0000 0.81613(12)
O83_13 O 0.14885(17) 1.0000 0.81613(12)
O84_7 O 0.15596(7) 0.95908(7) 0.74589(7)
O86_6 O 0.21830(7) 0.96485(7) 0.79480(8)
O67_13 O 1.0000 0.31613(12) 0.64885(17)
O70_6 O 0.95908(7) 0.24589(7) 0.65596(7)
S4_6 S 0.10091(3) 0.70936(3) 0.12990(3)
C16_6 C 0.04892(10) 0.72254(10) 0.17652(12)
C17_6 C 0.07756(10) 0.69992(9) 0.16652(12)
C18_6 C 0.08877(10) 0.67043(10) 0.18545(13)
H4_6 H 0.0791 0.6618 0.2059
C19_6 C 0.11814(11) 0.65646(10) 0.16670(11)
C20_6 C 0.12744(10) 0.67547(11) 0.13770(11)
S5_6 S 0.12990(3) 0.60091(3) 0.20936(3)
O10_6 O 0.15596(7) 0.54092(7) 0.24589(7)
C21_6 C 0.17652(12) 0.54892(10) 0.22254(10)
C22_6 C 0.16652(12) 0.57756(10) 0.19992(9)
C23_6 C 0.18545(13) 0.58877(10) 0.17043(10)
H5_6 H 0.2059 0.5791 0.1618
C24_6 C 0.16670(11) 0.61814(11) 0.15646(10)
C25_6 C 0.13770(11) 0.62744(10) 0.17547(11)
S6_6 S 0.20936(3) 0.62990(3) 0.10091(3)
O12_6 O 0.24589(7) 0.65596(7) 0.04092(7)
O13_6 O 0.21830(7) 0.70520(8) 0.03515(7)
C26_6 C 0.22254(10) 0.67652(12) 0.04892(10)
C27_6 C 0.19992(9) 0.66652(12) 0.07756(10)
C28_6 C 0.17043(10) 0.68545(13) 0.08877(10)
H6_6 H 0.1618 0.7059 0.0791
C29_6 C 0.15646(10) 0.66670(11) 0.11814(11)
C30_6 C 0.17547(11) 0.63770(11) 0.12744(10)
O14_8 O 0.14885(17) 0.5000 0.31613(12)
O46_9 O 0.5000 0.31613(12) 0.14885(17)
S19_9 S 0.62990(3) 0.20936(3) 0.39909(3)
C91_9 C 0.66652(12) 0.19992(9) 0.42244(10)
C92_9 C 0.63770(11) 0.17547(11) 0.37256(10)
C93_9 C 0.67652(12) 0.22254(10) 0.45108(10)
O72_7 O 0.70520(8) 0.21830(7) 0.46485(7)
C94_9 C 0.68545(13) 0.17043(10) 0.41123(10)
H19_9 H 0.7059 0.1618 0.4209
C95_9 C 0.66670(11) 0.15646(10) 0.38186(11)
C96_9 C 0.67547(11) 0.12744(10) 0.36230(11)
C97_9 C 0.61814(11) 0.16670(11) 0.34354(10)
S20_9 S 0.70936(3) 0.10091(3) 0.37010(3)
C98_9 C 0.69992(9) 0.07756(10) 0.33348(12)
C99_9 C 0.72254(10) 0.04892(10) 0.32348(12)
C100_9 C 0.67043(10) 0.08877(10) 0.31455(13)
H20_9 H 0.6618 0.0791 0.2941
C101_9 C 0.65646(10) 0.11814(11) 0.33330(11)
C102_9 C 0.62744(10) 0.13770(11) 0.32453(11)
S21_9 S 0.60091(3) 0.12990(3) 0.29064(3)
C103_9 C 0.57756(10) 0.16652(12) 0.30008(9)
O75_9 O 0.54092(7) 0.15596(7) 0.25411(7)
C104_9 C 0.54892(10) 0.17652(12) 0.27746(10)
C105_9 C 0.58877(10) 0.18545(13) 0.32957(10)
H21_9 H 0.5791 0.2059 0.3382
O15_9 O 0.5000 0.81613(12) 0.64885(17)
O20_6 O 0.53515(7) 0.79480(8) 0.71830(7)
S10_7 S 0.89909(3) 0.79064(3) 0.37010(3)
C46_7 C 0.92244(10) 0.80008(9) 0.33348(12)
C47_7 C 0.87256(10) 0.82453(11) 0.36230(11)
C48_7 C 0.95108(10) 0.77746(10) 0.32348(12)
C49_7 C 0.91123(10) 0.82957(10) 0.31455(13)
H10_7 H 0.9209 0.8382 0.2941
C50_7 C 0.88186(11) 0.84354(10) 0.33330(11)
C51_7 C 0.86230(11) 0.87256(10) 0.32453(11)
C52_7 C 0.84354(10) 0.83330(11) 0.38186(11)
S11_7 S 0.87010(3) 0.89909(3) 0.29064(3)
C53_7 C 0.83348(12) 0.92244(10) 0.30008(9)
C54_7 C 0.82348(12) 0.95108(10) 0.27746(10)
C55_7 C 0.81455(13) 0.91123(10) 0.32957(10)
H11_7 H 0.7941 0.9209 0.3382
C56_7 C 0.83330(11) 0.88186(11) 0.34354(10)
C57_7 C 0.82453(11) 0.86230(11) 0.37256(10)
S12_7 S 0.79064(3) 0.87010(3) 0.39909(3)
C58_7 C 0.80008(9) 0.83348(12) 0.42244(10)
O37_7 O 0.75411(7) 0.84404(7) 0.45908(7)
C59_7 C 0.77746(10) 0.82348(12) 0.45108(10)
C60_7 C 0.82957(10) 0.81455(13) 0.41123(10)
H12_7 H 0.8382 0.7941 0.4209
O42_11 O 0.5000 0.85115(17) 0.18387(12)
O43_8 O 0.45908(7) 0.84404(7) 0.25411(7)
O45_8 O 0.46485(7) 0.78170(7) 0.20520(8)
S19_10 S 0.37010(3) 0.89909(3) 0.20936(3)
C91_10 C 0.33348(12) 0.92244(10) 0.19992(9)
C92_10 C 0.36230(11) 0.87256(10) 0.17547(11)
C93_10 C 0.32348(12) 0.95108(10) 0.22254(10)
O72_8 O 0.29480(8) 0.96485(7) 0.21830(7)
C94_10 C 0.31455(13) 0.91123(10) 0.17043(10)
H19_10 H 0.2941 0.9209 0.1618
C95_10 C 0.33330(11) 0.88186(11) 0.15646(10)
C96_10 C 0.32453(11) 0.86230(11) 0.12744(10)
C97_10 C 0.38186(11) 0.84354(10) 0.16670(11)
S20_10 S 0.29064(3) 0.87010(3) 0.10091(3)
C98_10 C 0.30008(9) 0.83348(12) 0.07756(10)
O73_8 O 0.25411(7) 0.84404(7) 0.04092(7)
C99_10 C 0.27746(10) 0.82348(12) 0.04892(10)
Mn28_10 Mn 0.22837(2) 0.81614(2) 0.0000
C100_10 C 0.32957(10) 0.81455(13) 0.08877(10)
H20_10 H 0.3382 0.7941 0.0791
C101_10 C 0.34354(10) 0.83330(11) 0.11814(11)
C102_10 C 0.37256(10) 0.82453(11) 0.13770(11)
S21_10 S 0.39909(3) 0.79064(3) 0.12990(3)
C103_10 C 0.42244(10) 0.80008(9) 0.16652(12)
O75_10 O 0.45908(7) 0.75411(7) 0.15596(7)
C104_10 C 0.45108(10) 0.77746(10) 0.17652(12)
C105_10 C 0.41123(10) 0.82957(10) 0.18545(13)
H21_10 H 0.4209 0.8382 0.2059
S22_8 S 0.37010(3) 0.79064(3) 0.39909(3)
C106_8 C 0.33348(12) 0.80008(9) 0.42244(10)
C107_8 C 0.36230(11) 0.82453(11) 0.37256(10)
C108_8 C 0.32348(12) 0.77746(10) 0.45108(10)
O77_8 O 0.29480(8) 0.78170(7) 0.46485(7)
C109_8 C 0.31455(13) 0.82957(10) 0.41123(10)
H22_8 H 0.2941 0.8382 0.4209
C110_8 C 0.33330(11) 0.84354(10) 0.38186(11)
C111_8 C 0.32453(11) 0.87256(10) 0.36230(11)
C112_8 C 0.38186(11) 0.83330(11) 0.34354(10)
S23_8 S 0.29064(3) 0.89909(3) 0.37010(3)
C113_8 C 0.30008(9) 0.92244(10) 0.33348(12)
C114_8 C 0.27746(10) 0.95108(10) 0.32348(12)
C115_8 C 0.32957(10) 0.91123(10) 0.31455(13)
H23_8 H 0.3382 0.9209 0.2941
C116_8 C 0.34354(10) 0.88186(11) 0.33330(11)
C117_8 C 0.37256(10) 0.86230(11) 0.32453(11)
S24_8 S 0.39909(3) 0.87010(3) 0.29064(3)
C118_8 C 0.42244(10) 0.83348(12) 0.30008(9)
C119_8 C 0.45108(10) 0.82348(12) 0.27746(10)
C120_8 C 0.41123(10) 0.81455(13) 0.32957(10)
H24_8 H 0.4209 0.7941 0.3382
O83_14 O 0.18387(12) 0.85115(17) -0.0000
O85_6 O 0.20520(8) 0.78170(7) 0.03515(7)
Mn28_11 Mn 0.22837(2) 0.81614(2) 1.0000
O83_15 O 0.18387(12) 0.85115(17) 1.0000
O84_8 O 0.25411(7) 0.84404(7) 0.95908(7)
O86_7 O 0.20520(8) 0.78170(7) 0.96485(7)
S4_7 S 0.70936(3) 0.89909(3) 0.62990(3)
C16_7 C 0.72254(10) 0.95108(10) 0.67652(12)
C17_7 C 0.69992(9) 0.92244(10) 0.66652(12)
C18_7 C 0.67043(10) 0.91123(10) 0.68545(13)
H4_7 H 0.6618 0.9209 0.7059
C19_7 C 0.65646(10) 0.88186(11) 0.66670(11)
C20_7 C 0.67547(11) 0.87256(10) 0.63770(11)
S5_7 S 0.60091(3) 0.87010(3) 0.70936(3)
O10_7 O 0.54092(7) 0.84404(7) 0.74589(7)
C21_7 C 0.54892(10) 0.82348(12) 0.72254(10)
C22_7 C 0.57756(10) 0.83348(12) 0.69992(9)
C23_7 C 0.58877(10) 0.81455(13) 0.67043(10)
H5_7 H 0.5791 0.7941 0.6618
C24_7 C 0.61814(11) 0.83330(11) 0.65646(10)
C25_7 C 0.62744(10) 0.86230(11) 0.67547(11)
S6_7 S 0.62990(3) 0.79064(3) 0.60091(3)
O13_7 O 0.70520(8) 0.78170(7) 0.53515(7)
C26_7 C 0.67652(12) 0.77746(10) 0.54892(10)
C27_7 C 0.66652(12) 0.80008(9) 0.57756(10)
C28_7 C 0.68545(13) 0.82957(10) 0.58877(10)
H6_7 H 0.7059 0.8382 0.5791
C29_7 C 0.66670(11) 0.84354(10) 0.61814(11)
C30_7 C 0.63770(11) 0.82453(11) 0.62744(10)
O14_9 O 0.5000 0.85115(17) 0.81613(12)
O22_6 O 0.46485(7) 0.78170(7) 0.79480(8)
S7_7 S 0.37010(3) 0.70936(3) 0.89909(3)
C31_7 C 0.33348(12) 0.69992(9) 0.92244(10)
C32_7 C 0.36230(11) 0.67547(11) 0.87256(10)
C33_7 C 0.32348(12) 0.72254(10) 0.95108(10)
O29_5 O 0.29480(8) 0.71830(7) 0.96485(7)
C34_7 C 0.31455(13) 0.67043(10) 0.91123(10)
H7_7 H 0.2941 0.6618 0.9209
C35_7 C 0.33330(11) 0.65646(10) 0.88186(11)
C36_7 C 0.32453(11) 0.62744(10) 0.86230(11)
C37_7 C 0.38186(11) 0.66670(11) 0.84354(10)
S8_7 S 0.29064(3) 0.60091(3) 0.87010(3)
C38_7 C 0.30008(9) 0.57756(10) 0.83348(12)
C39_7 C 0.27746(10) 0.54892(10) 0.82348(12)
C40_7 C 0.32957(10) 0.58877(10) 0.81455(13)
H8_7 H 0.3382 0.5791 0.7941
C41_7 C 0.34354(10) 0.61814(11) 0.83330(11)
C42_7 C 0.37256(10) 0.63770(11) 0.82453(11)
S9_7 S 0.39909(3) 0.62990(3) 0.79064(3)
C43_7 C 0.42244(10) 0.66652(12) 0.80008(9)
C44_7 C 0.45108(10) 0.67652(12) 0.77746(10)
O33_7 O 0.46485(7) 0.70520(8) 0.78170(7)
C45_7 C 0.41123(10) 0.68545(13) 0.82957(10)
H9_7 H 0.4209 0.7059 0.8382
S10_8 S 0.37010(3) 0.89909(3) 0.79064(3)
C46_8 C 0.33348(12) 0.92244(10) 0.80008(9)
C47_8 C 0.36230(11) 0.87256(10) 0.82453(11)
C48_8 C 0.32348(12) 0.95108(10) 0.77746(10)
C49_8 C 0.31455(13) 0.91123(10) 0.82957(10)
H10_8 H 0.2941 0.9209 0.8382
C50_8 C 0.33330(11) 0.88186(11) 0.84354(10)
C51_8 C 0.32453(11) 0.86230(11) 0.87256(10)
C52_8 C 0.38186(11) 0.84354(10) 0.83330(11)
S11_8 S 0.29064(3) 0.87010(3) 0.89909(3)
C53_8 C 0.30008(9) 0.83348(12) 0.92244(10)
C54_8 C 0.27746(10) 0.82348(12) 0.95108(10)
C55_8 C 0.32957(10) 0.81455(13) 0.91123(10)
H11_8 H 0.3382 0.7941 0.9209
C56_8 C 0.34354(10) 0.83330(11) 0.88186(11)
C57_8 C 0.37256(10) 0.82453(11) 0.86230(11)
S12_8 S 0.39909(3) 0.79064(3) 0.87010(3)
C58_8 C 0.42244(10) 0.80008(9) 0.83348(12)
O37_8 O 0.45908(7) 0.75411(7) 0.84404(7)
C59_8 C 0.45108(10) 0.77746(10) 0.82348(12)
C60_8 C 0.41123(10) 0.82957(10) 0.81455(13)
H12_8 H 0.4209 0.8382 0.7941
O46_10 O 0.31613(12) 0.5000 0.64885(17)
S19_11 S 0.20936(3) 0.37010(3) 0.89909(3)
C91_11 C 0.19992(9) 0.33348(12) 0.92244(10)
C92_11 C 0.17547(11) 0.36230(11) 0.87256(10)
C93_11 C 0.22254(10) 0.32348(12) 0.95108(10)
O72_9 O 0.21830(7) 0.29480(8) 0.96485(7)
C94_11 C 0.17043(10) 0.31455(13) 0.91123(10)
H19_11 H 0.1618 0.2941 0.9209
C95_11 C 0.15646(10) 0.33330(11) 0.88186(11)
C96_11 C 0.12744(10) 0.32453(11) 0.86230(11)
C97_11 C 0.16670(11) 0.38186(11) 0.84354(10)
S20_11 S 0.10091(3) 0.29064(3) 0.87010(3)
C98_11 C 0.07756(10) 0.30008(9) 0.83348(12)
C99_11 C 0.04892(10) 0.27746(10) 0.82348(12)
C100_11 C 0.08877(10) 0.32957(10) 0.81455(13)
H20_11 H 0.0791 0.3382 0.7941
C101_11 C 0.11814(11) 0.34354(10) 0.83330(11)
C102_11 C 0.13770(11) 0.37256(10) 0.82453(11)
S21_11 S 0.12990(3) 0.39909(3) 0.79064(3)
C103_11 C 0.16652(12) 0.42244(10) 0.80008(9)
O75_11 O 0.15596(7) 0.45908(7) 0.75411(7)
C104_11 C 0.17652(12) 0.45108(10) 0.77746(10)
C105_11 C 0.18545(13) 0.41123(10) 0.82957(10)
H21_11 H 0.2059 0.4209 0.8382
O14_10 O 0.5000 0.14885(17) 0.81613(12)
O46_11 O 0.68387(12) 0.5000 0.64885(17)
S10_9 S 0.89909(3) 0.20936(3) 0.62990(3)
C46_9 C 0.92244(10) 0.19992(9) 0.66652(12)
C47_9 C 0.87256(10) 0.17547(11) 0.63770(11)
C48_9 C 0.95108(10) 0.22254(10) 0.67652(12)
C49_9 C 0.91123(10) 0.17043(10) 0.68545(13)
H10_9 H 0.9209 0.1618 0.7059
C50_9 C 0.88186(11) 0.15646(10) 0.66670(11)
C51_9 C 0.86230(11) 0.12744(10) 0.67547(11)
C52_9 C 0.84354(10) 0.16670(11) 0.61814(11)
S11_9 S 0.87010(3) 0.10091(3) 0.70936(3)
C53_9 C 0.83348(12) 0.07756(10) 0.69992(9)
C54_9 C 0.82348(12) 0.04892(10) 0.72254(10)
C55_9 C 0.81455(13) 0.08877(10) 0.67043(10)
H11_9 H 0.7941 0.0791 0.6618
C56_9 C 0.83330(11) 0.11814(11) 0.65646(10)
C57_9 C 0.82453(11) 0.13770(11) 0.62744(10)
S12_9 S 0.79064(3) 0.12990(3) 0.60091(3)
C58_9 C 0.80008(9) 0.16652(12) 0.57756(10)
O37_9 O 0.75411(7) 0.15596(7) 0.54092(7)
C59_9 C 0.77746(10) 0.17652(12) 0.54892(10)
C60_9 C 0.82957(10) 0.18545(13) 0.58877(10)
H12_9 H 0.8382 0.2059 0.5791
O46_12 O 0.68387(12) 0.5000 0.35115(17)
O67_14 O 0.68387(12) 0.35115(17) 0.0000
O67_15 O 0.68387(12) 0.35115(17) 1.0000
S10_10 S 0.10091(3) 0.20936(3) 0.37010(3)
C46_10 C 0.07756(10) 0.19992(9) 0.33348(12)
C47_10 C 0.12744(10) 0.17547(11) 0.36230(11)
C48_10 C 0.04892(10) 0.22254(10) 0.32348(12)
O35_6 O 0.03515(7) 0.21830(7) 0.29480(8)
C49_10 C 0.08877(10) 0.17043(10) 0.31455(13)
H10_10 H 0.0791 0.1618 0.2941
C50_10 C 0.11814(11) 0.15646(10) 0.33330(11)
C51_10 C 0.13770(11) 0.12744(10) 0.32453(11)
C52_10 C 0.15646(10) 0.16670(11) 0.38186(11)
S11_10 S 0.12990(3) 0.10091(3) 0.29064(3)
C53_10 C 0.16652(12) 0.07756(10) 0.30008(9)
C54_10 C 0.17652(12) 0.04892(10) 0.27746(10)
C55_10 C 0.18545(13) 0.08877(10) 0.32957(10)
H11_10 H 0.2059 0.0791 0.3382
C56_10 C 0.16670(11) 0.11814(11) 0.34354(10)
C57_10 C 0.17547(11) 0.13770(11) 0.37256(10)
S12_10 S 0.20936(3) 0.12990(3) 0.39909(3)
C58_10 C 0.19992(9) 0.16652(12) 0.42244(10)
O37_10 O 0.24589(7) 0.15596(7) 0.45908(7)
C59_10 C 0.22254(10) 0.17652(12) 0.45108(10)
C60_10 C 0.17043(10) 0.18545(13) 0.41123(10)
H12_10 H 0.1618 0.2059 0.4209
O42_12 O 0.5000 0.14885(17) 0.18387(12)
S10_11 S 0.10091(3) 0.79064(3) 0.62990(3)
C46_11 C 0.07756(10) 0.80008(9) 0.66652(12)
C47_11 C 0.12744(10) 0.82453(11) 0.63770(11)
C48_11 C 0.04892(10) 0.77746(10) 0.67652(12)
C49_11 C 0.08877(10) 0.82957(10) 0.68545(13)
H10_11 H 0.0791 0.8382 0.7059
C50_11 C 0.11814(11) 0.84354(10) 0.66670(11)
C51_11 C 0.13770(11) 0.87256(10) 0.67547(11)
C52_11 C 0.15646(10) 0.83330(11) 0.61814(11)
S11_11 S 0.12990(3) 0.89909(3) 0.70936(3)
C53_11 C 0.16652(12) 0.92244(10) 0.69992(9)
C54_11 C 0.17652(12) 0.95108(10) 0.72254(10)
C55_11 C 0.18545(13) 0.91123(10) 0.67043(10)
H11_11 H 0.2059 0.9209 0.6618
C56_11 C 0.16670(11) 0.88186(11) 0.65646(10)
C57_11 C 0.17547(11) 0.86230(11) 0.62744(10)
S12_11 S 0.20936(3) 0.87010(3) 0.60091(3)
C58_11 C 0.19992(9) 0.83348(12) 0.57756(10)
O37_11 O 0.24589(7) 0.84404(7) 0.54092(7)
C59_11 C 0.22254(10) 0.82348(12) 0.54892(10)
C60_11 C 0.17043(10) 0.81455(13) 0.58877(10)
H12_11 H 0.1618 0.7941 0.5791
O46_13 O 0.31613(12) 0.5000 0.35115(17)
O67_16 O 0.31613(12) 0.64885(17) 0.0000
O67_17 O 0.31613(12) 0.64885(17) 1.0000
O67_18 O 0.31613(12) -0.0000 0.14885(17)
O70_7 O 0.24589(7) 0.04092(7) 0.15596(7)
O67_19 O 0.31613(12) 1.0000 0.14885(17)
O68_8 O 0.24589(7) 0.95908(7) 0.15596(7)
S19_12 S 0.20936(3) 0.89909(3) 0.12990(3)
C91_12 C 0.19992(9) 0.92244(10) 0.16652(12)
C92_12 C 0.17547(11) 0.87256(10) 0.13770(11)
C93_12 C 0.22254(10) 0.95108(10) 0.17652(12)
C94_12 C 0.17043(10) 0.91123(10) 0.18545(13)
H19_12 H 0.1618 0.9209 0.2059
C95_12 C 0.15646(10) 0.88186(11) 0.16670(11)
C96_12 C 0.12744(10) 0.86230(11) 0.17547(11)
C97_12 C 0.16670(11) 0.84354(10) 0.11814(11)
S20_12 S 0.10091(3) 0.87010(3) 0.20936(3)
C98_12 C 0.07756(10) 0.83348(12) 0.19992(9)
C99_12 C 0.04892(10) 0.82348(12) 0.22254(10)
C100_12 C 0.08877(10) 0.81455(13) 0.17043(10)
H20_12 H 0.0791 0.7941 0.1618
C101_12 C 0.11814(11) 0.83330(11) 0.15646(10)
C102_12 C 0.13770(11) 0.82453(11) 0.12744(10)
S21_12 S 0.12990(3) 0.79064(3) 0.10091(3)
C103_12 C 0.16652(12) 0.80008(9) 0.07756(10)
O75_12 O 0.15596(7) 0.75411(7) 0.04092(7)
C104_12 C 0.17652(12) 0.77746(10) 0.04892(10)
C105_12 C 0.18545(13) 0.82957(10) 0.08877(10)
H21_12 H 0.2059 0.8382 0.0791
O83_16 O -0.0000 0.14885(17) 0.31613(12)
O84_9 O 0.04092(7) 0.15596(7) 0.24589(7)
O67_20 O 0.68387(12) 0.0000 0.14885(17)
O68_9 O 0.75411(7) 0.04092(7) 0.15596(7)
S19_13 S 0.79064(3) 0.10091(3) 0.12990(3)
C91_13 C 0.80008(9) 0.07756(10) 0.16652(12)
C92_13 C 0.82453(11) 0.12744(10) 0.13770(11)
C93_13 C 0.77746(10) 0.04892(10) 0.17652(12)
C94_13 C 0.82957(10) 0.08877(10) 0.18545(13)
H19_13 H 0.8382 0.0791 0.2059
C95_13 C 0.84354(10) 0.11814(11) 0.16670(11)
C96_13 C 0.87256(10) 0.13770(11) 0.17547(11)
C97_13 C 0.83330(11) 0.15646(10) 0.11814(11)
S20_13 S 0.89909(3) 0.12990(3) 0.20936(3)
C98_13 C 0.92244(10) 0.16652(12) 0.19992(9)
O73_9 O 0.95908(7) 0.15596(7) 0.24589(7)
C99_13 C 0.95108(10) 0.17652(12) 0.22254(10)
C100_13 C 0.91123(10) 0.18545(13) 0.17043(10)
H20_13 H 0.9209 0.2059 0.1618
C101_13 C 0.88186(11) 0.16670(11) 0.15646(10)
C102_13 C 0.86230(11) 0.17547(11) 0.12744(10)
S21_13 S 0.87010(3) 0.20936(3) 0.10091(3)
C103_13 C 0.83348(12) 0.19992(9) 0.07756(10)
O75_13 O 0.84404(7) 0.24589(7) 0.04092(7)
C104_13 C 0.82348(12) 0.22254(10) 0.04892(10)
C105_13 C 0.81455(13) 0.17043(10) 0.08877(10)
H21_13 H 0.7941 0.1618 0.0791
O83_17 O 1.0000 0.14885(17) 0.31613(12)
O67_21 O 0.68387(12) 1.0000 0.14885(17)
S10_12 S 0.20936(3) 0.89909(3) 0.87010(3)
C46_12 C 0.19992(9) 0.92244(10) 0.83348(12)
C47_12 C 0.17547(11) 0.87256(10) 0.86230(11)
C48_12 C 0.22254(10) 0.95108(10) 0.82348(12)
C49_12 C 0.17043(10) 0.91123(10) 0.81455(13)
H10_12 H 0.1618 0.9209 0.7941
C50_12 C 0.15646(10) 0.88186(11) 0.83330(11)
C51_12 C 0.12744(10) 0.86230(11) 0.82453(11)
C52_12 C 0.16670(11) 0.84354(10) 0.88186(11)
S11_12 S 0.10091(3) 0.87010(3) 0.79064(3)
C53_12 C 0.07756(10) 0.83348(12) 0.80008(9)
C54_12 C 0.04892(10) 0.82348(12) 0.77746(10)
C55_12 C 0.08877(10) 0.81455(13) 0.82957(10)
H11_12 H 0.0791 0.7941 0.8382
C56_12 C 0.11814(11) 0.83330(11) 0.84354(10)
C57_12 C 0.13770(11) 0.82453(11) 0.87256(10)
S12_12 S 0.12990(3) 0.79064(3) 0.89909(3)
C58_12 C 0.16652(12) 0.80008(9) 0.92244(10)
O37_12 O 0.15596(7) 0.75411(7) 0.95908(7)
C59_12 C 0.17652(12) 0.77746(10) 0.95108(10)
C60_12 C 0.18545(13) 0.82957(10) 0.91123(10)
H12_12 H 0.2059 0.8382 0.9209
O42_13 O 0.14885(17) 0.5000 0.68387(12)
S10_13 S 0.20936(3) 0.10091(3) 0.12990(3)
C46_13 C 0.19992(9) 0.07756(10) 0.16652(12)
C47_13 C 0.17547(11) 0.12744(10) 0.13770(11)
C48_13 C 0.22254(10) 0.04892(10) 0.17652(12)
C49_13 C 0.17043(10) 0.08877(10) 0.18545(13)
H10_13 H 0.1618 0.0791 0.2059
C50_13 C 0.15646(10) 0.11814(11) 0.16670(11)
C51_13 C 0.12744(10) 0.13770(11) 0.17547(11)
C52_13 C 0.16670(11) 0.15646(10) 0.11814(11)
S11_13 S 0.10091(3) 0.12990(3) 0.20936(3)
C53_13 C 0.07756(10) 0.16652(12) 0.19992(9)
C54_13 C 0.04892(10) 0.17652(12) 0.22254(10)
C55_13 C 0.08877(10) 0.18545(13) 0.17043(10)
H11_13 H 0.0791 0.2059 0.1618
C56_13 C 0.11814(11) 0.16670(11) 0.15646(10)
C57_13 C 0.13770(11) 0.17547(11) 0.12744(10)
S12_13 S 0.12990(3) 0.20936(3) 0.10091(3)
C58_13 C 0.16652(12) 0.19992(9) 0.07756(10)
O37_13 O 0.15596(7) 0.24589(7) 0.04092(7)
C59_13 C 0.17652(12) 0.22254(10) 0.04892(10)
C60_13 C 0.18545(13) 0.17043(10) 0.08877(10)
H12_13 H 0.2059 0.1618 0.0791
O46_14 O 0.5000 0.68387(12) 0.14885(17)
O46_15 O 0.5000 0.68387(12) 0.85115(17)
O42_14 O 0.85115(17) 0.68387(12) -0.0000
O42_15 O 0.85115(17) 0.68387(12) 1.0000
O46_16 O 0.68387(12) 0.14885(17) 0.5000
O42_16 O 0.14885(17) 0.31613(12) -0.0000
O42_17 O 0.14885(17) 0.31613(12) 1.0000
O46_17 O 0.31613(12) 0.85115(17) 0.5000
O83_18 O 0.85115(17) 0.31613(12) -0.0000
O83_19 O 0.85115(17) 0.31613(12) 1.0000
O42_18 O 0.14885(17) 0.68387(12) 0.0000
O42_19 O 0.14885(17) 0.68387(12) 1.0000
O67_22 O 0.68387(12) 0.85115(17) 0.5000
O67_23 O 0.31613(12) 0.14885(17) 0.5000
loop_
_geom_bond_atom_site_label_1
_geom_bond_atom_site_label_2
_geom_bond_site_symmetry_1
_geom_bond_site_symmetry_2
Mn11 O24 1_555 1_555
O27 Mn11 1_555 1_555
O28 Mn11 1_555 1_555
O38 Mn18 1_555 1_555
O39 Mn18 1_555 1_555
O41 Mn18 1_555 1_555
Mn26 O67 1_555 1_555
O70 Mn26 1_555 1_555
O71 Mn26 1_555 1_555
O79 Mn32 1_555 1_555
O80 Mn32 1_555 1_555
O82 Mn32 1_555 1_555
Mn1 O1 1_555 1_555
S1 C2 1_555 1_555
O2 Mn1 1_555 1_555
O3 C1 1_555 1_555
C1 O2 1_555 1_555
C2 C1 1_555 1_555
C3 C2 1_555 1_555
H1 C3 1_555 1_555
C4 C3 1_555 1_555
C5 S1 1_555 1_555
S2 C7 1_555 1_555
O4 C6 1_555 1_555
O5 C6 1_555 1_555
C6 C7 1_555 1_555
C7 C8 1_555 1_555
C8 H2 1_555 1_555
C9 C8 1_555 1_555
C10 C4 1_555 1_555
S3 C12 1_555 1_555
O6 C11 1_555 1_555
O7 C11 1_555 1_555
C11 C12 1_555 1_555
C12 C13 1_555 1_555
C13 H3 1_555 1_555
C14 C5 1_555 1_555
C15 C9 1_555 1_555
S4 C17 1_555 1_555
O8 C16 1_555 1_555
O9 C16 1_555 1_555
C16 C17 1_555 1_555
C17 C18 1_555 1_555
C18 H4 1_555 1_555
C19 C18 1_555 1_555
C20 S4 1_555 1_555
S5 C22 1_555 1_555
O10 C21 1_555 1_555
O11 Mn1 1_555 1_555
C21 O11 1_555 1_555
C22 C21 1_555 1_555
C23 C22 1_555 1_555
H5 C23 1_555 1_555
C24 C23 1_555 1_555
C25 C19 1_555 1_555
S6 C27 1_555 1_555
O12 C26 1_555 1_555
O13 C26 1_555 1_555
C26 C27 1_555 1_555
C27 C28 1_555 1_555
C28 H6 1_555 1_555
C29 C20 1_555 1_555
C30 C24 1_555 1_555
Mn2 O10 1_555 1_555
O14 Mn2 1_555 1_555
Mn3 O4 1_555 1_555
O15 Mn3 1_555 1_555
Mn4_2 O8 1_555 1_555
Mn5 O6 1_555 1_555
Mn6 O7 1_555 1_555
Mn7 O5 1_555 1_555
Mn8 O13 1_555 1_555
Mn9 O3 1_555 1_555
Mn10_2 O9 1_555 1_555
O16 Mn1 1_555 1_555
O17 Mn2 1_555 1_555
O18 Mn3 1_555 1_555
O19 Mn2 1_555 1_555
O20 Mn3 1_555 1_555
O21 Mn1 1_555 1_555
O22 Mn2 1_555 1_555
O23 Mn3 1_555 1_555
Mn11_2 O24_2 1_555 1_555
O25 Mn11_2 1_555 1_555
O26 Mn11_2 1_555 1_555
S7 C31 1_555 1_555
C31 C33 1_555 1_555
C32 S7 1_555 1_555
C33 O25 1_555 1_555
O29 C33 1_555 1_555
Mn12_2 O29 1_555 1_555
C34 C31 1_555 1_555
H7 C34 1_555 1_555
C35 C32 1_555 1_555
C36 C35 1_555 1_555
C37 C32 1_555 1_555
S8 C36 1_555 1_555
C38 S8 1_555 1_555
O30 C39 1_555 1_555
C39 C38 1_555 1_555
Mn13 O30 1_555 1_555
O31 C39 1_555 1_555
Mn14 O31 1_555 1_555
C40 C38 1_555 1_555
H8 C40 1_555 1_555
C41 C36 1_555 1_555
C42 C37 1_555 1_555
S9 C42 1_555 1_555
C43 S9 1_555 1_555
O32 Mn9 1_555 1_555
C44 C43 1_555 1_555
O33 C44 1_555 1_555
Mn15 O33 1_555 1_555
C45 C37 1_555 1_555
H9 C45 1_555 1_555
S10 C46 1_555 1_555
C46 C48 1_555 1_555
C47 S10 1_555 1_555
O34 C48 1_555 1_555
C48 O35 1_555 1_555
Mn16_2 O34 1_555 1_555
O35 Mn17_2 1_555 1_555
C49 C46 1_555 1_555
H10 C49 1_555 1_555
C50 C47 1_555 1_555
C51 C50 1_555 1_555
C52 C47 1_555 1_555
S11 C51 1_555 1_555
C53 S11 1_555 1_555
O36 C54 1_555 1_555
C54 O26 1_555 1_555
Mn18_2 O36 1_555 1_555
C55 C53 1_555 1_555
H11 C55 1_555 1_555
C56 C51 1_555 1_555
C57 C52 1_555 1_555
S12 C57 1_555 1_555
C58 S12 1_555 1_555
O37 Mn15 1_555 1_555
C59 O22 1_555 1_555
C60 C52 1_555 1_555
H12 C60 1_555 1_555
O38_2 Mn18_2 1_555 1_555
O40 Mn18_2 1_555 1_555
O42 Mn13 1_555 1_555
O43 Mn13 1_555 1_555
O44 Mn13 1_555 1_555
O45 Mn13 1_555 1_555
Mn19 O46 1_555 1_555
O47 Mn19 1_555 1_555
O48 Mn19 1_555 1_555
O49 Mn19 1_555 1_555
O50 Mn19 1_555 1_555
S13 C61 1_555 1_555
C61 C63 1_555 1_555
C62 S13 1_555 1_555
C63 O47 1_555 1_555
O51 C63 1_555 1_555
Mn20 O51 1_555 1_555
C64 C61 1_555 1_555
H13 C64 1_555 1_555
C65 C62 1_555 1_555
C66 C65 1_555 1_555
C67 C62 1_555 1_555
S14 C66 1_555 1_555
C68 S14 1_555 1_555
O52 C69 1_555 1_555
C69 C68 1_555 1_555
Mn21 O52 1_555 1_555
O53 C69 1_555 1_555
Mn22 O53 1_555 1_555
C70 C68 1_555 1_555
H14 C70 1_555 1_555
C71 C66 1_555 1_555
C72 C67 1_555 1_555
S15 C72 1_555 1_555
C73 S15 1_555 1_555
O54 C74 1_555 1_555
C74 C73 1_555 1_555
Mn23 O54 1_555 1_555
O55 C74 1_555 1_555
Mn24 O55 1_555 1_555
C75 C67 1_555 1_555
H15 C75 1_555 1_555
S16 C76 1_555 1_555
C76 C78 1_555 1_555
C77 S16 1_555 1_555
C78 O16 1_555 1_555
O56 Mn9 1_555 1_555
C79 C76 1_555 1_555
H16 C79 1_555 1_555
C80 C77 1_555 1_555
C81 C80 1_555 1_555
C82 C77 1_555 1_555
S17 C81 1_555 1_555
C83 S17 1_555 1_555
O57 Mn14 1_555 1_555
C84 O48 1_555 1_555
C85 C83 1_555 1_555
H17 C85 1_555 1_555
C86 C81 1_555 1_555
C87 C82 1_555 1_555
S18 C87 1_555 1_555
C88 S18 1_555 1_555
O58 Mn24 1_555 1_555
C89 C88 1_555 1_555
O59 C89 1_555 1_555
Mn25 O59 1_555 1_555
C90 C82 1_555 1_555
H18 C90 1_555 1_555
O60 Mn14 1_555 1_555
O61 Mn14 1_555 1_555
O62 Mn14 1_555 1_555
O63 Mn21 1_555 1_555
O65 Mn21 1_555 1_555
Mn26_2 O67_2 1_555 1_555
O68 Mn26_2 1_555 1_555
O69 Mn26_2 1_555 1_555
S19 C91 1_555 1_555
C91 C93 1_555 1_555
C92 S19 1_555 1_555
C93 O68 1_555 1_555
O72 C93 1_555 1_555
Mn27_2 O72 1_555 1_555
C94 C91 1_555 1_555
H19 C94 1_555 1_555
C95 C92 1_555 1_555
C96 C95 1_555 1_555
C97 C92 1_555 1_555
S20 C96 1_555 1_555
C98 S20 1_555 1_555
O73 C99 1_555 1_555
C99 C98 1_555 1_555
Mn28 O73 1_555 1_555
O74 C99 1_555 1_555
Mn29 O74 1_555 1_555
C100 C98 1_555 1_555
H20 C100 1_555 1_555
C101 C96 1_555 1_555
C102 C97 1_555 1_555
S21 C102 1_555 1_555
C103 S21 1_555 1_555
O75 Mn20 1_555 1_555
C104 O45 1_555 1_555
C105 C97 1_555 1_555
H21 C105 1_555 1_555
S22 C106 1_555 1_555
C106 C108 1_555 1_555
C107 S22 1_555 1_555
O76 C108 1_555 1_555
C108 O77 1_555 1_555
Mn30 O76 1_555 1_555
O77 Mn31 1_555 1_555
C109 C106 1_555 1_555
H22 C109 1_555 1_555
C110 C107 1_555 1_555
C111 C110 1_555 1_555
C112 C107 1_555 1_555
S23 C111 1_555 1_555
C113 S23 1_555 1_555
O78 C114 1_555 1_555
C114 O69 1_555 1_555
Mn32_2 O78 1_555 1_555
C115 C113 1_555 1_555
H23 C115 1_555 1_555
C116 C111 1_555 1_555
C117 C112 1_555 1_555
S24 C117 1_555 1_555
C118 S24 1_555 1_555
C119 O43 1_555 1_555
C120 C112 1_555 1_555
H24 C120 1_555 1_555
O79_2 Mn32_2 1_555 1_555
O81 Mn32_2 1_555 1_555
O83 Mn28 1_555 1_555
O85 Mn28 1_555 1_555
C4 C5 1_555 1_555
S2 C10 1_555 1_555
C9 C10 1_555 1_555
S3 C15 1_555 1_555
C13 C14 1_555 1_555
C14 C15 1_555 1_555
C19 C20 1_555 1_555
S5 C25 1_555 1_555
C24 C25 1_555 1_555
S6 C30 1_555 1_555
O12 Mn6 1_555 1_555
C28 C29 1_555 1_555
C29 C30 1_555 1_555
C34 C35 1_555 1_555
C40 C41 1_555 1_555
C41 C42 1_555 1_555
C43 C45 1_555 1_555
O32 C44 1_555 1_555
C49 C50 1_555 1_555
C53 C54 1_555 1_555
C55 C56 1_555 1_555
C56 C57 1_555 1_555
C58 C59 1_555 1_555
C58 C60 1_555 1_555
O37 C59 1_555 1_555
C64 C65 1_555 1_555
C70 C71 1_555 1_555
C71 C72 1_555 1_555
C73 C75 1_555 1_555
C78 O56 1_555 1_555
C79 C80 1_555 1_555
C83 C84 1_555 1_555
O57 C84 1_555 1_555
C85 C86 1_555 1_555
C86 C87 1_555 1_555
C88 C90 1_555 1_555
O58 C89 1_555 1_555
O62 C119 1_555 1_555
C94 C95 1_555 1_555
C100 C101 1_555 1_555
C101 C102 1_555 1_555
C103 C104 1_555 1_555
C103 C105 1_555 1_555
O75 C104 1_555 1_555
C109 C110 1_555 1_555
C113 C114 1_555 1_555
C115 C116 1_555 1_555
C116 C117 1_555 1_555
C118 C119 1_555 1_555
C118 C120 1_555 1_555
O63_2 Mn21_2 1_555 1_555
O64 Mn21_2 1_555 1_555
O66 Mn21_2 1_555 1_555
O83_2 Mn28_2 1_555 1_555
O84 Mn28_2 1_555 1_555
O86 Mn28_2 1_555 1_555
O63_3 Mn21_3 1_555 1_555
O64_2 Mn21_3 1_555 1_555
O66_2 Mn21_3 1_555 1_555
O83_3 Mn28_3 1_555 1_555
O84_2 Mn28_3 1_555 1_555
O86_2 Mn28_3 1_555 1_555
Mn11_3 O24_3 1_555 1_555
O27_2 Mn11_3 1_555 1_555
O28_2 Mn11_3 1_555 1_555
O38_3 Mn29 1_555 1_555
O39_2 Mn29 1_555 1_555
Mn26_3 O67_3 1_555 1_555
O70_2 Mn26_3 1_555 1_555
O71_2 Mn26_3 1_555 1_555
O79_3 Mn22 1_555 1_555
O80_2 Mn22 1_555 1_555
Mn1_2 O1_2 1_555 1_555
S1_2 C2_2 1_555 1_555
O2_2 Mn1_2 1_555 1_555
O3_2 C1_2 1_555 1_555
C1_2 O2_2 1_555 1_555
C2_2 C1_2 1_555 1_555
C3_2 C2_2 1_555 1_555
H1_2 C3_2 1_555 1_555
C4_2 C3_2 1_555 1_555
C5_2 S1_2 1_555 1_555
S2_2 C7_2 1_555 1_555
O4_2 C6_2 1_555 1_555
O5_2 C6_2 1_555 1_555
C6_2 C7_2 1_555 1_555
C7_2 C8_2 1_555 1_555
C8_2 H2_2 1_555 1_555
C9_2 C8_2 1_555 1_555
C10_2 C4_2 1_555 1_555
S3_2 C12_2 1_555 1_555
O6_2 C11_2 1_555 1_555
O7_2 C11_2 1_555 1_555
C11_2 C12_2 1_555 1_555
C12_2 C13_2 1_555 1_555
C13_2 H3_2 1_555 1_555
C14_2 C5_2 1_555 1_555
C15_2 C9_2 1_555 1_555
S4_2 C17_2 1_555 1_555
O8_2 C16_2 1_555 1_555
O9_2 C16_2 1_555 1_555
C16_2 C17_2 1_555 1_555
C17_2 C18_2 1_555 1_555
C18_2 H4_2 1_555 1_555
C19_2 C18_2 1_555 1_555
C20_2 S4_2 1_555 1_555
S5_2 C22_2 1_555 1_555
O10_2 C21_2 1_555 1_555
O11_2 Mn1_2 1_555 1_555
C21_2 O11_2 1_555 1_555
C22_2 C21_2 1_555 1_555
C23_2 C22_2 1_555 1_555
H5_2 C23_2 1_555 1_555
C24_2 C23_2 1_555 1_555
C25_2 C19_2 1_555 1_555
S6_2 C27_2 1_555 1_555
O12_2 C26_2 1_555 1_555
O13_2 C26_2 1_555 1_555
C26_2 C27_2 1_555 1_555
C27_2 C28_2 1_555 1_555
C28_2 H6_2 1_555 1_555
C29_2 C20_2 1_555 1_555
C30_2 C24_2 1_555 1_555
Mn2_2 O10_2 1_555 1_555
O14_2 Mn2_2 1_555 1_555
Mn3_2 O4_2 1_555 1_555
O15_2 Mn3_2 1_555 1_555
Mn4_3 O8_2 1_555 1_555
Mn5_2 O6_2 1_555 1_555
Mn6_2 O7_2 1_555 1_555
Mn7_2 O5_2 1_555 1_555
Mn8_2 O13_2 1_555 1_555
Mn9_2 O3_2 1_555 1_555
Mn10_3 O9_2 1_555 1_555
O16_2 Mn1_2 1_555 1_555
O17_2 Mn2_2 1_555 1_555
O19_2 Mn2_2 1_555 1_555
O20_2 Mn3_2 1_555 1_555
O21_2 Mn1_2 1_555 1_555
O22_2 Mn2_2 1_555 1_555
Mn11_4 O24_4 1_555 1_555
O25_2 Mn11_4 1_555 1_555
O26_2 Mn11_4 1_555 1_555
S7_2 C31_2 1_555 1_555
C31_2 C33_2 1_555 1_555
C32_2 S7_2 1_555 1_555
C33_2 O25_2 1_555 1_555
O29_2 C33_2 1_555 1_555
Mn12_4 O29_2 1_555 1_555
C34_2 C31_2 1_555 1_555
H7_2 C34_2 1_555 1_555
C35_2 C32_2 1_555 1_555
C36_2 C35_2 1_555 1_555
C37_2 C32_2 1_555 1_555
S8_2 C36_2 1_555 1_555
C38_2 S8_2 1_555 1_555
O30_2 C39_2 1_555 1_555
C39_2 C38_2 1_555 1_555
Mn13_2 O30_2 1_555 1_555
O31_2 C39_2 1_555 1_555
Mn4 O31_2 1_555 1_555
C40_2 C38_2 1_555 1_555
H8_2 C40_2 1_555 1_555
C41_2 C36_2 1_555 1_555
C42_2 C37_2 1_555 1_555
S9_2 C42_2 1_555 1_555
C43_2 S9_2 1_555 1_555
O32_2 Mn9_2 1_555 1_555
C44_2 C43_2 1_555 1_555
O33_2 C44_2 1_555 1_555
Mn15_2 O33_2 1_555 1_555
C45_2 C37_2 1_555 1_555
H9_2 C45_2 1_555 1_555
S10_2 C46_2 1_555 1_555
C46_2 C48_2 1_555 1_555
C47_2 S10_2 1_555 1_555
O34_2 C48_2 1_555 1_555
C48_2 O35_2 1_555 1_555
Mn7 O34_2 1_555 1_555
O35_2 Mn17_3 1_555 1_555
C49_2 C46_2 1_555 1_555
H10_2 C49_2 1_555 1_555
C50_2 C47_2 1_555 1_555
C51_2 C50_2 1_555 1_555
C52_2 C47_2 1_555 1_555
S11_2 C51_2 1_555 1_555
C53_2 S11_2 1_555 1_555
O36_2 C54_2 1_555 1_555
C54_2 O26_2 1_555 1_555
Mn29_2 O36_2 1_555 1_555
C55_2 C53_2 1_555 1_555
H11_2 C55_2 1_555 1_555
C56_2 C51_2 1_555 1_555
C57_2 C52_2 1_555 1_555
S12_2 C57_2 1_555 1_555
C58_2 S12_2 1_555 1_555
O37_2 Mn15_2 1_555 1_555
C59_2 O22_2 1_555 1_555
C60_2 C52_2 1_555 1_555
H12_2 C60_2 1_555 1_555
O38_4 Mn29_2 1_555 1_555
O40_2 Mn29_2 1_555 1_555
O42_2 Mn13_2 1_555 1_555
O44_2 Mn13_2 1_555 1_555
Mn10 O46_2 1_555 1_555
O47_2 Mn10 1_555 1_555
O48_2 Mn10 1_555 1_555
S13_2 C61_2 1_555 1_555
C61_2 C63_2 1_555 1_555
C62_2 S13_2 1_555 1_555
C63_2 O47_2 1_555 1_555
O51_2 C63_2 1_555 1_555
Mn20_2 O51_2 1_555 1_555
C64_2 C61_2 1_555 1_555
H13_2 C64_2 1_555 1_555
C65_2 C62_2 1_555 1_555
C66_2 C65_2 1_555 1_555
C67_2 C62_2 1_555 1_555
S14_2 C66_2 1_555 1_555
C68_2 S14_2 1_555 1_555
O52_2 C69_2 1_555 1_555
C69_2 C68_2 1_555 1_555
Mn21_4 O52_2 1_555 1_555
O53_2 C69_2 1_555 1_555
Mn22_4 O53_2 1_555 1_555
C70_2 C68_2 1_555 1_555
H14_2 C70_2 1_555 1_555
C71_2 C66_2 1_555 1_555
C72_2 C67_2 1_555 1_555
S15_2 C72_2 1_555 1_555
C73_2 S15_2 1_555 1_555
O54_2 C74_2 1_555 1_555
C74_2 C73_2 1_555 1_555
Mn31 O54_2 1_555 1_555
O55_2 C74_2 1_555 1_555
Mn24_2 O55_2 1_555 1_555
C75_2 C67_2 1_555 1_555
H15_2 C75_2 1_555 1_555
S16_2 C76_2 1_555 1_555
C76_2 C78_2 1_555 1_555
C77_2 S16_2 1_555 1_555
C78_2 O16_2 1_555 1_555
O56_2 Mn9_2 1_555 1_555
C79_2 C76_2 1_555 1_555
H16_2 C79_2 1_555 1_555
C80_2 C77_2 1_555 1_555
C81_2 C80_2 1_555 1_555
C82_2 C77_2 1_555 1_555
S17_2 C81_2 1_555 1_555
C83_2 S17_2 1_555 1_555
O57_2 Mn4 1_555 1_555
C84_2 O48_2 1_555 1_555
C85_2 C83_2 1_555 1_555
H17_2 C85_2 1_555 1_555
C86_2 C81_2 1_555 1_555
C87_2 C82_2 1_555 1_555
S18_2 C87_2 1_555 1_555
C88_2 S18_2 1_555 1_555
O58_2 Mn24_2 1_555 1_555
C89_2 C88_2 1_555 1_555
O59_2 C89_2 1_555 1_555
Mn25_2 O59_2 1_555 1_555
C90_2 C82_2 1_555 1_555
H18_2 C90_2 1_555 1_555
O60_2 Mn4 1_555 1_555
O63_4 Mn21_4 1_555 1_555
O65_2 Mn21_4 1_555 1_555
C4_2 C5_2 1_555 1_555
S2_2 C10_2 1_555 1_555
C9_2 C10_2 1_555 1_555
S3_2 C15_2 1_555 1_555
C13_2 C14_2 1_555 1_555
C14_2 C15_2 1_555 1_555
C19_2 C20_2 1_555 1_555
S5_2 C25_2 1_555 1_555
C24_2 C25_2 1_555 1_555
S6_2 C30_2 1_555 1_555
O12_2 Mn6_2 1_555 1_555
C28_2 C29_2 1_555 1_555
C29_2 C30_2 1_555 1_555
C34_2 C35_2 1_555 1_555
C40_2 C41_2 1_555 1_555
C41_2 C42_2 1_555 1_555
C43_2 C45_2 1_555 1_555
O32_2 C44_2 1_555 1_555
C49_2 C50_2 1_555 1_555
C53_2 C54_2 1_555 1_555
C55_2 C56_2 1_555 1_555
C56_2 C57_2 1_555 1_555
C58_2 C59_2 1_555 1_555
C58_2 C60_2 1_555 1_555
O37_2 C59_2 1_555 1_555
C64_2 C65_2 1_555 1_555
C70_2 C71_2 1_555 1_555
C71_2 C72_2 1_555 1_555
C73_2 C75_2 1_555 1_555
C78_2 O56_2 1_555 1_555
C79_2 C80_2 1_555 1_555
C83_2 C84_2 1_555 1_555
O57_2 C84_2 1_555 1_555
C85_2 C86_2 1_555 1_555
C86_2 C87_2 1_555 1_555
C88_2 C90_2 1_555 1_555
O58_2 C89_2 1_555 1_555
O15_3 Mn3_3 1_555 1_555
O18_2 Mn3_3 1_555 1_555
O23_2 Mn3_3 1_555 1_555
O42_3 Mn13_3 1_555 1_555
O43_2 Mn13_3 1_555 1_555
O45_2 Mn13_3 1_555 1_555
Mn10_2 O46_3 1_555 1_555
O49_2 Mn10_2 1_555 1_555
O60_3 Mn4_2 1_555 1_555
O62_2 Mn4_2 1_555 1_555
Mn26_4 O67_4 1_555 1_555
O68_2 Mn26_4 1_555 1_555
O69_2 Mn26_4 1_555 1_555
S19_2 C91_2 1_555 1_555
C91_2 C93_2 1_555 1_555
C92_2 S19_2 1_555 1_555
C93_2 O68_2 1_555 1_555
O72_2 C93_2 1_555 1_555
Mn27_4 O72_2 1_555 1_555
C94_2 C91_2 1_555 1_555
H19_2 C94_2 1_555 1_555
C95_2 C92_2 1_555 1_555
C96_2 C95_2 1_555 1_555
C97_2 C92_2 1_555 1_555
S20_2 C96_2 1_555 1_555
C98_2 S20_2 1_555 1_555
O73_2 C99_2 1_555 1_555
C99_2 C98_2 1_555 1_555
Mn28_4 O73_2 1_555 1_555
O74_2 C99_2 1_555 1_555
Mn29_4 O74_2 1_555 1_555
C100_2 C98_2 1_555 1_555
H20_2 C100_2 1_555 1_555
C101_2 C96_2 1_555 1_555
C102_2 C97_2 1_555 1_555
S21_2 C102_2 1_555 1_555
C103_2 S21_2 1_555 1_555
O75_2 Mn20_3 1_555 1_555
C104_2 O45_2 1_555 1_555
C105_2 C97_2 1_555 1_555
H21_2 C105_2 1_555 1_555
S22_2 C106_2 1_555 1_555
C106_2 C108_2 1_555 1_555
C107_2 S22_2 1_555 1_555
O76_2 C108_2 1_555 1_555
C108_2 O77_2 1_555 1_555
Mn8 O76_2 1_555 1_555
O77_2 Mn31_2 1_555 1_555
C109_2 C106_2 1_555 1_555
H22_2 C109_2 1_555 1_555
C110_2 C107_2 1_555 1_555
C111_2 C110_2 1_555 1_555
C112_2 C107_2 1_555 1_555
S23_2 C111_2 1_555 1_555
C113_2 S23_2 1_555 1_555
O78_2 C114_2 1_555 1_555
C114_2 O69_2 1_555 1_555
Mn22_2 O78_2 1_555 1_555
C115_2 C113_2 1_555 1_555
H23_2 C115_2 1_555 1_555
C116_2 C111_2 1_555 1_555
C117_2 C112_2 1_555 1_555
S24_2 C117_2 1_555 1_555
C118_2 S24_2 1_555 1_555
C119_2 O43_2 1_555 1_555
C120_2 C112_2 1_555 1_555
H24_2 C120_2 1_555 1_555
O79_4 Mn22_2 1_555 1_555
O81_2 Mn22_2 1_555 1_555
O83_4 Mn28_4 1_555 1_555
O85_2 Mn28_4 1_555 1_555
O62_2 C119_2 1_555 1_555
C94_2 C95_2 1_555 1_555
C100_2 C101_2 1_555 1_555
C101_2 C102_2 1_555 1_555
C103_2 C104_2 1_555 1_555
C103_2 C105_2 1_555 1_555
O75_2 C104_2 1_555 1_555
C109_2 C110_2 1_555 1_555
C113_2 C114_2 1_555 1_555
C115_2 C116_2 1_555 1_555
C116_2 C117_2 1_555 1_555
C118_2 C119_2 1_555 1_555
C118_2 C120_2 1_555 1_555
O63_5 Mn21_5 1_555 1_555
O64_3 Mn21_5 1_555 1_555
O66_3 Mn21_5 1_555 1_555
O83_5 Mn28_5 1_555 1_555
O84_3 Mn28_5 1_555 1_555
O86_3 Mn28_5 1_555 1_555
Mn1_3 O1_3 1_555 1_555
S1_3 C2_3 1_555 1_555
O2_3 Mn1_3 1_555 1_555
O3_3 C1_3 1_555 1_555
C1_3 O2_3 1_555 1_555
C2_3 C1_3 1_555 1_555
C3_3 C2_3 1_555 1_555
H1_3 C3_3 1_555 1_555
C4_3 C3_3 1_555 1_555
C5_3 S1_3 1_555 1_555
S2_3 C7_3 1_555 1_555
O4_3 C6_3 1_555 1_555
O5_3 C6_3 1_555 1_555
C6_3 C7_3 1_555 1_555
C7_3 C8_3 1_555 1_555
C8_3 H2_3 1_555 1_555
C9_3 C8_3 1_555 1_555
C10_3 C4_3 1_555 1_555
S3_3 C12_3 1_555 1_555
O6_3 C11_3 1_555 1_555
O7_3 C11_3 1_555 1_555
C11_3 C12_3 1_555 1_555
C12_3 C13_3 1_555 1_555
C13_3 H3_3 1_555 1_555
C14_3 C5_3 1_555 1_555
C15_3 C9_3 1_555 1_555
S4_3 C17_3 1_555 1_555
O8_3 C16_3 1_555 1_555
O9_3 C16_3 1_555 1_555
C16_3 C17_3 1_555 1_555
C17_3 C18_3 1_555 1_555
C18_3 H4_3 1_555 1_555
C19_3 C18_3 1_555 1_555
C20_3 S4_3 1_555 1_555
S5_3 C22_3 1_555 1_555
O10_3 C21_3 1_555 1_555
O11_3 Mn1_3 1_555 1_555
C21_3 O11_3 1_555 1_555
C22_3 C21_3 1_555 1_555
C23_3 C22_3 1_555 1_555
H5_3 C23_3 1_555 1_555
C24_3 C23_3 1_555 1_555
C25_3 C19_3 1_555 1_555
S6_3 C27_3 1_555 1_555
O12_3 C26_3 1_555 1_555
O13_3 C26_3 1_555 1_555
C26_3 C27_3 1_555 1_555
C27_3 C28_3 1_555 1_555
C28_3 H6_3 1_555 1_555
C29_3 C20_3 1_555 1_555
C30_3 C24_3 1_555 1_555
Mn2_3 O10_3 1_555 1_555
O14_3 Mn2_3 1_555 1_555
Mn3_4 O4_3 1_555 1_555
O15_4 Mn3_4 1_555 1_555
Mn4_5 O8_3 1_555 1_555
Mn24 O6_3 1_555 1_555
Mn25 O7_3 1_555 1_555
Mn7_4 O5_3 1_555 1_555
Mn8_3 O13_3 1_555 1_555
Mn9_3 O3_3 1_555 1_555
Mn10_5 O9_3 1_555 1_555
O16_3 Mn1_3 1_555 1_555
O17_3 Mn2_3 1_555 1_555
O18_3 Mn3_4 1_555 1_555
O19_3 Mn2_3 1_555 1_555
O20_3 Mn3_4 1_555 1_555
O21_3 Mn1_3 1_555 1_555
O22_3 Mn2_3 1_555 1_555
O23_3 Mn3_4 1_555 1_555
Mn11_5 O24_5 1_555 1_555
O25_3 Mn11_5 1_555 1_555
O26_3 Mn11_5 1_555 1_555
S7_3 C31_3 1_555 1_555
C31_3 C33_3 1_555 1_555
C32_3 S7_3 1_555 1_555
C33_3 O25_3 1_555 1_555
O29_3 C33_3 1_555 1_555
Mn12_5 O29_3 1_555 1_555
C34_3 C31_3 1_555 1_555
H7_3 C34_3 1_555 1_555
C35_3 C32_3 1_555 1_555
C36_3 C35_3 1_555 1_555
C37_3 C32_3 1_555 1_555
S8_3 C36_3 1_555 1_555
C38_3 S8_3 1_555 1_555
O30_3 C39_3 1_555 1_555
C39_3 C38_3 1_555 1_555
Mn13_4 O30_3 1_555 1_555
O31_3 C39_3 1_555 1_555
Mn4_3 O31_3 1_555 1_555
C40_3 C38_3 1_555 1_555
H8_3 C40_3 1_555 1_555
C41_3 C36_3 1_555 1_555
C42_3 C37_3 1_555 1_555
S9_3 C42_3 1_555 1_555
C43_3 S9_3 1_555 1_555
O32_3 Mn9_3 1_555 1_555
C44_3 C43_3 1_555 1_555
O33_3 C44_3 1_555 1_555
Mn15_3 O33_3 1_555 1_555
C45_3 C37_3 1_555 1_555
H9_3 C45_3 1_555 1_555
S10_3 C46_3 1_555 1_555
C46_3 C48_3 1_555 1_555
C47_3 S10_3 1_555 1_555
O34_3 C48_3 1_555 1_555
C48_3 O35_3 1_555 1_555
Mn7_3 O34_3 1_555 1_555
O35_3 Mn17_5 1_555 1_555
C49_3 C46_3 1_555 1_555
H10_3 C49_3 1_555 1_555
C50_3 C47_3 1_555 1_555
C51_3 C50_3 1_555 1_555
C52_3 C47_3 1_555 1_555
S11_3 C51_3 1_555 1_555
C53_3 S11_3 1_555 1_555
O36_3 C54_3 1_555 1_555
C54_3 O26_3 1_555 1_555
Mn29_3 O36_3 1_555 1_555
C55_3 C53_3 1_555 1_555
H11_3 C55_3 1_555 1_555
C56_3 C51_3 1_555 1_555
C57_3 C52_3 1_555 1_555
S12_3 C57_3 1_555 1_555
C58_3 S12_3 1_555 1_555
O37_3 Mn15_3 1_555 1_555
C59_3 O22_3 1_555 1_555
C60_3 C52_3 1_555 1_555
H12_3 C60_3 1_555 1_555
O38_5 Mn29_3 1_555 1_555
O40_3 Mn29_3 1_555 1_555
O42_4 Mn13_4 1_555 1_555
O43_3 Mn13_4 1_555 1_555
O44_3 Mn13_4 1_555 1_555
O45_3 Mn13_4 1_555 1_555
Mn10_3 O46_4 1_555 1_555
O47_3 Mn10_3 1_555 1_555
O48_3 Mn10_3 1_555 1_555
O49_3 Mn10_3 1_555 1_555
S13_3 C61_3 1_555 1_555
C61_3 C63_3 1_555 1_555
C62_3 S13_3 1_555 1_555
C63_3 O47_3 1_555 1_555
O51_3 C63_3 1_555 1_555
Mn20_4 O51_3 1_555 1_555
C64_3 C61_3 1_555 1_555
H13_3 C64_3 1_555 1_555
C65_3 C62_3 1_555 1_555
C66_3 C65_3 1_555 1_555
C67_3 C62_3 1_555 1_555
S14_3 C66_3 1_555 1_555
C68_3 S14_3 1_555 1_555
O52_3 C69_3 1_555 1_555
C69_3 C68_3 1_555 1_555
Mn21_6 O52_3 1_555 1_555
O53_3 C69_3 1_555 1_555
Mn22_6 O53_3 1_555 1_555
C70_3 C68_3 1_555 1_555
H14_3 C70_3 1_555 1_555
C71_3 C66_3 1_555 1_555
C72_3 C67_3 1_555 1_555
S15_3 C72_3 1_555 1_555
C73_3 S15_3 1_555 1_555
O54_3 C74_3 1_555 1_555
C74_3 C73_3 1_555 1_555
Mn31_2 O54_3 1_555 1_555
O55_3 C74_3 1_555 1_555
Mn5 O55_3 1_555 1_555
C75_3 C67_3 1_555 1_555
H15_3 C75_3 1_555 1_555
S16_3 C76_3 1_555 1_555
C76_3 C78_3 1_555 1_555
C77_3 S16_3 1_555 1_555
C78_3 O16_3 1_555 1_555
O56_3 Mn9_3 1_555 1_555
C79_3 C76_3 1_555 1_555
H16_3 C79_3 1_555 1_555
C80_3 C77_3 1_555 1_555
C81_3 C80_3 1_555 1_555
C82_3 C77_3 1_555 1_555
S17_3 C81_3 1_555 1_555
C83_3 S17_3 1_555 1_555
O57_3 Mn4_3 1_555 1_555
C84_3 O48_3 1_555 1_555
C85_3 C83_3 1_555 1_555
H17_3 C85_3 1_555 1_555
C86_3 C81_3 1_555 1_555
C87_3 C82_3 1_555 1_555
S18_3 C87_3 1_555 1_555
C88_3 S18_3 1_555 1_555
O58_3 Mn5 1_555 1_555
C89_3 C88_3 1_555 1_555
O59_3 C89_3 1_555 1_555
Mn6 O59_3 1_555 1_555
C90_3 C82_3 1_555 1_555
H18_3 C90_3 1_555 1_555
O60_4 Mn4_3 1_555 1_555
O62_3 Mn4_3 1_555 1_555
O63_6 Mn21_6 1_555 1_555
O65_3 Mn21_6 1_555 1_555
Mn26_5 O67_5 1_555 1_555
O68_3 Mn26_5 1_555 1_555
O69_3 Mn26_5 1_555 1_555
S19_3 C91_3 1_555 1_555
C91_3 C93_3 1_555 1_555
C92_3 S19_3 1_555 1_555
C93_3 O68_3 1_555 1_555
O72_3 C93_3 1_555 1_555
Mn27_5 O72_3 1_555 1_555
C94_3 C91_3 1_555 1_555
H19_3 C94_3 1_555 1_555
C95_3 C92_3 1_555 1_555
C96_3 C95_3 1_555 1_555
C97_3 C92_3 1_555 1_555
S20_3 C96_3 1_555 1_555
C98_3 S20_3 1_555 1_555
O73_3 C99_3 1_555 1_555
C99_3 C98_3 1_555 1_555
Mn28_6 O73_3 1_555 1_555
O74_3 C99_3 1_555 1_555
Mn29_6 O74_3 1_555 1_555
C100_3 C98_3 1_555 1_555
H20_3 C100_3 1_555 1_555
C101_3 C96_3 1_555 1_555
C102_3 C97_3 1_555 1_555
S21_3 C102_3 1_555 1_555
C103_3 S21_3 1_555 1_555
O75_3 Mn20_4 1_555 1_555
C104_3 O45_3 1_555 1_555
C105_3 C97_3 1_555 1_555
H21_3 C105_3 1_555 1_555
S22_3 C106_3 1_555 1_555
C106_3 C108_3 1_555 1_555
C107_3 S22_3 1_555 1_555
O76_3 C108_3 1_555 1_555
C108_3 O77_3 1_555 1_555
Mn8_2 O76_3 1_555 1_555
O77_3 Mn31_3 1_555 1_555
C109_3 C106_3 1_555 1_555
H22_3 C109_3 1_555 1_555
C110_3 C107_3 1_555 1_555
C111_3 C110_3 1_555 1_555
C112_3 C107_3 1_555 1_555
S23_3 C111_3 1_555 1_555
C113_3 S23_3 1_555 1_555
O78_3 C114_3 1_555 1_555
C114_3 O69_3 1_555 1_555
Mn22_3 O78_3 1_555 1_555
C115_3 C113_3 1_555 1_555
H23_3 C115_3 1_555 1_555
C116_3 C111_3 1_555 1_555
C117_3 C112_3 1_555 1_555
S24_3 C117_3 1_555 1_555
C118_3 S24_3 1_555 1_555
C119_3 O43_3 1_555 1_555
C120_3 C112_3 1_555 1_555
H24_3 C120_3 1_555 1_555
O79_5 Mn22_3 1_555 1_555
O81_3 Mn22_3 1_555 1_555
O83_6 Mn28_6 1_555 1_555
O85_3 Mn28_6 1_555 1_555
C4_3 C5_3 1_555 1_555
S2_3 C10_3 1_555 1_555
C9_3 C10_3 1_555 1_555
S3_3 C15_3 1_555 1_555
C13_3 C14_3 1_555 1_555
C14_3 C15_3 1_555 1_555
C19_3 C20_3 1_555 1_555
S5_3 C25_3 1_555 1_555
C24_3 C25_3 1_555 1_555
S6_3 C30_3 1_555 1_555
O12_3 Mn25 1_555 1_555
C28_3 C29_3 1_555 1_555
C29_3 C30_3 1_555 1_555
C34_3 C35_3 1_555 1_555
C40_3 C41_3 1_555 1_555
C41_3 C42_3 1_555 1_555
C43_3 C45_3 1_555 1_555
O32_3 C44_3 1_555 1_555
C49_3 C50_3 1_555 1_555
C53_3 C54_3 1_555 1_555
C55_3 C56_3 1_555 1_555
C56_3 C57_3 1_555 1_555
C58_3 C59_3 1_555 1_555
C58_3 C60_3 1_555 1_555
O37_3 C59_3 1_555 1_555
C64_3 C65_3 1_555 1_555
C70_3 C71_3 1_555 1_555
C71_3 C72_3 1_555 1_555
C73_3 C75_3 1_555 1_555
C78_3 O56_3 1_555 1_555
C79_3 C80_3 1_555 1_555
C83_3 C84_3 1_555 1_555
O57_3 C84_3 1_555 1_555
C85_3 C86_3 1_555 1_555
C86_3 C87_3 1_555 1_555
C88_3 C90_3 1_555 1_555
O58_3 C89_3 1_555 1_555
O62_3 C119_3 1_555 1_555
C94_3 C95_3 1_555 1_555
C100_3 C101_3 1_555 1_555
C101_3 C102_3 1_555 1_555
C103_3 C104_3 1_555 1_555
C103_3 C105_3 1_555 1_555
O75_3 C104_3 1_555 1_555
C109_3 C110_3 1_555 1_555
C113_3 C114_3 1_555 1_555
C115_3 C116_3 1_555 1_555
C116_3 C117_3 1_555 1_555
C118_3 C119_3 1_555 1_555
C118_3 C120_3 1_555 1_555
Mn11_6 O24_6 1_555 1_555
O27_3 Mn11_6 1_555 1_555
O28_3 Mn11_6 1_555 1_555
O38_6 Mn29_4 1_555 1_555
O39_3 Mn29_4 1_555 1_555
Mn26_6 O67_6 1_555 1_555
O70_3 Mn26_6 1_555 1_555
O71_3 Mn26_6 1_555 1_555
O79_6 Mn22_4 1_555 1_555
O80_3 Mn22_4 1_555 1_555
Mn1_4 O1_4 1_555 1_555
S1_4 C2_4 1_555 1_555
O2_4 Mn1_4 1_555 1_555
O3_4 C1_4 1_555 1_555
C1_4 O2_4 1_555 1_555
C2_4 C1_4 1_555 1_555
C3_4 C2_4 1_555 1_555
H1_4 C3_4 1_555 1_555
C4_4 C3_4 1_555 1_555
C5_4 S1_4 1_555 1_555
S2_4 C7_4 1_555 1_555
O4_4 C6_4 1_555 1_555
O5_4 C6_4 1_555 1_555
C6_4 C7_4 1_555 1_555
C7_4 C8_4 1_555 1_555
C8_4 H2_4 1_555 1_555
C9_4 C8_4 1_555 1_555
C10_4 C4_4 1_555 1_555
S3_4 C12_4 1_555 1_555
O6_4 C11_4 1_555 1_555
O7_4 C11_4 1_555 1_555
C11_4 C12_4 1_555 1_555
C12_4 C13_4 1_555 1_555
C13_4 H3_4 1_555 1_555
C14_4 C5_4 1_555 1_555
C15_4 C9_4 1_555 1_555
S4_4 C17_4 1_555 1_555
O61 C16_4 1_555 1_555
O50 C16_4 1_555 1_555
C16_4 C17_4 1_555 1_555
C17_4 C18_4 1_555 1_555
C18_4 H4_4 1_555 1_555
C19_4 C18_4 1_555 1_555
C20_4 S4_4 1_555 1_555
S5_4 C22_4 1_555 1_555
O10_4 C21_4 1_555 1_555
O11_4 Mn1_4 1_555 1_555
C21_4 O11_4 1_555 1_555
C22_4 C21_4 1_555 1_555
C23_4 C22_4 1_555 1_555
H5_4 C23_4 1_555 1_555
C24_4 C23_4 1_555 1_555
C25_4 C19_4 1_555 1_555
S6_4 C27_4 1_555 1_555
O12_4 C26_4 1_555 1_555
O13_4 C26_4 1_555 1_555
C26_4 C27_4 1_555 1_555
C27_4 C28_4 1_555 1_555
C28_4 H6_4 1_555 1_555
C29_4 C20_4 1_555 1_555
C30_4 C24_4 1_555 1_555
Mn2_4 O10_4 1_555 1_555
O14_4 Mn2_4 1_555 1_555
Mn3_5 O4_4 1_555 1_555
O15_5 Mn3_5 1_555 1_555
Mn24_2 O6_4 1_555 1_555
Mn25_2 O7_4 1_555 1_555
Mn16 O5_4 1_555 1_555
Mn30 O13_4 1_555 1_555
Mn9_4 O3_4 1_555 1_555
O16_4 Mn1_4 1_555 1_555
O17_4 Mn2_4 1_555 1_555
O19_4 Mn2_4 1_555 1_555
O20_4 Mn3_5 1_555 1_555
O21_4 Mn1_4 1_555 1_555
O22_4 Mn2_4 1_555 1_555
Mn11_7 O24_7 1_555 1_555
O25_4 Mn11_7 1_555 1_555
O26_4 Mn11_7 1_555 1_555
S7_4 C31_4 1_555 1_555
C31_4 C33_4 1_555 1_555
C32_4 S7_4 1_555 1_555
C33_4 O25_4 1_555 1_555
O29_4 C33_4 1_555 1_555
Mn12_7 O29_4 1_555 1_555
C34_4 C31_4 1_555 1_555
H7_4 C34_4 1_555 1_555
C35_4 C32_4 1_555 1_555
C36_4 C35_4 1_555 1_555
C37_4 C32_4 1_555 1_555
S8_4 C36_4 1_555 1_555
C38_4 S8_4 1_555 1_555
O30_4 C39_4 1_555 1_555
C39_4 C38_4 1_555 1_555
Mn13_5 O30_4 1_555 1_555
O31_4 C39_4 1_555 1_555
Mn4_4 O31_4 1_555 1_555
C40_4 C38_4 1_555 1_555
H8_4 C40_4 1_555 1_555
C41_4 C36_4 1_555 1_555
C42_4 C37_4 1_555 1_555
S9_4 C42_4 1_555 1_555
C43_4 S9_4 1_555 1_555
O32_4 Mn9_4 1_555 1_555
C44_4 C43_4 1_555 1_555
O33_4 C44_4 1_555 1_555
Mn15_4 O33_4 1_555 1_555
C45_4 C37_4 1_555 1_555
H9_4 C45_4 1_555 1_555
S10_4 C46_4 1_555 1_555
C46_4 C48_4 1_555 1_555
C47_4 S10_4 1_555 1_555
O34_4 C48_4 1_555 1_555
C48_4 O35_4 1_555 1_555
Mn7_4 O34_4 1_555 1_555
O35_4 Mn17_6 1_555 1_555
C49_4 C46_4 1_555 1_555
H10_4 C49_4 1_555 1_555
C50_4 C47_4 1_555 1_555
C51_4 C50_4 1_555 1_555
C52_4 C47_4 1_555 1_555
S11_4 C51_4 1_555 1_555
C53_4 S11_4 1_555 1_555
O36_4 C54_4 1_555 1_555
C54_4 O26_4 1_555 1_555
Mn29_5 O36_4 1_555 1_555
C55_4 C53_4 1_555 1_555
H11_4 C55_4 1_555 1_555
C56_4 C51_4 1_555 1_555
C57_4 C52_4 1_555 1_555
S12_4 C57_4 1_555 1_555
C58_4 S12_4 1_555 1_555
O37_4 Mn15_4 1_555 1_555
C59_4 O22_4 1_555 1_555
C60_4 C52_4 1_555 1_555
H12_4 C60_4 1_555 1_555
O38_7 Mn29_5 1_555 1_555
O40_4 Mn29_5 1_555 1_555
O42_5 Mn13_5 1_555 1_555
O44_4 Mn13_5 1_555 1_555
Mn10_4 O46_5 1_555 1_555
O47_4 Mn10_4 1_555 1_555
O48_4 Mn10_4 1_555 1_555
S13_4 C61_4 1_555 1_555
C61_4 C63_4 1_555 1_555
C62_4 S13_4 1_555 1_555
C63_4 O47_4 1_555 1_555
O51_4 C63_4 1_555 1_555
Mn20_5 O51_4 1_555 1_555
C64_4 C61_4 1_555 1_555
H13_4 C64_4 1_555 1_555
C65_4 C62_4 1_555 1_555
C66_4 C65_4 1_555 1_555
C67_4 C62_4 1_555 1_555
S14_4 C66_4 1_555 1_555
C68_4 S14_4 1_555 1_555
O52_4 C69_4 1_555 1_555
C69_4 C68_4 1_555 1_555
Mn21_7 O52_4 1_555 1_555
O82 C69_4 1_555 1_555
C70_4 C68_4 1_555 1_555
H14_4 C70_4 1_555 1_555
C71_4 C66_4 1_555 1_555
C72_4 C67_4 1_555 1_555
S15_4 C72_4 1_555 1_555
C73_4 S15_4 1_555 1_555
O54_4 C74_4 1_555 1_555
C74_4 C73_4 1_555 1_555
Mn31_3 O54_4 1_555 1_555
O55_4 C74_4 1_555 1_555
Mn5_2 O55_4 1_555 1_555
C75_4 C67_4 1_555 1_555
H15_4 C75_4 1_555 1_555
S16_4 C76_4 1_555 1_555
C76_4 C78_4 1_555 1_555
C77_4 S16_4 1_555 1_555
C78_4 O16_4 1_555 1_555
O56_4 Mn9_4 1_555 1_555
C79_4 C76_4 1_555 1_555
H16_4 C79_4 1_555 1_555
C80_4 C77_4 1_555 1_555
C81_4 C80_4 1_555 1_555
C82_4 C77_4 1_555 1_555
S17_4 C81_4 1_555 1_555
C83_4 S17_4 1_555 1_555
O57_4 Mn4_4 1_555 1_555
C84_4 O48_4 1_555 1_555
C85_4 C83_4 1_555 1_555
H17_4 C85_4 1_555 1_555
C86_4 C81_4 1_555 1_555
C87_4 C82_4 1_555 1_555
S18_4 C87_4 1_555 1_555
C88_4 S18_4 1_555 1_555
O58_4 Mn5_2 1_555 1_555
C89_4 C88_4 1_555 1_555
O59_4 C89_4 1_555 1_555
Mn6_2 O59_4 1_555 1_555
C90_4 C82_4 1_555 1_555
H18_4 C90_4 1_555 1_555
O60_5 Mn4_4 1_555 1_555
O63_7 Mn21_7 1_555 1_555
O65_4 Mn21_7 1_555 1_555
C4_4 C5_4 1_555 1_555
S2_4 C10_4 1_555 1_555
C9_4 C10_4 1_555 1_555
S3_4 C15_4 1_555 1_555
C13_4 C14_4 1_555 1_555
C14_4 C15_4 1_555 1_555
C19_4 C20_4 1_555 1_555
S5_4 C25_4 1_555 1_555
C24_4 C25_4 1_555 1_555
S6_4 C30_4 1_555 1_555
O12_4 Mn25_2 1_555 1_555
C28_4 C29_4 1_555 1_555
C29_4 C30_4 1_555 1_555
C34_4 C35_4 1_555 1_555
C40_4 C41_4 1_555 1_555
C41_4 C42_4 1_555 1_555
C43_4 C45_4 1_555 1_555
O32_4 C44_4 1_555 1_555
C49_4 C50_4 1_555 1_555
C53_4 C54_4 1_555 1_555
C55_4 C56_4 1_555 1_555
C56_4 C57_4 1_555 1_555
C58_4 C59_4 1_555 1_555
C58_4 C60_4 1_555 1_555
O37_4 C59_4 1_555 1_555
C64_4 C65_4 1_555 1_555
C70_4 C71_4 1_555 1_555
C71_4 C72_4 1_555 1_555
C73_4 C75_4 1_555 1_555
C78_4 O56_4 1_555 1_555
C79_4 C80_4 1_555 1_555
C83_4 C84_4 1_555 1_555
O57_4 C84_4 1_555 1_555
C85_4 C86_4 1_555 1_555
C86_4 C87_4 1_555 1_555
C88_4 C90_4 1_555 1_555
O58_4 C89_4 1_555 1_555
O15_6 Mn3_6 1_555 1_555
O18_4 Mn3_6 1_555 1_555
O23_4 Mn3_6 1_555 1_555
O42_6 Mn13_6 1_555 1_555
O43_4 Mn13_6 1_555 1_555
O45_4 Mn13_6 1_555 1_555
Mn10_5 O46_6 1_555 1_555
O49_4 Mn10_5 1_555 1_555
O60_6 Mn4_5 1_555 1_555
O62_4 Mn4_5 1_555 1_555
Mn26_7 O67_7 1_555 1_555
O68_4 Mn26_7 1_555 1_555
O69_4 Mn26_7 1_555 1_555
S19_4 C91_4 1_555 1_555
C91_4 C93_4 1_555 1_555
C92_4 S19_4 1_555 1_555
C93_4 O68_4 1_555 1_555
O72_4 C93_4 1_555 1_555
Mn27_7 O72_4 1_555 1_555
C94_4 C91_4 1_555 1_555
H19_4 C94_4 1_555 1_555
C95_4 C92_4 1_555 1_555
C96_4 C95_4 1_555 1_555
C97_4 C92_4 1_555 1_555
S20_4 C96_4 1_555 1_555
C98_4 S20_4 1_555 1_555
O73_4 C99_4 1_555 1_555
C99_4 C98_4 1_555 1_555
Mn28_7 O73_4 1_555 1_555
O41 C99_4 1_555 1_555
C100_4 C98_4 1_555 1_555
H20_4 C100_4 1_555 1_555
C101_4 C96_4 1_555 1_555
C102_4 C97_4 1_555 1_555
S21_4 C102_4 1_555 1_555
C103_4 S21_4 1_555 1_555
O75_4 Mn20_6 1_555 1_555
C104_4 O45_4 1_555 1_555
C105_4 C97_4 1_555 1_555
H21_4 C105_4 1_555 1_555
S22_4 C106_4 1_555 1_555
C106_4 C108_4 1_555 1_555
C107_4 S22_4 1_555 1_555
O76_4 C108_4 1_555 1_555
C108_4 O77_4 1_555 1_555
Mn8_3 O76_4 1_555 1_555
O77_4 Mn23 1_555 1_555
C109_4 C106_4 1_555 1_555
H22_4 C109_4 1_555 1_555
C110_4 C107_4 1_555 1_555
C111_4 C110_4 1_555 1_555
C112_4 C107_4 1_555 1_555
S23_4 C111_4 1_555 1_555
C113_4 S23_4 1_555 1_555
O78_4 C114_4 1_555 1_555
C114_4 O69_4 1_555 1_555
Mn22_5 O78_4 1_555 1_555
C115_4 C113_4 1_555 1_555
H23_4 C115_4 1_555 1_555
C116_4 C111_4 1_555 1_555
C117_4 C112_4 1_555 1_555
S24_4 C117_4 1_555 1_555
C118_4 S24_4 1_555 1_555
C119_4 O43_4 1_555 1_555
C120_4 C112_4 1_555 1_555
H24_4 C120_4 1_555 1_555
O79_7 Mn22_5 1_555 1_555
O81_4 Mn22_5 1_555 1_555
O83_7 Mn28_7 1_555 1_555
O85_4 Mn28_7 1_555 1_555
O62_4 C119_4 1_555 1_555
C94_4 C95_4 1_555 1_555
C100_4 C101_4 1_555 1_555
C101_4 C102_4 1_555 1_555
C103_4 C104_4 1_555 1_555
C103_4 C105_4 1_555 1_555
O75_4 C104_4 1_555 1_555
C109_4 C110_4 1_555 1_555
C113_4 C114_4 1_555 1_555
C115_4 C116_4 1_555 1_555
C116_4 C117_4 1_555 1_555
C118_4 C119_4 1_555 1_555
C118_4 C120_4 1_555 1_555
Mn11_8 O24_8 1_555 1_555
O27_4 Mn11_8 1_555 1_555
O28_4 Mn11_8 1_555 1_555
O38_8 Mn29_6 1_555 1_555
O39_4 Mn29_6 1_555 1_555
Mn26_8 O67_8 1_555 1_555
O70_4 Mn26_8 1_555 1_555
O71_4 Mn26_8 1_555 1_555
O79_8 Mn22_6 1_555 1_555
O80_4 Mn22_6 1_555 1_555
O63_8 Mn21_8 1_555 1_555
O64_4 Mn21_8 1_555 1_555
O66_4 Mn21_8 1_555 1_555
O83_8 Mn28_8 1_555 1_555
O84_4 Mn28_8 1_555 1_555
O86_4 Mn28_8 1_555 1_555
S4_5 C17_5 1_555 1_555
O27_2 C16_5 1_555 1_555
O9_4 C16_5 1_555 1_555
C16_5 C17_5 1_555 1_555
C17_5 C18_5 1_555 1_555
C18_5 H4_5 1_555 1_555
C19_5 C18_5 1_555 1_555
C20_5 S4_5 1_555 1_555
S5_5 C22_5 1_555 1_555
O10_5 C21_5 1_555 1_555
C21_5 O20_4 1_555 1_555
C22_5 C21_5 1_555 1_555
C23_5 C22_5 1_555 1_555
H5_5 C23_5 1_555 1_555
C24_5 C23_5 1_555 1_555
C25_5 C19_5 1_555 1_555
S6_5 C27_5 1_555 1_555
O12_5 C26_5 1_555 1_555
O13_5 C26_5 1_555 1_555
C26_5 C27_5 1_555 1_555
C27_5 C28_5 1_555 1_555
C28_5 H6_5 1_555 1_555
C29_5 C20_5 1_555 1_555
C30_5 C24_5 1_555 1_555
Mn2_5 O10_5 1_555 1_555
O14_5 Mn2_5 1_555 1_555
O15_7 Mn24_2 1_555 1_555
Mn15_4 O13_5 1_555 1_555
Mn12_3 O9_4 1_555 1_555
O19_5 Mn2_5 1_555 1_555
O20_5 Mn24_2 1_555 1_555
C19_5 C20_5 1_555 1_555
S5_5 C25_5 1_555 1_555
C24_5 C25_5 1_555 1_555
S6_5 C30_5 1_555 1_555
O12_5 Mn9_4 1_555 1_555
C28_5 C29_5 1_555 1_555
C29_5 C30_5 1_555 1_555
O14_6 Mn2_6 1_555 1_555
O17_5 Mn2_6 1_555 1_555
O22_5 Mn2_6 1_555 1_555
S10_5 C46_5 1_555 1_555
C46_5 C48_5 1_555 1_555
C47_5 S10_5 1_555 1_555
O70_2 C48_5 1_555 1_555
C48_5 O35_5 1_555 1_555
O35_5 Mn27_3 1_555 1_555
C49_5 C46_5 1_555 1_555
H10_5 C49_5 1_555 1_555
C50_5 C47_5 1_555 1_555
C51_5 C50_5 1_555 1_555
C52_5 C47_5 1_555 1_555
S11_5 C51_5 1_555 1_555
C53_5 S11_5 1_555 1_555
O84_4 C54_5 1_555 1_555
C54_5 O40 1_555 1_555
C55_5 C53_5 1_555 1_555
H11_5 C55_5 1_555 1_555
C56_5 C51_5 1_555 1_555
C57_5 C52_5 1_555 1_555
S12_5 C57_5 1_555 1_555
C58_5 S12_5 1_555 1_555
O37_5 Mn17_2 1_555 1_555
C59_5 O22_5 1_555 1_555
C60_5 C52_5 1_555 1_555
H12_5 C60_5 1_555 1_555
O42_7 Mn15 1_555 1_555
O43_5 Mn15 1_555 1_555
O45_5 Mn15 1_555 1_555
S16_5 C76_5 1_555 1_555
C76_5 C78_5 1_555 1_555
C77_5 S16_5 1_555 1_555
C78_5 O18_4 1_555 1_555
O56_5 Mn16_2 1_555 1_555
C79_5 C76_5 1_555 1_555
H16_5 C79_5 1_555 1_555
C80_5 C77_5 1_555 1_555
C81_5 C80_5 1_555 1_555
C82_5 C77_5 1_555 1_555
S17_5 C81_5 1_555 1_555
C83_5 S17_5 1_555 1_555
C84_5 O21 1_555 1_555
C85_5 C83_5 1_555 1_555
H17_5 C85_5 1_555 1_555
C86_5 C81_5 1_555 1_555
C87_5 C82_5 1_555 1_555
S18_5 C87_5 1_555 1_555
C88_5 S18_5 1_555 1_555
O58_5 Mn25 1_555 1_555
C89_5 C88_5 1_555 1_555
O59_5 C89_5 1_555 1_555
Mn8_3 O59_5 1_555 1_555
C90_5 C82_5 1_555 1_555
H18_5 C90_5 1_555 1_555
S19_5 C91_5 1_555 1_555
C91_5 C93_5 1_555 1_555
C92_5 S19_5 1_555 1_555
C93_5 O27_3 1_555 1_555
O72_5 C93_5 1_555 1_555
Mn12_6 O72_5 1_555 1_555
C94_5 C91_5 1_555 1_555
H19_5 C94_5 1_555 1_555
C95_5 C92_5 1_555 1_555
C96_5 C95_5 1_555 1_555
C97_5 C92_5 1_555 1_555
S20_5 C96_5 1_555 1_555
C98_5 S20_5 1_555 1_555
O73_5 C99_5 1_555 1_555
C99_5 C98_5 1_555 1_555
Mn28_9 O73_5 1_555 1_555
O20 C99_5 1_555 1_555
C100_5 C98_5 1_555 1_555
H20_5 C100_5 1_555 1_555
C101_5 C96_5 1_555 1_555
C102_5 C97_5 1_555 1_555
S21_5 C102_5 1_555 1_555
C103_5 S21_5 1_555 1_555
O75_5 Mn9 1_555 1_555
C104_5 O45_5 1_555 1_555
C105_5 C97_5 1_555 1_555
H21_5 C105_5 1_555 1_555
S22_5 C106_5 1_555 1_555
C106_5 C108_5 1_555 1_555
C107_5 S22_5 1_555 1_555
O49_2 C108_5 1_555 1_555
C108_5 O77_5 1_555 1_555
O77_5 Mn20_3 1_555 1_555
C109_5 C106_5 1_555 1_555
H22_5 C109_5 1_555 1_555
C110_5 C107_5 1_555 1_555
C111_5 C110_5 1_555 1_555
C112_5 C107_5 1_555 1_555
S23_5 C111_5 1_555 1_555
C113_5 S23_5 1_555 1_555
O39_3 C114_5 1_555 1_555
C114_5 O28_3 1_555 1_555
C115_5 C113_5 1_555 1_555
H23_5 C115_5 1_555 1_555
C116_5 C111_5 1_555 1_555
C117_5 C112_5 1_555 1_555
S24_5 C117_5 1_555 1_555
C118_5 S24_5 1_555 1_555
C119_5 O43_5 1_555 1_555
C120_5 C112_5 1_555 1_555
H24_5 C120_5 1_555 1_555
O83_9 Mn28_9 1_555 1_555
O84_5 Mn28_9 1_555 1_555
O85_5 Mn28_9 1_555 1_555
O86_5 Mn28_9 1_555 1_555
C49_5 C50_5 1_555 1_555
C53_5 C54_5 1_555 1_555
C55_5 C56_5 1_555 1_555
C56_5 C57_5 1_555 1_555
C58_5 C59_5 1_555 1_555
C58_5 C60_5 1_555 1_555
O37_5 C59_5 1_555 1_555
C78_5 O56_5 1_555 1_555
C79_5 C80_5 1_555 1_555
C83_5 C84_5 1_555 1_555
O17 C84_5 1_555 1_555
C85_5 C86_5 1_555 1_555
C86_5 C87_5 1_555 1_555
C88_5 C90_5 1_555 1_555
O58_5 C89_5 1_555 1_555
O19 C119_5 1_555 1_555
C94_5 C95_5 1_555 1_555
C100_5 C101_5 1_555 1_555
C101_5 C102_5 1_555 1_555
C103_5 C104_5 1_555 1_555
C103_5 C105_5 1_555 1_555
O75_5 C104_5 1_555 1_555
C109_5 C110_5 1_555 1_555
C113_5 C114_5 1_555 1_555
C115_5 C116_5 1_555 1_555
C116_5 C117_5 1_555 1_555
C118_5 C119_5 1_555 1_555
C118_5 C120_5 1_555 1_555
Mn12_5 O67_9 1_555 1_555
O70_5 Mn12_5 1_555 1_555
O83_10 Mn27_3 1_555 1_555
O84_6 Mn27_3 1_555 1_555
Mn25_2 O1_5 1_555 1_555
O16_5 Mn25_2 1_555 1_555
S7_5 C31_5 1_555 1_555
C31_5 C33_5 1_555 1_555
C32_5 S7_5 1_555 1_555
C33_5 O80_3 1_555 1_555
O71_3 C33_5 1_555 1_555
C34_5 C31_5 1_555 1_555
H7_5 C34_5 1_555 1_555
C35_5 C32_5 1_555 1_555
C36_5 C35_5 1_555 1_555
C37_5 C32_5 1_555 1_555
S8_5 C36_5 1_555 1_555
C38_5 S8_5 1_555 1_555
O84_5 C39_5 1_555 1_555
C39_5 C38_5 1_555 1_555
O23 C39_5 1_555 1_555
C40_5 C38_5 1_555 1_555
H8_5 C40_5 1_555 1_555
C41_5 C36_5 1_555 1_555
C42_5 C37_5 1_555 1_555
S9_5 C42_5 1_555 1_555
C43_5 S9_5 1_555 1_555
O32_5 Mn30 1_555 1_555
C44_5 C43_5 1_555 1_555
O33_5 C44_5 1_555 1_555
Mn31 O33_5 1_555 1_555
C45_5 C37_5 1_555 1_555
H9_5 C45_5 1_555 1_555
Mn7 O46_7 1_555 1_555
O48_5 Mn7 1_555 1_555
O49_5 Mn7 1_555 1_555
S16_6 C76_6 1_555 1_555
C76_6 C78_6 1_555 1_555
C77_6 S16_6 1_555 1_555
C78_6 O16_5 1_555 1_555
O56_6 Mn30 1_555 1_555
C79_6 C76_6 1_555 1_555
H16_6 C79_6 1_555 1_555
C80_6 C77_6 1_555 1_555
C81_6 C80_6 1_555 1_555
C82_6 C77_6 1_555 1_555
S17_6 C81_6 1_555 1_555
C83_6 S17_6 1_555 1_555
C84_6 O48_5 1_555 1_555
C85_6 C83_6 1_555 1_555
H17_6 C85_6 1_555 1_555
C86_6 C81_6 1_555 1_555
C87_6 C82_6 1_555 1_555
S18_6 C87_6 1_555 1_555
C88_6 S18_6 1_555 1_555
C89_6 C88_6 1_555 1_555
O21_2 C89_6 1_555 1_555
C90_6 C82_6 1_555 1_555
H18_6 C90_6 1_555 1_555
Mn12_6 O67_10 1_555 1_555
O68_5 Mn12_6 1_555 1_555
S19_6 C91_6 1_555 1_555
C91_6 C93_6 1_555 1_555
C92_6 S19_6 1_555 1_555
C93_6 O68_5 1_555 1_555
O85_2 C93_6 1_555 1_555
C94_6 C91_6 1_555 1_555
H19_6 C94_6 1_555 1_555
C95_6 C92_6 1_555 1_555
C96_6 C95_6 1_555 1_555
C97_6 C92_6 1_555 1_555
S20_6 C96_6 1_555 1_555
C98_6 S20_6 1_555 1_555
O73_6 C99_6 1_555 1_555
C99_6 C98_6 1_555 1_555
Mn27_4 O73_6 1_555 1_555
O66 C99_6 1_555 1_555
C100_6 C98_6 1_555 1_555
H20_6 C100_6 1_555 1_555
C101_6 C96_6 1_555 1_555
C102_6 C97_6 1_555 1_555
S21_6 C102_6 1_555 1_555
C103_6 S21_6 1_555 1_555
O75_6 Mn17_3 1_555 1_555
C104_6 O85_5 1_555 1_555
C105_6 C97_6 1_555 1_555
H21_6 C105_6 1_555 1_555
O83_11 Mn27_4 1_555 1_555
C34_5 C35_5 1_555 1_555
C40_5 C41_5 1_555 1_555
C41_5 C42_5 1_555 1_555
C43_5 C45_5 1_555 1_555
O32_5 C44_5 1_555 1_555
C78_6 O56_6 1_555 1_555
C79_6 C80_6 1_555 1_555
C83_6 C84_6 1_555 1_555
O18 C84_6 1_555 1_555
C85_6 C86_6 1_555 1_555
C86_6 C87_6 1_555 1_555
C88_6 C90_6 1_555 1_555
O17_2 C89_6 1_555 1_555
C94_6 C95_6 1_555 1_555
C100_6 C101_6 1_555 1_555
C101_6 C102_6 1_555 1_555
C103_6 C104_6 1_555 1_555
C103_6 C105_6 1_555 1_555
O75_6 C104_6 1_555 1_555
O38_9 Mn27_5 1_555 1_555
O39_5 Mn27_5 1_555 1_555
S10_6 C46_6 1_555 1_555
C46_6 C48_6 1_555 1_555
C47_6 S10_6 1_555 1_555
O34_5 C48_6 1_555 1_555
C48_6 O86 1_555 1_555
Mn12_4 O34_5 1_555 1_555
C49_6 C46_6 1_555 1_555
H10_6 C49_6 1_555 1_555
C50_6 C47_6 1_555 1_555
C51_6 C50_6 1_555 1_555
C52_6 C47_6 1_555 1_555
S11_6 C51_6 1_555 1_555
C53_6 S11_6 1_555 1_555
O36_5 C54_6 1_555 1_555
C54_6 O65_2 1_555 1_555
Mn27_6 O36_5 1_555 1_555
C55_6 C53_6 1_555 1_555
H11_6 C55_6 1_555 1_555
C56_6 C51_6 1_555 1_555
C57_6 C52_6 1_555 1_555
S12_6 C57_6 1_555 1_555
C58_6 S12_6 1_555 1_555
O37_6 Mn20_2 1_555 1_555
C59_6 O44_2 1_555 1_555
C60_6 C52_6 1_555 1_555
H12_6 C60_6 1_555 1_555
O38_10 Mn27_6 1_555 1_555
O40_5 Mn27_6 1_555 1_555
O42_8 Mn31 1_555 1_555
O43_6 Mn31 1_555 1_555
S22_6 C106_6 1_555 1_555
C106_6 C108_6 1_555 1_555
C107_6 S22_6 1_555 1_555
O76_5 C108_6 1_555 1_555
C108_6 O77_6 1_555 1_555
Mn16 O76_5 1_555 1_555
O77_6 Mn17 1_555 1_555
C109_6 C106_6 1_555 1_555
H22_6 C109_6 1_555 1_555
C110_6 C107_6 1_555 1_555
C111_6 C110_6 1_555 1_555
C112_6 C107_6 1_555 1_555
S23_6 C111_6 1_555 1_555
C113_6 S23_6 1_555 1_555
O64_4 C114_6 1_555 1_555
C114_6 O81 1_555 1_555
C115_6 C113_6 1_555 1_555
H23_6 C115_6 1_555 1_555
C116_6 C111_6 1_555 1_555
C117_6 C112_6 1_555 1_555
S24_6 C117_6 1_555 1_555
C118_6 S24_6 1_555 1_555
C119_6 O43_6 1_555 1_555
C120_6 C112_6 1_555 1_555
H24_6 C120_6 1_555 1_555
C49_6 C50_6 1_555 1_555
C53_6 C54_6 1_555 1_555
C55_6 C56_6 1_555 1_555
C56_6 C57_6 1_555 1_555
C58_6 C59_6 1_555 1_555
C58_6 C60_6 1_555 1_555
O37_6 C59_6 1_555 1_555
O20_5 C119_6 1_555 1_555
C109_6 C110_6 1_555 1_555
C113_6 C114_6 1_555 1_555
C115_6 C116_6 1_555 1_555
C116_6 C117_6 1_555 1_555
C118_6 C119_6 1_555 1_555
C118_6 C120_6 1_555 1_555
O15_8 Mn6 1_555 1_555
O18_5 Mn6 1_555 1_555
O42_9 Mn24 1_555 1_555
O45_6 Mn24 1_555 1_555
Mn8_3 O46_8 1_555 1_555
O47_5 Mn8_3 1_555 1_555
S13_5 C61_5 1_555 1_555
C61_5 C63_5 1_555 1_555
C62_5 S13_5 1_555 1_555
C63_5 O47_5 1_555 1_555
O51_5 C63_5 1_555 1_555
Mn23 O51_5 1_555 1_555
C64_5 C61_5 1_555 1_555
H13_5 C64_5 1_555 1_555
C65_5 C62_5 1_555 1_555
C66_5 C65_5 1_555 1_555
C67_5 C62_5 1_555 1_555
S14_5 C66_5 1_555 1_555
C68_5 S14_5 1_555 1_555
O80_2 C69_5 1_555 1_555
C69_5 C68_5 1_555 1_555
O71_2 C69_5 1_555 1_555
C70_5 C68_5 1_555 1_555
H14_5 C70_5 1_555 1_555
C71_5 C66_5 1_555 1_555
C72_5 C67_5 1_555 1_555
S15_5 C72_5 1_555 1_555
C73_5 S15_5 1_555 1_555
O17_5 C74_5 1_555 1_555
C74_5 C73_5 1_555 1_555
O23_4 C74_5 1_555 1_555
C75_5 C67_5 1_555 1_555
H15_5 C75_5 1_555 1_555
O60_7 Mn25 1_555 1_555
Mn7_4 O67_11 1_555 1_555
O68_6 Mn7_4 1_555 1_555
O71_5 Mn7_4 1_555 1_555
S19_7 C91_7 1_555 1_555
C91_7 C93_7 1_555 1_555
C92_7 S19_7 1_555 1_555
C93_7 O68_6 1_555 1_555
O72_6 C93_7 1_555 1_555
Mn17_6 O72_6 1_555 1_555
C94_7 C91_7 1_555 1_555
H19_7 C94_7 1_555 1_555
C95_7 C92_7 1_555 1_555
C96_7 C95_7 1_555 1_555
C97_7 C92_7 1_555 1_555
S20_7 C96_7 1_555 1_555
C98_7 S20_7 1_555 1_555
O64_3 C99_7 1_555 1_555
C99_7 C98_7 1_555 1_555
O81_4 C99_7 1_555 1_555
C100_7 C98_7 1_555 1_555
H20_7 C100_7 1_555 1_555
C101_7 C96_7 1_555 1_555
C102_7 C97_7 1_555 1_555
S21_7 C102_7 1_555 1_555
C103_7 S21_7 1_555 1_555
O75_7 Mn23 1_555 1_555
C104_7 O45_6 1_555 1_555
C105_7 C97_7 1_555 1_555
H21_7 C105_7 1_555 1_555
C64_5 C65_5 1_555 1_555
C70_5 C71_5 1_555 1_555
C71_5 C72_5 1_555 1_555
C73_5 C75_5 1_555 1_555
C94_7 C95_7 1_555 1_555
C100_7 C101_7 1_555 1_555
C101_7 C102_7 1_555 1_555
C103_7 C104_7 1_555 1_555
C103_7 C105_7 1_555 1_555
O75_7 C104_7 1_555 1_555
Mn6_2 O1_6 1_555 1_555
O14_7 Mn5_2 1_555 1_555
O16_6 Mn6_2 1_555 1_555
O19_6 Mn5_2 1_555 1_555
S7_6 C31_6 1_555 1_555
C31_6 C33_6 1_555 1_555
C32_6 S7_6 1_555 1_555
C33_6 O80 1_555 1_555
O71 C33_6 1_555 1_555
C34_6 C31_6 1_555 1_555
H7_6 C34_6 1_555 1_555
C35_6 C32_6 1_555 1_555
C36_6 C35_6 1_555 1_555
C37_6 C32_6 1_555 1_555
S8_6 C36_6 1_555 1_555
C38_6 S8_6 1_555 1_555
O30_5 C39_6 1_555 1_555
C39_6 C38_6 1_555 1_555
Mn13_7 O30_5 1_555 1_555
O23_3 C39_6 1_555 1_555
C40_6 C38_6 1_555 1_555
H8_6 C40_6 1_555 1_555
C41_6 C36_6 1_555 1_555
C42_6 C37_6 1_555 1_555
S9_6 C42_6 1_555 1_555
C43_6 S9_6 1_555 1_555
O32_6 Mn8_2 1_555 1_555
C44_6 C43_6 1_555 1_555
O33_6 C44_6 1_555 1_555
Mn31_3 O33_6 1_555 1_555
C45_6 C37_6 1_555 1_555
H9_6 C45_6 1_555 1_555
O42_10 Mn13_7 1_555 1_555
O43_7 Mn13_7 1_555 1_555
O44_5 Mn13_7 1_555 1_555
O45_7 Mn13_7 1_555 1_555
S16_7 C76_7 1_555 1_555
C76_7 C78_7 1_555 1_555
C77_7 S16_7 1_555 1_555
C78_7 O16_6 1_555 1_555
O56_7 Mn8_2 1_555 1_555
C79_7 C76_7 1_555 1_555
H16_7 C79_7 1_555 1_555
C80_7 C77_7 1_555 1_555
C81_7 C80_7 1_555 1_555
C82_7 C77_7 1_555 1_555
S17_7 C81_7 1_555 1_555
C83_7 S17_7 1_555 1_555
C84_7 O71_5 1_555 1_555
C85_7 C83_7 1_555 1_555
H17_7 C85_7 1_555 1_555
C86_7 C81_7 1_555 1_555
C87_7 C82_7 1_555 1_555
S18_7 C87_7 1_555 1_555
C88_7 S18_7 1_555 1_555
C89_7 C88_7 1_555 1_555
O21_4 C89_7 1_555 1_555
C90_7 C82_7 1_555 1_555
H18_7 C90_7 1_555 1_555
Mn12 O67_12 1_555 1_555
O68_7 Mn12 1_555 1_555
O69_5 Mn12 1_555 1_555
S19_8 C91_8 1_555 1_555
C91_8 C93_8 1_555 1_555
C92_8 S19_8 1_555 1_555
C93_8 O68_7 1_555 1_555
O85_4 C93_8 1_555 1_555
C94_8 C91_8 1_555 1_555
H19_8 C94_8 1_555 1_555
C95_8 C92_8 1_555 1_555
C96_8 C95_8 1_555 1_555
C97_8 C92_8 1_555 1_555
S20_8 C96_8 1_555 1_555
C98_8 S20_8 1_555 1_555
O73_7 C99_8 1_555 1_555
C99_8 C98_8 1_555 1_555
Mn27_7 O73_7 1_555 1_555
O66_3 C99_8 1_555 1_555
C100_8 C98_8 1_555 1_555
H20_8 C100_8 1_555 1_555
C101_8 C96_8 1_555 1_555
C102_8 C97_8 1_555 1_555
S21_8 C102_8 1_555 1_555
C103_8 S21_8 1_555 1_555
O75_8 Mn17_6 1_555 1_555
C104_8 O45_7 1_555 1_555
C105_8 C97_8 1_555 1_555
H21_8 C105_8 1_555 1_555
S22_7 C106_7 1_555 1_555
C106_7 C108_7 1_555 1_555
C107_7 S22_7 1_555 1_555
O76_6 C108_7 1_555 1_555
C108_7 O77_7 1_555 1_555
Mn9_3 O76_6 1_555 1_555
O77_7 Mn15_3 1_555 1_555
C109_7 C106_7 1_555 1_555
H22_7 C109_7 1_555 1_555
C110_7 C107_7 1_555 1_555
C111_7 C110_7 1_555 1_555
C112_7 C107_7 1_555 1_555
S23_7 C111_7 1_555 1_555
C113_7 S23_7 1_555 1_555
O27 C114_7 1_555 1_555
C114_7 O69_5 1_555 1_555
C115_7 C113_7 1_555 1_555
H23_7 C115_7 1_555 1_555
C116_7 C111_7 1_555 1_555
C117_7 C112_7 1_555 1_555
S24_7 C117_7 1_555 1_555
C118_7 S24_7 1_555 1_555
C119_7 O43_7 1_555 1_555
C120_7 C112_7 1_555 1_555
H24_7 C120_7 1_555 1_555
O83_12 Mn27_7 1_555 1_555
C34_6 C35_6 1_555 1_555
C40_6 C41_6 1_555 1_555
C41_6 C42_6 1_555 1_555
C43_6 C45_6 1_555 1_555
O32_6 C44_6 1_555 1_555
C78_7 O56_7 1_555 1_555
C79_7 C80_7 1_555 1_555
C83_7 C84_7 1_555 1_555
O18_3 C84_7 1_555 1_555
C85_7 C86_7 1_555 1_555
C86_7 C87_7 1_555 1_555
C88_7 C90_7 1_555 1_555
O17_4 C89_7 1_555 1_555
O20_3 C119_7 1_555 1_555
C94_8 C95_8 1_555 1_555
C100_8 C101_8 1_555 1_555
C101_8 C102_8 1_555 1_555
C103_8 C104_8 1_555 1_555
C103_8 C105_8 1_555 1_555
O75_8 C104_8 1_555 1_555
C109_7 C110_7 1_555 1_555
C113_7 C114_7 1_555 1_555
C115_7 C116_7 1_555 1_555
C116_7 C117_7 1_555 1_555
C118_7 C119_7 1_555 1_555
C118_7 C120_7 1_555 1_555
O83_13 Mn27_8 1_555 1_555
O84_7 Mn27_8 1_555 1_555
O86_6 Mn27_8 1_555 1_555
Mn12_2 O67_13 1_555 1_555
O70_6 Mn12_2 1_555 1_555
S4_6 C17_6 1_555 1_555
O64_2 C16_6 1_555 1_555
O81_3 C16_6 1_555 1_555
C16_6 C17_6 1_555 1_555
C17_6 C18_6 1_555 1_555
C18_6 H4_6 1_555 1_555
C19_6 C18_6 1_555 1_555
C20_6 S4_6 1_555 1_555
S5_6 C22_6 1_555 1_555
O10_6 C21_6 1_555 1_555
C21_6 O19_6 1_555 1_555
C22_6 C21_6 1_555 1_555
C23_6 C22_6 1_555 1_555
H5_6 C23_6 1_555 1_555
C24_6 C23_6 1_555 1_555
C25_6 C19_6 1_555 1_555
S6_6 C27_6 1_555 1_555
O12_6 C26_6 1_555 1_555
O13_6 C26_6 1_555 1_555
C26_6 C27_6 1_555 1_555
C27_6 C28_6 1_555 1_555
C28_6 H6_6 1_555 1_555
C29_6 C20_6 1_555 1_555
C30_6 C24_6 1_555 1_555
Mn31_3 O10_6 1_555 1_555
O14_8 Mn31_3 1_555 1_555
Mn17_4 O13_6 1_555 1_555
Mn9_4 O46_9 1_555 1_555
S19_9 C91_9 1_555 1_555
C91_9 C93_9 1_555 1_555
C92_9 S19_9 1_555 1_555
C93_9 O49 1_555 1_555
O72_7 C93_9 1_555 1_555
Mn20 O72_7 1_555 1_555
C94_9 C91_9 1_555 1_555
H19_9 C94_9 1_555 1_555
C95_9 C92_9 1_555 1_555
C96_9 C95_9 1_555 1_555
C97_9 C92_9 1_555 1_555
S20_9 C96_9 1_555 1_555
C98_9 S20_9 1_555 1_555
O39_2 C99_9 1_555 1_555
C99_9 C98_9 1_555 1_555
O28_2 C99_9 1_555 1_555
C100_9 C98_9 1_555 1_555
H20_9 C100_9 1_555 1_555
C101_9 C96_9 1_555 1_555
C102_9 C97_9 1_555 1_555
S21_9 C102_9 1_555 1_555
C103_9 S21_9 1_555 1_555
O75_9 Mn15_4 1_555 1_555
C104_9 O19_4 1_555 1_555
C105_9 C97_9 1_555 1_555
H21_9 C105_9 1_555 1_555
C19_6 C20_6 1_555 1_555
S5_6 C25_6 1_555 1_555
C24_6 C25_6 1_555 1_555
S6_6 C30_6 1_555 1_555
O12_6 Mn7_2 1_555 1_555
C28_6 C29_6 1_555 1_555
C29_6 C30_6 1_555 1_555
C94_9 C95_9 1_555 1_555
C100_9 C101_9 1_555 1_555
C101_9 C102_9 1_555 1_555
C103_9 C104_9 1_555 1_555
C103_9 C105_9 1_555 1_555
O75_9 C104_9 1_555 1_555
O15_9 Mn5 1_555 1_555
O20_6 Mn5 1_555 1_555
S10_7 C46_7 1_555 1_555
C46_7 C48_7 1_555 1_555
C47_7 S10_7 1_555 1_555
O70_3 C48_7 1_555 1_555
C48_7 O40_5 1_555 1_555
C49_7 C46_7 1_555 1_555
H10_7 C49_7 1_555 1_555
C50_7 C47_7 1_555 1_555
C51_7 C50_7 1_555 1_555
C52_7 C47_7 1_555 1_555
S11_7 C51_7 1_555 1_555
C53_7 S11_7 1_555 1_555
O84 C54_7 1_555 1_555
C54_7 O40_2 1_555 1_555
C55_7 C53_7 1_555 1_555
H11_7 C55_7 1_555 1_555
C56_7 C51_7 1_555 1_555
C57_7 C52_7 1_555 1_555
S12_7 C57_7 1_555 1_555
C58_7 S12_7 1_555 1_555
O37_7 Mn17_3 1_555 1_555
C59_7 O86_5 1_555 1_555
C60_7 C52_7 1_555 1_555
H12_7 C60_7 1_555 1_555
O42_11 Mn15_2 1_555 1_555
O43_8 Mn15_2 1_555 1_555
O45_8 Mn15_2 1_555 1_555
S19_10 C91_10 1_555 1_555
C91_10 C93_10 1_555 1_555
C92_10 S19_10 1_555 1_555
C93_10 O27_4 1_555 1_555
O72_8 C93_10 1_555 1_555
Mn12_8 O72_8 1_555 1_555
C94_10 C91_10 1_555 1_555
H19_10 C94_10 1_555 1_555
C95_10 C92_10 1_555 1_555
C96_10 C95_10 1_555 1_555
C97_10 C92_10 1_555 1_555
S20_10 C96_10 1_555 1_555
C98_10 S20_10 1_555 1_555
O73_8 C99_10 1_555 1_555
C99_10 C98_10 1_555 1_555
Mn28_10 O73_8 1_555 1_555
O20_2 C99_10 1_555 1_555
C100_10 C98_10 1_555 1_555
H20_10 C100_10 1_555 1_555
C101_10 C96_10 1_555 1_555
C102_10 C97_10 1_555 1_555
S21_10 C102_10 1_555 1_555
C103_10 S21_10 1_555 1_555
O75_10 Mn9_2 1_555 1_555
C104_10 O45_8 1_555 1_555
C105_10 C97_10 1_555 1_555
H21_10 C105_10 1_555 1_555
S22_8 C106_8 1_555 1_555
C106_8 C108_8 1_555 1_555
C107_8 S22_8 1_555 1_555
O49_3 C108_8 1_555 1_555
C108_8 O77_8 1_555 1_555
O77_8 Mn20_4 1_555 1_555
C109_8 C106_8 1_555 1_555
H22_8 C109_8 1_555 1_555
C110_8 C107_8 1_555 1_555
C111_8 C110_8 1_555 1_555
C112_8 C107_8 1_555 1_555
S23_8 C111_8 1_555 1_555
C113_8 S23_8 1_555 1_555
O39_4 C114_8 1_555 1_555
C114_8 O28_4 1_555 1_555
C115_8 C113_8 1_555 1_555
H23_8 C115_8 1_555 1_555
C116_8 C111_8 1_555 1_555
C117_8 C112_8 1_555 1_555
S24_8 C117_8 1_555 1_555
C118_8 S24_8 1_555 1_555
C119_8 O43_8 1_555 1_555
C120_8 C112_8 1_555 1_555
H24_8 C120_8 1_555 1_555
O83_14 Mn28_10 1_555 1_555
O85_6 Mn28_10 1_555 1_555
C49_7 C50_7 1_555 1_555
C53_7 C54_7 1_555 1_555
C55_7 C56_7 1_555 1_555
C56_7 C57_7 1_555 1_555
C58_7 C59_7 1_555 1_555
C58_7 C60_7 1_555 1_555
O37_7 C59_7 1_555 1_555
O19_2 C119_8 1_555 1_555
C94_10 C95_10 1_555 1_555
C100_10 C101_10 1_555 1_555
C101_10 C102_10 1_555 1_555
C103_10 C104_10 1_555 1_555
C103_10 C105_10 1_555 1_555
O75_10 C104_10 1_555 1_555
C109_8 C110_8 1_555 1_555
C113_8 C114_8 1_555 1_555
C115_8 C116_8 1_555 1_555
C116_8 C117_8 1_555 1_555
C118_8 C119_8 1_555 1_555
C118_8 C120_8 1_555 1_555
O83_15 Mn28_11 1_555 1_555
O84_8 Mn28_11 1_555 1_555
O86_7 Mn28_11 1_555 1_555
S4_7 C17_7 1_555 1_555
O64 C16_7 1_555 1_555
O81_2 C16_7 1_555 1_555
C16_7 C17_7 1_555 1_555
C17_7 C18_7 1_555 1_555
C18_7 H4_7 1_555 1_555
C19_7 C18_7 1_555 1_555
C20_7 S4_7 1_555 1_555
S5_7 C22_7 1_555 1_555
O10_7 C21_7 1_555 1_555
C21_7 O20_6 1_555 1_555
C22_7 C21_7 1_555 1_555
C23_7 C22_7 1_555 1_555
H5_7 C23_7 1_555 1_555
C24_7 C23_7 1_555 1_555
C25_7 C19_7 1_555 1_555
S6_7 C27_7 1_555 1_555
O49_5 C26_7 1_555 1_555
O13_7 C26_7 1_555 1_555
C26_7 C27_7 1_555 1_555
C27_7 C28_7 1_555 1_555
C28_7 H6_7 1_555 1_555
C29_7 C20_7 1_555 1_555
C30_7 C24_7 1_555 1_555
Mn31_2 O10_7 1_555 1_555
O14_9 Mn31_2 1_555 1_555
Mn17_3 O13_7 1_555 1_555
O22_6 Mn31_2 1_555 1_555
S7_7 C31_7 1_555 1_555
C31_7 C33_7 1_555 1_555
C32_7 S7_7 1_555 1_555
C33_7 O18_2 1_555 1_555
O29_5 C33_7 1_555 1_555
Mn7_3 O29_5 1_555 1_555
C34_7 C31_7 1_555 1_555
H7_7 C34_7 1_555 1_555
C35_7 C32_7 1_555 1_555
C36_7 C35_7 1_555 1_555
C37_7 C32_7 1_555 1_555
S8_7 C36_7 1_555 1_555
C38_7 S8_7 1_555 1_555
O17_3 C39_7 1_555 1_555
C39_7 C38_7 1_555 1_555
O21_3 C39_7 1_555 1_555
C40_7 C38_7 1_555 1_555
H8_7 C40_7 1_555 1_555
C41_7 C36_7 1_555 1_555
C42_7 C37_7 1_555 1_555
S9_7 C42_7 1_555 1_555
C43_7 S9_7 1_555 1_555
C44_7 C43_7 1_555 1_555
O33_7 C44_7 1_555 1_555
Mn8 O33_7 1_555 1_555
C45_7 C37_7 1_555 1_555
H9_7 C45_7 1_555 1_555
S10_8 C46_8 1_555 1_555
C46_8 C48_8 1_555 1_555
C47_8 S10_8 1_555 1_555
O80_4 C48_8 1_555 1_555
C48_8 O71_4 1_555 1_555
C49_8 C46_8 1_555 1_555
H10_8 C49_8 1_555 1_555
C50_8 C47_8 1_555 1_555
C51_8 C50_8 1_555 1_555
C52_8 C47_8 1_555 1_555
S11_8 C51_8 1_555 1_555
C53_8 S11_8 1_555 1_555
O84_8 C54_8 1_555 1_555
C54_8 O23_2 1_555 1_555
C55_8 C53_8 1_555 1_555
H11_8 C55_8 1_555 1_555
C56_8 C51_8 1_555 1_555
C57_8 C52_8 1_555 1_555
S12_8 C57_8 1_555 1_555
C58_8 S12_8 1_555 1_555
O37_8 Mn8 1_555 1_555
C59_8 O22_6 1_555 1_555
C60_8 C52_8 1_555 1_555
H12_8 C60_8 1_555 1_555
Mn9_3 O46_10 1_555 1_555
S19_11 C91_11 1_555 1_555
C91_11 C93_11 1_555 1_555
C92_11 S19_11 1_555 1_555
C93_11 O49_4 1_555 1_555
O72_9 C93_11 1_555 1_555
Mn20_6 O72_9 1_555 1_555
C94_11 C91_11 1_555 1_555
H19_11 C94_11 1_555 1_555
C95_11 C92_11 1_555 1_555
C96_11 C95_11 1_555 1_555
C97_11 C92_11 1_555 1_555
S20_11 C96_11 1_555 1_555
C98_11 S20_11 1_555 1_555
O39 C99_11 1_555 1_555
C99_11 C98_11 1_555 1_555
O28 C99_11 1_555 1_555
C100_11 C98_11 1_555 1_555
H20_11 C100_11 1_555 1_555
C101_11 C96_11 1_555 1_555
C102_11 C97_11 1_555 1_555
S21_11 C102_11 1_555 1_555
C103_11 S21_11 1_555 1_555
O75_11 Mn15_3 1_555 1_555
C104_11 O19_3 1_555 1_555
C105_11 C97_11 1_555 1_555
H21_11 C105_11 1_555 1_555
C19_7 C20_7 1_555 1_555
S5_7 C25_7 1_555 1_555
C24_7 C25_7 1_555 1_555
S6_7 C30_7 1_555 1_555
C28_7 C29_7 1_555 1_555
C29_7 C30_7 1_555 1_555
C34_7 C35_7 1_555 1_555
C40_7 C41_7 1_555 1_555
C41_7 C42_7 1_555 1_555
C43_7 C45_7 1_555 1_555
O18_5 C44_7 1_555 1_555
C49_8 C50_8 1_555 1_555
C53_8 C54_8 1_555 1_555
C55_8 C56_8 1_555 1_555
C56_8 C57_8 1_555 1_555
C58_8 C59_8 1_555 1_555
C58_8 C60_8 1_555 1_555
O37_8 C59_8 1_555 1_555
C94_11 C95_11 1_555 1_555
C100_11 C101_11 1_555 1_555
C101_11 C102_11 1_555 1_555
C103_11 C104_11 1_555 1_555
C103_11 C105_11 1_555 1_555
O75_11 C104_11 1_555 1_555
O14_10 Mn23 1_555 1_555
Mn9 O46_11 1_555 1_555
S10_9 C46_9 1_555 1_555
C46_9 C48_9 1_555 1_555
C47_9 S10_9 1_555 1_555
O70_6 C48_9 1_555 1_555
C48_9 O86_4 1_555 1_555
C49_9 C46_9 1_555 1_555
H10_9 C49_9 1_555 1_555
C50_9 C47_9 1_555 1_555
C51_9 C50_9 1_555 1_555
C52_9 C47_9 1_555 1_555
S11_9 C51_9 1_555 1_555
C53_9 S11_9 1_555 1_555
O84_6 C54_9 1_555 1_555
C54_9 O65 1_555 1_555
C55_9 C53_9 1_555 1_555
H11_9 C55_9 1_555 1_555
C56_9 C51_9 1_555 1_555
C57_9 C52_9 1_555 1_555
S12_9 C57_9 1_555 1_555
C58_9 S12_9 1_555 1_555
O37_9 Mn20 1_555 1_555
C59_9 O44 1_555 1_555
C60_9 C52_9 1_555 1_555
H12_9 C60_9 1_555 1_555
C49_9 C50_9 1_555 1_555
C53_9 C54_9 1_555 1_555
C55_9 C56_9 1_555 1_555
C56_9 C57_9 1_555 1_555
C58_9 C59_9 1_555 1_555
C58_9 C60_9 1_555 1_555
O37_9 C59_9 1_555 1_555
Mn30 O46_12 1_555 1_555
Mn16 O67_14 1_555 1_555
Mn16_2 O67_15 1_555 1_555
S10_10 C46_10 1_555 1_555
C46_10 C48_10 1_555 1_555
C47_10 S10_10 1_555 1_555
O70 C48_10 1_555 1_555
C48_10 O35_6 1_555 1_555
O35_6 Mn27 1_555 1_555
C49_10 C46_10 1_555 1_555
H10_10 C49_10 1_555 1_555
C50_10 C47_10 1_555 1_555
C51_10 C50_10 1_555 1_555
C52_10 C47_10 1_555 1_555
S11_10 C51_10 1_555 1_555
C53_10 S11_10 1_555 1_555
O84_3 C54_10 1_555 1_555
C54_10 O40_4 1_555 1_555
C55_10 C53_10 1_555 1_555
H11_10 C55_10 1_555 1_555
C56_10 C51_10 1_555 1_555
C57_10 C52_10 1_555 1_555
S12_10 C57_10 1_555 1_555
C58_10 S12_10 1_555 1_555
O37_10 Mn17_6 1_555 1_555
C59_10 O44_5 1_555 1_555
C60_10 C52_10 1_555 1_555
H12_10 C60_10 1_555 1_555
O42_12 Mn15_4 1_555 1_555
C49_10 C50_10 1_555 1_555
C53_10 C54_10 1_555 1_555
C55_10 C56_10 1_555 1_555
C56_10 C57_10 1_555 1_555
C58_10 C59_10 1_555 1_555
C58_10 C60_10 1_555 1_555
O37_10 C59_10 1_555 1_555
S10_11 C46_11 1_555 1_555
C46_11 C48_11 1_555 1_555
C47_11 S10_11 1_555 1_555
O70_5 C48_11 1_555 1_555
C48_11 O86_2 1_555 1_555
C49_11 C46_11 1_555 1_555
H10_11 C49_11 1_555 1_555
C50_11 C47_11 1_555 1_555
C51_11 C50_11 1_555 1_555
C52_11 C47_11 1_555 1_555
S11_11 C51_11 1_555 1_555
C53_11 S11_11 1_555 1_555
O84_7 C54_11 1_555 1_555
C54_11 O65_3 1_555 1_555
C55_11 C53_11 1_555 1_555
H11_11 C55_11 1_555 1_555
C56_11 C51_11 1_555 1_555
C57_11 C52_11 1_555 1_555
S12_11 C57_11 1_555 1_555
C58_11 S12_11 1_555 1_555
O37_11 Mn20_4 1_555 1_555
C59_11 O44_3 1_555 1_555
C60_11 C52_11 1_555 1_555
H12_11 C60_11 1_555 1_555
C49_11 C50_11 1_555 1_555
C53_11 C54_11 1_555 1_555
C55_11 C56_11 1_555 1_555
C56_11 C57_11 1_555 1_555
C58_11 C59_11 1_555 1_555
C58_11 C60_11 1_555 1_555
O37_11 C59_11 1_555 1_555
Mn8_2 O46_13 1_555 1_555
Mn7_2 O67_16 1_555 1_555
Mn7_3 O67_17 1_555 1_555
Mn12_7 O67_18 1_555 1_555
O70_7 Mn12_7 1_555 1_555
Mn12_8 O67_19 1_555 1_555
O68_8 Mn12_8 1_555 1_555
S19_12 C91_12 1_555 1_555
C91_12 C93_12 1_555 1_555
C92_12 S19_12 1_555 1_555
C93_12 O68_8 1_555 1_555
O85_3 C93_12 1_555 1_555
C94_12 C91_12 1_555 1_555
H19_12 C94_12 1_555 1_555
C95_12 C92_12 1_555 1_555
C96_12 C95_12 1_555 1_555
C97_12 C92_12 1_555 1_555
S20_12 C96_12 1_555 1_555
C98_12 S20_12 1_555 1_555
O39_5 C99_12 1_555 1_555
C99_12 C98_12 1_555 1_555
O66_2 C99_12 1_555 1_555
C100_12 C98_12 1_555 1_555
H20_12 C100_12 1_555 1_555
C101_12 C96_12 1_555 1_555
C102_12 C97_12 1_555 1_555
S21_12 C102_12 1_555 1_555
C103_12 S21_12 1_555 1_555
O75_12 Mn17_4 1_555 1_555
C104_12 O85_6 1_555 1_555
C105_12 C97_12 1_555 1_555
H21_12 C105_12 1_555 1_555
C94_12 C95_12 1_555 1_555
C100_12 C101_12 1_555 1_555
C101_12 C102_12 1_555 1_555
C103_12 C104_12 1_555 1_555
C103_12 C105_12 1_555 1_555
O75_12 C104_12 1_555 1_555
O83_16 Mn27 1_555 1_555
O84_9 Mn27 1_555 1_555
Mn12_3 O67_20 1_555 1_555
O68_9 Mn12_3 1_555 1_555
S19_13 C91_13 1_555 1_555
C91_13 C93_13 1_555 1_555
C92_13 S19_13 1_555 1_555
C93_13 O68_9 1_555 1_555
O85 C93_13 1_555 1_555
C94_13 C91_13 1_555 1_555
H19_13 C94_13 1_555 1_555
C95_13 C92_13 1_555 1_555
C96_13 C95_13 1_555 1_555
C97_13 C92_13 1_555 1_555
S20_13 C96_13 1_555 1_555
C98_13 S20_13 1_555 1_555
O73_9 C99_13 1_555 1_555
C99_13 C98_13 1_555 1_555
Mn27_2 O73_9 1_555 1_555
O66_4 C99_13 1_555 1_555
C100_13 C98_13 1_555 1_555
H20_13 C100_13 1_555 1_555
C101_13 C96_13 1_555 1_555
C102_13 C97_13 1_555 1_555
S21_13 C102_13 1_555 1_555
C103_13 S21_13 1_555 1_555
O75_13 Mn17 1_555 1_555
C104_13 O19_5 1_555 1_555
C105_13 C97_13 1_555 1_555
H21_13 C105_13 1_555 1_555
O83_17 Mn27_2 1_555 1_555
C94_13 C95_13 1_555 1_555
C100_13 C101_13 1_555 1_555
C101_13 C102_13 1_555 1_555
C103_13 C104_13 1_555 1_555
C103_13 C105_13 1_555 1_555
O75_13 C104_13 1_555 1_555
Mn12_4 O67_21 1_555 1_555
S10_12 C46_12 1_555 1_555
C46_12 C48_12 1_555 1_555
C47_12 S10_12 1_555 1_555
O70_4 C48_12 1_555 1_555
C48_12 O86_6 1_555 1_555
C49_12 C46_12 1_555 1_555
H10_12 C49_12 1_555 1_555
C50_12 C47_12 1_555 1_555
C51_12 C50_12 1_555 1_555
C52_12 C47_12 1_555 1_555
S11_12 C51_12 1_555 1_555
C53_12 S11_12 1_555 1_555
O84_2 C54_12 1_555 1_555
C54_12 O40_3 1_555 1_555
C55_12 C53_12 1_555 1_555
H11_12 C55_12 1_555 1_555
C56_12 C51_12 1_555 1_555
C57_12 C52_12 1_555 1_555
S12_12 C57_12 1_555 1_555
C58_12 S12_12 1_555 1_555
O37_12 Mn17_5 1_555 1_555
C59_12 O86_7 1_555 1_555
C60_12 C52_12 1_555 1_555
H12_12 C60_12 1_555 1_555
O42_13 Mn15_3 1_555 1_555
C49_12 C50_12 1_555 1_555
C53_12 C54_12 1_555 1_555
C55_12 C56_12 1_555 1_555
C56_12 C57_12 1_555 1_555
C58_12 C59_12 1_555 1_555
C58_12 C60_12 1_555 1_555
O37_12 C59_12 1_555 1_555
S10_13 C46_13 1_555 1_555
C46_13 C48_13 1_555 1_555
C47_13 S10_13 1_555 1_555
O70_7 C48_13 1_555 1_555
C48_13 O86_3 1_555 1_555
C49_13 C46_13 1_555 1_555
H10_13 C49_13 1_555 1_555
C50_13 C47_13 1_555 1_555
C51_13 C50_13 1_555 1_555
C52_13 C47_13 1_555 1_555
S11_13 C51_13 1_555 1_555
C53_13 S11_13 1_555 1_555
O84_9 C54_13 1_555 1_555
C54_13 O65_4 1_555 1_555
C55_13 C53_13 1_555 1_555
H11_13 C55_13 1_555 1_555
C56_13 C51_13 1_555 1_555
C57_13 C52_13 1_555 1_555
S12_13 C57_13 1_555 1_555
C58_13 S12_13 1_555 1_555
O37_13 Mn20_5 1_555 1_555
C59_13 O44_4 1_555 1_555
C60_13 C52_13 1_555 1_555
H12_13 C60_13 1_555 1_555
C49_13 C50_13 1_555 1_555
C53_13 C54_13 1_555 1_555
C55_13 C56_13 1_555 1_555
C56_13 C57_13 1_555 1_555
C58_13 C59_13 1_555 1_555
C58_13 C60_13 1_555 1_555
O37_13 C59_13 1_555 1_555
Mn9_2 O46_14 1_555 1_555
Mn8 O46_15 1_555 1_555
O42_14 Mn20_2 1_555 1_555
O42_15 Mn20_3 1_555 1_555
Mn20 O46_16 1_555 1_555
O42_16 Mn20_5 1_555 1_555
O42_17 Mn20_6 1_555 1_555
Mn20_4 O46_17 1_555 1_555
O83_18 Mn17 1_555 1_555
O83_19 Mn17_2 1_555 1_555
O42_18 Mn17_4 1_555 1_555
O42_19 Mn17_5 1_555 1_555
Mn17_3 O67_22 1_555 1_555
Mn17_6 O67_23 1_555 1_555

#END
