
###############################################################################
#
# This file contains modified crystal structure data generated from the
# MOF subset of the Cambridge Structural Database (CSD) v543 
# hosted by the Cambridge Crystallographic Data Centre (CCDC).
#
# This work is licensed under the Creative Commons
# Attribution-NonCommercial-ShareAlike 4.0 International License.
# To view a copy of this license, visit
# http://creativecommons.org/licenses/by-nc-sa/4.0/
# or send a letter to
# Creative Commons, PO Box 1866, Mountain View, CA 94042, USA.
#
# CIF created using the CSD Python API on 29 September 2022
# The structure has been converted into the P1 space group
# The structure has a 3D framework
# The original CSD entry RAPVOX is in the orthorhombic crystal system
# The framework has been calculated to contain at least 10.0% void space
# The void calculation uses a probe of radius 1.32A, grid spacing 0.4
#
###############################################################################

data_RAPVOX
_chemical_formula_moiety         '(C528 H352 Eu19 N16 O150)n'
_symmetry_cell_setting           triclinic
_symmetry_space_group_name_H-M   'P 1'
_symmetry_Int_Tables_number      1
_space_group_name_Hall           'P 1'
loop_
_symmetry_equiv_pos_site_id
_symmetry_equiv_pos_as_xyz
1 x,y,z
_cell_length_a                   8.5329(4)
_cell_length_b                   34.8978(14)
_cell_length_c                   52.933(2)
_cell_angle_alpha                90
_cell_angle_beta                 90
_cell_angle_gamma                90
_cell_volume                     15762.4
loop_
_atom_site_label
_atom_site_type_symbol
_atom_site_fract_x
_atom_site_fract_y
_atom_site_fract_z
O10 O 0.1067(7) 0.53129(19) 0.06782(12)
Eu1 Eu -0.000000 0.500000 0.02994(2)
Eu2 Eu 0.500000 0.500000 0.00491(2)
C31 C 0.2328(13) 0.5337(4) 0.0767(2)
H16 H 0.315073 0.522947 0.067584
N1 N 0.2691(12) 0.5508(3) 0.09898(19)
C32 C 0.4312(16) 0.5535(4) 0.1063(3)
H17 H 0.490891 0.534397 0.097508
H18 H 0.440217 0.549397 0.124203
H19 H 0.470617 0.578481 0.102170
C33 C 0.1554(17) 0.5628(4) 0.1194(3)
H20 H 0.082372 0.581058 0.112597
H21 H 0.211945 0.574279 0.133112
H22 H 0.099469 0.540752 0.125379
O22 O 0.2325(6) 0.53377(11) 0.0176(2)
O24 O 0.7675(6) 0.46623(11) 0.0176(2)
O27 O 0.5557(8) 0.54270(18) 0.03769(13)
O28 O 0.4443(8) 0.45730(18) 0.03769(13)
O30 O 0.1850(8) 0.45770(17) 0.04481(13)
C1 C 0.1356(8) 0.46116(19) 0.85278(13)
C2 C 0.1226(8) 0.45259(18) 0.82751(14)
H1 H 0.062748 0.431559 0.822657
C3 C 0.1961(9) 0.4744(2) 0.80899(15)
C4 C 0.2813(8) 0.50620(17) 0.81585(13)
H2 H 0.331342 0.520923 0.803625
C5 C 0.2919(7) 0.51606(19) 0.84103(14)
C6 C 0.2180(8) 0.49328(18) 0.85918(14)
H3 H 0.225033 0.500192 0.876104
C7 C 0.0491(9) 0.4389(2) 0.87129(15)
C8 C 0.1712(10) 0.4659(2) 0.78084(16)
C9 C 0.3837(8) 0.54960(18) 0.85064(14)
C10 C 0.0797(8) 0.44347(18) 0.89907(14)
C13 C 0.1350(8) 0.45441(18) 0.95051(14)
C14 C 0.2604(8) 0.4504(2) 0.93339(14)
H6 H 0.363113 0.450917 0.939254
C15 C 0.2317(8) 0.4459(2) 0.90854(14)
H7 H 0.315708 0.444351 0.897393
C16 C 0.1279(9) 0.4260(2) 0.77331(14)
C17 C 0.1925(9) 0.3946(2) 0.78561(16)
H8 H 0.264399 0.398165 0.798610
C18 C 0.1485(8) 0.3575(2) 0.77828(15)
H9 H 0.193868 0.336426 0.786106
C19 C 0.0394(8) 0.3522(2) 0.75971(13)
C21 C 0.0226(10) 0.4210(2) 0.75373(16)
C22 C 0.3984(8) 0.58554(18) 0.83432(15)
C23 C 0.2879(8) 0.5962(2) 0.81684(15)
H12 H 0.206315 0.579516 0.813012
C24 C 0.2957(8) 0.63118(19) 0.80487(15)
H13 H 0.217118 0.638645 0.793740
C25 C 0.4186(8) 0.6545(2) 0.80945(14)
C26 C 0.5334(7) 0.6437(2) 0.82638(14)
H14 H 0.620241 0.659408 0.828852
C27 C 0.5204(8) 0.6107(2) 0.83937(17)
H15 H 0.593621 0.604648 0.851765
C28 C 0.1654(8) 0.4619(2) 0.97695(15)
C30 C 0.4312(9) 0.6926(2) 0.79597(15)
O2 O 0.1847(9) 0.49154(16) 0.76551(16)
O3 O 0.4391(7) 0.55006(14) 0.87141(11)
O4 O 0.3075(7) 0.47121(18) 0.98263(12)
O5 O 0.0590(8) 0.46185(19) 0.99284(13)
O6 O 0.0175(6) 0.28377(11) 0.7676(2)
O8 O 0.3057(8) 0.70730(18) 0.78769(13)
O9 O 0.5650(8) 0.70770(17) 0.79481(13)
C44 C 0.0443(9) 0.5550(2) 0.91552(16)
H26 H 0.146135 0.557493 0.909485
C45 C 0.0176(8) 0.5497(2) 0.94165(16)
H27 H 0.101508 0.549035 0.952848
C53 C 0.0226(10) 0.6164(2) 0.74699(16)
H32 H 0.094264 0.620079 0.733984
H33 H 0.017770 0.557990 0.745138
C62 C 0.0270(7) 0.6879(2) 0.75443(15)
O11 O 0.0575(7) 0.58365(18) 0.86504(10)
O17 O 0.1294(6) 0.69166(15) 0.73774(11)
O21 O 0.6925(7) 0.52879(18) 0.98263(12)
O25 O 0.3794(6) 0.55834(15) 0.98774(11)
O26 O 0.6206(6) 0.44166(15) 0.98774(11)
Eu4 Eu 0.250000 0.250000 0.77994(2)
Eu6 Eu 0.750000 0.750000 0.77994(2)
Eu9 Eu 0.250000 0.750000 0.75491(2)
Eu1_2 Eu 1.000000 0.500000 0.02994(2)
O20 O 0.8933(7) 0.46871(19) 0.06782(12)
C64 C 0.7672(13) 0.4663(4) 0.0767(2)
H38 H 0.684927 0.477053 0.067584
N2 N 0.7309(12) 0.4492(3) 0.09898(19)
C65 C 0.5688(16) 0.4465(4) 0.1063(3)
H39 H 0.509109 0.465603 0.097508
H40 H 0.559783 0.450603 0.124203
H41 H 0.529383 0.421519 0.102170
C66 C 0.8446(17) 0.4372(4) 0.1194(3)
H42 H 0.917628 0.418942 0.112597
H43 H 0.788055 0.425721 0.133112
H44 H 0.900531 0.459248 0.125379
O29 O 0.8150(8) 0.54230(17) 0.04481(13)
C11 C 0.9557(9) 0.4450(2) 0.91552(16)
H4 H 0.853865 0.442507 0.909485
C12 C 0.9824(8) 0.4503(2) 0.94165(16)
H5 H 0.898492 0.450965 0.952848
C20 C 0.9774(10) 0.3836(2) 0.74699(16)
H10 H 0.905736 0.379921 0.733984
H11 H 0.982230 0.442010 0.745138
C29 C 0.9730(7) 0.3121(2) 0.75443(15)
O1 O 0.9425(7) 0.41635(18) 0.86504(10)
O7 O 0.8706(6) 0.30834(15) 0.73774(11)
C34 C 0.8644(8) 0.53884(19) 0.85278(13)
C35 C 0.8774(8) 0.54741(18) 0.82751(14)
H23 H 0.937252 0.568441 0.822657
C36 C 0.8039(9) 0.5256(2) 0.80899(15)
C37 C 0.7187(8) 0.49380(17) 0.81585(13)
H24 H 0.668658 0.479077 0.803625
C38 C 0.7081(7) 0.48394(19) 0.84103(14)
C39 C 0.7820(8) 0.50672(18) 0.85918(14)
H25 H 0.774967 0.499808 0.876104
C40 C 0.9509(9) 0.5611(2) 0.87129(15)
C41 C 0.8288(10) 0.5341(2) 0.78084(16)
C42 C 0.6163(8) 0.45040(18) 0.85064(14)
C43 C 0.9203(8) 0.55653(18) 0.89907(14)
C46 C 0.8650(8) 0.54559(18) 0.95051(14)
C47 C 0.7396(8) 0.5496(2) 0.93339(14)
H28 H 0.636887 0.549083 0.939254
C48 C 0.7683(8) 0.5541(2) 0.90854(14)
H29 H 0.684292 0.555649 0.897393
C49 C 0.8721(9) 0.5740(2) 0.77331(14)
C50 C 0.8075(9) 0.6054(2) 0.78561(16)
H30 H 0.735601 0.601835 0.798610
C51 C 0.8515(8) 0.6425(2) 0.77828(15)
H31 H 0.806132 0.663574 0.786106
C52 C 0.9606(8) 0.6478(2) 0.75971(13)
C54 C 0.9774(10) 0.5790(2) 0.75373(16)
C55 C 0.6016(8) 0.41446(18) 0.83432(15)
C56 C 0.7121(8) 0.4038(2) 0.81684(15)
H34 H 0.793685 0.420484 0.813012
C57 C 0.7043(8) 0.36882(19) 0.80487(15)
H35 H 0.782882 0.361355 0.793740
C58 C 0.5814(8) 0.3455(2) 0.80945(14)
C59 C 0.4666(7) 0.3563(2) 0.82638(14)
H36 H 0.379759 0.340592 0.828852
C60 C 0.4796(8) 0.3893(2) 0.83937(17)
H37 H 0.406379 0.395352 0.851765
C61 C 0.8346(8) 0.5381(2) 0.97695(15)
C63 C 0.5688(9) 0.3074(2) 0.79597(15)
O12 O 0.8153(9) 0.50846(16) 0.76551(16)
O13 O 0.5609(7) 0.44994(14) 0.87141(11)
O15 O 0.9410(8) 0.53815(19) 0.99284(13)
O16 O 0.9825(6) 0.71623(11) 0.7676(2)
O18 O 0.6943(8) 0.29270(18) 0.78769(13)
O19 O 0.4350(8) 0.29230(17) 0.79481(13)
Eu8 Eu 0.750000 0.250000 0.75491(2)
O24_2 O 0.0175(6) 0.78377(11) 0.2676(2)
Eu4_2 Eu 0.500000 0.000000 0.02994(2)
Eu8_2 Eu 0.000000 0.000000 0.00491(2)
C1_2 C 0.3856(8) 0.78884(19) 0.10278(13)
C2_2 C 0.3726(8) 0.79741(18) 0.07751(14)
H1_2 H 0.312748 0.818441 0.072657
C3_2 C 0.4461(9) 0.7756(2) 0.05899(15)
C4_2 C 0.5313(8) 0.74380(17) 0.06585(13)
H2_2 H 0.581342 0.729077 0.053625
C5_2 C 0.5419(7) 0.73394(19) 0.09103(14)
C6_2 C 0.4680(8) 0.75672(18) 0.10918(14)
H3_2 H 0.475033 0.749808 0.126104
C7_2 C 0.2991(9) 0.8111(2) 0.12129(15)
C8_2 C 0.4212(10) 0.7841(2) 0.03084(16)
C9_2 C 0.6337(8) 0.70040(18) 0.10064(14)
C10_2 C 0.3297(8) 0.80653(18) 0.14907(14)
C11_2 C 0.2057(9) 0.8050(2) 0.16552(16)
H4_2 H 0.103865 0.807493 0.159485
C12_2 C 0.2324(8) 0.7997(2) 0.19165(16)
H5_2 H 0.148492 0.799035 0.202848
C13_2 C 0.3850(8) 0.79559(18) 0.20051(14)
C14_2 C 0.5104(8) 0.7996(2) 0.18339(14)
H6_2 H 0.613113 0.799083 0.189254
C15_2 C 0.4817(8) 0.8041(2) 0.15854(14)
H7_2 H 0.565708 0.805649 0.147393
C16_2 C 0.3779(9) 0.8240(2) 0.02331(14)
C17_2 C 0.4425(9) 0.8554(2) 0.03561(16)
H8_2 H 0.514399 0.851835 0.048610
C18_2 C 0.3985(8) 0.8925(2) 0.02828(15)
H9_2 H 0.443868 0.913574 0.036106
C19_2 C 0.2894(8) 0.8978(2) 0.00971(13)
C21_2 C 0.2726(10) 0.8290(2) 0.00373(16)
C22_2 C 0.6484(8) 0.66446(18) 0.08432(15)
C23_2 C 0.5379(8) 0.6538(2) 0.06684(15)
H12_2 H 0.456315 0.670484 0.063012
C24_2 C 0.5457(8) 0.61882(19) 0.05487(15)
H13_2 H 0.467118 0.611355 0.043740
C25_2 C 0.6686(8) 0.5955(2) 0.05945(14)
C26_2 C 0.7834(7) 0.6063(2) 0.07638(14)
H14_2 H 0.870241 0.590592 0.078852
C27_2 C 0.7704(8) 0.6393(2) 0.08937(17)
H15_2 H 0.843621 0.645352 0.101765
C28_2 C 0.4154(8) 0.7881(2) 0.22695(15)
C29_2 C 0.2230(7) 0.9379(2) 0.00443(15)
C30_2 C 0.6812(9) 0.5574(2) 0.04597(15)
O1_2 O 0.1925(7) 0.83365(18) 0.11504(10)
O2_2 O 0.4347(9) 0.75846(16) 0.01551(16)
O3_2 O 0.6891(7) 0.69994(14) 0.12141(11)
O4_2 O 0.5575(7) 0.77879(18) 0.23263(12)
O5_2 O 0.3090(8) 0.78815(19) 0.24284(13)
O6_2 O 0.2675(6) 0.96623(11) 0.0176(2)
O10_2 O 0.3567(7) 0.71871(19) 0.31782(12)
Eu1_3 Eu 0.250000 0.750000 0.27994(2)
Eu2_2 Eu 0.750000 0.750000 0.25491(2)
C31_2 C 0.4828(13) 0.7163(4) 0.3267(2)
H16_2 H 0.565073 0.727053 0.317584
N1_2 N 0.5191(12) 0.6992(3) 0.34898(19)
C32_2 C 0.6812(16) 0.6965(4) 0.3563(3)
H17_2 H 0.740891 0.715603 0.347508
H18_2 H 0.690217 0.700603 0.374203
H19_2 H 0.720617 0.671519 0.352170
C33_2 C 0.4054(17) 0.6872(4) 0.3694(3)
H20_2 H 0.332372 0.668942 0.362597
H21_2 H 0.461945 0.675721 0.383112
H22_2 H 0.349469 0.709248 0.375379
C34_2 C 0.1144(8) 0.71116(19) 0.10278(13)
C35_2 C 0.1274(8) 0.70259(18) 0.07751(14)
H23_2 H 0.187252 0.681559 0.072657
C36_2 C 0.0539(9) 0.7244(2) 0.05899(15)
C39_2 C 0.0320(8) 0.74328(18) 0.10918(14)
H25_2 H 0.024967 0.750192 0.126104
C40_2 C 0.2009(9) 0.6889(2) 0.12129(15)
C41_2 C 0.0788(10) 0.7159(2) 0.03084(16)
C43_2 C 0.1703(8) 0.69347(18) 0.14907(14)
C44_2 C 0.2943(9) 0.6950(2) 0.16552(16)
H26_2 H 0.396135 0.692507 0.159485
C45_2 C 0.2676(8) 0.7003(2) 0.19165(16)
H27_2 H 0.351508 0.700965 0.202848
C46_2 C 0.1150(8) 0.70441(18) 0.20051(14)
C48_2 C 0.0183(8) 0.6959(2) 0.15854(14)
C49_2 C 0.1221(9) 0.6760(2) 0.02331(14)
C50_2 C 0.0575(9) 0.6446(2) 0.03561(16)
C51_2 C 0.1015(8) 0.6075(2) 0.02828(15)
H31_2 H 0.056132 0.586426 0.036106
C52_2 C 0.2106(8) 0.6022(2) 0.00971(13)
C54_2 C 0.2274(10) 0.6710(2) 0.00373(16)
H34_2 H 0.043685 0.829516 0.063012
H35_2 H 0.032882 0.888645 0.043740
C61_2 C 0.0846(8) 0.7119(2) 0.22695(15)
C62_2 C 0.2770(7) 0.5621(2) 0.00443(15)
O11_2 O 0.3075(7) 0.66635(18) 0.11504(10)
O12_2 O 0.0653(9) 0.74154(16) 0.01551(16)
O15_2 O 0.1910(8) 0.71185(19) 0.24284(13)
O20_2 O 0.1433(7) 0.78129(19) 0.31782(12)
C64_2 C 0.0172(13) 0.7837(4) 0.3267(2)
C66_2 C 0.0946(17) 0.8128(4) 0.3694(3)
H42_2 H 0.167628 0.831058 0.362597
H43_2 H 0.038055 0.824279 0.383112
H44_2 H 0.150531 0.790752 0.375379
O21_2 O 0.9425(7) 0.72121(18) 0.23263(12)
O22_2 O 0.4825(6) 0.71623(11) 0.2676(2)
O25_2 O 0.6294(6) 0.69166(15) 0.23774(11)
O26_2 O 0.8706(6) 0.80834(15) 0.23774(11)
O27_2 O 0.8057(8) 0.70730(18) 0.28769(13)
O28_2 O 0.6943(8) 0.79270(18) 0.28769(13)
O29_2 O 0.0650(8) 0.70770(17) 0.29481(13)
O30_2 O 0.4350(8) 0.79230(17) 0.29481(13)
Eu4_3 Eu 0.500000 1.000000 0.02994(2)
Eu8_3 Eu -0.000000 1.000000 0.00491(2)
C20_2 C 0.2274(10) 0.8664(2) 0.99699(16)
H10_2 H 0.155736 0.870079 0.983984
H11_2 H 0.232230 0.807990 0.995138
O7_2 O 0.1206(6) 0.94166(15) 0.98774(11)
C53_2 C 0.2726(10) 0.6336(2) 0.99699(16)
H32_2 H 0.344264 0.629921 0.983984
H33_2 H 0.267770 0.692010 0.995138
Eu8_4 Eu 1.000000 0.000000 0.00491(2)
C37_2 C 0.9687(8) 0.75620(17) 0.06585(13)
H24_2 H 0.918658 0.770923 0.053625
C38_2 C 0.9581(7) 0.76606(19) 0.09103(14)
C42_2 C 0.8663(8) 0.79960(18) 0.10064(14)
C47_2 C 0.9896(8) 0.7004(2) 0.18339(14)
H28_2 H 0.886887 0.700917 0.189254
H29_2 H 0.934292 0.694351 0.147393
H30_2 H 0.985601 0.648165 0.048610
C55_2 C 0.8516(8) 0.83554(18) 0.08432(15)
C56_2 C 0.9621(8) 0.8462(2) 0.06684(15)
C57_2 C 0.9543(8) 0.88118(19) 0.05487(15)
C58_2 C 0.8314(8) 0.9045(2) 0.05945(14)
C59_2 C 0.7166(7) 0.8937(2) 0.07638(14)
H36_2 H 0.629759 0.909408 0.078852
C60_2 C 0.7296(8) 0.8607(2) 0.08937(17)
H37_2 H 0.656379 0.854648 0.101765
C63_2 C 0.8188(9) 0.9426(2) 0.04597(15)
O13_2 O 0.8109(7) 0.80006(14) 0.12141(11)
O18_2 O 0.9443(8) 0.95730(18) 0.03769(13)
O19_2 O 0.6850(8) 0.95770(17) 0.04481(13)
H38_2 H 0.934927 0.772947 0.317584
N2_2 N 0.9809(12) 0.8008(3) 0.34898(19)
C65_2 C 0.8188(16) 0.8035(4) 0.3563(3)
H39_2 H 0.759109 0.784397 0.347508
H40_2 H 0.809783 0.799397 0.374203
H41_2 H 0.779383 0.828481 0.352170
Eu8_5 Eu 1.000000 1.000000 0.00491(2)
C4_3 C 0.2813(8) 0.00620(17) 0.31585(13)
H2_3 H 0.331342 0.020923 0.303625
C5_3 C 0.2919(7) 0.01606(19) 0.34103(14)
H3_3 H 0.225033 0.000192 0.376104
C9_3 C 0.3837(8) 0.04960(18) 0.35064(14)
C22_3 C 0.3984(8) 0.08554(18) 0.33432(15)
C23_3 C 0.2879(8) 0.0962(2) 0.31684(15)
H12_3 H 0.206315 0.079516 0.313012
C24_3 C 0.2957(8) 0.13118(19) 0.30487(15)
H13_3 H 0.217118 0.138645 0.293740
C25_3 C 0.4186(8) 0.1545(2) 0.30945(14)
C26_3 C 0.5334(7) 0.1437(2) 0.32638(14)
H14_3 H 0.620241 0.159408 0.328852
C27_3 C 0.5204(8) 0.1107(2) 0.33937(17)
H15_3 H 0.593621 0.104648 0.351765
C30_3 C 0.4312(9) 0.1926(2) 0.29597(15)
O3_3 O 0.4391(7) 0.05006(14) 0.37141(11)
O8_2 O 0.3057(8) 0.20730(18) 0.28769(13)
O9_2 O 0.5650(8) 0.20770(17) 0.29481(13)
O10_3 O 0.1067(7) 0.03129(19) 0.56782(12)
Eu1_4 Eu 0.000000 -0.000000 0.52994(2)
Eu2_3 Eu 0.500000 -0.000000 0.50491(2)
C31_3 C 0.2328(13) 0.0337(4) 0.5767(2)
H16_3 H 0.315073 0.022947 0.567584
N1_3 N 0.2691(12) 0.0508(3) 0.59898(19)
C32_3 C 0.4312(16) 0.0535(4) 0.6063(3)
H17_3 H 0.490891 0.034397 0.597508
H18_3 H 0.440217 0.049397 0.624203
H19_3 H 0.470617 0.078481 0.602170
C33_3 C 0.1554(17) 0.0628(4) 0.6194(3)
H20_3 H 0.082372 0.081058 0.612597
H21_3 H 0.211945 0.074279 0.633112
H22_3 H 0.099469 0.040752 0.625379
C44_3 C 0.0443(9) 0.0550(2) 0.41552(16)
H26_3 H 0.146135 0.057493 0.409485
C45_3 C 0.0176(8) 0.0497(2) 0.44165(16)
H27_3 H 0.101508 0.049035 0.452848
C53_3 C 0.0226(10) 0.1164(2) 0.24699(16)
H32_3 H 0.094264 0.120079 0.233984
H33_3 H 0.017770 0.057990 0.245138
C62_3 C 0.0270(7) 0.1879(2) 0.25443(15)
O11_3 O 0.0575(7) 0.08365(18) 0.36504(10)
O17_2 O 0.1294(6) 0.19166(15) 0.23774(11)
O21_3 O 0.6925(7) 0.02879(18) 0.48263(12)
O22_3 O 0.2325(6) 0.03377(11) 0.5176(2)
O25_3 O 0.3794(6) 0.05834(15) 0.48774(11)
O27_3 O 0.5557(8) 0.04270(18) 0.53769(13)
Eu6_2 Eu 0.750000 0.250000 0.27994(2)
Eu9_2 Eu 0.250000 0.250000 0.25491(2)
C1_3 C 0.1356(8) 0.96116(19) 0.35278(13)
C2_3 C 0.1226(8) 0.95259(18) 0.32751(14)
H1_3 H 0.062748 0.931559 0.322657
C3_3 C 0.1961(9) 0.9744(2) 0.30899(15)
C6_3 C 0.2180(8) 0.99328(18) 0.35918(14)
C7_3 C 0.0491(9) 0.9389(2) 0.37129(15)
C8_3 C 0.1712(10) 0.9659(2) 0.28084(16)
C10_3 C 0.0797(8) 0.94347(18) 0.39907(14)
C13_3 C 0.1350(8) 0.95441(18) 0.45051(14)
C14_3 C 0.2604(8) 0.9504(2) 0.43339(14)
H6_3 H 0.363113 0.950917 0.439254
C15_3 C 0.2317(8) 0.9459(2) 0.40854(14)
H7_3 H 0.315708 0.944351 0.397393
C16_3 C 0.1279(9) 0.9260(2) 0.27331(14)
C17_3 C 0.1925(9) 0.8946(2) 0.28561(16)
H8_3 H 0.264399 0.898165 0.298610
C18_3 C 0.1485(8) 0.8575(2) 0.27828(15)
H9_3 H 0.193868 0.836426 0.286106
C19_3 C 0.0394(8) 0.8522(2) 0.25971(13)
C21_3 C 0.0226(10) 0.9210(2) 0.25373(16)
C28_3 C 0.1654(8) 0.9619(2) 0.47695(15)
O2_3 O 0.1847(9) 0.99154(16) 0.26551(16)
O4_3 O 0.3075(7) 0.97121(18) 0.48263(12)
O5_3 O 0.0590(8) 0.96185(19) 0.49284(13)
Eu1_5 Eu 0.000000 1.000000 0.52994(2)
Eu2_4 Eu 0.500000 1.000000 0.50491(2)
O24_3 O 0.7675(6) 0.96623(11) 0.5176(2)
O26_3 O 0.6206(6) 0.94166(15) 0.48774(11)
O28_3 O 0.4443(8) 0.95730(18) 0.53769(13)
O30_3 O 0.1850(8) 0.95770(17) 0.54481(13)
Eu1_6 Eu 1.000000 -0.000000 0.52994(2)
C34_3 C 0.8644(8) 0.03884(19) 0.35278(13)
C35_3 C 0.8774(8) 0.04741(18) 0.32751(14)
H23_3 H 0.937252 0.068441 0.322657
C36_3 C 0.8039(9) 0.0256(2) 0.30899(15)
C39_3 C 0.7820(8) 0.00672(18) 0.35918(14)
C40_3 C 0.9509(9) 0.0611(2) 0.37129(15)
C41_3 C 0.8288(10) 0.0341(2) 0.28084(16)
C43_3 C 0.9203(8) 0.05653(18) 0.39907(14)
C46_3 C 0.8650(8) 0.04559(18) 0.45051(14)
C47_3 C 0.7396(8) 0.0496(2) 0.43339(14)
H28_3 H 0.636887 0.049083 0.439254
C48_3 C 0.7683(8) 0.0541(2) 0.40854(14)
H29_3 H 0.684292 0.055649 0.397393
C49_3 C 0.8721(9) 0.0740(2) 0.27331(14)
C50_3 C 0.8075(9) 0.1054(2) 0.28561(16)
H30_3 H 0.735601 0.101835 0.298610
C51_3 C 0.8515(8) 0.1425(2) 0.27828(15)
H31_3 H 0.806132 0.163574 0.286106
C52_3 C 0.9606(8) 0.1478(2) 0.25971(13)
C54_3 C 0.9774(10) 0.0790(2) 0.25373(16)
C61_3 C 0.8346(8) 0.0381(2) 0.47695(15)
O12_3 O 0.8153(9) 0.00846(16) 0.26551(16)
O15_3 O 0.9410(8) 0.03815(19) 0.49284(13)
O16_2 O 0.9825(6) 0.21623(11) 0.2676(2)
O29_3 O 0.8150(8) 0.04230(17) 0.54481(13)
C11_3 C 0.9557(9) 0.9450(2) 0.41552(16)
H4_3 H 0.853865 0.942507 0.409485
C12_3 C 0.9824(8) 0.9503(2) 0.44165(16)
H5_3 H 0.898492 0.950965 0.452848
C20_3 C 0.9774(10) 0.8836(2) 0.24699(16)
H10_3 H 0.905736 0.879921 0.233984
H11_3 H 0.982230 0.942010 0.245138
C29_3 C 0.9730(7) 0.8121(2) 0.25443(15)
O1_3 O 0.9425(7) 0.91635(18) 0.36504(10)
Eu1_7 Eu 1.000000 1.000000 0.52994(2)
C37_3 C 0.7187(8) 0.99380(17) 0.31585(13)
H24_3 H 0.668658 0.979077 0.303625
C38_3 C 0.7081(7) 0.98394(19) 0.34103(14)
H25_3 H 0.774967 0.999808 0.376104
C42_3 C 0.6163(8) 0.95040(18) 0.35064(14)
C55_3 C 0.6016(8) 0.91446(18) 0.33432(15)
C56_3 C 0.7121(8) 0.9038(2) 0.31684(15)
H34_3 H 0.793685 0.920484 0.313012
C57_3 C 0.7043(8) 0.86882(19) 0.30487(15)
H35_3 H 0.782882 0.861355 0.293740
C58_3 C 0.5814(8) 0.8455(2) 0.30945(14)
C59_3 C 0.4666(7) 0.8563(2) 0.32638(14)
H36_3 H 0.379759 0.840592 0.328852
C60_3 C 0.4796(8) 0.8893(2) 0.33937(17)
H37_3 H 0.406379 0.895352 0.351765
C63_3 C 0.5688(9) 0.8074(2) 0.29597(15)
O13_3 O 0.5609(7) 0.94994(14) 0.37141(11)
O20_3 O 0.8933(7) 0.96871(19) 0.56782(12)
C64_3 C 0.7672(13) 0.9663(4) 0.5767(2)
H38_3 H 0.684927 0.977053 0.567584
N2_3 N 0.7309(12) 0.9492(3) 0.59898(19)
C65_3 C 0.5688(16) 0.9465(4) 0.6063(3)
H39_3 H 0.509109 0.965603 0.597508
H40_3 H 0.559783 0.950603 0.624203
H41_3 H 0.529383 0.921519 0.602170
C66_3 C 0.8446(17) 0.9372(4) 0.6194(3)
H42_3 H 0.917628 0.918942 0.612597
H43_3 H 0.788055 0.925721 0.633112
H44_3 H 0.900531 0.959248 0.625379
C1_4 C 0.3856(8) 0.28884(19) 0.60278(13)
C2_4 C 0.3726(8) 0.29741(18) 0.57751(14)
H1_4 H 0.312748 0.318441 0.572657
C3_4 C 0.4461(9) 0.2756(2) 0.55899(15)
C4_4 C 0.5313(8) 0.24380(17) 0.56585(13)
H2_4 H 0.581342 0.229077 0.553625
C5_4 C 0.5419(7) 0.23394(19) 0.59103(14)
C6_4 C 0.4680(8) 0.25672(18) 0.60918(14)
H3_4 H 0.475033 0.249808 0.626104
C7_4 C 0.2991(9) 0.3111(2) 0.62129(15)
C8_4 C 0.4212(10) 0.2841(2) 0.53084(16)
C9_4 C 0.6337(8) 0.20040(18) 0.60064(14)
C10_4 C 0.3297(8) 0.30653(18) 0.64907(14)
C11_4 C 0.2057(9) 0.3050(2) 0.66552(16)
H4_4 H 0.103865 0.307493 0.659485
C12_4 C 0.2324(8) 0.2997(2) 0.69165(16)
H5_4 H 0.148492 0.299035 0.702848
C13_4 C 0.3850(8) 0.29559(18) 0.70051(14)
C14_4 C 0.5104(8) 0.2996(2) 0.68339(14)
H6_4 H 0.613113 0.299083 0.689254
C15_4 C 0.4817(8) 0.3041(2) 0.65854(14)
H7_4 H 0.565708 0.305649 0.647393
C16_4 C 0.3779(9) 0.3240(2) 0.52331(14)
C17_4 C 0.4425(9) 0.3554(2) 0.53561(16)
H8_4 H 0.514399 0.351835 0.548610
C18_4 C 0.3985(8) 0.3925(2) 0.52828(15)
H9_4 H 0.443868 0.413574 0.536106
C19_4 C 0.2894(8) 0.3978(2) 0.50971(13)
C20_4 C 0.2274(10) 0.3664(2) 0.49699(16)
H10_4 H 0.155736 0.370079 0.483984
C21_4 C 0.2726(10) 0.3290(2) 0.50373(16)
H11_4 H 0.232230 0.307990 0.495138
C22_4 C 0.6484(8) 0.16446(18) 0.58432(15)
C23_4 C 0.5379(8) 0.1538(2) 0.56684(15)
H12_4 H 0.456315 0.170484 0.563012
C24_4 C 0.5457(8) 0.11882(19) 0.55487(15)
H13_4 H 0.467118 0.111355 0.543740
C25_4 C 0.6686(8) 0.0955(2) 0.55945(14)
C26_4 C 0.7834(7) 0.1063(2) 0.57638(14)
H14_4 H 0.870241 0.090592 0.578852
C27_4 C 0.7704(8) 0.1393(2) 0.58937(17)
H15_4 H 0.843621 0.145352 0.601765
C28_4 C 0.4154(8) 0.2881(2) 0.72695(15)
C29_4 C 0.2230(7) 0.4379(2) 0.50443(15)
C30_4 C 0.6812(9) 0.0574(2) 0.54597(15)
O1_4 O 0.1925(7) 0.33365(18) 0.61504(10)
O2_4 O 0.4347(9) 0.25846(16) 0.51551(16)
O3_4 O 0.6891(7) 0.19994(14) 0.62141(11)
O4_4 O 0.5575(7) 0.27879(18) 0.73263(12)
O5_4 O 0.3090(8) 0.28815(19) 0.74284(13)
O6_3 O 0.2675(6) 0.46623(11) 0.5176(2)
O7_3 O 0.1206(6) 0.44166(15) 0.48774(11)
O10_4 O 0.3567(7) 0.21871(19) 0.81782(12)
C31_4 C 0.4828(13) 0.2163(4) 0.8267(2)
H16_4 H 0.565073 0.227053 0.817584
N1_4 N 0.5191(12) 0.1992(3) 0.84898(19)
C32_4 C 0.6812(16) 0.1965(4) 0.8563(3)
H17_4 H 0.740891 0.215603 0.847508
H18_4 H 0.690217 0.200603 0.874203
H19_4 H 0.720617 0.171519 0.852170
C33_4 C 0.4054(17) 0.1872(4) 0.8694(3)
H20_4 H 0.332372 0.168942 0.862597
H21_4 H 0.461945 0.175721 0.883112
H22_4 H 0.349469 0.209248 0.875379
C34_4 C 0.1144(8) 0.21116(19) 0.60278(13)
C35_4 C 0.1274(8) 0.20259(18) 0.57751(14)
H23_4 H 0.187252 0.181559 0.572657
C36_4 C 0.0539(9) 0.2244(2) 0.55899(15)
C39_4 C 0.0320(8) 0.24328(18) 0.60918(14)
H25_4 H 0.024967 0.250192 0.626104
C40_4 C 0.2009(9) 0.1889(2) 0.62129(15)
C41_4 C 0.0788(10) 0.2159(2) 0.53084(16)
C43_4 C 0.1703(8) 0.19347(18) 0.64907(14)
C44_4 C 0.2943(9) 0.1950(2) 0.66552(16)
H26_4 H 0.396135 0.192507 0.659485
C45_4 C 0.2676(8) 0.2003(2) 0.69165(16)
H27_4 H 0.351508 0.200965 0.702848
C46_4 C 0.1150(8) 0.20441(18) 0.70051(14)
C48_4 C 0.0183(8) 0.1959(2) 0.65854(14)
C49_4 C 0.1221(9) 0.1760(2) 0.52331(14)
C50_4 C 0.0575(9) 0.1446(2) 0.53561(16)
C51_4 C 0.1015(8) 0.1075(2) 0.52828(15)
H31_4 H 0.056132 0.086426 0.536106
C52_4 C 0.2106(8) 0.1022(2) 0.50971(13)
C53_4 C 0.2726(10) 0.1336(2) 0.49699(16)
H32_4 H 0.344264 0.129921 0.483984
C54_4 C 0.2274(10) 0.1710(2) 0.50373(16)
H33_4 H 0.267770 0.192010 0.495138
H34_4 H 0.043685 0.329516 0.563012
H35_4 H 0.032882 0.388645 0.543740
C61_4 C 0.0846(8) 0.2119(2) 0.72695(15)
C62_4 C 0.2770(7) 0.0621(2) 0.50443(15)
O11_4 O 0.3075(7) 0.16635(18) 0.61504(10)
O12_4 O 0.0653(9) 0.24154(16) 0.51551(16)
O15_4 O 0.1910(8) 0.21185(19) 0.74284(13)
O20_4 O 0.1433(7) 0.28129(19) 0.81782(12)
C64_4 C 0.0172(13) 0.2837(4) 0.8267(2)
C66_4 C 0.0946(17) 0.3128(4) 0.8694(3)
H42_4 H 0.167628 0.331058 0.862597
H43_4 H 0.038055 0.324279 0.883112
H44_4 H 0.150531 0.290752 0.875379
O21_4 O 0.9425(7) 0.22121(18) 0.73263(12)
O22_4 O 0.4825(6) 0.21623(11) 0.7676(2)
O25_4 O 0.6294(6) 0.19166(15) 0.73774(11)
O27_4 O 0.8057(8) 0.20730(18) 0.78769(13)
O29_4 O 0.0650(8) 0.20770(17) 0.79481(13)
Eu4_4 Eu 0.500000 0.500000 0.52994(2)
Eu8_6 Eu 0.000000 0.500000 0.50491(2)
C37_4 C 0.9687(8) 0.25620(17) 0.56585(13)
H24_4 H 0.918658 0.270923 0.553625
C38_4 C 0.9581(7) 0.26606(19) 0.59103(14)
C42_4 C 0.8663(8) 0.29960(18) 0.60064(14)
C47_4 C 0.9896(8) 0.2004(2) 0.68339(14)
H28_4 H 0.886887 0.200917 0.689254
H29_4 H 0.934292 0.194351 0.647393
H30_4 H 0.985601 0.148165 0.548610
C55_4 C 0.8516(8) 0.33554(18) 0.58432(15)
C56_4 C 0.9621(8) 0.3462(2) 0.56684(15)
C57_4 C 0.9543(8) 0.38118(19) 0.55487(15)
C58_4 C 0.8314(8) 0.4045(2) 0.55945(14)
C59_4 C 0.7166(7) 0.3937(2) 0.57638(14)
H36_4 H 0.629759 0.409408 0.578852
C60_4 C 0.7296(8) 0.3607(2) 0.58937(17)
H37_4 H 0.656379 0.354648 0.601765
C63_4 C 0.8188(9) 0.4426(2) 0.54597(15)
O13_4 O 0.8109(7) 0.30006(14) 0.62141(11)
O18_3 O 0.9443(8) 0.45730(18) 0.53769(13)
O19_3 O 0.6850(8) 0.45770(17) 0.54481(13)
H38_4 H 0.934927 0.272947 0.817584
N2_4 N 0.9809(12) 0.3008(3) 0.84898(19)
C65_4 C 0.8188(16) 0.3035(4) 0.8563(3)
H39_4 H 0.759109 0.284397 0.847508
H40_4 H 0.809783 0.299397 0.874203
H41_4 H 0.779383 0.328481 0.852170
Eu8_7 Eu 1.000000 0.500000 0.50491(2)
C26_5 C 0.0334(7) 0.6437(2) 0.32638(14)
H14_5 H 0.120241 0.659408 0.328852
C27_5 C 0.0204(8) 0.6107(2) 0.33937(17)
H15_5 H 0.093621 0.604648 0.351765
O21_5 O 0.1925(7) 0.52879(18) 0.48263(12)
O27_5 O 0.0557(8) 0.54270(18) 0.53769(13)
C1_5 C 0.6356(8) 0.46116(19) 0.35278(13)
C2_5 C 0.6226(8) 0.45259(18) 0.32751(14)
H1_5 H 0.562748 0.431559 0.322657
C3_5 C 0.6961(9) 0.4744(2) 0.30899(15)
C4_5 C 0.7813(8) 0.50620(17) 0.31585(13)
H2_5 H 0.831342 0.520923 0.303625
C5_5 C 0.7919(7) 0.51606(19) 0.34103(14)
C6_5 C 0.7180(8) 0.49328(18) 0.35918(14)
H3_5 H 0.725033 0.500192 0.376104
C7_5 C 0.5491(9) 0.4389(2) 0.37129(15)
C8_5 C 0.6712(10) 0.4659(2) 0.28084(16)
C9_5 C 0.8837(8) 0.54960(18) 0.35064(14)
C10_5 C 0.5797(8) 0.44347(18) 0.39907(14)
C11_5 C 0.4557(9) 0.4450(2) 0.41552(16)
H4_5 H 0.353865 0.442507 0.409485
C12_5 C 0.4824(8) 0.4503(2) 0.44165(16)
H5_5 H 0.398492 0.450965 0.452848
C13_5 C 0.6350(8) 0.45441(18) 0.45051(14)
C14_5 C 0.7604(8) 0.4504(2) 0.43339(14)
H6_5 H 0.863113 0.450917 0.439254
C15_5 C 0.7317(8) 0.4459(2) 0.40854(14)
H7_5 H 0.815708 0.444351 0.397393
C16_5 C 0.6279(9) 0.4260(2) 0.27331(14)
C17_5 C 0.6925(9) 0.3946(2) 0.28561(16)
H8_5 H 0.764399 0.398165 0.298610
C18_5 C 0.6485(8) 0.3575(2) 0.27828(15)
H9_5 H 0.693868 0.336426 0.286106
C19_5 C 0.5394(8) 0.3522(2) 0.25971(13)
C20_5 C 0.4774(10) 0.3836(2) 0.24699(16)
H10_5 H 0.405736 0.379921 0.233984
C21_5 C 0.5226(10) 0.4210(2) 0.25373(16)
H11_5 H 0.482230 0.442010 0.245138
C22_5 C 0.8984(8) 0.58554(18) 0.33432(15)
C23_5 C 0.7879(8) 0.5962(2) 0.31684(15)
H12_5 H 0.706315 0.579516 0.313012
C24_5 C 0.7957(8) 0.63118(19) 0.30487(15)
H13_5 H 0.717118 0.638645 0.293740
C25_5 C 0.9186(8) 0.6545(2) 0.30945(14)
C28_5 C 0.6654(8) 0.4619(2) 0.47695(15)
C29_5 C 0.4730(7) 0.3121(2) 0.25443(15)
C30_5 C 0.9312(9) 0.6926(2) 0.29597(15)
O1_5 O 0.4425(7) 0.41635(18) 0.36504(10)
O2_5 O 0.6847(9) 0.49154(16) 0.26551(16)
O3_5 O 0.9391(7) 0.55006(14) 0.37141(11)
O4_5 O 0.8075(7) 0.47121(18) 0.48263(12)
O5_5 O 0.5590(8) 0.46185(19) 0.49284(13)
O6_4 O 0.5175(6) 0.28377(11) 0.2676(2)
O7_4 O 0.3706(6) 0.30834(15) 0.23774(11)
O10_5 O 0.6067(7) 0.53129(19) 0.56782(12)
C31_5 C 0.7328(13) 0.5337(4) 0.5767(2)
H16_5 H 0.815073 0.522947 0.567584
N1_5 N 0.7691(12) 0.5508(3) 0.59898(19)
C32_5 C 0.9312(16) 0.5535(4) 0.6063(3)
H17_5 H 0.990891 0.534397 0.597508
H18_5 H 0.940217 0.549397 0.624203
H19_5 H 0.970617 0.578481 0.602170
C33_5 C 0.6554(17) 0.5628(4) 0.6194(3)
H20_5 H 0.582372 0.581058 0.612597
H21_5 H 0.711945 0.574279 0.633112
H22_5 H 0.599469 0.540752 0.625379
C34_5 C 0.3644(8) 0.53884(19) 0.35278(13)
C35_5 C 0.3774(8) 0.54741(18) 0.32751(14)
H23_5 H 0.437252 0.568441 0.322657
C36_5 C 0.3039(9) 0.5256(2) 0.30899(15)
C37_5 C 0.2187(8) 0.49380(17) 0.31585(13)
H24_5 H 0.168658 0.479077 0.303625
C38_5 C 0.2081(7) 0.48394(19) 0.34103(14)
C39_5 C 0.2820(8) 0.50672(18) 0.35918(14)
H25_5 H 0.274967 0.499808 0.376104
C40_5 C 0.4509(9) 0.5611(2) 0.37129(15)
C41_5 C 0.3288(10) 0.5341(2) 0.28084(16)
C42_5 C 0.1163(8) 0.45040(18) 0.35064(14)
C43_5 C 0.4203(8) 0.55653(18) 0.39907(14)
C44_5 C 0.5443(9) 0.5550(2) 0.41552(16)
H26_5 H 0.646135 0.557493 0.409485
C45_5 C 0.5176(8) 0.5497(2) 0.44165(16)
H27_5 H 0.601508 0.549035 0.452848
C46_5 C 0.3650(8) 0.54559(18) 0.45051(14)
C47_5 C 0.2396(8) 0.5496(2) 0.43339(14)
H28_5 H 0.136887 0.549083 0.439254
C48_5 C 0.2683(8) 0.5541(2) 0.40854(14)
H29_5 H 0.184292 0.555649 0.397393
C49_5 C 0.3721(9) 0.5740(2) 0.27331(14)
C50_5 C 0.3075(9) 0.6054(2) 0.28561(16)
H30_5 H 0.235601 0.601835 0.298610
C51_5 C 0.3515(8) 0.6425(2) 0.27828(15)
H31_5 H 0.306132 0.663574 0.286106
C52_5 C 0.4606(8) 0.6478(2) 0.25971(13)
C53_5 C 0.5226(10) 0.6164(2) 0.24699(16)
H32_5 H 0.594264 0.620079 0.233984
C54_5 C 0.4774(10) 0.5790(2) 0.25373(16)
H33_5 H 0.517770 0.557990 0.245138
C55_5 C 0.1016(8) 0.41446(18) 0.33432(15)
C56_5 C 0.2121(8) 0.4038(2) 0.31684(15)
H34_5 H 0.293685 0.420484 0.313012
C57_5 C 0.2043(8) 0.36882(19) 0.30487(15)
H35_5 H 0.282882 0.361355 0.293740
C58_5 C 0.0814(8) 0.3455(2) 0.30945(14)
C61_5 C 0.3346(8) 0.5381(2) 0.47695(15)
C62_5 C 0.5270(7) 0.6879(2) 0.25443(15)
C63_5 C 0.0688(9) 0.3074(2) 0.29597(15)
O11_5 O 0.5575(7) 0.58365(18) 0.36504(10)
O12_5 O 0.3153(9) 0.50846(16) 0.26551(16)
O13_5 O 0.0609(7) 0.44994(14) 0.37141(11)
O15_5 O 0.4410(8) 0.53815(19) 0.49284(13)
O18_4 O 0.1943(8) 0.29270(18) 0.28769(13)
O20_5 O 0.3933(7) 0.46871(19) 0.56782(12)
C64_5 C 0.2672(13) 0.4663(4) 0.5767(2)
H38_5 H 0.184927 0.477053 0.567584
N2_5 N 0.2309(12) 0.4492(3) 0.59898(19)
C65_5 C 0.0688(16) 0.4465(4) 0.6063(3)
H39_5 H 0.009109 0.465603 0.597508
H40_5 H 0.059783 0.450603 0.624203
H41_5 H 0.029383 0.421519 0.602170
C66_5 C 0.3446(17) 0.4372(4) 0.6194(3)
H42_5 H 0.417628 0.418942 0.612597
H43_5 H 0.288055 0.425721 0.633112
H44_5 H 0.400531 0.459248 0.625379
O22_5 O 0.7325(6) 0.53377(11) 0.5176(2)
O25_5 O 0.8794(6) 0.55834(15) 0.48774(11)
O29_5 O 0.3150(8) 0.54230(17) 0.54481(13)
C59_5 C 0.9666(7) 0.3563(2) 0.32638(14)
H36_5 H 0.879759 0.340592 0.328852
C60_5 C 0.9796(8) 0.3893(2) 0.33937(17)
H37_5 H 0.906379 0.395352 0.351765
O19_4 O 0.9350(8) 0.29230(17) 0.29481(13)
C4_6 C 0.0313(8) 0.74380(17) 0.56585(13)
H2_6 H 0.081342 0.729077 0.553625
C5_6 C 0.0419(7) 0.73394(19) 0.59103(14)
C9_6 C 0.1337(8) 0.70040(18) 0.60064(14)
C14_6 C 0.0104(8) 0.7996(2) 0.68339(14)
H6_6 H 0.113113 0.799083 0.689254
H7_6 H 0.065708 0.805649 0.647393
H8_6 H 0.014399 0.851835 0.548610
C22_6 C 0.1484(8) 0.66446(18) 0.58432(15)
C23_6 C 0.0379(8) 0.6538(2) 0.56684(15)
C24_6 C 0.0457(8) 0.61882(19) 0.55487(15)
C25_6 C 0.1686(8) 0.5955(2) 0.55945(14)
C26_6 C 0.2834(7) 0.6063(2) 0.57638(14)
H14_6 H 0.370241 0.590592 0.578852
C27_6 C 0.2704(8) 0.6393(2) 0.58937(17)
H15_6 H 0.343621 0.645352 0.601765
C30_6 C 0.1812(9) 0.5574(2) 0.54597(15)
O3_6 O 0.1891(7) 0.69994(14) 0.62141(11)
O4_6 O 0.0575(7) 0.77879(18) 0.73263(12)
H16_6 H 0.065073 0.727053 0.817584
N1_6 N 0.0191(12) 0.6992(3) 0.84898(19)
C32_6 C 0.1812(16) 0.6965(4) 0.8563(3)
H17_6 H 0.240891 0.715603 0.847508
H18_6 H 0.190217 0.700603 0.874203
H19_6 H 0.220617 0.671519 0.852170
O21_6 O 0.4425(7) 0.72121(18) 0.73263(12)
O24_4 O 0.5175(6) 0.78377(11) 0.7676(2)
O26_4 O 0.3706(6) 0.80834(15) 0.73774(11)
O28_4 O 0.1943(8) 0.79270(18) 0.78769(13)
C1_6 C 0.8856(8) 0.78884(19) 0.60278(13)
C2_6 C 0.8726(8) 0.79741(18) 0.57751(14)
H1_6 H 0.812748 0.818441 0.572657
C3_6 C 0.9461(9) 0.7756(2) 0.55899(15)
C6_6 C 0.9680(8) 0.75672(18) 0.60918(14)
H3_6 H 0.975033 0.749808 0.626104
C7_6 C 0.7991(9) 0.8111(2) 0.62129(15)
C8_6 C 0.9212(10) 0.7841(2) 0.53084(16)
C10_6 C 0.8297(8) 0.80653(18) 0.64907(14)
C11_6 C 0.7057(9) 0.8050(2) 0.66552(16)
H4_6 H 0.603865 0.807493 0.659485
C12_6 C 0.7324(8) 0.7997(2) 0.69165(16)
H5_6 H 0.648492 0.799035 0.702848
C13_6 C 0.8850(8) 0.79559(18) 0.70051(14)
C15_6 C 0.9817(8) 0.8041(2) 0.65854(14)
C16_6 C 0.8779(9) 0.8240(2) 0.52331(14)
C17_6 C 0.9425(9) 0.8554(2) 0.53561(16)
C18_6 C 0.8985(8) 0.8925(2) 0.52828(15)
H9_6 H 0.943868 0.913574 0.536106
C19_6 C 0.7894(8) 0.8978(2) 0.50971(13)
C20_6 C 0.7274(10) 0.8664(2) 0.49699(16)
H10_6 H 0.655736 0.870079 0.483984
C21_6 C 0.7726(10) 0.8290(2) 0.50373(16)
H11_6 H 0.732230 0.807990 0.495138
H12_6 H 0.956315 0.670484 0.563012
H13_6 H 0.967118 0.611355 0.543740
C28_6 C 0.9154(8) 0.7881(2) 0.72695(15)
C29_6 C 0.7230(7) 0.9379(2) 0.50443(15)
O1_6 O 0.6925(7) 0.83365(18) 0.61504(10)
O2_6 O 0.9347(9) 0.75846(16) 0.51551(16)
O5_6 O 0.8090(8) 0.78815(19) 0.74284(13)
O10_6 O 0.8567(7) 0.71871(19) 0.81782(12)
C31_6 C 0.9828(13) 0.7163(4) 0.8267(2)
C33_6 C 0.9054(17) 0.6872(4) 0.8694(3)
H20_6 H 0.832372 0.668942 0.862597
H21_6 H 0.961945 0.675721 0.883112
H22_6 H 0.849469 0.709248 0.875379
C34_6 C 0.6144(8) 0.71116(19) 0.60278(13)
C35_6 C 0.6274(8) 0.70259(18) 0.57751(14)
H23_6 H 0.687252 0.681559 0.572657
C36_6 C 0.5539(9) 0.7244(2) 0.55899(15)
C37_6 C 0.4687(8) 0.75620(17) 0.56585(13)
H24_6 H 0.418658 0.770923 0.553625
C38_6 C 0.4581(7) 0.76606(19) 0.59103(14)
C39_6 C 0.5320(8) 0.74328(18) 0.60918(14)
H25_6 H 0.524967 0.750192 0.626104
C40_6 C 0.7009(9) 0.6889(2) 0.62129(15)
C41_6 C 0.5788(10) 0.7159(2) 0.53084(16)
C42_6 C 0.3663(8) 0.79960(18) 0.60064(14)
C43_6 C 0.6703(8) 0.69347(18) 0.64907(14)
C44_6 C 0.7943(9) 0.6950(2) 0.66552(16)
H26_6 H 0.896135 0.692507 0.659485
C45_6 C 0.7676(8) 0.7003(2) 0.69165(16)
H27_6 H 0.851508 0.700965 0.702848
C46_6 C 0.6150(8) 0.70441(18) 0.70051(14)
C47_6 C 0.4896(8) 0.7004(2) 0.68339(14)
H28_6 H 0.386887 0.700917 0.689254
C48_6 C 0.5183(8) 0.6959(2) 0.65854(14)
H29_6 H 0.434292 0.694351 0.647393
C49_6 C 0.6221(9) 0.6760(2) 0.52331(14)
C50_6 C 0.5575(9) 0.6446(2) 0.53561(16)
H30_6 H 0.485601 0.648165 0.548610
C51_6 C 0.6015(8) 0.6075(2) 0.52828(15)
H31_6 H 0.556132 0.586426 0.536106
C52_6 C 0.7106(8) 0.6022(2) 0.50971(13)
C53_6 C 0.7726(10) 0.6336(2) 0.49699(16)
H32_6 H 0.844264 0.629921 0.483984
C54_6 C 0.7274(10) 0.6710(2) 0.50373(16)
H33_6 H 0.767770 0.692010 0.495138
C55_6 C 0.3516(8) 0.83554(18) 0.58432(15)
C56_6 C 0.4621(8) 0.8462(2) 0.56684(15)
H34_6 H 0.543685 0.829516 0.563012
C57_6 C 0.4543(8) 0.88118(19) 0.55487(15)
H35_6 H 0.532882 0.888645 0.543740
C58_6 C 0.3314(8) 0.9045(2) 0.55945(14)
C59_6 C 0.2166(7) 0.8937(2) 0.57638(14)
H36_6 H 0.129759 0.909408 0.578852
C60_6 C 0.2296(8) 0.8607(2) 0.58937(17)
H37_6 H 0.156379 0.854648 0.601765
C61_6 C 0.5846(8) 0.7119(2) 0.72695(15)
C62_6 C 0.7770(7) 0.5621(2) 0.50443(15)
C63_6 C 0.3188(9) 0.9426(2) 0.54597(15)
O11_6 O 0.8075(7) 0.66635(18) 0.61504(10)
O12_6 O 0.5653(9) 0.74154(16) 0.51551(16)
O13_6 O 0.3109(7) 0.80006(14) 0.62141(11)
O15_6 O 0.6910(8) 0.71185(19) 0.74284(13)
O20_6 O 0.6433(7) 0.78129(19) 0.81782(12)
C64_6 C 0.5172(13) 0.7837(4) 0.8267(2)
H38_6 H 0.434927 0.772947 0.817584
N2_6 N 0.4809(12) 0.8008(3) 0.84898(19)
C65_6 C 0.3188(16) 0.8035(4) 0.8563(3)
H39_6 H 0.259109 0.784397 0.847508
H40_6 H 0.309783 0.799397 0.874203
H41_6 H 0.279383 0.828481 0.852170
C66_6 C 0.5946(17) 0.8128(4) 0.8694(3)
H42_6 H 0.667628 0.831058 0.862597
H43_6 H 0.538055 0.824279 0.883112
H44_6 H 0.650531 0.790752 0.875379
O30_4 O 0.9350(8) 0.79230(17) 0.79481(13)
O27_6 O 0.0557(8) 0.04270(18) 0.03769(13)
C26_7 C 0.0334(7) 0.1437(2) 0.82638(14)
H14_7 H 0.120241 0.159408 0.828852
C27_7 C 0.0204(8) 0.1107(2) 0.83937(17)
H15_7 H 0.093621 0.104648 0.851765
O21_7 O 0.1925(7) 0.02879(18) 0.98263(12)
O10_7 O 0.6067(7) 0.03129(19) 0.06782(12)
C31_7 C 0.7328(13) 0.0337(4) 0.0767(2)
H16_7 H 0.815073 0.022947 0.067584
N1_7 N 0.7691(12) 0.0508(3) 0.09898(19)
C32_7 C 0.9312(16) 0.0535(4) 0.1063(3)
H17_7 H 0.990891 0.034397 0.097508
H18_7 H 0.940217 0.049397 0.124203
H19_7 H 0.970617 0.078481 0.102170
C33_7 C 0.6554(17) 0.0628(4) 0.1194(3)
H20_7 H 0.582372 0.081058 0.112597
H21_7 H 0.711945 0.074279 0.133112
H22_7 H 0.599469 0.040752 0.125379
O22_6 O 0.7325(6) 0.03377(11) 0.0176(2)
O29_6 O 0.3150(8) 0.04230(17) 0.04481(13)
C4_7 C 0.7813(8) 0.00620(17) 0.81585(13)
H2_7 H 0.831342 0.020923 0.803625
C5_7 C 0.7919(7) 0.01606(19) 0.84103(14)
H3_7 H 0.725033 0.000192 0.876104
C9_7 C 0.8837(8) 0.04960(18) 0.85064(14)
C22_7 C 0.8984(8) 0.08554(18) 0.83432(15)
C23_7 C 0.7879(8) 0.0962(2) 0.81684(15)
H12_7 H 0.706315 0.079516 0.813012
C24_7 C 0.7957(8) 0.13118(19) 0.80487(15)
H13_7 H 0.717118 0.138645 0.793740
C25_7 C 0.9186(8) 0.1545(2) 0.80945(14)
C30_7 C 0.9312(9) 0.1926(2) 0.79597(15)
O3_7 O 0.9391(7) 0.05006(14) 0.87141(11)
C34_7 C 0.3644(8) 0.03884(19) 0.85278(13)
C35_7 C 0.3774(8) 0.04741(18) 0.82751(14)
H23_7 H 0.437252 0.068441 0.822657
C36_7 C 0.3039(9) 0.0256(2) 0.80899(15)
C39_7 C 0.2820(8) 0.00672(18) 0.85918(14)
C40_7 C 0.4509(9) 0.0611(2) 0.87129(15)
C41_7 C 0.3288(10) 0.0341(2) 0.78084(16)
C43_7 C 0.4203(8) 0.05653(18) 0.89907(14)
C44_7 C 0.5443(9) 0.0550(2) 0.91552(16)
H26_7 H 0.646135 0.057493 0.909485
C45_7 C 0.5176(8) 0.0497(2) 0.94165(16)
H27_7 H 0.601508 0.049035 0.952848
C46_7 C 0.3650(8) 0.04559(18) 0.95051(14)
C47_7 C 0.2396(8) 0.0496(2) 0.93339(14)
H28_7 H 0.136887 0.049083 0.939254
C48_7 C 0.2683(8) 0.0541(2) 0.90854(14)
H29_7 H 0.184292 0.055649 0.897393
C49_7 C 0.3721(9) 0.0740(2) 0.77331(14)
C50_7 C 0.3075(9) 0.1054(2) 0.78561(16)
H30_7 H 0.235601 0.101835 0.798610
C51_7 C 0.3515(8) 0.1425(2) 0.77828(15)
H31_7 H 0.306132 0.163574 0.786106
C52_7 C 0.4606(8) 0.1478(2) 0.75971(13)
C53_7 C 0.5226(10) 0.1164(2) 0.74699(16)
H32_7 H 0.594264 0.120079 0.733984
C54_7 C 0.4774(10) 0.0790(2) 0.75373(16)
H33_7 H 0.517770 0.057990 0.745138
C61_7 C 0.3346(8) 0.0381(2) 0.97695(15)
C62_7 C 0.5270(7) 0.1879(2) 0.75443(15)
O11_7 O 0.5575(7) 0.08365(18) 0.86504(10)
O12_7 O 0.3153(9) 0.00846(16) 0.76551(16)
O15_7 O 0.4410(8) 0.03815(19) 0.99284(13)
O25_6 O 0.8794(6) 0.05834(15) 0.98774(11)
O20_7 O 0.3933(7) 0.96871(19) 0.06782(12)
C64_7 C 0.2672(13) 0.9663(4) 0.0767(2)
H38_7 H 0.184927 0.977053 0.067584
N2_7 N 0.2309(12) 0.9492(3) 0.09898(19)
C65_7 C 0.0688(16) 0.9465(4) 0.1063(3)
H39_7 H 0.009109 0.965603 0.097508
H40_7 H 0.059783 0.950603 0.124203
H41_7 H 0.029383 0.921519 0.102170
C66_7 C 0.3446(17) 0.9372(4) 0.1194(3)
H42_7 H 0.417628 0.918942 0.112597
H43_7 H 0.288055 0.925721 0.133112
H44_7 H 0.400531 0.959248 0.125379
C1_7 C 0.6356(8) 0.96116(19) 0.85278(13)
C2_7 C 0.6226(8) 0.95259(18) 0.82751(14)
H1_7 H 0.562748 0.931559 0.822657
C3_7 C 0.6961(9) 0.9744(2) 0.80899(15)
C6_7 C 0.7180(8) 0.99328(18) 0.85918(14)
C7_7 C 0.5491(9) 0.9389(2) 0.87129(15)
C8_7 C 0.6712(10) 0.9659(2) 0.78084(16)
C10_7 C 0.5797(8) 0.94347(18) 0.89907(14)
C11_7 C 0.4557(9) 0.9450(2) 0.91552(16)
H4_7 H 0.353865 0.942507 0.909485
C12_7 C 0.4824(8) 0.9503(2) 0.94165(16)
H5_7 H 0.398492 0.950965 0.952848
C13_7 C 0.6350(8) 0.95441(18) 0.95051(14)
C14_7 C 0.7604(8) 0.9504(2) 0.93339(14)
H6_7 H 0.863113 0.950917 0.939254
C15_7 C 0.7317(8) 0.9459(2) 0.90854(14)
H7_7 H 0.815708 0.944351 0.897393
C16_7 C 0.6279(9) 0.9260(2) 0.77331(14)
C17_7 C 0.6925(9) 0.8946(2) 0.78561(16)
H8_7 H 0.764399 0.898165 0.798610
C18_7 C 0.6485(8) 0.8575(2) 0.77828(15)
H9_7 H 0.693868 0.836426 0.786106
C19_7 C 0.5394(8) 0.8522(2) 0.75971(13)
C20_7 C 0.4774(10) 0.8836(2) 0.74699(16)
H10_7 H 0.405736 0.879921 0.733984
C21_7 C 0.5226(10) 0.9210(2) 0.75373(16)
H11_7 H 0.482230 0.942010 0.745138
C28_7 C 0.6654(8) 0.9619(2) 0.97695(15)
C29_7 C 0.4730(7) 0.8121(2) 0.75443(15)
O1_7 O 0.4425(7) 0.91635(18) 0.86504(10)
O2_7 O 0.6847(9) 0.99154(16) 0.76551(16)
O4_7 O 0.8075(7) 0.97121(18) 0.98263(12)
O5_7 O 0.5590(8) 0.96185(19) 0.99284(13)
C37_7 C 0.2187(8) 0.99380(17) 0.81585(13)
H24_7 H 0.168658 0.979077 0.803625
C38_7 C 0.2081(7) 0.98394(19) 0.84103(14)
H25_7 H 0.274967 0.999808 0.876104
C42_7 C 0.1163(8) 0.95040(18) 0.85064(14)
C55_7 C 0.1016(8) 0.91446(18) 0.83432(15)
C56_7 C 0.2121(8) 0.9038(2) 0.81684(15)
H34_7 H 0.293685 0.920484 0.813012
C57_7 C 0.2043(8) 0.86882(19) 0.80487(15)
H35_7 H 0.282882 0.861355 0.793740
C58_7 C 0.0814(8) 0.8455(2) 0.80945(14)
C63_7 C 0.0688(9) 0.8074(2) 0.79597(15)
O13_7 O 0.0609(7) 0.94994(14) 0.87141(11)
C59_7 C 0.9666(7) 0.8563(2) 0.82638(14)
H36_7 H 0.879759 0.840592 0.828852
C60_7 C 0.9796(8) 0.8893(2) 0.83937(17)
H37_7 H 0.906379 0.895352 0.851765
C4_8 C 0.0313(8) 0.24380(17) 0.06585(13)
H2_8 H 0.081342 0.229077 0.053625
C5_8 C 0.0419(7) 0.23394(19) 0.09103(14)
C9_8 C 0.1337(8) 0.20040(18) 0.10064(14)
C14_8 C 0.0104(8) 0.2996(2) 0.18339(14)
H6_8 H 0.113113 0.299083 0.189254
H7_8 H 0.065708 0.305649 0.147393
H8_8 H 0.014399 0.351835 0.048610
C22_8 C 0.1484(8) 0.16446(18) 0.08432(15)
C23_8 C 0.0379(8) 0.1538(2) 0.06684(15)
C24_8 C 0.0457(8) 0.11882(19) 0.05487(15)
C25_8 C 0.1686(8) 0.0955(2) 0.05945(14)
C26_8 C 0.2834(7) 0.1063(2) 0.07638(14)
H14_8 H 0.370241 0.090592 0.078852
C27_8 C 0.2704(8) 0.1393(2) 0.08937(17)
H15_8 H 0.343621 0.145352 0.101765
C30_8 C 0.1812(9) 0.0574(2) 0.04597(15)
O3_8 O 0.1891(7) 0.19994(14) 0.12141(11)
O4_8 O 0.0575(7) 0.27879(18) 0.23263(12)
H16_8 H 0.065073 0.227053 0.317584
N1_8 N 0.0191(12) 0.1992(3) 0.34898(19)
C32_8 C 0.1812(16) 0.1965(4) 0.3563(3)
H17_8 H 0.240891 0.215603 0.347508
H18_8 H 0.190217 0.200603 0.374203
H19_8 H 0.220617 0.171519 0.352170
O21_8 O 0.4425(7) 0.22121(18) 0.23263(12)
C1_8 C 0.8856(8) 0.28884(19) 0.10278(13)
C2_8 C 0.8726(8) 0.29741(18) 0.07751(14)
H1_8 H 0.812748 0.318441 0.072657
C3_8 C 0.9461(9) 0.2756(2) 0.05899(15)
C6_8 C 0.9680(8) 0.25672(18) 0.10918(14)
H3_8 H 0.975033 0.249808 0.126104
C7_8 C 0.7991(9) 0.3111(2) 0.12129(15)
C8_8 C 0.9212(10) 0.2841(2) 0.03084(16)
C10_8 C 0.8297(8) 0.30653(18) 0.14907(14)
C11_8 C 0.7057(9) 0.3050(2) 0.16552(16)
H4_8 H 0.603865 0.307493 0.159485
C12_8 C 0.7324(8) 0.2997(2) 0.19165(16)
H5_8 H 0.648492 0.299035 0.202848
C13_8 C 0.8850(8) 0.29559(18) 0.20051(14)
C15_8 C 0.9817(8) 0.3041(2) 0.15854(14)
C16_8 C 0.8779(9) 0.3240(2) 0.02331(14)
C17_8 C 0.9425(9) 0.3554(2) 0.03561(16)
C18_8 C 0.8985(8) 0.3925(2) 0.02828(15)
H9_8 H 0.943868 0.413574 0.036106
C19_8 C 0.7894(8) 0.3978(2) 0.00971(13)
C21_8 C 0.7726(10) 0.3290(2) 0.00373(16)
H12_8 H 0.956315 0.170484 0.063012
H13_8 H 0.967118 0.111355 0.043740
C28_8 C 0.9154(8) 0.2881(2) 0.22695(15)
C29_8 C 0.7230(7) 0.4379(2) 0.00443(15)
O1_8 O 0.6925(7) 0.33365(18) 0.11504(10)
O2_8 O 0.9347(9) 0.25846(16) 0.01551(16)
O5_8 O 0.8090(8) 0.28815(19) 0.24284(13)
O10_8 O 0.8567(7) 0.21871(19) 0.31782(12)
C31_8 C 0.9828(13) 0.2163(4) 0.3267(2)
C33_8 C 0.9054(17) 0.1872(4) 0.3694(3)
H20_8 H 0.832372 0.168942 0.362597
H21_8 H 0.961945 0.175721 0.383112
H22_8 H 0.849469 0.209248 0.375379
C34_8 C 0.6144(8) 0.21116(19) 0.10278(13)
C35_8 C 0.6274(8) 0.20259(18) 0.07751(14)
H23_8 H 0.687252 0.181559 0.072657
C36_8 C 0.5539(9) 0.2244(2) 0.05899(15)
C37_8 C 0.4687(8) 0.25620(17) 0.06585(13)
H24_8 H 0.418658 0.270923 0.053625
C38_8 C 0.4581(7) 0.26606(19) 0.09103(14)
C39_8 C 0.5320(8) 0.24328(18) 0.10918(14)
H25_8 H 0.524967 0.250192 0.126104
C40_8 C 0.7009(9) 0.1889(2) 0.12129(15)
C41_8 C 0.5788(10) 0.2159(2) 0.03084(16)
C42_8 C 0.3663(8) 0.29960(18) 0.10064(14)
C43_8 C 0.6703(8) 0.19347(18) 0.14907(14)
C44_8 C 0.7943(9) 0.1950(2) 0.16552(16)
H26_8 H 0.896135 0.192507 0.159485
C45_8 C 0.7676(8) 0.2003(2) 0.19165(16)
H27_8 H 0.851508 0.200965 0.202848
C46_8 C 0.6150(8) 0.20441(18) 0.20051(14)
C47_8 C 0.4896(8) 0.2004(2) 0.18339(14)
H28_8 H 0.386887 0.200917 0.189254
C48_8 C 0.5183(8) 0.1959(2) 0.15854(14)
H29_8 H 0.434292 0.194351 0.147393
C49_8 C 0.6221(9) 0.1760(2) 0.02331(14)
C50_8 C 0.5575(9) 0.1446(2) 0.03561(16)
H30_8 H 0.485601 0.148165 0.048610
C51_8 C 0.6015(8) 0.1075(2) 0.02828(15)
H31_8 H 0.556132 0.086426 0.036106
C52_8 C 0.7106(8) 0.1022(2) 0.00971(13)
C54_8 C 0.7274(10) 0.1710(2) 0.00373(16)
C55_8 C 0.3516(8) 0.33554(18) 0.08432(15)
C56_8 C 0.4621(8) 0.3462(2) 0.06684(15)
H34_8 H 0.543685 0.329516 0.063012
C57_8 C 0.4543(8) 0.38118(19) 0.05487(15)
H35_8 H 0.532882 0.388645 0.043740
C58_8 C 0.3314(8) 0.4045(2) 0.05945(14)
C59_8 C 0.2166(7) 0.3937(2) 0.07638(14)
H36_8 H 0.129759 0.409408 0.078852
C60_8 C 0.2296(8) 0.3607(2) 0.08937(17)
H37_8 H 0.156379 0.354648 0.101765
C61_8 C 0.5846(8) 0.2119(2) 0.22695(15)
C62_8 C 0.7770(7) 0.0621(2) 0.00443(15)
C63_8 C 0.3188(9) 0.4426(2) 0.04597(15)
O11_8 O 0.8075(7) 0.16635(18) 0.11504(10)
O12_8 O 0.5653(9) 0.24154(16) 0.01551(16)
O13_8 O 0.3109(7) 0.30006(14) 0.12141(11)
O15_8 O 0.6910(8) 0.21185(19) 0.24284(13)
O20_8 O 0.6433(7) 0.28129(19) 0.31782(12)
C64_8 C 0.5172(13) 0.2837(4) 0.3267(2)
H38_8 H 0.434927 0.272947 0.317584
N2_8 N 0.4809(12) 0.3008(3) 0.34898(19)
C65_8 C 0.3188(16) 0.3035(4) 0.3563(3)
H39_8 H 0.259109 0.284397 0.347508
H40_8 H 0.309783 0.299397 0.374203
H41_8 H 0.279383 0.328481 0.352170
C66_8 C 0.5946(17) 0.3128(4) 0.3694(3)
H42_8 H 0.667628 0.331058 0.362597
H43_8 H 0.538055 0.324279 0.383112
H44_8 H 0.650531 0.290752 0.375379
C20_8 C 0.7274(10) 0.3664(2) 0.99699(16)
H10_8 H 0.655736 0.370079 0.983984
H11_8 H 0.732230 0.307990 0.995138
C53_8 C 0.7726(10) 0.1336(2) 0.99699(16)
H32_8 H 0.844264 0.129921 0.983984
H33_8 H 0.767770 0.192010 0.995138
loop_
_geom_bond_atom_site_label_1
_geom_bond_atom_site_label_2
_geom_bond_site_symmetry_1
_geom_bond_site_symmetry_2
O10 Eu1 1_555 1_555
C31 O10 1_555 1_555
H16 C31 1_555 1_555
N1 C31 1_555 1_555
C32 N1 1_555 1_555
H17 C32 1_555 1_555
H18 C32 1_555 1_555
H19 C32 1_555 1_555
C33 N1 1_555 1_555
H20 C33 1_555 1_555
H21 C33 1_555 1_555
H22 C33 1_555 1_555
O22 Eu1 1_555 1_555
O24 Eu2 1_555 1_555
O27 Eu2 1_555 1_555
O28 Eu2 1_555 1_555
O30 Eu1 1_555 1_555
Eu2 O22 1_555 1_555
C1 C2 1_555 1_555
C2 H1 1_555 1_555
C3 C2 1_555 1_555
C4 C3 1_555 1_555
H2 C4 1_555 1_555
C5 C4 1_555 1_555
C6 C1 1_555 1_555
H3 C6 1_555 1_555
C7 C1 1_555 1_555
C8 C3 1_555 1_555
C9 C5 1_555 1_555
C10 C7 1_555 1_555
C14 C13 1_555 1_555
H6 C14 1_555 1_555
C15 C10 1_555 1_555
H7 C15 1_555 1_555
C16 C8 1_555 1_555
C17 C16 1_555 1_555
H8 C17 1_555 1_555
C18 C17 1_555 1_555
H9 C18 1_555 1_555
C19 C18 1_555 1_555
C21 C16 1_555 1_555
C22 C9 1_555 1_555
C23 C22 1_555 1_555
H12 C23 1_555 1_555
C24 C23 1_555 1_555
H13 C24 1_555 1_555
C25 C24 1_555 1_555
C26 C25 1_555 1_555
H14 C26 1_555 1_555
C27 C22 1_555 1_555
H15 C27 1_555 1_555
C28 C13 1_555 1_555
C30 C25 1_555 1_555
O2 C8 1_555 1_555
O3 C9 1_555 1_555
O4 C28 1_555 1_555
O5 C28 1_555 1_555
O8 C30 1_555 1_555
O9 C30 1_555 1_555
H26 C44 1_555 1_555
C45 C44 1_555 1_555
H27 C45 1_555 1_555
H32 C53 1_555 1_555
O17 C62 1_555 1_555
Eu4 O6 1_555 1_555
Eu6 O9 1_555 1_555
Eu9 O8 1_555 1_555
C5 C6 1_555 1_555
C14 C15 1_555 1_555
C26 C27 1_555 1_555
O17 Eu9 1_555 1_555
O20 Eu1_2 1_555 1_555
C64 O20 1_555 1_555
H38 C64 1_555 1_555
N2 C64 1_555 1_555
C65 N2 1_555 1_555
H39 C65 1_555 1_555
H40 C65 1_555 1_555
H41 C65 1_555 1_555
C66 N2 1_555 1_555
H42 C66 1_555 1_555
H43 C66 1_555 1_555
H44 C66 1_555 1_555
O24 Eu1_2 1_555 1_555
O29 Eu1_2 1_555 1_555
H4 C11 1_555 1_555
C12 C11 1_555 1_555
H5 C12 1_555 1_555
H10 C20 1_555 1_555
O7 C29 1_555 1_555
C34 C35 1_555 1_555
C35 H23 1_555 1_555
C36 C35 1_555 1_555
C37 C36 1_555 1_555
H24 C37 1_555 1_555
C38 C37 1_555 1_555
C39 C34 1_555 1_555
H25 C39 1_555 1_555
C40 C34 1_555 1_555
C41 C36 1_555 1_555
C42 C38 1_555 1_555
C43 C40 1_555 1_555
C47 C46 1_555 1_555
H28 C47 1_555 1_555
C48 C43 1_555 1_555
H29 C48 1_555 1_555
C49 C41 1_555 1_555
C50 C49 1_555 1_555
H30 C50 1_555 1_555
C51 C50 1_555 1_555
H31 C51 1_555 1_555
C52 C51 1_555 1_555
C54 C49 1_555 1_555
C55 C42 1_555 1_555
C56 C55 1_555 1_555
H34 C56 1_555 1_555
C57 C56 1_555 1_555
H35 C57 1_555 1_555
C58 C57 1_555 1_555
C59 C58 1_555 1_555
H36 C59 1_555 1_555
C60 C55 1_555 1_555
H37 C60 1_555 1_555
C61 C46 1_555 1_555
C63 C58 1_555 1_555
O12 C41 1_555 1_555
O13 C42 1_555 1_555
O21 C61 1_555 1_555
O18 C63 1_555 1_555
O19 C63 1_555 1_555
Eu4 O19 1_555 1_555
Eu6 O16 1_555 1_555
O7 Eu8 1_555 1_555
C38 C39 1_555 1_555
C47 C48 1_555 1_555
C59 C60 1_555 1_555
C61 O15 1_555 1_555
O18 Eu8 1_555 1_555
C1_2 C2_2 1_555 1_555
C2_2 H1_2 1_555 1_555
C3_2 C2_2 1_555 1_555
C4_2 C3_2 1_555 1_555
H2_2 C4_2 1_555 1_555
C5_2 C4_2 1_555 1_555
C6_2 C1_2 1_555 1_555
H3_2 C6_2 1_555 1_555
C7_2 C1_2 1_555 1_555
C8_2 C3_2 1_555 1_555
C9_2 C5_2 1_555 1_555
C10_2 C7_2 1_555 1_555
C11_2 C10_2 1_555 1_555
H4_2 C11_2 1_555 1_555
C12_2 C11_2 1_555 1_555
H5_2 C12_2 1_555 1_555
C13_2 C12_2 1_555 1_555
C14_2 C13_2 1_555 1_555
H6_2 C14_2 1_555 1_555
C15_2 C10_2 1_555 1_555
H7_2 C15_2 1_555 1_555
C16_2 C8_2 1_555 1_555
C17_2 C16_2 1_555 1_555
H8_2 C17_2 1_555 1_555
C18_2 C17_2 1_555 1_555
H9_2 C18_2 1_555 1_555
C19_2 C18_2 1_555 1_555
C21_2 C16_2 1_555 1_555
C22_2 C9_2 1_555 1_555
C23_2 C22_2 1_555 1_555
H12_2 C23_2 1_555 1_555
C24_2 C23_2 1_555 1_555
H13_2 C24_2 1_555 1_555
C25_2 C24_2 1_555 1_555
C26_2 C25_2 1_555 1_555
H14_2 C26_2 1_555 1_555
C27_2 C22_2 1_555 1_555
H15_2 C27_2 1_555 1_555
C28_2 C13_2 1_555 1_555
C29_2 C19_2 1_555 1_555
C30_2 C25_2 1_555 1_555
O1_2 C7_2 1_555 1_555
O2_2 C8_2 1_555 1_555
O3_2 C9_2 1_555 1_555
O4_2 C28_2 1_555 1_555
O5_2 C28_2 1_555 1_555
O6_2 C29_2 1_555 1_555
O27 C30_2 1_555 1_555
O29 C30_2 1_555 1_555
O10_2 Eu1_3 1_555 1_555
Eu1_3 O5_2 1_555 1_555
Eu2_2 O4_2 1_555 1_555
C31_2 O10_2 1_555 1_555
H16_2 C31_2 1_555 1_555
N1_2 C31_2 1_555 1_555
C32_2 N1_2 1_555 1_555
H17_2 C32_2 1_555 1_555
H18_2 C32_2 1_555 1_555
H19_2 C32_2 1_555 1_555
C33_2 N1_2 1_555 1_555
H20_2 C33_2 1_555 1_555
H21_2 C33_2 1_555 1_555
H22_2 C33_2 1_555 1_555
C34_2 C35_2 1_555 1_555
C35_2 H23_2 1_555 1_555
C36_2 C35_2 1_555 1_555
C39_2 C34_2 1_555 1_555
H25_2 C39_2 1_555 1_555
C40_2 C34_2 1_555 1_555
C41_2 C36_2 1_555 1_555
C43_2 C40_2 1_555 1_555
C44_2 C43_2 1_555 1_555
H26_2 C44_2 1_555 1_555
C45_2 C44_2 1_555 1_555
H27_2 C45_2 1_555 1_555
C46_2 C45_2 1_555 1_555
C48_2 C43_2 1_555 1_555
C49_2 C41_2 1_555 1_555
C50_2 C49_2 1_555 1_555
C51_2 C50_2 1_555 1_555
H31_2 C51_2 1_555 1_555
C52_2 C51_2 1_555 1_555
C54_2 C49_2 1_555 1_555
C61_2 C46_2 1_555 1_555
C62_2 C52_2 1_555 1_555
O11_2 C40_2 1_555 1_555
O12_2 C41_2 1_555 1_555
O15_2 Eu1_3 1_555 1_555
O22 C62_2 1_555 1_555
O20_2 Eu1_3 1_555 1_555
C64_2 O20_2 1_555 1_555
H42_2 C66_2 1_555 1_555
H43_2 C66_2 1_555 1_555
H44_2 C66_2 1_555 1_555
O21_2 Eu2_2 1_555 1_555
O22_2 Eu1_3 1_555 1_555
O24_2 Eu1_3 1_555 1_555
O25_2 Eu2_2 1_555 1_555
O26_2 Eu2_2 1_555 1_555
O27_2 Eu2_2 1_555 1_555
O28_2 Eu2_2 1_555 1_555
O29_2 Eu1_3 1_555 1_555
O30_2 Eu1_3 1_555 1_555
Eu4_3 O6_2 1_555 1_555
Eu8_3 O6_2 1_555 1_555
C5_2 C6_2 1_555 1_555
C14_2 C15_2 1_555 1_555
C26_2 C27_2 1_555 1_555
Eu2_2 O22_2 1_555 1_555
C61_2 O15_2 1_555 1_555
H10_2 C20_2 1_555 1_555
H32_2 C53_2 1_555 1_555
H24_2 C37_2 1_555 1_555
C38_2 C37_2 1_555 1_555
C42_2 C38_2 1_555 1_555
H28_2 C47_2 1_555 1_555
C55_2 C42_2 1_555 1_555
C56_2 C55_2 1_555 1_555
C57_2 C56_2 1_555 1_555
C58_2 C57_2 1_555 1_555
C59_2 C58_2 1_555 1_555
H36_2 C59_2 1_555 1_555
C60_2 C55_2 1_555 1_555
H37_2 C60_2 1_555 1_555
C63_2 C58_2 1_555 1_555
O13_2 C42_2 1_555 1_555
O18_2 C63_2 1_555 1_555
O19_2 C63_2 1_555 1_555
C65_2 N2_2 1_555 1_555
H39_2 C65_2 1_555 1_555
H40_2 C65_2 1_555 1_555
H41_2 C65_2 1_555 1_555
Eu4_3 O19_2 1_555 1_555
C59_2 C60_2 1_555 1_555
O18_2 Eu8_5 1_555 1_555
H2_3 C4_3 1_555 1_555
C5_3 C4_3 1_555 1_555
C9_3 C5_3 1_555 1_555
C22_3 C9_3 1_555 1_555
C23_3 C22_3 1_555 1_555
H12_3 C23_3 1_555 1_555
C24_3 C23_3 1_555 1_555
H13_3 C24_3 1_555 1_555
C25_3 C24_3 1_555 1_555
C26_3 C25_3 1_555 1_555
H14_3 C26_3 1_555 1_555
C27_3 C22_3 1_555 1_555
H15_3 C27_3 1_555 1_555
C30_3 C25_3 1_555 1_555
O3_3 C9_3 1_555 1_555
O8_2 C30_3 1_555 1_555
O9_2 C30_3 1_555 1_555
O10_3 Eu1_4 1_555 1_555
C31_3 O10_3 1_555 1_555
H16_3 C31_3 1_555 1_555
N1_3 C31_3 1_555 1_555
C32_3 N1_3 1_555 1_555
H17_3 C32_3 1_555 1_555
H18_3 C32_3 1_555 1_555
H19_3 C32_3 1_555 1_555
C33_3 N1_3 1_555 1_555
H20_3 C33_3 1_555 1_555
H21_3 C33_3 1_555 1_555
H22_3 C33_3 1_555 1_555
H26_3 C44_3 1_555 1_555
C45_3 C44_3 1_555 1_555
H27_3 C45_3 1_555 1_555
H32_3 C53_3 1_555 1_555
O17_2 C62_3 1_555 1_555
O21_3 Eu2_3 1_555 1_555
O22_3 Eu1_4 1_555 1_555
O25_3 Eu2_3 1_555 1_555
O27_3 Eu2_3 1_555 1_555
Eu6_2 O9_2 1_555 1_555
Eu9_2 O8_2 1_555 1_555
C26_3 C27_3 1_555 1_555
Eu2_3 O22_3 1_555 1_555
O17_2 Eu9_2 1_555 1_555
C1_3 C2_3 1_555 1_555
C2_3 H1_3 1_555 1_555
C3_3 C2_3 1_555 1_555
C6_3 C1_3 1_555 1_555
C7_3 C1_3 1_555 1_555
C8_3 C3_3 1_555 1_555
C10_3 C7_3 1_555 1_555
C14_3 C13_3 1_555 1_555
H6_3 C14_3 1_555 1_555
C15_3 C10_3 1_555 1_555
H7_3 C15_3 1_555 1_555
C16_3 C8_3 1_555 1_555
C17_3 C16_3 1_555 1_555
H8_3 C17_3 1_555 1_555
C18_3 C17_3 1_555 1_555
H9_3 C18_3 1_555 1_555
C19_3 C18_3 1_555 1_555
C21_3 C16_3 1_555 1_555
C28_3 C13_3 1_555 1_555
O2_3 C8_3 1_555 1_555
O4_3 C28_3 1_555 1_555
O5_3 C28_3 1_555 1_555
Eu1_5 O5_3 1_555 1_555
Eu2_4 O4_3 1_555 1_555
O24_3 Eu2_4 1_555 1_555
O26_3 Eu2_4 1_555 1_555
O28_3 Eu2_4 1_555 1_555
O30_3 Eu1_5 1_555 1_555
C14_3 C15_3 1_555 1_555
C34_3 C35_3 1_555 1_555
C35_3 H23_3 1_555 1_555
C36_3 C35_3 1_555 1_555
C39_3 C34_3 1_555 1_555
C40_3 C34_3 1_555 1_555
C41_3 C36_3 1_555 1_555
C43_3 C40_3 1_555 1_555
C47_3 C46_3 1_555 1_555
H28_3 C47_3 1_555 1_555
C48_3 C43_3 1_555 1_555
H29_3 C48_3 1_555 1_555
C49_3 C41_3 1_555 1_555
C50_3 C49_3 1_555 1_555
H30_3 C50_3 1_555 1_555
C51_3 C50_3 1_555 1_555
H31_3 C51_3 1_555 1_555
C52_3 C51_3 1_555 1_555
C54_3 C49_3 1_555 1_555
C61_3 C46_3 1_555 1_555
O12_3 C41_3 1_555 1_555
O21_3 C61_3 1_555 1_555
O15_3 Eu1_6 1_555 1_555
O29_3 Eu1_6 1_555 1_555
Eu6_2 O16_2 1_555 1_555
C47_3 C48_3 1_555 1_555
C61_3 O15_3 1_555 1_555
H4_3 C11_3 1_555 1_555
C12_3 C11_3 1_555 1_555
H5_3 C12_3 1_555 1_555
H10_3 C20_3 1_555 1_555
O26_2 C29_3 1_555 1_555
H24_3 C37_3 1_555 1_555
C38_3 C37_3 1_555 1_555
C42_3 C38_3 1_555 1_555
C55_3 C42_3 1_555 1_555
C56_3 C55_3 1_555 1_555
H34_3 C56_3 1_555 1_555
C57_3 C56_3 1_555 1_555
H35_3 C57_3 1_555 1_555
C58_3 C57_3 1_555 1_555
C59_3 C58_3 1_555 1_555
H36_3 C59_3 1_555 1_555
C60_3 C55_3 1_555 1_555
H37_3 C60_3 1_555 1_555
C63_3 C58_3 1_555 1_555
O13_3 C42_3 1_555 1_555
O28_2 C63_3 1_555 1_555
O30_2 C63_3 1_555 1_555
O20_3 Eu1_7 1_555 1_555
C64_3 O20_3 1_555 1_555
H38_3 C64_3 1_555 1_555
N2_3 C64_3 1_555 1_555
C65_3 N2_3 1_555 1_555
H39_3 C65_3 1_555 1_555
H40_3 C65_3 1_555 1_555
H41_3 C65_3 1_555 1_555
C66_3 N2_3 1_555 1_555
H42_3 C66_3 1_555 1_555
H43_3 C66_3 1_555 1_555
H44_3 C66_3 1_555 1_555
O24_3 Eu1_7 1_555 1_555
C59_3 C60_3 1_555 1_555
C1_4 C2_4 1_555 1_555
C2_4 H1_4 1_555 1_555
C3_4 C2_4 1_555 1_555
C4_4 C3_4 1_555 1_555
H2_4 C4_4 1_555 1_555
C5_4 C4_4 1_555 1_555
C6_4 C1_4 1_555 1_555
H3_4 C6_4 1_555 1_555
C7_4 C1_4 1_555 1_555
C8_4 C3_4 1_555 1_555
C9_4 C5_4 1_555 1_555
C10_4 C7_4 1_555 1_555
C11_4 C10_4 1_555 1_555
H4_4 C11_4 1_555 1_555
C12_4 C11_4 1_555 1_555
H5_4 C12_4 1_555 1_555
C13_4 C12_4 1_555 1_555
C14_4 C13_4 1_555 1_555
H6_4 C14_4 1_555 1_555
C15_4 C10_4 1_555 1_555
H7_4 C15_4 1_555 1_555
C16_4 C8_4 1_555 1_555
C17_4 C16_4 1_555 1_555
H8_4 C17_4 1_555 1_555
C18_4 C17_4 1_555 1_555
H9_4 C18_4 1_555 1_555
C19_4 C18_4 1_555 1_555
C20_4 C19_4 1_555 1_555
H10_4 C20_4 1_555 1_555
C21_4 C16_4 1_555 1_555
H11_4 C21_4 1_555 1_555
C22_4 C9_4 1_555 1_555
C23_4 C22_4 1_555 1_555
H12_4 C23_4 1_555 1_555
C24_4 C23_4 1_555 1_555
H13_4 C24_4 1_555 1_555
C25_4 C24_4 1_555 1_555
C26_4 C25_4 1_555 1_555
H14_4 C26_4 1_555 1_555
C27_4 C22_4 1_555 1_555
H15_4 C27_4 1_555 1_555
C28_4 C13_4 1_555 1_555
C29_4 C19_4 1_555 1_555
C30_4 C25_4 1_555 1_555
O1_4 C7_4 1_555 1_555
O2_4 C8_4 1_555 1_555
O3_4 C9_4 1_555 1_555
O4_4 C28_4 1_555 1_555
O5_4 C28_4 1_555 1_555
O6_3 C29_4 1_555 1_555
O7_3 C29_4 1_555 1_555
O27_3 C30_4 1_555 1_555
O29_3 C30_4 1_555 1_555
O10_4 Eu4 1_555 1_555
Eu4 O5_4 1_555 1_555
Eu8 O4_4 1_555 1_555
C31_4 O10_4 1_555 1_555
H16_4 C31_4 1_555 1_555
N1_4 C31_4 1_555 1_555
C32_4 N1_4 1_555 1_555
H17_4 C32_4 1_555 1_555
H18_4 C32_4 1_555 1_555
H19_4 C32_4 1_555 1_555
C33_4 N1_4 1_555 1_555
H20_4 C33_4 1_555 1_555
H21_4 C33_4 1_555 1_555
H22_4 C33_4 1_555 1_555
C34_4 C35_4 1_555 1_555
C35_4 H23_4 1_555 1_555
C36_4 C35_4 1_555 1_555
C39_4 C34_4 1_555 1_555
H25_4 C39_4 1_555 1_555
C40_4 C34_4 1_555 1_555
C41_4 C36_4 1_555 1_555
C43_4 C40_4 1_555 1_555
C44_4 C43_4 1_555 1_555
H26_4 C44_4 1_555 1_555
C45_4 C44_4 1_555 1_555
H27_4 C45_4 1_555 1_555
C46_4 C45_4 1_555 1_555
C48_4 C43_4 1_555 1_555
C49_4 C41_4 1_555 1_555
C50_4 C49_4 1_555 1_555
C51_4 C50_4 1_555 1_555
H31_4 C51_4 1_555 1_555
C52_4 C51_4 1_555 1_555
C53_4 C52_4 1_555 1_555
H32_4 C53_4 1_555 1_555
C54_4 C49_4 1_555 1_555
H33_4 C54_4 1_555 1_555
C61_4 C46_4 1_555 1_555
C62_4 C52_4 1_555 1_555
O11_4 C40_4 1_555 1_555
O12_4 C41_4 1_555 1_555
O15_4 Eu4 1_555 1_555
O22_3 C62_4 1_555 1_555
O25_3 C62_4 1_555 1_555
O20_4 Eu4 1_555 1_555
C64_4 O20_4 1_555 1_555
H42_4 C66_4 1_555 1_555
H43_4 C66_4 1_555 1_555
H44_4 C66_4 1_555 1_555
O21_4 Eu8 1_555 1_555
O22_4 Eu4 1_555 1_555
O25_4 Eu8 1_555 1_555
O27_4 Eu8 1_555 1_555
O29_4 Eu4 1_555 1_555
Eu4_4 O6_3 1_555 1_555
Eu8_6 O6_3 1_555 1_555
C5_4 C6_4 1_555 1_555
C14_4 C15_4 1_555 1_555
C20_4 C21_4 1_555 1_555
C26_4 C27_4 1_555 1_555
O7_3 Eu8_6 1_555 1_555
Eu8 O22_4 1_555 1_555
C53_4 C54_4 1_555 1_555
C61_4 O15_4 1_555 1_555
H24_4 C37_4 1_555 1_555
C38_4 C37_4 1_555 1_555
C42_4 C38_4 1_555 1_555
H28_4 C47_4 1_555 1_555
C55_4 C42_4 1_555 1_555
C56_4 C55_4 1_555 1_555
C57_4 C56_4 1_555 1_555
C58_4 C57_4 1_555 1_555
C59_4 C58_4 1_555 1_555
H36_4 C59_4 1_555 1_555
C60_4 C55_4 1_555 1_555
H37_4 C60_4 1_555 1_555
C63_4 C58_4 1_555 1_555
O13_4 C42_4 1_555 1_555
O18_3 C63_4 1_555 1_555
O19_3 C63_4 1_555 1_555
C65_4 N2_4 1_555 1_555
H39_4 C65_4 1_555 1_555
H40_4 C65_4 1_555 1_555
H41_4 C65_4 1_555 1_555
Eu4_4 O19_3 1_555 1_555
C59_4 C60_4 1_555 1_555
O18_3 Eu8_7 1_555 1_555
H14_5 C26_5 1_555 1_555
H15_5 C27_5 1_555 1_555
O21_5 Eu8_6 1_555 1_555
O27_5 Eu8_6 1_555 1_555
C26_5 C27_5 1_555 1_555
C1_5 C2_5 1_555 1_555
C2_5 H1_5 1_555 1_555
C3_5 C2_5 1_555 1_555
C4_5 C3_5 1_555 1_555
H2_5 C4_5 1_555 1_555
C5_5 C4_5 1_555 1_555
C6_5 C1_5 1_555 1_555
H3_5 C6_5 1_555 1_555
C7_5 C1_5 1_555 1_555
C8_5 C3_5 1_555 1_555
C9_5 C5_5 1_555 1_555
C10_5 C7_5 1_555 1_555
C11_5 C10_5 1_555 1_555
H4_5 C11_5 1_555 1_555
C12_5 C11_5 1_555 1_555
H5_5 C12_5 1_555 1_555
C13_5 C12_5 1_555 1_555
C14_5 C13_5 1_555 1_555
H6_5 C14_5 1_555 1_555
C15_5 C10_5 1_555 1_555
H7_5 C15_5 1_555 1_555
C16_5 C8_5 1_555 1_555
C17_5 C16_5 1_555 1_555
H8_5 C17_5 1_555 1_555
C18_5 C17_5 1_555 1_555
H9_5 C18_5 1_555 1_555
C19_5 C18_5 1_555 1_555
C20_5 C19_5 1_555 1_555
H10_5 C20_5 1_555 1_555
C21_5 C16_5 1_555 1_555
H11_5 C21_5 1_555 1_555
C22_5 C9_5 1_555 1_555
C23_5 C22_5 1_555 1_555
H12_5 C23_5 1_555 1_555
C24_5 C23_5 1_555 1_555
H13_5 C24_5 1_555 1_555
C25_5 C24_5 1_555 1_555
C28_5 C13_5 1_555 1_555
C29_5 C19_5 1_555 1_555
C30_5 C25_5 1_555 1_555
O1_5 C7_5 1_555 1_555
O2_5 C8_5 1_555 1_555
O3_5 C9_5 1_555 1_555
O4_5 C28_5 1_555 1_555
O5_5 C28_5 1_555 1_555
O6_4 C29_5 1_555 1_555
O7_4 C29_5 1_555 1_555
O27_2 C30_5 1_555 1_555
O10_5 Eu4_4 1_555 1_555
Eu4_4 O5_5 1_555 1_555
Eu8_7 O4_5 1_555 1_555
C31_5 O10_5 1_555 1_555
H16_5 C31_5 1_555 1_555
N1_5 C31_5 1_555 1_555
C32_5 N1_5 1_555 1_555
H17_5 C32_5 1_555 1_555
H18_5 C32_5 1_555 1_555
H19_5 C32_5 1_555 1_555
C33_5 N1_5 1_555 1_555
H20_5 C33_5 1_555 1_555
H21_5 C33_5 1_555 1_555
H22_5 C33_5 1_555 1_555
C34_5 C35_5 1_555 1_555
C35_5 H23_5 1_555 1_555
C36_5 C35_5 1_555 1_555
C37_5 C36_5 1_555 1_555
H24_5 C37_5 1_555 1_555
C38_5 C37_5 1_555 1_555
C39_5 C34_5 1_555 1_555
H25_5 C39_5 1_555 1_555
C40_5 C34_5 1_555 1_555
C41_5 C36_5 1_555 1_555
C42_5 C38_5 1_555 1_555
C43_5 C40_5 1_555 1_555
C44_5 C43_5 1_555 1_555
H26_5 C44_5 1_555 1_555
C45_5 C44_5 1_555 1_555
H27_5 C45_5 1_555 1_555
C46_5 C45_5 1_555 1_555
C47_5 C46_5 1_555 1_555
H28_5 C47_5 1_555 1_555
C48_5 C43_5 1_555 1_555
H29_5 C48_5 1_555 1_555
C49_5 C41_5 1_555 1_555
C50_5 C49_5 1_555 1_555
H30_5 C50_5 1_555 1_555
C51_5 C50_5 1_555 1_555
H31_5 C51_5 1_555 1_555
C52_5 C51_5 1_555 1_555
C53_5 C52_5 1_555 1_555
H32_5 C53_5 1_555 1_555
C54_5 C49_5 1_555 1_555
H33_5 C54_5 1_555 1_555
C55_5 C42_5 1_555 1_555
C56_5 C55_5 1_555 1_555
H34_5 C56_5 1_555 1_555
C57_5 C56_5 1_555 1_555
H35_5 C57_5 1_555 1_555
C58_5 C57_5 1_555 1_555
C61_5 C46_5 1_555 1_555
C62_5 C52_5 1_555 1_555
C63_5 C58_5 1_555 1_555
O11_5 C40_5 1_555 1_555
O12_5 C41_5 1_555 1_555
O13_5 C42_5 1_555 1_555
O21_5 C61_5 1_555 1_555
O15_5 Eu4_4 1_555 1_555
O22_2 C62_5 1_555 1_555
O25_2 C62_5 1_555 1_555
O18_4 C63_5 1_555 1_555
O20_5 Eu4_4 1_555 1_555
C64_5 O20_5 1_555 1_555
H38_5 C64_5 1_555 1_555
N2_5 C64_5 1_555 1_555
C65_5 N2_5 1_555 1_555
H39_5 C65_5 1_555 1_555
H40_5 C65_5 1_555 1_555
H41_5 C65_5 1_555 1_555
C66_5 N2_5 1_555 1_555
H42_5 C66_5 1_555 1_555
H43_5 C66_5 1_555 1_555
H44_5 C66_5 1_555 1_555
O22_5 Eu4_4 1_555 1_555
O25_5 Eu8_7 1_555 1_555
O29_5 Eu4_4 1_555 1_555
Eu6_2 O6_4 1_555 1_555
Eu9_2 O6_4 1_555 1_555
C5_5 C6_5 1_555 1_555
C14_5 C15_5 1_555 1_555
C20_5 C21_5 1_555 1_555
O7_4 Eu9_2 1_555 1_555
Eu8_7 O22_5 1_555 1_555
C38_5 C39_5 1_555 1_555
C47_5 C48_5 1_555 1_555
C53_5 C54_5 1_555 1_555
C61_5 O15_5 1_555 1_555
O18_4 Eu9_2 1_555 1_555
H36_5 C59_5 1_555 1_555
H37_5 C60_5 1_555 1_555
Eu6_2 O19_4 1_555 1_555
C59_5 C60_5 1_555 1_555
H2_6 C4_6 1_555 1_555
C5_6 C4_6 1_555 1_555
C9_6 C5_6 1_555 1_555
H6_6 C14_6 1_555 1_555
C22_6 C9_6 1_555 1_555
C23_6 C22_6 1_555 1_555
C24_6 C23_6 1_555 1_555
C25_6 C24_6 1_555 1_555
C26_6 C25_6 1_555 1_555
H14_6 C26_6 1_555 1_555
C27_6 C22_6 1_555 1_555
H15_6 C27_6 1_555 1_555
C30_6 C25_6 1_555 1_555
O3_6 C9_6 1_555 1_555
O27_5 C30_6 1_555 1_555
O29_5 C30_6 1_555 1_555
Eu9 O4_6 1_555 1_555
C32_6 N1_6 1_555 1_555
H17_6 C32_6 1_555 1_555
H18_6 C32_6 1_555 1_555
H19_6 C32_6 1_555 1_555
O21_6 Eu9 1_555 1_555
O24_4 Eu9 1_555 1_555
O26_4 Eu9 1_555 1_555
O28_4 Eu9 1_555 1_555
C26_6 C27_6 1_555 1_555
C1_6 C2_6 1_555 1_555
C2_6 H1_6 1_555 1_555
C3_6 C2_6 1_555 1_555
C6_6 C1_6 1_555 1_555
H3_6 C6_6 1_555 1_555
C7_6 C1_6 1_555 1_555
C8_6 C3_6 1_555 1_555
C10_6 C7_6 1_555 1_555
C11_6 C10_6 1_555 1_555
H4_6 C11_6 1_555 1_555
C12_6 C11_6 1_555 1_555
H5_6 C12_6 1_555 1_555
C13_6 C12_6 1_555 1_555
C15_6 C10_6 1_555 1_555
C16_6 C8_6 1_555 1_555
C17_6 C16_6 1_555 1_555
C18_6 C17_6 1_555 1_555
H9_6 C18_6 1_555 1_555
C19_6 C18_6 1_555 1_555
C20_6 C19_6 1_555 1_555
H10_6 C20_6 1_555 1_555
C21_6 C16_6 1_555 1_555
H11_6 C21_6 1_555 1_555
C28_6 C13_6 1_555 1_555
C29_6 C19_6 1_555 1_555
O1_6 C7_6 1_555 1_555
O2_6 C8_6 1_555 1_555
O5_6 C28_6 1_555 1_555
O24_3 C29_6 1_555 1_555
O26_3 C29_6 1_555 1_555
O10_6 Eu6 1_555 1_555
Eu6 O5_6 1_555 1_555
C31_6 O10_6 1_555 1_555
H20_6 C33_6 1_555 1_555
H21_6 C33_6 1_555 1_555
H22_6 C33_6 1_555 1_555
C34_6 C35_6 1_555 1_555
C35_6 H23_6 1_555 1_555
C36_6 C35_6 1_555 1_555
C37_6 C36_6 1_555 1_555
H24_6 C37_6 1_555 1_555
C38_6 C37_6 1_555 1_555
C39_6 C34_6 1_555 1_555
H25_6 C39_6 1_555 1_555
C40_6 C34_6 1_555 1_555
C41_6 C36_6 1_555 1_555
C42_6 C38_6 1_555 1_555
C43_6 C40_6 1_555 1_555
C44_6 C43_6 1_555 1_555
H26_6 C44_6 1_555 1_555
C45_6 C44_6 1_555 1_555
H27_6 C45_6 1_555 1_555
C46_6 C45_6 1_555 1_555
C47_6 C46_6 1_555 1_555
H28_6 C47_6 1_555 1_555
C48_6 C43_6 1_555 1_555
H29_6 C48_6 1_555 1_555
C49_6 C41_6 1_555 1_555
C50_6 C49_6 1_555 1_555
H30_6 C50_6 1_555 1_555
C51_6 C50_6 1_555 1_555
H31_6 C51_6 1_555 1_555
C52_6 C51_6 1_555 1_555
C53_6 C52_6 1_555 1_555
H32_6 C53_6 1_555 1_555
C54_6 C49_6 1_555 1_555
H33_6 C54_6 1_555 1_555
C55_6 C42_6 1_555 1_555
C56_6 C55_6 1_555 1_555
H34_6 C56_6 1_555 1_555
C57_6 C56_6 1_555 1_555
H35_6 C57_6 1_555 1_555
C58_6 C57_6 1_555 1_555
C59_6 C58_6 1_555 1_555
H36_6 C59_6 1_555 1_555
C60_6 C55_6 1_555 1_555
H37_6 C60_6 1_555 1_555
C61_6 C46_6 1_555 1_555
C62_6 C52_6 1_555 1_555
C63_6 C58_6 1_555 1_555
O11_6 C40_6 1_555 1_555
O12_6 C41_6 1_555 1_555
O13_6 C42_6 1_555 1_555
O21_6 C61_6 1_555 1_555
O15_6 Eu6 1_555 1_555
O22_5 C62_6 1_555 1_555
O25_5 C62_6 1_555 1_555
O28_3 C63_6 1_555 1_555
O30_3 C63_6 1_555 1_555
O20_6 Eu6 1_555 1_555
C64_6 O20_6 1_555 1_555
H38_6 C64_6 1_555 1_555
N2_6 C64_6 1_555 1_555
C65_6 N2_6 1_555 1_555
H39_6 C65_6 1_555 1_555
H40_6 C65_6 1_555 1_555
H41_6 C65_6 1_555 1_555
C66_6 N2_6 1_555 1_555
H42_6 C66_6 1_555 1_555
H43_6 C66_6 1_555 1_555
H44_6 C66_6 1_555 1_555
O24_4 Eu6 1_555 1_555
O30_4 Eu6 1_555 1_555
C20_6 C21_6 1_555 1_555
C38_6 C39_6 1_555 1_555
C47_6 C48_6 1_555 1_555
C53_6 C54_6 1_555 1_555
C59_6 C60_6 1_555 1_555
C61_6 O15_6 1_555 1_555
O27_6 Eu8_2 1_555 1_555
H14_7 C26_7 1_555 1_555
H15_7 C27_7 1_555 1_555
C26_7 C27_7 1_555 1_555
O10_7 Eu4_2 1_555 1_555
C31_7 O10_7 1_555 1_555
H16_7 C31_7 1_555 1_555
N1_7 C31_7 1_555 1_555
C32_7 N1_7 1_555 1_555
H17_7 C32_7 1_555 1_555
H18_7 C32_7 1_555 1_555
H19_7 C32_7 1_555 1_555
C33_7 N1_7 1_555 1_555
H20_7 C33_7 1_555 1_555
H21_7 C33_7 1_555 1_555
H22_7 C33_7 1_555 1_555
O22_6 Eu4_2 1_555 1_555
O29_6 Eu4_2 1_555 1_555
Eu8_4 O22_6 1_555 1_555
H2_7 C4_7 1_555 1_555
C5_7 C4_7 1_555 1_555
C9_7 C5_7 1_555 1_555
C22_7 C9_7 1_555 1_555
C23_7 C22_7 1_555 1_555
H12_7 C23_7 1_555 1_555
C24_7 C23_7 1_555 1_555
H13_7 C24_7 1_555 1_555
C25_7 C24_7 1_555 1_555
C30_7 C25_7 1_555 1_555
O3_7 C9_7 1_555 1_555
O27_4 C30_7 1_555 1_555
C34_7 C35_7 1_555 1_555
C35_7 H23_7 1_555 1_555
C36_7 C35_7 1_555 1_555
C39_7 C34_7 1_555 1_555
C40_7 C34_7 1_555 1_555
C41_7 C36_7 1_555 1_555
C43_7 C40_7 1_555 1_555
C44_7 C43_7 1_555 1_555
H26_7 C44_7 1_555 1_555
C45_7 C44_7 1_555 1_555
H27_7 C45_7 1_555 1_555
C46_7 C45_7 1_555 1_555
C47_7 C46_7 1_555 1_555
H28_7 C47_7 1_555 1_555
C48_7 C43_7 1_555 1_555
H29_7 C48_7 1_555 1_555
C49_7 C41_7 1_555 1_555
C50_7 C49_7 1_555 1_555
H30_7 C50_7 1_555 1_555
C51_7 C50_7 1_555 1_555
H31_7 C51_7 1_555 1_555
C52_7 C51_7 1_555 1_555
C53_7 C52_7 1_555 1_555
H32_7 C53_7 1_555 1_555
C54_7 C49_7 1_555 1_555
H33_7 C54_7 1_555 1_555
C61_7 C46_7 1_555 1_555
C62_7 C52_7 1_555 1_555
O11_7 C40_7 1_555 1_555
O12_7 C41_7 1_555 1_555
O21_7 C61_7 1_555 1_555
O22_4 C62_7 1_555 1_555
O25_4 C62_7 1_555 1_555
C47_7 C48_7 1_555 1_555
C53_7 C54_7 1_555 1_555
C61_7 O15_7 1_555 1_555
O20_7 Eu4_3 1_555 1_555
C64_7 O20_7 1_555 1_555
H38_7 C64_7 1_555 1_555
N2_7 C64_7 1_555 1_555
C65_7 N2_7 1_555 1_555
H39_7 C65_7 1_555 1_555
H40_7 C65_7 1_555 1_555
H41_7 C65_7 1_555 1_555
C66_7 N2_7 1_555 1_555
H42_7 C66_7 1_555 1_555
H43_7 C66_7 1_555 1_555
H44_7 C66_7 1_555 1_555
C1_7 C2_7 1_555 1_555
C2_7 H1_7 1_555 1_555
C3_7 C2_7 1_555 1_555
C6_7 C1_7 1_555 1_555
C7_7 C1_7 1_555 1_555
C8_7 C3_7 1_555 1_555
C10_7 C7_7 1_555 1_555
C11_7 C10_7 1_555 1_555
H4_7 C11_7 1_555 1_555
C12_7 C11_7 1_555 1_555
H5_7 C12_7 1_555 1_555
C13_7 C12_7 1_555 1_555
C14_7 C13_7 1_555 1_555
H6_7 C14_7 1_555 1_555
C15_7 C10_7 1_555 1_555
H7_7 C15_7 1_555 1_555
C16_7 C8_7 1_555 1_555
C17_7 C16_7 1_555 1_555
H8_7 C17_7 1_555 1_555
C18_7 C17_7 1_555 1_555
H9_7 C18_7 1_555 1_555
C19_7 C18_7 1_555 1_555
C20_7 C19_7 1_555 1_555
H10_7 C20_7 1_555 1_555
C21_7 C16_7 1_555 1_555
H11_7 C21_7 1_555 1_555
C28_7 C13_7 1_555 1_555
C29_7 C19_7 1_555 1_555
O1_7 C7_7 1_555 1_555
O2_7 C8_7 1_555 1_555
O4_7 C28_7 1_555 1_555
O5_7 C28_7 1_555 1_555
O24_4 C29_7 1_555 1_555
O26_4 C29_7 1_555 1_555
H24_7 C37_7 1_555 1_555
C38_7 C37_7 1_555 1_555
C42_7 C38_7 1_555 1_555
C55_7 C42_7 1_555 1_555
C56_7 C55_7 1_555 1_555
H34_7 C56_7 1_555 1_555
C57_7 C56_7 1_555 1_555
H35_7 C57_7 1_555 1_555
C58_7 C57_7 1_555 1_555
C63_7 C58_7 1_555 1_555
O13_7 C42_7 1_555 1_555
O28_4 C63_7 1_555 1_555
C14_7 C15_7 1_555 1_555
C20_7 C21_7 1_555 1_555
H36_7 C59_7 1_555 1_555
H37_7 C60_7 1_555 1_555
C59_7 C60_7 1_555 1_555
H2_8 C4_8 1_555 1_555
C5_8 C4_8 1_555 1_555
C9_8 C5_8 1_555 1_555
H6_8 C14_8 1_555 1_555
C22_8 C9_8 1_555 1_555
C23_8 C22_8 1_555 1_555
C24_8 C23_8 1_555 1_555
C25_8 C24_8 1_555 1_555
C26_8 C25_8 1_555 1_555
H14_8 C26_8 1_555 1_555
C27_8 C22_8 1_555 1_555
H15_8 C27_8 1_555 1_555
C30_8 C25_8 1_555 1_555
O3_8 C9_8 1_555 1_555
O27_6 C30_8 1_555 1_555
O29_6 C30_8 1_555 1_555
Eu9_2 O4_8 1_555 1_555
C32_8 N1_8 1_555 1_555
H17_8 C32_8 1_555 1_555
H18_8 C32_8 1_555 1_555
H19_8 C32_8 1_555 1_555
O21_8 Eu9_2 1_555 1_555
C26_8 C27_8 1_555 1_555
C1_8 C2_8 1_555 1_555
C2_8 H1_8 1_555 1_555
C3_8 C2_8 1_555 1_555
C6_8 C1_8 1_555 1_555
H3_8 C6_8 1_555 1_555
C7_8 C1_8 1_555 1_555
C8_8 C3_8 1_555 1_555
C10_8 C7_8 1_555 1_555
C11_8 C10_8 1_555 1_555
H4_8 C11_8 1_555 1_555
C12_8 C11_8 1_555 1_555
H5_8 C12_8 1_555 1_555
C13_8 C12_8 1_555 1_555
C15_8 C10_8 1_555 1_555
C16_8 C8_8 1_555 1_555
C17_8 C16_8 1_555 1_555
C18_8 C17_8 1_555 1_555
H9_8 C18_8 1_555 1_555
C19_8 C18_8 1_555 1_555
C21_8 C16_8 1_555 1_555
C28_8 C13_8 1_555 1_555
C29_8 C19_8 1_555 1_555
O1_8 C7_8 1_555 1_555
O2_8 C8_8 1_555 1_555
O5_8 C28_8 1_555 1_555
O24 C29_8 1_555 1_555
O10_8 Eu6_2 1_555 1_555
Eu6_2 O5_8 1_555 1_555
C31_8 O10_8 1_555 1_555
H20_8 C33_8 1_555 1_555
H21_8 C33_8 1_555 1_555
H22_8 C33_8 1_555 1_555
C34_8 C35_8 1_555 1_555
C35_8 H23_8 1_555 1_555
C36_8 C35_8 1_555 1_555
C37_8 C36_8 1_555 1_555
H24_8 C37_8 1_555 1_555
C38_8 C37_8 1_555 1_555
C39_8 C34_8 1_555 1_555
H25_8 C39_8 1_555 1_555
C40_8 C34_8 1_555 1_555
C41_8 C36_8 1_555 1_555
C42_8 C38_8 1_555 1_555
C43_8 C40_8 1_555 1_555
C44_8 C43_8 1_555 1_555
H26_8 C44_8 1_555 1_555
C45_8 C44_8 1_555 1_555
H27_8 C45_8 1_555 1_555
C46_8 C45_8 1_555 1_555
C47_8 C46_8 1_555 1_555
H28_8 C47_8 1_555 1_555
C48_8 C43_8 1_555 1_555
H29_8 C48_8 1_555 1_555
C49_8 C41_8 1_555 1_555
C50_8 C49_8 1_555 1_555
H30_8 C50_8 1_555 1_555
C51_8 C50_8 1_555 1_555
H31_8 C51_8 1_555 1_555
C52_8 C51_8 1_555 1_555
C54_8 C49_8 1_555 1_555
C55_8 C42_8 1_555 1_555
C56_8 C55_8 1_555 1_555
H34_8 C56_8 1_555 1_555
C57_8 C56_8 1_555 1_555
H35_8 C57_8 1_555 1_555
C58_8 C57_8 1_555 1_555
C59_8 C58_8 1_555 1_555
H36_8 C59_8 1_555 1_555
C60_8 C55_8 1_555 1_555
H37_8 C60_8 1_555 1_555
C61_8 C46_8 1_555 1_555
C62_8 C52_8 1_555 1_555
C63_8 C58_8 1_555 1_555
O11_8 C40_8 1_555 1_555
O12_8 C41_8 1_555 1_555
O13_8 C42_8 1_555 1_555
O21_8 C61_8 1_555 1_555
O15_8 Eu6_2 1_555 1_555
O22_6 C62_8 1_555 1_555
O28 C63_8 1_555 1_555
O30 C63_8 1_555 1_555
O20_8 Eu6_2 1_555 1_555
C64_8 O20_8 1_555 1_555
H38_8 C64_8 1_555 1_555
N2_8 C64_8 1_555 1_555
C65_8 N2_8 1_555 1_555
H39_8 C65_8 1_555 1_555
H40_8 C65_8 1_555 1_555
H41_8 C65_8 1_555 1_555
C66_8 N2_8 1_555 1_555
H42_8 C66_8 1_555 1_555
H43_8 C66_8 1_555 1_555
H44_8 C66_8 1_555 1_555
C38_8 C39_8 1_555 1_555
C47_8 C48_8 1_555 1_555
C59_8 C60_8 1_555 1_555
C61_8 O15_8 1_555 1_555
H10_8 C20_8 1_555 1_555
H32_8 C53_8 1_555 1_555

#END
