
###############################################################################
#
# This file contains modified crystal structure data generated from the
# MOF subset of the Cambridge Structural Database (CSD) v543 
# hosted by the Cambridge Crystallographic Data Centre (CCDC).
#
# This work is licensed under the Creative Commons
# Attribution-NonCommercial-ShareAlike 4.0 International License.
# To view a copy of this license, visit
# http://creativecommons.org/licenses/by-nc-sa/4.0/
# or send a letter to
# Creative Commons, PO Box 1866, Mountain View, CA 94042, USA.
#
# CIF created using the CSD Python API on 29 September 2022
# The structure has been converted into the P1 space group
# The structure has a 3D framework
# The original CSD entry RAPYUE is in the monoclinic crystal system
# The original CSD entry RAPYUE is in a Sohncke space group
# The framework has been calculated to contain at least 10.0% void space
# The void calculation uses a probe of radius 1.32A, grid spacing 0.4
# H atom positions have been added when not included in the experimental data
#
###############################################################################

data_RAPYUE
_chemical_formula_moiety         '(C44 H28 N4 O28 Zn6)n'
_symmetry_cell_setting           triclinic
_symmetry_space_group_name_H-M   'P 1'
_symmetry_Int_Tables_number      1
_space_group_name_Hall           'P 1'
loop_
_symmetry_equiv_pos_site_id
_symmetry_equiv_pos_as_xyz
1 x,y,z
_cell_length_a                   19.420(13)
_cell_length_b                   14.437(10)
_cell_length_c                   10.337(7)
_cell_angle_alpha                90
_cell_angle_beta                 89.731(13)
_cell_angle_gamma                90
_cell_volume                     2898.12
loop_
_atom_site_label
_atom_site_type_symbol
_atom_site_fract_x
_atom_site_fract_y
_atom_site_fract_z
Zn2 Zn 0.24971(8) 0.01496(9) 0.03085(15)
O21 O 0.2494(6) 0.2602(9) 0.0290(9)
O22 O 0.2504(5) 0.1290(6) 0.1470(7)
Zn1 Zn 0.24855(8) 0.08401(8) 0.34557(14)
Zn3 Zn 0.25139(8) 0.21990(9) 0.84495(15)
Zn4 Zn 0.25029(8) 0.28938(9) 0.53006(14)
N1 N 0.2458(5) 0.0856(9) 0.8683(8)
N2 N 0.2533(6) 0.2175(9) 0.3736(9)
O2 O 0.1648(5) 0.0121(9) 0.3102(11)
O6 O 0.3328(5) 0.0127(9) 0.3086(8)
O10 O 0.2499(4) 0.1666(6) 0.6431(8)
O11 O 0.2532(6) 0.0385(7) 0.5363(7)
O12 O 0.2540(7) 0.3984(5) 0.3944(6)
C18 C 0.2547(7) 0.0811(7) 0.6351(11)
C19 C 0.2468(11) 0.3664(8) 0.2625(10)
H11 H 0.1987 0.3535 0.2447
H12 H 0.2623 0.4142 0.2031
C20 C 0.2471(7) 0.2082(13) 0.1340(11)
C21 C 0.2558(15) 0.031(3) 0.757(3)
C22 C 0.2781(14) 0.302(3) 0.248(3)
H13 H 0.3278 0.3136 0.2435
O16 O 0.1643(5) 0.3367(7) 0.6059(8)
O17 O 0.1630(4) 0.2893(8) 0.8169(7)
O19 O 0.3367(5) 0.3314(8) 0.6049(11)
O20 O 0.3381(5) 0.2880(11) 0.8148(9)
H14 H 0.311648 0.0271866 0.764386
O15 O 0.1621(5) 0.9684(8) 0.1035(10)
O18 O 0.3343(5) 0.9640(9) 0.1049(7)
O7 O 0.6633(5) 0.8314(8) 0.3951(11)
O8 O 0.6619(5) 0.7880(11) 0.1852(9)
O9 O 0.2449(7) 0.8978(12) 0.8883(14)
C1 C 0.1306(7) 0.9733(10) 0.2082(14)
C2 C 0.0620(8) 0.9337(11) 0.2308(14)
C3 C 0.0312(7) 0.9044(10) 0.1264(14)
H1 H 0.0503 0.9133 0.0447
C8 C 0.0369(6) 0.9357(12) 0.3560(10)
H4 H 0.0654 0.9470 0.4262
C9 C 0.3567(8) 0.9752(12) 0.2077(15)
C10 C 0.4341(6) 0.9351(8) 0.2436(12)
C11 C 0.4630(6) 0.9325(11) 0.3529(10)
H5 H 0.4369 0.9489 0.4250
C12 C 0.5288(7) 0.9075(13) 0.3721(12)
H6 H 0.5507 0.9198 0.4501
C13 C 0.5643(7) 0.8613(12) 0.2689(13)
C14 C 0.6383(7) 0.8275(10) 0.2760(12)
C15 C 0.5298(8) 0.8554(13) 0.1377(15)
H7 H 0.5495 0.8251 0.0672
C16 C 0.4655(7) 0.9000(12) 0.1322(13)
H8 H 0.4435 0.9062 0.0530
C17 C 0.2459(13) 0.9507(16) 0.769(2)
H9 H 0.2799 0.9207 0.7140
H10 H 0.2016 0.9392 0.7284
Zn7 Zn 0.74861(8) 0.71990(9) 0.15505(15)
Zn10 Zn 0.74971(8) 0.78938(9) 0.46994(14)
O3 O 0.8357(5) 0.8367(7) 0.3941(8)
O4 O 0.8370(4) 0.7893(8) 0.1831(7)
C4 C 0.9655(8) 0.8570(14) 0.1443(15)
H2 H 0.9456 0.8245 0.0764
C5 C 0.9328(7) 0.8613(11) 0.2657(11)
C6 C 0.8557(6) 0.8309(11) 0.2785(15)
C7 C 0.9666(8) 0.9200(12) 0.3713(16)
H3 H 0.9418 0.9435 0.4411
C4_2 C 0.0345(8) 0.3570(14) 0.8557(15)
H2_2 H 0.0544 0.3245 0.9236
C5_2 C 0.0672(7) 0.3613(11) 0.7343(11)
C6_2 C 0.1443(6) 0.3309(11) 0.7215(15)
C7_2 C 0.0334(8) 0.4200(12) 0.6287(16)
H3_2 H 0.0582 0.4435 0.5589
Zn1_2 Zn 0.75145(8) 0.58401(8) 0.65443(14)
N1_2 N 0.7542(5) 0.5856(9) 0.1317(8)
N2_2 N 0.7467(6) 0.7175(9) 0.6264(9)
O1 O 0.8379(5) 0.4684(8) 0.8965(10)
O2_2 O 0.8352(5) 0.5121(9) 0.6898(11)
O5 O 0.6657(5) 0.4640(9) 0.8951(7)
O6_2 O 0.6672(5) 0.5127(9) 0.6914(8)
O9_2 O 0.7551(7) 0.3978(12) 0.1117(14)
O10_2 O 0.7501(4) 0.6666(6) 0.3569(8)
O11_2 O 0.7468(6) 0.5385(7) 0.4637(7)
O12_2 O 0.7460(7) 0.8984(5) 0.6056(6)
O13 O 0.7506(6) 0.7602(9) 0.9710(9)
O14 O 0.7496(5) 0.6290(6) 0.8530(7)
C1_2 C 0.8694(7) 0.4733(10) 0.7918(14)
C2_2 C 0.9380(8) 0.4337(11) 0.7692(14)
C3_2 C 0.9688(7) 0.4044(10) 0.8736(14)
H1_2 H 0.9497 0.4133 0.9553
C8_2 C 0.9631(6) 0.4357(12) 0.6440(10)
H4_2 H 0.9346 0.4470 0.5738
C9_2 C 0.6433(8) 0.4752(12) 0.7923(15)
C10_2 C 0.5659(6) 0.4351(8) 0.7564(12)
C11_2 C 0.5370(6) 0.4325(11) 0.6471(10)
H5_2 H 0.5631 0.4489 0.5750
C12_2 C 0.4712(7) 0.4075(13) 0.6279(12)
H6_2 H 0.4493 0.4198 0.5499
C13_2 C 0.4357(7) 0.3613(12) 0.7311(13)
C14_2 C 0.3617(7) 0.3275(10) 0.7240(12)
C15_2 C 0.4702(8) 0.3554(13) 0.8623(15)
H7_2 H 0.4505 0.3251 0.9328
C16_2 C 0.5345(7) 0.4000(12) 0.8678(13)
H8_2 H 0.5565 0.4062 0.9470
C17_2 C 0.7541(13) 0.4507(16) 0.231(2)
H9_2 H 0.7201 0.4207 0.2860
H10_2 H 0.7984 0.4392 0.2716
C18_2 C 0.7453(7) 0.5811(7) 0.3649(11)
C19_2 C 0.7532(11) 0.8664(8) 0.7375(10)
H11_2 H 0.8013 0.8535 0.7553
H12_2 H 0.7377 0.9142 0.7969
C20_2 C 0.7529(7) 0.7082(13) 0.8660(11)
C21_2 C 0.7442(15) 0.531(3) 0.243(3)
C22_2 C 0.7219(14) 0.802(3) 0.752(3)
H13_2 H 0.6722 0.8136 0.7565
Zn5 Zn 0.75029(8) 0.51496(9) 0.96915(15)
H14_2 H 0.688352 0.527187 0.235614
loop_
_geom_bond_atom_site_label_1
_geom_bond_atom_site_label_2
_geom_bond_site_symmetry_1
_geom_bond_site_symmetry_2
O22 Zn2 1_555 1_555
Zn1 N2 1_555 1_555
Zn3 N1 1_555 1_555
Zn4 N2 1_555 1_555
N1 C21 1_555 1_555
N2 C22 1_555 1_555
O2 Zn1 1_555 1_555
O6 Zn1 1_555 1_555
O10 Zn3 1_555 1_555
O11 Zn1 1_555 1_555
O12 Zn4 1_555 1_555
O21 C20 1_555 1_555
O22 Zn1 1_555 1_555
C18 O10 1_555 1_555
C19 O12 1_555 1_555
H11 C19 1_555 1_555
H12 C19 1_555 1_555
C20 O22 1_555 1_555
C22 C19 1_555 1_555
H13 C22 1_555 1_555
O16 Zn4 1_555 1_555
O17 Zn3 1_555 1_555
O19 Zn4 1_555 1_555
O20 Zn3 1_555 1_555
Zn4 O10 1_555 1_555
O11 C18 1_555 1_555
C18 C21 1_555 1_555
C20 C22 1_555 1_555
C21 H14 1_555 1_555
O15 C1 1_555 1_555
O18 C9 1_555 1_555
O7 C14 1_555 1_555
O8 C14 1_555 1_555
C2 C1 1_555 1_555
C3 C2 1_555 1_555
H1 C3 1_555 1_555
C8 C2 1_555 1_555
H4 C8 1_555 1_555
C10 C9 1_555 1_555
C11 C10 1_555 1_555
H5 C11 1_555 1_555
C12 C11 1_555 1_555
H6 C12 1_555 1_555
C13 C12 1_555 1_555
C14 C13 1_555 1_555
C15 C13 1_555 1_555
H7 C15 1_555 1_555
C16 C10 1_555 1_555
H8 C16 1_555 1_555
C17 O9 1_555 1_555
H9 C17 1_555 1_555
H10 C17 1_555 1_555
Zn7 O8 1_555 1_555
Zn10 O7 1_555 1_555
C15 C16 1_555 1_555
O3 C6 1_555 1_555
O4 C6 1_555 1_555
H2 C4 1_555 1_555
C5 C4 1_555 1_555
C6 C5 1_555 1_555
C7 C5 1_555 1_555
H3 C7 1_555 1_555
Zn7 O4 1_555 1_555
Zn10 O3 1_555 1_555
O16 C6_2 1_555 1_555
O17 C6_2 1_555 1_555
H2_2 C4_2 1_555 1_555
C5_2 C4_2 1_555 1_555
C6_2 C5_2 1_555 1_555
C7_2 C5_2 1_555 1_555
H3_2 C7_2 1_555 1_555
Zn1_2 N2_2 1_555 1_555
Zn7 N1_2 1_555 1_555
Zn10 N2_2 1_555 1_555
N1_2 C21_2 1_555 1_555
N2_2 C22_2 1_555 1_555
O1 C1_2 1_555 1_555
O2_2 Zn1_2 1_555 1_555
O5 C9_2 1_555 1_555
O6_2 Zn1_2 1_555 1_555
O19 C14_2 1_555 1_555
O20 C14_2 1_555 1_555
O10_2 Zn7 1_555 1_555
O11_2 Zn1_2 1_555 1_555
O12_2 Zn10 1_555 1_555
O13 C20_2 1_555 1_555
O14 Zn1_2 1_555 1_555
C1_2 O2_2 1_555 1_555
C2_2 C1_2 1_555 1_555
C3_2 C2_2 1_555 1_555
H1_2 C3_2 1_555 1_555
C8_2 C2_2 1_555 1_555
H4_2 C8_2 1_555 1_555
C9_2 O6_2 1_555 1_555
C10_2 C9_2 1_555 1_555
C11_2 C10_2 1_555 1_555
H5_2 C11_2 1_555 1_555
C12_2 C11_2 1_555 1_555
H6_2 C12_2 1_555 1_555
C13_2 C12_2 1_555 1_555
C14_2 C13_2 1_555 1_555
C15_2 C13_2 1_555 1_555
H7_2 C15_2 1_555 1_555
C16_2 C10_2 1_555 1_555
H8_2 C16_2 1_555 1_555
C17_2 O9_2 1_555 1_555
H9_2 C17_2 1_555 1_555
H10_2 C17_2 1_555 1_555
C18_2 O10_2 1_555 1_555
C19_2 O12_2 1_555 1_555
H11_2 C19_2 1_555 1_555
H12_2 C19_2 1_555 1_555
C20_2 O14 1_555 1_555
C21_2 C17_2 1_555 1_555
C22_2 C19_2 1_555 1_555
H13_2 C22_2 1_555 1_555
Zn5 O1 1_555 1_555
Zn10 O10_2 1_555 1_555
O5 Zn5 1_555 1_555
O11_2 C18_2 1_555 1_555
O14 Zn5 1_555 1_555
C15_2 C16_2 1_555 1_555
C18_2 C21_2 1_555 1_555
C20_2 C22_2 1_555 1_555
C21_2 H14_2 1_555 1_555

#END
