
###############################################################################
#
# This file contains modified crystal structure data generated from the
# MOF subset of the Cambridge Structural Database (CSD) v543 
# hosted by the Cambridge Crystallographic Data Centre (CCDC).
#
# This work is licensed under the Creative Commons
# Attribution-NonCommercial-ShareAlike 4.0 International License.
# To view a copy of this license, visit
# http://creativecommons.org/licenses/by-nc-sa/4.0/
# or send a letter to
# Creative Commons, PO Box 1866, Mountain View, CA 94042, USA.
#
# CIF created using the CSD Python API on 29 September 2022
# The structure has been converted into the P1 space group
# The structure has a 3D framework
# The original CSD entry RAQVEM is in the monoclinic crystal system
# The framework has been calculated to contain at least 10.0% void space
# The void calculation uses a probe of radius 1.32A, grid spacing 0.4
#
###############################################################################

data_RAQVEM
_chemical_formula_moiety         '(C256 H216 N80 O32 Zn14)n'
_symmetry_cell_setting           triclinic
_symmetry_space_group_name_H-M   'P 1'
_symmetry_Int_Tables_number      1
_space_group_name_Hall           'P 1'
loop_
_symmetry_equiv_pos_site_id
_symmetry_equiv_pos_as_xyz
1 x,y,z
_cell_length_a                   35.823(7)
_cell_length_b                   9.810(2)
_cell_length_c                   25.171(5)
_cell_angle_alpha                90
_cell_angle_beta                 129.14(3)
_cell_angle_gamma                90
_cell_volume                     6860.77
loop_
_atom_site_label
_atom_site_type_symbol
_atom_site_fract_x
_atom_site_fract_y
_atom_site_fract_z
Zn1 Zn 0.28955(3) 0.37259(9) 0.17899(4)
C9 C 0.2851(3) 0.1532(9) 0.0922(5)
H12 H 0.2525 0.1739 0.0634
C10 C 0.3005(3) 0.0511(9) 0.0734(4)
H13 H 0.2785 0.0047 0.0325
C11 C 0.3490(3) 0.0166(8) 0.1154(4)
C12 C 0.3791(3) 0.0937(8) 0.1748(4)
H14 H 0.4119 0.0752 0.2049
C13 C 0.3612(3) 0.1958(9) 0.1896(4)
H15 H 0.3824 0.2472 0.2291
C26 C 0.1493(3) 0.3509(8) 0.0171(4)
C27 C 0.1830(3) 0.4831(7) 0.1008(4)
C28 C 0.1902(3) 0.5859(8) 0.1485(4)
C29 C 0.1513(3) 0.6555(8) 0.1347(4)
H24 H 0.1207 0.6414 0.0933
C30 C 0.1574(3) 0.7448(8) 0.1815(4)
H25 H 0.1305 0.7886 0.1711
C31 C 0.2389(3) 0.7079(8) 0.2551(4)
H26 H 0.2693 0.7260 0.2961
C32 C 0.2349(3) 0.6156(8) 0.2099(4)
H27 H 0.2623 0.5737 0.2209
N1 N 0.3143(2) 0.2245(6) 0.1494(3)
N7 N 0.1389(2) 0.4512(6) 0.0422(3)
N8 N 0.1963(2) 0.3184(6) 0.0553(3)
N9 N 0.2181(2) 0.4056(6) 0.1106(3)
N10 N 0.2010(2) 0.7720(6) 0.2421(3)
Zn4 Zn 0.21045(3) 0.87259(9) 0.32101(4)
N21 N 0.2990(2) 0.2720(6) 0.2579(3)
O6 O 0.31920(19) 0.5444(5) 0.1906(3)
Zn2 Zn 0.0000 0.00889(13) 0.7500
C21 C 0.0939(3) 0.1015(8) 0.8726(4)
H20 H 0.1040 0.0308 0.8597
C22 C 0.1278(3) 0.1695(8) 0.9325(4)
H21 H 0.1600 0.1443 0.9593
C23 C 0.1141(3) 0.2753(8) 0.9532(4)
C24 C 0.0656(3) 0.3105(9) 0.9106(5)
H22 H 0.0549 0.3831 0.9216
C25 C 0.0336(3) 0.2350(9) 0.8516(5)
H23 H 0.0011 0.2570 0.8243
N6 N 0.0467(2) 0.1325(7) 0.8315(3)
O2 O 0.1101(2) 0.0211(6) 0.7175(3)
Zn5 Zn 0.21045(3) 0.12741(9) 0.82101(4)
C1 C 0.1360(3) 0.9333(8) 0.7589(4)
C2 C 0.1207(3) 0.7893(7) 0.7580(4)
H2 H 0.1258 0.7748 0.8007
C3 C 0.1518(3) 0.6867(10) 0.7562(6)
H3 H 0.1855 0.7072 0.7926
H4 H 0.1456 0.5958 0.7640
C4 C 0.1413(4) 0.6911(11) 0.6868(7)
H5 H 0.1616 0.6255 0.6869
H6 H 0.1488 0.7810 0.6799
C5 C 0.0893(4) 0.6589(13) 0.6291(6)
H7 H 0.0834 0.6642 0.5858
H8 H 0.0823 0.5667 0.6343
C6 C 0.0563(3) 0.7583(11) 0.6282(5)
H9 H 0.0603 0.8487 0.6169
H10 H 0.0231 0.7310 0.5930
C7 C 0.0671(3) 0.7630(9) 0.6981(4)
H11 H 0.0611 0.6700 0.7054
C8 C 0.0331(3) 0.8493(8) 0.6977(5)
C16 C 0.3528(3) 0.6553(8) 0.9858(4)
C17 C 0.3874(3) 0.5853(8) 0.9878(5)
C18 C 0.3716(3) 0.4950(9) 0.9350(5)
H17 H 0.3948 0.4480 0.9365
C19 C 0.2933(3) 0.5382(9) 0.8821(5)
H18 H 0.2609 0.5216 0.8464
C20 C 0.3048(3) 0.6314(9) 0.9318(4)
H19 H 0.2808 0.6769 0.9288
N5 N 0.3256(3) 0.4708(8) 0.8822(4)
O1 O 0.18080(19) 0.9556(5) 0.8094(3)
O3 O 0.04813(19) 0.9027(6) 0.7551(3)
O10 O 0.0090(2) 0.8683(6) 0.8557(3)
Zn2_2 Zn 1.0000 0.00889(13) 0.7500
Zn3 Zn 0.71045(3) 0.37259(9) 0.32101(4)
Zn6 Zn 0.78955(3) 0.87259(9) 0.17899(4)
Zn7 Zn 0.78955(3) 0.12741(9) 0.67899(4)
C41 C 0.7149(3) 0.1532(9) 0.4078(5)
H39 H 0.7475 0.1739 0.4366
C42 C 0.6995(3) 0.0511(9) 0.4266(4)
H40 H 0.7215 0.0047 0.4675
C43 C 0.6510(3) 0.0166(8) 0.3846(4)
C44 C 0.6209(3) 0.0937(8) 0.3252(4)
H41 H 0.5881 0.0752 0.2951
C45 C 0.6388(3) 0.1958(9) 0.3104(4)
H42 H 0.6176 0.2472 0.2709
C53 C 0.9061(3) 0.1015(8) 0.6274(4)
H47 H 0.8960 0.0308 0.6403
C54 C 0.8722(3) 0.1695(8) 0.5675(4)
H48 H 0.8400 0.1443 0.5407
C55 C 0.8859(3) 0.2753(8) 0.5468(4)
C56 C 0.9344(3) 0.3105(9) 0.5894(5)
H49 H 0.9451 0.3831 0.5784
C57 C 0.9664(3) 0.2350(9) 0.6484(5)
H50 H 0.9989 0.2570 0.6757
C58 C 0.8507(3) 0.3509(8) 0.4829(4)
C59 C 0.8170(3) 0.4831(7) 0.3992(4)
C60 C 0.8098(3) 0.5859(8) 0.3515(4)
C61 C 0.8487(3) 0.6555(8) 0.3653(4)
H51 H 0.8793 0.6414 0.4067
C62 C 0.8426(3) 0.7448(8) 0.3185(4)
H52 H 0.8695 0.7886 0.3289
C63 C 0.7611(3) 0.7079(8) 0.2449(4)
H53 H 0.7307 0.7260 0.2039
C64 C 0.7651(3) 0.6156(8) 0.2901(4)
H54 H 0.7377 0.5737 0.2791
N11 N 0.6857(2) 0.2245(6) 0.3506(3)
N16 N 0.9533(2) 0.1325(7) 0.6685(3)
N17 N 0.8611(2) 0.4512(6) 0.4578(3)
N18 N 0.8037(2) 0.3184(6) 0.4447(3)
N19 N 0.7819(2) 0.4056(6) 0.3894(3)
N20 N 0.7990(2) 0.7720(6) 0.2579(3)
N22 N 0.7010(2) 0.2720(6) 0.2421(3)
O7 O 0.68080(19) 0.5444(5) 0.3094(3)
O8 O 0.8899(2) 0.0211(6) 0.7825(3)
O4 O 0.9910(2) 0.8683(6) 0.6443(3)
H28 H 0.5626 0.7292 0.3882
C33 C 0.8640(3) 0.9333(8) 0.7411(4)
C34 C 0.8793(3) 0.7893(7) 0.7420(4)
H29 H 0.8742 0.7748 0.6993
C35 C 0.8482(3) 0.6867(10) 0.7438(6)
H30 H 0.8145 0.7072 0.7074
H31 H 0.8544 0.5958 0.7360
C36 C 0.8587(4) 0.6911(11) 0.8132(7)
H32 H 0.8384 0.6255 0.8131
H33 H 0.8512 0.7810 0.8201
C37 C 0.9107(4) 0.6589(13) 0.8709(6)
H34 H 0.9166 0.6642 0.9142
H35 H 0.9177 0.5667 0.8657
C38 C 0.9437(3) 0.7583(11) 0.8718(5)
H36 H 0.9397 0.8487 0.8831
H37 H 0.9769 0.7310 0.9070
C39 C 0.9329(3) 0.7630(9) 0.8019(4)
H38 H 0.9389 0.6700 0.7946
C40 C 0.9669(3) 0.8493(8) 0.8023(5)
C46 C 0.6341(3) 0.9096(8) 0.4041(4)
C47 C 0.6335(3) 0.7548(8) 0.4601(4)
C48 C 0.6472(3) 0.6553(8) 0.5142(4)
C49 C 0.6126(3) 0.5853(8) 0.5122(5)
H43 H 0.5800 0.5985 0.4766
C50 C 0.6284(3) 0.4950(9) 0.5650(5)
H44 H 0.6052 0.4480 0.5635
C51 C 0.7067(3) 0.5382(9) 0.6179(5)
H45 H 0.7391 0.5216 0.6536
C52 C 0.6952(3) 0.6314(9) 0.5682(4)
H46 H 0.7192 0.6769 0.5712
N12 N 0.6640(2) 0.8362(7) 0.4629(4)
N13 N 0.5888(2) 0.7771(7) 0.4039(4)
N14 N 0.5882(2) 0.8764(7) 0.3666(4)
N15 N 0.6744(3) 0.4708(8) 0.6178(4)
O5 O 0.81920(19) 0.9556(5) 0.6906(3)
O9 O 0.95187(19) 0.9027(6) 0.7449(3)
C28_2 C 0.6902(3) 0.0859(8) 0.1485(4)
C29_2 C 0.6513(3) 0.1555(8) 0.1347(4)
H24_2 H 0.6207 0.1414 0.0933
C30_2 C 0.6574(3) 0.2448(8) 0.1815(4)
H25_2 H 0.6305 0.2886 0.1711
C31_2 C 0.7389(3) 0.2079(8) 0.2551(4)
H26_2 H 0.7693 0.2260 0.2961
C32_2 C 0.7349(3) 0.1156(8) 0.2099(4)
H27_2 H 0.7623 0.0737 0.2209
O6_2 O 0.81920(19) 0.0444(5) 0.1906(3)
C60_2 C 0.3098(3) 0.0859(8) 0.3515(4)
C61_2 C 0.3487(3) 0.1555(8) 0.3653(4)
H51_2 H 0.3793 0.1414 0.4067
C62_2 C 0.3426(3) 0.2448(8) 0.3185(4)
H52_2 H 0.3695 0.2886 0.3289
C63_2 C 0.2611(3) 0.2079(8) 0.2449(4)
H53_2 H 0.2307 0.2260 0.2039
C64_2 C 0.2651(3) 0.1156(8) 0.2901(4)
H54_2 H 0.2377 0.0737 0.2791
O7_2 O 0.18080(19) 0.0444(5) 0.3094(3)
H1 H 0.9374 0.2292 0.1118
C9_2 C 0.7851(3) 0.6532(9) 0.0922(5)
H12_2 H 0.7525 0.6739 0.0634
C10_2 C 0.8005(3) 0.5511(9) 0.0734(4)
H13_2 H 0.7785 0.5047 0.0325
C11_2 C 0.8490(3) 0.5166(8) 0.1154(4)
C12_2 C 0.8791(3) 0.5937(8) 0.1748(4)
H14_2 H 0.9119 0.5752 0.2049
C13_2 C 0.8612(3) 0.6958(9) 0.1896(4)
H15_2 H 0.8824 0.7472 0.2291
C14 C 0.8659(3) 0.4096(8) 0.0959(4)
C15 C 0.8665(3) 0.2548(8) 0.0399(4)
H16 H 0.9200 0.0985 0.0234
C26_2 C 0.6493(3) 0.8509(8) 0.0171(4)
C27_2 C 0.6830(3) 0.9831(7) 0.1008(4)
N1_2 N 0.8143(2) 0.7245(6) 0.1494(3)
N2 N 0.8360(2) 0.3362(7) 0.0371(4)
N3 N 0.9112(2) 0.2771(7) 0.0961(4)
N4 N 0.9118(2) 0.3764(7) 0.1334(4)
N7_2 N 0.6389(2) 0.9512(6) 0.0422(3)
N8_2 N 0.6963(2) 0.8184(6) 0.0553(3)
N9_2 N 0.7181(2) 0.9056(6) 0.1106(3)
Zn2_3 Zn 0.5000 0.50889(13) 0.7500
C1_2 C 0.6360(3) 0.4333(8) 0.7589(4)
C2_2 C 0.6207(3) 0.2893(7) 0.7580(4)
H2_2 H 0.6258 0.2748 0.8007
C3_2 C 0.6518(3) 0.1867(10) 0.7562(6)
H3_2 H 0.6855 0.2072 0.7926
H4_2 H 0.6456 0.0958 0.7640
C4_2 C 0.6413(4) 0.1911(11) 0.6868(7)
H5_2 H 0.6616 0.1255 0.6869
H6_2 H 0.6488 0.2810 0.6799
C5_2 C 0.5893(4) 0.1589(13) 0.6291(6)
H7_2 H 0.5834 0.1642 0.5858
H8_2 H 0.5823 0.0667 0.6343
C6_2 C 0.5563(3) 0.2583(11) 0.6282(5)
H9_2 H 0.5603 0.3487 0.6169
H10_2 H 0.5231 0.2310 0.5930
C7_2 C 0.5671(3) 0.2630(9) 0.6981(4)
H11_2 H 0.5611 0.1700 0.7054
C8_2 C 0.5331(3) 0.3493(8) 0.6977(5)
C16_2 C 0.8528(3) 0.1553(8) 0.9858(4)
C17_2 C 0.8874(3) 0.0853(8) 0.9878(5)
C19_2 C 0.7933(3) 0.0382(9) 0.8821(5)
H18_2 H 0.7609 0.0216 0.8464
C20_2 C 0.8048(3) 0.1314(9) 0.9318(4)
H19_2 H 0.7808 0.1769 0.9288
C21_2 C 0.5939(3) 0.6015(8) 0.8726(4)
H20_2 H 0.6040 0.5308 0.8597
C22_2 C 0.6278(3) 0.6695(8) 0.9325(4)
H21_2 H 0.6600 0.6443 0.9593
C23_2 C 0.6141(3) 0.7753(8) 0.9532(4)
C24_2 C 0.5656(3) 0.8105(9) 0.9106(5)
H22_2 H 0.5549 0.8831 0.9216
C25_2 C 0.5336(3) 0.7350(9) 0.8516(5)
H23_2 H 0.5011 0.7570 0.8243
N6_2 N 0.5467(2) 0.6325(7) 0.8315(3)
O1_2 O 0.68080(19) 0.4556(5) 0.8094(3)
O2_2 O 0.6101(2) 0.5211(6) 0.7175(3)
O3_2 O 0.54813(19) 0.4027(6) 0.7551(3)
O4_2 O 0.4910(2) 0.3683(6) 0.6443(3)
Zn5_2 Zn 0.71045(3) 0.62741(9) 0.82101(4)
Zn7_2 Zn 0.28955(3) 0.62741(9) 0.67899(4)
H28_2 H 0.0626 0.2292 0.3882
C33_2 C 0.3640(3) 0.4333(8) 0.7411(4)
C34_2 C 0.3793(3) 0.2893(7) 0.7420(4)
H29_2 H 0.3742 0.2748 0.6993
C35_2 C 0.3482(3) 0.1867(10) 0.7438(6)
H30_2 H 0.3145 0.2072 0.7074
H31_2 H 0.3544 0.0958 0.7360
C36_2 C 0.3587(4) 0.1911(11) 0.8132(7)
H32_2 H 0.3384 0.1255 0.8131
H33_2 H 0.3512 0.2810 0.8201
C37_2 C 0.4107(4) 0.1589(13) 0.8709(6)
H34_2 H 0.4166 0.1642 0.9142
H35_2 H 0.4177 0.0667 0.8657
C38_2 C 0.4437(3) 0.2583(11) 0.8718(5)
H36_2 H 0.4397 0.3487 0.8831
H37_2 H 0.4769 0.2310 0.9070
C39_2 C 0.4329(3) 0.2630(9) 0.8019(4)
H38_2 H 0.4389 0.1700 0.7946
C40_2 C 0.4669(3) 0.3493(8) 0.8023(5)
C41_2 C 0.2149(3) 0.6532(9) 0.4078(5)
H39_2 H 0.2475 0.6739 0.4366
C42_2 C 0.1995(3) 0.5511(9) 0.4266(4)
H40_2 H 0.2215 0.5047 0.4675
C43_2 C 0.1510(3) 0.5166(8) 0.3846(4)
C44_2 C 0.1209(3) 0.5937(8) 0.3252(4)
H41_2 H 0.0881 0.5752 0.2951
C45_2 C 0.1388(3) 0.6958(9) 0.3104(4)
H42_2 H 0.1176 0.7472 0.2709
C46_2 C 0.1341(3) 0.4096(8) 0.4041(4)
C47_2 C 0.1335(3) 0.2548(8) 0.4601(4)
C48_2 C 0.1472(3) 0.1553(8) 0.5142(4)
C49_2 C 0.1126(3) 0.0853(8) 0.5122(5)
H43_2 H 0.0800 0.0985 0.4766
C51_2 C 0.2067(3) 0.0382(9) 0.6179(5)
H45_2 H 0.2391 0.0216 0.6536
C52_2 C 0.1952(3) 0.1314(9) 0.5682(4)
H46_2 H 0.2192 0.1769 0.5712
C53_2 C 0.4061(3) 0.6015(8) 0.6274(4)
H47_2 H 0.3960 0.5308 0.6403
C54_2 C 0.3722(3) 0.6695(8) 0.5675(4)
H48_2 H 0.3400 0.6443 0.5407
C55_2 C 0.3859(3) 0.7753(8) 0.5468(4)
C56_2 C 0.4344(3) 0.8105(9) 0.5894(5)
H49_2 H 0.4451 0.8831 0.5784
C57_2 C 0.4664(3) 0.7350(9) 0.6484(5)
H50_2 H 0.4989 0.7570 0.6757
C58_2 C 0.3507(3) 0.8509(8) 0.4829(4)
C59_2 C 0.3170(3) 0.9831(7) 0.3992(4)
N11_2 N 0.1857(2) 0.7245(6) 0.3506(3)
N12_2 N 0.1640(2) 0.3362(7) 0.4629(4)
N13_2 N 0.0888(2) 0.2771(7) 0.4039(4)
N14_2 N 0.0882(2) 0.3764(7) 0.3666(4)
N16_2 N 0.4533(2) 0.6325(7) 0.6685(3)
N17_2 N 0.3611(2) 0.9512(6) 0.4578(3)
N18_2 N 0.3037(2) 0.8184(6) 0.4447(3)
N19_2 N 0.2819(2) 0.9056(6) 0.3894(3)
O5_2 O 0.31920(19) 0.4556(5) 0.6906(3)
O8_2 O 0.3899(2) 0.5211(6) 0.7825(3)
O9_2 O 0.45187(19) 0.4027(6) 0.7449(3)
O10_2 O 0.5090(2) 0.3683(6) 0.8557(3)
O4_3 O 0.0090(2) 0.1317(6) 0.3557(3)
H28_3 H 0.4374 0.2708 0.6118
C33_3 C 0.1360(3) 0.0667(8) 0.2589(4)
C34_3 C 0.1207(3) 0.2107(7) 0.2580(4)
H29_3 H 0.1258 0.2252 0.3007
C35_3 C 0.1518(3) 0.3133(10) 0.2562(6)
H30_3 H 0.1855 0.2928 0.2926
H31_3 H 0.1456 0.4042 0.2640
C36_3 C 0.1413(4) 0.3089(11) 0.1868(7)
H32_3 H 0.1616 0.3745 0.1869
H33_3 H 0.1488 0.2190 0.1799
C37_3 C 0.0893(4) 0.3411(13) 0.1291(6)
H34_3 H 0.0834 0.3358 0.0858
H35_3 H 0.0823 0.4333 0.1343
C38_3 C 0.0563(3) 0.2417(11) 0.1282(5)
H36_3 H 0.0603 0.1513 0.1169
H37_3 H 0.0231 0.2690 0.0930
C39_3 C 0.0671(3) 0.2370(9) 0.1981(4)
H38_3 H 0.0611 0.3300 0.2054
C40_3 C 0.0331(3) 0.1507(8) 0.1977(5)
C46_3 C 0.3659(3) 0.0904(8) 0.5959(4)
C47_3 C 0.3665(3) 0.2452(8) 0.5399(4)
C48_3 C 0.3528(3) 0.3447(8) 0.4858(4)
C49_3 C 0.3874(3) 0.4147(8) 0.4878(5)
H43_3 H 0.4200 0.4015 0.5234
C50_2 C 0.3716(3) 0.5050(9) 0.4350(5)
H44_2 H 0.3948 0.5520 0.4365
C51_3 C 0.2933(3) 0.4618(9) 0.3821(5)
H45_3 H 0.2609 0.4784 0.3464
C52_3 C 0.3048(3) 0.3686(9) 0.4318(4)
H46_3 H 0.2808 0.3231 0.4288
N12_3 N 0.3360(2) 0.1638(7) 0.5371(4)
N13_3 N 0.4112(2) 0.2229(7) 0.5961(4)
N14_3 N 0.4118(2) 0.1236(7) 0.6334(4)
N15_2 N 0.3256(3) 0.5292(8) 0.3822(4)
O9_3 O 0.04813(19) 0.0973(6) 0.2551(3)
Zn2_4 Zn 0.0000 0.99111(13) 0.2500
C41_3 C 0.2851(3) 0.8468(9) 0.5922(5)
H39_3 H 0.2525 0.8261 0.5634
C42_3 C 0.3005(3) 0.9489(9) 0.5734(4)
H40_3 H 0.2785 0.9953 0.5325
C43_3 C 0.3490(3) 0.9834(8) 0.6154(4)
C44_3 C 0.3791(3) 0.9063(8) 0.6748(4)
H41_3 H 0.4119 0.9248 0.7049
C45_3 C 0.3612(3) 0.8042(9) 0.6896(4)
H42_3 H 0.3824 0.7528 0.7291
C53_3 C 0.0939(3) 0.8985(8) 0.3726(4)
H47_3 H 0.1040 0.9692 0.3597
C54_3 C 0.1278(3) 0.8305(8) 0.4325(4)
H48_3 H 0.1600 0.8557 0.4593
C55_3 C 0.1141(3) 0.7247(8) 0.4532(4)
C56_3 C 0.0656(3) 0.6895(9) 0.4106(5)
H49_3 H 0.0549 0.6169 0.4216
C57_3 C 0.0336(3) 0.7650(9) 0.3516(5)
H50_3 H 0.0011 0.7430 0.3243
C58_3 C 0.1493(3) 0.6491(8) 0.5171(4)
C59_3 C 0.1830(3) 0.5169(7) 0.6008(4)
C60_3 C 0.1902(3) 0.4141(8) 0.6485(4)
C61_3 C 0.1513(3) 0.3445(8) 0.6347(4)
H51_3 H 0.1207 0.3586 0.5933
C62_3 C 0.1574(3) 0.2552(8) 0.6815(4)
H52_3 H 0.1305 0.2114 0.6711
C63_3 C 0.2389(3) 0.2921(8) 0.7551(4)
H53_3 H 0.2693 0.2740 0.7961
C64_3 C 0.2349(3) 0.3844(8) 0.7099(4)
H54_3 H 0.2623 0.4263 0.7209
N11_3 N 0.3143(2) 0.7755(6) 0.6494(3)
N16_3 N 0.0467(2) 0.8675(7) 0.3315(3)
N17_3 N 0.1389(2) 0.5488(6) 0.5422(3)
N18_3 N 0.1963(2) 0.6816(6) 0.5553(3)
N19_3 N 0.2181(2) 0.5944(6) 0.6106(3)
N20_2 N 0.2010(2) 0.2280(6) 0.7421(3)
N22_2 N 0.2990(2) 0.7280(6) 0.7579(3)
O8_3 O 0.1101(2) 0.9789(6) 0.2175(3)
C1_3 C 0.8640(3) 0.0667(8) 0.2411(4)
C2_3 C 0.8793(3) 0.2107(7) 0.2420(4)
H2_3 H 0.8742 0.2252 0.1993
C3_3 C 0.8482(3) 0.3133(10) 0.2438(6)
H3_3 H 0.8145 0.2928 0.2074
H4_3 H 0.8544 0.4042 0.2360
C4_3 C 0.8587(4) 0.3089(11) 0.3132(7)
H5_3 H 0.8384 0.3745 0.3131
H6_3 H 0.8512 0.2190 0.3201
C5_3 C 0.9107(4) 0.3411(13) 0.3709(6)
H7_3 H 0.9166 0.3358 0.4142
H8_3 H 0.9177 0.4333 0.3657
C6_3 C 0.9437(3) 0.2417(11) 0.3718(5)
H9_3 H 0.9397 0.1513 0.3831
H10_3 H 0.9769 0.2690 0.4070
C7_3 C 0.9329(3) 0.2370(9) 0.3019(4)
H11_3 H 0.9389 0.3300 0.2946
C8_3 C 0.9669(3) 0.1507(8) 0.3023(5)
C16_3 C 0.6472(3) 0.3447(8) 0.0142(4)
C17_3 C 0.6126(3) 0.4147(8) 0.0122(5)
C18_2 C 0.6284(3) 0.5050(9) 0.0650(5)
H17_2 H 0.6052 0.5520 0.0635
C19_3 C 0.7067(3) 0.4618(9) 0.1179(5)
H18_3 H 0.7391 0.4784 0.1536
C20_3 C 0.6952(3) 0.3686(9) 0.0682(4)
H19_3 H 0.7192 0.3231 0.0712
N5_2 N 0.6744(3) 0.5292(8) 0.1178(4)
O3_3 O 0.95187(19) 0.0973(6) 0.2449(3)
O10_3 O 0.9910(2) 0.1317(6) 0.1443(3)
Zn2_5 Zn 1.0000 0.99111(13) 0.2500
C21_3 C 0.9061(3) 0.8985(8) 0.1274(4)
H20_3 H 0.8960 0.9692 0.1403
C22_3 C 0.8722(3) 0.8305(8) 0.0675(4)
H21_3 H 0.8400 0.8557 0.0407
C23_3 C 0.8859(3) 0.7247(8) 0.0468(4)
C24_3 C 0.9344(3) 0.6895(9) 0.0894(5)
H22_3 H 0.9451 0.6169 0.0784
C25_3 C 0.9664(3) 0.7650(9) 0.1484(5)
H23_3 H 0.9989 0.7430 0.1757
N6_3 N 0.9533(2) 0.8675(7) 0.1685(3)
O2_3 O 0.8899(2) 0.9789(6) 0.2825(3)
C9_3 C 0.7149(3) 0.8468(9) 0.9078(5)
H12_3 H 0.7475 0.8261 0.9366
C10_3 C 0.6995(3) 0.9489(9) 0.9266(4)
H13_3 H 0.7215 0.9953 0.9675
C11_3 C 0.6510(3) 0.9834(8) 0.8846(4)
C12_3 C 0.6209(3) 0.9063(8) 0.8252(4)
H14_3 H 0.5881 0.9248 0.7951
C13_3 C 0.6388(3) 0.8042(9) 0.8104(4)
H15_3 H 0.6176 0.7528 0.7709
C26_3 C 0.8507(3) 0.6491(8) 0.9829(4)
C27_3 C 0.8170(3) 0.5169(7) 0.8992(4)
C28_3 C 0.8098(3) 0.4141(8) 0.8515(4)
C29_3 C 0.8487(3) 0.3445(8) 0.8653(4)
H24_3 H 0.8793 0.3586 0.9067
C30_3 C 0.8426(3) 0.2552(8) 0.8185(4)
H25_3 H 0.8695 0.2114 0.8289
C31_3 C 0.7611(3) 0.2921(8) 0.7449(4)
H26_3 H 0.7307 0.2740 0.7039
C32_3 C 0.7651(3) 0.3844(8) 0.7901(4)
H27_3 H 0.7377 0.4263 0.7791
N1_3 N 0.6857(2) 0.7755(6) 0.8506(3)
N7_3 N 0.8611(2) 0.5488(6) 0.9578(3)
N8_3 N 0.8037(2) 0.6816(6) 0.9447(3)
N9_3 N 0.7819(2) 0.5944(6) 0.8894(3)
N10_2 N 0.7990(2) 0.2280(6) 0.7579(3)
N21_2 N 0.7010(2) 0.7280(6) 0.7421(3)
Zn2_6 Zn 0.5000 0.49111(13) 0.2500
C1_4 C 0.3640(3) 0.5667(8) 0.2411(4)
C2_4 C 0.3793(3) 0.7107(7) 0.2420(4)
H2_4 H 0.3742 0.7252 0.1993
C3_4 C 0.3482(3) 0.8133(10) 0.2438(6)
H3_4 H 0.3145 0.7928 0.2074
H4_4 H 0.3544 0.9042 0.2360
C4_4 C 0.3587(4) 0.8089(11) 0.3132(7)
H5_4 H 0.3384 0.8745 0.3131
H6_4 H 0.3512 0.7190 0.3201
C5_4 C 0.4107(4) 0.8411(13) 0.3709(6)
H7_4 H 0.4166 0.8358 0.4142
H8_4 H 0.4177 0.9333 0.3657
C6_4 C 0.4437(3) 0.7417(11) 0.3718(5)
H9_4 H 0.4397 0.6513 0.3831
H10_4 H 0.4769 0.7690 0.4070
C7_4 C 0.4329(3) 0.7370(9) 0.3019(4)
H11_4 H 0.4389 0.8300 0.2946
C8_4 C 0.4669(3) 0.6507(8) 0.3023(5)
C16_4 C 0.1472(3) 0.8447(8) 0.0142(4)
C17_4 C 0.1126(3) 0.9147(8) 0.0122(5)
C19_4 C 0.2067(3) 0.9618(9) 0.1179(5)
H18_4 H 0.2391 0.9784 0.1536
C20_4 C 0.1952(3) 0.8686(9) 0.0682(4)
H19_4 H 0.2192 0.8231 0.0712
C21_4 C 0.4061(3) 0.3985(8) 0.1274(4)
H20_4 H 0.3960 0.4692 0.1403
C22_4 C 0.3722(3) 0.3305(8) 0.0675(4)
H21_4 H 0.3400 0.3557 0.0407
C23_4 C 0.3859(3) 0.2247(8) 0.0468(4)
C24_4 C 0.4344(3) 0.1895(9) 0.0894(5)
H22_4 H 0.4451 0.1169 0.0784
C25_4 C 0.4664(3) 0.2650(9) 0.1484(5)
H23_4 H 0.4989 0.2430 0.1757
N6_4 N 0.4533(2) 0.3675(7) 0.1685(3)
O2_4 O 0.3899(2) 0.4789(6) 0.2825(3)
O3_4 O 0.45187(19) 0.5973(6) 0.2449(3)
O4_4 O 0.5090(2) 0.6317(6) 0.3557(3)
H28_4 H 0.9374 0.7708 0.6118
C33_4 C 0.6360(3) 0.5667(8) 0.2589(4)
C34_4 C 0.6207(3) 0.7107(7) 0.2580(4)
H29_4 H 0.6258 0.7252 0.3007
C35_4 C 0.6518(3) 0.8133(10) 0.2562(6)
H30_4 H 0.6855 0.7928 0.2926
H31_4 H 0.6456 0.9042 0.2640
C36_4 C 0.6413(4) 0.8089(11) 0.1868(7)
H32_4 H 0.6616 0.8745 0.1869
H33_4 H 0.6488 0.7190 0.1799
C37_4 C 0.5893(4) 0.8411(13) 0.1291(6)
H34_4 H 0.5834 0.8358 0.0858
H35_4 H 0.5823 0.9333 0.1343
C38_4 C 0.5563(3) 0.7417(11) 0.1282(5)
H36_4 H 0.5603 0.6513 0.1169
H37_4 H 0.5231 0.7690 0.0930
C39_4 C 0.5671(3) 0.7370(9) 0.1981(4)
H38_4 H 0.5611 0.8300 0.2054
C40_4 C 0.5331(3) 0.6507(8) 0.1977(5)
C41_4 C 0.7851(3) 0.3468(9) 0.5922(5)
H39_4 H 0.7525 0.3261 0.5634
C42_4 C 0.8005(3) 0.4489(9) 0.5734(4)
H40_4 H 0.7785 0.4953 0.5325
C43_4 C 0.8490(3) 0.4834(8) 0.6154(4)
C44_4 C 0.8791(3) 0.4063(8) 0.6748(4)
H41_4 H 0.9119 0.4248 0.7049
C45_4 C 0.8612(3) 0.3042(9) 0.6896(4)
H42_4 H 0.8824 0.2528 0.7291
C46_4 C 0.8659(3) 0.5904(8) 0.5959(4)
C47_4 C 0.8665(3) 0.7452(8) 0.5399(4)
C48_4 C 0.8528(3) 0.8447(8) 0.4858(4)
C49_4 C 0.8874(3) 0.9147(8) 0.4878(5)
H43_4 H 0.9200 0.9015 0.5234
C51_4 C 0.7933(3) 0.9618(9) 0.3821(5)
H45_4 H 0.7609 0.9784 0.3464
C52_4 C 0.8048(3) 0.8686(9) 0.4318(4)
H46_4 H 0.7808 0.8231 0.4288
C53_4 C 0.5939(3) 0.3985(8) 0.3726(4)
H47_4 H 0.6040 0.4692 0.3597
C54_4 C 0.6278(3) 0.3305(8) 0.4325(4)
H48_4 H 0.6600 0.3557 0.4593
C55_4 C 0.6141(3) 0.2247(8) 0.4532(4)
C56_4 C 0.5656(3) 0.1895(9) 0.4106(5)
H49_4 H 0.5549 0.1169 0.4216
C57_4 C 0.5336(3) 0.2650(9) 0.3516(5)
H50_4 H 0.5011 0.2430 0.3243
C58_4 C 0.6493(3) 0.1491(8) 0.5171(4)
C59_4 C 0.6830(3) 0.0169(7) 0.6008(4)
N11_4 N 0.8143(2) 0.2755(6) 0.6494(3)
N12_4 N 0.8360(2) 0.6638(7) 0.5371(4)
N13_4 N 0.9112(2) 0.7229(7) 0.5961(4)
N14_4 N 0.9118(2) 0.6236(7) 0.6334(4)
N16_4 N 0.5467(2) 0.3675(7) 0.3315(3)
N17_4 N 0.6389(2) 0.0488(6) 0.5422(3)
N18_4 N 0.6963(2) 0.1816(6) 0.5553(3)
N19_4 N 0.7181(2) 0.0944(6) 0.6106(3)
O8_4 O 0.6101(2) 0.4789(6) 0.2175(3)
O9_4 O 0.54813(19) 0.5973(6) 0.2551(3)
O10_4 O 0.4910(2) 0.6317(6) 0.1443(3)
H1_2 H 0.0626 0.7708 0.8882
C9_4 C 0.2149(3) 0.3468(9) 0.9078(5)
H12_4 H 0.2475 0.3261 0.9366
C10_4 C 0.1995(3) 0.4489(9) 0.9266(4)
H13_4 H 0.2215 0.4953 0.9675
C11_4 C 0.1510(3) 0.4834(8) 0.8846(4)
C12_4 C 0.1209(3) 0.4063(8) 0.8252(4)
H14_4 H 0.0881 0.4248 0.7951
C13_4 C 0.1388(3) 0.3042(9) 0.8104(4)
H15_4 H 0.1176 0.2528 0.7709
C14_2 C 0.1341(3) 0.5904(8) 0.9041(4)
C15_2 C 0.1335(3) 0.7452(8) 0.9601(4)
H16_2 H 0.0800 0.9015 0.9766
C26_4 C 0.3507(3) 0.1491(8) 0.9829(4)
C27_4 C 0.3170(3) 0.0169(7) 0.8992(4)
N1_4 N 0.1857(2) 0.2755(6) 0.8506(3)
N2_2 N 0.1640(2) 0.6638(7) 0.9629(4)
N3_2 N 0.0888(2) 0.7229(7) 0.9039(4)
N4_2 N 0.0882(2) 0.6236(7) 0.8666(4)
N7_4 N 0.3611(2) 0.0488(6) 0.9578(3)
N8_4 N 0.3037(2) 0.1816(6) 0.9447(3)
N9_4 N 0.2819(2) 0.0944(6) 0.8894(3)
C60_4 C 0.6902(3) 0.9141(8) 0.6485(4)
C61_4 C 0.6513(3) 0.8445(8) 0.6347(4)
H51_4 H 0.6207 0.8586 0.5933
C62_4 C 0.6574(3) 0.7552(8) 0.6815(4)
H52_4 H 0.6305 0.7114 0.6711
C63_4 C 0.7389(3) 0.7921(8) 0.7551(4)
H53_4 H 0.7693 0.7740 0.7961
C64_4 C 0.7349(3) 0.8844(8) 0.7099(4)
H54_4 H 0.7623 0.9263 0.7209
C28_4 C 0.3098(3) 0.9141(8) 0.8515(4)
C29_4 C 0.3487(3) 0.8445(8) 0.8653(4)
H24_4 H 0.3793 0.8586 0.9067
C30_4 C 0.3426(3) 0.7552(8) 0.8185(4)
H25_4 H 0.3695 0.7114 0.8289
C31_4 C 0.2611(3) 0.7921(8) 0.7449(4)
H26_4 H 0.2307 0.7740 0.7039
C32_4 C 0.2651(3) 0.8844(8) 0.7901(4)
H27_4 H 0.2377 0.9263 0.7791
H1_3 H 0.4374 0.7292 0.1118
C14_3 C 0.3659(3) 0.9096(8) 0.0959(4)
C15_3 C 0.3665(3) 0.7548(8) 0.0399(4)
H16_3 H 0.4200 0.5985 0.0234
N2_3 N 0.3360(2) 0.8362(7) 0.0371(4)
N3_3 N 0.4112(2) 0.7771(7) 0.0961(4)
N4_3 N 0.4118(2) 0.8764(7) 0.1334(4)
C18_3 C 0.8716(3) 0.9950(9) 0.9350(5)
H17_3 H 0.8948 0.9480 0.9365
N5_3 N 0.8256(3) 0.9708(8) 0.8822(4)
C50_3 C 0.1284(3) 0.9950(9) 0.5650(5)
H44_3 H 0.1052 0.9480 0.5635
N15_3 N 0.1744(3) 0.9708(8) 0.6178(4)
H1_4 H 0.5626 0.2708 0.8882
C14_4 C 0.6341(3) 0.0904(8) 0.9041(4)
C15_4 C 0.6335(3) 0.2452(8) 0.9601(4)
H16_4 H 0.5800 0.4015 0.9766
N2_4 N 0.6640(2) 0.1638(7) 0.9629(4)
N3_4 N 0.5888(2) 0.2229(7) 0.9039(4)
N4_4 N 0.5882(2) 0.1236(7) 0.8666(4)
C18_4 C 0.1284(3) 0.0050(9) 0.0650(5)
H17_4 H 0.1052 0.0520 0.0635
N5_4 N 0.1744(3) 0.0292(8) 0.1178(4)
C50_4 C 0.8716(3) 0.0050(9) 0.4350(5)
H44_4 H 0.8948 0.0520 0.4365
N15_4 N 0.8256(3) 0.0292(8) 0.3822(4)
loop_
_geom_bond_atom_site_label_1
_geom_bond_atom_site_label_2
_geom_bond_site_symmetry_1
_geom_bond_site_symmetry_2
Zn1 N1 1_555 1_555
C9 H12 1_555 1_555
C10 C9 1_555 1_555
H13 C10 1_555 1_555
C11 C10 1_555 1_555
C12 C11 1_555 1_555
H14 C12 1_555 1_555
C13 C12 1_555 1_555
H15 C13 1_555 1_555
C27 C28 1_555 1_555
C28 C29 1_555 1_555
C29 H24 1_555 1_555
C30 C29 1_555 1_555
H25 C30 1_555 1_555
C31 H26 1_555 1_555
C32 C28 1_555 1_555
H27 C32 1_555 1_555
N1 C9 1_555 1_555
N7 C26 1_555 1_555
N8 C26 1_555 1_555
N9 Zn1 1_555 1_555
N10 C30 1_555 1_555
Zn4 N10 1_555 1_555
N21 Zn1 1_555 1_555
O6 Zn1 1_555 1_555
C13 N1 1_555 1_555
C27 N7 1_555 1_555
C27 N9 1_555 1_555
C31 C32 1_555 1_555
C31 N10 1_555 1_555
N8 N9 1_555 1_555
Zn2 N6 1_555 1_555
C21 H20 1_555 1_555
C22 C21 1_555 1_555
H21 C22 1_555 1_555
C23 C22 1_555 1_555
C24 C23 1_555 1_555
H22 C24 1_555 1_555
C25 C24 1_555 1_555
H23 C25 1_555 1_555
N6 C21 1_555 1_555
C25 N6 1_555 1_555
C1 C2 1_555 1_555
C2 H2 1_555 1_555
C3 C2 1_555 1_555
H3 C3 1_555 1_555
H4 C3 1_555 1_555
C4 C3 1_555 1_555
H5 C4 1_555 1_555
H6 C4 1_555 1_555
C5 C4 1_555 1_555
H7 C5 1_555 1_555
H8 C5 1_555 1_555
C6 C5 1_555 1_555
H9 C6 1_555 1_555
H10 C6 1_555 1_555
C7 C2 1_555 1_555
H11 C7 1_555 1_555
C8 C7 1_555 1_555
C16 C17 1_555 1_555
C18 C17 1_555 1_555
H17 C18 1_555 1_555
C19 H18 1_555 1_555
C20 C16 1_555 1_555
H19 C20 1_555 1_555
N5 C18 1_555 1_555
O1 C1 1_555 1_555
C6 C7 1_555 1_555
C8 O3 1_555 1_555
C19 C20 1_555 1_555
C19 N5 1_555 1_555
Zn3 N11 1_555 1_555
Zn6 N20 1_555 1_555
C41 H39 1_555 1_555
C42 C41 1_555 1_555
H40 C42 1_555 1_555
C43 C42 1_555 1_555
C44 C43 1_555 1_555
H41 C44 1_555 1_555
C45 C44 1_555 1_555
H42 C45 1_555 1_555
C53 H47 1_555 1_555
C54 C53 1_555 1_555
H48 C54 1_555 1_555
C55 C54 1_555 1_555
C56 C55 1_555 1_555
H49 C56 1_555 1_555
C57 C56 1_555 1_555
H50 C57 1_555 1_555
C58 C55 1_555 1_555
C59 C60 1_555 1_555
C60 C61 1_555 1_555
C61 H51 1_555 1_555
C62 C61 1_555 1_555
H52 C62 1_555 1_555
C63 H53 1_555 1_555
C64 C60 1_555 1_555
H54 C64 1_555 1_555
N11 C41 1_555 1_555
N16 Zn2_2 1_555 1_555
N17 C58 1_555 1_555
N18 C58 1_555 1_555
N19 Zn3 1_555 1_555
N20 C62 1_555 1_555
N22 Zn3 1_555 1_555
O7 Zn3 1_555 1_555
C45 N11 1_555 1_555
C53 N16 1_555 1_555
C57 N16 1_555 1_555
C59 N17 1_555 1_555
C59 N19 1_555 1_555
C63 C64 1_555 1_555
C63 N20 1_555 1_555
N18 N19 1_555 1_555
H28 N13 1_555 1_555
C33 C34 1_555 1_555
C34 H29 1_555 1_555
C35 C34 1_555 1_555
H30 C35 1_555 1_555
H31 C35 1_555 1_555
C36 C35 1_555 1_555
H32 C36 1_555 1_555
H33 C36 1_555 1_555
C37 C36 1_555 1_555
H34 C37 1_555 1_555
H35 C37 1_555 1_555
C38 C37 1_555 1_555
H36 C38 1_555 1_555
H37 C38 1_555 1_555
C39 C34 1_555 1_555
H38 C39 1_555 1_555
C40 C39 1_555 1_555
C47 C48 1_555 1_555
C48 C49 1_555 1_555
C49 H43 1_555 1_555
C50 C49 1_555 1_555
H44 C50 1_555 1_555
C51 H45 1_555 1_555
C52 C48 1_555 1_555
H46 C52 1_555 1_555
N12 C46 1_555 1_555
N13 C47 1_555 1_555
N14 C46 1_555 1_555
N15 C50 1_555 1_555
O5 C33 1_555 1_555
C38 C39 1_555 1_555
C40 O9 1_555 1_555
C47 N12 1_555 1_555
C51 C52 1_555 1_555
C51 N15 1_555 1_555
N13 N14 1_555 1_555
C28_2 C29_2 1_555 1_555
C29_2 H24_2 1_555 1_555
C30_2 C29_2 1_555 1_555
H25_2 C30_2 1_555 1_555
C31_2 H26_2 1_555 1_555
C32_2 C28_2 1_555 1_555
H27_2 C32_2 1_555 1_555
N22 C30_2 1_555 1_555
C31_2 C32_2 1_555 1_555
C31_2 N22 1_555 1_555
C60_2 C61_2 1_555 1_555
C61_2 H51_2 1_555 1_555
C62_2 C61_2 1_555 1_555
H52_2 C62_2 1_555 1_555
C63_2 H53_2 1_555 1_555
C64_2 C60_2 1_555 1_555
H54_2 C64_2 1_555 1_555
N21 C62_2 1_555 1_555
C63_2 C64_2 1_555 1_555
C63_2 N21 1_555 1_555
Zn6 N1_2 1_555 1_555
H1 N3 1_555 1_555
C9_2 H12_2 1_555 1_555
C10_2 C9_2 1_555 1_555
H13_2 C10_2 1_555 1_555
C11_2 C10_2 1_555 1_555
C12_2 C11_2 1_555 1_555
H14_2 C12_2 1_555 1_555
C13_2 C12_2 1_555 1_555
H15_2 C13_2 1_555 1_555
C14 C11_2 1_555 1_555
N1_2 C9_2 1_555 1_555
N2 C14 1_555 1_555
N3 C15 1_555 1_555
N4 C14 1_555 1_555
N7_2 C26_2 1_555 1_555
N8_2 C26_2 1_555 1_555
N9_2 Zn6 1_555 1_555
C13_2 N1_2 1_555 1_555
C15 N2 1_555 1_555
C27_2 N7_2 1_555 1_555
C27_2 N9_2 1_555 1_555
N3 N4 1_555 1_555
N8_2 N9_2 1_555 1_555
Zn2_3 N6_2 1_555 1_555
C1_2 C2_2 1_555 1_555
C2_2 H2_2 1_555 1_555
C3_2 C2_2 1_555 1_555
H3_2 C3_2 1_555 1_555
H4_2 C3_2 1_555 1_555
C4_2 C3_2 1_555 1_555
H5_2 C4_2 1_555 1_555
H6_2 C4_2 1_555 1_555
C5_2 C4_2 1_555 1_555
H7_2 C5_2 1_555 1_555
H8_2 C5_2 1_555 1_555
C6_2 C5_2 1_555 1_555
H9_2 C6_2 1_555 1_555
H10_2 C6_2 1_555 1_555
C7_2 C2_2 1_555 1_555
H11_2 C7_2 1_555 1_555
C8_2 C7_2 1_555 1_555
C16_2 C17_2 1_555 1_555
C19_2 H18_2 1_555 1_555
C20_2 C16_2 1_555 1_555
H19_2 C20_2 1_555 1_555
C21_2 H20_2 1_555 1_555
C22_2 C21_2 1_555 1_555
H21_2 C22_2 1_555 1_555
C23_2 C22_2 1_555 1_555
C24_2 C23_2 1_555 1_555
H22_2 C24_2 1_555 1_555
C25_2 C24_2 1_555 1_555
H23_2 C25_2 1_555 1_555
N6_2 C21_2 1_555 1_555
O1_2 C1_2 1_555 1_555
O2_2 C1_2 1_555 1_555
O3_2 Zn2_3 1_555 1_555
O4_2 C8_2 1_555 1_555
Zn4 N11_2 1_555 1_555
Zn5_2 O1_2 1_555 1_555
Zn7_2 O5_2 1_555 1_555
H28_2 N13_2 1_555 1_555
C33_2 C34_2 1_555 1_555
C34_2 H29_2 1_555 1_555
C35_2 C34_2 1_555 1_555
H30_2 C35_2 1_555 1_555
H31_2 C35_2 1_555 1_555
C36_2 C35_2 1_555 1_555
H32_2 C36_2 1_555 1_555
H33_2 C36_2 1_555 1_555
C37_2 C36_2 1_555 1_555
H34_2 C37_2 1_555 1_555
H35_2 C37_2 1_555 1_555
C38_2 C37_2 1_555 1_555
H36_2 C38_2 1_555 1_555
H37_2 C38_2 1_555 1_555
C39_2 C34_2 1_555 1_555
H38_2 C39_2 1_555 1_555
C40_2 C39_2 1_555 1_555
C41_2 H39_2 1_555 1_555
C42_2 C41_2 1_555 1_555
H40_2 C42_2 1_555 1_555
C43_2 C42_2 1_555 1_555
C44_2 C43_2 1_555 1_555
H41_2 C44_2 1_555 1_555
C45_2 C44_2 1_555 1_555
H42_2 C45_2 1_555 1_555
C46_2 C43_2 1_555 1_555
C47_2 C48_2 1_555 1_555
C48_2 C49_2 1_555 1_555
C49_2 H43_2 1_555 1_555
C51_2 H45_2 1_555 1_555
C52_2 C48_2 1_555 1_555
H46_2 C52_2 1_555 1_555
C53_2 H47_2 1_555 1_555
C54_2 C53_2 1_555 1_555
H48_2 C54_2 1_555 1_555
C55_2 C54_2 1_555 1_555
C56_2 C55_2 1_555 1_555
H49_2 C56_2 1_555 1_555
C57_2 C56_2 1_555 1_555
H50_2 C57_2 1_555 1_555
C58_2 C55_2 1_555 1_555
N11_2 C41_2 1_555 1_555
N12_2 C46_2 1_555 1_555
N13_2 C47_2 1_555 1_555
N14_2 C46_2 1_555 1_555
N16_2 Zn2_3 1_555 1_555
N17_2 C58_2 1_555 1_555
N18_2 C58_2 1_555 1_555
N19_2 Zn4 1_555 1_555
O5_2 C33_2 1_555 1_555
O8_2 C33_2 1_555 1_555
O9_2 Zn2_3 1_555 1_555
O10_2 C40_2 1_555 1_555
C6_2 C7_2 1_555 1_555
C8_2 O3_2 1_555 1_555
C19_2 C20_2 1_555 1_555
C25_2 N6_2 1_555 1_555
C38_2 C39_2 1_555 1_555
C40_2 O9_2 1_555 1_555
C45_2 N11_2 1_555 1_555
C47_2 N12_2 1_555 1_555
C51_2 C52_2 1_555 1_555
C53_2 N16_2 1_555 1_555
C57_2 N16_2 1_555 1_555
C59_2 N17_2 1_555 1_555
C59_2 N19_2 1_555 1_555
N13_2 N14_2 1_555 1_555
N18_2 N19_2 1_555 1_555
H28_3 N13_3 1_555 1_555
C33_3 C34_3 1_555 1_555
C34_3 H29_3 1_555 1_555
C35_3 C34_3 1_555 1_555
H30_3 C35_3 1_555 1_555
H31_3 C35_3 1_555 1_555
C36_3 C35_3 1_555 1_555
H32_3 C36_3 1_555 1_555
H33_3 C36_3 1_555 1_555
C37_3 C36_3 1_555 1_555
H34_3 C37_3 1_555 1_555
H35_3 C37_3 1_555 1_555
C38_3 C37_3 1_555 1_555
H36_3 C38_3 1_555 1_555
H37_3 C38_3 1_555 1_555
C39_3 C34_3 1_555 1_555
H38_3 C39_3 1_555 1_555
C40_3 C39_3 1_555 1_555
C47_3 C48_3 1_555 1_555
C48_3 C49_3 1_555 1_555
C49_3 H43_3 1_555 1_555
C50_2 C49_3 1_555 1_555
H44_2 C50_2 1_555 1_555
C51_3 H45_3 1_555 1_555
C52_3 C48_3 1_555 1_555
H46_3 C52_3 1_555 1_555
N12_3 C46_3 1_555 1_555
N13_3 C47_3 1_555 1_555
N14_3 C46_3 1_555 1_555
N15_2 C50_2 1_555 1_555
O7_2 C33_3 1_555 1_555
C38_3 C39_3 1_555 1_555
C40_3 O9_3 1_555 1_555
C47_3 N12_3 1_555 1_555
C51_3 C52_3 1_555 1_555
C51_3 N15_2 1_555 1_555
N13_3 N14_3 1_555 1_555
Zn7_2 N11_3 1_555 1_555
Zn5 N20_2 1_555 1_555
C41_3 H39_3 1_555 1_555
C42_3 C41_3 1_555 1_555
H40_3 C42_3 1_555 1_555
C43_3 C42_3 1_555 1_555
C44_3 C43_3 1_555 1_555
H41_3 C44_3 1_555 1_555
C45_3 C44_3 1_555 1_555
H42_3 C45_3 1_555 1_555
C53_3 H47_3 1_555 1_555
C54_3 C53_3 1_555 1_555
H48_3 C54_3 1_555 1_555
C55_3 C54_3 1_555 1_555
C56_3 C55_3 1_555 1_555
H49_3 C56_3 1_555 1_555
C57_3 C56_3 1_555 1_555
H50_3 C57_3 1_555 1_555
C58_3 C55_3 1_555 1_555
C59_3 C60_3 1_555 1_555
C60_3 C61_3 1_555 1_555
C61_3 H51_3 1_555 1_555
C62_3 C61_3 1_555 1_555
H52_3 C62_3 1_555 1_555
C63_3 H53_3 1_555 1_555
C64_3 C60_3 1_555 1_555
H54_3 C64_3 1_555 1_555
N11_3 C41_3 1_555 1_555
N16_3 Zn2_4 1_555 1_555
N17_3 C58_3 1_555 1_555
N18_3 C58_3 1_555 1_555
N19_3 Zn7_2 1_555 1_555
N20_2 C62_3 1_555 1_555
N22_2 Zn7_2 1_555 1_555
C45_3 N11_3 1_555 1_555
C53_3 N16_3 1_555 1_555
C57_3 N16_3 1_555 1_555
C59_3 N17_3 1_555 1_555
C59_3 N19_3 1_555 1_555
C63_3 C64_3 1_555 1_555
C63_3 N20_2 1_555 1_555
N18_3 N19_3 1_555 1_555
C1_3 C2_3 1_555 1_555
C2_3 H2_3 1_555 1_555
C3_3 C2_3 1_555 1_555
H3_3 C3_3 1_555 1_555
H4_3 C3_3 1_555 1_555
C4_3 C3_3 1_555 1_555
H5_3 C4_3 1_555 1_555
H6_3 C4_3 1_555 1_555
C5_3 C4_3 1_555 1_555
H7_3 C5_3 1_555 1_555
H8_3 C5_3 1_555 1_555
C6_3 C5_3 1_555 1_555
H9_3 C6_3 1_555 1_555
H10_3 C6_3 1_555 1_555
C7_3 C2_3 1_555 1_555
H11_3 C7_3 1_555 1_555
C8_3 C7_3 1_555 1_555
C16_3 C17_3 1_555 1_555
C18_2 C17_3 1_555 1_555
H17_2 C18_2 1_555 1_555
C19_3 H18_3 1_555 1_555
C20_3 C16_3 1_555 1_555
H19_3 C20_3 1_555 1_555
N5_2 C18_2 1_555 1_555
O6_2 C1_3 1_555 1_555
C6_3 C7_3 1_555 1_555
C8_3 O3_3 1_555 1_555
C19_3 C20_3 1_555 1_555
C19_3 N5_2 1_555 1_555
Zn2_5 N6_3 1_555 1_555
C21_3 H20_3 1_555 1_555
C22_3 C21_3 1_555 1_555
H21_3 C22_3 1_555 1_555
C23_3 C22_3 1_555 1_555
C24_3 C23_3 1_555 1_555
H22_3 C24_3 1_555 1_555
C25_3 C24_3 1_555 1_555
H23_3 C25_3 1_555 1_555
N6_3 C21_3 1_555 1_555
C25_3 N6_3 1_555 1_555
Zn5_2 N1_3 1_555 1_555
C9_3 H12_3 1_555 1_555
C10_3 C9_3 1_555 1_555
H13_3 C10_3 1_555 1_555
C11_3 C10_3 1_555 1_555
C12_3 C11_3 1_555 1_555
H14_3 C12_3 1_555 1_555
C13_3 C12_3 1_555 1_555
H15_3 C13_3 1_555 1_555
C27_3 C28_3 1_555 1_555
C28_3 C29_3 1_555 1_555
C29_3 H24_3 1_555 1_555
C30_3 C29_3 1_555 1_555
H25_3 C30_3 1_555 1_555
C31_3 H26_3 1_555 1_555
C32_3 C28_3 1_555 1_555
H27_3 C32_3 1_555 1_555
N1_3 C9_3 1_555 1_555
N7_3 C26_3 1_555 1_555
N8_3 C26_3 1_555 1_555
N9_3 Zn5_2 1_555 1_555
N10_2 C30_3 1_555 1_555
Zn7 N10_2 1_555 1_555
N21_2 Zn5_2 1_555 1_555
C13_3 N1_3 1_555 1_555
C27_3 N7_3 1_555 1_555
C27_3 N9_3 1_555 1_555
C31_3 C32_3 1_555 1_555
C31_3 N10_2 1_555 1_555
N8_3 N9_3 1_555 1_555
Zn2_6 N6_4 1_555 1_555
C1_4 C2_4 1_555 1_555
C2_4 H2_4 1_555 1_555
C3_4 C2_4 1_555 1_555
H3_4 C3_4 1_555 1_555
H4_4 C3_4 1_555 1_555
C4_4 C3_4 1_555 1_555
H5_4 C4_4 1_555 1_555
H6_4 C4_4 1_555 1_555
C5_4 C4_4 1_555 1_555
H7_4 C5_4 1_555 1_555
H8_4 C5_4 1_555 1_555
C6_4 C5_4 1_555 1_555
H9_4 C6_4 1_555 1_555
H10_4 C6_4 1_555 1_555
C7_4 C2_4 1_555 1_555
H11_4 C7_4 1_555 1_555
C8_4 C7_4 1_555 1_555
C16_4 C17_4 1_555 1_555
C19_4 H18_4 1_555 1_555
C20_4 C16_4 1_555 1_555
H19_4 C20_4 1_555 1_555
C21_4 H20_4 1_555 1_555
C22_4 C21_4 1_555 1_555
H21_4 C22_4 1_555 1_555
C23_4 C22_4 1_555 1_555
C24_4 C23_4 1_555 1_555
H22_4 C24_4 1_555 1_555
C25_4 C24_4 1_555 1_555
H23_4 C25_4 1_555 1_555
N6_4 C21_4 1_555 1_555
O6 C1_4 1_555 1_555
O2_4 C1_4 1_555 1_555
O3_4 Zn2_6 1_555 1_555
O4_4 C8_4 1_555 1_555
Zn7 N11_4 1_555 1_555
H28_4 N13_4 1_555 1_555
C33_4 C34_4 1_555 1_555
C34_4 H29_4 1_555 1_555
C35_4 C34_4 1_555 1_555
H30_4 C35_4 1_555 1_555
H31_4 C35_4 1_555 1_555
C36_4 C35_4 1_555 1_555
H32_4 C36_4 1_555 1_555
H33_4 C36_4 1_555 1_555
C37_4 C36_4 1_555 1_555
H34_4 C37_4 1_555 1_555
H35_4 C37_4 1_555 1_555
C38_4 C37_4 1_555 1_555
H36_4 C38_4 1_555 1_555
H37_4 C38_4 1_555 1_555
C39_4 C34_4 1_555 1_555
H38_4 C39_4 1_555 1_555
C40_4 C39_4 1_555 1_555
C41_4 H39_4 1_555 1_555
C42_4 C41_4 1_555 1_555
H40_4 C42_4 1_555 1_555
C43_4 C42_4 1_555 1_555
C44_4 C43_4 1_555 1_555
H41_4 C44_4 1_555 1_555
C45_4 C44_4 1_555 1_555
H42_4 C45_4 1_555 1_555
C46_4 C43_4 1_555 1_555
C47_4 C48_4 1_555 1_555
C48_4 C49_4 1_555 1_555
C49_4 H43_4 1_555 1_555
C51_4 H45_4 1_555 1_555
C52_4 C48_4 1_555 1_555
H46_4 C52_4 1_555 1_555
C53_4 H47_4 1_555 1_555
C54_4 C53_4 1_555 1_555
H48_4 C54_4 1_555 1_555
C55_4 C54_4 1_555 1_555
C56_4 C55_4 1_555 1_555
H49_4 C56_4 1_555 1_555
C57_4 C56_4 1_555 1_555
H50_4 C57_4 1_555 1_555
C58_4 C55_4 1_555 1_555
N11_4 C41_4 1_555 1_555
N12_4 C46_4 1_555 1_555
N13_4 C47_4 1_555 1_555
N14_4 C46_4 1_555 1_555
N16_4 Zn2_6 1_555 1_555
N17_4 C58_4 1_555 1_555
N18_4 C58_4 1_555 1_555
N19_4 Zn7 1_555 1_555
O7 C33_4 1_555 1_555
O8_4 C33_4 1_555 1_555
O9_4 Zn2_6 1_555 1_555
O10_4 C40_4 1_555 1_555
C6_4 C7_4 1_555 1_555
C8_4 O3_4 1_555 1_555
C19_4 C20_4 1_555 1_555
C25_4 N6_4 1_555 1_555
C38_4 C39_4 1_555 1_555
C40_4 O9_4 1_555 1_555
C45_4 N11_4 1_555 1_555
C47_4 N12_4 1_555 1_555
C51_4 C52_4 1_555 1_555
C53_4 N16_4 1_555 1_555
C57_4 N16_4 1_555 1_555
C59_4 N17_4 1_555 1_555
C59_4 N19_4 1_555 1_555
N13_4 N14_4 1_555 1_555
N18_4 N19_4 1_555 1_555
Zn5 N1_4 1_555 1_555
H1_2 N3_2 1_555 1_555
C9_4 H12_4 1_555 1_555
C10_4 C9_4 1_555 1_555
H13_4 C10_4 1_555 1_555
C11_4 C10_4 1_555 1_555
C12_4 C11_4 1_555 1_555
H14_4 C12_4 1_555 1_555
C13_4 C12_4 1_555 1_555
H15_4 C13_4 1_555 1_555
C14_2 C11_4 1_555 1_555
N1_4 C9_4 1_555 1_555
N2_2 C14_2 1_555 1_555
N3_2 C15_2 1_555 1_555
N4_2 C14_2 1_555 1_555
N7_4 C26_4 1_555 1_555
N8_4 C26_4 1_555 1_555
N9_4 Zn5 1_555 1_555
C13_4 N1_4 1_555 1_555
C15_2 N2_2 1_555 1_555
C27_4 N7_4 1_555 1_555
C27_4 N9_4 1_555 1_555
N3_2 N4_2 1_555 1_555
N8_4 N9_4 1_555 1_555
C60_4 C61_4 1_555 1_555
C61_4 H51_4 1_555 1_555
C62_4 C61_4 1_555 1_555
H52_4 C62_4 1_555 1_555
C63_4 H53_4 1_555 1_555
C64_4 C60_4 1_555 1_555
H54_4 C64_4 1_555 1_555
N21_2 C62_4 1_555 1_555
C63_4 C64_4 1_555 1_555
C63_4 N21_2 1_555 1_555
C28_4 C29_4 1_555 1_555
C29_4 H24_4 1_555 1_555
C30_4 C29_4 1_555 1_555
H25_4 C30_4 1_555 1_555
C31_4 H26_4 1_555 1_555
C32_4 C28_4 1_555 1_555
H27_4 C32_4 1_555 1_555
N22_2 C30_4 1_555 1_555
C31_4 C32_4 1_555 1_555
C31_4 N22_2 1_555 1_555
H1_3 N3_3 1_555 1_555
N2_3 C14_3 1_555 1_555
N3_3 C15_3 1_555 1_555
N4_3 C14_3 1_555 1_555
C15_3 N2_3 1_555 1_555
N3_3 N4_3 1_555 1_555
H17_3 C18_3 1_555 1_555
N5_3 C18_3 1_555 1_555
H44_3 C50_3 1_555 1_555
N15_3 C50_3 1_555 1_555
H1_4 N3_4 1_555 1_555
N2_4 C14_4 1_555 1_555
N3_4 C15_4 1_555 1_555
N4_4 C14_4 1_555 1_555
C15_4 N2_4 1_555 1_555
N3_4 N4_4 1_555 1_555
H17_4 C18_4 1_555 1_555
N5_4 C18_4 1_555 1_555
H44_4 C50_4 1_555 1_555
N15_4 C50_4 1_555 1_555

#END
