
###############################################################################
#
# This file contains modified crystal structure data generated from the
# MOF subset of the Cambridge Structural Database (CSD) v543 
# hosted by the Cambridge Crystallographic Data Centre (CCDC).
#
# This work is licensed under the Creative Commons
# Attribution-NonCommercial-ShareAlike 4.0 International License.
# To view a copy of this license, visit
# http://creativecommons.org/licenses/by-nc-sa/4.0/
# or send a letter to
# Creative Commons, PO Box 1866, Mountain View, CA 94042, USA.
#
# CIF created using the CSD Python API on 29 September 2022
# The structure has been converted into the P1 space group
# The structure has a 3D framework
# The original CSD entry RARYIT is in the orthorhombic crystal system
# The framework has been calculated to contain at least 10.0% void space
# The void calculation uses a probe of radius 1.32A, grid spacing 0.4
# H atom positions have been added when not included in the experimental data
#
###############################################################################

data_RARYIT
_chemical_formula_moiety         '(C140 H108 Gd8 N20 Ni8 O104)n'
_symmetry_cell_setting           triclinic
_symmetry_space_group_name_H-M   'P 1'
_symmetry_Int_Tables_number      1
_space_group_name_Hall           'P 1'
loop_
_symmetry_equiv_pos_site_id
_symmetry_equiv_pos_as_xyz
1 x,y,z
_cell_length_a                   28.567(6)
_cell_length_b                   14.498(3)
_cell_length_c                   12.250(2)
_cell_angle_alpha                90
_cell_angle_beta                 90
_cell_angle_gamma                90
_cell_volume                     5073.51
loop_
_atom_site_label
_atom_site_type_symbol
_atom_site_fract_x
_atom_site_fract_y
_atom_site_fract_z
O29 O 0.06116(18) 0.0041(3) 0.9566(4)
N4 N 0.0121(2) 0.8316(4) 0.8605(5)
C26 C 0.0083(3) 0.8801(6) 0.7662(7)
H12 H 0.0196 0.9403 0.7631
C27 C 0.0015(3) 0.7000(5) 0.9734(5)
N8 N 0.10535(19) 0.8476(4) 0.9760(5)
O9 O 0.74019(18) 0.0603(3) 0.0499(4)
O11 O 0.89044(16) 0.0220(3) 0.1926(4)
O12 O 0.91391(19) 0.0976(4) 0.0435(4)
N3 N 0.7699(2) 0.2155(4) 0.1411(4)
N5 N 0.89465(19) 0.1524(4) 0.4760(5)
C15 C 0.8001(3) 0.1489(5) 0.1259(5)
C16 C 0.8511(3) 0.1620(5) 0.1420(5)
C17 C 0.8661(3) 0.2491(6) 0.1748(6)
H7 H 0.8976 0.2621 0.1863
C18 C 0.8307(4) 0.3177(5) 0.1901(7)
H8 H 0.8394 0.3768 0.2115
C19 C 0.7831(3) 0.2976(6) 0.1733(6)
H9 H 0.7607 0.3431 0.1853
C20 C 0.7808(3) 0.0595(5) 0.0835(5)
C21 C 0.8881(2) 0.0880(5) 0.1232(6)
C29 C 0.8695(3) 0.0807(5) 0.4454(5)
C30 C 0.8177(3) 0.0857(5) 0.4312(6)
C31 C 0.7961(3) 0.1704(7) 0.4471(7)
H13 H 0.7638 0.1767 0.4426
C32 C 0.8259(4) 0.2480(6) 0.4708(8)
H14 H 0.8133 0.3070 0.4765
C33 C 0.8751(3) 0.2332(6) 0.4857(7)
H15 H 0.8939 0.2835 0.5031
C35 C 0.7845(3) 0.0054(6) 0.4101(7)
Ni4 Ni 0.70213(3) 0.17094(7) 0.10028(7)
Ni5 Ni 0.96329(3) 0.12050(6) 0.50947(8)
H27 H 0.968705 0.00125685 0.0336614
Gd1 Gd 0.905821(13) 0.57444(2) 0.00030(3)
Gd2 Gd 0.842205(12) 0.89083(2) 0.21300(3)
Ni1 Ni 0.79787(3) 0.67094(7) 0.60028(7)
O1 O 0.8400(2) 0.7433(3) 0.2934(4)
O2 O 0.79839(18) 0.7361(4) 0.4513(4)
O3 O 0.85978(19) 0.5622(4) 0.1699(4)
O4 O 0.92922(17) 0.6211(4) 0.1876(4)
O8 O 0.8581(2) 0.8402(5) 0.0352(4)
O10 O 0.80642(18) 0.9888(4) 0.0788(4)
O17 O 0.93884(18) 0.9959(3) 0.4566(4)
O18 O 0.87830(17) 0.9204(3) 0.3911(4)
O19 O 0.78688(18) 0.9704(4) 0.3142(4)
O20 O 0.7584(2) 0.9844(4) 0.4802(5)
O22 O 0.9441(2) 0.4389(4) 0.0672(4)
O23 O 0.7690(2) 0.8122(4) 0.1524(5)
O24 O 0.92449(15) 0.8266(3) 0.2048(4)
O25 O 0.96895(19) 0.9337(4) 0.0470(4)
N1 N 0.8558(2) 0.6071(4) 0.5282(4)
C1 C 0.8608(3) 0.6249(5) 0.4196(5)
C2 C 0.8899(2) 0.5791(5) 0.3524(6)
C3 C 0.9191(3) 0.5124(6) 0.3960(6)
H1 H 0.9398 0.4791 0.3527
C4 C 0.9159(3) 0.4978(6) 0.5085(7)
H2 H 0.9358 0.4552 0.5410
C5 C 0.8852(3) 0.5427(6) 0.5708(6)
H3 H 0.8839 0.5297 0.6451
C6 C 0.8293(3) 0.7082(5) 0.3848(6)
C7 C 0.8929(3) 0.5916(5) 0.2307(6)
C34 C 0.8971(2) 0.9902(5) 0.4288(5)
O27 O 0.80611(17) 0.6086(3) 0.7520(4)
O28 O 0.75981(18) 0.5603(3) 0.5499(4)
N6 N 0.8333(2) 0.7719(4) 0.6808(4)
N7 N 0.7301(2) 0.7155(4) 0.6411(4)
H16 H 0.920782 0.388669 0.076127
H17 H 0.968537 0.419291 0.014429
H18 H 0.749568 0.796866 0.217116
H19 H 0.75116 0.853781 0.103224
H22 H 0.924499 0.768521 0.161833
H23 H 0.94549 0.872243 0.169381
H26 H 0.961546 0.921424 0.124857
O6 O 0.83600(18) 0.6309(3) 0.9179(4)
O7 O 0.90946(15) 0.7338(3) 0.9948(4)
O14 O 0.98719(16) 0.6171(3) 0.9849(4)
O15 O 0.92458(19) 0.5779(4) 0.8177(4)
O16 O 0.9874(2) 0.5442(3) 0.7204(5)
O21 O 0.8578(3) 0.4454(7) 0.9470(7)
C8 C 0.8462(3) 0.7503(5) 0.7872(5)
C9 C 0.8692(2) 0.8123(5) 0.8527(5)
C10 C 0.8815(3) 0.8974(6) 0.8136(7)
H4 H 0.8975 0.9391 0.8578
C11 C 0.8696(3) 0.9211(5) 0.7049(8)
H5 H 0.8782 0.9779 0.6759
C12 C 0.8442(3) 0.8565(6) 0.6412(6)
H6 H 0.8348 0.8725 0.5710
C13 C 0.8278(3) 0.6561(5) 0.8219(6)
C14 C 0.8803(3) 0.7907(5) 0.9703(6)
C22 C 0.9957(3) 0.7427(5) 0.8617(5)
C23 C 0.9775(3) 0.6985(6) 0.7724(6)
C24 C 0.9740(3) 0.7483(6) 0.6738(7)
H10 H 0.9627 0.7200 0.6109
C25 C 0.9875(4) 0.8399(7) 0.6721(6)
H11 H 0.9829 0.8751 0.6096
C28 C 0.9611(3) 0.5986(6) 0.7731(6)
H20 H 0.824334 0.463865 0.94862
H21 H 0.866372 0.42573 0.871971
Ni1_2 Ni 0.20213(3) 0.32906(7) 0.10028(7)
N1_2 N 0.1442(2) 0.3929(4) 0.0282(4)
C4_2 C 0.0841(3) 0.5022(6) 0.0085(7)
H2_2 H 0.0642 0.5448 0.0410
C5_2 C 0.1148(3) 0.4573(6) 0.0708(6)
H3_2 H 0.1161 0.4703 0.1451
O27_2 O 0.19389(17) 0.3914(3) 0.2520(4)
O28_2 O 0.24019(18) 0.4397(3) 0.0499(4)
N6_2 N 0.1667(2) 0.2281(4) 0.1808(4)
N7_2 N 0.2699(2) 0.2845(4) 0.1411(4)
Gd1_2 Gd 0.094179(13) 0.42556(2) 0.50030(3)
Gd2_2 Gd 0.157795(12) 0.10917(2) 0.71300(3)
O1_2 O 0.1600(2) 0.2567(3) 0.7934(4)
O2_2 O 0.20161(18) 0.2639(4) 0.9513(4)
O3_2 O 0.14022(19) 0.4378(4) 0.6699(4)
O4_2 O 0.07078(17) 0.3789(4) 0.6876(4)
O6_2 O 0.16400(18) 0.3691(3) 0.4179(4)
O7_2 O 0.09054(15) 0.2662(3) 0.4948(4)
O8_2 O 0.1419(2) 0.1598(5) 0.5352(4)
O10_2 O 0.19358(18) 0.0112(4) 0.5788(4)
O14_2 O 0.01281(16) 0.3829(3) 0.4849(4)
O15_2 O 0.07542(19) 0.4221(4) 0.3177(4)
O16_2 O 0.0126(2) 0.4558(3) 0.2204(5)
O18_2 O 0.12170(17) 0.0796(3) 0.8911(4)
O19_2 O 0.21312(18) 0.0296(4) 0.8142(4)
O20_2 O 0.2416(2) 0.0156(4) 0.9802(5)
O21_2 O 0.1422(3) 0.5546(7) 0.4470(7)
O22_2 O 0.0559(2) 0.5611(4) 0.5672(4)
O23_2 O 0.2310(2) 0.1878(4) 0.6524(5)
O24_2 O 0.07551(15) 0.1734(3) 0.7048(4)
O25_2 O 0.03105(19) 0.0663(4) 0.5470(4)
C1_2 C 0.1392(3) 0.3751(5) 0.9196(5)
C2_2 C 0.1101(2) 0.4209(5) 0.8524(6)
C3_2 C 0.0809(3) 0.4876(6) 0.8960(6)
H1_2 H 0.0602 0.5209 0.8527
C6_2 C 0.1707(3) 0.2918(5) 0.8848(6)
C7_2 C 0.1071(3) 0.4084(5) 0.7307(6)
C8_2 C 0.1538(3) 0.2497(5) 0.2872(5)
C9_2 C 0.1308(2) 0.1877(5) 0.3527(5)
C10_2 C 0.1185(3) 0.1026(6) 0.3136(7)
H4_2 H 0.1025 0.0609 0.3578
C11_2 C 0.1304(3) 0.0789(5) 0.2049(8)
H5_2 H 0.1218 0.0221 0.1759
C12_2 C 0.1558(3) 0.1435(6) 0.1412(6)
H6_2 H 0.1652 0.1275 0.0710
C13_2 C 0.1722(3) 0.3439(5) 0.3219(6)
C14_2 C 0.1197(3) 0.2093(5) 0.4703(6)
C22_2 C 0.0043(3) 0.2573(5) 0.3617(5)
C23_2 C 0.0225(3) 0.3015(6) 0.2724(6)
C24_2 C 0.0260(3) 0.2517(6) 0.1738(7)
H10_2 H 0.0373 0.2800 0.1109
C25_2 C 0.0125(4) 0.1601(7) 0.1721(6)
H11_2 H 0.0171 0.1249 0.1096
C28_2 C 0.0389(3) 0.4014(6) 0.2731(6)
C34_2 C 0.1029(2) 0.0098(5) 0.9288(5)
H16_2 H 0.0792184 0.611331 0.576127
H17_2 H 0.0314629 0.580709 0.514429
H18_2 H 0.250432 0.203134 0.717116
H19_2 H 0.24884 0.146219 0.603224
H20_2 H 0.175666 0.536135 0.44862
H21_2 H 0.133628 0.57427 0.371971
H22_2 H 0.0755014 0.231479 0.661833
H23_2 H 0.0545098 0.127757 0.669381
H26_2 H 0.038454 0.0785762 0.624857
O9_2 O 0.25981(18) 0.9397(3) 0.5499(4)
O11_2 O 0.10956(16) 0.9780(3) 0.6926(4)
O12_2 O 0.08609(19) 0.9024(4) 0.5435(4)
N3_2 N 0.2301(2) 0.7845(4) 0.6411(4)
C15_2 C 0.1999(3) 0.8511(5) 0.6259(5)
C16_2 C 0.1489(3) 0.8380(5) 0.6420(5)
C17_2 C 0.1339(3) 0.7509(6) 0.6748(6)
H7_2 H 0.1024 0.7379 0.6863
C18_2 C 0.1693(4) 0.6823(5) 0.6901(7)
H8_2 H 0.1606 0.6232 0.7115
C19_2 C 0.2169(3) 0.7024(6) 0.6733(6)
H9_2 H 0.2393 0.6569 0.6853
C20_2 C 0.2192(3) 0.9405(5) 0.5835(5)
C21_2 C 0.1119(2) 0.9120(5) 0.6232(6)
C29_2 C 0.1305(3) 0.9193(5) 0.9454(5)
C30_2 C 0.1823(3) 0.9143(5) 0.9312(6)
C31_2 C 0.2039(3) 0.8296(7) 0.9471(7)
H13_2 H 0.2362 0.8233 0.9426
C32_2 C 0.1741(4) 0.7520(6) 0.9708(8)
H14_2 H 0.1867 0.6930 0.9765
C33_2 C 0.1249(3) 0.7668(6) 0.9857(7)
C35_2 C 0.2155(3) 0.9946(6) 0.9101(7)
Ni4_2 Ni 0.29787(3) 0.82906(7) 0.60028(7)
H27_2 H 0.0312947 0.998743 0.533661
O13 O 0.98221(18) 0.2521(4) 0.5493(4)
O26 O 0.9440(2) 0.0980(4) 0.6746(4)
N4_2 N 0.9879(2) 0.1684(4) 0.3605(5)
C26_2 C 0.9917(3) 0.1199(6) 0.2662(7)
H12_2 H 0.9804 0.0597 0.2631
C27_2 C 0.9985(3) 0.3000(5) 0.4734(5)
H24 H 0.919068 0.142319 0.695562
H25 H 0.932185 0.033999 0.683221
Gd1_3 Gd 0.405821(13) 0.92556(2) 0.00030(3)
Gd2_3 Gd 0.342205(12) 0.60917(2) 0.21300(3)
Ni2 Ni 0.53671(3) 0.62050(6) 0.00947(8)
O1_3 O 0.3400(2) 0.7567(3) 0.2934(4)
O2_3 O 0.29839(18) 0.7639(4) 0.4513(4)
O3_3 O 0.35978(19) 0.9378(4) 0.1699(4)
O4_3 O 0.42922(17) 0.8789(4) 0.1876(4)
O8_3 O 0.3581(2) 0.6598(5) 0.0352(4)
O10_3 O 0.30642(18) 0.5112(4) 0.0788(4)
O11_3 O 0.39044(16) 0.4780(3) 0.1926(4)
O12_3 O 0.41391(19) 0.4024(4) 0.0435(4)
O13_2 O 0.51779(18) 0.7521(4) 0.0493(4)
O17_2 O 0.43884(18) 0.5041(3) 0.4566(4)
O18_3 O 0.37830(17) 0.5796(3) 0.3911(4)
O19_3 O 0.28688(18) 0.5296(4) 0.3142(4)
O20_3 O 0.2584(2) 0.5156(4) 0.4802(5)
O23_3 O 0.2690(2) 0.6878(4) 0.1524(5)
O24_3 O 0.42449(15) 0.6734(3) 0.2048(4)
O25_3 O 0.46895(19) 0.5663(4) 0.0470(4)
O26_2 O 0.5560(2) 0.5980(4) 0.1746(4)
N1_3 N 0.3558(2) 0.8929(4) 0.5282(4)
N5_2 N 0.39465(19) 0.3476(4) 0.4760(5)
C1_3 C 0.3608(3) 0.8751(5) 0.4196(5)
C2_3 C 0.3899(2) 0.9209(5) 0.3524(6)
C3_3 C 0.4191(3) 0.9876(6) 0.3960(6)
C5_3 C 0.3852(3) 0.9573(6) 0.5708(6)
H3_3 H 0.3839 0.9703 0.6451
C6_3 C 0.3293(3) 0.7918(5) 0.3848(6)
C7_3 C 0.3929(3) 0.9084(5) 0.2307(6)
C15_3 C 0.3001(3) 0.3511(5) 0.1259(5)
C16_3 C 0.3511(3) 0.3380(5) 0.1420(5)
C17_3 C 0.3661(3) 0.2509(6) 0.1748(6)
H7_3 H 0.3976 0.2379 0.1863
C18_3 C 0.3307(4) 0.1823(5) 0.1901(7)
H8_3 H 0.3394 0.1232 0.2115
C19_3 C 0.2831(3) 0.2024(6) 0.1733(6)
H9_3 H 0.2607 0.1569 0.1853
C20_3 C 0.2808(3) 0.4405(5) 0.0835(5)
C21_3 C 0.3881(2) 0.4120(5) 0.1232(6)
C29_3 C 0.3695(3) 0.4193(5) 0.4454(5)
C30_3 C 0.3177(3) 0.4143(5) 0.4312(6)
C31_3 C 0.2961(3) 0.3296(7) 0.4471(7)
H13_3 H 0.2638 0.3233 0.4426
C32_3 C 0.3259(4) 0.2520(6) 0.4708(8)
H14_3 H 0.3133 0.1930 0.4765
C33_3 C 0.3751(3) 0.2668(6) 0.4857(7)
H15_2 H 0.3939 0.2165 0.5031
C34_3 C 0.3971(2) 0.5098(5) 0.4288(5)
C35_3 C 0.2845(3) 0.4946(6) 0.4101(7)
Ni5_2 Ni 0.46329(3) 0.37950(6) 0.50947(8)
O27_3 O 0.30611(17) 0.8914(3) 0.7520(4)
N6_3 N 0.3333(2) 0.7281(4) 0.6808(4)
H18_3 H 0.249568 0.703134 0.217116
H19_3 H 0.25116 0.646219 0.103224
H22_3 H 0.424499 0.731479 0.161833
H23_3 H 0.44549 0.627757 0.169381
H24_2 H 0.580932 0.642319 0.195562
H25_2 H 0.567815 0.533999 0.183221
H26_3 H 0.461546 0.578576 0.124857
H27_3 H 0.468705 0.498743 0.0336614
O6_3 O 0.33600(18) 0.8691(3) 0.9179(4)
O7_3 O 0.40946(15) 0.7662(3) 0.9948(4)
O14_3 O 0.48719(16) 0.8829(3) 0.9849(4)
O15_3 O 0.42458(19) 0.9221(4) 0.8177(4)
O16_3 O 0.4874(2) 0.9558(3) 0.7204(5)
N4_3 N 0.5121(2) 0.6684(4) 0.8605(5)
C8_3 C 0.3462(3) 0.7497(5) 0.7872(5)
C9_3 C 0.3692(2) 0.6877(5) 0.8527(5)
C10_3 C 0.3815(3) 0.6026(6) 0.8136(7)
H4_3 H 0.3975 0.5609 0.8578
C11_3 C 0.3696(3) 0.5789(5) 0.7049(8)
H5_3 H 0.3782 0.5221 0.6759
C12_3 C 0.3442(3) 0.6435(6) 0.6412(6)
H6_3 H 0.3348 0.6275 0.5710
C13_3 C 0.3278(3) 0.8439(5) 0.8219(6)
C14_3 C 0.3803(3) 0.7093(5) 0.9703(6)
C22_3 C 0.4957(3) 0.7573(5) 0.8617(5)
C23_3 C 0.4775(3) 0.8015(6) 0.7724(6)
C24_3 C 0.4740(3) 0.7517(6) 0.6738(7)
H10_3 H 0.4627 0.7800 0.6109
C25_3 C 0.4875(4) 0.6601(7) 0.6721(6)
H11_3 H 0.4829 0.6249 0.6096
C26_3 C 0.5083(3) 0.6199(6) 0.7662(7)
H12_3 H 0.5196 0.5597 0.7631
C27_3 C 0.5015(3) 0.8000(5) 0.9734(5)
C28_3 C 0.4611(3) 0.9014(6) 0.7731(6)
O29_2 O 0.56116(18) 0.4959(3) 0.9566(4)
N8_2 N 0.60535(19) 0.6524(4) 0.9760(5)
N1_4 N 0.6442(2) 0.1071(4) 0.0282(4)
C5_4 C 0.6148(3) 0.0427(6) 0.0708(6)
H3_4 H 0.6161 0.0297 0.1451
H15_3 H 0.6061 0.7835 0.0031
O27_4 O 0.69389(17) 0.1086(3) 0.2520(4)
N6_4 N 0.6667(2) 0.2719(4) 0.1808(4)
Gd1_4 Gd 0.594179(13) 0.07444(2) 0.50030(3)
Gd2_4 Gd 0.657795(12) 0.39083(2) 0.71300(3)
O1_4 O 0.6600(2) 0.2433(3) 0.7934(4)
O2_4 O 0.70161(18) 0.2361(4) 0.9513(4)
O3_4 O 0.64022(19) 0.0622(4) 0.6699(4)
O4_4 O 0.57078(17) 0.1211(4) 0.6876(4)
O6_4 O 0.66400(18) 0.1309(3) 0.4179(4)
O7_4 O 0.59054(15) 0.2338(3) 0.4948(4)
O8_4 O 0.6419(2) 0.3402(5) 0.5352(4)
O10_4 O 0.69358(18) 0.4888(4) 0.5788(4)
O11_4 O 0.60956(16) 0.5220(3) 0.6926(4)
O12_4 O 0.58609(19) 0.5976(4) 0.5435(4)
O13_3 O 0.48221(18) 0.2479(4) 0.5493(4)
O14_4 O 0.51281(16) 0.1171(3) 0.4849(4)
O15_4 O 0.57542(19) 0.0779(4) 0.3177(4)
O16_4 O 0.5126(2) 0.0442(3) 0.2204(5)
O18_4 O 0.62170(17) 0.4204(3) 0.8911(4)
O19_4 O 0.71312(18) 0.4704(4) 0.8142(4)
O20_4 O 0.7416(2) 0.4844(4) 0.9802(5)
O23_4 O 0.7310(2) 0.3122(4) 0.6524(5)
O24_4 O 0.57551(15) 0.3266(3) 0.7048(4)
O25_4 O 0.53105(19) 0.4337(4) 0.5470(4)
O26_3 O 0.4440(2) 0.4020(4) 0.6746(4)
N4_4 N 0.4879(2) 0.3316(4) 0.3605(5)
C1_4 C 0.6392(3) 0.1249(5) 0.9196(5)
C2_4 C 0.6101(2) 0.0791(5) 0.8524(6)
C3_4 C 0.5809(3) 0.0124(6) 0.8960(6)
C6_4 C 0.6707(3) 0.2082(5) 0.8848(6)
C7_4 C 0.6071(3) 0.0916(5) 0.7307(6)
C8_4 C 0.6538(3) 0.2503(5) 0.2872(5)
C9_4 C 0.6308(2) 0.3123(5) 0.3527(5)
C10_4 C 0.6185(3) 0.3974(6) 0.3136(7)
H4_4 H 0.6025 0.4391 0.3578
C11_4 C 0.6304(3) 0.4211(5) 0.2049(8)
H5_4 H 0.6218 0.4779 0.1759
C12_4 C 0.6558(3) 0.3565(6) 0.1412(6)
H6_4 H 0.6652 0.3725 0.0710
C13_4 C 0.6722(3) 0.1561(5) 0.3219(6)
C14_4 C 0.6197(3) 0.2907(5) 0.4703(6)
C15_4 C 0.6999(3) 0.6489(5) 0.6259(5)
C16_4 C 0.6489(3) 0.6620(5) 0.6420(5)
C17_4 C 0.6339(3) 0.7491(6) 0.6748(6)
H7_4 H 0.6024 0.7621 0.6863
C18_4 C 0.6693(4) 0.8177(5) 0.6901(7)
H8_4 H 0.6606 0.8768 0.7115
C19_4 C 0.7169(3) 0.7976(6) 0.6733(6)
H9_4 H 0.7393 0.8431 0.6853
C20_4 C 0.7192(3) 0.5595(5) 0.5835(5)
C21_4 C 0.6119(2) 0.5880(5) 0.6232(6)
C22_4 C 0.5043(3) 0.2427(5) 0.3617(5)
C23_4 C 0.5225(3) 0.1985(6) 0.2724(6)
C24_4 C 0.5260(3) 0.2483(6) 0.1738(7)
H10_4 H 0.5373 0.2200 0.1109
C25_4 C 0.5125(4) 0.3399(7) 0.1721(6)
H11_4 H 0.5171 0.3751 0.1096
C26_4 C 0.4917(3) 0.3801(6) 0.2662(7)
H12_4 H 0.4804 0.4403 0.2631
C27_4 C 0.4985(3) 0.2000(5) 0.4734(5)
C28_4 C 0.5389(3) 0.0986(6) 0.2731(6)
C29_4 C 0.6305(3) 0.5807(5) 0.9454(5)
C30_4 C 0.6823(3) 0.5857(5) 0.9312(6)
C31_4 C 0.7039(3) 0.6704(7) 0.9471(7)
H13_4 H 0.7362 0.6767 0.9426
C32_4 C 0.6741(4) 0.7480(6) 0.9708(8)
H14_4 H 0.6867 0.8070 0.9765
C33_4 C 0.6249(3) 0.7332(6) 0.9857(7)
C34_4 C 0.6029(2) 0.4902(5) 0.9288(5)
C35_4 C 0.7155(3) 0.5054(6) 0.9101(7)
H18_4 H 0.750432 0.296866 0.717116
H19_4 H 0.74884 0.353781 0.603224
H22_4 H 0.575501 0.268521 0.661833
H23_4 H 0.55451 0.372243 0.669381
H24_3 H 0.419068 0.357681 0.695562
H25_3 H 0.432185 0.466001 0.683221
H26_4 H 0.538454 0.421424 0.624857
H27_4 H 0.531295 0.501257 0.533661
Ni2_2 Ni 0.03671(3) 0.87950(6) 0.00947(8)
O13_4 O 0.01779(18) 0.7479(4) 0.0493(4)
O26_4 O 0.0560(2) 0.9020(4) 0.1746(4)
H24_4 H 0.0809318 0.857681 0.195562
H25_4 H 0.0678151 0.966001 0.183221
H15_4 H 0.1061 0.7165 0.0031
O22_3 O 0.4441(2) 0.0611(4) 0.0672(4)
H1_3 H 0.4398 0.0209 0.3527
C4_3 C 0.4159(3) 0.0022(6) 0.5085(7)
H2_3 H 0.4358 0.0448 0.5410
H16_3 H 0.420782 0.111331 0.076127
H17_3 H 0.468537 0.080709 0.014429
O21_3 O 0.3578(3) 0.0546(7) 0.9470(7)
H20_3 H 0.324334 0.0361352 0.94862
H21_3 H 0.366372 0.0742703 0.871971
C4_4 C 0.5841(3) 0.9978(6) 0.0085(7)
H2_4 H 0.5642 0.9552 0.0410
O21_4 O 0.6422(3) 0.9454(7) 0.4470(7)
O22_4 O 0.5559(2) 0.9389(4) 0.5672(4)
H1_4 H 0.5602 0.9791 0.8527
H16_4 H 0.579218 0.888669 0.576127
H17_4 H 0.531463 0.919291 0.514429
H20_4 H 0.675666 0.963865 0.44862
H21_4 H 0.633628 0.92573 0.371971
loop_
_geom_bond_atom_site_label_1
_geom_bond_atom_site_label_2
_geom_bond_site_symmetry_1
_geom_bond_site_symmetry_2
C26 N4 1_555 1_555
H12 C26 1_555 1_555
O9 C20 1_555 1_555
O12 C21 1_555 1_555
N3 C15 1_555 1_555
N5 C29 1_555 1_555
C15 C16 1_555 1_555
C16 C17 1_555 1_555
C17 H7 1_555 1_555
C18 C17 1_555 1_555
H8 C18 1_555 1_555
C19 N3 1_555 1_555
H9 C19 1_555 1_555
C21 O11 1_555 1_555
C29 C30 1_555 1_555
C30 C31 1_555 1_555
C31 H13 1_555 1_555
C32 C31 1_555 1_555
H14 C32 1_555 1_555
C33 N5 1_555 1_555
H15 C33 1_555 1_555
Ni4 O9 1_555 1_555
N3 Ni4 1_555 1_555
N5 Ni5 1_555 1_555
C15 C20 1_555 1_555
C16 C21 1_555 1_555
C18 C19 1_555 1_555
C30 C35 1_555 1_555
C32 C33 1_555 1_555
Gd1 O3 1_555 1_555
Gd2 O1 1_555 1_555
Ni1 O2 1_555 1_555
O1 C6 1_555 1_555
O2 C6 1_555 1_555
O3 C7 1_555 1_555
O4 Gd1 1_555 1_555
O8 Gd2 1_555 1_555
O10 Gd2 1_555 1_555
O17 C34 1_555 1_555
O18 Gd2 1_555 1_555
O19 Gd2 1_555 1_555
O22 Gd1 1_555 1_555
O23 Gd2 1_555 1_555
O24 Gd2 1_555 1_555
N1 Ni1 1_555 1_555
C1 N1 1_555 1_555
C2 C1 1_555 1_555
C3 C2 1_555 1_555
H1 C3 1_555 1_555
C4 C3 1_555 1_555
H2 C4 1_555 1_555
C5 N1 1_555 1_555
H3 C5 1_555 1_555
C6 C1 1_555 1_555
C7 O4 1_555 1_555
C34 O18 1_555 1_555
O27 Ni1 1_555 1_555
O28 Ni1 1_555 1_555
N6 Ni1 1_555 1_555
N7 Ni1 1_555 1_555
C2 C7 1_555 1_555
C4 C5 1_555 1_555
O22 H16 1_555 1_555
O22 H17 1_555 1_555
O23 H18 1_555 1_555
O23 H19 1_555 1_555
O24 H22 1_555 1_555
O24 H23 1_555 1_555
O25 H26 1_555 1_555
O27 C13 1_555 1_555
O16 C28 1_555 1_555
N6 C8 1_555 1_555
C8 C9 1_555 1_555
C9 C10 1_555 1_555
C10 H4 1_555 1_555
C11 C10 1_555 1_555
H5 C11 1_555 1_555
C12 N6 1_555 1_555
H6 C12 1_555 1_555
C13 O6 1_555 1_555
C14 O7 1_555 1_555
C23 C22 1_555 1_555
C24 C23 1_555 1_555
H10 C24 1_555 1_555
C25 C24 1_555 1_555
H11 C25 1_555 1_555
C28 O15 1_555 1_555
C8 C13 1_555 1_555
C9 C14 1_555 1_555
C11 C12 1_555 1_555
C23 C28 1_555 1_555
O21 H20 1_555 1_555
O21 H21 1_555 1_555
N1_2 Ni1_2 1_555 1_555
H2_2 C4_2 1_555 1_555
C5_2 N1_2 1_555 1_555
H3_2 C5_2 1_555 1_555
O27_2 Ni1_2 1_555 1_555
O28_2 Ni1_2 1_555 1_555
N6_2 Ni1_2 1_555 1_555
N7_2 Ni1_2 1_555 1_555
C4_2 C5_2 1_555 1_555
Gd1_2 O3_2 1_555 1_555
Gd2_2 O1_2 1_555 1_555
O1_2 C6_2 1_555 1_555
O2_2 C6_2 1_555 1_555
O3_2 C7_2 1_555 1_555
O4_2 Gd1_2 1_555 1_555
O27_2 C13_2 1_555 1_555
O6_2 Gd1_2 1_555 1_555
O7_2 Gd1_2 1_555 1_555
O8_2 Gd2_2 1_555 1_555
O10_2 Gd2_2 1_555 1_555
O14_2 Gd1_2 1_555 1_555
O15_2 Gd1_2 1_555 1_555
O16_2 C28_2 1_555 1_555
O29 C34_2 1_555 1_555
O18_2 Gd2_2 1_555 1_555
O19_2 Gd2_2 1_555 1_555
O21_2 Gd1_2 1_555 1_555
O22_2 Gd1_2 1_555 1_555
O23_2 Gd2_2 1_555 1_555
O24_2 Gd2_2 1_555 1_555
N6_2 C8_2 1_555 1_555
C2_2 C1_2 1_555 1_555
C3_2 C2_2 1_555 1_555
H1_2 C3_2 1_555 1_555
C6_2 C1_2 1_555 1_555
C7_2 O4_2 1_555 1_555
C8_2 C9_2 1_555 1_555
C9_2 C10_2 1_555 1_555
C10_2 H4_2 1_555 1_555
C11_2 C10_2 1_555 1_555
H5_2 C11_2 1_555 1_555
C12_2 N6_2 1_555 1_555
H6_2 C12_2 1_555 1_555
C13_2 O6_2 1_555 1_555
C14_2 O7_2 1_555 1_555
C23_2 C22_2 1_555 1_555
C24_2 C23_2 1_555 1_555
H10_2 C24_2 1_555 1_555
C25_2 C24_2 1_555 1_555
H11_2 C25_2 1_555 1_555
C28_2 O15_2 1_555 1_555
C34_2 O18_2 1_555 1_555
O8_2 C14_2 1_555 1_555
C2_2 C7_2 1_555 1_555
C8_2 C13_2 1_555 1_555
C9_2 C14_2 1_555 1_555
C11_2 C12_2 1_555 1_555
C23_2 C28_2 1_555 1_555
O22_2 H16_2 1_555 1_555
O22_2 H17_2 1_555 1_555
O23_2 H18_2 1_555 1_555
O23_2 H19_2 1_555 1_555
O21_2 H20_2 1_555 1_555
O21_2 H21_2 1_555 1_555
O24_2 H22_2 1_555 1_555
O24_2 H23_2 1_555 1_555
O25_2 H26_2 1_555 1_555
O9_2 C20_2 1_555 1_555
O12_2 C21_2 1_555 1_555
N3_2 C15_2 1_555 1_555
N8 C29_2 1_555 1_555
C15_2 C16_2 1_555 1_555
C16_2 C17_2 1_555 1_555
C17_2 H7_2 1_555 1_555
C18_2 C17_2 1_555 1_555
H8_2 C18_2 1_555 1_555
C19_2 N3_2 1_555 1_555
H9_2 C19_2 1_555 1_555
C21_2 O11_2 1_555 1_555
C29_2 C30_2 1_555 1_555
C30_2 C31_2 1_555 1_555
C31_2 H13_2 1_555 1_555
C32_2 C31_2 1_555 1_555
H14_2 C32_2 1_555 1_555
C33_2 N8 1_555 1_555
Ni4_2 O9_2 1_555 1_555
N3_2 Ni4_2 1_555 1_555
C15_2 C20_2 1_555 1_555
C16_2 C21_2 1_555 1_555
C18_2 C19_2 1_555 1_555
C30_2 C35_2 1_555 1_555
C32_2 C33_2 1_555 1_555
Ni5 O13 1_555 1_555
O13 C27_2 1_555 1_555
O26 Ni5 1_555 1_555
N4_2 Ni5 1_555 1_555
C26_2 N4_2 1_555 1_555
H12_2 C26_2 1_555 1_555
O26 H24 1_555 1_555
O26 H25 1_555 1_555
Gd1_3 O3_3 1_555 1_555
Gd2_3 O1_3 1_555 1_555
Ni4_2 O2_3 1_555 1_555
Ni2 O13_2 1_555 1_555
O1_3 C6_3 1_555 1_555
O2_3 C6_3 1_555 1_555
O3_3 C7_3 1_555 1_555
O4_3 Gd1_3 1_555 1_555
O8_3 Gd2_3 1_555 1_555
O28_2 C20_3 1_555 1_555
O10_3 Gd2_3 1_555 1_555
O11_3 Gd2_3 1_555 1_555
O12_3 C21_3 1_555 1_555
O17_2 C34_3 1_555 1_555
O18_3 Gd2_3 1_555 1_555
O19_3 Gd2_3 1_555 1_555
O20_3 C35_3 1_555 1_555
O23_3 Gd2_3 1_555 1_555
O24_3 Gd2_3 1_555 1_555
O25_3 Ni2 1_555 1_555
O26_2 Ni2 1_555 1_555
N1_3 Ni4_2 1_555 1_555
N7_2 C15_3 1_555 1_555
N5_2 C29_3 1_555 1_555
C1_3 N1_3 1_555 1_555
C2_3 C1_3 1_555 1_555
C3_3 C2_3 1_555 1_555
C5_3 N1_3 1_555 1_555
H3_3 C5_3 1_555 1_555
C6_3 C1_3 1_555 1_555
C7_3 O4_3 1_555 1_555
C15_3 C16_3 1_555 1_555
C16_3 C17_3 1_555 1_555
C17_3 H7_3 1_555 1_555
C18_3 C17_3 1_555 1_555
H8_3 C18_3 1_555 1_555
C19_3 N7_2 1_555 1_555
H9_3 C19_3 1_555 1_555
C20_3 O10_3 1_555 1_555
C21_3 O11_3 1_555 1_555
C29_3 C30_3 1_555 1_555
C30_3 C31_3 1_555 1_555
C31_3 H13_3 1_555 1_555
C32_3 C31_3 1_555 1_555
H14_3 C32_3 1_555 1_555
C33_3 N5_2 1_555 1_555
H15_2 C33_3 1_555 1_555
C34_3 O18_3 1_555 1_555
C35_3 O19_3 1_555 1_555
Ni5_2 O17_2 1_555 1_555
O27_3 Ni4_2 1_555 1_555
N6_3 Ni4_2 1_555 1_555
N5_2 Ni5_2 1_555 1_555
C2_3 C7_3 1_555 1_555
C15_3 C20_3 1_555 1_555
C16_3 C21_3 1_555 1_555
C18_3 C19_3 1_555 1_555
C29_3 C34_3 1_555 1_555
C30_3 C35_3 1_555 1_555
C32_3 C33_3 1_555 1_555
O23_3 H18_3 1_555 1_555
O23_3 H19_3 1_555 1_555
O24_3 H22_3 1_555 1_555
O24_3 H23_3 1_555 1_555
O26_2 H24_2 1_555 1_555
O26_2 H25_2 1_555 1_555
O25_3 H26_3 1_555 1_555
O25_3 H27_3 1_555 1_555
O27_3 C13_3 1_555 1_555
O16_3 C28_3 1_555 1_555
N6_3 C8_3 1_555 1_555
C8_3 C9_3 1_555 1_555
C9_3 C10_3 1_555 1_555
C10_3 H4_3 1_555 1_555
C11_3 C10_3 1_555 1_555
H5_3 C11_3 1_555 1_555
C12_3 N6_3 1_555 1_555
H6_3 C12_3 1_555 1_555
C13_3 O6_3 1_555 1_555
C14_3 O7_3 1_555 1_555
C22_3 N4_3 1_555 1_555
C23_3 C22_3 1_555 1_555
C24_3 C23_3 1_555 1_555
H10_3 C24_3 1_555 1_555
C25_3 C24_3 1_555 1_555
H11_3 C25_3 1_555 1_555
C26_3 N4_3 1_555 1_555
H12_3 C26_3 1_555 1_555
C27_3 O14_3 1_555 1_555
C28_3 O15_3 1_555 1_555
C8_3 C13_3 1_555 1_555
C9_3 C14_3 1_555 1_555
C11_3 C12_3 1_555 1_555
C22_3 C27_3 1_555 1_555
C23_3 C28_3 1_555 1_555
C25_3 C26_3 1_555 1_555
N1_4 Ni4 1_555 1_555
C5_4 N1_4 1_555 1_555
H3_4 C5_4 1_555 1_555
O27_4 Ni4 1_555 1_555
N6_4 Ni4 1_555 1_555
Gd1_4 O3_4 1_555 1_555
Gd2_4 O1_4 1_555 1_555
Ni5_2 O13_3 1_555 1_555
O1_4 C6_4 1_555 1_555
O2_4 C6_4 1_555 1_555
O3_4 C7_4 1_555 1_555
O4_4 Gd1_4 1_555 1_555
O27_4 C13_4 1_555 1_555
O6_4 Gd1_4 1_555 1_555
O7_4 Gd1_4 1_555 1_555
O8_4 Gd2_4 1_555 1_555
O28 C20_4 1_555 1_555
O10_4 Gd2_4 1_555 1_555
O11_4 Gd2_4 1_555 1_555
O12_4 C21_4 1_555 1_555
O13_3 C27_4 1_555 1_555
O14_4 Gd1_4 1_555 1_555
O15_4 Gd1_4 1_555 1_555
O16_4 C28_4 1_555 1_555
O29_2 C34_4 1_555 1_555
O18_4 Gd2_4 1_555 1_555
O19_4 Gd2_4 1_555 1_555
O20_4 C35_4 1_555 1_555
O23_4 Gd2_4 1_555 1_555
O24_4 Gd2_4 1_555 1_555
O25_4 Ni5_2 1_555 1_555
O26_3 Ni5_2 1_555 1_555
N6_4 C8_4 1_555 1_555
N7 C15_4 1_555 1_555
N4_4 Ni5_2 1_555 1_555
N8_2 C29_4 1_555 1_555
C2_4 C1_4 1_555 1_555
C3_4 C2_4 1_555 1_555
C6_4 C1_4 1_555 1_555
C7_4 O4_4 1_555 1_555
C8_4 C9_4 1_555 1_555
C9_4 C10_4 1_555 1_555
C10_4 H4_4 1_555 1_555
C11_4 C10_4 1_555 1_555
H5_4 C11_4 1_555 1_555
C12_4 N6_4 1_555 1_555
H6_4 C12_4 1_555 1_555
C13_4 O6_4 1_555 1_555
C14_4 O7_4 1_555 1_555
C15_4 C16_4 1_555 1_555
C16_4 C17_4 1_555 1_555
C17_4 H7_4 1_555 1_555
C18_4 C17_4 1_555 1_555
H8_4 C18_4 1_555 1_555
C19_4 N7 1_555 1_555
H9_4 C19_4 1_555 1_555
C20_4 O10_4 1_555 1_555
C21_4 O11_4 1_555 1_555
C22_4 N4_4 1_555 1_555
C23_4 C22_4 1_555 1_555
C24_4 C23_4 1_555 1_555
H10_4 C24_4 1_555 1_555
C25_4 C24_4 1_555 1_555
H11_4 C25_4 1_555 1_555
C26_4 N4_4 1_555 1_555
H12_4 C26_4 1_555 1_555
C27_4 O14_4 1_555 1_555
C28_4 O15_4 1_555 1_555
C29_4 C30_4 1_555 1_555
C30_4 C31_4 1_555 1_555
C31_4 H13_4 1_555 1_555
C32_4 C31_4 1_555 1_555
H14_4 C32_4 1_555 1_555
C33_4 N8_2 1_555 1_555
C34_4 O18_4 1_555 1_555
C35_4 O19_4 1_555 1_555
O8_4 C14_4 1_555 1_555
C2_4 C7_4 1_555 1_555
C8_4 C13_4 1_555 1_555
C9_4 C14_4 1_555 1_555
C11_4 C12_4 1_555 1_555
C15_4 C20_4 1_555 1_555
C16_4 C21_4 1_555 1_555
C18_4 C19_4 1_555 1_555
C22_4 C27_4 1_555 1_555
C23_4 C28_4 1_555 1_555
C25_4 C26_4 1_555 1_555
C29_4 C34_4 1_555 1_555
C30_4 C35_4 1_555 1_555
C32_4 C33_4 1_555 1_555
O23_4 H18_4 1_555 1_555
O23_4 H19_4 1_555 1_555
O24_4 H22_4 1_555 1_555
O24_4 H23_4 1_555 1_555
O26_3 H24_3 1_555 1_555
O26_3 H25_3 1_555 1_555
O25_4 H26_4 1_555 1_555
O25_4 H27_4 1_555 1_555
Ni2_2 O13_4 1_555 1_555
O26_4 Ni2_2 1_555 1_555
O26_4 H24_4 1_555 1_555
O26_4 H25_4 1_555 1_555
H2_3 C4_3 1_555 1_555
O22_3 H16_3 1_555 1_555
O22_3 H17_3 1_555 1_555
O21_3 H20_3 1_555 1_555
O21_3 H21_3 1_555 1_555
H2_4 C4_4 1_555 1_555
O22_4 H16_4 1_555 1_555
O22_4 H17_4 1_555 1_555
O21_4 H20_4 1_555 1_555
O21_4 H21_4 1_555 1_555

#END
