
###############################################################################
#
# This file contains modified crystal structure data generated from the
# MOF subset of the Cambridge Structural Database (CSD) v543 
# hosted by the Cambridge Crystallographic Data Centre (CCDC).
#
# This work is licensed under the Creative Commons
# Attribution-NonCommercial-ShareAlike 4.0 International License.
# To view a copy of this license, visit
# http://creativecommons.org/licenses/by-nc-sa/4.0/
# or send a letter to
# Creative Commons, PO Box 1866, Mountain View, CA 94042, USA.
#
# CIF created using the CSD Python API on 29 September 2022
# The structure has been converted into the P1 space group
# The structure has a 3D framework
# The original CSD entry RASPEJ is in the monoclinic crystal system
# The framework has been calculated to contain at least 10.0% void space
# The void calculation uses a probe of radius 1.32A, grid spacing 0.4
#
###############################################################################

data_RASPEJ
_chemical_formula_moiety         '(C232 H184 Cu9 N32 O36)n'
_symmetry_cell_setting           triclinic
_symmetry_space_group_name_H-M   'P 1'
_symmetry_Int_Tables_number      1
_space_group_name_Hall           'P 1'
loop_
_symmetry_equiv_pos_site_id
_symmetry_equiv_pos_as_xyz
1 x,y,z
_cell_length_a                   16.1437(3)
_cell_length_b                   18.1433(3)
_cell_length_c                   24.1533(5)
_cell_angle_alpha                90
_cell_angle_beta                 98.644(2)
_cell_angle_gamma                90
_cell_volume                     6994.14
loop_
_atom_site_label
_atom_site_type_symbol
_atom_site_fract_x
_atom_site_fract_y
_atom_site_fract_z
Cu11 Cu 0.02287(2) 0.40990(2) 0.88142(2)
Cu1 Cu 0.02287(2) 0.09010(2) 0.38142(2)
Cu2 Cu 0.0000 -0.0000 0.5000
O9 O 0.05567(12) 0.09527(9) 0.50345(8)
H45 H 0.0261(17) 0.1336(13) 0.4907(12)
H46 H 0.1061(12) 0.0940(16) 0.4952(12)
O24 O 0.13871(12) 0.10790(11) 0.37609(8)
Cu2_2 Cu 0.0000 1.0000 0.5000
O19 O 0.10702(11) 0.95911(9) 0.53562(7)
O20 O 0.05021(12) 0.99018(9) 0.40724(8)
O22 O 0.04324(14) 0.97536(11) 0.31567(8)
C110 C 0.93515(18) 0.03697(14) 0.88286(13)
C111 C 0.94043(19) 0.06743(16) 0.93629(13)
H87 H 0.9354 0.0367 0.9675
C112 C 0.95308(19) 0.14252(15) 0.94381(12)
H88 H 0.9565 0.1631 0.9802
C113 C 0.96082(17) 0.18793(14) 0.89871(11)
C114 C 0.95592(19) 0.15807(15) 0.84576(12)
H89 H 0.9616 0.1890 0.8148
C115 C 0.9426(2) 0.08273(15) 0.83754(13)
H90 H 0.9387 0.0625 0.8010
C116 C 0.97705(16) 0.26872(14) 0.90873(11)
O16 O 0.97014(13) 0.29424(10) 0.95551(8)
O17 O 0.99877(12) 0.30550(10) 0.86810(8)
N1 N 0.25784(15) 0.27615(13) 0.32088(9)
C1 C 0.18353(17) 0.30783(14) 0.39678(11)
H1 H 0.1881 0.2998 0.4377
H2 H 0.1345 0.2797 0.3783
Cu2_3 Cu 1.0000 -0.0000 0.5000
N2 N 0.25863(13) 0.28058(11) 0.37750(9)
Cu3 Cu 0.17179(2) 0.34136(2) 0.26847(2)
C2 C 0.33090(18) 0.25490(15) 0.40622(12)
C3 C 0.37882(18) 0.23295(16) 0.36695(12)
C4 C 0.33133(18) 0.24765(16) 0.31460(12)
C5 C 0.4601(2) 0.20112(19) 0.37676(14)
C6 C 0.5282(2) 0.1740(2) 0.38334(15)
C7 C 0.3469(2) 0.2502(2) 0.46882(13)
H3 H 0.3411 0.2992 0.4848
H4 H 0.4037 0.2317 0.4810
H5 H 0.3063 0.2165 0.4817
C8 C 0.3537(2) 0.2333(2) 0.25781(14)
H6 H 0.3043 0.2410 0.2294
H7 H 0.3732 0.1823 0.2558
H8 H 0.3984 0.2671 0.2509
C9 C 0.6118(2) 0.1427(2) 0.39122(14)
C10 C 0.6576(2) 0.1406(2) 0.34752(15)
H9 H 0.6331 0.1577 0.3116
C11 C 0.7382(2) 0.1141(2) 0.35523(13)
H10 H 0.7691 0.1133 0.3247
C12 C 0.77447(18) 0.08859(15) 0.40715(12)
C13 C 0.72795(19) 0.08833(18) 0.45083(13)
H11 H 0.7520 0.0697 0.4864
C14 C 0.6472(2) 0.1149(2) 0.44325(14)
H12 H 0.6156 0.1142 0.4734
C15 C 0.86431(17) 0.06457(14) 0.41618(11)
O1 O 0.90379(12) 0.07188(10) 0.37538(8)
O2 O 0.89298(11) 0.04089(9) 0.46438(7)
N3 N 0.14781(14) 0.40610(11) 0.32953(9)
N4 N 0.17059(14) 0.38591(11) 0.38464(9)
C16 C 0.17738(19) 0.44454(15) 0.41928(11)
C17 C 0.15804(18) 0.50568(14) 0.38547(12)
C18 C 0.14018(17) 0.47871(14) 0.33017(11)
C19 C 0.1532(2) 0.58159(15) 0.39870(12)
C20 C 0.1421(2) 0.64635(16) 0.39912(13)
C21 C 0.1990(3) 0.43949(18) 0.48128(13)
H13 H 0.1520 0.4176 0.4969
H14 H 0.2103 0.4889 0.4969
H15 H 0.2488 0.4086 0.4909
C22 C 0.1163(2) 0.52227(16) 0.27781(12)
H16 H 0.1670 0.5363 0.2625
H17 H 0.0862 0.5668 0.2862
H18 H 0.0802 0.4924 0.2503
C23 C 0.12485(19) 0.72400(15) 0.39219(12)
C24 C 0.12582(19) 0.77156(15) 0.43726(12)
H19 H 0.1408 0.7537 0.4744
C25 C 0.10503(18) 0.84491(14) 0.42813(12)
H20 H 0.1061 0.8771 0.4592
C26 C 0.08275(17) 0.87220(14) 0.37446(11)
C27 C 0.0829(2) 0.82447(16) 0.32948(13)
H21 H 0.0687 0.8424 0.2923
C28 C 0.1035(2) 0.75150(17) 0.33844(13)
H22 H 0.1032 0.7194 0.3073
C29 C 0.05741(17) 0.95104(15) 0.36393(12)
N5 N 0.24721(15) 0.40474(13) 0.22243(9)
C30 C 0.14937(18) 0.37317(14) 0.14003(11)
H23 H 0.1083 0.4060 0.1542
H24 H 0.1440 0.3800 0.0990
N6 N 0.23346(15) 0.39362(12) 0.16566(9)
C31 C 0.3016(2) 0.40851(15) 0.14172(12)
C32 C 0.3629(2) 0.43096(17) 0.18467(13)
C33 C 0.32585(19) 0.42763(18) 0.23391(12)
C34 C 0.4434(2) 0.4555(2) 0.17714(14)
C35 C 0.5082(2) 0.4769(2) 0.16486(16)
C36 C 0.3057(3) 0.3985(2) 0.08190(14)
H25 H 0.2988 0.3461 0.0723
H26 H 0.3601 0.4157 0.0737
H27 H 0.2608 0.4269 0.0598
C37 C 0.3642(2) 0.4457(3) 0.29293(14)
H28 H 0.3279 0.4273 0.3189
H29 H 0.3703 0.4993 0.2970
H30 H 0.4194 0.4224 0.3013
C38 C 0.5835(2) 0.5045(2) 0.14616(15)
C39 C 0.6554(2) 0.5184(2) 0.18268(15)
H31 H 0.6569 0.5091 0.2215
C40 C 0.7260(2) 0.5458(2) 0.16337(14)
H32 H 0.7756 0.5547 0.1891
C41 C 0.72484(19) 0.56019(17) 0.10752(13)
C42 C 0.6528(2) 0.5450(2) 0.07050(14)
H33 H 0.6517 0.5540 0.0316
C43 C 0.5829(2) 0.5172(2) 0.08926(15)
H34 H 0.5341 0.5065 0.0633
C44 C 0.80153(19) 0.59069(16) 0.08674(13)
O5 O 0.86129(12) 0.60790(11) 0.12391(8)
O6 O 0.80140(13) 0.59519(14) 0.03517(9)
N7 N 0.12036(14) 0.27992(11) 0.20554(9)
N8 N 0.13057(14) 0.29752(11) 0.15203(9)
C45 C 0.12119(18) 0.23797(14) 0.11762(11)
C46 C 0.10274(18) 0.17972(14) 0.15041(11)
C47 C 0.10247(18) 0.20804(14) 0.20464(11)
C48 C 0.08842(19) 0.10476(15) 0.13429(12)
C49 C 0.0774(2) 0.04072(16) 0.12573(13)
C50 C 0.1291(2) 0.23985(16) 0.05716(12)
H35 H 0.0812 0.2663 0.0365
H36 H 0.1302 0.1894 0.0429
H37 H 0.1811 0.2651 0.0522
C51 C 0.0859(2) 0.16876(16) 0.25522(13)
H38 H 0.1346 0.1733 0.2846
H39 H 0.0753 0.1166 0.2464
H40 H 0.0366 0.1903 0.2684
N9 N 0.74216(15) 0.72385(13) 0.67912(9)
C59 C 0.81647(17) 0.69217(14) 0.60322(11)
H47 H 0.8119 0.7002 0.5623
H48 H 0.8655 0.7203 0.6217
N10 N 0.74137(13) 0.71942(11) 0.62250(9)
Cu5 Cu 0.82821(2) 0.65864(2) 0.73153(2)
C60 C 0.66910(18) 0.74510(15) 0.59378(12)
C61 C 0.62118(18) 0.76705(16) 0.63305(12)
C62 C 0.66867(18) 0.75235(16) 0.68540(12)
C63 C 0.5399(2) 0.79888(19) 0.62324(14)
C64 C 0.4718(2) 0.8260(2) 0.61666(15)
C65 C 0.6531(2) 0.7498(2) 0.53118(13)
H49 H 0.6589 0.7008 0.5152
H50 H 0.5963 0.7683 0.5190
H51 H 0.6937 0.7835 0.5183
C66 C 0.6463(2) 0.7667(2) 0.74219(14)
H52 H 0.6957 0.7590 0.7706
H53 H 0.6268 0.8177 0.7442
H54 H 0.6016 0.7329 0.7491
C67 C 0.3882(2) 0.8573(2) 0.60878(14)
C68 C 0.3424(2) 0.8594(2) 0.65248(15)
H55 H 0.3669 0.8423 0.6884
C69 C 0.2618(2) 0.8859(2) 0.64477(13)
H56 H 0.2309 0.8867 0.6753
C70 C 0.22553(18) 0.91141(15) 0.59285(12)
C71 C 0.27205(19) 0.91167(18) 0.54917(13)
H57 H 0.2480 0.9303 0.5136
C72 C 0.3528(2) 0.8851(2) 0.55675(14)
H58 H 0.3844 0.8858 0.5266
C73 C 0.13569(17) 0.93543(14) 0.58382(11)
O10 O 0.09621(12) 0.92812(10) 0.62462(8)
N11 N 0.85219(14) 0.59390(11) 0.67047(9)
N12 N 0.82941(14) 0.61409(11) 0.61536(9)
C74 C 0.82262(19) 0.55546(15) 0.58072(11)
C75 C 0.84196(18) 0.49432(14) 0.61453(12)
C76 C 0.85982(17) 0.52129(14) 0.66983(11)
C77 C 0.8468(2) 0.41841(15) 0.60130(12)
C78 C 0.8579(2) 0.35365(16) 0.60088(13)
C79 C 0.8010(3) 0.56051(18) 0.51872(13)
H59 H 0.8480 0.5824 0.5031
H60 H 0.7897 0.5111 0.5031
H61 H 0.7512 0.5914 0.5091
C80 C 0.8837(2) 0.47773(16) 0.72219(12)
H62 H 0.8330 0.4637 0.7375
H63 H 0.9138 0.4332 0.7138
H64 H 0.9198 0.5076 0.7497
C81 C 0.87515(19) 0.27600(15) 0.60781(12)
C82 C 0.87418(19) 0.22844(15) 0.56274(12)
H65 H 0.8592 0.2463 0.5256
C83 C 0.89497(18) 0.15509(14) 0.57187(12)
H66 H 0.8939 0.1229 0.5408
C84 C 0.91725(17) 0.12780(14) 0.62554(11)
C85 C 0.9171(2) 0.17553(16) 0.67052(13)
H67 H 0.9313 0.1576 0.7077
C86 C 0.8965(2) 0.24850(17) 0.66156(13)
H68 H 0.8968 0.2806 0.6927
C87 C 0.94259(17) 0.04896(15) 0.63607(12)
O12 O 0.94979(12) 0.00982(9) 0.59276(8)
O13 O 0.95676(14) 0.02464(11) 0.68433(8)
N13 N 0.75279(15) 0.59526(13) 0.77757(9)
C88 C 0.85063(18) 0.62683(14) 0.85997(11)
H69 H 0.8917 0.5940 0.8458
H70 H 0.8560 0.6200 0.9010
N14 N 0.76654(15) 0.60638(12) 0.83434(9)
C89 C 0.6984(2) 0.59149(15) 0.85828(12)
C90 C 0.6371(2) 0.56904(17) 0.81533(13)
C91 C 0.67415(19) 0.57237(18) 0.76609(12)
C92 C 0.5566(2) 0.5445(2) 0.82286(14)
C93 C 0.4918(2) 0.5231(2) 0.83514(16)
C94 C 0.6943(3) 0.6015(2) 0.91810(14)
H71 H 0.7012 0.6539 0.9277
H72 H 0.6399 0.5843 0.9263
H73 H 0.7392 0.5731 0.9402
C95 C 0.6358(2) 0.5543(3) 0.70707(14)
H74 H 0.6721 0.5727 0.6811
H75 H 0.6297 0.5007 0.7030
H76 H 0.5806 0.5776 0.6987
C96 C 0.4165(2) 0.4955(2) 0.85384(15)
C97 C 0.3446(2) 0.4816(2) 0.81732(15)
H77 H 0.3431 0.4909 0.7785
C98 C 0.2740(2) 0.4542(2) 0.83663(14)
H78 H 0.2244 0.4453 0.8109
C99 C 0.27516(19) 0.43981(17) 0.89248(13)
C100 C 0.3472(2) 0.4550(2) 0.92950(14)
H79 H 0.3483 0.4460 0.9684
C101 C 0.4171(2) 0.4828(2) 0.91074(15)
H80 H 0.4659 0.4935 0.9367
C102 C 0.19847(19) 0.40931(16) 0.91326(13)
O14 O 0.13871(12) 0.39210(11) 0.87609(8)
O15 O 0.19860(13) 0.40481(14) 0.96483(9)
N15 N 0.87964(14) 0.72008(11) 0.79446(9)
N16 N 0.86943(14) 0.70248(11) 0.84797(9)
C103 C 0.87881(18) 0.76203(14) 0.88238(11)
C104 C 0.89726(18) 0.82028(14) 0.84959(11)
C105 C 0.89753(18) 0.79196(14) 0.79536(11)
C106 C 0.91158(19) 0.89524(15) 0.86571(12)
C107 C 0.9226(2) 0.95928(16) 0.87427(13)
C108 C 0.8709(2) 0.76015(16) 0.94284(12)
H81 H 0.9188 0.7337 0.9635
H82 H 0.8698 0.8106 0.9571
H83 H 0.8189 0.7349 0.9478
C109 C 0.9141(2) 0.83124(16) 0.74478(13)
H84 H 0.8654 0.8267 0.7154
H85 H 0.9247 0.8834 0.7536
H86 H 0.9634 0.8097 0.7316
Cu8 Cu 0.97713(2) 0.59010(2) 0.11858(2)
O26 O 0.99877(12) 0.19450(10) 0.36810(8)
O27 O 0.00123(12) 0.80550(10) 0.63190(8)
Cu2_4 Cu 1.0000 1.0000 0.5000
C52 C 0.06485(18) 0.96303(14) 0.11714(13)
C53 C 0.05957(19) 0.93257(16) 0.06371(13)
H41 H 0.0646 0.9633 0.0325
C54 C 0.04692(19) 0.85748(15) 0.05619(12)
H42 H 0.0435 0.8369 0.0198
C55 C 0.03918(17) 0.81207(14) 0.10129(11)
C56 C 0.04408(19) 0.84193(15) 0.15424(12)
H43 H 0.0384 0.8110 0.1852
C57 C 0.0574(2) 0.91727(15) 0.16246(13)
H44 H 0.0613 0.9375 0.1990
C58 C 0.02295(16) 0.73128(14) 0.09127(11)
O7 O 0.02986(13) 0.70576(10) 0.04449(8)
O8 O 0.00123(12) 0.69450(10) 0.13190(8)
O18 O 0.94433(12) 0.90473(9) 0.49655(8)
H91 H 0.9739(17) 0.8664(13) 0.5093(12)
H92 H 0.8939(12) 0.9060(16) 0.5048(12)
Cu9 Cu 0.97713(2) 0.90990(2) 0.61858(2)
O25 O 0.86129(12) 0.89210(11) 0.62391(8)
Cu12 Cu -0.0000 0.5000 0.0000
Cu12_2 Cu 0.0000 0.5000 1.0000
O21 O 0.05021(12) 0.50982(9) 0.90724(8)
O23 O 0.04324(14) 0.52464(11) 0.81567(8)
C17_2 C 0.84196(18) 0.00568(14) 0.11453(12)
C19_2 C 0.8468(2) 0.08159(15) 0.10130(12)
C20_2 C 0.8579(2) 0.14635(16) 0.10088(13)
C22_2 C 0.8837(2) 0.02227(16) 0.22219(12)
H16_2 H 0.8330 0.0363 0.2375
H17_2 H 0.9138 0.0668 0.2138
C23_2 C 0.87515(19) 0.22400(15) 0.10781(12)
C24_2 C 0.87418(19) 0.27156(15) 0.06274(12)
H19_2 H 0.8592 0.2537 0.0256
C25_2 C 0.89497(18) 0.34491(14) 0.07187(12)
H20_2 H 0.8939 0.3771 0.0408
C26_2 C 0.91725(17) 0.37220(14) 0.12554(11)
C27_2 C 0.9171(2) 0.32447(16) 0.17052(13)
H21_2 H 0.9313 0.3424 0.2077
C28_2 C 0.8965(2) 0.25150(17) 0.16156(13)
H22_2 H 0.8968 0.2194 0.1927
C29_2 C 0.94259(17) 0.45104(15) 0.13607(12)
O3 O 0.94979(12) 0.49018(9) 0.09276(8)
O4 O 0.95676(14) 0.47536(11) 0.18433(8)
C38_2 C 0.4165(2) 0.0045(2) 0.35384(15)
C39_2 C 0.3446(2) 0.0184(2) 0.31732(15)
H31_2 H 0.3431 0.0091 0.2785
C40_2 C 0.2740(2) 0.0458(2) 0.33663(14)
H32_2 H 0.2244 0.0547 0.3109
C41_2 C 0.27516(19) 0.06019(17) 0.39248(13)
C42_2 C 0.3472(2) 0.0450(2) 0.42950(14)
H33_2 H 0.3483 0.0540 0.4684
C43_2 C 0.4171(2) 0.0172(2) 0.41074(15)
H34_2 H 0.4659 0.0065 0.4367
C44_2 C 0.19847(19) 0.09069(16) 0.41326(13)
O6_2 O 0.19860(13) 0.09519(14) 0.46483(9)
Cu12_3 Cu 1.0000 0.5000 0.0000
N9_2 N 0.25784(15) 0.22385(13) 0.82088(9)
C59_2 C 0.18353(17) 0.19217(14) 0.89678(11)
H47_2 H 0.1881 0.2002 0.9377
H48_2 H 0.1345 0.2203 0.8783
N10_2 N 0.25863(13) 0.21942(11) 0.87750(9)
Cu5_2 Cu 0.17179(2) 0.15864(2) 0.76847(2)
C60_2 C 0.33090(18) 0.24510(15) 0.90622(12)
C61_2 C 0.37882(18) 0.26705(16) 0.86695(12)
C62_2 C 0.33133(18) 0.25235(16) 0.81460(12)
C63_2 C 0.4601(2) 0.29888(19) 0.87676(14)
C64_2 C 0.5282(2) 0.3260(2) 0.88334(15)
C65_2 C 0.3469(2) 0.2498(2) 0.96882(13)
H49_2 H 0.3411 0.2008 0.9848
H50_2 H 0.4037 0.2683 0.9810
H51_2 H 0.3063 0.2835 0.9817
C66_2 C 0.3537(2) 0.2667(2) 0.75781(14)
H52_2 H 0.3043 0.2590 0.7294
H53_2 H 0.3732 0.3177 0.7558
H54_2 H 0.3984 0.2329 0.7509
C67_2 C 0.6118(2) 0.3573(2) 0.89122(14)
C68_2 C 0.6576(2) 0.3594(2) 0.84752(15)
H55_2 H 0.6331 0.3423 0.8116
C69_2 C 0.7382(2) 0.3859(2) 0.85523(13)
H56_2 H 0.7691 0.3867 0.8247
C70_2 C 0.77447(18) 0.41141(15) 0.90715(12)
C71_2 C 0.72795(19) 0.41167(18) 0.95083(13)
H57_2 H 0.7520 0.4303 0.9864
C72_2 C 0.6472(2) 0.3851(2) 0.94325(14)
H58_2 H 0.6156 0.3858 0.9734
C73_2 C 0.86431(17) 0.43543(14) 0.91618(11)
O10_2 O 0.90379(12) 0.42812(10) 0.87538(8)
O11 O 0.89298(11) 0.45911(9) 0.96438(7)
N11_2 N 0.14781(14) 0.09390(11) 0.82953(9)
N12_2 N 0.17059(14) 0.11409(11) 0.88464(9)
C74_2 C 0.17738(19) 0.05546(15) 0.91928(11)
C76_2 C 0.14018(17) 0.02129(14) 0.83017(11)
C79_2 C 0.1990(3) 0.06051(18) 0.98128(13)
H59_2 H 0.1520 0.0824 0.9969
H60_2 H 0.2103 0.0111 0.9969
H61_2 H 0.2488 0.0914 0.9909
H64_2 H 0.0802 0.0076 0.7503
N13_2 N 0.24721(15) 0.09526(13) 0.72243(9)
C88_2 C 0.14937(18) 0.12683(14) 0.64003(11)
H69_2 H 0.1083 0.0940 0.6542
H70_2 H 0.1440 0.1200 0.5990
N14_2 N 0.23346(15) 0.10638(12) 0.66566(9)
C89_2 C 0.3016(2) 0.09149(15) 0.64172(12)
C90_2 C 0.3629(2) 0.06904(17) 0.68467(13)
C91_2 C 0.32585(19) 0.07237(18) 0.73391(12)
C92_2 C 0.4434(2) 0.0445(2) 0.67714(14)
C93_2 C 0.5082(2) 0.0231(2) 0.66486(16)
C94_2 C 0.3057(3) 0.1015(2) 0.58190(14)
H71_2 H 0.2988 0.1539 0.5723
H72_2 H 0.3601 0.0843 0.5737
H73_2 H 0.2608 0.0731 0.5598
C95_2 C 0.3642(2) 0.0543(3) 0.79293(14)
H74_2 H 0.3279 0.0727 0.8189
H75_2 H 0.3703 0.0007 0.7970
H76_2 H 0.4194 0.0776 0.8013
N15_2 N 0.12036(14) 0.22008(11) 0.70554(9)
N16_2 N 0.13057(14) 0.20248(11) 0.65203(9)
C103_2 C 0.12119(18) 0.26203(14) 0.61762(11)
C104_2 C 0.10274(18) 0.32028(14) 0.65041(11)
C105_2 C 0.10247(18) 0.29196(14) 0.70464(11)
C106_2 C 0.08842(19) 0.39524(15) 0.63429(12)
C107_2 C 0.0774(2) 0.45928(16) 0.62573(13)
C108_2 C 0.1291(2) 0.26015(16) 0.55716(12)
H81_2 H 0.0812 0.2337 0.5365
H82_2 H 0.1302 0.3106 0.5429
H83_2 H 0.1811 0.2349 0.5522
C109_2 C 0.0859(2) 0.33124(16) 0.75522(13)
H84_2 H 0.1346 0.3267 0.7846
H85_2 H 0.0753 0.3834 0.7464
H86_2 H 0.0366 0.3097 0.7684
C110_2 C 0.06485(18) 0.53697(14) 0.61714(13)
C111_2 C 0.05957(19) 0.56743(16) 0.56371(13)
H87_2 H 0.0646 0.5367 0.5325
C112_2 C 0.04692(19) 0.64252(15) 0.55619(12)
H88_2 H 0.0435 0.6631 0.5198
C113_2 C 0.03918(17) 0.68793(14) 0.60129(11)
C114_2 C 0.04408(19) 0.65807(15) 0.65424(12)
H89_2 H 0.0384 0.6890 0.6852
C115_2 C 0.0574(2) 0.58273(15) 0.66246(13)
H90_2 H 0.0613 0.5625 0.6990
C116_2 C 0.02295(16) 0.76872(14) 0.59127(11)
O16_2 O 0.02986(13) 0.79424(10) 0.54449(8)
Cu12_4 Cu 1.0000 0.5000 1.0000
N1_2 N 0.74216(15) 0.77615(13) 0.17912(9)
C1_2 C 0.81647(17) 0.80783(14) 0.10322(11)
H1_2 H 0.8119 0.7998 0.0623
H2_2 H 0.8655 0.7797 0.1217
N2_2 N 0.74137(13) 0.78058(11) 0.12250(9)
Cu3_2 Cu 0.82821(2) 0.84136(2) 0.23153(2)
C2_2 C 0.66910(18) 0.75490(15) 0.09378(12)
C3_2 C 0.62118(18) 0.73295(16) 0.13305(12)
C4_2 C 0.66867(18) 0.74765(16) 0.18540(12)
C5_2 C 0.5399(2) 0.70112(19) 0.12324(14)
C6_2 C 0.4718(2) 0.6740(2) 0.11666(15)
C7_2 C 0.6531(2) 0.7502(2) 0.03118(13)
H3_2 H 0.6589 0.7992 0.0152
H4_2 H 0.5963 0.7317 0.0190
H5_2 H 0.6937 0.7165 0.0183
C8_2 C 0.6463(2) 0.7333(2) 0.24219(14)
H6_2 H 0.6957 0.7410 0.2706
H7_2 H 0.6268 0.6823 0.2442
H8_2 H 0.6016 0.7671 0.2491
C9_2 C 0.3882(2) 0.6427(2) 0.10878(14)
C10_2 C 0.3424(2) 0.6406(2) 0.15248(15)
H9_2 H 0.3669 0.6577 0.1884
C11_2 C 0.2618(2) 0.6141(2) 0.14477(13)
H10_2 H 0.2309 0.6133 0.1753
C12_2 C 0.22553(18) 0.58859(15) 0.09285(12)
C13_2 C 0.27205(19) 0.58833(18) 0.04917(13)
H11_2 H 0.2480 0.5697 0.0136
C14_2 C 0.3528(2) 0.6149(2) 0.05675(14)
H12_2 H 0.3844 0.6142 0.0266
C15_2 C 0.13569(17) 0.56457(14) 0.08382(11)
O1_2 O 0.09621(12) 0.57188(10) 0.12462(8)
O2_2 O 0.10702(11) 0.54089(9) 0.03562(7)
N3_2 N 0.85219(14) 0.90610(11) 0.17047(9)
N4_2 N 0.82941(14) 0.88591(11) 0.11536(9)
C16_2 C 0.82262(19) 0.94454(15) 0.08072(11)
C18_2 C 0.85982(17) 0.97871(14) 0.16983(11)
C21_2 C 0.8010(3) 0.93949(18) 0.01872(13)
H13_2 H 0.8480 0.9176 0.0031
H14_2 H 0.7897 0.9889 0.0031
H15_2 H 0.7512 0.9086 0.0091
H18_2 H 0.9198 0.9924 0.2497
N5_2 N 0.75279(15) 0.90474(13) 0.27757(9)
C30_2 C 0.85063(18) 0.87317(14) 0.35997(11)
H23_2 H 0.8917 0.9060 0.3458
H24_2 H 0.8560 0.8800 0.4010
N6_2 N 0.76654(15) 0.89362(12) 0.33434(9)
C31_2 C 0.6984(2) 0.90851(15) 0.35828(12)
C32_2 C 0.6371(2) 0.93096(17) 0.31533(13)
C33_2 C 0.67415(19) 0.92763(18) 0.26609(12)
C34_2 C 0.5566(2) 0.9555(2) 0.32286(14)
C35_2 C 0.4918(2) 0.9769(2) 0.33514(16)
C36_2 C 0.6943(3) 0.8985(2) 0.41810(14)
H25_2 H 0.7012 0.8461 0.4277
H26_2 H 0.6399 0.9157 0.4263
H27_2 H 0.7392 0.9269 0.4402
C37_2 C 0.6358(2) 0.9457(3) 0.20707(14)
H28_2 H 0.6721 0.9273 0.1811
H29_2 H 0.6297 0.9993 0.2030
H30_2 H 0.5806 0.9224 0.1987
N7_2 N 0.87964(14) 0.77992(11) 0.29446(9)
N8_2 N 0.86943(14) 0.79752(11) 0.34797(9)
C45_2 C 0.87881(18) 0.73797(14) 0.38238(11)
C46_2 C 0.89726(18) 0.67972(14) 0.34959(11)
C47_2 C 0.89753(18) 0.70804(14) 0.29536(11)
C48_2 C 0.91158(19) 0.60476(15) 0.36571(12)
C49_2 C 0.9226(2) 0.54072(16) 0.37427(13)
C50_2 C 0.8709(2) 0.73985(16) 0.44284(12)
H35_2 H 0.9188 0.7663 0.4635
H36_2 H 0.8698 0.6894 0.4571
H37_2 H 0.8189 0.7651 0.4478
C51_2 C 0.9141(2) 0.66876(16) 0.24478(13)
H38_2 H 0.8654 0.6733 0.2154
H39_2 H 0.9247 0.6166 0.2536
H40_2 H 0.9634 0.6903 0.2316
C52_2 C 0.93515(18) 0.46303(14) 0.38286(13)
C53_2 C 0.94043(19) 0.43257(16) 0.43629(13)
H41_2 H 0.9354 0.4633 0.4675
C54_2 C 0.95308(19) 0.35748(15) 0.44381(12)
H42_2 H 0.9565 0.3369 0.4802
C55_2 C 0.96082(17) 0.31207(14) 0.39871(11)
C56_2 C 0.95592(19) 0.34193(15) 0.34576(12)
H43_2 H 0.9616 0.3110 0.3148
C57_2 C 0.9426(2) 0.41727(15) 0.33754(13)
H44_2 H 0.9387 0.4375 0.3010
C58_2 C 0.97705(16) 0.23128(14) 0.40873(11)
O7_2 O 0.97014(13) 0.20576(10) 0.45551(8)
O18_2 O 0.05567(12) 0.40473(9) 0.00345(8)
C75_2 C 0.15804(18) 0.99432(14) 0.88547(12)
C77_2 C 0.1532(2) 0.91841(15) 0.89870(12)
C78_2 C 0.1421(2) 0.85365(16) 0.89912(13)
C80_2 C 0.1163(2) 0.97773(16) 0.77781(12)
H62_2 H 0.1670 0.9637 0.7625
H63_2 H 0.0862 0.9332 0.7862
C81_2 C 0.12485(19) 0.77600(15) 0.89219(12)
C82_2 C 0.12582(19) 0.72844(15) 0.93726(12)
H65_2 H 0.1408 0.7463 0.9744
C83_2 C 0.10503(18) 0.65509(14) 0.92813(12)
H66_2 H 0.1061 0.6229 0.9592
C84_2 C 0.08275(17) 0.62780(14) 0.87446(11)
C85_2 C 0.0829(2) 0.67553(16) 0.82948(13)
H67_2 H 0.0687 0.6576 0.7923
C86_2 C 0.1035(2) 0.74850(17) 0.83844(13)
H68_2 H 0.1032 0.7806 0.8073
C87_2 C 0.05741(17) 0.54896(15) 0.86393(12)
C96_2 C 0.5835(2) 0.9955(2) 0.64616(15)
C97_2 C 0.6554(2) 0.9816(2) 0.68268(15)
H77_2 H 0.6569 0.9909 0.7215
C98_2 C 0.7260(2) 0.9542(2) 0.66337(14)
H78_2 H 0.7756 0.9453 0.6891
C99_2 C 0.72484(19) 0.93981(17) 0.60752(13)
C100_2 C 0.6528(2) 0.9550(2) 0.57050(14)
H79_2 H 0.6517 0.9460 0.5316
C101_2 C 0.5829(2) 0.9828(2) 0.58926(15)
H80_2 H 0.5341 0.9935 0.5633
C102_2 C 0.80153(19) 0.90931(16) 0.58674(13)
O15_2 O 0.80140(13) 0.90481(14) 0.53517(9)
H91_2 H 0.0261(17) 0.3664(13) 0.9907(12)
H92_2 H 0.1061(12) 0.4060(16) 0.9952(12)
H45_2 H 0.9739(17) 0.6336(13) 0.0093(12)
H46_2 H 0.8939(12) 0.5940(16) 0.0048(12)
O9_2 O 0.94433(12) 0.59527(9) 0.99655(8)
loop_
_geom_bond_atom_site_label_1
_geom_bond_atom_site_label_2
_geom_bond_site_symmetry_1
_geom_bond_site_symmetry_2
O9 Cu2 1_555 1_555
H45 O9 1_555 1_555
H46 O9 1_555 1_555
O24 Cu1 1_555 1_555
O19 Cu2_2 1_555 1_555
Cu2_2 O20 1_555 1_555
C111 C110 1_555 1_555
H87 C111 1_555 1_555
C112 C111 1_555 1_555
H88 C112 1_555 1_555
C113 C112 1_555 1_555
C114 C113 1_555 1_555
H89 C114 1_555 1_555
C115 C110 1_555 1_555
H90 C115 1_555 1_555
C116 C113 1_555 1_555
O16 C116 1_555 1_555
O17 C116 1_555 1_555
C114 C115 1_555 1_555
N1 N2 1_555 1_555
C1 H1 1_555 1_555
H2 C1 1_555 1_555
Cu2_3 O2 1_555 1_555
N2 C1 1_555 1_555
Cu3 N1 1_555 1_555
C2 N2 1_555 1_555
C3 C2 1_555 1_555
C4 N1 1_555 1_555
C5 C3 1_555 1_555
C6 C5 1_555 1_555
C7 C2 1_555 1_555
H3 C7 1_555 1_555
H4 C7 1_555 1_555
H5 C7 1_555 1_555
C8 C4 1_555 1_555
H6 C8 1_555 1_555
H7 C8 1_555 1_555
H8 C8 1_555 1_555
C9 C6 1_555 1_555
C10 C9 1_555 1_555
H9 C10 1_555 1_555
C11 C10 1_555 1_555
H10 C11 1_555 1_555
C12 C11 1_555 1_555
C13 C12 1_555 1_555
H11 C13 1_555 1_555
C14 C9 1_555 1_555
H12 C14 1_555 1_555
C15 C12 1_555 1_555
O1 C15 1_555 1_555
O2 C15 1_555 1_555
N3 Cu3 1_555 1_555
N4 C1 1_555 1_555
C16 N4 1_555 1_555
C17 C16 1_555 1_555
C18 N3 1_555 1_555
C19 C17 1_555 1_555
C20 C19 1_555 1_555
C21 C16 1_555 1_555
H13 C21 1_555 1_555
H14 C21 1_555 1_555
H15 C21 1_555 1_555
C22 C18 1_555 1_555
H16 C22 1_555 1_555
H17 C22 1_555 1_555
H18 C22 1_555 1_555
C23 C20 1_555 1_555
C24 C23 1_555 1_555
H19 C24 1_555 1_555
C25 C24 1_555 1_555
H20 C25 1_555 1_555
C26 C25 1_555 1_555
C27 C26 1_555 1_555
H21 C27 1_555 1_555
C28 C23 1_555 1_555
H22 C28 1_555 1_555
C29 C26 1_555 1_555
O20 C29 1_555 1_555
O22 C29 1_555 1_555
N5 Cu3 1_555 1_555
C30 H23 1_555 1_555
H24 C30 1_555 1_555
N6 N5 1_555 1_555
C31 N6 1_555 1_555
C32 C31 1_555 1_555
C33 N5 1_555 1_555
C34 C32 1_555 1_555
C35 C34 1_555 1_555
C36 C31 1_555 1_555
H25 C36 1_555 1_555
H26 C36 1_555 1_555
H27 C36 1_555 1_555
C37 C33 1_555 1_555
H28 C37 1_555 1_555
H29 C37 1_555 1_555
H30 C37 1_555 1_555
C38 C35 1_555 1_555
C39 C38 1_555 1_555
H31 C39 1_555 1_555
C40 C39 1_555 1_555
H32 C40 1_555 1_555
C41 C40 1_555 1_555
C42 C41 1_555 1_555
H33 C42 1_555 1_555
C43 C38 1_555 1_555
H34 C43 1_555 1_555
C44 C41 1_555 1_555
O5 C44 1_555 1_555
O6 C44 1_555 1_555
N7 Cu3 1_555 1_555
N8 C30 1_555 1_555
C45 N8 1_555 1_555
C46 C45 1_555 1_555
C47 N7 1_555 1_555
C48 C46 1_555 1_555
C49 C48 1_555 1_555
C50 C45 1_555 1_555
H35 C50 1_555 1_555
H36 C50 1_555 1_555
H37 C50 1_555 1_555
C51 C47 1_555 1_555
H38 C51 1_555 1_555
H39 C51 1_555 1_555
H40 C51 1_555 1_555
N9 N10 1_555 1_555
C59 H47 1_555 1_555
H48 C59 1_555 1_555
N10 C59 1_555 1_555
Cu5 N9 1_555 1_555
C60 N10 1_555 1_555
C61 C60 1_555 1_555
C62 N9 1_555 1_555
C63 C61 1_555 1_555
C64 C63 1_555 1_555
C65 C60 1_555 1_555
H49 C65 1_555 1_555
H50 C65 1_555 1_555
H51 C65 1_555 1_555
C66 C62 1_555 1_555
H52 C66 1_555 1_555
H53 C66 1_555 1_555
H54 C66 1_555 1_555
C67 C64 1_555 1_555
C68 C67 1_555 1_555
H55 C68 1_555 1_555
C69 C68 1_555 1_555
H56 C69 1_555 1_555
C70 C69 1_555 1_555
C71 C70 1_555 1_555
H57 C71 1_555 1_555
C72 C67 1_555 1_555
H58 C72 1_555 1_555
C73 C70 1_555 1_555
O10 C73 1_555 1_555
O19 C73 1_555 1_555
N11 Cu5 1_555 1_555
N12 C59 1_555 1_555
C74 N12 1_555 1_555
C75 C74 1_555 1_555
C76 N11 1_555 1_555
C77 C75 1_555 1_555
C78 C77 1_555 1_555
C79 C74 1_555 1_555
H59 C79 1_555 1_555
H60 C79 1_555 1_555
H61 C79 1_555 1_555
C80 C76 1_555 1_555
H62 C80 1_555 1_555
H63 C80 1_555 1_555
H64 C80 1_555 1_555
C81 C78 1_555 1_555
C82 C81 1_555 1_555
H65 C82 1_555 1_555
C83 C82 1_555 1_555
H66 C83 1_555 1_555
C84 C83 1_555 1_555
C85 C84 1_555 1_555
H67 C85 1_555 1_555
C86 C81 1_555 1_555
H68 C86 1_555 1_555
C87 C84 1_555 1_555
O12 Cu2_3 1_555 1_555
O13 C87 1_555 1_555
N13 Cu5 1_555 1_555
C88 H69 1_555 1_555
H70 C88 1_555 1_555
N14 N13 1_555 1_555
C89 N14 1_555 1_555
C90 C89 1_555 1_555
C91 N13 1_555 1_555
C92 C90 1_555 1_555
C93 C92 1_555 1_555
C94 C89 1_555 1_555
H71 C94 1_555 1_555
H72 C94 1_555 1_555
H73 C94 1_555 1_555
C95 C91 1_555 1_555
H74 C95 1_555 1_555
H75 C95 1_555 1_555
H76 C95 1_555 1_555
C96 C93 1_555 1_555
C97 C96 1_555 1_555
H77 C97 1_555 1_555
C98 C97 1_555 1_555
H78 C98 1_555 1_555
C99 C98 1_555 1_555
C100 C99 1_555 1_555
H79 C100 1_555 1_555
C101 C96 1_555 1_555
H80 C101 1_555 1_555
C102 C99 1_555 1_555
O14 C102 1_555 1_555
O15 C102 1_555 1_555
N15 Cu5 1_555 1_555
N16 C88 1_555 1_555
C103 N16 1_555 1_555
C104 C103 1_555 1_555
C105 N15 1_555 1_555
C106 C104 1_555 1_555
C107 C106 1_555 1_555
C108 C103 1_555 1_555
H81 C108 1_555 1_555
H82 C108 1_555 1_555
H83 C108 1_555 1_555
C109 C105 1_555 1_555
H84 C109 1_555 1_555
H85 C109 1_555 1_555
H86 C109 1_555 1_555
Cu8 O5 1_555 1_555
Cu11 O14 1_555 1_555
C3 C4 1_555 1_555
C13 C14 1_555 1_555
N3 N4 1_555 1_555
C17 C18 1_555 1_555
C27 C28 1_555 1_555
C30 N6 1_555 1_555
C32 C33 1_555 1_555
C42 C43 1_555 1_555
N7 N8 1_555 1_555
C46 C47 1_555 1_555
C61 C62 1_555 1_555
C71 C72 1_555 1_555
N11 N12 1_555 1_555
C75 C76 1_555 1_555
C85 C86 1_555 1_555
C87 O12 1_555 1_555
C88 N14 1_555 1_555
C90 C91 1_555 1_555
C100 C101 1_555 1_555
N15 N16 1_555 1_555
C104 C105 1_555 1_555
C53 C52 1_555 1_555
H41 C53 1_555 1_555
C54 C53 1_555 1_555
H42 C54 1_555 1_555
C55 C54 1_555 1_555
C56 C55 1_555 1_555
H43 C56 1_555 1_555
C57 C52 1_555 1_555
H44 C57 1_555 1_555
C58 C55 1_555 1_555
O7 C58 1_555 1_555
O8 C58 1_555 1_555
O18 Cu2_4 1_555 1_555
H91 O18 1_555 1_555
H92 O18 1_555 1_555
C56 C57 1_555 1_555
O25 Cu9 1_555 1_555
O21 Cu11 1_555 1_555
O23 Cu11 1_555 1_555
Cu12_2 O21 1_555 1_555
C19_2 C17_2 1_555 1_555
C20_2 C19_2 1_555 1_555
H16_2 C22_2 1_555 1_555
H17_2 C22_2 1_555 1_555
C23_2 C20_2 1_555 1_555
C24_2 C23_2 1_555 1_555
H19_2 C24_2 1_555 1_555
C25_2 C24_2 1_555 1_555
H20_2 C25_2 1_555 1_555
C26_2 C25_2 1_555 1_555
C27_2 C26_2 1_555 1_555
H21_2 C27_2 1_555 1_555
C28_2 C23_2 1_555 1_555
H22_2 C28_2 1_555 1_555
C29_2 C26_2 1_555 1_555
O3 C29_2 1_555 1_555
O4 C29_2 1_555 1_555
C39_2 C38_2 1_555 1_555
H31_2 C39_2 1_555 1_555
C40_2 C39_2 1_555 1_555
H32_2 C40_2 1_555 1_555
C41_2 C40_2 1_555 1_555
C42_2 C41_2 1_555 1_555
H33_2 C42_2 1_555 1_555
C43_2 C38_2 1_555 1_555
H34_2 C43_2 1_555 1_555
C44_2 C41_2 1_555 1_555
O24 C44_2 1_555 1_555
O6_2 C44_2 1_555 1_555
Cu8 O3 1_555 1_555
Cu12_3 O3 1_555 1_555
C27_2 C28_2 1_555 1_555
O4 Cu8 1_555 1_555
C42_2 C43_2 1_555 1_555
N9_2 N10_2 1_555 1_555
C59_2 H47_2 1_555 1_555
H48_2 C59_2 1_555 1_555
N10_2 C59_2 1_555 1_555
Cu5_2 N9_2 1_555 1_555
C60_2 N10_2 1_555 1_555
C61_2 C60_2 1_555 1_555
C62_2 N9_2 1_555 1_555
C63_2 C61_2 1_555 1_555
C64_2 C63_2 1_555 1_555
C65_2 C60_2 1_555 1_555
H49_2 C65_2 1_555 1_555
H50_2 C65_2 1_555 1_555
H51_2 C65_2 1_555 1_555
C66_2 C62_2 1_555 1_555
H52_2 C66_2 1_555 1_555
H53_2 C66_2 1_555 1_555
H54_2 C66_2 1_555 1_555
C67_2 C64_2 1_555 1_555
C68_2 C67_2 1_555 1_555
H55_2 C68_2 1_555 1_555
C69_2 C68_2 1_555 1_555
H56_2 C69_2 1_555 1_555
C70_2 C69_2 1_555 1_555
C71_2 C70_2 1_555 1_555
H57_2 C71_2 1_555 1_555
C72_2 C67_2 1_555 1_555
H58_2 C72_2 1_555 1_555
C73_2 C70_2 1_555 1_555
O10_2 C73_2 1_555 1_555
O11 C73_2 1_555 1_555
N11_2 Cu5_2 1_555 1_555
N12_2 C59_2 1_555 1_555
C74_2 N12_2 1_555 1_555
C76_2 N11_2 1_555 1_555
C79_2 C74_2 1_555 1_555
H59_2 C79_2 1_555 1_555
H60_2 C79_2 1_555 1_555
H61_2 C79_2 1_555 1_555
N13_2 Cu5_2 1_555 1_555
C88_2 H69_2 1_555 1_555
H70_2 C88_2 1_555 1_555
N14_2 N13_2 1_555 1_555
C89_2 N14_2 1_555 1_555
C90_2 C89_2 1_555 1_555
C91_2 N13_2 1_555 1_555
C92_2 C90_2 1_555 1_555
C93_2 C92_2 1_555 1_555
C94_2 C89_2 1_555 1_555
H71_2 C94_2 1_555 1_555
H72_2 C94_2 1_555 1_555
H73_2 C94_2 1_555 1_555
C95_2 C91_2 1_555 1_555
H74_2 C95_2 1_555 1_555
H75_2 C95_2 1_555 1_555
H76_2 C95_2 1_555 1_555
N15_2 Cu5_2 1_555 1_555
N16_2 C88_2 1_555 1_555
C103_2 N16_2 1_555 1_555
C104_2 C103_2 1_555 1_555
C105_2 N15_2 1_555 1_555
C106_2 C104_2 1_555 1_555
C107_2 C106_2 1_555 1_555
C108_2 C103_2 1_555 1_555
H81_2 C108_2 1_555 1_555
H82_2 C108_2 1_555 1_555
H83_2 C108_2 1_555 1_555
C109_2 C105_2 1_555 1_555
H84_2 C109_2 1_555 1_555
H85_2 C109_2 1_555 1_555
H86_2 C109_2 1_555 1_555
C110_2 C107_2 1_555 1_555
C111_2 C110_2 1_555 1_555
H87_2 C111_2 1_555 1_555
C112_2 C111_2 1_555 1_555
H88_2 C112_2 1_555 1_555
C113_2 C112_2 1_555 1_555
C114_2 C113_2 1_555 1_555
H89_2 C114_2 1_555 1_555
C115_2 C110_2 1_555 1_555
H90_2 C115_2 1_555 1_555
C116_2 C113_2 1_555 1_555
O16_2 C116_2 1_555 1_555
O27 C116_2 1_555 1_555
C61_2 C62_2 1_555 1_555
C71_2 C72_2 1_555 1_555
O11 Cu12_4 1_555 1_555
N11_2 N12_2 1_555 1_555
C88_2 N14_2 1_555 1_555
C90_2 C91_2 1_555 1_555
N15_2 N16_2 1_555 1_555
C104_2 C105_2 1_555 1_555
C114_2 C115_2 1_555 1_555
N1_2 N2_2 1_555 1_555
C1_2 H1_2 1_555 1_555
H2_2 C1_2 1_555 1_555
Cu12 O2_2 1_555 1_555
N2_2 C1_2 1_555 1_555
Cu3_2 N1_2 1_555 1_555
C2_2 N2_2 1_555 1_555
C3_2 C2_2 1_555 1_555
C4_2 N1_2 1_555 1_555
C5_2 C3_2 1_555 1_555
C6_2 C5_2 1_555 1_555
C7_2 C2_2 1_555 1_555
H3_2 C7_2 1_555 1_555
H4_2 C7_2 1_555 1_555
H5_2 C7_2 1_555 1_555
C8_2 C4_2 1_555 1_555
H6_2 C8_2 1_555 1_555
H7_2 C8_2 1_555 1_555
H8_2 C8_2 1_555 1_555
C9_2 C6_2 1_555 1_555
C10_2 C9_2 1_555 1_555
H9_2 C10_2 1_555 1_555
C11_2 C10_2 1_555 1_555
H10_2 C11_2 1_555 1_555
C12_2 C11_2 1_555 1_555
C13_2 C12_2 1_555 1_555
H11_2 C13_2 1_555 1_555
C14_2 C9_2 1_555 1_555
H12_2 C14_2 1_555 1_555
C15_2 C12_2 1_555 1_555
O1_2 C15_2 1_555 1_555
O2_2 C15_2 1_555 1_555
N3_2 Cu3_2 1_555 1_555
N4_2 C1_2 1_555 1_555
C16_2 N4_2 1_555 1_555
C18_2 N3_2 1_555 1_555
C21_2 C16_2 1_555 1_555
H13_2 C21_2 1_555 1_555
H14_2 C21_2 1_555 1_555
H15_2 C21_2 1_555 1_555
N5_2 Cu3_2 1_555 1_555
C30_2 H23_2 1_555 1_555
H24_2 C30_2 1_555 1_555
N6_2 N5_2 1_555 1_555
C31_2 N6_2 1_555 1_555
C32_2 C31_2 1_555 1_555
C33_2 N5_2 1_555 1_555
C34_2 C32_2 1_555 1_555
C35_2 C34_2 1_555 1_555
C36_2 C31_2 1_555 1_555
H25_2 C36_2 1_555 1_555
H26_2 C36_2 1_555 1_555
H27_2 C36_2 1_555 1_555
C37_2 C33_2 1_555 1_555
H28_2 C37_2 1_555 1_555
H29_2 C37_2 1_555 1_555
H30_2 C37_2 1_555 1_555
N7_2 Cu3_2 1_555 1_555
N8_2 C30_2 1_555 1_555
C45_2 N8_2 1_555 1_555
C46_2 C45_2 1_555 1_555
C47_2 N7_2 1_555 1_555
C48_2 C46_2 1_555 1_555
C49_2 C48_2 1_555 1_555
C50_2 C45_2 1_555 1_555
H35_2 C50_2 1_555 1_555
H36_2 C50_2 1_555 1_555
H37_2 C50_2 1_555 1_555
C51_2 C47_2 1_555 1_555
H38_2 C51_2 1_555 1_555
H39_2 C51_2 1_555 1_555
H40_2 C51_2 1_555 1_555
C52_2 C49_2 1_555 1_555
C53_2 C52_2 1_555 1_555
H41_2 C53_2 1_555 1_555
C54_2 C53_2 1_555 1_555
H42_2 C54_2 1_555 1_555
C55_2 C54_2 1_555 1_555
C56_2 C55_2 1_555 1_555
H43_2 C56_2 1_555 1_555
C57_2 C52_2 1_555 1_555
H44_2 C57_2 1_555 1_555
C58_2 C55_2 1_555 1_555
O7_2 C58_2 1_555 1_555
O26 C58_2 1_555 1_555
O18_2 Cu12 1_555 1_555
C3_2 C4_2 1_555 1_555
C13_2 C14_2 1_555 1_555
N3_2 N4_2 1_555 1_555
C30_2 N6_2 1_555 1_555
C32_2 C33_2 1_555 1_555
N7_2 N8_2 1_555 1_555
C46_2 C47_2 1_555 1_555
C56_2 C57_2 1_555 1_555
C77_2 C75_2 1_555 1_555
C78_2 C77_2 1_555 1_555
H62_2 C80_2 1_555 1_555
H63_2 C80_2 1_555 1_555
C81_2 C78_2 1_555 1_555
C82_2 C81_2 1_555 1_555
H65_2 C82_2 1_555 1_555
C83_2 C82_2 1_555 1_555
H66_2 C83_2 1_555 1_555
C84_2 C83_2 1_555 1_555
C85_2 C84_2 1_555 1_555
H67_2 C85_2 1_555 1_555
C86_2 C81_2 1_555 1_555
H68_2 C86_2 1_555 1_555
C87_2 C84_2 1_555 1_555
O23 C87_2 1_555 1_555
C97_2 C96_2 1_555 1_555
H77_2 C97_2 1_555 1_555
C98_2 C97_2 1_555 1_555
H78_2 C98_2 1_555 1_555
C99_2 C98_2 1_555 1_555
C100_2 C99_2 1_555 1_555
H79_2 C100_2 1_555 1_555
C101_2 C96_2 1_555 1_555
H80_2 C101_2 1_555 1_555
C102_2 C99_2 1_555 1_555
O25 C102_2 1_555 1_555
O15_2 C102_2 1_555 1_555
C85_2 C86_2 1_555 1_555
C87_2 O21 1_555 1_555
C100_2 C101_2 1_555 1_555
O9_2 Cu12_4 1_555 1_555

#END
