
###############################################################################
#
# This file contains modified crystal structure data generated from the
# MOF subset of the Cambridge Structural Database (CSD) v543 
# hosted by the Cambridge Crystallographic Data Centre (CCDC).
#
# This work is licensed under the Creative Commons
# Attribution-NonCommercial-ShareAlike 4.0 International License.
# To view a copy of this license, visit
# http://creativecommons.org/licenses/by-nc-sa/4.0/
# or send a letter to
# Creative Commons, PO Box 1866, Mountain View, CA 94042, USA.
#
# CIF created using the CSD Python API on 29 September 2022
# The structure has been converted into the P1 space group
# The structure has a 3D framework
# The original CSD entry RASXIT is in the tetragonal crystal system
# The framework has been calculated to contain at least 10.0% void space
# The void calculation uses a probe of radius 1.32A, grid spacing 0.4
# H atom positions have been added when not included in the experimental data
# Generated hydrogen atom positions removed from atoms on special positions
#
###############################################################################

data_RASXIT
_chemical_formula_moiety         '(C160 H224 Eu30 N64 O173)n'
_symmetry_cell_setting           triclinic
_symmetry_space_group_name_H-M   'P 1'
_symmetry_Int_Tables_number      1
_space_group_name_Hall           'P 1'
loop_
_symmetry_equiv_pos_site_id
_symmetry_equiv_pos_as_xyz
1 x,y,z
_cell_length_a                   20.326(3)
_cell_length_b                   20.326(3)
_cell_length_c                   16.139(3)
_cell_angle_alpha                90
_cell_angle_beta                 90
_cell_angle_gamma                90
_cell_volume                     6667.77
loop_
_atom_site_label
_atom_site_type_symbol
_atom_site_fract_x
_atom_site_fract_y
_atom_site_fract_z
Eu12 Eu 0.068580(11) 0.544820(12) 0.081140(14)
O52 O 0.0175(3) 0.4733(3) 0.3359(3)
O55 O 0.0108(3) 0.6234(3) 0.3311(3)
H14 H 0.0355 0.6098 0.2975
O40 O 0.03469(19) 0.46696(19) 0.8147(2)
O47 O 0.03485(18) 0.52038(19) 0.9333(2)
O50 O 0.0078(2) 0.3649(2) 0.9491(3)
Eu1 Eu 0.705499(13) 0.673506(12) 0.088515(15)
Eu2 Eu 0.705180(12) 0.318580(11) 0.168860(14)
C1 C 0.7199(3) 0.4968(3) 0.1492(3)
H1 H 0.7513 0.5018 0.1906
C2 C 0.6541(2) 0.4517(3) 0.0629(3)
C3 C 0.6514(2) 0.5194(2) 0.0547(3)
C4 C 0.6198(2) 0.3957(3) 0.0253(3)
C6 C 0.8360(3) 0.5771(3) 0.0239(3)
H2 H 0.8400 0.5580 0.0760
N1 N 0.6932(2) 0.5481(2) 0.1100(3)
N2 N 0.6985(2) 0.4379(2) 0.1250(3)
N3 N 0.7931(2) 0.6250(2) 0.0074(3)
O1 O 0.6169(2) 0.6236(2) 0.0143(3)
O3 O 0.6320(2) 0.33911(18) 0.0565(2)
O9 O 0.6149(2) 0.2422(2) 0.1991(3)
O10 O 0.7767(3) 0.7675(3) 0.0859(3)
O11 O 0.6266(3) 0.7608(3) 0.0811(3)
H3 H 0.5905 0.7309 0.0476
H4 H 0.6402 0.7855 0.0475
Eu3 Eu 0.923506(12) 0.544501(13) 0.338515(15)
Eu5 Eu 0.794501(13) 0.326494(12) 0.588515(15)
Eu8 Eu 0.568580(11) 0.544820(12) 0.418860(14)
Eu13 Eu 0.794820(12) 0.181420(11) 0.331140(14)
Eu15 Eu 0.794820(12) 0.681420(11) 0.668860(14)
C11 C 0.7468(3) 0.5301(3) 0.3992(3)
C12 C 0.7801(3) 0.5032(3) 0.6492(3)
H5 H 0.7518 0.4987 0.4406
H6 H 0.7487 0.4982 0.6906
C14 C 0.7017(3) 0.5959(2) 0.3129(3)
C15 C 0.8459(2) 0.5483(3) 0.5629(3)
C17 C 0.7694(2) 0.5986(2) 0.3047(3)
C18 C 0.8486(2) 0.4806(2) 0.5547(3)
C20 C 0.6457(3) 0.6302(2) 0.2753(3)
C21 C 0.8802(2) 0.6043(3) 0.5253(3)
C23 C 0.8129(3) 0.6345(3) 0.2475(3)
C24 C 0.8845(3) 0.4371(3) 0.4975(3)
C26 C 0.8271(3) 0.4140(3) 0.2739(3)
C27 C 0.6640(3) 0.4229(3) 0.5239(3)
H8 H 0.8080 0.4100 0.3260
H9 H 0.6600 0.4420 0.5760
C29 C 0.8897(3) 0.4472(3) 0.1746(3)
C30 C 0.6972(3) 0.3603(3) 0.4246(3)
C31 C 0.8028(3) 0.1397(3) 0.0754(3)
C32 C 0.8487(3) 0.3981(3) 0.1457(3)
C33 C 0.6481(3) 0.4013(3) 0.3957(3)
C34 C 0.8519(3) 0.0987(3) 0.1043(3)
C35 C 0.9416(2) 0.4883(3) 0.1398(3)
C36 C 0.7383(3) 0.3084(2) 0.3898(3)
C37 C 0.7617(3) 0.1916(2) 0.1102(3)
C38 C 0.8371(3) 0.3687(2) 0.0626(3)
C39 C 0.6187(2) 0.4129(3) 0.3126(3)
C40 C 0.8813(2) 0.0871(3) 0.1874(3)
N5 N 0.7981(2) 0.5568(2) 0.3600(3)
N6 N 0.8068(2) 0.4519(2) 0.6100(3)
N8 N 0.6879(2) 0.5515(2) 0.3750(3)
N9 N 0.8015(2) 0.5621(2) 0.6250(3)
N12 N 0.8750(2) 0.4569(2) 0.2574(3)
N13 N 0.7069(2) 0.3750(2) 0.5074(3)
N16 N 0.8090(2) 0.3772(2) 0.2095(3)
N17 N 0.6272(2) 0.4410(2) 0.4595(3)
N18 N 0.8728(2) 0.0590(2) 0.0405(3)
O12 O 0.8736(2) 0.6331(2) 0.2643(3)
O13 O 0.8831(2) 0.3764(2) 0.5143(3)
O15 O 0.7906(2) 0.6636(3) 0.1856(3)
O16 O 0.9136(3) 0.4594(2) 0.4356(3)
O18 O 0.7094(2) 0.3364(3) 0.6856(3)
O19 O 0.58911(18) 0.6180(2) 0.3065(2)
O20 O 0.8680(2) 0.66089(18) 0.5565(2)
O23 O 0.6515(2) 0.6691(2) 0.2155(2)
O24 O 0.9191(2) 0.5985(2) 0.4655(2)
O26 O 0.8485(2) 0.3309(2) 0.7155(2)
O27 O 0.7880(2) 0.3308(2) 0.0584(3)
O28 O 0.5808(2) 0.4620(2) 0.3084(3)
O29 O 0.9192(2) 0.0380(2) 0.1916(3)
O31 O 0.8751(2) 0.3805(2) 0.0047(2)
O32 O 0.6305(2) 0.3749(2) 0.2547(2)
O33 O 0.8695(2) 0.1251(2) 0.2453(2)
O34 O 0.6249(2) 0.6195(2) 0.5047(2)
O35 O 0.96531(19) 0.53304(19) 0.1853(2)
O36 O 0.78304(19) 0.28469(19) 0.4353(2)
O37 O 0.71696(19) 0.21531(19) 0.0647(2)
O39 O 0.46531(19) 0.53304(19) 0.3147(2)
O42 O 0.96515(18) 0.47962(19) 0.0667(2)
O43 O 0.72962(19) 0.28485(18) 0.3167(2)
O44 O 0.77038(19) 0.21515(18) 0.1833(2)
O45 O 0.53485(18) 0.52038(19) 0.5667(2)
O46 O 0.46515(18) 0.47962(19) 0.4333(2)
O49 O 0.4922(2) 0.6351(2) 0.4491(3)
O54 O 0.7233(3) 0.2325(3) 0.5859(3)
O57 O 0.8734(3) 0.2392(3) 0.5811(3)
H11 H 0.9809 0.6595 0.2976
H13 H 0.9095 0.2691 0.5476
H16 H 0.8598 0.2145 0.5475
C5 C 0.6155(3) 0.5629(3) 0.9975(3)
C7 C 0.8028(3) 0.6397(3) 0.9246(3)
C8 C 0.8519(3) 0.5987(3) 0.8957(3)
C9 C 0.7617(3) 0.6916(2) 0.8898(3)
C10 C 0.8813(2) 0.5871(3) 0.8126(3)
N4 N 0.8728(2) 0.5590(2) 0.9595(3)
O2 O 0.5864(3) 0.5406(2) 0.9356(3)
O4 O 0.5809(2) 0.4015(2) 0.9655(2)
O5 O 0.9192(2) 0.5380(2) 0.8084(3)
O6 O 0.8695(2) 0.6251(2) 0.7547(2)
O7 O 0.71696(19) 0.71531(19) 0.9353(2)
O8 O 0.77038(19) 0.71515(18) 0.8167(2)
Eu4 Eu 0.576494(12) 0.455499(13) 0.838515(15)
Eu6 Eu 0.705499(13) 0.173506(12) 0.911485(15)
Eu9 Eu 0.931420(11) 0.455180(12) 0.918860(14)
Eu11 Eu 0.705180(12) 0.818580(11) 0.831140(14)
C13 C 0.7532(3) 0.4699(3) 0.8992(3)
H7 H 0.7482 0.5013 0.9406
C16 C 0.7983(3) 0.4041(2) 0.8129(3)
C19 C 0.7306(2) 0.4014(2) 0.8047(3)
C22 C 0.8543(3) 0.3698(2) 0.7753(3)
C25 C 0.6871(3) 0.3655(3) 0.7475(3)
C28 C 0.8360(3) 0.0771(3) 0.9761(3)
H10 H 0.8400 0.0580 0.9240
N7 N 0.7019(2) 0.4432(2) 0.8600(3)
N10 N 0.8121(2) 0.4485(2) 0.8750(3)
N14 N 0.7931(2) 0.1250(2) 0.9926(3)
N15 N 0.6250(2) 0.5431(2) 0.7574(3)
N19 N 0.6910(2) 0.6228(2) 0.7095(3)
O14 O 0.6264(2) 0.3669(2) 0.7643(3)
O21 O 0.91089(18) 0.3820(2) 0.8065(2)
O30 O 0.7120(2) 0.6692(2) 0.5584(3)
O38 O 0.53469(19) 0.46696(19) 0.6853(2)
O41 O 0.78304(19) 0.78469(19) 0.5647(2)
O48 O 0.72962(19) 0.78485(18) 0.6833(2)
O51 O 0.8851(2) 0.7578(2) 0.6991(3)
O53 O 0.4825(3) 0.5267(3) 0.8359(3)
O56 O 0.4892(3) 0.3766(3) 0.8311(3)
H12 H 0.5191 0.3405 0.7976
H15 H 0.4645 0.3902 0.7975
H21 H 0.991836 0.339963 0.99804
Eu14 Eu 0.931420(11) 0.955180(12) 0.081140(14)
H1_2 H 0.2482 0.0013 0.4406
C6_2 C 0.1729(3) 0.0860(3) 0.2739(3)
H2_2 H 0.1920 0.0900 0.3260
C7_2 C 0.1103(3) 0.0528(3) 0.1746(3)
C8_2 C 0.1513(3) 0.1019(3) 0.1457(3)
C9_2 C 0.0584(2) 0.0117(3) 0.1398(3)
C10_2 C 0.1629(3) 0.1313(2) 0.0626(3)
N3_2 N 0.1250(2) 0.0431(2) 0.2574(3)
N4_2 N 0.1910(2) 0.1228(2) 0.2095(3)
O5_2 O 0.2120(2) 0.1692(2) 0.0584(3)
O6_2 O 0.1249(2) 0.1195(2) 0.0047(2)
O8_2 O 0.03485(18) 0.02038(19) 0.0667(2)
Eu3_2 Eu 0.205499(13) 0.173506(12) 0.588515(15)
Eu5_2 Eu 0.423506(12) 0.044501(13) 0.838515(15)
Eu9_2 Eu 0.294820(12) 0.181420(11) 0.168860(14)
Eu12_2 Eu 0.205180(12) 0.318580(11) 0.331140(14)
Eu13_2 Eu 0.568580(11) 0.044820(12) 0.581140(14)
Eu15_2 Eu 0.068580(11) 0.044820(12) 0.918860(14)
C12_2 C 0.2468(3) 0.0301(3) 0.8992(3)
C13_2 C 0.2801(3) 0.0032(3) 0.1492(3)
H5_2 H 0.2513 0.0018 0.6906
C15_2 C 0.2017(3) 0.0959(2) 0.8129(3)
C16_2 C 0.3459(2) 0.0483(3) 0.0629(3)
C17_2 C 0.1514(2) 0.0194(2) 0.5547(3)
C18_2 C 0.2694(2) 0.0986(2) 0.8047(3)
C21_2 C 0.1457(3) 0.1302(2) 0.7753(3)
C22_2 C 0.3802(2) 0.1043(3) 0.0253(3)
C23_2 C 0.1155(3) 0.0629(3) 0.4975(3)
C24_2 C 0.3129(3) 0.1345(3) 0.7475(3)
C26_2 C 0.3360(3) 0.0771(3) 0.5239(3)
C28_2 C 0.6729(3) 0.0860(3) 0.2261(3)
H8_2 H 0.3400 0.0580 0.5760
H10_2 H 0.6920 0.0900 0.1740
C29_2 C 0.3028(3) 0.1397(3) 0.4246(3)
C31_2 C 0.6103(3) 0.0528(3) 0.3254(3)
C32_2 C 0.3519(3) 0.0987(3) 0.3957(3)
C34_2 C 0.6513(3) 0.1019(3) 0.3543(3)
C35_2 C 0.2617(3) 0.1916(2) 0.3898(3)
C37_2 C 0.5584(2) 0.0117(3) 0.3602(3)
C38_2 C 0.3813(2) 0.0871(3) 0.3126(3)
C40_2 C 0.6629(3) 0.1313(2) 0.4374(3)
N5_2 N 0.1932(2) 0.0481(2) 0.6100(3)
N6_2 N 0.2981(2) 0.0568(2) 0.8600(3)
N9_2 N 0.1879(2) 0.0515(2) 0.8750(3)
N10_2 N 0.3015(2) 0.0621(2) 0.1250(3)
N12_2 N 0.2931(2) 0.1250(2) 0.5074(3)
N14_2 N 0.6250(2) 0.0431(2) 0.2426(3)
N16_2 N 0.3728(2) 0.0590(2) 0.4595(3)
N18_2 N 0.6910(2) 0.1228(2) 0.2905(3)
O12_2 O 0.1169(2) 0.1236(2) 0.5143(3)
O13_2 O 0.3736(2) 0.1331(2) 0.7643(3)
O15_2 O 0.0864(3) 0.0406(2) 0.4356(3)
O16_2 O 0.2906(2) 0.1636(3) 0.6856(3)
O20_2 O 0.08911(18) 0.1180(2) 0.8065(2)
O21_2 O 0.3680(2) 0.16089(18) 0.0565(2)
O24_2 O 0.1515(2) 0.1691(2) 0.7155(2)
O26_2 O 0.4191(2) 0.0985(2) 0.9655(2)
O27_2 O 0.4192(2) 0.0380(2) 0.3084(3)
O29_2 O 0.7120(2) 0.1692(2) 0.4416(3)
O31_2 O 0.3695(2) 0.1251(2) 0.2547(2)
O33_2 O 0.6249(2) 0.1195(2) 0.4953(2)
O35_2 O 0.21696(19) 0.21531(19) 0.4353(2)
O36_2 O 0.46531(19) 0.03304(19) 0.6853(2)
O40_2 O 0.28304(19) 0.28469(19) 0.0647(2)
O42_2 O 0.27038(19) 0.21515(18) 0.3167(2)
O44_2 O 0.53485(18) 0.02038(19) 0.4333(2)
O47_2 O 0.22962(19) 0.28485(18) 0.1833(2)
O50_2 O 0.3851(2) 0.2578(2) 0.1991(3)
O52_2 O 0.2767(3) 0.2675(3) 0.5859(3)
O55_2 O 0.1266(3) 0.2608(3) 0.5811(3)
O57_2 O 0.5108(3) 0.1234(3) 0.8311(3)
H11_2 H 0.0905 0.2309 0.5476
H13_2 H 0.4809 0.1595 0.7976
H14_2 H 0.1402 0.2855 0.5475
H16_2 H 0.5355 0.1098 0.7975
H25 H 0.0110798 0.177147 0.928702
Eu1_2 Eu 0.076494(12) 0.955499(13) 0.338515(15)
Eu2_2 Eu 0.431420(11) 0.955180(12) 0.418860(14)
C1_2 C 0.2532(3) 0.9699(3) 0.3992(3)
C2_2 C 0.2983(3) 0.9041(2) 0.3129(3)
C3_2 C 0.2306(2) 0.9014(2) 0.3047(3)
C4_2 C 0.3543(3) 0.8698(2) 0.2753(3)
C5_2 C 0.1871(3) 0.8655(3) 0.2475(3)
N1_2 N 0.2019(2) 0.9432(2) 0.3600(3)
N2_2 N 0.3121(2) 0.9485(2) 0.3750(3)
O1_2 O 0.1264(2) 0.8669(2) 0.2643(3)
O2_2 O 0.2094(2) 0.8364(3) 0.1856(3)
O3_2 O 0.41089(18) 0.8820(2) 0.3065(2)
O4_2 O 0.3485(2) 0.8309(2) 0.2155(2)
O7_2 O 0.03469(19) 0.96696(19) 0.1853(2)
O9_2 O 0.5078(2) 0.8649(2) 0.4491(3)
H3_2 H 0.0191 0.8405 0.2976
Eu4_2 Eu 0.294501(13) 0.826494(12) 0.088515(15)
Eu6_2 Eu 0.576494(12) 0.955499(13) 0.161485(15)
Eu8_2 Eu 0.205180(12) 0.818580(11) 0.668860(14)
C11_2 C 0.2199(3) 0.9968(3) 0.6492(3)
H6_2 H 0.2518 0.9987 0.9406
H7_2 H 0.2487 0.9982 0.1906
C14_2 C 0.1541(2) 0.9517(3) 0.5629(3)
C19_2 C 0.3486(2) 0.9806(2) 0.0547(3)
C20_2 C 0.1198(2) 0.8957(3) 0.5253(3)
C27_2 C 0.3271(3) 0.9140(3) 0.7739(3)
H9_2 H 0.3080 0.9100 0.8260
C30_2 C 0.3897(3) 0.9472(3) 0.6746(3)
C33_2 C 0.3487(3) 0.8981(3) 0.6457(3)
C36_2 C 0.4416(2) 0.9883(3) 0.6398(3)
C39_2 C 0.3371(3) 0.8687(2) 0.5626(3)
N7_2 N 0.3068(2) 0.9519(2) 0.1100(3)
N8_2 N 0.1985(2) 0.9379(2) 0.6250(3)
N13_2 N 0.3750(2) 0.9569(2) 0.7574(3)
N15_2 N 0.2069(2) 0.8750(2) 0.0074(3)
N17_2 N 0.3090(2) 0.8772(2) 0.7095(3)
O14_2 O 0.3831(2) 0.8764(2) 0.0143(3)
O18_2 O 0.4136(3) 0.9594(2) 0.9356(3)
O19_2 O 0.1320(2) 0.83911(18) 0.5565(2)
O23_2 O 0.0809(2) 0.9015(2) 0.4655(2)
O28_2 O 0.2880(2) 0.8308(2) 0.5584(3)
O32_2 O 0.3751(2) 0.8805(2) 0.5047(2)
O34_2 O 0.1305(2) 0.8749(2) 0.7547(2)
O37_2 O 0.53469(19) 0.96696(19) 0.3147(2)
O39_2 O 0.21696(19) 0.71531(19) 0.5647(2)
O43_2 O 0.46515(18) 0.97962(19) 0.5667(2)
O45_2 O 0.22962(19) 0.78485(18) 0.8167(2)
O46_2 O 0.27038(19) 0.71515(18) 0.6833(2)
O49_2 O 0.1149(2) 0.7422(2) 0.6991(3)
O53_2 O 0.2233(3) 0.7325(3) 0.0859(3)
O54_2 O 0.5175(3) 0.9733(3) 0.8359(3)
O56_2 O 0.3734(3) 0.7392(3) 0.0811(3)
H12_2 H 0.4095 0.7691 0.0476
H15_2 H 0.3598 0.7145 0.0475
C25_2 C 0.3845(3) 0.9371(3) 0.9975(3)
N19_2 N 0.1272(2) 0.9410(2) 0.9595(3)
O30_2 O 0.0808(2) 0.9620(2) 0.8084(3)
O38_2 O 0.28304(19) 0.78469(19) 0.9353(2)
O10_2 O 0.9825(3) 0.0267(3) 0.3359(3)
O41_2 O 0.96531(19) 0.03304(19) 0.8147(2)
O51_2 O 0.9922(2) 0.1351(2) 0.9491(3)
O11_2 O 0.9892(3) 0.8766(3) 0.3311(3)
H4_2 H 0.9645 0.8902 0.2975
O48_2 O 0.96515(18) 0.97962(19) 0.9333(2)
C27_3 C 0.1640(3) 0.9229(3) 0.0239(3)
H9_3 H 0.1600 0.9420 0.0760
Eu6_3 Eu 0.205499(13) 0.673506(12) 0.411485(15)
Eu13_3 Eu 0.294820(12) 0.681420(11) 0.831140(14)
Eu14_2 Eu 0.431420(11) 0.455180(12) 0.581140(14)
C28_3 C 0.3360(3) 0.5771(3) 0.4761(3)
H10_3 H 0.3400 0.5580 0.4240
C30_3 C 0.1972(3) 0.8603(3) 0.9246(3)
C31_3 C 0.3028(3) 0.6397(3) 0.5754(3)
C33_3 C 0.1481(3) 0.9013(3) 0.8957(3)
C34_3 C 0.3519(3) 0.5987(3) 0.6043(3)
C36_3 C 0.2383(3) 0.8084(2) 0.8898(3)
C37_3 C 0.2617(3) 0.6916(2) 0.6102(3)
C39_3 C 0.1187(2) 0.9129(3) 0.8126(3)
C40_3 C 0.3813(2) 0.5871(3) 0.6874(3)
N14_3 N 0.2931(2) 0.6250(2) 0.4926(3)
N18_3 N 0.3728(2) 0.5590(2) 0.5405(3)
O29_3 O 0.4192(2) 0.5380(2) 0.6916(3)
O33_3 O 0.3695(2) 0.6251(2) 0.7453(2)
Eu6_4 Eu 0.076494(12) 0.455499(13) 0.661485(15)
C28_4 C 0.1729(3) 0.5860(3) 0.7261(3)
H10_4 H 0.1920 0.5900 0.6740
C31_4 C 0.1103(3) 0.5528(3) 0.8254(3)
C34_4 C 0.1513(3) 0.6019(3) 0.8543(3)
C37_4 C 0.0584(2) 0.5117(3) 0.8602(3)
C40_4 C 0.1629(3) 0.6313(2) 0.9374(3)
N14_4 N 0.1250(2) 0.5431(2) 0.7426(3)
N18_4 N 0.1910(2) 0.6228(2) 0.7905(3)
O29_4 O 0.2120(2) 0.6692(2) 0.9416(3)
O33_4 O 0.1249(2) 0.6195(2) 0.9953(2)
C6_3 C 0.6729(3) 0.5860(3) 0.7739(3)
H2_3 H 0.6920 0.5900 0.8260
C7_3 C 0.6103(3) 0.5528(3) 0.6746(3)
C8_3 C 0.6513(3) 0.6019(3) 0.6457(3)
C9_3 C 0.5584(2) 0.5117(3) 0.6398(3)
C10_3 C 0.6629(3) 0.6313(2) 0.5626(3)
Eu6_5 Eu 0.423506(12) 0.544501(13) 0.161485(15)
C28_5 C 0.3271(3) 0.4140(3) 0.2261(3)
H10_5 H 0.3080 0.4100 0.1740
C31_5 C 0.3897(3) 0.4472(3) 0.3254(3)
C34_5 C 0.3487(3) 0.3981(3) 0.3543(3)
C37_5 C 0.4416(2) 0.4883(3) 0.3602(3)
C40_5 C 0.3371(3) 0.3687(2) 0.4374(3)
N14_5 N 0.3750(2) 0.4569(2) 0.2426(3)
N18_5 N 0.3090(2) 0.3772(2) 0.2905(3)
O29_5 O 0.2880(2) 0.3308(2) 0.4416(3)
O33_5 O 0.3751(2) 0.3805(2) 0.4953(2)
H25_2 H 0.98892 0.322853 0.928702
Eu6_6 Eu 0.794501(13) 0.826494(12) 0.411485(15)
C28_6 C 0.6640(3) 0.9229(3) 0.4761(3)
H10_6 H 0.6600 0.9420 0.4240
C31_6 C 0.6972(3) 0.8603(3) 0.5754(3)
C34_6 C 0.6481(3) 0.9013(3) 0.6043(3)
C37_6 C 0.7383(3) 0.8084(2) 0.6102(3)
C40_6 C 0.6187(2) 0.9129(3) 0.6874(3)
N14_6 N 0.7069(2) 0.8750(2) 0.4926(3)
N18_6 N 0.6272(2) 0.9410(2) 0.5405(3)
O29_6 O 0.5808(2) 0.9620(2) 0.6916(3)
O33_6 O 0.6305(2) 0.8749(2) 0.7453(2)
Eu6_7 Eu 0.923506(12) 0.044501(13) 0.661485(15)
C28_7 C 0.8271(3) 0.9140(3) 0.7261(3)
H10_7 H 0.8080 0.9100 0.6740
C31_7 C 0.8897(3) 0.9472(3) 0.8254(3)
C34_7 C 0.8487(3) 0.8981(3) 0.8543(3)
C37_7 C 0.9416(2) 0.9883(3) 0.8602(3)
C40_7 C 0.8371(3) 0.8687(2) 0.9374(3)
N14_7 N 0.8750(2) 0.9569(2) 0.7426(3)
N18_7 N 0.8090(2) 0.8772(2) 0.7905(3)
O29_7 O 0.7880(2) 0.8308(2) 0.9416(3)
O33_7 O 0.8751(2) 0.8805(2) 0.9953(2)
C31_8 C 0.1972(3) 0.3603(3) 0.0754(3)
C34_8 C 0.1481(3) 0.4013(3) 0.1043(3)
C37_8 C 0.2383(3) 0.3084(2) 0.1102(3)
C40_8 C 0.1187(2) 0.4129(3) 0.1874(3)
N18_8 N 0.1272(2) 0.4410(2) 0.0405(3)
O29_8 O 0.0808(2) 0.4620(2) 0.1916(3)
O33_8 O 0.1305(2) 0.3749(2) 0.2453(2)
Eu6_8 Eu 0.294501(13) 0.326494(12) 0.911485(15)
C28_8 C 0.1640(3) 0.4229(3) 0.9761(3)
H10_8 H 0.1600 0.4420 0.9240
N14_8 N 0.2069(2) 0.3750(2) 0.9926(3)
H21_2 H 0.00816377 0.160037 0.99804
C5_3 C 0.3845(3) 0.4371(3) 0.0025(3)
O2_3 O 0.4136(3) 0.4594(2) 0.0644(3)
O4_3 O 0.4191(2) 0.5985(2) 0.0345(2)
C13_3 C 0.2468(3) 0.5301(3) 0.1008(3)
H7_3 H 0.2518 0.4987 0.0594
C16_3 C 0.2017(3) 0.5959(2) 0.1871(3)
C19_3 C 0.2694(2) 0.5986(2) 0.1953(3)
C22_3 C 0.1457(3) 0.6302(2) 0.2247(3)
C25_3 C 0.3129(3) 0.6345(3) 0.2525(3)
N7_3 N 0.2981(2) 0.5568(2) 0.1400(3)
N10_3 N 0.1879(2) 0.5515(2) 0.1250(3)
N11 N 0.1985(2) 0.4379(2) 0.3750(3)
O14_3 O 0.3736(2) 0.6331(2) 0.2357(3)
O17 O 0.2906(2) 0.6636(3) 0.3144(3)
O21_3 O 0.08911(18) 0.6180(2) 0.1935(2)
O22 O 0.1320(2) 0.33911(18) 0.4435(2)
O25 O 0.1515(2) 0.6691(2) 0.2845(2)
O51_3 O 0.1149(2) 0.2422(2) 0.3009(3)
O53_3 O 0.5175(3) 0.4733(3) 0.1641(3)
O56_3 O 0.5108(3) 0.6234(3) 0.1689(3)
H12_3 H 0.4809 0.6595 0.2024
H15_3 H 0.5355 0.6098 0.2025
H21_3 H 0.00816377 0.660037 0.00196036
C1_3 C 0.2801(3) 0.5032(3) 0.8508(3)
H1_3 H 0.2487 0.4982 0.8094
C2_3 C 0.3459(2) 0.5483(3) 0.9371(3)
C3_3 C 0.3486(2) 0.4806(2) 0.9453(3)
C4_3 C 0.3802(2) 0.6043(3) 0.9747(3)
N1_3 N 0.3068(2) 0.4519(2) 0.8900(3)
N2_3 N 0.3015(2) 0.5621(2) 0.8750(3)
O1_3 O 0.3831(2) 0.3764(2) 0.9857(3)
O3_3 O 0.3680(2) 0.66089(18) 0.9435(2)
O9_3 O 0.3851(2) 0.7578(2) 0.8009(3)
O10_3 O 0.2233(3) 0.2325(3) 0.9141(3)
O11_3 O 0.3734(3) 0.2392(3) 0.9189(3)
H3_3 H 0.4095 0.2691 0.9524
H4_3 H 0.3598 0.2145 0.9525
C11_3 C 0.2532(3) 0.4699(3) 0.6008(3)
C12_3 C 0.2199(3) 0.4968(3) 0.3508(3)
H5_3 H 0.2482 0.5013 0.5594
H6_3 H 0.2513 0.5018 0.3094
C14_3 C 0.2983(3) 0.4041(2) 0.6871(3)
C15_3 C 0.1541(2) 0.4517(3) 0.4371(3)
C17_3 C 0.2306(2) 0.4014(2) 0.6953(3)
C18_3 C 0.1514(2) 0.5194(2) 0.4453(3)
C20_3 C 0.3543(3) 0.3698(2) 0.7247(3)
C21_3 C 0.1198(2) 0.3957(3) 0.4747(3)
C23_3 C 0.1871(3) 0.3655(3) 0.7525(3)
C24_3 C 0.1155(3) 0.5629(3) 0.5025(3)
N5_3 N 0.2019(2) 0.4432(2) 0.6400(3)
N6_3 N 0.1932(2) 0.5481(2) 0.3900(3)
N8_3 N 0.3121(2) 0.4485(2) 0.6250(3)
O12_3 O 0.1264(2) 0.3669(2) 0.7357(3)
O13_3 O 0.1169(2) 0.6236(2) 0.4857(3)
O15_3 O 0.2094(2) 0.3364(3) 0.8144(3)
O16_3 O 0.0864(3) 0.5406(2) 0.5644(3)
O19_3 O 0.41089(18) 0.3820(2) 0.6935(2)
O23_3 O 0.3485(2) 0.3309(2) 0.7845(2)
O24_3 O 0.0809(2) 0.4015(2) 0.5345(2)
O49_3 O 0.5078(2) 0.3649(2) 0.5509(3)
O54_3 O 0.2767(3) 0.7675(3) 0.4141(3)
O57_3 O 0.1266(3) 0.7608(3) 0.4189(3)
H11_3 H 0.0191 0.3405 0.7024
H13_3 H 0.0905 0.7309 0.4524
H16_3 H 0.1402 0.7855 0.4525
O50_3 O 0.9922(2) 0.6351(2) 0.0509(3)
O52_3 O 0.9825(3) 0.5267(3) 0.6641(3)
O55_3 O 0.9892(3) 0.3766(3) 0.6689(3)
H14_3 H 0.9645 0.3902 0.7025
O11_4 O 0.0108(3) 0.1234(3) 0.6689(3)
H4_4 H 0.0355 0.1098 0.7025
O51_4 O 0.0078(2) 0.8649(2) 0.0509(3)
O10_4 O 0.0175(3) 0.9733(3) 0.6641(3)
C25_4 C 0.6155(3) 0.0629(3) 0.0025(3)
O17_2 O 0.5864(3) 0.0406(2) 0.0644(3)
C1_4 C 0.7468(3) 0.0301(3) 0.6008(3)
C2_4 C 0.7017(3) 0.0959(2) 0.6871(3)
C3_4 C 0.7694(2) 0.0986(2) 0.6953(3)
C4_4 C 0.6457(3) 0.1302(2) 0.7247(3)
C5_4 C 0.8129(3) 0.1345(3) 0.7525(3)
N1_4 N 0.7981(2) 0.0568(2) 0.6400(3)
N2_4 N 0.6879(2) 0.0515(2) 0.6250(3)
O1_4 O 0.8736(2) 0.1331(2) 0.7357(3)
O2_4 O 0.7906(2) 0.1636(3) 0.8144(3)
O3_4 O 0.58911(18) 0.1180(2) 0.6935(2)
O4_4 O 0.6515(2) 0.1691(2) 0.7845(2)
O9_4 O 0.4922(2) 0.1351(2) 0.5509(3)
H3_4 H 0.9809 0.1595 0.7024
C11_4 C 0.7801(3) 0.0032(3) 0.3508(3)
H6_4 H 0.7482 0.0013 0.0594
H7_4 H 0.7513 0.0018 0.8094
C14_4 C 0.8459(2) 0.0483(3) 0.4371(3)
C19_4 C 0.6514(2) 0.0194(2) 0.9453(3)
C20_4 C 0.8802(2) 0.1043(3) 0.4747(3)
N7_4 N 0.6932(2) 0.0481(2) 0.8900(3)
N8_4 N 0.8015(2) 0.0621(2) 0.3750(3)
O14_4 O 0.6169(2) 0.1236(2) 0.9857(3)
O19_4 O 0.8680(2) 0.16089(18) 0.4435(2)
O23_4 O 0.9191(2) 0.0985(2) 0.5345(2)
O49_4 O 0.8851(2) 0.2578(2) 0.3009(3)
O53_4 O 0.7767(3) 0.2675(3) 0.9141(3)
O54_4 O 0.4825(3) 0.0267(3) 0.1641(3)
O56_4 O 0.6266(3) 0.2608(3) 0.9189(3)
H12_4 H 0.5905 0.2309 0.9524
H15_4 H 0.6402 0.2855 0.9525
N11_2 N 0.8121(2) 0.9485(2) 0.1250(3)
O22_2 O 0.91089(18) 0.8820(2) 0.1935(2)
O25_2 O 0.5809(2) 0.9015(2) 0.0345(2)
H25_3 H 0.98892 0.822853 0.0712983
H1_4 H 0.7518 0.9987 0.5594
C12_4 C 0.7532(3) 0.9699(3) 0.1008(3)
C13_4 C 0.7199(3) 0.9968(3) 0.8508(3)
H5_4 H 0.7487 0.9982 0.3094
C15_4 C 0.7983(3) 0.9041(2) 0.1871(3)
C16_4 C 0.6541(2) 0.9517(3) 0.9371(3)
C17_4 C 0.8486(2) 0.9806(2) 0.4453(3)
C18_4 C 0.7306(2) 0.9014(2) 0.1953(3)
C21_4 C 0.8543(3) 0.8698(2) 0.2247(3)
C22_4 C 0.6198(2) 0.8957(3) 0.9747(3)
C23_4 C 0.8845(3) 0.9371(3) 0.5025(3)
C24_4 C 0.6871(3) 0.8655(3) 0.2525(3)
N5_4 N 0.8068(2) 0.9519(2) 0.3900(3)
N6_4 N 0.7019(2) 0.9432(2) 0.1400(3)
N10_4 N 0.6985(2) 0.9379(2) 0.8750(3)
O12_4 O 0.8831(2) 0.8764(2) 0.4857(3)
O13_4 O 0.6264(2) 0.8669(2) 0.2357(3)
O15_4 O 0.9136(3) 0.9594(2) 0.5644(3)
O16_4 O 0.7094(2) 0.8364(3) 0.3144(3)
O21_4 O 0.6320(2) 0.83911(18) 0.9435(2)
O24_4 O 0.8485(2) 0.8309(2) 0.2845(2)
O50_4 O 0.6149(2) 0.7422(2) 0.8009(3)
O52_4 O 0.7233(3) 0.7325(3) 0.4141(3)
O55_4 O 0.8734(3) 0.7392(3) 0.4189(3)
O57_4 O 0.4892(3) 0.8766(3) 0.1689(3)
H11_4 H 0.9095 0.7691 0.4524
H13_4 H 0.5191 0.8405 0.2024
H14_4 H 0.8598 0.7145 0.4525
H16_4 H 0.4645 0.8902 0.2025
H25_4 H 0.0110798 0.677147 0.0712983
H21_4 H 0.991836 0.839963 0.00196036
loop_
_geom_bond_atom_site_label_1
_geom_bond_atom_site_label_2
_geom_bond_site_symmetry_1
_geom_bond_site_symmetry_2
H14 O55 1_555 1_555
Eu1 N1 1_555 1_555
Eu2 N2 1_555 1_555
C1 H1 1_555 1_555
C2 C3 1_555 1_555
C4 C2 1_555 1_555
C6 H2 1_555 1_555
N1 C1 1_555 1_555
N2 C1 1_555 1_555
N3 Eu1 1_555 1_555
O1 Eu1 1_555 1_555
O3 Eu2 1_555 1_555
O9 Eu2 1_555 1_555
O10 Eu1 1_555 1_555
O11 Eu1 1_555 1_555
H3 O11 1_555 1_555
H4 O11 1_555 1_555
Eu3 N5 1_555 1_555
Eu5 N6 1_555 1_555
Eu8 N8 1_555 1_555
Eu13 O33 1_555 1_555
Eu15 N9 1_555 1_555
C11 H5 1_555 1_555
C12 H6 1_555 1_555
C14 C17 1_555 1_555
C15 C18 1_555 1_555
C17 C23 1_555 1_555
C18 C24 1_555 1_555
C20 C14 1_555 1_555
C21 C15 1_555 1_555
C23 O12 1_555 1_555
C24 O13 1_555 1_555
C26 H8 1_555 1_555
C27 H9 1_555 1_555
C29 C32 1_555 1_555
C30 C33 1_555 1_555
C31 C34 1_555 1_555
C32 C38 1_555 1_555
C33 C39 1_555 1_555
C34 C40 1_555 1_555
C35 C29 1_555 1_555
C36 C30 1_555 1_555
C37 C31 1_555 1_555
C38 O27 1_555 1_555
C39 O28 1_555 1_555
C40 O29 1_555 1_555
N5 C11 1_555 1_555
N6 C12 1_555 1_555
N8 C11 1_555 1_555
N9 C12 1_555 1_555
N12 Eu3 1_555 1_555
N13 Eu5 1_555 1_555
N16 Eu2 1_555 1_555
N17 Eu8 1_555 1_555
O12 Eu3 1_555 1_555
O13 Eu5 1_555 1_555
O15 Eu1 1_555 1_555
O16 Eu3 1_555 1_555
O18 Eu5 1_555 1_555
O19 Eu8 1_555 1_555
O20 Eu15 1_555 1_555
O23 Eu1 1_555 1_555
O24 Eu3 1_555 1_555
O26 Eu5 1_555 1_555
O27 Eu2 1_555 1_555
O28 Eu8 1_555 1_555
O32 Eu2 1_555 1_555
O33 C40 1_555 1_555
O34 Eu8 1_555 1_555
O35 Eu3 1_555 1_555
O36 Eu5 1_555 1_555
O37 Eu2 1_555 1_555
O39 Eu8 1_555 1_555
O43 Eu2 1_555 1_555
O44 Eu2 1_555 1_555
O45 Eu8 1_555 1_555
O46 Eu8 1_555 1_555
O49 Eu8 1_555 1_555
O54 Eu5 1_555 1_555
O57 Eu5 1_555 1_555
H13 O57 1_555 1_555
H16 O57 1_555 1_555
C2 N2 1_555 1_555
C3 N1 1_555 1_555
C4 O3 1_555 1_555
C6 N3 1_555 1_555
Eu13 O36 1_555 1_555
Eu13 O43 1_555 1_555
Eu13 O44 1_555 1_555
C14 N8 1_555 1_555
C15 N9 1_555 1_555
C17 N5 1_555 1_555
C18 N6 1_555 1_555
C20 O19 1_555 1_555
C20 O23 1_555 1_555
C21 O20 1_555 1_555
C21 O24 1_555 1_555
C23 O15 1_555 1_555
C24 O16 1_555 1_555
C26 N12 1_555 1_555
C26 N16 1_555 1_555
C27 N13 1_555 1_555
C27 N17 1_555 1_555
C29 N12 1_555 1_555
C30 N13 1_555 1_555
C32 N16 1_555 1_555
C33 N17 1_555 1_555
C34 N18 1_555 1_555
C35 O35 1_555 1_555
C35 O42 1_555 1_555
C36 O36 1_555 1_555
C36 O43 1_555 1_555
C37 O37 1_555 1_555
C37 O44 1_555 1_555
C38 O31 1_555 1_555
C39 O32 1_555 1_555
C7 C8 1_555 1_555
C8 C10 1_555 1_555
C9 C7 1_555 1_555
C10 O5 1_555 1_555
O2 C5 1_555 1_555
O5 Eu9 1_555 1_555
O6 C10 1_555 1_555
O8 C9 1_555 1_555
Eu4 O2 1_555 1_555
Eu6 N14 1_555 1_555
Eu9 N4 1_555 1_555
Eu15 O6 1_555 1_555
Eu11 O7 1_555 1_555
C13 H7 1_555 1_555
C16 C19 1_555 1_555
C19 C25 1_555 1_555
C22 C16 1_555 1_555
C25 O14 1_555 1_555
C28 H10 1_555 1_555
N7 Eu4 1_555 1_555
N10 Eu9 1_555 1_555
N14 C28 1_555 1_555
N15 Eu4 1_555 1_555
N19 Eu15 1_555 1_555
O14 Eu4 1_555 1_555
O18 C25 1_555 1_555
O21 Eu9 1_555 1_555
O30 Eu15 1_555 1_555
O38 Eu4 1_555 1_555
O41 Eu15 1_555 1_555
O48 Eu15 1_555 1_555
O51 Eu15 1_555 1_555
O53 Eu4 1_555 1_555
O56 Eu4 1_555 1_555
H12 O56 1_555 1_555
H15 O56 1_555 1_555
C8 N4 1_555 1_555
C9 O7 1_555 1_555
O4 Eu4 1_555 1_555
O8 Eu15 1_555 1_555
O8 Eu11 1_555 1_555
Eu11 O48 1_555 1_555
C13 N7 1_555 1_555
C13 N10 1_555 1_555
C16 N10 1_555 1_555
C19 N7 1_555 1_555
C22 O21 1_555 1_555
C22 O26 1_555 1_555
C6_2 H2_2 1_555 1_555
C7_2 C8_2 1_555 1_555
C8_2 C10_2 1_555 1_555
C9_2 C7_2 1_555 1_555
C10_2 O5_2 1_555 1_555
N4_2 C6_2 1_555 1_555
O5_2 Eu9_2 1_555 1_555
O6_2 C10_2 1_555 1_555
O8_2 C9_2 1_555 1_555
Eu3_2 N5_2 1_555 1_555
Eu5_2 N6_2 1_555 1_555
Eu9_2 N4_2 1_555 1_555
Eu12_2 O35_2 1_555 1_555
Eu13_2 O33_2 1_555 1_555
Eu13 N18_2 1_555 1_555
Eu15_2 N9_2 1_555 1_555
C15_2 C18_2 1_555 1_555
C17_2 C23_2 1_555 1_555
C18_2 C24_2 1_555 1_555
C21_2 C15_2 1_555 1_555
C22_2 C16_2 1_555 1_555
C23_2 O12_2 1_555 1_555
C24_2 O13_2 1_555 1_555
C26_2 H8_2 1_555 1_555
C28_2 H10_2 1_555 1_555
C29_2 C32_2 1_555 1_555
C31_2 C34_2 1_555 1_555
C32_2 C38_2 1_555 1_555
C34_2 C40_2 1_555 1_555
C35_2 C29_2 1_555 1_555
C37_2 C31_2 1_555 1_555
C38_2 O27_2 1_555 1_555
C40_2 O29_2 1_555 1_555
N6_2 C12_2 1_555 1_555
N9_2 C12_2 1_555 1_555
N10_2 Eu9_2 1_555 1_555
N12_2 Eu3_2 1_555 1_555
N14_2 C28_2 1_555 1_555
N18_2 C28_2 1_555 1_555
O12_2 Eu3_2 1_555 1_555
O13_2 Eu5_2 1_555 1_555
O16_2 Eu3_2 1_555 1_555
O20_2 Eu15_2 1_555 1_555
O21_2 Eu9_2 1_555 1_555
O24_2 Eu3_2 1_555 1_555
O26_2 Eu5_2 1_555 1_555
O29_2 Eu13 1_555 1_555
O31_2 Eu9_2 1_555 1_555
O33_2 C40_2 1_555 1_555
O35_2 Eu3_2 1_555 1_555
O36_2 Eu5_2 1_555 1_555
O40_2 Eu9_2 1_555 1_555
O42_2 Eu9_2 1_555 1_555
O47_2 Eu9_2 1_555 1_555
O50_2 Eu9_2 1_555 1_555
O52_2 Eu3_2 1_555 1_555
O55_2 Eu3_2 1_555 1_555
O57_2 Eu5_2 1_555 1_555
H11_2 O55_2 1_555 1_555
H13_2 O57_2 1_555 1_555
H14_2 O55_2 1_555 1_555
H16_2 O57_2 1_555 1_555
C6_2 N3_2 1_555 1_555
C7_2 N3_2 1_555 1_555
C8_2 N4_2 1_555 1_555
Eu12_2 O42_2 1_555 1_555
Eu12_2 O47_2 1_555 1_555
Eu13_2 O36_2 1_555 1_555
Eu13_2 O44_2 1_555 1_555
C13_2 N10_2 1_555 1_555
C15_2 N9_2 1_555 1_555
C16_2 N10_2 1_555 1_555
C17_2 N5_2 1_555 1_555
C18_2 N6_2 1_555 1_555
C21_2 O20_2 1_555 1_555
C21_2 O24_2 1_555 1_555
C22_2 O21_2 1_555 1_555
C23_2 O15_2 1_555 1_555
C24_2 O16_2 1_555 1_555
C26_2 N12_2 1_555 1_555
C26_2 N16_2 1_555 1_555
C29_2 N12_2 1_555 1_555
C31_2 N14_2 1_555 1_555
C32_2 N16_2 1_555 1_555
C34_2 N18_2 1_555 1_555
C35_2 O35_2 1_555 1_555
C35_2 O42_2 1_555 1_555
C37_2 O44_2 1_555 1_555
C38_2 O31_2 1_555 1_555
Eu1_2 N1_2 1_555 1_555
Eu2_2 N2_2 1_555 1_555
C2_2 C3_2 1_555 1_555
C3_2 C5_2 1_555 1_555
C4_2 C2_2 1_555 1_555
C5_2 O1_2 1_555 1_555
N1_2 C1_2 1_555 1_555
N2_2 C1_2 1_555 1_555
O1_2 Eu1_2 1_555 1_555
O2_2 C5_2 1_555 1_555
O3_2 Eu2_2 1_555 1_555
O4_2 C4_2 1_555 1_555
O7_2 Eu1_2 1_555 1_555
O9_2 Eu2_2 1_555 1_555
Eu4_2 O2_2 1_555 1_555
Eu8_2 N8_2 1_555 1_555
C20_2 C14_2 1_555 1_555
C27_2 H9_2 1_555 1_555
C30_2 C33_2 1_555 1_555
C33_2 C39_2 1_555 1_555
C36_2 C30_2 1_555 1_555
C39_2 O28_2 1_555 1_555
N7_2 Eu4_2 1_555 1_555
N8_2 C11_2 1_555 1_555
N15_2 Eu4_2 1_555 1_555
N17_2 Eu8_2 1_555 1_555
O14_2 Eu4_2 1_555 1_555
O19_2 Eu8_2 1_555 1_555
O23_2 Eu1_2 1_555 1_555
O28_2 Eu8_2 1_555 1_555
O32_2 Eu2_2 1_555 1_555
O34_2 Eu8_2 1_555 1_555
O37_2 Eu2_2 1_555 1_555
O39_2 Eu8_2 1_555 1_555
O43_2 Eu2_2 1_555 1_555
O45_2 Eu8_2 1_555 1_555
O46_2 Eu8_2 1_555 1_555
O49_2 Eu8_2 1_555 1_555
O53_2 Eu4_2 1_555 1_555
O56_2 Eu4_2 1_555 1_555
H12_2 O56_2 1_555 1_555
H15_2 O56_2 1_555 1_555
C2_2 N2_2 1_555 1_555
C3_2 N1_2 1_555 1_555
C4_2 O3_2 1_555 1_555
O4_2 Eu4_2 1_555 1_555
Eu6_2 O37_2 1_555 1_555
C14_2 N8_2 1_555 1_555
C19_2 N7_2 1_555 1_555
C20_2 O19_2 1_555 1_555
C20_2 O23_2 1_555 1_555
C27_2 N13_2 1_555 1_555
C27_2 N17_2 1_555 1_555
C30_2 N13_2 1_555 1_555
C33_2 N17_2 1_555 1_555
C36_2 O43_2 1_555 1_555
C39_2 O32_2 1_555 1_555
O18_2 C25_2 1_555 1_555
H4_2 O11_2 1_555 1_555
C27_3 H9_3 1_555 1_555
C27_3 N15_2 1_555 1_555
Eu6_3 N14_3 1_555 1_555
Eu13_3 O33_3 1_555 1_555
Eu14_2 N18_3 1_555 1_555
C28_3 H10_3 1_555 1_555
C30_3 C33_3 1_555 1_555
C31_3 C34_3 1_555 1_555
C33_3 C39_3 1_555 1_555
C34_3 C40_3 1_555 1_555
C36_3 C30_3 1_555 1_555
C37_3 C31_3 1_555 1_555
C39_3 O30_2 1_555 1_555
C40_3 O29_3 1_555 1_555
N14_3 C28_3 1_555 1_555
N18_3 C28_3 1_555 1_555
O29_3 Eu14_2 1_555 1_555
O33_3 C40_3 1_555 1_555
Eu6_3 O39_2 1_555 1_555
Eu13_3 O38_2 1_555 1_555
Eu13_3 O45_2 1_555 1_555
Eu13_3 O46_2 1_555 1_555
C31_3 N14_3 1_555 1_555
C33_3 N19_2 1_555 1_555
C34_3 N18_3 1_555 1_555
C36_3 O38_2 1_555 1_555
C36_3 O45_2 1_555 1_555
C37_3 O39_2 1_555 1_555
C37_3 O46_2 1_555 1_555
C39_3 O34_2 1_555 1_555
Eu6_4 N14_4 1_555 1_555
Eu13_3 N18_4 1_555 1_555
C28_4 H10_4 1_555 1_555
C31_4 C34_4 1_555 1_555
C34_4 C40_4 1_555 1_555
C37_4 C31_4 1_555 1_555
C40_4 O29_4 1_555 1_555
N14_4 C28_4 1_555 1_555
N18_4 C28_4 1_555 1_555
O29_4 Eu13_3 1_555 1_555
O33_4 C40_4 1_555 1_555
Eu6_4 O40 1_555 1_555
C31_4 N14_4 1_555 1_555
C34_4 N18_4 1_555 1_555
C37_4 O40 1_555 1_555
C37_4 O47 1_555 1_555
C6_3 H2_3 1_555 1_555
C7_3 C8_3 1_555 1_555
C8_3 C10_3 1_555 1_555
C9_3 C7_3 1_555 1_555
C10_3 O30 1_555 1_555
N19 C6_3 1_555 1_555
O34 C10_3 1_555 1_555
O45 C9_3 1_555 1_555
Eu14_2 O38 1_555 1_555
C6_3 N15 1_555 1_555
C7_3 N15 1_555 1_555
C8_3 N19 1_555 1_555
C9_3 O38 1_555 1_555
O45 Eu14_2 1_555 1_555
Eu14_2 O46 1_555 1_555
Eu6_5 N14_5 1_555 1_555
Eu14_2 O33_5 1_555 1_555
Eu12_2 N18_5 1_555 1_555
C28_5 H10_5 1_555 1_555
C31_5 C34_5 1_555 1_555
C34_5 C40_5 1_555 1_555
C37_5 C31_5 1_555 1_555
C40_5 O29_5 1_555 1_555
N14_5 C28_5 1_555 1_555
N18_5 C28_5 1_555 1_555
O29_5 Eu12_2 1_555 1_555
O33_5 C40_5 1_555 1_555
Eu6_5 O39 1_555 1_555
C31_5 N14_5 1_555 1_555
C34_5 N18_5 1_555 1_555
C37_5 O39 1_555 1_555
C37_5 O46 1_555 1_555
Eu6_6 N14_6 1_555 1_555
Eu11 O33_6 1_555 1_555
C28_6 H10_6 1_555 1_555
C31_6 C34_6 1_555 1_555
C34_6 C40_6 1_555 1_555
C37_6 C31_6 1_555 1_555
C40_6 O29_6 1_555 1_555
N14_6 C28_6 1_555 1_555
N18_6 C28_6 1_555 1_555
O33_6 C40_6 1_555 1_555
Eu6_6 O41 1_555 1_555
C31_6 N14_6 1_555 1_555
C34_6 N18_6 1_555 1_555
C37_6 O41 1_555 1_555
C37_6 O48 1_555 1_555
Eu6_7 O41_2 1_555 1_555
Eu11 N18_7 1_555 1_555
C28_7 H10_7 1_555 1_555
C31_7 C34_7 1_555 1_555
C34_7 C40_7 1_555 1_555
C37_7 C31_7 1_555 1_555
C40_7 O29_7 1_555 1_555
N14_7 C28_7 1_555 1_555
N18_7 C28_7 1_555 1_555
O29_7 Eu11 1_555 1_555
O33_7 C40_7 1_555 1_555
C31_7 N14_7 1_555 1_555
C34_7 N18_7 1_555 1_555
C37_7 O48_2 1_555 1_555
Eu12_2 O33_8 1_555 1_555
Eu12 N18_8 1_555 1_555
C31_8 C34_8 1_555 1_555
C34_8 C40_8 1_555 1_555
C37_8 C31_8 1_555 1_555
C40_8 O29_8 1_555 1_555
O29_8 Eu12 1_555 1_555
O33_8 C40_8 1_555 1_555
C34_8 N18_8 1_555 1_555
C37_8 O40_2 1_555 1_555
C37_8 O47_2 1_555 1_555
Eu6_8 N14_8 1_555 1_555
C28_8 H10_8 1_555 1_555
N14_8 C28_8 1_555 1_555
O2_3 C5_3 1_555 1_555
Eu6_5 O2_3 1_555 1_555
Eu6_3 O17 1_555 1_555
C13_3 H7_3 1_555 1_555
C16_3 C19_3 1_555 1_555
C19_3 C25_3 1_555 1_555
C22_3 C16_3 1_555 1_555
C25_3 O14_3 1_555 1_555
N7_3 Eu6_5 1_555 1_555
N10_3 Eu12 1_555 1_555
N11 Eu12_2 1_555 1_555
O14_3 Eu6_5 1_555 1_555
O17 C25_3 1_555 1_555
O21_3 Eu12 1_555 1_555
O22 Eu12_2 1_555 1_555
O25 Eu6_3 1_555 1_555
O51_3 Eu12_2 1_555 1_555
O53_3 Eu6_5 1_555 1_555
O56_3 Eu6_5 1_555 1_555
H12_3 O56_3 1_555 1_555
H15_3 O56_3 1_555 1_555
O4_3 Eu6_5 1_555 1_555
C13_3 N7_3 1_555 1_555
C13_3 N10_3 1_555 1_555
C16_3 N10_3 1_555 1_555
C19_3 N7_3 1_555 1_555
C22_3 O21_3 1_555 1_555
C22_3 O25 1_555 1_555
Eu6_8 N1_3 1_555 1_555
Eu13_3 N2_3 1_555 1_555
C1_3 H1_3 1_555 1_555
C2_3 C3_3 1_555 1_555
C4_3 C2_3 1_555 1_555
N1_3 C1_3 1_555 1_555
N2_3 C1_3 1_555 1_555
O1_3 Eu6_8 1_555 1_555
O3_3 Eu13_3 1_555 1_555
O9_3 Eu13_3 1_555 1_555
O10_3 Eu6_8 1_555 1_555
O11_3 Eu6_8 1_555 1_555
H3_3 O11_3 1_555 1_555
H4_3 O11_3 1_555 1_555
Eu6_4 N5_3 1_555 1_555
Eu6_3 N6_3 1_555 1_555
Eu14_2 N8_3 1_555 1_555
C11_3 H5_3 1_555 1_555
C12_3 H6_3 1_555 1_555
C14_3 C17_3 1_555 1_555
C15_3 C18_3 1_555 1_555
C17_3 C23_3 1_555 1_555
C18_3 C24_3 1_555 1_555
C20_3 C14_3 1_555 1_555
C21_3 C15_3 1_555 1_555
C23_3 O12_3 1_555 1_555
C24_3 O13_3 1_555 1_555
N5_3 C11_3 1_555 1_555
N6_3 C12_3 1_555 1_555
N8_3 C11_3 1_555 1_555
N11 C12_3 1_555 1_555
O12_3 Eu6_4 1_555 1_555
O13_3 Eu6_3 1_555 1_555
O15_3 Eu6_8 1_555 1_555
O16_3 Eu6_4 1_555 1_555
O19_3 Eu14_2 1_555 1_555
O23_3 Eu6_8 1_555 1_555
O24_3 Eu6_4 1_555 1_555
O49_3 Eu14_2 1_555 1_555
O54_3 Eu6_3 1_555 1_555
O57_3 Eu6_3 1_555 1_555
H13_3 O57_3 1_555 1_555
H16_3 O57_3 1_555 1_555
C2_3 N2_3 1_555 1_555
C3_3 N1_3 1_555 1_555
C4_3 O3_3 1_555 1_555
C14_3 N8_3 1_555 1_555
C15_3 N11 1_555 1_555
C17_3 N5_3 1_555 1_555
C18_3 N6_3 1_555 1_555
C20_3 O19_3 1_555 1_555
C20_3 O23_3 1_555 1_555
C21_3 O22 1_555 1_555
C21_3 O24_3 1_555 1_555
C23_3 O15_3 1_555 1_555
C24_3 O16_3 1_555 1_555
H14_3 O55_3 1_555 1_555
H4_4 O11_4 1_555 1_555
O17_2 C25_4 1_555 1_555
Eu6_7 N1_4 1_555 1_555
Eu13_2 N2_4 1_555 1_555
C2_4 C3_4 1_555 1_555
C3_4 C5_4 1_555 1_555
C4_4 C2_4 1_555 1_555
C5_4 O1_4 1_555 1_555
N1_4 C1_4 1_555 1_555
N2_4 C1_4 1_555 1_555
O1_4 Eu6_7 1_555 1_555
O2_4 C5_4 1_555 1_555
O3_4 Eu13_2 1_555 1_555
O4_4 C4_4 1_555 1_555
O9_4 Eu13_2 1_555 1_555
Eu6 O2_4 1_555 1_555
Eu13 N8_4 1_555 1_555
C20_4 C14_4 1_555 1_555
N7_4 Eu6 1_555 1_555
N8_4 C11_4 1_555 1_555
O14_4 Eu6 1_555 1_555
O19_4 Eu13 1_555 1_555
O23_4 Eu6_7 1_555 1_555
O49_4 Eu13 1_555 1_555
O53_4 Eu6 1_555 1_555
O56_4 Eu6 1_555 1_555
H12_4 O56_4 1_555 1_555
H15_4 O56_4 1_555 1_555
C2_4 N2_4 1_555 1_555
C3_4 N1_4 1_555 1_555
C4_4 O3_4 1_555 1_555
O4_4 Eu6 1_555 1_555
C14_4 N8_4 1_555 1_555
C19_4 N7_4 1_555 1_555
C20_4 O19_4 1_555 1_555
C20_4 O23_4 1_555 1_555
N11_2 Eu14 1_555 1_555
O22_2 Eu14 1_555 1_555
O25_2 Eu6_2 1_555 1_555
Eu6_6 N5_4 1_555 1_555
Eu6_2 N6_4 1_555 1_555
C15_4 C18_4 1_555 1_555
C17_4 C23_4 1_555 1_555
C18_4 C24_4 1_555 1_555
C21_4 C15_4 1_555 1_555
C22_4 C16_4 1_555 1_555
C23_4 O12_4 1_555 1_555
C24_4 O13_4 1_555 1_555
N6_4 C12_4 1_555 1_555
N11_2 C12_4 1_555 1_555
N10_4 Eu11 1_555 1_555
O12_4 Eu6_6 1_555 1_555
O13_4 Eu6_2 1_555 1_555
O16_4 Eu6_6 1_555 1_555
O21_4 Eu11 1_555 1_555
O24_4 Eu6_6 1_555 1_555
O50_4 Eu11 1_555 1_555
O52_4 Eu6_6 1_555 1_555
O55_4 Eu6_6 1_555 1_555
O57_4 Eu6_2 1_555 1_555
H11_4 O55_4 1_555 1_555
H13_4 O57_4 1_555 1_555
H14_4 O55_4 1_555 1_555
H16_4 O57_4 1_555 1_555
C13_4 N10_4 1_555 1_555
C15_4 N11_2 1_555 1_555
C16_4 N10_4 1_555 1_555
C17_4 N5_4 1_555 1_555
C18_4 N6_4 1_555 1_555
C21_4 O22_2 1_555 1_555
C21_4 O24_4 1_555 1_555
C22_4 O21_4 1_555 1_555
C23_4 O15_4 1_555 1_555
C24_4 O16_4 1_555 1_555

#END
