
###############################################################################
#
# This file contains modified crystal structure data generated from the
# MOF subset of the Cambridge Structural Database (CSD) v543 
# hosted by the Cambridge Crystallographic Data Centre (CCDC).
#
# This work is licensed under the Creative Commons
# Attribution-NonCommercial-ShareAlike 4.0 International License.
# To view a copy of this license, visit
# http://creativecommons.org/licenses/by-nc-sa/4.0/
# or send a letter to
# Creative Commons, PO Box 1866, Mountain View, CA 94042, USA.
#
# CIF created using the CSD Python API on 29 September 2022
# The structure has been converted into the P1 space group
# The structure has a 3D framework
# The original CSD entry RASXEP01 is in the tetragonal crystal system
# The framework has been calculated to contain at least 10.0% void space
# The void calculation uses a probe of radius 1.32A, grid spacing 0.4
# H atom positions have been added when not included in the experimental data
#
###############################################################################

data_RASXEP01
_chemical_formula_moiety         '(C160 H128 N64 O172 Sm32)n'
_symmetry_cell_setting           triclinic
_symmetry_space_group_name_H-M   'P 1'
_symmetry_Int_Tables_number      1
_space_group_name_Hall           'P 1'
loop_
_symmetry_equiv_pos_site_id
_symmetry_equiv_pos_as_xyz
1 x,y,z
_cell_length_a                   20.3673(7)
_cell_length_b                   20.3673(7)
_cell_length_c                   16.2663(8)
_cell_angle_alpha                90
_cell_angle_beta                 90
_cell_angle_gamma                90
_cell_volume                     6747.7
loop_
_atom_site_label
_atom_site_type_symbol
_atom_site_fract_x
_atom_site_fract_y
_atom_site_fract_z
Sm1 Sm 0.79547(3) 0.32605(3) 0.08788(4)
Sm2 Sm 0.79567(3) 0.68167(3) 0.16902(4)
C1 C 0.7814(6) 0.5029(6) 0.1496(8)
H1 H 0.7505 0.4980 0.1913
C2 C 0.8500(6) 0.4810(6) 0.0537(8)
C3 C 0.8471(6) 0.5487(6) 0.0626(8)
C4 C 0.8809(6) 0.6054(5) 0.0261(7)
C6 C 0.6635(6) 0.4233(7) 0.0241(8)
H2 H 0.6592 0.4416 0.0762
N1 N 0.8036(6) 0.5625(5) 0.1237(7)
N2 N 0.8084(5) 0.4518(5) 0.1092(7)
N3 N 0.7076(5) 0.3760(5) 0.0060(6)
O1 O 0.8704(5) 0.6608(4) 0.0575(5)
O4 O 0.8855(5) 0.3771(4) 0.0152(7)
O9 O 0.8757(6) 0.2377(5) 0.0810(7)
O10 O 0.7228(5) 0.2311(4) 0.0841(5)
O11 O 0.8879(5) 0.7572(5) 0.1997(7)
N5 N 0.6912(5) 0.6235(5) 0.2100(6)
O12 O 0.8487(5) 0.3304(5) 0.2146(5)
O13 O 0.7094(4) 0.3364(5) 0.1829(6)
O14 O 0.7122(4) 0.6695(4) 0.0597(5)
O15 O 0.8703(4) 0.6256(4) 0.2550(5)
O16 O 0.7299(4) 0.7860(4) 0.1834(5)
O17 O 0.7701(4) 0.7140(4) 0.3166(5)
O18 O 0.7843(4) 0.7853(4) 0.0658(5)
H3 H 0.915819 0.762161 0.150041
H4 H 0.870233 0.800745 0.215963
H5 H 0.688929 0.237647 0.0409621
H6 H 0.748753 0.191087 0.0714285
H7 H 0.900711 0.235837 0.13335
H8 H 0.852715 0.195292 0.0721212
C5 C 0.8853(7) 0.4370(6) 0.9979(8)
C7 C 0.6980(6) 0.3610(6) 0.9239(7)
C8 C 0.6474(6) 0.4020(6) 0.8971(8)
C9 C 0.6188(6) 0.4130(6) 0.8145(8)
C10 C 0.7391(6) 0.3075(6) 0.8881(8)
N4 N 0.6265(5) 0.4412(5) 0.9600(6)
O2 O 0.9196(5) 0.5987(5) 0.9646(5)
O3 O 0.9136(5) 0.4594(4) 0.9329(6)
O5 O 0.5805(4) 0.4622(4) 0.8097(5)
O6 O 0.6297(4) 0.3744(4) 0.7550(5)
O7 O 0.7299(4) 0.2860(4) 0.8166(5)
O8 O 0.7843(4) 0.2853(4) 0.9342(5)
Sm3 Sm 0.92395(3) 0.54547(3) 0.83788(4)
Sm4 Sm 0.56833(3) 0.54567(3) 0.91902(4)
Sm5 Sm 0.70433(3) 0.31833(3) 0.66902(4)
Sm6 Sm 0.79567(3) 0.18167(3) 0.83098(4)
Sm1_2 Sm 0.70453(3) 0.67395(3) 0.58788(4)
C1_2 C 0.7186(6) 0.4971(6) 0.6496(8)
H1_2 H 0.7495 0.5020 0.6913
C2_2 C 0.6500(6) 0.5190(6) 0.5537(8)
C3_2 C 0.6529(6) 0.4513(6) 0.5626(8)
C4_2 C 0.6191(6) 0.3946(5) 0.5261(7)
C5_2 C 0.6147(7) 0.5630(6) 0.4979(8)
C6_2 C 0.8365(6) 0.5767(7) 0.5241(8)
H2_2 H 0.8408 0.5584 0.5762
C7_2 C 0.8020(6) 0.6390(6) 0.4239(7)
C8_2 C 0.8526(6) 0.5980(6) 0.3971(8)
C9_2 C 0.8812(6) 0.5870(6) 0.3145(8)
C10_2 C 0.7609(6) 0.6925(6) 0.3881(8)
N1_2 N 0.6964(6) 0.4375(5) 0.6237(7)
N2_2 N 0.6916(5) 0.5482(5) 0.6092(7)
N3_2 N 0.7924(5) 0.6240(5) 0.5060(6)
N4_2 N 0.8735(5) 0.5588(5) 0.4600(6)
O1_2 O 0.6296(5) 0.3392(4) 0.5575(5)
O2_2 O 0.5804(5) 0.4013(5) 0.4646(5)
O3_2 O 0.5864(5) 0.5406(4) 0.4329(6)
O4_2 O 0.6145(5) 0.6229(4) 0.5152(7)
O5_2 O 0.9195(4) 0.5378(4) 0.3097(5)
O8_2 O 0.7157(4) 0.7147(4) 0.4342(5)
O9_2 O 0.6243(6) 0.7623(5) 0.5810(7)
O10_2 O 0.7772(5) 0.7689(4) 0.5841(5)
O11_2 O 0.6121(5) 0.2428(5) 0.6997(7)
Sm3_2 Sm 0.57605(3) 0.45453(3) 0.33788(4)
Sm4_2 Sm 0.93167(3) 0.45433(3) 0.41902(4)
Sm6_2 Sm 0.70433(3) 0.81833(3) 0.33098(4)
N5_2 N 0.8088(5) 0.3765(5) 0.7100(6)
O12_2 O 0.6513(5) 0.6696(5) 0.7146(5)
O13_2 O 0.7906(4) 0.6636(5) 0.6829(6)
O14_2 O 0.7878(4) 0.3305(4) 0.5597(5)
O16_2 O 0.7701(4) 0.2140(4) 0.6834(5)
O18_2 O 0.7157(4) 0.2147(4) 0.5658(5)
H3_2 H 0.584181 0.237839 0.650041
H4_2 H 0.629767 0.199255 0.715963
H5_2 H 0.811071 0.762353 0.540962
H6_2 H 0.751247 0.808913 0.571428
H7_2 H 0.599289 0.764163 0.63335
H8_2 H 0.647285 0.804708 0.572121
Sm1_3 Sm 0.42395(3) 0.04547(3) 0.33788(4)
Sm2_2 Sm 0.06833(3) 0.04567(3) 0.41902(4)
C1_3 C 0.2471(6) 0.0314(6) 0.3996(8)
H1_3 H 0.2520 0.0005 0.4413
C2_3 C 0.2690(6) 0.1000(6) 0.3037(8)
C3_3 C 0.2013(6) 0.0971(6) 0.3126(8)
C4_3 C 0.1446(5) 0.1309(6) 0.2761(7)
C5_3 C 0.3130(6) 0.1353(7) 0.2479(8)
N1_3 N 0.1875(5) 0.0536(6) 0.3737(7)
N2_3 N 0.2982(5) 0.0584(5) 0.3592(7)
O1_3 O 0.0892(4) 0.1204(5) 0.3075(5)
O2_3 O 0.1513(5) 0.1696(5) 0.2146(5)
O3_3 O 0.2906(4) 0.1636(5) 0.1829(6)
O4_3 O 0.3729(4) 0.1355(5) 0.2652(7)
O8_3 O 0.4647(4) 0.0343(4) 0.1842(5)
O9_3 O 0.5123(5) 0.1257(6) 0.3310(7)
Sm3_3 Sm 0.20453(3) 0.17395(3) 0.08788(4)
Sm6_3 Sm 0.56833(3) 0.04567(3) 0.08098(4)
O12_3 O 0.4196(5) 0.0987(5) 0.4646(5)
O15_2 O 0.1244(4) 0.1203(4) 0.5050(5)
O17_2 O 0.0360(4) 0.0201(4) 0.5666(5)
H7_3 H 0.514163 0.150711 0.38335
H8_3 H 0.554708 0.102715 0.322121
C6_3 C 0.3267(7) 0.9135(6) 0.2741(8)
H2_3 H 0.3084 0.9092 0.3262
C7_3 C 0.3890(6) 0.9480(6) 0.1739(7)
C8_3 C 0.3480(6) 0.8974(6) 0.1471(8)
C9_3 C 0.3370(6) 0.8688(6) 0.0645(8)
C10_3 C 0.4425(6) 0.9891(6) 0.1381(8)
N3_3 N 0.3740(5) 0.9576(5) 0.2560(6)
N4_3 N 0.3088(5) 0.8765(5) 0.2100(6)
O5_3 O 0.2878(4) 0.8305(4) 0.0597(5)
O6_2 O 0.3756(4) 0.8797(4) 0.0050(5)
O7_2 O 0.4640(4) 0.9799(4) 0.0666(5)
O10_3 O 0.5189(4) 0.9728(5) 0.3341(5)
Sm4_3 Sm 0.20433(3) 0.81833(3) 0.16902(4)
N5_3 N 0.1265(5) 0.9412(5) 0.4600(6)
O13_3 O 0.4136(5) 0.9594(4) 0.4329(6)
O14_3 O 0.0805(4) 0.9622(4) 0.3097(5)
H5_3 H 0.512353 0.938929 0.290962
H6_3 H 0.558913 0.998753 0.321428
Sm5_2 Sm 0.43167(3) 0.95433(3) 0.91902(4)
O11_3 O 0.9928(5) 0.1379(5) 0.4497(7)
O18_3 O 0.9647(4) 0.0343(4) 0.3158(5)
H3_3 H 0.987839 0.165819 0.400041
H4_3 H 0.949255 0.120233 0.465963
O16_3 O 0.9640(4) 0.9799(4) 0.4334(5)
C6_4 C 0.1733(7) 0.0865(6) 0.7741(8)
H2_4 H 0.1916 0.0908 0.8262
C7_4 C 0.1110(6) 0.0520(6) 0.6739(7)
C8_4 C 0.1520(6) 0.1026(6) 0.6471(8)
C9_4 C 0.1630(6) 0.1312(6) 0.5645(8)
C10_4 C 0.0575(6) 0.0109(6) 0.6381(8)
N3_4 N 0.1260(5) 0.0424(5) 0.7560(6)
N4_4 N 0.1912(5) 0.1235(5) 0.7100(6)
O5_4 O 0.2122(4) 0.1695(4) 0.5597(5)
Sm4_4 Sm 0.29567(3) 0.18167(3) 0.66902(4)
N5_4 N 0.3735(5) 0.0588(5) 0.9600(6)
O13_4 O 0.0864(5) 0.0406(4) 0.9329(6)
O14_4 O 0.4195(4) 0.0378(4) 0.8097(5)
O16_4 O 0.5360(4) 0.0201(4) 0.9334(5)
Sm1_4 Sm 0.07605(3) 0.95453(3) 0.83788(4)
C1_4 C 0.2529(6) 0.9686(6) 0.8996(8)
H1_4 H 0.2480 0.9995 0.9413
C2_4 C 0.2310(6) 0.9000(6) 0.8037(8)
C3_4 C 0.2987(6) 0.9029(6) 0.8126(8)
C4_4 C 0.3554(5) 0.8691(6) 0.7761(7)
C5_4 C 0.1870(6) 0.8647(7) 0.7479(8)
N1_4 N 0.3125(5) 0.9464(6) 0.8737(7)
N2_4 N 0.2018(5) 0.9416(5) 0.8592(7)
O1_4 O 0.4108(4) 0.8796(5) 0.8075(5)
O2_4 O 0.3487(5) 0.8304(5) 0.7146(5)
O3_4 O 0.2094(4) 0.8364(5) 0.6829(6)
O4_4 O 0.1271(4) 0.8645(5) 0.7652(7)
O8_4 O 0.0353(4) 0.9657(4) 0.6842(5)
O11_4 O 0.5072(5) 0.8621(5) 0.9497(7)
Sm3_4 Sm 0.29547(3) 0.82605(3) 0.58788(4)
O12_4 O 0.0804(5) 0.9013(5) 0.9646(5)
O18_4 O 0.5353(4) 0.9657(4) 0.8158(5)
H3_4 H 0.512161 0.834181 0.900041
H4_4 H 0.550745 0.879767 0.965963
O9_4 O 0.9877(5) 0.8743(6) 0.8310(7)
Sm6_4 Sm 0.93167(3) 0.95433(3) 0.58098(4)
H7_4 H 0.985837 0.849289 0.88335
H8_4 H 0.945292 0.897285 0.822121
C1_5 C 0.2814(6) 0.0029(6) 0.6496(8)
C3_5 C 0.3471(6) 0.0487(6) 0.5626(8)
C4_5 C 0.3809(6) 0.1054(5) 0.5261(7)
N1_5 N 0.3036(6) 0.0625(5) 0.6237(7)
O1_5 O 0.3704(5) 0.1608(4) 0.5575(5)
O11_5 O 0.3879(5) 0.2572(5) 0.6997(7)
O15_3 O 0.3703(4) 0.1256(4) 0.7550(5)
O16_5 O 0.2299(4) 0.2860(4) 0.6834(5)
O17_3 O 0.2701(4) 0.2140(4) 0.8166(5)
O18_5 O 0.2843(4) 0.2853(4) 0.5658(5)
H3_5 H 0.415819 0.262161 0.650041
H4_5 H 0.370233 0.300745 0.715963
H1_5 H 0.2505 0.9980 0.6913
C2_5 C 0.3500(6) 0.9810(6) 0.5537(8)
C5_5 C 0.3853(7) 0.9370(6) 0.4979(8)
C6_5 C 0.1635(6) 0.9233(7) 0.5241(8)
H2_5 H 0.1592 0.9416 0.5762
C7_5 C 0.1980(6) 0.8610(6) 0.4239(7)
C8_5 C 0.1474(6) 0.9020(6) 0.3971(8)
C9_5 C 0.1188(6) 0.9130(6) 0.3145(8)
C10_5 C 0.2391(6) 0.8075(6) 0.3881(8)
N2_5 N 0.3084(5) 0.9518(5) 0.6092(7)
N3_5 N 0.2076(5) 0.8760(5) 0.5060(6)
O4_5 O 0.3855(5) 0.8771(4) 0.5152(7)
O6_3 O 0.1297(4) 0.8744(4) 0.2550(5)
O7_3 O 0.2299(4) 0.7860(4) 0.3166(5)
O8_5 O 0.2843(4) 0.7853(4) 0.4342(5)
O9_5 O 0.3757(6) 0.7377(5) 0.5810(7)
O10_4 O 0.2228(5) 0.7311(4) 0.5841(5)
Sm6_5 Sm 0.29567(3) 0.68167(3) 0.33098(4)
H5_4 H 0.188929 0.737647 0.540962
H6_4 H 0.248753 0.691087 0.571428
H7_5 H 0.400711 0.735837 0.63335
H8_5 H 0.352715 0.695292 0.572121
H1_6 H 0.2495 0.0020 0.1913
C2_6 C 0.1500(6) 0.0190(6) 0.0537(8)
C6_6 C 0.3365(6) 0.0767(7) 0.0241(8)
H2_6 H 0.3408 0.0584 0.0762
N2_6 N 0.1916(5) 0.0482(5) 0.1092(7)
N3_6 N 0.2924(5) 0.1240(5) 0.0060(6)
O4_6 O 0.1145(5) 0.1229(4) 0.0152(7)
O9_6 O 0.1243(6) 0.2623(5) 0.0810(7)
O10_5 O 0.2772(5) 0.2689(4) 0.0841(5)
H5_5 H 0.311071 0.262353 0.0409621
H6_5 H 0.251247 0.308913 0.0714285
H7_6 H 0.0992889 0.264163 0.13335
H8_6 H 0.147285 0.304708 0.0721212
C5_6 C 0.1147(7) 0.0630(6) 0.9979(8)
C7_6 C 0.3020(6) 0.1390(6) 0.9239(7)
C8_6 C 0.3526(6) 0.0980(6) 0.8971(8)
C9_6 C 0.3812(6) 0.0870(6) 0.8145(8)
C10_6 C 0.2609(6) 0.1925(6) 0.8881(8)
O8_6 O 0.2157(4) 0.2147(4) 0.9342(5)
Sm6_6 Sm 0.20433(3) 0.31833(3) 0.83098(4)
C1_6 C 0.2186(6) 0.9971(6) 0.1496(8)
C3_6 C 0.1529(6) 0.9513(6) 0.0626(8)
C4_6 C 0.1191(6) 0.8946(5) 0.0261(7)
N1_6 N 0.1964(6) 0.9375(5) 0.1237(7)
O1_6 O 0.1296(5) 0.8392(4) 0.0575(5)
O11_6 O 0.1121(5) 0.7428(5) 0.1997(7)
O16_6 O 0.2701(4) 0.7140(4) 0.1834(5)
O18_6 O 0.2157(4) 0.7147(4) 0.0658(5)
H3_6 H 0.0841813 0.737839 0.150041
H4_6 H 0.129767 0.699255 0.215963
O9_7 O 0.0123(5) 0.6257(6) 0.8310(7)
O10_6 O 0.0189(4) 0.4728(5) 0.8341(5)
Sm6_7 Sm 0.06833(3) 0.54567(3) 0.58098(4)
H5_6 H 0.0123534 0.438929 0.790962
H6_6 H 0.058913 0.498753 0.821428
H7_7 H 0.0141634 0.650711 0.88335
H8_7 H 0.0547076 0.602715 0.822121
O15_4 O 0.6244(4) 0.6203(4) 0.0050(5)
O17_4 O 0.5360(4) 0.5201(4) 0.0666(5)
C1_7 C 0.7471(6) 0.5314(6) 0.8996(8)
H1_7 H 0.7520 0.5005 0.9413
C2_7 C 0.7690(6) 0.6000(6) 0.8037(8)
C3_7 C 0.7013(6) 0.5971(6) 0.8126(8)
C4_7 C 0.6446(5) 0.6309(6) 0.7761(7)
C5_7 C 0.8130(6) 0.6353(7) 0.7479(8)
C6_7 C 0.8267(7) 0.4135(6) 0.7741(8)
H2_7 H 0.8084 0.4092 0.8262
C7_7 C 0.8890(6) 0.4480(6) 0.6739(7)
C8_7 C 0.8480(6) 0.3974(6) 0.6471(8)
C9_7 C 0.8370(6) 0.3688(6) 0.5645(8)
C10_7 C 0.9425(6) 0.4891(6) 0.6381(8)
N1_7 N 0.6875(5) 0.5536(6) 0.8737(7)
N2_7 N 0.7982(5) 0.5584(5) 0.8592(7)
N3_7 N 0.8740(5) 0.4576(5) 0.7560(6)
O1_7 O 0.5892(4) 0.6204(5) 0.8075(5)
O4_7 O 0.8729(4) 0.6355(5) 0.7652(7)
O6_4 O 0.8756(4) 0.3797(4) 0.5050(5)
O7_4 O 0.9640(4) 0.4799(4) 0.5666(5)
O8_7 O 0.9647(4) 0.5343(4) 0.6842(5)
O11_7 O 0.4928(5) 0.6379(5) 0.9497(7)
O16_7 O 0.4640(4) 0.4799(4) 0.9334(5)
O18_7 O 0.4647(4) 0.5343(4) 0.8158(5)
H3_7 H 0.487839 0.665819 0.900041
H4_7 H 0.449255 0.620233 0.965963
O11_8 O 0.0072(5) 0.3621(5) 0.4497(7)
O16_8 O 0.0360(4) 0.5201(4) 0.4334(5)
O18_8 O 0.0353(4) 0.4657(4) 0.3158(5)
H3_8 H 0.0121608 0.334181 0.400041
H4_8 H 0.0507454 0.379767 0.465963
C1_8 C 0.7529(6) 0.4686(6) 0.3996(8)
H1_8 H 0.7480 0.4995 0.4413
C2_8 C 0.7310(6) 0.4000(6) 0.3037(8)
C3_8 C 0.7987(6) 0.4029(6) 0.3126(8)
C4_8 C 0.8554(5) 0.3691(6) 0.2761(7)
C5_8 C 0.6870(6) 0.3647(7) 0.2479(8)
C6_8 C 0.6733(7) 0.5865(6) 0.2741(8)
H2_8 H 0.6916 0.5908 0.3262
C7_8 C 0.6110(6) 0.5520(6) 0.1739(7)
C8_8 C 0.6520(6) 0.6026(6) 0.1471(8)
C9_8 C 0.6630(6) 0.6312(6) 0.0645(8)
C10_8 C 0.5575(6) 0.5109(6) 0.1381(8)
N1_8 N 0.8125(5) 0.4464(6) 0.3737(7)
N2_8 N 0.7018(5) 0.4416(5) 0.3592(7)
N3_8 N 0.6260(5) 0.5424(5) 0.2560(6)
O1_8 O 0.9108(4) 0.3796(5) 0.3075(5)
O4_8 O 0.6271(4) 0.3645(5) 0.2652(7)
O8_8 O 0.5353(4) 0.4657(4) 0.1842(5)
O9_8 O 0.4877(5) 0.3743(6) 0.3310(7)
O10_7 O 0.4811(4) 0.5272(5) 0.3341(5)
Sm6_8 Sm 0.43167(3) 0.45433(3) 0.08098(4)
H5_7 H 0.487647 0.561071 0.290962
H6_7 H 0.441087 0.501247 0.321428
H7_8 H 0.485837 0.349289 0.38335
H8_8 H 0.445292 0.397285 0.322121
C5_9 C 0.1147(7) 0.5630(6) 0.0021(8)
C7_9 C 0.3020(6) 0.6390(6) 0.0761(7)
C8_9 C 0.3526(6) 0.5980(6) 0.1029(8)
C9_9 C 0.3812(6) 0.5870(6) 0.1855(8)
C10_9 C 0.2609(6) 0.6925(6) 0.1119(8)
N4_5 N 0.3735(5) 0.5588(5) 0.0400(6)
O2_5 O 0.0804(5) 0.4013(5) 0.0354(5)
O3_5 O 0.0864(5) 0.5406(4) 0.0671(6)
O5_5 O 0.4195(4) 0.5378(4) 0.1903(5)
O6_5 O 0.3703(4) 0.6256(4) 0.2450(5)
Sm3_5 Sm 0.07605(3) 0.45453(3) 0.16212(4)
Sm1_5 Sm 0.20453(3) 0.67395(3) 0.91212(4)
C1_9 C 0.2186(6) 0.4971(6) 0.8504(8)
H1_9 H 0.2495 0.5020 0.8087
C2_9 C 0.1500(6) 0.5190(6) 0.9463(8)
C3_9 C 0.1529(6) 0.4513(6) 0.9374(8)
C4_9 C 0.1191(6) 0.3946(5) 0.9739(7)
C6_9 C 0.3365(6) 0.5767(7) 0.9759(8)
H2_9 H 0.3408 0.5584 0.9238
N1_9 N 0.1964(6) 0.4375(5) 0.8763(7)
N2_9 N 0.1916(5) 0.5482(5) 0.8908(7)
N3_9 N 0.2924(5) 0.6240(5) 0.9940(6)
O1_9 O 0.1296(5) 0.3392(4) 0.9425(5)
O4_9 O 0.1145(5) 0.6229(4) 0.9848(7)
O9_9 O 0.1243(6) 0.7623(5) 0.9190(7)
O10_8 O 0.2772(5) 0.7689(4) 0.9159(5)
O11_9 O 0.1121(5) 0.2428(5) 0.8003(7)
N5_5 N 0.3088(5) 0.3765(5) 0.7900(6)
O12_5 O 0.1513(5) 0.6696(5) 0.7854(5)
O13_5 O 0.2906(4) 0.6636(5) 0.8171(6)
O14_5 O 0.2878(4) 0.3305(4) 0.9403(5)
O15_5 O 0.1297(4) 0.3744(4) 0.7450(5)
H3_9 H 0.0841813 0.237839 0.849959
H4_9 H 0.129767 0.199255 0.784037
H5_8 H 0.311071 0.762353 0.959038
H6_8 H 0.251247 0.808913 0.928572
H7_9 H 0.0992889 0.764163 0.86665
H8_9 H 0.147285 0.804708 0.927879
Sm1_6 Sm 0.29547(3) 0.32605(3) 0.41212(4)
C1_10 C 0.2814(6) 0.5029(6) 0.3504(8)
H1_10 H 0.2505 0.4980 0.3087
C2_10 C 0.3500(6) 0.4810(6) 0.4463(8)
C3_10 C 0.3471(6) 0.5487(6) 0.4374(8)
C4_10 C 0.3809(6) 0.6054(5) 0.4739(7)
C5_10 C 0.3853(7) 0.4370(6) 0.5021(8)
C6_10 C 0.1635(6) 0.4233(7) 0.4759(8)
H2_10 H 0.1592 0.4416 0.4238
C7_10 C 0.1980(6) 0.3610(6) 0.5761(7)
C8_10 C 0.1474(6) 0.4020(6) 0.6029(8)
C9_10 C 0.1188(6) 0.4130(6) 0.6855(8)
C10_10 C 0.2391(6) 0.3075(6) 0.6119(8)
N1_10 N 0.3036(6) 0.5625(5) 0.3763(7)
N2_10 N 0.3084(5) 0.4518(5) 0.3908(7)
N3_10 N 0.2076(5) 0.3760(5) 0.4940(6)
N4_6 N 0.1265(5) 0.4412(5) 0.5400(6)
O1_10 O 0.3704(5) 0.6608(4) 0.4425(5)
O2_6 O 0.4196(5) 0.5987(5) 0.5354(5)
O3_6 O 0.4136(5) 0.4594(4) 0.5671(6)
O4_10 O 0.3855(5) 0.3771(4) 0.4848(7)
O5_6 O 0.0805(4) 0.4622(4) 0.6903(5)
O9_10 O 0.3757(6) 0.2377(5) 0.4190(7)
O10_9 O 0.2228(5) 0.2311(4) 0.4159(5)
O11_10 O 0.3879(5) 0.7572(5) 0.3003(7)
Sm3_6 Sm 0.42395(3) 0.54547(3) 0.66212(4)
N5_6 N 0.1912(5) 0.6235(5) 0.2900(6)
O12_6 O 0.3487(5) 0.3304(5) 0.2854(5)
O13_6 O 0.2094(4) 0.3364(5) 0.3171(6)
O14_6 O 0.2122(4) 0.6695(4) 0.4403(5)
H3_10 H 0.415819 0.762161 0.349959
H4_10 H 0.370233 0.800745 0.284037
H5_9 H 0.188929 0.237647 0.459038
H6_9 H 0.248753 0.191087 0.428572
H7_10 H 0.400711 0.235837 0.36665
H8_10 H 0.352715 0.195292 0.427879
O11_11 O 0.0072(5) 0.8621(5) 0.5503(7)
H3_11 H 0.0121608 0.834181 0.599959
H4_11 H 0.0507454 0.879767 0.534037
C6_11 C 0.6733(7) 0.0865(6) 0.7259(8)
H2_11 H 0.6916 0.0908 0.6738
C7_11 C 0.6110(6) 0.0520(6) 0.8261(7)
C8_11 C 0.6520(6) 0.1026(6) 0.8529(8)
C9_11 C 0.6630(6) 0.1312(6) 0.9355(8)
C10_11 C 0.5575(6) 0.0109(6) 0.8619(8)
N3_11 N 0.6260(5) 0.0424(5) 0.7440(6)
N4_7 N 0.6912(5) 0.1235(5) 0.7900(6)
O5_7 O 0.7122(4) 0.1695(4) 0.9403(5)
O6_6 O 0.6244(4) 0.1203(4) 0.9950(5)
O10_10 O 0.4811(4) 0.0272(5) 0.6659(5)
N5_7 N 0.8735(5) 0.0588(5) 0.5400(6)
O13_7 O 0.5864(5) 0.0406(4) 0.5671(6)
O14_7 O 0.9195(4) 0.0378(4) 0.6903(5)
H5_10 H 0.487647 0.0610706 0.709038
H6_10 H 0.441087 0.00124699 0.678572
Sm1_7 Sm 0.57605(3) 0.95453(3) 0.66212(4)
C1_11 C 0.7529(6) 0.9686(6) 0.6004(8)
H1_11 H 0.7480 0.9995 0.5587
C2_11 C 0.7310(6) 0.9000(6) 0.6963(8)
C3_11 C 0.7987(6) 0.9029(6) 0.6874(8)
C4_11 C 0.8554(5) 0.8691(6) 0.7239(7)
C5_11 C 0.6870(6) 0.8647(7) 0.7521(8)
N1_11 N 0.8125(5) 0.9464(6) 0.6263(7)
N2_11 N 0.7018(5) 0.9416(5) 0.6408(7)
O1_11 O 0.9108(4) 0.8796(5) 0.6925(5)
O2_7 O 0.8487(5) 0.8304(5) 0.7854(5)
O3_7 O 0.7094(4) 0.8364(5) 0.8171(6)
O4_11 O 0.6271(4) 0.8645(5) 0.7348(7)
O9_11 O 0.4877(5) 0.8743(6) 0.6690(7)
Sm3_7 Sm 0.79547(3) 0.82605(3) 0.91212(4)
O12_7 O 0.5804(5) 0.9013(5) 0.5354(5)
O15_6 O 0.8756(4) 0.8797(4) 0.4950(5)
H7_11 H 0.485837 0.849289 0.61665
H8_11 H 0.445292 0.897285 0.677879
O9_12 O 0.0123(5) 0.1257(6) 0.1690(7)
H7_12 H 0.0141634 0.150711 0.11665
H8_12 H 0.0547076 0.102715 0.177879
Sm1_8 Sm 0.92395(3) 0.04547(3) 0.16212(4)
C1_12 C 0.7471(6) 0.0314(6) 0.1004(8)
H1_12 H 0.7520 0.0005 0.0587
C2_12 C 0.7690(6) 0.1000(6) 0.1963(8)
C3_12 C 0.7013(6) 0.0971(6) 0.1874(8)
C4_12 C 0.6446(5) 0.1309(6) 0.2239(7)
C5_12 C 0.8130(6) 0.1353(7) 0.2521(8)
N1_12 N 0.6875(5) 0.0536(6) 0.1263(7)
N2_12 N 0.7982(5) 0.0584(5) 0.1408(7)
O1_12 O 0.5892(4) 0.1204(5) 0.1925(5)
O2_8 O 0.6513(5) 0.1696(5) 0.2854(5)
O3_8 O 0.7906(4) 0.1636(5) 0.3171(6)
O4_12 O 0.8729(4) 0.1355(5) 0.2348(7)
O11_12 O 0.4928(5) 0.1379(5) 0.0503(7)
Sm3_8 Sm 0.70453(3) 0.17395(3) 0.41212(4)
O12_8 O 0.9196(5) 0.0987(5) 0.0354(5)
H3_12 H 0.487839 0.165819 0.0999594
H4_12 H 0.449255 0.120233 0.0340369
C6_12 C 0.8267(7) 0.9135(6) 0.2259(8)
H2_12 H 0.8084 0.9092 0.1738
C7_12 C 0.8890(6) 0.9480(6) 0.3261(7)
C8_12 C 0.8480(6) 0.8974(6) 0.3529(8)
C9_12 C 0.8370(6) 0.8688(6) 0.4355(8)
C10_12 C 0.9425(6) 0.9891(6) 0.3619(8)
N3_12 N 0.8740(5) 0.9576(5) 0.2440(6)
N4_8 N 0.8088(5) 0.8765(5) 0.2900(6)
O5_8 O 0.7878(4) 0.8305(4) 0.4403(5)
N5_8 N 0.6265(5) 0.9412(5) 0.0400(6)
O13_8 O 0.9136(5) 0.9594(4) 0.0671(6)
O14_8 O 0.5805(4) 0.9622(4) 0.1903(5)
H1_13 H 0.7495 0.0020 0.3087
C2_13 C 0.6500(6) 0.0190(6) 0.4463(8)
C5_13 C 0.6147(7) 0.0630(6) 0.5021(8)
C6_13 C 0.8365(6) 0.0767(7) 0.4759(8)
H2_13 H 0.8408 0.0584 0.4238
C7_13 C 0.8020(6) 0.1390(6) 0.5761(7)
C8_13 C 0.8526(6) 0.0980(6) 0.6029(8)
C9_13 C 0.8812(6) 0.0870(6) 0.6855(8)
C10_13 C 0.7609(6) 0.1925(6) 0.6119(8)
N2_13 N 0.6916(5) 0.0482(5) 0.3908(7)
N3_13 N 0.7924(5) 0.1240(5) 0.4940(6)
O4_13 O 0.6145(5) 0.1229(4) 0.4848(7)
O6_7 O 0.8703(4) 0.1256(4) 0.7450(5)
O9_13 O 0.6243(6) 0.2623(5) 0.4190(7)
O10_11 O 0.7772(5) 0.2689(4) 0.4159(5)
H5_11 H 0.811071 0.262353 0.459038
H6_11 H 0.751247 0.308913 0.428572
H7_13 H 0.599289 0.264163 0.36665
H8_13 H 0.647285 0.304708 0.427879
C1_13 C 0.7186(6) 0.9971(6) 0.3504(8)
C3_13 C 0.6529(6) 0.9513(6) 0.4374(8)
C4_13 C 0.6191(6) 0.8946(5) 0.4739(7)
N1_13 N 0.6964(6) 0.9375(5) 0.3763(7)
O1_13 O 0.6296(5) 0.8392(4) 0.4425(5)
O11_13 O 0.6121(5) 0.7428(5) 0.3003(7)
O15_7 O 0.6297(4) 0.8744(4) 0.2450(5)
H3_13 H 0.584181 0.737839 0.349959
H4_13 H 0.629767 0.699255 0.284037
C1_14 C 0.7814(6) 0.0029(6) 0.8504(8)
C3_14 C 0.8471(6) 0.0487(6) 0.9374(8)
C4_14 C 0.8809(6) 0.1054(5) 0.9739(7)
N1_14 N 0.8036(6) 0.0625(5) 0.8763(7)
O1_14 O 0.8704(5) 0.1608(4) 0.9425(5)
O11_14 O 0.8879(5) 0.2572(5) 0.8003(7)
H3_14 H 0.915819 0.262161 0.849959
H4_14 H 0.870233 0.300745 0.784037
C5_14 C 0.8853(7) 0.9370(6) 0.0021(8)
C7_14 C 0.6980(6) 0.8610(6) 0.0761(7)
C8_14 C 0.6474(6) 0.9020(6) 0.1029(8)
C9_14 C 0.6188(6) 0.9130(6) 0.1855(8)
C10_14 C 0.7391(6) 0.8075(6) 0.1119(8)
H1_14 H 0.7505 0.9980 0.8087
C2_14 C 0.8500(6) 0.9810(6) 0.9463(8)
C6_14 C 0.6635(6) 0.9233(7) 0.9759(8)
H2_14 H 0.6592 0.9416 0.9238
N2_14 N 0.8084(5) 0.9518(5) 0.8908(7)
N3_14 N 0.7076(5) 0.8760(5) 0.9940(6)
O4_14 O 0.8855(5) 0.8771(4) 0.9848(7)
O9_14 O 0.8757(6) 0.7377(5) 0.9190(7)
O10_12 O 0.7228(5) 0.7311(4) 0.9159(5)
H5_12 H 0.688929 0.737647 0.959038
H6_12 H 0.748753 0.691087 0.928572
H7_14 H 0.900711 0.735837 0.86665
H8_14 H 0.852715 0.695292 0.927879
C1_15 C 0.2529(6) 0.4686(6) 0.1004(8)
H1_15 H 0.2480 0.4995 0.0587
C2_15 C 0.2310(6) 0.4000(6) 0.1963(8)
C3_15 C 0.2987(6) 0.4029(6) 0.1874(8)
C4_15 C 0.3554(5) 0.3691(6) 0.2239(7)
C5_15 C 0.1870(6) 0.3647(7) 0.2521(8)
C6_15 C 0.1733(7) 0.5865(6) 0.2259(8)
H2_15 H 0.1916 0.5908 0.1738
C7_15 C 0.1110(6) 0.5520(6) 0.3261(7)
C8_15 C 0.1520(6) 0.6026(6) 0.3529(8)
C9_15 C 0.1630(6) 0.6312(6) 0.4355(8)
C10_15 C 0.0575(6) 0.5109(6) 0.3619(8)
N1_15 N 0.3125(5) 0.4464(6) 0.1263(7)
N2_15 N 0.2018(5) 0.4416(5) 0.1408(7)
N3_15 N 0.1260(5) 0.5424(5) 0.2440(6)
O1_15 O 0.4108(4) 0.3796(5) 0.1925(5)
O4_15 O 0.1271(4) 0.3645(5) 0.2348(7)
O6_8 O 0.1244(4) 0.6203(4) 0.4950(5)
O11_15 O 0.5072(5) 0.3621(5) 0.0503(7)
H3_15 H 0.512161 0.334181 0.0999594
H4_15 H 0.550745 0.379767 0.0340369
O15_8 O 0.3756(4) 0.3797(4) 0.9950(5)
O9_15 O 0.9877(5) 0.3743(6) 0.1690(7)
O10_13 O 0.9811(4) 0.5272(5) 0.1659(5)
H5_13 H 0.987647 0.561071 0.209038
H6_13 H 0.941087 0.501247 0.178572
H7_15 H 0.985837 0.349289 0.11665
H8_15 H 0.945292 0.397285 0.177879
C1_16 C 0.2471(6) 0.5314(6) 0.6004(8)
H1_16 H 0.2520 0.5005 0.5587
C2_16 C 0.2690(6) 0.6000(6) 0.6963(8)
C3_16 C 0.2013(6) 0.5971(6) 0.6874(8)
C4_16 C 0.1446(5) 0.6309(6) 0.7239(7)
C5_16 C 0.3130(6) 0.6353(7) 0.7521(8)
C6_16 C 0.3267(7) 0.4135(6) 0.7259(8)
H2_16 H 0.3084 0.4092 0.6738
C7_16 C 0.3890(6) 0.4480(6) 0.8261(7)
C8_16 C 0.3480(6) 0.3974(6) 0.8529(8)
C9_16 C 0.3370(6) 0.3688(6) 0.9355(8)
C10_16 C 0.4425(6) 0.4891(6) 0.8619(8)
N1_16 N 0.1875(5) 0.5536(6) 0.6263(7)
N2_16 N 0.2982(5) 0.5584(5) 0.6408(7)
N3_16 N 0.3740(5) 0.4576(5) 0.7440(6)
O1_16 O 0.0892(4) 0.6204(5) 0.6925(5)
O4_16 O 0.3729(4) 0.6355(5) 0.7348(7)
O9_16 O 0.5123(5) 0.6257(6) 0.6690(7)
O10_14 O 0.5189(4) 0.4728(5) 0.6659(5)
H5_14 H 0.512353 0.438929 0.709038
H6_14 H 0.558913 0.498753 0.678572
H7_16 H 0.514163 0.650711 0.61665
H8_16 H 0.554708 0.602715 0.677879
O11_16 O 0.9928(5) 0.6379(5) 0.5503(7)
H3_16 H 0.987839 0.665819 0.599959
H4_16 H 0.949255 0.620233 0.534037
O10_15 O 0.9811(4) 0.0272(5) 0.8341(5)
H5_15 H 0.987647 0.0610706 0.790962
H6_15 H 0.941087 0.00124699 0.821428
O10_16 O 0.0189(4) 0.9728(5) 0.1659(5)
H5_16 H 0.0123534 0.938929 0.209038
H6_16 H 0.058913 0.998753 0.178572
loop_
_geom_bond_atom_site_label_1
_geom_bond_atom_site_label_2
_geom_bond_site_symmetry_1
_geom_bond_site_symmetry_2
Sm1 N2 1_555 1_555
Sm2 N1 1_555 1_555
C1 H1 1_555 1_555
C2 C3 1_555 1_555
C3 C4 1_555 1_555
C4 O1 1_555 1_555
C6 H2 1_555 1_555
N1 C1 1_555 1_555
N2 C1 1_555 1_555
N3 Sm1 1_555 1_555
O1 Sm2 1_555 1_555
O4 Sm1 1_555 1_555
O9 Sm1 1_555 1_555
O10 Sm1 1_555 1_555
O11 Sm2 1_555 1_555
N5 Sm2 1_555 1_555
O12 Sm1 1_555 1_555
O13 Sm1 1_555 1_555
O14 Sm2 1_555 1_555
O15 Sm2 1_555 1_555
O16 Sm2 1_555 1_555
O17 Sm2 1_555 1_555
O18 Sm2 1_555 1_555
C2 N2 1_555 1_555
C3 N1 1_555 1_555
C6 N3 1_555 1_555
O11 H3 1_555 1_555
O11 H4 1_555 1_555
O10 H5 1_555 1_555
O10 H6 1_555 1_555
O9 H7 1_555 1_555
O9 H8 1_555 1_555
C7 C8 1_555 1_555
C8 C9 1_555 1_555
C9 O5 1_555 1_555
C10 C7 1_555 1_555
O3 C5 1_555 1_555
O5 Sm4 1_555 1_555
O6 C9 1_555 1_555
O7 C10 1_555 1_555
Sm3 O2 1_555 1_555
Sm4 N4 1_555 1_555
Sm5 O6 1_555 1_555
Sm6 O7 1_555 1_555
C8 N4 1_555 1_555
C10 O8 1_555 1_555
O3 Sm3 1_555 1_555
O7 Sm5 1_555 1_555
O8 Sm6 1_555 1_555
Sm1_2 N2_2 1_555 1_555
Sm5 N1_2 1_555 1_555
C1_2 H1_2 1_555 1_555
C2_2 C3_2 1_555 1_555
C3_2 C4_2 1_555 1_555
C4_2 O1_2 1_555 1_555
C5_2 C2_2 1_555 1_555
C6_2 H2_2 1_555 1_555
C7_2 C8_2 1_555 1_555
C8_2 C9_2 1_555 1_555
C9_2 O5_2 1_555 1_555
C10_2 C7_2 1_555 1_555
N1_2 C1_2 1_555 1_555
N2_2 C1_2 1_555 1_555
N3_2 Sm1_2 1_555 1_555
N4_2 C6_2 1_555 1_555
O1_2 Sm5 1_555 1_555
O2_2 C4_2 1_555 1_555
O3_2 C5_2 1_555 1_555
O4_2 Sm1_2 1_555 1_555
O5_2 Sm4_2 1_555 1_555
O15 C9_2 1_555 1_555
O17 C10_2 1_555 1_555
O8_2 Sm1_2 1_555 1_555
O9_2 Sm1_2 1_555 1_555
O10_2 Sm1_2 1_555 1_555
O11_2 Sm5 1_555 1_555
Sm3_2 O2_2 1_555 1_555
Sm4_2 N4_2 1_555 1_555
Sm6_2 O17 1_555 1_555
N5_2 Sm5 1_555 1_555
O12_2 Sm1_2 1_555 1_555
O13_2 Sm1_2 1_555 1_555
O14_2 Sm5 1_555 1_555
O16_2 Sm5 1_555 1_555
O18_2 Sm5 1_555 1_555
C2_2 N2_2 1_555 1_555
C3_2 N1_2 1_555 1_555
C5_2 O4_2 1_555 1_555
C6_2 N3_2 1_555 1_555
C7_2 N3_2 1_555 1_555
C8_2 N4_2 1_555 1_555
C10_2 O8_2 1_555 1_555
O3_2 Sm3_2 1_555 1_555
O8_2 Sm6_2 1_555 1_555
O11_2 H3_2 1_555 1_555
O11_2 H4_2 1_555 1_555
O10_2 H5_2 1_555 1_555
O10_2 H6_2 1_555 1_555
O9_2 H7_2 1_555 1_555
O9_2 H8_2 1_555 1_555
Sm1_3 N2_3 1_555 1_555
Sm2_2 N1_3 1_555 1_555
C1_3 H1_3 1_555 1_555
C2_3 C3_3 1_555 1_555
C3_3 C4_3 1_555 1_555
C4_3 O1_3 1_555 1_555
C5_3 C2_3 1_555 1_555
N1_3 C1_3 1_555 1_555
N2_3 C1_3 1_555 1_555
O1_3 Sm2_2 1_555 1_555
O2_3 C4_3 1_555 1_555
O3_3 C5_3 1_555 1_555
O4_3 Sm1_3 1_555 1_555
O8_3 Sm1_3 1_555 1_555
O9_3 Sm1_3 1_555 1_555
Sm3_3 O2_3 1_555 1_555
O12_3 Sm1_3 1_555 1_555
O15_2 Sm2_2 1_555 1_555
O17_2 Sm2_2 1_555 1_555
C2_3 N2_3 1_555 1_555
C3_3 N1_3 1_555 1_555
C5_3 O4_3 1_555 1_555
O3_3 Sm3_3 1_555 1_555
O8_3 Sm6_3 1_555 1_555
O9_3 H7_3 1_555 1_555
O9_3 H8_3 1_555 1_555
C6_3 H2_3 1_555 1_555
C7_3 C8_3 1_555 1_555
C8_3 C9_3 1_555 1_555
C9_3 O5_3 1_555 1_555
C10_3 C7_3 1_555 1_555
N4_3 C6_3 1_555 1_555
O5_3 Sm4_3 1_555 1_555
O6_2 C9_3 1_555 1_555
O7_2 C10_3 1_555 1_555
Sm4_3 N4_3 1_555 1_555
C6_3 N3_3 1_555 1_555
C7_3 N3_3 1_555 1_555
C8_3 N4_3 1_555 1_555
O10_3 H5_3 1_555 1_555
O10_3 H6_3 1_555 1_555
O11_3 H3_3 1_555 1_555
O11_3 H4_3 1_555 1_555
C6_4 H2_4 1_555 1_555
C7_4 C8_4 1_555 1_555
C8_4 C9_4 1_555 1_555
C9_4 O5_4 1_555 1_555
C10_4 C7_4 1_555 1_555
N4_4 C6_4 1_555 1_555
O5_4 Sm4_4 1_555 1_555
O15_2 C9_4 1_555 1_555
O17_2 C10_4 1_555 1_555
Sm4_4 N4_4 1_555 1_555
C6_4 N3_4 1_555 1_555
C7_4 N3_4 1_555 1_555
C8_4 N4_4 1_555 1_555
Sm1_4 N2_4 1_555 1_555
Sm5_2 N1_4 1_555 1_555
C1_4 H1_4 1_555 1_555
C2_4 C3_4 1_555 1_555
C3_4 C4_4 1_555 1_555
C4_4 O1_4 1_555 1_555
C5_4 C2_4 1_555 1_555
N1_4 C1_4 1_555 1_555
N2_4 C1_4 1_555 1_555
O1_4 Sm5_2 1_555 1_555
O2_4 C4_4 1_555 1_555
O3_4 C5_4 1_555 1_555
O4_4 Sm1_4 1_555 1_555
O8_4 Sm1_4 1_555 1_555
O11_4 Sm5_2 1_555 1_555
Sm3_4 O2_4 1_555 1_555
O12_4 Sm1_4 1_555 1_555
O18_4 Sm5_2 1_555 1_555
C2_4 N2_4 1_555 1_555
C3_4 N1_4 1_555 1_555
C5_4 O4_4 1_555 1_555
O3_4 Sm3_4 1_555 1_555
O11_4 H3_4 1_555 1_555
O11_4 H4_4 1_555 1_555
O9_4 H7_4 1_555 1_555
O9_4 H8_4 1_555 1_555
Sm4_4 N1_5 1_555 1_555
C3_5 C4_5 1_555 1_555
C4_5 O1_5 1_555 1_555
N1_5 C1_5 1_555 1_555
O1_5 Sm4_4 1_555 1_555
O12_3 C4_5 1_555 1_555
O11_5 Sm4_4 1_555 1_555
O15_3 Sm4_4 1_555 1_555
O16_5 Sm4_4 1_555 1_555
O17_3 Sm4_4 1_555 1_555
O18_5 Sm4_4 1_555 1_555
C3_5 N1_5 1_555 1_555
O11_5 H3_5 1_555 1_555
O11_5 H4_5 1_555 1_555
Sm3_4 N2_5 1_555 1_555
C5_5 C2_5 1_555 1_555
C6_5 H2_5 1_555 1_555
C7_5 C8_5 1_555 1_555
C8_5 C9_5 1_555 1_555
C9_5 O14_3 1_555 1_555
C10_5 C7_5 1_555 1_555
N3_5 Sm3_4 1_555 1_555
N5_3 C6_5 1_555 1_555
O13_3 C5_5 1_555 1_555
O4_5 Sm3_4 1_555 1_555
O6_3 C9_5 1_555 1_555
O7_3 C10_5 1_555 1_555
O8_5 Sm3_4 1_555 1_555
O9_5 Sm3_4 1_555 1_555
O10_4 Sm3_4 1_555 1_555
Sm4_3 O6_3 1_555 1_555
Sm6_5 O7_3 1_555 1_555
C2_5 N2_5 1_555 1_555
C5_5 O4_5 1_555 1_555
C6_5 N3_5 1_555 1_555
C7_5 N3_5 1_555 1_555
C8_5 N5_3 1_555 1_555
C10_5 O8_5 1_555 1_555
O7_3 Sm4_3 1_555 1_555
O8_5 Sm6_5 1_555 1_555
O10_4 H5_4 1_555 1_555
O10_4 H6_4 1_555 1_555
O9_5 H7_5 1_555 1_555
O9_5 H8_5 1_555 1_555
Sm3_3 N2_6 1_555 1_555
C6_6 H2_6 1_555 1_555
N3_6 Sm3_3 1_555 1_555
O4_6 Sm3_3 1_555 1_555
O9_6 Sm3_3 1_555 1_555
O10_5 Sm3_3 1_555 1_555
C2_6 N2_6 1_555 1_555
C6_6 N3_6 1_555 1_555
O10_5 H5_5 1_555 1_555
O10_5 H6_5 1_555 1_555
O9_6 H7_6 1_555 1_555
O9_6 H8_6 1_555 1_555
C7_6 C8_6 1_555 1_555
C8_6 C9_6 1_555 1_555
C9_6 O14_4 1_555 1_555
C10_6 C7_6 1_555 1_555
O13_4 C5_6 1_555 1_555
O15_3 C9_6 1_555 1_555
O17_3 C10_6 1_555 1_555
Sm6_6 O17_3 1_555 1_555
C8_6 N5_4 1_555 1_555
C10_6 O8_6 1_555 1_555
O8_6 Sm6_6 1_555 1_555
Sm4_3 N1_6 1_555 1_555
C3_6 C4_6 1_555 1_555
C4_6 O1_6 1_555 1_555
N1_6 C1_6 1_555 1_555
O1_6 Sm4_3 1_555 1_555
O11_6 Sm4_3 1_555 1_555
O16_6 Sm4_3 1_555 1_555
O18_6 Sm4_3 1_555 1_555
C3_6 N1_6 1_555 1_555
O11_6 H3_6 1_555 1_555
O11_6 H4_6 1_555 1_555
O10_6 H5_6 1_555 1_555
O10_6 H6_6 1_555 1_555
O9_7 H7_7 1_555 1_555
O9_7 H8_7 1_555 1_555
Sm3 N2_7 1_555 1_555
Sm4 N1_7 1_555 1_555
C1_7 H1_7 1_555 1_555
C2_7 C3_7 1_555 1_555
C3_7 C4_7 1_555 1_555
C4_7 O1_7 1_555 1_555
C5_7 C2_7 1_555 1_555
C6_7 H2_7 1_555 1_555
C7_7 C8_7 1_555 1_555
C8_7 C9_7 1_555 1_555
C9_7 O14_2 1_555 1_555
C10_7 C7_7 1_555 1_555
N1_7 C1_7 1_555 1_555
N2_7 C1_7 1_555 1_555
N3_7 Sm3 1_555 1_555
N5_2 C6_7 1_555 1_555
O1_7 Sm4 1_555 1_555
O12_2 C4_7 1_555 1_555
O13_2 C5_7 1_555 1_555
O4_7 Sm3 1_555 1_555
O6_4 C9_7 1_555 1_555
O7_4 C10_7 1_555 1_555
O8_7 Sm3 1_555 1_555
O11_7 Sm4 1_555 1_555
Sm4_2 O6_4 1_555 1_555
O16_7 Sm4 1_555 1_555
O18_7 Sm4 1_555 1_555
C2_7 N2_7 1_555 1_555
C3_7 N1_7 1_555 1_555
C5_7 O4_7 1_555 1_555
C6_7 N3_7 1_555 1_555
C7_7 N3_7 1_555 1_555
C8_7 N5_2 1_555 1_555
C10_7 O8_7 1_555 1_555
O7_4 Sm4_2 1_555 1_555
O11_7 H3_7 1_555 1_555
O11_7 H4_7 1_555 1_555
O11_8 H3_8 1_555 1_555
O11_8 H4_8 1_555 1_555
Sm3_2 N2_8 1_555 1_555
Sm4_2 N1_8 1_555 1_555
C1_8 H1_8 1_555 1_555
C2_8 C3_8 1_555 1_555
C3_8 C4_8 1_555 1_555
C4_8 O1_8 1_555 1_555
C5_8 C2_8 1_555 1_555
C6_8 H2_8 1_555 1_555
C7_8 C8_8 1_555 1_555
C8_8 C9_8 1_555 1_555
C9_8 O14 1_555 1_555
C10_8 C7_8 1_555 1_555
N1_8 C1_8 1_555 1_555
N2_8 C1_8 1_555 1_555
N3_8 Sm3_2 1_555 1_555
N5 C6_8 1_555 1_555
O1_8 Sm4_2 1_555 1_555
O12 C4_8 1_555 1_555
O13 C5_8 1_555 1_555
O4_8 Sm3_2 1_555 1_555
O15_4 C9_8 1_555 1_555
O17_4 C10_8 1_555 1_555
O8_8 Sm3_2 1_555 1_555
O9_8 Sm3_2 1_555 1_555
O10_7 Sm3_2 1_555 1_555
Sm6_8 O17_4 1_555 1_555
C2_8 N2_8 1_555 1_555
C3_8 N1_8 1_555 1_555
C5_8 O4_8 1_555 1_555
C6_8 N3_8 1_555 1_555
C7_8 N3_8 1_555 1_555
C8_8 N5 1_555 1_555
C10_8 O8_8 1_555 1_555
O8_8 Sm6_8 1_555 1_555
O10_7 H5_7 1_555 1_555
O10_7 H6_7 1_555 1_555
O9_8 H7_8 1_555 1_555
O9_8 H8_8 1_555 1_555
C7_9 C8_9 1_555 1_555
C8_9 C9_9 1_555 1_555
C9_9 O5_5 1_555 1_555
C10_9 C7_9 1_555 1_555
O3_5 C5_9 1_555 1_555
O5_5 Sm6_8 1_555 1_555
O6_5 C9_9 1_555 1_555
O16_6 C10_9 1_555 1_555
Sm3_5 O2_5 1_555 1_555
Sm6_8 N4_5 1_555 1_555
Sm6_5 O6_5 1_555 1_555
C8_9 N4_5 1_555 1_555
C10_9 O18_6 1_555 1_555
O3_5 Sm3_5 1_555 1_555
O16_6 Sm6_5 1_555 1_555
Sm1_5 N2_9 1_555 1_555
Sm6_6 N1_9 1_555 1_555
C1_9 H1_9 1_555 1_555
C2_9 C3_9 1_555 1_555
C3_9 C4_9 1_555 1_555
C4_9 O1_9 1_555 1_555
C6_9 H2_9 1_555 1_555
N1_9 C1_9 1_555 1_555
N2_9 C1_9 1_555 1_555
N3_9 Sm1_5 1_555 1_555
O1_9 Sm6_6 1_555 1_555
O4_9 Sm1_5 1_555 1_555
O9_9 Sm1_5 1_555 1_555
O10_8 Sm1_5 1_555 1_555
O11_9 Sm6_6 1_555 1_555
N5_5 Sm6_6 1_555 1_555
O12_5 Sm1_5 1_555 1_555
O13_5 Sm1_5 1_555 1_555
O14_5 Sm6_6 1_555 1_555
O15_5 Sm6_6 1_555 1_555
O16_5 Sm6_6 1_555 1_555
C2_9 N2_9 1_555 1_555
C3_9 N1_9 1_555 1_555
C6_9 N3_9 1_555 1_555
O11_9 H3_9 1_555 1_555
O11_9 H4_9 1_555 1_555
O10_8 H5_8 1_555 1_555
O10_8 H6_8 1_555 1_555
O9_9 H7_9 1_555 1_555
O9_9 H8_9 1_555 1_555
Sm1_6 N2_10 1_555 1_555
Sm6_5 N1_10 1_555 1_555
C1_10 H1_10 1_555 1_555
C2_10 C3_10 1_555 1_555
C3_10 C4_10 1_555 1_555
C4_10 O1_10 1_555 1_555
C5_10 C2_10 1_555 1_555
C6_10 H2_10 1_555 1_555
C7_10 C8_10 1_555 1_555
C8_10 C9_10 1_555 1_555
C9_10 O5_6 1_555 1_555
C10_10 C7_10 1_555 1_555
N1_10 C1_10 1_555 1_555
N2_10 C1_10 1_555 1_555
N3_10 Sm1_6 1_555 1_555
N4_6 C6_10 1_555 1_555
O1_10 Sm6_5 1_555 1_555
O2_6 C4_10 1_555 1_555
O3_6 C5_10 1_555 1_555
O4_10 Sm1_6 1_555 1_555
O5_6 Sm6_7 1_555 1_555
O15_5 C9_10 1_555 1_555
O16_5 C10_10 1_555 1_555
O18_5 Sm1_6 1_555 1_555
O9_10 Sm1_6 1_555 1_555
O10_9 Sm1_6 1_555 1_555
O11_10 Sm6_5 1_555 1_555
Sm3_6 O2_6 1_555 1_555
Sm6_7 N4_6 1_555 1_555
N5_6 Sm6_5 1_555 1_555
O12_6 Sm1_6 1_555 1_555
O13_6 Sm1_6 1_555 1_555
O14_6 Sm6_5 1_555 1_555
C2_10 N2_10 1_555 1_555
C3_10 N1_10 1_555 1_555
C5_10 O4_10 1_555 1_555
C6_10 N3_10 1_555 1_555
C7_10 N3_10 1_555 1_555
C8_10 N4_6 1_555 1_555
C10_10 O18_5 1_555 1_555
O3_6 Sm3_6 1_555 1_555
O11_10 H3_10 1_555 1_555
O11_10 H4_10 1_555 1_555
O10_9 H5_9 1_555 1_555
O10_9 H6_9 1_555 1_555
O9_10 H7_10 1_555 1_555
O9_10 H8_10 1_555 1_555
O11_11 H3_11 1_555 1_555
O11_11 H4_11 1_555 1_555
C6_11 H2_11 1_555 1_555
C7_11 C8_11 1_555 1_555
C8_11 C9_11 1_555 1_555
C9_11 O5_7 1_555 1_555
C10_11 C7_11 1_555 1_555
N4_7 C6_11 1_555 1_555
O5_7 Sm6 1_555 1_555
O6_6 C9_11 1_555 1_555
O16_4 C10_11 1_555 1_555
Sm6 N4_7 1_555 1_555
C6_11 N3_11 1_555 1_555
C7_11 N3_11 1_555 1_555
C8_11 N4_7 1_555 1_555
O10_10 H5_10 1_555 1_555
O10_10 H6_10 1_555 1_555
Sm1_7 N2_11 1_555 1_555
Sm6_4 N1_11 1_555 1_555
C1_11 H1_11 1_555 1_555
C2_11 C3_11 1_555 1_555
C3_11 C4_11 1_555 1_555
C4_11 O1_11 1_555 1_555
C5_11 C2_11 1_555 1_555
N1_11 C1_11 1_555 1_555
N2_11 C1_11 1_555 1_555
O1_11 Sm6_4 1_555 1_555
O2_7 C4_11 1_555 1_555
O3_7 C5_11 1_555 1_555
O4_11 Sm1_7 1_555 1_555
O18_4 Sm1_7 1_555 1_555
O9_11 Sm1_7 1_555 1_555
Sm3_7 O2_7 1_555 1_555
O12_7 Sm1_7 1_555 1_555
O15_6 Sm6_4 1_555 1_555
O16_3 Sm6_4 1_555 1_555
C2_11 N2_11 1_555 1_555
C3_11 N1_11 1_555 1_555
C5_11 O4_11 1_555 1_555
O3_7 Sm3_7 1_555 1_555
O9_11 H7_11 1_555 1_555
O9_11 H8_11 1_555 1_555
O9_12 H7_12 1_555 1_555
O9_12 H8_12 1_555 1_555
Sm1_8 N2_12 1_555 1_555
Sm6_3 N1_12 1_555 1_555
C1_12 H1_12 1_555 1_555
C2_12 C3_12 1_555 1_555
C3_12 C4_12 1_555 1_555
C4_12 O1_12 1_555 1_555
C5_12 C2_12 1_555 1_555
N1_12 C1_12 1_555 1_555
N2_12 C1_12 1_555 1_555
O1_12 Sm6_3 1_555 1_555
O2_8 C4_12 1_555 1_555
O3_8 C5_12 1_555 1_555
O4_12 Sm1_8 1_555 1_555
O18_3 Sm1_8 1_555 1_555
O11_12 Sm6_3 1_555 1_555
Sm3_8 O2_8 1_555 1_555
O12_8 Sm1_8 1_555 1_555
C2_12 N2_12 1_555 1_555
C3_12 N1_12 1_555 1_555
C5_12 O4_12 1_555 1_555
O3_8 Sm3_8 1_555 1_555
O11_12 H3_12 1_555 1_555
O11_12 H4_12 1_555 1_555
C6_12 H2_12 1_555 1_555
C7_12 C8_12 1_555 1_555
C8_12 C9_12 1_555 1_555
C9_12 O5_8 1_555 1_555
C10_12 C7_12 1_555 1_555
N4_8 C6_12 1_555 1_555
O5_8 Sm6_2 1_555 1_555
O15_6 C9_12 1_555 1_555
O16_3 C10_12 1_555 1_555
Sm6_2 N4_8 1_555 1_555
C6_12 N3_12 1_555 1_555
C7_12 N3_12 1_555 1_555
C8_12 N4_8 1_555 1_555
Sm3_8 N2_13 1_555 1_555
C5_13 C2_13 1_555 1_555
C6_13 H2_13 1_555 1_555
C7_13 C8_13 1_555 1_555
C8_13 C9_13 1_555 1_555
C9_13 O14_7 1_555 1_555
C10_13 C7_13 1_555 1_555
N3_13 Sm3_8 1_555 1_555
N5_7 C6_13 1_555 1_555
O13_7 C5_13 1_555 1_555
O4_13 Sm3_8 1_555 1_555
O6_7 C9_13 1_555 1_555
O16_2 C10_13 1_555 1_555
O18_2 Sm3_8 1_555 1_555
O9_13 Sm3_8 1_555 1_555
O10_11 Sm3_8 1_555 1_555
Sm6 O6_7 1_555 1_555
C2_13 N2_13 1_555 1_555
C5_13 O4_13 1_555 1_555
C6_13 N3_13 1_555 1_555
C7_13 N3_13 1_555 1_555
C8_13 N5_7 1_555 1_555
C10_13 O18_2 1_555 1_555
O16_2 Sm6 1_555 1_555
O10_11 H5_11 1_555 1_555
O10_11 H6_11 1_555 1_555
O9_13 H7_13 1_555 1_555
O9_13 H8_13 1_555 1_555
Sm6_2 N1_13 1_555 1_555
C3_13 C4_13 1_555 1_555
C4_13 O1_13 1_555 1_555
N1_13 C1_13 1_555 1_555
O1_13 Sm6_2 1_555 1_555
O12_7 C4_13 1_555 1_555
O11_13 Sm6_2 1_555 1_555
O15_7 Sm6_2 1_555 1_555
O16 Sm6_2 1_555 1_555
C3_13 N1_13 1_555 1_555
O11_13 H3_13 1_555 1_555
O11_13 H4_13 1_555 1_555
Sm6 N1_14 1_555 1_555
C3_14 C4_14 1_555 1_555
C4_14 O1_14 1_555 1_555
N1_14 C1_14 1_555 1_555
O1_14 Sm6 1_555 1_555
O11_14 Sm6 1_555 1_555
C3_14 N1_14 1_555 1_555
O11_14 H3_14 1_555 1_555
O11_14 H4_14 1_555 1_555
C7_14 C8_14 1_555 1_555
C8_14 C9_14 1_555 1_555
C9_14 O14_8 1_555 1_555
C10_14 C7_14 1_555 1_555
O13_8 C5_14 1_555 1_555
O15_7 C9_14 1_555 1_555
O16 C10_14 1_555 1_555
C8_14 N5_8 1_555 1_555
C10_14 O18 1_555 1_555
Sm3_7 N2_14 1_555 1_555
C6_14 H2_14 1_555 1_555
N3_14 Sm3_7 1_555 1_555
O4_14 Sm3_7 1_555 1_555
O9_14 Sm3_7 1_555 1_555
O10_12 Sm3_7 1_555 1_555
C2_14 N2_14 1_555 1_555
C6_14 N3_14 1_555 1_555
O10_12 H5_12 1_555 1_555
O10_12 H6_12 1_555 1_555
O9_14 H7_14 1_555 1_555
O9_14 H8_14 1_555 1_555
Sm3_5 N2_15 1_555 1_555
Sm6_8 N1_15 1_555 1_555
C1_15 H1_15 1_555 1_555
C2_15 C3_15 1_555 1_555
C3_15 C4_15 1_555 1_555
C4_15 O1_15 1_555 1_555
C5_15 C2_15 1_555 1_555
C6_15 H2_15 1_555 1_555
C7_15 C8_15 1_555 1_555
C8_15 C9_15 1_555 1_555
C9_15 O14_6 1_555 1_555
C10_15 C7_15 1_555 1_555
N1_15 C1_15 1_555 1_555
N2_15 C1_15 1_555 1_555
N3_15 Sm3_5 1_555 1_555
N5_6 C6_15 1_555 1_555
O1_15 Sm6_8 1_555 1_555
O12_6 C4_15 1_555 1_555
O13_6 C5_15 1_555 1_555
O4_15 Sm3_5 1_555 1_555
O6_8 C9_15 1_555 1_555
O16_8 C10_15 1_555 1_555
O18_8 Sm3_5 1_555 1_555
O11_15 Sm6_8 1_555 1_555
Sm6_7 O6_8 1_555 1_555
C2_15 N2_15 1_555 1_555
C3_15 N1_15 1_555 1_555
C5_15 O4_15 1_555 1_555
C6_15 N3_15 1_555 1_555
C7_15 N3_15 1_555 1_555
C8_15 N5_6 1_555 1_555
C10_15 O18_8 1_555 1_555
O16_8 Sm6_7 1_555 1_555
O11_15 H3_15 1_555 1_555
O11_15 H4_15 1_555 1_555
O10_13 H5_13 1_555 1_555
O10_13 H6_13 1_555 1_555
O9_15 H7_15 1_555 1_555
O9_15 H8_15 1_555 1_555
Sm3_6 N2_16 1_555 1_555
Sm6_7 N1_16 1_555 1_555
C1_16 H1_16 1_555 1_555
C2_16 C3_16 1_555 1_555
C3_16 C4_16 1_555 1_555
C4_16 O1_16 1_555 1_555
C5_16 C2_16 1_555 1_555
C6_16 H2_16 1_555 1_555
C7_16 C8_16 1_555 1_555
C8_16 C9_16 1_555 1_555
C9_16 O14_5 1_555 1_555
C10_16 C7_16 1_555 1_555
N1_16 C1_16 1_555 1_555
N2_16 C1_16 1_555 1_555
N3_16 Sm3_6 1_555 1_555
N5_5 C6_16 1_555 1_555
O1_16 Sm6_7 1_555 1_555
O12_5 C4_16 1_555 1_555
O13_5 C5_16 1_555 1_555
O4_16 Sm3_6 1_555 1_555
O15_8 C9_16 1_555 1_555
O16_7 C10_16 1_555 1_555
O18_7 Sm3_6 1_555 1_555
O9_16 Sm3_6 1_555 1_555
O10_14 Sm3_6 1_555 1_555
C2_16 N2_16 1_555 1_555
C3_16 N1_16 1_555 1_555
C5_16 O4_16 1_555 1_555
C6_16 N3_16 1_555 1_555
C7_16 N3_16 1_555 1_555
C8_16 N5_5 1_555 1_555
C10_16 O18_7 1_555 1_555
O10_14 H5_14 1_555 1_555
O10_14 H6_14 1_555 1_555
O9_16 H7_16 1_555 1_555
O9_16 H8_16 1_555 1_555
O11_16 H3_16 1_555 1_555
O11_16 H4_16 1_555 1_555
O10_15 H5_15 1_555 1_555
O10_15 H6_15 1_555 1_555
O10_16 H5_16 1_555 1_555
O10_16 H6_16 1_555 1_555

#END
