
###############################################################################
#
# This file contains modified crystal structure data generated from the
# MOF subset of the Cambridge Structural Database (CSD) v543 
# hosted by the Cambridge Crystallographic Data Centre (CCDC).
#
# This work is licensed under the Creative Commons
# Attribution-NonCommercial-ShareAlike 4.0 International License.
# To view a copy of this license, visit
# http://creativecommons.org/licenses/by-nc-sa/4.0/
# or send a letter to
# Creative Commons, PO Box 1866, Mountain View, CA 94042, USA.
#
# CIF created using the CSD Python API on 29 September 2022
# The structure has been converted into the P1 space group
# The structure has a 3D framework
# The original CSD entry RASXEP is in the tetragonal crystal system
# The framework has been calculated to contain at least 10.0% void space
# The void calculation uses a probe of radius 1.32A, grid spacing 0.4
# H atom positions have been added when not included in the experimental data
# Generated hydrogen atom positions removed from atoms on special positions
#
###############################################################################

data_RASXEP
_chemical_formula_moiety         '(C160 H240 N64 O171 Sm30)n'
_symmetry_cell_setting           triclinic
_symmetry_space_group_name_H-M   'P 1'
_symmetry_Int_Tables_number      1
_space_group_name_Hall           'P 1'
loop_
_symmetry_equiv_pos_site_id
_symmetry_equiv_pos_as_xyz
1 x,y,z
_cell_length_a                   20.312(3)
_cell_length_b                   20.312(3)
_cell_length_c                   16.220(3)
_cell_angle_alpha                90
_cell_angle_beta                 90
_cell_angle_gamma                90
_cell_volume                     6692
loop_
_atom_site_label
_atom_site_type_symbol
_atom_site_fract_x
_atom_site_fract_y
_atom_site_fract_z
O16 O 0.03506(18) 0.46651(18) 0.3155(2)
O23 O 0.03596(18) 0.52037(18) 0.4334(2)
O59 O 0.0077(2) 0.3630(2) 0.4500(3)
Sm15 Sm 0.068350(12) 0.545440(12) 0.581080(15)
O53 O 0.0182(2) 0.4731(3) 0.8350(3)
O56 O 0.0110(2) 0.6258(3) 0.8321(3)
H12 H 0.0401 0.6320 0.7905
Sm1 Sm 0.795423(13) 0.326176(13) 0.087747(16)
C1 C 0.6640(3) 0.4226(3) 0.0229(3)
H1 H 0.6596 0.4413 0.0749
C6 C 0.7815(3) 0.5031(3) 0.1489(4)
H2 H 0.7507 0.4980 0.1907
C7 C 0.8495(3) 0.4812(3) 0.0534(3)
C8 C 0.8466(3) 0.5484(3) 0.0629(3)
C10 C 0.8808(3) 0.6043(3) 0.0251(3)
N1 N 0.7073(2) 0.3753(2) 0.0066(3)
N3 N 0.8027(2) 0.5619(2) 0.1246(3)
N4 N 0.8076(2) 0.4522(2) 0.1092(3)
O6 O 0.8692(2) 0.66098(19) 0.0565(2)
O8 O 0.8850(2) 0.3767(2) 0.0148(3)
O9 O 0.7231(3) 0.2318(2) 0.0850(3)
O10 O 0.8758(3) 0.2390(2) 0.0821(3)
H3 H 0.8820 0.2099 0.0405
H4 H 0.8941 0.2602 0.0475
Sm3 Sm 0.576176(13) 0.454577(13) 0.337747(16)
Sm7 Sm 0.704577(13) 0.673824(13) 0.587747(16)
Sm8 Sm 0.795440(12) 0.681650(12) 0.168920(15)
Sm9 Sm 0.931650(12) 0.454560(12) 0.418920(15)
Sm13 Sm 0.431650(12) 0.454560(12) 0.081080(15)
Sm14 Sm 0.704560(12) 0.318350(12) 0.668920(15)
C12 C 0.6726(3) 0.5860(3) 0.2729(3)
H6 H 0.6913 0.5904 0.3249
C15 C 0.6108(3) 0.5526(3) 0.1740(3)
C18 C 0.6516(3) 0.6017(3) 0.1449(3)
C21 C 0.5587(2) 0.5111(3) 0.1394(3)
C24 C 0.6627(3) 0.6314(3) 0.0636(3)
C26 C 0.7531(3) 0.4685(3) 0.3989(4)
C28 C 0.7185(3) 0.4969(3) 0.6489(4)
H8 H 0.7480 0.4993 0.4407
H10 H 0.7493 0.5020 0.6907
C29 C 0.7312(3) 0.4005(3) 0.3034(3)
C31 C 0.6505(3) 0.5188(3) 0.5534(3)
C32 C 0.7984(3) 0.4034(3) 0.3129(3)
C34 C 0.6534(3) 0.4516(3) 0.5629(3)
C35 C 0.6873(3) 0.3648(3) 0.2465(3)
C37 C 0.6148(3) 0.5627(3) 0.4965(3)
C38 C 0.8543(3) 0.3692(3) 0.2751(3)
C40 C 0.6192(3) 0.3957(3) 0.5251(3)
N6 N 0.6253(2) 0.5427(2) 0.2566(3)
N9 N 0.6909(2) 0.6224(2) 0.2090(3)
N11 N 0.8724(2) 0.5591(2) 0.4590(3)
N13 N 0.8119(2) 0.4473(2) 0.3746(3)
N15 N 0.6973(2) 0.4381(2) 0.6246(3)
N17 N 0.7022(2) 0.4424(2) 0.3592(3)
N19 N 0.6924(2) 0.5478(2) 0.6092(3)
O13 O 0.53506(18) 0.46651(18) 0.1845(2)
O15 O 0.78349(18) 0.78506(18) 0.0655(2)
O18 O 0.53596(18) 0.52037(18) 0.0666(2)
O20 O 0.72963(18) 0.78596(18) 0.1834(2)
O21 O 0.77037(18) 0.71404(18) 0.3166(2)
O22 O 0.96404(18) 0.47963(18) 0.5666(2)
O26 O 0.6251(2) 0.6196(2) 0.0054(2)
O28 O 0.8696(2) 0.6249(2) 0.2554(2)
O29 O 0.8749(2) 0.3804(2) 0.5054(2)
O32 O 0.7117(2) 0.6696(2) 0.0589(2)
O34 O 0.9196(2) 0.5383(2) 0.3089(2)
O36 O 0.8485(2) 0.3304(2) 0.2153(2)
O38 O 0.5804(2) 0.4015(2) 0.4653(2)
O40 O 0.91098(19) 0.3808(2) 0.3065(2)
O42 O 0.6308(2) 0.33902(19) 0.5565(2)
O44 O 0.7094(2) 0.3366(2) 0.1842(3)
O46 O 0.5866(2) 0.5406(2) 0.4342(3)
O48 O 0.6267(2) 0.3650(2) 0.2648(3)
O50 O 0.6150(2) 0.6233(2) 0.5148(3)
O52 O 0.4818(2) 0.5269(3) 0.3350(3)
O55 O 0.4890(2) 0.3742(3) 0.3321(3)
H11 H 0.4599 0.3680 0.2905
H14 H 0.5102 0.3559 0.2975
O58 O 0.8870(2) 0.7577(2) 0.2000(3)
H29 H 0.990879 0.337786 0.498034
Sm2 Sm 0.568350(12) 0.545440(12) 0.918920(15)
C2 C 0.6974(3) 0.3608(3) 0.9240(3)
C3 C 0.6483(3) 0.4016(3) 0.8949(3)
C4 C 0.7389(3) 0.3087(2) 0.8894(3)
C5 C 0.6186(3) 0.4127(3) 0.8136(3)
C9 C 0.8852(3) 0.4373(3) 0.9965(3)
N2 N 0.6276(2) 0.4409(2) 0.9590(3)
O1 O 0.78349(18) 0.28506(18) 0.9345(2)
O2 O 0.72963(18) 0.28596(18) 0.8166(2)
O3 O 0.6304(2) 0.3751(2) 0.7554(2)
O4 O 0.5804(2) 0.4617(2) 0.8089(2)
O5 O 0.9196(2) 0.5985(2) 0.9653(2)
O7 O 0.9134(2) 0.4594(2) 0.9342(3)
O11 O 0.4923(2) 0.6370(2) 0.9500(3)
Sm4 Sm 0.923824(13) 0.545423(13) 0.837747(16)
Sm5 Sm 0.423824(13) 0.545423(13) 0.662253(16)
Sm10 Sm 0.795440(12) 0.181650(12) 0.831080(15)
Sm12 Sm 0.204560(12) 0.318350(12) 0.831080(15)
C11 C 0.3274(3) 0.4140(3) 0.7271(3)
C13 C 0.8274(3) 0.4140(3) 0.7729(3)
H5 H 0.3087 0.4096 0.6751
H7 H 0.8087 0.4096 0.8249
C14 C 0.3892(3) 0.4474(3) 0.8260(3)
C16 C 0.8892(3) 0.4474(3) 0.6740(3)
C17 C 0.3484(3) 0.3983(3) 0.8551(3)
C19 C 0.8484(3) 0.3983(3) 0.6449(3)
C20 C 0.4413(2) 0.4889(3) 0.8606(3)
C22 C 0.9413(2) 0.4889(3) 0.6394(3)
C23 C 0.3373(3) 0.3686(3) 0.9364(3)
C25 C 0.8373(3) 0.3686(3) 0.5636(3)
C27 C 0.7469(3) 0.5315(3) 0.8989(4)
H9 H 0.7520 0.5007 0.9407
C30 C 0.7688(3) 0.5995(3) 0.8034(3)
C33 C 0.7016(3) 0.5966(3) 0.8129(3)
C36 C 0.8127(3) 0.6352(3) 0.7465(3)
C39 C 0.6457(3) 0.6308(3) 0.7751(3)
N5 N 0.3747(2) 0.4573(2) 0.7434(3)
N7 N 0.8747(2) 0.4573(2) 0.7566(3)
N8 N 0.3091(2) 0.3776(2) 0.7910(3)
N10 N 0.8091(2) 0.3776(2) 0.7090(3)
N12 N 0.6909(2) 0.1224(2) 0.7910(3)
N14 N 0.6881(2) 0.5527(2) 0.8746(3)
N16 N 0.8027(2) 0.0619(2) 0.8754(3)
N18 N 0.7978(2) 0.5576(2) 0.8592(3)
N20 N 0.2978(2) 0.5576(2) 0.6408(3)
O12 O 0.46494(18) 0.53349(18) 0.8155(2)
O14 O 0.96494(18) 0.53349(18) 0.6845(2)
O17 O 0.46404(18) 0.47963(18) 0.9334(2)
O24 O 0.77037(18) 0.21404(18) 0.6834(2)
O25 O 0.3749(2) 0.3804(2) 0.9946(2)
O30 O 0.8696(2) 0.1249(2) 0.7446(2)
O31 O 0.2883(2) 0.3304(2) 0.9411(2)
O33 O 0.7883(2) 0.3304(2) 0.5589(2)
O35 O 0.7117(2) 0.1696(2) 0.9411(2)
O37 O 0.6515(2) 0.6696(2) 0.7153(2)
O39 O 0.4196(2) 0.5985(2) 0.5347(2)
O41 O 0.58902(19) 0.6192(2) 0.8065(2)
O43 O 0.8692(2) 0.16098(19) 0.9435(2)
O45 O 0.7906(2) 0.6634(2) 0.6842(3)
O47 O 0.4134(2) 0.4594(2) 0.5658(3)
O49 O 0.8733(2) 0.6350(2) 0.7648(3)
O51 O 0.3733(2) 0.6350(2) 0.7352(3)
O54 O 0.5182(2) 0.4731(3) 0.6650(3)
O57 O 0.5110(2) 0.6258(3) 0.6679(3)
H13 H 0.5401 0.6320 0.7095
H15 H 0.9898 0.6441 0.7975
H16 H 0.4898 0.6441 0.7025
O60 O 0.8870(2) 0.2577(2) 0.8000(3)
Sm1_2 Sm 0.423824(13) 0.045423(13) 0.337747(16)
C6_2 C 0.2469(3) 0.0315(3) 0.3989(4)
H2_2 H 0.2520 0.0007 0.4407
C7_2 C 0.2688(3) 0.0995(3) 0.3034(3)
C8_2 C 0.2016(3) 0.0966(3) 0.3129(3)
C9_2 C 0.3127(3) 0.1352(3) 0.2465(3)
C10_2 C 0.1457(3) 0.1308(3) 0.2751(3)
N3_2 N 0.1881(2) 0.0527(2) 0.3746(3)
N4_2 N 0.2978(2) 0.0576(2) 0.3592(3)
O1_2 O 0.46494(18) 0.03349(18) 0.1845(2)
O5_2 O 0.1515(2) 0.1696(2) 0.2153(2)
O6_2 O 0.08902(19) 0.1192(2) 0.3065(2)
O7_2 O 0.2906(2) 0.1634(2) 0.1842(3)
O8_2 O 0.3733(2) 0.1350(2) 0.2648(3)
O10_2 O 0.5110(2) 0.1258(3) 0.3321(3)
H3_2 H 0.5401 0.1320 0.2905
H4_2 H 0.4898 0.1441 0.2975
Sm4_2 Sm 0.204577(13) 0.173824(13) 0.087747(16)
Sm8_2 Sm 0.068350(12) 0.045440(12) 0.418920(15)
Sm9_2 Sm 0.295440(12) 0.181650(12) 0.668920(15)
Sm10_2 Sm 0.568350(12) 0.045440(12) 0.081080(15)
C13_2 C 0.3360(3) 0.0774(3) 0.0229(3)
H7_2 H 0.3404 0.0587 0.0749
C26_2 C 0.2815(3) 0.0031(3) 0.6489(4)
H9_2 H 0.2493 0.0020 0.1907
C30_2 C 0.1505(3) 0.0188(3) 0.0534(3)
C32_2 C 0.3466(3) 0.0484(3) 0.5629(3)
C38_2 C 0.3808(3) 0.1043(3) 0.5251(3)
N7_2 N 0.2927(2) 0.1247(2) 0.0066(3)
N11_2 N 0.1909(2) 0.1224(2) 0.7090(3)
N13_2 N 0.3027(2) 0.0619(2) 0.6246(3)
N16_2 N 0.6881(2) 0.0527(2) 0.1254(3)
N18_2 N 0.1924(2) 0.0478(2) 0.1092(3)
O16_2 O 0.28349(18) 0.28506(18) 0.5655(2)
O21_2 O 0.03596(18) 0.02037(18) 0.5666(2)
O22_2 O 0.27037(18) 0.21404(18) 0.8166(2)
O23_2 O 0.22963(18) 0.28596(18) 0.6834(2)
O28_2 O 0.1251(2) 0.1196(2) 0.5054(2)
O29_2 O 0.3696(2) 0.1249(2) 0.7554(2)
O34_2 O 0.2117(2) 0.1696(2) 0.5589(2)
O36_2 O 0.4196(2) 0.0985(2) 0.4653(2)
O40_2 O 0.3692(2) 0.16098(19) 0.5565(2)
O43_2 O 0.58902(19) 0.1192(2) 0.1935(2)
O49_2 O 0.1150(2) 0.1233(2) 0.0148(3)
O53_2 O 0.2769(3) 0.2682(2) 0.0850(3)
O56_2 O 0.1242(3) 0.2610(2) 0.0821(3)
H12_2 H 0.1180 0.2901 0.0405
H15_2 H 0.1059 0.2398 0.0475
O59_2 O 0.3870(2) 0.2577(2) 0.7000(3)
O60_2 O 0.4923(2) 0.1370(2) 0.0500(3)
C16_2 C 0.3026(3) 0.1392(3) 0.9240(3)
C19_2 C 0.3517(3) 0.0984(3) 0.8949(3)
C22_2 C 0.2611(3) 0.1913(2) 0.8894(3)
C25_2 C 0.3814(3) 0.0873(3) 0.8136(3)
C36_2 C 0.1148(3) 0.0627(3) 0.9965(3)
N10_2 N 0.3724(2) 0.0591(2) 0.9590(3)
O14_2 O 0.21651(18) 0.21494(18) 0.9345(2)
O24_2 O 0.53596(18) 0.02037(18) 0.9334(2)
O30_2 O 0.6251(2) 0.1196(2) 0.9946(2)
O33_2 O 0.4196(2) 0.0383(2) 0.8089(2)
O45_2 O 0.0866(2) 0.0406(2) 0.9342(3)
Sm2_2 Sm 0.204560(12) 0.818350(12) 0.168920(15)
C1_2 C 0.3274(3) 0.9140(3) 0.2729(3)
H1_2 H 0.3087 0.9096 0.3249
C2_2 C 0.3892(3) 0.9474(3) 0.1740(3)
C3_2 C 0.3484(3) 0.8983(3) 0.1449(3)
C4_2 C 0.4413(2) 0.9889(3) 0.1394(3)
C5_2 C 0.3373(3) 0.8686(3) 0.0636(3)
N1_2 N 0.3747(2) 0.9573(2) 0.2566(3)
N2_2 N 0.3091(2) 0.8776(2) 0.2090(3)
O2_2 O 0.46404(18) 0.97963(18) 0.0666(2)
O3_2 O 0.3749(2) 0.8804(2) 0.0054(2)
O4_2 O 0.2883(2) 0.8304(2) 0.0589(2)
O9_2 O 0.5182(2) 0.9731(3) 0.3350(3)
O11_2 O 0.1130(2) 0.7423(2) 0.2000(3)
Sm3_2 Sm 0.295423(13) 0.826176(13) 0.587747(16)
Sm7_2 Sm 0.076176(13) 0.954577(13) 0.837747(16)
Sm13_2 Sm 0.295440(12) 0.681650(12) 0.331080(15)
Sm14_2 Sm 0.431650(12) 0.954560(12) 0.918920(15)
C12_2 C 0.1640(3) 0.9226(3) 0.5229(3)
H6_2 H 0.1596 0.9413 0.5749
C14_2 C 0.3026(3) 0.6392(3) 0.0760(3)
C15_2 C 0.1974(3) 0.8608(3) 0.4240(3)
C17_2 C 0.3517(3) 0.5984(3) 0.1051(3)
C18_2 C 0.1483(3) 0.9016(3) 0.3949(3)
C20_2 C 0.2611(3) 0.6913(2) 0.1106(3)
C21_2 C 0.2389(3) 0.8087(2) 0.3894(3)
C23_2 C 0.3814(3) 0.5873(3) 0.1864(3)
C24_2 C 0.1186(3) 0.9127(3) 0.3136(3)
C27_2 C 0.2185(3) 0.9969(3) 0.1489(4)
C28_2 C 0.2531(3) 0.9685(3) 0.8989(4)
H8_2 H 0.2507 0.9980 0.6907
H10_2 H 0.2480 0.9993 0.9407
C29_2 C 0.3495(3) 0.9812(3) 0.5534(3)
C31_2 C 0.2312(3) 0.9005(3) 0.8034(3)
C33_2 C 0.1534(3) 0.9516(3) 0.0629(3)
C34_2 C 0.2984(3) 0.9034(3) 0.8129(3)
C35_2 C 0.3852(3) 0.9373(3) 0.4965(3)
C37_2 C 0.1873(3) 0.8648(3) 0.7465(3)
C39_2 C 0.1192(3) 0.8957(3) 0.0251(3)
C40_2 C 0.3543(3) 0.8692(3) 0.7751(3)
N6_2 N 0.2073(2) 0.8753(2) 0.5066(3)
N8_2 N 0.3724(2) 0.5591(2) 0.0410(3)
N9_2 N 0.1276(2) 0.9409(2) 0.4590(3)
N12_2 N 0.6276(2) 0.9409(2) 0.0410(3)
N14_2 N 0.1973(2) 0.9381(2) 0.1246(3)
N15_2 N 0.3119(2) 0.9473(2) 0.8746(3)
N17_2 N 0.3076(2) 0.9522(2) 0.6092(3)
N19_2 N 0.2022(2) 0.9424(2) 0.8592(3)
O12_2 O 0.21651(18) 0.71494(18) 0.0655(2)
O13_2 O 0.28349(18) 0.78506(18) 0.4345(2)
O17_2 O 0.27037(18) 0.71404(18) 0.1834(2)
O18_2 O 0.22963(18) 0.78596(18) 0.3166(2)
O25_2 O 0.3696(2) 0.6249(2) 0.2446(2)
O26_2 O 0.1304(2) 0.8751(2) 0.2554(2)
O31_2 O 0.4196(2) 0.5383(2) 0.1911(2)
O32_2 O 0.0804(2) 0.9617(2) 0.3089(2)
O35_2 O 0.5804(2) 0.9617(2) 0.1911(2)
O38_2 O 0.3485(2) 0.8304(2) 0.7153(2)
O41_2 O 0.1308(2) 0.83902(19) 0.0565(2)
O42_2 O 0.41098(19) 0.8808(2) 0.8065(2)
O44_2 O 0.4134(2) 0.9594(2) 0.4342(3)
O46_2 O 0.2094(2) 0.8366(2) 0.6842(3)
O48_2 O 0.3850(2) 0.8767(2) 0.5148(3)
O50_2 O 0.1267(2) 0.8650(2) 0.7648(3)
O52_2 O 0.2231(3) 0.7318(2) 0.5850(3)
O55_2 O 0.3758(3) 0.7390(2) 0.5821(3)
H11_2 H 0.3820 0.7099 0.5405
H14_2 H 0.3941 0.7602 0.5475
Sm5_2 Sm 0.204577(13) 0.673824(13) 0.912253(16)
C11_2 C 0.3360(3) 0.5774(3) 0.9771(3)
H5_2 H 0.3404 0.5587 0.9251
N5_2 N 0.2927(2) 0.6247(2) 0.9934(3)
N20_2 N 0.1924(2) 0.5478(2) 0.8908(3)
O37_2 O 0.0804(2) 0.9015(2) 0.9653(2)
O39_2 O 0.1515(2) 0.6696(2) 0.7847(2)
O47_2 O 0.2906(2) 0.6634(2) 0.8158(3)
O51_2 O 0.1150(2) 0.6233(2) 0.9852(3)
O54_2 O 0.2769(3) 0.7682(2) 0.9150(3)
O57_2 O 0.1242(3) 0.7610(2) 0.9179(3)
H13_2 H 0.1180 0.7901 0.9595
H16_2 H 0.1059 0.7398 0.9525
O15_2 O 0.96494(18) 0.03349(18) 0.3155(2)
O58_2 O 0.9923(2) 0.1370(2) 0.4500(3)
O20_2 O 0.96404(18) 0.97963(18) 0.4334(2)
C12_3 C 0.1726(3) 0.0860(3) 0.7729(3)
H6_3 H 0.1913 0.0904 0.8249
C15_3 C 0.1108(3) 0.0526(3) 0.6740(3)
C18_3 C 0.1516(3) 0.1017(3) 0.6449(3)
C21_3 C 0.0587(2) 0.0111(3) 0.6394(3)
C24_3 C 0.1627(3) 0.1314(3) 0.5636(3)
N6_3 N 0.1253(2) 0.0427(2) 0.7566(3)
O57_3 O 0.0110(2) 0.1258(3) 0.1679(3)
H13_3 H 0.0401 0.1320 0.2095
H19 H 0.00912121 0.162214 0.498034
N12_3 N 0.1909(2) 0.6224(2) 0.2910(3)
N16_3 N 0.3027(2) 0.5619(2) 0.3754(3)
O13_3 O 0.03506(18) 0.96651(18) 0.6845(2)
O16_3 O 0.53506(18) 0.96651(18) 0.8155(2)
O35_3 O 0.2117(2) 0.6696(2) 0.4411(2)
O43_3 O 0.3692(2) 0.66098(19) 0.4435(2)
O54_3 O 0.0182(2) 0.9731(3) 0.1650(3)
H14_3 H 0.0102 0.8559 0.7975
O59_3 O 0.5077(2) 0.8630(2) 0.9500(3)
O60_3 O 0.3870(2) 0.7577(2) 0.3000(3)
Sm5_3 Sm 0.923824(13) 0.045423(13) 0.162253(16)
N20_3 N 0.7978(2) 0.0576(2) 0.1408(3)
O39_3 O 0.9196(2) 0.0985(2) 0.0347(2)
O51_3 O 0.8733(2) 0.1350(2) 0.2352(3)
O52_3 O 0.9818(2) 0.0269(3) 0.8350(3)
H16_3 H 0.9898 0.1441 0.2025
Sm12_2 Sm 0.704560(12) 0.818350(12) 0.331080(15)
Sm13_3 Sm 0.931650(12) 0.954560(12) 0.581080(15)
C11_3 C 0.8274(3) 0.9140(3) 0.2271(3)
H5_3 H 0.8087 0.9096 0.1751
C14_3 C 0.8892(3) 0.9474(3) 0.3260(3)
C17_3 C 0.8484(3) 0.8983(3) 0.3551(3)
C20_3 C 0.9413(2) 0.9889(3) 0.3606(3)
C23_3 C 0.8373(3) 0.8686(3) 0.4364(3)
N5_3 N 0.8747(2) 0.9573(2) 0.2434(3)
N8_3 N 0.8091(2) 0.8776(2) 0.2910(3)
O25_3 O 0.8749(2) 0.8804(2) 0.4946(2)
O31_3 O 0.7883(2) 0.8304(2) 0.4411(2)
O47_3 O 0.9134(2) 0.9594(2) 0.0658(3)
O55_3 O 0.9890(2) 0.8742(3) 0.8321(3)
H11_3 H 0.9599 0.8680 0.7905
N12_4 N 0.1276(2) 0.4409(2) 0.5410(3)
N16_4 N 0.1881(2) 0.5527(2) 0.6254(3)
O30_3 O 0.1251(2) 0.6196(2) 0.4946(2)
O35_4 O 0.0804(2) 0.4617(2) 0.6911(2)
O43_4 O 0.08902(19) 0.6192(2) 0.6935(2)
H22 H 0.0108055 0.66421 0.504725
O11_3 O 0.6130(2) 0.2423(2) 0.7000(3)
Sm5_4 Sm 0.704577(13) 0.173824(13) 0.412253(16)
C11_4 C 0.8360(3) 0.0774(3) 0.4771(3)
C13_3 C 0.8360(3) 0.5774(3) 0.5229(3)
H5_4 H 0.8404 0.0587 0.4251
H7_3 H 0.8404 0.5587 0.5749
C14_4 C 0.8026(3) 0.1392(3) 0.5760(3)
C16_3 C 0.8026(3) 0.6392(3) 0.4240(3)
C17_4 C 0.8517(3) 0.0984(3) 0.6051(3)
C19_3 C 0.8517(3) 0.5984(3) 0.3949(3)
C20_4 C 0.7611(3) 0.1913(2) 0.6106(3)
C22_3 C 0.7611(3) 0.6913(2) 0.3894(3)
C23_4 C 0.8814(3) 0.0873(3) 0.6864(3)
C25_3 C 0.8814(3) 0.5873(3) 0.3136(3)
N5_4 N 0.7927(2) 0.1247(2) 0.4934(3)
N7_3 N 0.7927(2) 0.6247(2) 0.5066(3)
N8_4 N 0.8724(2) 0.0591(2) 0.5410(3)
N20_4 N 0.6924(2) 0.0478(2) 0.3908(3)
O12_3 O 0.71651(18) 0.21494(18) 0.5655(2)
O14_3 O 0.71651(18) 0.71494(18) 0.4345(2)
O31_4 O 0.9196(2) 0.0383(2) 0.6911(2)
O39_4 O 0.6515(2) 0.1696(2) 0.2847(2)
O47_4 O 0.7906(2) 0.1634(2) 0.3158(3)
O51_4 O 0.6150(2) 0.1233(2) 0.4852(3)
O53_3 O 0.7769(3) 0.7682(2) 0.5850(3)
O54_4 O 0.7769(3) 0.2682(2) 0.4150(3)
O56_3 O 0.6242(3) 0.7610(2) 0.5821(3)
O57_4 O 0.6242(3) 0.2610(2) 0.4179(3)
H12_3 H 0.6180 0.7901 0.5405
H13_4 H 0.6180 0.2901 0.4595
H15_3 H 0.6059 0.7398 0.5475
H16_4 H 0.6059 0.2398 0.4525
O60_4 O 0.9923(2) 0.6370(2) 0.5500(3)
C14_5 C 0.6974(3) 0.8608(3) 0.0760(3)
C17_5 C 0.6483(3) 0.9016(3) 0.1051(3)
C20_5 C 0.7389(3) 0.8087(2) 0.1106(3)
C23_5 C 0.6186(3) 0.9127(3) 0.1864(3)
N16_5 N 0.3119(2) 0.4473(2) 0.1254(3)
O25_4 O 0.6304(2) 0.8751(2) 0.2446(2)
O43_5 O 0.41098(19) 0.3808(2) 0.1935(2)
O60_5 O 0.5077(2) 0.3630(2) 0.0500(3)
Sm5_5 Sm 0.795423(13) 0.826176(13) 0.912253(16)
C11_5 C 0.6640(3) 0.9226(3) 0.9771(3)
H5_5 H 0.6596 0.9413 0.9251
N5_5 N 0.7073(2) 0.8753(2) 0.9934(3)
N20_5 N 0.8076(2) 0.9522(2) 0.8908(3)
O39_5 O 0.8485(2) 0.8304(2) 0.7847(2)
O47_5 O 0.7094(2) 0.8366(2) 0.8158(3)
O51_5 O 0.8850(2) 0.8767(2) 0.9852(3)
O54_5 O 0.7231(3) 0.7318(2) 0.9150(3)
O57_5 O 0.8758(3) 0.7390(2) 0.9179(3)
H13_5 H 0.8820 0.7099 0.9595
H16_5 H 0.8941 0.7602 0.9525
Sm5_6 Sm 0.076176(13) 0.454577(13) 0.162253(16)
C11_6 C 0.1726(3) 0.5860(3) 0.2271(3)
H5_6 H 0.1913 0.5904 0.1751
C14_6 C 0.1108(3) 0.5526(3) 0.3260(3)
C17_6 C 0.1516(3) 0.6017(3) 0.3551(3)
C20_6 C 0.0587(2) 0.5111(3) 0.3606(3)
C23_6 C 0.1627(3) 0.6314(3) 0.4364(3)
N5_6 N 0.1253(2) 0.5427(2) 0.2434(3)
N20_6 N 0.2022(2) 0.4424(2) 0.1408(3)
O39_6 O 0.0804(2) 0.4015(2) 0.0347(2)
O47_6 O 0.0866(2) 0.5406(2) 0.0658(3)
O51_6 O 0.1267(2) 0.3650(2) 0.2352(3)
H16_6 H 0.0102 0.3559 0.2025
N16_6 N 0.6973(2) 0.9381(2) 0.3754(3)
O43_6 O 0.6308(2) 0.83902(19) 0.4435(2)
O54_6 O 0.9818(2) 0.5269(3) 0.1650(3)
O57_6 O 0.9890(2) 0.3742(3) 0.1679(3)
H13_6 H 0.9599 0.3680 0.2095
O60_6 O 0.6130(2) 0.7423(2) 0.3000(3)
Sm5_7 Sm 0.295423(13) 0.326176(13) 0.412253(16)
C11_7 C 0.1640(3) 0.4226(3) 0.4771(3)
H5_7 H 0.1596 0.4413 0.4251
C14_7 C 0.1974(3) 0.3608(3) 0.5760(3)
C17_7 C 0.1483(3) 0.4016(3) 0.6051(3)
C20_7 C 0.2389(3) 0.3087(2) 0.6106(3)
C23_7 C 0.1186(3) 0.4127(3) 0.6864(3)
N5_7 N 0.2073(2) 0.3753(2) 0.4934(3)
N20_7 N 0.3076(2) 0.4522(2) 0.3908(3)
O25_5 O 0.1304(2) 0.3751(2) 0.7446(2)
O39_7 O 0.3485(2) 0.3304(2) 0.2847(2)
O47_7 O 0.2094(2) 0.3366(2) 0.3158(3)
O51_7 O 0.3850(2) 0.3767(2) 0.4852(3)
O54_7 O 0.2231(3) 0.2318(2) 0.4150(3)
O57_7 O 0.3758(3) 0.2390(2) 0.4179(3)
H13_7 H 0.3820 0.2099 0.4595
H16_7 H 0.3941 0.2602 0.4525
O60_7 O 0.0077(2) 0.8630(2) 0.5500(3)
N16_7 N 0.8119(2) 0.9473(2) 0.6254(3)
O43_7 O 0.91098(19) 0.8808(2) 0.6935(2)
H22_2 H 0.989194 0.83579 0.504725
C11_8 C 0.6726(3) 0.0860(3) 0.7271(3)
H5_8 H 0.6913 0.0904 0.6751
C14_8 C 0.6108(3) 0.0526(3) 0.8260(3)
C17_8 C 0.6516(3) 0.1017(3) 0.8551(3)
C20_8 C 0.5587(2) 0.0111(3) 0.8606(3)
C23_8 C 0.6627(3) 0.1314(3) 0.9364(3)
N5_8 N 0.6253(2) 0.0427(2) 0.7434(3)
N16_8 N 0.1973(2) 0.4381(2) 0.8754(3)
O43_8 O 0.1308(2) 0.33902(19) 0.9435(2)
O47_8 O 0.5866(2) 0.0406(2) 0.5658(3)
O54_8 O 0.4818(2) 0.0269(3) 0.6650(3)
O60_8 O 0.1130(2) 0.2423(2) 0.8000(3)
Sm5_8 Sm 0.576176(13) 0.954577(13) 0.662253(16)
N20_8 N 0.7022(2) 0.9424(2) 0.6408(3)
O39_8 O 0.5804(2) 0.9015(2) 0.5347(2)
O51_8 O 0.6267(2) 0.8650(2) 0.7352(3)
O57_8 O 0.4890(2) 0.8742(3) 0.6679(3)
H13_8 H 0.4599 0.8680 0.7095
H16_8 H 0.5102 0.8559 0.7025
C9_3 C 0.1148(3) 0.5627(3) 0.0035(3)
C27_3 C 0.2531(3) 0.4685(3) 0.1011(4)
H9_3 H 0.2480 0.4993 0.0593
C30_3 C 0.2312(3) 0.4005(3) 0.1966(3)
C33_3 C 0.2984(3) 0.4034(3) 0.1871(3)
C36_3 C 0.1873(3) 0.3648(3) 0.2535(3)
C39_3 C 0.3543(3) 0.3692(3) 0.2249(3)
C6_3 C 0.2185(3) 0.4969(3) 0.8511(4)
H2_3 H 0.2493 0.5020 0.8093
C7_3 C 0.1505(3) 0.5188(3) 0.9466(3)
C8_3 C 0.1534(3) 0.4516(3) 0.9371(3)
C10_3 C 0.1192(3) 0.3957(3) 0.9749(3)
C26_3 C 0.2469(3) 0.5315(3) 0.6011(4)
C28_3 C 0.2815(3) 0.5031(3) 0.3511(4)
H8_3 H 0.2520 0.5007 0.5593
H10_3 H 0.2507 0.4980 0.3093
C29_3 C 0.2688(3) 0.5995(3) 0.6966(3)
C31_3 C 0.3495(3) 0.4812(3) 0.4466(3)
C32_3 C 0.2016(3) 0.5966(3) 0.6871(3)
C34_3 C 0.3466(3) 0.5484(3) 0.4371(3)
C35_3 C 0.3127(3) 0.6352(3) 0.7535(3)
C37_3 C 0.3852(3) 0.4373(3) 0.5035(3)
C38_3 C 0.1457(3) 0.6308(3) 0.7249(3)
C40_3 C 0.3808(3) 0.6043(3) 0.4749(3)
H29_2 H 0.00912121 0.662214 0.501966
C27_4 C 0.7815(3) 0.0031(3) 0.8511(4)
C28_4 C 0.7469(3) 0.0315(3) 0.1011(4)
H8_4 H 0.7493 0.0020 0.3093
H10_4 H 0.7520 0.0007 0.0593
C29_4 C 0.6505(3) 0.0188(3) 0.4466(3)
C31_4 C 0.7688(3) 0.0995(3) 0.1966(3)
C33_4 C 0.8466(3) 0.0484(3) 0.9371(3)
C34_4 C 0.7016(3) 0.0966(3) 0.1871(3)
C35_4 C 0.6148(3) 0.0627(3) 0.5035(3)
C37_4 C 0.8127(3) 0.1352(3) 0.2535(3)
C39_4 C 0.8808(3) 0.1043(3) 0.9749(3)
C40_4 C 0.6457(3) 0.1308(3) 0.2249(3)
C36_4 C 0.8852(3) 0.9373(3) 0.0035(3)
C6_4 C 0.7531(3) 0.9685(3) 0.6011(4)
H2_4 H 0.7480 0.9993 0.5593
C7_4 C 0.7312(3) 0.9005(3) 0.6966(3)
C8_4 C 0.7984(3) 0.9034(3) 0.6871(3)
C9_4 C 0.6873(3) 0.8648(3) 0.7535(3)
C10_4 C 0.8543(3) 0.8692(3) 0.7249(3)
C26_4 C 0.7185(3) 0.9969(3) 0.3511(4)
H9_4 H 0.7507 0.9980 0.8093
C30_4 C 0.8495(3) 0.9812(3) 0.9466(3)
C32_4 C 0.6534(3) 0.9516(3) 0.4371(3)
C38_4 C 0.6192(3) 0.8957(3) 0.4749(3)
H19_2 H 0.990879 0.837786 0.501966
H22_3 H 0.989194 0.33579 0.495275
H22_4 H 0.0108055 0.16421 0.495275
loop_
_geom_bond_atom_site_label_1
_geom_bond_atom_site_label_2
_geom_bond_site_symmetry_1
_geom_bond_site_symmetry_2
H12 O56 1_555 1_555
Sm1 N1 1_555 1_555
C1 H1 1_555 1_555
C6 H2 1_555 1_555
C7 C8 1_555 1_555
C8 C10 1_555 1_555
N1 C1 1_555 1_555
N3 C6 1_555 1_555
N4 Sm1 1_555 1_555
O6 C10 1_555 1_555
O8 Sm1 1_555 1_555
O9 Sm1 1_555 1_555
O10 Sm1 1_555 1_555
H3 O10 1_555 1_555
H4 O10 1_555 1_555
Sm3 N6 1_555 1_555
Sm7 N19 1_555 1_555
Sm8 N3 1_555 1_555
Sm9 N11 1_555 1_555
Sm13 O13 1_555 1_555
Sm14 N15 1_555 1_555
C12 H6 1_555 1_555
C15 C18 1_555 1_555
C18 C24 1_555 1_555
C21 C15 1_555 1_555
C24 O26 1_555 1_555
C26 H8 1_555 1_555
C28 H10 1_555 1_555
C29 C32 1_555 1_555
C31 C34 1_555 1_555
C32 C38 1_555 1_555
C34 C40 1_555 1_555
C35 C29 1_555 1_555
C37 C31 1_555 1_555
C38 O36 1_555 1_555
C40 O38 1_555 1_555
N6 C12 1_555 1_555
N9 Sm8 1_555 1_555
N13 Sm9 1_555 1_555
N15 C28 1_555 1_555
N17 Sm3 1_555 1_555
N19 C28 1_555 1_555
O13 Sm3 1_555 1_555
O15 Sm8 1_555 1_555
O20 Sm8 1_555 1_555
O21 Sm8 1_555 1_555
O22 Sm9 1_555 1_555
O28 Sm8 1_555 1_555
O29 Sm9 1_555 1_555
O32 Sm8 1_555 1_555
O34 Sm9 1_555 1_555
O36 Sm1 1_555 1_555
O38 Sm3 1_555 1_555
O40 Sm9 1_555 1_555
O42 Sm14 1_555 1_555
O44 Sm1 1_555 1_555
O46 Sm3 1_555 1_555
O48 Sm3 1_555 1_555
O50 Sm7 1_555 1_555
O52 Sm3 1_555 1_555
O55 Sm3 1_555 1_555
H11 O55 1_555 1_555
H14 O55 1_555 1_555
O58 Sm8 1_555 1_555
C6 N4 1_555 1_555
C7 N4 1_555 1_555
C8 N3 1_555 1_555
O6 Sm8 1_555 1_555
Sm13 O18 1_555 1_555
C12 N9 1_555 1_555
C15 N6 1_555 1_555
C18 N9 1_555 1_555
C21 O13 1_555 1_555
C21 O18 1_555 1_555
C24 O32 1_555 1_555
C26 N13 1_555 1_555
C26 N17 1_555 1_555
C29 N17 1_555 1_555
C31 N19 1_555 1_555
C32 N13 1_555 1_555
C34 N15 1_555 1_555
C35 O44 1_555 1_555
C35 O48 1_555 1_555
C37 O46 1_555 1_555
C37 O50 1_555 1_555
C38 O40 1_555 1_555
C40 O42 1_555 1_555
Sm2 N2 1_555 1_555
C2 C3 1_555 1_555
C3 C5 1_555 1_555
C4 C2 1_555 1_555
C5 O3 1_555 1_555
O2 C4 1_555 1_555
O3 Sm14 1_555 1_555
O4 Sm2 1_555 1_555
O5 Sm4 1_555 1_555
O7 C9 1_555 1_555
O11 Sm2 1_555 1_555
Sm4 O7 1_555 1_555
Sm5 N5 1_555 1_555
Sm7 O37 1_555 1_555
Sm10 O1 1_555 1_555
Sm14 O2 1_555 1_555
Sm12 N8 1_555 1_555
C11 H5 1_555 1_555
C13 H7 1_555 1_555
C14 C17 1_555 1_555
C16 C19 1_555 1_555
C17 C23 1_555 1_555
C19 C25 1_555 1_555
C20 C14 1_555 1_555
C22 C16 1_555 1_555
C23 O25 1_555 1_555
C25 O29 1_555 1_555
C27 H9 1_555 1_555
C30 C33 1_555 1_555
C33 C39 1_555 1_555
C36 C30 1_555 1_555
C39 O37 1_555 1_555
N5 C11 1_555 1_555
N7 Sm4 1_555 1_555
N8 C11 1_555 1_555
N10 Sm14 1_555 1_555
N12 Sm10 1_555 1_555
N14 Sm2 1_555 1_555
N16 Sm10 1_555 1_555
N18 Sm4 1_555 1_555
N20 Sm5 1_555 1_555
O12 Sm2 1_555 1_555
O14 Sm4 1_555 1_555
O17 Sm2 1_555 1_555
O24 Sm10 1_555 1_555
O30 Sm10 1_555 1_555
O31 Sm12 1_555 1_555
O33 Sm14 1_555 1_555
O35 Sm10 1_555 1_555
O39 Sm5 1_555 1_555
O41 Sm2 1_555 1_555
O43 Sm10 1_555 1_555
O45 Sm7 1_555 1_555
O47 Sm5 1_555 1_555
O49 Sm4 1_555 1_555
O51 Sm5 1_555 1_555
O54 Sm5 1_555 1_555
O57 Sm5 1_555 1_555
H13 O57 1_555 1_555
H16 O57 1_555 1_555
O60 Sm10 1_555 1_555
C3 N2 1_555 1_555
C4 O1 1_555 1_555
C5 O4 1_555 1_555
O2 Sm10 1_555 1_555
Sm5 O12 1_555 1_555
Sm14 O24 1_555 1_555
C13 N7 1_555 1_555
C13 N10 1_555 1_555
C14 N5 1_555 1_555
C16 N7 1_555 1_555
C17 N8 1_555 1_555
C19 N10 1_555 1_555
C20 O12 1_555 1_555
C20 O17 1_555 1_555
C22 O14 1_555 1_555
C22 O22 1_555 1_555
C23 O31 1_555 1_555
C25 O33 1_555 1_555
C27 N14 1_555 1_555
C27 N18 1_555 1_555
C30 N18 1_555 1_555
C33 N14 1_555 1_555
C36 O45 1_555 1_555
C36 O49 1_555 1_555
C39 O41 1_555 1_555
C6_2 H2_2 1_555 1_555
C7_2 C8_2 1_555 1_555
C8_2 C10_2 1_555 1_555
C9_2 C7_2 1_555 1_555
C10_2 O5_2 1_555 1_555
N3_2 C6_2 1_555 1_555
N4_2 Sm1_2 1_555 1_555
O1_2 Sm1_2 1_555 1_555
O5_2 Sm4_2 1_555 1_555
O6_2 C10_2 1_555 1_555
O7_2 C9_2 1_555 1_555
O8_2 Sm1_2 1_555 1_555
O10_2 Sm1_2 1_555 1_555
H3_2 O10_2 1_555 1_555
H4_2 O10_2 1_555 1_555
Sm4_2 O7_2 1_555 1_555
Sm8_2 N3_2 1_555 1_555
Sm9_2 N11_2 1_555 1_555
Sm10_2 O1_2 1_555 1_555
C13_2 H7_2 1_555 1_555
C32_2 C38_2 1_555 1_555
C38_2 O36_2 1_555 1_555
N7_2 Sm4_2 1_555 1_555
N13_2 Sm9_2 1_555 1_555
N16_2 Sm10_2 1_555 1_555
N18_2 Sm4_2 1_555 1_555
O16_2 Sm9_2 1_555 1_555
O21_2 Sm8_2 1_555 1_555
O22_2 Sm9_2 1_555 1_555
O23_2 Sm9_2 1_555 1_555
O28_2 Sm8_2 1_555 1_555
O29_2 Sm9_2 1_555 1_555
O34_2 Sm9_2 1_555 1_555
O36_2 Sm1_2 1_555 1_555
O40_2 Sm9_2 1_555 1_555
O43_2 Sm10_2 1_555 1_555
O49_2 Sm4_2 1_555 1_555
O53_2 Sm4_2 1_555 1_555
O56_2 Sm4_2 1_555 1_555
H12_2 O56_2 1_555 1_555
H15_2 O56_2 1_555 1_555
O59_2 Sm9_2 1_555 1_555
O60_2 Sm10_2 1_555 1_555
C6_2 N4_2 1_555 1_555
C7_2 N4_2 1_555 1_555
C8_2 N3_2 1_555 1_555
C9_2 O8_2 1_555 1_555
O6_2 Sm8_2 1_555 1_555
C13_2 N7_2 1_555 1_555
C26_2 N13_2 1_555 1_555
C30_2 N18_2 1_555 1_555
C32_2 N13_2 1_555 1_555
C38_2 O40_2 1_555 1_555
Sm12 O14_2 1_555 1_555
C16_2 C19_2 1_555 1_555
C19_2 C25_2 1_555 1_555
C22_2 C16_2 1_555 1_555
C25_2 O29_2 1_555 1_555
O22_2 Sm12 1_555 1_555
C19_2 N10_2 1_555 1_555
C22_2 O14_2 1_555 1_555
C22_2 O22_2 1_555 1_555
C25_2 O33_2 1_555 1_555
C36_2 O45_2 1_555 1_555
Sm2_2 N2_2 1_555 1_555
C1_2 H1_2 1_555 1_555
C2_2 C3_2 1_555 1_555
C3_2 C5_2 1_555 1_555
C4_2 C2_2 1_555 1_555
C5_2 O3_2 1_555 1_555
N1_2 C1_2 1_555 1_555
N2_2 C1_2 1_555 1_555
O2_2 C4_2 1_555 1_555
O4_2 Sm2_2 1_555 1_555
O11_2 Sm2_2 1_555 1_555
Sm3_2 N6_2 1_555 1_555
Sm7_2 N19_2 1_555 1_555
Sm13 N8_2 1_555 1_555
Sm13_2 O13_2 1_555 1_555
Sm14_2 N15_2 1_555 1_555
C12_2 H6_2 1_555 1_555
C14_2 C17_2 1_555 1_555
C15_2 C18_2 1_555 1_555
C17_2 C23_2 1_555 1_555
C18_2 C24_2 1_555 1_555
C20_2 C14_2 1_555 1_555
C21_2 C15_2 1_555 1_555
C23_2 O25_2 1_555 1_555
C24_2 O26_2 1_555 1_555
C28_2 H10_2 1_555 1_555
C31_2 C34_2 1_555 1_555
C33_2 C39_2 1_555 1_555
C34_2 C40_2 1_555 1_555
C35_2 C29_2 1_555 1_555
C37_2 C31_2 1_555 1_555
C40_2 O38_2 1_555 1_555
N6_2 C12_2 1_555 1_555
N14_2 Sm2_2 1_555 1_555
N15_2 C28_2 1_555 1_555
N17_2 Sm3_2 1_555 1_555
N19_2 C28_2 1_555 1_555
O12_2 Sm2_2 1_555 1_555
O13_2 Sm3_2 1_555 1_555
O17_2 Sm2_2 1_555 1_555
O18_2 Sm2_2 1_555 1_555
O25_2 Sm13_2 1_555 1_555
O26_2 Sm2_2 1_555 1_555
O31_2 Sm13 1_555 1_555
O38_2 Sm3_2 1_555 1_555
O41_2 Sm2_2 1_555 1_555
O42_2 Sm14_2 1_555 1_555
O46_2 Sm3_2 1_555 1_555
O48_2 Sm3_2 1_555 1_555
O50_2 Sm7_2 1_555 1_555
O52_2 Sm3_2 1_555 1_555
O55_2 Sm3_2 1_555 1_555
H11_2 O55_2 1_555 1_555
H14_2 O55_2 1_555 1_555
C2_2 N1_2 1_555 1_555
C3_2 N2_2 1_555 1_555
C5_2 O4_2 1_555 1_555
Sm13_2 O17_2 1_555 1_555
Sm13_2 O18_2 1_555 1_555
C12_2 N9_2 1_555 1_555
C15_2 N6_2 1_555 1_555
C17_2 N8_2 1_555 1_555
C18_2 N9_2 1_555 1_555
C20_2 O12_2 1_555 1_555
C20_2 O17_2 1_555 1_555
C21_2 O13_2 1_555 1_555
C21_2 O18_2 1_555 1_555
C23_2 O31_2 1_555 1_555
C24_2 O32_2 1_555 1_555
C27_2 N14_2 1_555 1_555
C29_2 N17_2 1_555 1_555
C31_2 N19_2 1_555 1_555
C33_2 N14_2 1_555 1_555
C34_2 N15_2 1_555 1_555
C35_2 O44_2 1_555 1_555
C35_2 O48_2 1_555 1_555
C37_2 O46_2 1_555 1_555
C37_2 O50_2 1_555 1_555
C39_2 O41_2 1_555 1_555
C40_2 O42_2 1_555 1_555
Sm5_2 N5_2 1_555 1_555
Sm7_2 O37_2 1_555 1_555
C11_2 H5_2 1_555 1_555
N5_2 C11_2 1_555 1_555
N20_2 Sm5_2 1_555 1_555
O39_2 Sm5_2 1_555 1_555
O47_2 Sm5_2 1_555 1_555
O51_2 Sm5_2 1_555 1_555
O54_2 Sm5_2 1_555 1_555
O57_2 Sm5_2 1_555 1_555
H13_2 O57_2 1_555 1_555
H16_2 O57_2 1_555 1_555
C12_3 H6_3 1_555 1_555
C15_3 C18_3 1_555 1_555
C18_3 C24_3 1_555 1_555
C21_3 C15_3 1_555 1_555
C24_3 O28_2 1_555 1_555
N6_3 C12_3 1_555 1_555
H13_3 O57_3 1_555 1_555
C12_3 N11_2 1_555 1_555
C15_3 N6_3 1_555 1_555
C18_3 N11_2 1_555 1_555
C21_3 O21_2 1_555 1_555
C24_3 O34_2 1_555 1_555
N12_3 Sm13_2 1_555 1_555
N16_3 Sm13_2 1_555 1_555
O13_3 Sm7_2 1_555 1_555
O16_3 Sm14_2 1_555 1_555
O35_3 Sm13_2 1_555 1_555
O43_3 Sm13_2 1_555 1_555
O59_3 Sm14_2 1_555 1_555
O60_3 Sm13_2 1_555 1_555
N20_3 Sm5_3 1_555 1_555
O39_3 Sm5_3 1_555 1_555
O51_3 Sm5_3 1_555 1_555
Sm5_3 O15_2 1_555 1_555
Sm12_2 N8_3 1_555 1_555
C11_3 H5_3 1_555 1_555
C14_3 C17_3 1_555 1_555
C17_3 C23_3 1_555 1_555
C20_3 C14_3 1_555 1_555
C23_3 O25_3 1_555 1_555
N5_3 C11_3 1_555 1_555
N8_3 C11_3 1_555 1_555
O25_3 Sm13_3 1_555 1_555
O31_3 Sm12_2 1_555 1_555
H11_3 O55_3 1_555 1_555
Sm13_3 O20_2 1_555 1_555
C14_3 N5_3 1_555 1_555
C17_3 N8_3 1_555 1_555
C20_3 O20_2 1_555 1_555
C23_3 O31_3 1_555 1_555
N12_4 Sm15 1_555 1_555
N16_4 Sm15 1_555 1_555
O23 Sm15 1_555 1_555
O30_3 Sm15 1_555 1_555
O35_4 Sm15 1_555 1_555
O43_4 Sm15 1_555 1_555
O11_3 Sm14 1_555 1_555
Sm5_4 N5_4 1_555 1_555
Sm12_2 O14_3 1_555 1_555
C11_4 H5_4 1_555 1_555
C13_3 H7_3 1_555 1_555
C14_4 C17_4 1_555 1_555
C16_3 C19_3 1_555 1_555
C17_4 C23_4 1_555 1_555
C19_3 C25_3 1_555 1_555
C20_4 C14_4 1_555 1_555
C22_3 C16_3 1_555 1_555
C23_4 O30 1_555 1_555
C25_3 O28 1_555 1_555
N5_4 C11_4 1_555 1_555
N7_3 Sm7 1_555 1_555
N8_4 C11_4 1_555 1_555
N20_4 Sm5_4 1_555 1_555
O12_3 Sm14 1_555 1_555
O14_3 Sm7 1_555 1_555
O21 Sm12_2 1_555 1_555
O39_4 Sm5_4 1_555 1_555
O47_4 Sm5_4 1_555 1_555
O51_4 Sm5_4 1_555 1_555
O53_3 Sm7 1_555 1_555
O54_4 Sm5_4 1_555 1_555
O56_3 Sm7 1_555 1_555
O57_4 Sm5_4 1_555 1_555
H12_3 O56_3 1_555 1_555
H13_4 O57_4 1_555 1_555
H15_3 O56_3 1_555 1_555
H16_4 O57_4 1_555 1_555
Sm5_4 O12_3 1_555 1_555
C13_3 N7_3 1_555 1_555
C13_3 N11 1_555 1_555
C14_4 N5_4 1_555 1_555
C16_3 N7_3 1_555 1_555
C17_4 N8_4 1_555 1_555
C19_3 N11 1_555 1_555
C20_4 O12_3 1_555 1_555
C20_4 O24 1_555 1_555
C22_3 O14_3 1_555 1_555
C22_3 O21 1_555 1_555
C23_4 O31_4 1_555 1_555
C25_3 O34 1_555 1_555
C14_5 C17_5 1_555 1_555
C17_5 C23_5 1_555 1_555
C20_5 C14_5 1_555 1_555
C23_5 O25_4 1_555 1_555
N16_5 Sm13 1_555 1_555
O25_4 Sm12_2 1_555 1_555
O43_5 Sm13 1_555 1_555
O60_5 Sm13 1_555 1_555
Sm12_2 O20 1_555 1_555
C17_5 N12_2 1_555 1_555
C20_5 O15 1_555 1_555
C20_5 O20 1_555 1_555
C23_5 O35_2 1_555 1_555
Sm5_5 N5_5 1_555 1_555
C11_5 H5_5 1_555 1_555
N5_5 C11_5 1_555 1_555
N20_5 Sm5_5 1_555 1_555
O39_5 Sm5_5 1_555 1_555
O47_5 Sm5_5 1_555 1_555
O51_5 Sm5_5 1_555 1_555
O54_5 Sm5_5 1_555 1_555
O57_5 Sm5_5 1_555 1_555
H13_5 O57_5 1_555 1_555
H16_5 O57_5 1_555 1_555
Sm5_6 N5_6 1_555 1_555
C11_6 H5_6 1_555 1_555
C14_6 C17_6 1_555 1_555
C17_6 C23_6 1_555 1_555
C20_6 C14_6 1_555 1_555
C23_6 O30_3 1_555 1_555
N5_6 C11_6 1_555 1_555
N12_3 C11_6 1_555 1_555
N20_6 Sm5_6 1_555 1_555
O39_6 Sm5_6 1_555 1_555
O47_6 Sm5_6 1_555 1_555
O51_6 Sm5_6 1_555 1_555
Sm5_6 O16 1_555 1_555
C14_6 N5_6 1_555 1_555
C17_6 N12_3 1_555 1_555
C20_6 O16 1_555 1_555
C20_6 O23 1_555 1_555
C23_6 O35_3 1_555 1_555
N16_6 Sm12_2 1_555 1_555
O43_6 Sm12_2 1_555 1_555
H13_6 O57_6 1_555 1_555
O60_6 Sm12_2 1_555 1_555
Sm5_7 N5_7 1_555 1_555
C11_7 H5_7 1_555 1_555
C14_7 C17_7 1_555 1_555
C17_7 C23_7 1_555 1_555
C20_7 C14_7 1_555 1_555
C23_7 O25_5 1_555 1_555
N5_7 C11_7 1_555 1_555
N12_4 C11_7 1_555 1_555
N20_7 Sm5_7 1_555 1_555
O25_5 Sm12 1_555 1_555
O39_7 Sm5_7 1_555 1_555
O47_7 Sm5_7 1_555 1_555
O51_7 Sm5_7 1_555 1_555
O54_7 Sm5_7 1_555 1_555
O57_7 Sm5_7 1_555 1_555
H13_7 O57_7 1_555 1_555
H16_7 O57_7 1_555 1_555
Sm5_7 O16_2 1_555 1_555
Sm12 O23_2 1_555 1_555
C14_7 N5_7 1_555 1_555
C17_7 N12_4 1_555 1_555
C20_7 O16_2 1_555 1_555
C20_7 O23_2 1_555 1_555
C23_7 O35_4 1_555 1_555
N16_7 Sm13_3 1_555 1_555
O43_7 Sm13_3 1_555 1_555
C11_8 H5_8 1_555 1_555
C14_8 C17_8 1_555 1_555
C17_8 C23_8 1_555 1_555
C20_8 C14_8 1_555 1_555
C23_8 O30_2 1_555 1_555
N5_8 C11_8 1_555 1_555
N12 C11_8 1_555 1_555
N16_8 Sm12 1_555 1_555
O43_8 Sm12 1_555 1_555
O60_8 Sm12 1_555 1_555
C14_8 N5_8 1_555 1_555
C17_8 N12 1_555 1_555
C20_8 O24_2 1_555 1_555
C23_8 O35 1_555 1_555
N20_8 Sm5_8 1_555 1_555
O39_8 Sm5_8 1_555 1_555
O51_8 Sm5_8 1_555 1_555
O57_8 Sm5_8 1_555 1_555
H13_8 O57_8 1_555 1_555
H16_8 O57_8 1_555 1_555
Sm5_8 O16_3 1_555 1_555
O47_6 C9_3 1_555 1_555
C27_3 H9_3 1_555 1_555
C30_3 C33_3 1_555 1_555
C33_3 C39_3 1_555 1_555
C36_3 C30_3 1_555 1_555
C39_3 O39_7 1_555 1_555
C27_3 N16_5 1_555 1_555
C27_3 N20_6 1_555 1_555
C30_3 N20_6 1_555 1_555
C33_3 N16_5 1_555 1_555
C36_3 O47_7 1_555 1_555
C36_3 O51_6 1_555 1_555
C39_3 O43_5 1_555 1_555
C6_3 H2_3 1_555 1_555
C7_3 C8_3 1_555 1_555
C8_3 C10_3 1_555 1_555
N16_8 C6_3 1_555 1_555
O43_8 C10_3 1_555 1_555
C26_3 H8_3 1_555 1_555
C28_3 H10_3 1_555 1_555
C29_3 C32_3 1_555 1_555
C31_3 C34_3 1_555 1_555
C32_3 C38_3 1_555 1_555
C34_3 C40_3 1_555 1_555
C35_3 C29_3 1_555 1_555
C37_3 C31_3 1_555 1_555
C38_3 O39_2 1_555 1_555
C40_3 O39 1_555 1_555
N16_3 C28_3 1_555 1_555
N20_7 C28_3 1_555 1_555
C6_3 N20_2 1_555 1_555
C7_3 N20_2 1_555 1_555
C8_3 N16_8 1_555 1_555
C26_3 N16_4 1_555 1_555
C26_3 N20 1_555 1_555
C29_3 N20 1_555 1_555
C31_3 N20_7 1_555 1_555
C32_3 N16_4 1_555 1_555
C34_3 N16_3 1_555 1_555
C35_3 O47_2 1_555 1_555
C35_3 O51 1_555 1_555
C37_3 O47 1_555 1_555
C37_3 O51_7 1_555 1_555
C38_3 O43_4 1_555 1_555
C40_3 O43_3 1_555 1_555
C28_4 H10_4 1_555 1_555
C31_4 C34_4 1_555 1_555
C33_4 C39_4 1_555 1_555
C34_4 C40_4 1_555 1_555
C35_4 C29_4 1_555 1_555
C37_4 C31_4 1_555 1_555
C40_4 O39_4 1_555 1_555
N16_2 C28_4 1_555 1_555
N20_3 C28_4 1_555 1_555
C27_4 N16 1_555 1_555
C29_4 N20_4 1_555 1_555
C31_4 N20_3 1_555 1_555
C33_4 N16 1_555 1_555
C34_4 N16_2 1_555 1_555
C35_4 O47_8 1_555 1_555
C35_4 O51_4 1_555 1_555
C37_4 O47_4 1_555 1_555
C37_4 O51_3 1_555 1_555
C39_4 O43 1_555 1_555
C40_4 O43_2 1_555 1_555
C36_4 O47_3 1_555 1_555
C6_4 H2_4 1_555 1_555
C7_4 C8_4 1_555 1_555
C8_4 C10_4 1_555 1_555
C9_4 C7_4 1_555 1_555
C10_4 O39_5 1_555 1_555
N16_7 C6_4 1_555 1_555
O43_7 C10_4 1_555 1_555
O47_5 C9_4 1_555 1_555
C32_4 C38_4 1_555 1_555
C38_4 O39_8 1_555 1_555
C6_4 N20_8 1_555 1_555
C7_4 N20_8 1_555 1_555
C8_4 N16_7 1_555 1_555
C9_4 O51_8 1_555 1_555
C26_4 N16_6 1_555 1_555
C30_4 N20_5 1_555 1_555
C32_4 N16_6 1_555 1_555
C38_4 O43_6 1_555 1_555

#END
