
###############################################################################
#
# This file contains modified crystal structure data generated from the
# MOF subset of the Cambridge Structural Database (CSD) v543 
# hosted by the Cambridge Crystallographic Data Centre (CCDC).
#
# This work is licensed under the Creative Commons
# Attribution-NonCommercial-ShareAlike 4.0 International License.
# To view a copy of this license, visit
# http://creativecommons.org/licenses/by-nc-sa/4.0/
# or send a letter to
# Creative Commons, PO Box 1866, Mountain View, CA 94042, USA.
#
# CIF created using the CSD Python API on 29 September 2022
# The structure has been converted into the P1 space group
# The structure has a 3D framework
# The original CSD entry RATCUL01 is in the monoclinic crystal system
# The framework has been calculated to contain at least 10.0% void space
# The void calculation uses a probe of radius 1.32A, grid spacing 0.4
#
###############################################################################

data_RATCUL01
_chemical_formula_moiety         '(C24 H24 Fe20 O48)n'
_symmetry_cell_setting           triclinic
_symmetry_space_group_name_H-M   'P 1'
_symmetry_Int_Tables_number      1
_space_group_name_Hall           'P 1'
loop_
_symmetry_equiv_pos_site_id
_symmetry_equiv_pos_as_xyz
1 x,y,z
_cell_length_a                   11.4702(2)
_cell_length_b                   9.9598(2)
_cell_length_c                   18.3735(4)
_cell_angle_alpha                90
_cell_angle_beta                 127.443(2)
_cell_angle_gamma                90
_cell_volume                     1666.52
loop_
_atom_site_label
_atom_site_type_symbol
_atom_site_fract_x
_atom_site_fract_y
_atom_site_fract_z
Fe14 Fe 0.0000 0.0000 0.0000
Fe14_2 Fe 0.0000 0.0000 1.0000
Fe14_3 Fe 0.0000 1.0000 0.0000
Fe14_4 Fe 0.0000 1.0000 1.0000
Fe1 Fe 0.37816(3) 0.07729(3) 0.13308(2)
Fe3 Fe 0.5000 0.0000 0.0000
O1 O 0.44172(16) 0.19783(15) 0.24723(9)
O2 O 0.55520(17) 0.06068(15) 0.36937(10)
O4 O 0.68267(18) 0.00112(17) 0.14104(10)
O5 O 0.45445(16) 0.25574(15) 0.10697(9)
O11 O 0.16388(16) 0.15547(15) 0.06127(10)
O12 O 0.20199(17) 0.37652(15) 0.09117(10)
C1 C 0.5039(3) 0.1709(2) 0.33170(15)
C3 C 0.4701(3) 0.2875(2) 0.04624(15)
C6 C 0.1216(3) 0.2771(2) 0.05091(15)
H1 H 0.514(2) 0.245(2) 0.3689(14)
H3 H 0.477(3) 0.385(3) 0.0415(17)
H6 H 0.014(3) 0.292(2) 0.0071(14)
Fe7 Fe 0.62184(3) 0.57729(3) 0.36692(2)
Fe9 Fe 0.42772(3) 0.38820(3) 0.18797(2)
Fe12 Fe 0.57228(3) 0.88820(3) 0.31203(2)
Fe13 Fe 0.5000 0.5000 0.5000
Fe14_5 Fe 1.0000 0.0000 0.0000
O15 O 0.55828(16) 0.69783(15) 0.25277(9)
O17 O 0.44480(17) 0.56068(15) 0.13063(10)
O19 O 0.40815(17) 0.49178(15) 0.28103(10)
O21 O 0.31733(18) 0.50112(17) 0.35896(10)
O26 O 0.65344(16) 0.41489(15) 0.30336(10)
O29 O 0.88682(17) 0.10986(16) 0.03668(11)
C7 C 0.4961(3) 0.6709(2) 0.16830(15)
C9 C 0.3061(3) 0.4833(2) 0.28857(16)
C11 C 0.7763(3) 0.1023(2) 0.03269(15)
H7 H 0.486(2) 0.745(2) 0.1311(14)
H9 H 0.210(3) 0.459(2) 0.2352(16)
H11 H 0.774(2) 0.153(2) 0.0752(16)
Fe2 Fe 0.42772(3) 0.11180(3) 0.68797(2)
Fe3_2 Fe 0.5000 0.0000 1.0000
O6 O 0.48009(18) 0.20885(16) 0.99802(10)
Fe14_6 Fe 1.0000 0.0000 1.0000
O14 O 0.44172(16) 0.30217(15) 0.74723(9)
O18 O 0.40815(17) 0.00822(15) 0.78103(10)
O23 O 0.45445(16) 0.24426(15) 0.60697(9)
O25 O 0.65344(16) 0.08511(15) 0.80336(10)
O28 O 0.66359(16) 0.02750(15) 0.97758(10)
O33 O 0.20199(17) 0.12348(15) 0.59117(10)
C8 C 0.3061(3) 0.0167(2) 0.78857(16)
H8 H 0.210(3) 0.041(2) 0.7352(16)
Fe3_3 Fe 0.5000 1.0000 0.0000
O3 O 0.59185(17) 0.99178(15) 0.21897(10)
O7 O 0.34656(16) 0.91489(15) 0.19664(10)
O8 O 0.10523(17) 0.89462(16) 0.12422(11)
O9 O 0.33641(16) 0.97250(15) 0.02242(10)
C2 C 0.6939(3) 0.9833(2) 0.21143(16)
C4 C 0.2345(3) 0.8684(2) 0.18689(15)
H2 H 0.790(3) 0.959(2) 0.2648(16)
H4 H 0.258(3) 0.803(2) 0.2363(16)
Fe14_7 Fe 1.0000 1.0000 0.0000
O24 O 0.51991(18) 0.79115(16) 0.00198(10)
Fe3_4 Fe 0.5000 1.0000 1.0000
O10 O 0.11318(17) 0.89014(16) 0.96332(11)
C5 C 0.2237(3) 0.8977(2) 0.96731(15)
H5 H 0.226(2) 0.847(2) 0.9248(16)
Fe5 Fe 0.62184(3) 0.92271(3) 0.86692(2)
Fe10 Fe 0.57228(3) 0.61180(3) 0.81203(2)
Fe14_8 Fe 1.0000 1.0000 1.0000
O13 O 0.55828(16) 0.80217(15) 0.75277(9)
O16 O 0.44480(17) 0.93932(15) 0.63063(10)
O20 O 0.31733(18) 0.99888(17) 0.85896(10)
O22 O 0.54555(16) 0.74426(15) 0.89303(9)
O32 O 0.83612(16) 0.84453(15) 0.93873(10)
C10 C 0.5299(3) 0.7125(2) 0.95376(15)
H10 H 0.523(3) 0.615(3) 0.9585(17)
O27 O 0.89477(17) 0.10538(16) 0.87578(11)
O34 O 0.79801(17) 0.62348(15) 0.90883(10)
C12 C 0.8784(3) 0.7229(2) 0.94909(15)
H12 H 0.986(3) 0.708(2) 0.9929(14)
Fe4 Fe 0.0000 0.5000 0.5000
Fe6 Fe 0.37816(3) 0.42271(3) 0.63308(2)
O27_2 O 0.10523(17) 0.60538(16) 0.62422(11)
O30 O 0.11318(17) 0.60986(16) 0.46332(11)
O31 O 0.16388(16) 0.34453(15) 0.56127(10)
C12_2 C 0.1216(3) 0.2229(2) 0.55091(15)
H12_2 H 0.014(3) 0.208(2) 0.5071(14)
Fe4_2 Fe 1.0000 0.5000 0.5000
O5_2 O 0.54555(16) 0.75574(15) 0.39303(9)
O6_2 O 0.51991(18) 0.70885(16) 0.50198(10)
O8_2 O 0.89477(17) 0.39462(16) 0.37578(11)
O9_2 O 0.66359(16) 0.47250(15) 0.47758(10)
O10_2 O 0.88682(17) 0.39014(16) 0.53668(11)
O11_2 O 0.83612(16) 0.65547(15) 0.43873(10)
O12_2 O 0.79801(17) 0.87652(15) 0.40883(10)
C3_2 C 0.5299(3) 0.7875(2) 0.45376(15)
C4_2 C 0.7655(3) 0.3684(2) 0.31311(15)
C5_2 C 0.7763(3) 0.3977(2) 0.53269(15)
C6_2 C 0.8784(3) 0.7771(2) 0.44909(15)
H3_2 H 0.523(3) 0.885(3) 0.4585(17)
H4_2 H 0.742(3) 0.303(2) 0.2637(16)
H5_2 H 0.774(2) 0.347(2) 0.5752(16)
H6_2 H 0.986(3) 0.792(2) 0.4929(14)
O16_2 O 0.55520(17) 0.43932(15) 0.86937(10)
O18_2 O 0.59185(17) 0.50822(15) 0.71897(10)
O20_2 O 0.68267(18) 0.49888(17) 0.64104(10)
O24_2 O 0.48009(18) 0.29115(16) 0.49802(10)
O25_2 O 0.34656(16) 0.58511(15) 0.69664(10)
O28_2 O 0.33641(16) 0.52750(15) 0.52242(10)
C8_2 C 0.6939(3) 0.5167(2) 0.71143(16)
C10_2 C 0.4701(3) 0.2125(2) 0.54624(15)
C11_2 C 0.2237(3) 0.6023(2) 0.46731(15)
H8_2 H 0.790(3) 0.541(2) 0.7648(16)
H10_2 H 0.477(3) 0.115(3) 0.5415(17)
H11_2 H 0.226(2) 0.653(2) 0.4248(16)
C4_3 C 0.7655(3) 0.1316(2) 0.81311(15)
H4_3 H 0.742(3) 0.197(2) 0.7637(16)
C1_2 C 0.4961(3) 0.8291(2) 0.66830(15)
H1_2 H 0.486(2) 0.755(2) 0.6311(14)
C7_2 C 0.5039(3) 0.3291(2) 0.83170(15)
H7_2 H 0.514(2) 0.255(2) 0.8689(14)
C4_4 C 0.2345(3) 0.6316(2) 0.68689(15)
H4_4 H 0.258(3) 0.697(2) 0.7363(16)
loop_
_geom_bond_atom_site_label_1
_geom_bond_atom_site_label_2
_geom_bond_site_symmetry_1
_geom_bond_site_symmetry_2
Fe1 O1 1_555 1_555
Fe3 O4 1_555 1_555
O1 C1 1_555 1_555
O2 C1 1_555 1_555
O5 Fe1 1_555 1_555
O11 Fe1 1_555 1_555
O12 C6 1_555 1_555
C1 H1 1_555 1_555
C3 O5 1_555 1_555
C6 O11 1_555 1_555
H3 C3 1_555 1_555
H6 C6 1_555 1_555
Fe7 O15 1_555 1_555
Fe9 O1 1_555 1_555
Fe12 O15 1_555 1_555
Fe13 O21 1_555 1_555
Fe14_5 O29 1_555 1_555
O15 C7 1_555 1_555
O17 Fe9 1_555 1_555
O19 Fe7 1_555 1_555
O21 C9 1_555 1_555
O26 Fe7 1_555 1_555
O29 C11 1_555 1_555
C7 O17 1_555 1_555
C9 O19 1_555 1_555
H7 C7 1_555 1_555
H9 C9 1_555 1_555
H11 C11 1_555 1_555
Fe14 O11 1_555 1_555
O5 Fe9 1_555 1_555
O12 Fe9 1_555 1_555
Fe9 O19 1_555 1_555
Fe9 O26 1_555 1_555
Fe2 O14 1_555 1_555
O6 Fe3_2 1_555 1_555
O18 Fe2 1_555 1_555
O23 Fe2 1_555 1_555
O25 Fe2 1_555 1_555
O28 Fe3_2 1_555 1_555
O33 Fe2 1_555 1_555
C8 O18 1_555 1_555
H8 C8 1_555 1_555
Fe14_3 O8 1_555 1_555
O8 C4 1_555 1_555
C2 O3 1_555 1_555
C4 O7 1_555 1_555
H2 C2 1_555 1_555
H4 C4 1_555 1_555
O24 Fe3_3 1_555 1_555
Fe3_3 O9 1_555 1_555
O3 Fe12 1_555 1_555
O7 Fe12 1_555 1_555
O10 Fe14_4 1_555 1_555
H5 C5 1_555 1_555
Fe5 O13 1_555 1_555
Fe10 O13 1_555 1_555
O20 Fe3_4 1_555 1_555
O22 Fe5 1_555 1_555
O32 Fe5 1_555 1_555
C10 O22 1_555 1_555
H10 C10 1_555 1_555
O10 C5 1_555 1_555
Fe10 O22 1_555 1_555
Fe14_8 O32 1_555 1_555
O27 Fe14_6 1_555 1_555
Fe10 O34 1_555 1_555
O34 C12 1_555 1_555
C12 O32 1_555 1_555
H12 C12 1_555 1_555
Fe6 O31 1_555 1_555
O27_2 Fe4 1_555 1_555
O30 Fe4 1_555 1_555
O31 Fe4 1_555 1_555
O33 C12_2 1_555 1_555
C12_2 O31 1_555 1_555
H12_2 C12_2 1_555 1_555
Fe4_2 O8_2 1_555 1_555
O5_2 Fe7 1_555 1_555
O6_2 Fe13 1_555 1_555
O8_2 C4_2 1_555 1_555
O9_2 Fe7 1_555 1_555
O10_2 Fe4_2 1_555 1_555
O11_2 Fe7 1_555 1_555
O12_2 C6_2 1_555 1_555
C3_2 O5_2 1_555 1_555
C4_2 O26 1_555 1_555
C5_2 O9_2 1_555 1_555
C6_2 O11_2 1_555 1_555
H3_2 C3_2 1_555 1_555
H4_2 C4_2 1_555 1_555
H5_2 C5_2 1_555 1_555
H6_2 C6_2 1_555 1_555
Fe6 O14 1_555 1_555
O16_2 Fe10 1_555 1_555
O18_2 Fe10 1_555 1_555
O20_2 Fe13 1_555 1_555
O23 Fe6 1_555 1_555
O24_2 Fe13 1_555 1_555
O25_2 Fe10 1_555 1_555
O28_2 Fe13 1_555 1_555
O30 C11_2 1_555 1_555
C8_2 O18_2 1_555 1_555
C10_2 O23 1_555 1_555
C11_2 O28_2 1_555 1_555
H8_2 C8_2 1_555 1_555
H10_2 C10_2 1_555 1_555
H11_2 C11_2 1_555 1_555
Fe13 O9_2 1_555 1_555
Fe4_2 O11_2 1_555 1_555
O5_2 Fe12 1_555 1_555
O6_2 C3_2 1_555 1_555
O10_2 C5_2 1_555 1_555
O12_2 Fe12 1_555 1_555
Fe6 O18_2 1_555 1_555
Fe6 O25_2 1_555 1_555
Fe6 O28_2 1_555 1_555
O20_2 C8_2 1_555 1_555
O24_2 C10_2 1_555 1_555
O27 C4_3 1_555 1_555
C4_3 O25 1_555 1_555
H4_3 C4_3 1_555 1_555
O13 C1_2 1_555 1_555
O16 C1_2 1_555 1_555
C1_2 H1_2 1_555 1_555
O14 C7_2 1_555 1_555
C7_2 O16_2 1_555 1_555
H7_2 C7_2 1_555 1_555
O27_2 C4_4 1_555 1_555
C4_4 O25_2 1_555 1_555
H4_4 C4_4 1_555 1_555

#END
