
###############################################################################
#
# This file contains modified crystal structure data generated from the
# MOF subset of the Cambridge Structural Database (CSD) v543 
# hosted by the Cambridge Crystallographic Data Centre (CCDC).
#
# This work is licensed under the Creative Commons
# Attribution-NonCommercial-ShareAlike 4.0 International License.
# To view a copy of this license, visit
# http://creativecommons.org/licenses/by-nc-sa/4.0/
# or send a letter to
# Creative Commons, PO Box 1866, Mountain View, CA 94042, USA.
#
# CIF created using the CSD Python API on 29 September 2022
# The structure has been converted into the P1 space group
# The structure has a 3D framework
# The original CSD entry RATCUL03 is in the monoclinic crystal system
# The framework has been calculated to contain at least 10.0% void space
# The void calculation uses a probe of radius 1.32A, grid spacing 0.4
#
###############################################################################

data_RATCUL03
_chemical_formula_moiety         '(C24 H24 Fe20 O48)n'
_symmetry_cell_setting           triclinic
_symmetry_space_group_name_H-M   'P 1'
_symmetry_Int_Tables_number      1
_space_group_name_Hall           'P 1'
loop_
_symmetry_equiv_pos_site_id
_symmetry_equiv_pos_as_xyz
1 x,y,z
_cell_length_a                   11.4809(2)
_cell_length_b                   10.0060(2)
_cell_length_c                   18.4189(4)
_cell_angle_alpha                90
_cell_angle_beta                 127.3430(10)
_cell_angle_gamma                90
_cell_volume                     1682.2
loop_
_atom_site_label
_atom_site_type_symbol
_atom_site_fract_x
_atom_site_fract_y
_atom_site_fract_z
Fe14 Fe 0.0000 0.0000 0.0000
Fe14_2 Fe 0.0000 0.0000 1.0000
Fe14_3 Fe -0.0000 1.0000 0.0000
Fe14_4 Fe 0.0000 1.0000 1.0000
Fe1 Fe 0.37755(3) 0.07689(3) 0.132783(18)
Fe3 Fe 0.5000 0.0000 0.0000
O1 O 0.44318(16) 0.19690(14) 0.24769(9)
O2 O 0.55407(19) 0.05922(15) 0.36781(10)
O5 O 0.45525(16) 0.25489(14) 0.10768(9)
O11 O 0.16424(15) 0.15522(15) 0.06170(9)
O12 O 0.20417(17) 0.37388(15) 0.09286(10)
C1 C 0.5045(3) 0.1689(2) 0.33101(14)
C3 C 0.4713(3) 0.2855(2) 0.04762(17)
C6 C 0.1239(3) 0.2759(2) 0.05267(16)
H1 H 0.512(2) 0.240(2) 0.3674(14)
H3 H 0.477(3) 0.382(3) 0.0444(18)
H6 H 0.019(3) 0.293(2) 0.0099(15)
Fe7 Fe 0.62245(3) 0.57689(3) 0.367217(18)
Fe9 Fe 0.42910(3) 0.38723(3) 0.188760(18)
Fe12 Fe 0.57090(3) 0.88723(3) 0.311240(18)
Fe13 Fe 0.5000 0.5000 0.5000
Fe14_5 Fe 1.0000 0.0000 0.0000
O15 O 0.55682(16) 0.69690(14) 0.25231(9)
O17 O 0.44593(19) 0.55922(15) 0.13219(10)
O19 O 0.40949(16) 0.49046(14) 0.28183(9)
O21 O 0.31988(18) 0.49937(18) 0.35960(10)
O26 O 0.65483(16) 0.41511(14) 0.30393(9)
O29 O 0.88622(17) 0.10824(16) 0.03668(11)
C7 C 0.4955(3) 0.6689(2) 0.16899(14)
C9 C 0.3088(3) 0.4818(3) 0.28976(16)
C11 C 0.7770(3) 0.1006(2) 0.03284(16)
H7 H 0.488(2) 0.740(2) 0.1326(14)
H9 H 0.217(3) 0.467(3) 0.2378(19)
H11 H 0.771(3) 0.148(2) 0.0745(17)
Fe2 Fe 0.42910(3) 0.11277(3) 0.688760(18)
Fe3_2 Fe 0.5000 0.0000 1.0000
O6 O 0.4813(2) 0.20830(16) 0.99963(11)
Fe14_6 Fe 1.0000 0.0000 1.0000
O14 O 0.44318(16) 0.30310(14) 0.74769(9)
O18 O 0.40949(16) 0.00954(14) 0.78183(9)
O20 O 0.31988(18) 0.00063(18) 0.85960(10)
O23 O 0.45525(16) 0.24511(14) 0.60768(9)
O25 O 0.65483(16) 0.08489(14) 0.80393(9)
O28 O 0.66452(16) 0.02714(15) 0.97831(9)
O33 O 0.20417(17) 0.12612(15) 0.59286(10)
C8 C 0.3088(3) 0.0182(3) 0.78976(16)
H8 H 0.217(3) 0.033(3) 0.7378(19)
Fe3_3 Fe 0.5000 1.0000 0.0000
O3 O 0.59051(16) 0.99046(14) 0.21817(9)
O4 O 0.68012(18) 0.99937(18) 0.14040(10)
O7 O 0.34517(16) 0.91511(14) 0.19607(9)
O8 O 0.10534(17) 0.89412(17) 0.12338(11)
O9 O 0.33548(16) 0.97286(15) 0.02169(9)
C2 C 0.6912(3) 0.9818(3) 0.21024(16)
C4 C 0.2333(3) 0.8686(3) 0.18537(16)
H2 H 0.783(3) 0.967(3) 0.2622(19)
H4 H 0.254(3) 0.801(2) 0.2319(16)
Fe14_7 Fe 1.0000 1.0000 0.0000
O24 O 0.5187(2) 0.79170(16) 0.00037(11)
Fe3_4 Fe 0.5000 1.0000 1.0000
O10 O 0.11378(17) 0.89176(16) 0.96332(11)
C5 C 0.2230(3) 0.8994(2) 0.96716(16)
H5 H 0.229(3) 0.852(2) 0.9255(17)
Fe5 Fe 0.62245(3) 0.92311(3) 0.867217(18)
Fe10 Fe 0.57090(3) 0.61277(3) 0.811240(18)
Fe14_8 Fe 1.0000 1.0000 1.0000
O13 O 0.55682(16) 0.80310(14) 0.75231(9)
O16 O 0.44593(19) 0.94078(15) 0.63219(10)
O22 O 0.54475(16) 0.74511(14) 0.89232(9)
O32 O 0.83576(15) 0.84478(15) 0.93830(9)
C10 C 0.5287(3) 0.7145(2) 0.95238(17)
H10 H 0.523(3) 0.618(3) 0.9556(18)
O27 O 0.89466(17) 0.10588(17) 0.87662(11)
O34 O 0.79583(17) 0.62612(15) 0.90714(10)
C12 C 0.8761(3) 0.7241(2) 0.94733(16)
H12 H 0.981(3) 0.707(2) 0.9901(15)
Fe4 Fe 0.0000 0.5000 0.5000
Fe6 Fe 0.37755(3) 0.42311(3) 0.632783(18)
O27_2 O 0.10534(17) 0.60588(17) 0.62338(11)
O30 O 0.11378(17) 0.60824(16) 0.46332(11)
O31 O 0.16424(15) 0.34478(15) 0.56170(9)
C12_2 C 0.1239(3) 0.2241(2) 0.55267(16)
H12_2 H 0.019(3) 0.207(2) 0.5099(15)
Fe4_2 Fe 1.0000 0.5000 0.5000
O5_2 O 0.54475(16) 0.75489(14) 0.39232(9)
O6_2 O 0.5187(2) 0.70830(16) 0.50037(11)
O8_2 O 0.89466(17) 0.39412(17) 0.37662(11)
O9_2 O 0.66452(16) 0.47286(15) 0.47831(9)
O10_2 O 0.88622(17) 0.39176(16) 0.53668(11)
O11_2 O 0.83576(15) 0.65522(15) 0.43830(9)
O12_2 O 0.79583(17) 0.87388(15) 0.40714(10)
C3_2 C 0.5287(3) 0.7855(2) 0.45238(17)
C4_2 C 0.7667(3) 0.3686(3) 0.31463(16)
C5_2 C 0.7770(3) 0.3994(2) 0.53284(16)
C6_2 C 0.8761(3) 0.7759(2) 0.44733(16)
H3_2 H 0.523(3) 0.882(3) 0.4556(18)
H4_2 H 0.746(3) 0.301(2) 0.2681(16)
H5_2 H 0.771(3) 0.352(2) 0.5745(17)
H6_2 H 0.981(3) 0.793(2) 0.4901(15)
O16_2 O 0.55407(19) 0.44078(15) 0.86781(10)
O18_2 O 0.59051(16) 0.50954(14) 0.71817(9)
O20_2 O 0.68012(18) 0.50063(18) 0.64040(10)
O24_2 O 0.4813(2) 0.29170(16) 0.49963(11)
O25_2 O 0.34517(16) 0.58489(14) 0.69607(9)
O28_2 O 0.33548(16) 0.52714(15) 0.52169(9)
C8_2 C 0.6912(3) 0.5182(3) 0.71024(16)
C10_2 C 0.4713(3) 0.2145(2) 0.54762(17)
C11_2 C 0.2230(3) 0.6006(2) 0.46716(16)
H8_2 H 0.783(3) 0.533(3) 0.7622(19)
H10_2 H 0.477(3) 0.118(3) 0.5444(18)
H11_2 H 0.229(3) 0.648(2) 0.4255(17)
C4_3 C 0.7667(3) 0.1314(3) 0.81463(16)
H4_3 H 0.746(3) 0.199(2) 0.7681(16)
C1_2 C 0.4955(3) 0.8311(2) 0.66899(14)
H1_2 H 0.488(2) 0.760(2) 0.6326(14)
C7_2 C 0.5045(3) 0.3311(2) 0.83101(14)
H7_2 H 0.512(2) 0.260(2) 0.8674(14)
C4_4 C 0.2333(3) 0.6314(3) 0.68537(16)
H4_4 H 0.254(3) 0.699(2) 0.7319(16)
loop_
_geom_bond_atom_site_label_1
_geom_bond_atom_site_label_2
_geom_bond_site_symmetry_1
_geom_bond_site_symmetry_2
Fe1 O1 1_555 1_555
O1 C1 1_555 1_555
O2 C1 1_555 1_555
O5 Fe1 1_555 1_555
O11 Fe1 1_555 1_555
O12 C6 1_555 1_555
C1 H1 1_555 1_555
C3 O5 1_555 1_555
C6 O11 1_555 1_555
H3 C3 1_555 1_555
H6 C6 1_555 1_555
Fe7 O15 1_555 1_555
Fe9 O1 1_555 1_555
Fe12 O15 1_555 1_555
Fe13 O21 1_555 1_555
Fe14_5 O29 1_555 1_555
O15 C7 1_555 1_555
O17 Fe9 1_555 1_555
O19 Fe7 1_555 1_555
O21 C9 1_555 1_555
O26 Fe7 1_555 1_555
O29 C11 1_555 1_555
C7 O17 1_555 1_555
C9 O19 1_555 1_555
H7 C7 1_555 1_555
H9 C9 1_555 1_555
H11 C11 1_555 1_555
Fe14 O11 1_555 1_555
O5 Fe9 1_555 1_555
O12 Fe9 1_555 1_555
Fe9 O19 1_555 1_555
Fe9 O26 1_555 1_555
Fe2 O14 1_555 1_555
O6 Fe3_2 1_555 1_555
O18 Fe2 1_555 1_555
O20 Fe3_2 1_555 1_555
O23 Fe2 1_555 1_555
O25 Fe2 1_555 1_555
O28 Fe3_2 1_555 1_555
O33 Fe2 1_555 1_555
C8 O18 1_555 1_555
H8 C8 1_555 1_555
O20 C8 1_555 1_555
Fe3_3 O4 1_555 1_555
Fe14_3 O8 1_555 1_555
O4 C2 1_555 1_555
O8 C4 1_555 1_555
C2 O3 1_555 1_555
C4 O7 1_555 1_555
H2 C2 1_555 1_555
H4 C4 1_555 1_555
O24 Fe3_3 1_555 1_555
Fe3_3 O9 1_555 1_555
O3 Fe12 1_555 1_555
O7 Fe12 1_555 1_555
O10 Fe14_4 1_555 1_555
H5 C5 1_555 1_555
Fe5 O13 1_555 1_555
Fe10 O13 1_555 1_555
O22 Fe5 1_555 1_555
O32 Fe5 1_555 1_555
C10 O22 1_555 1_555
H10 C10 1_555 1_555
O10 C5 1_555 1_555
Fe10 O22 1_555 1_555
Fe14_8 O32 1_555 1_555
O27 Fe14_6 1_555 1_555
Fe10 O34 1_555 1_555
O34 C12 1_555 1_555
C12 O32 1_555 1_555
H12 C12 1_555 1_555
Fe6 O31 1_555 1_555
O27_2 Fe4 1_555 1_555
O30 Fe4 1_555 1_555
O31 Fe4 1_555 1_555
O33 C12_2 1_555 1_555
C12_2 O31 1_555 1_555
H12_2 C12_2 1_555 1_555
Fe4_2 O8_2 1_555 1_555
O5_2 Fe7 1_555 1_555
O6_2 Fe13 1_555 1_555
O8_2 C4_2 1_555 1_555
O9_2 Fe7 1_555 1_555
O10_2 Fe4_2 1_555 1_555
O11_2 Fe7 1_555 1_555
O12_2 C6_2 1_555 1_555
C3_2 O5_2 1_555 1_555
C4_2 O26 1_555 1_555
C5_2 O9_2 1_555 1_555
C6_2 O11_2 1_555 1_555
H3_2 C3_2 1_555 1_555
H4_2 C4_2 1_555 1_555
H5_2 C5_2 1_555 1_555
H6_2 C6_2 1_555 1_555
Fe6 O14 1_555 1_555
O16_2 Fe10 1_555 1_555
O18_2 Fe10 1_555 1_555
O20_2 Fe13 1_555 1_555
O23 Fe6 1_555 1_555
O24_2 Fe13 1_555 1_555
O25_2 Fe10 1_555 1_555
O28_2 Fe13 1_555 1_555
O30 C11_2 1_555 1_555
C8_2 O18_2 1_555 1_555
C10_2 O23 1_555 1_555
C11_2 O28_2 1_555 1_555
H8_2 C8_2 1_555 1_555
H10_2 C10_2 1_555 1_555
H11_2 C11_2 1_555 1_555
Fe13 O9_2 1_555 1_555
Fe4_2 O11_2 1_555 1_555
O5_2 Fe12 1_555 1_555
O6_2 C3_2 1_555 1_555
O10_2 C5_2 1_555 1_555
O12_2 Fe12 1_555 1_555
Fe6 O18_2 1_555 1_555
Fe6 O25_2 1_555 1_555
Fe6 O28_2 1_555 1_555
O20_2 C8_2 1_555 1_555
O24_2 C10_2 1_555 1_555
O27 C4_3 1_555 1_555
C4_3 O25 1_555 1_555
H4_3 C4_3 1_555 1_555
O13 C1_2 1_555 1_555
O16 C1_2 1_555 1_555
C1_2 H1_2 1_555 1_555
O14 C7_2 1_555 1_555
C7_2 O16_2 1_555 1_555
H7_2 C7_2 1_555 1_555
O27_2 C4_4 1_555 1_555
C4_4 O25_2 1_555 1_555
H4_4 C4_4 1_555 1_555

#END
