
###############################################################################
#
# This file contains modified crystal structure data generated from the
# MOF subset of the Cambridge Structural Database (CSD) v543 
# hosted by the Cambridge Crystallographic Data Centre (CCDC).
#
# This work is licensed under the Creative Commons
# Attribution-NonCommercial-ShareAlike 4.0 International License.
# To view a copy of this license, visit
# http://creativecommons.org/licenses/by-nc-sa/4.0/
# or send a letter to
# Creative Commons, PO Box 1866, Mountain View, CA 94042, USA.
#
# CIF created using the CSD Python API on 29 September 2022
# The structure has been converted into the P1 space group
# The structure has a 3D framework
# The original CSD entry RATDAS02 is in the monoclinic crystal system
# The framework has been calculated to contain at least 10.0% void space
# The void calculation uses a probe of radius 1.32A, grid spacing 0.4
#
###############################################################################

data_RATDAS02
_chemical_formula_moiety         '(C24 H24 O48 Zn21)n'
_symmetry_cell_setting           triclinic
_symmetry_space_group_name_H-M   'P 1'
_symmetry_Int_Tables_number      1
_space_group_name_Hall           'P 1'
loop_
_symmetry_equiv_pos_site_id
_symmetry_equiv_pos_as_xyz
1 x,y,z
_cell_length_a                   11.3376(2)
_cell_length_b                   9.8429(2)
_cell_length_c                   18.1765(4)
_cell_angle_alpha                90
_cell_angle_beta                 127.2660(10)
_cell_angle_gamma                90
_cell_volume                     1614.27
loop_
_atom_site_label
_atom_site_type_symbol
_atom_site_fract_x
_atom_site_fract_y
_atom_site_fract_z
Zn13 Zn 0.0000 0.0000 0.0000
Zn13_2 Zn -0.0000 0.0000 1.0000
Zn13_3 Zn 0.0000 1.0000 0.0000
Zn14 Zn -0.0000 0.5000 0.5000
Zn13_4 Zn -0.0000 1.0000 1.0000
Zn1 Zn 0.37519(3) 0.07700(2) 0.131810(17)
Zn3 Zn 0.5000 0.0000 0.0000
O1 O 0.43843(16) 0.19855(14) 0.24576(10)
O2 O 0.55186(17) 0.05916(15) 0.36874(10)
O4 O 0.68043(17) 0.00406(15) 0.14001(11)
O5 O 0.45684(16) 0.25451(14) 0.10986(10)
O11 O 0.16340(16) 0.15453(14) 0.06099(10)
O12 O 0.20366(17) 0.37796(15) 0.09148(11)
C1 C 0.5007(2) 0.1713(2) 0.33026(16)
H1 H 0.5091 0.2437 0.3678
C3 C 0.4691(3) 0.2875(2) 0.04684(16)
H3 H 0.4707 0.3819 0.0367
C6 C 0.1226(3) 0.2783(2) 0.05189(16)
H6 H 0.0191 0.2954 0.0103
Zn9 Zn 0.42834(3) 0.39023(2) 0.187426(17)
Zn13_5 Zn 1.0000 0.0000 0.0000
O28 O 0.88459(17) 0.11406(15) 0.03391(11)
C11 C 0.7738(3) 0.1049(2) 0.03086(16)
H11 H 0.7706 0.1606 0.0723
Zn3_2 Zn 0.5000 0.0000 1.0000
O6 O 0.47888(18) 0.20916(16) 0.99769(11)
Zn8 Zn 0.42834(3) 0.10977(2) 0.687426(17)
Zn13_6 Zn 1.0000 0.0000 1.0000
O15 O 0.43843(16) 0.30145(14) 0.74576(10)
O18 O 0.41114(16) 0.00814(14) 0.78069(10)
O22 O 0.45684(16) 0.24549(14) 0.60986(10)
O25 O 0.65588(16) 0.08394(14) 0.80493(10)
O27 O 0.66150(16) 0.02694(15) 0.97695(10)
O34 O 0.20366(17) 0.12204(15) 0.59148(11)
C8 C 0.3079(3) 0.0149(2) 0.78853(16)
H8 H 0.2120 0.0368 0.7343
Zn2 Zn 0.57166(3) 0.89023(2) 0.312574(17)
Zn3_3 Zn 0.5000 1.0000 0.0000
O3 O 0.58886(16) 0.99186(14) 0.21931(10)
O7 O 0.34412(16) 0.91606(14) 0.19507(10)
O8 O 0.10008(17) 0.89534(16) 0.12320(11)
O9 O 0.33850(16) 0.97306(15) 0.02305(10)
C2 C 0.6921(3) 0.9851(2) 0.21147(16)
H2 H 0.7880 0.9632 0.2657
C4 C 0.2313(2) 0.8699(2) 0.18595(16)
H4 H 0.2500 0.8092 0.2326
Zn6 Zn 0.62481(3) 0.57700(2) 0.368190(17)
Zn13_7 Zn 1.0000 1.0000 0.0000
Zn14_2 Zn 1.0000 0.5000 0.5000
O13 O 0.56157(16) 0.69855(14) 0.25424(10)
O16 O 0.44814(17) 0.55916(15) 0.13126(10)
O21 O 0.54316(16) 0.75451(14) 0.39014(10)
O23 O 0.52112(18) 0.79084(16) 0.00231(11)
O30 O 0.83660(16) 0.65453(14) 0.43901(10)
O33 O 0.79634(17) 0.87796(15) 0.40852(11)
C7 C 0.4993(2) 0.6713(2) 0.16974(16)
H7 H 0.4909 0.7437 0.1322
C12 C 0.8774(3) 0.7783(2) 0.44811(16)
H12 H 0.9809 0.7954 0.4897
Zn3_4 Zn 0.5000 1.0000 1.0000
O10 O 0.11541(17) 0.88594(15) 0.96609(11)
C5 C 0.2262(3) 0.8951(2) 0.96914(16)
H5 H 0.2294 0.8394 0.9277
Zn5 Zn 0.62481(3) 0.92300(2) 0.868190(17)
Zn10 Zn 0.57166(3) 0.60977(2) 0.812574(17)
Zn13_8 Zn 1.0000 1.0000 1.0000
O14 O 0.56157(16) 0.80145(14) 0.75424(10)
O17 O 0.44814(17) 0.94084(15) 0.63126(10)
O19 O 0.31957(17) 0.99594(15) 0.85999(11)
O20 O 0.54316(16) 0.74549(14) 0.89014(10)
O32 O 0.83660(16) 0.84547(14) 0.93901(10)
C9 C 0.5309(3) 0.7125(2) 0.95316(16)
H9 H 0.5293 0.6181 0.9633
O26 O 0.89992(17) 0.10466(16) 0.87680(11)
C10 C 0.7687(2) 0.1301(2) 0.81405(16)
H10 H 0.7500 0.1908 0.7674
Zn7 Zn 0.37519(3) 0.42300(2) 0.631810(17)
O24 O 0.34412(16) 0.58394(14) 0.69507(10)
O26_2 O 0.10008(17) 0.60466(16) 0.62320(11)
O29 O 0.11541(17) 0.61406(15) 0.46609(11)
O31 O 0.16340(16) 0.34547(14) 0.56099(10)
C10_2 C 0.2313(2) 0.6301(2) 0.68595(16)
H10_2 H 0.2500 0.6908 0.7326
Zn3_5 Zn 0.5000 0.5000 0.5000
O3_2 O 0.41114(16) 0.49186(14) 0.28069(10)
O4_2 O 0.31957(17) 0.50406(15) 0.35999(11)
O6_2 O 0.52112(18) 0.70916(16) 0.50231(11)
O7_2 O 0.65588(16) 0.41606(14) 0.30493(10)
O8_2 O 0.89992(17) 0.39534(16) 0.37680(11)
O9_2 O 0.66150(16) 0.47306(15) 0.47695(10)
O10_2 O 0.88459(17) 0.38594(15) 0.53391(11)
C2_2 C 0.3079(3) 0.4851(2) 0.28853(16)
H2_2 H 0.2120 0.4632 0.2343
C3_2 C 0.5309(3) 0.7875(2) 0.45316(16)
H3_2 H 0.5293 0.8819 0.4633
C4_2 C 0.7687(2) 0.3699(2) 0.31405(16)
H4_2 H 0.7500 0.3092 0.2674
C5_2 C 0.7738(3) 0.3951(2) 0.53086(16)
H5_2 H 0.7706 0.3394 0.5723
O17_2 O 0.55186(17) 0.44084(15) 0.86874(10)
O18_2 O 0.58886(16) 0.50814(14) 0.71931(10)
O19_2 O 0.68043(17) 0.49594(15) 0.64001(11)
O23_2 O 0.47888(18) 0.29084(16) 0.49769(11)
O27_2 O 0.33850(16) 0.52694(15) 0.52305(10)
O34_2 O 0.79634(17) 0.62204(15) 0.90852(11)
C8_2 C 0.6921(3) 0.5149(2) 0.71147(16)
H8_2 H 0.7880 0.5368 0.7657
C9_2 C 0.4691(3) 0.2125(2) 0.54684(16)
H9_2 H 0.4707 0.1181 0.5367
C11_2 C 0.2262(3) 0.6049(2) 0.46914(16)
H11_2 H 0.2294 0.6606 0.4277
C7_2 C 0.5007(2) 0.3287(2) 0.83026(16)
H7_2 H 0.5091 0.2563 0.8678
C12_2 C 0.1226(3) 0.2217(2) 0.55189(16)
H12_2 H 0.0191 0.2046 0.5103
C1_2 C 0.4993(2) 0.8287(2) 0.66974(16)
H1_2 H 0.4909 0.7563 0.6322
C6_2 C 0.8774(3) 0.7217(2) 0.94811(16)
H6_2 H 0.9809 0.7046 0.9897
loop_
_geom_bond_atom_site_label_1
_geom_bond_atom_site_label_2
_geom_bond_site_symmetry_1
_geom_bond_site_symmetry_2
Zn1 O1 1_555 1_555
Zn3 O4 1_555 1_555
O1 C1 1_555 1_555
O2 C1 1_555 1_555
O5 Zn1 1_555 1_555
O11 Zn1 1_555 1_555
O12 C6 1_555 1_555
C1 H1 1_555 1_555
C3 O5 1_555 1_555
H3 C3 1_555 1_555
C6 O11 1_555 1_555
H6 C6 1_555 1_555
Zn9 O1 1_555 1_555
Zn13_5 O28 1_555 1_555
O28 C11 1_555 1_555
H11 C11 1_555 1_555
Zn13 O11 1_555 1_555
O5 Zn9 1_555 1_555
O12 Zn9 1_555 1_555
O6 Zn3_2 1_555 1_555
Zn8 O15 1_555 1_555
O22 Zn8 1_555 1_555
O27 Zn3_2 1_555 1_555
O34 Zn8 1_555 1_555
C8 O18 1_555 1_555
H8 C8 1_555 1_555
Zn8 O18 1_555 1_555
Zn8 O25 1_555 1_555
Zn13_3 O8 1_555 1_555
O8 C4 1_555 1_555
C2 O3 1_555 1_555
H2 C2 1_555 1_555
C4 O7 1_555 1_555
H4 C4 1_555 1_555
Zn6 O13 1_555 1_555
Zn9 O16 1_555 1_555
Zn14_2 O30 1_555 1_555
O13 Zn2 1_555 1_555
O16 C7 1_555 1_555
O21 Zn2 1_555 1_555
O23 Zn3_3 1_555 1_555
O30 Zn6 1_555 1_555
O33 Zn2 1_555 1_555
C7 O13 1_555 1_555
H7 C7 1_555 1_555
C12 O30 1_555 1_555
H12 C12 1_555 1_555
Zn2 O3 1_555 1_555
Zn2 O7 1_555 1_555
Zn3_3 O9 1_555 1_555
Zn6 O21 1_555 1_555
O33 C12 1_555 1_555
O10 Zn13_4 1_555 1_555
H5 C5 1_555 1_555
Zn5 O14 1_555 1_555
Zn10 O14 1_555 1_555
O19 Zn3_4 1_555 1_555
O20 Zn5 1_555 1_555
O32 Zn5 1_555 1_555
C9 O20 1_555 1_555
H9 C9 1_555 1_555
O10 C5 1_555 1_555
Zn10 O20 1_555 1_555
Zn13_8 O32 1_555 1_555
O25 C10 1_555 1_555
O26 Zn13_6 1_555 1_555
C10 O26 1_555 1_555
H10 C10 1_555 1_555
Zn7 O24 1_555 1_555
Zn10 O24 1_555 1_555
O24 C10_2 1_555 1_555
O26_2 Zn14 1_555 1_555
O29 Zn14 1_555 1_555
O31 Zn14 1_555 1_555
C10_2 O26_2 1_555 1_555
H10_2 C10_2 1_555 1_555
Zn7 O31 1_555 1_555
Zn3_5 O4_2 1_555 1_555
Zn14_2 O8_2 1_555 1_555
O3_2 Zn6 1_555 1_555
O4_2 C2_2 1_555 1_555
O6_2 Zn3_5 1_555 1_555
O7_2 Zn6 1_555 1_555
O8_2 C4_2 1_555 1_555
O9_2 Zn6 1_555 1_555
O10_2 Zn14_2 1_555 1_555
C2_2 O3_2 1_555 1_555
H2_2 C2_2 1_555 1_555
C3_2 O21 1_555 1_555
H3_2 C3_2 1_555 1_555
C4_2 O7_2 1_555 1_555
H4_2 C4_2 1_555 1_555
C5_2 O9_2 1_555 1_555
H5_2 C5_2 1_555 1_555
Zn7 O15 1_555 1_555
O17_2 Zn10 1_555 1_555
O18_2 Zn7 1_555 1_555
O19_2 Zn3_5 1_555 1_555
O22 Zn7 1_555 1_555
O23_2 Zn3_5 1_555 1_555
O27_2 Zn3_5 1_555 1_555
O29 C11_2 1_555 1_555
O34_2 Zn10 1_555 1_555
C8_2 O18_2 1_555 1_555
H8_2 C8_2 1_555 1_555
C9_2 O22 1_555 1_555
H9_2 C9_2 1_555 1_555
C11_2 O27_2 1_555 1_555
H11_2 C11_2 1_555 1_555
Zn9 O3_2 1_555 1_555
Zn9 O7_2 1_555 1_555
Zn3_5 O9_2 1_555 1_555
O6_2 C3_2 1_555 1_555
O10_2 C5_2 1_555 1_555
Zn7 O27_2 1_555 1_555
Zn10 O18_2 1_555 1_555
O19_2 C8_2 1_555 1_555
O23_2 C9_2 1_555 1_555
O17_2 C7_2 1_555 1_555
C7_2 O15 1_555 1_555
H7_2 C7_2 1_555 1_555
C12_2 O31 1_555 1_555
H12_2 C12_2 1_555 1_555
O34 C12_2 1_555 1_555
O14 C1_2 1_555 1_555
O17 C1_2 1_555 1_555
O34_2 C6_2 1_555 1_555
C1_2 H1_2 1_555 1_555
C6_2 O32 1_555 1_555
H6_2 C6_2 1_555 1_555

#END
