
###############################################################################
#
# This file contains modified crystal structure data generated from the
# MOF subset of the Cambridge Structural Database (CSD) v543 
# hosted by the Cambridge Crystallographic Data Centre (CCDC).
#
# This work is licensed under the Creative Commons
# Attribution-NonCommercial-ShareAlike 4.0 International License.
# To view a copy of this license, visit
# http://creativecommons.org/licenses/by-nc-sa/4.0/
# or send a letter to
# Creative Commons, PO Box 1866, Mountain View, CA 94042, USA.
#
# CIF created using the CSD Python API on 29 September 2022
# The structure has been converted into the P1 space group
# The structure has a 3D framework
# The original CSD entry RATVEP is in the orthorhombic crystal system
# The framework has been calculated to contain at least 10.0% void space
# The void calculation uses a probe of radius 1.32A, grid spacing 0.4
#
###############################################################################

data_RATVEP
_chemical_formula_moiety         '(C40 H28 Mg4 N12 O20)n'
_symmetry_cell_setting           triclinic
_symmetry_space_group_name_H-M   'P 1'
_symmetry_Int_Tables_number      1
_space_group_name_Hall           'P 1'
loop_
_symmetry_equiv_pos_site_id
_symmetry_equiv_pos_as_xyz
1 x,y,z
_cell_length_a                   7.7639(10)
_cell_length_b                   10.1765(14)
_cell_length_c                   15.949(2)
_cell_angle_alpha                90
_cell_angle_beta                 90
_cell_angle_gamma                90
_cell_volume                     1260.12
loop_
_atom_site_label
_atom_site_type_symbol
_atom_site_fract_x
_atom_site_fract_y
_atom_site_fract_z
O4 O 0.2989(3) 0.1092(2) 0.26174(18)
H1 H 0.4027 0.1256 0.2751
H2 H 0.2382 0.1751 0.2760
N4 N 0.1094(4) 0.0742(3) 0.08983(19)
C5 C 0.1070(5) 0.2043(4) 0.0832(2)
H4 H 0.1496 0.2540 0.1275
C6 C 0.0499(5) 0.0056(4) 0.0236(2)
C7 C 0.0438(5) 0.2694(4) 0.0132(2)
H6 H 0.0463 0.3607 0.0109
Mg1 Mg 0.13974(13) 0.97018(10) 0.21074(7)
O1 O 0.3394(3) 0.8615(2) 0.16324(16)
O2 O 0.4719(3) 0.6682(2) 0.16083(15)
O3 O 0.4388(3) 0.4266(2) 0.25668(17)
N2 N 0.1819(3) 0.8017(3) 0.31170(18)
N3 N 0.1312(3) 0.6076(3) 0.36857(17)
H3 H 0.0896 0.5488 0.4016
C1 C 0.1066(4) 0.7390(3) 0.3750(2)
C2 C 0.2340(4) 0.5848(3) 0.3003(2)
C3 C 0.2645(4) 0.7073(3) 0.2657(2)
C4 C 0.0225(4) 0.8014(3) 0.4472(2)
C8 C 0.2858(4) 0.4470(3) 0.2778(2)
O5 O 0.1709(3) 0.3617(2) 0.2838(2)
C9 C 0.0172(5) 0.9372(3) 0.4524(2)
H7 H 0.0582 0.9889 0.4086
C10 C 0.3670(4) 0.7473(3) 0.19080(19)
Mg3 Mg 0.63974(13) 0.52982(10) 0.21074(7)
H5 H 0.9456 0.0856 0.5260
Mg2 Mg 0.86026(13) 0.02982(10) 0.71074(7)
O7 O 0.9388(3) 0.0734(2) 0.25668(17)
N1 N 0.8906(4) 0.9258(3) 0.58983(19)
C5_2 C 0.8930(5) 0.7957(4) 0.5832(2)
H4_2 H 0.8504 0.7460 0.6275
C6_2 C 0.9501(5) 0.9944(4) 0.5236(2)
C7_2 C 0.9562(5) 0.7306(4) 0.5132(2)
H6_2 H 0.9537 0.6393 0.5109
O6 O 0.9719(3) 0.8318(2) 0.16083(15)
O6_2 O 0.0281(3) 0.1682(2) 0.66083(15)
H5_2 H 0.0544 0.9144 0.0260
O1_2 O 0.6606(3) 0.1385(2) 0.66324(16)
O2_2 O 0.5281(3) 0.3318(2) 0.66083(15)
O3_2 O 0.5612(3) 0.5734(2) 0.75668(17)
N2_2 N 0.8181(3) 0.1983(3) 0.81170(18)
N3_2 N 0.8688(3) 0.3924(3) 0.86857(17)
H3_2 H 0.9104 0.4512 0.9016
C1_2 C 0.8934(4) 0.2610(3) 0.8750(2)
C2_2 C 0.7660(4) 0.4152(3) 0.8003(2)
C3_2 C 0.7355(4) 0.2927(3) 0.7657(2)
C4_2 C 0.9775(4) 0.1986(3) 0.9472(2)
C8_2 C 0.7142(4) 0.5530(3) 0.7778(2)
O5_2 O 0.8291(3) 0.6383(2) 0.7838(2)
C9_2 C 0.9828(5) 0.0628(3) 0.9524(2)
H7_2 H 0.9418 0.0111 0.9086
C10_2 C 0.6330(4) 0.2527(3) 0.69080(19)
Mg3_2 Mg 0.36026(13) 0.47018(10) 0.71074(7)
O4_2 O 0.7011(3) 0.8908(2) 0.76174(18)
H1_2 H 0.5973 0.8744 0.7751
H2_2 H 0.7618 0.8249 0.7760
C8_3 C 0.7858(4) 0.0530(3) 0.2778(2)
O5_3 O 0.6709(3) 0.1383(2) 0.2838(2)
O1_3 O 0.8394(3) 0.6385(2) 0.16324(16)
O4_3 O 0.7989(3) 0.3908(2) 0.26174(18)
H1_3 H 0.9027 0.3744 0.2751
H2_3 H 0.7382 0.3249 0.2760
N1_2 N 0.3906(4) 0.5742(3) 0.58983(19)
N2_3 N 0.6819(3) 0.6983(3) 0.31170(18)
N3_3 N 0.6312(3) 0.8924(3) 0.36857(17)
H3_3 H 0.5896 0.9512 0.4016
C1_3 C 0.6066(4) 0.7610(3) 0.3750(2)
C2_3 C 0.7340(4) 0.9152(3) 0.3003(2)
C3_3 C 0.7645(4) 0.7927(3) 0.2657(2)
C4_3 C 0.5225(4) 0.6986(3) 0.4472(2)
C5_3 C 0.3930(5) 0.7043(4) 0.5832(2)
H4_3 H 0.3504 0.7540 0.6275
C6_3 C 0.4501(5) 0.5056(4) 0.5236(2)
H5_3 H 0.4456 0.4144 0.5260
C7_3 C 0.4562(5) 0.7694(4) 0.5132(2)
H6_3 H 0.4537 0.8607 0.5109
C9_3 C 0.5172(5) 0.5628(3) 0.4524(2)
H7_3 H 0.5582 0.5111 0.4086
C10_3 C 0.8670(4) 0.7527(3) 0.19080(19)
N4_2 N 0.6094(4) 0.4258(3) 0.08983(19)
C5_4 C 0.6070(5) 0.2957(4) 0.0832(2)
H4_4 H 0.6496 0.2460 0.1275
C6_4 C 0.5499(5) 0.4944(4) 0.0236(2)
H5_4 H 0.5544 0.5856 0.0260
C7_4 C 0.5438(5) 0.2306(4) 0.0132(2)
H6_4 H 0.5463 0.1393 0.0109
O1_4 O 0.1606(3) 0.3615(2) 0.66324(16)
O4_4 O 0.2011(3) 0.6092(2) 0.76174(18)
H1_4 H 0.0973 0.6256 0.7751
H2_4 H 0.2618 0.6751 0.7760
N2_4 N 0.3181(3) 0.3017(3) 0.81170(18)
N3_4 N 0.3688(3) 0.1076(3) 0.86857(17)
H3_4 H 0.4104 0.0488 0.9016
C1_4 C 0.3934(4) 0.2390(3) 0.8750(2)
C2_4 C 0.2660(4) 0.0848(3) 0.8003(2)
C3_4 C 0.2355(4) 0.2073(3) 0.7657(2)
C4_4 C 0.4775(4) 0.3014(3) 0.9472(2)
C9_4 C 0.4828(5) 0.4372(3) 0.9524(2)
H7_4 H 0.4418 0.4889 0.9086
C10_4 C 0.1330(4) 0.2473(3) 0.69080(19)
O7_2 O 0.0612(3) 0.9266(2) 0.75668(17)
C8_4 C 0.2142(4) 0.9470(3) 0.7778(2)
O5_4 O 0.3291(3) 0.8617(2) 0.7838(2)
loop_
_geom_bond_atom_site_label_1
_geom_bond_atom_site_label_2
_geom_bond_site_symmetry_1
_geom_bond_site_symmetry_2
H1 O4 1_555 1_555
H2 O4 1_555 1_555
N4 C5 1_555 1_555
C5 H4 1_555 1_555
C6 N4 1_555 1_555
H6 C7 1_555 1_555
C5 C7 1_555 1_555
Mg1 O1 1_555 1_555
O1 C10 1_555 1_555
O2 C10 1_555 1_555
O3 C8 1_555 1_555
N2 Mg1 1_555 1_555
N3 H3 1_555 1_555
C1 N2 1_555 1_555
C2 N3 1_555 1_555
C3 N2 1_555 1_555
C4 C1 1_555 1_555
C8 C2 1_555 1_555
O5 C8 1_555 1_555
C9 C4 1_555 1_555
H7 C9 1_555 1_555
C10 C3 1_555 1_555
Mg3 O2 1_555 1_555
O3 Mg3 1_555 1_555
N3 C1 1_555 1_555
C2 C3 1_555 1_555
N1 C5_2 1_555 1_555
C5_2 H4_2 1_555 1_555
C6_2 N1 1_555 1_555
H6_2 C7_2 1_555 1_555
C5_2 C7_2 1_555 1_555
Mg2 O1_2 1_555 1_555
O1_2 C10_2 1_555 1_555
O2_2 C10_2 1_555 1_555
O3_2 C8_2 1_555 1_555
N2_2 Mg2 1_555 1_555
N3_2 H3_2 1_555 1_555
C1_2 N2_2 1_555 1_555
C2_2 N3_2 1_555 1_555
C3_2 N2_2 1_555 1_555
C4_2 C1_2 1_555 1_555
C8_2 C2_2 1_555 1_555
O5_2 C8_2 1_555 1_555
C9_2 C4_2 1_555 1_555
H7_2 C9_2 1_555 1_555
C10_2 C3_2 1_555 1_555
Mg3_2 O2_2 1_555 1_555
O3_2 Mg3_2 1_555 1_555
N3_2 C1_2 1_555 1_555
C2_2 C3_2 1_555 1_555
H1_2 O4_2 1_555 1_555
H2_2 O4_2 1_555 1_555
O7 C8_3 1_555 1_555
O5_3 C8_3 1_555 1_555
Mg3 O1_3 1_555 1_555
O1_3 C10_3 1_555 1_555
O6 C10_3 1_555 1_555
O4_3 Mg3 1_555 1_555
H1_3 O4_3 1_555 1_555
H2_3 O4_3 1_555 1_555
N1_2 C5_3 1_555 1_555
N2_3 Mg3 1_555 1_555
N3_3 H3_3 1_555 1_555
C1_3 N2_3 1_555 1_555
C2_3 N3_3 1_555 1_555
C3_3 N2_3 1_555 1_555
C4_3 C1_3 1_555 1_555
C5_3 H4_3 1_555 1_555
C6_3 N1_2 1_555 1_555
H5_3 C6_3 1_555 1_555
C7_3 C4_3 1_555 1_555
H6_3 C7_3 1_555 1_555
C9_3 C4_3 1_555 1_555
H7_3 C9_3 1_555 1_555
C10_3 C3_3 1_555 1_555
Mg3_2 N1_2 1_555 1_555
N4_2 Mg3 1_555 1_555
N3_3 C1_3 1_555 1_555
C2_3 C3_3 1_555 1_555
C5_3 C7_3 1_555 1_555
C6_3 C9_3 1_555 1_555
N4_2 C5_4 1_555 1_555
C5_4 H4_4 1_555 1_555
C6_4 N4_2 1_555 1_555
H5_4 C6_4 1_555 1_555
H6_4 C7_4 1_555 1_555
C5_4 C7_4 1_555 1_555
Mg3_2 O1_4 1_555 1_555
O1_4 C10_4 1_555 1_555
O6_2 C10_4 1_555 1_555
O4_4 Mg3_2 1_555 1_555
H1_4 O4_4 1_555 1_555
H2_4 O4_4 1_555 1_555
N2_4 Mg3_2 1_555 1_555
N3_4 H3_4 1_555 1_555
C1_4 N2_4 1_555 1_555
C2_4 N3_4 1_555 1_555
C3_4 N2_4 1_555 1_555
C4_4 C1_4 1_555 1_555
C9_4 C4_4 1_555 1_555
H7_4 C9_4 1_555 1_555
C10_4 C3_4 1_555 1_555
N3_4 C1_4 1_555 1_555
C2_4 C3_4 1_555 1_555
O7_2 C8_4 1_555 1_555
O5_4 C8_4 1_555 1_555

#END
