
###############################################################################
#
# This file contains modified crystal structure data generated from the
# MOF subset of the Cambridge Structural Database (CSD) v543 
# hosted by the Cambridge Crystallographic Data Centre (CCDC).
#
# This work is licensed under the Creative Commons
# Attribution-NonCommercial-ShareAlike 4.0 International License.
# To view a copy of this license, visit
# http://creativecommons.org/licenses/by-nc-sa/4.0/
# or send a letter to
# Creative Commons, PO Box 1866, Mountain View, CA 94042, USA.
#
# CIF created using the CSD Python API on 29 September 2022
# The structure has been converted into the P1 space group
# The structure has a 3D framework
# The original CSD entry RAVJOP is in the monoclinic crystal system
# The framework has been calculated to contain at least 10.0% void space
# The void calculation uses a probe of radius 1.32A, grid spacing 0.4
#
###############################################################################

data_RAVJOP
_chemical_formula_moiety         '(C336 H352 Cd28 N56 O128)n'
_symmetry_cell_setting           triclinic
_symmetry_space_group_name_H-M   'P 1'
_symmetry_Int_Tables_number      1
_space_group_name_Hall           'P 1'
loop_
_symmetry_equiv_pos_site_id
_symmetry_equiv_pos_as_xyz
1 x,y,z
_cell_length_a                   25.9645(5)
_cell_length_b                   22.2340(4)
_cell_length_c                   18.8042(3)
_cell_angle_alpha                90
_cell_angle_beta                 92.0980(10)
_cell_angle_gamma                90
_cell_volume                     10848.3
loop_
_atom_site_label
_atom_site_type_symbol
_atom_site_fract_x
_atom_site_fract_y
_atom_site_fract_z
C36 C 0.0254(2) 0.5217(3) 0.0610(3)
H18 H 0.0425 0.5359 0.1020
C45 C 0.0443(2) 0.5942(3) 0.4151(3)
C46 C 0.0218(2) 0.5446(3) 0.4580(3)
C47 C 0.0446(2) 0.5292(3) 0.5242(3)
H23 H 0.0742 0.5489 0.5409
C55 C 0.0231(2) 0.7966(2) 0.2611(3)
C56 C 0.0474(3) 0.8505(3) 0.2798(4)
H29 H 0.0763 0.8512 0.3104
C57 C 0.0272(3) 0.9022(3) 0.2516(5)
H30 H 0.0435 0.9385 0.2626
N4 N 0.03246(16) 0.7392(2) 0.2803(2)
O23 O 0.01628(16) 0.62062(18) 0.3693(2)
O24 O 0.09064(17) 0.6089(2) 0.4259(2)
Cd15 Cd 0.401337(14) 0.432007(18) 0.15381(2)
Cd18 Cd 0.254506(15) 0.376893(18) 0.00677(2)
Cd19 Cd 0.098510(14) 0.187630(17) 0.35518(2)
Cd23 Cd 0.002630(12) 0.103350(17) 0.248070(18)
Cd26 Cd 0.002630(12) 0.396650(17) 0.748070(18)
Cd29 Cd 0.095810(14) 0.690570(18) 0.34723(2)
C119 C 0.0489(2) 0.4782(3) 0.0192(3)
H105 H 0.0817 0.4640 0.0319
C121 C 0.2919(2) 0.4562(3) 0.1576(3)
C122 C 0.2416(2) 0.4855(3) 0.1776(3)
C123 C 0.2410(2) 0.5458(3) 0.1980(4)
H107 H 0.2715 0.5679 0.1992
C124 C 0.1957(2) 0.5732(3) 0.2165(4)
H108 H 0.1956 0.6137 0.2286
C125 C 0.1500(2) 0.5402(3) 0.2170(3)
C126 C 0.1508(2) 0.4796(3) 0.1975(3)
H109 H 0.1208 0.4569 0.1984
C127 C 0.1966(2) 0.4527(3) 0.1768(3)
H110 H 0.1967 0.4126 0.1625
C128 C 0.1002(2) 0.5694(3) 0.2367(3)
C132 C 0.0229(2) 0.4845(3) 0.5643(3)
H112 H 0.0389 0.4737 0.6075
C142 C 0.0171(3) 0.4028(3) 0.2933(4)
H119 H 0.0298 0.4393 0.3104
C143 C 0.0417(3) 0.3509(3) 0.3122(3)
H120 H 0.0712 0.3513 0.3419
C144 C 0.0213(2) 0.2970(2) 0.2855(3)
C166 C 0.1324(3) 0.2804(3) 0.4744(4)
H170 H 0.1641 0.2711 0.4559
C167 C 0.0850(4) 0.3383(5) 0.5563(5)
H171 H 0.0766 0.3787 0.5420
H172 H 0.0892 0.3365 0.6071
H173 H 0.0577 0.3118 0.5407
C168 C 0.1802(4) 0.3467(5) 0.5551(7)
H174 H 0.2059 0.3473 0.5196
H175 H 0.1923 0.3230 0.5950
H176 H 0.1737 0.3871 0.5706
N20 N 0.00337(14) 0.2052(2) 0.2520(2)
N21 N 0.03667(16) 0.23843(19) 0.2914(2)
N27 N 0.1322(3) 0.3203(3) 0.5246(3)
O36 O 0.06921(14) 0.04012(17) 0.2320(2)
O38 O 0.10309(14) 0.13038(17) 0.2509(2)
O54 O 0.17330(15) 0.2261(2) 0.3314(2)
O57 O 0.01934(15) 0.11775(17) 0.3686(2)
O59 O 0.09306(16) 0.1071(2) 0.4287(2)
O60 O 0.33168(16) 0.4784(2) 0.1879(2)
O62 O 0.29326(15) 0.41414(19) 0.1134(2)
O65 O 0.09980(14) 0.62543(17) 0.2479(2)
O68 O 0.06070(14) 0.53701(18) 0.2378(2)
O78 O 0.09391(17) 0.2532(2) 0.4485(2)
Cd21 Cd 0.098510(14) 0.312370(17) 0.85518(2)
C117 C 0.0464(2) 0.4079(3) 0.9158(3)
C118 C 0.0229(2) 0.4562(3) 0.9584(3)
O56 O 0.01934(15) 0.38225(17) 0.8686(2)
O58 O 0.09306(16) 0.3929(2) 0.9287(2)
C145 C 0.6145(3) 0.0232(5) 0.0133(5)
H121 H 0.6380 0.0540 0.0061
C147 C 0.6354(5) 0.0369(7) 0.1387(6)
H125 H 0.6546 0.0701 0.1204
H126 H 0.6099 0.0518 0.1698
H127 H 0.6585 0.0103 0.1646
N22 N 0.6089(3) 0.0026(4) 0.0767(4)
Cd1 Cd 0.595603(14) 0.446136(18) 0.35641(2)
Cd2 Cd 0.503862(13) 0.353957(17) 0.255037(19)
Cd4 Cd 0.254506(15) 0.123107(18) 0.50677(2)
Cd5 Cd 0.901490(14) 0.687630(17) 0.14482(2)
Cd6 Cd 0.997370(12) 0.603350(17) 0.251930(18)
Cd7 Cd 0.904190(14) 0.190570(18) 0.15277(2)
C1 C 0.6908(2) 0.4910(3) 0.3404(3)
C2 C 0.7438(2) 0.5130(3) 0.3213(3)
C3 C 0.7873(2) 0.4773(3) 0.3341(4)
H1 H 0.7835 0.4396 0.3547
C4 C 0.8355(2) 0.4965(3) 0.3170(3)
H2 H 0.8643 0.4727 0.3271
C5 C 0.8406(2) 0.5529(2) 0.2840(3)
C6 C 0.7971(2) 0.5878(3) 0.2700(3)
H3 H 0.8003 0.6251 0.2481
C7 C 0.7496(2) 0.5680(3) 0.2883(3)
H4 H 0.7207 0.5918 0.2784
C8 C 0.8928(2) 0.5756(2) 0.2645(3)
C9 C 0.6091(2) 0.3307(3) 0.2409(3)
C10 C 0.6610(2) 0.3072(3) 0.2235(3)
C11 C 0.7053(2) 0.3418(3) 0.2339(3)
H5 H 0.7027 0.3806 0.2519
C12 C 0.7527(2) 0.3197(3) 0.2181(4)
H6 H 0.7818 0.3434 0.2265
C13 C 0.7582(2) 0.2627(3) 0.1899(3)
C14 C 0.7143(2) 0.2282(3) 0.1782(4)
H7 H 0.7173 0.1897 0.1594
C15 C 0.6663(2) 0.2497(3) 0.1936(4)
H8 H 0.6372 0.2261 0.1842
C16 C 0.8108(2) 0.2383(3) 0.1738(3)
C17 C 0.5463(2) 0.3489(3) 0.4213(3)
C18 C 0.5227(2) 0.3009(3) 0.4667(3)
C19 C 0.5490(2) 0.2800(3) 0.5264(3)
H9 H 0.5813 0.2956 0.5390
C20 C 0.5274(2) 0.2358(3) 0.5680(3)
H10 H 0.5456 0.2211 0.6078
C21 C 0.4790(2) 0.2134(3) 0.5505(3)
C22 C 0.4519(2) 0.2354(3) 0.4915(3)
H11 H 0.4190 0.2210 0.4798
C23 C 0.4739(2) 0.2787(3) 0.4499(3)
H12 H 0.4557 0.2934 0.4101
C24 C 0.4571(2) 0.1626(3) 0.5936(3)
C25 C 0.4019(2) 0.3150(2) 0.2692(3)
C26 C 0.3533(2) 0.2858(3) 0.2908(3)
C27 C 0.3534(2) 0.2260(2) 0.3153(3)
H13 H 0.3840 0.2043 0.3173
C28 C 0.3084(2) 0.1991(3) 0.3366(3)
H14 H 0.3087 0.1593 0.3517
C29 C 0.2631(2) 0.2314(3) 0.3352(3)
C30 C 0.2626(2) 0.2906(3) 0.3109(3)
H15 H 0.2319 0.3121 0.3092
C31 C 0.3075(2) 0.3175(3) 0.2893(3)
H16 H 0.3068 0.3572 0.2736
C32 C 0.2133(2) 0.2029(3) 0.3594(3)
C33 C 0.9536(2) 0.5921(3) 0.0842(3)
C34 C 0.9771(2) 0.5438(3) 0.0416(3)
C48 C 0.9771(2) 0.5155(3) 0.4357(3)
H24 H 0.9611 0.5263 0.3925
C49 C 0.5126(2) 0.5487(3) 0.2800(3)
C50 C 0.5296(3) 0.6036(3) 0.3059(4)
H25 H 0.5580 0.6062 0.3374
C51 C 0.5036(3) 0.6542(3) 0.2839(4)
H26 H 0.5147 0.6915 0.3007
C52 C 0.4605(3) 0.6511(3) 0.2367(5)
H27 H 0.4438 0.6865 0.2230
C53 C 0.4427(3) 0.5976(3) 0.2103(4)
H28 H 0.4143 0.5957 0.1788
C54 C 0.4690(2) 0.5454(2) 0.2327(3)
C58 C 0.9829(3) 0.9028(3) 0.2067(4)
H31 H 0.9702 0.9393 0.1896
C59 C 0.9583(3) 0.8509(3) 0.1878(3)
H32 H 0.9288 0.8513 0.1581
C60 C 0.9787(2) 0.7970(2) 0.2145(3)
C61 C 0.6145(3) 0.4768(5) 0.5133(5)
H33 H 0.6380 0.4460 0.5061
C62 C 0.5723(5) 0.5421(6) 0.5929(6)
H34 H 0.5681 0.5693 0.5535
H35 H 0.5842 0.5640 0.6344
H36 H 0.5399 0.5234 0.6020
C63 C 0.6354(5) 0.4631(7) 0.6387(6)
H37 H 0.6546 0.4299 0.6204
H38 H 0.6099 0.4482 0.6698
H39 H 0.6585 0.4897 0.6646
C64 C 0.3693(3) 0.5274(3) 0.0345(3)
H40 H 0.3366 0.5181 0.0500
C67 C 0.3163(2) 0.2340(3) 0.5637(4)
H47 H 0.3152 0.2137 0.6069
C68 C 0.3538(6) 0.3178(5) 0.6274(5)
H48 H 0.3341 0.3062 0.6674
H49 H 0.3527 0.3608 0.6222
H50 H 0.3889 0.3050 0.6350
C69 C 0.3370(3) 0.3239(3) 0.4986(5)
H51 H 0.3198 0.3023 0.4604
H52 H 0.3727 0.3288 0.4884
H53 H 0.3214 0.3628 0.5034
C70 C 0.3597(2) 0.0861(3) 0.4446(3)
H54 H 0.3722 0.1091 0.4828
C71 C 0.4477(2) 0.0840(4) 0.4037(4)
H55 H 0.4557 0.1002 0.4501
H56 H 0.4555 0.1134 0.3682
H57 H 0.4679 0.0485 0.3966
C72 C 0.3757(3) 0.0364(4) 0.3327(4)
H58 H 0.3391 0.0304 0.3328
H60 H 0.3842 0.0597 0.2917
C73 C 0.1513(2) 0.1662(3) 0.5689(3)
H61 H 0.1373 0.1469 0.5288
C74 C 0.0638(3) 0.1730(4) 0.6113(4)
H62 H 0.0549 0.1610 0.5634
H63 H 0.0457 0.2092 0.6224
H64 H 0.0544 0.1417 0.6435
C75 C 0.1386(3) 0.2135(4) 0.6838(4)
H65 H 0.1752 0.2194 0.6825
H66 H 0.1309 0.1888 0.7240
H67 H 0.1218 0.2517 0.6880
C76 C 0.1855(3) 0.0193(3) 0.4449(3)
H68 H 0.1854 0.0417 0.4031
H75 H 0.8648 0.1996 0.0013
C82 C 0.8676(3) 0.7804(3) 0.0256(4)
H82 H 0.8359 0.7711 0.0441
N1 N 0.52962(17) 0.49170(19) 0.2905(2)
N2 N 0.49852(14) 0.4555(2) 0.2518(2)
N3 N 0.46165(16) 0.48663(18) 0.2171(2)
N5 N 0.99663(14) 0.7052(2) 0.2480(2)
N6 N 0.96333(16) 0.73843(19) 0.2086(2)
N7 N 0.6089(3) 0.4974(4) 0.5767(4)
N8 N 0.3327(2) 0.2904(3) 0.5648(3)
N9 N 0.3927(2) 0.0687(3) 0.3976(3)
N10 N 0.1202(2) 0.1838(3) 0.6184(3)
O1 O 0.68670(16) 0.4416(2) 0.3731(3)
O2 O 0.65258(15) 0.5228(2) 0.3229(2)
O3 O 0.93079(14) 0.54012(17) 0.2680(2)
O4 O 0.89691(14) 0.63038(17) 0.2491(2)
O5 O 0.60437(14) 0.38595(17) 0.2541(2)
O6 O 0.57146(14) 0.29458(18) 0.2392(2)
O7 O 0.84936(15) 0.2673(2) 0.1953(2)
O8 O 0.81392(16) 0.1894(2) 0.1395(3)
O9 O 0.51872(16) 0.37305(19) 0.3736(2)
O10 O 0.59255(17) 0.3635(2) 0.4327(3)
O11 O 0.40936(15) 0.15004(19) 0.5849(2)
O12 O 0.48601(15) 0.13386(17) 0.6351(2)
O13 O 0.40158(15) 0.37041(17) 0.2547(2)
O14 O 0.44280(13) 0.28396(17) 0.2695(2)
O16 O 0.21383(15) 0.16029(19) 0.4020(2)
O17 O 0.98066(15) 0.61775(17) 0.1314(2)
O18 O 0.90694(16) 0.6071(2) 0.0713(2)
O25 O 0.40691(17) 0.4995(2) 0.0613(2)
O26 O 0.30257(17) 0.2066(2) 0.5094(2)
O27 O 0.20513(17) 0.0412(2) 0.5001(2)
O28 O 0.19891(16) 0.1743(2) 0.5736(2)
O29 O 0.90609(17) 0.7532(2) 0.0515(2)
O30 O 0.91392(19) 0.2459(2) 0.0515(2)
O31 O 0.5876(2) 0.4986(3) 0.4588(3)
O32 O 0.31303(16) 0.07418(19) 0.4418(2)
Cd8 Cd 0.595603(14) 0.053864(18) 0.85641(2)
Cd10 Cd 0.503862(13) 0.146043(17) 0.755037(19)
Cd12 Cd 0.496138(13) 0.853957(17) 0.244963(19)
Cd13 Cd 0.401337(14) 0.067993(18) 0.65381(2)
Cd14 Cd 0.598663(14) 0.932007(18) 0.34619(2)
Cd28 Cd 0.904190(14) 0.309430(18) 0.65277(2)
C85 C 0.6908(2) 0.0090(3) 0.8404(3)
C87 C 0.7873(2) 0.0227(3) 0.8341(4)
H89 H 0.7835 0.0604 0.8547
C88 C 0.8355(2) 0.0035(3) 0.8170(3)
H90 H 0.8643 0.0273 0.8271
C93 C 0.6091(2) 0.1693(3) 0.7409(3)
C94 C 0.6610(2) 0.1928(3) 0.7235(3)
C95 C 0.7053(2) 0.1582(3) 0.7339(3)
H93 H 0.7027 0.1194 0.7519
C96 C 0.7527(2) 0.1803(3) 0.7181(4)
H94 H 0.7818 0.1566 0.7265
C97 C 0.7582(2) 0.2373(3) 0.6899(3)
C98 C 0.7143(2) 0.2718(3) 0.6782(4)
H95 H 0.7173 0.3103 0.6594
C99 C 0.6663(2) 0.2503(3) 0.6936(4)
H96 H 0.6372 0.2739 0.6842
C100 C 0.8108(2) 0.2617(3) 0.6738(3)
C103 C 0.5490(2) 0.2200(3) 0.0264(3)
H97 H 0.5813 0.2044 0.0390
C104 C 0.5274(2) 0.2642(3) 0.0680(3)
H98 H 0.5456 0.2789 0.1078
C105 C 0.4790(2) 0.2866(3) 0.0505(3)
C108 C 0.4571(2) 0.3374(3) 0.0936(3)
C109 C 0.5981(2) 0.8150(2) 0.2308(3)
C110 C 0.6467(2) 0.7858(3) 0.2092(3)
C111 C 0.6466(2) 0.7260(2) 0.1847(3)
H101 H 0.6160 0.7043 0.1827
C112 C 0.6916(2) 0.6991(3) 0.1634(3)
H102 H 0.6913 0.6593 0.1483
C113 C 0.7369(2) 0.7314(3) 0.1648(3)
C114 C 0.7374(2) 0.7906(3) 0.1891(3)
H103 H 0.7681 0.8121 0.1908
C115 C 0.6925(2) 0.8175(3) 0.2107(3)
H104 H 0.6932 0.8572 0.2264
C116 C 0.7867(2) 0.7029(3) 0.1406(3)
C129 C 0.9557(2) 0.4058(3) 0.5849(3)
C130 C 0.9782(2) 0.4554(3) 0.5420(3)
C131 C 0.9554(2) 0.4708(3) 0.4758(3)
H111 H 0.9258 0.4511 0.4591
C139 C 0.9769(2) 0.2966(2) 0.2389(3)
C140 C 0.9526(3) 0.3505(3) 0.2202(4)
H117 H 0.9237 0.3512 0.1896
C141 C 0.9728(3) 0.4022(3) 0.2484(5)
H118 H 0.9565 0.4385 0.2374
C153 C 0.6630(3) 0.8239(3) 0.0014(5)
H139 H 0.6802 0.8023 0.0396
H140 H 0.6273 0.8288 0.0116
C154 C 0.6403(2) 0.5861(3) 0.0554(3)
H142 H 0.6278 0.6091 0.0172
C155 C 0.5523(2) 0.5840(4) 0.0963(4)
H143 H 0.5443 0.6002 0.0499
H144 H 0.5445 0.6134 0.1318
H145 H 0.5321 0.5485 0.1034
C156 C 0.6243(3) 0.5364(4) 0.1673(4)
H146 H 0.6609 0.5304 0.1672
H147 H 0.6073 0.4981 0.1689
H148 H 0.6158 0.5597 0.2083
C160 C 0.8145(3) 0.5193(3) 0.0551(3)
H156 H 0.8146 0.5417 0.0969
C161 C 0.8613(5) 0.4415(4) 0.1192(5)
H157 H 0.8533 0.4661 0.1593
H158 H 0.8979 0.4417 0.1131
H159 H 0.8500 0.4010 0.1273
H161 H 0.8281 0.3878 0.0033
C163 C 0.8902(3) 0.2713(4) 0.4963(4)
H163 H 0.8648 0.3004 0.5013
C164 C 0.9373(4) 0.2088(5) 0.4190(5)
H164 H 0.9354 0.1765 0.4525
H165 H 0.9325 0.1933 0.3715
H166 H 0.9705 0.2277 0.4239
C165 C 0.8716(5) 0.2811(9) 0.3697(6)
H167 H 0.8470 0.3097 0.3858
H168 H 0.8966 0.3013 0.3418
H169 H 0.8542 0.2510 0.3411
N15 N 0.52962(17) 0.00830(19) 0.7905(2)
N16 N 0.49852(14) 0.0445(2) 0.7518(2)
N17 N 0.46165(16) 0.01337(18) 0.7171(2)
N18 N 0.96754(16) 0.2392(2) 0.2197(2)
N19 N 0.96754(16) 0.2608(2) 0.7197(2)
N24 N 0.6073(2) 0.5687(3) 0.1024(3)
N26 N 0.8355(2) 0.4648(3) 0.0563(3)
N29 N 0.8981(3) 0.2519(4) 0.4321(3)
O33 O 0.68670(16) 0.0584(2) 0.8731(3)
O39 O 0.60437(14) 0.11405(17) 0.7541(2)
O40 O 0.57146(14) 0.20542(18) 0.7392(2)
O41 O 0.84936(15) 0.2327(2) 0.6953(2)
O42 O 0.81392(16) 0.3106(2) 0.6395(3)
O44 O 0.51872(16) 0.12695(19) 0.8736(2)
O46 O 0.59255(17) 0.1365(2) 0.9327(3)
O47 O 0.40936(15) 0.34996(19) 0.0849(2)
O48 O 0.48601(15) 0.36614(17) 0.1351(2)
O49 O 0.59842(15) 0.87041(17) 0.2453(2)
O50 O 0.40158(15) 0.12959(17) 0.7547(2)
O51 O 0.55720(13) 0.78396(17) 0.2305(2)
O52 O 0.44280(13) 0.21604(17) 0.7695(2)
O53 O 0.82670(15) 0.7261(2) 0.1686(2)
O55 O 0.78617(15) 0.66029(19) 0.0980(2)
O61 O 0.33168(16) 0.0216(2) 0.6879(2)
O63 O 0.29326(15) 0.08586(19) 0.6134(2)
O66 O 0.90020(14) 0.12543(17) 0.2521(2)
O67 O 0.90020(14) 0.37457(17) 0.7521(2)
O69 O 0.93930(14) 0.03701(18) 0.2622(2)
O70 O 0.98372(16) 0.37938(18) 0.6307(2)
O71 O 0.98372(16) 0.12062(18) 0.1307(2)
O72 O 0.90936(17) 0.3911(2) 0.5741(2)
O73 O 0.90936(17) 0.1089(2) 0.0741(2)
O74 O 0.40691(17) 0.0005(2) 0.5613(2)
O79 O 0.91392(19) 0.2541(2) 0.5515(2)
O80 O 0.5876(2) 0.0014(3) 0.9588(3)
O81 O 0.68697(16) 0.57418(19) 0.0582(2)
C35 C 0.9511(2) 0.5218(3) 0.9808(3)
H17 H 0.9183 0.5360 0.9681
C65 C 0.4238(4) 0.5855(5) 0.9567(6)
H41 H 0.4386 0.6181 0.9838
H42 H 0.4190 0.5974 0.9079
H43 H 0.4464 0.5513 0.9598
C66 C 0.3257(4) 0.6003(5) 0.9551(6)
H44 H 0.2973 0.5934 0.9854
H45 H 0.3174 0.5846 0.9085
H46 H 0.3320 0.6427 0.9519
C79 C 0.8902(3) 0.2287(4) 0.9963(4)
C80 C 0.9373(4) 0.2912(5) 0.9190(5)
H76 H 0.9354 0.3235 0.9525
H77 H 0.9325 0.3067 0.8715
H78 H 0.9705 0.2723 0.9239
C81 C 0.8716(5) 0.2189(9) 0.8697(6)
H79 H 0.8470 0.1903 0.8858
H80 H 0.8966 0.1987 0.8418
H81 H 0.8542 0.2490 0.8411
C83 C 0.9150(4) 0.8383(5) 0.9437(5)
H83 H 0.9234 0.8787 0.9580
H84 H 0.9108 0.8365 0.8929
H85 H 0.9423 0.8118 0.9593
C84 C 0.8198(4) 0.8467(5) 0.9449(7)
H86 H 0.7941 0.8473 0.9804
H87 H 0.8077 0.8230 0.9050
H88 H 0.8263 0.8871 0.9294
N12 N 0.8678(3) 0.8203(3) 0.9754(3)
N13 N 0.3731(3) 0.5693(3) 0.9857(4)
N14 N 0.8981(3) 0.2481(4) 0.9321(3)
Cd16 Cd 0.745494(15) 0.623107(18) 0.99323(2)
C101 C 0.5463(2) 0.1511(3) 0.9213(3)
C102 C 0.5227(2) 0.1991(3) 0.9667(3)
C106 C 0.4519(2) 0.2646(3) 0.9915(3)
H99 H 0.4190 0.2790 0.9798
C107 C 0.4739(2) 0.2213(3) 0.9499(3)
H100 H 0.4557 0.2066 0.9101
C120 C 0.9746(2) 0.4783(3) 0.9390(3)
H106 H 0.9575 0.4641 0.8980
C151 C 0.6837(2) 0.7340(3) 0.9363(4)
H135 H 0.6848 0.7137 0.8931
C152 C 0.6462(6) 0.8178(5) 0.8726(5)
H136 H 0.6659 0.8062 0.8326
H137 H 0.6473 0.8608 0.8778
H138 H 0.6111 0.8050 0.8650
H141 H 0.6786 0.8628 0.9966
C157 C 0.8487(2) 0.6662(3) 0.9311(3)
H149 H 0.8627 0.6469 0.9712
C158 C 0.9362(3) 0.6730(4) 0.8887(4)
H150 H 0.9451 0.6610 0.9366
H151 H 0.9543 0.7092 0.8776
H152 H 0.9456 0.6417 0.8565
C159 C 0.8614(3) 0.7135(4) 0.8162(4)
H153 H 0.8248 0.7194 0.8175
H154 H 0.8691 0.6888 0.7760
H155 H 0.8782 0.7517 0.8120
C162 C 0.8379(3) 0.4283(3) 0.9927(5)
H160 H 0.8148 0.4444 0.9564
H162 H 0.8724 0.4286 0.9761
N23 N 0.6673(2) 0.7904(3) 0.9352(3)
N25 N 0.8798(2) 0.6838(3) 0.8816(3)
O64 O 0.70674(15) 0.58586(19) 0.8866(2)
O75 O 0.69743(17) 0.7066(2) 0.9906(2)
O76 O 0.79487(17) 0.5412(2) 0.9999(2)
O77 O 0.80109(16) 0.6743(2) 0.9264(2)
H59 H 0.3927 0.9981 0.3311
C77 C 0.1387(5) 0.9415(4) 0.3808(5)
H69 H 0.1467 0.9661 0.3407
H70 H 0.1021 0.9417 0.3869
H71 H 0.1500 0.9010 0.3727
C78 C 0.1621(3) 0.9283(3) 0.5073(5)
H72 H 0.1852 0.9444 0.5436
H73 H 0.1719 0.8878 0.4967
H74 H 0.1276 0.9286 0.5239
N11 N 0.1645(2) 0.9648(3) 0.4437(3)
Cd22 Cd 0.901490(14) 0.812370(17) 0.64482(2)
Cd27 Cd 0.997370(12) 0.896650(17) 0.751930(18)
C86 C 0.7438(2) 0.9870(3) 0.8213(3)
C89 C 0.8406(2) 0.9471(2) 0.7840(3)
C90 C 0.7971(2) 0.9122(3) 0.7700(3)
H91 H 0.8003 0.8749 0.7481
C91 C 0.7496(2) 0.9320(3) 0.7883(3)
H92 H 0.7207 0.9082 0.7784
C92 C 0.8928(2) 0.9244(2) 0.7645(3)
C133 C 0.5126(2) 0.9513(3) 0.7800(3)
C134 C 0.5296(3) 0.8964(3) 0.8059(4)
H113 H 0.5580 0.8938 0.8374
C135 C 0.5036(3) 0.8458(3) 0.7839(4)
H114 H 0.5147 0.8085 0.8007
C136 C 0.4605(3) 0.8489(3) 0.7367(5)
H115 H 0.4438 0.8135 0.7230
C137 C 0.4427(3) 0.9024(3) 0.7103(4)
H116 H 0.4143 0.9043 0.6788
C138 C 0.4690(2) 0.9546(2) 0.7327(3)
C148 C 0.3693(3) 0.9726(3) 0.5345(3)
H128 H 0.3366 0.9819 0.5500
C149 C 0.4238(4) 0.9145(5) 0.4567(6)
H129 H 0.4386 0.8819 0.4838
H130 H 0.4190 0.9026 0.4079
H131 H 0.4464 0.9487 0.4598
C150 C 0.3257(4) 0.8997(5) 0.4551(6)
H132 H 0.2973 0.9066 0.4854
H133 H 0.3174 0.9154 0.4085
H134 H 0.3320 0.8573 0.4519
N28 N 0.3731(3) 0.9307(3) 0.4857(4)
O34 O 0.65258(15) 0.9772(2) 0.8229(2)
O35 O 0.93079(14) 0.95988(17) 0.7680(2)
O37 O 0.89691(14) 0.86962(17) 0.7491(2)
C2_2 C 0.2562(2) 0.0130(3) 0.1787(3)
C5_2 C 0.1594(2) 0.0529(2) 0.2160(3)
C6_2 C 0.2029(2) 0.0878(3) 0.2300(3)
H3_2 H 0.1997 0.1251 0.2519
C7_2 C 0.2504(2) 0.0680(3) 0.2117(3)
H4_2 H 0.2793 0.0918 0.2216
C8_2 C 0.1072(2) 0.0756(2) 0.2355(3)
C33_2 C 0.0464(2) 0.0921(3) 0.4158(3)
C34_2 C 0.0229(2) 0.0438(3) 0.4584(3)
C35_2 C 0.0489(2) 0.0218(3) 0.5192(3)
H17_2 H 0.0817 0.0360 0.5319
C39 C 0.7590(2) 0.0458(3) 0.3020(4)
H19 H 0.7285 0.0679 0.3008
C40 C 0.8043(2) 0.0732(3) 0.2835(4)
H20 H 0.8044 0.1137 0.2714
C41 C 0.8500(2) 0.0402(3) 0.2830(3)
C44 C 0.8998(2) 0.0694(3) 0.2633(3)
C48_2 C 0.0229(2) 0.0155(3) 0.0643(3)
H24_2 H 0.0389 0.0263 0.1075
C49_2 C 0.4874(2) 0.0487(3) 0.2200(3)
C50_2 C 0.4704(3) 0.1036(3) 0.1941(4)
H25_2 H 0.4420 0.1062 0.1626
C51_2 C 0.4964(3) 0.1542(3) 0.2161(4)
H26_2 H 0.4853 0.1915 0.1993
C52_2 C 0.5395(3) 0.1511(3) 0.2633(5)
H27_2 H 0.5562 0.1865 0.2770
C53_2 C 0.5573(3) 0.0976(3) 0.2897(4)
H28_2 H 0.5857 0.0957 0.3212
C54_2 C 0.5310(2) 0.0454(2) 0.2673(3)
C64_2 C 0.6307(3) 0.0274(3) 0.4655(3)
H40_2 H 0.6634 0.0181 0.4500
C65_2 C 0.5762(4) 0.0855(5) 0.5433(6)
H41_2 H 0.5614 0.1181 0.5162
H42_2 H 0.5810 0.0974 0.5921
H43_2 H 0.5536 0.0513 0.5402
C66_2 C 0.6743(4) 0.1003(5) 0.5449(6)
H44_2 H 0.7027 0.0934 0.5146
H45_2 H 0.6826 0.0846 0.5915
H46_2 H 0.6680 0.1427 0.5481
N13_2 N 0.6269(3) 0.0693(3) 0.5143(4)
O2_2 O 0.34742(15) 0.0228(2) 0.1771(2)
Cd1_2 Cd 0.404397(14) 0.946136(18) 0.14359(2)
C1_2 C 0.3092(2) 0.9910(3) 0.1596(3)
C3_2 C 0.2127(2) 0.9773(3) 0.1659(4)
H1_2 H 0.2165 0.9396 0.1453
C4_2 C 0.1645(2) 0.9965(3) 0.1830(3)
H2_2 H 0.1357 0.9727 0.1729
C9_2 C 0.3909(2) 0.8307(3) 0.2591(3)
C10_2 C 0.3390(2) 0.8072(3) 0.2765(3)
C11_2 C 0.2947(2) 0.8418(3) 0.2661(3)
H5_2 H 0.2973 0.8806 0.2481
C12_2 C 0.2473(2) 0.8197(3) 0.2819(4)
H6_2 H 0.2182 0.8434 0.2735
C13_2 C 0.2418(2) 0.7627(3) 0.3101(3)
C14_2 C 0.2857(2) 0.7282(3) 0.3218(4)
H7_2 H 0.2827 0.6897 0.3406
C15_2 C 0.3337(2) 0.7497(3) 0.3064(4)
H8_2 H 0.3628 0.7261 0.3158
C16_2 C 0.1892(2) 0.7383(3) 0.3262(3)
C17_2 C 0.4537(2) 0.8489(3) 0.0787(3)
C18_2 C 0.4773(2) 0.8009(3) 0.0333(3)
C22_2 C 0.5481(2) 0.7354(3) 0.0085(3)
H11_2 H 0.5810 0.7210 0.0202
C23_2 C 0.5261(2) 0.7787(3) 0.0501(3)
H12_2 H 0.5443 0.7934 0.0899
C37 C 0.7081(2) 0.9562(3) 0.3424(3)
C38 C 0.7584(2) 0.9855(3) 0.3224(3)
C42 C 0.8492(2) 0.9796(3) 0.3025(3)
H21 H 0.8792 0.9569 0.3016
C43 C 0.8034(2) 0.9527(3) 0.3232(3)
H22 H 0.8033 0.9126 0.3375
C79_2 C 0.1098(3) 0.7287(4) 0.5037(4)
H75_2 H 0.1352 0.6996 0.4987
C80_2 C 0.0627(4) 0.7912(5) 0.5810(5)
H76_2 H 0.0646 0.8235 0.5475
H77_2 H 0.0675 0.8067 0.6285
H78_2 H 0.0295 0.7723 0.5761
C81_2 C 0.1284(5) 0.7189(9) 0.6303(6)
H79_2 H 0.1530 0.6903 0.6142
H80_2 H 0.1034 0.6987 0.6582
H81_2 H 0.1458 0.7490 0.6589
N1_2 N 0.47038(17) 0.99170(19) 0.2095(2)
N2_2 N 0.50148(14) 0.9555(2) 0.2482(2)
N3_2 N 0.53835(16) 0.98663(18) 0.2829(2)
N14_2 N 0.1019(3) 0.7481(4) 0.5679(3)
O1_2 O 0.31330(16) 0.9416(2) 0.1269(3)
O5_2 O 0.39563(14) 0.88595(17) 0.2459(2)
O6_2 O 0.42854(14) 0.79458(18) 0.2608(2)
O7_2 O 0.15064(15) 0.7673(2) 0.3047(2)
O8_2 O 0.18608(16) 0.6894(2) 0.3605(3)
O9_2 O 0.48128(16) 0.87305(19) 0.1264(2)
O10_2 O 0.40745(17) 0.8635(2) 0.0673(3)
O19 O 0.66832(16) 0.9784(2) 0.3121(2)
O20 O 0.70674(15) 0.91414(19) 0.3866(2)
O25_2 O 0.59309(17) 0.9995(2) 0.4387(2)
O30_2 O 0.08608(19) 0.7459(2) 0.4485(2)
O31_2 O 0.4124(2) 0.9986(3) 0.0412(3)
Cd9 Cd 0.404397(14) 0.553864(18) 0.64359(2)
Cd11 Cd 0.496138(13) 0.646043(17) 0.744963(19)
Cd17 Cd 0.745494(15) 0.876893(18) 0.49323(2)
C101_2 C 0.4537(2) 0.6511(3) 0.5787(3)
C102_2 C 0.4773(2) 0.6991(3) 0.5333(3)
C103_2 C 0.4510(2) 0.7200(3) 0.4736(3)
H97_2 H 0.4187 0.7044 0.4610
C104_2 C 0.4726(2) 0.7642(3) 0.4320(3)
H98_2 H 0.4544 0.7789 0.3922
C105_2 C 0.5210(2) 0.7866(3) 0.4495(3)
C106_2 C 0.5481(2) 0.7646(3) 0.5085(3)
H99_2 H 0.5810 0.7790 0.5202
C107_2 C 0.5261(2) 0.7213(3) 0.5501(3)
H100_2 H 0.5443 0.7066 0.5899
C108_2 C 0.5429(2) 0.8374(3) 0.4064(3)
C120_2 C 0.0254(2) 0.9783(3) 0.5610(3)
H106_2 H 0.0425 0.9641 0.6020
C131_2 C 0.0446(2) 0.9708(3) 0.0242(3)
H111_2 H 0.0742 0.9511 0.0409
C149_2 C 0.5762(4) 0.4145(5) 0.0433(6)
H129_2 H 0.5614 0.3819 0.0162
H130_2 H 0.5810 0.4026 0.0921
H131_2 H 0.5536 0.4487 0.0402
C150_2 C 0.6743(4) 0.3997(5) 0.0449(6)
H132_2 H 0.7027 0.4066 0.0146
H133_2 H 0.6826 0.4154 0.0915
H134_2 H 0.6680 0.3573 0.0481
C163_2 C 0.1098(3) 0.7713(4) 0.0037(4)
C164_2 C 0.0627(4) 0.7088(5) 0.0810(5)
H164_2 H 0.0646 0.6765 0.0475
H165_2 H 0.0675 0.6933 0.1285
H166_2 H 0.0295 0.7277 0.0761
C165_2 C 0.1284(5) 0.7811(9) 0.1303(6)
H167_2 H 0.1530 0.8097 0.1142
H168_2 H 0.1034 0.8013 0.1582
H169_2 H 0.1458 0.7510 0.1589
N28_2 N 0.6269(3) 0.4307(3) 0.0143(4)
N29_2 N 0.1019(3) 0.7519(4) 0.0679(3)
O43 O 0.48128(16) 0.62695(19) 0.6264(2)
O45 O 0.40745(17) 0.6365(2) 0.5673(3)
O47_2 O 0.59064(15) 0.84996(19) 0.4151(2)
O48_2 O 0.51399(15) 0.86614(17) 0.3649(2)
C19_2 C 0.4510(2) 0.7800(3) 0.9736(3)
H9_2 H 0.4187 0.7956 0.9610
C20_2 C 0.4726(2) 0.7358(3) 0.9320(3)
H10_2 H 0.4544 0.7211 0.8922
C21_2 C 0.5210(2) 0.7134(3) 0.9495(3)
C24_2 C 0.5429(2) 0.6626(3) 0.9064(3)
C61_2 C 0.3855(3) 0.9768(5) 0.9867(5)
H33_2 H 0.3620 0.9460 0.9939
C63_2 C 0.3646(5) 0.9631(7) 0.8613(6)
H37_2 H 0.3454 0.9299 0.8796
H38_2 H 0.3901 0.9482 0.8302
H39_2 H 0.3415 0.9897 0.8354
N7_2 N 0.3911(3) 0.9974(4) 0.9233(4)
O11_2 O 0.59064(15) 0.65004(19) 0.9151(2)
O12_2 O 0.51399(15) 0.63386(17) 0.8649(2)
Cd13_2 Cd 0.598663(14) 0.567993(18) 0.84619(2)
Cd28_2 Cd 0.095810(14) 0.809430(18) 0.84723(2)
C85_2 C 0.3092(2) 0.5090(3) 0.6596(3)
C86_2 C 0.2562(2) 0.4870(3) 0.6787(3)
C87_2 C 0.2127(2) 0.5227(3) 0.6659(4)
H89_2 H 0.2165 0.5604 0.6453
C88_2 C 0.1645(2) 0.5035(3) 0.6830(3)
H90_2 H 0.1357 0.5273 0.6729
C89_2 C 0.1594(2) 0.4471(2) 0.7160(3)
C90_2 C 0.2029(2) 0.4122(3) 0.7300(3)
H91_2 H 0.1997 0.3749 0.7519
C91_2 C 0.2504(2) 0.4320(3) 0.7117(3)
H92_2 H 0.2793 0.4082 0.7216
C92_2 C 0.1072(2) 0.4244(2) 0.7355(3)
C93_2 C 0.3909(2) 0.6693(3) 0.7591(3)
C94_2 C 0.3390(2) 0.6928(3) 0.7765(3)
C95_2 C 0.2947(2) 0.6582(3) 0.7661(3)
H93_2 H 0.2973 0.6194 0.7481
C96_2 C 0.2473(2) 0.6803(3) 0.7819(4)
H94_2 H 0.2182 0.6566 0.7735
C97_2 C 0.2418(2) 0.7373(3) 0.8101(3)
C98_2 C 0.2857(2) 0.7718(3) 0.8218(4)
H95_2 H 0.2827 0.8103 0.8406
C99_2 C 0.3337(2) 0.7503(3) 0.8064(4)
H96_2 H 0.3628 0.7739 0.8158
C100_2 C 0.1892(2) 0.7617(3) 0.8262(3)
C129_2 C 0.0443(2) 0.9058(3) 0.9151(3)
C130_2 C 0.0218(2) 0.9554(3) 0.9580(3)
C133_2 C 0.4874(2) 0.4513(3) 0.7200(3)
C134_2 C 0.4704(3) 0.3964(3) 0.6941(4)
H113_2 H 0.4420 0.3938 0.6626
C135_2 C 0.4964(3) 0.3458(3) 0.7161(4)
H114_2 H 0.4853 0.3085 0.6993
C136_2 C 0.5395(3) 0.3489(3) 0.7633(5)
H115_2 H 0.5562 0.3135 0.7770
C137_2 C 0.5573(3) 0.4024(3) 0.7897(4)
H116_2 H 0.5857 0.4043 0.8212
C138_2 C 0.5310(2) 0.4546(2) 0.7673(3)
C145_2 C 0.3855(3) 0.5232(5) 0.4867(5)
H121_2 H 0.3620 0.5540 0.4939
C146 C 0.4277(5) 0.4579(6) 0.4071(6)
H122 H 0.4319 0.4307 0.4465
H123 H 0.4158 0.4360 0.3656
H124 H 0.4601 0.4766 0.3980
C147_2 C 0.3646(5) 0.5369(7) 0.3613(6)
H125_2 H 0.3454 0.5701 0.3796
H126_2 H 0.3901 0.5518 0.3302
H127_2 H 0.3415 0.5103 0.3354
C148_2 C 0.6307(3) 0.4726(3) 0.9655(3)
H128_2 H 0.6634 0.4819 0.9500
H163_2 H 0.1352 0.8004 0.9987
N15_2 N 0.47038(17) 0.50830(19) 0.7095(2)
N16_2 N 0.50148(14) 0.5445(2) 0.7482(2)
N17_2 N 0.53835(16) 0.51337(18) 0.7829(2)
N19_2 N 0.03246(16) 0.7608(2) 0.7803(2)
N22_2 N 0.3911(3) 0.5026(4) 0.4233(4)
O33_2 O 0.31330(16) 0.5584(2) 0.6269(3)
O34_2 O 0.34742(15) 0.4772(2) 0.6771(2)
O35_2 O 0.06921(14) 0.45988(17) 0.7320(2)
O37_2 O 0.10309(14) 0.36962(17) 0.7509(2)
O39_2 O 0.39563(14) 0.61405(17) 0.7459(2)
O40_2 O 0.42854(14) 0.70542(18) 0.7608(2)
O41_2 O 0.15064(15) 0.7327(2) 0.8047(2)
O42_2 O 0.18608(16) 0.8106(2) 0.8605(3)
O50_2 O 0.59842(15) 0.62959(17) 0.7453(2)
O52_2 O 0.55720(13) 0.71604(17) 0.7305(2)
O61_2 O 0.66832(16) 0.5216(2) 0.8121(2)
O67_2 O 0.09980(14) 0.87457(17) 0.7479(2)
O70_2 O 0.01628(16) 0.87938(18) 0.8693(2)
O72_2 O 0.09064(17) 0.8911(2) 0.9259(2)
O74_2 O 0.59309(17) 0.5005(2) 0.9387(2)
O79_2 O 0.08608(19) 0.7541(2) 0.9485(2)
O80_2 O 0.4124(2) 0.5014(3) 0.5412(3)
C36_2 C 0.9746(2) 0.0217(3) 0.4390(3)
H18_2 H 0.9575 0.0359 0.3980
C45_2 C 0.9557(2) 0.0942(3) 0.0849(3)
C46_2 C 0.9782(2) 0.0446(3) 0.0420(3)
C47_2 C 0.9554(2) 0.0292(3) 0.9758(3)
H23_2 H 0.9258 0.0489 0.9591
C117_2 C 0.9536(2) 0.9079(3) 0.5842(3)
C118_2 C 0.9771(2) 0.9562(3) 0.5416(3)
C119_2 C 0.9511(2) 0.9782(3) 0.4808(3)
H105_2 H 0.9183 0.9640 0.4681
O56_2 O 0.98066(15) 0.88225(17) 0.6314(2)
O58_2 O 0.90694(16) 0.8929(2) 0.5713(2)
C132_2 C 0.9771(2) 0.9845(3) 0.9357(3)
H112_2 H 0.9611 0.9737 0.8925
H59_2 H 0.6073 0.0019 0.6689
C77_2 C 0.8613(5) 0.0585(4) 0.6192(5)
H69_2 H 0.8533 0.0339 0.6593
H70_2 H 0.8979 0.0583 0.6131
H71_2 H 0.8500 0.0990 0.6273
C78_2 C 0.8379(3) 0.0717(3) 0.4927(5)
H72_2 H 0.8148 0.0556 0.4564
H73_2 H 0.8281 0.1122 0.5033
H74_2 H 0.8724 0.0714 0.4761
N11_2 N 0.8355(2) 0.0352(3) 0.5563(3)
C83_2 C 0.0850(4) 0.1617(5) 0.0563(5)
H83_2 H 0.0766 0.1213 0.0420
H84_2 H 0.0892 0.1635 0.1071
H85_2 H 0.0577 0.1882 0.0407
C84_2 C 0.1802(4) 0.1533(5) 0.0551(7)
H86_2 H 0.2059 0.1527 0.0196
H87_2 H 0.1923 0.1770 0.0950
H88_2 H 0.1737 0.1129 0.0706
N12_2 N 0.1322(3) 0.1797(3) 0.0246(3)
C151_2 C 0.3163(2) 0.2660(3) 0.0637(4)
H135_2 H 0.3152 0.2863 0.1069
C152_2 C 0.3538(6) 0.1822(5) 0.1274(5)
H136_2 H 0.3341 0.1938 0.1674
H137_2 H 0.3527 0.1392 0.1222
H138_2 H 0.3889 0.1950 0.1350
H141_2 H 0.3214 0.1372 0.0034
C157_2 C 0.1513(2) 0.3338(3) 0.0689(3)
H149_2 H 0.1373 0.3531 0.0288
C158_2 C 0.0638(3) 0.3270(4) 0.1113(4)
H150_2 H 0.0549 0.3390 0.0634
H151_2 H 0.0457 0.2908 0.1224
H152_2 H 0.0544 0.3583 0.1435
C159_2 C 0.1386(3) 0.2865(4) 0.1838(4)
H153_2 H 0.1752 0.2806 0.1825
H154_2 H 0.1309 0.3112 0.2240
H155_2 H 0.1218 0.2483 0.1880
C162_2 C 0.1621(3) 0.5717(3) 0.0073(5)
H160_2 H 0.1852 0.5556 0.0436
H162_2 H 0.1276 0.5714 0.0239
N23_2 N 0.3327(2) 0.2096(3) 0.0648(3)
N25_2 N 0.1202(2) 0.3162(3) 0.1184(3)
O75_2 O 0.30257(17) 0.2934(2) 0.0094(2)
O76_2 O 0.20513(17) 0.4588(2) 0.0001(2)
O77_2 O 0.19891(16) 0.3257(2) 0.0736(2)
C25_2 C 0.5981(2) 0.6850(2) 0.7308(3)
C26_2 C 0.6467(2) 0.7142(3) 0.7092(3)
C27_2 C 0.6466(2) 0.7740(2) 0.6847(3)
H13_2 H 0.6160 0.7957 0.6827
C28_2 C 0.6916(2) 0.8009(3) 0.6634(3)
H14_2 H 0.6913 0.8407 0.6483
C29_2 C 0.7369(2) 0.7686(3) 0.6648(3)
C30_2 C 0.7374(2) 0.7094(3) 0.6891(3)
H15_2 H 0.7681 0.6879 0.6908
C31_2 C 0.6925(2) 0.6825(3) 0.7107(3)
H16_2 H 0.6932 0.6428 0.7264
C32_2 C 0.7867(2) 0.7971(3) 0.6406(3)
C37_2 C 0.7081(2) 0.5438(3) 0.8424(3)
C38_2 C 0.7584(2) 0.5145(3) 0.8224(3)
C39_2 C 0.7590(2) 0.4542(3) 0.8020(4)
H19_2 H 0.7285 0.4321 0.8008
C40_2 C 0.8043(2) 0.4268(3) 0.7835(4)
H20_2 H 0.8044 0.3863 0.7714
C41_2 C 0.8500(2) 0.4598(3) 0.7830(3)
C42_2 C 0.8492(2) 0.5204(3) 0.8025(3)
H21_2 H 0.8792 0.5431 0.8016
C43_2 C 0.8034(2) 0.5473(3) 0.8232(3)
H22_2 H 0.8033 0.5874 0.8375
C44_2 C 0.8998(2) 0.4306(3) 0.7633(3)
C58_2 C 0.0171(3) 0.0972(3) 0.7933(4)
H31_2 H 0.0298 0.0607 0.8104
C59_2 C 0.0417(3) 0.1491(3) 0.8122(3)
H32_2 H 0.0712 0.1487 0.8419
C60_2 C 0.0213(2) 0.2030(2) 0.7855(3)
C67_2 C 0.6837(2) 0.7660(3) 0.4363(4)
H47_2 H 0.6848 0.7863 0.3931
C68_2 C 0.6462(6) 0.6822(5) 0.3726(5)
H48_2 H 0.6659 0.6938 0.3326
H49_2 H 0.6473 0.6392 0.3778
H50_2 H 0.6111 0.6950 0.3650
C69_2 C 0.6630(3) 0.6761(3) 0.5014(5)
H51_2 H 0.6802 0.6977 0.5396
H52_2 H 0.6273 0.6712 0.5116
H53_2 H 0.6786 0.6372 0.4966
C70_2 C 0.6403(2) 0.9139(3) 0.5554(3)
H54_2 H 0.6278 0.8909 0.5172
C71_2 C 0.5523(2) 0.9160(4) 0.5963(4)
H55_2 H 0.5443 0.8998 0.5499
H56_2 H 0.5445 0.8866 0.6318
H57_2 H 0.5321 0.9515 0.6034
C72_2 C 0.6243(3) 0.9636(4) 0.6673(4)
H58_2 H 0.6609 0.9696 0.6672
H60_2 H 0.6158 0.9403 0.7083
C73_2 C 0.8487(2) 0.8338(3) 0.4311(3)
H61_2 H 0.8627 0.8531 0.4712
C74_2 C 0.9362(3) 0.8270(4) 0.3887(4)
H62_2 H 0.9451 0.8390 0.4366
H63_2 H 0.9543 0.7908 0.3776
H64_2 H 0.9456 0.8583 0.3565
C75_2 C 0.8614(3) 0.7865(4) 0.3162(4)
H65_2 H 0.8248 0.7806 0.3175
H66_2 H 0.8691 0.8112 0.2760
H67_2 H 0.8782 0.7483 0.3120
C76_2 C 0.8145(3) 0.9807(3) 0.5551(3)
H68_2 H 0.8146 0.9583 0.5969
C82_2 C 0.1324(3) 0.2196(3) 0.9744(4)
H82_2 H 0.1641 0.2289 0.9559
N5_2 N 0.00337(14) 0.2948(2) 0.7520(2)
N6_2 N 0.03667(16) 0.26157(19) 0.7914(2)
N8_2 N 0.6673(2) 0.7096(3) 0.4352(3)
N9_2 N 0.6073(2) 0.9313(3) 0.6024(3)
N10_2 N 0.8798(2) 0.8162(3) 0.3816(3)
O15 O 0.82670(15) 0.7739(2) 0.6686(2)
O16_2 O 0.78617(15) 0.83971(19) 0.5980(2)
O22 O 0.93930(14) 0.46299(18) 0.7622(2)
O26_2 O 0.69743(17) 0.7934(2) 0.4906(2)
O27_2 O 0.79487(17) 0.9588(2) 0.4999(2)
O28_2 O 0.80109(16) 0.8257(2) 0.4264(2)
O29_2 O 0.09391(17) 0.2468(2) 0.9485(2)
O32_2 O 0.68697(16) 0.92582(19) 0.5582(2)
C109_2 C 0.4019(2) 0.1850(2) 0.7692(3)
C110_2 C 0.3533(2) 0.2142(3) 0.7908(3)
C111_2 C 0.3534(2) 0.2740(2) 0.8153(3)
H101_2 H 0.3840 0.2957 0.8173
C112_2 C 0.3084(2) 0.3009(3) 0.8366(3)
H102_2 H 0.3087 0.3407 0.8517
C113_2 C 0.2631(2) 0.2686(3) 0.8352(3)
C114_2 C 0.2626(2) 0.2094(3) 0.8109(3)
H103_2 H 0.2319 0.1879 0.8092
C115_2 C 0.3075(2) 0.1825(3) 0.7893(3)
H104_2 H 0.3068 0.1428 0.7736
C116_2 C 0.2133(2) 0.2971(3) 0.8594(3)
C139_2 C 0.0231(2) 0.7034(2) 0.7611(3)
C140_2 C 0.0474(3) 0.6495(3) 0.7798(4)
H117_2 H 0.0763 0.6488 0.8104
C141_2 C 0.0272(3) 0.5978(3) 0.7516(5)
H118_2 H 0.0435 0.5615 0.7626
C153_2 C 0.3370(3) 0.1761(3) 0.9986(5)
H139_2 H 0.3198 0.1977 0.9604
H140_2 H 0.3727 0.1712 0.9884
C154_2 C 0.3597(2) 0.4139(3) 0.9446(3)
H142_2 H 0.3722 0.3909 0.9828
C155_2 C 0.4477(2) 0.4160(4) 0.9037(4)
H143_2 H 0.4557 0.3998 0.9501
H144_2 H 0.4555 0.3866 0.8682
H145_2 H 0.4679 0.4515 0.8966
C156_2 C 0.3757(3) 0.4636(4) 0.8327(4)
H146_2 H 0.3391 0.4696 0.8328
H147_2 H 0.3927 0.5019 0.8311
H148_2 H 0.3842 0.4403 0.7917
C160_2 C 0.1855(3) 0.4807(3) 0.9449(3)
H156_2 H 0.1854 0.4583 0.9031
C161_2 C 0.1387(5) 0.5585(4) 0.8808(5)
H157_2 H 0.1467 0.5339 0.8407
H158_2 H 0.1021 0.5583 0.8869
H159_2 H 0.1500 0.5990 0.8727
H161_2 H 0.1719 0.6122 0.9967
N24_2 N 0.3927(2) 0.4313(3) 0.8976(3)
N26_2 N 0.1645(2) 0.5352(3) 0.9437(3)
O53_2 O 0.17330(15) 0.2739(2) 0.8314(2)
O55_2 O 0.21383(15) 0.33971(19) 0.9020(2)
O69_2 O 0.06070(14) 0.96299(18) 0.7378(2)
O81_2 O 0.31303(16) 0.42582(19) 0.9418(2)
C55_2 C 0.9769(2) 0.2034(2) 0.7389(3)
C56_2 C 0.9526(3) 0.1495(3) 0.7202(4)
H29_2 H 0.9237 0.1488 0.6896
C57_2 C 0.9728(3) 0.0978(3) 0.7484(5)
H30_2 H 0.9565 0.0615 0.7374
C142_2 C 0.9829(3) 0.5972(3) 0.7067(4)
H119_2 H 0.9702 0.5607 0.6896
C143_2 C 0.9583(3) 0.6491(3) 0.6878(3)
H120_2 H 0.9288 0.6487 0.6581
C144_2 C 0.9787(2) 0.7030(2) 0.7145(3)
C166_2 C 0.8676(3) 0.7196(3) 0.5256(4)
H170_2 H 0.8359 0.7289 0.5441
C167_2 C 0.9150(4) 0.6617(5) 0.4437(5)
H171_2 H 0.9234 0.6213 0.4580
H172_2 H 0.9108 0.6635 0.3929
H173_2 H 0.9423 0.6882 0.4593
C168_2 C 0.8198(4) 0.6533(5) 0.4449(7)
H174_2 H 0.7941 0.6527 0.4804
H175_2 H 0.8077 0.6770 0.4050
H176_2 H 0.8263 0.6129 0.4294
N20_2 N 0.99663(14) 0.7948(2) 0.7480(2)
N21_2 N 0.96333(16) 0.76157(19) 0.7086(2)
N27_2 N 0.8678(3) 0.6797(3) 0.4754(3)
O78_2 O 0.90609(17) 0.7468(2) 0.5515(2)
C121_2 C 0.2919(2) 0.0438(3) 0.6576(3)
C122_2 C 0.2416(2) 0.0145(3) 0.6776(3)
C126_2 C 0.1508(2) 0.0204(3) 0.6975(3)
H109_2 H 0.1208 0.0431 0.6984
C127_2 C 0.1966(2) 0.0473(3) 0.6768(3)
H110_2 H 0.1967 0.0874 0.6625
C123_2 C 0.2410(2) 0.9542(3) 0.6980(4)
H107_2 H 0.2715 0.9321 0.6992
C124_2 C 0.1957(2) 0.9268(3) 0.7165(4)
H108_2 H 0.1956 0.8863 0.7286
C125_2 C 0.1500(2) 0.9598(3) 0.7170(3)
C128_2 C 0.1002(2) 0.9306(3) 0.7367(3)
C146_2 C 0.5723(5) 0.9579(6) 0.0929(6)
H122_2 H 0.5681 0.9307 0.0535
H123_2 H 0.5842 0.9360 0.1344
H124_2 H 0.5399 0.9766 0.1020
C62_2 C 0.4277(5) 0.0421(6) 0.9071(6)
H34_2 H 0.4319 0.0693 0.9465
H35_2 H 0.4158 0.0640 0.8656
H36_2 H 0.4601 0.0234 0.8980
loop_
_geom_bond_atom_site_label_1
_geom_bond_atom_site_label_2
_geom_bond_site_symmetry_1
_geom_bond_site_symmetry_2
H18 C36 1_555 1_555
C45 C46 1_555 1_555
C46 C47 1_555 1_555
C47 H23 1_555 1_555
C55 C56 1_555 1_555
C56 H29 1_555 1_555
C57 C56 1_555 1_555
H30 C57 1_555 1_555
N4 C55 1_555 1_555
O24 C45 1_555 1_555
Cd15 O60 1_555 1_555
Cd18 O62 1_555 1_555
Cd19 N21 1_555 1_555
Cd23 N20 1_555 1_555
Cd29 N4 1_555 1_555
C119 C36 1_555 1_555
H105 C119 1_555 1_555
C121 C122 1_555 1_555
C122 C123 1_555 1_555
C123 H107 1_555 1_555
C124 C123 1_555 1_555
H108 C124 1_555 1_555
C125 C124 1_555 1_555
C126 C125 1_555 1_555
H109 C126 1_555 1_555
C127 C122 1_555 1_555
H110 C127 1_555 1_555
C128 C125 1_555 1_555
C132 C47 1_555 1_555
H112 C132 1_555 1_555
H119 C142 1_555 1_555
C143 C142 1_555 1_555
H120 C143 1_555 1_555
C166 H170 1_555 1_555
C167 H171 1_555 1_555
H172 C167 1_555 1_555
H173 C167 1_555 1_555
C168 H174 1_555 1_555
H175 C168 1_555 1_555
H176 C168 1_555 1_555
N21 C144 1_555 1_555
N27 C166 1_555 1_555
O36 Cd23 1_555 1_555
O38 Cd19 1_555 1_555
O54 Cd19 1_555 1_555
O57 Cd19 1_555 1_555
O59 Cd19 1_555 1_555
O60 C121 1_555 1_555
O62 C121 1_555 1_555
O65 Cd29 1_555 1_555
O78 Cd19 1_555 1_555
C45 O23 1_555 1_555
O23 Cd29 1_555 1_555
O24 Cd29 1_555 1_555
Cd23 O57 1_555 1_555
C126 C127 1_555 1_555
C128 O65 1_555 1_555
C128 O68 1_555 1_555
C143 C144 1_555 1_555
C166 O78 1_555 1_555
C167 N27 1_555 1_555
C168 N27 1_555 1_555
N20 N21 1_555 1_555
Cd21 O56 1_555 1_555
Cd26 O56 1_555 1_555
C117 C118 1_555 1_555
O56 C117 1_555 1_555
O58 Cd21 1_555 1_555
C117 O58 1_555 1_555
C145 H121 1_555 1_555
C147 H125 1_555 1_555
H126 C147 1_555 1_555
H127 C147 1_555 1_555
N22 C145 1_555 1_555
C147 N22 1_555 1_555
Cd1 N1 1_555 1_555
Cd2 N2 1_555 1_555
Cd15 N3 1_555 1_555
Cd4 O16 1_555 1_555
Cd5 N6 1_555 1_555
Cd6 N5 1_555 1_555
Cd7 O7 1_555 1_555
C1 C2 1_555 1_555
C2 C3 1_555 1_555
C3 H1 1_555 1_555
C4 C3 1_555 1_555
H2 C4 1_555 1_555
C5 C4 1_555 1_555
C6 C5 1_555 1_555
H3 C6 1_555 1_555
C7 C2 1_555 1_555
H4 C7 1_555 1_555
C8 C5 1_555 1_555
C9 C10 1_555 1_555
C10 C11 1_555 1_555
C11 H5 1_555 1_555
C12 C11 1_555 1_555
H6 C12 1_555 1_555
C13 C12 1_555 1_555
C14 C13 1_555 1_555
H7 C14 1_555 1_555
C15 C10 1_555 1_555
H8 C15 1_555 1_555
C16 C13 1_555 1_555
C17 C18 1_555 1_555
C18 C19 1_555 1_555
C19 H9 1_555 1_555
C20 C19 1_555 1_555
H10 C20 1_555 1_555
C21 C20 1_555 1_555
C22 C21 1_555 1_555
H11 C22 1_555 1_555
C23 C18 1_555 1_555
H12 C23 1_555 1_555
C24 C21 1_555 1_555
C25 C26 1_555 1_555
C26 C27 1_555 1_555
C27 H13 1_555 1_555
C28 C27 1_555 1_555
H14 C28 1_555 1_555
C29 C28 1_555 1_555
C30 C29 1_555 1_555
H15 C30 1_555 1_555
C31 C26 1_555 1_555
H16 C31 1_555 1_555
C32 C29 1_555 1_555
C33 C34 1_555 1_555
H24 C48 1_555 1_555
C49 C50 1_555 1_555
C50 H25 1_555 1_555
C51 C50 1_555 1_555
H26 C51 1_555 1_555
C52 C51 1_555 1_555
H27 C52 1_555 1_555
C53 C52 1_555 1_555
H28 C53 1_555 1_555
C54 C49 1_555 1_555
H31 C58 1_555 1_555
C59 C58 1_555 1_555
H32 C59 1_555 1_555
C61 H33 1_555 1_555
C62 H34 1_555 1_555
H35 C62 1_555 1_555
H36 C62 1_555 1_555
C63 H37 1_555 1_555
H38 C63 1_555 1_555
H39 C63 1_555 1_555
C64 H40 1_555 1_555
C67 H47 1_555 1_555
C68 H48 1_555 1_555
H49 C68 1_555 1_555
H50 C68 1_555 1_555
C69 H51 1_555 1_555
H52 C69 1_555 1_555
H53 C69 1_555 1_555
C70 H54 1_555 1_555
C71 H55 1_555 1_555
H56 C71 1_555 1_555
H57 C71 1_555 1_555
C72 H58 1_555 1_555
H60 C72 1_555 1_555
C73 H61 1_555 1_555
C74 H62 1_555 1_555
H63 C74 1_555 1_555
H64 C74 1_555 1_555
C75 H65 1_555 1_555
H66 C75 1_555 1_555
H67 C75 1_555 1_555
C76 H68 1_555 1_555
C82 H82 1_555 1_555
N1 C49 1_555 1_555
N2 N1 1_555 1_555
N3 C54 1_555 1_555
N6 C60 1_555 1_555
N7 C61 1_555 1_555
N8 C67 1_555 1_555
N9 C70 1_555 1_555
N10 C73 1_555 1_555
O1 Cd1 1_555 1_555
O2 Cd1 1_555 1_555
O3 Cd6 1_555 1_555
O4 Cd5 1_555 1_555
O5 Cd1 1_555 1_555
O6 Cd2 1_555 1_555
O7 C16 1_555 1_555
O8 Cd7 1_555 1_555
O9 Cd1 1_555 1_555
O10 Cd1 1_555 1_555
O11 C24 1_555 1_555
O12 C24 1_555 1_555
O13 Cd15 1_555 1_555
O14 Cd2 1_555 1_555
O54 C32 1_555 1_555
O16 C32 1_555 1_555
O17 Cd5 1_555 1_555
O18 Cd5 1_555 1_555
O25 Cd15 1_555 1_555
O26 Cd4 1_555 1_555
O27 Cd4 1_555 1_555
O28 Cd4 1_555 1_555
O29 Cd5 1_555 1_555
O30 Cd7 1_555 1_555
O31 Cd1 1_555 1_555
O32 Cd4 1_555 1_555
Cd8 N15 1_555 1_555
Cd10 O12 1_555 1_555
Cd12 O51 1_555 1_555
Cd13 O11 1_555 1_555
Cd14 O49 1_555 1_555
Cd28 N19 1_555 1_555
C87 H89 1_555 1_555
C88 C87 1_555 1_555
H90 C88 1_555 1_555
C93 C94 1_555 1_555
C94 C95 1_555 1_555
C95 H93 1_555 1_555
C96 C95 1_555 1_555
H94 C96 1_555 1_555
C97 C96 1_555 1_555
C98 C97 1_555 1_555
H95 C98 1_555 1_555
C99 C94 1_555 1_555
H96 C99 1_555 1_555
C100 C97 1_555 1_555
C103 H97 1_555 1_555
C104 C103 1_555 1_555
H98 C104 1_555 1_555
C105 C104 1_555 1_555
C108 C105 1_555 1_555
C109 C110 1_555 1_555
C110 C111 1_555 1_555
C111 H101 1_555 1_555
C112 C111 1_555 1_555
H102 C112 1_555 1_555
C113 C112 1_555 1_555
C114 C113 1_555 1_555
H103 C114 1_555 1_555
C115 C110 1_555 1_555
H104 C115 1_555 1_555
C116 C113 1_555 1_555
C129 C130 1_555 1_555
C130 C131 1_555 1_555
C131 C48 1_555 1_555
H111 C131 1_555 1_555
C139 C140 1_555 1_555
C140 H117 1_555 1_555
C141 C140 1_555 1_555
H118 C141 1_555 1_555
C153 H139 1_555 1_555
H140 C153 1_555 1_555
C154 H142 1_555 1_555
C155 H143 1_555 1_555
H144 C155 1_555 1_555
H145 C155 1_555 1_555
C156 H146 1_555 1_555
H147 C156 1_555 1_555
H148 C156 1_555 1_555
C160 H156 1_555 1_555
C161 H157 1_555 1_555
H158 C161 1_555 1_555
H159 C161 1_555 1_555
C163 H163 1_555 1_555
C164 H164 1_555 1_555
H165 C164 1_555 1_555
H166 C164 1_555 1_555
C165 H167 1_555 1_555
H168 C165 1_555 1_555
H169 C165 1_555 1_555
N16 Cd10 1_555 1_555
N17 Cd13 1_555 1_555
N18 Cd7 1_555 1_555
N24 C154 1_555 1_555
N26 C160 1_555 1_555
N29 C163 1_555 1_555
O33 Cd8 1_555 1_555
O39 Cd8 1_555 1_555
O40 Cd10 1_555 1_555
O41 Cd28 1_555 1_555
O42 Cd28 1_555 1_555
O44 Cd8 1_555 1_555
O46 Cd8 1_555 1_555
O47 Cd15 1_555 1_555
O48 Cd2 1_555 1_555
O49 C109 1_555 1_555
O50 Cd13 1_555 1_555
O51 C109 1_555 1_555
O52 Cd10 1_555 1_555
O53 Cd5 1_555 1_555
O55 C116 1_555 1_555
O61 Cd13 1_555 1_555
O63 Cd4 1_555 1_555
O66 Cd7 1_555 1_555
O67 Cd28 1_555 1_555
O70 Cd28 1_555 1_555
O71 Cd7 1_555 1_555
O72 Cd28 1_555 1_555
O73 Cd7 1_555 1_555
O74 Cd13 1_555 1_555
O79 Cd28 1_555 1_555
O80 Cd8 1_555 1_555
Cd2 O9 1_555 1_555
Cd6 O17 1_555 1_555
C1 O1 1_555 1_555
C1 O2 1_555 1_555
C6 C7 1_555 1_555
C8 O3 1_555 1_555
C8 O4 1_555 1_555
C9 O5 1_555 1_555
C9 O6 1_555 1_555
C14 C15 1_555 1_555
C16 O8 1_555 1_555
C17 O9 1_555 1_555
C17 O10 1_555 1_555
C22 C23 1_555 1_555
C25 O13 1_555 1_555
C25 O14 1_555 1_555
C30 C31 1_555 1_555
C33 O17 1_555 1_555
C33 O18 1_555 1_555
C53 C54 1_555 1_555
C59 C60 1_555 1_555
C61 O31 1_555 1_555
C62 N7 1_555 1_555
C63 N7 1_555 1_555
C64 O25 1_555 1_555
C67 O26 1_555 1_555
C68 N8 1_555 1_555
C69 N8 1_555 1_555
C70 O32 1_555 1_555
C71 N9 1_555 1_555
C72 N9 1_555 1_555
C73 O28 1_555 1_555
C74 N10 1_555 1_555
C75 N10 1_555 1_555
C76 O27 1_555 1_555
C82 O29 1_555 1_555
N2 N3 1_555 1_555
N5 N6 1_555 1_555
Cd10 O44 1_555 1_555
C85 O33 1_555 1_555
C93 O39 1_555 1_555
C93 O40 1_555 1_555
C98 C99 1_555 1_555
C100 O41 1_555 1_555
C100 O42 1_555 1_555
C108 O47 1_555 1_555
C108 O48 1_555 1_555
C114 C115 1_555 1_555
C116 O53 1_555 1_555
C129 O70 1_555 1_555
C129 O72 1_555 1_555
C139 N18 1_555 1_555
C154 O81 1_555 1_555
C155 N24 1_555 1_555
C156 N24 1_555 1_555
C161 N26 1_555 1_555
C163 O79 1_555 1_555
C164 N29 1_555 1_555
C165 N29 1_555 1_555
N15 N16 1_555 1_555
N16 N17 1_555 1_555
C35 H17 1_555 1_555
C65 H41 1_555 1_555
H42 C65 1_555 1_555
H43 C65 1_555 1_555
C66 H44 1_555 1_555
H45 C66 1_555 1_555
H46 C66 1_555 1_555
C80 H76 1_555 1_555
H77 C80 1_555 1_555
H78 C80 1_555 1_555
C81 H79 1_555 1_555
H80 C81 1_555 1_555
H81 C81 1_555 1_555
C83 H83 1_555 1_555
H84 C83 1_555 1_555
H85 C83 1_555 1_555
C84 H86 1_555 1_555
H87 C84 1_555 1_555
H88 C84 1_555 1_555
N14 C79 1_555 1_555
C101 C102 1_555 1_555
H99 C106 1_555 1_555
C107 C102 1_555 1_555
H100 C107 1_555 1_555
C120 C35 1_555 1_555
H106 C120 1_555 1_555
C151 H135 1_555 1_555
C152 H136 1_555 1_555
H137 C152 1_555 1_555
H138 C152 1_555 1_555
C157 H149 1_555 1_555
C158 H150 1_555 1_555
H151 C158 1_555 1_555
H152 C158 1_555 1_555
C159 H153 1_555 1_555
H154 C159 1_555 1_555
H155 C159 1_555 1_555
C162 H160 1_555 1_555
H162 C162 1_555 1_555
N23 C151 1_555 1_555
N25 C157 1_555 1_555
O44 C101 1_555 1_555
O64 Cd16 1_555 1_555
O75 Cd16 1_555 1_555
O76 Cd16 1_555 1_555
O77 Cd16 1_555 1_555
C65 N13 1_555 1_555
C66 N13 1_555 1_555
C80 N14 1_555 1_555
C81 N14 1_555 1_555
C83 N12 1_555 1_555
C84 N12 1_555 1_555
C101 O46 1_555 1_555
C106 C107 1_555 1_555
C151 O75 1_555 1_555
C152 N23 1_555 1_555
C157 O77 1_555 1_555
C158 N25 1_555 1_555
C159 N25 1_555 1_555
C77 H69 1_555 1_555
H70 C77 1_555 1_555
H71 C77 1_555 1_555
C78 H72 1_555 1_555
H73 C78 1_555 1_555
H74 C78 1_555 1_555
Cd22 O37 1_555 1_555
Cd27 O35 1_555 1_555
C90 C89 1_555 1_555
H91 C90 1_555 1_555
C91 C86 1_555 1_555
H92 C91 1_555 1_555
C92 C89 1_555 1_555
C133 C134 1_555 1_555
C134 H113 1_555 1_555
C135 C134 1_555 1_555
H114 C135 1_555 1_555
C136 C135 1_555 1_555
H115 C136 1_555 1_555
C137 C136 1_555 1_555
H116 C137 1_555 1_555
C138 C133 1_555 1_555
C148 H128 1_555 1_555
C149 H129 1_555 1_555
H130 C149 1_555 1_555
H131 C149 1_555 1_555
C150 H132 1_555 1_555
H133 C150 1_555 1_555
H134 C150 1_555 1_555
N28 C148 1_555 1_555
O35 C92 1_555 1_555
O37 C92 1_555 1_555
C77 N11 1_555 1_555
C78 N11 1_555 1_555
C90 C91 1_555 1_555
C137 C138 1_555 1_555
C149 N28 1_555 1_555
C150 N28 1_555 1_555
C6_2 C5_2 1_555 1_555
H3_2 C6_2 1_555 1_555
C7_2 C2_2 1_555 1_555
H4_2 C7_2 1_555 1_555
C8_2 C5_2 1_555 1_555
C33_2 C34_2 1_555 1_555
C34_2 C35_2 1_555 1_555
C35_2 H17_2 1_555 1_555
C39 H19 1_555 1_555
C40 C39 1_555 1_555
H20 C40 1_555 1_555
C41 C40 1_555 1_555
C44 C41 1_555 1_555
H24_2 C48_2 1_555 1_555
C49_2 C50_2 1_555 1_555
C50_2 H25_2 1_555 1_555
C51_2 C50_2 1_555 1_555
H26_2 C51_2 1_555 1_555
C52_2 C51_2 1_555 1_555
H27_2 C52_2 1_555 1_555
C53_2 C52_2 1_555 1_555
H28_2 C53_2 1_555 1_555
C54_2 C49_2 1_555 1_555
C64_2 H40_2 1_555 1_555
C65_2 H41_2 1_555 1_555
H42_2 C65_2 1_555 1_555
H43_2 C65_2 1_555 1_555
C66_2 H44_2 1_555 1_555
H45_2 C66_2 1_555 1_555
H46_2 C66_2 1_555 1_555
N13_2 C64_2 1_555 1_555
O66 C44 1_555 1_555
O69 C44 1_555 1_555
C6_2 C7_2 1_555 1_555
C8_2 O36 1_555 1_555
C8_2 O38 1_555 1_555
C33_2 O57 1_555 1_555
C33_2 O59 1_555 1_555
C53_2 C54_2 1_555 1_555
C65_2 N13_2 1_555 1_555
C66_2 N13_2 1_555 1_555
Cd1_2 N1_2 1_555 1_555
Cd12 N2_2 1_555 1_555
Cd14 N3_2 1_555 1_555
Cd29 O7_2 1_555 1_555
C3_2 H1_2 1_555 1_555
C4_2 C3_2 1_555 1_555
H2_2 C4_2 1_555 1_555
C9_2 C10_2 1_555 1_555
C10_2 C11_2 1_555 1_555
C11_2 H5_2 1_555 1_555
C12_2 C11_2 1_555 1_555
H6_2 C12_2 1_555 1_555
C13_2 C12_2 1_555 1_555
C14_2 C13_2 1_555 1_555
H7_2 C14_2 1_555 1_555
C15_2 C10_2 1_555 1_555
H8_2 C15_2 1_555 1_555
C16_2 C13_2 1_555 1_555
C17_2 C18_2 1_555 1_555
H11_2 C22_2 1_555 1_555
C23_2 C18_2 1_555 1_555
H12_2 C23_2 1_555 1_555
C37 C38 1_555 1_555
H21 C42 1_555 1_555
C43 C38 1_555 1_555
H22 C43 1_555 1_555
C79_2 H75_2 1_555 1_555
C80_2 H76_2 1_555 1_555
H77_2 C80_2 1_555 1_555
H78_2 C80_2 1_555 1_555
C81_2 H79_2 1_555 1_555
H80_2 C81_2 1_555 1_555
H81_2 C81_2 1_555 1_555
N2_2 N1_2 1_555 1_555
N14_2 C79_2 1_555 1_555
O1_2 Cd1_2 1_555 1_555
O5_2 Cd1_2 1_555 1_555
O6_2 Cd12 1_555 1_555
O7_2 C16_2 1_555 1_555
O8_2 Cd29 1_555 1_555
O9_2 Cd1_2 1_555 1_555
O10_2 Cd1_2 1_555 1_555
O19 Cd14 1_555 1_555
O20 C37 1_555 1_555
O25_2 Cd14 1_555 1_555
O30_2 Cd29 1_555 1_555
O31_2 Cd1_2 1_555 1_555
Cd9 O43 1_555 1_555
Cd11 O43 1_555 1_555
Cd17 O20 1_555 1_555
C101_2 C102_2 1_555 1_555
C102_2 C103_2 1_555 1_555
C103_2 H97_2 1_555 1_555
C104_2 C103_2 1_555 1_555
H98_2 C104_2 1_555 1_555
C105_2 C104_2 1_555 1_555
C106_2 C105_2 1_555 1_555
H99_2 C106_2 1_555 1_555
C107_2 C102_2 1_555 1_555
H100_2 C107_2 1_555 1_555
C108_2 C105_2 1_555 1_555
H106_2 C120_2 1_555 1_555
H111_2 C131_2 1_555 1_555
C149_2 H129_2 1_555 1_555
H130_2 C149_2 1_555 1_555
H131_2 C149_2 1_555 1_555
C150_2 H132_2 1_555 1_555
H133_2 C150_2 1_555 1_555
H134_2 C150_2 1_555 1_555
C164_2 H164_2 1_555 1_555
H165_2 C164_2 1_555 1_555
H166_2 C164_2 1_555 1_555
C165_2 H167_2 1_555 1_555
H168_2 C165_2 1_555 1_555
H169_2 C165_2 1_555 1_555
N29_2 C163_2 1_555 1_555
O43 C101_2 1_555 1_555
O45 Cd9 1_555 1_555
O47_2 Cd14 1_555 1_555
O48_2 Cd12 1_555 1_555
Cd12 O9_2 1_555 1_555
C1_2 O1_2 1_555 1_555
C9_2 O5_2 1_555 1_555
C9_2 O6_2 1_555 1_555
C14_2 C15_2 1_555 1_555
C16_2 O8_2 1_555 1_555
C17_2 O9_2 1_555 1_555
C17_2 O10_2 1_555 1_555
C22_2 C23_2 1_555 1_555
C37 O19 1_555 1_555
C42 C43 1_555 1_555
C79_2 O30_2 1_555 1_555
C80_2 N14_2 1_555 1_555
C81_2 N14_2 1_555 1_555
N2_2 N3_2 1_555 1_555
C101_2 O45 1_555 1_555
C106_2 C107_2 1_555 1_555
C108_2 O47_2 1_555 1_555
C108_2 O48_2 1_555 1_555
C149_2 N28_2 1_555 1_555
C150_2 N28_2 1_555 1_555
C164_2 N29_2 1_555 1_555
C165_2 N29_2 1_555 1_555
C19_2 H9_2 1_555 1_555
C20_2 C19_2 1_555 1_555
H10_2 C20_2 1_555 1_555
C21_2 C20_2 1_555 1_555
C24_2 C21_2 1_555 1_555
C61_2 H33_2 1_555 1_555
C63_2 H37_2 1_555 1_555
H38_2 C63_2 1_555 1_555
H39_2 C63_2 1_555 1_555
N7_2 C61_2 1_555 1_555
O11_2 C24_2 1_555 1_555
O12_2 C24_2 1_555 1_555
Cd9 N15_2 1_555 1_555
Cd11 O12_2 1_555 1_555
Cd13_2 O11_2 1_555 1_555
Cd21 O37_2 1_555 1_555
Cd26 O35_2 1_555 1_555
Cd28_2 N19_2 1_555 1_555
C85_2 C86_2 1_555 1_555
C86_2 C87_2 1_555 1_555
C87_2 H89_2 1_555 1_555
C88_2 C87_2 1_555 1_555
H90_2 C88_2 1_555 1_555
C89_2 C88_2 1_555 1_555
C90_2 C89_2 1_555 1_555
H91_2 C90_2 1_555 1_555
C91_2 C86_2 1_555 1_555
H92_2 C91_2 1_555 1_555
C92_2 C89_2 1_555 1_555
C93_2 C94_2 1_555 1_555
C94_2 C95_2 1_555 1_555
C95_2 H93_2 1_555 1_555
C96_2 C95_2 1_555 1_555
H94_2 C96_2 1_555 1_555
C97_2 C96_2 1_555 1_555
C98_2 C97_2 1_555 1_555
H95_2 C98_2 1_555 1_555
C99_2 C94_2 1_555 1_555
H96_2 C99_2 1_555 1_555
C100_2 C97_2 1_555 1_555
C129_2 C130_2 1_555 1_555
C133_2 C134_2 1_555 1_555
C134_2 H113_2 1_555 1_555
C135_2 C134_2 1_555 1_555
H114_2 C135_2 1_555 1_555
C136_2 C135_2 1_555 1_555
H115_2 C136_2 1_555 1_555
C137_2 C136_2 1_555 1_555
H116_2 C137_2 1_555 1_555
C138_2 C133_2 1_555 1_555
C145_2 H121_2 1_555 1_555
C146 H122 1_555 1_555
H123 C146 1_555 1_555
H124 C146 1_555 1_555
C147_2 H125_2 1_555 1_555
H126_2 C147_2 1_555 1_555
H127_2 C147_2 1_555 1_555
C148_2 H128_2 1_555 1_555
N15_2 C133_2 1_555 1_555
N16_2 Cd11 1_555 1_555
N17_2 Cd13_2 1_555 1_555
N22_2 C145_2 1_555 1_555
O33_2 Cd9 1_555 1_555
O34_2 Cd9 1_555 1_555
O35_2 C92_2 1_555 1_555
O37_2 C92_2 1_555 1_555
O39_2 Cd9 1_555 1_555
O40_2 Cd11 1_555 1_555
O41_2 Cd28_2 1_555 1_555
O42_2 Cd28_2 1_555 1_555
O50_2 Cd13_2 1_555 1_555
O52_2 Cd11 1_555 1_555
O61_2 Cd13_2 1_555 1_555
O67_2 Cd28_2 1_555 1_555
O70_2 Cd28_2 1_555 1_555
O72_2 Cd28_2 1_555 1_555
O74_2 Cd13_2 1_555 1_555
O79_2 Cd28_2 1_555 1_555
O80_2 Cd9 1_555 1_555
C63_2 N7_2 1_555 1_555
C85_2 O33_2 1_555 1_555
C85_2 O34_2 1_555 1_555
C90_2 C91_2 1_555 1_555
C93_2 O39_2 1_555 1_555
C93_2 O40_2 1_555 1_555
C98_2 C99_2 1_555 1_555
C100_2 O41_2 1_555 1_555
C100_2 O42_2 1_555 1_555
C129_2 O70_2 1_555 1_555
C129_2 O72_2 1_555 1_555
C137_2 C138_2 1_555 1_555
C138_2 N17_2 1_555 1_555
C145_2 O80_2 1_555 1_555
C146 N22_2 1_555 1_555
C147_2 N22_2 1_555 1_555
C148_2 O74_2 1_555 1_555
N15_2 N16_2 1_555 1_555
N16_2 N17_2 1_555 1_555
H18_2 C36_2 1_555 1_555
C45_2 C46_2 1_555 1_555
O73 C45_2 1_555 1_555
C45_2 O71 1_555 1_555
C47_2 H23_2 1_555 1_555
Cd22 O56_2 1_555 1_555
Cd27 O56_2 1_555 1_555
C117_2 C118_2 1_555 1_555
C118_2 C119_2 1_555 1_555
H105_2 C119_2 1_555 1_555
O56_2 C117_2 1_555 1_555
O58_2 Cd22 1_555 1_555
C117_2 O58_2 1_555 1_555
H112_2 C132_2 1_555 1_555
C77_2 H69_2 1_555 1_555
H70_2 C77_2 1_555 1_555
H71_2 C77_2 1_555 1_555
C78_2 H72_2 1_555 1_555
H73_2 C78_2 1_555 1_555
H74_2 C78_2 1_555 1_555
C77_2 N11_2 1_555 1_555
C78_2 N11_2 1_555 1_555
C83_2 H83_2 1_555 1_555
H84_2 C83_2 1_555 1_555
H85_2 C83_2 1_555 1_555
C84_2 H86_2 1_555 1_555
H87_2 C84_2 1_555 1_555
H88_2 C84_2 1_555 1_555
C151_2 H135_2 1_555 1_555
C152_2 H136_2 1_555 1_555
H137_2 C152_2 1_555 1_555
H138_2 C152_2 1_555 1_555
C157_2 H149_2 1_555 1_555
C158_2 H150_2 1_555 1_555
H151_2 C158_2 1_555 1_555
H152_2 C158_2 1_555 1_555
C159_2 H153_2 1_555 1_555
H154_2 C159_2 1_555 1_555
H155_2 C159_2 1_555 1_555
C162_2 H160_2 1_555 1_555
H162_2 C162_2 1_555 1_555
N23_2 C151_2 1_555 1_555
N25_2 C157_2 1_555 1_555
O75_2 Cd18 1_555 1_555
O76_2 Cd18 1_555 1_555
O77_2 Cd18 1_555 1_555
C83_2 N12_2 1_555 1_555
C84_2 N12_2 1_555 1_555
C151_2 O75_2 1_555 1_555
C152_2 N23_2 1_555 1_555
C157_2 O77_2 1_555 1_555
C158_2 N25_2 1_555 1_555
C159_2 N25_2 1_555 1_555
Cd17 O16_2 1_555 1_555
Cd21 N6_2 1_555 1_555
Cd26 N5_2 1_555 1_555
C25_2 C26_2 1_555 1_555
C26_2 C27_2 1_555 1_555
C27_2 H13_2 1_555 1_555
C28_2 C27_2 1_555 1_555
H14_2 C28_2 1_555 1_555
C29_2 C28_2 1_555 1_555
C30_2 C29_2 1_555 1_555
H15_2 C30_2 1_555 1_555
C31_2 C26_2 1_555 1_555
H16_2 C31_2 1_555 1_555
C32_2 C29_2 1_555 1_555
C37_2 C38_2 1_555 1_555
C38_2 C39_2 1_555 1_555
C39_2 H19_2 1_555 1_555
C40_2 C39_2 1_555 1_555
H20_2 C40_2 1_555 1_555
C41_2 C40_2 1_555 1_555
C42_2 C41_2 1_555 1_555
H21_2 C42_2 1_555 1_555
C43_2 C38_2 1_555 1_555
H22_2 C43_2 1_555 1_555
C44_2 C41_2 1_555 1_555
H31_2 C58_2 1_555 1_555
C59_2 C58_2 1_555 1_555
H32_2 C59_2 1_555 1_555
C67_2 H47_2 1_555 1_555
C68_2 H48_2 1_555 1_555
H49_2 C68_2 1_555 1_555
H50_2 C68_2 1_555 1_555
C69_2 H51_2 1_555 1_555
H52_2 C69_2 1_555 1_555
H53_2 C69_2 1_555 1_555
C70_2 H54_2 1_555 1_555
C71_2 H55_2 1_555 1_555
H56_2 C71_2 1_555 1_555
H57_2 C71_2 1_555 1_555
C72_2 H58_2 1_555 1_555
H60_2 C72_2 1_555 1_555
C73_2 H61_2 1_555 1_555
C74_2 H62_2 1_555 1_555
H63_2 C74_2 1_555 1_555
H64_2 C74_2 1_555 1_555
C75_2 H65_2 1_555 1_555
H66_2 C75_2 1_555 1_555
H67_2 C75_2 1_555 1_555
C76_2 H68_2 1_555 1_555
C82_2 H82_2 1_555 1_555
N6_2 C60_2 1_555 1_555
N8_2 C67_2 1_555 1_555
N9_2 C70_2 1_555 1_555
N10_2 C73_2 1_555 1_555
O15 C32_2 1_555 1_555
O16_2 C32_2 1_555 1_555
O64 C37_2 1_555 1_555
O67 C44_2 1_555 1_555
O22 C44_2 1_555 1_555
O26_2 Cd17 1_555 1_555
O27_2 Cd17 1_555 1_555
O28_2 Cd17 1_555 1_555
O29_2 Cd21 1_555 1_555
O32_2 Cd17 1_555 1_555
Cd22 O15 1_555 1_555
C109_2 C110_2 1_555 1_555
C110_2 C111_2 1_555 1_555
C111_2 H101_2 1_555 1_555
C112_2 C111_2 1_555 1_555
H102_2 C112_2 1_555 1_555
C113_2 C112_2 1_555 1_555
C114_2 C113_2 1_555 1_555
H103_2 C114_2 1_555 1_555
C115_2 C110_2 1_555 1_555
H104_2 C115_2 1_555 1_555
C116_2 C113_2 1_555 1_555
C139_2 C140_2 1_555 1_555
C140_2 H117_2 1_555 1_555
C141_2 C140_2 1_555 1_555
H118_2 C141_2 1_555 1_555
C153_2 H139_2 1_555 1_555
H140_2 C153_2 1_555 1_555
C154_2 H142_2 1_555 1_555
C155_2 H143_2 1_555 1_555
H144_2 C155_2 1_555 1_555
H145_2 C155_2 1_555 1_555
C156_2 H146_2 1_555 1_555
H147_2 C156_2 1_555 1_555
H148_2 C156_2 1_555 1_555
C160_2 H156_2 1_555 1_555
C161_2 H157_2 1_555 1_555
H158_2 C161_2 1_555 1_555
H159_2 C161_2 1_555 1_555
N24_2 C154_2 1_555 1_555
N26_2 C160_2 1_555 1_555
O50 C109_2 1_555 1_555
O52 C109_2 1_555 1_555
O53_2 Cd21 1_555 1_555
O55_2 C116_2 1_555 1_555
C25_2 O50_2 1_555 1_555
C25_2 O52_2 1_555 1_555
C30_2 C31_2 1_555 1_555
C37_2 O61_2 1_555 1_555
C42_2 C43_2 1_555 1_555
C59_2 C60_2 1_555 1_555
C67_2 O26_2 1_555 1_555
C68_2 N8_2 1_555 1_555
C69_2 N8_2 1_555 1_555
C70_2 O32_2 1_555 1_555
C71_2 N9_2 1_555 1_555
C72_2 N9_2 1_555 1_555
C73_2 O28_2 1_555 1_555
C74_2 N10_2 1_555 1_555
C75_2 N10_2 1_555 1_555
C76_2 O27_2 1_555 1_555
C82_2 O29_2 1_555 1_555
N5_2 N6_2 1_555 1_555
C114_2 C115_2 1_555 1_555
C116_2 O53_2 1_555 1_555
C139_2 N19_2 1_555 1_555
C154_2 O81_2 1_555 1_555
C155_2 N24_2 1_555 1_555
C156_2 N24_2 1_555 1_555
C161_2 N26_2 1_555 1_555
C55_2 C56_2 1_555 1_555
C56_2 H29_2 1_555 1_555
C57_2 C56_2 1_555 1_555
H30_2 C57_2 1_555 1_555
N19 C55_2 1_555 1_555
Cd22 N21_2 1_555 1_555
Cd27 N20_2 1_555 1_555
H119_2 C142_2 1_555 1_555
C143_2 C142_2 1_555 1_555
H120_2 C143_2 1_555 1_555
C166_2 H170_2 1_555 1_555
C167_2 H171_2 1_555 1_555
H172_2 C167_2 1_555 1_555
H173_2 C167_2 1_555 1_555
C168_2 H174_2 1_555 1_555
H175_2 C168_2 1_555 1_555
H176_2 C168_2 1_555 1_555
N21_2 C144_2 1_555 1_555
N27_2 C166_2 1_555 1_555
O78_2 Cd22 1_555 1_555
C143_2 C144_2 1_555 1_555
C166_2 O78_2 1_555 1_555
C167_2 N27_2 1_555 1_555
C168_2 N27_2 1_555 1_555
N20_2 N21_2 1_555 1_555
C121_2 C122_2 1_555 1_555
H109_2 C126_2 1_555 1_555
C127_2 C122_2 1_555 1_555
H110_2 C127_2 1_555 1_555
O61 C121_2 1_555 1_555
O63 C121_2 1_555 1_555
C126_2 C127_2 1_555 1_555
C123_2 H107_2 1_555 1_555
C124_2 C123_2 1_555 1_555
H108_2 C124_2 1_555 1_555
C125_2 C124_2 1_555 1_555
C128_2 C125_2 1_555 1_555
C128_2 O67_2 1_555 1_555
C128_2 O69_2 1_555 1_555
C146_2 H122_2 1_555 1_555
H123_2 C146_2 1_555 1_555
H124_2 C146_2 1_555 1_555
C62_2 H34_2 1_555 1_555
H35_2 C62_2 1_555 1_555
H36_2 C62_2 1_555 1_555

#END
