
###############################################################################
#
# This file contains modified crystal structure data generated from the
# MOF subset of the Cambridge Structural Database (CSD) v543 
# hosted by the Cambridge Crystallographic Data Centre (CCDC).
#
# This work is licensed under the Creative Commons
# Attribution-NonCommercial-ShareAlike 4.0 International License.
# To view a copy of this license, visit
# http://creativecommons.org/licenses/by-nc-sa/4.0/
# or send a letter to
# Creative Commons, PO Box 1866, Mountain View, CA 94042, USA.
#
# CIF created using the CSD Python API on 29 September 2022
# The structure has been converted into the P1 space group
# The structure has a 3D framework
# The original CSD entry RAVKUY is in the orthorhombic crystal system
# The framework has been calculated to contain at least 10.0% void space
# The void calculation uses a probe of radius 1.32A, grid spacing 0.4
# The framework is charged, counterions have been retained in the structure
#
###############################################################################

data_RAVKUY
_chemical_formula_moiety         '(C168 H144 N16 O94 Zn16)n'
_symmetry_cell_setting           triclinic
_symmetry_space_group_name_H-M   'P 1'
_symmetry_Int_Tables_number      1
_space_group_name_Hall           'P 1'
loop_
_symmetry_equiv_pos_site_id
_symmetry_equiv_pos_as_xyz
1 x,y,z
_cell_length_a                   17.6325(6)
_cell_length_b                   18.4194(7)
_cell_length_c                   15.6601(5)
_cell_angle_alpha                90
_cell_angle_beta                 90
_cell_angle_gamma                90
_cell_volume                     5086.09
loop_
_atom_site_label
_atom_site_type_symbol
_atom_site_fract_x
_atom_site_fract_y
_atom_site_fract_z
O27 O 0.4215(3) 0.4484(3) 0.0278(3)
Zn1 Zn 0.06062(5) 0.38082(5) 0.07865(5)
Zn2 Zn 0.11740(5) 0.43656(5) 0.41210(5)
C1 C 0.0158(6) 0.2500 0.0000
C2 C 0.1036(6) 0.2500 0.0000
O2 O 0.1372(3) 0.3036(2) 0.0342(3)
C4 C 0.2500 0.3939(5) 0.5000
C5 C 0.2500 0.4771(5) 0.5000
O5 O 0.1963(3) 0.3638(2) 0.4611(3)
O6 O 0.1940(3) 0.5083(3) 0.4679(3)
O8 O 0.0399(3) 0.5238(3) 0.4011(3)
C7 C 0.0705(4) 0.3724(4) 0.2585(4)
C8 C 0.1273(4) 0.4321(4) 0.2316(4)
O9 O 0.0388(3) 0.3373(3) 0.2007(3)
O10 O 0.1360(3) 0.4427(3) 0.1537(3)
O11 O 0.1609(3) 0.4647(3) 0.2908(3)
O12 O 0.0598(3) 0.3634(3) 0.3379(3)
O17 O 0.3037(3) 0.3638(2) 0.5389(3)
O18 O 0.3060(3) 0.5083(3) 0.5321(3)
C10 C 0.0029(4) 0.4694(5) 0.5344(4)
O19 O 0.0502(3) 0.4204(3) 0.5217(3)
Zn3 Zn 0.43938(5) 0.38082(5) 0.92135(5)
Zn4 Zn 0.38260(5) 0.43656(5) 0.58790(5)
C11 C 0.4295(4) 0.3724(4) 0.7415(4)
C12 C 0.3727(4) 0.4321(4) 0.7684(4)
O21 O 0.4612(3) 0.3373(3) 0.7993(3)
O22 O 0.3640(3) 0.4427(3) 0.8463(3)
O23 O 0.3391(3) 0.4647(3) 0.7092(3)
O24 O 0.4402(3) 0.3634(3) 0.6621(3)
O25 O 0.5165(3) 0.3051(3) 0.9699(3)
O26 O 0.3628(3) 0.3036(2) 0.9658(3)
O28 O 0.5306(3) 0.4544(3) 0.9098(3)
O29 O 0.4498(3) 0.4204(3) 0.4783(3)
O30 O 0.4601(3) 0.5238(3) 0.5989(3)
C1_2 C 0.0158(6) 0.2500 1.0000
C2_2 C 0.1036(6) 0.2500 1.0000
O14 O 0.1372(3) 0.1964(2) 0.9658(3)
C9 C 0.0313(4) 0.4978(4) 0.9662(4)
O15 O 0.0785(3) 0.4484(3) 0.9722(3)
O16 O 0.0306(3) 0.5456(3) 0.9098(3)
Zn5 Zn 0.06062(5) 0.11918(5) 0.92135(5)
O1 O 0.9835(3) 0.3051(3) 0.0301(3)
C3 C 0.9687(4) 0.5022(4) 0.0338(4)
O3 O 0.9215(3) 0.5516(3) 0.0278(3)
O4 O 0.9694(3) 0.4544(3) 0.0902(3)
C6 C 0.9971(4) 0.5306(5) 0.4656(4)
O7 O 0.9498(3) 0.5796(3) 0.4783(3)
O20 O 0.9601(3) 0.4762(3) 0.5989(3)
Zn7 Zn 0.88260(5) 0.56344(5) 0.58790(5)
O13 O 0.9835(3) 0.1949(3) 0.9699(3)
Zn6 Zn 0.93938(5) 0.61918(5) 0.92135(5)
O27_2 O 0.0785(3) 0.0516(3) 0.0278(3)
Zn1_2 Zn 0.43938(5) 0.11918(5) 0.07865(5)
Zn2_2 Zn 0.38260(5) 0.06344(5) 0.41210(5)
C1_3 C 0.4842(6) 0.2500 0.0000
C2_3 C 0.3964(6) 0.2500 0.0000
O1_2 O 0.5165(3) 0.1949(3) 0.0301(3)
O2_2 O 0.3628(3) 0.1964(2) 0.0342(3)
O4_2 O 0.5306(3) 0.0456(3) 0.0902(3)
C4_2 C 0.2500 0.1061(5) 0.5000
C5_2 C 0.2500 0.0229(5) 0.5000
O5_2 O 0.3037(3) 0.1362(2) 0.4611(3)
C7_2 C 0.4295(4) 0.1276(4) 0.2585(4)
C8_2 C 0.3727(4) 0.0679(4) 0.2316(4)
O9_2 O 0.4612(3) 0.1627(3) 0.2007(3)
O10_2 O 0.3640(3) 0.0573(3) 0.1537(3)
O11_2 O 0.3391(3) 0.0353(3) 0.2908(3)
O12_2 O 0.4402(3) 0.1366(3) 0.3379(3)
O17_2 O 0.1963(3) 0.1362(2) 0.5389(3)
C10_2 C 0.4971(4) 0.0306(5) 0.5344(4)
O19_2 O 0.4498(3) 0.0796(3) 0.5217(3)
O20_2 O 0.5399(3) 0.0238(3) 0.5989(3)
Zn4_2 Zn 0.11740(5) 0.06344(5) 0.58790(5)
C11_2 C 0.0705(4) 0.1276(4) 0.7415(4)
C12_2 C 0.1273(4) 0.0679(4) 0.7684(4)
O21_2 O 0.0388(3) 0.1627(3) 0.7993(3)
O22_2 O 0.1360(3) 0.0573(3) 0.8463(3)
O23_2 O 0.1609(3) 0.0353(3) 0.7092(3)
O24_2 O 0.0598(3) 0.1366(3) 0.6621(3)
O29_2 O 0.0502(3) 0.0796(3) 0.4783(3)
C1_4 C 0.4842(6) 0.2500 1.0000
C2_4 C 0.3964(6) 0.2500 1.0000
C9_2 C 0.4687(4) 0.0022(4) 0.9662(4)
O15_2 O 0.4215(3) 0.0516(3) 0.9722(3)
C3_2 C 0.5313(4) 0.9978(4) 0.0338(4)
O3_2 O 0.5785(3) 0.9484(3) 0.0278(3)
O6_2 O 0.3060(3) 0.9917(3) 0.4679(3)
C6_2 C 0.5029(4) 0.9694(5) 0.4656(4)
O7_2 O 0.5502(3) 0.9204(3) 0.4783(3)
O8_2 O 0.4601(3) 0.9762(3) 0.4011(3)
O18_2 O 0.1940(3) 0.9917(3) 0.5321(3)
Zn7_2 Zn 0.61740(5) 0.93656(5) 0.58790(5)
O30_2 O 0.0399(3) 0.9762(3) 0.5989(3)
O16_2 O 0.4694(3) 0.9544(3) 0.9098(3)
Zn6_2 Zn 0.56062(5) 0.88082(5) 0.92135(5)
O28_2 O 0.9694(3) 0.0456(3) 0.9098(3)
C9_3 C 0.4687(4) 0.4978(4) 0.0338(4)
O16_3 O 0.4694(3) 0.5456(3) 0.0902(3)
Zn6_3 Zn 0.56062(5) 0.61918(5) 0.07865(5)
C3_3 C 0.5313(4) 0.5022(4) 0.9662(4)
O3_3 O 0.5785(3) 0.5516(3) 0.9722(3)
C6_3 C 0.5029(4) 0.5306(5) 0.5344(4)
O7_3 O 0.5502(3) 0.5796(3) 0.5217(3)
C10_3 C 0.4971(4) 0.4694(5) 0.4656(4)
O20_3 O 0.5399(3) 0.4762(3) 0.4011(3)
Zn7_3 Zn 0.61740(5) 0.56344(5) 0.41210(5)
C9_4 C 0.0313(4) 0.0022(4) 0.0338(4)
C10_4 C 0.0029(4) 0.0306(5) 0.4656(4)
O16_4 O 0.0306(3) 0.9544(3) 0.0902(3)
O20_4 O 0.9601(3) 0.0238(3) 0.4011(3)
Zn6_4 Zn 0.93938(5) 0.88082(5) 0.07865(5)
C3_4 C 0.9687(4) 0.9978(4) 0.9662(4)
O3_4 O 0.9215(3) 0.9484(3) 0.9722(3)
C6_4 C 0.9971(4) 0.9694(5) 0.5344(4)
O7_4 O 0.9498(3) 0.9204(3) 0.5217(3)
Zn7_4 Zn 0.88260(5) 0.93656(5) 0.41210(5)
O13_2 O 0.0165(3) 0.8051(3) 0.0301(3)
O1_3 O 0.0165(3) 0.6949(3) 0.9699(3)
C1_5 C 0.9842(6) 0.7500 0.0000
C2_5 C 0.8964(6) 0.7500 0.0000
O14_2 O 0.8628(3) 0.8036(2) 0.0342(3)
C1_6 C 0.9842(6) 0.7500 1.0000
C2_6 C 0.8964(6) 0.7500 1.0000
O2_3 O 0.8628(3) 0.6964(2) 0.9658(3)
C4_3 C 0.7500 0.6061(5) 0.5000
C5_3 C 0.7500 0.5229(5) 0.5000
O5_3 O 0.8037(3) 0.6362(2) 0.5389(3)
O6_3 O 0.8060(3) 0.4917(3) 0.5321(3)
C7_3 C 0.9295(4) 0.6276(4) 0.7415(4)
C8_3 C 0.8727(4) 0.5679(4) 0.7684(4)
O9_3 O 0.9612(3) 0.6627(3) 0.7993(3)
O10_3 O 0.8640(3) 0.5573(3) 0.8463(3)
O11_3 O 0.8391(3) 0.5353(3) 0.7092(3)
O12_3 O 0.9402(3) 0.6366(3) 0.6621(3)
O17_3 O 0.6963(3) 0.6362(2) 0.4611(3)
O18_3 O 0.6940(3) 0.4917(3) 0.4679(3)
C11_3 C 0.5705(4) 0.6276(4) 0.2585(4)
C12_3 C 0.6273(4) 0.5679(4) 0.2316(4)
O21_3 O 0.5388(3) 0.6627(3) 0.2007(3)
O22_3 O 0.6360(3) 0.5573(3) 0.1537(3)
O23_3 O 0.6609(3) 0.5353(3) 0.2908(3)
O24_3 O 0.5598(3) 0.6366(3) 0.3379(3)
O25_2 O 0.4835(3) 0.6949(3) 0.0301(3)
O26_2 O 0.6372(3) 0.6964(2) 0.0342(3)
O6_4 O 0.6940(3) 0.0083(3) 0.5321(3)
O18_4 O 0.8060(3) 0.0083(3) 0.4679(3)
C1_7 C 0.5158(6) 0.7500 0.0000
C2_7 C 0.6036(6) 0.7500 0.0000
C1_8 C 0.5158(6) 0.7500 1.0000
C2_8 C 0.6036(6) 0.7500 1.0000
O1_4 O 0.4835(3) 0.8051(3) 0.9699(3)
O2_4 O 0.6372(3) 0.8036(2) 0.9658(3)
C4_4 C 0.7500 0.8939(5) 0.5000
C5_4 C 0.7500 0.9771(5) 0.5000
O5_4 O 0.6963(3) 0.8638(2) 0.5389(3)
C7_4 C 0.5705(4) 0.8724(4) 0.7415(4)
C8_4 C 0.6273(4) 0.9321(4) 0.7684(4)
O9_4 O 0.5388(3) 0.8373(3) 0.7993(3)
O10_4 O 0.6360(3) 0.9427(3) 0.8463(3)
O11_4 O 0.6609(3) 0.9647(3) 0.7092(3)
O12_4 O 0.5598(3) 0.8634(3) 0.6621(3)
O17_4 O 0.8037(3) 0.8638(2) 0.4611(3)
C11_4 C 0.9295(4) 0.8724(4) 0.2585(4)
C12_4 C 0.8727(4) 0.9321(4) 0.2316(4)
O21_4 O 0.9612(3) 0.8373(3) 0.2007(3)
O22_4 O 0.8640(3) 0.9427(3) 0.1537(3)
O23_4 O 0.8391(3) 0.9647(3) 0.2908(3)
O24_4 O 0.9402(3) 0.8634(3) 0.3379(3)
N1 N 0.1423(4) 0.4085(4) 0.7490(4)
C13 C 0.1442(5) 0.3628(5) 0.6812(4)
H1 H 0.1155 0.3738 0.6331
C14 C 0.1865(5) 0.3022(4) 0.6816(4)
H2 H 0.1895 0.2733 0.6330
C15 C 0.2261(4) 0.2829(4) 0.7556(4)
C16 C 0.2204(4) 0.3270(4) 0.8258(4)
H3 H 0.2448 0.3142 0.8762
C17 C 0.1787(5) 0.3901(4) 0.8221(4)
H4 H 0.1755 0.4201 0.8697
C18 C 0.1035(7) 0.4786(6) 0.7415(6)
H5 H 0.0576 0.4718 0.7082
H6 H 0.0885 0.4944 0.7981
C19 C 0.1478(8) 0.5349(6) 0.7026(8)
H7 H 0.1185 0.5788 0.7000
H8 H 0.1927 0.5432 0.7358
H9 H 0.1618 0.5205 0.6458
N2 N 0.3577(4) 0.0915(4) 0.7490(4)
C20 C 0.3558(5) 0.1372(5) 0.6812(4)
H10 H 0.3845 0.1262 0.6331
C21 C 0.3135(5) 0.1978(4) 0.6816(4)
H11 H 0.3105 0.2267 0.6330
C22 C 0.2739(4) 0.2171(4) 0.7556(4)
C23 C 0.2796(4) 0.1730(4) 0.8258(4)
H12 H 0.2552 0.1858 0.8762
C24 C 0.3213(5) 0.1099(4) 0.8221(4)
H13 H 0.3245 0.0799 0.8697
C25 C 0.3965(7) 0.0214(6) 0.7415(6)
H14 H 0.4424 0.0282 0.7082
H15 H 0.4115 0.0056 0.7981
C26 C 0.3522(8) 0.9651(6) 0.7026(8)
H16 H 0.3815 0.9212 0.7000
H17 H 0.3073 0.9568 0.7358
H18 H 0.3382 0.9795 0.6458
N1_2 N 0.3577(4) 0.4085(4) 0.2510(4)
C13_2 C 0.3558(5) 0.3628(5) 0.3188(4)
H1_2 H 0.3845 0.3738 0.3669
C14_2 C 0.3135(5) 0.3022(4) 0.3184(4)
H2_2 H 0.3105 0.2733 0.3670
C15_2 C 0.2739(4) 0.2829(4) 0.2444(4)
C16_2 C 0.2796(4) 0.3270(4) 0.1742(4)
H3_2 H 0.2552 0.3142 0.1238
C17_2 C 0.3213(5) 0.3901(4) 0.1779(4)
H4_2 H 0.3245 0.4201 0.1303
C18_2 C 0.3965(7) 0.4786(6) 0.2585(6)
H5_2 H 0.4424 0.4718 0.2918
H6_2 H 0.4115 0.4944 0.2019
C19_2 C 0.3522(8) 0.5349(6) 0.2974(8)
H7_2 H 0.3815 0.5788 0.3000
H8_2 H 0.3073 0.5432 0.2642
H9_2 H 0.3382 0.5205 0.3542
N2_2 N 0.1423(4) 0.0915(4) 0.2510(4)
C20_2 C 0.1442(5) 0.1372(5) 0.3188(4)
H10_2 H 0.1155 0.1262 0.3669
C21_2 C 0.1865(5) 0.1978(4) 0.3184(4)
H11_2 H 0.1895 0.2267 0.3670
C22_2 C 0.2261(4) 0.2171(4) 0.2444(4)
C23_2 C 0.2204(4) 0.1730(4) 0.1742(4)
H12_2 H 0.2448 0.1858 0.1238
C24_2 C 0.1787(5) 0.1099(4) 0.1779(4)
H13_2 H 0.1755 0.0799 0.1303
C25_2 C 0.1035(7) 0.0214(6) 0.2585(6)
H14_2 H 0.0576 0.0282 0.2918
H15_2 H 0.0885 0.0056 0.2019
C26_2 C 0.1478(8) 0.9651(6) 0.2974(8)
H16_2 H 0.1185 0.9212 0.3000
H17_2 H 0.1927 0.9568 0.2642
H18_2 H 0.1618 0.9795 0.3542
C26_3 C 0.6478(8) 0.0349(6) 0.2974(8)
H16_3 H 0.6185 0.0788 0.3000
H17_3 H 0.6927 0.0432 0.2642
H18_3 H 0.6618 0.0205 0.3542
N1_3 N 0.8577(4) 0.5915(4) 0.2510(4)
C13_3 C 0.8558(5) 0.6372(5) 0.3188(4)
H1_3 H 0.8845 0.6262 0.3669
C14_3 C 0.8135(5) 0.6978(4) 0.3184(4)
H2_3 H 0.8105 0.7267 0.3670
C15_3 C 0.7739(4) 0.7171(4) 0.2444(4)
C16_3 C 0.7796(4) 0.6730(4) 0.1742(4)
H3_3 H 0.7552 0.6858 0.1238
C17_3 C 0.8213(5) 0.6099(4) 0.1779(4)
H4_3 H 0.8245 0.5799 0.1303
C18_3 C 0.8965(7) 0.5214(6) 0.2585(6)
H5_3 H 0.9424 0.5282 0.2918
H6_3 H 0.9115 0.5056 0.2019
C19_3 C 0.8522(8) 0.4651(6) 0.2974(8)
H7_3 H 0.8815 0.4212 0.3000
H8_3 H 0.8073 0.4568 0.2642
H9_3 H 0.8382 0.4795 0.3542
N2_3 N 0.6423(4) 0.9085(4) 0.2510(4)
C20_3 C 0.6442(5) 0.8628(5) 0.3188(4)
H10_3 H 0.6155 0.8738 0.3669
C21_3 C 0.6865(5) 0.8022(4) 0.3184(4)
H11_3 H 0.6895 0.7733 0.3670
C22_3 C 0.7261(4) 0.7829(4) 0.2444(4)
C23_3 C 0.7204(4) 0.8270(4) 0.1742(4)
H12_3 H 0.7448 0.8142 0.1238
C24_3 C 0.6787(5) 0.8901(4) 0.1779(4)
H13_3 H 0.6755 0.9201 0.1303
C25_3 C 0.6035(7) 0.9786(6) 0.2585(6)
H14_3 H 0.5576 0.9718 0.2918
H15_3 H 0.5885 0.9944 0.2019
C26_4 C 0.8522(8) 0.0349(6) 0.7026(8)
H16_4 H 0.8815 0.0788 0.7000
H17_4 H 0.8073 0.0432 0.7358
H18_4 H 0.8382 0.0205 0.6458
N1_4 N 0.6423(4) 0.5915(4) 0.7490(4)
C13_4 C 0.6442(5) 0.6372(5) 0.6812(4)
H1_4 H 0.6155 0.6262 0.6331
C14_4 C 0.6865(5) 0.6978(4) 0.6816(4)
H2_4 H 0.6895 0.7267 0.6330
C15_4 C 0.7261(4) 0.7171(4) 0.7556(4)
C16_4 C 0.7204(4) 0.6730(4) 0.8258(4)
H3_4 H 0.7448 0.6858 0.8762
C17_4 C 0.6787(5) 0.6099(4) 0.8221(4)
H4_4 H 0.6755 0.5799 0.8697
C18_4 C 0.6035(7) 0.5214(6) 0.7415(6)
H5_4 H 0.5576 0.5282 0.7082
H6_4 H 0.5885 0.5056 0.7981
C19_4 C 0.6478(8) 0.4651(6) 0.7026(8)
H7_4 H 0.6185 0.4212 0.7000
H8_4 H 0.6927 0.4568 0.7358
H9_4 H 0.6618 0.4795 0.6458
N2_4 N 0.8577(4) 0.9085(4) 0.7490(4)
C20_4 C 0.8558(5) 0.8628(5) 0.6812(4)
H10_4 H 0.8845 0.8738 0.6331
C21_4 C 0.8135(5) 0.8022(4) 0.6816(4)
H11_4 H 0.8105 0.7733 0.6330
C22_4 C 0.7739(4) 0.7829(4) 0.7556(4)
C23_4 C 0.7796(4) 0.8270(4) 0.8258(4)
H12_4 H 0.7552 0.8142 0.8762
C24_4 C 0.8213(5) 0.8901(4) 0.8221(4)
H13_4 H 0.8245 0.9201 0.8697
C25_4 C 0.8965(7) 0.9786(6) 0.7415(6)
H14_4 H 0.9424 0.9718 0.7082
H15_4 H 0.9115 0.9944 0.7981
N3 N 0.8786(9) 0.3112(6) 0.7120(8)
C27 C 0.9156(12) 0.2500(9) 0.6907(12)
H19 H 0.9373 0.2219 0.7335
C28 C 0.9224(11) 0.2271(10) 0.6037(12)
H20 H 0.9524 0.1875 0.5891
C29 C 0.8850(7) 0.2638(6) 0.5448(7)
C30 C 0.8535(10) 0.3309(6) 0.5638(9)
H21 H 0.8335 0.3599 0.5207
C31 C 0.8522(10) 0.3536(7) 0.6462(10)
H22 H 0.8329 0.3994 0.6586
C32 C 0.8676(12) 0.3366(12) 0.7983(12)
H23 H 0.8277 0.3727 0.7994
H24 H 0.8523 0.2964 0.8344
C33 C 0.930(2) 0.3646(10) 0.8273(14)
H25 H 0.9221 0.3813 0.8847
H26 H 0.9692 0.3285 0.8268
H27 H 0.9447 0.4048 0.7919
N4 N 0.8786(9) 0.1888(6) 0.2880(8)
C34 C 0.9156(12) 0.2500(9) 0.3093(12)
H28 H 0.9373 0.2781 0.2665
C35 C 0.9224(11) 0.2729(10) 0.3963(12)
H29 H 0.9524 0.3125 0.4109
C36 C 0.8850(7) 0.2362(6) 0.4552(7)
C37 C 0.8535(10) 0.1691(6) 0.4362(9)
H30 H 0.8335 0.1401 0.4793
C38 C 0.8522(10) 0.1464(7) 0.3538(10)
H31 H 0.8329 0.1006 0.3414
C39 C 0.8676(12) 0.1634(12) 0.2017(12)
H32 H 0.8277 0.1273 0.2006
H33 H 0.8523 0.2036 0.1656
C40 C 0.930(2) 0.1354(10) 0.1727(14)
H34 H 0.9221 0.1187 0.1153
H35 H 0.9692 0.1715 0.1732
H36 H 0.9447 0.0952 0.2081
N3_2 N 0.6214(9) 0.1888(6) 0.7120(8)
C27_2 C 0.5844(12) 0.2500(9) 0.6907(12)
H19_2 H 0.5627 0.2781 0.7335
C28_2 C 0.5776(11) 0.2729(10) 0.6037(12)
H20_2 H 0.5476 0.3125 0.5891
C29_2 C 0.6150(7) 0.2362(6) 0.5448(7)
C30_2 C 0.6465(10) 0.1691(6) 0.5638(9)
H21_2 H 0.6665 0.1401 0.5207
C31_2 C 0.6478(10) 0.1464(7) 0.6462(10)
H22_2 H 0.6671 0.1006 0.6586
C32_2 C 0.6324(12) 0.1634(12) 0.7983(12)
H23_2 H 0.6723 0.1273 0.7994
H24_2 H 0.6477 0.2036 0.8344
C33_2 C 0.570(2) 0.1354(10) 0.8273(14)
H25_2 H 0.5779 0.1187 0.8847
H26_2 H 0.5308 0.1715 0.8268
H27_2 H 0.5553 0.0952 0.7919
N4_2 N 0.6214(9) 0.3112(6) 0.2880(8)
C34_2 C 0.5844(12) 0.2500(9) 0.3093(12)
H28_2 H 0.5627 0.2219 0.2665
C35_2 C 0.5776(11) 0.2271(10) 0.3963(12)
H29_2 H 0.5476 0.1875 0.4109
C36_2 C 0.6150(7) 0.2638(6) 0.4552(7)
C37_2 C 0.6465(10) 0.3309(6) 0.4362(9)
H30_2 H 0.6665 0.3599 0.4793
C38_2 C 0.6478(10) 0.3536(7) 0.3538(10)
H31_2 H 0.6671 0.3994 0.3414
C39_2 C 0.6324(12) 0.3366(12) 0.2017(12)
H32_2 H 0.6723 0.3727 0.2006
H33_2 H 0.6477 0.2964 0.1656
C40_2 C 0.570(2) 0.3646(10) 0.1727(14)
H34_2 H 0.5779 0.3813 0.1153
H35_2 H 0.5308 0.3285 0.1732
H36_2 H 0.5553 0.4048 0.2081
N3_3 N 0.1214(9) 0.6888(6) 0.2880(8)
C27_3 C 0.0844(12) 0.7500(9) 0.3093(12)
H19_3 H 0.0627 0.7781 0.2665
C28_3 C 0.0776(11) 0.7729(10) 0.3963(12)
H20_3 H 0.0476 0.8125 0.4109
C29_3 C 0.1150(7) 0.7362(6) 0.4552(7)
C30_3 C 0.1465(10) 0.6691(6) 0.4362(9)
H21_3 H 0.1665 0.6401 0.4793
C31_3 C 0.1478(10) 0.6464(7) 0.3538(10)
H22_3 H 0.1671 0.6006 0.3414
C32_3 C 0.1324(12) 0.6634(12) 0.2017(12)
H23_3 H 0.1723 0.6273 0.2006
H24_3 H 0.1477 0.7036 0.1656
C33_3 C 0.070(2) 0.6354(10) 0.1727(14)
H25_3 H 0.0779 0.6187 0.1153
H26_3 H 0.0308 0.6715 0.1732
H27_3 H 0.0553 0.5952 0.2081
N4_3 N 0.1214(9) 0.8112(6) 0.7120(8)
C34_3 C 0.0844(12) 0.7500(9) 0.6907(12)
H28_3 H 0.0627 0.7219 0.7335
C35_3 C 0.0776(11) 0.7271(10) 0.6037(12)
H29_3 H 0.0476 0.6875 0.5891
C36_3 C 0.1150(7) 0.7638(6) 0.5448(7)
C37_3 C 0.1465(10) 0.8309(6) 0.5638(9)
H30_3 H 0.1665 0.8599 0.5207
C38_3 C 0.1478(10) 0.8536(7) 0.6462(10)
H31_3 H 0.1671 0.8994 0.6586
C39_3 C 0.1324(12) 0.8366(12) 0.7983(12)
H32_3 H 0.1723 0.8727 0.7994
H33_3 H 0.1477 0.7964 0.8344
C40_3 C 0.070(2) 0.8646(10) 0.8273(14)
H34_3 H 0.0779 0.8813 0.8847
H35_3 H 0.0308 0.8285 0.8268
H36_3 H 0.0553 0.9048 0.7919
N3_4 N 0.3786(9) 0.8112(6) 0.2880(8)
C27_4 C 0.4156(12) 0.7500(9) 0.3093(12)
H19_4 H 0.4373 0.7219 0.2665
C28_4 C 0.4224(11) 0.7271(10) 0.3963(12)
H20_4 H 0.4524 0.6875 0.4109
C29_4 C 0.3850(7) 0.7638(6) 0.4552(7)
C30_4 C 0.3535(10) 0.8309(6) 0.4362(9)
H21_4 H 0.3335 0.8599 0.4793
C31_4 C 0.3522(10) 0.8536(7) 0.3538(10)
H22_4 H 0.3329 0.8994 0.3414
C32_4 C 0.3676(12) 0.8366(12) 0.2017(12)
H23_4 H 0.3277 0.8727 0.2006
H24_4 H 0.3523 0.7964 0.1656
C33_4 C 0.430(2) 0.8646(10) 0.1727(14)
H25_4 H 0.4221 0.8813 0.1153
H26_4 H 0.4692 0.8285 0.1732
H27_4 H 0.4447 0.9048 0.2081
N4_4 N 0.3786(9) 0.6888(6) 0.7120(8)
C34_4 C 0.4156(12) 0.7500(9) 0.6907(12)
H28_4 H 0.4373 0.7781 0.7335
C35_4 C 0.4224(11) 0.7729(10) 0.6037(12)
H29_4 H 0.4524 0.8125 0.5891
C36_4 C 0.3850(7) 0.7362(6) 0.5448(7)
C37_4 C 0.3535(10) 0.6691(6) 0.5638(9)
H30_4 H 0.3335 0.6401 0.5207
C38_4 C 0.3522(10) 0.6464(7) 0.6462(10)
H31_4 H 0.3329 0.6006 0.6586
C39_4 C 0.3676(12) 0.6634(12) 0.7983(12)
H32_4 H 0.3277 0.6273 0.7994
H33_4 H 0.3523 0.7036 0.8344
C40_4 C 0.430(2) 0.6354(10) 0.8273(14)
H34_4 H 0.4221 0.6187 0.8847
H35_4 H 0.4692 0.6715 0.8268
H36_4 H 0.4447 0.5952 0.7919
loop_
_geom_bond_atom_site_label_1
_geom_bond_atom_site_label_2
_geom_bond_site_symmetry_1
_geom_bond_site_symmetry_2
Zn2 O5 1_555 1_555
C1 C2 1_555 1_555
C2 O2 1_555 1_555
O2 Zn1 1_555 1_555
C4 C5 1_555 1_555
C5 O6 1_555 1_555
O5 C4 1_555 1_555
O6 Zn2 1_555 1_555
O8 Zn2 1_555 1_555
C7 C8 1_555 1_555
C8 O10 1_555 1_555
O9 Zn1 1_555 1_555
O10 Zn1 1_555 1_555
O11 Zn2 1_555 1_555
O12 Zn2 1_555 1_555
O17 C4 1_555 1_555
O18 C5 1_555 1_555
O19 Zn2 1_555 1_555
Zn3 O21 1_555 1_555
Zn4 O17 1_555 1_555
C11 C12 1_555 1_555
C12 O22 1_555 1_555
O21 C11 1_555 1_555
O22 Zn3 1_555 1_555
O23 Zn4 1_555 1_555
O24 Zn4 1_555 1_555
O25 Zn3 1_555 1_555
O26 Zn3 1_555 1_555
O28 Zn3 1_555 1_555
O29 Zn4 1_555 1_555
O30 Zn4 1_555 1_555
C7 O9 1_555 1_555
C7 O12 1_555 1_555
C8 O11 1_555 1_555
O18 Zn4 1_555 1_555
C10 O19 1_555 1_555
C11 O24 1_555 1_555
C12 O23 1_555 1_555
C1_2 C2_2 1_555 1_555
O14 C2_2 1_555 1_555
O16 C9 1_555 1_555
O14 Zn5 1_555 1_555
C9 O15 1_555 1_555
C3 O3 1_555 1_555
C6 O7 1_555 1_555
O7 Zn7 1_555 1_555
Zn7 O20 1_555 1_555
C3 O4 1_555 1_555
Zn1_2 O1_2 1_555 1_555
Zn2_2 O5_2 1_555 1_555
C1_3 C2_3 1_555 1_555
C2_3 O2_2 1_555 1_555
O1_2 C1_3 1_555 1_555
O2_2 Zn1_2 1_555 1_555
O4_2 Zn1_2 1_555 1_555
C4_2 C5_2 1_555 1_555
O5_2 C4_2 1_555 1_555
C7_2 C8_2 1_555 1_555
C8_2 O10_2 1_555 1_555
O9_2 Zn1_2 1_555 1_555
O10_2 Zn1_2 1_555 1_555
O11_2 Zn2_2 1_555 1_555
O12_2 Zn2_2 1_555 1_555
O17_2 C4_2 1_555 1_555
O19_2 Zn2_2 1_555 1_555
O20_2 C10_2 1_555 1_555
Zn5 O21_2 1_555 1_555
Zn4_2 O17_2 1_555 1_555
C11_2 C12_2 1_555 1_555
C12_2 O22_2 1_555 1_555
O21_2 C11_2 1_555 1_555
O22_2 Zn5 1_555 1_555
O23_2 Zn4_2 1_555 1_555
O24_2 Zn4_2 1_555 1_555
O29_2 Zn4_2 1_555 1_555
C7_2 O9_2 1_555 1_555
C7_2 O12_2 1_555 1_555
C8_2 O11_2 1_555 1_555
C10_2 O19_2 1_555 1_555
C11_2 O24_2 1_555 1_555
C12_2 O23_2 1_555 1_555
C1_4 C2_4 1_555 1_555
O25 C1_4 1_555 1_555
O26 C2_4 1_555 1_555
C9_2 O15_2 1_555 1_555
C3_2 O3_2 1_555 1_555
C6_2 O7_2 1_555 1_555
O7_2 Zn7_2 1_555 1_555
C6_2 O8_2 1_555 1_555
Zn6_2 O16_2 1_555 1_555
O16_3 C9_3 1_555 1_555
Zn6_3 O16_3 1_555 1_555
C9_3 O27 1_555 1_555
C3_3 O3_3 1_555 1_555
C6_3 O7_3 1_555 1_555
O7_3 Zn7_3 1_555 1_555
C10_3 C6_3 1_555 1_555
O20_3 C10_3 1_555 1_555
Zn7_3 O20_3 1_555 1_555
C3_3 O28 1_555 1_555
C6_3 O30 1_555 1_555
C10_3 O29 1_555 1_555
C9_4 O27_2 1_555 1_555
C10_4 O29_2 1_555 1_555
C3_4 O3_4 1_555 1_555
C6_4 O7_4 1_555 1_555
O7_4 Zn7_4 1_555 1_555
C1_5 C2_5 1_555 1_555
O14_2 C2_5 1_555 1_555
O14_2 Zn6_4 1_555 1_555
Zn7 O5_3 1_555 1_555
C1_6 C2_6 1_555 1_555
C2_6 O2_3 1_555 1_555
O2_3 Zn6 1_555 1_555
C4_3 C5_3 1_555 1_555
C5_3 O6_3 1_555 1_555
O5_3 C4_3 1_555 1_555
O6_3 Zn7 1_555 1_555
C7_3 C8_3 1_555 1_555
C8_3 O10_3 1_555 1_555
O9_3 Zn6 1_555 1_555
O10_3 Zn6 1_555 1_555
O11_3 Zn7 1_555 1_555
O12_3 Zn7 1_555 1_555
O17_3 C4_3 1_555 1_555
O18_3 C5_3 1_555 1_555
Zn6_3 O21_3 1_555 1_555
Zn7_3 O17_3 1_555 1_555
C11_3 C12_3 1_555 1_555
C12_3 O22_3 1_555 1_555
O21_3 C11_3 1_555 1_555
O22_3 Zn6_3 1_555 1_555
O23_3 Zn7_3 1_555 1_555
O24_3 Zn7_3 1_555 1_555
O25_2 Zn6_3 1_555 1_555
O26_2 Zn6_3 1_555 1_555
C7_3 O9_3 1_555 1_555
C7_3 O12_3 1_555 1_555
C8_3 O11_3 1_555 1_555
O18_3 Zn7_3 1_555 1_555
C11_3 O24_3 1_555 1_555
C12_3 O23_3 1_555 1_555
C1_7 C2_7 1_555 1_555
O25_2 C1_7 1_555 1_555
O26_2 C2_7 1_555 1_555
Zn6_2 O1_4 1_555 1_555
Zn7_2 O5_4 1_555 1_555
C1_8 C2_8 1_555 1_555
C2_8 O2_4 1_555 1_555
O1_4 C1_8 1_555 1_555
O2_4 Zn6_2 1_555 1_555
C4_4 C5_4 1_555 1_555
O5_4 C4_4 1_555 1_555
C7_4 C8_4 1_555 1_555
C8_4 O10_4 1_555 1_555
O9_4 Zn6_2 1_555 1_555
O10_4 Zn6_2 1_555 1_555
O11_4 Zn7_2 1_555 1_555
O12_4 Zn7_2 1_555 1_555
O17_4 C4_4 1_555 1_555
Zn6_4 O21_4 1_555 1_555
Zn7_4 O17_4 1_555 1_555
C11_4 C12_4 1_555 1_555
C12_4 O22_4 1_555 1_555
O21_4 C11_4 1_555 1_555
O22_4 Zn6_4 1_555 1_555
O23_4 Zn7_4 1_555 1_555
O24_4 Zn7_4 1_555 1_555
C7_4 O9_4 1_555 1_555
C7_4 O12_4 1_555 1_555
C8_4 O11_4 1_555 1_555
C11_4 O24_4 1_555 1_555
C12_4 O23_4 1_555 1_555
N1 C13 1_555 1_555
C13 H1 1_555 1_555
C14 C13 1_555 1_555
H2 C14 1_555 1_555
C15 C14 1_555 1_555
C16 C15 1_555 1_555
H3 C16 1_555 1_555
C17 N1 1_555 1_555
H4 C17 1_555 1_555
C18 N1 1_555 1_555
H5 C18 1_555 1_555
H6 C18 1_555 1_555
C19 C18 1_555 1_555
H7 C19 1_555 1_555
H8 C19 1_555 1_555
H9 C19 1_555 1_555
N2 C20 1_555 1_555
C20 H10 1_555 1_555
C21 C20 1_555 1_555
H11 C21 1_555 1_555
C22 C15 1_555 1_555
C23 C22 1_555 1_555
H12 C23 1_555 1_555
C24 N2 1_555 1_555
H13 C24 1_555 1_555
C25 N2 1_555 1_555
H14 C25 1_555 1_555
H15 C25 1_555 1_555
C16 C17 1_555 1_555
C21 C22 1_555 1_555
C23 C24 1_555 1_555
H16 C26 1_555 1_555
H17 C26 1_555 1_555
H18 C26 1_555 1_555
N1_2 C13_2 1_555 1_555
C13_2 H1_2 1_555 1_555
C14_2 C13_2 1_555 1_555
H2_2 C14_2 1_555 1_555
C15_2 C14_2 1_555 1_555
C16_2 C15_2 1_555 1_555
H3_2 C16_2 1_555 1_555
C17_2 N1_2 1_555 1_555
H4_2 C17_2 1_555 1_555
C18_2 N1_2 1_555 1_555
H5_2 C18_2 1_555 1_555
H6_2 C18_2 1_555 1_555
C19_2 C18_2 1_555 1_555
H7_2 C19_2 1_555 1_555
H8_2 C19_2 1_555 1_555
H9_2 C19_2 1_555 1_555
N2_2 C20_2 1_555 1_555
C20_2 H10_2 1_555 1_555
C21_2 C20_2 1_555 1_555
H11_2 C21_2 1_555 1_555
C22_2 C15_2 1_555 1_555
C23_2 C22_2 1_555 1_555
H12_2 C23_2 1_555 1_555
C24_2 N2_2 1_555 1_555
H13_2 C24_2 1_555 1_555
C25_2 N2_2 1_555 1_555
H14_2 C25_2 1_555 1_555
H15_2 C25_2 1_555 1_555
C16_2 C17_2 1_555 1_555
C21_2 C22_2 1_555 1_555
C23_2 C24_2 1_555 1_555
H16_2 C26_2 1_555 1_555
H17_2 C26_2 1_555 1_555
H18_2 C26_2 1_555 1_555
H16_3 C26_3 1_555 1_555
H17_3 C26_3 1_555 1_555
H18_3 C26_3 1_555 1_555
N1_3 C13_3 1_555 1_555
C13_3 H1_3 1_555 1_555
C14_3 C13_3 1_555 1_555
H2_3 C14_3 1_555 1_555
C15_3 C14_3 1_555 1_555
C16_3 C15_3 1_555 1_555
H3_3 C16_3 1_555 1_555
C17_3 N1_3 1_555 1_555
H4_3 C17_3 1_555 1_555
C18_3 N1_3 1_555 1_555
H5_3 C18_3 1_555 1_555
H6_3 C18_3 1_555 1_555
C19_3 C18_3 1_555 1_555
H7_3 C19_3 1_555 1_555
H8_3 C19_3 1_555 1_555
H9_3 C19_3 1_555 1_555
N2_3 C20_3 1_555 1_555
C20_3 H10_3 1_555 1_555
C21_3 C20_3 1_555 1_555
H11_3 C21_3 1_555 1_555
C22_3 C15_3 1_555 1_555
C23_3 C22_3 1_555 1_555
H12_3 C23_3 1_555 1_555
C24_3 N2_3 1_555 1_555
H13_3 C24_3 1_555 1_555
C25_3 N2_3 1_555 1_555
H14_3 C25_3 1_555 1_555
H15_3 C25_3 1_555 1_555
C16_3 C17_3 1_555 1_555
C21_3 C22_3 1_555 1_555
C23_3 C24_3 1_555 1_555
H16_4 C26_4 1_555 1_555
H17_4 C26_4 1_555 1_555
H18_4 C26_4 1_555 1_555
N1_4 C13_4 1_555 1_555
C13_4 H1_4 1_555 1_555
C14_4 C13_4 1_555 1_555
H2_4 C14_4 1_555 1_555
C15_4 C14_4 1_555 1_555
C16_4 C15_4 1_555 1_555
H3_4 C16_4 1_555 1_555
C17_4 N1_4 1_555 1_555
H4_4 C17_4 1_555 1_555
C18_4 N1_4 1_555 1_555
H5_4 C18_4 1_555 1_555
H6_4 C18_4 1_555 1_555
C19_4 C18_4 1_555 1_555
H7_4 C19_4 1_555 1_555
H8_4 C19_4 1_555 1_555
H9_4 C19_4 1_555 1_555
N2_4 C20_4 1_555 1_555
C20_4 H10_4 1_555 1_555
C21_4 C20_4 1_555 1_555
H11_4 C21_4 1_555 1_555
C22_4 C15_4 1_555 1_555
C23_4 C22_4 1_555 1_555
H12_4 C23_4 1_555 1_555
C24_4 N2_4 1_555 1_555
H13_4 C24_4 1_555 1_555
C25_4 N2_4 1_555 1_555
H14_4 C25_4 1_555 1_555
H15_4 C25_4 1_555 1_555
C16_4 C17_4 1_555 1_555
C21_4 C22_4 1_555 1_555
C23_4 C24_4 1_555 1_555
N3 C27 1_555 1_555
C27 H19 1_555 1_555
C28 C27 1_555 1_555
H20 C28 1_555 1_555
C29 C28 1_555 1_555
C30 C29 1_555 1_555
H21 C30 1_555 1_555
C31 N3 1_555 1_555
H22 C31 1_555 1_555
C32 N3 1_555 1_555
H23 C32 1_555 1_555
H24 C32 1_555 1_555
C33 C32 1_555 1_555
H25 C33 1_555 1_555
H26 C33 1_555 1_555
H27 C33 1_555 1_555
N4 C34 1_555 1_555
C34 H28 1_555 1_555
C35 C34 1_555 1_555
H29 C35 1_555 1_555
C36 C29 1_555 1_555
C37 C36 1_555 1_555
H30 C37 1_555 1_555
C38 N4 1_555 1_555
H31 C38 1_555 1_555
C39 N4 1_555 1_555
H32 C39 1_555 1_555
H33 C39 1_555 1_555
C40 C39 1_555 1_555
H34 C40 1_555 1_555
H35 C40 1_555 1_555
H36 C40 1_555 1_555
C30 C31 1_555 1_555
C35 C36 1_555 1_555
C37 C38 1_555 1_555
N3_2 C27_2 1_555 1_555
C27_2 H19_2 1_555 1_555
C28_2 C27_2 1_555 1_555
H20_2 C28_2 1_555 1_555
C29_2 C28_2 1_555 1_555
C30_2 C29_2 1_555 1_555
H21_2 C30_2 1_555 1_555
C31_2 N3_2 1_555 1_555
H22_2 C31_2 1_555 1_555
C32_2 N3_2 1_555 1_555
H23_2 C32_2 1_555 1_555
H24_2 C32_2 1_555 1_555
C33_2 C32_2 1_555 1_555
H25_2 C33_2 1_555 1_555
H26_2 C33_2 1_555 1_555
H27_2 C33_2 1_555 1_555
N4_2 C34_2 1_555 1_555
C34_2 H28_2 1_555 1_555
C35_2 C34_2 1_555 1_555
H29_2 C35_2 1_555 1_555
C36_2 C29_2 1_555 1_555
C37_2 C36_2 1_555 1_555
H30_2 C37_2 1_555 1_555
C38_2 N4_2 1_555 1_555
H31_2 C38_2 1_555 1_555
C39_2 N4_2 1_555 1_555
H32_2 C39_2 1_555 1_555
H33_2 C39_2 1_555 1_555
C40_2 C39_2 1_555 1_555
H34_2 C40_2 1_555 1_555
H35_2 C40_2 1_555 1_555
H36_2 C40_2 1_555 1_555
C30_2 C31_2 1_555 1_555
C35_2 C36_2 1_555 1_555
C37_2 C38_2 1_555 1_555
N3_3 C27_3 1_555 1_555
C27_3 H19_3 1_555 1_555
C28_3 C27_3 1_555 1_555
H20_3 C28_3 1_555 1_555
C29_3 C28_3 1_555 1_555
C30_3 C29_3 1_555 1_555
H21_3 C30_3 1_555 1_555
C31_3 N3_3 1_555 1_555
H22_3 C31_3 1_555 1_555
C32_3 N3_3 1_555 1_555
H23_3 C32_3 1_555 1_555
H24_3 C32_3 1_555 1_555
C33_3 C32_3 1_555 1_555
H25_3 C33_3 1_555 1_555
H26_3 C33_3 1_555 1_555
H27_3 C33_3 1_555 1_555
N4_3 C34_3 1_555 1_555
C34_3 H28_3 1_555 1_555
C35_3 C34_3 1_555 1_555
H29_3 C35_3 1_555 1_555
C36_3 C29_3 1_555 1_555
C37_3 C36_3 1_555 1_555
H30_3 C37_3 1_555 1_555
C38_3 N4_3 1_555 1_555
H31_3 C38_3 1_555 1_555
C39_3 N4_3 1_555 1_555
H32_3 C39_3 1_555 1_555
H33_3 C39_3 1_555 1_555
C40_3 C39_3 1_555 1_555
H34_3 C40_3 1_555 1_555
H35_3 C40_3 1_555 1_555
H36_3 C40_3 1_555 1_555
C30_3 C31_3 1_555 1_555
C35_3 C36_3 1_555 1_555
C37_3 C38_3 1_555 1_555
N3_4 C27_4 1_555 1_555
C27_4 H19_4 1_555 1_555
C28_4 C27_4 1_555 1_555
H20_4 C28_4 1_555 1_555
C29_4 C28_4 1_555 1_555
C30_4 C29_4 1_555 1_555
H21_4 C30_4 1_555 1_555
C31_4 N3_4 1_555 1_555
H22_4 C31_4 1_555 1_555
C32_4 N3_4 1_555 1_555
H23_4 C32_4 1_555 1_555
H24_4 C32_4 1_555 1_555
C33_4 C32_4 1_555 1_555
H25_4 C33_4 1_555 1_555
H26_4 C33_4 1_555 1_555
H27_4 C33_4 1_555 1_555
N4_4 C34_4 1_555 1_555
C34_4 H28_4 1_555 1_555
C35_4 C34_4 1_555 1_555
H29_4 C35_4 1_555 1_555
C36_4 C29_4 1_555 1_555
C37_4 C36_4 1_555 1_555
H30_4 C37_4 1_555 1_555
C38_4 N4_4 1_555 1_555
H31_4 C38_4 1_555 1_555
C39_4 N4_4 1_555 1_555
H32_4 C39_4 1_555 1_555
H33_4 C39_4 1_555 1_555
C40_4 C39_4 1_555 1_555
H34_4 C40_4 1_555 1_555
H35_4 C40_4 1_555 1_555
H36_4 C40_4 1_555 1_555
C30_4 C31_4 1_555 1_555
C35_4 C36_4 1_555 1_555
C37_4 C38_4 1_555 1_555

#END
