
###############################################################################
#
# This file contains modified crystal structure data generated from the
# MOF subset of the Cambridge Structural Database (CSD) v543 
# hosted by the Cambridge Crystallographic Data Centre (CCDC).
#
# This work is licensed under the Creative Commons
# Attribution-NonCommercial-ShareAlike 4.0 International License.
# To view a copy of this license, visit
# http://creativecommons.org/licenses/by-nc-sa/4.0/
# or send a letter to
# Creative Commons, PO Box 1866, Mountain View, CA 94042, USA.
#
# CIF created using the CSD Python API on 29 September 2022
# The structure has been converted into the P1 space group
# The structure has a 3D framework
# The original CSD entry RAVVIU is in the monoclinic crystal system
# The framework has been calculated to contain at least 10.0% void space
# The void calculation uses a probe of radius 1.32A, grid spacing 0.4
#
###############################################################################

data_RAVVIU
_chemical_formula_moiety         '(C24 H24 Co20 O48)n'
_symmetry_cell_setting           triclinic
_symmetry_space_group_name_H-M   'P 1'
_symmetry_Int_Tables_number      1
_space_group_name_Hall           'P 1'
loop_
_symmetry_equiv_pos_site_id
_symmetry_equiv_pos_as_xyz
1 x,y,z
_cell_length_a                   11.247(2)
_cell_length_b                   9.8119(15)
_cell_length_c                   18.103(3)
_cell_angle_alpha                90
_cell_angle_beta                 127.245(3)
_cell_angle_gamma                90
_cell_volume                     1590.32
loop_
_atom_site_label
_atom_site_type_symbol
_atom_site_fract_x
_atom_site_fract_y
_atom_site_fract_z
Co14 Co -0.0000 0.0000 0.0000
Co14_2 Co -0.0000 0.0000 1.0000
Co14_3 Co -0.0000 1.0000 0.0000
Co14_4 Co -0.0000 1.0000 1.0000
Co1 Co 0.37793(4) 0.07973(4) 0.13304(3)
Co3 Co 0.5000 0.0000 0.0000
O1 O 0.4357(2) 0.20098(19) 0.24499(14)
O2 O 0.5512(2) 0.0607(2) 0.36810(15)
O4 O 0.6838(3) 0.0053(2) 0.14060(16)
O5 O 0.4555(2) 0.2578(2) 0.10840(14)
O11 O 0.1628(2) 0.1550(2) 0.05988(15)
O12 O 0.2032(2) 0.3791(2) 0.08991(16)
C1 C 0.4985(4) 0.1731(3) 0.3301(2)
C3 C 0.4704(4) 0.2893(3) 0.0465(2)
C6 C 0.1211(4) 0.2788(3) 0.0489(2)
H1 H 0.503(4) 0.244(4) 0.368(2)
H3 H 0.483(4) 0.383(4) 0.038(3)
H4 H 0.018(4) 0.295(3) 0.007(2)
Co7 Co 0.62207(4) 0.57973(4) 0.36696(3)
Co9 Co 0.42908(4) 0.39038(4) 0.18886(3)
Co12 Co 0.57092(4) 0.89038(4) 0.31114(3)
Co13 Co 0.5000 0.5000 0.5000
Co14_5 Co 1.0000 0.0000 0.0000
O15 O 0.5643(2) 0.70098(19) 0.25501(14)
O17 O 0.4488(2) 0.5607(2) 0.13190(15)
O19 O 0.4088(2) 0.49606(19) 0.28019(15)
O21 O 0.3162(3) 0.5053(2) 0.35940(16)
O26 O 0.6548(2) 0.4163(2) 0.30469(15)
O29 O 0.8847(2) 0.1164(2) 0.03330(16)
C7 C 0.5015(4) 0.6731(3) 0.1699(2)
C9 C 0.3038(4) 0.4879(3) 0.2876(2)
C11 C 0.7731(4) 0.1079(3) 0.0301(2)
H7 H 0.497(4) 0.744(4) 0.132(2)
H9 H 0.211(4) 0.465(4) 0.234(3)
H12 H 0.766(4) 0.161(3) 0.071(2)
Co2 Co 0.42908(4) 0.10962(4) 0.68886(3)
Co3_2 Co 0.5000 0.0000 1.0000
O6 O 0.4792(3) 0.2093(2) 0.99709(15)
Co14_6 Co 1.0000 0.0000 1.0000
O14 O 0.4357(2) 0.29902(19) 0.74499(14)
O18 O 0.4088(2) 0.00394(19) 0.78019(15)
O23 O 0.4555(2) 0.2422(2) 0.60840(14)
O25 O 0.6548(2) 0.0837(2) 0.80469(15)
O28 O 0.6610(2) 0.0277(2) 0.97656(15)
O33 O 0.2032(2) 0.1209(2) 0.58991(16)
C8 C 0.3038(4) 0.0121(3) 0.7876(2)
H8 H 0.211(4) 0.035(4) 0.734(3)
Co3_3 Co 0.5000 1.0000 0.0000
O3 O 0.5912(2) 0.99606(19) 0.21981(15)
O7 O 0.3452(2) 0.9163(2) 0.19531(15)
O8 O 0.1002(2) 0.8958(2) 0.12417(16)
O9 O 0.3390(2) 0.9723(2) 0.02344(15)
C2 C 0.6962(4) 0.9879(3) 0.2124(2)
C4 C 0.2326(3) 0.8711(3) 0.1877(2)
H2 H 0.789(4) 0.965(4) 0.266(3)
H6 H 0.250(4) 0.807(4) 0.238(3)
Co14_7 Co 1.0000 1.0000 0.0000
O24 O 0.5208(3) 0.7907(2) 0.00291(15)
Co3_4 Co 0.5000 1.0000 1.0000
O10 O 0.1153(2) 0.8836(2) 0.96670(16)
C5 C 0.2269(4) 0.8921(3) 0.9699(2)
H5 H 0.234(4) 0.839(3) 0.929(2)
Co5 Co 0.62207(4) 0.92027(4) 0.86696(3)
Co10 Co 0.57092(4) 0.60962(4) 0.81114(3)
Co14_8 Co 1.0000 1.0000 1.0000
O13 O 0.5643(2) 0.79902(19) 0.75501(14)
O16 O 0.4488(2) 0.9393(2) 0.63190(15)
O20 O 0.3162(3) 0.9947(2) 0.85940(16)
O22 O 0.5445(2) 0.7422(2) 0.89160(14)
O32 O 0.8372(2) 0.8450(2) 0.94012(15)
C10 C 0.5296(4) 0.7107(3) 0.9535(2)
H10 H 0.517(4) 0.617(4) 0.962(3)
O27 O 0.8998(2) 0.1042(2) 0.87583(16)
O34 O 0.7968(2) 0.6209(2) 0.91009(16)
C12 C 0.8789(4) 0.7212(3) 0.9511(2)
H11 H 0.982(4) 0.705(3) 0.993(2)
Co4 Co -0.0000 0.5000 0.5000
Co6 Co 0.37793(4) 0.42027(4) 0.63304(3)
O27_2 O 0.1002(2) 0.6042(2) 0.62417(16)
O30 O 0.1153(2) 0.6164(2) 0.46670(16)
O31 O 0.1628(2) 0.3450(2) 0.55988(15)
C12_2 C 0.1211(4) 0.2212(3) 0.5489(2)
H11_2 H 0.018(4) 0.205(3) 0.507(2)
Co4_2 Co 1.0000 0.5000 0.5000
O5_2 O 0.5445(2) 0.7578(2) 0.39160(14)
O6_2 O 0.5208(3) 0.7093(2) 0.50291(15)
O8_2 O 0.8998(2) 0.3958(2) 0.37583(16)
O9_2 O 0.6610(2) 0.4723(2) 0.47656(15)
O10_2 O 0.8847(2) 0.3836(2) 0.53330(16)
O11_2 O 0.8372(2) 0.6550(2) 0.44012(15)
O12_2 O 0.7968(2) 0.8791(2) 0.41009(16)
C3_2 C 0.5296(4) 0.7893(3) 0.4535(2)
C4_2 C 0.7674(3) 0.3711(3) 0.3123(2)
C5_2 C 0.7731(4) 0.3921(3) 0.5301(2)
C6_2 C 0.8789(4) 0.7788(3) 0.4511(2)
H3_2 H 0.517(4) 0.883(4) 0.462(3)
H4_2 H 0.982(4) 0.795(3) 0.493(2)
H5_2 H 0.766(4) 0.339(3) 0.571(2)
H6_2 H 0.750(4) 0.307(4) 0.262(3)
O16_2 O 0.5512(2) 0.4393(2) 0.86810(15)
O18_2 O 0.5912(2) 0.50394(19) 0.71981(15)
O20_2 O 0.6838(3) 0.4947(2) 0.64060(16)
O24_2 O 0.4792(3) 0.2907(2) 0.49709(15)
O25_2 O 0.3452(2) 0.5837(2) 0.69531(15)
O28_2 O 0.3390(2) 0.5277(2) 0.52344(15)
C8_2 C 0.6962(4) 0.5121(3) 0.7124(2)
C10_2 C 0.4704(4) 0.2107(3) 0.5465(2)
C11_2 C 0.2269(4) 0.6079(3) 0.4699(2)
H8_2 H 0.789(4) 0.535(4) 0.766(3)
H10_2 H 0.483(4) 0.117(4) 0.538(3)
H12_2 H 0.234(4) 0.661(3) 0.429(2)
C4_3 C 0.7674(3) 0.1289(3) 0.8123(2)
H6_3 H 0.750(4) 0.193(4) 0.762(3)
C1_2 C 0.5015(4) 0.8269(3) 0.6699(2)
H1_2 H 0.497(4) 0.756(4) 0.632(2)
C7_2 C 0.4985(4) 0.3269(3) 0.8301(2)
H7_2 H 0.503(4) 0.256(4) 0.868(2)
C4_4 C 0.2326(3) 0.6289(3) 0.6877(2)
H6_4 H 0.250(4) 0.693(4) 0.738(3)
loop_
_geom_bond_atom_site_label_1
_geom_bond_atom_site_label_2
_geom_bond_site_symmetry_1
_geom_bond_site_symmetry_2
Co1 O1 1_555 1_555
Co3 O4 1_555 1_555
O1 C1 1_555 1_555
O2 C1 1_555 1_555
O5 Co1 1_555 1_555
O11 Co1 1_555 1_555
O12 C6 1_555 1_555
C1 H1 1_555 1_555
C3 O5 1_555 1_555
C6 O11 1_555 1_555
H3 C3 1_555 1_555
H4 C6 1_555 1_555
Co7 O15 1_555 1_555
Co9 O1 1_555 1_555
Co12 O15 1_555 1_555
Co13 O21 1_555 1_555
Co14_5 O29 1_555 1_555
O15 C7 1_555 1_555
O17 Co9 1_555 1_555
O19 Co7 1_555 1_555
O21 C9 1_555 1_555
O26 Co7 1_555 1_555
O29 C11 1_555 1_555
C7 O17 1_555 1_555
C9 O19 1_555 1_555
H7 C7 1_555 1_555
H9 C9 1_555 1_555
H12 C11 1_555 1_555
Co14 O11 1_555 1_555
O5 Co9 1_555 1_555
O12 Co9 1_555 1_555
Co9 O19 1_555 1_555
Co9 O26 1_555 1_555
Co2 O14 1_555 1_555
O6 Co3_2 1_555 1_555
O18 Co2 1_555 1_555
O23 Co2 1_555 1_555
O25 Co2 1_555 1_555
O28 Co3_2 1_555 1_555
O33 Co2 1_555 1_555
C8 O18 1_555 1_555
H8 C8 1_555 1_555
Co14_3 O8 1_555 1_555
O8 C4 1_555 1_555
C2 O3 1_555 1_555
C4 O7 1_555 1_555
H2 C2 1_555 1_555
H6 C4 1_555 1_555
O24 Co3_3 1_555 1_555
Co3_3 O9 1_555 1_555
O3 Co12 1_555 1_555
O7 Co12 1_555 1_555
O10 Co14_4 1_555 1_555
H5 C5 1_555 1_555
Co5 O13 1_555 1_555
Co10 O13 1_555 1_555
O20 Co3_4 1_555 1_555
O22 Co5 1_555 1_555
O32 Co5 1_555 1_555
C10 O22 1_555 1_555
H10 C10 1_555 1_555
O10 C5 1_555 1_555
Co10 O22 1_555 1_555
Co14_8 O32 1_555 1_555
O27 Co14_6 1_555 1_555
Co10 O34 1_555 1_555
O34 C12 1_555 1_555
C12 O32 1_555 1_555
H11 C12 1_555 1_555
Co6 O31 1_555 1_555
O27_2 Co4 1_555 1_555
O30 Co4 1_555 1_555
O31 Co4 1_555 1_555
O33 C12_2 1_555 1_555
C12_2 O31 1_555 1_555
H11_2 C12_2 1_555 1_555
Co4_2 O8_2 1_555 1_555
O5_2 Co7 1_555 1_555
O6_2 Co13 1_555 1_555
O8_2 C4_2 1_555 1_555
O9_2 Co7 1_555 1_555
O10_2 Co4_2 1_555 1_555
O11_2 Co7 1_555 1_555
O12_2 C6_2 1_555 1_555
C3_2 O5_2 1_555 1_555
C4_2 O26 1_555 1_555
C5_2 O9_2 1_555 1_555
C6_2 O11_2 1_555 1_555
H3_2 C3_2 1_555 1_555
H4_2 C6_2 1_555 1_555
H5_2 C5_2 1_555 1_555
H6_2 C4_2 1_555 1_555
Co6 O14 1_555 1_555
O16_2 Co10 1_555 1_555
O18_2 Co10 1_555 1_555
O20_2 Co13 1_555 1_555
O23 Co6 1_555 1_555
O24_2 Co13 1_555 1_555
O25_2 Co10 1_555 1_555
O28_2 Co13 1_555 1_555
O30 C11_2 1_555 1_555
C8_2 O18_2 1_555 1_555
C10_2 O23 1_555 1_555
C11_2 O28_2 1_555 1_555
H8_2 C8_2 1_555 1_555
H10_2 C10_2 1_555 1_555
H12_2 C11_2 1_555 1_555
Co13 O9_2 1_555 1_555
Co4_2 O11_2 1_555 1_555
O5_2 Co12 1_555 1_555
O6_2 C3_2 1_555 1_555
O10_2 C5_2 1_555 1_555
O12_2 Co12 1_555 1_555
Co6 O18_2 1_555 1_555
Co6 O25_2 1_555 1_555
Co6 O28_2 1_555 1_555
O20_2 C8_2 1_555 1_555
O24_2 C10_2 1_555 1_555
O27 C4_3 1_555 1_555
C4_3 O25 1_555 1_555
H6_3 C4_3 1_555 1_555
O13 C1_2 1_555 1_555
O16 C1_2 1_555 1_555
C1_2 H1_2 1_555 1_555
O14 C7_2 1_555 1_555
C7_2 O16_2 1_555 1_555
H7_2 C7_2 1_555 1_555
O27_2 C4_4 1_555 1_555
C4_4 O25_2 1_555 1_555
H6_4 C4_4 1_555 1_555

#END
