
###############################################################################
#
# This file contains modified crystal structure data generated from the
# MOF subset of the Cambridge Structural Database (CSD) v543 
# hosted by the Cambridge Crystallographic Data Centre (CCDC).
#
# This work is licensed under the Creative Commons
# Attribution-NonCommercial-ShareAlike 4.0 International License.
# To view a copy of this license, visit
# http://creativecommons.org/licenses/by-nc-sa/4.0/
# or send a letter to
# Creative Commons, PO Box 1866, Mountain View, CA 94042, USA.
#
# CIF created using the CSD Python API on 29 September 2022
# The structure has been converted into the P1 space group
# The structure has a 3D framework
# The original CSD entry RAVVIU01 is in the monoclinic crystal system
# The framework has been calculated to contain at least 10.0% void space
# The void calculation uses a probe of radius 1.32A, grid spacing 0.4
#
###############################################################################

data_RAVVIU01
_chemical_formula_moiety         '(C24 H24 Co19 O47)n'
_symmetry_cell_setting           triclinic
_symmetry_space_group_name_H-M   'P 1'
_symmetry_Int_Tables_number      1
_space_group_name_Hall           'P 1'
loop_
_symmetry_equiv_pos_site_id
_symmetry_equiv_pos_as_xyz
1 x,y,z
_cell_length_a                   11.2539(16)
_cell_length_b                   9.8321(10)
_cell_length_c                   18.108(3)
_cell_angle_alpha                90
_cell_angle_beta                 127.222(2)
_cell_angle_gamma                90
_cell_volume                     1595.49
loop_
_atom_site_label
_atom_site_type_symbol
_atom_site_fract_x
_atom_site_fract_y
_atom_site_fract_z
Co4 Co 0.0000 0.5000 0.5000
Co7 Co 0.37793(4) 0.42056(4) 0.63307(3)
Co12 Co 0.42931(4) 0.11028(4) 0.68910(3)
O27 O 0.1005(2) 0.6043(2) 0.62383(15)
O30 O 0.1155(2) 0.6153(2) 0.46665(16)
O32 O 0.1628(2) 0.34520(19) 0.56006(14)
O34 O 0.2037(2) 0.12208(19) 0.59039(15)
C12 C 0.1215(3) 0.2212(3) 0.5495(2)
H11 H 0.018(3) 0.212(3) 0.509(2)
O1 O 0.4368(2) 0.19983(18) 0.24547(13)
O2 O 0.5521(2) 0.0603(2) 0.36827(14)
O4 O 0.6835(2) 0.0044(2) 0.14047(15)
C1 C 0.4993(3) 0.1716(3) 0.3301(2)
H1 H 0.508(3) 0.242(3) 0.369(2)
Co5 Co 0.37793(4) 0.07944(4) 0.13307(3)
Co8 Co 0.42931(4) 0.38972(4) 0.18910(3)
Co13 Co 0.5000 0.0000 0.0000
Co13_2 Co 0.5000 0.0000 1.0000
Co1 Co 0.62207(4) 0.57944(4) 0.36693(3)
Co2 Co 0.57069(4) 0.88972(4) 0.31090(3)
Co3 Co 0.5000 0.5000 0.5000
Co4_2 Co 1.0000 0.5000 0.5000
O3 O 0.5908(2) 0.99515(18) 0.21954(14)
O5 O 0.5445(2) 0.75713(18) 0.39150(13)
O6 O 0.4799(2) 0.2911(2) 0.49772(15)
O7 O 0.6551(2) 0.41644(19) 0.30478(14)
O8 O 0.8995(2) 0.3957(2) 0.37617(15)
O9 O 0.3389(2) 0.5274(2) 0.52343(14)
O11 O 0.8372(2) 0.65480(19) 0.43994(14)
O12 O 0.7963(2) 0.87792(19) 0.40961(15)
C2 C 0.6950(4) 0.9865(3) 0.2120(2)
C3 C 0.4714(4) 0.2119(3) 0.5472(2)
C4 C 0.7678(3) 0.3714(3) 0.3126(2)
C5 C 0.2264(3) 0.6069(3) 0.4699(2)
C6 C 0.8785(3) 0.7788(3) 0.4505(2)
H2 H 0.786(5) 0.962(4) 0.261(3)
H3 H 0.481(4) 0.121(4) 0.536(2)
H4 H 0.982(3) 0.788(3) 0.491(2)
H5 H 0.228(3) 0.658(3) 0.429(2)
H6 H 0.751(3) 0.302(3) 0.267(2)
Co11 Co 0.57069(4) 0.61028(4) 0.81090(3)
Co13_3 Co 0.5000 1.0000 0.0000
O13 O 0.5632(2) 0.69983(18) 0.25453(13)
O14 O 0.4368(2) 0.30017(18) 0.74547(13)
O15 O 0.5632(2) 0.80017(18) 0.75453(13)
O16 O 0.4479(2) 0.5603(2) 0.13173(14)
O17 O 0.5521(2) 0.4397(2) 0.86827(14)
O18 O 0.4092(2) 0.49515(18) 0.28046(14)
O19 O 0.5908(2) 0.50485(18) 0.71954(14)
O20 O 0.6835(2) 0.4956(2) 0.64047(15)
O21 O 0.3165(2) 0.5044(2) 0.35953(15)
O22 O 0.4555(2) 0.24287(18) 0.60850(13)
O23 O 0.5445(2) 0.74287(18) 0.89150(13)
O24 O 0.5201(2) 0.7089(2) 0.50228(15)
O25 O 0.3449(2) 0.91644(19) 0.19522(14)
O26 O 0.3449(2) 0.58356(19) 0.69522(14)
O28 O 0.6611(2) 0.4726(2) 0.47657(14)
O29 O 0.8845(2) 0.3847(2) 0.53335(16)
O33 O 0.7963(2) 0.62208(19) 0.90961(15)
C7 C 0.5007(3) 0.6716(3) 0.1699(2)
C8 C 0.6950(4) 0.5135(3) 0.7120(2)
C9 C 0.3050(4) 0.4865(3) 0.2880(2)
C10 C 0.5286(4) 0.7881(3) 0.4528(2)
C11 C 0.7736(3) 0.3931(3) 0.5301(2)
H7 H 0.492(3) 0.742(3) 0.131(2)
H8 H 0.786(5) 0.538(4) 0.761(3)
H9 H 0.214(5) 0.462(4) 0.239(3)
H10 H 0.519(4) 0.879(4) 0.464(2)
H12 H 0.772(3) 0.342(3) 0.571(2)
Co13_4 Co 0.5000 1.0000 1.0000
Co14 Co -0.0000 -0.0000 -0.0000
Co14_2 Co 0.0000 -0.0000 1.0000
Co14_3 Co -0.0000 1.0000 -0.0000
Co14_4 Co 0.0000 1.0000 1.0000
O5_2 O 0.4555(2) 0.25713(18) 0.10850(13)
O10 O 0.8845(2) 0.1153(2) 0.03335(16)
O11_2 O 0.1628(2) 0.15480(19) 0.06006(14)
O12_2 O 0.2037(2) 0.37792(19) 0.09039(15)
C5_2 C 0.7736(3) 0.1069(3) 0.0301(2)
C6_2 C 0.1215(3) 0.2788(3) 0.0495(2)
H4_2 H 0.018(3) 0.288(3) 0.009(2)
H5_2 H 0.772(3) 0.158(3) 0.071(2)
Co14_5 Co 1.0000 -0.0000 -0.0000
C10_2 C 0.4714(4) 0.2881(3) 0.0472(2)
H10_2 H 0.481(4) 0.379(4) 0.036(2)
O9_2 O 0.6611(2) 0.0274(2) 0.97657(14)
Co14_6 Co 1.0000 -0.0000 1.0000
O19_2 O 0.4092(2) 0.00485(18) 0.78046(14)
O24_2 O 0.4799(2) 0.2089(2) 0.99772(15)
O26_2 O 0.6551(2) 0.08356(19) 0.80478(14)
C8_2 C 0.3050(4) 0.0135(3) 0.7880(2)
H8_2 H 0.214(5) 0.038(4) 0.739(3)
O6_2 O 0.5201(2) 0.7911(2) 0.00228(15)
O8_2 O 0.1005(2) 0.8957(2) 0.12383(15)
C4_2 C 0.2322(3) 0.8714(3) 0.1874(2)
H6_2 H 0.249(3) 0.802(3) 0.233(2)
Co14_7 Co 1.0000 1.0000 -0.0000
O28_2 O 0.3389(2) 0.9726(2) 0.02343(14)
C3_2 C 0.5286(4) 0.7119(3) 0.9528(2)
H3_2 H 0.519(4) 0.621(4) 0.964(2)
Co6 Co 0.62207(4) 0.92056(4) 0.86693(3)
Co14_8 Co 1.0000 1.0000 1.0000
O17_2 O 0.4479(2) 0.9397(2) 0.63173(14)
O20_2 O 0.3165(2) 0.9956(2) 0.85953(15)
O29_2 O 0.1155(2) 0.8847(2) 0.96665(16)
O31 O 0.8372(2) 0.84520(19) 0.93994(14)
C11_2 C 0.2264(3) 0.8931(3) 0.9699(2)
H12_2 H 0.228(3) 0.842(3) 0.929(2)
O27_2 O 0.8995(2) 0.1043(2) 0.87617(15)
C12_2 C 0.8785(3) 0.7212(3) 0.9505(2)
H11_2 H 0.982(3) 0.712(3) 0.991(2)
C4_3 C 0.2322(3) 0.6286(3) 0.6874(2)
H6_3 H 0.249(3) 0.698(3) 0.733(2)
C7_2 C 0.4993(3) 0.3284(3) 0.8301(2)
H7_2 H 0.508(3) 0.258(3) 0.869(2)
C1_2 C 0.5007(3) 0.8284(3) 0.6699(2)
H1_2 H 0.492(3) 0.758(3) 0.631(2)
C4_4 C 0.7678(3) 0.1286(3) 0.8126(2)
H6_4 H 0.751(3) 0.198(3) 0.767(2)
loop_
_geom_bond_atom_site_label_1
_geom_bond_atom_site_label_2
_geom_bond_site_symmetry_1
_geom_bond_site_symmetry_2
Co7 O32 1_555 1_555
Co12 O34 1_555 1_555
O27 Co4 1_555 1_555
O30 Co4 1_555 1_555
O32 Co4 1_555 1_555
O34 C12 1_555 1_555
C12 O32 1_555 1_555
H11 C12 1_555 1_555
O1 C1 1_555 1_555
O2 C1 1_555 1_555
C1 H1 1_555 1_555
Co5 O1 1_555 1_555
Co8 O1 1_555 1_555
Co13 O4 1_555 1_555
Co1 O5 1_555 1_555
Co3 O6 1_555 1_555
Co4_2 O8 1_555 1_555
O3 Co2 1_555 1_555
O5 Co2 1_555 1_555
O6 C3 1_555 1_555
O7 Co1 1_555 1_555
O8 C4 1_555 1_555
O9 Co3 1_555 1_555
O30 C5 1_555 1_555
O11 Co1 1_555 1_555
O12 Co2 1_555 1_555
C2 O3 1_555 1_555
C3 H3 1_555 1_555
C4 O7 1_555 1_555
C5 O9 1_555 1_555
C6 O11 1_555 1_555
H2 C2 1_555 1_555
H4 C6 1_555 1_555
H5 C5 1_555 1_555
H6 C4 1_555 1_555
Co7 O9 1_555 1_555
Co8 O7 1_555 1_555
Co12 O14 1_555 1_555
Co11 O15 1_555 1_555
O13 Co1 1_555 1_555
O14 Co7 1_555 1_555
O16 Co8 1_555 1_555
O17 Co11 1_555 1_555
O18 Co1 1_555 1_555
O19 Co7 1_555 1_555
O20 Co3 1_555 1_555
O21 Co3 1_555 1_555
O22 C3 1_555 1_555
O23 Co11 1_555 1_555
O24 Co3 1_555 1_555
O25 Co2 1_555 1_555
O26 Co7 1_555 1_555
O28 Co1 1_555 1_555
O29 Co4_2 1_555 1_555
O33 Co11 1_555 1_555
C7 O13 1_555 1_555
C8 O19 1_555 1_555
C9 O18 1_555 1_555
C10 O5 1_555 1_555
C11 O28 1_555 1_555
H7 C7 1_555 1_555
H8 C8 1_555 1_555
H9 C9 1_555 1_555
H10 C10 1_555 1_555
H12 C11 1_555 1_555
Co2 O13 1_555 1_555
Co3 O28 1_555 1_555
Co4_2 O11 1_555 1_555
O12 C6 1_555 1_555
Co7 O22 1_555 1_555
Co8 O18 1_555 1_555
Co12 O22 1_555 1_555
Co11 O19 1_555 1_555
Co11 O26 1_555 1_555
O16 C7 1_555 1_555
O20 C8 1_555 1_555
O21 C9 1_555 1_555
O24 C10 1_555 1_555
O29 C11 1_555 1_555
Co5 O5_2 1_555 1_555
O5_2 Co8 1_555 1_555
O10 C5_2 1_555 1_555
O11_2 Co5 1_555 1_555
O12_2 Co8 1_555 1_555
C6_2 O11_2 1_555 1_555
H4_2 C6_2 1_555 1_555
H5_2 C5_2 1_555 1_555
Co14_5 O10 1_555 1_555
C10_2 O5_2 1_555 1_555
H10_2 C10_2 1_555 1_555
Co14 O11_2 1_555 1_555
O12_2 C6_2 1_555 1_555
O9_2 Co13_2 1_555 1_555
O24_2 Co13_2 1_555 1_555
C8_2 O19_2 1_555 1_555
H8_2 C8_2 1_555 1_555
Co12 O19_2 1_555 1_555
Co12 O26_2 1_555 1_555
Co13_3 O6_2 1_555 1_555
Co14_3 O8_2 1_555 1_555
O8_2 C4_2 1_555 1_555
C4_2 O25 1_555 1_555
H6_2 C4_2 1_555 1_555
Co13_3 O28_2 1_555 1_555
C3_2 H3_2 1_555 1_555
O15 Co6 1_555 1_555
O20_2 Co13_4 1_555 1_555
O23 C3_2 1_555 1_555
O29_2 Co14_4 1_555 1_555
O31 Co6 1_555 1_555
H12_2 C11_2 1_555 1_555
Co6 O23 1_555 1_555
Co14_8 O31 1_555 1_555
O29_2 C11_2 1_555 1_555
O27_2 Co14_6 1_555 1_555
O33 C12_2 1_555 1_555
C12_2 O31 1_555 1_555
H11_2 C12_2 1_555 1_555
O27 C4_3 1_555 1_555
C4_3 O26 1_555 1_555
H6_3 C4_3 1_555 1_555
C7_2 O14 1_555 1_555
H7_2 C7_2 1_555 1_555
O17 C7_2 1_555 1_555
O15 C1_2 1_555 1_555
O17_2 C1_2 1_555 1_555
C1_2 H1_2 1_555 1_555
O27_2 C4_4 1_555 1_555
C4_4 O26_2 1_555 1_555
H6_4 C4_4 1_555 1_555

#END
