
###############################################################################
#
# This file contains modified crystal structure data generated from the
# MOF subset of the Cambridge Structural Database (CSD) v543 
# hosted by the Cambridge Crystallographic Data Centre (CCDC).
#
# This work is licensed under the Creative Commons
# Attribution-NonCommercial-ShareAlike 4.0 International License.
# To view a copy of this license, visit
# http://creativecommons.org/licenses/by-nc-sa/4.0/
# or send a letter to
# Creative Commons, PO Box 1866, Mountain View, CA 94042, USA.
#
# CIF created using the CSD Python API on 29 September 2022
# The structure has been converted into the P1 space group
# The structure has a 3D framework
# The original CSD entry RAVVOA is in the monoclinic crystal system
# The framework has been calculated to contain at least 10.0% void space
# The void calculation uses a probe of radius 1.32A, grid spacing 0.4
#
###############################################################################

data_RAVVOA
_chemical_formula_moiety         '(C24 H24 Co20 O48)n'
_symmetry_cell_setting           triclinic
_symmetry_space_group_name_H-M   'P 1'
_symmetry_Int_Tables_number      1
_space_group_name_Hall           'P 1'
loop_
_symmetry_equiv_pos_site_id
_symmetry_equiv_pos_as_xyz
1 x,y,z
_cell_length_a                   11.2783(4)
_cell_length_b                   9.8567(4)
_cell_length_c                   18.1630(6)
_cell_angle_alpha                90
_cell_angle_beta                 127.204(2)
_cell_angle_gamma                90
_cell_volume                     1608.21
loop_
_atom_site_label
_atom_site_type_symbol
_atom_site_fract_x
_atom_site_fract_y
_atom_site_fract_z
Co14 Co 0.0000 0.0000 0.0000
Co14_2 Co 0.0000 0.0000 1.0000
Co14_3 Co -0.0000 1.0000 0.0000
Co14_4 Co 0.0000 1.0000 1.0000
Co1 Co 0.37787(5) 0.07823(4) 0.13313(3)
Co3 Co 0.5000 0.0000 0.0000
O1 O 0.4367(3) 0.1989(2) 0.24506(14)
O2 O 0.5510(3) 0.0584(2) 0.36783(15)
O4 O 0.6817(3) 0.0061(2) 0.13968(16)
O5 O 0.4555(3) 0.2554(2) 0.10876(14)
O11 O 0.1639(3) 0.1534(2) 0.06035(14)
O12 O 0.2045(3) 0.3771(2) 0.09124(15)
C1 C 0.4991(4) 0.1712(3) 0.3303(2)
C3 C 0.4689(4) 0.2881(3) 0.0464(2)
C6 C 0.1219(5) 0.2778(3) 0.0501(2)
H1 H 0.508(4) 0.255(3) 0.370(2)
H3 H 0.482(4) 0.391(3) 0.040(2)
H6 H 0.012(4) 0.295(3) 0.006(2)
Co7 Co 0.62213(5) 0.57823(4) 0.36687(3)
Co9 Co 0.42999(5) 0.38834(4) 0.18950(3)
Co12 Co 0.57001(5) 0.88834(4) 0.31050(3)
Co13 Co 0.5000 0.5000 0.5000
Co14_5 Co 1.0000 0.0000 0.0000
O15 O 0.5633(3) 0.6989(2) 0.25494(14)
O17 O 0.4490(3) 0.5584(2) 0.13217(15)
O19 O 0.4106(3) 0.4938(2) 0.28125(15)
O21 O 0.3183(3) 0.5061(2) 0.36032(16)
O26 O 0.6546(3) 0.4154(2) 0.30480(15)
O29 O 0.8848(3) 0.1155(2) 0.03300(16)
C7 C 0.5009(4) 0.6712(3) 0.1697(2)
C9 C 0.3061(5) 0.4867(3) 0.2884(3)
C11 C 0.7735(4) 0.1071(3) 0.0295(2)
H7 H 0.492(4) 0.755(3) 0.130(2)
H9 H 0.219(5) 0.471(3) 0.238(2)
H11 H 0.762(4) 0.157(3) 0.069(2)
Co2 Co 0.42999(5) 0.11166(4) 0.68950(3)
Co3_2 Co 0.5000 0.0000 1.0000
O6 O 0.4793(3) 0.2089(2) 0.99744(15)
Co14_6 Co 1.0000 0.0000 1.0000
O14 O 0.4367(3) 0.3011(2) 0.74506(14)
O18 O 0.4106(3) 0.0062(2) 0.78125(15)
O23 O 0.4555(3) 0.2446(2) 0.60876(14)
O25 O 0.6546(3) 0.0846(2) 0.80480(15)
O28 O 0.6608(3) 0.0279(2) 0.97642(15)
O33 O 0.2045(3) 0.1229(2) 0.59124(15)
C8 C 0.3061(5) 0.0133(3) 0.7884(3)
H8 H 0.219(5) 0.029(3) 0.738(2)
Co3_3 Co 0.5000 1.0000 0.0000
O3 O 0.5894(3) 0.9938(2) 0.21875(15)
O7 O 0.3454(3) 0.9154(2) 0.19520(15)
O8 O 0.0999(3) 0.8947(2) 0.12315(16)
O9 O 0.3392(3) 0.9721(2) 0.02358(15)
C2 C 0.6939(5) 0.9867(3) 0.2116(3)
C4 C 0.2309(4) 0.8696(3) 0.1862(2)
H2 H 0.781(5) 0.971(3) 0.262(2)
H4 H 0.250(4) 0.799(3) 0.233(2)
Co14_7 Co 1.0000 1.0000 0.0000
O24 O 0.5207(3) 0.7911(2) 0.00256(15)
Co3_4 Co 0.5000 1.0000 1.0000
O10 O 0.1152(3) 0.8845(2) 0.96700(16)
C5 C 0.2265(4) 0.8929(3) 0.9705(2)
H5 H 0.238(4) 0.843(3) 0.931(2)
Co5 Co 0.62213(5) 0.92177(4) 0.86687(3)
Co10 Co 0.57001(5) 0.61166(4) 0.81050(3)
Co14_8 Co 1.0000 1.0000 1.0000
O13 O 0.5633(3) 0.8011(2) 0.75494(14)
O16 O 0.4490(3) 0.9416(2) 0.63217(15)
O20 O 0.3183(3) 0.9939(2) 0.86032(16)
O22 O 0.5445(3) 0.7446(2) 0.89124(14)
O32 O 0.8361(3) 0.8466(2) 0.93965(14)
C10 C 0.5311(4) 0.7119(3) 0.9536(2)
H10 H 0.518(4) 0.609(3) 0.960(2)
O27 O 0.9001(3) 0.1053(2) 0.87685(16)
O34 O 0.7955(3) 0.6229(2) 0.90876(15)
C12 C 0.8781(5) 0.7222(3) 0.9499(2)
H12 H 0.988(4) 0.705(3) 0.994(2)
Co4 Co 0.0000 0.5000 0.5000
Co6 Co 0.37787(5) 0.42177(4) 0.63313(3)
O27_2 O 0.0999(3) 0.6053(2) 0.62315(16)
O30 O 0.1152(3) 0.6155(2) 0.46700(16)
O31 O 0.1639(3) 0.3466(2) 0.56035(14)
C12_2 C 0.1219(5) 0.2222(3) 0.5501(2)
H12_2 H 0.012(4) 0.205(3) 0.506(2)
Co4_2 Co 1.0000 0.5000 0.5000
O5_2 O 0.5445(3) 0.7554(2) 0.39124(14)
O6_2 O 0.5207(3) 0.7089(2) 0.50256(15)
O8_2 O 0.9001(3) 0.3947(2) 0.37685(16)
O9_2 O 0.6608(3) 0.4721(2) 0.47642(15)
O10_2 O 0.8848(3) 0.3845(2) 0.53300(16)
O11_2 O 0.8361(3) 0.6534(2) 0.43965(14)
O12_2 O 0.7955(3) 0.8771(2) 0.40876(15)
C3_2 C 0.5311(4) 0.7881(3) 0.4536(2)
C4_2 C 0.7691(4) 0.3696(3) 0.3138(2)
C5_2 C 0.7735(4) 0.3929(3) 0.5295(2)
C6_2 C 0.8781(5) 0.7778(3) 0.4499(2)
H3_2 H 0.518(4) 0.891(3) 0.460(2)
H4_2 H 0.750(4) 0.299(3) 0.267(2)
H5_2 H 0.762(4) 0.343(3) 0.569(2)
H6_2 H 0.988(4) 0.795(3) 0.494(2)
O16_2 O 0.5510(3) 0.4416(2) 0.86783(15)
O18_2 O 0.5894(3) 0.5062(2) 0.71875(15)
O20_2 O 0.6817(3) 0.4939(2) 0.63968(16)
O24_2 O 0.4793(3) 0.2911(2) 0.49744(15)
O25_2 O 0.3454(3) 0.5846(2) 0.69520(15)
O28_2 O 0.3392(3) 0.5279(2) 0.52358(15)
C8_2 C 0.6939(5) 0.5133(3) 0.7116(3)
C10_2 C 0.4689(4) 0.2119(3) 0.5464(2)
C11_2 C 0.2265(4) 0.6071(3) 0.4705(2)
H8_2 H 0.781(5) 0.529(3) 0.762(2)
H10_2 H 0.482(4) 0.109(3) 0.540(2)
H11_2 H 0.238(4) 0.657(3) 0.431(2)
C4_3 C 0.7691(4) 0.1304(3) 0.8138(2)
H4_3 H 0.750(4) 0.201(3) 0.767(2)
C1_2 C 0.5009(4) 0.8288(3) 0.6697(2)
H1_2 H 0.492(4) 0.745(3) 0.630(2)
C7_2 C 0.4991(4) 0.3288(3) 0.8303(2)
H7_2 H 0.508(4) 0.245(3) 0.870(2)
C4_4 C 0.2309(4) 0.6304(3) 0.6862(2)
H4_4 H 0.250(4) 0.701(3) 0.733(2)
loop_
_geom_bond_atom_site_label_1
_geom_bond_atom_site_label_2
_geom_bond_site_symmetry_1
_geom_bond_site_symmetry_2
Co1 O1 1_555 1_555
Co3 O4 1_555 1_555
O1 C1 1_555 1_555
O2 C1 1_555 1_555
O5 Co1 1_555 1_555
O11 Co1 1_555 1_555
O12 C6 1_555 1_555
C1 H1 1_555 1_555
C3 O5 1_555 1_555
C6 O11 1_555 1_555
H3 C3 1_555 1_555
H6 C6 1_555 1_555
Co7 O15 1_555 1_555
Co9 O1 1_555 1_555
Co12 O15 1_555 1_555
Co13 O21 1_555 1_555
Co14_5 O29 1_555 1_555
O15 C7 1_555 1_555
O17 Co9 1_555 1_555
O19 Co7 1_555 1_555
O21 C9 1_555 1_555
O26 Co7 1_555 1_555
O29 C11 1_555 1_555
C7 O17 1_555 1_555
C9 O19 1_555 1_555
H7 C7 1_555 1_555
H9 C9 1_555 1_555
H11 C11 1_555 1_555
Co14 O11 1_555 1_555
O5 Co9 1_555 1_555
O12 Co9 1_555 1_555
Co9 O19 1_555 1_555
Co9 O26 1_555 1_555
Co2 O14 1_555 1_555
O6 Co3_2 1_555 1_555
O18 Co2 1_555 1_555
O23 Co2 1_555 1_555
O25 Co2 1_555 1_555
O28 Co3_2 1_555 1_555
O33 Co2 1_555 1_555
C8 O18 1_555 1_555
H8 C8 1_555 1_555
Co14_3 O8 1_555 1_555
O8 C4 1_555 1_555
C2 O3 1_555 1_555
C4 O7 1_555 1_555
H2 C2 1_555 1_555
H4 C4 1_555 1_555
O24 Co3_3 1_555 1_555
Co3_3 O9 1_555 1_555
O3 Co12 1_555 1_555
O7 Co12 1_555 1_555
O10 Co14_4 1_555 1_555
H5 C5 1_555 1_555
Co5 O13 1_555 1_555
Co10 O13 1_555 1_555
O20 Co3_4 1_555 1_555
O22 Co5 1_555 1_555
O32 Co5 1_555 1_555
C10 O22 1_555 1_555
H10 C10 1_555 1_555
O10 C5 1_555 1_555
Co10 O22 1_555 1_555
Co14_8 O32 1_555 1_555
O27 Co14_6 1_555 1_555
Co10 O34 1_555 1_555
O34 C12 1_555 1_555
C12 O32 1_555 1_555
H12 C12 1_555 1_555
Co6 O31 1_555 1_555
O27_2 Co4 1_555 1_555
O30 Co4 1_555 1_555
O31 Co4 1_555 1_555
O33 C12_2 1_555 1_555
C12_2 O31 1_555 1_555
H12_2 C12_2 1_555 1_555
Co4_2 O8_2 1_555 1_555
O5_2 Co7 1_555 1_555
O6_2 Co13 1_555 1_555
O8_2 C4_2 1_555 1_555
O9_2 Co7 1_555 1_555
O10_2 Co4_2 1_555 1_555
O11_2 Co7 1_555 1_555
O12_2 C6_2 1_555 1_555
C3_2 O5_2 1_555 1_555
C4_2 O26 1_555 1_555
C5_2 O9_2 1_555 1_555
C6_2 O11_2 1_555 1_555
H3_2 C3_2 1_555 1_555
H4_2 C4_2 1_555 1_555
H5_2 C5_2 1_555 1_555
H6_2 C6_2 1_555 1_555
Co6 O14 1_555 1_555
O16_2 Co10 1_555 1_555
O18_2 Co10 1_555 1_555
O20_2 Co13 1_555 1_555
O23 Co6 1_555 1_555
O24_2 Co13 1_555 1_555
O25_2 Co10 1_555 1_555
O28_2 Co13 1_555 1_555
O30 C11_2 1_555 1_555
C8_2 O18_2 1_555 1_555
C10_2 O23 1_555 1_555
C11_2 O28_2 1_555 1_555
H8_2 C8_2 1_555 1_555
H10_2 C10_2 1_555 1_555
H11_2 C11_2 1_555 1_555
Co13 O9_2 1_555 1_555
Co4_2 O11_2 1_555 1_555
O5_2 Co12 1_555 1_555
O6_2 C3_2 1_555 1_555
O10_2 C5_2 1_555 1_555
O12_2 Co12 1_555 1_555
Co6 O18_2 1_555 1_555
Co6 O25_2 1_555 1_555
Co6 O28_2 1_555 1_555
O20_2 C8_2 1_555 1_555
O24_2 C10_2 1_555 1_555
O27 C4_3 1_555 1_555
C4_3 O25 1_555 1_555
H4_3 C4_3 1_555 1_555
O13 C1_2 1_555 1_555
O16 C1_2 1_555 1_555
C1_2 H1_2 1_555 1_555
O14 C7_2 1_555 1_555
C7_2 O16_2 1_555 1_555
H7_2 C7_2 1_555 1_555
O27_2 C4_4 1_555 1_555
C4_4 O25_2 1_555 1_555
H4_4 C4_4 1_555 1_555

#END
