
###############################################################################
#
# This file contains modified crystal structure data generated from the
# MOF subset of the Cambridge Structural Database (CSD) v543 
# hosted by the Cambridge Crystallographic Data Centre (CCDC).
#
# This work is licensed under the Creative Commons
# Attribution-NonCommercial-ShareAlike 4.0 International License.
# To view a copy of this license, visit
# http://creativecommons.org/licenses/by-nc-sa/4.0/
# or send a letter to
# Creative Commons, PO Box 1866, Mountain View, CA 94042, USA.
#
# CIF created using the CSD Python API on 29 September 2022
# The structure has been converted into the P1 space group
# The structure has a 3D framework
# The original CSD entry RAVVOA02 is in the monoclinic crystal system
# The framework has been calculated to contain at least 10.0% void space
# The void calculation uses a probe of radius 1.32A, grid spacing 0.4
# H atom positions have been added when not included in the experimental data
#
###############################################################################

data_RAVVOA02
_chemical_formula_moiety         '(C24 H24 Co18 O48)n'
_symmetry_cell_setting           triclinic
_symmetry_space_group_name_H-M   'P 1'
_symmetry_Int_Tables_number      1
_space_group_name_Hall           'P 1'
loop_
_symmetry_equiv_pos_site_id
_symmetry_equiv_pos_as_xyz
1 x,y,z
_cell_length_a                   11.33230(10)
_cell_length_b                   9.9051(3)
_cell_length_c                   14.5033(4)
_cell_angle_alpha                90
_cell_angle_beta                 91.3170(10)
_cell_angle_gamma                90
_cell_volume                     1627.53
loop_
_atom_site_label
_atom_site_type_symbol
_atom_site_fract_x
_atom_site_fract_y
_atom_site_fract_z
Co1 Co 0.24450(3) 0.07871(4) 0.36694(3)
O2 O 0.34679(18) 0.2559(2) 0.39034(14)
O4 O 0.10298(18) 0.1544(2) 0.43962(14)
O5 O 0.19156(19) 0.1982(2) 0.25399(14)
Co2 Co 0.5000 0.0000 0.5000
Co3 Co 0.24033(3) 0.38802(4) 0.31007(3)
C2 C 0.4257(3) 0.2871(3) 0.4501(2)
Co4 Co 0.0000 0.0000 0.5000
C4 C 0.0722(3) 0.2773(3) 0.4481(2)
C5 C 0.1699(3) 0.1691(3) 0.1696(2)
O7 O 0.4829(2) 0.2080(2) 0.49916(16)
O8 O 0.5411(2) -0.0000(3) 0.36005(16)
O10 O 0.1136(2) 0.3754(2) 0.40760(16)
O12 O 0.1846(2) 0.0589(2) 0.13290(15)
O13 O 0.68517(18) 0.0265(2) 0.52270(14)
O15 O 0.4589(2) 0.0000(3) 0.63995(16)
O21 O 0.0217(2) 0.1055(3) 0.62321(17)
H6 H 0.134998 0.249827 0.125904
H8 H 0.444717 0.394159 0.458884
H12 H 0.00198112 0.298002 0.496127
O1 O 0.31483(18) 0.9735(2) 0.47730(14)
O3 O 0.14986(18) 0.9159(2) 0.30527(14)
O6 O 0.37051(18) 0.9934(2) 0.28134(14)
Co2_2 Co 0.5000 1.0000 0.5000
C1 C 0.2570(3) 0.8964(3) 0.5306(2)
C3 C 0.0463(3) 0.8700(4) 0.3140(2)
Co4_2 Co 0.0000 1.0000 0.5000
C6 C 0.4813(3) 0.9838(3) 0.2894(2)
O8_2 O 0.5411(2) 1.0000(3) 0.36005(16)
O9 O 0.1495(2) 0.8878(2) 0.53455(17)
Co5 Co 0.25967(3) 0.88802(4) 0.18993(3)
O14 O 0.5171(2) 0.7920(2) 0.50084(16)
O15_2 O 0.4589(2) 1.0000(3) 0.63995(16)
O16 O 0.15321(18) 0.7559(2) 0.10966(14)
O17 O 0.3864(2) 0.8754(2) 0.09240(16)
O18 O 0.30844(19) 0.6982(2) 0.24601(14)
H4 H 0.308514 0.831936 0.577136
H5 H 0.528649 0.958535 0.227225
H11 H 0.0141059 0.801661 0.260251
Co4_3 Co 1.0000 0.0000 0.5000
O20 O 0.8505(2) 0.1122(2) 0.46545(17)
C8 C 0.7430(3) 0.1036(3) 0.4694(2)
C9 C 0.9537(3) 0.1300(4) 0.6860(2)
O24 O 0.85014(18) 0.0841(2) 0.69473(14)
O26 O 0.62949(18) 0.0066(2) 0.71866(14)
Co9 Co 0.74033(3) 0.11198(4) 0.81007(3)
C12 C 0.5187(3) 0.0162(3) 0.7106(2)
O30 O 0.84679(18) 0.2441(2) 0.89034(14)
O31 O 0.6136(2) 0.1246(2) 0.90760(16)
O32 O 0.69156(19) 0.3018(2) 0.75399(14)
H2 H 0.471351 0.0414653 0.772775
H9 H 0.985894 0.198339 0.739749
H10 H 0.691486 0.168064 0.422864
Co4_4 Co 1.0000 1.0000 0.5000
O11 O 0.9783(2) 0.8945(3) 0.37679(17)
O19 O 0.89702(18) 0.8456(2) 0.56038(14)
Co6 Co 0.75550(3) 0.92129(4) 0.63306(3)
C7 C 0.9278(3) 0.7227(3) 0.5519(2)
O23 O 0.65321(18) 0.7441(2) 0.60966(14)
O25 O 0.80844(19) 0.8018(2) 0.74601(14)
O27 O 0.8864(2) 0.6246(2) 0.59240(16)
Co8 Co 0.75967(3) 0.61198(4) 0.68993(3)
C10 C 0.5743(3) 0.7129(3) 0.5499(2)
C11 C 0.8301(3) 0.8309(3) 0.8304(2)
O33 O 0.8154(2) 0.9411(2) 0.86710(15)
H1 H 0.865002 0.750173 0.874096
H3 H 0.555283 0.605841 0.541116
H7 H 0.998019 0.701998 0.503873
Co7 Co 0.0000 0.5000 0.0000
Co7_2 Co 0.0000 0.5000 1.0000
O29 O 0.0411(2) 0.5000(3) 0.86005(16)
H2_2 H 0.0286492 0.541465 0.727225
Co1_2 Co 0.25550(3) 0.57871(4) 0.13306(3)
O1_2 O 0.18517(18) 0.4735(2) 0.02270(14)
O3_2 O 0.35014(18) 0.4159(2) 0.19473(14)
O4_2 O 0.39702(18) 0.6544(2) 0.06038(14)
O6_2 O 0.12949(18) 0.4934(2) 0.21866(14)
C2_2 C 0.0743(3) 0.7871(3) 0.0499(2)
C3_2 C 0.4537(3) 0.3700(4) 0.1860(2)
Co4_5 Co 0.5000 0.5000 0.0000
C4_2 C 0.4278(3) 0.7773(3) 0.0519(2)
C5_2 C 0.3301(3) 0.6691(3) 0.3304(2)
C6_2 C 0.0187(3) 0.4838(3) 0.2106(2)
O7_2 O 0.0171(2) 0.7080(2) 0.00084(16)
O11_2 O 0.5217(2) 0.3945(3) 0.12321(17)
O12_2 O 0.3154(2) 0.5589(2) 0.36710(15)
O20_2 O 0.6495(2) 0.6122(2) 0.03455(17)
C8_2 C 0.7570(3) 0.6036(3) 0.0306(2)
Co7_3 Co 1.0000 0.5000 0.0000
H6_2 H 0.365002 0.749827 0.374096
H8_2 H 0.0552828 0.894159 0.0411165
H10_2 H 0.808514 0.668064 0.0771363
H11_2 H 0.485894 0.301661 0.239749
H12_2 H 0.498019 0.798002 0.00387251
C1_2 C 0.2430(3) 0.3964(3) 0.9694(2)
Co4_6 Co 0.5000 0.5000 1.0000
O9_2 O 0.3505(2) 0.3878(2) 0.96545(17)
O19_2 O 0.60298(18) 0.3456(2) 0.93962(14)
O21_2 O 0.4783(2) 0.6055(3) 0.87679(17)
Co6_2 Co 0.74450(3) 0.42129(4) 0.86694(3)
C7_2 C 0.5722(3) 0.2227(3) 0.9481(2)
C9_2 C 0.5463(3) 0.6300(4) 0.8140(2)
O22 O 0.81483(18) 0.5265(2) 0.97730(14)
O24_2 O 0.64986(18) 0.5841(2) 0.80527(14)
O26_2 O 0.87051(18) 0.5066(2) 0.78134(14)
Co7_4 Co 1.0000 0.5000 1.0000
C10_2 C 0.9257(3) 0.2129(3) 0.9501(2)
C11_2 C 0.6699(3) 0.3309(3) 0.6696(2)
C12_2 C 0.9813(3) 0.5162(3) 0.7894(2)
O28 O 0.9829(2) 0.2920(2) 0.99916(16)
O33_2 O 0.6846(2) 0.4411(2) 0.63290(15)
H1_2 H 0.634998 0.250173 0.625904
H3_2 H 0.944717 0.105841 0.958884
H4_2 H 0.191486 0.331936 0.922864
H7_2 H 0.501981 0.201998 0.996127
H9_2 H 0.514106 0.698339 0.760251
O8_3 O 0.9589(2) 0.5000(3) 0.13995(16)
H5_2 H 0.971351 0.458535 0.272775
loop_
_geom_bond_atom_site_label_1
_geom_bond_atom_site_label_2
_geom_bond_site_symmetry_1
_geom_bond_site_symmetry_2
O2 Co1 1_555 1_555
O4 Co1 1_555 1_555
O5 Co1 1_555 1_555
Co2 O7 1_555 1_555
Co3 O2 1_555 1_555
C2 O2 1_555 1_555
Co4 O4 1_555 1_555
C4 O4 1_555 1_555
C5 O5 1_555 1_555
O7 C2 1_555 1_555
O8 Co2 1_555 1_555
O10 Co3 1_555 1_555
O12 C5 1_555 1_555
O13 Co2 1_555 1_555
O15 Co2 1_555 1_555
O21 Co4 1_555 1_555
O5 Co3 1_555 1_555
C4 O10 1_555 1_555
C5 H6 1_555 1_555
C2 H8 1_555 1_555
C4 H12 1_555 1_555
O1 Co2_2 1_555 1_555
C1 O1 1_555 1_555
C3 O3 1_555 1_555
C6 O6 1_555 1_555
O8_2 Co2_2 1_555 1_555
O9 C1 1_555 1_555
Co5 O3 1_555 1_555
O14 Co2_2 1_555 1_555
O15_2 Co2_2 1_555 1_555
O16 Co5 1_555 1_555
O17 Co5 1_555 1_555
O18 Co5 1_555 1_555
O6 Co5 1_555 1_555
Co4_2 O9 1_555 1_555
C6 O8_2 1_555 1_555
C1 H4 1_555 1_555
C6 H5 1_555 1_555
C3 H11 1_555 1_555
O20 Co4_3 1_555 1_555
C8 O20 1_555 1_555
Co9 O24 1_555 1_555
C12 O26 1_555 1_555
O30 Co9 1_555 1_555
O31 Co9 1_555 1_555
O32 Co9 1_555 1_555
C8 O13 1_555 1_555
C9 O24 1_555 1_555
O26 Co9 1_555 1_555
C12 O15 1_555 1_555
C12 H2 1_555 1_555
C9 H9 1_555 1_555
C8 H10 1_555 1_555
O19 Co4_4 1_555 1_555
Co6 O19 1_555 1_555
C7 O19 1_555 1_555
O23 Co6 1_555 1_555
O25 Co6 1_555 1_555
O27 C7 1_555 1_555
Co8 O23 1_555 1_555
C10 O23 1_555 1_555
C11 O25 1_555 1_555
Co4_4 O11 1_555 1_555
O25 Co8 1_555 1_555
O27 Co8 1_555 1_555
C10 O14 1_555 1_555
C11 O33 1_555 1_555
C11 H1 1_555 1_555
C10 H3 1_555 1_555
C7 H7 1_555 1_555
O29 Co7_2 1_555 1_555
Co1_2 O1_2 1_555 1_555
O1_2 Co7 1_555 1_555
O16 Co1_2 1_555 1_555
O3_2 Co1_2 1_555 1_555
O4_2 Co1_2 1_555 1_555
O18 Co1_2 1_555 1_555
O6_2 Co1_2 1_555 1_555
Co7 O7_2 1_555 1_555
C2_2 O16 1_555 1_555
C3_2 O3_2 1_555 1_555
Co4_5 O4_2 1_555 1_555
C4_2 O4_2 1_555 1_555
C5_2 O18 1_555 1_555
C6_2 O6_2 1_555 1_555
O7_2 C2_2 1_555 1_555
O11_2 C3_2 1_555 1_555
O12_2 C5_2 1_555 1_555
Co3 O3_2 1_555 1_555
O20_2 Co4_5 1_555 1_555
C8_2 O20_2 1_555 1_555
O6_2 Co3 1_555 1_555
Co4_5 O11_2 1_555 1_555
C4_2 O17 1_555 1_555
O12_2 Co3 1_555 1_555
C5_2 H6_2 1_555 1_555
C2_2 H8_2 1_555 1_555
C8_2 H10_2 1_555 1_555
C3_2 H11_2 1_555 1_555
C4_2 H12_2 1_555 1_555
O9_2 C1_2 1_555 1_555
O19_2 Co4_6 1_555 1_555
O21_2 Co4_6 1_555 1_555
Co6_2 O19_2 1_555 1_555
C7_2 O19_2 1_555 1_555
C9_2 O21_2 1_555 1_555
O22 Co6_2 1_555 1_555
O30 Co6_2 1_555 1_555
O24_2 Co6_2 1_555 1_555
O32 Co6_2 1_555 1_555
O26_2 Co6_2 1_555 1_555
O31 C7_2 1_555 1_555
Co7_4 O22 1_555 1_555
C10_2 O30 1_555 1_555
Co8 O24_2 1_555 1_555
C11_2 O32 1_555 1_555
C12_2 O26_2 1_555 1_555
O28 Co7_4 1_555 1_555
O33_2 Co8 1_555 1_555
Co4_6 O9_2 1_555 1_555
C9_2 O24_2 1_555 1_555
O26_2 Co8 1_555 1_555
C10_2 O28 1_555 1_555
C11_2 O33_2 1_555 1_555
C11_2 H1_2 1_555 1_555
C10_2 H3_2 1_555 1_555
C1_2 H4_2 1_555 1_555
C7_2 H7_2 1_555 1_555
C9_2 H9_2 1_555 1_555
O8_3 Co7_3 1_555 1_555

#END
