
###############################################################################
#
# This file contains modified crystal structure data generated from the
# MOF subset of the Cambridge Structural Database (CSD) v543 
# hosted by the Cambridge Crystallographic Data Centre (CCDC).
#
# This work is licensed under the Creative Commons
# Attribution-NonCommercial-ShareAlike 4.0 International License.
# To view a copy of this license, visit
# http://creativecommons.org/licenses/by-nc-sa/4.0/
# or send a letter to
# Creative Commons, PO Box 1866, Mountain View, CA 94042, USA.
#
# CIF created using the CSD Python API on 29 September 2022
# The structure has been converted into the P1 space group
# The structure has a 3D framework
# The original CSD entry RAVWAO is in the rhombohedral crystal system
# The framework has been calculated to contain at least 10.0% void space
# The void calculation uses a probe of radius 1.32A, grid spacing 0.4
# H atom positions have been added when not included in the experimental data
# Generated hydrogen atom positions removed from atoms on special positions
#
###############################################################################

data_RAVWAO
_chemical_formula_moiety         '(C198 H180 Mg18 O72)n'
_symmetry_cell_setting           triclinic
_symmetry_space_group_name_H-M   'P 1'
_symmetry_Int_Tables_number      1
_space_group_name_Hall           'P 1'
loop_
_symmetry_equiv_pos_site_id
_symmetry_equiv_pos_as_xyz
1 x,y,z
_cell_length_a                   45.8395
_cell_length_b                   45.8395
_cell_length_c                   6.4739
_cell_angle_alpha                90
_cell_angle_beta                 90
_cell_angle_gamma                120
_cell_volume                     11780.8
loop_
_atom_site_label
_atom_site_type_symbol
_atom_site_fract_x
_atom_site_fract_y
_atom_site_fract_z
Mg2 Mg 0.31541 0.00708 0.22282
O5 O 0.31521 0.03642 0.01771
O10 O 0.34948 0.00033 0.11001
O14 O 0.34807 0.04571 0.38403
O16 O 0.27530 0.00200 0.34772
H1 H 0.31775 0.23845 0.13834
C8 C 0.33560 0.19262 0.03947
C9 C 0.36490 0.19384 0.11424
C10 C 0.30439 0.16557 0.09331
C11 C 0.39885 0.22303 0.06560
H4 H 0.28205 0.16479 0.03449
H5 H 0.40018 0.24654 0.11787
H6 H 0.41897 0.22088 0.14578
C12 C 0.32507 0.03700 0.83243
C13 C 0.32719 0.06319 0.68743
C14 C 0.33786 0.06630 0.47685
Mg5 Mg 0.35126 0.32625 0.11051
Mg6 Mg 0.35834 0.01793 0.55616
O6 O 0.33301 0.01582 0.77667
C15 C 0.33964 0.09209 0.35281
C16 C 0.32970 0.11411 0.42913
C17 C 0.31873 0.11090 0.63507
C18 C 0.31740 0.08582 0.76236
H8 H 0.34892 0.09488 0.19499
H9 H 0.30846 0.08404 0.92074
H10 H 0.31136 0.12804 0.69759
C19 C 0.33107 0.14071 0.29386
C20 C 0.30177 0.13949 0.21909
C21 C 0.36228 0.16776 0.24002
C22 C 0.26782 0.11030 0.26773
H11 H 0.38462 0.16854 0.29884
H12 H 0.26649 0.08679 0.21546
H13 H 0.24770 0.11245 0.18755
H14 H 0.26308 0.10900 0.43804
C1 C 0.34160 0.29633 0.50090
C2 C 0.33948 0.27014 0.64590
C3 C 0.32881 0.26703 0.85648
O1 O 0.35146 0.29691 0.31562
O2 O 0.33366 0.31751 0.55666
O3 O 0.31860 0.28762 0.94930
C4 C 0.32703 0.24124 0.98052
C5 C 0.33697 0.21922 0.90420
C6 C 0.34794 0.22243 0.69826
C7 C 0.34927 0.24751 0.57097
H2 H 0.35821 0.24929 0.41259
H3 H 0.35531 0.20529 0.63574
H7 H 0.40359 0.22433 0.89529
Mg3 Mg 0.30832 0.31541 0.77718
Mg4 Mg 0.34042 0.35834 0.44384
O8 O 0.31718 0.33301 0.22333
O13 O 0.37905 0.36431 0.28263
O4 O 0.39137 0.33133 0.98561
O7 O 0.34916 0.34948 0.88999
H15 H 0.387424 0.308983 0.939454
H16 H 0.39748 0.346635 0.86478
O9 O 0.31751 0.98385 0.44334
O15 O 0.28762 0.96902 0.05070
H17 H 0.256643 0.992325 0.245563
H18 H 0.269187 0.986698 0.468553
Mg7 Mg 0.32625 0.97499 0.88949
O9_2 O 0.01615 0.33366 0.44334
O15_2 O 0.03098 0.31860 0.05070
H17_2 H 0.00767532 0.264318 0.245563
H18_2 H 0.0133015 0.282488 0.468553
Mg7_2 Mg 0.02501 0.35126 0.88949
Mg2_2 Mg 0.99292 0.30832 0.22282
O5_2 O 0.96358 0.27878 0.01771
O10_2 O 0.99967 0.34916 0.11001
O14_2 O 0.95429 0.30235 0.38403
O16_2 O 0.99800 0.27329 0.34772
H1_2 H 0.76155 0.07930 0.13834
C8_2 C 0.80738 0.14298 0.03947
C9_2 C 0.80616 0.17106 0.11424
C10_2 C 0.83443 0.13882 0.09331
C11_2 C 0.77697 0.17582 0.06560
H4_2 H 0.83521 0.11726 0.03449
H5_2 H 0.75346 0.15364 0.11787
H6_2 H 0.77912 0.19809 0.14578
C12_2 C 0.96300 0.28806 0.83243
C13_2 C 0.93681 0.26399 0.68743
C14_2 C 0.93370 0.27155 0.47685
Mg5_2 Mg 0.67375 0.02501 0.11051
Mg6_2 Mg 0.98207 0.34042 0.55616
O6_2 O 0.98418 0.31718 0.77667
C15_2 C 0.90791 0.24754 0.35281
C16_2 C 0.88589 0.21558 0.42913
C17_2 C 0.88910 0.20782 0.63507
C18_2 C 0.91418 0.23157 0.76236
H8_2 H 0.90512 0.25403 0.19499
H9_2 H 0.91596 0.22441 0.92074
H10_2 H 0.87196 0.18331 0.69759
C19_2 C 0.85929 0.19035 0.29386
C20_2 C 0.86051 0.16227 0.21909
C21_2 C 0.83224 0.19451 0.24002
C22_2 C 0.88970 0.15751 0.26773
H11_2 H 0.83146 0.21607 0.29884
H12_2 H 0.91321 0.17969 0.21546
H13_2 H 0.88755 0.13524 0.18755
H14_2 H 0.89100 0.15407 0.43804
C1_2 C 0.70367 0.04527 0.50090
C2_2 C 0.72986 0.06934 0.64590
C3_2 C 0.73297 0.06178 0.85648
O1_2 O 0.70309 0.05455 0.31562
O2_2 O 0.68249 0.01615 0.55666
O3_2 O 0.71238 0.03098 0.94930
C4_2 C 0.75876 0.08579 0.98052
C5_2 C 0.78078 0.11775 0.90420
C6_2 C 0.77757 0.12551 0.69826
C7_2 C 0.75249 0.10176 0.57097
H2_2 H 0.75071 0.10892 0.41259
H3_2 H 0.79471 0.15002 0.63574
H7_2 H 0.77567 0.17926 0.89529
O13_2 O 0.63569 0.01473 0.28263
O4_2 O 0.66867 0.06004 0.98561
H15_2 H 0.691017 0.0784409 0.939454
H16_2 H 0.653365 0.0508452 0.86478
Mg3_2 Mg 0.68459 0.99292 0.77718
Mg4_2 Mg 0.64166 0.98207 0.44384
O8_2 O 0.66699 0.98418 0.22333
O7_2 O 0.65052 0.99967 0.88999
Mg3_3 Mg 0.00708 0.69168 0.77718
Mg4_3 Mg 0.01793 0.65958 0.44384
O8_3 O 0.01582 0.68282 0.22333
O7_3 O 0.00033 0.65084 0.88999
Mg2_3 Mg 0.69168 0.68459 0.22282
O5_3 O 0.72122 0.68479 0.01771
O9_3 O 0.66634 0.68249 0.44334
O10_3 O 0.65084 0.65052 0.11001
O14_3 O 0.69765 0.65193 0.38403
O15_3 O 0.68140 0.71238 0.05070
O16_3 O 0.72671 0.72470 0.34772
H1_3 H 0.92070 0.68225 0.13834
C8_3 C 0.85702 0.66440 0.03947
C9_3 C 0.82894 0.63510 0.11424
C10_3 C 0.86118 0.69561 0.09331
C11_3 C 0.82418 0.60115 0.06560
H4_3 H 0.88274 0.71795 0.03449
H5_3 H 0.84636 0.59982 0.11787
H6_3 H 0.80191 0.58103 0.14578
C12_3 C 0.71194 0.67493 0.83243
C13_3 C 0.73601 0.67281 0.68743
C14_3 C 0.72845 0.66214 0.47685
Mg5_3 Mg 0.97499 0.64874 0.11051
Mg6_3 Mg 0.65958 0.64166 0.55616
Mg7_3 Mg 0.64874 0.67375 0.88949
O6_3 O 0.68282 0.66699 0.77667
C15_3 C 0.75246 0.66036 0.35281
C16_3 C 0.78442 0.67030 0.42913
C17_3 C 0.79218 0.68127 0.63507
C18_3 C 0.76843 0.68260 0.76236
H8_3 H 0.74597 0.65108 0.19499
H9_3 H 0.77559 0.69154 0.92074
H10_3 H 0.81669 0.68864 0.69759
C19_3 C 0.80965 0.66893 0.29386
C20_3 C 0.83773 0.69823 0.21909
C21_3 C 0.80549 0.63772 0.24002
C22_3 C 0.84249 0.73218 0.26773
H11_3 H 0.78393 0.61538 0.29884
H12_3 H 0.82031 0.73351 0.21546
H13_3 H 0.86476 0.75230 0.18755
H14_3 H 0.84593 0.73692 0.43804
C1_3 C 0.95473 0.65840 0.50090
C2_3 C 0.93066 0.66052 0.64590
C3_3 C 0.93822 0.67119 0.85648
O1_3 O 0.94545 0.64854 0.31562
O2_3 O 0.98385 0.66634 0.55666
O3_3 O 0.96902 0.68140 0.94930
C4_3 C 0.91421 0.67297 0.98052
C5_3 C 0.88225 0.66303 0.90420
C6_3 C 0.87449 0.65206 0.69826
C7_3 C 0.89824 0.65073 0.57097
H2_3 H 0.89108 0.64179 0.41259
H3_3 H 0.84998 0.64469 0.63574
H7_3 H 0.82074 0.59641 0.89529
O13_3 O 0.98527 0.62095 0.28263
O4_3 O 0.93996 0.60863 0.98561
H15_3 H 0.921559 0.612576 0.939454
H16_3 H 0.949155 0.60252 0.86478
O14_4 O 0.01473 0.37905 0.71737
C5_4 C 0.00364 0.55255 0.23753
C6_4 C 0.01461 0.55576 0.03159
C8_4 C 0.00227 0.52595 0.37280
C9_4 C 0.03157 0.52717 0.44757
C11_4 C 0.06552 0.55636 0.39893
H5_4 H 0.06685 0.57987 0.45120
H6_4 H 0.08564 0.55421 0.47911
H7_4 H 0.07026 0.55766 0.22862
C14_4 C 0.00452 0.39964 0.81019
C15_4 C 0.00630 0.42543 0.68615
H8_4 H 0.01558 0.42822 0.52833
C21_4 C 0.02894 0.50110 0.57336
H11_4 H 0.05128 0.50188 0.63218
C1_4 C 0.00827 0.62966 0.83423
C2_4 C 0.00615 0.60347 0.97923
O1_4 O 0.01813 0.63024 0.64895
O4_4 O 0.05804 0.66466 0.31894
C7_4 C 0.01594 0.58084 0.90430
H2_4 H 0.02488 0.58262 0.74592
H3_4 H 0.02198 0.53862 0.96907
O13_4 O 0.04571 0.69765 0.61597
C12_4 C 0.99173 0.37034 0.16577
C13_4 C 0.99385 0.39653 0.02077
O5_4 O 0.98187 0.36976 0.35105
O16_4 O 0.94196 0.33534 0.68106
C18_4 C 0.98406 0.41916 0.09570
H9_4 H 0.97512 0.41738 0.25408
H10_4 H 0.97802 0.46138 0.03093
C3_4 C 0.99548 0.60036 0.18981
C4_4 C 0.99370 0.57457 0.31385
H1_4 H 0.98442 0.57178 0.47167
C10_4 C 0.97106 0.49890 0.42664
H4_4 H 0.94872 0.49812 0.36782
C16_4 C 0.99636 0.44745 0.76247
C17_4 C 0.98539 0.44424 0.96841
C19_4 C 0.99773 0.47405 0.62720
C20_4 C 0.96843 0.47283 0.55243
C22_4 C 0.93448 0.44364 0.60107
H12_4 H 0.93315 0.42013 0.54880
H13_4 H 0.91436 0.44579 0.52089
H14_4 H 0.92974 0.44234 0.77138
C12_5 C 0.62966 0.62140 0.16577
C13_5 C 0.60347 0.59733 0.02077
O5_5 O 0.63024 0.61212 0.35105
O14_5 O 0.62095 0.63569 0.71737
O16_5 O 0.66466 0.60663 0.68106
C18_5 C 0.58084 0.56491 0.09570
H9_5 H 0.58262 0.55775 0.25408
H10_5 H 0.53862 0.51665 0.03093
C3_5 C 0.39964 0.39511 0.18981
C4_5 C 0.42543 0.41912 0.31385
C5_5 C 0.44745 0.45108 0.23753
C6_5 C 0.44424 0.45884 0.03159
H1_5 H 0.42822 0.41263 0.47167
C8_5 C 0.47405 0.47631 0.37280
C9_5 C 0.47283 0.50439 0.44757
C10_5 C 0.50110 0.47215 0.42664
C11_5 C 0.44364 0.50915 0.39893
H4_5 H 0.50188 0.45059 0.36782
H5_5 H 0.42013 0.48697 0.45120
H6_5 H 0.44579 0.53142 0.47911
H7_5 H 0.44234 0.51259 0.22862
C14_5 C 0.60036 0.60489 0.81019
C15_5 C 0.57457 0.58088 0.68615
C16_5 C 0.55255 0.54892 0.76247
C17_5 C 0.55576 0.54116 0.96841
H8_5 H 0.57178 0.58737 0.52833
C19_5 C 0.52595 0.52369 0.62720
C20_5 C 0.52717 0.49561 0.55243
C21_5 C 0.49890 0.52785 0.57336
C22_5 C 0.55636 0.49085 0.60107
H11_5 H 0.49812 0.54941 0.63218
H12_5 H 0.57987 0.51303 0.54880
H13_5 H 0.55421 0.46858 0.52089
H14_5 H 0.55766 0.48741 0.77138
C1_5 C 0.37034 0.37860 0.83423
C2_5 C 0.39653 0.40267 0.97923
O1_5 O 0.36976 0.38788 0.64895
O4_5 O 0.33534 0.39337 0.31894
C7_5 C 0.41916 0.43509 0.90430
H2_5 H 0.41738 0.44225 0.74592
H3_5 H 0.46138 0.48335 0.96907
O13_5 O 0.30235 0.34807 0.61597
C12_6 C 0.37860 0.00827 0.16577
C13_6 C 0.40267 0.00615 0.02077
O5_6 O 0.38788 0.01813 0.35105
O16_6 O 0.39337 0.05804 0.68106
C18_6 C 0.43509 0.01594 0.09570
H9_6 H 0.44225 0.02488 0.25408
H10_6 H 0.48335 0.02198 0.03093
C3_6 C 0.60489 0.00452 0.18981
C4_6 C 0.58088 0.00630 0.31385
H1_6 H 0.58737 0.01558 0.47167
C10_6 C 0.52785 0.02894 0.42664
H4_6 H 0.54941 0.05128 0.36782
C16_6 C 0.45108 0.00364 0.76247
C17_6 C 0.45884 0.01461 0.96841
C19_6 C 0.47631 0.00227 0.62720
C20_6 C 0.50439 0.03157 0.55243
C22_6 C 0.50915 0.06552 0.60107
H12_6 H 0.48697 0.06685 0.54880
H13_6 H 0.53142 0.08564 0.52089
H14_6 H 0.51259 0.07026 0.77138
O14_6 O 0.36431 0.98527 0.71737
C5_6 C 0.54892 0.99636 0.23753
C6_6 C 0.54116 0.98539 0.03159
C8_6 C 0.52369 0.99773 0.37280
C9_6 C 0.49561 0.96843 0.44757
C11_6 C 0.49085 0.93448 0.39893
H5_6 H 0.51303 0.93315 0.45120
H6_6 H 0.46858 0.91436 0.47911
H7_6 H 0.48741 0.92974 0.22862
C14_6 C 0.39511 0.99548 0.81019
C15_6 C 0.41912 0.99370 0.68615
H8_6 H 0.41263 0.98442 0.52833
C21_6 C 0.47215 0.97106 0.57336
H11_6 H 0.45059 0.94872 0.63218
C1_6 C 0.62140 0.99173 0.83423
C2_6 C 0.59733 0.99385 0.97923
O1_6 O 0.61212 0.98187 0.64895
O4_6 O 0.60663 0.94196 0.31894
C7_6 C 0.56491 0.98406 0.90430
H2_6 H 0.55775 0.97512 0.74592
H3_6 H 0.51665 0.97802 0.96907
O13_6 O 0.65193 0.95429 0.61597
H16_4 H 0.730813 0.0133015 0.531447
O16_7 O 0.60863 0.66867 0.01439
H18_3 H 0.60252 0.653365 0.13522
C12_7 C 0.65840 0.70367 0.49910
C13_7 C 0.66052 0.72986 0.35410
C14_7 C 0.67119 0.73297 0.14352
O5_7 O 0.64854 0.70309 0.68438
C15_7 C 0.67297 0.75876 0.01948
C16_7 C 0.66303 0.78078 0.09580
C17_7 C 0.65206 0.77757 0.30174
C18_7 C 0.65073 0.75249 0.42903
H9_7 H 0.64179 0.75071 0.58741
H10_7 H 0.64469 0.79471 0.36426
H14_7 H 0.59641 0.77567 0.10471
H17_3 H 0.589976 0.658991 0.91223
C1_7 C 0.67493 0.96300 0.16757
C2_7 C 0.67281 0.93681 0.31257
C3_7 C 0.66214 0.93370 0.52315
C4_7 C 0.66036 0.90791 0.64719
C5_7 C 0.67030 0.88589 0.57087
C6_7 C 0.68127 0.88910 0.36493
C7_7 C 0.68260 0.91418 0.23764
H1_7 H 0.65108 0.90512 0.80501
H2_7 H 0.69154 0.91596 0.07926
H3_7 H 0.68864 0.87196 0.30241
C8_7 C 0.66893 0.85929 0.70614
C9_7 C 0.69823 0.86051 0.78091
C10_7 C 0.63772 0.83224 0.75998
C11_7 C 0.73218 0.88970 0.73227
H4_7 H 0.61538 0.83146 0.70116
H5_7 H 0.73351 0.91321 0.78454
H6_7 H 0.75230 0.88755 0.81245
H7_7 H 0.73692 0.89100 0.56196
H8_7 H 0.68225 0.76155 0.86166
C19_7 C 0.66440 0.80738 0.96053
C20_7 C 0.63510 0.80616 0.88576
C21_7 C 0.69561 0.83443 0.90669
C22_7 C 0.60115 0.77697 0.93440
H11_7 H 0.71795 0.83521 0.96551
H12_7 H 0.59982 0.75346 0.88213
H13_7 H 0.58103 0.77912 0.85422
O1_7 O 0.68479 0.96358 0.98229
O4_7 O 0.72470 0.99800 0.65228
H15_4 H 0.720757 0.97565 0.606121
O16_8 O 0.33133 0.93996 0.01439
H18_4 H 0.346635 0.949155 0.13522
C12_8 C 0.29633 0.95473 0.49910
C13_8 C 0.27014 0.93066 0.35410
C14_8 C 0.26703 0.93822 0.14352
O5_8 O 0.29691 0.94545 0.68438
C15_8 C 0.24124 0.91421 0.01948
C16_8 C 0.21922 0.88225 0.09580
C17_8 C 0.22243 0.87449 0.30174
C18_8 C 0.24751 0.89824 0.42903
H9_8 H 0.24929 0.89108 0.58741
H10_8 H 0.20529 0.84998 0.36426
H14_8 H 0.22433 0.82074 0.10471
H17_4 H 0.341009 0.930985 0.91223
C1_8 C 0.03700 0.71194 0.16757
C2_8 C 0.06319 0.73601 0.31257
C3_8 C 0.06630 0.72845 0.52315
C4_8 C 0.09209 0.75246 0.64719
C5_8 C 0.11411 0.78442 0.57087
C6_8 C 0.11090 0.79218 0.36493
C7_8 C 0.08582 0.76843 0.23764
H1_8 H 0.09488 0.74597 0.80501
H2_8 H 0.08404 0.77559 0.07926
H3_8 H 0.12804 0.81669 0.30241
C8_8 C 0.14071 0.80965 0.70614
C9_8 C 0.13949 0.83773 0.78091
C10_8 C 0.16776 0.80549 0.75998
C11_8 C 0.11030 0.84249 0.73227
H4_8 H 0.16854 0.78393 0.70116
H5_8 H 0.08679 0.82031 0.78454
H6_8 H 0.11245 0.86476 0.81245
H7_8 H 0.10900 0.84593 0.56196
H8_8 H 0.23845 0.92070 0.86166
C19_8 C 0.19262 0.85702 0.96053
C20_8 C 0.19384 0.82894 0.88576
C21_8 C 0.16557 0.86118 0.90669
C22_8 C 0.22303 0.82418 0.93440
H11_8 H 0.16479 0.88274 0.96551
H12_8 H 0.24654 0.84636 0.88213
H13_8 H 0.22088 0.80191 0.85422
O1_8 O 0.03642 0.72122 0.98229
O4_8 O 0.00200 0.72671 0.65228
H15_5 H 0.0243502 0.745108 0.606121
H16_5 H 0.986698 0.717512 0.531447
O16_9 O 0.06004 0.39137 0.01439
H18_5 H 0.0508452 0.39748 0.13522
C12_9 C 0.04527 0.34160 0.49910
C13_9 C 0.06934 0.33948 0.35410
C14_9 C 0.06178 0.32881 0.14352
O5_9 O 0.05455 0.35146 0.68438
C15_9 C 0.08579 0.32703 0.01948
C16_9 C 0.11775 0.33697 0.09580
C17_9 C 0.12551 0.34794 0.30174
C18_9 C 0.10176 0.34927 0.42903
H9_9 H 0.10892 0.35821 0.58741
H10_9 H 0.15002 0.35531 0.36426
H14_9 H 0.17926 0.40359 0.10471
H17_5 H 0.0690151 0.410024 0.91223
C1_9 C 0.28806 0.32507 0.16757
C2_9 C 0.26399 0.32719 0.31257
C3_9 C 0.27155 0.33786 0.52315
C4_9 C 0.24754 0.33964 0.64719
C5_9 C 0.21558 0.32970 0.57087
C6_9 C 0.20782 0.31873 0.36493
C7_9 C 0.23157 0.31740 0.23764
H1_9 H 0.25403 0.34892 0.80501
H2_9 H 0.22441 0.30846 0.07926
H3_9 H 0.18331 0.31136 0.30241
C8_9 C 0.19035 0.33107 0.70614
C9_9 C 0.16227 0.30177 0.78091
C10_9 C 0.19451 0.36228 0.75998
C11_9 C 0.15751 0.26782 0.73227
H4_9 H 0.21607 0.38462 0.70116
H5_9 H 0.17969 0.26649 0.78454
H6_9 H 0.13524 0.24770 0.81245
H7_9 H 0.15407 0.26308 0.56196
H8_9 H 0.07930 0.31775 0.86166
C19_9 C 0.14298 0.33560 0.96053
C20_9 C 0.17106 0.36490 0.88576
C21_9 C 0.13882 0.30439 0.90669
C22_9 C 0.17582 0.39885 0.93440
H11_9 H 0.11726 0.28205 0.96551
H12_9 H 0.15364 0.40018 0.88213
H13_9 H 0.19809 0.41897 0.85422
O1_9 O 0.27878 0.31521 0.98229
O4_9 O 0.27329 0.27530 0.65228
H17_6 H 0.743357 0.00767532 0.754437
H15_6 H 0.612576 0.691017 0.0605456
H15_7 H 0.308983 0.921559 0.0605456
H17_7 H 0.992325 0.735682 0.754437
H15_8 H 0.0784409 0.387424 0.0605456
H15_9 H 0.279243 0.0243502 0.393879
H17_8 H 0.410024 0.341009 0.0877703
H15_10 H 0.97565 0.254892 0.393879
H17_9 H 0.658991 0.0690151 0.0877703
H17_10 H 0.930985 0.589976 0.0877703
loop_
_geom_bond_atom_site_label_1
_geom_bond_atom_site_label_2
_geom_bond_site_symmetry_1
_geom_bond_site_symmetry_2
Mg2 O5 1_555 1_555
O10 Mg2 1_555 1_555
O14 Mg2 1_555 1_555
O16 Mg2 1_555 1_555
C9 C8 1_555 1_555
C10 C8 1_555 1_555
C11 C9 1_555 1_555
H4 C10 1_555 1_555
H5 C11 1_555 1_555
H6 C11 1_555 1_555
C12 C13 1_555 1_555
C13 C14 1_555 1_555
C14 O14 1_555 1_555
Mg6 O6 1_555 1_555
O6 C12 1_555 1_555
O14 Mg6 1_555 1_555
C15 C14 1_555 1_555
C16 C15 1_555 1_555
C17 C16 1_555 1_555
C18 C13 1_555 1_555
H8 C15 1_555 1_555
H9 C18 1_555 1_555
H10 C17 1_555 1_555
C19 C16 1_555 1_555
C20 C10 1_555 1_555
C21 C9 1_555 1_555
C22 C20 1_555 1_555
H11 C21 1_555 1_555
H12 C22 1_555 1_555
H13 C22 1_555 1_555
H14 C22 1_555 1_555
C17 C18 1_555 1_555
C19 C20 1_555 1_555
C19 C21 1_555 1_555
C1 C2 1_555 1_555
C2 C3 1_555 1_555
C3 O3 1_555 1_555
Mg5 O1 1_555 1_555
O1 C1 1_555 1_555
O2 C1 1_555 1_555
O3 Mg3 1_555 1_555
C4 C3 1_555 1_555
C5 C4 1_555 1_555
C6 C5 1_555 1_555
C7 C2 1_555 1_555
H2 C7 1_555 1_555
H3 C6 1_555 1_555
Mg3 O2 1_555 1_555
Mg4 O2 1_555 1_555
O8 Mg5 1_555 1_555
O13 Mg5 1_555 1_555
C6 C7 1_555 1_555
Mg4 O8 1_555 1_555
Mg4 O13 1_555 1_555
O4 H15 1_555 1_555
O4 H16 1_555 1_555
Mg2_2 O5_2 1_555 1_555
O10_2 Mg2_2 1_555 1_555
O14_2 Mg2_2 1_555 1_555
O16_2 Mg2_2 1_555 1_555
C9_2 C8_2 1_555 1_555
C10_2 C8_2 1_555 1_555
C11_2 C9_2 1_555 1_555
H4_2 C10_2 1_555 1_555
H5_2 C11_2 1_555 1_555
H6_2 C11_2 1_555 1_555
C12_2 C13_2 1_555 1_555
C13_2 C14_2 1_555 1_555
C14_2 O14_2 1_555 1_555
Mg6_2 O6_2 1_555 1_555
O6_2 C12_2 1_555 1_555
O14_2 Mg6_2 1_555 1_555
C15_2 C14_2 1_555 1_555
C16_2 C15_2 1_555 1_555
C17_2 C16_2 1_555 1_555
C18_2 C13_2 1_555 1_555
H8_2 C15_2 1_555 1_555
H9_2 C18_2 1_555 1_555
H10_2 C17_2 1_555 1_555
C19_2 C16_2 1_555 1_555
C20_2 C10_2 1_555 1_555
C21_2 C9_2 1_555 1_555
C22_2 C20_2 1_555 1_555
H11_2 C21_2 1_555 1_555
H12_2 C22_2 1_555 1_555
H13_2 C22_2 1_555 1_555
H14_2 C22_2 1_555 1_555
C17_2 C18_2 1_555 1_555
C19_2 C20_2 1_555 1_555
C19_2 C21_2 1_555 1_555
C1_2 C2_2 1_555 1_555
C2_2 C3_2 1_555 1_555
C3_2 O3_2 1_555 1_555
Mg5_2 O1_2 1_555 1_555
O1_2 C1_2 1_555 1_555
O2_2 C1_2 1_555 1_555
C4_2 C3_2 1_555 1_555
C5_2 C4_2 1_555 1_555
C6_2 C5_2 1_555 1_555
C7_2 C2_2 1_555 1_555
H2_2 C7_2 1_555 1_555
H3_2 C6_2 1_555 1_555
O13_2 Mg5_2 1_555 1_555
C6_2 C7_2 1_555 1_555
O4_2 H15_2 1_555 1_555
O4_2 H16_2 1_555 1_555
Mg4_2 O8_2 1_555 1_555
Mg4_3 O8_3 1_555 1_555
Mg2_3 O5_3 1_555 1_555
O9_3 Mg2_3 1_555 1_555
O10_3 Mg2_3 1_555 1_555
O14_3 Mg2_3 1_555 1_555
O15_3 Mg2_3 1_555 1_555
O16_3 Mg2_3 1_555 1_555
C9_3 C8_3 1_555 1_555
C10_3 C8_3 1_555 1_555
C11_3 C9_3 1_555 1_555
H4_3 C10_3 1_555 1_555
H5_3 C11_3 1_555 1_555
H6_3 C11_3 1_555 1_555
C12_3 C13_3 1_555 1_555
C13_3 C14_3 1_555 1_555
C14_3 O14_3 1_555 1_555
Mg6_3 O6_3 1_555 1_555
Mg7_3 O6_3 1_555 1_555
O6_3 C12_3 1_555 1_555
O14_3 Mg6_3 1_555 1_555
C15_3 C14_3 1_555 1_555
C16_3 C15_3 1_555 1_555
C17_3 C16_3 1_555 1_555
C18_3 C13_3 1_555 1_555
H8_3 C15_3 1_555 1_555
H9_3 C18_3 1_555 1_555
H10_3 C17_3 1_555 1_555
C19_3 C16_3 1_555 1_555
C20_3 C10_3 1_555 1_555
C21_3 C9_3 1_555 1_555
C22_3 C20_3 1_555 1_555
H11_3 C21_3 1_555 1_555
H12_3 C22_3 1_555 1_555
H13_3 C22_3 1_555 1_555
H14_3 C22_3 1_555 1_555
C17_3 C18_3 1_555 1_555
C19_3 C20_3 1_555 1_555
C19_3 C21_3 1_555 1_555
C1_3 C2_3 1_555 1_555
C2_3 C3_3 1_555 1_555
C3_3 O3_3 1_555 1_555
Mg5_3 O1_3 1_555 1_555
O1_3 C1_3 1_555 1_555
O2_3 C1_3 1_555 1_555
C4_3 C3_3 1_555 1_555
C5_3 C4_3 1_555 1_555
C6_3 C5_3 1_555 1_555
C7_3 C2_3 1_555 1_555
H2_3 C7_3 1_555 1_555
H3_3 C6_3 1_555 1_555
O13_3 Mg5_3 1_555 1_555
C6_3 C7_3 1_555 1_555
O4_3 H15_3 1_555 1_555
O4_3 H16_3 1_555 1_555
C6_4 C5_4 1_555 1_555
C8_4 C5_4 1_555 1_555
C9_4 C8_4 1_555 1_555
C11_4 C9_4 1_555 1_555
H5_4 C11_4 1_555 1_555
H6_4 C11_4 1_555 1_555
H7_4 C11_4 1_555 1_555
C14_4 O14_4 1_555 1_555
O14_4 Mg7_2 1_555 1_555
C15_4 C14_4 1_555 1_555
H8_4 C15_4 1_555 1_555
C21_4 C9_4 1_555 1_555
H11_4 C21_4 1_555 1_555
C1_4 C2_4 1_555 1_555
Mg4_3 O1_4 1_555 1_555
O1_4 C1_4 1_555 1_555
O7_3 C1_4 1_555 1_555
O4_4 Mg4_3 1_555 1_555
C7_4 C2_4 1_555 1_555
H2_4 C7_4 1_555 1_555
Mg3_3 O7_3 1_555 1_555
O13_4 Mg4_3 1_555 1_555
Mg3_3 O13_4 1_555 1_555
C12_4 C13_4 1_555 1_555
Mg6_2 O5_4 1_555 1_555
O5_4 C12_4 1_555 1_555
O10_2 C12_4 1_555 1_555
O16_4 Mg6_2 1_555 1_555
C18_4 C13_4 1_555 1_555
H9_4 C18_4 1_555 1_555
C3_4 O13_3 1_555 1_555
C4_4 C3_4 1_555 1_555
H1_4 C4_4 1_555 1_555
H4_4 C10_4 1_555 1_555
C17_4 C16_4 1_555 1_555
C19_4 C16_4 1_555 1_555
C20_4 C10_4 1_555 1_555
C22_4 C20_4 1_555 1_555
H12_4 C22_4 1_555 1_555
H13_4 C22_4 1_555 1_555
H14_4 C22_4 1_555 1_555
C19_4 C20_4 1_555 1_555
C12_5 C13_5 1_555 1_555
Mg6_3 O5_5 1_555 1_555
O5_5 C12_5 1_555 1_555
O10_3 C12_5 1_555 1_555
O9_3 Mg6_3 1_555 1_555
O14_5 Mg6_3 1_555 1_555
O16_5 Mg6_3 1_555 1_555
C18_5 C13_5 1_555 1_555
H9_5 C18_5 1_555 1_555
C3_5 O13 1_555 1_555
C4_5 C3_5 1_555 1_555
C5_5 C4_5 1_555 1_555
C6_5 C5_5 1_555 1_555
H1_5 C4_5 1_555 1_555
C8_5 C5_5 1_555 1_555
C9_5 C8_5 1_555 1_555
C10_5 C8_5 1_555 1_555
C11_5 C9_5 1_555 1_555
H4_5 C10_5 1_555 1_555
H5_5 C11_5 1_555 1_555
H6_5 C11_5 1_555 1_555
H7_5 C11_5 1_555 1_555
C14_5 O14_5 1_555 1_555
O14_5 Mg7_3 1_555 1_555
C15_5 C14_5 1_555 1_555
C16_5 C15_5 1_555 1_555
C17_5 C16_5 1_555 1_555
H8_5 C15_5 1_555 1_555
C19_5 C16_5 1_555 1_555
C20_5 C10_5 1_555 1_555
C21_5 C9_5 1_555 1_555
C22_5 C20_5 1_555 1_555
H11_5 C21_5 1_555 1_555
H12_5 C22_5 1_555 1_555
H13_5 C22_5 1_555 1_555
H14_5 C22_5 1_555 1_555
C19_5 C20_5 1_555 1_555
C19_5 C21_5 1_555 1_555
C1_5 C2_5 1_555 1_555
Mg4 O1_5 1_555 1_555
O1_5 C1_5 1_555 1_555
O7 C1_5 1_555 1_555
O4_5 Mg4 1_555 1_555
C7_5 C2_5 1_555 1_555
H2_5 C7_5 1_555 1_555
Mg3 O7 1_555 1_555
O13_5 Mg4 1_555 1_555
Mg3 O13_5 1_555 1_555
C12_6 C13_6 1_555 1_555
Mg6 O5_6 1_555 1_555
O5_6 C12_6 1_555 1_555
O10 C12_6 1_555 1_555
O16_6 Mg6 1_555 1_555
C18_6 C13_6 1_555 1_555
H9_6 C18_6 1_555 1_555
C3_6 O13_2 1_555 1_555
C4_6 C3_6 1_555 1_555
H1_6 C4_6 1_555 1_555
H4_6 C10_6 1_555 1_555
C17_6 C16_6 1_555 1_555
C19_6 C16_6 1_555 1_555
C20_6 C10_6 1_555 1_555
C22_6 C20_6 1_555 1_555
H12_6 C22_6 1_555 1_555
H13_6 C22_6 1_555 1_555
H14_6 C22_6 1_555 1_555
C19_6 C20_6 1_555 1_555
C6_6 C5_6 1_555 1_555
C8_6 C5_6 1_555 1_555
C9_6 C8_6 1_555 1_555
C11_6 C9_6 1_555 1_555
H5_6 C11_6 1_555 1_555
H6_6 C11_6 1_555 1_555
H7_6 C11_6 1_555 1_555
C14_6 O14_6 1_555 1_555
O14_6 Mg7 1_555 1_555
C15_6 C14_6 1_555 1_555
H8_6 C15_6 1_555 1_555
C21_6 C9_6 1_555 1_555
H11_6 C21_6 1_555 1_555
C1_6 C2_6 1_555 1_555
Mg4_2 O1_6 1_555 1_555
O1_6 C1_6 1_555 1_555
O7_2 C1_6 1_555 1_555
O4_6 Mg4_2 1_555 1_555
C7_6 C2_6 1_555 1_555
H2_6 C7_6 1_555 1_555
Mg3_2 O7_2 1_555 1_555
O13_6 Mg4_2 1_555 1_555
Mg3_2 O13_6 1_555 1_555
O16_7 H18_3 1_555 1_555
C12_7 C13_7 1_555 1_555
C13_7 C14_7 1_555 1_555
C14_7 O15_3 1_555 1_555
Mg7_3 O5_7 1_555 1_555
O5_7 C12_7 1_555 1_555
O9_3 C12_7 1_555 1_555
C15_7 C14_7 1_555 1_555
C16_7 C15_7 1_555 1_555
C17_7 C16_7 1_555 1_555
C18_7 C13_7 1_555 1_555
H9_7 C18_7 1_555 1_555
H10_7 C17_7 1_555 1_555
C17_7 C18_7 1_555 1_555
C1_7 C2_7 1_555 1_555
C2_7 C3_7 1_555 1_555
C3_7 O13_6 1_555 1_555
O8_2 C1_7 1_555 1_555
C4_7 C3_7 1_555 1_555
C5_7 C4_7 1_555 1_555
C6_7 C5_7 1_555 1_555
C7_7 C2_7 1_555 1_555
H1_7 C4_7 1_555 1_555
H2_7 C7_7 1_555 1_555
H3_7 C6_7 1_555 1_555
C8_7 C5_7 1_555 1_555
C9_7 C8_7 1_555 1_555
C10_7 C8_7 1_555 1_555
C11_7 C9_7 1_555 1_555
H4_7 C10_7 1_555 1_555
H5_7 C11_7 1_555 1_555
H6_7 C11_7 1_555 1_555
H7_7 C11_7 1_555 1_555
C20_7 C10_7 1_555 1_555
C21_7 C9_7 1_555 1_555
C22_7 C20_7 1_555 1_555
H11_7 C21_7 1_555 1_555
H12_7 C22_7 1_555 1_555
H13_7 C22_7 1_555 1_555
C6_7 C7_7 1_555 1_555
C19_7 C20_7 1_555 1_555
C19_7 C21_7 1_555 1_555
Mg3_2 O1_7 1_555 1_555
O4_7 Mg3_2 1_555 1_555
O4_7 H15_4 1_555 1_555
O16_8 H18_4 1_555 1_555
C12_8 C13_8 1_555 1_555
C13_8 C14_8 1_555 1_555
C14_8 O15 1_555 1_555
Mg7 O5_8 1_555 1_555
O5_8 C12_8 1_555 1_555
O9 C12_8 1_555 1_555
C15_8 C14_8 1_555 1_555
C16_8 C15_8 1_555 1_555
C17_8 C16_8 1_555 1_555
C18_8 C13_8 1_555 1_555
H9_8 C18_8 1_555 1_555
H10_8 C17_8 1_555 1_555
C17_8 C18_8 1_555 1_555
C1_8 C2_8 1_555 1_555
C2_8 C3_8 1_555 1_555
C3_8 O13_4 1_555 1_555
O8_3 C1_8 1_555 1_555
C4_8 C3_8 1_555 1_555
C5_8 C4_8 1_555 1_555
C6_8 C5_8 1_555 1_555
C7_8 C2_8 1_555 1_555
H1_8 C4_8 1_555 1_555
H2_8 C7_8 1_555 1_555
H3_8 C6_8 1_555 1_555
C8_8 C5_8 1_555 1_555
C9_8 C8_8 1_555 1_555
C10_8 C8_8 1_555 1_555
C11_8 C9_8 1_555 1_555
H4_8 C10_8 1_555 1_555
H5_8 C11_8 1_555 1_555
H6_8 C11_8 1_555 1_555
H7_8 C11_8 1_555 1_555
C20_8 C10_8 1_555 1_555
C21_8 C9_8 1_555 1_555
C22_8 C20_8 1_555 1_555
H11_8 C21_8 1_555 1_555
H12_8 C22_8 1_555 1_555
H13_8 C22_8 1_555 1_555
C6_8 C7_8 1_555 1_555
C19_8 C20_8 1_555 1_555
C19_8 C21_8 1_555 1_555
Mg3_3 O1_8 1_555 1_555
O4_8 Mg3_3 1_555 1_555
O4_8 H15_5 1_555 1_555
O16_9 H18_5 1_555 1_555
C12_9 C13_9 1_555 1_555
C13_9 C14_9 1_555 1_555
C14_9 O15_2 1_555 1_555
Mg7_2 O5_9 1_555 1_555
O5_9 C12_9 1_555 1_555
O9_2 C12_9 1_555 1_555
C15_9 C14_9 1_555 1_555
C16_9 C15_9 1_555 1_555
C17_9 C16_9 1_555 1_555
C18_9 C13_9 1_555 1_555
H9_9 C18_9 1_555 1_555
H10_9 C17_9 1_555 1_555
C17_9 C18_9 1_555 1_555
C1_9 C2_9 1_555 1_555
C2_9 C3_9 1_555 1_555
C3_9 O13_5 1_555 1_555
O8 C1_9 1_555 1_555
C4_9 C3_9 1_555 1_555
C5_9 C4_9 1_555 1_555
C6_9 C5_9 1_555 1_555
C7_9 C2_9 1_555 1_555
H1_9 C4_9 1_555 1_555
H2_9 C7_9 1_555 1_555
H3_9 C6_9 1_555 1_555
C8_9 C5_9 1_555 1_555
C9_9 C8_9 1_555 1_555
C10_9 C8_9 1_555 1_555
C11_9 C9_9 1_555 1_555
H4_9 C10_9 1_555 1_555
H5_9 C11_9 1_555 1_555
H6_9 C11_9 1_555 1_555
H7_9 C11_9 1_555 1_555
C20_9 C10_9 1_555 1_555
C21_9 C9_9 1_555 1_555
C22_9 C20_9 1_555 1_555
H11_9 C21_9 1_555 1_555
H12_9 C22_9 1_555 1_555
H13_9 C22_9 1_555 1_555
C6_9 C7_9 1_555 1_555
C19_9 C20_9 1_555 1_555
C19_9 C21_9 1_555 1_555
Mg3 O1_9 1_555 1_555
O4_9 Mg3 1_555 1_555
O16_7 H15_6 1_555 1_555
O16_8 H15_7 1_555 1_555
O16_9 H15_8 1_555 1_555
O16 H15_9 1_555 1_555
O16_2 H15_10 1_555 1_555

#END
