
###############################################################################
#
# This file contains modified crystal structure data generated from the
# MOF subset of the Cambridge Structural Database (CSD) v543 
# hosted by the Cambridge Crystallographic Data Centre (CCDC).
#
# This work is licensed under the Creative Commons
# Attribution-NonCommercial-ShareAlike 4.0 International License.
# To view a copy of this license, visit
# http://creativecommons.org/licenses/by-nc-sa/4.0/
# or send a letter to
# Creative Commons, PO Box 1866, Mountain View, CA 94042, USA.
#
# CIF created using the CSD Python API on 29 September 2022
# The structure has been converted into the P1 space group
# The structure has a 3D framework
# The original CSD entry RAVWOC is in the rhombohedral crystal system
# The framework has been calculated to contain at least 10.0% void space
# The void calculation uses a probe of radius 1.32A, grid spacing 0.4
# H atom positions have been added when not included in the experimental data
#
###############################################################################

data_RAVWOC
_chemical_formula_moiety         '(C432 H486 Mg18 O72)n'
_symmetry_cell_setting           triclinic
_symmetry_space_group_name_H-M   'P 1'
_symmetry_Int_Tables_number      1
_space_group_name_Hall           'P 1'
loop_
_symmetry_equiv_pos_site_id
_symmetry_equiv_pos_as_xyz
1 x,y,z
_cell_length_a                   68.9586
_cell_length_b                   68.9586
_cell_length_c                   6.4618
_cell_angle_alpha                90
_cell_angle_beta                 90
_cell_angle_gamma                120
_cell_volume                     26611
loop_
_atom_site_label
_atom_site_type_symbol
_atom_site_fract_x
_atom_site_fract_y
_atom_site_fract_z
O9 O 0.67763 0.66736 0.09649
O14 O 0.63585 0.64667 0.04318
O16 O 0.66337 0.62536 0.00983
C25 C 0.64139 0.63658 0.48794
C26 C 0.62360 0.62073 0.34376
C27 C 0.62184 0.62597 0.13418
Mg2 Mg 0.66133 0.64976 0.88088
Mg6 Mg 0.65510 0.67200 0.21421
Mg7 Mg 0.68357 0.67824 0.54755
O5 O 0.64123 0.63051 0.67392
O6 O 0.65639 0.65570 0.42982
O10 O 0.66598 0.67694 0.76315
O15 O 0.68666 0.65585 0.70985
C28 C 0.60468 0.61004 0.00877
C29 C 0.58943 0.58868 0.08341
C30 C 0.59124 0.58323 0.28855
C31 C 0.60803 0.59899 0.41715
H27 H 0.67267 0.62232 0.91332
H29 H 0.60900 0.59399 0.57459
H30 H 0.57954 0.56671 0.34919
H41 H 0.64828 0.61232 0.98618
C45 C 0.46599 0.53596 0.06898
C46 C 0.47472 0.56239 0.26955
C47 C 0.45308 0.54597 0.41150
C48 C 0.45418 0.56057 0.59708
H42 H 0.47052 0.57351 0.67380
H43 H 0.43992 0.56440 0.61352
H44 H 0.45713 0.57623 0.68444
H45 H 0.45443 0.53096 0.46729
H46 H 0.43707 0.54004 0.31729
H47 H 0.49222 0.56830 0.33414
H48 H 0.48230 0.55189 0.21404
H49 H 0.45137 0.53582 0.15342
H50 H 0.45524 0.51706 0.09311
H51 H 0.49182 0.52512 0.12168
H52 H 0.49245 0.54888 0.09118
H54 H 0.554193 0.598328 0.0607483
H2 H 0.39662 0.38555 0.14927
C8 C 0.42789 0.42839 0.05458
C9 C 0.44515 0.42562 0.14318
C10 C 0.46189 0.44310 0.26111
C11 C 0.46223 0.46354 0.28713
C12 C 0.44440 0.46591 0.20508
C13 C 0.42749 0.44828 0.09068
H5 H 0.41408 0.45023 0.02467
C14 C 0.48180 0.48223 0.39390
C15 C 0.47830 0.49048 0.58052
C16 C 0.50389 0.49176 0.31368
H6 H 0.47533 0.44121 0.32710
H7 H 0.46147 0.48299 0.64374
C17 C 0.44675 0.40486 0.10504
C18 C 0.44287 0.48692 0.22787
C19 C 0.50939 0.48401 0.11538
H8 H 0.46267 0.40667 0.16597
H9 H 0.43270 0.39022 0.18317
H10 H 0.45813 0.50115 0.29585
H11 H 0.44041 0.49246 0.07317
H12 H 0.42830 0.48333 0.32766
H13 H 0.51955 0.49874 0.01556
H14 H 0.49437 0.47246 0.02372
C20 C 0.51447 0.46740 0.00089
Mg5 Mg 0.33867 0.35024 0.11912
H28 H 0.60338 0.61445 0.85073
C32 C 0.57211 0.57161 0.94542
C33 C 0.55485 0.57438 0.85682
C34 C 0.53811 0.55690 0.73889
C35 C 0.53777 0.53646 0.71287
C36 C 0.55560 0.53409 0.79492
C37 C 0.57251 0.55172 0.90932
H31 H 0.58592 0.54977 0.97533
C38 C 0.51820 0.51777 0.60610
C39 C 0.52170 0.50952 0.41948
C40 C 0.49611 0.50824 0.68632
H32 H 0.52467 0.55879 0.67290
H33 H 0.53853 0.51701 0.35626
C41 C 0.55325 0.59514 0.89496
C42 C 0.55713 0.51308 0.77213
C43 C 0.49061 0.51599 0.88462
H34 H 0.53733 0.59333 0.83403
H35 H 0.56730 0.60978 0.81683
H36 H 0.54187 0.49885 0.70415
H37 H 0.55959 0.50754 0.92683
H38 H 0.57170 0.51667 0.67234
H39 H 0.48045 0.50126 0.98444
H40 H 0.50563 0.52754 0.97628
C44 C 0.48553 0.53260 0.99911
C1 C 0.35861 0.36342 0.51206
C2 C 0.37640 0.37927 0.65624
C3 C 0.37816 0.37403 0.86582
O1 O 0.35877 0.36949 0.32608
O2 O 0.34361 0.34430 0.57018
O3 O 0.36415 0.35333 0.95682
C4 C 0.39532 0.38996 0.99123
C5 C 0.41057 0.41132 0.91659
C6 C 0.40876 0.41677 0.71145
C7 C 0.39197 0.40101 0.58285
H1 H 0.32733 0.37768 0.08668
H3 H 0.39100 0.40601 0.42541
H4 H 0.42046 0.43329 0.65081
H15 H 0.35172 0.38768 0.01382
C21 C 0.53401 0.46404 0.93102
C22 C 0.52528 0.43761 0.73045
C23 C 0.54692 0.45403 0.58850
C24 C 0.54582 0.43943 0.40292
H16 H 0.52948 0.42649 0.32620
H17 H 0.56008 0.43560 0.38648
H18 H 0.54287 0.42377 0.31556
H19 H 0.54557 0.46904 0.53271
H20 H 0.56293 0.45996 0.68271
H21 H 0.50778 0.43170 0.66586
H22 H 0.51770 0.44811 0.78596
H23 H 0.54863 0.46418 0.84658
H24 H 0.54476 0.48294 0.90689
H25 H 0.50818 0.47488 0.87832
H26 H 0.50755 0.45112 0.90882
Mg3 Mg 0.34490 0.32800 0.78579
Mg4 Mg 0.31643 0.32176 0.45245
O8 O 0.33402 0.32306 0.23685
O13 O 0.31334 0.34415 0.29015
H53 H 0.445807 0.401672 0.939252
O4 O 0.33663 0.37464 0.99017
O7 O 0.32237 0.33264 0.90351
C3_2 C 0.29264 0.33746 0.19915
C4_2 C 0.27671 0.33869 0.32456
C5_2 C 0.25535 0.33258 0.24992
C6_2 C 0.24990 0.32532 0.04478
H2_2 H 0.28112 0.34440 0.48260
C8_2 C 0.23828 0.33283 0.38791
C9_2 C 0.24105 0.35286 0.47651
C10_2 C 0.22357 0.35212 0.59444
C11_2 C 0.20313 0.33202 0.62046
C12_2 C 0.20076 0.31182 0.53841
C13_2 C 0.21839 0.31254 0.42401
H5_2 H 0.21644 0.29718 0.35800
C14_2 C 0.18444 0.33290 0.72723
C15_2 C 0.17619 0.32115 0.91385
C16_2 C 0.17491 0.34546 0.64701
H6_2 H 0.22546 0.36745 0.66043
H7_2 H 0.18368 0.31181 0.97707
C17_2 C 0.26181 0.37522 0.43837
C18_2 C 0.17975 0.28928 0.56120
C19_2 C 0.18266 0.35871 0.44871
H8_2 H 0.26000 0.38933 0.49930
H9_2 H 0.27645 0.37581 0.51650
H10_2 H 0.16552 0.29031 0.62918
H11_2 H 0.17421 0.28128 0.40650
H12_2 H 0.18334 0.27830 0.66099
H13_2 H 0.16793 0.35414 0.34889
H14_2 H 0.19421 0.35524 0.35705
C20_2 C 0.19927 0.38040 0.33422
C21_2 C 0.20263 0.40330 0.26435
C22_2 C 0.22906 0.42100 0.06378
H20_2 H 0.20671 0.43630 0.01604
H22_2 H 0.21856 0.40292 0.11929
H23_2 H 0.20249 0.41778 0.17991
H24_2 H 0.18373 0.39515 0.24022
H25_2 H 0.19179 0.36663 0.21165
H26_2 H 0.21555 0.38976 0.24215
C38_2 C 0.14890 0.33376 0.93943
C39_2 C 0.15715 0.34551 0.75281
H33_2 H 0.14966 0.35485 0.68959
H53_2 H 0.264994 0.377468 0.272585
C1_2 C 0.30325 0.32852 0.84539
C2_2 C 0.28740 0.33046 0.98957
O1_2 O 0.29718 0.32261 0.65941
O4_2 O 0.29203 0.29532 0.32350
C7_2 C 0.26566 0.32429 0.91618
H1_2 H 0.28899 0.28298 0.42001
H3_2 H 0.26066 0.31832 0.75874
H4_2 H 0.23338 0.32050 0.98414
H15_2 H 0.27899 0.29737 0.34715
C23_2 C 0.21264 0.42622 0.92183
C24_2 C 0.22724 0.43972 0.73625
H16_2 H 0.24018 0.43632 0.65953
H17_2 H 0.23107 0.45781 0.71981
H18_2 H 0.24290 0.45243 0.64889
H19_2 H 0.19763 0.40986 0.86604
H21_2 H 0.23497 0.40941 0.99919
O13_2 O 0.32251 0.30252 0.62349
O5_2 O 0.65595 0.69210 0.00725
O14_2 O 0.67749 0.69748 0.37651
O16_2 O 0.62866 0.66996 0.34316
H27_2 H 0.61632 0.66066 0.24665
H41_2 H 0.63071 0.68505 0.31951
H42_2 H 0.76966 0.86281 0.00713
H44_2 H 0.78577 0.87620 0.01777
C25_2 C 0.66186 0.69194 0.82127
C26_2 C 0.66380 0.70973 0.67709
C27_2 C 0.67080 0.71149 0.46751
C28_2 C 0.67203 0.72865 0.34210
C29_2 C 0.66592 0.74390 0.41674
C30_2 C 0.65866 0.74209 0.62188
C31_2 C 0.65763 0.72530 0.75048
H28_2 H 0.67774 0.72995 0.18406
H29_2 H 0.65166 0.72433 0.90792
H30_2 H 0.65384 0.75379 0.68252
C32_2 C 0.66617 0.76122 0.27875
C33_2 C 0.68620 0.77848 0.19015
C34_2 C 0.68546 0.79522 0.07222
C35_2 C 0.66536 0.79556 0.04620
C36_2 C 0.64516 0.77773 0.12825
C37_2 C 0.64588 0.76082 0.24265
H31_2 H 0.63052 0.74741 0.30866
C40_2 C 0.67880 0.83722 0.01965
H32_2 H 0.70079 0.80866 0.00623
C41_2 C 0.70856 0.78008 0.22829
C42_2 C 0.62262 0.77620 0.10546
C43_2 C 0.69205 0.84272 0.21795
H34_2 H 0.72267 0.79600 0.16736
H35_2 H 0.70915 0.76603 0.15016
H36_2 H 0.62365 0.79146 0.03748
H37_2 H 0.61462 0.77374 0.26016
H38_2 H 0.61164 0.76163 0.00567
H39_2 H 0.68748 0.85288 0.31777
H40_2 H 0.68858 0.82770 0.30961
C44_2 C 0.71374 0.84780 0.33244
C45_2 C 0.73664 0.86734 0.40231
C46_2 C 0.75434 0.85861 0.60288
C47_2 C 0.75956 0.88025 0.74483
C48_2 C 0.77306 0.87915 0.93041
H43_2 H 0.79115 0.89341 0.94685
H45_2 H 0.74320 0.87890 0.80062
H46_2 H 0.76964 0.89626 0.65062
H47_2 H 0.74275 0.84111 0.66747
H48_2 H 0.73626 0.85103 0.54737
H49_2 H 0.75112 0.88196 0.48675
H50_2 H 0.72849 0.87809 0.42644
H51_2 H 0.69997 0.84151 0.45501
H52_2 H 0.72310 0.84088 0.42451
H54_2 H 0.710801 0.77914 0.394082
C25_3 C 0.69675 0.67148 0.15461
C26_3 C 0.71260 0.66954 0.01043
O5_3 O 0.70282 0.67739 0.34059
O16_3 O 0.70797 0.70468 0.67650
C31_3 C 0.73434 0.67571 0.08382
H27_3 H 0.71101 0.71702 0.57999
H29_3 H 0.73934 0.68168 0.24126
H30_3 H 0.76662 0.67950 0.01586
H41_3 H 0.72101 0.70263 0.65285
C47_3 C 0.78736 0.57378 0.07817
C48_3 C 0.77276 0.56028 0.26375
H42_3 H 0.75982 0.56368 0.34047
H43_3 H 0.76893 0.54219 0.28019
H44_3 H 0.75710 0.54757 0.35111
H45_3 H 0.80237 0.59014 0.13396
H47_3 H 0.76503 0.59059 0.00081
C14_3 C 0.85110 0.66624 0.06057
C15_3 C 0.84285 0.65449 0.24719
H7_3 H 0.85034 0.64515 0.31041
C27_3 C 0.70736 0.66254 0.80085
C28_3 C 0.72329 0.66131 0.67544
C29_3 C 0.74465 0.66742 0.75008
C30_3 C 0.75010 0.67468 0.95522
H28_3 H 0.71888 0.65560 0.51740
C32_3 C 0.76172 0.66717 0.61209
C33_3 C 0.75895 0.64714 0.52349
C34_3 C 0.77643 0.64788 0.40556
C35_3 C 0.79687 0.66798 0.37954
C36_3 C 0.79924 0.68818 0.46159
C37_3 C 0.78161 0.68746 0.57599
H31_3 H 0.78356 0.70282 0.64200
C38_3 C 0.81556 0.66710 0.27277
C39_3 C 0.82381 0.67885 0.08615
C40_3 C 0.82509 0.65454 0.35299
H32_3 H 0.77454 0.63255 0.33957
H33_3 H 0.81632 0.68819 0.02293
C41_3 C 0.73819 0.62478 0.56163
C42_3 C 0.82025 0.71072 0.43880
C43_3 C 0.81734 0.64129 0.55129
H34_3 H 0.74000 0.61067 0.50070
H35_3 H 0.72355 0.62419 0.48350
H36_3 H 0.83448 0.70969 0.37082
H37_3 H 0.82579 0.71872 0.59350
H38_3 H 0.81666 0.72170 0.33901
H39_3 H 0.83207 0.64586 0.65111
H40_3 H 0.80579 0.64476 0.64295
C44_3 C 0.80073 0.61960 0.66578
C45_3 C 0.79737 0.59670 0.73565
C46_3 C 0.77094 0.57900 0.93622
H46_3 H 0.79329 0.56370 0.98396
H48_3 H 0.78144 0.59708 0.88071
H49_3 H 0.79751 0.58222 0.82009
H50_3 H 0.81627 0.60485 0.75978
H51_3 H 0.80821 0.63337 0.78835
H52_3 H 0.78445 0.61024 0.75785
H54_3 H 0.735006 0.622532 0.727415
C1_3 C 0.33814 0.30806 0.17873
C2_3 C 0.33620 0.29027 0.32291
C3_3 C 0.32920 0.28851 0.53249
C4_3 C 0.32797 0.27135 0.65790
C5_3 C 0.33408 0.25610 0.58326
C6_3 C 0.34134 0.25791 0.37812
C7_3 C 0.34237 0.27470 0.24952
H2_3 H 0.32226 0.27005 0.81594
H3_3 H 0.34834 0.27567 0.09208
H4_3 H 0.34616 0.24621 0.31748
C8_3 C 0.33383 0.23878 0.72125
C9_3 C 0.31380 0.22152 0.80985
C10_3 C 0.31454 0.20478 0.92778
C11_3 C 0.33464 0.20444 0.95380
C12_3 C 0.35484 0.22227 0.87175
C13_3 C 0.35412 0.23918 0.75735
H5_3 H 0.36948 0.25259 0.69134
C16_3 C 0.32120 0.16278 0.98035
H6_3 H 0.29921 0.19134 0.99377
C17_3 C 0.29144 0.21992 0.77171
C18_3 C 0.37738 0.22380 0.89454
C19_3 C 0.30795 0.15728 0.78205
H8_3 H 0.27733 0.20400 0.83264
H9_3 H 0.29085 0.23397 0.84984
H10_3 H 0.37635 0.20854 0.96252
H11_3 H 0.38538 0.22626 0.73984
H12_3 H 0.38836 0.23837 0.99433
H13_3 H 0.31252 0.14712 0.68223
H14_3 H 0.31142 0.17230 0.69039
C20_3 C 0.28626 0.15220 0.66756
C21_3 C 0.26336 0.13266 0.59769
C22_3 C 0.24566 0.14139 0.39712
C23_3 C 0.24044 0.11975 0.25517
C24_3 C 0.22694 0.12085 0.06959
H17_3 H 0.20885 0.10659 0.05315
H19_3 H 0.25680 0.12110 0.19938
H20_3 H 0.23036 0.10374 0.34938
H21_3 H 0.25725 0.15889 0.33253
H22_3 H 0.26374 0.14897 0.45263
H23_3 H 0.24888 0.11804 0.51325
H24_3 H 0.27151 0.12191 0.57356
H25_3 H 0.30003 0.15849 0.54499
H26_3 H 0.27690 0.15912 0.57549
H53_3 H 0.289199 0.22086 0.605918
O1_3 O 0.34405 0.30790 0.99275
O4_3 O 0.37134 0.33004 0.65684
H1_3 H 0.38368 0.33934 0.75335
H15_3 H 0.36929 0.31495 0.68049
H16_3 H 0.23034 0.13719 0.99287
H18_3 H 0.21423 0.12380 0.98223
O9_2 O 0.33264 0.01028 0.09649
O16_4 O 0.37464 0.03801 0.00983
C25_4 C 0.36342 0.00481 0.48794
C26_4 C 0.37927 0.00287 0.34376
Mg2_2 Mg 0.35024 0.01157 0.88088
Mg7_2 Mg 0.32176 0.00534 0.54755
O5_4 O 0.36949 0.01072 0.67392
O6_2 O 0.34430 0.00069 0.42982
O15_2 O 0.34415 0.03082 0.70985
C29_4 C 0.41132 0.00075 0.08341
C30_4 C 0.41677 0.00801 0.28855
C31_4 C 0.40101 0.00904 0.41715
H27_4 H 0.37768 0.05035 0.91332
H29_4 H 0.40601 0.01501 0.57459
H30_4 H 0.43329 0.01283 0.34919
H41_4 H 0.38768 0.03596 0.98618
H2_4 H 0.61445 0.01107 0.14927
C9_4 C 0.57438 0.01953 0.14318
C10_4 C 0.55690 0.01879 0.26111
C16_4 C 0.50824 0.01213 0.31368
H6_4 H 0.55879 0.03412 0.32710
C17_4 C 0.59514 0.04189 0.10504
C19_4 C 0.51599 0.02538 0.11538
H8_4 H 0.59333 0.05600 0.16597
H9_4 H 0.60978 0.04248 0.18317
H13_4 H 0.50126 0.02081 0.01556
H14_4 H 0.52754 0.02191 0.02372
C20_4 C 0.53260 0.04707 0.00089
C32_4 C 0.42839 0.00050 0.94542
C35_4 C 0.46354 0.00131 0.71287
C36_4 C 0.46591 0.02151 0.79492
C37_4 C 0.44828 0.02079 0.90932
H31_4 H 0.45023 0.03615 0.97533
C38_4 C 0.48223 0.00043 0.60610
C39_4 C 0.49048 0.01218 0.41948
H33_4 H 0.48299 0.02152 0.35626
C42_4 C 0.48692 0.04405 0.77213
H36_4 H 0.50115 0.04302 0.70415
H37_4 H 0.49246 0.05205 0.92683
H38_4 H 0.48333 0.05503 0.67234
C25_5 C 0.32852 0.02528 0.15461
C26_5 C 0.33046 0.04307 0.01043
O5_5 O 0.32261 0.02544 0.34059
O16_5 O 0.29532 0.00330 0.67650
C31_5 C 0.32429 0.05864 0.08382
H29_5 H 0.31832 0.05767 0.24126
H30_5 H 0.32050 0.08713 0.01586
H41_5 H 0.29737 0.01839 0.65285
C47_4 C 0.42622 0.21359 0.07817
C48_4 C 0.43972 0.21249 0.26375
H42_4 H 0.43632 0.19615 0.34047
H43_4 H 0.45781 0.22675 0.28019
H44_4 H 0.45243 0.20954 0.35111
H45_4 H 0.40986 0.21224 0.13396
H47_4 H 0.40941 0.17445 0.00081
C14_4 C 0.33376 0.18487 0.06057
C15_4 C 0.34551 0.18837 0.24719
H7_4 H 0.35485 0.20520 0.31041
C27_4 C 0.33746 0.04483 0.80085
C28_4 C 0.33869 0.06199 0.67544
C29_5 C 0.33258 0.07724 0.75008
C30_5 C 0.32532 0.07543 0.95522
H28_4 H 0.34440 0.06329 0.51740
C32_5 C 0.33283 0.09456 0.61209
C33_4 C 0.35286 0.11182 0.52349
C34_4 C 0.35212 0.12856 0.40556
C35_5 C 0.33202 0.12890 0.37954
C36_5 C 0.31182 0.11107 0.46159
C37_5 C 0.31254 0.09416 0.57599
H31_5 H 0.29718 0.08075 0.64200
C38_5 C 0.33290 0.14847 0.27277
C39_5 C 0.32115 0.14497 0.08615
C40_4 C 0.34546 0.17056 0.35299
H32_4 H 0.36745 0.14200 0.33957
H33_5 H 0.31181 0.12814 0.02293
C41_4 C 0.37522 0.11342 0.56163
C42_5 C 0.28928 0.10954 0.43880
C43_4 C 0.35871 0.17606 0.55129
H34_4 H 0.38933 0.12934 0.50070
H35_4 H 0.37581 0.09937 0.48350
H36_5 H 0.29031 0.12480 0.37082
H37_5 H 0.28128 0.10708 0.59350
H38_5 H 0.27830 0.09497 0.33901
H39_4 H 0.35414 0.18622 0.65111
H40_4 H 0.35524 0.16104 0.64295
C44_4 C 0.38040 0.18114 0.66578
C45_4 C 0.40330 0.20068 0.73565
C46_4 C 0.42100 0.19195 0.93622
H46_4 H 0.43630 0.22960 0.98396
H48_4 H 0.40292 0.18437 0.88071
H49_4 H 0.41778 0.21530 0.82009
H50_4 H 0.39515 0.21143 0.75978
H51_4 H 0.36663 0.17485 0.78835
H52_4 H 0.38976 0.17422 0.75785
H54_4 H 0.377468 0.112474 0.727415
C3_4 C 0.62597 0.00413 0.86582
O3_2 O 0.64667 0.01082 0.95682
C4_4 C 0.61004 0.00536 0.99123
C21_4 C 0.53596 0.06997 0.93102
C22_4 C 0.56239 0.08767 0.73045
C23_4 C 0.54597 0.09289 0.58850
C24_4 C 0.56057 0.10639 0.40292
H16_4 H 0.57351 0.10299 0.32620
H17_4 H 0.56440 0.12448 0.38648
H18_4 H 0.57623 0.11910 0.31556
H19_4 H 0.53096 0.07653 0.53271
H20_4 H 0.54004 0.10297 0.68271
H21_4 H 0.56830 0.07608 0.66586
H22_4 H 0.55189 0.06959 0.78596
H23_4 H 0.53582 0.08445 0.84658
H24_4 H 0.51706 0.06182 0.90689
H25_4 H 0.52512 0.03330 0.87832
H26_4 H 0.54888 0.05643 0.90882
Mg3_2 Mg 0.67200 0.01691 0.78579
O8_2 O 0.67694 0.01097 0.23685
H53_4 H 0.598328 0.0441348 0.939252
H1_4 H 0.71702 0.00600 0.42001
O13_3 O 0.69748 0.02000 0.62349
C1_4 C 0.69194 0.03009 0.17873
C2_4 C 0.70973 0.04594 0.32291
C3_5 C 0.71149 0.04070 0.53249
C4_5 C 0.72865 0.05663 0.65790
C5_4 C 0.74390 0.07799 0.58326
C6_4 C 0.74209 0.08344 0.37812
C7_4 C 0.72530 0.06768 0.24952
H2_5 H 0.72995 0.05222 0.81594
H3_4 H 0.72433 0.07268 0.09208
H4_4 H 0.75379 0.09996 0.31748
C8_4 C 0.76122 0.09506 0.72125
C9_5 C 0.77848 0.09229 0.80985
C10_5 C 0.79522 0.10977 0.92778
C11_4 C 0.79556 0.13021 0.95380
C12_4 C 0.77773 0.13258 0.87175
C13_4 C 0.76082 0.11495 0.75735
H5_4 H 0.74741 0.11690 0.69134
C16_5 C 0.83722 0.15843 0.98035
H6_5 H 0.80866 0.10788 0.99377
C17_5 C 0.78008 0.07153 0.77171
C18_4 C 0.77620 0.15359 0.89454
C19_5 C 0.84272 0.15068 0.78205
H8_5 H 0.79600 0.07334 0.83264
H9_5 H 0.76603 0.05689 0.84984
H10_4 H 0.79146 0.16782 0.96252
H11_4 H 0.77374 0.15913 0.73984
H12_4 H 0.76163 0.15000 0.99433
H13_5 H 0.85288 0.16541 0.68223
H14_5 H 0.82770 0.13913 0.69039
C20_5 C 0.84780 0.13407 0.66756
C21_5 C 0.86734 0.13071 0.59769
C22_5 C 0.85861 0.10428 0.39712
C23_5 C 0.88025 0.12070 0.25517
C24_5 C 0.87915 0.10610 0.06959
H17_5 H 0.89341 0.10227 0.05315
H19_5 H 0.87890 0.13571 0.19938
H20_5 H 0.89626 0.12663 0.34938
H21_5 H 0.84111 0.09837 0.33253
H22_5 H 0.85103 0.11478 0.45263
H23_5 H 0.88196 0.13085 0.51325
H24_5 H 0.87809 0.14961 0.57356
H25_5 H 0.84151 0.14155 0.54499
H26_5 H 0.84088 0.11779 0.57549
H53_5 H 0.77914 0.0683388 0.605918
O1_4 O 0.69210 0.03616 0.99275
O4_4 O 0.66996 0.04131 0.65684
H1_5 H 0.66066 0.04435 0.75335
H15_4 H 0.68505 0.05435 0.68049
H16_5 H 0.86281 0.09316 0.99287
H18_5 H 0.87620 0.09044 0.98223
O14_3 O 0.35333 0.98918 0.04318
C27_5 C 0.37403 0.99587 0.13418
Mg6_2 Mg 0.32800 0.98309 0.21421
O10_2 O 0.32306 0.98903 0.76315
C28_5 C 0.38996 0.99464 0.00877
C45_5 C 0.46404 0.93003 0.06898
C46_5 C 0.43761 0.91233 0.26955
C47_5 C 0.45403 0.90711 0.41150
C48_5 C 0.43943 0.89361 0.59708
H42_5 H 0.42649 0.89701 0.67380
H43_5 H 0.43560 0.87552 0.61352
H44_5 H 0.42377 0.88090 0.68444
H45_5 H 0.46904 0.92347 0.46729
H46_5 H 0.45996 0.89703 0.31729
H47_5 H 0.43170 0.92392 0.33414
H48_5 H 0.44811 0.93041 0.21404
H49_5 H 0.46418 0.91555 0.15342
H50_5 H 0.48294 0.93818 0.09311
H51_5 H 0.47488 0.96670 0.12168
H52_5 H 0.45112 0.94357 0.09118
H54_5 H 0.401672 0.955865 0.0607483
O5_6 O 0.30790 0.96384 0.00725
O14_4 O 0.30252 0.98000 0.37651
O16_6 O 0.33004 0.95869 0.34316
H27_5 H 0.33934 0.95565 0.24665
H41_6 H 0.31495 0.94565 0.31951
H42_6 H 0.13719 0.90684 0.00713
H44_6 H 0.12380 0.90956 0.01777
C25_6 C 0.30806 0.96991 0.82127
C26_6 C 0.29027 0.95406 0.67709
C27_6 C 0.28851 0.95930 0.46751
C28_6 C 0.27135 0.94337 0.34210
C29_6 C 0.25610 0.92201 0.41674
C30_6 C 0.25791 0.91656 0.62188
C31_6 C 0.27470 0.93232 0.75048
H28_5 H 0.27005 0.94778 0.18406
H29_6 H 0.27567 0.92732 0.90792
H30_6 H 0.24621 0.90004 0.68252
C32_6 C 0.23878 0.90494 0.27875
C33_5 C 0.22152 0.90771 0.19015
C34_5 C 0.20478 0.89023 0.07222
C35_6 C 0.20444 0.86979 0.04620
C36_6 C 0.22227 0.86742 0.12825
C37_6 C 0.23918 0.88505 0.24265
H31_6 H 0.25259 0.88310 0.30866
C40_5 C 0.16278 0.84157 0.01965
H32_5 H 0.19134 0.89212 0.00623
C41_5 C 0.21992 0.92847 0.22829
C42_6 C 0.22380 0.84641 0.10546
C43_5 C 0.15728 0.84932 0.21795
H34_5 H 0.20400 0.92666 0.16736
H35_5 H 0.23397 0.94311 0.15016
H36_6 H 0.20854 0.83218 0.03748
H37_6 H 0.22626 0.84087 0.26016
H38_6 H 0.23837 0.85000 0.00567
H39_5 H 0.14712 0.83459 0.31777
H40_5 H 0.17230 0.86087 0.30961
C44_5 C 0.15220 0.86593 0.33244
C45_6 C 0.13266 0.86929 0.40231
C46_6 C 0.14139 0.89572 0.60288
C47_6 C 0.11975 0.87930 0.74483
C48_6 C 0.12085 0.89390 0.93041
H43_6 H 0.10659 0.89773 0.94685
H45_6 H 0.12110 0.86429 0.80062
H46_6 H 0.10374 0.87337 0.65062
H47_6 H 0.15889 0.90163 0.66747
H48_6 H 0.14897 0.88522 0.54737
H49_6 H 0.11804 0.86915 0.48675
H50_6 H 0.12191 0.85039 0.42644
H51_6 H 0.15849 0.85845 0.45501
H52_6 H 0.15912 0.88221 0.42451
H54_6 H 0.22086 0.931661 0.394082
H27_6 H 0.28298 0.99400 0.57999
C8_5 C 0.57161 0.99950 0.05458
C11_5 C 0.53646 0.99869 0.28713
C12_5 C 0.53409 0.97849 0.20508
C13_5 C 0.55172 0.97921 0.09068
H5_5 H 0.54977 0.96385 0.02467
C14_5 C 0.51777 0.99957 0.39390
C15_5 C 0.50952 0.98782 0.58052
H7_5 H 0.51701 0.97848 0.64374
C18_5 C 0.51308 0.95595 0.22787
H10_5 H 0.49885 0.95698 0.29585
H11_5 H 0.50754 0.94795 0.07317
H12_5 H 0.51667 0.94497 0.32766
Mg5_2 Mg 0.64976 0.98843 0.11912
H28_6 H 0.38555 0.98893 0.85073
C33_6 C 0.42562 0.98047 0.85682
C34_6 C 0.44310 0.98121 0.73889
C40_6 C 0.49176 0.98787 0.68632
H32_6 H 0.44121 0.96588 0.67290
C41_6 C 0.40486 0.95811 0.89496
C43_6 C 0.48401 0.97462 0.88462
H34_6 H 0.40667 0.94400 0.83403
H35_6 H 0.39022 0.95752 0.81683
H39_6 H 0.49874 0.97919 0.98444
H40_6 H 0.47246 0.97809 0.97628
C44_6 C 0.46740 0.95293 0.99911
C1_5 C 0.63658 0.99519 0.51206
C2_5 C 0.62073 0.99713 0.65624
O1_5 O 0.63051 0.98928 0.32608
O2_2 O 0.65570 0.99931 0.57018
C5_5 C 0.58868 0.99925 0.91659
C6_5 C 0.58323 0.99199 0.71145
C7_5 C 0.59899 0.99096 0.58285
H1_6 H 0.62232 0.94965 0.08668
H3_5 H 0.59399 0.98499 0.42541
H4_5 H 0.56671 0.98717 0.65081
H15_5 H 0.61232 0.96404 0.01382
Mg4_2 Mg 0.67824 0.99466 0.45245
O13_4 O 0.65585 0.96918 0.29015
O4_5 O 0.62536 0.96199 0.99017
O7_2 O 0.66736 0.98972 0.90351
C3_6 C 0.66254 0.95517 0.19915
C4_6 C 0.66131 0.93801 0.32456
C5_6 C 0.66742 0.92276 0.24992
C6_6 C 0.67468 0.92457 0.04478
H2_6 H 0.65560 0.93671 0.48260
C8_6 C 0.66717 0.90544 0.38791
C9_6 C 0.64714 0.88818 0.47651
C10_6 C 0.64788 0.87144 0.59444
C11_6 C 0.66798 0.87110 0.62046
C12_6 C 0.68818 0.88893 0.53841
C13_6 C 0.68746 0.90584 0.42401
H5_6 H 0.70282 0.91925 0.35800
C14_6 C 0.66710 0.85153 0.72723
C15_6 C 0.67885 0.85503 0.91385
C16_6 C 0.65454 0.82944 0.64701
H6_6 H 0.63255 0.85800 0.66043
H7_6 H 0.68819 0.87186 0.97707
C17_6 C 0.62478 0.88658 0.43837
C18_6 C 0.71072 0.89046 0.56120
C19_6 C 0.64129 0.82394 0.44871
H8_6 H 0.61067 0.87066 0.49930
H9_6 H 0.62419 0.90063 0.51650
H10_6 H 0.70969 0.87520 0.62918
H11_6 H 0.71872 0.89292 0.40650
H12_6 H 0.72170 0.90503 0.66099
H13_6 H 0.64586 0.81378 0.34889
H14_6 H 0.64476 0.83896 0.35705
C20_6 C 0.61960 0.81886 0.33422
C21_6 C 0.59670 0.79932 0.26435
C22_6 C 0.57900 0.80805 0.06378
H20_6 H 0.56370 0.77040 0.01604
H22_6 H 0.59708 0.81563 0.11929
H23_6 H 0.58222 0.78470 0.17991
H24_6 H 0.60485 0.78857 0.24022
H25_6 H 0.63337 0.82515 0.21165
H26_6 H 0.61024 0.82578 0.24215
C38_6 C 0.66624 0.81513 0.93943
C39_6 C 0.65449 0.81163 0.75281
H33_6 H 0.64515 0.79480 0.68959
H53_6 H 0.622532 0.887526 0.272585
C1_6 C 0.67148 0.97472 0.84539
C2_6 C 0.66954 0.95693 0.98957
O1_6 O 0.67739 0.97456 0.65941
O4_6 O 0.70468 0.99670 0.32350
C7_6 C 0.67571 0.94136 0.91618
H3_6 H 0.68168 0.94233 0.75874
H4_6 H 0.67950 0.91287 0.98414
H15_6 H 0.70263 0.98161 0.34715
C23_6 C 0.57378 0.78641 0.92183
C24_6 C 0.56028 0.78751 0.73625
H16_6 H 0.56368 0.80385 0.65953
H17_6 H 0.54219 0.77325 0.71981
H18_6 H 0.54757 0.79046 0.64889
H19_6 H 0.59014 0.78776 0.86604
H21_6 H 0.59059 0.82555 0.99919
O14_5 O 0.01082 0.36415 0.04318
C27_7 C 0.00413 0.37816 0.13418
Mg6_3 Mg 0.01691 0.34490 0.21421
O10_3 O 0.01097 0.33402 0.76315
C28_7 C 0.00536 0.39532 0.00877
C45_7 C 0.06997 0.53401 0.06898
C46_7 C 0.08767 0.52528 0.26955
C47_7 C 0.09289 0.54692 0.41150
C48_7 C 0.10639 0.54582 0.59708
H42_7 H 0.10299 0.52948 0.67380
H43_7 H 0.12448 0.56008 0.61352
H44_7 H 0.11910 0.54287 0.68444
H45_7 H 0.07653 0.54557 0.46729
H46_7 H 0.10297 0.56293 0.31729
H47_7 H 0.07608 0.50778 0.33414
H48_7 H 0.06959 0.51770 0.21404
H49_7 H 0.08445 0.54863 0.15342
H50_7 H 0.06182 0.54476 0.09311
H51_7 H 0.03330 0.50818 0.12168
H52_7 H 0.05643 0.50755 0.09118
H54_7 H 0.0441348 0.445807 0.0607483
O5_7 O 0.03616 0.34405 0.00725
O14_6 O 0.02000 0.32251 0.37651
O16_7 O 0.04131 0.37134 0.34316
H27_7 H 0.04435 0.38368 0.24665
H41_7 H 0.05435 0.36929 0.31951
H42_8 H 0.09316 0.23034 0.00713
H44_8 H 0.09044 0.21423 0.01777
C25_7 C 0.03009 0.33814 0.82127
C26_7 C 0.04594 0.33620 0.67709
C27_8 C 0.04070 0.32920 0.46751
C28_8 C 0.05663 0.32797 0.34210
C29_7 C 0.07799 0.33408 0.41674
C30_7 C 0.08344 0.34134 0.62188
C31_7 C 0.06768 0.34237 0.75048
H28_7 H 0.05222 0.32226 0.18406
H29_7 H 0.07268 0.34834 0.90792
H30_7 H 0.09996 0.34616 0.68252
C32_7 C 0.09506 0.33383 0.27875
C33_7 C 0.09229 0.31380 0.19015
C34_7 C 0.10977 0.31454 0.07222
C35_7 C 0.13021 0.33464 0.04620
C36_7 C 0.13258 0.35484 0.12825
C37_7 C 0.11495 0.35412 0.24265
H31_7 H 0.11690 0.36948 0.30866
C40_7 C 0.15843 0.32120 0.01965
H32_7 H 0.10788 0.29921 0.00623
C41_7 C 0.07153 0.29144 0.22829
C42_7 C 0.15359 0.37738 0.10546
C43_7 C 0.15068 0.30795 0.21795
H34_7 H 0.07334 0.27733 0.16736
H35_7 H 0.05689 0.29085 0.15016
H36_7 H 0.16782 0.37635 0.03748
H37_7 H 0.15913 0.38538 0.26016
H38_7 H 0.15000 0.38836 0.00567
H39_7 H 0.16541 0.31252 0.31777
H40_7 H 0.13913 0.31142 0.30961
C44_7 C 0.13407 0.28626 0.33244
C45_8 C 0.13071 0.26336 0.40231
C46_8 C 0.10428 0.24566 0.60288
C47_8 C 0.12070 0.24044 0.74483
C48_8 C 0.10610 0.22694 0.93041
H43_8 H 0.10227 0.20885 0.94685
H45_8 H 0.13571 0.25680 0.80062
H46_8 H 0.12663 0.23036 0.65062
H47_8 H 0.09837 0.25725 0.66747
H48_8 H 0.11478 0.26374 0.54737
H49_8 H 0.13085 0.24888 0.48675
H50_8 H 0.14961 0.27151 0.42644
H51_8 H 0.14155 0.30003 0.45501
H52_8 H 0.11779 0.27690 0.42451
H54_8 H 0.0683388 0.289199 0.394082
H27_8 H 0.00600 0.28899 0.57999
C8_7 C 0.00050 0.57211 0.05458
C11_7 C 0.00131 0.53777 0.28713
C12_7 C 0.02151 0.55560 0.20508
C13_7 C 0.02079 0.57251 0.09068
H5_7 H 0.03615 0.58592 0.02467
C14_7 C 0.00043 0.51820 0.39390
C15_7 C 0.01218 0.52170 0.58052
H7_7 H 0.02152 0.53853 0.64374
C18_7 C 0.04405 0.55713 0.22787
H10_7 H 0.04302 0.54187 0.29585
H11_7 H 0.05205 0.55959 0.07317
H12_7 H 0.05503 0.57170 0.32766
Mg5_3 Mg 0.01157 0.66133 0.11912
H28_8 H 0.01107 0.39662 0.85073
C33_8 C 0.01953 0.44515 0.85682
C34_8 C 0.01879 0.46189 0.73889
C40_8 C 0.01213 0.50389 0.68632
H32_8 H 0.03412 0.47533 0.67290
C41_8 C 0.04189 0.44675 0.89496
C43_8 C 0.02538 0.50939 0.88462
H34_8 H 0.05600 0.46267 0.83403
H35_8 H 0.04248 0.43270 0.81683
H39_8 H 0.02081 0.51955 0.98444
H40_8 H 0.02191 0.49437 0.97628
C44_8 C 0.04707 0.51447 0.99911
C1_7 C 0.00481 0.64139 0.51206
C2_7 C 0.00287 0.62360 0.65624
O1_7 O 0.01072 0.64123 0.32608
O2_3 O 0.00069 0.65639 0.57018
C5_7 C 0.00075 0.58943 0.91659
C6_7 C 0.00801 0.59124 0.71145
C7_7 C 0.00904 0.60803 0.58285
H1_7 H 0.05035 0.67267 0.08668
H3_7 H 0.01501 0.60900 0.42541
H4_7 H 0.01283 0.57954 0.65081
H15_7 H 0.03596 0.64828 0.01382
Mg4_3 Mg 0.00534 0.68357 0.45245
O13_5 O 0.03082 0.68666 0.29015
O4_7 O 0.03801 0.66337 0.99017
O7_3 O 0.01028 0.67763 0.90351
C3_7 C 0.04483 0.70736 0.19915
C4_7 C 0.06199 0.72329 0.32456
C5_8 C 0.07724 0.74465 0.24992
C6_8 C 0.07543 0.75010 0.04478
H2_7 H 0.06329 0.71888 0.48260
C8_8 C 0.09456 0.76172 0.38791
C9_7 C 0.11182 0.75895 0.47651
C10_7 C 0.12856 0.77643 0.59444
C11_8 C 0.12890 0.79687 0.62046
C12_8 C 0.11107 0.79924 0.53841
C13_8 C 0.09416 0.78161 0.42401
H5_8 H 0.08075 0.78356 0.35800
C14_8 C 0.14847 0.81556 0.72723
C15_8 C 0.14497 0.82381 0.91385
C16_7 C 0.17056 0.82509 0.64701
H6_7 H 0.14200 0.77454 0.66043
H7_8 H 0.12814 0.81632 0.97707
C17_7 C 0.11342 0.73819 0.43837
C18_8 C 0.10954 0.82025 0.56120
C19_7 C 0.17606 0.81734 0.44871
H8_7 H 0.12934 0.74000 0.49930
H9_7 H 0.09937 0.72355 0.51650
H10_8 H 0.12480 0.83448 0.62918
H11_8 H 0.10708 0.82579 0.40650
H12_8 H 0.09497 0.81666 0.66099
H13_7 H 0.18622 0.83207 0.34889
H14_7 H 0.16104 0.80579 0.35705
C20_7 C 0.18114 0.80073 0.33422
C21_7 C 0.20068 0.79737 0.26435
C22_7 C 0.19195 0.77094 0.06378
H20_7 H 0.22960 0.79329 0.01604
H22_7 H 0.18437 0.78144 0.11929
H23_7 H 0.21530 0.79751 0.17991
H24_7 H 0.21143 0.81627 0.24022
H25_7 H 0.17485 0.80821 0.21165
H26_7 H 0.17422 0.78445 0.24215
C38_7 C 0.18487 0.85110 0.93943
C39_7 C 0.18837 0.84285 0.75281
H33_7 H 0.20520 0.85034 0.68959
H53_7 H 0.112474 0.735006 0.272585
C1_8 C 0.02528 0.69675 0.84539
C2_8 C 0.04307 0.71260 0.98957
O1_8 O 0.02544 0.70282 0.65941
O4_8 O 0.00330 0.70797 0.32350
C7_8 C 0.05864 0.73434 0.91618
H3_8 H 0.05767 0.73934 0.75874
H4_8 H 0.08713 0.76662 0.98414
H15_8 H 0.01839 0.72101 0.34715
C23_7 C 0.21359 0.78736 0.92183
C24_7 C 0.21249 0.77276 0.73625
H16_7 H 0.19615 0.75982 0.65953
H17_7 H 0.22675 0.76893 0.71981
H18_7 H 0.20954 0.75710 0.64889
H19_7 H 0.21224 0.80237 0.86604
H21_7 H 0.17445 0.76503 0.99919
O9_3 O 0.98972 0.32237 0.09649
O16_8 O 0.96199 0.33663 0.00983
C25_8 C 0.99519 0.35861 0.48794
C26_8 C 0.99713 0.37640 0.34376
Mg2_3 Mg 0.98843 0.33867 0.88088
Mg7_3 Mg 0.99466 0.31643 0.54755
O5_8 O 0.98928 0.35877 0.67392
O6_3 O 0.99931 0.34361 0.42982
O15_3 O 0.96918 0.31334 0.70985
C29_8 C 0.99925 0.41057 0.08341
C30_8 C 0.99199 0.40876 0.28855
C31_8 C 0.99096 0.39197 0.41715
H27_9 H 0.94965 0.32733 0.91332
H29_8 H 0.98499 0.39100 0.57459
H30_8 H 0.98717 0.42046 0.34919
H41_8 H 0.96404 0.35172 0.98618
H2_8 H 0.98893 0.60338 0.14927
C9_8 C 0.98047 0.55485 0.14318
C10_8 C 0.98121 0.53811 0.26111
C16_8 C 0.98787 0.49611 0.31368
H6_8 H 0.96588 0.52467 0.32710
C17_8 C 0.95811 0.55325 0.10504
C19_8 C 0.97462 0.49061 0.11538
H8_8 H 0.94400 0.53733 0.16597
H9_8 H 0.95752 0.56730 0.18317
H13_8 H 0.97919 0.48045 0.01556
H14_8 H 0.97809 0.50563 0.02372
C20_8 C 0.95293 0.48553 0.00089
C32_8 C 0.99950 0.42789 0.94542
C35_8 C 0.99869 0.46223 0.71287
C36_8 C 0.97849 0.44440 0.79492
C37_8 C 0.97921 0.42749 0.90932
H31_8 H 0.96385 0.41408 0.97533
C38_8 C 0.99957 0.48180 0.60610
C39_8 C 0.98782 0.47830 0.41948
H33_8 H 0.97848 0.46147 0.35626
C42_8 C 0.95595 0.44287 0.77213
H36_8 H 0.95698 0.45813 0.70415
H37_8 H 0.94795 0.44041 0.92683
H38_8 H 0.94497 0.42830 0.67234
C25_9 C 0.97472 0.30325 0.15461
C26_9 C 0.95693 0.28740 0.01043
O5_9 O 0.97456 0.29718 0.34059
O16_9 O 0.99670 0.29203 0.67650
C31_9 C 0.94136 0.26566 0.08382
H29_9 H 0.94233 0.26066 0.24126
H30_9 H 0.91287 0.23338 0.01586
H41_9 H 0.98161 0.27899 0.65285
C47_9 C 0.78641 0.21264 0.07817
C48_9 C 0.78751 0.22724 0.26375
H42_9 H 0.80385 0.24018 0.34047
H43_9 H 0.77325 0.23107 0.28019
H44_9 H 0.79046 0.24290 0.35111
H45_9 H 0.78776 0.19763 0.13396
H47_9 H 0.82555 0.23497 0.00081
C14_9 C 0.81513 0.14890 0.06057
C15_9 C 0.81163 0.15715 0.24719
H7_9 H 0.79480 0.14966 0.31041
C27_9 C 0.95517 0.29264 0.80085
C28_9 C 0.93801 0.27671 0.67544
C29_9 C 0.92276 0.25535 0.75008
C30_9 C 0.92457 0.24990 0.95522
H28_9 H 0.93671 0.28112 0.51740
C32_9 C 0.90544 0.23828 0.61209
C33_9 C 0.88818 0.24105 0.52349
C34_9 C 0.87144 0.22357 0.40556
C35_9 C 0.87110 0.20313 0.37954
C36_9 C 0.88893 0.20076 0.46159
C37_9 C 0.90584 0.21839 0.57599
H31_9 H 0.91925 0.21644 0.64200
C38_9 C 0.85153 0.18444 0.27277
C39_9 C 0.85503 0.17619 0.08615
C40_9 C 0.82944 0.17491 0.35299
H32_9 H 0.85800 0.22546 0.33957
H33_9 H 0.87186 0.18368 0.02293
C41_9 C 0.88658 0.26181 0.56163
C42_9 C 0.89046 0.17975 0.43880
C43_9 C 0.82394 0.18266 0.55129
H34_9 H 0.87066 0.26000 0.50070
H35_9 H 0.90063 0.27645 0.48350
H36_9 H 0.87520 0.16552 0.37082
H37_9 H 0.89292 0.17421 0.59350
H38_9 H 0.90503 0.18334 0.33901
H39_9 H 0.81378 0.16793 0.65111
H40_9 H 0.83896 0.19421 0.64295
C44_9 C 0.81886 0.19927 0.66578
C45_9 C 0.79932 0.20263 0.73565
C46_9 C 0.80805 0.22906 0.93622
H46_9 H 0.77040 0.20671 0.98396
H48_9 H 0.81563 0.21856 0.88071
H49_9 H 0.78470 0.20249 0.82009
H50_9 H 0.78857 0.18373 0.75978
H51_9 H 0.82515 0.19179 0.78835
H52_9 H 0.82578 0.21555 0.75785
H54_9 H 0.887526 0.264994 0.727415
C3_8 C 0.99587 0.62184 0.86582
O3_3 O 0.98918 0.63585 0.95682
C4_8 C 0.99464 0.60468 0.99123
C21_8 C 0.93003 0.46599 0.93102
C22_8 C 0.91233 0.47472 0.73045
C23_8 C 0.90711 0.45308 0.58850
C24_8 C 0.89361 0.45418 0.40292
H16_8 H 0.89701 0.47052 0.32620
H17_8 H 0.87552 0.43992 0.38648
H18_8 H 0.88090 0.45713 0.31556
H19_8 H 0.92347 0.45443 0.53271
H20_8 H 0.89703 0.43707 0.68271
H21_8 H 0.92392 0.49222 0.66586
H22_8 H 0.93041 0.48230 0.78596
H23_8 H 0.91555 0.45137 0.84658
H24_8 H 0.93818 0.45524 0.90689
H25_8 H 0.96670 0.49182 0.87832
H26_8 H 0.94357 0.49245 0.90882
Mg3_3 Mg 0.98309 0.65510 0.78579
O8_3 O 0.98903 0.66598 0.23685
H53_8 H 0.955865 0.554193 0.939252
H1_8 H 0.99400 0.71101 0.42001
O13_6 O 0.98000 0.67749 0.62349
C1_9 C 0.96991 0.66186 0.17873
C2_9 C 0.95406 0.66380 0.32291
C3_9 C 0.95930 0.67080 0.53249
C4_9 C 0.94337 0.67203 0.65790
C5_9 C 0.92201 0.66592 0.58326
C6_9 C 0.91656 0.65866 0.37812
C7_9 C 0.93232 0.65763 0.24952
H2_9 H 0.94778 0.67774 0.81594
H3_9 H 0.92732 0.65166 0.09208
H4_9 H 0.90004 0.65384 0.31748
C8_9 C 0.90494 0.66617 0.72125
C9_9 C 0.90771 0.68620 0.80985
C10_9 C 0.89023 0.68546 0.92778
C11_9 C 0.86979 0.66536 0.95380
C12_9 C 0.86742 0.64516 0.87175
C13_9 C 0.88505 0.64588 0.75735
H5_9 H 0.88310 0.63052 0.69134
C16_9 C 0.84157 0.67880 0.98035
H6_9 H 0.89212 0.70079 0.99377
C17_9 C 0.92847 0.70856 0.77171
C18_9 C 0.84641 0.62262 0.89454
C19_9 C 0.84932 0.69205 0.78205
H8_9 H 0.92666 0.72267 0.83264
H9_9 H 0.94311 0.70915 0.84984
H10_9 H 0.83218 0.62365 0.96252
H11_9 H 0.84087 0.61462 0.73984
H12_9 H 0.85000 0.61164 0.99433
H13_9 H 0.83459 0.68748 0.68223
H14_9 H 0.86087 0.68858 0.69039
C20_9 C 0.86593 0.71374 0.66756
C21_9 C 0.86929 0.73664 0.59769
C22_9 C 0.89572 0.75434 0.39712
C23_9 C 0.87930 0.75956 0.25517
C24_9 C 0.89390 0.77306 0.06959
H17_9 H 0.89773 0.79115 0.05315
H19_9 H 0.86429 0.74320 0.19938
H20_9 H 0.87337 0.76964 0.34938
H21_9 H 0.90163 0.74275 0.33253
H22_9 H 0.88522 0.73626 0.45263
H23_9 H 0.86915 0.75112 0.51325
H24_9 H 0.85039 0.72849 0.57356
H25_9 H 0.85845 0.69997 0.54499
H26_9 H 0.88221 0.72310 0.57549
H53_9 H 0.931661 0.710801 0.605918
O1_9 O 0.96384 0.65595 0.99275
O4_9 O 0.95869 0.62866 0.65684
H1_9 H 0.95565 0.61632 0.75335
H15_9 H 0.94565 0.63071 0.68049
H16_9 H 0.90684 0.76966 0.99287
H18_9 H 0.90956 0.78577 0.98223
loop_
_geom_bond_atom_site_label_1
_geom_bond_atom_site_label_2
_geom_bond_site_symmetry_1
_geom_bond_site_symmetry_2
C25 C26 1_555 1_555
C26 C27 1_555 1_555
C27 O14 1_555 1_555
Mg2 O5 1_555 1_555
Mg6 O6 1_555 1_555
Mg7 O6 1_555 1_555
O5 C25 1_555 1_555
O6 C25 1_555 1_555
O10 Mg2 1_555 1_555
O14 Mg6 1_555 1_555
O15 Mg2 1_555 1_555
C28 C27 1_555 1_555
C29 C28 1_555 1_555
C30 C29 1_555 1_555
C31 C26 1_555 1_555
H29 C31 1_555 1_555
H30 C30 1_555 1_555
C46 C45 1_555 1_555
C47 C46 1_555 1_555
C48 C47 1_555 1_555
H42 C48 1_555 1_555
H43 C48 1_555 1_555
H44 C48 1_555 1_555
H45 C47 1_555 1_555
H46 C47 1_555 1_555
H47 C46 1_555 1_555
H48 C46 1_555 1_555
H49 C45 1_555 1_555
H50 C45 1_555 1_555
Mg7 O10 1_555 1_555
Mg7 O15 1_555 1_555
C30 C31 1_555 1_555
C9 C8 1_555 1_555
C10 C9 1_555 1_555
C11 C10 1_555 1_555
C12 C11 1_555 1_555
C13 C8 1_555 1_555
H5 C13 1_555 1_555
C14 C11 1_555 1_555
C15 C14 1_555 1_555
C16 C14 1_555 1_555
H6 C10 1_555 1_555
H7 C15 1_555 1_555
C17 C9 1_555 1_555
C18 C12 1_555 1_555
C19 C16 1_555 1_555
H8 C17 1_555 1_555
H9 C17 1_555 1_555
H10 C18 1_555 1_555
H11 C18 1_555 1_555
H12 C18 1_555 1_555
H13 C19 1_555 1_555
H14 C19 1_555 1_555
C20 C19 1_555 1_555
C33 C32 1_555 1_555
C34 C33 1_555 1_555
C35 C34 1_555 1_555
C36 C35 1_555 1_555
C37 C32 1_555 1_555
H31 C37 1_555 1_555
C38 C35 1_555 1_555
C39 C16 1_555 1_555
C40 C15 1_555 1_555
H32 C34 1_555 1_555
H33 C39 1_555 1_555
C41 C33 1_555 1_555
C42 C36 1_555 1_555
C43 C40 1_555 1_555
H34 C41 1_555 1_555
H35 C41 1_555 1_555
H36 C42 1_555 1_555
H37 C42 1_555 1_555
H38 C42 1_555 1_555
H39 C43 1_555 1_555
H40 C43 1_555 1_555
C44 C43 1_555 1_555
C12 C13 1_555 1_555
C36 C37 1_555 1_555
C38 C39 1_555 1_555
C38 C40 1_555 1_555
C1 C2 1_555 1_555
C2 C3 1_555 1_555
C3 O3 1_555 1_555
Mg5 O1 1_555 1_555
O1 C1 1_555 1_555
O2 C1 1_555 1_555
O3 Mg3 1_555 1_555
C4 C3 1_555 1_555
C5 C4 1_555 1_555
C6 C5 1_555 1_555
C7 C2 1_555 1_555
H3 C7 1_555 1_555
H4 C6 1_555 1_555
C22 C21 1_555 1_555
C23 C22 1_555 1_555
C24 C23 1_555 1_555
H16 C24 1_555 1_555
H17 C24 1_555 1_555
H18 C24 1_555 1_555
H19 C23 1_555 1_555
H20 C23 1_555 1_555
H21 C22 1_555 1_555
H22 C22 1_555 1_555
H23 C21 1_555 1_555
H24 C21 1_555 1_555
Mg3 O2 1_555 1_555
Mg4 O2 1_555 1_555
O8 Mg5 1_555 1_555
O13 Mg5 1_555 1_555
C6 C7 1_555 1_555
Mg4 O8 1_555 1_555
Mg4 O13 1_555 1_555
C3_2 O13 1_555 1_555
C4_2 C3_2 1_555 1_555
C5_2 C4_2 1_555 1_555
C6_2 C5_2 1_555 1_555
H2_2 C4_2 1_555 1_555
C8_2 C5_2 1_555 1_555
C9_2 C8_2 1_555 1_555
C10_2 C9_2 1_555 1_555
C11_2 C10_2 1_555 1_555
C12_2 C11_2 1_555 1_555
C13_2 C8_2 1_555 1_555
H5_2 C13_2 1_555 1_555
C14_2 C11_2 1_555 1_555
C15_2 C14_2 1_555 1_555
C16_2 C14_2 1_555 1_555
H6_2 C10_2 1_555 1_555
H7_2 C15_2 1_555 1_555
C17_2 C9_2 1_555 1_555
C18_2 C12_2 1_555 1_555
C19_2 C16_2 1_555 1_555
H8_2 C17_2 1_555 1_555
H9_2 C17_2 1_555 1_555
H10_2 C18_2 1_555 1_555
H11_2 C18_2 1_555 1_555
H12_2 C18_2 1_555 1_555
H13_2 C19_2 1_555 1_555
H14_2 C19_2 1_555 1_555
C20_2 C19_2 1_555 1_555
C21_2 C20_2 1_555 1_555
C22_2 C21_2 1_555 1_555
H22_2 C22_2 1_555 1_555
H23_2 C21_2 1_555 1_555
H24_2 C21_2 1_555 1_555
H25_2 C20_2 1_555 1_555
H26_2 C20_2 1_555 1_555
C39_2 C16_2 1_555 1_555
H33_2 C39_2 1_555 1_555
C12_2 C13_2 1_555 1_555
C38_2 C39_2 1_555 1_555
C17_2 H53_2 1_555 1_555
C1_2 C2_2 1_555 1_555
Mg4 O1_2 1_555 1_555
O1_2 C1_2 1_555 1_555
O7 C1_2 1_555 1_555
O4_2 Mg4 1_555 1_555
C7_2 C2_2 1_555 1_555
H1_2 O4_2 1_555 1_555
H3_2 C7_2 1_555 1_555
H15_2 O4_2 1_555 1_555
C24_2 C23_2 1_555 1_555
H16_2 C24_2 1_555 1_555
H17_2 C24_2 1_555 1_555
H18_2 C24_2 1_555 1_555
H19_2 C23_2 1_555 1_555
Mg3 O7 1_555 1_555
O13_2 Mg4 1_555 1_555
Mg3 O13_2 1_555 1_555
Mg6 O5_2 1_555 1_555
O9 Mg6 1_555 1_555
O14_2 Mg6 1_555 1_555
O16_2 Mg6 1_555 1_555
H27_2 O16_2 1_555 1_555
H41_2 O16_2 1_555 1_555
C25_2 C26_2 1_555 1_555
C26_2 C27_2 1_555 1_555
C27_2 O14_2 1_555 1_555
O10 C25_2 1_555 1_555
O14_2 Mg7 1_555 1_555
C28_2 C27_2 1_555 1_555
C29_2 C28_2 1_555 1_555
C30_2 C29_2 1_555 1_555
C31_2 C26_2 1_555 1_555
H28_2 C28_2 1_555 1_555
H29_2 C31_2 1_555 1_555
H30_2 C30_2 1_555 1_555
C32_2 C29_2 1_555 1_555
C33_2 C32_2 1_555 1_555
C34_2 C33_2 1_555 1_555
C35_2 C34_2 1_555 1_555
C36_2 C35_2 1_555 1_555
C37_2 C32_2 1_555 1_555
H31_2 C37_2 1_555 1_555
H32_2 C34_2 1_555 1_555
C41_2 C33_2 1_555 1_555
C42_2 C36_2 1_555 1_555
C43_2 C40_2 1_555 1_555
H34_2 C41_2 1_555 1_555
H35_2 C41_2 1_555 1_555
H36_2 C42_2 1_555 1_555
H37_2 C42_2 1_555 1_555
H38_2 C42_2 1_555 1_555
H39_2 C43_2 1_555 1_555
H40_2 C43_2 1_555 1_555
C44_2 C43_2 1_555 1_555
C45_2 C44_2 1_555 1_555
C46_2 C45_2 1_555 1_555
C47_2 C46_2 1_555 1_555
C48_2 C47_2 1_555 1_555
H43_2 C48_2 1_555 1_555
H45_2 C47_2 1_555 1_555
H46_2 C47_2 1_555 1_555
H47_2 C46_2 1_555 1_555
H48_2 C46_2 1_555 1_555
H49_2 C45_2 1_555 1_555
H50_2 C45_2 1_555 1_555
H51_2 C44_2 1_555 1_555
H52_2 C44_2 1_555 1_555
C30_2 C31_2 1_555 1_555
C36_2 C37_2 1_555 1_555
C41_2 H54_2 1_555 1_555
C25_3 C26_3 1_555 1_555
Mg7 O5_3 1_555 1_555
O5_3 C25_3 1_555 1_555
O9 C25_3 1_555 1_555
O16_3 Mg7 1_555 1_555
C31_3 C26_3 1_555 1_555
H27_3 O16_3 1_555 1_555
H29_3 C31_3 1_555 1_555
H41_3 O16_3 1_555 1_555
C48_3 C47_3 1_555 1_555
H42_3 C48_3 1_555 1_555
H43_3 C48_3 1_555 1_555
H44_3 C48_3 1_555 1_555
H45_3 C47_3 1_555 1_555
C15_3 C14_3 1_555 1_555
H7_3 C15_3 1_555 1_555
C27_3 O15 1_555 1_555
C28_3 C27_3 1_555 1_555
C29_3 C28_3 1_555 1_555
C30_3 C29_3 1_555 1_555
H28_3 C28_3 1_555 1_555
C32_3 C29_3 1_555 1_555
C33_3 C32_3 1_555 1_555
C34_3 C33_3 1_555 1_555
C35_3 C34_3 1_555 1_555
C36_3 C35_3 1_555 1_555
C37_3 C32_3 1_555 1_555
H31_3 C37_3 1_555 1_555
C38_3 C35_3 1_555 1_555
C40_3 C15_3 1_555 1_555
H32_3 C34_3 1_555 1_555
H33_3 C39_3 1_555 1_555
C41_3 C33_3 1_555 1_555
C42_3 C36_3 1_555 1_555
C43_3 C40_3 1_555 1_555
H34_3 C41_3 1_555 1_555
H35_3 C41_3 1_555 1_555
H36_3 C42_3 1_555 1_555
H37_3 C42_3 1_555 1_555
H38_3 C42_3 1_555 1_555
H39_3 C43_3 1_555 1_555
H40_3 C43_3 1_555 1_555
C44_3 C43_3 1_555 1_555
C45_3 C44_3 1_555 1_555
C46_3 C45_3 1_555 1_555
H48_3 C46_3 1_555 1_555
H49_3 C45_3 1_555 1_555
H50_3 C45_3 1_555 1_555
H51_3 C44_3 1_555 1_555
H52_3 C44_3 1_555 1_555
C36_3 C37_3 1_555 1_555
C38_3 C39_3 1_555 1_555
C38_3 C40_3 1_555 1_555
C41_3 H54_3 1_555 1_555
C1_3 C2_3 1_555 1_555
C2_3 C3_3 1_555 1_555
C3_3 O13_2 1_555 1_555
O8 C1_3 1_555 1_555
C4_3 C3_3 1_555 1_555
C5_3 C4_3 1_555 1_555
C6_3 C5_3 1_555 1_555
C7_3 C2_3 1_555 1_555
H2_3 C4_3 1_555 1_555
H3_3 C7_3 1_555 1_555
H4_3 C6_3 1_555 1_555
C8_3 C5_3 1_555 1_555
C9_3 C8_3 1_555 1_555
C10_3 C9_3 1_555 1_555
C11_3 C10_3 1_555 1_555
C12_3 C11_3 1_555 1_555
C13_3 C8_3 1_555 1_555
H5_3 C13_3 1_555 1_555
H6_3 C10_3 1_555 1_555
C17_3 C9_3 1_555 1_555
C18_3 C12_3 1_555 1_555
C19_3 C16_3 1_555 1_555
H8_3 C17_3 1_555 1_555
H9_3 C17_3 1_555 1_555
H10_3 C18_3 1_555 1_555
H11_3 C18_3 1_555 1_555
H12_3 C18_3 1_555 1_555
H13_3 C19_3 1_555 1_555
H14_3 C19_3 1_555 1_555
C20_3 C19_3 1_555 1_555
C21_3 C20_3 1_555 1_555
C22_3 C21_3 1_555 1_555
C23_3 C22_3 1_555 1_555
C24_3 C23_3 1_555 1_555
H17_3 C24_3 1_555 1_555
H19_3 C23_3 1_555 1_555
H20_3 C23_3 1_555 1_555
H21_3 C22_3 1_555 1_555
H22_3 C22_3 1_555 1_555
H23_3 C21_3 1_555 1_555
H24_3 C21_3 1_555 1_555
H25_3 C20_3 1_555 1_555
H26_3 C20_3 1_555 1_555
C6_3 C7_3 1_555 1_555
C12_3 C13_3 1_555 1_555
C17_3 H53_3 1_555 1_555
Mg3 O1_3 1_555 1_555
O4_3 Mg3 1_555 1_555
H1_3 O4_3 1_555 1_555
H15_3 O4_3 1_555 1_555
C25_4 C26_4 1_555 1_555
Mg2_2 O5_4 1_555 1_555
Mg7_2 O6_2 1_555 1_555
O5_4 C25_4 1_555 1_555
O6_2 C25_4 1_555 1_555
O15_2 Mg2_2 1_555 1_555
C30_4 C29_4 1_555 1_555
C31_4 C26_4 1_555 1_555
H29_4 C31_4 1_555 1_555
H30_4 C30_4 1_555 1_555
Mg7_2 O15_2 1_555 1_555
C30_4 C31_4 1_555 1_555
C10_4 C9_4 1_555 1_555
H6_4 C10_4 1_555 1_555
C17_4 C9_4 1_555 1_555
C19_4 C16_4 1_555 1_555
H8_4 C17_4 1_555 1_555
H9_4 C17_4 1_555 1_555
H13_4 C19_4 1_555 1_555
H14_4 C19_4 1_555 1_555
C20_4 C19_4 1_555 1_555
C36_4 C35_4 1_555 1_555
C37_4 C32_4 1_555 1_555
H31_4 C37_4 1_555 1_555
C38_4 C35_4 1_555 1_555
C39_4 C16_4 1_555 1_555
H33_4 C39_4 1_555 1_555
C42_4 C36_4 1_555 1_555
H36_4 C42_4 1_555 1_555
H37_4 C42_4 1_555 1_555
H38_4 C42_4 1_555 1_555
C36_4 C37_4 1_555 1_555
C38_4 C39_4 1_555 1_555
C25_5 C26_5 1_555 1_555
Mg7_2 O5_5 1_555 1_555
O5_5 C25_5 1_555 1_555
O9_2 C25_5 1_555 1_555
O16_5 Mg7_2 1_555 1_555
C31_5 C26_5 1_555 1_555
H29_5 C31_5 1_555 1_555
H41_5 O16_5 1_555 1_555
C48_4 C47_4 1_555 1_555
H42_4 C48_4 1_555 1_555
H43_4 C48_4 1_555 1_555
H44_4 C48_4 1_555 1_555
H45_4 C47_4 1_555 1_555
C15_4 C14_4 1_555 1_555
H7_4 C15_4 1_555 1_555
C27_4 O15_2 1_555 1_555
C28_4 C27_4 1_555 1_555
C29_5 C28_4 1_555 1_555
C30_5 C29_5 1_555 1_555
H28_4 C28_4 1_555 1_555
C32_5 C29_5 1_555 1_555
C33_4 C32_5 1_555 1_555
C34_4 C33_4 1_555 1_555
C35_5 C34_4 1_555 1_555
C36_5 C35_5 1_555 1_555
C37_5 C32_5 1_555 1_555
H31_5 C37_5 1_555 1_555
C38_5 C35_5 1_555 1_555
C40_4 C15_4 1_555 1_555
H32_4 C34_4 1_555 1_555
H33_5 C39_5 1_555 1_555
C41_4 C33_4 1_555 1_555
C42_5 C36_5 1_555 1_555
C43_4 C40_4 1_555 1_555
H34_4 C41_4 1_555 1_555
H35_4 C41_4 1_555 1_555
H36_5 C42_5 1_555 1_555
H37_5 C42_5 1_555 1_555
H38_5 C42_5 1_555 1_555
H39_4 C43_4 1_555 1_555
H40_4 C43_4 1_555 1_555
C44_4 C43_4 1_555 1_555
C45_4 C44_4 1_555 1_555
C46_4 C45_4 1_555 1_555
H48_4 C46_4 1_555 1_555
H49_4 C45_4 1_555 1_555
H50_4 C45_4 1_555 1_555
H51_4 C44_4 1_555 1_555
H52_4 C44_4 1_555 1_555
C36_5 C37_5 1_555 1_555
C38_5 C39_5 1_555 1_555
C38_5 C40_4 1_555 1_555
C41_4 H54_4 1_555 1_555
C3_4 O3_2 1_555 1_555
O3_2 Mg3_2 1_555 1_555
C4_4 C3_4 1_555 1_555
C22_4 C21_4 1_555 1_555
C23_4 C22_4 1_555 1_555
C24_4 C23_4 1_555 1_555
H16_4 C24_4 1_555 1_555
H17_4 C24_4 1_555 1_555
H18_4 C24_4 1_555 1_555
H19_4 C23_4 1_555 1_555
H20_4 C23_4 1_555 1_555
H21_4 C22_4 1_555 1_555
H22_4 C22_4 1_555 1_555
H23_4 C21_4 1_555 1_555
H24_4 C21_4 1_555 1_555
Mg3_2 O13_3 1_555 1_555
C1_4 C2_4 1_555 1_555
C2_4 C3_5 1_555 1_555
C3_5 O13_3 1_555 1_555
O8_2 C1_4 1_555 1_555
C4_5 C3_5 1_555 1_555
C5_4 C4_5 1_555 1_555
C6_4 C5_4 1_555 1_555
C7_4 C2_4 1_555 1_555
H2_5 C4_5 1_555 1_555
H3_4 C7_4 1_555 1_555
H4_4 C6_4 1_555 1_555
C8_4 C5_4 1_555 1_555
C9_5 C8_4 1_555 1_555
C10_5 C9_5 1_555 1_555
C11_4 C10_5 1_555 1_555
C12_4 C11_4 1_555 1_555
C13_4 C8_4 1_555 1_555
H5_4 C13_4 1_555 1_555
H6_5 C10_5 1_555 1_555
C17_5 C9_5 1_555 1_555
C18_4 C12_4 1_555 1_555
C19_5 C16_5 1_555 1_555
H8_5 C17_5 1_555 1_555
H9_5 C17_5 1_555 1_555
H10_4 C18_4 1_555 1_555
H11_4 C18_4 1_555 1_555
H12_4 C18_4 1_555 1_555
H13_5 C19_5 1_555 1_555
H14_5 C19_5 1_555 1_555
C20_5 C19_5 1_555 1_555
C21_5 C20_5 1_555 1_555
C22_5 C21_5 1_555 1_555
C23_5 C22_5 1_555 1_555
C24_5 C23_5 1_555 1_555
H17_5 C24_5 1_555 1_555
H19_5 C23_5 1_555 1_555
H20_5 C23_5 1_555 1_555
H21_5 C22_5 1_555 1_555
H22_5 C22_5 1_555 1_555
H23_5 C21_5 1_555 1_555
H24_5 C21_5 1_555 1_555
H25_5 C20_5 1_555 1_555
H26_5 C20_5 1_555 1_555
C6_4 C7_4 1_555 1_555
C12_4 C13_4 1_555 1_555
C17_5 H53_5 1_555 1_555
Mg3_2 O1_4 1_555 1_555
O4_4 Mg3_2 1_555 1_555
H1_5 O4_4 1_555 1_555
H15_4 O4_4 1_555 1_555
C27_5 O14_3 1_555 1_555
O14_3 Mg6_2 1_555 1_555
C28_5 C27_5 1_555 1_555
C46_5 C45_5 1_555 1_555
C47_5 C46_5 1_555 1_555
C48_5 C47_5 1_555 1_555
H42_5 C48_5 1_555 1_555
H43_5 C48_5 1_555 1_555
H44_5 C48_5 1_555 1_555
H45_5 C47_5 1_555 1_555
H46_5 C47_5 1_555 1_555
H47_5 C46_5 1_555 1_555
H48_5 C46_5 1_555 1_555
H49_5 C45_5 1_555 1_555
H50_5 C45_5 1_555 1_555
Mg6_2 O5_6 1_555 1_555
O14_4 Mg6_2 1_555 1_555
O16_6 Mg6_2 1_555 1_555
H27_5 O16_6 1_555 1_555
H41_6 O16_6 1_555 1_555
C25_6 C26_6 1_555 1_555
C26_6 C27_6 1_555 1_555
C27_6 O14_4 1_555 1_555
O10_2 C25_6 1_555 1_555
C28_6 C27_6 1_555 1_555
C29_6 C28_6 1_555 1_555
C30_6 C29_6 1_555 1_555
C31_6 C26_6 1_555 1_555
H28_5 C28_6 1_555 1_555
H29_6 C31_6 1_555 1_555
H30_6 C30_6 1_555 1_555
C32_6 C29_6 1_555 1_555
C33_5 C32_6 1_555 1_555
C34_5 C33_5 1_555 1_555
C35_6 C34_5 1_555 1_555
C36_6 C35_6 1_555 1_555
C37_6 C32_6 1_555 1_555
H31_6 C37_6 1_555 1_555
H32_5 C34_5 1_555 1_555
C41_5 C33_5 1_555 1_555
C42_6 C36_6 1_555 1_555
C43_5 C40_5 1_555 1_555
H34_5 C41_5 1_555 1_555
H35_5 C41_5 1_555 1_555
H36_6 C42_6 1_555 1_555
H37_6 C42_6 1_555 1_555
H38_6 C42_6 1_555 1_555
H39_5 C43_5 1_555 1_555
H40_5 C43_5 1_555 1_555
C44_5 C43_5 1_555 1_555
C45_6 C44_5 1_555 1_555
C46_6 C45_6 1_555 1_555
C47_6 C46_6 1_555 1_555
C48_6 C47_6 1_555 1_555
H43_6 C48_6 1_555 1_555
H45_6 C47_6 1_555 1_555
H46_6 C47_6 1_555 1_555
H47_6 C46_6 1_555 1_555
H48_6 C46_6 1_555 1_555
H49_6 C45_6 1_555 1_555
H50_6 C45_6 1_555 1_555
H51_6 C44_5 1_555 1_555
H52_6 C44_5 1_555 1_555
C30_6 C31_6 1_555 1_555
C36_6 C37_6 1_555 1_555
C41_5 H54_6 1_555 1_555
C12_5 C11_5 1_555 1_555
C13_5 C8_5 1_555 1_555
H5_5 C13_5 1_555 1_555
C14_5 C11_5 1_555 1_555
C15_5 C14_5 1_555 1_555
H7_5 C15_5 1_555 1_555
C18_5 C12_5 1_555 1_555
H10_5 C18_5 1_555 1_555
H11_5 C18_5 1_555 1_555
H12_5 C18_5 1_555 1_555
C34_6 C33_6 1_555 1_555
C40_6 C15_5 1_555 1_555
H32_6 C34_6 1_555 1_555
C41_6 C33_6 1_555 1_555
C43_6 C40_6 1_555 1_555
H34_6 C41_6 1_555 1_555
H35_6 C41_6 1_555 1_555
H39_6 C43_6 1_555 1_555
H40_6 C43_6 1_555 1_555
C44_6 C43_6 1_555 1_555
C12_5 C13_5 1_555 1_555
C1_5 C2_5 1_555 1_555
Mg5_2 O1_5 1_555 1_555
O1_5 C1_5 1_555 1_555
O2_2 C1_5 1_555 1_555
C6_5 C5_5 1_555 1_555
C7_5 C2_5 1_555 1_555
H3_5 C7_5 1_555 1_555
H4_5 C6_5 1_555 1_555
Mg4_2 O2_2 1_555 1_555
O13_4 Mg5_2 1_555 1_555
C6_5 C7_5 1_555 1_555
Mg4_2 O13_4 1_555 1_555
C3_6 O13_4 1_555 1_555
C4_6 C3_6 1_555 1_555
C5_6 C4_6 1_555 1_555
C6_6 C5_6 1_555 1_555
H2_6 C4_6 1_555 1_555
C8_6 C5_6 1_555 1_555
C9_6 C8_6 1_555 1_555
C10_6 C9_6 1_555 1_555
C11_6 C10_6 1_555 1_555
C12_6 C11_6 1_555 1_555
C13_6 C8_6 1_555 1_555
H5_6 C13_6 1_555 1_555
C14_6 C11_6 1_555 1_555
C15_6 C14_6 1_555 1_555
C16_6 C14_6 1_555 1_555
H6_6 C10_6 1_555 1_555
H7_6 C15_6 1_555 1_555
C17_6 C9_6 1_555 1_555
C18_6 C12_6 1_555 1_555
C19_6 C16_6 1_555 1_555
H8_6 C17_6 1_555 1_555
H9_6 C17_6 1_555 1_555
H10_6 C18_6 1_555 1_555
H11_6 C18_6 1_555 1_555
H12_6 C18_6 1_555 1_555
H13_6 C19_6 1_555 1_555
H14_6 C19_6 1_555 1_555
C20_6 C19_6 1_555 1_555
C21_6 C20_6 1_555 1_555
C22_6 C21_6 1_555 1_555
H22_6 C22_6 1_555 1_555
H23_6 C21_6 1_555 1_555
H24_6 C21_6 1_555 1_555
H25_6 C20_6 1_555 1_555
H26_6 C20_6 1_555 1_555
C39_6 C16_6 1_555 1_555
H33_6 C39_6 1_555 1_555
C12_6 C13_6 1_555 1_555
C38_6 C39_6 1_555 1_555
C17_6 H53_6 1_555 1_555
C1_6 C2_6 1_555 1_555
Mg4_2 O1_6 1_555 1_555
O1_6 C1_6 1_555 1_555
O7_2 C1_6 1_555 1_555
O4_6 Mg4_2 1_555 1_555
C7_6 C2_6 1_555 1_555
H3_6 C7_6 1_555 1_555
H15_6 O4_6 1_555 1_555
C24_6 C23_6 1_555 1_555
H16_6 C24_6 1_555 1_555
H17_6 C24_6 1_555 1_555
H18_6 C24_6 1_555 1_555
H19_6 C23_6 1_555 1_555
C27_7 O14_5 1_555 1_555
O14_5 Mg6_3 1_555 1_555
C28_7 C27_7 1_555 1_555
C46_7 C45_7 1_555 1_555
C47_7 C46_7 1_555 1_555
C48_7 C47_7 1_555 1_555
H42_7 C48_7 1_555 1_555
H43_7 C48_7 1_555 1_555
H44_7 C48_7 1_555 1_555
H45_7 C47_7 1_555 1_555
H46_7 C47_7 1_555 1_555
H47_7 C46_7 1_555 1_555
H48_7 C46_7 1_555 1_555
H49_7 C45_7 1_555 1_555
H50_7 C45_7 1_555 1_555
Mg6_3 O5_7 1_555 1_555
O14_6 Mg6_3 1_555 1_555
O16_7 Mg6_3 1_555 1_555
H27_7 O16_7 1_555 1_555
H41_7 O16_7 1_555 1_555
C25_7 C26_7 1_555 1_555
C26_7 C27_8 1_555 1_555
C27_8 O14_6 1_555 1_555
O10_3 C25_7 1_555 1_555
C28_8 C27_8 1_555 1_555
C29_7 C28_8 1_555 1_555
C30_7 C29_7 1_555 1_555
C31_7 C26_7 1_555 1_555
H28_7 C28_8 1_555 1_555
H29_7 C31_7 1_555 1_555
H30_7 C30_7 1_555 1_555
C32_7 C29_7 1_555 1_555
C33_7 C32_7 1_555 1_555
C34_7 C33_7 1_555 1_555
C35_7 C34_7 1_555 1_555
C36_7 C35_7 1_555 1_555
C37_7 C32_7 1_555 1_555
H31_7 C37_7 1_555 1_555
H32_7 C34_7 1_555 1_555
C41_7 C33_7 1_555 1_555
C42_7 C36_7 1_555 1_555
C43_7 C40_7 1_555 1_555
H34_7 C41_7 1_555 1_555
H35_7 C41_7 1_555 1_555
H36_7 C42_7 1_555 1_555
H37_7 C42_7 1_555 1_555
H38_7 C42_7 1_555 1_555
H39_7 C43_7 1_555 1_555
H40_7 C43_7 1_555 1_555
C44_7 C43_7 1_555 1_555
C45_8 C44_7 1_555 1_555
C46_8 C45_8 1_555 1_555
C47_8 C46_8 1_555 1_555
C48_8 C47_8 1_555 1_555
H43_8 C48_8 1_555 1_555
H45_8 C47_8 1_555 1_555
H46_8 C47_8 1_555 1_555
H47_8 C46_8 1_555 1_555
H48_8 C46_8 1_555 1_555
H49_8 C45_8 1_555 1_555
H50_8 C45_8 1_555 1_555
H51_8 C44_7 1_555 1_555
H52_8 C44_7 1_555 1_555
C30_7 C31_7 1_555 1_555
C36_7 C37_7 1_555 1_555
C41_7 H54_8 1_555 1_555
C12_7 C11_7 1_555 1_555
C13_7 C8_7 1_555 1_555
H5_7 C13_7 1_555 1_555
C14_7 C11_7 1_555 1_555
C15_7 C14_7 1_555 1_555
H7_7 C15_7 1_555 1_555
C18_7 C12_7 1_555 1_555
H10_7 C18_7 1_555 1_555
H11_7 C18_7 1_555 1_555
H12_7 C18_7 1_555 1_555
C34_8 C33_8 1_555 1_555
C40_8 C15_7 1_555 1_555
H32_8 C34_8 1_555 1_555
C41_8 C33_8 1_555 1_555
C43_8 C40_8 1_555 1_555
H34_8 C41_8 1_555 1_555
H35_8 C41_8 1_555 1_555
H39_8 C43_8 1_555 1_555
H40_8 C43_8 1_555 1_555
C44_8 C43_8 1_555 1_555
C12_7 C13_7 1_555 1_555
C1_7 C2_7 1_555 1_555
Mg5_3 O1_7 1_555 1_555
O1_7 C1_7 1_555 1_555
O2_3 C1_7 1_555 1_555
C6_7 C5_7 1_555 1_555
C7_7 C2_7 1_555 1_555
H3_7 C7_7 1_555 1_555
H4_7 C6_7 1_555 1_555
Mg4_3 O2_3 1_555 1_555
O13_5 Mg5_3 1_555 1_555
C6_7 C7_7 1_555 1_555
Mg4_3 O13_5 1_555 1_555
C3_7 O13_5 1_555 1_555
C4_7 C3_7 1_555 1_555
C5_8 C4_7 1_555 1_555
C6_8 C5_8 1_555 1_555
H2_7 C4_7 1_555 1_555
C8_8 C5_8 1_555 1_555
C9_7 C8_8 1_555 1_555
C10_7 C9_7 1_555 1_555
C11_8 C10_7 1_555 1_555
C12_8 C11_8 1_555 1_555
C13_8 C8_8 1_555 1_555
H5_8 C13_8 1_555 1_555
C14_8 C11_8 1_555 1_555
C15_8 C14_8 1_555 1_555
C16_7 C14_8 1_555 1_555
H6_7 C10_7 1_555 1_555
H7_8 C15_8 1_555 1_555
C17_7 C9_7 1_555 1_555
C18_8 C12_8 1_555 1_555
C19_7 C16_7 1_555 1_555
H8_7 C17_7 1_555 1_555
H9_7 C17_7 1_555 1_555
H10_8 C18_8 1_555 1_555
H11_8 C18_8 1_555 1_555
H12_8 C18_8 1_555 1_555
H13_7 C19_7 1_555 1_555
H14_7 C19_7 1_555 1_555
C20_7 C19_7 1_555 1_555
C21_7 C20_7 1_555 1_555
C22_7 C21_7 1_555 1_555
H22_7 C22_7 1_555 1_555
H23_7 C21_7 1_555 1_555
H24_7 C21_7 1_555 1_555
H25_7 C20_7 1_555 1_555
H26_7 C20_7 1_555 1_555
C39_7 C16_7 1_555 1_555
H33_7 C39_7 1_555 1_555
C12_8 C13_8 1_555 1_555
C38_7 C39_7 1_555 1_555
C17_7 H53_7 1_555 1_555
C1_8 C2_8 1_555 1_555
Mg4_3 O1_8 1_555 1_555
O1_8 C1_8 1_555 1_555
O7_3 C1_8 1_555 1_555
O4_8 Mg4_3 1_555 1_555
C7_8 C2_8 1_555 1_555
H3_8 C7_8 1_555 1_555
H15_8 O4_8 1_555 1_555
C24_7 C23_7 1_555 1_555
H16_7 C24_7 1_555 1_555
H17_7 C24_7 1_555 1_555
H18_7 C24_7 1_555 1_555
H19_7 C23_7 1_555 1_555
C25_8 C26_8 1_555 1_555
Mg2_3 O5_8 1_555 1_555
Mg7_3 O6_3 1_555 1_555
O5_8 C25_8 1_555 1_555
O6_3 C25_8 1_555 1_555
O15_3 Mg2_3 1_555 1_555
C30_8 C29_8 1_555 1_555
C31_8 C26_8 1_555 1_555
H29_8 C31_8 1_555 1_555
H30_8 C30_8 1_555 1_555
Mg7_3 O15_3 1_555 1_555
C30_8 C31_8 1_555 1_555
C10_8 C9_8 1_555 1_555
H6_8 C10_8 1_555 1_555
C17_8 C9_8 1_555 1_555
C19_8 C16_8 1_555 1_555
H8_8 C17_8 1_555 1_555
H9_8 C17_8 1_555 1_555
H13_8 C19_8 1_555 1_555
H14_8 C19_8 1_555 1_555
C20_8 C19_8 1_555 1_555
C36_8 C35_8 1_555 1_555
C37_8 C32_8 1_555 1_555
H31_8 C37_8 1_555 1_555
C38_8 C35_8 1_555 1_555
C39_8 C16_8 1_555 1_555
H33_8 C39_8 1_555 1_555
C42_8 C36_8 1_555 1_555
H36_8 C42_8 1_555 1_555
H37_8 C42_8 1_555 1_555
H38_8 C42_8 1_555 1_555
C36_8 C37_8 1_555 1_555
C38_8 C39_8 1_555 1_555
C25_9 C26_9 1_555 1_555
Mg7_3 O5_9 1_555 1_555
O5_9 C25_9 1_555 1_555
O9_3 C25_9 1_555 1_555
O16_9 Mg7_3 1_555 1_555
C31_9 C26_9 1_555 1_555
H29_9 C31_9 1_555 1_555
H41_9 O16_9 1_555 1_555
C48_9 C47_9 1_555 1_555
H42_9 C48_9 1_555 1_555
H43_9 C48_9 1_555 1_555
H44_9 C48_9 1_555 1_555
H45_9 C47_9 1_555 1_555
C15_9 C14_9 1_555 1_555
H7_9 C15_9 1_555 1_555
C27_9 O15_3 1_555 1_555
C28_9 C27_9 1_555 1_555
C29_9 C28_9 1_555 1_555
C30_9 C29_9 1_555 1_555
H28_9 C28_9 1_555 1_555
C32_9 C29_9 1_555 1_555
C33_9 C32_9 1_555 1_555
C34_9 C33_9 1_555 1_555
C35_9 C34_9 1_555 1_555
C36_9 C35_9 1_555 1_555
C37_9 C32_9 1_555 1_555
H31_9 C37_9 1_555 1_555
C38_9 C35_9 1_555 1_555
C40_9 C15_9 1_555 1_555
H32_9 C34_9 1_555 1_555
H33_9 C39_9 1_555 1_555
C41_9 C33_9 1_555 1_555
C42_9 C36_9 1_555 1_555
C43_9 C40_9 1_555 1_555
H34_9 C41_9 1_555 1_555
H35_9 C41_9 1_555 1_555
H36_9 C42_9 1_555 1_555
H37_9 C42_9 1_555 1_555
H38_9 C42_9 1_555 1_555
H39_9 C43_9 1_555 1_555
H40_9 C43_9 1_555 1_555
C44_9 C43_9 1_555 1_555
C45_9 C44_9 1_555 1_555
C46_9 C45_9 1_555 1_555
H48_9 C46_9 1_555 1_555
H49_9 C45_9 1_555 1_555
H50_9 C45_9 1_555 1_555
H51_9 C44_9 1_555 1_555
H52_9 C44_9 1_555 1_555
C36_9 C37_9 1_555 1_555
C38_9 C39_9 1_555 1_555
C38_9 C40_9 1_555 1_555
C41_9 H54_9 1_555 1_555
C3_8 O3_3 1_555 1_555
O3_3 Mg3_3 1_555 1_555
C4_8 C3_8 1_555 1_555
C22_8 C21_8 1_555 1_555
C23_8 C22_8 1_555 1_555
C24_8 C23_8 1_555 1_555
H16_8 C24_8 1_555 1_555
H17_8 C24_8 1_555 1_555
H18_8 C24_8 1_555 1_555
H19_8 C23_8 1_555 1_555
H20_8 C23_8 1_555 1_555
H21_8 C22_8 1_555 1_555
H22_8 C22_8 1_555 1_555
H23_8 C21_8 1_555 1_555
H24_8 C21_8 1_555 1_555
Mg3_3 O13_6 1_555 1_555
C1_9 C2_9 1_555 1_555
C2_9 C3_9 1_555 1_555
C3_9 O13_6 1_555 1_555
O8_3 C1_9 1_555 1_555
C4_9 C3_9 1_555 1_555
C5_9 C4_9 1_555 1_555
C6_9 C5_9 1_555 1_555
C7_9 C2_9 1_555 1_555
H2_9 C4_9 1_555 1_555
H3_9 C7_9 1_555 1_555
H4_9 C6_9 1_555 1_555
C8_9 C5_9 1_555 1_555
C9_9 C8_9 1_555 1_555
C10_9 C9_9 1_555 1_555
C11_9 C10_9 1_555 1_555
C12_9 C11_9 1_555 1_555
C13_9 C8_9 1_555 1_555
H5_9 C13_9 1_555 1_555
H6_9 C10_9 1_555 1_555
C17_9 C9_9 1_555 1_555
C18_9 C12_9 1_555 1_555
C19_9 C16_9 1_555 1_555
H8_9 C17_9 1_555 1_555
H9_9 C17_9 1_555 1_555
H10_9 C18_9 1_555 1_555
H11_9 C18_9 1_555 1_555
H12_9 C18_9 1_555 1_555
H13_9 C19_9 1_555 1_555
H14_9 C19_9 1_555 1_555
C20_9 C19_9 1_555 1_555
C21_9 C20_9 1_555 1_555
C22_9 C21_9 1_555 1_555
C23_9 C22_9 1_555 1_555
C24_9 C23_9 1_555 1_555
H17_9 C24_9 1_555 1_555
H19_9 C23_9 1_555 1_555
H20_9 C23_9 1_555 1_555
H21_9 C22_9 1_555 1_555
H22_9 C22_9 1_555 1_555
H23_9 C21_9 1_555 1_555
H24_9 C21_9 1_555 1_555
H25_9 C20_9 1_555 1_555
H26_9 C20_9 1_555 1_555
C6_9 C7_9 1_555 1_555
C12_9 C13_9 1_555 1_555
C17_9 H53_9 1_555 1_555
Mg3_3 O1_9 1_555 1_555
O4_9 Mg3_3 1_555 1_555
H1_9 O4_9 1_555 1_555
H15_9 O4_9 1_555 1_555

#END
