
###############################################################################
#
# This file contains modified crystal structure data generated from the
# MOF subset of the Cambridge Structural Database (CSD) v543 
# hosted by the Cambridge Crystallographic Data Centre (CCDC).
#
# This work is licensed under the Creative Commons
# Attribution-NonCommercial-ShareAlike 4.0 International License.
# To view a copy of this license, visit
# http://creativecommons.org/licenses/by-nc-sa/4.0/
# or send a letter to
# Creative Commons, PO Box 1866, Mountain View, CA 94042, USA.
#
# CIF created using the CSD Python API on 29 September 2022
# The structure has been converted into the P1 space group
# The structure has a 3D framework
# The original CSD entry RAVWUI is in the rhombohedral crystal system
# The original CSD entry RAVWUI is in a Sohncke space group
# The framework has been calculated to contain at least 10.0% void space
# The void calculation uses a probe of radius 1.32A, grid spacing 0.4
# H atom positions have been added when not included in the experimental data
#
###############################################################################

data_RAVWUI
_chemical_formula_moiety         '(C414 H378 O70 Zn18)n'
_symmetry_cell_setting           triclinic
_symmetry_space_group_name_H-M   'P 1'
_symmetry_Int_Tables_number      1
_space_group_name_Hall           'P 1'
loop_
_symmetry_equiv_pos_site_id
_symmetry_equiv_pos_as_xyz
1 x,y,z
_cell_length_a                   78.6433
_cell_length_b                   78.6433
_cell_length_c                   6.8156
_cell_angle_alpha                90
_cell_angle_beta                 90
_cell_angle_gamma                120
_cell_volume                     36505.5
loop_
_atom_site_label
_atom_site_type_symbol
_atom_site_fract_x
_atom_site_fract_y
_atom_site_fract_z
O9 O 0.01993 0.32718 0.46304
O12 O 0.00971 0.33451 0.83911
Zn4 Zn 0.01523 0.34496 0.28925
H39 H 0.0015418 0.289638 0.628638
H40 H 0.00430601 0.298535 0.848463
O10 O 0.00616 0.35942 0.12970
H9 H 0.03285 0.46733 0.01039
H16 H 0.02090 0.42909 0.07061
C15 C 0.00740 0.42725 0.01501
O3 O 0.03151 0.34399 0.07525
O7 O 0.03842 0.36790 0.39455
H39_2 H 0.0436958 0.378571 0.295305
H40_2 H 0.0347985 0.372438 0.51513
H1 H 0.17054 0.33513 0.39149
H2 H 0.17566 0.32453 0.18693
H3 H 0.19045 0.35009 0.23294
H7 H 0.08630 0.29692 0.13077
H8 H 0.11186 0.30809 0.10456
H9_2 H 0.10115 0.30049 0.34373
H10 H 0.10295 0.38242 0.51110
H11 H 0.11434 0.39168 0.27793
H12 H 0.08848 0.37831 0.29314
H15 H 0.12853 0.37430 0.15606
H16_2 H 0.07486 0.31244 0.40395
H20 H 0.04995 0.33107 0.28556
H21 H 0.06358 0.35074 0.98200
H22 H 0.08896 0.35306 0.77237
H25 H 0.14222 0.33607 0.34008
H33 H 0.21148 0.32119 0.02988
C1 C 0.17555 0.33761 0.23694
C3 C 0.10026 0.30688 0.20231
C4 C 0.10191 0.37936 0.35137
C7 C 0.16267 0.34162 0.10824
C10 C 0.13402 0.34483 0.07688
C11 C 0.10168 0.36071 0.31566
C12 C 0.11665 0.36078 0.20807
C13 C 0.11683 0.34363 0.17204
C14 C 0.10141 0.32595 0.24022
C15_2 C 0.08652 0.32594 0.34835
C16 C 0.08667 0.34314 0.38928
C21 C 0.03784 0.33442 0.55422
C22 C 0.04125 0.33952 0.75723
C23 C 0.02667 0.33928 0.89616
C27 C 0.05280 0.33566 0.43721
C28 C 0.07123 0.34238 0.51366
C29 C 0.07477 0.34777 0.71058
C30 C 0.06004 0.34630 0.83052
C39 C 0.14603 0.34050 0.18908
H21_2 H 0.95382 0.26975 0.31533
H22_2 H 0.93076 0.24437 0.10570
C22_2 C 0.96493 0.29208 0.09056
C23_2 C 0.97927 0.30666 0.22949
C29_2 C 0.93966 0.25856 0.04391
C30_2 C 0.95292 0.27329 0.16385
O2 O 0.99146 0.32362 0.17244
O3_2 O 0.97914 0.30182 0.40858
Zn1 Zn 0.99639 0.31810 0.62258
O7_2 O 0.99614 0.29491 0.72788
O10_2 O 0.97391 0.31340 0.79637
O11 O 0.99883 0.34187 0.50577
H1_2 H 0.83125 0.16279 0.72482
H2_2 H 0.81553 0.15767 0.52026
H3_2 H 0.82630 0.14288 0.56627
H4 H 0.89738 0.22227 0.08241
H5 H 0.90846 0.20796 0.14283
H7_2 H 0.87728 0.24703 0.46410
H8_2 H 0.86289 0.22147 0.43789
H9_3 H 0.86600 0.23218 0.67706
H10_2 H 0.94613 0.23038 0.84443
H11_2 H 0.94400 0.21899 0.61126
H12_2 H 0.95649 0.24485 0.62647
H15_2 H 0.91243 0.20480 0.48939
H16_3 H 0.90424 0.25847 0.73728
H20_2 H 0.94778 0.28338 0.61889
H25_2 H 0.86051 0.19111 0.67341
H26 H 0.80922 0.15143 0.32631
H33_2 H 0.77637 0.12185 0.36321
H34 H 0.77161 0.13414 0.16638
H35 H 0.76413 0.10884 0.14858
H37 H 0.86097 0.14453 0.04085
C1_2 C 0.82872 0.15778 0.57027
C2 C 0.89533 0.20751 0.08486
C3_2 C 0.87328 0.23307 0.53564
C4_2 C 0.94411 0.23142 0.68470
C5 C 0.86272 0.17828 0.13030
C6 C 0.84640 0.16617 0.24238
C7_2 C 0.84561 0.17066 0.44157
C9 C 0.87831 0.19475 0.21191
C10_2 C 0.87747 0.19931 0.41021
C11_2 C 0.92569 0.23165 0.64899
C12_2 C 0.91079 0.21668 0.54140
C13_2 C 0.89346 0.21650 0.50537
C14_2 C 0.89120 0.23192 0.57355
C15_3 C 0.90608 0.24681 0.68168
C16_2 C 0.92313 0.24666 0.72261
C21_2 C 0.96324 0.29549 0.88755
C27_2 C 0.94952 0.28053 0.77054
C28_2 C 0.93781 0.26210 0.84699
C38 C 0.79502 0.12881 0.11542
C39_2 C 0.86113 0.18730 0.52241
C41 C 0.82994 0.14959 0.14393
C42 C 0.81123 0.14393 0.20588
C45 C 0.77563 0.12300 0.20179
Zn3 Zn 0.98838 0.33694 0.95591
O7_3 O 0.96544 0.33719 0.06121
H40_3 H 0.960895 0.329027 0.181797
H1_3 H 0.99821 0.50208 0.05815
H10_3 H 0.95092 0.38720 0.17776
H21_3 H 0.98260 0.37951 0.64866
H22_3 H 0.98028 0.40257 0.43903
H25_3 H 0.99727 0.47282 0.00674
C4_3 C 0.95398 0.38922 0.01803
C16_3 C 0.99020 0.41020 0.05594
C21_3 C 0.99892 0.37009 0.22088
C22_3 C 0.99382 0.36840 0.42389
C23_3 C 0.99406 0.35406 0.56282
C27_3 C 0.99768 0.38381 0.10387
C28_3 C 0.99096 0.39552 0.18032
C29_3 C 0.98557 0.39367 0.37724
C30_3 C 0.98704 0.38041 0.49718
O3_3 O 0.98935 0.35419 0.74191
H39_3 H 0.954762 0.331792 0.961972
H3_3 H 0.98325 0.50703 0.89960
H4_2 H 0.99156 0.43595 0.41574
H5_2 H 0.96617 0.42487 0.47616
H6 H 0.97555 0.44007 0.26499
H11_3 H 0.94166 0.38933 0.94459
H12_3 H 0.95503 0.37684 0.95980
H13 H 0.97838 0.47017 0.31097
H14 H 0.96795 0.51504 0.08768
H15_3 H 0.95904 0.42090 0.82272
H19 H 0.98699 0.61081 0.00703
H31 H 0.95143 0.52920 0.22892
H32 H 0.94425 0.53816 0.02729
H36 H 0.96680 0.47355 0.18437
H37_2 H 0.95023 0.47236 0.37418
H38 H 0.95004 0.48166 0.13590
C1_3 C 0.99573 0.50461 0.90360
C2_2 C 0.97885 0.43800 0.41819
C5_2 C 0.98223 0.47061 0.46363
C6_2 C 0.98644 0.48693 0.57571
C7_3 C 0.99172 0.48772 0.77490
C8 C 0.97618 0.51706 0.21866
C9_2 C 0.98311 0.45502 0.54524
C10_3 C 0.98851 0.45586 0.74354
C11_3 C 0.97263 0.40764 0.98232
C12_3 C 0.97256 0.42254 0.87473
C13_3 C 0.98971 0.43987 0.83870
C33 C 0.97548 0.55171 0.06174
C34 C 0.99111 0.55255 0.16546
C37 C 0.98900 0.53586 0.28274
C39_3 C 0.99284 0.47220 0.85574
C40 C 0.97432 0.50081 0.31690
C41_2 C 0.98632 0.50339 0.47726
C42_2 C 0.99937 0.52210 0.53921
C44 C 0.95518 0.53442 0.07597
C46 C 0.95954 0.48098 0.24891
H6_2 H 0.89326 0.20214 0.93166
H13_2 H 0.86316 0.17487 0.97764
H14_2 H 0.81829 0.11957 0.75435
H17 H 0.74990 0.07859 0.17332
H19_2 H 0.72252 0.04284 0.67370
H23 H 0.76660 0.06689 0.52887
H24 H 0.76277 0.11729 0.90654
H27 H 0.71712 0.07608 0.81248
H28 H 0.72909 0.10072 0.88859
H29 H 0.72235 0.09517 0.63893
H30 H 0.81070 0.09799 0.64940
H31_2 H 0.80413 0.08889 0.89559
H32_2 H 0.79517 0.07275 0.69396
H36_2 H 0.85978 0.15991 0.85104
H38_2 H 0.85167 0.13504 0.80257
C8_2 C 0.81627 0.12578 0.88533
C17 C 0.72301 0.05307 0.12043
C18 C 0.73795 0.06607 0.23991
C19 C 0.73745 0.06309 0.44227
C20 C 0.72247 0.04596 0.51994
C24 C 0.69122 0.02388 0.05902
C25 C 0.70732 0.03612 0.19702
C26 C 0.70741 0.03252 0.40208
C31 C 0.74835 0.07845 0.61124
C32 C 0.76564 0.07769 0.61431
C33_2 C 0.78162 0.09043 0.72841
C34_2 C 0.78078 0.10522 0.83213
C35 C 0.76355 0.10609 0.82646
C36 C 0.74700 0.09215 0.72884
C37_2 C 0.79747 0.11980 0.94941
C40_2 C 0.83252 0.14017 0.98357
C43 C 0.72786 0.09101 0.76851
C44_2 C 0.79891 0.08742 0.74264
C46_2 C 0.85235 0.14522 0.91558
O5 O 0.67657 0.00826 0.11580
O6 O 0.69379 0.01558 0.49480
Zn8 Zn 0.67348 0.01596 0.66846
H18 H 0.72375 0.05667 0.96686
O4 O 0.69238 0.02941 0.88113
O8 O 0.68128 0.04124 0.54587
O14 O 0.65841 0.00164 0.44913
O16 O 0.65109 0.01154 0.82813
H41 H 0.695495 0.0479603 0.513778
H42 H 0.673595 0.0391219 0.423667
H17_2 H 0.58808 0.00464 0.50665
H18_2 H 0.61000 0.00041 0.30019
H23_2 H 0.59978 0.03304 0.86220
H30_2 H 0.56868 0.04604 0.98273
C17_2 C 0.61360 0.00327 0.45376
C18_2 C 0.60060 0.00521 0.57324
C19_2 C 0.60358 0.00769 0.77560
C20_2 C 0.62071 0.00984 0.85327
C24_2 C 0.64279 0.00067 0.39235
C25_2 C 0.63055 0.00453 0.53035
C26_2 C 0.63415 0.00822 0.73541
C31_2 C 0.58822 0.00323 0.94457
C32_2 C 0.58898 0.02128 0.94764
Zn6 Zn 0.65071 0.99085 0.00179
Zn7 Zn 0.67581 0.99319 0.33513
O13 O 0.66502 0.99010 0.78247
H2_3 H 0.50900 0.99119 0.85359
H7_3 H 0.41964 0.96358 0.79743
H8_3 H 0.44520 0.97475 0.77122
H20_3 H 0.38329 0.99773 0.95222
H24_2 H 0.54938 0.97881 0.23987
H26_2 H 0.51524 0.99112 0.65964
H27_2 H 0.59059 0.97437 0.14581
H28_2 H 0.56595 0.96170 0.22192
H33_3 H 0.54482 0.98785 0.69654
H34_2 H 0.53253 0.97080 0.49971
H35_2 H 0.55783 0.98862 0.48191
C3_3 C 0.43360 0.97354 0.86897
C14_3 C 0.43475 0.99261 0.90688
C35_2 C 0.56058 0.99079 0.15979
C36_2 C 0.57452 0.98818 0.06217
C38_2 C 0.53786 0.99954 0.44875
C43_2 C 0.57566 0.97018 0.10184
C45_2 C 0.54367 0.98596 0.53512
H29_2 H 0.57150 0.96051 0.97226
O4_2 O 0.63726 0.99630 0.21446
O16_2 O 0.65512 0.97288 0.16147
O8_2 O 0.62543 0.97337 0.87920
H41_2 H 0.618706 0.980868 0.847112
H42_2 H 0.627545 0.967806 0.757
H4_3 H 0.65822 0.76929 0.74908
H5_3 H 0.63283 0.75821 0.80950
H6_3 H 0.64221 0.77341 0.59833
H13_3 H 0.64504 0.80351 0.64431
H14_3 H 0.63461 0.84838 0.42102
H19_3 H 0.65365 0.94415 0.34037
H23_3 H 0.63362 0.90007 0.19554
H24_3 H 0.68785 0.90390 0.57321
H26_3 H 0.67554 0.85745 0.99298
H27_3 H 0.69229 0.94955 0.47915
H28_3 H 0.70496 0.93758 0.55526
H29_3 H 0.70615 0.94432 0.30560
H30_3 H 0.62062 0.85597 0.31607
H31_3 H 0.61809 0.86254 0.56226
H32_3 H 0.61091 0.87150 0.36063
H34_3 H 0.69586 0.89506 0.83305
H35_3 H 0.67804 0.90254 0.81525
H36_3 H 0.63346 0.80689 0.51771
H37_3 H 0.61689 0.80570 0.70752
H38_3 H 0.61670 0.81500 0.46924
C2_3 C 0.64551 0.77134 0.75153
C5_3 C 0.64889 0.80395 0.79697
C6_3 C 0.65310 0.82027 0.90905
C8_3 C 0.64284 0.85040 0.55200
C9_3 C 0.64977 0.78836 0.87858
C19_3 C 0.65897 0.92922 0.10894
C20_3 C 0.65682 0.94420 0.18661
C26_3 C 0.65844 0.95926 0.06875
C31_3 C 0.66343 0.91832 0.27791
C32_3 C 0.64538 0.90103 0.28098
C33_3 C 0.64214 0.88505 0.39508
C34_3 C 0.65777 0.88589 0.49880
C35_3 C 0.67587 0.90312 0.49313
C36_3 C 0.67848 0.91967 0.39551
C37_3 C 0.65566 0.86920 0.61608
C38_3 C 0.66712 0.87165 0.78209
C40_3 C 0.64098 0.83415 0.65024
C41_3 C 0.65298 0.83673 0.81060
C42_3 C 0.66603 0.85544 0.87255
C43_3 C 0.69648 0.93881 0.43518
C44_3 C 0.62184 0.86776 0.40931
C45_3 C 0.68070 0.89104 0.86846
C46_3 C 0.62620 0.81432 0.58225
H17_3 H 0.66202 0.91677 0.83999
H18_3 H 0.66625 0.94292 0.63353
C17_3 C 0.66339 0.94366 0.78710
C18_3 C 0.66145 0.92872 0.90658
C24_3 C 0.66599 0.97545 0.72569
C25_3 C 0.66213 0.95935 0.86369
O4_3 O 0.67036 0.97429 0.54780
O8_3 O 0.69329 0.98539 0.21254
H41_3 H 0.685799 0.971172 0.180445
H42_3 H 0.69886 0.993072 0.0903334
Zn6_2 Zn 0.00915 0.65985 0.00179
Zn7_2 Zn 0.00681 0.68263 0.33513
O13_2 O 0.00990 0.67493 0.78247
H2_4 H 0.00881 0.51780 0.85359
H7_4 H 0.03642 0.45605 0.79743
H8_4 H 0.02525 0.47044 0.77122
H20_4 H 0.00227 0.38555 0.95222
H24_4 H 0.02119 0.57056 0.23987
H26_4 H 0.00888 0.52411 0.65964
H27_4 H 0.02563 0.61621 0.14581
H28_4 H 0.03830 0.60424 0.22192
H33_4 H 0.01215 0.55696 0.69654
H34_4 H 0.02920 0.56172 0.49971
H35_4 H 0.01138 0.56920 0.48191
C3_4 C 0.02646 0.46005 0.86897
C14_4 C 0.00739 0.44213 0.90688
C35_4 C 0.00921 0.56978 0.15979
C36_4 C 0.01182 0.58633 0.06217
C38_4 C 0.00046 0.53831 0.44875
C43_4 C 0.02982 0.60547 0.10184
C45_4 C 0.01404 0.55770 0.53512
H29_4 H 0.03949 0.61098 0.97226
O4_4 O 0.00370 0.64095 0.21446
O16_3 O 0.02712 0.68225 0.16147
O8_4 O 0.02663 0.65205 0.87920
H41_4 H 0.0191321 0.637838 0.847112
H42_4 H 0.0321936 0.659738 0.757
H4_4 H 0.23071 0.88894 0.74908
H5_4 H 0.24179 0.87463 0.80950
H6_4 H 0.22659 0.86881 0.59833
H13_4 H 0.19649 0.84154 0.64431
H14_4 H 0.15162 0.78624 0.42102
H19_4 H 0.05585 0.70951 0.34037
H23_4 H 0.09993 0.73356 0.19554
H24_5 H 0.09610 0.78396 0.57321
H26_5 H 0.14255 0.81810 0.99298
H27_5 H 0.05045 0.74275 0.47915
H28_5 H 0.06242 0.76739 0.55526
H29_5 H 0.05568 0.76184 0.30560
H30_4 H 0.14403 0.76466 0.31607
H31_4 H 0.13746 0.75556 0.56226
H32_4 H 0.12850 0.73942 0.36063
H34_5 H 0.10494 0.80081 0.83305
H35_5 H 0.09746 0.77551 0.81525
H36_4 H 0.19311 0.82658 0.51771
H37_4 H 0.19430 0.81120 0.70752
H38_4 H 0.18500 0.80171 0.46924
C2_4 C 0.22866 0.87418 0.75153
C5_4 C 0.19605 0.84495 0.79697
C6_4 C 0.17973 0.83284 0.90905
C8_4 C 0.14960 0.79245 0.55200
C9_4 C 0.21164 0.86142 0.87858
C19_4 C 0.07078 0.72976 0.10894
C20_4 C 0.05580 0.71263 0.18661
C26_4 C 0.04074 0.69919 0.06875
C31_4 C 0.08168 0.74512 0.27791
C32_4 C 0.09897 0.74436 0.28098
C33_4 C 0.11495 0.75710 0.39508
C34_4 C 0.11411 0.77189 0.49880
C35_5 C 0.09688 0.77276 0.49313
C36_5 C 0.08033 0.75882 0.39551
C37_4 C 0.13080 0.78647 0.61608
C38_5 C 0.12835 0.79548 0.78209
C40_4 C 0.16585 0.80684 0.65024
C41_4 C 0.16327 0.81626 0.81060
C42_4 C 0.14456 0.81060 0.87255
C43_5 C 0.06119 0.75768 0.43518
C44_4 C 0.13224 0.75409 0.40931
C45_5 C 0.10896 0.78967 0.86846
C46_4 C 0.18568 0.81189 0.58225
H17_4 H 0.08323 0.74526 0.83999
H18_4 H 0.05708 0.72334 0.63353
C17_4 C 0.05634 0.71974 0.78710
C18_4 C 0.07128 0.73274 0.90658
C24_4 C 0.02455 0.69055 0.72569
C25_4 C 0.04065 0.70279 0.86369
O4_5 O 0.02571 0.69608 0.54780
O8_5 O 0.01461 0.70791 0.21254
H41_5 H 0.0288282 0.714627 0.180445
H42_5 H 0.00692827 0.705789 0.0903334
H21_4 H 0.73025 0.68407 0.31533
H22_4 H 0.75563 0.68639 0.10570
C22_4 C 0.70792 0.67285 0.09056
C23_4 C 0.69334 0.67261 0.22949
C29_4 C 0.74144 0.68110 0.04391
C30_4 C 0.72671 0.67963 0.16385
O2_2 O 0.67638 0.66784 0.17244
O3_4 O 0.69818 0.67732 0.40858
Zn1_2 Zn 0.68190 0.67829 0.62258
O7_4 O 0.70509 0.70123 0.72788
O9_2 O 0.67282 0.69276 0.46304
O10_3 O 0.68660 0.66051 0.79637
O11_2 O 0.65813 0.65695 0.50577
O12_2 O 0.66549 0.67521 0.83911
Zn4_2 Zn 0.65504 0.67028 0.28925
H39_4 H 0.710362 0.711904 0.628638
H40_4 H 0.701465 0.705771 0.848463
H1_4 H 0.83721 0.66846 0.72482
H2_5 H 0.84233 0.65786 0.52026
H3_4 H 0.85712 0.68342 0.56627
H4_5 H 0.77773 0.67511 0.08241
H5_5 H 0.79204 0.70050 0.14283
H7_5 H 0.75297 0.63025 0.46410
H8_5 H 0.77853 0.64142 0.43789
H9_4 H 0.76782 0.63382 0.67706
H10_4 H 0.76962 0.71575 0.84443
H11_4 H 0.78101 0.72501 0.61126
H12_4 H 0.75515 0.71164 0.62647
H15_4 H 0.79520 0.70763 0.48939
H16_4 H 0.74153 0.64577 0.73728
H20_5 H 0.71662 0.66440 0.61889
H25_4 H 0.80889 0.66940 0.67341
H26_6 H 0.84857 0.65779 0.32631
H33_5 H 0.87815 0.65452 0.36321
H34_6 H 0.86586 0.63747 0.16638
H35_6 H 0.89116 0.65529 0.14858
H37_5 H 0.85547 0.71644 0.04085
C1_4 C 0.84222 0.67094 0.57027
C2_5 C 0.79249 0.68782 0.08486
C3_5 C 0.76693 0.64021 0.53564
C4_4 C 0.76858 0.71269 0.68470
C5_5 C 0.82172 0.68444 0.13030
C6_5 C 0.83383 0.68023 0.24238
C7_4 C 0.82934 0.67495 0.44157
C9_5 C 0.80525 0.68356 0.21191
C10_4 C 0.80069 0.67816 0.41021
C11_4 C 0.76835 0.69404 0.64899
C12_4 C 0.78332 0.69411 0.54140
C13_4 C 0.78350 0.67696 0.50537
C14_5 C 0.76808 0.65928 0.57355
C15_4 C 0.75319 0.65927 0.68168
C16_4 C 0.75334 0.67647 0.72261
C21_4 C 0.70451 0.66775 0.88755
C27_4 C 0.71947 0.66899 0.77054
C28_4 C 0.73790 0.67571 0.84699
C38_6 C 0.87119 0.66621 0.11542
C39_4 C 0.81270 0.67383 0.52241
C41_5 C 0.85041 0.68035 0.14393
C42_5 C 0.85607 0.66730 0.20588
C45_6 C 0.87700 0.65263 0.20179
Zn3_2 Zn 0.66306 0.65143 0.95591
H6_5 H 0.30888 0.10674 0.93166
H13_5 H 0.31171 0.13684 0.97764
H14_5 H 0.30128 0.18171 0.75435
H17_5 H 0.32869 0.25010 0.17332
H19_5 H 0.32032 0.27748 0.67370
H23_5 H 0.30029 0.23340 0.52887
H24_6 H 0.35452 0.23723 0.90654
H27_6 H 0.35896 0.28288 0.81248
H28_6 H 0.37163 0.27091 0.88859
H29_6 H 0.37282 0.27765 0.63893
H30_5 H 0.28729 0.18930 0.64940
H31_5 H 0.28476 0.19587 0.89559
H32_5 H 0.27758 0.20483 0.69396
H36_5 H 0.30013 0.14022 0.85104
H38_5 H 0.28337 0.14833 0.80257
C8_5 C 0.30951 0.18373 0.88533
C17_5 C 0.33006 0.27699 0.12043
C18_5 C 0.32812 0.26205 0.23991
C19_5 C 0.32564 0.26255 0.44227
C20_5 C 0.32349 0.27753 0.51994
C24_5 C 0.33266 0.30878 0.05902
C25_5 C 0.32880 0.29268 0.19702
C26_5 C 0.32511 0.29259 0.40208
C31_5 C 0.33010 0.25165 0.61124
C32_5 C 0.31205 0.23436 0.61431
C33_5 C 0.30881 0.21838 0.72841
C34_5 C 0.32444 0.21922 0.83213
C35_6 C 0.34254 0.23645 0.82646
C36_6 C 0.34515 0.25300 0.72884
C37_5 C 0.32233 0.20253 0.94941
C40_5 C 0.30765 0.16748 0.98357
C43_6 C 0.36315 0.27214 0.76851
C44_5 C 0.28851 0.20109 0.74264
C46_5 C 0.29287 0.14765 0.91558
O5_2 O 0.33169 0.32343 0.11580
O6_2 O 0.32179 0.30621 0.49480
Zn6_3 Zn 0.34015 0.34929 0.00179
Zn7_3 Zn 0.31737 0.32419 0.33513
Zn8_2 Zn 0.34248 0.32652 0.66846
H18_5 H 0.33292 0.27625 0.96686
O4_6 O 0.33703 0.30762 0.88113
O8_6 O 0.35996 0.31872 0.54587
O13_3 O 0.32507 0.33498 0.78247
O14_2 O 0.34324 0.34159 0.44913
O16_4 O 0.36046 0.34891 0.82813
H41_6 H 0.352465 0.304505 0.513778
H42_6 H 0.365527 0.326405 0.423667
O7_5 O 0.66281 0.62824 0.06121
O10_4 O 0.64058 0.64673 0.12970
H40_5 H 0.670973 0.631868 0.181797
H1_5 H 0.49792 0.49612 0.05815
H9_5 H 0.53267 0.56551 0.01039
H10_5 H 0.61280 0.56371 0.17776
H16_5 H 0.57091 0.59180 0.07061
H21_5 H 0.62049 0.60308 0.64866
H22_5 H 0.59743 0.57770 0.43903
H25_5 H 0.52718 0.52444 0.00674
C4_5 C 0.61078 0.56475 0.01803
C15_5 C 0.57275 0.58014 0.01501
C16_5 C 0.58980 0.57999 0.05594
C21_5 C 0.62991 0.62882 0.22088
C22_5 C 0.63160 0.62541 0.42389
C23_5 C 0.64594 0.63999 0.56282
C27_5 C 0.61619 0.61386 0.10387
C28_5 C 0.60448 0.59543 0.18032
C29_5 C 0.60633 0.59189 0.37724
C30_5 C 0.61959 0.60662 0.49718
O3_5 O 0.64581 0.63515 0.74191
H39_5 H 0.668208 0.622971 0.961972
H2_6 H 0.48220 0.49100 0.85359
H3_5 H 0.49297 0.47621 0.89960
H4_6 H 0.56405 0.55560 0.41574
H5_6 H 0.57513 0.54129 0.47616
H6_6 H 0.55993 0.53547 0.26499
H7_6 H 0.54395 0.58036 0.79743
H8_6 H 0.52956 0.55480 0.77122
H11_5 H 0.61067 0.55232 0.94459
H12_5 H 0.62316 0.57818 0.95980
H13_6 H 0.52983 0.50820 0.31097
H14_6 H 0.48496 0.45290 0.08768
H15_5 H 0.57910 0.53813 0.82272
H19_6 H 0.38919 0.37617 0.00703
H20_6 H 0.61445 0.61671 0.95222
H24_7 H 0.42944 0.45062 0.23987
H26_7 H 0.47589 0.48476 0.65964
H27_7 H 0.38379 0.40941 0.14581
H28_7 H 0.39576 0.43405 0.22192
H31_6 H 0.47080 0.42222 0.22892
H32_6 H 0.46184 0.40608 0.02729
H33_6 H 0.44304 0.45518 0.69654
H34_7 H 0.43828 0.46747 0.49971
H35_7 H 0.43080 0.44217 0.48191
H36_6 H 0.52645 0.49324 0.18437
H37_6 H 0.52764 0.47786 0.37418
H38_6 H 0.51834 0.46837 0.13590
C1_5 C 0.49539 0.49111 0.90360
C2_6 C 0.56200 0.54084 0.41819
C3_6 C 0.53995 0.56640 0.86897
C5_6 C 0.52939 0.51161 0.46363
C6_6 C 0.51307 0.49950 0.57571
C7_5 C 0.51228 0.50399 0.77490
C8_6 C 0.48294 0.45911 0.21866
C9_6 C 0.54498 0.52808 0.54524
C10_5 C 0.54414 0.53264 0.74354
C11_5 C 0.59236 0.56498 0.98232
C12_5 C 0.57746 0.55001 0.87473
C13_5 C 0.56013 0.54983 0.83870
C14_6 C 0.55787 0.56525 0.90688
C33_6 C 0.44829 0.42376 0.06174
C34_6 C 0.44745 0.43855 0.16546
C35_7 C 0.43022 0.43942 0.15979
C36_7 C 0.41367 0.42548 0.06217
C37_6 C 0.46414 0.45313 0.28274
C38_7 C 0.46169 0.46214 0.44875
C39_5 C 0.52780 0.52063 0.85574
C40_6 C 0.49919 0.47350 0.31690
C41_6 C 0.49661 0.48292 0.47726
C42_6 C 0.47790 0.47726 0.53921
C43_7 C 0.39453 0.42434 0.10184
C44_6 C 0.46558 0.42075 0.07597
C45_7 C 0.44230 0.45633 0.53512
C46_6 C 0.51902 0.47855 0.24891
H17_6 H 0.41657 0.41192 0.50665
H18_6 H 0.39042 0.39000 0.30019
H23_6 H 0.43327 0.40022 0.86220
H29_7 H 0.38902 0.42850 0.97226
H30_6 H 0.47737 0.43132 0.98273
C17_6 C 0.38968 0.38640 0.45376
C18_6 C 0.40462 0.39940 0.57324
C19_6 C 0.40412 0.39642 0.77560
C20_6 C 0.38914 0.37929 0.85327
C24_6 C 0.35789 0.35721 0.39235
C25_6 C 0.37399 0.36945 0.53035
C26_6 C 0.37408 0.36585 0.73541
C31_6 C 0.41502 0.41178 0.94457
C32_6 C 0.43231 0.41102 0.94764
O4_7 O 0.35905 0.36274 0.21446
O16_5 O 0.31775 0.34488 0.16147
O8_7 O 0.34795 0.37457 0.87920
H41_7 H 0.362162 0.381294 0.847112
H42_7 H 0.340262 0.372455 0.757
H4_7 H 0.11106 0.34178 0.74908
H5_7 H 0.12537 0.36717 0.80950
H6_7 H 0.13119 0.35779 0.59833
H13_7 H 0.15846 0.35496 0.64431
H14_7 H 0.21376 0.36539 0.42102
H19_7 H 0.29049 0.34635 0.34037
H23_7 H 0.26644 0.36638 0.19554
H24_8 H 0.21604 0.31215 0.57321
H26_8 H 0.18190 0.32446 0.99298
H27_8 H 0.25725 0.30771 0.47915
H28_8 H 0.23261 0.29504 0.55526
H29_8 H 0.23816 0.29385 0.30560
H30_7 H 0.23534 0.37938 0.31607
H31_7 H 0.24444 0.38191 0.56226
H32_7 H 0.26058 0.38909 0.36063
H34_8 H 0.19919 0.30414 0.83305
H35_8 H 0.22449 0.32196 0.81525
H36_7 H 0.17342 0.36654 0.51771
H37_7 H 0.18880 0.38311 0.70752
H38_7 H 0.19829 0.38330 0.46924
C2_7 C 0.12582 0.35449 0.75153
C5_7 C 0.15505 0.35111 0.79697
C6_7 C 0.16716 0.34690 0.90905
C8_7 C 0.20755 0.35716 0.55200
C9_7 C 0.13858 0.35023 0.87858
C19_7 C 0.27024 0.34103 0.10894
C20_7 C 0.28737 0.34318 0.18661
C26_7 C 0.30081 0.34156 0.06875
C31_7 C 0.25488 0.33657 0.27791
C32_7 C 0.25564 0.35462 0.28098
C33_7 C 0.24290 0.35786 0.39508
C34_7 C 0.22811 0.34223 0.49880
C35_8 C 0.22724 0.32413 0.49313
C36_8 C 0.24118 0.32152 0.39551
C37_7 C 0.21353 0.34434 0.61608
C38_8 C 0.20452 0.33288 0.78209
C40_7 C 0.19316 0.35902 0.65024
C41_7 C 0.18374 0.34702 0.81060
C42_7 C 0.18940 0.33397 0.87255
C43_8 C 0.24232 0.30352 0.43518
C44_7 C 0.24591 0.37816 0.40931
C45_8 C 0.21033 0.31930 0.86846
C46_7 C 0.18811 0.37380 0.58225
H17_7 H 0.25474 0.33798 0.83999
H18_7 H 0.27666 0.33375 0.63353
C17_7 C 0.28026 0.33661 0.78710
C18_7 C 0.26726 0.33855 0.90658
C24_7 C 0.30945 0.33401 0.72569
C25_7 C 0.29721 0.33787 0.86369
O4_8 O 0.30392 0.32964 0.54780
O8_8 O 0.29209 0.30671 0.21254
H41_8 H 0.285373 0.314201 0.180445
H42_8 H 0.294211 0.30114 0.0903334
O3_6 O 0.65601 0.68753 0.07525
O7_6 O 0.63210 0.67053 0.39455
H39_6 H 0.621429 0.665125 0.295305
H40_6 H 0.627562 0.662361 0.51513
H1_6 H 0.66487 0.83542 0.39149
H2_7 H 0.67547 0.85114 0.18693
H3_6 H 0.64991 0.84037 0.23294
H7_7 H 0.70308 0.78939 0.13077
H8_7 H 0.69191 0.80378 0.10456
H9_6 H 0.69951 0.80067 0.34373
H10_6 H 0.61758 0.72054 0.51110
H11_6 H 0.60832 0.72267 0.27793
H12_6 H 0.62169 0.71018 0.29314
H15_6 H 0.62570 0.75424 0.15606
H16_6 H 0.68756 0.76243 0.40395
H20_7 H 0.66893 0.71889 0.28556
H21_6 H 0.64926 0.71285 0.98200
H22_6 H 0.64694 0.73591 0.77237
H25_6 H 0.66393 0.80616 0.34008
H33_7 H 0.67881 0.89030 0.02988
C1_6 C 0.66239 0.83795 0.23694
C3_7 C 0.69312 0.79339 0.20231
C4_6 C 0.62064 0.72256 0.35137
C7_6 C 0.65838 0.82106 0.10824
C10_6 C 0.65517 0.78920 0.07688
C11_6 C 0.63929 0.74098 0.31566
C12_6 C 0.63922 0.75588 0.20807
C13_6 C 0.65637 0.77321 0.17204
C14_7 C 0.67405 0.77547 0.24022
C15_6 C 0.67406 0.76059 0.34835
C16_6 C 0.65686 0.74354 0.38928
C21_6 C 0.66558 0.70343 0.55422
C22_6 C 0.66048 0.70174 0.75723
C23_6 C 0.66072 0.68740 0.89616
C27_6 C 0.66434 0.71715 0.43721
C28_6 C 0.65762 0.72886 0.51366
C29_6 C 0.65223 0.72701 0.71058
C30_6 C 0.65370 0.71375 0.83052
C39_6 C 0.65950 0.80554 0.18908
H6_8 H 0.79786 0.69112 0.93166
H13_8 H 0.82513 0.68829 0.97764
H14_8 H 0.88043 0.69872 0.75435
H17_8 H 0.92141 0.67131 0.17332
H19_8 H 0.95716 0.67968 0.67370
H23_8 H 0.93311 0.69971 0.52887
H24_9 H 0.88271 0.64548 0.90654
H27_9 H 0.92392 0.64104 0.81248
H28_9 H 0.89928 0.62837 0.88859
H29_9 H 0.90483 0.62718 0.63893
H30_8 H 0.90201 0.71271 0.64940
H31_8 H 0.91111 0.71524 0.89559
H32_8 H 0.92725 0.72242 0.69396
H36_8 H 0.84009 0.69987 0.85104
H38_8 H 0.86496 0.71663 0.80257
C8_8 C 0.87422 0.69049 0.88533
C17_8 C 0.94693 0.66994 0.12043
C18_8 C 0.93393 0.67188 0.23991
C19_8 C 0.93691 0.67436 0.44227
C20_8 C 0.95404 0.67651 0.51994
C24_8 C 0.97612 0.66734 0.05902
C25_8 C 0.96388 0.67120 0.19702
C26_8 C 0.96748 0.67489 0.40208
C31_8 C 0.92155 0.66990 0.61124
C32_8 C 0.92231 0.68795 0.61431
C33_8 C 0.90957 0.69119 0.72841
C34_8 C 0.89478 0.67556 0.83213
C35_9 C 0.89391 0.65746 0.82646
C36_9 C 0.90785 0.65485 0.72884
C37_8 C 0.88020 0.67767 0.94941
C40_8 C 0.85983 0.69235 0.98357
C43_9 C 0.90899 0.63685 0.76851
C44_8 C 0.91258 0.71149 0.74264
C46_8 C 0.85478 0.70713 0.91558
O5_3 O 0.99174 0.66831 0.11580
O6_3 O 0.98442 0.67821 0.49480
Zn8_3 Zn 0.98404 0.65752 0.66846
H18_8 H 0.94333 0.66708 0.96686
O4_9 O 0.97059 0.66297 0.88113
O8_9 O 0.95876 0.64004 0.54587
O14_3 O 0.99836 0.65676 0.44913
O16_6 O 0.98846 0.63954 0.82813
H41_9 H 0.95204 0.647535 0.513778
H42_9 H 0.960878 0.634473 0.423667
H17_9 H 0.99536 0.58343 0.50665
H18_9 H 0.99959 0.60958 0.30019
H23_9 H 0.96696 0.56673 0.86220
H30_9 H 0.95396 0.52263 0.98273
C17_9 C 0.99673 0.61032 0.45376
C18_9 C 0.99479 0.59538 0.57324
C19_9 C 0.99231 0.59588 0.77560
C20_9 C 0.99016 0.61086 0.85327
C24_9 C 0.99933 0.64211 0.39235
C25_9 C 0.99547 0.62601 0.53035
C26_9 C 0.99178 0.62592 0.73541
C31_9 C 0.99677 0.58498 0.94457
C32_9 C 0.97872 0.56769 0.94764
H21_7 H 0.31593 0.04618 0.31533
H22_7 H 0.31361 0.06924 0.10570
C22_7 C 0.32715 0.03507 0.09056
C23_7 C 0.32739 0.02073 0.22949
C29_7 C 0.31890 0.06034 0.04391
C30_7 C 0.32037 0.04708 0.16385
O2_3 O 0.33216 0.00854 0.17244
O3_7 O 0.32268 0.02086 0.40858
Zn1_3 Zn 0.32171 0.00361 0.62258
O7_7 O 0.29877 0.00386 0.72788
O10_5 O 0.33949 0.02609 0.79637
O11_3 O 0.34305 0.00117 0.50577
H1_7 H 0.33154 0.16875 0.72482
H2_8 H 0.34214 0.18447 0.52026
H3_7 H 0.31658 0.17370 0.56627
H4_8 H 0.32489 0.10262 0.08241
H5_8 H 0.29950 0.09154 0.14283
H7_8 H 0.36975 0.12272 0.46410
H8_8 H 0.35858 0.13711 0.43789
H9_7 H 0.36618 0.13400 0.67706
H10_7 H 0.28425 0.05387 0.84443
H11_7 H 0.27499 0.05600 0.61126
H12_7 H 0.28836 0.04351 0.62647
H15_7 H 0.29237 0.08757 0.48939
H16_7 H 0.35423 0.09576 0.73728
H20_8 H 0.33560 0.05222 0.61889
H25_7 H 0.33060 0.13949 0.67341
H26_9 H 0.34221 0.19078 0.32631
H33_8 H 0.34548 0.22363 0.36321
H34_9 H 0.36253 0.22839 0.16638
H35_9 H 0.34471 0.23587 0.14858
H37_8 H 0.28356 0.13903 0.04085
C1_7 C 0.32906 0.17128 0.57027
C2_8 C 0.31218 0.10467 0.08486
C3_8 C 0.35979 0.12672 0.53564
C4_7 C 0.28731 0.05589 0.68470
C5_8 C 0.31556 0.13728 0.13030
C6_8 C 0.31977 0.15360 0.24238
C7_7 C 0.32505 0.15439 0.44157
C9_8 C 0.31644 0.12169 0.21191
C10_7 C 0.32184 0.12253 0.41021
C11_7 C 0.30596 0.07431 0.64899
C12_7 C 0.30589 0.08921 0.54140
C13_7 C 0.32304 0.10654 0.50537
C14_8 C 0.34072 0.10880 0.57355
C15_7 C 0.34073 0.09392 0.68168
C16_7 C 0.32353 0.07687 0.72261
C21_7 C 0.33225 0.03676 0.88755
C27_7 C 0.33101 0.05048 0.77054
C28_7 C 0.32429 0.06219 0.84699
C38_9 C 0.33379 0.20498 0.11542
C39_7 C 0.32617 0.13887 0.52241
C41_8 C 0.31965 0.17006 0.14393
C42_8 C 0.33270 0.18877 0.20588
C45_9 C 0.34737 0.22437 0.20179
Zn3_3 Zn 0.34857 0.01162 0.95591
O7_8 O 0.37176 0.03456 0.06121
H40_7 H 0.368132 0.0391045 0.181797
H1_8 H 0.50388 0.00179 0.05815
H10_8 H 0.43629 0.04908 0.17776
H21_8 H 0.39692 0.01740 0.64866
H22_8 H 0.42230 0.01972 0.43903
H25_8 H 0.47556 0.00273 0.00674
C4_8 C 0.43525 0.04602 0.01803
C16_8 C 0.42001 0.00980 0.05594
C21_8 C 0.37118 0.00108 0.22088
C22_8 C 0.37459 0.00618 0.42389
C23_8 C 0.36001 0.00594 0.56282
C27_8 C 0.38614 0.00232 0.10387
C28_8 C 0.40457 0.00904 0.18032
C29_8 C 0.40811 0.01443 0.37724
C30_8 C 0.39338 0.01296 0.49718
O3_8 O 0.36485 0.01065 0.74191
H39_7 H 0.377029 0.0452376 0.961972
H3_8 H 0.52379 0.01675 0.89960
H4_9 H 0.44440 0.00844 0.41574
H5_9 H 0.45871 0.03383 0.47616
H6_9 H 0.46453 0.02445 0.26499
H11_8 H 0.44768 0.05834 0.94459
H12_8 H 0.42182 0.04497 0.95980
H13_9 H 0.49180 0.02162 0.31097
H14_9 H 0.54710 0.03205 0.08768
H15_8 H 0.46187 0.04096 0.82272
H19_9 H 0.62383 0.01301 0.00703
H31_9 H 0.57778 0.04857 0.22892
H32_9 H 0.59392 0.05575 0.02729
H36_9 H 0.50676 0.03320 0.18437
H37_9 H 0.52214 0.04977 0.37418
H38_9 H 0.53163 0.04996 0.13590
C1_8 C 0.50889 0.00427 0.90360
C2_9 C 0.45916 0.02115 0.41819
C5_9 C 0.48839 0.01777 0.46363
C6_9 C 0.50050 0.01356 0.57571
C7_8 C 0.49601 0.00828 0.77490
C8_9 C 0.54089 0.02382 0.21866
C9_9 C 0.47192 0.01689 0.54524
C10_8 C 0.46736 0.01149 0.74354
C11_8 C 0.43502 0.02737 0.98232
C12_8 C 0.44999 0.02744 0.87473
C13_8 C 0.45017 0.01029 0.83870
C33_9 C 0.57624 0.02452 0.06174
C34_9 C 0.56145 0.00889 0.16546
C37_9 C 0.54687 0.01100 0.28274
C39_8 C 0.47937 0.00716 0.85574
C40_9 C 0.52650 0.02568 0.31690
C41_9 C 0.51708 0.01368 0.47726
C42_9 C 0.52274 0.00063 0.53921
C44_9 C 0.57925 0.04482 0.07597
C46_9 C 0.52145 0.04046 0.24891
O9_3 O 0.30724 0.98007 0.46304
O12_3 O 0.32479 0.99029 0.83911
Zn4_3 Zn 0.32972 0.98477 0.28925
H39_8 H 0.288096 0.998458 0.628638
H40_8 H 0.294229 0.995694 0.848463
O10_6 O 0.35327 0.99384 0.12970
H9_8 H 0.43449 0.96715 0.01039
H16_8 H 0.40820 0.97910 0.07061
C15_8 C 0.41986 0.99260 0.01501
O3_9 O 0.31247 0.96849 0.07525
O7_9 O 0.32947 0.96158 0.39455
H39_9 H 0.334875 0.956304 0.295305
H40_9 H 0.337639 0.965202 0.51513
H1_9 H 0.16458 0.82946 0.39149
H2_9 H 0.14886 0.82434 0.18693
H3_9 H 0.15963 0.80955 0.23294
H7_9 H 0.21061 0.91370 0.13077
H8_9 H 0.19622 0.88814 0.10456
H9_9 H 0.19933 0.89885 0.34373
H10_9 H 0.27946 0.89705 0.51110
H11_9 H 0.27733 0.88566 0.27793
H12_9 H 0.28982 0.91152 0.29314
H15_9 H 0.24576 0.87147 0.15606
H16_9 H 0.23757 0.92514 0.40395
H20_9 H 0.28111 0.95005 0.28556
H21_9 H 0.28715 0.93642 0.98200
H22_9 H 0.26409 0.91104 0.77237
H25_9 H 0.19384 0.85778 0.34008
H33_9 H 0.10970 0.78852 0.02988
C1_9 C 0.16205 0.82445 0.23694
C3_9 C 0.20661 0.89974 0.20231
C4_9 C 0.27744 0.89809 0.35137
C7_9 C 0.17894 0.83733 0.10824
C10_9 C 0.21080 0.86598 0.07688
C11_9 C 0.25902 0.89832 0.31566
C12_9 C 0.24412 0.88335 0.20807
C13_9 C 0.22679 0.88317 0.17204
C14_9 C 0.22453 0.89859 0.24022
C15_9 C 0.23941 0.91348 0.34835
C16_9 C 0.25646 0.91333 0.38928
C21_9 C 0.29657 0.96216 0.55422
C22_9 C 0.29826 0.95875 0.75723
C23_9 C 0.31260 0.97333 0.89616
C27_9 C 0.28285 0.94720 0.43721
C28_9 C 0.27114 0.92877 0.51366
C29_9 C 0.27299 0.92523 0.71058
C30_9 C 0.28625 0.93996 0.83052
C39_9 C 0.19446 0.85397 0.18908
loop_
_geom_bond_atom_site_label_1
_geom_bond_atom_site_label_2
_geom_bond_site_symmetry_1
_geom_bond_site_symmetry_2
O9 Zn4 1_555 1_555
H16 C15 1_555 1_555
Zn4 O10 1_555 1_555
Zn4 O3 1_555 1_555
O7 Zn4 1_555 1_555
O7 H39_2 1_555 1_555
O7 H40_2 1_555 1_555
H1 C1 1_555 1_555
H2 C1 1_555 1_555
H3 C1 1_555 1_555
H7 C3 1_555 1_555
H8 C3 1_555 1_555
H9_2 C3 1_555 1_555
H10 C4 1_555 1_555
H11 C4 1_555 1_555
H12 C4 1_555 1_555
H15 C12 1_555 1_555
H16_2 C15_2 1_555 1_555
H20 C27 1_555 1_555
H21 C30 1_555 1_555
H22 C29 1_555 1_555
H25 C39 1_555 1_555
C1 C7 1_555 1_555
C3 C14 1_555 1_555
C4 C11 1_555 1_555
C7 C39 1_555 1_555
C11 C12 1_555 1_555
C12 C13 1_555 1_555
C13 C10 1_555 1_555
C14 C13 1_555 1_555
C15_2 C14 1_555 1_555
C16 C11 1_555 1_555
C21 C22 1_555 1_555
C22 C23 1_555 1_555
C23 O12 1_555 1_555
C27 C21 1_555 1_555
C28 C16 1_555 1_555
C29 C28 1_555 1_555
C30 C22 1_555 1_555
C39 C10 1_555 1_555
O9 C21 1_555 1_555
C15_2 C16 1_555 1_555
C27 C28 1_555 1_555
C29 C30 1_555 1_555
H21_2 C30_2 1_555 1_555
H22_2 C29_2 1_555 1_555
C22_2 C23_2 1_555 1_555
C23_2 O2 1_555 1_555
C30_2 C22_2 1_555 1_555
O3_2 C23_2 1_555 1_555
Zn1 O3_2 1_555 1_555
O7_2 Zn1 1_555 1_555
O10_2 Zn1 1_555 1_555
O11 Zn1 1_555 1_555
C29_2 C30_2 1_555 1_555
H1_2 C1_2 1_555 1_555
H2_2 C1_2 1_555 1_555
H3_2 C1_2 1_555 1_555
H4 C2 1_555 1_555
H5 C2 1_555 1_555
H7_2 C3_2 1_555 1_555
H8_2 C3_2 1_555 1_555
H9_3 C3_2 1_555 1_555
H10_2 C4_2 1_555 1_555
H11_2 C4_2 1_555 1_555
H12_2 C4_2 1_555 1_555
H15_2 C12_2 1_555 1_555
H16_3 C15_3 1_555 1_555
H20_2 C27_2 1_555 1_555
H25_2 C39_2 1_555 1_555
H26 C42 1_555 1_555
H33_2 C45 1_555 1_555
H34 C45 1_555 1_555
H35 C45 1_555 1_555
C1_2 C7_2 1_555 1_555
C2 C9 1_555 1_555
C3_2 C14_2 1_555 1_555
C4_2 C11_2 1_555 1_555
C5 C6 1_555 1_555
C6 C7_2 1_555 1_555
C7_2 C39_2 1_555 1_555
C9 C5 1_555 1_555
C10_2 C9 1_555 1_555
C11_2 C12_2 1_555 1_555
C12_2 C13_2 1_555 1_555
C13_2 C10_2 1_555 1_555
C14_2 C13_2 1_555 1_555
C15_3 C14_2 1_555 1_555
C16_2 C11_2 1_555 1_555
C27_2 C21_2 1_555 1_555
C28_2 C16_2 1_555 1_555
C39_2 C10_2 1_555 1_555
C41 C6 1_555 1_555
C42 C38 1_555 1_555
C45 C38 1_555 1_555
O10_2 C21_2 1_555 1_555
Zn3 O10_2 1_555 1_555
C15_3 C16_2 1_555 1_555
C27_2 C28_2 1_555 1_555
C41 C42 1_555 1_555
O7_3 H40_3 1_555 1_555
H10_3 C4_3 1_555 1_555
H21_3 C30_3 1_555 1_555
H22_3 C29_3 1_555 1_555
C21_3 C22_3 1_555 1_555
C22_3 C23_3 1_555 1_555
C23_3 O11 1_555 1_555
C27_3 C21_3 1_555 1_555
C28_3 C16_3 1_555 1_555
C29_3 C28_3 1_555 1_555
C30_3 C22_3 1_555 1_555
O3_3 C23_3 1_555 1_555
Zn3 O3_3 1_555 1_555
C27_3 C28_3 1_555 1_555
C29_3 C30_3 1_555 1_555
H3_3 C1_3 1_555 1_555
H4_2 C2_2 1_555 1_555
H5_2 C2_2 1_555 1_555
H6 C2_2 1_555 1_555
H13 C5_2 1_555 1_555
H14 C8 1_555 1_555
H15_3 C12_3 1_555 1_555
H31 C44 1_555 1_555
H32 C44 1_555 1_555
H36 C46 1_555 1_555
H37_2 C46 1_555 1_555
H38 C46 1_555 1_555
C1_3 C7_3 1_555 1_555
C2_2 C9_2 1_555 1_555
C5_2 C6_2 1_555 1_555
C6_2 C7_3 1_555 1_555
C7_3 C39_3 1_555 1_555
C8 C37 1_555 1_555
C9_2 C5_2 1_555 1_555
C10_3 C9_2 1_555 1_555
C11_3 C12_3 1_555 1_555
C12_3 C13_3 1_555 1_555
C13_3 C10_3 1_555 1_555
C34 C33 1_555 1_555
C37 C34 1_555 1_555
C39_3 C10_3 1_555 1_555
C40 C8 1_555 1_555
C41_2 C6_2 1_555 1_555
C44 C33 1_555 1_555
C46 C40 1_555 1_555
C40 C41_2 1_555 1_555
C41_2 C42_2 1_555 1_555
H14_2 C8_2 1_555 1_555
H17 C18 1_555 1_555
H19_2 C20 1_555 1_555
H23 C32 1_555 1_555
H24 C35 1_555 1_555
H27 C43 1_555 1_555
H28 C43 1_555 1_555
H29 C43 1_555 1_555
H30 C44_2 1_555 1_555
H31_2 C44_2 1_555 1_555
H32_2 C44_2 1_555 1_555
H36_2 C46_2 1_555 1_555
H38_2 C46_2 1_555 1_555
C8_2 C37_2 1_555 1_555
C17 C18 1_555 1_555
C18 C19 1_555 1_555
C19 C20 1_555 1_555
C20 C26 1_555 1_555
C24 C25 1_555 1_555
C25 C17 1_555 1_555
C26 C25 1_555 1_555
C31 C19 1_555 1_555
C32 C31 1_555 1_555
C33_2 C32 1_555 1_555
C34_2 C33_2 1_555 1_555
C35 C34_2 1_555 1_555
C36 C31 1_555 1_555
C37_2 C34_2 1_555 1_555
C40_2 C8_2 1_555 1_555
C43 C36 1_555 1_555
C44_2 C33_2 1_555 1_555
C46_2 C40_2 1_555 1_555
O5 C24 1_555 1_555
O6 C26 1_555 1_555
Zn8 O6 1_555 1_555
C35 C36 1_555 1_555
Zn8 O4 1_555 1_555
O8 Zn8 1_555 1_555
O14 Zn8 1_555 1_555
O16 Zn8 1_555 1_555
O8 H41 1_555 1_555
O8 H42 1_555 1_555
H17_2 C18_2 1_555 1_555
H18_2 C17_2 1_555 1_555
H23_2 C32_2 1_555 1_555
C17_2 C18_2 1_555 1_555
C18_2 C19_2 1_555 1_555
C19_2 C20_2 1_555 1_555
C20_2 C26_2 1_555 1_555
C24_2 C25_2 1_555 1_555
C25_2 C17_2 1_555 1_555
C26_2 C25_2 1_555 1_555
C31_2 C19_2 1_555 1_555
C32_2 C31_2 1_555 1_555
O14 C24_2 1_555 1_555
O16 C26_2 1_555 1_555
H7_3 C3_3 1_555 1_555
H8_3 C3_3 1_555 1_555
H24_2 C35_2 1_555 1_555
H27_2 C43_2 1_555 1_555
H28_2 C43_2 1_555 1_555
H33_3 C45_2 1_555 1_555
H34_2 C45_2 1_555 1_555
H35_2 C45_2 1_555 1_555
C3_3 C14_3 1_555 1_555
C43_2 C36_2 1_555 1_555
C45_2 C38_2 1_555 1_555
C35_2 C36_2 1_555 1_555
Zn6 O4_2 1_555 1_555
O16_2 Zn6 1_555 1_555
O16_2 Zn7 1_555 1_555
O8_2 H41_2 1_555 1_555
O8_2 H42_2 1_555 1_555
H4_3 C2_3 1_555 1_555
H5_3 C2_3 1_555 1_555
H6_3 C2_3 1_555 1_555
H13_3 C5_3 1_555 1_555
H14_3 C8_3 1_555 1_555
H19_3 C20_3 1_555 1_555
H23_3 C32_3 1_555 1_555
H24_3 C35_3 1_555 1_555
H26_3 C42_3 1_555 1_555
H27_3 C43_3 1_555 1_555
H28_3 C43_3 1_555 1_555
H29_3 C43_3 1_555 1_555
H30_3 C44_3 1_555 1_555
H31_3 C44_3 1_555 1_555
H32_3 C44_3 1_555 1_555
H34_3 C45_3 1_555 1_555
H35_3 C45_3 1_555 1_555
H36_3 C46_3 1_555 1_555
H37_3 C46_3 1_555 1_555
H38_3 C46_3 1_555 1_555
C2_3 C9_3 1_555 1_555
C5_3 C6_3 1_555 1_555
C8_3 C37_3 1_555 1_555
C9_3 C5_3 1_555 1_555
C19_3 C20_3 1_555 1_555
C20_3 C26_3 1_555 1_555
C31_3 C19_3 1_555 1_555
C32_3 C31_3 1_555 1_555
C33_3 C32_3 1_555 1_555
C34_3 C33_3 1_555 1_555
C35_3 C34_3 1_555 1_555
C36_3 C31_3 1_555 1_555
C37_3 C34_3 1_555 1_555
C38_3 C37_3 1_555 1_555
C40_3 C8_3 1_555 1_555
C41_3 C6_3 1_555 1_555
C42_3 C38_3 1_555 1_555
C43_3 C36_3 1_555 1_555
C44_3 C33_3 1_555 1_555
C45_3 C38_3 1_555 1_555
C46_3 C40_3 1_555 1_555
O16_2 C26_3 1_555 1_555
C35_3 C36_3 1_555 1_555
C40_3 C41_3 1_555 1_555
C41_3 C42_3 1_555 1_555
H17_3 C18_3 1_555 1_555
H18_3 C17_3 1_555 1_555
C17_3 C18_3 1_555 1_555
C24_3 C25_3 1_555 1_555
C25_3 C17_3 1_555 1_555
O4_3 C24_3 1_555 1_555
O13 C24_3 1_555 1_555
Zn7 O4_3 1_555 1_555
O8_3 Zn7 1_555 1_555
O8_3 H41_3 1_555 1_555
O8_3 H42_3 1_555 1_555
H7_4 C3_4 1_555 1_555
H8_4 C3_4 1_555 1_555
H24_4 C35_4 1_555 1_555
H27_4 C43_4 1_555 1_555
H28_4 C43_4 1_555 1_555
H33_4 C45_4 1_555 1_555
H34_4 C45_4 1_555 1_555
H35_4 C45_4 1_555 1_555
C3_4 C14_4 1_555 1_555
C43_4 C36_4 1_555 1_555
C45_4 C38_4 1_555 1_555
C35_4 C36_4 1_555 1_555
Zn6_2 O4_4 1_555 1_555
O16_3 Zn6_2 1_555 1_555
O16_3 Zn7_2 1_555 1_555
O8_4 H41_4 1_555 1_555
O8_4 H42_4 1_555 1_555
H4_4 C2_4 1_555 1_555
H5_4 C2_4 1_555 1_555
H6_4 C2_4 1_555 1_555
H13_4 C5_4 1_555 1_555
H14_4 C8_4 1_555 1_555
H19_4 C20_4 1_555 1_555
H23_4 C32_4 1_555 1_555
H24_5 C35_5 1_555 1_555
H26_5 C42_4 1_555 1_555
H27_5 C43_5 1_555 1_555
H28_5 C43_5 1_555 1_555
H29_5 C43_5 1_555 1_555
H30_4 C44_4 1_555 1_555
H31_4 C44_4 1_555 1_555
H32_4 C44_4 1_555 1_555
H34_5 C45_5 1_555 1_555
H35_5 C45_5 1_555 1_555
H36_4 C46_4 1_555 1_555
H37_4 C46_4 1_555 1_555
H38_4 C46_4 1_555 1_555
C2_4 C9_4 1_555 1_555
C5_4 C6_4 1_555 1_555
C8_4 C37_4 1_555 1_555
C9_4 C5_4 1_555 1_555
C19_4 C20_4 1_555 1_555
C20_4 C26_4 1_555 1_555
C31_4 C19_4 1_555 1_555
C32_4 C31_4 1_555 1_555
C33_4 C32_4 1_555 1_555
C34_4 C33_4 1_555 1_555
C35_5 C34_4 1_555 1_555
C36_5 C31_4 1_555 1_555
C37_4 C34_4 1_555 1_555
C38_5 C37_4 1_555 1_555
C40_4 C8_4 1_555 1_555
C41_4 C6_4 1_555 1_555
C42_4 C38_5 1_555 1_555
C43_5 C36_5 1_555 1_555
C44_4 C33_4 1_555 1_555
C45_5 C38_5 1_555 1_555
C46_4 C40_4 1_555 1_555
O16_3 C26_4 1_555 1_555
C35_5 C36_5 1_555 1_555
C40_4 C41_4 1_555 1_555
C41_4 C42_4 1_555 1_555
H17_4 C18_4 1_555 1_555
H18_4 C17_4 1_555 1_555
C17_4 C18_4 1_555 1_555
C24_4 C25_4 1_555 1_555
C25_4 C17_4 1_555 1_555
O4_5 C24_4 1_555 1_555
O13_2 C24_4 1_555 1_555
Zn7_2 O4_5 1_555 1_555
O8_5 Zn7_2 1_555 1_555
O8_5 H41_5 1_555 1_555
O8_5 H42_5 1_555 1_555
H21_4 C30_4 1_555 1_555
H22_4 C29_4 1_555 1_555
C22_4 C23_4 1_555 1_555
C23_4 O2_2 1_555 1_555
C30_4 C22_4 1_555 1_555
O3_4 C23_4 1_555 1_555
Zn1_2 O3_4 1_555 1_555
O7_4 Zn1_2 1_555 1_555
O9_2 Zn1_2 1_555 1_555
O10_3 Zn1_2 1_555 1_555
O11_2 Zn1_2 1_555 1_555
O12_2 Zn1_2 1_555 1_555
Zn4_2 O2_2 1_555 1_555
C29_4 C30_4 1_555 1_555
O9_2 Zn4_2 1_555 1_555
O11_2 Zn4_2 1_555 1_555
O7_4 H39_4 1_555 1_555
O7_4 H40_4 1_555 1_555
H1_4 C1_4 1_555 1_555
H2_5 C1_4 1_555 1_555
H3_4 C1_4 1_555 1_555
H4_5 C2_5 1_555 1_555
H5_5 C2_5 1_555 1_555
H7_5 C3_5 1_555 1_555
H8_5 C3_5 1_555 1_555
H9_4 C3_5 1_555 1_555
H10_4 C4_4 1_555 1_555
H11_4 C4_4 1_555 1_555
H12_4 C4_4 1_555 1_555
H15_4 C12_4 1_555 1_555
H16_4 C15_4 1_555 1_555
H20_5 C27_4 1_555 1_555
H25_4 C39_4 1_555 1_555
H26_6 C42_5 1_555 1_555
H33_5 C45_6 1_555 1_555
H34_6 C45_6 1_555 1_555
H35_6 C45_6 1_555 1_555
C1_4 C7_4 1_555 1_555
C2_5 C9_5 1_555 1_555
C3_5 C14_5 1_555 1_555
C4_4 C11_4 1_555 1_555
C5_5 C6_5 1_555 1_555
C6_5 C7_4 1_555 1_555
C7_4 C39_4 1_555 1_555
C9_5 C5_5 1_555 1_555
C10_4 C9_5 1_555 1_555
C11_4 C12_4 1_555 1_555
C12_4 C13_4 1_555 1_555
C13_4 C10_4 1_555 1_555
C14_5 C13_4 1_555 1_555
C15_4 C14_5 1_555 1_555
C16_4 C11_4 1_555 1_555
C27_4 C21_4 1_555 1_555
C28_4 C16_4 1_555 1_555
C39_4 C10_4 1_555 1_555
C41_5 C6_5 1_555 1_555
C42_5 C38_6 1_555 1_555
C45_6 C38_6 1_555 1_555
O10_3 C21_4 1_555 1_555
Zn3_2 O10_3 1_555 1_555
C15_4 C16_4 1_555 1_555
C27_4 C28_4 1_555 1_555
C41_5 C42_5 1_555 1_555
H14_5 C8_5 1_555 1_555
H17_5 C18_5 1_555 1_555
H19_5 C20_5 1_555 1_555
H23_5 C32_5 1_555 1_555
H24_6 C35_6 1_555 1_555
H27_6 C43_6 1_555 1_555
H28_6 C43_6 1_555 1_555
H29_6 C43_6 1_555 1_555
H30_5 C44_5 1_555 1_555
H31_5 C44_5 1_555 1_555
H32_5 C44_5 1_555 1_555
H36_5 C46_5 1_555 1_555
H38_5 C46_5 1_555 1_555
C8_5 C37_5 1_555 1_555
C17_5 C18_5 1_555 1_555
C18_5 C19_5 1_555 1_555
C19_5 C20_5 1_555 1_555
C20_5 C26_5 1_555 1_555
C24_5 C25_5 1_555 1_555
C25_5 C17_5 1_555 1_555
C26_5 C25_5 1_555 1_555
C31_5 C19_5 1_555 1_555
C32_5 C31_5 1_555 1_555
C33_5 C32_5 1_555 1_555
C34_5 C33_5 1_555 1_555
C35_6 C34_5 1_555 1_555
C36_6 C31_5 1_555 1_555
C37_5 C34_5 1_555 1_555
C40_5 C8_5 1_555 1_555
C43_6 C36_6 1_555 1_555
C44_5 C33_5 1_555 1_555
C46_5 C40_5 1_555 1_555
O5_2 C24_5 1_555 1_555
O6_2 C26_5 1_555 1_555
Zn6_3 O5_2 1_555 1_555
Zn7_3 O5_2 1_555 1_555
Zn8_2 O6_2 1_555 1_555
C35_6 C36_6 1_555 1_555
O6_2 Zn7_3 1_555 1_555
Zn8_2 O4_6 1_555 1_555
O8_6 Zn8_2 1_555 1_555
O13_3 Zn8_2 1_555 1_555
O14_2 Zn8_2 1_555 1_555
O16_4 Zn8_2 1_555 1_555
O8_6 H41_6 1_555 1_555
O8_6 H42_6 1_555 1_555
O7_5 H40_5 1_555 1_555
H10_5 C4_5 1_555 1_555
H16_5 C15_5 1_555 1_555
H21_5 C30_5 1_555 1_555
H22_5 C29_5 1_555 1_555
C21_5 C22_5 1_555 1_555
C22_5 C23_5 1_555 1_555
C23_5 O11_2 1_555 1_555
C27_5 C21_5 1_555 1_555
C28_5 C16_5 1_555 1_555
C29_5 C28_5 1_555 1_555
C30_5 C22_5 1_555 1_555
O10_4 C21_5 1_555 1_555
O3_5 C23_5 1_555 1_555
Zn3_2 O3_5 1_555 1_555
O12_2 Zn3_2 1_555 1_555
Zn4_2 O10_4 1_555 1_555
C15_5 C16_5 1_555 1_555
C27_5 C28_5 1_555 1_555
C29_5 C30_5 1_555 1_555
H2_6 C1_5 1_555 1_555
H3_5 C1_5 1_555 1_555
H4_6 C2_6 1_555 1_555
H5_6 C2_6 1_555 1_555
H6_6 C2_6 1_555 1_555
H7_6 C3_6 1_555 1_555
H8_6 C3_6 1_555 1_555
H13_6 C5_6 1_555 1_555
H14_6 C8_6 1_555 1_555
H15_5 C12_5 1_555 1_555
H24_7 C35_7 1_555 1_555
H26_7 C42_6 1_555 1_555
H27_7 C43_7 1_555 1_555
H28_7 C43_7 1_555 1_555
H31_6 C44_6 1_555 1_555
H32_6 C44_6 1_555 1_555
H33_6 C45_7 1_555 1_555
H34_7 C45_7 1_555 1_555
H35_7 C45_7 1_555 1_555
H36_6 C46_6 1_555 1_555
H37_6 C46_6 1_555 1_555
H38_6 C46_6 1_555 1_555
C1_5 C7_5 1_555 1_555
C2_6 C9_6 1_555 1_555
C3_6 C14_6 1_555 1_555
C5_6 C6_6 1_555 1_555
C6_6 C7_5 1_555 1_555
C7_5 C39_5 1_555 1_555
C8_6 C37_6 1_555 1_555
C9_6 C5_6 1_555 1_555
C10_5 C9_6 1_555 1_555
C11_5 C12_5 1_555 1_555
C12_5 C13_5 1_555 1_555
C13_5 C10_5 1_555 1_555
C14_6 C13_5 1_555 1_555
C34_6 C33_6 1_555 1_555
C35_7 C34_6 1_555 1_555
C37_6 C34_6 1_555 1_555
C38_7 C37_6 1_555 1_555
C39_5 C10_5 1_555 1_555
C40_6 C8_6 1_555 1_555
C41_6 C6_6 1_555 1_555
C42_6 C38_7 1_555 1_555
C43_7 C36_7 1_555 1_555
C44_6 C33_6 1_555 1_555
C45_7 C38_7 1_555 1_555
C46_6 C40_6 1_555 1_555
C35_7 C36_7 1_555 1_555
C40_6 C41_6 1_555 1_555
C41_6 C42_6 1_555 1_555
H17_6 C18_6 1_555 1_555
H18_6 C17_6 1_555 1_555
H23_6 C32_6 1_555 1_555
C17_6 C18_6 1_555 1_555
C18_6 C19_6 1_555 1_555
C19_6 C20_6 1_555 1_555
C20_6 C26_6 1_555 1_555
C24_6 C25_6 1_555 1_555
C25_6 C17_6 1_555 1_555
C26_6 C25_6 1_555 1_555
C31_6 C19_6 1_555 1_555
C32_6 C31_6 1_555 1_555
O4_7 C24_6 1_555 1_555
O14_2 C24_6 1_555 1_555
O16_4 C26_6 1_555 1_555
Zn6_3 O4_7 1_555 1_555
O16_5 Zn6_3 1_555 1_555
Zn7_3 O14_2 1_555 1_555
O16_5 Zn7_3 1_555 1_555
O8_7 H41_7 1_555 1_555
O8_7 H42_7 1_555 1_555
H4_7 C2_7 1_555 1_555
H5_7 C2_7 1_555 1_555
H6_7 C2_7 1_555 1_555
H13_7 C5_7 1_555 1_555
H14_7 C8_7 1_555 1_555
H19_7 C20_7 1_555 1_555
H23_7 C32_7 1_555 1_555
H24_8 C35_8 1_555 1_555
H26_8 C42_7 1_555 1_555
H27_8 C43_8 1_555 1_555
H28_8 C43_8 1_555 1_555
H29_8 C43_8 1_555 1_555
H30_7 C44_7 1_555 1_555
H31_7 C44_7 1_555 1_555
H32_7 C44_7 1_555 1_555
H34_8 C45_8 1_555 1_555
H35_8 C45_8 1_555 1_555
H36_7 C46_7 1_555 1_555
H37_7 C46_7 1_555 1_555
H38_7 C46_7 1_555 1_555
C2_7 C9_7 1_555 1_555
C5_7 C6_7 1_555 1_555
C8_7 C37_7 1_555 1_555
C9_7 C5_7 1_555 1_555
C19_7 C20_7 1_555 1_555
C20_7 C26_7 1_555 1_555
C31_7 C19_7 1_555 1_555
C32_7 C31_7 1_555 1_555
C33_7 C32_7 1_555 1_555
C34_7 C33_7 1_555 1_555
C35_8 C34_7 1_555 1_555
C36_8 C31_7 1_555 1_555
C37_7 C34_7 1_555 1_555
C38_8 C37_7 1_555 1_555
C40_7 C8_7 1_555 1_555
C41_7 C6_7 1_555 1_555
C42_7 C38_8 1_555 1_555
C43_8 C36_8 1_555 1_555
C44_7 C33_7 1_555 1_555
C45_8 C38_8 1_555 1_555
C46_7 C40_7 1_555 1_555
O16_5 C26_7 1_555 1_555
C35_8 C36_8 1_555 1_555
C40_7 C41_7 1_555 1_555
C41_7 C42_7 1_555 1_555
H17_7 C18_7 1_555 1_555
H18_7 C17_7 1_555 1_555
C17_7 C18_7 1_555 1_555
C24_7 C25_7 1_555 1_555
C25_7 C17_7 1_555 1_555
O4_8 C24_7 1_555 1_555
O13_3 C24_7 1_555 1_555
Zn7_3 O4_8 1_555 1_555
O8_8 Zn7_3 1_555 1_555
O8_8 H41_8 1_555 1_555
O8_8 H42_8 1_555 1_555
Zn4_2 O3_6 1_555 1_555
O7_6 Zn4_2 1_555 1_555
O7_6 H39_6 1_555 1_555
O7_6 H40_6 1_555 1_555
H1_6 C1_6 1_555 1_555
H2_7 C1_6 1_555 1_555
H3_6 C1_6 1_555 1_555
H7_7 C3_7 1_555 1_555
H8_7 C3_7 1_555 1_555
H9_6 C3_7 1_555 1_555
H10_6 C4_6 1_555 1_555
H11_6 C4_6 1_555 1_555
H12_6 C4_6 1_555 1_555
H15_6 C12_6 1_555 1_555
H16_6 C15_6 1_555 1_555
H20_7 C27_6 1_555 1_555
H21_6 C30_6 1_555 1_555
H22_6 C29_6 1_555 1_555
H25_6 C39_6 1_555 1_555
C1_6 C7_6 1_555 1_555
C3_7 C14_7 1_555 1_555
C4_6 C11_6 1_555 1_555
C7_6 C39_6 1_555 1_555
C11_6 C12_6 1_555 1_555
C12_6 C13_6 1_555 1_555
C13_6 C10_6 1_555 1_555
C14_7 C13_6 1_555 1_555
C15_6 C14_7 1_555 1_555
C16_6 C11_6 1_555 1_555
C21_6 C22_6 1_555 1_555
C22_6 C23_6 1_555 1_555
C23_6 O12_2 1_555 1_555
C27_6 C21_6 1_555 1_555
C28_6 C16_6 1_555 1_555
C29_6 C28_6 1_555 1_555
C30_6 C22_6 1_555 1_555
C39_6 C10_6 1_555 1_555
O9_2 C21_6 1_555 1_555
C15_6 C16_6 1_555 1_555
C27_6 C28_6 1_555 1_555
C29_6 C30_6 1_555 1_555
H14_8 C8_8 1_555 1_555
H17_8 C18_8 1_555 1_555
H19_8 C20_8 1_555 1_555
H23_8 C32_8 1_555 1_555
H24_9 C35_9 1_555 1_555
H27_9 C43_9 1_555 1_555
H28_9 C43_9 1_555 1_555
H29_9 C43_9 1_555 1_555
H30_8 C44_8 1_555 1_555
H31_8 C44_8 1_555 1_555
H32_8 C44_8 1_555 1_555
H36_8 C46_8 1_555 1_555
H38_8 C46_8 1_555 1_555
C8_8 C37_8 1_555 1_555
C17_8 C18_8 1_555 1_555
C18_8 C19_8 1_555 1_555
C19_8 C20_8 1_555 1_555
C20_8 C26_8 1_555 1_555
C24_8 C25_8 1_555 1_555
C25_8 C17_8 1_555 1_555
C26_8 C25_8 1_555 1_555
C31_8 C19_8 1_555 1_555
C32_8 C31_8 1_555 1_555
C33_8 C32_8 1_555 1_555
C34_8 C33_8 1_555 1_555
C35_9 C34_8 1_555 1_555
C36_9 C31_8 1_555 1_555
C37_8 C34_8 1_555 1_555
C40_8 C8_8 1_555 1_555
C43_9 C36_9 1_555 1_555
C44_8 C33_8 1_555 1_555
C46_8 C40_8 1_555 1_555
O5_3 C24_8 1_555 1_555
O6_3 C26_8 1_555 1_555
Zn8_3 O6_3 1_555 1_555
C35_9 C36_9 1_555 1_555
Zn8_3 O4_9 1_555 1_555
O8_9 Zn8_3 1_555 1_555
O14_3 Zn8_3 1_555 1_555
O16_6 Zn8_3 1_555 1_555
O8_9 H41_9 1_555 1_555
O8_9 H42_9 1_555 1_555
H17_9 C18_9 1_555 1_555
H18_9 C17_9 1_555 1_555
H23_9 C32_9 1_555 1_555
C17_9 C18_9 1_555 1_555
C18_9 C19_9 1_555 1_555
C19_9 C20_9 1_555 1_555
C20_9 C26_9 1_555 1_555
C24_9 C25_9 1_555 1_555
C25_9 C17_9 1_555 1_555
C26_9 C25_9 1_555 1_555
C31_9 C19_9 1_555 1_555
C32_9 C31_9 1_555 1_555
O14_3 C24_9 1_555 1_555
O16_6 C26_9 1_555 1_555
H21_7 C30_7 1_555 1_555
H22_7 C29_7 1_555 1_555
C22_7 C23_7 1_555 1_555
C23_7 O2_3 1_555 1_555
C30_7 C22_7 1_555 1_555
O3_7 C23_7 1_555 1_555
Zn1_3 O3_7 1_555 1_555
O7_7 Zn1_3 1_555 1_555
O10_5 Zn1_3 1_555 1_555
O11_3 Zn1_3 1_555 1_555
C29_7 C30_7 1_555 1_555
H1_7 C1_7 1_555 1_555
H2_8 C1_7 1_555 1_555
H3_7 C1_7 1_555 1_555
H4_8 C2_8 1_555 1_555
H5_8 C2_8 1_555 1_555
H7_8 C3_8 1_555 1_555
H8_8 C3_8 1_555 1_555
H9_7 C3_8 1_555 1_555
H10_7 C4_7 1_555 1_555
H11_7 C4_7 1_555 1_555
H12_7 C4_7 1_555 1_555
H15_7 C12_7 1_555 1_555
H16_7 C15_7 1_555 1_555
H20_8 C27_7 1_555 1_555
H25_7 C39_7 1_555 1_555
H26_9 C42_8 1_555 1_555
H33_8 C45_9 1_555 1_555
H34_9 C45_9 1_555 1_555
H35_9 C45_9 1_555 1_555
C1_7 C7_7 1_555 1_555
C2_8 C9_8 1_555 1_555
C3_8 C14_8 1_555 1_555
C4_7 C11_7 1_555 1_555
C5_8 C6_8 1_555 1_555
C6_8 C7_7 1_555 1_555
C7_7 C39_7 1_555 1_555
C9_8 C5_8 1_555 1_555
C10_7 C9_8 1_555 1_555
C11_7 C12_7 1_555 1_555
C12_7 C13_7 1_555 1_555
C13_7 C10_7 1_555 1_555
C14_8 C13_7 1_555 1_555
C15_7 C14_8 1_555 1_555
C16_7 C11_7 1_555 1_555
C27_7 C21_7 1_555 1_555
C28_7 C16_7 1_555 1_555
C39_7 C10_7 1_555 1_555
C41_8 C6_8 1_555 1_555
C42_8 C38_9 1_555 1_555
C45_9 C38_9 1_555 1_555
O10_5 C21_7 1_555 1_555
Zn3_3 O10_5 1_555 1_555
C15_7 C16_7 1_555 1_555
C27_7 C28_7 1_555 1_555
C41_8 C42_8 1_555 1_555
O7_8 H40_7 1_555 1_555
H10_8 C4_8 1_555 1_555
H21_8 C30_8 1_555 1_555
H22_8 C29_8 1_555 1_555
C21_8 C22_8 1_555 1_555
C22_8 C23_8 1_555 1_555
C23_8 O11_3 1_555 1_555
C27_8 C21_8 1_555 1_555
C28_8 C16_8 1_555 1_555
C29_8 C28_8 1_555 1_555
C30_8 C22_8 1_555 1_555
O3_8 C23_8 1_555 1_555
Zn3_3 O3_8 1_555 1_555
C27_8 C28_8 1_555 1_555
C29_8 C30_8 1_555 1_555
H3_8 C1_8 1_555 1_555
H4_9 C2_9 1_555 1_555
H5_9 C2_9 1_555 1_555
H6_9 C2_9 1_555 1_555
H13_9 C5_9 1_555 1_555
H14_9 C8_9 1_555 1_555
H15_8 C12_8 1_555 1_555
H31_9 C44_9 1_555 1_555
H32_9 C44_9 1_555 1_555
H36_9 C46_9 1_555 1_555
H37_9 C46_9 1_555 1_555
H38_9 C46_9 1_555 1_555
C1_8 C7_8 1_555 1_555
C2_9 C9_9 1_555 1_555
C5_9 C6_9 1_555 1_555
C6_9 C7_8 1_555 1_555
C7_8 C39_8 1_555 1_555
C8_9 C37_9 1_555 1_555
C9_9 C5_9 1_555 1_555
C10_8 C9_9 1_555 1_555
C11_8 C12_8 1_555 1_555
C12_8 C13_8 1_555 1_555
C13_8 C10_8 1_555 1_555
C34_9 C33_9 1_555 1_555
C37_9 C34_9 1_555 1_555
C39_8 C10_8 1_555 1_555
C40_9 C8_9 1_555 1_555
C41_9 C6_9 1_555 1_555
C44_9 C33_9 1_555 1_555
C46_9 C40_9 1_555 1_555
C40_9 C41_9 1_555 1_555
C41_9 C42_9 1_555 1_555
O9_3 Zn4_3 1_555 1_555
H16_8 C15_8 1_555 1_555
Zn4_3 O10_6 1_555 1_555
Zn4_3 O3_9 1_555 1_555
O7_9 Zn4_3 1_555 1_555
O7_9 H39_9 1_555 1_555
O7_9 H40_9 1_555 1_555
H1_9 C1_9 1_555 1_555
H2_9 C1_9 1_555 1_555
H3_9 C1_9 1_555 1_555
H7_9 C3_9 1_555 1_555
H8_9 C3_9 1_555 1_555
H9_9 C3_9 1_555 1_555
H10_9 C4_9 1_555 1_555
H11_9 C4_9 1_555 1_555
H12_9 C4_9 1_555 1_555
H15_9 C12_9 1_555 1_555
H16_9 C15_9 1_555 1_555
H20_9 C27_9 1_555 1_555
H21_9 C30_9 1_555 1_555
H22_9 C29_9 1_555 1_555
H25_9 C39_9 1_555 1_555
C1_9 C7_9 1_555 1_555
C3_9 C14_9 1_555 1_555
C4_9 C11_9 1_555 1_555
C7_9 C39_9 1_555 1_555
C11_9 C12_9 1_555 1_555
C12_9 C13_9 1_555 1_555
C13_9 C10_9 1_555 1_555
C14_9 C13_9 1_555 1_555
C15_9 C14_9 1_555 1_555
C16_9 C11_9 1_555 1_555
C21_9 C22_9 1_555 1_555
C22_9 C23_9 1_555 1_555
C23_9 O12_3 1_555 1_555
C27_9 C21_9 1_555 1_555
C28_9 C16_9 1_555 1_555
C29_9 C28_9 1_555 1_555
C30_9 C22_9 1_555 1_555
C39_9 C10_9 1_555 1_555
O9_3 C21_9 1_555 1_555
C15_9 C16_9 1_555 1_555
C27_9 C28_9 1_555 1_555
C29_9 C30_9 1_555 1_555

#END
