
###############################################################################
#
# This file contains modified crystal structure data generated from the
# MOF subset of the Cambridge Structural Database (CSD) v543 
# hosted by the Cambridge Crystallographic Data Centre (CCDC).
#
# This work is licensed under the Creative Commons
# Attribution-NonCommercial-ShareAlike 4.0 International License.
# To view a copy of this license, visit
# http://creativecommons.org/licenses/by-nc-sa/4.0/
# or send a letter to
# Creative Commons, PO Box 1866, Mountain View, CA 94042, USA.
#
# CIF created using the CSD Python API on 29 September 2022
# The structure has been converted into the P1 space group
# The structure has a 3D framework
# The original CSD entry RAVWES is in the rhombohedral crystal system
# The original CSD entry RAVWES is in a Sohncke space group
# The framework has been calculated to contain at least 10.0% void space
# The void calculation uses a probe of radius 1.32A, grid spacing 0.4
# H atom positions have been added when not included in the experimental data
#
###############################################################################

data_RAVWES
_chemical_formula_moiety         '(C270 H234 Mg18 O62)n'
_symmetry_cell_setting           triclinic
_symmetry_space_group_name_H-M   'P 1'
_symmetry_Int_Tables_number      1
_space_group_name_Hall           'P 1'
loop_
_symmetry_equiv_pos_site_id
_symmetry_equiv_pos_as_xyz
1 x,y,z
_cell_length_a                   55.6323
_cell_length_b                   55.6323
_cell_length_c                   6.6941
_cell_angle_alpha                90
_cell_angle_beta                 90
_cell_angle_gamma                120
_cell_volume                     17942.2
loop_
_atom_site_label
_atom_site_type_symbol
_atom_site_fract_x
_atom_site_fract_y
_atom_site_fract_z
_atom_site_U_iso_or_equiv
_atom_site_thermal_displace_type
O9 O 0.02531 0.32049 0.23916 0.0500 Uiso
O11 O 0.00043 0.34669 0.28224 0.0500 Uiso
O12 O 0.01293 0.33291 0.61558 0.0500 Uiso
Mg4 Mg 0.02229 0.34801 0.06427 0.0533 Uiso
H25 H 0.00115424 0.271137 0.384834 . .
H26 H 0.00701382 0.28359 0.609861 . .
O13 O 0.01353 0.67948 0.05345 0.0500 Uiso
Mg6 Mg 0.01412 0.65841 0.27093 0.0400 Uiso
Mg7 Mg 0.00825 0.68904 0.60427 0.0400 Uiso
H2 H 0.02921 0.48371 0.00321 0.0000 Uiso
O10 O 0.01285 0.37149 0.90582 0.0500 Uiso
H6 H 0.00993 0.41015 0.71737 0.0000 Uiso
H10 H 0.03851 0.52091 0.31557 0.0000 Uiso
C4 C 0.01587 0.49739 0.74531 0.0500 Uiso
C5 C 0.01562 0.47735 0.86833 0.0500 Uiso
C11 C 0.00516 0.38888 0.99721 0.0500 Uiso
C17 C 0.00503 0.40919 0.87914 0.0500 Uiso
C25 C 0.02074 0.52507 0.31719 0.0500 Uiso
C26 C 0.02150 0.54515 0.19206 0.0500 Uiso
C28 C 0.03438 0.52689 0.79676 0.0500 Uiso
C30 C 0.04729 0.56268 0.07968 0.0500 Uiso
H14 H 0.05055 0.53714 0.67870 0.0000 Uiso
H15 H 0.04479 0.52835 0.94210 0.0000 Uiso
H16 H 0.02188 0.53761 0.80854 0.0000 Uiso
H20 H 0.05883 0.58380 0.14924 0.0000 Uiso
H22 H 0.06067 0.55285 0.08173 0.0000 Uiso
H3 H 0.00865 0.55460 0.78852 0.0000 Uiso
H4 H 0.00949 0.59111 0.56742 0.0000 Uiso
C7 C 0.00476 0.59088 0.72897 0.0500 Uiso
C8 C 0.00437 0.57078 0.85107 0.0500 Uiso
C14 C 0.00250 0.63331 0.66292 0.0500 Uiso
O5 O 0.00867 0.63209 0.48429 0.0500 Uiso
O8 O 0.04825 0.65914 0.17351 0.0500 Uiso
H21 H 0.04195 0.56469 0.92282 0.0000 Uiso
O16 O 0.03832 0.69104 0.42920 0.0500 Uiso
H23 H 0.0436544 0.640153 0.132715 . .
H24 H 0.0558327 0.67185 0.0571673 . .
H1 H 0.21167 0.84616 0.73787 0.0000 Uiso
H3_2 H 0.11206 0.78738 0.12186 0.0000 Uiso
H5 H 0.07719 0.73097 0.61809 0.0000 Uiso
H9 H 0.12866 0.75359 0.63888 0.0000 Uiso
H10_2 H 0.14575 0.85093 0.64891 0.0000 Uiso
C1 C 0.22529 0.87338 0.99463 0.0500 Uiso
C2 C 0.20529 0.85354 0.87179 0.0500 Uiso
C3 C 0.17717 0.84251 0.91187 0.0500 Uiso
C7_2 C 0.07578 0.74721 0.06231 0.0500 Uiso
C8_2 C 0.09588 0.76692 0.18441 0.0500 Uiso
C9 C 0.09622 0.76163 0.38414 0.0500 Uiso
C10 C 0.07668 0.73599 0.45795 0.0500 Uiso
C15 C 0.05539 0.72143 0.13514 0.0500 Uiso
C16 C 0.05620 0.71601 0.33863 0.0500 Uiso
C21 C 0.11706 0.78266 0.51693 0.0500 Uiso
C22 C 0.13209 0.77525 0.64256 0.0500 Uiso
C23 C 0.15139 0.79428 0.77341 0.0500 Uiso
C24 C 0.15651 0.82157 0.77697 0.0500 Uiso
C25_2 C 0.14159 0.82900 0.65053 0.0500 Uiso
C26_2 C 0.12151 0.80968 0.52540 0.0500 Uiso
C27 C 0.25494 0.88405 0.94826 0.0500 Uiso
C29 C 0.16540 0.78463 0.91195 0.0500 Uiso
C30_2 C 0.10398 0.81794 0.41302 0.0500 Uiso
H12 H 0.26032 0.89593 0.80565 0.0000 Uiso
H13 H 0.25883 0.86618 0.93352 0.0000 Uiso
H17 H 0.17281 0.77208 0.82908 0.0000 Uiso
H19 H 0.18359 0.80304 0.98176 0.0000 Uiso
H20_2 H 0.08286 0.80836 0.48258 0.0000 Uiso
H21_2 H 0.10197 0.81059 0.25616 0.0000 Uiso
H22_2 H 0.11381 0.84115 0.41507 0.0000 Uiso
H4_2 H 0.07555 0.75171 0.90076 0.0000 Uiso
C14_2 C 0.03335 0.70252 0.99626 0.0500 Uiso
O5_2 O 0.03457 0.70991 0.81763 0.0500 Uiso
O8_2 O 0.00752 0.72244 0.50685 0.0500 Uiso
H23_2 H 0.0265132 0.736834 0.466049 . .
O1 O 0.05515 0.38271 0.16052 0.0500 Uiso
H25_2 H 0.0621964 0.396684 0.0515004 . .
H26_2 H 0.0497438 0.390091 0.276528 . .
H2_2 H 0.12117 0.30413 0.33655 0.0000 Uiso
H6_2 H 0.06689 0.32341 0.05071 0.0000 Uiso
H7 H 0.08528 0.34412 0.77174 0.0000 Uiso
H8 H 0.12156 0.34402 0.55410 0.0000 Uiso
C4_2 C 0.14819 0.31747 0.07865 0.0500 Uiso
C5_2 C 0.12840 0.31772 0.20167 0.0500 Uiso
C6 C 0.11734 0.33464 0.16002 0.0500 Uiso
C11_2 C 0.05039 0.32818 0.33055 0.0500 Uiso
C12 C 0.05542 0.33408 0.53478 0.0500 Uiso
C13 C 0.03618 0.33674 0.67301 0.0500 Uiso
C17_2 C 0.07083 0.32831 0.21248 0.0500 Uiso
C18 C 0.09626 0.33439 0.28980 0.0500 Uiso
C19 C 0.10120 0.33968 0.48930 0.0500 Uiso
C20 C 0.08114 0.33963 0.60964 0.0500 Uiso
O4 O 0.04351 0.34311 0.85149 0.0500 Uiso
C28_2 C 0.15918 0.29896 0.13010 0.0500 Uiso
H11 H 0.10189 0.37003 0.07046 0.0000 Uiso
H14_2 H 0.15326 0.28279 0.01204 0.0000 Uiso
H15_2 H 0.15023 0.28855 0.27544 0.0000 Uiso
H16_2 H 0.18240 0.31146 0.14188 0.0000 Uiso
H18 H 0.22855 0.37896 0.03004 0.0000 Uiso
H7_2 H 0.92550 0.24805 0.10507 0.0000 Uiso
C13_2 C 0.96722 0.29715 0.00634 0.0500 Uiso
O1_2 O 0.99422 0.27818 0.49385 0.0500 Uiso
O4_2 O 0.96626 0.28982 0.18482 0.0500 Uiso
Mg1 Mg 0.99238 0.31104 0.39760 0.0533 Uiso
O10_2 O 0.96184 0.30802 0.57249 0.0500 Uiso
H1_2 H 0.87834 0.17949 0.07120 0.0000 Uiso
H2_3 H 0.84962 0.21216 0.66988 0.0000 Uiso
H6_3 H 0.92318 0.26644 0.38404 0.0000 Uiso
H8_2 H 0.88912 0.21177 0.88743 0.0000 Uiso
C1_2 C 0.89196 0.20671 0.32796 0.0500 Uiso
C2_2 C 0.87196 0.18687 0.20512 0.0500 Uiso
C3_2 C 0.84384 0.17584 0.24520 0.0500 Uiso
C4_3 C 0.83594 0.18514 0.41198 0.0500 Uiso
C5_3 C 0.85598 0.20493 0.53500 0.0500 Uiso
C6_2 C 0.88396 0.21599 0.49335 0.0500 Uiso
C11_3 C 0.94445 0.28294 0.66388 0.0500 Uiso
C12_2 C 0.94532 0.27791 0.86811 0.0500 Uiso
C17_3 C 0.92414 0.26250 0.54581 0.0500 Uiso
C18_2 C 0.90479 0.23707 0.62313 0.0500 Uiso
C19_2 C 0.90514 0.23213 0.82263 0.0500 Uiso
C20_2 C 0.92515 0.25219 0.94297 0.0500 Uiso
C23_2 C 0.81806 0.12761 0.10674 0.0500 Uiso
C24_2 C 0.82318 0.15490 0.11030 0.0500 Uiso
O3 O 0.98664 0.32040 0.94891 0.0500 Uiso
C27_2 C 0.92161 0.21738 0.28159 0.0500 Uiso
C28_3 C 0.80644 0.17415 0.46343 0.0500 Uiso
C29_2 C 0.83207 0.11796 0.24528 0.0500 Uiso
H11_2 H 0.93480 0.23144 0.40379 0.0000 Uiso
H12_2 H 0.92699 0.22926 0.13898 0.0000 Uiso
H13_2 H 0.92550 0.19951 0.26685 0.0000 Uiso
H14_3 H 0.79619 0.18007 0.34537 0.0000 Uiso
H15_3 H 0.80498 0.18310 0.60877 0.0000 Uiso
H16_3 H 0.79572 0.15093 0.47521 0.0000 Uiso
H17_2 H 0.83948 0.10541 0.16241 0.0000 Uiso
H18_2 H 0.81707 0.10478 0.36337 0.0000 Uiso
H19_2 H 0.85026 0.13637 0.31509 0.0000 Uiso
Mg3 Mg 0.98533 0.34095 0.73093 0.0533 Uiso
H3_3 H 0.87929 0.65802 0.45519 0.0000 Uiso
H4_3 H 0.91496 0.65718 0.23409 0.0000 Uiso
H5_2 H 0.93570 0.67956 0.95142 0.0000 Uiso
H9_2 H 0.91308 0.70841 0.97221 0.0000 Uiso
H10_3 H 0.81574 0.62816 0.98224 0.0000 Uiso
C7_3 C 0.91946 0.66191 0.39564 0.0500 Uiso
C8_3 C 0.89975 0.66230 0.51774 0.0500 Uiso
C9_2 C 0.90504 0.66793 0.71747 0.0500 Uiso
C10_2 C 0.93068 0.67403 0.79128 0.0500 Uiso
C14_3 C 0.96415 0.66417 0.32959 0.0500 Uiso
C15_2 C 0.94524 0.66730 0.46847 0.0500 Uiso
C16_2 C 0.95066 0.67353 0.67196 0.0500 Uiso
C21_2 C 0.88401 0.66774 0.85026 0.0500 Uiso
C22_2 C 0.89142 0.69018 0.97589 0.0500 Uiso
C25_3 C 0.83767 0.64593 0.98386 0.0500 Uiso
C26_3 C 0.85699 0.64517 0.85873 0.0500 Uiso
O5_3 O 0.95676 0.65800 0.15096 0.0500 Uiso
O6 O 0.98719 0.66739 0.38678 0.0500 Uiso
O7 O 0.97563 0.68062 0.76253 0.0500 Uiso
C30_3 C 0.84873 0.61938 0.74635 0.0500 Uiso
H20_3 H 0.85831 0.60784 0.81591 0.0000 Uiso
H21_3 H 0.85608 0.62472 0.58949 0.0000 Uiso
H22_3 H 0.82552 0.60600 0.74840 0.0000 Uiso
O16_2 O 0.98605 0.62834 0.09586 0.0500 Uiso
Mg8 Mg 0.97763 0.65255 0.93760 0.0400 Uiso
O8_3 O 0.94423 0.61842 0.84018 0.0500 Uiso
O14 O 0.99928 0.65313 0.72011 0.0500 Uiso
H23_3 H 0.929832 0.623012 0.799382 . .
H24_2 H 0.94935 0.610834 0.723834 . .
H7_3 H 0.98922 0.40783 0.43840 0.0000 Uiso
H8_3 H 0.98932 0.44421 0.22076 0.0000 Uiso
C12_3 C 0.99926 0.38801 0.20144 0.0500 Uiso
C13_3 C 0.99660 0.36611 0.33967 0.0500 Uiso
C19_3 C 0.99366 0.42819 0.15596 0.0500 Uiso
C20_3 C 0.99371 0.40818 0.27630 0.0500 Uiso
O1_3 O 0.95063 0.33911 0.82718 0.0500 Uiso
O4_3 O 0.99023 0.36707 0.51815 0.0500 Uiso
H25_3 H 0.936649 0.332179 0.718167 . .
H26_3 H 0.943242 0.32632 0.943194 . .
H1_3 H 0.96782 0.45499 0.40453 0.0000 Uiso
H5_3 H 0.98711 0.58947 0.28475 0.0000 Uiso
H9_3 H 0.95826 0.53800 0.30554 0.0000 Uiso
C1_3 C 0.98142 0.44137 0.66129 0.0500 Uiso
C2_3 C 0.98158 0.46137 0.53845 0.0500 Uiso
C3_3 C 0.99867 0.48949 0.57853 0.0500 Uiso
C6_3 C 0.99870 0.44937 0.82668 0.0500 Uiso
C9_3 C 0.99874 0.57044 0.05080 0.0500 Uiso
C10_3 C 0.99264 0.58998 0.12461 0.0500 Uiso
C16_3 C 0.99314 0.61046 0.00529 0.0500 Uiso
C18_3 C 0.99895 0.42854 0.95646 0.0500 Uiso
C21_3 C 0.99893 0.54960 0.18359 0.0500 Uiso
C22_3 C 0.97649 0.53457 0.30922 0.0500 Uiso
C23_3 C 0.97622 0.51527 0.44007 0.0500 Uiso
C24_3 C 0.99839 0.51015 0.44363 0.0500 Uiso
C27_3 C 0.96244 0.41172 0.61492 0.0500 Uiso
C29_3 C 0.95256 0.50126 0.57861 0.0500 Uiso
H11_3 H 0.96331 0.39853 0.73712 0.0000 Uiso
H12_3 H 0.96894 0.40634 0.47231 0.0000 Uiso
H13_3 H 0.94068 0.40783 0.60018 0.0000 Uiso
H17_3 H 0.93260 0.49385 0.49574 0.0000 Uiso
H18_3 H 0.95438 0.51626 0.69670 0.0000 Uiso
H19_3 H 0.95278 0.48307 0.64842 0.0000 Uiso
C15_3 C 0.99937 0.61127 0.80180 0.0500 Uiso
H24_3 H 0.994817 0.717316 0.390501 . .
H3_4 H 0.77873 0.12071 0.45519 0.0000 Uiso
H4_4 H 0.74222 0.08504 0.23409 0.0000 Uiso
H5_4 H 0.74386 0.06430 0.95142 0.0000 Uiso
H9_4 H 0.79533 0.08692 0.97221 0.0000 Uiso
H10_4 H 0.81242 0.18426 0.98224 0.0000 Uiso
C7_4 C 0.74245 0.08054 0.39564 0.0500 Uiso
C8_4 C 0.76255 0.10025 0.51774 0.0500 Uiso
C9_4 C 0.76289 0.09496 0.71747 0.0500 Uiso
C10_4 C 0.74335 0.06932 0.79128 0.0500 Uiso
C14_4 C 0.70002 0.03585 0.32959 0.0500 Uiso
C15_4 C 0.72206 0.05476 0.46847 0.0500 Uiso
C16_4 C 0.72287 0.04934 0.67196 0.0500 Uiso
C21_4 C 0.78373 0.11599 0.85026 0.0500 Uiso
C22_4 C 0.79876 0.10858 0.97589 0.0500 Uiso
C25_4 C 0.80826 0.16233 0.98386 0.0500 Uiso
C26_4 C 0.78818 0.14301 0.85873 0.0500 Uiso
O5_4 O 0.70124 0.04324 0.15096 0.0500 Uiso
O6_2 O 0.68020 0.01281 0.38678 0.0500 Uiso
O7_2 O 0.70499 0.02437 0.76253 0.0500 Uiso
C30_4 C 0.77065 0.15127 0.74635 0.0500 Uiso
H20_4 H 0.74953 0.14169 0.81591 0.0000 Uiso
H21_4 H 0.76864 0.14392 0.58949 0.0000 Uiso
H22_4 H 0.78048 0.17448 0.74840 0.0000 Uiso
O16_3 O 0.64230 0.01395 0.09586 0.0500 Uiso
Mg8_2 Mg 0.67492 0.02237 0.93760 0.0400 Uiso
O8_4 O 0.67419 0.05577 0.84018 0.0500 Uiso
O14_2 O 0.65386 0.00072 0.72011 0.0500 Uiso
H23_4 H 0.69318 0.0701677 0.799382 . .
H24_4 H 0.661484 0.0506496 0.723834 . .
H7_4 H 0.32255 0.07450 0.10507 0.0000 Uiso
C13_4 C 0.32993 0.03278 0.00634 0.0500 Uiso
O1_4 O 0.28396 0.00578 0.49385 0.0500 Uiso
O4_4 O 0.32356 0.03374 0.18482 0.0500 Uiso
Mg1_2 Mg 0.31866 0.00762 0.39760 0.0533 Uiso
O10_3 O 0.34618 0.03816 0.57249 0.0500 Uiso
H1_4 H 0.30115 0.12166 0.07120 0.0000 Uiso
H2_4 H 0.36254 0.15038 0.66988 0.0000 Uiso
H6_4 H 0.34326 0.07682 0.38404 0.0000 Uiso
H8_4 H 0.32265 0.11088 0.88743 0.0000 Uiso
C1_4 C 0.31475 0.10804 0.32796 0.0500 Uiso
C2_4 C 0.31491 0.12804 0.20512 0.0500 Uiso
C3_4 C 0.33200 0.15616 0.24520 0.0500 Uiso
C4_4 C 0.34920 0.16406 0.41198 0.0500 Uiso
C5_4 C 0.34895 0.14402 0.53500 0.0500 Uiso
C6_4 C 0.33203 0.11604 0.49335 0.0500 Uiso
C11_4 C 0.33849 0.05555 0.66388 0.0500 Uiso
C12_4 C 0.33259 0.05468 0.86811 0.0500 Uiso
C17_4 C 0.33836 0.07586 0.54581 0.0500 Uiso
C18_4 C 0.33228 0.09521 0.62313 0.0500 Uiso
C19_4 C 0.32699 0.09486 0.82263 0.0500 Uiso
C20_4 C 0.32704 0.07485 0.94297 0.0500 Uiso
C23_4 C 0.30955 0.18194 0.10674 0.0500 Uiso
C24_4 C 0.33172 0.17682 0.11030 0.0500 Uiso
O3_2 O 0.33376 0.01336 0.94891 0.0500 Uiso
C27_4 C 0.29577 0.07839 0.28159 0.0500 Uiso
C28_4 C 0.36771 0.19356 0.46343 0.0500 Uiso
C29_4 C 0.28589 0.16793 0.24528 0.0500 Uiso
H11_4 H 0.29664 0.06520 0.40379 0.0000 Uiso
H12_4 H 0.30227 0.07301 0.13898 0.0000 Uiso
H13_4 H 0.27401 0.07450 0.26685 0.0000 Uiso
H14_4 H 0.38388 0.20381 0.34537 0.0000 Uiso
H15_4 H 0.37812 0.19502 0.60877 0.0000 Uiso
H16_4 H 0.35521 0.20428 0.47521 0.0000 Uiso
H17_4 H 0.26593 0.16052 0.16241 0.0000 Uiso
H18_4 H 0.28771 0.18293 0.36337 0.0000 Uiso
H19_4 H 0.28611 0.14974 0.31509 0.0000 Uiso
Mg3_2 Mg 0.35563 0.01467 0.73093 0.0533 Uiso
H7_5 H 0.41862 0.01078 0.43840 0.0000 Uiso
H8_5 H 0.45490 0.01068 0.22076 0.0000 Uiso
C12_5 C 0.38876 0.00074 0.20144 0.0500 Uiso
C13_5 C 0.36952 0.00340 0.33967 0.0500 Uiso
C19_5 C 0.43454 0.00634 0.15596 0.0500 Uiso
C20_5 C 0.41448 0.00629 0.27630 0.0500 Uiso
O1_5 O 0.38849 0.04937 0.82718 0.0500 Uiso
O4_5 O 0.37685 0.00977 0.51815 0.0500 Uiso
H25_4 H 0.39553 0.0633506 0.718167 . .
H26_4 H 0.383077 0.0567576 0.943194 . .
H1_5 H 0.48718 0.03218 0.40453 0.0000 Uiso
H5_5 H 0.60237 0.01289 0.28475 0.0000 Uiso
H9_5 H 0.57975 0.04174 0.30554 0.0000 Uiso
C1_5 C 0.45996 0.01858 0.66129 0.0500 Uiso
C2_5 C 0.47980 0.01842 0.53845 0.0500 Uiso
C3_5 C 0.49083 0.00133 0.57853 0.0500 Uiso
C6_5 C 0.45068 0.00130 0.82668 0.0500 Uiso
C9_5 C 0.57171 0.00126 0.05080 0.0500 Uiso
C10_5 C 0.59735 0.00736 0.12461 0.0500 Uiso
C16_5 C 0.61733 0.00686 0.00529 0.0500 Uiso
C18_5 C 0.42960 0.00105 0.95646 0.0500 Uiso
C21_5 C 0.55068 0.00107 0.18359 0.0500 Uiso
C22_5 C 0.55809 0.02351 0.30922 0.0500 Uiso
C23_5 C 0.53906 0.02378 0.44007 0.0500 Uiso
C24_5 C 0.51177 0.00161 0.44363 0.0500 Uiso
C27_5 C 0.44929 0.03756 0.61492 0.0500 Uiso
C29_5 C 0.54871 0.04744 0.57861 0.0500 Uiso
H11_5 H 0.43523 0.03669 0.73712 0.0000 Uiso
H12_5 H 0.43741 0.03106 0.47231 0.0000 Uiso
H13_5 H 0.46716 0.05932 0.60018 0.0000 Uiso
H17_5 H 0.56126 0.06740 0.49574 0.0000 Uiso
H18_5 H 0.56189 0.04562 0.69670 0.0000 Uiso
H19_5 H 0.53030 0.04722 0.64842 0.0000 Uiso
C15_5 C 0.61191 0.00063 0.80180 0.0500 Uiso
H24_5 H 0.722499 0.00518306 0.390501 . .
O13_2 O 0.66594 0.98647 0.05345 0.0500 Uiso
Mg6_2 Mg 0.64430 0.98588 0.27093 0.0400 Uiso
Mg7_2 Mg 0.68078 0.99175 0.60427 0.0400 Uiso
O9_2 O 0.29517 0.97469 0.23916 0.0500 Uiso
O11_2 O 0.34627 0.99957 0.28224 0.0500 Uiso
O12_2 O 0.31997 0.98707 0.61558 0.0500 Uiso
Mg4_2 Mg 0.32571 0.97771 0.06427 0.0533 Uiso
H25_5 H 0.269983 0.998846 0.384834 . .
H26_5 H 0.276576 0.992986 0.609861 . .
H2_5 H 0.45451 0.97079 0.00321 0.0000 Uiso
O10_4 O 0.35865 0.98715 0.90582 0.0500 Uiso
H6_5 H 0.40023 0.99007 0.71737 0.0000 Uiso
H10_5 H 0.48241 0.96149 0.31557 0.0000 Uiso
C4_5 C 0.48153 0.98413 0.74531 0.0500 Uiso
C5_5 C 0.46174 0.98438 0.86833 0.0500 Uiso
C11_5 C 0.38373 0.99484 0.99721 0.0500 Uiso
C17_5 C 0.40417 0.99497 0.87914 0.0500 Uiso
C25_5 C 0.50434 0.97926 0.31719 0.0500 Uiso
C26_5 C 0.52366 0.97850 0.19206 0.0500 Uiso
C28_5 C 0.49252 0.96562 0.79676 0.0500 Uiso
C30_5 C 0.51540 0.95271 0.07968 0.0500 Uiso
H14_5 H 0.48660 0.94945 0.67870 0.0000 Uiso
H15_5 H 0.48357 0.95521 0.94210 0.0000 Uiso
H16_5 H 0.51574 0.97812 0.80854 0.0000 Uiso
H20_5 H 0.52498 0.94117 0.14924 0.0000 Uiso
H22_5 H 0.49219 0.93933 0.08173 0.0000 Uiso
H3_5 H 0.54596 0.99135 0.78852 0.0000 Uiso
H4_5 H 0.58163 0.99051 0.56742 0.0000 Uiso
C7_5 C 0.58613 0.99524 0.72897 0.0500 Uiso
C8_5 C 0.56642 0.99563 0.85107 0.0500 Uiso
C14_5 C 0.63082 0.99750 0.66292 0.0500 Uiso
O5_5 O 0.62343 0.99133 0.48429 0.0500 Uiso
O8_5 O 0.61090 0.95175 0.17351 0.0500 Uiso
H21_5 H 0.52275 0.95805 0.92282 0.0000 Uiso
O16_4 O 0.65271 0.96168 0.42920 0.0500 Uiso
H23_5 H 0.596499 0.956346 0.132715 . .
H24_6 H 0.616017 0.944167 0.0571673 . .
O1_6 O 0.32755 0.94485 0.16052 0.0500 Uiso
H25_6 H 0.334488 0.937804 0.0515004 . .
H26_6 H 0.340347 0.950256 0.276528 . .
H2_6 H 0.18295 0.87883 0.33655 0.0000 Uiso
H6_6 H 0.25651 0.93311 0.05071 0.0000 Uiso
H7_6 H 0.25883 0.91472 0.77174 0.0000 Uiso
H8_6 H 0.22245 0.87844 0.55410 0.0000 Uiso
C4_6 C 0.16927 0.85181 0.07865 0.0500 Uiso
C5_6 C 0.18931 0.87160 0.20167 0.0500 Uiso
C6_6 C 0.21729 0.88266 0.16002 0.0500 Uiso
C11_6 C 0.27778 0.94961 0.33055 0.0500 Uiso
C12_6 C 0.27865 0.94458 0.53478 0.0500 Uiso
C13_6 C 0.30055 0.96382 0.67301 0.0500 Uiso
C17_6 C 0.25747 0.92917 0.21248 0.0500 Uiso
C18_6 C 0.23812 0.90374 0.28980 0.0500 Uiso
C19_6 C 0.23847 0.89880 0.48930 0.0500 Uiso
C20_6 C 0.25848 0.91886 0.60964 0.0500 Uiso
O4_6 O 0.29959 0.95649 0.85149 0.0500 Uiso
C28_6 C 0.13977 0.84082 0.13010 0.0500 Uiso
H11_6 H 0.26813 0.89811 0.07046 0.0000 Uiso
H14_6 H 0.12952 0.84674 0.01204 0.0000 Uiso
H15_6 H 0.13831 0.84977 0.27544 0.0000 Uiso
H16_6 H 0.12905 0.81760 0.14188 0.0000 Uiso
H18_6 H 0.15040 0.77145 0.03004 0.0000 Uiso
H1_6 H 0.63448 0.78833 0.73787 0.0000 Uiso
H3_6 H 0.67531 0.88794 0.12186 0.0000 Uiso
H5_6 H 0.65377 0.92281 0.61809 0.0000 Uiso
H9_6 H 0.62492 0.87134 0.63888 0.0000 Uiso
H10_6 H 0.70517 0.85425 0.64891 0.0000 Uiso
C1_6 C 0.64808 0.77471 0.99463 0.0500 Uiso
C2_6 C 0.64824 0.79471 0.87179 0.0500 Uiso
C3_6 C 0.66533 0.82283 0.91187 0.0500 Uiso
C7_6 C 0.67142 0.92422 0.06231 0.0500 Uiso
C8_6 C 0.67103 0.90412 0.18441 0.0500 Uiso
C9_6 C 0.66540 0.90378 0.38414 0.0500 Uiso
C10_6 C 0.65930 0.92332 0.45795 0.0500 Uiso
C15_6 C 0.66603 0.94461 0.13514 0.0500 Uiso
C16_6 C 0.65980 0.94380 0.33863 0.0500 Uiso
C21_6 C 0.66559 0.88294 0.51693 0.0500 Uiso
C22_6 C 0.64315 0.86791 0.64256 0.0500 Uiso
C23_6 C 0.64288 0.84861 0.77341 0.0500 Uiso
C24_6 C 0.66505 0.84349 0.77697 0.0500 Uiso
C25_6 C 0.68740 0.85841 0.65053 0.0500 Uiso
C26_6 C 0.68816 0.87849 0.52540 0.0500 Uiso
C27_6 C 0.62910 0.74506 0.94826 0.0500 Uiso
C29_6 C 0.61922 0.83460 0.91195 0.0500 Uiso
C30_6 C 0.71395 0.89602 0.41302 0.0500 Uiso
H12_6 H 0.63560 0.73968 0.80565 0.0000 Uiso
H13_6 H 0.60734 0.74117 0.93352 0.0000 Uiso
H17_6 H 0.59926 0.82719 0.82908 0.0000 Uiso
H19_6 H 0.61944 0.81641 0.98176 0.0000 Uiso
H20_6 H 0.72549 0.91714 0.48258 0.0000 Uiso
H21_6 H 0.70861 0.89803 0.25616 0.0000 Uiso
H22_6 H 0.72733 0.88619 0.41507 0.0000 Uiso
H4_6 H 0.67615 0.92445 0.90076 0.0000 Uiso
C14_6 C 0.66916 0.96665 0.99626 0.0500 Uiso
O5_6 O 0.67533 0.96543 0.81763 0.0500 Uiso
O8_6 O 0.71491 0.99248 0.50685 0.0500 Uiso
H23_6 H 0.710321 0.973487 0.466049 . .
H7_7 H 0.75195 0.67745 0.10507 0.0000 Uiso
C13_7 C 0.70285 0.67007 0.00634 0.0500 Uiso
O1_7 O 0.72182 0.71604 0.49385 0.0500 Uiso
O4_7 O 0.71018 0.67644 0.18482 0.0500 Uiso
Mg1_3 Mg 0.68896 0.68134 0.39760 0.0533 Uiso
O9_3 O 0.67951 0.70483 0.23916 0.0500 Uiso
O10_5 O 0.69198 0.65382 0.57249 0.0500 Uiso
O11_3 O 0.65331 0.65373 0.28224 0.0500 Uiso
O12_3 O 0.66709 0.68003 0.61558 0.0500 Uiso
Mg4_3 Mg 0.65199 0.67429 0.06427 0.0533 Uiso
H25_7 H 0.728863 0.730017 0.384834 . .
H26_7 H 0.71641 0.723424 0.609861 . .
H1_7 H 0.82051 0.69885 0.07120 0.0000 Uiso
H2_7 H 0.78784 0.63746 0.66988 0.0000 Uiso
H6_7 H 0.73356 0.65674 0.38404 0.0000 Uiso
H8_7 H 0.78823 0.67735 0.88743 0.0000 Uiso
C1_7 C 0.79329 0.68525 0.32796 0.0500 Uiso
C2_7 C 0.81313 0.68509 0.20512 0.0500 Uiso
C3_7 C 0.82416 0.66800 0.24520 0.0500 Uiso
C4_7 C 0.81486 0.65080 0.41198 0.0500 Uiso
C5_7 C 0.79507 0.65105 0.53500 0.0500 Uiso
C6_7 C 0.78401 0.66797 0.49335 0.0500 Uiso
C11_7 C 0.71706 0.66151 0.66388 0.0500 Uiso
C12_7 C 0.72209 0.66741 0.86811 0.0500 Uiso
C17_7 C 0.73750 0.66164 0.54581 0.0500 Uiso
C18_7 C 0.76293 0.66772 0.62313 0.0500 Uiso
C19_7 C 0.76787 0.67301 0.82263 0.0500 Uiso
C20_7 C 0.74781 0.67296 0.94297 0.0500 Uiso
C23_7 C 0.87239 0.69045 0.10674 0.0500 Uiso
C24_7 C 0.84510 0.66828 0.11030 0.0500 Uiso
O3_3 O 0.67960 0.66624 0.94891 0.0500 Uiso
C27_7 C 0.78262 0.70423 0.28159 0.0500 Uiso
C28_7 C 0.82585 0.63229 0.46343 0.0500 Uiso
C29_7 C 0.88204 0.71411 0.24528 0.0500 Uiso
H11_7 H 0.76856 0.70336 0.40379 0.0000 Uiso
H12_7 H 0.77074 0.69773 0.13898 0.0000 Uiso
H13_7 H 0.80049 0.72599 0.26685 0.0000 Uiso
H14_7 H 0.81993 0.61612 0.34537 0.0000 Uiso
H15_7 H 0.81690 0.62188 0.60877 0.0000 Uiso
H16_7 H 0.84907 0.64479 0.47521 0.0000 Uiso
H17_7 H 0.89459 0.73407 0.16241 0.0000 Uiso
H18_7 H 0.89522 0.71229 0.36337 0.0000 Uiso
H19_7 H 0.86363 0.71389 0.31509 0.0000 Uiso
Mg3_3 Mg 0.65905 0.64437 0.73093 0.0533 Uiso
H3_7 H 0.34198 0.22127 0.45519 0.0000 Uiso
H4_7 H 0.34282 0.25778 0.23409 0.0000 Uiso
H5_7 H 0.32044 0.25614 0.95142 0.0000 Uiso
H9_7 H 0.29159 0.20467 0.97221 0.0000 Uiso
H10_7 H 0.37184 0.18758 0.98224 0.0000 Uiso
C7_7 C 0.33809 0.25755 0.39564 0.0500 Uiso
C8_7 C 0.33770 0.23745 0.51774 0.0500 Uiso
C9_7 C 0.33207 0.23711 0.71747 0.0500 Uiso
C10_7 C 0.32597 0.25665 0.79128 0.0500 Uiso
C14_7 C 0.33583 0.29998 0.32959 0.0500 Uiso
C15_7 C 0.33270 0.27794 0.46847 0.0500 Uiso
C16_7 C 0.32647 0.27713 0.67196 0.0500 Uiso
C21_7 C 0.33226 0.21627 0.85026 0.0500 Uiso
C22_7 C 0.30982 0.20124 0.97589 0.0500 Uiso
C25_7 C 0.35407 0.19174 0.98386 0.0500 Uiso
C26_7 C 0.35483 0.21182 0.85873 0.0500 Uiso
O5_7 O 0.34200 0.29876 0.15096 0.0500 Uiso
O6_3 O 0.33261 0.31980 0.38678 0.0500 Uiso
O7_3 O 0.31938 0.29501 0.76253 0.0500 Uiso
C30_7 C 0.38062 0.22935 0.74635 0.0500 Uiso
H20_7 H 0.39216 0.25047 0.81591 0.0000 Uiso
H21_7 H 0.37528 0.23136 0.58949 0.0000 Uiso
H22_7 H 0.39400 0.21952 0.74840 0.0000 Uiso
O13_3 O 0.32052 0.33406 0.05345 0.0500 Uiso
O16_5 O 0.37166 0.35770 0.09586 0.0500 Uiso
Mg6_3 Mg 0.34159 0.35570 0.27093 0.0400 Uiso
Mg7_3 Mg 0.31096 0.31922 0.60427 0.0400 Uiso
Mg8_3 Mg 0.34745 0.32508 0.93760 0.0400 Uiso
O8_7 O 0.38158 0.32581 0.84018 0.0500 Uiso
O14_3 O 0.34687 0.34614 0.72011 0.0500 Uiso
H23_7 H 0.376988 0.30682 0.799382 . .
H24_7 H 0.389166 0.338516 0.723834 . .
H2_8 H 0.51629 0.54549 0.00321 0.0000 Uiso
H7_8 H 0.59217 0.58138 0.43840 0.0000 Uiso
H8_8 H 0.55579 0.54510 0.22076 0.0000 Uiso
C12_8 C 0.61199 0.61124 0.20144 0.0500 Uiso
C13_8 C 0.63389 0.63048 0.33967 0.0500 Uiso
C19_8 C 0.57181 0.56546 0.15596 0.0500 Uiso
C20_8 C 0.59182 0.58552 0.27630 0.0500 Uiso
O1_8 O 0.66089 0.61151 0.82718 0.0500 Uiso
O4_8 O 0.63293 0.62315 0.51815 0.0500 Uiso
O10_6 O 0.62851 0.64135 0.90582 0.0500 Uiso
H25_8 H 0.667821 0.60447 0.718167 . .
H26_8 H 0.67368 0.616923 0.943194 . .
H1_8 H 0.54501 0.51282 0.40453 0.0000 Uiso
H5_8 H 0.41053 0.39763 0.28475 0.0000 Uiso
H6_8 H 0.58985 0.59977 0.71737 0.0000 Uiso
H9_8 H 0.46200 0.42025 0.30554 0.0000 Uiso
H10_8 H 0.47909 0.51759 0.31557 0.0000 Uiso
C1_8 C 0.55863 0.54004 0.66129 0.0500 Uiso
C2_8 C 0.53863 0.52020 0.53845 0.0500 Uiso
C3_8 C 0.51051 0.50917 0.57853 0.0500 Uiso
C4_8 C 0.50261 0.51847 0.74531 0.0500 Uiso
C5_8 C 0.52265 0.53826 0.86833 0.0500 Uiso
C6_8 C 0.55063 0.54932 0.82668 0.0500 Uiso
C9_8 C 0.42956 0.42829 0.05080 0.0500 Uiso
C10_8 C 0.41002 0.40265 0.12461 0.0500 Uiso
C11_8 C 0.61112 0.61627 0.99721 0.0500 Uiso
C16_8 C 0.38954 0.38267 0.00529 0.0500 Uiso
C17_8 C 0.59081 0.59583 0.87914 0.0500 Uiso
C18_8 C 0.57146 0.57040 0.95646 0.0500 Uiso
C21_8 C 0.45040 0.44932 0.18359 0.0500 Uiso
C22_8 C 0.46543 0.44191 0.30922 0.0500 Uiso
C23_8 C 0.48473 0.46094 0.44007 0.0500 Uiso
C24_8 C 0.48985 0.48823 0.44363 0.0500 Uiso
C25_8 C 0.47493 0.49566 0.31719 0.0500 Uiso
C26_8 C 0.45485 0.47634 0.19206 0.0500 Uiso
C27_8 C 0.58828 0.55071 0.61492 0.0500 Uiso
C28_8 C 0.47311 0.50748 0.79676 0.0500 Uiso
C29_8 C 0.49874 0.45129 0.57861 0.0500 Uiso
C30_8 C 0.43732 0.48460 0.07968 0.0500 Uiso
H11_8 H 0.60147 0.56477 0.73712 0.0000 Uiso
H12_8 H 0.59366 0.56259 0.47231 0.0000 Uiso
H13_8 H 0.59217 0.53284 0.60018 0.0000 Uiso
H14_8 H 0.46286 0.51340 0.67870 0.0000 Uiso
H15_8 H 0.47165 0.51643 0.94210 0.0000 Uiso
H16_8 H 0.46239 0.48426 0.80854 0.0000 Uiso
H17_8 H 0.50615 0.43874 0.49574 0.0000 Uiso
H18_8 H 0.48374 0.43811 0.69670 0.0000 Uiso
H19_8 H 0.51693 0.46970 0.64842 0.0000 Uiso
H20_8 H 0.41620 0.47502 0.14924 0.0000 Uiso
H22_8 H 0.44715 0.50781 0.08173 0.0000 Uiso
H3_8 H 0.44540 0.45404 0.78852 0.0000 Uiso
H4_8 H 0.40889 0.41837 0.56742 0.0000 Uiso
C7_8 C 0.40912 0.41387 0.72897 0.0500 Uiso
C8_8 C 0.42922 0.43358 0.85107 0.0500 Uiso
C14_8 C 0.36669 0.36918 0.66292 0.0500 Uiso
C15_8 C 0.38873 0.38809 0.80180 0.0500 Uiso
O5_8 O 0.36791 0.37657 0.48429 0.0500 Uiso
O8_8 O 0.34086 0.38910 0.17351 0.0500 Uiso
H21_8 H 0.43531 0.47725 0.92282 0.0000 Uiso
O16_6 O 0.30896 0.34729 0.42920 0.0500 Uiso
H23_8 H 0.359847 0.403501 0.132715 . .
H24_8 H 0.32815 0.383983 0.0571673 . .
H1_9 H 0.15384 0.36552 0.73787 0.0000 Uiso
H3_9 H 0.21262 0.32469 0.12186 0.0000 Uiso
H5_9 H 0.26903 0.34623 0.61809 0.0000 Uiso
H9_9 H 0.24641 0.37508 0.63888 0.0000 Uiso
H10_9 H 0.14907 0.29483 0.64891 0.0000 Uiso
C1_9 C 0.12662 0.35192 0.99463 0.0500 Uiso
C2_9 C 0.14646 0.35176 0.87179 0.0500 Uiso
C3_9 C 0.15749 0.33467 0.91187 0.0500 Uiso
C7_9 C 0.25279 0.32858 0.06231 0.0500 Uiso
C8_9 C 0.23308 0.32897 0.18441 0.0500 Uiso
C9_9 C 0.23837 0.33460 0.38414 0.0500 Uiso
C10_9 C 0.26401 0.34070 0.45795 0.0500 Uiso
C15_9 C 0.27857 0.33397 0.13514 0.0500 Uiso
C16_9 C 0.28399 0.34020 0.33863 0.0500 Uiso
C21_9 C 0.21734 0.33441 0.51693 0.0500 Uiso
C22_9 C 0.22475 0.35685 0.64256 0.0500 Uiso
C23_9 C 0.20572 0.35712 0.77341 0.0500 Uiso
C24_9 C 0.17843 0.33495 0.77697 0.0500 Uiso
C25_9 C 0.17100 0.31260 0.65053 0.0500 Uiso
C26_9 C 0.19032 0.31184 0.52540 0.0500 Uiso
C27_9 C 0.11595 0.37090 0.94826 0.0500 Uiso
C29_9 C 0.21537 0.38078 0.91195 0.0500 Uiso
C30_9 C 0.18206 0.28605 0.41302 0.0500 Uiso
H12_9 H 0.10407 0.36440 0.80565 0.0000 Uiso
H13_9 H 0.13382 0.39266 0.93352 0.0000 Uiso
H17_9 H 0.22792 0.40074 0.82908 0.0000 Uiso
H19_9 H 0.19696 0.38056 0.98176 0.0000 Uiso
H20_9 H 0.19164 0.27451 0.48258 0.0000 Uiso
H21_9 H 0.18941 0.29139 0.25616 0.0000 Uiso
H22_9 H 0.15885 0.27267 0.41507 0.0000 Uiso
H4_9 H 0.24829 0.32385 0.90076 0.0000 Uiso
C14_9 C 0.29748 0.33084 0.99626 0.0500 Uiso
O5_9 O 0.29009 0.32467 0.81763 0.0500 Uiso
O8_9 O 0.27756 0.28509 0.50685 0.0500 Uiso
H23_9 H 0.263166 0.289679 0.466049 . .
H24_9 H 0.282684 0.277501 0.390501 . .
O1_9 O 0.61729 0.67245 0.16052 0.0500 Uiso
H25_9 H 0.603316 0.665512 0.0515004 . .
H26_9 H 0.609909 0.659653 0.276528 . .
H2_9 H 0.69587 0.81705 0.33655 0.0000 Uiso
H6_9 H 0.67659 0.74349 0.05071 0.0000 Uiso
H7_9 H 0.65588 0.74117 0.77174 0.0000 Uiso
H8_9 H 0.65598 0.77755 0.55410 0.0000 Uiso
C4_9 C 0.68253 0.83073 0.07865 0.0500 Uiso
C5_9 C 0.68228 0.81069 0.20167 0.0500 Uiso
C6_9 C 0.66536 0.78271 0.16002 0.0500 Uiso
C11_9 C 0.67182 0.72222 0.33055 0.0500 Uiso
C12_9 C 0.66592 0.72135 0.53478 0.0500 Uiso
C13_9 C 0.66326 0.69945 0.67301 0.0500 Uiso
C17_9 C 0.67169 0.74253 0.21248 0.0500 Uiso
C18_9 C 0.66561 0.76188 0.28980 0.0500 Uiso
C19_9 C 0.66032 0.76153 0.48930 0.0500 Uiso
C20_9 C 0.66037 0.74152 0.60964 0.0500 Uiso
O4_9 O 0.65689 0.70041 0.85149 0.0500 Uiso
C28_9 C 0.70104 0.86023 0.13010 0.0500 Uiso
H11_9 H 0.62997 0.73187 0.07046 0.0000 Uiso
H14_9 H 0.71721 0.87048 0.01204 0.0000 Uiso
H15_9 H 0.71145 0.86169 0.27544 0.0000 Uiso
H16_9 H 0.68854 0.87095 0.14188 0.0000 Uiso
H18_9 H 0.62104 0.84960 0.03004 0.0000 Uiso
loop_
_geom_bond_atom_site_label_1
_geom_bond_atom_site_label_2
_geom_bond_site_symmetry_1
_geom_bond_site_symmetry_2
O9 Mg4 1_555 1_555
O11 Mg4 1_555 1_555
O13 Mg6 1_555 1_555
H6 C17 1_555 1_555
H10 C25 1_555 1_555
C4 C5 1_555 1_555
C17 C11 1_555 1_555
O10 C11 1_555 1_555
C28 C4 1_555 1_555
C30 C26 1_555 1_555
H14 C28 1_555 1_555
H15 C28 1_555 1_555
H16 C28 1_555 1_555
H20 C30 1_555 1_555
H22 C30 1_555 1_555
C25 C26 1_555 1_555
H3 C8 1_555 1_555
H4 C7 1_555 1_555
C7 C8 1_555 1_555
O5 C14 1_555 1_555
O8 Mg6 1_555 1_555
Mg6 O5 1_555 1_555
O16 Mg6 1_555 1_555
O16 Mg7 1_555 1_555
O8 H23 1_555 1_555
O8 H24 1_555 1_555
H1 C2 1_555 1_555
H3_2 C8_2 1_555 1_555
H5 C10 1_555 1_555
H9 C22 1_555 1_555
H10_2 C25_2 1_555 1_555
C1 C2 1_555 1_555
C2 C3 1_555 1_555
C7_2 C8_2 1_555 1_555
C8_2 C9 1_555 1_555
C9 C10 1_555 1_555
C10 C16 1_555 1_555
C15 C7_2 1_555 1_555
C16 C15 1_555 1_555
C21 C9 1_555 1_555
C22 C21 1_555 1_555
C23 C22 1_555 1_555
C24 C3 1_555 1_555
C25_2 C24 1_555 1_555
C26_2 C21 1_555 1_555
O16 C16 1_555 1_555
C27 C1 1_555 1_555
C29 C23 1_555 1_555
C30_2 C26_2 1_555 1_555
H12 C27 1_555 1_555
H13 C27 1_555 1_555
H17 C29 1_555 1_555
H19 C29 1_555 1_555
H20_2 C30_2 1_555 1_555
H21_2 C30_2 1_555 1_555
H22_2 C30_2 1_555 1_555
C23 C24 1_555 1_555
C25_2 C26_2 1_555 1_555
O5_2 C14_2 1_555 1_555
O8_2 Mg7 1_555 1_555
Mg7 O5_2 1_555 1_555
O8_2 H23_2 1_555 1_555
O1 Mg4 1_555 1_555
O1 H25_2 1_555 1_555
O1 H26_2 1_555 1_555
H2_2 C5_2 1_555 1_555
H6_2 C17_2 1_555 1_555
H7 C20 1_555 1_555
H8 C19 1_555 1_555
C4_2 C5_2 1_555 1_555
C5_2 C6 1_555 1_555
C11_2 C12 1_555 1_555
C12 C13 1_555 1_555
C13 O12 1_555 1_555
C17_2 C11_2 1_555 1_555
C18 C6 1_555 1_555
C19 C18 1_555 1_555
C20 C12 1_555 1_555
O9 C11_2 1_555 1_555
O4 C13 1_555 1_555
C28_2 C4_2 1_555 1_555
H14_2 C28_2 1_555 1_555
H15_2 C28_2 1_555 1_555
H16_2 C28_2 1_555 1_555
C17_2 C18 1_555 1_555
C19 C20 1_555 1_555
O1_2 Mg1 1_555 1_555
O4_2 C13_2 1_555 1_555
Mg1 O4_2 1_555 1_555
O10_2 Mg1 1_555 1_555
H1_2 C2_2 1_555 1_555
H2_3 C5_3 1_555 1_555
H6_3 C17_3 1_555 1_555
H8_2 C19_2 1_555 1_555
C1_2 C2_2 1_555 1_555
C2_2 C3_2 1_555 1_555
C3_2 C4_3 1_555 1_555
C4_3 C5_3 1_555 1_555
C5_3 C6_2 1_555 1_555
C6_2 C1_2 1_555 1_555
C11_3 C12_2 1_555 1_555
C17_3 C11_3 1_555 1_555
C18_2 C6_2 1_555 1_555
C19_2 C18_2 1_555 1_555
C20_2 C12_2 1_555 1_555
C24_2 C3_2 1_555 1_555
O10_2 C11_3 1_555 1_555
O3 Mg3 1_555 1_555
C27_2 C1_2 1_555 1_555
C28_3 C4_3 1_555 1_555
C29_2 C23_2 1_555 1_555
H11_2 C27_2 1_555 1_555
H12_2 C27_2 1_555 1_555
H13_2 C27_2 1_555 1_555
H14_3 C28_3 1_555 1_555
H15_3 C28_3 1_555 1_555
H16_3 C28_3 1_555 1_555
H17_2 C29_2 1_555 1_555
H18_2 C29_2 1_555 1_555
H19_2 C29_2 1_555 1_555
Mg3 O10_2 1_555 1_555
C17_3 C18_2 1_555 1_555
C19_2 C20_2 1_555 1_555
C23_2 C24_2 1_555 1_555
H3_3 C8_3 1_555 1_555
H4_3 C7_3 1_555 1_555
H5_2 C10_2 1_555 1_555
H9_2 C22_2 1_555 1_555
H10_3 C25_3 1_555 1_555
C7_3 C8_3 1_555 1_555
C8_3 C9_2 1_555 1_555
C9_2 C10_2 1_555 1_555
C10_2 C16_2 1_555 1_555
C14_3 C15_2 1_555 1_555
C15_2 C7_3 1_555 1_555
C16_2 C15_2 1_555 1_555
C21_2 C9_2 1_555 1_555
C22_2 C21_2 1_555 1_555
C26_3 C21_2 1_555 1_555
O5_3 C14_3 1_555 1_555
O6 C14_3 1_555 1_555
O7 C16_2 1_555 1_555
C30_3 C26_3 1_555 1_555
H20_3 C30_3 1_555 1_555
H21_3 C30_3 1_555 1_555
H22_3 C30_3 1_555 1_555
Mg8 O7 1_555 1_555
C25_3 C26_3 1_555 1_555
O8_3 Mg8 1_555 1_555
O14 Mg8 1_555 1_555
O8_3 H23_3 1_555 1_555
O8_3 H24_2 1_555 1_555
H7_3 C20_3 1_555 1_555
H8_3 C19_3 1_555 1_555
C12_3 C13_3 1_555 1_555
C20_3 C12_3 1_555 1_555
O1_3 Mg3 1_555 1_555
O4_3 C13_3 1_555 1_555
Mg3 O4_3 1_555 1_555
C19_3 C20_3 1_555 1_555
O1_3 H25_3 1_555 1_555
O1_3 H26_3 1_555 1_555
H1_3 C2_3 1_555 1_555
H5_3 C10_3 1_555 1_555
H9_3 C22_3 1_555 1_555
C1_3 C2_3 1_555 1_555
C2_3 C3_3 1_555 1_555
C6_3 C1_3 1_555 1_555
C9_3 C10_3 1_555 1_555
C10_3 C16_3 1_555 1_555
C18_3 C6_3 1_555 1_555
C21_3 C9_3 1_555 1_555
C22_3 C21_3 1_555 1_555
C23_3 C22_3 1_555 1_555
C24_3 C3_3 1_555 1_555
O16_2 C16_3 1_555 1_555
C27_3 C1_3 1_555 1_555
C29_3 C23_3 1_555 1_555
H11_3 C27_3 1_555 1_555
H12_3 C27_3 1_555 1_555
H13_3 C27_3 1_555 1_555
H17_3 C29_3 1_555 1_555
H18_3 C29_3 1_555 1_555
H19_3 C29_3 1_555 1_555
C23_3 C24_3 1_555 1_555
H3_4 C8_4 1_555 1_555
H4_4 C7_4 1_555 1_555
H5_4 C10_4 1_555 1_555
H9_4 C22_4 1_555 1_555
H10_4 C25_4 1_555 1_555
C7_4 C8_4 1_555 1_555
C8_4 C9_4 1_555 1_555
C9_4 C10_4 1_555 1_555
C10_4 C16_4 1_555 1_555
C14_4 C15_4 1_555 1_555
C15_4 C7_4 1_555 1_555
C16_4 C15_4 1_555 1_555
C21_4 C9_4 1_555 1_555
C22_4 C21_4 1_555 1_555
C26_4 C21_4 1_555 1_555
O5_4 C14_4 1_555 1_555
O6_2 C14_4 1_555 1_555
O7_2 C16_4 1_555 1_555
C30_4 C26_4 1_555 1_555
H20_4 C30_4 1_555 1_555
H21_4 C30_4 1_555 1_555
H22_4 C30_4 1_555 1_555
Mg8_2 O7_2 1_555 1_555
C25_4 C26_4 1_555 1_555
O8_4 Mg8_2 1_555 1_555
O14_2 Mg8_2 1_555 1_555
O8_4 H23_4 1_555 1_555
O8_4 H24_4 1_555 1_555
O1_4 Mg1_2 1_555 1_555
O4_4 C13_4 1_555 1_555
Mg1_2 O4_4 1_555 1_555
O10_3 Mg1_2 1_555 1_555
H1_4 C2_4 1_555 1_555
H2_4 C5_4 1_555 1_555
H6_4 C17_4 1_555 1_555
H8_4 C19_4 1_555 1_555
C1_4 C2_4 1_555 1_555
C2_4 C3_4 1_555 1_555
C3_4 C4_4 1_555 1_555
C4_4 C5_4 1_555 1_555
C5_4 C6_4 1_555 1_555
C6_4 C1_4 1_555 1_555
C11_4 C12_4 1_555 1_555
C17_4 C11_4 1_555 1_555
C18_4 C6_4 1_555 1_555
C19_4 C18_4 1_555 1_555
C20_4 C12_4 1_555 1_555
C24_4 C3_4 1_555 1_555
O10_3 C11_4 1_555 1_555
O3_2 Mg3_2 1_555 1_555
C27_4 C1_4 1_555 1_555
C28_4 C4_4 1_555 1_555
C29_4 C23_4 1_555 1_555
H11_4 C27_4 1_555 1_555
H12_4 C27_4 1_555 1_555
H13_4 C27_4 1_555 1_555
H14_4 C28_4 1_555 1_555
H15_4 C28_4 1_555 1_555
H16_4 C28_4 1_555 1_555
H17_4 C29_4 1_555 1_555
H18_4 C29_4 1_555 1_555
H19_4 C29_4 1_555 1_555
Mg3_2 O10_3 1_555 1_555
C17_4 C18_4 1_555 1_555
C19_4 C20_4 1_555 1_555
C23_4 C24_4 1_555 1_555
H7_5 C20_5 1_555 1_555
H8_5 C19_5 1_555 1_555
C12_5 C13_5 1_555 1_555
C20_5 C12_5 1_555 1_555
O1_5 Mg3_2 1_555 1_555
O4_5 C13_5 1_555 1_555
Mg3_2 O4_5 1_555 1_555
C19_5 C20_5 1_555 1_555
O1_5 H25_4 1_555 1_555
O1_5 H26_4 1_555 1_555
H1_5 C2_5 1_555 1_555
H5_5 C10_5 1_555 1_555
H9_5 C22_5 1_555 1_555
C1_5 C2_5 1_555 1_555
C2_5 C3_5 1_555 1_555
C6_5 C1_5 1_555 1_555
C9_5 C10_5 1_555 1_555
C10_5 C16_5 1_555 1_555
C18_5 C6_5 1_555 1_555
C21_5 C9_5 1_555 1_555
C22_5 C21_5 1_555 1_555
C23_5 C22_5 1_555 1_555
C24_5 C3_5 1_555 1_555
O16_3 C16_5 1_555 1_555
C27_5 C1_5 1_555 1_555
C29_5 C23_5 1_555 1_555
H11_5 C27_5 1_555 1_555
H12_5 C27_5 1_555 1_555
H13_5 C27_5 1_555 1_555
H17_5 C29_5 1_555 1_555
H18_5 C29_5 1_555 1_555
H19_5 C29_5 1_555 1_555
C23_5 C24_5 1_555 1_555
O13_2 Mg6_2 1_555 1_555
O9_2 Mg4_2 1_555 1_555
O11_2 Mg4_2 1_555 1_555
H6_5 C17_5 1_555 1_555
H10_5 C25_5 1_555 1_555
C4_5 C5_5 1_555 1_555
C17_5 C11_5 1_555 1_555
O10_4 C11_5 1_555 1_555
C28_5 C4_5 1_555 1_555
C30_5 C26_5 1_555 1_555
H14_5 C28_5 1_555 1_555
H15_5 C28_5 1_555 1_555
H16_5 C28_5 1_555 1_555
H20_5 C30_5 1_555 1_555
H22_5 C30_5 1_555 1_555
C25_5 C26_5 1_555 1_555
H3_5 C8_5 1_555 1_555
H4_5 C7_5 1_555 1_555
C7_5 C8_5 1_555 1_555
O5_5 C14_5 1_555 1_555
O8_5 Mg6_2 1_555 1_555
Mg6_2 O5_5 1_555 1_555
O16_4 Mg6_2 1_555 1_555
O16_4 Mg7_2 1_555 1_555
O8_5 H23_5 1_555 1_555
O8_5 H24_6 1_555 1_555
O1_6 Mg4_2 1_555 1_555
O1_6 H25_6 1_555 1_555
O1_6 H26_6 1_555 1_555
H2_6 C5_6 1_555 1_555
H6_6 C17_6 1_555 1_555
H7_6 C20_6 1_555 1_555
H8_6 C19_6 1_555 1_555
C4_6 C5_6 1_555 1_555
C5_6 C6_6 1_555 1_555
C11_6 C12_6 1_555 1_555
C12_6 C13_6 1_555 1_555
C13_6 O12_2 1_555 1_555
C17_6 C11_6 1_555 1_555
C18_6 C6_6 1_555 1_555
C19_6 C18_6 1_555 1_555
C20_6 C12_6 1_555 1_555
O9_2 C11_6 1_555 1_555
O4_6 C13_6 1_555 1_555
C28_6 C4_6 1_555 1_555
H14_6 C28_6 1_555 1_555
H15_6 C28_6 1_555 1_555
H16_6 C28_6 1_555 1_555
C17_6 C18_6 1_555 1_555
C19_6 C20_6 1_555 1_555
H1_6 C2_6 1_555 1_555
H3_6 C8_6 1_555 1_555
H5_6 C10_6 1_555 1_555
H9_6 C22_6 1_555 1_555
H10_6 C25_6 1_555 1_555
C1_6 C2_6 1_555 1_555
C2_6 C3_6 1_555 1_555
C7_6 C8_6 1_555 1_555
C8_6 C9_6 1_555 1_555
C9_6 C10_6 1_555 1_555
C10_6 C16_6 1_555 1_555
C15_6 C7_6 1_555 1_555
C16_6 C15_6 1_555 1_555
C21_6 C9_6 1_555 1_555
C22_6 C21_6 1_555 1_555
C23_6 C22_6 1_555 1_555
C24_6 C3_6 1_555 1_555
C25_6 C24_6 1_555 1_555
C26_6 C21_6 1_555 1_555
O16_4 C16_6 1_555 1_555
C27_6 C1_6 1_555 1_555
C29_6 C23_6 1_555 1_555
C30_6 C26_6 1_555 1_555
H12_6 C27_6 1_555 1_555
H13_6 C27_6 1_555 1_555
H17_6 C29_6 1_555 1_555
H19_6 C29_6 1_555 1_555
H20_6 C30_6 1_555 1_555
H21_6 C30_6 1_555 1_555
H22_6 C30_6 1_555 1_555
C23_6 C24_6 1_555 1_555
C25_6 C26_6 1_555 1_555
O5_6 C14_6 1_555 1_555
O8_6 Mg7_2 1_555 1_555
Mg7_2 O5_6 1_555 1_555
O8_6 H23_6 1_555 1_555
O1_7 Mg1_3 1_555 1_555
O4_7 C13_7 1_555 1_555
Mg1_3 O4_7 1_555 1_555
O9_3 Mg1_3 1_555 1_555
O10_5 Mg1_3 1_555 1_555
O11_3 Mg1_3 1_555 1_555
O12_3 Mg1_3 1_555 1_555
O9_3 Mg4_3 1_555 1_555
O11_3 Mg4_3 1_555 1_555
O1_7 H25_7 1_555 1_555
O1_7 H26_7 1_555 1_555
H1_7 C2_7 1_555 1_555
H2_7 C5_7 1_555 1_555
H6_7 C17_7 1_555 1_555
H8_7 C19_7 1_555 1_555
C1_7 C2_7 1_555 1_555
C2_7 C3_7 1_555 1_555
C3_7 C4_7 1_555 1_555
C4_7 C5_7 1_555 1_555
C5_7 C6_7 1_555 1_555
C6_7 C1_7 1_555 1_555
C11_7 C12_7 1_555 1_555
C17_7 C11_7 1_555 1_555
C18_7 C6_7 1_555 1_555
C19_7 C18_7 1_555 1_555
C20_7 C12_7 1_555 1_555
C24_7 C3_7 1_555 1_555
O10_5 C11_7 1_555 1_555
O3_3 Mg3_3 1_555 1_555
C27_7 C1_7 1_555 1_555
C28_7 C4_7 1_555 1_555
C29_7 C23_7 1_555 1_555
H11_7 C27_7 1_555 1_555
H12_7 C27_7 1_555 1_555
H13_7 C27_7 1_555 1_555
H14_7 C28_7 1_555 1_555
H15_7 C28_7 1_555 1_555
H16_7 C28_7 1_555 1_555
H17_7 C29_7 1_555 1_555
H18_7 C29_7 1_555 1_555
H19_7 C29_7 1_555 1_555
Mg3_3 O10_5 1_555 1_555
C17_7 C18_7 1_555 1_555
C19_7 C20_7 1_555 1_555
C23_7 C24_7 1_555 1_555
H3_7 C8_7 1_555 1_555
H4_7 C7_7 1_555 1_555
H5_7 C10_7 1_555 1_555
H9_7 C22_7 1_555 1_555
H10_7 C25_7 1_555 1_555
C7_7 C8_7 1_555 1_555
C8_7 C9_7 1_555 1_555
C9_7 C10_7 1_555 1_555
C10_7 C16_7 1_555 1_555
C14_7 C15_7 1_555 1_555
C15_7 C7_7 1_555 1_555
C16_7 C15_7 1_555 1_555
C21_7 C9_7 1_555 1_555
C22_7 C21_7 1_555 1_555
C26_7 C21_7 1_555 1_555
O5_7 C14_7 1_555 1_555
O6_3 C14_7 1_555 1_555
O7_3 C16_7 1_555 1_555
C30_7 C26_7 1_555 1_555
H20_7 C30_7 1_555 1_555
H21_7 C30_7 1_555 1_555
H22_7 C30_7 1_555 1_555
Mg6_3 O6_3 1_555 1_555
Mg7_3 O6_3 1_555 1_555
Mg8_3 O7_3 1_555 1_555
C25_7 C26_7 1_555 1_555
O7_3 Mg7_3 1_555 1_555
O13_3 Mg6_3 1_555 1_555
O16_5 Mg6_3 1_555 1_555
O8_7 Mg8_3 1_555 1_555
O14_3 Mg8_3 1_555 1_555
O8_7 H23_7 1_555 1_555
O8_7 H24_7 1_555 1_555
H7_8 C20_8 1_555 1_555
H8_8 C19_8 1_555 1_555
C12_8 C13_8 1_555 1_555
C13_8 O11_3 1_555 1_555
C20_8 C12_8 1_555 1_555
O1_8 Mg3_3 1_555 1_555
O4_8 C13_8 1_555 1_555
Mg3_3 O4_8 1_555 1_555
O10_6 Mg3_3 1_555 1_555
O12_3 Mg3_3 1_555 1_555
C19_8 C20_8 1_555 1_555
O1_8 H25_8 1_555 1_555
O1_8 H26_8 1_555 1_555
H1_8 C2_8 1_555 1_555
H5_8 C10_8 1_555 1_555
H6_8 C17_8 1_555 1_555
H9_8 C22_8 1_555 1_555
H10_8 C25_8 1_555 1_555
C1_8 C2_8 1_555 1_555
C2_8 C3_8 1_555 1_555
C3_8 C4_8 1_555 1_555
C4_8 C5_8 1_555 1_555
C5_8 C6_8 1_555 1_555
C6_8 C1_8 1_555 1_555
C9_8 C10_8 1_555 1_555
C10_8 C16_8 1_555 1_555
C17_8 C11_8 1_555 1_555
C18_8 C6_8 1_555 1_555
C21_8 C9_8 1_555 1_555
C22_8 C21_8 1_555 1_555
C23_8 C22_8 1_555 1_555
C24_8 C3_8 1_555 1_555
C25_8 C24_8 1_555 1_555
C26_8 C21_8 1_555 1_555
O10_6 C11_8 1_555 1_555
O16_5 C16_8 1_555 1_555
C27_8 C1_8 1_555 1_555
C28_8 C4_8 1_555 1_555
C29_8 C23_8 1_555 1_555
C30_8 C26_8 1_555 1_555
H11_8 C27_8 1_555 1_555
H12_8 C27_8 1_555 1_555
H13_8 C27_8 1_555 1_555
H14_8 C28_8 1_555 1_555
H15_8 C28_8 1_555 1_555
H16_8 C28_8 1_555 1_555
H17_8 C29_8 1_555 1_555
H18_8 C29_8 1_555 1_555
H19_8 C29_8 1_555 1_555
H20_8 C30_8 1_555 1_555
H22_8 C30_8 1_555 1_555
C17_8 C18_8 1_555 1_555
C23_8 C24_8 1_555 1_555
C25_8 C26_8 1_555 1_555
H3_8 C8_8 1_555 1_555
H4_8 C7_8 1_555 1_555
C7_8 C8_8 1_555 1_555
C14_8 C15_8 1_555 1_555
C15_8 C7_8 1_555 1_555
O5_8 C14_8 1_555 1_555
O14_3 C14_8 1_555 1_555
O8_8 Mg6_3 1_555 1_555
Mg6_3 O5_8 1_555 1_555
O16_6 Mg6_3 1_555 1_555
Mg7_3 O14_3 1_555 1_555
O16_6 Mg7_3 1_555 1_555
O8_8 H23_8 1_555 1_555
O8_8 H24_8 1_555 1_555
H1_9 C2_9 1_555 1_555
H3_9 C8_9 1_555 1_555
H5_9 C10_9 1_555 1_555
H9_9 C22_9 1_555 1_555
H10_9 C25_9 1_555 1_555
C1_9 C2_9 1_555 1_555
C2_9 C3_9 1_555 1_555
C7_9 C8_9 1_555 1_555
C8_9 C9_9 1_555 1_555
C9_9 C10_9 1_555 1_555
C10_9 C16_9 1_555 1_555
C15_9 C7_9 1_555 1_555
C16_9 C15_9 1_555 1_555
C21_9 C9_9 1_555 1_555
C22_9 C21_9 1_555 1_555
C23_9 C22_9 1_555 1_555
C24_9 C3_9 1_555 1_555
C25_9 C24_9 1_555 1_555
C26_9 C21_9 1_555 1_555
O16_6 C16_9 1_555 1_555
C27_9 C1_9 1_555 1_555
C29_9 C23_9 1_555 1_555
C30_9 C26_9 1_555 1_555
H12_9 C27_9 1_555 1_555
H13_9 C27_9 1_555 1_555
H17_9 C29_9 1_555 1_555
H19_9 C29_9 1_555 1_555
H20_9 C30_9 1_555 1_555
H21_9 C30_9 1_555 1_555
H22_9 C30_9 1_555 1_555
C23_9 C24_9 1_555 1_555
C25_9 C26_9 1_555 1_555
O5_9 C14_9 1_555 1_555
O8_9 Mg7_3 1_555 1_555
Mg7_3 O5_9 1_555 1_555
O8_9 H23_9 1_555 1_555
O8_9 H24_9 1_555 1_555
O1_9 Mg4_3 1_555 1_555
O1_9 H25_9 1_555 1_555
O1_9 H26_9 1_555 1_555
H2_9 C5_9 1_555 1_555
H6_9 C17_9 1_555 1_555
H7_9 C20_9 1_555 1_555
H8_9 C19_9 1_555 1_555
C4_9 C5_9 1_555 1_555
C5_9 C6_9 1_555 1_555
C11_9 C12_9 1_555 1_555
C12_9 C13_9 1_555 1_555
C13_9 O12_3 1_555 1_555
C17_9 C11_9 1_555 1_555
C18_9 C6_9 1_555 1_555
C19_9 C18_9 1_555 1_555
C20_9 C12_9 1_555 1_555
O9_3 C11_9 1_555 1_555
O4_9 C13_9 1_555 1_555
C28_9 C4_9 1_555 1_555
H14_9 C28_9 1_555 1_555
H15_9 C28_9 1_555 1_555
H16_9 C28_9 1_555 1_555
C17_9 C18_9 1_555 1_555
C19_9 C20_9 1_555 1_555

#END
