
###############################################################################
#
# This file contains modified crystal structure data generated from the
# MOF subset of the Cambridge Structural Database (CSD) v543 
# hosted by the Cambridge Crystallographic Data Centre (CCDC).
#
# This work is licensed under the Creative Commons
# Attribution-NonCommercial-ShareAlike 4.0 International License.
# To view a copy of this license, visit
# http://creativecommons.org/licenses/by-nc-sa/4.0/
# or send a letter to
# Creative Commons, PO Box 1866, Mountain View, CA 94042, USA.
#
# CIF created using the CSD Python API on 29 September 2022
# The structure has been converted into the P1 space group
# The structure has a 3D framework
# The original CSD entry RAVXOD is in the rhombohedral crystal system
# The original CSD entry RAVXOD is in a Sohncke space group
# The framework has been calculated to contain at least 10.0% void space
# The void calculation uses a probe of radius 1.32A, grid spacing 0.4
#
###############################################################################

data_RAVXOD
_chemical_formula_moiety         '(C954 H1101 Mg18 O68)n'
_symmetry_cell_setting           triclinic
_symmetry_space_group_name_H-M   'P 1'
_symmetry_Int_Tables_number      1
_space_group_name_Hall           'P 1'
loop_
_symmetry_equiv_pos_site_id
_symmetry_equiv_pos_as_xyz
1 x,y,z
_cell_length_a                   145.0425
_cell_length_b                   145.0425
_cell_length_c                   7.0379
_cell_angle_alpha                90
_cell_angle_beta                 90
_cell_angle_gamma                120
_cell_volume                     128223
loop_
_atom_site_label
_atom_site_type_symbol
_atom_site_fract_x
_atom_site_fract_y
_atom_site_fract_z
H1 H 0.02616 0.35617 0.33117
H61 H 0.01980 0.35511 0.51779
H64 H 0.03450 0.34207 0.01318
O1 O 0.01927 0.35523 0.37765
O4 O 0.01713 0.33965 0.09048
Mg1 Mg 0.00821 0.34027 0.30282
O9 O 0.00159 0.34707 0.15305
O10 O 0.01214 0.33174 0.48638
H20 H 0.12565 0.37033 0.00081
H23 H 0.14444 0.37058 0.05432
H24 H 0.20029 0.32479 0.25313
H25 H 0.19181 0.31164 0.15340
H26 H 0.20595 0.31848 0.11294
H30 H 0.18269 0.32316 0.07893
H32 H 0.16218 0.34629 0.19990
H33 H 0.17615 0.35466 0.14785
H35 H 0.12795 0.35848 0.23034
H36 H 0.13514 0.35209 0.15892
H39 H 0.07490 0.31603 0.08813
H42 H 0.08587 0.36342 0.27623
H43 H 0.09634 0.36948 0.10301
H44 H 0.08308 0.36633 0.03897
H45 H 0.06696 0.32988 0.62247
H46 H 0.06748 0.32517 0.38986
H47 H 0.07813 0.33805 0.47211
H48 H 0.04484 0.35802 0.32615
H49 H 0.05852 0.36668 0.26093
H50 H 0.04911 0.35825 0.08499
H55 H 0.18373 0.34502 0.01728
H57 H 0.06542 0.32640 0.05996
H63 H 0.02997 0.33689 0.31988
H65 H 0.04969 0.34576 0.81745
H69 H 0.06498 0.35476 0.03944
H70 H 0.05227 0.33249 0.62120
H71 H 0.11027 0.35209 0.12632
H85 H 0.24631 0.33660 0.05609
H86 H 0.24331 0.34714 0.04215
H92 H 0.12696 0.32992 0.14151
H94 H 0.14331 0.32984 0.32011
H95 H 0.13591 0.31740 0.19241
H96 H 0.15018 0.32503 0.17321
H105 H 0.20176 0.29789 0.07712
H106 H 0.20864 0.28527 0.05256
H108 H 0.21454 0.29729 0.33500
H109 H 0.22488 0.29460 0.25819
H110 H 0.22599 0.30734 0.20386
H111 H 0.23831 0.33091 0.33715
H112 H 0.22591 0.32929 0.25799
H113 H 0.23403 0.34176 0.53350
H114 H 0.24528 0.35073 0.38952
H115 H 0.23338 0.35416 0.18484
H116 H 0.22168 0.34391 0.30715
H117 H 0.22758 0.35428 0.60707
H118 H 0.23970 0.36437 0.49434
H119 H 0.21676 0.35824 0.37336
H120 H 0.22571 0.36974 0.51379
H121 H 0.22906 0.36869 0.27060
C11 C 0.19895 0.31961 0.12785
C19 C 0.16810 0.34984 0.08306
C20 C 0.13024 0.35544 0.10416
C23 C 0.08772 0.36354 0.12280
C24 C 0.06936 0.33242 0.47308
C25 C 0.05142 0.35865 0.23606
C41 C 0.08510 0.35252 0.05869
C45 C 0.07325 0.33336 0.03670
C46 C 0.07509 0.34339 0.09670
C51 C 0.02203 0.33644 0.58060
C52 C 0.02318 0.33789 0.78225
C53 C 0.01470 0.33709 0.91512
C57 C 0.03099 0.33856 0.47022
C58 C 0.04106 0.34212 0.55311
C59 C 0.04207 0.34329 0.74986
C60 C 0.03329 0.34114 0.86184
C70 C 0.05024 0.34333 0.43881
C71 C 0.06687 0.34374 0.21992
C74 C 0.06230 0.34997 0.16740
C75 C 0.05438 0.35024 0.27991
C76 C 0.06363 0.33789 0.39215
C77 C 0.05512 0.33745 0.49490
C78 C 0.11075 0.34683 0.02213
C79 C 0.12042 0.34682 0.00465
C86 C 0.23969 0.33838 0.06389
C90 C 0.14139 0.33151 0.02113
C91 C 0.13246 0.33293 0.02282
C95 C 0.14285 0.32565 0.18532
C100 C 0.21430 0.29396 0.03334
C101 C 0.22029 0.29862 0.21924
C102 C 0.23464 0.33512 0.26373
C103 C 0.23660 0.34473 0.38722
C104 C 0.23025 0.35009 0.32338
C105 C 0.23114 0.35835 0.46997
C106 C 0.22529 0.36410 0.40230
O3 O 0.00529 0.33410 0.85502
H61_2 H 0.00198 0.31353 0.85112
O1_2 O 0.00263 0.31406 0.71098
H45_2 H 0.00345 0.40375 0.28914
H46_2 H 0.00816 0.40898 0.05653
H70_2 H 0.00084 0.38645 0.28787
H108_2 H 0.03604 0.58392 0.00167
H111_2 H 0.00242 0.57407 0.00382
C24_2 C 0.00091 0.40361 0.13975
H2 H 0.10528 0.29781 0.40184
H3 H 0.10858 0.29670 0.15863
H4 H 0.11760 0.30822 0.29854
H5 H 0.09468 0.30219 0.17802
H6 H 0.10681 0.31222 0.06493
H7 H 0.11278 0.32261 0.36469
H8 H 0.10105 0.31242 0.48715
H9 H 0.08922 0.31593 0.28218
H10 H 0.10049 0.32484 0.13821
H11 H 0.10867 0.33732 0.41361
H12 H 0.09630 0.33577 0.33412
H13 H 0.10875 0.35934 0.46756
H14 H 0.10995 0.37211 0.41321
H15 H 0.12023 0.36934 0.33649
H16 H 0.11461 0.37172 0.74920
H17 H 0.12619 0.38135 0.61898
H18 H 0.13295 0.36863 0.59436
H19 H 0.12098 0.35828 0.70300
H21 H 0.13784 0.37957 0.88480
H22 H 0.14029 0.36209 0.85157
H27 H 0.18419 0.34127 0.49853
H28 H 0.19846 0.34895 0.47926
H29 H 0.19110 0.33650 0.35151
H31 H 0.20749 0.33650 0.52991
H34 H 0.16636 0.35530 0.99876
H37 H 0.09117 0.31954 0.62926
H38 H 0.08829 0.33016 0.61518
H40 H 0.07376 0.31653 0.83400
H41 H 0.08625 0.31962 0.94407
H51 H 0.22183 0.33929 0.99641
H52 H 0.22440 0.31454 0.54530
H53 H 0.28195 0.33479 0.04257
H54 H 0.26981 0.31210 0.61966
H56 H 0.10081 0.35827 0.94382
H60 H 0.30433 0.32929 0.32612
H66 H 0.26923 0.34044 0.61197
H67 H 0.23393 0.30845 0.72754
H68 H 0.15069 0.32129 0.65479
H72 H 0.11265 0.32724 0.67510
H73 H 0.27909 0.30331 0.53386
H74 H 0.28142 0.30322 0.28323
H75 H 0.29206 0.31217 0.43823
H76 H 0.25626 0.32911 0.20438
H77 H 0.26706 0.34197 0.28418
H78 H 0.26721 0.33727 0.04972
H79 H 0.25174 0.30053 0.62845
H80 H 0.23844 0.29732 0.56636
H81 H 0.24885 0.30347 0.39214
H82 H 0.24830 0.34707 0.72771
H83 H 0.26079 0.35021 0.83831
H84 H 0.25967 0.35072 0.58414
H87 H 0.19945 0.31436 0.51249
H88 H 0.20672 0.30805 0.44115
H89 H 0.16807 0.31102 0.67338
H90 H 0.15827 0.31164 0.52434
H91 H 0.17224 0.32002 0.47221
H93 H 0.15179 0.34318 0.59275
H97 H 0.12861 0.34799 0.55840
H98 H 0.14275 0.35477 0.51808
H99 H 0.13423 0.34164 0.41830
H100 H 0.19025 0.29587 0.61710
H101 H 0.19435 0.30436 0.81987
H102 H 0.19694 0.28696 0.78665
H103 H 0.20911 0.29626 0.67067
H104 H 0.21370 0.30829 0.96849
H107 H 0.22019 0.29494 0.92226
C1 C 0.10905 0.30238 0.26993
C2 C 0.10325 0.30817 0.20217
C3 C 0.10420 0.31647 0.34855
C4 C 0.09791 0.32189 0.28450
C5 C 0.09993 0.33153 0.40779
C6 C 0.11449 0.36804 0.45221
C7 C 0.12049 0.37267 0.63815
C8 C 0.12660 0.36702 0.70032
C9 C 0.13174 0.37095 0.89708
C10 C 0.13728 0.36486 0.97131
C12 C 0.19154 0.34069 0.48634
C13 C 0.18809 0.32602 0.95838
C14 C 0.19710 0.32475 0.95720
C15 C 0.20404 0.32835 0.79865
C16 C 0.20200 0.33348 0.64862
C17 C 0.19304 0.33485 0.65046
C18 C 0.18593 0.33092 0.80645
C21 C 0.09486 0.32831 0.60756
C22 C 0.07911 0.32045 0.95740
C26 C 0.23159 0.33263 0.90736
C27 C 0.22243 0.33371 0.90290
C28 C 0.21419 0.31972 0.66687
C29 C 0.22388 0.31978 0.64950
C30 C 0.27922 0.32971 0.16743
C31 C 0.27083 0.32920 0.27484
C32 C 0.28016 0.31675 0.37482
C33 C 0.27238 0.31696 0.49249
C34 C 0.21367 0.32721 0.78780
C35 C 0.23276 0.32619 0.76716
C36 C 0.26775 0.32322 0.44580
C37 C 0.28411 0.32374 0.21681
C38 C 0.17650 0.33986 0.93838
C39 C 0.16752 0.34113 0.95668
C40 C 0.15813 0.33430 0.85388
C42 C 0.09313 0.35123 0.97146
C43 C 0.09188 0.34102 0.93884
C44 C 0.08161 0.33190 0.97149
C49 C 0.29312 0.32493 0.09675
C50 C 0.30318 0.32796 0.17556
C56 C 0.31205 0.33043 0.06008
C61 C 0.25961 0.32346 0.57310
C62 C 0.26142 0.33345 0.63509
C63 C 0.25303 0.33486 0.70065
C64 C 0.24279 0.32570 0.73300
C65 C 0.24159 0.31551 0.69985
C66 C 0.24963 0.31429 0.61130
C67 C 0.17629 0.33201 0.81818
C68 C 0.16690 0.32517 0.71545
C69 C 0.15793 0.32646 0.73374
C72 C 0.10187 0.34047 0.90456
C73 C 0.12087 0.33929 0.88370
C80 C 0.11209 0.33284 0.76862
C81 C 0.10297 0.33400 0.76420
C82 C 0.28340 0.30845 0.41009
C83 C 0.26503 0.33472 0.19969
C84 C 0.24704 0.30330 0.54589
C85 C 0.25547 0.34628 0.71475
C87 C 0.20439 0.31106 0.56730
C88 C 0.16632 0.31647 0.58908
C89 C 0.14851 0.33542 0.86525
C92 C 0.13046 0.33809 0.87277
C93 C 0.13740 0.34165 0.71427
C94 C 0.14638 0.34033 0.71321
C96 C 0.13558 0.34681 0.54357
C97 C 0.19739 0.30162 0.70014
C98 C 0.20300 0.29560 0.77439
C99 C 0.20813 0.29955 0.97116
O7 O 0.32120 0.33398 0.13950
Mg7 Mg 0.33485 0.34138 0.00923
Mg8 Mg 0.32529 0.32681 0.34256
H58 H 0.28448 0.32252 0.83503
H59 H 0.29941 0.32653 0.63195
H62 H 0.31339 0.31104 0.14892
H122 H 0.30723 0.31082 0.33332
C47 C 0.30071 0.32684 0.78275
C48 C 0.29205 0.32451 0.89939
C54 C 0.31864 0.32983 0.73261
C55 C 0.31076 0.32944 0.85817
O5 O 0.31649 0.32786 0.55494
O6 O 0.32772 0.33187 0.79677
O8 O 0.31407 0.31155 0.28905
O13 O 0.33748 0.33895 0.46344
O14 O 0.33480 0.32918 0.13010
O16 O 0.33269 0.32055 0.47283
Mg6 Mg 0.33986 0.33181 0.67589
H1_2 H 0.64383 0.66999 0.33117
H61_3 H 0.64489 0.66469 0.51779
H64_2 H 0.65793 0.69243 0.01318
O1_3 O 0.64477 0.66404 0.37765
O4_2 O 0.66035 0.67748 0.09048
Mg1_2 Mg 0.65973 0.66794 0.30282
O9_2 O 0.65293 0.65453 0.15305
O10_2 O 0.66826 0.68040 0.48638
O11 O 0.67196 0.66743 0.18835
O12 O 0.66214 0.66138 0.52169
H20_2 H 0.62967 0.75532 0.00081
H23_2 H 0.62942 0.77386 0.05432
H24_2 H 0.67521 0.87550 0.25313
H25_2 H 0.68836 0.88017 0.15340
H26_2 H 0.68152 0.88747 0.11294
H30_2 H 0.67684 0.85953 0.07893
H32_2 H 0.65371 0.81589 0.19990
H33_2 H 0.64534 0.82149 0.14785
H35_2 H 0.64152 0.76947 0.23034
H36_2 H 0.64791 0.78305 0.15892
H39_2 H 0.68397 0.75887 0.08813
H42_2 H 0.63658 0.72245 0.27623
H43_2 H 0.63052 0.72686 0.10301
H44_2 H 0.63367 0.71675 0.03897
H45_3 H 0.67012 0.73708 0.62247
H46_3 H 0.67483 0.74231 0.38986
H47_2 H 0.66195 0.74008 0.47211
H48_2 H 0.64198 0.68682 0.32615
H49_2 H 0.63332 0.69184 0.26093
H50_2 H 0.64175 0.69086 0.08499
H55_2 H 0.65498 0.83871 0.01728
H57_2 H 0.67360 0.73902 0.05996
H63_2 H 0.66311 0.69308 0.31988
H65_2 H 0.65424 0.70393 0.81745
H69_2 H 0.64524 0.71022 0.03944
H70_3 H 0.66751 0.71978 0.62120
H71_2 H 0.64791 0.75818 0.12632
H85_2 H 0.66340 0.90971 0.05609
H86_2 H 0.65286 0.89617 0.04215
H92_2 H 0.67008 0.79704 0.14151
H94_2 H 0.67016 0.81347 0.32011
H95_2 H 0.68260 0.81851 0.19241
H96_2 H 0.67497 0.82515 0.17321
H105_2 H 0.70211 0.90387 0.07712
H106_2 H 0.71473 0.92337 0.05256
H108_3 H 0.70271 0.91725 0.33500
H109_2 H 0.70540 0.93028 0.25819
H110_2 H 0.69266 0.91865 0.20386
H111_3 H 0.66909 0.90740 0.33715
H112_2 H 0.67071 0.89662 0.25799
H113_2 H 0.65824 0.89227 0.53350
H114_2 H 0.64927 0.89455 0.38952
H115_2 H 0.64584 0.87922 0.18484
H116_2 H 0.65609 0.87777 0.30715
H117_2 H 0.64572 0.87330 0.60707
H118_2 H 0.63563 0.87533 0.49434
H119_2 H 0.64176 0.85852 0.37336
H120_2 H 0.63026 0.85597 0.51379
H121_2 H 0.63131 0.86037 0.27060
C11_2 C 0.68039 0.87934 0.12785
C19_2 C 0.65016 0.81826 0.08306
C20_2 C 0.64456 0.77480 0.10416
C23_2 C 0.63646 0.72418 0.12280
C24_3 C 0.66758 0.73694 0.47308
C25_2 C 0.64135 0.69277 0.23606
C41_2 C 0.64748 0.73258 0.05869
C45_2 C 0.66664 0.73989 0.03670
C46_2 C 0.65661 0.73170 0.09670
C51_2 C 0.66356 0.68559 0.58060
C52_2 C 0.66211 0.68529 0.78225
C53_2 C 0.66291 0.67761 0.91512
C57_2 C 0.66144 0.69243 0.47022
C58_2 C 0.65788 0.69894 0.55311
C59_2 C 0.65671 0.69878 0.74986
C60_2 C 0.65886 0.69215 0.86184
C70_2 C 0.65667 0.70691 0.43881
C71_2 C 0.65626 0.72313 0.21992
C74_2 C 0.65003 0.71233 0.16740
C75_2 C 0.64976 0.70414 0.27991
C76_2 C 0.66211 0.72574 0.39215
C77_2 C 0.66255 0.71767 0.49490
C78_2 C 0.65317 0.76392 0.02213
C79_2 C 0.65318 0.77360 0.00465
C86_2 C 0.66162 0.90131 0.06389
C90_2 C 0.66849 0.80988 0.02113
C91_2 C 0.66707 0.79953 0.02282
C95_2 C 0.67435 0.81720 0.18532
C100_2 C 0.70604 0.92034 0.03334
C101_2 C 0.70138 0.92167 0.21924
C102_2 C 0.66488 0.89952 0.26373
C103_2 C 0.65527 0.89187 0.38722
C104_2 C 0.64991 0.88016 0.32338
C105_2 C 0.64165 0.87279 0.46997
C106_2 C 0.63590 0.86119 0.40230
O3_2 O 0.66590 0.67119 0.85502
Mg4 Mg 0.66539 0.65846 0.96949
Mg5 Mg 0.67488 0.67360 0.63615
H1_3 H 0.69283 0.68950 0.66450
H61_4 H 0.68647 0.68844 0.85112
H64_3 H 0.70117 0.67540 0.34651
H65_3 H 0.71636 0.67909 0.15078
C52_3 C 0.68985 0.67122 0.11558
C53_3 C 0.68137 0.67042 0.24845
C59_3 C 0.70874 0.67662 0.08319
C60_3 C 0.69996 0.67447 0.19517
O1_4 O 0.68594 0.68856 0.71098
O4_3 O 0.68380 0.67298 0.42381
O10_3 O 0.67881 0.66507 0.81971
H16_2 H 0.78128 0.70505 0.08253
H19_2 H 0.78765 0.69161 0.03633
H20_3 H 0.79232 0.70366 0.33414
H21_2 H 0.80451 0.71290 0.21813
H22_2 H 0.80696 0.69542 0.18490
H23_3 H 0.81111 0.70391 0.38765
H24_3 H 0.86696 0.65812 0.58646
H25_3 H 0.85848 0.64497 0.48673
H26_3 H 0.87262 0.65181 0.44627
H30_3 H 0.84936 0.65649 0.41226
H32_3 H 0.82885 0.67962 0.53323
H33_3 H 0.84282 0.68799 0.48118
H34_2 H 0.83303 0.68863 0.33209
H35_3 H 0.79462 0.69181 0.56367
H36_3 H 0.80181 0.68542 0.49225
H39_3 H 0.74157 0.64936 0.42146
H40_2 H 0.74043 0.64986 0.16733
H41_2 H 0.75292 0.65295 0.27740
H42_3 H 0.75254 0.69675 0.60956
H43_3 H 0.76301 0.70281 0.43634
H44_3 H 0.74975 0.69966 0.37230
H45_4 H 0.73363 0.66321 0.95580
H46_4 H 0.73415 0.65850 0.72319
H47_3 H 0.74480 0.67138 0.80544
H48_3 H 0.71151 0.69135 0.65948
H49_3 H 0.72519 0.70001 0.59426
H50_3 H 0.71578 0.69158 0.41832
H51_2 H 0.88850 0.67262 0.32974
H55_3 H 0.85040 0.67835 0.35061
H56_2 H 0.76748 0.69160 0.27715
H57_3 H 0.73209 0.65973 0.39329
H63_3 H 0.69664 0.67022 0.65321
H67_2 H 0.90060 0.64178 0.06087
H69_3 H 0.73165 0.68809 0.37277
H70_4 H 0.71894 0.66582 0.95453
H71_3 H 0.77694 0.68542 0.45965
H72_2 H 0.77932 0.66057 0.00843
H82_2 H 0.91497 0.68040 0.06104
H83_2 H 0.92746 0.68354 0.17164
H85_3 H 0.91298 0.66993 0.38942
H86_3 H 0.90998 0.68047 0.37548
H89_2 H 0.83474 0.64435 0.00671
H92_3 H 0.79363 0.66325 0.47484
H94_3 H 0.80998 0.66317 0.65344
H95_3 H 0.80258 0.65073 0.52574
H96_3 H 0.81685 0.65836 0.50654
H101_2 H 0.86102 0.63769 0.15320
H102_2 H 0.86361 0.62029 0.11998
H103_2 H 0.87578 0.62959 0.00400
H104_2 H 0.88037 0.64162 0.30182
H105_3 H 0.86843 0.63122 0.41045
H106_3 H 0.87531 0.61860 0.38589
H107_2 H 0.88686 0.62827 0.25559
H108_4 H 0.88121 0.63062 0.66833
H109_3 H 0.89155 0.62793 0.59152
H110_3 H 0.89266 0.64067 0.53719
H111_4 H 0.90498 0.66424 0.67048
H112_3 H 0.89258 0.66262 0.59132
H113_3 H 0.90070 0.67509 0.86683
H114_3 H 0.91195 0.68406 0.72285
H115_3 H 0.90005 0.68749 0.51817
H116_3 H 0.88835 0.67724 0.64048
H117_3 H 0.89425 0.68761 0.94040
H118_3 H 0.90637 0.69770 0.82767
H119_3 H 0.88343 0.69157 0.70669
H120_3 H 0.89238 0.70307 0.84712
H121_3 H 0.89573 0.70202 0.60393
C8_2 C 0.79327 0.70035 0.03365
C9_2 C 0.79841 0.70428 0.23041
C10_2 C 0.80395 0.69819 0.30464
C11_3 C 0.86562 0.65294 0.46118
C13_2 C 0.85476 0.65935 0.29171
C14_2 C 0.86377 0.65808 0.29053
C15_2 C 0.87071 0.66168 0.13198
C18_2 C 0.85260 0.66425 0.13978
C19_3 C 0.83477 0.68317 0.41639
C20_3 C 0.79691 0.68877 0.43749
C22_2 C 0.74578 0.65378 0.29073
C23_3 C 0.75439 0.69687 0.45613
C24_4 C 0.73603 0.66575 0.80641
C25_3 C 0.71809 0.69198 0.56939
C26_2 C 0.89826 0.66596 0.24069
C27_2 C 0.88910 0.66704 0.23623
C28_2 C 0.88086 0.65305 0.00020
C34_2 C 0.88034 0.66054 0.12113
C35_2 C 0.89943 0.65952 0.10049
C38_2 C 0.84317 0.67319 0.27171
C39_2 C 0.83419 0.67446 0.29001
C40_2 C 0.82480 0.66763 0.18721
C41_3 C 0.75177 0.68585 0.39202
C42_2 C 0.75980 0.68456 0.30479
C43_2 C 0.75855 0.67435 0.27217
C44_2 C 0.74828 0.66523 0.30482
C45_3 C 0.73992 0.66669 0.37003
C46_3 C 0.74176 0.67672 0.43003
C51_3 C 0.68870 0.66977 0.91393
C57_3 C 0.69766 0.67189 0.80355
C58_3 C 0.70773 0.67545 0.88644
C63_2 C 0.91970 0.66819 0.03398
C64_2 C 0.90946 0.65903 0.06633
C65_2 C 0.90826 0.64884 0.03318
C67_2 C 0.84296 0.66534 0.15151
C68_2 C 0.83357 0.65850 0.04878
C69_2 C 0.82460 0.65979 0.06707
C70_3 C 0.71691 0.67666 0.77214
C71_3 C 0.73354 0.67707 0.55325
C72_2 C 0.76854 0.67380 0.23789
C73_2 C 0.78754 0.67262 0.21703
C74_3 C 0.72897 0.68330 0.50073
C75_3 C 0.72105 0.68357 0.61324
C76_3 C 0.73030 0.67122 0.72548
C77_3 C 0.72179 0.67078 0.82823
C78_3 C 0.77742 0.68016 0.35546
C79_3 C 0.78709 0.68015 0.33798
C80_2 C 0.77876 0.66617 0.10195
C81_2 C 0.76964 0.66733 0.09753
C85_2 C 0.92214 0.67961 0.04808
C86_3 C 0.90636 0.67171 0.39722
C89_2 C 0.81518 0.66875 0.19858
C90_3 C 0.80806 0.66484 0.35446
C91_3 C 0.79913 0.66626 0.35615
C92_2 C 0.79713 0.67142 0.20610
C93_2 C 0.80407 0.67498 0.04760
C94_2 C 0.81305 0.67366 0.04654
C95_3 C 0.80952 0.65898 0.51865
C97_2 C 0.86406 0.63495 0.03347
C98_2 C 0.86967 0.62893 0.10772
C99_2 C 0.87480 0.63288 0.30449
C100_3 C 0.88097 0.62729 0.36667
C101_3 C 0.88696 0.63195 0.55257
C102_3 C 0.90131 0.66845 0.59706
C103_3 C 0.90327 0.67806 0.72055
C104_3 C 0.89692 0.68342 0.65671
C105_3 C 0.89781 0.69168 0.80330
C106_3 C 0.89196 0.69743 0.73563
H2_2 H 0.36886 0.14080 0.73517
H3_2 H 0.36997 0.14521 0.49196
H4_2 H 0.35845 0.14271 0.63187
H5_2 H 0.36448 0.12582 0.51135
H6_2 H 0.35445 0.12792 0.39826
H7_2 H 0.34406 0.12350 0.69802
H8_2 H 0.35425 0.12196 0.82048
H9_2 H 0.35074 0.10662 0.61551
H10_2 H 0.34183 0.10898 0.47154
H11_2 H 0.32935 0.10468 0.74694
H12_2 H 0.33090 0.09386 0.66745
H13_2 H 0.30733 0.08274 0.80089
H14_2 H 0.29456 0.07117 0.74654
H15_2 H 0.29733 0.08422 0.66982
H17_2 H 0.28532 0.07817 0.95231
H18_2 H 0.29804 0.09765 0.92769
H27_2 H 0.32540 0.17625 0.83186
H28_2 H 0.31772 0.18284 0.81259
H29_2 H 0.33017 0.18793 0.68484
H31_2 H 0.33017 0.20432 0.86324
H37_2 H 0.34713 0.10496 0.96259
H38_2 H 0.33651 0.09146 0.94851
H52_2 H 0.35213 0.24319 0.87863
H53_2 H 0.33188 0.28049 0.37590
H54_2 H 0.35457 0.29104 0.95299
H58_2 H 0.34415 0.29529 0.16836
H60_2 H 0.33738 0.30837 0.65945
H66_2 H 0.32623 0.26212 0.94530
H68_2 H 0.34538 0.16273 0.98812
H73_2 H 0.36336 0.30911 0.86719
H74_2 H 0.36345 0.31153 0.61656
H75_2 H 0.35450 0.31322 0.77156
H76_2 H 0.33756 0.26048 0.53771
H77_2 H 0.32470 0.25842 0.61751
H78_2 H 0.32940 0.26327 0.38305
H79_2 H 0.36614 0.28454 0.96178
H80_2 H 0.36935 0.27445 0.89969
H81_2 H 0.36320 0.27871 0.72547
H84_2 H 0.31595 0.24228 0.91747
H87_2 H 0.35231 0.21842 0.84582
H88_2 H 0.35862 0.23200 0.77448
H90_2 H 0.35503 0.17996 0.85767
H91_2 H 0.34665 0.18555 0.80554
H93_2 H 0.32349 0.14194 0.92608
H97_2 H 0.31868 0.11395 0.89173
H98_2 H 0.31190 0.12131 0.85141
H99_2 H 0.32503 0.12592 0.75163
H100_2 H 0.37080 0.22771 0.95043
C1_2 C 0.36429 0.14000 0.60326
C2_2 C 0.35850 0.12841 0.53550
C3_2 C 0.35020 0.12106 0.68188
C4_2 C 0.34478 0.10935 0.61783
C5_2 C 0.33514 0.10173 0.74112
C6_2 C 0.29863 0.07978 0.78554
C7_2 C 0.29400 0.08115 0.97148
C12_2 C 0.32598 0.18418 0.81967
C16_2 C 0.33319 0.20185 0.98195
C17_2 C 0.33182 0.19152 0.98379
C21_2 C 0.33836 0.09988 0.94089
C29_2 C 0.34689 0.23743 0.98283
C30_2 C 0.33696 0.28284 0.50076
C31_2 C 0.33747 0.27496 0.60817
C32_2 C 0.34992 0.29674 0.70815
C33_2 C 0.34971 0.28875 0.82582
C36_2 C 0.34345 0.27786 0.77913
C37_2 C 0.34293 0.29370 0.55014
C47_2 C 0.33983 0.30720 0.11608
C48_2 C 0.34216 0.30087 0.23272
C49_2 C 0.34174 0.30152 0.43008
C50_2 C 0.33871 0.30855 0.50889
C54_2 C 0.33684 0.32214 0.06594
C55_2 C 0.33723 0.31465 0.19150
C56_2 C 0.33624 0.31495 0.39341
C61_2 C 0.34321 0.26948 0.90643
C62_2 C 0.33322 0.26130 0.96842
C66_2 C 0.35238 0.26867 0.94463
C82_2 C 0.35822 0.30828 0.74342
C83_2 C 0.33195 0.26364 0.53302
C84_2 C 0.36337 0.27707 0.87922
C87_2 C 0.35561 0.22666 0.90063
C88_2 C 0.35020 0.18318 0.92241
C96_2 C 0.31986 0.12210 0.87690
H59_2 H 0.34014 0.30621 0.96528
H62_2 H 0.35563 0.33568 0.48225
H122_2 H 0.35585 0.32974 0.66665
O5_2 O 0.33881 0.32196 0.88827
O8_2 O 0.35512 0.33585 0.62238
O16_2 O 0.34611 0.34547 0.80617
H61_5 H 0.66864 0.64687 0.18446
O1_5 O 0.66929 0.64740 0.04432
H1_4 H 0.66334 0.64051 0.99784
H45_5 H 0.59625 0.59971 0.28914
H46_5 H 0.59102 0.59919 0.05653
H47_4 H 0.59325 0.58854 0.13878
H64_4 H 0.64090 0.63217 0.67985
H65_4 H 0.62940 0.61698 0.48412
H70_5 H 0.61355 0.61440 0.28787
H108_5 H 0.41608 0.45213 0.00167
H111_5 H 0.42593 0.42836 0.00382
H113_4 H 0.44106 0.43264 0.20017
H114_4 H 0.43878 0.42139 0.05619
H117_4 H 0.46003 0.43909 0.27374
H118_4 H 0.45800 0.42697 0.16101
H119_4 H 0.47481 0.44991 0.04003
H120_4 H 0.47736 0.44096 0.18046
C24_5 C 0.59639 0.59731 0.13975
C51_4 C 0.64774 0.64464 0.24727
C52_4 C 0.64804 0.64349 0.44892
C53_4 C 0.65572 0.65197 0.58179
C57_4 C 0.64090 0.63568 0.13689
C58_4 C 0.63439 0.62561 0.21978
C59_4 C 0.63455 0.62460 0.41653
C60_4 C 0.64118 0.63338 0.52851
C70_4 C 0.62642 0.61643 0.10548
C76_4 C 0.60759 0.60304 0.05882
C77_4 C 0.61566 0.61155 0.16157
C103_4 C 0.44146 0.43007 0.05389
C105_4 C 0.46054 0.43553 0.13664
C106_4 C 0.47214 0.44138 0.06897
O4_4 O 0.65585 0.64954 0.75715
H2_3 H 0.52586 0.56139 0.06851
H7_3 H 0.54316 0.55389 0.03136
H8_3 H 0.54470 0.56562 0.15382
H11_3 H 0.56198 0.55800 0.08028
H12_3 H 0.57280 0.57037 0.00079
H13_3 H 0.58392 0.55792 0.13423
H14_3 H 0.59549 0.55672 0.07988
H15_3 H 0.58244 0.54644 0.00316
H16_3 H 0.59044 0.55206 0.41587
H17_3 H 0.58849 0.54048 0.28565
H18_3 H 0.56901 0.53372 0.26103
H19_3 H 0.57063 0.54569 0.36967
H20_4 H 0.57801 0.54102 0.66748
H21_3 H 0.57506 0.52883 0.55147
H22_3 H 0.55513 0.52638 0.51824
H23_4 H 0.55947 0.52223 0.72099
H24_4 H 0.45783 0.46638 0.91980
H25_4 H 0.45316 0.47486 0.82007
H26_4 H 0.44586 0.46072 0.77961
H27_3 H 0.49041 0.48248 0.16520
H28_3 H 0.48382 0.46821 0.14593
H29_3 H 0.47873 0.47557 0.01818
H30_4 H 0.47380 0.48398 0.74560
H31_3 H 0.46234 0.45918 0.19658
H32_4 H 0.51744 0.50449 0.86657
H33_4 H 0.51184 0.49052 0.81452
H34_3 H 0.52227 0.50031 0.66543
H35_4 H 0.56386 0.53872 0.89701
H36_4 H 0.55028 0.53153 0.82559
H37_3 H 0.56170 0.57550 0.29593
H38_3 H 0.57520 0.57838 0.28185
H39_4 H 0.57446 0.59177 0.75480
H40_3 H 0.57610 0.59291 0.50067
H41_3 H 0.56670 0.58042 0.61074
H42_4 H 0.61088 0.58080 0.94290
H43_4 H 0.60647 0.57033 0.76968
H44_4 H 0.61658 0.58359 0.70564
H48_4 H 0.64651 0.62183 0.99282
H49_4 H 0.64149 0.60815 0.92760
H50_4 H 0.64247 0.61756 0.75166
H51_3 H 0.45079 0.44484 0.66308
H52_3 H 0.42347 0.44227 0.21197
H54_3 H 0.37562 0.39686 0.28633
H55_4 H 0.49462 0.48294 0.68395
H56_3 H 0.59079 0.56586 0.61049
H57_4 H 0.59431 0.60125 0.72663
H63_4 H 0.64025 0.63670 0.98655
H66_3 H 0.40454 0.39744 0.27864
H67_3 H 0.40785 0.43274 0.39421
H68_3 H 0.50393 0.51598 0.32146
H69_4 H 0.62311 0.60169 0.70611
H71_4 H 0.57515 0.55640 0.79299
H72_3 H 0.54792 0.55402 0.34177
H73_3 H 0.35755 0.38758 0.20053
H75_3 H 0.35344 0.37461 0.10490
H79_3 H 0.38212 0.41493 0.29512
H80_3 H 0.39221 0.42823 0.23303
H81_3 H 0.38795 0.41782 0.05881
H82_3 H 0.43210 0.41837 0.39438
H83_3 H 0.42275 0.40588 0.50498
H84_3 H 0.42438 0.40700 0.25081
H85_4 H 0.42362 0.42036 0.72276
H86_4 H 0.43716 0.42336 0.70882
H87_3 H 0.44824 0.46722 0.17916
H88_3 H 0.43466 0.45995 0.10782
H89_3 H 0.47628 0.49860 0.34005
H90_3 H 0.48670 0.50840 0.19101
H91_3 H 0.48111 0.49443 0.13888
H92_4 H 0.53629 0.53971 0.80818
H93_3 H 0.52472 0.51488 0.25942
H94_4 H 0.51986 0.52336 0.98678
H95_4 H 0.51482 0.53076 0.85908
H96_4 H 0.50818 0.51649 0.83988
H97_3 H 0.55271 0.53806 0.22507
H98_3 H 0.54535 0.52392 0.18475
H99_3 H 0.54074 0.53244 0.08497
H100_3 H 0.43895 0.47642 0.28377
H101_3 H 0.44334 0.47232 0.48654
H102_3 H 0.42335 0.46973 0.45332
H103_3 H 0.42048 0.45756 0.33734
H104_3 H 0.42792 0.45297 0.63516
H105_4 H 0.42946 0.46491 0.74379
H106_4 H 0.40996 0.45803 0.71923
H107_3 H 0.40808 0.44648 0.58893
H109_4 H 0.40305 0.44179 0.92486
H110_4 H 0.41468 0.44068 0.87053
H112_4 H 0.43671 0.44076 0.92466
H115_4 H 0.45411 0.43329 0.85151
H116_4 H 0.45556 0.44499 0.97382
H121_4 H 0.47296 0.43761 0.93727
C3_3 C 0.54560 0.56247 0.01522
C5_3 C 0.56493 0.56674 0.07446
C6_3 C 0.58688 0.55218 0.11888
C7_3 C 0.58551 0.54618 0.30482
C8_3 C 0.57375 0.54007 0.36699
C9_3 C 0.57254 0.53493 0.56375
C10_3 C 0.56091 0.52939 0.63798
C11_4 C 0.45399 0.46772 0.79452
C12_3 C 0.48248 0.47513 0.15301
C13_3 C 0.47126 0.47858 0.62505
C14_3 C 0.46098 0.46957 0.62387
C15_3 C 0.45764 0.46263 0.46532
C16_3 C 0.46481 0.46467 0.31529
C17_3 C 0.47514 0.47363 0.31713
C18_3 C 0.47832 0.48074 0.47312
C19_4 C 0.51507 0.49857 0.74973
C20_4 C 0.55853 0.53643 0.77083
C21_3 C 0.56678 0.57181 0.27423
C22_3 C 0.57467 0.58756 0.62407
C23_4 C 0.60915 0.57895 0.78947
C25_4 C 0.64056 0.61525 0.90273
C26_3 C 0.43437 0.43508 0.57403
C27_3 C 0.44461 0.44424 0.56957
C28_3 C 0.43886 0.45248 0.33354
C29_3 C 0.42923 0.44279 0.31617
C32_3 C 0.36992 0.38651 0.04149
C33_3 C 0.37791 0.39429 0.15916
C34_3 C 0.44687 0.45300 0.45447
C35_3 C 0.42676 0.43391 0.43383
C36_3 C 0.38880 0.39892 0.11247
C38_3 C 0.49669 0.49017 0.60505
C39_3 C 0.50694 0.49915 0.62335
C40_3 C 0.50950 0.50854 0.52055
C41_4 C 0.60075 0.58157 0.72536
C42_3 C 0.59143 0.57354 0.63813
C43_3 C 0.58247 0.57479 0.60551
C44_3 C 0.58362 0.58506 0.63816
C45_4 C 0.59344 0.59342 0.70337
C46_4 C 0.60163 0.59158 0.76337
C61_3 C 0.39718 0.40706 0.23977
C62_3 C 0.40536 0.40525 0.30176
C63_3 C 0.41516 0.41364 0.36732
C64_3 C 0.41624 0.42388 0.39967
C65_3 C 0.40725 0.42508 0.36652
C66_3 C 0.39799 0.41704 0.27797
C67_3 C 0.48905 0.49038 0.48485
C68_3 C 0.49160 0.49977 0.38212
C69_3 C 0.50186 0.50874 0.40041
C71_4 C 0.61020 0.59980 0.88659
C72_3 C 0.57193 0.56480 0.57123
C73_3 C 0.55175 0.54580 0.55037
C74_4 C 0.62100 0.60437 0.83407
C75_4 C 0.62919 0.61229 0.94658
C78_4 C 0.56941 0.55592 0.68880
C79_4 C 0.55973 0.54625 0.67132
C80_3 C 0.55408 0.55458 0.43529
C81_3 C 0.56436 0.56370 0.43087
C82_3 C 0.35838 0.38327 0.07676
C84_3 C 0.38959 0.41963 0.21256
C85_3 C 0.42414 0.41120 0.38142
C86_4 C 0.43202 0.42698 0.73056
C87_3 C 0.44000 0.46228 0.23397
C88_3 C 0.48348 0.50035 0.25575
C89_3 C 0.52024 0.51816 0.53192
C90_4 C 0.52345 0.52528 0.68780
C91_4 C 0.53380 0.53421 0.68949
C92_3 C 0.54096 0.53621 0.53944
C93_3 C 0.53758 0.52927 0.38094
C94_3 C 0.52728 0.52029 0.37988
C95_4 C 0.51613 0.52382 0.85199
C96_3 C 0.54456 0.53109 0.21024
C97_3 C 0.43756 0.46928 0.36681
C98_3 C 0.42593 0.46367 0.44106
C99_3 C 0.42475 0.45854 0.63783
C100_4 C 0.41299 0.45237 0.70001
C101_4 C 0.41166 0.44638 0.88591
C102_4 C 0.43381 0.43203 0.93040
C104_4 C 0.45317 0.43642 0.99005
H3_3 H 0.52145 0.55809 0.82530
H4_3 H 0.52395 0.54907 0.96521
H5_3 H 0.54084 0.57199 0.84469
H6_3 H 0.53874 0.55986 0.73160
H9_3 H 0.56004 0.57745 0.94885
H10_3 H 0.55768 0.56618 0.80488
H53_3 H 0.38617 0.38472 0.70924
H58_3 H 0.37137 0.38219 0.50170
H59_3 H 0.36045 0.36726 0.29862
H60_3 H 0.35829 0.36234 0.99279
H74_3 H 0.35513 0.38525 0.94990
H76_3 H 0.40618 0.41041 0.87105
H77_3 H 0.40824 0.39961 0.95085
H78_3 H 0.40339 0.39946 0.71639
H122_3 H 0.33692 0.35944 -0.00001
C1_3 C 0.52666 0.55762 0.93660
C2_3 C 0.53825 0.56342 0.86884
C4_3 C 0.55731 0.56876 0.95117
C30_3 C 0.38382 0.38745 0.83410
C31_3 C 0.39170 0.39584 0.94151
C37_3 C 0.37296 0.38256 0.88348
C47_3 C 0.35946 0.36596 0.44942
C48_3 C 0.36579 0.37462 0.56606
C49_3 C 0.36514 0.37355 0.76342
C50_3 C 0.35811 0.36349 0.84223
C54_3 C 0.34452 0.34803 0.39928
C55_3 C 0.35201 0.35591 0.52484
C56_3 C 0.35171 0.35462 0.72675
C83_3 C 0.40302 0.40164 0.86636
O5_3 O 0.34470 0.35018 0.22161
H62_3 H 0.33098 0.35328 0.81559
H122_4 H 0.33692 0.35944 0.99999
O8_3 O 0.33081 0.35260 0.95572
O11_2 O 0.99548 0.32804 0.18835
O12_2 O 0.99923 0.33786 0.52169
Mg4_2 Mg 0.99306 0.33461 0.96949
Mg5_2 Mg 0.99873 0.32512 0.63615
H1_5 H 0.99668 0.30717 0.66450
H64_5 H 0.97424 0.29883 0.34651
H65_5 H 0.96274 0.28364 0.15078
C52_5 C 0.98138 0.31015 0.11558
C53_5 C 0.98906 0.31863 0.24845
C59_5 C 0.96789 0.29126 0.08319
C60_5 C 0.97452 0.30004 0.19517
O4_5 O 0.98919 0.31620 0.42381
O10_4 O 0.98627 0.32119 0.81971
H16_4 H 0.92378 0.21872 0.08253
H19_4 H 0.90397 0.21235 0.03633
H20_5 H 0.91135 0.20768 0.33414
H21_4 H 0.90840 0.19549 0.21813
H22_4 H 0.88847 0.19304 0.18490
H23_5 H 0.89281 0.18889 0.38765
H24_5 H 0.79117 0.13304 0.58646
H25_5 H 0.78650 0.14152 0.48673
H26_5 H 0.77920 0.12738 0.44627
H30_5 H 0.80714 0.15064 0.41226
H32_5 H 0.85078 0.17115 0.53323
H33_5 H 0.84518 0.15718 0.48118
H34_4 H 0.85561 0.16697 0.33209
H35_5 H 0.89720 0.20538 0.56367
H36_5 H 0.88362 0.19819 0.49225
H39_5 H 0.90780 0.25843 0.42146
H40_4 H 0.90944 0.25957 0.16733
H41_4 H 0.90004 0.24708 0.27740
H42_5 H 0.94422 0.24746 0.60956
H43_5 H 0.93981 0.23699 0.43634
H44_5 H 0.94992 0.25025 0.37230
H45_6 H 0.92959 0.26637 0.95580
H46_6 H 0.92436 0.26585 0.72319
H47_5 H 0.92659 0.25520 0.80544
H48_5 H 0.97985 0.28849 0.65948
H49_5 H 0.97483 0.27481 0.59426
H50_5 H 0.97581 0.28422 0.41832
H51_4 H 0.78413 0.11150 0.32974
H55_5 H 0.82796 0.14960 0.35061
H56_4 H 0.92413 0.23252 0.27715
H57_5 H 0.92765 0.26791 0.39329
H63_5 H 0.97359 0.30336 0.65321
H67_4 H 0.74119 0.09940 0.06087
H69_5 H 0.95645 0.26835 0.37277
H70_6 H 0.94689 0.28106 0.95453
H71_5 H 0.90849 0.22306 0.45965
H72_4 H 0.88126 0.22068 0.00843
H82_4 H 0.76544 0.08503 0.06104
H83_4 H 0.75609 0.07254 0.17164
H85_5 H 0.75696 0.08702 0.38942
H86_5 H 0.77050 0.09002 0.37548
H89_4 H 0.80962 0.16526 0.00671
H92_5 H 0.86963 0.20637 0.47484
H94_5 H 0.85320 0.19002 0.65344
H95_5 H 0.84816 0.19742 0.52574
H96_5 H 0.84152 0.18315 0.50654
H101_4 H 0.77668 0.13898 0.15320
H102_4 H 0.75669 0.13639 0.11998
H103_4 H 0.75382 0.12422 0.00400
H104_4 H 0.76126 0.11963 0.30182
H105_5 H 0.76280 0.13157 0.41045
H106_5 H 0.74330 0.12469 0.38589
H107_4 H 0.74142 0.11314 0.25559
H108_6 H 0.74942 0.11879 0.66833
H109_5 H 0.73639 0.10845 0.59152
H110_5 H 0.74802 0.10734 0.53719
H111_6 H 0.75927 0.09502 0.67048
H112_5 H 0.77005 0.10742 0.59132
H113_5 H 0.77440 0.09930 0.86683
H114_5 H 0.77212 0.08805 0.72285
H115_5 H 0.78745 0.09995 0.51817
H116_5 H 0.78890 0.11165 0.64048
H117_5 H 0.79337 0.10575 0.94040
H118_5 H 0.79134 0.09363 0.82767
H119_5 H 0.80815 0.11657 0.70669
H120_5 H 0.81070 0.10762 0.84712
H121_5 H 0.80630 0.10427 0.60393
C8_4 C 0.90709 0.20673 0.03365
C9_4 C 0.90588 0.20159 0.23041
C10_4 C 0.89425 0.19605 0.30464
C11_5 C 0.78733 0.13438 0.46118
C13_4 C 0.80460 0.14524 0.29171
C14_4 C 0.79432 0.13623 0.29053
C15_4 C 0.79098 0.12929 0.13198
C18_4 C 0.81166 0.14740 0.13978
C19_5 C 0.84841 0.16523 0.41639
C20_5 C 0.89187 0.20309 0.43749
C22_4 C 0.90801 0.25422 0.29073
C23_5 C 0.94249 0.24561 0.45613
C24_6 C 0.92973 0.26397 0.80641
C25_5 C 0.97390 0.28191 0.56939
C26_4 C 0.76771 0.10174 0.24069
C27_4 C 0.77795 0.11090 0.23623
C28_4 C 0.77220 0.11914 0.00020
C34_4 C 0.78021 0.11966 0.12113
C35_4 C 0.76010 0.10057 0.10049
C38_4 C 0.83003 0.15683 0.27171
C39_4 C 0.84028 0.16581 0.29001
C40_4 C 0.84284 0.17520 0.18721
C41_5 C 0.93409 0.24823 0.39202
C42_4 C 0.92477 0.24020 0.30479
C43_4 C 0.91581 0.24145 0.27217
C44_4 C 0.91696 0.25172 0.30482
C45_5 C 0.92678 0.26008 0.37003
C46_5 C 0.93497 0.25824 0.43003
C51_5 C 0.98108 0.31130 0.91393
C57_5 C 0.97424 0.30234 0.80355
C58_5 C 0.96773 0.29227 0.88644
C63_4 C 0.74850 0.08030 0.03398
C64_4 C 0.74958 0.09054 0.06633
C65_4 C 0.74059 0.09174 0.03318
C67_4 C 0.82239 0.15704 0.15151
C68_4 C 0.82494 0.16643 0.04878
C69_4 C 0.83520 0.17540 0.06707
C70_5 C 0.95976 0.28309 0.77214
C71_5 C 0.94354 0.26646 0.55325
C72_4 C 0.90527 0.23146 0.23789
C73_4 C 0.88509 0.21246 0.21703
C74_5 C 0.95434 0.27103 0.50073
C75_5 C 0.96253 0.27895 0.61324
C76_5 C 0.94093 0.26970 0.72548
C77_5 C 0.94900 0.27821 0.82823
C78_5 C 0.90275 0.22258 0.35546
C79_5 C 0.89307 0.21291 0.33798
C80_4 C 0.88742 0.22124 0.10195
C81_4 C 0.89770 0.23036 0.09753
C85_4 C 0.75748 0.07786 0.04808
C86_5 C 0.76536 0.09364 0.39722
C89_4 C 0.85358 0.18482 0.19858
C90_5 C 0.85679 0.19194 0.35446
C91_5 C 0.86714 0.20087 0.35615
C92_4 C 0.87430 0.20287 0.20610
C93_4 C 0.87092 0.19593 0.04760
C94_4 C 0.86062 0.18695 0.04654
C95_5 C 0.84947 0.19048 0.51865
C97_4 C 0.77090 0.13594 0.03347
C98_4 C 0.75927 0.13033 0.10772
C99_4 C 0.75809 0.12520 0.30449
C100_5 C 0.74633 0.11903 0.36667
C101_5 C 0.74500 0.11304 0.55257
C102_5 C 0.76715 0.09869 0.59706
C103_5 C 0.77480 0.09673 0.72055
C104_5 C 0.78651 0.10308 0.65671
C105_5 C 0.79388 0.10219 0.80330
C106_5 C 0.80548 0.10804 0.73563
H61_6 H 0.97822 0.33136 0.18446
O1_6 O 0.97810 0.33071 0.04432
H1_6 H 0.97716 0.33666 0.99784
H47_6 H 0.99528 0.40675 0.13878
H64_6 H 0.99126 0.35910 0.67985
H65_6 H 0.98757 0.37060 0.48412
H113_6 H 0.99157 0.55894 0.20017
H114_6 H 0.98260 0.56122 0.05619
H117_6 H 0.97905 0.53997 0.27374
H118_6 H 0.96896 0.54200 0.16101
H119_6 H 0.97509 0.52519 0.04003
H120_6 H 0.96359 0.52264 0.18046
C51_6 C 0.99689 0.35226 0.24727
C52_6 C 0.99544 0.35196 0.44892
C53_6 C 0.99624 0.34428 0.58179
C57_6 C 0.99477 0.35910 0.13689
C58_6 C 0.99121 0.36561 0.21978
C59_6 C 0.99004 0.36545 0.41653
C60_6 C 0.99219 0.35882 0.52851
C70_6 C 0.99000 0.37358 0.10548
C76_6 C 0.99544 0.39241 0.05882
C77_6 C 0.99588 0.38434 0.16157
C103_6 C 0.98860 0.55854 0.05389
C105_6 C 0.97498 0.53946 0.13664
C106_6 C 0.96923 0.52786 0.06897
O4_6 O 0.99368 0.34415 0.75715
H11_4 H 0.99601 0.43802 0.08028
H12_4 H 0.99756 0.42720 0.00079
H13_4 H 0.97399 0.41608 0.13423
H14_4 H 0.96122 0.40451 0.07988
H15_4 H 0.96399 0.41756 0.00316
H16_5 H 0.96161 0.40956 0.41587
H17_4 H 0.95198 0.41151 0.28565
H18_4 H 0.96470 0.43099 0.26103
H19_5 H 0.97505 0.42937 0.36967
H20_6 H 0.96300 0.42199 0.66748
H21_5 H 0.95376 0.42494 0.55147
H22_5 H 0.97124 0.44487 0.51824
H23_6 H 0.96275 0.44053 0.72099
H27_4 H 0.99206 0.50959 0.16520
H28_4 H 0.98438 0.51618 0.14593
H29_4 H 0.99683 0.52127 0.01818
H31_4 H 0.99683 0.53766 0.19658
H32_6 H 0.98704 0.48256 0.86657
H33_6 H 0.97867 0.48816 0.81452
H34_5 H 0.97803 0.47773 0.66543
H35_6 H 0.97485 0.43614 0.89701
H36_6 H 0.98124 0.44972 0.82559
H42_6 H 0.96991 0.38912 0.94290
H43_6 H 0.96385 0.39353 0.76968
H44_6 H 0.96700 0.38342 0.70564
H48_6 H 0.97531 0.35349 0.99282
H49_6 H 0.96665 0.35851 0.92760
H50_6 H 0.97508 0.35753 0.75166
H51_5 H 0.99404 0.54921 0.66308
H55_6 H 0.98831 0.50538 0.68395
H56_5 H 0.97506 0.40921 0.61049
H63_6 H 0.99644 0.35975 0.98655
H66_4 H 0.99289 0.59546 0.27864
H69_6 H 0.97857 0.37689 0.70611
H71_6 H 0.98124 0.42485 0.79299
H82_5 H 0.98626 0.56790 0.39438
H83_5 H 0.98312 0.57725 0.50498
H84_4 H 0.98261 0.57562 0.25081
H85_6 H 0.99673 0.57638 0.72276
H86_6 H 0.98619 0.56284 0.70882
H93_4 H 0.99015 0.47528 0.25942
H97_4 H 0.98534 0.44729 0.22507
H98_4 H 0.97856 0.45465 0.18475
H99_4 H 0.99169 0.45926 0.08497
H115_6 H 0.97917 0.54589 0.85151
H116_6 H 0.98942 0.54444 0.97382
H121_6 H 0.96464 0.52704 0.93727
C6_4 C 0.96529 0.41312 0.11888
C7_4 C 0.96066 0.41449 0.30482
C8_5 C 0.96631 0.42625 0.36699
C9_5 C 0.96238 0.42746 0.56375
C10_5 C 0.96847 0.43909 0.63798
C12_4 C 0.99264 0.51752 0.15301
C16_4 C 0.99985 0.53519 0.31529
C17_4 C 0.99848 0.52486 0.31713
C19_6 C 0.98349 0.48493 0.74973
C20_6 C 0.97789 0.44147 0.77083
C23_6 C 0.96979 0.39085 0.78947
C25_6 C 0.97468 0.35944 0.90273
C27_5 C 0.99962 0.55539 0.56957
C38_5 C 0.99347 0.50331 0.60505
C39_5 C 0.99220 0.49306 0.62335
C40_5 C 0.99903 0.49050 0.52055
C41_6 C 0.98081 0.39925 0.72536
C42_5 C 0.98210 0.40857 0.63813
C43_5 C 0.99231 0.41753 0.60551
C45_6 C 0.99997 0.40656 0.70337
C46_6 C 0.98994 0.39837 0.76337
C62_4 C 0.99988 0.59464 0.30176
C63_5 C 0.99847 0.58484 0.36732
C71_6 C 0.98959 0.38980 0.88659
C72_5 C 0.99286 0.42807 0.57123
C73_5 C 0.99404 0.44825 0.55037
C74_6 C 0.98336 0.37900 0.83407
C75_6 C 0.98309 0.37081 0.94658
C78_6 C 0.98650 0.43059 0.68880
C79_6 C 0.98651 0.44027 0.67132
C81_5 C 0.99933 0.43564 0.43087
C85_5 C 0.98705 0.57586 0.38142
C86_6 C 0.99495 0.56798 0.73056
C89_5 C 0.99791 0.47976 0.53192
C92_5 C 0.99524 0.45904 0.53944
C93_5 C 0.99168 0.46242 0.38094
C94_5 C 0.99300 0.47272 0.37988
C96_4 C 0.98652 0.45544 0.21024
C102_6 C 0.99821 0.56619 0.93040
C104_6 C 0.98324 0.54683 0.99005
H62_4 H 0.68896 0.00235 0.14892
O8_4 O 0.68845 0.00252 0.28905
O14_2 O 0.67082 0.00561 0.13010
O16_3 O 0.67945 0.01213 0.47283
Mg6_2 Mg 0.66819 0.00804 0.67589
H2_4 H 0.85920 0.22805 0.73517
H3_4 H 0.85479 0.22475 0.49196
H4_4 H 0.85729 0.21573 0.63187
H5_4 H 0.87418 0.23865 0.51135
H6_4 H 0.87208 0.22652 0.39826
H7_4 H 0.87650 0.22055 0.69802
H8_4 H 0.87804 0.23228 0.82048
H9_4 H 0.89338 0.24411 0.61551
H10_4 H 0.89102 0.23284 0.47154
H11_5 H 0.89532 0.22466 0.74694
H12_5 H 0.90614 0.23703 0.66745
H13_5 H 0.91726 0.22458 0.80089
H14_5 H 0.92883 0.22338 0.74654
H15_5 H 0.91578 0.21310 0.66982
H17_5 H 0.92183 0.20714 0.95231
H18_5 H 0.90235 0.20038 0.92769
H27_5 H 0.82375 0.14914 0.83186
H28_5 H 0.81716 0.13487 0.81259
H29_5 H 0.81207 0.14223 0.68484
H31_5 H 0.79568 0.12584 0.86324
H37_4 H 0.89504 0.24216 0.96259
H38_4 H 0.90854 0.24504 0.94851
H52_4 H 0.75681 0.10893 0.87863
H53_4 H 0.71951 0.05138 0.37590
H54_4 H 0.70896 0.06352 0.95299
H58_4 H 0.70471 0.04885 0.16836
H60_4 H 0.69163 0.02900 0.65945
H66_5 H 0.73788 0.06410 0.94530
H68_4 H 0.83727 0.18264 0.98812
H73_4 H 0.69089 0.05424 0.86719
H74_4 H 0.68847 0.05191 0.61656
H75_4 H 0.68678 0.04127 0.77156
H76_4 H 0.73952 0.07707 0.53771
H77_4 H 0.74158 0.06627 0.61751
H78_4 H 0.73673 0.06612 0.38305
H79_4 H 0.71546 0.08159 0.96178
H80_4 H 0.72555 0.09489 0.89969
H81_4 H 0.72129 0.08448 0.72547
H84_5 H 0.75772 0.07366 0.91747
H87_4 H 0.78158 0.13388 0.84582
H88_4 H 0.76800 0.12661 0.77448
H90_4 H 0.82004 0.17506 0.85767
H91_4 H 0.81445 0.16109 0.80554
H93_5 H 0.85806 0.18154 0.92608
H97_5 H 0.88605 0.20472 0.89173
H98_5 H 0.87869 0.19058 0.85141
H99_5 H 0.87408 0.19910 0.75163
H100_4 H 0.77229 0.14308 0.95043
C1_4 C 0.86000 0.22428 0.60326
C2_4 C 0.87159 0.23008 0.53550
C3_4 C 0.87894 0.22913 0.68188
C4_4 C 0.89065 0.23542 0.61783
C5_4 C 0.89827 0.23340 0.74112
C6_5 C 0.92022 0.21884 0.78554
C7_5 C 0.91885 0.21284 0.97148
C12_5 C 0.81582 0.14179 0.81967
C16_5 C 0.79815 0.13133 0.98195
C17_5 C 0.80848 0.14029 0.98379
C21_4 C 0.90012 0.23847 0.94089
C29_4 C 0.76257 0.10945 0.98283
C30_4 C 0.71716 0.05411 0.50076
C31_4 C 0.72504 0.06250 0.60817
C32_4 C 0.70326 0.05317 0.70815
C33_4 C 0.71125 0.06095 0.82582
C36_4 C 0.72214 0.06558 0.77913
C37_4 C 0.70630 0.04922 0.55014
C47_4 C 0.69280 0.03262 0.11608
C48_4 C 0.69913 0.04128 0.23272
C49_4 C 0.69848 0.04021 0.43008
C50_4 C 0.69145 0.03015 0.50889
C54_4 C 0.67786 0.01469 0.06594
C55_4 C 0.68535 0.02257 0.19150
C56_4 C 0.68505 0.02128 0.39341
C61_4 C 0.73052 0.07372 0.90643
C62_5 C 0.73870 0.07191 0.96842
C66_4 C 0.73133 0.08370 0.94463
C82_4 C 0.69172 0.04993 0.74342
C83_4 C 0.73636 0.06830 0.53302
C84_4 C 0.72293 0.08629 0.87922
C87_4 C 0.77334 0.12894 0.90063
C88_4 C 0.81682 0.16701 0.92241
C96_5 C 0.87790 0.19775 0.87690
H59_4 H 0.69379 0.03392 0.96528
H62_5 H 0.66432 0.01994 0.48225
H122_5 H 0.67026 0.02610 0.66665
O5_4 O 0.67804 0.01684 0.88827
O8_5 O 0.66415 0.01926 0.62238
O16_4 O 0.65453 0.00065 0.80617
H53_5 H 0.61528 0.00146 0.70924
H77_5 H 0.60039 0.00864 0.95085
H78_5 H 0.60054 0.00394 0.71639
C83_5 C 0.59836 0.00139 0.86636
H2_5 H 0.70219 0.80747 0.40184
H3_5 H 0.70330 0.81188 0.15863
H4_5 H 0.69178 0.80938 0.29854
H5_5 H 0.69781 0.79249 0.17802
H6_5 H 0.68778 0.79459 0.06493
H7_5 H 0.67739 0.79017 0.36469
H8_5 H 0.68758 0.78863 0.48715
H9_5 H 0.68407 0.77329 0.28218
H10_5 H 0.67516 0.77565 0.13821
H11_6 H 0.66268 0.77135 0.41361
H12_6 H 0.66423 0.76053 0.33412
H13_6 H 0.64066 0.74941 0.46756
H14_6 H 0.62789 0.73784 0.41321
H15_6 H 0.63066 0.75089 0.33649
H16_6 H 0.62828 0.74289 0.74920
H17_6 H 0.61865 0.74484 0.61898
H18_6 H 0.63137 0.76432 0.59436
H19_6 H 0.64172 0.76270 0.70300
H21_6 H 0.62043 0.75827 0.88480
H22_6 H 0.63791 0.77820 0.85157
H27_6 H 0.65873 0.84292 0.49853
H28_6 H 0.65105 0.84951 0.47926
H29_6 H 0.66350 0.85460 0.35151
H31_6 H 0.66350 0.87099 0.52991
H34_6 H 0.64470 0.81106 0.99876
H37_5 H 0.68046 0.77163 0.62926
H38_5 H 0.66984 0.75813 0.61518
H40_5 H 0.68347 0.75723 0.83400
H41_5 H 0.68038 0.76663 0.94407
H51_6 H 0.66071 0.88254 0.99641
H52_5 H 0.68546 0.90986 0.54530
H53_6 H 0.66521 0.94716 0.04257
H54_5 H 0.68790 0.95771 0.61966
H56_6 H 0.64173 0.74254 0.94382
H60_5 H 0.67071 0.97504 0.32612
H66_6 H 0.65956 0.92879 0.61197
H67_5 H 0.69155 0.92548 0.72754
H68_5 H 0.67871 0.82940 0.65479
H72_5 H 0.67276 0.78541 0.67510
H73_5 H 0.69669 0.97578 0.53386
H74_5 H 0.69678 0.97820 0.28323
H75_5 H 0.68783 0.97989 0.43823
H76_5 H 0.67089 0.92715 0.20438
H77_6 H 0.65803 0.92509 0.28418
H78_6 H 0.66273 0.92994 0.04972
H79_5 H 0.69947 0.95121 0.62845
H80_5 H 0.70268 0.94112 0.56636
H81_5 H 0.69653 0.94538 0.39214
H82_6 H 0.65293 0.90123 0.72771
H83_6 H 0.64979 0.91058 0.83831
H84_6 H 0.64928 0.90895 0.58414
H87_5 H 0.68564 0.88509 0.51249
H88_5 H 0.69195 0.89867 0.44115
H89_5 H 0.68898 0.85705 0.67338
H90_5 H 0.68836 0.84663 0.52434
H91_5 H 0.67998 0.85222 0.47221
H93_6 H 0.65682 0.80861 0.59275
H97_6 H 0.65201 0.78062 0.55840
H98_6 H 0.64523 0.78798 0.51808
H99_6 H 0.65836 0.79259 0.41830
H100_5 H 0.70413 0.89438 0.61710
H101_5 H 0.69564 0.88999 0.81987
H102_5 H 0.71304 0.90998 0.78665
H103_5 H 0.70374 0.91285 0.67067
H104_5 H 0.69171 0.90541 0.96849
H107_5 H 0.70506 0.92525 0.92226
C1_5 C 0.69762 0.80667 0.26993
C2_5 C 0.69183 0.79508 0.20217
C3_5 C 0.68353 0.78773 0.34855
C4_5 C 0.67811 0.77602 0.28450
C5_5 C 0.66847 0.76840 0.40779
C6_6 C 0.63196 0.74645 0.45221
C7_6 C 0.62733 0.74782 0.63815
C8_6 C 0.63298 0.75958 0.70032
C9_6 C 0.62905 0.76079 0.89708
C10_6 C 0.63514 0.77242 0.97131
C12_6 C 0.65931 0.85085 0.48634
C13_5 C 0.67398 0.86207 0.95838
C14_5 C 0.67525 0.87235 0.95720
C15_5 C 0.67165 0.87569 0.79865
C16_6 C 0.66652 0.86852 0.64862
C17_6 C 0.66515 0.85819 0.65046
C18_5 C 0.66908 0.85501 0.80645
C21_5 C 0.67169 0.76655 0.60756
C22_5 C 0.67955 0.75866 0.95740
C26_5 C 0.66737 0.89896 0.90736
C27_6 C 0.66629 0.88872 0.90290
C28_5 C 0.68028 0.89447 0.66687
C29_5 C 0.68022 0.90410 0.64950
C30_5 C 0.67029 0.94951 0.16743
C31_5 C 0.67080 0.94163 0.27484
C32_5 C 0.68325 0.96341 0.37482
C33_5 C 0.68304 0.95542 0.49249
C34_5 C 0.67279 0.88646 0.78780
C35_5 C 0.67381 0.90657 0.76716
C36_5 C 0.67678 0.94453 0.44580
C37_5 C 0.67626 0.96037 0.21681
C38_6 C 0.66014 0.83664 0.93838
C39_6 C 0.65887 0.82639 0.95668
C40_6 C 0.66570 0.82383 0.85388
C42_6 C 0.64877 0.74190 0.97146
C43_6 C 0.65898 0.75086 0.93884
C44_5 C 0.66810 0.74971 0.97149
C49_5 C 0.67507 0.96819 0.09675
C50_5 C 0.67204 0.97522 0.17556
C56_5 C 0.66957 0.98162 0.06008
C61_5 C 0.67654 0.93615 0.57310
C62_6 C 0.66655 0.92797 0.63509
C63_6 C 0.66514 0.91817 0.70065
C64_5 C 0.67430 0.91709 0.73300
C65_5 C 0.68449 0.92608 0.69985
C66_5 C 0.68571 0.93534 0.61130
C67_5 C 0.66799 0.84428 0.81818
C68_5 C 0.67483 0.84173 0.71545
C69_5 C 0.67354 0.83147 0.73374
C72_6 C 0.65953 0.76140 0.90456
C73_6 C 0.66071 0.78158 0.88370
C80_5 C 0.66716 0.77925 0.76862
C81_6 C 0.66600 0.76897 0.76420
C82_5 C 0.69155 0.97495 0.41009
C83_6 C 0.66528 0.93031 0.19969
C84_5 C 0.69670 0.94374 0.54589
C85_6 C 0.65372 0.90919 0.71475
C87_5 C 0.68894 0.89333 0.56730
C88_5 C 0.68353 0.84985 0.58908
C89_6 C 0.66458 0.81309 0.86525
C92_6 C 0.66191 0.79237 0.87277
C93_6 C 0.65835 0.79575 0.71427
C94_6 C 0.65967 0.80605 0.71321
C96_6 C 0.65319 0.78877 0.54357
C97_5 C 0.69838 0.89577 0.70014
C98_5 C 0.70440 0.90740 0.77439
C99_5 C 0.70045 0.90858 0.97116
O7_2 O 0.66602 0.98722 0.13950
Mg7_2 Mg 0.65862 0.99348 0.00923
Mg8_2 Mg 0.67319 0.99848 0.34256
H58_5 H 0.67748 0.96196 0.83503
H59_5 H 0.67347 0.97288 0.63195
H122_6 H 0.68918 0.99641 0.33332
C47_5 C 0.67316 0.97387 0.78275
C48_5 C 0.67549 0.96754 0.89939
C54_5 C 0.67017 0.98881 0.73261
C55_5 C 0.67056 0.98132 0.85817
O5_5 O 0.67214 0.98863 0.55494
O6_2 O 0.66813 0.99585 0.79677
O13_2 O 0.66105 0.99854 0.46344
H2_6 H 0.43861 0.96448 0.06851
H7_6 H 0.44611 0.98928 0.03136
H8_6 H 0.43438 0.97909 0.15382
H24_6 H 0.53362 0.99146 0.91980
H25_6 H 0.52514 0.97831 0.82007
H26_6 H 0.53928 0.98515 0.77961
H30_6 H 0.51602 0.98983 0.74560
H37_6 H 0.42450 0.98621 0.29593
H38_6 H 0.42162 0.99683 0.28185
H39_6 H 0.40823 0.98270 0.75480
H40_6 H 0.40709 0.98320 0.50067
H41_6 H 0.41958 0.98629 0.61074
H52_6 H 0.55773 0.98121 0.21197
H54_6 H 0.60314 0.97877 0.28633
H57_6 H 0.39875 0.99307 0.72663
H67_6 H 0.56726 0.97512 0.39421
H68_6 H 0.48402 0.98796 0.32146
H72_6 H 0.44598 0.99391 0.34177
H73_6 H 0.61242 0.96998 0.20053
H75_6 H 0.62539 0.97884 0.10490
H79_6 H 0.58507 0.96720 0.29512
H80_6 H 0.57177 0.96399 0.23303
H81_6 H 0.58218 0.97014 0.05881
H87_6 H 0.53278 0.98103 0.17916
H88_6 H 0.54005 0.97472 0.10782
H89_6 H 0.50140 0.97769 0.34005
H90_6 H 0.49160 0.97831 0.19101
H91_6 H 0.50557 0.98669 0.13888
H92_6 H 0.46029 0.99659 0.80818
H94_6 H 0.47664 0.99651 0.98678
H95_6 H 0.46924 0.98407 0.85908
H96_6 H 0.48351 0.99170 0.83988
H100_6 H 0.52358 0.96254 0.28377
H101_6 H 0.52768 0.97103 0.48654
H102_6 H 0.53027 0.95363 0.45332
H103_6 H 0.54244 0.96293 0.33734
H104_6 H 0.54703 0.97496 0.63516
H105_6 H 0.53509 0.96456 0.74379
H106_6 H 0.54197 0.95194 0.71923
H107_6 H 0.55352 0.96161 0.58893
H109_6 H 0.55821 0.96127 0.92486
H110_6 H 0.55932 0.97401 0.87053
H112_6 H 0.55924 0.99596 0.92466
C3_6 C 0.43753 0.98314 0.01522
C5_6 C 0.43326 0.99820 0.07446
C11_6 C 0.53228 0.98628 0.79452
C13_6 C 0.52142 0.99269 0.62505
C14_6 C 0.53043 0.99142 0.62387
C15_6 C 0.53737 0.99502 0.46532
C18_6 C 0.51926 0.99759 0.47312
C21_6 C 0.42819 0.99498 0.27423
C22_6 C 0.41244 0.98712 0.62407
C26_6 C 0.56492 0.99930 0.57403
C28_6 C 0.54752 0.98639 0.33354
C29_6 C 0.55721 0.98645 0.31617
C32_6 C 0.61349 0.98342 0.04149
C33_6 C 0.60571 0.98363 0.15916
C34_6 C 0.54700 0.99388 0.45447
C35_6 C 0.56609 0.99286 0.43383
C36_6 C 0.60108 0.98989 0.11247
C44_6 C 0.41494 0.99857 0.63816
C61_6 C 0.59294 0.99013 0.23977
C64_6 C 0.57612 0.99237 0.39967
C65_6 C 0.57492 0.98218 0.36652
C66_6 C 0.58296 0.98096 0.27797
C67_6 C 0.50962 0.99868 0.48485
C68_6 C 0.50023 0.99184 0.38212
C69_6 C 0.49126 0.99313 0.40041
C80_6 C 0.44542 0.99951 0.43529
C82_6 C 0.61673 0.97512 0.07676
C84_6 C 0.58037 0.96997 0.21256
C87_6 C 0.53772 0.97773 0.23397
C88_6 C 0.49965 0.98314 0.25575
C90_6 C 0.47472 0.99818 0.68780
C91_6 C 0.46579 0.99960 0.68949
C95_6 C 0.47618 0.99232 0.85199
C97_6 C 0.53072 0.96829 0.36681
C98_6 C 0.53633 0.96227 0.44106
C99_6 C 0.54146 0.96622 0.63783
C100_6 C 0.54763 0.96063 0.70001
C101_6 C 0.55362 0.96529 0.88591
H3_6 H 0.44191 0.96337 0.82530
H4_6 H 0.45093 0.97489 0.96521
H5_6 H 0.42801 0.96886 0.84469
H6_6 H 0.44014 0.97889 0.73160
H9_6 H 0.42255 0.98260 0.94885
H10_6 H 0.43382 0.99151 0.80488
H58_6 H 0.61781 0.98919 0.50170
H59_6 H 0.63274 0.99320 0.29862
H60_6 H 0.63766 0.99596 0.99279
H74_6 H 0.61475 0.96989 0.94990
H76_6 H 0.58959 0.99578 0.87105
H122_7 H 0.64056 0.97749 -0.00001
C1_6 C 0.44238 0.96905 0.93660
C2_6 C 0.43658 0.97484 0.86884
C4_6 C 0.43124 0.98856 0.95117
C30_6 C 0.61255 0.99638 0.83410
C31_6 C 0.60416 0.99587 0.94151
C37_6 C 0.61744 0.99041 0.88348
C47_6 C 0.63404 0.99351 0.44942
C48_6 C 0.62538 0.99118 0.56606
C49_6 C 0.62645 0.99160 0.76342
C50_6 C 0.63651 0.99463 0.84223
C54_6 C 0.65197 0.99650 0.39928
C55_6 C 0.64409 0.99611 0.52484
C56_6 C 0.64538 0.99710 0.72675
O5_6 O 0.64982 0.99453 0.22161
H62_6 H 0.64672 0.97771 0.81559
H122_8 H 0.64056 0.97749 0.99999
O8_6 O 0.64740 0.97822 0.95572
O11_3 O 0.33257 0.00452 0.18835
O12_3 O 0.33862 0.00077 0.52169
Mg4_3 Mg 0.34154 0.00694 0.96949
Mg5_3 Mg 0.32640 0.00127 0.63615
H1_7 H 0.31050 0.00332 0.66450
H64_7 H 0.32460 0.02576 0.34651
H65_7 H 0.32091 0.03726 0.15078
C52_7 C 0.32878 0.01862 0.11558
C53_7 C 0.32958 0.01094 0.24845
C59_7 C 0.32338 0.03211 0.08319
C60_7 C 0.32553 0.02548 0.19517
O4_7 O 0.32702 0.01081 0.42381
O10_5 O 0.33493 0.01373 0.81971
H16_7 H 0.29495 0.07622 0.08253
H19_7 H 0.30839 0.09603 0.03633
H20_7 H 0.29634 0.08865 0.33414
H21_7 H 0.28710 0.09160 0.21813
H22_7 H 0.30458 0.11153 0.18490
H23_7 H 0.29609 0.10719 0.38765
H24_7 H 0.34188 0.20883 0.58646
H25_7 H 0.35503 0.21350 0.48673
H26_7 H 0.34819 0.22080 0.44627
H30_7 H 0.34351 0.19286 0.41226
H32_7 H 0.32038 0.14922 0.53323
H33_7 H 0.31201 0.15482 0.48118
H34_7 H 0.31137 0.14439 0.33209
H35_7 H 0.30819 0.10280 0.56367
H36_7 H 0.31458 0.11638 0.49225
H39_7 H 0.35064 0.09220 0.42146
H40_7 H 0.35014 0.09056 0.16733
H41_7 H 0.34705 0.09996 0.27740
H42_7 H 0.30325 0.05578 0.60956
H43_7 H 0.29719 0.06019 0.43634
H44_7 H 0.30034 0.05008 0.37230
H45_7 H 0.33679 0.07041 0.95580
H46_7 H 0.34150 0.07564 0.72319
H47_7 H 0.32862 0.07341 0.80544
H48_7 H 0.30865 0.02015 0.65948
H49_7 H 0.29999 0.02517 0.59426
H50_7 H 0.30842 0.02419 0.41832
H51_7 H 0.32738 0.21587 0.32974
H55_7 H 0.32165 0.17204 0.35061
H56_7 H 0.30840 0.07587 0.27715
H57_7 H 0.34027 0.07235 0.39329
H63_7 H 0.32978 0.02641 0.65321
H67_7 H 0.35822 0.25881 0.06087
H69_7 H 0.31191 0.04355 0.37277
H70_7 H 0.33418 0.05311 0.95453
H71_7 H 0.31458 0.09151 0.45965
H72_7 H 0.33943 0.11874 0.00843
H82_7 H 0.31960 0.23456 0.06104
H83_7 H 0.31646 0.24391 0.17164
H85_7 H 0.33007 0.24304 0.38942
H86_7 H 0.31953 0.22950 0.37548
H89_7 H 0.35565 0.19038 0.00671
H92_7 H 0.33675 0.13037 0.47484
H94_7 H 0.33683 0.14680 0.65344
H95_7 H 0.34927 0.15184 0.52574
H96_7 H 0.34164 0.15848 0.50654
H101_7 H 0.36231 0.22332 0.15320
H102_7 H 0.37971 0.24331 0.11998
H103_7 H 0.37041 0.24618 0.00400
H104_7 H 0.35838 0.23874 0.30182
H105_7 H 0.36878 0.23720 0.41045
H106_7 H 0.38140 0.25670 0.38589
H107_7 H 0.37173 0.25858 0.25559
H108_7 H 0.36938 0.25058 0.66833
H109_7 H 0.37207 0.26361 0.59152
H110_7 H 0.35933 0.25198 0.53719
H111_7 H 0.33576 0.24073 0.67048
H112_7 H 0.33738 0.22995 0.59132
H113_7 H 0.32491 0.22560 0.86683
H114_7 H 0.31594 0.22788 0.72285
H115_7 H 0.31251 0.21255 0.51817
H116_7 H 0.32276 0.21110 0.64048
H117_7 H 0.31239 0.20663 0.94040
H118_7 H 0.30230 0.20866 0.82767
H119_7 H 0.30843 0.19185 0.70669
H120_7 H 0.29693 0.18930 0.84712
H121_7 H 0.29798 0.19370 0.60393
C8_7 C 0.29965 0.09291 0.03365
C9_7 C 0.29572 0.09412 0.23041
C10_7 C 0.30181 0.10575 0.30464
C11_7 C 0.34706 0.21267 0.46118
C13_7 C 0.34065 0.19540 0.29171
C14_7 C 0.34192 0.20568 0.29053
C15_7 C 0.33832 0.20902 0.13198
C18_7 C 0.33575 0.18834 0.13978
C19_7 C 0.31683 0.15159 0.41639
C20_7 C 0.31123 0.10813 0.43749
C22_7 C 0.34622 0.09199 0.29073
C23_7 C 0.30313 0.05751 0.45613
C24_7 C 0.33425 0.07027 0.80641
C25_7 C 0.30802 0.02610 0.56939
C26_7 C 0.33404 0.23229 0.24069
C27_7 C 0.33296 0.22205 0.23623
C28_7 C 0.34695 0.22780 0.00020
C34_7 C 0.33946 0.21979 0.12113
C35_7 C 0.34048 0.23990 0.10049
C38_7 C 0.32681 0.16997 0.27171
C39_7 C 0.32554 0.15972 0.29001
C40_7 C 0.33237 0.15716 0.18721
C41_7 C 0.31415 0.06591 0.39202
C42_7 C 0.31544 0.07523 0.30479
C43_7 C 0.32565 0.08419 0.27217
C44_7 C 0.33477 0.08304 0.30482
C45_7 C 0.33331 0.07322 0.37003
C46_7 C 0.32328 0.06503 0.43003
C51_7 C 0.33023 0.01892 0.91393
C57_7 C 0.32811 0.02576 0.80355
C58_7 C 0.32455 0.03227 0.88644
C63_7 C 0.33181 0.25150 0.03398
C64_7 C 0.34097 0.25042 0.06633
C65_7 C 0.35116 0.25941 0.03318
C67_7 C 0.33466 0.17761 0.15151
C68_7 C 0.34150 0.17506 0.04878
C69_7 C 0.34021 0.16480 0.06707
C70_7 C 0.32334 0.04024 0.77214
C71_7 C 0.32293 0.05646 0.55325
C72_7 C 0.32620 0.09473 0.23789
C73_7 C 0.32738 0.11491 0.21703
C74_7 C 0.31670 0.04566 0.50073
C75_7 C 0.31643 0.03747 0.61324
C76_7 C 0.32878 0.05907 0.72548
C77_7 C 0.32922 0.05100 0.82823
C78_7 C 0.31984 0.09725 0.35546
C79_7 C 0.31985 0.10693 0.33798
C80_7 C 0.33383 0.11258 0.10195
C81_7 C 0.33267 0.10230 0.09753
C85_7 C 0.32039 0.24252 0.04808
C86_7 C 0.32829 0.23464 0.39722
C89_7 C 0.33125 0.14642 0.19858
C90_7 C 0.33516 0.14321 0.35446
C91_7 C 0.33374 0.13286 0.35615
C92_7 C 0.32858 0.12570 0.20610
C93_7 C 0.32502 0.12908 0.04760
C94_7 C 0.32634 0.13938 0.04654
C95_7 C 0.34102 0.15053 0.51865
C97_7 C 0.36505 0.22910 0.03347
C98_7 C 0.37107 0.24073 0.10772
C99_7 C 0.36712 0.24191 0.30449
C100_7 C 0.37271 0.25367 0.36667
C101_7 C 0.36805 0.25500 0.55257
C102_7 C 0.33155 0.23285 0.59706
C103_7 C 0.32194 0.22520 0.72055
C104_7 C 0.31658 0.21349 0.65671
C105_7 C 0.30832 0.20612 0.80330
C106_7 C 0.30257 0.19452 0.73563
H61_7 H 0.35313 0.02178 0.18446
O1_7 O 0.35260 0.02190 0.04432
H1_8 H 0.35949 0.02284 0.99784
H47_8 H 0.41146 0.00472 0.13878
H64_8 H 0.36783 0.00874 0.67985
H65_8 H 0.38302 0.01243 0.48412
H113_8 H 0.56736 0.00843 0.20017
H114_8 H 0.57861 0.01740 0.05619
H117_8 H 0.56091 0.02095 0.27374
H118_8 H 0.57303 0.03104 0.16101
H119_8 H 0.55009 0.02491 0.04003
H120_8 H 0.55904 0.03641 0.18046
C51_8 C 0.35536 0.00311 0.24727
C52_8 C 0.35651 0.00456 0.44892
C53_8 C 0.34803 0.00376 0.58179
C57_8 C 0.36432 0.00523 0.13689
C58_8 C 0.37439 0.00879 0.21978
C59_8 C 0.37540 0.00996 0.41653
C60_8 C 0.36662 0.00781 0.52851
C70_8 C 0.38357 0.01000 0.10548
C76_8 C 0.39696 0.00456 0.05882
C77_8 C 0.38845 0.00412 0.16157
C103_8 C 0.56993 0.01140 0.05389
C105_8 C 0.56447 0.02502 0.13664
C106_8 C 0.55862 0.03077 0.06897
O4_8 O 0.35046 0.00632 0.75715
H11_7 H 0.44200 0.00399 0.08028
H12_7 H 0.42963 0.00244 0.00079
H13_7 H 0.44208 0.02601 0.13423
H14_7 H 0.44328 0.03878 0.07988
H15_7 H 0.45356 0.03601 0.00316
H16_8 H 0.44794 0.03839 0.41587
H17_7 H 0.45952 0.04802 0.28565
H18_7 H 0.46628 0.03530 0.26103
H19_8 H 0.45431 0.02495 0.36967
H20_8 H 0.45898 0.03700 0.66748
H21_8 H 0.47117 0.04624 0.55147
H22_8 H 0.47362 0.02876 0.51824
H23_8 H 0.47777 0.03725 0.72099
H27_7 H 0.51752 0.00794 0.16520
H28_7 H 0.53179 0.01562 0.14593
H29_7 H 0.52443 0.00317 0.01818
H31_7 H 0.54082 0.00317 0.19658
H32_8 H 0.49551 0.01296 0.86657
H33_8 H 0.50948 0.02133 0.81452
H34_8 H 0.49969 0.02197 0.66543
H35_8 H 0.46128 0.02515 0.89701
H36_8 H 0.46847 0.01876 0.82559
H42_8 H 0.41920 0.03009 0.94290
H43_8 H 0.42967 0.03615 0.76968
H44_8 H 0.41641 0.03300 0.70564
H48_8 H 0.37817 0.02469 0.99282
H49_8 H 0.39185 0.03335 0.92760
H50_8 H 0.38244 0.02492 0.75166
H51_8 H 0.55516 0.00596 0.66308
H55_8 H 0.51706 0.01169 0.68395
H56_8 H 0.43414 0.02494 0.61049
H63_8 H 0.36330 0.00356 0.98655
H66_7 H 0.60256 0.00711 0.27864
H69_8 H 0.39831 0.02143 0.70611
H71_8 H 0.44360 0.01876 0.79299
H82_8 H 0.58163 0.01374 0.39438
H83_8 H 0.59412 0.01688 0.50498
H84_7 H 0.59300 0.01739 0.25081
H85_8 H 0.57964 0.00327 0.72276
H86_8 H 0.57664 0.01381 0.70882
H93_7 H 0.48512 0.00985 0.25942
H97_7 H 0.46194 0.01466 0.22507
H98_7 H 0.47608 0.02144 0.18475
H99_7 H 0.46756 0.00831 0.08497
H115_8 H 0.56671 0.02083 0.85151
H116_8 H 0.55501 0.01058 0.97382
H121_8 H 0.56239 0.03536 0.93727
C6_7 C 0.44782 0.03471 0.11888
C7_7 C 0.45382 0.03934 0.30482
C8_8 C 0.45993 0.03369 0.36699
C9_8 C 0.46507 0.03762 0.56375
C10_8 C 0.47061 0.03153 0.63798
C12_7 C 0.52487 0.00736 0.15301
C16_7 C 0.53533 0.00015 0.31529
C17_7 C 0.52637 0.00152 0.31713
C19_8 C 0.50143 0.01651 0.74973
C20_8 C 0.46357 0.02211 0.77083
C23_8 C 0.42105 0.03021 0.78947
C25_8 C 0.38475 0.02532 0.90273
C27_8 C 0.55576 0.00038 0.56957
C38_8 C 0.50983 0.00653 0.60505
C39_8 C 0.50085 0.00780 0.62335
C40_8 C 0.49146 0.00097 0.52055
C41_8 C 0.41843 0.01919 0.72536
C42_8 C 0.42646 0.01790 0.63813
C43_8 C 0.42521 0.00769 0.60551
C45_8 C 0.40658 0.00003 0.70337
C46_8 C 0.40842 0.01006 0.76337
C62_7 C 0.59475 0.00012 0.30176
C63_8 C 0.58636 0.00153 0.36732
C71_8 C 0.40020 0.01041 0.88659
C72_8 C 0.43520 0.00714 0.57123
C73_8 C 0.45420 0.00596 0.55037
C74_8 C 0.39563 0.01664 0.83407
C75_8 C 0.38771 0.01691 0.94658
C78_8 C 0.44408 0.01350 0.68880
C79_8 C 0.45375 0.01349 0.67132
C81_8 C 0.43630 0.00067 0.43087
C85_8 C 0.58880 0.01295 0.38142
C86_8 C 0.57302 0.00505 0.73056
C89_8 C 0.48184 0.00209 0.53192
C92_8 C 0.46379 0.00476 0.53944
C93_8 C 0.47073 0.00832 0.38094
C94_8 C 0.47971 0.00700 0.37988
C96_7 C 0.46891 0.01348 0.21024
C102_8 C 0.56797 0.00179 0.93040
C104_8 C 0.56358 0.01676 0.99005
H1_9 H 0.33001 0.97384 0.33117
H61_8 H 0.33531 0.98020 0.51779
H64_9 H 0.30757 0.96550 0.01318
O1_8 O 0.33596 0.98073 0.37765
O4_9 O 0.32252 0.98287 0.09048
Mg1_3 Mg 0.33206 0.99179 0.30282
O9_3 O 0.34547 0.99841 0.15305
O10_6 O 0.31960 0.98786 0.48638
H20_9 H 0.24468 0.87435 0.00081
H23_9 H 0.22614 0.85556 0.05432
H24_8 H 0.12450 0.79971 0.25313
H25_8 H 0.11983 0.80819 0.15340
H26_8 H 0.11253 0.79405 0.11294
H30_8 H 0.14047 0.81731 0.07893
H32_9 H 0.18411 0.83782 0.19990
H33_9 H 0.17851 0.82385 0.14785
H35_9 H 0.23053 0.87205 0.23034
H36_9 H 0.21695 0.86486 0.15892
H39_8 H 0.24113 0.92510 0.08813
H42_9 H 0.27755 0.91413 0.27623
H43_9 H 0.27314 0.90366 0.10301
H44_9 H 0.28325 0.91692 0.03897
H45_8 H 0.26292 0.93304 0.62247
H46_8 H 0.25769 0.93252 0.38986
H47_9 H 0.25992 0.92187 0.47211
H48_9 H 0.31318 0.95516 0.32615
H49_9 H 0.30816 0.94148 0.26093
H50_9 H 0.30914 0.95089 0.08499
H55_9 H 0.16129 0.81627 0.01728
H57_8 H 0.26098 0.93458 0.05996
H63_9 H 0.30692 0.97003 0.31988
H65_9 H 0.29607 0.95031 0.81745
H69_9 H 0.28978 0.93502 0.03944
H70_8 H 0.28022 0.94773 0.62120
H71_9 H 0.24182 0.88973 0.12632
H85_9 H 0.09029 0.75369 0.05609
H86_9 H 0.10383 0.75669 0.04215
H92_8 H 0.20296 0.87304 0.14151
H94_8 H 0.18653 0.85669 0.32011
H95_8 H 0.18149 0.86409 0.19241
H96_8 H 0.17485 0.84982 0.17321
H105_8 H 0.09613 0.79824 0.07712
H106_8 H 0.07663 0.79136 0.05256
H108_8 H 0.08275 0.78546 0.33500
H109_8 H 0.06972 0.77512 0.25819
H110_8 H 0.08135 0.77401 0.20386
H111_8 H 0.09260 0.76169 0.33715
H112_8 H 0.10338 0.77409 0.25799
H113_9 H 0.10773 0.76597 0.53350
H114_9 H 0.10545 0.75472 0.38952
H115_9 H 0.12078 0.76662 0.18484
H116_9 H 0.12223 0.77832 0.30715
H117_9 H 0.12670 0.77242 0.60707
H118_9 H 0.12467 0.76030 0.49434
H119_9 H 0.14148 0.78324 0.37336
H120_9 H 0.14403 0.77429 0.51379
H121_9 H 0.13963 0.77094 0.27060
C11_8 C 0.12066 0.80105 0.12785
C19_9 C 0.18174 0.83190 0.08306
C20_9 C 0.22520 0.86976 0.10416
C23_9 C 0.27582 0.91228 0.12280
C24_8 C 0.26306 0.93064 0.47308
C25_9 C 0.30723 0.94858 0.23606
C41_9 C 0.26742 0.91490 0.05869
C45_9 C 0.26011 0.92675 0.03670
C46_9 C 0.26830 0.92491 0.09670
C51_9 C 0.31441 0.97797 0.58060
C52_9 C 0.31471 0.97682 0.78225
C53_9 C 0.32239 0.98530 0.91512
C57_9 C 0.30757 0.96901 0.47022
C58_9 C 0.30106 0.95894 0.55311
C59_9 C 0.30122 0.95793 0.74986
C60_9 C 0.30785 0.96671 0.86184
C70_9 C 0.29309 0.94976 0.43881
C71_9 C 0.27687 0.93313 0.21992
C74_9 C 0.28767 0.93770 0.16740
C75_9 C 0.29586 0.94562 0.27991
C76_9 C 0.27426 0.93637 0.39215
C77_9 C 0.28233 0.94488 0.49490
C78_9 C 0.23608 0.88925 0.02213
C79_9 C 0.22640 0.87958 0.00465
C86_9 C 0.09869 0.76031 0.06389
C90_8 C 0.19012 0.85861 0.02113
C91_8 C 0.20047 0.86754 0.02282
C95_8 C 0.18280 0.85715 0.18532
C100_8 C 0.07966 0.78570 0.03334
C101_8 C 0.07833 0.77971 0.21924
C102_9 C 0.10048 0.76536 0.26373
C103_9 C 0.10813 0.76340 0.38722
C104_9 C 0.11984 0.76975 0.32338
C105_9 C 0.12721 0.76886 0.46997
C106_9 C 0.13881 0.77471 0.40230
O3_3 O 0.32881 0.99471 0.85502
H61_9 H 0.31156 0.99802 0.85112
O1_9 O 0.31144 0.99737 0.71098
H45_9 H 0.40029 0.99655 0.28914
H46_9 H 0.40081 0.99184 0.05653
H70_9 H 0.38560 0.99916 0.28787
H108_9 H 0.54787 0.96396 0.00167
H111_9 H 0.57164 0.99758 0.00382
C24_9 C 0.40269 0.99909 0.13975
H2_7 H 0.19253 0.89472 0.40184
H3_7 H 0.18812 0.89142 0.15863
H4_7 H 0.19062 0.88240 0.29854
H5_7 H 0.20751 0.90532 0.17802
H6_7 H 0.20541 0.89319 0.06493
H7_7 H 0.20983 0.88722 0.36469
H8_7 H 0.21137 0.89895 0.48715
H9_7 H 0.22671 0.91078 0.28218
H10_7 H 0.22435 0.89951 0.13821
H11_8 H 0.22865 0.89133 0.41361
H12_8 H 0.23947 0.90370 0.33412
H13_8 H 0.25059 0.89125 0.46756
H14_8 H 0.26216 0.89005 0.41321
H15_8 H 0.24911 0.87977 0.33649
H16_9 H 0.25711 0.88539 0.74920
H17_8 H 0.25516 0.87381 0.61898
H18_8 H 0.23568 0.86705 0.59436
H19_9 H 0.23730 0.87902 0.70300
H21_9 H 0.24173 0.86216 0.88480
H22_9 H 0.22180 0.85971 0.85157
H27_8 H 0.15708 0.81581 0.49853
H28_8 H 0.15049 0.80154 0.47926
H29_8 H 0.14540 0.80890 0.35151
H31_8 H 0.12901 0.79251 0.52991
H34_9 H 0.18894 0.83364 0.99876
H37_7 H 0.22837 0.90883 0.62926
H38_7 H 0.24187 0.91171 0.61518
H40_8 H 0.24277 0.92624 0.83400
H41_8 H 0.23337 0.91375 0.94407
H51_9 H 0.11746 0.77817 0.99641
H52_7 H 0.09014 0.77560 0.54530
H53_7 H 0.05284 0.71805 0.04257
H54_7 H 0.04229 0.73019 0.61966
H56_9 H 0.25746 0.89919 0.94382
H60_7 H 0.02496 0.69567 0.32612
H66_8 H 0.07121 0.73077 0.61197
H67_8 H 0.07452 0.76607 0.72754
H68_7 H 0.17060 0.84931 0.65479
H72_8 H 0.21459 0.88735 0.67510
H73_7 H 0.02422 0.72091 0.53386
H74_7 H 0.02180 0.71858 0.28323
H75_7 H 0.02011 0.70794 0.43823
H76_7 H 0.07285 0.74374 0.20438
H77_7 H 0.07491 0.73294 0.28418
H78_7 H 0.07006 0.73279 0.04972
H79_7 H 0.04879 0.74826 0.62845
H80_7 H 0.05888 0.76156 0.56636
H81_7 H 0.05462 0.75115 0.39214
H82_9 H 0.09877 0.75170 0.72771
H83_9 H 0.08942 0.73921 0.83831
H84_8 H 0.09105 0.74033 0.58414
H87_7 H 0.11491 0.80055 0.51249
H88_7 H 0.10133 0.79328 0.44115
H89_8 H 0.14295 0.83193 0.67338
H90_7 H 0.15337 0.84173 0.52434
H91_7 H 0.14778 0.82776 0.47221
H93_8 H 0.19139 0.84821 0.59275
H97_8 H 0.21938 0.87139 0.55840
H98_8 H 0.21202 0.85725 0.51808
H99_8 H 0.20741 0.86577 0.41830
H100_7 H 0.10562 0.80975 0.61710
H101_8 H 0.11001 0.80565 0.81987
H102_8 H 0.09002 0.80306 0.78665
H103_8 H 0.08715 0.79089 0.67067
H104_8 H 0.09459 0.78630 0.96849
H107_8 H 0.07475 0.77981 0.92226
C1_7 C 0.19333 0.89095 0.26993
C2_7 C 0.20492 0.89675 0.20217
C3_7 C 0.21227 0.89580 0.34855
C4_7 C 0.22398 0.90209 0.28450
C5_7 C 0.23160 0.90007 0.40779
C6_8 C 0.25355 0.88551 0.45221
C7_8 C 0.25218 0.87951 0.63815
C8_9 C 0.24042 0.87340 0.70032
C9_9 C 0.23921 0.86826 0.89708
C10_9 C 0.22758 0.86272 0.97131
C12_8 C 0.14915 0.80846 0.48634
C13_8 C 0.13793 0.81191 0.95838
C14_8 C 0.12765 0.80290 0.95720
C15_8 C 0.12431 0.79596 0.79865
C16_8 C 0.13148 0.79800 0.64862
C17_8 C 0.14181 0.80696 0.65046
C18_8 C 0.14499 0.81407 0.80645
C21_7 C 0.23345 0.90514 0.60756
C22_8 C 0.24134 0.92089 0.95740
C26_8 C 0.10104 0.76841 0.90736
C27_9 C 0.11128 0.77757 0.90290
C28_8 C 0.10553 0.78581 0.66687
C29_7 C 0.09590 0.77612 0.64950
C30_7 C 0.05049 0.72078 0.16743
C31_7 C 0.05837 0.72917 0.27484
C32_7 C 0.03659 0.71984 0.37482
C33_7 C 0.04458 0.72762 0.49249
C34_8 C 0.11354 0.78633 0.78780
C35_8 C 0.09343 0.76724 0.76716
C36_7 C 0.05547 0.73225 0.44580
C37_7 C 0.03963 0.71589 0.21681
C38_9 C 0.16336 0.82350 0.93838
C39_9 C 0.17361 0.83248 0.95668
C40_9 C 0.17617 0.84187 0.85388
C42_9 C 0.25810 0.90687 0.97146
C43_9 C 0.24914 0.90812 0.93884
C44_8 C 0.25029 0.91839 0.97149
C49_7 C 0.03181 0.70688 0.09675
C50_7 C 0.02478 0.69682 0.17556
C56_7 C 0.01838 0.68795 0.06008
C61_7 C 0.06385 0.74039 0.57310
C62_8 C 0.07203 0.73858 0.63509
C63_9 C 0.08183 0.74697 0.70065
C64_8 C 0.08291 0.75721 0.73300
C65_8 C 0.07392 0.75841 0.69985
C66_7 C 0.06466 0.75037 0.61130
C67_8 C 0.15572 0.82371 0.81818
C68_8 C 0.15827 0.83310 0.71545
C69_8 C 0.16853 0.84207 0.73374
C72_9 C 0.23860 0.89813 0.90456
C73_9 C 0.21842 0.87913 0.88370
C80_8 C 0.22075 0.88791 0.76862
C81_9 C 0.23103 0.89703 0.76420
C82_7 C 0.02505 0.71660 0.41009
C83_7 C 0.06969 0.73497 0.19969
C84_7 C 0.05626 0.75296 0.54589
C85_9 C 0.09081 0.74453 0.71475
C87_7 C 0.10667 0.79561 0.56730
C88_7 C 0.15015 0.83368 0.58908
C89_9 C 0.18691 0.85149 0.86525
C92_9 C 0.20763 0.86954 0.87277
C93_9 C 0.20425 0.86260 0.71427
C94_9 C 0.19395 0.85362 0.71321
C96_8 C 0.21123 0.86442 0.54357
C97_8 C 0.10423 0.80261 0.70014
C98_8 C 0.09260 0.79700 0.77439
C99_8 C 0.09142 0.79187 0.97116
O7_3 O 0.01278 0.67880 0.13950
Mg7_3 Mg 0.00652 0.66515 0.00923
Mg8_3 Mg 0.00152 0.67471 0.34256
H58_7 H 0.03804 0.71552 0.83503
H59_7 H 0.02712 0.70059 0.63195
H122_9 H 0.00359 0.69277 0.33332
C47_7 C 0.02613 0.69929 0.78275
C48_7 C 0.03246 0.70795 0.89939
C54_7 C 0.01119 0.68136 0.73261
C55_7 C 0.01868 0.68924 0.85817
O5_7 O 0.01137 0.68351 0.55494
O6_3 O 0.00415 0.67228 0.79677
O13_3 O 0.00146 0.66252 0.46344
H2_8 H 0.03552 0.47414 0.06851
H7_8 H 0.01072 0.45684 0.03136
H8_8 H 0.02091 0.45530 0.15382
H24_9 H 0.00854 0.54217 0.91980
H25_9 H 0.02169 0.54684 0.82007
H26_9 H 0.01485 0.55414 0.77961
H30_9 H 0.01017 0.52620 0.74560
H37_8 H 0.01379 0.43830 0.29593
H38_8 H 0.00317 0.42480 0.28185
H39_9 H 0.01730 0.42554 0.75480
H40_9 H 0.01680 0.42390 0.50067
H41_9 H 0.01371 0.43330 0.61074
H52_8 H 0.01879 0.57653 0.21197
H54_8 H 0.02123 0.62438 0.28633
H57_9 H 0.00693 0.40569 0.72663
H67_9 H 0.02488 0.59215 0.39421
H68_8 H 0.01204 0.49607 0.32146
H72_9 H 0.00609 0.45208 0.34177
H73_8 H 0.03002 0.64245 0.20053
H75_8 H 0.02116 0.64656 0.10490
H79_8 H 0.03280 0.61788 0.29512
H80_8 H 0.03601 0.60779 0.23303
H81_8 H 0.02986 0.61205 0.05881
H87_8 H 0.01897 0.55176 0.17916
H88_8 H 0.02528 0.56534 0.10782
H89_9 H 0.02231 0.52372 0.34005
H90_8 H 0.02169 0.51330 0.19101
H91_8 H 0.01331 0.51889 0.13888
H92_9 H 0.00341 0.46371 0.80818
H94_9 H 0.00349 0.48014 0.98678
H95_9 H 0.01593 0.48518 0.85908
H96_9 H 0.00830 0.49182 0.83988
H100_8 H 0.03746 0.56105 0.28377
H101_9 H 0.02897 0.55666 0.48654
H102_9 H 0.04637 0.57665 0.45332
H103_9 H 0.03707 0.57952 0.33734
H104_9 H 0.02504 0.57208 0.63516
H105_9 H 0.03544 0.57054 0.74379
H106_9 H 0.04806 0.59004 0.71923
H107_9 H 0.03839 0.59192 0.58893
H109_9 H 0.03873 0.59695 0.92486
H110_9 H 0.02599 0.58532 0.87053
H112_9 H 0.00404 0.56329 0.92466
C3_8 C 0.01686 0.45440 0.01522
C5_8 C 0.00180 0.43507 0.07446
C11_9 C 0.01372 0.54601 0.79452
C13_9 C 0.00731 0.52874 0.62505
C14_9 C 0.00858 0.53902 0.62387
C15_9 C 0.00498 0.54236 0.46532
C18_9 C 0.00241 0.52168 0.47312
C21_8 C 0.00502 0.43322 0.27423
C22_9 C 0.01288 0.42533 0.62407
C26_9 C 0.00070 0.56563 0.57403
C28_9 C 0.01361 0.56114 0.33354
C29_8 C 0.01355 0.57077 0.31617
C32_8 C 0.01658 0.63008 0.04149
C33_8 C 0.01637 0.62209 0.15916
C34_9 C 0.00612 0.55313 0.45447
C35_9 C 0.00714 0.57324 0.43383
C36_8 C 0.01011 0.61120 0.11247
C44_9 C 0.00143 0.41638 0.63816
C61_8 C 0.00987 0.60282 0.23977
C64_9 C 0.00763 0.58376 0.39967
C65_9 C 0.01782 0.59275 0.36652
C66_8 C 0.01904 0.60201 0.27797
C67_9 C 0.00132 0.51095 0.48485
C68_9 C 0.00816 0.50840 0.38212
C69_9 C 0.00687 0.49814 0.40041
C80_9 C 0.00049 0.44592 0.43529
C82_8 C 0.02488 0.64162 0.07676
C84_8 C 0.03003 0.61041 0.21256
C87_8 C 0.02227 0.56000 0.23397
C88_8 C 0.01686 0.51652 0.25575
C90_9 C 0.00182 0.47655 0.68780
C91_9 C 0.00040 0.46620 0.68949
C95_9 C 0.00768 0.48387 0.85199
C97_9 C 0.03171 0.56244 0.36681
C98_9 C 0.03773 0.57407 0.44106
C99_9 C 0.03378 0.57525 0.63783
C100_9 C 0.03937 0.58701 0.70001
C101_9 C 0.03471 0.58834 0.88591
H3_8 H 0.03663 0.47855 0.82530
H4_8 H 0.02511 0.47605 0.96521
H5_8 H 0.03114 0.45916 0.84469
H6_8 H 0.02111 0.46126 0.73160
H9_8 H 0.01740 0.43996 0.94885
H10_8 H 0.00849 0.44232 0.80488
H58_8 H 0.01081 0.62863 0.50170
H59_8 H 0.00680 0.63955 0.29862
H60_8 H 0.00404 0.64171 0.99279
H74_8 H 0.03011 0.64487 0.94990
H76_8 H 0.00422 0.59382 0.87105
H122_10 H 0.02251 0.66308 -0.00001
C1_8 C 0.03095 0.47334 0.93660
C2_8 C 0.02516 0.46175 0.86884
C4_8 C 0.01144 0.44269 0.95117
C30_8 C 0.00362 0.61618 0.83410
C31_8 C 0.00413 0.60830 0.94151
C37_8 C 0.00959 0.62704 0.88348
C47_8 C 0.00649 0.64054 0.44942
C48_8 C 0.00882 0.63421 0.56606
C49_8 C 0.00840 0.63486 0.76342
C50_8 C 0.00537 0.64189 0.84223
C54_8 C 0.00350 0.65548 0.39928
C55_8 C 0.00389 0.64799 0.52484
C56_8 C 0.00290 0.64829 0.72675
O5_8 O 0.00547 0.65530 0.22161
H62_7 H 0.02229 0.66902 0.81559
H122_11 H 0.02251 0.66308 0.99999
O8_7 O 0.02178 0.66919 0.95572
H62_8 H 0.99765 0.68661 0.14892
O8_8 O 0.99748 0.68593 0.28905
O14_3 O 0.99439 0.66520 0.13010
O16_5 O 0.98787 0.66731 0.47283
Mg6_3 Mg 0.99196 0.66014 0.67589
H2_9 H 0.77195 0.63114 0.73517
H3_9 H 0.77525 0.63003 0.49196
H4_9 H 0.78427 0.64155 0.63187
H5_9 H 0.76135 0.63552 0.51135
H6_9 H 0.77348 0.64555 0.39826
H7_9 H 0.77945 0.65594 0.69802
H8_9 H 0.76772 0.64575 0.82048
H9_9 H 0.75589 0.64926 0.61551
H10_9 H 0.76716 0.65817 0.47154
H11_9 H 0.77534 0.67065 0.74694
H12_9 H 0.76297 0.66910 0.66745
H13_9 H 0.77542 0.69267 0.80089
H14_9 H 0.77662 0.70544 0.74654
H15_9 H 0.78690 0.70267 0.66982
H17_9 H 0.79286 0.71468 0.95231
H18_9 H 0.79962 0.70196 0.92769
H27_9 H 0.85086 0.67460 0.83186
H28_9 H 0.86513 0.68228 0.81259
H29_9 H 0.85777 0.66983 0.68484
H31_9 H 0.87416 0.66983 0.86324
H37_9 H 0.75784 0.65287 0.96259
H38_9 H 0.75496 0.66349 0.94851
H52_9 H 0.89107 0.64787 0.87863
H53_8 H 0.94862 0.66812 0.37590
H54_9 H 0.93648 0.64543 0.95299
H58_9 H 0.95115 0.65585 0.16836
H60_9 H 0.97100 0.66262 0.65945
H66_9 H 0.93590 0.67377 0.94530
H68_9 H 0.81736 0.65462 0.98812
H73_9 H 0.94576 0.63664 0.86719
H74_9 H 0.94809 0.63655 0.61656
H75_9 H 0.95873 0.64550 0.77156
H76_9 H 0.92293 0.66244 0.53771
H77_8 H 0.93373 0.67530 0.61751
H78_8 H 0.93388 0.67060 0.38305
H79_9 H 0.91841 0.63386 0.96178
H80_9 H 0.90511 0.63065 0.89969
H81_9 H 0.91552 0.63680 0.72547
H84_9 H 0.92634 0.68405 0.91747
H87_9 H 0.86612 0.64769 0.84582
H88_9 H 0.87339 0.64138 0.77448
H90_9 H 0.82494 0.64497 0.85767
H91_9 H 0.83891 0.65335 0.80554
H93_9 H 0.81846 0.67651 0.92608
H97_9 H 0.79528 0.68132 0.89173
H98_9 H 0.80942 0.68810 0.85141
H99_9 H 0.80090 0.67497 0.75163
H100_9 H 0.85692 0.62920 0.95043
C1_9 C 0.77572 0.63571 0.60326
C2_9 C 0.76992 0.64150 0.53550
C3_9 C 0.77087 0.64980 0.68188
C4_9 C 0.76458 0.65522 0.61783
C5_9 C 0.76660 0.66486 0.74112
C6_9 C 0.78116 0.70137 0.78554
C7_9 C 0.78716 0.70600 0.97148
C12_9 C 0.85821 0.67402 0.81967
C16_9 C 0.86867 0.66681 0.98195
C17_9 C 0.85971 0.66818 0.98379
C21_9 C 0.76153 0.66164 0.94089
C29_9 C 0.89055 0.65311 0.98283
C30_9 C 0.94589 0.66304 0.50076
C31_9 C 0.93750 0.66253 0.60817
C32_9 C 0.94683 0.65008 0.70815
C33_9 C 0.93905 0.65029 0.82582
C36_9 C 0.93442 0.65655 0.77913
C37_9 C 0.95078 0.65707 0.55014
C47_9 C 0.96738 0.66017 0.11608
C48_9 C 0.95872 0.65784 0.23272
C49_9 C 0.95979 0.65826 0.43008
C50_9 C 0.96985 0.66129 0.50889
C54_9 C 0.98531 0.66316 0.06594
C55_9 C 0.97743 0.66277 0.19150
C56_9 C 0.97872 0.66376 0.39341
C61_9 C 0.92628 0.65679 0.90643
C62_9 C 0.92809 0.66678 0.96842
C66_9 C 0.91630 0.64762 0.94463
C82_9 C 0.95007 0.64178 0.74342
C83_8 C 0.93170 0.66805 0.53302
C84_9 C 0.91371 0.63663 0.87922
C87_9 C 0.87106 0.64439 0.90063
C88_9 C 0.83299 0.64980 0.92241
C96_9 C 0.80225 0.68014 0.87690
H59_9 H 0.96608 0.65986 0.96528
H62_9 H 0.98006 0.64437 0.48225
H122_12 H 0.97390 0.64415 0.66665
O5_9 O 0.98316 0.66119 0.88827
O8_9 O 0.98074 0.64488 0.62238
O16_6 O 0.99935 0.65389 0.80617
H53_9 H 0.99854 0.61383 0.70924
H77_9 H 0.99136 0.59176 0.95085
H78_9 H 0.99606 0.59661 0.71639
C83_9 C 0.99861 0.59698 0.86636
loop_
_geom_bond_atom_site_label_1
_geom_bond_atom_site_label_2
_geom_bond_site_symmetry_1
_geom_bond_site_symmetry_2
H1 O1 1_555 1_555
H61 O1 1_555 1_555
O1 Mg1 1_555 1_555
Mg1 O4 1_555 1_555
O9 Mg1 1_555 1_555
O10 Mg1 1_555 1_555
H24 C11 1_555 1_555
H25 C11 1_555 1_555
H26 C11 1_555 1_555
H32 C19 1_555 1_555
H33 C19 1_555 1_555
H35 C20 1_555 1_555
H36 C20 1_555 1_555
H42 C23 1_555 1_555
H43 C23 1_555 1_555
H44 C23 1_555 1_555
H45 C24 1_555 1_555
H46 C24 1_555 1_555
H47 C24 1_555 1_555
H48 C25 1_555 1_555
H49 C25 1_555 1_555
H50 C25 1_555 1_555
H57 C45 1_555 1_555
H63 C57 1_555 1_555
H65 C59 1_555 1_555
H69 C74 1_555 1_555
H70 C77 1_555 1_555
H71 C78 1_555 1_555
H85 C86 1_555 1_555
H86 C86 1_555 1_555
H92 C91 1_555 1_555
H94 C95 1_555 1_555
H95 C95 1_555 1_555
H96 C95 1_555 1_555
H106 C100 1_555 1_555
H108 C101 1_555 1_555
H109 C101 1_555 1_555
H110 C101 1_555 1_555
H111 C102 1_555 1_555
H112 C102 1_555 1_555
H113 C103 1_555 1_555
H114 C103 1_555 1_555
H115 C104 1_555 1_555
H116 C104 1_555 1_555
H117 C105 1_555 1_555
H118 C105 1_555 1_555
H119 C106 1_555 1_555
H120 C106 1_555 1_555
H121 C106 1_555 1_555
C20 C79 1_555 1_555
C23 C41 1_555 1_555
C24 C76 1_555 1_555
C25 C75 1_555 1_555
C45 C46 1_555 1_555
C46 C41 1_555 1_555
C51 C52 1_555 1_555
C52 C53 1_555 1_555
C53 O3 1_555 1_555
C57 C51 1_555 1_555
C58 C57 1_555 1_555
C59 C58 1_555 1_555
C60 C52 1_555 1_555
C70 C58 1_555 1_555
C71 C46 1_555 1_555
C74 C71 1_555 1_555
C75 C70 1_555 1_555
C76 C71 1_555 1_555
C77 C70 1_555 1_555
C79 C78 1_555 1_555
C91 C90 1_555 1_555
C95 C90 1_555 1_555
C101 C100 1_555 1_555
C102 C86 1_555 1_555
C103 C102 1_555 1_555
C104 C103 1_555 1_555
C105 C104 1_555 1_555
C106 C105 1_555 1_555
O10 C51 1_555 1_555
C59 C60 1_555 1_555
C74 C75 1_555 1_555
C76 C77 1_555 1_555
H61_2 O1_2 1_555 1_555
H45_2 C24_2 1_555 1_555
H46_2 C24_2 1_555 1_555
H2 C1 1_555 1_555
H3 C1 1_555 1_555
H4 C1 1_555 1_555
H5 C2 1_555 1_555
H6 C2 1_555 1_555
H7 C3 1_555 1_555
H8 C3 1_555 1_555
H9 C4 1_555 1_555
H10 C4 1_555 1_555
H11 C5 1_555 1_555
H12 C5 1_555 1_555
H13 C6 1_555 1_555
H14 C6 1_555 1_555
H15 C6 1_555 1_555
H16 C7 1_555 1_555
H17 C7 1_555 1_555
H18 C8 1_555 1_555
H19 C8 1_555 1_555
H21 C9 1_555 1_555
H22 C10 1_555 1_555
H27 C12 1_555 1_555
H28 C12 1_555 1_555
H29 C12 1_555 1_555
H31 C16 1_555 1_555
H37 C21 1_555 1_555
H38 C21 1_555 1_555
H40 C22 1_555 1_555
H41 C22 1_555 1_555
H51 C27 1_555 1_555
H52 C29 1_555 1_555
H53 C30 1_555 1_555
H54 C33 1_555 1_555
H56 C42 1_555 1_555
H60 C50 1_555 1_555
H66 C62 1_555 1_555
H67 C65 1_555 1_555
H68 C69 1_555 1_555
H72 C80 1_555 1_555
H73 C82 1_555 1_555
H74 C82 1_555 1_555
H75 C82 1_555 1_555
H76 C83 1_555 1_555
H77 C83 1_555 1_555
H78 C83 1_555 1_555
H79 C84 1_555 1_555
H80 C84 1_555 1_555
H81 C84 1_555 1_555
H82 C85 1_555 1_555
H83 C85 1_555 1_555
H84 C85 1_555 1_555
H87 C87 1_555 1_555
H88 C87 1_555 1_555
H89 C88 1_555 1_555
H90 C88 1_555 1_555
H91 C88 1_555 1_555
H93 C94 1_555 1_555
H97 C96 1_555 1_555
H98 C96 1_555 1_555
H99 C96 1_555 1_555
H100 C97 1_555 1_555
H101 C97 1_555 1_555
H102 C98 1_555 1_555
H103 C98 1_555 1_555
H104 C99 1_555 1_555
C1 C2 1_555 1_555
C2 C3 1_555 1_555
C3 C4 1_555 1_555
C4 C5 1_555 1_555
C5 C21 1_555 1_555
C6 C7 1_555 1_555
C7 C8 1_555 1_555
C8 C9 1_555 1_555
C9 C10 1_555 1_555
C12 C17 1_555 1_555
C13 C14 1_555 1_555
C14 C15 1_555 1_555
C15 C16 1_555 1_555
C16 C17 1_555 1_555
C17 C18 1_555 1_555
C18 C13 1_555 1_555
C21 C81 1_555 1_555
C22 C44 1_555 1_555
C26 C27 1_555 1_555
C27 C34 1_555 1_555
C28 C29 1_555 1_555
C29 C35 1_555 1_555
C30 C31 1_555 1_555
C31 C36 1_555 1_555
C32 C33 1_555 1_555
C33 C36 1_555 1_555
C34 C15 1_555 1_555
C35 C26 1_555 1_555
C36 C61 1_555 1_555
C37 C30 1_555 1_555
C38 C39 1_555 1_555
C39 C40 1_555 1_555
C40 C69 1_555 1_555
C42 C43 1_555 1_555
C43 C44 1_555 1_555
C49 C37 1_555 1_555
C50 C49 1_555 1_555
C56 C50 1_555 1_555
C61 C62 1_555 1_555
C62 C63 1_555 1_555
C63 C64 1_555 1_555
C64 C35 1_555 1_555
C65 C64 1_555 1_555
C66 C61 1_555 1_555
C67 C18 1_555 1_555
C68 C67 1_555 1_555
C69 C68 1_555 1_555
C72 C43 1_555 1_555
C80 C73 1_555 1_555
C81 C72 1_555 1_555
C82 C32 1_555 1_555
C83 C31 1_555 1_555
C84 C66 1_555 1_555
C85 C63 1_555 1_555
C87 C28 1_555 1_555
C88 C68 1_555 1_555
C89 C40 1_555 1_555
C92 C73 1_555 1_555
C93 C92 1_555 1_555
C94 C89 1_555 1_555
C96 C93 1_555 1_555
C97 C87 1_555 1_555
C98 C97 1_555 1_555
C99 C98 1_555 1_555
O7 C56 1_555 1_555
Mg8 O7 1_555 1_555
C28 C34 1_555 1_555
C32 C37 1_555 1_555
C38 C67 1_555 1_555
C65 C66 1_555 1_555
C80 C81 1_555 1_555
C93 C94 1_555 1_555
O7 Mg7 1_555 1_555
H58 C48 1_555 1_555
H59 C47 1_555 1_555
H62 O8 1_555 1_555
H122 O8 1_555 1_555
C47 C48 1_555 1_555
C54 C55 1_555 1_555
C55 C47 1_555 1_555
O5 C54 1_555 1_555
O6 C54 1_555 1_555
O8 Mg8 1_555 1_555
Mg8 O5 1_555 1_555
O13 Mg8 1_555 1_555
O14 Mg8 1_555 1_555
O16 Mg8 1_555 1_555
Mg6 O6 1_555 1_555
O13 Mg6 1_555 1_555
O16 Mg6 1_555 1_555
H1_2 O1_3 1_555 1_555
H61_3 O1_3 1_555 1_555
O1_3 Mg1_2 1_555 1_555
Mg1_2 O4_2 1_555 1_555
O9_2 Mg1_2 1_555 1_555
O10_2 Mg1_2 1_555 1_555
O11 Mg1_2 1_555 1_555
O12 Mg1_2 1_555 1_555
H24_2 C11_2 1_555 1_555
H25_2 C11_2 1_555 1_555
H26_2 C11_2 1_555 1_555
H32_2 C19_2 1_555 1_555
H33_2 C19_2 1_555 1_555
H35_2 C20_2 1_555 1_555
H36_2 C20_2 1_555 1_555
H42_2 C23_2 1_555 1_555
H43_2 C23_2 1_555 1_555
H44_2 C23_2 1_555 1_555
H45_3 C24_3 1_555 1_555
H46_3 C24_3 1_555 1_555
H47_2 C24_3 1_555 1_555
H48_2 C25_2 1_555 1_555
H49_2 C25_2 1_555 1_555
H50_2 C25_2 1_555 1_555
H57_2 C45_2 1_555 1_555
H63_2 C57_2 1_555 1_555
H65_2 C59_2 1_555 1_555
H69_2 C74_2 1_555 1_555
H70_3 C77_2 1_555 1_555
H71_2 C78_2 1_555 1_555
H85_2 C86_2 1_555 1_555
H86_2 C86_2 1_555 1_555
H92_2 C91_2 1_555 1_555
H94_2 C95_2 1_555 1_555
H95_2 C95_2 1_555 1_555
H96_2 C95_2 1_555 1_555
H106_2 C100_2 1_555 1_555
H108_3 C101_2 1_555 1_555
H109_2 C101_2 1_555 1_555
H110_2 C101_2 1_555 1_555
H111_3 C102_2 1_555 1_555
H112_2 C102_2 1_555 1_555
H113_2 C103_2 1_555 1_555
H114_2 C103_2 1_555 1_555
H115_2 C104_2 1_555 1_555
H116_2 C104_2 1_555 1_555
H117_2 C105_2 1_555 1_555
H118_2 C105_2 1_555 1_555
H119_2 C106_2 1_555 1_555
H120_2 C106_2 1_555 1_555
H121_2 C106_2 1_555 1_555
C20_2 C79_2 1_555 1_555
C23_2 C41_2 1_555 1_555
C24_3 C76_2 1_555 1_555
C25_2 C75_2 1_555 1_555
C45_2 C46_2 1_555 1_555
C46_2 C41_2 1_555 1_555
C51_2 C52_2 1_555 1_555
C52_2 C53_2 1_555 1_555
C53_2 O3_2 1_555 1_555
C57_2 C51_2 1_555 1_555
C58_2 C57_2 1_555 1_555
C59_2 C58_2 1_555 1_555
C60_2 C52_2 1_555 1_555
C70_2 C58_2 1_555 1_555
C71_2 C46_2 1_555 1_555
C74_2 C71_2 1_555 1_555
C75_2 C70_2 1_555 1_555
C76_2 C71_2 1_555 1_555
C77_2 C70_2 1_555 1_555
C79_2 C78_2 1_555 1_555
C91_2 C90_2 1_555 1_555
C95_2 C90_2 1_555 1_555
C101_2 C100_2 1_555 1_555
C102_2 C86_2 1_555 1_555
C103_2 C102_2 1_555 1_555
C104_2 C103_2 1_555 1_555
C105_2 C104_2 1_555 1_555
C106_2 C105_2 1_555 1_555
O10_2 C51_2 1_555 1_555
O3_2 Mg4 1_555 1_555
Mg5 O10_2 1_555 1_555
C59_2 C60_2 1_555 1_555
C74_2 C75_2 1_555 1_555
C76_2 C77_2 1_555 1_555
O3_2 Mg5 1_555 1_555
H1_3 O1_4 1_555 1_555
H61_4 O1_4 1_555 1_555
H64_3 C60_3 1_555 1_555
H65_3 C59_3 1_555 1_555
C52_3 C53_3 1_555 1_555
C53_3 O11 1_555 1_555
C60_3 C52_3 1_555 1_555
O1_4 Mg5 1_555 1_555
O4_3 C53_3 1_555 1_555
Mg5 O4_3 1_555 1_555
O10_3 Mg5 1_555 1_555
O12 Mg5 1_555 1_555
C59_3 C60_3 1_555 1_555
H19_2 C8_2 1_555 1_555
H20_3 C9_2 1_555 1_555
H21_2 C9_2 1_555 1_555
H22_2 C10_2 1_555 1_555
H23_3 C10_2 1_555 1_555
H24_3 C11_3 1_555 1_555
H25_3 C11_3 1_555 1_555
H26_3 C11_3 1_555 1_555
H30_3 C13_2 1_555 1_555
H32_3 C19_3 1_555 1_555
H33_3 C19_3 1_555 1_555
H34_2 C19_3 1_555 1_555
H35_3 C20_3 1_555 1_555
H36_3 C20_3 1_555 1_555
H39_3 C22_2 1_555 1_555
H40_2 C22_2 1_555 1_555
H41_2 C22_2 1_555 1_555
H42_3 C23_3 1_555 1_555
H43_3 C23_3 1_555 1_555
H44_3 C23_3 1_555 1_555
H45_4 C24_4 1_555 1_555
H46_4 C24_4 1_555 1_555
H47_3 C24_4 1_555 1_555
H48_3 C25_3 1_555 1_555
H49_3 C25_3 1_555 1_555
H50_3 C25_3 1_555 1_555
H51_2 C27_2 1_555 1_555
H55_3 C38_2 1_555 1_555
H56_2 C42_2 1_555 1_555
H57_3 C45_3 1_555 1_555
H63_3 C57_3 1_555 1_555
H67_2 C65_2 1_555 1_555
H69_3 C74_3 1_555 1_555
H70_4 C77_3 1_555 1_555
H71_3 C78_3 1_555 1_555
H72_2 C80_2 1_555 1_555
H82_2 C85_2 1_555 1_555
H83_2 C85_2 1_555 1_555
H85_3 C86_3 1_555 1_555
H86_3 C86_3 1_555 1_555
H92_3 C91_3 1_555 1_555
H94_3 C95_3 1_555 1_555
H95_3 C95_3 1_555 1_555
H96_3 C95_3 1_555 1_555
H101_2 C97_2 1_555 1_555
H102_2 C98_2 1_555 1_555
H103_2 C98_2 1_555 1_555
H104_2 C99_2 1_555 1_555
H105_3 C99_2 1_555 1_555
H106_3 C100_3 1_555 1_555
H107_2 C100_3 1_555 1_555
H108_4 C101_3 1_555 1_555
H109_3 C101_3 1_555 1_555
H110_3 C101_3 1_555 1_555
H111_4 C102_3 1_555 1_555
H112_3 C102_3 1_555 1_555
H113_3 C103_3 1_555 1_555
H114_3 C103_3 1_555 1_555
H115_3 C104_3 1_555 1_555
H116_3 C104_3 1_555 1_555
H117_3 C105_3 1_555 1_555
H118_3 C105_3 1_555 1_555
H119_3 C106_3 1_555 1_555
H120_3 C106_3 1_555 1_555
H121_3 C106_3 1_555 1_555
C8_2 C9_2 1_555 1_555
C9_2 C10_2 1_555 1_555
C10_2 C20_3 1_555 1_555
C11_3 C14_2 1_555 1_555
C13_2 C14_2 1_555 1_555
C14_2 C15_2 1_555 1_555
C18_2 C13_2 1_555 1_555
C19_3 C39_2 1_555 1_555
C20_3 C79_3 1_555 1_555
C22_2 C44_2 1_555 1_555
C23_3 C41_3 1_555 1_555
C24_4 C76_3 1_555 1_555
C25_3 C75_3 1_555 1_555
C26_2 C27_2 1_555 1_555
C27_2 C34_2 1_555 1_555
C34_2 C15_2 1_555 1_555
C35_2 C26_2 1_555 1_555
C38_2 C39_2 1_555 1_555
C39_2 C40_2 1_555 1_555
C40_2 C69_2 1_555 1_555
C41_3 C42_2 1_555 1_555
C42_2 C43_2 1_555 1_555
C43_2 C44_2 1_555 1_555
C44_2 C45_3 1_555 1_555
C45_3 C46_3 1_555 1_555
C46_3 C41_3 1_555 1_555
C57_3 C51_3 1_555 1_555
C58_3 C57_3 1_555 1_555
C63_2 C64_2 1_555 1_555
C64_2 C35_2 1_555 1_555
C65_2 C64_2 1_555 1_555
C67_2 C18_2 1_555 1_555
C68_2 C67_2 1_555 1_555
C69_2 C68_2 1_555 1_555
C70_3 C58_3 1_555 1_555
C71_3 C46_3 1_555 1_555
C72_2 C43_2 1_555 1_555
C73_2 C79_3 1_555 1_555
C74_3 C71_3 1_555 1_555
C75_3 C70_3 1_555 1_555
C76_3 C71_3 1_555 1_555
C77_3 C70_3 1_555 1_555
C78_3 C72_2 1_555 1_555
C79_3 C78_3 1_555 1_555
C80_2 C73_2 1_555 1_555
C81_2 C72_2 1_555 1_555
C85_2 C63_2 1_555 1_555
C86_3 C26_2 1_555 1_555
C89_2 C40_2 1_555 1_555
C90_3 C89_2 1_555 1_555
C91_3 C90_3 1_555 1_555
C92_2 C73_2 1_555 1_555
C93_2 C92_2 1_555 1_555
C94_2 C89_2 1_555 1_555
C95_3 C90_3 1_555 1_555
C98_2 C97_2 1_555 1_555
C99_2 C98_2 1_555 1_555
C100_3 C99_2 1_555 1_555
C101_3 C100_3 1_555 1_555
C102_3 C86_3 1_555 1_555
C103_3 C102_3 1_555 1_555
C104_3 C103_3 1_555 1_555
C105_3 C104_3 1_555 1_555
C106_3 C105_3 1_555 1_555
O10_3 C51_3 1_555 1_555
Mg4 O10_3 1_555 1_555
C28_2 C34_2 1_555 1_555
C38_2 C67_2 1_555 1_555
C74_3 C75_3 1_555 1_555
C76_3 C77_3 1_555 1_555
C80_2 C81_2 1_555 1_555
C91_3 C92_2 1_555 1_555
C93_2 C94_2 1_555 1_555
H2_2 C1_2 1_555 1_555
H3_2 C1_2 1_555 1_555
H4_2 C1_2 1_555 1_555
H5_2 C2_2 1_555 1_555
H6_2 C2_2 1_555 1_555
H7_2 C3_2 1_555 1_555
H8_2 C3_2 1_555 1_555
H9_2 C4_2 1_555 1_555
H10_2 C4_2 1_555 1_555
H11_2 C5_2 1_555 1_555
H12_2 C5_2 1_555 1_555
H13_2 C6_2 1_555 1_555
H14_2 C6_2 1_555 1_555
H15_2 C6_2 1_555 1_555
H17_2 C7_2 1_555 1_555
H27_2 C12_2 1_555 1_555
H28_2 C12_2 1_555 1_555
H29_2 C12_2 1_555 1_555
H31_2 C16_2 1_555 1_555
H37_2 C21_2 1_555 1_555
H38_2 C21_2 1_555 1_555
H52_2 C29_2 1_555 1_555
H53_2 C30_2 1_555 1_555
H54_2 C33_2 1_555 1_555
H58_2 C48_2 1_555 1_555
H60_2 C50_2 1_555 1_555
H66_2 C62_2 1_555 1_555
H73_2 C82_2 1_555 1_555
H74_2 C82_2 1_555 1_555
H75_2 C82_2 1_555 1_555
H76_2 C83_2 1_555 1_555
H77_2 C83_2 1_555 1_555
H78_2 C83_2 1_555 1_555
H79_2 C84_2 1_555 1_555
H80_2 C84_2 1_555 1_555
H81_2 C84_2 1_555 1_555
H87_2 C87_2 1_555 1_555
H88_2 C87_2 1_555 1_555
H90_2 C88_2 1_555 1_555
H91_2 C88_2 1_555 1_555
H97_2 C96_2 1_555 1_555
H98_2 C96_2 1_555 1_555
H99_2 C96_2 1_555 1_555
C1_2 C2_2 1_555 1_555
C2_2 C3_2 1_555 1_555
C3_2 C4_2 1_555 1_555
C4_2 C5_2 1_555 1_555
C5_2 C21_2 1_555 1_555
C6_2 C7_2 1_555 1_555
C12_2 C17_2 1_555 1_555
C16_2 C17_2 1_555 1_555
C30_2 C31_2 1_555 1_555
C31_2 C36_2 1_555 1_555
C32_2 C33_2 1_555 1_555
C33_2 C36_2 1_555 1_555
C36_2 C61_2 1_555 1_555
C37_2 C30_2 1_555 1_555
C47_2 C48_2 1_555 1_555
C48_2 C49_2 1_555 1_555
C49_2 C37_2 1_555 1_555
C50_2 C49_2 1_555 1_555
C54_2 C55_2 1_555 1_555
C55_2 C47_2 1_555 1_555
C56_2 C50_2 1_555 1_555
C61_2 C62_2 1_555 1_555
C66_2 C61_2 1_555 1_555
C82_2 C32_2 1_555 1_555
C83_2 C31_2 1_555 1_555
C84_2 C66_2 1_555 1_555
O14 C54_2 1_555 1_555
O16 C56_2 1_555 1_555
Mg7 O14 1_555 1_555
C32_2 C37_2 1_555 1_555
C55_2 C56_2 1_555 1_555
H62_2 O8_2 1_555 1_555
H122_2 O8_2 1_555 1_555
O8_2 Mg6 1_555 1_555
Mg6 O5_2 1_555 1_555
O16_2 Mg6 1_555 1_555
H61_5 O1_5 1_555 1_555
H45_5 C24_5 1_555 1_555
H46_5 C24_5 1_555 1_555
H47_4 C24_5 1_555 1_555
H64_4 C60_4 1_555 1_555
H65_4 C59_4 1_555 1_555
H70_5 C77_4 1_555 1_555
H113_4 C103_4 1_555 1_555
H114_4 C103_4 1_555 1_555
H117_4 C105_4 1_555 1_555
H118_4 C105_4 1_555 1_555
H119_4 C106_4 1_555 1_555
H120_4 C106_4 1_555 1_555
C24_5 C76_4 1_555 1_555
C51_4 C52_4 1_555 1_555
C52_4 C53_4 1_555 1_555
C53_4 O12 1_555 1_555
C57_4 C51_4 1_555 1_555
C58_4 C57_4 1_555 1_555
C59_4 C58_4 1_555 1_555
C60_4 C52_4 1_555 1_555
C70_4 C58_4 1_555 1_555
C77_4 C70_4 1_555 1_555
C106_4 C105_4 1_555 1_555
O9_2 C51_4 1_555 1_555
O4_4 C53_4 1_555 1_555
Mg4 O4_4 1_555 1_555
C59_4 C60_4 1_555 1_555
C76_4 C77_4 1_555 1_555
H7_3 C3_3 1_555 1_555
H8_3 C3_3 1_555 1_555
H11_3 C5_3 1_555 1_555
H12_3 C5_3 1_555 1_555
H13_3 C6_3 1_555 1_555
H14_3 C6_3 1_555 1_555
H15_3 C6_3 1_555 1_555
H16_3 C7_3 1_555 1_555
H17_3 C7_3 1_555 1_555
H18_3 C8_3 1_555 1_555
H19_3 C8_3 1_555 1_555
H20_4 C9_3 1_555 1_555
H21_3 C9_3 1_555 1_555
H22_3 C10_3 1_555 1_555
H23_4 C10_3 1_555 1_555
H24_4 C11_4 1_555 1_555
H25_4 C11_4 1_555 1_555
H26_4 C11_4 1_555 1_555
H27_3 C12_3 1_555 1_555
H28_3 C12_3 1_555 1_555
H29_3 C12_3 1_555 1_555
H30_4 C13_3 1_555 1_555
H31_3 C16_3 1_555 1_555
H32_4 C19_4 1_555 1_555
H33_4 C19_4 1_555 1_555
H34_3 C19_4 1_555 1_555
H35_4 C20_4 1_555 1_555
H36_4 C20_4 1_555 1_555
H37_3 C21_3 1_555 1_555
H38_3 C21_3 1_555 1_555
H39_4 C22_3 1_555 1_555
H40_3 C22_3 1_555 1_555
H41_3 C22_3 1_555 1_555
H42_4 C23_4 1_555 1_555
H43_4 C23_4 1_555 1_555
H44_4 C23_4 1_555 1_555
H48_4 C25_4 1_555 1_555
H49_4 C25_4 1_555 1_555
H50_4 C25_4 1_555 1_555
H51_3 C27_3 1_555 1_555
H52_3 C29_3 1_555 1_555
H54_3 C33_3 1_555 1_555
H55_4 C38_3 1_555 1_555
H56_3 C42_3 1_555 1_555
H57_4 C45_4 1_555 1_555
H66_3 C62_3 1_555 1_555
H67_3 C65_3 1_555 1_555
H68_3 C69_3 1_555 1_555
H69_4 C74_4 1_555 1_555
H71_4 C78_4 1_555 1_555
H72_3 C80_3 1_555 1_555
H73_3 C82_3 1_555 1_555
H75_3 C82_3 1_555 1_555
H79_3 C84_3 1_555 1_555
H80_3 C84_3 1_555 1_555
H81_3 C84_3 1_555 1_555
H82_3 C85_3 1_555 1_555
H83_3 C85_3 1_555 1_555
H84_3 C85_3 1_555 1_555
H85_4 C86_4 1_555 1_555
H86_4 C86_4 1_555 1_555
H87_3 C87_3 1_555 1_555
H88_3 C87_3 1_555 1_555
H89_3 C88_3 1_555 1_555
H90_3 C88_3 1_555 1_555
H91_3 C88_3 1_555 1_555
H92_4 C91_4 1_555 1_555
H93_3 C94_3 1_555 1_555
H94_4 C95_4 1_555 1_555
H95_4 C95_4 1_555 1_555
H96_4 C95_4 1_555 1_555
H97_3 C96_3 1_555 1_555
H98_3 C96_3 1_555 1_555
H99_3 C96_3 1_555 1_555
H100_3 C97_3 1_555 1_555
H101_3 C97_3 1_555 1_555
H102_3 C98_3 1_555 1_555
H103_3 C98_3 1_555 1_555
H104_3 C99_3 1_555 1_555
H105_4 C99_3 1_555 1_555
H106_4 C100_4 1_555 1_555
H107_3 C100_4 1_555 1_555
H109_4 C101_4 1_555 1_555
H110_4 C101_4 1_555 1_555
H112_4 C102_4 1_555 1_555
H115_4 C104_4 1_555 1_555
H116_4 C104_4 1_555 1_555
C5_3 C21_3 1_555 1_555
C6_3 C7_3 1_555 1_555
C7_3 C8_3 1_555 1_555
C8_3 C9_3 1_555 1_555
C9_3 C10_3 1_555 1_555
C10_3 C20_4 1_555 1_555
C11_4 C14_3 1_555 1_555
C12_3 C17_3 1_555 1_555
C13_3 C14_3 1_555 1_555
C14_3 C15_3 1_555 1_555
C15_3 C16_3 1_555 1_555
C16_3 C17_3 1_555 1_555
C17_3 C18_3 1_555 1_555
C18_3 C13_3 1_555 1_555
C19_4 C39_3 1_555 1_555
C20_4 C79_4 1_555 1_555
C21_3 C81_3 1_555 1_555
C22_3 C44_3 1_555 1_555
C23_4 C41_4 1_555 1_555
C25_4 C75_4 1_555 1_555
C26_3 C27_3 1_555 1_555
C27_3 C34_3 1_555 1_555
C28_3 C29_3 1_555 1_555
C29_3 C35_3 1_555 1_555
C32_3 C33_3 1_555 1_555
C33_3 C36_3 1_555 1_555
C34_3 C15_3 1_555 1_555
C35_3 C26_3 1_555 1_555
C36_3 C61_3 1_555 1_555
C38_3 C39_3 1_555 1_555
C39_3 C40_3 1_555 1_555
C40_3 C69_3 1_555 1_555
C41_4 C42_3 1_555 1_555
C42_3 C43_3 1_555 1_555
C43_3 C44_3 1_555 1_555
C44_3 C45_4 1_555 1_555
C45_4 C46_4 1_555 1_555
C46_4 C41_4 1_555 1_555
C61_3 C62_3 1_555 1_555
C62_3 C63_3 1_555 1_555
C63_3 C64_3 1_555 1_555
C64_3 C35_3 1_555 1_555
C65_3 C64_3 1_555 1_555
C66_3 C61_3 1_555 1_555
C67_3 C18_3 1_555 1_555
C68_3 C67_3 1_555 1_555
C69_3 C68_3 1_555 1_555
C71_4 C46_4 1_555 1_555
C72_3 C43_3 1_555 1_555
C73_3 C79_4 1_555 1_555
C74_4 C71_4 1_555 1_555
C78_4 C72_3 1_555 1_555
C79_4 C78_4 1_555 1_555
C80_3 C73_3 1_555 1_555
C81_3 C72_3 1_555 1_555
C82_3 C32_3 1_555 1_555
C84_3 C66_3 1_555 1_555
C85_3 C63_3 1_555 1_555
C86_4 C26_3 1_555 1_555
C87_3 C28_3 1_555 1_555
C88_3 C68_3 1_555 1_555
C89_3 C40_3 1_555 1_555
C90_4 C89_3 1_555 1_555
C91_4 C90_4 1_555 1_555
C92_3 C73_3 1_555 1_555
C93_3 C92_3 1_555 1_555
C94_3 C89_3 1_555 1_555
C95_4 C90_4 1_555 1_555
C96_3 C93_3 1_555 1_555
C97_3 C87_3 1_555 1_555
C98_3 C97_3 1_555 1_555
C99_3 C98_3 1_555 1_555
C100_4 C99_3 1_555 1_555
C101_4 C100_4 1_555 1_555
C102_4 C86_4 1_555 1_555
C28_3 C34_3 1_555 1_555
C38_3 C67_3 1_555 1_555
C65_3 C66_3 1_555 1_555
C74_4 C75_4 1_555 1_555
C80_3 C81_3 1_555 1_555
C91_4 C92_3 1_555 1_555
C93_3 C94_3 1_555 1_555
H3_3 C1_3 1_555 1_555
H4_3 C1_3 1_555 1_555
H5_3 C2_3 1_555 1_555
H6_3 C2_3 1_555 1_555
H9_3 C4_3 1_555 1_555
H10_3 C4_3 1_555 1_555
H53_3 C30_3 1_555 1_555
H58_3 C48_3 1_555 1_555
H59_3 C47_3 1_555 1_555
H60_3 C50_3 1_555 1_555
H76_3 C83_3 1_555 1_555
H77_3 C83_3 1_555 1_555
H78_3 C83_3 1_555 1_555
C1_3 C2_3 1_555 1_555
C30_3 C31_3 1_555 1_555
C37_3 C30_3 1_555 1_555
C47_3 C48_3 1_555 1_555
C48_3 C49_3 1_555 1_555
C49_3 C37_3 1_555 1_555
C50_3 C49_3 1_555 1_555
C54_3 C55_3 1_555 1_555
C55_3 C47_3 1_555 1_555
C56_3 C50_3 1_555 1_555
C83_3 C31_3 1_555 1_555
O5_3 C54_3 1_555 1_555
O13 C54_3 1_555 1_555
O16_2 C56_3 1_555 1_555
Mg7 O5_3 1_555 1_555
C55_3 C56_3 1_555 1_555
H62_3 O8_3 1_555 1_555
H122_4 O8_3 1_555 1_555
H64_5 C60_5 1_555 1_555
H65_5 C59_5 1_555 1_555
C52_5 C53_5 1_555 1_555
C53_5 O11_2 1_555 1_555
C60_5 C52_5 1_555 1_555
O4_5 C53_5 1_555 1_555
Mg5_2 O4_5 1_555 1_555
O10_4 Mg5_2 1_555 1_555
O12_2 Mg5_2 1_555 1_555
C59_5 C60_5 1_555 1_555
H19_4 C8_4 1_555 1_555
H20_5 C9_4 1_555 1_555
H21_4 C9_4 1_555 1_555
H22_4 C10_4 1_555 1_555
H23_5 C10_4 1_555 1_555
H24_5 C11_5 1_555 1_555
H25_5 C11_5 1_555 1_555
H26_5 C11_5 1_555 1_555
H30_5 C13_4 1_555 1_555
H32_5 C19_5 1_555 1_555
H33_5 C19_5 1_555 1_555
H34_4 C19_5 1_555 1_555
H35_5 C20_5 1_555 1_555
H36_5 C20_5 1_555 1_555
H39_5 C22_4 1_555 1_555
H40_4 C22_4 1_555 1_555
H41_4 C22_4 1_555 1_555
H42_5 C23_5 1_555 1_555
H43_5 C23_5 1_555 1_555
H44_5 C23_5 1_555 1_555
H45_6 C24_6 1_555 1_555
H46_6 C24_6 1_555 1_555
H47_5 C24_6 1_555 1_555
H48_5 C25_5 1_555 1_555
H49_5 C25_5 1_555 1_555
H50_5 C25_5 1_555 1_555
H51_4 C27_4 1_555 1_555
H55_5 C38_4 1_555 1_555
H56_4 C42_4 1_555 1_555
H57_5 C45_5 1_555 1_555
H63_5 C57_5 1_555 1_555
H67_4 C65_4 1_555 1_555
H69_5 C74_5 1_555 1_555
H70_6 C77_5 1_555 1_555
H71_5 C78_5 1_555 1_555
H72_4 C80_4 1_555 1_555
H82_4 C85_4 1_555 1_555
H83_4 C85_4 1_555 1_555
H85_5 C86_5 1_555 1_555
H86_5 C86_5 1_555 1_555
H92_5 C91_5 1_555 1_555
H94_5 C95_5 1_555 1_555
H95_5 C95_5 1_555 1_555
H96_5 C95_5 1_555 1_555
H101_4 C97_4 1_555 1_555
H102_4 C98_4 1_555 1_555
H103_4 C98_4 1_555 1_555
H104_4 C99_4 1_555 1_555
H105_5 C99_4 1_555 1_555
H106_5 C100_5 1_555 1_555
H107_4 C100_5 1_555 1_555
H108_6 C101_5 1_555 1_555
H109_5 C101_5 1_555 1_555
H110_5 C101_5 1_555 1_555
H111_6 C102_5 1_555 1_555
H112_5 C102_5 1_555 1_555
H113_5 C103_5 1_555 1_555
H114_5 C103_5 1_555 1_555
H115_5 C104_5 1_555 1_555
H116_5 C104_5 1_555 1_555
H117_5 C105_5 1_555 1_555
H118_5 C105_5 1_555 1_555
H119_5 C106_5 1_555 1_555
H120_5 C106_5 1_555 1_555
H121_5 C106_5 1_555 1_555
C8_4 C9_4 1_555 1_555
C9_4 C10_4 1_555 1_555
C10_4 C20_5 1_555 1_555
C11_5 C14_4 1_555 1_555
C13_4 C14_4 1_555 1_555
C14_4 C15_4 1_555 1_555
C18_4 C13_4 1_555 1_555
C19_5 C39_4 1_555 1_555
C20_5 C79_5 1_555 1_555
C22_4 C44_4 1_555 1_555
C23_5 C41_5 1_555 1_555
C24_6 C76_5 1_555 1_555
C25_5 C75_5 1_555 1_555
C26_4 C27_4 1_555 1_555
C27_4 C34_4 1_555 1_555
C34_4 C15_4 1_555 1_555
C35_4 C26_4 1_555 1_555
C38_4 C39_4 1_555 1_555
C39_4 C40_4 1_555 1_555
C40_4 C69_4 1_555 1_555
C41_5 C42_4 1_555 1_555
C42_4 C43_4 1_555 1_555
C43_4 C44_4 1_555 1_555
C44_4 C45_5 1_555 1_555
C45_5 C46_5 1_555 1_555
C46_5 C41_5 1_555 1_555
C57_5 C51_5 1_555 1_555
C58_5 C57_5 1_555 1_555
C63_4 C64_4 1_555 1_555
C64_4 C35_4 1_555 1_555
C65_4 C64_4 1_555 1_555
C67_4 C18_4 1_555 1_555
C68_4 C67_4 1_555 1_555
C69_4 C68_4 1_555 1_555
C70_5 C58_5 1_555 1_555
C71_5 C46_5 1_555 1_555
C72_4 C43_4 1_555 1_555
C73_4 C79_5 1_555 1_555
C74_5 C71_5 1_555 1_555
C75_5 C70_5 1_555 1_555
C76_5 C71_5 1_555 1_555
C77_5 C70_5 1_555 1_555
C78_5 C72_4 1_555 1_555
C79_5 C78_5 1_555 1_555
C80_4 C73_4 1_555 1_555
C81_4 C72_4 1_555 1_555
C85_4 C63_4 1_555 1_555
C86_5 C26_4 1_555 1_555
C89_4 C40_4 1_555 1_555
C90_5 C89_4 1_555 1_555
C91_5 C90_5 1_555 1_555
C92_4 C73_4 1_555 1_555
C93_4 C92_4 1_555 1_555
C94_4 C89_4 1_555 1_555
C95_5 C90_5 1_555 1_555
C98_4 C97_4 1_555 1_555
C99_4 C98_4 1_555 1_555
C100_5 C99_4 1_555 1_555
C101_5 C100_5 1_555 1_555
C102_5 C86_5 1_555 1_555
C103_5 C102_5 1_555 1_555
C104_5 C103_5 1_555 1_555
C105_5 C104_5 1_555 1_555
C106_5 C105_5 1_555 1_555
O10_4 C51_5 1_555 1_555
Mg4_2 O10_4 1_555 1_555
C28_4 C34_4 1_555 1_555
C38_4 C67_4 1_555 1_555
C74_5 C75_5 1_555 1_555
C76_5 C77_5 1_555 1_555
C80_4 C81_4 1_555 1_555
C91_5 C92_4 1_555 1_555
C93_4 C94_4 1_555 1_555
H61_6 O1_6 1_555 1_555
H64_6 C60_6 1_555 1_555
H65_6 C59_6 1_555 1_555
H113_6 C103_6 1_555 1_555
H114_6 C103_6 1_555 1_555
H117_6 C105_6 1_555 1_555
H118_6 C105_6 1_555 1_555
H119_6 C106_6 1_555 1_555
H120_6 C106_6 1_555 1_555
C51_6 C52_6 1_555 1_555
C52_6 C53_6 1_555 1_555
C53_6 O12_2 1_555 1_555
C57_6 C51_6 1_555 1_555
C58_6 C57_6 1_555 1_555
C59_6 C58_6 1_555 1_555
C60_6 C52_6 1_555 1_555
C70_6 C58_6 1_555 1_555
C77_6 C70_6 1_555 1_555
C106_6 C105_6 1_555 1_555
O4_6 C53_6 1_555 1_555
Mg4_2 O4_6 1_555 1_555
C59_6 C60_6 1_555 1_555
C76_6 C77_6 1_555 1_555
H13_4 C6_4 1_555 1_555
H14_4 C6_4 1_555 1_555
H15_4 C6_4 1_555 1_555
H16_5 C7_4 1_555 1_555
H17_4 C7_4 1_555 1_555
H18_4 C8_5 1_555 1_555
H19_5 C8_5 1_555 1_555
H20_6 C9_5 1_555 1_555
H21_5 C9_5 1_555 1_555
H22_5 C10_5 1_555 1_555
H23_6 C10_5 1_555 1_555
H27_4 C12_4 1_555 1_555
H28_4 C12_4 1_555 1_555
H29_4 C12_4 1_555 1_555
H31_4 C16_4 1_555 1_555
H32_6 C19_6 1_555 1_555
H33_6 C19_6 1_555 1_555
H34_5 C19_6 1_555 1_555
H35_6 C20_6 1_555 1_555
H36_6 C20_6 1_555 1_555
H42_6 C23_6 1_555 1_555
H43_6 C23_6 1_555 1_555
H44_6 C23_6 1_555 1_555
H48_6 C25_6 1_555 1_555
H49_6 C25_6 1_555 1_555
H50_6 C25_6 1_555 1_555
H51_5 C27_5 1_555 1_555
H55_6 C38_5 1_555 1_555
H56_5 C42_5 1_555 1_555
H66_4 C62_4 1_555 1_555
H69_6 C74_6 1_555 1_555
H71_6 C78_6 1_555 1_555
H82_5 C85_5 1_555 1_555
H83_5 C85_5 1_555 1_555
H84_4 C85_5 1_555 1_555
H85_6 C86_6 1_555 1_555
H86_6 C86_6 1_555 1_555
H93_4 C94_5 1_555 1_555
H97_4 C96_4 1_555 1_555
H98_4 C96_4 1_555 1_555
H99_4 C96_4 1_555 1_555
H115_6 C104_6 1_555 1_555
H116_6 C104_6 1_555 1_555
C6_4 C7_4 1_555 1_555
C7_4 C8_5 1_555 1_555
C8_5 C9_5 1_555 1_555
C9_5 C10_5 1_555 1_555
C10_5 C20_6 1_555 1_555
C12_4 C17_4 1_555 1_555
C16_4 C17_4 1_555 1_555
C19_6 C39_5 1_555 1_555
C20_6 C79_6 1_555 1_555
C23_6 C41_6 1_555 1_555
C25_6 C75_6 1_555 1_555
C38_5 C39_5 1_555 1_555
C39_5 C40_5 1_555 1_555
C41_6 C42_5 1_555 1_555
C42_5 C43_5 1_555 1_555
C45_6 C46_6 1_555 1_555
C46_6 C41_6 1_555 1_555
C62_4 C63_5 1_555 1_555
C71_6 C46_6 1_555 1_555
C72_5 C43_5 1_555 1_555
C73_5 C79_6 1_555 1_555
C74_6 C71_6 1_555 1_555
C78_6 C72_5 1_555 1_555
C79_6 C78_6 1_555 1_555
C81_5 C72_5 1_555 1_555
C85_5 C63_5 1_555 1_555
C89_5 C40_5 1_555 1_555
C92_5 C73_5 1_555 1_555
C93_5 C92_5 1_555 1_555
C94_5 C89_5 1_555 1_555
C96_4 C93_5 1_555 1_555
C102_6 C86_6 1_555 1_555
C74_6 C75_6 1_555 1_555
C93_5 C94_5 1_555 1_555
H62_4 O8_4 1_555 1_555
O16_3 Mg6_2 1_555 1_555
H2_4 C1_4 1_555 1_555
H3_4 C1_4 1_555 1_555
H4_4 C1_4 1_555 1_555
H5_4 C2_4 1_555 1_555
H6_4 C2_4 1_555 1_555
H7_4 C3_4 1_555 1_555
H8_4 C3_4 1_555 1_555
H9_4 C4_4 1_555 1_555
H10_4 C4_4 1_555 1_555
H11_5 C5_4 1_555 1_555
H12_5 C5_4 1_555 1_555
H13_5 C6_5 1_555 1_555
H14_5 C6_5 1_555 1_555
H15_5 C6_5 1_555 1_555
H17_5 C7_5 1_555 1_555
H27_5 C12_5 1_555 1_555
H28_5 C12_5 1_555 1_555
H29_5 C12_5 1_555 1_555
H31_5 C16_5 1_555 1_555
H37_4 C21_4 1_555 1_555
H38_4 C21_4 1_555 1_555
H52_4 C29_4 1_555 1_555
H53_4 C30_4 1_555 1_555
H54_4 C33_4 1_555 1_555
H58_4 C48_4 1_555 1_555
H60_4 C50_4 1_555 1_555
H66_5 C62_5 1_555 1_555
H73_4 C82_4 1_555 1_555
H74_4 C82_4 1_555 1_555
H75_4 C82_4 1_555 1_555
H76_4 C83_4 1_555 1_555
H77_4 C83_4 1_555 1_555
H78_4 C83_4 1_555 1_555
H79_4 C84_4 1_555 1_555
H80_4 C84_4 1_555 1_555
H81_4 C84_4 1_555 1_555
H87_4 C87_4 1_555 1_555
H88_4 C87_4 1_555 1_555
H90_4 C88_4 1_555 1_555
H91_4 C88_4 1_555 1_555
H97_5 C96_5 1_555 1_555
H98_5 C96_5 1_555 1_555
H99_5 C96_5 1_555 1_555
C1_4 C2_4 1_555 1_555
C2_4 C3_4 1_555 1_555
C3_4 C4_4 1_555 1_555
C4_4 C5_4 1_555 1_555
C5_4 C21_4 1_555 1_555
C6_5 C7_5 1_555 1_555
C12_5 C17_5 1_555 1_555
C16_5 C17_5 1_555 1_555
C30_4 C31_4 1_555 1_555
C31_4 C36_4 1_555 1_555
C32_4 C33_4 1_555 1_555
C33_4 C36_4 1_555 1_555
C36_4 C61_4 1_555 1_555
C37_4 C30_4 1_555 1_555
C47_4 C48_4 1_555 1_555
C48_4 C49_4 1_555 1_555
C49_4 C37_4 1_555 1_555
C50_4 C49_4 1_555 1_555
C54_4 C55_4 1_555 1_555
C55_4 C47_4 1_555 1_555
C56_4 C50_4 1_555 1_555
C61_4 C62_5 1_555 1_555
C66_4 C61_4 1_555 1_555
C82_4 C32_4 1_555 1_555
C83_4 C31_4 1_555 1_555
C84_4 C66_4 1_555 1_555
O14_2 C54_4 1_555 1_555
O16_3 C56_4 1_555 1_555
C32_4 C37_4 1_555 1_555
C55_4 C56_4 1_555 1_555
H62_5 O8_5 1_555 1_555
H122_5 O8_5 1_555 1_555
O8_5 Mg6_2 1_555 1_555
Mg6_2 O5_4 1_555 1_555
O16_4 Mg6_2 1_555 1_555
H77_5 C83_5 1_555 1_555
H78_5 C83_5 1_555 1_555
H2_5 C1_5 1_555 1_555
H3_5 C1_5 1_555 1_555
H4_5 C1_5 1_555 1_555
H5_5 C2_5 1_555 1_555
H6_5 C2_5 1_555 1_555
H7_5 C3_5 1_555 1_555
H8_5 C3_5 1_555 1_555
H9_5 C4_5 1_555 1_555
H10_5 C4_5 1_555 1_555
H11_6 C5_5 1_555 1_555
H12_6 C5_5 1_555 1_555
H13_6 C6_6 1_555 1_555
H14_6 C6_6 1_555 1_555
H15_6 C6_6 1_555 1_555
H16_6 C7_6 1_555 1_555
H17_6 C7_6 1_555 1_555
H18_6 C8_6 1_555 1_555
H19_6 C8_6 1_555 1_555
H21_6 C9_6 1_555 1_555
H22_6 C10_6 1_555 1_555
H27_6 C12_6 1_555 1_555
H28_6 C12_6 1_555 1_555
H29_6 C12_6 1_555 1_555
H31_6 C16_6 1_555 1_555
H37_5 C21_5 1_555 1_555
H38_5 C21_5 1_555 1_555
H40_5 C22_5 1_555 1_555
H41_5 C22_5 1_555 1_555
H51_6 C27_6 1_555 1_555
H52_5 C29_5 1_555 1_555
H53_6 C30_5 1_555 1_555
H54_5 C33_5 1_555 1_555
H56_6 C42_6 1_555 1_555
H60_5 C50_5 1_555 1_555
H66_6 C62_6 1_555 1_555
H67_5 C65_5 1_555 1_555
H68_5 C69_5 1_555 1_555
H72_5 C80_5 1_555 1_555
H73_5 C82_5 1_555 1_555
H74_5 C82_5 1_555 1_555
H75_5 C82_5 1_555 1_555
H76_5 C83_6 1_555 1_555
H77_6 C83_6 1_555 1_555
H78_6 C83_6 1_555 1_555
H79_5 C84_5 1_555 1_555
H80_5 C84_5 1_555 1_555
H81_5 C84_5 1_555 1_555
H82_6 C85_6 1_555 1_555
H83_6 C85_6 1_555 1_555
H84_6 C85_6 1_555 1_555
H87_5 C87_5 1_555 1_555
H88_5 C87_5 1_555 1_555
H89_5 C88_5 1_555 1_555
H90_5 C88_5 1_555 1_555
H91_5 C88_5 1_555 1_555
H93_6 C94_6 1_555 1_555
H97_6 C96_6 1_555 1_555
H98_6 C96_6 1_555 1_555
H99_6 C96_6 1_555 1_555
H100_5 C97_5 1_555 1_555
H101_5 C97_5 1_555 1_555
H102_5 C98_5 1_555 1_555
H103_5 C98_5 1_555 1_555
H104_5 C99_5 1_555 1_555
C1_5 C2_5 1_555 1_555
C2_5 C3_5 1_555 1_555
C3_5 C4_5 1_555 1_555
C4_5 C5_5 1_555 1_555
C5_5 C21_5 1_555 1_555
C6_6 C7_6 1_555 1_555
C7_6 C8_6 1_555 1_555
C8_6 C9_6 1_555 1_555
C9_6 C10_6 1_555 1_555
C12_6 C17_6 1_555 1_555
C13_5 C14_5 1_555 1_555
C14_5 C15_5 1_555 1_555
C15_5 C16_6 1_555 1_555
C16_6 C17_6 1_555 1_555
C17_6 C18_5 1_555 1_555
C18_5 C13_5 1_555 1_555
C21_5 C81_6 1_555 1_555
C22_5 C44_5 1_555 1_555
C26_5 C27_6 1_555 1_555
C27_6 C34_5 1_555 1_555
C28_5 C29_5 1_555 1_555
C29_5 C35_5 1_555 1_555
C30_5 C31_5 1_555 1_555
C31_5 C36_5 1_555 1_555
C32_5 C33_5 1_555 1_555
C33_5 C36_5 1_555 1_555
C34_5 C15_5 1_555 1_555
C35_5 C26_5 1_555 1_555
C36_5 C61_5 1_555 1_555
C37_5 C30_5 1_555 1_555
C38_6 C39_6 1_555 1_555
C39_6 C40_6 1_555 1_555
C40_6 C69_5 1_555 1_555
C42_6 C43_6 1_555 1_555
C43_6 C44_5 1_555 1_555
C49_5 C37_5 1_555 1_555
C50_5 C49_5 1_555 1_555
C56_5 C50_5 1_555 1_555
C61_5 C62_6 1_555 1_555
C62_6 C63_6 1_555 1_555
C63_6 C64_5 1_555 1_555
C64_5 C35_5 1_555 1_555
C65_5 C64_5 1_555 1_555
C66_5 C61_5 1_555 1_555
C67_5 C18_5 1_555 1_555
C68_5 C67_5 1_555 1_555
C69_5 C68_5 1_555 1_555
C72_6 C43_6 1_555 1_555
C80_5 C73_6 1_555 1_555
C81_6 C72_6 1_555 1_555
C82_5 C32_5 1_555 1_555
C83_6 C31_5 1_555 1_555
C84_5 C66_5 1_555 1_555
C85_6 C63_6 1_555 1_555
C87_5 C28_5 1_555 1_555
C88_5 C68_5 1_555 1_555
C89_6 C40_6 1_555 1_555
C92_6 C73_6 1_555 1_555
C93_6 C92_6 1_555 1_555
C94_6 C89_6 1_555 1_555
C96_6 C93_6 1_555 1_555
C97_5 C87_5 1_555 1_555
C98_5 C97_5 1_555 1_555
C99_5 C98_5 1_555 1_555
O7_2 C56_5 1_555 1_555
Mg8_2 O7_2 1_555 1_555
C28_5 C34_5 1_555 1_555
C32_5 C37_5 1_555 1_555
C38_6 C67_5 1_555 1_555
C65_5 C66_5 1_555 1_555
C80_5 C81_6 1_555 1_555
C93_6 C94_6 1_555 1_555
O7_2 Mg7_2 1_555 1_555
H58_5 C48_5 1_555 1_555
H59_5 C47_5 1_555 1_555
C47_5 C48_5 1_555 1_555
C54_5 C55_5 1_555 1_555
C55_5 C47_5 1_555 1_555
O5_5 C54_5 1_555 1_555
O6_2 C54_5 1_555 1_555
Mg8_2 O5_5 1_555 1_555
O13_2 Mg8_2 1_555 1_555
H7_6 C3_6 1_555 1_555
H8_6 C3_6 1_555 1_555
H24_6 C11_6 1_555 1_555
H25_6 C11_6 1_555 1_555
H26_6 C11_6 1_555 1_555
H30_6 C13_6 1_555 1_555
H37_6 C21_6 1_555 1_555
H38_6 C21_6 1_555 1_555
H39_6 C22_6 1_555 1_555
H40_6 C22_6 1_555 1_555
H41_6 C22_6 1_555 1_555
H52_6 C29_6 1_555 1_555
H54_6 C33_6 1_555 1_555
H67_6 C65_6 1_555 1_555
H68_6 C69_6 1_555 1_555
H72_6 C80_6 1_555 1_555
H73_6 C82_6 1_555 1_555
H75_6 C82_6 1_555 1_555
H79_6 C84_6 1_555 1_555
H80_6 C84_6 1_555 1_555
H81_6 C84_6 1_555 1_555
H87_6 C87_6 1_555 1_555
H88_6 C87_6 1_555 1_555
H89_6 C88_6 1_555 1_555
H90_6 C88_6 1_555 1_555
H91_6 C88_6 1_555 1_555
H92_6 C91_6 1_555 1_555
H94_6 C95_6 1_555 1_555
H95_6 C95_6 1_555 1_555
H96_6 C95_6 1_555 1_555
H100_6 C97_6 1_555 1_555
H101_6 C97_6 1_555 1_555
H102_6 C98_6 1_555 1_555
H103_6 C98_6 1_555 1_555
H104_6 C99_6 1_555 1_555
H105_6 C99_6 1_555 1_555
H106_6 C100_6 1_555 1_555
H107_6 C100_6 1_555 1_555
H109_6 C101_6 1_555 1_555
H110_6 C101_6 1_555 1_555
C5_6 C21_6 1_555 1_555
C11_6 C14_6 1_555 1_555
C13_6 C14_6 1_555 1_555
C14_6 C15_6 1_555 1_555
C18_6 C13_6 1_555 1_555
C22_6 C44_6 1_555 1_555
C28_6 C29_6 1_555 1_555
C29_6 C35_6 1_555 1_555
C32_6 C33_6 1_555 1_555
C33_6 C36_6 1_555 1_555
C34_6 C15_6 1_555 1_555
C35_6 C26_6 1_555 1_555
C36_6 C61_6 1_555 1_555
C64_6 C35_6 1_555 1_555
C65_6 C64_6 1_555 1_555
C66_6 C61_6 1_555 1_555
C67_6 C18_6 1_555 1_555
C68_6 C67_6 1_555 1_555
C69_6 C68_6 1_555 1_555
C82_6 C32_6 1_555 1_555
C84_6 C66_6 1_555 1_555
C87_6 C28_6 1_555 1_555
C88_6 C68_6 1_555 1_555
C91_6 C90_6 1_555 1_555
C95_6 C90_6 1_555 1_555
C97_6 C87_6 1_555 1_555
C98_6 C97_6 1_555 1_555
C99_6 C98_6 1_555 1_555
C100_6 C99_6 1_555 1_555
C101_6 C100_6 1_555 1_555
C28_6 C34_6 1_555 1_555
C65_6 C66_6 1_555 1_555
H3_6 C1_6 1_555 1_555
H4_6 C1_6 1_555 1_555
H5_6 C2_6 1_555 1_555
H6_6 C2_6 1_555 1_555
H9_6 C4_6 1_555 1_555
H10_6 C4_6 1_555 1_555
H58_6 C48_6 1_555 1_555
H59_6 C47_6 1_555 1_555
H60_6 C50_6 1_555 1_555
C1_6 C2_6 1_555 1_555
C30_6 C31_6 1_555 1_555
C37_6 C30_6 1_555 1_555
C47_6 C48_6 1_555 1_555
C48_6 C49_6 1_555 1_555
C49_6 C37_6 1_555 1_555
C50_6 C49_6 1_555 1_555
C54_6 C55_6 1_555 1_555
C55_6 C47_6 1_555 1_555
C56_6 C50_6 1_555 1_555
O5_6 C54_6 1_555 1_555
O13_2 C54_6 1_555 1_555
Mg7_2 O5_6 1_555 1_555
C55_6 C56_6 1_555 1_555
H62_6 O8_6 1_555 1_555
H122_8 O8_6 1_555 1_555
H64_7 C60_7 1_555 1_555
H65_7 C59_7 1_555 1_555
C52_7 C53_7 1_555 1_555
C53_7 O11_3 1_555 1_555
C60_7 C52_7 1_555 1_555
O4_7 C53_7 1_555 1_555
Mg5_3 O4_7 1_555 1_555
O10_5 Mg5_3 1_555 1_555
O12_3 Mg5_3 1_555 1_555
C59_7 C60_7 1_555 1_555
H19_7 C8_7 1_555 1_555
H20_7 C9_7 1_555 1_555
H21_7 C9_7 1_555 1_555
H22_7 C10_7 1_555 1_555
H23_7 C10_7 1_555 1_555
H24_7 C11_7 1_555 1_555
H25_7 C11_7 1_555 1_555
H26_7 C11_7 1_555 1_555
H30_7 C13_7 1_555 1_555
H32_7 C19_7 1_555 1_555
H33_7 C19_7 1_555 1_555
H34_7 C19_7 1_555 1_555
H35_7 C20_7 1_555 1_555
H36_7 C20_7 1_555 1_555
H39_7 C22_7 1_555 1_555
H40_7 C22_7 1_555 1_555
H41_7 C22_7 1_555 1_555
H42_7 C23_7 1_555 1_555
H43_7 C23_7 1_555 1_555
H44_7 C23_7 1_555 1_555
H45_7 C24_7 1_555 1_555
H46_7 C24_7 1_555 1_555
H47_7 C24_7 1_555 1_555
H48_7 C25_7 1_555 1_555
H49_7 C25_7 1_555 1_555
H50_7 C25_7 1_555 1_555
H51_7 C27_7 1_555 1_555
H55_7 C38_7 1_555 1_555
H56_7 C42_7 1_555 1_555
H57_7 C45_7 1_555 1_555
H63_7 C57_7 1_555 1_555
H67_7 C65_7 1_555 1_555
H69_7 C74_7 1_555 1_555
H70_7 C77_7 1_555 1_555
H71_7 C78_7 1_555 1_555
H72_7 C80_7 1_555 1_555
H82_7 C85_7 1_555 1_555
H83_7 C85_7 1_555 1_555
H85_7 C86_7 1_555 1_555
H86_7 C86_7 1_555 1_555
H92_7 C91_7 1_555 1_555
H94_7 C95_7 1_555 1_555
H95_7 C95_7 1_555 1_555
H96_7 C95_7 1_555 1_555
H101_7 C97_7 1_555 1_555
H102_7 C98_7 1_555 1_555
H103_7 C98_7 1_555 1_555
H104_7 C99_7 1_555 1_555
H105_7 C99_7 1_555 1_555
H106_7 C100_7 1_555 1_555
H107_7 C100_7 1_555 1_555
H108_7 C101_7 1_555 1_555
H109_7 C101_7 1_555 1_555
H110_7 C101_7 1_555 1_555
H111_7 C102_7 1_555 1_555
H112_7 C102_7 1_555 1_555
H113_7 C103_7 1_555 1_555
H114_7 C103_7 1_555 1_555
H115_7 C104_7 1_555 1_555
H116_7 C104_7 1_555 1_555
H117_7 C105_7 1_555 1_555
H118_7 C105_7 1_555 1_555
H119_7 C106_7 1_555 1_555
H120_7 C106_7 1_555 1_555
H121_7 C106_7 1_555 1_555
C8_7 C9_7 1_555 1_555
C9_7 C10_7 1_555 1_555
C10_7 C20_7 1_555 1_555
C11_7 C14_7 1_555 1_555
C13_7 C14_7 1_555 1_555
C14_7 C15_7 1_555 1_555
C18_7 C13_7 1_555 1_555
C19_7 C39_7 1_555 1_555
C20_7 C79_7 1_555 1_555
C22_7 C44_7 1_555 1_555
C23_7 C41_7 1_555 1_555
C24_7 C76_7 1_555 1_555
C25_7 C75_7 1_555 1_555
C26_7 C27_7 1_555 1_555
C27_7 C34_7 1_555 1_555
C34_7 C15_7 1_555 1_555
C35_7 C26_7 1_555 1_555
C38_7 C39_7 1_555 1_555
C39_7 C40_7 1_555 1_555
C40_7 C69_7 1_555 1_555
C41_7 C42_7 1_555 1_555
C42_7 C43_7 1_555 1_555
C43_7 C44_7 1_555 1_555
C44_7 C45_7 1_555 1_555
C45_7 C46_7 1_555 1_555
C46_7 C41_7 1_555 1_555
C57_7 C51_7 1_555 1_555
C58_7 C57_7 1_555 1_555
C63_7 C64_7 1_555 1_555
C64_7 C35_7 1_555 1_555
C65_7 C64_7 1_555 1_555
C67_7 C18_7 1_555 1_555
C68_7 C67_7 1_555 1_555
C69_7 C68_7 1_555 1_555
C70_7 C58_7 1_555 1_555
C71_7 C46_7 1_555 1_555
C72_7 C43_7 1_555 1_555
C73_7 C79_7 1_555 1_555
C74_7 C71_7 1_555 1_555
C75_7 C70_7 1_555 1_555
C76_7 C71_7 1_555 1_555
C77_7 C70_7 1_555 1_555
C78_7 C72_7 1_555 1_555
C79_7 C78_7 1_555 1_555
C80_7 C73_7 1_555 1_555
C81_7 C72_7 1_555 1_555
C85_7 C63_7 1_555 1_555
C86_7 C26_7 1_555 1_555
C89_7 C40_7 1_555 1_555
C90_7 C89_7 1_555 1_555
C91_7 C90_7 1_555 1_555
C92_7 C73_7 1_555 1_555
C93_7 C92_7 1_555 1_555
C94_7 C89_7 1_555 1_555
C95_7 C90_7 1_555 1_555
C98_7 C97_7 1_555 1_555
C99_7 C98_7 1_555 1_555
C100_7 C99_7 1_555 1_555
C101_7 C100_7 1_555 1_555
C102_7 C86_7 1_555 1_555
C103_7 C102_7 1_555 1_555
C104_7 C103_7 1_555 1_555
C105_7 C104_7 1_555 1_555
C106_7 C105_7 1_555 1_555
O10_5 C51_7 1_555 1_555
Mg4_3 O10_5 1_555 1_555
C28_7 C34_7 1_555 1_555
C38_7 C67_7 1_555 1_555
C74_7 C75_7 1_555 1_555
C76_7 C77_7 1_555 1_555
C80_7 C81_7 1_555 1_555
C91_7 C92_7 1_555 1_555
C93_7 C94_7 1_555 1_555
H61_7 O1_7 1_555 1_555
H64_8 C60_8 1_555 1_555
H65_8 C59_8 1_555 1_555
H113_8 C103_8 1_555 1_555
H114_8 C103_8 1_555 1_555
H117_8 C105_8 1_555 1_555
H118_8 C105_8 1_555 1_555
H119_8 C106_8 1_555 1_555
H120_8 C106_8 1_555 1_555
C51_8 C52_8 1_555 1_555
C52_8 C53_8 1_555 1_555
C53_8 O12_3 1_555 1_555
C57_8 C51_8 1_555 1_555
C58_8 C57_8 1_555 1_555
C59_8 C58_8 1_555 1_555
C60_8 C52_8 1_555 1_555
C70_8 C58_8 1_555 1_555
C77_8 C70_8 1_555 1_555
C106_8 C105_8 1_555 1_555
O4_8 C53_8 1_555 1_555
Mg4_3 O4_8 1_555 1_555
C59_8 C60_8 1_555 1_555
C76_8 C77_8 1_555 1_555
H13_7 C6_7 1_555 1_555
H14_7 C6_7 1_555 1_555
H15_7 C6_7 1_555 1_555
H16_8 C7_7 1_555 1_555
H17_7 C7_7 1_555 1_555
H18_7 C8_8 1_555 1_555
H19_8 C8_8 1_555 1_555
H20_8 C9_8 1_555 1_555
H21_8 C9_8 1_555 1_555
H22_8 C10_8 1_555 1_555
H23_8 C10_8 1_555 1_555
H27_7 C12_7 1_555 1_555
H28_7 C12_7 1_555 1_555
H29_7 C12_7 1_555 1_555
H31_7 C16_7 1_555 1_555
H32_8 C19_8 1_555 1_555
H33_8 C19_8 1_555 1_555
H34_8 C19_8 1_555 1_555
H35_8 C20_8 1_555 1_555
H36_8 C20_8 1_555 1_555
H42_8 C23_8 1_555 1_555
H43_8 C23_8 1_555 1_555
H44_8 C23_8 1_555 1_555
H48_8 C25_8 1_555 1_555
H49_8 C25_8 1_555 1_555
H50_8 C25_8 1_555 1_555
H51_8 C27_8 1_555 1_555
H55_8 C38_8 1_555 1_555
H56_8 C42_8 1_555 1_555
H66_7 C62_7 1_555 1_555
H69_8 C74_8 1_555 1_555
H71_8 C78_8 1_555 1_555
H82_8 C85_8 1_555 1_555
H83_8 C85_8 1_555 1_555
H84_7 C85_8 1_555 1_555
H85_8 C86_8 1_555 1_555
H86_8 C86_8 1_555 1_555
H93_7 C94_8 1_555 1_555
H97_7 C96_7 1_555 1_555
H98_7 C96_7 1_555 1_555
H99_7 C96_7 1_555 1_555
H115_8 C104_8 1_555 1_555
H116_8 C104_8 1_555 1_555
C6_7 C7_7 1_555 1_555
C7_7 C8_8 1_555 1_555
C8_8 C9_8 1_555 1_555
C9_8 C10_8 1_555 1_555
C10_8 C20_8 1_555 1_555
C12_7 C17_7 1_555 1_555
C16_7 C17_7 1_555 1_555
C19_8 C39_8 1_555 1_555
C20_8 C79_8 1_555 1_555
C23_8 C41_8 1_555 1_555
C25_8 C75_8 1_555 1_555
C38_8 C39_8 1_555 1_555
C39_8 C40_8 1_555 1_555
C41_8 C42_8 1_555 1_555
C42_8 C43_8 1_555 1_555
C45_8 C46_8 1_555 1_555
C46_8 C41_8 1_555 1_555
C62_7 C63_8 1_555 1_555
C71_8 C46_8 1_555 1_555
C72_8 C43_8 1_555 1_555
C73_8 C79_8 1_555 1_555
C74_8 C71_8 1_555 1_555
C78_8 C72_8 1_555 1_555
C79_8 C78_8 1_555 1_555
C81_8 C72_8 1_555 1_555
C85_8 C63_8 1_555 1_555
C89_8 C40_8 1_555 1_555
C92_8 C73_8 1_555 1_555
C93_8 C92_8 1_555 1_555
C94_8 C89_8 1_555 1_555
C96_7 C93_8 1_555 1_555
C102_8 C86_8 1_555 1_555
C74_8 C75_8 1_555 1_555
C93_8 C94_8 1_555 1_555
H1_9 O1_8 1_555 1_555
H61_8 O1_8 1_555 1_555
O1_8 Mg1_3 1_555 1_555
Mg1_3 O4_9 1_555 1_555
O9_3 Mg1_3 1_555 1_555
O10_6 Mg1_3 1_555 1_555
H24_8 C11_8 1_555 1_555
H25_8 C11_8 1_555 1_555
H26_8 C11_8 1_555 1_555
H32_9 C19_9 1_555 1_555
H33_9 C19_9 1_555 1_555
H35_9 C20_9 1_555 1_555
H36_9 C20_9 1_555 1_555
H42_9 C23_9 1_555 1_555
H43_9 C23_9 1_555 1_555
H44_9 C23_9 1_555 1_555
H45_8 C24_8 1_555 1_555
H46_8 C24_8 1_555 1_555
H47_9 C24_8 1_555 1_555
H48_9 C25_9 1_555 1_555
H49_9 C25_9 1_555 1_555
H50_9 C25_9 1_555 1_555
H57_8 C45_9 1_555 1_555
H63_9 C57_9 1_555 1_555
H65_9 C59_9 1_555 1_555
H69_9 C74_9 1_555 1_555
H70_8 C77_9 1_555 1_555
H71_9 C78_9 1_555 1_555
H85_9 C86_9 1_555 1_555
H86_9 C86_9 1_555 1_555
H92_8 C91_8 1_555 1_555
H94_8 C95_8 1_555 1_555
H95_8 C95_8 1_555 1_555
H96_8 C95_8 1_555 1_555
H106_8 C100_8 1_555 1_555
H108_8 C101_8 1_555 1_555
H109_8 C101_8 1_555 1_555
H110_8 C101_8 1_555 1_555
H111_8 C102_9 1_555 1_555
H112_8 C102_9 1_555 1_555
H113_9 C103_9 1_555 1_555
H114_9 C103_9 1_555 1_555
H115_9 C104_9 1_555 1_555
H116_9 C104_9 1_555 1_555
H117_9 C105_9 1_555 1_555
H118_9 C105_9 1_555 1_555
H119_9 C106_9 1_555 1_555
H120_9 C106_9 1_555 1_555
H121_9 C106_9 1_555 1_555
C20_9 C79_9 1_555 1_555
C23_9 C41_9 1_555 1_555
C24_8 C76_9 1_555 1_555
C25_9 C75_9 1_555 1_555
C45_9 C46_9 1_555 1_555
C46_9 C41_9 1_555 1_555
C51_9 C52_9 1_555 1_555
C52_9 C53_9 1_555 1_555
C53_9 O3_3 1_555 1_555
C57_9 C51_9 1_555 1_555
C58_9 C57_9 1_555 1_555
C59_9 C58_9 1_555 1_555
C60_9 C52_9 1_555 1_555
C70_9 C58_9 1_555 1_555
C71_9 C46_9 1_555 1_555
C74_9 C71_9 1_555 1_555
C75_9 C70_9 1_555 1_555
C76_9 C71_9 1_555 1_555
C77_9 C70_9 1_555 1_555
C79_9 C78_9 1_555 1_555
C91_8 C90_8 1_555 1_555
C95_8 C90_8 1_555 1_555
C101_8 C100_8 1_555 1_555
C102_9 C86_9 1_555 1_555
C103_9 C102_9 1_555 1_555
C104_9 C103_9 1_555 1_555
C105_9 C104_9 1_555 1_555
C106_9 C105_9 1_555 1_555
O10_6 C51_9 1_555 1_555
C59_9 C60_9 1_555 1_555
C74_9 C75_9 1_555 1_555
C76_9 C77_9 1_555 1_555
H61_9 O1_9 1_555 1_555
H45_9 C24_9 1_555 1_555
H46_9 C24_9 1_555 1_555
H2_7 C1_7 1_555 1_555
H3_7 C1_7 1_555 1_555
H4_7 C1_7 1_555 1_555
H5_7 C2_7 1_555 1_555
H6_7 C2_7 1_555 1_555
H7_7 C3_7 1_555 1_555
H8_7 C3_7 1_555 1_555
H9_7 C4_7 1_555 1_555
H10_7 C4_7 1_555 1_555
H11_8 C5_7 1_555 1_555
H12_8 C5_7 1_555 1_555
H13_8 C6_8 1_555 1_555
H14_8 C6_8 1_555 1_555
H15_8 C6_8 1_555 1_555
H16_9 C7_8 1_555 1_555
H17_8 C7_8 1_555 1_555
H18_8 C8_9 1_555 1_555
H19_9 C8_9 1_555 1_555
H21_9 C9_9 1_555 1_555
H22_9 C10_9 1_555 1_555
H27_8 C12_8 1_555 1_555
H28_8 C12_8 1_555 1_555
H29_8 C12_8 1_555 1_555
H31_8 C16_8 1_555 1_555
H37_7 C21_7 1_555 1_555
H38_7 C21_7 1_555 1_555
H40_8 C22_8 1_555 1_555
H41_8 C22_8 1_555 1_555
H51_9 C27_9 1_555 1_555
H52_7 C29_7 1_555 1_555
H53_7 C30_7 1_555 1_555
H54_7 C33_7 1_555 1_555
H56_9 C42_9 1_555 1_555
H60_7 C50_7 1_555 1_555
H66_8 C62_8 1_555 1_555
H67_8 C65_8 1_555 1_555
H68_7 C69_8 1_555 1_555
H72_8 C80_8 1_555 1_555
H73_7 C82_7 1_555 1_555
H74_7 C82_7 1_555 1_555
H75_7 C82_7 1_555 1_555
H76_7 C83_7 1_555 1_555
H77_7 C83_7 1_555 1_555
H78_7 C83_7 1_555 1_555
H79_7 C84_7 1_555 1_555
H80_7 C84_7 1_555 1_555
H81_7 C84_7 1_555 1_555
H82_9 C85_9 1_555 1_555
H83_9 C85_9 1_555 1_555
H84_8 C85_9 1_555 1_555
H87_7 C87_7 1_555 1_555
H88_7 C87_7 1_555 1_555
H89_8 C88_7 1_555 1_555
H90_7 C88_7 1_555 1_555
H91_7 C88_7 1_555 1_555
H93_8 C94_9 1_555 1_555
H97_8 C96_8 1_555 1_555
H98_8 C96_8 1_555 1_555
H99_8 C96_8 1_555 1_555
H100_7 C97_8 1_555 1_555
H101_8 C97_8 1_555 1_555
H102_8 C98_8 1_555 1_555
H103_8 C98_8 1_555 1_555
H104_8 C99_8 1_555 1_555
C1_7 C2_7 1_555 1_555
C2_7 C3_7 1_555 1_555
C3_7 C4_7 1_555 1_555
C4_7 C5_7 1_555 1_555
C5_7 C21_7 1_555 1_555
C6_8 C7_8 1_555 1_555
C7_8 C8_9 1_555 1_555
C8_9 C9_9 1_555 1_555
C9_9 C10_9 1_555 1_555
C12_8 C17_8 1_555 1_555
C13_8 C14_8 1_555 1_555
C14_8 C15_8 1_555 1_555
C15_8 C16_8 1_555 1_555
C16_8 C17_8 1_555 1_555
C17_8 C18_8 1_555 1_555
C18_8 C13_8 1_555 1_555
C21_7 C81_9 1_555 1_555
C22_8 C44_8 1_555 1_555
C26_8 C27_9 1_555 1_555
C27_9 C34_8 1_555 1_555
C28_8 C29_7 1_555 1_555
C29_7 C35_8 1_555 1_555
C30_7 C31_7 1_555 1_555
C31_7 C36_7 1_555 1_555
C32_7 C33_7 1_555 1_555
C33_7 C36_7 1_555 1_555
C34_8 C15_8 1_555 1_555
C35_8 C26_8 1_555 1_555
C36_7 C61_7 1_555 1_555
C37_7 C30_7 1_555 1_555
C38_9 C39_9 1_555 1_555
C39_9 C40_9 1_555 1_555
C40_9 C69_8 1_555 1_555
C42_9 C43_9 1_555 1_555
C43_9 C44_8 1_555 1_555
C49_7 C37_7 1_555 1_555
C50_7 C49_7 1_555 1_555
C56_7 C50_7 1_555 1_555
C61_7 C62_8 1_555 1_555
C62_8 C63_9 1_555 1_555
C63_9 C64_8 1_555 1_555
C64_8 C35_8 1_555 1_555
C65_8 C64_8 1_555 1_555
C66_7 C61_7 1_555 1_555
C67_8 C18_8 1_555 1_555
C68_8 C67_8 1_555 1_555
C69_8 C68_8 1_555 1_555
C72_9 C43_9 1_555 1_555
C80_8 C73_9 1_555 1_555
C81_9 C72_9 1_555 1_555
C82_7 C32_7 1_555 1_555
C83_7 C31_7 1_555 1_555
C84_7 C66_7 1_555 1_555
C85_9 C63_9 1_555 1_555
C87_7 C28_8 1_555 1_555
C88_7 C68_8 1_555 1_555
C89_9 C40_9 1_555 1_555
C92_9 C73_9 1_555 1_555
C93_9 C92_9 1_555 1_555
C94_9 C89_9 1_555 1_555
C96_8 C93_9 1_555 1_555
C97_8 C87_7 1_555 1_555
C98_8 C97_8 1_555 1_555
C99_8 C98_8 1_555 1_555
O7_3 C56_7 1_555 1_555
Mg8_3 O7_3 1_555 1_555
C28_8 C34_8 1_555 1_555
C32_7 C37_7 1_555 1_555
C38_9 C67_8 1_555 1_555
C65_8 C66_7 1_555 1_555
C80_8 C81_9 1_555 1_555
C93_9 C94_9 1_555 1_555
O7_3 Mg7_3 1_555 1_555
H58_7 C48_7 1_555 1_555
H59_7 C47_7 1_555 1_555
C47_7 C48_7 1_555 1_555
C54_7 C55_7 1_555 1_555
C55_7 C47_7 1_555 1_555
O5_7 C54_7 1_555 1_555
O6_3 C54_7 1_555 1_555
Mg8_3 O5_7 1_555 1_555
O13_3 Mg8_3 1_555 1_555
H7_8 C3_8 1_555 1_555
H8_8 C3_8 1_555 1_555
H24_9 C11_9 1_555 1_555
H25_9 C11_9 1_555 1_555
H26_9 C11_9 1_555 1_555
H30_9 C13_9 1_555 1_555
H37_8 C21_8 1_555 1_555
H38_8 C21_8 1_555 1_555
H39_9 C22_9 1_555 1_555
H40_9 C22_9 1_555 1_555
H41_9 C22_9 1_555 1_555
H52_8 C29_8 1_555 1_555
H54_8 C33_8 1_555 1_555
H67_9 C65_9 1_555 1_555
H68_8 C69_9 1_555 1_555
H72_9 C80_9 1_555 1_555
H73_8 C82_8 1_555 1_555
H75_8 C82_8 1_555 1_555
H79_8 C84_8 1_555 1_555
H80_8 C84_8 1_555 1_555
H81_8 C84_8 1_555 1_555
H87_8 C87_8 1_555 1_555
H88_8 C87_8 1_555 1_555
H89_9 C88_8 1_555 1_555
H90_8 C88_8 1_555 1_555
H91_8 C88_8 1_555 1_555
H92_9 C91_9 1_555 1_555
H94_9 C95_9 1_555 1_555
H95_9 C95_9 1_555 1_555
H96_9 C95_9 1_555 1_555
H100_8 C97_9 1_555 1_555
H101_9 C97_9 1_555 1_555
H102_9 C98_9 1_555 1_555
H103_9 C98_9 1_555 1_555
H104_9 C99_9 1_555 1_555
H105_9 C99_9 1_555 1_555
H106_9 C100_9 1_555 1_555
H107_9 C100_9 1_555 1_555
H109_9 C101_9 1_555 1_555
H110_9 C101_9 1_555 1_555
C5_8 C21_8 1_555 1_555
C11_9 C14_9 1_555 1_555
C13_9 C14_9 1_555 1_555
C14_9 C15_9 1_555 1_555
C18_9 C13_9 1_555 1_555
C22_9 C44_9 1_555 1_555
C28_9 C29_8 1_555 1_555
C29_8 C35_9 1_555 1_555
C32_8 C33_8 1_555 1_555
C33_8 C36_8 1_555 1_555
C34_9 C15_9 1_555 1_555
C35_9 C26_9 1_555 1_555
C36_8 C61_8 1_555 1_555
C64_9 C35_9 1_555 1_555
C65_9 C64_9 1_555 1_555
C66_8 C61_8 1_555 1_555
C67_9 C18_9 1_555 1_555
C68_9 C67_9 1_555 1_555
C69_9 C68_9 1_555 1_555
C82_8 C32_8 1_555 1_555
C84_8 C66_8 1_555 1_555
C87_8 C28_9 1_555 1_555
C88_8 C68_9 1_555 1_555
C91_9 C90_9 1_555 1_555
C95_9 C90_9 1_555 1_555
C97_9 C87_8 1_555 1_555
C98_9 C97_9 1_555 1_555
C99_9 C98_9 1_555 1_555
C100_9 C99_9 1_555 1_555
C101_9 C100_9 1_555 1_555
C28_9 C34_9 1_555 1_555
C65_9 C66_8 1_555 1_555
H3_8 C1_8 1_555 1_555
H4_8 C1_8 1_555 1_555
H5_8 C2_8 1_555 1_555
H6_8 C2_8 1_555 1_555
H9_8 C4_8 1_555 1_555
H10_8 C4_8 1_555 1_555
H58_8 C48_8 1_555 1_555
H59_8 C47_8 1_555 1_555
H60_8 C50_8 1_555 1_555
C1_8 C2_8 1_555 1_555
C30_8 C31_8 1_555 1_555
C37_8 C30_8 1_555 1_555
C47_8 C48_8 1_555 1_555
C48_8 C49_8 1_555 1_555
C49_8 C37_8 1_555 1_555
C50_8 C49_8 1_555 1_555
C54_8 C55_8 1_555 1_555
C55_8 C47_8 1_555 1_555
C56_8 C50_8 1_555 1_555
O5_8 C54_8 1_555 1_555
O13_3 C54_8 1_555 1_555
Mg7_3 O5_8 1_555 1_555
C55_8 C56_8 1_555 1_555
H62_7 O8_7 1_555 1_555
H122_11 O8_7 1_555 1_555
H62_8 O8_8 1_555 1_555
O16_5 Mg6_3 1_555 1_555
H2_9 C1_9 1_555 1_555
H3_9 C1_9 1_555 1_555
H4_9 C1_9 1_555 1_555
H5_9 C2_9 1_555 1_555
H6_9 C2_9 1_555 1_555
H7_9 C3_9 1_555 1_555
H8_9 C3_9 1_555 1_555
H9_9 C4_9 1_555 1_555
H10_9 C4_9 1_555 1_555
H11_9 C5_9 1_555 1_555
H12_9 C5_9 1_555 1_555
H13_9 C6_9 1_555 1_555
H14_9 C6_9 1_555 1_555
H15_9 C6_9 1_555 1_555
H17_9 C7_9 1_555 1_555
H27_9 C12_9 1_555 1_555
H28_9 C12_9 1_555 1_555
H29_9 C12_9 1_555 1_555
H31_9 C16_9 1_555 1_555
H37_9 C21_9 1_555 1_555
H38_9 C21_9 1_555 1_555
H52_9 C29_9 1_555 1_555
H53_8 C30_9 1_555 1_555
H54_9 C33_9 1_555 1_555
H58_9 C48_9 1_555 1_555
H60_9 C50_9 1_555 1_555
H66_9 C62_9 1_555 1_555
H73_9 C82_9 1_555 1_555
H74_9 C82_9 1_555 1_555
H75_9 C82_9 1_555 1_555
H76_9 C83_8 1_555 1_555
H77_8 C83_8 1_555 1_555
H78_8 C83_8 1_555 1_555
H79_9 C84_9 1_555 1_555
H80_9 C84_9 1_555 1_555
H81_9 C84_9 1_555 1_555
H87_9 C87_9 1_555 1_555
H88_9 C87_9 1_555 1_555
H90_9 C88_9 1_555 1_555
H91_9 C88_9 1_555 1_555
H97_9 C96_9 1_555 1_555
H98_9 C96_9 1_555 1_555
H99_9 C96_9 1_555 1_555
C1_9 C2_9 1_555 1_555
C2_9 C3_9 1_555 1_555
C3_9 C4_9 1_555 1_555
C4_9 C5_9 1_555 1_555
C5_9 C21_9 1_555 1_555
C6_9 C7_9 1_555 1_555
C12_9 C17_9 1_555 1_555
C16_9 C17_9 1_555 1_555
C30_9 C31_9 1_555 1_555
C31_9 C36_9 1_555 1_555
C32_9 C33_9 1_555 1_555
C33_9 C36_9 1_555 1_555
C36_9 C61_9 1_555 1_555
C37_9 C30_9 1_555 1_555
C47_9 C48_9 1_555 1_555
C48_9 C49_9 1_555 1_555
C49_9 C37_9 1_555 1_555
C50_9 C49_9 1_555 1_555
C54_9 C55_9 1_555 1_555
C55_9 C47_9 1_555 1_555
C56_9 C50_9 1_555 1_555
C61_9 C62_9 1_555 1_555
C66_9 C61_9 1_555 1_555
C82_9 C32_9 1_555 1_555
C83_8 C31_9 1_555 1_555
C84_9 C66_9 1_555 1_555
O14_3 C54_9 1_555 1_555
O16_5 C56_9 1_555 1_555
C32_9 C37_9 1_555 1_555
C55_9 C56_9 1_555 1_555
H62_9 O8_9 1_555 1_555
H122_12 O8_9 1_555 1_555
O8_9 Mg6_3 1_555 1_555
Mg6_3 O5_9 1_555 1_555
O16_6 Mg6_3 1_555 1_555
H77_9 C83_9 1_555 1_555
H78_9 C83_9 1_555 1_555

#END
