
###############################################################################
#
# This file contains modified crystal structure data generated from the
# MOF subset of the Cambridge Structural Database (CSD) v543 
# hosted by the Cambridge Crystallographic Data Centre (CCDC).
#
# This work is licensed under the Creative Commons
# Attribution-NonCommercial-ShareAlike 4.0 International License.
# To view a copy of this license, visit
# http://creativecommons.org/licenses/by-nc-sa/4.0/
# or send a letter to
# Creative Commons, PO Box 1866, Mountain View, CA 94042, USA.
#
# CIF created using the CSD Python API on 29 September 2022
# The structure has been converted into the P1 space group
# The structure has a 3D framework
# The original CSD entry RAVXIX is in the rhombohedral crystal system
# The original CSD entry RAVXIX is in a Sohncke space group
# The framework has been calculated to contain at least 10.0% void space
# The void calculation uses a probe of radius 1.32A, grid spacing 0.4
# H atom positions have been added when not included in the experimental data
#
###############################################################################

data_RAVXIX
_chemical_formula_moiety         '(C720 H774 Mg18 O70)n'
_symmetry_cell_setting           triclinic
_symmetry_space_group_name_H-M   'P 1'
_symmetry_Int_Tables_number      1
_space_group_name_Hall           'P 1'
loop_
_symmetry_equiv_pos_site_id
_symmetry_equiv_pos_as_xyz
1 x,y,z
_cell_length_a                   113.7741
_cell_length_b                   113.7741
_cell_length_c                   6.9435
_cell_angle_alpha                90
_cell_angle_beta                 90
_cell_angle_gamma                120
_cell_volume                     77838.8
loop_
_atom_site_label
_atom_site_type_symbol
_atom_site_fract_x
_atom_site_fract_y
_atom_site_fract_z
O12 O 0.00612 0.33312 0.16165
H85 H 0.00731277 0.309782 0.0712573
O9 O 0.01267 0.32779 0.78862
O11 O 0.00022 0.33967 0.82831
Mg4 Mg 0.01070 0.34057 0.60959
O10 O 0.00555 0.35155 0.45528
H26 H 0.02324 0.42683 0.51778
H27 H 0.02555 0.43104 0.26706
H28 H 0.01321 0.43257 0.40495
H44 H 0.00319 0.36977 0.28213
H51 H 0.01486 0.40411 0.54036
C11 C 0.01801 0.42653 0.38247
C38 C 0.00150 0.35961 0.54789
C44 C 0.00086 0.36920 0.43350
C63 C 0.00774 0.41257 0.32870
C64 C 0.00751 0.40205 0.42965
H42 H 0.03248 0.36093 0.58768
H45 H 0.04101 0.33825 0.31342
H46 H 0.05835 0.33933 0.10984
C39 C 0.02679 0.33410 0.08423
C40 C 0.01730 0.33502 0.22013
C46 C 0.04907 0.33732 0.04490
C47 C 0.03903 0.33663 0.16126
O1 O 0.02638 0.35758 0.69926
O4 O 0.02070 0.33798 0.39684
H85_2 H 0.0235517 0.364198 0.737924
H1 H 0.13621 0.37147 0.10850
H2 H 0.12614 0.37811 0.02452
H12 H 0.16829 0.36060 0.05961
H14 H 0.15245 0.33336 0.45621
H15 H 0.16456 0.34055 0.26682
H16 H 0.16004 0.35080 0.39731
H20 H 0.09068 0.30326 0.24633
H21 H 0.08981 0.30904 0.00903
H22 H 0.10522 0.31118 0.10088
H23 H 0.10164 0.35499 0.70602
H24 H 0.11645 0.36548 0.57274
H25 H 0.10115 0.36412 0.49746
H26_2 H 0.07026 0.31010 0.85112
H27_2 H 0.07216 0.30779 0.60040
H28_2 H 0.08603 0.32013 0.73829
H29 H 0.05436 0.35638 0.63575
H30 H 0.07183 0.36618 0.59256
H31 H 0.06075 0.35763 0.39638
H37 H 0.12331 0.35518 0.35288
H38 H 0.07808 0.31644 0.28939
H44_2 H 0.03325 0.33015 0.61547
H50 H 0.07986 0.35205 0.36651
H51_2 H 0.05592 0.31848 0.87370
H52 H 0.13339 0.33977 0.42275
H75 H 0.16620 0.29796 0.02409
H79 H 0.18162 0.28855 0.06535
C7 C 0.15615 0.34072 0.33734
C9 C 0.09606 0.31130 0.13944
C10 C 0.10565 0.35851 0.55921
C11_2 C 0.07519 0.31533 0.71581
C12 C 0.06268 0.35693 0.55114
C28 C 0.10280 0.34687 0.43257
C29 C 0.11341 0.34672 0.33924
C30 C 0.11158 0.33558 0.23598
C31 C 0.09872 0.32432 0.22452
C32 C 0.08797 0.32488 0.30474
C33 C 0.08986 0.33584 0.41360
C38_2 C 0.02478 0.33184 0.88123
C44_2 C 0.03501 0.33248 0.76684
C45 C 0.04721 0.33543 0.84669
C57 C 0.05773 0.33553 0.72651
C58 C 0.07836 0.33518 0.51735
C59 C 0.12339 0.33586 0.14931
C60 C 0.14562 0.33516 0.00209
C61 C 0.07467 0.34473 0.47792
C62 C 0.06472 0.34528 0.58441
C63_2 C 0.07150 0.32560 0.66204
C64_2 C 0.06121 0.32583 0.76299
C65 C 0.13390 0.33798 0.27081
C66 C 0.14509 0.33785 0.19931
O1_2 O 0.99786 0.30695 0.03259
O10_2 O 0.98178 0.32066 0.12195
H23_2 H 0.92001 0.23169 0.03935
H26_3 H 0.90650 0.26307 0.18445
H28_3 H 0.90076 0.24730 0.07162
H42_2 H 0.99511 0.30085 0.92101
H45_2 H 0.96390 0.29232 0.64675
H46_2 H 0.94764 0.27498 0.44317
H51_3 H 0.92922 0.27741 0.20703
C11_3 C 0.90680 0.25814 0.04914
C38_3 C 0.97372 0.30855 0.21456
C39_2 C 0.97397 0.30654 0.41756
C40_2 C 0.98438 0.31603 0.55346
C44_3 C 0.96413 0.29832 0.10017
C45_2 C 0.95488 0.28612 0.18002
C46_2 C 0.95491 0.28426 0.37823
C47_2 C 0.96426 0.29430 0.49459
C57_2 C 0.94446 0.27560 0.05984
C64_3 C 0.93128 0.27212 0.09632
O3 O 0.99366 0.32721 0.49498
O4_2 O 0.98394 0.31263 0.73017
Mg1 Mg 0.99653 0.32263 0.94292
Mg3 Mg 0.99277 0.33680 0.27625
H1_2 H 0.90192 0.19712 0.44183
H2_2 H 0.91863 0.20719 0.35785
H3 H 0.90562 0.20933 0.25489
H4 H 0.90717 0.18360 0.22634
H5 H 0.91354 0.19637 0.04693
H7 H 0.89067 0.19362 0.00744
H8 H 0.88079 0.18287 0.32564
H9 H 0.88239 0.16872 0.26019
H11 H 0.86641 0.17877 0.03527
H12_2 H 0.85897 0.16504 0.39294
H13 H 0.85298 0.15185 0.22605
H14_2 H 0.84757 0.18088 0.78954
H15_2 H 0.84265 0.16877 0.60015
H16_2 H 0.85742 0.17329 0.73064
H17 H 0.88099 0.22408 0.06972
H18 H 0.89528 0.22616 0.20274
H19 H 0.88786 0.21345 0.02626
H20_2 H 0.87924 0.24265 0.57966
H21_2 H 0.88589 0.24352 0.34236
H22_2 H 0.87262 0.22811 0.43421
H24_2 H 0.91569 0.21688 0.90607
H25_2 H 0.92963 0.23218 0.83079
H27_3 H 0.90229 0.26117 0.93373
H29_2 H 0.96868 0.27897 0.96908
H30_2 H 0.96101 0.26150 0.92589
H31_2 H 0.96354 0.27258 0.72971
H32 H 0.80347 0.13367 0.27694
H36 H 0.83213 0.14462 0.08764
H37_2 H 0.89853 0.21002 0.68621
H38_2 H 0.90502 0.25525 0.62272
H44_3 H 0.96356 0.30008 0.94880
H49 H 0.83347 0.18673 0.25149
H50_2 H 0.93885 0.25347 0.69984
H52_2 H 0.87304 0.19994 0.75608
H53 H 0.86218 0.19767 0.06234
H66 H 0.77775 0.11774 0.31260
H67 H 0.77050 0.10496 0.13671
H68 H 0.78485 0.10730 0.27046
H72 H 0.81259 0.17948 0.11387
H74 H 0.79920 0.15255 0.30406
H75_2 H 0.79842 0.16713 0.35742
H76 H 0.78314 0.16250 0.07895
H77 H 0.78484 0.14841 0.01318
H78 H 0.77497 0.13759 0.33099
H79_2 H 0.77359 0.15171 0.39868
H80 H 0.75205 0.13471 0.29141
H81 H 0.75838 0.14752 0.11256
H82 H 0.76011 0.12189 0.08272
C1 C 0.90807 0.20194 0.31279
C2 C 0.90585 0.19155 0.16026
C3 C 0.89216 0.18555 0.06465
C4 C 0.88085 0.17677 0.20310
C5 C 0.86739 0.17065 0.10112
C6 C 0.85585 0.16246 0.24072
C7_2 C 0.85123 0.17718 0.67067
C8 C 0.88567 0.21882 0.13857
C9_2 C 0.88190 0.23727 0.47277
C10_2 C 0.91952 0.22768 0.89254
C12_2 C 0.96091 0.27065 0.88447
C13 C 0.78935 0.12231 0.05624
C14 C 0.80106 0.13315 0.12534
C21 C 0.80939 0.14364 0.00386
C25 C 0.83246 0.15383 0.12390
C26 C 0.84404 0.16432 0.20341
C27 C 0.84431 0.17628 0.25035
C28_2 C 0.91073 0.23053 0.76590
C29_2 C 0.89997 0.21992 0.67257
C30_2 C 0.89066 0.22175 0.56931
C31_2 C 0.89226 0.23461 0.55785
C32_2 C 0.90357 0.24536 0.63807
C33_2 C 0.91264 0.24347 0.74693
C54 C 0.82128 0.15508 0.08875
C55 C 0.82155 0.16703 0.13575
C56 C 0.83313 0.17752 0.21520
C58_2 C 0.92348 0.25497 0.85068
C59_2 C 0.87913 0.20994 0.48264
C60_2 C 0.85620 0.18771 0.33542
C61_2 C 0.93672 0.25866 0.81125
C62_2 C 0.94722 0.26861 0.91774
C63_3 C 0.92076 0.26183 0.99537
C65_2 C 0.87074 0.19943 0.60414
C66_2 C 0.85942 0.18824 0.53264
C67 C 0.86458 0.19818 0.21398
C68 C 0.87631 0.20897 0.28314
C73 C 0.78006 0.11242 0.20088
C75 C 0.80974 0.16888 0.09871
C76 C 0.79818 0.16065 0.23809
C77 C 0.78473 0.15448 0.13586
C78 C 0.77343 0.14564 0.27404
C79 C 0.75974 0.13958 0.17824
C80 C 0.75759 0.12925 0.02523
H42_3 H 0.97241 0.33822 0.25434
O1_3 O 0.97576 0.33547 0.36592
O4_3 O 0.99536 0.34939 0.06350
H85_3 H 0.969136 0.326021 0.404591
H14_3 H 0.99998 0.48576 0.12287
H16_3 H 0.98254 0.47591 0.06397
H23_3 H 0.97835 0.41332 0.37268
H24_3 H 0.96786 0.41764 0.23940
H25_3 H 0.96922 0.40370 0.16412
H29_3 H 0.97696 0.36465 0.30241
H30_3 H 0.96716 0.37232 0.25922
H31_3 H 0.97571 0.36979 0.06304
H37_3 H 0.97816 0.43480 0.01954
H45_3 H 0.99509 0.36943 0.98008
H46_3 H 0.99401 0.38569 0.77650
H50_3 H 0.98129 0.39448 0.03317
H52_3 H 0.99357 0.46029 0.08941
C7_3 C 0.99262 0.48210 0.00400
C10_3 C 0.97483 0.41381 0.22587
C12_3 C 0.97641 0.37242 0.21780
C28_3 C 0.98647 0.42260 0.09923
C29_3 C 0.98662 0.43336 0.00590
C33_3 C 0.99750 0.42069 0.08026
C39_3 C 0.99924 0.35936 0.75089
C40_3 C 0.99832 0.34895 0.88679
C45_3 C 0.99791 0.37845 0.51335
C46_3 C 0.99602 0.37842 0.71156
C47_3 C 0.99671 0.36907 0.82792
C57_3 C 0.99781 0.38887 0.39317
C58_3 C 0.99816 0.40985 0.18401
C61_3 C 0.98861 0.39661 0.14458
C62_3 C 0.98806 0.38611 0.25107
H6 H 0.89195 0.17944 0.94020
H10 H 0.86712 0.16415 0.98172
H33 H 0.79255 0.13135 0.58337
H34 H 0.73763 0.05422 0.12346
H35 H 0.72691 0.07744 0.62864
H41 H 0.70180 0.03193 0.36717
H47 H 0.76094 0.07601 0.71557
H48 H 0.76705 0.12110 0.65318
H54 H 0.70201 0.05759 0.58453
H55 H 0.70543 0.07006 0.40563
H56 H 0.69780 0.05304 0.33617
H57 H 0.76584 0.08408 0.27430
H58 H 0.76385 0.06989 0.40852
H59 H 0.76026 0.06851 0.15596
H60 H 0.73613 0.09886 0.50506
H61 H 0.75005 0.11421 0.43082
H62 H 0.74586 0.09944 0.29744
H63 H 0.79323 0.10330 0.90446
H64 H 0.78006 0.08784 0.99612
H65 H 0.78671 0.08879 0.75867
H69 H 0.80808 0.15803 0.60913
H70 H 0.82287 0.16259 0.73905
H71 H 0.81796 0.15049 0.54952
H73 H 0.80662 0.16633 0.94642
H83 H 0.74704 0.12395 0.98006
H84 H 0.76375 0.13413 0.89635
C15 C 0.80615 0.14309 0.80671
C16 C 0.79487 0.13187 0.73529
C17 C 0.73532 0.05939 0.23313
C18 C 0.74562 0.06952 0.33932
C19 C 0.71901 0.06267 0.40525
C20 C 0.72929 0.07244 0.51737
C22 C 0.78652 0.12133 0.85679
C23 C 0.74260 0.07621 0.48318
C24 C 0.72208 0.05590 0.26316
C36 C 0.71190 0.04551 0.13785
C37 C 0.70187 0.03360 0.21508
C43 C 0.69256 0.02349 0.09645
C48 C 0.75323 0.08769 0.59028
C49 C 0.76230 0.08587 0.70037
C50 C 0.77355 0.09666 0.78119
C51 C 0.77504 0.10947 0.77006
C52 C 0.76569 0.11123 0.66652
C53 C 0.75504 0.10060 0.57191
C69 C 0.70527 0.06060 0.43374
C70 C 0.75968 0.07322 0.29204
C71 C 0.74626 0.10341 0.44423
C72 C 0.78399 0.09410 0.86585
C74 C 0.81430 0.15417 0.66867
O7 O 0.68404 0.01259 0.17524
Mg8 Mg 0.67063 0.01050 0.37402
H39 H 0.72078 0.05617 0.87560
H40 H 0.70477 0.03925 0.66597
H43 H 0.67128 0.03172 0.43064
C34 C 0.70368 0.03730 0.81830
C35 C 0.71290 0.04716 0.93847
C41 C 0.68282 0.01693 0.76564
C42 C 0.69308 0.02547 0.89284
O5 O 0.68357 0.01992 0.58679
O6 O 0.67275 0.00651 0.82899
O8 O 0.66989 0.02691 0.30756
O16 O 0.65408 0.00478 0.50857
H86 H 0.677176 0.0325928 0.214581
H34_2 H 0.61245 0.01674 0.45679
H41_2 H 0.63474 0.00320 0.70050
H57_2 H 0.58259 0.01509 0.60763
H58_2 H 0.59678 0.02729 0.74185
H59_2 H 0.59816 0.02508 0.48929
H71_2 H 0.51618 0.00080 0.88285
C17_2 C 0.60728 0.00926 0.56646
C18_2 C 0.59715 0.00943 0.67265
C37_2 C 0.63307 0.00160 0.54841
C42_2 C 0.64120 0.00094 0.22617
C43_2 C 0.64318 0.00240 0.42978
C70_2 C 0.59345 0.01979 0.62537
Mg7 Mg 0.67320 0.99604 0.04069
O13 O 0.66709 0.99392 0.49566
O14 O 0.66016 0.99957 0.16232
Mg6 Mg 0.65617 0.99346 0.70735
H33_2 H 0.53532 0.99453 0.91670
H35_2 H 0.58923 0.98280 0.96197
H39_2 H 0.61050 0.99794 0.20893
H48_2 H 0.54557 0.97928 0.98651
H54_2 H 0.60908 0.97775 0.91786
H55_2 H 0.59661 0.96870 0.73896
H56_2 H 0.61363 0.97809 0.66950
H60_2 H 0.56781 0.97060 0.83839
H61_2 H 0.55246 0.96917 0.76415
H62_2 H 0.56723 0.97975 0.63077
H69_2 H 0.50864 0.98338 0.94246
C19_2 C 0.60400 0.98967 0.73858
C20_2 C 0.59423 0.99018 0.85070
C23_2 C 0.59046 0.99972 0.81651
C24_2 C 0.61077 0.99951 0.59649
C34_2 C 0.62937 0.99971 0.15163
C35_2 C 0.61951 0.99907 0.27180
C36_2 C 0.62116 0.99972 0.47118
C41_2 C 0.64974 0.99922 0.09897
C48_2 C 0.57898 0.99887 0.92361
C52_2 C 0.55544 0.98779 0.99985
C53_2 C 0.56607 0.98777 0.90524
C69_2 C 0.60607 0.97800 0.76707
C71_2 C 0.56326 0.97618 0.77756
H40_2 H 0.62742 0.99885 0.99930
H43_2 H 0.63495 0.97289 0.76397
O5_2 O 0.64675 0.99698 0.92012
O8_2 O 0.63976 0.97631 0.64089
O16_2 O 0.66188 0.98263 0.84191
H86_2 H 0.634074 0.977917 0.547914
H3_2 H 0.63704 0.76105 0.92156
H4_2 H 0.60976 0.75950 0.89301
H5_2 H 0.61616 0.75313 0.71360
H6_2 H 0.62082 0.77472 0.60687
H7_2 H 0.63628 0.77600 0.67411
H8_2 H 0.63541 0.78588 0.99231
H9_2 H 0.61966 0.78428 0.92686
H10_2 H 0.63036 0.79955 0.64839
H11_2 H 0.64569 0.80026 0.70194
H13_2 H 0.63220 0.81369 0.89272
H17_2 H 0.67642 0.78568 0.73639
H18_2 H 0.66421 0.77139 0.86941
H19_2 H 0.65892 0.77881 0.69293
H32_2 H 0.66353 0.86320 0.94361
H33_3 H 0.67213 0.87412 0.25004
H35_3 H 0.68386 0.93976 0.29531
H36_2 H 0.64582 0.83454 0.75431
H41_3 H 0.66346 0.96487 0.03384
H47_2 H 0.64840 0.90573 0.38224
H48_3 H 0.68738 0.89962 0.31985
H49_2 H 0.68659 0.83320 0.91816
H53_2 H 0.66882 0.80449 0.72901
H54_3 H 0.68891 0.96466 0.25120
H55_3 H 0.69796 0.96124 0.07230
H56_3 H 0.68857 0.96887 0.00284
H58_3 H 0.63937 0.90282 0.07519
H60_3 H 0.69606 0.93054 0.17173
H61_3 H 0.69749 0.91662 0.09749
H63_2 H 0.64340 0.87344 0.57113
H64_2 H 0.64111 0.88661 0.66279
H65_2 H 0.63541 0.87996 0.42534
H66_2 H 0.67332 0.88892 0.97927
H67_2 H 0.66779 0.89617 0.80338
H68_2 H 0.65578 0.88182 0.93713
H69_3 H 0.68328 0.85859 0.27580
H70_2 H 0.67305 0.84380 0.40572
H71_3 H 0.66586 0.84871 0.21619
H72_2 H 0.70022 0.85408 0.78054
H73_2 H 0.69304 0.86005 0.61309
H74_2 H 0.68668 0.86747 0.97073
H76_2 H 0.71269 0.88353 0.74562
H77_2 H 0.69690 0.88183 0.67985
H78_2 H 0.69595 0.89170 0.99766
H80_2 H 0.71599 0.91462 0.95808
H81_2 H 0.72247 0.90829 0.77923
H82_2 H 0.69511 0.90656 0.74939
H83_2 H 0.71024 0.91963 0.64673
H84_2 H 0.70371 0.90292 0.56302
C1_2 C 0.62720 0.75860 0.97946
C2_2 C 0.61903 0.76082 0.82693
C3_2 C 0.62672 0.77451 0.73132
C4_2 C 0.62925 0.78582 0.86977
C5_2 C 0.63659 0.79928 0.76779
C6_2 C 0.63994 0.81082 0.90739
C8_2 C 0.66648 0.78100 0.80524
C13_2 C 0.66629 0.87732 0.72291
C14_2 C 0.66542 0.86561 0.79201
C15_2 C 0.67027 0.86052 0.47338
C16_2 C 0.67033 0.87180 0.40196
C18_3 C 0.65723 0.92105 0.00599
C19_3 C 0.67699 0.94766 0.07192
C20_3 C 0.67648 0.93738 0.18404
C21_2 C 0.66758 0.85728 0.67053
C22_2 C 0.66814 0.88015 0.52346
C23_3 C 0.66694 0.92407 0.14985
C25_2 C 0.65470 0.83421 0.79057
C26_2 C 0.65361 0.82263 0.87008
C27_2 C 0.66530 0.82236 0.91702
C48_3 C 0.66779 0.91344 0.25695
C49_2 C 0.65690 0.90437 0.36704
C50_2 C 0.65644 0.89312 0.44786
C51_2 C 0.66776 0.89163 0.43673
C52_3 C 0.67887 0.90098 0.33319
C53_3 C 0.67889 0.91163 0.23858
C54_2 C 0.66713 0.84539 0.75542
C55_2 C 0.67881 0.84512 0.80242
C56_2 C 0.67772 0.83354 0.88187
C67_2 C 0.66693 0.80209 0.88065
C68_2 C 0.66599 0.79036 0.94981
C69_3 C 0.68866 0.96140 0.10041
C71_3 C 0.69048 0.92041 0.11090
C72_2 C 0.64344 0.88268 0.53252
C73_2 C 0.66569 0.88661 0.86755
C74_2 C 0.67320 0.85237 0.33534
C75_2 C 0.69247 0.85693 0.76538
C76_2 C 0.69580 0.86849 0.90476
C77_2 C 0.70308 0.88194 0.80253
C78_2 C 0.70554 0.89324 0.94071
C79_2 C 0.71317 0.90693 0.84491
C80_2 C 0.70499 0.90908 0.69190
H34_3 H 0.64992 0.92904 0.79013
H39_3 H 0.66872 0.94589 0.54227
H40_3 H 0.66781 0.96190 0.33264
H43_3 H 0.69377 0.99539 0.09731
H57_3 H 0.65157 0.90083 0.94097
H59_3 H 0.64158 0.90641 0.82263
H62_3 H 0.68691 0.92081 0.96411
C17_3 C 0.65740 0.93135 0.89980
C24_3 C 0.66715 0.94459 0.92983
C34_3 C 0.66695 0.96299 0.48497
C35_3 C 0.66759 0.95377 0.60514
C36_3 C 0.66694 0.95477 0.80452
C37_3 C 0.66506 0.96480 0.88175
C41_3 C 0.66744 0.98385 0.43231
C42_3 C 0.66572 0.97359 0.55951
C43_3 C 0.66426 0.97411 0.76312
C70_3 C 0.64687 0.90699 0.95871
O5_3 O 0.66968 0.98310 0.25346
O8_3 O 0.69035 0.99678 0.97423
H86_3 H 0.68875 0.989491 0.881248
Mg7_2 Mg 0.00396 0.67717 0.04069
O13_2 O 0.00608 0.67318 0.49566
O14_2 O 0.00043 0.66058 0.16232
Mg6_2 Mg 0.00654 0.66270 0.70735
H33_4 H 0.00547 0.54078 0.91670
H35_4 H 0.01720 0.60642 0.96197
H39_4 H 0.00206 0.61255 0.20893
H48_4 H 0.02072 0.56628 0.98651
H54_4 H 0.02225 0.63132 0.91786
H55_4 H 0.03130 0.62790 0.73896
H56_4 H 0.02191 0.63553 0.66950
H60_4 H 0.02940 0.59720 0.83839
H61_4 H 0.03083 0.58328 0.76415
H62_4 H 0.02025 0.58747 0.63077
H69_4 H 0.01662 0.52525 0.94246
C19_4 C 0.01033 0.61432 0.73858
C20_4 C 0.00982 0.60404 0.85070
C23_4 C 0.00028 0.59073 0.81651
C24_4 C 0.00049 0.61125 0.59649
C34_4 C 0.00029 0.62965 0.15163
C35_4 C 0.00093 0.62043 0.27180
C36_4 C 0.00028 0.62143 0.47118
C41_4 C 0.00078 0.65051 0.09897
C48_4 C 0.00113 0.58010 0.92361
C52_4 C 0.01221 0.56764 0.99985
C53_4 C 0.01223 0.57829 0.90524
C69_4 C 0.02200 0.62806 0.76707
C71_4 C 0.02382 0.58707 0.77756
H40_4 H 0.00115 0.62856 0.99930
H43_4 H 0.02711 0.66205 0.76397
O5_4 O 0.00302 0.64976 0.92012
O8_4 O 0.02369 0.66344 0.64089
O16_3 O 0.01737 0.67926 0.84191
H86_4 H 0.0220833 0.656157 0.547914
H3_3 H 0.23895 0.87600 0.92156
H4_3 H 0.24050 0.85027 0.89301
H5_3 H 0.24687 0.86304 0.71360
H6_3 H 0.22528 0.84611 0.60687
H7_3 H 0.22400 0.86029 0.67411
H8_3 H 0.21412 0.84954 0.99231
H9_3 H 0.21572 0.83539 0.92686
H10_3 H 0.20045 0.83082 0.64839
H11_3 H 0.19974 0.84544 0.70194
H13_3 H 0.18631 0.81852 0.89272
H17_3 H 0.21432 0.89075 0.73639
H18_3 H 0.22861 0.89283 0.86941
H19_3 H 0.22119 0.88012 0.69293
H32_3 H 0.13680 0.80034 0.94361
H33_5 H 0.12588 0.79802 0.25004
H35_5 H 0.06024 0.74411 0.29531
H36_3 H 0.16546 0.81129 0.75431
H41_4 H 0.03513 0.69860 0.03384
H47_3 H 0.09427 0.74268 0.38224
H48_5 H 0.10038 0.78777 0.31985
H49_3 H 0.16680 0.85340 0.91816
H53_3 H 0.19551 0.86434 0.72901
H54_5 H 0.03534 0.72426 0.25120
H55_5 H 0.03876 0.73673 0.07230
H56_5 H 0.03113 0.71971 0.00284
H58_4 H 0.09718 0.73656 0.07519
H60_5 H 0.06946 0.76553 0.17173
H61_5 H 0.08338 0.78088 0.09749
H63_3 H 0.12656 0.76997 0.57113
H64_3 H 0.11339 0.75451 0.66279
H65_3 H 0.12004 0.75546 0.42534
H66_3 H 0.11108 0.78441 0.97927
H67_3 H 0.10383 0.77163 0.80338
H68_3 H 0.11818 0.77397 0.93713
H69_5 H 0.14141 0.82470 0.27580
H70_3 H 0.15620 0.82926 0.40572
H71_4 H 0.15129 0.81716 0.21619
H72_3 H 0.14592 0.84615 0.78054
H73_3 H 0.13995 0.83300 0.61309
H74_3 H 0.13253 0.81922 0.97073
H76_3 H 0.11647 0.82917 0.74562
H77_3 H 0.11817 0.81508 0.67985
H78_3 H 0.10830 0.80426 0.99766
H80_3 H 0.08538 0.80138 0.95808
H81_3 H 0.09171 0.81419 0.77923
H82_3 H 0.09344 0.78856 0.74939
H83_3 H 0.08037 0.79062 0.64673
H84_3 H 0.09708 0.80080 0.56302
C1_3 C 0.24140 0.86861 0.97946
C2_3 C 0.23918 0.85822 0.82693
C3_3 C 0.22549 0.85222 0.73132
C4_3 C 0.21418 0.84344 0.86977
C5_3 C 0.20072 0.83732 0.76779
C6_3 C 0.18918 0.82913 0.90739
C8_3 C 0.21900 0.88549 0.80524
C13_3 C 0.12268 0.78898 0.72291
C14_3 C 0.13439 0.79982 0.79201
C15_3 C 0.13948 0.80976 0.47338
C16_3 C 0.12820 0.79854 0.40196
C18_4 C 0.07895 0.73619 0.00599
C19_5 C 0.05234 0.72934 0.07192
C20_5 C 0.06262 0.73911 0.18404
C21_3 C 0.14272 0.81031 0.67053
C22_3 C 0.11985 0.78800 0.52346
C23_5 C 0.07593 0.74288 0.14985
C25_3 C 0.16579 0.82050 0.79057
C26_3 C 0.17737 0.83099 0.87008
C27_3 C 0.17764 0.84295 0.91702
C48_5 C 0.08656 0.75436 0.25695
C49_3 C 0.09563 0.75254 0.36704
C50_3 C 0.10688 0.76333 0.44786
C51_3 C 0.10837 0.77614 0.43673
C52_5 C 0.09902 0.77790 0.33319
C53_5 C 0.08837 0.76727 0.23858
C54_3 C 0.15461 0.82175 0.75542
C55_3 C 0.15488 0.83370 0.80242
C56_3 C 0.16646 0.84419 0.88187
C67_3 C 0.19791 0.86485 0.88065
C68_3 C 0.20964 0.87564 0.94981
C69_5 C 0.03860 0.72727 0.10041
C71_5 C 0.07959 0.77008 0.11090
C72_3 C 0.11732 0.76077 0.53252
C73_3 C 0.11339 0.77909 0.86755
C74_3 C 0.14763 0.82084 0.33534
C75_3 C 0.14307 0.83555 0.76538
C76_3 C 0.13151 0.82732 0.90476
C77_3 C 0.11806 0.82115 0.80253
C78_3 C 0.10676 0.81231 0.94071
C79_3 C 0.09307 0.80625 0.84491
C80_3 C 0.09092 0.79592 0.69190
H34_4 H 0.07096 0.72089 0.79013
H39_5 H 0.05411 0.72284 0.54227
H40_5 H 0.03810 0.70592 0.33264
H43_5 H 0.00461 0.69839 0.09731
H57_4 H 0.09917 0.75075 0.94097
H59_4 H 0.09359 0.73518 0.82263
H62_5 H 0.07919 0.76611 0.96411
C17_4 C 0.06865 0.72606 0.89980
C24_5 C 0.05541 0.72257 0.92983
C34_5 C 0.03701 0.70397 0.48497
C35_5 C 0.04623 0.71383 0.60514
C36_5 C 0.04523 0.71218 0.80452
C37_4 C 0.03520 0.70027 0.88175
C41_5 C 0.01615 0.68360 0.43231
C42_4 C 0.02641 0.69214 0.55951
C43_4 C 0.02589 0.69016 0.76312
C70_4 C 0.09301 0.73989 0.95871
O5_5 O 0.01690 0.68659 0.25346
O8_5 O 0.00322 0.69358 0.97423
H86_5 H 0.0105095 0.699259 0.881248
O1_4 O 0.69305 0.69091 0.03259
O10_3 O 0.67934 0.66112 0.12195
O12_2 O 0.66688 0.67301 0.16165
H85_4 H 0.690218 0.697531 0.0712573
H23_4 H 0.76831 0.68832 0.03935
H26_4 H 0.73693 0.64343 0.18445
H28_4 H 0.75270 0.65346 0.07162
H42_4 H 0.69915 0.69426 0.92101
H45_4 H 0.70768 0.67158 0.64675
H46_4 H 0.72502 0.67266 0.44317
H51_4 H 0.72259 0.65181 0.20703
C11_4 C 0.74186 0.64866 0.04914
C38_4 C 0.69145 0.66517 0.21456
C39_4 C 0.69346 0.66743 0.41756
C40_4 C 0.68397 0.66835 0.55346
C44_4 C 0.70168 0.66581 0.10017
C45_4 C 0.71388 0.66876 0.18002
C46_4 C 0.71574 0.67065 0.37823
C47_4 C 0.70570 0.66996 0.49459
C57_4 C 0.72440 0.66886 0.05984
C64_4 C 0.72788 0.65916 0.09632
O3_2 O 0.67279 0.66645 0.49498
O4_4 O 0.68737 0.67131 0.73017
Mg1_2 Mg 0.67737 0.67390 0.94292
O9_2 O 0.67221 0.68489 0.78862
O11_2 O 0.66033 0.66054 0.82831
Mg3_2 Mg 0.66320 0.65596 0.27625
Mg4_2 Mg 0.65943 0.67014 0.60959
H1_3 H 0.80288 0.70480 0.44183
H2_3 H 0.79281 0.71144 0.35785
H3_4 H 0.79067 0.69629 0.25489
H4_4 H 0.81640 0.72357 0.22634
H5_4 H 0.80363 0.71717 0.04693
H7_4 H 0.80638 0.69705 0.00744
H8_4 H 0.81713 0.69792 0.32564
H9_4 H 0.83128 0.71367 0.26019
H11_4 H 0.82123 0.68764 0.03527
H12_3 H 0.83496 0.69393 0.39294
H13_4 H 0.84815 0.70113 0.22605
H14_4 H 0.81912 0.66669 0.78954
H15_3 H 0.83123 0.67388 0.60015
H16_4 H 0.82671 0.68413 0.73064
H17_4 H 0.77592 0.65691 0.06972
H18_4 H 0.77384 0.66912 0.20274
H19_4 H 0.78655 0.67441 0.02626
H20_3 H 0.75735 0.63659 0.57966
H21_3 H 0.75648 0.64237 0.34236
H22_3 H 0.77189 0.64451 0.43421
H24_4 H 0.78312 0.69881 0.90607
H25_4 H 0.76782 0.69745 0.83079
H27_4 H 0.73883 0.64112 0.93373
H29_4 H 0.72103 0.68971 0.96908
H30_4 H 0.73850 0.69951 0.92589
H31_4 H 0.72742 0.69096 0.72971
H32_4 H 0.86633 0.66980 0.27694
H36_4 H 0.85538 0.68751 0.08764
H37_4 H 0.78998 0.68851 0.68621
H38_3 H 0.74475 0.64977 0.62272
H44_4 H 0.69992 0.66348 0.94880
H49_4 H 0.81327 0.64674 0.25149
H50_4 H 0.74653 0.68538 0.69984
H52_4 H 0.80006 0.67310 0.75608
H53_4 H 0.80233 0.66451 0.06234
H66_4 H 0.88226 0.66001 0.31260
H67_4 H 0.89504 0.66554 0.13671
H68_4 H 0.89270 0.67755 0.27046
H72_4 H 0.82052 0.63311 0.11387
H74_4 H 0.84745 0.64665 0.30406
H75_3 H 0.83287 0.63129 0.35742
H76_4 H 0.83750 0.62064 0.07895
H77_4 H 0.85159 0.63643 0.01318
H78_4 H 0.86241 0.63738 0.33099
H79_3 H 0.84829 0.62188 0.39868
H80_4 H 0.86529 0.61734 0.29141
H81_4 H 0.85248 0.61086 0.11256
H82_4 H 0.87811 0.63822 0.08272
C1_4 C 0.79806 0.70613 0.31279
C2_4 C 0.80845 0.71430 0.16026
C3_4 C 0.81445 0.70661 0.06465
C4_4 C 0.82323 0.70408 0.20310
C5_4 C 0.82935 0.69674 0.10112
C6_4 C 0.83754 0.69339 0.24072
C7_4 C 0.82282 0.67405 0.67067
C8_4 C 0.78118 0.66685 0.13857
C9_3 C 0.76273 0.64463 0.47277
C10_4 C 0.77232 0.69184 0.89254
C12_4 C 0.72935 0.69026 0.88447
C13_4 C 0.87769 0.66704 0.05624
C14_4 C 0.86685 0.66791 0.12534
C21_4 C 0.85636 0.66575 0.00386
C25_4 C 0.84617 0.67863 0.12390
C26_4 C 0.83568 0.67972 0.20341
C27_4 C 0.82372 0.66803 0.25035
C28_4 C 0.76947 0.68020 0.76590
C29_4 C 0.78008 0.68005 0.67257
C30_3 C 0.77825 0.66891 0.56931
C31_3 C 0.76539 0.65765 0.55785
C32_3 C 0.75464 0.65821 0.63807
C33_4 C 0.75653 0.66917 0.74693
C54_4 C 0.84492 0.66620 0.08875
C55_4 C 0.83297 0.65452 0.13575
C56_4 C 0.82248 0.65561 0.21520
C58_4 C 0.74503 0.66851 0.85068
C59_3 C 0.79006 0.66919 0.48264
C60_3 C 0.81229 0.66849 0.33542
C61_4 C 0.74134 0.67806 0.81125
C62_4 C 0.73139 0.67861 0.91774
C63_4 C 0.73817 0.65893 0.99537
C65_3 C 0.80057 0.67131 0.60414
C66_3 C 0.81176 0.67118 0.53264
C67_4 C 0.80182 0.66640 0.21398
C68_4 C 0.79103 0.66734 0.28314
C73_4 C 0.88758 0.66764 0.20088
C75_4 C 0.83112 0.64086 0.09871
C76_4 C 0.83935 0.63753 0.23809
C77_4 C 0.84552 0.63025 0.13586
C78_4 C 0.85436 0.62779 0.27404
C79_4 C 0.86042 0.62016 0.17824
C80_4 C 0.87075 0.62834 0.02523
H42_5 H 0.66178 0.63418 0.25434
O1_5 O 0.66453 0.64028 0.36592
O4_5 O 0.65061 0.64596 0.06350
O10_4 O 0.64845 0.65399 0.45528
H85_5 H 0.673979 0.643115 0.404591
H14_5 H 0.51424 0.51421 0.12287
H16_5 H 0.52409 0.50662 0.06397
H23_5 H 0.58668 0.56502 0.37268
H24_5 H 0.58236 0.55021 0.23940
H25_5 H 0.59630 0.56551 0.16412
H26_5 H 0.57317 0.59640 0.51778
H27_5 H 0.56896 0.59450 0.26706
H28_5 H 0.56743 0.58063 0.40495
H29_5 H 0.63535 0.61230 0.30241
H30_5 H 0.62768 0.59483 0.25922
H31_5 H 0.63021 0.60591 0.06304
H37_5 H 0.56520 0.54335 0.01954
H44_5 H 0.63023 0.63341 0.28213
H45_5 H 0.63057 0.62565 0.98008
H46_5 H 0.61431 0.60831 0.77650
H50_5 H 0.60552 0.58680 0.03317
H51_5 H 0.59589 0.61074 0.54036
H52_5 H 0.53971 0.53327 0.08941
C7_5 C 0.51790 0.51051 0.00400
C10_5 C 0.58619 0.56101 0.22587
C11_5 C 0.57347 0.59147 0.38247
C12_5 C 0.62758 0.60398 0.21780
C28_5 C 0.57740 0.56386 0.09923
C29_5 C 0.56664 0.55325 0.00590
C33_5 C 0.57931 0.57680 0.08026
C38_5 C 0.64039 0.64188 0.54789
C39_5 C 0.64064 0.63987 0.75089
C40_5 C 0.65105 0.64936 0.88679
C44_5 C 0.63080 0.63165 0.43350
C45_5 C 0.62155 0.61945 0.51335
C46_5 C 0.62158 0.61759 0.71156
C47_5 C 0.63093 0.62763 0.82792
C57_5 C 0.61113 0.60893 0.39317
C58_5 C 0.59015 0.58830 0.18401
C61_5 C 0.60339 0.59199 0.14458
C62_5 C 0.61389 0.60194 0.25107
C63_5 C 0.58743 0.59516 0.32870
C64_5 C 0.59795 0.60545 0.42965
H42_6 H 0.63907 0.67156 0.58768
H45_6 H 0.66175 0.70277 0.31342
H46_6 H 0.66067 0.71903 0.10984
C39_6 C 0.66590 0.69270 0.08423
C40_6 C 0.66498 0.68229 0.22013
C46_6 C 0.66268 0.71176 0.04490
C47_6 C 0.66337 0.70241 0.16126
O1_6 O 0.64242 0.66881 0.69926
O4_6 O 0.66202 0.68273 0.39684
H85_6 H 0.635802 0.659354 0.737924
H1_4 H 0.62853 0.76475 0.10850
H2_4 H 0.62189 0.74804 0.02452
H12_4 H 0.63940 0.80770 0.05961
H14_6 H 0.66664 0.81910 0.45621
H15_4 H 0.65945 0.82402 0.26682
H16_6 H 0.64920 0.80925 0.39731
H20_4 H 0.69674 0.78743 0.24633
H21_4 H 0.69096 0.78078 0.00903
H22_4 H 0.68882 0.79405 0.10088
H23_6 H 0.64501 0.74666 0.70602
H24_6 H 0.63452 0.75098 0.57274
H25_6 H 0.63588 0.73704 0.49746
H26_6 H 0.68990 0.76017 0.85112
H27_6 H 0.69221 0.76438 0.60040
H28_6 H 0.67987 0.76591 0.73829
H29_6 H 0.64362 0.69799 0.63575
H30_6 H 0.63382 0.70566 0.59256
H31_6 H 0.64237 0.70313 0.39638
H37_6 H 0.64482 0.76814 0.35288
H38_4 H 0.68356 0.76165 0.28939
H44_6 H 0.66985 0.70311 0.61547
H50_6 H 0.64795 0.72782 0.36651
H51_6 H 0.68152 0.73745 0.87370
H52_6 H 0.66023 0.79363 0.42275
H75_4 H 0.70204 0.86825 0.02409
H79_4 H 0.71145 0.89308 0.06535
C7_6 C 0.65928 0.81544 0.33734
C9_4 C 0.68870 0.78477 0.13944
C10_6 C 0.64149 0.74715 0.55921
C11_6 C 0.68467 0.75987 0.71581
C12_6 C 0.64307 0.70576 0.55114
C28_6 C 0.65313 0.75594 0.43257
C29_6 C 0.65328 0.76670 0.33924
C30_4 C 0.66442 0.77601 0.23598
C31_4 C 0.67568 0.77441 0.22452
C32_4 C 0.67512 0.76310 0.30474
C33_6 C 0.66416 0.75403 0.41360
C38_6 C 0.66816 0.69295 0.88123
C44_6 C 0.66752 0.70254 0.76684
C45_6 C 0.66457 0.71179 0.84669
C57_6 C 0.66447 0.72221 0.72651
C58_6 C 0.66482 0.74319 0.51735
C59_4 C 0.66414 0.78754 0.14931
C60_4 C 0.66484 0.81047 0.00209
C61_6 C 0.65527 0.72995 0.47792
C62_6 C 0.65472 0.71945 0.58441
C63_6 C 0.67440 0.74591 0.66204
C64_6 C 0.67417 0.73539 0.76299
C65_4 C 0.66202 0.79593 0.27081
C66_4 C 0.66215 0.80725 0.19931
H6_4 H 0.82056 0.71251 0.94020
H10_4 H 0.83585 0.70297 0.98172
H33_6 H 0.86865 0.66120 0.58337
H34_5 H 0.94578 0.68341 0.12346
H35_6 H 0.92256 0.64947 0.62864
H41_5 H 0.96807 0.66987 0.36717
H47_4 H 0.92399 0.68493 0.71557
H48_6 H 0.87890 0.64595 0.65318
H54_6 H 0.94241 0.64442 0.58453
H55_6 H 0.92994 0.63537 0.40563
H56_6 H 0.94696 0.64476 0.33617
H57_5 H 0.91592 0.68176 0.27430
H58_5 H 0.93011 0.69396 0.40852
H59_5 H 0.93149 0.69175 0.15596
H60_6 H 0.90114 0.63727 0.50506
H61_6 H 0.88579 0.63584 0.43082
H62_6 H 0.90056 0.64642 0.29744
H63_4 H 0.89670 0.68993 0.90446
H64_4 H 0.91216 0.69222 0.99612
H65_4 H 0.91121 0.69792 0.75867
H69_6 H 0.84197 0.65005 0.60913
H70_4 H 0.83741 0.66028 0.73905
H71_5 H 0.84951 0.66747 0.54952
H73_4 H 0.83367 0.64029 0.94642
H83_4 H 0.87605 0.62309 0.98006
H84_4 H 0.86587 0.62962 0.89635
C15_4 C 0.85691 0.66306 0.80671
C16_4 C 0.86813 0.66300 0.73529
C17_5 C 0.94061 0.67593 0.23313
C18_5 C 0.93048 0.67610 0.33932
C19_6 C 0.93733 0.65634 0.40525
C20_6 C 0.92756 0.65685 0.51737
C22_4 C 0.87867 0.66519 0.85679
C23_6 C 0.92379 0.66639 0.48318
C24_6 C 0.94410 0.66618 0.26316
C36_6 C 0.95449 0.66639 0.13785
C37_5 C 0.96640 0.66827 0.21508
C43_5 C 0.97651 0.66907 0.09645
C48_6 C 0.91231 0.66554 0.59028
C49_4 C 0.91413 0.67643 0.70037
C50_4 C 0.90334 0.67689 0.78119
C51_4 C 0.89053 0.66557 0.77006
C52_6 C 0.88877 0.65446 0.66652
C53_6 C 0.89940 0.65444 0.57191
C69_6 C 0.93940 0.64467 0.43374
C70_5 C 0.92678 0.68646 0.29204
C71_6 C 0.89659 0.64285 0.44423
C72_4 C 0.90590 0.68989 0.86585
C74_4 C 0.84583 0.66013 0.66867
O7_2 O 0.98741 0.67145 0.17524
Mg8_2 Mg 0.98950 0.66013 0.37402
H39_6 H 0.94383 0.66461 0.87560
H40_6 H 0.96075 0.66552 0.66597
H43_6 H 0.96828 0.63956 0.43064
C34_6 C 0.96270 0.66638 0.81830
C35_6 C 0.95284 0.66574 0.93847
C41_6 C 0.98307 0.66589 0.76564
C42_5 C 0.97453 0.66761 0.89284
O5_6 O 0.98008 0.66365 0.58679
O6_2 O 0.99349 0.66624 0.82899
O8_6 O 0.97309 0.64298 0.30756
O16_4 O 0.99522 0.64929 0.50857
H86_6 H 0.967407 0.644583 0.214581
H34_6 H 0.98326 0.59570 0.45679
H41_6 H 0.99680 0.63153 0.70050
H57_6 H 0.98491 0.56749 0.60763
H58_6 H 0.97271 0.56948 0.74185
H59_6 H 0.97492 0.57307 0.48929
H71_6 H 0.99920 0.51537 0.88285
C17_6 C 0.99074 0.59801 0.56646
C18_6 C 0.99057 0.58771 0.67265
C37_6 C 0.99840 0.63146 0.54841
C42_6 C 0.99906 0.64025 0.22617
C43_6 C 0.99760 0.64077 0.42978
C70_6 C 0.98021 0.57365 0.62537
O1_7 O 0.30909 0.00214 0.03259
O10_5 O 0.33888 0.01822 0.12195
H23_7 H 0.31168 0.07999 0.03935
H26_7 H 0.35657 0.09350 0.18445
H28_7 H 0.34654 0.09924 0.07162
H42_7 H 0.30574 0.00489 0.92101
H45_7 H 0.32842 0.03610 0.64675
H46_7 H 0.32734 0.05236 0.44317
H51_7 H 0.34819 0.07078 0.20703
C11_7 C 0.35134 0.09320 0.04914
C38_7 C 0.33483 0.02628 0.21456
C39_7 C 0.33257 0.02603 0.41756
C40_7 C 0.33165 0.01562 0.55346
C44_7 C 0.33419 0.03587 0.10017
C45_7 C 0.33124 0.04512 0.18002
C46_7 C 0.32935 0.04509 0.37823
C47_7 C 0.33004 0.03574 0.49459
C57_7 C 0.33114 0.05554 0.05984
C64_7 C 0.34084 0.06872 0.09632
O3_3 O 0.33355 0.00634 0.49498
O4_7 O 0.32869 0.01606 0.73017
Mg1_3 Mg 0.32610 0.00347 0.94292
Mg3_3 Mg 0.34404 0.00723 0.27625
H1_5 H 0.29520 0.09808 0.44183
H2_5 H 0.28856 0.08137 0.35785
H3_5 H 0.30371 0.09438 0.25489
H4_5 H 0.27643 0.09283 0.22634
H5_5 H 0.28283 0.08646 0.04693
H7_5 H 0.30295 0.10933 0.00744
H8_5 H 0.30208 0.11921 0.32564
H9_5 H 0.28633 0.11761 0.26019
H11_5 H 0.31236 0.13359 0.03527
H12_5 H 0.30607 0.14103 0.39294
H13_5 H 0.29887 0.14702 0.22605
H14_7 H 0.33331 0.15243 0.78954
H15_5 H 0.32612 0.15735 0.60015
H16_7 H 0.31587 0.14258 0.73064
H17_5 H 0.34309 0.11901 0.06972
H18_5 H 0.33088 0.10472 0.20274
H19_5 H 0.32559 0.11214 0.02626
H20_5 H 0.36341 0.12076 0.57966
H21_5 H 0.35763 0.11411 0.34236
H22_5 H 0.35549 0.12738 0.43421
H24_7 H 0.30119 0.08431 0.90607
H25_7 H 0.30255 0.07037 0.83079
H27_7 H 0.35888 0.09771 0.93373
H29_7 H 0.31029 0.03132 0.96908
H30_7 H 0.30049 0.03899 0.92589
H31_7 H 0.30904 0.03646 0.72971
H32_5 H 0.33020 0.19653 0.27694
H36_5 H 0.31249 0.16787 0.08764
H37_7 H 0.31149 0.10147 0.68621
H38_5 H 0.35023 0.09498 0.62272
H44_7 H 0.33652 0.03644 0.94880
H49_5 H 0.35326 0.16653 0.25149
H50_7 H 0.31462 0.06115 0.69984
H52_7 H 0.32690 0.12696 0.75608
H53_5 H 0.33549 0.13782 0.06234
H66_5 H 0.33999 0.22225 0.31260
H67_5 H 0.33446 0.22950 0.13671
H68_5 H 0.32245 0.21515 0.27046
H72_5 H 0.36689 0.18741 0.11387
H74_5 H 0.35335 0.20080 0.30406
H75_5 H 0.36871 0.20158 0.35742
H76_5 H 0.37936 0.21686 0.07895
H77_5 H 0.36357 0.21516 0.01318
H78_5 H 0.36262 0.22503 0.33099
H79_5 H 0.37812 0.22641 0.39868
H80_5 H 0.38266 0.24795 0.29141
H81_5 H 0.38914 0.24162 0.11256
H82_5 H 0.36178 0.23989 0.08272
C1_5 C 0.29387 0.09193 0.31279
C2_5 C 0.28570 0.09415 0.16026
C3_5 C 0.29339 0.10784 0.06465
C4_5 C 0.29592 0.11915 0.20310
C5_5 C 0.30326 0.13261 0.10112
C6_5 C 0.30661 0.14415 0.24072
C7_7 C 0.32595 0.14877 0.67067
C8_5 C 0.33315 0.11433 0.13857
C9_5 C 0.35537 0.11810 0.47277
C10_7 C 0.30816 0.08048 0.89254
C12_7 C 0.30974 0.03909 0.88447
C13_5 C 0.33296 0.21065 0.05624
C14_5 C 0.33209 0.19894 0.12534
C21_5 C 0.33425 0.19061 0.00386
C25_5 C 0.32137 0.16754 0.12390
C26_5 C 0.32028 0.15596 0.20341
C27_5 C 0.33197 0.15569 0.25035
C28_7 C 0.31980 0.08927 0.76590
C29_7 C 0.31995 0.10003 0.67257
C30_5 C 0.33109 0.10934 0.56931
C31_5 C 0.34235 0.10774 0.55785
C32_5 C 0.34179 0.09643 0.63807
C33_7 C 0.33083 0.08736 0.74693
C54_5 C 0.33380 0.17872 0.08875
C55_5 C 0.34548 0.17845 0.13575
C56_5 C 0.34439 0.16687 0.21520
C58_7 C 0.33149 0.07652 0.85068
C59_5 C 0.33081 0.12087 0.48264
C60_5 C 0.33151 0.14380 0.33542
C61_7 C 0.32194 0.06328 0.81125
C62_7 C 0.32139 0.05278 0.91774
C63_7 C 0.34107 0.07924 0.99537
C65_5 C 0.32869 0.12926 0.60414
C66_5 C 0.32882 0.14058 0.53264
C67_5 C 0.33360 0.13542 0.21398
C68_5 C 0.33266 0.12369 0.28314
C73_5 C 0.33236 0.21994 0.20088
C75_5 C 0.35914 0.19026 0.09871
C76_5 C 0.36247 0.20182 0.23809
C77_5 C 0.36975 0.21527 0.13586
C78_5 C 0.37221 0.22657 0.27404
C79_5 C 0.37984 0.24026 0.17824
C80_5 C 0.37166 0.24241 0.02523
H42_8 H 0.36582 0.02759 0.25434
O1_8 O 0.35972 0.02424 0.36592
O4_8 O 0.35404 0.00464 0.06350
H85_7 H 0.356885 0.0308644 0.404591
H14_8 H 0.48579 0.00002 0.12287
H16_8 H 0.49338 0.01746 0.06397
H23_8 H 0.43498 0.02165 0.37268
H24_8 H 0.44979 0.03214 0.23940
H25_8 H 0.43449 0.03078 0.16412
H29_8 H 0.38770 0.02304 0.30241
H30_8 H 0.40517 0.03284 0.25922
H31_8 H 0.39409 0.02429 0.06304
H37_8 H 0.45665 0.02184 0.01954
H45_8 H 0.37435 0.00491 0.98008
H46_8 H 0.39169 0.00599 0.77650
H50_8 H 0.41320 0.01871 0.03317
H52_8 H 0.46673 0.00643 0.08941
C7_8 C 0.48949 0.00738 0.00400
C10_8 C 0.43899 0.02517 0.22587
C12_8 C 0.39602 0.02359 0.21780
C28_8 C 0.43614 0.01353 0.09923
C29_8 C 0.44675 0.01338 0.00590
C33_8 C 0.42320 0.00250 0.08026
C39_8 C 0.36013 0.00076 0.75089
C40_8 C 0.35064 0.00168 0.88679
C45_8 C 0.38055 0.00209 0.51335
C46_8 C 0.38241 0.00398 0.71156
C47_8 C 0.37237 0.00329 0.82792
C57_8 C 0.39107 0.00219 0.39317
C58_8 C 0.41170 0.00184 0.18401
C61_8 C 0.40801 0.01139 0.14458
C62_8 C 0.39806 0.01194 0.25107
H6_5 H 0.28749 0.10805 0.94020
H10_5 H 0.29703 0.13288 0.98172
H33_7 H 0.33880 0.20745 0.58337
H34_7 H 0.31659 0.26237 0.12346
H35_7 H 0.35053 0.27309 0.62864
H41_7 H 0.33013 0.29820 0.36717
H47_5 H 0.31507 0.23906 0.71557
H48_7 H 0.35405 0.23295 0.65318
H54_7 H 0.35558 0.29799 0.58453
H55_7 H 0.36463 0.29457 0.40563
H56_7 H 0.35524 0.30220 0.33617
H57_7 H 0.31824 0.23416 0.27430
H58_7 H 0.30604 0.23615 0.40852
H59_7 H 0.30825 0.23974 0.15596
H60_7 H 0.36273 0.26387 0.50506
H61_7 H 0.36416 0.24995 0.43082
H62_7 H 0.35358 0.25414 0.29744
H63_5 H 0.31007 0.20677 0.90446
H64_5 H 0.30778 0.21994 0.99612
H65_5 H 0.30208 0.21329 0.75867
H69_7 H 0.34995 0.19192 0.60913
H70_5 H 0.33972 0.17713 0.73905
H71_7 H 0.33253 0.18204 0.54952
H73_5 H 0.35971 0.19338 0.94642
H83_5 H 0.37691 0.25296 0.98006
H84_5 H 0.37038 0.23625 0.89635
C15_5 C 0.33694 0.19385 0.80671
C16_5 C 0.33700 0.20513 0.73529
C17_7 C 0.32407 0.26468 0.23313
C18_7 C 0.32390 0.25438 0.33932
C19_7 C 0.34366 0.28099 0.40525
C20_7 C 0.34315 0.27071 0.51737
C22_5 C 0.33481 0.21348 0.85679
C23_7 C 0.33361 0.25740 0.48318
C24_7 C 0.33382 0.27792 0.26316
C36_7 C 0.33361 0.28810 0.13785
C37_7 C 0.33173 0.29813 0.21508
C43_7 C 0.33093 0.30744 0.09645
C48_7 C 0.33446 0.24677 0.59028
C49_5 C 0.32357 0.23770 0.70037
C50_5 C 0.32311 0.22645 0.78119
C51_5 C 0.33443 0.22496 0.77006
C52_7 C 0.34554 0.23431 0.66652
C53_7 C 0.34556 0.24496 0.57191
C69_7 C 0.35533 0.29473 0.43374
C70_7 C 0.31354 0.24032 0.29204
C71_7 C 0.35715 0.25374 0.44423
C72_5 C 0.31011 0.21601 0.86585
C74_5 C 0.33987 0.18570 0.66867
O7_3 O 0.32855 0.31596 0.17524
Mg7_3 Mg 0.32283 0.32680 0.04069
Mg8_3 Mg 0.33987 0.32937 0.37402
H39_7 H 0.33539 0.27922 0.87560
H40_7 H 0.33448 0.29523 0.66597
H43_7 H 0.36044 0.32872 0.43064
C34_7 C 0.33362 0.29632 0.81830
C35_7 C 0.33426 0.28710 0.93847
C41_7 C 0.33411 0.31718 0.76564
C42_7 C 0.33239 0.30692 0.89284
O5_7 O 0.33635 0.31643 0.58679
O6_3 O 0.33376 0.32725 0.82899
O8_7 O 0.35702 0.33011 0.30756
O13_3 O 0.32682 0.33291 0.49566
O14_3 O 0.33942 0.33984 0.16232
O16_5 O 0.35071 0.34592 0.50857
Mg6_3 Mg 0.33730 0.34383 0.70735
H86_7 H 0.355417 0.322824 0.214581
H33_8 H 0.45922 0.46468 0.91670
H34_8 H 0.40430 0.38755 0.45679
H35_8 H 0.39358 0.41077 0.96197
H39_8 H 0.38745 0.38950 0.20893
H41_8 H 0.36847 0.36526 0.70050
H48_8 H 0.43372 0.45443 0.98651
H54_8 H 0.36868 0.39092 0.91786
H55_8 H 0.37210 0.40339 0.73896
H56_8 H 0.36447 0.38637 0.66950
H57_8 H 0.43251 0.41741 0.60763
H58_8 H 0.43052 0.40322 0.74185
H59_8 H 0.42693 0.40184 0.48929
H60_8 H 0.40280 0.43219 0.83839
H61_8 H 0.41672 0.44754 0.76415
H62_8 H 0.41253 0.43277 0.63077
H69_8 H 0.47475 0.49136 0.94246
H71_8 H 0.48463 0.48382 0.88285
C17_8 C 0.40199 0.39272 0.56646
C18_8 C 0.41229 0.40285 0.67265
C19_8 C 0.38568 0.39600 0.73858
C20_8 C 0.39596 0.40577 0.85070
C23_8 C 0.40927 0.40954 0.81651
C24_8 C 0.38875 0.38923 0.59649
C34_8 C 0.37035 0.37063 0.15163
C35_8 C 0.37957 0.38049 0.27180
C36_8 C 0.37857 0.37884 0.47118
C37_8 C 0.36854 0.36693 0.54841
C41_8 C 0.34949 0.35026 0.09897
C42_8 C 0.35975 0.35880 0.22617
C43_8 C 0.35923 0.35682 0.42978
C48_8 C 0.41990 0.42102 0.92361
C52_8 C 0.43236 0.44456 0.99985
C53_8 C 0.42171 0.43393 0.90524
C69_8 C 0.37194 0.39393 0.76707
C70_8 C 0.42635 0.40655 0.62537
C71_8 C 0.41293 0.43674 0.77756
H40_8 H 0.37144 0.37258 0.99930
H43_8 H 0.33795 0.36505 0.76397
O5_8 O 0.35024 0.35325 0.92012
O8_8 O 0.33656 0.36024 0.64089
O16_6 O 0.32074 0.33812 0.84191
H86_8 H 0.343843 0.365926 0.547914
H3_6 H 0.12400 0.36296 0.92156
H4_6 H 0.14973 0.39024 0.89301
H5_6 H 0.13696 0.38384 0.71360
H6_6 H 0.15389 0.37918 0.60687
H7_6 H 0.13971 0.36372 0.67411
H8_6 H 0.15046 0.36459 0.99231
H9_6 H 0.16461 0.38034 0.92686
H10_6 H 0.16918 0.36964 0.64839
H11_6 H 0.15456 0.35431 0.70194
H13_6 H 0.18148 0.36780 0.89272
H17_6 H 0.10925 0.32358 0.73639
H18_6 H 0.10717 0.33579 0.86941
H19_6 H 0.11988 0.34108 0.69293
H32_6 H 0.19966 0.33647 0.94361
H33_9 H 0.20198 0.32787 0.25004
H35_9 H 0.25589 0.31614 0.29531
H36_6 H 0.18871 0.35418 0.75431
H41_9 H 0.30140 0.33654 0.03384
H47_6 H 0.25732 0.35160 0.38224
H48_9 H 0.21223 0.31262 0.31985
H49_6 H 0.14660 0.31341 0.91816
H53_6 H 0.13566 0.33118 0.72901
H54_9 H 0.27574 0.31109 0.25120
H55_9 H 0.26327 0.30204 0.07230
H56_9 H 0.28029 0.31143 0.00284
H58_9 H 0.26344 0.36063 0.07519
H60_9 H 0.23447 0.30394 0.17173
H61_9 H 0.21912 0.30251 0.09749
H63_6 H 0.23003 0.35660 0.57113
H64_6 H 0.24549 0.35889 0.66279
H65_6 H 0.24454 0.36459 0.42534
H66_6 H 0.21559 0.32668 0.97927
H67_6 H 0.22837 0.33221 0.80338
H68_6 H 0.22603 0.34422 0.93713
H69_9 H 0.17530 0.31672 0.27580
H70_6 H 0.17074 0.32695 0.40572
H71_9 H 0.18284 0.33414 0.21619
H72_6 H 0.15385 0.29978 0.78054
H73_6 H 0.16700 0.30696 0.61309
H74_6 H 0.18078 0.31332 0.97073
H76_6 H 0.17083 0.28731 0.74562
H77_6 H 0.18492 0.30310 0.67985
H78_6 H 0.19574 0.30405 0.99766
H80_6 H 0.19862 0.28401 0.95808
H81_6 H 0.18581 0.27753 0.77923
H82_6 H 0.21144 0.30489 0.74939
H83_6 H 0.20938 0.28976 0.64673
H84_6 H 0.19920 0.29629 0.56302
C1_6 C 0.13139 0.37280 0.97946
C2_6 C 0.14178 0.38097 0.82693
C3_6 C 0.14778 0.37328 0.73132
C4_6 C 0.15656 0.37075 0.86977
C5_6 C 0.16268 0.36341 0.76779
C6_6 C 0.17087 0.36006 0.90739
C8_6 C 0.11451 0.33352 0.80524
C13_6 C 0.21102 0.33371 0.72291
C14_6 C 0.20018 0.33458 0.79201
C15_6 C 0.19024 0.32973 0.47338
C16_6 C 0.20146 0.32967 0.40196
C18_9 C 0.26381 0.34277 0.00599
C19_9 C 0.27066 0.32301 0.07192
C20_9 C 0.26089 0.32352 0.18404
C21_6 C 0.18969 0.33242 0.67053
C22_6 C 0.21200 0.33186 0.52346
C23_9 C 0.25712 0.33306 0.14985
C25_6 C 0.17950 0.34530 0.79057
C26_6 C 0.16901 0.34639 0.87008
C27_6 C 0.15705 0.33470 0.91702
C48_9 C 0.24564 0.33221 0.25695
C49_6 C 0.24746 0.34310 0.36704
C50_6 C 0.23667 0.34356 0.44786
C51_6 C 0.22386 0.33224 0.43673
C52_9 C 0.22210 0.32113 0.33319
C53_9 C 0.23273 0.32111 0.23858
C54_6 C 0.17825 0.33287 0.75542
C55_6 C 0.16630 0.32119 0.80242
C56_6 C 0.15581 0.32228 0.88187
C67_6 C 0.13515 0.33307 0.88065
C68_6 C 0.12436 0.33401 0.94981
C69_9 C 0.27273 0.31134 0.10041
C71_9 C 0.22992 0.30952 0.11090
C72_6 C 0.23923 0.35656 0.53252
C73_6 C 0.22091 0.33431 0.86755
C74_6 C 0.17916 0.32680 0.33534
C75_6 C 0.16445 0.30753 0.76538
C76_6 C 0.17268 0.30420 0.90476
C77_6 C 0.17885 0.29692 0.80253
C78_6 C 0.18769 0.29446 0.94071
C79_6 C 0.19375 0.28683 0.84491
C80_6 C 0.20408 0.29501 0.69190
H34_9 H 0.27911 0.35008 0.79013
H39_9 H 0.27716 0.33128 0.54227
H40_9 H 0.29408 0.33219 0.33264
H43_9 H 0.30161 0.30623 0.09731
H57_9 H 0.24925 0.34843 0.94097
H59_9 H 0.26482 0.35842 0.82263
H62_9 H 0.23389 0.31309 0.96411
C17_9 C 0.27394 0.34260 0.89980
C24_9 C 0.27743 0.33285 0.92983
C34_9 C 0.29603 0.33305 0.48497
C35_9 C 0.28617 0.33241 0.60514
C36_9 C 0.28782 0.33306 0.80452
C37_9 C 0.29973 0.33494 0.88175
C41_9 C 0.31640 0.33256 0.43231
C42_9 C 0.30786 0.33428 0.55951
C43_9 C 0.30984 0.33574 0.76312
C70_9 C 0.26011 0.35313 0.95871
O5_9 O 0.31341 0.33032 0.25346
O8_9 O 0.30642 0.30965 0.97423
H86_9 H 0.300741 0.31125 0.881248
O12_3 O 0.32699 0.99388 0.16165
H85_8 H 0.302469 0.992687 0.0712573
O9_3 O 0.31511 0.98733 0.78862
O11_3 O 0.33946 0.99978 0.82831
Mg4_3 Mg 0.32986 0.98930 0.60959
O10_6 O 0.34601 0.99445 0.45528
H26_8 H 0.40360 0.97676 0.51778
H27_8 H 0.40550 0.97445 0.26706
H28_8 H 0.41937 0.98679 0.40495
H44_8 H 0.36659 0.99681 0.28213
H51_8 H 0.38926 0.98514 0.54036
C11_8 C 0.40853 0.98199 0.38247
C38_8 C 0.35812 0.99850 0.54789
C44_8 C 0.36835 0.99914 0.43350
C63_8 C 0.40484 0.99226 0.32870
C64_8 C 0.39455 0.99249 0.42965
H42_9 H 0.32844 0.96752 0.58768
H45_9 H 0.29723 0.95899 0.31342
H46_9 H 0.28097 0.94165 0.10984
C39_9 C 0.30730 0.97321 0.08423
C40_9 C 0.31771 0.98270 0.22013
C46_9 C 0.28824 0.95093 0.04490
C47_9 C 0.29759 0.96097 0.16126
O1_9 O 0.33119 0.97362 0.69926
O4_9 O 0.31727 0.97930 0.39684
H85_9 H 0.340646 0.976448 0.737924
H1_6 H 0.23525 0.86379 0.10850
H2_6 H 0.25196 0.87386 0.02452
H12_6 H 0.19230 0.83171 0.05961
H14_9 H 0.18090 0.84755 0.45621
H15_6 H 0.17598 0.83544 0.26682
H16_9 H 0.19075 0.83996 0.39731
H20_6 H 0.21257 0.90932 0.24633
H21_6 H 0.21922 0.91019 0.00903
H22_6 H 0.20595 0.89478 0.10088
H23_9 H 0.25334 0.89836 0.70602
H24_9 H 0.24902 0.88355 0.57274
H25_9 H 0.26296 0.89885 0.49746
H26_9 H 0.23983 0.92974 0.85112
H27_9 H 0.23562 0.92784 0.60040
H28_9 H 0.23409 0.91397 0.73829
H29_9 H 0.30201 0.94564 0.63575
H30_9 H 0.29434 0.92817 0.59256
H31_9 H 0.29687 0.93925 0.39638
H37_9 H 0.23186 0.87669 0.35288
H38_6 H 0.23835 0.92192 0.28939
H44_9 H 0.29689 0.96675 0.61547
H50_9 H 0.27218 0.92014 0.36651
H51_9 H 0.26255 0.94408 0.87370
H52_9 H 0.20637 0.86661 0.42275
H75_6 H 0.13175 0.83380 0.02409
H79_6 H 0.10692 0.81838 0.06535
C7_9 C 0.18456 0.84385 0.33734
C9_6 C 0.21523 0.90394 0.13944
C10_9 C 0.25285 0.89435 0.55921
C11_9 C 0.24013 0.92481 0.71581
C12_9 C 0.29424 0.93732 0.55114
C28_9 C 0.24406 0.89720 0.43257
C29_9 C 0.23330 0.88659 0.33924
C30_6 C 0.22399 0.88842 0.23598
C31_6 C 0.22559 0.90128 0.22452
C32_6 C 0.23690 0.91203 0.30474
C33_9 C 0.24597 0.91014 0.41360
C38_9 C 0.30705 0.97522 0.88123
C44_9 C 0.29746 0.96499 0.76684
C45_9 C 0.28821 0.95279 0.84669
C57_9 C 0.27779 0.94227 0.72651
C58_9 C 0.25681 0.92164 0.51735
C59_6 C 0.21246 0.87661 0.14931
C60_6 C 0.18953 0.85438 0.00209
C61_9 C 0.27005 0.92533 0.47792
C62_9 C 0.28055 0.93528 0.58441
C63_9 C 0.25409 0.92850 0.66204
C64_9 C 0.26461 0.93879 0.76299
C65_6 C 0.20407 0.86610 0.27081
C66_6 C 0.19275 0.85491 0.19931
H1_7 H 0.56859 0.53045 0.77516
H2_7 H 0.58530 0.54052 0.69118
H3_7 H 0.57229 0.54266 0.58822
H4_7 H 0.57384 0.51693 0.55967
H5_7 H 0.58021 0.52970 0.38026
H6_7 H 0.55862 0.51277 0.27353
H7_7 H 0.55734 0.52695 0.34077
H8_7 H 0.54746 0.51620 0.65897
H9_7 H 0.54906 0.50205 0.59352
H10_7 H 0.53379 0.49748 0.31505
H11_7 H 0.53308 0.51210 0.36860
H12_7 H 0.52564 0.49837 0.72627
H13_7 H 0.51965 0.48518 0.55938
H15_7 H 0.50932 0.50210 0.93348
H17_7 H 0.54766 0.55741 0.40305
H18_7 H 0.56195 0.55949 0.53607
H19_7 H 0.55453 0.54678 0.35959
H20_7 H 0.54591 0.57598 0.91299
H21_7 H 0.55256 0.57685 0.67569
H22_7 H 0.53929 0.56144 0.76754
H32_7 H 0.47014 0.46700 0.61027
H36_7 H 0.49880 0.47795 0.42097
H38_7 H 0.57169 0.58858 0.95605
H47_7 H 0.42761 0.40934 0.04890
H49_7 H 0.50014 0.52006 0.58482
H53_7 H 0.52885 0.53100 0.39567
H63_7 H 0.45990 0.43663 0.23779
H64_7 H 0.44673 0.42117 0.32945
H65_7 H 0.45338 0.42212 0.09200
H66_7 H 0.44442 0.45107 0.64593
H67_7 H 0.43717 0.43829 0.47004
H68_7 H 0.45152 0.44063 0.60379
H70_7 H 0.48954 0.49592 0.07238
H72_7 H 0.47926 0.51281 0.44720
H73_7 H 0.47329 0.49966 0.27975
H74_7 H 0.46587 0.48588 0.63739
H75_7 H 0.46509 0.50046 0.69075
H76_7 H 0.44981 0.49583 0.41228
H77_7 H 0.45151 0.48174 0.34651
H78_7 H 0.44164 0.47092 0.66432
H79_7 H 0.44026 0.48504 0.73201
H80_7 H 0.41872 0.46804 0.62474
H81_7 H 0.42505 0.48085 0.44589
H82_7 H 0.42678 0.45522 0.41605
H83_7 H 0.41371 0.45728 0.31339
H84_7 H 0.43042 0.46746 0.22968
C1_7 C 0.57474 0.53527 0.64612
C2_7 C 0.57252 0.52488 0.49359
C3_7 C 0.55883 0.51888 0.39798
C4_7 C 0.54752 0.51010 0.53643
C5_7 C 0.53406 0.50398 0.43445
C6_7 C 0.52252 0.49579 0.57405
C8_7 C 0.55234 0.55215 0.47190
C9_7 C 0.54857 0.57060 0.80610
C13_7 C 0.45602 0.45564 0.38957
C14_7 C 0.46773 0.46648 0.45867
C15_7 C 0.47282 0.47642 0.14004
C16_7 C 0.46154 0.46520 0.06862
C21_7 C 0.47606 0.47697 0.33719
C22_7 C 0.45319 0.45466 0.19012
C25_7 C 0.49913 0.48716 0.45723
C26_7 C 0.51071 0.49765 0.53674
C27_7 C 0.51098 0.50961 0.58368
C30_7 C 0.55733 0.55508 0.90264
C31_7 C 0.55893 0.56794 0.89118
C32_7 C 0.57024 0.57869 0.97140
C49_7 C 0.42897 0.41920 0.03370
C50_7 C 0.44022 0.42999 0.11452
C51_7 C 0.44171 0.44280 0.10339
C54_7 C 0.48795 0.48841 0.42208
C55_7 C 0.48822 0.50036 0.46908
C56_7 C 0.49980 0.51085 0.54853
C59_7 C 0.54580 0.54327 0.81597
C60_7 C 0.52287 0.52104 0.66875
C65_7 C 0.53741 0.53276 0.93747
C66_7 C 0.52609 0.52157 0.86597
C67_7 C 0.53125 0.53151 0.54731
C68_7 C 0.54298 0.54230 0.61647
C72_7 C 0.45066 0.42743 0.19918
C73_7 C 0.44673 0.44575 0.53421
C74_7 C 0.48097 0.48750 0.00200
C75_7 C 0.47641 0.50221 0.43204
C76_7 C 0.46485 0.49398 0.57142
C77_7 C 0.45140 0.48781 0.46919
C78_7 C 0.44010 0.47897 0.60737
C79_7 C 0.42641 0.47291 0.51157
C80_7 C 0.42426 0.46258 0.35856
H1_8 H 0.46955 0.03813 0.77516
H2_8 H 0.45948 0.04477 0.69118
H3_8 H 0.45734 0.02962 0.58822
H4_8 H 0.48307 0.05690 0.55967
H5_8 H 0.47030 0.05050 0.38026
H6_8 H 0.48723 0.04584 0.27353
H7_8 H 0.47305 0.03038 0.34077
H8_8 H 0.48380 0.03125 0.65897
H9_8 H 0.49795 0.04700 0.59352
H10_8 H 0.50252 0.03630 0.31505
H11_8 H 0.48790 0.02097 0.36860
H12_8 H 0.50163 0.02726 0.72627
H13_8 H 0.51482 0.03446 0.55938
H15_8 H 0.49790 0.00721 0.93348
H18_8 H 0.44051 0.00245 0.53607
H19_8 H 0.45322 0.00774 0.35959
H32_8 H 0.53300 0.00313 0.61027
H36_8 H 0.52205 0.02084 0.42097
H47_8 H 0.59066 0.01826 0.04890
H63_8 H 0.56337 0.02326 0.23779
H64_8 H 0.57883 0.02555 0.32945
H65_8 H 0.57788 0.03125 0.09200
H68_8 H 0.55937 0.01088 0.60379
C1_8 C 0.46473 0.03946 0.64612
C2_8 C 0.47512 0.04763 0.49359
C3_8 C 0.48112 0.03994 0.39798
C4_8 C 0.48990 0.03741 0.53643
C5_8 C 0.49602 0.03007 0.43445
C6_8 C 0.50421 0.02672 0.57405
C8_8 C 0.44785 0.00018 0.47190
C13_8 C 0.54436 0.00037 0.38957
C14_8 C 0.53352 0.00124 0.45867
C25_8 C 0.51284 0.01196 0.45723
C26_8 C 0.50235 0.01305 0.53674
C27_8 C 0.49039 0.00136 0.58368
C30_8 C 0.44492 0.00224 0.90264
C49_8 C 0.58080 0.00976 0.03370
C50_8 C 0.57001 0.01022 0.11452
C59_8 C 0.45673 0.00252 0.81597
C60_8 C 0.47896 0.00182 0.66875
C65_8 C 0.46724 0.00464 0.93747
C66_8 C 0.47843 0.00451 0.86597
C68_8 C 0.45770 0.00067 0.61647
C72_8 C 0.57257 0.02322 0.19918
C73_8 C 0.55425 0.00097 0.53421
H17_8 H 0.44259 0.99024 0.40305
H20_8 H 0.42402 0.96992 0.91299
H21_8 H 0.42315 0.97570 0.67569
H22_8 H 0.43856 0.97784 0.76754
H38_8 H 0.41142 0.98310 0.95605
H49_8 H 0.47994 0.98007 0.58482
H53_8 H 0.46900 0.99784 0.39567
H66_8 H 0.54893 0.99334 0.64593
H67_8 H 0.56171 0.99887 0.47004
H70_8 H 0.50408 0.99361 0.07238
H72_8 H 0.48719 0.96644 0.44720
H73_8 H 0.50034 0.97362 0.27975
H74_8 H 0.51412 0.97998 0.63739
H75_8 H 0.49954 0.96462 0.69075
H76_8 H 0.50417 0.95397 0.41228
H77_8 H 0.51826 0.96976 0.34651
H78_8 H 0.52908 0.97071 0.66432
H79_8 H 0.51496 0.95521 0.73201
H80_8 H 0.53196 0.95067 0.62474
H81_8 H 0.51915 0.94419 0.44589
H82_8 H 0.54478 0.97155 0.41605
H83_8 H 0.54272 0.95642 0.31339
H84_8 H 0.53254 0.96295 0.22968
C9_8 C 0.42940 0.97796 0.80610
C15_8 C 0.52358 0.99639 0.14004
C16_8 C 0.53480 0.99633 0.06862
C21_8 C 0.52303 0.99908 0.33719
C22_8 C 0.54534 0.99852 0.19012
C31_8 C 0.43206 0.99098 0.89118
C32_8 C 0.42131 0.99154 0.97140
C51_8 C 0.55720 0.99890 0.10339
C54_8 C 0.51159 0.99953 0.42208
C55_8 C 0.49964 0.98785 0.46908
C56_8 C 0.48915 0.98894 0.54853
C67_8 C 0.46849 0.99973 0.54731
C74_8 C 0.51250 0.99346 0.00200
C75_8 C 0.49779 0.97419 0.43204
C76_8 C 0.50602 0.97086 0.57142
C77_8 C 0.51219 0.96358 0.46919
C78_8 C 0.52103 0.96112 0.60737
C79_8 C 0.52709 0.95349 0.51157
C80_8 C 0.53742 0.96167 0.35856
H17_9 H 0.00976 0.45234 0.40305
H20_9 H 0.03008 0.45409 0.91299
H21_9 H 0.02430 0.44744 0.67569
H22_9 H 0.02216 0.46071 0.76754
H38_9 H 0.01690 0.42831 0.95605
H49_9 H 0.01993 0.49986 0.58482
H53_9 H 0.00216 0.47115 0.39567
H66_9 H 0.00666 0.55558 0.64593
H67_9 H 0.00113 0.56283 0.47004
H70_9 H 0.00639 0.51046 0.07238
H72_9 H 0.03356 0.52074 0.44720
H73_9 H 0.02638 0.52671 0.27975
H74_9 H 0.02002 0.53413 0.63739
H75_9 H 0.03538 0.53491 0.69075
H76_9 H 0.04603 0.55019 0.41228
H77_9 H 0.03024 0.54849 0.34651
H78_9 H 0.02929 0.55836 0.66432
H79_9 H 0.04479 0.55974 0.73201
H80_9 H 0.04933 0.58128 0.62474
H81_9 H 0.05581 0.57495 0.44589
H82_9 H 0.02845 0.57322 0.41605
H83_9 H 0.04358 0.58629 0.31339
H84_9 H 0.03705 0.56958 0.22968
C9_9 C 0.02204 0.45143 0.80610
C15_9 C 0.00361 0.52718 0.14004
C16_9 C 0.00367 0.53846 0.06862
C21_9 C 0.00092 0.52394 0.33719
C22_9 C 0.00148 0.54681 0.19012
C31_9 C 0.00902 0.44107 0.89118
C32_9 C 0.00846 0.42976 0.97140
C51_9 C 0.00110 0.55829 0.10339
C54_9 C 0.00047 0.51205 0.42208
C55_9 C 0.01215 0.51178 0.46908
C56_9 C 0.01106 0.50020 0.54853
C67_9 C 0.00027 0.46875 0.54731
C74_9 C 0.00654 0.51903 0.00200
C75_9 C 0.02581 0.52359 0.43204
C76_9 C 0.02914 0.53515 0.57142
C77_9 C 0.03642 0.54860 0.46919
C78_9 C 0.03888 0.55990 0.60737
C79_9 C 0.04651 0.57359 0.51157
C80_9 C 0.03833 0.57574 0.35856
H1_9 H 0.96187 0.43141 0.77516
H2_9 H 0.95523 0.41470 0.69118
H3_9 H 0.97038 0.42771 0.58822
H4_9 H 0.94310 0.42616 0.55967
H5_9 H 0.94950 0.41979 0.38026
H6_9 H 0.95416 0.44138 0.27353
H7_9 H 0.96962 0.44266 0.34077
H8_9 H 0.96875 0.45254 0.65897
H9_9 H 0.95300 0.45094 0.59352
H10_9 H 0.96370 0.46621 0.31505
H11_9 H 0.97903 0.46692 0.36860
H12_9 H 0.97274 0.47436 0.72627
H13_9 H 0.96554 0.48035 0.55938
H15_9 H 0.99279 0.49068 0.93348
H18_9 H 0.99755 0.43805 0.53607
H19_9 H 0.99226 0.44547 0.35959
H32_9 H 0.99687 0.52986 0.61027
H36_9 H 0.97916 0.50120 0.42097
H47_9 H 0.98174 0.57239 0.04890
H63_9 H 0.97674 0.54010 0.23779
H64_9 H 0.97445 0.55327 0.32945
H65_9 H 0.96875 0.54662 0.09200
H68_9 H 0.98912 0.54848 0.60379
C1_9 C 0.96054 0.42526 0.64612
C2_9 C 0.95237 0.42748 0.49359
C3_9 C 0.96006 0.44117 0.39798
C4_9 C 0.96259 0.45248 0.53643
C5_9 C 0.96993 0.46594 0.43445
C6_9 C 0.97328 0.47748 0.57405
C8_9 C 0.99982 0.44766 0.47190
C13_9 C 0.99963 0.54398 0.38957
C14_9 C 0.99876 0.53227 0.45867
C25_9 C 0.98804 0.50087 0.45723
C26_9 C 0.98695 0.48929 0.53674
C27_9 C 0.99864 0.48902 0.58368
C30_9 C 0.99776 0.44267 0.90264
C49_9 C 0.99024 0.57103 0.03370
C50_9 C 0.98978 0.55978 0.11452
C59_9 C 0.99748 0.45420 0.81597
C60_9 C 0.99818 0.47713 0.66875
C65_9 C 0.99536 0.46259 0.93747
C66_9 C 0.99549 0.47391 0.86597
C68_9 C 0.99933 0.45702 0.61647
C72_9 C 0.97678 0.54934 0.19918
C73_9 C 0.99903 0.55327 0.53421
loop_
_geom_bond_atom_site_label_1
_geom_bond_atom_site_label_2
_geom_bond_site_symmetry_1
_geom_bond_site_symmetry_2
O9 Mg4 1_555 1_555
O11 Mg4 1_555 1_555
H26 C11 1_555 1_555
H27 C11 1_555 1_555
H28 C11 1_555 1_555
H44 C44 1_555 1_555
H51 C64 1_555 1_555
C11 C63 1_555 1_555
C44 C38 1_555 1_555
O10 C38 1_555 1_555
Mg4 O10 1_555 1_555
C63 C64 1_555 1_555
H42 O1 1_555 1_555
H45 C47 1_555 1_555
H46 C46 1_555 1_555
C39 C40 1_555 1_555
C40 O12 1_555 1_555
C47 C39 1_555 1_555
O1 Mg4 1_555 1_555
O4 C40 1_555 1_555
Mg4 O4 1_555 1_555
C46 C47 1_555 1_555
O1 H85_2 1_555 1_555
H14 C7 1_555 1_555
H15 C7 1_555 1_555
H16 C7 1_555 1_555
H20 C9 1_555 1_555
H21 C9 1_555 1_555
H22 C9 1_555 1_555
H23 C10 1_555 1_555
H24 C10 1_555 1_555
H25 C10 1_555 1_555
H26_2 C11_2 1_555 1_555
H27_2 C11_2 1_555 1_555
H28_2 C11_2 1_555 1_555
H29 C12 1_555 1_555
H30 C12 1_555 1_555
H31 C12 1_555 1_555
H37 C29 1_555 1_555
H38 C32 1_555 1_555
H44_2 C44_2 1_555 1_555
H50 C61 1_555 1_555
H51_2 C64_2 1_555 1_555
H52 C65 1_555 1_555
C7 C66 1_555 1_555
C9 C31 1_555 1_555
C10 C28 1_555 1_555
C11_2 C63_2 1_555 1_555
C12 C62 1_555 1_555
C28 C29 1_555 1_555
C29 C30 1_555 1_555
C30 C31 1_555 1_555
C31 C32 1_555 1_555
C32 C33 1_555 1_555
C33 C28 1_555 1_555
C44_2 C38_2 1_555 1_555
C45 C44_2 1_555 1_555
C57 C45 1_555 1_555
C58 C33 1_555 1_555
C59 C30 1_555 1_555
C61 C58 1_555 1_555
C62 C57 1_555 1_555
C63_2 C58 1_555 1_555
C64_2 C57 1_555 1_555
C65 C59 1_555 1_555
C66 C60 1_555 1_555
O9 C38_2 1_555 1_555
C61 C62 1_555 1_555
C63_2 C64_2 1_555 1_555
C65 C66 1_555 1_555
H26_3 C11_3 1_555 1_555
H28_3 C11_3 1_555 1_555
H45_2 C47_2 1_555 1_555
H46_2 C46_2 1_555 1_555
H51_3 C64_3 1_555 1_555
C38_3 C39_2 1_555 1_555
C39_2 C40_2 1_555 1_555
C40_2 O3 1_555 1_555
C44_3 C38_3 1_555 1_555
C45_2 C44_3 1_555 1_555
C46_2 C45_2 1_555 1_555
C47_2 C39_2 1_555 1_555
C57_2 C45_2 1_555 1_555
C64_3 C57_2 1_555 1_555
O10_2 C38_3 1_555 1_555
O3 Mg3 1_555 1_555
O4_2 C40_2 1_555 1_555
Mg1 O4_2 1_555 1_555
Mg3 O10_2 1_555 1_555
C46_2 C47_2 1_555 1_555
H1_2 C1 1_555 1_555
H2_2 C1 1_555 1_555
H3 C1 1_555 1_555
H4 C2 1_555 1_555
H5 C2 1_555 1_555
H7 C3 1_555 1_555
H8 C4 1_555 1_555
H9 C4 1_555 1_555
H11 C5 1_555 1_555
H12_2 C6 1_555 1_555
H13 C6 1_555 1_555
H14_2 C7_2 1_555 1_555
H15_2 C7_2 1_555 1_555
H16_2 C7_2 1_555 1_555
H17 C8 1_555 1_555
H18 C8 1_555 1_555
H19 C8 1_555 1_555
H20_2 C9_2 1_555 1_555
H21_2 C9_2 1_555 1_555
H22_2 C9_2 1_555 1_555
H24_2 C10_2 1_555 1_555
H25_2 C10_2 1_555 1_555
H29_2 C12_2 1_555 1_555
H30_2 C12_2 1_555 1_555
H31_2 C12_2 1_555 1_555
H32 C14 1_555 1_555
H36 C25 1_555 1_555
H37_2 C29_2 1_555 1_555
H38_2 C32_2 1_555 1_555
H49 C56 1_555 1_555
H50_2 C61_2 1_555 1_555
H52_2 C65_2 1_555 1_555
H53 C67 1_555 1_555
H66 C73 1_555 1_555
H67 C73 1_555 1_555
H68 C73 1_555 1_555
H72 C75 1_555 1_555
H74 C76 1_555 1_555
H75_2 C76 1_555 1_555
H76 C77 1_555 1_555
H77 C77 1_555 1_555
H78 C78 1_555 1_555
H79_2 C78 1_555 1_555
H80 C79 1_555 1_555
H81 C79 1_555 1_555
H82 C80 1_555 1_555
C1 C2 1_555 1_555
C2 C3 1_555 1_555
C3 C4 1_555 1_555
C4 C5 1_555 1_555
C5 C6 1_555 1_555
C6 C26 1_555 1_555
C7_2 C66_2 1_555 1_555
C8 C68 1_555 1_555
C9_2 C31_2 1_555 1_555
C10_2 C28_2 1_555 1_555
C12_2 C62_2 1_555 1_555
C13 C14 1_555 1_555
C14 C21 1_555 1_555
C25 C26 1_555 1_555
C26 C27 1_555 1_555
C27 C56 1_555 1_555
C28_2 C29_2 1_555 1_555
C29_2 C30_2 1_555 1_555
C30_2 C31_2 1_555 1_555
C31_2 C32_2 1_555 1_555
C32_2 C33_2 1_555 1_555
C33_2 C28_2 1_555 1_555
C54 C21 1_555 1_555
C55 C54 1_555 1_555
C56 C55 1_555 1_555
C58_2 C33_2 1_555 1_555
C59_2 C30_2 1_555 1_555
C60_2 C27 1_555 1_555
C61_2 C58_2 1_555 1_555
C63_3 C58_2 1_555 1_555
C65_2 C59_2 1_555 1_555
C66_2 C60_2 1_555 1_555
C67 C60_2 1_555 1_555
C68 C59_2 1_555 1_555
C73 C13 1_555 1_555
C75 C55 1_555 1_555
C76 C75 1_555 1_555
C77 C76 1_555 1_555
C78 C77 1_555 1_555
C79 C78 1_555 1_555
C80 C79 1_555 1_555
C25 C54 1_555 1_555
C61_2 C62_2 1_555 1_555
C65_2 C66_2 1_555 1_555
C67 C68 1_555 1_555
H42_3 O1_3 1_555 1_555
O1_3 Mg3 1_555 1_555
Mg3 O4_3 1_555 1_555
O1_3 H85_3 1_555 1_555
H14_3 C7_3 1_555 1_555
H16_3 C7_3 1_555 1_555
H23_3 C10_3 1_555 1_555
H24_3 C10_3 1_555 1_555
H25_3 C10_3 1_555 1_555
H29_3 C12_3 1_555 1_555
H30_3 C12_3 1_555 1_555
H31_3 C12_3 1_555 1_555
H37_3 C29_3 1_555 1_555
H45_3 C47_3 1_555 1_555
H46_3 C46_3 1_555 1_555
H50_3 C61_3 1_555 1_555
C10_3 C28_3 1_555 1_555
C12_3 C62_3 1_555 1_555
C28_3 C29_3 1_555 1_555
C33_3 C28_3 1_555 1_555
C39_3 C40_3 1_555 1_555
C46_3 C45_3 1_555 1_555
C47_3 C39_3 1_555 1_555
C57_3 C45_3 1_555 1_555
C58_3 C33_3 1_555 1_555
C61_3 C58_3 1_555 1_555
C62_3 C57_3 1_555 1_555
C46_3 C47_3 1_555 1_555
C61_3 C62_3 1_555 1_555
H33 C16 1_555 1_555
H34 C17 1_555 1_555
H35 C20 1_555 1_555
H41 C37 1_555 1_555
H47 C49 1_555 1_555
H48 C52 1_555 1_555
H54 C69 1_555 1_555
H55 C69 1_555 1_555
H56 C69 1_555 1_555
H57 C70 1_555 1_555
H58 C70 1_555 1_555
H59 C70 1_555 1_555
H60 C71 1_555 1_555
H61 C71 1_555 1_555
H62 C71 1_555 1_555
H63 C72 1_555 1_555
H64 C72 1_555 1_555
H65 C72 1_555 1_555
H69 C74 1_555 1_555
H70 C74 1_555 1_555
H71 C74 1_555 1_555
C15 C16 1_555 1_555
C16 C22 1_555 1_555
C17 C18 1_555 1_555
C18 C23 1_555 1_555
C19 C20 1_555 1_555
C20 C23 1_555 1_555
C23 C48 1_555 1_555
C24 C17 1_555 1_555
C36 C24 1_555 1_555
C37 C36 1_555 1_555
C43 C37 1_555 1_555
C48 C49 1_555 1_555
C49 C50 1_555 1_555
C50 C51 1_555 1_555
C51 C22 1_555 1_555
C52 C51 1_555 1_555
C53 C48 1_555 1_555
C69 C19 1_555 1_555
C70 C18 1_555 1_555
C71 C53 1_555 1_555
C72 C50 1_555 1_555
C74 C15 1_555 1_555
O7 C43 1_555 1_555
Mg8 O7 1_555 1_555
C19 C24 1_555 1_555
C52 C53 1_555 1_555
H39 C35 1_555 1_555
H40 C34 1_555 1_555
H43 O8 1_555 1_555
C34 C35 1_555 1_555
C41 C42 1_555 1_555
C42 C34 1_555 1_555
O5 C41 1_555 1_555
O6 C41 1_555 1_555
O8 Mg8 1_555 1_555
Mg8 O5 1_555 1_555
O16 Mg8 1_555 1_555
O8 H86 1_555 1_555
H34_2 C17_2 1_555 1_555
H41_2 C37_2 1_555 1_555
H57_2 C70_2 1_555 1_555
H58_2 C70_2 1_555 1_555
H59_2 C70_2 1_555 1_555
C17_2 C18_2 1_555 1_555
C43_2 C37_2 1_555 1_555
C70_2 C18_2 1_555 1_555
O16 C43_2 1_555 1_555
C42_2 C43_2 1_555 1_555
O13 Mg6 1_555 1_555
H35_2 C20_2 1_555 1_555
H39_2 C35_2 1_555 1_555
H48_2 C52_2 1_555 1_555
H54_2 C69_2 1_555 1_555
H55_2 C69_2 1_555 1_555
H56_2 C69_2 1_555 1_555
H60_2 C71_2 1_555 1_555
H61_2 C71_2 1_555 1_555
H62_2 C71_2 1_555 1_555
C19_2 C20_2 1_555 1_555
C20_2 C23_2 1_555 1_555
C23_2 C48_2 1_555 1_555
C34_2 C35_2 1_555 1_555
C35_2 C36_2 1_555 1_555
C36_2 C24_2 1_555 1_555
C53_2 C48_2 1_555 1_555
C69_2 C19_2 1_555 1_555
C71_2 C53_2 1_555 1_555
O14 C41_2 1_555 1_555
Mg7 O14 1_555 1_555
C19_2 C24_2 1_555 1_555
C52_2 C53_2 1_555 1_555
H43_2 O8_2 1_555 1_555
O8_2 Mg6 1_555 1_555
Mg6 O5_2 1_555 1_555
O16_2 Mg6 1_555 1_555
O8_2 H86_2 1_555 1_555
H3_2 C1_2 1_555 1_555
H4_2 C2_2 1_555 1_555
H5_2 C2_2 1_555 1_555
H6_2 C3_2 1_555 1_555
H7_2 C3_2 1_555 1_555
H8_2 C4_2 1_555 1_555
H9_2 C4_2 1_555 1_555
H10_2 C5_2 1_555 1_555
H11_2 C5_2 1_555 1_555
H13_2 C6_2 1_555 1_555
H17_2 C8_2 1_555 1_555
H18_2 C8_2 1_555 1_555
H19_2 C8_2 1_555 1_555
H32_2 C14_2 1_555 1_555
H33_3 C16_2 1_555 1_555
H35_3 C20_3 1_555 1_555
H36_2 C25_2 1_555 1_555
H47_2 C49_2 1_555 1_555
H48_3 C52_3 1_555 1_555
H49_2 C56_2 1_555 1_555
H53_2 C67_2 1_555 1_555
H54_3 C69_3 1_555 1_555
H55_3 C69_3 1_555 1_555
H56_3 C69_3 1_555 1_555
H60_3 C71_3 1_555 1_555
H61_3 C71_3 1_555 1_555
H63_2 C72_2 1_555 1_555
H64_2 C72_2 1_555 1_555
H65_2 C72_2 1_555 1_555
H66_2 C73_2 1_555 1_555
H67_2 C73_2 1_555 1_555
H68_2 C73_2 1_555 1_555
H69_3 C74_2 1_555 1_555
H70_2 C74_2 1_555 1_555
H71_3 C74_2 1_555 1_555
H72_2 C75_2 1_555 1_555
H73_2 C75_2 1_555 1_555
H74_2 C76_2 1_555 1_555
H76_2 C77_2 1_555 1_555
H77_2 C77_2 1_555 1_555
H78_2 C78_2 1_555 1_555
H80_2 C79_2 1_555 1_555
H81_2 C79_2 1_555 1_555
H82_2 C80_2 1_555 1_555
H83_2 C80_2 1_555 1_555
H84_2 C80_2 1_555 1_555
C1_2 C2_2 1_555 1_555
C2_2 C3_2 1_555 1_555
C3_2 C4_2 1_555 1_555
C4_2 C5_2 1_555 1_555
C5_2 C6_2 1_555 1_555
C6_2 C26_2 1_555 1_555
C8_2 C68_2 1_555 1_555
C13_2 C14_2 1_555 1_555
C14_2 C21_2 1_555 1_555
C15_2 C16_2 1_555 1_555
C16_2 C22_2 1_555 1_555
C18_3 C23_3 1_555 1_555
C19_3 C20_3 1_555 1_555
C20_3 C23_3 1_555 1_555
C21_2 C15_2 1_555 1_555
C22_2 C13_2 1_555 1_555
C23_3 C48_3 1_555 1_555
C25_2 C26_2 1_555 1_555
C26_2 C27_2 1_555 1_555
C27_2 C56_2 1_555 1_555
C48_3 C49_2 1_555 1_555
C49_2 C50_2 1_555 1_555
C50_2 C51_2 1_555 1_555
C51_2 C22_2 1_555 1_555
C52_3 C51_2 1_555 1_555
C53_3 C48_3 1_555 1_555
C54_2 C21_2 1_555 1_555
C55_2 C54_2 1_555 1_555
C56_2 C55_2 1_555 1_555
C69_3 C19_3 1_555 1_555
C71_3 C53_3 1_555 1_555
C72_2 C50_2 1_555 1_555
C73_2 C13_2 1_555 1_555
C74_2 C15_2 1_555 1_555
C75_2 C55_2 1_555 1_555
C76_2 C75_2 1_555 1_555
C77_2 C76_2 1_555 1_555
C78_2 C77_2 1_555 1_555
C79_2 C78_2 1_555 1_555
C80_2 C79_2 1_555 1_555
C25_2 C54_2 1_555 1_555
C52_3 C53_3 1_555 1_555
C67_2 C68_2 1_555 1_555
H34_3 C17_3 1_555 1_555
H39_3 C35_3 1_555 1_555
H40_3 C34_3 1_555 1_555
H57_3 C70_3 1_555 1_555
H59_3 C70_3 1_555 1_555
C24_3 C17_3 1_555 1_555
C34_3 C35_3 1_555 1_555
C35_3 C36_3 1_555 1_555
C36_3 C24_3 1_555 1_555
C37_3 C36_3 1_555 1_555
C41_3 C42_3 1_555 1_555
C42_3 C34_3 1_555 1_555
C43_3 C37_3 1_555 1_555
O5_3 C41_3 1_555 1_555
O13 C41_3 1_555 1_555
O16_2 C43_3 1_555 1_555
Mg7 O5_3 1_555 1_555
C42_3 C43_3 1_555 1_555
O8_3 H86_3 1_555 1_555
O13_2 Mg6_2 1_555 1_555
H35_4 C20_4 1_555 1_555
H39_4 C35_4 1_555 1_555
H48_4 C52_4 1_555 1_555
H54_4 C69_4 1_555 1_555
H55_4 C69_4 1_555 1_555
H56_4 C69_4 1_555 1_555
H60_4 C71_4 1_555 1_555
H61_4 C71_4 1_555 1_555
H62_4 C71_4 1_555 1_555
C19_4 C20_4 1_555 1_555
C20_4 C23_4 1_555 1_555
C23_4 C48_4 1_555 1_555
C34_4 C35_4 1_555 1_555
C35_4 C36_4 1_555 1_555
C36_4 C24_4 1_555 1_555
C53_4 C48_4 1_555 1_555
C69_4 C19_4 1_555 1_555
C71_4 C53_4 1_555 1_555
O14_2 C41_4 1_555 1_555
Mg7_2 O14_2 1_555 1_555
C19_4 C24_4 1_555 1_555
C52_4 C53_4 1_555 1_555
H43_4 O8_4 1_555 1_555
O8_4 Mg6_2 1_555 1_555
Mg6_2 O5_4 1_555 1_555
O16_3 Mg6_2 1_555 1_555
O8_4 H86_4 1_555 1_555
H3_3 C1_3 1_555 1_555
H4_3 C2_3 1_555 1_555
H5_3 C2_3 1_555 1_555
H6_3 C3_3 1_555 1_555
H7_3 C3_3 1_555 1_555
H8_3 C4_3 1_555 1_555
H9_3 C4_3 1_555 1_555
H10_3 C5_3 1_555 1_555
H11_3 C5_3 1_555 1_555
H13_3 C6_3 1_555 1_555
H17_3 C8_3 1_555 1_555
H18_3 C8_3 1_555 1_555
H19_3 C8_3 1_555 1_555
H32_3 C14_3 1_555 1_555
H33_5 C16_3 1_555 1_555
H35_5 C20_5 1_555 1_555
H36_3 C25_3 1_555 1_555
H47_3 C49_3 1_555 1_555
H48_5 C52_5 1_555 1_555
H49_3 C56_3 1_555 1_555
H53_3 C67_3 1_555 1_555
H54_5 C69_5 1_555 1_555
H55_5 C69_5 1_555 1_555
H56_5 C69_5 1_555 1_555
H60_5 C71_5 1_555 1_555
H61_5 C71_5 1_555 1_555
H63_3 C72_3 1_555 1_555
H64_3 C72_3 1_555 1_555
H65_3 C72_3 1_555 1_555
H66_3 C73_3 1_555 1_555
H67_3 C73_3 1_555 1_555
H68_3 C73_3 1_555 1_555
H69_5 C74_3 1_555 1_555
H70_3 C74_3 1_555 1_555
H71_4 C74_3 1_555 1_555
H72_3 C75_3 1_555 1_555
H73_3 C75_3 1_555 1_555
H74_3 C76_3 1_555 1_555
H76_3 C77_3 1_555 1_555
H77_3 C77_3 1_555 1_555
H78_3 C78_3 1_555 1_555
H80_3 C79_3 1_555 1_555
H81_3 C79_3 1_555 1_555
H82_3 C80_3 1_555 1_555
H83_3 C80_3 1_555 1_555
H84_3 C80_3 1_555 1_555
C1_3 C2_3 1_555 1_555
C2_3 C3_3 1_555 1_555
C3_3 C4_3 1_555 1_555
C4_3 C5_3 1_555 1_555
C5_3 C6_3 1_555 1_555
C6_3 C26_3 1_555 1_555
C8_3 C68_3 1_555 1_555
C13_3 C14_3 1_555 1_555
C14_3 C21_3 1_555 1_555
C15_3 C16_3 1_555 1_555
C16_3 C22_3 1_555 1_555
C18_4 C23_5 1_555 1_555
C19_5 C20_5 1_555 1_555
C20_5 C23_5 1_555 1_555
C21_3 C15_3 1_555 1_555
C22_3 C13_3 1_555 1_555
C23_5 C48_5 1_555 1_555
C25_3 C26_3 1_555 1_555
C26_3 C27_3 1_555 1_555
C27_3 C56_3 1_555 1_555
C48_5 C49_3 1_555 1_555
C49_3 C50_3 1_555 1_555
C50_3 C51_3 1_555 1_555
C51_3 C22_3 1_555 1_555
C52_5 C51_3 1_555 1_555
C53_5 C48_5 1_555 1_555
C54_3 C21_3 1_555 1_555
C55_3 C54_3 1_555 1_555
C56_3 C55_3 1_555 1_555
C69_5 C19_5 1_555 1_555
C71_5 C53_5 1_555 1_555
C72_3 C50_3 1_555 1_555
C73_3 C13_3 1_555 1_555
C74_3 C15_3 1_555 1_555
C75_3 C55_3 1_555 1_555
C76_3 C75_3 1_555 1_555
C77_3 C76_3 1_555 1_555
C78_3 C77_3 1_555 1_555
C79_3 C78_3 1_555 1_555
C80_3 C79_3 1_555 1_555
C25_3 C54_3 1_555 1_555
C52_5 C53_5 1_555 1_555
C67_3 C68_3 1_555 1_555
H34_4 C17_4 1_555 1_555
H39_5 C35_5 1_555 1_555
H40_5 C34_5 1_555 1_555
H57_4 C70_4 1_555 1_555
H59_4 C70_4 1_555 1_555
C24_5 C17_4 1_555 1_555
C34_5 C35_5 1_555 1_555
C35_5 C36_5 1_555 1_555
C36_5 C24_5 1_555 1_555
C37_4 C36_5 1_555 1_555
C41_5 C42_4 1_555 1_555
C42_4 C34_5 1_555 1_555
C43_4 C37_4 1_555 1_555
O5_5 C41_5 1_555 1_555
O13_2 C41_5 1_555 1_555
O16_3 C43_4 1_555 1_555
Mg7_2 O5_5 1_555 1_555
C42_4 C43_4 1_555 1_555
O8_5 H86_5 1_555 1_555
O1_4 H85_4 1_555 1_555
H26_4 C11_4 1_555 1_555
H28_4 C11_4 1_555 1_555
H45_4 C47_4 1_555 1_555
H46_4 C46_4 1_555 1_555
H51_4 C64_4 1_555 1_555
C38_4 C39_4 1_555 1_555
C39_4 C40_4 1_555 1_555
C40_4 O3_2 1_555 1_555
C44_4 C38_4 1_555 1_555
C45_4 C44_4 1_555 1_555
C46_4 C45_4 1_555 1_555
C47_4 C39_4 1_555 1_555
C57_4 C45_4 1_555 1_555
C64_4 C57_4 1_555 1_555
O10_3 C38_4 1_555 1_555
O3_2 Mg3_2 1_555 1_555
O4_4 C40_4 1_555 1_555
Mg1_2 O4_4 1_555 1_555
O9_2 Mg1_2 1_555 1_555
O11_2 Mg1_2 1_555 1_555
Mg3_2 O10_3 1_555 1_555
Mg4_2 O3_2 1_555 1_555
C46_4 C47_4 1_555 1_555
O9_2 Mg4_2 1_555 1_555
O11_2 Mg4_2 1_555 1_555
H1_3 C1_4 1_555 1_555
H2_3 C1_4 1_555 1_555
H3_4 C1_4 1_555 1_555
H4_4 C2_4 1_555 1_555
H5_4 C2_4 1_555 1_555
H7_4 C3_4 1_555 1_555
H8_4 C4_4 1_555 1_555
H9_4 C4_4 1_555 1_555
H11_4 C5_4 1_555 1_555
H12_3 C6_4 1_555 1_555
H13_4 C6_4 1_555 1_555
H14_4 C7_4 1_555 1_555
H15_3 C7_4 1_555 1_555
H16_4 C7_4 1_555 1_555
H17_4 C8_4 1_555 1_555
H18_4 C8_4 1_555 1_555
H19_4 C8_4 1_555 1_555
H20_3 C9_3 1_555 1_555
H21_3 C9_3 1_555 1_555
H22_3 C9_3 1_555 1_555
H24_4 C10_4 1_555 1_555
H25_4 C10_4 1_555 1_555
H29_4 C12_4 1_555 1_555
H30_4 C12_4 1_555 1_555
H31_4 C12_4 1_555 1_555
H32_4 C14_4 1_555 1_555
H36_4 C25_4 1_555 1_555
H37_4 C29_4 1_555 1_555
H38_3 C32_3 1_555 1_555
H49_4 C56_4 1_555 1_555
H50_4 C61_4 1_555 1_555
H52_4 C65_3 1_555 1_555
H53_4 C67_4 1_555 1_555
H66_4 C73_4 1_555 1_555
H67_4 C73_4 1_555 1_555
H68_4 C73_4 1_555 1_555
H72_4 C75_4 1_555 1_555
H74_4 C76_4 1_555 1_555
H75_3 C76_4 1_555 1_555
H76_4 C77_4 1_555 1_555
H77_4 C77_4 1_555 1_555
H78_4 C78_4 1_555 1_555
H79_3 C78_4 1_555 1_555
H80_4 C79_4 1_555 1_555
H81_4 C79_4 1_555 1_555
H82_4 C80_4 1_555 1_555
C1_4 C2_4 1_555 1_555
C2_4 C3_4 1_555 1_555
C3_4 C4_4 1_555 1_555
C4_4 C5_4 1_555 1_555
C5_4 C6_4 1_555 1_555
C6_4 C26_4 1_555 1_555
C7_4 C66_3 1_555 1_555
C8_4 C68_4 1_555 1_555
C9_3 C31_3 1_555 1_555
C10_4 C28_4 1_555 1_555
C12_4 C62_4 1_555 1_555
C13_4 C14_4 1_555 1_555
C14_4 C21_4 1_555 1_555
C25_4 C26_4 1_555 1_555
C26_4 C27_4 1_555 1_555
C27_4 C56_4 1_555 1_555
C28_4 C29_4 1_555 1_555
C29_4 C30_3 1_555 1_555
C30_3 C31_3 1_555 1_555
C31_3 C32_3 1_555 1_555
C32_3 C33_4 1_555 1_555
C33_4 C28_4 1_555 1_555
C54_4 C21_4 1_555 1_555
C55_4 C54_4 1_555 1_555
C56_4 C55_4 1_555 1_555
C58_4 C33_4 1_555 1_555
C59_3 C30_3 1_555 1_555
C60_3 C27_4 1_555 1_555
C61_4 C58_4 1_555 1_555
C63_4 C58_4 1_555 1_555
C65_3 C59_3 1_555 1_555
C66_3 C60_3 1_555 1_555
C67_4 C60_3 1_555 1_555
C68_4 C59_3 1_555 1_555
C73_4 C13_4 1_555 1_555
C75_4 C55_4 1_555 1_555
C76_4 C75_4 1_555 1_555
C77_4 C76_4 1_555 1_555
C78_4 C77_4 1_555 1_555
C79_4 C78_4 1_555 1_555
C80_4 C79_4 1_555 1_555
C25_4 C54_4 1_555 1_555
C61_4 C62_4 1_555 1_555
C65_3 C66_3 1_555 1_555
C67_4 C68_4 1_555 1_555
H42_5 O1_5 1_555 1_555
O1_5 Mg3_2 1_555 1_555
Mg3_2 O4_5 1_555 1_555
O10_4 Mg3_2 1_555 1_555
O12_2 Mg3_2 1_555 1_555
O1_5 H85_5 1_555 1_555
H14_5 C7_5 1_555 1_555
H16_5 C7_5 1_555 1_555
H23_5 C10_5 1_555 1_555
H24_5 C10_5 1_555 1_555
H25_5 C10_5 1_555 1_555
H26_5 C11_5 1_555 1_555
H27_5 C11_5 1_555 1_555
H28_5 C11_5 1_555 1_555
H29_5 C12_5 1_555 1_555
H30_5 C12_5 1_555 1_555
H31_5 C12_5 1_555 1_555
H37_5 C29_5 1_555 1_555
H44_5 C44_5 1_555 1_555
H45_5 C47_5 1_555 1_555
H46_5 C46_5 1_555 1_555
H50_5 C61_5 1_555 1_555
H51_5 C64_5 1_555 1_555
C10_5 C28_5 1_555 1_555
C11_5 C63_5 1_555 1_555
C12_5 C62_5 1_555 1_555
C28_5 C29_5 1_555 1_555
C33_5 C28_5 1_555 1_555
C38_5 C39_5 1_555 1_555
C39_5 C40_5 1_555 1_555
C40_5 O11_2 1_555 1_555
C44_5 C38_5 1_555 1_555
C45_5 C44_5 1_555 1_555
C46_5 C45_5 1_555 1_555
C47_5 C39_5 1_555 1_555
C57_5 C45_5 1_555 1_555
C58_5 C33_5 1_555 1_555
C61_5 C58_5 1_555 1_555
C62_5 C57_5 1_555 1_555
C63_5 C58_5 1_555 1_555
C64_5 C57_5 1_555 1_555
O10_4 C38_5 1_555 1_555
Mg4_2 O10_4 1_555 1_555
C46_5 C47_5 1_555 1_555
C61_5 C62_5 1_555 1_555
C63_5 C64_5 1_555 1_555
H42_6 O1_6 1_555 1_555
H45_6 C47_6 1_555 1_555
H46_6 C46_6 1_555 1_555
C39_6 C40_6 1_555 1_555
C40_6 O12_2 1_555 1_555
C47_6 C39_6 1_555 1_555
O1_6 Mg4_2 1_555 1_555
O4_6 C40_6 1_555 1_555
Mg4_2 O4_6 1_555 1_555
C46_6 C47_6 1_555 1_555
O1_6 H85_6 1_555 1_555
H14_6 C7_6 1_555 1_555
H15_4 C7_6 1_555 1_555
H16_6 C7_6 1_555 1_555
H20_4 C9_4 1_555 1_555
H21_4 C9_4 1_555 1_555
H22_4 C9_4 1_555 1_555
H23_6 C10_6 1_555 1_555
H24_6 C10_6 1_555 1_555
H25_6 C10_6 1_555 1_555
H26_6 C11_6 1_555 1_555
H27_6 C11_6 1_555 1_555
H28_6 C11_6 1_555 1_555
H29_6 C12_6 1_555 1_555
H30_6 C12_6 1_555 1_555
H31_6 C12_6 1_555 1_555
H37_6 C29_6 1_555 1_555
H38_4 C32_4 1_555 1_555
H44_6 C44_6 1_555 1_555
H50_6 C61_6 1_555 1_555
H51_6 C64_6 1_555 1_555
H52_6 C65_4 1_555 1_555
C7_6 C66_4 1_555 1_555
C9_4 C31_4 1_555 1_555
C10_6 C28_6 1_555 1_555
C11_6 C63_6 1_555 1_555
C12_6 C62_6 1_555 1_555
C28_6 C29_6 1_555 1_555
C29_6 C30_4 1_555 1_555
C30_4 C31_4 1_555 1_555
C31_4 C32_4 1_555 1_555
C32_4 C33_6 1_555 1_555
C33_6 C28_6 1_555 1_555
C44_6 C38_6 1_555 1_555
C45_6 C44_6 1_555 1_555
C57_6 C45_6 1_555 1_555
C58_6 C33_6 1_555 1_555
C59_4 C30_4 1_555 1_555
C61_6 C58_6 1_555 1_555
C62_6 C57_6 1_555 1_555
C63_6 C58_6 1_555 1_555
C64_6 C57_6 1_555 1_555
C65_4 C59_4 1_555 1_555
C66_4 C60_4 1_555 1_555
O9_2 C38_6 1_555 1_555
C61_6 C62_6 1_555 1_555
C63_6 C64_6 1_555 1_555
C65_4 C66_4 1_555 1_555
H33_6 C16_4 1_555 1_555
H34_5 C17_5 1_555 1_555
H35_6 C20_6 1_555 1_555
H41_5 C37_5 1_555 1_555
H47_4 C49_4 1_555 1_555
H48_6 C52_6 1_555 1_555
H54_6 C69_6 1_555 1_555
H55_6 C69_6 1_555 1_555
H56_6 C69_6 1_555 1_555
H57_5 C70_5 1_555 1_555
H58_5 C70_5 1_555 1_555
H59_5 C70_5 1_555 1_555
H60_6 C71_6 1_555 1_555
H61_6 C71_6 1_555 1_555
H62_6 C71_6 1_555 1_555
H63_4 C72_4 1_555 1_555
H64_4 C72_4 1_555 1_555
H65_4 C72_4 1_555 1_555
H69_6 C74_4 1_555 1_555
H70_4 C74_4 1_555 1_555
H71_5 C74_4 1_555 1_555
C15_4 C16_4 1_555 1_555
C16_4 C22_4 1_555 1_555
C17_5 C18_5 1_555 1_555
C18_5 C23_6 1_555 1_555
C19_6 C20_6 1_555 1_555
C20_6 C23_6 1_555 1_555
C23_6 C48_6 1_555 1_555
C24_6 C17_5 1_555 1_555
C36_6 C24_6 1_555 1_555
C37_5 C36_6 1_555 1_555
C43_5 C37_5 1_555 1_555
C48_6 C49_4 1_555 1_555
C49_4 C50_4 1_555 1_555
C50_4 C51_4 1_555 1_555
C51_4 C22_4 1_555 1_555
C52_6 C51_4 1_555 1_555
C53_6 C48_6 1_555 1_555
C69_6 C19_6 1_555 1_555
C70_5 C18_5 1_555 1_555
C71_6 C53_6 1_555 1_555
C72_4 C50_4 1_555 1_555
C74_4 C15_4 1_555 1_555
O7_2 C43_5 1_555 1_555
Mg8_2 O7_2 1_555 1_555
C19_6 C24_6 1_555 1_555
C52_6 C53_6 1_555 1_555
H39_6 C35_6 1_555 1_555
H40_6 C34_6 1_555 1_555
H43_6 O8_6 1_555 1_555
C34_6 C35_6 1_555 1_555
C41_6 C42_5 1_555 1_555
C42_5 C34_6 1_555 1_555
O5_6 C41_6 1_555 1_555
O6_2 C41_6 1_555 1_555
O8_6 Mg8_2 1_555 1_555
Mg8_2 O5_6 1_555 1_555
O16_4 Mg8_2 1_555 1_555
O8_6 H86_6 1_555 1_555
H34_6 C17_6 1_555 1_555
H41_6 C37_6 1_555 1_555
H57_6 C70_6 1_555 1_555
H58_6 C70_6 1_555 1_555
H59_6 C70_6 1_555 1_555
C17_6 C18_6 1_555 1_555
C43_6 C37_6 1_555 1_555
C70_6 C18_6 1_555 1_555
O16_4 C43_6 1_555 1_555
C42_6 C43_6 1_555 1_555
H26_7 C11_7 1_555 1_555
H28_7 C11_7 1_555 1_555
H45_7 C47_7 1_555 1_555
H46_7 C46_7 1_555 1_555
H51_7 C64_7 1_555 1_555
C38_7 C39_7 1_555 1_555
C39_7 C40_7 1_555 1_555
C40_7 O3_3 1_555 1_555
C44_7 C38_7 1_555 1_555
C45_7 C44_7 1_555 1_555
C46_7 C45_7 1_555 1_555
C47_7 C39_7 1_555 1_555
C57_7 C45_7 1_555 1_555
C64_7 C57_7 1_555 1_555
O10_5 C38_7 1_555 1_555
O3_3 Mg3_3 1_555 1_555
O4_7 C40_7 1_555 1_555
Mg1_3 O4_7 1_555 1_555
Mg3_3 O10_5 1_555 1_555
C46_7 C47_7 1_555 1_555
H1_5 C1_5 1_555 1_555
H2_5 C1_5 1_555 1_555
H3_5 C1_5 1_555 1_555
H4_5 C2_5 1_555 1_555
H5_5 C2_5 1_555 1_555
H7_5 C3_5 1_555 1_555
H8_5 C4_5 1_555 1_555
H9_5 C4_5 1_555 1_555
H11_5 C5_5 1_555 1_555
H12_5 C6_5 1_555 1_555
H13_5 C6_5 1_555 1_555
H14_7 C7_7 1_555 1_555
H15_5 C7_7 1_555 1_555
H16_7 C7_7 1_555 1_555
H17_5 C8_5 1_555 1_555
H18_5 C8_5 1_555 1_555
H19_5 C8_5 1_555 1_555
H20_5 C9_5 1_555 1_555
H21_5 C9_5 1_555 1_555
H22_5 C9_5 1_555 1_555
H24_7 C10_7 1_555 1_555
H25_7 C10_7 1_555 1_555
H29_7 C12_7 1_555 1_555
H30_7 C12_7 1_555 1_555
H31_7 C12_7 1_555 1_555
H32_5 C14_5 1_555 1_555
H36_5 C25_5 1_555 1_555
H37_7 C29_7 1_555 1_555
H38_5 C32_5 1_555 1_555
H49_5 C56_5 1_555 1_555
H50_7 C61_7 1_555 1_555
H52_7 C65_5 1_555 1_555
H53_5 C67_5 1_555 1_555
H66_5 C73_5 1_555 1_555
H67_5 C73_5 1_555 1_555
H68_5 C73_5 1_555 1_555
H72_5 C75_5 1_555 1_555
H74_5 C76_5 1_555 1_555
H75_5 C76_5 1_555 1_555
H76_5 C77_5 1_555 1_555
H77_5 C77_5 1_555 1_555
H78_5 C78_5 1_555 1_555
H79_5 C78_5 1_555 1_555
H80_5 C79_5 1_555 1_555
H81_5 C79_5 1_555 1_555
H82_5 C80_5 1_555 1_555
C1_5 C2_5 1_555 1_555
C2_5 C3_5 1_555 1_555
C3_5 C4_5 1_555 1_555
C4_5 C5_5 1_555 1_555
C5_5 C6_5 1_555 1_555
C6_5 C26_5 1_555 1_555
C7_7 C66_5 1_555 1_555
C8_5 C68_5 1_555 1_555
C9_5 C31_5 1_555 1_555
C10_7 C28_7 1_555 1_555
C12_7 C62_7 1_555 1_555
C13_5 C14_5 1_555 1_555
C14_5 C21_5 1_555 1_555
C25_5 C26_5 1_555 1_555
C26_5 C27_5 1_555 1_555
C27_5 C56_5 1_555 1_555
C28_7 C29_7 1_555 1_555
C29_7 C30_5 1_555 1_555
C30_5 C31_5 1_555 1_555
C31_5 C32_5 1_555 1_555
C32_5 C33_7 1_555 1_555
C33_7 C28_7 1_555 1_555
C54_5 C21_5 1_555 1_555
C55_5 C54_5 1_555 1_555
C56_5 C55_5 1_555 1_555
C58_7 C33_7 1_555 1_555
C59_5 C30_5 1_555 1_555
C60_5 C27_5 1_555 1_555
C61_7 C58_7 1_555 1_555
C63_7 C58_7 1_555 1_555
C65_5 C59_5 1_555 1_555
C66_5 C60_5 1_555 1_555
C67_5 C60_5 1_555 1_555
C68_5 C59_5 1_555 1_555
C73_5 C13_5 1_555 1_555
C75_5 C55_5 1_555 1_555
C76_5 C75_5 1_555 1_555
C77_5 C76_5 1_555 1_555
C78_5 C77_5 1_555 1_555
C79_5 C78_5 1_555 1_555
C80_5 C79_5 1_555 1_555
C25_5 C54_5 1_555 1_555
C61_7 C62_7 1_555 1_555
C65_5 C66_5 1_555 1_555
C67_5 C68_5 1_555 1_555
H42_8 O1_8 1_555 1_555
O1_8 Mg3_3 1_555 1_555
Mg3_3 O4_8 1_555 1_555
O1_8 H85_7 1_555 1_555
H14_8 C7_8 1_555 1_555
H16_8 C7_8 1_555 1_555
H23_8 C10_8 1_555 1_555
H24_8 C10_8 1_555 1_555
H25_8 C10_8 1_555 1_555
H29_8 C12_8 1_555 1_555
H30_8 C12_8 1_555 1_555
H31_8 C12_8 1_555 1_555
H37_8 C29_8 1_555 1_555
H45_8 C47_8 1_555 1_555
H46_8 C46_8 1_555 1_555
H50_8 C61_8 1_555 1_555
C10_8 C28_8 1_555 1_555
C12_8 C62_8 1_555 1_555
C28_8 C29_8 1_555 1_555
C33_8 C28_8 1_555 1_555
C39_8 C40_8 1_555 1_555
C46_8 C45_8 1_555 1_555
C47_8 C39_8 1_555 1_555
C57_8 C45_8 1_555 1_555
C58_8 C33_8 1_555 1_555
C61_8 C58_8 1_555 1_555
C62_8 C57_8 1_555 1_555
C46_8 C47_8 1_555 1_555
C61_8 C62_8 1_555 1_555
H33_7 C16_5 1_555 1_555
H34_7 C17_7 1_555 1_555
H35_7 C20_7 1_555 1_555
H41_7 C37_7 1_555 1_555
H47_5 C49_5 1_555 1_555
H48_7 C52_7 1_555 1_555
H54_7 C69_7 1_555 1_555
H55_7 C69_7 1_555 1_555
H56_7 C69_7 1_555 1_555
H57_7 C70_7 1_555 1_555
H58_7 C70_7 1_555 1_555
H59_7 C70_7 1_555 1_555
H60_7 C71_7 1_555 1_555
H61_7 C71_7 1_555 1_555
H62_7 C71_7 1_555 1_555
H63_5 C72_5 1_555 1_555
H64_5 C72_5 1_555 1_555
H65_5 C72_5 1_555 1_555
H69_7 C74_5 1_555 1_555
H70_5 C74_5 1_555 1_555
H71_7 C74_5 1_555 1_555
C15_5 C16_5 1_555 1_555
C16_5 C22_5 1_555 1_555
C17_7 C18_7 1_555 1_555
C18_7 C23_7 1_555 1_555
C19_7 C20_7 1_555 1_555
C20_7 C23_7 1_555 1_555
C23_7 C48_7 1_555 1_555
C24_7 C17_7 1_555 1_555
C36_7 C24_7 1_555 1_555
C37_7 C36_7 1_555 1_555
C43_7 C37_7 1_555 1_555
C48_7 C49_5 1_555 1_555
C49_5 C50_5 1_555 1_555
C50_5 C51_5 1_555 1_555
C51_5 C22_5 1_555 1_555
C52_7 C51_5 1_555 1_555
C53_7 C48_7 1_555 1_555
C69_7 C19_7 1_555 1_555
C70_7 C18_7 1_555 1_555
C71_7 C53_7 1_555 1_555
C72_5 C50_5 1_555 1_555
C74_5 C15_5 1_555 1_555
O7_3 C43_7 1_555 1_555
Mg8_3 O7_3 1_555 1_555
C19_7 C24_7 1_555 1_555
C52_7 C53_7 1_555 1_555
O7_3 Mg7_3 1_555 1_555
H39_7 C35_7 1_555 1_555
H40_7 C34_7 1_555 1_555
H43_7 O8_7 1_555 1_555
C34_7 C35_7 1_555 1_555
C41_7 C42_7 1_555 1_555
C42_7 C34_7 1_555 1_555
O5_7 C41_7 1_555 1_555
O6_3 C41_7 1_555 1_555
O8_7 Mg8_3 1_555 1_555
Mg8_3 O5_7 1_555 1_555
O13_3 Mg8_3 1_555 1_555
O14_3 Mg8_3 1_555 1_555
O16_5 Mg8_3 1_555 1_555
Mg6_3 O6_3 1_555 1_555
O13_3 Mg6_3 1_555 1_555
O16_5 Mg6_3 1_555 1_555
O8_7 H86_7 1_555 1_555
H34_8 C17_8 1_555 1_555
H35_8 C20_8 1_555 1_555
H39_8 C35_8 1_555 1_555
H41_8 C37_8 1_555 1_555
H48_8 C52_8 1_555 1_555
H54_8 C69_8 1_555 1_555
H55_8 C69_8 1_555 1_555
H56_8 C69_8 1_555 1_555
H57_8 C70_8 1_555 1_555
H58_8 C70_8 1_555 1_555
H59_8 C70_8 1_555 1_555
H60_8 C71_8 1_555 1_555
H61_8 C71_8 1_555 1_555
H62_8 C71_8 1_555 1_555
C17_8 C18_8 1_555 1_555
C18_8 C23_8 1_555 1_555
C19_8 C20_8 1_555 1_555
C20_8 C23_8 1_555 1_555
C23_8 C48_8 1_555 1_555
C24_8 C17_8 1_555 1_555
C34_8 C35_8 1_555 1_555
C35_8 C36_8 1_555 1_555
C36_8 C24_8 1_555 1_555
C37_8 C36_8 1_555 1_555
C41_8 C42_8 1_555 1_555
C42_8 C34_8 1_555 1_555
C43_8 C37_8 1_555 1_555
C53_8 C48_8 1_555 1_555
C69_8 C19_8 1_555 1_555
C70_8 C18_8 1_555 1_555
C71_8 C53_8 1_555 1_555
O14_3 C41_8 1_555 1_555
O16_5 C43_8 1_555 1_555
Mg7_3 O14_3 1_555 1_555
C19_8 C24_8 1_555 1_555
C42_8 C43_8 1_555 1_555
C52_8 C53_8 1_555 1_555
H43_8 O8_8 1_555 1_555
O8_8 Mg6_3 1_555 1_555
Mg6_3 O5_8 1_555 1_555
O16_6 Mg6_3 1_555 1_555
O8_8 H86_8 1_555 1_555
H3_6 C1_6 1_555 1_555
H4_6 C2_6 1_555 1_555
H5_6 C2_6 1_555 1_555
H6_6 C3_6 1_555 1_555
H7_6 C3_6 1_555 1_555
H8_6 C4_6 1_555 1_555
H9_6 C4_6 1_555 1_555
H10_6 C5_6 1_555 1_555
H11_6 C5_6 1_555 1_555
H13_6 C6_6 1_555 1_555
H17_6 C8_6 1_555 1_555
H18_6 C8_6 1_555 1_555
H19_6 C8_6 1_555 1_555
H32_6 C14_6 1_555 1_555
H33_9 C16_6 1_555 1_555
H35_9 C20_9 1_555 1_555
H36_6 C25_6 1_555 1_555
H47_6 C49_6 1_555 1_555
H48_9 C52_9 1_555 1_555
H49_6 C56_6 1_555 1_555
H53_6 C67_6 1_555 1_555
H54_9 C69_9 1_555 1_555
H55_9 C69_9 1_555 1_555
H56_9 C69_9 1_555 1_555
H60_9 C71_9 1_555 1_555
H61_9 C71_9 1_555 1_555
H63_6 C72_6 1_555 1_555
H64_6 C72_6 1_555 1_555
H65_6 C72_6 1_555 1_555
H66_6 C73_6 1_555 1_555
H67_6 C73_6 1_555 1_555
H68_6 C73_6 1_555 1_555
H69_9 C74_6 1_555 1_555
H70_6 C74_6 1_555 1_555
H71_9 C74_6 1_555 1_555
H72_6 C75_6 1_555 1_555
H73_6 C75_6 1_555 1_555
H74_6 C76_6 1_555 1_555
H76_6 C77_6 1_555 1_555
H77_6 C77_6 1_555 1_555
H78_6 C78_6 1_555 1_555
H80_6 C79_6 1_555 1_555
H81_6 C79_6 1_555 1_555
H82_6 C80_6 1_555 1_555
H83_6 C80_6 1_555 1_555
H84_6 C80_6 1_555 1_555
C1_6 C2_6 1_555 1_555
C2_6 C3_6 1_555 1_555
C3_6 C4_6 1_555 1_555
C4_6 C5_6 1_555 1_555
C5_6 C6_6 1_555 1_555
C6_6 C26_6 1_555 1_555
C8_6 C68_6 1_555 1_555
C13_6 C14_6 1_555 1_555
C14_6 C21_6 1_555 1_555
C15_6 C16_6 1_555 1_555
C16_6 C22_6 1_555 1_555
C18_9 C23_9 1_555 1_555
C19_9 C20_9 1_555 1_555
C20_9 C23_9 1_555 1_555
C21_6 C15_6 1_555 1_555
C22_6 C13_6 1_555 1_555
C23_9 C48_9 1_555 1_555
C25_6 C26_6 1_555 1_555
C26_6 C27_6 1_555 1_555
C27_6 C56_6 1_555 1_555
C48_9 C49_6 1_555 1_555
C49_6 C50_6 1_555 1_555
C50_6 C51_6 1_555 1_555
C51_6 C22_6 1_555 1_555
C52_9 C51_6 1_555 1_555
C53_9 C48_9 1_555 1_555
C54_6 C21_6 1_555 1_555
C55_6 C54_6 1_555 1_555
C56_6 C55_6 1_555 1_555
C69_9 C19_9 1_555 1_555
C71_9 C53_9 1_555 1_555
C72_6 C50_6 1_555 1_555
C73_6 C13_6 1_555 1_555
C74_6 C15_6 1_555 1_555
C75_6 C55_6 1_555 1_555
C76_6 C75_6 1_555 1_555
C77_6 C76_6 1_555 1_555
C78_6 C77_6 1_555 1_555
C79_6 C78_6 1_555 1_555
C80_6 C79_6 1_555 1_555
C25_6 C54_6 1_555 1_555
C52_9 C53_9 1_555 1_555
C67_6 C68_6 1_555 1_555
H34_9 C17_9 1_555 1_555
H39_9 C35_9 1_555 1_555
H40_9 C34_9 1_555 1_555
H57_9 C70_9 1_555 1_555
H59_9 C70_9 1_555 1_555
C24_9 C17_9 1_555 1_555
C34_9 C35_9 1_555 1_555
C35_9 C36_9 1_555 1_555
C36_9 C24_9 1_555 1_555
C37_9 C36_9 1_555 1_555
C41_9 C42_9 1_555 1_555
C42_9 C34_9 1_555 1_555
C43_9 C37_9 1_555 1_555
O5_9 C41_9 1_555 1_555
O13_3 C41_9 1_555 1_555
O16_6 C43_9 1_555 1_555
Mg7_3 O5_9 1_555 1_555
C42_9 C43_9 1_555 1_555
O8_9 H86_9 1_555 1_555
O9_3 Mg4_3 1_555 1_555
O11_3 Mg4_3 1_555 1_555
H26_8 C11_8 1_555 1_555
H27_8 C11_8 1_555 1_555
H28_8 C11_8 1_555 1_555
H44_8 C44_8 1_555 1_555
H51_8 C64_8 1_555 1_555
C11_8 C63_8 1_555 1_555
C44_8 C38_8 1_555 1_555
O10_6 C38_8 1_555 1_555
Mg4_3 O10_6 1_555 1_555
C63_8 C64_8 1_555 1_555
H42_9 O1_9 1_555 1_555
H45_9 C47_9 1_555 1_555
H46_9 C46_9 1_555 1_555
C39_9 C40_9 1_555 1_555
C40_9 O12_3 1_555 1_555
C47_9 C39_9 1_555 1_555
O1_9 Mg4_3 1_555 1_555
O4_9 C40_9 1_555 1_555
Mg4_3 O4_9 1_555 1_555
C46_9 C47_9 1_555 1_555
O1_9 H85_9 1_555 1_555
H14_9 C7_9 1_555 1_555
H15_6 C7_9 1_555 1_555
H16_9 C7_9 1_555 1_555
H20_6 C9_6 1_555 1_555
H21_6 C9_6 1_555 1_555
H22_6 C9_6 1_555 1_555
H23_9 C10_9 1_555 1_555
H24_9 C10_9 1_555 1_555
H25_9 C10_9 1_555 1_555
H26_9 C11_9 1_555 1_555
H27_9 C11_9 1_555 1_555
H28_9 C11_9 1_555 1_555
H29_9 C12_9 1_555 1_555
H30_9 C12_9 1_555 1_555
H31_9 C12_9 1_555 1_555
H37_9 C29_9 1_555 1_555
H38_6 C32_6 1_555 1_555
H44_9 C44_9 1_555 1_555
H50_9 C61_9 1_555 1_555
H51_9 C64_9 1_555 1_555
H52_9 C65_6 1_555 1_555
C7_9 C66_6 1_555 1_555
C9_6 C31_6 1_555 1_555
C10_9 C28_9 1_555 1_555
C11_9 C63_9 1_555 1_555
C12_9 C62_9 1_555 1_555
C28_9 C29_9 1_555 1_555
C29_9 C30_6 1_555 1_555
C30_6 C31_6 1_555 1_555
C31_6 C32_6 1_555 1_555
C32_6 C33_9 1_555 1_555
C33_9 C28_9 1_555 1_555
C44_9 C38_9 1_555 1_555
C45_9 C44_9 1_555 1_555
C57_9 C45_9 1_555 1_555
C58_9 C33_9 1_555 1_555
C59_6 C30_6 1_555 1_555
C61_9 C58_9 1_555 1_555
C62_9 C57_9 1_555 1_555
C63_9 C58_9 1_555 1_555
C64_9 C57_9 1_555 1_555
C65_6 C59_6 1_555 1_555
C66_6 C60_6 1_555 1_555
O9_3 C38_9 1_555 1_555
C61_9 C62_9 1_555 1_555
C63_9 C64_9 1_555 1_555
C65_6 C66_6 1_555 1_555
H1_7 C1_7 1_555 1_555
H2_7 C1_7 1_555 1_555
H3_7 C1_7 1_555 1_555
H4_7 C2_7 1_555 1_555
H5_7 C2_7 1_555 1_555
H6_7 C3_7 1_555 1_555
H7_7 C3_7 1_555 1_555
H8_7 C4_7 1_555 1_555
H9_7 C4_7 1_555 1_555
H10_7 C5_7 1_555 1_555
H11_7 C5_7 1_555 1_555
H12_7 C6_7 1_555 1_555
H13_7 C6_7 1_555 1_555
H17_7 C8_7 1_555 1_555
H18_7 C8_7 1_555 1_555
H19_7 C8_7 1_555 1_555
H20_7 C9_7 1_555 1_555
H21_7 C9_7 1_555 1_555
H22_7 C9_7 1_555 1_555
H32_7 C14_7 1_555 1_555
H36_7 C25_7 1_555 1_555
H38_7 C32_7 1_555 1_555
H47_7 C49_7 1_555 1_555
H49_7 C56_7 1_555 1_555
H53_7 C67_7 1_555 1_555
H63_7 C72_7 1_555 1_555
H64_7 C72_7 1_555 1_555
H65_7 C72_7 1_555 1_555
H66_7 C73_7 1_555 1_555
H67_7 C73_7 1_555 1_555
H68_7 C73_7 1_555 1_555
H70_7 C74_7 1_555 1_555
H72_7 C75_7 1_555 1_555
H73_7 C75_7 1_555 1_555
H74_7 C76_7 1_555 1_555
H75_7 C76_7 1_555 1_555
H76_7 C77_7 1_555 1_555
H77_7 C77_7 1_555 1_555
H78_7 C78_7 1_555 1_555
H79_7 C78_7 1_555 1_555
H80_7 C79_7 1_555 1_555
H81_7 C79_7 1_555 1_555
H82_7 C80_7 1_555 1_555
H83_7 C80_7 1_555 1_555
H84_7 C80_7 1_555 1_555
C1_7 C2_7 1_555 1_555
C2_7 C3_7 1_555 1_555
C3_7 C4_7 1_555 1_555
C4_7 C5_7 1_555 1_555
C5_7 C6_7 1_555 1_555
C6_7 C26_7 1_555 1_555
C8_7 C68_7 1_555 1_555
C9_7 C31_7 1_555 1_555
C13_7 C14_7 1_555 1_555
C14_7 C21_7 1_555 1_555
C15_7 C16_7 1_555 1_555
C16_7 C22_7 1_555 1_555
C21_7 C15_7 1_555 1_555
C22_7 C13_7 1_555 1_555
C25_7 C26_7 1_555 1_555
C26_7 C27_7 1_555 1_555
C27_7 C56_7 1_555 1_555
C30_7 C31_7 1_555 1_555
C31_7 C32_7 1_555 1_555
C49_7 C50_7 1_555 1_555
C50_7 C51_7 1_555 1_555
C51_7 C22_7 1_555 1_555
C54_7 C21_7 1_555 1_555
C55_7 C54_7 1_555 1_555
C56_7 C55_7 1_555 1_555
C59_7 C30_7 1_555 1_555
C60_7 C27_7 1_555 1_555
C65_7 C59_7 1_555 1_555
C66_7 C60_7 1_555 1_555
C67_7 C60_7 1_555 1_555
C68_7 C59_7 1_555 1_555
C72_7 C50_7 1_555 1_555
C73_7 C13_7 1_555 1_555
C74_7 C15_7 1_555 1_555
C75_7 C55_7 1_555 1_555
C76_7 C75_7 1_555 1_555
C77_7 C76_7 1_555 1_555
C78_7 C77_7 1_555 1_555
C79_7 C78_7 1_555 1_555
C80_7 C79_7 1_555 1_555
C25_7 C54_7 1_555 1_555
C65_7 C66_7 1_555 1_555
C67_7 C68_7 1_555 1_555
H1_8 C1_8 1_555 1_555
H2_8 C1_8 1_555 1_555
H3_8 C1_8 1_555 1_555
H4_8 C2_8 1_555 1_555
H5_8 C2_8 1_555 1_555
H6_8 C3_8 1_555 1_555
H7_8 C3_8 1_555 1_555
H8_8 C4_8 1_555 1_555
H9_8 C4_8 1_555 1_555
H10_8 C5_8 1_555 1_555
H11_8 C5_8 1_555 1_555
H12_8 C6_8 1_555 1_555
H13_8 C6_8 1_555 1_555
H18_8 C8_8 1_555 1_555
H19_8 C8_8 1_555 1_555
H32_8 C14_8 1_555 1_555
H36_8 C25_8 1_555 1_555
H47_8 C49_8 1_555 1_555
H63_8 C72_8 1_555 1_555
H64_8 C72_8 1_555 1_555
H65_8 C72_8 1_555 1_555
H68_8 C73_8 1_555 1_555
C1_8 C2_8 1_555 1_555
C2_8 C3_8 1_555 1_555
C3_8 C4_8 1_555 1_555
C4_8 C5_8 1_555 1_555
C5_8 C6_8 1_555 1_555
C6_8 C26_8 1_555 1_555
C8_8 C68_8 1_555 1_555
C13_8 C14_8 1_555 1_555
C25_8 C26_8 1_555 1_555
C26_8 C27_8 1_555 1_555
C49_8 C50_8 1_555 1_555
C59_8 C30_8 1_555 1_555
C60_8 C27_8 1_555 1_555
C65_8 C59_8 1_555 1_555
C66_8 C60_8 1_555 1_555
C68_8 C59_8 1_555 1_555
C72_8 C50_8 1_555 1_555
C73_8 C13_8 1_555 1_555
C65_8 C66_8 1_555 1_555
H20_8 C9_8 1_555 1_555
H21_8 C9_8 1_555 1_555
H22_8 C9_8 1_555 1_555
H38_8 C32_8 1_555 1_555
H49_8 C56_8 1_555 1_555
H53_8 C67_8 1_555 1_555
H70_8 C74_8 1_555 1_555
H72_8 C75_8 1_555 1_555
H73_8 C75_8 1_555 1_555
H74_8 C76_8 1_555 1_555
H75_8 C76_8 1_555 1_555
H76_8 C77_8 1_555 1_555
H77_8 C77_8 1_555 1_555
H78_8 C78_8 1_555 1_555
H79_8 C78_8 1_555 1_555
H80_8 C79_8 1_555 1_555
H81_8 C79_8 1_555 1_555
H82_8 C80_8 1_555 1_555
H83_8 C80_8 1_555 1_555
H84_8 C80_8 1_555 1_555
C9_8 C31_8 1_555 1_555
C15_8 C16_8 1_555 1_555
C16_8 C22_8 1_555 1_555
C21_8 C15_8 1_555 1_555
C31_8 C32_8 1_555 1_555
C51_8 C22_8 1_555 1_555
C54_8 C21_8 1_555 1_555
C55_8 C54_8 1_555 1_555
C56_8 C55_8 1_555 1_555
C74_8 C15_8 1_555 1_555
C75_8 C55_8 1_555 1_555
C76_8 C75_8 1_555 1_555
C77_8 C76_8 1_555 1_555
C78_8 C77_8 1_555 1_555
C79_8 C78_8 1_555 1_555
C80_8 C79_8 1_555 1_555
H20_9 C9_9 1_555 1_555
H21_9 C9_9 1_555 1_555
H22_9 C9_9 1_555 1_555
H38_9 C32_9 1_555 1_555
H49_9 C56_9 1_555 1_555
H53_9 C67_9 1_555 1_555
H70_9 C74_9 1_555 1_555
H72_9 C75_9 1_555 1_555
H73_9 C75_9 1_555 1_555
H74_9 C76_9 1_555 1_555
H75_9 C76_9 1_555 1_555
H76_9 C77_9 1_555 1_555
H77_9 C77_9 1_555 1_555
H78_9 C78_9 1_555 1_555
H79_9 C78_9 1_555 1_555
H80_9 C79_9 1_555 1_555
H81_9 C79_9 1_555 1_555
H82_9 C80_9 1_555 1_555
H83_9 C80_9 1_555 1_555
H84_9 C80_9 1_555 1_555
C9_9 C31_9 1_555 1_555
C15_9 C16_9 1_555 1_555
C16_9 C22_9 1_555 1_555
C21_9 C15_9 1_555 1_555
C31_9 C32_9 1_555 1_555
C51_9 C22_9 1_555 1_555
C54_9 C21_9 1_555 1_555
C55_9 C54_9 1_555 1_555
C56_9 C55_9 1_555 1_555
C74_9 C15_9 1_555 1_555
C75_9 C55_9 1_555 1_555
C76_9 C75_9 1_555 1_555
C77_9 C76_9 1_555 1_555
C78_9 C77_9 1_555 1_555
C79_9 C78_9 1_555 1_555
C80_9 C79_9 1_555 1_555
H1_9 C1_9 1_555 1_555
H2_9 C1_9 1_555 1_555
H3_9 C1_9 1_555 1_555
H4_9 C2_9 1_555 1_555
H5_9 C2_9 1_555 1_555
H6_9 C3_9 1_555 1_555
H7_9 C3_9 1_555 1_555
H8_9 C4_9 1_555 1_555
H9_9 C4_9 1_555 1_555
H10_9 C5_9 1_555 1_555
H11_9 C5_9 1_555 1_555
H12_9 C6_9 1_555 1_555
H13_9 C6_9 1_555 1_555
H18_9 C8_9 1_555 1_555
H19_9 C8_9 1_555 1_555
H32_9 C14_9 1_555 1_555
H36_9 C25_9 1_555 1_555
H47_9 C49_9 1_555 1_555
H63_9 C72_9 1_555 1_555
H64_9 C72_9 1_555 1_555
H65_9 C72_9 1_555 1_555
H68_9 C73_9 1_555 1_555
C1_9 C2_9 1_555 1_555
C2_9 C3_9 1_555 1_555
C3_9 C4_9 1_555 1_555
C4_9 C5_9 1_555 1_555
C5_9 C6_9 1_555 1_555
C6_9 C26_9 1_555 1_555
C8_9 C68_9 1_555 1_555
C13_9 C14_9 1_555 1_555
C25_9 C26_9 1_555 1_555
C26_9 C27_9 1_555 1_555
C49_9 C50_9 1_555 1_555
C59_9 C30_9 1_555 1_555
C60_9 C27_9 1_555 1_555
C65_9 C59_9 1_555 1_555
C66_9 C60_9 1_555 1_555
C68_9 C59_9 1_555 1_555
C72_9 C50_9 1_555 1_555
C73_9 C13_9 1_555 1_555
C65_9 C66_9 1_555 1_555

#END
