
###############################################################################
#
# This file contains modified crystal structure data generated from the
# MOF subset of the Cambridge Structural Database (CSD) v543 
# hosted by the Cambridge Crystallographic Data Centre (CCDC).
#
# This work is licensed under the Creative Commons
# Attribution-NonCommercial-ShareAlike 4.0 International License.
# To view a copy of this license, visit
# http://creativecommons.org/licenses/by-nc-sa/4.0/
# or send a letter to
# Creative Commons, PO Box 1866, Mountain View, CA 94042, USA.
#
# CIF created using the CSD Python API on 29 September 2022
# The structure has been converted into the P1 space group
# The structure has a 3D framework
# The original CSD entry RAVXAP is in the rhombohedral crystal system
# The original CSD entry RAVXAP is in a Sohncke space group
# The framework has been calculated to contain at least 10.0% void space
# The void calculation uses a probe of radius 1.32A, grid spacing 0.4
#
###############################################################################

data_RAVXAP
_chemical_formula_moiety         '(C576 H630 Mg18 O66)n'
_symmetry_cell_setting           triclinic
_symmetry_space_group_name_H-M   'P 1'
_symmetry_Int_Tables_number      1
_space_group_name_Hall           'P 1'
loop_
_symmetry_equiv_pos_site_id
_symmetry_equiv_pos_as_xyz
1 x,y,z
_cell_length_a                   91.9600
_cell_length_b                   91.9600
_cell_length_c                   6.9878
_cell_angle_alpha                90
_cell_angle_beta                 90
_cell_angle_gamma                120
_cell_volume                     51176.3
loop_
_atom_site_label
_atom_site_type_symbol
_atom_site_fract_x
_atom_site_fract_y
_atom_site_fract_z
O9 O 0.01082 0.32076 0.62164
O11 O 0.00305 0.34213 0.65240
O12 O 0.00575 0.33029 0.98574
Mg4 Mg 0.01376 0.33896 0.43345
O10 O 0.01258 0.35673 0.28830
H31 H 0.04569 0.46898 0.00201
H37 H 0.01317 0.38192 0.12099
H38 H 0.01413 0.38776 0.81061
H39 H 0.01774 0.41059 0.61378
H44 H 0.03545 0.41297 0.06411
H58 H 0.02816 0.53659 0.00560
H59 H 0.05788 0.55618 0.05230
C30 C 0.01168 0.36966 0.38238
C31 C 0.01117 0.37078 0.58260
C32 C 0.00582 0.35629 0.71407
C36 C 0.01307 0.38292 0.27158
C37 C 0.01456 0.39747 0.35278
C38 C 0.01575 0.39917 0.54777
C39 C 0.01390 0.38602 0.66057
C49 C 0.01528 0.41114 0.23488
C50 C 0.01847 0.43842 0.01926
C51 C 0.00644 0.43139 0.16257
C52 C 0.00432 0.41753 0.26638
C54 C 0.02721 0.41801 0.09004
O4 O 0.00351 0.35819 0.88848
H1 H 0.04218 0.36382 0.38630
H35 H 0.03745 0.36311 0.59941
H38_2 H 0.04030 0.31921 0.14395
C32_2 C 0.01714 0.32752 0.04741
O1 O 0.03773 0.35613 0.49531
O4_2 O 0.02135 0.32983 0.22182
H15 H 0.09822 0.26910 0.21814
H16 H 0.11295 0.27574 0.02805
H17 H 0.12016 0.27870 0.26937
H18 H 0.10243 0.34366 0.17544
H19 H 0.12505 0.35381 0.18353
H21 H 0.06443 0.28076 0.19871
H22 H 0.04976 0.28705 0.12476
H23 H 0.07057 0.29740 0.02777
H24 H 0.09973 0.35255 0.71504
H25 H 0.07933 0.35052 0.71254
H26 H 0.08437 0.33900 0.88196
H30 H 0.13706 0.33633 0.01927
H31_2 H 0.08996 0.28765 0.33535
H37_2 H 0.03542 0.32017 0.45433
H39_2 H 0.05952 0.31560 0.94712
H42 H 0.14630 0.30271 0.27919
H43 H 0.10484 0.33480 0.52563
H44_2 H 0.04419 0.29789 0.39745
H56 H 0.19722 0.33479 0.08954
H57 H 0.18377 0.29877 0.15705
H58_2 H 0.17510 0.30518 0.33894
H59_2 H 0.16497 0.27546 0.38564
H60 H 0.14767 0.27744 0.31350
H61 H 0.14493 0.25428 0.14410
H63 H 0.18232 0.27521 0.03266
H64 H 0.17372 0.25836 0.19886
H67 H 0.15955 0.22901 0.08707
C7 C 0.11090 0.27898 0.17208
C8 C 0.11356 0.34344 0.11973
C9 C 0.06319 0.29171 0.15760
C10 C 0.08615 0.34354 0.73519
C19 C 0.14076 0.30923 0.00879
C20 C 0.11311 0.32705 0.15332
C21 C 0.12645 0.32549 0.08171
C22 C 0.12620 0.31013 0.08624
C23 C 0.11247 0.29611 0.17234
C24 C 0.09983 0.29807 0.25837
C25 C 0.09985 0.31332 0.24912
C30_2 C 0.02465 0.32166 0.71572
C31_2 C 0.02628 0.32217 0.91594
C36_2 C 0.03652 0.32027 0.60492
C37_2 C 0.04958 0.31878 0.68612
C38_2 C 0.05009 0.31759 0.88111
C39_2 C 0.03879 0.31944 0.99391
C47 C 0.16363 0.30354 0.07182
C48 C 0.14989 0.30494 0.13255
C49_2 C 0.06253 0.31806 0.56822
C50_2 C 0.08662 0.31487 0.35260
C51_2 C 0.09162 0.32690 0.49591
C52_2 C 0.07988 0.32902 0.59972
C53 C 0.06930 0.30448 0.31401
C54_2 C 0.05747 0.30613 0.42338
C59 C 0.17180 0.29732 0.21027
C60 C 0.15978 0.27886 0.26455
C61 C 0.15618 0.26632 0.10400
C62 C 0.17090 0.26319 0.06887
H1_2 H 0.98830 0.29115 0.71963
H24_2 H 0.91948 0.23360 0.04837
H25_2 H 0.93785 0.25400 0.04587
H26_2 H 0.92129 0.24896 0.21529
H35_2 H 0.99232 0.29588 0.93274
H38_3 H 0.94557 0.29303 0.47728
H39_3 H 0.92274 0.27381 0.28045
C10_2 C 0.92405 0.24718 0.06852
C30_3 C 0.96367 0.30868 0.04905
C31_3 C 0.96255 0.30705 0.24927
C32_3 C 0.97704 0.31619 0.38074
C37_3 C 0.93586 0.28375 0.01945
C38_3 C 0.93416 0.28324 0.21444
C39_3 C 0.94731 0.29454 0.32724
O1_2 O 0.98506 0.29560 0.82864
O3 O 0.99120 0.32758 0.31907
O4_3 O 0.97514 0.31198 0.55515
Mg1 Mg 0.99186 0.31957 0.76678
O10_2 O 0.97660 0.32251 0.95497
Mg3 Mg 0.99438 0.34147 0.10011
H5 H 0.90173 0.19445 0.11165
H7 H 0.87336 0.16944 0.03099
H10 H 0.88001 0.20112 0.05724
H11 H 0.85153 0.17420 0.08779
H14 H 0.85810 0.20755 0.06219
H15_2 H 0.83754 0.23511 0.55147
H16_2 H 0.82945 0.22038 0.36138
H17_2 H 0.82520 0.21317 0.60270
H18_2 H 0.90789 0.23090 0.50877
H19_2 H 0.89542 0.20828 0.51686
H20 H 0.89837 0.21927 0.29986
H21_2 H 0.88299 0.26890 0.53204
H22_2 H 0.90395 0.28357 0.45809
H23_2 H 0.89349 0.26276 0.36110
H28 H 0.73061 0.10080 0.02507
H30_2 H 0.86593 0.19627 0.35260
H31_3 H 0.86435 0.24337 0.66868
H37_3 H 0.95141 0.29791 0.78766
H40 H 0.77604 0.10657 0.10554
H41 H 0.77854 0.16142 0.03545
H42_2 H 0.82307 0.18703 0.61252
H43_2 H 0.89662 0.22849 0.85896
H44_3 H 0.92036 0.28914 0.73078
H54 H 0.80105 0.11863 0.27948
H55 H 0.81571 0.13971 0.20651
H56_2 H 0.80423 0.13611 0.42287
H57_2 H 0.78166 0.14956 0.49038
H58_3 H 0.79674 0.15823 0.67227
H59_3 H 0.77715 0.16836 0.71897
H60_2 H 0.79643 0.18566 0.64683
H61_2 H 0.77601 0.18840 0.47743
H62 H 0.78438 0.18030 0.30682
H63_2 H 0.75955 0.15101 0.36599
H64_2 H 0.75130 0.15961 0.53219
H65 H 0.75858 0.17088 0.11599
H66 H 0.73894 0.15391 0.19758
H67_2 H 0.73612 0.17378 0.42040
H68 H 0.75516 0.19094 0.32158
H69 H 0.73692 0.17935 0.17634
C6 C 0.84795 0.19521 0.01198
C7_2 C 0.83474 0.22243 0.50541
C8_2 C 0.89654 0.21977 0.45306
C9_2 C 0.89518 0.27014 0.49093
C17 C 0.81861 0.17314 0.09327
C18 C 0.83363 0.18721 0.15241
C19_2 C 0.83513 0.19257 0.34212
C20_2 C 0.88060 0.22022 0.48665
C21_2 C 0.86570 0.20688 0.41504
C22_2 C 0.85059 0.20713 0.41957
C23_2 C 0.85030 0.22086 0.50567
C24_2 C 0.86490 0.23350 0.59170
C25_2 C 0.88013 0.23348 0.58245
C36_3 C 0.95041 0.29681 0.93825
C41 C 0.77647 0.11852 0.09212
C42 C 0.78978 0.13294 0.17318
C43 C 0.79055 0.14854 0.14991
C44 C 0.77781 0.14937 0.05151
C46 C 0.80521 0.16423 0.21760
C47_2 C 0.80657 0.16970 0.40515
C48_2 C 0.82171 0.18344 0.46588
C49_3 C 0.92219 0.27080 0.90155
C50_3 C 0.89491 0.24671 0.68593
C51_3 C 0.90194 0.24171 0.82924
C52_3 C 0.91580 0.25345 0.93305
C53_2 C 0.90184 0.26403 0.64734
C54_3 C 0.91532 0.27586 0.75671
C58 C 0.80343 0.13172 0.27632
C59_2 C 0.79218 0.16153 0.54360
C60_2 C 0.78574 0.17355 0.59788
C61_2 C 0.77680 0.17715 0.43733
C62_2 C 0.75895 0.16243 0.40220
C63 C 0.75013 0.16595 0.23980
C64 C 0.74427 0.17828 0.29389
H1_3 H 0.96952 0.34503 0.05296
H35_3 H 0.97023 0.34101 0.26607
O1_3 O 0.97721 0.34827 0.16197
H24_3 H 0.98079 0.41385 0.38170
H25_3 H 0.98282 0.39548 0.37920
H26_3 H 0.99434 0.41204 0.54862
H43_3 H 0.99854 0.43671 0.19229
C10_3 C 0.98980 0.40928 0.40185
H2 H 0.92364 0.20451 0.85988
H3 H 0.90766 0.19337 0.68517
H4 H 0.90840 0.21080 0.81290
H6 H 0.90210 0.17760 0.98942
H8 H 0.87764 0.17395 0.78601
H9 H 0.87685 0.19964 0.80712
H12 H 0.84827 0.17563 0.84212
H13 H 0.84335 0.19798 0.87996
H27 H 0.75141 0.08105 0.49646
H29 H 0.81749 0.16881 0.94961
H32 H 0.72715 0.07692 0.26928
H33 H 0.70978 0.05333 0.06834
H34 H 0.70850 0.04521 0.75400
H45 H 0.69822 0.06313 0.85466
H46 H 0.70260 0.08329 0.93778
H47 H 0.69969 0.07871 0.69074
H48 H 0.78415 0.10670 0.77378
H49 H 0.77863 0.10333 0.52985
H50 H 0.78098 0.12182 0.64339
H51 H 0.75322 0.14935 0.86526
H52 H 0.75133 0.13292 0.71151
H53 H 0.73870 0.12813 0.92243
C1 C 0.91030 0.19985 0.82305
C2 C 0.89899 0.18777 0.97469
C3 C 0.88021 0.17975 0.92796
C4 C 0.87374 0.19229 0.93917
C5 C 0.85466 0.18315 0.96920
C11 C 0.74686 0.08544 0.61132
C12 C 0.75828 0.09921 0.71833
C13 C 0.72354 0.08325 0.79508
C14 C 0.73510 0.09647 0.90922
C15 C 0.75240 0.10464 0.87120
C16 C 0.72958 0.07731 0.64817
C26 C 0.70883 0.05120 0.21773
C27 C 0.71887 0.06483 0.33269
C28 C 0.71825 0.06294 0.52748
C29 C 0.70795 0.04703 0.60500
C33 C 0.68528 0.02235 0.15987
C34 C 0.69757 0.03527 0.29292
C35 C 0.69753 0.03319 0.49238
C40 C 0.76420 0.11947 0.98427
C45 C 0.76451 0.13496 0.96928
C55 C 0.70501 0.07670 0.82163
C56 C 0.77655 0.10827 0.66327
C57 C 0.75124 0.13643 0.86052
O6 O 0.67417 0.00801 0.22059
O7 O 0.68883 0.01766 0.58435
Mg8 Mg 0.67008 0.01327 0.77182
H36 H 0.65763 0.02908 0.62120
H70 H 0.66401 0.03638 0.82265
O5 O 0.68571 0.02614 0.98507
O8 O 0.66745 0.03314 0.70539
O16 O 0.64901 0.00450 0.91768
H27_2 H 0.58562 0.00369 0.82979
H49_2 H 0.56334 0.00863 0.86318
C56_2 C 0.55840 0.00161 0.99660
H36_2 H 0.70478 0.00904 0.28787
H70_2 H 0.70570 0.00266 0.48932
Mg6 Mg 0.65340 0.99014 0.10515
Mg7 Mg 0.67652 0.99659 0.43849
O13 O 0.66717 0.99250 0.88726
O14 O 0.65866 0.99949 0.55392
H13_2 H 0.46869 0.97870 0.21329
H14_2 H 0.45912 0.98388 0.39552
H15_3 H 0.43156 0.93576 0.88480
H16_3 H 0.44629 0.94240 0.69471
H17_3 H 0.45350 0.94536 0.93603
H21_3 H 0.39777 0.94742 0.86537
H22_3 H 0.38310 0.95371 0.79142
H23_3 H 0.40391 0.96406 0.69443
H28_2 H 0.56587 0.96314 0.35840
H29_2 H 0.49786 0.98201 0.28294
H34_2 H 0.62146 0.99662 0.08733
H41_2 H 0.50525 0.95045 0.36878
H42_3 H 0.47964 0.96937 0.94585
H45_2 H 0.60354 0.96842 0.18799
H46_2 H 0.58338 0.95264 0.27111
H47_2 H 0.58796 0.95431 0.02407
H51_2 H 0.51732 0.93720 0.19859
H52_2 H 0.53375 0.95174 0.04484
H53_2 H 0.53854 0.94390 0.25576
H57_3 H 0.51711 0.96543 0.82371
H60_3 H 0.48101 0.94410 0.98016
H61_3 H 0.47827 0.92094 0.81076
H62_2 H 0.48637 0.93741 0.64015
H63_3 H 0.51566 0.94187 0.69932
H64_3 H 0.50706 0.92502 0.86552
H65_2 H 0.49579 0.92103 0.44932
H66_2 H 0.51276 0.91836 0.53091
H67_3 H 0.49289 0.89567 0.75373
H68_2 H 0.47573 0.89755 0.65491
H69_2 H 0.48732 0.89090 0.50967
C6_2 C 0.47146 0.98607 0.34531
C7_3 C 0.44424 0.94564 0.83874
C9_3 C 0.39653 0.95837 0.82426
C12_2 C 0.56746 0.99240 0.05166
C13_2 C 0.58342 0.97362 0.12841
C14_2 C 0.57020 0.97196 0.24255
C15_2 C 0.56203 0.98109 0.20453
C17_2 C 0.49353 0.97880 0.42660
C18_2 C 0.47946 0.97975 0.48574
C19_3 C 0.47410 0.97589 0.67545
C20_3 C 0.44645 0.99371 0.81998
C21_3 C 0.45979 0.99215 0.74837
C22_3 C 0.45954 0.97679 0.75290
C23_3 C 0.44581 0.96277 0.83900
C24_3 C 0.43317 0.96473 0.92503
C25_3 C 0.43319 0.97998 0.91578
C40_2 C 0.54720 0.97806 0.31760
C41_2 C 0.54815 0.99128 0.42545
C42_2 C 0.53373 0.99017 0.50651
C43_2 C 0.51813 0.97534 0.48324
C44_2 C 0.51730 0.96177 0.38484
C45_2 C 0.53171 0.96288 0.30261
C46_2 C 0.50244 0.97431 0.55093
C47_3 C 0.49697 0.97020 0.73848
C48_3 C 0.48323 0.97160 0.79921
C53_3 C 0.40264 0.97114 0.98067
C55_2 C 0.58997 0.96164 0.15496
C57_2 C 0.53024 0.94814 0.19385
C59_3 C 0.50514 0.96398 0.87693
C60_3 C 0.49312 0.94552 0.93121
C61_3 C 0.48952 0.93298 0.77066
C62_3 C 0.50424 0.92985 0.73553
C63_2 C 0.50072 0.91751 0.57313
C64_2 C 0.48839 0.89932 0.62722
H32_2 H 0.58975 0.98356 0.60261
H33_2 H 0.61334 0.98978 0.40167
H50_2 H 0.54485 0.99249 0.97672
H70_3 H 0.63029 0.96096 0.15598
C11_2 C 0.58123 0.99475 0.94465
C16_2 C 0.58936 0.98560 0.98150
C26_2 C 0.61547 0.99096 0.55106
C27_2 C 0.60184 0.98737 0.66602
C28_2 C 0.60373 0.98864 0.86081
C29_2 C 0.61964 0.99425 0.93833
C33_2 C 0.64432 0.99626 0.49320
C34_2 C 0.63140 0.99563 0.62625
C35_2 C 0.63348 0.99767 0.82571
O5_2 O 0.64053 0.99290 0.31840
O8_2 O 0.63353 0.96764 0.03872
O16_2 O 0.66216 0.97784 0.25102
H36_3 H 0.63759 0.96188 0.95453
H2_2 H 0.61420 0.74303 0.52655
H3_2 H 0.61904 0.75901 0.35184
H4_2 H 0.63573 0.75827 0.47957
H5_2 H 0.62605 0.76494 0.77832
H6_2 H 0.60883 0.76457 0.65609
H7_2 H 0.62941 0.79331 0.69766
H8_2 H 0.62964 0.78903 0.45268
H9_2 H 0.65612 0.78982 0.47379
H10_2 H 0.65444 0.78666 0.72391
H11_2 H 0.65600 0.81514 0.75446
H12_2 H 0.66069 0.81840 0.50879
H13_3 H 0.68796 0.82332 0.54663
H14_3 H 0.68278 0.80857 0.72886
H20_2 H 0.65423 0.76830 0.96653
H27_3 H 0.66297 0.91526 0.16313
H28_3 H 0.70352 0.93606 0.69174
H29_3 H 0.68465 0.84918 0.61628
H34_3 H 0.67004 0.95817 0.42067
H40_2 H 0.66386 0.89063 0.77221
H41_3 H 0.71621 0.88813 0.70212
H45_3 H 0.69824 0.96845 0.52133
H46_3 H 0.71402 0.96407 0.60445
H47_3 H 0.71235 0.96698 0.35741
H48_2 H 0.65588 0.88252 0.44045
H49_3 H 0.65803 0.88804 0.19652
H50_3 H 0.67417 0.88569 0.31006
H51_3 H 0.72946 0.91345 0.53193
H52_3 H 0.71492 0.91534 0.37818
H53_3 H 0.72276 0.92797 0.58910
H54_2 H 0.65091 0.86562 0.94615
H55_2 H 0.65733 0.85096 0.87318
H62_3 H 0.72925 0.88229 0.97349
H65_3 H 0.74563 0.90809 0.78266
H66_3 H 0.74830 0.92773 0.86425
H68_3 H 0.76911 0.91151 0.98825
H69_3 H 0.77576 0.92975 0.84301
C1_2 C 0.62288 0.75637 0.48972
C2_2 C 0.62211 0.76768 0.64136
C3_2 C 0.63287 0.78646 0.59463
C4_2 C 0.65188 0.79293 0.60584
C5_2 C 0.66182 0.81201 0.63587
C6_3 C 0.68059 0.81872 0.67865
C11_3 C 0.67191 0.91981 0.27799
C12_3 C 0.67426 0.90839 0.38500
C13_3 C 0.69304 0.94313 0.46175
C14_3 C 0.69470 0.93157 0.57589
C15_3 C 0.68557 0.91427 0.53787
C16_3 C 0.68106 0.93709 0.31484
C17_3 C 0.68786 0.84806 0.75994
C18_3 C 0.68691 0.83304 0.81908
C28_3 C 0.67802 0.94842 0.19415
C29_3 C 0.67241 0.95872 0.27167
C35_3 C 0.66899 0.96914 0.15905
C40_3 C 0.68860 0.90247 0.65094
C41_3 C 0.67538 0.89020 0.75879
C42_3 C 0.67649 0.87689 0.83985
C43_3 C 0.69132 0.87612 0.81658
C44_3 C 0.70489 0.88886 0.71818
C45_3 C 0.70378 0.90216 0.63595
C46_3 C 0.69235 0.86146 0.88427
C55_3 C 0.70502 0.96166 0.48830
C56_3 C 0.66505 0.89012 0.32994
C57_3 C 0.71852 0.91543 0.52719
C58_2 C 0.66162 0.86324 0.94299
C63_3 C 0.74915 0.91654 0.90647
C64_3 C 0.76734 0.92240 0.96056
H32_3 H 0.68310 0.93952 0.93595
H33_3 H 0.67688 0.95689 0.73501
C26_3 C 0.67570 0.95784 0.88440
C27_3 C 0.67929 0.94780 0.99936
C33_3 C 0.67040 0.98139 0.82654
C34_3 C 0.67103 0.96910 0.95959
O5_3 O 0.67376 0.98096 0.65174
O8_3 O 0.69902 0.99922 0.37206
Mg6_2 Mg 0.00986 0.66325 0.10515
Mg7_2 Mg 0.00341 0.67994 0.43849
O13_2 O 0.00750 0.67468 0.88726
O14_2 O 0.00051 0.65916 0.55392
H13_4 H 0.02130 0.48998 0.21329
H14_4 H 0.01612 0.47523 0.39552
H15_4 H 0.06424 0.49579 0.88480
H16_4 H 0.05760 0.50388 0.69471
H17_4 H 0.05464 0.50813 0.93603
H21_4 H 0.05258 0.45034 0.86537
H22_4 H 0.04629 0.42938 0.79142
H23_4 H 0.03594 0.43984 0.69443
H28_4 H 0.03686 0.60272 0.35840
H29_4 H 0.01799 0.51584 0.28294
H34_4 H 0.00338 0.62483 0.08733
H41_4 H 0.04955 0.55479 0.36878
H42_4 H 0.03063 0.51026 0.94585
H45_4 H 0.03158 0.63511 0.18799
H46_4 H 0.04736 0.63073 0.27111
H47_4 H 0.04569 0.63364 0.02407
H51_4 H 0.06280 0.58011 0.19859
H52_4 H 0.04826 0.58200 0.04484
H53_4 H 0.05610 0.59463 0.25576
H57_4 H 0.03457 0.55167 0.82371
H60_4 H 0.05590 0.53690 0.98016
H61_4 H 0.07906 0.55732 0.81076
H62_4 H 0.06259 0.54895 0.64015
H63_4 H 0.05813 0.57378 0.69932
H64_4 H 0.07498 0.58203 0.86552
H65_4 H 0.07897 0.57475 0.44932
H66_4 H 0.08164 0.59439 0.53091
H67_4 H 0.10433 0.59721 0.75373
H68_4 H 0.10245 0.57817 0.65491
H69_4 H 0.10910 0.59641 0.50967
C6_4 C 0.01393 0.48538 0.34531
C7_4 C 0.05436 0.49859 0.83874
C9_4 C 0.04163 0.43815 0.82426
C12_4 C 0.00760 0.57505 0.05166
C13_4 C 0.02638 0.60979 0.12841
C14_4 C 0.02804 0.59823 0.24255
C15_4 C 0.01891 0.58093 0.20453
C17_4 C 0.02120 0.51472 0.42660
C18_4 C 0.02025 0.49970 0.48574
C19_4 C 0.02411 0.49820 0.67545
C20_4 C 0.00629 0.45273 0.81998
C21_4 C 0.00785 0.46763 0.74837
C22_4 C 0.02321 0.48274 0.75290
C23_4 C 0.03723 0.48303 0.83900
C24_4 C 0.03527 0.46843 0.92503
C25_4 C 0.02002 0.45320 0.91578
C40_4 C 0.02194 0.56913 0.31760
C41_4 C 0.00872 0.55686 0.42545
C42_4 C 0.00983 0.54355 0.50651
C43_4 C 0.02466 0.54278 0.48324
C44_4 C 0.03823 0.55552 0.38484
C45_4 C 0.03712 0.56882 0.30261
C46_4 C 0.02569 0.52812 0.55093
C47_4 C 0.02980 0.52676 0.73848
C48_4 C 0.02840 0.51162 0.79921
C53_4 C 0.02886 0.43149 0.98067
C55_4 C 0.03836 0.62832 0.15496
C57_4 C 0.05186 0.58209 0.19385
C59_4 C 0.03602 0.54115 0.87693
C60_4 C 0.05448 0.54759 0.93121
C61_4 C 0.06702 0.55653 0.77066
C62_4 C 0.07015 0.57438 0.73553
C63_4 C 0.08249 0.58320 0.57313
C64_4 C 0.10068 0.58906 0.62722
H32_4 H 0.01644 0.60618 0.60261
H33_4 H 0.01022 0.62355 0.40167
H50_4 H 0.00751 0.55235 0.97672
H70_4 H 0.03904 0.66932 0.15598
C11_4 C 0.00525 0.58647 0.94465
C16_4 C 0.01440 0.60375 0.98150
C26_4 C 0.00904 0.62450 0.55106
C27_4 C 0.01263 0.61446 0.66602
C28_4 C 0.01136 0.61508 0.86081
C29_4 C 0.00575 0.62538 0.93833
C33_4 C 0.00374 0.64805 0.49320
C34_4 C 0.00437 0.63576 0.62625
C35_4 C 0.00233 0.63580 0.82571
O5_4 O 0.00710 0.64762 0.31840
O8_4 O 0.03236 0.66588 0.03872
O16_3 O 0.02216 0.68433 0.25102
H36_4 H 0.03812 0.67570 0.95453
H2_3 H 0.25697 0.87118 0.52655
H3_3 H 0.24099 0.86004 0.35184
H4_3 H 0.24173 0.87747 0.47957
H5_3 H 0.23506 0.86112 0.77832
H6_3 H 0.23543 0.84427 0.65609
H7_3 H 0.20669 0.83611 0.69766
H8_3 H 0.21097 0.84062 0.45268
H9_3 H 0.21018 0.86631 0.47379
H10_3 H 0.21334 0.86779 0.72391
H11_3 H 0.18486 0.84087 0.75446
H12_3 H 0.18160 0.84230 0.50879
H13_5 H 0.17668 0.86465 0.54663
H14_5 H 0.19143 0.87422 0.72886
H20_3 H 0.23170 0.88594 0.96653
H27_4 H 0.08474 0.74772 0.16313
H28_5 H 0.06394 0.76747 0.69174
H29_5 H 0.15082 0.83548 0.61628
H34_5 H 0.04183 0.71188 0.42067
H40_3 H 0.10937 0.77324 0.77221
H41_5 H 0.11187 0.82809 0.70212
H45_5 H 0.03155 0.72980 0.52133
H46_5 H 0.03593 0.74996 0.60445
H47_5 H 0.03302 0.74538 0.35741
H48_3 H 0.11748 0.77337 0.44045
H49_4 H 0.11196 0.77000 0.19652
H50_5 H 0.11431 0.78849 0.31006
H51_5 H 0.08655 0.81602 0.53193
H52_5 H 0.08466 0.79959 0.37818
H53_5 H 0.07203 0.79480 0.58910
H54_3 H 0.13438 0.78530 0.94615
H55_3 H 0.14904 0.80638 0.87318
H62_5 H 0.11771 0.84697 0.97349
H65_5 H 0.09191 0.83755 0.78266
H66_5 H 0.07227 0.82058 0.86425
H68_5 H 0.08849 0.85761 0.98825
H69_5 H 0.07025 0.84602 0.84301
C1_3 C 0.24363 0.86652 0.48972
C2_3 C 0.23232 0.85444 0.64136
C3_3 C 0.21354 0.84642 0.59463
C4_3 C 0.20707 0.85896 0.60584
C5_3 C 0.18799 0.84982 0.63587
C6_5 C 0.18128 0.86188 0.67865
C11_5 C 0.08019 0.75211 0.27799
C12_5 C 0.09161 0.76588 0.38500
C13_5 C 0.05687 0.74992 0.46175
C14_5 C 0.06843 0.76314 0.57589
C15_5 C 0.08573 0.77131 0.53787
C16_5 C 0.06291 0.74398 0.31484
C17_5 C 0.15194 0.83981 0.75994
C18_5 C 0.16696 0.85388 0.81908
C28_5 C 0.05158 0.72961 0.19415
C29_5 C 0.04128 0.71370 0.27167
C35_5 C 0.03086 0.69986 0.15905
C40_5 C 0.09753 0.78614 0.65094
C41_5 C 0.10980 0.78519 0.75879
C42_5 C 0.12311 0.79961 0.83985
C43_5 C 0.12388 0.81521 0.81658
C44_5 C 0.11114 0.81604 0.71818
C45_5 C 0.09784 0.80163 0.63595
C46_5 C 0.13854 0.83090 0.88427
C55_5 C 0.03834 0.74337 0.48830
C56_4 C 0.10988 0.77494 0.32994
C57_5 C 0.08457 0.80310 0.52719
C58_3 C 0.13676 0.79839 0.94299
C63_5 C 0.08346 0.83262 0.90647
C64_5 C 0.07760 0.84495 0.96056
H32_5 H 0.06048 0.74359 0.93595
H33_5 H 0.04311 0.72000 0.73501
C26_5 C 0.04216 0.71787 0.88440
C27_5 C 0.05220 0.73150 0.99936
C33_5 C 0.01861 0.68902 0.82654
C34_5 C 0.03090 0.70194 0.95959
O5_5 O 0.01904 0.69281 0.65174
O8_5 O 0.00078 0.69981 0.37206
H1_4 H 0.70885 0.69715 0.71963
H24_4 H 0.76640 0.68588 0.04837
H25_4 H 0.74600 0.68385 0.04587
H26_4 H 0.75104 0.67233 0.21529
H35_4 H 0.70412 0.69644 0.93274
H38_4 H 0.70697 0.65254 0.47728
H39_4 H 0.72619 0.64893 0.28045
C10_4 C 0.75282 0.67687 0.06852
C30_4 C 0.69132 0.65499 0.04905
C31_4 C 0.69295 0.65550 0.24927
C32_4 C 0.68381 0.66085 0.38074
C37_4 C 0.71625 0.65211 0.01945
C38_4 C 0.71676 0.65092 0.21444
C39_4 C 0.70546 0.65277 0.32724
O1_4 O 0.70440 0.68946 0.82864
O3_2 O 0.67242 0.66362 0.31907
O4_4 O 0.68802 0.66316 0.55515
Mg1_2 Mg 0.68043 0.67229 0.76678
O9_2 O 0.67924 0.69007 0.62164
O10_3 O 0.67749 0.65409 0.95497
O11_2 O 0.65787 0.66091 0.65240
O12_2 O 0.66971 0.67547 0.98574
Mg3_2 Mg 0.65853 0.65290 0.10011
Mg4_2 Mg 0.66104 0.67481 0.43345
H5_4 H 0.80555 0.70728 0.11165
H7_4 H 0.83056 0.70392 0.03099
H10_4 H 0.79888 0.67889 0.05724
H11_4 H 0.82580 0.67733 0.08779
H14_6 H 0.79245 0.65055 0.06219
H15_5 H 0.76489 0.60243 0.55147
H16_5 H 0.77962 0.60907 0.36138
H17_5 H 0.78683 0.61203 0.60270
H18_3 H 0.76910 0.67699 0.50877
H19_3 H 0.79172 0.68714 0.51686
H20_4 H 0.78073 0.67910 0.29986
H21_5 H 0.73110 0.61409 0.53204
H22_5 H 0.71643 0.62038 0.45809
H23_5 H 0.73724 0.63073 0.36110
H28_6 H 0.89920 0.62981 0.02507
H30_3 H 0.80373 0.66966 0.35260
H31_4 H 0.75663 0.62098 0.66868
H37_4 H 0.70209 0.65350 0.78766
H40_4 H 0.89343 0.66947 0.10554
H41_6 H 0.83858 0.61712 0.03545
H42_5 H 0.81297 0.63604 0.61252
H43_4 H 0.77151 0.66813 0.85896
H44_4 H 0.71086 0.63122 0.73078
H54_4 H 0.88137 0.68242 0.27948
H55_4 H 0.86029 0.67600 0.20651
H56_3 H 0.86389 0.66812 0.42287
H57_5 H 0.85044 0.63210 0.49038
H58_4 H 0.84177 0.63851 0.67227
H59_4 H 0.83164 0.60879 0.71897
H60_5 H 0.81434 0.61077 0.64683
H61_5 H 0.81160 0.58761 0.47743
H62_6 H 0.81970 0.60408 0.30682
H63_5 H 0.84899 0.60854 0.36599
H64_5 H 0.84039 0.59169 0.53219
H65_6 H 0.82912 0.58770 0.11599
H66_6 H 0.84609 0.58503 0.19758
H67_5 H 0.82622 0.56234 0.42040
H68_6 H 0.80906 0.56422 0.32158
H69_6 H 0.82065 0.55757 0.17634
C6_6 C 0.80479 0.65274 0.01198
C7_5 C 0.77757 0.61231 0.50541
C8_3 C 0.78023 0.67677 0.45306
C9_5 C 0.72986 0.62504 0.49093
C17_6 C 0.82686 0.64547 0.09327
C18_6 C 0.81279 0.64642 0.15241
C19_5 C 0.80743 0.64256 0.34212
C20_5 C 0.77978 0.66038 0.48665
C21_5 C 0.79312 0.65882 0.41504
C22_5 C 0.79287 0.64346 0.41957
C23_5 C 0.77914 0.62944 0.50567
C24_5 C 0.76650 0.63140 0.59170
C25_5 C 0.76652 0.64665 0.58245
C36_4 C 0.70319 0.65360 0.93825
C41_6 C 0.88148 0.65795 0.09212
C42_6 C 0.86706 0.65684 0.17318
C43_6 C 0.85146 0.64201 0.14991
C44_6 C 0.85063 0.62844 0.05151
C46_6 C 0.83577 0.64098 0.21760
C47_5 C 0.83030 0.63687 0.40515
C48_5 C 0.81656 0.63827 0.46588
C49_4 C 0.72920 0.65139 0.90155
C50_4 C 0.75329 0.64820 0.68593
C51_4 C 0.75829 0.66023 0.82924
C52_4 C 0.74655 0.66235 0.93305
C53_5 C 0.73597 0.63781 0.64734
C54_4 C 0.72414 0.63946 0.75671
C58_4 C 0.86828 0.67171 0.27632
C59_5 C 0.83847 0.63065 0.54360
C60_5 C 0.82645 0.61219 0.59788
C61_5 C 0.82285 0.59965 0.43733
C62_5 C 0.83757 0.59652 0.40220
C63_6 C 0.83405 0.58418 0.23980
C64_6 C 0.82172 0.56599 0.29389
H1_5 H 0.65497 0.62448 0.05296
H35_5 H 0.65899 0.62921 0.26607
O1_5 O 0.65173 0.62893 0.16197
O10_4 O 0.64327 0.65584 0.28830
H24_5 H 0.58615 0.56693 0.38170
H25_5 H 0.60452 0.58733 0.37920
H26_5 H 0.58796 0.58229 0.54862
H31_5 H 0.53102 0.57670 0.00201
H37_5 H 0.61808 0.63124 0.12099
H38_5 H 0.61224 0.62636 0.81061
H39_5 H 0.58941 0.60714 0.61378
H43_5 H 0.56329 0.56182 0.19229
H44_5 H 0.58703 0.62247 0.06411
H58_5 H 0.46341 0.49156 0.00560
H59_5 H 0.44382 0.50169 0.05230
C10_5 C 0.59072 0.58051 0.40185
C30_5 C 0.63034 0.64201 0.38238
C31_5 C 0.62922 0.64038 0.58260
C32_5 C 0.64371 0.64952 0.71407
C36_5 C 0.61708 0.63014 0.27158
C37_5 C 0.60253 0.61708 0.35278
C38_5 C 0.60083 0.61657 0.54777
C39_5 C 0.61398 0.62787 0.66057
C49_5 C 0.58886 0.60413 0.23488
C50_5 C 0.56158 0.58004 0.01926
C51_5 C 0.56861 0.57504 0.16257
C52_5 C 0.58247 0.58678 0.26638
C54_5 C 0.58199 0.60919 0.09004
O4_5 O 0.64181 0.64531 0.88848
H1_6 H 0.63618 0.67837 0.38630
H35_6 H 0.63689 0.67435 0.59941
H38_6 H 0.68079 0.72110 0.14395
C32_6 C 0.67248 0.68963 0.04741
O1_6 O 0.64387 0.68161 0.49531
O4_6 O 0.67017 0.69153 0.22182
H15_6 H 0.73090 0.82913 0.21814
H16_6 H 0.72426 0.83722 0.02805
H17_6 H 0.72130 0.84147 0.26937
H18_4 H 0.65634 0.75878 0.17544
H19_4 H 0.64619 0.77125 0.18353
H21_6 H 0.71924 0.78368 0.19871
H22_6 H 0.71295 0.76272 0.12476
H23_6 H 0.70260 0.77318 0.02777
H24_6 H 0.64745 0.74719 0.71504
H25_6 H 0.64948 0.72882 0.71254
H26_6 H 0.66100 0.74538 0.88196
H30_4 H 0.66367 0.80074 0.01927
H31_6 H 0.71235 0.80232 0.33535
H37_6 H 0.67983 0.71526 0.45433
H39_6 H 0.68440 0.74393 0.94712
H42_6 H 0.69729 0.84360 0.27919
H43_6 H 0.66520 0.77005 0.52563
H44_6 H 0.70211 0.74631 0.39745
H56_4 H 0.66521 0.86244 0.08954
H57_6 H 0.70123 0.88501 0.15705
H58_6 H 0.69482 0.86993 0.33894
H59_6 H 0.72454 0.88952 0.38564
H60_6 H 0.72256 0.87024 0.31350
H61_6 H 0.74572 0.89066 0.14410
H63_6 H 0.72479 0.90712 0.03266
H64_6 H 0.74164 0.91537 0.19886
H67_6 H 0.77099 0.93055 0.08707
C7_6 C 0.72102 0.83193 0.17208
C8_4 C 0.65656 0.77013 0.11973
C9_6 C 0.70829 0.77149 0.15760
C10_6 C 0.65646 0.74262 0.73519
C19_6 C 0.69077 0.83154 0.00879
C20_6 C 0.67295 0.78607 0.15332
C21_6 C 0.67451 0.80097 0.08171
C22_6 C 0.68987 0.81608 0.08624
C23_6 C 0.70389 0.81637 0.17234
C24_6 C 0.70193 0.80177 0.25837
C25_6 C 0.68668 0.78654 0.24912
C30_6 C 0.67834 0.70300 0.71572
C31_6 C 0.67783 0.70412 0.91594
C36_6 C 0.67973 0.71626 0.60492
C37_6 C 0.68122 0.73081 0.68612
C38_6 C 0.68241 0.73251 0.88111
C39_6 C 0.68056 0.71936 0.99391
C47_6 C 0.69646 0.86010 0.07182
C48_6 C 0.69506 0.84496 0.13255
C49_6 C 0.68194 0.74448 0.56822
C50_6 C 0.68513 0.77176 0.35260
C51_6 C 0.67310 0.76473 0.49591
C52_6 C 0.67098 0.75087 0.59972
C53_6 C 0.69552 0.76483 0.31401
C54_6 C 0.69387 0.75135 0.42338
C59_6 C 0.70268 0.87449 0.21027
C60_6 C 0.72114 0.88093 0.26455
C61_6 C 0.73368 0.88987 0.10400
C62_6 C 0.73681 0.90772 0.06887
H2_4 H 0.79549 0.71913 0.85988
H3_4 H 0.80663 0.71429 0.68517
H4_4 H 0.78920 0.69760 0.81290
H6_4 H 0.82240 0.72450 0.98942
H8_4 H 0.82605 0.70369 0.78601
H9_4 H 0.80036 0.67721 0.80712
H12_4 H 0.82437 0.67264 0.84212
H13_6 H 0.80202 0.64537 0.87996
H27_5 H 0.91895 0.67036 0.49646
H29_6 H 0.83119 0.64868 0.94961
H32_6 H 0.92308 0.65023 0.26928
H33_6 H 0.94667 0.65645 0.06834
H34_6 H 0.95479 0.66329 0.75400
H45_6 H 0.93687 0.63509 0.85466
H46_6 H 0.91671 0.61931 0.93778
H47_6 H 0.92129 0.62098 0.69074
H48_4 H 0.89330 0.67745 0.77378
H49_5 H 0.89667 0.67530 0.52985
H50_6 H 0.87818 0.65916 0.64339
H51_6 H 0.85065 0.60387 0.86526
H52_6 H 0.86708 0.61841 0.71151
H53_6 H 0.87187 0.61057 0.92243
C1_4 C 0.80015 0.71045 0.82305
C2_4 C 0.81223 0.71122 0.97469
C3_4 C 0.82025 0.70046 0.92796
C4_4 C 0.80771 0.68145 0.93917
C5_4 C 0.81685 0.67151 0.96920
C11_6 C 0.91456 0.66142 0.61132
C12_6 C 0.90079 0.65907 0.71833
C13_6 C 0.91675 0.64029 0.79508
C14_6 C 0.90353 0.63863 0.90922
C15_6 C 0.89536 0.64776 0.87120
C16_6 C 0.92269 0.65227 0.64817
C26_6 C 0.94880 0.65763 0.21773
C27_6 C 0.93517 0.65404 0.33269
C28_6 C 0.93706 0.65531 0.52748
C29_6 C 0.95297 0.66092 0.60500
C33_6 C 0.97765 0.66293 0.15987
C34_6 C 0.96473 0.66230 0.29292
C35_6 C 0.96681 0.66434 0.49238
C40_6 C 0.88053 0.64473 0.98427
C45_6 C 0.86504 0.62955 0.96928
C55_6 C 0.92330 0.62831 0.82163
C56_5 C 0.89173 0.66828 0.66327
C57_6 C 0.86357 0.61481 0.86052
O6_2 O 0.99199 0.66616 0.22059
O7_2 O 0.98234 0.67117 0.58435
Mg8_2 Mg 0.98673 0.65681 0.77182
H36_5 H 0.97092 0.62855 0.62120
H70_5 H 0.96362 0.62763 0.82265
O5_6 O 0.97386 0.65957 0.98507
O8_6 O 0.96686 0.63431 0.70539
O16_4 O 0.99550 0.64450 0.91768
H27_6 H 0.99631 0.58192 0.82979
H49_6 H 0.99137 0.55470 0.86318
C56_6 C 0.99839 0.55678 0.99660
H36_6 H 0.99096 0.69575 0.28787
H70_6 H 0.99734 0.70305 0.48932
H1_7 H 0.30285 0.01170 0.71963
H24_7 H 0.31412 0.08052 0.04837
H25_7 H 0.31615 0.06215 0.04587
H26_7 H 0.32767 0.07871 0.21529
H35_7 H 0.30356 0.00768 0.93274
H38_7 H 0.34746 0.05443 0.47728
H39_7 H 0.35107 0.07726 0.28045
C10_7 C 0.32313 0.07595 0.06852
C30_7 C 0.34501 0.03633 0.04905
C31_7 C 0.34450 0.03745 0.24927
C32_7 C 0.33915 0.02296 0.38074
C37_7 C 0.34789 0.06414 0.01945
C38_7 C 0.34908 0.06584 0.21444
C39_7 C 0.34723 0.05269 0.32724
O1_7 O 0.31054 0.01494 0.82864
O3_3 O 0.33638 0.00880 0.31907
O4_7 O 0.33684 0.02486 0.55515
Mg1_3 Mg 0.32771 0.00814 0.76678
O10_5 O 0.34591 0.02340 0.95497
Mg3_3 Mg 0.34710 0.00562 0.10011
H5_5 H 0.29272 0.09827 0.11165
H7_5 H 0.29608 0.12664 0.03099
H10_5 H 0.32111 0.11999 0.05724
H11_5 H 0.32267 0.14847 0.08779
H14_7 H 0.34945 0.14190 0.06219
H15_7 H 0.39757 0.16246 0.55147
H16_7 H 0.39093 0.17055 0.36138
H17_7 H 0.38797 0.17480 0.60270
H18_5 H 0.32301 0.09211 0.50877
H19_5 H 0.31286 0.10458 0.51686
H20_5 H 0.32090 0.10163 0.29986
H21_7 H 0.38591 0.11701 0.53204
H22_7 H 0.37962 0.09605 0.45809
H23_7 H 0.36927 0.10651 0.36110
H28_7 H 0.37019 0.26939 0.02507
H30_5 H 0.33034 0.13407 0.35260
H31_7 H 0.37902 0.13565 0.66868
H37_7 H 0.34650 0.04859 0.78766
H40_5 H 0.33053 0.22396 0.10554
H41_7 H 0.38288 0.22146 0.03545
H42_7 H 0.36396 0.17693 0.61252
H43_7 H 0.33187 0.10338 0.85896
H44_7 H 0.36878 0.07964 0.73078
H54_5 H 0.31758 0.19895 0.27948
H55_5 H 0.32400 0.18429 0.20651
H56_5 H 0.33188 0.19577 0.42287
H57_7 H 0.36790 0.21834 0.49038
H58_7 H 0.36149 0.20326 0.67227
H59_7 H 0.39121 0.22285 0.71897
H60_7 H 0.38923 0.20357 0.64683
H61_7 H 0.41239 0.22399 0.47743
H62_7 H 0.39592 0.21562 0.30682
H63_7 H 0.39146 0.24045 0.36599
H64_7 H 0.40831 0.24870 0.53219
H65_7 H 0.41230 0.24142 0.11599
H66_7 H 0.41497 0.26106 0.19758
H67_7 H 0.43766 0.26388 0.42040
H68_7 H 0.43578 0.24484 0.32158
H69_7 H 0.44243 0.26308 0.17634
C6_7 C 0.34726 0.15205 0.01198
C7_7 C 0.38769 0.16526 0.50541
C8_5 C 0.32323 0.10346 0.45306
C9_7 C 0.37496 0.10482 0.49093
C17_7 C 0.35453 0.18139 0.09327
C18_7 C 0.35358 0.16637 0.15241
C19_7 C 0.35744 0.16487 0.34212
C20_7 C 0.33962 0.11940 0.48665
C21_7 C 0.34118 0.13430 0.41504
C22_7 C 0.35654 0.14941 0.41957
C23_7 C 0.37056 0.14970 0.50567
C24_7 C 0.36860 0.13510 0.59170
C25_7 C 0.35335 0.11987 0.58245
C36_7 C 0.34640 0.04959 0.93825
C41_7 C 0.34205 0.22353 0.09212
C42_7 C 0.34316 0.21022 0.17318
C43_7 C 0.35799 0.20945 0.14991
C44_7 C 0.37156 0.22219 0.05151
C46_7 C 0.35902 0.19479 0.21760
C47_7 C 0.36313 0.19343 0.40515
C48_7 C 0.36173 0.17829 0.46588
C49_7 C 0.34861 0.07781 0.90155
C50_7 C 0.35180 0.10509 0.68593
C51_7 C 0.33977 0.09806 0.82924
C52_7 C 0.33765 0.08420 0.93305
C53_7 C 0.36219 0.09816 0.64734
C54_7 C 0.36054 0.08468 0.75671
C58_5 C 0.32829 0.19657 0.27632
C59_7 C 0.36935 0.20782 0.54360
C60_7 C 0.38781 0.21426 0.59788
C61_7 C 0.40035 0.22320 0.43733
C62_7 C 0.40348 0.24105 0.40220
C63_7 C 0.41582 0.24987 0.23980
C64_7 C 0.43401 0.25573 0.29389
H1_8 H 0.37552 0.03048 0.05296
H35_8 H 0.37079 0.02977 0.26607
O1_8 O 0.37107 0.02279 0.16197
H24_8 H 0.43307 0.01921 0.38170
H25_8 H 0.41267 0.01718 0.37920
H26_8 H 0.41771 0.00566 0.54862
H43_8 H 0.43818 0.00146 0.19229
C10_8 C 0.41949 0.01020 0.40185
H2_5 H 0.28087 0.07636 0.85988
H3_5 H 0.28571 0.09234 0.68517
H4_5 H 0.30240 0.09160 0.81290
H6_5 H 0.27550 0.09790 0.98942
H8_5 H 0.29631 0.12236 0.78601
H9_5 H 0.32279 0.12315 0.80712
H12_5 H 0.32736 0.15173 0.84212
H13_7 H 0.35463 0.15665 0.87996
H27_7 H 0.32964 0.24859 0.49646
H29_7 H 0.35132 0.18251 0.94961
H32_7 H 0.34977 0.27285 0.26928
H33_7 H 0.34355 0.29022 0.06834
H34_7 H 0.33671 0.29150 0.75400
H45_7 H 0.36491 0.30178 0.85466
H46_7 H 0.38069 0.29740 0.93778
H47_7 H 0.37902 0.30031 0.69074
H48_5 H 0.32255 0.21585 0.77378
H49_7 H 0.32470 0.22137 0.52985
H50_7 H 0.34084 0.21902 0.64339
H51_7 H 0.39613 0.24678 0.86526
H52_7 H 0.38159 0.24867 0.71151
H53_7 H 0.38943 0.26130 0.92243
C1_5 C 0.28955 0.08970 0.82305
C2_5 C 0.28878 0.10101 0.97469
C3_5 C 0.29954 0.11979 0.92796
C4_5 C 0.31855 0.12626 0.93917
C5_5 C 0.32849 0.14534 0.96920
C11_7 C 0.33858 0.25314 0.61132
C12_7 C 0.34093 0.24172 0.71833
C13_7 C 0.35971 0.27646 0.79508
C14_7 C 0.36137 0.26490 0.90922
C15_7 C 0.35224 0.24760 0.87120
C16_7 C 0.34773 0.27042 0.64817
C26_7 C 0.34237 0.29117 0.21773
C27_7 C 0.34596 0.28113 0.33269
C28_7 C 0.34469 0.28175 0.52748
C29_7 C 0.33908 0.29205 0.60500
C33_7 C 0.33707 0.31472 0.15987
C34_7 C 0.33770 0.30243 0.29292
C35_7 C 0.33566 0.30247 0.49238
C40_7 C 0.35527 0.23580 0.98427
C45_7 C 0.37045 0.23549 0.96928
C55_7 C 0.37169 0.29499 0.82163
C56_7 C 0.33172 0.22345 0.66327
C57_7 C 0.38519 0.24876 0.86052
O6_3 O 0.33384 0.32583 0.22059
O7_3 O 0.32883 0.31117 0.58435
Mg6_3 Mg 0.33675 0.34660 0.10515
Mg7_3 Mg 0.32006 0.32348 0.43849
Mg8_3 Mg 0.34319 0.32992 0.77182
H36_7 H 0.37145 0.34237 0.62120
H70_7 H 0.37237 0.33599 0.82265
O5_7 O 0.34043 0.31429 0.98507
O8_7 O 0.36569 0.33255 0.70539
O13_3 O 0.32532 0.33283 0.88726
O14_3 O 0.34084 0.34134 0.55392
O16_5 O 0.35550 0.35099 0.91768
H2_6 H 0.59031 0.53784 0.19321
H3_6 H 0.57433 0.52670 0.01850
H4_6 H 0.57507 0.54413 0.14623
H5_6 H 0.56840 0.52778 0.44498
H6_6 H 0.56877 0.51093 0.32275
H7_6 H 0.54003 0.50277 0.36432
H8_6 H 0.54431 0.50728 0.11934
H9_6 H 0.54352 0.53297 0.14045
H10_6 H 0.54668 0.53445 0.39057
H11_6 H 0.51820 0.50753 0.42112
H12_6 H 0.51494 0.50896 0.17545
H13_8 H 0.51002 0.53131 0.21329
H14_8 H 0.52477 0.54088 0.39552
H15_8 H 0.50421 0.56844 0.88480
H16_8 H 0.49612 0.55371 0.69471
H17_8 H 0.49187 0.54650 0.93603
H18_6 H 0.57456 0.56423 0.84210
H19_6 H 0.56209 0.54161 0.85019
H20_6 H 0.56504 0.55260 0.63319
H21_8 H 0.54966 0.60223 0.86537
H22_8 H 0.57062 0.61690 0.79142
H23_8 H 0.56016 0.59609 0.69443
H28_8 H 0.39728 0.43413 0.35840
H29_8 H 0.48416 0.50214 0.28294
H30_6 H 0.53260 0.52960 0.68593
H34_8 H 0.37517 0.37854 0.08733
H40_6 H 0.44271 0.43990 0.43887
H41_8 H 0.44521 0.49475 0.36878
H42_8 H 0.48974 0.52036 0.94585
H45_8 H 0.36489 0.39646 0.18799
H46_8 H 0.36927 0.41662 0.27111
H47_8 H 0.36636 0.41204 0.02407
H48_6 H 0.45082 0.44003 0.10711
H51_8 H 0.41989 0.48268 0.19859
H52_8 H 0.41800 0.46625 0.04484
H53_8 H 0.40537 0.46146 0.25576
H54_6 H 0.46772 0.45196 0.61281
H55_6 H 0.48238 0.47304 0.53984
H56_6 H 0.47090 0.46944 0.75620
H57_8 H 0.44833 0.48289 0.82371
H60_8 H 0.46310 0.51899 0.98016
H61_8 H 0.44268 0.52173 0.81076
H62_8 H 0.45105 0.51363 0.64015
H63_8 H 0.42622 0.48434 0.69932
H64_8 H 0.41797 0.49294 0.86552
H65_8 H 0.42525 0.50421 0.44932
H66_8 H 0.40561 0.48724 0.53091
H67_8 H 0.40279 0.50711 0.75373
H68_8 H 0.42183 0.52427 0.65491
H69_8 H 0.40359 0.51268 0.50967
C1_6 C 0.57697 0.53318 0.15638
C2_6 C 0.56566 0.52110 0.30802
C3_6 C 0.54688 0.51308 0.26129
C4_6 C 0.54041 0.52562 0.27250
C5_6 C 0.52133 0.51648 0.30253
C6_8 C 0.51462 0.52854 0.34531
C7_8 C 0.50141 0.55576 0.83874
C8_6 C 0.56321 0.55310 0.78639
C9_8 C 0.56185 0.60347 0.82426
C12_8 C 0.42495 0.43254 0.05166
C13_8 C 0.39021 0.41658 0.12841
C14_8 C 0.40177 0.42980 0.24255
C15_8 C 0.41907 0.43797 0.20453
C17_8 C 0.48528 0.50647 0.42660
C18_8 C 0.50030 0.52054 0.48574
C19_8 C 0.50180 0.52590 0.67545
C20_8 C 0.54727 0.55355 0.81998
C21_8 C 0.53237 0.54021 0.74837
C22_8 C 0.51726 0.54046 0.75290
C23_8 C 0.51697 0.55419 0.83900
C24_8 C 0.53157 0.56683 0.92503
C25_8 C 0.54680 0.56681 0.91578
C40_8 C 0.43087 0.45280 0.31760
C41_8 C 0.44314 0.45185 0.42545
C42_8 C 0.45645 0.46627 0.50651
C43_8 C 0.45722 0.48187 0.48324
C44_8 C 0.44448 0.48270 0.38484
C45_8 C 0.43118 0.46829 0.30261
C46_8 C 0.47188 0.49756 0.55093
C47_8 C 0.47324 0.50303 0.73848
C48_8 C 0.48838 0.51677 0.79921
C53_8 C 0.56851 0.59736 0.98067
C55_8 C 0.37168 0.41003 0.15496
C57_8 C 0.41791 0.46976 0.19385
C58_6 C 0.47010 0.46505 0.60965
C59_8 C 0.45885 0.49486 0.87693
C60_8 C 0.45241 0.50688 0.93121
C61_8 C 0.44347 0.51048 0.77066
C62_8 C 0.42562 0.49576 0.73553
C63_8 C 0.41680 0.49928 0.57313
C64_8 C 0.41094 0.51161 0.62722
H27_8 H 0.41808 0.41438 0.82979
H32_8 H 0.39382 0.41025 0.60261
H33_8 H 0.37645 0.38666 0.40167
H49_8 H 0.44530 0.43666 0.86318
H50_8 H 0.44765 0.45515 0.97672
H70_8 H 0.33068 0.36971 0.15598
C11_8 C 0.41353 0.41877 0.94465
C16_8 C 0.39625 0.41064 0.98150
C26_8 C 0.37550 0.38453 0.55106
C27_8 C 0.38554 0.39816 0.66602
C28_8 C 0.38492 0.39627 0.86081
C29_8 C 0.37462 0.38036 0.93833
C33_8 C 0.35195 0.35568 0.49320
C34_8 C 0.36424 0.36860 0.62625
C35_8 C 0.36420 0.36652 0.82571
C56_8 C 0.44322 0.44160 0.99660
O5_8 O 0.35238 0.35947 0.31840
O8_8 O 0.33412 0.36647 0.03872
O16_6 O 0.31567 0.33784 0.25102
H36_8 H 0.32430 0.36241 0.95453
H2_7 H 0.12882 0.38580 0.52655
H3_7 H 0.13996 0.38096 0.35184
H4_7 H 0.12253 0.36427 0.47957
H5_7 H 0.13888 0.37395 0.77832
H6_7 H 0.15573 0.39117 0.65609
H7_7 H 0.16389 0.37059 0.69766
H8_7 H 0.15938 0.37036 0.45268
H9_7 H 0.13369 0.34388 0.47379
H10_7 H 0.13221 0.34556 0.72391
H11_7 H 0.15913 0.34400 0.75446
H12_7 H 0.15770 0.33931 0.50879
H13_9 H 0.13535 0.31204 0.54663
H14_9 H 0.12578 0.31722 0.72886
H20_7 H 0.11406 0.34577 0.96653
H27_9 H 0.25228 0.33703 0.16313
H28_9 H 0.23253 0.29648 0.69174
H29_9 H 0.16452 0.31535 0.61628
H34_9 H 0.28812 0.32996 0.42067
H40_7 H 0.22676 0.33614 0.77221
H41_9 H 0.17191 0.28379 0.70212
H45_9 H 0.27020 0.30176 0.52133
H46_9 H 0.25004 0.28598 0.60445
H47_9 H 0.25462 0.28765 0.35741
H48_7 H 0.22663 0.34412 0.44045
H49_9 H 0.23000 0.34197 0.19652
H50_9 H 0.21151 0.32583 0.31006
H51_9 H 0.18398 0.27054 0.53193
H52_9 H 0.20041 0.28508 0.37818
H53_9 H 0.20520 0.27724 0.58910
H54_7 H 0.21470 0.34909 0.94615
H55_7 H 0.19362 0.34267 0.87318
H62_9 H 0.15303 0.27075 0.97349
H65_9 H 0.16245 0.25437 0.78266
H66_9 H 0.17942 0.25170 0.86425
H68_9 H 0.14239 0.23089 0.98825
H69_9 H 0.15398 0.22424 0.84301
C1_7 C 0.13348 0.37712 0.48972
C2_7 C 0.14556 0.37789 0.64136
C3_7 C 0.15358 0.36713 0.59463
C4_7 C 0.14104 0.34812 0.60584
C5_7 C 0.15018 0.33818 0.63587
C6_9 C 0.13812 0.31941 0.67865
C11_9 C 0.24789 0.32809 0.27799
C12_9 C 0.23412 0.32574 0.38500
C13_9 C 0.25008 0.30696 0.46175
C14_9 C 0.23686 0.30530 0.57589
C15_9 C 0.22869 0.31443 0.53787
C16_9 C 0.25602 0.31894 0.31484
C17_9 C 0.16019 0.31214 0.75994
C18_9 C 0.14612 0.31309 0.81908
C28_9 C 0.27039 0.32198 0.19415
C29_9 C 0.28630 0.32759 0.27167
C35_9 C 0.30014 0.33101 0.15905
C40_9 C 0.21386 0.31140 0.65094
C41_9 C 0.21481 0.32462 0.75879
C42_9 C 0.20039 0.32351 0.83985
C43_9 C 0.18479 0.30868 0.81658
C44_9 C 0.18396 0.29511 0.71818
C45_9 C 0.19837 0.29622 0.63595
C46_9 C 0.16910 0.30765 0.88427
C55_9 C 0.25663 0.29498 0.48830
C56_9 C 0.22506 0.33495 0.32994
C57_9 C 0.19690 0.28148 0.52719
C58_7 C 0.20161 0.33838 0.94299
C63_9 C 0.16738 0.25085 0.90647
C64_9 C 0.15505 0.23266 0.96056
H32_9 H 0.25641 0.31690 0.93595
H33_9 H 0.28000 0.32312 0.73501
H36_9 H 0.30425 0.29522 0.28787
H70_9 H 0.29695 0.29430 0.48932
C26_9 C 0.28213 0.32430 0.88440
C27_9 C 0.26850 0.32071 0.99936
C33_9 C 0.31098 0.32960 0.82654
C34_9 C 0.29806 0.32897 0.95959
O5_9 O 0.30719 0.32624 0.65174
O8_9 O 0.30019 0.30098 0.37206
O9_3 O 0.30993 0.98918 0.62164
O11_3 O 0.33909 0.99695 0.65240
O12_3 O 0.32453 0.99425 0.98574
Mg4_3 Mg 0.32519 0.98624 0.43345
O10_6 O 0.34416 0.98742 0.28830
H31_8 H 0.42330 0.95431 0.00201
H37_8 H 0.36876 0.98683 0.12099
H38_8 H 0.37364 0.98587 0.81061
H39_8 H 0.39286 0.98226 0.61378
H44_8 H 0.37753 0.96455 0.06411
H58_8 H 0.50844 0.97184 0.00560
H59_8 H 0.49831 0.94212 0.05230
C30_8 C 0.35799 0.98832 0.38238
C31_8 C 0.35962 0.98883 0.58260
C32_8 C 0.35048 0.99418 0.71407
C36_8 C 0.36986 0.98693 0.27158
C37_8 C 0.38292 0.98544 0.35278
C38_8 C 0.38343 0.98425 0.54777
C39_8 C 0.37213 0.98610 0.66057
C49_8 C 0.39587 0.98472 0.23488
C50_8 C 0.41996 0.98153 0.01926
C51_8 C 0.42496 0.99356 0.16257
C52_8 C 0.41322 0.99568 0.26638
C54_8 C 0.39081 0.97279 0.09004
O4_8 O 0.35469 0.99649 0.88848
H1_9 H 0.32163 0.95782 0.38630
H35_9 H 0.32565 0.96255 0.59941
H38_9 H 0.27890 0.95970 0.14395
C32_9 C 0.31037 0.98286 0.04741
O1_9 O 0.31839 0.96227 0.49531
O4_9 O 0.30847 0.97865 0.22182
H15_9 H 0.17087 0.90178 0.21814
H16_9 H 0.16278 0.88705 0.02805
H17_9 H 0.15853 0.87984 0.26937
H18_7 H 0.24122 0.89757 0.17544
H19_7 H 0.22875 0.87495 0.18353
H21_9 H 0.21632 0.93557 0.19871
H22_9 H 0.23728 0.95024 0.12476
H23_9 H 0.22682 0.92943 0.02777
H24_9 H 0.25281 0.90027 0.71504
H25_9 H 0.27118 0.92067 0.71254
H26_9 H 0.25462 0.91563 0.88196
H30_7 H 0.19926 0.86294 0.01927
H31_9 H 0.19768 0.91004 0.33535
H37_9 H 0.28474 0.96458 0.45433
H39_9 H 0.25607 0.94048 0.94712
H42_9 H 0.15640 0.85370 0.27919
H43_9 H 0.22995 0.89516 0.52563
H44_9 H 0.25369 0.95581 0.39745
H56_7 H 0.13756 0.80278 0.08954
H57_9 H 0.11499 0.81623 0.15705
H58_9 H 0.13007 0.82490 0.33894
H59_9 H 0.11048 0.83503 0.38564
H60_9 H 0.12976 0.85233 0.31350
H61_9 H 0.10934 0.85507 0.14410
H63_9 H 0.09288 0.81768 0.03266
H64_9 H 0.08463 0.82628 0.19886
H67_9 H 0.06945 0.84045 0.08707
C7_9 C 0.16807 0.88910 0.17208
C8_7 C 0.22987 0.88644 0.11973
C9_9 C 0.22851 0.93681 0.15760
C10_9 C 0.25738 0.91385 0.73519
C19_9 C 0.16846 0.85924 0.00879
C20_9 C 0.21393 0.88689 0.15332
C21_9 C 0.19903 0.87355 0.08171
C22_9 C 0.18392 0.87380 0.08624
C23_9 C 0.18363 0.88753 0.17234
C24_9 C 0.19823 0.90017 0.25837
C25_9 C 0.21346 0.90015 0.24912
C30_9 C 0.29700 0.97535 0.71572
C31_9 C 0.29588 0.97372 0.91594
C36_9 C 0.28374 0.96348 0.60492
C37_9 C 0.26919 0.95042 0.68612
C38_9 C 0.26749 0.94991 0.88111
C39_9 C 0.28064 0.96121 0.99391
C47_9 C 0.13990 0.83637 0.07182
C48_9 C 0.15504 0.85011 0.13255
C49_9 C 0.25552 0.93747 0.56822
C50_9 C 0.22824 0.91338 0.35260
C51_9 C 0.23527 0.90838 0.49591
C52_9 C 0.24913 0.92012 0.59972
C53_9 C 0.23517 0.93070 0.31401
C54_9 C 0.24865 0.94253 0.42338
C59_9 C 0.12551 0.82820 0.21027
C60_9 C 0.11907 0.84022 0.26455
C61_9 C 0.11013 0.84382 0.10400
C62_9 C 0.09228 0.82910 0.06887
H2_8 H 0.46216 0.05246 0.19321
H3_8 H 0.47330 0.04762 0.01850
H4_8 H 0.45587 0.03093 0.14623
H5_8 H 0.47222 0.04061 0.44498
H6_8 H 0.48907 0.05783 0.32275
H7_8 H 0.49723 0.03725 0.36432
H8_8 H 0.49272 0.03702 0.11934
H9_8 H 0.46703 0.01054 0.14045
H10_8 H 0.46555 0.01222 0.39057
H11_8 H 0.49247 0.01066 0.42112
H12_8 H 0.49104 0.00597 0.17545
H18_8 H 0.43577 0.01032 0.84210
H19_8 H 0.45839 0.02047 0.85019
H20_8 H 0.44740 0.01243 0.63319
H30_8 H 0.47040 0.00299 0.68593
H40_8 H 0.56010 0.00280 0.43887
H48_8 H 0.55997 0.01078 0.10711
H54_8 H 0.54804 0.01575 0.61281
H55_8 H 0.52696 0.00933 0.53984
H56_8 H 0.53056 0.00145 0.75620
C1_8 C 0.46682 0.04378 0.15638
C2_8 C 0.47890 0.04455 0.30802
C3_8 C 0.48692 0.03379 0.26129
C4_8 C 0.47438 0.01478 0.27250
C5_8 C 0.48352 0.00484 0.30253
C8_8 C 0.44690 0.01010 0.78639
C58_8 C 0.53495 0.00504 0.60965
H2_9 H 0.94754 0.40969 0.19321
H3_9 H 0.95238 0.42567 0.01850
H4_9 H 0.96907 0.42493 0.14623
H5_9 H 0.95939 0.43160 0.44498
H6_9 H 0.94217 0.43123 0.32275
H7_9 H 0.96275 0.45997 0.36432
H8_9 H 0.96298 0.45569 0.11934
H9_9 H 0.98946 0.45648 0.14045
H10_9 H 0.98778 0.45332 0.39057
H11_9 H 0.98934 0.48180 0.42112
H12_9 H 0.99403 0.48506 0.17545
H18_9 H 0.98968 0.42544 0.84210
H19_9 H 0.97953 0.43791 0.85019
H20_9 H 0.98757 0.43496 0.63319
H30_9 H 0.99701 0.46740 0.68593
H40_9 H 0.99720 0.55729 0.43887
H48_9 H 0.98922 0.54918 0.10711
H54_9 H 0.98425 0.53228 0.61281
H55_9 H 0.99067 0.51762 0.53984
H56_9 H 0.99855 0.52910 0.75620
C1_9 C 0.95622 0.42303 0.15638
C2_9 C 0.95545 0.43434 0.30802
C3_9 C 0.96621 0.45312 0.26129
C4_9 C 0.98522 0.45959 0.27250
C5_9 C 0.99516 0.47867 0.30253
C8_9 C 0.98990 0.43679 0.78639
C58_9 C 0.99496 0.52990 0.60965
loop_
_geom_bond_atom_site_label_1
_geom_bond_atom_site_label_2
_geom_bond_site_symmetry_1
_geom_bond_site_symmetry_2
O9 Mg4 1_555 1_555
O11 Mg4 1_555 1_555
H37 C36 1_555 1_555
H38 C39 1_555 1_555
H39 C38 1_555 1_555
H44 C54 1_555 1_555
C30 C31 1_555 1_555
C31 C32 1_555 1_555
C32 O11 1_555 1_555
C36 C30 1_555 1_555
C37 C36 1_555 1_555
C38 C37 1_555 1_555
C39 C31 1_555 1_555
C49 C37 1_555 1_555
C51 C50 1_555 1_555
C52 C49 1_555 1_555
C54 C49 1_555 1_555
O10 C30 1_555 1_555
O4 C32 1_555 1_555
Mg4 O10 1_555 1_555
C38 C39 1_555 1_555
C51 C52 1_555 1_555
H1 O1 1_555 1_555
H35 O1 1_555 1_555
O1 Mg4 1_555 1_555
O4_2 C32_2 1_555 1_555
Mg4 O4_2 1_555 1_555
H15 C7 1_555 1_555
H16 C7 1_555 1_555
H17 C7 1_555 1_555
H18 C8 1_555 1_555
H19 C8 1_555 1_555
H21 C9 1_555 1_555
H22 C9 1_555 1_555
H23 C9 1_555 1_555
H24 C10 1_555 1_555
H25 C10 1_555 1_555
H26 C10 1_555 1_555
H30 C21 1_555 1_555
H31_2 C24 1_555 1_555
H37_2 C36_2 1_555 1_555
H39_2 C38_2 1_555 1_555
H42 C48 1_555 1_555
H43 C51_2 1_555 1_555
H44_2 C54_2 1_555 1_555
H57 C59 1_555 1_555
H58_2 C59 1_555 1_555
H59_2 C60 1_555 1_555
H60 C60 1_555 1_555
H61 C61 1_555 1_555
H63 C62 1_555 1_555
H64 C62 1_555 1_555
C7 C23 1_555 1_555
C8 C20 1_555 1_555
C9 C53 1_555 1_555
C10 C52_2 1_555 1_555
C19 C22 1_555 1_555
C20 C21 1_555 1_555
C21 C22 1_555 1_555
C22 C23 1_555 1_555
C23 C24 1_555 1_555
C24 C25 1_555 1_555
C25 C20 1_555 1_555
C30_2 C31_2 1_555 1_555
C36_2 C30_2 1_555 1_555
C37_2 C36_2 1_555 1_555
C38_2 C37_2 1_555 1_555
C39_2 C31_2 1_555 1_555
C48 C19 1_555 1_555
C49_2 C37_2 1_555 1_555
C50_2 C25 1_555 1_555
C51_2 C50_2 1_555 1_555
C52_2 C49_2 1_555 1_555
C53 C50_2 1_555 1_555
C54_2 C49_2 1_555 1_555
C59 C47 1_555 1_555
C60 C59 1_555 1_555
C61 C60 1_555 1_555
C62 C61 1_555 1_555
O9 C30_2 1_555 1_555
C38_2 C39_2 1_555 1_555
C47 C48 1_555 1_555
C51_2 C52_2 1_555 1_555
C53 C54_2 1_555 1_555
H1_2 O1_2 1_555 1_555
H24_2 C10_2 1_555 1_555
H25_2 C10_2 1_555 1_555
H26_2 C10_2 1_555 1_555
H35_2 O1_2 1_555 1_555
H38_3 C39_3 1_555 1_555
H39_3 C38_3 1_555 1_555
C30_3 C31_3 1_555 1_555
C31_3 C32_3 1_555 1_555
C32_3 O3 1_555 1_555
C38_3 C37_3 1_555 1_555
C39_3 C31_3 1_555 1_555
O1_2 Mg1 1_555 1_555
O3 Mg3 1_555 1_555
O4_3 C32_3 1_555 1_555
Mg1 O4_3 1_555 1_555
O10_2 Mg1 1_555 1_555
C38_3 C39_3 1_555 1_555
H14 C6 1_555 1_555
H15_2 C7_2 1_555 1_555
H16_2 C7_2 1_555 1_555
H17_2 C7_2 1_555 1_555
H18_2 C8_2 1_555 1_555
H19_2 C8_2 1_555 1_555
H20 C8_2 1_555 1_555
H21_2 C9_2 1_555 1_555
H22_2 C9_2 1_555 1_555
H23_2 C9_2 1_555 1_555
H30_2 C21_2 1_555 1_555
H31_3 C24_2 1_555 1_555
H37_3 C36_3 1_555 1_555
H40 C41 1_555 1_555
H41 C44 1_555 1_555
H42_2 C48_2 1_555 1_555
H43_2 C51_3 1_555 1_555
H44_3 C54_3 1_555 1_555
H54 C58 1_555 1_555
H55 C58 1_555 1_555
H56_2 C58 1_555 1_555
H57_2 C59_2 1_555 1_555
H58_3 C59_2 1_555 1_555
H59_3 C60_2 1_555 1_555
H60_2 C60_2 1_555 1_555
H61_2 C61_2 1_555 1_555
H62 C61_2 1_555 1_555
H63_2 C62_2 1_555 1_555
H64_2 C62_2 1_555 1_555
H65 C63 1_555 1_555
H66 C63 1_555 1_555
H67_2 C64 1_555 1_555
H68 C64 1_555 1_555
H69 C64 1_555 1_555
C6 C18 1_555 1_555
C7_2 C23_2 1_555 1_555
C8_2 C20_2 1_555 1_555
C9_2 C53_2 1_555 1_555
C17 C18 1_555 1_555
C18 C19_2 1_555 1_555
C19_2 C22_2 1_555 1_555
C20_2 C21_2 1_555 1_555
C21_2 C22_2 1_555 1_555
C22_2 C23_2 1_555 1_555
C23_2 C24_2 1_555 1_555
C24_2 C25_2 1_555 1_555
C25_2 C20_2 1_555 1_555
C41 C42 1_555 1_555
C42 C43 1_555 1_555
C43 C44 1_555 1_555
C46 C17 1_555 1_555
C47_2 C46 1_555 1_555
C48_2 C19_2 1_555 1_555
C50_3 C25_2 1_555 1_555
C51_3 C50_3 1_555 1_555
C52_3 C49_3 1_555 1_555
C53_2 C50_3 1_555 1_555
C54_3 C49_3 1_555 1_555
C58 C42 1_555 1_555
C59_2 C47_2 1_555 1_555
C60_2 C59_2 1_555 1_555
C61_2 C60_2 1_555 1_555
C62_2 C61_2 1_555 1_555
C63 C62_2 1_555 1_555
C64 C63 1_555 1_555
C43 C46 1_555 1_555
C47_2 C48_2 1_555 1_555
C51_3 C52_3 1_555 1_555
C53_2 C54_3 1_555 1_555
H1_3 O1_3 1_555 1_555
H35_3 O1_3 1_555 1_555
O1_3 Mg3 1_555 1_555
H24_3 C10_3 1_555 1_555
H25_3 C10_3 1_555 1_555
H26_3 C10_3 1_555 1_555
H2 C1 1_555 1_555
H3 C1 1_555 1_555
H4 C1 1_555 1_555
H6 C2 1_555 1_555
H8 C3 1_555 1_555
H9 C4 1_555 1_555
H12 C5 1_555 1_555
H27 C11 1_555 1_555
H32 C27 1_555 1_555
H33 C26 1_555 1_555
H34 C29 1_555 1_555
H45 C55 1_555 1_555
H46 C55 1_555 1_555
H47 C55 1_555 1_555
H48 C56 1_555 1_555
H49 C56 1_555 1_555
H50 C56 1_555 1_555
H51 C57 1_555 1_555
H52 C57 1_555 1_555
H53 C57 1_555 1_555
C1 C2 1_555 1_555
C2 C3 1_555 1_555
C3 C4 1_555 1_555
C4 C5 1_555 1_555
C11 C12 1_555 1_555
C12 C15 1_555 1_555
C13 C14 1_555 1_555
C14 C15 1_555 1_555
C15 C40 1_555 1_555
C16 C11 1_555 1_555
C26 C27 1_555 1_555
C27 C28 1_555 1_555
C28 C16 1_555 1_555
C29 C28 1_555 1_555
C33 C34 1_555 1_555
C34 C26 1_555 1_555
C35 C29 1_555 1_555
C45 C40 1_555 1_555
C55 C13 1_555 1_555
C56 C12 1_555 1_555
C57 C45 1_555 1_555
O6 C33 1_555 1_555
O7 C35 1_555 1_555
Mg8 O7 1_555 1_555
C13 C16 1_555 1_555
C34 C35 1_555 1_555
H36 O8 1_555 1_555
H70 O8 1_555 1_555
O8 Mg8 1_555 1_555
Mg8 O5 1_555 1_555
O16 Mg8 1_555 1_555
H49_2 C56_2 1_555 1_555
H13_2 C6_2 1_555 1_555
H14_2 C6_2 1_555 1_555
H15_3 C7_3 1_555 1_555
H16_3 C7_3 1_555 1_555
H17_3 C7_3 1_555 1_555
H21_3 C9_3 1_555 1_555
H22_3 C9_3 1_555 1_555
H23_3 C9_3 1_555 1_555
H28_2 C14_2 1_555 1_555
H29_2 C17_2 1_555 1_555
H41_2 C44_2 1_555 1_555
H42_3 C48_3 1_555 1_555
H45_2 C55_2 1_555 1_555
H46_2 C55_2 1_555 1_555
H47_2 C55_2 1_555 1_555
H51_2 C57_2 1_555 1_555
H52_2 C57_2 1_555 1_555
H53_2 C57_2 1_555 1_555
H57_3 C59_3 1_555 1_555
H60_3 C60_3 1_555 1_555
H61_3 C61_3 1_555 1_555
H62_2 C61_3 1_555 1_555
H63_3 C62_3 1_555 1_555
H64_3 C62_3 1_555 1_555
H65_2 C63_2 1_555 1_555
H66_2 C63_2 1_555 1_555
H67_3 C64_2 1_555 1_555
H68_2 C64_2 1_555 1_555
H69_2 C64_2 1_555 1_555
C6_2 C18_2 1_555 1_555
C7_3 C23_3 1_555 1_555
C9_3 C53_3 1_555 1_555
C12_2 C15_2 1_555 1_555
C13_2 C14_2 1_555 1_555
C14_2 C15_2 1_555 1_555
C15_2 C40_2 1_555 1_555
C17_2 C18_2 1_555 1_555
C18_2 C19_3 1_555 1_555
C19_3 C22_3 1_555 1_555
C20_3 C21_3 1_555 1_555
C21_3 C22_3 1_555 1_555
C22_3 C23_3 1_555 1_555
C23_3 C24_3 1_555 1_555
C24_3 C25_3 1_555 1_555
C25_3 C20_3 1_555 1_555
C40_2 C41_2 1_555 1_555
C41_2 C42_2 1_555 1_555
C42_2 C43_2 1_555 1_555
C43_2 C44_2 1_555 1_555
C44_2 C45_2 1_555 1_555
C45_2 C40_2 1_555 1_555
C46_2 C17_2 1_555 1_555
C47_3 C46_2 1_555 1_555
C48_3 C19_3 1_555 1_555
C55_2 C13_2 1_555 1_555
C57_2 C45_2 1_555 1_555
C59_3 C47_3 1_555 1_555
C60_3 C59_3 1_555 1_555
C61_3 C60_3 1_555 1_555
C62_3 C61_3 1_555 1_555
C63_2 C62_3 1_555 1_555
C64_2 C63_2 1_555 1_555
C43_2 C46_2 1_555 1_555
C47_3 C48_3 1_555 1_555
H32_2 C27_2 1_555 1_555
H33_2 C26_2 1_555 1_555
H70_3 O8_2 1_555 1_555
C16_2 C11_2 1_555 1_555
C26_2 C27_2 1_555 1_555
C27_2 C28_2 1_555 1_555
C28_2 C16_2 1_555 1_555
C29_2 C28_2 1_555 1_555
C33_2 C34_2 1_555 1_555
C34_2 C26_2 1_555 1_555
C35_2 C29_2 1_555 1_555
O5_2 C33_2 1_555 1_555
O14 C33_2 1_555 1_555
O8_2 Mg6 1_555 1_555
Mg6 O5_2 1_555 1_555
O16_2 Mg6 1_555 1_555
Mg7 O14 1_555 1_555
C34_2 C35_2 1_555 1_555
O16_2 Mg7 1_555 1_555
H2_2 C1_2 1_555 1_555
H3_2 C1_2 1_555 1_555
H4_2 C1_2 1_555 1_555
H5_2 C2_2 1_555 1_555
H6_2 C2_2 1_555 1_555
H7_2 C3_2 1_555 1_555
H8_2 C3_2 1_555 1_555
H9_2 C4_2 1_555 1_555
H10_2 C4_2 1_555 1_555
H11_2 C5_2 1_555 1_555
H12_2 C5_2 1_555 1_555
H13_3 C6_3 1_555 1_555
H14_3 C6_3 1_555 1_555
H27_3 C11_3 1_555 1_555
H28_3 C14_3 1_555 1_555
H29_3 C17_3 1_555 1_555
H34_3 C29_3 1_555 1_555
H40_2 C41_3 1_555 1_555
H41_3 C44_3 1_555 1_555
H45_3 C55_3 1_555 1_555
H46_3 C55_3 1_555 1_555
H47_3 C55_3 1_555 1_555
H48_2 C56_3 1_555 1_555
H49_3 C56_3 1_555 1_555
H50_3 C56_3 1_555 1_555
H51_3 C57_3 1_555 1_555
H52_3 C57_3 1_555 1_555
H53_3 C57_3 1_555 1_555
H54_2 C58_2 1_555 1_555
H55_2 C58_2 1_555 1_555
H65_3 C63_3 1_555 1_555
H66_3 C63_3 1_555 1_555
H68_3 C64_3 1_555 1_555
H69_3 C64_3 1_555 1_555
C1_2 C2_2 1_555 1_555
C2_2 C3_2 1_555 1_555
C3_2 C4_2 1_555 1_555
C4_2 C5_2 1_555 1_555
C5_2 C6_3 1_555 1_555
C6_3 C18_3 1_555 1_555
C11_3 C12_3 1_555 1_555
C12_3 C15_3 1_555 1_555
C13_3 C14_3 1_555 1_555
C14_3 C15_3 1_555 1_555
C15_3 C40_3 1_555 1_555
C16_3 C11_3 1_555 1_555
C17_3 C18_3 1_555 1_555
C28_3 C16_3 1_555 1_555
C29_3 C28_3 1_555 1_555
C35_3 C29_3 1_555 1_555
C40_3 C41_3 1_555 1_555
C41_3 C42_3 1_555 1_555
C42_3 C43_3 1_555 1_555
C43_3 C44_3 1_555 1_555
C44_3 C45_3 1_555 1_555
C45_3 C40_3 1_555 1_555
C46_3 C17_3 1_555 1_555
C55_3 C13_3 1_555 1_555
C56_3 C12_3 1_555 1_555
C57_3 C45_3 1_555 1_555
C58_2 C42_3 1_555 1_555
C64_3 C63_3 1_555 1_555
O16_2 C35_3 1_555 1_555
C13_3 C16_3 1_555 1_555
C43_3 C46_3 1_555 1_555
H32_3 C27_3 1_555 1_555
H33_3 C26_3 1_555 1_555
C26_3 C27_3 1_555 1_555
C33_3 C34_3 1_555 1_555
C34_3 C26_3 1_555 1_555
O5_3 C33_3 1_555 1_555
O13 C33_3 1_555 1_555
O8_3 Mg7 1_555 1_555
Mg7 O5_3 1_555 1_555
H13_4 C6_4 1_555 1_555
H14_4 C6_4 1_555 1_555
H15_4 C7_4 1_555 1_555
H16_4 C7_4 1_555 1_555
H17_4 C7_4 1_555 1_555
H21_4 C9_4 1_555 1_555
H22_4 C9_4 1_555 1_555
H23_4 C9_4 1_555 1_555
H28_4 C14_4 1_555 1_555
H29_4 C17_4 1_555 1_555
H41_4 C44_4 1_555 1_555
H42_4 C48_4 1_555 1_555
H45_4 C55_4 1_555 1_555
H46_4 C55_4 1_555 1_555
H47_4 C55_4 1_555 1_555
H51_4 C57_4 1_555 1_555
H52_4 C57_4 1_555 1_555
H53_4 C57_4 1_555 1_555
H57_4 C59_4 1_555 1_555
H60_4 C60_4 1_555 1_555
H61_4 C61_4 1_555 1_555
H62_4 C61_4 1_555 1_555
H63_4 C62_4 1_555 1_555
H64_4 C62_4 1_555 1_555
H65_4 C63_4 1_555 1_555
H66_4 C63_4 1_555 1_555
H67_4 C64_4 1_555 1_555
H68_4 C64_4 1_555 1_555
H69_4 C64_4 1_555 1_555
C6_4 C18_4 1_555 1_555
C7_4 C23_4 1_555 1_555
C9_4 C53_4 1_555 1_555
C12_4 C15_4 1_555 1_555
C13_4 C14_4 1_555 1_555
C14_4 C15_4 1_555 1_555
C15_4 C40_4 1_555 1_555
C17_4 C18_4 1_555 1_555
C18_4 C19_4 1_555 1_555
C19_4 C22_4 1_555 1_555
C20_4 C21_4 1_555 1_555
C21_4 C22_4 1_555 1_555
C22_4 C23_4 1_555 1_555
C23_4 C24_4 1_555 1_555
C24_4 C25_4 1_555 1_555
C25_4 C20_4 1_555 1_555
C40_4 C41_4 1_555 1_555
C41_4 C42_4 1_555 1_555
C42_4 C43_4 1_555 1_555
C43_4 C44_4 1_555 1_555
C44_4 C45_4 1_555 1_555
C45_4 C40_4 1_555 1_555
C46_4 C17_4 1_555 1_555
C47_4 C46_4 1_555 1_555
C48_4 C19_4 1_555 1_555
C55_4 C13_4 1_555 1_555
C57_4 C45_4 1_555 1_555
C59_4 C47_4 1_555 1_555
C60_4 C59_4 1_555 1_555
C61_4 C60_4 1_555 1_555
C62_4 C61_4 1_555 1_555
C63_4 C62_4 1_555 1_555
C64_4 C63_4 1_555 1_555
C43_4 C46_4 1_555 1_555
C47_4 C48_4 1_555 1_555
H32_4 C27_4 1_555 1_555
H33_4 C26_4 1_555 1_555
H70_4 O8_4 1_555 1_555
C16_4 C11_4 1_555 1_555
C26_4 C27_4 1_555 1_555
C27_4 C28_4 1_555 1_555
C28_4 C16_4 1_555 1_555
C29_4 C28_4 1_555 1_555
C33_4 C34_4 1_555 1_555
C34_4 C26_4 1_555 1_555
C35_4 C29_4 1_555 1_555
O5_4 C33_4 1_555 1_555
O14_2 C33_4 1_555 1_555
O8_4 Mg6_2 1_555 1_555
Mg6_2 O5_4 1_555 1_555
O16_3 Mg6_2 1_555 1_555
Mg7_2 O14_2 1_555 1_555
C34_4 C35_4 1_555 1_555
O16_3 Mg7_2 1_555 1_555
H2_3 C1_3 1_555 1_555
H3_3 C1_3 1_555 1_555
H4_3 C1_3 1_555 1_555
H5_3 C2_3 1_555 1_555
H6_3 C2_3 1_555 1_555
H7_3 C3_3 1_555 1_555
H8_3 C3_3 1_555 1_555
H9_3 C4_3 1_555 1_555
H10_3 C4_3 1_555 1_555
H11_3 C5_3 1_555 1_555
H12_3 C5_3 1_555 1_555
H13_5 C6_5 1_555 1_555
H14_5 C6_5 1_555 1_555
H27_4 C11_5 1_555 1_555
H28_5 C14_5 1_555 1_555
H29_5 C17_5 1_555 1_555
H34_5 C29_5 1_555 1_555
H40_3 C41_5 1_555 1_555
H41_5 C44_5 1_555 1_555
H45_5 C55_5 1_555 1_555
H46_5 C55_5 1_555 1_555
H47_5 C55_5 1_555 1_555
H48_3 C56_4 1_555 1_555
H49_4 C56_4 1_555 1_555
H50_5 C56_4 1_555 1_555
H51_5 C57_5 1_555 1_555
H52_5 C57_5 1_555 1_555
H53_5 C57_5 1_555 1_555
H54_3 C58_3 1_555 1_555
H55_3 C58_3 1_555 1_555
H65_5 C63_5 1_555 1_555
H66_5 C63_5 1_555 1_555
H68_5 C64_5 1_555 1_555
H69_5 C64_5 1_555 1_555
C1_3 C2_3 1_555 1_555
C2_3 C3_3 1_555 1_555
C3_3 C4_3 1_555 1_555
C4_3 C5_3 1_555 1_555
C5_3 C6_5 1_555 1_555
C6_5 C18_5 1_555 1_555
C11_5 C12_5 1_555 1_555
C12_5 C15_5 1_555 1_555
C13_5 C14_5 1_555 1_555
C14_5 C15_5 1_555 1_555
C15_5 C40_5 1_555 1_555
C16_5 C11_5 1_555 1_555
C17_5 C18_5 1_555 1_555
C28_5 C16_5 1_555 1_555
C29_5 C28_5 1_555 1_555
C35_5 C29_5 1_555 1_555
C40_5 C41_5 1_555 1_555
C41_5 C42_5 1_555 1_555
C42_5 C43_5 1_555 1_555
C43_5 C44_5 1_555 1_555
C44_5 C45_5 1_555 1_555
C45_5 C40_5 1_555 1_555
C46_5 C17_5 1_555 1_555
C55_5 C13_5 1_555 1_555
C56_4 C12_5 1_555 1_555
C57_5 C45_5 1_555 1_555
C58_3 C42_5 1_555 1_555
C64_5 C63_5 1_555 1_555
O16_3 C35_5 1_555 1_555
C13_5 C16_5 1_555 1_555
C43_5 C46_5 1_555 1_555
H32_5 C27_5 1_555 1_555
H33_5 C26_5 1_555 1_555
C26_5 C27_5 1_555 1_555
C33_5 C34_5 1_555 1_555
C34_5 C26_5 1_555 1_555
O5_5 C33_5 1_555 1_555
O13_2 C33_5 1_555 1_555
O8_5 Mg7_2 1_555 1_555
Mg7_2 O5_5 1_555 1_555
H1_4 O1_4 1_555 1_555
H24_4 C10_4 1_555 1_555
H25_4 C10_4 1_555 1_555
H26_4 C10_4 1_555 1_555
H35_4 O1_4 1_555 1_555
H38_4 C39_4 1_555 1_555
H39_4 C38_4 1_555 1_555
C30_4 C31_4 1_555 1_555
C31_4 C32_4 1_555 1_555
C32_4 O3_2 1_555 1_555
C38_4 C37_4 1_555 1_555
C39_4 C31_4 1_555 1_555
O1_4 Mg1_2 1_555 1_555
O3_2 Mg3_2 1_555 1_555
O4_4 C32_4 1_555 1_555
Mg1_2 O4_4 1_555 1_555
O9_2 Mg1_2 1_555 1_555
O10_3 Mg1_2 1_555 1_555
O11_2 Mg1_2 1_555 1_555
O12_2 Mg1_2 1_555 1_555
Mg4_2 O3_2 1_555 1_555
C38_4 C39_4 1_555 1_555
O9_2 Mg4_2 1_555 1_555
O11_2 Mg4_2 1_555 1_555
H14_6 C6_6 1_555 1_555
H15_5 C7_5 1_555 1_555
H16_5 C7_5 1_555 1_555
H17_5 C7_5 1_555 1_555
H18_3 C8_3 1_555 1_555
H19_3 C8_3 1_555 1_555
H20_4 C8_3 1_555 1_555
H21_5 C9_5 1_555 1_555
H22_5 C9_5 1_555 1_555
H23_5 C9_5 1_555 1_555
H30_3 C21_5 1_555 1_555
H31_4 C24_5 1_555 1_555
H37_4 C36_4 1_555 1_555
H40_4 C41_6 1_555 1_555
H41_6 C44_6 1_555 1_555
H42_5 C48_5 1_555 1_555
H43_4 C51_4 1_555 1_555
H44_4 C54_4 1_555 1_555
H54_4 C58_4 1_555 1_555
H55_4 C58_4 1_555 1_555
H56_3 C58_4 1_555 1_555
H57_5 C59_5 1_555 1_555
H58_4 C59_5 1_555 1_555
H59_4 C60_5 1_555 1_555
H60_5 C60_5 1_555 1_555
H61_5 C61_5 1_555 1_555
H62_6 C61_5 1_555 1_555
H63_5 C62_5 1_555 1_555
H64_5 C62_5 1_555 1_555
H65_6 C63_6 1_555 1_555
H66_6 C63_6 1_555 1_555
H67_5 C64_6 1_555 1_555
H68_6 C64_6 1_555 1_555
H69_6 C64_6 1_555 1_555
C6_6 C18_6 1_555 1_555
C7_5 C23_5 1_555 1_555
C8_3 C20_5 1_555 1_555
C9_5 C53_5 1_555 1_555
C17_6 C18_6 1_555 1_555
C18_6 C19_5 1_555 1_555
C19_5 C22_5 1_555 1_555
C20_5 C21_5 1_555 1_555
C21_5 C22_5 1_555 1_555
C22_5 C23_5 1_555 1_555
C23_5 C24_5 1_555 1_555
C24_5 C25_5 1_555 1_555
C25_5 C20_5 1_555 1_555
C41_6 C42_6 1_555 1_555
C42_6 C43_6 1_555 1_555
C43_6 C44_6 1_555 1_555
C46_6 C17_6 1_555 1_555
C47_5 C46_6 1_555 1_555
C48_5 C19_5 1_555 1_555
C50_4 C25_5 1_555 1_555
C51_4 C50_4 1_555 1_555
C52_4 C49_4 1_555 1_555
C53_5 C50_4 1_555 1_555
C54_4 C49_4 1_555 1_555
C58_4 C42_6 1_555 1_555
C59_5 C47_5 1_555 1_555
C60_5 C59_5 1_555 1_555
C61_5 C60_5 1_555 1_555
C62_5 C61_5 1_555 1_555
C63_6 C62_5 1_555 1_555
C64_6 C63_6 1_555 1_555
C43_6 C46_6 1_555 1_555
C47_5 C48_5 1_555 1_555
C51_4 C52_4 1_555 1_555
C53_5 C54_4 1_555 1_555
H1_5 O1_5 1_555 1_555
H35_5 O1_5 1_555 1_555
O1_5 Mg3_2 1_555 1_555
O10_4 Mg3_2 1_555 1_555
H24_5 C10_5 1_555 1_555
H25_5 C10_5 1_555 1_555
H26_5 C10_5 1_555 1_555
H37_5 C36_5 1_555 1_555
H38_5 C39_5 1_555 1_555
H39_5 C38_5 1_555 1_555
H43_5 C51_5 1_555 1_555
H44_5 C54_5 1_555 1_555
C10_5 C52_5 1_555 1_555
C30_5 C31_5 1_555 1_555
C31_5 C32_5 1_555 1_555
C32_5 O11_2 1_555 1_555
C36_5 C30_5 1_555 1_555
C37_5 C36_5 1_555 1_555
C38_5 C37_5 1_555 1_555
C39_5 C31_5 1_555 1_555
C49_5 C37_5 1_555 1_555
C51_5 C50_5 1_555 1_555
C52_5 C49_5 1_555 1_555
C54_5 C49_5 1_555 1_555
O10_4 C30_5 1_555 1_555
O4_5 C32_5 1_555 1_555
Mg4_2 O10_4 1_555 1_555
C38_5 C39_5 1_555 1_555
C51_5 C52_5 1_555 1_555
H1_6 O1_6 1_555 1_555
H35_6 O1_6 1_555 1_555
O1_6 Mg4_2 1_555 1_555
O4_6 C32_6 1_555 1_555
Mg4_2 O4_6 1_555 1_555
H15_6 C7_6 1_555 1_555
H16_6 C7_6 1_555 1_555
H17_6 C7_6 1_555 1_555
H18_4 C8_4 1_555 1_555
H19_4 C8_4 1_555 1_555
H21_6 C9_6 1_555 1_555
H22_6 C9_6 1_555 1_555
H23_6 C9_6 1_555 1_555
H24_6 C10_6 1_555 1_555
H25_6 C10_6 1_555 1_555
H26_6 C10_6 1_555 1_555
H30_4 C21_6 1_555 1_555
H31_6 C24_6 1_555 1_555
H37_6 C36_6 1_555 1_555
H39_6 C38_6 1_555 1_555
H42_6 C48_6 1_555 1_555
H43_6 C51_6 1_555 1_555
H44_6 C54_6 1_555 1_555
H57_6 C59_6 1_555 1_555
H58_6 C59_6 1_555 1_555
H59_6 C60_6 1_555 1_555
H60_6 C60_6 1_555 1_555
H61_6 C61_6 1_555 1_555
H63_6 C62_6 1_555 1_555
H64_6 C62_6 1_555 1_555
C7_6 C23_6 1_555 1_555
C8_4 C20_6 1_555 1_555
C9_6 C53_6 1_555 1_555
C10_6 C52_6 1_555 1_555
C19_6 C22_6 1_555 1_555
C20_6 C21_6 1_555 1_555
C21_6 C22_6 1_555 1_555
C22_6 C23_6 1_555 1_555
C23_6 C24_6 1_555 1_555
C24_6 C25_6 1_555 1_555
C25_6 C20_6 1_555 1_555
C30_6 C31_6 1_555 1_555
C36_6 C30_6 1_555 1_555
C37_6 C36_6 1_555 1_555
C38_6 C37_6 1_555 1_555
C39_6 C31_6 1_555 1_555
C48_6 C19_6 1_555 1_555
C49_6 C37_6 1_555 1_555
C50_6 C25_6 1_555 1_555
C51_6 C50_6 1_555 1_555
C52_6 C49_6 1_555 1_555
C53_6 C50_6 1_555 1_555
C54_6 C49_6 1_555 1_555
C59_6 C47_6 1_555 1_555
C60_6 C59_6 1_555 1_555
C61_6 C60_6 1_555 1_555
C62_6 C61_6 1_555 1_555
O9_2 C30_6 1_555 1_555
C38_6 C39_6 1_555 1_555
C47_6 C48_6 1_555 1_555
C51_6 C52_6 1_555 1_555
C53_6 C54_6 1_555 1_555
H2_4 C1_4 1_555 1_555
H3_4 C1_4 1_555 1_555
H4_4 C1_4 1_555 1_555
H6_4 C2_4 1_555 1_555
H8_4 C3_4 1_555 1_555
H9_4 C4_4 1_555 1_555
H12_4 C5_4 1_555 1_555
H27_5 C11_6 1_555 1_555
H32_6 C27_6 1_555 1_555
H33_6 C26_6 1_555 1_555
H34_6 C29_6 1_555 1_555
H45_6 C55_6 1_555 1_555
H46_6 C55_6 1_555 1_555
H47_6 C55_6 1_555 1_555
H48_4 C56_5 1_555 1_555
H49_5 C56_5 1_555 1_555
H50_6 C56_5 1_555 1_555
H51_6 C57_6 1_555 1_555
H52_6 C57_6 1_555 1_555
H53_6 C57_6 1_555 1_555
C1_4 C2_4 1_555 1_555
C2_4 C3_4 1_555 1_555
C3_4 C4_4 1_555 1_555
C4_4 C5_4 1_555 1_555
C11_6 C12_6 1_555 1_555
C12_6 C15_6 1_555 1_555
C13_6 C14_6 1_555 1_555
C14_6 C15_6 1_555 1_555
C15_6 C40_6 1_555 1_555
C16_6 C11_6 1_555 1_555
C26_6 C27_6 1_555 1_555
C27_6 C28_6 1_555 1_555
C28_6 C16_6 1_555 1_555
C29_6 C28_6 1_555 1_555
C33_6 C34_6 1_555 1_555
C34_6 C26_6 1_555 1_555
C35_6 C29_6 1_555 1_555
C45_6 C40_6 1_555 1_555
C55_6 C13_6 1_555 1_555
C56_5 C12_6 1_555 1_555
C57_6 C45_6 1_555 1_555
O6_2 C33_6 1_555 1_555
O7_2 C35_6 1_555 1_555
Mg8_2 O7_2 1_555 1_555
C13_6 C16_6 1_555 1_555
C34_6 C35_6 1_555 1_555
H36_5 O8_6 1_555 1_555
H70_5 O8_6 1_555 1_555
O8_6 Mg8_2 1_555 1_555
Mg8_2 O5_6 1_555 1_555
O16_4 Mg8_2 1_555 1_555
H49_6 C56_6 1_555 1_555
H1_7 O1_7 1_555 1_555
H24_7 C10_7 1_555 1_555
H25_7 C10_7 1_555 1_555
H26_7 C10_7 1_555 1_555
H35_7 O1_7 1_555 1_555
H38_7 C39_7 1_555 1_555
H39_7 C38_7 1_555 1_555
C30_7 C31_7 1_555 1_555
C31_7 C32_7 1_555 1_555
C32_7 O3_3 1_555 1_555
C38_7 C37_7 1_555 1_555
C39_7 C31_7 1_555 1_555
O1_7 Mg1_3 1_555 1_555
O3_3 Mg3_3 1_555 1_555
O4_7 C32_7 1_555 1_555
Mg1_3 O4_7 1_555 1_555
O10_5 Mg1_3 1_555 1_555
C38_7 C39_7 1_555 1_555
H14_7 C6_7 1_555 1_555
H15_7 C7_7 1_555 1_555
H16_7 C7_7 1_555 1_555
H17_7 C7_7 1_555 1_555
H18_5 C8_5 1_555 1_555
H19_5 C8_5 1_555 1_555
H20_5 C8_5 1_555 1_555
H21_7 C9_7 1_555 1_555
H22_7 C9_7 1_555 1_555
H23_7 C9_7 1_555 1_555
H30_5 C21_7 1_555 1_555
H31_7 C24_7 1_555 1_555
H37_7 C36_7 1_555 1_555
H40_5 C41_7 1_555 1_555
H41_7 C44_7 1_555 1_555
H42_7 C48_7 1_555 1_555
H43_7 C51_7 1_555 1_555
H44_7 C54_7 1_555 1_555
H54_5 C58_5 1_555 1_555
H55_5 C58_5 1_555 1_555
H56_5 C58_5 1_555 1_555
H57_7 C59_7 1_555 1_555
H58_7 C59_7 1_555 1_555
H59_7 C60_7 1_555 1_555
H60_7 C60_7 1_555 1_555
H61_7 C61_7 1_555 1_555
H62_7 C61_7 1_555 1_555
H63_7 C62_7 1_555 1_555
H64_7 C62_7 1_555 1_555
H65_7 C63_7 1_555 1_555
H66_7 C63_7 1_555 1_555
H67_7 C64_7 1_555 1_555
H68_7 C64_7 1_555 1_555
H69_7 C64_7 1_555 1_555
C6_7 C18_7 1_555 1_555
C7_7 C23_7 1_555 1_555
C8_5 C20_7 1_555 1_555
C9_7 C53_7 1_555 1_555
C17_7 C18_7 1_555 1_555
C18_7 C19_7 1_555 1_555
C19_7 C22_7 1_555 1_555
C20_7 C21_7 1_555 1_555
C21_7 C22_7 1_555 1_555
C22_7 C23_7 1_555 1_555
C23_7 C24_7 1_555 1_555
C24_7 C25_7 1_555 1_555
C25_7 C20_7 1_555 1_555
C41_7 C42_7 1_555 1_555
C42_7 C43_7 1_555 1_555
C43_7 C44_7 1_555 1_555
C46_7 C17_7 1_555 1_555
C47_7 C46_7 1_555 1_555
C48_7 C19_7 1_555 1_555
C50_7 C25_7 1_555 1_555
C51_7 C50_7 1_555 1_555
C52_7 C49_7 1_555 1_555
C53_7 C50_7 1_555 1_555
C54_7 C49_7 1_555 1_555
C58_5 C42_7 1_555 1_555
C59_7 C47_7 1_555 1_555
C60_7 C59_7 1_555 1_555
C61_7 C60_7 1_555 1_555
C62_7 C61_7 1_555 1_555
C63_7 C62_7 1_555 1_555
C64_7 C63_7 1_555 1_555
C43_7 C46_7 1_555 1_555
C47_7 C48_7 1_555 1_555
C51_7 C52_7 1_555 1_555
C53_7 C54_7 1_555 1_555
H1_8 O1_8 1_555 1_555
H35_8 O1_8 1_555 1_555
O1_8 Mg3_3 1_555 1_555
H24_8 C10_8 1_555 1_555
H25_8 C10_8 1_555 1_555
H26_8 C10_8 1_555 1_555
H2_5 C1_5 1_555 1_555
H3_5 C1_5 1_555 1_555
H4_5 C1_5 1_555 1_555
H6_5 C2_5 1_555 1_555
H8_5 C3_5 1_555 1_555
H9_5 C4_5 1_555 1_555
H12_5 C5_5 1_555 1_555
H27_7 C11_7 1_555 1_555
H32_7 C27_7 1_555 1_555
H33_7 C26_7 1_555 1_555
H34_7 C29_7 1_555 1_555
H45_7 C55_7 1_555 1_555
H46_7 C55_7 1_555 1_555
H47_7 C55_7 1_555 1_555
H48_5 C56_7 1_555 1_555
H49_7 C56_7 1_555 1_555
H50_7 C56_7 1_555 1_555
H51_7 C57_7 1_555 1_555
H52_7 C57_7 1_555 1_555
H53_7 C57_7 1_555 1_555
C1_5 C2_5 1_555 1_555
C2_5 C3_5 1_555 1_555
C3_5 C4_5 1_555 1_555
C4_5 C5_5 1_555 1_555
C11_7 C12_7 1_555 1_555
C12_7 C15_7 1_555 1_555
C13_7 C14_7 1_555 1_555
C14_7 C15_7 1_555 1_555
C15_7 C40_7 1_555 1_555
C16_7 C11_7 1_555 1_555
C26_7 C27_7 1_555 1_555
C27_7 C28_7 1_555 1_555
C28_7 C16_7 1_555 1_555
C29_7 C28_7 1_555 1_555
C33_7 C34_7 1_555 1_555
C34_7 C26_7 1_555 1_555
C35_7 C29_7 1_555 1_555
C45_7 C40_7 1_555 1_555
C55_7 C13_7 1_555 1_555
C56_7 C12_7 1_555 1_555
C57_7 C45_7 1_555 1_555
O6_3 C33_7 1_555 1_555
O7_3 C35_7 1_555 1_555
Mg6_3 O6_3 1_555 1_555
Mg7_3 O6_3 1_555 1_555
Mg8_3 O7_3 1_555 1_555
C13_7 C16_7 1_555 1_555
C34_7 C35_7 1_555 1_555
O7_3 Mg7_3 1_555 1_555
H36_7 O8_7 1_555 1_555
H70_7 O8_7 1_555 1_555
O8_7 Mg8_3 1_555 1_555
Mg8_3 O5_7 1_555 1_555
O13_3 Mg8_3 1_555 1_555
O14_3 Mg8_3 1_555 1_555
O16_5 Mg8_3 1_555 1_555
H2_6 C1_6 1_555 1_555
H3_6 C1_6 1_555 1_555
H4_6 C1_6 1_555 1_555
H5_6 C2_6 1_555 1_555
H6_6 C2_6 1_555 1_555
H7_6 C3_6 1_555 1_555
H8_6 C3_6 1_555 1_555
H9_6 C4_6 1_555 1_555
H10_6 C4_6 1_555 1_555
H11_6 C5_6 1_555 1_555
H12_6 C5_6 1_555 1_555
H13_8 C6_8 1_555 1_555
H14_8 C6_8 1_555 1_555
H15_8 C7_8 1_555 1_555
H16_8 C7_8 1_555 1_555
H17_8 C7_8 1_555 1_555
H18_6 C8_6 1_555 1_555
H19_6 C8_6 1_555 1_555
H20_6 C8_6 1_555 1_555
H21_8 C9_8 1_555 1_555
H22_8 C9_8 1_555 1_555
H23_8 C9_8 1_555 1_555
H28_8 C14_8 1_555 1_555
H29_8 C17_8 1_555 1_555
H30_6 C21_8 1_555 1_555
H40_6 C41_8 1_555 1_555
H41_8 C44_8 1_555 1_555
H42_8 C48_8 1_555 1_555
H45_8 C55_8 1_555 1_555
H46_8 C55_8 1_555 1_555
H47_8 C55_8 1_555 1_555
H51_8 C57_8 1_555 1_555
H52_8 C57_8 1_555 1_555
H53_8 C57_8 1_555 1_555
H54_6 C58_6 1_555 1_555
H55_6 C58_6 1_555 1_555
H56_6 C58_6 1_555 1_555
H57_8 C59_8 1_555 1_555
H60_8 C60_8 1_555 1_555
H61_8 C61_8 1_555 1_555
H62_8 C61_8 1_555 1_555
H63_8 C62_8 1_555 1_555
H64_8 C62_8 1_555 1_555
H65_8 C63_8 1_555 1_555
H66_8 C63_8 1_555 1_555
H67_8 C64_8 1_555 1_555
H68_8 C64_8 1_555 1_555
H69_8 C64_8 1_555 1_555
C1_6 C2_6 1_555 1_555
C2_6 C3_6 1_555 1_555
C3_6 C4_6 1_555 1_555
C4_6 C5_6 1_555 1_555
C5_6 C6_8 1_555 1_555
C6_8 C18_8 1_555 1_555
C7_8 C23_8 1_555 1_555
C8_6 C20_8 1_555 1_555
C9_8 C53_8 1_555 1_555
C12_8 C15_8 1_555 1_555
C13_8 C14_8 1_555 1_555
C14_8 C15_8 1_555 1_555
C15_8 C40_8 1_555 1_555
C17_8 C18_8 1_555 1_555
C18_8 C19_8 1_555 1_555
C19_8 C22_8 1_555 1_555
C20_8 C21_8 1_555 1_555
C21_8 C22_8 1_555 1_555
C22_8 C23_8 1_555 1_555
C23_8 C24_8 1_555 1_555
C24_8 C25_8 1_555 1_555
C25_8 C20_8 1_555 1_555
C40_8 C41_8 1_555 1_555
C41_8 C42_8 1_555 1_555
C42_8 C43_8 1_555 1_555
C43_8 C44_8 1_555 1_555
C44_8 C45_8 1_555 1_555
C45_8 C40_8 1_555 1_555
C46_8 C17_8 1_555 1_555
C47_8 C46_8 1_555 1_555
C48_8 C19_8 1_555 1_555
C55_8 C13_8 1_555 1_555
C57_8 C45_8 1_555 1_555
C58_6 C42_8 1_555 1_555
C59_8 C47_8 1_555 1_555
C60_8 C59_8 1_555 1_555
C61_8 C60_8 1_555 1_555
C62_8 C61_8 1_555 1_555
C63_8 C62_8 1_555 1_555
C64_8 C63_8 1_555 1_555
C43_8 C46_8 1_555 1_555
C47_8 C48_8 1_555 1_555
H27_8 C11_8 1_555 1_555
H32_8 C27_8 1_555 1_555
H33_8 C26_8 1_555 1_555
H49_8 C56_8 1_555 1_555
H50_8 C56_8 1_555 1_555
H70_8 O8_8 1_555 1_555
C16_8 C11_8 1_555 1_555
C26_8 C27_8 1_555 1_555
C27_8 C28_8 1_555 1_555
C28_8 C16_8 1_555 1_555
C29_8 C28_8 1_555 1_555
C33_8 C34_8 1_555 1_555
C34_8 C26_8 1_555 1_555
C35_8 C29_8 1_555 1_555
O5_8 C33_8 1_555 1_555
O14_3 C33_8 1_555 1_555
O16_5 C35_8 1_555 1_555
O8_8 Mg6_3 1_555 1_555
Mg6_3 O5_8 1_555 1_555
O16_6 Mg6_3 1_555 1_555
Mg7_3 O14_3 1_555 1_555
C34_8 C35_8 1_555 1_555
O16_6 Mg7_3 1_555 1_555
H2_7 C1_7 1_555 1_555
H3_7 C1_7 1_555 1_555
H4_7 C1_7 1_555 1_555
H5_7 C2_7 1_555 1_555
H6_7 C2_7 1_555 1_555
H7_7 C3_7 1_555 1_555
H8_7 C3_7 1_555 1_555
H9_7 C4_7 1_555 1_555
H10_7 C4_7 1_555 1_555
H11_7 C5_7 1_555 1_555
H12_7 C5_7 1_555 1_555
H13_9 C6_9 1_555 1_555
H14_9 C6_9 1_555 1_555
H27_9 C11_9 1_555 1_555
H28_9 C14_9 1_555 1_555
H29_9 C17_9 1_555 1_555
H34_9 C29_9 1_555 1_555
H40_7 C41_9 1_555 1_555
H41_9 C44_9 1_555 1_555
H45_9 C55_9 1_555 1_555
H46_9 C55_9 1_555 1_555
H47_9 C55_9 1_555 1_555
H48_7 C56_9 1_555 1_555
H49_9 C56_9 1_555 1_555
H50_9 C56_9 1_555 1_555
H51_9 C57_9 1_555 1_555
H52_9 C57_9 1_555 1_555
H53_9 C57_9 1_555 1_555
H54_7 C58_7 1_555 1_555
H55_7 C58_7 1_555 1_555
H65_9 C63_9 1_555 1_555
H66_9 C63_9 1_555 1_555
H68_9 C64_9 1_555 1_555
H69_9 C64_9 1_555 1_555
C1_7 C2_7 1_555 1_555
C2_7 C3_7 1_555 1_555
C3_7 C4_7 1_555 1_555
C4_7 C5_7 1_555 1_555
C5_7 C6_9 1_555 1_555
C6_9 C18_9 1_555 1_555
C11_9 C12_9 1_555 1_555
C12_9 C15_9 1_555 1_555
C13_9 C14_9 1_555 1_555
C14_9 C15_9 1_555 1_555
C15_9 C40_9 1_555 1_555
C16_9 C11_9 1_555 1_555
C17_9 C18_9 1_555 1_555
C28_9 C16_9 1_555 1_555
C29_9 C28_9 1_555 1_555
C35_9 C29_9 1_555 1_555
C40_9 C41_9 1_555 1_555
C41_9 C42_9 1_555 1_555
C42_9 C43_9 1_555 1_555
C43_9 C44_9 1_555 1_555
C44_9 C45_9 1_555 1_555
C45_9 C40_9 1_555 1_555
C46_9 C17_9 1_555 1_555
C55_9 C13_9 1_555 1_555
C56_9 C12_9 1_555 1_555
C57_9 C45_9 1_555 1_555
C58_7 C42_9 1_555 1_555
C64_9 C63_9 1_555 1_555
O16_6 C35_9 1_555 1_555
C13_9 C16_9 1_555 1_555
C43_9 C46_9 1_555 1_555
H32_9 C27_9 1_555 1_555
H33_9 C26_9 1_555 1_555
H36_9 O8_9 1_555 1_555
H70_9 O8_9 1_555 1_555
C26_9 C27_9 1_555 1_555
C33_9 C34_9 1_555 1_555
C34_9 C26_9 1_555 1_555
O5_9 C33_9 1_555 1_555
O13_3 C33_9 1_555 1_555
O8_9 Mg7_3 1_555 1_555
Mg7_3 O5_9 1_555 1_555
O9_3 Mg4_3 1_555 1_555
O11_3 Mg4_3 1_555 1_555
H37_8 C36_8 1_555 1_555
H38_8 C39_8 1_555 1_555
H39_8 C38_8 1_555 1_555
H44_8 C54_8 1_555 1_555
C30_8 C31_8 1_555 1_555
C31_8 C32_8 1_555 1_555
C32_8 O11_3 1_555 1_555
C36_8 C30_8 1_555 1_555
C37_8 C36_8 1_555 1_555
C38_8 C37_8 1_555 1_555
C39_8 C31_8 1_555 1_555
C49_8 C37_8 1_555 1_555
C51_8 C50_8 1_555 1_555
C52_8 C49_8 1_555 1_555
C54_8 C49_8 1_555 1_555
O10_6 C30_8 1_555 1_555
O4_8 C32_8 1_555 1_555
Mg4_3 O10_6 1_555 1_555
C38_8 C39_8 1_555 1_555
C51_8 C52_8 1_555 1_555
H1_9 O1_9 1_555 1_555
H35_9 O1_9 1_555 1_555
O1_9 Mg4_3 1_555 1_555
O4_9 C32_9 1_555 1_555
Mg4_3 O4_9 1_555 1_555
H15_9 C7_9 1_555 1_555
H16_9 C7_9 1_555 1_555
H17_9 C7_9 1_555 1_555
H18_7 C8_7 1_555 1_555
H19_7 C8_7 1_555 1_555
H21_9 C9_9 1_555 1_555
H22_9 C9_9 1_555 1_555
H23_9 C9_9 1_555 1_555
H24_9 C10_9 1_555 1_555
H25_9 C10_9 1_555 1_555
H26_9 C10_9 1_555 1_555
H30_7 C21_9 1_555 1_555
H31_9 C24_9 1_555 1_555
H37_9 C36_9 1_555 1_555
H39_9 C38_9 1_555 1_555
H42_9 C48_9 1_555 1_555
H43_9 C51_9 1_555 1_555
H44_9 C54_9 1_555 1_555
H57_9 C59_9 1_555 1_555
H58_9 C59_9 1_555 1_555
H59_9 C60_9 1_555 1_555
H60_9 C60_9 1_555 1_555
H61_9 C61_9 1_555 1_555
H63_9 C62_9 1_555 1_555
H64_9 C62_9 1_555 1_555
C7_9 C23_9 1_555 1_555
C8_7 C20_9 1_555 1_555
C9_9 C53_9 1_555 1_555
C10_9 C52_9 1_555 1_555
C19_9 C22_9 1_555 1_555
C20_9 C21_9 1_555 1_555
C21_9 C22_9 1_555 1_555
C22_9 C23_9 1_555 1_555
C23_9 C24_9 1_555 1_555
C24_9 C25_9 1_555 1_555
C25_9 C20_9 1_555 1_555
C30_9 C31_9 1_555 1_555
C36_9 C30_9 1_555 1_555
C37_9 C36_9 1_555 1_555
C38_9 C37_9 1_555 1_555
C39_9 C31_9 1_555 1_555
C48_9 C19_9 1_555 1_555
C49_9 C37_9 1_555 1_555
C50_9 C25_9 1_555 1_555
C51_9 C50_9 1_555 1_555
C52_9 C49_9 1_555 1_555
C53_9 C50_9 1_555 1_555
C54_9 C49_9 1_555 1_555
C59_9 C47_9 1_555 1_555
C60_9 C59_9 1_555 1_555
C61_9 C60_9 1_555 1_555
C62_9 C61_9 1_555 1_555
O9_3 C30_9 1_555 1_555
C38_9 C39_9 1_555 1_555
C47_9 C48_9 1_555 1_555
C51_9 C52_9 1_555 1_555
C53_9 C54_9 1_555 1_555
H2_8 C1_8 1_555 1_555
H3_8 C1_8 1_555 1_555
H4_8 C1_8 1_555 1_555
H5_8 C2_8 1_555 1_555
H6_8 C2_8 1_555 1_555
H7_8 C3_8 1_555 1_555
H8_8 C3_8 1_555 1_555
H9_8 C4_8 1_555 1_555
H10_8 C4_8 1_555 1_555
H11_8 C5_8 1_555 1_555
H12_8 C5_8 1_555 1_555
H18_8 C8_8 1_555 1_555
H19_8 C8_8 1_555 1_555
H20_8 C8_8 1_555 1_555
H54_8 C58_8 1_555 1_555
H55_8 C58_8 1_555 1_555
H56_8 C58_8 1_555 1_555
C1_8 C2_8 1_555 1_555
C2_8 C3_8 1_555 1_555
C3_8 C4_8 1_555 1_555
C4_8 C5_8 1_555 1_555
H2_9 C1_9 1_555 1_555
H3_9 C1_9 1_555 1_555
H4_9 C1_9 1_555 1_555
H5_9 C2_9 1_555 1_555
H6_9 C2_9 1_555 1_555
H7_9 C3_9 1_555 1_555
H8_9 C3_9 1_555 1_555
H9_9 C4_9 1_555 1_555
H10_9 C4_9 1_555 1_555
H11_9 C5_9 1_555 1_555
H12_9 C5_9 1_555 1_555
H18_9 C8_9 1_555 1_555
H19_9 C8_9 1_555 1_555
H20_9 C8_9 1_555 1_555
H54_9 C58_9 1_555 1_555
H55_9 C58_9 1_555 1_555
H56_9 C58_9 1_555 1_555
C1_9 C2_9 1_555 1_555
C2_9 C3_9 1_555 1_555
C3_9 C4_9 1_555 1_555
C4_9 C5_9 1_555 1_555

#END
