
###############################################################################
#
# This file contains modified crystal structure data generated from the
# MOF subset of the Cambridge Structural Database (CSD) v543 
# hosted by the Cambridge Crystallographic Data Centre (CCDC).
#
# This work is licensed under the Creative Commons
# Attribution-NonCommercial-ShareAlike 4.0 International License.
# To view a copy of this license, visit
# http://creativecommons.org/licenses/by-nc-sa/4.0/
# or send a letter to
# Creative Commons, PO Box 1866, Mountain View, CA 94042, USA.
#
# CIF created using the CSD Python API on 29 September 2022
# The structure has been converted into the P1 space group
# The structure has a 3D framework
# The original CSD entry RAVXET is in the rhombohedral crystal system
# The framework has been calculated to contain at least 10.0% void space
# The void calculation uses a probe of radius 1.32A, grid spacing 0.4
#
###############################################################################

data_RAVXET
_chemical_formula_moiety         '(C594 H666 Mg18 O136)n'
_symmetry_cell_setting           triclinic
_symmetry_space_group_name_H-M   'P 1'
_symmetry_Int_Tables_number      1
_space_group_name_Hall           'P 1'
loop_
_symmetry_equiv_pos_site_id
_symmetry_equiv_pos_as_xyz
1 x,y,z
_cell_length_a                   94.3977
_cell_length_b                   94.3977
_cell_length_c                   6.7315
_cell_angle_alpha                90
_cell_angle_beta                 90
_cell_angle_gamma                120
_cell_volume                     51947.6
loop_
_atom_site_label
_atom_site_type_symbol
_atom_site_fract_x
_atom_site_fract_y
_atom_site_fract_z
Mg1 Mg 0.66233 0.65465 0.07091
O4 O 0.66333 0.63478 0.16402
H1 H 0.66266 0.63478 0.31192
H37 H 0.65942 0.62226 0.21900
O12 O 0.67631 0.66795 0.28335
O16 O 0.64290 0.65124 0.24735
C1 C 0.64609 0.64395 0.68325
C2 C 0.63294 0.63251 0.54413
C3 C 0.63245 0.63593 0.33688
O1 O 0.64533 0.64051 0.86981
O2 O 0.65830 0.65702 0.61668
C4 C 0.62008 0.62397 0.21523
C5 C 0.60859 0.60848 0.29024
C6 C 0.60876 0.60532 0.49446
C7 C 0.62085 0.61706 0.61893
C17 C 0.59618 0.59576 0.15539
C19 C 0.58172 0.56800 0.02013
C20 C 0.59455 0.57998 0.13670
C22 C 0.58613 0.59966 0.03913
C23 C 0.60683 0.57599 0.22898
H2 H 0.61926 0.62689 0.06088
H3 H 0.59952 0.59372 0.55809
H4 H 0.62086 0.61381 0.77414
H8 H 0.57996 0.55568 0.01471
H9 H 0.58779 0.61195 0.04681
H10 H 0.61946 0.58523 0.18014
H11 H 0.60452 0.56364 0.18231
H12 H 0.60621 0.57603 0.39426
Mg3 Mg 0.67868 0.67435 0.73758
Mg4 Mg 0.65899 0.67100 0.40424
O11 O 0.66539 0.67503 0.95001
O17 O 0.68209 0.65833 0.91402
O22 O 0.44541 0.49066 0.03164
C62 C 0.42834 0.48481 0.01889
C63 C 0.42421 0.49537 0.15305
O23 O 0.42766 0.49351 0.35425
C64 C 0.42878 0.50647 0.47473
C65 C 0.44632 0.51679 0.55459
O24 O 0.45753 0.52368 0.39293
C66 C 0.46822 0.51718 0.38616
H59 H 0.47349 0.49117 0.03991
H64 H 0.42111 0.47174 0.06722
H65 H 0.43173 0.50836 0.10031
H66 H 0.41091 0.49133 0.13714
H67 H 0.42028 0.50095 0.60360
H68 H 0.42505 0.51470 0.39849
H69 H 0.44901 0.50915 0.65921
H70 H 0.44699 0.52704 0.64526
H71 H 0.46125 0.50354 0.37279
H72 H 0.47622 0.52090 0.52082
H73 H 0.47627 0.52217 0.25262
C1_2 C 0.66453 0.68724 0.01658
O1_2 O 0.66185 0.68800 0.20314
O4_2 O 0.63812 0.67000 0.49735
H1_2 H 0.63879 0.67067 0.64525
H4_2 H 0.65962 0.71247 0.10747
H37_2 H 0.62951 0.67391 0.55233
O16_2 O 0.67501 0.69043 0.58068
C2_2 C 0.66624 0.70039 0.87746
C3_2 C 0.67015 0.70088 0.67021
C4_2 C 0.67056 0.71325 0.54856
C5_2 C 0.66656 0.72474 0.62357
C6_2 C 0.66323 0.72457 0.82779
C7_2 C 0.66288 0.71248 0.95226
C8 C 0.66782 0.77650 0.13824
C9 C 0.68069 0.79235 0.18614
C10 C 0.68165 0.80650 0.10119
C13 C 0.65535 0.77492 0.00552
C16 C 0.67094 0.83263 0.03089
C17_2 C 0.66625 0.73715 0.48872
C18 C 0.66712 0.76210 0.24229
C19_2 C 0.65295 0.75161 0.35346
C20_2 C 0.65210 0.73878 0.47003
C21 C 0.68062 0.75930 0.24490
C22_2 C 0.68020 0.74720 0.37246
C23_2 C 0.63583 0.72650 0.56231
C24 C 0.69547 0.76854 0.11183
C26 C 0.69701 0.82274 0.14076
H2_2 H 0.67430 0.71407 0.39421
H3_2 H 0.66087 0.73381 0.89142
H5 H 0.69026 0.79369 0.28850
H7 H 0.67374 0.83193 0.18634
H8_2 H 0.64239 0.75337 0.34804
H9_2 H 0.69083 0.74554 0.38014
H10_2 H 0.63244 0.71387 0.51347
H11_2 H 0.62579 0.72881 0.51564
H12_2 H 0.63649 0.72712 0.72759
H14 H 0.69796 0.75963 0.03156
H15 H 0.70637 0.77677 0.20424
H19 H 0.69619 0.82747 0.29018
H20 H 0.69904 0.83194 0.02403
H21 H 0.70799 0.82117 0.13832
O21 O 0.67442 0.85987 0.09471
C60 C 0.68854 0.86481 0.22071
C61 C 0.69866 0.88351 0.23243
O22_2 O 0.71192 0.88792 0.36497
C62_2 C 0.72314 0.90499 0.35222
C63_2 C 0.73783 0.90912 0.48638
O23_2 O 0.73252 0.90567 0.68758
C64_2 C 0.74436 0.90455 0.80806
C65_2 C 0.73714 0.88701 0.88792
O24_2 O 0.73282 0.87580 0.72626
C66_2 C 0.71563 0.86511 0.71949
H59_2 H 0.68435 0.85984 0.37324
H60 H 0.69672 0.86024 0.16465
H61 H 0.70317 0.88843 0.08009
H62 H 0.69067 0.88825 0.28770
H63 H 0.72779 0.90864 0.19666
H64_2 H 0.71730 0.91222 0.40055
H65_2 H 0.74330 0.90160 0.43364
H66_2 H 0.74709 0.92242 0.47047
H67_2 H 0.74734 0.91305 0.93693
H68_2 H 0.75632 0.90828 0.73182
H69_2 H 0.72681 0.88432 0.99254
H70_2 H 0.74672 0.88634 0.97859
H71_2 H 0.70896 0.87208 0.70612
H72_2 H 0.71135 0.85711 0.85415
H73_2 H 0.71257 0.85706 0.58595
C1_3 C 0.68938 0.66881 0.34992
C2_3 C 0.70082 0.66710 0.21080
C3_3 C 0.69740 0.66319 0.00355
O1_3 O 0.69282 0.67149 0.53648
O4_3 O 0.69855 0.69522 0.83069
C6_3 C 0.72801 0.67011 0.16113
C7_3 C 0.71627 0.67046 0.28560
H1_3 H 0.69855 0.69455 0.97859
H3_3 H 0.73961 0.67247 0.22476
H4_3 H 0.71952 0.67372 0.44081
H12_3 H 0.75730 0.69685 0.06093
H37_3 H 0.71107 0.70383 0.88567
O23_3 O 0.83982 0.60082 0.02092
C64_3 C 0.82686 0.58898 0.14140
C65_3 C 0.81654 0.59620 0.22126
O24_3 O 0.80965 0.60052 0.05960
C66_3 C 0.81615 0.61771 0.05283
H67_3 H 0.83238 0.58600 0.27027
H68_3 H 0.81863 0.57702 0.06516
H69_3 H 0.82418 0.60653 0.32588
H70_3 H 0.80629 0.58662 0.31193
H71_3 H 0.82979 0.62438 0.03946
H72_3 H 0.81243 0.62199 0.18749
C4_3 C 0.70936 0.66278 0.88190
C5_3 C 0.72485 0.66678 0.95691
C8_2 C 0.77535 0.66552 0.47158
C9_2 C 0.77833 0.65265 0.51948
C10_2 C 0.79152 0.65169 0.43453
C11 C 0.80316 0.66486 0.31394
C12 C 0.80041 0.67798 0.27338
C13_2 C 0.78624 0.67799 0.33886
C14 C 0.81851 0.66567 0.23528
C15 C 0.82390 0.67056 0.03648
C16_2 C 0.82836 0.66240 0.36423
C17_3 C 0.73757 0.66709 0.82206
C18_2 C 0.76165 0.66622 0.57563
C19_3 C 0.76533 0.68039 0.68680
C20_3 C 0.75335 0.68124 0.80337
C21_2 C 0.74535 0.65272 0.57824
C22_3 C 0.73367 0.65314 0.70580
C23_3 C 0.75734 0.69751 0.89565
C24_2 C 0.73974 0.63787 0.44517
C25 C 0.78313 0.69118 0.25799
C26_2 C 0.79240 0.63633 0.47410
H2_3 H 0.70644 0.65904 0.72755
H5_2 H 0.77010 0.64308 0.62184
H6 H 0.80948 0.68844 0.19058
H7_2 H 0.82486 0.65960 0.51968
H8_3 H 0.77765 0.69095 0.68138
H9_3 H 0.72138 0.64251 0.71348
H10_3 H 0.74810 0.70090 0.84681
H11_3 H 0.76969 0.70755 0.84898
H13 H 0.74896 0.63968 0.32928
H14_2 H 0.72834 0.63538 0.36490
H15_2 H 0.73707 0.62697 0.53758
H16 H 0.78310 0.69076 0.09189
H17 H 0.79307 0.70347 0.30606
H18 H 0.77112 0.68959 0.30556
H19_2 H 0.79795 0.63715 0.62352
H20_2 H 0.79957 0.63430 0.35737
H21_2 H 0.77985 0.62535 0.47166
C44 C 0.86350 0.66848 0.01940
C45 C 0.86625 0.65536 0.05996
C47 C 0.84815 0.66767 0.09806
C48 C 0.84276 0.66278 0.29686
C58 C 0.88353 0.64216 0.07535
O21_2 O 0.85212 0.65892 0.42805
C60_2 C 0.84294 0.64480 0.55405
C61_2 C 0.85152 0.63468 0.56577
O22_3 O 0.84267 0.62142 0.69831
C62_3 C 0.84852 0.61020 0.68556
C63_3 C 0.83796 0.59551 0.81972
H43 H 0.85718 0.64490 0.14276
H50 H 0.91770 0.69366 0.00406
H53 H 0.88356 0.64258 0.24145
H54 H 0.87359 0.62987 0.02728
H55 H 0.89554 0.64375 0.02778
H59_3 H 0.84216 0.64899 0.70658
H60_2 H 0.83019 0.63662 0.49799
H61_2 H 0.85193 0.63017 0.41343
H62_2 H 0.86425 0.64267 0.62104
H63_2 H 0.84752 0.60555 0.53000
H64_3 H 0.86159 0.61604 0.73389
H65_3 H 0.82497 0.59004 0.76698
H66_3 H 0.84200 0.58625 0.80381
H73_3 H 0.81116 0.62077 0.91929
C8_3 C 0.55683 0.55798 0.80491
C9_3 C 0.54098 0.55500 0.85281
C10_3 C 0.52683 0.54181 0.76786
C11_2 C 0.52836 0.53017 0.64727
C12_2 C 0.54423 0.53292 0.60671
C13_3 C 0.55841 0.54709 0.67219
C14_2 C 0.51382 0.51482 0.56861
C15_2 C 0.51332 0.50943 0.36981
C16_3 C 0.50070 0.50497 0.69756
C18_3 C 0.57123 0.57168 0.90896
C21_3 C 0.57403 0.58798 0.91157
C24_3 C 0.56479 0.59359 0.77850
C25_2 C 0.57471 0.55020 0.59132
C26_3 C 0.51059 0.54093 0.80743
O5 O 0.52654 0.51879 0.23862
C27 C 0.53148 0.50961 0.11262
C28 C 0.55018 0.51819 0.10090
H5_3 H 0.53964 0.56323 0.95517
H6_2 H 0.54562 0.52385 0.52391
H7_3 H 0.50140 0.50847 0.85301
H13_2 H 0.55738 0.58437 0.66261
H14_3 H 0.57370 0.60499 0.69823
H15_3 H 0.55656 0.59626 0.87091
H16_2 H 0.57432 0.55023 0.42522
H17_2 H 0.57706 0.54026 0.63939
H18_2 H 0.58513 0.56221 0.63889
H19_3 H 0.50586 0.53538 0.95685
H20_3 H 0.50139 0.53376 0.69070
H21_3 H 0.51216 0.55348 0.80499
H23 H 0.52691 0.49686 0.16868
H24 H 0.55510 0.51860 0.25324
H25 H 0.55492 0.53092 0.04563
H26 H 0.57531 0.51419 0.13667
C41 C 0.44317 0.44202 0.19509
C42 C 0.45902 0.44500 0.14719
C43 C 0.47317 0.45819 0.23214
C44_2 C 0.47164 0.46983 0.35273
C45_2 C 0.45577 0.46708 0.39329
C46 C 0.44159 0.45291 0.32781
C47_2 C 0.48618 0.48518 0.43139
C48_2 C 0.48668 0.49057 0.63019
C49 C 0.49930 0.49503 0.30244
C51 C 0.42877 0.42832 0.09104
C54 C 0.42597 0.41202 0.08843
C57 C 0.43521 0.40641 0.22150
C58_2 C 0.42529 0.44980 0.40868
C59 C 0.48941 0.45907 0.19257
O21_3 O 0.47346 0.48121 0.76138
C60_3 C 0.46852 0.49039 0.88738
C61_3 C 0.44982 0.48181 0.89910
H42 H 0.46036 0.43677 0.04483
H43_2 H 0.45438 0.47615 0.47609
H44 H 0.49860 0.49153 0.14699
H50_2 H 0.44262 0.41563 0.33739
H51 H 0.42630 0.39501 0.30177
H52 H 0.44344 0.40374 0.12909
H53_2 H 0.42568 0.44977 0.57478
H54_2 H 0.42294 0.45974 0.36061
H55_2 H 0.41487 0.43779 0.36111
H56 H 0.49414 0.46462 0.04315
H57 H 0.49861 0.46624 0.30930
H58 H 0.48784 0.44652 0.19501
H60_3 H 0.47309 0.50314 0.83132
H61_3 H 0.44490 0.48140 0.74676
H62_3 H 0.44508 0.46908 0.95437
H63_3 H 0.42469 0.48581 0.86333
O6 O 0.55459 0.50934 0.96836
C29 C 0.57166 0.51519 0.98111
C30 C 0.57579 0.50463 0.84695
O7 O 0.57234 0.50649 0.64575
C31 C 0.57122 0.49353 0.52527
C32 C 0.55368 0.48321 0.44541
O8 O 0.54247 0.47632 0.60707
C33 C 0.53178 0.48282 0.61384
H22 H 0.52651 0.50883 0.96009
H27 H 0.57889 0.52826 0.93278
H28 H 0.56827 0.49164 0.89969
H29 H 0.58909 0.50867 0.86286
H30 H 0.57972 0.49905 0.39640
H31 H 0.57495 0.48530 0.60151
H32 H 0.55099 0.49085 0.34079
H33 H 0.55301 0.47296 0.35474
H34 H 0.53875 0.49646 0.62721
H35 H 0.52378 0.47910 0.47918
H36 H 0.52373 0.47783 0.74738
C34 C 0.35391 0.35605 0.31675
C35 C 0.36706 0.36749 0.45587
C36 C 0.36755 0.36407 0.66312
Mg6 Mg 0.32132 0.32565 0.26242
Mg7 Mg 0.34101 0.32900 0.59576
Mg8 Mg 0.33767 0.34535 0.92909
O9 O 0.35467 0.35949 0.13019
O10 O 0.34170 0.34298 0.38332
O13 O 0.33461 0.32497 0.04999
O15 O 0.35710 0.34876 0.75265
O19 O 0.31791 0.34167 0.08598
C37 C 0.37992 0.37603 0.78477
C38 C 0.39141 0.39152 0.70976
C39 C 0.39124 0.39468 0.50554
C40 C 0.37915 0.38294 0.38107
C50 C 0.40382 0.40424 0.84461
C52 C 0.41828 0.43200 0.97987
C53 C 0.40545 0.42002 0.86330
C55 C 0.41387 0.40034 0.96087
C56 C 0.39317 0.42401 0.77102
H39 H 0.38074 0.37311 0.93912
H40 H 0.40048 0.40628 0.44191
H41 H 0.37914 0.38619 0.22586
H45 H 0.42004 0.44432 0.98529
H46 H 0.41221 0.38805 0.95319
H47 H 0.38054 0.41477 0.81986
H48 H 0.39548 0.43636 0.81769
H49 H 0.39379 0.42397 0.60574
O14 O 0.32369 0.33205 0.71665
O20 O 0.33667 0.36522 0.83598
H38 H 0.33734 0.36522 0.68808
H74 H 0.34058 0.37774 0.78100
C11_3 C 0.13650 0.33152 0.98060
C12_3 C 0.13375 0.34464 0.94004
C14_3 C 0.15185 0.33233 0.90194
C15_3 C 0.15724 0.33722 0.70314
C25_3 C 0.11647 0.35784 0.92465
O5_2 O 0.14788 0.34108 0.57195
C27_2 C 0.15706 0.35520 0.44595
C28_2 C 0.14848 0.36532 0.43423
O6_2 O 0.15733 0.37858 0.30169
C29_2 C 0.15148 0.38980 0.31444
C30_2 C 0.16204 0.40449 0.18028
H6_3 H 0.14282 0.35510 0.85724
H13_3 H 0.08230 0.30634 0.99594
H16_3 H 0.11644 0.35742 0.75855
H17_3 H 0.12641 0.37013 0.97272
H18_3 H 0.10446 0.35625 0.97222
H22_2 H 0.15784 0.35101 0.29342
H23_2 H 0.16981 0.36338 0.50201
H24_2 H 0.14807 0.36983 0.58657
H25_2 H 0.13575 0.35733 0.37896
H26_2 H 0.15248 0.39445 0.47000
H27_2 H 0.13841 0.38396 0.26611
H28_2 H 0.17503 0.40996 0.23302
H29_2 H 0.15800 0.41375 0.19619
H36_2 H 0.18884 0.37923 0.08071
C37_2 C 0.29064 0.33722 0.11810
C38_2 C 0.27515 0.33322 0.04309
C41_2 C 0.22465 0.33448 0.52842
C42_2 C 0.22167 0.34735 0.48052
C43_2 C 0.20848 0.34831 0.56547
C44_3 C 0.19684 0.33514 0.68606
C45_3 C 0.19959 0.32202 0.72662
C46_2 C 0.21376 0.32201 0.66114
C47_3 C 0.18149 0.33433 0.76472
C48_3 C 0.17610 0.32944 0.96352
C49_2 C 0.17164 0.33760 0.63577
C50_2 C 0.26243 0.33291 0.17794
C51_2 C 0.23835 0.33378 0.42437
C52_2 C 0.23467 0.31961 0.31320
C53_2 C 0.24665 0.31876 0.19663
C54_2 C 0.25465 0.34728 0.42176
C55_2 C 0.26633 0.34686 0.29420
C56_2 C 0.24266 0.30249 0.10435
C57_2 C 0.26026 0.36213 0.55483
C58_3 C 0.21687 0.30882 0.74201
C59_2 C 0.20760 0.36367 0.52590
H39_2 H 0.29356 0.34096 0.27245
H42_2 H 0.22990 0.35692 0.37816
H43_3 H 0.19052 0.31156 0.80942
H44_2 H 0.17514 0.34040 0.48032
H45_2 H 0.22235 0.30905 0.31862
H46_2 H 0.27862 0.35749 0.28652
H47_2 H 0.25190 0.29910 0.15319
H48_2 H 0.23031 0.29245 0.15102
H50_3 H 0.25104 0.36032 0.67072
H51_2 H 0.27166 0.36462 0.63510
H52_2 H 0.26293 0.37303 0.46242
H53_3 H 0.21690 0.30924 0.90811
H54_3 H 0.20693 0.29653 0.69394
H55_3 H 0.22888 0.31041 0.69444
H56_2 H 0.20205 0.36285 0.37648
H57_2 H 0.20043 0.36570 0.64263
H58_2 H 0.22015 0.37465 0.52834
O7_2 O 0.16018 0.39918 0.97908
C31_2 C 0.17314 0.41102 0.85860
C32_2 C 0.18346 0.40380 0.77874
O8_2 O 0.19035 0.39948 0.94040
C33_2 C 0.18385 0.38229 0.94717
H30_2 H 0.16762 0.41400 0.72973
H31_2 H 0.18137 0.42298 0.93484
H32_2 H 0.17582 0.39347 0.67412
H33_2 H 0.19371 0.41338 0.68807
H34_2 H 0.17021 0.37562 0.96054
H35_2 H 0.18757 0.37801 0.81251
C34_2 C 0.31062 0.33119 0.65008
C35_2 C 0.29918 0.33290 0.78920
C36_2 C 0.30260 0.33681 0.99645
O9_2 O 0.30718 0.32851 0.46352
O19_2 O 0.32499 0.30957 0.41932
O20_2 O 0.30145 0.30478 0.16931
C39_2 C 0.27199 0.32989 0.83887
C40_2 C 0.28373 0.32954 0.71440
H38_2 H 0.30145 0.30545 0.02141
H40_2 H 0.26039 0.32753 0.77524
H41_2 H 0.28048 0.32628 0.55919
H49_2 H 0.24270 0.30315 0.93907
H74_2 H 0.28893 0.29617 0.11433
O5_3 O 0.32558 0.14013 0.90529
C27_3 C 0.31146 0.13519 0.77929
C28_3 C 0.30134 0.11649 0.76757
O6_3 O 0.28808 0.11208 0.63503
C29_3 C 0.27686 0.09501 0.64778
C30_3 C 0.26217 0.09088 0.51362
O7_3 O 0.26748 0.09433 0.31242
C31_3 C 0.25564 0.09545 0.19194
C32_3 C 0.26286 0.11299 0.11208
O8_3 O 0.26718 0.12420 0.27374
C33_3 C 0.28437 0.13489 0.28051
H22_3 H 0.31565 0.14016 0.62676
H23_3 H 0.30328 0.13976 0.83535
H24_3 H 0.29683 0.11157 0.91991
H25_3 H 0.30933 0.11175 0.71230
H26_3 H 0.27221 0.09136 0.80334
H27_3 H 0.28270 0.08778 0.59945
H28_3 H 0.25670 0.09840 0.56636
H29_3 H 0.25291 0.07758 0.52953
H30_3 H 0.25266 0.08695 0.06307
H31_3 H 0.24368 0.09172 0.26818
H32_3 H 0.27319 0.11568 0.00746
H33_3 H 0.25328 0.11366 0.02141
H34_3 H 0.29104 0.12792 0.29388
H35_3 H 0.28865 0.14289 0.14585
H36_3 H 0.28743 0.14294 0.41405
C35_3 C 0.33376 0.29961 0.12254
C36_3 C 0.32985 0.29912 0.32979
C37_3 C 0.32944 0.28675 0.45144
C38_3 C 0.33344 0.27526 0.37643
C39_3 C 0.33677 0.27543 0.17221
C40_3 C 0.33712 0.28752 0.04774
C41_3 C 0.33218 0.22350 0.86176
C42_3 C 0.31931 0.20765 0.81386
C43_3 C 0.31835 0.19350 0.89881
C46_3 C 0.34465 0.22508 0.99448
C49_3 C 0.32906 0.16737 0.96911
C50_3 C 0.33375 0.26285 0.51128
C51_3 C 0.33288 0.23790 0.75771
C52_3 C 0.34705 0.24839 0.64654
C53_3 C 0.34790 0.26122 0.52997
C54_3 C 0.31938 0.24070 0.75510
C55_3 C 0.31980 0.25280 0.62754
C56_3 C 0.36417 0.27350 0.43769
C57_3 C 0.30453 0.23146 0.88817
C59_3 C 0.30299 0.17726 0.85924
H39_3 H 0.32570 0.28593 0.60579
H40_3 H 0.33913 0.26619 0.10858
H42_3 H 0.30974 0.20631 0.71150
H44_3 H 0.32626 0.16807 0.81366
H45_3 H 0.35761 0.24663 0.65196
H46_3 H 0.30917 0.25446 0.61986
H47_3 H 0.36756 0.28613 0.48653
H48_3 H 0.37421 0.27119 0.48436
H49_3 H 0.36351 0.27288 0.27241
H51_3 H 0.30204 0.24037 0.96844
H52_3 H 0.29363 0.22323 0.79576
H56_3 H 0.30381 0.17253 0.70982
H57_3 H 0.30096 0.16806 0.97597
H58_3 H 0.29201 0.17883 0.86168
C34_3 C 0.33547 0.31276 0.98342
O9_3 O 0.33815 0.31200 0.79686
O20_3 O 0.36188 0.33000 0.50265
H38_3 H 0.36121 0.32933 0.35475
H41_3 H 0.34038 0.28753 0.89253
H74_3 H 0.37049 0.32609 0.44767
Mg1_2 Mg 0.34535 0.00768 0.07091
O4_4 O 0.36522 0.02855 0.16402
H1_4 H 0.36522 0.02788 0.31192
H37_4 H 0.37774 0.03716 0.21900
O12_2 O 0.33205 0.00837 0.28335
C1_4 C 0.35605 0.00214 0.68325
C2_4 C 0.36749 0.00043 0.54413
O1_4 O 0.35949 0.00482 0.86981
O2_2 O 0.34298 0.00128 0.61668
C5_4 C 0.39152 0.00011 0.29024
C6_4 C 0.39468 0.00344 0.49446
C7_4 C 0.38294 0.00379 0.61893
C17_4 C 0.40424 0.00042 0.15539
C19_4 C 0.43200 0.01372 0.02013
C20_4 C 0.42002 0.01457 0.13670
C23_4 C 0.42401 0.03084 0.22898
H3_4 H 0.40628 0.00580 0.55809
H4_4 H 0.38619 0.00705 0.77414
H8_4 H 0.44432 0.02428 0.01471
H10_4 H 0.41477 0.03423 0.18014
H11_4 H 0.43636 0.04088 0.18231
H12_4 H 0.42397 0.03018 0.39426
Mg3_2 Mg 0.32565 0.00434 0.73758
O17_2 O 0.34167 0.02377 0.91402
C1_5 C 0.33119 0.02058 0.34992
C2_5 C 0.33290 0.03373 0.21080
C3_4 C 0.33681 0.03422 0.00355
O1_5 O 0.32851 0.02134 0.53648
O4_5 O 0.30478 0.00334 0.83069
C6_5 C 0.32989 0.05791 0.16113
C7_5 C 0.32954 0.04582 0.28560
H1_5 H 0.30545 0.00401 0.97859
H3_5 H 0.32753 0.06715 0.22476
H4_5 H 0.32628 0.04581 0.44081
H12_5 H 0.30315 0.06046 0.06093
H37_5 H 0.29617 0.00725 0.88567
O23_4 O 0.39918 0.23901 0.02092
C64_4 C 0.41102 0.23789 0.14140
C65_4 C 0.40380 0.22035 0.22126
O24_4 O 0.39948 0.20914 0.05960
C66_4 C 0.38229 0.19845 0.05283
H67_4 H 0.41400 0.24639 0.27027
H68_4 H 0.42298 0.24162 0.06516
H69_4 H 0.39347 0.21766 0.32588
H70_4 H 0.41338 0.21968 0.31193
H71_4 H 0.37562 0.20542 0.03946
H72_4 H 0.37801 0.19045 0.18749
C4_4 C 0.33722 0.04659 0.88190
C5_5 C 0.33322 0.05808 0.95691
C8_4 C 0.33448 0.10984 0.47158
C9_4 C 0.34735 0.12569 0.51948
C10_4 C 0.34831 0.13984 0.43453
C11_4 C 0.33514 0.13831 0.31394
C12_4 C 0.32202 0.12244 0.27338
C13_4 C 0.32201 0.10826 0.33886
C14_4 C 0.33433 0.15285 0.23528
C15_4 C 0.32944 0.15335 0.03648
C16_4 C 0.33760 0.16597 0.36423
C17_5 C 0.33291 0.07049 0.82206
C18_4 C 0.33378 0.09544 0.57563
C19_5 C 0.31961 0.08495 0.68680
C20_5 C 0.31876 0.07212 0.80337
C21_4 C 0.34728 0.09264 0.57824
C22_4 C 0.34686 0.08054 0.70580
C23_5 C 0.30249 0.05984 0.89565
C24_4 C 0.36213 0.10188 0.44517
C25_4 C 0.30882 0.09196 0.25799
C26_4 C 0.36367 0.15608 0.47410
H2_4 H 0.34096 0.04741 0.72755
H5_4 H 0.35692 0.12703 0.62184
H6_4 H 0.31156 0.12105 0.19058
H7_4 H 0.34040 0.16527 0.51968
H8_5 H 0.30905 0.08671 0.68138
H9_4 H 0.35749 0.07888 0.71348
H10_5 H 0.29910 0.04721 0.84681
H11_5 H 0.29245 0.06215 0.84898
H13_4 H 0.36032 0.10929 0.32928
H14_4 H 0.36462 0.09297 0.36490
H15_4 H 0.37303 0.11011 0.53758
H16_4 H 0.30924 0.09235 0.09189
H17_4 H 0.29653 0.08961 0.30606
H18_4 H 0.31041 0.08154 0.30556
H19_4 H 0.36285 0.16081 0.62352
H20_4 H 0.36570 0.16528 0.35737
H21_4 H 0.37465 0.15451 0.47166
C44_4 C 0.33152 0.19503 0.01940
C45_4 C 0.34464 0.21090 0.05996
C47_4 C 0.33233 0.18049 0.09806
C48_4 C 0.33722 0.17999 0.29686
C58_4 C 0.35784 0.24138 0.07535
O21_4 O 0.34108 0.19321 0.42805
C60_4 C 0.35520 0.19815 0.55405
C61_4 C 0.36532 0.21685 0.56577
O22_4 O 0.37858 0.22126 0.69831
C62_4 C 0.38980 0.23833 0.68556
C63_4 C 0.40449 0.24246 0.81972
H43_4 H 0.35510 0.21229 0.14276
H50_4 H 0.30634 0.22405 0.00406
H53_4 H 0.35742 0.24099 0.24145
H54_4 H 0.37013 0.24373 0.02728
H55_4 H 0.35625 0.25180 0.02778
H59_4 H 0.35101 0.19318 0.70658
H60_4 H 0.36338 0.19358 0.49799
H61_4 H 0.36983 0.22177 0.41343
H62_4 H 0.35733 0.22159 0.62104
H63_4 H 0.39445 0.24198 0.53000
H64_4 H 0.38396 0.24556 0.73389
H65_4 H 0.40996 0.23494 0.76698
H66_4 H 0.41375 0.25576 0.80381
H73_4 H 0.37923 0.19040 0.91929
C12_5 C 0.46708 0.01131 0.60671
C13_5 C 0.45291 0.01132 0.67219
C15_5 C 0.49057 0.00389 0.36981
C25_5 C 0.44980 0.02451 0.59132
O5_4 O 0.48121 0.00775 0.23862
C27_4 C 0.49039 0.02187 0.11262
C28_4 C 0.48181 0.03199 0.10090
H6_5 H 0.47615 0.02177 0.52391
H16_5 H 0.44977 0.02409 0.42522
H17_5 H 0.45974 0.03680 0.63939
H18_5 H 0.43779 0.02292 0.63889
H23_4 H 0.50314 0.03005 0.16868
H24_4 H 0.48140 0.03650 0.25324
H25_4 H 0.46908 0.02400 0.04563
H26_4 H 0.48581 0.06112 0.13667
C41_4 C 0.55798 0.00115 0.19509
C42_4 C 0.55500 0.01402 0.14719
C43_4 C 0.54181 0.01498 0.23214
C44_5 C 0.53017 0.00181 0.35273
C47_5 C 0.51482 0.00100 0.43139
C49_4 C 0.50497 0.00427 0.30244
C51_4 C 0.57168 0.00045 0.09104
C54_4 C 0.58798 0.01395 0.08843
C57_4 C 0.59359 0.02880 0.22150
C59_4 C 0.54093 0.03034 0.19257
H42_4 H 0.56323 0.02359 0.04483
H44_4 H 0.50847 0.00707 0.14699
H50_5 H 0.58437 0.02699 0.33739
H51_4 H 0.60499 0.03129 0.30177
H52_4 H 0.59626 0.03970 0.12909
H56_4 H 0.53538 0.02952 0.04315
H57_4 H 0.53376 0.03237 0.30930
H58_4 H 0.55348 0.04132 0.19501
O6_4 O 0.49066 0.04525 0.96836
C29_4 C 0.48481 0.05647 0.98111
C30_4 C 0.49537 0.07116 0.84695
O7_4 O 0.49351 0.06585 0.64575
C31_4 C 0.50647 0.07769 0.52527
C32_4 C 0.51679 0.07047 0.44541
O8_4 O 0.52368 0.06615 0.60707
C33_4 C 0.51718 0.04896 0.61384
H22_4 H 0.49117 0.01768 0.96009
H27_4 H 0.47174 0.05063 0.93278
H28_4 H 0.50836 0.07663 0.89969
H29_4 H 0.49133 0.08042 0.86286
H30_4 H 0.50095 0.08067 0.39640
H31_4 H 0.51470 0.08965 0.60151
H32_4 H 0.50915 0.06014 0.34079
H33_4 H 0.52704 0.08005 0.35474
H34_4 H 0.50354 0.04229 0.62721
H35_4 H 0.52090 0.04468 0.47918
H36_4 H 0.52217 0.04590 0.74738
C36_4 C 0.63593 0.00348 0.66312
Mg7_2 Mg 0.67100 0.01202 0.59576
O13_2 O 0.67503 0.00965 0.04999
O15_2 O 0.65124 0.00834 0.75265
C37_4 C 0.62397 0.00389 0.78477
C55_4 C 0.59966 0.01353 0.96087
H39_4 H 0.62689 0.00763 0.93912
H46_4 H 0.61195 0.02416 0.95319
O19_3 O 0.69043 0.01543 0.41932
O5_5 O 0.85987 0.18546 0.90529
C27_5 C 0.86481 0.17628 0.77929
C28_5 C 0.88351 0.18486 0.76757
O6_5 O 0.88792 0.17601 0.63503
C29_5 C 0.90499 0.18186 0.64778
C30_5 C 0.90912 0.17130 0.51362
O7_5 O 0.90567 0.17316 0.31242
C31_5 C 0.90455 0.16020 0.19194
C32_5 C 0.88701 0.14988 0.11208
O8_5 O 0.87580 0.14299 0.27374
C33_5 C 0.86511 0.14949 0.28051
H22_5 H 0.85984 0.17550 0.62676
H23_5 H 0.86024 0.16353 0.83535
H24_5 H 0.88843 0.18527 0.91991
H25_5 H 0.88825 0.19759 0.71230
H26_5 H 0.90864 0.18086 0.80334
H27_5 H 0.91222 0.19493 0.59945
H28_5 H 0.90160 0.15831 0.56636
H29_5 H 0.92242 0.17534 0.52953
H30_5 H 0.91305 0.16572 0.06307
H31_5 H 0.90828 0.15197 0.26818
H32_5 H 0.88432 0.15752 0.00746
H33_5 H 0.88634 0.13963 0.02141
H34_5 H 0.87208 0.16313 0.29388
H35_5 H 0.85711 0.14577 0.14585
H36_5 H 0.85706 0.14450 0.41405
C35_4 C 0.70039 0.03416 0.12254
C36_5 C 0.70088 0.03074 0.32979
C37_5 C 0.71325 0.04270 0.45144
C38_4 C 0.72474 0.05819 0.37643
C39_4 C 0.72457 0.06135 0.17221
C40_4 C 0.71248 0.04961 0.04774
C41_5 C 0.77650 0.10869 0.86176
C42_5 C 0.79235 0.11167 0.81386
C43_5 C 0.80650 0.12486 0.89881
C46_4 C 0.77492 0.11958 0.99448
C49_5 C 0.83263 0.16170 0.96911
C50_4 C 0.73715 0.07091 0.51128
C51_5 C 0.76210 0.09499 0.75771
C52_4 C 0.75161 0.09867 0.64654
C53_4 C 0.73878 0.08669 0.52997
C54_5 C 0.75930 0.07869 0.75510
C55_5 C 0.74720 0.06701 0.62754
C56_4 C 0.72650 0.09068 0.43769
C57_5 C 0.76854 0.07308 0.88817
C59_5 C 0.82274 0.12574 0.85924
H39_5 H 0.71407 0.03978 0.60579
H40_4 H 0.73381 0.07295 0.10858
H42_5 H 0.79369 0.10344 0.71150
H44_5 H 0.83193 0.15820 0.81366
H45_4 H 0.75337 0.11099 0.65196
H46_5 H 0.74554 0.05472 0.61986
H47_4 H 0.71387 0.08144 0.48653
H48_4 H 0.72881 0.10303 0.48436
H49_4 H 0.72712 0.09064 0.27241
H51_5 H 0.75963 0.06168 0.96844
H52_5 H 0.77677 0.07041 0.79576
H56_5 H 0.82747 0.13129 0.70982
H57_5 H 0.83194 0.13291 0.97597
H58_5 H 0.82117 0.11319 0.86168
C34_4 C 0.68724 0.02272 0.98342
O9_4 O 0.68800 0.02616 0.79686
O20_4 O 0.67000 0.03189 0.50265
H38_4 H 0.67067 0.03189 0.35475
H41_4 H 0.71247 0.05286 0.89253
H74_4 H 0.67391 0.04441 0.44767
O16_3 O 0.34876 0.99166 0.24735
C3_5 C 0.36407 0.99652 0.33688
C4_5 C 0.37603 0.99611 0.21523
C22_5 C 0.40034 0.98647 0.03913
H2_5 H 0.37311 0.99237 0.06088
H9_5 H 0.38805 0.97584 0.04681
Mg4_2 Mg 0.32900 0.98798 0.40424
O11_2 O 0.32497 0.99035 0.95001
O22_5 O 0.50934 0.95475 0.03164
C62_5 C 0.51519 0.94353 0.01889
C63_5 C 0.50463 0.92884 0.15305
O23_5 O 0.50649 0.93415 0.35425
C64_5 C 0.49353 0.92231 0.47473
C65_5 C 0.48321 0.92953 0.55459
O24_5 O 0.47632 0.93385 0.39293
C66_5 C 0.48282 0.95104 0.38616
H59_5 H 0.50883 0.98232 0.03991
H64_5 H 0.52826 0.94937 0.06722
H65_5 H 0.49164 0.92337 0.10031
H66_5 H 0.50867 0.91958 0.13714
H67_5 H 0.49905 0.91933 0.60360
H68_5 H 0.48530 0.91035 0.39849
H69_5 H 0.49085 0.93986 0.65921
H70_5 H 0.47296 0.91995 0.64526
H71_5 H 0.49646 0.95771 0.37279
H72_5 H 0.47910 0.95532 0.52082
H73_5 H 0.47783 0.95410 0.25262
C1_6 C 0.31276 0.97728 0.01658
O1_6 O 0.31200 0.97384 0.20314
O4_6 O 0.33000 0.96811 0.49735
H1_6 H 0.32933 0.96811 0.64525
H4_6 H 0.28753 0.94714 0.10747
H37_6 H 0.32609 0.95559 0.55233
O16_4 O 0.30957 0.98457 0.58068
C2_6 C 0.29961 0.96584 0.87746
C3_6 C 0.29912 0.96926 0.67021
C4_6 C 0.28675 0.95730 0.54856
C5_6 C 0.27526 0.94181 0.62357
C6_6 C 0.27543 0.93865 0.82779
C7_6 C 0.28752 0.95039 0.95226
C8_5 C 0.22350 0.89131 0.13824
C9_5 C 0.20765 0.88833 0.18614
C10_5 C 0.19350 0.87514 0.10119
C13_6 C 0.22508 0.88042 0.00552
C16_5 C 0.16737 0.83830 0.03089
C17_6 C 0.26285 0.92909 0.48872
C18_5 C 0.23790 0.90501 0.24229
C19_6 C 0.24839 0.90133 0.35346
C20_6 C 0.26122 0.91331 0.47003
C21_5 C 0.24070 0.92131 0.24490
C22_6 C 0.25280 0.93299 0.37246
C23_6 C 0.27350 0.90932 0.56231
C24_5 C 0.23146 0.92692 0.11183
C26_5 C 0.17726 0.87426 0.14076
H2_6 H 0.28593 0.96022 0.39421
H3_6 H 0.26619 0.92705 0.89142
H5_5 H 0.20631 0.89656 0.28850
H7_5 H 0.16807 0.84180 0.18634
H8_6 H 0.24663 0.88901 0.34804
H9_6 H 0.25446 0.94528 0.38014
H10_6 H 0.28613 0.91856 0.51347
H11_6 H 0.27119 0.89697 0.51564
H12_6 H 0.27288 0.90936 0.72759
H14_5 H 0.24037 0.93832 0.03156
H15_5 H 0.22323 0.92959 0.20424
H19_5 H 0.17253 0.86871 0.29018
H20_5 H 0.16806 0.86709 0.02403
H21_5 H 0.17883 0.88681 0.13832
O21_5 O 0.14013 0.81454 0.09471
C60_5 C 0.13519 0.82372 0.22071
C61_5 C 0.11649 0.81514 0.23243
O22_6 O 0.11208 0.82399 0.36497
C62_6 C 0.09501 0.81814 0.35222
C63_6 C 0.09088 0.82870 0.48638
O23_6 O 0.09433 0.82684 0.68758
C64_6 C 0.09545 0.83980 0.80806
C65_6 C 0.11299 0.85012 0.88792
O24_6 O 0.12420 0.85701 0.72626
C66_6 C 0.13489 0.85051 0.71949
H59_6 H 0.14016 0.82450 0.37324
H60_5 H 0.13976 0.83647 0.16465
H61_5 H 0.11157 0.81473 0.08009
H62_5 H 0.11175 0.80241 0.28770
H63_5 H 0.09136 0.81914 0.19666
H64_6 H 0.08778 0.80507 0.40055
H65_6 H 0.09840 0.84169 0.43364
H66_6 H 0.07758 0.82466 0.47047
H67_6 H 0.08695 0.83428 0.93693
H68_6 H 0.09172 0.84803 0.73182
H69_6 H 0.11568 0.84248 0.99254
H70_6 H 0.11366 0.86037 0.97859
H71_6 H 0.12792 0.83687 0.70612
H72_6 H 0.14289 0.85423 0.85415
H73_6 H 0.14294 0.85550 0.58595
C8_6 C 0.44202 0.99885 0.80491
C9_6 C 0.44500 0.98598 0.85281
C10_6 C 0.45819 0.98502 0.76786
C11_5 C 0.46983 0.99819 0.64727
C14_5 C 0.48518 0.99900 0.56861
C16_6 C 0.49503 0.99573 0.69756
C18_6 C 0.42832 0.99955 0.90896
C21_6 C 0.41202 0.98605 0.91157
C24_6 C 0.40641 0.97120 0.77850
C26_6 C 0.45907 0.96966 0.80743
H5_6 H 0.43677 0.97641 0.95517
H7_6 H 0.49153 0.99293 0.85301
H13_5 H 0.41563 0.97301 0.66261
H14_6 H 0.39501 0.96871 0.69823
H15_6 H 0.40374 0.96030 0.87091
H19_6 H 0.46462 0.97048 0.95685
H20_6 H 0.46624 0.96763 0.69070
H21_6 H 0.44652 0.95868 0.80499
C45_5 C 0.53292 0.98869 0.39329
C46_5 C 0.54709 0.98868 0.32781
C48_5 C 0.50943 0.99611 0.63019
C58_5 C 0.55020 0.97549 0.40868
O21_6 O 0.51879 0.99225 0.76138
C60_6 C 0.50961 0.97813 0.88738
C61_6 C 0.51819 0.96801 0.89910
H43_5 H 0.52385 0.97823 0.47609
H53_5 H 0.55023 0.97591 0.57478
H54_5 H 0.54026 0.96320 0.36061
H55_5 H 0.56221 0.97708 0.36111
H60_6 H 0.49686 0.96995 0.83132
H61_6 H 0.51860 0.96350 0.74676
H62_6 H 0.53092 0.97600 0.95437
H63_6 H 0.51419 0.93888 0.86333
C34_5 C 0.64395 0.99786 0.31675
C35_5 C 0.63251 0.99957 0.45587
Mg6_2 Mg 0.67435 0.99566 0.26242
Mg8_2 Mg 0.65465 0.99232 0.92909
O9_5 O 0.64051 0.99518 0.13019
O10_2 O 0.65702 0.99872 0.38332
O19_4 O 0.65833 0.97623 0.08598
C38_5 C 0.60848 0.99989 0.70976
C39_5 C 0.60532 0.99656 0.50554
C40_5 C 0.61706 0.99621 0.38107
C50_5 C 0.59576 0.99958 0.84461
C52_5 C 0.56800 0.98628 0.97987
C53_5 C 0.57998 0.98543 0.86330
C56_5 C 0.57599 0.96916 0.77102
H40_5 H 0.59372 0.99420 0.44191
H41_5 H 0.61381 0.99295 0.22586
H45_5 H 0.55568 0.97572 0.98529
H47_5 H 0.58523 0.96577 0.81986
H48_5 H 0.56364 0.95912 0.81769
H49_5 H 0.57603 0.96982 0.60574
O14_2 O 0.66795 0.99163 0.71665
O20_5 O 0.63478 0.97145 0.83598
H38_5 H 0.63478 0.97212 0.68808
H74_5 H 0.62226 0.96284 0.78100
C11_6 C 0.66848 0.80497 0.98060
C12_6 C 0.65536 0.78910 0.94004
C14_6 C 0.66767 0.81951 0.90194
C15_6 C 0.66278 0.82001 0.70314
C25_6 C 0.64216 0.75862 0.92465
O5_6 O 0.65892 0.80679 0.57195
C27_6 C 0.64480 0.80185 0.44595
C28_6 C 0.63468 0.78315 0.43423
O6_6 O 0.62142 0.77874 0.30169
C29_6 C 0.61020 0.76167 0.31444
C30_6 C 0.59551 0.75754 0.18028
H6_6 H 0.64490 0.78771 0.85724
H13_6 H 0.69366 0.77595 0.99594
H16_6 H 0.64258 0.75901 0.75855
H17_6 H 0.62987 0.75627 0.97272
H18_6 H 0.64375 0.74820 0.97222
H22_6 H 0.64899 0.80682 0.29342
H23_6 H 0.63662 0.80642 0.50201
H24_6 H 0.63017 0.77823 0.58657
H25_6 H 0.64267 0.77841 0.37896
H26_6 H 0.60555 0.75802 0.47000
H27_6 H 0.61604 0.75444 0.26611
H28_6 H 0.59004 0.76506 0.23302
H29_6 H 0.58625 0.74424 0.19619
H36_6 H 0.62077 0.80960 0.08071
C37_6 C 0.66278 0.95341 0.11810
C38_6 C 0.66678 0.94192 0.04309
C41_6 C 0.66552 0.89016 0.52842
C42_6 C 0.65265 0.87431 0.48052
C43_6 C 0.65169 0.86016 0.56547
C44_6 C 0.66486 0.86169 0.68606
C45_6 C 0.67798 0.87756 0.72662
C46_6 C 0.67799 0.89174 0.66114
C47_6 C 0.66567 0.84715 0.76472
C48_6 C 0.67056 0.84665 0.96352
C49_6 C 0.66240 0.83403 0.63577
C50_6 C 0.66709 0.92951 0.17794
C51_6 C 0.66622 0.90456 0.42437
C52_6 C 0.68039 0.91505 0.31320
C53_6 C 0.68124 0.92788 0.19663
C54_6 C 0.65272 0.90736 0.42176
C55_6 C 0.65314 0.91946 0.29420
C56_6 C 0.69751 0.94016 0.10435
C57_6 C 0.63787 0.89812 0.55483
C58_6 C 0.69118 0.90804 0.74201
C59_6 C 0.63633 0.84392 0.52590
H39_6 H 0.65904 0.95259 0.27245
H42_6 H 0.64308 0.87297 0.37816
H43_6 H 0.68844 0.87895 0.80942
H44_6 H 0.65960 0.83473 0.48032
H45_6 H 0.69095 0.91329 0.31862
H46_6 H 0.64251 0.92112 0.28652
H47_6 H 0.70090 0.95279 0.15319
H48_6 H 0.70755 0.93785 0.15102
H50_6 H 0.63968 0.89071 0.67072
H51_6 H 0.63538 0.90703 0.63510
H52_6 H 0.62697 0.88989 0.46242
H53_6 H 0.69076 0.90765 0.90811
H54_6 H 0.70347 0.91039 0.69394
H55_6 H 0.68959 0.91846 0.69444
H56_6 H 0.63715 0.83919 0.37648
H57_6 H 0.63430 0.83472 0.64263
H58_6 H 0.62535 0.84549 0.52834
O7_6 O 0.60082 0.76099 0.97908
C31_6 C 0.58898 0.76211 0.85860
C32_6 C 0.59620 0.77965 0.77874
O8_6 O 0.60052 0.79086 0.94040
C33_6 C 0.61771 0.80155 0.94717
H30_6 H 0.58600 0.75361 0.72973
H31_6 H 0.57702 0.75838 0.93484
H32_6 H 0.60653 0.78234 0.67412
H33_6 H 0.58662 0.78032 0.68807
H34_6 H 0.62438 0.79458 0.96054
H35_6 H 0.62199 0.80955 0.81251
C34_6 C 0.66881 0.97942 0.65008
C35_6 C 0.66710 0.96627 0.78920
C36_6 C 0.66319 0.96578 0.99645
O9_6 O 0.67149 0.97866 0.46352
O20_6 O 0.69522 0.99666 0.16931
C39_6 C 0.67011 0.94209 0.83887
C40_6 C 0.67046 0.95418 0.71440
H38_6 H 0.69455 0.99599 0.02141
H40_6 H 0.67247 0.93285 0.77524
H41_6 H 0.67372 0.95419 0.55919
H49_6 H 0.69685 0.93954 0.93907
H74_6 H 0.70383 0.99275 0.11433
O16_5 O 0.00834 0.35710 0.24735
C3_7 C 0.00348 0.36755 0.33688
C4_7 C 0.00389 0.37992 0.21523
C22_7 C 0.01353 0.41387 0.03913
H2_7 H 0.00763 0.38074 0.06088
H9_7 H 0.02416 0.41221 0.04681
Mg4_3 Mg 0.01202 0.34101 0.40424
O11_3 O 0.00965 0.33461 0.95001
O22_7 O 0.04525 0.55459 0.03164
C62_7 C 0.05647 0.57166 0.01889
C63_7 C 0.07116 0.57579 0.15305
O23_7 O 0.06585 0.57234 0.35425
C64_7 C 0.07769 0.57122 0.47473
C65_7 C 0.07047 0.55368 0.55459
O24_7 O 0.06615 0.54247 0.39293
C66_7 C 0.04896 0.53178 0.38616
H59_7 H 0.01768 0.52651 0.03991
H64_7 H 0.05063 0.57889 0.06722
H65_7 H 0.07663 0.56827 0.10031
H66_7 H 0.08042 0.58909 0.13714
H67_7 H 0.08067 0.57972 0.60360
H68_7 H 0.08965 0.57495 0.39849
H69_7 H 0.06014 0.55099 0.65921
H70_7 H 0.08005 0.55301 0.64526
H71_7 H 0.04229 0.53875 0.37279
H72_7 H 0.04468 0.52378 0.52082
H73_7 H 0.04590 0.52373 0.25262
C1_7 C 0.02272 0.33547 0.01658
O1_7 O 0.02616 0.33815 0.20314
O4_7 O 0.03189 0.36188 0.49735
H1_7 H 0.03189 0.36121 0.64525
H4_7 H 0.05286 0.34038 0.10747
H37_7 H 0.04441 0.37049 0.55233
O16_6 O 0.01543 0.32499 0.58068
C2_7 C 0.03416 0.33376 0.87746
C3_8 C 0.03074 0.32985 0.67021
C4_8 C 0.04270 0.32944 0.54856
C5_7 C 0.05819 0.33344 0.62357
C6_7 C 0.06135 0.33677 0.82779
C7_7 C 0.04961 0.33712 0.95226
C8_7 C 0.10869 0.33218 0.13824
C9_7 C 0.11167 0.31931 0.18614
C10_7 C 0.12486 0.31835 0.10119
C13_7 C 0.11958 0.34465 0.00552
C16_7 C 0.16170 0.32906 0.03089
C17_7 C 0.07091 0.33375 0.48872
C18_7 C 0.09499 0.33288 0.24229
C19_7 C 0.09867 0.34705 0.35346
C20_7 C 0.08669 0.34790 0.47003
C21_7 C 0.07869 0.31938 0.24490
C22_8 C 0.06701 0.31980 0.37246
C23_7 C 0.09068 0.36417 0.56231
C24_7 C 0.07308 0.30453 0.11183
C26_7 C 0.12574 0.30299 0.14076
H2_8 H 0.03978 0.32570 0.39421
H3_7 H 0.07295 0.33913 0.89142
H5_7 H 0.10344 0.30974 0.28850
H7_7 H 0.15820 0.32626 0.18634
H8_7 H 0.11099 0.35761 0.34804
H9_8 H 0.05472 0.30917 0.38014
H10_7 H 0.08144 0.36756 0.51347
H11_7 H 0.10303 0.37421 0.51564
H12_7 H 0.09064 0.36351 0.72759
H14_7 H 0.06168 0.30204 0.03156
H15_7 H 0.07041 0.29363 0.20424
H19_7 H 0.13129 0.30381 0.29018
H20_7 H 0.13291 0.30096 0.02403
H21_7 H 0.11319 0.29201 0.13832
O21_7 O 0.18546 0.32558 0.09471
C60_7 C 0.17628 0.31146 0.22071
C61_7 C 0.18486 0.30134 0.23243
O22_8 O 0.17601 0.28808 0.36497
C62_8 C 0.18186 0.27686 0.35222
C63_8 C 0.17130 0.26217 0.48638
O23_8 O 0.17316 0.26748 0.68758
C64_8 C 0.16020 0.25564 0.80806
C65_8 C 0.14988 0.26286 0.88792
O24_8 O 0.14299 0.26718 0.72626
C66_8 C 0.14949 0.28437 0.71949
H59_8 H 0.17550 0.31565 0.37324
H60_7 H 0.16353 0.30328 0.16465
H61_7 H 0.18527 0.29683 0.08009
H62_7 H 0.19759 0.30933 0.28770
H63_7 H 0.18086 0.27221 0.19666
H64_8 H 0.19493 0.28270 0.40055
H65_8 H 0.15831 0.25670 0.43364
H66_8 H 0.17534 0.25291 0.47047
H67_8 H 0.16572 0.25266 0.93693
H68_8 H 0.15197 0.24368 0.73182
H69_8 H 0.15752 0.27319 0.99254
H70_8 H 0.13963 0.25328 0.97859
H71_8 H 0.16313 0.29104 0.70612
H72_8 H 0.14577 0.28865 0.85415
H73_8 H 0.14450 0.28743 0.58595
C8_8 C 0.00115 0.44317 0.80491
C9_8 C 0.01402 0.45902 0.85281
C10_8 C 0.01498 0.47317 0.76786
C11_7 C 0.00181 0.47164 0.64727
C14_7 C 0.00100 0.48618 0.56861
C16_8 C 0.00427 0.49930 0.69756
C18_8 C 0.00045 0.42877 0.90896
C21_8 C 0.01395 0.42597 0.91157
C24_8 C 0.02880 0.43521 0.77850
C26_8 C 0.03034 0.48941 0.80743
H5_8 H 0.02359 0.46036 0.95517
H7_8 H 0.00707 0.49860 0.85301
H13_7 H 0.02699 0.44262 0.66261
H14_8 H 0.03129 0.42630 0.69823
H15_8 H 0.03970 0.44344 0.87091
H19_8 H 0.02952 0.49414 0.95685
H20_8 H 0.03237 0.49861 0.69070
H21_8 H 0.04132 0.48784 0.80499
C45_7 C 0.01131 0.54423 0.39329
C46_7 C 0.01132 0.55841 0.32781
C48_7 C 0.00389 0.51332 0.63019
C58_7 C 0.02451 0.57471 0.40868
O21_8 O 0.00775 0.52654 0.76138
C60_8 C 0.02187 0.53148 0.88738
C61_8 C 0.03199 0.55018 0.89910
H43_7 H 0.02177 0.54562 0.47609
H53_7 H 0.02409 0.57432 0.57478
H54_7 H 0.03680 0.57706 0.36061
H55_7 H 0.02292 0.58513 0.36111
H60_8 H 0.03005 0.52691 0.83132
H61_8 H 0.03650 0.55510 0.74676
H62_8 H 0.02400 0.55492 0.95437
H63_8 H 0.06112 0.57531 0.86333
C34_7 C 0.00214 0.64609 0.31675
C35_7 C 0.00043 0.63294 0.45587
Mg6_3 Mg 0.00434 0.67868 0.26242
Mg8_3 Mg 0.00768 0.66233 0.92909
O9_7 O 0.00482 0.64533 0.13019
O10_3 O 0.00128 0.65830 0.38332
O19_5 O 0.02377 0.68209 0.08598
C38_7 C 0.00011 0.60859 0.70976
C39_7 C 0.00344 0.60876 0.50554
C40_7 C 0.00379 0.62085 0.38107
C50_7 C 0.00042 0.59618 0.84461
C52_7 C 0.01372 0.58172 0.97987
C53_7 C 0.01457 0.59455 0.86330
C56_7 C 0.03084 0.60683 0.77102
H40_7 H 0.00580 0.59952 0.44191
H41_7 H 0.00705 0.62086 0.22586
H45_7 H 0.02428 0.57996 0.98529
H47_7 H 0.03423 0.61946 0.81986
H48_7 H 0.04088 0.60452 0.81769
H49_7 H 0.03018 0.60621 0.60574
O14_3 O 0.00837 0.67631 0.71665
O20_7 O 0.02855 0.66333 0.83598
H38_7 H 0.02788 0.66266 0.68808
H74_7 H 0.03716 0.65942 0.78100
C11_8 C 0.19503 0.86350 0.98060
C12_7 C 0.21090 0.86625 0.94004
C14_8 C 0.18049 0.84815 0.90194
C15_7 C 0.17999 0.84276 0.70314
C25_7 C 0.24138 0.88353 0.92465
O5_7 O 0.19321 0.85212 0.57195
C27_7 C 0.19815 0.84294 0.44595
C28_7 C 0.21685 0.85152 0.43423
O6_7 O 0.22126 0.84267 0.30169
C29_7 C 0.23833 0.84852 0.31444
C30_7 C 0.24246 0.83796 0.18028
H6_7 H 0.21229 0.85718 0.85724
H13_8 H 0.22405 0.91770 0.99594
H16_7 H 0.24099 0.88356 0.75855
H17_7 H 0.24373 0.87359 0.97272
H18_7 H 0.25180 0.89554 0.97222
H22_7 H 0.19318 0.84216 0.29342
H23_7 H 0.19358 0.83019 0.50201
H24_7 H 0.22177 0.85193 0.58657
H25_7 H 0.22159 0.86425 0.37896
H26_7 H 0.24198 0.84752 0.47000
H27_7 H 0.24556 0.86159 0.26611
H28_7 H 0.23494 0.82497 0.23302
H29_7 H 0.25576 0.84200 0.19619
H36_7 H 0.19040 0.81116 0.08071
C37_7 C 0.04659 0.70936 0.11810
C38_8 C 0.05808 0.72485 0.04309
C41_7 C 0.10984 0.77535 0.52842
C42_7 C 0.12569 0.77833 0.48052
C43_7 C 0.13984 0.79152 0.56547
C44_7 C 0.13831 0.80316 0.68606
C45_8 C 0.12244 0.80041 0.72662
C46_8 C 0.10826 0.78624 0.66114
C47_7 C 0.15285 0.81851 0.76472
C48_8 C 0.15335 0.82390 0.96352
C49_7 C 0.16597 0.82836 0.63577
C50_8 C 0.07049 0.73757 0.17794
C51_7 C 0.09544 0.76165 0.42437
C52_8 C 0.08495 0.76533 0.31320
C53_8 C 0.07212 0.75335 0.19663
C54_7 C 0.09264 0.74535 0.42176
C55_7 C 0.08054 0.73367 0.29420
C56_8 C 0.05984 0.75734 0.10435
C57_7 C 0.10188 0.73974 0.55483
C58_8 C 0.09196 0.78313 0.74201
C59_7 C 0.15608 0.79240 0.52590
H39_7 H 0.04741 0.70644 0.27245
H42_7 H 0.12703 0.77010 0.37816
H43_8 H 0.12105 0.80948 0.80942
H44_7 H 0.16527 0.82486 0.48032
H45_8 H 0.08671 0.77765 0.31862
H46_7 H 0.07888 0.72138 0.28652
H47_8 H 0.04721 0.74810 0.15319
H48_8 H 0.06215 0.76969 0.15102
H50_7 H 0.10929 0.74896 0.67072
H51_7 H 0.09297 0.72834 0.63510
H52_7 H 0.11011 0.73707 0.46242
H53_8 H 0.09235 0.78310 0.90811
H54_8 H 0.08961 0.79307 0.69394
H55_8 H 0.08154 0.77112 0.69444
H56_7 H 0.16081 0.79795 0.37648
H57_7 H 0.16528 0.79957 0.64263
H58_7 H 0.15451 0.77985 0.52834
O7_7 O 0.23901 0.83982 0.97908
C31_7 C 0.23789 0.82686 0.85860
C32_7 C 0.22035 0.81654 0.77874
O8_7 O 0.20914 0.80965 0.94040
C33_7 C 0.19845 0.81615 0.94717
H30_7 H 0.24639 0.83238 0.72973
H31_7 H 0.24162 0.81863 0.93484
H32_7 H 0.21766 0.82418 0.67412
H33_7 H 0.21968 0.80629 0.68807
H34_7 H 0.20542 0.82979 0.96054
H35_7 H 0.19045 0.81243 0.81251
C34_8 C 0.02058 0.68938 0.65008
C35_8 C 0.03373 0.70082 0.78920
C36_7 C 0.03422 0.69740 0.99645
O9_8 O 0.02134 0.69282 0.46352
O20_8 O 0.00334 0.69855 0.16931
C39_8 C 0.05791 0.72801 0.83887
C40_8 C 0.04582 0.71627 0.71440
H38_8 H 0.00401 0.69855 0.02141
H40_8 H 0.06715 0.73961 0.77524
H41_8 H 0.04581 0.71952 0.55919
H49_8 H 0.06046 0.75730 0.93907
H74_8 H 0.00725 0.71107 0.11433
Mg1_3 Mg 0.99232 0.33767 0.07091
O4_8 O 0.97145 0.33667 0.16402
H1_8 H 0.97212 0.33734 0.31192
H37_8 H 0.96284 0.34058 0.21900
O12_3 O 0.99163 0.32369 0.28335
C1_8 C 0.99786 0.35391 0.68325
C2_8 C 0.99957 0.36706 0.54413
O1_8 O 0.99518 0.35467 0.86981
O2_3 O 0.99872 0.34170 0.61668
C5_8 C 0.99989 0.39141 0.29024
C6_8 C 0.99656 0.39124 0.49446
C7_8 C 0.99621 0.37915 0.61893
C17_8 C 0.99958 0.40382 0.15539
C19_8 C 0.98628 0.41828 0.02013
C20_8 C 0.98543 0.40545 0.13670
C23_8 C 0.96916 0.39317 0.22898
H3_8 H 0.99420 0.40048 0.55809
H4_8 H 0.99295 0.37914 0.77414
H8_8 H 0.97572 0.42004 0.01471
H10_8 H 0.96577 0.38054 0.18014
H11_8 H 0.95912 0.39548 0.18231
H12_8 H 0.96982 0.39379 0.39426
Mg3_3 Mg 0.99566 0.32132 0.73758
O17_3 O 0.97623 0.31791 0.91402
C1_9 C 0.97942 0.31062 0.34992
C2_9 C 0.96627 0.29918 0.21080
C3_9 C 0.96578 0.30260 0.00355
O1_9 O 0.97866 0.30718 0.53648
O4_9 O 0.99666 0.30145 0.83069
C6_9 C 0.94209 0.27199 0.16113
C7_9 C 0.95418 0.28373 0.28560
H1_9 H 0.99599 0.30145 0.97859
H3_9 H 0.93285 0.26039 0.22476
H4_9 H 0.95419 0.28048 0.44081
H12_9 H 0.93954 0.24270 0.06093
H37_9 H 0.99275 0.28893 0.88567
O23_9 O 0.76099 0.16018 0.02092
C64_9 C 0.76211 0.17314 0.14140
C65_9 C 0.77965 0.18346 0.22126
O24_9 O 0.79086 0.19035 0.05960
C66_9 C 0.80155 0.18385 0.05283
H67_9 H 0.75361 0.16762 0.27027
H68_9 H 0.75838 0.18137 0.06516
H69_9 H 0.78234 0.17582 0.32588
H70_9 H 0.78032 0.19371 0.31193
H71_9 H 0.79458 0.17021 0.03946
H72_9 H 0.80955 0.18757 0.18749
C4_9 C 0.95341 0.29064 0.88190
C5_9 C 0.94192 0.27515 0.95691
C8_9 C 0.89016 0.22465 0.47158
C9_9 C 0.87431 0.22167 0.51948
C10_9 C 0.86016 0.20848 0.43453
C11_9 C 0.86169 0.19684 0.31394
C12_8 C 0.87756 0.19959 0.27338
C13_8 C 0.89174 0.21376 0.33886
C14_9 C 0.84715 0.18149 0.23528
C15_8 C 0.84665 0.17610 0.03648
C16_9 C 0.83403 0.17164 0.36423
C17_9 C 0.92951 0.26243 0.82206
C18_9 C 0.90456 0.23835 0.57563
C19_9 C 0.91505 0.23467 0.68680
C20_9 C 0.92788 0.24665 0.80337
C21_9 C 0.90736 0.25465 0.57824
C22_9 C 0.91946 0.26633 0.70580
C23_9 C 0.94016 0.24266 0.89565
C24_9 C 0.89812 0.26026 0.44517
C25_8 C 0.90804 0.21687 0.25799
C26_9 C 0.84392 0.20760 0.47410
H2_9 H 0.95259 0.29356 0.72755
H5_9 H 0.87297 0.22990 0.62184
H6_8 H 0.87895 0.19052 0.19058
H7_9 H 0.83473 0.17514 0.51968
H8_9 H 0.91329 0.22235 0.68138
H9_9 H 0.92112 0.27862 0.71348
H10_9 H 0.95279 0.25190 0.84681
H11_9 H 0.93785 0.23031 0.84898
H13_9 H 0.89071 0.25104 0.32928
H14_9 H 0.90703 0.27166 0.36490
H15_9 H 0.88989 0.26293 0.53758
H16_8 H 0.90765 0.21690 0.09189
H17_8 H 0.91039 0.20693 0.30606
H18_8 H 0.91846 0.22888 0.30556
H19_9 H 0.83919 0.20205 0.62352
H20_9 H 0.83472 0.20043 0.35737
H21_9 H 0.84549 0.22015 0.47166
C44_8 C 0.80497 0.13650 0.01940
C45_9 C 0.78910 0.13375 0.05996
C47_8 C 0.81951 0.15185 0.09806
C48_9 C 0.82001 0.15724 0.29686
C58_9 C 0.75862 0.11647 0.07535
O21_9 O 0.80679 0.14788 0.42805
C60_9 C 0.80185 0.15706 0.55405
C61_9 C 0.78315 0.14848 0.56577
O22_9 O 0.77874 0.15733 0.69831
C62_9 C 0.76167 0.15148 0.68556
C63_9 C 0.75754 0.16204 0.81972
H43_9 H 0.78771 0.14282 0.14276
H50_8 H 0.77595 0.08230 0.00406
H53_9 H 0.75901 0.11644 0.24145
H54_9 H 0.75627 0.12641 0.02728
H55_9 H 0.74820 0.10446 0.02778
H59_9 H 0.80682 0.15784 0.70658
H60_9 H 0.80642 0.16981 0.49799
H61_9 H 0.77823 0.14807 0.41343
H62_9 H 0.77841 0.13575 0.62104
H63_9 H 0.75802 0.15248 0.53000
H64_9 H 0.75444 0.13841 0.73389
H65_9 H 0.76506 0.17503 0.76698
H66_9 H 0.74424 0.15800 0.80381
H73_9 H 0.80960 0.18884 0.91929
C12_9 C 0.98869 0.45577 0.60671
C13_9 C 0.98868 0.44159 0.67219
C15_9 C 0.99611 0.48668 0.36981
C25_9 C 0.97549 0.42529 0.59132
O5_8 O 0.99225 0.47346 0.23862
C27_8 C 0.97813 0.46852 0.11262
C28_8 C 0.96801 0.44982 0.10090
H6_9 H 0.97823 0.45438 0.52391
H16_9 H 0.97591 0.42568 0.42522
H17_9 H 0.96320 0.42294 0.63939
H18_9 H 0.97708 0.41487 0.63889
H23_8 H 0.96995 0.47309 0.16868
H24_8 H 0.96350 0.44490 0.25324
H25_8 H 0.97600 0.44508 0.04563
H26_8 H 0.93888 0.42469 0.13667
C41_8 C 0.99885 0.55683 0.19509
C42_8 C 0.98598 0.54098 0.14719
C43_8 C 0.98502 0.52683 0.23214
C44_9 C 0.99819 0.52836 0.35273
C47_9 C 0.99900 0.51382 0.43139
C49_8 C 0.99573 0.50070 0.30244
C51_8 C 0.99955 0.57123 0.09104
C54_8 C 0.98605 0.57403 0.08843
C57_8 C 0.97120 0.56479 0.22150
C59_8 C 0.96966 0.51059 0.19257
H42_8 H 0.97641 0.53964 0.04483
H44_8 H 0.99293 0.50140 0.14699
H50_9 H 0.97301 0.55738 0.33739
H51_8 H 0.96871 0.57370 0.30177
H52_8 H 0.96030 0.55656 0.12909
H56_8 H 0.97048 0.50586 0.04315
H57_8 H 0.96763 0.50139 0.30930
H58_8 H 0.95868 0.51216 0.19501
O6_8 O 0.95475 0.44541 0.96836
C29_8 C 0.94353 0.42834 0.98111
C30_8 C 0.92884 0.42421 0.84695
O7_8 O 0.93415 0.42766 0.64575
C31_8 C 0.92231 0.42878 0.52527
C32_8 C 0.92953 0.44632 0.44541
O8_8 O 0.93385 0.45753 0.60707
C33_8 C 0.95104 0.46822 0.61384
H22_8 H 0.98232 0.47349 0.96009
H27_8 H 0.94937 0.42111 0.93278
H28_8 H 0.92337 0.43173 0.89969
H29_8 H 0.91958 0.41091 0.86286
H30_8 H 0.91933 0.42028 0.39640
H31_8 H 0.91035 0.42505 0.60151
H32_8 H 0.93986 0.44901 0.34079
H33_8 H 0.91995 0.44699 0.35474
H34_8 H 0.95771 0.46125 0.62721
H35_8 H 0.95532 0.47622 0.47918
H36_8 H 0.95410 0.47627 0.74738
C36_8 C 0.99652 0.63245 0.66312
Mg7_3 Mg 0.98798 0.65899 0.59576
O13_3 O 0.99035 0.66539 0.04999
O15_3 O 0.99166 0.64290 0.75265
C37_8 C 0.99611 0.62008 0.78477
C55_8 C 0.98647 0.58613 0.96087
H39_8 H 0.99237 0.61926 0.93912
H46_8 H 0.97584 0.58779 0.95319
O19_6 O 0.98457 0.67501 0.41932
O5_9 O 0.81454 0.67442 0.90529
C27_9 C 0.82372 0.68854 0.77929
C28_9 C 0.81514 0.69866 0.76757
O6_9 O 0.82399 0.71192 0.63503
C29_9 C 0.81814 0.72314 0.64778
C30_9 C 0.82870 0.73783 0.51362
O7_9 O 0.82684 0.73252 0.31242
C31_9 C 0.83980 0.74436 0.19194
C32_9 C 0.85012 0.73714 0.11208
O8_9 O 0.85701 0.73282 0.27374
C33_9 C 0.85051 0.71563 0.28051
H22_9 H 0.82450 0.68435 0.62676
H23_9 H 0.83647 0.69672 0.83535
H24_9 H 0.81473 0.70317 0.91991
H25_9 H 0.80241 0.69067 0.71230
H26_9 H 0.81914 0.72779 0.80334
H27_9 H 0.80507 0.71730 0.59945
H28_9 H 0.84169 0.74330 0.56636
H29_9 H 0.82466 0.74709 0.52953
H30_9 H 0.83428 0.74734 0.06307
H31_9 H 0.84803 0.75632 0.26818
H32_9 H 0.84248 0.72681 0.00746
H33_9 H 0.86037 0.74672 0.02141
H34_9 H 0.83687 0.70896 0.29388
H35_9 H 0.85423 0.71135 0.14585
H36_9 H 0.85550 0.71257 0.41405
C35_9 C 0.96584 0.66624 0.12254
C36_9 C 0.96926 0.67015 0.32979
C37_9 C 0.95730 0.67056 0.45144
C38_9 C 0.94181 0.66656 0.37643
C39_9 C 0.93865 0.66323 0.17221
C40_9 C 0.95039 0.66288 0.04774
C41_9 C 0.89131 0.66782 0.86176
C42_9 C 0.88833 0.68069 0.81386
C43_9 C 0.87514 0.68165 0.89881
C46_9 C 0.88042 0.65535 0.99448
C49_9 C 0.83830 0.67094 0.96911
C50_9 C 0.92909 0.66625 0.51128
C51_9 C 0.90501 0.66712 0.75771
C52_9 C 0.90133 0.65295 0.64654
C53_9 C 0.91331 0.65210 0.52997
C54_9 C 0.92131 0.68062 0.75510
C55_9 C 0.93299 0.68020 0.62754
C56_9 C 0.90932 0.63583 0.43769
C57_9 C 0.92692 0.69547 0.88817
C59_9 C 0.87426 0.69701 0.85924
H39_9 H 0.96022 0.67430 0.60579
H40_9 H 0.92705 0.66087 0.10858
H42_9 H 0.89656 0.69026 0.71150
H44_9 H 0.84180 0.67374 0.81366
H45_9 H 0.88901 0.64239 0.65196
H46_9 H 0.94528 0.69083 0.61986
H47_9 H 0.91856 0.63244 0.48653
H48_9 H 0.89697 0.62579 0.48436
H49_9 H 0.90936 0.63649 0.27241
H51_9 H 0.93832 0.69796 0.96844
H52_9 H 0.92959 0.70637 0.79576
H56_9 H 0.86871 0.69619 0.70982
H57_9 H 0.86709 0.69904 0.97597
H58_9 H 0.88681 0.70799 0.86168
C34_9 C 0.97728 0.66453 0.98342
O9_9 O 0.97384 0.66185 0.79686
O20_9 O 0.96811 0.63812 0.50265
H38_9 H 0.96811 0.63879 0.35475
H41_9 H 0.94714 0.65962 0.89253
H74_9 H 0.95559 0.62951 0.44767
loop_
_geom_bond_atom_site_label_1
_geom_bond_atom_site_label_2
_geom_bond_site_symmetry_1
_geom_bond_site_symmetry_2
O4 Mg1 1_555 1_555
H1 O4 1_555 1_555
H37 O4 1_555 1_555
O12 Mg1 1_555 1_555
O16 Mg1 1_555 1_555
C1 C2 1_555 1_555
C2 C3 1_555 1_555
C3 O16 1_555 1_555
O1 C1 1_555 1_555
O2 C1 1_555 1_555
O16 Mg4 1_555 1_555
C4 C3 1_555 1_555
C5 C4 1_555 1_555
C6 C5 1_555 1_555
C7 C2 1_555 1_555
C17 C5 1_555 1_555
C20 C17 1_555 1_555
C22 C17 1_555 1_555
C23 C20 1_555 1_555
H2 C4 1_555 1_555
H3 C6 1_555 1_555
H4 C7 1_555 1_555
H8 C19 1_555 1_555
H9 C22 1_555 1_555
H10 C23 1_555 1_555
H11 C23 1_555 1_555
H12 C23 1_555 1_555
Mg3 O2 1_555 1_555
Mg4 O2 1_555 1_555
C62 O22 1_555 1_555
C63 C62 1_555 1_555
O23 C63 1_555 1_555
C64 O23 1_555 1_555
C65 C64 1_555 1_555
O24 C65 1_555 1_555
C66 O24 1_555 1_555
H64 C62 1_555 1_555
H65 C63 1_555 1_555
H66 C63 1_555 1_555
H67 C64 1_555 1_555
H68 C64 1_555 1_555
H69 C65 1_555 1_555
H70 C65 1_555 1_555
H71 C66 1_555 1_555
H72 C66 1_555 1_555
H73 C66 1_555 1_555
C6 C7 1_555 1_555
C19 C20 1_555 1_555
Mg3 O11 1_555 1_555
Mg3 O17 1_555 1_555
Mg4 O1_2 1_555 1_555
O1_2 C1_2 1_555 1_555
O4_2 Mg4 1_555 1_555
H1_2 O4_2 1_555 1_555
H37_2 O4_2 1_555 1_555
O12 Mg4 1_555 1_555
O16_2 Mg4 1_555 1_555
C2_2 C3_2 1_555 1_555
C3_2 O16_2 1_555 1_555
O16_2 Mg3 1_555 1_555
C4_2 C3_2 1_555 1_555
C5_2 C4_2 1_555 1_555
C6_2 C5_2 1_555 1_555
C7_2 C2_2 1_555 1_555
C8 C9 1_555 1_555
C9 C10 1_555 1_555
C13 C8 1_555 1_555
C17_2 C5_2 1_555 1_555
C18 C8 1_555 1_555
C19_2 C18 1_555 1_555
C20_2 C17_2 1_555 1_555
C21 C18 1_555 1_555
C22_2 C17_2 1_555 1_555
C23_2 C20_2 1_555 1_555
C24 C21 1_555 1_555
C26 C10 1_555 1_555
H2_2 C4_2 1_555 1_555
H3_2 C6_2 1_555 1_555
H5 C9 1_555 1_555
H7 C16 1_555 1_555
H8_2 C19_2 1_555 1_555
H9_2 C22_2 1_555 1_555
H10_2 C23_2 1_555 1_555
H11_2 C23_2 1_555 1_555
H12_2 C23_2 1_555 1_555
H14 C24 1_555 1_555
H15 C24 1_555 1_555
H19 C26 1_555 1_555
H20 C26 1_555 1_555
H21 C26 1_555 1_555
C60 O21 1_555 1_555
C61 C60 1_555 1_555
O22_2 C61 1_555 1_555
C62_2 O22_2 1_555 1_555
C63_2 C62_2 1_555 1_555
O23_2 C63_2 1_555 1_555
C64_2 O23_2 1_555 1_555
C65_2 C64_2 1_555 1_555
O24_2 C65_2 1_555 1_555
C66_2 O24_2 1_555 1_555
H59_2 C60 1_555 1_555
H60 C60 1_555 1_555
H61 C61 1_555 1_555
H62 C61 1_555 1_555
H63 C62_2 1_555 1_555
H64_2 C62_2 1_555 1_555
H65_2 C63_2 1_555 1_555
H66_2 C63_2 1_555 1_555
H67_2 C64_2 1_555 1_555
H68_2 C64_2 1_555 1_555
H69_2 C65_2 1_555 1_555
H70_2 C65_2 1_555 1_555
H71_2 C66_2 1_555 1_555
H72_2 C66_2 1_555 1_555
H73_2 C66_2 1_555 1_555
C6_2 C7_2 1_555 1_555
C19_2 C20_2 1_555 1_555
C21 C22_2 1_555 1_555
C1_3 C2_3 1_555 1_555
C2_3 C3_3 1_555 1_555
Mg3 O1_3 1_555 1_555
O1_3 C1_3 1_555 1_555
O12 C1_3 1_555 1_555
O4_3 Mg3 1_555 1_555
C7_3 C2_3 1_555 1_555
H1_3 O4_3 1_555 1_555
H3_3 C6_3 1_555 1_555
H4_3 C7_3 1_555 1_555
H37_3 O4_3 1_555 1_555
C64_3 O23_3 1_555 1_555
C65_3 C64_3 1_555 1_555
O24_3 C65_3 1_555 1_555
C66_3 O24_3 1_555 1_555
H67_3 C64_3 1_555 1_555
H68_3 C64_3 1_555 1_555
H69_3 C65_3 1_555 1_555
H70_3 C65_3 1_555 1_555
H71_3 C66_3 1_555 1_555
H72_3 C66_3 1_555 1_555
C6_3 C7_3 1_555 1_555
C5_3 C4_3 1_555 1_555
C8_2 C9_2 1_555 1_555
C9_2 C10_2 1_555 1_555
C10_2 C11 1_555 1_555
C11 C12 1_555 1_555
C12 C13_2 1_555 1_555
C13_2 C8_2 1_555 1_555
C14 C11 1_555 1_555
C15 C14 1_555 1_555
C16_2 C14 1_555 1_555
C17_3 C5_3 1_555 1_555
C18_2 C8_2 1_555 1_555
C19_3 C18_2 1_555 1_555
C20_3 C17_3 1_555 1_555
C21_2 C18_2 1_555 1_555
C22_3 C17_3 1_555 1_555
C23_3 C20_3 1_555 1_555
C24_2 C21_2 1_555 1_555
C25 C13_2 1_555 1_555
C26_2 C10_2 1_555 1_555
H2_3 C4_3 1_555 1_555
H5_2 C9_2 1_555 1_555
H6 C12 1_555 1_555
H7_2 C16_2 1_555 1_555
H8_3 C19_3 1_555 1_555
H9_3 C22_3 1_555 1_555
H10_3 C23_3 1_555 1_555
H11_3 C23_3 1_555 1_555
H13 C24_2 1_555 1_555
H14_2 C24_2 1_555 1_555
H15_2 C24_2 1_555 1_555
H16 C25 1_555 1_555
H17 C25 1_555 1_555
H18 C25 1_555 1_555
H19_2 C26_2 1_555 1_555
H20_2 C26_2 1_555 1_555
H21_2 C26_2 1_555 1_555
C44 C45 1_555 1_555
C47 C44 1_555 1_555
C48 C16_2 1_555 1_555
O21_2 C48 1_555 1_555
C60_2 O21_2 1_555 1_555
C61_2 C60_2 1_555 1_555
O22_3 C61_2 1_555 1_555
C62_3 O22_3 1_555 1_555
C63_3 C62_3 1_555 1_555
H43 C45 1_555 1_555
H53 C58 1_555 1_555
H54 C58 1_555 1_555
H55 C58 1_555 1_555
H59_3 C60_2 1_555 1_555
H60_2 C60_2 1_555 1_555
H61_2 C61_2 1_555 1_555
H62_2 C61_2 1_555 1_555
H63_2 C62_3 1_555 1_555
H64_3 C62_3 1_555 1_555
H65_3 C63_3 1_555 1_555
H66_3 C63_3 1_555 1_555
C19_3 C20_3 1_555 1_555
C21_2 C22_3 1_555 1_555
C47 C48 1_555 1_555
C8_3 C9_3 1_555 1_555
C9_3 C10_3 1_555 1_555
C10_3 C11_2 1_555 1_555
C11_2 C12_2 1_555 1_555
C12_2 C13_3 1_555 1_555
C13_3 C8_3 1_555 1_555
C14_2 C11_2 1_555 1_555
C15_2 C14_2 1_555 1_555
C16_3 C14_2 1_555 1_555
C18_3 C8_3 1_555 1_555
C21_3 C18_3 1_555 1_555
C24_3 C21_3 1_555 1_555
C25_2 C13_3 1_555 1_555
C26_3 C10_3 1_555 1_555
O5 C15_2 1_555 1_555
C27 O5 1_555 1_555
C28 C27 1_555 1_555
H5_3 C9_3 1_555 1_555
H6_2 C12_2 1_555 1_555
H7_3 C16_3 1_555 1_555
H13_2 C24_3 1_555 1_555
H14_3 C24_3 1_555 1_555
H15_3 C24_3 1_555 1_555
H16_2 C25_2 1_555 1_555
H17_2 C25_2 1_555 1_555
H18_2 C25_2 1_555 1_555
H19_3 C26_3 1_555 1_555
H20_3 C26_3 1_555 1_555
H21_3 C26_3 1_555 1_555
H23 C27 1_555 1_555
H24 C28 1_555 1_555
H25 C28 1_555 1_555
C41 C42 1_555 1_555
C42 C43 1_555 1_555
C43 C44_2 1_555 1_555
C44_2 C45_2 1_555 1_555
C45_2 C46 1_555 1_555
C46 C41 1_555 1_555
C47_2 C44_2 1_555 1_555
C48_2 C16_3 1_555 1_555
C49 C15_2 1_555 1_555
C51 C41 1_555 1_555
C54 C51 1_555 1_555
C57 C54 1_555 1_555
C58_2 C46 1_555 1_555
C59 C43 1_555 1_555
O21_3 C48_2 1_555 1_555
C60_3 O21_3 1_555 1_555
C61_3 C60_3 1_555 1_555
H42 C42 1_555 1_555
H43_2 C45_2 1_555 1_555
H44 C49 1_555 1_555
H50_2 C57 1_555 1_555
H51 C57 1_555 1_555
H52 C57 1_555 1_555
H53_2 C58_2 1_555 1_555
H54_2 C58_2 1_555 1_555
H55_2 C58_2 1_555 1_555
H56 C59 1_555 1_555
H57 C59 1_555 1_555
H58 C59 1_555 1_555
H60_3 C60_3 1_555 1_555
H61_3 C61_3 1_555 1_555
H62_3 C61_3 1_555 1_555
C47_2 C48_2 1_555 1_555
C47_2 C49 1_555 1_555
C29 O6 1_555 1_555
C30 C29 1_555 1_555
O7 C30 1_555 1_555
C31 O7 1_555 1_555
C32 C31 1_555 1_555
O8 C32 1_555 1_555
C33 O8 1_555 1_555
H27 C29 1_555 1_555
H28 C30 1_555 1_555
H29 C30 1_555 1_555
H30 C31 1_555 1_555
H31 C31 1_555 1_555
H32 C32 1_555 1_555
H33 C32 1_555 1_555
H34 C33 1_555 1_555
H35 C33 1_555 1_555
H36 C33 1_555 1_555
C34 C35 1_555 1_555
C35 C36 1_555 1_555
C36 O15 1_555 1_555
Mg6 O10 1_555 1_555
Mg7 O10 1_555 1_555
Mg8 O15 1_555 1_555
O9 C34 1_555 1_555
O10 C34 1_555 1_555
O15 Mg7 1_555 1_555
C37 C36 1_555 1_555
C38 C37 1_555 1_555
C39 C38 1_555 1_555
C40 C35 1_555 1_555
C50 C38 1_555 1_555
C53 C50 1_555 1_555
C55 C50 1_555 1_555
C56 C53 1_555 1_555
H39 C37 1_555 1_555
H40 C39 1_555 1_555
H41 C40 1_555 1_555
H45 C52 1_555 1_555
H46 C55 1_555 1_555
H47 C56 1_555 1_555
H48 C56 1_555 1_555
H49 C56 1_555 1_555
Mg6 O13 1_555 1_555
Mg6 O19 1_555 1_555
C39 C40 1_555 1_555
C52 C53 1_555 1_555
O14 Mg8 1_555 1_555
O20 Mg8 1_555 1_555
H38 O20 1_555 1_555
H74 O20 1_555 1_555
C11_3 C12_3 1_555 1_555
C14_3 C11_3 1_555 1_555
C15_3 C14_3 1_555 1_555
O5_2 C15_3 1_555 1_555
C27_2 O5_2 1_555 1_555
C28_2 C27_2 1_555 1_555
O6_2 C28_2 1_555 1_555
C29_2 O6_2 1_555 1_555
C30_2 C29_2 1_555 1_555
H6_3 C12_3 1_555 1_555
H16_3 C25_3 1_555 1_555
H17_3 C25_3 1_555 1_555
H18_3 C25_3 1_555 1_555
H22_2 C27_2 1_555 1_555
H23_2 C27_2 1_555 1_555
H24_2 C28_2 1_555 1_555
H25_2 C28_2 1_555 1_555
H26_2 C29_2 1_555 1_555
H27_2 C29_2 1_555 1_555
H28_2 C30_2 1_555 1_555
H29_2 C30_2 1_555 1_555
C38_2 C37_2 1_555 1_555
C41_2 C42_2 1_555 1_555
C42_2 C43_2 1_555 1_555
C43_2 C44_3 1_555 1_555
C44_3 C45_3 1_555 1_555
C45_3 C46_2 1_555 1_555
C46_2 C41_2 1_555 1_555
C47_3 C44_3 1_555 1_555
C49_2 C15_3 1_555 1_555
C50_2 C38_2 1_555 1_555
C51_2 C41_2 1_555 1_555
C52_2 C51_2 1_555 1_555
C53_2 C50_2 1_555 1_555
C54_2 C51_2 1_555 1_555
C55_2 C50_2 1_555 1_555
C56_2 C53_2 1_555 1_555
C57_2 C54_2 1_555 1_555
C58_3 C46_2 1_555 1_555
C59_2 C43_2 1_555 1_555
H39_2 C37_2 1_555 1_555
H42_2 C42_2 1_555 1_555
H43_3 C45_3 1_555 1_555
H44_2 C49_2 1_555 1_555
H45_2 C52_2 1_555 1_555
H46_2 C55_2 1_555 1_555
H47_2 C56_2 1_555 1_555
H48_2 C56_2 1_555 1_555
H50_3 C57_2 1_555 1_555
H51_2 C57_2 1_555 1_555
H52_2 C57_2 1_555 1_555
H53_3 C58_3 1_555 1_555
H54_3 C58_3 1_555 1_555
H55_3 C58_3 1_555 1_555
H56_2 C59_2 1_555 1_555
H57_2 C59_2 1_555 1_555
H58_2 C59_2 1_555 1_555
C47_3 C48_3 1_555 1_555
C47_3 C49_2 1_555 1_555
C52_2 C53_2 1_555 1_555
C54_2 C55_2 1_555 1_555
C31_2 O7_2 1_555 1_555
C32_2 C31_2 1_555 1_555
O8_2 C32_2 1_555 1_555
C33_2 O8_2 1_555 1_555
H30_2 C31_2 1_555 1_555
H31_2 C31_2 1_555 1_555
H32_2 C32_2 1_555 1_555
H33_2 C32_2 1_555 1_555
H34_2 C33_2 1_555 1_555
H35_2 C33_2 1_555 1_555
C34_2 C35_2 1_555 1_555
C35_2 C36_2 1_555 1_555
Mg6 O9_2 1_555 1_555
Mg7 O14 1_555 1_555
O9_2 C34_2 1_555 1_555
O14 C34_2 1_555 1_555
O19_2 Mg6 1_555 1_555
O20_2 Mg6 1_555 1_555
C40_2 C35_2 1_555 1_555
H38_2 O20_2 1_555 1_555
H40_2 C39_2 1_555 1_555
H41_2 C40_2 1_555 1_555
H74_2 O20_2 1_555 1_555
Mg7 O19_2 1_555 1_555
C39_2 C40_2 1_555 1_555
C27_3 O5_3 1_555 1_555
C28_3 C27_3 1_555 1_555
O6_3 C28_3 1_555 1_555
C29_3 O6_3 1_555 1_555
C30_3 C29_3 1_555 1_555
O7_3 C30_3 1_555 1_555
C31_3 O7_3 1_555 1_555
C32_3 C31_3 1_555 1_555
O8_3 C32_3 1_555 1_555
C33_3 O8_3 1_555 1_555
H22_3 C27_3 1_555 1_555
H23_3 C27_3 1_555 1_555
H24_3 C28_3 1_555 1_555
H25_3 C28_3 1_555 1_555
H26_3 C29_3 1_555 1_555
H27_3 C29_3 1_555 1_555
H28_3 C30_3 1_555 1_555
H29_3 C30_3 1_555 1_555
H30_3 C31_3 1_555 1_555
H31_3 C31_3 1_555 1_555
H32_3 C32_3 1_555 1_555
H33_3 C32_3 1_555 1_555
H34_3 C33_3 1_555 1_555
H35_3 C33_3 1_555 1_555
H36_3 C33_3 1_555 1_555
C35_3 C36_3 1_555 1_555
C36_3 O19_2 1_555 1_555
C37_3 C36_3 1_555 1_555
C38_3 C37_3 1_555 1_555
C39_3 C38_3 1_555 1_555
C40_3 C35_3 1_555 1_555
C41_3 C42_3 1_555 1_555
C42_3 C43_3 1_555 1_555
C46_3 C41_3 1_555 1_555
C50_3 C38_3 1_555 1_555
C51_3 C41_3 1_555 1_555
C52_3 C51_3 1_555 1_555
C53_3 C50_3 1_555 1_555
C54_3 C51_3 1_555 1_555
C55_3 C50_3 1_555 1_555
C56_3 C53_3 1_555 1_555
C57_3 C54_3 1_555 1_555
C59_3 C43_3 1_555 1_555
H39_3 C37_3 1_555 1_555
H40_3 C39_3 1_555 1_555
H42_3 C42_3 1_555 1_555
H44_3 C49_3 1_555 1_555
H45_3 C52_3 1_555 1_555
H46_3 C55_3 1_555 1_555
H47_3 C56_3 1_555 1_555
H48_3 C56_3 1_555 1_555
H49_3 C56_3 1_555 1_555
H51_3 C57_3 1_555 1_555
H52_3 C57_3 1_555 1_555
H56_3 C59_3 1_555 1_555
H57_3 C59_3 1_555 1_555
H58_3 C59_3 1_555 1_555
C39_3 C40_3 1_555 1_555
C52_3 C53_3 1_555 1_555
C54_3 C55_3 1_555 1_555
Mg7 O9_3 1_555 1_555
O9_3 C34_3 1_555 1_555
O20_3 Mg7 1_555 1_555
H38_3 O20_3 1_555 1_555
H74_3 O20_3 1_555 1_555
O4_4 Mg1_2 1_555 1_555
H1_4 O4_4 1_555 1_555
H37_4 O4_4 1_555 1_555
O12_2 Mg1_2 1_555 1_555
C1_4 C2_4 1_555 1_555
O1_4 C1_4 1_555 1_555
O2_2 C1_4 1_555 1_555
C6_4 C5_4 1_555 1_555
C7_4 C2_4 1_555 1_555
C17_4 C5_4 1_555 1_555
C20_4 C17_4 1_555 1_555
C23_4 C20_4 1_555 1_555
H3_4 C6_4 1_555 1_555
H4_4 C7_4 1_555 1_555
H8_4 C19_4 1_555 1_555
H10_4 C23_4 1_555 1_555
H11_4 C23_4 1_555 1_555
H12_4 C23_4 1_555 1_555
Mg3_2 O2_2 1_555 1_555
C6_4 C7_4 1_555 1_555
C19_4 C20_4 1_555 1_555
Mg3_2 O17_2 1_555 1_555
C1_5 C2_5 1_555 1_555
C2_5 C3_4 1_555 1_555
Mg3_2 O1_5 1_555 1_555
O1_5 C1_5 1_555 1_555
O12_2 C1_5 1_555 1_555
O4_5 Mg3_2 1_555 1_555
C7_5 C2_5 1_555 1_555
H1_5 O4_5 1_555 1_555
H3_5 C6_5 1_555 1_555
H4_5 C7_5 1_555 1_555
H37_5 O4_5 1_555 1_555
C64_4 O23_4 1_555 1_555
C65_4 C64_4 1_555 1_555
O24_4 C65_4 1_555 1_555
C66_4 O24_4 1_555 1_555
H67_4 C64_4 1_555 1_555
H68_4 C64_4 1_555 1_555
H69_4 C65_4 1_555 1_555
H70_4 C65_4 1_555 1_555
H71_4 C66_4 1_555 1_555
H72_4 C66_4 1_555 1_555
C6_5 C7_5 1_555 1_555
C5_5 C4_4 1_555 1_555
C8_4 C9_4 1_555 1_555
C9_4 C10_4 1_555 1_555
C10_4 C11_4 1_555 1_555
C11_4 C12_4 1_555 1_555
C12_4 C13_4 1_555 1_555
C13_4 C8_4 1_555 1_555
C14_4 C11_4 1_555 1_555
C15_4 C14_4 1_555 1_555
C16_4 C14_4 1_555 1_555
C17_5 C5_5 1_555 1_555
C18_4 C8_4 1_555 1_555
C19_5 C18_4 1_555 1_555
C20_5 C17_5 1_555 1_555
C21_4 C18_4 1_555 1_555
C22_4 C17_5 1_555 1_555
C23_5 C20_5 1_555 1_555
C24_4 C21_4 1_555 1_555
C25_4 C13_4 1_555 1_555
C26_4 C10_4 1_555 1_555
H2_4 C4_4 1_555 1_555
H5_4 C9_4 1_555 1_555
H6_4 C12_4 1_555 1_555
H7_4 C16_4 1_555 1_555
H8_5 C19_5 1_555 1_555
H9_4 C22_4 1_555 1_555
H10_5 C23_5 1_555 1_555
H11_5 C23_5 1_555 1_555
H13_4 C24_4 1_555 1_555
H14_4 C24_4 1_555 1_555
H15_4 C24_4 1_555 1_555
H16_4 C25_4 1_555 1_555
H17_4 C25_4 1_555 1_555
H18_4 C25_4 1_555 1_555
H19_4 C26_4 1_555 1_555
H20_4 C26_4 1_555 1_555
H21_4 C26_4 1_555 1_555
C44_4 C45_4 1_555 1_555
C47_4 C44_4 1_555 1_555
C48_4 C16_4 1_555 1_555
O21_4 C48_4 1_555 1_555
C60_4 O21_4 1_555 1_555
C61_4 C60_4 1_555 1_555
O22_4 C61_4 1_555 1_555
C62_4 O22_4 1_555 1_555
C63_4 C62_4 1_555 1_555
H43_4 C45_4 1_555 1_555
H53_4 C58_4 1_555 1_555
H54_4 C58_4 1_555 1_555
H55_4 C58_4 1_555 1_555
H59_4 C60_4 1_555 1_555
H60_4 C60_4 1_555 1_555
H61_4 C61_4 1_555 1_555
H62_4 C61_4 1_555 1_555
H63_4 C62_4 1_555 1_555
H64_4 C62_4 1_555 1_555
H65_4 C63_4 1_555 1_555
H66_4 C63_4 1_555 1_555
C19_5 C20_5 1_555 1_555
C21_4 C22_4 1_555 1_555
C47_4 C48_4 1_555 1_555
C12_5 C13_5 1_555 1_555
C25_5 C13_5 1_555 1_555
O5_4 C15_5 1_555 1_555
C27_4 O5_4 1_555 1_555
C28_4 C27_4 1_555 1_555
H6_5 C12_5 1_555 1_555
H16_5 C25_5 1_555 1_555
H17_5 C25_5 1_555 1_555
H18_5 C25_5 1_555 1_555
H23_4 C27_4 1_555 1_555
H24_4 C28_4 1_555 1_555
H25_4 C28_4 1_555 1_555
C41_4 C42_4 1_555 1_555
C42_4 C43_4 1_555 1_555
C43_4 C44_5 1_555 1_555
C47_5 C44_5 1_555 1_555
C49_4 C15_5 1_555 1_555
C51_4 C41_4 1_555 1_555
C54_4 C51_4 1_555 1_555
C57_4 C54_4 1_555 1_555
C59_4 C43_4 1_555 1_555
H42_4 C42_4 1_555 1_555
H44_4 C49_4 1_555 1_555
H50_5 C57_4 1_555 1_555
H51_4 C57_4 1_555 1_555
H52_4 C57_4 1_555 1_555
H56_4 C59_4 1_555 1_555
H57_4 C59_4 1_555 1_555
H58_4 C59_4 1_555 1_555
C47_5 C49_4 1_555 1_555
C29_4 O6_4 1_555 1_555
C30_4 C29_4 1_555 1_555
O7_4 C30_4 1_555 1_555
C31_4 O7_4 1_555 1_555
C32_4 C31_4 1_555 1_555
O8_4 C32_4 1_555 1_555
C33_4 O8_4 1_555 1_555
H27_4 C29_4 1_555 1_555
H28_4 C30_4 1_555 1_555
H29_4 C30_4 1_555 1_555
H30_4 C31_4 1_555 1_555
H31_4 C31_4 1_555 1_555
H32_4 C32_4 1_555 1_555
H33_4 C32_4 1_555 1_555
H34_4 C33_4 1_555 1_555
H35_4 C33_4 1_555 1_555
H36_4 C33_4 1_555 1_555
C36_4 O15_2 1_555 1_555
O15_2 Mg7_2 1_555 1_555
C37_4 C36_4 1_555 1_555
H39_4 C37_4 1_555 1_555
H46_4 C55_4 1_555 1_555
Mg7_2 O19_3 1_555 1_555
C27_5 O5_5 1_555 1_555
C28_5 C27_5 1_555 1_555
O6_5 C28_5 1_555 1_555
C29_5 O6_5 1_555 1_555
C30_5 C29_5 1_555 1_555
O7_5 C30_5 1_555 1_555
C31_5 O7_5 1_555 1_555
C32_5 C31_5 1_555 1_555
O8_5 C32_5 1_555 1_555
C33_5 O8_5 1_555 1_555
H22_5 C27_5 1_555 1_555
H23_5 C27_5 1_555 1_555
H24_5 C28_5 1_555 1_555
H25_5 C28_5 1_555 1_555
H26_5 C29_5 1_555 1_555
H27_5 C29_5 1_555 1_555
H28_5 C30_5 1_555 1_555
H29_5 C30_5 1_555 1_555
H30_5 C31_5 1_555 1_555
H31_5 C31_5 1_555 1_555
H32_5 C32_5 1_555 1_555
H33_5 C32_5 1_555 1_555
H34_5 C33_5 1_555 1_555
H35_5 C33_5 1_555 1_555
H36_5 C33_5 1_555 1_555
C35_4 C36_5 1_555 1_555
C36_5 O19_3 1_555 1_555
C37_5 C36_5 1_555 1_555
C38_4 C37_5 1_555 1_555
C39_4 C38_4 1_555 1_555
C40_4 C35_4 1_555 1_555
C41_5 C42_5 1_555 1_555
C42_5 C43_5 1_555 1_555
C46_4 C41_5 1_555 1_555
C50_4 C38_4 1_555 1_555
C51_5 C41_5 1_555 1_555
C52_4 C51_5 1_555 1_555
C53_4 C50_4 1_555 1_555
C54_5 C51_5 1_555 1_555
C55_5 C50_4 1_555 1_555
C56_4 C53_4 1_555 1_555
C57_5 C54_5 1_555 1_555
C59_5 C43_5 1_555 1_555
H39_5 C37_5 1_555 1_555
H40_4 C39_4 1_555 1_555
H42_5 C42_5 1_555 1_555
H44_5 C49_5 1_555 1_555
H45_4 C52_4 1_555 1_555
H46_5 C55_5 1_555 1_555
H47_4 C56_4 1_555 1_555
H48_4 C56_4 1_555 1_555
H49_4 C56_4 1_555 1_555
H51_5 C57_5 1_555 1_555
H52_5 C57_5 1_555 1_555
H56_5 C59_5 1_555 1_555
H57_5 C59_5 1_555 1_555
H58_5 C59_5 1_555 1_555
C39_4 C40_4 1_555 1_555
C52_4 C53_4 1_555 1_555
C54_5 C55_5 1_555 1_555
Mg7_2 O9_4 1_555 1_555
O9_4 C34_4 1_555 1_555
O20_4 Mg7_2 1_555 1_555
H38_4 O20_4 1_555 1_555
H74_4 O20_4 1_555 1_555
C3_5 O16_3 1_555 1_555
O16_3 Mg4_2 1_555 1_555
C4_5 C3_5 1_555 1_555
H2_5 C4_5 1_555 1_555
H9_5 C22_5 1_555 1_555
C62_5 O22_5 1_555 1_555
C63_5 C62_5 1_555 1_555
O23_5 C63_5 1_555 1_555
C64_5 O23_5 1_555 1_555
C65_5 C64_5 1_555 1_555
O24_5 C65_5 1_555 1_555
C66_5 O24_5 1_555 1_555
H64_5 C62_5 1_555 1_555
H65_5 C63_5 1_555 1_555
H66_5 C63_5 1_555 1_555
H67_5 C64_5 1_555 1_555
H68_5 C64_5 1_555 1_555
H69_5 C65_5 1_555 1_555
H70_5 C65_5 1_555 1_555
H71_5 C66_5 1_555 1_555
H72_5 C66_5 1_555 1_555
H73_5 C66_5 1_555 1_555
Mg4_2 O1_6 1_555 1_555
O1_6 C1_6 1_555 1_555
O4_6 Mg4_2 1_555 1_555
H1_6 O4_6 1_555 1_555
H37_6 O4_6 1_555 1_555
O16_4 Mg4_2 1_555 1_555
C2_6 C3_6 1_555 1_555
C3_6 O16_4 1_555 1_555
C4_6 C3_6 1_555 1_555
C5_6 C4_6 1_555 1_555
C6_6 C5_6 1_555 1_555
C7_6 C2_6 1_555 1_555
C8_5 C9_5 1_555 1_555
C9_5 C10_5 1_555 1_555
C13_6 C8_5 1_555 1_555
C17_6 C5_6 1_555 1_555
C18_5 C8_5 1_555 1_555
C19_6 C18_5 1_555 1_555
C20_6 C17_6 1_555 1_555
C21_5 C18_5 1_555 1_555
C22_6 C17_6 1_555 1_555
C23_6 C20_6 1_555 1_555
C24_5 C21_5 1_555 1_555
C26_5 C10_5 1_555 1_555
H2_6 C4_6 1_555 1_555
H3_6 C6_6 1_555 1_555
H5_5 C9_5 1_555 1_555
H7_5 C16_5 1_555 1_555
H8_6 C19_6 1_555 1_555
H9_6 C22_6 1_555 1_555
H10_6 C23_6 1_555 1_555
H11_6 C23_6 1_555 1_555
H12_6 C23_6 1_555 1_555
H14_5 C24_5 1_555 1_555
H15_5 C24_5 1_555 1_555
H19_5 C26_5 1_555 1_555
H20_5 C26_5 1_555 1_555
H21_5 C26_5 1_555 1_555
C60_5 O21_5 1_555 1_555
C61_5 C60_5 1_555 1_555
O22_6 C61_5 1_555 1_555
C62_6 O22_6 1_555 1_555
C63_6 C62_6 1_555 1_555
O23_6 C63_6 1_555 1_555
C64_6 O23_6 1_555 1_555
C65_6 C64_6 1_555 1_555
O24_6 C65_6 1_555 1_555
C66_6 O24_6 1_555 1_555
H59_6 C60_5 1_555 1_555
H60_5 C60_5 1_555 1_555
H61_5 C61_5 1_555 1_555
H62_5 C61_5 1_555 1_555
H63_5 C62_6 1_555 1_555
H64_6 C62_6 1_555 1_555
H65_6 C63_6 1_555 1_555
H66_6 C63_6 1_555 1_555
H67_6 C64_6 1_555 1_555
H68_6 C64_6 1_555 1_555
H69_6 C65_6 1_555 1_555
H70_6 C65_6 1_555 1_555
H71_6 C66_6 1_555 1_555
H72_6 C66_6 1_555 1_555
H73_6 C66_6 1_555 1_555
C6_6 C7_6 1_555 1_555
C19_6 C20_6 1_555 1_555
C21_5 C22_6 1_555 1_555
C8_6 C9_6 1_555 1_555
C9_6 C10_6 1_555 1_555
C10_6 C11_5 1_555 1_555
C14_5 C11_5 1_555 1_555
C16_6 C14_5 1_555 1_555
C18_6 C8_6 1_555 1_555
C21_6 C18_6 1_555 1_555
C24_6 C21_6 1_555 1_555
C26_6 C10_6 1_555 1_555
H5_6 C9_6 1_555 1_555
H7_6 C16_6 1_555 1_555
H13_5 C24_6 1_555 1_555
H14_6 C24_6 1_555 1_555
H15_6 C24_6 1_555 1_555
H19_6 C26_6 1_555 1_555
H20_6 C26_6 1_555 1_555
H21_6 C26_6 1_555 1_555
C45_5 C46_5 1_555 1_555
C48_5 C16_6 1_555 1_555
C58_5 C46_5 1_555 1_555
O21_6 C48_5 1_555 1_555
C60_6 O21_6 1_555 1_555
C61_6 C60_6 1_555 1_555
H43_5 C45_5 1_555 1_555
H53_5 C58_5 1_555 1_555
H54_5 C58_5 1_555 1_555
H55_5 C58_5 1_555 1_555
H60_6 C60_6 1_555 1_555
H61_6 C61_6 1_555 1_555
H62_6 C61_6 1_555 1_555
C34_5 C35_5 1_555 1_555
Mg6_2 O10_2 1_555 1_555
O9_5 C34_5 1_555 1_555
O10_2 C34_5 1_555 1_555
C39_5 C38_5 1_555 1_555
C40_5 C35_5 1_555 1_555
C50_5 C38_5 1_555 1_555
C53_5 C50_5 1_555 1_555
C56_5 C53_5 1_555 1_555
H40_5 C39_5 1_555 1_555
H41_5 C40_5 1_555 1_555
H45_5 C52_5 1_555 1_555
H47_5 C56_5 1_555 1_555
H48_5 C56_5 1_555 1_555
H49_5 C56_5 1_555 1_555
Mg6_2 O19_4 1_555 1_555
C39_5 C40_5 1_555 1_555
C52_5 C53_5 1_555 1_555
O14_2 Mg8_2 1_555 1_555
O20_5 Mg8_2 1_555 1_555
H38_5 O20_5 1_555 1_555
H74_5 O20_5 1_555 1_555
C11_6 C12_6 1_555 1_555
C14_6 C11_6 1_555 1_555
C15_6 C14_6 1_555 1_555
O5_6 C15_6 1_555 1_555
C27_6 O5_6 1_555 1_555
C28_6 C27_6 1_555 1_555
O6_6 C28_6 1_555 1_555
C29_6 O6_6 1_555 1_555
C30_6 C29_6 1_555 1_555
H6_6 C12_6 1_555 1_555
H16_6 C25_6 1_555 1_555
H17_6 C25_6 1_555 1_555
H18_6 C25_6 1_555 1_555
H22_6 C27_6 1_555 1_555
H23_6 C27_6 1_555 1_555
H24_6 C28_6 1_555 1_555
H25_6 C28_6 1_555 1_555
H26_6 C29_6 1_555 1_555
H27_6 C29_6 1_555 1_555
H28_6 C30_6 1_555 1_555
H29_6 C30_6 1_555 1_555
C38_6 C37_6 1_555 1_555
C41_6 C42_6 1_555 1_555
C42_6 C43_6 1_555 1_555
C43_6 C44_6 1_555 1_555
C44_6 C45_6 1_555 1_555
C45_6 C46_6 1_555 1_555
C46_6 C41_6 1_555 1_555
C47_6 C44_6 1_555 1_555
C49_6 C15_6 1_555 1_555
C50_6 C38_6 1_555 1_555
C51_6 C41_6 1_555 1_555
C52_6 C51_6 1_555 1_555
C53_6 C50_6 1_555 1_555
C54_6 C51_6 1_555 1_555
C55_6 C50_6 1_555 1_555
C56_6 C53_6 1_555 1_555
C57_6 C54_6 1_555 1_555
C58_6 C46_6 1_555 1_555
C59_6 C43_6 1_555 1_555
H39_6 C37_6 1_555 1_555
H42_6 C42_6 1_555 1_555
H43_6 C45_6 1_555 1_555
H44_6 C49_6 1_555 1_555
H45_6 C52_6 1_555 1_555
H46_6 C55_6 1_555 1_555
H47_6 C56_6 1_555 1_555
H48_6 C56_6 1_555 1_555
H50_6 C57_6 1_555 1_555
H51_6 C57_6 1_555 1_555
H52_6 C57_6 1_555 1_555
H53_6 C58_6 1_555 1_555
H54_6 C58_6 1_555 1_555
H55_6 C58_6 1_555 1_555
H56_6 C59_6 1_555 1_555
H57_6 C59_6 1_555 1_555
H58_6 C59_6 1_555 1_555
C47_6 C48_6 1_555 1_555
C47_6 C49_6 1_555 1_555
C52_6 C53_6 1_555 1_555
C54_6 C55_6 1_555 1_555
C31_6 O7_6 1_555 1_555
C32_6 C31_6 1_555 1_555
O8_6 C32_6 1_555 1_555
C33_6 O8_6 1_555 1_555
H30_6 C31_6 1_555 1_555
H31_6 C31_6 1_555 1_555
H32_6 C32_6 1_555 1_555
H33_6 C32_6 1_555 1_555
H34_6 C33_6 1_555 1_555
H35_6 C33_6 1_555 1_555
C34_6 C35_6 1_555 1_555
C35_6 C36_6 1_555 1_555
Mg6_2 O9_6 1_555 1_555
O9_6 C34_6 1_555 1_555
O14_2 C34_6 1_555 1_555
O20_6 Mg6_2 1_555 1_555
C40_6 C35_6 1_555 1_555
H38_6 O20_6 1_555 1_555
H40_6 C39_6 1_555 1_555
H41_6 C40_6 1_555 1_555
H74_6 O20_6 1_555 1_555
C39_6 C40_6 1_555 1_555
C3_7 O16_5 1_555 1_555
O16_5 Mg4_3 1_555 1_555
C4_7 C3_7 1_555 1_555
H2_7 C4_7 1_555 1_555
H9_7 C22_7 1_555 1_555
C62_7 O22_7 1_555 1_555
C63_7 C62_7 1_555 1_555
O23_7 C63_7 1_555 1_555
C64_7 O23_7 1_555 1_555
C65_7 C64_7 1_555 1_555
O24_7 C65_7 1_555 1_555
C66_7 O24_7 1_555 1_555
H64_7 C62_7 1_555 1_555
H65_7 C63_7 1_555 1_555
H66_7 C63_7 1_555 1_555
H67_7 C64_7 1_555 1_555
H68_7 C64_7 1_555 1_555
H69_7 C65_7 1_555 1_555
H70_7 C65_7 1_555 1_555
H71_7 C66_7 1_555 1_555
H72_7 C66_7 1_555 1_555
H73_7 C66_7 1_555 1_555
Mg4_3 O1_7 1_555 1_555
O1_7 C1_7 1_555 1_555
O4_7 Mg4_3 1_555 1_555
H1_7 O4_7 1_555 1_555
H37_7 O4_7 1_555 1_555
O16_6 Mg4_3 1_555 1_555
C2_7 C3_8 1_555 1_555
C3_8 O16_6 1_555 1_555
C4_8 C3_8 1_555 1_555
C5_7 C4_8 1_555 1_555
C6_7 C5_7 1_555 1_555
C7_7 C2_7 1_555 1_555
C8_7 C9_7 1_555 1_555
C9_7 C10_7 1_555 1_555
C13_7 C8_7 1_555 1_555
C17_7 C5_7 1_555 1_555
C18_7 C8_7 1_555 1_555
C19_7 C18_7 1_555 1_555
C20_7 C17_7 1_555 1_555
C21_7 C18_7 1_555 1_555
C22_8 C17_7 1_555 1_555
C23_7 C20_7 1_555 1_555
C24_7 C21_7 1_555 1_555
C26_7 C10_7 1_555 1_555
H2_8 C4_8 1_555 1_555
H3_7 C6_7 1_555 1_555
H5_7 C9_7 1_555 1_555
H7_7 C16_7 1_555 1_555
H8_7 C19_7 1_555 1_555
H9_8 C22_8 1_555 1_555
H10_7 C23_7 1_555 1_555
H11_7 C23_7 1_555 1_555
H12_7 C23_7 1_555 1_555
H14_7 C24_7 1_555 1_555
H15_7 C24_7 1_555 1_555
H19_7 C26_7 1_555 1_555
H20_7 C26_7 1_555 1_555
H21_7 C26_7 1_555 1_555
C60_7 O21_7 1_555 1_555
C61_7 C60_7 1_555 1_555
O22_8 C61_7 1_555 1_555
C62_8 O22_8 1_555 1_555
C63_8 C62_8 1_555 1_555
O23_8 C63_8 1_555 1_555
C64_8 O23_8 1_555 1_555
C65_8 C64_8 1_555 1_555
O24_8 C65_8 1_555 1_555
C66_8 O24_8 1_555 1_555
H59_8 C60_7 1_555 1_555
H60_7 C60_7 1_555 1_555
H61_7 C61_7 1_555 1_555
H62_7 C61_7 1_555 1_555
H63_7 C62_8 1_555 1_555
H64_8 C62_8 1_555 1_555
H65_8 C63_8 1_555 1_555
H66_8 C63_8 1_555 1_555
H67_8 C64_8 1_555 1_555
H68_8 C64_8 1_555 1_555
H69_8 C65_8 1_555 1_555
H70_8 C65_8 1_555 1_555
H71_8 C66_8 1_555 1_555
H72_8 C66_8 1_555 1_555
H73_8 C66_8 1_555 1_555
C6_7 C7_7 1_555 1_555
C19_7 C20_7 1_555 1_555
C21_7 C22_8 1_555 1_555
C8_8 C9_8 1_555 1_555
C9_8 C10_8 1_555 1_555
C10_8 C11_7 1_555 1_555
C14_7 C11_7 1_555 1_555
C16_8 C14_7 1_555 1_555
C18_8 C8_8 1_555 1_555
C21_8 C18_8 1_555 1_555
C24_8 C21_8 1_555 1_555
C26_8 C10_8 1_555 1_555
H5_8 C9_8 1_555 1_555
H7_8 C16_8 1_555 1_555
H13_7 C24_8 1_555 1_555
H14_8 C24_8 1_555 1_555
H15_8 C24_8 1_555 1_555
H19_8 C26_8 1_555 1_555
H20_8 C26_8 1_555 1_555
H21_8 C26_8 1_555 1_555
C45_7 C46_7 1_555 1_555
C48_7 C16_8 1_555 1_555
C58_7 C46_7 1_555 1_555
O21_8 C48_7 1_555 1_555
C60_8 O21_8 1_555 1_555
C61_8 C60_8 1_555 1_555
H43_7 C45_7 1_555 1_555
H53_7 C58_7 1_555 1_555
H54_7 C58_7 1_555 1_555
H55_7 C58_7 1_555 1_555
H60_8 C60_8 1_555 1_555
H61_8 C61_8 1_555 1_555
H62_8 C61_8 1_555 1_555
C34_7 C35_7 1_555 1_555
Mg6_3 O10_3 1_555 1_555
O9_7 C34_7 1_555 1_555
O10_3 C34_7 1_555 1_555
C39_7 C38_7 1_555 1_555
C40_7 C35_7 1_555 1_555
C50_7 C38_7 1_555 1_555
C53_7 C50_7 1_555 1_555
C56_7 C53_7 1_555 1_555
H40_7 C39_7 1_555 1_555
H41_7 C40_7 1_555 1_555
H45_7 C52_7 1_555 1_555
H47_7 C56_7 1_555 1_555
H48_7 C56_7 1_555 1_555
H49_7 C56_7 1_555 1_555
Mg6_3 O19_5 1_555 1_555
C39_7 C40_7 1_555 1_555
C52_7 C53_7 1_555 1_555
O14_3 Mg8_3 1_555 1_555
O20_7 Mg8_3 1_555 1_555
H38_7 O20_7 1_555 1_555
H74_7 O20_7 1_555 1_555
C11_8 C12_7 1_555 1_555
C14_8 C11_8 1_555 1_555
C15_7 C14_8 1_555 1_555
O5_7 C15_7 1_555 1_555
C27_7 O5_7 1_555 1_555
C28_7 C27_7 1_555 1_555
O6_7 C28_7 1_555 1_555
C29_7 O6_7 1_555 1_555
C30_7 C29_7 1_555 1_555
H6_7 C12_7 1_555 1_555
H16_7 C25_7 1_555 1_555
H17_7 C25_7 1_555 1_555
H18_7 C25_7 1_555 1_555
H22_7 C27_7 1_555 1_555
H23_7 C27_7 1_555 1_555
H24_7 C28_7 1_555 1_555
H25_7 C28_7 1_555 1_555
H26_7 C29_7 1_555 1_555
H27_7 C29_7 1_555 1_555
H28_7 C30_7 1_555 1_555
H29_7 C30_7 1_555 1_555
C38_8 C37_7 1_555 1_555
C41_7 C42_7 1_555 1_555
C42_7 C43_7 1_555 1_555
C43_7 C44_7 1_555 1_555
C44_7 C45_8 1_555 1_555
C45_8 C46_8 1_555 1_555
C46_8 C41_7 1_555 1_555
C47_7 C44_7 1_555 1_555
C49_7 C15_7 1_555 1_555
C50_8 C38_8 1_555 1_555
C51_7 C41_7 1_555 1_555
C52_8 C51_7 1_555 1_555
C53_8 C50_8 1_555 1_555
C54_7 C51_7 1_555 1_555
C55_7 C50_8 1_555 1_555
C56_8 C53_8 1_555 1_555
C57_7 C54_7 1_555 1_555
C58_8 C46_8 1_555 1_555
C59_7 C43_7 1_555 1_555
H39_7 C37_7 1_555 1_555
H42_7 C42_7 1_555 1_555
H43_8 C45_8 1_555 1_555
H44_7 C49_7 1_555 1_555
H45_8 C52_8 1_555 1_555
H46_7 C55_7 1_555 1_555
H47_8 C56_8 1_555 1_555
H48_8 C56_8 1_555 1_555
H50_7 C57_7 1_555 1_555
H51_7 C57_7 1_555 1_555
H52_7 C57_7 1_555 1_555
H53_8 C58_8 1_555 1_555
H54_8 C58_8 1_555 1_555
H55_8 C58_8 1_555 1_555
H56_7 C59_7 1_555 1_555
H57_7 C59_7 1_555 1_555
H58_7 C59_7 1_555 1_555
C47_7 C48_8 1_555 1_555
C47_7 C49_7 1_555 1_555
C52_8 C53_8 1_555 1_555
C54_7 C55_7 1_555 1_555
C31_7 O7_7 1_555 1_555
C32_7 C31_7 1_555 1_555
O8_7 C32_7 1_555 1_555
C33_7 O8_7 1_555 1_555
H30_7 C31_7 1_555 1_555
H31_7 C31_7 1_555 1_555
H32_7 C32_7 1_555 1_555
H33_7 C32_7 1_555 1_555
H34_7 C33_7 1_555 1_555
H35_7 C33_7 1_555 1_555
C34_8 C35_8 1_555 1_555
C35_8 C36_7 1_555 1_555
Mg6_3 O9_8 1_555 1_555
O9_8 C34_8 1_555 1_555
O14_3 C34_8 1_555 1_555
O20_8 Mg6_3 1_555 1_555
C40_8 C35_8 1_555 1_555
H38_8 O20_8 1_555 1_555
H40_8 C39_8 1_555 1_555
H41_8 C40_8 1_555 1_555
H74_8 O20_8 1_555 1_555
C39_8 C40_8 1_555 1_555
O4_8 Mg1_3 1_555 1_555
H1_8 O4_8 1_555 1_555
H37_8 O4_8 1_555 1_555
O12_3 Mg1_3 1_555 1_555
C1_8 C2_8 1_555 1_555
O1_8 C1_8 1_555 1_555
O2_3 C1_8 1_555 1_555
C6_8 C5_8 1_555 1_555
C7_8 C2_8 1_555 1_555
C17_8 C5_8 1_555 1_555
C20_8 C17_8 1_555 1_555
C23_8 C20_8 1_555 1_555
H3_8 C6_8 1_555 1_555
H4_8 C7_8 1_555 1_555
H8_8 C19_8 1_555 1_555
H10_8 C23_8 1_555 1_555
H11_8 C23_8 1_555 1_555
H12_8 C23_8 1_555 1_555
Mg3_3 O2_3 1_555 1_555
C6_8 C7_8 1_555 1_555
C19_8 C20_8 1_555 1_555
Mg3_3 O17_3 1_555 1_555
C1_9 C2_9 1_555 1_555
C2_9 C3_9 1_555 1_555
Mg3_3 O1_9 1_555 1_555
O1_9 C1_9 1_555 1_555
O12_3 C1_9 1_555 1_555
O4_9 Mg3_3 1_555 1_555
C7_9 C2_9 1_555 1_555
H1_9 O4_9 1_555 1_555
H3_9 C6_9 1_555 1_555
H4_9 C7_9 1_555 1_555
H37_9 O4_9 1_555 1_555
C64_9 O23_9 1_555 1_555
C65_9 C64_9 1_555 1_555
O24_9 C65_9 1_555 1_555
C66_9 O24_9 1_555 1_555
H67_9 C64_9 1_555 1_555
H68_9 C64_9 1_555 1_555
H69_9 C65_9 1_555 1_555
H70_9 C65_9 1_555 1_555
H71_9 C66_9 1_555 1_555
H72_9 C66_9 1_555 1_555
C6_9 C7_9 1_555 1_555
C5_9 C4_9 1_555 1_555
C8_9 C9_9 1_555 1_555
C9_9 C10_9 1_555 1_555
C10_9 C11_9 1_555 1_555
C11_9 C12_8 1_555 1_555
C12_8 C13_8 1_555 1_555
C13_8 C8_9 1_555 1_555
C14_9 C11_9 1_555 1_555
C15_8 C14_9 1_555 1_555
C16_9 C14_9 1_555 1_555
C17_9 C5_9 1_555 1_555
C18_9 C8_9 1_555 1_555
C19_9 C18_9 1_555 1_555
C20_9 C17_9 1_555 1_555
C21_9 C18_9 1_555 1_555
C22_9 C17_9 1_555 1_555
C23_9 C20_9 1_555 1_555
C24_9 C21_9 1_555 1_555
C25_8 C13_8 1_555 1_555
C26_9 C10_9 1_555 1_555
H2_9 C4_9 1_555 1_555
H5_9 C9_9 1_555 1_555
H6_8 C12_8 1_555 1_555
H7_9 C16_9 1_555 1_555
H8_9 C19_9 1_555 1_555
H9_9 C22_9 1_555 1_555
H10_9 C23_9 1_555 1_555
H11_9 C23_9 1_555 1_555
H13_9 C24_9 1_555 1_555
H14_9 C24_9 1_555 1_555
H15_9 C24_9 1_555 1_555
H16_8 C25_8 1_555 1_555
H17_8 C25_8 1_555 1_555
H18_8 C25_8 1_555 1_555
H19_9 C26_9 1_555 1_555
H20_9 C26_9 1_555 1_555
H21_9 C26_9 1_555 1_555
C44_8 C45_9 1_555 1_555
C47_8 C44_8 1_555 1_555
C48_9 C16_9 1_555 1_555
O21_9 C48_9 1_555 1_555
C60_9 O21_9 1_555 1_555
C61_9 C60_9 1_555 1_555
O22_9 C61_9 1_555 1_555
C62_9 O22_9 1_555 1_555
C63_9 C62_9 1_555 1_555
H43_9 C45_9 1_555 1_555
H53_9 C58_9 1_555 1_555
H54_9 C58_9 1_555 1_555
H55_9 C58_9 1_555 1_555
H59_9 C60_9 1_555 1_555
H60_9 C60_9 1_555 1_555
H61_9 C61_9 1_555 1_555
H62_9 C61_9 1_555 1_555
H63_9 C62_9 1_555 1_555
H64_9 C62_9 1_555 1_555
H65_9 C63_9 1_555 1_555
H66_9 C63_9 1_555 1_555
C19_9 C20_9 1_555 1_555
C21_9 C22_9 1_555 1_555
C47_8 C48_9 1_555 1_555
C12_9 C13_9 1_555 1_555
C25_9 C13_9 1_555 1_555
O5_8 C15_9 1_555 1_555
C27_8 O5_8 1_555 1_555
C28_8 C27_8 1_555 1_555
H6_9 C12_9 1_555 1_555
H16_9 C25_9 1_555 1_555
H17_9 C25_9 1_555 1_555
H18_9 C25_9 1_555 1_555
H23_8 C27_8 1_555 1_555
H24_8 C28_8 1_555 1_555
H25_8 C28_8 1_555 1_555
C41_8 C42_8 1_555 1_555
C42_8 C43_8 1_555 1_555
C43_8 C44_9 1_555 1_555
C47_9 C44_9 1_555 1_555
C49_8 C15_9 1_555 1_555
C51_8 C41_8 1_555 1_555
C54_8 C51_8 1_555 1_555
C57_8 C54_8 1_555 1_555
C59_8 C43_8 1_555 1_555
H42_8 C42_8 1_555 1_555
H44_8 C49_8 1_555 1_555
H50_9 C57_8 1_555 1_555
H51_8 C57_8 1_555 1_555
H52_8 C57_8 1_555 1_555
H56_8 C59_8 1_555 1_555
H57_8 C59_8 1_555 1_555
H58_8 C59_8 1_555 1_555
C47_9 C49_8 1_555 1_555
C29_8 O6_8 1_555 1_555
C30_8 C29_8 1_555 1_555
O7_8 C30_8 1_555 1_555
C31_8 O7_8 1_555 1_555
C32_8 C31_8 1_555 1_555
O8_8 C32_8 1_555 1_555
C33_8 O8_8 1_555 1_555
H27_8 C29_8 1_555 1_555
H28_8 C30_8 1_555 1_555
H29_8 C30_8 1_555 1_555
H30_8 C31_8 1_555 1_555
H31_8 C31_8 1_555 1_555
H32_8 C32_8 1_555 1_555
H33_8 C32_8 1_555 1_555
H34_8 C33_8 1_555 1_555
H35_8 C33_8 1_555 1_555
H36_8 C33_8 1_555 1_555
C36_8 O15_3 1_555 1_555
O15_3 Mg7_3 1_555 1_555
C37_8 C36_8 1_555 1_555
H39_8 C37_8 1_555 1_555
H46_8 C55_8 1_555 1_555
Mg7_3 O19_6 1_555 1_555
C27_9 O5_9 1_555 1_555
C28_9 C27_9 1_555 1_555
O6_9 C28_9 1_555 1_555
C29_9 O6_9 1_555 1_555
C30_9 C29_9 1_555 1_555
O7_9 C30_9 1_555 1_555
C31_9 O7_9 1_555 1_555
C32_9 C31_9 1_555 1_555
O8_9 C32_9 1_555 1_555
C33_9 O8_9 1_555 1_555
H22_9 C27_9 1_555 1_555
H23_9 C27_9 1_555 1_555
H24_9 C28_9 1_555 1_555
H25_9 C28_9 1_555 1_555
H26_9 C29_9 1_555 1_555
H27_9 C29_9 1_555 1_555
H28_9 C30_9 1_555 1_555
H29_9 C30_9 1_555 1_555
H30_9 C31_9 1_555 1_555
H31_9 C31_9 1_555 1_555
H32_9 C32_9 1_555 1_555
H33_9 C32_9 1_555 1_555
H34_9 C33_9 1_555 1_555
H35_9 C33_9 1_555 1_555
H36_9 C33_9 1_555 1_555
C35_9 C36_9 1_555 1_555
C36_9 O19_6 1_555 1_555
C37_9 C36_9 1_555 1_555
C38_9 C37_9 1_555 1_555
C39_9 C38_9 1_555 1_555
C40_9 C35_9 1_555 1_555
C41_9 C42_9 1_555 1_555
C42_9 C43_9 1_555 1_555
C46_9 C41_9 1_555 1_555
C50_9 C38_9 1_555 1_555
C51_9 C41_9 1_555 1_555
C52_9 C51_9 1_555 1_555
C53_9 C50_9 1_555 1_555
C54_9 C51_9 1_555 1_555
C55_9 C50_9 1_555 1_555
C56_9 C53_9 1_555 1_555
C57_9 C54_9 1_555 1_555
C59_9 C43_9 1_555 1_555
H39_9 C37_9 1_555 1_555
H40_9 C39_9 1_555 1_555
H42_9 C42_9 1_555 1_555
H44_9 C49_9 1_555 1_555
H45_9 C52_9 1_555 1_555
H46_9 C55_9 1_555 1_555
H47_9 C56_9 1_555 1_555
H48_9 C56_9 1_555 1_555
H49_9 C56_9 1_555 1_555
H51_9 C57_9 1_555 1_555
H52_9 C57_9 1_555 1_555
H56_9 C59_9 1_555 1_555
H57_9 C59_9 1_555 1_555
H58_9 C59_9 1_555 1_555
C39_9 C40_9 1_555 1_555
C52_9 C53_9 1_555 1_555
C54_9 C55_9 1_555 1_555
Mg7_3 O9_9 1_555 1_555
O9_9 C34_9 1_555 1_555
O20_9 Mg7_3 1_555 1_555
H38_9 O20_9 1_555 1_555
H74_9 O20_9 1_555 1_555

#END
