
###############################################################################
#
# This file contains modified crystal structure data generated from the
# MOF subset of the Cambridge Structural Database (CSD) v543 
# hosted by the Cambridge Crystallographic Data Centre (CCDC).
#
# This work is licensed under the Creative Commons
# Attribution-NonCommercial-ShareAlike 4.0 International License.
# To view a copy of this license, visit
# http://creativecommons.org/licenses/by-nc-sa/4.0/
# or send a letter to
# Creative Commons, PO Box 1866, Mountain View, CA 94042, USA.
#
# CIF created using the CSD Python API on 29 September 2022
# The structure has been converted into the P1 space group
# The structure has a 3D framework
# The original CSD entry RAWFAZ is in the monoclinic crystal system
# The framework has been calculated to contain at least 10.0% void space
# The void calculation uses a probe of radius 1.32A, grid spacing 0.4
#
###############################################################################

data_RAWFAZ
_chemical_formula_moiety         '(C112 H80 Ce2 N8 O28)n'
_symmetry_cell_setting           triclinic
_symmetry_space_group_name_H-M   'P 1'
_symmetry_Int_Tables_number      1
_space_group_name_Hall           'P 1'
loop_
_symmetry_equiv_pos_site_id
_symmetry_equiv_pos_as_xyz
1 x,y,z
_cell_length_a                   20.0073(10)
_cell_length_b                   20.9035(10)
_cell_length_c                   8.9515(4)
_cell_angle_alpha                90
_cell_angle_beta                 113.186(3)
_cell_angle_gamma                90
_cell_volume                     3441.35
loop_
_atom_site_label
_atom_site_type_symbol
_atom_site_fract_x
_atom_site_fract_y
_atom_site_fract_z
Ce3 Ce -0.0000 0.01168(2) 0.7500
Ce7 Ce 0.0000 0.98832(2) 0.2500
O5 O 0.91791(8) 0.02950(8) 0.37394(19)
O6 O 0.87331(8) 0.04767(8) 0.56116(18)
O8 O 0.52878(9) 0.39302(7) 0.12192(18)
C15 C 0.54789(11) 0.37850(11) 0.0087(3)
N2 N 0.66032(11) 0.08897(10) 0.0503(3)
C17 C 0.86754(11) 0.04431(11) 0.4164(3)
C18 C 0.79409(11) 0.05976(11) 0.2859(3)
C22 C 0.53492(14) 0.26333(12) 0.0667(3)
H13 H 0.5134 0.2765 0.1367
C24 C 0.78678(13) 0.07337(13) 0.1296(3)
H16 H 0.8272 0.0722 0.1027
C25 C 0.54323(15) 0.19853(13) 0.0447(3)
H17 H 0.5268 0.1684 0.0988
C26 C 0.73257(12) 0.06032(14) 0.3217(3)
H18 H 0.7365 0.0513 0.4265
C27 C 0.71934(14) 0.08870(13) 0.0130(3)
C28 C 0.66590(13) 0.07432(14) 0.2016(3)
H20 H 0.6245 0.0737 0.2248
Ce3_2 Ce 1.0000 0.01168(2) 0.7500
Ce5 Ce 0.5000 0.48832(2) 0.2500
Ce1 Ce 0.5000 0.51168(2) 0.7500
O1 O 0.08209(8) 0.02950(8) 0.12606(19)
O3 O 0.44011(9) 0.41663(8) 0.58664(19)
O4 O 0.47122(9) 0.39302(7) 0.37808(18)
C1 C 0.45211(11) 0.37850(11) 0.4913(3)
C2 C 0.44168(12) 0.30826(11) 0.5144(3)
N1 N 0.33968(11) 0.08897(10) 0.4497(3)
C3 C 0.13246(11) 0.04431(11) 0.0836(3)
C4 C 0.20591(11) 0.05976(11) 0.2141(3)
C5 C 0.42417(12) 0.17882(11) 0.5574(3)
C6 C 0.41092(13) 0.28781(12) 0.6209(3)
H1 H 0.3962 0.3176 0.6789
C7 C 0.40210(13) 0.22333(13) 0.6406(3)
H2 H 0.3810 0.2100 0.7111
C8 C 0.46508(14) 0.26333(12) 0.4333(3)
H3 H 0.4866 0.2765 0.3633
C9 C 0.41250(14) 0.10846(13) 0.5740(3)
H4 H 0.4147 0.0995 0.6822
H5 H 0.4505 0.0841 0.5583
C10 C 0.21322(13) 0.07337(13) 0.3704(3)
H6 H 0.1728 0.0722 0.3973
C11 C 0.45677(15) 0.19853(13) 0.4553(3)
H7 H 0.4732 0.1684 0.4012
C12 C 0.26743(12) 0.06032(14) 0.1783(3)
H8 H 0.2635 0.0513 0.0735
C13 C 0.28066(14) 0.08870(13) 0.4870(3)
H9 H 0.2854 0.0989 0.5918
C14 C 0.33410(13) 0.07432(14) 0.2984(3)
H10 H 0.3755 0.0737 0.2752
O7 O 0.55989(9) 0.41663(8) 0.91336(19)
C16 C 0.55832(12) 0.30826(11) 0.9856(3)
C19 C 0.57583(12) 0.17882(11) 0.9426(3)
C20 C 0.58908(13) 0.28781(12) 0.8791(3)
H11 H 0.6038 0.3176 0.8211
C21 C 0.59790(13) 0.22333(13) 0.8594(3)
H12 H 0.6190 0.2100 0.7889
C23 C 0.58750(14) 0.10846(13) 0.9260(3)
H14 H 0.5853 0.0995 0.8178
H15 H 0.5495 0.0841 0.9417
H19 H 0.7146 0.0989 0.9082
O9 O 0.41791(8) 0.47050(8) 0.87394(19)
O10 O 0.58209(8) 0.47050(8) 0.62606(19)
O11 O 0.62669(8) 0.54767(8) 0.93884(18)
O12 O 0.37331(8) 0.54767(8) 0.56116(18)
O13 O 0.52878(9) 0.60698(7) 0.62192(18)
O14 O 0.47122(9) 0.60698(7) 0.87808(18)
O2 O 0.12669(8) 0.04767(8) 0.93884(18)
Ce7_2 Ce 1.0000 0.98832(2) 0.2500
O13_2 O 0.02878(9) 0.10698(7) 0.62192(18)
O5_2 O 0.41791(8) 0.52950(8) 0.37394(19)
O8_2 O 0.02878(9) 0.89302(7) 0.12192(18)
C15_2 C 0.04789(11) 0.87850(11) 0.0087(3)
N2_2 N 0.16032(11) 0.58897(10) 0.0503(3)
C17_2 C 0.36754(11) 0.54431(11) 0.4164(3)
C18_2 C 0.29409(11) 0.55976(11) 0.2859(3)
C22_2 C 0.03492(14) 0.76333(12) 0.0667(3)
H13_2 H 0.0134 0.7765 0.1367
C24_2 C 0.28678(13) 0.57337(13) 0.1296(3)
H16_2 H 0.3272 0.5722 0.1027
C25_2 C 0.04323(15) 0.69853(13) 0.0447(3)
H17_2 H 0.0268 0.6684 0.0988
C26_2 C 0.23257(12) 0.56032(14) 0.3217(3)
H18_2 H 0.2365 0.5513 0.4265
C27_2 C 0.21934(14) 0.58870(13) 0.0130(3)
C28_2 C 0.16590(13) 0.57432(14) 0.2016(3)
H20_2 H 0.1245 0.5737 0.2248
O7_2 O 0.05989(9) 0.91663(8) 0.91336(19)
C16_2 C 0.05832(12) 0.80826(11) 0.9856(3)
C19_2 C 0.07583(12) 0.67882(11) 0.9426(3)
C20_2 C 0.08908(13) 0.78781(12) 0.8791(3)
H11_2 H 0.1038 0.8176 0.8211
C21_2 C 0.09790(13) 0.72333(13) 0.8594(3)
H12_2 H 0.1190 0.7100 0.7889
C23_2 C 0.08750(14) 0.60846(13) 0.9260(3)
H14_2 H 0.0853 0.5995 0.8178
H15_2 H 0.0495 0.5841 0.9417
H19_2 H 0.2146 0.5989 0.9082
O10_2 O 0.08209(8) 0.97050(8) 0.62606(19)
O14_2 O 0.97122(9) 0.10698(7) 0.87808(18)
O1_2 O 0.58209(8) 0.52950(8) 0.12606(19)
O3_2 O 0.94011(9) 0.91663(8) 0.58664(19)
O4_2 O 0.97122(9) 0.89302(7) 0.37808(18)
C1_2 C 0.95211(11) 0.87850(11) 0.4913(3)
C2_2 C 0.94168(12) 0.80826(11) 0.5144(3)
N1_2 N 0.83968(11) 0.58897(10) 0.4497(3)
C3_2 C 0.63246(11) 0.54431(11) 0.0836(3)
C4_2 C 0.70591(11) 0.55976(11) 0.2141(3)
C5_2 C 0.92417(12) 0.67882(11) 0.5574(3)
C6_2 C 0.91092(13) 0.78781(12) 0.6209(3)
H1_2 H 0.8962 0.8176 0.6789
C7_2 C 0.90210(13) 0.72333(13) 0.6406(3)
H2_2 H 0.8810 0.7100 0.7111
C8_2 C 0.96508(14) 0.76333(12) 0.4333(3)
H3_2 H 0.9866 0.7765 0.3633
C9_2 C 0.91250(14) 0.60846(13) 0.5740(3)
H4_2 H 0.9147 0.5995 0.6822
H5_2 H 0.9505 0.5841 0.5583
C10_2 C 0.71322(13) 0.57337(13) 0.3704(3)
H6_2 H 0.6728 0.5722 0.3973
C11_2 C 0.95677(15) 0.69853(13) 0.4553(3)
H7_2 H 0.9732 0.6684 0.4012
C12_2 C 0.76743(12) 0.56032(14) 0.1783(3)
H8_2 H 0.7635 0.5513 0.0735
C13_2 C 0.78066(14) 0.58870(13) 0.4870(3)
H9_2 H 0.7854 0.5989 0.5918
C14_2 C 0.83410(13) 0.57432(14) 0.2984(3)
H10_2 H 0.8755 0.5737 0.2752
O9_2 O 0.91791(8) 0.97050(8) 0.87394(19)
O2_2 O 0.87331(8) 0.95233(8) 0.06116(18)
O3_3 O 0.55989(9) 0.58337(8) 0.41336(19)
C1_3 C 0.54789(11) 0.62150(11) 0.5087(3)
C2_3 C 0.55832(12) 0.69174(11) 0.4856(3)
N1_3 N 0.66032(11) 0.91103(10) 0.5503(3)
C3_3 C 0.86754(11) 0.95569(11) 0.9164(3)
C4_3 C 0.79409(11) 0.94024(11) 0.7859(3)
C5_3 C 0.57583(12) 0.82118(11) 0.4426(3)
C6_3 C 0.58908(13) 0.71219(12) 0.3791(3)
H1_3 H 0.6038 0.6824 0.3211
C7_3 C 0.59790(13) 0.77667(13) 0.3594(3)
H2_3 H 0.6190 0.7900 0.2889
C8_3 C 0.53492(14) 0.73667(12) 0.5667(3)
H3_3 H 0.5134 0.7235 0.6367
C9_3 C 0.58750(14) 0.89154(13) 0.4260(3)
H4_3 H 0.5853 0.9005 0.3178
H5_3 H 0.5495 0.9159 0.4417
C10_3 C 0.78678(13) 0.92663(13) 0.6296(3)
H6_3 H 0.8272 0.9278 0.6027
C11_3 C 0.54323(15) 0.80147(13) 0.5447(3)
H7_3 H 0.5268 0.8316 0.5988
C12_3 C 0.73257(12) 0.93968(14) 0.8217(3)
H8_3 H 0.7365 0.9487 0.9265
C13_3 C 0.71934(14) 0.91130(13) 0.5130(3)
H9_3 H 0.7146 0.9011 0.4082
C14_3 C 0.66590(13) 0.92568(14) 0.7016(3)
H10_3 H 0.6245 0.9263 0.7248
O7_3 O 0.44011(9) 0.58337(8) 0.08664(19)
C16_3 C 0.44168(12) 0.69174(11) 0.0144(3)
C19_3 C 0.42417(12) 0.82118(11) 0.0574(3)
C20_3 C 0.41092(13) 0.71219(12) 0.1209(3)
H11_3 H 0.3962 0.6824 0.1789
C21_3 C 0.40210(13) 0.77667(13) 0.1406(3)
H12_3 H 0.3810 0.7900 0.2111
C23_3 C 0.41250(14) 0.89154(13) 0.0740(3)
H14_3 H 0.4147 0.9005 0.1822
H15_3 H 0.4505 0.9159 0.0583
H19_3 H 0.2854 0.9011 0.0918
O11_2 O 0.37331(8) 0.45233(8) 0.06116(18)
O12_2 O 0.62669(8) 0.45233(8) 0.43884(18)
O6_2 O 0.12669(8) 0.95233(8) 0.43884(18)
C15_3 C 0.45211(11) 0.62150(11) 0.9913(3)
N2_3 N 0.33968(11) 0.91103(10) 0.9497(3)
C17_3 C 0.13246(11) 0.95569(11) 0.5836(3)
C18_3 C 0.20591(11) 0.94024(11) 0.7141(3)
C22_3 C 0.46508(14) 0.73667(12) 0.9333(3)
H13_3 H 0.4866 0.7235 0.8633
C24_3 C 0.21322(13) 0.92663(13) 0.8704(3)
H16_3 H 0.1728 0.9278 0.8973
C25_3 C 0.45677(15) 0.80147(13) 0.9553(3)
H17_3 H 0.4732 0.8316 0.9012
C26_3 C 0.26743(12) 0.93968(14) 0.6783(3)
H18_3 H 0.2635 0.9487 0.5735
C27_3 C 0.28066(14) 0.91130(13) 0.9870(3)
C28_3 C 0.33410(13) 0.92568(14) 0.7984(3)
H20_3 H 0.3755 0.9263 0.7752
O3_4 O 0.05989(9) 0.08337(8) 0.41336(19)
C1_4 C 0.04789(11) 0.12150(11) 0.5087(3)
C2_4 C 0.05832(12) 0.19174(11) 0.4856(3)
N1_4 N 0.16032(11) 0.41103(10) 0.5503(3)
C3_4 C 0.36754(11) 0.45569(11) 0.9164(3)
C4_4 C 0.29409(11) 0.44024(11) 0.7859(3)
C5_4 C 0.07583(12) 0.32118(11) 0.4426(3)
C6_4 C 0.08908(13) 0.21219(12) 0.3791(3)
H1_4 H 0.1038 0.1824 0.3211
C7_4 C 0.09790(13) 0.27667(13) 0.3594(3)
H2_4 H 0.1190 0.2900 0.2889
C8_4 C 0.03492(14) 0.23667(12) 0.5667(3)
H3_4 H 0.0134 0.2235 0.6367
C9_4 C 0.08750(14) 0.39154(13) 0.4260(3)
H4_4 H 0.0853 0.4005 0.3178
H5_4 H 0.0495 0.4159 0.4417
C10_4 C 0.28678(13) 0.42663(13) 0.6296(3)
H6_4 H 0.3272 0.4278 0.6027
C11_4 C 0.04323(15) 0.30147(13) 0.5447(3)
H7_4 H 0.0268 0.3316 0.5988
C12_4 C 0.23257(12) 0.43968(14) 0.8217(3)
H8_4 H 0.2365 0.4487 0.9265
C13_4 C 0.21934(14) 0.41130(13) 0.5130(3)
H9_4 H 0.2146 0.4011 0.4082
C14_4 C 0.16590(13) 0.42568(14) 0.7016(3)
H10_4 H 0.1245 0.4263 0.7248
O7_4 O 0.94011(9) 0.08337(8) 0.08664(19)
C16_4 C 0.94168(12) 0.19174(11) 0.0144(3)
C19_4 C 0.92417(12) 0.32118(11) 0.0574(3)
C20_4 C 0.91092(13) 0.21219(12) 0.1209(3)
H11_4 H 0.8962 0.1824 0.1789
C21_4 C 0.90210(13) 0.27667(13) 0.1406(3)
H12_4 H 0.8810 0.2900 0.2111
C23_4 C 0.91250(14) 0.39154(13) 0.0740(3)
H14_4 H 0.9147 0.4005 0.1822
H15_4 H 0.9505 0.4159 0.0583
H19_4 H 0.7854 0.4011 0.0918
C15_4 C 0.95211(11) 0.12150(11) 0.9913(3)
N2_4 N 0.83968(11) 0.41103(10) 0.9497(3)
C17_4 C 0.63246(11) 0.45569(11) 0.5836(3)
C18_4 C 0.70591(11) 0.44024(11) 0.7141(3)
C22_4 C 0.96508(14) 0.23667(12) 0.9333(3)
H13_4 H 0.9866 0.2235 0.8633
C24_4 C 0.71322(13) 0.42663(13) 0.8704(3)
H16_4 H 0.6728 0.4278 0.8973
C25_4 C 0.95677(15) 0.30147(13) 0.9553(3)
H17_4 H 0.9732 0.3316 0.9012
C26_4 C 0.76743(12) 0.43968(14) 0.6783(3)
H18_4 H 0.7635 0.4487 0.5735
C27_4 C 0.78066(14) 0.41130(13) 0.9870(3)
C28_4 C 0.83410(13) 0.42568(14) 0.7984(3)
H20_4 H 0.8755 0.4263 0.7752
loop_
_geom_bond_atom_site_label_1
_geom_bond_atom_site_label_2
_geom_bond_site_symmetry_1
_geom_bond_site_symmetry_2
O5 C17 1_555 1_555
O6 C17 1_555 1_555
O8 C15 1_555 1_555
C17 C18 1_555 1_555
C18 C24 1_555 1_555
H13 C22 1_555 1_555
C24 H16 1_555 1_555
H17 C25 1_555 1_555
C26 C18 1_555 1_555
H18 C26 1_555 1_555
C27 N2 1_555 1_555
C28 N2 1_555 1_555
H20 C28 1_555 1_555
Ce3_2 O6 1_555 1_555
Ce5 O8 1_555 1_555
C22 C25 1_555 1_555
C24 C27 1_555 1_555
C26 C28 1_555 1_555
Ce1 O3 1_555 1_555
O1 C3 1_555 1_555
O3 C1 1_555 1_555
O4 C1 1_555 1_555
C1 C2 1_555 1_555
C2 C6 1_555 1_555
N1 C9 1_555 1_555
C3 C4 1_555 1_555
C4 C10 1_555 1_555
C5 C7 1_555 1_555
C6 H1 1_555 1_555
C7 C6 1_555 1_555
H2 C7 1_555 1_555
C8 C2 1_555 1_555
H3 C8 1_555 1_555
C9 C5 1_555 1_555
H4 C9 1_555 1_555
H5 C9 1_555 1_555
C10 H6 1_555 1_555
C11 C5 1_555 1_555
H7 C11 1_555 1_555
C12 C4 1_555 1_555
H8 C12 1_555 1_555
C13 N1 1_555 1_555
H9 C13 1_555 1_555
C14 N1 1_555 1_555
H10 C14 1_555 1_555
O7 Ce1 1_555 1_555
C19 C21 1_555 1_555
C20 C16 1_555 1_555
H11 C20 1_555 1_555
C21 C20 1_555 1_555
H12 C21 1_555 1_555
C23 C19 1_555 1_555
H14 C23 1_555 1_555
H15 C23 1_555 1_555
Ce5 O4 1_555 1_555
O9 Ce1 1_555 1_555
O10 Ce1 1_555 1_555
O11 Ce1 1_555 1_555
O12 Ce1 1_555 1_555
O13 Ce1 1_555 1_555
O14 Ce1 1_555 1_555
C8 C11 1_555 1_555
C10 C13 1_555 1_555
C12 C14 1_555 1_555
Ce3 O2 1_555 1_555
O13_2 Ce3 1_555 1_555
O5_2 C17_2 1_555 1_555
O12 C17_2 1_555 1_555
O8_2 C15_2 1_555 1_555
C17_2 C18_2 1_555 1_555
C18_2 C24_2 1_555 1_555
H13_2 C22_2 1_555 1_555
C24_2 H16_2 1_555 1_555
H17_2 C25_2 1_555 1_555
C26_2 C18_2 1_555 1_555
H18_2 C26_2 1_555 1_555
C27_2 N2_2 1_555 1_555
C28_2 N2_2 1_555 1_555
H20_2 C28_2 1_555 1_555
Ce7 O8_2 1_555 1_555
Ce5 O5_2 1_555 1_555
C22_2 C25_2 1_555 1_555
C24_2 C27_2 1_555 1_555
C26_2 C28_2 1_555 1_555
C19_2 C21_2 1_555 1_555
C20_2 C16_2 1_555 1_555
H11_2 C20_2 1_555 1_555
C21_2 C20_2 1_555 1_555
H12_2 C21_2 1_555 1_555
C23_2 C19_2 1_555 1_555
H14_2 C23_2 1_555 1_555
H15_2 C23_2 1_555 1_555
O14_2 Ce3_2 1_555 1_555
O1_2 C3_2 1_555 1_555
O3_2 C1_2 1_555 1_555
O4_2 C1_2 1_555 1_555
C1_2 C2_2 1_555 1_555
C2_2 C6_2 1_555 1_555
N1_2 C9_2 1_555 1_555
C3_2 C4_2 1_555 1_555
C4_2 C10_2 1_555 1_555
C5_2 C7_2 1_555 1_555
C6_2 H1_2 1_555 1_555
C7_2 C6_2 1_555 1_555
H2_2 C7_2 1_555 1_555
C8_2 C2_2 1_555 1_555
H3_2 C8_2 1_555 1_555
C9_2 C5_2 1_555 1_555
H4_2 C9_2 1_555 1_555
H5_2 C9_2 1_555 1_555
C10_2 H6_2 1_555 1_555
C11_2 C5_2 1_555 1_555
H7_2 C11_2 1_555 1_555
C12_2 C4_2 1_555 1_555
H8_2 C12_2 1_555 1_555
C13_2 N1_2 1_555 1_555
H9_2 C13_2 1_555 1_555
C14_2 N1_2 1_555 1_555
H10_2 C14_2 1_555 1_555
Ce7_2 O4_2 1_555 1_555
Ce5 O1_2 1_555 1_555
C8_2 C11_2 1_555 1_555
C10_2 C13_2 1_555 1_555
C12_2 C14_2 1_555 1_555
Ce7_2 O2_2 1_555 1_555
Ce5 O3_3 1_555 1_555
O9_2 C3_3 1_555 1_555
O3_3 C1_3 1_555 1_555
O13 C1_3 1_555 1_555
C1_3 C2_3 1_555 1_555
C2_3 C6_3 1_555 1_555
N1_3 C9_3 1_555 1_555
C3_3 C4_3 1_555 1_555
C4_3 C10_3 1_555 1_555
C5_3 C7_3 1_555 1_555
C6_3 H1_3 1_555 1_555
C7_3 C6_3 1_555 1_555
H2_3 C7_3 1_555 1_555
C8_3 C2_3 1_555 1_555
H3_3 C8_3 1_555 1_555
C9_3 C5_3 1_555 1_555
H4_3 C9_3 1_555 1_555
H5_3 C9_3 1_555 1_555
C10_3 H6_3 1_555 1_555
C11_3 C5_3 1_555 1_555
H7_3 C11_3 1_555 1_555
C12_3 C4_3 1_555 1_555
H8_3 C12_3 1_555 1_555
C13_3 N1_3 1_555 1_555
H9_3 C13_3 1_555 1_555
C14_3 N1_3 1_555 1_555
H10_3 C14_3 1_555 1_555
O7_3 Ce5 1_555 1_555
C19_3 C21_3 1_555 1_555
C20_3 C16_3 1_555 1_555
H11_3 C20_3 1_555 1_555
C21_3 C20_3 1_555 1_555
H12_3 C21_3 1_555 1_555
C23_3 C19_3 1_555 1_555
H14_3 C23_3 1_555 1_555
H15_3 C23_3 1_555 1_555
O11_2 Ce5 1_555 1_555
O12_2 Ce5 1_555 1_555
C8_3 C11_3 1_555 1_555
C10_3 C13_3 1_555 1_555
C12_3 C14_3 1_555 1_555
O10_2 C17_3 1_555 1_555
O6_2 C17_3 1_555 1_555
O14 C15_3 1_555 1_555
C17_3 C18_3 1_555 1_555
C18_3 C24_3 1_555 1_555
H13_3 C22_3 1_555 1_555
C24_3 H16_3 1_555 1_555
H17_3 C25_3 1_555 1_555
C26_3 C18_3 1_555 1_555
H18_3 C26_3 1_555 1_555
C27_3 N2_3 1_555 1_555
C28_3 N2_3 1_555 1_555
H20_3 C28_3 1_555 1_555
Ce7 O6_2 1_555 1_555
C22_3 C25_3 1_555 1_555
C24_3 C27_3 1_555 1_555
C26_3 C28_3 1_555 1_555
O9 C3_4 1_555 1_555
O3_4 C1_4 1_555 1_555
O13_2 C1_4 1_555 1_555
C1_4 C2_4 1_555 1_555
C2_4 C6_4 1_555 1_555
N1_4 C9_4 1_555 1_555
C3_4 C4_4 1_555 1_555
C4_4 C10_4 1_555 1_555
C5_4 C7_4 1_555 1_555
C6_4 H1_4 1_555 1_555
C7_4 C6_4 1_555 1_555
H2_4 C7_4 1_555 1_555
C8_4 C2_4 1_555 1_555
H3_4 C8_4 1_555 1_555
C9_4 C5_4 1_555 1_555
H4_4 C9_4 1_555 1_555
H5_4 C9_4 1_555 1_555
C10_4 H6_4 1_555 1_555
C11_4 C5_4 1_555 1_555
H7_4 C11_4 1_555 1_555
C12_4 C4_4 1_555 1_555
H8_4 C12_4 1_555 1_555
C13_4 N1_4 1_555 1_555
H9_4 C13_4 1_555 1_555
C14_4 N1_4 1_555 1_555
H10_4 C14_4 1_555 1_555
C8_4 C11_4 1_555 1_555
C10_4 C13_4 1_555 1_555
C12_4 C14_4 1_555 1_555
C19_4 C21_4 1_555 1_555
C20_4 C16_4 1_555 1_555
H11_4 C20_4 1_555 1_555
C21_4 C20_4 1_555 1_555
H12_4 C21_4 1_555 1_555
C23_4 C19_4 1_555 1_555
H14_4 C23_4 1_555 1_555
H15_4 C23_4 1_555 1_555
O10 C17_4 1_555 1_555
O12_2 C17_4 1_555 1_555
O14_2 C15_4 1_555 1_555
C17_4 C18_4 1_555 1_555
C18_4 C24_4 1_555 1_555
H13_4 C22_4 1_555 1_555
C24_4 H16_4 1_555 1_555
H17_4 C25_4 1_555 1_555
C26_4 C18_4 1_555 1_555
H18_4 C26_4 1_555 1_555
C27_4 N2_4 1_555 1_555
C28_4 N2_4 1_555 1_555
H20_4 C28_4 1_555 1_555
C22_4 C25_4 1_555 1_555
C24_4 C27_4 1_555 1_555
C26_4 C28_4 1_555 1_555

#END
