
###############################################################################
#
# This file contains modified crystal structure data generated from the
# MOF subset of the Cambridge Structural Database (CSD) v543 
# hosted by the Cambridge Crystallographic Data Centre (CCDC).
#
# This work is licensed under the Creative Commons
# Attribution-NonCommercial-ShareAlike 4.0 International License.
# To view a copy of this license, visit
# http://creativecommons.org/licenses/by-nc-sa/4.0/
# or send a letter to
# Creative Commons, PO Box 1866, Mountain View, CA 94042, USA.
#
# CIF created using the CSD Python API on 29 September 2022
# The structure has been converted into the P1 space group
# The structure has a 3D framework
# The original CSD entry RAWYAS is in the rhombohedral crystal system
# The framework has been calculated to contain at least 10.0% void space
# The void calculation uses a probe of radius 1.32A, grid spacing 0.4
#
###############################################################################

data_RAWYAS
_chemical_formula_moiety         '(C144 H90 Cu18 N18 O72)n'
_symmetry_cell_setting           triclinic
_symmetry_space_group_name_H-M   'P 1'
_symmetry_Int_Tables_number      1
_space_group_name_Hall           'P 1'
loop_
_symmetry_equiv_pos_site_id
_symmetry_equiv_pos_as_xyz
1 x,y,z
_cell_length_a                   19.1196(4)
_cell_length_b                   19.1196(4)
_cell_length_c                   20.3039(5)
_cell_angle_alpha                90
_cell_angle_beta                 90
_cell_angle_gamma                120
_cell_volume                     6427.88
loop_
_atom_site_label
_atom_site_type_symbol
_atom_site_fract_x
_atom_site_fract_y
_atom_site_fract_z
Cu3 Cu 0.51885(2) 0.03769(3) 0.55717(2)
C1 C 0.16020(7) 0.83980(7) 0.62512(11)
C2 C 0.11410(10) 0.76074(10) 0.60388(8)
H1 H 0.0622 0.7284 0.6204
C3 C 0.14515(9) 0.72934(10) 0.55772(8)
C4 C 0.22279(7) 0.77721(7) 0.53345(11)
H2 H 0.2426 0.7574 0.5011
C5 C 0.09489(14) 0.64411(10) 0.53517(8)
O1 O 0.10964(11) 0.62694(7) 0.47869(6)
O2 O 0.04140(11) 0.59557(7) 0.57356(6)
Cu1 Cu 0.14782(2) 0.85218(2) 0.77616(2)
N1 N 0.12765(6) 0.87235(6) 0.67167(9)
H3 H 0.0710 0.8496 0.6687
C6 C 0.23926(10) 0.88590(10) 0.60388(8)
H4 H 0.2716 0.9378 0.6204
C7 C 0.27066(10) 0.85485(9) 0.55772(8)
H5 H 0.1504 0.9290 0.6687
C8 C 0.35589(10) 0.90511(14) 0.53517(8)
O3 O 0.37306(7) 0.89036(11) 0.47869(6)
O4 O 0.40443(7) 0.95860(11) 0.57356(6)
O5 O 0.03973(7) 0.81603(13) 0.81202(6)
O6 O 0.18397(13) 0.96027(7) 0.81202(6)
O7 O 0.11250(13) 0.73776(7) 0.75977(6)
O8 O 0.26224(7) 0.88750(13) 0.75977(6)
Cu4 Cu 0.48115(2) 0.96231(3) 0.44283(2)
Cu5 Cu 0.03769(3) 0.51885(2) 0.44283(2)
Cu6 Cu 0.18551(2) 0.81449(2) 0.89051(2)
Cu2 Cu 0.96231(3) 0.48115(2) 0.55717(2)
C1_2 C 0.16020(7) 0.32040(10) 0.62512(11)
C2_2 C 0.23926(10) 0.35336(14) 0.60388(8)
H1_2 H 0.2716 0.3338 0.6204
C3_2 C 0.27066(10) 0.41581(13) 0.55772(8)
C4_2 C 0.22279(7) 0.44558(10) 0.53345(11)
H2_2 H 0.2426 0.4852 0.5011
C5_2 C 0.35589(10) 0.45078(17) 0.53517(8)
O1_2 O 0.37306(7) 0.48270(13) 0.47869(6)
O2_2 O 0.40443(7) 0.44583(13) 0.57356(6)
Cu1_2 Cu 0.14782(2) 0.29564(3) 0.77616(2)
N1_2 N 0.12765(6) 0.25530(8) 0.67167(9)
H3_2 H 0.1504 0.2214 0.6687
C6_2 C 0.11410(10) 0.35336(14) 0.60388(8)
H4_2 H 0.0622 0.3338 0.6204
C7_2 C 0.14515(9) 0.41581(13) 0.55772(8)
H5_2 H 0.0710 0.2214 0.6687
C8_2 C 0.09489(14) 0.45078(17) 0.53517(8)
O3_2 O 0.10964(11) 0.48270(13) 0.47869(6)
O4_2 O 0.04140(11) 0.44583(13) 0.57356(6)
O5_2 O 0.18397(13) 0.22369(15) 0.81202(6)
O6_2 O 0.03973(7) 0.22369(15) 0.81202(6)
O7_2 O 0.26224(7) 0.37473(15) 0.75977(6)
O8_2 O 0.11250(13) 0.37473(15) 0.75977(6)
Cu2_2 Cu 0.51885(2) 0.48115(4) 0.55717(2)
Cu5_2 Cu 0.48115(2) 0.51885(4) 0.44283(2)
Cu6_2 Cu 0.18551(2) 0.37103(3) 0.89051(2)
C1_3 C 0.67960(10) 0.83980(7) 0.62512(11)
C2_3 C 0.64664(14) 0.88590(10) 0.60388(8)
H1_3 H 0.6662 0.9378 0.6204
C3_3 C 0.58419(13) 0.85485(9) 0.55772(8)
C4_3 C 0.55442(10) 0.77721(7) 0.53345(11)
H2_3 H 0.5148 0.7574 0.5011
C5_3 C 0.54922(17) 0.90511(14) 0.53517(8)
O1_3 O 0.51730(13) 0.89036(11) 0.47869(6)
O2_3 O 0.55417(13) 0.95860(11) 0.57356(6)
Cu1_3 Cu 0.70436(3) 0.85218(2) 0.77616(2)
N1_3 N 0.74470(8) 0.87235(6) 0.67167(9)
H3_3 H 0.7786 0.9290 0.6687
C6_3 C 0.64664(14) 0.76074(10) 0.60388(8)
H4_3 H 0.6662 0.7284 0.6204
C7_3 C 0.58419(13) 0.72934(10) 0.55772(8)
H5_3 H 0.7786 0.8496 0.6687
C8_3 C 0.54922(17) 0.64411(10) 0.53517(8)
O3_3 O 0.51730(13) 0.62694(7) 0.47869(6)
O4_3 O 0.55417(13) 0.59557(7) 0.57356(6)
O5_3 O 0.77631(15) 0.96027(7) 0.81202(6)
O6_3 O 0.77631(15) 0.81603(13) 0.81202(6)
O7_3 O 0.62527(15) 0.88750(13) 0.75977(6)
O8_3 O 0.62527(15) 0.73776(7) 0.75977(6)
Cu6_3 Cu 0.62897(3) 0.81449(2) 0.89051(2)
C1_4 C 0.83980(7) 0.16020(7) 0.37488(11)
C2_4 C 0.76074(10) 0.11410(10) 0.39612(8)
H1_4 H 0.7284 0.0622 0.3796
C3_4 C 0.72934(10) 0.14515(9) 0.44228(8)
C4_4 C 0.77721(7) 0.22279(7) 0.46655(11)
H2_4 H 0.7574 0.2426 0.4989
C5_4 C 0.64411(10) 0.09489(14) 0.46483(8)
O1_4 O 0.62694(7) 0.10964(11) 0.52131(6)
O2_4 O 0.59557(7) 0.04140(11) 0.42644(6)
Cu1_4 Cu 0.85218(2) 0.14782(2) 0.22384(2)
N1_4 N 0.87235(6) 0.12765(6) 0.32833(9)
H3_4 H 0.8496 0.0710 0.3313
C6_4 C 0.88590(10) 0.23926(10) 0.39612(8)
H4_4 H 0.9378 0.2716 0.3796
C7_4 C 0.85485(9) 0.27066(10) 0.44228(8)
H5_4 H 0.9290 0.1504 0.3313
C8_4 C 0.90511(14) 0.35589(10) 0.46483(8)
O3_4 O 0.89036(11) 0.37306(7) 0.52131(6)
O4_4 O 0.95860(11) 0.40443(7) 0.42644(6)
O5_4 O 0.81603(13) 0.03973(7) 0.18798(6)
O6_4 O 0.96027(7) 0.18397(13) 0.18798(6)
O7_4 O 0.73776(7) 0.11250(13) 0.24023(6)
O8_4 O 0.88750(13) 0.26224(7) 0.24023(6)
Cu6_4 Cu 0.81449(2) 0.18551(2) 0.10949(2)
C1_5 C 0.32040(10) 0.16020(7) 0.37488(11)
C2_5 C 0.35336(14) 0.23926(10) 0.39612(8)
H1_5 H 0.3338 0.2716 0.3796
C3_5 C 0.41581(13) 0.27066(10) 0.44228(8)
C4_5 C 0.44558(10) 0.22279(7) 0.46655(11)
H2_5 H 0.4852 0.2426 0.4989
C5_5 C 0.45078(17) 0.35589(10) 0.46483(8)
O1_5 O 0.48270(13) 0.37306(7) 0.52131(6)
O2_5 O 0.44583(13) 0.40443(7) 0.42644(6)
Cu1_5 Cu 0.29564(3) 0.14782(2) 0.22384(2)
N1_5 N 0.25530(8) 0.12765(6) 0.32833(9)
H3_5 H 0.2214 0.1504 0.3313
C6_5 C 0.35336(14) 0.11410(10) 0.39612(8)
H4_5 H 0.3338 0.0622 0.3796
C7_5 C 0.41581(13) 0.14515(9) 0.44228(8)
H5_5 H 0.2214 0.0710 0.3313
C8_5 C 0.45078(17) 0.09489(14) 0.46483(8)
O3_5 O 0.48270(13) 0.10964(11) 0.52131(6)
O4_5 O 0.44583(13) 0.04140(11) 0.42644(6)
O5_5 O 0.22369(15) 0.18397(13) 0.18798(6)
O6_5 O 0.22369(15) 0.03973(7) 0.18798(6)
O7_5 O 0.37473(15) 0.26224(7) 0.24023(6)
O8_5 O 0.37473(15) 0.11250(13) 0.24023(6)
Cu6_5 Cu 0.37103(3) 0.18551(2) 0.10949(2)
C1_6 C 0.83980(7) 0.67960(10) 0.37488(11)
C2_6 C 0.88590(10) 0.64664(14) 0.39612(8)
H1_6 H 0.9378 0.6662 0.3796
C3_6 C 0.85485(9) 0.58419(13) 0.44228(8)
C4_6 C 0.77721(7) 0.55442(10) 0.46655(11)
H2_6 H 0.7574 0.5148 0.4989
C5_6 C 0.90511(14) 0.54922(17) 0.46483(8)
O1_6 O 0.89036(11) 0.51730(13) 0.52131(6)
O2_6 O 0.95860(11) 0.55417(13) 0.42644(6)
Cu1_6 Cu 0.85218(2) 0.70436(3) 0.22384(2)
N1_6 N 0.87235(6) 0.74470(8) 0.32833(9)
H3_6 H 0.9290 0.7786 0.3313
C6_6 C 0.76074(10) 0.64664(14) 0.39612(8)
H4_6 H 0.7284 0.6662 0.3796
C7_6 C 0.72934(10) 0.58419(13) 0.44228(8)
H5_6 H 0.8496 0.7786 0.3313
C8_6 C 0.64411(10) 0.54922(17) 0.46483(8)
O3_6 O 0.62694(7) 0.51730(13) 0.52131(6)
O4_6 O 0.59557(7) 0.55417(13) 0.42644(6)
O5_6 O 0.96027(7) 0.77631(15) 0.18798(6)
O6_6 O 0.81603(13) 0.77631(15) 0.18798(6)
O7_6 O 0.88750(13) 0.62527(15) 0.24023(6)
O8_6 O 0.73776(7) 0.62527(15) 0.24023(6)
Cu6_6 Cu 0.81449(2) 0.62897(3) 0.10949(2)
C8_7 C 0.02256(10) 0.23844(14) 0.86850(8)
O4_7 O 0.07110(7) 0.29193(11) 0.90689(6)
N1_7 N 0.79432(6) 0.20568(6) 0.00500(9)
H3_7 H 0.7377 0.1829 0.0020
H5_7 H 0.8171 0.2623 0.0020
O5_7 O 0.70639(7) 0.14937(13) 0.14536(6)
O6_7 O 0.85063(13) 0.29361(7) 0.14536(6)
O7_7 O 0.77916(13) 0.07110(7) 0.09311(6)
O8_7 O 0.92890(7) 0.22084(13) 0.09311(6)
C5_7 C 0.76156(14) 0.97744(10) 0.86850(8)
O2_7 O 0.70807(11) 0.92890(7) 0.90689(6)
C5_8 C 0.02256(10) 0.78411(17) 0.86850(8)
O2_8 O 0.07110(7) 0.77916(13) 0.90689(6)
N1_8 N 0.79432(6) 0.58863(8) 0.00500(9)
H3_8 H 0.8171 0.5547 0.0020
H5_8 H 0.7377 0.5547 0.0020
O5_8 O 0.85063(13) 0.55703(15) 0.14536(6)
O6_8 O 0.70639(7) 0.55703(15) 0.14536(6)
O7_8 O 0.92890(7) 0.70807(15) 0.09311(6)
O8_8 O 0.77916(13) 0.70807(15) 0.09311(6)
C1_7 C 0.82687(7) 0.65373(10) 0.95845(11)
C2_7 C 0.90593(10) 0.68669(14) 0.93721(8)
H1_7 H 0.9383 0.6671 0.9537
C3_7 C 0.93733(10) 0.74914(13) 0.89105(8)
C4_7 C 0.88946(7) 0.77891(10) 0.86678(11)
H2_7 H 0.9093 0.8185 0.8344
C6_7 C 0.78077(10) 0.68669(14) 0.93721(8)
H4_7 H 0.7289 0.6671 0.9537
C7_7 C 0.81182(9) 0.74914(13) 0.89105(8)
C8_8 C 0.76156(14) 0.78411(17) 0.86850(8)
O4_8 O 0.70807(11) 0.77916(13) 0.90689(6)
N1_9 N 0.41137(8) 0.20568(6) 0.00500(9)
H3_9 H 0.4453 0.2623 0.0020
H5_9 H 0.4453 0.1829 0.0020
O5_9 O 0.44297(15) 0.29361(7) 0.14536(6)
O6_9 O 0.44297(15) 0.14937(13) 0.14536(6)
O7_9 O 0.29193(15) 0.22084(13) 0.09311(6)
O8_9 O 0.29193(15) 0.07110(7) 0.09311(6)
C1_8 C 0.34627(10) 0.17313(7) 0.95845(11)
C2_8 C 0.31331(14) 0.21923(10) 0.93721(8)
H1_8 H 0.3329 0.2711 0.9537
C3_8 C 0.25086(13) 0.18818(9) 0.89105(8)
C4_8 C 0.22109(10) 0.11054(7) 0.86678(11)
H2_8 H 0.1815 0.0907 0.8344
C5_9 C 0.21589(17) 0.23844(14) 0.86850(8)
O2_9 O 0.22084(13) 0.29193(11) 0.90689(6)
C6_8 C 0.31331(14) 0.09407(10) 0.93721(8)
H4_8 H 0.3329 0.0617 0.9537
C7_8 C 0.25086(13) 0.06267(10) 0.89105(8)
C8_9 C 0.21589(17) 0.97744(10) 0.86850(8)
O4_9 O 0.22084(13) 0.92890(7) 0.90689(6)
C1_9 C 0.50647(7) 0.49353(7) 0.70821(11)
C2_9 C 0.42741(10) 0.44743(10) 0.72945(8)
H1_9 H 0.3951 0.3955 0.7129
C3_9 C 0.39601(10) 0.47848(9) 0.77561(8)
C4_9 C 0.44388(7) 0.55612(7) 0.79988(11)
H2_9 H 0.4241 0.5759 0.8322
C5_10 C 0.31078(10) 0.42822(14) 0.79816(8)
O1_7 O 0.29361(7) 0.44297(11) 0.85464(6)
N1_10 N 0.53902(6) 0.46098(6) 0.66166(9)
H3_10 H 0.5163 0.4043 0.6646
C6_9 C 0.55257(10) 0.57259(10) 0.72945(8)
H4_9 H 0.6045 0.6049 0.7129
C7_9 C 0.52152(9) 0.60399(10) 0.77561(8)
H5_10 H 0.5957 0.4837 0.6646
C8_10 C 0.57178(14) 0.68922(10) 0.79816(8)
O3_7 O 0.55703(11) 0.70639(7) 0.85464(6)
C2_10 C 0.02003(14) 0.57259(10) 0.72945(8)
H1_10 H 0.0005 0.6049 0.7129
C3_10 C 0.08248(13) 0.60399(10) 0.77561(8)
C4_10 C 0.11225(10) 0.55612(7) 0.79988(11)
H2_10 H 0.1519 0.5759 0.8322
C5_11 C 0.11745(17) 0.68922(10) 0.79816(8)
O1_8 O 0.14937(13) 0.70639(7) 0.85464(6)
C6_10 C 0.02003(14) 0.44743(10) 0.72945(8)
H4_10 H 0.0005 0.3955 0.7129
C7_10 C 0.08248(13) 0.47848(9) 0.77561(8)
C8_11 C 0.11745(17) 0.42822(14) 0.79816(8)
O3_8 O 0.14937(13) 0.44297(11) 0.85464(6)
C1_10 C 0.98707(10) 0.49353(7) 0.70821(11)
N1_11 N 0.92197(8) 0.46098(6) 0.66166(9)
H3_11 H 0.8881 0.4837 0.6646
H5_11 H 0.8881 0.4043 0.6646
C1_11 C 0.50647(7) 0.01293(10) 0.70821(11)
N1_12 N 0.53902(6) 0.07803(8) 0.66166(9)
H3_12 H 0.5957 0.1119 0.6646
H5_12 H 0.5163 0.1119 0.6646
C2_11 C 0.55257(10) 0.97997(14) 0.72945(8)
H1_11 H 0.6045 0.9995 0.7129
C3_11 C 0.52152(9) 0.91752(13) 0.77561(8)
C4_11 C 0.44388(7) 0.88775(10) 0.79988(11)
H2_11 H 0.4241 0.8481 0.8322
C5_12 C 0.57178(14) 0.88255(17) 0.79816(8)
O1_9 O 0.55703(11) 0.85063(13) 0.85464(6)
C6_11 C 0.42741(10) 0.97997(14) 0.72945(8)
H4_11 H 0.3951 0.9995 0.7129
C7_11 C 0.39601(10) 0.91752(13) 0.77561(8)
C8_12 C 0.31078(10) 0.88255(17) 0.79816(8)
O3_9 O 0.29361(7) 0.85063(13) 0.85464(6)
C1_12 C 0.49353(7) 0.50647(7) 0.29179(11)
C2_12 C 0.44743(10) 0.42741(10) 0.27055(8)
H1_12 H 0.3955 0.3951 0.2871
C3_12 C 0.47848(9) 0.39601(10) 0.22439(8)
C4_12 C 0.55612(7) 0.44388(7) 0.20012(11)
H2_12 H 0.5759 0.4241 0.1678
C5_13 C 0.42822(14) 0.31078(10) 0.20184(8)
N1_13 N 0.46098(6) 0.53902(6) 0.33834(9)
H3_13 H 0.4043 0.5163 0.3354
C6_12 C 0.57259(10) 0.55257(10) 0.27055(8)
H4_12 H 0.6049 0.6045 0.2871
C7_12 C 0.60399(10) 0.52152(9) 0.22439(8)
H5_13 H 0.4837 0.5957 0.3354
C8_13 C 0.68922(10) 0.57178(14) 0.20184(8)
C2_13 C 0.57259(10) 0.02003(14) 0.27055(8)
H1_13 H 0.6049 0.0005 0.2871
C3_13 C 0.60399(10) 0.08248(13) 0.22439(8)
C4_13 C 0.55612(7) 0.11225(10) 0.20012(11)
H2_13 H 0.5759 0.1519 0.1678
C5_14 C 0.68922(10) 0.11745(17) 0.20184(8)
C6_13 C 0.44743(10) 0.02003(14) 0.27055(8)
H4_13 H 0.3955 0.0005 0.2871
C7_13 C 0.47848(9) 0.08248(13) 0.22439(8)
C8_14 C 0.42822(14) 0.11745(17) 0.20184(8)
C1_13 C 0.49353(7) 0.98707(10) 0.29179(11)
N1_14 N 0.46098(6) 0.92197(8) 0.33834(9)
H3_14 H 0.4837 0.8881 0.3354
H5_14 H 0.4043 0.8881 0.3354
C1_14 C 0.01293(10) 0.50647(7) 0.29179(11)
N1_15 N 0.07803(8) 0.53902(6) 0.33834(9)
H3_15 H 0.1119 0.5957 0.3354
H5_15 H 0.1119 0.5163 0.3354
C2_14 C 0.97997(14) 0.55257(10) 0.27055(8)
H1_14 H 0.9995 0.6045 0.2871
C3_14 C 0.91752(13) 0.52152(9) 0.22439(8)
C4_14 C 0.88775(10) 0.44388(7) 0.20012(11)
H2_14 H 0.8481 0.4241 0.1678
C5_15 C 0.88255(17) 0.57178(14) 0.20184(8)
C6_14 C 0.97997(14) 0.42741(10) 0.27055(8)
H4_14 H 0.9995 0.3951 0.2871
C7_14 C 0.91752(13) 0.39601(10) 0.22439(8)
C8_15 C 0.88255(17) 0.31078(10) 0.20184(8)
C8_16 C 0.23844(14) 0.02256(10) 0.13150(8)
N1_16 N 0.20568(6) 0.79432(6) 0.99500(9)
H3_16 H 0.1829 0.7377 0.9980
H5_16 H 0.2623 0.8171 0.9980
C5_16 C 0.97744(10) 0.76156(14) 0.13150(8)
C5_17 C 0.78411(17) 0.02256(10) 0.13150(8)
C1_15 C 0.65373(10) 0.82687(7) 0.04155(11)
C2_15 C 0.68669(14) 0.90593(10) 0.06279(8)
H1_15 H 0.6671 0.9383 0.0463
C3_15 C 0.74914(13) 0.93733(10) 0.10895(8)
C4_15 C 0.77891(10) 0.88946(7) 0.13322(11)
H2_15 H 0.8185 0.9093 0.1656
C6_15 C 0.68669(14) 0.78077(10) 0.06279(8)
H4_15 H 0.6671 0.7289 0.0463
C7_15 C 0.74914(13) 0.81182(9) 0.10895(8)
C8_17 C 0.78411(17) 0.76156(14) 0.13150(8)
N1_17 N 0.58863(8) 0.79432(6) 0.99500(9)
H3_17 H 0.5547 0.8171 0.9980
H5_17 H 0.5547 0.7377 0.9980
C1_16 C 0.17313(7) 0.34627(10) 0.04155(11)
C2_16 C 0.21923(10) 0.31331(14) 0.06279(8)
H1_16 H 0.2711 0.3329 0.0463
C3_16 C 0.18818(9) 0.25086(13) 0.10895(8)
C4_16 C 0.11054(7) 0.22109(10) 0.13322(11)
H2_16 H 0.0907 0.1815 0.1656
C5_18 C 0.23844(14) 0.21589(17) 0.13150(8)
C6_16 C 0.09407(10) 0.31331(14) 0.06279(8)
H4_16 H 0.0617 0.3329 0.0463
C7_16 C 0.06267(10) 0.25086(13) 0.10895(8)
N1_18 N 0.20568(6) 0.41137(8) 0.99500(9)
H3_18 H 0.2623 0.4453 0.9980
H5_18 H 0.1829 0.4453 0.9980
C8_18 C 0.97744(10) 0.21589(17) 0.13150(8)
C1_17 C 0.82687(7) 0.17313(7) 0.95845(11)
C2_17 C 0.78077(10) 0.09407(10) 0.93721(8)
H1_17 H 0.7289 0.0617 0.9537
C3_17 C 0.81182(9) 0.06267(10) 0.89105(8)
C4_17 C 0.88946(7) 0.11054(7) 0.86678(11)
H2_17 H 0.9093 0.0907 0.8344
C6_17 C 0.90593(10) 0.21923(10) 0.93721(8)
H4_17 H 0.9383 0.2711 0.9537
C7_17 C 0.93733(10) 0.18818(9) 0.89105(8)
C1_18 C 0.17313(7) 0.82687(7) 0.04155(11)
C2_18 C 0.09407(10) 0.78077(10) 0.06279(8)
H1_18 H 0.0617 0.7289 0.0463
C3_18 C 0.06267(10) 0.81182(9) 0.10895(8)
C4_18 C 0.11054(7) 0.88946(7) 0.13322(11)
H2_18 H 0.0907 0.9093 0.1656
C6_18 C 0.21923(10) 0.90593(10) 0.06279(8)
H4_18 H 0.2711 0.9383 0.0463
C7_18 C 0.18818(9) 0.93733(10) 0.10895(8)
loop_
_geom_bond_atom_site_label_1
_geom_bond_atom_site_label_2
_geom_bond_site_symmetry_1
_geom_bond_site_symmetry_2
C1 C2 1_555 1_555
C2 H1 1_555 1_555
C3 C2 1_555 1_555
C4 C3 1_555 1_555
H2 C4 1_555 1_555
C5 C3 1_555 1_555
O1 C5 1_555 1_555
O2 C5 1_555 1_555
Cu1 N1 1_555 1_555
N1 C1 1_555 1_555
H3 N1 1_555 1_555
C6 C1 1_555 1_555
H4 C6 1_555 1_555
C7 C4 1_555 1_555
H5 N1 1_555 1_555
C8 C7 1_555 1_555
O3 C8 1_555 1_555
O4 C8 1_555 1_555
O5 Cu1 1_555 1_555
O6 Cu1 1_555 1_555
O7 Cu1 1_555 1_555
O8 Cu1 1_555 1_555
Cu4 O3 1_555 1_555
Cu5 O1 1_555 1_555
Cu6 Cu1 1_555 1_555
C6 C7 1_555 1_555
C1_2 C2_2 1_555 1_555
C2_2 H1_2 1_555 1_555
C3_2 C2_2 1_555 1_555
C4_2 C3_2 1_555 1_555
H2_2 C4_2 1_555 1_555
C5_2 C3_2 1_555 1_555
O1_2 C5_2 1_555 1_555
O2_2 C5_2 1_555 1_555
Cu1_2 N1_2 1_555 1_555
N1_2 C1_2 1_555 1_555
H3_2 N1_2 1_555 1_555
C6_2 C1_2 1_555 1_555
H4_2 C6_2 1_555 1_555
C7_2 C4_2 1_555 1_555
H5_2 N1_2 1_555 1_555
C8_2 C7_2 1_555 1_555
O3_2 C8_2 1_555 1_555
O4_2 C8_2 1_555 1_555
O5_2 Cu1_2 1_555 1_555
O6_2 Cu1_2 1_555 1_555
O7_2 Cu1_2 1_555 1_555
O8_2 Cu1_2 1_555 1_555
Cu2_2 O2_2 1_555 1_555
Cu5 O3_2 1_555 1_555
Cu5_2 O1_2 1_555 1_555
Cu6_2 Cu1_2 1_555 1_555
C6_2 C7_2 1_555 1_555
Cu2_2 Cu5_2 1_555 1_555
C1_3 C2_3 1_555 1_555
C2_3 H1_3 1_555 1_555
C3_3 C2_3 1_555 1_555
C4_3 C3_3 1_555 1_555
H2_3 C4_3 1_555 1_555
C5_3 C3_3 1_555 1_555
O1_3 C5_3 1_555 1_555
O2_3 C5_3 1_555 1_555
Cu1_3 N1_3 1_555 1_555
N1_3 C1_3 1_555 1_555
H3_3 N1_3 1_555 1_555
C6_3 C1_3 1_555 1_555
H4_3 C6_3 1_555 1_555
C7_3 C4_3 1_555 1_555
H5_3 N1_3 1_555 1_555
C8_3 C7_3 1_555 1_555
O3_3 C8_3 1_555 1_555
O4_3 C8_3 1_555 1_555
O5_3 Cu1_3 1_555 1_555
O6_3 Cu1_3 1_555 1_555
O7_3 Cu1_3 1_555 1_555
O8_3 Cu1_3 1_555 1_555
Cu2_2 O4_3 1_555 1_555
Cu5_2 O3_3 1_555 1_555
Cu4 O1_3 1_555 1_555
Cu6_3 Cu1_3 1_555 1_555
C6_3 C7_3 1_555 1_555
C1_4 C2_4 1_555 1_555
C2_4 H1_4 1_555 1_555
C3_4 C2_4 1_555 1_555
C4_4 C3_4 1_555 1_555
H2_4 C4_4 1_555 1_555
C5_4 C3_4 1_555 1_555
O1_4 C5_4 1_555 1_555
O2_4 C5_4 1_555 1_555
Cu1_4 N1_4 1_555 1_555
N1_4 C1_4 1_555 1_555
H3_4 N1_4 1_555 1_555
C6_4 C1_4 1_555 1_555
H4_4 C6_4 1_555 1_555
C7_4 C4_4 1_555 1_555
H5_4 N1_4 1_555 1_555
C8_4 C7_4 1_555 1_555
O3_4 C8_4 1_555 1_555
O4_4 C8_4 1_555 1_555
O5_4 Cu1_4 1_555 1_555
O6_4 Cu1_4 1_555 1_555
O7_4 Cu1_4 1_555 1_555
O8_4 Cu1_4 1_555 1_555
Cu2 O3_4 1_555 1_555
Cu3 O1_4 1_555 1_555
Cu6_4 Cu1_4 1_555 1_555
C6_4 C7_4 1_555 1_555
C1_5 C2_5 1_555 1_555
C2_5 H1_5 1_555 1_555
C3_5 C2_5 1_555 1_555
C4_5 C3_5 1_555 1_555
H2_5 C4_5 1_555 1_555
C5_5 C3_5 1_555 1_555
O1_5 C5_5 1_555 1_555
O2_5 C5_5 1_555 1_555
Cu1_5 N1_5 1_555 1_555
N1_5 C1_5 1_555 1_555
H3_5 N1_5 1_555 1_555
C6_5 C1_5 1_555 1_555
H4_5 C6_5 1_555 1_555
C7_5 C4_5 1_555 1_555
H5_5 N1_5 1_555 1_555
C8_5 C7_5 1_555 1_555
O3_5 C8_5 1_555 1_555
O4_5 C8_5 1_555 1_555
O5_5 Cu1_5 1_555 1_555
O6_5 Cu1_5 1_555 1_555
O7_5 Cu1_5 1_555 1_555
O8_5 Cu1_5 1_555 1_555
Cu5_2 O2_5 1_555 1_555
Cu3 O3_5 1_555 1_555
Cu2_2 O1_5 1_555 1_555
Cu6_5 Cu1_5 1_555 1_555
C6_5 C7_5 1_555 1_555
C1_6 C2_6 1_555 1_555
C2_6 H1_6 1_555 1_555
C3_6 C2_6 1_555 1_555
C4_6 C3_6 1_555 1_555
H2_6 C4_6 1_555 1_555
C5_6 C3_6 1_555 1_555
O1_6 C5_6 1_555 1_555
O2_6 C5_6 1_555 1_555
Cu1_6 N1_6 1_555 1_555
N1_6 C1_6 1_555 1_555
H3_6 N1_6 1_555 1_555
C6_6 C1_6 1_555 1_555
H4_6 C6_6 1_555 1_555
C7_6 C4_6 1_555 1_555
H5_6 N1_6 1_555 1_555
C8_6 C7_6 1_555 1_555
O3_6 C8_6 1_555 1_555
O4_6 C8_6 1_555 1_555
O5_6 Cu1_6 1_555 1_555
O6_6 Cu1_6 1_555 1_555
O7_6 Cu1_6 1_555 1_555
O8_6 Cu1_6 1_555 1_555
Cu5_2 O4_6 1_555 1_555
Cu2_2 O3_6 1_555 1_555
Cu2 O1_6 1_555 1_555
Cu6_6 Cu1_6 1_555 1_555
C6_6 C7_6 1_555 1_555
O6_2 C8_7 1_555 1_555
O4_7 C8_7 1_555 1_555
Cu6_2 O4_7 1_555 1_555
Cu6_4 N1_7 1_555 1_555
H3_7 N1_7 1_555 1_555
H5_7 N1_7 1_555 1_555
O5_7 Cu6_4 1_555 1_555
O6_7 Cu6_4 1_555 1_555
O7_7 Cu6_4 1_555 1_555
O8_7 Cu6_4 1_555 1_555
O5_3 C5_7 1_555 1_555
O2_7 C5_7 1_555 1_555
Cu6_3 O2_7 1_555 1_555
O5 C5_8 1_555 1_555
O2_8 C5_8 1_555 1_555
Cu6 O2_8 1_555 1_555
Cu6_6 N1_8 1_555 1_555
H3_8 N1_8 1_555 1_555
H5_8 N1_8 1_555 1_555
O5_8 Cu6_6 1_555 1_555
O6_8 Cu6_6 1_555 1_555
O7_8 Cu6_6 1_555 1_555
O8_8 Cu6_6 1_555 1_555
C1_7 C2_7 1_555 1_555
C2_7 H1_7 1_555 1_555
C3_7 C2_7 1_555 1_555
C4_7 C3_7 1_555 1_555
H2_7 C4_7 1_555 1_555
C6_7 C1_7 1_555 1_555
H4_7 C6_7 1_555 1_555
C7_7 C4_7 1_555 1_555
C8_8 C7_7 1_555 1_555
O6_3 C8_8 1_555 1_555
O4_8 C8_8 1_555 1_555
Cu6_3 O4_8 1_555 1_555
C6_7 C7_7 1_555 1_555
Cu6_5 N1_9 1_555 1_555
H3_9 N1_9 1_555 1_555
H5_9 N1_9 1_555 1_555
O5_9 Cu6_5 1_555 1_555
O6_9 Cu6_5 1_555 1_555
O7_9 Cu6_5 1_555 1_555
O8_9 Cu6_5 1_555 1_555
C1_8 C2_8 1_555 1_555
C2_8 H1_8 1_555 1_555
C3_8 C2_8 1_555 1_555
C4_8 C3_8 1_555 1_555
H2_8 C4_8 1_555 1_555
C5_9 C3_8 1_555 1_555
O5_2 C5_9 1_555 1_555
O2_9 C5_9 1_555 1_555
C6_8 C1_8 1_555 1_555
H4_8 C6_8 1_555 1_555
C7_8 C4_8 1_555 1_555
Cu6_2 O2_9 1_555 1_555
C6_8 C7_8 1_555 1_555
O6 C8_9 1_555 1_555
O4_9 C8_9 1_555 1_555
Cu6 O4_9 1_555 1_555
C1_9 C2_9 1_555 1_555
C2_9 H1_9 1_555 1_555
C3_9 C2_9 1_555 1_555
C4_9 C3_9 1_555 1_555
H2_9 C4_9 1_555 1_555
C5_10 C3_9 1_555 1_555
O1_7 C5_10 1_555 1_555
O7_2 C5_10 1_555 1_555
Cu2_2 N1_10 1_555 1_555
N1_10 C1_9 1_555 1_555
H3_10 N1_10 1_555 1_555
C6_9 C1_9 1_555 1_555
H4_9 C6_9 1_555 1_555
C7_9 C4_9 1_555 1_555
H5_10 N1_10 1_555 1_555
C8_10 C7_9 1_555 1_555
O3_7 C8_10 1_555 1_555
O8_3 C8_10 1_555 1_555
Cu6_3 O3_7 1_555 1_555
Cu6_2 O1_7 1_555 1_555
C6_9 C7_9 1_555 1_555
C2_10 H1_10 1_555 1_555
C3_10 C2_10 1_555 1_555
C4_10 C3_10 1_555 1_555
H2_10 C4_10 1_555 1_555
C5_11 C3_10 1_555 1_555
O1_8 C5_11 1_555 1_555
O7 C5_11 1_555 1_555
H4_10 C6_10 1_555 1_555
C7_10 C4_10 1_555 1_555
C8_11 C7_10 1_555 1_555
O3_8 C8_11 1_555 1_555
O8_2 C8_11 1_555 1_555
Cu6_2 O3_8 1_555 1_555
Cu6 O1_8 1_555 1_555
C6_10 C7_10 1_555 1_555
Cu2 N1_11 1_555 1_555
N1_11 C1_10 1_555 1_555
H3_11 N1_11 1_555 1_555
H5_11 N1_11 1_555 1_555
Cu3 N1_12 1_555 1_555
N1_12 C1_11 1_555 1_555
H3_12 N1_12 1_555 1_555
H5_12 N1_12 1_555 1_555
C2_11 H1_11 1_555 1_555
C3_11 C2_11 1_555 1_555
C4_11 C3_11 1_555 1_555
H2_11 C4_11 1_555 1_555
C5_12 C3_11 1_555 1_555
O1_9 C5_12 1_555 1_555
O7_3 C5_12 1_555 1_555
H4_11 C6_11 1_555 1_555
C7_11 C4_11 1_555 1_555
C8_12 C7_11 1_555 1_555
O3_9 C8_12 1_555 1_555
O8 C8_12 1_555 1_555
Cu6 O3_9 1_555 1_555
Cu6_3 O1_9 1_555 1_555
C6_11 C7_11 1_555 1_555
C1_12 C2_12 1_555 1_555
C2_12 H1_12 1_555 1_555
C3_12 C2_12 1_555 1_555
C4_12 C3_12 1_555 1_555
H2_12 C4_12 1_555 1_555
C5_13 C3_12 1_555 1_555
O5_9 C5_13 1_555 1_555
O7_5 C5_13 1_555 1_555
Cu5_2 N1_13 1_555 1_555
N1_13 C1_12 1_555 1_555
H3_13 N1_13 1_555 1_555
C6_12 C1_12 1_555 1_555
H4_12 C6_12 1_555 1_555
C7_12 C4_12 1_555 1_555
H5_13 N1_13 1_555 1_555
C8_13 C7_12 1_555 1_555
O6_8 C8_13 1_555 1_555
O8_6 C8_13 1_555 1_555
C6_12 C7_12 1_555 1_555
C2_13 H1_13 1_555 1_555
C3_13 C2_13 1_555 1_555
C4_13 C3_13 1_555 1_555
H2_13 C4_13 1_555 1_555
C5_14 C3_13 1_555 1_555
O5_7 C5_14 1_555 1_555
O7_4 C5_14 1_555 1_555
H4_13 C6_13 1_555 1_555
C7_13 C4_13 1_555 1_555
C8_14 C7_13 1_555 1_555
O6_9 C8_14 1_555 1_555
O8_5 C8_14 1_555 1_555
C6_13 C7_13 1_555 1_555
Cu4 N1_14 1_555 1_555
N1_14 C1_13 1_555 1_555
H3_14 N1_14 1_555 1_555
H5_14 N1_14 1_555 1_555
Cu5 N1_15 1_555 1_555
N1_15 C1_14 1_555 1_555
H3_15 N1_15 1_555 1_555
H5_15 N1_15 1_555 1_555
C2_14 H1_14 1_555 1_555
C3_14 C2_14 1_555 1_555
C4_14 C3_14 1_555 1_555
H2_14 C4_14 1_555 1_555
C5_15 C3_14 1_555 1_555
O5_8 C5_15 1_555 1_555
O7_6 C5_15 1_555 1_555
H4_14 C6_14 1_555 1_555
C7_14 C4_14 1_555 1_555
C8_15 C7_14 1_555 1_555
O6_7 C8_15 1_555 1_555
O8_4 C8_15 1_555 1_555
C6_14 C7_14 1_555 1_555
O6_5 C8_16 1_555 1_555
O8_9 C8_16 1_555 1_555
Cu6 N1_16 1_555 1_555
H3_16 N1_16 1_555 1_555
H5_16 N1_16 1_555 1_555
O5_6 C5_16 1_555 1_555
O7_8 C5_16 1_555 1_555
O5_4 C5_17 1_555 1_555
O7_7 C5_17 1_555 1_555
C1_15 C2_15 1_555 1_555
C2_15 H1_15 1_555 1_555
C3_15 C2_15 1_555 1_555
C4_15 C3_15 1_555 1_555
H2_15 C4_15 1_555 1_555
C6_15 C1_15 1_555 1_555
H4_15 C6_15 1_555 1_555
C7_15 C4_15 1_555 1_555
C8_17 C7_15 1_555 1_555
O6_6 C8_17 1_555 1_555
O8_8 C8_17 1_555 1_555
C6_15 C7_15 1_555 1_555
Cu6_3 N1_17 1_555 1_555
H3_17 N1_17 1_555 1_555
H5_17 N1_17 1_555 1_555
C1_16 C2_16 1_555 1_555
C2_16 H1_16 1_555 1_555
C3_16 C2_16 1_555 1_555
C4_16 C3_16 1_555 1_555
H2_16 C4_16 1_555 1_555
C5_18 C3_16 1_555 1_555
O5_5 C5_18 1_555 1_555
O7_9 C5_18 1_555 1_555
C6_16 C1_16 1_555 1_555
H4_16 C6_16 1_555 1_555
C7_16 C4_16 1_555 1_555
C6_16 C7_16 1_555 1_555
Cu6_2 N1_18 1_555 1_555
H3_18 N1_18 1_555 1_555
H5_18 N1_18 1_555 1_555
O6_4 C8_18 1_555 1_555
O8_7 C8_18 1_555 1_555
C1_17 C2_17 1_555 1_555
C2_17 H1_17 1_555 1_555
C3_17 C2_17 1_555 1_555
C4_17 C3_17 1_555 1_555
H2_17 C4_17 1_555 1_555
C6_17 C1_17 1_555 1_555
H4_17 C6_17 1_555 1_555
C7_17 C4_17 1_555 1_555
C6_17 C7_17 1_555 1_555
C1_18 C2_18 1_555 1_555
C2_18 H1_18 1_555 1_555
C3_18 C2_18 1_555 1_555
C4_18 C3_18 1_555 1_555
H2_18 C4_18 1_555 1_555
C6_18 C1_18 1_555 1_555
H4_18 C6_18 1_555 1_555
C7_18 C4_18 1_555 1_555
C6_18 C7_18 1_555 1_555

#END
