
###############################################################################
#
# This file contains modified crystal structure data generated from the
# MOF subset of the Cambridge Structural Database (CSD) v543 
# hosted by the Cambridge Crystallographic Data Centre (CCDC).
#
# This work is licensed under the Creative Commons
# Attribution-NonCommercial-ShareAlike 4.0 International License.
# To view a copy of this license, visit
# http://creativecommons.org/licenses/by-nc-sa/4.0/
# or send a letter to
# Creative Commons, PO Box 1866, Mountain View, CA 94042, USA.
#
# CIF created using the CSD Python API on 29 September 2022
# The structure has been converted into the P1 space group
# The structure has a 3D framework
# The original CSD entry RAWZOH is in the monoclinic crystal system
# The framework has been calculated to contain at least 10.0% void space
# The void calculation uses a probe of radius 1.32A, grid spacing 0.4
#
###############################################################################

data_RAWZOH
_chemical_formula_moiety         '(C200 H120 Co8 N56 O32)n'
_symmetry_cell_setting           triclinic
_symmetry_space_group_name_H-M   'P 1'
_symmetry_Int_Tables_number      1
_space_group_name_Hall           'P 1'
loop_
_symmetry_equiv_pos_site_id
_symmetry_equiv_pos_as_xyz
1 x,y,z
_cell_length_a                   17.697(7)
_cell_length_b                   19.099(7)
_cell_length_c                   16.403(6)
_cell_angle_alpha                90
_cell_angle_beta                 99.176(12)
_cell_angle_gamma                90
_cell_volume                     5473.18
loop_
_atom_site_label
_atom_site_type_symbol
_atom_site_fract_x
_atom_site_fract_y
_atom_site_fract_z
Co6 Co 0.10043(6) 0.56841(5) 0.84006(6)
Co1 Co 0.13837(6) 0.06851(5) 0.16179(6)
N4 N 0.0166(3) 0.0702(3) 0.1573(3)
H6 H 0.0177 0.1514 0.2298
O1 O 0.1318(3) 0.1783(2) 0.1341(3)
O2 O 0.1322(3) 0.1049(2) 0.0300(3)
C35 C 0.1216(4) 0.2299(4) 0.0010(4)
H25 H 0.0953 0.3961 0.0006
C40 C 0.1074(5) 0.2939(4) 0.0290(5)
H26 H 0.0980 0.2988 0.0829
C41 C 0.1307(5) 0.1671(4) 0.0578(5)
N15 N 0.2606(4) 0.0659(3) 0.1717(4)
O9 O 0.1537(3) 0.0941(3) 0.2819(3)
C18 C 0.5419(5) 0.4676(6) 0.8994(6)
C19 C 0.6067(6) 0.5023(6) 0.8764(7)
H12 H 0.6027 0.5466 0.8524
C20 C 0.6763(5) 0.4670(5) 0.8915(7)
C21 C 0.6816(6) 0.4024(7) 0.9341(8)
H13 H 0.7289 0.3801 0.9439
N8 N 0.6222(6) 0.3712(6) 0.9611(8)
C22 C 0.5540(7) 0.4076(6) 0.9421(10)
H14 H 0.5118 0.3883 0.9611
N9 N 0.4541(5) 0.5629(4) 0.8364(5)
H15 H 0.4863 0.5888 0.8162
N10 N 0.4025(5) 0.4713(4) 0.9030(6)
N11 N 0.2263(3) 0.5696(3) 0.8436(3)
C23 C 0.4657(6) 0.4990(6) 0.8782(7)
C24 C 0.3798(4) 0.5725(4) 0.8362(5)
C25 C 0.3437(5) 0.5186(4) 0.8752(5)
C26 C 0.2679(5) 0.5186(5) 0.8791(5)
H16 H 0.2460 0.4830 0.9063
C27 C 0.2542(5) 0.6226(5) 0.8085(6)
H17 H 0.2224 0.6603 0.7910
C28 C 0.3301(6) 0.6245(6) 0.7963(7)
H18 H 0.3475 0.6585 0.7632
N12 N 0.7461(4) 0.5555(4) 0.8210(4)
N13 N 0.8189(4) 0.4732(4) 0.8991(5)
H19 H 0.8301 0.4383 0.9318
N14 N 0.9746(4) 0.5650(4) 0.8318(4)
C29 C 0.7462(5) 0.4986(5) 0.8713(5)
C30 C 0.8168(5) 0.5619(4) 0.8209(5)
C31 C 0.8690(5) 0.5132(5) 0.8659(5)
C32 C 0.9468(4) 0.5134(4) 0.8745(4)
H20 H 0.9777 0.4811 0.9066
C33 C 0.9325(5) 0.6099(4) 0.7830(4)
H21 H 0.9569 0.6426 0.7542
C34 C 0.8541(5) 0.6104(4) 0.7732(5)
H22 H 0.8256 0.6413 0.7366
O3 O 0.1537(3) 0.4059(3) 0.7819(3)
O4 O 0.1030(3) 0.4672(2) 0.8777(3)
C36 C 0.1356(5) 0.2228(5) 0.9189(5)
H23 H 0.1446 0.1787 0.8986
C37 C 0.1359(4) 0.2796(4) 0.8693(5)
H24 H 0.1454 0.2743 0.8155
C38 C 0.1214(4) 0.3482(4) 0.9002(4)
C39 C 0.1064(5) 0.3527(5) 0.9797(5)
C42 C 0.1257(4) 0.4119(4) 0.8477(4)
Co4 Co 0.13837(6) 0.43149(5) 0.66179(6)
O10 O 0.1019(3) 0.6769(3) 0.8684(3)
O11 O 0.1093(3) 0.6056(3) 0.9724(3)
O12 O 0.0844(3) 0.5920(3) 0.7186(3)
O7 O 0.0844(3) 0.9080(3) 0.2186(3)
O8 O 0.1372(3) 0.9682(3) 0.1242(3)
C43 C 0.1070(5) 0.7288(4) 0.0010(5)
C44 C 0.0837(4) 0.7250(4) 0.0780(5)
H27 H 0.0672 0.6828 0.0973
C45 C 0.0852(4) 0.7846(4) 0.1250(5)
H28 H 0.0671 0.7816 0.1751
C46 C 0.1112(4) 0.8466(4) 0.1034(4)
C47 C 0.1382(5) 0.8510(4) 0.0259(4)
H29 H 0.1577 0.8926 0.0084
C50 C 0.1112(4) 0.9122(4) 0.1532(5)
Co7 Co 0.10043(6) 0.93159(5) 0.34006(6)
C48 C 0.1343(6) 0.7895(5) 0.9768(5)
H30 H 0.1512 0.7914 0.9261
C49 C 0.1073(4) 0.6676(4) 0.9454(5)
C2 C 0.6356(6) 0.0042(5) 0.1244(6)
H1 H 0.6418 0.0434 0.1584
N2 N 0.7869(4) 0.0627(3) 0.1689(4)
C6 C 0.7696(5) 0.0066(5) 0.1182(6)
C7 C 0.8611(4) 0.0695(4) 0.1679(4)
C8 C 0.8941(5) 0.0217(4) 0.1234(5)
C9 C 0.9696(4) 0.0225(4) 0.1155(4)
C10 C 0.9851(4) 0.1180(4) 0.2020(5)
C11 C 0.9101(5) 0.1221(5) 0.2105(5)
H7 H 0.8916 0.1569 0.2418
N6 N 0.4935(4) 0.0591(4) 0.1770(4)
H8 H 0.5322 0.0828 0.2005
C12 C 0.4926(6) 0.0035(6) 0.1299(7)
C13 C 0.4202(5) 0.0695(5) 0.1793(6)
C14 C 0.3730(5) 0.0155(5) 0.1404(6)
C15 C 0.2953(5) 0.0160(4) 0.1387(5)
C16 C 0.3007(6) 0.1172(5) 0.2145(6)
H10 H 0.2752 0.1506 0.2411
C17 C 0.3819(5) 0.1214(6) 0.2199(6)
H11 H 0.4092 0.1574 0.2493
N4_2 N 0.0166(3) 0.4298(3) 0.6573(3)
H6_2 H 0.0177 0.3486 0.7298
C18_2 C 0.5419(5) 0.0324(6) 0.3994(6)
C20_2 C 0.6763(5) 0.0330(5) 0.3915(7)
C21_2 C 0.6816(6) 0.0976(7) 0.4341(8)
H13_2 H 0.7289 0.1199 0.4439
N8_2 N 0.6222(6) 0.1288(6) 0.4611(8)
C22_2 C 0.5540(7) 0.0924(6) 0.4421(10)
H14_2 H 0.5118 0.1117 0.4611
N10_2 N 0.4025(5) 0.0287(4) 0.4030(6)
C23_2 C 0.4657(6) 0.0010(6) 0.3782(7)
H16_2 H 0.2460 0.0170 0.4063
N13_2 N 0.8189(4) 0.0268(4) 0.3991(5)
H19_2 H 0.8301 0.0617 0.4318
C29_2 C 0.7462(5) 0.0014(5) 0.3713(5)
H20_2 H 0.9777 0.0189 0.4066
O1_2 O 0.1318(3) 0.3217(2) 0.6341(3)
O2_2 O 0.1322(3) 0.3951(2) 0.5300(3)
O4_2 O 0.1030(3) 0.0328(2) 0.3777(3)
C35_2 C 0.1216(4) 0.2701(4) 0.5010(4)
C36_2 C 0.1356(5) 0.2772(5) 0.4189(5)
H23_2 H 0.1446 0.3213 0.3986
C37_2 C 0.1359(4) 0.2204(4) 0.3693(5)
H24_2 H 0.1454 0.2257 0.3155
C38_2 C 0.1214(4) 0.1518(4) 0.4002(4)
C39_2 C 0.1064(5) 0.1473(5) 0.4797(5)
H25_2 H 0.0953 0.1039 0.5006
C40_2 C 0.1074(5) 0.2061(4) 0.5290(5)
H26_2 H 0.0980 0.2012 0.5829
C41_2 C 0.1307(5) 0.3329(4) 0.5578(5)
C42_2 C 0.1257(4) 0.0881(4) 0.3477(4)
O5 O 0.1019(3) 0.8231(3) 0.3684(3)
O6 O 0.1093(3) 0.8944(3) 0.4724(3)
O8_2 O 0.1372(3) 0.5318(3) 0.6242(3)
C43_2 C 0.1070(5) 0.7712(4) 0.5010(5)
C44_2 C 0.0837(4) 0.7750(4) 0.5780(5)
H27_2 H 0.0672 0.8172 0.5973
C45_2 C 0.0852(4) 0.7154(4) 0.6250(5)
H28_2 H 0.0671 0.7184 0.6751
C46_2 C 0.1112(4) 0.6534(4) 0.6034(4)
C47_2 C 0.1382(5) 0.6490(4) 0.5259(4)
H29_2 H 0.1577 0.6074 0.5084
C48_2 C 0.1343(6) 0.7105(5) 0.4768(5)
H30_2 H 0.1512 0.7086 0.4261
C49_2 C 0.1073(4) 0.8324(4) 0.4454(5)
C50_2 C 0.1112(4) 0.5878(4) 0.6532(5)
N15_2 N 0.2606(4) 0.4341(3) 0.6717(4)
C19_2 C 0.6067(6) 0.9977(6) 0.3764(7)
H12_2 H 0.6027 0.9534 0.3524
N9_2 N 0.4541(5) 0.9371(4) 0.3364(5)
H15_2 H 0.4863 0.9112 0.3162
N11_2 N 0.2263(3) 0.9304(3) 0.3436(3)
C24_2 C 0.3798(4) 0.9275(4) 0.3362(5)
C25_2 C 0.3437(5) 0.9814(4) 0.3752(5)
C26_2 C 0.2679(5) 0.9814(5) 0.3791(5)
C27_2 C 0.2542(5) 0.8774(5) 0.3085(6)
H17_2 H 0.2224 0.8397 0.2910
C28_2 C 0.3301(6) 0.8755(6) 0.2963(7)
H18_2 H 0.3475 0.8415 0.2632
N12_2 N 0.7461(4) 0.9445(4) 0.3210(4)
N14_2 N 0.9746(4) 0.9350(4) 0.3318(4)
C30_2 C 0.8168(5) 0.9381(4) 0.3209(5)
C31_2 C 0.8690(5) 0.9868(5) 0.3659(5)
C32_2 C 0.9468(4) 0.9866(4) 0.3745(4)
C33_2 C 0.9325(5) 0.8901(4) 0.2830(4)
H21_2 H 0.9569 0.8574 0.2542
C34_2 C 0.8541(5) 0.8896(4) 0.2732(5)
H22_2 H 0.8256 0.8587 0.2366
C1 C 0.6982(6) 0.5248(5) 0.5971(6)
C2_2 C 0.6356(6) 0.4958(5) 0.6244(6)
H1_2 H 0.6418 0.4566 0.6584
C3 C 0.5611(6) 0.5253(5) 0.6010(6)
C4 C 0.5535(7) 0.5843(6) 0.5510(8)
H2 H 0.5052 0.6041 0.5366
N1 N 0.6149(5) 0.6150(4) 0.5216(6)
C5 C 0.6842(5) 0.5829(5) 0.5460(7)
H3 H 0.7261 0.6020 0.5262
N2_2 N 0.7869(4) 0.4373(3) 0.6689(4)
N3 N 0.8367(4) 0.5188(4) 0.5925(4)
H4 H 0.8395 0.5548 0.5616
C6_2 C 0.7696(5) 0.4934(5) 0.6182(6)
C7_2 C 0.8611(4) 0.4305(4) 0.6679(4)
C8_2 C 0.8941(5) 0.4783(4) 0.6234(5)
C9_2 C 0.9696(4) 0.4775(4) 0.6155(4)
H5 H 0.9885 0.5097 0.5813
C10_2 C 0.9851(4) 0.3820(4) 0.7020(5)
C11_2 C 0.9101(5) 0.3779(5) 0.7105(5)
H7_2 H 0.8916 0.3431 0.7418
N5 N 0.4246(4) 0.5276(4) 0.6092(5)
N6_2 N 0.4935(4) 0.4409(4) 0.6770(4)
H8_2 H 0.5322 0.4172 0.7005
C12_2 C 0.4926(6) 0.4965(6) 0.6299(7)
C13_2 C 0.4202(5) 0.4305(5) 0.6793(6)
C14_2 C 0.3730(5) 0.4845(5) 0.6404(6)
C15_2 C 0.2953(5) 0.4840(4) 0.6387(5)
H9 H 0.2664 0.5207 0.6129
C16_2 C 0.3007(6) 0.3828(5) 0.7145(6)
H10_2 H 0.2752 0.3494 0.7411
C17_2 C 0.3819(5) 0.3786(6) 0.7199(6)
H11_2 H 0.4092 0.3426 0.7493
C1_2 C 0.6982(6) 0.9752(5) 0.0971(6)
C3_2 C 0.5611(6) 0.9747(5) 0.1010(6)
C4_2 C 0.5535(7) 0.9157(6) 0.0510(8)
H2_2 H 0.5052 0.8959 0.0366
N1_2 N 0.6149(5) 0.8850(4) 0.0216(6)
C5_2 C 0.6842(5) 0.9171(5) 0.0460(7)
H3_2 H 0.7261 0.8980 0.0262
N3_2 N 0.8367(4) 0.9812(4) 0.0925(4)
H4_2 H 0.8395 0.9452 0.0616
H5_2 H 0.9885 0.9903 0.0813
N5_2 N 0.4246(4) 0.9724(4) 0.1092(5)
H9_2 H 0.2664 0.9793 0.1129
N16 N 0.0254(4) 0.0650(4) 0.6682(4)
C1_3 C 0.3018(6) 0.4752(5) 0.4029(6)
C2_3 C 0.3644(6) 0.5042(5) 0.3756(6)
H1_3 H 0.3582 0.5434 0.3416
C3_3 C 0.4389(6) 0.4747(5) 0.3990(6)
C4_3 C 0.4465(7) 0.4157(6) 0.4490(8)
H2_3 H 0.4948 0.3959 0.4634
N1_3 N 0.3851(5) 0.3850(4) 0.4784(6)
C5_3 C 0.3158(5) 0.4171(5) 0.4540(7)
H3_3 H 0.2739 0.3980 0.4738
N2_3 N 0.2131(4) 0.5627(3) 0.3311(4)
N3_3 N 0.1633(4) 0.4812(4) 0.4075(4)
H4_3 H 0.1605 0.4452 0.4384
C6_3 C 0.2304(5) 0.5066(5) 0.3818(6)
C7_3 C 0.1389(4) 0.5695(4) 0.3321(4)
C8_3 C 0.1059(5) 0.5217(4) 0.3766(5)
C9_3 C 0.0304(4) 0.5225(4) 0.3845(4)
H5_3 H 0.0115 0.4903 0.4187
C10_3 C 0.0149(4) 0.6180(4) 0.2980(5)
C11_3 C 0.0899(5) 0.6221(5) 0.2895(5)
H7_3 H 0.1084 0.6569 0.2582
N5_3 N 0.5754(4) 0.4724(4) 0.3908(5)
N6_3 N 0.5065(4) 0.5591(4) 0.3230(4)
H8_3 H 0.4678 0.5828 0.2995
N7 N 0.7394(4) 0.5659(3) 0.3283(4)
C12_3 C 0.5074(6) 0.5035(6) 0.3701(7)
C13_3 C 0.5798(5) 0.5695(5) 0.3207(6)
C14_3 C 0.6270(5) 0.5155(5) 0.3596(6)
C15_3 C 0.7047(5) 0.5160(4) 0.3613(5)
H9_3 H 0.7336 0.4793 0.3871
C16_3 C 0.6993(6) 0.6172(5) 0.2855(6)
H10_3 H 0.7248 0.6506 0.2589
C17_3 C 0.6181(5) 0.6214(6) 0.2801(6)
H11_3 H 0.5908 0.6574 0.2507
Co3 Co 0.86163(6) 0.56851(5) 0.33821(6)
Co2 Co 0.89957(6) 0.06841(5) 0.65994(6)
C19_3 C 0.3933(6) 0.0023(6) 0.6236(7)
H12_3 H 0.3973 0.0466 0.6476
N9_3 N 0.5459(5) 0.0629(4) 0.6636(5)
H15_3 H 0.5137 0.0888 0.6838
N11_3 N 0.7737(3) 0.0696(3) 0.6564(3)
C24_3 C 0.6202(4) 0.0725(4) 0.6638(5)
C25_3 C 0.6563(5) 0.0186(4) 0.6248(5)
C26_3 C 0.7321(5) 0.0186(5) 0.6209(5)
C27_3 C 0.7458(5) 0.1226(5) 0.6915(6)
H17_3 H 0.7776 0.1603 0.7090
C28_3 C 0.6699(6) 0.1245(6) 0.7037(7)
H18_3 H 0.6525 0.1585 0.7368
N12_3 N 0.2539(4) 0.0555(4) 0.6790(4)
C30_3 C 0.1832(5) 0.0619(4) 0.6791(5)
C31_3 C 0.1310(5) 0.0132(5) 0.6341(5)
C32_3 C 0.0532(4) 0.0134(4) 0.6255(4)
C33_3 C 0.0675(5) 0.1099(4) 0.7170(4)
H21_3 H 0.0431 0.1426 0.7458
C34_3 C 0.1459(5) 0.1104(4) 0.7268(5)
H22_3 H 0.1744 0.1413 0.7634
O10_2 O 0.8981(3) 0.1769(3) 0.6316(3)
O11_2 O 0.8907(3) 0.1056(3) 0.5276(3)
O12_2 O 0.9156(3) 0.0920(3) 0.7814(3)
N4_3 N 0.9834(3) 0.5702(3) 0.3427(3)
H6_3 H 0.9823 0.6514 0.2702
C18_3 C 0.4581(5) 0.9676(6) 0.6006(6)
C20_3 C 0.3237(5) 0.9670(5) 0.6085(7)
C21_3 C 0.3184(6) 0.9024(7) 0.5659(8)
H13_3 H 0.2711 0.8801 0.5561
N8_3 N 0.3778(6) 0.8712(6) 0.5389(8)
C22_3 C 0.4460(7) 0.9076(6) 0.5579(10)
H14_3 H 0.4882 0.8883 0.5389
N10_3 N 0.5975(5) 0.9713(4) 0.5970(6)
C23_3 C 0.5343(6) 0.9990(6) 0.6218(7)
H16_3 H 0.7540 0.9830 0.5937
N13_3 N 0.1811(4) 0.9732(4) 0.6009(5)
H19_3 H 0.1699 0.9383 0.5682
C29_3 C 0.2538(5) 0.9986(5) 0.6287(5)
H20_3 H 0.0223 0.9811 0.5934
O1_3 O 0.8682(3) 0.6783(2) 0.3659(3)
O2_3 O 0.8678(3) 0.6049(2) 0.4700(3)
O3_2 O 0.8463(3) 0.9059(3) 0.7181(3)
O4_3 O 0.8970(3) 0.9672(2) 0.6223(3)
C35_3 C 0.8784(4) 0.7299(4) 0.4990(4)
C36_3 C 0.8644(5) 0.7228(5) 0.5811(5)
H23_3 H 0.8554 0.6787 0.6014
C37_3 C 0.8641(4) 0.7796(4) 0.6307(5)
H24_3 H 0.8546 0.7743 0.6845
C38_3 C 0.8786(4) 0.8482(4) 0.5998(4)
C39_3 C 0.8936(5) 0.8527(5) 0.5203(5)
H25_3 H 0.9047 0.8961 0.4994
C40_3 C 0.8926(5) 0.7939(4) 0.4710(5)
H26_3 H 0.9020 0.7988 0.4171
C41_3 C 0.8693(5) 0.6671(4) 0.4422(5)
C42_3 C 0.8743(4) 0.9119(4) 0.6523(4)
O7_2 O 0.9156(3) 0.4080(3) 0.2814(3)
O8_3 O 0.8628(3) 0.4682(3) 0.3758(3)
C43_3 C 0.8930(5) 0.2288(4) 0.4990(5)
C44_3 C 0.9163(4) 0.2250(4) 0.4220(5)
H27_3 H 0.9328 0.1828 0.4027
C45_3 C 0.9148(4) 0.2846(4) 0.3750(5)
H28_3 H 0.9329 0.2816 0.3249
C46_3 C 0.8888(4) 0.3466(4) 0.3966(4)
C47_3 C 0.8618(5) 0.3510(4) 0.4741(4)
H29_3 H 0.8423 0.3926 0.4916
C48_3 C 0.8657(6) 0.2895(5) 0.5232(5)
H30_3 H 0.8488 0.2914 0.5739
C49_3 C 0.8927(4) 0.1676(4) 0.5546(5)
C50_3 C 0.8888(4) 0.4122(4) 0.3468(5)
Co4_2 Co 0.86163(6) 0.93149(5) 0.83821(6)
Co7_2 Co 0.89957(6) 0.43159(5) 0.15994(6)
O9_2 O 0.8463(3) 0.5941(3) 0.2181(3)
N16_2 N 0.0254(4) 0.4350(4) 0.1682(4)
C2_4 C 0.3644(6) 0.9958(5) 0.8756(6)
H1_4 H 0.3582 0.9566 0.8416
N2_4 N 0.2131(4) 0.9373(3) 0.8311(4)
C6_4 C 0.2304(5) 0.9934(5) 0.8818(6)
C7_4 C 0.1389(4) 0.9305(4) 0.8321(4)
C8_4 C 0.1059(5) 0.9783(4) 0.8766(5)
C9_4 C 0.0304(4) 0.9775(4) 0.8845(4)
C10_4 C 0.0149(4) 0.8820(4) 0.7980(5)
C11_4 C 0.0899(5) 0.8779(5) 0.7895(5)
H7_4 H 0.1084 0.8431 0.7582
N6_4 N 0.5065(4) 0.9409(4) 0.8230(4)
H8_4 H 0.4678 0.9172 0.7995
N7_2 N 0.7394(4) 0.9341(3) 0.8283(4)
C12_4 C 0.5074(6) 0.9965(6) 0.8701(7)
C13_4 C 0.5798(5) 0.9305(5) 0.8207(6)
C14_4 C 0.6270(5) 0.9845(5) 0.8596(6)
C15_4 C 0.7047(5) 0.9840(4) 0.8613(5)
C16_4 C 0.6993(6) 0.8828(5) 0.7855(6)
H10_4 H 0.7248 0.8494 0.7589
C17_4 C 0.6181(5) 0.8786(6) 0.7801(6)
H11_4 H 0.5908 0.8426 0.7507
O5_2 O 0.8981(3) 0.3231(3) 0.1316(3)
O6_2 O 0.8907(3) 0.3944(3) 0.0276(3)
C48_4 C 0.8657(6) 0.2105(5) 0.0232(5)
H30_4 H 0.8488 0.2086 0.0739
C49_4 C 0.8927(4) 0.3324(4) 0.0546(5)
O8_4 O 0.8628(3) 0.0318(3) 0.8758(3)
C43_4 C 0.8930(5) 0.2712(4) 0.9990(5)
C44_4 C 0.9163(4) 0.2750(4) 0.9220(5)
H27_4 H 0.9328 0.3172 0.9027
C45_4 C 0.9148(4) 0.2154(4) 0.8750(5)
H28_4 H 0.9329 0.2184 0.8249
C46_4 C 0.8888(4) 0.1534(4) 0.8966(4)
C47_4 C 0.8618(5) 0.1490(4) 0.9741(4)
H29_4 H 0.8423 0.1074 0.9916
C50_4 C 0.8888(4) 0.0878(4) 0.8468(5)
C18_4 C 0.4581(5) 0.5324(6) 0.1006(6)
C19_4 C 0.3933(6) 0.4977(6) 0.1236(7)
H12_4 H 0.3973 0.4534 0.1476
C20_4 C 0.3237(5) 0.5330(5) 0.1085(7)
C21_4 C 0.3184(6) 0.5976(7) 0.0659(8)
H13_4 H 0.2711 0.6199 0.0561
N8_4 N 0.3778(6) 0.6288(6) 0.0389(8)
C22_4 C 0.4460(7) 0.5924(6) 0.0579(10)
H14_4 H 0.4882 0.6117 0.0389
N9_4 N 0.5459(5) 0.4371(4) 0.1636(5)
H15_4 H 0.5137 0.4112 0.1838
N10_4 N 0.5975(5) 0.5287(4) 0.0970(6)
N11_4 N 0.7737(3) 0.4304(3) 0.1564(3)
C23_4 C 0.5343(6) 0.5010(6) 0.1218(7)
C24_4 C 0.6202(4) 0.4275(4) 0.1638(5)
C25_4 C 0.6563(5) 0.4814(4) 0.1248(5)
C26_4 C 0.7321(5) 0.4814(5) 0.1209(5)
H16_4 H 0.7540 0.5170 0.0937
C27_4 C 0.7458(5) 0.3774(5) 0.1915(6)
H17_4 H 0.7776 0.3397 0.2090
C28_4 C 0.6699(6) 0.3755(6) 0.2037(7)
H18_4 H 0.6525 0.3415 0.2368
N12_4 N 0.2539(4) 0.4445(4) 0.1790(4)
N13_4 N 0.1811(4) 0.5268(4) 0.1009(5)
H19_4 H 0.1699 0.5617 0.0682
C29_4 C 0.2538(5) 0.5014(5) 0.1287(5)
C30_4 C 0.1832(5) 0.4381(4) 0.1791(5)
C31_4 C 0.1310(5) 0.4868(5) 0.1341(5)
C32_4 C 0.0532(4) 0.4866(4) 0.1255(4)
H20_4 H 0.0223 0.5189 0.0934
C33_4 C 0.0675(5) 0.3901(4) 0.2170(4)
H21_4 H 0.0431 0.3574 0.2458
C34_4 C 0.1459(5) 0.3896(4) 0.2268(5)
H22_4 H 0.1744 0.3587 0.2634
O4_4 O 0.8970(3) 0.5328(2) 0.1223(3)
C36_4 C 0.8644(5) 0.7772(5) 0.0811(5)
H23_4 H 0.8554 0.8213 0.1014
C37_4 C 0.8641(4) 0.7204(4) 0.1307(5)
H24_4 H 0.8546 0.7257 0.1845
C38_4 C 0.8786(4) 0.6518(4) 0.0998(4)
C39_4 C 0.8936(5) 0.6473(5) 0.0203(5)
C42_4 C 0.8743(4) 0.5881(4) 0.1523(4)
N4_4 N 0.9834(3) 0.9298(3) 0.8427(3)
H6_4 H 0.9823 0.8486 0.7702
O1_4 O 0.8682(3) 0.8217(2) 0.8659(3)
O2_4 O 0.8678(3) 0.8951(2) 0.9700(3)
C35_4 C 0.8784(4) 0.7701(4) 0.9990(4)
H25_4 H 0.9047 0.6039 0.9994
C40_4 C 0.8926(5) 0.7061(4) 0.9710(5)
H26_4 H 0.9020 0.7012 0.9171
C41_4 C 0.8693(5) 0.8329(4) 0.9422(5)
C1_4 C 0.3018(6) 0.0248(5) 0.9029(6)
C3_4 C 0.4389(6) 0.0253(5) 0.8990(6)
C4_4 C 0.4465(7) 0.0843(6) 0.9490(8)
H2_4 H 0.4948 0.1041 0.9634
N1_4 N 0.3851(5) 0.1150(4) 0.9784(6)
C5_4 C 0.3158(5) 0.0829(5) 0.9540(7)
H3_4 H 0.2739 0.1020 0.9738
N3_4 N 0.1633(4) 0.0188(4) 0.9075(4)
H4_4 H 0.1605 0.0548 0.9384
H5_4 H 0.0115 0.0097 0.9187
N5_4 N 0.5754(4) 0.0276(4) 0.8908(5)
H9_4 H 0.7336 0.0207 0.8871
loop_
_geom_bond_atom_site_label_1
_geom_bond_atom_site_label_2
_geom_bond_site_symmetry_1
_geom_bond_site_symmetry_2
Co1 N4 1_555 1_555
O1 Co1 1_555 1_555
O2 Co1 1_555 1_555
C40 C35 1_555 1_555
H26 C40 1_555 1_555
C41 O1 1_555 1_555
N15 Co1 1_555 1_555
O9 Co1 1_555 1_555
O2 C41 1_555 1_555
C35 C41 1_555 1_555
Co6 N11 1_555 1_555
C18 C19 1_555 1_555
C19 H12 1_555 1_555
C20 C19 1_555 1_555
C21 C20 1_555 1_555
H13 C21 1_555 1_555
N8 C21 1_555 1_555
C22 C18 1_555 1_555
H14 C22 1_555 1_555
N9 H15 1_555 1_555
N10 C23 1_555 1_555
N11 C26 1_555 1_555
C23 C18 1_555 1_555
C24 N9 1_555 1_555
C25 N10 1_555 1_555
C26 C25 1_555 1_555
H16 C26 1_555 1_555
C27 N11 1_555 1_555
H17 C27 1_555 1_555
C28 C24 1_555 1_555
H18 C28 1_555 1_555
N12 C29 1_555 1_555
N13 H19 1_555 1_555
N14 C32 1_555 1_555
C29 C20 1_555 1_555
C30 N12 1_555 1_555
C31 N13 1_555 1_555
C32 C31 1_555 1_555
H20 C32 1_555 1_555
C33 N14 1_555 1_555
H21 C33 1_555 1_555
C34 C30 1_555 1_555
H22 C34 1_555 1_555
O3 C42 1_555 1_555
O4 Co6 1_555 1_555
C36 H23 1_555 1_555
C37 C36 1_555 1_555
H24 C37 1_555 1_555
C38 C37 1_555 1_555
C39 C38 1_555 1_555
C42 O4 1_555 1_555
Co4 O3 1_555 1_555
O10 Co6 1_555 1_555
O11 Co6 1_555 1_555
O12 Co6 1_555 1_555
N8 C22 1_555 1_555
N9 C23 1_555 1_555
C24 C25 1_555 1_555
C27 C28 1_555 1_555
N13 C29 1_555 1_555
C30 C31 1_555 1_555
C33 C34 1_555 1_555
C38 C42 1_555 1_555
O7 C50 1_555 1_555
C43 C44 1_555 1_555
C44 H27 1_555 1_555
C45 C44 1_555 1_555
H28 C45 1_555 1_555
C46 C45 1_555 1_555
C47 C46 1_555 1_555
H29 C47 1_555 1_555
C50 O8 1_555 1_555
Co7 O7 1_555 1_555
C46 C50 1_555 1_555
O10 C49 1_555 1_555
O11 C49 1_555 1_555
H30 C48 1_555 1_555
C2 H1 1_555 1_555
N2 C6 1_555 1_555
C7 N2 1_555 1_555
C9 C8 1_555 1_555
C11 C7 1_555 1_555
H7 C11 1_555 1_555
N6 H8 1_555 1_555
N15 C15 1_555 1_555
C13 N6 1_555 1_555
C15 C14 1_555 1_555
C16 N15 1_555 1_555
H10 C16 1_555 1_555
C17 C13 1_555 1_555
H11 C17 1_555 1_555
C7 C8 1_555 1_555
C10 C11 1_555 1_555
N6 C12 1_555 1_555
C13 C14 1_555 1_555
C16 C17 1_555 1_555
Co4 N4_2 1_555 1_555
C21_2 C20_2 1_555 1_555
H13_2 C21_2 1_555 1_555
N8_2 C21_2 1_555 1_555
C22_2 C18_2 1_555 1_555
H14_2 C22_2 1_555 1_555
N10_2 C23_2 1_555 1_555
C23_2 C18_2 1_555 1_555
N13_2 H19_2 1_555 1_555
C29_2 C20_2 1_555 1_555
O1_2 Co4 1_555 1_555
O2_2 Co4 1_555 1_555
O9 C42_2 1_555 1_555
C35_2 C36_2 1_555 1_555
C36_2 H23_2 1_555 1_555
C37_2 C36_2 1_555 1_555
H24_2 C37_2 1_555 1_555
C38_2 C37_2 1_555 1_555
C39_2 C38_2 1_555 1_555
H25_2 C39_2 1_555 1_555
C40_2 C35_2 1_555 1_555
H26_2 C40_2 1_555 1_555
C41_2 O1_2 1_555 1_555
C42_2 O4_2 1_555 1_555
O5 C49_2 1_555 1_555
O6 C49_2 1_555 1_555
O12 C50_2 1_555 1_555
O8_2 Co4 1_555 1_555
C43_2 C44_2 1_555 1_555
C44_2 H27_2 1_555 1_555
C45_2 C44_2 1_555 1_555
H28_2 C45_2 1_555 1_555
C46_2 C45_2 1_555 1_555
C47_2 C46_2 1_555 1_555
H29_2 C47_2 1_555 1_555
C48_2 C43_2 1_555 1_555
H30_2 C48_2 1_555 1_555
C49_2 C43_2 1_555 1_555
C50_2 O8_2 1_555 1_555
Co7 O5 1_555 1_555
N15_2 Co4 1_555 1_555
N8_2 C22_2 1_555 1_555
N13_2 C29_2 1_555 1_555
O2_2 C41_2 1_555 1_555
C35_2 C41_2 1_555 1_555
C38_2 C42_2 1_555 1_555
C39_2 C40_2 1_555 1_555
O6 Co7 1_555 1_555
C46_2 C50_2 1_555 1_555
C47_2 C48_2 1_555 1_555
Co7 N11_2 1_555 1_555
C19_2 H12_2 1_555 1_555
N9_2 H15_2 1_555 1_555
N11_2 C26_2 1_555 1_555
C24_2 N9_2 1_555 1_555
C26_2 C25_2 1_555 1_555
C27_2 N11_2 1_555 1_555
H17_2 C27_2 1_555 1_555
C28_2 C24_2 1_555 1_555
H18_2 C28_2 1_555 1_555
N14_2 C32_2 1_555 1_555
C30_2 N12_2 1_555 1_555
C32_2 C31_2 1_555 1_555
C33_2 N14_2 1_555 1_555
H21_2 C33_2 1_555 1_555
C34_2 C30_2 1_555 1_555
H22_2 C34_2 1_555 1_555
C24_2 C25_2 1_555 1_555
C27_2 C28_2 1_555 1_555
C30_2 C31_2 1_555 1_555
C33_2 C34_2 1_555 1_555
C1 C2_2 1_555 1_555
C2_2 H1_2 1_555 1_555
C3 C2_2 1_555 1_555
C4 C3 1_555 1_555
H2 C4 1_555 1_555
N1 C4 1_555 1_555
C5 C1 1_555 1_555
H3 C5 1_555 1_555
N2_2 C6_2 1_555 1_555
N3 H4 1_555 1_555
C6_2 C1 1_555 1_555
C7_2 N2_2 1_555 1_555
C8_2 N3 1_555 1_555
C9_2 C8_2 1_555 1_555
H5 C9_2 1_555 1_555
C11_2 C7_2 1_555 1_555
H7_2 C11_2 1_555 1_555
N5 C12_2 1_555 1_555
N6_2 H8_2 1_555 1_555
N15_2 C15_2 1_555 1_555
C12_2 C3 1_555 1_555
C13_2 N6_2 1_555 1_555
C14_2 N5 1_555 1_555
C15_2 C14_2 1_555 1_555
H9 C15_2 1_555 1_555
C16_2 N15_2 1_555 1_555
H10_2 C16_2 1_555 1_555
C17_2 C13_2 1_555 1_555
H11_2 C17_2 1_555 1_555
N1 C5 1_555 1_555
N3 C6_2 1_555 1_555
C7_2 C8_2 1_555 1_555
C10_2 C11_2 1_555 1_555
N6_2 C12_2 1_555 1_555
C13_2 C14_2 1_555 1_555
C16_2 C17_2 1_555 1_555
C4_2 C3_2 1_555 1_555
H2_2 C4_2 1_555 1_555
N1_2 C4_2 1_555 1_555
C5_2 C1_2 1_555 1_555
H3_2 C5_2 1_555 1_555
N3_2 H4_2 1_555 1_555
N1_2 C5_2 1_555 1_555
C1_3 C2_3 1_555 1_555
C2_3 H1_3 1_555 1_555
C3_3 C2_3 1_555 1_555
C4_3 C3_3 1_555 1_555
H2_3 C4_3 1_555 1_555
N1_3 C4_3 1_555 1_555
C5_3 C1_3 1_555 1_555
H3_3 C5_3 1_555 1_555
N2_3 C6_3 1_555 1_555
N3_3 H4_3 1_555 1_555
C6_3 C1_3 1_555 1_555
C7_3 N2_3 1_555 1_555
C8_3 N3_3 1_555 1_555
C9_3 C8_3 1_555 1_555
H5_3 C9_3 1_555 1_555
C11_3 C7_3 1_555 1_555
H7_3 C11_3 1_555 1_555
N5_3 C12_3 1_555 1_555
N6_3 H8_3 1_555 1_555
N7 C15_3 1_555 1_555
C12_3 C3_3 1_555 1_555
C13_3 N6_3 1_555 1_555
C14_3 N5_3 1_555 1_555
C15_3 C14_3 1_555 1_555
H9_3 C15_3 1_555 1_555
C16_3 N7 1_555 1_555
H10_3 C16_3 1_555 1_555
C17_3 C13_3 1_555 1_555
H11_3 C17_3 1_555 1_555
Co3 N7 1_555 1_555
N1_3 C5_3 1_555 1_555
N3_3 C6_3 1_555 1_555
C7_3 C8_3 1_555 1_555
C10_3 C11_3 1_555 1_555
N6_3 C12_3 1_555 1_555
C13_3 C14_3 1_555 1_555
C16_3 C17_3 1_555 1_555
Co2 N11_3 1_555 1_555
C19_3 H12_3 1_555 1_555
N9_3 H15_3 1_555 1_555
N11_3 C26_3 1_555 1_555
C24_3 N9_3 1_555 1_555
C26_3 C25_3 1_555 1_555
C27_3 N11_3 1_555 1_555
H17_3 C27_3 1_555 1_555
C28_3 C24_3 1_555 1_555
H18_3 C28_3 1_555 1_555
N16 C32_3 1_555 1_555
C30_3 N12_3 1_555 1_555
C32_3 C31_3 1_555 1_555
C33_3 N16 1_555 1_555
H21_3 C33_3 1_555 1_555
C34_3 C30_3 1_555 1_555
H22_3 C34_3 1_555 1_555
O10_2 Co2 1_555 1_555
O11_2 Co2 1_555 1_555
O12_2 Co2 1_555 1_555
C24_3 C25_3 1_555 1_555
C27_3 C28_3 1_555 1_555
C30_3 C31_3 1_555 1_555
C33_3 C34_3 1_555 1_555
Co3 N4_3 1_555 1_555
C21_3 C20_3 1_555 1_555
H13_3 C21_3 1_555 1_555
N8_3 C21_3 1_555 1_555
C22_3 C18_3 1_555 1_555
H14_3 C22_3 1_555 1_555
N10_3 C23_3 1_555 1_555
C23_3 C18_3 1_555 1_555
N13_3 H19_3 1_555 1_555
C29_3 C20_3 1_555 1_555
O1_3 Co3 1_555 1_555
O2_3 Co3 1_555 1_555
O3_2 C42_3 1_555 1_555
C35_3 C36_3 1_555 1_555
C36_3 H23_3 1_555 1_555
C37_3 C36_3 1_555 1_555
H24_3 C37_3 1_555 1_555
C38_3 C37_3 1_555 1_555
C39_3 C38_3 1_555 1_555
H25_3 C39_3 1_555 1_555
C40_3 C35_3 1_555 1_555
H26_3 C40_3 1_555 1_555
C41_3 O1_3 1_555 1_555
C42_3 O4_3 1_555 1_555
O10_2 C49_3 1_555 1_555
O11_2 C49_3 1_555 1_555
O7_2 C50_3 1_555 1_555
O8_3 Co3 1_555 1_555
C43_3 C44_3 1_555 1_555
C44_3 H27_3 1_555 1_555
C45_3 C44_3 1_555 1_555
H28_3 C45_3 1_555 1_555
C46_3 C45_3 1_555 1_555
C47_3 C46_3 1_555 1_555
H29_3 C47_3 1_555 1_555
C48_3 C43_3 1_555 1_555
H30_3 C48_3 1_555 1_555
C49_3 C43_3 1_555 1_555
C50_3 O8_3 1_555 1_555
Co4_2 O3_2 1_555 1_555
Co7_2 O7_2 1_555 1_555
O9_2 Co3 1_555 1_555
N8_3 C22_3 1_555 1_555
N13_3 C29_3 1_555 1_555
O2_3 C41_3 1_555 1_555
C35_3 C41_3 1_555 1_555
C38_3 C42_3 1_555 1_555
C39_3 C40_3 1_555 1_555
C46_3 C50_3 1_555 1_555
C47_3 C48_3 1_555 1_555
C2_4 H1_4 1_555 1_555
N2_4 C6_4 1_555 1_555
C7_4 N2_4 1_555 1_555
C9_4 C8_4 1_555 1_555
C11_4 C7_4 1_555 1_555
H7_4 C11_4 1_555 1_555
N6_4 H8_4 1_555 1_555
N7_2 C15_4 1_555 1_555
C13_4 N6_4 1_555 1_555
C15_4 C14_4 1_555 1_555
C16_4 N7_2 1_555 1_555
H10_4 C16_4 1_555 1_555
C17_4 C13_4 1_555 1_555
H11_4 C17_4 1_555 1_555
Co4_2 N7_2 1_555 1_555
C7_4 C8_4 1_555 1_555
C10_4 C11_4 1_555 1_555
N6_4 C12_4 1_555 1_555
C13_4 C14_4 1_555 1_555
C16_4 C17_4 1_555 1_555
O5_2 C49_4 1_555 1_555
O6_2 C49_4 1_555 1_555
H30_4 C48_4 1_555 1_555
Co7_2 O5_2 1_555 1_555
O6_2 Co7_2 1_555 1_555
O12_2 C50_4 1_555 1_555
C43_4 C44_4 1_555 1_555
C44_4 H27_4 1_555 1_555
C45_4 C44_4 1_555 1_555
H28_4 C45_4 1_555 1_555
C46_4 C45_4 1_555 1_555
C47_4 C46_4 1_555 1_555
H29_4 C47_4 1_555 1_555
C50_4 O8_4 1_555 1_555
C46_4 C50_4 1_555 1_555
Co7_2 N11_4 1_555 1_555
C18_4 C19_4 1_555 1_555
C19_4 H12_4 1_555 1_555
C20_4 C19_4 1_555 1_555
C21_4 C20_4 1_555 1_555
H13_4 C21_4 1_555 1_555
N8_4 C21_4 1_555 1_555
C22_4 C18_4 1_555 1_555
H14_4 C22_4 1_555 1_555
N9_4 H15_4 1_555 1_555
N10_4 C23_4 1_555 1_555
N11_4 C26_4 1_555 1_555
C23_4 C18_4 1_555 1_555
C24_4 N9_4 1_555 1_555
C25_4 N10_4 1_555 1_555
C26_4 C25_4 1_555 1_555
H16_4 C26_4 1_555 1_555
C27_4 N11_4 1_555 1_555
H17_4 C27_4 1_555 1_555
C28_4 C24_4 1_555 1_555
H18_4 C28_4 1_555 1_555
N12_4 C29_4 1_555 1_555
N13_4 H19_4 1_555 1_555
N16_2 C32_4 1_555 1_555
C29_4 C20_4 1_555 1_555
C30_4 N12_4 1_555 1_555
C31_4 N13_4 1_555 1_555
C32_4 C31_4 1_555 1_555
H20_4 C32_4 1_555 1_555
C33_4 N16_2 1_555 1_555
H21_4 C33_4 1_555 1_555
C34_4 C30_4 1_555 1_555
H22_4 C34_4 1_555 1_555
O9_2 C42_4 1_555 1_555
O4_4 Co7_2 1_555 1_555
C36_4 H23_4 1_555 1_555
C37_4 C36_4 1_555 1_555
H24_4 C37_4 1_555 1_555
C38_4 C37_4 1_555 1_555
C39_4 C38_4 1_555 1_555
C42_4 O4_4 1_555 1_555
N8_4 C22_4 1_555 1_555
N9_4 C23_4 1_555 1_555
C24_4 C25_4 1_555 1_555
C27_4 C28_4 1_555 1_555
N13_4 C29_4 1_555 1_555
C30_4 C31_4 1_555 1_555
C33_4 C34_4 1_555 1_555
C38_4 C42_4 1_555 1_555
Co4_2 N4_4 1_555 1_555
O1_4 Co4_2 1_555 1_555
O2_4 Co4_2 1_555 1_555
C40_4 C35_4 1_555 1_555
H26_4 C40_4 1_555 1_555
C41_4 O1_4 1_555 1_555
O2_4 C41_4 1_555 1_555
C35_4 C41_4 1_555 1_555
C4_4 C3_4 1_555 1_555
H2_4 C4_4 1_555 1_555
N1_4 C4_4 1_555 1_555
C5_4 C1_4 1_555 1_555
H3_4 C5_4 1_555 1_555
N3_4 H4_4 1_555 1_555
N1_4 C5_4 1_555 1_555

#END
