
###############################################################################
#
# This file contains modified crystal structure data generated from the
# MOF subset of the Cambridge Structural Database (CSD) v543 
# hosted by the Cambridge Crystallographic Data Centre (CCDC).
#
# This work is licensed under the Creative Commons
# Attribution-NonCommercial-ShareAlike 4.0 International License.
# To view a copy of this license, visit
# http://creativecommons.org/licenses/by-nc-sa/4.0/
# or send a letter to
# Creative Commons, PO Box 1866, Mountain View, CA 94042, USA.
#
# CIF created using the CSD Python API on 29 September 2022
# The structure has been converted into the P1 space group
# The structure has a 3D framework
# The original CSD entry RAWZEX is in the monoclinic crystal system
# The framework has been calculated to contain at least 10.0% void space
# The void calculation uses a probe of radius 1.32A, grid spacing 0.4
#
###############################################################################

data_RAWZEX
_chemical_formula_moiety         '(C200 H120 Cd8 N56 O32)n'
_symmetry_cell_setting           triclinic
_symmetry_space_group_name_H-M   'P 1'
_symmetry_Int_Tables_number      1
_space_group_name_Hall           'P 1'
loop_
_symmetry_equiv_pos_site_id
_symmetry_equiv_pos_as_xyz
1 x,y,z
_cell_length_a                   18.013(3)
_cell_length_b                   20.631(4)
_cell_length_c                   15.390(3)
_cell_angle_alpha                90
_cell_angle_beta                 99.923(5)
_cell_angle_gamma                90
_cell_volume                     5633.77
loop_
_atom_site_label
_atom_site_type_symbol
_atom_site_fract_x
_atom_site_fract_y
_atom_site_fract_z
Cd6 Cd 0.10923(2) 0.56030(2) 0.85446(2)
Cd1 Cd 0.13270(2) 0.05962(2) 0.16013(2)
N4 N 0.0052(2) 0.06630(16) 0.1557(2)
H6 H 0.0081 0.1471 0.2254
O1 O 0.13350(16) 0.17091(14) 0.13760(19)
O2 O 0.13561(18) 0.11591(13) 0.0150(2)
C35 C 0.1265(2) 0.23151(19) 0.0063(3)
C39 C 0.0992(2) 0.34571(19) 0.0036(3)
H25 H 0.0822 0.3820 0.0302
C40 C 0.1009(2) 0.28648(19) 0.0447(3)
H26 H 0.0847 0.2830 0.0987
C41 C 0.1322(2) 0.16885(19) 0.0551(3)
N15 N 0.2618(2) 0.05310(17) 0.1788(2)
O9 O 0.14458(18) 0.07904(15) 0.30666(19)
C18 C 0.5498(2) 0.4607(2) 0.8975(3)
C19 C 0.6125(2) 0.4897(2) 0.8719(3)
H12 H 0.6084 0.5302 0.8451
C20 C 0.6813(2) 0.4571(2) 0.8871(3)
C21 C 0.6838(2) 0.3958(2) 0.9270(3)
H13 H 0.7294 0.3735 0.9363
N8 N 0.6239(2) 0.36767(19) 0.9522(3)
C22 C 0.5589(2) 0.3997(2) 0.9374(3)
H14 H 0.5171 0.3804 0.9547
N9 N 0.4636(2) 0.55288(18) 0.8462(3)
H15 H 0.4962 0.5773 0.8273
N10 N 0.41493(19) 0.46762(18) 0.9073(2)
N11 N 0.23833(19) 0.56212(16) 0.8577(2)
C23 C 0.4760(2) 0.4931(2) 0.8844(3)
C24 C 0.3891(2) 0.5659(2) 0.8443(3)
C25 C 0.3583(2) 0.5131(2) 0.8822(3)
C26 C 0.2825(2) 0.5125(2) 0.8886(3)
H16 H 0.2624 0.4773 0.9145
C27 C 0.2685(2) 0.6137(2) 0.8215(3)
H17 H 0.2369 0.6480 0.8011
C28 C 0.3435(2) 0.6182(2) 0.8132(3)
H18 H 0.3625 0.6543 0.7881
N12 N 0.74889(19) 0.54222(17) 0.8204(2)
N13 N 0.81918(18) 0.46106(17) 0.8871(2)
H19 H 0.8304 0.4252 0.9148
N14 N 0.97904(19) 0.55208(16) 0.8301(2)
C29 C 0.7499(2) 0.48669(19) 0.8642(3)
C30 C 0.8235(2) 0.55296(19) 0.8150(3)
C31 C 0.8683(2) 0.50292(19) 0.8580(2)
C32 C 0.9458(2) 0.50376(19) 0.8663(2)
H20 H 0.9746 0.4709 0.8969
C33 C 0.9364(2) 0.59979(19) 0.7855(3)
H21 H 0.9610 0.6322 0.7595
C34 C 0.8593(2) 0.6031(2) 0.7766(3)
H22 H 0.8321 0.6370 0.7465
O3 O 0.14458(18) 0.42096(15) 0.80666(19)
O4 O 0.11315(16) 0.46561(13) 0.92683(19)
C36 C 0.1472(3) 0.2369(2) 0.9237(3)
H23 H 0.1619 0.2002 0.8959
C37 C 0.1459(3) 0.2968(2) 0.8822(3)
H24 H 0.1606 0.3001 0.8273
C38 C 0.1229(2) 0.35185(19) 0.9224(2)
C42 C 0.1267(2) 0.4172(2) 0.8814(3)
Cd4 Cd 0.13270(2) 0.44038(2) 0.66013(2)
O10 O 0.11092(17) 0.67425(14) 0.87062(18)
O11 O 0.10803(16) 0.61814(13) 0.99169(18)
O12 O 0.09183(17) 0.58000(14) 0.70726(18)
O7 O 0.09183(17) 0.92000(14) 0.20726(18)
O8 O 0.13062(16) 0.96457(13) 0.09134(19)
C43 C 0.1136(2) 0.73351(19) 0.0025(3)
C44 C 0.0823(2) 0.7382(2) 0.0796(3)
H27 H 0.0609 0.7019 0.1013
C45 C 0.0831(2) 0.7965(2) 0.1234(3)
H28 H 0.0618 0.7997 0.1741
C46 C 0.1160(2) 0.85069(18) 0.0917(3)
C47 C 0.1498(3) 0.8453(2) 0.0174(3)
C50 C 0.1130(2) 0.91623(19) 0.1344(2)
Cd7 Cd 0.10923(2) 0.93970(2) 0.35446(2)
H29 H 0.1732 0.8812 0.9975
C48 C 0.1489(2) 0.7874(2) 0.9730(3)
H30 H 0.1718 0.7841 0.9234
C49 C 0.1106(2) 0.67190(19) 0.9514(3)
C2 C 0.6271(2) 0.0014(2) 0.1229(3)
H1 H 0.6309 0.0413 0.1513
N2 N 0.77720(19) 0.06014(16) 0.1618(2)
C6 C 0.7638(2) 0.0057(2) 0.1159(2)
C7 C 0.8533(2) 0.0700(2) 0.1674(3)
C8 C 0.8845(2) 0.0205(2) 0.1227(3)
C9 C 0.9606(2) 0.01902(19) 0.1176(3)
C10 C 0.9757(2) 0.1149(2) 0.1992(3)
C11 C 0.9008(2) 0.1192(2) 0.2068(3)
H7 H 0.8827 0.1533 0.2367
N6 N 0.4870(2) 0.05471(18) 0.1699(3)
H8 H 0.5242 0.0808 0.1857
C13 C 0.4146(3) 0.0638(2) 0.1799(3)
C14 C 0.3734(2) 0.0088(2) 0.1451(3)
C15 C 0.2973(2) 0.0052(2) 0.1450(3)
C16 C 0.3015(3) 0.1047(2) 0.2150(3)
H10 H 0.2755 0.1366 0.2401
C17 C 0.3777(3) 0.1137(2) 0.2174(3)
H11 H 0.4029 0.1503 0.2422
N4_2 N 0.0052(2) 0.43370(16) 0.6557(2)
H6_2 H 0.0081 0.3529 0.7254
C18_2 C 0.5498(2) 0.0393(2) 0.3975(3)
C19_2 C 0.6125(2) 0.0103(2) 0.3719(3)
C20_2 C 0.6813(2) 0.0429(2) 0.3871(3)
C21_2 C 0.6838(2) 0.1042(2) 0.4270(3)
H13_2 H 0.7294 0.1265 0.4363
N8_2 N 0.6239(2) 0.13233(19) 0.4522(3)
C22_2 C 0.5589(2) 0.1003(2) 0.4374(3)
H14_2 H 0.5171 0.1196 0.4547
N10_2 N 0.41493(19) 0.03238(18) 0.4073(2)
C23_2 C 0.4760(2) 0.0069(2) 0.3844(3)
H16_2 H 0.2624 0.0227 0.4145
N13_2 N 0.81918(18) 0.03894(17) 0.3871(2)
H19_2 H 0.8304 0.0748 0.4148
C29_2 C 0.7499(2) 0.01331(19) 0.3642(3)
H20_2 H 0.9746 0.0291 0.3969
O1_2 O 0.13350(16) 0.32909(14) 0.63760(19)
O2_2 O 0.13561(18) 0.38409(13) 0.5150(2)
O4_2 O 0.11315(16) 0.03439(13) 0.42683(19)
C35_2 C 0.1265(2) 0.26849(19) 0.5063(3)
C36_2 C 0.1472(3) 0.2631(2) 0.4237(3)
H23_2 H 0.1619 0.2998 0.3959
C37_2 C 0.1459(3) 0.2032(2) 0.3822(3)
H24_2 H 0.1606 0.1999 0.3273
C38_2 C 0.1229(2) 0.14815(19) 0.4224(2)
C39_2 C 0.0992(2) 0.15429(19) 0.5036(3)
H25_2 H 0.0822 0.1180 0.5302
C40_2 C 0.1009(2) 0.21352(19) 0.5447(3)
H26_2 H 0.0847 0.2170 0.5987
C41_2 C 0.1322(2) 0.33115(19) 0.5551(3)
C42_2 C 0.1267(2) 0.0828(2) 0.3814(3)
O5 O 0.11092(17) 0.82575(14) 0.37062(18)
O6 O 0.10803(16) 0.88186(13) 0.49169(18)
O8_2 O 0.13062(16) 0.53543(13) 0.59134(19)
C43_2 C 0.1136(2) 0.76649(19) 0.5025(3)
C44_2 C 0.0823(2) 0.7618(2) 0.5796(3)
H27_2 H 0.0609 0.7981 0.6013
C45_2 C 0.0831(2) 0.7035(2) 0.6234(3)
H28_2 H 0.0618 0.7003 0.6741
C46_2 C 0.1160(2) 0.64931(18) 0.5917(3)
C47_2 C 0.1498(3) 0.6547(2) 0.5174(3)
H29_2 H 0.1732 0.6188 0.4975
C48_2 C 0.1489(2) 0.7126(2) 0.4730(3)
H30_2 H 0.1718 0.7159 0.4234
C49_2 C 0.1106(2) 0.82810(19) 0.4514(3)
C50_2 C 0.1130(2) 0.58377(19) 0.6344(2)
N15_2 N 0.2618(2) 0.44690(17) 0.6788(2)
H12_2 H 0.6084 0.9698 0.3451
N9_2 N 0.4636(2) 0.94712(18) 0.3462(3)
H15_2 H 0.4962 0.9227 0.3273
N11_2 N 0.23833(19) 0.93788(16) 0.3577(2)
C24_2 C 0.3891(2) 0.9341(2) 0.3443(3)
C25_2 C 0.3583(2) 0.9869(2) 0.3822(3)
C26_2 C 0.2825(2) 0.9875(2) 0.3886(3)
C27_2 C 0.2685(2) 0.8863(2) 0.3215(3)
H17_2 H 0.2369 0.8520 0.3011
C28_2 C 0.3435(2) 0.8818(2) 0.3132(3)
H18_2 H 0.3625 0.8457 0.2881
N12_2 N 0.74889(19) 0.95778(17) 0.3204(2)
N14_2 N 0.97904(19) 0.94792(16) 0.3301(2)
C30_2 C 0.8235(2) 0.94704(19) 0.3150(3)
C31_2 C 0.8683(2) 0.99708(19) 0.3580(2)
C32_2 C 0.9458(2) 0.99624(19) 0.3663(2)
C33_2 C 0.9364(2) 0.90021(19) 0.2855(3)
H21_2 H 0.9610 0.8678 0.2595
C34_2 C 0.8593(2) 0.8969(2) 0.2766(3)
H22_2 H 0.8321 0.8630 0.2465
C1 C 0.6901(2) 0.5267(2) 0.5971(3)
C2_2 C 0.6271(2) 0.4986(2) 0.6229(3)
H1_2 H 0.6309 0.4587 0.6513
C3 C 0.5587(2) 0.5309(2) 0.6057(3)
C4 C 0.5563(3) 0.5905(3) 0.5644(4)
H2 H 0.5106 0.6124 0.5535
N1 N 0.6159(3) 0.6182(2) 0.5393(4)
C5 C 0.6817(3) 0.5867(3) 0.5560(4)
H3 H 0.7237 0.6059 0.5393
N2_2 N 0.77720(19) 0.43986(16) 0.6618(2)
N3 N 0.82598(19) 0.51992(17) 0.5911(2)
H4 H 0.8283 0.5549 0.5613
C6_2 C 0.7638(2) 0.4943(2) 0.6159(2)
C7_2 C 0.8533(2) 0.4300(2) 0.6674(3)
C8_2 C 0.8845(2) 0.4795(2) 0.6227(3)
C9_2 C 0.9606(2) 0.48098(19) 0.6176(3)
H5 H 0.9803 0.5144 0.5880
C10_2 C 0.9757(2) 0.3851(2) 0.6992(3)
C11_2 C 0.9008(2) 0.3808(2) 0.7068(3)
H7_2 H 0.8827 0.3467 0.7367
N5 N 0.4233(2) 0.53377(18) 0.6144(2)
N6_2 N 0.4870(2) 0.44529(18) 0.6699(3)
H8_2 H 0.5242 0.4192 0.6857
C12 C 0.4894(2) 0.5040(2) 0.6298(3)
C13_2 C 0.4146(3) 0.4362(2) 0.6799(3)
C14_2 C 0.3734(2) 0.4912(2) 0.6451(3)
C15_2 C 0.2973(2) 0.4948(2) 0.6450(3)
H9 H 0.2704 0.5309 0.6211
C16_2 C 0.3015(3) 0.3953(2) 0.7150(3)
H10_2 H 0.2755 0.3634 0.7401
C17_2 C 0.3777(3) 0.3863(2) 0.7174(3)
H11_2 H 0.4029 0.3497 0.7422
C1_2 C 0.6901(2) 0.9733(2) 0.0971(3)
C3_2 C 0.5587(2) 0.9691(2) 0.1057(3)
C4_2 C 0.5563(3) 0.9095(3) 0.0644(4)
H2_2 H 0.5106 0.8876 0.0535
N1_2 N 0.6159(3) 0.8818(2) 0.0393(4)
C5_2 C 0.6817(3) 0.9133(3) 0.0560(4)
H3_2 H 0.7237 0.8941 0.0393
N3_2 N 0.82598(19) 0.98008(17) 0.0911(2)
H4_2 H 0.8283 0.9451 0.0613
H5_2 H 0.9803 0.9856 0.0880
N5_2 N 0.4233(2) 0.96623(18) 0.1144(2)
C12_2 C 0.4894(2) 0.9960(2) 0.1298(3)
H9_2 H 0.2704 0.9691 0.1211
N16 N 0.02096(19) 0.05208(16) 0.6699(2)
C1_3 C 0.3099(2) 0.4733(2) 0.4029(3)
C2_3 C 0.3729(2) 0.5014(2) 0.3771(3)
H1_3 H 0.3691 0.5413 0.3487
C3_3 C 0.4413(2) 0.4691(2) 0.3943(3)
C4_3 C 0.4437(3) 0.4095(3) 0.4356(4)
H2_3 H 0.4894 0.3876 0.4465
N1_3 N 0.3841(3) 0.3818(2) 0.4607(4)
C5_3 C 0.3183(3) 0.4133(3) 0.4440(4)
H3_3 H 0.2763 0.3941 0.4607
N2_3 N 0.22280(19) 0.56014(16) 0.3382(2)
N3_3 N 0.17402(19) 0.48008(17) 0.4089(2)
H4_3 H 0.1717 0.4451 0.4387
C6_3 C 0.2362(2) 0.5057(2) 0.3841(2)
C7_3 C 0.1467(2) 0.5700(2) 0.3326(3)
C8_3 C 0.1155(2) 0.5205(2) 0.3773(3)
C9_3 C 0.0394(2) 0.51902(19) 0.3824(3)
H5_3 H 0.0197 0.4856 0.4120
C10_3 C 0.0243(2) 0.6149(2) 0.3008(3)
C11_3 C 0.0992(2) 0.6192(2) 0.2932(3)
H7_3 H 0.1173 0.6533 0.2633
N5_3 N 0.5767(2) 0.46623(18) 0.3856(2)
N6_3 N 0.5130(2) 0.55471(18) 0.3301(3)
H8_3 H 0.4758 0.5808 0.3143
N7 N 0.7382(2) 0.55310(17) 0.3212(2)
C12_3 C 0.5106(2) 0.4960(2) 0.3702(3)
C13_3 C 0.5854(3) 0.5638(2) 0.3201(3)
C14_3 C 0.6266(2) 0.5088(2) 0.3549(3)
C15_3 C 0.7027(2) 0.5052(2) 0.3550(3)
H9_3 H 0.7296 0.4691 0.3789
C16_3 C 0.6985(3) 0.6047(2) 0.2850(3)
H10_3 H 0.7245 0.6366 0.2599
C17_3 C 0.6223(3) 0.6137(2) 0.2826(3)
H11_3 H 0.5971 0.6503 0.2578
Cd3 Cd 0.86730(2) 0.55962(2) 0.33987(2)
Cd2 Cd 0.89077(2) 0.06030(2) 0.64554(2)
H12_3 H 0.3916 0.0302 0.6549
N9_3 N 0.5364(2) 0.05288(18) 0.6538(3)
H15_3 H 0.5038 0.0773 0.6727
N11_3 N 0.76167(19) 0.06212(16) 0.6423(2)
C24_3 C 0.6109(2) 0.0659(2) 0.6557(3)
C25_3 C 0.6417(2) 0.0131(2) 0.6178(3)
C26_3 C 0.7175(2) 0.0125(2) 0.6114(3)
C27_3 C 0.7315(2) 0.1137(2) 0.6785(3)
H17_3 H 0.7631 0.1480 0.6989
C28_3 C 0.6565(2) 0.1182(2) 0.6868(3)
H18_3 H 0.6375 0.1543 0.7119
N12_3 N 0.25111(19) 0.04222(17) 0.6796(2)
C30_3 C 0.1765(2) 0.05296(19) 0.6850(3)
C31_3 C 0.1317(2) 0.00292(19) 0.6420(2)
C32_3 C 0.0542(2) 0.00376(19) 0.6337(2)
C33_3 C 0.0636(2) 0.09979(19) 0.7145(3)
H21_3 H 0.0390 0.1322 0.7405
C34_3 C 0.1407(2) 0.1031(2) 0.7234(3)
H22_3 H 0.1679 0.1370 0.7535
O10_2 O 0.88908(17) 0.17425(14) 0.62938(18)
O11_2 O 0.89197(16) 0.11814(13) 0.50831(18)
O12_2 O 0.90817(17) 0.08000(14) 0.79274(18)
N4_3 N 0.9948(2) 0.56630(16) 0.3443(2)
H6_3 H 0.9919 0.6471 0.2746
C18_3 C 0.4502(2) 0.9607(2) 0.6025(3)
C19_3 C 0.3875(2) 0.9897(2) 0.6281(3)
C20_3 C 0.3187(2) 0.9571(2) 0.6129(3)
C21_3 C 0.3162(2) 0.8958(2) 0.5730(3)
H13_3 H 0.2706 0.8735 0.5637
N8_3 N 0.3761(2) 0.86767(19) 0.5478(3)
C22_3 C 0.4411(2) 0.8997(2) 0.5626(3)
H14_3 H 0.4829 0.8804 0.5453
N10_3 N 0.58507(19) 0.96762(18) 0.5927(2)
C23_3 C 0.5240(2) 0.9931(2) 0.6156(3)
H16_3 H 0.7376 0.9773 0.5855
N13_3 N 0.18082(18) 0.96106(17) 0.6129(2)
H19_3 H 0.1696 0.9252 0.5852
C29_3 C 0.2501(2) 0.98669(19) 0.6358(3)
H20_3 H 0.0254 0.9709 0.6031
O1_3 O 0.86650(16) 0.67091(14) 0.36240(19)
O2_3 O 0.86439(18) 0.61591(13) 0.4850(2)
O3_2 O 0.85542(18) 0.92096(15) 0.69334(19)
O4_3 O 0.88685(16) 0.96561(13) 0.57317(19)
C35_3 C 0.8735(2) 0.73151(19) 0.4937(3)
C36_3 C 0.8528(3) 0.7369(2) 0.5763(3)
H23_3 H 0.8381 0.7002 0.6041
C37_3 C 0.8541(3) 0.7968(2) 0.6178(3)
H24_3 H 0.8394 0.8001 0.6727
C38_3 C 0.8771(2) 0.85185(19) 0.5776(2)
C39_3 C 0.9008(2) 0.84571(19) 0.4964(3)
H25_3 H 0.9178 0.8820 0.4698
C40_3 C 0.8991(2) 0.78648(19) 0.4553(3)
H26_3 H 0.9153 0.7830 0.4013
C41_3 C 0.8678(2) 0.66885(19) 0.4449(3)
C42_3 C 0.8733(2) 0.9172(2) 0.6186(3)
O7_2 O 0.90817(17) 0.42000(14) 0.29274(18)
O8_3 O 0.86938(16) 0.46457(13) 0.40866(19)
C43_3 C 0.8864(2) 0.23351(19) 0.4975(3)
C44_3 C 0.9177(2) 0.2382(2) 0.4204(3)
H27_3 H 0.9391 0.2019 0.3987
C45_3 C 0.9169(2) 0.2965(2) 0.3766(3)
H28_3 H 0.9382 0.2997 0.3259
C46_3 C 0.8840(2) 0.35069(18) 0.4083(3)
C47_3 C 0.8502(3) 0.3453(2) 0.4826(3)
H29_3 H 0.8268 0.3812 0.5025
C48_3 C 0.8511(2) 0.2874(2) 0.5270(3)
H30_3 H 0.8282 0.2841 0.5766
C49_3 C 0.8894(2) 0.17190(19) 0.5486(3)
C50_3 C 0.8870(2) 0.41623(19) 0.3656(2)
Cd4_2 Cd 0.86730(2) 0.94038(2) 0.83987(2)
Cd7_2 Cd 0.89077(2) 0.43970(2) 0.14554(2)
O9_2 O 0.85542(18) 0.57904(15) 0.19334(19)
N16_2 N 0.02096(19) 0.44792(16) 0.1699(2)
C2_4 C 0.3729(2) 0.9986(2) 0.8771(3)
H1_4 H 0.3691 0.9587 0.8487
N2_4 N 0.22280(19) 0.93986(16) 0.8382(2)
C6_4 C 0.2362(2) 0.9943(2) 0.8841(2)
C7_4 C 0.1467(2) 0.9300(2) 0.8326(3)
C8_4 C 0.1155(2) 0.9795(2) 0.8773(3)
C9_4 C 0.0394(2) 0.98098(19) 0.8824(3)
C10_4 C 0.0243(2) 0.8851(2) 0.8008(3)
C11_4 C 0.0992(2) 0.8808(2) 0.7932(3)
H7_4 H 0.1173 0.8467 0.7633
N6_4 N 0.5130(2) 0.94529(18) 0.8301(3)
H8_4 H 0.4758 0.9192 0.8143
N7_2 N 0.7382(2) 0.94690(17) 0.8212(2)
C13_4 C 0.5854(3) 0.9362(2) 0.8201(3)
C14_4 C 0.6266(2) 0.9912(2) 0.8549(3)
C15_4 C 0.7027(2) 0.9948(2) 0.8550(3)
C16_4 C 0.6985(3) 0.8953(2) 0.7850(3)
H10_4 H 0.7245 0.8634 0.7599
C17_4 C 0.6223(3) 0.8863(2) 0.7826(3)
H11_4 H 0.5971 0.8497 0.7578
O5_2 O 0.88908(17) 0.32575(14) 0.12938(18)
O6_2 O 0.89197(16) 0.38186(13) 0.00831(18)
H29_4 H 0.8268 0.1188 0.0025
C48_4 C 0.8511(2) 0.2126(2) 0.0270(3)
H30_4 H 0.8282 0.2159 0.0766
C49_4 C 0.8894(2) 0.32810(19) 0.0486(3)
O8_4 O 0.86938(16) 0.03543(13) 0.90866(19)
C43_4 C 0.8864(2) 0.26649(19) 0.9975(3)
C44_4 C 0.9177(2) 0.2618(2) 0.9204(3)
H27_4 H 0.9391 0.2981 0.8987
C45_4 C 0.9169(2) 0.2035(2) 0.8766(3)
H28_4 H 0.9382 0.2003 0.8259
C46_4 C 0.8840(2) 0.14931(18) 0.9083(3)
C47_4 C 0.8502(3) 0.1547(2) 0.9826(3)
C50_4 C 0.8870(2) 0.08377(19) 0.8656(2)
C18_4 C 0.4502(2) 0.5393(2) 0.1025(3)
C19_4 C 0.3875(2) 0.5103(2) 0.1281(3)
H12_4 H 0.3916 0.4698 0.1549
C20_4 C 0.3187(2) 0.5429(2) 0.1129(3)
C21_4 C 0.3162(2) 0.6042(2) 0.0730(3)
H13_4 H 0.2706 0.6265 0.0637
N8_4 N 0.3761(2) 0.63233(19) 0.0478(3)
C22_4 C 0.4411(2) 0.6003(2) 0.0626(3)
H14_4 H 0.4829 0.6196 0.0453
N9_4 N 0.5364(2) 0.44712(18) 0.1538(3)
H15_4 H 0.5038 0.4227 0.1727
N10_4 N 0.58507(19) 0.53238(18) 0.0927(2)
N11_4 N 0.76167(19) 0.43788(16) 0.1423(2)
C23_4 C 0.5240(2) 0.5069(2) 0.1156(3)
C24_4 C 0.6109(2) 0.4341(2) 0.1557(3)
C25_4 C 0.6417(2) 0.4869(2) 0.1178(3)
C26_4 C 0.7175(2) 0.4875(2) 0.1114(3)
H16_4 H 0.7376 0.5227 0.0855
C27_4 C 0.7315(2) 0.3863(2) 0.1785(3)
H17_4 H 0.7631 0.3520 0.1989
C28_4 C 0.6565(2) 0.3818(2) 0.1868(3)
H18_4 H 0.6375 0.3457 0.2119
N12_4 N 0.25111(19) 0.45778(17) 0.1796(2)
N13_4 N 0.18082(18) 0.53894(17) 0.1129(2)
H19_4 H 0.1696 0.5748 0.0852
C29_4 C 0.2501(2) 0.51331(19) 0.1358(3)
C30_4 C 0.1765(2) 0.44704(19) 0.1850(3)
C31_4 C 0.1317(2) 0.49708(19) 0.1420(2)
C32_4 C 0.0542(2) 0.49624(19) 0.1337(2)
H20_4 H 0.0254 0.5291 0.1031
C33_4 C 0.0636(2) 0.40021(19) 0.2145(3)
H21_4 H 0.0390 0.3678 0.2405
C34_4 C 0.1407(2) 0.3969(2) 0.2234(3)
H22_4 H 0.1679 0.3630 0.2535
O4_4 O 0.88685(16) 0.53439(13) 0.07317(19)
C36_4 C 0.8528(3) 0.7631(2) 0.0763(3)
H23_4 H 0.8381 0.7998 0.1041
C37_4 C 0.8541(3) 0.7032(2) 0.1178(3)
H24_4 H 0.8394 0.6999 0.1727
C38_4 C 0.8771(2) 0.64815(19) 0.0776(2)
C42_4 C 0.8733(2) 0.5828(2) 0.1186(3)
N4_4 N 0.9948(2) 0.93370(16) 0.8443(2)
H6_4 H 0.9919 0.8529 0.7746
O1_4 O 0.86650(16) 0.82909(14) 0.86240(19)
O2_4 O 0.86439(18) 0.88409(13) 0.9850(2)
C35_4 C 0.8735(2) 0.76849(19) 0.9937(3)
C39_4 C 0.9008(2) 0.65429(19) 0.9964(3)
H25_4 H 0.9178 0.6180 0.9698
C40_4 C 0.8991(2) 0.71352(19) 0.9553(3)
H26_4 H 0.9153 0.7170 0.9013
C41_4 C 0.8678(2) 0.83115(19) 0.9449(3)
C1_4 C 0.3099(2) 0.0267(2) 0.9029(3)
C3_4 C 0.4413(2) 0.0309(2) 0.8943(3)
C4_4 C 0.4437(3) 0.0905(3) 0.9356(4)
H2_4 H 0.4894 0.1124 0.9465
N1_4 N 0.3841(3) 0.1182(2) 0.9607(4)
C5_4 C 0.3183(3) 0.0867(3) 0.9440(4)
H3_4 H 0.2763 0.1059 0.9607
N3_4 N 0.17402(19) 0.01992(17) 0.9089(2)
H4_4 H 0.1717 0.0549 0.9387
H5_4 H 0.0197 0.0144 0.9120
N5_4 N 0.5767(2) 0.03377(18) 0.8856(2)
C12_4 C 0.5106(2) 0.0040(2) 0.8702(3)
H9_4 H 0.7296 0.0309 0.8789
loop_
_geom_bond_atom_site_label_1
_geom_bond_atom_site_label_2
_geom_bond_site_symmetry_1
_geom_bond_site_symmetry_2
Cd1 N4 1_555 1_555
O1 Cd1 1_555 1_555
O2 Cd1 1_555 1_555
H25 C39 1_555 1_555
C40 C35 1_555 1_555
H26 C40 1_555 1_555
C41 O1 1_555 1_555
N15 Cd1 1_555 1_555
O9 Cd1 1_555 1_555
O2 C41 1_555 1_555
C35 C41 1_555 1_555
C39 C40 1_555 1_555
Cd6 N11 1_555 1_555
C18 C19 1_555 1_555
C19 H12 1_555 1_555
C20 C19 1_555 1_555
C21 C20 1_555 1_555
H13 C21 1_555 1_555
N8 C21 1_555 1_555
C22 C18 1_555 1_555
H14 C22 1_555 1_555
N9 H15 1_555 1_555
N10 C23 1_555 1_555
N11 C26 1_555 1_555
C23 C18 1_555 1_555
C24 N9 1_555 1_555
C25 N10 1_555 1_555
C26 C25 1_555 1_555
H16 C26 1_555 1_555
C27 N11 1_555 1_555
H17 C27 1_555 1_555
C28 C24 1_555 1_555
H18 C28 1_555 1_555
N12 C29 1_555 1_555
N13 H19 1_555 1_555
N14 C32 1_555 1_555
C29 C20 1_555 1_555
C30 N12 1_555 1_555
C31 N13 1_555 1_555
C32 C31 1_555 1_555
H20 C32 1_555 1_555
C33 N14 1_555 1_555
H21 C33 1_555 1_555
C34 C30 1_555 1_555
H22 C34 1_555 1_555
O3 C42 1_555 1_555
O4 Cd6 1_555 1_555
C36 H23 1_555 1_555
C37 C36 1_555 1_555
H24 C37 1_555 1_555
C38 C37 1_555 1_555
C42 O4 1_555 1_555
Cd4 O3 1_555 1_555
O10 Cd6 1_555 1_555
O11 Cd6 1_555 1_555
O12 Cd6 1_555 1_555
N8 C22 1_555 1_555
N9 C23 1_555 1_555
C24 C25 1_555 1_555
C27 C28 1_555 1_555
N13 C29 1_555 1_555
C30 C31 1_555 1_555
C33 C34 1_555 1_555
C38 C42 1_555 1_555
O7 C50 1_555 1_555
C43 C44 1_555 1_555
C44 H27 1_555 1_555
C45 C44 1_555 1_555
H28 C45 1_555 1_555
C46 C45 1_555 1_555
C47 C46 1_555 1_555
C50 O8 1_555 1_555
Cd7 O7 1_555 1_555
C46 C50 1_555 1_555
O10 C49 1_555 1_555
O11 C49 1_555 1_555
H30 C48 1_555 1_555
C2 H1 1_555 1_555
N2 C6 1_555 1_555
C7 N2 1_555 1_555
C9 C8 1_555 1_555
C11 C7 1_555 1_555
H7 C11 1_555 1_555
N6 H8 1_555 1_555
N15 C15 1_555 1_555
C13 N6 1_555 1_555
C15 C14 1_555 1_555
C16 N15 1_555 1_555
H10 C16 1_555 1_555
C17 C13 1_555 1_555
H11 C17 1_555 1_555
C7 C8 1_555 1_555
C10 C11 1_555 1_555
C13 C14 1_555 1_555
C16 C17 1_555 1_555
Cd4 N4_2 1_555 1_555
C18_2 C19_2 1_555 1_555
C20_2 C19_2 1_555 1_555
C21_2 C20_2 1_555 1_555
H13_2 C21_2 1_555 1_555
N8_2 C21_2 1_555 1_555
C22_2 C18_2 1_555 1_555
H14_2 C22_2 1_555 1_555
N10_2 C23_2 1_555 1_555
C23_2 C18_2 1_555 1_555
N13_2 H19_2 1_555 1_555
C29_2 C20_2 1_555 1_555
O1_2 Cd4 1_555 1_555
O2_2 Cd4 1_555 1_555
O9 C42_2 1_555 1_555
C35_2 C36_2 1_555 1_555
C36_2 H23_2 1_555 1_555
C37_2 C36_2 1_555 1_555
H24_2 C37_2 1_555 1_555
C38_2 C37_2 1_555 1_555
C39_2 C38_2 1_555 1_555
H25_2 C39_2 1_555 1_555
C40_2 C35_2 1_555 1_555
H26_2 C40_2 1_555 1_555
C41_2 O1_2 1_555 1_555
C42_2 O4_2 1_555 1_555
O5 C49_2 1_555 1_555
O6 C49_2 1_555 1_555
O12 C50_2 1_555 1_555
O8_2 Cd4 1_555 1_555
C43_2 C44_2 1_555 1_555
C44_2 H27_2 1_555 1_555
C45_2 C44_2 1_555 1_555
H28_2 C45_2 1_555 1_555
C46_2 C45_2 1_555 1_555
C47_2 C46_2 1_555 1_555
H29_2 C47_2 1_555 1_555
C48_2 C43_2 1_555 1_555
H30_2 C48_2 1_555 1_555
C49_2 C43_2 1_555 1_555
C50_2 O8_2 1_555 1_555
Cd7 O5 1_555 1_555
N15_2 Cd4 1_555 1_555
N8_2 C22_2 1_555 1_555
N13_2 C29_2 1_555 1_555
O2_2 C41_2 1_555 1_555
C35_2 C41_2 1_555 1_555
C38_2 C42_2 1_555 1_555
C39_2 C40_2 1_555 1_555
O6 Cd7 1_555 1_555
C46_2 C50_2 1_555 1_555
C47_2 C48_2 1_555 1_555
Cd7 N11_2 1_555 1_555
N9_2 H15_2 1_555 1_555
N11_2 C26_2 1_555 1_555
C24_2 N9_2 1_555 1_555
C26_2 C25_2 1_555 1_555
C27_2 N11_2 1_555 1_555
H17_2 C27_2 1_555 1_555
C28_2 C24_2 1_555 1_555
H18_2 C28_2 1_555 1_555
N14_2 C32_2 1_555 1_555
C30_2 N12_2 1_555 1_555
C32_2 C31_2 1_555 1_555
C33_2 N14_2 1_555 1_555
H21_2 C33_2 1_555 1_555
C34_2 C30_2 1_555 1_555
H22_2 C34_2 1_555 1_555
C24_2 C25_2 1_555 1_555
C27_2 C28_2 1_555 1_555
C30_2 C31_2 1_555 1_555
C33_2 C34_2 1_555 1_555
C1 C2_2 1_555 1_555
C2_2 H1_2 1_555 1_555
C3 C2_2 1_555 1_555
C4 C3 1_555 1_555
H2 C4 1_555 1_555
N1 C4 1_555 1_555
C5 C1 1_555 1_555
H3 C5 1_555 1_555
N2_2 C6_2 1_555 1_555
N3 H4 1_555 1_555
C6_2 C1 1_555 1_555
C7_2 N2_2 1_555 1_555
C8_2 N3 1_555 1_555
C9_2 C8_2 1_555 1_555
H5 C9_2 1_555 1_555
C11_2 C7_2 1_555 1_555
H7_2 C11_2 1_555 1_555
N5 C12 1_555 1_555
N6_2 H8_2 1_555 1_555
N15_2 C15_2 1_555 1_555
C12 C3 1_555 1_555
C13_2 N6_2 1_555 1_555
C14_2 N5 1_555 1_555
C15_2 C14_2 1_555 1_555
H9 C15_2 1_555 1_555
C16_2 N15_2 1_555 1_555
H10_2 C16_2 1_555 1_555
C17_2 C13_2 1_555 1_555
H11_2 C17_2 1_555 1_555
N1 C5 1_555 1_555
N3 C6_2 1_555 1_555
C7_2 C8_2 1_555 1_555
C10_2 C11_2 1_555 1_555
N6_2 C12 1_555 1_555
C13_2 C14_2 1_555 1_555
C16_2 C17_2 1_555 1_555
C4_2 C3_2 1_555 1_555
H2_2 C4_2 1_555 1_555
N1_2 C4_2 1_555 1_555
C5_2 C1_2 1_555 1_555
H3_2 C5_2 1_555 1_555
N3_2 H4_2 1_555 1_555
N5_2 C12_2 1_555 1_555
C12_2 C3_2 1_555 1_555
N1_2 C5_2 1_555 1_555
C1_3 C2_3 1_555 1_555
C2_3 H1_3 1_555 1_555
C3_3 C2_3 1_555 1_555
C4_3 C3_3 1_555 1_555
H2_3 C4_3 1_555 1_555
N1_3 C4_3 1_555 1_555
C5_3 C1_3 1_555 1_555
H3_3 C5_3 1_555 1_555
N2_3 C6_3 1_555 1_555
N3_3 H4_3 1_555 1_555
C6_3 C1_3 1_555 1_555
C7_3 N2_3 1_555 1_555
C8_3 N3_3 1_555 1_555
C9_3 C8_3 1_555 1_555
H5_3 C9_3 1_555 1_555
C11_3 C7_3 1_555 1_555
H7_3 C11_3 1_555 1_555
N5_3 C12_3 1_555 1_555
N6_3 H8_3 1_555 1_555
N7 C15_3 1_555 1_555
C12_3 C3_3 1_555 1_555
C13_3 N6_3 1_555 1_555
C14_3 N5_3 1_555 1_555
C15_3 C14_3 1_555 1_555
H9_3 C15_3 1_555 1_555
C16_3 N7 1_555 1_555
H10_3 C16_3 1_555 1_555
C17_3 C13_3 1_555 1_555
H11_3 C17_3 1_555 1_555
Cd3 N7 1_555 1_555
N1_3 C5_3 1_555 1_555
N3_3 C6_3 1_555 1_555
C7_3 C8_3 1_555 1_555
C10_3 C11_3 1_555 1_555
N6_3 C12_3 1_555 1_555
C13_3 C14_3 1_555 1_555
C16_3 C17_3 1_555 1_555
Cd2 N11_3 1_555 1_555
N9_3 H15_3 1_555 1_555
N11_3 C26_3 1_555 1_555
C24_3 N9_3 1_555 1_555
C26_3 C25_3 1_555 1_555
C27_3 N11_3 1_555 1_555
H17_3 C27_3 1_555 1_555
C28_3 C24_3 1_555 1_555
H18_3 C28_3 1_555 1_555
N16 C32_3 1_555 1_555
C30_3 N12_3 1_555 1_555
C32_3 C31_3 1_555 1_555
C33_3 N16 1_555 1_555
H21_3 C33_3 1_555 1_555
C34_3 C30_3 1_555 1_555
H22_3 C34_3 1_555 1_555
O10_2 Cd2 1_555 1_555
O11_2 Cd2 1_555 1_555
O12_2 Cd2 1_555 1_555
C24_3 C25_3 1_555 1_555
C27_3 C28_3 1_555 1_555
C30_3 C31_3 1_555 1_555
C33_3 C34_3 1_555 1_555
Cd3 N4_3 1_555 1_555
C18_3 C19_3 1_555 1_555
C20_3 C19_3 1_555 1_555
C21_3 C20_3 1_555 1_555
H13_3 C21_3 1_555 1_555
N8_3 C21_3 1_555 1_555
C22_3 C18_3 1_555 1_555
H14_3 C22_3 1_555 1_555
N10_3 C23_3 1_555 1_555
C23_3 C18_3 1_555 1_555
N13_3 H19_3 1_555 1_555
C29_3 C20_3 1_555 1_555
O1_3 Cd3 1_555 1_555
O2_3 Cd3 1_555 1_555
O3_2 C42_3 1_555 1_555
C35_3 C36_3 1_555 1_555
C36_3 H23_3 1_555 1_555
C37_3 C36_3 1_555 1_555
H24_3 C37_3 1_555 1_555
C38_3 C37_3 1_555 1_555
C39_3 C38_3 1_555 1_555
H25_3 C39_3 1_555 1_555
C40_3 C35_3 1_555 1_555
H26_3 C40_3 1_555 1_555
C41_3 O1_3 1_555 1_555
C42_3 O4_3 1_555 1_555
O10_2 C49_3 1_555 1_555
O11_2 C49_3 1_555 1_555
O7_2 C50_3 1_555 1_555
O8_3 Cd3 1_555 1_555
C43_3 C44_3 1_555 1_555
C44_3 H27_3 1_555 1_555
C45_3 C44_3 1_555 1_555
H28_3 C45_3 1_555 1_555
C46_3 C45_3 1_555 1_555
C47_3 C46_3 1_555 1_555
H29_3 C47_3 1_555 1_555
C48_3 C43_3 1_555 1_555
H30_3 C48_3 1_555 1_555
C49_3 C43_3 1_555 1_555
C50_3 O8_3 1_555 1_555
Cd4_2 O3_2 1_555 1_555
Cd7_2 O7_2 1_555 1_555
O9_2 Cd3 1_555 1_555
N8_3 C22_3 1_555 1_555
N13_3 C29_3 1_555 1_555
O2_3 C41_3 1_555 1_555
C35_3 C41_3 1_555 1_555
C38_3 C42_3 1_555 1_555
C39_3 C40_3 1_555 1_555
C46_3 C50_3 1_555 1_555
C47_3 C48_3 1_555 1_555
C2_4 H1_4 1_555 1_555
N2_4 C6_4 1_555 1_555
C7_4 N2_4 1_555 1_555
C9_4 C8_4 1_555 1_555
C11_4 C7_4 1_555 1_555
H7_4 C11_4 1_555 1_555
N6_4 H8_4 1_555 1_555
N7_2 C15_4 1_555 1_555
C13_4 N6_4 1_555 1_555
C15_4 C14_4 1_555 1_555
C16_4 N7_2 1_555 1_555
H10_4 C16_4 1_555 1_555
C17_4 C13_4 1_555 1_555
H11_4 C17_4 1_555 1_555
Cd4_2 N7_2 1_555 1_555
C7_4 C8_4 1_555 1_555
C10_4 C11_4 1_555 1_555
C13_4 C14_4 1_555 1_555
C16_4 C17_4 1_555 1_555
O5_2 C49_4 1_555 1_555
O6_2 C49_4 1_555 1_555
H30_4 C48_4 1_555 1_555
Cd7_2 O5_2 1_555 1_555
O6_2 Cd7_2 1_555 1_555
O12_2 C50_4 1_555 1_555
C43_4 C44_4 1_555 1_555
C44_4 H27_4 1_555 1_555
C45_4 C44_4 1_555 1_555
H28_4 C45_4 1_555 1_555
C46_4 C45_4 1_555 1_555
C47_4 C46_4 1_555 1_555
C50_4 O8_4 1_555 1_555
C46_4 C50_4 1_555 1_555
Cd7_2 N11_4 1_555 1_555
C18_4 C19_4 1_555 1_555
C19_4 H12_4 1_555 1_555
C20_4 C19_4 1_555 1_555
C21_4 C20_4 1_555 1_555
H13_4 C21_4 1_555 1_555
N8_4 C21_4 1_555 1_555
C22_4 C18_4 1_555 1_555
H14_4 C22_4 1_555 1_555
N9_4 H15_4 1_555 1_555
N10_4 C23_4 1_555 1_555
N11_4 C26_4 1_555 1_555
C23_4 C18_4 1_555 1_555
C24_4 N9_4 1_555 1_555
C25_4 N10_4 1_555 1_555
C26_4 C25_4 1_555 1_555
H16_4 C26_4 1_555 1_555
C27_4 N11_4 1_555 1_555
H17_4 C27_4 1_555 1_555
C28_4 C24_4 1_555 1_555
H18_4 C28_4 1_555 1_555
N12_4 C29_4 1_555 1_555
N13_4 H19_4 1_555 1_555
N16_2 C32_4 1_555 1_555
C29_4 C20_4 1_555 1_555
C30_4 N12_4 1_555 1_555
C31_4 N13_4 1_555 1_555
C32_4 C31_4 1_555 1_555
H20_4 C32_4 1_555 1_555
C33_4 N16_2 1_555 1_555
H21_4 C33_4 1_555 1_555
C34_4 C30_4 1_555 1_555
H22_4 C34_4 1_555 1_555
O9_2 C42_4 1_555 1_555
O4_4 Cd7_2 1_555 1_555
C36_4 H23_4 1_555 1_555
C37_4 C36_4 1_555 1_555
H24_4 C37_4 1_555 1_555
C38_4 C37_4 1_555 1_555
C42_4 O4_4 1_555 1_555
N8_4 C22_4 1_555 1_555
N9_4 C23_4 1_555 1_555
C24_4 C25_4 1_555 1_555
C27_4 C28_4 1_555 1_555
N13_4 C29_4 1_555 1_555
C30_4 C31_4 1_555 1_555
C33_4 C34_4 1_555 1_555
C38_4 C42_4 1_555 1_555
Cd4_2 N4_4 1_555 1_555
O1_4 Cd4_2 1_555 1_555
O2_4 Cd4_2 1_555 1_555
H25_4 C39_4 1_555 1_555
C40_4 C35_4 1_555 1_555
H26_4 C40_4 1_555 1_555
C41_4 O1_4 1_555 1_555
O2_4 C41_4 1_555 1_555
C35_4 C41_4 1_555 1_555
C39_4 C40_4 1_555 1_555
C4_4 C3_4 1_555 1_555
H2_4 C4_4 1_555 1_555
N1_4 C4_4 1_555 1_555
C5_4 C1_4 1_555 1_555
H3_4 C5_4 1_555 1_555
N3_4 H4_4 1_555 1_555
N5_4 C12_4 1_555 1_555
C12_4 C3_4 1_555 1_555
N1_4 C5_4 1_555 1_555

#END
