
###############################################################################
#
# This file contains modified crystal structure data generated from the
# MOF subset of the Cambridge Structural Database (CSD) v543 
# hosted by the Cambridge Crystallographic Data Centre (CCDC).
#
# This work is licensed under the Creative Commons
# Attribution-NonCommercial-ShareAlike 4.0 International License.
# To view a copy of this license, visit
# http://creativecommons.org/licenses/by-nc-sa/4.0/
# or send a letter to
# Creative Commons, PO Box 1866, Mountain View, CA 94042, USA.
#
# CIF created using the CSD Python API on 29 September 2022
# The structure has been converted into the P1 space group
# The structure has a 3D framework
# The original CSD entry RAWZIB is in the monoclinic crystal system
# The original CSD entry RAWZIB is in a Sohncke space group
# The framework has been calculated to contain at least 10.0% void space
# The void calculation uses a probe of radius 1.32A, grid spacing 0.4
#
###############################################################################

data_RAWZIB
_chemical_formula_moiety         '(C200 H120 N54 O32 Zn8)n'
_symmetry_cell_setting           triclinic
_symmetry_space_group_name_H-M   'P 1'
_symmetry_Int_Tables_number      1
_space_group_name_Hall           'P 1'
loop_
_symmetry_equiv_pos_site_id
_symmetry_equiv_pos_as_xyz
1 x,y,z
_cell_length_a                   16.3436(14)
_cell_length_b                   19.1325(16)
_cell_length_c                   17.7966(15)
_cell_angle_alpha                90
_cell_angle_beta                 101.934(2)
_cell_angle_gamma                90
_cell_volume                     5444.61
loop_
_atom_site_label
_atom_site_type_symbol
_atom_site_fract_x
_atom_site_fract_y
_atom_site_fract_z
N22 N 0.2122(5) 0.0265(4) 0.3634(4)
H50 H 0.1983 0.0203 0.4705
H52 H 0.2140 0.0120 0.2542
Zn3 Zn 0.08532(6) 0.84178(4) 0.83696(5)
H21 H 0.0106 0.0603 0.1390
C84 C 0.1847(6) 0.9986(4) 0.4228(5)
C85 C 0.1365(6) 0.9382(4) 0.4148(5)
C86 C 0.1175(6) 0.9041(5) 0.3435(5)
H51 H 0.0855 0.8635 0.3373
C87 C 0.1472(5) 0.9318(4) 0.2822(5)
C88 C 0.1940(6) 0.9930(4) 0.2951(5)
N23 N 0.0716(4) 0.8457(4) 0.7154(4)
N24 N 0.1308(5) 0.9382(4) 0.5536(4)
N25 N 0.0672(5) 0.8492(4) 0.4841(4)
H53 H 0.0474 0.8230 0.4453
C89 C 0.1108(6) 0.9095(4) 0.4840(5)
C90 C 0.0990(6) 0.8946(4) 0.6014(5)
C91 C 0.0613(6) 0.8389(5) 0.5590(4)
C92 C 0.0232(6) 0.7844(5) 0.5936(5)
C93 C 0.0331(6) 0.7913(4) 0.6726(5)
H55 H 0.0116 0.7558 0.6986
C94 C 0.1043(5) 0.8968(4) 0.6802(5)
H56 H 0.1308 0.9342 0.7086
N27 N 0.1549(5) 0.9256(3) 0.1455(4)
H57 H 0.1863 0.9616 0.1452
N28 N 0.0821(4) 0.8412(4) 0.1905(4)
C95 C 0.1283(6) 0.9000(4) 0.2062(5)
C96 C 0.1226(5) 0.8835(4) 0.0829(5)
C97 C 0.0779(5) 0.8314(4) 0.1125(5)
C98 C 0.0419(6) 0.7791(4) 0.0625(5)
H58 H 0.0127 0.7423 0.0788
C100 C 0.1293(5) 0.8837(4) 0.0068(5)
O18 O 0.1319(4) 0.9406(3) 0.8425(3)
O20 O 0.1101(4) 0.7258(3) 0.8369(3)
O21 O 0.2152(4) 0.7986(3) 0.8465(4)
N32 N 0.0940(4) 0.8365(4) 0.9566(4)
C99 C 0.0512(5) 0.7842(4) 0.9877(5)
H59 H 0.0265 0.7492 0.9543
H60 H 0.1603 0.9190 0.9902
O17 O 0.0328(4) 0.9996(3) 0.8858(3)
N8 N 0.7342(5) 0.2967(4) 0.4115(5)
C50 C 0.7053(6) 0.3253(5) 0.4681(6)
H28 H 0.7193 0.3044 0.5162
C51 C 0.6540(6) 0.3864(5) 0.4605(5)
C52 C 0.6309(6) 0.4149(5) 0.3870(5)
H29 H 0.5957 0.4535 0.3782
C53 C 0.6613(6) 0.3847(5) 0.3266(5)
C54 C 0.7133(6) 0.3237(4) 0.3427(5)
H30 H 0.7329 0.3027 0.3027
N9 N 0.5832(4) 0.4767(4) 0.7605(4)
N10 N 0.6447(5) 0.3837(4) 0.5964(4)
N11 N 0.5862(5) 0.4760(5) 0.5286(4)
H31 H 0.5694 0.5031 0.4900
C55 C 0.6277(6) 0.4138(5) 0.5284(5)
C56 C 0.6127(6) 0.4293(5) 0.6437(5)
C57 C 0.5770(6) 0.4864(5) 0.6021(5)
C58 C 0.5419(6) 0.5406(5) 0.6383(6)
H32 H 0.5161 0.5790 0.6113
C59 C 0.5480(6) 0.5332(4) 0.7163(5)
H33 H 0.5268 0.5693 0.7416
C60 C 0.6145(6) 0.4252(4) 0.7230(5)
H34 H 0.6378 0.3860 0.7501
N12 N 0.6004(4) 0.4792(4) 0.0002(4)
N13 N 0.6670(5) 0.3894(4) 0.1878(4)
H35 H 0.7003 0.3545 0.1883
N14 N 0.5876(4) 0.4695(4) 0.2313(4)
C61 C 0.6380(5) 0.4149(4) 0.2483(5)
C62 C 0.6335(6) 0.4294(4) 0.1263(5)
C63 C 0.5817(5) 0.4799(5) 0.1547(5)
C64 C 0.5422(5) 0.5306(4) 0.1048(5)
H36 H 0.5101 0.5653 0.1213
C65 C 0.5521(6) 0.5278(4) 0.0296(5)
C66 C 0.6395(5) 0.4299(4) 0.0503(5)
H38 H 0.6712 0.3956 0.0326
Zn6 Zn 0.59450(6) 0.47728(4) 0.88115(5)
N31 N 0.4323(4) 0.3417(4) 0.0339(4)
Zn1 Zn 0.41950(6) 0.34089(4) 0.91134(5)
O3 O 0.3866(4) 0.2334(3) 0.9040(4)
O4 O 0.2794(4) 0.3032(3) 0.9069(4)
C2 C 0.1526(5) 0.0603(4) 0.8686(5)
C3 C 0.2246(6) 0.0630(4) 0.8419(5)
H1 H 0.2403 0.0242 0.8168
C4 C 0.2753(6) 0.1214(4) 0.8507(5)
H2 H 0.3246 0.1218 0.8323
C5 C 0.2513(5) 0.1804(4) 0.8881(5)
C6 C 0.1766(6) 0.1797(4) 0.9134(6)
H3 H 0.1594 0.2195 0.9359
C7 C 0.1282(6) 0.1211(4) 0.9055(6)
H4 H 0.0791 0.1206 0.9241
C8 C 0.3107(6) 0.2428(4) 0.9008(5)
O5 O 0.6376(4) 0.3782(3) 0.8836(3)
O6 O 0.5429(4) 0.3163(3) 0.9317(4)
O7 O 0.7648(4) 0.0126(3) 0.8694(4)
O8 O 0.8726(5) 0.0802(3) 0.8669(4)
C9 C 0.6082(5) 0.3223(4) 0.9043(5)
C10 C 0.6565(5) 0.2560(4) 0.8958(5)
C11 C 0.7269(5) 0.2609(4) 0.8632(5)
H5 H 0.7437 0.3037 0.8469
C12 C 0.7722(6) 0.1994(5) 0.8555(6)
H6 H 0.8196 0.2017 0.8343
C13 C 0.7466(6) 0.1359(4) 0.8791(6)
C14 C 0.6764(6) 0.1317(4) 0.9104(6)
H7 H 0.6596 0.0885 0.9258
C15 C 0.6294(6) 0.1920(4) 0.9195(5)
H8 H 0.5820 0.1891 0.9406
C16 C 0.7970(7) 0.0720(5) 0.8704(6)
O9 O 0.8628(4) 0.8797(3) 0.8573(3)
O10 O 0.9614(4) 0.8142(3) 0.8208(3)
O11 O 0.7320(4) 0.5162(3) 0.8881(3)
O12 O 0.6245(4) 0.5860(3) 0.8858(4)
C17 C 0.8943(5) 0.8223(4) 0.8444(4)
C18 C 0.8457(5) 0.7580(4) 0.8591(5)
C19 C 0.8782(6) 0.6912(4) 0.8519(5)
H9 H 0.9303 0.6861 0.8392
C20 C 0.8323(5) 0.6322(4) 0.8638(6)
H10 H 0.8543 0.5877 0.8604
C21 C 0.7538(5) 0.6403(4) 0.8805(5)
C22 C 0.7224(6) 0.7071(4) 0.8891(6)
H11 H 0.6708 0.7127 0.9026
C23 C 0.7695(6) 0.7652(4) 0.8770(6)
H12 H 0.7482 0.8097 0.8814
C24 C 0.7000(6) 0.5773(4) 0.8858(5)
O13 O 0.4707(4) 0.5023(3) 0.8606(4)
O14 O 0.3768(4) 0.4402(3) 0.9083(3)
C25 C 0.4049(5) 0.4964(4) 0.8849(5)
C26 C 0.3504(6) 0.5589(4) 0.8797(5)
C27 C 0.3795(6) 0.6245(4) 0.8639(8)
H13 H 0.4348 0.6301 0.8596
C28 C 0.3258(6) 0.6820(4) 0.8546(8)
H14 H 0.3461 0.7255 0.8440
C29 C 0.2462(6) 0.6763(4) 0.8605(5)
C30 C 0.2163(6) 0.6120(4) 0.8794(5)
H15 H 0.1615 0.6081 0.8860
C31 C 0.2675(6) 0.5540(4) 0.8883(6)
H16 H 0.2466 0.5112 0.9003
C32 C 0.1868(6) 0.7368(4) 0.8473(5)
C41 C 0.9787(6) 0.0254(5) 0.1106(5)
C42 C 0.9701(5) 0.0199(4) 0.0318(5)
H22 H 0.9997 0.0522 0.0087
H24 H 0.9221 0.0059 0.4796
C47 C 0.9461(7) 0.0445(5) 0.6387(5)
H25 H 0.9721 0.0829 0.6217
C48 C 0.9399(6) 0.0366(4) 0.7138(5)
H26 H 0.9623 0.0717 0.7480
H37 H 0.5241 0.5612 0.9958
N15 N 0.2995(6) 0.5338(5) 0.3845(5)
C67 C 0.3262(8) 0.5031(6) 0.3263(6)
H39 H 0.3162 0.5255 0.2790
C68 C 0.3678(7) 0.4395(6) 0.3332(6)
C69 C 0.3881(7) 0.4078(6) 0.4041(6)
H40 H 0.4174 0.3658 0.4101
C70 C 0.3642(7) 0.4392(6) 0.4669(6)
C71 C 0.3201(8) 0.5018(6) 0.4554(6)
H41 H 0.3039 0.5228 0.4971
N17 N 0.3648(5) 0.4345(4) 0.1925(4)
H42 H 0.3340 0.4708 0.1796
N18 N 0.4414(5) 0.3504(5) 0.2683(5)
C72 C 0.3919(7) 0.4076(5) 0.2645(5)
C73 C 0.3981(6) 0.3903(4) 0.1447(5)
C74 C 0.4451(5) 0.3392(5) 0.1920(5)
C75 C 0.4861(6) 0.2889(4) 0.1565(5)
H43 H 0.5185 0.2543 0.1850
C76 C 0.4773(5) 0.2922(4) 0.0798(5)
H44 H 0.5040 0.2582 0.0562
C77 C 0.3916(6) 0.3908(4) 0.0662(5)
H45 H 0.3595 0.4245 0.0359
N19 N 0.4105(4) 0.3408(4) 0.7906(5)
N20 N 0.3588(5) 0.4363(4) 0.6049(4)
N21 N 0.4213(5) 0.3436(5) 0.5605(4)
H46 H 0.4402 0.3164 0.5296
C78 C 0.3805(7) 0.4072(6) 0.5426(5)
C79 C 0.3857(6) 0.3899(5) 0.6649(5)
C80 C 0.4250(6) 0.3332(5) 0.6360(6)
C81 C 0.4580(7) 0.2772(5) 0.6853(6)
H47 H 0.4834 0.2386 0.6682
C82 C 0.4496(6) 0.2843(4) 0.7613(5)
H48 H 0.4716 0.2490 0.7954
C83 C 0.3805(5) 0.3915(4) 0.7408(5)
H49 H 0.3549 0.4298 0.7586
H54 H 0.9944 0.7475 0.5660
Zn12 Zn 0.90915(6) 0.97723(4) 0.86356(5)
C1 C 0.0998(5) 0.9955(4) 0.8643(4)
N1 N 0.7853(5) 0.7873(4) 0.3418(4)
C33 C 0.8119(5) 0.8163(4) 0.2827(5)
H17 H 0.8009 0.7925 0.2362
C34 C 0.8555(6) 0.8807(4) 0.2855(5)
C35 C 0.8715(6) 0.9152(5) 0.3575(5)
H18 H 0.8979 0.9586 0.3626
C36 C 0.8483(6) 0.8848(4) 0.4194(5)
C37 C 0.8044(6) 0.8200(4) 0.4075(5)
H19 H 0.7882 0.7996 0.4496
N3 N 0.8550(5) 0.8827(3) 0.1478(4)
H20 H 0.8245 0.8462 0.1355
N4 N 0.9285(4) 0.9661(4) 0.2209(4)
C38 C 0.8792(5) 0.9104(4) 0.2193(5)
C39 C 0.8885(5) 0.9241(4) 0.0994(5)
C40 C 0.9354(5) 0.9742(5) 0.1450(5)
C43 C 0.8819(5) 0.9229(4) 0.0196(5)
N5 N 0.9036(4) 0.9818(4) 0.7423(4)
N6 N 0.8437(5) 0.8863(4) 0.5573(4)
N7 N 0.9045(5) 0.9789(4) 0.5115(4)
C44 C 0.8647(6) 0.9161(5) 0.4959(5)
C45 C 0.8736(6) 0.9336(4) 0.6164(5)
C46 C 0.9103(6) 0.9899(4) 0.5885(5)
C49 C 0.8716(6) 0.9298(4) 0.6946(5)
H27 H 0.8480 0.8910 0.7135
N29 N 0.9217(4) 0.9711(4) 0.9827(4)
H23 H 0.8495 0.8885 0.9908
Zn10 Zn 0.09085(6) 0.47723(4) 0.13644(5)
O9_2 O 0.1372(4) 0.3797(3) 0.1427(3)
O10_2 O 0.0386(4) 0.3142(3) 0.1792(3)
O11_2 O 0.2680(4) 0.0162(3) 0.1119(3)
O12_2 O 0.3755(4) 0.0860(3) 0.1142(4)
C17_2 C 0.1057(5) 0.3223(4) 0.1556(4)
C18_2 C 0.1543(5) 0.2580(4) 0.1409(5)
C19_2 C 0.1218(6) 0.1912(4) 0.1481(5)
H9_2 H 0.0697 0.1861 0.1608
C20_2 C 0.1677(5) 0.1322(4) 0.1362(6)
H10_2 H 0.1457 0.0877 0.1396
C21_2 C 0.2462(5) 0.1403(4) 0.1195(5)
C22_2 C 0.2776(6) 0.2071(4) 0.1109(6)
H11_2 H 0.3292 0.2127 0.0974
C23_2 C 0.2305(6) 0.2652(4) 0.1230(6)
H12_2 H 0.2518 0.3097 0.1186
C24_2 C 0.3000(6) 0.0773(4) 0.1142(5)
O13_2 O 0.5293(4) 0.0023(3) 0.1394(4)
O15 O 0.8899(4) 0.2258(3) 0.1631(3)
O16 O 0.7848(4) 0.2986(3) 0.1535(4)
C26_2 C 0.6496(6) 0.0589(4) 0.1203(5)
C27_2 C 0.6205(6) 0.1245(4) 0.1361(8)
H13_2 H 0.5652 0.1301 0.1404
C28_2 C 0.6742(6) 0.1820(4) 0.1454(8)
H14_2 H 0.6539 0.2255 0.1560
C29_2 C 0.7538(6) 0.1763(4) 0.1395(5)
C30_2 C 0.7837(6) 0.1120(4) 0.1206(5)
H15_2 H 0.8385 0.1081 0.1140
C31_2 C 0.7325(6) 0.0540(4) 0.1117(6)
H16_2 H 0.7534 0.0112 0.0997
C32_2 C 0.8132(6) 0.2368(4) 0.1527(5)
H37_2 H 0.4759 0.0612 0.0042
N15_2 N 0.7005(6) 0.0338(5) 0.6155(5)
C67_2 C 0.6738(8) 0.0031(6) 0.6737(6)
H39_2 H 0.6838 0.0255 0.7210
C71_2 C 0.6799(8) 0.0018(6) 0.5446(6)
H41_2 H 0.6961 0.0228 0.5029
H54_2 H 0.0056 0.2475 0.4340
Zn8 Zn 0.91468(6) 0.34178(4) 0.16304(5)
N2 N 0.0783(4) 0.4711(4) 0.0173(4)
H23_2 H 0.1505 0.3885 0.0092
Zn5 Zn 0.58050(6) 0.84089(4) 0.08866(5)
Zn2 Zn 0.40550(6) 0.97728(4) 0.11885(5)
O1 O 0.9672(4) 0.4996(3) 0.1142(3)
O2 O 0.8681(4) 0.4406(3) 0.1575(3)
O3_2 O 0.6134(4) 0.7334(3) 0.0960(4)
O4_2 O 0.7206(4) 0.8032(3) 0.0931(4)
C1_2 C 0.9002(5) 0.4955(4) 0.1357(4)
C2_2 C 0.8474(5) 0.5603(4) 0.1314(5)
C3_2 C 0.7754(6) 0.5630(4) 0.1581(5)
H1_2 H 0.7597 0.5242 0.1832
C4_2 C 0.7247(6) 0.6214(4) 0.1493(5)
H2_2 H 0.6754 0.6218 0.1677
C5_2 C 0.7487(5) 0.6804(4) 0.1119(5)
C6_2 C 0.8234(6) 0.6797(4) 0.0866(6)
H3_2 H 0.8406 0.7195 0.0641
C7_2 C 0.8718(6) 0.6211(4) 0.0945(6)
H4_2 H 0.9209 0.6206 0.0759
C8_2 C 0.6893(6) 0.7428(4) 0.0992(5)
O5_2 O 0.3624(4) 0.8782(3) 0.1164(3)
O6_2 O 0.4571(4) 0.8163(3) 0.0683(4)
O7_2 O 0.2352(4) 0.5126(3) 0.1306(4)
O8_2 O 0.1274(5) 0.5802(3) 0.1331(4)
C9_2 C 0.3918(5) 0.8223(4) 0.0957(5)
C10_2 C 0.3435(5) 0.7560(4) 0.1042(5)
C11_2 C 0.2731(5) 0.7609(4) 0.1368(5)
H5_2 H 0.2563 0.8037 0.1531
C12_2 C 0.2278(6) 0.6994(5) 0.1445(6)
H6_2 H 0.1804 0.7017 0.1657
C13_2 C 0.2534(6) 0.6359(4) 0.1209(6)
C14_2 C 0.3236(6) 0.6317(4) 0.0896(6)
H7_2 H 0.3404 0.5885 0.0742
C15_2 C 0.3706(6) 0.6920(4) 0.0805(5)
H8_2 H 0.4180 0.6891 0.0594
C16_2 C 0.2030(7) 0.5720(5) 0.1296(6)
O14_2 O 0.6232(4) 0.9402(3) 0.0917(3)
C25_2 C 0.5951(5) 0.9964(4) 0.1151(5)
N1_2 N 0.2147(5) 0.2873(4) 0.6582(4)
C33_2 C 0.1881(5) 0.3163(4) 0.7173(5)
H17_2 H 0.1991 0.2925 0.7638
C34_2 C 0.1445(6) 0.3807(4) 0.7145(5)
C35_2 C 0.1285(6) 0.4152(5) 0.6425(5)
H18_2 H 0.1021 0.4586 0.6374
C36_2 C 0.1517(6) 0.3848(4) 0.5806(5)
C37_2 C 0.1956(6) 0.3200(4) 0.5925(5)
H19_2 H 0.2118 0.2996 0.5504
N3_2 N 0.1450(5) 0.3827(3) 0.8522(4)
H20_2 H 0.1755 0.3462 0.8645
N4_2 N 0.0715(4) 0.4661(4) 0.7791(4)
C38_2 C 0.1208(5) 0.4104(4) 0.7807(5)
C39_2 C 0.1115(5) 0.4241(4) 0.9006(5)
C40_2 C 0.0646(5) 0.4742(5) 0.8550(5)
C41_2 C 0.0213(6) 0.5254(5) 0.8894(5)
C42_2 C 0.0299(5) 0.5199(4) 0.9682(5)
H22_2 H 0.0003 0.5522 0.9913
C43_2 C 0.1181(5) 0.4229(4) 0.9804(5)
N5_2 N 0.0964(4) 0.4818(4) 0.2577(4)
N6_2 N 0.1563(5) 0.3863(4) 0.4427(4)
N7_2 N 0.0955(5) 0.4789(4) 0.4885(4)
H24_2 H 0.0779 0.5059 0.5204
C44_2 C 0.1353(6) 0.4161(5) 0.5041(5)
C45_2 C 0.1264(6) 0.4336(4) 0.3836(5)
C46_2 C 0.0897(6) 0.4899(4) 0.4115(5)
C47_2 C 0.0539(7) 0.5445(5) 0.3613(5)
H25_2 H 0.0279 0.5829 0.3783
C48_2 C 0.0601(6) 0.5366(4) 0.2862(5)
H26_2 H 0.0377 0.5717 0.2520
C49_2 C 0.1284(6) 0.4298(4) 0.3054(5)
H27_2 H 0.1520 0.3910 0.2865
C68_2 C 0.6322(7) 0.9395(6) 0.6668(6)
C69_2 C 0.6119(7) 0.9078(6) 0.5959(6)
H40_2 H 0.5826 0.8658 0.5899
C70_2 C 0.6358(7) 0.9392(6) 0.5331(6)
N16 N 0.5677(4) 0.8417(4) 0.9661(4)
N17_2 N 0.6352(5) 0.9345(4) 0.8075(4)
H42_2 H 0.6660 0.9708 0.8204
N18_2 N 0.5586(5) 0.8504(5) 0.7317(5)
C72_2 C 0.6081(7) 0.9076(5) 0.7355(5)
C73_2 C 0.6019(6) 0.8903(4) 0.8553(5)
C74_2 C 0.5549(5) 0.8392(5) 0.8080(5)
C75_2 C 0.5139(6) 0.7889(4) 0.8435(5)
H43_2 H 0.4815 0.7543 0.8150
C76_2 C 0.5227(5) 0.7922(4) 0.9202(5)
H44_2 H 0.4960 0.7582 0.9438
C77_2 C 0.6084(6) 0.8908(4) 0.9338(5)
H45_2 H 0.6405 0.9245 0.9641
N19_2 N 0.5895(4) 0.8408(4) 0.2094(5)
N20_2 N 0.6412(5) 0.9363(4) 0.3951(4)
N21_2 N 0.5787(5) 0.8436(5) 0.4395(4)
H46_2 H 0.5598 0.8164 0.4704
C78_2 C 0.6195(7) 0.9072(6) 0.4574(5)
C79_2 C 0.6143(6) 0.8899(5) 0.3351(5)
C80_2 C 0.5750(6) 0.8332(5) 0.3640(6)
C81_2 C 0.5420(7) 0.7772(5) 0.3147(6)
H47_2 H 0.5166 0.7386 0.3318
C82_2 C 0.5504(6) 0.7843(4) 0.2387(5)
H48_2 H 0.5284 0.7490 0.2046
C83_2 C 0.6195(5) 0.8915(4) 0.2592(5)
H49_2 H 0.6451 0.9298 0.2414
N30 N 0.4168(4) 0.9767(4) 0.2395(4)
N8_2 N 0.2658(5) 0.7967(4) 0.5885(5)
C50_2 C 0.2947(6) 0.8253(5) 0.5319(6)
H28_2 H 0.2807 0.8044 0.4838
C51_2 C 0.3460(6) 0.8864(5) 0.5395(5)
C52_2 C 0.3691(6) 0.9149(5) 0.6130(5)
H29_2 H 0.4043 0.9535 0.6218
C53_2 C 0.3387(6) 0.8847(5) 0.6734(5)
C54_2 C 0.2867(6) 0.8237(4) 0.6573(5)
H30_2 H 0.2671 0.8027 0.6973
N10_2 N 0.3553(5) 0.8837(4) 0.4036(4)
N11_2 N 0.4138(5) 0.9760(5) 0.4714(4)
C55_2 C 0.3723(6) 0.9138(5) 0.4716(5)
C56_2 C 0.3873(6) 0.9293(5) 0.3563(5)
C57_2 C 0.4230(6) 0.9864(5) 0.3979(5)
C60_2 C 0.3855(6) 0.9252(4) 0.2770(5)
H34_2 H 0.3622 0.8860 0.2499
N12_2 N 0.3996(4) 0.9792(4) 0.9998(4)
N13_2 N 0.3330(5) 0.8894(4) 0.8122(4)
H35_2 H 0.2997 0.8545 0.8117
N14_2 N 0.4124(4) 0.9695(4) 0.7687(4)
C61_2 C 0.3620(5) 0.9149(4) 0.7517(5)
C62_2 C 0.3665(6) 0.9294(4) 0.8737(5)
C63_2 C 0.4183(5) 0.9799(5) 0.8453(5)
C66_2 C 0.3605(5) 0.9299(4) 0.9497(5)
H38_2 H 0.3288 0.8956 0.9674
N26 N 0.9060(4) 0.3365(4) 0.0434(4)
C99_2 C 0.9488(5) 0.2842(4) 0.0123(5)
H59_2 H 0.9735 0.2492 0.0457
H60_2 H 0.8397 0.4190 0.0098
N22_2 N 0.7878(5) 0.5265(4) 0.6366(4)
C84_2 C 0.8153(6) 0.4986(4) 0.5772(5)
H50_2 H 0.8017 0.5203 0.5295
C85_2 C 0.8635(6) 0.4382(4) 0.5852(5)
C86_2 C 0.8825(6) 0.4041(5) 0.6565(5)
H51_2 H 0.9145 0.3635 0.6627
C87_2 C 0.8528(5) 0.4318(4) 0.7178(5)
C88_2 C 0.8060(6) 0.4930(4) 0.7049(5)
H52_2 H 0.7860 0.5120 0.7458
N23_2 N 0.9284(4) 0.3457(4) 0.2846(4)
N24_2 N 0.8692(5) 0.4382(4) 0.4464(4)
N25_2 N 0.9328(5) 0.3492(4) 0.5159(4)
H53_2 H 0.9526 0.3230 0.5547
C89_2 C 0.8892(6) 0.4095(4) 0.5160(5)
C90_2 C 0.9010(6) 0.3946(4) 0.3986(5)
C91_2 C 0.9387(6) 0.3389(5) 0.4410(4)
C92_2 C 0.9768(6) 0.2844(5) 0.4064(5)
C93_2 C 0.9669(6) 0.2913(4) 0.3274(5)
H55_2 H 0.9884 0.2558 0.3014
C94_2 C 0.8957(5) 0.3968(4) 0.3198(5)
H56_2 H 0.8692 0.4342 0.2914
N27_2 N 0.8451(5) 0.4256(3) 0.8545(4)
H57_2 H 0.8137 0.4616 0.8548
N28_2 N 0.9179(4) 0.3412(4) 0.8095(4)
C95_2 C 0.8717(6) 0.4000(4) 0.7938(5)
C96_2 C 0.8774(5) 0.3835(4) 0.9171(5)
C97_2 C 0.9221(5) 0.3314(4) 0.8875(5)
C98_2 C 0.9581(6) 0.2791(4) 0.9375(5)
H58_2 H 0.9873 0.2423 0.9212
C100_2 C 0.8707(5) 0.3837(4) 0.9932(5)
H21_2 H 0.9894 0.5603 0.8610
H31_2 H 0.4306 0.0031 0.5100
C58_2 C 0.4581(6) 0.0406(5) 0.3617(6)
H32_2 H 0.4839 0.0790 0.3887
C59_2 C 0.4520(6) 0.0332(4) 0.2837(5)
H33_2 H 0.4732 0.0693 0.2584
C64_2 C 0.4578(5) 0.0306(4) 0.8952(5)
H36_2 H 0.4899 0.0653 0.8787
C65_2 C 0.4479(6) 0.0278(4) 0.9704(5)
loop_
_geom_bond_atom_site_label_1
_geom_bond_atom_site_label_2
_geom_bond_site_symmetry_1
_geom_bond_site_symmetry_2
C85 C84 1_555 1_555
C86 C85 1_555 1_555
H51 C86 1_555 1_555
C87 C86 1_555 1_555
N23 Zn3 1_555 1_555
N24 C89 1_555 1_555
N25 H53 1_555 1_555
C89 C85 1_555 1_555
C90 N24 1_555 1_555
C91 N25 1_555 1_555
C92 C91 1_555 1_555
C93 N23 1_555 1_555
H55 C93 1_555 1_555
C94 N23 1_555 1_555
H56 C94 1_555 1_555
N27 H57 1_555 1_555
N28 C95 1_555 1_555
C95 C87 1_555 1_555
C96 N27 1_555 1_555
C97 N28 1_555 1_555
C98 C97 1_555 1_555
H58 C98 1_555 1_555
O18 Zn3 1_555 1_555
O20 Zn3 1_555 1_555
O21 Zn3 1_555 1_555
N32 Zn3 1_555 1_555
C87 C88 1_555 1_555
N25 C89 1_555 1_555
C90 C91 1_555 1_555
C90 C94 1_555 1_555
C92 C93 1_555 1_555
N27 C95 1_555 1_555
C96 C97 1_555 1_555
C96 C100 1_555 1_555
N32 C99 1_555 1_555
H59 C99 1_555 1_555
N8 C50 1_555 1_555
C50 H28 1_555 1_555
C51 C50 1_555 1_555
C52 C51 1_555 1_555
H29 C52 1_555 1_555
C53 C52 1_555 1_555
C54 N8 1_555 1_555
H30 C54 1_555 1_555
N9 C59 1_555 1_555
N10 C55 1_555 1_555
N11 H31 1_555 1_555
C55 C51 1_555 1_555
C56 N10 1_555 1_555
C57 N11 1_555 1_555
C58 C57 1_555 1_555
H32 C58 1_555 1_555
C59 C58 1_555 1_555
H33 C59 1_555 1_555
C60 N9 1_555 1_555
H34 C60 1_555 1_555
N13 H35 1_555 1_555
N14 C61 1_555 1_555
C61 C53 1_555 1_555
C62 N13 1_555 1_555
C63 N14 1_555 1_555
C64 C63 1_555 1_555
H36 C64 1_555 1_555
C65 N12 1_555 1_555
C66 N12 1_555 1_555
H38 C66 1_555 1_555
Zn6 N9 1_555 1_555
C53 C54 1_555 1_555
N11 C55 1_555 1_555
C56 C57 1_555 1_555
C56 C60 1_555 1_555
N13 C61 1_555 1_555
C62 C63 1_555 1_555
C62 C66 1_555 1_555
C64 C65 1_555 1_555
Zn1 O3 1_555 1_555
Zn6 O5 1_555 1_555
O3 C8 1_555 1_555
O4 Zn1 1_555 1_555
C2 C3 1_555 1_555
C3 H1 1_555 1_555
C4 C3 1_555 1_555
H2 C4 1_555 1_555
C5 C4 1_555 1_555
C6 C5 1_555 1_555
H3 C6 1_555 1_555
C7 C2 1_555 1_555
H4 C7 1_555 1_555
C8 O4 1_555 1_555
O5 C9 1_555 1_555
O6 Zn1 1_555 1_555
O7 C16 1_555 1_555
C9 O6 1_555 1_555
C10 C9 1_555 1_555
C11 C10 1_555 1_555
H5 C11 1_555 1_555
C12 C11 1_555 1_555
H6 C12 1_555 1_555
C13 C12 1_555 1_555
C14 C13 1_555 1_555
H7 C14 1_555 1_555
C15 C10 1_555 1_555
H8 C15 1_555 1_555
C16 O8 1_555 1_555
O9 C17 1_555 1_555
O10 C17 1_555 1_555
O11 Zn6 1_555 1_555
O12 Zn6 1_555 1_555
C17 C18 1_555 1_555
C18 C19 1_555 1_555
C19 H9 1_555 1_555
C20 C19 1_555 1_555
H10 C20 1_555 1_555
C21 C20 1_555 1_555
C22 C21 1_555 1_555
H11 C22 1_555 1_555
C23 C18 1_555 1_555
H12 C23 1_555 1_555
C24 O11 1_555 1_555
O13 Zn6 1_555 1_555
O14 Zn1 1_555 1_555
O20 C32 1_555 1_555
O21 C32 1_555 1_555
C25 O13 1_555 1_555
C26 C25 1_555 1_555
C27 C26 1_555 1_555
H13 C27 1_555 1_555
C28 C27 1_555 1_555
H14 C28 1_555 1_555
C29 C28 1_555 1_555
C30 C29 1_555 1_555
H15 C30 1_555 1_555
C31 C26 1_555 1_555
H16 C31 1_555 1_555
C32 C29 1_555 1_555
C42 C41 1_555 1_555
H22 C42 1_555 1_555
H25 C47 1_555 1_555
H26 C48 1_555 1_555
N15 C67 1_555 1_555
C67 H39 1_555 1_555
C68 C67 1_555 1_555
C69 C68 1_555 1_555
H40 C69 1_555 1_555
C70 C69 1_555 1_555
C71 N15 1_555 1_555
H41 C71 1_555 1_555
N31 C76 1_555 1_555
N17 H42 1_555 1_555
N18 C72 1_555 1_555
C72 C68 1_555 1_555
C73 N17 1_555 1_555
C74 N18 1_555 1_555
C75 C74 1_555 1_555
H43 C75 1_555 1_555
C76 C75 1_555 1_555
H44 C76 1_555 1_555
C77 N31 1_555 1_555
H45 C77 1_555 1_555
N19 Zn1 1_555 1_555
N20 C78 1_555 1_555
N21 H46 1_555 1_555
C78 C70 1_555 1_555
C79 N20 1_555 1_555
C80 N21 1_555 1_555
C81 C80 1_555 1_555
H47 C81 1_555 1_555
C82 N19 1_555 1_555
H48 C82 1_555 1_555
C83 N19 1_555 1_555
H49 C83 1_555 1_555
Zn12 O9 1_555 1_555
C5 C8 1_555 1_555
C6 C7 1_555 1_555
C13 C16 1_555 1_555
C14 C15 1_555 1_555
O12 C24 1_555 1_555
C21 C24 1_555 1_555
C22 C23 1_555 1_555
O14 C25 1_555 1_555
C30 C31 1_555 1_555
C47 C48 1_555 1_555
C70 C71 1_555 1_555
N17 C72 1_555 1_555
C73 C74 1_555 1_555
C73 C77 1_555 1_555
N21 C78 1_555 1_555
C79 C80 1_555 1_555
C79 C83 1_555 1_555
C81 C82 1_555 1_555
O17 C1 1_555 1_555
O18 C1 1_555 1_555
N1 C33 1_555 1_555
C33 H17 1_555 1_555
C34 C33 1_555 1_555
C35 C34 1_555 1_555
H18 C35 1_555 1_555
C36 C35 1_555 1_555
C37 N1 1_555 1_555
H19 C37 1_555 1_555
N3 H20 1_555 1_555
N4 C38 1_555 1_555
C38 C34 1_555 1_555
C39 N3 1_555 1_555
C40 N4 1_555 1_555
N5 Zn12 1_555 1_555
N6 C44 1_555 1_555
C44 C36 1_555 1_555
C45 N6 1_555 1_555
C46 N7 1_555 1_555
C49 N5 1_555 1_555
H27 C49 1_555 1_555
N29 Zn12 1_555 1_555
C36 C37 1_555 1_555
N3 C38 1_555 1_555
C39 C40 1_555 1_555
C39 C43 1_555 1_555
N7 C44 1_555 1_555
C45 C46 1_555 1_555
C45 C49 1_555 1_555
O9_2 C17_2 1_555 1_555
O10_2 C17_2 1_555 1_555
C17_2 C18_2 1_555 1_555
C18_2 C19_2 1_555 1_555
C19_2 H9_2 1_555 1_555
C20_2 C19_2 1_555 1_555
H10_2 C20_2 1_555 1_555
C21_2 C20_2 1_555 1_555
C22_2 C21_2 1_555 1_555
H11_2 C22_2 1_555 1_555
C23_2 C18_2 1_555 1_555
H12_2 C23_2 1_555 1_555
C24_2 O11_2 1_555 1_555
O15 C32_2 1_555 1_555
O16 C32_2 1_555 1_555
C27_2 C26_2 1_555 1_555
H13_2 C27_2 1_555 1_555
C28_2 C27_2 1_555 1_555
H14_2 C28_2 1_555 1_555
C29_2 C28_2 1_555 1_555
C30_2 C29_2 1_555 1_555
H15_2 C30_2 1_555 1_555
C31_2 C26_2 1_555 1_555
H16_2 C31_2 1_555 1_555
C32_2 C29_2 1_555 1_555
N15_2 C67_2 1_555 1_555
C67_2 H39_2 1_555 1_555
C71_2 N15_2 1_555 1_555
H41_2 C71_2 1_555 1_555
Zn8 O15 1_555 1_555
Zn10 O9_2 1_555 1_555
O12_2 C24_2 1_555 1_555
C21_2 C24_2 1_555 1_555
C22_2 C23_2 1_555 1_555
O16 Zn8 1_555 1_555
C30_2 C31_2 1_555 1_555
Zn10 N2 1_555 1_555
Zn5 O3_2 1_555 1_555
Zn2 O5_2 1_555 1_555
Zn10 O7_2 1_555 1_555
O1 C1_2 1_555 1_555
O2 C1_2 1_555 1_555
O3_2 C8_2 1_555 1_555
O4_2 Zn5 1_555 1_555
C1_2 C2_2 1_555 1_555
C2_2 C3_2 1_555 1_555
C3_2 H1_2 1_555 1_555
C4_2 C3_2 1_555 1_555
H2_2 C4_2 1_555 1_555
C5_2 C4_2 1_555 1_555
C6_2 C5_2 1_555 1_555
H3_2 C6_2 1_555 1_555
C7_2 C2_2 1_555 1_555
H4_2 C7_2 1_555 1_555
C8_2 O4_2 1_555 1_555
O5_2 C9_2 1_555 1_555
O6_2 Zn5 1_555 1_555
O7_2 C16_2 1_555 1_555
O8_2 Zn10 1_555 1_555
C9_2 O6_2 1_555 1_555
C10_2 C9_2 1_555 1_555
C11_2 C10_2 1_555 1_555
H5_2 C11_2 1_555 1_555
C12_2 C11_2 1_555 1_555
H6_2 C12_2 1_555 1_555
C13_2 C12_2 1_555 1_555
C14_2 C13_2 1_555 1_555
H7_2 C14_2 1_555 1_555
C15_2 C10_2 1_555 1_555
H8_2 C15_2 1_555 1_555
C16_2 O8_2 1_555 1_555
O14_2 Zn5 1_555 1_555
N1_2 C33_2 1_555 1_555
C33_2 H17_2 1_555 1_555
C34_2 C33_2 1_555 1_555
C35_2 C34_2 1_555 1_555
H18_2 C35_2 1_555 1_555
C36_2 C35_2 1_555 1_555
C37_2 N1_2 1_555 1_555
H19_2 C37_2 1_555 1_555
N3_2 H20_2 1_555 1_555
N4_2 C38_2 1_555 1_555
C38_2 C34_2 1_555 1_555
C39_2 N3_2 1_555 1_555
C40_2 N4_2 1_555 1_555
C41_2 C40_2 1_555 1_555
C42_2 C41_2 1_555 1_555
H22_2 C42_2 1_555 1_555
N5_2 Zn10 1_555 1_555
N6_2 C44_2 1_555 1_555
N7_2 H24_2 1_555 1_555
C44_2 C36_2 1_555 1_555
C45_2 N6_2 1_555 1_555
C46_2 N7_2 1_555 1_555
C47_2 C46_2 1_555 1_555
H25_2 C47_2 1_555 1_555
C48_2 N5_2 1_555 1_555
H26_2 C48_2 1_555 1_555
C49_2 N5_2 1_555 1_555
H27_2 C49_2 1_555 1_555
C69_2 C68_2 1_555 1_555
H40_2 C69_2 1_555 1_555
C70_2 C69_2 1_555 1_555
N16 C76_2 1_555 1_555
N17_2 H42_2 1_555 1_555
N18_2 C72_2 1_555 1_555
C72_2 C68_2 1_555 1_555
C73_2 N17_2 1_555 1_555
C74_2 N18_2 1_555 1_555
C75_2 C74_2 1_555 1_555
H43_2 C75_2 1_555 1_555
C76_2 C75_2 1_555 1_555
H44_2 C76_2 1_555 1_555
C77_2 N16 1_555 1_555
H45_2 C77_2 1_555 1_555
N19_2 Zn5 1_555 1_555
N20_2 C78_2 1_555 1_555
N21_2 H46_2 1_555 1_555
C78_2 C70_2 1_555 1_555
C79_2 N20_2 1_555 1_555
C80_2 N21_2 1_555 1_555
C81_2 C80_2 1_555 1_555
H47_2 C81_2 1_555 1_555
C82_2 N19_2 1_555 1_555
H48_2 C82_2 1_555 1_555
C83_2 N19_2 1_555 1_555
H49_2 C83_2 1_555 1_555
Zn8 O2 1_555 1_555
N30 Zn2 1_555 1_555
C5_2 C8_2 1_555 1_555
C6_2 C7_2 1_555 1_555
C13_2 C16_2 1_555 1_555
C14_2 C15_2 1_555 1_555
O14_2 C25_2 1_555 1_555
C36_2 C37_2 1_555 1_555
N3_2 C38_2 1_555 1_555
C39_2 C40_2 1_555 1_555
C39_2 C43_2 1_555 1_555
N7_2 C44_2 1_555 1_555
C45_2 C46_2 1_555 1_555
C45_2 C49_2 1_555 1_555
C47_2 C48_2 1_555 1_555
N17_2 C72_2 1_555 1_555
C73_2 C74_2 1_555 1_555
C73_2 C77_2 1_555 1_555
N21_2 C78_2 1_555 1_555
C79_2 C80_2 1_555 1_555
C79_2 C83_2 1_555 1_555
C81_2 C82_2 1_555 1_555
N8_2 C50_2 1_555 1_555
C50_2 H28_2 1_555 1_555
C51_2 C50_2 1_555 1_555
C52_2 C51_2 1_555 1_555
H29_2 C52_2 1_555 1_555
C53_2 C52_2 1_555 1_555
C54_2 N8_2 1_555 1_555
H30_2 C54_2 1_555 1_555
N10_2 C55_2 1_555 1_555
C55_2 C51_2 1_555 1_555
C56_2 N10_2 1_555 1_555
C57_2 N11_2 1_555 1_555
C60_2 N30 1_555 1_555
H34_2 C60_2 1_555 1_555
N13_2 H35_2 1_555 1_555
N14_2 C61_2 1_555 1_555
C61_2 C53_2 1_555 1_555
C62_2 N13_2 1_555 1_555
C63_2 N14_2 1_555 1_555
C66_2 N12_2 1_555 1_555
H38_2 C66_2 1_555 1_555
C53_2 C54_2 1_555 1_555
N11_2 C55_2 1_555 1_555
C56_2 C57_2 1_555 1_555
C56_2 C60_2 1_555 1_555
N13_2 C61_2 1_555 1_555
C62_2 C63_2 1_555 1_555
C62_2 C66_2 1_555 1_555
N26 C99_2 1_555 1_555
H59_2 C99_2 1_555 1_555
Zn8 N26 1_555 1_555
N22_2 C84_2 1_555 1_555
C84_2 H50_2 1_555 1_555
C85_2 C84_2 1_555 1_555
C86_2 C85_2 1_555 1_555
H51_2 C86_2 1_555 1_555
C87_2 C86_2 1_555 1_555
C88_2 N22_2 1_555 1_555
H52_2 C88_2 1_555 1_555
N23_2 Zn8 1_555 1_555
N24_2 C89_2 1_555 1_555
N25_2 H53_2 1_555 1_555
C89_2 C85_2 1_555 1_555
C90_2 N24_2 1_555 1_555
C91_2 N25_2 1_555 1_555
C92_2 C91_2 1_555 1_555
C93_2 N23_2 1_555 1_555
H55_2 C93_2 1_555 1_555
C94_2 N23_2 1_555 1_555
H56_2 C94_2 1_555 1_555
N27_2 H57_2 1_555 1_555
N28_2 C95_2 1_555 1_555
C95_2 C87_2 1_555 1_555
C96_2 N27_2 1_555 1_555
C97_2 N28_2 1_555 1_555
C98_2 C97_2 1_555 1_555
H58_2 C98_2 1_555 1_555
C87_2 C88_2 1_555 1_555
N25_2 C89_2 1_555 1_555
C90_2 C91_2 1_555 1_555
C90_2 C94_2 1_555 1_555
C92_2 C93_2 1_555 1_555
N27_2 C95_2 1_555 1_555
C96_2 C97_2 1_555 1_555
C96_2 C100_2 1_555 1_555
H32_2 C58_2 1_555 1_555
C59_2 C58_2 1_555 1_555
H33_2 C59_2 1_555 1_555
H36_2 C64_2 1_555 1_555
C64_2 C65_2 1_555 1_555

#END
