
###############################################################################
#
# This file contains modified crystal structure data generated from the
# MOF subset of the Cambridge Structural Database (CSD) v543 
# hosted by the Cambridge Crystallographic Data Centre (CCDC).
#
# This work is licensed under the Creative Commons
# Attribution-NonCommercial-ShareAlike 4.0 International License.
# To view a copy of this license, visit
# http://creativecommons.org/licenses/by-nc-sa/4.0/
# or send a letter to
# Creative Commons, PO Box 1866, Mountain View, CA 94042, USA.
#
# CIF created using the CSD Python API on 29 September 2022
# The structure has been converted into the P1 space group
# The structure has a 3D framework
# The original CSD entry RAXCOK is in the monoclinic crystal system
# The framework has been calculated to contain at least 10.0% void space
# The void calculation uses a probe of radius 1.32A, grid spacing 0.4
#
###############################################################################

data_RAXCOK
_chemical_formula_moiety         '(C120 H56 N16 O32 S4 Zn4)n'
_symmetry_cell_setting           triclinic
_symmetry_space_group_name_H-M   'P 1'
_symmetry_Int_Tables_number      1
_space_group_name_Hall           'P 1'
loop_
_symmetry_equiv_pos_site_id
_symmetry_equiv_pos_as_xyz
1 x,y,z
_cell_length_a                   17.615(5)
_cell_length_b                   16.644(5)
_cell_length_c                   19.660(5)
_cell_angle_alpha                90
_cell_angle_beta                 91.890(5)
_cell_angle_gamma                90
_cell_volume                     5760.86
loop_
_atom_site_label
_atom_site_type_symbol
_atom_site_fract_x
_atom_site_fract_y
_atom_site_fract_z
N2 N 0.07558(19) 0.10078(18) 0.16828(13)
N3 N 0.06355(15) 0.10083(16) 0.38133(12)
O7 O 0.0711(2) 0.23510(19) 0.16847(13)
C2 C 0.0923(2) 0.0291(2) 0.06121(15)
C4 C 0.1324(2) 0.0764(3) 0.28106(16)
H1 H 0.1775 0.0595 0.2612
C5 C 0.0854(2) 0.0276(2) 0.13607(16)
C9 C 0.0713(2) 0.1008(2) 0.24154(15)
C11 C 0.1261(2) 0.0770(2) 0.35054(15)
H4 H 0.1679 0.0598 0.3777
C12 C 0.0749(3) 0.1745(3) 0.13589(18)
C13 C 0.0070(2) 0.1265(3) 0.27122(16)
C16 C 0.0872(2) 0.1009(2) 0.02647(15)
C21 C 0.0045(2) 0.1247(2) 0.34159(15)
C25 C 0.0790(3) 0.1732(3) 0.06032(16)
C28 C 0.0737(3) 0.2435(3) 0.02573(19)
H13 H 0.0689 0.2922 0.0493
Zn4 Zn 0.060721(19) 0.10596(2) 0.489980(15)
N1 N 0.06878(16) 0.09881(16) 0.59876(13)
N4 N 0.08769(19) 0.10062(19) 0.81231(13)
C6 C 0.1443(2) 0.0860(3) 0.70090(18)
H2 H 0.1923 0.078 0.7221
C7 C 0.0822(2) 0.0984(2) 0.73809(15)
O8 O 0.0734(2) 0.23326(18) 0.81112(13)
C10 C 0.0996(2) 0.0294(2) 0.92047(15)
C15 C 0.0828(3) 0.1737(3) 0.91921(17)
C17 C 0.1012(2) 0.0279(3) 0.84528(15)
C18 C 0.0136(2) 0.1083(3) 0.70748(17)
C20 C 0.0811(3) 0.1739(3) 0.84414(17)
C23 C 0.0898(2) 0.1012(2) 0.95457(15)
C24 C 0.1351(2) 0.0853(3) 0.63138(17)
H10 H 0.1778 0.0748 0.6054
C27 C 0.0756(3) 0.2429(3) 0.95404(18)
H12 H 0.0717 0.2917 0.9301
C29 C 0.0085(2) 0.1090(3) 0.63736(16)
O10 O 0.19344(18) 0.15273(19) 0.48820(13)
O11 O 0.09132(16) 0.22616(17) 0.49181(12)
S1 S 0.19453(5) 0.78426(5) 0.51341(4)
O1 O 0.10250(13) 0.99325(14) 0.48907(11)
O2 O 0.05201(11) 0.87505(13) 0.51374(10)
O3 O 0.30656(18) 0.65273(19) 0.51180(13)
C1 C 0.18325(17) 0.88433(18) 0.50340(14)
O5 O 0.11211(18) 0.96822(18) 0.81332(12)
O6 O 0.40868(16) 0.72616(17) 0.50819(12)
C3 C 0.3388(2) 0.7186(3) 0.50908(15)
C8 C 0.3120(2) 0.8686(2) 0.49754(18)
H3 H 0.3627 0.8845 0.4929
C14 C 0.25086(19) 0.9219(2) 0.49552(17)
H6 H 0.2559 0.9776 0.4894
C19 C 0.1062(2) 0.9597(3) 0.95564(16)
H8 H 0.1149 0.9114 0.9323
C22 C 0.2905(2) 0.7914(2) 0.50683(16)
C30 C 0.10688(17) 0.9211(2) 0.50291(13)
Zn3 Zn 0.439279(19) 0.60596(2) 0.510020(15)
H7 H 0.97 0.1145 0.7333
H14 H 0.9606 0.117 0.6158
O9 O 0.94799(11) 0.12495(13) 0.48626(10)
Zn2 Zn 0.939279(19) 0.89404(2) 0.510020(15)
S1_2 S 0.30547(5) 0.28426(5) 0.48659(4)
O1_2 O 0.39750(13) 0.49325(14) 0.51093(11)
O2_2 O 0.44799(11) 0.37505(13) 0.48626(10)
C1_2 C 0.31675(17) 0.38433(18) 0.49660(14)
O5_2 O 0.38789(18) 0.46822(18) 0.18668(12)
N1_2 N 0.43122(16) 0.59881(16) 0.40124(13)
N4_2 N 0.41231(19) 0.60062(19) 0.18769(13)
C3_2 C 0.1612(2) 0.2186(3) 0.49092(15)
C6_2 C 0.3557(2) 0.5860(3) 0.29910(18)
H2_2 H 0.3077 0.578 0.2779
C7_2 C 0.4178(2) 0.5984(2) 0.26191(15)
C8_2 C 0.1880(2) 0.3686(2) 0.50246(18)
H3_2 H 0.1373 0.3845 0.5071
O8_2 O 0.4266(2) 0.73326(18) 0.18888(13)
C10_2 C 0.4004(2) 0.5294(2) 0.07953(15)
C14_2 C 0.24914(19) 0.4219(2) 0.50448(17)
H6_2 H 0.2441 0.4776 0.5106
C15_2 C 0.4172(3) 0.6737(3) 0.08079(17)
C17_2 C 0.3988(2) 0.5279(3) 0.15472(15)
C18_2 C 0.4864(2) 0.6083(3) 0.29252(17)
H7_2 H 0.53 0.6145 0.2667
C19_2 C 0.3938(2) 0.4597(3) 0.04436(16)
H8_2 H 0.3851 0.4114 0.0677
C20_2 C 0.4189(3) 0.6739(3) 0.15586(17)
C22_2 C 0.2095(2) 0.2914(2) 0.49317(16)
C23_2 C 0.4102(2) 0.6012(2) 0.04543(15)
C24_2 C 0.3649(2) 0.5853(3) 0.36862(17)
H10_2 H 0.3222 0.5748 0.3946
C27_2 C 0.4244(3) 0.7429(3) 0.04596(18)
H12_2 H 0.4283 0.7917 0.0699
C29_2 C 0.4915(2) 0.6090(3) 0.36264(16)
H14_2 H 0.5394 0.617 0.3842
C30_2 C 0.39312(17) 0.4211(2) 0.49709(13)
Zn2_2 Zn 0.560721(19) 0.39404(2) 0.489980(15)
O9_2 O 0.55201(11) 0.62495(13) 0.51374(10)
N5 N 0.43645(15) 0.60083(16) 0.61867(12)
O4 O 0.41605(18) 0.46597(17) 0.83161(12)
N2_2 N 0.42442(19) 0.60078(18) 0.83172(13)
O7_2 O 0.4289(2) 0.73510(19) 0.83153(13)
C2_2 C 0.4077(2) 0.5291(2) 0.93879(15)
C4_2 C 0.3676(2) 0.5764(3) 0.71894(16)
H1_2 H 0.3225 0.5595 0.7388
C5_2 C 0.4146(2) 0.5276(2) 0.86393(16)
C9_2 C 0.4287(2) 0.6008(2) 0.75846(15)
C11_2 C 0.3739(2) 0.5770(2) 0.64946(15)
H4_2 H 0.3321 0.5598 0.6223
C12_2 C 0.4251(3) 0.6745(3) 0.86411(18)
C13_2 C 0.4930(2) 0.6265(3) 0.72878(16)
H5 H 0.5347 0.645 0.7554
C16_2 C 0.4128(2) 0.6009(2) 0.97353(15)
C21_2 C 0.4955(2) 0.6247(2) 0.65841(15)
H9 H 0.5404 0.6409 0.6377
C25_2 C 0.4210(3) 0.6732(3) 0.93968(16)
C26 C 0.3998(2) 0.4588(3) 0.97336(16)
H11 H 0.3984 0.4097 0.9497
C28_2 C 0.4263(3) 0.7435(3) 0.97427(19)
H13_2 H 0.4311 0.7922 0.9507
H7_3 H 0.03 0.8855 0.2667
H14_3 H 0.0394 0.883 0.3842
S1_3 S 0.80547(5) 0.21574(5) 0.48659(4)
O1_3 O 0.89750(13) 0.00675(14) 0.51093(11)
O3_2 O 0.69344(18) 0.34727(19) 0.48820(13)
C1_3 C 0.81675(17) 0.11567(18) 0.49660(14)
O5_3 O 0.88789(18) 0.03178(18) 0.18668(12)
O6_2 O 0.59132(16) 0.27384(17) 0.49181(12)
C3_3 C 0.6612(2) 0.2814(3) 0.49092(15)
C8_3 C 0.6880(2) 0.1314(2) 0.50246(18)
H3_3 H 0.6373 0.1155 0.5071
C14_3 C 0.74914(19) 0.0781(2) 0.50448(17)
H6_3 H 0.7441 0.0224 0.5106
C19_3 C 0.8938(2) 0.0403(3) 0.04436(16)
H8_3 H 0.8851 0.0886 0.0677
C22_3 C 0.7095(2) 0.2086(2) 0.49317(16)
C30_3 C 0.89312(17) 0.0789(2) 0.49709(13)
N1_3 N 0.93122(16) 0.90119(16) 0.40124(13)
N4_3 N 0.91231(19) 0.89938(19) 0.18769(13)
C6_3 C 0.8557(2) 0.9140(3) 0.29910(18)
H2_3 H 0.8077 0.922 0.2779
C7_3 C 0.9178(2) 0.9016(2) 0.26191(15)
O8_3 O 0.9266(2) 0.76674(18) 0.18888(13)
C10_3 C 0.9004(2) 0.9706(2) 0.07953(15)
C15_3 C 0.9172(3) 0.8263(3) 0.08079(17)
C17_3 C 0.8988(2) 0.9721(3) 0.15472(15)
C18_3 C 0.9864(2) 0.8917(3) 0.29252(17)
C20_3 C 0.9189(3) 0.8261(3) 0.15586(17)
C23_3 C 0.9102(2) 0.8988(2) 0.04543(15)
C24_3 C 0.8649(2) 0.9147(3) 0.36862(17)
H10_3 H 0.8222 0.9252 0.3946
C27_3 C 0.9244(3) 0.7571(3) 0.04596(18)
H12_3 H 0.9283 0.7083 0.0699
C29_3 C 0.9915(2) 0.8910(3) 0.36264(16)
O10_2 O 0.80656(18) 0.84727(19) 0.51180(13)
O11_2 O 0.90868(16) 0.77384(17) 0.50819(12)
N5_2 N 0.93645(15) 0.89917(16) 0.61867(12)
N2_3 N 0.92442(19) 0.89922(18) 0.83172(13)
O7_3 O 0.9289(2) 0.76490(19) 0.83153(13)
C2_3 C 0.9077(2) 0.9709(2) 0.93879(15)
C4_3 C 0.8676(2) 0.9236(3) 0.71894(16)
H1_3 H 0.8225 0.9405 0.7388
C5_3 C 0.9146(2) 0.9724(2) 0.86393(16)
C9_3 C 0.9287(2) 0.8992(2) 0.75846(15)
C11_3 C 0.8739(2) 0.9230(2) 0.64946(15)
H4_3 H 0.8321 0.9402 0.6223
C12_3 C 0.9251(3) 0.8255(3) 0.86411(18)
C13_3 C 0.9930(2) 0.8735(3) 0.72878(16)
C16_3 C 0.9128(2) 0.8991(2) 0.97353(15)
C21_3 C 0.9955(2) 0.8753(2) 0.65841(15)
C25_3 C 0.9210(3) 0.8268(3) 0.93968(16)
C28_3 C 0.9263(3) 0.7565(3) 0.97427(19)
H13_3 H 0.9311 0.7078 0.9507
O4_2 O 0.58395(18) 0.53403(17) 0.16839(12)
N2_4 N 0.57558(19) 0.39922(18) 0.16828(13)
N3_2 N 0.56355(15) 0.39917(16) 0.38133(12)
O7_4 O 0.5711(2) 0.26490(19) 0.16847(13)
C2_4 C 0.5923(2) 0.4709(2) 0.06121(15)
C4_4 C 0.6324(2) 0.4236(3) 0.28106(16)
H1_4 H 0.6775 0.4405 0.2612
C5_4 C 0.5854(2) 0.4724(2) 0.13607(16)
C9_4 C 0.5713(2) 0.3992(2) 0.24154(15)
C11_4 C 0.6261(2) 0.4230(2) 0.35054(15)
H4_4 H 0.6679 0.4402 0.3777
C12_4 C 0.5749(3) 0.3255(3) 0.13589(18)
C13_4 C 0.5070(2) 0.3735(3) 0.27122(16)
H5_2 H 0.4653 0.355 0.2446
C16_4 C 0.5872(2) 0.3991(2) 0.02647(15)
C21_4 C 0.5045(2) 0.3753(2) 0.34159(15)
H9_2 H 0.4596 0.3591 0.3623
C25_4 C 0.5790(3) 0.3268(3) 0.06032(16)
C26_2 C 0.6002(2) 0.5412(3) 0.02664(16)
H11_2 H 0.6016 0.5903 0.0503
C28_4 C 0.5737(3) 0.2565(3) 0.02573(19)
H13_4 H 0.5689 0.2078 0.0493
S1_4 S 0.69453(5) 0.71574(5) 0.51341(4)
O1_4 O 0.60250(13) 0.50675(14) 0.48907(11)
C1_4 C 0.68325(17) 0.61567(18) 0.50340(14)
O5_4 O 0.61211(18) 0.53178(18) 0.81332(12)
N1_4 N 0.56878(16) 0.40119(16) 0.59876(13)
N4_4 N 0.58769(19) 0.39938(19) 0.81231(13)
C3_4 C 0.8388(2) 0.7814(3) 0.50908(15)
C6_4 C 0.6443(2) 0.4140(3) 0.70090(18)
H2_4 H 0.6923 0.422 0.7221
C7_4 C 0.5822(2) 0.4016(2) 0.73809(15)
C8_4 C 0.8120(2) 0.6314(2) 0.49754(18)
H3_4 H 0.8627 0.6155 0.4929
O8_4 O 0.5734(2) 0.26674(18) 0.81112(13)
C10_4 C 0.5996(2) 0.4706(2) 0.92047(15)
C14_4 C 0.75086(19) 0.5781(2) 0.49552(17)
H6_4 H 0.7559 0.5224 0.4894
C15_4 C 0.5828(3) 0.3263(3) 0.91921(17)
C17_4 C 0.6012(2) 0.4721(3) 0.84528(15)
C18_4 C 0.5136(2) 0.3917(3) 0.70748(17)
H7_4 H 0.47 0.3855 0.7333
C19_4 C 0.6062(2) 0.5403(3) 0.95564(16)
H8_4 H 0.6149 0.5886 0.9323
C20_4 C 0.5811(3) 0.3261(3) 0.84414(17)
C22_4 C 0.7905(2) 0.7086(2) 0.50683(16)
C23_4 C 0.5898(2) 0.3988(2) 0.95457(15)
C24_4 C 0.6351(2) 0.4147(3) 0.63138(17)
H10_4 H 0.6778 0.4252 0.6054
C27_4 C 0.5756(3) 0.2571(3) 0.95404(18)
H12_4 H 0.5717 0.2083 0.9301
C29_4 C 0.5085(2) 0.3910(3) 0.63736(16)
H14_4 H 0.4606 0.383 0.6158
C30_4 C 0.60688(17) 0.5789(2) 0.50291(13)
O4_3 O 0.08395(18) 0.96597(17) 0.16839(12)
C26_3 C 0.1002(2) 0.9588(3) 0.02664(16)
H11_3 H 0.1016 0.9097 0.0503
H5_3 H 0.9653 0.145 0.2446
H9_3 H 0.9596 0.1409 0.3623
H5_4 H 0.0347 0.855 0.7554
H9_4 H 0.0404 0.8591 0.6377
O4_4 O 0.91605(18) 0.03403(17) 0.83161(12)
C26_4 C 0.8998(2) 0.0412(3) 0.97336(16)
H11_4 H 0.8984 0.0903 0.9497
loop_
_geom_bond_atom_site_label_1
_geom_bond_atom_site_label_2
_geom_bond_site_symmetry_1
_geom_bond_site_symmetry_2
N2 C5 1_555 1_555
N3 C11 1_555 1_555
O7 C12 1_555 1_555
C2 C5 1_555 1_555
C4 H1 1_555 1_555
C9 N2 1_555 1_555
C11 C4 1_555 1_555
H4 C11 1_555 1_555
C12 N2 1_555 1_555
C13 C9 1_555 1_555
C16 C2 1_555 1_555
C21 N3 1_555 1_555
C25 C12 1_555 1_555
C28 C25 1_555 1_555
H13 C28 1_555 1_555
Zn4 N3 1_555 1_555
C4 C9 1_555 1_555
C13 C21 1_555 1_555
C16 C25 1_555 1_555
N1 Zn4 1_555 1_555
N4 C7 1_555 1_555
C6 H2 1_555 1_555
C7 C6 1_555 1_555
O8 C20 1_555 1_555
C10 C17 1_555 1_555
C15 C20 1_555 1_555
C17 N4 1_555 1_555
C18 C7 1_555 1_555
C20 N4 1_555 1_555
C23 C10 1_555 1_555
C24 N1 1_555 1_555
H10 C24 1_555 1_555
C27 C15 1_555 1_555
H12 C27 1_555 1_555
C29 N1 1_555 1_555
O10 Zn4 1_555 1_555
O11 Zn4 1_555 1_555
C6 C24 1_555 1_555
C15 C23 1_555 1_555
C18 C29 1_555 1_555
S1 C1 1_555 1_555
O1 C30 1_555 1_555
O2 C30 1_555 1_555
O3 C3 1_555 1_555
C1 C14 1_555 1_555
O6 C3 1_555 1_555
C3 C22 1_555 1_555
C8 H3 1_555 1_555
C14 C8 1_555 1_555
H6 C14 1_555 1_555
H8 C19 1_555 1_555
C22 S1 1_555 1_555
C30 C1 1_555 1_555
Zn3 O3 1_555 1_555
O6 Zn3 1_555 1_555
C8 C22 1_555 1_555
Zn3 O1_2 1_555 1_555
S1_2 C1_2 1_555 1_555
O1_2 C30_2 1_555 1_555
O2_2 C30_2 1_555 1_555
O10 C3_2 1_555 1_555
C1_2 C14_2 1_555 1_555
O5_2 C17_2 1_555 1_555
O11 C3_2 1_555 1_555
N1_2 Zn3 1_555 1_555
N4_2 C7_2 1_555 1_555
C3_2 C22_2 1_555 1_555
C6_2 H2_2 1_555 1_555
C7_2 C6_2 1_555 1_555
C8_2 H3_2 1_555 1_555
O8_2 C20_2 1_555 1_555
C10_2 C17_2 1_555 1_555
C14_2 C8_2 1_555 1_555
H6_2 C14_2 1_555 1_555
C15_2 C20_2 1_555 1_555
C17_2 N4_2 1_555 1_555
C18_2 C7_2 1_555 1_555
H7_2 C18_2 1_555 1_555
C19_2 C10_2 1_555 1_555
H8_2 C19_2 1_555 1_555
C20_2 N4_2 1_555 1_555
C22_2 S1_2 1_555 1_555
C23_2 C10_2 1_555 1_555
C24_2 N1_2 1_555 1_555
H10_2 C24_2 1_555 1_555
C27_2 C15_2 1_555 1_555
H12_2 C27_2 1_555 1_555
C29_2 N1_2 1_555 1_555
H14_2 C29_2 1_555 1_555
C30_2 C1_2 1_555 1_555
Zn2_2 O2_2 1_555 1_555
O9_2 Zn3 1_555 1_555
N5 Zn3 1_555 1_555
C6_2 C24_2 1_555 1_555
C8_2 C22_2 1_555 1_555
C15_2 C23_2 1_555 1_555
C18_2 C29_2 1_555 1_555
O4 C5_2 1_555 1_555
N2_2 C5_2 1_555 1_555
N5 C11_2 1_555 1_555
O7_2 C12_2 1_555 1_555
C2_2 C5_2 1_555 1_555
C4_2 H1_2 1_555 1_555
C9_2 N2_2 1_555 1_555
C11_2 C4_2 1_555 1_555
H4_2 C11_2 1_555 1_555
C12_2 N2_2 1_555 1_555
C13_2 C9_2 1_555 1_555
H5 C13_2 1_555 1_555
C16_2 C2_2 1_555 1_555
C21_2 N5 1_555 1_555
H9 C21_2 1_555 1_555
C25_2 C12_2 1_555 1_555
C26 C2_2 1_555 1_555
H11 C26 1_555 1_555
C28_2 C25_2 1_555 1_555
H13_2 C28_2 1_555 1_555
C4_2 C9_2 1_555 1_555
C13_2 C21_2 1_555 1_555
C16_2 C25_2 1_555 1_555
S1_3 C1_3 1_555 1_555
O1_3 C30_3 1_555 1_555
O9 C30_3 1_555 1_555
O3_2 C3_3 1_555 1_555
C1_3 C14_3 1_555 1_555
O6_2 C3_3 1_555 1_555
C3_3 C22_3 1_555 1_555
C8_3 H3_3 1_555 1_555
C14_3 C8_3 1_555 1_555
H6_3 C14_3 1_555 1_555
H8_3 C19_3 1_555 1_555
C22_3 S1_3 1_555 1_555
C30_3 C1_3 1_555 1_555
Zn2_2 O3_2 1_555 1_555
O6_2 Zn2_2 1_555 1_555
C8_3 C22_3 1_555 1_555
N1_3 Zn2 1_555 1_555
N4_3 C7_3 1_555 1_555
C6_3 H2_3 1_555 1_555
C7_3 C6_3 1_555 1_555
O8_3 C20_3 1_555 1_555
C10_3 C17_3 1_555 1_555
C15_3 C20_3 1_555 1_555
C17_3 N4_3 1_555 1_555
C18_3 C7_3 1_555 1_555
C20_3 N4_3 1_555 1_555
C23_3 C10_3 1_555 1_555
C24_3 N1_3 1_555 1_555
H10_3 C24_3 1_555 1_555
C27_3 C15_3 1_555 1_555
H12_3 C27_3 1_555 1_555
C29_3 N1_3 1_555 1_555
O10_2 Zn2 1_555 1_555
O11_2 Zn2 1_555 1_555
N5_2 Zn2 1_555 1_555
C6_3 C24_3 1_555 1_555
C15_3 C23_3 1_555 1_555
C18_3 C29_3 1_555 1_555
N2_3 C5_3 1_555 1_555
N5_2 C11_3 1_555 1_555
O7_3 C12_3 1_555 1_555
C2_3 C5_3 1_555 1_555
C4_3 H1_3 1_555 1_555
C9_3 N2_3 1_555 1_555
C11_3 C4_3 1_555 1_555
H4_3 C11_3 1_555 1_555
C12_3 N2_3 1_555 1_555
C13_3 C9_3 1_555 1_555
C16_3 C2_3 1_555 1_555
C21_3 N5_2 1_555 1_555
C25_3 C12_3 1_555 1_555
C28_3 C25_3 1_555 1_555
H13_3 C28_3 1_555 1_555
C4_3 C9_3 1_555 1_555
C13_3 C21_3 1_555 1_555
C16_3 C25_3 1_555 1_555
O4_2 C5_4 1_555 1_555
N2_4 C5_4 1_555 1_555
N3_2 C11_4 1_555 1_555
O7_4 C12_4 1_555 1_555
C2_4 C5_4 1_555 1_555
C4_4 H1_4 1_555 1_555
C9_4 N2_4 1_555 1_555
C11_4 C4_4 1_555 1_555
H4_4 C11_4 1_555 1_555
C12_4 N2_4 1_555 1_555
C13_4 C9_4 1_555 1_555
H5_2 C13_4 1_555 1_555
C16_4 C2_4 1_555 1_555
C21_4 N3_2 1_555 1_555
H9_2 C21_4 1_555 1_555
C25_4 C12_4 1_555 1_555
C26_2 C2_4 1_555 1_555
H11_2 C26_2 1_555 1_555
C28_4 C25_4 1_555 1_555
H13_4 C28_4 1_555 1_555
Zn2_2 N3_2 1_555 1_555
C4_4 C9_4 1_555 1_555
C13_4 C21_4 1_555 1_555
C16_4 C25_4 1_555 1_555
Zn2_2 O1_4 1_555 1_555
S1_4 C1_4 1_555 1_555
O1_4 C30_4 1_555 1_555
O9_2 C30_4 1_555 1_555
O10_2 C3_4 1_555 1_555
C1_4 C14_4 1_555 1_555
O5_4 C17_4 1_555 1_555
O11_2 C3_4 1_555 1_555
N1_4 Zn2_2 1_555 1_555
N4_4 C7_4 1_555 1_555
C3_4 C22_4 1_555 1_555
C6_4 H2_4 1_555 1_555
C7_4 C6_4 1_555 1_555
C8_4 H3_4 1_555 1_555
O8_4 C20_4 1_555 1_555
C10_4 C17_4 1_555 1_555
C14_4 C8_4 1_555 1_555
H6_4 C14_4 1_555 1_555
C15_4 C20_4 1_555 1_555
C17_4 N4_4 1_555 1_555
C18_4 C7_4 1_555 1_555
H7_4 C18_4 1_555 1_555
C19_4 C10_4 1_555 1_555
H8_4 C19_4 1_555 1_555
C20_4 N4_4 1_555 1_555
C22_4 S1_4 1_555 1_555
C23_4 C10_4 1_555 1_555
C24_4 N1_4 1_555 1_555
H10_4 C24_4 1_555 1_555
C27_4 C15_4 1_555 1_555
H12_4 C27_4 1_555 1_555
C29_4 N1_4 1_555 1_555
H14_4 C29_4 1_555 1_555
C30_4 C1_4 1_555 1_555
C6_4 C24_4 1_555 1_555
C8_4 C22_4 1_555 1_555
C15_4 C23_4 1_555 1_555
C18_4 C29_4 1_555 1_555
H11_3 C26_3 1_555 1_555
H11_4 C26_4 1_555 1_555

#END
