
###############################################################################
#
# This file contains modified crystal structure data generated from the
# MOF subset of the Cambridge Structural Database (CSD) v543 
# hosted by the Cambridge Crystallographic Data Centre (CCDC).
#
# This work is licensed under the Creative Commons
# Attribution-NonCommercial-ShareAlike 4.0 International License.
# To view a copy of this license, visit
# http://creativecommons.org/licenses/by-nc-sa/4.0/
# or send a letter to
# Creative Commons, PO Box 1866, Mountain View, CA 94042, USA.
#
# CIF created using the CSD Python API on 29 September 2022
# The structure has been converted into the P1 space group
# The structure has a 3D framework
# The original CSD entry RAXCAW is in the monoclinic crystal system
# The framework has been calculated to contain at least 10.0% void space
# The void calculation uses a probe of radius 1.32A, grid spacing 0.4
# The framework is charged, counterions have been retained in the structure
# H atom positions have been added when not included in the experimental data
# Generated hydrogen atom positions removed from atoms on special positions
#
###############################################################################

data_RAXCAW
_chemical_formula_moiety         '(C64 H112 N6 O56 P8 Zn8 14+)n'
_symmetry_cell_setting           triclinic
_symmetry_space_group_name_H-M   'P 1'
_symmetry_Int_Tables_number      1
_space_group_name_Hall           'P 1'
loop_
_symmetry_equiv_pos_site_id
_symmetry_equiv_pos_as_xyz
1 x,y,z
_cell_length_a                   17.804(6)
_cell_length_b                   19.340(12)
_cell_length_c                   10.242(7)
_cell_angle_alpha                90
_cell_angle_beta                 119.51(5)
_cell_angle_gamma                90
_cell_volume                     3069.11
loop_
_atom_site_label
_atom_site_type_symbol
_atom_site_fract_x
_atom_site_fract_y
_atom_site_fract_z
Zn1 Zn 0.61068(4) 0.55091(3) 0.47772(7)
P1 P 0.40667(9) 0.57122(6) 0.34552(16)
O1 O 0.5006(2) 0.58139(19) 0.4573(5)
O2 O 0.3915(3) 0.53038(19) 0.2081(5)
O3 O 0.3584(3) 0.53791(19) 0.4175(5)
O4 O 0.3031(4) 0.9092(3) 0.1356(8)
O5 O 0.1759(3) 0.8672(2) 0.0854(6)
C1 C 0.3626(3) 0.6576(2) 0.2892(6)
C2 C 0.4154(4) 0.7136(3) 0.3126(9)
H1 H 0.4750 0.7077 0.3637
C3 C 0.3804(4) 0.7804(3) 0.2597(8)
H2 H 0.4167 0.8174 0.2718
C4 C 0.2940(4) 0.7900(3) 0.1916(7)
C5 C 0.2410(4) 0.7355(3) 0.1706(8)
H3 H 0.1817 0.7426 0.1242
C6 C 0.2748(4) 0.6682(3) 0.2184(8)
H4 H 0.2377 0.6312 0.2019
C7 C 0.2563(5) 0.8616(3) 0.1352(8)
Zn2 Zn 0.38932(4) 0.55091(3) 0.02228(7)
Zn3 Zn 0.38932(4) 0.44909(3) 0.52228(7)
Zn6 Zn 0.88932(4) 0.94909(3) 0.52228(7)
P2 P 0.59333(9) 0.57122(6) 0.15448(16)
O6 O 0.4994(2) 0.58139(19) 0.0427(5)
O7 O 0.6085(3) 0.53038(19) 0.2919(5)
O8 O 0.6416(3) 0.53791(19) 0.0825(5)
O9 O 0.6416(3) 0.46209(19) 0.5825(5)
O11 O 0.6969(4) 0.9092(3) 0.3644(8)
O12 O 0.8241(3) 0.8672(2) 0.4146(6)
O13 O 0.6759(3) 0.6328(2) 0.5854(6)
C8 C 0.6374(3) 0.6576(2) 0.2108(6)
C9 C 0.5846(4) 0.7136(3) 0.1874(9)
H5 H 0.5250 0.7077 0.1363
C10 C 0.6196(4) 0.7804(3) 0.2403(8)
H6 H 0.5833 0.8174 0.2282
C11 C 0.7060(4) 0.7900(3) 0.3084(7)
C12 C 0.7590(4) 0.7355(3) 0.3294(8)
H7 H 0.8183 0.7426 0.3758
C13 C 0.7252(4) 0.6682(3) 0.2816(8)
H8 H 0.7623 0.6312 0.2981
C14 C 0.7437(5) 0.8616(3) 0.3648(8)
Zn4 Zn 0.11068(4) 0.94909(3) 0.97772(7)
Zn5 Zn 0.61068(4) 0.44909(3) 0.97772(7)
O10 O 0.3584(3) 0.46209(19) 0.9175(5)
O14 O 0.3241(3) 0.6328(2) 0.9146(6)
Zn1_2 Zn 0.11068(4) 0.05091(3) 0.47772(7)
O1_2 O 0.0006(2) 0.08139(19) 0.4573(5)
P2_2 P 0.09333(9) 0.07122(6) 0.15448(16)
O7_2 O 0.1085(3) 0.03038(19) 0.2919(5)
O8_2 O 0.1416(3) 0.03791(19) 0.0825(5)
O11_2 O 0.1969(4) 0.4092(3) 0.3644(8)
O12_2 O 0.3241(3) 0.3672(2) 0.4146(6)
O13_2 O 0.1759(3) 0.1328(2) 0.5854(6)
C8_2 C 0.1374(3) 0.1576(2) 0.2108(6)
C9_2 C 0.0846(4) 0.2136(3) 0.1874(9)
H5_2 H 0.0250 0.2077 0.1363
C10_2 C 0.1196(4) 0.2804(3) 0.2403(8)
H6_2 H 0.0833 0.3174 0.2282
C11_2 C 0.2060(4) 0.2900(3) 0.3084(7)
C12_2 C 0.2590(4) 0.2355(3) 0.3294(8)
H7_2 H 0.3183 0.2426 0.3758
C13_2 C 0.2252(4) 0.1682(3) 0.2816(8)
H8_2 H 0.2623 0.1312 0.2981
C14_2 C 0.2437(5) 0.3616(3) 0.3648(8)
O9_2 O 0.1416(3) 0.96209(19) 0.5825(5)
P1_2 P 0.90667(9) 0.07122(6) 0.34552(16)
O2_2 O 0.8915(3) 0.03038(19) 0.2081(5)
O3_2 O 0.8584(3) 0.03791(19) 0.4175(5)
O4_2 O 0.8031(4) 0.4092(3) 0.1356(8)
O5_2 O 0.6759(3) 0.3672(2) 0.0854(6)
C1_2 C 0.8626(3) 0.1576(2) 0.2892(6)
C2_2 C 0.9154(4) 0.2136(3) 0.3126(9)
H1_2 H 0.9750 0.2077 0.3637
C3_2 C 0.8804(4) 0.2804(3) 0.2597(8)
H2_2 H 0.9167 0.3174 0.2718
C4_2 C 0.7940(4) 0.2900(3) 0.1916(7)
C5_2 C 0.7410(4) 0.2355(3) 0.1706(8)
H3_2 H 0.6817 0.2426 0.1242
C6_2 C 0.7748(4) 0.1682(3) 0.2184(8)
H4_2 H 0.7377 0.1312 0.2019
C7_2 C 0.7563(5) 0.3616(3) 0.1352(8)
Zn2_2 Zn 0.88932(4) 0.05091(3) 0.02228(7)
O6_2 O 0.9994(2) 0.08139(19) 0.0427(5)
O14_2 O 0.8241(3) 0.1328(2) 0.9146(6)
O10_2 O 0.8584(3) 0.96209(19) 0.9175(5)
P1_3 P 0.59333(9) 0.42878(6) 0.65448(16)
O1_3 O 0.4994(2) 0.41861(19) 0.5427(5)
O2_3 O 0.6085(3) 0.46962(19) 0.7919(5)
O4_3 O 0.6969(4) 0.0908(3) 0.8644(8)
C1_3 C 0.6374(3) 0.3424(2) 0.7108(6)
C2_3 C 0.5846(4) 0.2864(3) 0.6874(9)
H1_3 H 0.5250 0.2923 0.6363
C3_3 C 0.6196(4) 0.2196(3) 0.7403(8)
H2_3 H 0.5833 0.1826 0.7282
C4_3 C 0.7060(4) 0.2100(3) 0.8084(7)
C5_3 C 0.7590(4) 0.2645(3) 0.8294(8)
H3_3 H 0.8183 0.2574 0.8758
C6_3 C 0.7252(4) 0.3318(3) 0.7816(8)
H4_3 H 0.7623 0.3688 0.7981
C7_3 C 0.7437(5) 0.1384(3) 0.8648(8)
P2_3 P 0.40667(9) 0.42878(6) 0.84552(16)
O6_3 O 0.5006(2) 0.41861(19) 0.9573(5)
O7_3 O 0.3915(3) 0.46962(19) 0.7081(5)
O11_3 O 0.3031(4) 0.0908(3) 0.6356(8)
C8_3 C 0.3626(3) 0.3424(2) 0.7892(6)
C9_3 C 0.4154(4) 0.2864(3) 0.8126(9)
H5_3 H 0.4750 0.2923 0.8637
C10_3 C 0.3804(4) 0.2196(3) 0.7597(8)
H6_3 H 0.4167 0.1826 0.7718
C11_3 C 0.2940(4) 0.2100(3) 0.6916(7)
C12_3 C 0.2410(4) 0.2645(3) 0.6706(8)
H7_3 H 0.1817 0.2574 0.6242
C13_3 C 0.2748(4) 0.3318(3) 0.7184(8)
H8_3 H 0.2377 0.3688 0.7019
C14_3 C 0.2563(5) 0.1384(3) 0.6352(8)
P1_4 P 0.09333(9) 0.92878(6) 0.65448(16)
O2_4 O 0.1085(3) 0.96962(19) 0.7919(5)
O4_4 O 0.1969(4) 0.5908(3) 0.8644(8)
C1_4 C 0.1374(3) 0.8424(2) 0.7108(6)
C2_4 C 0.0846(4) 0.7864(3) 0.6874(9)
H1_4 H 0.0250 0.7923 0.6363
C3_4 C 0.1196(4) 0.7196(3) 0.7403(8)
H2_4 H 0.0833 0.6826 0.7282
C4_4 C 0.2060(4) 0.7100(3) 0.8084(7)
C5_4 C 0.2590(4) 0.7645(3) 0.8294(8)
H3_4 H 0.3183 0.7574 0.8758
C6_4 C 0.2252(4) 0.8318(3) 0.7816(8)
H4_4 H 0.2623 0.8688 0.7981
C7_4 C 0.2437(5) 0.6384(3) 0.8648(8)
O6_4 O 0.0006(2) 0.91861(19) 0.9573(5)
O1_4 O 0.9994(2) 0.91861(19) 0.5427(5)
P2_4 P 0.90667(9) 0.92878(6) 0.84552(16)
O7_4 O 0.8915(3) 0.96962(19) 0.7081(5)
O11_4 O 0.8031(4) 0.5908(3) 0.6356(8)
C8_4 C 0.8626(3) 0.8424(2) 0.7892(6)
C9_4 C 0.9154(4) 0.7864(3) 0.8126(9)
H5_4 H 0.9750 0.7923 0.8637
C10_4 C 0.8804(4) 0.7196(3) 0.7597(8)
H6_4 H 0.9167 0.6826 0.7718
C11_4 C 0.7940(4) 0.7100(3) 0.6916(7)
C12_4 C 0.7410(4) 0.7645(3) 0.6706(8)
H7_4 H 0.6817 0.7574 0.6242
C13_4 C 0.7748(4) 0.8318(3) 0.7184(8)
H8_4 H 0.7377 0.8688 0.7019
C14_4 C 0.7563(5) 0.6384(3) 0.6352(8)
C15 C 0.5835(10) 0.6528(10) 0.7996(17)
H9 H 0.6279 0.6188 0.8252
H10 H 0.5973 0.6809 0.8858
H11 H 0.5796 0.6815 0.7199
N1 N 0.5000 0.6177(9) 0.7500
H12 H 0.4920 0.5898 0.6739
C16 C 0.4165(10) 0.6528(10) 0.7004(17)
H13 H 0.3721 0.6188 0.6748
H14 H 0.4027 0.6809 0.6142
H15 H 0.4204 0.6815 0.7801
H16 H 0.5080 0.5898 0.8261
C15_2 C 0.0835(10) 0.1528(10) 0.7996(17)
H9_2 H 0.1279 0.1188 0.8252
H10_2 H 0.0973 0.1809 0.8858
H11_2 H 0.0796 0.1815 0.7199
N1_2 N -0.0000 0.1177(9) 0.7500
H16_2 H 0.0080 0.0898 0.8261
N1_3 N 1.0000 0.1177(9) 0.7500
H12_2 H 0.9920 0.0898 0.6739
C16_2 C 0.9165(10) 0.1528(10) 0.7004(17)
H13_2 H 0.8721 0.1188 0.6748
H14_2 H 0.9027 0.1809 0.6142
H15_2 H 0.9204 0.1815 0.7801
C15_3 C 0.4165(10) 0.3472(10) 0.2004(17)
H9_3 H 0.3721 0.3812 0.1748
H10_3 H 0.4027 0.3191 0.1142
H11_3 H 0.4204 0.3185 0.2801
N1_4 N 0.5000 0.3823(9) 0.2500
H12_3 H 0.5080 0.4102 0.3261
C16_3 C 0.5835(10) 0.3472(10) 0.2996(17)
H13_3 H 0.6279 0.3812 0.3252
H14_3 H 0.5973 0.3191 0.3858
H15_3 H 0.5796 0.3185 0.2199
H16_3 H 0.4920 0.4102 0.1739
N1_5 N 0.0000 0.8823(9) 0.2500
H12_4 H 0.0080 0.9102 0.3261
C16_4 C 0.0835(10) 0.8472(10) 0.2996(17)
H13_4 H 0.1279 0.8812 0.3252
H14_4 H 0.0973 0.8191 0.3858
H15_4 H 0.0796 0.8185 0.2199
C15_4 C 0.9165(10) 0.8472(10) 0.2004(17)
H9_4 H 0.8721 0.8812 0.1748
H10_4 H 0.9027 0.8191 0.1142
H11_4 H 0.9204 0.8185 0.2801
N1_6 N 1.0000 0.8823(9) 0.2500
H16_4 H 0.9920 0.9102 0.1739
O15 O 0.9430(17) 0.5901(14) 0.570(4)
O15_2 O 0.0570(17) 0.5901(14) 0.930(4)
O15_3 O 0.4430(17) 0.0901(14) 0.570(4)
O15_4 O 0.5570(17) 0.0901(14) 0.930(4)
O15_5 O 0.0570(17) 0.4099(14) 0.430(4)
O15_6 O 0.9430(17) 0.4099(14) 0.070(4)
O15_7 O 0.5570(17) 0.9099(14) 0.430(4)
O15_8 O 0.4430(17) 0.9099(14) 0.070(4)
O16 O 0.805(2) 0.472(2) 0.434(4)
O16_2 O 0.195(2) 0.472(2) 0.066(4)
H18 H 0.271527 0.0139225 0.381482
O16_3 O 0.305(2) 0.972(2) 0.434(4)
H17 H 0.360774 0.972 0.434
H19 H 0.271527 0.930078 0.381482
H18_2 H 0.728473 0.0139225 0.118518
O16_4 O 0.695(2) 0.972(2) 0.066(4)
H17_2 H 0.639226 0.972 0.066
H19_2 H 0.728473 0.930078 0.118518
O16_5 O 0.195(2) 0.528(2) 0.566(4)
O16_6 O 0.805(2) 0.528(2) 0.934(4)
O16_7 O 0.695(2) 0.028(2) 0.566(4)
H17_3 H 0.639226 0.028 0.566
H19_3 H 0.728473 0.0699225 0.618518
H18_3 H 0.728473 0.986078 0.618518
O16_8 O 0.305(2) 0.028(2) 0.934(4)
H17_4 H 0.360774 0.028 0.934
H19_4 H 0.271527 0.0699225 0.881482
H18_4 H 0.271527 0.986078 0.881482
loop_
_geom_bond_atom_site_label_1
_geom_bond_atom_site_label_2
_geom_bond_site_symmetry_1
_geom_bond_site_symmetry_2
Zn1 O1 1_555 1_555
P1 O1 1_555 1_555
O2 P1 1_555 1_555
O3 P1 1_555 1_555
O4 C7 1_555 1_555
O5 C7 1_555 1_555
C1 P1 1_555 1_555
C2 C1 1_555 1_555
H1 C2 1_555 1_555
C3 C2 1_555 1_555
H2 C3 1_555 1_555
C4 C3 1_555 1_555
C5 C4 1_555 1_555
H3 C5 1_555 1_555
C6 C1 1_555 1_555
H4 C6 1_555 1_555
C7 C4 1_555 1_555
Zn2 O2 1_555 1_555
Zn3 O3 1_555 1_555
Zn6 O12 1_555 1_555
P2 O6 1_555 1_555
O6 Zn2 1_555 1_555
O7 Zn1 1_555 1_555
O8 P2 1_555 1_555
O9 Zn1 1_555 1_555
O11 C14 1_555 1_555
O12 C14 1_555 1_555
O13 Zn1 1_555 1_555
C8 P2 1_555 1_555
C9 C8 1_555 1_555
H5 C9 1_555 1_555
C10 C9 1_555 1_555
H6 C10 1_555 1_555
C11 C10 1_555 1_555
C12 C11 1_555 1_555
H7 C12 1_555 1_555
C13 C8 1_555 1_555
H8 C13 1_555 1_555
C14 C11 1_555 1_555
C5 C6 1_555 1_555
P2 O7 1_555 1_555
C12 C13 1_555 1_555
Zn1_2 O1_2 1_555 1_555
Zn3 O12_2 1_555 1_555
O7_2 Zn1_2 1_555 1_555
O8_2 P2_2 1_555 1_555
O11_2 C14_2 1_555 1_555
O12_2 C14_2 1_555 1_555
O13_2 Zn1_2 1_555 1_555
C8_2 P2_2 1_555 1_555
C9_2 C8_2 1_555 1_555
H5_2 C9_2 1_555 1_555
C10_2 C9_2 1_555 1_555
H6_2 C10_2 1_555 1_555
C11_2 C10_2 1_555 1_555
C12_2 C11_2 1_555 1_555
H7_2 C12_2 1_555 1_555
C13_2 C8_2 1_555 1_555
H8_2 C13_2 1_555 1_555
C14_2 C11_2 1_555 1_555
P2_2 O7_2 1_555 1_555
C12_2 C13_2 1_555 1_555
O2_2 P1_2 1_555 1_555
O3_2 P1_2 1_555 1_555
O4_2 C7_2 1_555 1_555
O5_2 C7_2 1_555 1_555
C1_2 P1_2 1_555 1_555
C2_2 C1_2 1_555 1_555
H1_2 C2_2 1_555 1_555
C3_2 C2_2 1_555 1_555
H2_2 C3_2 1_555 1_555
C4_2 C3_2 1_555 1_555
C5_2 C4_2 1_555 1_555
H3_2 C5_2 1_555 1_555
C6_2 C1_2 1_555 1_555
H4_2 C6_2 1_555 1_555
C7_2 C4_2 1_555 1_555
Zn2_2 O2_2 1_555 1_555
O6_2 Zn2_2 1_555 1_555
C5_2 C6_2 1_555 1_555
Zn3 O1_3 1_555 1_555
P1_3 O1_3 1_555 1_555
O2_3 P1_3 1_555 1_555
O9 P1_3 1_555 1_555
O4_3 C7_3 1_555 1_555
O14_2 C7_3 1_555 1_555
C1_3 P1_3 1_555 1_555
C2_3 C1_3 1_555 1_555
H1_3 C2_3 1_555 1_555
C3_3 C2_3 1_555 1_555
H2_3 C3_3 1_555 1_555
C4_3 C3_3 1_555 1_555
C5_3 C4_3 1_555 1_555
H3_3 C5_3 1_555 1_555
C6_3 C1_3 1_555 1_555
H4_3 C6_3 1_555 1_555
C7_3 C4_3 1_555 1_555
Zn5 O2_3 1_555 1_555
P2_3 O6_3 1_555 1_555
O6_3 Zn5 1_555 1_555
O7_3 Zn3 1_555 1_555
O10 P2_3 1_555 1_555
O11_3 C14_3 1_555 1_555
O13_2 C14_3 1_555 1_555
C8_3 P2_3 1_555 1_555
C9_3 C8_3 1_555 1_555
H5_3 C9_3 1_555 1_555
C10_3 C9_3 1_555 1_555
H6_3 C10_3 1_555 1_555
C11_3 C10_3 1_555 1_555
C12_3 C11_3 1_555 1_555
H7_3 C12_3 1_555 1_555
C13_3 C8_3 1_555 1_555
H8_3 C13_3 1_555 1_555
C14_3 C11_3 1_555 1_555
C5_3 C6_3 1_555 1_555
P2_3 O7_3 1_555 1_555
C12_3 C13_3 1_555 1_555
O2_4 P1_4 1_555 1_555
O9_2 P1_4 1_555 1_555
O4_4 C7_4 1_555 1_555
O14 C7_4 1_555 1_555
C1_4 P1_4 1_555 1_555
C2_4 C1_4 1_555 1_555
H1_4 C2_4 1_555 1_555
C3_4 C2_4 1_555 1_555
H2_4 C3_4 1_555 1_555
C4_4 C3_4 1_555 1_555
C5_4 C4_4 1_555 1_555
H3_4 C5_4 1_555 1_555
C6_4 C1_4 1_555 1_555
H4_4 C6_4 1_555 1_555
C7_4 C4_4 1_555 1_555
Zn4 O2_4 1_555 1_555
O6_4 Zn4 1_555 1_555
C5_4 C6_4 1_555 1_555
Zn6 O1_4 1_555 1_555
O7_4 Zn6 1_555 1_555
O10_2 P2_4 1_555 1_555
O11_4 C14_4 1_555 1_555
O13 C14_4 1_555 1_555
C8_4 P2_4 1_555 1_555
C9_4 C8_4 1_555 1_555
H5_4 C9_4 1_555 1_555
C10_4 C9_4 1_555 1_555
H6_4 C10_4 1_555 1_555
C11_4 C10_4 1_555 1_555
C12_4 C11_4 1_555 1_555
H7_4 C12_4 1_555 1_555
C13_4 C8_4 1_555 1_555
H8_4 C13_4 1_555 1_555
C14_4 C11_4 1_555 1_555
P2_4 O7_4 1_555 1_555
C12_4 C13_4 1_555 1_555
C15 H9 1_555 1_555
H10 C15 1_555 1_555
H11 C15 1_555 1_555
N1 C15 1_555 1_555
H12 N1 1_555 1_555
C16 N1 1_555 1_555
H13 C16 1_555 1_555
H14 C16 1_555 1_555
H15 C16 1_555 1_555
H16 N1 1_555 1_555
C15_2 H9_2 1_555 1_555
H10_2 C15_2 1_555 1_555
H11_2 C15_2 1_555 1_555
N1_2 C15_2 1_555 1_555
H16_2 N1_2 1_555 1_555
H12_2 N1_3 1_555 1_555
C16_2 N1_3 1_555 1_555
H13_2 C16_2 1_555 1_555
H14_2 C16_2 1_555 1_555
H15_2 C16_2 1_555 1_555
C15_3 H9_3 1_555 1_555
H10_3 C15_3 1_555 1_555
H11_3 C15_3 1_555 1_555
N1_4 C15_3 1_555 1_555
H12_3 N1_4 1_555 1_555
C16_3 N1_4 1_555 1_555
H13_3 C16_3 1_555 1_555
H14_3 C16_3 1_555 1_555
H15_3 C16_3 1_555 1_555
H16_3 N1_4 1_555 1_555
H12_4 N1_5 1_555 1_555
C16_4 N1_5 1_555 1_555
H13_4 C16_4 1_555 1_555
H14_4 C16_4 1_555 1_555
H15_4 C16_4 1_555 1_555
C15_4 H9_4 1_555 1_555
H10_4 C15_4 1_555 1_555
H11_4 C15_4 1_555 1_555
N1_6 C15_4 1_555 1_555
H16_4 N1_6 1_555 1_555
O16_3 H17 1_555 1_555
O16_3 H19 1_555 1_555
O16_4 H17_2 1_555 1_555
O16_4 H19_2 1_555 1_555
O16_7 H17_3 1_555 1_555
O16_7 H19_3 1_555 1_555
O16_8 H17_4 1_555 1_555
O16_8 H19_4 1_555 1_555

#END
