
###############################################################################
#
# This file contains modified crystal structure data generated from the
# MOF subset of the Cambridge Structural Database (CSD) v543 
# hosted by the Cambridge Crystallographic Data Centre (CCDC).
#
# This work is licensed under the Creative Commons
# Attribution-NonCommercial-ShareAlike 4.0 International License.
# To view a copy of this license, visit
# http://creativecommons.org/licenses/by-nc-sa/4.0/
# or send a letter to
# Creative Commons, PO Box 1866, Mountain View, CA 94042, USA.
#
# CIF created using the CSD Python API on 29 September 2022
# The structure has been converted into the P1 space group
# The structure has a 3D framework
# The original CSD entry RAXCEA is in the monoclinic crystal system
# The framework has been calculated to contain at least 10.0% void space
# The void calculation uses a probe of radius 1.32A, grid spacing 0.4
# The framework is charged, counterions have been retained in the structure
#
###############################################################################

data_RAXCEA
_chemical_formula_moiety         '(C72 H96 N8 O40 P8 Zn8)n'
_symmetry_cell_setting           triclinic
_symmetry_space_group_name_H-M   'P 1'
_symmetry_Int_Tables_number      1
_space_group_name_Hall           'P 1'
loop_
_symmetry_equiv_pos_site_id
_symmetry_equiv_pos_as_xyz
1 x,y,z
_cell_length_a                   18.372(8)
_cell_length_b                   19.143(8)
_cell_length_c                   10.534(5)
_cell_angle_alpha                90
_cell_angle_beta                 124.353(10)
_cell_angle_gamma                90
_cell_volume                     3058.56
loop_
_atom_site_label
_atom_site_type_symbol
_atom_site_fract_x
_atom_site_fract_y
_atom_site_fract_z
H1 H 0.2631 0.4772 0.0002
C1 C 0.1618(4) 0.4718(4) 0.0073(7)
H4 H 0.1938 0.4703 0.1174
C2 C 0.2490(4) 0.3779(4) 0.0096(7)
H8 H 0.2828 0.3752 0.1197
N1 N 0.2167(4) 0.4481(2) 0.9614(6)
H2 H 0.1863 0.4504 0.8582
H3 H 0.1435 0.5189 0.9725
H5 H 0.1108 0.4423 0.9631
H6 H 0.2856 0.3656 0.9747
H7 H 0.2001 0.3462 0.9664
N1_2 N 0.7833(4) 0.4481(2) 0.5386(6)
H1_2 H 0.7369 0.4772 0.4998
H2_2 H 0.8137 0.4504 0.6418
C1_2 C 0.8382(4) 0.4718(4) 0.4927(7)
H3_2 H 0.8565 0.5189 0.5275
H4_2 H 0.8062 0.4703 0.3826
H5_2 H 0.8892 0.4423 0.5369
C2_2 C 0.7510(4) 0.3779(4) 0.4904(7)
H6_2 H 0.7144 0.3656 0.5253
H7_2 H 0.7999 0.3462 0.5336
H8_2 H 0.7172 0.3752 0.3803
H3_3 H 0.6435 0.0189 0.9725
H1_3 H 0.7631 0.9772 0.0002
C1_3 C 0.6618(4) 0.9718(4) 0.0073(7)
H4_3 H 0.6938 0.9703 0.1174
C2_3 C 0.7490(4) 0.8779(4) 0.0096(7)
H8_3 H 0.7828 0.8752 0.1197
N1_3 N 0.7167(4) 0.9481(2) 0.9614(6)
H2_3 H 0.6863 0.9504 0.8582
H5_3 H 0.6108 0.9423 0.9631
H6_3 H 0.7856 0.8656 0.9747
H7_3 H 0.7001 0.8462 0.9664
H3_4 H 0.3565 0.0189 0.5275
N1_4 N 0.2833(4) 0.9481(2) 0.5386(6)
H1_4 H 0.2369 0.9772 0.4998
H2_4 H 0.3137 0.9504 0.6418
C1_4 C 0.3382(4) 0.9718(4) 0.4927(7)
H4_4 H 0.3062 0.9703 0.3826
H5_4 H 0.3892 0.9423 0.5369
C2_4 C 0.2510(4) 0.8779(4) 0.4904(7)
H6_4 H 0.2144 0.8656 0.5253
H7_4 H 0.2999 0.8462 0.5336
H8_4 H 0.2172 0.8752 0.3803
N1_5 N 0.7833(4) 0.5519(2) 0.0386(6)
H2_5 H 0.8137 0.5496 0.1418
H3_5 H 0.8565 0.4811 0.0275
H5_5 H 0.8892 0.5577 0.0369
H6_5 H 0.7144 0.6344 0.0253
H7_5 H 0.7999 0.6538 0.0336
H1_5 H 0.7369 0.5228 0.9998
C1_5 C 0.8382(4) 0.5282(4) 0.9927(7)
H4_5 H 0.8062 0.5297 0.8826
C2_5 C 0.7510(4) 0.6221(4) 0.9904(7)
H8_5 H 0.7172 0.6248 0.8803
N1_6 N 0.2167(4) 0.5519(2) 0.4614(6)
H1_6 H 0.2631 0.5228 0.5002
H2_6 H 0.1863 0.5496 0.3582
C1_6 C 0.1618(4) 0.5282(4) 0.5073(7)
H3_6 H 0.1435 0.4811 0.4725
H4_6 H 0.1938 0.5297 0.6174
H5_6 H 0.1108 0.5577 0.4631
C2_6 C 0.2490(4) 0.6221(4) 0.5096(7)
H6_6 H 0.2856 0.6344 0.4747
H7_6 H 0.2001 0.6538 0.4664
H8_6 H 0.2828 0.6248 0.6197
N1_7 N 0.2833(4) 0.0519(2) 0.0386(6)
H2_7 H 0.3137 0.0496 0.1418
H5_7 H 0.3892 0.0577 0.0369
H6_7 H 0.2144 0.1344 0.0253
H7_7 H 0.2999 0.1538 0.0336
H1_7 H 0.2369 0.0228 0.9998
C1_7 C 0.3382(4) 0.0282(4) 0.9927(7)
H4_7 H 0.3062 0.0297 0.8826
C2_7 C 0.2510(4) 0.1221(4) 0.9904(7)
H8_7 H 0.2172 0.1248 0.8803
H3_7 H 0.3565 0.9811 0.0275
N1_8 N 0.7167(4) 0.0519(2) 0.4614(6)
H1_8 H 0.7631 0.0228 0.5002
H2_8 H 0.6863 0.0496 0.3582
C1_8 C 0.6618(4) 0.0282(4) 0.5073(7)
H4_8 H 0.6938 0.0297 0.6174
H5_8 H 0.6108 0.0577 0.4631
C2_8 C 0.7490(4) 0.1221(4) 0.5096(7)
H6_8 H 0.7856 0.1344 0.4747
H7_8 H 0.7001 0.1538 0.4664
H8_8 H 0.7828 0.1248 0.6197
H3_8 H 0.6435 0.9811 0.4725
Zn1 Zn 0.39269(3) 0.55123(2) 0.00695(5)
P1 P 0.60676(6) 0.56333(5) 0.19605(11)
O1 O 0.51036(16) 0.57263(14) 0.0839(3)
O2 O 0.63035(17) 0.52680(14) 0.3417(3)
O3 O 0.65060(16) 0.52721(14) 0.1294(3)
O4 O 0.70586(19) 0.90542(15) 0.3369(3)
O5 O 0.83358(18) 0.86179(14) 0.4095(3)
C3 C 0.6514(2) 0.64982(19) 0.2441(4)
C4 C 0.5967(3) 0.7059(2) 0.2121(6)
H9 H 0.5368 0.6986 0.1657
C5 C 0.6298(3) 0.7719(2) 0.2477(6)
H10 H 0.5922 0.8093 0.2262
C6 C 0.7176(2) 0.78383(19) 0.3148(4)
C7 C 0.7717(2) 0.7285(2) 0.3483(5)
H11 H 0.8318 0.7359 0.3957
C8 C 0.7391(2) 0.6620(2) 0.3133(5)
H12 H 0.7771 0.6247 0.3371
C9 C 0.7534(3) 0.8560(2) 0.3557(4)
Zn2 Zn 0.60731(3) 0.55123(2) 0.49305(5)
Zn4 Zn 0.39269(3) 0.44877(2) 0.50695(5)
Zn6 Zn 0.89269(3) 0.94877(2) 0.50695(5)
P2 P 0.39324(6) 0.56333(5) 0.30395(11)
O6 O 0.48964(16) 0.57263(14) 0.4161(3)
O7 O 0.36965(17) 0.52680(14) 0.1583(3)
O8 O 0.34940(16) 0.52721(14) 0.3706(3)
O10 O 0.65060(16) 0.47279(14) 0.6294(3)
O11 O 0.29414(19) 0.90542(15) 0.1631(3)
O12 O 0.16642(18) 0.86179(14) 0.0905(3)
O13 O 0.66642(18) 0.63821(14) 0.5905(3)
C10 C 0.3486(2) 0.64982(19) 0.2559(4)
C11 C 0.4033(3) 0.7059(2) 0.2879(6)
H13 H 0.4632 0.6986 0.3343
C12 C 0.3702(3) 0.7719(2) 0.2523(6)
H14 H 0.4078 0.8093 0.2738
C13 C 0.2824(2) 0.78383(19) 0.1852(4)
C14 C 0.2283(2) 0.7285(2) 0.1517(5)
H15 H 0.1682 0.7359 0.1043
C15 C 0.2609(2) 0.6620(2) 0.1867(5)
H16 H 0.2229 0.6247 0.1629
C16 C 0.2466(3) 0.8560(2) 0.1443(4)
Zn3 Zn 0.60731(3) 0.44877(2) 0.99305(5)
Zn5 Zn 0.10731(3) 0.94877(2) 0.99305(5)
O9 O 0.34940(16) 0.47279(14) 0.8706(3)
O14 O 0.33358(18) 0.63821(14) 0.9095(3)
P1_2 P 0.10676(6) 0.06333(5) 0.19605(11)
O1_2 O 0.01036(16) 0.07263(14) 0.0839(3)
O2_2 O 0.13035(17) 0.02680(14) 0.3417(3)
O3_2 O 0.15060(16) 0.02721(14) 0.1294(3)
O4_2 O 0.20586(19) 0.40542(15) 0.3369(3)
O5_2 O 0.33358(18) 0.36179(14) 0.4095(3)
C3_2 C 0.1514(2) 0.14982(19) 0.2441(4)
C4_2 C 0.0967(3) 0.2059(2) 0.2121(6)
H9_2 H 0.0368 0.1986 0.1657
C5_2 C 0.1298(3) 0.2719(2) 0.2477(6)
H10_2 H 0.0922 0.3093 0.2262
C6_2 C 0.2176(2) 0.28383(19) 0.3148(4)
C7_2 C 0.2717(2) 0.2285(2) 0.3483(5)
H11_2 H 0.3318 0.2359 0.3957
C8_2 C 0.2391(2) 0.1620(2) 0.3133(5)
H12_2 H 0.2771 0.1247 0.3371
C9_2 C 0.2534(3) 0.3560(2) 0.3557(4)
Zn2_2 Zn 0.10731(3) 0.05123(2) 0.49305(5)
O13_2 O 0.16642(18) 0.13821(14) 0.5905(3)
O10_2 O 0.15060(16) 0.97279(14) 0.6294(3)
Zn1_2 Zn 0.89269(3) 0.05123(2) 0.00695(5)
P2_2 P 0.89324(6) 0.06333(5) 0.30395(11)
O6_2 O 0.98964(16) 0.07263(14) 0.4161(3)
O7_2 O 0.86965(17) 0.02680(14) 0.1583(3)
O8_2 O 0.84940(16) 0.02721(14) 0.3706(3)
O11_2 O 0.79414(19) 0.40542(15) 0.1631(3)
O12_2 O 0.66642(18) 0.36179(14) 0.0905(3)
C10_2 C 0.8486(2) 0.14982(19) 0.2559(4)
C11_2 C 0.9033(3) 0.2059(2) 0.2879(6)
H13_2 H 0.9632 0.1986 0.3343
C12_2 C 0.8702(3) 0.2719(2) 0.2523(6)
H14_2 H 0.9078 0.3093 0.2738
C13_2 C 0.7824(2) 0.28383(19) 0.1852(4)
C14_2 C 0.7283(2) 0.2285(2) 0.1517(5)
H15_2 H 0.6682 0.2359 0.1043
C15_2 C 0.7609(2) 0.1620(2) 0.1867(5)
H16_2 H 0.7229 0.1247 0.1629
C16_2 C 0.7466(3) 0.3560(2) 0.1443(4)
O14_2 O 0.83358(18) 0.13821(14) 0.9095(3)
O9_2 O 0.84940(16) 0.97279(14) 0.8706(3)
P1_3 P 0.39324(6) 0.43667(5) 0.80395(11)
O1_3 O 0.48964(16) 0.42737(14) 0.9161(3)
O2_3 O 0.36965(17) 0.47320(14) 0.6583(3)
O4_3 O 0.29414(19) 0.09458(15) 0.6631(3)
C3_3 C 0.3486(2) 0.35018(19) 0.7559(4)
C4_3 C 0.4033(3) 0.2941(2) 0.7879(6)
H9_3 H 0.4632 0.3014 0.8343
C5_3 C 0.3702(3) 0.2281(2) 0.7523(6)
H10_3 H 0.4078 0.1907 0.7738
C6_3 C 0.2824(2) 0.21617(19) 0.6852(4)
C7_3 C 0.2283(2) 0.2715(2) 0.6517(5)
H11_3 H 0.1682 0.2641 0.6043
C8_3 C 0.2609(2) 0.3380(2) 0.6867(5)
H12_3 H 0.2229 0.3753 0.6629
C9_3 C 0.2466(3) 0.1440(2) 0.6443(4)
P2_3 P 0.60676(6) 0.43667(5) 0.69605(11)
O6_3 O 0.51036(16) 0.42737(14) 0.5839(3)
O7_3 O 0.63035(17) 0.47320(14) 0.8417(3)
O11_3 O 0.70586(19) 0.09458(15) 0.8369(3)
C10_3 C 0.6514(2) 0.35018(19) 0.7441(4)
C11_3 C 0.5967(3) 0.2941(2) 0.7121(6)
H13_3 H 0.5368 0.3014 0.6657
C12_3 C 0.6298(3) 0.2281(2) 0.7477(6)
H14_3 H 0.5922 0.1907 0.7262
C13_3 C 0.7176(2) 0.21617(19) 0.8148(4)
C14_3 C 0.7717(2) 0.2715(2) 0.8483(5)
H15_3 H 0.8318 0.2641 0.8957
C15_3 C 0.7391(2) 0.3380(2) 0.8133(5)
H16_3 H 0.7771 0.3753 0.8371
C16_3 C 0.7534(3) 0.1440(2) 0.8557(4)
P2_4 P 0.10676(6) 0.93667(5) 0.69605(11)
O6_4 O 0.01036(16) 0.92737(14) 0.5839(3)
O7_4 O 0.13035(17) 0.97320(14) 0.8417(3)
O11_4 O 0.20586(19) 0.59458(15) 0.8369(3)
C10_4 C 0.1514(2) 0.85018(19) 0.7441(4)
C11_4 C 0.0967(3) 0.7941(2) 0.7121(6)
H13_4 H 0.0368 0.8014 0.6657
C12_4 C 0.1298(3) 0.7281(2) 0.7477(6)
H14_4 H 0.0922 0.6907 0.7262
C13_4 C 0.2176(2) 0.71617(19) 0.8148(4)
C14_4 C 0.2717(2) 0.7715(2) 0.8483(5)
H15_4 H 0.3318 0.7641 0.8957
C15_4 C 0.2391(2) 0.8380(2) 0.8133(5)
H16_4 H 0.2771 0.8753 0.8371
C16_4 C 0.2534(3) 0.6440(2) 0.8557(4)
P1_4 P 0.89324(6) 0.93667(5) 0.80395(11)
O1_4 O 0.98964(16) 0.92737(14) 0.9161(3)
O2_4 O 0.86965(17) 0.97320(14) 0.6583(3)
O4_4 O 0.79414(19) 0.59458(15) 0.6631(3)
C3_4 C 0.8486(2) 0.85018(19) 0.7559(4)
C4_4 C 0.9033(3) 0.7941(2) 0.7879(6)
H9_4 H 0.9632 0.8014 0.8343
C5_4 C 0.8702(3) 0.7281(2) 0.7523(6)
H10_4 H 0.9078 0.6907 0.7738
C6_4 C 0.7824(2) 0.71617(19) 0.6852(4)
C7_4 C 0.7283(2) 0.7715(2) 0.6517(5)
H11_4 H 0.6682 0.7641 0.6043
C8_4 C 0.7609(2) 0.8380(2) 0.6867(5)
H12_4 H 0.7229 0.8753 0.6629
C9_4 C 0.7466(3) 0.6440(2) 0.6443(4)
loop_
_geom_bond_atom_site_label_1
_geom_bond_atom_site_label_2
_geom_bond_site_symmetry_1
_geom_bond_site_symmetry_2
H4 C1 1_555 1_555
H8 C2 1_555 1_555
H2 N1 1_555 1_555
N1_2 H1_2 1_555 1_555
H2_2 N1_2 1_555 1_555
C1_2 N1_2 1_555 1_555
H3_2 C1_2 1_555 1_555
H4_2 C1_2 1_555 1_555
H5_2 C1_2 1_555 1_555
C2_2 N1_2 1_555 1_555
H6_2 C2_2 1_555 1_555
H7_2 C2_2 1_555 1_555
H8_2 C2_2 1_555 1_555
H4_3 C1_3 1_555 1_555
H8_3 C2_3 1_555 1_555
H2_3 N1_3 1_555 1_555
N1_4 H1_4 1_555 1_555
H2_4 N1_4 1_555 1_555
C1_4 N1_4 1_555 1_555
H4_4 C1_4 1_555 1_555
H5_4 C1_4 1_555 1_555
C2_4 N1_4 1_555 1_555
H6_4 C2_4 1_555 1_555
H7_4 C2_4 1_555 1_555
H8_4 C2_4 1_555 1_555
H2_5 N1_5 1_555 1_555
H4_5 C1_5 1_555 1_555
H8_5 C2_5 1_555 1_555
N1_6 H1_6 1_555 1_555
H2_6 N1_6 1_555 1_555
C1_6 N1_6 1_555 1_555
H3_6 C1_6 1_555 1_555
H4_6 C1_6 1_555 1_555
H5_6 C1_6 1_555 1_555
C2_6 N1_6 1_555 1_555
H6_6 C2_6 1_555 1_555
H7_6 C2_6 1_555 1_555
H8_6 C2_6 1_555 1_555
H2_7 N1_7 1_555 1_555
H4_7 C1_7 1_555 1_555
H8_7 C2_7 1_555 1_555
N1_8 H1_8 1_555 1_555
H2_8 N1_8 1_555 1_555
C1_8 N1_8 1_555 1_555
H4_8 C1_8 1_555 1_555
H5_8 C1_8 1_555 1_555
C2_8 N1_8 1_555 1_555
H6_8 C2_8 1_555 1_555
H7_8 C2_8 1_555 1_555
H8_8 C2_8 1_555 1_555
Zn1 O1 1_555 1_555
P1 O1 1_555 1_555
O2 P1 1_555 1_555
O3 P1 1_555 1_555
O4 C9 1_555 1_555
O5 C9 1_555 1_555
C3 P1 1_555 1_555
C4 C3 1_555 1_555
H9 C4 1_555 1_555
C5 C4 1_555 1_555
H10 C5 1_555 1_555
C6 C5 1_555 1_555
C7 C6 1_555 1_555
H11 C7 1_555 1_555
C8 C3 1_555 1_555
H12 C8 1_555 1_555
C9 C6 1_555 1_555
Zn2 O2 1_555 1_555
Zn4 O8 1_555 1_555
Zn6 O5 1_555 1_555
P2 O6 1_555 1_555
O6 Zn2 1_555 1_555
O7 Zn1 1_555 1_555
O8 P2 1_555 1_555
O10 Zn2 1_555 1_555
O11 C16 1_555 1_555
O12 C16 1_555 1_555
O13 Zn2 1_555 1_555
C10 P2 1_555 1_555
C11 C10 1_555 1_555
H13 C11 1_555 1_555
C12 C11 1_555 1_555
H14 C12 1_555 1_555
C13 C12 1_555 1_555
C14 C13 1_555 1_555
H15 C14 1_555 1_555
C15 C10 1_555 1_555
H16 C15 1_555 1_555
C16 C13 1_555 1_555
C7 C8 1_555 1_555
P2 O7 1_555 1_555
C14 C15 1_555 1_555
P1_2 O1_2 1_555 1_555
O2_2 P1_2 1_555 1_555
O3_2 P1_2 1_555 1_555
O4_2 C9_2 1_555 1_555
O5_2 C9_2 1_555 1_555
C3_2 P1_2 1_555 1_555
C4_2 C3_2 1_555 1_555
H9_2 C4_2 1_555 1_555
C5_2 C4_2 1_555 1_555
H10_2 C5_2 1_555 1_555
C6_2 C5_2 1_555 1_555
C7_2 C6_2 1_555 1_555
H11_2 C7_2 1_555 1_555
C8_2 C3_2 1_555 1_555
H12_2 C8_2 1_555 1_555
C9_2 C6_2 1_555 1_555
Zn2_2 O2_2 1_555 1_555
Zn4 O5_2 1_555 1_555
O13_2 Zn2_2 1_555 1_555
C7_2 C8_2 1_555 1_555
P2_2 O6_2 1_555 1_555
O7_2 Zn1_2 1_555 1_555
O8_2 P2_2 1_555 1_555
O11_2 C16_2 1_555 1_555
O12_2 C16_2 1_555 1_555
C10_2 P2_2 1_555 1_555
C11_2 C10_2 1_555 1_555
H13_2 C11_2 1_555 1_555
C12_2 C11_2 1_555 1_555
H14_2 C12_2 1_555 1_555
C13_2 C12_2 1_555 1_555
C14_2 C13_2 1_555 1_555
H15_2 C14_2 1_555 1_555
C15_2 C10_2 1_555 1_555
H16_2 C15_2 1_555 1_555
C16_2 C13_2 1_555 1_555
P2_2 O7_2 1_555 1_555
C14_2 C15_2 1_555 1_555
Zn3 O1_3 1_555 1_555
P1_3 O1_3 1_555 1_555
O2_3 P1_3 1_555 1_555
O9 P1_3 1_555 1_555
O4_3 C9_3 1_555 1_555
O13_2 C9_3 1_555 1_555
C3_3 P1_3 1_555 1_555
C4_3 C3_3 1_555 1_555
H9_3 C4_3 1_555 1_555
C5_3 C4_3 1_555 1_555
H10_3 C5_3 1_555 1_555
C6_3 C5_3 1_555 1_555
C7_3 C6_3 1_555 1_555
H11_3 C7_3 1_555 1_555
C8_3 C3_3 1_555 1_555
H12_3 C8_3 1_555 1_555
C9_3 C6_3 1_555 1_555
Zn4 O2_3 1_555 1_555
P2_3 O6_3 1_555 1_555
O6_3 Zn4 1_555 1_555
O7_3 Zn3 1_555 1_555
O10 P2_3 1_555 1_555
O11_3 C16_3 1_555 1_555
O14_2 C16_3 1_555 1_555
C10_3 P2_3 1_555 1_555
C11_3 C10_3 1_555 1_555
H13_3 C11_3 1_555 1_555
C12_3 C11_3 1_555 1_555
H14_3 C12_3 1_555 1_555
C13_3 C12_3 1_555 1_555
C14_3 C13_3 1_555 1_555
H15_3 C14_3 1_555 1_555
C15_3 C10_3 1_555 1_555
H16_3 C15_3 1_555 1_555
C16_3 C13_3 1_555 1_555
C7_3 C8_3 1_555 1_555
P2_3 O7_3 1_555 1_555
C14_3 C15_3 1_555 1_555
P2_4 O6_4 1_555 1_555
O7_4 Zn5 1_555 1_555
O10_2 P2_4 1_555 1_555
O11_4 C16_4 1_555 1_555
O14 C16_4 1_555 1_555
C10_4 P2_4 1_555 1_555
C11_4 C10_4 1_555 1_555
H13_4 C11_4 1_555 1_555
C12_4 C11_4 1_555 1_555
H14_4 C12_4 1_555 1_555
C13_4 C12_4 1_555 1_555
C14_4 C13_4 1_555 1_555
H15_4 C14_4 1_555 1_555
C15_4 C10_4 1_555 1_555
H16_4 C15_4 1_555 1_555
C16_4 C13_4 1_555 1_555
P2_4 O7_4 1_555 1_555
C14_4 C15_4 1_555 1_555
P1_4 O1_4 1_555 1_555
O2_4 P1_4 1_555 1_555
O9_2 P1_4 1_555 1_555
O4_4 C9_4 1_555 1_555
O13 C9_4 1_555 1_555
C3_4 P1_4 1_555 1_555
C4_4 C3_4 1_555 1_555
H9_4 C4_4 1_555 1_555
C5_4 C4_4 1_555 1_555
H10_4 C5_4 1_555 1_555
C6_4 C5_4 1_555 1_555
C7_4 C6_4 1_555 1_555
H11_4 C7_4 1_555 1_555
C8_4 C3_4 1_555 1_555
H12_4 C8_4 1_555 1_555
C9_4 C6_4 1_555 1_555
Zn6 O2_4 1_555 1_555
C7_4 C8_4 1_555 1_555

#END
