
###############################################################################
#
# This file contains modified crystal structure data generated from the
# MOF subset of the Cambridge Structural Database (CSD) v543 
# hosted by the Cambridge Crystallographic Data Centre (CCDC).
#
# This work is licensed under the Creative Commons
# Attribution-NonCommercial-ShareAlike 4.0 International License.
# To view a copy of this license, visit
# http://creativecommons.org/licenses/by-nc-sa/4.0/
# or send a letter to
# Creative Commons, PO Box 1866, Mountain View, CA 94042, USA.
#
# CIF created using the CSD Python API on 29 September 2022
# The structure has been converted into the P1 space group
# The structure has a 3D framework
# The original CSD entry RAXDAX is in the monoclinic crystal system
# The framework has been calculated to contain at least 10.0% void space
# The void calculation uses a probe of radius 1.32A, grid spacing 0.4
#
###############################################################################

data_RAXDAX
_chemical_formula_moiety         '(C72 H68 N20 O16 Zn4)n'
_symmetry_cell_setting           triclinic
_symmetry_space_group_name_H-M   'P 1'
_symmetry_Int_Tables_number      1
_space_group_name_Hall           'P 1'
loop_
_symmetry_equiv_pos_site_id
_symmetry_equiv_pos_as_xyz
1 x,y,z
_cell_length_a                   9.267(4)
_cell_length_b                   13.257(6)
_cell_length_c                   16.324(7)
_cell_angle_alpha                90
_cell_angle_beta                 94.975(9)
_cell_angle_gamma                90
_cell_volume                     1997.89
loop_
_atom_site_label
_atom_site_type_symbol
_atom_site_fract_x
_atom_site_fract_y
_atom_site_fract_z
N5 N 0.4095(5) 0.0561(3) 0.3516(2)
C14 C 0.2686(5) 0.0701(4) 0.3552(3)
H11 H 0.2220 0.1088 0.3925
C15 C 0.5161(6) 0.0973(4) 0.4129(3)
H12 H 0.5070 0.1701 0.4140
H13 H 0.6126 0.0810 0.3982
C17 C 0.2107(6) 0.0160(4) 0.2933(3)
H15 H 0.1112 0.0101 0.2810
C18 C 0.4957(6) 0.0552(4) 0.4971(3)
H16 H 0.5689 0.0840 0.5363
H17 H 0.4019 0.0765 0.5129
Zn5 Zn 0.73090(6) 0.15523(4) 0.81676(3)
N10 N 0.6937(4) 0.0294(3) 0.7499(2)
C34 C 0.5681(6) 0.0034(4) 0.7108(3)
H31 H 0.4777 0.0241 0.7252
H1 H 0.0016 0.8026 0.9559
C12 C 0.5377(7) 0.6332(4) 0.9576(4)
H7 H 0.6402 0.6239 0.9520
H8 H 0.4956 0.6669 0.9085
C13 C 0.4653(7) 0.5296(5) 0.9653(4)
H9 H 0.3637 0.5392 0.9731
H10 H 0.4713 0.4923 0.9146
N6 N 0.4805(5) 0.3034(3) 0.9709(3)
N7 N 0.5714(4) 0.2108(3) 0.8803(2)
C27 C 0.3765(5) 0.2959(4) 0.9086(3)
H21 H 0.2842 0.3240 0.9041
C28 C 0.5958(5) 0.2527(4) 0.9535(3)
H22 H 0.6813 0.2472 0.9875
C29 C 0.4356(6) 0.2410(4) 0.8576(4)
H23 H 0.3878 0.2227 0.8074
Zn3 Zn 0.23090(6) 0.34477(4) 0.31676(3)
O6 O 0.2825(4) 0.2523(3) 0.2284(2)
C19 C 0.0875(5) 0.1664(3) 0.0399(3)
C21 C 0.1739(5) 0.2373(4) 0.1773(3)
O9 O 0.0519(4) 0.2728(3) 0.1863(2)
N9 N 0.4884(4) 0.0255(3) 0.0305(2)
C23 C 0.1960(5) 0.1758(3) 0.1035(3)
C25 C 0.3273(5) 0.1284(4) 0.0976(3)
H20 H 0.4008 0.1346 0.1398
C26 C 0.3492(5) 0.0715(4) 0.0286(3)
O5 O 0.8786(4) 0.1525(3) 0.9089(2)
O7 O 0.7825(4) 0.2477(3) 0.7284(2)
C22 C 0.9976(5) 0.1071(4) 0.8990(3)
O1 O 0.3786(4) 0.3475(3) 0.4089(2)
N2 N 0.0714(4) 0.2892(3) 0.3803(2)
C1 C 0.5875(5) 0.3336(3) 0.5399(3)
H1_2 H 0.4984 0.3026 0.5441
C2 C 0.6106(5) 0.3888(3) 0.4703(3)
C3 C 0.6739(5) 0.2627(4) 0.6773(3)
O3 O 0.5519(4) 0.2272(3) 0.6863(2)
C4 C 0.4976(5) 0.3929(4) 0.3990(3)
N3 N 0.9884(4) 0.4745(3) 0.5305(2)
C5 C 0.6960(5) 0.3242(3) 0.6035(3)
C6 C 0.7392(5) 0.4364(4) 0.4649(3)
H2 H 0.7540 0.4745 0.4185
C7 C 0.8273(5) 0.3716(4) 0.5976(3)
H3 H 0.9008 0.3654 0.6398
C8 C 0.8492(5) 0.4285(4) 0.5286(3)
O4 O 0.5220(4) 0.4353(4) 0.3362(2)
C10 C 0.0958(5) 0.2473(4) 0.4535(3)
H5 H 0.1813 0.2528 0.4875
H8_2 H 0.0044 0.1669 0.5915
N4 N 0.1937(4) 0.4706(3) 0.2499(2)
C13_2 C 0.0347(7) 0.0296(5) 0.5347(4)
H9_2 H 0.1363 0.0392 0.5269
N5_2 N 0.0905(5) 0.5561(3) 0.1484(2)
C14_2 C 0.2314(5) 0.5701(4) 0.1448(3)
H11_2 H 0.2780 0.6088 0.1075
C16 C 0.0681(6) 0.4966(4) 0.2108(3)
C17_2 C 0.2893(6) 0.5160(4) 0.2067(3)
H15_2 H 0.3888 0.5101 0.2190
C18_2 C 0.0043(6) 0.5552(4) 0.0029(3)
H33 H 0.0689 0.4160 0.0363
Zn1 Zn 0.26910(6) 0.84477(4) 0.18324(3)
O1_2 O 0.1214(4) 0.8475(3) 0.0911(2)
N1 N 0.5195(5) 0.6966(3) 0.0291(3)
N2_2 N 0.4286(4) 0.7892(3) 0.1197(2)
C4_2 C 0.0024(5) 0.8929(4) 0.1010(3)
C9 C 0.6235(5) 0.7041(4) 0.0914(3)
H4 H 0.7158 0.6760 0.0959
C10_2 C 0.4042(5) 0.7473(4) 0.0465(3)
H5_2 H 0.3187 0.7528 0.0125
C11 C 0.5644(6) 0.7590(4) 0.1424(4)
H6 H 0.6122 0.7773 0.1926
N4_2 N 0.3063(4) 0.9706(3) 0.2501(2)
C16_2 C 0.4319(6) 0.9966(4) 0.2892(3)
H14 H 0.5223 0.9759 0.2748
O8 O 0.2175(4) 0.7523(3) 0.2716(2)
C30 C 0.4623(7) 0.3668(4) 0.0424(4)
H24 H 0.3598 0.3761 0.0480
H25 H 0.5044 0.3331 0.0915
C31 C 0.5347(7) 0.4704(5) 0.0347(4)
H26 H 0.6363 0.4608 0.0269
H27 H 0.5287 0.5077 0.0854
N12 N 0.5905(5) 0.9439(3) 0.6484(2)
C32 C 0.7314(5) 0.9299(4) 0.6448(3)
H28 H 0.7780 0.8912 0.6075
C33 C 0.4839(6) 0.9027(4) 0.5871(3)
H29 H 0.4930 0.8299 0.5860
H30 H 0.3874 0.9190 0.6018
C35 C 0.7893(6) 0.9840(4) 0.7067(3)
H32 H 0.8888 0.9899 0.7190
C36 C 0.5043(6) 0.9448(4) 0.5029(3)
H33_2 H 0.4311 0.9160 0.4637
H34 H 0.5981 0.9235 0.4871
O2 O 0.7175(4) 0.7477(3) 0.7716(2)
C1_2 C 0.9125(5) 0.8336(3) 0.9601(3)
C3_2 C 0.8261(5) 0.7627(4) 0.8227(3)
O3_2 O 0.9481(4) 0.7272(3) 0.8137(2)
N3_2 N 0.5116(4) 0.9745(3) 0.9695(2)
C5_2 C 0.8040(5) 0.8242(3) 0.8965(3)
C7_2 C 0.6727(5) 0.8716(4) 0.9024(3)
H3_2 H 0.5992 0.8654 0.8602
C8_2 C 0.6508(5) 0.9285(4) 0.9714(3)
Zn6 Zn 0.76910(6) 0.65523(4) 0.68324(3)
H18 H 0.9984 0.1974 0.0441
O5_2 O 0.6214(4) 0.6525(3) 0.5911(2)
N8 N 0.9286(4) 0.7108(3) 0.6197(2)
C19_2 C 0.4125(5) 0.6664(3) 0.4601(3)
H18_2 H 0.5016 0.6974 0.4559
C20 C 0.3894(5) 0.6112(3) 0.5297(3)
C21_2 C 0.3261(5) 0.7373(4) 0.3227(3)
O9_2 O 0.4481(4) 0.7728(3) 0.3137(2)
C22_2 C 0.5024(5) 0.6071(4) 0.6010(3)
N9_2 N 0.0116(4) 0.5255(3) 0.4695(2)
C23_2 C 0.3040(5) 0.6758(3) 0.3965(3)
C24 C 0.2608(5) 0.5636(4) 0.5351(3)
H19 H 0.2460 0.5255 0.5815
C25_2 C 0.1727(5) 0.6284(4) 0.4024(3)
H20_2 H 0.0992 0.6346 0.3602
C26_2 C 0.1508(5) 0.5715(4) 0.4714(3)
O10 O 0.4780(4) 0.5647(4) 0.6638(2)
N11 N 0.8063(4) 0.5294(3) 0.7501(2)
H16_2 H 0.9311 0.5840 0.9637
N12_2 N 0.9095(5) 0.4439(3) 0.8516(2)
C32_2 C 0.7686(5) 0.4299(4) 0.8552(3)
H28_2 H 0.7220 0.3912 0.8925
C34_2 C 0.9319(6) 0.5034(4) 0.7892(3)
C35_2 C 0.7107(6) 0.4840(4) 0.7933(3)
H32_2 H 0.6112 0.4899 0.7810
C36_2 C 0.9957(6) 0.4448(4) 0.9971(3)
C28_2 C 0.9042(5) 0.7527(4) 0.5465(3)
H22_2 H 0.8187 0.7472 0.5125
H25_2 H 0.9956 0.8331 0.4085
C31_2 C 0.9653(7) 0.9704(5) 0.4653(4)
H26_2 H 0.8637 0.9608 0.4731
C20_2 C 0.1106(5) 0.1112(3) 0.9703(3)
C24_2 C 0.2392(5) 0.0636(4) 0.9649(3)
H19_2 H 0.2540 0.0255 0.9185
O10_2 O 0.0220(4) 0.0647(4) 0.8362(2)
C2_2 C 0.8894(5) 0.8888(3) 0.0297(3)
C6_2 C 0.7608(5) 0.9364(4) 0.0351(3)
H2_2 H 0.7460 0.9745 0.0815
O4_2 O 0.9780(4) 0.9353(4) 0.1638(2)
H17_2 H 0.0981 0.5765 0.9871
C33_2 C 0.0161(6) 0.4027(4) 0.9129(3)
H29_2 H 0.0070 0.3299 0.9140
H30_2 H 0.1126 0.4190 0.8982
H31_2 H 0.0223 0.5241 0.7748
H10_2 H 0.0287 0.9923 0.5854
N6_2 N 0.0195(5) 0.8034(3) 0.5291(3)
C27_2 C 0.1235(5) 0.7959(4) 0.5914(3)
H21_2 H 0.2158 0.8240 0.5959
C29_2 C 0.0644(6) 0.7410(4) 0.6424(4)
H23_2 H 0.1122 0.7227 0.6926
C30_2 C 0.0377(7) 0.8668(4) 0.4576(4)
H24_2 H 0.1402 0.8761 0.4520
N1_2 N 0.9805(5) 0.1966(3) 0.4709(3)
C9_2 C 0.8765(5) 0.2041(4) 0.4086(3)
H4_2 H 0.7842 0.1760 0.4041
C11_2 C 0.9356(6) 0.2590(4) 0.3576(4)
H6_2 H 0.8878 0.2773 0.3074
C12_2 C 0.9623(7) 0.1332(4) 0.5424(4)
H7_2 H 0.8598 0.1239 0.5480
C15_2 C 0.9839(6) 0.5973(4) 0.0871(3)
H12_2 H 0.9930 0.6701 0.0860
H13_2 H 0.8874 0.5810 0.1018
H14_2 H 0.9777 0.4759 0.2252
H27_2 H 0.9713 0.0077 0.4146
H34_2 H 0.9019 0.4235 0.0129
loop_
_geom_bond_atom_site_label_1
_geom_bond_atom_site_label_2
_geom_bond_site_symmetry_1
_geom_bond_site_symmetry_2
N5 C14 1_555 1_555
C14 H11 1_555 1_555
C15 N5 1_555 1_555
H12 C15 1_555 1_555
H13 C15 1_555 1_555
H15 C17 1_555 1_555
C18 C15 1_555 1_555
H16 C18 1_555 1_555
H17 C18 1_555 1_555
Zn5 N10 1_555 1_555
N10 C34 1_555 1_555
H31 C34 1_555 1_555
C14 C17 1_555 1_555
H7 C12 1_555 1_555
H8 C12 1_555 1_555
C13 C12 1_555 1_555
H9 C13 1_555 1_555
H10 C13 1_555 1_555
Zn5 N7 1_555 1_555
N6 C27 1_555 1_555
N7 C28 1_555 1_555
C27 H21 1_555 1_555
C28 N6 1_555 1_555
H22 C28 1_555 1_555
C29 N7 1_555 1_555
H23 C29 1_555 1_555
C27 C29 1_555 1_555
Zn3 O6 1_555 1_555
O6 C21 1_555 1_555
C21 O9 1_555 1_555
C23 C19 1_555 1_555
C25 C23 1_555 1_555
H20 C25 1_555 1_555
C26 N9 1_555 1_555
C21 C23 1_555 1_555
C25 C26 1_555 1_555
Zn5 O5 1_555 1_555
O5 C22 1_555 1_555
O7 Zn5 1_555 1_555
Zn3 O1 1_555 1_555
O1 C4 1_555 1_555
O7 C3 1_555 1_555
N2 Zn3 1_555 1_555
C1 H1_2 1_555 1_555
C2 C1 1_555 1_555
C3 O3 1_555 1_555
C4 C2 1_555 1_555
N3 C8 1_555 1_555
C5 C1 1_555 1_555
C6 C2 1_555 1_555
H2 C6 1_555 1_555
C7 C5 1_555 1_555
H3 C7 1_555 1_555
C8 C6 1_555 1_555
O4 C4 1_555 1_555
H5 C10 1_555 1_555
N4 Zn3 1_555 1_555
H9_2 C13_2 1_555 1_555
N5_2 C14_2 1_555 1_555
C14_2 H11_2 1_555 1_555
C16 N4 1_555 1_555
C17_2 N4 1_555 1_555
H15_2 C17_2 1_555 1_555
N2 C10 1_555 1_555
C3 C5 1_555 1_555
C7 C8 1_555 1_555
N5_2 C16 1_555 1_555
C14_2 C17_2 1_555 1_555
Zn1 O1_2 1_555 1_555
O1_2 C4_2 1_555 1_555
N1 C9 1_555 1_555
N2_2 Zn1 1_555 1_555
C9 H4 1_555 1_555
C10_2 N1 1_555 1_555
H5_2 C10_2 1_555 1_555
C11 N2_2 1_555 1_555
H6 C11 1_555 1_555
N4_2 Zn1 1_555 1_555
C16_2 N4_2 1_555 1_555
H14 C16_2 1_555 1_555
O8 Zn1 1_555 1_555
H24 C30 1_555 1_555
H25 C30 1_555 1_555
H26 C31 1_555 1_555
H27 C31 1_555 1_555
N12 C32 1_555 1_555
C32 H28 1_555 1_555
C33 N12 1_555 1_555
H29 C33 1_555 1_555
H30 C33 1_555 1_555
H32 C35 1_555 1_555
H33_2 C36 1_555 1_555
H34 C36 1_555 1_555
N2_2 C10_2 1_555 1_555
C9 C11 1_555 1_555
C30 C31 1_555 1_555
C32 C35 1_555 1_555
C33 C36 1_555 1_555
O2 C3_2 1_555 1_555
C3_2 O3_2 1_555 1_555
N3_2 C8_2 1_555 1_555
C5_2 C1_2 1_555 1_555
C7_2 C5_2 1_555 1_555
H3_2 C7_2 1_555 1_555
Zn6 O2 1_555 1_555
C3_2 C5_2 1_555 1_555
C7_2 C8_2 1_555 1_555
Zn6 O5_2 1_555 1_555
O5_2 C22_2 1_555 1_555
O8 C21_2 1_555 1_555
N8 Zn6 1_555 1_555
C19_2 H18_2 1_555 1_555
C20 C19_2 1_555 1_555
C21_2 O9_2 1_555 1_555
C22_2 C20 1_555 1_555
C23_2 C19_2 1_555 1_555
C24 C20 1_555 1_555
H19 C24 1_555 1_555
C25_2 C23_2 1_555 1_555
H20_2 C25_2 1_555 1_555
C26_2 N9_2 1_555 1_555
O10 C22_2 1_555 1_555
N11 Zn6 1_555 1_555
C21_2 C23_2 1_555 1_555
C24 C26_2 1_555 1_555
C25_2 C26_2 1_555 1_555
N11 C34_2 1_555 1_555
N12_2 C32_2 1_555 1_555
C32_2 H28_2 1_555 1_555
C34_2 N12_2 1_555 1_555
C35_2 N11 1_555 1_555
H32_2 C35_2 1_555 1_555
C32_2 C35_2 1_555 1_555
N8 C28_2 1_555 1_555
H22_2 C28_2 1_555 1_555
H26_2 C31_2 1_555 1_555
C24_2 C20_2 1_555 1_555
H19_2 C24_2 1_555 1_555
C6_2 C2_2 1_555 1_555
H2_2 C6_2 1_555 1_555
H29_2 C33_2 1_555 1_555
H30_2 C33_2 1_555 1_555
N6_2 C27_2 1_555 1_555
C27_2 H21_2 1_555 1_555
H23_2 C29_2 1_555 1_555
C30_2 N6_2 1_555 1_555
H24_2 C30_2 1_555 1_555
C27_2 C29_2 1_555 1_555
N1_2 C9_2 1_555 1_555
C9_2 H4_2 1_555 1_555
H6_2 C11_2 1_555 1_555
C12_2 N1_2 1_555 1_555
H7_2 C12_2 1_555 1_555
H12_2 C15_2 1_555 1_555
H13_2 C15_2 1_555 1_555
C9_2 C11_2 1_555 1_555

#END
