
###############################################################################
#
# This file contains modified crystal structure data generated from the
# MOF subset of the Cambridge Structural Database (CSD) v543 
# hosted by the Cambridge Crystallographic Data Centre (CCDC).
#
# This work is licensed under the Creative Commons
# Attribution-NonCommercial-ShareAlike 4.0 International License.
# To view a copy of this license, visit
# http://creativecommons.org/licenses/by-nc-sa/4.0/
# or send a letter to
# Creative Commons, PO Box 1866, Mountain View, CA 94042, USA.
#
# CIF created using the CSD Python API on 29 September 2022
# The structure has been converted into the P1 space group
# The structure has a 3D framework
# The original CSD entry RAXYOF is in the monoclinic crystal system
# The framework has been calculated to contain at least 10.0% void space
# The void calculation uses a probe of radius 1.32A, grid spacing 0.4
#
###############################################################################

data_RAXYOF
_chemical_formula_moiety         '(C96 H80 Mn8 N76)n'
_symmetry_cell_setting           triclinic
_symmetry_space_group_name_H-M   'P 1'
_symmetry_Int_Tables_number      1
_space_group_name_Hall           'P 1'
loop_
_symmetry_equiv_pos_site_id
_symmetry_equiv_pos_as_xyz
1 x,y,z
_cell_length_a                   27.8153(5)
_cell_length_b                   8.6615(2)
_cell_length_c                   15.2390(3)
_cell_angle_alpha                90
_cell_angle_beta                 103.6010(10)
_cell_angle_gamma                90
_cell_volume                     3568.46
loop_
_atom_site_label
_atom_site_type_symbol
_atom_site_fract_x
_atom_site_fract_y
_atom_site_fract_z
Mn1 Mn 0.75326(2) 0.24496(6) 0.61615(4)
N1 N 0.69032(12) 0.4217(4) 0.6032(2)
N2 N 0.52533(13) 0.5359(5) 0.6224(3)
N3 N 0.48084(13) 0.4571(5) 0.6284(3)
N4 N 0.31488(11) 0.5636(4) 0.6430(2)
N5 N 0.78492(13) 0.3695(4) 0.5126(2)
N6 N 0.82576(15) 0.4243(4) 0.5241(2)
N7 N 0.86478(17) 0.4758(6) 0.5354(3)
N8 N 0.79839(14) 0.3927(5) 0.7196(2)
N9 N 0.79211(11) 0.4991(4) 0.7625(2)
N10 N 0.78720(14) 0.6064(5) 0.8044(3)
C1 C 0.64457(14) 0.3836(5) 0.6109(3)
H1 H 0.6377 0.2801 0.6189
C2 C 0.69926(15) 0.5700(5) 0.5905(3)
H2 H 0.7304 0.5979 0.5836
C3 C 0.66429(17) 0.6841(5) 0.5872(3)
H3 H 0.6721 0.7868 0.5793
C4 C 0.61787(17) 0.6442(6) 0.5956(3)
H4 H 0.5937 0.7194 0.5933
C5 C 0.60736(14) 0.4899(5) 0.6076(3)
C6 C 0.55880(15) 0.4369(6) 0.6169(3)
H5 H 0.5523 0.3319 0.6188
C7 C 0.44749(15) 0.5549(6) 0.6363(3)
H6 H 0.4542 0.6602 0.6381
C8 C 0.39871(14) 0.4986(5) 0.6423(3)
C9 C 0.38770(16) 0.3434(5) 0.6472(3)
H7 H 0.4119 0.2690 0.6477
C10 C 0.34108(18) 0.3005(5) 0.6514(3)
H8 H 0.3332 0.1970 0.6566
C11 C 0.30570(15) 0.4145(5) 0.6480(3)
H9 H 0.2738 0.3845 0.6491
C12 C 0.36149(14) 0.6041(5) 0.6420(3)
H10 H 0.3690 0.7087 0.6411
Mn2 Mn 0.25326(2) 0.74496(6) 0.61615(4)
Mn3 Mn 0.74674(2) 0.25504(6) 0.38385(4)
Mn4 Mn 0.74674(2) 0.74496(6) 0.88385(4)
N11 N 0.81488(11) 0.0636(4) 0.6430(2)
N12 N 0.71508(13) 0.1305(4) 0.4874(2)
N13 N 0.71280(14) 0.1064(5) 0.6956(3)
N2_2 N 0.02533(13) 0.0359(5) 0.6224(3)
N10_2 N 0.28720(14) 0.1064(5) 0.8044(3)
C2_2 C 0.19926(15) 0.0700(5) 0.5905(3)
H2_2 H 0.2304 0.0979 0.5836
C3_2 C 0.16429(17) 0.1841(5) 0.5872(3)
H3_2 H 0.1721 0.2868 0.5793
C4_2 C 0.11787(17) 0.1442(6) 0.5956(3)
H4_2 H 0.0937 0.2194 0.5933
Mn4_2 Mn 0.24674(2) 0.24496(6) 0.88385(4)
N1_2 N 0.19032(12) 0.9217(4) 0.6032(2)
N5_2 N 0.28492(13) 0.8695(4) 0.5126(2)
N6_2 N 0.32576(15) 0.9243(4) 0.5241(2)
N7_2 N 0.36478(17) 0.9758(6) 0.5354(3)
N8_2 N 0.29839(14) 0.8927(5) 0.7196(2)
N9_2 N 0.29211(11) 0.9991(4) 0.7625(2)
C1_2 C 0.14457(14) 0.8836(5) 0.6109(3)
H1_2 H 0.1377 0.7801 0.6189
C5_2 C 0.10736(14) 0.9899(5) 0.6076(3)
C6_2 C 0.05880(15) 0.9369(6) 0.6169(3)
H5_2 H 0.0523 0.8319 0.6188
Mn3_2 Mn 0.24674(2) 0.75504(6) 0.38385(4)
N12_2 N 0.21508(13) 0.6305(4) 0.4874(2)
N13_2 N 0.21280(14) 0.6064(5) 0.6956(3)
C7_2 C 0.94749(15) 0.0549(6) 0.6363(3)
H6_2 H 0.9542 0.1602 0.6381
C12_2 C 0.86149(14) 0.1041(5) 0.6420(3)
H10_2 H 0.8690 0.2087 0.6411
Mn3_3 Mn 0.25326(2) 0.25504(6) 0.11615(4)
N12_3 N 0.28492(13) 0.1305(4) 0.0126(2)
N1_3 N 0.30968(12) 0.4217(4) 0.8968(2)
N2_3 N 0.47467(13) 0.5359(5) 0.8776(3)
N3_2 N 0.51916(13) 0.4571(5) 0.8716(3)
N4_2 N 0.68512(11) 0.5636(4) 0.8570(2)
N5_3 N 0.21508(13) 0.3695(4) 0.9874(2)
N6_3 N 0.17424(15) 0.4243(4) 0.9759(2)
N7_3 N 0.13522(17) 0.4758(6) 0.9646(3)
N8_3 N 0.20161(14) 0.3927(5) 0.7804(2)
N9_3 N 0.20789(11) 0.4991(4) 0.7375(2)
C1_3 C 0.35543(14) 0.3836(5) 0.8891(3)
H1_3 H 0.3623 0.2801 0.8811
C2_3 C 0.30074(15) 0.5700(5) 0.9095(3)
H2_3 H 0.2696 0.5979 0.9164
C3_3 C 0.33571(17) 0.6841(5) 0.9128(3)
H3_3 H 0.3279 0.7868 0.9207
C4_3 C 0.38213(17) 0.6442(6) 0.9044(3)
H4_3 H 0.4063 0.7194 0.9067
C5_3 C 0.39264(14) 0.4899(5) 0.8924(3)
C6_3 C 0.44120(15) 0.4369(6) 0.8831(3)
H5_3 H 0.4477 0.3319 0.8812
C7_3 C 0.55251(15) 0.5549(6) 0.8637(3)
H6_3 H 0.5458 0.6602 0.8619
C8_2 C 0.60129(14) 0.4986(5) 0.8577(3)
C9_2 C 0.61230(16) 0.3434(5) 0.8528(3)
H7_2 H 0.5881 0.2690 0.8523
C10_2 C 0.65892(18) 0.3005(5) 0.8486(3)
H8_2 H 0.6668 0.1970 0.8434
C11_2 C 0.69430(15) 0.4145(5) 0.8520(3)
H9_2 H 0.7262 0.3845 0.8509
C12_3 C 0.63851(14) 0.6041(5) 0.8580(3)
H10_3 H 0.6310 0.7087 0.8589
N11_2 N 0.18512(11) 0.0636(4) 0.8570(2)
C7_4 C 0.05251(15) 0.0549(6) 0.8637(3)
H6_4 H 0.0458 0.1602 0.8619
C12_4 C 0.13851(14) 0.1041(5) 0.8580(3)
H10_4 H 0.1310 0.2087 0.8589
N2_4 N 0.97467(13) 0.0359(5) 0.8776(3)
C2_4 C 0.80074(15) 0.0700(5) 0.9095(3)
H2_4 H 0.7696 0.0979 0.9164
C3_4 C 0.83571(17) 0.1841(5) 0.9128(3)
H3_4 H 0.8279 0.2868 0.9207
C4_4 C 0.88213(17) 0.1442(6) 0.9044(3)
H4_4 H 0.9063 0.2194 0.9067
Mn3_4 Mn 0.75326(2) 0.75504(6) 0.11615(4)
N12_4 N 0.78492(13) 0.6305(4) 0.0126(2)
N1_4 N 0.80968(12) 0.9217(4) 0.8968(2)
N5_4 N 0.71508(13) 0.8695(4) 0.9874(2)
N6_4 N 0.67424(15) 0.9243(4) 0.9759(2)
N7_4 N 0.63522(17) 0.9758(6) 0.9646(3)
N8_4 N 0.70161(14) 0.8927(5) 0.7804(2)
N9_4 N 0.70789(11) 0.9991(4) 0.7375(2)
C1_4 C 0.85543(14) 0.8836(5) 0.8891(3)
H1_4 H 0.8623 0.7801 0.8811
C5_4 C 0.89264(14) 0.9899(5) 0.8924(3)
C6_4 C 0.94120(15) 0.9369(6) 0.8831(3)
H5_4 H 0.9477 0.8319 0.8812
N1_5 N 0.30968(12) 0.5783(4) 0.3968(2)
N2_5 N 0.47467(13) 0.4641(5) 0.3776(3)
N3_3 N 0.51916(13) 0.5429(5) 0.3716(3)
N4_3 N 0.68512(11) 0.4364(4) 0.3570(2)
N6_5 N 0.17424(15) 0.5757(4) 0.4759(2)
N7_5 N 0.13522(17) 0.5242(6) 0.4646(3)
N8_5 N 0.20161(14) 0.6073(5) 0.2804(2)
N9_5 N 0.20789(11) 0.5009(4) 0.2375(2)
N10_3 N 0.21280(14) 0.3936(5) 0.1956(3)
C1_5 C 0.35543(14) 0.6164(5) 0.3891(3)
H1_5 H 0.3623 0.7199 0.3811
C2_5 C 0.30074(15) 0.4300(5) 0.4095(3)
H2_5 H 0.2696 0.4021 0.4164
C3_5 C 0.33571(17) 0.3159(5) 0.4128(3)
H3_5 H 0.3279 0.2132 0.4207
C4_5 C 0.38213(17) 0.3558(6) 0.4044(3)
H4_5 H 0.4063 0.2806 0.4067
C5_5 C 0.39264(14) 0.5101(5) 0.3924(3)
C6_5 C 0.44120(15) 0.5631(6) 0.3831(3)
H5_5 H 0.4477 0.6681 0.3812
C7_5 C 0.55251(15) 0.4451(6) 0.3637(3)
H6_5 H 0.5458 0.3398 0.3619
C8_3 C 0.60129(14) 0.5014(5) 0.3577(3)
C9_3 C 0.61230(16) 0.6566(5) 0.3528(3)
H7_3 H 0.5881 0.7310 0.3523
C10_3 C 0.65892(18) 0.6995(5) 0.3486(3)
H8_3 H 0.6668 0.8030 0.3434
C11_3 C 0.69430(15) 0.5855(5) 0.3520(3)
H9_3 H 0.7262 0.6155 0.3509
C12_5 C 0.63851(14) 0.3959(5) 0.3580(3)
H10_5 H 0.6310 0.2913 0.3589
N11_3 N 0.18512(11) 0.9364(4) 0.3570(2)
N13_3 N 0.28720(14) 0.8936(5) 0.3044(3)
C7_6 C 0.05251(15) 0.9451(6) 0.3637(3)
H6_6 H 0.0458 0.8398 0.3619
C12_6 C 0.13851(14) 0.8959(5) 0.3580(3)
H10_6 H 0.1310 0.7913 0.3589
N1_6 N 0.80968(12) 0.0783(4) 0.3968(2)
N6_6 N 0.67424(15) 0.0757(4) 0.4759(2)
N7_6 N 0.63522(17) 0.0242(6) 0.4646(3)
N8_6 N 0.70161(14) 0.1073(5) 0.2804(2)
N9_6 N 0.70789(11) 0.0009(4) 0.2375(2)
C1_6 C 0.85543(14) 0.1164(5) 0.3891(3)
H1_6 H 0.8623 0.2199 0.3811
C5_6 C 0.89264(14) 0.0101(5) 0.3924(3)
C6_6 C 0.94120(15) 0.0631(6) 0.3831(3)
H5_6 H 0.9477 0.1681 0.3812
N13_4 N 0.78720(14) 0.3936(5) 0.3044(3)
N2_6 N 0.97467(13) 0.9641(5) 0.3776(3)
N10_4 N 0.71280(14) 0.8936(5) 0.1956(3)
C2_6 C 0.80074(15) 0.9300(5) 0.4095(3)
H2_6 H 0.7696 0.9021 0.4164
C3_6 C 0.83571(17) 0.8159(5) 0.4128(3)
H3_6 H 0.8279 0.7132 0.4207
C4_6 C 0.88213(17) 0.8558(6) 0.4044(3)
H4_6 H 0.9063 0.7806 0.4067
N1_7 N 0.69032(12) 0.5783(4) 0.1032(2)
N2_7 N 0.52533(13) 0.4641(5) 0.1224(3)
N3_4 N 0.48084(13) 0.5429(5) 0.1284(3)
N4_4 N 0.31488(11) 0.4364(4) 0.1430(2)
N6_7 N 0.82576(15) 0.5757(4) 0.0241(2)
N7_7 N 0.86478(17) 0.5242(6) 0.0354(3)
N8_7 N 0.79839(14) 0.6073(5) 0.2196(2)
N9_7 N 0.79211(11) 0.5009(4) 0.2625(2)
C1_7 C 0.64457(14) 0.6164(5) 0.1109(3)
H1_7 H 0.6377 0.7199 0.1189
C2_7 C 0.69926(15) 0.4300(5) 0.0905(3)
H2_7 H 0.7304 0.4021 0.0836
C3_7 C 0.66429(17) 0.3159(5) 0.0872(3)
H3_7 H 0.6721 0.2132 0.0793
C4_7 C 0.61787(17) 0.3558(6) 0.0956(3)
H4_7 H 0.5937 0.2806 0.0933
C5_7 C 0.60736(14) 0.5101(5) 0.1076(3)
C6_7 C 0.55880(15) 0.5631(6) 0.1169(3)
H5_7 H 0.5523 0.6681 0.1188
C7_7 C 0.44749(15) 0.4451(6) 0.1363(3)
H6_7 H 0.4542 0.3398 0.1381
C8_4 C 0.39871(14) 0.5014(5) 0.1423(3)
C9_4 C 0.38770(16) 0.6566(5) 0.1472(3)
H7_4 H 0.4119 0.7310 0.1477
C10_4 C 0.34108(18) 0.6995(5) 0.1514(3)
H8_4 H 0.3332 0.8030 0.1566
C11_4 C 0.30570(15) 0.5855(5) 0.1480(3)
H9_4 H 0.2738 0.6155 0.1491
C12_7 C 0.36149(14) 0.3959(5) 0.1420(3)
H10_7 H 0.3690 0.2913 0.1411
N11_4 N 0.81488(11) 0.9364(4) 0.1430(2)
N1_8 N 0.19032(12) 0.0783(4) 0.1032(2)
N6_8 N 0.32576(15) 0.0757(4) 0.0241(2)
N7_8 N 0.36478(17) 0.0242(6) 0.0354(3)
N8_8 N 0.29839(14) 0.1073(5) 0.2196(2)
N9_8 N 0.29211(11) 0.0009(4) 0.2625(2)
C1_8 C 0.14457(14) 0.1164(5) 0.1109(3)
H1_8 H 0.1377 0.2199 0.1189
C5_8 C 0.10736(14) 0.0101(5) 0.1076(3)
C6_8 C 0.05880(15) 0.0631(6) 0.1169(3)
H5_8 H 0.0523 0.1681 0.1188
N2_8 N 0.02533(13) 0.9641(5) 0.1224(3)
C2_8 C 0.19926(15) 0.9300(5) 0.0905(3)
H2_8 H 0.2304 0.9021 0.0836
C3_8 C 0.16429(17) 0.8159(5) 0.0872(3)
H3_8 H 0.1721 0.7132 0.0793
C4_8 C 0.11787(17) 0.8558(6) 0.0956(3)
H4_8 H 0.0937 0.7806 0.0933
C7_8 C 0.94749(15) 0.9451(6) 0.1363(3)
H6_8 H 0.9542 0.8398 0.1381
C12_8 C 0.86149(14) 0.8959(5) 0.1420(3)
H10_8 H 0.8690 0.7913 0.1411
N3_5 N 0.98084(13) 0.9571(5) 0.6284(3)
C8_5 C 0.89871(14) 0.9986(5) 0.6423(3)
C9_5 C 0.88770(16) 0.8434(5) 0.6472(3)
H7_5 H 0.9119 0.7690 0.6477
C10_5 C 0.84108(18) 0.8005(5) 0.6514(3)
H8_5 H 0.8332 0.6970 0.6566
C11_5 C 0.80570(15) 0.9145(5) 0.6480(3)
H9_5 H 0.7738 0.8845 0.6491
N3_6 N 0.01916(13) 0.9571(5) 0.8716(3)
C8_6 C 0.10129(14) 0.9986(5) 0.8577(3)
C9_6 C 0.11230(16) 0.8434(5) 0.8528(3)
H7_6 H 0.0881 0.7690 0.8523
C10_6 C 0.15892(18) 0.8005(5) 0.8486(3)
H8_6 H 0.1668 0.6970 0.8434
C11_6 C 0.19430(15) 0.9145(5) 0.8520(3)
H9_6 H 0.2262 0.8845 0.8509
N3_7 N 0.01916(13) 0.0429(5) 0.3716(3)
C8_7 C 0.10129(14) 0.0014(5) 0.3577(3)
C9_7 C 0.11230(16) 0.1566(5) 0.3528(3)
H7_7 H 0.0881 0.2310 0.3523
C10_7 C 0.15892(18) 0.1995(5) 0.3486(3)
H8_7 H 0.1668 0.3030 0.3434
C11_7 C 0.19430(15) 0.0855(5) 0.3520(3)
H9_7 H 0.2262 0.1155 0.3509
N3_8 N 0.98084(13) 0.0429(5) 0.1284(3)
C8_8 C 0.89871(14) 0.0014(5) 0.1423(3)
C9_8 C 0.88770(16) 0.1566(5) 0.1472(3)
H7_8 H 0.9119 0.2310 0.1477
C10_8 C 0.84108(18) 0.1995(5) 0.1514(3)
H8_8 H 0.8332 0.3030 0.1566
C11_8 C 0.80570(15) 0.0855(5) 0.1480(3)
H9_8 H 0.7738 0.1155 0.1491
loop_
_geom_bond_atom_site_label_1
_geom_bond_atom_site_label_2
_geom_bond_site_symmetry_1
_geom_bond_site_symmetry_2
Mn1 N1 1_555 1_555
N1 C1 1_555 1_555
N2 N3 1_555 1_555
N3 C7 1_555 1_555
N4 C11 1_555 1_555
N5 Mn1 1_555 1_555
N6 N5 1_555 1_555
N7 N6 1_555 1_555
N8 Mn1 1_555 1_555
N9 N8 1_555 1_555
N10 N9 1_555 1_555
C1 H1 1_555 1_555
C2 N1 1_555 1_555
H2 C2 1_555 1_555
C3 C2 1_555 1_555
H3 C3 1_555 1_555
C4 C3 1_555 1_555
H4 C4 1_555 1_555
C5 C1 1_555 1_555
C6 N2 1_555 1_555
H5 C6 1_555 1_555
C7 H6 1_555 1_555
C8 C7 1_555 1_555
C9 C8 1_555 1_555
H7 C9 1_555 1_555
C10 C9 1_555 1_555
H8 C10 1_555 1_555
C11 C10 1_555 1_555
H9 C11 1_555 1_555
C12 N4 1_555 1_555
H10 C12 1_555 1_555
Mn2 N4 1_555 1_555
Mn3 N5 1_555 1_555
Mn4 N10 1_555 1_555
N11 Mn1 1_555 1_555
N12 Mn1 1_555 1_555
N13 Mn1 1_555 1_555
C4 C5 1_555 1_555
C5 C6 1_555 1_555
C8 C12 1_555 1_555
Mn3 N12 1_555 1_555
H2_2 C2_2 1_555 1_555
C3_2 C2_2 1_555 1_555
H3_2 C3_2 1_555 1_555
C4_2 C3_2 1_555 1_555
H4_2 C4_2 1_555 1_555
Mn4_2 N10_2 1_555 1_555
Mn2 N1_2 1_555 1_555
N1_2 C1_2 1_555 1_555
N5_2 Mn2 1_555 1_555
N6_2 N5_2 1_555 1_555
N7_2 N6_2 1_555 1_555
N8_2 Mn2 1_555 1_555
N9_2 N8_2 1_555 1_555
C1_2 H1_2 1_555 1_555
C5_2 C1_2 1_555 1_555
H5_2 C6_2 1_555 1_555
Mn3_2 N5_2 1_555 1_555
N12_2 Mn2 1_555 1_555
N13_2 Mn2 1_555 1_555
C5_2 C6_2 1_555 1_555
Mn3_2 N12_2 1_555 1_555
C7_2 H6_2 1_555 1_555
C12_2 N11 1_555 1_555
H10_2 C12_2 1_555 1_555
Mn3_3 N12_3 1_555 1_555
Mn4_2 N1_3 1_555 1_555
N1_3 C1_3 1_555 1_555
N2_3 N3_2 1_555 1_555
N3_2 C7_3 1_555 1_555
N4_2 C11_2 1_555 1_555
N5_3 Mn4_2 1_555 1_555
N6_3 N5_3 1_555 1_555
N7_3 N6_3 1_555 1_555
N8_3 Mn4_2 1_555 1_555
N9_3 N8_3 1_555 1_555
N13_2 N9_3 1_555 1_555
C1_3 H1_3 1_555 1_555
C2_3 N1_3 1_555 1_555
H2_3 C2_3 1_555 1_555
C3_3 C2_3 1_555 1_555
H3_3 C3_3 1_555 1_555
C4_3 C3_3 1_555 1_555
H4_3 C4_3 1_555 1_555
C5_3 C1_3 1_555 1_555
C6_3 N2_3 1_555 1_555
H5_3 C6_3 1_555 1_555
C7_3 H6_3 1_555 1_555
C8_2 C7_3 1_555 1_555
C9_2 C8_2 1_555 1_555
H7_2 C9_2 1_555 1_555
C10_2 C9_2 1_555 1_555
H8_2 C10_2 1_555 1_555
C11_2 C10_2 1_555 1_555
H9_2 C11_2 1_555 1_555
C12_3 N4_2 1_555 1_555
H10_3 C12_3 1_555 1_555
Mn4 N4_2 1_555 1_555
N11_2 Mn4_2 1_555 1_555
C4_3 C5_3 1_555 1_555
C5_3 C6_3 1_555 1_555
C8_2 C12_3 1_555 1_555
C7_4 H6_4 1_555 1_555
C12_4 N11_2 1_555 1_555
H10_4 C12_4 1_555 1_555
H2_4 C2_4 1_555 1_555
C3_4 C2_4 1_555 1_555
H3_4 C3_4 1_555 1_555
C4_4 C3_4 1_555 1_555
H4_4 C4_4 1_555 1_555
Mn3_4 N12_4 1_555 1_555
Mn4 N1_4 1_555 1_555
N1_4 C1_4 1_555 1_555
N5_4 Mn4 1_555 1_555
N6_4 N5_4 1_555 1_555
N7_4 N6_4 1_555 1_555
N8_4 Mn4 1_555 1_555
N9_4 N8_4 1_555 1_555
C1_4 H1_4 1_555 1_555
C5_4 C1_4 1_555 1_555
H5_4 C6_4 1_555 1_555
C5_4 C6_4 1_555 1_555
Mn3_2 N1_5 1_555 1_555
N1_5 C1_5 1_555 1_555
N2_5 N3_3 1_555 1_555
N3_3 C7_5 1_555 1_555
N4_3 C11_3 1_555 1_555
N6_5 N12_2 1_555 1_555
N7_5 N6_5 1_555 1_555
N8_5 Mn3_2 1_555 1_555
N9_5 N8_5 1_555 1_555
N10_3 N9_5 1_555 1_555
C1_5 H1_5 1_555 1_555
C2_5 N1_5 1_555 1_555
H2_5 C2_5 1_555 1_555
C3_5 C2_5 1_555 1_555
H3_5 C3_5 1_555 1_555
C4_5 C3_5 1_555 1_555
H4_5 C4_5 1_555 1_555
C5_5 C1_5 1_555 1_555
C6_5 N2_5 1_555 1_555
H5_5 C6_5 1_555 1_555
C7_5 H6_5 1_555 1_555
C8_3 C7_5 1_555 1_555
C9_3 C8_3 1_555 1_555
H7_3 C9_3 1_555 1_555
C10_3 C9_3 1_555 1_555
H8_3 C10_3 1_555 1_555
C11_3 C10_3 1_555 1_555
H9_3 C11_3 1_555 1_555
C12_5 N4_3 1_555 1_555
H10_5 C12_5 1_555 1_555
Mn3 N4_3 1_555 1_555
Mn3_3 N10_3 1_555 1_555
N11_3 Mn3_2 1_555 1_555
N13_3 Mn3_2 1_555 1_555
C4_5 C5_5 1_555 1_555
C5_5 C6_5 1_555 1_555
C8_3 C12_5 1_555 1_555
C7_6 H6_6 1_555 1_555
C12_6 N11_3 1_555 1_555
H10_6 C12_6 1_555 1_555
Mn3 N1_6 1_555 1_555
N1_6 C1_6 1_555 1_555
N6_6 N12 1_555 1_555
N7_6 N6_6 1_555 1_555
N8_6 Mn3 1_555 1_555
N9_6 N8_6 1_555 1_555
C1_6 H1_6 1_555 1_555
C5_6 C1_6 1_555 1_555
H5_6 C6_6 1_555 1_555
N13_4 Mn3 1_555 1_555
C5_6 C6_6 1_555 1_555
H2_6 C2_6 1_555 1_555
C3_6 C2_6 1_555 1_555
H3_6 C3_6 1_555 1_555
C4_6 C3_6 1_555 1_555
H4_6 C4_6 1_555 1_555
Mn3_4 N10_4 1_555 1_555
Mn3_4 N1_7 1_555 1_555
N1_7 C1_7 1_555 1_555
N2_7 N3_4 1_555 1_555
N3_4 C7_7 1_555 1_555
N4_4 C11_4 1_555 1_555
N6_7 N12_4 1_555 1_555
N7_7 N6_7 1_555 1_555
N8_7 Mn3_4 1_555 1_555
N9_7 N8_7 1_555 1_555
N13_4 N9_7 1_555 1_555
C1_7 H1_7 1_555 1_555
C2_7 N1_7 1_555 1_555
H2_7 C2_7 1_555 1_555
C3_7 C2_7 1_555 1_555
H3_7 C3_7 1_555 1_555
C4_7 C3_7 1_555 1_555
H4_7 C4_7 1_555 1_555
C5_7 C1_7 1_555 1_555
C6_7 N2_7 1_555 1_555
H5_7 C6_7 1_555 1_555
C7_7 H6_7 1_555 1_555
C8_4 C7_7 1_555 1_555
C9_4 C8_4 1_555 1_555
H7_4 C9_4 1_555 1_555
C10_4 C9_4 1_555 1_555
H8_4 C10_4 1_555 1_555
C11_4 C10_4 1_555 1_555
H9_4 C11_4 1_555 1_555
C12_7 N4_4 1_555 1_555
H10_7 C12_7 1_555 1_555
Mn3_3 N4_4 1_555 1_555
N11_4 Mn3_4 1_555 1_555
C4_7 C5_7 1_555 1_555
C5_7 C6_7 1_555 1_555
C8_4 C12_7 1_555 1_555
Mn3_3 N1_8 1_555 1_555
N1_8 C1_8 1_555 1_555
N6_8 N12_3 1_555 1_555
N7_8 N6_8 1_555 1_555
N8_8 Mn3_3 1_555 1_555
N9_8 N8_8 1_555 1_555
C1_8 H1_8 1_555 1_555
C5_8 C1_8 1_555 1_555
H5_8 C6_8 1_555 1_555
C5_8 C6_8 1_555 1_555
H2_8 C2_8 1_555 1_555
C3_8 C2_8 1_555 1_555
H3_8 C3_8 1_555 1_555
C4_8 C3_8 1_555 1_555
H4_8 C4_8 1_555 1_555
C7_8 H6_8 1_555 1_555
C12_8 N11_4 1_555 1_555
H10_8 C12_8 1_555 1_555
C9_5 C8_5 1_555 1_555
H7_5 C9_5 1_555 1_555
C10_5 C9_5 1_555 1_555
H8_5 C10_5 1_555 1_555
C11_5 C10_5 1_555 1_555
H9_5 C11_5 1_555 1_555
C9_6 C8_6 1_555 1_555
H7_6 C9_6 1_555 1_555
C10_6 C9_6 1_555 1_555
H8_6 C10_6 1_555 1_555
C11_6 C10_6 1_555 1_555
H9_6 C11_6 1_555 1_555
C9_7 C8_7 1_555 1_555
H7_7 C9_7 1_555 1_555
C10_7 C9_7 1_555 1_555
H8_7 C10_7 1_555 1_555
C11_7 C10_7 1_555 1_555
H9_7 C11_7 1_555 1_555
C9_8 C8_8 1_555 1_555
H7_8 C9_8 1_555 1_555
C10_8 C9_8 1_555 1_555
H8_8 C10_8 1_555 1_555
C11_8 C10_8 1_555 1_555
H9_8 C11_8 1_555 1_555

#END
