
###############################################################################
#
# This file contains modified crystal structure data generated from the
# MOF subset of the Cambridge Structural Database (CSD) v543 
# hosted by the Cambridge Crystallographic Data Centre (CCDC).
#
# This work is licensed under the Creative Commons
# Attribution-NonCommercial-ShareAlike 4.0 International License.
# To view a copy of this license, visit
# http://creativecommons.org/licenses/by-nc-sa/4.0/
# or send a letter to
# Creative Commons, PO Box 1866, Mountain View, CA 94042, USA.
#
# CIF created using the CSD Python API on 29 September 2022
# The structure has been converted into the P1 space group
# The structure has a 3D framework
# The original CSD entry RAYFAA is in the rhombohedral crystal system
# The framework has been calculated to contain at least 10.0% void space
# The void calculation uses a probe of radius 1.32A, grid spacing 0.4
#
###############################################################################

data_RAYFAA
_chemical_formula_moiety         '(C450 H504 Cu72 N288 O194 S36)n'
_symmetry_cell_setting           triclinic
_symmetry_space_group_name_H-M   'P 1'
_symmetry_Int_Tables_number      1
_space_group_name_Hall           'P 1'
loop_
_symmetry_equiv_pos_site_id
_symmetry_equiv_pos_as_xyz
1 x,y,z
_cell_length_a                   41.3528(18)
_cell_length_b                   41.3528(18)
_cell_length_c                   18.2765(15)
_cell_angle_alpha                90
_cell_angle_beta                 90
_cell_angle_gamma                120
_cell_volume                     27066.6
loop_
_atom_site_label
_atom_site_type_symbol
_atom_site_fract_x
_atom_site_fract_y
_atom_site_fract_z
Cu1 Cu 0.422512(14) 0.127703(14) 0.42765(3)
Cu2 Cu 0.408526(15) 0.028816(15) 0.49975(3)
Cu3 Cu 0.413739(16) 0.226419(15) 0.39486(3)
N3 N 0.43618(10) 0.00508(10) 0.46152(19)
N4 N 0.48336(10) 0.00913(10) 0.3924(2)
N5 N 0.44373(9) 0.06901(9) 0.42756(18)
N6 N 0.45073(9) 0.10263(9) 0.39928(18)
N7 N 0.38306(13) 0.24014(12) 0.4644(2)
N8 N 0.39657(11) 0.18545(10) 0.4651(2)
N9 N 0.39834(11) 0.15376(10) 0.47479(19)
N10 N 0.36188(15) 0.15547(13) 0.5641(2)
N11 N 0.39496(11) 0.09204(10) 0.5111(2)
N12 N 0.38862(12) 0.05881(11) 0.5380(2)
N13 N 0.35573(16) 0.07774(14) 0.6052(3)
N14 N 0.5251(2) 0.2901(3) 0.4913(6)
O1 O 0.42660(9) 0.20013(9) 0.32078(16)
O2 O 0.49369(9) 0.22954(9) 0.31060(19)
O3 O 0.46095(8) 0.17358(8) 0.37815(16)
O4 O 0.37609(9) 0.04643(10) 0.29965(18)
O5 O 0.39558(8) 0.09910(8) 0.22069(17)
O6 O 0.33113(9) 0.06364(8) 0.25966(16)
O7 O 0.36222(11) 0.00066(12) 0.4161(2)
O8 O 0.46760(13) 0.26689(12) 0.4446(2)
S1 S 0.37049(3) 0.07785(3) 0.28248(6)
S2 S 0.45917(3) 0.19469(3) 0.31442(6)
C7 C 0.46352(12) 0.02492(12) 0.4127(2)
C8 C 0.46632(11) 0.06032(11) 0.3930(2)
C9 C 0.3780(2) 0.27004(16) 0.4602(3)
H5 H 0.3881 0.2862 0.4206
C10 C 0.3586(3) 0.2773(2) 0.5121(4)
H6 H 0.3562 0.2985 0.5086
C11 C 0.3428(3) 0.2532(2) 0.5687(4)
H7 H 0.3288 0.2572 0.6035
C12 C 0.3478(2) 0.2224(2) 0.5745(4)
H8 H 0.3376 0.2058 0.6133
C13 C 0.36834(18) 0.21721(16) 0.5210(3)
C14 C 0.37472(16) 0.18498(14) 0.5191(3)
C15 C 0.37718(15) 0.13715(13) 0.5331(3)
C16 C 0.37496(15) 0.10214(14) 0.5530(3)
C17 C 0.36525(19) 0.05142(17) 0.5938(3)
H9 H 0.3563 0.0300 0.6223
C18 C 0.4907(3) 0.2630(3) 0.4676(5)
H10 H 0.4859 0.2386 0.4709
C19 C 0.5365(4) 0.3289(3) 0.4880(10)
H11 H 0.5209 0.3311 0.4519
H12 H 0.5621 0.3425 0.4723
H13 H 0.5340 0.3388 0.5337
C20 C 0.5525(5) 0.2808(5) 0.5253(13)
H14 H 0.5492 0.2809 0.5773
H15 H 0.5774 0.2999 0.5126
H16 H 0.5488 0.2569 0.5105
O10 O 0.45362(8) 0.17252(9) 0.24696(17)
O11 O 0.37738(9) 0.10240(9) 0.34475(17)
N16 N 0.48782(9) 0.08605(10) 0.34356(18)
C24 C 0.47695(12) 0.11174(12) 0.3495(2)
H24 H 0.4868 0.1334 0.3216
H28 H 0.3675(19) 0.0163(19) 0.392(4)
Cu5 Cu 0.304517(15) 0.046377(21) 0.16642(3)
Cu6 Cu 0.520653(22) 0.080406(16) 0.27181(3)
Cu7 Cu 0.407683(15) 0.149262(22) 0.18897(3)
O13 O 0.39918(12) 0.00220(9) 0.59299(16)
N17 N 0.41938(10) 0.26490(13) 0.32311(18)
Cu4 Cu 0.408245(16) 0.925650(15) 0.52230(3)
N1 N 0.45036(11) 0.91845(11) 0.4794(2)
N2 N 0.43882(10) 0.97438(10) 0.4746(2)
N15 N 0.3213(4) 0.8590(5) 0.3610(7)
O9 O 0.37410(14) 0.89587(13) 0.4216(2)
C1 C 0.45462(16) 0.88887(14) 0.4857(3)
H1 H 0.4374 0.8687 0.5135
C2 C 0.48362(17) 0.88665(16) 0.4525(3)
H2 H 0.4862 0.8657 0.4586
C3 C 0.50851(16) 0.91644(17) 0.4101(3)
H3 H 0.5281 0.9155 0.3870
C4 C 0.50476(14) 0.94729(15) 0.4019(3)
H4 H 0.5215 0.9676 0.3738
C5 C 0.47505(13) 0.94706(13) 0.4368(2)
C6 C 0.46661(12) 0.97763(12) 0.4331(2)
C21 C 0.3401(4) 0.8758(4) 0.4193(6)
H17 H 0.3268 0.8724 0.4625
C22 C 0.2795(5) 0.8325(8) 0.3669(13)
H18 H 0.2767 0.8109 0.3417
H19 H 0.2636 0.8404 0.3448
H20 H 0.2727 0.8264 0.4174
C23 C 0.3412(7) 0.8774(9) 0.2879(9)
H21 H 0.3427 0.8596 0.2565
H22 H 0.3659 0.8964 0.3016
H23 H 0.3290 0.8887 0.2625
C25 C 0.3588(2) 0.9700(2) 0.3738(4)
H25 H 0.3799 0.9786 0.3416
H26 H 0.3363 0.9595 0.3454
H27 H 0.3580 0.9512 0.4059
O12 O 0.37019(11) 0.93775(8) 0.55402(17)
O14 O 0.38557(12) 0.87971(8) 0.58029(17)
Cu4_2 Cu 0.074350(15) 0.482595(22) 0.52230(3)
N1_2 N 0.08155(11) 0.53191(16) 0.4794(2)
N2_2 N 0.02562(10) 0.46444(14) 0.4746(2)
N15_2 N 0.1410(5) 0.4623(6) 0.3610(7)
O9_2 O 0.10413(13) 0.47823(19) 0.4216(2)
C1_2 C 0.11113(14) 0.56575(21) 0.4857(3)
H1_2 H 0.1313 0.5687 0.5135
C2_2 C 0.11335(16) 0.59697(23) 0.4525(3)
H2_2 H 0.1343 0.6205 0.4586
C3_2 C 0.08356(17) 0.59207(23) 0.4101(3)
H3_2 H 0.0845 0.6126 0.3870
C4_2 C 0.05271(15) 0.55747(21) 0.4019(3)
H4_2 H 0.0324 0.5539 0.3738
C5_2 C 0.05294(13) 0.52799(18) 0.4368(2)
C6_2 C 0.02237(12) 0.48898(17) 0.4331(2)
C21_2 C 0.1242(4) 0.4643(6) 0.4193(6)
H17_2 H 0.1276 0.4544 0.4625
C22_2 C 0.1675(8) 0.4470(9) 0.3669(13)
H18_2 H 0.1891 0.4658 0.3417
H19_2 H 0.1596 0.4232 0.3448
H20_2 H 0.1736 0.4463 0.4174
C23_2 C 0.1226(9) 0.4638(11) 0.2879(9)
H21_2 H 0.1404 0.4831 0.2565
H22_2 H 0.1036 0.4695 0.3016
H23_2 H 0.1113 0.4403 0.2625
C25_2 C 0.0300(2) 0.3888(3) 0.3738(4)
H25_2 H 0.0214 0.4013 0.3416
H26_2 H 0.0405 0.3768 0.3454
H27_2 H 0.0488 0.4068 0.4059
O12_2 O 0.06225(8) 0.43243(14) 0.55402(17)
O14_2 O 0.12029(8) 0.50585(14) 0.58029(17)
Cu1_2 Cu 0.872297(14) 0.294809(20) 0.42765(3)
Cu2_2 Cu 0.971184(15) 0.379710(21) 0.49975(3)
Cu3_2 Cu 0.773581(15) 0.187320(22) 0.39486(3)
N3_2 N 0.99492(10) 0.43110(14) 0.46152(19)
N4_2 N 0.99087(10) 0.47423(14) 0.3924(2)
N5_2 N 0.93099(9) 0.37472(13) 0.42756(18)
N6_2 N 0.89737(9) 0.34810(13) 0.39928(18)
N7_2 N 0.75986(12) 0.14292(18) 0.4644(2)
N8_2 N 0.81455(10) 0.21112(15) 0.4651(2)
N9_2 N 0.84624(10) 0.24458(15) 0.47479(19)
N10_2 N 0.84453(13) 0.20641(20) 0.5641(2)
N11_2 N 0.90796(10) 0.30292(15) 0.5111(2)
N12_2 N 0.94119(11) 0.32981(16) 0.5380(2)
N13_2 N 0.92226(14) 0.27799(21) 0.6052(3)
N14_2 N 0.7099(3) 0.2350(4) 0.4913(6)
O1_2 O 0.79987(9) 0.22647(13) 0.32078(16)
O2_2 O 0.77046(9) 0.26415(13) 0.31060(19)
O3_2 O 0.82642(8) 0.28737(11) 0.37815(16)
O4_2 O 0.95357(10) 0.32966(13) 0.29965(18)
O5_2 O 0.90090(8) 0.29648(11) 0.22069(17)
O6_2 O 0.93636(8) 0.26749(12) 0.25966(16)
O7_2 O 0.99934(12) 0.36156(16) 0.4161(2)
O8_2 O 0.73311(12) 0.20071(18) 0.4446(2)
S1_2 S 0.92215(3) 0.29264(4) 0.28248(6)
S2_2 S 0.80531(3) 0.26448(4) 0.31442(6)
C7_2 C 0.97508(12) 0.43860(17) 0.4127(2)
C8_2 C 0.93968(11) 0.40600(16) 0.3930(2)
C9_2 C 0.72996(16) 0.10796(26) 0.4602(3)
H5_2 H 0.7138 0.1019 0.4206
C10_2 C 0.7227(2) 0.0813(4) 0.5121(4)
H6_2 H 0.7015 0.0577 0.5086
C11_2 C 0.7468(2) 0.0896(4) 0.5687(4)
H7_2 H 0.7428 0.0716 0.6035
C12_2 C 0.7776(2) 0.1254(3) 0.5745(4)
H8_2 H 0.7942 0.1318 0.6133
C13_2 C 0.78279(16) 0.15113(24) 0.5210(3)
C14_2 C 0.81502(14) 0.18974(21) 0.5191(3)
C15_2 C 0.86285(13) 0.24003(20) 0.5331(3)
C16_2 C 0.89786(14) 0.27282(21) 0.5530(3)
C17_2 C 0.94858(17) 0.31383(25) 0.5938(3)
H9_2 H 0.9700 0.3263 0.6223
C18_2 C 0.7370(3) 0.2277(4) 0.4676(5)
H10_2 H 0.7614 0.2473 0.4709
C19_2 C 0.6711(3) 0.2076(5) 0.4880(10)
H11_2 H 0.6689 0.1898 0.4519
H12_2 H 0.6575 0.2196 0.4723
H13_2 H 0.6612 0.1952 0.5337
C20_2 C 0.7192(5) 0.2717(7) 0.5253(13)
H14_2 H 0.7191 0.2683 0.5773
H15_2 H 0.7001 0.2775 0.5126
H16_2 H 0.7431 0.2919 0.5105
O10_2 O 0.82748(9) 0.28110(12) 0.24696(17)
O11_2 O 0.89760(9) 0.27498(13) 0.34475(17)
N16_2 N 0.91395(10) 0.40177(13) 0.34356(18)
C24_2 C 0.88826(12) 0.36521(17) 0.3495(2)
H24_2 H 0.8666 0.3534 0.3216
H28_2 H 0.9837(19) 0.3512(27) 0.392(4)
Cu5_2 Cu 0.953623(21) 0.258141(26) 0.16642(3)
Cu6_2 Cu 0.919594(16) 0.440248(27) 0.27181(3)
Cu7_2 Cu 0.850738(22) 0.258422(27) 0.18897(3)
O13_2 O 0.99780(9) 0.39697(15) 0.59299(16)
N17_2 N 0.73510(13) 0.15449(16) 0.32311(18)
Cu1_3 Cu 0.705191(20) 0.577488(14) 0.42765(3)
Cu2_3 Cu 0.620290(21) 0.591474(15) 0.49975(3)
Cu3_3 Cu 0.812680(22) 0.586261(16) 0.39486(3)
Cu4_3 Cu 0.517405(22) 0.591755(16) 0.52230(3)
N1_3 N 0.46809(16) 0.54964(11) 0.4794(2)
N2_3 N 0.53556(14) 0.56118(10) 0.4746(2)
N3_3 N 0.56890(14) 0.56382(10) 0.46152(19)
N4_3 N 0.52577(14) 0.51664(10) 0.3924(2)
N5_3 N 0.62528(13) 0.55627(9) 0.42756(18)
N6_3 N 0.65190(13) 0.54927(9) 0.39928(18)
N7_3 N 0.85708(18) 0.61694(13) 0.4644(2)
N8_3 N 0.78888(15) 0.60343(11) 0.4651(2)
N9_3 N 0.75542(15) 0.60166(11) 0.47479(19)
N10_3 N 0.79359(20) 0.63812(15) 0.5641(2)
N11_3 N 0.69708(15) 0.60504(11) 0.5111(2)
N12_3 N 0.67019(16) 0.61138(12) 0.5380(2)
N13_3 N 0.72201(21) 0.64427(16) 0.6052(3)
N14_3 N 0.7650(4) 0.4749(2) 0.4913(6)
N15_3 N 0.5377(6) 0.6787(4) 0.3610(7)
O1_3 O 0.77353(13) 0.57340(9) 0.32078(16)
O2_3 O 0.73585(13) 0.50631(9) 0.31060(19)
O3_3 O 0.71263(11) 0.53905(8) 0.37815(16)
O4_3 O 0.67034(13) 0.62391(9) 0.29965(18)
O5_3 O 0.70352(11) 0.60442(8) 0.22069(17)
O6_3 O 0.73251(12) 0.66887(9) 0.25966(16)
O7_3 O 0.63844(16) 0.63778(11) 0.4161(2)
O8_3 O 0.79929(18) 0.53240(13) 0.4446(2)
O9_3 O 0.52177(19) 0.62590(14) 0.4216(2)
S1_3 S 0.70736(4) 0.62951(3) 0.28248(6)
S2_3 S 0.73552(4) 0.54083(3) 0.31442(6)
C1_3 C 0.43425(21) 0.54538(16) 0.4857(3)
H1_3 H 0.4313 0.5626 0.5135
C2_3 C 0.40303(23) 0.51638(17) 0.4525(3)
H2_3 H 0.3795 0.5138 0.4586
C3_3 C 0.40793(23) 0.49149(16) 0.4101(3)
H3_3 H 0.3874 0.4719 0.3870
C4_3 C 0.44253(21) 0.49524(14) 0.4019(3)
H4_3 H 0.4461 0.4785 0.3738
C5_3 C 0.47201(18) 0.52495(13) 0.4368(2)
C6_3 C 0.51102(17) 0.53339(12) 0.4331(2)
C7_3 C 0.56140(17) 0.53648(12) 0.4127(2)
C8_3 C 0.59400(16) 0.53368(11) 0.3930(2)
C9_3 C 0.89204(26) 0.6220(2) 0.4602(3)
H5_3 H 0.8981 0.6119 0.4206
C10_3 C 0.9187(4) 0.6414(3) 0.5121(4)
H6_3 H 0.9423 0.6438 0.5086
C11_3 C 0.9104(4) 0.6572(3) 0.5687(4)
H7_3 H 0.9284 0.6712 0.6035
C12_3 C 0.8746(3) 0.6522(2) 0.5745(4)
H8_3 H 0.8682 0.6624 0.6133
C13_3 C 0.84887(24) 0.63166(18) 0.5210(3)
C14_3 C 0.81026(21) 0.62528(16) 0.5191(3)
C15_3 C 0.75997(20) 0.62282(15) 0.5331(3)
C16_3 C 0.72718(21) 0.62504(15) 0.5530(3)
C17_3 C 0.68617(25) 0.63475(19) 0.5938(3)
H9_3 H 0.6737 0.6437 0.6223
C18_3 C 0.7723(4) 0.5093(3) 0.4676(5)
H10_3 H 0.7527 0.5141 0.4709
C19_3 C 0.7924(5) 0.4635(4) 0.4880(10)
H11_3 H 0.8102 0.4791 0.4519
H12_3 H 0.7804 0.4379 0.4723
H13_3 H 0.8048 0.4660 0.5337
C20_3 C 0.7283(7) 0.4475(5) 0.5253(13)
H14_3 H 0.7317 0.4508 0.5773
H15_3 H 0.7225 0.4226 0.5126
H16_3 H 0.7081 0.4512 0.5105
C21_3 C 0.5357(6) 0.6599(4) 0.4193(6)
H17_3 H 0.5456 0.6732 0.4625
C22_3 C 0.5530(9) 0.7205(5) 0.3669(13)
H18_3 H 0.5342 0.7233 0.3417
H19_3 H 0.5768 0.7364 0.3448
H20_3 H 0.5537 0.7273 0.4174
C23_3 C 0.5362(11) 0.6588(7) 0.2879(9)
H21_3 H 0.5169 0.6573 0.2565
H22_3 H 0.5305 0.6341 0.3016
H23_3 H 0.5597 0.6710 0.2625
O10_3 O 0.71890(12) 0.54638(8) 0.24696(17)
O11_3 O 0.72502(13) 0.62262(9) 0.34475(17)
N16_3 N 0.59823(13) 0.51218(9) 0.34356(18)
C24_3 C 0.63479(17) 0.52305(12) 0.3495(2)
H24_3 H 0.6466 0.5132 0.3216
C25_3 C 0.6112(3) 0.6412(2) 0.3738(4)
H25_3 H 0.5987 0.6201 0.3416
H26_3 H 0.6232 0.6637 0.3454
H27_3 H 0.5932 0.6420 0.4059
H28_3 H 0.6488(27) 0.6325(19) 0.392(4)
Cu5_3 Cu 0.741859(26) 0.695483(15) 0.16642(3)
Cu6_3 Cu 0.559752(27) 0.479347(22) 0.27181(3)
Cu7_3 Cu 0.741578(27) 0.592317(15) 0.18897(3)
O12_3 O 0.56757(14) 0.62981(11) 0.55402(17)
O13_3 O 0.60303(15) 0.60082(12) 0.59299(16)
O14_3 O 0.49415(14) 0.61443(12) 0.58029(17)
N17_3 N 0.84551(16) 0.58062(10) 0.32311(18)
Cu1_4 Cu 0.089179(14) 0.461036(14) 0.76098(3)
Cu2_4 Cu 0.075193(15) 0.362149(15) 0.83308(3)
Cu3_4 Cu 0.080406(16) 0.559752(15) 0.72819(3)
Cu4_4 Cu 0.074912(16) 0.258983(15) 0.85563(3)
N1_4 N 0.11703(11) 0.25178(11) 0.8127(2)
N2_4 N 0.10549(10) 0.30771(10) 0.8079(2)
N3_4 N 0.10285(10) 0.33841(10) 0.79485(19)
N4_4 N 0.15003(10) 0.34246(10) 0.7257(2)
N5_4 N 0.11040(9) 0.40234(9) 0.76089(18)
N6_4 N 0.11740(9) 0.43596(9) 0.73261(18)
N7_4 N 0.04973(13) 0.57347(12) 0.7977(2)
N8_4 N 0.06324(11) 0.51878(10) 0.7984(2)
N9_4 N 0.06501(11) 0.48709(10) 0.80812(19)
N10_4 N 0.02855(15) 0.48880(13) 0.8974(2)
N11_4 N 0.06163(11) 0.42537(10) 0.8444(2)
N12_4 N 0.05529(12) 0.39214(11) 0.8713(2)
N13_4 N 0.02240(16) 0.41107(14) 0.9385(3)
N14_4 N 0.1918(2) 0.6234(3) 0.8246(6)
O1_4 O 0.09327(9) 0.53346(9) 0.65411(16)
O2_4 O 0.16036(9) 0.56287(9) 0.64393(19)
O3_4 O 0.12762(8) 0.50691(8) 0.71148(16)
O4_4 O 0.04276(9) 0.37976(10) 0.63298(18)
O7_4 O 0.02889(11) 0.33399(12) 0.7494(2)
O8_4 O 0.13427(13) 0.60022(12) 0.7779(2)
O9_4 O 0.04077(14) 0.22920(13) 0.7549(2)
S1_4 S 0.03716(3) 0.41118(3) 0.61581(6)
S2_4 S 0.12584(3) 0.52802(3) 0.64775(6)
C1_4 C 0.12129(16) 0.22220(14) 0.8190(3)
H1_4 H 0.1041 0.2020 0.8468
C2_4 C 0.15029(17) 0.21998(16) 0.7858(3)
H2_4 H 0.1529 0.1990 0.7919
C3_4 C 0.17518(16) 0.24977(17) 0.7434(3)
H3_4 H 0.1948 0.2488 0.7203
C4_4 C 0.17143(14) 0.28062(15) 0.7352(3)
H4_4 H 0.1882 0.3009 0.7071
C5_4 C 0.14172(13) 0.28039(13) 0.7701(2)
C6_4 C 0.13328(12) 0.31096(12) 0.7664(2)
C7_4 C 0.13019(12) 0.35825(12) 0.7460(2)
C8_4 C 0.13299(11) 0.39365(11) 0.7263(2)
C9_4 C 0.0447(2) 0.60337(16) 0.7935(3)
H5_4 H 0.0548 0.6195 0.7539
C10_4 C 0.0253(3) 0.6106(2) 0.8454(4)
H6_4 H 0.0229 0.6318 0.8419
C11_4 C 0.0095(3) 0.5865(2) 0.9020(4)
C12_4 C 0.0145(2) 0.5557(2) 0.9078(4)
H8_4 H 0.0043 0.5391 0.9466
C13_4 C 0.03501(18) 0.55054(16) 0.8543(3)
C14_4 C 0.04139(16) 0.51831(14) 0.8524(3)
C15_4 C 0.04385(15) 0.47048(13) 0.8664(3)
C16_4 C 0.04163(15) 0.43547(14) 0.8863(3)
C17_4 C 0.03192(19) 0.38475(17) 0.9271(3)
H9_4 H 0.0230 0.3633 0.9556
C18_4 C 0.1574(3) 0.5963(3) 0.8009(5)
H10_4 H 0.1526 0.5719 0.8042
C19_4 C 0.2032(4) 0.6622(3) 0.8213(10)
H11_4 H 0.1876 0.6644 0.7852
H12_4 H 0.2288 0.6758 0.8056
H13_4 H 0.2007 0.6721 0.8670
C20_4 C 0.2192(5) 0.6141(5) 0.8586(13)
H14_4 H 0.2159 0.6142 0.9106
H15_4 H 0.2441 0.6332 0.8459
H16_4 H 0.2155 0.5902 0.8438
C21_4 C 0.0068(4) 0.2091(4) 0.7526(6)
C23_4 C 0.0079(7) 0.2107(9) 0.6212(9)
H21_4 H 0.0094 0.1929 0.5898
H22_4 H 0.0326 0.2297 0.6349
O11_4 O 0.04405(9) 0.43573(9) 0.67808(17)
N16_4 N 0.15449(9) 0.41938(10) 0.67689(18)
C24_4 C 0.14362(12) 0.44507(12) 0.6828(2)
H24_4 H 0.1535 0.4667 0.6549
C25_4 C 0.0255(2) 0.3033(2) 0.7071(4)
H25_4 H 0.0466 0.3119 0.6749
H26_4 H 0.0030 0.2928 0.6787
H27_4 H 0.0247 0.2845 0.7392
H28_4 H 0.0342(19) 0.3496(19) 0.725(4)
Cu6_4 Cu 0.187320(22) 0.413739(16) 0.60514(3)
O12_4 O 0.03685(11) 0.27109(8) 0.88736(17)
O13_4 O 0.06584(12) 0.33554(9) 0.92633(16)
O14_4 O 0.05223(12) 0.21305(8) 0.91363(17)
N17_4 N 0.08605(10) 0.59823(13) 0.65644(18)
N15_4 N 0.9880(4) 0.1923(5) 0.6943(7)
H7_4 H 0.9955 0.5905 0.9368
H17_4 H 0.9935 0.2057 0.7958
C22_4 C 0.9462(5) 0.1658(8) 0.7002(13)
H18_4 H 0.9434 0.1442 0.6750
H19_4 H 0.9303 0.1737 0.6781
H20_4 H 0.9394 0.1597 0.7507
H23_4 H 0.9957 0.2220 0.5958
Cu1_5 Cu 0.538964(14) 0.628142(20) 0.76098(3)
Cu2_5 Cu 0.637851(15) 0.713043(21) 0.83308(3)
Cu3_5 Cu 0.440248(15) 0.520653(22) 0.72819(3)
Cu4_5 Cu 0.741017(15) 0.815928(22) 0.85563(3)
N1_5 N 0.74822(11) 0.86524(16) 0.8127(2)
N2_5 N 0.69229(10) 0.79777(14) 0.8079(2)
N3_5 N 0.66159(10) 0.76443(14) 0.79485(19)
N4_5 N 0.65754(10) 0.80756(14) 0.7257(2)
N5_5 N 0.59766(9) 0.70805(13) 0.76089(18)
N6_5 N 0.56404(9) 0.68143(13) 0.73261(18)
N7_5 N 0.42653(12) 0.47625(18) 0.7977(2)
N8_5 N 0.48122(10) 0.54445(15) 0.7984(2)
N9_5 N 0.51291(10) 0.57791(15) 0.80812(19)
N10_5 N 0.51120(13) 0.53974(20) 0.8974(2)
N11_5 N 0.57463(10) 0.63625(15) 0.8444(2)
N12_5 N 0.60786(11) 0.66314(16) 0.8713(2)
N13_5 N 0.58893(14) 0.61132(21) 0.9385(3)
N14_5 N 0.3766(3) 0.5683(4) 0.8246(6)
N15_5 N 0.8077(5) 0.7956(6) 0.6943(7)
O1_5 O 0.46654(9) 0.55980(13) 0.65411(16)
O2_5 O 0.43713(9) 0.59748(13) 0.64393(19)
O3_5 O 0.49309(8) 0.62070(11) 0.71148(16)
O4_5 O 0.62024(10) 0.66299(13) 0.63298(18)
O7_5 O 0.66601(12) 0.69489(16) 0.7494(2)
O8_5 O 0.39978(12) 0.53404(18) 0.7779(2)
O9_5 O 0.77080(13) 0.81156(19) 0.7549(2)
S1_5 S 0.58882(3) 0.62597(4) 0.61581(6)
S2_5 S 0.47198(3) 0.59781(4) 0.64775(6)
C1_5 C 0.77780(14) 0.89908(21) 0.8190(3)
H1_5 H 0.7980 0.9020 0.8468
C2_5 C 0.78002(16) 0.93030(23) 0.7858(3)
H2_5 H 0.8010 0.9538 0.7919
C3_5 C 0.75023(17) 0.92540(23) 0.7434(3)
H3_5 H 0.7512 0.9459 0.7203
C4_5 C 0.71938(15) 0.89080(21) 0.7352(3)
H4_5 H 0.6991 0.8872 0.7071
C5_5 C 0.71961(13) 0.86132(18) 0.7701(2)
C6_5 C 0.68904(12) 0.82231(17) 0.7664(2)
C7_5 C 0.64175(12) 0.77193(17) 0.7460(2)
C8_5 C 0.60635(11) 0.73933(16) 0.7263(2)
C9_5 C 0.39663(16) 0.44129(26) 0.7935(3)
H5_5 H 0.3805 0.4352 0.7539
C10_5 C 0.3894(2) 0.4146(4) 0.8454(4)
H6_5 H 0.3682 0.3910 0.8419
C11_5 C 0.4135(2) 0.4229(4) 0.9020(4)
H7_5 H 0.4095 0.4049 0.9368
C12_5 C 0.4443(2) 0.4587(3) 0.9078(4)
H8_5 H 0.4609 0.4651 0.9466
C13_5 C 0.44946(16) 0.48446(24) 0.8543(3)
C14_5 C 0.48169(14) 0.52307(21) 0.8524(3)
C15_5 C 0.52952(13) 0.57336(20) 0.8664(3)
C16_5 C 0.56453(14) 0.60615(21) 0.8863(3)
C17_5 C 0.61525(17) 0.64716(25) 0.9271(3)
H9_5 H 0.6367 0.6596 0.9556
C18_5 C 0.4037(3) 0.5610(4) 0.8009(5)
H10_5 H 0.4281 0.5806 0.8042
C19_5 C 0.3378(3) 0.5409(5) 0.8213(10)
H11_5 H 0.3356 0.5231 0.7852
H12_5 H 0.3242 0.5529 0.8056
H13_5 H 0.3279 0.5285 0.8670
C20_5 C 0.3859(5) 0.6050(7) 0.8586(13)
H14_5 H 0.3858 0.6016 0.9106
H15_5 H 0.3668 0.6108 0.8459
H16_5 H 0.4098 0.6252 0.8438
C21_5 C 0.7909(4) 0.7976(6) 0.7526(6)
H17_5 H 0.7943 0.7877 0.7958
C22_5 C 0.8342(8) 0.7803(9) 0.7002(13)
H18_5 H 0.8558 0.7991 0.6750
H19_5 H 0.8263 0.7565 0.6781
H20_5 H 0.8403 0.7796 0.7507
C23_5 C 0.7893(9) 0.7971(11) 0.6212(9)
H21_5 H 0.8071 0.8164 0.5898
H22_5 H 0.7703 0.8028 0.6349
H23_5 H 0.7780 0.7736 0.5958
O11_5 O 0.56427(9) 0.60831(13) 0.67808(17)
N16_5 N 0.58062(10) 0.73510(13) 0.67689(18)
C24_5 C 0.55493(12) 0.69854(17) 0.6828(2)
H24_5 H 0.5333 0.6867 0.6549
C25_5 C 0.6967(2) 0.7221(3) 0.7071(4)
H25_5 H 0.6881 0.7346 0.6749
H26_5 H 0.7072 0.7101 0.6787
H27_5 H 0.7155 0.7401 0.7392
H28_5 H 0.6504(19) 0.6845(27) 0.725(4)
Cu6_5 Cu 0.586261(16) 0.773581(27) 0.60514(3)
O12_5 O 0.72891(8) 0.76577(14) 0.88736(17)
O13_5 O 0.66446(9) 0.73031(15) 0.92633(16)
O14_5 O 0.78695(8) 0.83919(14) 0.91363(17)
N17_5 N 0.40177(13) 0.48782(16) 0.65644(18)
N15_6 N 0.2044(6) 0.0120(4) 0.6943(7)
H7_6 H 0.5951 0.0045 0.9368
H17_6 H 0.2123 0.0065 0.7958
C22_6 C 0.2197(9) 0.0538(5) 0.7002(13)
H18_6 H 0.2009 0.0566 0.6750
H19_6 H 0.2435 0.0697 0.6781
H20_6 H 0.2204 0.0606 0.7507
H23_6 H 0.2264 0.0043 0.5958
Cu1_6 Cu 0.371858(20) 0.910821(14) 0.76098(3)
Cu2_6 Cu 0.286957(21) 0.924807(15) 0.83308(3)
Cu3_6 Cu 0.479347(22) 0.919594(16) 0.72819(3)
Cu4_6 Cu 0.184072(22) 0.925088(16) 0.85563(3)
N1_6 N 0.13476(16) 0.88297(11) 0.8127(2)
N2_6 N 0.20223(14) 0.89451(10) 0.8079(2)
N3_6 N 0.23557(14) 0.89715(10) 0.79485(19)
N4_6 N 0.19244(14) 0.84997(10) 0.7257(2)
N5_6 N 0.29195(13) 0.88960(9) 0.76089(18)
N6_6 N 0.31857(13) 0.88260(9) 0.73261(18)
N7_6 N 0.52375(18) 0.95027(13) 0.7977(2)
N8_6 N 0.45555(15) 0.93676(11) 0.7984(2)
N9_6 N 0.42209(15) 0.93499(11) 0.80812(19)
N10_6 N 0.46026(20) 0.97145(15) 0.8974(2)
N11_6 N 0.36375(15) 0.93837(11) 0.8444(2)
N12_6 N 0.33686(16) 0.94471(12) 0.8713(2)
N13_6 N 0.38868(21) 0.97760(16) 0.9385(3)
N14_6 N 0.4317(4) 0.8082(2) 0.8246(6)
O1_6 O 0.44020(13) 0.90673(9) 0.65411(16)
O2_6 O 0.40252(13) 0.83964(9) 0.64393(19)
O3_6 O 0.37930(11) 0.87238(8) 0.71148(16)
O4_6 O 0.33701(13) 0.95724(9) 0.63298(18)
O7_6 O 0.30511(16) 0.97111(11) 0.7494(2)
O8_6 O 0.46596(18) 0.86573(13) 0.7779(2)
O9_6 O 0.18844(19) 0.95923(14) 0.7549(2)
S1_6 S 0.37403(4) 0.96284(3) 0.61581(6)
S2_6 S 0.40219(4) 0.87416(3) 0.64775(6)
C1_6 C 0.10092(21) 0.87871(16) 0.8190(3)
H1_6 H 0.0980 0.8959 0.8468
C2_6 C 0.06970(23) 0.84971(17) 0.7858(3)
H2_6 H 0.0462 0.8471 0.7919
C3_6 C 0.07460(23) 0.82482(16) 0.7434(3)
H3_6 H 0.0541 0.8052 0.7203
C4_6 C 0.10920(21) 0.82857(14) 0.7352(3)
H4_6 H 0.1128 0.8118 0.7071
C5_6 C 0.13868(18) 0.85828(13) 0.7701(2)
C6_6 C 0.17769(17) 0.86672(12) 0.7664(2)
C7_6 C 0.22807(17) 0.86981(12) 0.7460(2)
C8_6 C 0.26067(16) 0.86701(11) 0.7263(2)
C9_6 C 0.55871(26) 0.9553(2) 0.7935(3)
H5_6 H 0.5648 0.9452 0.7539
C10_6 C 0.5854(4) 0.9747(3) 0.8454(4)
H6_6 H 0.6090 0.9771 0.8419
C11_6 C 0.5771(4) 0.9905(3) 0.9020(4)
C12_6 C 0.5413(3) 0.9855(2) 0.9078(4)
H8_6 H 0.5349 0.9957 0.9466
C13_6 C 0.51554(24) 0.96499(18) 0.8543(3)
C14_6 C 0.47693(21) 0.95861(16) 0.8524(3)
C15_6 C 0.42664(20) 0.95615(15) 0.8664(3)
C16_6 C 0.39385(21) 0.95837(15) 0.8863(3)
C17_6 C 0.35284(25) 0.96808(19) 0.9271(3)
H9_6 H 0.3404 0.9770 0.9556
C18_6 C 0.4390(4) 0.8426(3) 0.8009(5)
H10_6 H 0.4194 0.8474 0.8042
C19_6 C 0.4591(5) 0.7968(4) 0.8213(10)
H11_6 H 0.4769 0.8124 0.7852
H12_6 H 0.4471 0.7712 0.8056
H13_6 H 0.4715 0.7993 0.8670
C20_6 C 0.3950(7) 0.7808(5) 0.8586(13)
H14_6 H 0.3984 0.7841 0.9106
H15_6 H 0.3892 0.7559 0.8459
H16_6 H 0.3748 0.7845 0.8438
C21_6 C 0.2024(6) 0.9932(4) 0.7526(6)
C23_6 C 0.2029(11) 0.9921(7) 0.6212(9)
H21_6 H 0.1836 0.9906 0.5898
H22_6 H 0.1972 0.9674 0.6349
O11_6 O 0.39169(13) 0.95595(9) 0.67808(17)
N16_6 N 0.26490(13) 0.84551(9) 0.67689(18)
C24_6 C 0.30146(17) 0.85638(12) 0.6828(2)
H24_6 H 0.3133 0.8465 0.6549
C25_6 C 0.2779(3) 0.9745(2) 0.7071(4)
H25_6 H 0.2654 0.9534 0.6749
H26_6 H 0.2899 0.9970 0.6787
H27_6 H 0.2599 0.9753 0.7392
H28_6 H 0.3155(27) 0.9658(19) 0.725(4)
Cu6_6 Cu 0.226419(27) 0.812680(22) 0.60514(3)
O12_6 O 0.23423(14) 0.96315(11) 0.88736(17)
O13_6 O 0.26969(15) 0.93416(12) 0.92633(16)
O14_6 O 0.16081(14) 0.94777(12) 0.91363(17)
N17_6 N 0.51218(16) 0.91395(10) 0.65644(18)
Cu1_7 Cu 0.755845(14) 0.794370(14) 0.09432(3)
Cu3_7 Cu 0.747072(16) 0.893086(15) 0.06153(3)
N1_7 N 0.78369(11) 0.58512(11) 0.1461(2)
N2_7 N 0.77215(10) 0.64105(10) 0.1413(2)
N3_7 N 0.76951(10) 0.67175(10) 0.12819(19)
N4_7 N 0.81669(10) 0.67580(10) 0.0591(2)
N5_7 N 0.77706(9) 0.73568(9) 0.09423(18)
N6_7 N 0.78406(9) 0.76930(9) 0.06595(18)
N7_7 N 0.71639(13) 0.90681(12) 0.1311(2)
N8_7 N 0.72990(11) 0.85212(10) 0.1318(2)
N9_7 N 0.73167(11) 0.82043(10) 0.14146(19)
N10_7 N 0.69521(15) 0.82214(13) 0.2308(2)
N11_7 N 0.72829(11) 0.75871(10) 0.1778(2)
N12_7 N 0.72195(12) 0.72548(11) 0.2047(2)
N13_7 N 0.68906(16) 0.74441(14) 0.2719(3)
N14_7 N 0.8584(2) 0.9568(3) 0.1580(6)
N15_7 N 0.6546(4) 0.5257(5) 0.0277(7)
O3_7 O 0.79428(8) 0.84025(8) 0.04482(16)
O7_7 O 0.69555(11) 0.66733(12) 0.0828(2)
O8_7 O 0.80093(13) 0.93356(12) 0.1113(2)
O9_7 O 0.70743(14) 0.56254(13) 0.0883(2)
C1_7 C 0.78795(16) 0.55554(14) 0.1524(3)
H1_7 H 0.7707 0.5354 0.1802
C2_7 C 0.81695(17) 0.55332(16) 0.1192(3)
H2_7 H 0.8195 0.5324 0.1253
C3_7 C 0.84184(16) 0.58311(17) 0.0768(3)
H3_7 H 0.8614 0.5822 0.0537
C4_7 C 0.83809(14) 0.61396(15) 0.0686(3)
H4_7 H 0.8548 0.6343 0.0405
C5_7 C 0.80838(13) 0.61373(13) 0.1035(2)
C6_7 C 0.79994(12) 0.64430(12) 0.0998(2)
C7_7 C 0.79685(12) 0.69159(12) 0.0794(2)
C8_7 C 0.79965(11) 0.72699(11) 0.0597(2)
C9_7 C 0.7113(2) 0.93671(16) 0.1269(3)
H5_7 H 0.7214 0.9529 0.0873
C10_7 C 0.6919(3) 0.9440(2) 0.1788(4)
H6_7 H 0.6895 0.9652 0.1753
C11_7 C 0.6761(3) 0.9199(2) 0.2354(4)
H7_7 H 0.6621 0.9239 0.2702
C12_7 C 0.6811(2) 0.8891(2) 0.2412(4)
H8_7 H 0.6709 0.8725 0.2800
C13_7 C 0.70167(18) 0.88388(16) 0.1877(3)
C14_7 C 0.70805(16) 0.85165(14) 0.1858(3)
C15_7 C 0.71051(15) 0.80382(13) 0.1998(3)
C16_7 C 0.70829(15) 0.76881(14) 0.2197(3)
C17_7 C 0.69858(19) 0.71809(17) 0.2605(3)
H9_7 H 0.6896 0.6967 0.2890
C18_7 C 0.8240(3) 0.9297(3) 0.1343(5)
H10_7 H 0.8192 0.9053 0.1376
C19_7 C 0.8698(4) 0.9956(3) 0.1547(10)
H11_7 H 0.8542 0.9978 0.1186
C20_7 C 0.8858(5) 0.9475(5) 0.1920(13)
H14_7 H 0.8825 0.9476 0.2440
H15_7 H 0.9107 0.9666 0.1793
H16_7 H 0.8821 0.9236 0.1772
C21_7 C 0.6734(4) 0.5425(4) 0.0860(6)
H17_7 H 0.6601 0.5391 0.1292
C22_7 C 0.6128(5) 0.4992(8) 0.0336(13)
H18_7 H 0.6100 0.4776 0.0084
H19_7 H 0.5969 0.5071 0.0115
H20_7 H 0.6060 0.4931 0.0841
O11_7 O 0.71071(9) 0.76907(9) 0.01142(17)
N16_7 N 0.82115(9) 0.75272(10) 0.01023(18)
C24_7 C 0.81028(12) 0.77841(12) 0.0162(2)
C25_7 C 0.6921(2) 0.6367(2) 0.0405(4)
H25_7 H 0.7132 0.6453 0.0083
H26_7 H 0.6696 0.6262 0.0121
H27_7 H 0.6913 0.6179 0.0726
H28_7 H 0.7008(19) 0.6830(19) 0.059(4)
O1_7 O 0.75993(9) 0.86680(9) 0.98745(16)
O2_7 O 0.82702(9) 0.89621(9) 0.97727(19)
O4_7 O 0.70942(9) 0.71310(10) 0.96632(18)
S1_7 S 0.70382(3) 0.74452(3) 0.94915(6)
S2_7 S 0.79250(3) 0.86136(3) 0.98109(6)
C23_7 C 0.6745(7) 0.5441(9) 0.9546(9)
H21_7 H 0.6760 0.5263 0.9232
H22_7 H 0.6992 0.5631 0.9683
H23_7 H 0.6623 0.5554 0.9292
H24_7 H 0.8201 0.8001 0.9883
Cu6_7 Cu 0.853987(22) 0.747072(16) 0.93847(3)
N17_7 N 0.75272(10) 0.93156(13) 0.98977(18)
N1_8 N 0.41488(11) 0.19858(16) 0.1461(2)
N2_8 N 0.35895(10) 0.13111(14) 0.1413(2)
N3_8 N 0.32825(10) 0.09777(14) 0.12819(19)
N4_8 N 0.32420(10) 0.14090(14) 0.0591(2)
N5_8 N 0.26432(9) 0.04139(13) 0.09423(18)
N6_8 N 0.23070(9) 0.01477(13) 0.06595(18)
N15_8 N 0.4743(5) 0.1290(6) 0.0277(7)
O7_8 O 0.33267(12) 0.02823(16) 0.0828(2)
O9_8 O 0.43746(13) 0.14490(19) 0.0883(2)
C1_8 C 0.44446(14) 0.23242(21) 0.1524(3)
H1_8 H 0.4646 0.2354 0.1802
C2_8 C 0.44668(16) 0.26364(23) 0.1192(3)
H2_8 H 0.4676 0.2872 0.1253
C3_8 C 0.41689(17) 0.25874(23) 0.0768(3)
H3_8 H 0.4178 0.2793 0.0537
C4_8 C 0.38604(15) 0.22414(21) 0.0686(3)
H4_8 H 0.3657 0.2206 0.0405
C5_8 C 0.38627(13) 0.19466(18) 0.1035(2)
C6_8 C 0.35570(12) 0.15565(17) 0.0998(2)
C7_8 C 0.30841(12) 0.10527(17) 0.0794(2)
C8_8 C 0.27301(11) 0.07267(16) 0.0597(2)
C21_8 C 0.4575(4) 0.1310(6) 0.0860(6)
H17_8 H 0.4609 0.1211 0.1292
C22_8 C 0.5008(8) 0.1137(9) 0.0336(13)
H18_8 H 0.5224 0.1325 0.0084
H19_8 H 0.4929 0.0899 0.0115
H20_8 H 0.5069 0.1130 0.0841
N16_8 N 0.24728(10) 0.06844(13) 0.01023(18)
C24_8 C 0.22159(12) 0.03188(17) 0.0162(2)
C25_8 C 0.3633(2) 0.0555(3) 0.0405(4)
H25_8 H 0.3547 0.0680 0.0083
H26_8 H 0.3738 0.0435 0.0121
H27_8 H 0.3821 0.0735 0.0726
H28_8 H 0.3170(19) 0.0179(27) 0.059(4)
C23_8 C 0.4559(9) 0.1305(11) 0.9546(9)
H21_8 H 0.4737 0.1498 0.9232
H22_8 H 0.4369 0.1362 0.9683
H23_8 H 0.4446 0.1070 0.9292
H24_8 H 0.1999 0.0201 0.9883
Cu6_8 Cu 0.252928(16) 0.106914(27) 0.93847(3)
O1_8 O 0.13320(9) 0.89314(13) 0.98745(16)
O2_8 O 0.10379(9) 0.93082(13) 0.97727(19)
O4_8 O 0.28690(10) 0.99633(13) 0.96632(18)
S1_8 S 0.25548(3) 0.95931(4) 0.94915(6)
S2_8 S 0.13864(3) 0.93115(4) 0.98109(6)
N17_8 N 0.06844(13) 0.82115(16) 0.98977(18)
Cu1_8 Cu 0.038524(20) 0.244155(14) 0.09432(3)
Cu3_8 Cu 0.146013(22) 0.252928(16) 0.06153(3)
N7_8 N 0.19041(18) 0.28361(13) 0.1311(2)
N8_8 N 0.12221(15) 0.27010(11) 0.1318(2)
N9_8 N 0.08875(15) 0.26833(11) 0.14146(19)
N10_8 N 0.12692(20) 0.30479(15) 0.2308(2)
N11_8 N 0.03041(15) 0.27171(11) 0.1778(2)
N12_8 N 0.00352(16) 0.27805(12) 0.2047(2)
N13_8 N 0.05534(21) 0.31094(16) 0.2719(3)
N14_8 N 0.0983(4) 0.1416(2) 0.1580(6)
O3_8 O 0.04596(11) 0.20572(8) 0.04482(16)
O8_8 O 0.13262(18) 0.19907(13) 0.1113(2)
C9_8 C 0.22537(26) 0.2887(2) 0.1269(3)
H5_8 H 0.2314 0.2786 0.0873
C10_8 C 0.2520(4) 0.3081(3) 0.1788(4)
H6_8 H 0.2756 0.3105 0.1753
C11_8 C 0.2437(4) 0.3239(3) 0.2354(4)
H7_8 H 0.2617 0.3379 0.2702
C12_8 C 0.2079(3) 0.3189(2) 0.2412(4)
H8_8 H 0.2015 0.3291 0.2800
C13_8 C 0.18220(24) 0.29833(18) 0.1877(3)
C14_8 C 0.14359(21) 0.29195(16) 0.1858(3)
C15_8 C 0.09330(20) 0.28949(15) 0.1998(3)
C16_8 C 0.06051(21) 0.29171(15) 0.2197(3)
C17_8 C 0.01950(25) 0.30142(19) 0.2605(3)
H9_8 H 0.0070 0.3104 0.2890
C18_8 C 0.1056(4) 0.1760(3) 0.1343(5)
H10_8 H 0.0860 0.1808 0.1376
C19_8 C 0.1257(5) 0.1302(4) 0.1547(10)
H11_8 H 0.1435 0.1458 0.1186
H12_7 H 0.1137 0.1046 0.1390
H13_7 H 0.1381 0.1327 0.2004
C20_8 C 0.0616(7) 0.1142(5) 0.1920(13)
H14_8 H 0.0650 0.1175 0.2440
H15_8 H 0.0558 0.0893 0.1793
H16_8 H 0.0414 0.1179 0.1772
O11_8 O 0.05835(13) 0.28929(9) 0.01142(17)
O1_9 O 0.10686(13) 0.24007(9) 0.98745(16)
O2_9 O 0.06918(13) 0.17298(9) 0.97727(19)
O4_9 O 0.00367(13) 0.29058(9) 0.96632(18)
S1_9 S 0.04069(4) 0.29618(3) 0.94915(6)
S2_9 S 0.06885(4) 0.20750(3) 0.98109(6)
N17_9 N 0.17885(16) 0.24728(10) 0.98977(18)
N1_9 N 0.80142(16) 0.21631(11) 0.1461(2)
N2_9 N 0.86889(14) 0.22785(10) 0.1413(2)
N3_9 N 0.90223(14) 0.23049(10) 0.12819(19)
N4_9 N 0.85910(14) 0.18331(10) 0.0591(2)
N5_9 N 0.95861(13) 0.22294(9) 0.09423(18)
N6_9 N 0.98523(13) 0.21594(9) 0.06595(18)
N15_9 N 0.8710(6) 0.3454(4) 0.0277(7)
O7_9 O 0.97177(16) 0.30445(11) 0.0828(2)
O9_9 O 0.85510(19) 0.29257(14) 0.0883(2)
C1_9 C 0.76758(21) 0.21205(16) 0.1524(3)
H1_9 H 0.7646 0.2293 0.1802
C2_9 C 0.73636(23) 0.18305(17) 0.1192(3)
H2_9 H 0.7128 0.1805 0.1253
C3_9 C 0.74126(23) 0.15816(16) 0.0768(3)
H3_9 H 0.7207 0.1386 0.0537
C4_9 C 0.77586(21) 0.16191(14) 0.0686(3)
H4_9 H 0.7794 0.1452 0.0405
C5_9 C 0.80534(18) 0.19162(13) 0.1035(2)
C6_9 C 0.84435(17) 0.20006(12) 0.0998(2)
C7_9 C 0.89473(17) 0.20315(12) 0.0794(2)
C8_9 C 0.92733(16) 0.20035(11) 0.0597(2)
C21_9 C 0.8690(6) 0.3266(4) 0.0860(6)
H17_9 H 0.8789 0.3399 0.1292
C22_9 C 0.8863(9) 0.3872(5) 0.0336(13)
H18_9 H 0.8675 0.3900 0.0084
H19_9 H 0.9101 0.4031 0.0115
H20_9 H 0.8870 0.3940 0.0841
N16_9 N 0.93156(13) 0.17885(9) 0.01023(18)
C24_9 C 0.96812(17) 0.18972(12) 0.0162(2)
C25_9 C 0.9445(3) 0.3079(2) 0.0405(4)
H25_9 H 0.9320 0.2868 0.0083
H26_9 H 0.9565 0.3304 0.0121
H27_9 H 0.9265 0.3087 0.0726
H28_9 H 0.9821(27) 0.2992(19) 0.059(4)
Cu4_7 Cu 0.591755(16) 0.074350(15) 0.47770(3)
N1_10 N 0.54964(11) 0.08155(11) 0.5206(2)
N2_10 N 0.56118(10) 0.02562(10) 0.5254(2)
N15_10 N 0.6787(4) 0.1410(5) 0.6390(7)
O9_10 O 0.62590(14) 0.10413(13) 0.5784(2)
C1_10 C 0.54538(16) 0.11113(14) 0.5143(3)
H1_10 H 0.5626 0.1313 0.4865
C2_10 C 0.51638(17) 0.11335(16) 0.5475(3)
H2_10 H 0.5138 0.1343 0.5414
C3_10 C 0.49149(16) 0.08356(17) 0.5899(3)
H3_10 H 0.4719 0.0845 0.6130
C4_10 C 0.49524(14) 0.05271(15) 0.5981(3)
H4_10 H 0.4785 0.0324 0.6262
C5_10 C 0.52495(13) 0.05294(13) 0.5632(2)
C6_10 C 0.53339(12) 0.02237(12) 0.5669(2)
C21_10 C 0.6599(4) 0.1242(4) 0.5807(6)
H17_10 H 0.6732 0.1276 0.5375
C22_10 C 0.7205(5) 0.1675(8) 0.6331(13)
H18_10 H 0.7233 0.1891 0.6583
H19_10 H 0.7364 0.1596 0.6552
H20_10 H 0.7273 0.1736 0.5826
C23_9 C 0.6588(7) 0.1226(9) 0.7121(9)
H21_9 H 0.6573 0.1404 0.7435
H22_9 H 0.6341 0.1036 0.6984
H23_9 H 0.6710 0.1113 0.7375
C25_10 C 0.6412(2) 0.0300(2) 0.6262(4)
H25_10 H 0.6201 0.0214 0.6584
H26_10 H 0.6637 0.0405 0.6546
H27_10 H 0.6420 0.0488 0.5941
O12_7 O 0.62981(11) 0.06225(8) 0.44598(17)
O14_7 O 0.61443(12) 0.12029(8) 0.41971(17)
Cu1_9 Cu 0.577488(14) 0.872297(14) 0.57235(3)
Cu2_7 Cu 0.591474(15) 0.971184(15) 0.50025(3)
N3_10 N 0.56382(10) 0.99492(10) 0.53848(19)
N4_10 N 0.51664(10) 0.99087(10) 0.6076(2)
N5_10 N 0.55627(9) 0.93099(9) 0.57244(18)
N6_10 N 0.54927(9) 0.89737(9) 0.60072(18)
N7_9 N 0.61694(13) 0.75986(12) 0.5356(2)
N8_9 N 0.60343(11) 0.81455(10) 0.5349(2)
N9_9 N 0.60166(11) 0.84624(10) 0.52521(19)
N10_9 N 0.63812(15) 0.84453(13) 0.4359(2)
N11_9 N 0.60504(11) 0.90796(10) 0.4889(2)
N12_9 N 0.61138(12) 0.94119(11) 0.4620(2)
N13_9 N 0.64427(16) 0.92226(14) 0.3948(3)
N14_9 N 0.4749(2) 0.7099(3) 0.5087(6)
O1_10 O 0.57340(9) 0.79987(9) 0.67922(16)
O2_10 O 0.50631(9) 0.77046(9) 0.68940(19)
O3_9 O 0.53905(8) 0.82642(8) 0.62185(16)
O4_10 O 0.62391(9) 0.95357(10) 0.70035(18)
O5_4 O 0.60442(8) 0.90090(8) 0.77931(17)
O6_4 O 0.66887(9) 0.93636(8) 0.74034(16)
O7_10 O 0.63778(11) 0.99934(12) 0.5839(2)
O8_9 O 0.53240(13) 0.73311(12) 0.5554(2)
S1_10 S 0.62951(3) 0.92215(3) 0.71752(6)
S2_10 S 0.54083(3) 0.80531(3) 0.68558(6)
C7_10 C 0.53648(12) 0.97508(12) 0.5873(2)
C8_10 C 0.53368(11) 0.93968(11) 0.6070(2)
C9_9 C 0.6220(2) 0.72996(16) 0.5398(3)
H5_9 H 0.6119 0.7138 0.5794
C10_9 C 0.6414(3) 0.7227(2) 0.4879(4)
H6_9 H 0.6438 0.7015 0.4914
C11_9 C 0.6572(3) 0.7468(2) 0.4313(4)
H7_9 H 0.6712 0.7428 0.3965
C12_9 C 0.6522(2) 0.7776(2) 0.4255(4)
H8_9 H 0.6624 0.7942 0.3867
C13_9 C 0.63166(18) 0.78279(16) 0.4790(3)
C14_9 C 0.62528(16) 0.81502(14) 0.4809(3)
C15_9 C 0.62282(15) 0.86285(13) 0.4669(3)
C16_9 C 0.62504(15) 0.89786(14) 0.4470(3)
C17_9 C 0.63475(19) 0.94858(17) 0.4062(3)
H9_9 H 0.6437 0.9700 0.3777
C18_9 C 0.5093(3) 0.7370(3) 0.5324(5)
H10_9 H 0.5141 0.7614 0.5291
C19_9 C 0.4635(4) 0.6711(3) 0.5120(10)
H11_9 H 0.4791 0.6689 0.5481
H12_8 H 0.4379 0.6575 0.5277
H13_8 H 0.4660 0.6612 0.4663
C20_9 C 0.4475(5) 0.7192(5) 0.4747(13)
H14_9 H 0.4508 0.7191 0.4227
H15_9 H 0.4226 0.7001 0.4874
H16_9 H 0.4512 0.7431 0.4895
O10_4 O 0.54638(8) 0.82748(9) 0.75304(17)
O11_9 O 0.62262(9) 0.89760(9) 0.65525(17)
C24_10 C 0.52305(12) 0.88826(12) 0.6505(2)
H24_9 H 0.5132 0.8666 0.6784
H28_10 H 0.6325(19) 0.9837(19) 0.608(4)
Cu5_4 Cu 0.695483(15) 0.953623(21) 0.83358(3)
Cu7_4 Cu 0.592317(15) 0.850738(22) 0.81103(3)
O13_7 O 0.60082(12) 0.99780(9) 0.40701(16)
Cu1_10 Cu 0.127703(14) 0.705191(20) 0.57235(3)
Cu2_8 Cu 0.028816(15) 0.620290(21) 0.50025(3)
N3_11 N 0.00508(10) 0.56890(14) 0.53848(19)
N4_11 N 0.00913(10) 0.52577(14) 0.6076(2)
N5_11 N 0.06901(9) 0.62528(13) 0.57244(18)
N6_11 N 0.10263(9) 0.65190(13) 0.60072(18)
N7_10 N 0.24014(12) 0.85708(18) 0.5356(2)
N8_10 N 0.18545(10) 0.78888(15) 0.5349(2)
N9_10 N 0.15376(10) 0.75542(15) 0.52521(19)
N10_10 N 0.15547(13) 0.79359(20) 0.4359(2)
N11_10 N 0.09204(10) 0.69708(15) 0.4889(2)
N12_10 N 0.05881(11) 0.67019(16) 0.4620(2)
N13_10 N 0.07774(14) 0.72201(21) 0.3948(3)
N14_10 N 0.2901(3) 0.7650(4) 0.5087(6)
O1_11 O 0.20013(9) 0.77353(13) 0.67922(16)
O2_11 O 0.22954(9) 0.73585(13) 0.68940(19)
O3_10 O 0.17358(8) 0.71263(11) 0.62185(16)
O4_11 O 0.04643(10) 0.67034(13) 0.70035(18)
O5_5 O 0.09910(8) 0.70352(11) 0.77931(17)
O6_5 O 0.06364(8) 0.73251(12) 0.74034(16)
O7_11 O 0.00066(12) 0.63844(16) 0.5839(2)
O8_10 O 0.26689(12) 0.79929(18) 0.5554(2)
S1_11 S 0.07785(3) 0.70736(4) 0.71752(6)
S2_11 S 0.19469(3) 0.73552(4) 0.68558(6)
C7_11 C 0.02492(12) 0.56140(17) 0.5873(2)
C8_11 C 0.06032(11) 0.59400(16) 0.6070(2)
C9_10 C 0.27004(16) 0.89204(26) 0.5398(3)
H5_10 H 0.2862 0.8981 0.5794
C10_10 C 0.2773(2) 0.9187(4) 0.4879(4)
H6_10 H 0.2985 0.9423 0.4914
C11_10 C 0.2532(2) 0.9104(4) 0.4313(4)
H7_10 H 0.2572 0.9284 0.3965
C12_10 C 0.2224(2) 0.8746(3) 0.4255(4)
H8_10 H 0.2058 0.8682 0.3867
C13_10 C 0.21721(16) 0.84887(24) 0.4790(3)
C14_10 C 0.18498(14) 0.81026(21) 0.4809(3)
C15_10 C 0.13715(13) 0.75997(20) 0.4669(3)
C16_10 C 0.10214(14) 0.72718(21) 0.4470(3)
C17_10 C 0.05142(17) 0.68617(25) 0.4062(3)
H9_10 H 0.0300 0.6737 0.3777
C18_10 C 0.2630(3) 0.7723(4) 0.5324(5)
H10_10 H 0.2386 0.7527 0.5291
C19_10 C 0.3289(3) 0.7924(5) 0.5120(10)
H11_10 H 0.3311 0.8102 0.5481
H12_9 H 0.3425 0.7804 0.5277
H13_9 H 0.3388 0.8048 0.4663
C20_10 C 0.2808(5) 0.7283(7) 0.4747(13)
H14_10 H 0.2809 0.7317 0.4227
H15_10 H 0.2999 0.7225 0.4874
H16_10 H 0.2569 0.7081 0.4895
O10_5 O 0.17252(9) 0.71890(12) 0.75304(17)
O11_10 O 0.10240(9) 0.72502(13) 0.65525(17)
C24_11 C 0.11174(12) 0.63479(17) 0.6505(2)
H24_10 H 0.1334 0.6466 0.6784
H28_11 H 0.0163(19) 0.6488(27) 0.608(4)
Cu5_5 Cu 0.046377(21) 0.741859(26) 0.83358(3)
Cu7_5 Cu 0.149262(22) 0.741578(27) 0.81103(3)
O13_8 O 0.00220(9) 0.60303(15) 0.40701(16)
Cu4_8 Cu 0.925650(15) 0.517405(22) 0.47770(3)
N1_11 N 0.91845(11) 0.46809(16) 0.5206(2)
N2_11 N 0.97438(10) 0.53556(14) 0.5254(2)
N15_11 N 0.8590(5) 0.5377(6) 0.6390(7)
O9_11 O 0.89587(13) 0.52177(19) 0.5784(2)
C1_11 C 0.88887(14) 0.43425(21) 0.5143(3)
H1_11 H 0.8687 0.4313 0.4865
C2_11 C 0.88665(16) 0.40303(23) 0.5475(3)
H2_11 H 0.8657 0.3795 0.5414
C3_11 C 0.91644(17) 0.40793(23) 0.5899(3)
H3_11 H 0.9155 0.3874 0.6130
C4_11 C 0.94729(15) 0.44253(21) 0.5981(3)
H4_11 H 0.9676 0.4461 0.6262
C5_11 C 0.94706(13) 0.47201(18) 0.5632(2)
C6_11 C 0.97763(12) 0.51102(17) 0.5669(2)
C21_11 C 0.8758(4) 0.5357(6) 0.5807(6)
H17_11 H 0.8724 0.5456 0.5375
C22_11 C 0.8325(8) 0.5530(9) 0.6331(13)
H18_11 H 0.8109 0.5342 0.6583
H19_11 H 0.8404 0.5768 0.6552
H20_11 H 0.8264 0.5537 0.5826
C23_10 C 0.8774(9) 0.5362(11) 0.7121(9)
H21_10 H 0.8596 0.5169 0.7435
H22_10 H 0.8964 0.5305 0.6984
H23_10 H 0.8887 0.5597 0.7375
C25_11 C 0.9700(2) 0.6112(3) 0.6262(4)
H25_11 H 0.9786 0.5987 0.6584
H26_11 H 0.9595 0.6232 0.6546
H27_11 H 0.9512 0.5932 0.5941
O12_8 O 0.93775(8) 0.56757(14) 0.44598(17)
O14_8 O 0.87971(8) 0.49415(14) 0.41971(17)
Cu1_11 Cu 0.294809(20) 0.422512(14) 0.57235(3)
Cu2_9 Cu 0.379710(21) 0.408526(15) 0.50025(3)
Cu4_9 Cu 0.482595(22) 0.408245(16) 0.47770(3)
N1_12 N 0.53191(16) 0.45036(11) 0.5206(2)
N2_12 N 0.46444(14) 0.43882(10) 0.5254(2)
N3_12 N 0.43110(14) 0.43618(10) 0.53848(19)
N4_12 N 0.47423(14) 0.48336(10) 0.6076(2)
N5_12 N 0.37472(13) 0.44373(9) 0.57244(18)
N6_12 N 0.34810(13) 0.45073(9) 0.60072(18)
N7_11 N 0.14292(18) 0.38306(13) 0.5356(2)
N8_11 N 0.21112(15) 0.39657(11) 0.5349(2)
N9_11 N 0.24458(15) 0.39834(11) 0.52521(19)
N10_11 N 0.20641(20) 0.36188(15) 0.4359(2)
N11_11 N 0.30292(15) 0.39496(11) 0.4889(2)
N12_11 N 0.32981(16) 0.38862(12) 0.4620(2)
N13_11 N 0.27799(21) 0.35573(16) 0.3948(3)
N14_11 N 0.2350(4) 0.5251(2) 0.5087(6)
N15_12 N 0.4623(6) 0.3213(4) 0.6390(7)
O1_12 O 0.22647(13) 0.42660(9) 0.67922(16)
O2_12 O 0.26415(13) 0.49369(9) 0.68940(19)
O3_11 O 0.28737(11) 0.46095(8) 0.62185(16)
O4_12 O 0.32966(13) 0.37609(9) 0.70035(18)
O5_6 O 0.29648(11) 0.39558(8) 0.77931(17)
O6_6 O 0.26749(12) 0.33113(9) 0.74034(16)
O7_12 O 0.36156(16) 0.36222(11) 0.5839(2)
O8_11 O 0.20071(18) 0.46760(13) 0.5554(2)
O9_12 O 0.47823(19) 0.37410(14) 0.5784(2)
S1_12 S 0.29264(4) 0.37049(3) 0.71752(6)
S2_12 S 0.26448(4) 0.45917(3) 0.68558(6)
C1_12 C 0.56575(21) 0.45462(16) 0.5143(3)
H1_12 H 0.5687 0.4374 0.4865
C2_12 C 0.59697(23) 0.48362(17) 0.5475(3)
H2_12 H 0.6205 0.4862 0.5414
C3_12 C 0.59207(23) 0.50851(16) 0.5899(3)
H3_12 H 0.6126 0.5281 0.6130
C4_12 C 0.55747(21) 0.50476(14) 0.5981(3)
H4_12 H 0.5539 0.5215 0.6262
C5_12 C 0.52799(18) 0.47505(13) 0.5632(2)
C6_12 C 0.48898(17) 0.46661(12) 0.5669(2)
C7_12 C 0.43860(17) 0.46352(12) 0.5873(2)
C8_12 C 0.40600(16) 0.46632(11) 0.6070(2)
C9_11 C 0.10796(26) 0.3780(2) 0.5398(3)
H5_11 H 0.1019 0.3881 0.5794
C10_11 C 0.0813(4) 0.3586(3) 0.4879(4)
H6_11 H 0.0577 0.3562 0.4914
C11_11 C 0.0896(4) 0.3428(3) 0.4313(4)
H7_11 H 0.0716 0.3288 0.3965
C12_11 C 0.1254(3) 0.3478(2) 0.4255(4)
H8_11 H 0.1318 0.3376 0.3867
C13_11 C 0.15113(24) 0.36834(18) 0.4790(3)
C14_11 C 0.18974(21) 0.37472(16) 0.4809(3)
C15_11 C 0.24003(20) 0.37718(15) 0.4669(3)
C16_11 C 0.27282(21) 0.37496(15) 0.4470(3)
C17_11 C 0.31383(25) 0.36525(19) 0.4062(3)
H9_11 H 0.3263 0.3563 0.3777
C18_11 C 0.2277(4) 0.4907(3) 0.5324(5)
H10_11 H 0.2473 0.4859 0.5291
C19_11 C 0.2076(5) 0.5365(4) 0.5120(10)
H11_11 H 0.1898 0.5209 0.5481
H12_10 H 0.2196 0.5621 0.5277
H13_10 H 0.1952 0.5340 0.4663
C20_11 C 0.2717(7) 0.5525(5) 0.4747(13)
H14_11 H 0.2683 0.5492 0.4227
H15_11 H 0.2775 0.5774 0.4874
H16_11 H 0.2919 0.5488 0.4895
C21_12 C 0.4643(6) 0.3401(4) 0.5807(6)
H17_12 H 0.4544 0.3268 0.5375
C22_12 C 0.4470(9) 0.2795(5) 0.6331(13)
H18_12 H 0.4658 0.2767 0.6583
H19_12 H 0.4232 0.2636 0.6552
H20_12 H 0.4463 0.2727 0.5826
C23_11 C 0.4638(11) 0.3412(7) 0.7121(9)
H21_11 H 0.4831 0.3427 0.7435
H22_11 H 0.4695 0.3659 0.6984
H23_11 H 0.4403 0.3290 0.7375
O10_6 O 0.28110(12) 0.45362(8) 0.75304(17)
O11_11 O 0.27498(13) 0.37738(9) 0.65525(17)
C24_12 C 0.36521(17) 0.47695(12) 0.6505(2)
H24_11 H 0.3534 0.4868 0.6784
C25_12 C 0.3888(3) 0.3588(2) 0.6262(4)
H25_12 H 0.4013 0.3799 0.6584
H26_12 H 0.3768 0.3363 0.6546
H27_12 H 0.4068 0.3580 0.5941
H28_12 H 0.3512(27) 0.3675(19) 0.608(4)
Cu5_6 Cu 0.258141(26) 0.304517(15) 0.83358(3)
Cu7_6 Cu 0.258422(27) 0.407683(15) 0.81103(3)
O12_9 O 0.43243(14) 0.37019(11) 0.44598(17)
O13_9 O 0.39697(15) 0.39918(12) 0.40701(16)
O14_9 O 0.50585(14) 0.38557(12) 0.41971(17)
N15_13 N 0.0120(4) 0.8077(5) 0.3057(7)
H7_12 H 0.0045 0.4095 0.0632
H17_13 H 0.0065 0.7943 0.2042
C22_13 C 0.0538(5) 0.8342(8) 0.2998(13)
H18_13 H 0.0566 0.8558 0.3250
H19_13 H 0.0697 0.8263 0.3219
H20_13 H 0.0606 0.8403 0.2493
H23_12 H 0.0043 0.7780 0.4042
Cu1_12 Cu 0.910821(14) 0.538964(14) 0.23902(3)
Cu2_10 Cu 0.924807(15) 0.637851(15) 0.16692(3)
Cu4_10 Cu 0.925088(16) 0.741017(15) 0.14437(3)
N1_13 N 0.88297(11) 0.74822(11) 0.1873(2)
N2_13 N 0.89451(10) 0.69229(10) 0.1921(2)
N3_13 N 0.89715(10) 0.66159(10) 0.20515(19)
N4_13 N 0.84997(10) 0.65754(10) 0.2743(2)
N5_13 N 0.88960(9) 0.59766(9) 0.23911(18)
N6_13 N 0.88260(9) 0.56404(9) 0.26739(18)
N7_12 N 0.95027(13) 0.42653(12) 0.2023(2)
N8_12 N 0.93676(11) 0.48122(10) 0.2016(2)
N9_12 N 0.93499(11) 0.51291(10) 0.19188(19)
N10_12 N 0.97145(15) 0.51120(13) 0.1026(2)
N11_12 N 0.93837(11) 0.57463(10) 0.1556(2)
N12_12 N 0.94471(12) 0.60786(11) 0.1287(2)
N13_12 N 0.97760(16) 0.58893(14) 0.0615(3)
N14_12 N 0.8082(2) 0.3766(3) 0.1754(6)
O1_13 O 0.90673(9) 0.46654(9) 0.34589(16)
O2_13 O 0.83964(9) 0.43713(9) 0.35607(19)
O3_12 O 0.87238(8) 0.49309(8) 0.28852(16)
O4_13 O 0.95724(9) 0.62024(10) 0.36702(18)
O7_13 O 0.97111(11) 0.66601(12) 0.2506(2)
O8_12 O 0.86573(13) 0.39978(12) 0.2221(2)
O9_13 O 0.95923(14) 0.77080(13) 0.2451(2)
S1_13 S 0.96284(3) 0.58882(3) 0.38419(6)
S2_13 S 0.87416(3) 0.47198(3) 0.35225(6)
C1_13 C 0.87871(16) 0.77780(14) 0.1810(3)
H1_13 H 0.8959 0.7980 0.1532
C2_13 C 0.84971(17) 0.78002(16) 0.2142(3)
H2_13 H 0.8471 0.8010 0.2081
C3_13 C 0.82482(16) 0.75023(17) 0.2566(3)
H3_13 H 0.8052 0.7512 0.2797
C4_13 C 0.82857(14) 0.71938(15) 0.2648(3)
H4_13 H 0.8118 0.6991 0.2929
C5_13 C 0.85828(13) 0.71961(13) 0.2299(2)
C6_13 C 0.86672(12) 0.68904(12) 0.2336(2)
C7_13 C 0.86981(12) 0.64175(12) 0.2540(2)
C8_13 C 0.86701(11) 0.60635(11) 0.2737(2)
C9_12 C 0.9553(2) 0.39663(16) 0.2065(3)
H5_12 H 0.9452 0.3805 0.2461
C10_12 C 0.9747(3) 0.3894(2) 0.1546(4)
H6_12 H 0.9771 0.3682 0.1581
C11_12 C 0.9905(3) 0.4135(2) 0.0980(4)
C12_12 C 0.9855(2) 0.4443(2) 0.0922(4)
H8_12 H 0.9957 0.4609 0.0534
C13_12 C 0.96499(18) 0.44946(16) 0.1457(3)
C14_12 C 0.95861(16) 0.48169(14) 0.1476(3)
C15_12 C 0.95615(15) 0.52952(13) 0.1336(3)
C16_12 C 0.95837(15) 0.56453(14) 0.1137(3)
C17_12 C 0.96808(19) 0.61525(17) 0.0729(3)
H9_12 H 0.9770 0.6367 0.0444
C18_12 C 0.8426(3) 0.4037(3) 0.1991(5)
H10_12 H 0.8474 0.4281 0.1958
C19_12 C 0.7968(4) 0.3378(3) 0.1787(10)
H11_12 H 0.8124 0.3356 0.2148
H12_11 H 0.7712 0.3242 0.1944
H13_11 H 0.7993 0.3279 0.1330
C20_12 C 0.7808(5) 0.3859(5) 0.1414(13)
H14_12 H 0.7841 0.3858 0.0894
H15_12 H 0.7559 0.3668 0.1541
H16_12 H 0.7845 0.4098 0.1562
C21_13 C 0.9932(4) 0.7909(4) 0.2474(6)
C23_12 C 0.9921(7) 0.7893(9) 0.3788(9)
H21_12 H 0.9906 0.8071 0.4102
H22_12 H 0.9674 0.7703 0.3651
O11_12 O 0.95595(9) 0.56427(9) 0.32192(17)
C24_13 C 0.85638(12) 0.55493(12) 0.3172(2)
H24_12 H 0.8465 0.5333 0.3451
C25_13 C 0.9745(2) 0.6967(2) 0.2929(4)
H25_13 H 0.9534 0.6881 0.3251
H26_13 H 0.9970 0.7072 0.3213
H27_13 H 0.9753 0.7155 0.2608
H28_13 H 0.9658(19) 0.6504(19) 0.275(4)
O12_10 O 0.96315(11) 0.72891(8) 0.11264(17)
O13_10 O 0.93416(12) 0.66446(9) 0.07367(16)
O14_10 O 0.94777(12) 0.78695(8) 0.08637(17)
Cu1_13 Cu 0.461036(14) 0.371858(20) 0.23902(3)
Cu2_11 Cu 0.362149(15) 0.286957(21) 0.16692(3)
Cu4_11 Cu 0.258983(15) 0.184072(22) 0.14437(3)
N1_14 N 0.25178(11) 0.13476(16) 0.1873(2)
N2_14 N 0.30771(10) 0.20223(14) 0.1921(2)
N3_14 N 0.33841(10) 0.23557(14) 0.20515(19)
N4_14 N 0.34246(10) 0.19244(14) 0.2743(2)
N5_14 N 0.40234(9) 0.29195(13) 0.23911(18)
N6_14 N 0.43596(9) 0.31857(13) 0.26739(18)
N7_13 N 0.57347(12) 0.52375(18) 0.2023(2)
N8_13 N 0.51878(10) 0.45555(15) 0.2016(2)
N9_13 N 0.48709(10) 0.42209(15) 0.19188(19)
N10_13 N 0.48880(13) 0.46026(20) 0.1026(2)
N11_13 N 0.42537(10) 0.36375(15) 0.1556(2)
N12_13 N 0.39214(11) 0.33686(16) 0.1287(2)
N13_13 N 0.41107(14) 0.38868(21) 0.0615(3)
N14_13 N 0.6234(3) 0.4317(4) 0.1754(6)
N15_14 N 0.1923(5) 0.2044(6) 0.3057(7)
O1_14 O 0.53346(9) 0.44020(13) 0.34589(16)
O2_14 O 0.56287(9) 0.40252(13) 0.35607(19)
O3_13 O 0.50691(8) 0.37930(11) 0.28852(16)
O4_14 O 0.37976(10) 0.33701(13) 0.36702(18)
O7_14 O 0.33399(12) 0.30511(16) 0.2506(2)
O8_13 O 0.60022(12) 0.46596(18) 0.2221(2)
O9_14 O 0.22920(13) 0.18844(19) 0.2451(2)
S1_14 S 0.41118(3) 0.37403(4) 0.38419(6)
S2_14 S 0.52802(3) 0.40219(4) 0.35225(6)
C1_14 C 0.22220(14) 0.10092(21) 0.1810(3)
H1_14 H 0.2020 0.0980 0.1532
C2_14 C 0.21998(16) 0.06970(23) 0.2142(3)
H2_14 H 0.1990 0.0462 0.2081
C3_14 C 0.24977(17) 0.07460(23) 0.2566(3)
H3_14 H 0.2488 0.0541 0.2797
C4_14 C 0.28062(15) 0.10920(21) 0.2648(3)
H4_14 H 0.3009 0.1128 0.2929
C5_14 C 0.28039(13) 0.13868(18) 0.2299(2)
C6_14 C 0.31096(12) 0.17769(17) 0.2336(2)
C7_14 C 0.35825(12) 0.22807(17) 0.2540(2)
C8_14 C 0.39365(11) 0.26067(16) 0.2737(2)
C9_13 C 0.60337(16) 0.55871(26) 0.2065(3)
H5_13 H 0.6195 0.5648 0.2461
C10_13 C 0.6106(2) 0.5854(4) 0.1546(4)
H6_13 H 0.6318 0.6090 0.1581
C11_13 C 0.5865(2) 0.5771(4) 0.0980(4)
H7_13 H 0.5905 0.5951 0.0632
C12_13 C 0.5557(2) 0.5413(3) 0.0922(4)
H8_13 H 0.5391 0.5349 0.0534
C13_13 C 0.55054(16) 0.51554(24) 0.1457(3)
C14_13 C 0.51831(14) 0.47693(21) 0.1476(3)
C15_13 C 0.47048(13) 0.42664(20) 0.1336(3)
C16_13 C 0.43547(14) 0.39385(21) 0.1137(3)
C17_13 C 0.38475(17) 0.35284(25) 0.0729(3)
H9_13 H 0.3633 0.3404 0.0444
C18_13 C 0.5963(3) 0.4390(4) 0.1991(5)
H10_13 H 0.5719 0.4194 0.1958
C19_13 C 0.6622(3) 0.4591(5) 0.1787(10)
H11_13 H 0.6644 0.4769 0.2148
H12_12 H 0.6758 0.4471 0.1944
H13_12 H 0.6721 0.4715 0.1330
C20_13 C 0.6141(5) 0.3950(7) 0.1414(13)
H14_13 H 0.6142 0.3984 0.0894
H15_13 H 0.6332 0.3892 0.1541
H16_13 H 0.5902 0.3748 0.1562
C21_14 C 0.2091(4) 0.2024(6) 0.2474(6)
H17_14 H 0.2057 0.2123 0.2042
C22_14 C 0.1658(8) 0.2197(9) 0.2998(13)
H18_14 H 0.1442 0.2009 0.3250
H19_14 H 0.1737 0.2435 0.3219
H20_14 H 0.1597 0.2204 0.2493
C23_13 C 0.2107(9) 0.2029(11) 0.3788(9)
H21_13 H 0.1929 0.1836 0.4102
H22_13 H 0.2297 0.1972 0.3651
H23_13 H 0.2220 0.2264 0.4042
O11_13 O 0.43573(9) 0.39169(13) 0.32192(17)
C24_14 C 0.44507(12) 0.30146(17) 0.3172(2)
H24_13 H 0.4667 0.3133 0.3451
C25_14 C 0.3033(2) 0.2779(3) 0.2929(4)
H25_14 H 0.3119 0.2654 0.3251
H26_14 H 0.2928 0.2899 0.3213
H27_14 H 0.2845 0.2599 0.2608
H28_14 H 0.3496(19) 0.3155(27) 0.275(4)
O12_11 O 0.27109(8) 0.23423(14) 0.11264(17)
O13_11 O 0.33554(9) 0.26969(15) 0.07367(16)
O14_11 O 0.21305(8) 0.16081(14) 0.08637(17)
Cu1_14 Cu 0.628142(20) 0.089179(14) 0.23902(3)
Cu2_12 Cu 0.713043(21) 0.075193(15) 0.16692(3)
Cu4_12 Cu 0.815928(22) 0.074912(16) 0.14437(3)
N1_15 N 0.86524(16) 0.11703(11) 0.1873(2)
N2_15 N 0.79777(14) 0.10549(10) 0.1921(2)
N3_15 N 0.76443(14) 0.10285(10) 0.20515(19)
N4_15 N 0.80756(14) 0.15003(10) 0.2743(2)
N5_15 N 0.70805(13) 0.11040(9) 0.23911(18)
N6_15 N 0.68143(13) 0.11740(9) 0.26739(18)
N7_14 N 0.47625(18) 0.04973(13) 0.2023(2)
N8_14 N 0.54445(15) 0.06324(11) 0.2016(2)
N9_14 N 0.57791(15) 0.06501(11) 0.19188(19)
N10_14 N 0.53974(20) 0.02855(15) 0.1026(2)
N11_14 N 0.63625(15) 0.06163(11) 0.1556(2)
N12_14 N 0.66314(16) 0.05529(12) 0.1287(2)
N13_14 N 0.61132(21) 0.02240(16) 0.0615(3)
N14_14 N 0.5683(4) 0.1918(2) 0.1754(6)
O1_15 O 0.55980(13) 0.09327(9) 0.34589(16)
O2_15 O 0.59748(13) 0.16036(9) 0.35607(19)
O3_14 O 0.62070(11) 0.12762(8) 0.28852(16)
O4_15 O 0.66299(13) 0.04276(9) 0.36702(18)
O7_15 O 0.69489(16) 0.02889(11) 0.2506(2)
O8_14 O 0.53404(18) 0.13427(13) 0.2221(2)
O9_15 O 0.81156(19) 0.04077(14) 0.2451(2)
S1_15 S 0.62597(4) 0.03716(3) 0.38419(6)
S2_15 S 0.59781(4) 0.12584(3) 0.35225(6)
C1_15 C 0.89908(21) 0.12129(16) 0.1810(3)
H1_15 H 0.9020 0.1041 0.1532
C2_15 C 0.93030(23) 0.15029(17) 0.2142(3)
H2_15 H 0.9538 0.1529 0.2081
C3_15 C 0.92540(23) 0.17518(16) 0.2566(3)
H3_15 H 0.9459 0.1948 0.2797
C4_15 C 0.89080(21) 0.17143(14) 0.2648(3)
H4_15 H 0.8872 0.1882 0.2929
C5_15 C 0.86132(18) 0.14172(13) 0.2299(2)
C6_15 C 0.82231(17) 0.13328(12) 0.2336(2)
C7_15 C 0.77193(17) 0.13019(12) 0.2540(2)
C8_15 C 0.73933(16) 0.13299(11) 0.2737(2)
C9_14 C 0.44129(26) 0.0447(2) 0.2065(3)
H5_14 H 0.4352 0.0548 0.2461
C10_14 C 0.4146(4) 0.0253(3) 0.1546(4)
H6_14 H 0.3910 0.0229 0.1581
C11_14 C 0.4229(4) 0.0095(3) 0.0980(4)
C12_14 C 0.4587(3) 0.0145(2) 0.0922(4)
H8_14 H 0.4651 0.0043 0.0534
C13_14 C 0.48446(24) 0.03501(18) 0.1457(3)
C14_14 C 0.52307(21) 0.04139(16) 0.1476(3)
C15_14 C 0.57336(20) 0.04385(15) 0.1336(3)
C16_14 C 0.60615(21) 0.04163(15) 0.1137(3)
C17_14 C 0.64716(25) 0.03192(19) 0.0729(3)
H9_14 H 0.6596 0.0230 0.0444
C18_14 C 0.5610(4) 0.1574(3) 0.1991(5)
H10_14 H 0.5806 0.1526 0.1958
C19_14 C 0.5409(5) 0.2032(4) 0.1787(10)
H11_14 H 0.5231 0.1876 0.2148
H12_13 H 0.5529 0.2288 0.1944
H13_13 H 0.5285 0.2007 0.1330
C20_14 C 0.6050(7) 0.2192(5) 0.1414(13)
H14_14 H 0.6016 0.2159 0.0894
H15_14 H 0.6108 0.2441 0.1541
H16_14 H 0.6252 0.2155 0.1562
C21_15 C 0.7976(6) 0.0068(4) 0.2474(6)
C23_14 C 0.7971(11) 0.0079(7) 0.3788(9)
H21_14 H 0.8164 0.0094 0.4102
H22_14 H 0.8028 0.0326 0.3651
O11_14 O 0.60831(13) 0.04405(9) 0.32192(17)
C24_15 C 0.69854(17) 0.14362(12) 0.3172(2)
H24_14 H 0.6867 0.1535 0.3451
C25_15 C 0.7221(3) 0.0255(2) 0.2929(4)
H25_15 H 0.7346 0.0466 0.3251
H26_15 H 0.7101 0.0030 0.3213
H27_15 H 0.7401 0.0247 0.2608
H28_15 H 0.6845(27) 0.0342(19) 0.275(4)
O12_12 O 0.76577(14) 0.03685(11) 0.11264(17)
O13_12 O 0.73031(15) 0.06584(12) 0.07367(16)
O14_12 O 0.83919(14) 0.05223(12) 0.08637(17)
N15_15 N 0.7956(6) 0.9880(4) 0.3057(7)
H7_14 H 0.4049 0.9955 0.0632
H17_15 H 0.7877 0.9935 0.2042
C22_15 C 0.7803(9) 0.9462(5) 0.2998(13)
H18_15 H 0.7991 0.9434 0.3250
H19_15 H 0.7565 0.9303 0.3219
H20_15 H 0.7796 0.9394 0.2493
H23_14 H 0.7736 0.9957 0.4042
O1_16 O 0.24007(9) 0.13320(9) 0.01255(16)
O2_16 O 0.17298(9) 0.10379(9) 0.02273(19)
O4_16 O 0.29058(9) 0.28690(10) 0.03368(18)
S1_16 S 0.29618(3) 0.25548(3) 0.05085(6)
S2_16 S 0.20750(3) 0.13864(3) 0.01891(6)
C23_15 C 0.3255(7) 0.4559(9) 0.0454(9)
H21_15 H 0.3240 0.4737 0.0768
H22_15 H 0.3008 0.4369 0.0317
H23_15 H 0.3377 0.4446 0.0708
H24_15 H 0.1799 0.1999 0.0117
Cu1_15 Cu 0.244155(14) 0.205630(14) 0.90568(3)
N1_16 N 0.21631(11) 0.41488(11) 0.8539(2)
N2_16 N 0.22785(10) 0.35895(10) 0.8587(2)
N3_16 N 0.23049(10) 0.32825(10) 0.87181(19)
N4_16 N 0.18331(10) 0.32420(10) 0.9409(2)
N5_16 N 0.22294(9) 0.26432(9) 0.90577(18)
N6_16 N 0.21594(9) 0.23070(9) 0.93405(18)
N7_15 N 0.28361(13) 0.09319(12) 0.8689(2)
N8_15 N 0.27010(11) 0.14788(10) 0.8682(2)
N9_15 N 0.26833(11) 0.17957(10) 0.85854(19)
N10_15 N 0.30479(15) 0.17786(13) 0.7692(2)
N11_15 N 0.27171(11) 0.24129(10) 0.8222(2)
N12_15 N 0.27805(12) 0.27452(11) 0.7953(2)
N13_15 N 0.31094(16) 0.25559(14) 0.7281(3)
N14_15 N 0.1416(2) 0.0432(3) 0.8420(6)
N15_16 N 0.3454(4) 0.4743(5) 0.9723(7)
O3_15 O 0.20572(8) 0.15975(8) 0.95518(16)
O7_16 O 0.30445(11) 0.33267(12) 0.9172(2)
O8_15 O 0.19907(13) 0.06644(12) 0.8887(2)
O9_16 O 0.29257(14) 0.43746(13) 0.9117(2)
C1_16 C 0.21205(16) 0.44446(14) 0.8476(3)
H1_16 H 0.2293 0.4646 0.8198
C2_16 C 0.18305(17) 0.44668(16) 0.8808(3)
H2_16 H 0.1805 0.4676 0.8747
C3_16 C 0.15816(16) 0.41689(17) 0.9232(3)
H3_16 H 0.1386 0.4178 0.9463
C4_16 C 0.16191(14) 0.38604(15) 0.9314(3)
H4_16 H 0.1452 0.3657 0.9595
C5_16 C 0.19162(13) 0.38627(13) 0.8965(2)
C6_16 C 0.20006(12) 0.35570(12) 0.9002(2)
C7_16 C 0.20315(12) 0.30841(12) 0.9206(2)
C8_16 C 0.20035(11) 0.27301(11) 0.9403(2)
C9_15 C 0.2887(2) 0.06329(16) 0.8731(3)
H5_15 H 0.2786 0.0471 0.9127
C10_15 C 0.3081(3) 0.0560(2) 0.8212(4)
H6_15 H 0.3105 0.0348 0.8247
C11_15 C 0.3239(3) 0.0801(2) 0.7646(4)
H7_15 H 0.3379 0.0761 0.7298
C12_15 C 0.3189(2) 0.1109(2) 0.7588(4)
H8_15 H 0.3291 0.1275 0.7200
C13_15 C 0.29833(18) 0.11612(16) 0.8123(3)
C14_15 C 0.29195(16) 0.14835(14) 0.8142(3)
C15_15 C 0.28949(15) 0.19618(13) 0.8002(3)
C16_15 C 0.29171(15) 0.23119(14) 0.7803(3)
C17_15 C 0.30142(19) 0.28191(17) 0.7395(3)
H9_15 H 0.3104 0.3033 0.7110
C18_15 C 0.1760(3) 0.0703(3) 0.8657(5)
H10_15 H 0.1808 0.0947 0.8624
C19_15 C 0.1302(4) 0.0044(3) 0.8453(10)
H11_15 H 0.1458 0.0022 0.8814
C20_15 C 0.1142(5) 0.0525(5) 0.8080(13)
H14_15 H 0.1175 0.0524 0.7560
H15_15 H 0.0893 0.0334 0.8207
H16_15 H 0.1179 0.0764 0.8228
C21_16 C 0.3266(4) 0.4575(4) 0.9140(6)
H17_16 H 0.3399 0.4609 0.8708
C22_16 C 0.3872(5) 0.5008(8) 0.9664(13)
H18_16 H 0.3900 0.5224 0.9916
H19_16 H 0.4031 0.4929 0.9885
H20_16 H 0.3940 0.5069 0.9159
O11_15 O 0.28929(9) 0.23093(9) 0.98858(17)
C24_16 C 0.18972(12) 0.22159(12) 0.9838(2)
C25_16 C 0.3079(2) 0.3633(2) 0.9595(4)
H25_16 H 0.2868 0.3547 0.9917
H26_16 H 0.3304 0.3738 0.9879
H27_16 H 0.3087 0.3821 0.9274
H28_16 H 0.2992(19) 0.3170(19) 0.941(4)
O1_17 O 0.86680(9) 0.10686(13) 0.01255(16)
O2_17 O 0.89621(9) 0.06918(13) 0.02273(19)
O4_17 O 0.71310(10) 0.00367(13) 0.03368(18)
S1_17 S 0.74452(3) 0.04069(4) 0.05085(6)
S2_17 S 0.86136(3) 0.06885(4) 0.01891(6)
C23_16 C 0.5441(9) 0.8695(11) 0.0454(9)
H21_16 H 0.5263 0.8502 0.0768
H22_16 H 0.5631 0.8638 0.0317
H23_16 H 0.5554 0.8930 0.0708
H24_16 H 0.8001 0.9799 0.0117
N1_17 N 0.58512(11) 0.80142(16) 0.8539(2)
N2_17 N 0.64105(10) 0.86889(14) 0.8587(2)
N3_17 N 0.67175(10) 0.90223(14) 0.87181(19)
N4_17 N 0.67580(10) 0.85910(14) 0.9409(2)
N5_17 N 0.73568(9) 0.95861(13) 0.90577(18)
N6_17 N 0.76930(9) 0.98523(13) 0.93405(18)
N15_17 N 0.5257(5) 0.8710(6) 0.9723(7)
O7_17 O 0.66733(12) 0.97177(16) 0.9172(2)
O9_17 O 0.56254(13) 0.85510(19) 0.9117(2)
C1_17 C 0.55554(14) 0.76758(21) 0.8476(3)
H1_17 H 0.5354 0.7646 0.8198
C2_17 C 0.55332(16) 0.73636(23) 0.8808(3)
H2_17 H 0.5324 0.7128 0.8747
C3_17 C 0.58311(17) 0.74126(23) 0.9232(3)
H3_17 H 0.5822 0.7207 0.9463
C4_17 C 0.61396(15) 0.77586(21) 0.9314(3)
H4_17 H 0.6343 0.7794 0.9595
C5_17 C 0.61373(13) 0.80534(18) 0.8965(2)
C6_17 C 0.64430(12) 0.84435(17) 0.9002(2)
C7_17 C 0.69159(12) 0.89473(17) 0.9206(2)
C8_17 C 0.72699(11) 0.92733(16) 0.9403(2)
C21_17 C 0.5425(4) 0.8690(6) 0.9140(6)
H17_17 H 0.5391 0.8789 0.8708
C22_17 C 0.4992(8) 0.8863(9) 0.9664(13)
H18_17 H 0.4776 0.8675 0.9916
H19_17 H 0.5071 0.9101 0.9885
H20_17 H 0.4931 0.8870 0.9159
C24_17 C 0.77841(12) 0.96812(17) 0.9838(2)
C25_17 C 0.6367(2) 0.9445(3) 0.9595(4)
H25_17 H 0.6453 0.9320 0.9917
H26_17 H 0.6262 0.9565 0.9879
H27_17 H 0.6179 0.9265 0.9274
H28_17 H 0.6830(19) 0.9821(27) 0.941(4)
N1_18 N 0.19858(16) 0.78369(11) 0.8539(2)
N2_18 N 0.13111(14) 0.77215(10) 0.8587(2)
N3_18 N 0.09777(14) 0.76951(10) 0.87181(19)
N4_18 N 0.14090(14) 0.81669(10) 0.9409(2)
N5_18 N 0.04139(13) 0.77706(9) 0.90577(18)
N6_18 N 0.01477(13) 0.78406(9) 0.93405(18)
N15_18 N 0.1290(6) 0.6546(4) 0.9723(7)
O7_18 O 0.02823(16) 0.69555(11) 0.9172(2)
O9_18 O 0.14490(19) 0.70743(14) 0.9117(2)
C1_18 C 0.23242(21) 0.78795(16) 0.8476(3)
H1_18 H 0.2354 0.7707 0.8198
C2_18 C 0.26364(23) 0.81695(17) 0.8808(3)
H2_18 H 0.2872 0.8195 0.8747
C3_18 C 0.25874(23) 0.84184(16) 0.9232(3)
H3_18 H 0.2793 0.8614 0.9463
C4_18 C 0.22414(21) 0.83809(14) 0.9314(3)
H4_18 H 0.2206 0.8548 0.9595
C5_18 C 0.19466(18) 0.80838(13) 0.8965(2)
C6_18 C 0.15565(17) 0.79994(12) 0.9002(2)
C7_18 C 0.10527(17) 0.79685(12) 0.9206(2)
C8_18 C 0.07267(16) 0.79965(11) 0.9403(2)
C21_18 C 0.1310(6) 0.6734(4) 0.9140(6)
H17_18 H 0.1211 0.6601 0.8708
C22_18 C 0.1137(9) 0.6128(5) 0.9664(13)
H18_18 H 0.1325 0.6100 0.9916
H19_18 H 0.0899 0.5969 0.9885
H20_18 H 0.1130 0.6060 0.9159
C24_18 C 0.03188(17) 0.81028(12) 0.9838(2)
C25_18 C 0.0555(3) 0.6921(2) 0.9595(4)
H25_18 H 0.0680 0.7132 0.9917
H26_18 H 0.0435 0.6696 0.9879
H27_18 H 0.0735 0.6913 0.9274
H28_18 H 0.0179(27) 0.7008(19) 0.941(4)
O1_18 O 0.89314(13) 0.75993(9) 0.01255(16)
O2_18 O 0.93082(13) 0.82702(9) 0.02273(19)
O4_18 O 0.99633(13) 0.70942(9) 0.03368(18)
S1_18 S 0.95931(4) 0.70382(3) 0.05085(6)
S2_18 S 0.93115(4) 0.79250(3) 0.01891(6)
Cu1_16 Cu 0.961476(20) 0.755845(14) 0.90568(3)
N7_16 N 0.80959(18) 0.71639(13) 0.8689(2)
N8_16 N 0.87779(15) 0.72990(11) 0.8682(2)
N9_16 N 0.91125(15) 0.73167(11) 0.85854(19)
N10_16 N 0.87308(20) 0.69521(15) 0.7692(2)
N11_16 N 0.96959(15) 0.72829(11) 0.8222(2)
N12_16 N 0.99648(16) 0.72195(12) 0.7953(2)
N13_16 N 0.94466(21) 0.68906(16) 0.7281(3)
N14_16 N 0.9017(4) 0.8584(2) 0.8420(6)
O3_16 O 0.95404(11) 0.79428(8) 0.95518(16)
O8_16 O 0.86738(18) 0.80093(13) 0.8887(2)
C9_16 C 0.77463(26) 0.7113(2) 0.8731(3)
H5_16 H 0.7686 0.7214 0.9127
C10_16 C 0.7480(4) 0.6919(3) 0.8212(4)
H6_16 H 0.7244 0.6895 0.8247
C11_16 C 0.7563(4) 0.6761(3) 0.7646(4)
H7_16 H 0.7383 0.6621 0.7298
C12_16 C 0.7921(3) 0.6811(2) 0.7588(4)
H8_16 H 0.7985 0.6709 0.7200
C13_16 C 0.81780(24) 0.70167(18) 0.8123(3)
C14_16 C 0.85641(21) 0.70805(16) 0.8142(3)
C15_16 C 0.90670(20) 0.71051(15) 0.8002(3)
C16_16 C 0.93949(21) 0.70829(15) 0.7803(3)
C17_16 C 0.98050(25) 0.69858(19) 0.7395(3)
H9_16 H 0.9930 0.6896 0.7110
C18_16 C 0.8944(4) 0.8240(3) 0.8657(5)
H10_16 H 0.9140 0.8192 0.8624
C19_16 C 0.8743(5) 0.8698(4) 0.8453(10)
H11_16 H 0.8565 0.8542 0.8814
H12_14 H 0.8863 0.8954 0.8610
H13_14 H 0.8619 0.8673 0.7996
C20_16 C 0.9384(7) 0.8858(5) 0.8080(13)
H14_16 H 0.9350 0.8825 0.7560
H15_16 H 0.9442 0.9107 0.8207
H16_16 H 0.9586 0.8821 0.8228
O11_16 O 0.94165(13) 0.71071(9) 0.98858(17)
H12_15 H 0.8954 0.0092 0.1390
H13_15 H 0.8673 0.0055 0.2004
Cu1_17 Cu 0.205630(14) 0.961476(20) 0.09432(3)
Cu3_9 Cu 0.106914(15) 0.853987(22) 0.06153(3)
N7_17 N 0.09319(12) 0.80959(18) 0.1311(2)
N8_17 N 0.14788(10) 0.87779(15) 0.1318(2)
N9_17 N 0.17957(10) 0.91125(15) 0.14146(19)
N10_17 N 0.17786(13) 0.87308(20) 0.2308(2)
N11_17 N 0.24129(10) 0.96959(15) 0.1778(2)
N12_17 N 0.27452(11) 0.99648(16) 0.2047(2)
N13_17 N 0.25559(14) 0.94466(21) 0.2719(3)
N14_17 N 0.0432(3) 0.9017(4) 0.1580(6)
O3_17 O 0.15975(8) 0.95404(11) 0.04482(16)
O8_17 O 0.06644(12) 0.86738(18) 0.1113(2)
C9_17 C 0.06329(16) 0.77463(26) 0.1269(3)
H5_17 H 0.0471 0.7686 0.0873
C10_17 C 0.0560(2) 0.7480(4) 0.1788(4)
H6_17 H 0.0348 0.7244 0.1753
C11_17 C 0.0801(2) 0.7563(4) 0.2354(4)
H7_17 H 0.0761 0.7383 0.2702
C12_17 C 0.1109(2) 0.7921(3) 0.2412(4)
H8_17 H 0.1275 0.7985 0.2800
C13_17 C 0.11612(16) 0.81780(24) 0.1877(3)
C14_17 C 0.14835(14) 0.85641(21) 0.1858(3)
C15_17 C 0.19618(13) 0.90670(20) 0.1998(3)
C16_17 C 0.23119(14) 0.93949(21) 0.2197(3)
C17_17 C 0.28191(17) 0.98050(25) 0.2605(3)
H9_17 H 0.3033 0.9930 0.2890
C18_17 C 0.0703(3) 0.8944(4) 0.1343(5)
H10_17 H 0.0947 0.9140 0.1376
C19_17 C 0.0044(3) 0.8743(5) 0.1547(10)
H11_17 H 0.0022 0.8565 0.1186
C20_17 C 0.0525(5) 0.9384(7) 0.1920(13)
H14_17 H 0.0524 0.9350 0.2440
H15_17 H 0.0334 0.9442 0.1793
H16_17 H 0.0764 0.9586 0.1772
O11_17 O 0.23093(9) 0.94165(13) 0.01142(17)
C23_17 C 0.1305(11) 0.6745(7) 0.0454(9)
H21_17 H 0.1498 0.6760 0.0768
H22_17 H 0.1362 0.6992 0.0317
H23_17 H 0.1070 0.6623 0.0708
H24_17 H 0.0201 0.8201 0.0117
H12_16 H 0.9908 0.8863 0.1390
H13_16 H 0.9945 0.8619 0.2004
C23_18 C 0.8695(11) 0.3255(7) 0.9546(9)
H21_18 H 0.8502 0.3240 0.9232
H22_18 H 0.8638 0.3008 0.9683
H23_18 H 0.8930 0.3377 0.9292
H24_18 H 0.9799 0.1799 0.9883
Cu6_9 Cu 0.893086(27) 0.146013(22) 0.93847(3)
Cu1_18 Cu 0.794370(14) 0.038524(20) 0.90568(3)
N7_18 N 0.90681(12) 0.19041(18) 0.8689(2)
N8_18 N 0.85212(10) 0.12221(15) 0.8682(2)
N9_18 N 0.82043(10) 0.08875(15) 0.85854(19)
N10_18 N 0.82214(13) 0.12692(20) 0.7692(2)
N11_18 N 0.75871(10) 0.03041(15) 0.8222(2)
N12_18 N 0.72548(11) 0.00352(16) 0.7953(2)
N13_18 N 0.74441(14) 0.05534(21) 0.7281(3)
N14_18 N 0.9568(3) 0.0983(4) 0.8420(6)
O3_18 O 0.84025(8) 0.04596(11) 0.95518(16)
O8_18 O 0.93356(12) 0.13262(18) 0.8887(2)
C9_18 C 0.93671(16) 0.22537(26) 0.8731(3)
H5_18 H 0.9529 0.2314 0.9127
C10_18 C 0.9440(2) 0.2520(4) 0.8212(4)
H6_18 H 0.9652 0.2756 0.8247
C11_18 C 0.9199(2) 0.2437(4) 0.7646(4)
H7_18 H 0.9239 0.2617 0.7298
C12_18 C 0.8891(2) 0.2079(3) 0.7588(4)
H8_18 H 0.8725 0.2015 0.7200
C13_18 C 0.88388(16) 0.18220(24) 0.8123(3)
C14_18 C 0.85165(14) 0.14359(21) 0.8142(3)
C15_18 C 0.80382(13) 0.09330(20) 0.8002(3)
C16_18 C 0.76881(14) 0.06051(21) 0.7803(3)
C17_18 C 0.71809(17) 0.01950(25) 0.7395(3)
H9_18 H 0.6967 0.0070 0.7110
C18_18 C 0.9297(3) 0.1056(4) 0.8657(5)
H10_18 H 0.9053 0.0860 0.8624
C19_18 C 0.9956(3) 0.1257(5) 0.8453(10)
H11_18 H 0.9978 0.1435 0.8814
C20_18 C 0.9475(5) 0.0616(7) 0.8080(13)
H14_18 H 0.9476 0.0650 0.7560
H15_18 H 0.9666 0.0558 0.8207
H16_18 H 0.9236 0.0414 0.8228
O11_18 O 0.76907(9) 0.05835(13) 0.98858(17)
H12_17 H 0.1046 0.9908 0.8610
H13_17 H 0.1327 0.9945 0.7996
H12_18 H 0.0092 0.1137 0.8610
H13_18 H 0.0055 0.1381 0.7996
loop_
_geom_bond_atom_site_label_1
_geom_bond_atom_site_label_2
_geom_bond_site_symmetry_1
_geom_bond_site_symmetry_2
Cu1 N6 1_555 1_555
Cu2 N3 1_555 1_555
Cu3 N7 1_555 1_555
N5 Cu2 1_555 1_555
N6 N5 1_555 1_555
N7 C9 1_555 1_555
N8 Cu3 1_555 1_555
N9 Cu1 1_555 1_555
N10 C14 1_555 1_555
N11 Cu1 1_555 1_555
N12 Cu2 1_555 1_555
N13 C16 1_555 1_555
N14 C18 1_555 1_555
O1 Cu3 1_555 1_555
O2 S2 1_555 1_555
O3 Cu1 1_555 1_555
O4 S1 1_555 1_555
O5 S1 1_555 1_555
O6 S1 1_555 1_555
O7 Cu2 1_555 1_555
O8 Cu3 1_555 1_555
S1 O11 1_555 1_555
S2 O1 1_555 1_555
C7 N3 1_555 1_555
C8 N5 1_555 1_555
C9 H5 1_555 1_555
C10 C9 1_555 1_555
H6 C10 1_555 1_555
C11 C10 1_555 1_555
H7 C11 1_555 1_555
C12 C11 1_555 1_555
H8 C12 1_555 1_555
C13 N7 1_555 1_555
C14 N8 1_555 1_555
C15 N9 1_555 1_555
C16 N11 1_555 1_555
C17 N12 1_555 1_555
H9 C17 1_555 1_555
C18 O8 1_555 1_555
H10 C18 1_555 1_555
C19 N14 1_555 1_555
H11 C19 1_555 1_555
H12 C19 1_555 1_555
H13 C19 1_555 1_555
C20 N14 1_555 1_555
H14 C20 1_555 1_555
H15 C20 1_555 1_555
H16 C20 1_555 1_555
O10 S2 1_555 1_555
O11 Cu1 1_555 1_555
N16 C8 1_555 1_555
C24 N6 1_555 1_555
H24 C24 1_555 1_555
H28 O7 1_555 1_555
Cu5 O6 1_555 1_555
Cu6 N16 1_555 1_555
Cu7 O5 1_555 1_555
O13 Cu2 1_555 1_555
N17 Cu3 1_555 1_555
N4 C7 1_555 1_555
N8 N9 1_555 1_555
N10 C15 1_555 1_555
N11 N12 1_555 1_555
N13 C17 1_555 1_555
O3 S2 1_555 1_555
C7 C8 1_555 1_555
C12 C13 1_555 1_555
C13 C14 1_555 1_555
C15 C16 1_555 1_555
O10 Cu7 1_555 1_555
N16 C24 1_555 1_555
Cu4 N1 1_555 1_555
N1 C1 1_555 1_555
N2 Cu4 1_555 1_555
N15 C21 1_555 1_555
O9 Cu4 1_555 1_555
C1 H1 1_555 1_555
C2 C1 1_555 1_555
H2 C2 1_555 1_555
C3 C2 1_555 1_555
H3 C3 1_555 1_555
C4 C3 1_555 1_555
H4 C4 1_555 1_555
C5 N1 1_555 1_555
C6 N2 1_555 1_555
C21 O9 1_555 1_555
H17 C21 1_555 1_555
C22 N15 1_555 1_555
H18 C22 1_555 1_555
H19 C22 1_555 1_555
H20 C22 1_555 1_555
C23 N15 1_555 1_555
H21 C23 1_555 1_555
H22 C23 1_555 1_555
H23 C23 1_555 1_555
H25 C25 1_555 1_555
H26 C25 1_555 1_555
H27 C25 1_555 1_555
O12 Cu4 1_555 1_555
O14 Cu4 1_555 1_555
C4 C5 1_555 1_555
C5 C6 1_555 1_555
Cu4_2 N1_2 1_555 1_555
N1_2 C1_2 1_555 1_555
N2_2 Cu4_2 1_555 1_555
N15_2 C21_2 1_555 1_555
O9_2 Cu4_2 1_555 1_555
C1_2 H1_2 1_555 1_555
C2_2 C1_2 1_555 1_555
H2_2 C2_2 1_555 1_555
C3_2 C2_2 1_555 1_555
H3_2 C3_2 1_555 1_555
C4_2 C3_2 1_555 1_555
H4_2 C4_2 1_555 1_555
C5_2 N1_2 1_555 1_555
C6_2 N2_2 1_555 1_555
C21_2 O9_2 1_555 1_555
H17_2 C21_2 1_555 1_555
C22_2 N15_2 1_555 1_555
H18_2 C22_2 1_555 1_555
H19_2 C22_2 1_555 1_555
H20_2 C22_2 1_555 1_555
C23_2 N15_2 1_555 1_555
H21_2 C23_2 1_555 1_555
H22_2 C23_2 1_555 1_555
H23_2 C23_2 1_555 1_555
H25_2 C25_2 1_555 1_555
H26_2 C25_2 1_555 1_555
H27_2 C25_2 1_555 1_555
O12_2 Cu4_2 1_555 1_555
O14_2 Cu4_2 1_555 1_555
C4_2 C5_2 1_555 1_555
C5_2 C6_2 1_555 1_555
Cu1_2 N6_2 1_555 1_555
Cu2_2 N3_2 1_555 1_555
Cu3_2 N7_2 1_555 1_555
N5_2 Cu2_2 1_555 1_555
N6_2 N5_2 1_555 1_555
N7_2 C9_2 1_555 1_555
N8_2 Cu3_2 1_555 1_555
N9_2 Cu1_2 1_555 1_555
N10_2 C14_2 1_555 1_555
N11_2 Cu1_2 1_555 1_555
N12_2 Cu2_2 1_555 1_555
N13_2 C16_2 1_555 1_555
N14_2 C18_2 1_555 1_555
O1_2 Cu3_2 1_555 1_555
O2_2 S2_2 1_555 1_555
O3_2 Cu1_2 1_555 1_555
O4_2 S1_2 1_555 1_555
O5_2 S1_2 1_555 1_555
O6_2 S1_2 1_555 1_555
O7_2 Cu2_2 1_555 1_555
O8_2 Cu3_2 1_555 1_555
S1_2 O11_2 1_555 1_555
S2_2 O1_2 1_555 1_555
C7_2 N3_2 1_555 1_555
C8_2 N5_2 1_555 1_555
C9_2 H5_2 1_555 1_555
C10_2 C9_2 1_555 1_555
H6_2 C10_2 1_555 1_555
C11_2 C10_2 1_555 1_555
H7_2 C11_2 1_555 1_555
C12_2 C11_2 1_555 1_555
H8_2 C12_2 1_555 1_555
C13_2 N7_2 1_555 1_555
C14_2 N8_2 1_555 1_555
C15_2 N9_2 1_555 1_555
C16_2 N11_2 1_555 1_555
C17_2 N12_2 1_555 1_555
H9_2 C17_2 1_555 1_555
C18_2 O8_2 1_555 1_555
H10_2 C18_2 1_555 1_555
C19_2 N14_2 1_555 1_555
H11_2 C19_2 1_555 1_555
H12_2 C19_2 1_555 1_555
H13_2 C19_2 1_555 1_555
C20_2 N14_2 1_555 1_555
H14_2 C20_2 1_555 1_555
H15_2 C20_2 1_555 1_555
H16_2 C20_2 1_555 1_555
O10_2 S2_2 1_555 1_555
O11_2 Cu1_2 1_555 1_555
N16_2 C8_2 1_555 1_555
C24_2 N6_2 1_555 1_555
H24_2 C24_2 1_555 1_555
H28_2 O7_2 1_555 1_555
Cu5_2 O6_2 1_555 1_555
Cu6_2 N16_2 1_555 1_555
Cu7_2 O5_2 1_555 1_555
O13_2 Cu2_2 1_555 1_555
N17_2 Cu3_2 1_555 1_555
N4_2 C7_2 1_555 1_555
N8_2 N9_2 1_555 1_555
N10_2 C15_2 1_555 1_555
N11_2 N12_2 1_555 1_555
N13_2 C17_2 1_555 1_555
O3_2 S2_2 1_555 1_555
C7_2 C8_2 1_555 1_555
C12_2 C13_2 1_555 1_555
C13_2 C14_2 1_555 1_555
C15_2 C16_2 1_555 1_555
O10_2 Cu7_2 1_555 1_555
N16_2 C24_2 1_555 1_555
Cu1_3 N6_3 1_555 1_555
Cu2_3 N3_3 1_555 1_555
Cu3_3 N7_3 1_555 1_555
Cu4_3 N1_3 1_555 1_555
N1_3 C1_3 1_555 1_555
N2_3 Cu4_3 1_555 1_555
N3_3 N2_3 1_555 1_555
N4_3 C6_3 1_555 1_555
N5_3 Cu2_3 1_555 1_555
N6_3 N5_3 1_555 1_555
N7_3 C9_3 1_555 1_555
N8_3 Cu3_3 1_555 1_555
N9_3 Cu1_3 1_555 1_555
N10_3 C14_3 1_555 1_555
N11_3 Cu1_3 1_555 1_555
N12_3 Cu2_3 1_555 1_555
N13_3 C16_3 1_555 1_555
N14_3 C18_3 1_555 1_555
N15_3 C21_3 1_555 1_555
O1_3 Cu3_3 1_555 1_555
O2_3 S2_3 1_555 1_555
O3_3 Cu1_3 1_555 1_555
O4_3 S1_3 1_555 1_555
O5_3 S1_3 1_555 1_555
O6_3 S1_3 1_555 1_555
O7_3 Cu2_3 1_555 1_555
O8_3 Cu3_3 1_555 1_555
O9_3 Cu4_3 1_555 1_555
S1_3 O11_3 1_555 1_555
S2_3 O1_3 1_555 1_555
C1_3 H1_3 1_555 1_555
C2_3 C1_3 1_555 1_555
H2_3 C2_3 1_555 1_555
C3_3 C2_3 1_555 1_555
H3_3 C3_3 1_555 1_555
C4_3 C3_3 1_555 1_555
H4_3 C4_3 1_555 1_555
C5_3 N1_3 1_555 1_555
C6_3 N2_3 1_555 1_555
C7_3 N3_3 1_555 1_555
C8_3 N5_3 1_555 1_555
C9_3 H5_3 1_555 1_555
C10_3 C9_3 1_555 1_555
H6_3 C10_3 1_555 1_555
C11_3 C10_3 1_555 1_555
H7_3 C11_3 1_555 1_555
C12_3 C11_3 1_555 1_555
H8_3 C12_3 1_555 1_555
C13_3 N7_3 1_555 1_555
C14_3 N8_3 1_555 1_555
C15_3 N9_3 1_555 1_555
C16_3 N11_3 1_555 1_555
C17_3 N12_3 1_555 1_555
H9_3 C17_3 1_555 1_555
C18_3 O8_3 1_555 1_555
H10_3 C18_3 1_555 1_555
C19_3 N14_3 1_555 1_555
H11_3 C19_3 1_555 1_555
H12_3 C19_3 1_555 1_555
H13_3 C19_3 1_555 1_555
C20_3 N14_3 1_555 1_555
H14_3 C20_3 1_555 1_555
H15_3 C20_3 1_555 1_555
H16_3 C20_3 1_555 1_555
C21_3 O9_3 1_555 1_555
H17_3 C21_3 1_555 1_555
C22_3 N15_3 1_555 1_555
H18_3 C22_3 1_555 1_555
H19_3 C22_3 1_555 1_555
H20_3 C22_3 1_555 1_555
C23_3 N15_3 1_555 1_555
H21_3 C23_3 1_555 1_555
H22_3 C23_3 1_555 1_555
H23_3 C23_3 1_555 1_555
O10_3 S2_3 1_555 1_555
O11_3 Cu1_3 1_555 1_555
N16_3 C8_3 1_555 1_555
C24_3 N6_3 1_555 1_555
H24_3 C24_3 1_555 1_555
C25_3 O7_3 1_555 1_555
H25_3 C25_3 1_555 1_555
H26_3 C25_3 1_555 1_555
H27_3 C25_3 1_555 1_555
H28_3 O7_3 1_555 1_555
Cu5_3 O6_3 1_555 1_555
Cu6_3 N16_3 1_555 1_555
Cu7_3 O5_3 1_555 1_555
O12_3 Cu4_3 1_555 1_555
O13_3 Cu2_3 1_555 1_555
O14_3 Cu4_3 1_555 1_555
N17_3 Cu3_3 1_555 1_555
N4_3 C7_3 1_555 1_555
N8_3 N9_3 1_555 1_555
N10_3 C15_3 1_555 1_555
N11_3 N12_3 1_555 1_555
N13_3 C17_3 1_555 1_555
O3_3 S2_3 1_555 1_555
C4_3 C5_3 1_555 1_555
C5_3 C6_3 1_555 1_555
C7_3 C8_3 1_555 1_555
C12_3 C13_3 1_555 1_555
C13_3 C14_3 1_555 1_555
C15_3 C16_3 1_555 1_555
O10_3 Cu7_3 1_555 1_555
N16_3 C24_3 1_555 1_555
Cu1_4 N6_4 1_555 1_555
Cu2_4 N3_4 1_555 1_555
Cu3_4 N7_4 1_555 1_555
Cu4_4 N1_4 1_555 1_555
N1_4 C1_4 1_555 1_555
N2_4 Cu4_4 1_555 1_555
N3_4 N2_4 1_555 1_555
N4_4 C6_4 1_555 1_555
N5_4 Cu2_4 1_555 1_555
N6_4 N5_4 1_555 1_555
N7_4 C9_4 1_555 1_555
N8_4 Cu3_4 1_555 1_555
N9_4 Cu1_4 1_555 1_555
N10_4 C14_4 1_555 1_555
N11_4 Cu1_4 1_555 1_555
N12_4 Cu2_4 1_555 1_555
N13_4 C16_4 1_555 1_555
N14_4 C18_4 1_555 1_555
O1_4 Cu3_4 1_555 1_555
O2_4 S2_4 1_555 1_555
O3_4 Cu1_4 1_555 1_555
O4_4 S1_4 1_555 1_555
O12_2 S1_4 1_555 1_555
O7_4 Cu2_4 1_555 1_555
O8_4 Cu3_4 1_555 1_555
O9_4 Cu4_4 1_555 1_555
S1_4 O11_4 1_555 1_555
S2_4 O1_4 1_555 1_555
C1_4 H1_4 1_555 1_555
C2_4 C1_4 1_555 1_555
H2_4 C2_4 1_555 1_555
C3_4 C2_4 1_555 1_555
H3_4 C3_4 1_555 1_555
C4_4 C3_4 1_555 1_555
H4_4 C4_4 1_555 1_555
C5_4 N1_4 1_555 1_555
C6_4 N2_4 1_555 1_555
C7_4 N3_4 1_555 1_555
C8_4 N5_4 1_555 1_555
C9_4 H5_4 1_555 1_555
C10_4 C9_4 1_555 1_555
H6_4 C10_4 1_555 1_555
C11_4 C10_4 1_555 1_555
C12_4 C11_4 1_555 1_555
H8_4 C12_4 1_555 1_555
C13_4 N7_4 1_555 1_555
C14_4 N8_4 1_555 1_555
C15_4 N9_4 1_555 1_555
C16_4 N11_4 1_555 1_555
C17_4 N12_4 1_555 1_555
H9_4 C17_4 1_555 1_555
C18_4 O8_4 1_555 1_555
H10_4 C18_4 1_555 1_555
C19_4 N14_4 1_555 1_555
H11_4 C19_4 1_555 1_555
H12_4 C19_4 1_555 1_555
H13_4 C19_4 1_555 1_555
C20_4 N14_4 1_555 1_555
H14_4 C20_4 1_555 1_555
H15_4 C20_4 1_555 1_555
H16_4 C20_4 1_555 1_555
C21_4 O9_4 1_555 1_555
H21_4 C23_4 1_555 1_555
H22_4 C23_4 1_555 1_555
O14_2 S2_4 1_555 1_555
O11_4 Cu1_4 1_555 1_555
N16_4 C8_4 1_555 1_555
C24_4 N6_4 1_555 1_555
H24_4 C24_4 1_555 1_555
C25_4 O7_4 1_555 1_555
H25_4 C25_4 1_555 1_555
H26_4 C25_4 1_555 1_555
H27_4 C25_4 1_555 1_555
H28_4 O7_4 1_555 1_555
Cu6_4 N16_4 1_555 1_555
O12_4 Cu4_4 1_555 1_555
O13_4 Cu2_4 1_555 1_555
O14_4 Cu4_4 1_555 1_555
N17_4 Cu3_4 1_555 1_555
N4_4 C7_4 1_555 1_555
N8_4 N9_4 1_555 1_555
N10_4 C15_4 1_555 1_555
N11_4 N12_4 1_555 1_555
N13_4 C17_4 1_555 1_555
O3_4 S2_4 1_555 1_555
C4_4 C5_4 1_555 1_555
C5_4 C6_4 1_555 1_555
C7_4 C8_4 1_555 1_555
C12_4 C13_4 1_555 1_555
C13_4 C14_4 1_555 1_555
C15_4 C16_4 1_555 1_555
N16_4 C24_4 1_555 1_555
C22_4 N15_4 1_555 1_555
H18_4 C22_4 1_555 1_555
H19_4 C22_4 1_555 1_555
H20_4 C22_4 1_555 1_555
Cu1_5 N6_5 1_555 1_555
Cu2_5 N3_5 1_555 1_555
Cu3_5 N7_5 1_555 1_555
Cu4_5 N1_5 1_555 1_555
N1_5 C1_5 1_555 1_555
N2_5 Cu4_5 1_555 1_555
N3_5 N2_5 1_555 1_555
N4_5 C6_5 1_555 1_555
N5_5 Cu2_5 1_555 1_555
N6_5 N5_5 1_555 1_555
N7_5 C9_5 1_555 1_555
N8_5 Cu3_5 1_555 1_555
N9_5 Cu1_5 1_555 1_555
N10_5 C14_5 1_555 1_555
N11_5 Cu1_5 1_555 1_555
N12_5 Cu2_5 1_555 1_555
N13_5 C16_5 1_555 1_555
N14_5 C18_5 1_555 1_555
N15_5 C21_5 1_555 1_555
O1_5 Cu3_5 1_555 1_555
O2_5 S2_5 1_555 1_555
O3_5 Cu1_5 1_555 1_555
O4_5 S1_5 1_555 1_555
O12_3 S1_5 1_555 1_555
O13_3 S1_5 1_555 1_555
O7_5 Cu2_5 1_555 1_555
O8_5 Cu3_5 1_555 1_555
O9_5 Cu4_5 1_555 1_555
S1_5 O11_5 1_555 1_555
S2_5 O1_5 1_555 1_555
C1_5 H1_5 1_555 1_555
C2_5 C1_5 1_555 1_555
H2_5 C2_5 1_555 1_555
C3_5 C2_5 1_555 1_555
H3_5 C3_5 1_555 1_555
C4_5 C3_5 1_555 1_555
H4_5 C4_5 1_555 1_555
C5_5 N1_5 1_555 1_555
C6_5 N2_5 1_555 1_555
C7_5 N3_5 1_555 1_555
C8_5 N5_5 1_555 1_555
C9_5 H5_5 1_555 1_555
C10_5 C9_5 1_555 1_555
H6_5 C10_5 1_555 1_555
C11_5 C10_5 1_555 1_555
H7_5 C11_5 1_555 1_555
C12_5 C11_5 1_555 1_555
H8_5 C12_5 1_555 1_555
C13_5 N7_5 1_555 1_555
C14_5 N8_5 1_555 1_555
C15_5 N9_5 1_555 1_555
C16_5 N11_5 1_555 1_555
C17_5 N12_5 1_555 1_555
H9_5 C17_5 1_555 1_555
C18_5 O8_5 1_555 1_555
H10_5 C18_5 1_555 1_555
C19_5 N14_5 1_555 1_555
H11_5 C19_5 1_555 1_555
H12_5 C19_5 1_555 1_555
H13_5 C19_5 1_555 1_555
C20_5 N14_5 1_555 1_555
H14_5 C20_5 1_555 1_555
H15_5 C20_5 1_555 1_555
H16_5 C20_5 1_555 1_555
C21_5 O9_5 1_555 1_555
H17_5 C21_5 1_555 1_555
C22_5 N15_5 1_555 1_555
H18_5 C22_5 1_555 1_555
H19_5 C22_5 1_555 1_555
H20_5 C22_5 1_555 1_555
C23_5 N15_5 1_555 1_555
H21_5 C23_5 1_555 1_555
H22_5 C23_5 1_555 1_555
H23_5 C23_5 1_555 1_555
O14_3 S2_5 1_555 1_555
O11_5 Cu1_5 1_555 1_555
N16_5 C8_5 1_555 1_555
C24_5 N6_5 1_555 1_555
H24_5 C24_5 1_555 1_555
C25_5 O7_5 1_555 1_555
H25_5 C25_5 1_555 1_555
H26_5 C25_5 1_555 1_555
H27_5 C25_5 1_555 1_555
H28_5 O7_5 1_555 1_555
Cu6_5 N16_5 1_555 1_555
O12_5 Cu4_5 1_555 1_555
O13_5 Cu2_5 1_555 1_555
O14_5 Cu4_5 1_555 1_555
N17_5 Cu3_5 1_555 1_555
N4_5 C7_5 1_555 1_555
N8_5 N9_5 1_555 1_555
N10_5 C15_5 1_555 1_555
N11_5 N12_5 1_555 1_555
N13_5 C17_5 1_555 1_555
O3_5 S2_5 1_555 1_555
C4_5 C5_5 1_555 1_555
C5_5 C6_5 1_555 1_555
C7_5 C8_5 1_555 1_555
C12_5 C13_5 1_555 1_555
C13_5 C14_5 1_555 1_555
C15_5 C16_5 1_555 1_555
N16_5 C24_5 1_555 1_555
C22_6 N15_6 1_555 1_555
H18_6 C22_6 1_555 1_555
H19_6 C22_6 1_555 1_555
H20_6 C22_6 1_555 1_555
Cu1_6 N6_6 1_555 1_555
Cu2_6 N3_6 1_555 1_555
Cu3_6 N7_6 1_555 1_555
Cu4_6 N1_6 1_555 1_555
N1_6 C1_6 1_555 1_555
N2_6 Cu4_6 1_555 1_555
N3_6 N2_6 1_555 1_555
N4_6 C6_6 1_555 1_555
N5_6 Cu2_6 1_555 1_555
N6_6 N5_6 1_555 1_555
N7_6 C9_6 1_555 1_555
N8_6 Cu3_6 1_555 1_555
N9_6 Cu1_6 1_555 1_555
N10_6 C14_6 1_555 1_555
N11_6 Cu1_6 1_555 1_555
N12_6 Cu2_6 1_555 1_555
N13_6 C16_6 1_555 1_555
N14_6 C18_6 1_555 1_555
O1_6 Cu3_6 1_555 1_555
O2_6 S2_6 1_555 1_555
O3_6 Cu1_6 1_555 1_555
O4_6 S1_6 1_555 1_555
O12 S1_6 1_555 1_555
O7_6 Cu2_6 1_555 1_555
O8_6 Cu3_6 1_555 1_555
O9_6 Cu4_6 1_555 1_555
S1_6 O11_6 1_555 1_555
S2_6 O1_6 1_555 1_555
C1_6 H1_6 1_555 1_555
C2_6 C1_6 1_555 1_555
H2_6 C2_6 1_555 1_555
C3_6 C2_6 1_555 1_555
H3_6 C3_6 1_555 1_555
C4_6 C3_6 1_555 1_555
H4_6 C4_6 1_555 1_555
C5_6 N1_6 1_555 1_555
C6_6 N2_6 1_555 1_555
C7_6 N3_6 1_555 1_555
C8_6 N5_6 1_555 1_555
C9_6 H5_6 1_555 1_555
C10_6 C9_6 1_555 1_555
H6_6 C10_6 1_555 1_555
C11_6 C10_6 1_555 1_555
C12_6 C11_6 1_555 1_555
H8_6 C12_6 1_555 1_555
C13_6 N7_6 1_555 1_555
C14_6 N8_6 1_555 1_555
C15_6 N9_6 1_555 1_555
C16_6 N11_6 1_555 1_555
C17_6 N12_6 1_555 1_555
H9_6 C17_6 1_555 1_555
C18_6 O8_6 1_555 1_555
H10_6 C18_6 1_555 1_555
C19_6 N14_6 1_555 1_555
H11_6 C19_6 1_555 1_555
H12_6 C19_6 1_555 1_555
H13_6 C19_6 1_555 1_555
C20_6 N14_6 1_555 1_555
H14_6 C20_6 1_555 1_555
H15_6 C20_6 1_555 1_555
H16_6 C20_6 1_555 1_555
C21_6 O9_6 1_555 1_555
H21_6 C23_6 1_555 1_555
H22_6 C23_6 1_555 1_555
O14 S2_6 1_555 1_555
O11_6 Cu1_6 1_555 1_555
N16_6 C8_6 1_555 1_555
C24_6 N6_6 1_555 1_555
H24_6 C24_6 1_555 1_555
C25_6 O7_6 1_555 1_555
H25_6 C25_6 1_555 1_555
H26_6 C25_6 1_555 1_555
H27_6 C25_6 1_555 1_555
H28_6 O7_6 1_555 1_555
Cu6_6 N16_6 1_555 1_555
O12_6 Cu4_6 1_555 1_555
O13_6 Cu2_6 1_555 1_555
O14_6 Cu4_6 1_555 1_555
N17_6 Cu3_6 1_555 1_555
N4_6 C7_6 1_555 1_555
N8_6 N9_6 1_555 1_555
N10_6 C15_6 1_555 1_555
N11_6 N12_6 1_555 1_555
N13_6 C17_6 1_555 1_555
O3_6 S2_6 1_555 1_555
C4_6 C5_6 1_555 1_555
C5_6 C6_6 1_555 1_555
C7_6 C8_6 1_555 1_555
C12_6 C13_6 1_555 1_555
C13_6 C14_6 1_555 1_555
C15_6 C16_6 1_555 1_555
N16_6 C24_6 1_555 1_555
Cu1_7 N6_7 1_555 1_555
Cu5_3 N3_7 1_555 1_555
Cu3_7 N7_7 1_555 1_555
Cu7_3 N1_7 1_555 1_555
N1_7 C1_7 1_555 1_555
N2_7 Cu7_3 1_555 1_555
N3_7 N2_7 1_555 1_555
N4_7 C6_7 1_555 1_555
N5_7 Cu5_3 1_555 1_555
N6_7 N5_7 1_555 1_555
N7_7 C9_7 1_555 1_555
N8_7 Cu3_7 1_555 1_555
N9_7 Cu1_7 1_555 1_555
N10_7 C14_7 1_555 1_555
N11_7 Cu1_7 1_555 1_555
N12_7 Cu5_3 1_555 1_555
N13_7 C16_7 1_555 1_555
N14_7 C18_7 1_555 1_555
N15_7 C21_7 1_555 1_555
O3_7 Cu1_7 1_555 1_555
O7_7 Cu5_3 1_555 1_555
O8_7 Cu3_7 1_555 1_555
O9_7 Cu7_3 1_555 1_555
C1_7 H1_7 1_555 1_555
C2_7 C1_7 1_555 1_555
H2_7 C2_7 1_555 1_555
C3_7 C2_7 1_555 1_555
H3_7 C3_7 1_555 1_555
C4_7 C3_7 1_555 1_555
H4_7 C4_7 1_555 1_555
C5_7 N1_7 1_555 1_555
C6_7 N2_7 1_555 1_555
C7_7 N3_7 1_555 1_555
C8_7 N5_7 1_555 1_555
C9_7 H5_7 1_555 1_555
C10_7 C9_7 1_555 1_555
H6_7 C10_7 1_555 1_555
C11_7 C10_7 1_555 1_555
H7_7 C11_7 1_555 1_555
C12_7 C11_7 1_555 1_555
H8_7 C12_7 1_555 1_555
C13_7 N7_7 1_555 1_555
C14_7 N8_7 1_555 1_555
C15_7 N9_7 1_555 1_555
C16_7 N11_7 1_555 1_555
C17_7 N12_7 1_555 1_555
H9_7 C17_7 1_555 1_555
C18_7 O8_7 1_555 1_555
H10_7 C18_7 1_555 1_555
C19_7 N14_7 1_555 1_555
H11_7 C19_7 1_555 1_555
C20_7 N14_7 1_555 1_555
H14_7 C20_7 1_555 1_555
H15_7 C20_7 1_555 1_555
H16_7 C20_7 1_555 1_555
C21_7 O9_7 1_555 1_555
H17_7 C21_7 1_555 1_555
C22_7 N15_7 1_555 1_555
H18_7 C22_7 1_555 1_555
H19_7 C22_7 1_555 1_555
H20_7 C22_7 1_555 1_555
O11_7 Cu1_7 1_555 1_555
N16_7 C8_7 1_555 1_555
C24_7 N6_7 1_555 1_555
C25_7 O7_7 1_555 1_555
H25_7 C25_7 1_555 1_555
H26_7 C25_7 1_555 1_555
H27_7 C25_7 1_555 1_555
H28_7 O7_7 1_555 1_555
N4_7 C7_7 1_555 1_555
N8_7 N9_7 1_555 1_555
N10_7 C15_7 1_555 1_555
N11_7 N12_7 1_555 1_555
N13_7 C17_7 1_555 1_555
C4_7 C5_7 1_555 1_555
C5_7 C6_7 1_555 1_555
C7_7 C8_7 1_555 1_555
C12_7 C13_7 1_555 1_555
C13_7 C14_7 1_555 1_555
C15_7 C16_7 1_555 1_555
N16_7 C24_7 1_555 1_555
O2_7 S2_7 1_555 1_555
O4_7 S1_7 1_555 1_555
O12_5 S1_7 1_555 1_555
O13_5 S1_7 1_555 1_555
S2_7 O1_7 1_555 1_555
H21_7 C23_7 1_555 1_555
H22_7 C23_7 1_555 1_555
H23_7 C23_7 1_555 1_555
O14_5 S2_7 1_555 1_555
Cu5 N3_8 1_555 1_555
Cu7 N1_8 1_555 1_555
N1_8 C1_8 1_555 1_555
N2_8 Cu7 1_555 1_555
N3_8 N2_8 1_555 1_555
N4_8 C6_8 1_555 1_555
N5_8 Cu5 1_555 1_555
N6_8 N5_8 1_555 1_555
N15_8 C21_8 1_555 1_555
O7_8 Cu5 1_555 1_555
O9_8 Cu7 1_555 1_555
C1_8 H1_8 1_555 1_555
C2_8 C1_8 1_555 1_555
H2_8 C2_8 1_555 1_555
C3_8 C2_8 1_555 1_555
H3_8 C3_8 1_555 1_555
C4_8 C3_8 1_555 1_555
H4_8 C4_8 1_555 1_555
C5_8 N1_8 1_555 1_555
C6_8 N2_8 1_555 1_555
C7_8 N3_8 1_555 1_555
C8_8 N5_8 1_555 1_555
C21_8 O9_8 1_555 1_555
H17_8 C21_8 1_555 1_555
C22_8 N15_8 1_555 1_555
H18_8 C22_8 1_555 1_555
H19_8 C22_8 1_555 1_555
H20_8 C22_8 1_555 1_555
N16_8 C8_8 1_555 1_555
C24_8 N6_8 1_555 1_555
C25_8 O7_8 1_555 1_555
H25_8 C25_8 1_555 1_555
H26_8 C25_8 1_555 1_555
H27_8 C25_8 1_555 1_555
H28_8 O7_8 1_555 1_555
N4_8 C7_8 1_555 1_555
C4_8 C5_8 1_555 1_555
C5_8 C6_8 1_555 1_555
C7_8 C8_8 1_555 1_555
N16_8 C24_8 1_555 1_555
H21_8 C23_8 1_555 1_555
H22_8 C23_8 1_555 1_555
H23_8 C23_8 1_555 1_555
O2_8 S2_8 1_555 1_555
O4_8 S1_8 1_555 1_555
O12_6 S1_8 1_555 1_555
O13_6 S1_8 1_555 1_555
S2_8 O1_8 1_555 1_555
O14_6 S2_8 1_555 1_555
Cu3_8 N7_8 1_555 1_555
N7_8 C9_8 1_555 1_555
N8_8 Cu3_8 1_555 1_555
N9_8 Cu1_8 1_555 1_555
N10_8 C14_8 1_555 1_555
N11_8 Cu1_8 1_555 1_555
N13_8 C16_8 1_555 1_555
N14_8 C18_8 1_555 1_555
O3_8 Cu1_8 1_555 1_555
O8_8 Cu3_8 1_555 1_555
C9_8 H5_8 1_555 1_555
C10_8 C9_8 1_555 1_555
H6_8 C10_8 1_555 1_555
C11_8 C10_8 1_555 1_555
H7_8 C11_8 1_555 1_555
C12_8 C11_8 1_555 1_555
H8_8 C12_8 1_555 1_555
C13_8 N7_8 1_555 1_555
C14_8 N8_8 1_555 1_555
C15_8 N9_8 1_555 1_555
C16_8 N11_8 1_555 1_555
C17_8 N12_8 1_555 1_555
H9_8 C17_8 1_555 1_555
C18_8 O8_8 1_555 1_555
H10_8 C18_8 1_555 1_555
C19_8 N14_8 1_555 1_555
H11_8 C19_8 1_555 1_555
H12_7 C19_8 1_555 1_555
H13_7 C19_8 1_555 1_555
C20_8 N14_8 1_555 1_555
H14_8 C20_8 1_555 1_555
H15_8 C20_8 1_555 1_555
H16_8 C20_8 1_555 1_555
O11_8 Cu1_8 1_555 1_555
N8_8 N9_8 1_555 1_555
N10_8 C15_8 1_555 1_555
N11_8 N12_8 1_555 1_555
N13_8 C17_8 1_555 1_555
C12_8 C13_8 1_555 1_555
C13_8 C14_8 1_555 1_555
C15_8 C16_8 1_555 1_555
O2_9 S2_9 1_555 1_555
O4_9 S1_9 1_555 1_555
O12_4 S1_9 1_555 1_555
O13_4 S1_9 1_555 1_555
S2_9 O1_9 1_555 1_555
O14_4 S2_9 1_555 1_555
Cu5_2 N3_9 1_555 1_555
Cu7_2 N1_9 1_555 1_555
N1_9 C1_9 1_555 1_555
N2_9 Cu7_2 1_555 1_555
N3_9 N2_9 1_555 1_555
N4_9 C6_9 1_555 1_555
N5_9 Cu5_2 1_555 1_555
N6_9 N5_9 1_555 1_555
N15_9 C21_9 1_555 1_555
O7_9 Cu5_2 1_555 1_555
O9_9 Cu7_2 1_555 1_555
C1_9 H1_9 1_555 1_555
C2_9 C1_9 1_555 1_555
H2_9 C2_9 1_555 1_555
C3_9 C2_9 1_555 1_555
H3_9 C3_9 1_555 1_555
C4_9 C3_9 1_555 1_555
H4_9 C4_9 1_555 1_555
C5_9 N1_9 1_555 1_555
C6_9 N2_9 1_555 1_555
C7_9 N3_9 1_555 1_555
C8_9 N5_9 1_555 1_555
C21_9 O9_9 1_555 1_555
H17_9 C21_9 1_555 1_555
C22_9 N15_9 1_555 1_555
H18_9 C22_9 1_555 1_555
H19_9 C22_9 1_555 1_555
H20_9 C22_9 1_555 1_555
N16_9 C8_9 1_555 1_555
C24_9 N6_9 1_555 1_555
C25_9 O7_9 1_555 1_555
H25_9 C25_9 1_555 1_555
H26_9 C25_9 1_555 1_555
H27_9 C25_9 1_555 1_555
H28_9 O7_9 1_555 1_555
N4_9 C7_9 1_555 1_555
C4_9 C5_9 1_555 1_555
C5_9 C6_9 1_555 1_555
C7_9 C8_9 1_555 1_555
N16_9 C24_9 1_555 1_555
Cu4_7 N1_10 1_555 1_555
N1_10 C1_10 1_555 1_555
N2_10 Cu4_7 1_555 1_555
N15_10 C21_10 1_555 1_555
O9_10 Cu4_7 1_555 1_555
C1_10 H1_10 1_555 1_555
C2_10 C1_10 1_555 1_555
H2_10 C2_10 1_555 1_555
C3_10 C2_10 1_555 1_555
H3_10 C3_10 1_555 1_555
C4_10 C3_10 1_555 1_555
H4_10 C4_10 1_555 1_555
C5_10 N1_10 1_555 1_555
C6_10 N2_10 1_555 1_555
C21_10 O9_10 1_555 1_555
H17_10 C21_10 1_555 1_555
C22_10 N15_10 1_555 1_555
H18_10 C22_10 1_555 1_555
H19_10 C22_10 1_555 1_555
H20_10 C22_10 1_555 1_555
C23_9 N15_10 1_555 1_555
H21_9 C23_9 1_555 1_555
H22_9 C23_9 1_555 1_555
H23_9 C23_9 1_555 1_555
H25_10 C25_10 1_555 1_555
H26_10 C25_10 1_555 1_555
H27_10 C25_10 1_555 1_555
O12_7 Cu4_7 1_555 1_555
O14_7 Cu4_7 1_555 1_555
C4_10 C5_10 1_555 1_555
C5_10 C6_10 1_555 1_555
Cu1_9 N6_10 1_555 1_555
Cu2_7 N3_10 1_555 1_555
Cu6_5 N7_9 1_555 1_555
N5_10 Cu2_7 1_555 1_555
N6_10 N5_10 1_555 1_555
N7_9 C9_9 1_555 1_555
N8_9 Cu6_5 1_555 1_555
N9_9 Cu1_9 1_555 1_555
N10_9 C14_9 1_555 1_555
N11_9 Cu1_9 1_555 1_555
N12_9 Cu2_7 1_555 1_555
N13_9 C16_9 1_555 1_555
N14_9 C18_9 1_555 1_555
O1_10 Cu6_5 1_555 1_555
O2_10 S2_10 1_555 1_555
O3_9 Cu1_9 1_555 1_555
O4_10 S1_10 1_555 1_555
O5_4 S1_10 1_555 1_555
O6_4 S1_10 1_555 1_555
O7_10 Cu2_7 1_555 1_555
O8_9 Cu6_5 1_555 1_555
S1_10 O11_9 1_555 1_555
S2_10 O1_10 1_555 1_555
C7_10 N3_10 1_555 1_555
C8_10 N5_10 1_555 1_555
C9_9 H5_9 1_555 1_555
C10_9 C9_9 1_555 1_555
H6_9 C10_9 1_555 1_555
C11_9 C10_9 1_555 1_555
H7_9 C11_9 1_555 1_555
C12_9 C11_9 1_555 1_555
H8_9 C12_9 1_555 1_555
C13_9 N7_9 1_555 1_555
C14_9 N8_9 1_555 1_555
C15_9 N9_9 1_555 1_555
C16_9 N11_9 1_555 1_555
C17_9 N12_9 1_555 1_555
H9_9 C17_9 1_555 1_555
C18_9 O8_9 1_555 1_555
H10_9 C18_9 1_555 1_555
C19_9 N14_9 1_555 1_555
H11_9 C19_9 1_555 1_555
H12_8 C19_9 1_555 1_555
H13_8 C19_9 1_555 1_555
C20_9 N14_9 1_555 1_555
H14_9 C20_9 1_555 1_555
H15_9 C20_9 1_555 1_555
H16_9 C20_9 1_555 1_555
O10_4 S2_10 1_555 1_555
O11_9 Cu1_9 1_555 1_555
N17_6 C8_10 1_555 1_555
C24_10 N6_10 1_555 1_555
H24_9 C24_10 1_555 1_555
H28_10 O7_10 1_555 1_555
Cu5_4 O6_4 1_555 1_555
Cu7_4 O5_4 1_555 1_555
O13_7 Cu2_7 1_555 1_555
N4_10 C7_10 1_555 1_555
N8_9 N9_9 1_555 1_555
N10_9 C15_9 1_555 1_555
N11_9 N12_9 1_555 1_555
N13_9 C17_9 1_555 1_555
O3_9 S2_10 1_555 1_555
C7_10 C8_10 1_555 1_555
C12_9 C13_9 1_555 1_555
C13_9 C14_9 1_555 1_555
C15_9 C16_9 1_555 1_555
O10_4 Cu7_4 1_555 1_555
N17_6 C24_10 1_555 1_555
Cu1_10 N6_11 1_555 1_555
Cu2_8 N3_11 1_555 1_555
Cu6_6 N7_10 1_555 1_555
N5_11 Cu2_8 1_555 1_555
N6_11 N5_11 1_555 1_555
N7_10 C9_10 1_555 1_555
N8_10 Cu6_6 1_555 1_555
N9_10 Cu1_10 1_555 1_555
N10_10 C14_10 1_555 1_555
N11_10 Cu1_10 1_555 1_555
N12_10 Cu2_8 1_555 1_555
N13_10 C16_10 1_555 1_555
N14_10 C18_10 1_555 1_555
O1_11 Cu6_6 1_555 1_555
O2_11 S2_11 1_555 1_555
O3_10 Cu1_10 1_555 1_555
O4_11 S1_11 1_555 1_555
O5_5 S1_11 1_555 1_555
O6_5 S1_11 1_555 1_555
O7_11 Cu2_8 1_555 1_555
O8_10 Cu6_6 1_555 1_555
S1_11 O11_10 1_555 1_555
S2_11 O1_11 1_555 1_555
C7_11 N3_11 1_555 1_555
C8_11 N5_11 1_555 1_555
C9_10 H5_10 1_555 1_555
C10_10 C9_10 1_555 1_555
H6_10 C10_10 1_555 1_555
C11_10 C10_10 1_555 1_555
H7_10 C11_10 1_555 1_555
C12_10 C11_10 1_555 1_555
H8_10 C12_10 1_555 1_555
C13_10 N7_10 1_555 1_555
C14_10 N8_10 1_555 1_555
C15_10 N9_10 1_555 1_555
C16_10 N11_10 1_555 1_555
C17_10 N12_10 1_555 1_555
H9_10 C17_10 1_555 1_555
C18_10 O8_10 1_555 1_555
H10_10 C18_10 1_555 1_555
C19_10 N14_10 1_555 1_555
H11_10 C19_10 1_555 1_555
H12_9 C19_10 1_555 1_555
H13_9 C19_10 1_555 1_555
C20_10 N14_10 1_555 1_555
H14_10 C20_10 1_555 1_555
H15_10 C20_10 1_555 1_555
H16_10 C20_10 1_555 1_555
O10_5 S2_11 1_555 1_555
O11_10 Cu1_10 1_555 1_555
N17_4 C8_11 1_555 1_555
C24_11 N6_11 1_555 1_555
H24_10 C24_11 1_555 1_555
H28_11 O7_11 1_555 1_555
Cu5_5 O6_5 1_555 1_555
Cu7_5 O5_5 1_555 1_555
O13_8 Cu2_8 1_555 1_555
N4_11 C7_11 1_555 1_555
N8_10 N9_10 1_555 1_555
N10_10 C15_10 1_555 1_555
N11_10 N12_10 1_555 1_555
N13_10 C17_10 1_555 1_555
O3_10 S2_11 1_555 1_555
C7_11 C8_11 1_555 1_555
C12_10 C13_10 1_555 1_555
C13_10 C14_10 1_555 1_555
C15_10 C16_10 1_555 1_555
O10_5 Cu7_5 1_555 1_555
N17_4 C24_11 1_555 1_555
Cu4_8 N1_11 1_555 1_555
N1_11 C1_11 1_555 1_555
N2_11 Cu4_8 1_555 1_555
N15_11 C21_11 1_555 1_555
O9_11 Cu4_8 1_555 1_555
C1_11 H1_11 1_555 1_555
C2_11 C1_11 1_555 1_555
H2_11 C2_11 1_555 1_555
C3_11 C2_11 1_555 1_555
H3_11 C3_11 1_555 1_555
C4_11 C3_11 1_555 1_555
H4_11 C4_11 1_555 1_555
C5_11 N1_11 1_555 1_555
C6_11 N2_11 1_555 1_555
C21_11 O9_11 1_555 1_555
H17_11 C21_11 1_555 1_555
C22_11 N15_11 1_555 1_555
H18_11 C22_11 1_555 1_555
H19_11 C22_11 1_555 1_555
H20_11 C22_11 1_555 1_555
C23_10 N15_11 1_555 1_555
H21_10 C23_10 1_555 1_555
H22_10 C23_10 1_555 1_555
H23_10 C23_10 1_555 1_555
H25_11 C25_11 1_555 1_555
H26_11 C25_11 1_555 1_555
H27_11 C25_11 1_555 1_555
O12_8 Cu4_8 1_555 1_555
O14_8 Cu4_8 1_555 1_555
C4_11 C5_11 1_555 1_555
C5_11 C6_11 1_555 1_555
Cu1_11 N6_12 1_555 1_555
Cu2_9 N3_12 1_555 1_555
Cu6_4 N7_11 1_555 1_555
Cu4_9 N1_12 1_555 1_555
N1_12 C1_12 1_555 1_555
N2_12 Cu4_9 1_555 1_555
N3_12 N2_12 1_555 1_555
N4_12 C6_12 1_555 1_555
N5_12 Cu2_9 1_555 1_555
N6_12 N5_12 1_555 1_555
N7_11 C9_11 1_555 1_555
N8_11 Cu6_4 1_555 1_555
N9_11 Cu1_11 1_555 1_555
N10_11 C14_11 1_555 1_555
N11_11 Cu1_11 1_555 1_555
N12_11 Cu2_9 1_555 1_555
N13_11 C16_11 1_555 1_555
N14_11 C18_11 1_555 1_555
N15_12 C21_12 1_555 1_555
O1_12 Cu6_4 1_555 1_555
O2_12 S2_12 1_555 1_555
O3_11 Cu1_11 1_555 1_555
O4_12 S1_12 1_555 1_555
O5_6 S1_12 1_555 1_555
O6_6 S1_12 1_555 1_555
O7_12 Cu2_9 1_555 1_555
O8_11 Cu6_4 1_555 1_555
O9_12 Cu4_9 1_555 1_555
S1_12 O11_11 1_555 1_555
S2_12 O1_12 1_555 1_555
C1_12 H1_12 1_555 1_555
C2_12 C1_12 1_555 1_555
H2_12 C2_12 1_555 1_555
C3_12 C2_12 1_555 1_555
H3_12 C3_12 1_555 1_555
C4_12 C3_12 1_555 1_555
H4_12 C4_12 1_555 1_555
C5_12 N1_12 1_555 1_555
C6_12 N2_12 1_555 1_555
C7_12 N3_12 1_555 1_555
C8_12 N5_12 1_555 1_555
C9_11 H5_11 1_555 1_555
C10_11 C9_11 1_555 1_555
H6_11 C10_11 1_555 1_555
C11_11 C10_11 1_555 1_555
H7_11 C11_11 1_555 1_555
C12_11 C11_11 1_555 1_555
H8_11 C12_11 1_555 1_555
C13_11 N7_11 1_555 1_555
C14_11 N8_11 1_555 1_555
C15_11 N9_11 1_555 1_555
C16_11 N11_11 1_555 1_555
C17_11 N12_11 1_555 1_555
H9_11 C17_11 1_555 1_555
C18_11 O8_11 1_555 1_555
H10_11 C18_11 1_555 1_555
C19_11 N14_11 1_555 1_555
H11_11 C19_11 1_555 1_555
H12_10 C19_11 1_555 1_555
H13_10 C19_11 1_555 1_555
C20_11 N14_11 1_555 1_555
H14_11 C20_11 1_555 1_555
H15_11 C20_11 1_555 1_555
H16_11 C20_11 1_555 1_555
C21_12 O9_12 1_555 1_555
H17_12 C21_12 1_555 1_555
C22_12 N15_12 1_555 1_555
H18_12 C22_12 1_555 1_555
H19_12 C22_12 1_555 1_555
H20_12 C22_12 1_555 1_555
C23_11 N15_12 1_555 1_555
H21_11 C23_11 1_555 1_555
H22_11 C23_11 1_555 1_555
H23_11 C23_11 1_555 1_555
O10_6 S2_12 1_555 1_555
O11_11 Cu1_11 1_555 1_555
N17_5 C8_12 1_555 1_555
C24_12 N6_12 1_555 1_555
H24_11 C24_12 1_555 1_555
C25_12 O7_12 1_555 1_555
H25_12 C25_12 1_555 1_555
H26_12 C25_12 1_555 1_555
H27_12 C25_12 1_555 1_555
H28_12 O7_12 1_555 1_555
Cu5_6 O6_6 1_555 1_555
Cu7_6 O5_6 1_555 1_555
O12_9 Cu4_9 1_555 1_555
O13_9 Cu2_9 1_555 1_555
O14_9 Cu4_9 1_555 1_555
N4_12 C7_12 1_555 1_555
N8_11 N9_11 1_555 1_555
N10_11 C15_11 1_555 1_555
N11_11 N12_11 1_555 1_555
N13_11 C17_11 1_555 1_555
O3_11 S2_12 1_555 1_555
C4_12 C5_12 1_555 1_555
C5_12 C6_12 1_555 1_555
C7_12 C8_12 1_555 1_555
C12_11 C13_11 1_555 1_555
C13_11 C14_11 1_555 1_555
C15_11 C16_11 1_555 1_555
O10_6 Cu7_6 1_555 1_555
N17_5 C24_12 1_555 1_555
C22_13 N15_13 1_555 1_555
H18_13 C22_13 1_555 1_555
H19_13 C22_13 1_555 1_555
H20_13 C22_13 1_555 1_555
Cu1_12 N6_13 1_555 1_555
Cu2_10 N3_13 1_555 1_555
Cu6_2 N7_12 1_555 1_555
Cu4_10 N1_13 1_555 1_555
N1_13 C1_13 1_555 1_555
N2_13 Cu4_10 1_555 1_555
N3_13 N2_13 1_555 1_555
N4_13 C6_13 1_555 1_555
N5_13 Cu2_10 1_555 1_555
N6_13 N5_13 1_555 1_555
N7_12 C9_12 1_555 1_555
N8_12 Cu6_2 1_555 1_555
N9_12 Cu1_12 1_555 1_555
N10_12 C14_12 1_555 1_555
N11_12 Cu1_12 1_555 1_555
N12_12 Cu2_10 1_555 1_555
N13_12 C16_12 1_555 1_555
N14_12 C18_12 1_555 1_555
O1_13 Cu6_2 1_555 1_555
O2_13 S2_13 1_555 1_555
O3_12 Cu1_12 1_555 1_555
O4_13 S1_13 1_555 1_555
O12_8 S1_13 1_555 1_555
O7_13 Cu2_10 1_555 1_555
O8_12 Cu6_2 1_555 1_555
O9_13 Cu4_10 1_555 1_555
S1_13 O11_12 1_555 1_555
S2_13 O1_13 1_555 1_555
C1_13 H1_13 1_555 1_555
C2_13 C1_13 1_555 1_555
H2_13 C2_13 1_555 1_555
C3_13 C2_13 1_555 1_555
H3_13 C3_13 1_555 1_555
C4_13 C3_13 1_555 1_555
H4_13 C4_13 1_555 1_555
C5_13 N1_13 1_555 1_555
C6_13 N2_13 1_555 1_555
C7_13 N3_13 1_555 1_555
C8_13 N5_13 1_555 1_555
C9_12 H5_12 1_555 1_555
C10_12 C9_12 1_555 1_555
H6_12 C10_12 1_555 1_555
C11_12 C10_12 1_555 1_555
C12_12 C11_12 1_555 1_555
H8_12 C12_12 1_555 1_555
C13_12 N7_12 1_555 1_555
C14_12 N8_12 1_555 1_555
C15_12 N9_12 1_555 1_555
C16_12 N11_12 1_555 1_555
C17_12 N12_12 1_555 1_555
H9_12 C17_12 1_555 1_555
C18_12 O8_12 1_555 1_555
H10_12 C18_12 1_555 1_555
C19_12 N14_12 1_555 1_555
H11_12 C19_12 1_555 1_555
H12_11 C19_12 1_555 1_555
H13_11 C19_12 1_555 1_555
C20_12 N14_12 1_555 1_555
H14_12 C20_12 1_555 1_555
H15_12 C20_12 1_555 1_555
H16_12 C20_12 1_555 1_555
C21_13 O9_13 1_555 1_555
H21_12 C23_12 1_555 1_555
H22_12 C23_12 1_555 1_555
O14_8 S2_13 1_555 1_555
O11_12 Cu1_12 1_555 1_555
N17_3 C8_13 1_555 1_555
C24_13 N6_13 1_555 1_555
H24_12 C24_13 1_555 1_555
C25_13 O7_13 1_555 1_555
H25_13 C25_13 1_555 1_555
H26_13 C25_13 1_555 1_555
H27_13 C25_13 1_555 1_555
H28_13 O7_13 1_555 1_555
O12_10 Cu4_10 1_555 1_555
O13_10 Cu2_10 1_555 1_555
O14_10 Cu4_10 1_555 1_555
N4_13 C7_13 1_555 1_555
N8_12 N9_12 1_555 1_555
N10_12 C15_12 1_555 1_555
N11_12 N12_12 1_555 1_555
N13_12 C17_12 1_555 1_555
O3_12 S2_13 1_555 1_555
C4_13 C5_13 1_555 1_555
C5_13 C6_13 1_555 1_555
C7_13 C8_13 1_555 1_555
C12_12 C13_12 1_555 1_555
C13_12 C14_12 1_555 1_555
C15_12 C16_12 1_555 1_555
N17_3 C24_13 1_555 1_555
Cu1_13 N6_14 1_555 1_555
Cu2_11 N3_14 1_555 1_555
Cu6_3 N7_13 1_555 1_555
Cu4_11 N1_14 1_555 1_555
N1_14 C1_14 1_555 1_555
N2_14 Cu4_11 1_555 1_555
N3_14 N2_14 1_555 1_555
N4_14 C6_14 1_555 1_555
N5_14 Cu2_11 1_555 1_555
N6_14 N5_14 1_555 1_555
N7_13 C9_13 1_555 1_555
N8_13 Cu6_3 1_555 1_555
N9_13 Cu1_13 1_555 1_555
N10_13 C14_13 1_555 1_555
N11_13 Cu1_13 1_555 1_555
N12_13 Cu2_11 1_555 1_555
N13_13 C16_13 1_555 1_555
N14_13 C18_13 1_555 1_555
N15_14 C21_14 1_555 1_555
O1_14 Cu6_3 1_555 1_555
O2_14 S2_14 1_555 1_555
O3_13 Cu1_13 1_555 1_555
O4_14 S1_14 1_555 1_555
O12_9 S1_14 1_555 1_555
O13_9 S1_14 1_555 1_555
O7_14 Cu2_11 1_555 1_555
O8_13 Cu6_3 1_555 1_555
O9_14 Cu4_11 1_555 1_555
S1_14 O11_13 1_555 1_555
S2_14 O1_14 1_555 1_555
C1_14 H1_14 1_555 1_555
C2_14 C1_14 1_555 1_555
H2_14 C2_14 1_555 1_555
C3_14 C2_14 1_555 1_555
H3_14 C3_14 1_555 1_555
C4_14 C3_14 1_555 1_555
H4_14 C4_14 1_555 1_555
C5_14 N1_14 1_555 1_555
C6_14 N2_14 1_555 1_555
C7_14 N3_14 1_555 1_555
C8_14 N5_14 1_555 1_555
C9_13 H5_13 1_555 1_555
C10_13 C9_13 1_555 1_555
H6_13 C10_13 1_555 1_555
C11_13 C10_13 1_555 1_555
H7_13 C11_13 1_555 1_555
C12_13 C11_13 1_555 1_555
H8_13 C12_13 1_555 1_555
C13_13 N7_13 1_555 1_555
C14_13 N8_13 1_555 1_555
C15_13 N9_13 1_555 1_555
C16_13 N11_13 1_555 1_555
C17_13 N12_13 1_555 1_555
H9_13 C17_13 1_555 1_555
C18_13 O8_13 1_555 1_555
H10_13 C18_13 1_555 1_555
C19_13 N14_13 1_555 1_555
H11_13 C19_13 1_555 1_555
H12_12 C19_13 1_555 1_555
H13_12 C19_13 1_555 1_555
C20_13 N14_13 1_555 1_555
H14_13 C20_13 1_555 1_555
H15_13 C20_13 1_555 1_555
H16_13 C20_13 1_555 1_555
C21_14 O9_14 1_555 1_555
H17_14 C21_14 1_555 1_555
C22_14 N15_14 1_555 1_555
H18_14 C22_14 1_555 1_555
H19_14 C22_14 1_555 1_555
H20_14 C22_14 1_555 1_555
C23_13 N15_14 1_555 1_555
H21_13 C23_13 1_555 1_555
H22_13 C23_13 1_555 1_555
H23_13 C23_13 1_555 1_555
O14_9 S2_14 1_555 1_555
O11_13 Cu1_13 1_555 1_555
N17 C8_14 1_555 1_555
C24_14 N6_14 1_555 1_555
H24_13 C24_14 1_555 1_555
C25_14 O7_14 1_555 1_555
H25_14 C25_14 1_555 1_555
H26_14 C25_14 1_555 1_555
H27_14 C25_14 1_555 1_555
H28_14 O7_14 1_555 1_555
O12_11 Cu4_11 1_555 1_555
O13_11 Cu2_11 1_555 1_555
O14_11 Cu4_11 1_555 1_555
N4_14 C7_14 1_555 1_555
N8_13 N9_13 1_555 1_555
N10_13 C15_13 1_555 1_555
N11_13 N12_13 1_555 1_555
N13_13 C17_13 1_555 1_555
O3_13 S2_14 1_555 1_555
C4_14 C5_14 1_555 1_555
C5_14 C6_14 1_555 1_555
C7_14 C8_14 1_555 1_555
C12_13 C13_13 1_555 1_555
C13_13 C14_13 1_555 1_555
C15_13 C16_13 1_555 1_555
N17 C24_14 1_555 1_555
Cu1_14 N6_15 1_555 1_555
Cu2_12 N3_15 1_555 1_555
Cu6 N7_14 1_555 1_555
Cu4_12 N1_15 1_555 1_555
N1_15 C1_15 1_555 1_555
N2_15 Cu4_12 1_555 1_555
N3_15 N2_15 1_555 1_555
N4_15 C6_15 1_555 1_555
N5_15 Cu2_12 1_555 1_555
N6_15 N5_15 1_555 1_555
N7_14 C9_14 1_555 1_555
N8_14 Cu6 1_555 1_555
N9_14 Cu1_14 1_555 1_555
N10_14 C14_14 1_555 1_555
N11_14 Cu1_14 1_555 1_555
N12_14 Cu2_12 1_555 1_555
N13_14 C16_14 1_555 1_555
N14_14 C18_14 1_555 1_555
O1_15 Cu6 1_555 1_555
O2_15 S2_15 1_555 1_555
O3_14 Cu1_14 1_555 1_555
O4_15 S1_15 1_555 1_555
O12_7 S1_15 1_555 1_555
O7_15 Cu2_12 1_555 1_555
O8_14 Cu6 1_555 1_555
O9_15 Cu4_12 1_555 1_555
S1_15 O11_14 1_555 1_555
S2_15 O1_15 1_555 1_555
C1_15 H1_15 1_555 1_555
C2_15 C1_15 1_555 1_555
H2_15 C2_15 1_555 1_555
C3_15 C2_15 1_555 1_555
H3_15 C3_15 1_555 1_555
C4_15 C3_15 1_555 1_555
H4_15 C4_15 1_555 1_555
C5_15 N1_15 1_555 1_555
C6_15 N2_15 1_555 1_555
C7_15 N3_15 1_555 1_555
C8_15 N5_15 1_555 1_555
C9_14 H5_14 1_555 1_555
C10_14 C9_14 1_555 1_555
H6_14 C10_14 1_555 1_555
C11_14 C10_14 1_555 1_555
C12_14 C11_14 1_555 1_555
H8_14 C12_14 1_555 1_555
C13_14 N7_14 1_555 1_555
C14_14 N8_14 1_555 1_555
C15_14 N9_14 1_555 1_555
C16_14 N11_14 1_555 1_555
C17_14 N12_14 1_555 1_555
H9_14 C17_14 1_555 1_555
C18_14 O8_14 1_555 1_555
H10_14 C18_14 1_555 1_555
C19_14 N14_14 1_555 1_555
H11_14 C19_14 1_555 1_555
H12_13 C19_14 1_555 1_555
H13_13 C19_14 1_555 1_555
C20_14 N14_14 1_555 1_555
H14_14 C20_14 1_555 1_555
H15_14 C20_14 1_555 1_555
H16_14 C20_14 1_555 1_555
C21_15 O9_15 1_555 1_555
H21_14 C23_14 1_555 1_555
H22_14 C23_14 1_555 1_555
O14_7 S2_15 1_555 1_555
O11_14 Cu1_14 1_555 1_555
N17_2 C8_15 1_555 1_555
C24_15 N6_15 1_555 1_555
H24_14 C24_15 1_555 1_555
C25_15 O7_15 1_555 1_555
H25_15 C25_15 1_555 1_555
H26_15 C25_15 1_555 1_555
H27_15 C25_15 1_555 1_555
H28_15 O7_15 1_555 1_555
O12_12 Cu4_12 1_555 1_555
O13_12 Cu2_12 1_555 1_555
O14_12 Cu4_12 1_555 1_555
N4_15 C7_15 1_555 1_555
N8_14 N9_14 1_555 1_555
N10_14 C15_14 1_555 1_555
N11_14 N12_14 1_555 1_555
N13_14 C17_14 1_555 1_555
O3_14 S2_15 1_555 1_555
C4_15 C5_15 1_555 1_555
C5_15 C6_15 1_555 1_555
C7_15 C8_15 1_555 1_555
C12_14 C13_14 1_555 1_555
C13_14 C14_14 1_555 1_555
C15_14 C16_14 1_555 1_555
N17_2 C24_15 1_555 1_555
C22_15 N15_15 1_555 1_555
H18_15 C22_15 1_555 1_555
H19_15 C22_15 1_555 1_555
H20_15 C22_15 1_555 1_555
O2_16 S2_16 1_555 1_555
O4_16 S1_16 1_555 1_555
O12_11 S1_16 1_555 1_555
O13_11 S1_16 1_555 1_555
S2_16 O1_16 1_555 1_555
H21_15 C23_15 1_555 1_555
H22_15 C23_15 1_555 1_555
H23_15 C23_15 1_555 1_555
O14_11 S2_16 1_555 1_555
Cu1_15 N6_16 1_555 1_555
Cu5_6 N3_16 1_555 1_555
Cu6_8 N7_15 1_555 1_555
Cu7_6 N1_16 1_555 1_555
N1_16 C1_16 1_555 1_555
N2_16 Cu7_6 1_555 1_555
N3_16 N2_16 1_555 1_555
N4_16 C6_16 1_555 1_555
N5_16 Cu5_6 1_555 1_555
N6_16 N5_16 1_555 1_555
N7_15 C9_15 1_555 1_555
N8_15 Cu6_8 1_555 1_555
N9_15 Cu1_15 1_555 1_555
N10_15 C14_15 1_555 1_555
N11_15 Cu1_15 1_555 1_555
N12_15 Cu5_6 1_555 1_555
N13_15 C16_15 1_555 1_555
N14_15 C18_15 1_555 1_555
N15_16 C21_16 1_555 1_555
O3_15 Cu1_15 1_555 1_555
O7_16 Cu5_6 1_555 1_555
O8_15 Cu6_8 1_555 1_555
O9_16 Cu7_6 1_555 1_555
C1_16 H1_16 1_555 1_555
C2_16 C1_16 1_555 1_555
H2_16 C2_16 1_555 1_555
C3_16 C2_16 1_555 1_555
H3_16 C3_16 1_555 1_555
C4_16 C3_16 1_555 1_555
H4_16 C4_16 1_555 1_555
C5_16 N1_16 1_555 1_555
C6_16 N2_16 1_555 1_555
C7_16 N3_16 1_555 1_555
C8_16 N5_16 1_555 1_555
C9_15 H5_15 1_555 1_555
C10_15 C9_15 1_555 1_555
H6_15 C10_15 1_555 1_555
C11_15 C10_15 1_555 1_555
H7_15 C11_15 1_555 1_555
C12_15 C11_15 1_555 1_555
H8_15 C12_15 1_555 1_555
C13_15 N7_15 1_555 1_555
C14_15 N8_15 1_555 1_555
C15_15 N9_15 1_555 1_555
C16_15 N11_15 1_555 1_555
C17_15 N12_15 1_555 1_555
H9_15 C17_15 1_555 1_555
C18_15 O8_15 1_555 1_555
H10_15 C18_15 1_555 1_555
C19_15 N14_15 1_555 1_555
H11_15 C19_15 1_555 1_555
C20_15 N14_15 1_555 1_555
H14_15 C20_15 1_555 1_555
H15_15 C20_15 1_555 1_555
H16_15 C20_15 1_555 1_555
C21_16 O9_16 1_555 1_555
H17_16 C21_16 1_555 1_555
C22_16 N15_16 1_555 1_555
H18_16 C22_16 1_555 1_555
H19_16 C22_16 1_555 1_555
H20_16 C22_16 1_555 1_555
O11_15 Cu1_15 1_555 1_555
N17_9 C8_16 1_555 1_555
C24_16 N6_16 1_555 1_555
C25_16 O7_16 1_555 1_555
H25_16 C25_16 1_555 1_555
H26_16 C25_16 1_555 1_555
H27_16 C25_16 1_555 1_555
H28_16 O7_16 1_555 1_555
N4_16 C7_16 1_555 1_555
N8_15 N9_15 1_555 1_555
N10_15 C15_15 1_555 1_555
N11_15 N12_15 1_555 1_555
N13_15 C17_15 1_555 1_555
C4_16 C5_16 1_555 1_555
C5_16 C6_16 1_555 1_555
C7_16 C8_16 1_555 1_555
C12_15 C13_15 1_555 1_555
C13_15 C14_15 1_555 1_555
C15_15 C16_15 1_555 1_555
N17_9 C24_16 1_555 1_555
O2_17 S2_17 1_555 1_555
O4_17 S1_17 1_555 1_555
O12_12 S1_17 1_555 1_555
O13_12 S1_17 1_555 1_555
S2_17 O1_17 1_555 1_555
O14_12 S2_17 1_555 1_555
H21_16 C23_16 1_555 1_555
H22_16 C23_16 1_555 1_555
H23_16 C23_16 1_555 1_555
Cu5_4 N3_17 1_555 1_555
Cu7_4 N1_17 1_555 1_555
N1_17 C1_17 1_555 1_555
N2_17 Cu7_4 1_555 1_555
N3_17 N2_17 1_555 1_555
N4_17 C6_17 1_555 1_555
N5_17 Cu5_4 1_555 1_555
N6_17 N5_17 1_555 1_555
N15_17 C21_17 1_555 1_555
O7_17 Cu5_4 1_555 1_555
O9_17 Cu7_4 1_555 1_555
C1_17 H1_17 1_555 1_555
C2_17 C1_17 1_555 1_555
H2_17 C2_17 1_555 1_555
C3_17 C2_17 1_555 1_555
H3_17 C3_17 1_555 1_555
C4_17 C3_17 1_555 1_555
H4_17 C4_17 1_555 1_555
C5_17 N1_17 1_555 1_555
C6_17 N2_17 1_555 1_555
C7_17 N3_17 1_555 1_555
C8_17 N5_17 1_555 1_555
C21_17 O9_17 1_555 1_555
H17_17 C21_17 1_555 1_555
C22_17 N15_17 1_555 1_555
H18_17 C22_17 1_555 1_555
H19_17 C22_17 1_555 1_555
H20_17 C22_17 1_555 1_555
N17_7 C8_17 1_555 1_555
C24_17 N6_17 1_555 1_555
C25_17 O7_17 1_555 1_555
H25_17 C25_17 1_555 1_555
H26_17 C25_17 1_555 1_555
H27_17 C25_17 1_555 1_555
H28_17 O7_17 1_555 1_555
N4_17 C7_17 1_555 1_555
C4_17 C5_17 1_555 1_555
C5_17 C6_17 1_555 1_555
C7_17 C8_17 1_555 1_555
N17_7 C24_17 1_555 1_555
Cu5_5 N3_18 1_555 1_555
Cu7_5 N1_18 1_555 1_555
N1_18 C1_18 1_555 1_555
N2_18 Cu7_5 1_555 1_555
N3_18 N2_18 1_555 1_555
N4_18 C6_18 1_555 1_555
N5_18 Cu5_5 1_555 1_555
N6_18 N5_18 1_555 1_555
N15_18 C21_18 1_555 1_555
O7_18 Cu5_5 1_555 1_555
O9_18 Cu7_5 1_555 1_555
C1_18 H1_18 1_555 1_555
C2_18 C1_18 1_555 1_555
H2_18 C2_18 1_555 1_555
C3_18 C2_18 1_555 1_555
H3_18 C3_18 1_555 1_555
C4_18 C3_18 1_555 1_555
H4_18 C4_18 1_555 1_555
C5_18 N1_18 1_555 1_555
C6_18 N2_18 1_555 1_555
C7_18 N3_18 1_555 1_555
C8_18 N5_18 1_555 1_555
C21_18 O9_18 1_555 1_555
H17_18 C21_18 1_555 1_555
C22_18 N15_18 1_555 1_555
H18_18 C22_18 1_555 1_555
H19_18 C22_18 1_555 1_555
H20_18 C22_18 1_555 1_555
N17_8 C8_18 1_555 1_555
C24_18 N6_18 1_555 1_555
C25_18 O7_18 1_555 1_555
H25_18 C25_18 1_555 1_555
H26_18 C25_18 1_555 1_555
H27_18 C25_18 1_555 1_555
H28_18 O7_18 1_555 1_555
N4_18 C7_18 1_555 1_555
C4_18 C5_18 1_555 1_555
C5_18 C6_18 1_555 1_555
C7_18 C8_18 1_555 1_555
N17_8 C24_18 1_555 1_555
O2_18 S2_18 1_555 1_555
O4_18 S1_18 1_555 1_555
O12_10 S1_18 1_555 1_555
O13_10 S1_18 1_555 1_555
S2_18 O1_18 1_555 1_555
O14_10 S2_18 1_555 1_555
Cu6_7 N7_16 1_555 1_555
N7_16 C9_16 1_555 1_555
N8_16 Cu6_7 1_555 1_555
N9_16 Cu1_16 1_555 1_555
N10_16 C14_16 1_555 1_555
N11_16 Cu1_16 1_555 1_555
N13_16 C16_16 1_555 1_555
N14_16 C18_16 1_555 1_555
O3_16 Cu1_16 1_555 1_555
O8_16 Cu6_7 1_555 1_555
C9_16 H5_16 1_555 1_555
C10_16 C9_16 1_555 1_555
H6_16 C10_16 1_555 1_555
C11_16 C10_16 1_555 1_555
H7_16 C11_16 1_555 1_555
C12_16 C11_16 1_555 1_555
H8_16 C12_16 1_555 1_555
C13_16 N7_16 1_555 1_555
C14_16 N8_16 1_555 1_555
C15_16 N9_16 1_555 1_555
C16_16 N11_16 1_555 1_555
C17_16 N12_16 1_555 1_555
H9_16 C17_16 1_555 1_555
C18_16 O8_16 1_555 1_555
H10_16 C18_16 1_555 1_555
C19_16 N14_16 1_555 1_555
H11_16 C19_16 1_555 1_555
H12_14 C19_16 1_555 1_555
H13_14 C19_16 1_555 1_555
C20_16 N14_16 1_555 1_555
H14_16 C20_16 1_555 1_555
H15_16 C20_16 1_555 1_555
H16_16 C20_16 1_555 1_555
O11_16 Cu1_16 1_555 1_555
N8_16 N9_16 1_555 1_555
N10_16 C15_16 1_555 1_555
N11_16 N12_16 1_555 1_555
N13_16 C17_16 1_555 1_555
C12_16 C13_16 1_555 1_555
C13_16 C14_16 1_555 1_555
C15_16 C16_16 1_555 1_555
Cu3_9 N7_17 1_555 1_555
N7_17 C9_17 1_555 1_555
N8_17 Cu3_9 1_555 1_555
N9_17 Cu1_17 1_555 1_555
N10_17 C14_17 1_555 1_555
N11_17 Cu1_17 1_555 1_555
N13_17 C16_17 1_555 1_555
N14_17 C18_17 1_555 1_555
O3_17 Cu1_17 1_555 1_555
O8_17 Cu3_9 1_555 1_555
C9_17 H5_17 1_555 1_555
C10_17 C9_17 1_555 1_555
H6_17 C10_17 1_555 1_555
C11_17 C10_17 1_555 1_555
H7_17 C11_17 1_555 1_555
C12_17 C11_17 1_555 1_555
H8_17 C12_17 1_555 1_555
C13_17 N7_17 1_555 1_555
C14_17 N8_17 1_555 1_555
C15_17 N9_17 1_555 1_555
C16_17 N11_17 1_555 1_555
C17_17 N12_17 1_555 1_555
H9_17 C17_17 1_555 1_555
C18_17 O8_17 1_555 1_555
H10_17 C18_17 1_555 1_555
C19_17 N14_17 1_555 1_555
H11_17 C19_17 1_555 1_555
C20_17 N14_17 1_555 1_555
H14_17 C20_17 1_555 1_555
H15_17 C20_17 1_555 1_555
H16_17 C20_17 1_555 1_555
O11_17 Cu1_17 1_555 1_555
N8_17 N9_17 1_555 1_555
N10_17 C15_17 1_555 1_555
N11_17 N12_17 1_555 1_555
N13_17 C17_17 1_555 1_555
C12_17 C13_17 1_555 1_555
C13_17 C14_17 1_555 1_555
C15_17 C16_17 1_555 1_555
H21_17 C23_17 1_555 1_555
H22_17 C23_17 1_555 1_555
H23_17 C23_17 1_555 1_555
H21_18 C23_18 1_555 1_555
H22_18 C23_18 1_555 1_555
H23_18 C23_18 1_555 1_555
Cu6_9 N7_18 1_555 1_555
N7_18 C9_18 1_555 1_555
N8_18 Cu6_9 1_555 1_555
N9_18 Cu1_18 1_555 1_555
N10_18 C14_18 1_555 1_555
N11_18 Cu1_18 1_555 1_555
N13_18 C16_18 1_555 1_555
N14_18 C18_18 1_555 1_555
O3_18 Cu1_18 1_555 1_555
O8_18 Cu6_9 1_555 1_555
C9_18 H5_18 1_555 1_555
C10_18 C9_18 1_555 1_555
H6_18 C10_18 1_555 1_555
C11_18 C10_18 1_555 1_555
H7_18 C11_18 1_555 1_555
C12_18 C11_18 1_555 1_555
H8_18 C12_18 1_555 1_555
C13_18 N7_18 1_555 1_555
C14_18 N8_18 1_555 1_555
C15_18 N9_18 1_555 1_555
C16_18 N11_18 1_555 1_555
C17_18 N12_18 1_555 1_555
H9_18 C17_18 1_555 1_555
C18_18 O8_18 1_555 1_555
H10_18 C18_18 1_555 1_555
C19_18 N14_18 1_555 1_555
H11_18 C19_18 1_555 1_555
C20_18 N14_18 1_555 1_555
H14_18 C20_18 1_555 1_555
H15_18 C20_18 1_555 1_555
H16_18 C20_18 1_555 1_555
O11_18 Cu1_18 1_555 1_555
N8_18 N9_18 1_555 1_555
N10_18 C15_18 1_555 1_555
N11_18 N12_18 1_555 1_555
N13_18 C17_18 1_555 1_555
C12_18 C13_18 1_555 1_555
C13_18 C14_18 1_555 1_555
C15_18 C16_18 1_555 1_555

#END
