
###############################################################################
#
# This file contains modified crystal structure data generated from the
# MOF subset of the Cambridge Structural Database (CSD) v543 
# hosted by the Cambridge Crystallographic Data Centre (CCDC).
#
# This work is licensed under the Creative Commons
# Attribution-NonCommercial-ShareAlike 4.0 International License.
# To view a copy of this license, visit
# http://creativecommons.org/licenses/by-nc-sa/4.0/
# or send a letter to
# Creative Commons, PO Box 1866, Mountain View, CA 94042, USA.
#
# CIF created using the CSD Python API on 29 September 2022
# The structure has been converted into the P1 space group
# The structure has a 3D framework
# The original CSD entry RAYKIN is in the hexagonal crystal system
# The original CSD entry RAYKIN is in a Sohncke space group
# The framework has been calculated to contain at least 10.0% void space
# The void calculation uses a probe of radius 1.32A, grid spacing 0.4
#
###############################################################################

data_RAYKIN
_chemical_formula_moiety         '(C192 H132 N24 O36 Zn6)n'
_symmetry_cell_setting           triclinic
_symmetry_space_group_name_H-M   'P 1'
_symmetry_Int_Tables_number      1
_space_group_name_Hall           'P 1'
loop_
_symmetry_equiv_pos_site_id
_symmetry_equiv_pos_as_xyz
1 x,y,z
_cell_length_a                   16.5276(3)
_cell_length_b                   16.5276(3)
_cell_length_c                   25.3959(10)
_cell_angle_alpha                90
_cell_angle_beta                 90
_cell_angle_gamma                120
_cell_volume                     6007.78
loop_
_atom_site_label
_atom_site_type_symbol
_atom_site_fract_x
_atom_site_fract_y
_atom_site_fract_z
C27 C 0.0354(3) 0.4053(3) 0.08326(16)
H18 H 0.0224 0.3913 0.1188
C32 C 0.1255(3) 0.4688(3) 0.06784(15)
H21 H 0.1702 0.5000 0.0938
N3 N 0.15083(17) 0.48692(19) 0.01855(10)
Zn3 Zn 0.28705(2) 0.57409(4) 0.0000
C25 C 0.0844(3) 0.4460(3) 0.98360(15)
H16 H 0.1005 0.4581 0.9482
Zn3_2 Zn 0.28705(2) 0.57409(4) 1.0000
C1 C 0.2601(3) 0.5841(2) 0.40408(15)
C2 C 0.2507(4) 0.5329(2) 0.45400(15)
C3 C 0.28950(34) 0.5790(3) 0.5000
H1 H 0.3220 0.6440 0.5000
C4 C 0.2032(5) 0.4345(3) 0.45253(18)
H2 H 0.1792 0.4024 0.4211
C5 C 0.1930(5) 0.3859(5) 0.5000
H3 H 0.1604 0.3209 0.5000
C10 C 0.3616(4) 0.9156(3) 0.31693(15)
H6 H 0.3576 0.8995 0.2815
C12 C 0.3699(4) 0.9646(3) 0.41659(16)
H8 H 0.3689 0.9776 0.4521
C17 C 0.3433(4) 0.8745(3) 0.40117(15)
H11 H 0.3298 0.8298 0.4271
N1 N 0.33609(25) 0.84917(17) 0.35188(10)
O1 O 0.29129(23) 0.66972(16) 0.40499(9)
O2 O 0.23468(25) 0.53870(18) 0.36190(11)
Zn1 Zn 0.28704(4) 0.71295(2) 0.3333
C18 C 0.3240(4) 0.5841(2) 0.59592(15)
C19 C 0.2822(4) 0.5329(2) 0.54600(15)
C20 C 0.2313(6) 0.4345(3) 0.54747(18)
H13 H 0.2232 0.4024 0.5789
N4 N 0.15083(31) 0.66391(25) 0.31478(10)
O4 O 0.37843(28) 0.66972(16) 0.59501(9)
O5 O 0.33028(29) 0.70871(23) 0.26167(9)
O6 O 0.30402(31) 0.53870(18) 0.63810(11)
Zn2 Zn 0.42591(4) 0.71295(2) 0.6667
C21 C 0.8157(3) 0.5501(4) 0.77233(14)
C22 C 0.7437(3) 0.5784(4) 0.77097(15)
C23 C 0.8313(4) 0.5062(5) 0.7360(2)
H14 H 0.7925 0.4859 0.7066
C24 C 0.9062(4) 0.4874(6) 0.7391(2)
H15 H 0.9140 0.4558 0.7111
C25_2 C 0.5540(3) 0.6384(4) 0.65027(15)
H16_2 H 0.5419 0.6424 0.6149
C26 C 0.6162(2) 0.6047(3) 0.66302(15)
H17 H 0.6413 0.5851 0.6365
C27_2 C 0.5947(3) 0.6301(4) 0.74993(16)
H18_2 H 0.6087 0.6311 0.7855
C28 C 0.6379(3) 0.6016(4) 0.71340(14)
C29 C 0.9390(5) 0.5436(6) 0.8184(2)
H19 H 0.9723 0.5556 0.8497
C30 C 0.8637(5) 0.5613(6) 0.8153(2)
H20 H 0.8475 0.5818 0.8455
C31 C 0.9633(2) 0.5103(3) 0.77736(15)
C32_2 C 0.5312(3) 0.6567(4) 0.73451(15)
H21_2 H 0.5000 0.6702 0.7605
N3_2 N 0.51308(19) 0.66391(25) 0.68522(10)
N5 N 0.7012(2) 0.57314(28) 0.72547(11)
H22 H 0.7153 0.5484 0.6999
O7 O 0.7259(4) 0.6085(5) 0.81014(13)
C1_2 C 0.4159(2) 0.6760(2) 0.07075(15)
C2_2 C 0.4671(2) 0.7178(3) 0.12067(15)
C3_2 C 0.4210(3) 0.71050(17) 0.1667
H1_2 H 0.3560 0.6780 0.1667
C4_2 C 0.5655(3) 0.7687(4) 0.11920(18)
H2_2 H 0.5976 0.7768 0.0878
C5_2 C 0.6141(5) 0.8071(2) 0.1667
H3_2 H 0.6791 0.8395 0.1667
O1_2 O 0.33028(16) 0.62157(17) 0.07166(9)
O2_2 O 0.46130(18) 0.69598(18) 0.02857(11)
C18_2 C 0.4159(2) 0.7399(3) 0.26258(15)
C19_2 C 0.4671(2) 0.7493(4) 0.21266(15)
C20_2 C 0.5655(3) 0.7968(5) 0.21413(18)
H13_2 H 0.5976 0.8208 0.2455
O6_2 O 0.46130(18) 0.76532(25) 0.30476(11)
N4_2 N 0.33609(25) 0.48692(19) 0.98145(10)
O5_2 O 0.29129(23) 0.62157(17) 0.92834(9)
C1_3 C 0.3240(2) 0.7399(3) 0.73742(15)
C2_3 C 0.2822(3) 0.7493(4) 0.78734(15)
C3_3 C 0.28950(17) 0.71050(34) 0.8334
H1_3 H 0.3220 0.6780 0.8334
C4_3 C 0.2313(4) 0.7968(5) 0.78587(18)
H2_3 H 0.2232 0.8208 0.7545
C5_3 C 0.1929(2) 0.8070(5) 0.8334
H3_3 H 0.1605 0.8396 0.8334
O1_3 O 0.37843(17) 0.70871(23) 0.73833(9)
O2_3 O 0.30402(18) 0.76532(25) 0.69524(11)
C18_3 C 0.2601(3) 0.6760(4) 0.92925(15)
C19_3 C 0.2507(4) 0.7178(4) 0.87933(15)
C20_3 C 0.2032(5) 0.7687(6) 0.88080(18)
H13_3 H 0.1792 0.7768 0.9122
N4_3 N 0.51308(19) 0.84917(31) 0.64812(10)
O6_3 O 0.23468(25) 0.69598(31) 0.97143(11)
C25_3 C 0.5540(3) 0.9156(3) 0.68307(15)
H16_3 H 0.5419 0.8995 0.7185
C27_3 C 0.5947(3) 0.9646(3) 0.58341(16)
H18_3 H 0.6087 0.9776 0.5479
C32_3 C 0.5312(3) 0.8745(3) 0.59883(15)
H21_3 H 0.5000 0.8298 0.5729
C10_2 C 0.3616(4) 0.4460(3) 0.01640(15)
H6_2 H 0.3576 0.4581 0.0518
C11 C 0.3953(3) 0.3838(2) 0.00365(15)
H7 H 0.4149 0.3587 0.0302
C6 C 0.4499(4) 0.1843(3) 0.89434(14)
C7 C 0.4216(4) 0.2563(3) 0.89570(15)
C8 C 0.4938(5) 0.1687(4) 0.9307(2)
H4 H 0.5141 0.2075 0.9601
C9 C 0.5126(6) 0.0938(4) 0.9276(2)
H5 H 0.5442 0.0860 0.9556
C12_2 C 0.3699(4) 0.4053(3) 0.91674(16)
H8_2 H 0.3689 0.3913 0.8812
C13 C 0.3984(4) 0.3621(3) 0.95327(14)
C14 C 0.4564(6) 0.0610(5) 0.8483(2)
H9 H 0.4444 0.0277 0.8170
C15 C 0.4387(6) 0.1363(5) 0.8514(2)
H10 H 0.4182 0.1525 0.8212
C16 C 0.4897(3) 0.0367(2) 0.88931(15)
C17_2 C 0.3433(4) 0.4688(3) 0.93216(15)
H11_2 H 0.3298 0.5000 0.9062
N2 N 0.42686(28) 0.2988(2) 0.94120(11)
H12 H 0.4516 0.2847 0.9668
O3 O 0.3915(5) 0.2741(4) 0.85653(13)
C25_4 C 0.0844(3) 0.6384(4) 0.34973(15)
H16_4 H 0.1005 0.6424 0.3851
C27_4 C 0.0354(3) 0.6301(4) 0.25007(16)
H18_4 H 0.0224 0.6311 0.2145
C32_4 C 0.1255(3) 0.6567(4) 0.26549(15)
H21_4 H 0.1702 0.6702 0.2395
C21_2 C 0.7344(2) 0.1843(3) 0.10566(14)
C22_2 C 0.8347(3) 0.2563(3) 0.10430(15)
C23_2 C 0.6749(3) 0.1687(4) 0.0693(2)
H14_2 H 0.6934 0.2075 0.0399
C24_2 C 0.5812(4) 0.0938(4) 0.0724(2)
H15_2 H 0.5418 0.0860 0.0444
C28_2 C 0.9637(2) 0.3621(3) 0.04673(14)
C29_2 C 0.6046(3) 0.0610(5) 0.1517(2)
H19_2 H 0.5833 0.0277 0.1830
C30_2 C 0.6976(4) 0.1363(5) 0.1486(2)
H20_2 H 0.7343 0.1525 0.1788
C31_2 C 0.5470(2) 0.0367(2) 0.11069(15)
N5_2 N 0.87194(19) 0.2988(2) 0.05880(11)
H22_2 H 0.8331 0.2847 0.0332
O7_2 O 0.8826(3) 0.2741(4) 0.14347(13)
C26_2 C 0.9885(2) 0.3838(2) 0.99635(15)
H17_2 H 0.9438 0.3587 0.9698
C6_2 C 0.2656(2) 0.8157(3) 0.10566(14)
C7_2 C 0.1653(3) 0.7437(3) 0.10430(15)
C8_2 C 0.3251(3) 0.8313(4) 0.0693(2)
H4_2 H 0.3066 0.7925 0.0399
C9_2 C 0.4188(4) 0.9062(4) 0.0724(2)
H5_2 H 0.4582 0.9140 0.0444
C13_2 C 0.0363(2) 0.6379(3) 0.04673(14)
C14_2 C 0.3954(3) 0.9390(5) 0.1517(2)
H9_2 H 0.4167 0.9723 0.1830
C15_2 C 0.3024(4) 0.8637(5) 0.1486(2)
H10_2 H 0.2657 0.8475 0.1788
C16_2 C 0.4530(2) 0.9633(2) 0.11069(15)
N2_2 N 0.12806(19) 0.7012(2) 0.05880(11)
H12_2 H 0.1669 0.7153 0.0332
O3_2 O 0.1174(3) 0.7259(4) 0.14347(13)
C11_2 C 0.0115(2) 0.6162(2) 0.99635(15)
H7_2 H 0.0562 0.6413 0.9698
C1_4 C 0.5841(2) 0.3240(2) 0.07075(15)
C2_4 C 0.5329(2) 0.2822(3) 0.12067(15)
C3_4 C 0.5790(3) 0.28950(17) 0.1667
H1_4 H 0.6440 0.3220 0.1667
C4_4 C 0.4345(3) 0.2313(4) 0.11920(18)
H2_4 H 0.4024 0.2232 0.0878
C5_4 C 0.3859(5) 0.1929(2) 0.1667
H3_4 H 0.3209 0.1605 0.1667
C12_3 C 0.9646(3) 0.5947(3) 0.08326(16)
H8_3 H 0.9776 0.6087 0.1188
C17_3 C 0.8745(3) 0.5312(3) 0.06784(15)
H11_3 H 0.8298 0.5000 0.0938
N1_2 N 0.84917(17) 0.51308(19) 0.01855(10)
O1_4 O 0.66972(16) 0.37843(17) 0.07166(9)
O2_4 O 0.53870(18) 0.30402(18) 0.02857(11)
Zn1_2 Zn 0.71295(2) 0.42591(4) 0.0000
C18_4 C 0.5841(2) 0.2601(3) 0.26258(15)
C19_4 C 0.5329(2) 0.2507(4) 0.21266(15)
C20_4 C 0.4345(3) 0.2032(5) 0.21413(18)
H13_4 H 0.4024 0.1792 0.2455
O4_2 O 0.66972(16) 0.29129(23) 0.26167(9)
O6_4 O 0.53870(18) 0.23468(25) 0.30476(11)
Zn2_2 Zn 0.71295(2) 0.28704(4) 0.3333
C10_3 C 0.9156(3) 0.5540(3) 0.98360(15)
H6_3 H 0.8995 0.5419 0.9482
Zn1_3 Zn 0.71295(2) 0.42591(4) 1.0000
N4_4 N 0.66391(25) 0.51308(19) 0.98145(10)
O5_3 O 0.70871(23) 0.37843(17) 0.92834(9)
C25_5 C 0.6384(4) 0.0844(3) 0.31693(15)
H16_5 H 0.6424 0.1005 0.2815
C27_5 C 0.6301(4) 0.0354(3) 0.41659(16)
H18_5 H 0.6311 0.0224 0.4521
C32_5 C 0.6567(4) 0.1255(3) 0.40117(15)
H21_5 H 0.6702 0.1702 0.4271
N3_3 N 0.66391(25) 0.15083(17) 0.35188(10)
C1_5 C 0.6760(2) 0.2601(3) 0.73742(15)
C2_5 C 0.7178(3) 0.2507(4) 0.78734(15)
C3_5 C 0.71050(17) 0.28950(34) 0.8334
H1_5 H 0.6780 0.3220 0.8334
C4_5 C 0.7687(4) 0.2032(5) 0.78587(18)
H2_5 H 0.7768 0.1792 0.7545
C5_5 C 0.8071(2) 0.1930(5) 0.8334
H3_5 H 0.8395 0.1604 0.8334
C6_3 C 0.1843(3) 0.4499(4) 0.77233(14)
C7_3 C 0.2563(3) 0.4216(4) 0.77097(15)
C8_3 C 0.1687(4) 0.4938(5) 0.7360(2)
H4_3 H 0.2075 0.5141 0.7066
C9_3 C 0.0938(4) 0.5126(6) 0.7391(2)
H5_3 H 0.0860 0.5442 0.7111
C10_4 C 0.4460(3) 0.3616(4) 0.65027(15)
H6_4 H 0.4581 0.3576 0.6149
C11_3 C 0.3838(2) 0.3953(3) 0.66302(15)
H7_3 H 0.3587 0.4149 0.6365
C12_4 C 0.4053(3) 0.3699(4) 0.74993(16)
H8_4 H 0.3913 0.3689 0.7855
C13_3 C 0.3621(3) 0.3984(4) 0.71340(14)
C14_3 C 0.0610(5) 0.4564(6) 0.8184(2)
H9_3 H 0.0277 0.4444 0.8497
C15_3 C 0.1363(5) 0.4387(6) 0.8153(2)
H10_3 H 0.1525 0.4182 0.8455
C16_3 C 0.0367(2) 0.4897(3) 0.77736(15)
C17_4 C 0.4688(3) 0.3433(4) 0.73451(15)
H11_4 H 0.5000 0.3298 0.7605
N1_3 N 0.48692(19) 0.33609(25) 0.68522(10)
N2_3 N 0.2988(2) 0.42686(28) 0.72547(11)
H12_3 H 0.2847 0.4516 0.6999
O1_5 O 0.62157(17) 0.29129(23) 0.73833(9)
O2_5 O 0.69598(18) 0.23468(25) 0.69524(11)
O3_3 O 0.2741(4) 0.3915(5) 0.81014(13)
Zn1_4 Zn 0.57409(4) 0.28704(4) 0.6667
C18_5 C 0.7399(3) 0.3240(4) 0.92925(15)
C19_5 C 0.7493(4) 0.2822(4) 0.87933(15)
C20_5 C 0.7968(5) 0.2313(6) 0.88080(18)
H13_5 H 0.8208 0.2232 0.9122
N4_5 N 0.48692(19) 0.15083(31) 0.64812(10)
O5_4 O 0.62157(17) 0.33028(29) 0.59501(9)
O6_5 O 0.76532(25) 0.30402(31) 0.97143(11)
C1_6 C 0.7399(3) 0.4159(2) 0.40408(15)
C2_6 C 0.7493(4) 0.4671(2) 0.45400(15)
C3_6 C 0.71050(34) 0.4210(3) 0.5000
H1_6 H 0.6780 0.3560 0.5000
C4_6 C 0.7968(5) 0.5655(3) 0.45253(18)
H2_6 H 0.8208 0.5976 0.4211
C5_6 C 0.8070(5) 0.6141(5) 0.5000
H3_6 H 0.8396 0.6791 0.5000
O1_6 O 0.70871(23) 0.33028(16) 0.40499(9)
O2_6 O 0.76532(25) 0.46130(18) 0.36190(11)
C18_6 C 0.6760(4) 0.4159(2) 0.59592(15)
C19_6 C 0.7178(4) 0.4671(2) 0.54600(15)
C20_6 C 0.7687(6) 0.5655(3) 0.54747(18)
H13_6 H 0.7768 0.5976 0.5789
N4_6 N 0.84917(31) 0.33609(25) 0.31478(10)
O6_6 O 0.69598(31) 0.46130(18) 0.63810(11)
C10_5 C 0.4460(3) 0.0844(3) 0.68307(15)
H6_5 H 0.4581 0.1005 0.7185
C12_5 C 0.4053(3) 0.0354(3) 0.58341(16)
H8_5 H 0.3913 0.0224 0.5479
C17_5 C 0.4688(3) 0.1255(3) 0.59883(15)
H11_5 H 0.5000 0.1702 0.5729
C25_6 C 0.6384(4) 0.5540(3) 0.01640(15)
H16_6 H 0.6424 0.5419 0.0518
C26_3 C 0.6047(3) 0.6162(2) 0.00365(15)
H17_3 H 0.5851 0.6413 0.0302
C21_3 C 0.5501(4) 0.8157(3) 0.89434(14)
C22_3 C 0.5784(4) 0.7437(3) 0.89570(15)
C23_3 C 0.5062(5) 0.8313(4) 0.9307(2)
H14_3 H 0.4859 0.7925 0.9601
C24_3 C 0.4874(6) 0.9062(4) 0.9276(2)
H15_3 H 0.4558 0.9140 0.9556
C27_6 C 0.6301(4) 0.5947(3) 0.91674(16)
H18_6 H 0.6311 0.6087 0.8812
C28_3 C 0.6016(4) 0.6379(3) 0.95327(14)
C29_3 C 0.5436(6) 0.9390(5) 0.8483(2)
H19_3 H 0.5556 0.9723 0.8170
C30_3 C 0.5613(6) 0.8637(5) 0.8514(2)
H20_3 H 0.5818 0.8475 0.8212
C31_3 C 0.5103(3) 0.9633(2) 0.88931(15)
C32_6 C 0.6567(4) 0.5312(3) 0.93216(15)
H21_6 H 0.6702 0.5000 0.9062
N5_3 N 0.57314(28) 0.7012(2) 0.94120(11)
H22_3 H 0.5484 0.7153 0.9668
O7_3 O 0.6085(5) 0.7259(4) 0.85653(13)
C10_6 C 0.9156(3) 0.3616(4) 0.34973(15)
H6_6 H 0.8995 0.3576 0.3851
C12_6 C 0.9646(3) 0.3699(4) 0.25007(16)
H8_6 H 0.9776 0.3689 0.2145
C17_6 C 0.8745(3) 0.3433(4) 0.26549(15)
H11_6 H 0.8298 0.3298 0.2395
C6_4 C 0.4499(4) 0.2656(2) 0.43899(14)
C7_4 C 0.4216(4) 0.1653(3) 0.43763(15)
C8_4 C 0.4938(5) 0.3251(3) 0.4026(2)
H4_4 H 0.5141 0.3066 0.3732
C9_4 C 0.5126(6) 0.4188(4) 0.4057(2)
H5_4 H 0.5442 0.4582 0.3777
C11_4 C 0.3953(3) 0.0115(2) 0.32968(15)
H7_4 H 0.4149 0.0562 0.3031
C13_4 C 0.3984(4) 0.0363(2) 0.38006(14)
C14_4 C 0.4564(6) 0.3954(3) 0.4850(2)
H9_4 H 0.4444 0.4167 0.5163
C15_4 C 0.4387(6) 0.3024(4) 0.4819(2)
H10_4 H 0.4182 0.2657 0.5121
C16_4 C 0.4897(3) 0.4530(2) 0.44402(15)
N2_4 N 0.42686(28) 0.12806(19) 0.39213(11)
H12_4 H 0.4516 0.1669 0.3665
O3_4 O 0.3915(5) 0.1174(3) 0.47680(13)
C21_4 C 0.5501(4) 0.7344(2) 0.43899(14)
C22_4 C 0.5784(4) 0.8347(3) 0.43763(15)
C23_4 C 0.5062(5) 0.6749(3) 0.4026(2)
H14_4 H 0.4859 0.6934 0.3732
C24_4 C 0.4874(6) 0.5812(4) 0.4057(2)
H15_4 H 0.4558 0.5418 0.3777
C26_4 C 0.6047(3) 0.9885(2) 0.32968(15)
H17_4 H 0.5851 0.9438 0.3031
C28_4 C 0.6016(4) 0.9637(2) 0.38006(14)
C29_4 C 0.5436(6) 0.6046(3) 0.4850(2)
H19_4 H 0.5556 0.5833 0.5163
C30_4 C 0.5613(6) 0.6976(4) 0.4819(2)
H20_4 H 0.5818 0.7343 0.5121
C31_4 C 0.5103(3) 0.5470(2) 0.44402(15)
N5_4 N 0.57314(28) 0.87194(19) 0.39213(11)
H22_4 H 0.5484 0.8331 0.3665
O7_4 O 0.6085(5) 0.8826(3) 0.47680(13)
C6_5 C 0.1843(3) 0.7344(2) 0.56101(14)
C7_5 C 0.2563(3) 0.8347(3) 0.56237(15)
C8_5 C 0.1687(4) 0.6749(3) 0.5974(2)
H4_5 H 0.2075 0.6934 0.6268
C9_5 C 0.0938(4) 0.5812(4) 0.5943(2)
H5_5 H 0.0860 0.5418 0.6223
C11_5 C 0.3838(2) 0.9885(2) 0.67032(15)
H7_5 H 0.3587 0.9438 0.6969
C13_5 C 0.3621(3) 0.9637(2) 0.61994(14)
C14_5 C 0.0610(5) 0.6046(3) 0.5150(2)
H9_5 H 0.0277 0.5833 0.4837
C15_5 C 0.1363(5) 0.6976(4) 0.5181(2)
H10_5 H 0.1525 0.7343 0.4879
C16_5 C 0.0367(2) 0.5470(2) 0.55598(15)
N2_5 N 0.2988(2) 0.87194(19) 0.60787(11)
H12_5 H 0.2847 0.8331 0.6335
O3_5 O 0.2741(4) 0.8826(3) 0.52320(13)
C21_5 C 0.8157(3) 0.2656(2) 0.56101(14)
C22_5 C 0.7437(3) 0.1653(3) 0.56237(15)
C23_5 C 0.8313(4) 0.3251(3) 0.5974(2)
H14_5 H 0.7925 0.3066 0.6268
C24_5 C 0.9062(4) 0.4188(4) 0.5943(2)
H15_5 H 0.9140 0.4582 0.6223
C26_5 C 0.6162(2) 0.0115(2) 0.67032(15)
H17_5 H 0.6413 0.0562 0.6969
C28_5 C 0.6379(3) 0.0363(2) 0.61994(14)
C29_5 C 0.9390(5) 0.3954(3) 0.5150(2)
H19_5 H 0.9723 0.4167 0.4837
C30_5 C 0.8637(5) 0.3024(4) 0.5181(2)
H20_5 H 0.8475 0.2657 0.4879
C31_5 C 0.9633(2) 0.4530(2) 0.55598(15)
N5_5 N 0.7012(2) 0.12806(19) 0.60787(11)
H22_5 H 0.7153 0.1669 0.6335
O7_5 O 0.7259(4) 0.1174(3) 0.52320(13)
C6_6 C 0.2656(2) 0.4499(4) 0.22767(14)
C7_6 C 0.1653(3) 0.4216(4) 0.22903(15)
C8_6 C 0.3251(3) 0.4938(5) 0.2640(2)
H4_6 H 0.3066 0.5141 0.2934
C9_6 C 0.4188(4) 0.5126(6) 0.2609(2)
H5_6 H 0.4582 0.5442 0.2889
C11_6 C 0.0115(2) 0.3953(3) 0.33698(15)
H7_6 H 0.0562 0.4149 0.3635
C13_6 C 0.0363(2) 0.3984(4) 0.28660(14)
C14_6 C 0.3954(3) 0.4564(6) 0.1816(2)
H9_6 H 0.4167 0.4444 0.1503
C15_6 C 0.3024(4) 0.4387(6) 0.1847(2)
H10_6 H 0.2657 0.4182 0.1545
C16_6 C 0.4530(2) 0.4897(3) 0.22264(15)
N2_6 N 0.12806(19) 0.42686(28) 0.27453(11)
H12_6 H 0.1669 0.4516 0.3001
O3_6 O 0.1174(3) 0.3915(5) 0.18986(13)
C21_6 C 0.7344(2) 0.5501(4) 0.22767(14)
C22_6 C 0.8347(3) 0.5784(4) 0.22903(15)
C23_6 C 0.6749(3) 0.5062(5) 0.2640(2)
H14_6 H 0.6934 0.4859 0.2934
C24_6 C 0.5812(4) 0.4874(6) 0.2609(2)
H15_6 H 0.5418 0.4558 0.2889
C26_6 C 0.9885(2) 0.6047(3) 0.33698(15)
H17_6 H 0.9438 0.5851 0.3635
C28_6 C 0.9637(2) 0.6016(4) 0.28660(14)
C29_6 C 0.6046(3) 0.5436(6) 0.1816(2)
H19_6 H 0.5833 0.5556 0.1503
C30_6 C 0.6976(4) 0.5613(6) 0.1847(2)
H20_6 H 0.7343 0.5818 0.1545
C31_6 C 0.5470(2) 0.5103(3) 0.22264(15)
N5_6 N 0.87194(19) 0.57314(28) 0.27453(11)
H22_6 H 0.8331 0.5484 0.3001
O7_6 O 0.8826(3) 0.6085(5) 0.18986(13)
loop_
_geom_bond_atom_site_label_1
_geom_bond_atom_site_label_2
_geom_bond_site_symmetry_1
_geom_bond_site_symmetry_2
C27 H18 1_555 1_555
C32 C27 1_555 1_555
H21 C32 1_555 1_555
Zn3 N3 1_555 1_555
C32 N3 1_555 1_555
C25 H16 1_555 1_555
C1 C2 1_555 1_555
C2 C3 1_555 1_555
C3 H1 1_555 1_555
C4 C2 1_555 1_555
H2 C4 1_555 1_555
C5 C4 1_555 1_555
H3 C5 1_555 1_555
C10 H6 1_555 1_555
C12 H8 1_555 1_555
C17 C12 1_555 1_555
H11 C17 1_555 1_555
N1 C10 1_555 1_555
O1 C1 1_555 1_555
O2 C1 1_555 1_555
Zn1 N1 1_555 1_555
C18 C19 1_555 1_555
C19 C3 1_555 1_555
C20 C5 1_555 1_555
H13 C20 1_555 1_555
N4 Zn1 1_555 1_555
O4 C18 1_555 1_555
O5 Zn1 1_555 1_555
O6 C18 1_555 1_555
Zn2 O4 1_555 1_555
C17 N1 1_555 1_555
O1 Zn1 1_555 1_555
C19 C20 1_555 1_555
C21 C22 1_555 1_555
C22 N5 1_555 1_555
C23 C21 1_555 1_555
H14 C23 1_555 1_555
C24 C23 1_555 1_555
H15 C24 1_555 1_555
C25_2 H16_2 1_555 1_555
C26 C25_2 1_555 1_555
H17 C26 1_555 1_555
C27_2 H18_2 1_555 1_555
C28 C26 1_555 1_555
C29 H19 1_555 1_555
C30 C21 1_555 1_555
H20 C30 1_555 1_555
C32_2 C27_2 1_555 1_555
H21_2 C32_2 1_555 1_555
N3_2 C25_2 1_555 1_555
N5 C28 1_555 1_555
H22 N5 1_555 1_555
O7 C22 1_555 1_555
Zn2 N3_2 1_555 1_555
C24 C31 1_555 1_555
C27_2 C28 1_555 1_555
C29 C30 1_555 1_555
C29 C31 1_555 1_555
C32_2 N3_2 1_555 1_555
C1_2 C2_2 1_555 1_555
C2_2 C3_2 1_555 1_555
C3_2 H1_2 1_555 1_555
C4_2 C2_2 1_555 1_555
H2_2 C4_2 1_555 1_555
C5_2 C4_2 1_555 1_555
H3_2 C5_2 1_555 1_555
O1_2 C1_2 1_555 1_555
O2_2 C1_2 1_555 1_555
C18_2 C19_2 1_555 1_555
C19_2 C3_2 1_555 1_555
C20_2 C5_2 1_555 1_555
H13_2 C20_2 1_555 1_555
O5 C18_2 1_555 1_555
O6_2 C18_2 1_555 1_555
O1_2 Zn3 1_555 1_555
C19_2 C20_2 1_555 1_555
N4_2 Zn3_2 1_555 1_555
O5_2 Zn3_2 1_555 1_555
C1_3 C2_3 1_555 1_555
C2_3 C3_3 1_555 1_555
C3_3 H1_3 1_555 1_555
C4_3 C2_3 1_555 1_555
H2_3 C4_3 1_555 1_555
C5_3 C4_3 1_555 1_555
H3_3 C5_3 1_555 1_555
O1_3 C1_3 1_555 1_555
O2_3 C1_3 1_555 1_555
C18_3 C19_3 1_555 1_555
C19_3 C3_3 1_555 1_555
C20_3 C5_3 1_555 1_555
H13_3 C20_3 1_555 1_555
N4_3 Zn2 1_555 1_555
O5_2 C18_3 1_555 1_555
O6_3 C18_3 1_555 1_555
O1_3 Zn2 1_555 1_555
C19_3 C20_3 1_555 1_555
C25_3 H16_3 1_555 1_555
C27_3 H18_3 1_555 1_555
C32_3 C27_3 1_555 1_555
H21_3 C32_3 1_555 1_555
N4_3 C25_3 1_555 1_555
C32_3 N4_3 1_555 1_555
C10_2 H6_2 1_555 1_555
C11 C10_2 1_555 1_555
H7 C11 1_555 1_555
C6 C7 1_555 1_555
C7 N2 1_555 1_555
C8 C6 1_555 1_555
H4 C8 1_555 1_555
C9 C8 1_555 1_555
H5 C9 1_555 1_555
C12_2 H8_2 1_555 1_555
C14 H9 1_555 1_555
C15 C6 1_555 1_555
H10 C15 1_555 1_555
C16 C9 1_555 1_555
C17_2 C12_2 1_555 1_555
H11_2 C17_2 1_555 1_555
N2 C13 1_555 1_555
H12 N2 1_555 1_555
O3 C7 1_555 1_555
C12_2 C13 1_555 1_555
C14 C15 1_555 1_555
C14 C16 1_555 1_555
C17_2 N4_2 1_555 1_555
C25_4 H16_4 1_555 1_555
C27_4 H18_4 1_555 1_555
C32_4 C27_4 1_555 1_555
H21_4 C32_4 1_555 1_555
N4 C25_4 1_555 1_555
C32_4 N4 1_555 1_555
C21_2 C22_2 1_555 1_555
C22_2 N5_2 1_555 1_555
C23_2 C21_2 1_555 1_555
H14_2 C23_2 1_555 1_555
C24_2 C23_2 1_555 1_555
H15_2 C24_2 1_555 1_555
C29_2 H19_2 1_555 1_555
C30_2 C21_2 1_555 1_555
H20_2 C30_2 1_555 1_555
N5_2 C28_2 1_555 1_555
H22_2 N5_2 1_555 1_555
O7_2 C22_2 1_555 1_555
C24_2 C31_2 1_555 1_555
C29_2 C30_2 1_555 1_555
C29_2 C31_2 1_555 1_555
H17_2 C26_2 1_555 1_555
C6_2 C7_2 1_555 1_555
C7_2 N2_2 1_555 1_555
C8_2 C6_2 1_555 1_555
H4_2 C8_2 1_555 1_555
C9_2 C8_2 1_555 1_555
H5_2 C9_2 1_555 1_555
C14_2 H9_2 1_555 1_555
C15_2 C6_2 1_555 1_555
H10_2 C15_2 1_555 1_555
C16_2 C9_2 1_555 1_555
N2_2 C13_2 1_555 1_555
H12_2 N2_2 1_555 1_555
O3_2 C7_2 1_555 1_555
C14_2 C15_2 1_555 1_555
C14_2 C16_2 1_555 1_555
H7_2 C11_2 1_555 1_555
C1_4 C2_4 1_555 1_555
C2_4 C3_4 1_555 1_555
C3_4 H1_4 1_555 1_555
C4_4 C2_4 1_555 1_555
H2_4 C4_4 1_555 1_555
C5_4 C4_4 1_555 1_555
H3_4 C5_4 1_555 1_555
C12_3 H8_3 1_555 1_555
C17_3 C12_3 1_555 1_555
H11_3 C17_3 1_555 1_555
O1_4 C1_4 1_555 1_555
O2_4 C1_4 1_555 1_555
Zn1_2 N1_2 1_555 1_555
C18_4 C19_4 1_555 1_555
C19_4 C3_4 1_555 1_555
C20_4 C5_4 1_555 1_555
H13_4 C20_4 1_555 1_555
O4_2 C18_4 1_555 1_555
O6_4 C18_4 1_555 1_555
Zn2_2 O4_2 1_555 1_555
C17_3 N1_2 1_555 1_555
O1_4 Zn1_2 1_555 1_555
C19_4 C20_4 1_555 1_555
C10_3 H6_3 1_555 1_555
N4_4 Zn1_3 1_555 1_555
O5_3 Zn1_3 1_555 1_555
C25_5 H16_5 1_555 1_555
C27_5 H18_5 1_555 1_555
C32_5 C27_5 1_555 1_555
H21_5 C32_5 1_555 1_555
N3_3 C25_5 1_555 1_555
Zn2_2 N3_3 1_555 1_555
C32_5 N3_3 1_555 1_555
C1_5 C2_5 1_555 1_555
C2_5 C3_5 1_555 1_555
C3_5 H1_5 1_555 1_555
C4_5 C2_5 1_555 1_555
H2_5 C4_5 1_555 1_555
C5_5 C4_5 1_555 1_555
H3_5 C5_5 1_555 1_555
C6_3 C7_3 1_555 1_555
C7_3 N2_3 1_555 1_555
C8_3 C6_3 1_555 1_555
H4_3 C8_3 1_555 1_555
C9_3 C8_3 1_555 1_555
H5_3 C9_3 1_555 1_555
C10_4 H6_4 1_555 1_555
C11_3 C10_4 1_555 1_555
H7_3 C11_3 1_555 1_555
C12_4 H8_4 1_555 1_555
C13_3 C11_3 1_555 1_555
C14_3 H9_3 1_555 1_555
C15_3 C6_3 1_555 1_555
H10_3 C15_3 1_555 1_555
C16_3 C9_3 1_555 1_555
C17_4 C12_4 1_555 1_555
H11_4 C17_4 1_555 1_555
N1_3 C10_4 1_555 1_555
N2_3 C13_3 1_555 1_555
H12_3 N2_3 1_555 1_555
O1_5 C1_5 1_555 1_555
O2_5 C1_5 1_555 1_555
O3_3 C7_3 1_555 1_555
Zn1_4 N1_3 1_555 1_555
C18_5 C19_5 1_555 1_555
C19_5 C3_5 1_555 1_555
C20_5 C5_5 1_555 1_555
H13_5 C20_5 1_555 1_555
N4_5 Zn1_4 1_555 1_555
O5_3 C18_5 1_555 1_555
O5_4 Zn1_4 1_555 1_555
O6_5 C18_5 1_555 1_555
C12_4 C13_3 1_555 1_555
C14_3 C15_3 1_555 1_555
C14_3 C16_3 1_555 1_555
C17_4 N1_3 1_555 1_555
O1_5 Zn1_4 1_555 1_555
C19_5 C20_5 1_555 1_555
C1_6 C2_6 1_555 1_555
C2_6 C3_6 1_555 1_555
C3_6 H1_6 1_555 1_555
C4_6 C2_6 1_555 1_555
H2_6 C4_6 1_555 1_555
C5_6 C4_6 1_555 1_555
H3_6 C5_6 1_555 1_555
O1_6 C1_6 1_555 1_555
O2_6 C1_6 1_555 1_555
C18_6 C19_6 1_555 1_555
C19_6 C3_6 1_555 1_555
C20_6 C5_6 1_555 1_555
H13_6 C20_6 1_555 1_555
N4_6 Zn2_2 1_555 1_555
O5_4 C18_6 1_555 1_555
O6_6 C18_6 1_555 1_555
O1_6 Zn2_2 1_555 1_555
C19_6 C20_6 1_555 1_555
C10_5 H6_5 1_555 1_555
C12_5 H8_5 1_555 1_555
C17_5 C12_5 1_555 1_555
H11_5 C17_5 1_555 1_555
N4_5 C10_5 1_555 1_555
C17_5 N4_5 1_555 1_555
C25_6 H16_6 1_555 1_555
C26_3 C25_6 1_555 1_555
H17_3 C26_3 1_555 1_555
C21_3 C22_3 1_555 1_555
C22_3 N5_3 1_555 1_555
C23_3 C21_3 1_555 1_555
H14_3 C23_3 1_555 1_555
C24_3 C23_3 1_555 1_555
H15_3 C24_3 1_555 1_555
C27_6 H18_6 1_555 1_555
C29_3 H19_3 1_555 1_555
C30_3 C21_3 1_555 1_555
H20_3 C30_3 1_555 1_555
C32_6 C27_6 1_555 1_555
H21_6 C32_6 1_555 1_555
N5_3 C28_3 1_555 1_555
H22_3 N5_3 1_555 1_555
O7_3 C22_3 1_555 1_555
C24_3 C31_3 1_555 1_555
C27_6 C28_3 1_555 1_555
C29_3 C30_3 1_555 1_555
C29_3 C31_3 1_555 1_555
C32_6 N4_4 1_555 1_555
C10_6 H6_6 1_555 1_555
C12_6 H8_6 1_555 1_555
C17_6 C12_6 1_555 1_555
H11_6 C17_6 1_555 1_555
N4_6 C10_6 1_555 1_555
C17_6 N4_6 1_555 1_555
C6_4 C7_4 1_555 1_555
C7_4 N2_4 1_555 1_555
C8_4 C6_4 1_555 1_555
H4_4 C8_4 1_555 1_555
C9_4 C8_4 1_555 1_555
H5_4 C9_4 1_555 1_555
H7_4 C11_4 1_555 1_555
C13_4 C11_4 1_555 1_555
C14_4 H9_4 1_555 1_555
C15_4 C6_4 1_555 1_555
H10_4 C15_4 1_555 1_555
C16_4 C9_4 1_555 1_555
N2_4 C13_4 1_555 1_555
H12_4 N2_4 1_555 1_555
O3_4 C7_4 1_555 1_555
C21_4 C22_4 1_555 1_555
C22_4 N5_4 1_555 1_555
C23_4 C21_4 1_555 1_555
H14_4 C23_4 1_555 1_555
C24_4 C23_4 1_555 1_555
H15_4 C24_4 1_555 1_555
H17_4 C26_4 1_555 1_555
C28_4 C26_4 1_555 1_555
C29_4 H19_4 1_555 1_555
C30_4 C21_4 1_555 1_555
H20_4 C30_4 1_555 1_555
C31_4 C16_4 1_555 1_555
N5_4 C28_4 1_555 1_555
H22_4 N5_4 1_555 1_555
O7_4 C22_4 1_555 1_555
C14_4 C15_4 1_555 1_555
C14_4 C16_4 1_555 1_555
C24_4 C31_4 1_555 1_555
C29_4 C30_4 1_555 1_555
C29_4 C31_4 1_555 1_555
C6_5 C7_5 1_555 1_555
C7_5 N2_5 1_555 1_555
C8_5 C6_5 1_555 1_555
H4_5 C8_5 1_555 1_555
C9_5 C8_5 1_555 1_555
H5_5 C9_5 1_555 1_555
H7_5 C11_5 1_555 1_555
C13_5 C11_5 1_555 1_555
C14_5 H9_5 1_555 1_555
C15_5 C6_5 1_555 1_555
H10_5 C15_5 1_555 1_555
C16_5 C9_5 1_555 1_555
N2_5 C13_5 1_555 1_555
H12_5 N2_5 1_555 1_555
O3_5 C7_5 1_555 1_555
C14_5 C15_5 1_555 1_555
C14_5 C16_5 1_555 1_555
C21_5 C22_5 1_555 1_555
C22_5 N5_5 1_555 1_555
C23_5 C21_5 1_555 1_555
H14_5 C23_5 1_555 1_555
C24_5 C23_5 1_555 1_555
H15_5 C24_5 1_555 1_555
H17_5 C26_5 1_555 1_555
C28_5 C26_5 1_555 1_555
C29_5 H19_5 1_555 1_555
C30_5 C21_5 1_555 1_555
H20_5 C30_5 1_555 1_555
N5_5 C28_5 1_555 1_555
H22_5 N5_5 1_555 1_555
O7_5 C22_5 1_555 1_555
C24_5 C31_5 1_555 1_555
C29_5 C30_5 1_555 1_555
C29_5 C31_5 1_555 1_555
C6_6 C7_6 1_555 1_555
C7_6 N2_6 1_555 1_555
C8_6 C6_6 1_555 1_555
H4_6 C8_6 1_555 1_555
C9_6 C8_6 1_555 1_555
H5_6 C9_6 1_555 1_555
H7_6 C11_6 1_555 1_555
C13_6 C11_6 1_555 1_555
C14_6 H9_6 1_555 1_555
C15_6 C6_6 1_555 1_555
H10_6 C15_6 1_555 1_555
C16_6 C9_6 1_555 1_555
N2_6 C13_6 1_555 1_555
H12_6 N2_6 1_555 1_555
O3_6 C7_6 1_555 1_555
C21_6 C22_6 1_555 1_555
C22_6 N5_6 1_555 1_555
C23_6 C21_6 1_555 1_555
H14_6 C23_6 1_555 1_555
C24_6 C23_6 1_555 1_555
H15_6 C24_6 1_555 1_555
H17_6 C26_6 1_555 1_555
C28_6 C26_6 1_555 1_555
C29_6 H19_6 1_555 1_555
C30_6 C21_6 1_555 1_555
H20_6 C30_6 1_555 1_555
C31_6 C16_6 1_555 1_555
N5_6 C28_6 1_555 1_555
H22_6 N5_6 1_555 1_555
O7_6 C22_6 1_555 1_555
C14_6 C15_6 1_555 1_555
C14_6 C16_6 1_555 1_555
C24_6 C31_6 1_555 1_555
C29_6 C30_6 1_555 1_555
C29_6 C31_6 1_555 1_555

#END
