
###############################################################################
#
# This file contains modified crystal structure data generated from the
# MOF subset of the Cambridge Structural Database (CSD) v543 
# hosted by the Cambridge Crystallographic Data Centre (CCDC).
#
# This work is licensed under the Creative Commons
# Attribution-NonCommercial-ShareAlike 4.0 International License.
# To view a copy of this license, visit
# http://creativecommons.org/licenses/by-nc-sa/4.0/
# or send a letter to
# Creative Commons, PO Box 1866, Mountain View, CA 94042, USA.
#
# CIF created using the CSD Python API on 29 September 2022
# The structure has been converted into the P1 space group
# The structure has a 3D framework
# The original CSD entry RAYKUZ is in the hexagonal crystal system
# The original CSD entry RAYKUZ is in a Sohncke space group
# The framework has been calculated to contain at least 10.0% void space
# The void calculation uses a probe of radius 1.32A, grid spacing 0.4
# H atom positions have been added when not included in the experimental data
#
###############################################################################

data_RAYKUZ
_chemical_formula_moiety         '(C192 H138 N24 O42 Zn6)n'
_symmetry_cell_setting           triclinic
_symmetry_space_group_name_H-M   'P 1'
_symmetry_Int_Tables_number      1
_space_group_name_Hall           'P 1'
loop_
_symmetry_equiv_pos_site_id
_symmetry_equiv_pos_as_xyz
1 x,y,z
_cell_length_a                   16.5744(2)
_cell_length_b                   16.5744(2)
_cell_length_c                   25.2582(9)
_cell_angle_alpha                90
_cell_angle_beta                 90
_cell_angle_gamma                120
_cell_volume                     6009.09
loop_
_atom_site_label
_atom_site_type_symbol
_atom_site_fract_x
_atom_site_fract_y
_atom_site_fract_z
C1 C 0.4140(2) 0.6730(2) 0.07010(15)
C2 C 0.4649(2) 0.7167(3) 0.12021(16)
C3 C 0.4179(3) 0.70896(16) 0.1667
H1 H 0.3531 0.6766 0.1667
C4 C 0.5644(3) 0.7666(4) 0.12094(18)
H2 H 0.5978 0.7728 0.0901
C5 C 0.1229(3) 0.4626(3) 0.06905(15)
H3 H 0.1680 0.4917 0.0951
C6 C 0.0341(2) 0.4011(3) 0.08498(16)
H4 H 0.0202 0.3871 0.1206
C12 C 0.6095(4) 0.80475(19) 0.1667
N1 N 0.14933(15) 0.48399(17) 0.01853(10)
O1 O 0.32911(15) 0.62026(16) 0.07144(9)
O2 O 0.46073(18) 0.69257(17) 0.02750(11)
O4 O 0.7038(3) 0.85191(15) 0.1667
Zn1 Zn 0.28567(2) 0.57134(4) 0.0000
C18 C 0.4140(2) 0.7410(3) 0.26323(15)
C19 C 0.4649(2) 0.7482(4) 0.21312(16)
C20 C 0.5644(3) 0.7978(5) 0.21239(18)
H12 H 0.5978 0.8250 0.2432
O5 O 0.32911(15) 0.70885(22) 0.26189(9)
O7 O 0.46073(18) 0.76816(25) 0.30583(11)
Zn2 Zn 0.28567(4) 0.71433(2) 0.3333
H22 H 0.726854 0.905014 0.141608
C9 C 0.0817(3) 0.4445(3) 0.98320(14)
H6 H 0.0974 0.4581 0.9477
Zn1_2 Zn 0.28567(2) 0.57134(4) 1.0000
N4 N 0.33466(23) 0.48399(17) 0.98147(10)
O6 O 0.29115(22) 0.62026(16) 0.92856(9)
C21 C 0.3397(4) 0.8771(3) 0.40238(15)
H13 H 0.3237 0.8320 0.4284
C22 C 0.3670(4) 0.9659(2) 0.41831(16)
H14 H 0.3669 0.9798 0.4539
C25 C 0.3628(4) 0.9183(3) 0.31653(14)
H16 H 0.3607 0.9026 0.2810
N3 N 0.33466(23) 0.85067(15) 0.35186(10)
C1_2 C 0.3270(2) 0.7410(3) 0.73677(15)
C2_2 C 0.2833(3) 0.7482(4) 0.78688(16)
C3_2 C 0.29104(16) 0.70894(34) 0.8334
H1_2 H 0.3234 0.6765 0.8334
C4_2 C 0.2334(4) 0.7978(5) 0.78761(18)
H2_2 H 0.2272 0.8250 0.7568
C5_2 C 0.5374(3) 0.6603(4) 0.73572(15)
H3_2 H 0.5083 0.6763 0.7618
C6_2 C 0.5989(3) 0.6330(4) 0.75165(16)
H4_2 H 0.6129 0.6331 0.7873
C7 C 0.6404(2) 0.60479(28) 0.71307(14)
C8 C 0.6165(2) 0.6043(3) 0.66237(13)
H5 H 0.6398 0.5825 0.6360
C9_2 C 0.5555(3) 0.6372(4) 0.64987(14)
H6_2 H 0.5419 0.6393 0.6144
C10 C 0.7519(3) 0.5878(4) 0.76976(15)
C11 C 0.8201(2) 0.5553(3) 0.77172(15)
C12_2 C 0.19525(19) 0.80475(44) 0.8334
C13 C 0.8727(5) 0.5696(6) 0.8133(2)
H7 H 0.8628 0.5963 0.8432
C14 C 0.8295(3) 0.5056(4) 0.7356(2)
H8 H 0.7906 0.4863 0.7061
C15 C 0.8996(4) 0.4803(5) 0.7409(3)
H9 H 0.8994 0.4386 0.7163
C16 C 0.9420(5) 0.5468(6) 0.8147(2)
H10 H 0.9762 0.5592 0.8459
C17 C 0.9629(2) 0.5100(3) 0.77668(14)
N1_2 N 0.51601(17) 0.66534(23) 0.68520(10)
N2 N 0.70397(19) 0.57614(26) 0.72495(11)
H11 H 0.7140 0.5468 0.7001
O1_2 O 0.37974(16) 0.70885(22) 0.73811(9)
O2_2 O 0.30743(17) 0.76816(25) 0.69417(11)
O3 O 0.7367(3) 0.6220(4) 0.80845(12)
O4_2 O 0.14809(15) 0.85189(34) 0.8334
Zn1_3 Zn 0.42866(4) 0.71433(4) 0.6667
C18_2 C 0.2590(3) 0.6730(4) 0.92990(15)
C19_2 C 0.2518(4) 0.7167(4) 0.87979(16)
C20_2 C 0.2022(5) 0.7666(6) 0.87906(18)
H12_2 H 0.1750 0.7728 0.9099
N4_2 N 0.51601(17) 0.85067(29) 0.64814(10)
O6_2 O 0.37974(16) 0.67089(27) 0.59523(9)
O7_2 O 0.23184(25) 0.69257(31) 0.97250(11)
H22_2 H 0.0949858 0.82184 0.808275
C1_3 C 0.2590(3) 0.5860(2) 0.40343(15)
C2_3 C 0.2518(4) 0.5351(2) 0.45354(16)
C3_3 C 0.29106(34) 0.5821(3) 0.5000
H1_3 H 0.3235 0.6469 0.5000
C4_3 C 0.2022(5) 0.4356(3) 0.45427(18)
H2_3 H 0.1750 0.4022 0.4234
C12_3 C 0.19525(44) 0.3905(4) 0.5000
O1_3 O 0.29115(22) 0.67089(15) 0.40477(9)
O2_3 O 0.23184(25) 0.53927(18) 0.36083(11)
O4_3 O 0.14811(34) 0.2962(3) 0.5000
C18_3 C 0.3270(4) 0.5860(2) 0.59657(15)
C19_3 C 0.2833(4) 0.5351(2) 0.54646(16)
C20_3 C 0.2334(6) 0.4356(3) 0.54573(18)
H12_3 H 0.2272 0.4022 0.5766
N4_3 N 0.14933(29) 0.66534(23) 0.31480(10)
O7_3 O 0.30743(31) 0.53927(18) 0.63917(11)
H22_3 H 0.17816 0.273146 0.474942
C5_3 C 0.5374(3) 0.8771(3) 0.59762(15)
H3_3 H 0.5083 0.8320 0.5716
C6_3 C 0.5989(3) 0.9659(2) 0.58169(16)
H4_3 H 0.6129 0.9798 0.5461
C9_3 C 0.5555(3) 0.9183(3) 0.68347(14)
H6_3 H 0.5419 0.9026 0.7190
H22_4 H 0.0949858 0.273146 0.525058
C24 C 0.3957(3) 0.3835(2) 0.00430(13)
H15 H 0.4175 0.3602 0.0307
C25_2 C 0.3628(4) 0.4445(3) 0.01680(14)
H16_2 H 0.3607 0.4581 0.0523
C21_2 C 0.3397(4) 0.4626(3) 0.93095(15)
H13_2 H 0.3237 0.4917 0.9049
C22_2 C 0.3670(4) 0.4011(3) 0.91502(16)
H14_2 H 0.3669 0.3871 0.8794
C23 C 0.39521(28) 0.3596(2) 0.95360(14)
C26 C 0.4122(4) 0.2481(3) 0.89691(15)
C27 C 0.4447(3) 0.1799(2) 0.89495(15)
C28 C 0.4304(6) 0.1273(5) 0.8534(2)
H17 H 0.4037 0.1372 0.8235
C29 C 0.4944(4) 0.1705(3) 0.9311(2)
H18 H 0.5137 0.2094 0.9606
C30 C 0.5197(5) 0.1004(4) 0.9258(3)
H19 H 0.5614 0.1006 0.9504
C31 C 0.4532(6) 0.0580(5) 0.8520(2)
H20 H 0.4408 0.0238 0.8208
C32 C 0.4900(3) 0.0371(2) 0.88999(14)
N5 N 0.42386(26) 0.29603(19) 0.94172(11)
H21 H 0.4532 0.2860 0.9666
O8 O 0.3780(4) 0.2633(3) 0.85822(12)
C5_4 C 0.1229(3) 0.6603(4) 0.26428(15)
H3_4 H 0.1680 0.6763 0.2382
C6_4 C 0.0341(2) 0.6330(4) 0.24835(16)
H4_4 H 0.0202 0.6331 0.2127
C9_4 C 0.0817(3) 0.6372(4) 0.35013(14)
H6_4 H 0.0974 0.6393 0.3856
H22_5 H 0.726854 0.82184 0.191725
H22_6 H 0.17816 0.905014 0.858392
C7_2 C 0.96439(19) 0.3596(2) 0.04640(14)
C10_2 C 0.8359(3) 0.2481(3) 0.10309(15)
C11_2 C 0.7352(2) 0.1799(2) 0.10505(15)
C13_2 C 0.6969(4) 0.1273(5) 0.1466(2)
H7_2 H 0.7335 0.1372 0.1765
C14_2 C 0.6761(3) 0.1705(3) 0.0689(2)
H8_2 H 0.6957 0.2094 0.0394
C15_2 C 0.5807(3) 0.1004(4) 0.0742(3)
H9_2 H 0.5392 0.1006 0.0496
C16_2 C 0.6048(4) 0.0580(5) 0.1480(2)
H10_2 H 0.5830 0.0238 0.1792
C17_2 C 0.5471(2) 0.0371(2) 0.11001(14)
N2_2 N 0.87217(18) 0.29603(19) 0.05828(11)
H11_2 H 0.8328 0.2860 0.0334
O3_2 O 0.8853(2) 0.2633(3) 0.14178(12)
C8_2 C 0.9878(2) 0.3835(2) 0.99570(13)
H5_2 H 0.9427 0.3602 0.9693
C23_2 C 0.03561(19) 0.6404(2) 0.04640(14)
C26_2 C 0.1641(3) 0.7519(3) 0.10309(15)
C27_2 C 0.2648(2) 0.8201(2) 0.10505(15)
C28_2 C 0.3031(4) 0.8727(5) 0.1466(2)
H17_2 H 0.2665 0.8628 0.1765
C29_2 C 0.3239(3) 0.8295(3) 0.0689(2)
H18_2 H 0.3043 0.7906 0.0394
C30_2 C 0.4193(3) 0.8996(4) 0.0742(3)
H19_2 H 0.4608 0.8994 0.0496
C31_2 C 0.3952(4) 0.9420(5) 0.1480(2)
H20_2 H 0.4170 0.9762 0.1792
C32_2 C 0.4529(2) 0.9629(2) 0.11001(14)
N5_2 N 0.12783(18) 0.70397(19) 0.05828(11)
H21_2 H 0.1672 0.7140 0.0334
O8_2 O 0.1147(2) 0.7367(3) 0.14178(12)
C24_2 C 0.0122(2) 0.6165(2) 0.99570(13)
H15_2 H 0.0573 0.6398 0.9693
C21_3 C 0.8771(3) 0.5374(3) 0.06905(15)
H13_3 H 0.8320 0.5083 0.0951
C22_3 C 0.9659(2) 0.5989(3) 0.08498(16)
H14_3 H 0.9798 0.6129 0.1206
N3_2 N 0.85067(15) 0.51601(17) 0.01853(10)
Zn3 Zn 0.71433(2) 0.42866(4) 0.0000
C25_3 C 0.9183(3) 0.5555(3) 0.98320(14)
H16_3 H 0.9026 0.5419 0.9477
Zn3_2 Zn 0.71433(2) 0.42866(4) 1.0000
C1_4 C 0.7410(3) 0.4140(2) 0.40343(15)
C2_4 C 0.7482(4) 0.4649(2) 0.45354(16)
C3_4 C 0.70894(34) 0.4179(3) 0.5000
H1_4 H 0.6765 0.3531 0.5000
C4_4 C 0.7978(5) 0.5644(3) 0.45427(18)
H2_4 H 0.8250 0.5978 0.4234
C5_5 C 0.6603(4) 0.1229(3) 0.40238(15)
H3_5 H 0.6763 0.1680 0.4284
C6_5 C 0.6330(4) 0.0341(2) 0.41831(16)
H4_5 H 0.6331 0.0202 0.4539
C9_5 C 0.6372(4) 0.0817(3) 0.31653(14)
H6_5 H 0.6393 0.0974 0.2810
C12_4 C 0.80475(44) 0.6095(4) 0.5000
N1_3 N 0.66534(23) 0.14933(15) 0.35186(10)
O1_4 O 0.70885(22) 0.32911(15) 0.40477(9)
O2_4 O 0.76816(25) 0.46073(18) 0.36083(11)
O4_4 O 0.85189(34) 0.7038(3) 0.5000
Zn1_4 Zn 0.71433(4) 0.28567(2) 0.3333
C18_4 C 0.6730(4) 0.4140(2) 0.59657(15)
C19_4 C 0.7167(4) 0.4649(2) 0.54646(16)
C20_4 C 0.7666(6) 0.5644(3) 0.54573(18)
H12_4 H 0.7728 0.5978 0.5766
N4_4 N 0.85067(29) 0.33466(23) 0.31480(10)
O5_2 O 0.62026(27) 0.32911(15) 0.59523(9)
O6_3 O 0.67089(27) 0.29115(22) 0.26189(9)
O7_4 O 0.69257(31) 0.46073(18) 0.63917(11)
Zn2_2 Zn 0.57134(4) 0.28567(4) 0.6667
H22_7 H 0.82184 0.726854 0.474942
C21_4 C 0.4626(3) 0.3397(4) 0.73572(15)
H13_4 H 0.4917 0.3237 0.7618
C22_4 C 0.4011(3) 0.3670(4) 0.75165(16)
H14_4 H 0.3871 0.3669 0.7873
C23_3 C 0.3596(2) 0.39521(28) 0.71307(14)
C24_3 C 0.3835(2) 0.3957(3) 0.66237(13)
H15_3 H 0.3602 0.4175 0.6360
C25_4 C 0.4445(3) 0.3628(4) 0.64987(14)
H16_4 H 0.4581 0.3607 0.6144
C26_3 C 0.2481(3) 0.4122(4) 0.76976(15)
C27_3 C 0.1799(2) 0.4447(3) 0.77172(15)
C28_3 C 0.1273(5) 0.4304(6) 0.8133(2)
H17_3 H 0.1372 0.4037 0.8432
C29_3 C 0.1705(3) 0.4944(4) 0.7356(2)
H18_3 H 0.2094 0.5137 0.7061
C30_3 C 0.1004(4) 0.5197(5) 0.7409(3)
H19_3 H 0.1006 0.5614 0.7163
C31_3 C 0.0580(5) 0.4532(6) 0.8147(2)
H20_3 H 0.0238 0.4408 0.8459
C32_3 C 0.0371(2) 0.4900(3) 0.77668(14)
N3_3 N 0.48399(17) 0.33466(23) 0.68520(10)
N5_3 N 0.29603(19) 0.42386(26) 0.72495(11)
H21_3 H 0.2860 0.4532 0.7001
O8_3 O 0.2633(3) 0.3780(4) 0.80845(12)
C1_5 C 0.5860(2) 0.3270(2) 0.07010(15)
C2_5 C 0.5351(2) 0.2833(3) 0.12021(16)
C3_5 C 0.5821(3) 0.29104(16) 0.1667
H1_5 H 0.6469 0.3234 0.1667
C4_5 C 0.4356(3) 0.2334(4) 0.12094(18)
H2_5 H 0.4022 0.2272 0.0901
C12_5 C 0.3905(4) 0.19525(19) 0.1667
O1_5 O 0.67089(15) 0.37974(16) 0.07144(9)
O2_5 O 0.53927(18) 0.30743(17) 0.02750(11)
O4_5 O 0.2962(3) 0.14809(15) 0.1667
C18_5 C 0.5860(2) 0.2590(3) 0.26323(15)
C19_5 C 0.5351(2) 0.2518(4) 0.21312(16)
C20_5 C 0.4356(3) 0.2022(5) 0.21239(18)
H12_5 H 0.4022 0.1750 0.2432
O7_5 O 0.53927(18) 0.23184(25) 0.30583(11)
H22_8 H 0.273146 0.0949858 0.141608
N4_5 N 0.66534(23) 0.51601(17) 0.98147(10)
O6_4 O 0.70885(22) 0.37974(16) 0.92856(9)
C1_6 C 0.6730(2) 0.2590(3) 0.73677(15)
C2_6 C 0.7167(3) 0.2518(4) 0.78688(16)
C3_6 C 0.70896(16) 0.29106(34) 0.8334
H1_6 H 0.6766 0.3235 0.8334
C4_6 C 0.7666(4) 0.2022(5) 0.78761(18)
H2_6 H 0.7728 0.1750 0.7568
C12_6 C 0.80475(19) 0.19525(44) 0.8334
O1_6 O 0.62026(16) 0.29115(22) 0.73811(9)
O2_6 O 0.69257(17) 0.23184(25) 0.69417(11)
O4_6 O 0.85191(15) 0.14811(34) 0.8334
C18_6 C 0.7410(3) 0.3270(4) 0.92990(15)
C19_6 C 0.7482(4) 0.2833(4) 0.87979(16)
C20_6 C 0.7978(5) 0.2334(6) 0.87906(18)
H12_6 H 0.8250 0.2272 0.9099
N4_6 N 0.48399(17) 0.14933(29) 0.64814(10)
O7_6 O 0.76816(25) 0.30743(31) 0.97250(11)
H22_9 H 0.905014 0.17816 0.808275
C21_5 C 0.4626(3) 0.1229(3) 0.59762(15)
H13_5 H 0.4917 0.1680 0.5716
C22_5 C 0.4011(3) 0.0341(2) 0.58169(16)
H14_5 H 0.3871 0.0202 0.5461
C25_5 C 0.4445(3) 0.0817(3) 0.68347(14)
H16_5 H 0.4581 0.0974 0.7190
C8_3 C 0.6043(3) 0.6165(2) 0.00430(13)
H5_3 H 0.5825 0.6398 0.0307
C9_6 C 0.6372(4) 0.5555(3) 0.01680(14)
H6_6 H 0.6393 0.5419 0.0523
C5_6 C 0.6603(4) 0.5374(3) 0.93095(15)
H3_6 H 0.6763 0.5083 0.9049
C6_6 C 0.6330(4) 0.5989(3) 0.91502(16)
H4_6 H 0.6331 0.6129 0.8794
C7_3 C 0.60479(28) 0.6404(2) 0.95360(14)
C10_3 C 0.5878(4) 0.7519(3) 0.89691(15)
C11_3 C 0.5553(3) 0.8201(2) 0.89495(15)
C13_3 C 0.5696(6) 0.8727(5) 0.8534(2)
H7_3 H 0.5963 0.8628 0.8235
C14_3 C 0.5056(4) 0.8295(3) 0.9311(2)
H8_3 H 0.4863 0.7906 0.9606
C15_3 C 0.4803(5) 0.8996(4) 0.9258(3)
H9_3 H 0.4386 0.8994 0.9504
C16_3 C 0.5468(6) 0.9420(5) 0.8520(2)
H10_3 H 0.5592 0.9762 0.8208
C17_3 C 0.5100(3) 0.9629(2) 0.88999(14)
N2_3 N 0.57614(26) 0.70397(19) 0.94172(11)
H11_3 H 0.5468 0.7140 0.9666
O3_3 O 0.6220(4) 0.7367(3) 0.85822(12)
H22_10 H 0.82184 0.0949858 0.858392
C21_6 C 0.8771(3) 0.3397(4) 0.26428(15)
H13_6 H 0.8320 0.3237 0.2382
C22_6 C 0.9659(2) 0.3670(4) 0.24835(16)
H14_6 H 0.9798 0.3669 0.2127
C25_6 C 0.9183(3) 0.3628(4) 0.35013(14)
H16_6 H 0.9026 0.3607 0.3856
H22_11 H 0.905014 0.726854 0.525058
H22_12 H 0.273146 0.17816 0.191725
C7_4 C 0.60479(28) 0.96439(19) 0.37973(14)
C8_4 C 0.6043(3) 0.9878(2) 0.32903(13)
H5_4 H 0.5825 0.9427 0.3026
C10_4 C 0.5878(4) 0.8359(3) 0.43642(15)
C11_4 C 0.5553(3) 0.7352(2) 0.43838(15)
C13_4 C 0.5696(6) 0.6969(4) 0.4799(2)
H7_4 H 0.5963 0.7335 0.5098
C14_4 C 0.5056(4) 0.6761(3) 0.4022(2)
H8_4 H 0.4863 0.6957 0.3727
C15_4 C 0.4803(5) 0.5807(3) 0.4075(3)
H9_4 H 0.4386 0.5392 0.3829
C16_4 C 0.5468(6) 0.6048(4) 0.4813(2)
H10_4 H 0.5592 0.5830 0.5125
C17_4 C 0.5100(3) 0.5471(2) 0.44334(14)
N2_4 N 0.57614(26) 0.87217(18) 0.39161(11)
H11_4 H 0.5468 0.8328 0.3667
O3_4 O 0.6220(4) 0.8853(2) 0.47511(12)
C23_4 C 0.39521(28) 0.03561(19) 0.37973(14)
C24_4 C 0.3957(3) 0.0122(2) 0.32903(13)
H15_4 H 0.4175 0.0573 0.3026
C26_4 C 0.4122(4) 0.1641(3) 0.43642(15)
C27_4 C 0.4447(3) 0.2648(2) 0.43838(15)
C28_4 C 0.4304(6) 0.3031(4) 0.4799(2)
H17_4 H 0.4037 0.2665 0.5098
C29_4 C 0.4944(4) 0.3239(3) 0.4022(2)
H18_4 H 0.5137 0.3043 0.3727
C30_4 C 0.5197(5) 0.4193(3) 0.4075(3)
H19_4 H 0.5614 0.4608 0.3829
C31_4 C 0.4532(6) 0.3952(4) 0.4813(2)
H20_4 H 0.4408 0.4170 0.5125
C32_4 C 0.4900(3) 0.4529(2) 0.44334(14)
N5_4 N 0.42386(26) 0.12783(18) 0.39161(11)
H21_4 H 0.4532 0.1672 0.3667
O8_4 O 0.3780(4) 0.1147(2) 0.47511(12)
C23_5 C 0.3596(2) 0.96439(19) 0.62027(14)
C24_5 C 0.3835(2) 0.9878(2) 0.67097(13)
H15_5 H 0.3602 0.9427 0.6974
C26_5 C 0.2481(3) 0.8359(3) 0.56358(15)
C27_5 C 0.1799(2) 0.7352(2) 0.56162(15)
C28_5 C 0.1273(5) 0.6969(4) 0.5201(2)
H17_5 H 0.1372 0.7335 0.4902
C29_5 C 0.1705(3) 0.6761(3) 0.5978(2)
H18_5 H 0.2094 0.6957 0.6273
C30_5 C 0.1004(4) 0.5807(3) 0.5925(3)
H19_5 H 0.1006 0.5392 0.6171
C31_5 C 0.0580(5) 0.6048(4) 0.5187(2)
H20_5 H 0.0238 0.5830 0.4875
C32_5 C 0.0371(2) 0.5471(2) 0.55666(14)
N5_5 N 0.29603(19) 0.87217(18) 0.60839(11)
H21_5 H 0.2860 0.8328 0.6333
O8_5 O 0.2633(3) 0.8853(2) 0.52489(12)
C7_5 C 0.6404(2) 0.03561(19) 0.62027(14)
C8_5 C 0.6165(2) 0.0122(2) 0.67097(13)
H5_5 H 0.6398 0.0573 0.6974
C10_5 C 0.7519(3) 0.1641(3) 0.56358(15)
C11_5 C 0.8201(2) 0.2648(2) 0.56162(15)
C13_5 C 0.8727(5) 0.3031(4) 0.5201(2)
H7_5 H 0.8628 0.2665 0.4902
C14_5 C 0.8295(3) 0.3239(3) 0.5978(2)
H8_5 H 0.7906 0.3043 0.6273
C15_5 C 0.8996(4) 0.4193(3) 0.5925(3)
H9_5 H 0.8994 0.4608 0.6171
C16_5 C 0.9420(5) 0.3952(4) 0.5187(2)
H10_5 H 0.9762 0.4170 0.4875
C17_5 C 0.9629(2) 0.4529(2) 0.55666(14)
N2_5 N 0.70397(19) 0.12783(18) 0.60839(11)
H11_5 H 0.7140 0.1672 0.6333
O3_5 O 0.7367(3) 0.1147(2) 0.52489(12)
C7_6 C 0.96439(19) 0.60479(28) 0.28693(14)
C8_6 C 0.9878(2) 0.6043(3) 0.33763(13)
H5_6 H 0.9427 0.5825 0.3640
C10_6 C 0.8359(3) 0.5878(4) 0.23024(15)
C11_6 C 0.7352(2) 0.5553(3) 0.22828(15)
C13_6 C 0.6969(4) 0.5696(6) 0.1867(2)
H7_6 H 0.7335 0.5963 0.1568
C14_6 C 0.6761(3) 0.5056(4) 0.2644(2)
H8_6 H 0.6957 0.4863 0.2939
C15_6 C 0.5807(3) 0.4803(5) 0.2591(3)
H9_6 H 0.5392 0.4386 0.2837
C16_6 C 0.6048(4) 0.5468(6) 0.1853(2)
H10_6 H 0.5830 0.5592 0.1541
C17_6 C 0.5471(2) 0.5100(3) 0.22332(14)
N2_6 N 0.87217(18) 0.57614(26) 0.27505(11)
H11_6 H 0.8328 0.5468 0.2999
O3_6 O 0.8853(2) 0.6220(4) 0.19155(12)
C23_6 C 0.03561(19) 0.39521(28) 0.28693(14)
C24_6 C 0.0122(2) 0.3957(3) 0.33763(13)
H15_6 H 0.0573 0.4175 0.3640
C26_6 C 0.1641(3) 0.4122(4) 0.23024(15)
C27_6 C 0.2648(2) 0.4447(3) 0.22828(15)
C28_6 C 0.3031(4) 0.4304(6) 0.1867(2)
H17_6 H 0.2665 0.4037 0.1568
C29_6 C 0.3239(3) 0.4944(4) 0.2644(2)
H18_6 H 0.3043 0.5137 0.2939
C30_6 C 0.4193(3) 0.5197(5) 0.2591(3)
H19_6 H 0.4608 0.5614 0.2837
C31_6 C 0.3952(4) 0.4532(6) 0.1853(2)
H20_6 H 0.4170 0.4408 0.1541
C32_6 C 0.4529(2) 0.4900(3) 0.22332(14)
N5_6 N 0.12783(18) 0.42386(26) 0.27505(11)
H21_6 H 0.1672 0.4532 0.2999
O8_6 O 0.1147(2) 0.3780(4) 0.19155(12)
loop_
_geom_bond_atom_site_label_1
_geom_bond_atom_site_label_2
_geom_bond_site_symmetry_1
_geom_bond_site_symmetry_2
C1 C2 1_555 1_555
C2 C3 1_555 1_555
C3 H1 1_555 1_555
C4 C2 1_555 1_555
H2 C4 1_555 1_555
C5 H3 1_555 1_555
C6 C5 1_555 1_555
H4 C6 1_555 1_555
C12 C4 1_555 1_555
N1 C5 1_555 1_555
O1 C1 1_555 1_555
O2 C1 1_555 1_555
O4 C12 1_555 1_555
Zn1 N1 1_555 1_555
C18 C19 1_555 1_555
C19 C3 1_555 1_555
C20 C12 1_555 1_555
H12 C20 1_555 1_555
O5 C18 1_555 1_555
O7 C18 1_555 1_555
Zn2 O5 1_555 1_555
O1 Zn1 1_555 1_555
C19 C20 1_555 1_555
O4 H22 1_555 1_555
H6 C9 1_555 1_555
N4 Zn1_2 1_555 1_555
O6 Zn1_2 1_555 1_555
C21 H13 1_555 1_555
C22 C21 1_555 1_555
H14 C22 1_555 1_555
H16 C25 1_555 1_555
N3 C21 1_555 1_555
Zn2 N3 1_555 1_555
C25 N3 1_555 1_555
C1_2 C2_2 1_555 1_555
C2_2 C3_2 1_555 1_555
C3_2 H1_2 1_555 1_555
C4_2 C2_2 1_555 1_555
H2_2 C4_2 1_555 1_555
C5_2 H3_2 1_555 1_555
C6_2 C5_2 1_555 1_555
H4_2 C6_2 1_555 1_555
C7 C6_2 1_555 1_555
C8 C7 1_555 1_555
H5 C8 1_555 1_555
C9_2 C8 1_555 1_555
H6_2 C9_2 1_555 1_555
C10 C11 1_555 1_555
C11 C13 1_555 1_555
C12_2 C4_2 1_555 1_555
C13 H7 1_555 1_555
C14 C11 1_555 1_555
H8 C14 1_555 1_555
C15 C14 1_555 1_555
H9 C15 1_555 1_555
C16 C13 1_555 1_555
H10 C16 1_555 1_555
C17 C15 1_555 1_555
N1_2 C5_2 1_555 1_555
N2 C7 1_555 1_555
H11 N2 1_555 1_555
O1_2 C1_2 1_555 1_555
O2_2 C1_2 1_555 1_555
O3 C10 1_555 1_555
O4_2 C12_2 1_555 1_555
Zn1_3 N1_2 1_555 1_555
C18_2 C19_2 1_555 1_555
C19_2 C3_2 1_555 1_555
C20_2 C12_2 1_555 1_555
H12_2 C20_2 1_555 1_555
N4_2 Zn1_3 1_555 1_555
O6 C18_2 1_555 1_555
O6_2 Zn1_3 1_555 1_555
O7_2 C18_2 1_555 1_555
C9_2 N1_2 1_555 1_555
C10 N2 1_555 1_555
C16 C17 1_555 1_555
O1_2 Zn1_3 1_555 1_555
C19_2 C20_2 1_555 1_555
O4_2 H22_2 1_555 1_555
C1_3 C2_3 1_555 1_555
C2_3 C3_3 1_555 1_555
C3_3 H1_3 1_555 1_555
C4_3 C2_3 1_555 1_555
H2_3 C4_3 1_555 1_555
C12_3 C4_3 1_555 1_555
O1_3 C1_3 1_555 1_555
O2_3 C1_3 1_555 1_555
O4_3 C12_3 1_555 1_555
C18_3 C19_3 1_555 1_555
C19_3 C3_3 1_555 1_555
C20_3 C12_3 1_555 1_555
H12_3 C20_3 1_555 1_555
N4_3 Zn2 1_555 1_555
O6_2 C18_3 1_555 1_555
O7_3 C18_3 1_555 1_555
O1_3 Zn2 1_555 1_555
C19_3 C20_3 1_555 1_555
O4_3 H22_3 1_555 1_555
C5_3 H3_3 1_555 1_555
C6_3 C5_3 1_555 1_555
H4_3 C6_3 1_555 1_555
H6_3 C9_3 1_555 1_555
N4_2 C5_3 1_555 1_555
C9_3 N4_2 1_555 1_555
O4_3 H22_4 1_555 1_555
H15 C24 1_555 1_555
C25_2 C24 1_555 1_555
H16_2 C25_2 1_555 1_555
C21_2 H13_2 1_555 1_555
C22_2 C21_2 1_555 1_555
H14_2 C22_2 1_555 1_555
C23 C22_2 1_555 1_555
C26 C27 1_555 1_555
C27 C28 1_555 1_555
C28 H17 1_555 1_555
C29 C27 1_555 1_555
H18 C29 1_555 1_555
C30 C29 1_555 1_555
H19 C30 1_555 1_555
C31 C28 1_555 1_555
H20 C31 1_555 1_555
N4 C21_2 1_555 1_555
N5 C23 1_555 1_555
H21 N5 1_555 1_555
O8 C26 1_555 1_555
C26 N5 1_555 1_555
C30 C32 1_555 1_555
C31 C32 1_555 1_555
C5_4 H3_4 1_555 1_555
C6_4 C5_4 1_555 1_555
H4_4 C6_4 1_555 1_555
H6_4 C9_4 1_555 1_555
N4_3 C5_4 1_555 1_555
C9_4 N4_3 1_555 1_555
O4 H22_5 1_555 1_555
O4_2 H22_6 1_555 1_555
C10_2 C11_2 1_555 1_555
C11_2 C13_2 1_555 1_555
C13_2 H7_2 1_555 1_555
C14_2 C11_2 1_555 1_555
H8_2 C14_2 1_555 1_555
C15_2 C14_2 1_555 1_555
H9_2 C15_2 1_555 1_555
C16_2 C13_2 1_555 1_555
H10_2 C16_2 1_555 1_555
C17_2 C15_2 1_555 1_555
N2_2 C7_2 1_555 1_555
H11_2 N2_2 1_555 1_555
O3_2 C10_2 1_555 1_555
C10_2 N2_2 1_555 1_555
C16_2 C17_2 1_555 1_555
H5_2 C8_2 1_555 1_555
C26_2 C27_2 1_555 1_555
C27_2 C28_2 1_555 1_555
C28_2 H17_2 1_555 1_555
C29_2 C27_2 1_555 1_555
H18_2 C29_2 1_555 1_555
C30_2 C29_2 1_555 1_555
H19_2 C30_2 1_555 1_555
C31_2 C28_2 1_555 1_555
H20_2 C31_2 1_555 1_555
N5_2 C23_2 1_555 1_555
H21_2 N5_2 1_555 1_555
O8_2 C26_2 1_555 1_555
C26_2 N5_2 1_555 1_555
C30_2 C32_2 1_555 1_555
C31_2 C32_2 1_555 1_555
H15_2 C24_2 1_555 1_555
C21_3 H13_3 1_555 1_555
C22_3 C21_3 1_555 1_555
H14_3 C22_3 1_555 1_555
N3_2 C21_3 1_555 1_555
Zn3 N3_2 1_555 1_555
H16_3 C25_3 1_555 1_555
C1_4 C2_4 1_555 1_555
C2_4 C3_4 1_555 1_555
C3_4 H1_4 1_555 1_555
C4_4 C2_4 1_555 1_555
H2_4 C4_4 1_555 1_555
C5_5 H3_5 1_555 1_555
C6_5 C5_5 1_555 1_555
H4_5 C6_5 1_555 1_555
H6_5 C9_5 1_555 1_555
C12_4 C4_4 1_555 1_555
N1_3 C5_5 1_555 1_555
O1_4 C1_4 1_555 1_555
O2_4 C1_4 1_555 1_555
O4_4 C12_4 1_555 1_555
Zn1_4 N1_3 1_555 1_555
C18_4 C19_4 1_555 1_555
C19_4 C3_4 1_555 1_555
C20_4 C12_4 1_555 1_555
H12_4 C20_4 1_555 1_555
N4_4 Zn1_4 1_555 1_555
O5_2 C18_4 1_555 1_555
O6_3 Zn1_4 1_555 1_555
O7_4 C18_4 1_555 1_555
Zn2_2 O5_2 1_555 1_555
C9_5 N1_3 1_555 1_555
O1_4 Zn1_4 1_555 1_555
C19_4 C20_4 1_555 1_555
O4_4 H22_7 1_555 1_555
C21_4 H13_4 1_555 1_555
C22_4 C21_4 1_555 1_555
H14_4 C22_4 1_555 1_555
C23_3 C22_4 1_555 1_555
C24_3 C23_3 1_555 1_555
H15_3 C24_3 1_555 1_555
C25_4 C24_3 1_555 1_555
H16_4 C25_4 1_555 1_555
C26_3 C27_3 1_555 1_555
C27_3 C28_3 1_555 1_555
C28_3 H17_3 1_555 1_555
C29_3 C27_3 1_555 1_555
H18_3 C29_3 1_555 1_555
C30_3 C29_3 1_555 1_555
H19_3 C30_3 1_555 1_555
C31_3 C28_3 1_555 1_555
H20_3 C31_3 1_555 1_555
N3_3 C21_4 1_555 1_555
N5_3 C23_3 1_555 1_555
H21_3 N5_3 1_555 1_555
O8_3 C26_3 1_555 1_555
Zn2_2 N3_3 1_555 1_555
C25_4 N3_3 1_555 1_555
C26_3 N5_3 1_555 1_555
C30_3 C32_3 1_555 1_555
C31_3 C32_3 1_555 1_555
C1_5 C2_5 1_555 1_555
C2_5 C3_5 1_555 1_555
C3_5 H1_5 1_555 1_555
C4_5 C2_5 1_555 1_555
H2_5 C4_5 1_555 1_555
C12_5 C4_5 1_555 1_555
O1_5 C1_5 1_555 1_555
O2_5 C1_5 1_555 1_555
O4_5 C12_5 1_555 1_555
C18_5 C19_5 1_555 1_555
C19_5 C3_5 1_555 1_555
C20_5 C12_5 1_555 1_555
H12_5 C20_5 1_555 1_555
O6_3 C18_5 1_555 1_555
O7_5 C18_5 1_555 1_555
O1_5 Zn3 1_555 1_555
C19_5 C20_5 1_555 1_555
O4_5 H22_8 1_555 1_555
N4_5 Zn3_2 1_555 1_555
O6_4 Zn3_2 1_555 1_555
C1_6 C2_6 1_555 1_555
C2_6 C3_6 1_555 1_555
C3_6 H1_6 1_555 1_555
C4_6 C2_6 1_555 1_555
H2_6 C4_6 1_555 1_555
C12_6 C4_6 1_555 1_555
O1_6 C1_6 1_555 1_555
O2_6 C1_6 1_555 1_555
O4_6 C12_6 1_555 1_555
C18_6 C19_6 1_555 1_555
C19_6 C3_6 1_555 1_555
C20_6 C12_6 1_555 1_555
H12_6 C20_6 1_555 1_555
N4_6 Zn2_2 1_555 1_555
O6_4 C18_6 1_555 1_555
O7_6 C18_6 1_555 1_555
O1_6 Zn2_2 1_555 1_555
C19_6 C20_6 1_555 1_555
O4_6 H22_9 1_555 1_555
C21_5 H13_5 1_555 1_555
C22_5 C21_5 1_555 1_555
H14_5 C22_5 1_555 1_555
H16_5 C25_5 1_555 1_555
N4_6 C21_5 1_555 1_555
C25_5 N4_6 1_555 1_555
H5_3 C8_3 1_555 1_555
C9_6 C8_3 1_555 1_555
H6_6 C9_6 1_555 1_555
C5_6 H3_6 1_555 1_555
C6_6 C5_6 1_555 1_555
H4_6 C6_6 1_555 1_555
C7_3 C6_6 1_555 1_555
C10_3 C11_3 1_555 1_555
C11_3 C13_3 1_555 1_555
C13_3 H7_3 1_555 1_555
C14_3 C11_3 1_555 1_555
H8_3 C14_3 1_555 1_555
C15_3 C14_3 1_555 1_555
H9_3 C15_3 1_555 1_555
C16_3 C13_3 1_555 1_555
H10_3 C16_3 1_555 1_555
C17_3 C15_3 1_555 1_555
N4_5 C5_6 1_555 1_555
N2_3 C7_3 1_555 1_555
H11_3 N2_3 1_555 1_555
O3_3 C10_3 1_555 1_555
C10_3 N2_3 1_555 1_555
C16_3 C17_3 1_555 1_555
O4_6 H22_10 1_555 1_555
C21_6 H13_6 1_555 1_555
C22_6 C21_6 1_555 1_555
H14_6 C22_6 1_555 1_555
H16_6 C25_6 1_555 1_555
N4_4 C21_6 1_555 1_555
C25_6 N4_4 1_555 1_555
O4_4 H22_11 1_555 1_555
O4_5 H22_12 1_555 1_555
C8_4 C7_4 1_555 1_555
H5_4 C8_4 1_555 1_555
C10_4 C11_4 1_555 1_555
C11_4 C13_4 1_555 1_555
C13_4 H7_4 1_555 1_555
C14_4 C11_4 1_555 1_555
H8_4 C14_4 1_555 1_555
C15_4 C14_4 1_555 1_555
H9_4 C15_4 1_555 1_555
C16_4 C13_4 1_555 1_555
H10_4 C16_4 1_555 1_555
C17_4 C15_4 1_555 1_555
N2_4 C7_4 1_555 1_555
H11_4 N2_4 1_555 1_555
O3_4 C10_4 1_555 1_555
C24_4 C23_4 1_555 1_555
H15_4 C24_4 1_555 1_555
C26_4 C27_4 1_555 1_555
C27_4 C28_4 1_555 1_555
C28_4 H17_4 1_555 1_555
C29_4 C27_4 1_555 1_555
H18_4 C29_4 1_555 1_555
C30_4 C29_4 1_555 1_555
H19_4 C30_4 1_555 1_555
C31_4 C28_4 1_555 1_555
H20_4 C31_4 1_555 1_555
C32_4 C17_4 1_555 1_555
N5_4 C23_4 1_555 1_555
H21_4 N5_4 1_555 1_555
O8_4 C26_4 1_555 1_555
C10_4 N2_4 1_555 1_555
C16_4 C17_4 1_555 1_555
C26_4 N5_4 1_555 1_555
C30_4 C32_4 1_555 1_555
C31_4 C32_4 1_555 1_555
C24_5 C23_5 1_555 1_555
H15_5 C24_5 1_555 1_555
C26_5 C27_5 1_555 1_555
C27_5 C28_5 1_555 1_555
C28_5 H17_5 1_555 1_555
C29_5 C27_5 1_555 1_555
H18_5 C29_5 1_555 1_555
C30_5 C29_5 1_555 1_555
H19_5 C30_5 1_555 1_555
C31_5 C28_5 1_555 1_555
H20_5 C31_5 1_555 1_555
N5_5 C23_5 1_555 1_555
H21_5 N5_5 1_555 1_555
O8_5 C26_5 1_555 1_555
C26_5 N5_5 1_555 1_555
C30_5 C32_5 1_555 1_555
C31_5 C32_5 1_555 1_555
C8_5 C7_5 1_555 1_555
H5_5 C8_5 1_555 1_555
C10_5 C11_5 1_555 1_555
C11_5 C13_5 1_555 1_555
C13_5 H7_5 1_555 1_555
C14_5 C11_5 1_555 1_555
H8_5 C14_5 1_555 1_555
C15_5 C14_5 1_555 1_555
H9_5 C15_5 1_555 1_555
C16_5 C13_5 1_555 1_555
H10_5 C16_5 1_555 1_555
C17_5 C15_5 1_555 1_555
N2_5 C7_5 1_555 1_555
H11_5 N2_5 1_555 1_555
O3_5 C10_5 1_555 1_555
C10_5 N2_5 1_555 1_555
C16_5 C17_5 1_555 1_555
C8_6 C7_6 1_555 1_555
H5_6 C8_6 1_555 1_555
C10_6 C11_6 1_555 1_555
C11_6 C13_6 1_555 1_555
C13_6 H7_6 1_555 1_555
C14_6 C11_6 1_555 1_555
H8_6 C14_6 1_555 1_555
C15_6 C14_6 1_555 1_555
H9_6 C15_6 1_555 1_555
C16_6 C13_6 1_555 1_555
H10_6 C16_6 1_555 1_555
C17_6 C15_6 1_555 1_555
N2_6 C7_6 1_555 1_555
H11_6 N2_6 1_555 1_555
O3_6 C10_6 1_555 1_555
C24_6 C23_6 1_555 1_555
H15_6 C24_6 1_555 1_555
C26_6 C27_6 1_555 1_555
C27_6 C28_6 1_555 1_555
C28_6 H17_6 1_555 1_555
C29_6 C27_6 1_555 1_555
H18_6 C29_6 1_555 1_555
C30_6 C29_6 1_555 1_555
H19_6 C30_6 1_555 1_555
C31_6 C28_6 1_555 1_555
H20_6 C31_6 1_555 1_555
C32_6 C17_6 1_555 1_555
N5_6 C23_6 1_555 1_555
H21_6 N5_6 1_555 1_555
O8_6 C26_6 1_555 1_555
C10_6 N2_6 1_555 1_555
C16_6 C17_6 1_555 1_555
C26_6 N5_6 1_555 1_555
C30_6 C32_6 1_555 1_555
C31_6 C32_6 1_555 1_555

#END
