
###############################################################################
#
# This file contains modified crystal structure data generated from the
# MOF subset of the Cambridge Structural Database (CSD) v543 
# hosted by the Cambridge Crystallographic Data Centre (CCDC).
#
# This work is licensed under the Creative Commons
# Attribution-NonCommercial-ShareAlike 4.0 International License.
# To view a copy of this license, visit
# http://creativecommons.org/licenses/by-nc-sa/4.0/
# or send a letter to
# Creative Commons, PO Box 1866, Mountain View, CA 94042, USA.
#
# CIF created using the CSD Python API on 29 September 2022
# The structure has been converted into the P1 space group
# The structure has a 3D framework
# The original CSD entry RAYKEJ is in the hexagonal crystal system
# The original CSD entry RAYKEJ is in a Sohncke space group
# The framework has been calculated to contain at least 10.0% void space
# The void calculation uses a probe of radius 1.32A, grid spacing 0.4
#
###############################################################################

data_RAYKEJ
_chemical_formula_moiety         '(C196 H136 N24 O36 Zn6)n'
_symmetry_cell_setting           triclinic
_symmetry_space_group_name_H-M   'P 1'
_symmetry_Int_Tables_number      1
_space_group_name_Hall           'P 1'
loop_
_symmetry_equiv_pos_site_id
_symmetry_equiv_pos_as_xyz
1 x,y,z
_cell_length_a                   16.5528(2)
_cell_length_b                   16.5528(2)
_cell_length_c                   25.5559(8)
_cell_angle_alpha                90
_cell_angle_beta                 90
_cell_angle_gamma                120
_cell_volume                     6064.08
loop_
_atom_site_label
_atom_site_type_symbol
_atom_site_fract_x
_atom_site_fract_y
_atom_site_fract_z
Zn1 Zn 0.714742(14) 0.285259(14) 0.1667
O1 O 0.70854(13) 0.32692(12) 0.09491(7)
O2 O 0.76452(14) 0.45786(15) 0.13801(8)
C1 C 0.73955(18) 0.41345(19) 0.09639(10)
C2 C 0.74690(18) 0.46322(17) 0.04607(10)
C3 C 0.70774(11) 0.4155(2) 0.0000
H1 H 0.6753 0.3506 0.0000
C4 C 0.7943(3) 0.5592(2) 0.04587(14)
H2 H 0.8201 0.5919 0.0767
C5 C 0.80348(16) 0.6070(3) 0.0000
H3 H 0.8359 0.6718 0.0000
N1 N 0.66358(14) 0.14701(13) 0.14816(8)
C6 C 0.6541(2) 0.1209(2) 0.09865(11)
H5 H 0.6694 0.1663 0.0731
C7 C 0.6231(3) 0.0313(2) 0.08261(11)
H6 H 0.6200 0.0178 0.0471
C10 C 0.6373(3) 0.0798(2) 0.18327(11)
H8 H 0.6424 0.0957 0.2185
O5 O 0.67308(12) 0.29146(13) 0.23842(7)
N4 N 0.85299(13) 0.33642(14) 0.18517(8)
C3_2 C 0.70774(11) 0.4155(2) 1.0000
H1_2 H 0.6753 0.3506 1.0000
C5_2 C 0.80348(16) 0.6070(3) 1.0000
H3_2 H 0.8359 0.6718 1.0000
Zn2 Zn 0.570517(20) 0.285259(14) 0.8333
O4 O 0.61838(18) 0.32692(12) 0.90509(7)
O6 O 0.69334(21) 0.45786(15) 0.86199(8)
C18 C 0.67390(26) 0.41345(19) 0.90361(10)
C19 C 0.71632(25) 0.46322(17) 0.95393(10)
C20 C 0.7649(4) 0.5592(2) 0.95413(14)
H13 H 0.7718 0.5919 0.9233
Zn1_2 Zn 0.714741(14) 0.429483(20) 0.5000
O1_2 O 0.67308(12) 0.38162(18) 0.42824(7)
O2_2 O 0.54214(15) 0.30666(21) 0.47134(8)
C1_2 C 0.58655(19) 0.32610(26) 0.42972(10)
C2_2 C 0.53678(17) 0.28368(25) 0.37940(10)
C3_3 C 0.5845(2) 0.29224(23) 0.3333
H1_3 H 0.6494 0.3247 0.3333
C4_2 C 0.4408(2) 0.2351(4) 0.37920(14)
H2_2 H 0.4081 0.2282 0.4100
C5_3 C 0.3930(3) 0.19648(34) 0.3333
H3_3 H 0.3282 0.1641 0.3333
N1_2 N 0.85299(13) 0.51657(19) 0.48149(8)
C6_2 C 0.8791(2) 0.5332(3) 0.43198(11)
H5_2 H 0.8337 0.5031 0.4064
C7_2 C 0.9687(2) 0.5918(4) 0.41594(11)
H6_2 H 0.9822 0.6022 0.3804
C10_2 C 0.9202(2) 0.5575(4) 0.51660(11)
H8_2 H 0.9043 0.5467 0.5518
O5_2 O 0.70854(13) 0.38162(18) 0.57176(7)
O6_2 O 0.54214(15) 0.23548(26) 0.19532(8)
C18_2 C 0.58655(19) 0.26045(32) 0.23694(10)
C19_2 C 0.53678(17) 0.25310(30) 0.28726(10)
C20_2 C 0.4408(2) 0.2057(4) 0.28746(14)
H13_2 H 0.4081 0.1799 0.2566
N4_2 N 0.66358(14) 0.51657(19) 0.51851(8)
O1_3 O 0.61838(18) 0.29146(13) 0.76158(7)
O2_3 O 0.69334(21) 0.23548(14) 0.80468(8)
C1_3 C 0.67390(26) 0.26045(18) 0.76306(10)
C2_3 C 0.71632(25) 0.25310(18) 0.71274(10)
C3_4 C 0.70776(23) 0.29226(11) 0.6667
H1_4 H 0.6753 0.3247 0.6667
C4_3 C 0.7649(4) 0.2057(3) 0.71254(14)
H2_3 H 0.7718 0.1799 0.7434
C5_4 C 0.80352(34) 0.19652(16) 0.6667
H3_4 H 0.8359 0.1641 0.6667
O3 O 0.28253(34) 0.4028(3) 0.68843(9)
N1_3 N 0.48343(19) 0.33642(14) 0.81483(8)
N2 N 0.30292(22) 0.43475(17) 0.77424(8)
H4 H 0.2889 0.4598 0.7996
C6_3 C 0.4668(3) 0.3459(2) 0.76532(11)
H5_3 H 0.4969 0.3306 0.7398
C7_3 C 0.4082(4) 0.3769(3) 0.74928(11)
H6_3 H 0.3978 0.3800 0.7138
C8 C 0.36427(25) 0.40383(19) 0.78591(10)
C9 C 0.38434(28) 0.3975(2) 0.83714(11)
H7 H 0.3588 0.4166 0.8635
C10_3 C 0.4425(4) 0.3627(3) 0.84994(11)
H8_3 H 0.4533 0.3576 0.8852
C11 C 0.26219(36) 0.4303(3) 0.72758(11)
C12 C 0.18929(28) 0.4576(2) 0.72579(11)
C13 C 0.1400(5) 0.4433(4) 0.68159(15)
H9 H 0.1576 0.4234 0.6519
C14 C 0.0637(4) 0.4572(4) 0.67847(15)
H10 H 0.0290 0.4429 0.6478
C15 C 0.04039(27) 0.4919(2) 0.72053(11)
C16 C 0.0983(4) 0.5193(3) 0.76135(14)
H11 H 0.0889 0.5510 0.7886
C17 C 0.1729(4) 0.5017(3) 0.76463(14)
H12 H 0.2111 0.5208 0.7941
O6_3 O 0.76452(26) 0.30666(21) 0.52866(8)
C18_3 C 0.73955(32) 0.32610(26) 0.57028(10)
C19_3 C 0.74690(30) 0.28368(25) 0.62060(10)
C20_3 C 0.7943(4) 0.2351(4) 0.62080(14)
H13_3 H 0.8201 0.2282 0.5900
N4_3 N 0.48343(19) 0.14701(13) 0.85184(8)
C21 C 0.8791(2) 0.3459(2) 0.23468(11)
H15 H 0.8337 0.3306 0.2602
C22 C 0.9687(2) 0.3769(3) 0.25072(11)
H16 H 0.9822 0.3800 0.2862
C25 C 0.9202(2) 0.3627(3) 0.15006(11)
H18 H 0.9043 0.3576 0.1148
C21_2 C 0.4668(3) 0.1209(2) 0.90135(11)
H15_2 H 0.4969 0.1663 0.9269
C22_2 C 0.4082(4) 0.0313(2) 0.91739(11)
H16_2 H 0.3978 0.0178 0.9529
C25_2 C 0.4425(4) 0.0798(2) 0.81673(11)
H18_2 H 0.4533 0.0957 0.7815
O7 O 0.5972(3) 0.71747(34) 0.64491(9)
N5 N 0.56525(17) 0.69708(22) 0.55910(8)
H14 H 0.5402 0.7111 0.5338
C21_3 C 0.6541(2) 0.5332(3) 0.56802(11)
H15_3 H 0.6694 0.5031 0.5936
C22_3 C 0.6231(3) 0.5918(4) 0.58406(11)
H16_3 H 0.6200 0.6022 0.6196
C23 C 0.59617(19) 0.63573(25) 0.54743(10)
C24 C 0.6025(2) 0.61566(28) 0.49620(11)
H17 H 0.5834 0.6412 0.4699
C25_3 C 0.6373(3) 0.5575(4) 0.48340(11)
H18_3 H 0.6424 0.5467 0.4482
C26 C 0.5697(3) 0.73781(36) 0.60576(11)
C27 C 0.5424(2) 0.81071(28) 0.60755(11)
C28 C 0.5567(4) 0.8600(5) 0.65175(15)
H19 H 0.5766 0.8424 0.6815
C29 C 0.5428(4) 0.9363(4) 0.65487(15)
H20 H 0.5571 0.9710 0.6856
C30 C 0.5081(2) 0.95961(27) 0.61281(11)
C31 C 0.4807(3) 0.9017(4) 0.57199(14)
H21 H 0.4490 0.9111 0.5448
C32 C 0.4983(3) 0.8271(4) 0.56871(14)
H22 H 0.4792 0.7889 0.5393
O3_2 O 0.5972(3) 0.87973(17) 0.02176(9)
N2_2 N 0.56525(17) 0.86817(14) 0.10757(8)
H4_2 H 0.5402 0.8291 0.1329
C8_2 C 0.59617(19) 0.96044(17) 0.11924(10)
C9_2 C 0.6025(2) 0.98684(19) 0.17047(11)
H7_2 H 0.5834 0.9422 0.1968
C11_2 C 0.5697(3) 0.83189(19) 0.06091(11)
C12_2 C 0.5424(2) 0.73169(19) 0.05912(11)
C13_2 C 0.5567(4) 0.6967(3) 0.01492(15)
C14_2 C 0.5428(4) 0.6065(2) 0.01180(15)
C15_2 C 0.5081(2) 0.54849(18) 0.05386(11)
C16_2 C 0.4807(3) 0.5790(2) 0.09468(14)
H11_2 H 0.4490 0.5379 0.1219
C17_2 C 0.4983(3) 0.6712(2) 0.09796(14)
H12_2 H 0.4792 0.6903 0.1274
O7_2 O 0.4028(3) 0.12027(17) 0.02176(9)
N5_2 N 0.43475(17) 0.13183(14) 0.10757(8)
H14_2 H 0.4598 0.1709 0.1329
C23_2 C 0.40383(19) 0.03956(17) 0.11924(10)
C24_2 C 0.3975(2) 0.01316(19) 0.17047(11)
H17_2 H 0.4166 0.0578 0.1968
C26_2 C 0.4303(3) 0.16811(19) 0.06091(11)
C27_2 C 0.4576(2) 0.26831(19) 0.05912(11)
C28_2 C 0.4433(4) 0.3033(3) 0.01492(15)
C29_2 C 0.4572(4) 0.3935(2) 0.01180(15)
C30_2 C 0.4919(2) 0.45151(18) 0.05386(11)
C31_2 C 0.5193(3) 0.4210(2) 0.09468(14)
H21_2 H 0.5510 0.4621 0.1219
C32_2 C 0.5017(3) 0.3288(2) 0.09796(14)
H22_2 H 0.5208 0.3097 0.1274
H9_2 H 0.5766 0.7342 0.9852
H10_2 H 0.5571 0.5861 0.9811
H19_2 H 0.4234 0.2658 0.9852
H20_2 H 0.4429 0.4139 0.9811
Zn3 Zn 0.285258(14) 0.714741(14) 0.1667
N3 N 0.33642(14) 0.85299(13) 0.14816(8)
C21_4 C 0.3459(2) 0.8791(2) 0.09865(11)
H15_4 H 0.3306 0.8337 0.0731
C22_4 C 0.3769(3) 0.9687(2) 0.08261(11)
H16_4 H 0.3800 0.9822 0.0471
C25_4 C 0.3627(3) 0.9202(2) 0.18327(11)
H18_4 H 0.3576 0.9043 0.2185
Zn3_2 Zn 0.285259(14) 0.570517(20) 0.5000
N3_2 N 0.14701(13) 0.48343(19) 0.48149(8)
C21_5 C 0.1209(2) 0.4668(3) 0.43198(11)
H15_5 H 0.1663 0.4969 0.4064
C22_5 C 0.0313(2) 0.4082(4) 0.41594(11)
H16_5 H 0.0178 0.3978 0.3804
C25_5 C 0.0798(2) 0.4425(4) 0.51660(11)
H18_5 H 0.0957 0.4533 0.5518
Zn3_3 Zn 0.429483(20) 0.714742(14) 0.8334
O7_3 O 0.71747(34) 0.5972(3) 0.68843(9)
N3_3 N 0.51657(19) 0.66358(14) 0.81483(8)
N5_3 N 0.69708(22) 0.56525(17) 0.77424(8)
H14_3 H 0.7111 0.5402 0.7996
C21_6 C 0.5332(3) 0.6541(2) 0.76532(11)
H15_6 H 0.5031 0.6694 0.7398
C22_6 C 0.5918(4) 0.6231(3) 0.74928(11)
H16_6 H 0.6022 0.6200 0.7138
C23_3 C 0.63573(25) 0.59617(19) 0.78591(10)
C24_3 C 0.61566(28) 0.6025(2) 0.83714(11)
H17_3 H 0.6412 0.5834 0.8635
C25_6 C 0.5575(4) 0.6373(3) 0.84994(11)
H18_6 H 0.5467 0.6424 0.8852
C26_3 C 0.73781(36) 0.5697(3) 0.72758(11)
C27_3 C 0.81071(28) 0.5424(2) 0.72579(11)
C28_3 C 0.8600(5) 0.5567(4) 0.68159(15)
H19_3 H 0.8424 0.5766 0.6519
C29_3 C 0.9363(4) 0.5428(4) 0.67847(15)
H20_3 H 0.9710 0.5571 0.6478
C30_3 C 0.95961(27) 0.5081(2) 0.72053(11)
C31_3 C 0.9017(4) 0.4807(3) 0.76135(14)
H21_3 H 0.9111 0.4490 0.7886
C32_3 C 0.8271(4) 0.4983(3) 0.76463(14)
H22_3 H 0.7889 0.4792 0.7941
O1_4 O 0.29146(13) 0.67308(12) 0.09491(7)
O2_4 O 0.23548(14) 0.54214(15) 0.13801(8)
C1_4 C 0.26045(18) 0.58655(19) 0.09639(10)
C2_4 C 0.25310(18) 0.53678(17) 0.04607(10)
C3_5 C 0.29226(11) 0.5845(2) 0.0000
H1_5 H 0.3247 0.6494 0.0000
C4_4 C 0.2057(3) 0.4408(2) 0.04587(14)
H2_4 H 0.1799 0.4081 0.0767
C5_5 C 0.19652(16) 0.3930(3) 0.0000
H3_5 H 0.1641 0.3282 0.0000
O5_3 O 0.32692(12) 0.70854(13) 0.23842(7)
N4_4 N 0.14701(13) 0.66358(14) 0.18517(8)
C3_6 C 0.29226(11) 0.5845(2) 1.0000
H1_6 H 0.3247 0.6494 1.0000
C5_6 C 0.19652(16) 0.3930(3) 1.0000
H3_6 H 0.1641 0.3282 1.0000
O4_2 O 0.38162(18) 0.67308(12) 0.90509(7)
O6_4 O 0.30666(21) 0.54214(15) 0.86199(8)
C18_4 C 0.32610(26) 0.58655(19) 0.90361(10)
C19_4 C 0.28368(25) 0.53678(17) 0.95393(10)
C20_4 C 0.2351(4) 0.4408(2) 0.95413(14)
H13_4 H 0.2282 0.4081 0.9233
O1_5 O 0.32692(12) 0.61838(18) 0.42824(7)
O2_5 O 0.45786(15) 0.69334(21) 0.47134(8)
C1_5 C 0.41345(19) 0.67390(26) 0.42972(10)
C2_5 C 0.46322(17) 0.71632(25) 0.37940(10)
C3_7 C 0.4155(2) 0.70776(23) 0.3333
H1_7 H 0.3506 0.6753 0.3333
C4_5 C 0.5592(2) 0.7649(4) 0.37920(14)
H2_5 H 0.5919 0.7718 0.4100
C5_7 C 0.6070(3) 0.80352(34) 0.3333
H3_7 H 0.6718 0.8359 0.3333
O5_4 O 0.29146(13) 0.61838(18) 0.57176(7)
O6_5 O 0.45786(15) 0.76452(26) 0.19532(8)
C18_5 C 0.41345(19) 0.73955(32) 0.23694(10)
C19_5 C 0.46322(17) 0.74690(30) 0.28726(10)
C20_5 C 0.5592(2) 0.7943(4) 0.28746(14)
H13_5 H 0.5919 0.8201 0.2566
N4_5 N 0.33642(14) 0.48343(19) 0.51851(8)
O1_6 O 0.38162(18) 0.70854(13) 0.76158(7)
O2_6 O 0.30666(21) 0.76452(14) 0.80468(8)
C1_6 C 0.32610(26) 0.73955(18) 0.76306(10)
C2_6 C 0.28368(25) 0.74690(18) 0.71274(10)
C3_8 C 0.29224(23) 0.70774(11) 0.6667
H1_8 H 0.3247 0.6753 0.6667
C4_6 C 0.2351(4) 0.7943(3) 0.71254(14)
H2_6 H 0.2282 0.8201 0.7434
C5_8 C 0.19648(34) 0.80348(16) 0.6667
H3_8 H 0.1641 0.8359 0.6667
O6_6 O 0.23548(26) 0.69334(21) 0.52866(8)
C18_6 C 0.26045(32) 0.67390(26) 0.57028(10)
C19_6 C 0.25310(30) 0.71632(25) 0.62060(10)
C20_6 C 0.2057(4) 0.7649(4) 0.62080(14)
H13_6 H 0.1799 0.7718 0.5900
N4_6 N 0.51657(19) 0.85299(13) 0.85184(8)
C6_4 C 0.1209(2) 0.6541(2) 0.23468(11)
H5_4 H 0.1663 0.6694 0.2602
C7_4 C 0.0313(2) 0.6231(3) 0.25072(11)
H6_4 H 0.0178 0.6200 0.2862
C10_4 C 0.0798(2) 0.6373(3) 0.15006(11)
H8_4 H 0.0957 0.6424 0.1148
C6_5 C 0.5332(3) 0.8791(2) 0.90135(11)
H5_5 H 0.5031 0.8337 0.9269
C7_5 C 0.5918(4) 0.9687(2) 0.91739(11)
H6_5 H 0.6022 0.9822 0.9529
C10_5 C 0.5575(4) 0.9202(2) 0.81673(11)
H8_5 H 0.5467 0.9043 0.7815
O3_3 O 0.4028(3) 0.28253(34) 0.64491(9)
N2_3 N 0.43475(17) 0.30292(22) 0.55910(8)
H4_3 H 0.4598 0.2889 0.5338
C6_6 C 0.3459(2) 0.4668(3) 0.56802(11)
H5_6 H 0.3306 0.4969 0.5936
C7_6 C 0.3769(3) 0.4082(4) 0.58406(11)
H6_6 H 0.3800 0.3978 0.6196
C8_3 C 0.40383(19) 0.36427(25) 0.54743(10)
C9_3 C 0.3975(2) 0.38434(28) 0.49620(11)
H7_3 H 0.4166 0.3588 0.4699
C10_6 C 0.3627(3) 0.4425(4) 0.48340(11)
H8_6 H 0.3576 0.4533 0.4482
C11_3 C 0.4303(3) 0.26219(36) 0.60576(11)
C12_3 C 0.4576(2) 0.18929(28) 0.60755(11)
C13_3 C 0.4433(4) 0.1400(5) 0.65175(15)
H9_3 H 0.4234 0.1576 0.6815
C14_3 C 0.4572(4) 0.0637(4) 0.65487(15)
H10_3 H 0.4429 0.0290 0.6856
C15_3 C 0.4919(2) 0.04039(27) 0.61281(11)
C16_3 C 0.5193(3) 0.0983(4) 0.57199(14)
H11_3 H 0.5510 0.0889 0.5448
C17_3 C 0.5017(3) 0.1729(4) 0.56871(14)
H12_3 H 0.5208 0.2111 0.5393
O7_4 O 0.87973(17) 0.28253(34) 0.35509(9)
N5_4 N 0.86817(14) 0.30292(22) 0.44090(8)
H14_4 H 0.8291 0.2889 0.4662
C23_4 C 0.96044(17) 0.36427(25) 0.45257(10)
C24_4 C 0.98684(19) 0.38434(28) 0.50380(11)
H17_4 H 0.9422 0.3588 0.5301
C26_4 C 0.83189(19) 0.26219(36) 0.39424(11)
C27_4 C 0.73169(19) 0.18929(28) 0.39245(11)
C28_4 C 0.6967(3) 0.1400(5) 0.34825(15)
H19_4 H 0.7342 0.1576 0.3185
C29_4 C 0.6065(2) 0.0637(4) 0.34513(15)
H20_4 H 0.5861 0.0290 0.3144
C30_4 C 0.54849(18) 0.04039(27) 0.38719(11)
C31_4 C 0.5790(2) 0.0983(4) 0.42801(14)
H21_4 H 0.5379 0.0889 0.4552
C32_4 C 0.6712(2) 0.1729(4) 0.43129(14)
H22_4 H 0.6903 0.2111 0.4607
O3_4 O 0.12027(17) 0.71747(34) 0.35509(9)
N2_4 N 0.13183(14) 0.69708(22) 0.44090(8)
H4_4 H 0.1709 0.7111 0.4662
C8_4 C 0.03956(17) 0.63573(25) 0.45257(10)
C9_4 C 0.01316(19) 0.61566(28) 0.50380(11)
H7_4 H 0.0578 0.6412 0.5301
C11_4 C 0.16811(19) 0.73781(36) 0.39424(11)
C12_4 C 0.26831(19) 0.81071(28) 0.39245(11)
C13_4 C 0.3033(3) 0.8600(5) 0.34825(15)
H9_4 H 0.2658 0.8424 0.3185
C14_4 C 0.3935(2) 0.9363(4) 0.34513(15)
H10_4 H 0.4139 0.9710 0.3144
C15_4 C 0.45151(18) 0.95961(27) 0.38719(11)
C16_4 C 0.4210(2) 0.9017(4) 0.42801(14)
H11_4 H 0.4621 0.9111 0.4552
C17_4 C 0.3288(2) 0.8271(4) 0.43129(14)
H12_4 H 0.3097 0.7889 0.4607
O3_5 O 0.87973(17) 0.5972(3) 0.31157(9)
N2_5 N 0.86817(14) 0.56525(17) 0.22576(8)
H4_5 H 0.8291 0.5402 0.2004
C8_5 C 0.96044(17) 0.59617(19) 0.21409(10)
C9_5 C 0.98684(19) 0.6025(2) 0.16286(11)
H7_5 H 0.9422 0.5834 0.1365
C11_5 C 0.83189(19) 0.5697(3) 0.27242(11)
C12_5 C 0.73169(19) 0.5424(2) 0.27421(11)
C13_5 C 0.6967(3) 0.5567(4) 0.31841(15)
H9_5 H 0.7342 0.5766 0.3481
C14_5 C 0.6065(2) 0.5428(4) 0.32153(15)
H10_5 H 0.5861 0.5571 0.3522
C15_5 C 0.54849(18) 0.5081(2) 0.27947(11)
C16_5 C 0.5790(2) 0.4807(3) 0.23865(14)
H11_5 H 0.5379 0.4490 0.2114
C17_5 C 0.6712(2) 0.4983(3) 0.23537(14)
H12_5 H 0.6903 0.4792 0.2059
O7_5 O 0.12027(17) 0.4028(3) 0.31157(9)
N5_5 N 0.13183(14) 0.43475(17) 0.22576(8)
H14_5 H 0.1709 0.4598 0.2004
C23_5 C 0.03956(17) 0.40383(19) 0.21409(10)
C24_5 C 0.01316(19) 0.3975(2) 0.16286(11)
H17_5 H 0.0578 0.4166 0.1365
C26_5 C 0.16811(19) 0.4303(3) 0.27242(11)
C27_5 C 0.26831(19) 0.4576(2) 0.27421(11)
C28_5 C 0.3033(3) 0.4433(4) 0.31841(15)
H19_5 H 0.2658 0.4234 0.3481
C29_5 C 0.3935(2) 0.4572(4) 0.32153(15)
H20_5 H 0.4139 0.4429 0.3522
C30_5 C 0.45151(18) 0.4919(2) 0.27947(11)
C31_5 C 0.4210(2) 0.5193(3) 0.23865(14)
H21_5 H 0.4621 0.5510 0.2114
C32_5 C 0.3288(2) 0.5017(3) 0.23537(14)
H22_5 H 0.3097 0.5208 0.2059
H19_6 H 0.1576 0.7342 0.0148
H20_6 H 0.0290 0.5861 0.0189
O7_6 O 0.28253(34) 0.87973(17) 0.97824(9)
N5_6 N 0.30292(22) 0.86817(14) 0.89243(8)
H14_6 H 0.2889 0.8291 0.8671
C23_6 C 0.36427(25) 0.96044(17) 0.88076(10)
C24_6 C 0.38434(28) 0.98684(19) 0.82953(11)
H17_6 H 0.3588 0.9422 0.8032
C26_6 C 0.26219(36) 0.83189(19) 0.93909(11)
C27_6 C 0.18929(28) 0.73169(19) 0.94088(11)
C28_6 C 0.1400(5) 0.6967(3) 0.98508(15)
C29_6 C 0.0637(4) 0.6065(2) 0.98820(15)
C30_6 C 0.04039(27) 0.54849(18) 0.94614(11)
C31_6 C 0.0983(4) 0.5790(2) 0.90532(14)
H21_6 H 0.0889 0.5379 0.8781
C32_6 C 0.1729(4) 0.6712(2) 0.90204(14)
H22_6 H 0.2111 0.6903 0.8726
H9_6 H 0.8424 0.2658 0.0148
H10_6 H 0.9710 0.4139 0.0189
O3_6 O 0.71747(34) 0.12027(17) 0.97824(9)
N2_6 N 0.69708(22) 0.13183(14) 0.89243(8)
H4_6 H 0.7111 0.1709 0.8671
C8_6 C 0.63573(25) 0.03956(17) 0.88076(10)
C9_6 C 0.61566(28) 0.01316(19) 0.82953(11)
H7_6 H 0.6412 0.0578 0.8032
C11_6 C 0.73781(36) 0.16811(19) 0.93909(11)
C12_6 C 0.81071(28) 0.26831(19) 0.94088(11)
C13_6 C 0.8600(5) 0.3033(3) 0.98508(15)
C14_6 C 0.9363(4) 0.3935(2) 0.98820(15)
C15_6 C 0.95961(27) 0.45151(18) 0.94614(11)
C16_6 C 0.9017(4) 0.4210(2) 0.90532(14)
H11_6 H 0.9111 0.4621 0.8781
C17_6 C 0.8271(4) 0.3288(2) 0.90204(14)
H12_6 H 0.7889 0.3097 0.8726
loop_
_geom_bond_atom_site_label_1
_geom_bond_atom_site_label_2
_geom_bond_site_symmetry_1
_geom_bond_site_symmetry_2
Zn1 O1 1_555 1_555
O1 C1 1_555 1_555
O2 C1 1_555 1_555
C1 C2 1_555 1_555
C2 C3 1_555 1_555
C3 H1 1_555 1_555
C4 C2 1_555 1_555
H2 C4 1_555 1_555
C5 C4 1_555 1_555
H3 C5 1_555 1_555
N1 Zn1 1_555 1_555
C6 N1 1_555 1_555
H5 C6 1_555 1_555
C7 C6 1_555 1_555
H6 C7 1_555 1_555
C10 N1 1_555 1_555
H8 C10 1_555 1_555
O5 Zn1 1_555 1_555
N4 Zn1 1_555 1_555
C3_2 H1_2 1_555 1_555
H3_2 C5_2 1_555 1_555
Zn2 O4 1_555 1_555
O4 C18 1_555 1_555
O6 C18 1_555 1_555
C18 C19 1_555 1_555
C19 C3_2 1_555 1_555
C20 C5_2 1_555 1_555
H13 C20 1_555 1_555
C19 C20 1_555 1_555
Zn1_2 O1_2 1_555 1_555
O1_2 C1_2 1_555 1_555
O2_2 C1_2 1_555 1_555
C1_2 C2_2 1_555 1_555
C2_2 C3_3 1_555 1_555
C3_3 H1_3 1_555 1_555
C4_2 C2_2 1_555 1_555
H2_2 C4_2 1_555 1_555
C5_3 C4_2 1_555 1_555
H3_3 C5_3 1_555 1_555
N1_2 Zn1_2 1_555 1_555
C6_2 N1_2 1_555 1_555
H5_2 C6_2 1_555 1_555
C7_2 C6_2 1_555 1_555
H6_2 C7_2 1_555 1_555
C10_2 N1_2 1_555 1_555
H8_2 C10_2 1_555 1_555
O5 C18_2 1_555 1_555
O5_2 Zn1_2 1_555 1_555
O6_2 C18_2 1_555 1_555
C18_2 C19_2 1_555 1_555
C19_2 C3_3 1_555 1_555
C20_2 C5_3 1_555 1_555
H13_2 C20_2 1_555 1_555
N4_2 Zn1_2 1_555 1_555
C19_2 C20_2 1_555 1_555
Zn2 O1_3 1_555 1_555
O1_3 C1_3 1_555 1_555
O2_3 C1_3 1_555 1_555
C1_3 C2_3 1_555 1_555
C2_3 C3_4 1_555 1_555
C3_4 H1_4 1_555 1_555
C4_3 C2_3 1_555 1_555
H2_3 C4_3 1_555 1_555
C5_4 C4_3 1_555 1_555
H3_4 C5_4 1_555 1_555
O3 C11 1_555 1_555
N1_3 Zn2 1_555 1_555
N2 H4 1_555 1_555
C6_3 N1_3 1_555 1_555
H5_3 C6_3 1_555 1_555
C7_3 C6_3 1_555 1_555
H6_3 C7_3 1_555 1_555
C8 N2 1_555 1_555
C9 C8 1_555 1_555
H7 C9 1_555 1_555
C10_3 N1_3 1_555 1_555
H8_3 C10_3 1_555 1_555
C11 N2 1_555 1_555
C12 C11 1_555 1_555
C13 C12 1_555 1_555
H9 C13 1_555 1_555
C14 C13 1_555 1_555
H10 C14 1_555 1_555
C15 C14 1_555 1_555
C16 C15 1_555 1_555
H11 C16 1_555 1_555
C17 C12 1_555 1_555
H12 C17 1_555 1_555
O5_2 C18_3 1_555 1_555
O6_3 C18_3 1_555 1_555
C18_3 C19_3 1_555 1_555
C19_3 C3_4 1_555 1_555
C20_3 C5_4 1_555 1_555
H13_3 C20_3 1_555 1_555
N4_3 Zn2 1_555 1_555
C7_3 C8 1_555 1_555
C9 C10_3 1_555 1_555
C16 C17 1_555 1_555
C19_3 C20_3 1_555 1_555
N4 C21 1_555 1_555
C21 H15 1_555 1_555
C22 C21 1_555 1_555
H16 C22 1_555 1_555
C25 N4 1_555 1_555
H18 C25 1_555 1_555
N4_3 C21_2 1_555 1_555
C21_2 H15_2 1_555 1_555
C22_2 C21_2 1_555 1_555
H16_2 C22_2 1_555 1_555
C25_2 N4_3 1_555 1_555
H18_2 C25_2 1_555 1_555
O7 C26 1_555 1_555
N4_2 C21_3 1_555 1_555
N5 H14 1_555 1_555
C21_3 H15_3 1_555 1_555
C22_3 C21_3 1_555 1_555
H16_3 C22_3 1_555 1_555
C23 N5 1_555 1_555
C24 C23 1_555 1_555
H17 C24 1_555 1_555
C25_3 N4_2 1_555 1_555
H18_3 C25_3 1_555 1_555
C26 N5 1_555 1_555
C27 C26 1_555 1_555
C28 C27 1_555 1_555
H19 C28 1_555 1_555
C29 C28 1_555 1_555
H20 C29 1_555 1_555
C31 C30 1_555 1_555
H21 C31 1_555 1_555
C32 C27 1_555 1_555
H22 C32 1_555 1_555
C22_3 C23 1_555 1_555
C24 C25_3 1_555 1_555
C29 C30 1_555 1_555
C31 C32 1_555 1_555
O3_2 C11_2 1_555 1_555
N2_2 H4_2 1_555 1_555
C8_2 N2_2 1_555 1_555
C9_2 C8_2 1_555 1_555
H7_2 C9_2 1_555 1_555
C11_2 N2_2 1_555 1_555
C12_2 C11_2 1_555 1_555
C13_2 C12_2 1_555 1_555
C14_2 C13_2 1_555 1_555
C15_2 C14_2 1_555 1_555
C16_2 C15_2 1_555 1_555
H11_2 C16_2 1_555 1_555
C17_2 C12_2 1_555 1_555
H12_2 C17_2 1_555 1_555
O7_2 C26_2 1_555 1_555
N5_2 H14_2 1_555 1_555
C23_2 N5_2 1_555 1_555
C24_2 C23_2 1_555 1_555
H17_2 C24_2 1_555 1_555
C26_2 N5_2 1_555 1_555
C27_2 C26_2 1_555 1_555
C28_2 C27_2 1_555 1_555
C29_2 C28_2 1_555 1_555
C30_2 C15_2 1_555 1_555
C31_2 C30_2 1_555 1_555
H21_2 C31_2 1_555 1_555
C32_2 C27_2 1_555 1_555
H22_2 C32_2 1_555 1_555
C16_2 C17_2 1_555 1_555
C29_2 C30_2 1_555 1_555
C31_2 C32_2 1_555 1_555
Zn3 N3 1_555 1_555
N3 C21_4 1_555 1_555
C21_4 H15_4 1_555 1_555
C22_4 C21_4 1_555 1_555
H16_4 C22_4 1_555 1_555
C25_4 N3 1_555 1_555
H18_4 C25_4 1_555 1_555
Zn3_2 N3_2 1_555 1_555
N3_2 C21_5 1_555 1_555
C21_5 H15_5 1_555 1_555
C22_5 C21_5 1_555 1_555
H16_5 C22_5 1_555 1_555
C25_5 N3_2 1_555 1_555
H18_5 C25_5 1_555 1_555
Zn3_3 N3_3 1_555 1_555
O7_3 C26_3 1_555 1_555
N3_3 C21_6 1_555 1_555
N5_3 H14_3 1_555 1_555
C21_6 H15_6 1_555 1_555
C22_6 C21_6 1_555 1_555
H16_6 C22_6 1_555 1_555
C23_3 N5_3 1_555 1_555
C24_3 C23_3 1_555 1_555
H17_3 C24_3 1_555 1_555
C25_6 N3_3 1_555 1_555
H18_6 C25_6 1_555 1_555
C26_3 N5_3 1_555 1_555
C27_3 C26_3 1_555 1_555
C28_3 C27_3 1_555 1_555
H19_3 C28_3 1_555 1_555
C29_3 C28_3 1_555 1_555
H20_3 C29_3 1_555 1_555
C31_3 C30_3 1_555 1_555
H21_3 C31_3 1_555 1_555
C32_3 C27_3 1_555 1_555
H22_3 C32_3 1_555 1_555
C22_6 C23_3 1_555 1_555
C24_3 C25_6 1_555 1_555
C29_3 C30_3 1_555 1_555
C31_3 C32_3 1_555 1_555
Zn3 O1_4 1_555 1_555
O1_4 C1_4 1_555 1_555
O2_4 C1_4 1_555 1_555
C1_4 C2_4 1_555 1_555
C2_4 C3_5 1_555 1_555
C3_5 H1_5 1_555 1_555
C4_4 C2_4 1_555 1_555
H2_4 C4_4 1_555 1_555
C5_5 C4_4 1_555 1_555
H3_5 C5_5 1_555 1_555
O5_3 Zn3 1_555 1_555
N4_4 Zn3 1_555 1_555
C3_6 H1_6 1_555 1_555
H3_6 C5_6 1_555 1_555
Zn3_3 O4_2 1_555 1_555
O4_2 C18_4 1_555 1_555
O6_4 C18_4 1_555 1_555
C18_4 C19_4 1_555 1_555
C19_4 C3_6 1_555 1_555
C20_4 C5_6 1_555 1_555
H13_4 C20_4 1_555 1_555
C19_4 C20_4 1_555 1_555
Zn3_2 O1_5 1_555 1_555
O1_5 C1_5 1_555 1_555
O2_5 C1_5 1_555 1_555
C1_5 C2_5 1_555 1_555
C2_5 C3_7 1_555 1_555
C3_7 H1_7 1_555 1_555
C4_5 C2_5 1_555 1_555
H2_5 C4_5 1_555 1_555
C5_7 C4_5 1_555 1_555
H3_7 C5_7 1_555 1_555
O5_3 C18_5 1_555 1_555
O5_4 Zn3_2 1_555 1_555
O6_5 C18_5 1_555 1_555
C18_5 C19_5 1_555 1_555
C19_5 C3_7 1_555 1_555
C20_5 C5_7 1_555 1_555
H13_5 C20_5 1_555 1_555
N4_5 Zn3_2 1_555 1_555
C19_5 C20_5 1_555 1_555
Zn3_3 O1_6 1_555 1_555
O1_6 C1_6 1_555 1_555
O2_6 C1_6 1_555 1_555
C1_6 C2_6 1_555 1_555
C2_6 C3_8 1_555 1_555
C3_8 H1_8 1_555 1_555
C4_6 C2_6 1_555 1_555
H2_6 C4_6 1_555 1_555
C5_8 C4_6 1_555 1_555
H3_8 C5_8 1_555 1_555
O5_4 C18_6 1_555 1_555
O6_6 C18_6 1_555 1_555
C18_6 C19_6 1_555 1_555
C19_6 C3_8 1_555 1_555
C20_6 C5_8 1_555 1_555
H13_6 C20_6 1_555 1_555
N4_6 Zn3_3 1_555 1_555
C19_6 C20_6 1_555 1_555
C6_4 N4_4 1_555 1_555
H5_4 C6_4 1_555 1_555
C7_4 C6_4 1_555 1_555
H6_4 C7_4 1_555 1_555
C10_4 N4_4 1_555 1_555
H8_4 C10_4 1_555 1_555
C6_5 N4_6 1_555 1_555
H5_5 C6_5 1_555 1_555
C7_5 C6_5 1_555 1_555
H6_5 C7_5 1_555 1_555
C10_5 N4_6 1_555 1_555
H8_5 C10_5 1_555 1_555
O3_3 C11_3 1_555 1_555
N2_3 H4_3 1_555 1_555
C6_6 N4_5 1_555 1_555
H5_6 C6_6 1_555 1_555
C7_6 C6_6 1_555 1_555
H6_6 C7_6 1_555 1_555
C8_3 N2_3 1_555 1_555
C9_3 C8_3 1_555 1_555
H7_3 C9_3 1_555 1_555
C10_6 N4_5 1_555 1_555
H8_6 C10_6 1_555 1_555
C11_3 N2_3 1_555 1_555
C12_3 C11_3 1_555 1_555
C13_3 C12_3 1_555 1_555
H9_3 C13_3 1_555 1_555
C14_3 C13_3 1_555 1_555
H10_3 C14_3 1_555 1_555
C15_3 C14_3 1_555 1_555
C16_3 C15_3 1_555 1_555
H11_3 C16_3 1_555 1_555
C17_3 C12_3 1_555 1_555
H12_3 C17_3 1_555 1_555
C7_6 C8_3 1_555 1_555
C9_3 C10_6 1_555 1_555
C16_3 C17_3 1_555 1_555
O7_4 C26_4 1_555 1_555
N5_4 H14_4 1_555 1_555
C23_4 N5_4 1_555 1_555
C24_4 C23_4 1_555 1_555
H17_4 C24_4 1_555 1_555
C26_4 N5_4 1_555 1_555
C27_4 C26_4 1_555 1_555
C28_4 C27_4 1_555 1_555
H19_4 C28_4 1_555 1_555
C29_4 C28_4 1_555 1_555
H20_4 C29_4 1_555 1_555
C31_4 C30_4 1_555 1_555
H21_4 C31_4 1_555 1_555
C32_4 C27_4 1_555 1_555
H22_4 C32_4 1_555 1_555
C29_4 C30_4 1_555 1_555
C31_4 C32_4 1_555 1_555
O3_4 C11_4 1_555 1_555
N2_4 H4_4 1_555 1_555
C8_4 N2_4 1_555 1_555
C9_4 C8_4 1_555 1_555
H7_4 C9_4 1_555 1_555
C11_4 N2_4 1_555 1_555
C12_4 C11_4 1_555 1_555
C13_4 C12_4 1_555 1_555
H9_4 C13_4 1_555 1_555
C14_4 C13_4 1_555 1_555
H10_4 C14_4 1_555 1_555
C15_4 C14_4 1_555 1_555
C16_4 C15_4 1_555 1_555
H11_4 C16_4 1_555 1_555
C17_4 C12_4 1_555 1_555
H12_4 C17_4 1_555 1_555
C16_4 C17_4 1_555 1_555
O3_5 C11_5 1_555 1_555
N2_5 H4_5 1_555 1_555
C8_5 N2_5 1_555 1_555
C9_5 C8_5 1_555 1_555
H7_5 C9_5 1_555 1_555
C11_5 N2_5 1_555 1_555
C12_5 C11_5 1_555 1_555
C13_5 C12_5 1_555 1_555
H9_5 C13_5 1_555 1_555
C14_5 C13_5 1_555 1_555
H10_5 C14_5 1_555 1_555
C15_5 C14_5 1_555 1_555
C16_5 C15_5 1_555 1_555
H11_5 C16_5 1_555 1_555
C17_5 C12_5 1_555 1_555
H12_5 C17_5 1_555 1_555
O7_5 C26_5 1_555 1_555
N5_5 H14_5 1_555 1_555
C23_5 N5_5 1_555 1_555
C24_5 C23_5 1_555 1_555
H17_5 C24_5 1_555 1_555
C26_5 N5_5 1_555 1_555
C27_5 C26_5 1_555 1_555
C28_5 C27_5 1_555 1_555
H19_5 C28_5 1_555 1_555
C29_5 C28_5 1_555 1_555
H20_5 C29_5 1_555 1_555
C30_5 C15_5 1_555 1_555
C31_5 C30_5 1_555 1_555
H21_5 C31_5 1_555 1_555
C32_5 C27_5 1_555 1_555
H22_5 C32_5 1_555 1_555
C16_5 C17_5 1_555 1_555
C29_5 C30_5 1_555 1_555
C31_5 C32_5 1_555 1_555
O7_6 C26_6 1_555 1_555
N5_6 H14_6 1_555 1_555
C23_6 N5_6 1_555 1_555
C24_6 C23_6 1_555 1_555
H17_6 C24_6 1_555 1_555
C26_6 N5_6 1_555 1_555
C27_6 C26_6 1_555 1_555
C28_6 C27_6 1_555 1_555
C29_6 C28_6 1_555 1_555
C31_6 C30_6 1_555 1_555
H21_6 C31_6 1_555 1_555
C32_6 C27_6 1_555 1_555
H22_6 C32_6 1_555 1_555
C29_6 C30_6 1_555 1_555
C31_6 C32_6 1_555 1_555
O3_6 C11_6 1_555 1_555
N2_6 H4_6 1_555 1_555
C8_6 N2_6 1_555 1_555
C9_6 C8_6 1_555 1_555
H7_6 C9_6 1_555 1_555
C11_6 N2_6 1_555 1_555
C12_6 C11_6 1_555 1_555
C13_6 C12_6 1_555 1_555
C14_6 C13_6 1_555 1_555
C15_6 C14_6 1_555 1_555
C16_6 C15_6 1_555 1_555
H11_6 C16_6 1_555 1_555
C17_6 C12_6 1_555 1_555
H12_6 C17_6 1_555 1_555
C16_6 C17_6 1_555 1_555

#END
