
###############################################################################
#
# This file contains modified crystal structure data generated from the
# MOF subset of the Cambridge Structural Database (CSD) v543 
# hosted by the Cambridge Crystallographic Data Centre (CCDC).
#
# This work is licensed under the Creative Commons
# Attribution-NonCommercial-ShareAlike 4.0 International License.
# To view a copy of this license, visit
# http://creativecommons.org/licenses/by-nc-sa/4.0/
# or send a letter to
# Creative Commons, PO Box 1866, Mountain View, CA 94042, USA.
#
# CIF created using the CSD Python API on 29 September 2022
# The structure has been converted into the P1 space group
# The structure has a 3D framework
# The original CSD entry RAYLEK is in the hexagonal crystal system
# The original CSD entry RAYLEK is in a Sohncke space group
# The framework has been calculated to contain at least 10.0% void space
# The void calculation uses a probe of radius 1.32A, grid spacing 0.4
#
###############################################################################

data_RAYLEK
_chemical_formula_moiety         '(C192 H138 N30 O36 Zn6)n'
_symmetry_cell_setting           triclinic
_symmetry_space_group_name_H-M   'P 1'
_symmetry_Int_Tables_number      1
_space_group_name_Hall           'P 1'
loop_
_symmetry_equiv_pos_site_id
_symmetry_equiv_pos_as_xyz
1 x,y,z
_cell_length_a                   16.5755(6)
_cell_length_b                   16.5755(6)
_cell_length_c                   25.117(2)
_cell_angle_alpha                90
_cell_angle_beta                 90
_cell_angle_gamma                120
_cell_volume                     5976.29
loop_
_atom_site_label
_atom_site_type_symbol
_atom_site_fract_x
_atom_site_fract_y
_atom_site_fract_z
C1 C 0.41617(15) 0.67347(16) 0.06953(11)
C2 C 0.46731(16) 0.71716(17) 0.12090(11)
C3 C 0.4192(2) 0.70961(11) 0.1667
H1 H 0.3544 0.6772 0.1667
C4 C 0.56495(18) 0.7678(3) 0.11956(14)
H2 H 0.5968 0.7753 0.0878
C5 C 0.6136(3) 0.80678(14) 0.1667
C9 C 0.03527(16) 0.3974(2) 0.08380(10)
H5 H 0.0221 0.3816 0.1195
C10 C 0.12422(17) 0.45899(19) 0.06834(10)
H6 H 0.1698 0.4857 0.0945
N1 N 0.7087(3) 0.85436(13) 0.1667
H11 H 0.7387 0.8784 0.1957
N2 N 0.14930(11) 0.48287(12) 0.01855(7)
O1 O 0.33114(10) 0.62137(11) 0.07193(7)
O2 O 0.46070(13) 0.69229(12) 0.02700(8)
Zn1 Zn 0.286190(14) 0.57238(3) 0.0000
C18 C 0.41617(15) 0.74270(22) 0.26380(11)
C19 C 0.46731(16) 0.75015(23) 0.21243(11)
C20 C 0.56495(18) 0.79715(35) 0.21377(14)
H13 H 0.5968 0.8215 0.2455
H22 H 0.7387 0.8603 0.1376
O4 O 0.33114(10) 0.70977(15) 0.26140(7)
O6 O 0.46070(13) 0.76841(18) 0.30633(8)
Zn2 Zn 0.286190(33) 0.713810(14) 0.3333
C6 C 0.08360(18) 0.44572(17) 0.98310(9)
H3 H 0.0993 0.4604 0.9475
Zn1_2 Zn 0.286190(14) 0.57238(3) 1.0000
N5 N 0.33357(16) 0.48287(12) 0.98145(7)
O5 O 0.29023(15) 0.62137(11) 0.92807(7)
C21 C 0.36212(25) 0.91640(18) 0.31643(9)
H14 H 0.3611 0.9007 0.2808
C24 C 0.36213(26) 0.96473(16) 0.41713(10)
H16 H 0.3595 0.9779 0.4528
C25 C 0.33477(25) 0.87578(17) 0.40167(10)
H17 H 0.3159 0.8302 0.4278
N4 N 0.33357(16) 0.85070(11) 0.35188(7)
C1_2 C 0.32653(16) 0.74270(22) 0.73620(11)
C2_2 C 0.28284(17) 0.75015(23) 0.78757(11)
C3_2 C 0.29039(11) 0.70959(23) 0.8334
H1_2 H 0.3228 0.6772 0.8334
C4_2 C 0.2322(3) 0.79715(35) 0.78623(14)
H2_2 H 0.2247 0.8215 0.7545
C5_2 C 0.19322(14) 0.80682(33) 0.8334
C6_2 C 0.55428(17) 0.63788(25) 0.64977(9)
H3_2 H 0.5396 0.6389 0.6142
C7 C 0.61647(15) 0.60512(21) 0.66297(9)
H4 H 0.6393 0.5829 0.6364
C8 C 0.64182(15) 0.60621(20) 0.71294(9)
C9_2 C 0.6026(2) 0.63787(26) 0.75047(10)
H5_2 H 0.6184 0.6405 0.7862
C10_2 C 0.54101(19) 0.66523(25) 0.73501(10)
H6_2 H 0.5143 0.6841 0.7612
C11 C 0.7544(2) 0.59311(27) 0.76826(10)
C12 C 0.82426(18) 0.55940(25) 0.77049(10)
C13 C 0.8319(2) 0.5092(3) 0.73609(17)
H7 H 0.7917 0.4893 0.7071
C14 C 0.8982(2) 0.4824(3) 0.73977(18)
H8 H 0.8963 0.4402 0.7148
C15 C 0.96302(15) 0.51200(21) 0.77564(11)
C16 C 0.9480(4) 0.5543(5) 0.81172(15)
H9 H 0.9840 0.5684 0.8424
C17 C 0.8822(4) 0.5816(4) 0.80974(15)
H10 H 0.8792 0.6171 0.8375
N1_2 N 0.14564(13) 0.85434(33) 0.8334
H11_2 H 0.1216 0.8603 0.8624
N2_2 N 0.51713(12) 0.66643(16) 0.68522(7)
N3 N 0.70530(13) 0.57851(18) 0.72455(7)
H12 H 0.7141 0.5475 0.7000
O1_2 O 0.37863(11) 0.70977(15) 0.73860(7)
O2_2 O 0.30771(12) 0.76841(18) 0.69367(8)
O3 O 0.7429(2) 0.62922(26) 0.80669(9)
Zn1_3 Zn 0.42762(3) 0.713810(33) 0.6667
C18_2 C 0.25730(22) 0.67347(27) 0.93047(11)
C19_2 C 0.24985(23) 0.71716(28) 0.87910(11)
C20_2 C 0.20285(35) 0.76780(39) 0.88044(14)
H13_2 H 0.1785 0.7753 0.9122
H22_2 H 0.1397 0.8784 0.8043
N5_2 N 0.51713(12) 0.85070(20) 0.64812(7)
O5_2 O 0.37863(11) 0.66886(19) 0.59474(7)
O6_2 O 0.23159(18) 0.69229(22) 0.97300(8)
C1_3 C 0.25730(22) 0.58383(15) 0.40286(11)
C2_3 C 0.24985(23) 0.53269(16) 0.45423(11)
C3_3 C 0.29041(23) 0.5808(2) 0.5000
H1_3 H 0.3228 0.6456 0.5000
C4_3 C 0.20285(35) 0.43505(18) 0.45289(14)
H2_3 H 0.1785 0.4032 0.4211
C5_3 C 0.19318(33) 0.3864(3) 0.5000
N1_3 N 0.14566(33) 0.2913(3) 0.5000
H11_3 H 0.1397 0.2613 0.5290
O1_3 O 0.29023(15) 0.66886(10) 0.40526(7)
O2_3 O 0.23159(18) 0.53930(13) 0.36033(8)
C18_3 C 0.32653(27) 0.58383(15) 0.59714(11)
C19_3 C 0.28284(28) 0.53269(16) 0.54577(11)
C20_3 C 0.23220(39) 0.43505(18) 0.54711(14)
H13_3 H 0.2247 0.4032 0.5789
H22_3 H 0.1216 0.2613 0.4710
N5_3 N 0.14930(20) 0.66643(16) 0.31478(7)
O6_3 O 0.30771(22) 0.53930(13) 0.63967(8)
C6_3 C 0.55428(17) 0.91640(18) 0.68357(9)
H3_3 H 0.5396 0.9007 0.7192
C9_3 C 0.6026(2) 0.96473(16) 0.58287(10)
H5_3 H 0.6184 0.9779 0.5472
C10_3 C 0.54101(19) 0.87578(17) 0.59833(10)
H6_3 H 0.5143 0.8302 0.5722
C21_2 C 0.36212(25) 0.44572(17) 0.01690(9)
H14_2 H 0.3611 0.4604 0.0525
C22 C 0.39488(21) 0.38353(15) 0.00370(9)
H15 H 0.4171 0.3607 0.0303
C23 C 0.39379(20) 0.35818(15) 0.95373(9)
C24_2 C 0.36213(26) 0.3974(2) 0.91620(10)
H16_2 H 0.3595 0.3816 0.8805
C25_2 C 0.33477(25) 0.45899(19) 0.93166(10)
H17_2 H 0.3159 0.4857 0.9055
C26 C 0.40689(27) 0.2456(2) 0.89841(10)
C27 C 0.44060(25) 0.17574(18) 0.89618(10)
C28 C 0.4908(3) 0.1681(2) 0.93058(17)
H18 H 0.5107 0.2083 0.9596
C29 C 0.5176(3) 0.1018(2) 0.92690(18)
H19 H 0.5598 0.1037 0.9519
C30 C 0.48800(21) 0.03698(15) 0.89103(11)
C31 C 0.4457(5) 0.0520(4) 0.85495(15)
H20 H 0.4316 0.0160 0.8243
C32 C 0.4184(4) 0.1178(4) 0.85693(15)
H21 H 0.3829 0.1208 0.8292
N6 N 0.42149(18) 0.29470(13) 0.94212(7)
H23 H 0.4525 0.2859 0.9667
O7 O 0.37078(26) 0.2571(2) 0.85998(9)
C6_4 C 0.08360(18) 0.63788(25) 0.35023(9)
H3_4 H 0.0993 0.6389 0.3858
C9_4 C 0.03527(16) 0.63787(26) 0.24953(10)
H5_4 H 0.0221 0.6405 0.2138
C10_4 C 0.12422(17) 0.66523(25) 0.26499(10)
H6_4 H 0.1698 0.6841 0.2388
C8_2 C 0.96439(13) 0.35818(15) 0.04627(9)
C11_2 C 0.83871(18) 0.2456(2) 0.10159(10)
C12_2 C 0.73514(17) 0.17574(18) 0.10382(10)
C13_2 C 0.6773(2) 0.1681(2) 0.06942(17)
H7_2 H 0.6976 0.2083 0.0404
C14_2 C 0.5842(2) 0.1018(2) 0.07310(18)
H8_2 H 0.5439 0.1037 0.0481
C15_2 C 0.54898(15) 0.03698(15) 0.10897(11)
C16_2 C 0.6063(3) 0.0520(4) 0.14505(15)
H9_2 H 0.5844 0.0160 0.1757
C17_2 C 0.6994(2) 0.1178(4) 0.14307(15)
H10_2 H 0.7379 0.1208 0.1708
N3_2 N 0.87321(12) 0.29470(13) 0.05788(7)
H12_2 H 0.8334 0.2859 0.0333
O3_2 O 0.88632(17) 0.2571(2) 0.14002(9)
C7_2 C 0.98865(15) 0.38353(15) 0.99630(9)
H4_2 H 0.9436 0.3607 0.9697
C23_2 C 0.03561(13) 0.64182(15) 0.04627(9)
C26_2 C 0.16129(18) 0.7544(2) 0.10159(10)
C27_2 C 0.26486(17) 0.82426(18) 0.10382(10)
C28_2 C 0.3227(2) 0.8319(2) 0.06942(17)
H18_2 H 0.3024 0.7917 0.0404
C29_2 C 0.4158(2) 0.8982(2) 0.07310(18)
H19_2 H 0.4561 0.8963 0.0481
C30_2 C 0.45102(15) 0.96302(15) 0.10897(11)
C31_2 C 0.3937(3) 0.9480(4) 0.14505(15)
H20_2 H 0.4156 0.9840 0.1757
C32_2 C 0.3006(2) 0.8822(4) 0.14307(15)
H21_2 H 0.2621 0.8792 0.1708
N6_2 N 0.12679(12) 0.70530(13) 0.05788(7)
H23_2 H 0.1666 0.7141 0.0333
O7_2 O 0.11368(17) 0.7429(2) 0.14002(9)
C22_2 C 0.01135(15) 0.61647(15) 0.99630(9)
H15_2 H 0.0564 0.6393 0.9697
C24_3 C 0.96473(16) 0.6026(2) 0.08380(10)
H16_3 H 0.9779 0.6184 0.1195
C25_3 C 0.87578(17) 0.54101(19) 0.06834(10)
H17_3 H 0.8302 0.5143 0.0945
N4_2 N 0.85070(11) 0.51713(12) 0.01855(7)
Zn3 Zn 0.713810(14) 0.42762(3) 0.0000
C21_3 C 0.91640(18) 0.55428(17) 0.98310(9)
H14_3 H 0.9007 0.5396 0.9475
Zn3_2 Zn 0.713810(14) 0.42762(3) 1.0000
C1_4 C 0.74270(22) 0.41617(15) 0.40286(11)
C2_4 C 0.75015(23) 0.46731(16) 0.45423(11)
C3_4 C 0.70959(23) 0.4192(2) 0.5000
H1_4 H 0.6772 0.3544 0.5000
C4_4 C 0.79715(35) 0.56495(18) 0.45289(14)
H2_4 H 0.8215 0.5968 0.4211
C5_4 C 0.80682(33) 0.6136(3) 0.5000
C6_5 C 0.63788(25) 0.08360(18) 0.31643(9)
H3_5 H 0.6389 0.0993 0.2808
C9_5 C 0.63787(26) 0.03527(16) 0.41713(10)
H5_5 H 0.6405 0.0221 0.4528
C10_5 C 0.66523(25) 0.12422(17) 0.40167(10)
H6_5 H 0.6841 0.1698 0.4278
N1_4 N 0.85434(33) 0.7087(3) 0.5000
H11_4 H 0.8603 0.7387 0.5290
N2_3 N 0.66643(16) 0.14930(11) 0.35188(7)
O1_4 O 0.70977(15) 0.33114(10) 0.40526(7)
O2_4 O 0.76841(18) 0.46070(13) 0.36033(8)
Zn1_4 Zn 0.713810(33) 0.286190(14) 0.3333
C18_4 C 0.67347(27) 0.41617(15) 0.59714(11)
C19_4 C 0.71716(28) 0.46731(16) 0.54577(11)
C20_4 C 0.76780(39) 0.56495(18) 0.54711(14)
H13_4 H 0.7753 0.5968 0.5789
H22_4 H 0.8784 0.7387 0.4710
N5_4 N 0.85070(20) 0.33357(16) 0.31478(7)
O4_2 O 0.62137(18) 0.33114(10) 0.59474(7)
O5_3 O 0.66886(19) 0.29023(15) 0.26140(7)
O6_4 O 0.69229(22) 0.46070(13) 0.63967(8)
Zn2_2 Zn 0.572380(36) 0.286190(33) 0.6667
C21_4 C 0.44572(17) 0.36212(25) 0.64977(9)
H14_4 H 0.4604 0.3611 0.6142
C22_3 C 0.38353(15) 0.39488(21) 0.66297(9)
H15_3 H 0.3607 0.4171 0.6364
C23_3 C 0.35818(15) 0.39379(20) 0.71294(9)
C24_4 C 0.3974(2) 0.36213(26) 0.75047(10)
H16_4 H 0.3816 0.3595 0.7862
C25_4 C 0.45899(19) 0.33477(25) 0.73501(10)
H17_4 H 0.4857 0.3159 0.7612
C26_3 C 0.2456(2) 0.40689(27) 0.76826(10)
C27_3 C 0.17574(18) 0.44060(25) 0.77049(10)
C28_3 C 0.1681(2) 0.4908(3) 0.73609(17)
H18_3 H 0.2083 0.5107 0.7071
C29_3 C 0.1018(2) 0.5176(3) 0.73977(18)
H19_3 H 0.1037 0.5598 0.7148
C30_3 C 0.03698(15) 0.48800(21) 0.77564(11)
C31_3 C 0.0520(4) 0.4457(5) 0.81172(15)
H20_3 H 0.0160 0.4316 0.8424
C32_3 C 0.1178(4) 0.4184(4) 0.80974(15)
H21_3 H 0.1208 0.3829 0.8375
N4_3 N 0.48287(12) 0.33357(16) 0.68522(7)
N6_3 N 0.29470(13) 0.42149(18) 0.72455(7)
H23_3 H 0.2859 0.4525 0.7000
O7_3 O 0.2571(2) 0.37078(26) 0.80669(9)
C1_5 C 0.58383(15) 0.32653(16) 0.06953(11)
C2_5 C 0.53269(16) 0.28284(17) 0.12090(11)
C3_5 C 0.5808(2) 0.29039(11) 0.1667
H1_5 H 0.6456 0.3228 0.1667
C4_5 C 0.43505(18) 0.2322(3) 0.11956(14)
H2_5 H 0.4032 0.2247 0.0878
C5_5 C 0.3864(3) 0.19322(14) 0.1667
N1_5 N 0.2913(3) 0.14564(13) 0.1667
H11_5 H 0.2613 0.1216 0.1957
O1_5 O 0.66886(10) 0.37863(11) 0.07193(7)
O2_5 O 0.53930(13) 0.30771(12) 0.02700(8)
C18_5 C 0.58383(15) 0.25730(22) 0.26380(11)
C19_5 C 0.53269(16) 0.24985(23) 0.21243(11)
C20_5 C 0.43505(18) 0.20285(35) 0.21377(14)
H13_5 H 0.4032 0.1785 0.2455
H22_5 H 0.2613 0.1397 0.1376
O6_5 O 0.53930(13) 0.23159(18) 0.30633(8)
N5_5 N 0.66643(16) 0.51713(12) 0.98145(7)
O5_4 O 0.70977(15) 0.37863(11) 0.92807(7)
C1_6 C 0.67347(16) 0.25730(22) 0.73620(11)
C2_6 C 0.71716(17) 0.24985(23) 0.78757(11)
C3_6 C 0.70961(11) 0.29041(23) 0.8334
H1_6 H 0.6772 0.3228 0.8334
C4_6 C 0.7678(3) 0.20285(35) 0.78623(14)
H2_6 H 0.7753 0.1785 0.7545
C5_6 C 0.80678(14) 0.19318(33) 0.8334
N1_6 N 0.85436(13) 0.14566(33) 0.8334
H11_6 H 0.8784 0.1397 0.8624
O1_6 O 0.62137(11) 0.29023(15) 0.73860(7)
O2_6 O 0.69229(12) 0.23159(18) 0.69367(8)
C18_6 C 0.74270(22) 0.32653(27) 0.93047(11)
C19_6 C 0.75015(23) 0.28284(28) 0.87910(11)
C20_6 C 0.79715(35) 0.23220(39) 0.88044(14)
H13_6 H 0.8215 0.2247 0.9122
H22_6 H 0.8603 0.1216 0.8043
N5_6 N 0.48287(12) 0.14930(20) 0.64812(7)
O6_6 O 0.76841(18) 0.30771(22) 0.97300(8)
C21_5 C 0.44572(17) 0.08360(18) 0.68357(9)
H14_5 H 0.4604 0.0993 0.7192
C24_5 C 0.3974(2) 0.03527(16) 0.58287(10)
H16_5 H 0.3816 0.0221 0.5472
C25_5 C 0.45899(19) 0.12422(17) 0.59833(10)
H17_5 H 0.4857 0.1698 0.5722
C6_6 C 0.63788(25) 0.55428(17) 0.01690(9)
H3_6 H 0.6389 0.5396 0.0525
C7_3 C 0.60512(21) 0.61647(15) 0.00370(9)
H4_3 H 0.5829 0.6393 0.0303
C8_3 C 0.60621(20) 0.64182(15) 0.95373(9)
C9_6 C 0.63787(26) 0.6026(2) 0.91620(10)
H5_6 H 0.6405 0.6184 0.8805
C10_6 C 0.66523(25) 0.54101(19) 0.93166(10)
H6_6 H 0.6841 0.5143 0.9055
C11_3 C 0.59311(27) 0.7544(2) 0.89841(10)
C12_3 C 0.55940(25) 0.82426(18) 0.89618(10)
C13_3 C 0.5092(3) 0.8319(2) 0.93058(17)
H7_3 H 0.4893 0.7917 0.9596
C14_3 C 0.4824(3) 0.8982(2) 0.92690(18)
H8_3 H 0.4402 0.8963 0.9519
C15_3 C 0.51200(21) 0.96302(15) 0.89103(11)
C16_3 C 0.5543(5) 0.9480(4) 0.85495(15)
H9_3 H 0.5684 0.9840 0.8243
C17_3 C 0.5816(4) 0.8822(4) 0.85693(15)
H10_3 H 0.6171 0.8792 0.8292
N3_3 N 0.57851(18) 0.70530(13) 0.94212(7)
H12_3 H 0.5475 0.7141 0.9667
O3_3 O 0.62922(26) 0.7429(2) 0.85998(9)
C21_6 C 0.91640(18) 0.36212(25) 0.35023(9)
H14_6 H 0.9007 0.3611 0.3858
C24_6 C 0.96473(16) 0.36213(26) 0.24953(10)
H16_6 H 0.9779 0.3595 0.2138
C25_6 C 0.87578(17) 0.33477(25) 0.26499(10)
H17_6 H 0.8302 0.3159 0.2388
C7_4 C 0.60512(21) 0.98865(15) 0.32963(9)
H4_4 H 0.5829 0.9436 0.3030
C8_4 C 0.60621(20) 0.96439(13) 0.37960(9)
C11_4 C 0.59311(27) 0.83871(18) 0.43492(10)
C12_4 C 0.55940(25) 0.73514(17) 0.43715(10)
C13_4 C 0.5092(3) 0.6773(2) 0.40275(17)
H7_4 H 0.4893 0.6976 0.3737
C14_4 C 0.4824(3) 0.5842(2) 0.40643(18)
H8_4 H 0.4402 0.5439 0.3814
C15_4 C 0.51200(21) 0.54898(15) 0.44230(11)
C16_4 C 0.5543(5) 0.6063(3) 0.47838(15)
H9_4 H 0.5684 0.5844 0.5090
C17_4 C 0.5816(4) 0.6994(2) 0.47640(15)
H10_4 H 0.6171 0.7379 0.5041
N3_4 N 0.57851(18) 0.87321(12) 0.39121(7)
H12_4 H 0.5475 0.8334 0.3666
O3_4 O 0.62922(26) 0.88632(17) 0.47335(9)
C22_4 C 0.39488(21) 0.01135(15) 0.32963(9)
H15_4 H 0.4171 0.0564 0.3030
C23_4 C 0.39379(20) 0.03561(13) 0.37960(9)
C26_4 C 0.40689(27) 0.16129(18) 0.43492(10)
C27_4 C 0.44060(25) 0.26486(17) 0.43715(10)
C28_4 C 0.4908(3) 0.3227(2) 0.40275(17)
H18_4 H 0.5107 0.3024 0.3737
C29_4 C 0.5176(3) 0.4158(2) 0.40643(18)
H19_4 H 0.5598 0.4561 0.3814
C30_4 C 0.48800(21) 0.45102(15) 0.44230(11)
C31_4 C 0.4457(5) 0.3937(3) 0.47838(15)
H20_4 H 0.4316 0.4156 0.5090
C32_4 C 0.4184(4) 0.3006(2) 0.47640(15)
H21_4 H 0.3829 0.2621 0.5041
N6_4 N 0.42149(18) 0.12679(12) 0.39121(7)
H23_4 H 0.4525 0.1666 0.3666
O7_4 O 0.37078(26) 0.11368(17) 0.47335(9)
C22_5 C 0.38353(15) 0.98865(15) 0.67037(9)
H15_5 H 0.3607 0.9436 0.6970
C23_5 C 0.35818(15) 0.96439(13) 0.62040(9)
C26_5 C 0.2456(2) 0.83871(18) 0.56508(10)
C27_5 C 0.17574(18) 0.73514(17) 0.56285(10)
C28_5 C 0.1681(2) 0.6773(2) 0.59725(17)
H18_5 H 0.2083 0.6976 0.6263
C29_5 C 0.1018(2) 0.5842(2) 0.59357(18)
H19_5 H 0.1037 0.5439 0.6186
C30_5 C 0.03698(15) 0.54898(15) 0.55770(11)
C31_5 C 0.0520(4) 0.6063(3) 0.52162(15)
H20_5 H 0.0160 0.5844 0.4910
C32_5 C 0.1178(4) 0.6994(2) 0.52360(15)
H21_5 H 0.1208 0.7379 0.4959
N6_5 N 0.29470(13) 0.87321(12) 0.60879(7)
H23_5 H 0.2859 0.8334 0.6334
O7_5 O 0.2571(2) 0.88632(17) 0.52665(9)
C7_5 C 0.61647(15) 0.01135(15) 0.67037(9)
H4_5 H 0.6393 0.0564 0.6970
C8_5 C 0.64182(15) 0.03561(13) 0.62040(9)
C11_5 C 0.7544(2) 0.16129(18) 0.56508(10)
C12_5 C 0.82426(18) 0.26486(17) 0.56285(10)
C13_5 C 0.8319(2) 0.3227(2) 0.59725(17)
H7_5 H 0.7917 0.3024 0.6263
C14_5 C 0.8982(2) 0.4158(2) 0.59357(18)
H8_5 H 0.8963 0.4561 0.6186
C15_5 C 0.96302(15) 0.45102(15) 0.55770(11)
C16_5 C 0.9480(4) 0.3937(3) 0.52162(15)
H9_5 H 0.9840 0.4156 0.4910
C17_5 C 0.8822(4) 0.3006(2) 0.52360(15)
H10_5 H 0.8792 0.2621 0.4959
N3_5 N 0.70530(13) 0.12679(12) 0.60879(7)
H12_5 H 0.7141 0.1666 0.6334
O3_5 O 0.7429(2) 0.11368(17) 0.52665(9)
C7_6 C 0.98865(15) 0.60512(21) 0.33703(9)
H4_6 H 0.9436 0.5829 0.3636
C8_6 C 0.96439(13) 0.60621(20) 0.28706(9)
C11_6 C 0.83871(18) 0.59311(27) 0.23174(10)
C12_6 C 0.73514(17) 0.55940(25) 0.22951(10)
C13_6 C 0.6773(2) 0.5092(3) 0.26391(17)
H7_6 H 0.6976 0.4893 0.2929
C14_6 C 0.5842(2) 0.4824(3) 0.26023(18)
H8_6 H 0.5439 0.4402 0.2852
C15_6 C 0.54898(15) 0.51200(21) 0.22436(11)
C16_6 C 0.6063(3) 0.5543(5) 0.18828(15)
H9_6 H 0.5844 0.5684 0.1576
C17_6 C 0.6994(2) 0.5816(4) 0.19026(15)
H10_6 H 0.7379 0.6171 0.1625
N3_6 N 0.87321(12) 0.57851(18) 0.27545(7)
H12_6 H 0.8334 0.5475 0.3000
O3_6 O 0.88632(17) 0.62922(26) 0.19331(9)
C22_6 C 0.01135(15) 0.39488(21) 0.33703(9)
H15_6 H 0.0564 0.4171 0.3636
C23_6 C 0.03561(13) 0.39379(20) 0.28706(9)
C26_6 C 0.16129(18) 0.40689(27) 0.23174(10)
C27_6 C 0.26486(17) 0.44060(25) 0.22951(10)
C28_6 C 0.3227(2) 0.4908(3) 0.26391(17)
H18_6 H 0.3024 0.5107 0.2929
C29_6 C 0.4158(2) 0.5176(3) 0.26023(18)
H19_6 H 0.4561 0.5598 0.2852
C30_6 C 0.45102(15) 0.48800(21) 0.22436(11)
C31_6 C 0.3937(3) 0.4457(5) 0.18828(15)
H20_6 H 0.4156 0.4316 0.1576
C32_6 C 0.3006(2) 0.4184(4) 0.19026(15)
H21_6 H 0.2621 0.3829 0.1625
N6_6 N 0.12679(12) 0.42149(18) 0.27545(7)
H23_6 H 0.1666 0.4525 0.3000
O7_6 O 0.11368(17) 0.37078(26) 0.19331(9)
loop_
_geom_bond_atom_site_label_1
_geom_bond_atom_site_label_2
_geom_bond_site_symmetry_1
_geom_bond_site_symmetry_2
C1 C2 1_555 1_555
C2 C3 1_555 1_555
C3 H1 1_555 1_555
C4 C2 1_555 1_555
H2 C4 1_555 1_555
C5 C4 1_555 1_555
H5 C9 1_555 1_555
C10 C9 1_555 1_555
H6 C10 1_555 1_555
N1 C5 1_555 1_555
H11 N1 1_555 1_555
O1 C1 1_555 1_555
O2 C1 1_555 1_555
Zn1 N2 1_555 1_555
C18 C19 1_555 1_555
C19 C3 1_555 1_555
C20 C5 1_555 1_555
H13 C20 1_555 1_555
H22 N1 1_555 1_555
O4 C18 1_555 1_555
O6 C18 1_555 1_555
Zn2 O4 1_555 1_555
C10 N2 1_555 1_555
O1 Zn1 1_555 1_555
C19 C20 1_555 1_555
C6 H3 1_555 1_555
N5 Zn1_2 1_555 1_555
O5 Zn1_2 1_555 1_555
C21 H14 1_555 1_555
H16 C24 1_555 1_555
C25 C24 1_555 1_555
H17 C25 1_555 1_555
N4 C21 1_555 1_555
Zn2 N4 1_555 1_555
C25 N4 1_555 1_555
C1_2 C2_2 1_555 1_555
C2_2 C3_2 1_555 1_555
C3_2 H1_2 1_555 1_555
C4_2 C2_2 1_555 1_555
H2_2 C4_2 1_555 1_555
C5_2 C4_2 1_555 1_555
C6_2 H3_2 1_555 1_555
C7 C6_2 1_555 1_555
H4 C7 1_555 1_555
C8 C7 1_555 1_555
C9_2 C8 1_555 1_555
H5_2 C9_2 1_555 1_555
C10_2 C9_2 1_555 1_555
H6_2 C10_2 1_555 1_555
C11 C12 1_555 1_555
C12 C13 1_555 1_555
C13 H7 1_555 1_555
C14 C13 1_555 1_555
H8 C14 1_555 1_555
C15 C14 1_555 1_555
C16 C15 1_555 1_555
H9 C16 1_555 1_555
C17 C12 1_555 1_555
H10 C17 1_555 1_555
N1_2 C5_2 1_555 1_555
H11_2 N1_2 1_555 1_555
N2_2 C6_2 1_555 1_555
N3 C8 1_555 1_555
H12 N3 1_555 1_555
O1_2 C1_2 1_555 1_555
O2_2 C1_2 1_555 1_555
O3 C11 1_555 1_555
Zn1_3 N2_2 1_555 1_555
C18_2 C19_2 1_555 1_555
C19_2 C3_2 1_555 1_555
C20_2 C5_2 1_555 1_555
H13_2 C20_2 1_555 1_555
H22_2 N1_2 1_555 1_555
N5_2 Zn1_3 1_555 1_555
O5 C18_2 1_555 1_555
O5_2 Zn1_3 1_555 1_555
O6_2 C18_2 1_555 1_555
C10_2 N2_2 1_555 1_555
C11 N3 1_555 1_555
C16 C17 1_555 1_555
O1_2 Zn1_3 1_555 1_555
C19_2 C20_2 1_555 1_555
C1_3 C2_3 1_555 1_555
C2_3 C3_3 1_555 1_555
C3_3 H1_3 1_555 1_555
C4_3 C2_3 1_555 1_555
H2_3 C4_3 1_555 1_555
C5_3 C4_3 1_555 1_555
N1_3 C5_3 1_555 1_555
H11_3 N1_3 1_555 1_555
O1_3 C1_3 1_555 1_555
O2_3 C1_3 1_555 1_555
C18_3 C19_3 1_555 1_555
C19_3 C3_3 1_555 1_555
C20_3 C5_3 1_555 1_555
H13_3 C20_3 1_555 1_555
H22_3 N1_3 1_555 1_555
N5_3 Zn2 1_555 1_555
O5_2 C18_3 1_555 1_555
O6_3 C18_3 1_555 1_555
O1_3 Zn2 1_555 1_555
C19_3 C20_3 1_555 1_555
C6_3 H3_3 1_555 1_555
H5_3 C9_3 1_555 1_555
C10_3 C9_3 1_555 1_555
H6_3 C10_3 1_555 1_555
N5_2 C6_3 1_555 1_555
C10_3 N5_2 1_555 1_555
C21_2 H14_2 1_555 1_555
C22 C21_2 1_555 1_555
H15 C22 1_555 1_555
C24_2 C23 1_555 1_555
H16_2 C24_2 1_555 1_555
C25_2 C24_2 1_555 1_555
H17_2 C25_2 1_555 1_555
C26 C27 1_555 1_555
C27 C28 1_555 1_555
C28 H18 1_555 1_555
C29 C28 1_555 1_555
H19 C29 1_555 1_555
C31 C30 1_555 1_555
H20 C31 1_555 1_555
C32 C27 1_555 1_555
H21 C32 1_555 1_555
N6 C23 1_555 1_555
H23 N6 1_555 1_555
O7 C26 1_555 1_555
C25_2 N5 1_555 1_555
C26 N6 1_555 1_555
C29 C30 1_555 1_555
C31 C32 1_555 1_555
C6_4 H3_4 1_555 1_555
H5_4 C9_4 1_555 1_555
C10_4 C9_4 1_555 1_555
H6_4 C10_4 1_555 1_555
N5_3 C6_4 1_555 1_555
C10_4 N5_3 1_555 1_555
C11_2 C12_2 1_555 1_555
C12_2 C13_2 1_555 1_555
C13_2 H7_2 1_555 1_555
C14_2 C13_2 1_555 1_555
H8_2 C14_2 1_555 1_555
C15_2 C14_2 1_555 1_555
C16_2 C15_2 1_555 1_555
H9_2 C16_2 1_555 1_555
C17_2 C12_2 1_555 1_555
H10_2 C17_2 1_555 1_555
N3_2 C8_2 1_555 1_555
H12_2 N3_2 1_555 1_555
O3_2 C11_2 1_555 1_555
C11_2 N3_2 1_555 1_555
C16_2 C17_2 1_555 1_555
H4_2 C7_2 1_555 1_555
C26_2 C27_2 1_555 1_555
C27_2 C28_2 1_555 1_555
C28_2 H18_2 1_555 1_555
C29_2 C28_2 1_555 1_555
H19_2 C29_2 1_555 1_555
C31_2 C30_2 1_555 1_555
H20_2 C31_2 1_555 1_555
C32_2 C27_2 1_555 1_555
H21_2 C32_2 1_555 1_555
N6_2 C23_2 1_555 1_555
H23_2 N6_2 1_555 1_555
O7_2 C26_2 1_555 1_555
C26_2 N6_2 1_555 1_555
C29_2 C30_2 1_555 1_555
C31_2 C32_2 1_555 1_555
H15_2 C22_2 1_555 1_555
H16_3 C24_3 1_555 1_555
C25_3 C24_3 1_555 1_555
H17_3 C25_3 1_555 1_555
Zn3 N4_2 1_555 1_555
C25_3 N4_2 1_555 1_555
C21_3 H14_3 1_555 1_555
C1_4 C2_4 1_555 1_555
C2_4 C3_4 1_555 1_555
C3_4 H1_4 1_555 1_555
C4_4 C2_4 1_555 1_555
H2_4 C4_4 1_555 1_555
C5_4 C4_4 1_555 1_555
C6_5 H3_5 1_555 1_555
H5_5 C9_5 1_555 1_555
C10_5 C9_5 1_555 1_555
H6_5 C10_5 1_555 1_555
N1_4 C5_4 1_555 1_555
H11_4 N1_4 1_555 1_555
N2_3 C6_5 1_555 1_555
O1_4 C1_4 1_555 1_555
O2_4 C1_4 1_555 1_555
Zn1_4 N2_3 1_555 1_555
C18_4 C19_4 1_555 1_555
C19_4 C3_4 1_555 1_555
C20_4 C5_4 1_555 1_555
H13_4 C20_4 1_555 1_555
H22_4 N1_4 1_555 1_555
N5_4 Zn1_4 1_555 1_555
O4_2 C18_4 1_555 1_555
O5_3 Zn1_4 1_555 1_555
O6_4 C18_4 1_555 1_555
Zn2_2 O4_2 1_555 1_555
C10_5 N2_3 1_555 1_555
O1_4 Zn1_4 1_555 1_555
C19_4 C20_4 1_555 1_555
C21_4 H14_4 1_555 1_555
C22_3 C21_4 1_555 1_555
H15_3 C22_3 1_555 1_555
C23_3 C22_3 1_555 1_555
C24_4 C23_3 1_555 1_555
H16_4 C24_4 1_555 1_555
C25_4 C24_4 1_555 1_555
H17_4 C25_4 1_555 1_555
C26_3 C27_3 1_555 1_555
C27_3 C28_3 1_555 1_555
C28_3 H18_3 1_555 1_555
C29_3 C28_3 1_555 1_555
H19_3 C29_3 1_555 1_555
C31_3 C30_3 1_555 1_555
H20_3 C31_3 1_555 1_555
C32_3 C27_3 1_555 1_555
H21_3 C32_3 1_555 1_555
N4_3 C21_4 1_555 1_555
N6_3 C23_3 1_555 1_555
H23_3 N6_3 1_555 1_555
O7_3 C26_3 1_555 1_555
Zn2_2 N4_3 1_555 1_555
C25_4 N4_3 1_555 1_555
C26_3 N6_3 1_555 1_555
C29_3 C30_3 1_555 1_555
C31_3 C32_3 1_555 1_555
C1_5 C2_5 1_555 1_555
C2_5 C3_5 1_555 1_555
C3_5 H1_5 1_555 1_555
C4_5 C2_5 1_555 1_555
H2_5 C4_5 1_555 1_555
C5_5 C4_5 1_555 1_555
N1_5 C5_5 1_555 1_555
H11_5 N1_5 1_555 1_555
O1_5 C1_5 1_555 1_555
O2_5 C1_5 1_555 1_555
C18_5 C19_5 1_555 1_555
C19_5 C3_5 1_555 1_555
C20_5 C5_5 1_555 1_555
H13_5 C20_5 1_555 1_555
H22_5 N1_5 1_555 1_555
O5_3 C18_5 1_555 1_555
O6_5 C18_5 1_555 1_555
O1_5 Zn3 1_555 1_555
C19_5 C20_5 1_555 1_555
N5_5 Zn3_2 1_555 1_555
O5_4 Zn3_2 1_555 1_555
C1_6 C2_6 1_555 1_555
C2_6 C3_6 1_555 1_555
C3_6 H1_6 1_555 1_555
C4_6 C2_6 1_555 1_555
H2_6 C4_6 1_555 1_555
C5_6 C4_6 1_555 1_555
N1_6 C5_6 1_555 1_555
H11_6 N1_6 1_555 1_555
O1_6 C1_6 1_555 1_555
O2_6 C1_6 1_555 1_555
C18_6 C19_6 1_555 1_555
C19_6 C3_6 1_555 1_555
C20_6 C5_6 1_555 1_555
H13_6 C20_6 1_555 1_555
H22_6 N1_6 1_555 1_555
N5_6 Zn2_2 1_555 1_555
O5_4 C18_6 1_555 1_555
O6_6 C18_6 1_555 1_555
O1_6 Zn2_2 1_555 1_555
C19_6 C20_6 1_555 1_555
C21_5 H14_5 1_555 1_555
H16_5 C24_5 1_555 1_555
C25_5 C24_5 1_555 1_555
H17_5 C25_5 1_555 1_555
N5_6 C21_5 1_555 1_555
C25_5 N5_6 1_555 1_555
C6_6 H3_6 1_555 1_555
C7_3 C6_6 1_555 1_555
H4_3 C7_3 1_555 1_555
C9_6 C8_3 1_555 1_555
H5_6 C9_6 1_555 1_555
C10_6 C9_6 1_555 1_555
H6_6 C10_6 1_555 1_555
C11_3 C12_3 1_555 1_555
C12_3 C13_3 1_555 1_555
C13_3 H7_3 1_555 1_555
C14_3 C13_3 1_555 1_555
H8_3 C14_3 1_555 1_555
C15_3 C14_3 1_555 1_555
C16_3 C15_3 1_555 1_555
H9_3 C16_3 1_555 1_555
C17_3 C12_3 1_555 1_555
H10_3 C17_3 1_555 1_555
N3_3 C8_3 1_555 1_555
H12_3 N3_3 1_555 1_555
O3_3 C11_3 1_555 1_555
C10_6 N5_5 1_555 1_555
C11_3 N3_3 1_555 1_555
C16_3 C17_3 1_555 1_555
C21_6 H14_6 1_555 1_555
H16_6 C24_6 1_555 1_555
C25_6 C24_6 1_555 1_555
H17_6 C25_6 1_555 1_555
N5_4 C21_6 1_555 1_555
C25_6 N5_4 1_555 1_555
H4_4 C7_4 1_555 1_555
C8_4 C7_4 1_555 1_555
C11_4 C12_4 1_555 1_555
C12_4 C13_4 1_555 1_555
C13_4 H7_4 1_555 1_555
C14_4 C13_4 1_555 1_555
H8_4 C14_4 1_555 1_555
C15_4 C14_4 1_555 1_555
C16_4 C15_4 1_555 1_555
H9_4 C16_4 1_555 1_555
C17_4 C12_4 1_555 1_555
H10_4 C17_4 1_555 1_555
N3_4 C8_4 1_555 1_555
H12_4 N3_4 1_555 1_555
O3_4 C11_4 1_555 1_555
H15_4 C22_4 1_555 1_555
C23_4 C22_4 1_555 1_555
C26_4 C27_4 1_555 1_555
C27_4 C28_4 1_555 1_555
C28_4 H18_4 1_555 1_555
C29_4 C28_4 1_555 1_555
H19_4 C29_4 1_555 1_555
C30_4 C15_4 1_555 1_555
C31_4 C30_4 1_555 1_555
H20_4 C31_4 1_555 1_555
C32_4 C27_4 1_555 1_555
H21_4 C32_4 1_555 1_555
N6_4 C23_4 1_555 1_555
H23_4 N6_4 1_555 1_555
O7_4 C26_4 1_555 1_555
C11_4 N3_4 1_555 1_555
C16_4 C17_4 1_555 1_555
C26_4 N6_4 1_555 1_555
C29_4 C30_4 1_555 1_555
C31_4 C32_4 1_555 1_555
H15_5 C22_5 1_555 1_555
C23_5 C22_5 1_555 1_555
C26_5 C27_5 1_555 1_555
C27_5 C28_5 1_555 1_555
C28_5 H18_5 1_555 1_555
C29_5 C28_5 1_555 1_555
H19_5 C29_5 1_555 1_555
C31_5 C30_5 1_555 1_555
H20_5 C31_5 1_555 1_555
C32_5 C27_5 1_555 1_555
H21_5 C32_5 1_555 1_555
N6_5 C23_5 1_555 1_555
H23_5 N6_5 1_555 1_555
O7_5 C26_5 1_555 1_555
C26_5 N6_5 1_555 1_555
C29_5 C30_5 1_555 1_555
C31_5 C32_5 1_555 1_555
H4_5 C7_5 1_555 1_555
C8_5 C7_5 1_555 1_555
C11_5 C12_5 1_555 1_555
C12_5 C13_5 1_555 1_555
C13_5 H7_5 1_555 1_555
C14_5 C13_5 1_555 1_555
H8_5 C14_5 1_555 1_555
C15_5 C14_5 1_555 1_555
C16_5 C15_5 1_555 1_555
H9_5 C16_5 1_555 1_555
C17_5 C12_5 1_555 1_555
H10_5 C17_5 1_555 1_555
N3_5 C8_5 1_555 1_555
H12_5 N3_5 1_555 1_555
O3_5 C11_5 1_555 1_555
C11_5 N3_5 1_555 1_555
C16_5 C17_5 1_555 1_555
H4_6 C7_6 1_555 1_555
C8_6 C7_6 1_555 1_555
C11_6 C12_6 1_555 1_555
C12_6 C13_6 1_555 1_555
C13_6 H7_6 1_555 1_555
C14_6 C13_6 1_555 1_555
H8_6 C14_6 1_555 1_555
C15_6 C14_6 1_555 1_555
C16_6 C15_6 1_555 1_555
H9_6 C16_6 1_555 1_555
C17_6 C12_6 1_555 1_555
H10_6 C17_6 1_555 1_555
N3_6 C8_6 1_555 1_555
H12_6 N3_6 1_555 1_555
O3_6 C11_6 1_555 1_555
H15_6 C22_6 1_555 1_555
C23_6 C22_6 1_555 1_555
C26_6 C27_6 1_555 1_555
C27_6 C28_6 1_555 1_555
C28_6 H18_6 1_555 1_555
C29_6 C28_6 1_555 1_555
H19_6 C29_6 1_555 1_555
C30_6 C15_6 1_555 1_555
C31_6 C30_6 1_555 1_555
H20_6 C31_6 1_555 1_555
C32_6 C27_6 1_555 1_555
H21_6 C32_6 1_555 1_555
N6_6 C23_6 1_555 1_555
H23_6 N6_6 1_555 1_555
O7_6 C26_6 1_555 1_555
C11_6 N3_6 1_555 1_555
C16_6 C17_6 1_555 1_555
C26_6 N6_6 1_555 1_555
C29_6 C30_6 1_555 1_555
C31_6 C32_6 1_555 1_555

#END
