
###############################################################################
#
# This file contains modified crystal structure data generated from the
# MOF subset of the Cambridge Structural Database (CSD) v543 
# hosted by the Cambridge Crystallographic Data Centre (CCDC).
#
# This work is licensed under the Creative Commons
# Attribution-NonCommercial-ShareAlike 4.0 International License.
# To view a copy of this license, visit
# http://creativecommons.org/licenses/by-nc-sa/4.0/
# or send a letter to
# Creative Commons, PO Box 1866, Mountain View, CA 94042, USA.
#
# CIF created using the CSD Python API on 29 September 2022
# The structure has been converted into the P1 space group
# The structure has a 3D framework
# The original CSD entry RAYLOU is in the hexagonal crystal system
# The original CSD entry RAYLOU is in a Sohncke space group
# The framework has been calculated to contain at least 10.0% void space
# The void calculation uses a probe of radius 1.32A, grid spacing 0.4
#
###############################################################################

data_RAYLOU
_chemical_formula_moiety         '(C196 H128 N32 O48 Zn6)n'
_symmetry_cell_setting           triclinic
_symmetry_space_group_name_H-M   'P 1'
_symmetry_Int_Tables_number      1
_space_group_name_Hall           'P 1'
loop_
_symmetry_equiv_pos_site_id
_symmetry_equiv_pos_as_xyz
1 x,y,z
_cell_length_a                   16.5094(8)
_cell_length_b                   16.5094(8)
_cell_length_c                   25.701(2)
_cell_angle_alpha                90
_cell_angle_beta                 90
_cell_angle_gamma                120
_cell_volume                     6066.57
loop_
_atom_site_label
_atom_site_type_symbol
_atom_site_fract_x
_atom_site_fract_y
_atom_site_fract_z
C21 C 0.6502(3) 0.1198(2) 0.90116(11)
H13 H 0.6627 0.1648 0.9265
C22 C 0.6187(3) 0.0305(2) 0.91719(12)
H14 H 0.6121 0.0164 0.9525
C25 C 0.6425(3) 0.0808(2) 0.81764(12)
H16 H 0.6525 0.0972 0.7826
N4 N 0.66398(16) 0.14683(15) 0.85220(8)
Zn3 Zn 0.715342(17) 0.284658(17) 0.8334
C21_2 C 0.8802(2) 0.5304(4) 0.56783(11)
H13_2 H 0.8352 0.4979 0.5932
C22_2 C 0.9695(2) 0.5882(4) 0.58386(12)
H14_2 H 0.9836 0.5957 0.6192
C25_2 C 0.9192(2) 0.5617(4) 0.48431(12)
H16_2 H 0.9028 0.5553 0.4493
N4_2 N 0.85317(15) 0.51715(22) 0.51887(8)
Zn3_2 Zn 0.715342(17) 0.430684(24) 0.5000
C21_3 C 0.4696(4) 0.3498(3) 0.23449(11)
H13_3 H 0.5021 0.3373 0.2598
C22_3 C 0.4118(4) 0.3813(3) 0.25052(12)
H14_3 H 0.4043 0.3879 0.2858
C23 C 0.36455(28) 0.4030(2) 0.21479(11)
C24 C 0.3823(4) 0.3940(3) 0.16418(13)
H15 H 0.3563 0.4129 0.1381
C25_3 C 0.4383(4) 0.3575(3) 0.15097(12)
H16_3 H 0.4447 0.3475 0.1159
C26 C 0.2668(4) 0.4367(3) 0.27367(12)
C27 C 0.19214(28) 0.4616(2) 0.27556(12)
C28 C 0.1446(4) 0.4493(3) 0.32073(13)
H17 H 0.1644 0.4326 0.3506
C29 C 0.0674(4) 0.4612(3) 0.32318(13)
H18 H 0.0329 0.4466 0.3538
C30 C 0.04125(28) 0.4935(2) 0.28215(11)
C31 C 0.0968(4) 0.5179(3) 0.23969(15)
H19 H 0.0849 0.5470 0.2121
C32 C 0.1730(4) 0.5010(3) 0.23550(13)
H20 H 0.2089 0.5171 0.2053
N4_3 N 0.48285(22) 0.33602(16) 0.18553(8)
N6 N 0.30119(25) 0.43195(19) 0.22676(9)
H21 H 0.2808 0.4493 0.2007
O9 O 0.29667(35) 0.4207(3) 0.31290(9)
Zn3_3 Zn 0.569316(24) 0.284658(17) 0.1667
C3 C 0.70757(14) 0.4151(3) 0.0000
H1 H 0.6750 0.3501 0.0000
C5 C 0.80092(18) 0.6018(4) 0.0000
N1 N 0.8509(4) 0.7019(8) 0.0000
O3 O 0.8356(7) 0.7452(6) 0.0402(4)
C18 C 0.67461(27) 0.4116(2) 0.09654(10)
C19 C 0.71672(28) 0.46212(19) 0.04640(10)
C20 C 0.7644(6) 0.5576(3) 0.04546(16)
H12 H 0.7715 0.5916 0.0756
O5 O 0.61946(19) 0.32671(13) 0.09543(7)
O7 O 0.69631(22) 0.45978(16) 0.13660(8)
C1 C 0.73699(18) 0.4116(2) 0.90346(10)
C2 C 0.7454(2) 0.46212(19) 0.95360(10)
C3_2 C 0.70757(14) 0.4151(3) 1.0000
H1_2 H 0.6750 0.3501 1.0000
C4 C 0.7932(5) 0.5576(3) 0.95454(16)
H2 H 0.8201 0.5916 0.9244
C5_2 C 0.80092(18) 0.6018(4) 1.0000
N1_2 N 0.8509(4) 0.7019(8) 1.0000
O1 O 0.70725(14) 0.32671(13) 0.90457(7)
O2 O 0.76347(15) 0.45978(16) 0.86340(8)
N5 N 0.85317(15) 0.33602(16) 0.81447(8)
O6 O 0.67329(13) 0.29275(14) 0.76210(7)
O8 O 0.9096(9) 0.7452(6) 0.9598(4)
C1_2 C 0.5884(2) 0.32539(27) 0.57013(10)
C2_2 C 0.53788(19) 0.28328(28) 0.62027(10)
C3_3 C 0.5849(3) 0.29247(33) 0.6667
H1_3 H 0.6499 0.3249 0.6667
C4_2 C 0.4424(3) 0.2356(6) 0.62121(16)
H2_2 H 0.4084 0.2285 0.5911
C5_3 C 0.3982(4) 0.19912(44) 0.6667
N1_3 N 0.2981(8) 0.1490(9) 0.6667
O1_2 O 0.67329(13) 0.38054(19) 0.57124(7)
O2_2 O 0.54022(16) 0.30369(22) 0.53007(8)
O3_2 O 0.2548(6) 0.0904(9) 0.7069(4)
C18_2 C 0.5884(2) 0.26301(34) 0.76321(10)
C19_2 C 0.53788(19) 0.25460(34) 0.71307(10)
C20_2 C 0.4424(3) 0.2068(7) 0.71213(16)
H12_2 H 0.4084 0.1799 0.7423
N5_2 N 0.66398(16) 0.51715(22) 0.48113(8)
O6_2 O 0.70725(14) 0.38054(19) 0.42876(7)
O7_2 O 0.54022(16) 0.23653(27) 0.80327(8)
O8_2 O 0.2548(6) 0.1644(11) 0.6265(4)
C1_3 C 0.67461(27) 0.26301(18) 0.23679(10)
C2_3 C 0.71672(28) 0.2546(2) 0.28693(10)
C3_4 C 0.70753(33) 0.29243(14) 0.3333
H1_4 H 0.6751 0.3250 0.3333
C4_3 C 0.7644(6) 0.2068(5) 0.28787(16)
H2_3 H 0.7715 0.1799 0.2577
C5_4 C 0.80088(44) 0.19908(18) 0.3333
N1_4 N 0.8510(9) 0.1491(4) 0.3333
O1_3 O 0.61946(19) 0.29275(14) 0.23790(7)
O2_3 O 0.69631(22) 0.23653(15) 0.19673(8)
O3_3 O 0.9096(9) 0.1644(7) 0.3735(4)
C18_3 C 0.73699(34) 0.32539(27) 0.42987(10)
C19_3 C 0.74540(34) 0.28328(28) 0.37973(10)
C20_3 C 0.7932(7) 0.2356(6) 0.37879(16)
H12_3 H 0.8201 0.2285 0.4089
N5_3 N 0.48285(22) 0.14683(15) 0.14780(8)
O7_3 O 0.76347(27) 0.30369(22) 0.46993(8)
O8_3 O 0.8356(11) 0.0904(9) 0.2931(4)
C6 C 0.8802(2) 0.3498(3) 0.76551(11)
H3 H 0.8352 0.3373 0.7402
C7 C 0.9695(2) 0.3813(3) 0.74948(12)
H4 H 0.9836 0.3879 0.7142
C10 C 0.9192(2) 0.3575(3) 0.84903(12)
H6 H 0.9028 0.3475 0.8841
C6_2 C 0.4696(4) 0.1198(2) 0.09884(11)
H3_2 H 0.5021 0.1648 0.0735
C7_2 C 0.4118(4) 0.0305(2) 0.08281(12)
H4_2 H 0.4043 0.0164 0.0475
C10_2 C 0.4383(4) 0.0808(2) 0.18236(12)
H6_2 H 0.4447 0.0972 0.2174
C6_3 C 0.6502(3) 0.5304(4) 0.43217(11)
H3_3 H 0.6627 0.4979 0.4068
C7_3 C 0.6187(3) 0.5882(4) 0.41614(12)
H4_3 H 0.6121 0.5957 0.3808
C8 C 0.5970(2) 0.63545(28) 0.45187(11)
C9 C 0.6060(3) 0.6177(4) 0.50248(13)
H5 H 0.5871 0.6437 0.5285
C10_3 C 0.6425(3) 0.5617(4) 0.51569(12)
H6_3 H 0.6525 0.5553 0.5507
C11 C 0.5633(3) 0.7332(4) 0.39299(12)
C12 C 0.5384(2) 0.80786(28) 0.39110(12)
C13 C 0.5507(3) 0.8554(4) 0.34593(13)
H7 H 0.5674 0.8356 0.3160
C14 C 0.5388(3) 0.9326(4) 0.34348(13)
H8 H 0.5534 0.9671 0.3128
C15 C 0.5065(2) 0.95875(28) 0.38451(11)
C16 C 0.4821(3) 0.9032(4) 0.42697(15)
H9 H 0.4530 0.9151 0.4545
C17 C 0.4990(3) 0.8270(4) 0.43116(13)
H10 H 0.4829 0.7911 0.4613
N3 N 0.56805(19) 0.69881(25) 0.43990(9)
H11 H 0.5507 0.7192 0.4659
O4 O 0.5793(3) 0.70333(35) 0.35376(9)
H7_2 H 0.4326 0.2682 0.0173
H8_2 H 0.4466 0.4137 0.0205
H17_2 H 0.5674 0.7318 0.0173
H18_2 H 0.5534 0.5863 0.0205
C8_2 C 0.4030(2) 0.03845(19) 0.88146(11)
C9_2 C 0.3940(3) 0.0117(2) 0.83085(13)
H5_2 H 0.4129 0.0566 0.8048
C11_2 C 0.4367(3) 0.1699(2) 0.94034(12)
C12_2 C 0.4616(2) 0.26946(19) 0.94223(12)
C13_2 C 0.4493(3) 0.3047(2) 0.98740(13)
C14_2 C 0.4612(3) 0.3938(2) 0.98985(13)
C15_2 C 0.4935(2) 0.45225(19) 0.94882(11)
C16_2 C 0.5179(3) 0.4211(2) 0.90636(15)
H9_2 H 0.5470 0.4621 0.8788
C17_2 C 0.5010(3) 0.3280(2) 0.90217(13)
H10_2 H 0.5171 0.3082 0.8720
N3_2 N 0.43195(19) 0.13076(17) 0.89343(9)
H11_2 H 0.4493 0.1685 0.8674
O4_2 O 0.4207(3) 0.12403(18) 0.97957(9)
C23_2 C 0.5970(2) 0.96155(19) 0.88146(11)
C24_2 C 0.6060(3) 0.9883(2) 0.83085(13)
H15_2 H 0.5871 0.9434 0.8048
C26_2 C 0.5633(3) 0.8301(2) 0.94034(12)
C27_2 C 0.5384(2) 0.73054(19) 0.94223(12)
C28_2 C 0.5507(3) 0.6953(2) 0.98740(13)
C29_2 C 0.5388(3) 0.6062(2) 0.98985(13)
C30_2 C 0.5065(2) 0.54775(19) 0.94882(11)
C31_2 C 0.4821(3) 0.5789(2) 0.90636(15)
H19_2 H 0.4530 0.5379 0.8788
C32_2 C 0.4990(3) 0.6720(2) 0.90217(13)
H20_2 H 0.4829 0.6918 0.8720
N6_2 N 0.56805(19) 0.86924(17) 0.89343(9)
H21_2 H 0.5507 0.8315 0.8674
O9_2 O 0.5793(3) 0.87597(18) 0.97957(9)
C3_5 C 0.29243(14) 0.5849(3) 0.0000
H1_5 H 0.3250 0.6499 0.0000
C5_5 C 0.19908(18) 0.3982(4) 0.0000
N1_5 N 0.1491(4) 0.2981(8) 0.0000
O3_4 O 0.1644(7) 0.2548(6) 0.0402(4)
C18_4 C 0.32539(27) 0.5884(2) 0.09654(10)
C19_4 C 0.28328(28) 0.53788(19) 0.04640(10)
C20_4 C 0.2356(6) 0.4424(3) 0.04546(16)
H12_4 H 0.2285 0.4084 0.0756
O5_2 O 0.38054(19) 0.67329(13) 0.09543(7)
O7_4 O 0.30369(22) 0.54022(16) 0.13660(8)
Zn2 Zn 0.430684(24) 0.715342(17) 0.1666
C1_4 C 0.26301(18) 0.5884(2) 0.90346(10)
C2_4 C 0.2546(2) 0.53788(19) 0.95360(10)
C3_6 C 0.29243(14) 0.5849(3) 1.0000
H1_6 H 0.3250 0.6499 1.0000
C4_4 C 0.2068(5) 0.4424(3) 0.95454(16)
H2_4 H 0.1799 0.4084 0.9244
C5_6 C 0.19908(18) 0.3982(4) 1.0000
C6_4 C 0.3498(3) 0.8802(2) 0.90116(11)
H3_4 H 0.3373 0.8352 0.9265
C7_4 C 0.3813(3) 0.9695(2) 0.91719(12)
H4_4 H 0.3879 0.9836 0.9525
C10_4 C 0.3575(3) 0.9192(2) 0.81764(12)
H6_4 H 0.3475 0.9028 0.7826
N1_6 N 0.1491(4) 0.2981(8) 1.0000
N2 N 0.33602(16) 0.85317(15) 0.85220(8)
O1_4 O 0.29275(14) 0.67329(13) 0.90457(7)
O2_4 O 0.23653(15) 0.54022(16) 0.86340(8)
Zn1 Zn 0.284658(17) 0.715342(17) 0.8333
N5_4 N 0.14683(15) 0.66398(16) 0.81447(8)
O6_3 O 0.32671(13) 0.70725(14) 0.76210(7)
O8_4 O 0.0904(9) 0.2548(6) 0.9598(4)
C1_5 C 0.4116(2) 0.67461(27) 0.57013(10)
C2_5 C 0.46212(19) 0.71672(28) 0.62027(10)
C3_7 C 0.4151(3) 0.70753(33) 0.6667
H1_7 H 0.3501 0.6751 0.6667
C4_5 C 0.5576(3) 0.7644(6) 0.62121(16)
H2_5 H 0.5916 0.7715 0.5911
C5_7 C 0.6018(4) 0.80088(44) 0.6667
C6_5 C 0.1198(2) 0.4696(4) 0.56783(11)
H3_5 H 0.1648 0.5021 0.5932
C7_5 C 0.0305(2) 0.4118(4) 0.58386(12)
H4_5 H 0.0164 0.4043 0.6192
C10_5 C 0.0808(2) 0.4383(4) 0.48431(12)
H6_5 H 0.0972 0.4447 0.4493
N1_7 N 0.7019(8) 0.8510(9) 0.6667
N2_2 N 0.14683(15) 0.48285(22) 0.51887(8)
O1_5 O 0.32671(13) 0.61946(19) 0.57124(7)
O2_5 O 0.45978(16) 0.69631(22) 0.53007(8)
O3_5 O 0.7452(6) 0.9096(9) 0.7069(4)
Zn1_2 Zn 0.284658(17) 0.569316(24) 0.5000
C18_5 C 0.4116(2) 0.73699(34) 0.76321(10)
C19_5 C 0.46212(19) 0.74540(34) 0.71307(10)
C20_5 C 0.5576(3) 0.7932(7) 0.71213(16)
H12_5 H 0.5916 0.8201 0.7423
N5_5 N 0.33602(16) 0.48285(22) 0.48113(8)
O6_4 O 0.29275(14) 0.61946(19) 0.42876(7)
O7_5 O 0.45978(16) 0.76347(27) 0.80327(8)
O8_5 O 0.7452(6) 0.8356(11) 0.6265(4)
C1_6 C 0.32539(27) 0.73699(18) 0.23679(10)
C2_6 C 0.28328(28) 0.7454(2) 0.28693(10)
C3_8 C 0.29247(33) 0.70757(14) 0.3333
H1_8 H 0.3249 0.6750 0.3333
C4_6 C 0.2356(6) 0.7932(5) 0.28787(16)
H2_6 H 0.2285 0.8201 0.2577
C5_8 C 0.19912(44) 0.80092(18) 0.3333
C6_6 C 0.5304(4) 0.6502(3) 0.23449(11)
H3_6 H 0.4979 0.6627 0.2598
C7_6 C 0.5882(4) 0.6187(3) 0.25052(12)
H4_6 H 0.5957 0.6121 0.2858
C8_3 C 0.63545(28) 0.5970(2) 0.21479(11)
C9_3 C 0.6177(4) 0.6060(3) 0.16418(13)
H5_3 H 0.6437 0.5871 0.1381
C10_6 C 0.5617(4) 0.6425(3) 0.15097(12)
H6_6 H 0.5553 0.6525 0.1159
C11_3 C 0.7332(4) 0.5633(3) 0.27367(12)
C12_3 C 0.80786(28) 0.5384(2) 0.27556(12)
C13_3 C 0.8554(4) 0.5507(3) 0.32073(13)
H7_3 H 0.8356 0.5674 0.3506
C14_3 C 0.9326(4) 0.5388(3) 0.32318(13)
H8_3 H 0.9671 0.5534 0.3538
C15_3 C 0.95875(28) 0.5065(2) 0.28215(11)
C16_3 C 0.9032(4) 0.4821(3) 0.23969(15)
H9_3 H 0.9151 0.4530 0.2121
C17_3 C 0.8270(4) 0.4990(3) 0.23550(13)
H10_3 H 0.7911 0.4829 0.2053
N1_8 N 0.1490(9) 0.8509(4) 0.3333
N2_3 N 0.51715(22) 0.66398(16) 0.18553(8)
N3_3 N 0.69881(25) 0.56805(19) 0.22676(9)
H11_3 H 0.7192 0.5507 0.2007
O1_6 O 0.38054(19) 0.70725(14) 0.23790(7)
O2_6 O 0.30369(22) 0.76347(15) 0.19673(8)
O3_6 O 0.0904(9) 0.8356(7) 0.3735(4)
O4_3 O 0.70333(35) 0.5793(3) 0.31290(9)
C18_6 C 0.26301(34) 0.67461(27) 0.42987(10)
C19_6 C 0.25460(34) 0.71672(28) 0.37973(10)
C20_6 C 0.2068(7) 0.7644(6) 0.37879(16)
H12_6 H 0.1799 0.7715 0.4089
N5_6 N 0.51715(22) 0.85317(15) 0.14780(8)
O7_6 O 0.23653(27) 0.69631(22) 0.46993(8)
O8_6 O 0.1644(11) 0.9096(9) 0.2931(4)
C21_4 C 0.1198(2) 0.6502(3) 0.76551(11)
H13_4 H 0.1648 0.6627 0.7402
C22_4 C 0.0305(2) 0.6187(3) 0.74948(12)
H14_4 H 0.0164 0.6121 0.7142
C25_4 C 0.0808(2) 0.6425(3) 0.84903(12)
H16_4 H 0.0972 0.6525 0.8841
C21_5 C 0.5304(4) 0.8802(2) 0.09884(11)
H13_5 H 0.4979 0.8352 0.0735
C22_5 C 0.5882(4) 0.9695(2) 0.08281(12)
H14_5 H 0.5957 0.9836 0.0475
C25_5 C 0.5617(4) 0.9192(2) 0.18236(12)
H16_5 H 0.5553 0.9028 0.2174
C21_6 C 0.3498(3) 0.4696(4) 0.43217(11)
H13_6 H 0.3373 0.5021 0.4068
C22_6 C 0.3813(3) 0.4118(4) 0.41614(12)
H14_6 H 0.3879 0.4043 0.3808
C23_3 C 0.4030(2) 0.36455(28) 0.45187(11)
C24_3 C 0.3940(3) 0.3823(4) 0.50248(13)
H15_3 H 0.4129 0.3563 0.5285
C25_6 C 0.3575(3) 0.4383(4) 0.51569(12)
H16_6 H 0.3475 0.4447 0.5507
C26_3 C 0.4367(3) 0.2668(4) 0.39299(12)
C27_3 C 0.4616(2) 0.19214(28) 0.39110(12)
C28_3 C 0.4493(3) 0.1446(4) 0.34593(13)
H17_3 H 0.4326 0.1644 0.3160
C29_3 C 0.4612(3) 0.0674(4) 0.34348(13)
H18_3 H 0.4466 0.0329 0.3128
C30_3 C 0.4935(2) 0.04125(28) 0.38451(11)
C31_3 C 0.5179(3) 0.0968(4) 0.42697(15)
H19_3 H 0.5470 0.0849 0.4545
C32_3 C 0.5010(3) 0.1730(4) 0.43116(13)
H20_3 H 0.5171 0.2089 0.4613
N6_3 N 0.43195(19) 0.30119(25) 0.43990(9)
H21_3 H 0.4493 0.2808 0.4659
O9_3 O 0.4207(3) 0.29667(35) 0.35376(9)
C8_4 C 0.96155(19) 0.36455(28) 0.54813(11)
C9_4 C 0.9883(2) 0.3823(4) 0.49752(13)
H5_4 H 0.9434 0.3563 0.4715
C11_4 C 0.8301(2) 0.2668(4) 0.60701(12)
C12_4 C 0.73054(19) 0.19214(28) 0.60890(12)
C13_4 C 0.6953(2) 0.1446(4) 0.65407(13)
H7_4 H 0.7318 0.1644 0.6840
C14_4 C 0.6062(2) 0.0674(4) 0.65652(13)
H8_4 H 0.5863 0.0329 0.6872
C15_4 C 0.54775(19) 0.04125(28) 0.61549(11)
C16_4 C 0.5789(2) 0.0968(4) 0.57303(15)
H9_4 H 0.5379 0.0849 0.5455
C17_4 C 0.6720(2) 0.1730(4) 0.56884(13)
H10_4 H 0.6918 0.2089 0.5387
N3_4 N 0.86924(17) 0.30119(25) 0.56010(9)
H11_4 H 0.8315 0.2808 0.5341
O4_4 O 0.87597(18) 0.29667(35) 0.64624(9)
C23_4 C 0.03845(19) 0.63545(28) 0.54813(11)
C24_4 C 0.0117(2) 0.6177(4) 0.49752(13)
H15_4 H 0.0566 0.6437 0.4715
C26_4 C 0.1699(2) 0.7332(4) 0.60701(12)
C27_4 C 0.26946(19) 0.80786(28) 0.60890(12)
C28_4 C 0.3047(2) 0.8554(4) 0.65407(13)
H17_4 H 0.2682 0.8356 0.6840
C29_4 C 0.3938(2) 0.9326(4) 0.65652(13)
H18_4 H 0.4137 0.9671 0.6872
C30_4 C 0.45225(19) 0.95875(28) 0.61549(11)
C31_4 C 0.4211(2) 0.9032(4) 0.57303(15)
H19_4 H 0.4621 0.9151 0.5455
C32_4 C 0.3280(2) 0.8270(4) 0.56884(13)
H20_4 H 0.3082 0.7911 0.5387
N6_4 N 0.13076(17) 0.69881(25) 0.56010(9)
H21_4 H 0.1685 0.7192 0.5341
O9_4 O 0.12403(18) 0.70333(35) 0.64624(9)
C8_5 C 0.03845(19) 0.4030(2) 0.78521(11)
C9_5 C 0.0117(2) 0.3940(3) 0.83582(13)
H5_5 H 0.0566 0.4129 0.8619
C11_5 C 0.1699(2) 0.4367(3) 0.72633(12)
C12_5 C 0.26946(19) 0.4616(2) 0.72444(12)
C13_5 C 0.3047(2) 0.4493(3) 0.67927(13)
H7_5 H 0.2682 0.4326 0.6494
C14_5 C 0.3938(2) 0.4612(3) 0.67682(13)
H8_5 H 0.4137 0.4466 0.6462
C15_5 C 0.45225(19) 0.4935(2) 0.71785(11)
C16_5 C 0.4211(2) 0.5179(3) 0.76031(15)
H9_5 H 0.4621 0.5470 0.7879
C17_5 C 0.3280(2) 0.5010(3) 0.76450(13)
H10_5 H 0.3082 0.5171 0.7947
N3_5 N 0.13076(17) 0.43195(19) 0.77324(9)
H11_5 H 0.1685 0.4493 0.7993
O4_5 O 0.12403(18) 0.4207(3) 0.68710(9)
C23_5 C 0.96155(19) 0.5970(2) 0.78521(11)
C24_5 C 0.9883(2) 0.6060(3) 0.83582(13)
H15_5 H 0.9434 0.5871 0.8619
C26_5 C 0.8301(2) 0.5633(3) 0.72633(12)
C27_5 C 0.73054(19) 0.5384(2) 0.72444(12)
C28_5 C 0.6953(2) 0.5507(3) 0.67927(13)
H17_5 H 0.7318 0.5674 0.6494
C29_5 C 0.6062(2) 0.5388(3) 0.67682(13)
H18_5 H 0.5863 0.5534 0.6462
C30_5 C 0.54775(19) 0.5065(2) 0.71785(11)
C31_5 C 0.5789(2) 0.4821(3) 0.76031(15)
H19_5 H 0.5379 0.4530 0.7879
C32_5 C 0.6720(2) 0.4990(3) 0.76450(13)
H20_5 H 0.6918 0.4829 0.7947
N6_5 N 0.86924(17) 0.56805(19) 0.77324(9)
H21_5 H 0.8315 0.5507 0.7993
O9_5 O 0.87597(18) 0.5793(3) 0.68710(9)
C8_6 C 0.36455(28) 0.96155(19) 0.11854(11)
C9_6 C 0.3823(4) 0.9883(2) 0.16915(13)
H5_6 H 0.3563 0.9434 0.1952
C11_6 C 0.2668(4) 0.8301(2) 0.05966(12)
C12_6 C 0.19214(28) 0.73054(19) 0.05777(12)
C13_6 C 0.1446(4) 0.6953(2) 0.01260(13)
C14_6 C 0.0674(4) 0.6062(2) 0.01015(13)
C15_6 C 0.04125(28) 0.54775(19) 0.05118(11)
C16_6 C 0.0968(4) 0.5789(2) 0.09364(15)
H9_6 H 0.0849 0.5379 0.1212
C17_6 C 0.1730(4) 0.6720(2) 0.09783(13)
H10_6 H 0.2089 0.6918 0.1280
N3_6 N 0.30119(25) 0.86924(17) 0.10657(9)
H11_6 H 0.2808 0.8315 0.1326
O4_6 O 0.29667(35) 0.87597(18) 0.02043(9)
H7_6 H 0.1644 0.7318 0.9827
H8_6 H 0.0329 0.5863 0.9795
C23_6 C 0.63545(28) 0.03845(19) 0.11854(11)
C24_6 C 0.6177(4) 0.0117(2) 0.16915(13)
H15_6 H 0.6437 0.0566 0.1952
C26_6 C 0.7332(4) 0.1699(2) 0.05966(12)
C27_6 C 0.80786(28) 0.26946(19) 0.05777(12)
C28_6 C 0.8554(4) 0.3047(2) 0.01260(13)
C29_6 C 0.9326(4) 0.3938(2) 0.01015(13)
C30_6 C 0.95875(28) 0.45225(19) 0.05118(11)
C31_6 C 0.9032(4) 0.4211(2) 0.09364(15)
H19_6 H 0.9151 0.4621 0.1212
C32_6 C 0.8270(4) 0.3280(2) 0.09783(13)
H20_6 H 0.7911 0.3082 0.1280
N6_6 N 0.69881(25) 0.13076(17) 0.10657(9)
H21_6 H 0.7192 0.1685 0.1326
O9_6 O 0.70333(35) 0.12403(18) 0.02043(9)
H17_6 H 0.8356 0.2682 0.9827
H18_6 H 0.9671 0.4137 0.9795
loop_
_geom_bond_atom_site_label_1
_geom_bond_atom_site_label_2
_geom_bond_site_symmetry_1
_geom_bond_site_symmetry_2
C21 H13 1_555 1_555
C22 C21 1_555 1_555
H14 C22 1_555 1_555
H16 C25 1_555 1_555
N4 C21 1_555 1_555
Zn3 N4 1_555 1_555
C25 N4 1_555 1_555
C21_2 H13_2 1_555 1_555
C22_2 C21_2 1_555 1_555
H14_2 C22_2 1_555 1_555
H16_2 C25_2 1_555 1_555
N4_2 C21_2 1_555 1_555
Zn3_2 N4_2 1_555 1_555
C25_2 N4_2 1_555 1_555
C21_3 H13_3 1_555 1_555
C22_3 C21_3 1_555 1_555
H14_3 C22_3 1_555 1_555
C23 C22_3 1_555 1_555
C24 C23 1_555 1_555
H15 C24 1_555 1_555
C25_3 C24 1_555 1_555
H16_3 C25_3 1_555 1_555
C26 C27 1_555 1_555
C27 C28 1_555 1_555
C28 H17 1_555 1_555
C29 C28 1_555 1_555
H18 C29 1_555 1_555
C31 C30 1_555 1_555
H19 C31 1_555 1_555
C32 C27 1_555 1_555
H20 C32 1_555 1_555
N4_3 C21_3 1_555 1_555
N6 C23 1_555 1_555
H21 N6 1_555 1_555
O9 C26 1_555 1_555
Zn3_3 N4_3 1_555 1_555
C25_3 N4_3 1_555 1_555
C26 N6 1_555 1_555
C29 C30 1_555 1_555
C31 C32 1_555 1_555
C3 H1 1_555 1_555
N1 C5 1_555 1_555
O3 N1 1_555 1_555
C18 C19 1_555 1_555
C19 C3 1_555 1_555
C20 C5 1_555 1_555
H12 C20 1_555 1_555
O5 C18 1_555 1_555
O7 C18 1_555 1_555
Zn3_3 O5 1_555 1_555
C19 C20 1_555 1_555
C1 C2 1_555 1_555
C2 C3_2 1_555 1_555
C3_2 H1_2 1_555 1_555
C4 C2 1_555 1_555
H2 C4 1_555 1_555
C5_2 C4 1_555 1_555
N1_2 C5_2 1_555 1_555
O1 C1 1_555 1_555
O2 C1 1_555 1_555
N5 Zn3 1_555 1_555
O6 Zn3 1_555 1_555
O8 N1_2 1_555 1_555
O1 Zn3 1_555 1_555
C1_2 C2_2 1_555 1_555
C2_2 C3_3 1_555 1_555
C3_3 H1_3 1_555 1_555
C4_2 C2_2 1_555 1_555
H2_2 C4_2 1_555 1_555
C5_3 C4_2 1_555 1_555
N1_3 C5_3 1_555 1_555
O1_2 C1_2 1_555 1_555
O2_2 C1_2 1_555 1_555
O3_2 N1_3 1_555 1_555
C18_2 C19_2 1_555 1_555
C19_2 C3_3 1_555 1_555
C20_2 C5_3 1_555 1_555
H12_2 C20_2 1_555 1_555
N5_2 Zn3_2 1_555 1_555
O6 C18_2 1_555 1_555
O6_2 Zn3_2 1_555 1_555
O7_2 C18_2 1_555 1_555
O8_2 N1_3 1_555 1_555
O1_2 Zn3_2 1_555 1_555
C19_2 C20_2 1_555 1_555
C1_3 C2_3 1_555 1_555
C2_3 C3_4 1_555 1_555
C3_4 H1_4 1_555 1_555
C4_3 C2_3 1_555 1_555
H2_3 C4_3 1_555 1_555
C5_4 C4_3 1_555 1_555
N1_4 C5_4 1_555 1_555
O1_3 C1_3 1_555 1_555
O2_3 C1_3 1_555 1_555
O3_3 N1_4 1_555 1_555
C18_3 C19_3 1_555 1_555
C19_3 C3_4 1_555 1_555
C20_3 C5_4 1_555 1_555
H12_3 C20_3 1_555 1_555
N5_3 Zn3_3 1_555 1_555
O6_2 C18_3 1_555 1_555
O7_3 C18_3 1_555 1_555
O8_3 N1_4 1_555 1_555
O1_3 Zn3_3 1_555 1_555
C19_3 C20_3 1_555 1_555
C6 H3 1_555 1_555
C7 C6 1_555 1_555
H4 C7 1_555 1_555
H6 C10 1_555 1_555
N5 C6 1_555 1_555
C10 N5 1_555 1_555
C6_2 H3_2 1_555 1_555
C7_2 C6_2 1_555 1_555
H4_2 C7_2 1_555 1_555
H6_2 C10_2 1_555 1_555
N5_3 C6_2 1_555 1_555
C10_2 N5_3 1_555 1_555
C6_3 H3_3 1_555 1_555
C7_3 C6_3 1_555 1_555
H4_3 C7_3 1_555 1_555
C8 C7_3 1_555 1_555
C9 C8 1_555 1_555
H5 C9 1_555 1_555
C10_3 C9 1_555 1_555
H6_3 C10_3 1_555 1_555
C11 C12 1_555 1_555
C12 C13 1_555 1_555
C13 H7 1_555 1_555
C14 C13 1_555 1_555
H8 C14 1_555 1_555
C15 C14 1_555 1_555
C16 C15 1_555 1_555
H9 C16 1_555 1_555
C17 C12 1_555 1_555
H10 C17 1_555 1_555
N5_2 C6_3 1_555 1_555
N3 C8 1_555 1_555
H11 N3 1_555 1_555
O4 C11 1_555 1_555
C10_3 N5_2 1_555 1_555
C11 N3 1_555 1_555
C16 C17 1_555 1_555
C9_2 C8_2 1_555 1_555
H5_2 C9_2 1_555 1_555
C11_2 C12_2 1_555 1_555
C12_2 C13_2 1_555 1_555
C14_2 C13_2 1_555 1_555
C15_2 C14_2 1_555 1_555
C16_2 C15_2 1_555 1_555
H9_2 C16_2 1_555 1_555
C17_2 C12_2 1_555 1_555
H10_2 C17_2 1_555 1_555
N3_2 C8_2 1_555 1_555
H11_2 N3_2 1_555 1_555
O4_2 C11_2 1_555 1_555
C24_2 C23_2 1_555 1_555
H15_2 C24_2 1_555 1_555
C26_2 C27_2 1_555 1_555
C27_2 C28_2 1_555 1_555
C29_2 C28_2 1_555 1_555
C30_2 C15_2 1_555 1_555
C31_2 C30_2 1_555 1_555
H19_2 C31_2 1_555 1_555
C32_2 C27_2 1_555 1_555
H20_2 C32_2 1_555 1_555
N6_2 C23_2 1_555 1_555
H21_2 N6_2 1_555 1_555
O9_2 C26_2 1_555 1_555
C11_2 N3_2 1_555 1_555
C16_2 C17_2 1_555 1_555
C26_2 N6_2 1_555 1_555
C29_2 C30_2 1_555 1_555
C31_2 C32_2 1_555 1_555
C3_5 H1_5 1_555 1_555
N1_5 C5_5 1_555 1_555
O3_4 N1_5 1_555 1_555
C18_4 C19_4 1_555 1_555
C19_4 C3_5 1_555 1_555
C20_4 C5_5 1_555 1_555
H12_4 C20_4 1_555 1_555
O5_2 C18_4 1_555 1_555
O7_4 C18_4 1_555 1_555
Zn2 O5_2 1_555 1_555
C19_4 C20_4 1_555 1_555
C1_4 C2_4 1_555 1_555
C2_4 C3_6 1_555 1_555
C3_6 H1_6 1_555 1_555
C4_4 C2_4 1_555 1_555
H2_4 C4_4 1_555 1_555
C5_6 C4_4 1_555 1_555
C6_4 H3_4 1_555 1_555
C7_4 C6_4 1_555 1_555
H4_4 C7_4 1_555 1_555
H6_4 C10_4 1_555 1_555
N1_6 C5_6 1_555 1_555
N2 C6_4 1_555 1_555
O1_4 C1_4 1_555 1_555
O2_4 C1_4 1_555 1_555
Zn1 N2 1_555 1_555
N5_4 Zn1 1_555 1_555
O6_3 Zn1 1_555 1_555
O8_4 N1_6 1_555 1_555
C10_4 N2 1_555 1_555
O1_4 Zn1 1_555 1_555
C1_5 C2_5 1_555 1_555
C2_5 C3_7 1_555 1_555
C3_7 H1_7 1_555 1_555
C4_5 C2_5 1_555 1_555
H2_5 C4_5 1_555 1_555
C5_7 C4_5 1_555 1_555
C6_5 H3_5 1_555 1_555
C7_5 C6_5 1_555 1_555
H4_5 C7_5 1_555 1_555
H6_5 C10_5 1_555 1_555
N1_7 C5_7 1_555 1_555
N2_2 C6_5 1_555 1_555
O1_5 C1_5 1_555 1_555
O2_5 C1_5 1_555 1_555
O3_5 N1_7 1_555 1_555
Zn1_2 N2_2 1_555 1_555
C18_5 C19_5 1_555 1_555
C19_5 C3_7 1_555 1_555
C20_5 C5_7 1_555 1_555
H12_5 C20_5 1_555 1_555
N5_5 Zn1_2 1_555 1_555
O6_3 C18_5 1_555 1_555
O6_4 Zn1_2 1_555 1_555
O7_5 C18_5 1_555 1_555
O8_5 N1_7 1_555 1_555
C10_5 N2_2 1_555 1_555
O1_5 Zn1_2 1_555 1_555
C19_5 C20_5 1_555 1_555
C1_6 C2_6 1_555 1_555
C2_6 C3_8 1_555 1_555
C3_8 H1_8 1_555 1_555
C4_6 C2_6 1_555 1_555
H2_6 C4_6 1_555 1_555
C5_8 C4_6 1_555 1_555
C6_6 H3_6 1_555 1_555
C7_6 C6_6 1_555 1_555
H4_6 C7_6 1_555 1_555
C8_3 C7_6 1_555 1_555
C9_3 C8_3 1_555 1_555
H5_3 C9_3 1_555 1_555
C10_6 C9_3 1_555 1_555
H6_6 C10_6 1_555 1_555
C11_3 C12_3 1_555 1_555
C12_3 C13_3 1_555 1_555
C13_3 H7_3 1_555 1_555
C14_3 C13_3 1_555 1_555
H8_3 C14_3 1_555 1_555
C15_3 C14_3 1_555 1_555
C16_3 C15_3 1_555 1_555
H9_3 C16_3 1_555 1_555
C17_3 C12_3 1_555 1_555
H10_3 C17_3 1_555 1_555
N1_8 C5_8 1_555 1_555
N2_3 C6_6 1_555 1_555
N3_3 C8_3 1_555 1_555
H11_3 N3_3 1_555 1_555
O1_6 C1_6 1_555 1_555
O2_6 C1_6 1_555 1_555
O3_6 N1_8 1_555 1_555
O4_3 C11_3 1_555 1_555
Zn2 N2_3 1_555 1_555
C18_6 C19_6 1_555 1_555
C19_6 C3_8 1_555 1_555
C20_6 C5_8 1_555 1_555
H12_6 C20_6 1_555 1_555
N5_6 Zn2 1_555 1_555
O6_4 C18_6 1_555 1_555
O7_6 C18_6 1_555 1_555
O8_6 N1_8 1_555 1_555
C10_6 N2_3 1_555 1_555
C11_3 N3_3 1_555 1_555
C16_3 C17_3 1_555 1_555
O1_6 Zn2 1_555 1_555
C19_6 C20_6 1_555 1_555
C21_4 H13_4 1_555 1_555
C22_4 C21_4 1_555 1_555
H14_4 C22_4 1_555 1_555
H16_4 C25_4 1_555 1_555
N5_4 C21_4 1_555 1_555
C25_4 N5_4 1_555 1_555
C21_5 H13_5 1_555 1_555
C22_5 C21_5 1_555 1_555
H14_5 C22_5 1_555 1_555
H16_5 C25_5 1_555 1_555
N5_6 C21_5 1_555 1_555
C25_5 N5_6 1_555 1_555
C21_6 H13_6 1_555 1_555
C22_6 C21_6 1_555 1_555
H14_6 C22_6 1_555 1_555
C23_3 C22_6 1_555 1_555
C24_3 C23_3 1_555 1_555
H15_3 C24_3 1_555 1_555
C25_6 C24_3 1_555 1_555
H16_6 C25_6 1_555 1_555
C26_3 C27_3 1_555 1_555
C27_3 C28_3 1_555 1_555
C28_3 H17_3 1_555 1_555
C29_3 C28_3 1_555 1_555
H18_3 C29_3 1_555 1_555
C31_3 C30_3 1_555 1_555
H19_3 C31_3 1_555 1_555
C32_3 C27_3 1_555 1_555
H20_3 C32_3 1_555 1_555
N5_5 C21_6 1_555 1_555
N6_3 C23_3 1_555 1_555
H21_3 N6_3 1_555 1_555
O9_3 C26_3 1_555 1_555
C25_6 N5_5 1_555 1_555
C26_3 N6_3 1_555 1_555
C29_3 C30_3 1_555 1_555
C31_3 C32_3 1_555 1_555
C9_4 C8_4 1_555 1_555
H5_4 C9_4 1_555 1_555
C11_4 C12_4 1_555 1_555
C12_4 C13_4 1_555 1_555
C13_4 H7_4 1_555 1_555
C14_4 C13_4 1_555 1_555
H8_4 C14_4 1_555 1_555
C15_4 C14_4 1_555 1_555
C16_4 C15_4 1_555 1_555
H9_4 C16_4 1_555 1_555
C17_4 C12_4 1_555 1_555
H10_4 C17_4 1_555 1_555
N3_4 C8_4 1_555 1_555
H11_4 N3_4 1_555 1_555
O4_4 C11_4 1_555 1_555
C11_4 N3_4 1_555 1_555
C16_4 C17_4 1_555 1_555
C24_4 C23_4 1_555 1_555
H15_4 C24_4 1_555 1_555
C26_4 C27_4 1_555 1_555
C27_4 C28_4 1_555 1_555
C28_4 H17_4 1_555 1_555
C29_4 C28_4 1_555 1_555
H18_4 C29_4 1_555 1_555
C31_4 C30_4 1_555 1_555
H19_4 C31_4 1_555 1_555
C32_4 C27_4 1_555 1_555
H20_4 C32_4 1_555 1_555
N6_4 C23_4 1_555 1_555
H21_4 N6_4 1_555 1_555
O9_4 C26_4 1_555 1_555
C26_4 N6_4 1_555 1_555
C29_4 C30_4 1_555 1_555
C31_4 C32_4 1_555 1_555
C9_5 C8_5 1_555 1_555
H5_5 C9_5 1_555 1_555
C11_5 C12_5 1_555 1_555
C12_5 C13_5 1_555 1_555
C13_5 H7_5 1_555 1_555
C14_5 C13_5 1_555 1_555
H8_5 C14_5 1_555 1_555
C15_5 C14_5 1_555 1_555
C16_5 C15_5 1_555 1_555
H9_5 C16_5 1_555 1_555
C17_5 C12_5 1_555 1_555
H10_5 C17_5 1_555 1_555
N3_5 C8_5 1_555 1_555
H11_5 N3_5 1_555 1_555
O4_5 C11_5 1_555 1_555
C24_5 C23_5 1_555 1_555
H15_5 C24_5 1_555 1_555
C26_5 C27_5 1_555 1_555
C27_5 C28_5 1_555 1_555
C28_5 H17_5 1_555 1_555
C29_5 C28_5 1_555 1_555
H18_5 C29_5 1_555 1_555
C30_5 C15_5 1_555 1_555
C31_5 C30_5 1_555 1_555
H19_5 C31_5 1_555 1_555
C32_5 C27_5 1_555 1_555
H20_5 C32_5 1_555 1_555
N6_5 C23_5 1_555 1_555
H21_5 N6_5 1_555 1_555
O9_5 C26_5 1_555 1_555
C11_5 N3_5 1_555 1_555
C16_5 C17_5 1_555 1_555
C26_5 N6_5 1_555 1_555
C29_5 C30_5 1_555 1_555
C31_5 C32_5 1_555 1_555
C9_6 C8_6 1_555 1_555
H5_6 C9_6 1_555 1_555
C11_6 C12_6 1_555 1_555
C12_6 C13_6 1_555 1_555
C14_6 C13_6 1_555 1_555
C15_6 C14_6 1_555 1_555
C16_6 C15_6 1_555 1_555
H9_6 C16_6 1_555 1_555
C17_6 C12_6 1_555 1_555
H10_6 C17_6 1_555 1_555
N3_6 C8_6 1_555 1_555
H11_6 N3_6 1_555 1_555
O4_6 C11_6 1_555 1_555
C11_6 N3_6 1_555 1_555
C16_6 C17_6 1_555 1_555
C24_6 C23_6 1_555 1_555
H15_6 C24_6 1_555 1_555
C26_6 C27_6 1_555 1_555
C27_6 C28_6 1_555 1_555
C29_6 C28_6 1_555 1_555
C31_6 C30_6 1_555 1_555
H19_6 C31_6 1_555 1_555
C32_6 C27_6 1_555 1_555
H20_6 C32_6 1_555 1_555
N6_6 C23_6 1_555 1_555
H21_6 N6_6 1_555 1_555
O9_6 C26_6 1_555 1_555
C26_6 N6_6 1_555 1_555
C29_6 C30_6 1_555 1_555
C31_6 C32_6 1_555 1_555

#END
