
###############################################################################
#
# This file contains modified crystal structure data generated from the
# MOF subset of the Cambridge Structural Database (CSD) v543 
# hosted by the Cambridge Crystallographic Data Centre (CCDC).
#
# This work is licensed under the Creative Commons
# Attribution-NonCommercial-ShareAlike 4.0 International License.
# To view a copy of this license, visit
# http://creativecommons.org/licenses/by-nc-sa/4.0/
# or send a letter to
# Creative Commons, PO Box 1866, Mountain View, CA 94042, USA.
#
# CIF created using the CSD Python API on 29 September 2022
# The structure has been converted into the P1 space group
# The structure has a 3D framework
# The original CSD entry RAYLIO is in the hexagonal crystal system
# The original CSD entry RAYLIO is in a Sohncke space group
# The framework has been calculated to contain at least 10.0% void space
# The void calculation uses a probe of radius 1.32A, grid spacing 0.4
#
###############################################################################

data_RAYLIO
_chemical_formula_moiety         '(C192 H126 N30 O48 Zn6)n'
_symmetry_cell_setting           triclinic
_symmetry_space_group_name_H-M   'P 1'
_symmetry_Int_Tables_number      1
_space_group_name_Hall           'P 1'
loop_
_symmetry_equiv_pos_site_id
_symmetry_equiv_pos_as_xyz
1 x,y,z
_cell_length_a                   16.5597(12)
_cell_length_b                   16.5597(12)
_cell_length_c                   25.787(4)
_cell_angle_alpha                90
_cell_angle_beta                 90
_cell_angle_gamma                120
_cell_volume                     6124.02
loop_
_atom_site_label
_atom_site_type_symbol
_atom_site_fract_x
_atom_site_fract_y
_atom_site_fract_z
C23 C 0.40303(5) 0.36402(5) 0.04806(3)
C24 C 0.38066(7) 0.41134(6) 0.08306(4)
H15 H 0.3882 0.4051 0.1183
C25 C 0.34707(6) 0.46819(6) 0.06686(3)
H16 H 0.3313 0.4981 0.0921
C26 C 0.43694(6) 0.26763(6) 0.10757(4)
C27 C 0.46181(6) 0.19166(5) 0.10889(3)
C28 C 0.44962(7) 0.14463(6) 0.15421(4)
H17 H 0.4335 0.1647 0.1841
C29 C 0.46098(7) 0.06720(6) 0.15628(4)
H18 H 0.4459 0.0322 0.1866
C30 C 0.49343(6) 0.04154(5) 0.11523(3)
C31 C 0.51879(7) 0.09760(6) 0.07335(4)
H19 H 0.5487 0.0864 0.0461
C32 C 0.50162(7) 0.17265(6) 0.06940(4)
H20 H 0.5180 0.2087 0.0394
N4 N 0.33623(4) 0.48248(4) 0.01932(2)
N6 N 0.43210(5) 0.30115(5) 0.06025(3)
H21 H 0.4494 0.2805 0.0344
O9 O 0.42083(6) 0.29679(5) 0.14618(3)
Zn3 Zn 0.284606(5) 0.569212(10) 0.0000
C21 C 0.35668(7) 0.43834(7) 0.98424(4)
H13 H 0.3471 0.4457 0.9494
C22 C 0.39253(7) 0.38028(6) 0.99762(4)
H14 H 0.4093 0.3526 0.9716
Zn3_2 Zn 0.284606(5) 0.569212(10) 1.0000
C21_2 C 0.56166(7) 0.91834(10) 0.31757(4)
H13_2 H 0.5543 0.9014 0.2827
C24_2 C 0.58866(6) 0.96932(9) 0.41639(4)
H15_2 H 0.5949 0.9831 0.4516
C25_2 C 0.53181(6) 0.87888(8) 0.40019(3)
H16_2 H 0.5019 0.8332 0.4254
N4_2 N 0.51752(4) 0.85375(6) 0.35265(2)
Zn3_3 Zn 0.430788(10) 0.715394(11) 0.3333
C21_3 C 0.08166(10) 0.64332(7) 0.65091(4)
H13_3 H 0.0986 0.6529 0.6161
C24_3 C 0.03068(9) 0.61934(7) 0.74973(4)
H15_3 H 0.0169 0.6118 0.7850
C25_3 C 0.12112(8) 0.65293(6) 0.73353(3)
H16_3 H 0.1668 0.6687 0.7588
N4_3 N 0.14625(6) 0.66377(4) 0.68599(2)
Zn3_4 Zn 0.284606(11) 0.715394(5) 0.6667
C1 C 0.26209(5) 0.67467(5) 0.06989(3)
C2 C 0.25436(5) 0.71610(5) 0.12046(3)
C3 C 0.29280(4) 0.70720(4) 0.1667
H1 H 0.3252 0.6748 0.1667
C4 C 0.20697(8) 0.76421(8) 0.12190(5)
H2 H 0.1796 0.7725 0.0924
C5 C 0.20234(4) 0.79766(4) 0.1667
N1 N 0.15132(6) 0.84868(6) 0.1667
O1 O 0.29266(4) 0.61900(4) 0.07119(2)
O2 O 0.23568(4) 0.69600(4) 0.03057(2)
O3 O 0.06521(9) 0.80124(11) 0.13803(8)
C18 C 0.32533(5) 0.73791(5) 0.26344(3)
C19 C 0.28390(5) 0.74564(5) 0.21287(3)
C20 C 0.23579(8) 0.79303(8) 0.21143(5)
H12 H 0.2275 0.8204 0.2409
O5 O 0.38100(4) 0.70734(4) 0.26214(2)
O7 O 0.30400(4) 0.76432(4) 0.30276(2)
O8 O 0.19876(11) 0.93479(9) 0.19530(8)
N5 N 0.14625(6) 0.48248(4) 0.98068(2)
O6 O 0.32634(6) 0.61900(4) 0.92881(2)
C1_2 C 0.32533(5) 0.58742(7) 0.40322(3)
C2_2 C 0.28390(5) 0.53826(7) 0.45379(3)
C3_2 C 0.29280(4) 0.58560(6) 0.5000
H1_2 H 0.3252 0.6504 0.5000
C4_2 C 0.23579(8) 0.44276(11) 0.45523(5)
H2_2 H 0.2275 0.4071 0.4257
C5_2 C 0.20234(4) 0.40468(6) 0.5000
N1_2 N 0.15132(6) 0.30264(8) 0.5000
O1_2 O 0.38100(4) 0.67366(6) 0.40452(2)
O2_2 O 0.30400(4) 0.53968(6) 0.36390(2)
O3_2 O 0.19876(11) 0.26397(14) 0.47136(8)
C18_2 C 0.26209(5) 0.58742(7) 0.59678(3)
C19_2 C 0.25436(5) 0.53826(7) 0.54621(3)
C20_2 C 0.20697(8) 0.44276(11) 0.54477(5)
H12_2 H 0.1796 0.4071 0.5743
N5_2 N 0.51752(4) 0.66377(7) 0.31401(2)
O5_2 O 0.29266(4) 0.67366(6) 0.59548(2)
O7_2 O 0.23568(4) 0.53968(6) 0.63610(2)
O8_2 O 0.06521(9) 0.26397(14) 0.52864(8)
C1_3 C 0.41258(7) 0.73791(5) 0.73656(3)
C2_3 C 0.46174(7) 0.74564(5) 0.78713(3)
C3_3 C 0.41440(6) 0.70720(4) 0.8334
H1_3 H 0.3496 0.6748 0.8334
C4_3 C 0.55724(11) 0.79303(8) 0.78857(5)
H2_3 H 0.5929 0.8204 0.7591
C5_3 C 0.59532(6) 0.79766(4) 0.8334
N1_3 N 0.69736(8) 0.84868(6) 0.8334
O1_3 O 0.32634(6) 0.70734(4) 0.73786(2)
O2_3 O 0.46032(6) 0.76432(4) 0.69724(2)
O3_3 O 0.73603(14) 0.93479(9) 0.80470(8)
C18_3 C 0.41258(7) 0.67467(5) 0.93011(3)
C19_3 C 0.46174(7) 0.71610(5) 0.87954(3)
C20_3 C 0.55724(11) 0.76421(8) 0.87810(5)
H12_3 H 0.5929 0.7725 0.9076
N5_3 N 0.33623(7) 0.85375(6) 0.64735(2)
O7_3 O 0.46032(6) 0.69600(4) 0.96943(2)
O8_3 O 0.73603(14) 0.80124(11) 0.86197(8)
C6 C 0.56166(7) 0.64332(7) 0.34909(4)
H3 H 0.5543 0.6529 0.3839
C7 C 0.61972(6) 0.60747(7) 0.33571(4)
H4 H 0.6474 0.5907 0.3617
C8 C 0.63598(5) 0.59697(5) 0.28527(3)
C9 C 0.58866(6) 0.61934(7) 0.25027(4)
H5 H 0.5949 0.6118 0.2150
C10 C 0.53181(6) 0.65293(6) 0.26647(3)
H6 H 0.5019 0.6687 0.2412
C11 C 0.73237(6) 0.56306(6) 0.22576(4)
C12 C 0.80834(5) 0.53819(6) 0.22444(3)
C13 C 0.85537(6) 0.55038(7) 0.17912(4)
H7 H 0.8353 0.5665 0.1492
C14 C 0.93280(6) 0.53902(7) 0.17705(4)
H8 H 0.9678 0.5541 0.1467
C15 C 0.95846(5) 0.50657(6) 0.21810(3)
C16 C 0.90240(6) 0.48121(7) 0.25998(4)
H9 H 0.9136 0.4513 0.2872
C17 C 0.82735(6) 0.49838(7) 0.26393(4)
H10 H 0.7913 0.4820 0.2939
N3 N 0.69885(5) 0.56790(5) 0.27308(3)
H11 H 0.7195 0.5506 0.2989
O4 O 0.70321(5) 0.57917(6) 0.18715(3)
C6_2 C 0.08166(10) 0.43834(7) 0.01576(4)
H3_2 H 0.0986 0.4457 0.0506
C9_2 C 0.03068(9) 0.41134(6) 0.91694(4)
H5_2 H 0.0169 0.4051 0.8817
C10_2 C 0.12112(8) 0.46819(6) 0.93314(3)
H6_2 H 0.1668 0.4981 0.9079
C6_3 C 0.35668(7) 0.91834(10) 0.68243(4)
H3_3 H 0.3471 0.9014 0.7173
C9_3 C 0.38066(7) 0.96932(9) 0.58361(4)
H5_3 H 0.3882 0.9831 0.5484
C10_3 C 0.34707(6) 0.87888(8) 0.59981(3)
H6_3 H 0.3313 0.8332 0.5746
C1_4 C 0.73791(5) 0.32533(5) 0.06989(3)
C2_4 C 0.74564(5) 0.28390(5) 0.12046(3)
C3_4 C 0.70720(4) 0.29280(4) 0.1667
H1_4 H 0.6748 0.3252 0.1667
C4_4 C 0.79303(8) 0.23579(8) 0.12190(5)
H2_4 H 0.8204 0.2275 0.0924
C5_4 C 0.79766(4) 0.20234(4) 0.1667
C8_2 C 0.59697(5) 0.63598(5) 0.04806(3)
C9_4 C 0.61934(7) 0.58866(6) 0.08306(4)
H5_4 H 0.6118 0.5949 0.1183
C10_4 C 0.65293(6) 0.53181(6) 0.06686(3)
H6_4 H 0.6687 0.5019 0.0921
C11_2 C 0.56306(6) 0.73237(6) 0.10757(4)
C12_2 C 0.53819(6) 0.80834(5) 0.10889(3)
C13_2 C 0.55038(7) 0.85537(6) 0.15421(4)
H7_2 H 0.5665 0.8353 0.1841
C14_2 C 0.53902(7) 0.93280(6) 0.15628(4)
H8_2 H 0.5541 0.9678 0.1866
C15_2 C 0.50657(6) 0.95846(5) 0.11523(3)
C16_2 C 0.48121(7) 0.90240(6) 0.07335(4)
H9_2 H 0.4513 0.9136 0.0461
C17_2 C 0.49838(7) 0.82735(6) 0.06940(4)
H10_2 H 0.4820 0.7913 0.0394
N1_4 N 0.84868(6) 0.15132(6) 0.1667
N2 N 0.66377(4) 0.51752(4) 0.01932(2)
N3_2 N 0.56790(5) 0.69885(5) 0.06025(3)
H11_2 H 0.5506 0.7195 0.0344
O1_4 O 0.70734(4) 0.38100(4) 0.07119(2)
O2_4 O 0.76432(4) 0.30400(4) 0.03057(2)
O3_4 O 0.93479(9) 0.19876(11) 0.13803(8)
O4_2 O 0.57917(6) 0.70321(5) 0.14618(3)
Zn1 Zn 0.715394(5) 0.430788(10) 0.0000
C18_4 C 0.67467(5) 0.26209(5) 0.26344(3)
C19_4 C 0.71610(5) 0.25436(5) 0.21287(3)
C20_4 C 0.76421(8) 0.20697(8) 0.21143(5)
H12_4 H 0.7725 0.1796 0.2409
O5_3 O 0.61900(4) 0.29266(4) 0.26214(2)
O7_4 O 0.69600(4) 0.23568(4) 0.30276(2)
O8_4 O 0.80124(11) 0.06521(9) 0.19530(8)
Zn2 Zn 0.569212(10) 0.284606(11) 0.3333
C6_4 C 0.64332(7) 0.56166(7) 0.98424(4)
H3_4 H 0.6529 0.5543 0.9494
C7_2 C 0.60747(7) 0.61972(6) 0.99762(4)
H4_2 H 0.5907 0.6474 0.9716
Zn1_2 Zn 0.715394(5) 0.430788(10) 1.0000
N5_4 N 0.85375(6) 0.51752(4) 0.98068(2)
O6_2 O 0.67366(6) 0.38100(4) 0.92881(2)
C1_5 C 0.67467(5) 0.41258(7) 0.40322(3)
C2_5 C 0.71610(5) 0.46174(7) 0.45379(3)
C3_5 C 0.70720(4) 0.41440(6) 0.5000
H1_5 H 0.6748 0.3496 0.5000
C4_5 C 0.76421(8) 0.55724(11) 0.45523(5)
H2_5 H 0.7725 0.5929 0.4257
C5_5 C 0.79766(4) 0.59532(6) 0.5000
C6_5 C 0.43834(7) 0.08166(10) 0.31757(4)
H3_5 H 0.4457 0.0986 0.2827
C9_5 C 0.41134(6) 0.03068(9) 0.41639(4)
H5_5 H 0.4051 0.0169 0.4516
C10_5 C 0.46819(6) 0.12112(8) 0.40019(3)
H6_5 H 0.4981 0.1668 0.4254
N1_5 N 0.84868(6) 0.69736(8) 0.5000
N2_2 N 0.48248(4) 0.14625(6) 0.35265(2)
O1_5 O 0.61900(4) 0.32634(6) 0.40452(2)
O2_5 O 0.69600(4) 0.46032(6) 0.36390(2)
O3_5 O 0.80124(11) 0.73603(14) 0.47136(8)
C18_5 C 0.73791(5) 0.41258(7) 0.59678(3)
C19_5 C 0.74564(5) 0.46174(7) 0.54621(3)
C20_5 C 0.79303(8) 0.55724(11) 0.54477(5)
H12_5 H 0.8204 0.5929 0.5743
N5_5 N 0.48248(4) 0.33623(7) 0.31401(2)
O5_4 O 0.70734(4) 0.32634(6) 0.59548(2)
O7_5 O 0.76432(4) 0.46032(6) 0.63610(2)
O8_5 O 0.93479(9) 0.73603(14) 0.52864(8)
Zn2_2 Zn 0.715394(11) 0.284606(15) 0.6667
C1_6 C 0.58742(7) 0.26209(5) 0.73656(3)
C2_6 C 0.53826(7) 0.25436(5) 0.78713(3)
C3_6 C 0.58560(6) 0.29280(4) 0.8334
H1_6 H 0.6504 0.3252 0.8334
C4_6 C 0.44276(11) 0.20697(8) 0.78857(5)
H2_6 H 0.4071 0.1796 0.7591
C5_6 C 0.40468(6) 0.20234(4) 0.8334
C6_6 C 0.91834(10) 0.35668(7) 0.65091(4)
H3_6 H 0.9014 0.3471 0.6161
C9_6 C 0.96932(9) 0.38066(7) 0.74973(4)
H5_6 H 0.9831 0.3882 0.7850
C10_6 C 0.87888(8) 0.34707(6) 0.73353(3)
H6_6 H 0.8332 0.3313 0.7588
N1_6 N 0.30264(8) 0.15132(6) 0.8334
N2_3 N 0.85375(6) 0.33623(4) 0.68599(2)
O1_6 O 0.67366(6) 0.29266(4) 0.73786(2)
O2_6 O 0.53968(6) 0.23568(4) 0.69724(2)
O3_6 O 0.26397(14) 0.06521(9) 0.80470(8)
C18_6 C 0.58742(7) 0.32533(5) 0.93011(3)
C19_6 C 0.53826(7) 0.28390(5) 0.87954(3)
C20_6 C 0.44276(11) 0.23579(8) 0.87810(5)
H12_6 H 0.4071 0.2275 0.9076
N5_6 N 0.66377(7) 0.14625(6) 0.64735(2)
O7_6 O 0.53968(6) 0.30400(4) 0.96943(2)
O8_6 O 0.26397(14) 0.19876(11) 0.86197(8)
C21_4 C 0.43834(7) 0.35668(7) 0.34909(4)
H13_4 H 0.4457 0.3471 0.3839
C22_2 C 0.38028(6) 0.39253(7) 0.33571(4)
H14_2 H 0.3526 0.4093 0.3617
C23_2 C 0.36402(5) 0.40303(5) 0.28527(3)
C24_4 C 0.41134(6) 0.38066(7) 0.25027(4)
H15_4 H 0.4051 0.3882 0.2150
C25_4 C 0.46819(6) 0.34707(6) 0.26647(3)
H16_4 H 0.4981 0.3313 0.2412
C26_2 C 0.26763(6) 0.43694(6) 0.22576(4)
C27_2 C 0.19166(5) 0.46181(6) 0.22444(3)
C28_2 C 0.14463(6) 0.44962(7) 0.17912(4)
H17_2 H 0.1647 0.4335 0.1492
C29_2 C 0.06720(6) 0.46098(7) 0.17705(4)
H18_2 H 0.0322 0.4459 0.1467
C30_2 C 0.04154(5) 0.49343(6) 0.21810(3)
C31_2 C 0.09760(6) 0.51879(7) 0.25998(4)
H19_2 H 0.0864 0.5487 0.2872
C32_2 C 0.17265(6) 0.50162(7) 0.26393(4)
H20_2 H 0.2087 0.5180 0.2939
N6_2 N 0.30115(5) 0.43210(5) 0.27308(3)
H21_2 H 0.2805 0.4494 0.2989
O9_2 O 0.29679(5) 0.42083(6) 0.18715(3)
C21_5 C 0.91834(10) 0.56166(7) 0.01576(4)
H13_5 H 0.9014 0.5543 0.0506
C24_5 C 0.96932(9) 0.58866(6) 0.91694(4)
H15_5 H 0.9831 0.5949 0.8817
C25_5 C 0.87888(8) 0.53181(6) 0.93314(3)
H16_5 H 0.8332 0.5019 0.9079
C21_6 C 0.64332(7) 0.08166(10) 0.68243(4)
H13_6 H 0.6529 0.0986 0.7173
C24_6 C 0.61934(7) 0.03068(9) 0.58361(4)
H15_6 H 0.6118 0.0169 0.5484
C25_6 C 0.65293(6) 0.12112(8) 0.59981(3)
H16_6 H 0.6687 0.1668 0.5746
C7_3 C 0.38028(6) 0.98775(9) 0.33095(4)
H4_3 H 0.3526 0.9433 0.3049
C8_3 C 0.36402(5) 0.96099(7) 0.38139(3)
C11_3 C 0.26763(6) 0.83069(8) 0.44090(4)
C12_3 C 0.19166(5) 0.72985(8) 0.44222(3)
C13_3 C 0.14463(6) 0.69501(9) 0.48754(4)
H7_3 H 0.1647 0.7312 0.5174
C14_3 C 0.06720(6) 0.60622(9) 0.48961(4)
H8_3 H 0.0322 0.5863 0.5199
C15_3 C 0.04154(5) 0.54811(8) 0.44856(3)
C16_3 C 0.09760(6) 0.57881(9) 0.40668(4)
H9_3 H 0.0864 0.5377 0.3794
C17_3 C 0.17265(6) 0.67103(9) 0.40273(4)
H10_3 H 0.2087 0.6907 0.3727
N3_3 N 0.30115(5) 0.86905(7) 0.39358(3)
H11_3 H 0.2805 0.8311 0.3677
O4_3 O 0.29679(5) 0.87596(8) 0.47951(3)
C22_3 C 0.61972(6) 0.01225(9) 0.33095(4)
H14_3 H 0.6474 0.0567 0.3049
C23_3 C 0.63598(5) 0.03901(7) 0.38139(3)
C26_3 C 0.73237(6) 0.16931(8) 0.44090(4)
C27_3 C 0.80834(5) 0.27015(8) 0.44222(3)
C28_3 C 0.85537(6) 0.30499(9) 0.48754(4)
H17_3 H 0.8353 0.2688 0.5174
C29_3 C 0.93280(6) 0.39378(9) 0.48961(4)
H18_3 H 0.9678 0.4137 0.5199
C30_3 C 0.95846(5) 0.45189(8) 0.44856(3)
C31_3 C 0.90240(6) 0.42119(9) 0.40668(4)
H19_3 H 0.9136 0.4623 0.3794
C32_3 C 0.82735(6) 0.32897(9) 0.40273(4)
H20_3 H 0.7913 0.3093 0.3727
N6_3 N 0.69885(5) 0.13095(7) 0.39358(3)
H21_3 H 0.7195 0.1689 0.3677
O9_3 O 0.70321(5) 0.12404(8) 0.47951(3)
C7_4 C 0.01225(9) 0.39253(7) 0.66429(4)
H4_4 H 0.0567 0.4093 0.6383
C8_4 C 0.03901(7) 0.40303(5) 0.71473(3)
C11_4 C 0.16931(8) 0.43694(6) 0.77424(4)
C12_4 C 0.27015(8) 0.46181(6) 0.77556(3)
C13_4 C 0.30499(9) 0.44962(7) 0.82088(4)
H7_4 H 0.2688 0.4335 0.8508
C14_4 C 0.39378(9) 0.46098(7) 0.82295(4)
H8_4 H 0.4137 0.4459 0.8533
C15_4 C 0.45189(8) 0.49343(6) 0.78190(3)
C16_4 C 0.42119(9) 0.51879(7) 0.74002(4)
H9_4 H 0.4623 0.5487 0.7128
C17_4 C 0.32897(9) 0.50162(7) 0.73607(4)
H10_4 H 0.3093 0.5180 0.7061
N3_4 N 0.13095(7) 0.43210(5) 0.72692(3)
H11_4 H 0.1689 0.4494 0.7011
O4_4 O 0.12404(8) 0.42083(6) 0.81285(3)
C22_4 C 0.98775(9) 0.60747(7) 0.66429(4)
H14_4 H 0.9433 0.5907 0.6383
C23_4 C 0.96099(7) 0.59697(5) 0.71473(3)
C26_4 C 0.83069(8) 0.56306(6) 0.77424(4)
C27_4 C 0.72985(8) 0.53819(6) 0.77556(3)
C28_4 C 0.69501(9) 0.55038(7) 0.82088(4)
H17_4 H 0.7312 0.5665 0.8508
C29_4 C 0.60622(9) 0.53902(7) 0.82295(4)
H18_4 H 0.5863 0.5541 0.8533
C30_4 C 0.54811(8) 0.50657(6) 0.78190(3)
C31_4 C 0.57881(9) 0.48121(7) 0.74002(4)
H19_4 H 0.5377 0.4513 0.7128
C32_4 C 0.67103(9) 0.49838(7) 0.73607(4)
H20_4 H 0.6907 0.4820 0.7061
N6_4 N 0.86905(7) 0.56790(5) 0.72692(3)
H21_4 H 0.8311 0.5506 0.7011
O9_4 O 0.87596(8) 0.57917(6) 0.81285(3)
C7_5 C 0.98775(9) 0.38028(6) 0.00238(4)
H4_5 H 0.9433 0.3526 0.0284
C8_5 C 0.96099(7) 0.36402(5) 0.95194(3)
C11_5 C 0.83069(8) 0.26763(6) 0.89243(4)
C12_5 C 0.72985(8) 0.19166(5) 0.89111(3)
C13_5 C 0.69501(9) 0.14463(6) 0.84579(4)
H7_5 H 0.7312 0.1647 0.8159
C14_5 C 0.60622(9) 0.06720(6) 0.84372(4)
H8_5 H 0.5863 0.0322 0.8134
C15_5 C 0.54811(8) 0.04154(5) 0.88477(3)
C16_5 C 0.57881(9) 0.09760(6) 0.92665(4)
H9_5 H 0.5377 0.0864 0.9539
C17_5 C 0.67103(9) 0.17265(6) 0.93060(4)
H10_5 H 0.6907 0.2087 0.9606
N3_5 N 0.86905(7) 0.30115(5) 0.93975(3)
H11_5 H 0.8311 0.2805 0.9656
O4_5 O 0.87596(8) 0.29679(5) 0.85382(3)
C22_5 C 0.01225(9) 0.61972(6) 0.00238(4)
H14_5 H 0.0567 0.6474 0.0284
C23_5 C 0.03901(7) 0.63598(5) 0.95194(3)
C26_5 C 0.16931(8) 0.73237(6) 0.89243(4)
C27_5 C 0.27015(8) 0.80834(5) 0.89111(3)
C28_5 C 0.30499(9) 0.85537(6) 0.84579(4)
H17_5 H 0.2688 0.8353 0.8159
C29_5 C 0.39378(9) 0.93280(6) 0.84372(4)
H18_5 H 0.4137 0.9678 0.8134
C30_5 C 0.45189(8) 0.95846(5) 0.88477(3)
C31_5 C 0.42119(9) 0.90240(6) 0.92665(4)
H19_5 H 0.4623 0.9136 0.9539
C32_5 C 0.32897(9) 0.82735(6) 0.93060(4)
H20_5 H 0.3093 0.7913 0.9606
N6_5 N 0.13095(7) 0.69885(5) 0.93975(3)
H21_5 H 0.1689 0.7195 0.9656
O9_5 O 0.12404(8) 0.70321(5) 0.85382(3)
C7_6 C 0.39253(7) 0.01225(9) 0.66905(4)
H4_6 H 0.4093 0.0567 0.6951
C8_6 C 0.40303(5) 0.03901(7) 0.61861(3)
C11_6 C 0.43694(6) 0.16931(8) 0.55910(4)
C12_6 C 0.46181(6) 0.27015(8) 0.55778(3)
C13_6 C 0.44962(7) 0.30499(9) 0.51246(4)
H7_6 H 0.4335 0.2688 0.4826
C14_6 C 0.46098(7) 0.39378(9) 0.51039(4)
H8_6 H 0.4459 0.4137 0.4801
C15_6 C 0.49343(6) 0.45189(8) 0.55144(3)
C16_6 C 0.51879(7) 0.42119(9) 0.59332(4)
H9_6 H 0.5487 0.4623 0.6206
C17_6 C 0.50162(7) 0.32897(9) 0.59727(4)
H10_6 H 0.5180 0.3093 0.6273
N3_6 N 0.43210(5) 0.13095(7) 0.60642(3)
H11_6 H 0.4494 0.1689 0.6323
O4_6 O 0.42083(6) 0.12404(8) 0.52049(3)
C22_6 C 0.60747(7) 0.98775(9) 0.66905(4)
H14_6 H 0.5907 0.9433 0.6951
C23_6 C 0.59697(5) 0.96099(7) 0.61861(3)
C26_6 C 0.56306(6) 0.83069(8) 0.55910(4)
C27_6 C 0.53819(6) 0.72985(8) 0.55778(3)
C28_6 C 0.55038(7) 0.69501(9) 0.51246(4)
H17_6 H 0.5665 0.7312 0.4826
C29_6 C 0.53902(7) 0.60622(9) 0.51039(4)
H18_6 H 0.5541 0.5863 0.4801
C30_6 C 0.50657(6) 0.54811(8) 0.55144(3)
C31_6 C 0.48121(7) 0.57881(9) 0.59332(4)
H19_6 H 0.4513 0.5377 0.6206
C32_6 C 0.49838(7) 0.67103(9) 0.59727(4)
H20_6 H 0.4820 0.6907 0.6273
N6_6 N 0.56790(5) 0.86905(7) 0.60642(3)
H21_6 H 0.5506 0.8311 0.6323
O9_6 O 0.57917(6) 0.87596(8) 0.52049(3)
loop_
_geom_bond_atom_site_label_1
_geom_bond_atom_site_label_2
_geom_bond_site_symmetry_1
_geom_bond_site_symmetry_2
C24 C23 1_555 1_555
H15 C24 1_555 1_555
C25 C24 1_555 1_555
H16 C25 1_555 1_555
C26 C27 1_555 1_555
C27 C28 1_555 1_555
C28 H17 1_555 1_555
C29 C28 1_555 1_555
H18 C29 1_555 1_555
C31 C30 1_555 1_555
H19 C31 1_555 1_555
C32 C27 1_555 1_555
H20 C32 1_555 1_555
N6 C23 1_555 1_555
H21 N6 1_555 1_555
O9 C26 1_555 1_555
Zn3 N4 1_555 1_555
C25 N4 1_555 1_555
C26 N6 1_555 1_555
C29 C30 1_555 1_555
C31 C32 1_555 1_555
C21 H13 1_555 1_555
C22 C21 1_555 1_555
H14 C22 1_555 1_555
C21_2 H13_2 1_555 1_555
H15_2 C24_2 1_555 1_555
C25_2 C24_2 1_555 1_555
H16_2 C25_2 1_555 1_555
N4_2 C21_2 1_555 1_555
Zn3_3 N4_2 1_555 1_555
C25_2 N4_2 1_555 1_555
C21_3 H13_3 1_555 1_555
H15_3 C24_3 1_555 1_555
C25_3 C24_3 1_555 1_555
H16_3 C25_3 1_555 1_555
N4_3 C21_3 1_555 1_555
Zn3_4 N4_3 1_555 1_555
C25_3 N4_3 1_555 1_555
C1 C2 1_555 1_555
C2 C3 1_555 1_555
C3 H1 1_555 1_555
C4 C2 1_555 1_555
H2 C4 1_555 1_555
C5 C4 1_555 1_555
N1 C5 1_555 1_555
O1 C1 1_555 1_555
O2 C1 1_555 1_555
O3 N1 1_555 1_555
C18 C19 1_555 1_555
C19 C3 1_555 1_555
C20 C5 1_555 1_555
H12 C20 1_555 1_555
O5 C18 1_555 1_555
O7 C18 1_555 1_555
O8 N1 1_555 1_555
Zn3_3 O5 1_555 1_555
O1 Zn3 1_555 1_555
C19 C20 1_555 1_555
N5 Zn3_2 1_555 1_555
O6 Zn3_2 1_555 1_555
C1_2 C2_2 1_555 1_555
C2_2 C3_2 1_555 1_555
C3_2 H1_2 1_555 1_555
C4_2 C2_2 1_555 1_555
H2_2 C4_2 1_555 1_555
C5_2 C4_2 1_555 1_555
N1_2 C5_2 1_555 1_555
O1_2 C1_2 1_555 1_555
O2_2 C1_2 1_555 1_555
O3_2 N1_2 1_555 1_555
C18_2 C19_2 1_555 1_555
C19_2 C3_2 1_555 1_555
C20_2 C5_2 1_555 1_555
H12_2 C20_2 1_555 1_555
N5_2 Zn3_3 1_555 1_555
O5_2 C18_2 1_555 1_555
O7_2 C18_2 1_555 1_555
O8_2 N1_2 1_555 1_555
Zn3_4 O5_2 1_555 1_555
O1_2 Zn3_3 1_555 1_555
C19_2 C20_2 1_555 1_555
C1_3 C2_3 1_555 1_555
C2_3 C3_3 1_555 1_555
C3_3 H1_3 1_555 1_555
C4_3 C2_3 1_555 1_555
H2_3 C4_3 1_555 1_555
C5_3 C4_3 1_555 1_555
N1_3 C5_3 1_555 1_555
O1_3 C1_3 1_555 1_555
O2_3 C1_3 1_555 1_555
O3_3 N1_3 1_555 1_555
C18_3 C19_3 1_555 1_555
C19_3 C3_3 1_555 1_555
C20_3 C5_3 1_555 1_555
H12_3 C20_3 1_555 1_555
N5_3 Zn3_4 1_555 1_555
O6 C18_3 1_555 1_555
O7_3 C18_3 1_555 1_555
O8_3 N1_3 1_555 1_555
O1_3 Zn3_4 1_555 1_555
C19_3 C20_3 1_555 1_555
C6 H3 1_555 1_555
C7 C6 1_555 1_555
H4 C7 1_555 1_555
C8 C7 1_555 1_555
C9 C8 1_555 1_555
H5 C9 1_555 1_555
C10 C9 1_555 1_555
H6 C10 1_555 1_555
C11 C12 1_555 1_555
C12 C13 1_555 1_555
C13 H7 1_555 1_555
C14 C13 1_555 1_555
H8 C14 1_555 1_555
C15 C14 1_555 1_555
C16 C15 1_555 1_555
H9 C16 1_555 1_555
C17 C12 1_555 1_555
H10 C17 1_555 1_555
N5_2 C6 1_555 1_555
N3 C8 1_555 1_555
H11 N3 1_555 1_555
O4 C11 1_555 1_555
C10 N5_2 1_555 1_555
C11 N3 1_555 1_555
C16 C17 1_555 1_555
C6_2 H3_2 1_555 1_555
H5_2 C9_2 1_555 1_555
C10_2 C9_2 1_555 1_555
H6_2 C10_2 1_555 1_555
C10_2 N5 1_555 1_555
C6_3 H3_3 1_555 1_555
H5_3 C9_3 1_555 1_555
C10_3 C9_3 1_555 1_555
H6_3 C10_3 1_555 1_555
N5_3 C6_3 1_555 1_555
C10_3 N5_3 1_555 1_555
C1_4 C2_4 1_555 1_555
C2_4 C3_4 1_555 1_555
C3_4 H1_4 1_555 1_555
C4_4 C2_4 1_555 1_555
H2_4 C4_4 1_555 1_555
C5_4 C4_4 1_555 1_555
C9_4 C8_2 1_555 1_555
H5_4 C9_4 1_555 1_555
C10_4 C9_4 1_555 1_555
H6_4 C10_4 1_555 1_555
C11_2 C12_2 1_555 1_555
C12_2 C13_2 1_555 1_555
C13_2 H7_2 1_555 1_555
C14_2 C13_2 1_555 1_555
H8_2 C14_2 1_555 1_555
C15_2 C14_2 1_555 1_555
C16_2 C15_2 1_555 1_555
H9_2 C16_2 1_555 1_555
C17_2 C12_2 1_555 1_555
H10_2 C17_2 1_555 1_555
N1_4 C5_4 1_555 1_555
N3_2 C8_2 1_555 1_555
H11_2 N3_2 1_555 1_555
O1_4 C1_4 1_555 1_555
O2_4 C1_4 1_555 1_555
O3_4 N1_4 1_555 1_555
O4_2 C11_2 1_555 1_555
Zn1 N2 1_555 1_555
C18_4 C19_4 1_555 1_555
C19_4 C3_4 1_555 1_555
C20_4 C5_4 1_555 1_555
H12_4 C20_4 1_555 1_555
O5_3 C18_4 1_555 1_555
O7_4 C18_4 1_555 1_555
O8_4 N1_4 1_555 1_555
Zn2 O5_3 1_555 1_555
C10_4 N2 1_555 1_555
C11_2 N3_2 1_555 1_555
C16_2 C17_2 1_555 1_555
O1_4 Zn1 1_555 1_555
C19_4 C20_4 1_555 1_555
C6_4 H3_4 1_555 1_555
C7_2 C6_4 1_555 1_555
H4_2 C7_2 1_555 1_555
N5_4 Zn1_2 1_555 1_555
O6_2 Zn1_2 1_555 1_555
C1_5 C2_5 1_555 1_555
C2_5 C3_5 1_555 1_555
C3_5 H1_5 1_555 1_555
C4_5 C2_5 1_555 1_555
H2_5 C4_5 1_555 1_555
C5_5 C4_5 1_555 1_555
C6_5 H3_5 1_555 1_555
H5_5 C9_5 1_555 1_555
C10_5 C9_5 1_555 1_555
H6_5 C10_5 1_555 1_555
N1_5 C5_5 1_555 1_555
N2_2 C6_5 1_555 1_555
O1_5 C1_5 1_555 1_555
O2_5 C1_5 1_555 1_555
O3_5 N1_5 1_555 1_555
Zn2 N2_2 1_555 1_555
C18_5 C19_5 1_555 1_555
C19_5 C3_5 1_555 1_555
C20_5 C5_5 1_555 1_555
H12_5 C20_5 1_555 1_555
N5_5 Zn2 1_555 1_555
O5_4 C18_5 1_555 1_555
O7_5 C18_5 1_555 1_555
O8_5 N1_5 1_555 1_555
Zn2_2 O5_4 1_555 1_555
C10_5 N2_2 1_555 1_555
O1_5 Zn2 1_555 1_555
C19_5 C20_5 1_555 1_555
C1_6 C2_6 1_555 1_555
C2_6 C3_6 1_555 1_555
C3_6 H1_6 1_555 1_555
C4_6 C2_6 1_555 1_555
H2_6 C4_6 1_555 1_555
C5_6 C4_6 1_555 1_555
C6_6 H3_6 1_555 1_555
H5_6 C9_6 1_555 1_555
C10_6 C9_6 1_555 1_555
H6_6 C10_6 1_555 1_555
N1_6 C5_6 1_555 1_555
N2_3 C6_6 1_555 1_555
O1_6 C1_6 1_555 1_555
O2_6 C1_6 1_555 1_555
O3_6 N1_6 1_555 1_555
Zn2_2 N2_3 1_555 1_555
C18_6 C19_6 1_555 1_555
C19_6 C3_6 1_555 1_555
C20_6 C5_6 1_555 1_555
H12_6 C20_6 1_555 1_555
N5_6 Zn2_2 1_555 1_555
O6_2 C18_6 1_555 1_555
O7_6 C18_6 1_555 1_555
O8_6 N1_6 1_555 1_555
C10_6 N2_3 1_555 1_555
O1_6 Zn2_2 1_555 1_555
C19_6 C20_6 1_555 1_555
C21_4 H13_4 1_555 1_555
C22_2 C21_4 1_555 1_555
H14_2 C22_2 1_555 1_555
C23_2 C22_2 1_555 1_555
C24_4 C23_2 1_555 1_555
H15_4 C24_4 1_555 1_555
C25_4 C24_4 1_555 1_555
H16_4 C25_4 1_555 1_555
C26_2 C27_2 1_555 1_555
C27_2 C28_2 1_555 1_555
C28_2 H17_2 1_555 1_555
C29_2 C28_2 1_555 1_555
H18_2 C29_2 1_555 1_555
C31_2 C30_2 1_555 1_555
H19_2 C31_2 1_555 1_555
C32_2 C27_2 1_555 1_555
H20_2 C32_2 1_555 1_555
N5_5 C21_4 1_555 1_555
N6_2 C23_2 1_555 1_555
H21_2 N6_2 1_555 1_555
O9_2 C26_2 1_555 1_555
C25_4 N5_5 1_555 1_555
C26_2 N6_2 1_555 1_555
C29_2 C30_2 1_555 1_555
C31_2 C32_2 1_555 1_555
C21_5 H13_5 1_555 1_555
H15_5 C24_5 1_555 1_555
C25_5 C24_5 1_555 1_555
H16_5 C25_5 1_555 1_555
C25_5 N5_4 1_555 1_555
C21_6 H13_6 1_555 1_555
H15_6 C24_6 1_555 1_555
C25_6 C24_6 1_555 1_555
H16_6 C25_6 1_555 1_555
N5_6 C21_6 1_555 1_555
C25_6 N5_6 1_555 1_555
H4_3 C7_3 1_555 1_555
C8_3 C7_3 1_555 1_555
C11_3 C12_3 1_555 1_555
C12_3 C13_3 1_555 1_555
C13_3 H7_3 1_555 1_555
C14_3 C13_3 1_555 1_555
H8_3 C14_3 1_555 1_555
C15_3 C14_3 1_555 1_555
C16_3 C15_3 1_555 1_555
H9_3 C16_3 1_555 1_555
C17_3 C12_3 1_555 1_555
H10_3 C17_3 1_555 1_555
N3_3 C8_3 1_555 1_555
H11_3 N3_3 1_555 1_555
O4_3 C11_3 1_555 1_555
C11_3 N3_3 1_555 1_555
C16_3 C17_3 1_555 1_555
H14_3 C22_3 1_555 1_555
C23_3 C22_3 1_555 1_555
C26_3 C27_3 1_555 1_555
C27_3 C28_3 1_555 1_555
C28_3 H17_3 1_555 1_555
C29_3 C28_3 1_555 1_555
H18_3 C29_3 1_555 1_555
C31_3 C30_3 1_555 1_555
H19_3 C31_3 1_555 1_555
C32_3 C27_3 1_555 1_555
H20_3 C32_3 1_555 1_555
N6_3 C23_3 1_555 1_555
H21_3 N6_3 1_555 1_555
O9_3 C26_3 1_555 1_555
C26_3 N6_3 1_555 1_555
C29_3 C30_3 1_555 1_555
C31_3 C32_3 1_555 1_555
H4_4 C7_4 1_555 1_555
C8_4 C7_4 1_555 1_555
C11_4 C12_4 1_555 1_555
C12_4 C13_4 1_555 1_555
C13_4 H7_4 1_555 1_555
C14_4 C13_4 1_555 1_555
H8_4 C14_4 1_555 1_555
C15_4 C14_4 1_555 1_555
C16_4 C15_4 1_555 1_555
H9_4 C16_4 1_555 1_555
C17_4 C12_4 1_555 1_555
H10_4 C17_4 1_555 1_555
N3_4 C8_4 1_555 1_555
H11_4 N3_4 1_555 1_555
O4_4 C11_4 1_555 1_555
H14_4 C22_4 1_555 1_555
C23_4 C22_4 1_555 1_555
C26_4 C27_4 1_555 1_555
C27_4 C28_4 1_555 1_555
C28_4 H17_4 1_555 1_555
C29_4 C28_4 1_555 1_555
H18_4 C29_4 1_555 1_555
C30_4 C15_4 1_555 1_555
C31_4 C30_4 1_555 1_555
H19_4 C31_4 1_555 1_555
C32_4 C27_4 1_555 1_555
H20_4 C32_4 1_555 1_555
N6_4 C23_4 1_555 1_555
H21_4 N6_4 1_555 1_555
O9_4 C26_4 1_555 1_555
C11_4 N3_4 1_555 1_555
C16_4 C17_4 1_555 1_555
C26_4 N6_4 1_555 1_555
C29_4 C30_4 1_555 1_555
C31_4 C32_4 1_555 1_555
H4_5 C7_5 1_555 1_555
C11_5 C12_5 1_555 1_555
C12_5 C13_5 1_555 1_555
C13_5 H7_5 1_555 1_555
C14_5 C13_5 1_555 1_555
H8_5 C14_5 1_555 1_555
C15_5 C14_5 1_555 1_555
C16_5 C15_5 1_555 1_555
H9_5 C16_5 1_555 1_555
C17_5 C12_5 1_555 1_555
H10_5 C17_5 1_555 1_555
N3_5 C8_5 1_555 1_555
H11_5 N3_5 1_555 1_555
O4_5 C11_5 1_555 1_555
C11_5 N3_5 1_555 1_555
C16_5 C17_5 1_555 1_555
H14_5 C22_5 1_555 1_555
C26_5 C27_5 1_555 1_555
C27_5 C28_5 1_555 1_555
C28_5 H17_5 1_555 1_555
C29_5 C28_5 1_555 1_555
H18_5 C29_5 1_555 1_555
C31_5 C30_5 1_555 1_555
H19_5 C31_5 1_555 1_555
C32_5 C27_5 1_555 1_555
H20_5 C32_5 1_555 1_555
N6_5 C23_5 1_555 1_555
H21_5 N6_5 1_555 1_555
O9_5 C26_5 1_555 1_555
C26_5 N6_5 1_555 1_555
C29_5 C30_5 1_555 1_555
C31_5 C32_5 1_555 1_555
H4_6 C7_6 1_555 1_555
C8_6 C7_6 1_555 1_555
C11_6 C12_6 1_555 1_555
C12_6 C13_6 1_555 1_555
C13_6 H7_6 1_555 1_555
C14_6 C13_6 1_555 1_555
H8_6 C14_6 1_555 1_555
C15_6 C14_6 1_555 1_555
C16_6 C15_6 1_555 1_555
H9_6 C16_6 1_555 1_555
C17_6 C12_6 1_555 1_555
H10_6 C17_6 1_555 1_555
N3_6 C8_6 1_555 1_555
H11_6 N3_6 1_555 1_555
O4_6 C11_6 1_555 1_555
H14_6 C22_6 1_555 1_555
C23_6 C22_6 1_555 1_555
C26_6 C27_6 1_555 1_555
C27_6 C28_6 1_555 1_555
C28_6 H17_6 1_555 1_555
C29_6 C28_6 1_555 1_555
H18_6 C29_6 1_555 1_555
C30_6 C15_6 1_555 1_555
C31_6 C30_6 1_555 1_555
H19_6 C31_6 1_555 1_555
C32_6 C27_6 1_555 1_555
H20_6 C32_6 1_555 1_555
N6_6 C23_6 1_555 1_555
H21_6 N6_6 1_555 1_555
O9_6 C26_6 1_555 1_555
C11_6 N3_6 1_555 1_555
C16_6 C17_6 1_555 1_555
C26_6 N6_6 1_555 1_555
C29_6 C30_6 1_555 1_555
C31_6 C32_6 1_555 1_555

#END
