
###############################################################################
#
# This file contains modified crystal structure data generated from the
# MOF subset of the Cambridge Structural Database (CSD) v543 
# hosted by the Cambridge Crystallographic Data Centre (CCDC).
#
# This work is licensed under the Creative Commons
# Attribution-NonCommercial-ShareAlike 4.0 International License.
# To view a copy of this license, visit
# http://creativecommons.org/licenses/by-nc-sa/4.0/
# or send a letter to
# Creative Commons, PO Box 1866, Mountain View, CA 94042, USA.
#
# CIF created using the CSD Python API on 29 September 2022
# The structure has been converted into the P1 space group
# The structure has a 3D framework
# The original CSD entry RAYLAG is in the hexagonal crystal system
# The original CSD entry RAYLAG is in a Sohncke space group
# The framework has been calculated to contain at least 10.0% void space
# The void calculation uses a probe of radius 1.32A, grid spacing 0.4
#
###############################################################################

data_RAYLAG
_chemical_formula_moiety         '(C192 H138 N30 O36 Zn6)n'
_symmetry_cell_setting           triclinic
_symmetry_space_group_name_H-M   'P 1'
_symmetry_Int_Tables_number      1
_space_group_name_Hall           'P 1'
loop_
_symmetry_equiv_pos_site_id
_symmetry_equiv_pos_as_xyz
1 x,y,z
_cell_length_a                   16.5764(3)
_cell_length_b                   16.5764(3)
_cell_length_c                   25.2504(11)
_cell_angle_alpha                90
_cell_angle_beta                 90
_cell_angle_gamma                120
_cell_volume                     6008.68
loop_
_atom_site_label
_atom_site_type_symbol
_atom_site_fract_x
_atom_site_fract_y
_atom_site_fract_z
C1 C 0.25850(15) 0.67337(15) 0.06963(10)
C2 C 0.25094(15) 0.71598(14) 0.12080(11)
C3 C 0.29116(10) 0.70884(10) 0.1667
H1 H 0.3236 0.6764 0.1667
C4 C 0.20428(15) 0.76661(18) 0.12060(14)
H2 H 0.1796 0.7742 0.0892
C5 C 0.19464(14) 0.80536(14) 0.1667
C8 C 0.39577(14) 0.35930(13) 0.04675(9)
C9 C 0.36474(16) 0.39946(16) 0.08479(10)
H5 H 0.3633 0.3850 0.1205
C10 C 0.33659(17) 0.46040(17) 0.06838(10)
H6 H 0.3177 0.4875 0.0942
C11 C 0.41176(18) 0.24851(17) 0.10297(10)
C12 C 0.44414(16) 0.17873(15) 0.10518(10)
C13 C 0.4942(2) 0.17007(19) 0.07038(17)
H7 H 0.5148 0.2109 0.0418
C14 C 0.5197(2) 0.1018(2) 0.07326(19)
H8 H 0.5605 0.1018 0.0480
C15 C 0.48838(15) 0.03728(14) 0.11031(10)
C16 C 0.4455(2) 0.0527(2) 0.14736(16)
H9 H 0.4258 0.0131 0.1765
C17 C 0.4271(3) 0.1245(2) 0.14647(15)
H10 H 0.4014 0.1354 0.1765
N1 N 0.33445(11) 0.48346(11) 0.01812(7)
N2 N 0.42469(6) 0.29695(2) 0.05803(4)
H11 H 0.4548 0.2876 0.0333
N3 N 0.14571(6) 0.85396(2) 0.16667(4)
H12 H 0.1397 0.8780 0.1956
O1 O 0.29071(6) 0.62064(2) 0.07173(4)
O2 O 0.23239(6) 0.69234(2) 0.02760(4)
O3 O 0.37875(6) 0.26358(2) 0.14157(4)
Zn1 Zn 0.28593(6) 0.57195(2) 0.00001(4)
C18 C 0.32663(15) 0.74150(15) 0.26370(10)
C19 C 0.28402(14) 0.74906(15) 0.21253(11)
C20 C 0.23339(18) 0.79572(15) 0.21273(14)
H13 H 0.2258 0.8204 0.2441
H23 H 0.1220 0.8603 0.1377
O4 O 0.37936(2) 0.70929(6) 0.26160(4)
O6 O 0.30766(2) 0.76761(6) 0.30573(4)
Zn2 Zn 0.42805(2) 0.71398(6) 0.33334(4)
C6 C 0.36159(17) 0.44445(17) 0.98240(9)
H3 H 0.3583 0.4574 0.9469
C7 C 0.39514(15) 0.38438(15) 0.99515(9)
H4 H 0.4170 0.3615 0.9685
Zn1_2 Zn 0.28593(6) 0.57195(2) 1.00001(4)
N5 N 0.14901(16) 0.48346(11) 0.98188(7)
O5 O 0.32993(6) 0.62064(2) 0.92827(4)
C1_2 C 0.32663(15) 0.58513(21) 0.40296(10)
C2_2 C 0.28402(14) 0.53496(21) 0.45413(11)
C3_2 C 0.29116(10) 0.58232(14) 0.5000
H1_2 H 0.3236 0.6472 0.5000
C4_2 C 0.23339(18) 0.43767(23) 0.45393(14)
H2_2 H 0.2258 0.4054 0.4225
C5_2 C 0.19464(14) 0.38928(20) 0.5000
C6_2 C 0.55555(17) 0.91714(24) 0.31573(9)
H3_2 H 0.5426 0.9009 0.2802
C9_2 C 0.60054(16) 0.96528(23) 0.41812(10)
H5_2 H 0.6150 0.9783 0.4538
C10_2 C 0.53960(17) 0.87619(24) 0.40171(10)
H6_2 H 0.5125 0.8302 0.4275
N1_2 N 0.51654(11) 0.85099(16) 0.35145(7)
N3_2 N 0.14604(2) 0.29175(6) 0.50000(4)
H12_2 H 0.1220 0.2617 0.5289
O1_2 O 0.37936(2) 0.67007(6) 0.40506(4)
O2_2 O 0.30766(2) 0.54005(6) 0.36093(4)
C18_2 C 0.25850(15) 0.58513(21) 0.59704(10)
C19_2 C 0.25094(15) 0.53496(21) 0.54587(11)
C20_2 C 0.20428(15) 0.43767(23) 0.54607(14)
H13_2 H 0.1796 0.4054 0.5775
N5_2 N 0.51654(11) 0.66555(19) 0.31521(7)
H23_2 H 0.1397 0.2617 0.4711
O4_2 O 0.29071(6) 0.67007(6) 0.59494(4)
O6_2 O 0.23239(6) 0.54005(6) 0.63907(4)
Zn2_2 Zn 0.28602(6) 0.71407(6) 0.66668(4)
C1_3 C 0.41487(21) 0.74150(15) 0.73630(10)
C2_3 C 0.46504(21) 0.74906(15) 0.78747(11)
C3_3 C 0.41768(14) 0.70884(10) 0.8334
H1_3 H 0.3528 0.6764 0.8334
C4_3 C 0.56233(23) 0.79572(15) 0.78727(14)
H2_3 H 0.5946 0.8204 0.7559
C5_3 C 0.61072(20) 0.80536(14) 0.8334
C6_3 C 0.08286(24) 0.63841(17) 0.64907(9)
H3_3 H 0.0991 0.6417 0.6136
C9_3 C 0.03472(23) 0.63526(16) 0.75146(10)
H5_3 H 0.0217 0.6367 0.7872
C10_3 C 0.12381(24) 0.66341(17) 0.73505(10)
H6_3 H 0.1698 0.6823 0.7609
N1_3 N 0.14901(16) 0.66555(11) 0.68479(7)
N3_3 N 0.70825(6) 0.85429(6) 0.83334(4)
H12_3 H 0.7383 0.8603 0.8623
O1_3 O 0.32993(6) 0.70929(6) 0.73840(4)
O2_3 O 0.45995(6) 0.76761(6) 0.69427(4)
C18_3 C 0.41487(21) 0.67337(15) 0.93037(10)
C19_3 C 0.46504(21) 0.71598(14) 0.87920(11)
C20_3 C 0.56233(23) 0.76661(18) 0.87940(14)
H13_3 H 0.5946 0.7742 0.9108
N5_3 N 0.33445(19) 0.85099(16) 0.64855(7)
H23_3 H 0.7383 0.8780 0.8044
O6_3 O 0.45995(6) 0.69234(2) 0.97240(4)
C21 C 0.55555(17) 0.63841(17) 0.35093(9)
H14 H 0.5426 0.6417 0.3864
C22 C 0.61562(15) 0.60486(15) 0.33818(9)
H15 H 0.6385 0.5830 0.3648
C23 C 0.64070(13) 0.60423(14) 0.28658(9)
C24 C 0.60054(16) 0.63526(16) 0.24854(10)
H16 H 0.6150 0.6367 0.2128
C25 C 0.53960(17) 0.66341(17) 0.26495(10)
H17 H 0.5125 0.6823 0.2391
C26 C 0.75149(17) 0.58824(18) 0.23036(10)
C27 C 0.82127(15) 0.55586(16) 0.22815(10)
C28 C 0.82993(19) 0.5058(2) 0.26295(17)
H18 H 0.7891 0.4852 0.2915
C29 C 0.8982(2) 0.4803(2) 0.26007(19)
H19 H 0.8982 0.4395 0.2853
C30 C 0.96272(14) 0.51162(15) 0.22302(10)
C31 C 0.9473(2) 0.5545(2) 0.18597(16)
H20 H 0.9869 0.5742 0.1568
C32 C 0.8755(2) 0.5729(3) 0.18686(15)
H21 H 0.8646 0.5986 0.1568
N6 N 0.70305(2) 0.57531(6) 0.27530(4)
H22 H 0.7124 0.5452 0.3000
O7 O 0.73642(2) 0.62125(6) 0.19176(4)
C21_2 C 0.08286(24) 0.44445(17) 0.01760(9)
H14_2 H 0.0991 0.4574 0.0531
C24_2 C 0.03472(23) 0.39946(16) 0.91521(10)
H16_2 H 0.0217 0.3850 0.8795
C25_2 C 0.12381(24) 0.46040(17) 0.93162(10)
H17_2 H 0.1698 0.4875 0.9058
C21_3 C 0.36159(17) 0.91714(24) 0.68427(9)
H14_3 H 0.3583 0.9009 0.7198
C24_3 C 0.36474(16) 0.96528(23) 0.58188(10)
H16_3 H 0.3633 0.9783 0.5462
C25_3 C 0.33659(17) 0.87619(24) 0.59829(10)
H17_3 H 0.3177 0.8302 0.5725
C23_2 C 0.60423(14) 0.64070(13) 0.04675(9)
C24_4 C 0.63526(16) 0.60054(16) 0.08479(10)
H16_4 H 0.6367 0.6150 0.1205
C25_4 C 0.66341(17) 0.53960(17) 0.06838(10)
H17_4 H 0.6823 0.5125 0.0942
C26_2 C 0.58824(18) 0.75149(17) 0.10297(10)
C27_2 C 0.55586(16) 0.82127(15) 0.10518(10)
C28_2 C 0.5058(2) 0.82993(19) 0.07038(17)
H18_2 H 0.4852 0.7891 0.0418
C29_2 C 0.4803(2) 0.8982(2) 0.07326(19)
H19_2 H 0.4395 0.8982 0.0480
C30_2 C 0.51162(15) 0.96272(14) 0.11031(10)
C31_2 C 0.5545(2) 0.9473(2) 0.14736(16)
H20_2 H 0.5742 0.9869 0.1765
C32_2 C 0.5729(3) 0.8755(2) 0.14647(15)
H21_2 H 0.5986 0.8646 0.1765
N4 N 0.66555(11) 0.51654(11) 0.01812(7)
N6_2 N 0.57531(6) 0.70305(2) 0.05803(4)
H22_2 H 0.5452 0.7124 0.0333
O7_2 O 0.62125(6) 0.73642(2) 0.14157(4)
Zn3 Zn 0.71398(6) 0.42805(2) -0.00001(4)
C21_4 C 0.63841(17) 0.55555(17) 0.98240(9)
H14_4 H 0.6417 0.5426 0.9469
C22_2 C 0.60486(15) 0.61562(15) 0.99515(9)
H15_2 H 0.5830 0.6385 0.9685
Zn3_2 Zn 0.71398(6) 0.42805(2) 0.99999(4)
C21_5 C 0.44445(17) 0.08286(24) 0.31573(9)
H14_5 H 0.4574 0.0991 0.2802
C24_5 C 0.39946(16) 0.03472(23) 0.41812(10)
H16_5 H 0.3850 0.0217 0.4538
C25_5 C 0.46040(17) 0.12381(24) 0.40171(10)
H17_5 H 0.4875 0.1698 0.4275
N4_2 N 0.48346(11) 0.14901(16) 0.35145(7)
Zn3_3 Zn 0.57195(2) 0.28593(6) 0.33332(4)
C21_6 C 0.91714(24) 0.36159(17) 0.64907(9)
H14_6 H 0.9009 0.3583 0.6136
C24_6 C 0.96528(23) 0.36474(16) 0.75146(10)
H16_6 H 0.9783 0.3633 0.7872
C25_6 C 0.87619(24) 0.33659(17) 0.73505(10)
H17_6 H 0.8302 0.3177 0.7609
N4_3 N 0.85099(16) 0.33445(11) 0.68479(7)
Zn3_4 Zn 0.71407(6) 0.28602(6) 0.66666(4)
C1_4 C 0.74150(15) 0.32663(15) 0.06963(10)
C2_4 C 0.74906(15) 0.28402(14) 0.12080(11)
C3_4 C 0.70884(10) 0.29116(10) 0.1667
H1_4 H 0.6764 0.3236 0.1667
C4_4 C 0.79572(15) 0.23339(18) 0.12060(14)
H2_4 H 0.8204 0.2258 0.0892
C5_4 C 0.80536(14) 0.19464(14) 0.1667
N3_4 N 0.85429(6) 0.14604(2) 0.16667(4)
H12_4 H 0.8603 0.1220 0.1956
O1_4 O 0.70929(6) 0.37936(2) 0.07173(4)
O2_4 O 0.76761(6) 0.30766(2) 0.02760(4)
C18_4 C 0.67337(15) 0.25850(15) 0.26370(10)
C19_4 C 0.71598(14) 0.25094(15) 0.21253(11)
C20_4 C 0.76661(18) 0.20428(15) 0.21273(14)
H13_4 H 0.7742 0.1796 0.2441
H23_4 H 0.8780 0.1397 0.1377
O4_3 O 0.62064(2) 0.29071(6) 0.26160(4)
O6_4 O 0.69234(2) 0.23239(6) 0.30573(4)
N5_4 N 0.85099(16) 0.51654(11) 0.98188(7)
O5_2 O 0.67007(6) 0.37936(2) 0.92827(4)
C1_5 C 0.67337(15) 0.41487(21) 0.40296(10)
C2_5 C 0.71598(14) 0.46504(21) 0.45413(11)
C3_5 C 0.70884(10) 0.41768(14) 0.5000
H1_5 H 0.6764 0.3528 0.5000
C4_5 C 0.76661(18) 0.56233(23) 0.45393(14)
H2_5 H 0.7742 0.5946 0.4225
C5_5 C 0.80536(14) 0.61072(20) 0.5000
N3_5 N 0.85396(2) 0.70825(6) 0.50000(4)
H12_5 H 0.8780 0.7383 0.5289
O1_5 O 0.62064(2) 0.32993(6) 0.40506(4)
O2_5 O 0.69234(2) 0.45995(6) 0.36093(4)
C18_5 C 0.74150(15) 0.41487(21) 0.59704(10)
C19_5 C 0.74906(15) 0.46504(21) 0.54587(11)
C20_5 C 0.79572(15) 0.56233(23) 0.54607(14)
H13_5 H 0.8204 0.5946 0.5775
N5_5 N 0.48346(11) 0.33445(19) 0.31521(7)
H23_5 H 0.8603 0.7383 0.4711
O4_4 O 0.70929(6) 0.32993(6) 0.59494(4)
O6_5 O 0.76761(6) 0.45995(6) 0.63907(4)
C1_6 C 0.58513(21) 0.25850(15) 0.73630(10)
C2_6 C 0.53496(21) 0.25094(15) 0.78747(11)
C3_6 C 0.58232(14) 0.29116(10) 0.8334
H1_6 H 0.6472 0.3236 0.8334
C4_6 C 0.43767(23) 0.20428(15) 0.78727(14)
H2_6 H 0.4054 0.1796 0.7559
C5_6 C 0.38928(20) 0.19464(14) 0.8334
N3_6 N 0.29175(6) 0.14571(6) 0.83334(4)
H12_6 H 0.2617 0.1397 0.8623
O1_6 O 0.67007(6) 0.29071(6) 0.73840(4)
O2_6 O 0.54005(6) 0.23239(6) 0.69427(4)
C18_6 C 0.58513(21) 0.32663(15) 0.93037(10)
C19_6 C 0.53496(21) 0.28402(14) 0.87920(11)
C20_6 C 0.43767(23) 0.23339(18) 0.87940(14)
H13_6 H 0.4054 0.2258 0.9108
N5_6 N 0.66555(19) 0.14901(16) 0.64855(7)
H23_6 H 0.2617 0.1220 0.8044
O6_6 O 0.54005(6) 0.30766(2) 0.97240(4)
C6_4 C 0.44445(17) 0.36159(17) 0.35093(9)
H3_4 H 0.4574 0.3583 0.3864
C7_2 C 0.38438(15) 0.39514(15) 0.33818(9)
H4_2 H 0.3615 0.4170 0.3648
C8_2 C 0.35930(13) 0.39577(14) 0.28658(9)
C9_4 C 0.39946(16) 0.36474(16) 0.24854(10)
H5_4 H 0.3850 0.3633 0.2128
C10_4 C 0.46040(17) 0.33659(17) 0.26495(10)
H6_4 H 0.4875 0.3177 0.2391
C11_2 C 0.24851(17) 0.41176(18) 0.23036(10)
C12_2 C 0.17873(15) 0.44414(16) 0.22815(10)
C13_2 C 0.17007(19) 0.4942(2) 0.26295(17)
H7_2 H 0.2109 0.5148 0.2915
C14_2 C 0.1018(2) 0.5197(2) 0.26007(19)
H8_2 H 0.1018 0.5605 0.2853
C15_2 C 0.03728(14) 0.48838(15) 0.22302(10)
C16_2 C 0.0527(2) 0.4455(2) 0.18597(16)
H9_2 H 0.0131 0.4258 0.1568
C17_2 C 0.1245(2) 0.4271(3) 0.18686(15)
H10_2 H 0.1354 0.4014 0.1568
N2_2 N 0.29695(2) 0.42469(6) 0.27530(4)
H11_2 H 0.2876 0.4548 0.3000
O3_2 O 0.26358(2) 0.37875(6) 0.19176(4)
C6_5 C 0.91714(24) 0.55555(17) 0.01760(9)
H3_5 H 0.9009 0.5426 0.0531
C9_5 C 0.96528(23) 0.60054(16) 0.91521(10)
H5_5 H 0.9783 0.6150 0.8795
C10_5 C 0.87619(24) 0.53960(17) 0.93162(10)
H6_5 H 0.8302 0.5125 0.9058
C6_6 C 0.63841(17) 0.08286(24) 0.68427(9)
H3_6 H 0.6417 0.0991 0.7198
C9_6 C 0.63526(16) 0.03472(23) 0.58188(10)
H5_6 H 0.6367 0.0217 0.5462
C10_6 C 0.66341(17) 0.12381(24) 0.59829(10)
H6_6 H 0.6823 0.1698 0.5725
C22_3 C 0.38438(15) 0.98924(21) 0.32848(9)
H15_3 H 0.3615 0.9445 0.3018
C23_3 C 0.35930(13) 0.96353(19) 0.38008(9)
C26_3 C 0.24851(17) 0.83675(25) 0.43630(10)
C27_3 C 0.17873(15) 0.73459(22) 0.43851(10)
C28_3 C 0.17007(19) 0.67587(28) 0.40371(17)
H18_3 H 0.2109 0.6961 0.3751
C29_3 C 0.1018(2) 0.5821(3) 0.40659(19)
H19_3 H 0.1018 0.5413 0.3813
C30_3 C 0.03728(14) 0.54890(21) 0.44364(10)
C31_3 C 0.0527(2) 0.6072(3) 0.48069(16)
H20_3 H 0.0131 0.5873 0.5098
C32_3 C 0.1245(2) 0.6974(4) 0.47980(15)
H21_3 H 0.1354 0.7340 0.5098
N6_3 N 0.29695(2) 0.87226(6) 0.39136(4)
H22_3 H 0.2876 0.8328 0.3666
O7_3 O 0.26358(2) 0.88483(6) 0.47490(4)
C7_3 C 0.61562(15) 0.01076(21) 0.32848(9)
H4_3 H 0.6385 0.0555 0.3018
C8_3 C 0.64070(13) 0.03647(19) 0.38008(9)
C11_3 C 0.75149(17) 0.16325(25) 0.43630(10)
C12_3 C 0.82127(15) 0.26541(22) 0.43851(10)
C13_3 C 0.82993(19) 0.32413(28) 0.40371(17)
H7_3 H 0.7891 0.3039 0.3751
C14_3 C 0.8982(2) 0.4179(3) 0.40659(19)
H8_3 H 0.8982 0.4587 0.3813
C15_3 C 0.96272(14) 0.45110(21) 0.44364(10)
C16_3 C 0.9473(2) 0.3928(3) 0.48069(16)
H9_3 H 0.9869 0.4127 0.5098
C17_3 C 0.8755(2) 0.3026(4) 0.47980(15)
H10_3 H 0.8646 0.2660 0.5098
N2_3 N 0.70305(2) 0.12774(6) 0.39136(4)
H11_3 H 0.7124 0.1672 0.3666
O3_3 O 0.73642(2) 0.11517(6) 0.47490(4)
C7_4 C 0.98924(21) 0.60486(15) 0.66182(9)
H4_4 H 0.9445 0.5830 0.6352
C8_4 C 0.96353(19) 0.60423(14) 0.71342(9)
C11_4 C 0.83675(25) 0.58824(18) 0.76964(10)
C12_4 C 0.73459(22) 0.55586(16) 0.77185(10)
C13_4 C 0.67587(28) 0.5058(2) 0.73705(17)
H7_4 H 0.6961 0.4852 0.7085
C14_4 C 0.5821(3) 0.4803(2) 0.73993(19)
H8_4 H 0.5413 0.4395 0.7147
C15_4 C 0.54890(21) 0.51162(15) 0.77698(10)
C16_4 C 0.6072(3) 0.5545(2) 0.81403(16)
H9_4 H 0.5873 0.5742 0.8432
C17_4 C 0.6974(4) 0.5729(3) 0.81314(15)
H10_4 H 0.7340 0.5986 0.8432
N2_4 N 0.87226(6) 0.57531(6) 0.72470(4)
H11_4 H 0.8328 0.5452 0.7000
O3_4 O 0.88483(6) 0.62125(6) 0.80824(4)
C22_4 C 0.01076(21) 0.39514(15) 0.66182(9)
H15_4 H 0.0555 0.4170 0.6352
C23_4 C 0.03647(19) 0.39577(14) 0.71342(9)
C26_4 C 0.16325(25) 0.41176(18) 0.76964(10)
C27_4 C 0.26541(22) 0.44414(16) 0.77185(10)
C28_4 C 0.32413(28) 0.4942(2) 0.73705(17)
H18_4 H 0.3039 0.5148 0.7085
C29_4 C 0.4179(3) 0.5197(2) 0.73993(19)
H19_4 H 0.4587 0.5605 0.7147
C30_4 C 0.45110(21) 0.48838(15) 0.77698(10)
C31_4 C 0.3928(3) 0.4455(2) 0.81403(16)
H20_4 H 0.4127 0.4258 0.8432
C32_4 C 0.3026(4) 0.4271(3) 0.81314(15)
H21_4 H 0.2660 0.4014 0.8432
N6_4 N 0.12774(6) 0.42469(6) 0.72470(4)
H22_4 H 0.1672 0.4548 0.7000
O7_4 O 0.11517(6) 0.37875(6) 0.80824(4)
C22_5 C 0.98924(21) 0.38438(15) 0.00485(9)
H15_5 H 0.9445 0.3615 0.0315
C23_5 C 0.96353(19) 0.35930(13) 0.95325(9)
C26_5 C 0.83675(25) 0.24851(17) 0.89703(10)
C27_5 C 0.73459(22) 0.17873(15) 0.89482(10)
C28_5 C 0.67587(28) 0.17007(19) 0.92962(17)
H18_5 H 0.6961 0.2109 0.9582
C29_5 C 0.5821(3) 0.1018(2) 0.92674(19)
H19_5 H 0.5413 0.1018 0.9520
C30_5 C 0.54890(21) 0.03728(14) 0.88969(10)
C31_5 C 0.6072(3) 0.0527(2) 0.85264(16)
H20_5 H 0.5873 0.0131 0.8235
C32_5 C 0.6974(4) 0.1245(2) 0.85353(15)
H21_5 H 0.7340 0.1354 0.8235
N6_5 N 0.87226(6) 0.29695(2) 0.94197(4)
H22_5 H 0.8328 0.2876 0.9667
O7_5 O 0.88483(6) 0.26358(2) 0.85843(4)
C7_5 C 0.01076(21) 0.61562(15) 0.00485(9)
H4_5 H 0.0555 0.6385 0.0315
C8_5 C 0.03647(19) 0.64070(13) 0.95325(9)
C11_5 C 0.16325(25) 0.75149(17) 0.89703(10)
C12_5 C 0.26541(22) 0.82127(15) 0.89482(10)
C13_5 C 0.32413(28) 0.82993(19) 0.92962(17)
H7_5 H 0.3039 0.7891 0.9582
C14_5 C 0.4179(3) 0.8982(2) 0.92674(19)
H8_5 H 0.4587 0.8982 0.9520
C15_5 C 0.45110(21) 0.96272(14) 0.88969(10)
C16_5 C 0.3928(3) 0.9473(2) 0.85264(16)
H9_5 H 0.4127 0.9869 0.8235
C17_5 C 0.3026(4) 0.8755(2) 0.85353(15)
H10_5 H 0.2660 0.8646 0.8235
N2_5 N 0.12774(6) 0.70305(2) 0.94197(4)
H11_5 H 0.1672 0.7124 0.9667
O3_5 O 0.11517(6) 0.73642(2) 0.85843(4)
C7_6 C 0.60486(15) 0.98924(21) 0.67152(9)
H4_6 H 0.5830 0.9445 0.6982
C8_6 C 0.60423(14) 0.96353(19) 0.61992(9)
C11_6 C 0.58824(18) 0.83675(25) 0.56370(10)
C12_6 C 0.55586(16) 0.73459(22) 0.56149(10)
C13_6 C 0.5058(2) 0.67587(28) 0.59629(17)
H7_6 H 0.4852 0.6961 0.6249
C14_6 C 0.4803(2) 0.5821(3) 0.59341(19)
H8_6 H 0.4395 0.5413 0.6187
C15_6 C 0.51162(15) 0.54890(21) 0.55636(10)
C16_6 C 0.5545(2) 0.6072(3) 0.51931(16)
H9_6 H 0.5742 0.5873 0.4902
C17_6 C 0.5729(3) 0.6974(4) 0.52020(15)
H10_6 H 0.5986 0.7340 0.4902
N2_6 N 0.57531(6) 0.87226(6) 0.60864(4)
H11_6 H 0.5452 0.8328 0.6334
O3_6 O 0.62125(6) 0.88483(6) 0.52510(4)
C22_6 C 0.39514(15) 0.01076(21) 0.67152(9)
H15_6 H 0.4170 0.0555 0.6982
C23_6 C 0.39577(14) 0.03647(19) 0.61992(9)
C26_6 C 0.41176(18) 0.16325(25) 0.56370(10)
C27_6 C 0.44414(16) 0.26541(22) 0.56149(10)
C28_6 C 0.4942(2) 0.32413(28) 0.59629(17)
H18_6 H 0.5148 0.3039 0.6249
C29_6 C 0.5197(2) 0.4179(3) 0.59341(19)
H19_6 H 0.5605 0.4587 0.6187
C30_6 C 0.48838(15) 0.45110(21) 0.55636(10)
C31_6 C 0.4455(2) 0.3928(3) 0.51931(16)
H20_6 H 0.4258 0.4127 0.4902
C32_6 C 0.4271(3) 0.3026(4) 0.52020(15)
H21_6 H 0.4014 0.2660 0.4902
N6_6 N 0.42469(6) 0.12774(6) 0.60864(4)
H22_6 H 0.4548 0.1672 0.6334
O7_6 O 0.37875(6) 0.11517(6) 0.52510(4)
loop_
_geom_bond_atom_site_label_1
_geom_bond_atom_site_label_2
_geom_bond_site_symmetry_1
_geom_bond_site_symmetry_2
C1 C2 1_555 1_555
C2 C3 1_555 1_555
C3 H1 1_555 1_555
C4 C2 1_555 1_555
H2 C4 1_555 1_555
C5 C4 1_555 1_555
C9 C8 1_555 1_555
H5 C9 1_555 1_555
C10 C9 1_555 1_555
H6 C10 1_555 1_555
C11 C12 1_555 1_555
C12 C13 1_555 1_555
C13 H7 1_555 1_555
C14 C13 1_555 1_555
H8 C14 1_555 1_555
C15 C14 1_555 1_555
C16 C15 1_555 1_555
H9 C16 1_555 1_555
C17 C12 1_555 1_555
H10 C17 1_555 1_555
N2 C8 1_555 1_555
H11 N2 1_555 1_555
N3 C5 1_555 1_555
H12 N3 1_555 1_555
O1 C1 1_555 1_555
O2 C1 1_555 1_555
O3 C11 1_555 1_555
Zn1 N1 1_555 1_555
C18 C19 1_555 1_555
C19 C3 1_555 1_555
C20 C5 1_555 1_555
H13 C20 1_555 1_555
H23 N3 1_555 1_555
O4 C18 1_555 1_555
O6 C18 1_555 1_555
Zn2 O4 1_555 1_555
C10 N1 1_555 1_555
C11 N2 1_555 1_555
C16 C17 1_555 1_555
O1 Zn1 1_555 1_555
C19 C20 1_555 1_555
C6 H3 1_555 1_555
C7 C6 1_555 1_555
H4 C7 1_555 1_555
N5 Zn1_2 1_555 1_555
O5 Zn1_2 1_555 1_555
C1_2 C2_2 1_555 1_555
C2_2 C3_2 1_555 1_555
C3_2 H1_2 1_555 1_555
C4_2 C2_2 1_555 1_555
H2_2 C4_2 1_555 1_555
C5_2 C4_2 1_555 1_555
C6_2 H3_2 1_555 1_555
H5_2 C9_2 1_555 1_555
C10_2 C9_2 1_555 1_555
H6_2 C10_2 1_555 1_555
N1_2 C6_2 1_555 1_555
N3_2 C5_2 1_555 1_555
H12_2 N3_2 1_555 1_555
O1_2 C1_2 1_555 1_555
O2_2 C1_2 1_555 1_555
Zn2 N1_2 1_555 1_555
C18_2 C19_2 1_555 1_555
C19_2 C3_2 1_555 1_555
C20_2 C5_2 1_555 1_555
H13_2 C20_2 1_555 1_555
N5_2 Zn2 1_555 1_555
H23_2 N3_2 1_555 1_555
O4_2 C18_2 1_555 1_555
O6_2 C18_2 1_555 1_555
Zn2_2 O4_2 1_555 1_555
C10_2 N1_2 1_555 1_555
O1_2 Zn2 1_555 1_555
C19_2 C20_2 1_555 1_555
C1_3 C2_3 1_555 1_555
C2_3 C3_3 1_555 1_555
C3_3 H1_3 1_555 1_555
C4_3 C2_3 1_555 1_555
H2_3 C4_3 1_555 1_555
C5_3 C4_3 1_555 1_555
C6_3 H3_3 1_555 1_555
H5_3 C9_3 1_555 1_555
C10_3 C9_3 1_555 1_555
H6_3 C10_3 1_555 1_555
N1_3 C6_3 1_555 1_555
N3_3 C5_3 1_555 1_555
H12_3 N3_3 1_555 1_555
O1_3 C1_3 1_555 1_555
O2_3 C1_3 1_555 1_555
Zn2_2 N1_3 1_555 1_555
C18_3 C19_3 1_555 1_555
C19_3 C3_3 1_555 1_555
C20_3 C5_3 1_555 1_555
H13_3 C20_3 1_555 1_555
N5_3 Zn2_2 1_555 1_555
H23_3 N3_3 1_555 1_555
O5 C18_3 1_555 1_555
O6_3 C18_3 1_555 1_555
C10_3 N1_3 1_555 1_555
O1_3 Zn2_2 1_555 1_555
C19_3 C20_3 1_555 1_555
C21 H14 1_555 1_555
C22 C21 1_555 1_555
H15 C22 1_555 1_555
C23 C22 1_555 1_555
C24 C23 1_555 1_555
H16 C24 1_555 1_555
C25 C24 1_555 1_555
H17 C25 1_555 1_555
C26 C27 1_555 1_555
C27 C28 1_555 1_555
C28 H18 1_555 1_555
C29 C28 1_555 1_555
H19 C29 1_555 1_555
C31 C30 1_555 1_555
H20 C31 1_555 1_555
C32 C27 1_555 1_555
H21 C32 1_555 1_555
N5_2 C21 1_555 1_555
N6 C23 1_555 1_555
H22 N6 1_555 1_555
O7 C26 1_555 1_555
C25 N5_2 1_555 1_555
C26 N6 1_555 1_555
C29 C30 1_555 1_555
C31 C32 1_555 1_555
C21_2 H14_2 1_555 1_555
H16_2 C24_2 1_555 1_555
C25_2 C24_2 1_555 1_555
H17_2 C25_2 1_555 1_555
C25_2 N5 1_555 1_555
C21_3 H14_3 1_555 1_555
H16_3 C24_3 1_555 1_555
C25_3 C24_3 1_555 1_555
H17_3 C25_3 1_555 1_555
N5_3 C21_3 1_555 1_555
C25_3 N5_3 1_555 1_555
C24_4 C23_2 1_555 1_555
H16_4 C24_4 1_555 1_555
C25_4 C24_4 1_555 1_555
H17_4 C25_4 1_555 1_555
C26_2 C27_2 1_555 1_555
C27_2 C28_2 1_555 1_555
C28_2 H18_2 1_555 1_555
C29_2 C28_2 1_555 1_555
H19_2 C29_2 1_555 1_555
C31_2 C30_2 1_555 1_555
H20_2 C31_2 1_555 1_555
C32_2 C27_2 1_555 1_555
H21_2 C32_2 1_555 1_555
N6_2 C23_2 1_555 1_555
H22_2 N6_2 1_555 1_555
O7_2 C26_2 1_555 1_555
Zn3 N4 1_555 1_555
C25_4 N4 1_555 1_555
C26_2 N6_2 1_555 1_555
C29_2 C30_2 1_555 1_555
C31_2 C32_2 1_555 1_555
C21_4 H14_4 1_555 1_555
C22_2 C21_4 1_555 1_555
H15_2 C22_2 1_555 1_555
C21_5 H14_5 1_555 1_555
H16_5 C24_5 1_555 1_555
C25_5 C24_5 1_555 1_555
H17_5 C25_5 1_555 1_555
N4_2 C21_5 1_555 1_555
Zn3_3 N4_2 1_555 1_555
C25_5 N4_2 1_555 1_555
C21_6 H14_6 1_555 1_555
H16_6 C24_6 1_555 1_555
C25_6 C24_6 1_555 1_555
H17_6 C25_6 1_555 1_555
N4_3 C21_6 1_555 1_555
Zn3_4 N4_3 1_555 1_555
C25_6 N4_3 1_555 1_555
C1_4 C2_4 1_555 1_555
C2_4 C3_4 1_555 1_555
C3_4 H1_4 1_555 1_555
C4_4 C2_4 1_555 1_555
H2_4 C4_4 1_555 1_555
C5_4 C4_4 1_555 1_555
N3_4 C5_4 1_555 1_555
H12_4 N3_4 1_555 1_555
O1_4 C1_4 1_555 1_555
O2_4 C1_4 1_555 1_555
C18_4 C19_4 1_555 1_555
C19_4 C3_4 1_555 1_555
C20_4 C5_4 1_555 1_555
H13_4 C20_4 1_555 1_555
H23_4 N3_4 1_555 1_555
O4_3 C18_4 1_555 1_555
O6_4 C18_4 1_555 1_555
Zn3_3 O4_3 1_555 1_555
O1_4 Zn3 1_555 1_555
C19_4 C20_4 1_555 1_555
N5_4 Zn3_2 1_555 1_555
O5_2 Zn3_2 1_555 1_555
C1_5 C2_5 1_555 1_555
C2_5 C3_5 1_555 1_555
C3_5 H1_5 1_555 1_555
C4_5 C2_5 1_555 1_555
H2_5 C4_5 1_555 1_555
C5_5 C4_5 1_555 1_555
N3_5 C5_5 1_555 1_555
H12_5 N3_5 1_555 1_555
O1_5 C1_5 1_555 1_555
O2_5 C1_5 1_555 1_555
C18_5 C19_5 1_555 1_555
C19_5 C3_5 1_555 1_555
C20_5 C5_5 1_555 1_555
H13_5 C20_5 1_555 1_555
N5_5 Zn3_3 1_555 1_555
H23_5 N3_5 1_555 1_555
O4_4 C18_5 1_555 1_555
O6_5 C18_5 1_555 1_555
Zn3_4 O4_4 1_555 1_555
O1_5 Zn3_3 1_555 1_555
C19_5 C20_5 1_555 1_555
C1_6 C2_6 1_555 1_555
C2_6 C3_6 1_555 1_555
C3_6 H1_6 1_555 1_555
C4_6 C2_6 1_555 1_555
H2_6 C4_6 1_555 1_555
C5_6 C4_6 1_555 1_555
N3_6 C5_6 1_555 1_555
H12_6 N3_6 1_555 1_555
O1_6 C1_6 1_555 1_555
O2_6 C1_6 1_555 1_555
C18_6 C19_6 1_555 1_555
C19_6 C3_6 1_555 1_555
C20_6 C5_6 1_555 1_555
H13_6 C20_6 1_555 1_555
N5_6 Zn3_4 1_555 1_555
H23_6 N3_6 1_555 1_555
O5_2 C18_6 1_555 1_555
O6_6 C18_6 1_555 1_555
O1_6 Zn3_4 1_555 1_555
C19_6 C20_6 1_555 1_555
C6_4 H3_4 1_555 1_555
C7_2 C6_4 1_555 1_555
H4_2 C7_2 1_555 1_555
C8_2 C7_2 1_555 1_555
C9_4 C8_2 1_555 1_555
H5_4 C9_4 1_555 1_555
C10_4 C9_4 1_555 1_555
H6_4 C10_4 1_555 1_555
C11_2 C12_2 1_555 1_555
C12_2 C13_2 1_555 1_555
C13_2 H7_2 1_555 1_555
C14_2 C13_2 1_555 1_555
H8_2 C14_2 1_555 1_555
C15_2 C14_2 1_555 1_555
C16_2 C15_2 1_555 1_555
H9_2 C16_2 1_555 1_555
C17_2 C12_2 1_555 1_555
H10_2 C17_2 1_555 1_555
N5_5 C6_4 1_555 1_555
N2_2 C8_2 1_555 1_555
H11_2 N2_2 1_555 1_555
O3_2 C11_2 1_555 1_555
C10_4 N5_5 1_555 1_555
C11_2 N2_2 1_555 1_555
C16_2 C17_2 1_555 1_555
C6_5 H3_5 1_555 1_555
H5_5 C9_5 1_555 1_555
C10_5 C9_5 1_555 1_555
H6_5 C10_5 1_555 1_555
C10_5 N5_4 1_555 1_555
C6_6 H3_6 1_555 1_555
H5_6 C9_6 1_555 1_555
C10_6 C9_6 1_555 1_555
H6_6 C10_6 1_555 1_555
N5_6 C6_6 1_555 1_555
C10_6 N5_6 1_555 1_555
H15_3 C22_3 1_555 1_555
C23_3 C22_3 1_555 1_555
C26_3 C27_3 1_555 1_555
C27_3 C28_3 1_555 1_555
C28_3 H18_3 1_555 1_555
C29_3 C28_3 1_555 1_555
H19_3 C29_3 1_555 1_555
C31_3 C30_3 1_555 1_555
H20_3 C31_3 1_555 1_555
C32_3 C27_3 1_555 1_555
H21_3 C32_3 1_555 1_555
N6_3 C23_3 1_555 1_555
H22_3 N6_3 1_555 1_555
O7_3 C26_3 1_555 1_555
C26_3 N6_3 1_555 1_555
C29_3 C30_3 1_555 1_555
C31_3 C32_3 1_555 1_555
H4_3 C7_3 1_555 1_555
C8_3 C7_3 1_555 1_555
C11_3 C12_3 1_555 1_555
C12_3 C13_3 1_555 1_555
C13_3 H7_3 1_555 1_555
C14_3 C13_3 1_555 1_555
H8_3 C14_3 1_555 1_555
C15_3 C14_3 1_555 1_555
C16_3 C15_3 1_555 1_555
H9_3 C16_3 1_555 1_555
C17_3 C12_3 1_555 1_555
H10_3 C17_3 1_555 1_555
N2_3 C8_3 1_555 1_555
H11_3 N2_3 1_555 1_555
O3_3 C11_3 1_555 1_555
C11_3 N2_3 1_555 1_555
C16_3 C17_3 1_555 1_555
H4_4 C7_4 1_555 1_555
C8_4 C7_4 1_555 1_555
C11_4 C12_4 1_555 1_555
C12_4 C13_4 1_555 1_555
C13_4 H7_4 1_555 1_555
C14_4 C13_4 1_555 1_555
H8_4 C14_4 1_555 1_555
C15_4 C14_4 1_555 1_555
C16_4 C15_4 1_555 1_555
H9_4 C16_4 1_555 1_555
C17_4 C12_4 1_555 1_555
H10_4 C17_4 1_555 1_555
N2_4 C8_4 1_555 1_555
H11_4 N2_4 1_555 1_555
O3_4 C11_4 1_555 1_555
H15_4 C22_4 1_555 1_555
C23_4 C22_4 1_555 1_555
C26_4 C27_4 1_555 1_555
C27_4 C28_4 1_555 1_555
C28_4 H18_4 1_555 1_555
C29_4 C28_4 1_555 1_555
H19_4 C29_4 1_555 1_555
C30_4 C15_4 1_555 1_555
C31_4 C30_4 1_555 1_555
H20_4 C31_4 1_555 1_555
C32_4 C27_4 1_555 1_555
H21_4 C32_4 1_555 1_555
N6_4 C23_4 1_555 1_555
H22_4 N6_4 1_555 1_555
O7_4 C26_4 1_555 1_555
C11_4 N2_4 1_555 1_555
C16_4 C17_4 1_555 1_555
C26_4 N6_4 1_555 1_555
C29_4 C30_4 1_555 1_555
C31_4 C32_4 1_555 1_555
H15_5 C22_5 1_555 1_555
C26_5 C27_5 1_555 1_555
C27_5 C28_5 1_555 1_555
C28_5 H18_5 1_555 1_555
C29_5 C28_5 1_555 1_555
H19_5 C29_5 1_555 1_555
C31_5 C30_5 1_555 1_555
H20_5 C31_5 1_555 1_555
C32_5 C27_5 1_555 1_555
H21_5 C32_5 1_555 1_555
N6_5 C23_5 1_555 1_555
H22_5 N6_5 1_555 1_555
O7_5 C26_5 1_555 1_555
C26_5 N6_5 1_555 1_555
C29_5 C30_5 1_555 1_555
C31_5 C32_5 1_555 1_555
H4_5 C7_5 1_555 1_555
C11_5 C12_5 1_555 1_555
C12_5 C13_5 1_555 1_555
C13_5 H7_5 1_555 1_555
C14_5 C13_5 1_555 1_555
H8_5 C14_5 1_555 1_555
C15_5 C14_5 1_555 1_555
C16_5 C15_5 1_555 1_555
H9_5 C16_5 1_555 1_555
C17_5 C12_5 1_555 1_555
H10_5 C17_5 1_555 1_555
N2_5 C8_5 1_555 1_555
H11_5 N2_5 1_555 1_555
O3_5 C11_5 1_555 1_555
C11_5 N2_5 1_555 1_555
C16_5 C17_5 1_555 1_555
H4_6 C7_6 1_555 1_555
C8_6 C7_6 1_555 1_555
C11_6 C12_6 1_555 1_555
C12_6 C13_6 1_555 1_555
C13_6 H7_6 1_555 1_555
C14_6 C13_6 1_555 1_555
H8_6 C14_6 1_555 1_555
C15_6 C14_6 1_555 1_555
C16_6 C15_6 1_555 1_555
H9_6 C16_6 1_555 1_555
C17_6 C12_6 1_555 1_555
H10_6 C17_6 1_555 1_555
N2_6 C8_6 1_555 1_555
H11_6 N2_6 1_555 1_555
O3_6 C11_6 1_555 1_555
H15_6 C22_6 1_555 1_555
C23_6 C22_6 1_555 1_555
C26_6 C27_6 1_555 1_555
C27_6 C28_6 1_555 1_555
C28_6 H18_6 1_555 1_555
C29_6 C28_6 1_555 1_555
H19_6 C29_6 1_555 1_555
C30_6 C15_6 1_555 1_555
C31_6 C30_6 1_555 1_555
H20_6 C31_6 1_555 1_555
C32_6 C27_6 1_555 1_555
H21_6 C32_6 1_555 1_555
N6_6 C23_6 1_555 1_555
H22_6 N6_6 1_555 1_555
O7_6 C26_6 1_555 1_555
C11_6 N2_6 1_555 1_555
C16_6 C17_6 1_555 1_555
C26_6 N6_6 1_555 1_555
C29_6 C30_6 1_555 1_555
C31_6 C32_6 1_555 1_555

#END
