
###############################################################################
#
# This file contains modified crystal structure data generated from the
# MOF subset of the Cambridge Structural Database (CSD) v543 
# hosted by the Cambridge Crystallographic Data Centre (CCDC).
#
# This work is licensed under the Creative Commons
# Attribution-NonCommercial-ShareAlike 4.0 International License.
# To view a copy of this license, visit
# http://creativecommons.org/licenses/by-nc-sa/4.0/
# or send a letter to
# Creative Commons, PO Box 1866, Mountain View, CA 94042, USA.
#
# CIF created using the CSD Python API on 29 September 2022
# The structure has been converted into the P1 space group
# The structure has a 3D framework
# The original CSD entry RAYLUA is in the hexagonal crystal system
# The original CSD entry RAYLUA is in a Sohncke space group
# The framework has been calculated to contain at least 10.0% void space
# The void calculation uses a probe of radius 1.32A, grid spacing 0.4
# H atom positions have been added when not included in the experimental data
#
###############################################################################

data_RAYLUA
_chemical_formula_moiety         '(C204 H140 N24 O48 Zn6)n'
_symmetry_cell_setting           triclinic
_symmetry_space_group_name_H-M   'P 1'
_symmetry_Int_Tables_number      1
_space_group_name_Hall           'P 1'
loop_
_symmetry_equiv_pos_site_id
_symmetry_equiv_pos_as_xyz
1 x,y,z
_cell_length_a                   16.5097(2)
_cell_length_b                   16.5097(2)
_cell_length_c                   25.4661(5)
_cell_angle_alpha                90
_cell_angle_beta                 90
_cell_angle_gamma                120
_cell_volume                     6011.34
loop_
_atom_site_label
_atom_site_type_symbol
_atom_site_fract_x
_atom_site_fract_y
_atom_site_fract_z
C1 C 0.7399(5) 0.4162(5) 0.0967(2)
C2 C 0.7096(3) 0.4192(6) 0.0000
H1 H 0.6771 0.3541 0.0000
C6 C 0.7466(5) 0.4665(4) 0.0464(3)
C8 C 0.6374(6) 0.0827(5) 0.1838(2)
H3 H 0.6395 0.0985 0.2190
C11 C 0.6548(6) 0.1226(5) 0.0985(2)
H5 H 0.6678 0.1672 0.0726
C12 C 0.6293(7) 0.0345(5) 0.0829(3)
H6 H 0.6296 0.0211 0.0475
C15 C 0.7904(10) 0.5625(5) 0.0470(4)
H9 H 0.8097 0.5947 0.0787
C17 C 0.8058(4) 0.6116(8) 0.0000
C18 C 0.8597(6) 0.7194(11) 0.0000
N1 N 0.6622(3) 0.1489(3) 0.14774(18)
O1 O 0.7068(3) 0.3297(3) 0.09516(16)
O2 O 0.7662(4) 0.4627(4) 0.13858(19)
O4 O 0.9087(16) 0.7605(7) 0.0366(4)
Zn1 Zn 0.71280(3) 0.28720(3) 0.1667
N4 N 0.8511(3) 0.3378(3) 0.18559(18)
O6 O 0.6703(3) 0.2932(3) 0.23817(16)
C2_2 C 0.7096(3) 0.4192(6) 1.0000
H1_2 H 0.6771 0.3541 1.0000
C17_2 C 0.8058(4) 0.6116(8) 1.0000
C18_2 C 0.8597(6) 0.7194(11) 1.0000
C19 C 0.6763(7) 0.4162(5) 0.9033(2)
C23 C 0.7199(6) 0.4665(4) 0.9536(3)
C32 C 0.7721(11) 0.5625(5) 0.9530(4)
H19 H 0.7850 0.5947 0.9213
O5 O 0.6229(4) 0.3297(3) 0.90484(16)
O7 O 0.6965(6) 0.4627(4) 0.86142(19)
O9 O 0.8518(17) 0.7605(7) 0.9634(4)
Zn2 Zn 0.57440(4) 0.28720(3) 0.8334
H22 H 0.785237 0.743329 0.95956
C20 C 0.0399(6) 0.4907(5) 0.7219(2)
C21 C 0.3617(6) 0.3971(5) 0.7871(2)
C22 C 0.1841(7) 0.4513(6) 0.7275(3)
C24 C 0.3823(8) 0.3918(6) 0.8373(2)
H12 H 0.3541 0.4079 0.8637
C25 C 0.4453(8) 0.3626(6) 0.8505(2)
H13 H 0.4590 0.3605 0.8857
C26 C 0.2597(9) 0.4262(8) 0.7280(3)
C27 C 0.1667(10) 0.4937(8) 0.7672(4)
H14 H 0.1997 0.5071 0.7986
C28 C 0.4678(8) 0.3452(6) 0.7652(2)
H15 H 0.4994 0.3322 0.7393
C29 C 0.4052(9) 0.3707(7) 0.7496(3)
H16 H 0.3915 0.3704 0.7142
C30 C 0.0982(11) 0.5163(9) 0.7597(4)
H17 H 0.0938 0.5546 0.7850
C31 C 0.1371(15) 0.4394(13) 0.6823(4)
H18 H 0.1514 0.4162 0.6526
C33 C 0.0664(16) 0.4627(14) 0.6810(4)
H20 H 0.0368 0.4580 0.6491
N3 N 0.4867(4) 0.3378(3) 0.81441(18)
N5 N 0.2989(6) 0.4273(5) 0.77487(19)
H21 H 0.2828 0.4498 0.8007
O8 O 0.2828(11) 0.4009(10) 0.6888(2)
C1_2 C 0.5838(5) 0.3237(7) 0.4300(2)
C2_3 C 0.5808(6) 0.2904(7) 0.3333
H1_3 H 0.6459 0.3230 0.3333
C6_2 C 0.5335(4) 0.2801(6) 0.3797(3)
C8_2 C 0.9173(5) 0.5547(8) 0.5171(2)
H3_2 H 0.9015 0.5410 0.5523
C11_2 C 0.8774(5) 0.5322(8) 0.4318(2)
H5_2 H 0.8328 0.5006 0.4059
C12_2 C 0.9655(5) 0.5948(9) 0.4162(3)
H6_2 H 0.9789 0.6085 0.3808
C15_2 C 0.4375(5) 0.2279(11) 0.3803(4)
H9_2 H 0.4053 0.2150 0.4120
C17_3 C 0.3884(8) 0.1942(9) 0.3333
C18_3 C 0.2806(11) 0.1403(13) 0.3333
N1_2 N 0.8511(3) 0.5133(4) 0.48107(18)
O1_2 O 0.6703(3) 0.3771(4) 0.42849(16)
O2_2 O 0.5373(4) 0.3035(6) 0.47191(19)
O4_2 O 0.2395(7) 0.1482(17) 0.3699(4)
Zn1_2 Zn 0.71280(3) 0.42560(4) 0.5000
C19_2 C 0.5838(5) 0.2601(9) 0.2366(2)
C23_2 C 0.5335(4) 0.2534(7) 0.2869(3)
C32_2 C 0.4375(5) 0.2096(12) 0.2863(4)
H19_2 H 0.4053 0.1903 0.2546
N4_2 N 0.6622(3) 0.5133(4) 0.51893(18)
O6_2 O 0.7068(3) 0.3771(4) 0.57151(16)
O7_2 O 0.5373(4) 0.2338(7) 0.19475(19)
O9_2 O 0.2395(7) 0.0913(18) 0.2967(4)
H22_2 H 0.256671 0.0419079 0.292894
C1_3 C 0.6763(7) 0.2601(5) 0.7634(2)
C2_4 C 0.7096(7) 0.2904(3) 0.6667
H1_4 H 0.6770 0.3229 0.6667
C6_3 C 0.7199(6) 0.2534(5) 0.7131(3)
C15_3 C 0.7721(11) 0.2096(10) 0.7137(4)
H9_3 H 0.7850 0.1903 0.7454
C17_4 C 0.8058(9) 0.1942(4) 0.6667
C18_4 C 0.8597(13) 0.1403(6) 0.6667
O1_3 O 0.6229(4) 0.2932(3) 0.76183(16)
O2_3 O 0.6965(6) 0.2338(4) 0.80525(19)
O4_3 O 0.8518(17) 0.0913(16) 0.7033(4)
C19_3 C 0.7399(9) 0.3237(7) 0.5700(2)
C23_3 C 0.7466(7) 0.2801(6) 0.6203(3)
C32_3 C 0.7904(12) 0.2279(11) 0.6197(4)
H19_3 H 0.8097 0.2150 0.5880
N4_3 N 0.4867(4) 0.1489(3) 0.85226(18)
O7_3 O 0.7662(7) 0.3035(6) 0.52809(19)
O9_3 O 0.9087(18) 0.1482(17) 0.6301(4)
H22_3 H 0.958092 0.214763 0.626227
C8_3 C 0.9173(5) 0.3626(6) 0.1495(2)
H3_3 H 0.9015 0.3605 0.1143
C11_3 C 0.8774(5) 0.3452(6) 0.2348(2)
H5_3 H 0.8328 0.3322 0.2607
C12_3 C 0.9655(5) 0.3707(7) 0.2504(3)
H6_3 H 0.9789 0.3704 0.2858
H22_4 H 0.256671 0.214763 0.373773
C25_2 C 0.4453(8) 0.0827(5) 0.8162(2)
H13_2 H 0.4590 0.0985 0.7810
C28_2 C 0.4678(8) 0.1226(5) 0.9015(2)
H15_2 H 0.4994 0.1672 0.9274
C29_2 C 0.4052(9) 0.0345(5) 0.9171(3)
H16_2 H 0.3915 0.0211 0.9525
C3 C 0.5093(5) 0.9601(6) 0.6115(2)
C4 C 0.6029(5) 0.6383(6) 0.5463(2)
C5 C 0.5487(6) 0.8159(7) 0.6059(3)
C7 C 0.6082(6) 0.6177(8) 0.4961(2)
H2 H 0.5921 0.6459 0.4697
C8_4 C 0.6374(6) 0.5547(8) 0.4829(2)
H3_4 H 0.6395 0.5410 0.4477
C9 C 0.5738(8) 0.7403(9) 0.6054(3)
C10 C 0.5063(8) 0.8333(10) 0.5662(4)
H4 H 0.4929 0.8003 0.5348
C11_4 C 0.6548(6) 0.5322(8) 0.5682(2)
H5_4 H 0.6678 0.5006 0.5941
C12_4 C 0.6293(7) 0.5948(9) 0.5838(3)
H6_4 H 0.6296 0.6085 0.6192
C13 C 0.4837(9) 0.9018(11) 0.5737(4)
H7 H 0.4454 0.9062 0.5484
C14 C 0.5606(13) 0.8629(15) 0.6511(4)
H8 H 0.5838 0.8486 0.6808
C16 C 0.5373(14) 0.9336(16) 0.6524(4)
H10 H 0.5420 0.9632 0.6843
N2 N 0.5727(5) 0.7011(6) 0.55847(19)
H11 H 0.5502 0.7172 0.5327
O3 O 0.5991(10) 0.7172(11) 0.6446(2)
H22_5 H 0.785237 0.0419079 0.707106
H22_6 H 0.958092 0.743329 0.0404398
C3_2 C 0.5093(5) 0.5492(4) 0.0552(2)
C4_2 C 0.6029(5) 0.9646(4) 0.1204(2)
C5_2 C 0.5487(6) 0.7328(4) 0.0608(3)
C7_2 C 0.6082(6) 0.9905(5) 0.1706(2)
H2_2 H 0.5921 0.9462 0.1970
C9_2 C 0.5738(8) 0.8335(5) 0.0613(3)
C10_2 C 0.5063(8) 0.6730(6) 0.1005(4)
H4_2 H 0.4929 0.6926 0.1319
C13_2 C 0.4837(9) 0.5819(6) 0.0930(4)
H7_2 H 0.4454 0.5392 0.1183
C14_2 C 0.5606(13) 0.6977(8) 0.0156(4)
C16_2 C 0.5373(14) 0.6037(7) 0.0143(4)
N2_2 N 0.5727(5) 0.8716(3) 0.10820(19)
H11_2 H 0.5502 0.8330 0.1340
O3_2 O 0.5991(10) 0.8819(5) 0.0221(2)
C20_2 C 0.4907(5) 0.4508(4) 0.0552(2)
C21_2 C 0.3971(5) 0.0354(4) 0.1204(2)
C22_2 C 0.4513(6) 0.2672(4) 0.0608(3)
C24_2 C 0.3918(6) 0.0095(5) 0.1706(2)
H12_2 H 0.4079 0.0538 0.1970
C26_2 C 0.4262(8) 0.1665(5) 0.0613(3)
C27_2 C 0.4937(8) 0.3270(6) 0.1005(4)
H14_2 H 0.5071 0.3074 0.1319
C30_2 C 0.5163(9) 0.4181(6) 0.0930(4)
H17_2 H 0.5546 0.4608 0.1183
C31_2 C 0.4394(13) 0.3023(8) 0.0156(4)
C33_2 C 0.4627(14) 0.3963(7) 0.0143(4)
N5_2 N 0.4273(5) 0.1284(3) 0.10820(19)
H21_2 H 0.4498 0.1670 0.1340
O8_2 O 0.4009(10) 0.1181(5) 0.0221(2)
H8_2 H 0.5838 0.7352 0.9859
H10_2 H 0.5420 0.5788 0.9824
H18_2 H 0.4162 0.2648 0.9859
H20_2 H 0.4580 0.4212 0.9824
C25_3 C 0.3626(6) 0.9173(5) 0.1838(2)
H13_3 H 0.3605 0.9015 0.2190
C28_3 C 0.3452(6) 0.8774(5) 0.0985(2)
H15_3 H 0.3322 0.8328 0.0726
C29_3 C 0.3707(7) 0.9655(5) 0.0829(3)
H16_3 H 0.3704 0.9789 0.0475
N3_2 N 0.3378(3) 0.8511(3) 0.14774(18)
Zn3 Zn 0.28720(3) 0.71280(3) 0.1666
C1_4 C 0.3237(7) 0.7399(5) 0.7634(2)
C2_5 C 0.2904(7) 0.7096(3) 0.6667
H1_5 H 0.3230 0.6771 0.6667
C3_3 C 0.9601(6) 0.5093(5) 0.7219(2)
C4_3 C 0.6383(6) 0.6029(5) 0.7871(2)
C5_3 C 0.8159(7) 0.5487(6) 0.7275(3)
C6_4 C 0.2801(6) 0.7466(5) 0.7131(3)
C7_3 C 0.6177(8) 0.6082(6) 0.8373(2)
H2_3 H 0.6459 0.5921 0.8637
C8_5 C 0.5547(8) 0.6374(6) 0.8505(2)
H3_5 H 0.5410 0.6395 0.8857
C9_3 C 0.7403(9) 0.5738(8) 0.7280(3)
C10_3 C 0.8333(10) 0.5063(8) 0.7672(4)
H4_3 H 0.8003 0.4929 0.7986
C11_5 C 0.5322(8) 0.6548(6) 0.7652(2)
H5_5 H 0.5006 0.6678 0.7393
C12_5 C 0.5948(9) 0.6293(7) 0.7496(3)
H6_5 H 0.6085 0.6296 0.7142
C13_3 C 0.9018(11) 0.4837(9) 0.7597(4)
H7_3 H 0.9062 0.4454 0.7850
C14_3 C 0.8629(15) 0.5606(13) 0.6823(4)
H8_3 H 0.8486 0.5838 0.6526
C15_4 C 0.2279(11) 0.7904(10) 0.7137(4)
H9_4 H 0.2150 0.8097 0.7454
C16_3 C 0.9336(16) 0.5373(14) 0.6810(4)
H10_3 H 0.9632 0.5420 0.6491
C17_5 C 0.1942(9) 0.8058(4) 0.6667
C18_5 C 0.1403(13) 0.8597(6) 0.6667
N1_3 N 0.5133(4) 0.6622(3) 0.81441(18)
N2_3 N 0.7011(6) 0.5727(5) 0.77487(19)
H11_3 H 0.7172 0.5502 0.8007
O1_4 O 0.3771(4) 0.7068(3) 0.76183(16)
O2_4 O 0.3035(6) 0.7662(4) 0.80525(19)
O3_3 O 0.7172(11) 0.5991(10) 0.6888(2)
O4_4 O 0.1482(17) 0.9087(16) 0.7033(4)
Zn1_3 Zn 0.42560(4) 0.71280(3) 0.8334
C19_4 C 0.2601(9) 0.6763(7) 0.5700(2)
C23_4 C 0.2534(7) 0.7199(6) 0.6203(3)
C32_4 C 0.2096(12) 0.7721(11) 0.6197(4)
H19_4 H 0.1903 0.7850 0.5880
N4_4 N 0.5133(4) 0.8511(3) 0.85226(18)
O5_2 O 0.2932(5) 0.6229(4) 0.57151(16)
O6_3 O 0.3771(4) 0.6703(3) 0.90484(16)
O7_4 O 0.2338(7) 0.6965(6) 0.52809(19)
O9_4 O 0.0913(18) 0.8518(17) 0.6301(4)
Zn2_2 Zn 0.28720(5) 0.57440(4) 0.5000
H22_7 H 0.0419079 0.785237 0.626227
C25_4 C 0.0827(5) 0.4453(8) 0.5171(2)
H13_4 H 0.0985 0.4590 0.5523
C28_4 C 0.1226(5) 0.4678(8) 0.4318(2)
H15_4 H 0.1672 0.4994 0.4059
C29_4 C 0.0345(5) 0.4052(9) 0.4162(3)
H16_4 H 0.0211 0.3915 0.3808
N3_3 N 0.1489(3) 0.4867(4) 0.48107(18)
C1_5 C 0.2601(5) 0.5838(5) 0.0967(2)
C2_6 C 0.2904(3) 0.5808(6) 0.0000
H1_6 H 0.3229 0.6459 0.0000
C6_5 C 0.2534(5) 0.5335(4) 0.0464(3)
C15_5 C 0.2096(10) 0.4375(5) 0.0470(4)
H9_5 H 0.1903 0.4053 0.0787
C17_6 C 0.1942(4) 0.3884(8) 0.0000
C18_6 C 0.1403(6) 0.2806(11) 0.0000
O1_5 O 0.2932(3) 0.6703(3) 0.09516(16)
O2_5 O 0.2338(4) 0.5373(4) 0.13858(19)
O4_5 O 0.0913(16) 0.2395(7) 0.0366(4)
N4_5 N 0.1489(3) 0.6622(3) 0.18559(18)
O6_4 O 0.3297(3) 0.7068(3) 0.23817(16)
C2_7 C 0.2904(3) 0.5808(6) 1.0000
H1_7 H 0.3229 0.6459 1.0000
C17_7 C 0.1942(4) 0.3884(8) 1.0000
C18_7 C 0.1403(6) 0.2806(11) 1.0000
C19_5 C 0.3237(7) 0.5838(5) 0.9033(2)
C23_5 C 0.2801(6) 0.5335(4) 0.9536(3)
C32_5 C 0.2279(11) 0.4375(5) 0.9530(4)
H19_5 H 0.2150 0.4053 0.9213
O7_5 O 0.3035(6) 0.5373(4) 0.86142(19)
O9_5 O 0.1482(17) 0.2395(7) 0.9634(4)
H22_8 H 0.214763 0.256671 0.95956
C1_6 C 0.4162(5) 0.6763(7) 0.4300(2)
C2_8 C 0.4192(6) 0.7096(7) 0.3333
H1_8 H 0.3541 0.6770 0.3333
C6_6 C 0.4665(4) 0.7199(6) 0.3797(3)
C15_6 C 0.5625(5) 0.7721(11) 0.3803(4)
H9_6 H 0.5947 0.7850 0.4120
C17_8 C 0.6116(8) 0.8058(9) 0.3333
C18_8 C 0.7194(11) 0.8597(13) 0.3333
O1_6 O 0.3297(3) 0.6229(4) 0.42849(16)
O2_6 O 0.4627(4) 0.6965(6) 0.47191(19)
O4_6 O 0.7605(7) 0.8518(17) 0.3699(4)
C19_6 C 0.4162(5) 0.7399(9) 0.2366(2)
C23_6 C 0.4665(4) 0.7466(7) 0.2869(3)
C32_6 C 0.5625(5) 0.7904(12) 0.2863(4)
H19_6 H 0.5947 0.8097 0.2546
N4_6 N 0.3378(3) 0.4867(4) 0.51893(18)
O7_6 O 0.4627(4) 0.7662(7) 0.19475(19)
O9_6 O 0.7605(7) 0.9087(18) 0.2967(4)
H22_9 H 0.743329 0.958092 0.292894
C25_5 C 0.0827(5) 0.6374(6) 0.1495(2)
H13_5 H 0.0985 0.6395 0.1143
C28_5 C 0.1226(5) 0.6548(6) 0.2348(2)
H15_5 H 0.1672 0.6678 0.2607
C29_5 C 0.0345(5) 0.6293(7) 0.2504(3)
H16_5 H 0.0211 0.6296 0.2858
H22_10 H 0.0419079 0.256671 0.0404398
C8_6 C 0.5547(8) 0.9173(5) 0.8162(2)
H3_6 H 0.5410 0.9015 0.7810
C11_6 C 0.5322(8) 0.8774(5) 0.9015(2)
H5_6 H 0.5006 0.8328 0.9274
C12_6 C 0.5948(9) 0.9655(5) 0.9171(3)
H6_6 H 0.6085 0.9789 0.9525
C20_3 C 0.4907(5) 0.0399(6) 0.6115(2)
C21_3 C 0.3971(5) 0.3617(6) 0.5463(2)
C22_3 C 0.4513(6) 0.1841(7) 0.6059(3)
C24_3 C 0.3918(6) 0.3823(8) 0.4961(2)
H12_3 H 0.4079 0.3541 0.4697
C25_6 C 0.3626(6) 0.4453(8) 0.4829(2)
H13_6 H 0.3605 0.4590 0.4477
C26_3 C 0.4262(8) 0.2597(9) 0.6054(3)
C27_3 C 0.4937(8) 0.1667(10) 0.5662(4)
H14_3 H 0.5071 0.1997 0.5348
C28_6 C 0.3452(6) 0.4678(8) 0.5682(2)
H15_6 H 0.3322 0.4994 0.5941
C29_6 C 0.3707(7) 0.4052(9) 0.5838(3)
H16_6 H 0.3704 0.3915 0.6192
C30_3 C 0.5163(9) 0.0982(11) 0.5737(4)
H17_3 H 0.5546 0.0938 0.5484
C31_3 C 0.4394(13) 0.1371(15) 0.6511(4)
H18_3 H 0.4162 0.1514 0.6808
C33_3 C 0.4627(14) 0.0664(16) 0.6524(4)
H20_3 H 0.4580 0.0368 0.6843
N5_3 N 0.4273(5) 0.2989(6) 0.55847(19)
H21_3 H 0.4498 0.2828 0.5327
O8_3 O 0.4009(10) 0.2828(11) 0.6446(2)
H22_11 H 0.743329 0.785237 0.373773
H22_12 H 0.214763 0.958092 0.707106
C20_4 C 0.5492(4) 0.0399(6) 0.3885(2)
C21_4 C 0.9646(4) 0.3617(6) 0.4537(2)
C22_4 C 0.7328(4) 0.1841(7) 0.3941(3)
C24_4 C 0.9905(5) 0.3823(8) 0.5039(2)
H12_4 H 0.9462 0.3541 0.5303
C26_4 C 0.8335(5) 0.2597(9) 0.3946(3)
C27_4 C 0.6730(6) 0.1667(10) 0.4338(4)
H14_4 H 0.6926 0.1997 0.4652
C30_4 C 0.5819(6) 0.0982(11) 0.4263(4)
H17_4 H 0.5392 0.0938 0.4516
C31_4 C 0.6977(8) 0.1371(15) 0.3489(4)
H18_4 H 0.7352 0.1514 0.3192
C33_4 C 0.6037(7) 0.0664(16) 0.3476(4)
H20_4 H 0.5788 0.0368 0.3157
N5_4 N 0.8716(3) 0.2989(6) 0.44153(19)
H21_4 H 0.8330 0.2828 0.4673
O8_4 O 0.8819(5) 0.2828(11) 0.3554(2)
C3_4 C 0.4508(4) 0.9601(6) 0.3885(2)
C4_4 C 0.0354(4) 0.6383(6) 0.4537(2)
C5_4 C 0.2672(4) 0.8159(7) 0.3941(3)
C7_4 C 0.0095(5) 0.6177(8) 0.5039(2)
H2_4 H 0.0538 0.6459 0.5303
C9_4 C 0.1665(5) 0.7403(9) 0.3946(3)
C10_4 C 0.3270(6) 0.8333(10) 0.4338(4)
H4_4 H 0.3074 0.8003 0.4652
C13_4 C 0.4181(6) 0.9018(11) 0.4263(4)
H7_4 H 0.4608 0.9062 0.4516
C14_4 C 0.3023(8) 0.8629(15) 0.3489(4)
H8_4 H 0.2648 0.8486 0.3192
C16_4 C 0.3963(7) 0.9336(16) 0.3476(4)
H10_4 H 0.4212 0.9632 0.3157
N2_4 N 0.1284(3) 0.7011(6) 0.44153(19)
H11_4 H 0.1670 0.7172 0.4673
O3_4 O 0.1181(5) 0.7172(11) 0.3554(2)
C3_5 C 0.4508(4) 0.4907(5) 0.2781(2)
C4_5 C 0.0354(4) 0.3971(5) 0.2129(2)
C5_5 C 0.2672(4) 0.4513(6) 0.2725(3)
C7_5 C 0.0095(5) 0.3918(6) 0.1627(2)
H2_5 H 0.0538 0.4079 0.1363
C9_5 C 0.1665(5) 0.4262(8) 0.2720(3)
C10_5 C 0.3270(6) 0.4937(8) 0.2328(4)
H4_5 H 0.3074 0.5071 0.2014
C13_5 C 0.4181(6) 0.5163(9) 0.2403(4)
H7_5 H 0.4608 0.5546 0.2150
C14_5 C 0.3023(8) 0.4394(13) 0.3177(4)
H8_5 H 0.2648 0.4162 0.3474
C16_5 C 0.3963(7) 0.4627(14) 0.3190(4)
H10_5 H 0.4212 0.4580 0.3509
N2_5 N 0.1284(3) 0.4273(5) 0.22513(19)
H11_5 H 0.1670 0.4498 0.1993
O3_5 O 0.1181(5) 0.4009(10) 0.3112(2)
C20_5 C 0.5492(4) 0.5093(5) 0.2781(2)
C21_5 C 0.9646(4) 0.6029(5) 0.2129(2)
C22_5 C 0.7328(4) 0.5487(6) 0.2725(3)
C24_5 C 0.9905(5) 0.6082(6) 0.1627(2)
H12_5 H 0.9462 0.5921 0.1363
C26_5 C 0.8335(5) 0.5738(8) 0.2720(3)
C27_5 C 0.6730(6) 0.5063(8) 0.2328(4)
H14_5 H 0.6926 0.4929 0.2014
C30_5 C 0.5819(6) 0.4837(9) 0.2403(4)
H17_5 H 0.5392 0.4454 0.2150
C31_5 C 0.6977(8) 0.5606(13) 0.3177(4)
H18_5 H 0.7352 0.5838 0.3474
C33_5 C 0.6037(7) 0.5373(14) 0.3190(4)
H20_5 H 0.5788 0.5420 0.3509
N5_5 N 0.8716(3) 0.5727(5) 0.22513(19)
H21_5 H 0.8330 0.5502 0.1993
O8_5 O 0.8819(5) 0.5991(10) 0.3112(2)
H18_6 H 0.1514 0.7352 0.0141
H20_6 H 0.0368 0.5788 0.0176
C20_6 C 0.0399(6) 0.5492(4) 0.9448(2)
C21_6 C 0.3617(6) 0.9646(4) 0.8796(2)
C22_6 C 0.1841(7) 0.7328(4) 0.9392(3)
C24_6 C 0.3823(8) 0.9905(5) 0.8294(2)
H12_6 H 0.3541 0.9462 0.8030
C26_6 C 0.2597(9) 0.8335(5) 0.9387(3)
C27_6 C 0.1667(10) 0.6730(6) 0.8995(4)
H14_6 H 0.1997 0.6926 0.8681
C30_6 C 0.0982(11) 0.5819(6) 0.9070(4)
H17_6 H 0.0938 0.5392 0.8817
C31_6 C 0.1371(15) 0.6977(8) 0.9844(4)
C33_6 C 0.0664(16) 0.6037(7) 0.9857(4)
N5_6 N 0.2989(6) 0.8716(3) 0.89180(19)
H21_6 H 0.2828 0.8330 0.8660
O8_6 O 0.2828(11) 0.8819(5) 0.9779(2)
H8_6 H 0.8486 0.2648 0.0141
H10_6 H 0.9632 0.4212 0.0176
C3_6 C 0.9601(6) 0.4508(4) 0.9448(2)
C4_6 C 0.6383(6) 0.0354(4) 0.8796(2)
C5_6 C 0.8159(7) 0.2672(4) 0.9392(3)
C7_6 C 0.6177(8) 0.0095(5) 0.8294(2)
H2_6 H 0.6459 0.0538 0.8030
C9_6 C 0.7403(9) 0.1665(5) 0.9387(3)
C10_6 C 0.8333(10) 0.3270(6) 0.8995(4)
H4_6 H 0.8003 0.3074 0.8681
C13_6 C 0.9018(11) 0.4181(6) 0.9070(4)
H7_6 H 0.9062 0.4608 0.8817
C14_6 C 0.8629(15) 0.3023(8) 0.9844(4)
C16_6 C 0.9336(16) 0.3963(7) 0.9857(4)
N2_6 N 0.7011(6) 0.1284(3) 0.89180(19)
H11_6 H 0.7172 0.1670 0.8660
O3_6 O 0.7172(11) 0.1181(5) 0.9779(2)
loop_
_geom_bond_atom_site_label_1
_geom_bond_atom_site_label_2
_geom_bond_site_symmetry_1
_geom_bond_site_symmetry_2
C1 C6 1_555 1_555
C2 H1 1_555 1_555
C6 C2 1_555 1_555
H3 C8 1_555 1_555
C11 H5 1_555 1_555
H6 C12 1_555 1_555
C15 C6 1_555 1_555
H9 C15 1_555 1_555
C17 C15 1_555 1_555
C18 C17 1_555 1_555
N1 C8 1_555 1_555
O1 C1 1_555 1_555
O2 C1 1_555 1_555
O4 C18 1_555 1_555
Zn1 N1 1_555 1_555
N4 Zn1 1_555 1_555
O6 Zn1 1_555 1_555
C11 C12 1_555 1_555
C11 N1 1_555 1_555
O1 Zn1 1_555 1_555
C2_2 H1_2 1_555 1_555
C18_2 C17_2 1_555 1_555
C19 C23 1_555 1_555
C23 C2_2 1_555 1_555
C32 C17_2 1_555 1_555
H19 C32 1_555 1_555
O5 C19 1_555 1_555
O7 C19 1_555 1_555
O9 C18_2 1_555 1_555
Zn2 O5 1_555 1_555
C23 C32 1_555 1_555
O9 H22 1_555 1_555
C21 C24 1_555 1_555
C22 C26 1_555 1_555
C24 H12 1_555 1_555
C25 C24 1_555 1_555
H13 C25 1_555 1_555
C26 N5 1_555 1_555
C27 C22 1_555 1_555
H14 C27 1_555 1_555
C28 H15 1_555 1_555
C29 C21 1_555 1_555
H16 C29 1_555 1_555
C30 C20 1_555 1_555
H17 C30 1_555 1_555
C31 C22 1_555 1_555
H18 C31 1_555 1_555
C33 C20 1_555 1_555
H20 C33 1_555 1_555
N3 C25 1_555 1_555
N5 C21 1_555 1_555
H21 N5 1_555 1_555
O8 C26 1_555 1_555
Zn2 N3 1_555 1_555
C27 C30 1_555 1_555
C28 C29 1_555 1_555
C28 N3 1_555 1_555
C31 C33 1_555 1_555
C1_2 C6_2 1_555 1_555
C2_3 H1_3 1_555 1_555
C6_2 C2_3 1_555 1_555
H3_2 C8_2 1_555 1_555
C11_2 H5_2 1_555 1_555
H6_2 C12_2 1_555 1_555
C15_2 C6_2 1_555 1_555
H9_2 C15_2 1_555 1_555
C17_3 C15_2 1_555 1_555
C18_3 C17_3 1_555 1_555
N1_2 C8_2 1_555 1_555
O1_2 C1_2 1_555 1_555
O2_2 C1_2 1_555 1_555
O4_2 C18_3 1_555 1_555
Zn1_2 N1_2 1_555 1_555
C19_2 C23_2 1_555 1_555
C23_2 C2_3 1_555 1_555
C32_2 C17_3 1_555 1_555
H19_2 C32_2 1_555 1_555
N4_2 Zn1_2 1_555 1_555
O6 C19_2 1_555 1_555
O6_2 Zn1_2 1_555 1_555
O7_2 C19_2 1_555 1_555
O9_2 C18_3 1_555 1_555
C11_2 C12_2 1_555 1_555
C11_2 N1_2 1_555 1_555
O1_2 Zn1_2 1_555 1_555
C23_2 C32_2 1_555 1_555
O9_2 H22_2 1_555 1_555
C1_3 C6_3 1_555 1_555
C2_4 H1_4 1_555 1_555
C6_3 C2_4 1_555 1_555
C15_3 C6_3 1_555 1_555
H9_3 C15_3 1_555 1_555
C17_4 C15_3 1_555 1_555
C18_4 C17_4 1_555 1_555
O1_3 C1_3 1_555 1_555
O2_3 C1_3 1_555 1_555
O4_3 C18_4 1_555 1_555
C19_3 C23_3 1_555 1_555
C23_3 C2_4 1_555 1_555
C32_3 C17_4 1_555 1_555
H19_3 C32_3 1_555 1_555
N4_3 Zn2 1_555 1_555
O6_2 C19_3 1_555 1_555
O7_3 C19_3 1_555 1_555
O9_3 C18_4 1_555 1_555
O1_3 Zn2 1_555 1_555
C23_3 C32_3 1_555 1_555
O9_3 H22_3 1_555 1_555
H3_3 C8_3 1_555 1_555
C11_3 H5_3 1_555 1_555
H6_3 C12_3 1_555 1_555
N4 C8_3 1_555 1_555
C11_3 C12_3 1_555 1_555
C11_3 N4 1_555 1_555
O4_2 H22_4 1_555 1_555
H13_2 C25_2 1_555 1_555
C28_2 H15_2 1_555 1_555
H16_2 C29_2 1_555 1_555
N4_3 C25_2 1_555 1_555
C28_2 C29_2 1_555 1_555
C28_2 N4_3 1_555 1_555
C3 C13 1_555 1_555
C4 C7 1_555 1_555
C5 C9 1_555 1_555
C7 H2 1_555 1_555
C8_4 C7 1_555 1_555
H3_4 C8_4 1_555 1_555
C9 N2 1_555 1_555
C10 C5 1_555 1_555
H4 C10 1_555 1_555
C11_4 H5_4 1_555 1_555
C12_4 C4 1_555 1_555
H6_4 C12_4 1_555 1_555
C13 C10 1_555 1_555
H7 C13 1_555 1_555
C14 C5 1_555 1_555
H8 C14 1_555 1_555
C16 C3 1_555 1_555
H10 C16 1_555 1_555
N4_2 C8_4 1_555 1_555
N2 C4 1_555 1_555
H11 N2 1_555 1_555
O3 C9 1_555 1_555
C11_4 C12_4 1_555 1_555
C11_4 N4_2 1_555 1_555
C14 C16 1_555 1_555
O4_3 H22_5 1_555 1_555
O4 H22_6 1_555 1_555
C3_2 C13_2 1_555 1_555
C4_2 C7_2 1_555 1_555
C5_2 C9_2 1_555 1_555
C7_2 H2_2 1_555 1_555
C9_2 N2_2 1_555 1_555
C10_2 C5_2 1_555 1_555
H4_2 C10_2 1_555 1_555
C13_2 C10_2 1_555 1_555
H7_2 C13_2 1_555 1_555
C14_2 C5_2 1_555 1_555
C16_2 C3_2 1_555 1_555
N2_2 C4_2 1_555 1_555
H11_2 N2_2 1_555 1_555
O3_2 C9_2 1_555 1_555
C20_2 C3_2 1_555 1_555
C21_2 C24_2 1_555 1_555
C22_2 C26_2 1_555 1_555
C24_2 H12_2 1_555 1_555
C26_2 N5_2 1_555 1_555
C27_2 C22_2 1_555 1_555
H14_2 C27_2 1_555 1_555
C30_2 C20_2 1_555 1_555
H17_2 C30_2 1_555 1_555
C31_2 C22_2 1_555 1_555
C33_2 C20_2 1_555 1_555
N5_2 C21_2 1_555 1_555
H21_2 N5_2 1_555 1_555
O8_2 C26_2 1_555 1_555
C14_2 C16_2 1_555 1_555
C27_2 C30_2 1_555 1_555
C31_2 C33_2 1_555 1_555
H13_3 C25_3 1_555 1_555
C28_3 H15_3 1_555 1_555
H16_3 C29_3 1_555 1_555
N3_2 C25_3 1_555 1_555
Zn3 N3_2 1_555 1_555
C28_3 C29_3 1_555 1_555
C28_3 N3_2 1_555 1_555
C1_4 C6_4 1_555 1_555
C2_5 H1_5 1_555 1_555
C3_3 C13_3 1_555 1_555
C4_3 C7_3 1_555 1_555
C5_3 C9_3 1_555 1_555
C6_4 C2_5 1_555 1_555
C7_3 H2_3 1_555 1_555
C8_5 C7_3 1_555 1_555
H3_5 C8_5 1_555 1_555
C9_3 N2_3 1_555 1_555
C10_3 C5_3 1_555 1_555
H4_3 C10_3 1_555 1_555
C11_5 H5_5 1_555 1_555
C12_5 C4_3 1_555 1_555
H6_5 C12_5 1_555 1_555
C13_3 C10_3 1_555 1_555
H7_3 C13_3 1_555 1_555
C14_3 C5_3 1_555 1_555
H8_3 C14_3 1_555 1_555
C15_4 C6_4 1_555 1_555
H9_4 C15_4 1_555 1_555
C16_3 C3_3 1_555 1_555
H10_3 C16_3 1_555 1_555
C17_5 C15_4 1_555 1_555
C18_5 C17_5 1_555 1_555
N1_3 C8_5 1_555 1_555
N2_3 C4_3 1_555 1_555
H11_3 N2_3 1_555 1_555
O1_4 C1_4 1_555 1_555
O2_4 C1_4 1_555 1_555
O3_3 C9_3 1_555 1_555
O4_4 C18_5 1_555 1_555
Zn1_3 N1_3 1_555 1_555
C19_4 C23_4 1_555 1_555
C23_4 C2_5 1_555 1_555
C32_4 C17_5 1_555 1_555
H19_4 C32_4 1_555 1_555
N4_4 Zn1_3 1_555 1_555
O5_2 C19_4 1_555 1_555
O6_3 Zn1_3 1_555 1_555
O7_4 C19_4 1_555 1_555
O9_4 C18_5 1_555 1_555
Zn2_2 O5_2 1_555 1_555
C11_5 C12_5 1_555 1_555
C11_5 N1_3 1_555 1_555
C14_3 C16_3 1_555 1_555
O1_4 Zn1_3 1_555 1_555
C23_4 C32_4 1_555 1_555
O9_4 H22_7 1_555 1_555
H13_4 C25_4 1_555 1_555
C28_4 H15_4 1_555 1_555
H16_4 C29_4 1_555 1_555
N3_3 C25_4 1_555 1_555
Zn2_2 N3_3 1_555 1_555
C28_4 C29_4 1_555 1_555
C28_4 N3_3 1_555 1_555
C1_5 C6_5 1_555 1_555
C2_6 H1_6 1_555 1_555
C6_5 C2_6 1_555 1_555
C15_5 C6_5 1_555 1_555
H9_5 C15_5 1_555 1_555
C17_6 C15_5 1_555 1_555
C18_6 C17_6 1_555 1_555
O1_5 C1_5 1_555 1_555
O2_5 C1_5 1_555 1_555
O4_5 C18_6 1_555 1_555
N4_5 Zn3 1_555 1_555
O6_4 Zn3 1_555 1_555
O1_5 Zn3 1_555 1_555
C2_7 H1_7 1_555 1_555
C18_7 C17_7 1_555 1_555
C19_5 C23_5 1_555 1_555
C23_5 C2_7 1_555 1_555
C32_5 C17_7 1_555 1_555
H19_5 C32_5 1_555 1_555
O6_3 C19_5 1_555 1_555
O7_5 C19_5 1_555 1_555
O9_5 C18_7 1_555 1_555
C23_5 C32_5 1_555 1_555
O9_5 H22_8 1_555 1_555
C1_6 C6_6 1_555 1_555
C2_8 H1_8 1_555 1_555
C6_6 C2_8 1_555 1_555
C15_6 C6_6 1_555 1_555
H9_6 C15_6 1_555 1_555
C17_8 C15_6 1_555 1_555
C18_8 C17_8 1_555 1_555
O1_6 C1_6 1_555 1_555
O2_6 C1_6 1_555 1_555
O4_6 C18_8 1_555 1_555
C19_6 C23_6 1_555 1_555
C23_6 C2_8 1_555 1_555
C32_6 C17_8 1_555 1_555
H19_6 C32_6 1_555 1_555
N4_6 Zn2_2 1_555 1_555
O6_4 C19_6 1_555 1_555
O7_6 C19_6 1_555 1_555
O9_6 C18_8 1_555 1_555
O1_6 Zn2_2 1_555 1_555
C23_6 C32_6 1_555 1_555
O9_6 H22_9 1_555 1_555
H13_5 C25_5 1_555 1_555
C28_5 H15_5 1_555 1_555
H16_5 C29_5 1_555 1_555
N4_5 C25_5 1_555 1_555
C28_5 C29_5 1_555 1_555
C28_5 N4_5 1_555 1_555
O4_5 H22_10 1_555 1_555
H3_6 C8_6 1_555 1_555
C11_6 H5_6 1_555 1_555
H6_6 C12_6 1_555 1_555
N4_4 C8_6 1_555 1_555
C11_6 C12_6 1_555 1_555
C11_6 N4_4 1_555 1_555
C21_3 C24_3 1_555 1_555
C22_3 C26_3 1_555 1_555
C24_3 H12_3 1_555 1_555
C25_6 C24_3 1_555 1_555
H13_6 C25_6 1_555 1_555
C26_3 N5_3 1_555 1_555
C27_3 C22_3 1_555 1_555
H14_3 C27_3 1_555 1_555
C28_6 H15_6 1_555 1_555
C29_6 C21_3 1_555 1_555
H16_6 C29_6 1_555 1_555
C30_3 C20_3 1_555 1_555
H17_3 C30_3 1_555 1_555
C31_3 C22_3 1_555 1_555
H18_3 C31_3 1_555 1_555
C33_3 C20_3 1_555 1_555
H20_3 C33_3 1_555 1_555
N4_6 C25_6 1_555 1_555
N5_3 C21_3 1_555 1_555
H21_3 N5_3 1_555 1_555
O8_3 C26_3 1_555 1_555
C27_3 C30_3 1_555 1_555
C28_6 C29_6 1_555 1_555
C28_6 N4_6 1_555 1_555
C31_3 C33_3 1_555 1_555
O4_6 H22_11 1_555 1_555
O4_4 H22_12 1_555 1_555
C21_4 C24_4 1_555 1_555
C22_4 C26_4 1_555 1_555
C24_4 H12_4 1_555 1_555
C26_4 N5_4 1_555 1_555
C27_4 C22_4 1_555 1_555
H14_4 C27_4 1_555 1_555
C30_4 C20_4 1_555 1_555
H17_4 C30_4 1_555 1_555
C31_4 C22_4 1_555 1_555
H18_4 C31_4 1_555 1_555
C33_4 C20_4 1_555 1_555
H20_4 C33_4 1_555 1_555
N5_4 C21_4 1_555 1_555
H21_4 N5_4 1_555 1_555
O8_4 C26_4 1_555 1_555
C27_4 C30_4 1_555 1_555
C31_4 C33_4 1_555 1_555
C3_4 C13_4 1_555 1_555
C4_4 C7_4 1_555 1_555
C5_4 C9_4 1_555 1_555
C7_4 H2_4 1_555 1_555
C9_4 N2_4 1_555 1_555
C10_4 C5_4 1_555 1_555
H4_4 C10_4 1_555 1_555
C13_4 C10_4 1_555 1_555
H7_4 C13_4 1_555 1_555
C14_4 C5_4 1_555 1_555
H8_4 C14_4 1_555 1_555
C16_4 C3_4 1_555 1_555
H10_4 C16_4 1_555 1_555
N2_4 C4_4 1_555 1_555
H11_4 N2_4 1_555 1_555
O3_4 C9_4 1_555 1_555
C14_4 C16_4 1_555 1_555
C3_5 C13_5 1_555 1_555
C4_5 C7_5 1_555 1_555
C5_5 C9_5 1_555 1_555
C7_5 H2_5 1_555 1_555
C9_5 N2_5 1_555 1_555
C10_5 C5_5 1_555 1_555
H4_5 C10_5 1_555 1_555
C13_5 C10_5 1_555 1_555
H7_5 C13_5 1_555 1_555
C14_5 C5_5 1_555 1_555
H8_5 C14_5 1_555 1_555
C16_5 C3_5 1_555 1_555
H10_5 C16_5 1_555 1_555
N2_5 C4_5 1_555 1_555
H11_5 N2_5 1_555 1_555
O3_5 C9_5 1_555 1_555
C20_5 C3_5 1_555 1_555
C21_5 C24_5 1_555 1_555
C22_5 C26_5 1_555 1_555
C24_5 H12_5 1_555 1_555
C26_5 N5_5 1_555 1_555
C27_5 C22_5 1_555 1_555
H14_5 C27_5 1_555 1_555
C30_5 C20_5 1_555 1_555
H17_5 C30_5 1_555 1_555
C31_5 C22_5 1_555 1_555
H18_5 C31_5 1_555 1_555
C33_5 C20_5 1_555 1_555
H20_5 C33_5 1_555 1_555
N5_5 C21_5 1_555 1_555
H21_5 N5_5 1_555 1_555
O8_5 C26_5 1_555 1_555
C14_5 C16_5 1_555 1_555
C27_5 C30_5 1_555 1_555
C31_5 C33_5 1_555 1_555
C21_6 C24_6 1_555 1_555
C22_6 C26_6 1_555 1_555
C24_6 H12_6 1_555 1_555
C26_6 N5_6 1_555 1_555
C27_6 C22_6 1_555 1_555
H14_6 C27_6 1_555 1_555
C30_6 C20_6 1_555 1_555
H17_6 C30_6 1_555 1_555
C31_6 C22_6 1_555 1_555
C33_6 C20_6 1_555 1_555
N5_6 C21_6 1_555 1_555
H21_6 N5_6 1_555 1_555
O8_6 C26_6 1_555 1_555
C27_6 C30_6 1_555 1_555
C31_6 C33_6 1_555 1_555
C3_6 C13_6 1_555 1_555
C4_6 C7_6 1_555 1_555
C5_6 C9_6 1_555 1_555
C7_6 H2_6 1_555 1_555
C9_6 N2_6 1_555 1_555
C10_6 C5_6 1_555 1_555
H4_6 C10_6 1_555 1_555
C13_6 C10_6 1_555 1_555
H7_6 C13_6 1_555 1_555
C14_6 C5_6 1_555 1_555
C16_6 C3_6 1_555 1_555
N2_6 C4_6 1_555 1_555
H11_6 N2_6 1_555 1_555
O3_6 C9_6 1_555 1_555
C14_6 C16_6 1_555 1_555

#END
