
###############################################################################
#
# This file contains modified crystal structure data generated from the
# MOF subset of the Cambridge Structural Database (CSD) v543 
# hosted by the Cambridge Crystallographic Data Centre (CCDC).
#
# This work is licensed under the Creative Commons
# Attribution-NonCommercial-ShareAlike 4.0 International License.
# To view a copy of this license, visit
# http://creativecommons.org/licenses/by-nc-sa/4.0/
# or send a letter to
# Creative Commons, PO Box 1866, Mountain View, CA 94042, USA.
#
# CIF created using the CSD Python API on 29 September 2022
# The structure has been converted into the P1 space group
# The structure has a 3D framework
# The original CSD entry RAYMAH is in the hexagonal crystal system
# The original CSD entry RAYMAH is in a Sohncke space group
# The framework has been calculated to contain at least 10.0% void space
# The void calculation uses a probe of radius 1.32A, grid spacing 0.4
# H atom positions have been added when not included in the experimental data
#
###############################################################################

data_RAYMAH
_chemical_formula_moiety         '(C204 H140 N24 O48 Zn6)n'
_symmetry_cell_setting           triclinic
_symmetry_space_group_name_H-M   'P 1'
_symmetry_Int_Tables_number      1
_space_group_name_Hall           'P 1'
loop_
_symmetry_equiv_pos_site_id
_symmetry_equiv_pos_as_xyz
1 x,y,z
_cell_length_a                   16.5028(4)
_cell_length_b                   16.5028(4)
_cell_length_c                   25.4515(15)
_cell_angle_alpha                90
_cell_angle_beta                 90
_cell_angle_gamma                120
_cell_volume                     6002.87
loop_
_atom_site_label
_atom_site_type_symbol
_atom_site_fract_x
_atom_site_fract_y
_atom_site_fract_z
C1 C 0.67737(18) 0.41810(19) 0.09696(11)
C2 C 0.7197(2) 0.46821(19) 0.04587(12)
C3 C 0.71056(14) 0.4211(3) 0.0000
H1 H 0.6780 0.3560 0.0000
C4 C 0.7710(4) 0.5653(2) 0.04500(16)
H2 H 0.7810 0.5982 0.0763
C5 C 0.8065(2) 0.6130(4) 0.0000
C6 C 0.8571(3) 0.7142(6) 0.0000
C7 C 0.4673(2) 0.1242(2) 0.09875(11)
H3 H 0.4958 0.1697 0.0729
C8 C 0.4071(3) 0.0348(2) 0.08320(12)
H4 H 0.3967 0.0208 0.0476
C11 C 0.4447(3) 0.0837(2) 0.18403(12)
H6 H 0.4572 0.1002 0.2193
N1 N 0.48714(15) 0.14971(15) 0.14734(9)
O1 O 0.62362(14) 0.33094(13) 0.09512(8)
O2 O 0.69753(15) 0.46409(17) 0.13801(9)
O3 O 0.8515(8) 0.7589(3) 0.03579(19)
Zn1 Zn 0.57526(3) 0.287631(16) 0.1667
N4 N 0.48714(15) 0.33743(21) 0.18599(9)
O6 O 0.62362(14) 0.29268(19) 0.23821(8)
C3_2 C 0.71056(14) 0.4211(3) 1.0000
H1_2 H 0.6780 0.3560 1.0000
C5_2 C 0.8065(2) 0.6130(4) 1.0000
C6_2 C 0.8571(3) 0.7142(6) 1.0000
C19 C 0.74073(26) 0.41810(19) 0.90304(11)
C20 C 0.74851(28) 0.46821(19) 0.95413(12)
C21 C 0.7943(4) 0.5653(2) 0.95500(16)
H12 H 0.8172 0.5982 0.9237
O5 O 0.70732(19) 0.33094(13) 0.90488(8)
O7 O 0.76656(23) 0.46409(17) 0.86199(9)
O8 O 0.9074(9) 0.7589(3) 0.96421(19)
Zn2 Zn 0.712369(16) 0.287629(34) 0.8334
H22 H 0.870306 0.743418 0.93128
C22 C 0.6569(3) 0.5327(2) 0.43208(11)
H13 H 0.6739 0.5042 0.4062
C23 C 0.6277(4) 0.5929(3) 0.41653(12)
H14 H 0.6241 0.6033 0.3809
C24 C 0.60371(27) 0.6380(2) 0.45292(11)
C25 C 0.6090(3) 0.6171(2) 0.50435(12)
H15 H 0.5923 0.6449 0.5307
C26 C 0.6390(4) 0.5553(3) 0.51736(12)
H16 H 0.6430 0.5428 0.5526
C27 C 0.5774(4) 0.7417(3) 0.39511(13)
C28 C 0.5509(3) 0.8164(2) 0.39373(12)
C29 C 0.5590(6) 0.8639(5) 0.35019(18)
H17 H 0.5814 0.8500 0.3200
C30 C 0.5363(6) 0.9319(5) 0.34792(18)
H18 H 0.5401 0.9597 0.3155
C31 C 0.5093(3) 0.9607(2) 0.38813(12)
C32 C 0.4856(4) 0.9022(3) 0.42814(17)
H19 H 0.4499 0.9076 0.4547
C33 C 0.5092(4) 0.8347(3) 0.43356(18)
H20 H 0.4966 0.8013 0.4648
N3 N 0.66257(21) 0.51286(15) 0.48067(9)
N5 N 0.57515(24) 0.70323(18) 0.44136(9)
H21 H 0.5537 0.7203 0.4673
O9 O 0.6030(4) 0.7214(3) 0.35608(11)
Zn3 Zn 0.712369(45) 0.42474(3) 0.5000
C1_2 C 0.58190(19) 0.25927(26) 0.76363(11)
C2_2 C 0.53179(19) 0.25149(28) 0.71254(12)
C3_3 C 0.5789(3) 0.28946(33) 0.6667
H1_3 H 0.6440 0.3220 0.6667
C4_2 C 0.4347(2) 0.2057(4) 0.71167(16)
H2_2 H 0.4018 0.1828 0.7430
C5_3 C 0.3870(4) 0.1935(4) 0.6667
C6_3 C 0.2858(6) 0.1429(7) 0.6667
C7_2 C 0.8758(2) 0.3431(3) 0.76542(11)
H3_2 H 0.8303 0.3261 0.7396
C8_2 C 0.9652(2) 0.3723(4) 0.74987(12)
H4_2 H 0.9792 0.3759 0.7143
C11_2 C 0.9163(2) 0.3610(4) 0.85070(12)
H6_2 H 0.8998 0.3570 0.8860
N1_2 N 0.85029(15) 0.33743(21) 0.81401(9)
O1_2 O 0.66906(13) 0.29268(19) 0.76179(8)
O2_2 O 0.53591(17) 0.23344(23) 0.80468(9)
O3_2 O 0.2411(3) 0.0926(9) 0.70246(19)
C19_2 C 0.58190(19) 0.32263(32) 0.56971(11)
C20_2 C 0.53179(19) 0.28030(34) 0.62080(12)
C21_2 C 0.4347(2) 0.2290(4) 0.62167(16)
H12_2 H 0.4018 0.2190 0.5904
N4_2 N 0.66257(21) 0.14971(26) 0.85266(9)
O5_2 O 0.66906(13) 0.37638(23) 0.57155(8)
O7_2 O 0.53591(17) 0.30247(29) 0.52866(9)
O8_2 O 0.2411(3) 0.1485(9) 0.63088(19)
H22_2 H 0.256582 0.126888 0.597947
C1_3 C 0.74073(26) 0.32263(18) 0.43029(11)
C2_3 C 0.74851(28) 0.2803(2) 0.37920(12)
C3_4 C 0.71054(33) 0.28944(14) 0.3333
H1_4 H 0.6780 0.3220 0.3333
C4_3 C 0.7943(4) 0.2290(4) 0.37833(16)
H2_3 H 0.8172 0.2190 0.4096
C5_4 C 0.8065(4) 0.1935(2) 0.3333
C6_4 C 0.8571(7) 0.1429(3) 0.3333
O1_3 O 0.70732(19) 0.37638(14) 0.42845(8)
O2_3 O 0.76656(23) 0.30247(15) 0.47134(9)
O3_3 O 0.9074(9) 0.1485(8) 0.36912(19)
C19_3 C 0.67737(32) 0.25927(26) 0.23637(11)
C20_3 C 0.71970(34) 0.25149(28) 0.28746(12)
C21_3 C 0.7710(4) 0.2057(4) 0.28833(16)
H12_3 H 0.7810 0.1828 0.2570
N4_3 N 0.85029(26) 0.51286(15) 0.51933(9)
O7_3 O 0.69753(29) 0.23344(23) 0.19532(9)
O8_3 O 0.8515(9) 0.0926(9) 0.29754(19)
H22_3 H 0.873112 0.129694 0.264613
C7_3 C 0.8758(2) 0.5327(2) 0.56792(11)
H3_3 H 0.8303 0.5042 0.5938
C8_3 C 0.9652(2) 0.5929(3) 0.58347(12)
H4_3 H 0.9792 0.6033 0.6191
C11_3 C 0.9163(2) 0.5553(3) 0.48264(12)
H6_3 H 0.8998 0.5428 0.4474
H22_4 H 0.256582 0.129694 0.735387
C22_2 C 0.6569(3) 0.1242(2) 0.90125(11)
H13_2 H 0.6739 0.1697 0.9271
C23_2 C 0.6277(4) 0.0348(2) 0.91680(12)
H14_2 H 0.6241 0.0208 0.9524
C26_2 C 0.6390(4) 0.0837(2) 0.81597(12)
H16_2 H 0.6430 0.1002 0.7807
C7_4 C 0.4673(2) 0.3431(3) 0.23458(11)
H3_4 H 0.4958 0.3261 0.2604
C8_4 C 0.4071(3) 0.3723(4) 0.25013(12)
H4_4 H 0.3967 0.3759 0.2857
C9 C 0.3620(2) 0.39629(27) 0.21374(11)
C10 C 0.3829(2) 0.3910(3) 0.16231(12)
H5 H 0.3551 0.4077 0.1359
C11_4 C 0.4447(3) 0.3610(4) 0.14930(12)
H6_4 H 0.4572 0.3570 0.1140
C12 C 0.2583(3) 0.4226(4) 0.27155(13)
C13 C 0.1836(2) 0.4491(3) 0.27293(12)
C14 C 0.1361(5) 0.4410(6) 0.31647(18)
H7 H 0.1500 0.4186 0.3466
C15 C 0.0681(5) 0.4637(6) 0.31874(18)
H8 H 0.0403 0.4599 0.3511
C16 C 0.0393(2) 0.4907(3) 0.27853(12)
C17 C 0.0978(3) 0.5144(4) 0.23852(17)
H9 H 0.0924 0.5501 0.2119
C18 C 0.1653(3) 0.4908(4) 0.23310(18)
H10 H 0.1987 0.5034 0.2018
N2 N 0.29677(18) 0.42485(24) 0.22530(9)
H11 H 0.2797 0.4463 0.1993
O4 O 0.2786(3) 0.3970(4) 0.31058(11)
H22_5 H 0.870306 0.126888 0.402053
H22_6 H 0.873112 0.743418 0.06872
C9_2 C 0.3620(2) 0.96571(18) 0.11959(11)
C10_2 C 0.3829(2) 0.9919(2) 0.17102(12)
H5_2 H 0.3551 0.9474 0.1974
C12_2 C 0.2583(3) 0.8357(2) 0.06178(13)
C13_2 C 0.1836(2) 0.7345(2) 0.06040(12)
C14_2 C 0.1361(5) 0.6951(4) 0.01686(18)
C15_2 C 0.0681(5) 0.6044(3) 0.01459(18)
C16_2 C 0.0393(2) 0.5486(2) 0.05480(12)
C17_2 C 0.0978(3) 0.5834(3) 0.09481(17)
H9_2 H 0.0924 0.5423 0.1214
C18_2 C 0.1653(3) 0.6745(3) 0.10023(18)
H10_2 H 0.1987 0.6953 0.1315
N2_2 N 0.29677(18) 0.87192(16) 0.10803(9)
H11_2 H 0.2797 0.8334 0.1340
O4_2 O 0.2786(3) 0.8816(2) 0.02275(11)
H7_2 H 0.1500 0.7314 0.9867
H8_2 H 0.0403 0.5804 0.9822
C24_2 C 0.6380(2) 0.03429(18) 0.11959(11)
C25_2 C 0.6171(2) 0.0081(2) 0.17102(12)
H15_2 H 0.6449 0.0526 0.1974
C27_2 C 0.7417(3) 0.1643(2) 0.06178(13)
C28_2 C 0.8164(2) 0.2655(2) 0.06040(12)
C29_2 C 0.8639(5) 0.3049(4) 0.01686(18)
C30_2 C 0.9319(5) 0.3956(3) 0.01459(18)
C31_2 C 0.9607(2) 0.4514(2) 0.05480(12)
C32_2 C 0.9022(3) 0.4166(3) 0.09481(17)
H19_2 H 0.9076 0.4577 0.1214
C33_2 C 0.8347(3) 0.3255(3) 0.10023(18)
H20_2 H 0.8013 0.3047 0.1315
N5_2 N 0.70323(18) 0.12808(16) 0.10803(9)
H21_2 H 0.7203 0.1666 0.1340
O9_2 O 0.7214(3) 0.1184(2) 0.02275(11)
H17_2 H 0.8500 0.2686 0.9867
H18_2 H 0.9597 0.4196 0.9822
C22_3 C 0.5327(2) 0.8758(2) 0.09875(11)
H13_3 H 0.5042 0.8303 0.0729
C23_3 C 0.5929(3) 0.9652(2) 0.08320(12)
H14_3 H 0.6033 0.9792 0.0476
C26_3 C 0.5553(3) 0.9163(2) 0.18403(12)
H16_3 H 0.5428 0.8998 0.2193
N3_2 N 0.51286(15) 0.85029(15) 0.14734(9)
Zn3_2 Zn 0.42474(3) 0.712371(34) 0.1666
C1_4 C 0.25927(26) 0.67737(18) 0.43029(11)
C2_4 C 0.25149(28) 0.7197(2) 0.37920(12)
C3_5 C 0.28946(33) 0.71056(14) 0.3333
H1_5 H 0.3220 0.6780 0.3333
C4_4 C 0.2057(4) 0.7710(4) 0.37833(16)
H2_4 H 0.1828 0.7810 0.4096
C5_5 C 0.1935(4) 0.8065(2) 0.3333
C6_5 C 0.1429(7) 0.8571(3) 0.3333
C7_5 C 0.3431(3) 0.4673(2) 0.43208(11)
H3_5 H 0.3261 0.4958 0.4062
C8_5 C 0.3723(4) 0.4071(3) 0.41653(12)
H4_5 H 0.3759 0.3967 0.3809
C9_3 C 0.39629(27) 0.3620(2) 0.45292(11)
C10_3 C 0.3910(3) 0.3829(2) 0.50435(12)
H5_3 H 0.4077 0.3551 0.5307
C11_5 C 0.3610(4) 0.4447(3) 0.51736(12)
H6_5 H 0.3570 0.4572 0.5526
C12_3 C 0.4226(4) 0.2583(3) 0.39511(13)
C13_3 C 0.4491(3) 0.1836(2) 0.39373(12)
C14_3 C 0.4410(6) 0.1361(5) 0.35019(18)
H7_3 H 0.4186 0.1500 0.3200
C15_3 C 0.4637(6) 0.0681(5) 0.34792(18)
H8_3 H 0.4599 0.0403 0.3155
C16_3 C 0.4907(3) 0.0393(2) 0.38813(12)
C17_3 C 0.5144(4) 0.0978(3) 0.42814(17)
H9_3 H 0.5501 0.0924 0.4547
C18_3 C 0.4908(4) 0.1653(3) 0.43356(18)
H10_3 H 0.5034 0.1987 0.4648
N1_3 N 0.33743(21) 0.48714(15) 0.48067(9)
N2_3 N 0.42485(24) 0.29677(18) 0.44136(9)
H11_3 H 0.4463 0.2797 0.4673
O1_4 O 0.29268(19) 0.62362(14) 0.42845(8)
O2_4 O 0.23344(23) 0.69753(15) 0.47134(9)
O3_4 O 0.0926(9) 0.8515(8) 0.36912(19)
O4_3 O 0.3970(4) 0.2786(3) 0.35608(11)
Zn1_2 Zn 0.287629(34) 0.57526(3) 0.5000
C19_4 C 0.32263(32) 0.74073(26) 0.23637(11)
C20_4 C 0.28030(34) 0.74851(28) 0.28746(12)
C21_4 C 0.2290(4) 0.7943(4) 0.28833(16)
H12_4 H 0.2190 0.8172 0.2570
N4_4 N 0.14971(26) 0.48714(15) 0.51933(9)
O5_3 O 0.37638(23) 0.70732(19) 0.23821(8)
O6_2 O 0.33094(24) 0.62362(14) 0.57155(8)
O7_4 O 0.30247(29) 0.76656(23) 0.19532(9)
O8_4 O 0.1485(9) 0.9074(9) 0.29754(19)
H22_7 H 0.126888 0.870306 0.264613
C22_4 C 0.1242(2) 0.6569(3) 0.76542(11)
H13_4 H 0.1697 0.6739 0.7396
C23_4 C 0.0348(2) 0.6277(4) 0.74987(12)
H14_4 H 0.0208 0.6241 0.7143
C26_4 C 0.0837(2) 0.6390(4) 0.85070(12)
H16_4 H 0.1002 0.6430 0.8860
N3_3 N 0.14971(15) 0.66257(21) 0.81401(9)
Zn3_3 Zn 0.287629(34) 0.712369(45) 0.8333
C1_5 C 0.32263(18) 0.58190(19) 0.09696(11)
C2_5 C 0.2803(2) 0.53179(19) 0.04587(12)
C3_6 C 0.28944(14) 0.5789(3) 0.0000
H1_6 H 0.3220 0.6440 0.0000
C4_5 C 0.2290(4) 0.4347(2) 0.04500(16)
H2_5 H 0.2190 0.4018 0.0763
C5_6 C 0.1935(2) 0.3870(4) 0.0000
C6_6 C 0.1429(3) 0.2858(6) 0.0000
O1_5 O 0.37638(14) 0.66906(13) 0.09512(8)
O2_5 O 0.30247(15) 0.53591(17) 0.13801(9)
O3_5 O 0.1485(8) 0.2411(3) 0.03579(19)
N4_5 N 0.51286(15) 0.66257(21) 0.18599(9)
C3_7 C 0.28944(14) 0.5789(3) 1.0000
H1_7 H 0.3220 0.6440 1.0000
C5_7 C 0.1935(2) 0.3870(4) 1.0000
C6_7 C 0.1429(3) 0.2858(6) 1.0000
C19_5 C 0.25927(26) 0.58190(19) 0.90304(11)
C20_5 C 0.25149(28) 0.53179(19) 0.95413(12)
C21_5 C 0.2057(4) 0.4347(2) 0.95500(16)
H12_5 H 0.1828 0.4018 0.9237
O5_4 O 0.29268(19) 0.66906(13) 0.90488(8)
O7_5 O 0.23344(23) 0.53591(17) 0.86199(9)
O8_5 O 0.0926(9) 0.2411(3) 0.96421(19)
H22_8 H 0.129694 0.256582 0.93128
C1_6 C 0.41810(19) 0.74073(26) 0.76363(11)
C2_6 C 0.46821(19) 0.74851(28) 0.71254(12)
C3_8 C 0.4211(3) 0.71054(33) 0.6667
H1_8 H 0.3560 0.6780 0.6667
C4_6 C 0.5653(2) 0.7943(4) 0.71167(16)
H2_6 H 0.5982 0.8172 0.7430
C5_8 C 0.6130(4) 0.8065(4) 0.6667
C6_8 C 0.7142(6) 0.8571(7) 0.6667
O1_6 O 0.33094(13) 0.70732(19) 0.76179(8)
O2_6 O 0.46409(17) 0.76656(23) 0.80468(9)
O3_6 O 0.7589(3) 0.9074(9) 0.70246(19)
C19_6 C 0.41810(19) 0.67737(32) 0.56971(11)
C20_6 C 0.46821(19) 0.71970(34) 0.62080(12)
C21_6 C 0.5653(2) 0.7710(4) 0.62167(16)
H12_6 H 0.5982 0.7810 0.5904
N4_6 N 0.33743(21) 0.85029(26) 0.85266(9)
O7_6 O 0.46409(17) 0.69753(29) 0.52866(9)
O8_6 O 0.7589(3) 0.8515(9) 0.63088(19)
H22_9 H 0.743418 0.873112 0.597947
C22_5 C 0.1242(2) 0.4673(2) 0.56792(11)
H13_5 H 0.1697 0.4958 0.5938
C23_5 C 0.0348(2) 0.4071(3) 0.58347(12)
H14_5 H 0.0208 0.3967 0.6191
C26_5 C 0.0837(2) 0.4447(3) 0.48264(12)
H16_5 H 0.1002 0.4572 0.4474
H22_10 H 0.126888 0.256582 0.06872
C7_6 C 0.3431(3) 0.8758(2) 0.90125(11)
H3_6 H 0.3261 0.8303 0.9271
C8_6 C 0.3723(4) 0.9652(2) 0.91680(12)
H4_6 H 0.3759 0.9792 0.9524
C11_6 C 0.3610(4) 0.9163(2) 0.81597(12)
H6_6 H 0.3570 0.8998 0.7807
C22_6 C 0.5327(2) 0.6569(3) 0.23458(11)
H13_6 H 0.5042 0.6739 0.2604
C23_6 C 0.5929(3) 0.6277(4) 0.25013(12)
H14_6 H 0.6033 0.6241 0.2857
C24_3 C 0.6380(2) 0.60371(27) 0.21374(11)
C25_3 C 0.6171(2) 0.6090(3) 0.16231(12)
H15_3 H 0.6449 0.5923 0.1359
C26_6 C 0.5553(3) 0.6390(4) 0.14930(12)
H16_6 H 0.5428 0.6430 0.1140
C27_3 C 0.7417(3) 0.5774(4) 0.27155(13)
C28_3 C 0.8164(2) 0.5509(3) 0.27293(12)
C29_3 C 0.8639(5) 0.5590(6) 0.31647(18)
H17_3 H 0.8500 0.5814 0.3466
C30_3 C 0.9319(5) 0.5363(6) 0.31874(18)
H18_3 H 0.9597 0.5401 0.3511
C31_3 C 0.9607(2) 0.5093(3) 0.27853(12)
C32_3 C 0.9022(3) 0.4856(4) 0.23852(17)
H19_3 H 0.9076 0.4499 0.2119
C33_3 C 0.8347(3) 0.5092(4) 0.23310(18)
H20_3 H 0.8013 0.4966 0.2018
N5_3 N 0.70323(18) 0.57515(24) 0.22530(9)
H21_3 H 0.7203 0.5537 0.1993
O9_3 O 0.7214(3) 0.6030(4) 0.31058(11)
H22_11 H 0.743418 0.870306 0.735387
H22_12 H 0.129694 0.873112 0.402053
C9_4 C 0.03429(18) 0.39629(27) 0.78626(11)
C10_4 C 0.0081(2) 0.3910(3) 0.83769(12)
H5_4 H 0.0526 0.4077 0.8641
C12_4 C 0.1643(2) 0.4226(4) 0.72845(13)
C13_4 C 0.2655(2) 0.4491(3) 0.72707(12)
C14_4 C 0.3049(4) 0.4410(6) 0.68353(18)
H7_4 H 0.2686 0.4186 0.6534
C15_4 C 0.3956(3) 0.4637(6) 0.68126(18)
H8_4 H 0.4196 0.4599 0.6489
C16_4 C 0.4514(2) 0.4907(3) 0.72147(12)
C17_4 C 0.4166(3) 0.5144(4) 0.76148(17)
H9_4 H 0.4577 0.5501 0.7881
C18_4 C 0.3255(3) 0.4908(4) 0.76690(18)
H10_4 H 0.3047 0.5034 0.7982
N2_4 N 0.12808(16) 0.42485(24) 0.77470(9)
H11_4 H 0.1666 0.4463 0.8007
O4_4 O 0.1184(2) 0.3970(4) 0.68942(11)
C24_4 C 0.96571(18) 0.60371(27) 0.78626(11)
C25_4 C 0.9919(2) 0.6090(3) 0.83769(12)
H15_4 H 0.9474 0.5923 0.8641
C27_4 C 0.8357(2) 0.5774(4) 0.72845(13)
C28_4 C 0.7345(2) 0.5509(3) 0.72707(12)
C29_4 C 0.6951(4) 0.5590(6) 0.68353(18)
H17_4 H 0.7314 0.5814 0.6534
C30_4 C 0.6044(3) 0.5363(6) 0.68126(18)
H18_4 H 0.5804 0.5401 0.6489
C31_4 C 0.5486(2) 0.5093(3) 0.72147(12)
C32_4 C 0.5834(3) 0.4856(4) 0.76148(17)
H19_4 H 0.5423 0.4499 0.7881
C33_4 C 0.6745(3) 0.5092(4) 0.76690(18)
H20_4 H 0.6953 0.4966 0.7982
N5_4 N 0.87192(16) 0.57515(24) 0.77470(9)
H21_4 H 0.8334 0.5537 0.8007
O9_4 O 0.8816(2) 0.6030(4) 0.68942(11)
C24_5 C 0.96571(18) 0.3620(2) 0.54708(11)
C25_5 C 0.9919(2) 0.3829(2) 0.49565(12)
H15_5 H 0.9474 0.3551 0.4693
C27_5 C 0.8357(2) 0.2583(3) 0.60489(13)
C28_5 C 0.7345(2) 0.1836(2) 0.60627(12)
C29_5 C 0.6951(4) 0.1361(5) 0.64981(18)
H17_5 H 0.7314 0.1500 0.6800
C30_5 C 0.6044(3) 0.0681(5) 0.65208(18)
H18_5 H 0.5804 0.0403 0.6845
C31_5 C 0.5486(2) 0.0393(2) 0.61187(12)
C32_5 C 0.5834(3) 0.0978(3) 0.57186(17)
H19_5 H 0.5423 0.0924 0.5453
C33_5 C 0.6745(3) 0.1653(3) 0.56644(18)
H20_5 H 0.6953 0.1987 0.5352
N5_5 N 0.87192(16) 0.29677(18) 0.55864(9)
H21_5 H 0.8334 0.2797 0.5327
O9_5 O 0.8816(2) 0.2786(3) 0.64392(11)
C9_5 C 0.03429(18) 0.6380(2) 0.54708(11)
C10_5 C 0.0081(2) 0.6171(2) 0.49565(12)
H5_5 H 0.0526 0.6449 0.4693
C12_5 C 0.1643(2) 0.7417(3) 0.60489(13)
C13_5 C 0.2655(2) 0.8164(2) 0.60627(12)
C14_5 C 0.3049(4) 0.8639(5) 0.64981(18)
H7_5 H 0.2686 0.8500 0.6800
C15_5 C 0.3956(3) 0.9319(5) 0.65208(18)
H8_5 H 0.4196 0.9597 0.6845
C16_5 C 0.4514(2) 0.9607(2) 0.61187(12)
C17_5 C 0.4166(3) 0.9022(3) 0.57186(17)
H9_5 H 0.4577 0.9076 0.5453
C18_5 C 0.3255(3) 0.8347(3) 0.56644(18)
H10_5 H 0.3047 0.8013 0.5352
N2_5 N 0.12808(16) 0.70323(18) 0.55864(9)
H11_5 H 0.1666 0.7203 0.5327
O4_5 O 0.1184(2) 0.7214(3) 0.64392(11)
H7_6 H 0.4186 0.2686 0.0133
H8_6 H 0.4599 0.4196 0.0178
H17_6 H 0.5814 0.7314 0.0133
H18_6 H 0.5401 0.5804 0.0178
C9_6 C 0.39629(27) 0.03429(18) 0.88041(11)
C10_6 C 0.3910(3) 0.0081(2) 0.82898(12)
H5_6 H 0.4077 0.0526 0.8026
C12_6 C 0.4226(4) 0.1643(2) 0.93822(13)
C13_6 C 0.4491(3) 0.2655(2) 0.93960(12)
C14_6 C 0.4410(6) 0.3049(4) 0.98314(18)
C15_6 C 0.4637(6) 0.3956(3) 0.98541(18)
C16_6 C 0.4907(3) 0.4514(2) 0.94520(12)
C17_6 C 0.5144(4) 0.4166(3) 0.90519(17)
H9_6 H 0.5501 0.4577 0.8786
C18_6 C 0.4908(4) 0.3255(3) 0.89977(18)
H10_6 H 0.5034 0.3047 0.8685
N2_6 N 0.42485(24) 0.12808(16) 0.89197(9)
H11_6 H 0.4463 0.1666 0.8660
O4_6 O 0.3970(4) 0.1184(2) 0.97725(11)
C24_6 C 0.60371(27) 0.96571(18) 0.88041(11)
C25_6 C 0.6090(3) 0.9919(2) 0.82898(12)
H15_6 H 0.5923 0.9474 0.8026
C27_6 C 0.5774(4) 0.8357(2) 0.93822(13)
C28_6 C 0.5509(3) 0.7345(2) 0.93960(12)
C29_6 C 0.5590(6) 0.6951(4) 0.98314(18)
C30_6 C 0.5363(6) 0.6044(3) 0.98541(18)
C31_6 C 0.5093(3) 0.5486(2) 0.94520(12)
C32_6 C 0.4856(4) 0.5834(3) 0.90519(17)
H19_6 H 0.4499 0.5423 0.8786
C33_6 C 0.5092(4) 0.6745(3) 0.89977(18)
H20_6 H 0.4966 0.6953 0.8685
N5_6 N 0.57515(24) 0.87192(16) 0.89197(9)
H21_6 H 0.5537 0.8334 0.8660
O9_6 O 0.6030(4) 0.8816(2) 0.97725(11)
loop_
_geom_bond_atom_site_label_1
_geom_bond_atom_site_label_2
_geom_bond_site_symmetry_1
_geom_bond_site_symmetry_2
C1 C2 1_555 1_555
C2 C3 1_555 1_555
C3 H1 1_555 1_555
C4 C2 1_555 1_555
H2 C4 1_555 1_555
C5 C4 1_555 1_555
C6 C5 1_555 1_555
C7 H3 1_555 1_555
C8 C7 1_555 1_555
H4 C8 1_555 1_555
H6 C11 1_555 1_555
N1 C7 1_555 1_555
O1 C1 1_555 1_555
O2 C1 1_555 1_555
O3 C6 1_555 1_555
Zn1 N1 1_555 1_555
N4 Zn1 1_555 1_555
O6 Zn1 1_555 1_555
C11 N1 1_555 1_555
O1 Zn1 1_555 1_555
C3_2 H1_2 1_555 1_555
C6_2 C5_2 1_555 1_555
C19 C20 1_555 1_555
C20 C3_2 1_555 1_555
C21 C5_2 1_555 1_555
H12 C21 1_555 1_555
O5 C19 1_555 1_555
O7 C19 1_555 1_555
O8 C6_2 1_555 1_555
Zn2 O5 1_555 1_555
C20 C21 1_555 1_555
O8 H22 1_555 1_555
C22 H13 1_555 1_555
C23 C22 1_555 1_555
H14 C23 1_555 1_555
C24 C23 1_555 1_555
C25 C24 1_555 1_555
H15 C25 1_555 1_555
C26 C25 1_555 1_555
H16 C26 1_555 1_555
C27 C28 1_555 1_555
C28 C29 1_555 1_555
C29 H17 1_555 1_555
C30 C29 1_555 1_555
H18 C30 1_555 1_555
C32 C31 1_555 1_555
H19 C32 1_555 1_555
C33 C28 1_555 1_555
H20 C33 1_555 1_555
N3 C22 1_555 1_555
N5 C24 1_555 1_555
H21 N5 1_555 1_555
O9 C27 1_555 1_555
Zn3 N3 1_555 1_555
C26 N3 1_555 1_555
C27 N5 1_555 1_555
C30 C31 1_555 1_555
C32 C33 1_555 1_555
C1_2 C2_2 1_555 1_555
C2_2 C3_3 1_555 1_555
C3_3 H1_3 1_555 1_555
C4_2 C2_2 1_555 1_555
H2_2 C4_2 1_555 1_555
C5_3 C4_2 1_555 1_555
C6_3 C5_3 1_555 1_555
C7_2 H3_2 1_555 1_555
C8_2 C7_2 1_555 1_555
H4_2 C8_2 1_555 1_555
H6_2 C11_2 1_555 1_555
N1_2 C7_2 1_555 1_555
O1_2 C1_2 1_555 1_555
O2_2 C1_2 1_555 1_555
O3_2 C6_3 1_555 1_555
Zn2 N1_2 1_555 1_555
C19_2 C20_2 1_555 1_555
C20_2 C3_3 1_555 1_555
C21_2 C5_3 1_555 1_555
H12_2 C21_2 1_555 1_555
N4_2 Zn2 1_555 1_555
O5_2 C19_2 1_555 1_555
O7_2 C19_2 1_555 1_555
O8_2 C6_3 1_555 1_555
Zn3 O5_2 1_555 1_555
C11_2 N1_2 1_555 1_555
O1_2 Zn2 1_555 1_555
C20_2 C21_2 1_555 1_555
O8_2 H22_2 1_555 1_555
C1_3 C2_3 1_555 1_555
C2_3 C3_4 1_555 1_555
C3_4 H1_4 1_555 1_555
C4_3 C2_3 1_555 1_555
H2_3 C4_3 1_555 1_555
C5_4 C4_3 1_555 1_555
C6_4 C5_4 1_555 1_555
O1_3 C1_3 1_555 1_555
O2_3 C1_3 1_555 1_555
O3_3 C6_4 1_555 1_555
C19_3 C20_3 1_555 1_555
C20_3 C3_4 1_555 1_555
C21_3 C5_4 1_555 1_555
H12_3 C21_3 1_555 1_555
N4_3 Zn3 1_555 1_555
O6 C19_3 1_555 1_555
O7_3 C19_3 1_555 1_555
O8_3 C6_4 1_555 1_555
O1_3 Zn3 1_555 1_555
C20_3 C21_3 1_555 1_555
O8_3 H22_3 1_555 1_555
C7_3 H3_3 1_555 1_555
C8_3 C7_3 1_555 1_555
H4_3 C8_3 1_555 1_555
H6_3 C11_3 1_555 1_555
N4_3 C7_3 1_555 1_555
C11_3 N4_3 1_555 1_555
O3_2 H22_4 1_555 1_555
C22_2 H13_2 1_555 1_555
C23_2 C22_2 1_555 1_555
H14_2 C23_2 1_555 1_555
H16_2 C26_2 1_555 1_555
N4_2 C22_2 1_555 1_555
C26_2 N4_2 1_555 1_555
C7_4 H3_4 1_555 1_555
C8_4 C7_4 1_555 1_555
H4_4 C8_4 1_555 1_555
C9 C8_4 1_555 1_555
C10 C9 1_555 1_555
H5 C10 1_555 1_555
C11_4 C10 1_555 1_555
H6_4 C11_4 1_555 1_555
C12 C13 1_555 1_555
C13 C14 1_555 1_555
C14 H7 1_555 1_555
C15 C14 1_555 1_555
H8 C15 1_555 1_555
C16 C15 1_555 1_555
C17 C16 1_555 1_555
H9 C17 1_555 1_555
C18 C13 1_555 1_555
H10 C18 1_555 1_555
N4 C7_4 1_555 1_555
N2 C9 1_555 1_555
H11 N2 1_555 1_555
O4 C12 1_555 1_555
C11_4 N4 1_555 1_555
C12 N2 1_555 1_555
C17 C18 1_555 1_555
O3_3 H22_5 1_555 1_555
O3 H22_6 1_555 1_555
C10_2 C9_2 1_555 1_555
H5_2 C10_2 1_555 1_555
C12_2 C13_2 1_555 1_555
C13_2 C14_2 1_555 1_555
C15_2 C14_2 1_555 1_555
C16_2 C15_2 1_555 1_555
C17_2 C16_2 1_555 1_555
H9_2 C17_2 1_555 1_555
C18_2 C13_2 1_555 1_555
H10_2 C18_2 1_555 1_555
N2_2 C9_2 1_555 1_555
H11_2 N2_2 1_555 1_555
O4_2 C12_2 1_555 1_555
C12_2 N2_2 1_555 1_555
C17_2 C18_2 1_555 1_555
C25_2 C24_2 1_555 1_555
H15_2 C25_2 1_555 1_555
C27_2 C28_2 1_555 1_555
C28_2 C29_2 1_555 1_555
C30_2 C29_2 1_555 1_555
C32_2 C31_2 1_555 1_555
H19_2 C32_2 1_555 1_555
C33_2 C28_2 1_555 1_555
H20_2 C33_2 1_555 1_555
N5_2 C24_2 1_555 1_555
H21_2 N5_2 1_555 1_555
O9_2 C27_2 1_555 1_555
C27_2 N5_2 1_555 1_555
C30_2 C31_2 1_555 1_555
C32_2 C33_2 1_555 1_555
C22_3 H13_3 1_555 1_555
C23_3 C22_3 1_555 1_555
H14_3 C23_3 1_555 1_555
H16_3 C26_3 1_555 1_555
N3_2 C22_3 1_555 1_555
Zn3_2 N3_2 1_555 1_555
C26_3 N3_2 1_555 1_555
C1_4 C2_4 1_555 1_555
C2_4 C3_5 1_555 1_555
C3_5 H1_5 1_555 1_555
C4_4 C2_4 1_555 1_555
H2_4 C4_4 1_555 1_555
C5_5 C4_4 1_555 1_555
C6_5 C5_5 1_555 1_555
C7_5 H3_5 1_555 1_555
C8_5 C7_5 1_555 1_555
H4_5 C8_5 1_555 1_555
C9_3 C8_5 1_555 1_555
C10_3 C9_3 1_555 1_555
H5_3 C10_3 1_555 1_555
C11_5 C10_3 1_555 1_555
H6_5 C11_5 1_555 1_555
C12_3 C13_3 1_555 1_555
C13_3 C14_3 1_555 1_555
C14_3 H7_3 1_555 1_555
C15_3 C14_3 1_555 1_555
H8_3 C15_3 1_555 1_555
C16_3 C15_3 1_555 1_555
C17_3 C16_3 1_555 1_555
H9_3 C17_3 1_555 1_555
C18_3 C13_3 1_555 1_555
H10_3 C18_3 1_555 1_555
N1_3 C7_5 1_555 1_555
N2_3 C9_3 1_555 1_555
H11_3 N2_3 1_555 1_555
O1_4 C1_4 1_555 1_555
O2_4 C1_4 1_555 1_555
O3_4 C6_5 1_555 1_555
O4_3 C12_3 1_555 1_555
Zn1_2 N1_3 1_555 1_555
C19_4 C20_4 1_555 1_555
C20_4 C3_5 1_555 1_555
C21_4 C5_5 1_555 1_555
H12_4 C21_4 1_555 1_555
N4_4 Zn1_2 1_555 1_555
O5_3 C19_4 1_555 1_555
O6_2 Zn1_2 1_555 1_555
O7_4 C19_4 1_555 1_555
O8_4 C6_5 1_555 1_555
Zn3_2 O5_3 1_555 1_555
C11_5 N1_3 1_555 1_555
C12_3 N2_3 1_555 1_555
C17_3 C18_3 1_555 1_555
O1_4 Zn1_2 1_555 1_555
C20_4 C21_4 1_555 1_555
O8_4 H22_7 1_555 1_555
C22_4 H13_4 1_555 1_555
C23_4 C22_4 1_555 1_555
H14_4 C23_4 1_555 1_555
H16_4 C26_4 1_555 1_555
N3_3 C22_4 1_555 1_555
Zn3_3 N3_3 1_555 1_555
C26_4 N3_3 1_555 1_555
C1_5 C2_5 1_555 1_555
C2_5 C3_6 1_555 1_555
C3_6 H1_6 1_555 1_555
C4_5 C2_5 1_555 1_555
H2_5 C4_5 1_555 1_555
C5_6 C4_5 1_555 1_555
C6_6 C5_6 1_555 1_555
O1_5 C1_5 1_555 1_555
O2_5 C1_5 1_555 1_555
O3_5 C6_6 1_555 1_555
N4_5 Zn3_2 1_555 1_555
O1_5 Zn3_2 1_555 1_555
C3_7 H1_7 1_555 1_555
C6_7 C5_7 1_555 1_555
C19_5 C20_5 1_555 1_555
C20_5 C3_7 1_555 1_555
C21_5 C5_7 1_555 1_555
H12_5 C21_5 1_555 1_555
O5_4 C19_5 1_555 1_555
O7_5 C19_5 1_555 1_555
O8_5 C6_7 1_555 1_555
Zn3_3 O5_4 1_555 1_555
C20_5 C21_5 1_555 1_555
O8_5 H22_8 1_555 1_555
C1_6 C2_6 1_555 1_555
C2_6 C3_8 1_555 1_555
C3_8 H1_8 1_555 1_555
C4_6 C2_6 1_555 1_555
H2_6 C4_6 1_555 1_555
C5_8 C4_6 1_555 1_555
C6_8 C5_8 1_555 1_555
O1_6 C1_6 1_555 1_555
O2_6 C1_6 1_555 1_555
O3_6 C6_8 1_555 1_555
C19_6 C20_6 1_555 1_555
C20_6 C3_8 1_555 1_555
C21_6 C5_8 1_555 1_555
H12_6 C21_6 1_555 1_555
N4_6 Zn3_3 1_555 1_555
O6_2 C19_6 1_555 1_555
O7_6 C19_6 1_555 1_555
O8_6 C6_8 1_555 1_555
O1_6 Zn3_3 1_555 1_555
C20_6 C21_6 1_555 1_555
O8_6 H22_9 1_555 1_555
C22_5 H13_5 1_555 1_555
C23_5 C22_5 1_555 1_555
H14_5 C23_5 1_555 1_555
H16_5 C26_5 1_555 1_555
N4_4 C22_5 1_555 1_555
C26_5 N4_4 1_555 1_555
O3_5 H22_10 1_555 1_555
C7_6 H3_6 1_555 1_555
C8_6 C7_6 1_555 1_555
H4_6 C8_6 1_555 1_555
H6_6 C11_6 1_555 1_555
N4_6 C7_6 1_555 1_555
C11_6 N4_6 1_555 1_555
C22_6 H13_6 1_555 1_555
C23_6 C22_6 1_555 1_555
H14_6 C23_6 1_555 1_555
C24_3 C23_6 1_555 1_555
C25_3 C24_3 1_555 1_555
H15_3 C25_3 1_555 1_555
C26_6 C25_3 1_555 1_555
H16_6 C26_6 1_555 1_555
C27_3 C28_3 1_555 1_555
C28_3 C29_3 1_555 1_555
C29_3 H17_3 1_555 1_555
C30_3 C29_3 1_555 1_555
H18_3 C30_3 1_555 1_555
C32_3 C31_3 1_555 1_555
H19_3 C32_3 1_555 1_555
C33_3 C28_3 1_555 1_555
H20_3 C33_3 1_555 1_555
N4_5 C22_6 1_555 1_555
N5_3 C24_3 1_555 1_555
H21_3 N5_3 1_555 1_555
O9_3 C27_3 1_555 1_555
C26_6 N4_5 1_555 1_555
C27_3 N5_3 1_555 1_555
C30_3 C31_3 1_555 1_555
C32_3 C33_3 1_555 1_555
O3_6 H22_11 1_555 1_555
O3_4 H22_12 1_555 1_555
C10_4 C9_4 1_555 1_555
H5_4 C10_4 1_555 1_555
C12_4 C13_4 1_555 1_555
C13_4 C14_4 1_555 1_555
C14_4 H7_4 1_555 1_555
C15_4 C14_4 1_555 1_555
H8_4 C15_4 1_555 1_555
C16_4 C15_4 1_555 1_555
C17_4 C16_4 1_555 1_555
H9_4 C17_4 1_555 1_555
C18_4 C13_4 1_555 1_555
H10_4 C18_4 1_555 1_555
N2_4 C9_4 1_555 1_555
H11_4 N2_4 1_555 1_555
O4_4 C12_4 1_555 1_555
C25_4 C24_4 1_555 1_555
H15_4 C25_4 1_555 1_555
C27_4 C28_4 1_555 1_555
C28_4 C29_4 1_555 1_555
C29_4 H17_4 1_555 1_555
C30_4 C29_4 1_555 1_555
H18_4 C30_4 1_555 1_555
C31_4 C16_4 1_555 1_555
C32_4 C31_4 1_555 1_555
H19_4 C32_4 1_555 1_555
C33_4 C28_4 1_555 1_555
H20_4 C33_4 1_555 1_555
N5_4 C24_4 1_555 1_555
H21_4 N5_4 1_555 1_555
O9_4 C27_4 1_555 1_555
C12_4 N2_4 1_555 1_555
C17_4 C18_4 1_555 1_555
C27_4 N5_4 1_555 1_555
C30_4 C31_4 1_555 1_555
C32_4 C33_4 1_555 1_555
C25_5 C24_5 1_555 1_555
H15_5 C25_5 1_555 1_555
C27_5 C28_5 1_555 1_555
C28_5 C29_5 1_555 1_555
C29_5 H17_5 1_555 1_555
C30_5 C29_5 1_555 1_555
H18_5 C30_5 1_555 1_555
C32_5 C31_5 1_555 1_555
H19_5 C32_5 1_555 1_555
C33_5 C28_5 1_555 1_555
H20_5 C33_5 1_555 1_555
N5_5 C24_5 1_555 1_555
H21_5 N5_5 1_555 1_555
O9_5 C27_5 1_555 1_555
C27_5 N5_5 1_555 1_555
C30_5 C31_5 1_555 1_555
C32_5 C33_5 1_555 1_555
C10_5 C9_5 1_555 1_555
H5_5 C10_5 1_555 1_555
C12_5 C13_5 1_555 1_555
C13_5 C14_5 1_555 1_555
C14_5 H7_5 1_555 1_555
C15_5 C14_5 1_555 1_555
H8_5 C15_5 1_555 1_555
C16_5 C15_5 1_555 1_555
C17_5 C16_5 1_555 1_555
H9_5 C17_5 1_555 1_555
C18_5 C13_5 1_555 1_555
H10_5 C18_5 1_555 1_555
N2_5 C9_5 1_555 1_555
H11_5 N2_5 1_555 1_555
O4_5 C12_5 1_555 1_555
C12_5 N2_5 1_555 1_555
C17_5 C18_5 1_555 1_555
C10_6 C9_6 1_555 1_555
H5_6 C10_6 1_555 1_555
C12_6 C13_6 1_555 1_555
C13_6 C14_6 1_555 1_555
C15_6 C14_6 1_555 1_555
C16_6 C15_6 1_555 1_555
C17_6 C16_6 1_555 1_555
H9_6 C17_6 1_555 1_555
C18_6 C13_6 1_555 1_555
H10_6 C18_6 1_555 1_555
N2_6 C9_6 1_555 1_555
H11_6 N2_6 1_555 1_555
O4_6 C12_6 1_555 1_555
C25_6 C24_6 1_555 1_555
H15_6 C25_6 1_555 1_555
C27_6 C28_6 1_555 1_555
C28_6 C29_6 1_555 1_555
C30_6 C29_6 1_555 1_555
C31_6 C16_6 1_555 1_555
C32_6 C31_6 1_555 1_555
H19_6 C32_6 1_555 1_555
C33_6 C28_6 1_555 1_555
H20_6 C33_6 1_555 1_555
N5_6 C24_6 1_555 1_555
H21_6 N5_6 1_555 1_555
O9_6 C27_6 1_555 1_555
C12_6 N2_6 1_555 1_555
C17_6 C18_6 1_555 1_555
C27_6 N5_6 1_555 1_555
C30_6 C31_6 1_555 1_555
C32_6 C33_6 1_555 1_555

#END
