
###############################################################################
#
# This file contains modified crystal structure data generated from the
# MOF subset of the Cambridge Structural Database (CSD) v543 
# hosted by the Cambridge Crystallographic Data Centre (CCDC).
#
# This work is licensed under the Creative Commons
# Attribution-NonCommercial-ShareAlike 4.0 International License.
# To view a copy of this license, visit
# http://creativecommons.org/licenses/by-nc-sa/4.0/
# or send a letter to
# Creative Commons, PO Box 1866, Mountain View, CA 94042, USA.
#
# CIF created using the CSD Python API on 29 September 2022
# The structure has been converted into the P1 space group
# The structure has a 3D framework
# The original CSD entry RAYMOV is in the hexagonal crystal system
# The framework has been calculated to contain at least 10.0% void space
# The void calculation uses a probe of radius 1.32A, grid spacing 0.4
# H atom positions have been added when not included in the experimental data
# Generated hydrogen atom positions removed from atoms on special positions
#
###############################################################################

data_RAYMOV
_chemical_formula_moiety         '(C168 H138 Mn6 O32)n'
_symmetry_cell_setting           triclinic
_symmetry_space_group_name_H-M   'P 1'
_symmetry_Int_Tables_number      1
_space_group_name_Hall           'P 1'
loop_
_symmetry_equiv_pos_site_id
_symmetry_equiv_pos_as_xyz
1 x,y,z
_cell_length_a                   20.0962(3)
_cell_length_b                   20.0962(3)
_cell_length_c                   26.9145(9)
_cell_angle_alpha                90
_cell_angle_beta                 90
_cell_angle_gamma                120
_cell_volume                     9413.36
loop_
_atom_site_label
_atom_site_type_symbol
_atom_site_fract_x
_atom_site_fract_y
_atom_site_fract_z
C13 C 0.06898(8) -0.0000 0.5000
H7 H 0.1153 -0.0000 0.5000
C15 C 0.50843(8) 0.28628(12) 0.67988(5)
C16 C 0.28628(12) 0.50843(8) 0.32012(5)
C20 C 0.44645(8) 0.26890(11) 0.64156(5)
C21 C 0.26890(11) 0.44645(8) 0.35844(5)
C25 C 0.40057(9) 0.19712(13) 0.62253(6)
C26 C 0.19712(13) 0.40057(9) 0.37747(6)
H9 H 0.4081 0.1572 0.6330
H10 H 0.1572 0.4081 0.3670
C30 C 0.34338(9) 0.18160(13) 0.58836(6)
C31 C 0.18160(13) 0.34338(9) 0.41164(6)
H14 H 0.3127 0.1317 0.5768
H15 H 0.1317 0.3127 0.4232
C35 C 0.33126(7) 0.23928(11) 0.57126(6)
C36 C 0.23928(11) 0.33126(7) 0.42874(6)
C40 C 0.37675(9) 0.31334(13) 0.59070(7)
C41 C 0.31334(13) 0.37675(9) 0.40930(7)
H19 H 0.3691 0.3530 0.5800
H20 H 0.3530 0.3691 0.4200
C45 C 0.43356(9) 0.32795(13) 0.62605(6)
C46 C 0.32795(13) 0.43356(9) 0.37395(6)
H24 H 0.4628 0.3770 0.6393
H25 H 0.3770 0.4628 0.3607
C49 C 0.28132(9) 0.28132(9) 0.5000
H28 H 0.3276 0.3276 0.5000
C52 C 0.27049(7) 0.22548(11) 0.53433(5)
C53 C 0.22548(11) 0.27049(7) 0.46567(5)
C57 C 0.20148(7) 0.15563(10) 0.53343(5)
C58 C 0.15563(10) 0.20148(7) 0.46657(5)
H31 H 0.1168 0.1941 0.4446
H32 H 0.1941 0.1168 0.5554
C61 C 0.14345(8) 0.14345(8) 0.5000
C63 C 0.07012(9) 0.07012(9) 0.5000
C65 C -0.0000 0.06898(8) 0.5000
H36 H -0.0000 0.1153 0.5000
Mn3 Mn 0.583866(14) 0.216642(20) 0.7500
Mn7 Mn 0.632776(14) 0.416134(14) 0.7500
Mn8 Mn 0.216642(20) 0.583866(14) 0.2500
Mn9 Mn 0.416134(14) 0.632776(14) 0.2500
O6 O 0.51503(5) 0.23086(8) 0.69350(4)
O7 O 0.23086(8) 0.51503(5) 0.30650(4)
O16 O 0.54748(6) 0.35427(8) 0.69355(4)
O17 O 0.35427(8) 0.54748(6) 0.30645(4)
C8 C -0.0000 0.71868(9) 0.5000
H5 H -0.0000 0.6724 0.5000
C11 C -0.0000 0.85655(8) 0.5000
C12 C -0.0000 0.92988(9) 0.5000
C13_2 C 0.06898(8) 1.0000 0.5000
H7_2 H 0.1153 1.0000 0.5000
C14 C 0.22215(9) 0.71372(12) 0.32012(5)
C19 C 0.17755(8) 0.73110(11) 0.35844(5)
C24 C 0.20345(9) 0.80288(13) 0.37747(6)
H8 H 0.2509 0.8428 0.3670
C29 C 0.16178(9) 0.81840(13) 0.41164(6)
H13 H 0.1810 0.8683 0.4232
C34 C 0.09198(8) 0.76072(11) 0.42874(6)
C39 C 0.06341(9) 0.68666(13) 0.40930(7)
H18 H 0.0161 0.6470 0.4200
C44 C 0.10561(9) 0.67205(13) 0.37395(6)
H23 H 0.0858 0.6230 0.3607
C51 C 0.04501(8) 0.77452(11) 0.46567(5)
C56 C 0.04585(7) 0.84437(10) 0.46657(5)
H30 H 0.0773 0.8832 0.4446
Mn2 Mn 0.367224(14) 0.783358(20) 0.2500
O5 O 0.28417(6) 0.76914(8) 0.30650(4)
O15 O 0.19321(6) 0.64573(8) 0.30645(4)
C17 C 0.71372(12) 0.22215(9) 0.67988(5)
C22 C 0.73110(11) 0.17755(8) 0.64156(5)
C27 C 0.80288(13) 0.20345(9) 0.62253(6)
H11 H 0.8428 0.2509 0.6330
C32 C 0.81840(13) 0.16178(9) 0.58836(6)
H16 H 0.8683 0.1810 0.5768
C37 C 0.76072(11) 0.09198(8) 0.57126(6)
C42 C 0.68666(13) 0.06341(9) 0.59070(7)
H21 H 0.6470 0.0161 0.5800
C47 C 0.67205(13) 0.10561(9) 0.62605(6)
H26 H 0.6230 0.0858 0.6393
C50 C 0.71868(9) -0.0000 0.5000
H29 H 0.6724 -0.0000 0.5000
C54 C 0.77452(11) 0.04501(8) 0.53433(5)
C59 C 0.84437(10) 0.04585(7) 0.53343(5)
H34 H 0.8832 0.0773 0.5554
C62 C 0.85655(8) -0.0000 0.5000
C64 C 0.92988(9) -0.0000 0.5000
C65_2 C 1.0000 0.06898(8) 0.5000
H36_2 H 1.0000 0.1153 0.5000
Mn10 Mn 0.783358(20) 0.367224(14) 0.7500
O8 O 0.76914(8) 0.28417(6) 0.69350(4)
O18 O 0.64573(8) 0.19321(6) 0.69355(4)
C1 C 0.77785(9) 0.49157(8) 0.67988(5)
C2 C 0.82245(8) 0.55355(8) 0.64156(5)
C3 C 0.79655(9) 0.59943(9) 0.62253(6)
H1 H 0.7491 0.5919 0.6330
C4 C 0.83822(9) 0.65662(9) 0.58836(6)
H2 H 0.8190 0.6873 0.5768
C5 C 0.90802(8) 0.66874(7) 0.57126(6)
C6 C 0.93659(9) 0.62325(9) 0.59070(7)
H3 H 0.9839 0.6309 0.5800
C7 C 0.89439(9) 0.56644(9) 0.62605(6)
H4 H 0.9142 0.5372 0.6393
C8_2 C 1.0000 0.71868(9) 0.5000
H5_2 H 1.0000 0.6724 0.5000
C9 C 0.95499(8) 0.72951(7) 0.53433(5)
C10 C 0.95415(7) 0.79852(7) 0.53343(5)
H6 H 0.9227 0.8059 0.5554
C11_2 C 1.0000 0.85655(8) 0.5000
C12_2 C 1.0000 0.92988(9) 0.5000
O1 O 0.71583(6) 0.48497(5) 0.69350(4)
O2 O 0.80679(6) 0.45252(6) 0.69355(4)
O3 O 0.59505(10) 0.50306(10) 0.7500
O4 O 0.6667 0.3333 0.7500
C18 C 0.49157(8) 0.77785(9) 0.32012(5)
C23 C 0.55355(8) 0.82245(8) 0.35844(5)
C28 C 0.59943(9) 0.79655(9) 0.37747(6)
H12 H 0.5919 0.7491 0.3670
C33 C 0.65662(9) 0.83822(9) 0.41164(6)
H17 H 0.6873 0.8190 0.4232
C38 C 0.66874(7) 0.90802(8) 0.42874(6)
C43 C 0.62325(9) 0.93659(9) 0.40930(7)
H22 H 0.6309 0.9839 0.4200
C48 C 0.56644(9) 0.89439(9) 0.37395(6)
H27 H 0.5372 0.9142 0.3607
C50_2 C 0.71868(9) 1.0000 0.5000
H29_2 H 0.6724 1.0000 0.5000
C55 C 0.72951(7) 0.95499(8) 0.46567(5)
C60 C 0.79852(7) 0.95415(7) 0.46657(5)
H33 H 0.8059 0.9227 0.4446
C62_2 C 0.85655(8) 1.0000 0.5000
C64_2 C 0.92988(9) 1.0000 0.5000
C66 C 0.93102(8) 0.93102(8) 0.5000
H35 H 0.8847 0.8847 0.5000
O9 O 0.48497(5) 0.71583(6) 0.30650(4)
O10 O 0.71583(6) 0.48497(5) 0.80650(4)
O11 O 0.76914(8) 0.28417(6) 0.80650(4)
O14 O 0.51503(5) 0.23086(8) 0.80650(4)
O19 O 0.45252(6) 0.80679(6) 0.30645(4)
O21 O 0.54748(6) 0.35427(8) 0.80645(4)
O22 O 0.80679(6) 0.45252(6) 0.80645(4)
O23 O 0.64573(8) 0.19321(6) 0.80645(4)
O25 O 0.90801(14) 0.40495(10) 0.7500
O26 O 0.49694(10) 0.09199(14) 0.7500
C18_2 C 0.28628(12) 0.50843(8) 0.17988(5)
C23_2 C 0.26890(11) 0.44645(8) 0.14156(5)
C28_2 C 0.19712(13) 0.40057(9) 0.12253(6)
H12_2 H 0.1572 0.4081 0.1330
C33_2 C 0.18160(13) 0.34338(9) 0.08836(6)
H17_2 H 0.1317 0.3127 0.0768
C38_2 C 0.23928(11) 0.33126(7) 0.07126(6)
C43_2 C 0.31334(13) 0.37675(9) 0.09070(7)
H22_2 H 0.3530 0.3691 0.0800
C48_2 C 0.32795(13) 0.43356(9) 0.12605(6)
H27_2 H 0.3770 0.4628 0.1393
C50_3 C 0.28132(9) 0.28132(9) -0.0000
H29_3 H 0.3276 0.3276 -0.0000
C55_2 C 0.22548(11) 0.27049(7) 0.03433(5)
C60_2 C 0.15563(10) 0.20148(7) 0.03343(5)
H33_2 H 0.1168 0.1941 0.0554
C62_3 C 0.14345(8) 0.14345(8) -0.0000
C64_3 C 0.07012(9) 0.07012(9) -0.0000
C65_3 C 0.06898(8) 0.0000 -0.0000
C66_2 C 0.00000(11) 0.06898(8) -0.0000
H35_2 H 0.0000 0.1153 -0.0000
H36_3 H 0.1153 0.0000 -0.0000
O9_2 O 0.23086(8) 0.51503(5) 0.19350(4)
O19_2 O 0.35427(8) 0.54748(6) 0.19355(4)
C17_2 C 0.50843(15) 0.28628(12) 0.82012(5)
C22_2 C 0.44645(14) 0.26890(11) 0.85844(5)
C27_2 C 0.40057(16) 0.19712(13) 0.87747(6)
H11_2 H 0.4081 0.1572 0.8670
C32_2 C 0.34338(16) 0.18160(13) 0.91164(6)
H16_2 H 0.3127 0.1317 0.9232
C37_2 C 0.33126(14) 0.23928(11) 0.92874(6)
C42_2 C 0.37675(16) 0.31334(13) 0.90930(7)
H21_2 H 0.3691 0.3530 0.9200
C47_2 C 0.43356(16) 0.32795(13) 0.87395(6)
H26_2 H 0.4628 0.3770 0.8607
C50_4 C 0.28132(9) 0.28132(9) 1.0000
H29_4 H 0.3276 0.3276 1.0000
C54_2 C 0.27049(14) 0.22548(11) 0.96567(5)
C59_2 C 0.20148(12) 0.15563(10) 0.96657(5)
H34_2 H 0.1941 0.1168 0.9446
C62_4 C 0.14345(8) 0.14345(8) 1.0000
C64_4 C 0.07012(9) 0.07012(9) 1.0000
C65_4 C 0.06898(8) 0.0000 1.0000
C66_3 C 0.00000(11) 0.06898(8) 1.0000
H35_3 H 0.0000 0.1153 1.0000
H36_4 H 0.1153 0.0000 1.0000
C16_2 C 0.22215(14) 0.71372(12) 0.17988(5)
C21_2 C 0.17755(14) 0.73110(11) 0.14156(5)
C26_2 C 0.20345(16) 0.80288(13) 0.12253(6)
H10_2 H 0.2509 0.8428 0.1330
C31_2 C 0.16178(16) 0.81840(13) 0.08836(6)
H15_2 H 0.1810 0.8683 0.0768
C36_2 C 0.09198(13) 0.76072(11) 0.07126(6)
C41_2 C 0.06341(16) 0.68666(13) 0.09070(7)
H20_2 H 0.0161 0.6470 0.0800
C46_2 C 0.10561(16) 0.67205(13) 0.12605(6)
H25_2 H 0.0858 0.6230 0.1393
C49_2 C -0.00000(13) 0.71868(9) -0.0000
H28_2 H 0.0000 0.6724 -0.0000
C53_2 C 0.04501(13) 0.77452(11) 0.03433(5)
C58_2 C 0.04585(12) 0.84437(10) 0.03343(5)
H31_2 H 0.0773 0.8832 0.0554
C61_2 C 0.00000(11) 0.85655(8) -0.0000
C63_2 C 0.00000(13) 0.92988(9) -0.0000
C65_5 C 0.06898(8) 1.0000 -0.0000
H36_5 H 0.1153 1.0000 -0.0000
O7_2 O 0.28417(9) 0.76914(8) 0.19350(4)
O17_2 O 0.19321(10) 0.64573(8) 0.19355(4)
C1_2 C 0.71372(12) 0.22215(9) 0.82012(5)
C2_2 C 0.73110(11) 0.17755(8) 0.85844(5)
C3_2 C 0.80288(13) 0.20345(9) 0.87747(6)
H1_2 H 0.8428 0.2509 0.8670
C4_2 C 0.81840(13) 0.16178(9) 0.91164(6)
H2_2 H 0.8683 0.1810 0.9232
C5_2 C 0.76072(11) 0.09198(8) 0.92874(6)
C6_2 C 0.68666(13) 0.06341(9) 0.90930(7)
H3_2 H 0.6470 0.0161 0.9200
C7_2 C 0.67205(13) 0.10561(9) 0.87395(6)
H4_2 H 0.6230 0.0858 0.8607
C8_3 C 0.71868(9) 0.0000 1.0000
H5_3 H 0.6724 0.0000 1.0000
C9_2 C 0.77452(11) 0.04501(8) 0.96567(5)
C10_2 C 0.84437(10) 0.04585(7) 0.96657(5)
H6_2 H 0.8832 0.0773 0.9446
C11_3 C 0.85655(8) 0.0000 1.0000
C12_3 C 0.92988(9) 0.0000 1.0000
C66_4 C 1.00000(11) 0.06898(8) 1.0000
H35_4 H 1.0000 0.1153 1.0000
C8_4 C 0.71868(9) 1.0000 -0.0000
H5_4 H 0.6724 1.0000 -0.0000
C11_4 C 0.85655(8) 1.0000 -0.0000
C12_4 C 0.92988(9) 1.0000 -0.0000
C13_3 C 0.93102(8) 0.93102(8) -0.0000
H7_3 H 0.8847 0.8847 -0.0000
C14_2 C 0.49157(15) 0.77785(9) 0.17988(5)
C19_2 C 0.55355(14) 0.82245(8) 0.14156(5)
C24_2 C 0.59943(16) 0.79655(9) 0.12253(6)
H8_2 H 0.5919 0.7491 0.1330
C29_2 C 0.65662(16) 0.83822(9) 0.08836(6)
H13_2 H 0.6873 0.8190 0.0768
C34_2 C 0.66874(14) 0.90802(8) 0.07126(6)
C39_2 C 0.62325(16) 0.93659(9) 0.09070(7)
H18_2 H 0.6309 0.9839 0.0800
C44_2 C 0.56644(16) 0.89439(9) 0.12605(6)
H23_2 H 0.5372 0.9142 0.1393
C49_3 C 1.00000(13) 0.71868(9) -0.0000
H28_3 H 1.0000 0.6724 -0.0000
C51_2 C 0.72951(14) 0.95499(8) 0.03433(5)
C56_2 C 0.79852(12) 0.95415(7) 0.03343(5)
H30_2 H 0.8059 0.9227 0.0554
C61_3 C 1.00000(11) 0.85655(8) -0.0000
C63_3 C 1.00000(13) 0.92988(9) -0.0000
O5_2 O 0.48497(10) 0.71583(6) 0.19350(4)
O15_2 O 0.45252(10) 0.80679(6) 0.19355(4)
C8_5 C 0.71868(9) 1.0000 1.0000
H5_5 H 0.6724 1.0000 1.0000
C11_5 C 0.85655(8) 1.0000 1.0000
C12_5 C 0.92988(9) 1.0000 1.0000
C13_4 C 0.93102(8) 0.93102(8) 1.0000
H7_4 H 0.8847 0.8847 1.0000
C15_2 C 0.77785(14) 0.49157(8) 0.82012(5)
C20_2 C 0.82245(14) 0.55355(8) 0.85844(5)
C25_2 C 0.79655(16) 0.59943(9) 0.87747(6)
H9_2 H 0.7491 0.5919 0.8670
C30_2 C 0.83822(16) 0.65662(9) 0.91164(6)
H14_2 H 0.8190 0.6873 0.9232
C35_2 C 0.90802(13) 0.66874(7) 0.92874(6)
C40_2 C 0.93659(16) 0.62325(9) 0.90930(7)
H19_2 H 0.9839 0.6309 0.9200
C45_2 C 0.89439(16) 0.56644(9) 0.87395(6)
H24_2 H 0.9142 0.5372 0.8607
C49_4 C 1.00000(13) 0.71868(9) 1.0000
H28_4 H 1.0000 0.6724 1.0000
C52_2 C 0.95499(13) 0.72951(7) 0.96567(5)
C57_2 C 0.95415(12) 0.79852(7) 0.96657(5)
H32_2 H 0.9227 0.8059 0.9446
C61_4 C 1.00000(11) 0.85655(8) 1.0000
C63_4 C 1.00000(13) 0.92988(9) 1.0000
O3_2 O 0.50306(10) 0.59505(10) 0.2500
O4_2 O 0.3333 0.6667 0.2500
O25_2 O 0.40495(10) 0.90801(14) 0.2500
O26_2 O 0.09199(14) 0.49694(10) 0.2500
C49_5 C 0.00000(13) 0.71868(9) 1.0000
H28_5 H 0.0000 0.6724 1.0000
C61_5 C 0.00000(11) 0.85655(8) 1.0000
C63_5 C 0.00000(13) 0.92988(9) 1.0000
C65_6 C 0.06898(8) 1.0000 1.0000
H36_6 H 0.1153 1.0000 1.0000
C8_6 C 0.71868(9) 0.0000 -0.0000
H5_6 H 0.6724 0.0000 -0.0000
C11_6 C 0.85655(8) 0.0000 -0.0000
C12_6 C 0.92988(9) 0.0000 -0.0000
C66_5 C 1.00000(11) 0.06898(8) -0.0000
H35_5 H 1.0000 0.1153 -0.0000
loop_
_geom_bond_atom_site_label_1
_geom_bond_atom_site_label_2
_geom_bond_site_symmetry_1
_geom_bond_site_symmetry_2
H7 C13 1_555 1_555
C15 C20 1_555 1_555
C16 C21 1_555 1_555
C20 C25 1_555 1_555
C21 C26 1_555 1_555
C25 H9 1_555 1_555
C26 H10 1_555 1_555
C30 C25 1_555 1_555
C31 C26 1_555 1_555
H14 C30 1_555 1_555
H15 C31 1_555 1_555
C35 C30 1_555 1_555
C36 C31 1_555 1_555
C40 C35 1_555 1_555
C41 C36 1_555 1_555
H19 C40 1_555 1_555
H20 C41 1_555 1_555
C45 C20 1_555 1_555
C46 C21 1_555 1_555
H24 C45 1_555 1_555
H25 C46 1_555 1_555
C49 H28 1_555 1_555
C52 C35 1_555 1_555
C53 C36 1_555 1_555
C57 C52 1_555 1_555
C58 C53 1_555 1_555
H31 C58 1_555 1_555
H32 C57 1_555 1_555
C61 C57 1_555 1_555
C63 C13 1_555 1_555
C65 C63 1_555 1_555
H36 C65 1_555 1_555
Mn3 O6 1_555 1_555
Mn7 O16 1_555 1_555
Mn8 O7 1_555 1_555
Mn9 O17 1_555 1_555
O6 C15 1_555 1_555
O7 C16 1_555 1_555
O16 C15 1_555 1_555
O17 C16 1_555 1_555
C40 C45 1_555 1_555
C41 C46 1_555 1_555
C49 C52 1_555 1_555
C49 C53 1_555 1_555
C58 C61 1_555 1_555
C61 C63 1_555 1_555
C8 H5 1_555 1_555
C12 C11 1_555 1_555
C13_2 C12 1_555 1_555
H7_2 C13_2 1_555 1_555
C14 C19 1_555 1_555
C19 C24 1_555 1_555
C24 H8 1_555 1_555
C29 C24 1_555 1_555
H13 C29 1_555 1_555
C34 C29 1_555 1_555
C39 C34 1_555 1_555
H18 C39 1_555 1_555
C44 C19 1_555 1_555
H23 C44 1_555 1_555
C51 C8 1_555 1_555
C56 C11 1_555 1_555
H30 C56 1_555 1_555
Mn2 O5 1_555 1_555
Mn8 O15 1_555 1_555
O5 C14 1_555 1_555
O15 C14 1_555 1_555
C34 C51 1_555 1_555
C39 C44 1_555 1_555
C51 C56 1_555 1_555
C17 C22 1_555 1_555
C22 C27 1_555 1_555
C27 H11 1_555 1_555
C32 C27 1_555 1_555
H16 C32 1_555 1_555
C37 C32 1_555 1_555
C42 C37 1_555 1_555
H21 C42 1_555 1_555
C47 C22 1_555 1_555
H26 C47 1_555 1_555
C50 H29 1_555 1_555
C54 C37 1_555 1_555
C59 C54 1_555 1_555
H34 C59 1_555 1_555
C62 C59 1_555 1_555
C64 C62 1_555 1_555
H36_2 C65_2 1_555 1_555
Mn10 O8 1_555 1_555
Mn3 O18 1_555 1_555
O8 C17 1_555 1_555
O18 C17 1_555 1_555
C42 C47 1_555 1_555
C50 C54 1_555 1_555
C64 C65_2 1_555 1_555
C1 C2 1_555 1_555
C2 C3 1_555 1_555
C3 H1 1_555 1_555
C4 C3 1_555 1_555
H2 C4 1_555 1_555
C5 C4 1_555 1_555
C6 C5 1_555 1_555
H3 C6 1_555 1_555
C7 C2 1_555 1_555
H4 C7 1_555 1_555
C8_2 H5_2 1_555 1_555
C9 C5 1_555 1_555
C10 C9 1_555 1_555
H6 C10 1_555 1_555
C11_2 C10 1_555 1_555
C12_2 C11_2 1_555 1_555
Mn7 O1 1_555 1_555
O1 C1 1_555 1_555
O2 C1 1_555 1_555
O3 Mn7 1_555 1_555
O4 Mn7 1_555 1_555
C18 C23 1_555 1_555
C23 C28 1_555 1_555
C28 H12 1_555 1_555
C33 C28 1_555 1_555
H17 C33 1_555 1_555
C38 C33 1_555 1_555
C43 C38 1_555 1_555
H22 C43 1_555 1_555
C48 C23 1_555 1_555
H27 C48 1_555 1_555
C50_2 H29_2 1_555 1_555
C55 C38 1_555 1_555
C60 C55 1_555 1_555
H33 C60 1_555 1_555
C64_2 C62_2 1_555 1_555
C66 C12_2 1_555 1_555
H35 C66 1_555 1_555
Mn10 O2 1_555 1_555
Mn3 O4 1_555 1_555
Mn9 O9 1_555 1_555
Mn2 O19 1_555 1_555
O9 C18 1_555 1_555
O10 Mn7 1_555 1_555
O11 Mn10 1_555 1_555
O14 Mn3 1_555 1_555
O19 C18 1_555 1_555
O21 Mn7 1_555 1_555
O22 Mn10 1_555 1_555
O23 Mn3 1_555 1_555
O25 Mn10 1_555 1_555
O26 Mn3 1_555 1_555
C6 C7 1_555 1_555
C8_2 C9 1_555 1_555
O4 Mn10 1_555 1_555
C43 C48 1_555 1_555
C50_2 C55 1_555 1_555
C60 C62_2 1_555 1_555
C64_2 C66 1_555 1_555
C18_2 C23_2 1_555 1_555
C23_2 C28_2 1_555 1_555
C28_2 H12_2 1_555 1_555
C33_2 C28_2 1_555 1_555
H17_2 C33_2 1_555 1_555
C38_2 C33_2 1_555 1_555
C43_2 C38_2 1_555 1_555
H22_2 C43_2 1_555 1_555
C48_2 C23_2 1_555 1_555
H27_2 C48_2 1_555 1_555
C50_3 H29_3 1_555 1_555
C55_2 C38_2 1_555 1_555
C60_2 C55_2 1_555 1_555
H33_2 C60_2 1_555 1_555
C64_3 C62_3 1_555 1_555
H35_2 C66_2 1_555 1_555
H36_3 C65_3 1_555 1_555
Mn8 O9_2 1_555 1_555
Mn9 O19_2 1_555 1_555
O9_2 C18_2 1_555 1_555
O19_2 C18_2 1_555 1_555
C43_2 C48_2 1_555 1_555
C50_3 C55_2 1_555 1_555
C60_2 C62_3 1_555 1_555
C64_3 C65_3 1_555 1_555
C64_3 C66_2 1_555 1_555
C17_2 C22_2 1_555 1_555
C22_2 C27_2 1_555 1_555
C27_2 H11_2 1_555 1_555
C32_2 C27_2 1_555 1_555
H16_2 C32_2 1_555 1_555
C37_2 C32_2 1_555 1_555
C42_2 C37_2 1_555 1_555
H21_2 C42_2 1_555 1_555
C47_2 C22_2 1_555 1_555
H26_2 C47_2 1_555 1_555
C50_4 H29_4 1_555 1_555
C54_2 C37_2 1_555 1_555
C59_2 C54_2 1_555 1_555
H34_2 C59_2 1_555 1_555
C62_4 C59_2 1_555 1_555
C64_4 C62_4 1_555 1_555
H35_3 C66_3 1_555 1_555
H36_4 C65_4 1_555 1_555
O14 C17_2 1_555 1_555
O21 C17_2 1_555 1_555
C42_2 C47_2 1_555 1_555
C50_4 C54_2 1_555 1_555
C64_4 C65_4 1_555 1_555
C64_4 C66_3 1_555 1_555
C16_2 C21_2 1_555 1_555
C21_2 C26_2 1_555 1_555
C26_2 H10_2 1_555 1_555
C31_2 C26_2 1_555 1_555
H15_2 C31_2 1_555 1_555
C36_2 C31_2 1_555 1_555
C41_2 C36_2 1_555 1_555
H20_2 C41_2 1_555 1_555
C46_2 C21_2 1_555 1_555
H25_2 C46_2 1_555 1_555
C49_2 H28_2 1_555 1_555
C53_2 C36_2 1_555 1_555
C58_2 C53_2 1_555 1_555
H31_2 C58_2 1_555 1_555
C65_5 C63_2 1_555 1_555
H36_5 C65_5 1_555 1_555
Mn2 O7_2 1_555 1_555
Mn8 O17_2 1_555 1_555
O7_2 C16_2 1_555 1_555
O17_2 C16_2 1_555 1_555
C41_2 C46_2 1_555 1_555
C49_2 C53_2 1_555 1_555
C58_2 C61_2 1_555 1_555
C61_2 C63_2 1_555 1_555
C1_2 C2_2 1_555 1_555
C2_2 C3_2 1_555 1_555
C3_2 H1_2 1_555 1_555
C4_2 C3_2 1_555 1_555
H2_2 C4_2 1_555 1_555
C5_2 C4_2 1_555 1_555
C6_2 C5_2 1_555 1_555
H3_2 C6_2 1_555 1_555
C7_2 C2_2 1_555 1_555
H4_2 C7_2 1_555 1_555
C8_3 H5_3 1_555 1_555
C9_2 C5_2 1_555 1_555
C10_2 C9_2 1_555 1_555
H6_2 C10_2 1_555 1_555
C11_3 C10_2 1_555 1_555
C12_3 C11_3 1_555 1_555
O11 C1_2 1_555 1_555
O23 C1_2 1_555 1_555
C66_4 C12_3 1_555 1_555
H35_4 C66_4 1_555 1_555
C6_2 C7_2 1_555 1_555
C8_3 C9_2 1_555 1_555
C8_4 H5_4 1_555 1_555
C12_4 C11_4 1_555 1_555
C13_3 C12_4 1_555 1_555
H7_3 C13_3 1_555 1_555
C14_2 C19_2 1_555 1_555
C19_2 C24_2 1_555 1_555
C24_2 H8_2 1_555 1_555
C29_2 C24_2 1_555 1_555
H13_2 C29_2 1_555 1_555
C34_2 C29_2 1_555 1_555
C39_2 C34_2 1_555 1_555
H18_2 C39_2 1_555 1_555
C44_2 C19_2 1_555 1_555
H23_2 C44_2 1_555 1_555
C49_3 H28_3 1_555 1_555
C51_2 C8_4 1_555 1_555
C56_2 C11_4 1_555 1_555
H30_2 C56_2 1_555 1_555
C63_3 C13_3 1_555 1_555
Mn9 O5_2 1_555 1_555
Mn2 O15_2 1_555 1_555
O5_2 C14_2 1_555 1_555
O15_2 C14_2 1_555 1_555
C34_2 C51_2 1_555 1_555
C39_2 C44_2 1_555 1_555
C51_2 C56_2 1_555 1_555
C61_3 C63_3 1_555 1_555
C8_5 H5_5 1_555 1_555
C12_5 C11_5 1_555 1_555
C13_4 C12_5 1_555 1_555
H7_4 C13_4 1_555 1_555
C15_2 C20_2 1_555 1_555
C20_2 C25_2 1_555 1_555
C25_2 H9_2 1_555 1_555
C30_2 C25_2 1_555 1_555
H14_2 C30_2 1_555 1_555
C35_2 C30_2 1_555 1_555
C40_2 C35_2 1_555 1_555
H19_2 C40_2 1_555 1_555
C45_2 C20_2 1_555 1_555
H24_2 C45_2 1_555 1_555
C49_4 H28_4 1_555 1_555
C52_2 C35_2 1_555 1_555
C57_2 C52_2 1_555 1_555
H32_2 C57_2 1_555 1_555
C61_4 C57_2 1_555 1_555
C63_4 C13_4 1_555 1_555
O10 C15_2 1_555 1_555
O22 C15_2 1_555 1_555
C40_2 C45_2 1_555 1_555
C49_4 C52_2 1_555 1_555
C61_4 C63_4 1_555 1_555
O3_2 Mn9 1_555 1_555
O4_2 Mn9 1_555 1_555
Mn8 O4_2 1_555 1_555
O25_2 Mn2 1_555 1_555
O26_2 Mn8 1_555 1_555
O4_2 Mn2 1_555 1_555
C49_5 H28_5 1_555 1_555
C65_6 C63_5 1_555 1_555
H36_6 C65_6 1_555 1_555
C61_5 C63_5 1_555 1_555
C8_6 H5_6 1_555 1_555
C12_6 C11_6 1_555 1_555
C66_5 C12_6 1_555 1_555
H35_5 C66_5 1_555 1_555

#END
