
###############################################################################
#
# This file contains modified crystal structure data generated from the
# MOF subset of the Cambridge Structural Database (CSD) v543 
# hosted by the Cambridge Crystallographic Data Centre (CCDC).
#
# This work is licensed under the Creative Commons
# Attribution-NonCommercial-ShareAlike 4.0 International License.
# To view a copy of this license, visit
# http://creativecommons.org/licenses/by-nc-sa/4.0/
# or send a letter to
# Creative Commons, PO Box 1866, Mountain View, CA 94042, USA.
#
# CIF created using the CSD Python API on 29 September 2022
# The structure has been converted into the P1 space group
# The structure has a 3D framework
# The original CSD entry RAYMIP is in the hexagonal crystal system
# The framework has been calculated to contain at least 10.0% void space
# The void calculation uses a probe of radius 1.32A, grid spacing 0.4
# H atom positions have been added when not included in the experimental data
# Generated hydrogen atom positions removed from atoms on special positions
#
###############################################################################

data_RAYMIP
_chemical_formula_moiety         '(C168 H150 In6 O32)n'
_symmetry_cell_setting           triclinic
_symmetry_space_group_name_H-M   'P 1'
_symmetry_Int_Tables_number      1
_space_group_name_Hall           'P 1'
loop_
_symmetry_equiv_pos_site_id
_symmetry_equiv_pos_as_xyz
1 x,y,z
_cell_length_a                   19.4356(9)
_cell_length_b                   19.4356(9)
_cell_length_c                   27.893(3)
_cell_angle_alpha                90
_cell_angle_beta                 90
_cell_angle_gamma                120
_cell_volume                     9124.77
loop_
_atom_site_label
_atom_site_type_symbol
_atom_site_fract_x
_atom_site_fract_y
_atom_site_fract_z
C13 C 0.07034(10) -0.0000 0.5000
H7 H 0.1182 -0.0000 0.5000
C15 C 0.50730(9) 0.29097(12) 0.68060(5)
C16 C 0.29097(12) 0.50730(9) 0.31940(5)
C20 C 0.44941(8) 0.27644(12) 0.64187(5)
C21 C 0.27644(12) 0.44941(8) 0.35813(5)
C25 C 0.40325(10) 0.20115(14) 0.62256(6)
C26 C 0.20115(14) 0.40325(10) 0.37744(6)
H9 H 0.4097 0.1597 0.6337
H10 H 0.1597 0.4097 0.3663
C30 C 0.34858(11) 0.18663(16) 0.58751(6)
C31 C 0.18663(16) 0.34858(11) 0.41249(6)
H14 H 0.3184 0.1356 0.5752
H15 H 0.1356 0.3184 0.4248
C35 C 0.33773(9) 0.24649(13) 0.57022(6)
C36 C 0.24649(13) 0.33773(9) 0.42978(6)
C40 C 0.38299(11) 0.32210(16) 0.58959(7)
C41 C 0.32210(16) 0.38299(11) 0.41041(7)
H19 H 0.3747 0.3629 0.5794
H20 H 0.3629 0.3747 0.4206
C45 C 0.44045(10) 0.33716(14) 0.62406(6)
C46 C 0.33716(14) 0.44045(10) 0.37594(6)
H24 H 0.4730 0.3887 0.6351
H25 H 0.3887 0.4730 0.3649
C49 C 0.28993(10) 0.28993(10) 0.5000
H28 H 0.3378 0.3378 0.5000
C52 C 0.27691(8) 0.23166(12) 0.53377(5)
C53 C 0.23166(12) 0.27691(8) 0.46623(5)
C57 C 0.20630(8) 0.16075(12) 0.53314(5)
C58 C 0.16075(12) 0.20630(8) 0.46686(5)
H30 H 0.1214 0.1980 0.4448
H31 H 0.1980 0.1214 0.5552
C61 C 0.14697(9) 0.14697(9) 0.5000
C63 C 0.07067(11) 0.07067(11) 0.5000
C65 C -0.0000 0.07034(10) 0.5000
H36 H -0.0000 0.1182 0.5000
In6 In 0.581182(7) 0.217171(10) 0.7500
In7 In 0.635989(7) 0.418818(7) 0.7500
In8 In 0.217171(10) 0.581182(7) 0.2500
In9 In 0.418818(7) 0.635989(7) 0.2500
O6 O 0.51177(6) 0.23286(9) 0.69530(4)
O7 O 0.23286(9) 0.51177(6) 0.30470(4)
O16 O 0.54646(7) 0.36067(9) 0.69541(4)
O17 O 0.36067(9) 0.54646(7) 0.30459(4)
C8 C -0.0000 0.71007(10) 0.5000
H5 H -0.0000 0.6622 0.5000
C11 C -0.0000 0.85303(9) 0.5000
C12 C -0.0000 0.92933(11) 0.5000
C13_2 C 0.07034(10) 1.0000 0.5000
H7_2 H 0.1182 1.0000 0.5000
C14 C 0.21633(8) 0.70903(12) 0.31940(5)
C19 C 0.17297(9) 0.72356(12) 0.35813(5)
C24 C 0.20210(10) 0.79885(14) 0.37744(6)
H8 H 0.2500 0.8403 0.3663
C29 C 0.16195(11) 0.81337(16) 0.41249(6)
H13 H 0.1828 0.8644 0.4248
C34 C 0.09124(9) 0.75351(13) 0.42978(6)
C39 C 0.06089(11) 0.67790(16) 0.41041(7)
H18 H 0.0118 0.6371 0.4206
C44 C 0.10329(10) 0.66284(14) 0.37594(6)
H23 H 0.0843 0.6113 0.3649
C51 C 0.04525(9) 0.76834(12) 0.46623(5)
C56 C 0.04555(9) 0.83925(12) 0.46686(5)
H34 H 0.0766 0.8786 0.4448
In3 In 0.364011(7) 0.782829(10) 0.2500
O5 O 0.27891(7) 0.76714(9) 0.30470(4)
O15 O 0.18579(6) 0.63933(9) 0.30459(4)
C17 C 0.70903(12) 0.21633(8) 0.68060(5)
C22 C 0.72356(12) 0.17297(9) 0.64187(5)
C27 C 0.79885(14) 0.20210(10) 0.62256(6)
H11 H 0.8403 0.2500 0.6337
C32 C 0.81337(16) 0.16195(11) 0.58751(6)
H16 H 0.8644 0.1828 0.5752
C37 C 0.75351(13) 0.09124(9) 0.57022(6)
C42 C 0.67790(16) 0.06089(11) 0.58959(7)
H21 H 0.6371 0.0118 0.5794
C47 C 0.66284(14) 0.10329(10) 0.62406(6)
H26 H 0.6113 0.0843 0.6351
C50 C 0.71007(10) -0.0000 0.5000
H29 H 0.6622 -0.0000 0.5000
C54 C 0.76834(12) 0.04525(9) 0.53377(5)
C59 C 0.83925(12) 0.04555(9) 0.53314(5)
H33 H 0.8786 0.0766 0.5552
C62 C 0.85303(9) -0.0000 0.5000
C64 C 0.92933(11) -0.0000 0.5000
C65_2 C 1.0000 0.07034(10) 0.5000
H36_2 H 1.0000 0.1182 0.5000
In10 In 0.782829(10) 0.364011(7) 0.7500
O8 O 0.76714(9) 0.27891(7) 0.69530(4)
O18 O 0.63933(9) 0.18579(6) 0.69541(4)
C1 C 0.78367(8) 0.49270(9) 0.68060(5)
C2 C 0.82703(9) 0.55059(8) 0.64187(5)
C3 C 0.79790(10) 0.59675(10) 0.62256(6)
H1 H 0.7500 0.5903 0.6337
C4 C 0.83805(11) 0.65142(11) 0.58751(6)
H2 H 0.8172 0.6816 0.5752
C5 C 0.90876(9) 0.66227(9) 0.57022(6)
C6 C 0.93911(11) 0.61701(11) 0.58959(7)
H3 H 0.9882 0.6253 0.5794
C7 C 0.89671(10) 0.55955(10) 0.62406(6)
H4 H 0.9157 0.5270 0.6351
C8_2 C 1.0000 0.71007(10) 0.5000
H5_2 H 1.0000 0.6622 0.5000
C9 C 0.95475(9) 0.72309(8) 0.53377(5)
C10 C 0.95445(9) 0.79370(8) 0.53314(5)
H6 H 0.9234 0.8020 0.5552
C11_2 C 1.0000 0.85303(9) 0.5000
C12_2 C 1.0000 0.92933(11) 0.5000
O1 O 0.72109(7) 0.48823(6) 0.69530(4)
O2 O 0.81421(6) 0.45354(7) 0.69541(4)
O3 O 0.60153(9) 0.51049(9) 0.7500
O4 O 0.6667 0.3333 0.7500
C18 C 0.49270(9) 0.78367(8) 0.31940(5)
C23 C 0.55059(8) 0.82703(9) 0.35813(5)
C28 C 0.59675(10) 0.79790(10) 0.37744(6)
H12 H 0.5903 0.7500 0.3663
C33 C 0.65142(11) 0.83805(11) 0.41249(6)
H17 H 0.6816 0.8172 0.4248
C38 C 0.66227(9) 0.90876(9) 0.42978(6)
C43 C 0.61701(11) 0.93911(11) 0.41041(7)
H22 H 0.6253 0.9882 0.4206
C48 C 0.55955(10) 0.89671(10) 0.37594(6)
H27 H 0.5270 0.9157 0.3649
C50_2 C 0.71007(10) 1.0000 0.5000
H29_2 H 0.6622 1.0000 0.5000
C55 C 0.72309(8) 0.95475(9) 0.46623(5)
C60 C 0.79370(8) 0.95445(9) 0.46686(5)
H32 H 0.8020 0.9234 0.4448
C62_2 C 0.85303(9) 1.0000 0.5000
C64_2 C 0.92933(11) 1.0000 0.5000
C66 C 0.92966(10) 0.92966(10) 0.5000
H35 H 0.8818 0.8818 0.5000
O9 O 0.48823(6) 0.72109(7) 0.30470(4)
O10 O 0.72109(7) 0.48823(6) 0.80470(4)
O11 O 0.51177(6) 0.23286(9) 0.80470(4)
O13 O 0.76714(9) 0.27891(7) 0.80470(4)
O19 O 0.45354(7) 0.81421(6) 0.30459(4)
O21 O 0.54646(7) 0.36067(9) 0.80459(4)
O22 O 0.63933(9) 0.18579(6) 0.80459(4)
O24 O 0.81421(6) 0.45354(7) 0.80459(4)
O25 O 0.48951(9) 0.09104(13) 0.7500
O26 O 0.90896(13) 0.39847(9) 0.7500
C18_2 C 0.29097(12) 0.50730(9) 0.18060(5)
C23_2 C 0.27644(12) 0.44941(8) 0.14187(5)
C28_2 C 0.20115(14) 0.40325(10) 0.12256(6)
H12_2 H 0.1597 0.4097 0.1337
C33_2 C 0.18663(16) 0.34858(11) 0.08751(6)
H17_2 H 0.1356 0.3184 0.0752
C38_2 C 0.24649(13) 0.33773(9) 0.07022(6)
C43_2 C 0.32210(16) 0.38299(11) 0.08959(7)
H22_2 H 0.3629 0.3747 0.0794
C48_2 C 0.33716(14) 0.44045(10) 0.12406(6)
H27_2 H 0.3887 0.4730 0.1351
C50_3 C 0.28993(10) 0.28993(10) 0.0000
H29_3 H 0.3378 0.3378 0.0000
C55_2 C 0.23166(12) 0.27691(8) 0.03377(5)
C60_2 C 0.16075(12) 0.20630(8) 0.03314(5)
H32_2 H 0.1214 0.1980 0.0552
C62_3 C 0.14697(9) 0.14697(9) 0.0000
C64_3 C 0.07067(11) 0.07067(11) 0.0000
C65_3 C 0.07034(10) 0.0000 0.0000
C66_2 C 0.00000(14) 0.07034(10) 0.0000
H35_2 H 0.0000 0.1182 0.0000
H36_3 H 0.1182 0.0000 0.0000
O9_2 O 0.23286(9) 0.51177(6) 0.19530(4)
O19_2 O 0.36067(9) 0.54646(7) 0.19541(4)
C17_2 C 0.50730(14) 0.29097(12) 0.81940(5)
C22_2 C 0.44941(15) 0.27644(12) 0.85813(5)
C27_2 C 0.40325(17) 0.20115(14) 0.87744(6)
H11_2 H 0.4097 0.1597 0.8663
C32_2 C 0.34858(19) 0.18663(16) 0.91249(6)
H16_2 H 0.3184 0.1356 0.9248
C37_2 C 0.33773(16) 0.24649(13) 0.92978(6)
C42_2 C 0.38299(19) 0.32210(16) 0.91041(7)
H21_2 H 0.3747 0.3629 0.9206
C47_2 C 0.44045(17) 0.33716(14) 0.87594(6)
H26_2 H 0.4730 0.3887 0.8649
C50_4 C 0.28993(10) 0.28993(10) 1.0000
H29_4 H 0.3378 0.3378 1.0000
C54_2 C 0.27691(15) 0.23166(12) 0.96623(5)
C59_2 C 0.20630(15) 0.16075(12) 0.96686(5)
H33_2 H 0.1980 0.1214 0.9448
C62_4 C 0.14697(9) 0.14697(9) 1.0000
C64_4 C 0.07067(11) 0.07067(11) 1.0000
C65_4 C 0.07034(10) 0.0000 1.0000
C66_3 C -0.00000(14) 0.07034(10) 1.0000
H35_3 H 0.0000 0.1182 1.0000
H36_4 H 0.1182 0.0000 1.0000
C16_2 C 0.21633(15) 0.70903(12) 0.18060(5)
C21_2 C 0.17297(14) 0.72356(12) 0.14187(5)
C26_2 C 0.20210(17) 0.79885(14) 0.12256(6)
H10_2 H 0.2500 0.8403 0.1337
C31_2 C 0.16195(19) 0.81337(16) 0.08751(6)
H15_2 H 0.1828 0.8644 0.0752
C36_2 C 0.09124(16) 0.75351(13) 0.07022(6)
C41_2 C 0.06089(19) 0.67790(16) 0.08959(7)
H20_2 H 0.0118 0.6371 0.0794
C46_2 C 0.10329(17) 0.66284(14) 0.12406(6)
H25_2 H 0.0843 0.6113 0.1351
C49_2 C -0.00000(14) 0.71007(10) 0.0000
H28_2 H 0.0000 0.6622 0.0000
C53_2 C 0.04525(14) 0.76834(12) 0.03377(5)
C58_2 C 0.04555(14) 0.83925(12) 0.03314(5)
H30_2 H 0.0766 0.8786 0.0552
C61_2 C -0.00000(13) 0.85303(9) 0.0000
C63_2 C -0.00000(16) 0.92933(11) 0.0000
C65_5 C 0.07034(10) 1.0000 0.0000
H36_5 H 0.1182 1.0000 0.0000
O7_2 O 0.27891(11) 0.76714(9) 0.19530(4)
O17_2 O 0.18579(11) 0.63933(9) 0.19541(4)
C1_2 C 0.70903(12) 0.21633(8) 0.81940(5)
C2_2 C 0.72356(12) 0.17297(9) 0.85813(5)
C3_2 C 0.79885(14) 0.20210(10) 0.87744(6)
H1_2 H 0.8403 0.2500 0.8663
C4_2 C 0.81337(16) 0.16195(11) 0.91249(6)
H2_2 H 0.8644 0.1828 0.9248
C5_2 C 0.75351(13) 0.09124(9) 0.92978(6)
C6_2 C 0.67790(16) 0.06089(11) 0.91041(7)
H3_2 H 0.6371 0.0118 0.9206
C7_2 C 0.66284(14) 0.10329(10) 0.87594(6)
H4_2 H 0.6113 0.0843 0.8649
C8_3 C 0.71007(10) 0.0000 1.0000
H5_3 H 0.6622 0.0000 1.0000
C9_2 C 0.76834(12) 0.04525(9) 0.96623(5)
C10_2 C 0.83925(12) 0.04555(9) 0.96686(5)
H6_2 H 0.8786 0.0766 0.9448
C11_3 C 0.85303(9) 0.0000 1.0000
C12_3 C 0.92933(11) 0.0000 1.0000
C66_4 C 1.00000(14) 0.07034(10) 1.0000
H35_4 H 1.0000 0.1182 1.0000
C8_4 C 0.71007(10) 1.0000 0.0000
H5_4 H 0.6622 1.0000 0.0000
C11_4 C 0.85303(9) 1.0000 0.0000
C12_4 C 0.92933(11) 1.0000 0.0000
C13_3 C 0.92966(10) 0.92966(10) 0.0000
H7_3 H 0.8818 0.8818 0.0000
C14_2 C 0.49270(14) 0.78367(8) 0.18060(5)
C19_2 C 0.55059(15) 0.82703(9) 0.14187(5)
C24_2 C 0.59675(17) 0.79790(10) 0.12256(6)
H8_2 H 0.5903 0.7500 0.1337
C29_2 C 0.65142(19) 0.83805(11) 0.08751(6)
H13_2 H 0.6816 0.8172 0.0752
C34_2 C 0.66227(16) 0.90876(9) 0.07022(6)
C39_2 C 0.61701(19) 0.93911(11) 0.08959(7)
H18_2 H 0.6253 0.9882 0.0794
C44_2 C 0.55955(17) 0.89671(10) 0.12406(6)
H23_2 H 0.5270 0.9157 0.1351
C49_3 C 1.00000(14) 0.71007(10) 0.0000
H28_3 H 1.0000 0.6622 0.0000
C51_2 C 0.72309(15) 0.95475(9) 0.03377(5)
C56_2 C 0.79370(15) 0.95445(9) 0.03314(5)
H34_2 H 0.8020 0.9234 0.0552
C61_3 C 1.00000(13) 0.85303(9) 0.0000
C63_3 C 1.00000(16) 0.92933(11) 0.0000
O5_2 O 0.48823(11) 0.72109(7) 0.19530(4)
O15_2 O 0.45354(11) 0.81421(6) 0.19541(4)
C8_5 C 0.71007(10) 1.0000 1.0000
H5_5 H 0.6622 1.0000 1.0000
C11_5 C 0.85303(9) 1.0000 1.0000
C12_5 C 0.92933(11) 1.0000 1.0000
C13_4 C 0.92966(10) 0.92966(10) 1.0000
H7_4 H 0.8818 0.8818 1.0000
C15_2 C 0.78367(15) 0.49270(9) 0.81940(5)
C20_2 C 0.82703(14) 0.55059(8) 0.85813(5)
C25_2 C 0.79790(17) 0.59675(10) 0.87744(6)
H9_2 H 0.7500 0.5903 0.8663
C30_2 C 0.83805(19) 0.65142(11) 0.91249(6)
H14_2 H 0.8172 0.6816 0.9248
C35_2 C 0.90876(16) 0.66227(9) 0.92978(6)
C40_2 C 0.93911(19) 0.61701(11) 0.91041(7)
H19_2 H 0.9882 0.6253 0.9206
C45_2 C 0.89671(17) 0.55955(10) 0.87594(6)
H24_2 H 0.9157 0.5270 0.8649
C49_4 C 1.00000(14) 0.71007(10) 1.0000
H28_4 H 1.0000 0.6622 1.0000
C52_2 C 0.95475(14) 0.72309(8) 0.96623(5)
C57_2 C 0.95445(14) 0.79370(8) 0.96686(5)
H31_2 H 0.9234 0.8020 0.9448
C61_4 C 1.00000(13) 0.85303(9) 1.0000
C63_4 C 1.00000(16) 0.92933(11) 1.0000
O3_2 O 0.51049(9) 0.60153(9) 0.2500
O4_2 O 0.3333 0.6667 0.2500
O25_2 O 0.09104(13) 0.48951(9) 0.2500
O26_2 O 0.39847(9) 0.90896(13) 0.2500
C49_5 C -0.00000(14) 0.71007(10) 1.0000
H28_5 H 0.0000 0.6622 1.0000
C61_5 C -0.00000(13) 0.85303(9) 1.0000
C63_5 C -0.00000(16) 0.92933(11) 1.0000
C65_6 C 0.07034(10) 1.0000 1.0000
H36_6 H 0.1182 1.0000 1.0000
C8_6 C 0.71007(10) 0.0000 0.0000
H5_6 H 0.6622 0.0000 0.0000
C11_6 C 0.85303(9) 0.0000 0.0000
C12_6 C 0.92933(11) 0.0000 0.0000
C66_5 C 1.00000(14) 0.07034(10) 0.0000
H35_5 H 1.0000 0.1182 0.0000
loop_
_geom_bond_atom_site_label_1
_geom_bond_atom_site_label_2
_geom_bond_site_symmetry_1
_geom_bond_site_symmetry_2
H7 C13 1_555 1_555
C15 C20 1_555 1_555
C16 C21 1_555 1_555
C20 C25 1_555 1_555
C21 C26 1_555 1_555
C25 H9 1_555 1_555
C26 H10 1_555 1_555
C30 C25 1_555 1_555
C31 C26 1_555 1_555
H14 C30 1_555 1_555
H15 C31 1_555 1_555
C35 C30 1_555 1_555
C36 C31 1_555 1_555
C40 C35 1_555 1_555
C41 C36 1_555 1_555
H19 C40 1_555 1_555
H20 C41 1_555 1_555
C45 C20 1_555 1_555
C46 C21 1_555 1_555
H24 C45 1_555 1_555
H25 C46 1_555 1_555
C49 H28 1_555 1_555
C52 C35 1_555 1_555
C53 C36 1_555 1_555
C57 C52 1_555 1_555
C58 C53 1_555 1_555
H30 C58 1_555 1_555
H31 C57 1_555 1_555
C61 C57 1_555 1_555
C63 C13 1_555 1_555
C65 C63 1_555 1_555
H36 C65 1_555 1_555
In6 O6 1_555 1_555
In7 O16 1_555 1_555
In8 O7 1_555 1_555
In9 O17 1_555 1_555
O6 C15 1_555 1_555
O7 C16 1_555 1_555
O16 C15 1_555 1_555
O17 C16 1_555 1_555
C40 C45 1_555 1_555
C41 C46 1_555 1_555
C49 C52 1_555 1_555
C49 C53 1_555 1_555
C58 C61 1_555 1_555
C61 C63 1_555 1_555
C8 H5 1_555 1_555
C12 C11 1_555 1_555
C13_2 C12 1_555 1_555
H7_2 C13_2 1_555 1_555
C14 C19 1_555 1_555
C19 C24 1_555 1_555
C24 H8 1_555 1_555
C29 C24 1_555 1_555
H13 C29 1_555 1_555
C34 C29 1_555 1_555
C39 C34 1_555 1_555
H18 C39 1_555 1_555
C44 C19 1_555 1_555
H23 C44 1_555 1_555
C51 C8 1_555 1_555
C56 C11 1_555 1_555
H34 C56 1_555 1_555
In3 O5 1_555 1_555
In8 O15 1_555 1_555
O5 C14 1_555 1_555
O15 C14 1_555 1_555
C34 C51 1_555 1_555
C39 C44 1_555 1_555
C51 C56 1_555 1_555
C17 C22 1_555 1_555
C22 C27 1_555 1_555
C27 H11 1_555 1_555
C32 C27 1_555 1_555
H16 C32 1_555 1_555
C37 C32 1_555 1_555
C42 C37 1_555 1_555
H21 C42 1_555 1_555
C47 C22 1_555 1_555
H26 C47 1_555 1_555
C50 H29 1_555 1_555
C54 C37 1_555 1_555
C59 C54 1_555 1_555
H33 C59 1_555 1_555
C62 C59 1_555 1_555
C64 C62 1_555 1_555
H36_2 C65_2 1_555 1_555
In10 O8 1_555 1_555
In6 O18 1_555 1_555
O8 C17 1_555 1_555
O18 C17 1_555 1_555
C42 C47 1_555 1_555
C50 C54 1_555 1_555
C64 C65_2 1_555 1_555
C1 C2 1_555 1_555
C2 C3 1_555 1_555
C3 H1 1_555 1_555
C4 C3 1_555 1_555
H2 C4 1_555 1_555
C5 C4 1_555 1_555
C6 C5 1_555 1_555
H3 C6 1_555 1_555
C7 C2 1_555 1_555
H4 C7 1_555 1_555
C8_2 H5_2 1_555 1_555
C9 C5 1_555 1_555
C10 C9 1_555 1_555
H6 C10 1_555 1_555
C11_2 C10 1_555 1_555
C12_2 C11_2 1_555 1_555
In7 O1 1_555 1_555
O1 C1 1_555 1_555
O2 C1 1_555 1_555
O3 In7 1_555 1_555
O4 In7 1_555 1_555
C18 C23 1_555 1_555
C23 C28 1_555 1_555
C28 H12 1_555 1_555
C33 C28 1_555 1_555
H17 C33 1_555 1_555
C38 C33 1_555 1_555
C43 C38 1_555 1_555
H22 C43 1_555 1_555
C48 C23 1_555 1_555
H27 C48 1_555 1_555
C50_2 H29_2 1_555 1_555
C55 C38 1_555 1_555
C60 C55 1_555 1_555
H32 C60 1_555 1_555
C64_2 C62_2 1_555 1_555
C66 C12_2 1_555 1_555
H35 C66 1_555 1_555
In6 O4 1_555 1_555
In10 O2 1_555 1_555
In9 O9 1_555 1_555
In3 O19 1_555 1_555
O9 C18 1_555 1_555
O10 In7 1_555 1_555
O11 In6 1_555 1_555
O13 In10 1_555 1_555
O19 C18 1_555 1_555
O21 In7 1_555 1_555
O22 In6 1_555 1_555
O24 In10 1_555 1_555
O25 In6 1_555 1_555
O26 In10 1_555 1_555
C6 C7 1_555 1_555
C8_2 C9 1_555 1_555
O4 In10 1_555 1_555
C43 C48 1_555 1_555
C50_2 C55 1_555 1_555
C60 C62_2 1_555 1_555
C64_2 C66 1_555 1_555
C18_2 C23_2 1_555 1_555
C23_2 C28_2 1_555 1_555
C28_2 H12_2 1_555 1_555
C33_2 C28_2 1_555 1_555
H17_2 C33_2 1_555 1_555
C38_2 C33_2 1_555 1_555
C43_2 C38_2 1_555 1_555
H22_2 C43_2 1_555 1_555
C48_2 C23_2 1_555 1_555
H27_2 C48_2 1_555 1_555
C50_3 H29_3 1_555 1_555
C55_2 C38_2 1_555 1_555
C60_2 C55_2 1_555 1_555
H32_2 C60_2 1_555 1_555
C64_3 C62_3 1_555 1_555
H35_2 C66_2 1_555 1_555
H36_3 C65_3 1_555 1_555
In8 O9_2 1_555 1_555
In9 O19_2 1_555 1_555
O9_2 C18_2 1_555 1_555
O19_2 C18_2 1_555 1_555
C43_2 C48_2 1_555 1_555
C50_3 C55_2 1_555 1_555
C60_2 C62_3 1_555 1_555
C64_3 C65_3 1_555 1_555
C64_3 C66_2 1_555 1_555
C17_2 C22_2 1_555 1_555
C22_2 C27_2 1_555 1_555
C27_2 H11_2 1_555 1_555
C32_2 C27_2 1_555 1_555
H16_2 C32_2 1_555 1_555
C37_2 C32_2 1_555 1_555
C42_2 C37_2 1_555 1_555
H21_2 C42_2 1_555 1_555
C47_2 C22_2 1_555 1_555
H26_2 C47_2 1_555 1_555
C50_4 H29_4 1_555 1_555
C54_2 C37_2 1_555 1_555
C59_2 C54_2 1_555 1_555
H33_2 C59_2 1_555 1_555
C62_4 C59_2 1_555 1_555
C64_4 C62_4 1_555 1_555
H35_3 C66_3 1_555 1_555
H36_4 C65_4 1_555 1_555
O11 C17_2 1_555 1_555
O21 C17_2 1_555 1_555
C42_2 C47_2 1_555 1_555
C50_4 C54_2 1_555 1_555
C64_4 C65_4 1_555 1_555
C64_4 C66_3 1_555 1_555
C16_2 C21_2 1_555 1_555
C21_2 C26_2 1_555 1_555
C26_2 H10_2 1_555 1_555
C31_2 C26_2 1_555 1_555
H15_2 C31_2 1_555 1_555
C36_2 C31_2 1_555 1_555
C41_2 C36_2 1_555 1_555
H20_2 C41_2 1_555 1_555
C46_2 C21_2 1_555 1_555
H25_2 C46_2 1_555 1_555
C49_2 H28_2 1_555 1_555
C53_2 C36_2 1_555 1_555
C58_2 C53_2 1_555 1_555
H30_2 C58_2 1_555 1_555
C65_5 C63_2 1_555 1_555
H36_5 C65_5 1_555 1_555
In3 O7_2 1_555 1_555
In8 O17_2 1_555 1_555
O7_2 C16_2 1_555 1_555
O17_2 C16_2 1_555 1_555
C41_2 C46_2 1_555 1_555
C49_2 C53_2 1_555 1_555
C58_2 C61_2 1_555 1_555
C61_2 C63_2 1_555 1_555
C1_2 C2_2 1_555 1_555
C2_2 C3_2 1_555 1_555
C3_2 H1_2 1_555 1_555
C4_2 C3_2 1_555 1_555
H2_2 C4_2 1_555 1_555
C5_2 C4_2 1_555 1_555
C6_2 C5_2 1_555 1_555
H3_2 C6_2 1_555 1_555
C7_2 C2_2 1_555 1_555
H4_2 C7_2 1_555 1_555
C8_3 H5_3 1_555 1_555
C9_2 C5_2 1_555 1_555
C10_2 C9_2 1_555 1_555
H6_2 C10_2 1_555 1_555
C11_3 C10_2 1_555 1_555
C12_3 C11_3 1_555 1_555
O13 C1_2 1_555 1_555
O22 C1_2 1_555 1_555
C66_4 C12_3 1_555 1_555
H35_4 C66_4 1_555 1_555
C6_2 C7_2 1_555 1_555
C8_3 C9_2 1_555 1_555
C8_4 H5_4 1_555 1_555
C12_4 C11_4 1_555 1_555
C13_3 C12_4 1_555 1_555
H7_3 C13_3 1_555 1_555
C14_2 C19_2 1_555 1_555
C19_2 C24_2 1_555 1_555
C24_2 H8_2 1_555 1_555
C29_2 C24_2 1_555 1_555
H13_2 C29_2 1_555 1_555
C34_2 C29_2 1_555 1_555
C39_2 C34_2 1_555 1_555
H18_2 C39_2 1_555 1_555
C44_2 C19_2 1_555 1_555
H23_2 C44_2 1_555 1_555
C49_3 H28_3 1_555 1_555
C51_2 C8_4 1_555 1_555
C56_2 C11_4 1_555 1_555
H34_2 C56_2 1_555 1_555
C63_3 C13_3 1_555 1_555
In9 O5_2 1_555 1_555
In3 O15_2 1_555 1_555
O5_2 C14_2 1_555 1_555
O15_2 C14_2 1_555 1_555
C34_2 C51_2 1_555 1_555
C39_2 C44_2 1_555 1_555
C51_2 C56_2 1_555 1_555
C61_3 C63_3 1_555 1_555
C8_5 H5_5 1_555 1_555
C12_5 C11_5 1_555 1_555
C13_4 C12_5 1_555 1_555
H7_4 C13_4 1_555 1_555
C15_2 C20_2 1_555 1_555
C20_2 C25_2 1_555 1_555
C25_2 H9_2 1_555 1_555
C30_2 C25_2 1_555 1_555
H14_2 C30_2 1_555 1_555
C35_2 C30_2 1_555 1_555
C40_2 C35_2 1_555 1_555
H19_2 C40_2 1_555 1_555
C45_2 C20_2 1_555 1_555
H24_2 C45_2 1_555 1_555
C49_4 H28_4 1_555 1_555
C52_2 C35_2 1_555 1_555
C57_2 C52_2 1_555 1_555
H31_2 C57_2 1_555 1_555
C61_4 C57_2 1_555 1_555
C63_4 C13_4 1_555 1_555
O10 C15_2 1_555 1_555
O24 C15_2 1_555 1_555
C40_2 C45_2 1_555 1_555
C49_4 C52_2 1_555 1_555
C61_4 C63_4 1_555 1_555
O3_2 In9 1_555 1_555
O4_2 In9 1_555 1_555
In8 O4_2 1_555 1_555
O25_2 In8 1_555 1_555
O26_2 In3 1_555 1_555
O4_2 In3 1_555 1_555
C49_5 H28_5 1_555 1_555
C65_6 C63_5 1_555 1_555
H36_6 C65_6 1_555 1_555
C61_5 C63_5 1_555 1_555
C8_6 H5_6 1_555 1_555
C12_6 C11_6 1_555 1_555
C66_5 C12_6 1_555 1_555
H35_5 C66_5 1_555 1_555

#END
