
###############################################################################
#
# This file contains modified crystal structure data generated from the
# MOF subset of the Cambridge Structural Database (CSD) v543 
# hosted by the Cambridge Crystallographic Data Centre (CCDC).
#
# This work is licensed under the Creative Commons
# Attribution-NonCommercial-ShareAlike 4.0 International License.
# To view a copy of this license, visit
# http://creativecommons.org/licenses/by-nc-sa/4.0/
# or send a letter to
# Creative Commons, PO Box 1866, Mountain View, CA 94042, USA.
#
# CIF created using the CSD Python API on 29 September 2022
# The structure has been converted into the P1 space group
# The structure has a 3D framework
# The original CSD entry RAYYOI is in the orthorhombic crystal system
# The framework has been calculated to contain at least 10.0% void space
# The void calculation uses a probe of radius 1.32A, grid spacing 0.4
#
###############################################################################

data_RAYYOI
_chemical_formula_moiety         '(C128 H60 Al3 Co4 N14 O20)n'
_symmetry_cell_setting           triclinic
_symmetry_space_group_name_H-M   'P 1'
_symmetry_Int_Tables_number      1
_space_group_name_Hall           'P 1'
loop_
_symmetry_equiv_pos_site_id
_symmetry_equiv_pos_as_xyz
1 x,y,z
_cell_length_a                   6.61358(13)
_cell_length_b                   31.881(2)
_cell_length_c                   16.8079(12)
_cell_angle_alpha                90
_cell_angle_beta                 90
_cell_angle_gamma                90
_cell_volume                     3543.9
loop_
_atom_site_label
_atom_site_type_symbol
_atom_site_fract_x
_atom_site_fract_y
_atom_site_fract_z
_atom_site_U_iso_or_equiv
_atom_site_thermal_displace_type
Al3 Al 0.250 0.250 -0.000 0.0079 Uiso
Al9 Al 0.250 0.750 -0.000 0.0079 Uiso
Co1 Co 0.000 0.500 0.500 0.0079 Uiso
N1 N 0.000 0.4383 0.500 0.0079 Uiso
C1 C 0.000 0.4125 0.4357 0.0079 Uiso
C2 C 0.000 0.4256 0.3561 0.0079 Uiso
C3 C 0.000 0.4661 0.333 0.0079 Uiso
N2 N 0.000 0.500 0.3821 0.0079 Uiso
C4 C 0.000 0.4794 0.251 0.0079 Uiso
C5 C 0.000 0.3922 0.2941 0.0079 Uiso
C8 C 0.000 0.3328 0.1745 0.0079 Uiso
C9 C 0.000 0.3009 0.1093 0.0079 Uiso
O1 O 0.16748 0.28929 0.08295 0.0079 Uiso
O2 O 0.500 0.2776 0.000 0.0079 Uiso
C10 C 0.000 0.3703 0.4604 0.0079 Uiso
H1 H 0.000 0.462 0.2064 0.0079 Uiso
H4 H 0.000 0.3464 0.4272 0.0507 Uiso
H5 H 0.500 0.3072 0.000 0.0507 Uiso
N3 N 0.000 0.5617 0.500 0.0079 Uiso
C11 C 0.000 0.5875 0.4357 0.0079 Uiso
C12 C 0.000 0.5744 0.3561 0.0079 Uiso
C13 C 0.000 0.5339 0.333 0.0079 Uiso
C14 C 0.000 0.5206 0.251 0.0079 Uiso
C15 C 0.000 0.6078 0.2941 0.0079 Uiso
C16 C 0.1697 0.6227 0.2638 0.0079 Uiso
C17 C 0.1717 0.6523 0.2049 0.0079 Uiso
C18 C 0.000 0.6672 0.1745 0.0079 Uiso
C19 C 0.000 0.6991 0.1093 0.0079 Uiso
C20 C 0.000 0.6297 0.4604 0.0079 Uiso
H6 H 0.000 0.538 0.2064 0.0079 Uiso
H7 H 0.2885 0.6622 0.1859 0.0507 Uiso
H8 H 0.2877 0.6132 0.2837 0.0507 Uiso
H9 H 0.000 0.6536 0.4272 0.0507 Uiso
C21 C 0.000 0.4125 0.5643 0.0079 Uiso
C22 C 0.000 0.4256 0.6439 0.0079 Uiso
C23 C 0.000 0.4661 0.667 0.0079 Uiso
N4 N 0.000 0.500 0.6179 0.0079 Uiso
C24 C 0.000 0.4794 0.749 0.0079 Uiso
C25 C 0.000 0.3922 0.7059 0.0079 Uiso
C26 C 0.1697 0.3773 0.7362 0.0079 Uiso
C27 C 0.1717 0.3477 0.7951 0.0079 Uiso
C28 C 0.000 0.3328 0.8255 0.0079 Uiso
C29 C 0.000 0.3009 0.8907 0.0079 Uiso
C30 C 0.000 0.3703 0.5396 0.0079 Uiso
H10 H 0.000 0.462 0.7936 0.0079 Uiso
H11 H 0.2885 0.3378 0.8141 0.0507 Uiso
H12 H 0.2877 0.3868 0.7163 0.0507 Uiso
H13 H 0.000 0.3464 0.5728 0.0507 Uiso
C31 C 0.1697 0.3773 0.2638 0.0079 Uiso
C32 C 0.1717 0.3477 0.2049 0.0079 Uiso
H14 H 0.2885 0.3378 0.1859 0.0507 Uiso
H15 H 0.2877 0.3868 0.2837 0.0507 Uiso
O6 O 0.16748 0.71071 0.08295 0.0079 Uiso
O7 O 0.16748 0.28929 0.91705 0.0079 Uiso
C37 C 0.000 0.5875 0.5643 0.0079 Uiso
C38 C 0.000 0.5744 0.6439 0.0079 Uiso
C39 C 0.000 0.5339 0.667 0.0079 Uiso
C40 C 0.000 0.5206 0.749 0.0079 Uiso
C41 C 0.000 0.6078 0.7059 0.0079 Uiso
C44 C 0.000 0.6672 0.8255 0.0079 Uiso
C45 C 0.000 0.6991 0.8907 0.0079 Uiso
O8 O 0.16748 0.71071 0.91705 0.0079 Uiso
C46 C 0.000 0.6297 0.5396 0.0079 Uiso
H20 H 0.000 0.538 0.7936 0.0079 Uiso
H23 H 0.000 0.6536 0.5728 0.0507 Uiso
C47 C 0.1697 0.6227 0.7362 0.0079 Uiso
C48 C 0.1717 0.6523 0.7951 0.0079 Uiso
H24 H 0.2885 0.6622 0.8141 0.0507 Uiso
H25 H 0.2877 0.6132 0.7163 0.0507 Uiso
O10 O 0.000 0.2224 0.000 0.0079 Uiso
H26 H 0.000 0.1928 0.000 0.0507 Uiso
O14 O 0.33252 0.21071 0.08295 0.0079 Uiso
Al3_2 Al 0.250 0.250 1.000 0.0079 Uiso
Al7 Al 0.750 0.250 0.000 0.0079 Uiso
Al9_2 Al 0.250 0.750 1.000 0.0079 Uiso
O18 O 0.000 0.7776 0.000 0.0079 Uiso
O2_2 O 0.500 0.2776 1.000 0.0079 Uiso
H5_2 H 0.500 0.3072 1.000 0.0507 Uiso
O10_2 O 0.000 0.2224 1.000 0.0079 Uiso
H26_2 H 0.000 0.1928 1.000 0.0507 Uiso
O16 O 0.33252 0.21071 0.91705 0.0079 Uiso
Al7_2 Al 0.750 0.250 1.000 0.0079 Uiso
O18_2 O 0.000 0.7776 1.000 0.0079 Uiso
Al4 Al 0.750 0.750 -0.000 0.0079 Uiso
Co1_2 Co 1.000 0.500 0.500 0.0079 Uiso
N1_2 N 1.000 0.4383 0.500 0.0079 Uiso
C1_2 C 1.000 0.4125 0.4357 0.0079 Uiso
C2_2 C 1.000 0.4256 0.3561 0.0079 Uiso
C3_2 C 1.000 0.4661 0.333 0.0079 Uiso
N2_2 N 1.000 0.500 0.3821 0.0079 Uiso
C4_2 C 1.000 0.4794 0.251 0.0079 Uiso
C5_2 C 1.000 0.3922 0.2941 0.0079 Uiso
C6 C 0.8303 0.3773 0.2638 0.0079 Uiso
C7 C 0.8283 0.3477 0.2049 0.0079 Uiso
C8_2 C 1.000 0.3328 0.1745 0.0079 Uiso
C9_2 C 1.000 0.3009 0.1093 0.0079 Uiso
C10_2 C 1.000 0.3703 0.4604 0.0079 Uiso
H1_2 H 1.000 0.462 0.2064 0.0079 Uiso
H2 H 0.7115 0.3378 0.1859 0.0507 Uiso
H3 H 0.7123 0.3868 0.2837 0.0507 Uiso
H4_2 H 1.000 0.3464 0.4272 0.0507 Uiso
N3_2 N 1.000 0.5617 0.500 0.0079 Uiso
C11_2 C 1.000 0.5875 0.4357 0.0079 Uiso
C12_2 C 1.000 0.5744 0.3561 0.0079 Uiso
C13_2 C 1.000 0.5339 0.333 0.0079 Uiso
C14_2 C 1.000 0.5206 0.251 0.0079 Uiso
C15_2 C 1.000 0.6078 0.2941 0.0079 Uiso
C18_2 C 1.000 0.6672 0.1745 0.0079 Uiso
C19_2 C 1.000 0.6991 0.1093 0.0079 Uiso
O3 O 0.83252 0.71071 0.08295 0.0079 Uiso
C20_2 C 1.000 0.6297 0.4604 0.0079 Uiso
H6_2 H 1.000 0.538 0.2064 0.0079 Uiso
H9_2 H 1.000 0.6536 0.4272 0.0507 Uiso
C21_2 C 1.000 0.4125 0.5643 0.0079 Uiso
C22_2 C 1.000 0.4256 0.6439 0.0079 Uiso
C23_2 C 1.000 0.4661 0.667 0.0079 Uiso
N4_2 N 1.000 0.500 0.6179 0.0079 Uiso
C24_2 C 1.000 0.4794 0.749 0.0079 Uiso
C25_2 C 1.000 0.3922 0.7059 0.0079 Uiso
C28_2 C 1.000 0.3328 0.8255 0.0079 Uiso
C29_2 C 1.000 0.3009 0.8907 0.0079 Uiso
O4 O 0.83252 0.28929 0.91705 0.0079 Uiso
C30_2 C 1.000 0.3703 0.5396 0.0079 Uiso
H10_2 H 1.000 0.462 0.7936 0.0079 Uiso
H13_2 H 1.000 0.3464 0.5728 0.0507 Uiso
O5 O 0.83252 0.28929 0.08295 0.0079 Uiso
C33 C 0.8303 0.6227 0.2638 0.0079 Uiso
C34 C 0.8283 0.6523 0.2049 0.0079 Uiso
H16 H 0.7115 0.6622 0.1859 0.0507 Uiso
H17 H 0.7123 0.6132 0.2837 0.0507 Uiso
C35 C 0.8303 0.3773 0.7362 0.0079 Uiso
C36 C 0.8283 0.3477 0.7951 0.0079 Uiso
H18 H 0.7115 0.3378 0.8141 0.0507 Uiso
H19 H 0.7123 0.3868 0.7163 0.0507 Uiso
C37_2 C 1.000 0.5875 0.5643 0.0079 Uiso
C38_2 C 1.000 0.5744 0.6439 0.0079 Uiso
C39_2 C 1.000 0.5339 0.667 0.0079 Uiso
C40_2 C 1.000 0.5206 0.749 0.0079 Uiso
C41_2 C 1.000 0.6078 0.7059 0.0079 Uiso
C42 C 0.8303 0.6227 0.7362 0.0079 Uiso
C43 C 0.8283 0.6523 0.7951 0.0079 Uiso
C44_2 C 1.000 0.6672 0.8255 0.0079 Uiso
C45_2 C 1.000 0.6991 0.8907 0.0079 Uiso
C46_2 C 1.000 0.6297 0.5396 0.0079 Uiso
H20_2 H 1.000 0.538 0.7936 0.0079 Uiso
H21 H 0.7115 0.6622 0.8141 0.0507 Uiso
H22 H 0.7123 0.6132 0.7163 0.0507 Uiso
H23_2 H 1.000 0.6536 0.5728 0.0507 Uiso
O9 O 0.83252 0.71071 0.91705 0.0079 Uiso
O10_3 O 1.000 0.2224 0.000 0.0079 Uiso
H26_3 H 1.000 0.1928 0.000 0.0507 Uiso
O13 O 0.66748 0.78929 0.08295 0.0079 Uiso
Al4_2 Al 0.750 0.750 1.000 0.0079 Uiso
O17 O 0.500 0.7224 0.000 0.0079 Uiso
O18_3 O 1.000 0.7776 0.000 0.0079 Uiso
O10_4 O 1.000 0.2224 1.000 0.0079 Uiso
H26_4 H 1.000 0.1928 1.000 0.0507 Uiso
O15 O 0.66748 0.78929 0.91705 0.0079 Uiso
O17_2 O 0.500 0.7224 1.000 0.0079 Uiso
O18_4 O 1.000 0.7776 1.000 0.0079 Uiso
H26_5 H 0.000 0.8072 0.000 0.0507 Uiso
H26_6 H 0.000 0.8072 1.000 0.0507 Uiso
H5_3 H 0.500 0.6928 0.000 0.0507 Uiso
H26_7 H 1.000 0.8072 0.000 0.0507 Uiso
H5_4 H 0.500 0.6928 1.000 0.0507 Uiso
H26_8 H 1.000 0.8072 1.000 0.0507 Uiso
O15_2 O 0.33252 0.78929 0.08295 0.0079 Uiso
O13_2 O 0.33252 0.78929 0.91705 0.0079 Uiso
O16_2 O 0.66748 0.21071 0.08295 0.0079 Uiso
O14_2 O 0.66748 0.21071 0.91705 0.0079 Uiso
Co1_3 Co 0.500 -0.000 0.500 0.0079 Uiso
N2_3 N 0.500 -0.000 0.3821 0.0079 Uiso
N3_3 N 0.500 0.0617 0.500 0.0079 Uiso
C11_3 C 0.500 0.0875 0.4357 0.0079 Uiso
C12_3 C 0.500 0.0744 0.3561 0.0079 Uiso
C13_3 C 0.500 0.0339 0.333 0.0079 Uiso
C14_3 C 0.500 0.0206 0.251 0.0079 Uiso
C15_3 C 0.500 0.1078 0.2941 0.0079 Uiso
C16_2 C 0.6697 0.1227 0.2638 0.0079 Uiso
C17_2 C 0.6717 0.1523 0.2049 0.0079 Uiso
C18_3 C 0.500 0.1672 0.1745 0.0079 Uiso
C19_3 C 0.500 0.1991 0.1093 0.0079 Uiso
C20_3 C 0.500 0.1297 0.4604 0.0079 Uiso
H6_3 H 0.500 0.038 0.2064 0.0079 Uiso
H7_2 H 0.7885 0.1622 0.1859 0.0507 Uiso
H8_2 H 0.7877 0.1132 0.2837 0.0507 Uiso
H9_3 H 0.500 0.1536 0.4272 0.0507 Uiso
N4_3 N 0.500 -0.000 0.6179 0.0079 Uiso
C33_2 C 0.3303 0.1227 0.2638 0.0079 Uiso
C34_2 C 0.3283 0.1523 0.2049 0.0079 Uiso
H16_2 H 0.2115 0.1622 0.1859 0.0507 Uiso
H17_2 H 0.2123 0.1132 0.2837 0.0507 Uiso
C37_3 C 0.500 0.0875 0.5643 0.0079 Uiso
C38_3 C 0.500 0.0744 0.6439 0.0079 Uiso
C39_3 C 0.500 0.0339 0.667 0.0079 Uiso
C40_3 C 0.500 0.0206 0.749 0.0079 Uiso
C41_3 C 0.500 0.1078 0.7059 0.0079 Uiso
C42_2 C 0.3303 0.1227 0.7362 0.0079 Uiso
C43_2 C 0.3283 0.1523 0.7951 0.0079 Uiso
C44_3 C 0.500 0.1672 0.8255 0.0079 Uiso
C45_3 C 0.500 0.1991 0.8907 0.0079 Uiso
C46_3 C 0.500 0.1297 0.5396 0.0079 Uiso
H20_3 H 0.500 0.038 0.7936 0.0079 Uiso
H21_2 H 0.2115 0.1622 0.8141 0.0507 Uiso
H22_2 H 0.2123 0.1132 0.7163 0.0507 Uiso
H23_3 H 0.500 0.1536 0.5728 0.0507 Uiso
C47_2 C 0.6697 0.1227 0.7362 0.0079 Uiso
C48_2 C 0.6717 0.1523 0.7951 0.0079 Uiso
H24_2 H 0.7885 0.1622 0.8141 0.0507 Uiso
H25_2 H 0.7877 0.1132 0.7163 0.0507 Uiso
Co1_4 Co 0.500 1.000 0.500 0.0079 Uiso
N1_3 N 0.500 0.9383 0.500 0.0079 Uiso
C1_3 C 0.500 0.9125 0.4357 0.0079 Uiso
C2_3 C 0.500 0.9256 0.3561 0.0079 Uiso
C3_3 C 0.500 0.9661 0.333 0.0079 Uiso
N2_4 N 0.500 1.000 0.3821 0.0079 Uiso
C4_3 C 0.500 0.9794 0.251 0.0079 Uiso
C5_3 C 0.500 0.8922 0.2941 0.0079 Uiso
C6_2 C 0.3303 0.8773 0.2638 0.0079 Uiso
C7_2 C 0.3283 0.8477 0.2049 0.0079 Uiso
C8_3 C 0.500 0.8328 0.1745 0.0079 Uiso
C9_3 C 0.500 0.8009 0.1093 0.0079 Uiso
C10_3 C 0.500 0.8703 0.4604 0.0079 Uiso
H1_3 H 0.500 0.962 0.2064 0.0079 Uiso
H2_2 H 0.2115 0.8378 0.1859 0.0507 Uiso
H3_2 H 0.2123 0.8868 0.2837 0.0507 Uiso
H4_3 H 0.500 0.8464 0.4272 0.0507 Uiso
C21_3 C 0.500 0.9125 0.5643 0.0079 Uiso
C22_3 C 0.500 0.9256 0.6439 0.0079 Uiso
C23_3 C 0.500 0.9661 0.667 0.0079 Uiso
N4_4 N 0.500 1.000 0.6179 0.0079 Uiso
C24_3 C 0.500 0.9794 0.749 0.0079 Uiso
C25_3 C 0.500 0.8922 0.7059 0.0079 Uiso
C26_2 C 0.6697 0.8773 0.7362 0.0079 Uiso
C27_2 C 0.6717 0.8477 0.7951 0.0079 Uiso
C28_3 C 0.500 0.8328 0.8255 0.0079 Uiso
C29_3 C 0.500 0.8009 0.8907 0.0079 Uiso
C30_3 C 0.500 0.8703 0.5396 0.0079 Uiso
H10_3 H 0.500 0.962 0.7936 0.0079 Uiso
H11_2 H 0.7885 0.8378 0.8141 0.0507 Uiso
H12_2 H 0.7877 0.8868 0.7163 0.0507 Uiso
H13_3 H 0.500 0.8464 0.5728 0.0507 Uiso
C31_2 C 0.6697 0.8773 0.2638 0.0079 Uiso
C32_2 C 0.6717 0.8477 0.2049 0.0079 Uiso
H14_2 H 0.7885 0.8378 0.1859 0.0507 Uiso
H15_2 H 0.7877 0.8868 0.2837 0.0507 Uiso
C35_2 C 0.3303 0.8773 0.7362 0.0079 Uiso
C36_2 C 0.3283 0.8477 0.7951 0.0079 Uiso
H18_2 H 0.2115 0.8378 0.8141 0.0507 Uiso
H19_2 H 0.2123 0.8868 0.7163 0.0507 Uiso
loop_
_geom_bond_atom_site_label_1
_geom_bond_atom_site_label_2
_geom_bond_site_symmetry_1
_geom_bond_site_symmetry_2
Co1 N1 1_555 1_555
N1 C1 1_555 1_555
C1 C2 1_555 1_555
C2 C3 1_555 1_555
C3 N2 1_555 1_555
N2 Co1 1_555 1_555
C4 C3 1_555 1_555
C5 C2 1_555 1_555
C9 C8 1_555 1_555
O1 C9 1_555 1_555
Al3 O1 1_555 1_555
O2 Al3 1_555 1_555
C10 C1 1_555 1_555
H1 C4 1_555 1_555
H4 C10 1_555 1_555
H5 O2 1_555 1_555
N3 Co1 1_555 1_555
C11 N3 1_555 1_555
C12 C11 1_555 1_555
C13 N2 1_555 1_555
C14 C4 1_555 1_555
C15 C12 1_555 1_555
C16 C15 1_555 1_555
C17 C16 1_555 1_555
C18 C17 1_555 1_555
C19 C18 1_555 1_555
C20 C11 1_555 1_555
H6 C14 1_555 1_555
H7 C17 1_555 1_555
H8 C16 1_555 1_555
H9 C20 1_555 1_555
C21 N1 1_555 1_555
C22 C21 1_555 1_555
C23 C22 1_555 1_555
N4 Co1 1_555 1_555
C24 C23 1_555 1_555
C25 C22 1_555 1_555
C26 C25 1_555 1_555
C27 C26 1_555 1_555
C28 C27 1_555 1_555
C29 C28 1_555 1_555
C30 C10 1_555 1_555
H10 C24 1_555 1_555
H11 C27 1_555 1_555
H12 C26 1_555 1_555
H13 C30 1_555 1_555
C31 C5 1_555 1_555
C32 C8 1_555 1_555
H14 C32 1_555 1_555
H15 C31 1_555 1_555
O6 C19 1_555 1_555
O7 C29 1_555 1_555
C37 N3 1_555 1_555
C38 C37 1_555 1_555
C39 N4 1_555 1_555
C40 C24 1_555 1_555
C41 C38 1_555 1_555
C45 C44 1_555 1_555
O8 C45 1_555 1_555
C46 C20 1_555 1_555
H20 C40 1_555 1_555
H23 C46 1_555 1_555
C47 C41 1_555 1_555
C48 C44 1_555 1_555
H24 C48 1_555 1_555
H25 C47 1_555 1_555
O10 Al3 1_555 1_555
H26 O10 1_555 1_555
O14 Al3 1_555 1_555
Al3_2 O7 1_555 1_555
Al7 O2 1_555 1_555
Al9 O6 1_555 1_555
Al9_2 O8 1_555 1_555
C12 C13 1_555 1_555
C13 C14 1_555 1_555
C21 C30 1_555 1_555
C23 N4 1_555 1_555
C31 C32 1_555 1_555
C37 C46 1_555 1_555
C38 C39 1_555 1_555
C39 C40 1_555 1_555
C47 C48 1_555 1_555
Al9 O18 1_555 1_555
O2_2 Al3_2 1_555 1_555
H5_2 O2_2 1_555 1_555
O10_2 Al3_2 1_555 1_555
H26_2 O10_2 1_555 1_555
O16 Al3_2 1_555 1_555
Al7_2 O2_2 1_555 1_555
Al9_2 O18_2 1_555 1_555
Co1_2 N1_2 1_555 1_555
N1_2 C1_2 1_555 1_555
C1_2 C2_2 1_555 1_555
C2_2 C3_2 1_555 1_555
C3_2 N2_2 1_555 1_555
N2_2 Co1_2 1_555 1_555
C4_2 C3_2 1_555 1_555
C5_2 C2_2 1_555 1_555
C6 C5_2 1_555 1_555
C7 C6 1_555 1_555
C8_2 C7 1_555 1_555
C9_2 C8_2 1_555 1_555
C10_2 C1_2 1_555 1_555
H1_2 C4_2 1_555 1_555
H2 C7 1_555 1_555
H3 C6 1_555 1_555
H4_2 C10_2 1_555 1_555
N3_2 Co1_2 1_555 1_555
C11_2 N3_2 1_555 1_555
C12_2 C11_2 1_555 1_555
C13_2 N2_2 1_555 1_555
C14_2 C4_2 1_555 1_555
C15_2 C12_2 1_555 1_555
C19_2 C18_2 1_555 1_555
O3 C19_2 1_555 1_555
C20_2 C11_2 1_555 1_555
H6_2 C14_2 1_555 1_555
H9_2 C20_2 1_555 1_555
C21_2 N1_2 1_555 1_555
C22_2 C21_2 1_555 1_555
C23_2 C22_2 1_555 1_555
N4_2 Co1_2 1_555 1_555
C24_2 C23_2 1_555 1_555
C25_2 C22_2 1_555 1_555
C29_2 C28_2 1_555 1_555
O4 C29_2 1_555 1_555
C30_2 C10_2 1_555 1_555
H10_2 C24_2 1_555 1_555
H13_2 C30_2 1_555 1_555
O5 C9_2 1_555 1_555
C33 C15_2 1_555 1_555
C34 C18_2 1_555 1_555
H16 C34 1_555 1_555
H17 C33 1_555 1_555
C35 C25_2 1_555 1_555
C36 C28_2 1_555 1_555
H18 C36 1_555 1_555
H19 C35 1_555 1_555
C37_2 N3_2 1_555 1_555
C38_2 C37_2 1_555 1_555
C39_2 N4_2 1_555 1_555
C40_2 C24_2 1_555 1_555
C41_2 C38_2 1_555 1_555
C42 C41_2 1_555 1_555
C43 C42 1_555 1_555
C44_2 C43 1_555 1_555
C45_2 C44_2 1_555 1_555
C46_2 C20_2 1_555 1_555
H20_2 C40_2 1_555 1_555
H21 C43 1_555 1_555
H22 C42 1_555 1_555
H23_2 C46_2 1_555 1_555
O9 C45_2 1_555 1_555
Al4 O3 1_555 1_555
H26_3 O10_3 1_555 1_555
O13 Al4 1_555 1_555
Al4_2 O9 1_555 1_555
Al7 O5 1_555 1_555
Al7_2 O4 1_555 1_555
O17 Al4 1_555 1_555
O18_3 Al4 1_555 1_555
C12_2 C13_2 1_555 1_555
C13_2 C14_2 1_555 1_555
C21_2 C30_2 1_555 1_555
C23_2 N4_2 1_555 1_555
C33 C34 1_555 1_555
C35 C36 1_555 1_555
C37_2 C46_2 1_555 1_555
C38_2 C39_2 1_555 1_555
C39_2 C40_2 1_555 1_555
O10_3 Al7 1_555 1_555
H26_4 O10_4 1_555 1_555
O15 Al4_2 1_555 1_555
O17_2 Al4_2 1_555 1_555
O18_4 Al4_2 1_555 1_555
O10_4 Al7_2 1_555 1_555
H26_5 O18 1_555 1_555
H26_6 O18_2 1_555 1_555
H5_3 O17 1_555 1_555
H26_7 O18_3 1_555 1_555
Al9 O17 1_555 1_555
H5_4 O17_2 1_555 1_555
H26_8 O18_4 1_555 1_555
Al9_2 O17_2 1_555 1_555
O15_2 Al9 1_555 1_555
O13_2 Al9_2 1_555 1_555
O16_2 Al7 1_555 1_555
O14_2 Al7_2 1_555 1_555
N2_3 Co1_3 1_555 1_555
N3_3 Co1_3 1_555 1_555
C11_3 N3_3 1_555 1_555
C12_3 C11_3 1_555 1_555
C13_3 N2_3 1_555 1_555
C15_3 C12_3 1_555 1_555
C16_2 C15_3 1_555 1_555
C17_2 C16_2 1_555 1_555
C18_3 C17_2 1_555 1_555
C19_3 C18_3 1_555 1_555
O14 C19_3 1_555 1_555
C20_3 C11_3 1_555 1_555
H6_3 C14_3 1_555 1_555
H7_2 C17_2 1_555 1_555
H8_2 C16_2 1_555 1_555
H9_3 C20_3 1_555 1_555
N4_3 Co1_3 1_555 1_555
C33_2 C15_3 1_555 1_555
C34_2 C18_3 1_555 1_555
O16_2 C19_3 1_555 1_555
H16_2 C34_2 1_555 1_555
H17_2 C33_2 1_555 1_555
C37_3 N3_3 1_555 1_555
C38_3 C37_3 1_555 1_555
C39_3 N4_3 1_555 1_555
C41_3 C38_3 1_555 1_555
C42_2 C41_3 1_555 1_555
C43_2 C42_2 1_555 1_555
C44_3 C43_2 1_555 1_555
C45_3 C44_3 1_555 1_555
O14_2 C45_3 1_555 1_555
C46_3 C20_3 1_555 1_555
H20_3 C40_3 1_555 1_555
H21_2 C43_2 1_555 1_555
H22_2 C42_2 1_555 1_555
H23_3 C46_3 1_555 1_555
C47_2 C41_3 1_555 1_555
C48_2 C44_3 1_555 1_555
O16 C45_3 1_555 1_555
H24_2 C48_2 1_555 1_555
H25_2 C47_2 1_555 1_555
C12_3 C13_3 1_555 1_555
C13_3 C14_3 1_555 1_555
C33_2 C34_2 1_555 1_555
C37_3 C46_3 1_555 1_555
C38_3 C39_3 1_555 1_555
C39_3 C40_3 1_555 1_555
C47_2 C48_2 1_555 1_555
Co1_4 N1_3 1_555 1_555
N1_3 C1_3 1_555 1_555
C1_3 C2_3 1_555 1_555
C2_3 C3_3 1_555 1_555
C3_3 N2_4 1_555 1_555
N2_4 Co1_4 1_555 1_555
C4_3 C3_3 1_555 1_555
C5_3 C2_3 1_555 1_555
C6_2 C5_3 1_555 1_555
C7_2 C6_2 1_555 1_555
C8_3 C7_2 1_555 1_555
C9_3 C8_3 1_555 1_555
O13 C9_3 1_555 1_555
C10_3 C1_3 1_555 1_555
H1_3 C4_3 1_555 1_555
H2_2 C7_2 1_555 1_555
H3_2 C6_2 1_555 1_555
H4_3 C10_3 1_555 1_555
C21_3 N1_3 1_555 1_555
C22_3 C21_3 1_555 1_555
C23_3 C22_3 1_555 1_555
N4_4 Co1_4 1_555 1_555
C24_3 C23_3 1_555 1_555
C25_3 C22_3 1_555 1_555
C26_2 C25_3 1_555 1_555
C27_2 C26_2 1_555 1_555
C28_3 C27_2 1_555 1_555
C29_3 C28_3 1_555 1_555
O13_2 C29_3 1_555 1_555
C30_3 C10_3 1_555 1_555
H10_3 C24_3 1_555 1_555
H11_2 C27_2 1_555 1_555
H12_2 C26_2 1_555 1_555
H13_3 C30_3 1_555 1_555
C31_2 C5_3 1_555 1_555
C32_2 C8_3 1_555 1_555
O15_2 C9_3 1_555 1_555
H14_2 C32_2 1_555 1_555
H15_2 C31_2 1_555 1_555
C35_2 C25_3 1_555 1_555
C36_2 C28_3 1_555 1_555
O15 C29_3 1_555 1_555
H18_2 C36_2 1_555 1_555
H19_2 C35_2 1_555 1_555
C21_3 C30_3 1_555 1_555
C23_3 N4_4 1_555 1_555
C31_2 C32_2 1_555 1_555
C35_2 C36_2 1_555 1_555

#END
