
###############################################################################
#
# This file contains modified crystal structure data generated from the
# MOF subset of the Cambridge Structural Database (CSD) v543 
# hosted by the Cambridge Crystallographic Data Centre (CCDC).
#
# This work is licensed under the Creative Commons
# Attribution-NonCommercial-ShareAlike 4.0 International License.
# To view a copy of this license, visit
# http://creativecommons.org/licenses/by-nc-sa/4.0/
# or send a letter to
# Creative Commons, PO Box 1866, Mountain View, CA 94042, USA.
#
# CIF created using the CSD Python API on 29 September 2022
# The structure has been converted into the P1 space group
# The structure has a 3D framework
# The original CSD entry RAZXIA02 is in the tetragonal crystal system
# The framework has been calculated to contain at least 10.0% void space
# The void calculation uses a probe of radius 1.32A, grid spacing 0.4
# H atom positions have been added when not included in the experimental data
# Generated hydrogen atom positions removed from atoms on special positions
#
###############################################################################

data_RAZXIA02
_chemical_formula_moiety         '(C96 H128 Co20 K8 O120)n'
_symmetry_cell_setting           triclinic
_symmetry_space_group_name_H-M   'P 1'
_symmetry_Int_Tables_number      1
_space_group_name_Hall           'P 1'
loop_
_symmetry_equiv_pos_site_id
_symmetry_equiv_pos_as_xyz
1 x,y,z
_cell_length_a                   13.0005(5)
_cell_length_b                   13.0005(5)
_cell_length_c                   30.2002(11)
_cell_angle_alpha                90
_cell_angle_beta                 90
_cell_angle_gamma                90
_cell_volume                     5104.23
loop_
_atom_site_label
_atom_site_type_symbol
_atom_site_fract_x
_atom_site_fract_y
_atom_site_fract_z
Co2 Co -0.0000 -0.0000 0.30781(5)
O1 O 0.1096(6) 0.0093(6) 0.39071(16)
Co4 Co 0.10460(11) 0.04869(11) 0.45964(3)
Co6 Co 0.0000 0.0000 0.69219(5)
K3 K 0.2500 0.1631(3) 0.3750
O22 O 0.0989(5) 0.0543(6) 0.52872(16)
O27 O 0.0848(6) 0.0753(7) 0.2643(2)
Co2_2 Co -0.0000 1.0000 0.30781(5)
C1 C 0.1065(8) 0.9159(8) 0.3783(3)
C2 C 0.1502(9) 0.8328(9) 0.4082(3)
C3 C 0.0771(8) 0.8090(8) 0.4483(3)
C4 C 0.1400(9) 0.7335(9) 0.4767(3)
C5 C 0.0801(8) 0.6841(9) 0.5135(2)
O2 O 0.0697(6) 0.8893(6) 0.34092(18)
O3 O 0.0543(6) 0.9011(5) 0.47128(16)
O6 O 0.0373(6) 0.7368(6) 0.54193(18)
O7 O 0.0753(7) 0.5848(6) 0.5143(2)
H1 H 0.2171 0.8561 0.4192
H2 H 0.1581 0.7701 0.3916
H3 H 0.1946 0.7726 0.4899
H4 H 0.1697 0.6810 0.4586
O9 O 0.0093(6) 0.8904(6) 0.60929(16)
Co5 Co 0.04869(11) 0.89540(11) 0.54036(3)
Co6_2 Co 0.0000 1.0000 0.69219(5)
Co8 Co 0.0000 0.5000 0.55781(5)
K4 K 0.1631(3) 0.7500 0.6250
Co2_3 Co 1.0000 -0.0000 0.30781(5)
Co3 Co 0.95131(11) 0.10460(11) 0.54036(3)
C12 C 0.7557(9) 0.0215(9) 0.5686(3)
O12 O 0.8011(6) 0.1048(6) 0.56232(19)
O13 O 0.6714(7) 0.0093(8) 0.5856(3)
Co6_3 Co 1.0000 0.0000 0.69219(5)
Co7 Co 0.5000 -0.0000 0.44219(5)
K2 K 0.8369(3) 0.2500 0.6250
O18 O 0.9907(6) 0.1096(6) 0.60929(16)
O20 O 0.9303(6) 0.1107(6) 0.34092(18)
O21 O 0.9457(6) 0.0989(5) 0.47128(16)
O24 O 0.9627(6) 0.2632(6) 0.54193(18)
Co1 Co 0.89540(11) 0.95131(11) 0.45964(3)
Co2_4 Co 1.0000 1.0000 0.30781(5)
K1 K 0.7500 0.8369(3) 0.3750
C6 C 0.9785(9) 0.7557(9) 0.4314(3)
O4 O 0.8952(6) 0.8011(6) 0.43768(19)
O5 O 0.9907(8) 0.6714(7) 0.4144(3)
O8 O 0.623(2) 0.6903(19) 0.4175(8)
C7 C 0.9159(8) 0.8935(8) 0.6217(3)
C8 C 0.8328(9) 0.8498(9) 0.5918(3)
C9 C 0.8090(8) 0.9229(8) 0.5517(3)
C10 C 0.7335(9) 0.8600(9) 0.5233(3)
C11 C 0.6841(9) 0.9199(8) 0.4865(2)
O10 O 0.8893(6) 0.9303(6) 0.65908(18)
O11 O 0.9011(5) 0.9457(6) 0.52872(16)
O14 O 0.7368(6) 0.9627(6) 0.45807(18)
O15 O 0.5848(6) 0.9247(7) 0.4857(2)
H5 H 0.8561 0.7829 0.5808
H6 H 0.7701 0.8419 0.6084
H7 H 0.7726 0.8054 0.5101
H8 H 0.6810 0.8303 0.5414
O16 O 0.877(2) 0.6903(19) 0.3325(8)
Co6_4 Co 1.0000 1.0000 0.69219(5)
Co7_2 Co 0.5000 1.0000 0.44219(5)
Co8_2 Co 1.0000 0.5000 0.55781(5)
O17 O 0.8904(6) 0.9907(6) 0.39071(16)
O19 O 0.6096(6) 0.9907(6) 0.35929(16)
O23 O 0.6048(6) 0.8011(6) 0.31232(19)
O25 O 0.7632(6) 0.9627(6) 0.29193(18)
O26 O 0.9152(6) 0.9247(7) 0.2643(2)
C5_2 C 0.5801(8) 0.1841(9) 0.0135(2)
O6_2 O 0.5373(6) 0.2368(6) 0.04193(18)
O7_2 O 0.5753(7) 0.0848(6) 0.0143(2)
Co3_2 Co 0.45131(11) 0.60460(11) 0.04036(3)
C7_2 C 0.4159(8) 0.3935(8) 0.1217(3)
C8_2 C 0.3328(9) 0.3498(9) 0.0918(3)
C9_2 C 0.3090(8) 0.4229(8) 0.0517(3)
C10_2 C 0.2335(9) 0.3600(9) 0.0233(3)
C12_2 C 0.2557(9) 0.5215(9) 0.0686(3)
O9_2 O 0.5093(6) 0.3904(6) 0.10929(16)
O10_2 O 0.3893(6) 0.4303(6) 0.15908(18)
O11_2 O 0.4011(5) 0.4457(6) 0.02872(16)
O12_2 O 0.3011(6) 0.6048(6) 0.06232(19)
O13_2 O 0.1714(7) 0.5093(8) 0.0856(3)
H5_2 H 0.3561 0.2829 0.0808
H6_2 H 0.2701 0.3419 0.1084
H7_2 H 0.2726 0.3054 0.0101
H8_2 H 0.1810 0.3303 0.0414
Co5_2 Co 0.54869(11) 0.39540(11) 0.04036(3)
Co6_5 Co 0.5000 0.5000 0.19219(5)
Co8_3 Co 0.5000 0.0000 0.05781(5)
K2_2 K 0.3369(3) 0.7500 0.1250
K4_2 K 0.6631(3) 0.2500 0.1250
O18_2 O 0.4907(6) 0.6096(6) 0.10929(16)
O22_2 O 0.5989(5) 0.5543(6) 0.02872(16)
O24_2 O 0.4627(6) 0.7632(6) 0.04193(18)
Co1_2 Co 0.39540(11) 0.45131(11) 0.95964(3)
Co2_5 Co 0.5000 0.5000 0.80781(5)
K1_2 K 0.2500 0.3369(3) 0.8750
C1_2 C 0.6065(8) 0.4159(8) 0.8783(3)
C2_2 C 0.6502(9) 0.3328(9) 0.9082(3)
C3_2 C 0.5771(8) 0.3090(8) 0.9483(3)
C4_2 C 0.6400(9) 0.2335(9) 0.9767(3)
C6_2 C 0.4785(9) 0.2557(9) 0.9314(3)
O1_2 O 0.6096(6) 0.5093(6) 0.89071(16)
O2_2 O 0.5697(6) 0.3893(6) 0.84092(18)
O3_2 O 0.5543(6) 0.4011(5) 0.97128(16)
O4_2 O 0.3952(6) 0.3011(6) 0.93768(19)
O5_2 O 0.4907(8) 0.1714(7) 0.9144(3)
H1_2 H 0.7171 0.3561 0.9192
H2_2 H 0.6581 0.2701 0.8916
H3_2 H 0.6946 0.2726 0.9899
H4_2 H 0.6697 0.1810 0.9586
O8_2 O 0.123(2) 0.1903(19) 0.9175(8)
C11_2 C 0.1841(9) 0.4199(8) 0.9865(2)
O14_2 O 0.2368(6) 0.4627(6) 0.95807(18)
O15_2 O 0.0848(6) 0.4247(7) 0.9857(2)
O16_2 O 0.377(2) 0.1903(19) 0.8325(8)
Co4_2 Co 0.60460(11) 0.54869(11) 0.95964(3)
Co7_3 Co -0.0000 0.5000 0.94219(5)
K3_2 K 0.7500 0.6631(3) 0.8750
O17_2 O 0.3904(6) 0.4907(6) 0.89071(16)
O19_2 O 0.1096(6) 0.4907(6) 0.85929(16)
O20_2 O 0.4303(6) 0.6107(6) 0.84092(18)
O21_2 O 0.4457(6) 0.5989(5) 0.97128(16)
O23_2 O 0.1048(6) 0.3011(6) 0.81232(19)
O25_2 O 0.2632(6) 0.4627(6) 0.79193(18)
O26_2 O 0.4152(6) 0.4247(7) 0.7643(2)
O27_2 O 0.5848(6) 0.5753(7) 0.7643(2)
Co8_4 Co 0.5000 1.0000 0.05781(5)
Co7_4 Co 1.0000 0.5000 0.94219(5)
C12_3 C 0.0215(9) 0.2443(9) 0.4314(3)
O12_3 O 0.1048(6) 0.1989(6) 0.43768(19)
O13_3 O 0.0093(8) 0.3286(7) 0.4144(3)
O20_3 O 0.1107(6) 0.0697(6) 0.65908(18)
O24_3 O 0.2632(6) 0.0373(6) 0.45807(18)
O27_3 O 0.0753(7) 0.9152(6) 0.7357(2)
O8_3 O 0.6903(19) 0.377(2) 0.5825(8)
C7_3 C 0.8935(8) 0.0841(8) 0.3783(3)
C8_3 C 0.8498(9) 0.1672(9) 0.4082(3)
C9_3 C 0.9229(8) 0.1910(8) 0.4483(3)
C10_3 C 0.8600(9) 0.2665(9) 0.4767(3)
C11_3 C 0.9199(8) 0.3159(9) 0.5135(2)
O15_3 O 0.9247(7) 0.4152(6) 0.5143(2)
H5_3 H 0.7829 0.1439 0.4192
H6_3 H 0.8419 0.2299 0.3916
H7_3 H 0.8054 0.2274 0.4899
H8_3 H 0.8303 0.3190 0.4586
O16_3 O 0.6903(19) 0.123(2) 0.6675(8)
O19_3 O 0.9907(6) 0.3904(6) 0.64071(16)
O23_3 O 0.8011(6) 0.3952(6) 0.68768(19)
O25_3 O 0.9627(6) 0.2368(6) 0.70807(18)
O26_3 O 0.9247(7) 0.0848(6) 0.7357(2)
O8_4 O 0.1903(19) 0.877(2) 0.0825(8)
C11_4 C 0.4199(8) 0.8159(9) 0.0135(2)
O15_4 O 0.4247(7) 0.9152(6) 0.0143(2)
O16_4 O 0.1903(19) 0.623(2) 0.1675(8)
O19_4 O 0.4907(6) 0.8904(6) 0.14071(16)
O20_4 O 0.6107(6) 0.5697(6) 0.15908(18)
O23_4 O 0.3011(6) 0.8952(6) 0.18768(19)
O25_4 O 0.4627(6) 0.7368(6) 0.20807(18)
O26_4 O 0.4247(7) 0.5848(6) 0.2357(2)
O27_4 O 0.5753(7) 0.4152(6) 0.2357(2)
C7_4 C 0.3935(8) 0.5841(8) 0.8783(3)
C8_4 C 0.3498(9) 0.6672(9) 0.9082(3)
C9_4 C 0.4229(8) 0.6910(8) 0.9483(3)
C10_4 C 0.3600(9) 0.7665(9) 0.9767(3)
C12_4 C 0.5215(9) 0.7443(9) 0.9314(3)
O12_4 O 0.6048(6) 0.6989(6) 0.93768(19)
O13_4 O 0.5093(8) 0.8286(7) 0.9144(3)
H5_4 H 0.2829 0.6439 0.9192
H6_4 H 0.3419 0.7299 0.8916
H7_4 H 0.3054 0.7274 0.9899
H8_4 H 0.3303 0.8190 0.9586
O24_4 O 0.7632(6) 0.5373(6) 0.95807(18)
O8_5 O 0.377(2) 0.3097(19) 0.4175(8)
C7_5 C 0.0841(8) 0.1065(8) 0.6217(3)
C8_5 C 0.1672(9) 0.1502(9) 0.5918(3)
C9_5 C 0.1910(8) 0.0771(8) 0.5517(3)
C10_5 C 0.2665(9) 0.1400(9) 0.5233(3)
C11_5 C 0.3159(9) 0.0801(8) 0.4865(2)
O15_5 O 0.4152(6) 0.0753(7) 0.4857(2)
H5_5 H 0.1439 0.2171 0.5808
H6_5 H 0.2299 0.1581 0.6084
H7_5 H 0.2274 0.1946 0.5101
H8_5 H 0.3190 0.1697 0.5414
O16_5 O 0.123(2) 0.3097(19) 0.3325(8)
O19_5 O 0.3904(6) 0.0093(6) 0.35929(16)
O23_5 O 0.3952(6) 0.1989(6) 0.31232(19)
O25_5 O 0.2368(6) 0.0373(6) 0.29193(18)
C12_5 C 0.2443(9) 0.9785(9) 0.5686(3)
O12_5 O 0.1989(6) 0.8952(6) 0.56232(19)
O13_5 O 0.3286(7) 0.9907(8) 0.5856(3)
C7_6 C 0.5841(8) 0.6065(8) 0.1217(3)
C8_6 C 0.6672(9) 0.6502(9) 0.0918(3)
C9_6 C 0.6910(8) 0.5771(8) 0.0517(3)
C10_6 C 0.7665(9) 0.6400(9) 0.0233(3)
C12_6 C 0.7443(9) 0.4785(9) 0.0686(3)
O12_6 O 0.6989(6) 0.3952(6) 0.06232(19)
O13_6 O 0.8286(7) 0.4907(8) 0.0856(3)
H5_6 H 0.6439 0.7171 0.0808
H6_6 H 0.7299 0.6581 0.1084
H7_6 H 0.7274 0.6946 0.0101
H8_6 H 0.8190 0.6697 0.0414
O8_6 O 0.877(2) 0.8097(19) 0.9175(8)
C11_6 C 0.8159(9) 0.5801(8) 0.9865(2)
O15_6 O 0.9152(6) 0.5753(7) 0.9857(2)
O16_6 O 0.623(2) 0.8097(19) 0.8325(8)
O19_6 O 0.8904(6) 0.5093(6) 0.85929(16)
O23_6 O 0.8952(6) 0.6989(6) 0.81232(19)
O25_6 O 0.7368(6) 0.5373(6) 0.79193(18)
O8_7 O 0.3097(19) 0.623(2) 0.5825(8)
O16_7 O 0.3097(19) 0.877(2) 0.6675(8)
O19_7 O 0.0093(6) 0.6096(6) 0.64071(16)
O23_7 O 0.1989(6) 0.6048(6) 0.68768(19)
O25_7 O 0.0373(6) 0.7632(6) 0.70807(18)
O8_8 O 0.8097(19) 0.123(2) 0.0825(8)
O16_8 O 0.8097(19) 0.377(2) 0.1675(8)
O19_8 O 0.5093(6) 0.1096(6) 0.14071(16)
O23_8 O 0.6989(6) 0.1048(6) 0.18768(19)
O25_8 O 0.5373(6) 0.2632(6) 0.20807(18)
Co3_3 Co 0.54869(11) 0.10460(11) 0.20964(3)
C12_7 C 0.7443(9) 0.0215(9) 0.1814(3)
O13_7 O 0.8286(7) 0.0093(8) 0.1644(3)
Co4_3 Co 0.39540(11) 0.04869(11) 0.29036(3)
O20_5 O 0.5697(6) 0.1107(6) 0.40908(18)
O21_3 O 0.5543(6) 0.0989(5) 0.27872(16)
O22_3 O 0.4011(5) 0.0543(6) 0.22128(16)
Co1_3 Co 0.60460(11) 0.95131(11) 0.29036(3)
C1_3 C 0.3935(8) 0.9159(8) 0.3717(3)
C2_3 C 0.3498(9) 0.8328(9) 0.3418(3)
C3_3 C 0.4229(8) 0.8090(8) 0.3017(3)
C4_3 C 0.3600(9) 0.7335(9) 0.2733(3)
C5_3 C 0.4199(8) 0.6841(9) 0.2365(2)
C6_3 C 0.5215(9) 0.7557(9) 0.3186(3)
O2_3 O 0.4303(6) 0.8893(6) 0.40908(18)
O3_3 O 0.4457(6) 0.9011(5) 0.27872(16)
O5_3 O 0.5093(8) 0.6714(7) 0.3356(3)
H1_3 H 0.2829 0.8561 0.3308
H2_3 H 0.3419 0.7701 0.3584
H3_3 H 0.3054 0.7726 0.2601
H4_3 H 0.3303 0.6810 0.2914
C7_7 C 0.5841(8) 0.8935(8) 0.1283(3)
C8_7 C 0.6672(9) 0.8498(9) 0.1582(3)
C9_7 C 0.6910(8) 0.9229(8) 0.1983(3)
C10_7 C 0.7665(9) 0.8600(9) 0.2267(3)
C11_7 C 0.8159(9) 0.9199(8) 0.2635(2)
O10_3 O 0.6107(6) 0.9303(6) 0.09092(18)
O11_3 O 0.5989(5) 0.9457(6) 0.22128(16)
H5_7 H 0.6439 0.7829 0.1692
H6_7 H 0.7299 0.8419 0.1416
H7_7 H 0.7274 0.8054 0.2399
H8_7 H 0.8190 0.8303 0.2086
Co5_3 Co 0.45131(11) 0.89540(11) 0.20964(3)
Co1_4 Co 0.10460(11) 0.45131(11) 0.79036(3)
C6_4 C 0.0215(9) 0.2557(9) 0.8186(3)
O5_4 O 0.0093(8) 0.1714(7) 0.8356(3)
Co3_4 Co 0.04869(11) 0.60460(11) 0.70964(3)
C7_8 C 0.0841(8) 0.3935(8) 0.6283(3)
C8_8 C 0.1672(9) 0.3498(9) 0.6582(3)
C9_8 C 0.1910(8) 0.4229(8) 0.6983(3)
C10_8 C 0.2665(9) 0.3600(9) 0.7267(3)
C11_8 C 0.3159(9) 0.4199(8) 0.7635(2)
C12_8 C 0.2443(9) 0.5215(9) 0.6814(3)
O10_4 O 0.1107(6) 0.4303(6) 0.59092(18)
O11_4 O 0.0989(5) 0.4457(6) 0.72128(16)
O13_8 O 0.3286(7) 0.5093(8) 0.6644(3)
H5_8 H 0.1439 0.2829 0.6692
H6_8 H 0.2299 0.3419 0.6416
H7_8 H 0.2274 0.3054 0.7399
H8_8 H 0.3190 0.3303 0.7086
O20_6 O 0.0697(6) 0.6107(6) 0.90908(18)
O21_4 O 0.0543(6) 0.5989(5) 0.77872(16)
C1_4 C 0.8935(8) 0.4159(8) 0.8717(3)
C2_4 C 0.8498(9) 0.3328(9) 0.8418(3)
C3_4 C 0.9229(8) 0.3090(8) 0.8017(3)
C4_4 C 0.8600(9) 0.2335(9) 0.7733(3)
C5_4 C 0.9199(8) 0.1841(9) 0.7365(2)
O2_4 O 0.9303(6) 0.3893(6) 0.90908(18)
O3_4 O 0.9457(6) 0.4011(5) 0.77872(16)
H1_4 H 0.7829 0.3561 0.8308
H2_4 H 0.8419 0.2701 0.8584
H3_4 H 0.8054 0.2726 0.7601
H4_4 H 0.8303 0.1810 0.7914
Co4_4 Co 0.89540(11) 0.54869(11) 0.79036(3)
Co5_4 Co 0.95131(11) 0.39540(11) 0.70964(3)
O22_4 O 0.9011(5) 0.5543(6) 0.72128(16)
C7_9 C 0.6065(8) 0.0841(8) 0.3717(3)
C8_9 C 0.6502(9) 0.1672(9) 0.3418(3)
C9_9 C 0.5771(8) 0.1910(8) 0.3017(3)
C10_9 C 0.6400(9) 0.2665(9) 0.2733(3)
C11_9 C 0.5801(8) 0.3159(9) 0.2365(2)
C12_9 C 0.4785(9) 0.2443(9) 0.3186(3)
O13_9 O 0.4907(8) 0.3286(7) 0.3356(3)
H5_9 H 0.7171 0.1439 0.3308
H6_9 H 0.6581 0.2299 0.3584
H7_9 H 0.6946 0.2274 0.2601
H8_9 H 0.6697 0.3190 0.2914
O20_7 O 0.3893(6) 0.0697(6) 0.09092(18)
C7_10 C 0.1065(8) 0.5841(8) 0.8717(3)
C8_10 C 0.1502(9) 0.6672(9) 0.8418(3)
C9_10 C 0.0771(8) 0.6910(8) 0.8017(3)
C10_10 C 0.1400(9) 0.7665(9) 0.7733(3)
C11_10 C 0.0801(8) 0.8159(9) 0.7365(2)
H5_10 H 0.2171 0.6439 0.8308
H6_10 H 0.1581 0.7299 0.8584
H7_10 H 0.1946 0.7274 0.7601
H8_10 H 0.1697 0.8190 0.7914
C12_10 C 0.9785(9) 0.7443(9) 0.8186(3)
O13_10 O 0.9907(8) 0.8286(7) 0.8356(3)
O20_8 O 0.8893(6) 0.5697(6) 0.59092(18)
C7_11 C 0.4159(8) 0.1065(8) 0.1283(3)
C8_11 C 0.3328(9) 0.1502(9) 0.1582(3)
C9_11 C 0.3090(8) 0.0771(8) 0.1983(3)
C10_11 C 0.2335(9) 0.1400(9) 0.2267(3)
C11_11 C 0.1841(9) 0.0801(8) 0.2635(2)
H5_11 H 0.3561 0.2171 0.1692
H6_11 H 0.2701 0.1581 0.1416
H7_11 H 0.2726 0.1946 0.2399
H8_11 H 0.1810 0.1697 0.2086
C12_11 C 0.2557(9) 0.9785(9) 0.1814(3)
O13_11 O 0.1714(7) 0.9907(8) 0.1644(3)
C7_12 C 0.9159(8) 0.6065(8) 0.6283(3)
C8_12 C 0.8328(9) 0.6502(9) 0.6582(3)
C9_12 C 0.8090(8) 0.5771(8) 0.6983(3)
C10_12 C 0.7335(9) 0.6400(9) 0.7267(3)
C11_12 C 0.6841(9) 0.5801(8) 0.7635(2)
C12_12 C 0.7557(9) 0.4785(9) 0.6814(3)
O13_12 O 0.6714(7) 0.4907(8) 0.6644(3)
H5_12 H 0.8561 0.7171 0.6692
H6_12 H 0.7701 0.6581 0.6416
H7_12 H 0.7726 0.6946 0.7399
H8_12 H 0.6810 0.6697 0.7086
loop_
_geom_bond_atom_site_label_1
_geom_bond_atom_site_label_2
_geom_bond_site_symmetry_1
_geom_bond_site_symmetry_2
K3 O1 1_555 1_555
O27 Co2 1_555 1_555
O1 Co4 1_555 1_555
Co4 O22 1_555 1_555
Co2_2 O2 1_555 1_555
C1 C2 1_555 1_555
C2 C3 1_555 1_555
C3 C4 1_555 1_555
C4 C5 1_555 1_555
C5 O6 1_555 1_555
O2 C1 1_555 1_555
O3 C3 1_555 1_555
O6 Co5 1_555 1_555
O7 C5 1_555 1_555
H1 C2 1_555 1_555
H2 C2 1_555 1_555
H3 C4 1_555 1_555
H4 C4 1_555 1_555
Co5 O3 1_555 1_555
Co8 O7 1_555 1_555
K4 O6 1_555 1_555
O9 Co5 1_555 1_555
O9 K4 1_555 1_555
O12 Co3 1_555 1_555
O13 C12 1_555 1_555
K2 O12 1_555 1_555
O18 Co3 1_555 1_555
O20 Co2_3 1_555 1_555
O24 Co3 1_555 1_555
Co3 O21 1_555 1_555
C12 O12 1_555 1_555
K2 O18 1_555 1_555
K2 O24 1_555 1_555
K1 O4 1_555 1_555
O4 Co1 1_555 1_555
O5 C6 1_555 1_555
O8 K1 1_555 1_555
C7 C8 1_555 1_555
C8 C9 1_555 1_555
C9 C10 1_555 1_555
C10 C11 1_555 1_555
C11 O14 1_555 1_555
O10 C7 1_555 1_555
O11 Co1 1_555 1_555
O14 Co1 1_555 1_555
O15 C11 1_555 1_555
H5 C8 1_555 1_555
H6 C8 1_555 1_555
H7 C10 1_555 1_555
H8 C10 1_555 1_555
O16 K1 1_555 1_555
Co6_4 O10 1_555 1_555
Co7_2 O15 1_555 1_555
O17 Co1 1_555 1_555
O19 K1 1_555 1_555
O23 K1 1_555 1_555
O25 K1 1_555 1_555
O26 Co2_4 1_555 1_555
K1 O14 1_555 1_555
K1 O17 1_555 1_555
C6 O4 1_555 1_555
C9 O11 1_555 1_555
C5_2 O6_2 1_555 1_555
O6_2 Co5_2 1_555 1_555
O7_2 C5_2 1_555 1_555
Co3_2 O11_2 1_555 1_555
C7_2 C8_2 1_555 1_555
C8_2 C9_2 1_555 1_555
C9_2 C10_2 1_555 1_555
C12_2 C9_2 1_555 1_555
O9_2 C7_2 1_555 1_555
O10_2 C7_2 1_555 1_555
O12_2 Co3_2 1_555 1_555
O13_2 C12_2 1_555 1_555
H5_2 C8_2 1_555 1_555
H6_2 C8_2 1_555 1_555
H7_2 C10_2 1_555 1_555
H8_2 C10_2 1_555 1_555
Co6_5 O10_2 1_555 1_555
Co8_3 O7_2 1_555 1_555
K2_2 O12_2 1_555 1_555
K4_2 O6_2 1_555 1_555
O18_2 Co3_2 1_555 1_555
O22_2 Co3_2 1_555 1_555
O24_2 Co3_2 1_555 1_555
Co3_2 Co5_2 1_555 1_555
C9_2 O11_2 1_555 1_555
C12_2 O12_2 1_555 1_555
O9_2 Co5_2 1_555 1_555
O9_2 K4_2 1_555 1_555
O11_2 Co5_2 1_555 1_555
Co5_2 O22_2 1_555 1_555
K2_2 O18_2 1_555 1_555
K2_2 O24_2 1_555 1_555
Co1_2 O3_2 1_555 1_555
Co2_5 O2_2 1_555 1_555
K1_2 O4_2 1_555 1_555
C1_2 C2_2 1_555 1_555
C2_2 C3_2 1_555 1_555
C3_2 C4_2 1_555 1_555
C6_2 C3_2 1_555 1_555
O1_2 C1_2 1_555 1_555
O2_2 C1_2 1_555 1_555
O3_2 C3_2 1_555 1_555
O4_2 Co1_2 1_555 1_555
O5_2 C6_2 1_555 1_555
H1_2 C2_2 1_555 1_555
H2_2 C2_2 1_555 1_555
H3_2 C4_2 1_555 1_555
H4_2 C4_2 1_555 1_555
O8_2 K1_2 1_555 1_555
C11_2 O14_2 1_555 1_555
O14_2 Co1_2 1_555 1_555
O15_2 C11_2 1_555 1_555
O16_2 K1_2 1_555 1_555
Co4_2 Co1_2 1_555 1_555
Co7_3 O15_2 1_555 1_555
K3_2 O1_2 1_555 1_555
O17_2 Co1_2 1_555 1_555
O19_2 K1_2 1_555 1_555
O20_2 Co2_5 1_555 1_555
O21_2 Co1_2 1_555 1_555
O23_2 K1_2 1_555 1_555
O25_2 K1_2 1_555 1_555
O26_2 Co2_5 1_555 1_555
O27_2 Co2_5 1_555 1_555
K1_2 O14_2 1_555 1_555
K1_2 O17_2 1_555 1_555
C6_2 O4_2 1_555 1_555
O1_2 Co4_2 1_555 1_555
O3_2 Co4_2 1_555 1_555
Co4_2 O21_2 1_555 1_555
O12_3 Co4 1_555 1_555
O13_3 C12_3 1_555 1_555
K3 O12_3 1_555 1_555
O20_3 Co6 1_555 1_555
O24_3 Co4 1_555 1_555
C12_3 O12_3 1_555 1_555
K3 O24_3 1_555 1_555
O27_3 Co6_2 1_555 1_555
O8_3 K2 1_555 1_555
C7_3 C8_3 1_555 1_555
C8_3 C9_3 1_555 1_555
C9_3 C10_3 1_555 1_555
C10_3 C11_3 1_555 1_555
C11_3 O24 1_555 1_555
O20 C7_3 1_555 1_555
O15_3 C11_3 1_555 1_555
H5_3 C8_3 1_555 1_555
H6_3 C8_3 1_555 1_555
H7_3 C10_3 1_555 1_555
H8_3 C10_3 1_555 1_555
O16_3 K2 1_555 1_555
Co8_2 O15_3 1_555 1_555
O19_3 K2 1_555 1_555
O23_3 K2 1_555 1_555
O25_3 K2 1_555 1_555
O26_3 Co6_3 1_555 1_555
C9_3 O21 1_555 1_555
O8_4 K2_2 1_555 1_555
C11_4 O24_2 1_555 1_555
O15_4 C11_4 1_555 1_555
O16_4 K2_2 1_555 1_555
Co8_4 O15_4 1_555 1_555
O19_4 K2_2 1_555 1_555
O20_4 Co6_5 1_555 1_555
O23_4 K2_2 1_555 1_555
O25_4 K2_2 1_555 1_555
O26_4 Co6_5 1_555 1_555
O27_4 Co6_5 1_555 1_555
C7_4 C8_4 1_555 1_555
C8_4 C9_4 1_555 1_555
C9_4 C10_4 1_555 1_555
C12_4 C9_4 1_555 1_555
O17_2 C7_4 1_555 1_555
O20_2 C7_4 1_555 1_555
O12_4 Co4_2 1_555 1_555
O13_4 C12_4 1_555 1_555
H5_4 C8_4 1_555 1_555
H6_4 C8_4 1_555 1_555
H7_4 C10_4 1_555 1_555
H8_4 C10_4 1_555 1_555
K3_2 O12_4 1_555 1_555
O24_4 Co4_2 1_555 1_555
C9_4 O21_2 1_555 1_555
C12_4 O12_4 1_555 1_555
K3_2 O24_4 1_555 1_555
O8_5 K3 1_555 1_555
C7_5 C8_5 1_555 1_555
C8_5 C9_5 1_555 1_555
C9_5 C10_5 1_555 1_555
C10_5 C11_5 1_555 1_555
C11_5 O24_3 1_555 1_555
O20_3 C7_5 1_555 1_555
O15_5 C11_5 1_555 1_555
H5_5 C8_5 1_555 1_555
H6_5 C8_5 1_555 1_555
H7_5 C10_5 1_555 1_555
H8_5 C10_5 1_555 1_555
O16_5 K3 1_555 1_555
Co7 O15_5 1_555 1_555
O19_5 K3 1_555 1_555
O23_5 K3 1_555 1_555
O25_5 K3 1_555 1_555
C9_5 O22 1_555 1_555
O12_5 Co5 1_555 1_555
O13_5 C12_5 1_555 1_555
K4 O12_5 1_555 1_555
C12_5 O12_5 1_555 1_555
C7_6 C8_6 1_555 1_555
C8_6 C9_6 1_555 1_555
C9_6 C10_6 1_555 1_555
C12_6 C9_6 1_555 1_555
O18_2 C7_6 1_555 1_555
O20_4 C7_6 1_555 1_555
O12_6 Co5_2 1_555 1_555
O13_6 C12_6 1_555 1_555
H5_6 C8_6 1_555 1_555
H6_6 C8_6 1_555 1_555
H7_6 C10_6 1_555 1_555
H8_6 C10_6 1_555 1_555
K4_2 O12_6 1_555 1_555
C9_6 O22_2 1_555 1_555
C12_6 O12_6 1_555 1_555
O8_6 K3_2 1_555 1_555
C11_6 O24_4 1_555 1_555
O15_6 C11_6 1_555 1_555
O16_6 K3_2 1_555 1_555
Co7_4 O15_6 1_555 1_555
O19_6 K3_2 1_555 1_555
O23_6 K3_2 1_555 1_555
O25_6 K3_2 1_555 1_555
O8_7 K4 1_555 1_555
O16_7 K4 1_555 1_555
O19_7 K4 1_555 1_555
O23_7 K4 1_555 1_555
O25_7 K4 1_555 1_555
O8_8 K4_2 1_555 1_555
O16_8 K4_2 1_555 1_555
O19_8 K4_2 1_555 1_555
O23_8 K4_2 1_555 1_555
O25_8 K4_2 1_555 1_555
O23_8 Co3_3 1_555 1_555
O13_7 C12_7 1_555 1_555
O19_8 Co3_3 1_555 1_555
O20_5 Co7 1_555 1_555
O22_3 Co3_3 1_555 1_555
O25_8 Co3_3 1_555 1_555
O19_5 Co4_3 1_555 1_555
Co3_3 O21_3 1_555 1_555
C12_7 O23_8 1_555 1_555
Co4_3 O21_3 1_555 1_555
Co4_3 O22_3 1_555 1_555
Co1_3 O3_3 1_555 1_555
Co7_2 O2_3 1_555 1_555
C1_3 C2_3 1_555 1_555
C2_3 C3_3 1_555 1_555
C3_3 C4_3 1_555 1_555
C4_3 C5_3 1_555 1_555
C5_3 O25_4 1_555 1_555
C6_3 C3_3 1_555 1_555
O2_3 C1_3 1_555 1_555
O3_3 C3_3 1_555 1_555
O23 Co1_3 1_555 1_555
O5_3 C6_3 1_555 1_555
O25_4 Co5_3 1_555 1_555
O26_4 C5_3 1_555 1_555
H1_3 C2_3 1_555 1_555
H2_3 C2_3 1_555 1_555
H3_3 C4_3 1_555 1_555
H4_3 C4_3 1_555 1_555
C7_7 C8_7 1_555 1_555
C8_7 C9_7 1_555 1_555
C9_7 C10_7 1_555 1_555
C10_7 C11_7 1_555 1_555
C11_7 O25 1_555 1_555
O19_4 C7_7 1_555 1_555
O10_3 C7_7 1_555 1_555
O11_3 Co1_3 1_555 1_555
O25 Co1_3 1_555 1_555
O26 C11_7 1_555 1_555
H5_7 C8_7 1_555 1_555
H6_7 C8_7 1_555 1_555
H7_7 C10_7 1_555 1_555
H8_7 C10_7 1_555 1_555
Co5_3 O3_3 1_555 1_555
Co8_4 O10_3 1_555 1_555
O19 Co1_3 1_555 1_555
C6_3 O23 1_555 1_555
C9_7 O11_3 1_555 1_555
O19_4 Co5_3 1_555 1_555
O11_3 Co5_3 1_555 1_555
O23_2 Co1_4 1_555 1_555
O5_4 C6_4 1_555 1_555
Co3_4 O11_4 1_555 1_555
C7_8 C8_8 1_555 1_555
C8_8 C9_8 1_555 1_555
C9_8 C10_8 1_555 1_555
C10_8 C11_8 1_555 1_555
C11_8 O25_2 1_555 1_555
C12_8 C9_8 1_555 1_555
O10_4 C7_8 1_555 1_555
O11_4 Co1_4 1_555 1_555
O23_7 Co3_4 1_555 1_555
O13_8 C12_8 1_555 1_555
O25_2 Co1_4 1_555 1_555
O26_2 C11_8 1_555 1_555
H5_8 C8_8 1_555 1_555
H6_8 C8_8 1_555 1_555
H7_8 C10_8 1_555 1_555
H8_8 C10_8 1_555 1_555
Co8 O10_4 1_555 1_555
O19_2 Co1_4 1_555 1_555
O19_7 Co3_4 1_555 1_555
O20_6 Co7_3 1_555 1_555
O21_4 Co1_4 1_555 1_555
O25_7 Co3_4 1_555 1_555
C6_4 O23_2 1_555 1_555
Co3_4 O21_4 1_555 1_555
C9_8 O11_4 1_555 1_555
C12_8 O23_7 1_555 1_555
Co7_4 O2_4 1_555 1_555
C1_4 C2_4 1_555 1_555
C2_4 C3_4 1_555 1_555
C3_4 C4_4 1_555 1_555
C4_4 C5_4 1_555 1_555
C5_4 O25_3 1_555 1_555
O19_6 C1_4 1_555 1_555
O2_4 C1_4 1_555 1_555
O3_4 C3_4 1_555 1_555
O25_3 Co5_4 1_555 1_555
O26_3 C5_4 1_555 1_555
H1_4 C2_4 1_555 1_555
H2_4 C2_4 1_555 1_555
H3_4 C4_4 1_555 1_555
H4_4 C4_4 1_555 1_555
Co5_4 O3_4 1_555 1_555
O19_6 Co4_4 1_555 1_555
O3_4 Co4_4 1_555 1_555
O19_3 Co5_4 1_555 1_555
Co4_4 O22_4 1_555 1_555
Co5_4 O22_4 1_555 1_555
C7_9 C8_9 1_555 1_555
C8_9 C9_9 1_555 1_555
C9_9 C10_9 1_555 1_555
C10_9 C11_9 1_555 1_555
C11_9 O25_8 1_555 1_555
C12_9 C9_9 1_555 1_555
O20_5 C7_9 1_555 1_555
O23_5 Co4_3 1_555 1_555
O13_9 C12_9 1_555 1_555
O27_4 C11_9 1_555 1_555
H5_9 C8_9 1_555 1_555
H6_9 C8_9 1_555 1_555
H7_9 C10_9 1_555 1_555
H8_9 C10_9 1_555 1_555
O20_7 Co8_3 1_555 1_555
O25_5 Co4_3 1_555 1_555
C9_9 O21_3 1_555 1_555
C12_9 O23_5 1_555 1_555
C7_10 C8_10 1_555 1_555
C8_10 C9_10 1_555 1_555
C9_10 C10_10 1_555 1_555
C10_10 C11_10 1_555 1_555
C11_10 O25_7 1_555 1_555
O19_2 C7_10 1_555 1_555
O20_6 C7_10 1_555 1_555
O27_3 C11_10 1_555 1_555
H5_10 C8_10 1_555 1_555
H6_10 C8_10 1_555 1_555
H7_10 C10_10 1_555 1_555
H8_10 C10_10 1_555 1_555
C9_10 O21_4 1_555 1_555
O23_6 Co4_4 1_555 1_555
O13_10 C12_10 1_555 1_555
O20_8 Co8_2 1_555 1_555
O25_6 Co4_4 1_555 1_555
C12_10 O23_6 1_555 1_555
C7_11 C8_11 1_555 1_555
C8_11 C9_11 1_555 1_555
C9_11 C10_11 1_555 1_555
C10_11 C11_11 1_555 1_555
C11_11 O25_5 1_555 1_555
O19_8 C7_11 1_555 1_555
O20_7 C7_11 1_555 1_555
O27 C11_11 1_555 1_555
H5_11 C8_11 1_555 1_555
H6_11 C8_11 1_555 1_555
H7_11 C10_11 1_555 1_555
H8_11 C10_11 1_555 1_555
C9_11 O22_3 1_555 1_555
O23_4 Co5_3 1_555 1_555
O13_11 C12_11 1_555 1_555
C12_11 O23_4 1_555 1_555
C7_12 C8_12 1_555 1_555
C8_12 C9_12 1_555 1_555
C9_12 C10_12 1_555 1_555
C10_12 C11_12 1_555 1_555
C11_12 O25_6 1_555 1_555
C12_12 C9_12 1_555 1_555
O20_8 C7_12 1_555 1_555
O23_3 Co5_4 1_555 1_555
O13_12 C12_12 1_555 1_555
O27_2 C11_12 1_555 1_555
H5_12 C8_12 1_555 1_555
H6_12 C8_12 1_555 1_555
H7_12 C10_12 1_555 1_555
H8_12 C10_12 1_555 1_555
C9_12 O22_4 1_555 1_555
C12_12 O23_3 1_555 1_555

#END
