
###############################################################################
#
# This file contains modified crystal structure data generated from the
# MOF subset of the Cambridge Structural Database (CSD) v543 
# hosted by the Cambridge Crystallographic Data Centre (CCDC).
#
# This work is licensed under the Creative Commons
# Attribution-NonCommercial-ShareAlike 4.0 International License.
# To view a copy of this license, visit
# http://creativecommons.org/licenses/by-nc-sa/4.0/
# or send a letter to
# Creative Commons, PO Box 1866, Mountain View, CA 94042, USA.
#
# CIF created using the CSD Python API on 29 September 2022
# The structure has been converted into the P1 space group
# The structure has a 3D framework
# The original CSD entry RAZXIA is in the tetragonal crystal system
# The framework has been calculated to contain at least 10.0% void space
# The void calculation uses a probe of radius 1.32A, grid spacing 0.4
# H atom positions have been added when not included in the experimental data
# Generated hydrogen atom positions removed from atoms on special positions
#
###############################################################################

data_RAZXIA
_chemical_formula_moiety         '(C96 H144 Co30 K8 O120)n'
_symmetry_cell_setting           triclinic
_symmetry_space_group_name_H-M   'P 1'
_symmetry_Int_Tables_number      1
_space_group_name_Hall           'P 1'
loop_
_symmetry_equiv_pos_site_id
_symmetry_equiv_pos_as_xyz
1 x,y,z
_cell_length_a                   12.9064(4)
_cell_length_b                   12.9064(4)
_cell_length_c                   30.2416(15)
_cell_angle_alpha                90
_cell_angle_beta                 90
_cell_angle_gamma                90
_cell_volume                     5037.5
loop_
_atom_site_label
_atom_site_type_symbol
_atom_site_fract_x
_atom_site_fract_y
_atom_site_fract_z
Co4 Co 0.0000 0.0000 0.807871(6)
Co1 Co 0.0000 0.5000 0.057871(6)
Co2 Co 0.049480(11) 0.104660(11) 0.040330(4)
K1 K 0.16459(3) 0.2500 0.1250
C1 C 0.08289(8) 0.31751(9) 0.01335(3)
O1 O 0.03907(6) 0.26331(6) 0.04238(2)
O2 O 0.08053(6) 0.41680(7) 0.01460(3)
O3 O 0.31153(15) 0.36882(15) 0.08322(6)
O10 O 0.03907(6) 0.23669(6) 0.20762(2)
O12 O 0.31153(15) 0.13118(15) 0.16678(6)
O14 O 0.00928(6) 0.10963(6) 0.10902(2)
O15 O 0.00928(6) 0.39037(6) 0.14098(2)
O19 O 0.11053(6) 0.57104(6) 0.09111(2)
O21 O 0.19942(6) 0.10537(6) 0.06166(3)
O22 O 0.19942(6) 0.39463(6) 0.18834(3)
O28 O 0.09973(6) 0.94520(5) 0.02867(2)
C2 C 0.14386(9) 0.26873(9) 0.97676(4)
H1 H 0.1712 0.3230 0.9579
H2 H 0.2023 0.2320 0.9895
C3 C 0.08032(8) 0.19231(8) 0.94799(3)
C4 C 0.14990(9) 0.16647(9) 0.90790(3)
H3 H 0.2172 0.1445 0.9187
H4 H 0.1601 0.2291 0.8907
C5 C 0.10759(8) 0.08368(8) 0.87808(3)
O5 O 0.07104(6) 0.11053(6) 0.84111(2)
O8 O 0.05480(5) 0.09973(6) 0.97133(2)
Co4_2 Co 0.0000 1.0000 0.807871(6)
Co9 Co 0.104660(11) 0.950520(11) 0.959670(4)
K6 K 0.2500 0.83541(3) 0.8750
C12 C 0.01904(9) 0.75521(9) 0.93203(3)
O20 O 0.10537(6) 0.80058(6) 0.93834(3)
O24 O 0.01122(7) 0.66642(7) 0.91489(3)
H13 H 0.0341619 0.329772 0.888425
O4 O 0.10963(6) 0.99072(6) 0.89098(2)
O29 O 0.90027(6) 0.05480(5) 0.02867(2)
Co4_3 Co 1.0000 0.0000 0.807871(6)
Co8 Co 0.895340(11) 0.049480(11) 0.959670(4)
K5 K 0.7500 0.16459(3) 0.8750
O13 O 0.89037(6) 0.00928(6) 0.89098(2)
Co1_2 Co 1.0000 0.5000 0.057871(6)
Co5 Co 0.950520(11) 0.895340(11) 0.040330(4)
K4 K 0.83541(3) 0.7500 0.1250
C7 C 0.91711(8) 0.68249(9) 0.01335(3)
O9 O 0.96093(6) 0.73669(6) 0.04238(2)
O11 O 0.91947(6) 0.58320(7) 0.01460(3)
O16 O 0.99072(6) 0.89037(6) 0.10902(2)
O18 O 0.88947(6) 0.42896(6) 0.09111(2)
O23 O 0.80058(6) 0.89463(6) 0.06166(3)
C6 C 0.98096(9) 0.24479(9) 0.93203(3)
O6 O 0.89463(6) 0.19942(6) 0.93834(3)
O7 O 0.98878(7) 0.33358(7) 0.91489(3)
Co4_4 Co 1.0000 1.0000 0.807871(6)
C8 C 0.85614(9) 0.73127(9) 0.97676(4)
H5 H 0.8288 0.6770 0.9579
H6 H 0.7977 0.7680 0.9895
C9 C 0.91968(8) 0.80769(8) 0.94799(3)
C10 C 0.85010(9) 0.83353(9) 0.90790(3)
H7 H 0.7828 0.8555 0.9187
H8 H 0.8399 0.7709 0.8907
C11 C 0.89241(8) 0.91632(8) 0.87808(3)
O17 O 0.92896(6) 0.88947(6) 0.84111(2)
O25 O 0.94520(5) 0.90027(6) 0.97133(2)
O3_2 O 0.68847(15) 0.63118(15) 0.08322(6)
O10_2 O 0.96093(6) 0.76331(6) 0.20762(2)
O12_2 O 0.68847(15) 0.86882(15) 0.16678(6)
O15_2 O 0.99072(6) 0.60963(6) 0.14098(2)
O22_2 O 0.80058(6) 0.60537(6) 0.18834(3)
H13_2 H 0.965838 0.670228 0.888425
Co4_5 Co -0.0000 -0.0000 0.192129(6)
Co4_6 Co 0.0000 1.0000 0.192129(6)
C6_2 C 0.24479(9) 0.01904(9) 0.06797(3)
O7_2 O 0.33358(7) 0.01122(7) 0.08511(3)
Co4_7 Co 1.0000 -0.0000 0.192129(6)
C8_2 C 0.73127(9) 0.14386(9) 0.02324(4)
H5_2 H 0.6770 0.1712 0.0421
H6_2 H 0.7680 0.2023 0.0105
C9_2 C 0.80769(8) 0.08032(8) 0.05201(3)
C10_2 C 0.83353(9) 0.14990(9) 0.09210(3)
H7_2 H 0.8555 0.2172 0.0813
H8_2 H 0.7709 0.1601 0.1093
C11_2 C 0.91632(8) 0.10759(8) 0.12192(3)
O17_2 O 0.88947(6) 0.07104(6) 0.15889(2)
Co1_3 Co 0.5000 0.0000 0.942129(6)
C7_2 C 0.68249(9) 0.08289(8) 0.98665(3)
O9_2 O 0.73669(6) 0.03907(6) 0.95762(2)
O11_2 O 0.58320(7) 0.08053(6) 0.98540(3)
O18_2 O 0.42896(6) 0.11053(6) 0.90889(2)
C2_2 C 0.26873(9) 0.85614(9) 0.02324(4)
H1_2 H 0.3230 0.8288 0.0421
H2_2 H 0.2320 0.7977 0.0105
C3_2 C 0.19231(8) 0.91968(8) 0.05201(3)
C4_2 C 0.16647(9) 0.85010(9) 0.09210(3)
H3_2 H 0.1445 0.7828 0.0813
H4_2 H 0.2291 0.8399 0.1093
C5_2 C 0.08368(8) 0.89241(8) 0.12192(3)
O5_2 O 0.11053(6) 0.92896(6) 0.15889(2)
Co4_8 Co 1.0000 1.0000 0.192129(6)
C12_2 C 0.75521(9) 0.98096(9) 0.06797(3)
O24_2 O 0.66642(7) 0.98878(7) 0.08511(3)
H13_3 H 0.329772 0.965838 0.111575
Co1_4 Co 0.5000 1.0000 0.942129(6)
C1_2 C 0.31751(9) 0.91711(8) 0.98665(3)
O1_2 O 0.26331(6) 0.96093(6) 0.95762(2)
O2_2 O 0.41680(7) 0.91947(6) 0.98540(3)
O3_3 O 0.36882(15) 0.68847(15) 0.91678(6)
O10_3 O 0.23669(6) 0.96093(6) 0.79238(2)
O12_3 O 0.13118(15) 0.68847(15) 0.83322(6)
O15_3 O 0.39037(6) 0.99072(6) 0.85902(2)
O19_2 O 0.57104(6) 0.88947(6) 0.90889(2)
O22_3 O 0.39463(6) 0.80058(6) 0.81166(3)
H13_4 H 0.670228 0.0341619 0.111575
O3_4 O 0.63118(15) 0.31153(15) 0.91678(6)
O10_4 O 0.76331(6) 0.03907(6) 0.79238(2)
O12_4 O 0.86882(15) 0.31153(15) 0.83322(6)
O15_4 O 0.60963(6) 0.00928(6) 0.85902(2)
O22_4 O 0.60537(6) 0.19942(6) 0.81166(3)
Co8_2 Co 0.604660(11) 0.049480(11) 0.790330(4)
O29_2 O 0.59973(6) 0.05480(5) 0.72133(2)
Co1_5 Co 0.5000 0.5000 0.692129(6)
Co2_2 Co 0.450520(11) 0.104660(11) 0.709670(4)
K1_2 K 0.33541(3) 0.2500 0.6250
C1_3 C 0.41711(8) 0.31751(9) 0.73665(3)
C2_3 C 0.35614(9) 0.26873(9) 0.77324(4)
H1_3 H 0.3288 0.3230 0.7921
H2_3 H 0.2977 0.2320 0.7605
C3_3 C 0.41968(8) 0.19231(8) 0.80201(3)
C4_3 C 0.35010(9) 0.16647(9) 0.84210(3)
H3_3 H 0.2828 0.1445 0.8313
H4_3 H 0.3399 0.2291 0.8593
C5_3 C 0.39241(8) 0.08368(8) 0.87192(3)
C6_3 C 0.51904(9) 0.24479(9) 0.81797(3)
O1_3 O 0.46093(6) 0.26331(6) 0.70762(2)
O2_3 O 0.41947(6) 0.41680(7) 0.73540(3)
O3_5 O 0.18847(15) 0.36882(15) 0.66678(6)
O7_3 O 0.51122(7) 0.33358(7) 0.83511(3)
O8_2 O 0.44520(5) 0.09973(6) 0.77867(2)
Co5_2 Co 0.549480(11) 0.895340(11) 0.709670(4)
Co9_2 Co 0.395340(11) 0.950520(11) 0.790330(4)
K4_2 K 0.66459(3) 0.7500 0.6250
C7_3 C 0.58289(8) 0.68249(9) 0.73665(3)
C8_3 C 0.64386(9) 0.73127(9) 0.77324(4)
H5_3 H 0.6712 0.6770 0.7921
H6_3 H 0.7023 0.7680 0.7605
C9_3 C 0.58032(8) 0.80769(8) 0.80201(3)
C10_3 C 0.64990(9) 0.83353(9) 0.84210(3)
H7_3 H 0.7172 0.8555 0.8313
H8_3 H 0.6601 0.7709 0.8593
C11_3 C 0.60759(8) 0.91632(8) 0.87192(3)
C12_3 C 0.48096(9) 0.75521(9) 0.81797(3)
O9_3 O 0.53907(6) 0.73669(6) 0.70762(2)
O10_5 O 0.46093(6) 0.23669(6) 0.54238(2)
O11_3 O 0.58053(6) 0.58320(7) 0.73540(3)
O12_5 O 0.18847(15) 0.13118(15) 0.58322(6)
O14_2 O 0.49072(6) 0.10963(6) 0.64098(2)
O15_5 O 0.49072(6) 0.39037(6) 0.60902(2)
O16_2 O 0.50928(6) 0.89037(6) 0.64098(2)
O18_3 O 0.61053(6) 0.42896(6) 0.65889(2)
O19_3 O 0.38947(6) 0.57104(6) 0.65889(2)
O21_2 O 0.30058(6) 0.10537(6) 0.68834(3)
O22_5 O 0.30058(6) 0.39463(6) 0.56166(3)
O23_2 O 0.69942(6) 0.89463(6) 0.68834(3)
O24_3 O 0.48878(7) 0.66642(7) 0.83511(3)
O25_2 O 0.55480(5) 0.90027(6) 0.77867(2)
O28_2 O 0.40027(6) 0.94520(5) 0.72133(2)
H13_5 H 0.465838 0.329772 0.861575
O3_6 O 0.81153(15) 0.63118(15) 0.66678(6)
O10_6 O 0.53907(6) 0.76331(6) 0.54238(2)
O12_6 O 0.81153(15) 0.86882(15) 0.58322(6)
O15_6 O 0.50928(6) 0.60963(6) 0.60902(2)
O22_6 O 0.69942(6) 0.60537(6) 0.56166(3)
H13_6 H 0.534162 0.670228 0.861575
C6_4 C 0.25521(9) 0.01904(9) 0.68203(3)
O7_4 O 0.16642(7) 0.01122(7) 0.66489(3)
Co3 Co 0.5000 0.0000 0.557871(6)
C1_4 C 0.18249(9) 0.91711(8) 0.76335(3)
C2_4 C 0.23127(9) 0.85614(9) 0.72676(4)
H1_4 H 0.1770 0.8288 0.7079
H2_4 H 0.2680 0.7977 0.7395
C3_4 C 0.30769(8) 0.91968(8) 0.69799(3)
C4_4 C 0.33353(9) 0.85010(9) 0.65790(3)
H3_4 H 0.3555 0.7828 0.6687
H4_4 H 0.2709 0.8399 0.6407
C5_4 C 0.41632(8) 0.89241(8) 0.62808(3)
O2_4 O 0.08320(7) 0.91947(6) 0.76460(3)
O5_3 O 0.38947(6) 0.92896(6) 0.59111(2)
Co3_2 Co 0.5000 1.0000 0.557871(6)
H13_7 H 0.170228 0.965838 0.638425
C7_4 C 0.81751(9) 0.08289(8) 0.76335(3)
C8_4 C 0.76873(9) 0.14386(9) 0.72676(4)
H5_4 H 0.8230 0.1712 0.7079
H6_4 H 0.7320 0.2023 0.7395
C9_4 C 0.69231(8) 0.08032(8) 0.69799(3)
C10_4 C 0.66647(9) 0.14990(9) 0.65790(3)
H7_4 H 0.6445 0.2172 0.6687
H8_4 H 0.7291 0.1601 0.6407
C11_4 C 0.58368(8) 0.10759(8) 0.62808(3)
O11_4 O 0.91680(7) 0.08053(6) 0.76460(3)
O17_3 O 0.61053(6) 0.07104(6) 0.59111(2)
C12_4 C 0.74479(9) 0.98096(9) 0.68203(3)
O24_4 O 0.83358(7) 0.98878(7) 0.66489(3)
H13_8 H 0.829772 0.0341619 0.638425
Co4_9 Co 0.5000 0.5000 0.307871(6)
Co5_3 Co 0.450520(11) 0.395340(11) 0.540330(4)
Co8_3 Co 0.395340(11) 0.549480(11) 0.459670(4)
Co9_3 Co 0.604660(11) 0.450520(11) 0.459670(4)
K5_2 K 0.2500 0.66459(3) 0.3750
K6_2 K 0.7500 0.33541(3) 0.3750
C7_5 C 0.41711(8) 0.18249(9) 0.51335(3)
C8_5 C 0.35614(9) 0.23127(9) 0.47676(4)
H5_5 H 0.3288 0.1770 0.4579
H6_5 H 0.2977 0.2680 0.4895
C9_5 C 0.41968(8) 0.30769(8) 0.44799(3)
C10_5 C 0.35010(9) 0.33353(9) 0.40790(3)
H7_5 H 0.2828 0.3555 0.4187
H8_5 H 0.3399 0.2709 0.3907
C11_5 C 0.39241(8) 0.41632(8) 0.37808(3)
C12_5 C 0.51904(9) 0.25521(9) 0.43203(3)
O11_5 O 0.41947(6) 0.08320(7) 0.51460(3)
O13_2 O 0.39037(6) 0.50928(6) 0.39098(2)
O17_4 O 0.42896(6) 0.38947(6) 0.34111(2)
O20_2 O 0.60537(6) 0.30058(6) 0.43834(3)
O24_5 O 0.51122(7) 0.16642(7) 0.41489(3)
O25_3 O 0.44520(5) 0.40027(6) 0.47133(2)
O28_3 O 0.59973(6) 0.44520(5) 0.52867(2)
O29_3 O 0.40027(6) 0.55480(5) 0.52867(2)
Co2_3 Co 0.549480(11) 0.604660(11) 0.540330(4)
C1_5 C 0.58289(8) 0.81751(9) 0.51335(3)
C2_5 C 0.64386(9) 0.76873(9) 0.47676(4)
H1_5 H 0.6712 0.8230 0.4579
H2_5 H 0.7023 0.7320 0.4895
C3_5 C 0.58032(8) 0.69231(8) 0.44799(3)
C4_5 C 0.64990(9) 0.66647(9) 0.40790(3)
H3_5 H 0.7172 0.6445 0.4187
H4_5 H 0.6601 0.7291 0.3907
C5_5 C 0.60759(8) 0.58368(8) 0.37808(3)
C6_5 C 0.48096(9) 0.74479(9) 0.43203(3)
O2_5 O 0.58053(6) 0.91680(7) 0.51460(3)
O4_2 O 0.60963(6) 0.49072(6) 0.39098(2)
O5_4 O 0.57104(6) 0.61053(6) 0.34111(2)
O6_2 O 0.39463(6) 0.69942(6) 0.43834(3)
O7_5 O 0.48878(7) 0.83358(7) 0.41489(3)
O8_3 O 0.55480(5) 0.59973(6) 0.47133(2)
H13_9 H 0.534162 0.829772 0.388425
H13_10 H 0.465838 0.170228 0.388425
Co1_6 Co -0.0000 0.5000 0.442129(6)
C7_6 C 0.18249(9) 0.58289(8) 0.48665(3)
C8_6 C 0.23127(9) 0.64386(9) 0.52324(4)
H5_6 H 0.1770 0.6712 0.5421
H6_6 H 0.2680 0.7023 0.5105
C9_6 C 0.30769(8) 0.58032(8) 0.55201(3)
C10_6 C 0.33353(9) 0.64990(9) 0.59210(3)
H7_6 H 0.3555 0.7172 0.5813
H8_6 H 0.2709 0.6601 0.6093
C11_6 C 0.41632(8) 0.60759(8) 0.62192(3)
C12_6 C 0.25521(9) 0.48096(9) 0.56797(3)
O9_4 O 0.23669(6) 0.53907(6) 0.45762(2)
O11_6 O 0.08320(7) 0.58053(6) 0.48540(3)
O19_4 O 0.07104(6) 0.38947(6) 0.40889(2)
O24_6 O 0.16642(7) 0.48878(7) 0.58511(3)
Co1_7 Co 1.0000 0.5000 0.442129(6)
C1_6 C 0.81751(9) 0.41711(8) 0.48665(3)
C2_6 C 0.76873(9) 0.35614(9) 0.52324(4)
H1_6 H 0.8230 0.3288 0.5421
H2_6 H 0.7320 0.2977 0.5105
C3_6 C 0.69231(8) 0.41968(8) 0.55201(3)
C4_6 C 0.66647(9) 0.35010(9) 0.59210(3)
H3_6 H 0.6445 0.2828 0.5813
H4_6 H 0.7291 0.3399 0.6093
C5_6 C 0.58368(8) 0.39241(8) 0.62192(3)
C6_6 C 0.74479(9) 0.51904(9) 0.56797(3)
O1_4 O 0.76331(6) 0.46093(6) 0.45762(2)
O2_6 O 0.91680(7) 0.41947(6) 0.48540(3)
O3_7 O 0.86882(15) 0.18847(15) 0.41678(6)
O7_6 O 0.83358(7) 0.51122(7) 0.58511(3)
O10_7 O 0.73669(6) 0.46093(6) 0.29238(2)
O12_7 O 0.63118(15) 0.18847(15) 0.33322(6)
O15_7 O 0.89037(6) 0.49072(6) 0.35902(2)
O18_4 O 0.92896(6) 0.61053(6) 0.40889(2)
O22_7 O 0.89463(6) 0.30058(6) 0.31166(3)
H13_11 H 0.829772 0.465838 0.611575
O3_8 O 0.13118(15) 0.81153(15) 0.41678(6)
O10_8 O 0.26331(6) 0.53907(6) 0.29238(2)
O12_8 O 0.36882(15) 0.81153(15) 0.33322(6)
O15_8 O 0.10963(6) 0.50928(6) 0.35902(2)
O22_8 O 0.10537(6) 0.69942(6) 0.31166(3)
H13_12 H 0.170228 0.534162 0.611575
Co5_4 Co 0.049480(11) 0.395340(11) 0.209670(4)
Co8_4 Co 0.104660(11) 0.549480(11) 0.290330(4)
C7_7 C 0.08289(8) 0.18249(9) 0.23665(3)
C8_7 C 0.14386(9) 0.23127(9) 0.27324(4)
H5_7 H 0.1712 0.1770 0.2921
H6_7 H 0.2023 0.2680 0.2605
C9_7 C 0.08032(8) 0.30769(8) 0.30201(3)
C10_7 C 0.14990(9) 0.33353(9) 0.34210(3)
H7_7 H 0.2172 0.3555 0.3313
H8_7 H 0.1601 0.2709 0.3593
C11_7 C 0.10759(8) 0.41632(8) 0.37192(3)
O11_7 O 0.08053(6) 0.08320(7) 0.23540(3)
O25_4 O 0.05480(5) 0.40027(6) 0.27867(2)
O29_4 O 0.09973(6) 0.55480(5) 0.22133(2)
C6_7 C 0.01904(9) 0.74479(9) 0.31797(3)
O7_7 O 0.01122(7) 0.83358(7) 0.33511(3)
Co9_4 Co 0.895340(11) 0.450520(11) 0.290330(4)
C12_7 C 0.98096(9) 0.25521(9) 0.31797(3)
O24_7 O 0.98878(7) 0.16642(7) 0.33511(3)
O28_4 O 0.90027(6) 0.44520(5) 0.22133(2)
Co2_4 Co 0.950520(11) 0.604660(11) 0.209670(4)
C1_7 C 0.91711(8) 0.81751(9) 0.23665(3)
C2_7 C 0.85614(9) 0.76873(9) 0.27324(4)
H1_7 H 0.8288 0.8230 0.2921
H2_7 H 0.7977 0.7320 0.2605
C3_7 C 0.91968(8) 0.69231(8) 0.30201(3)
C4_7 C 0.85010(9) 0.66647(9) 0.34210(3)
H3_7 H 0.7828 0.6445 0.3313
H4_7 H 0.8399 0.7291 0.3593
C5_7 C 0.89241(8) 0.58368(8) 0.37192(3)
O2_7 O 0.91947(6) 0.91680(7) 0.23540(3)
O8_4 O 0.94520(5) 0.59973(6) 0.27867(2)
H13_13 H 0.965838 0.829772 0.361575
H13_14 H 0.0341619 0.170228 0.361575
C1_8 C 0.68249(9) 0.41711(8) 0.26335(3)
C2_8 C 0.73127(9) 0.35614(9) 0.22676(4)
H1_8 H 0.6770 0.3288 0.2079
H2_8 H 0.7680 0.2977 0.2395
C3_8 C 0.80769(8) 0.41968(8) 0.19799(3)
C4_8 C 0.83353(9) 0.35010(9) 0.15790(3)
H3_8 H 0.8555 0.2828 0.1687
H4_8 H 0.7709 0.3399 0.1407
C5_8 C 0.91632(8) 0.39241(8) 0.12808(3)
C6_8 C 0.75521(9) 0.51904(9) 0.18203(3)
O2_8 O 0.58320(7) 0.41947(6) 0.26460(3)
O7_8 O 0.66642(7) 0.51122(7) 0.16489(3)
C7_8 C 0.31751(9) 0.58289(8) 0.26335(3)
C8_8 C 0.26873(9) 0.64386(9) 0.22676(4)
H5_8 H 0.3230 0.6712 0.2079
H6_8 H 0.2320 0.7023 0.2395
C9_8 C 0.19231(8) 0.58032(8) 0.19799(3)
C10_8 C 0.16647(9) 0.64990(9) 0.15790(3)
H7_8 H 0.1445 0.7172 0.1687
H8_8 H 0.2291 0.6601 0.1407
C11_8 C 0.08368(8) 0.60759(8) 0.12808(3)
C12_8 C 0.24479(9) 0.48096(9) 0.18203(3)
O11_8 O 0.41680(7) 0.58053(6) 0.26460(3)
O24_8 O 0.33358(7) 0.48878(7) 0.16489(3)
H13_15 H 0.670228 0.465838 0.138425
H13_16 H 0.329772 0.534162 0.138425
loop_
_geom_bond_atom_site_label_1
_geom_bond_atom_site_label_2
_geom_bond_site_symmetry_1
_geom_bond_site_symmetry_2
Co1 O2 1_555 1_555
Co2 O1 1_555 1_555
K1 O1 1_555 1_555
O1 C1 1_555 1_555
O2 C1 1_555 1_555
O3 K1 1_555 1_555
O10 K1 1_555 1_555
O12 K1 1_555 1_555
O14 Co2 1_555 1_555
O15 K1 1_555 1_555
O19 Co1 1_555 1_555
O21 Co2 1_555 1_555
O22 K1 1_555 1_555
K1 O14 1_555 1_555
K1 O21 1_555 1_555
C2 H1 1_555 1_555
H2 C2 1_555 1_555
C3 C2 1_555 1_555
C4 C3 1_555 1_555
H3 C4 1_555 1_555
H4 C4 1_555 1_555
C5 C4 1_555 1_555
O5 C5 1_555 1_555
Co4 O5 1_555 1_555
Co9 O20 1_555 1_555
K6 O20 1_555 1_555
O20 C12 1_555 1_555
O24 C12 1_555 1_555
C3 O8 1_555 1_555
Co9 O4 1_555 1_555
K6 O4 1_555 1_555
Co8 O13 1_555 1_555
K5 O13 1_555 1_555
Co5 O9 1_555 1_555
K4 O9 1_555 1_555
O9 C7 1_555 1_555
O11 Co1_2 1_555 1_555
O16 Co5 1_555 1_555
O18 Co1_2 1_555 1_555
O23 Co5 1_555 1_555
K4 O16 1_555 1_555
K4 O23 1_555 1_555
C7 O11 1_555 1_555
O6 C6 1_555 1_555
O7 C6 1_555 1_555
Co4_4 O17 1_555 1_555
Co8 O6 1_555 1_555
K5 O6 1_555 1_555
C8 H5 1_555 1_555
H6 C8 1_555 1_555
C9 C8 1_555 1_555
C10 C9 1_555 1_555
H7 C10 1_555 1_555
H8 C10 1_555 1_555
C11 C10 1_555 1_555
O17 C11 1_555 1_555
C9 O25 1_555 1_555
O3_2 K4 1_555 1_555
O10_2 K4 1_555 1_555
O12_2 K4 1_555 1_555
O15_2 K4 1_555 1_555
O22_2 K4 1_555 1_555
O21 C6_2 1_555 1_555
O7_2 C6_2 1_555 1_555
Co4_7 O17_2 1_555 1_555
C8_2 H5_2 1_555 1_555
H6_2 C8_2 1_555 1_555
C9_2 C8_2 1_555 1_555
C10_2 C9_2 1_555 1_555
H7_2 C10_2 1_555 1_555
H8_2 C10_2 1_555 1_555
C11_2 C10_2 1_555 1_555
O17_2 C11_2 1_555 1_555
C9_2 O29 1_555 1_555
Co8 O9_2 1_555 1_555
K5 O9_2 1_555 1_555
O9_2 C7_2 1_555 1_555
O11_2 Co1_3 1_555 1_555
O18_2 Co1_3 1_555 1_555
C7_2 O11_2 1_555 1_555
C2_2 H1_2 1_555 1_555
H2_2 C2_2 1_555 1_555
C3_2 C2_2 1_555 1_555
C4_2 C3_2 1_555 1_555
H3_2 C4_2 1_555 1_555
H4_2 C4_2 1_555 1_555
C5_2 C4_2 1_555 1_555
O5_2 C5_2 1_555 1_555
Co4_6 O5_2 1_555 1_555
O23 C12_2 1_555 1_555
O24_2 C12_2 1_555 1_555
C3_2 O28 1_555 1_555
Co1_4 O2_2 1_555 1_555
Co9 O1_2 1_555 1_555
K6 O1_2 1_555 1_555
O1_2 C1_2 1_555 1_555
O2_2 C1_2 1_555 1_555
O3_3 K6 1_555 1_555
O10_3 K6 1_555 1_555
O12_3 K6 1_555 1_555
O15_3 K6 1_555 1_555
O19_2 Co1_4 1_555 1_555
O22_3 K6 1_555 1_555
O3_4 K5 1_555 1_555
O10_4 K5 1_555 1_555
O12_4 K5 1_555 1_555
O15_4 K5 1_555 1_555
O22_4 K5 1_555 1_555
Co8_2 O15_4 1_555 1_555
Co8_2 O29_2 1_555 1_555
Co1_5 O2_3 1_555 1_555
Co2_2 O1_3 1_555 1_555
K1_2 O1_3 1_555 1_555
C1_3 C2_3 1_555 1_555
C2_3 H1_3 1_555 1_555
H2_3 C2_3 1_555 1_555
C3_3 C2_3 1_555 1_555
C4_3 C3_3 1_555 1_555
H3_3 C4_3 1_555 1_555
H4_3 C4_3 1_555 1_555
C5_3 C4_3 1_555 1_555
C6_3 C3_3 1_555 1_555
O1_3 C1_3 1_555 1_555
O2_3 C1_3 1_555 1_555
O3_5 K1_2 1_555 1_555
O18_2 C5_3 1_555 1_555
O22_4 C6_3 1_555 1_555
O7_3 C6_3 1_555 1_555
O8_2 Co2_2 1_555 1_555
Co5_2 O9_3 1_555 1_555
Co8_2 O22_4 1_555 1_555
Co9_2 O22_3 1_555 1_555
K4_2 O9_3 1_555 1_555
C7_3 C8_3 1_555 1_555
C8_3 H5_3 1_555 1_555
H6_3 C8_3 1_555 1_555
C9_3 C8_3 1_555 1_555
C10_3 C9_3 1_555 1_555
H7_3 C10_3 1_555 1_555
H8_3 C10_3 1_555 1_555
C11_3 C10_3 1_555 1_555
C12_3 C9_3 1_555 1_555
O9_3 C7_3 1_555 1_555
O10_5 K1_2 1_555 1_555
O11_3 Co1_5 1_555 1_555
O12_5 K1_2 1_555 1_555
O14_2 Co2_2 1_555 1_555
O15_5 K1_2 1_555 1_555
O16_2 Co5_2 1_555 1_555
O19_2 C11_3 1_555 1_555
O18_3 Co1_5 1_555 1_555
O19_3 Co1_5 1_555 1_555
O22_3 C12_3 1_555 1_555
O21_2 Co2_2 1_555 1_555
O22_5 K1_2 1_555 1_555
O23_2 Co5_2 1_555 1_555
O24_3 C12_3 1_555 1_555
O25_2 Co5_2 1_555 1_555
O29_2 Co2_2 1_555 1_555
O28_2 Co5_2 1_555 1_555
K1_2 O14_2 1_555 1_555
K1_2 O21_2 1_555 1_555
C3_3 O8_2 1_555 1_555
O8_2 Co8_2 1_555 1_555
Co9_2 O25_2 1_555 1_555
Co9_2 O28_2 1_555 1_555
K4_2 O16_2 1_555 1_555
K4_2 O23_2 1_555 1_555
C7_3 O11_3 1_555 1_555
C9_3 O25_2 1_555 1_555
O7_3 H13_5 1_555 1_555
Co9_2 O15_3 1_555 1_555
O3_6 K4_2 1_555 1_555
O10_6 K4_2 1_555 1_555
O12_6 K4_2 1_555 1_555
O15_6 K4_2 1_555 1_555
O22_6 K4_2 1_555 1_555
O24_3 H13_6 1_555 1_555
O21_2 C6_4 1_555 1_555
O7_4 C6_4 1_555 1_555
Co4_2 O2_4 1_555 1_555
Co9_2 O10_3 1_555 1_555
C1_4 C2_4 1_555 1_555
C2_4 H1_4 1_555 1_555
H2_4 C2_4 1_555 1_555
C3_4 C2_4 1_555 1_555
C4_4 C3_4 1_555 1_555
H3_4 C4_4 1_555 1_555
H4_4 C4_4 1_555 1_555
C5_4 C4_4 1_555 1_555
O10_3 C1_4 1_555 1_555
O2_4 C1_4 1_555 1_555
O16_2 C5_4 1_555 1_555
O5_3 C5_4 1_555 1_555
Co3_2 O5_3 1_555 1_555
C3_4 O28_2 1_555 1_555
Co3 O17_3 1_555 1_555
Co8_2 O10_4 1_555 1_555
C7_4 C8_4 1_555 1_555
C8_4 H5_4 1_555 1_555
H6_4 C8_4 1_555 1_555
C9_4 C8_4 1_555 1_555
C10_4 C9_4 1_555 1_555
H7_4 C10_4 1_555 1_555
H8_4 C10_4 1_555 1_555
C11_4 C10_4 1_555 1_555
O10_4 C7_4 1_555 1_555
O11_4 Co4_3 1_555 1_555
O14_2 C11_4 1_555 1_555
O17_3 C11_4 1_555 1_555
C7_4 O11_4 1_555 1_555
C9_4 O29_2 1_555 1_555
O23_2 C12_4 1_555 1_555
O24_4 C12_4 1_555 1_555
Co4_9 O17_4 1_555 1_555
Co5_3 O10_5 1_555 1_555
Co8_3 O13_2 1_555 1_555
Co9_3 O20_2 1_555 1_555
K5_2 O13_2 1_555 1_555
K6_2 O20_2 1_555 1_555
C7_5 C8_5 1_555 1_555
C8_5 H5_5 1_555 1_555
H6_5 C8_5 1_555 1_555
C9_5 C8_5 1_555 1_555
C10_5 C9_5 1_555 1_555
H7_5 C10_5 1_555 1_555
H8_5 C10_5 1_555 1_555
C11_5 C10_5 1_555 1_555
C12_5 C9_5 1_555 1_555
O10_5 C7_5 1_555 1_555
O11_5 Co3 1_555 1_555
O13_2 C11_5 1_555 1_555
O15_5 Co5_3 1_555 1_555
O17_4 C11_5 1_555 1_555
O20_2 C12_5 1_555 1_555
O22_5 Co5_3 1_555 1_555
O24_5 C12_5 1_555 1_555
O25_3 Co5_3 1_555 1_555
O28_3 Co5_3 1_555 1_555
O29_3 Co5_3 1_555 1_555
Co8_3 O25_3 1_555 1_555
Co8_3 O29_3 1_555 1_555
Co9_3 O25_3 1_555 1_555
Co9_3 O28_3 1_555 1_555
C7_5 O11_5 1_555 1_555
C9_5 O25_3 1_555 1_555
Co3_2 O2_5 1_555 1_555
Co2_3 O10_6 1_555 1_555
C1_5 C2_5 1_555 1_555
C2_5 H1_5 1_555 1_555
H2_5 C2_5 1_555 1_555
C3_5 C2_5 1_555 1_555
C4_5 C3_5 1_555 1_555
H3_5 C4_5 1_555 1_555
H4_5 C4_5 1_555 1_555
C5_5 C4_5 1_555 1_555
C6_5 C3_5 1_555 1_555
O10_6 C1_5 1_555 1_555
O2_5 C1_5 1_555 1_555
O4_2 C5_5 1_555 1_555
O5_4 C5_5 1_555 1_555
O6_2 C6_5 1_555 1_555
O7_5 C6_5 1_555 1_555
O8_3 Co2_3 1_555 1_555
Co4_9 O5_4 1_555 1_555
Co9_3 O4_2 1_555 1_555
Co8_3 O6_2 1_555 1_555
K6_2 O4_2 1_555 1_555
K5_2 O6_2 1_555 1_555
O15_6 Co2_3 1_555 1_555
O22_6 Co2_3 1_555 1_555
O28_3 Co2_3 1_555 1_555
O29_3 Co2_3 1_555 1_555
C3_5 O8_3 1_555 1_555
O8_3 Co9_3 1_555 1_555
O8_3 Co8_3 1_555 1_555
O7_5 H13_9 1_555 1_555
O24_5 H13_10 1_555 1_555
Co8_3 O9_4 1_555 1_555
K5_2 O9_4 1_555 1_555
C7_6 C8_6 1_555 1_555
C8_6 H5_6 1_555 1_555
H6_6 C8_6 1_555 1_555
C9_6 C8_6 1_555 1_555
C10_6 C9_6 1_555 1_555
H7_6 C10_6 1_555 1_555
H8_6 C10_6 1_555 1_555
C11_6 C10_6 1_555 1_555
C12_6 C9_6 1_555 1_555
O9_4 C7_6 1_555 1_555
O11_6 Co1_6 1_555 1_555
O15_6 C11_6 1_555 1_555
O19_3 C11_6 1_555 1_555
O19_4 Co1_6 1_555 1_555
O22_5 C12_6 1_555 1_555
O24_6 C12_6 1_555 1_555
C7_6 O11_6 1_555 1_555
C9_6 O29_3 1_555 1_555
Co1_7 O2_6 1_555 1_555
Co9_3 O1_4 1_555 1_555
K6_2 O1_4 1_555 1_555
C1_6 C2_6 1_555 1_555
C2_6 H1_6 1_555 1_555
H2_6 C2_6 1_555 1_555
C3_6 C2_6 1_555 1_555
C4_6 C3_6 1_555 1_555
H3_6 C4_6 1_555 1_555
H4_6 C4_6 1_555 1_555
C5_6 C4_6 1_555 1_555
C6_6 C3_6 1_555 1_555
O1_4 C1_6 1_555 1_555
O2_6 C1_6 1_555 1_555
O3_7 K6_2 1_555 1_555
O15_5 C5_6 1_555 1_555
O18_3 C5_6 1_555 1_555
O22_6 C6_6 1_555 1_555
O7_6 C6_6 1_555 1_555
O10_7 K6_2 1_555 1_555
O12_7 K6_2 1_555 1_555
O15_7 K6_2 1_555 1_555
O18_4 Co1_7 1_555 1_555
O22_7 K6_2 1_555 1_555
C3_6 O28_3 1_555 1_555
O7_6 H13_11 1_555 1_555
O3_8 K5_2 1_555 1_555
O10_8 K5_2 1_555 1_555
O12_8 K5_2 1_555 1_555
O15_8 K5_2 1_555 1_555
O22_8 K5_2 1_555 1_555
O24_6 H13_12 1_555 1_555
Co5_4 O10 1_555 1_555
Co8_4 O15_8 1_555 1_555
C7_7 C8_7 1_555 1_555
C8_7 H5_7 1_555 1_555
H6_7 C8_7 1_555 1_555
C9_7 C8_7 1_555 1_555
C10_7 C9_7 1_555 1_555
H7_7 C10_7 1_555 1_555
H8_7 C10_7 1_555 1_555
C11_7 C10_7 1_555 1_555
O10 C7_7 1_555 1_555
O11_7 Co4_5 1_555 1_555
O15_8 C11_7 1_555 1_555
O15 Co5_4 1_555 1_555
O19_4 C11_7 1_555 1_555
O22 Co5_4 1_555 1_555
O25_4 Co5_4 1_555 1_555
O29_4 Co5_4 1_555 1_555
Co8_4 O25_4 1_555 1_555
Co8_4 O29_4 1_555 1_555
C7_7 O11_7 1_555 1_555
C9_7 O25_4 1_555 1_555
O22_8 C6_7 1_555 1_555
O7_7 C6_7 1_555 1_555
Co8_4 O22_8 1_555 1_555
Co9_4 O22_7 1_555 1_555
O22_7 C12_7 1_555 1_555
O24_7 C12_7 1_555 1_555
Co9_4 O28_4 1_555 1_555
Co4_8 O2_7 1_555 1_555
Co2_4 O10_2 1_555 1_555
C1_7 C2_7 1_555 1_555
C2_7 H1_7 1_555 1_555
H2_7 C2_7 1_555 1_555
C3_7 C2_7 1_555 1_555
C4_7 C3_7 1_555 1_555
H3_7 C4_7 1_555 1_555
H4_7 C4_7 1_555 1_555
C5_7 C4_7 1_555 1_555
O10_2 C1_7 1_555 1_555
O2_7 C1_7 1_555 1_555
O15_7 C5_7 1_555 1_555
O18_4 C5_7 1_555 1_555
O8_4 Co2_4 1_555 1_555
Co9_4 O15_7 1_555 1_555
O15_2 Co2_4 1_555 1_555
O22_2 Co2_4 1_555 1_555
O28_4 Co2_4 1_555 1_555
C3_7 O8_4 1_555 1_555
O8_4 Co9_4 1_555 1_555
Co4_9 O2_8 1_555 1_555
Co9_4 O10_7 1_555 1_555
C1_8 C2_8 1_555 1_555
C2_8 H1_8 1_555 1_555
H2_8 C2_8 1_555 1_555
C3_8 C2_8 1_555 1_555
C4_8 C3_8 1_555 1_555
H3_8 C4_8 1_555 1_555
H4_8 C4_8 1_555 1_555
C5_8 C4_8 1_555 1_555
C6_8 C3_8 1_555 1_555
O10_7 C1_8 1_555 1_555
O2_8 C1_8 1_555 1_555
O18 C5_8 1_555 1_555
O22_2 C6_8 1_555 1_555
O7_8 C6_8 1_555 1_555
Co8_4 O10_8 1_555 1_555
C7_8 C8_8 1_555 1_555
C8_8 H5_8 1_555 1_555
H6_8 C8_8 1_555 1_555
C9_8 C8_8 1_555 1_555
C10_8 C9_8 1_555 1_555
H7_8 C10_8 1_555 1_555
H8_8 C10_8 1_555 1_555
C11_8 C10_8 1_555 1_555
C12_8 C9_8 1_555 1_555
O10_8 C7_8 1_555 1_555
O11_8 Co4_9 1_555 1_555
O19 C11_8 1_555 1_555
O22 C12_8 1_555 1_555
O24_8 C12_8 1_555 1_555
C3_8 O28_4 1_555 1_555
C7_8 O11_8 1_555 1_555
C9_8 O29_4 1_555 1_555
O7_8 H13_15 1_555 1_555
O24_8 H13_16 1_555 1_555

#END
