
###############################################################################
#
# This file contains modified crystal structure data generated from the
# MOF subset of the Cambridge Structural Database (CSD) v543 
# hosted by the Cambridge Crystallographic Data Centre (CCDC).
#
# This work is licensed under the Creative Commons
# Attribution-NonCommercial-ShareAlike 4.0 International License.
# To view a copy of this license, visit
# http://creativecommons.org/licenses/by-nc-sa/4.0/
# or send a letter to
# Creative Commons, PO Box 1866, Mountain View, CA 94042, USA.
#
# CIF created using the CSD Python API on 29 September 2022
# The structure has been converted into the P1 space group
# The structure has a 3D framework
# The original CSD entry REBLES is in the hexagonal crystal system
# The framework has been calculated to contain at least 10.0% void space
# The void calculation uses a probe of radius 1.32A, grid spacing 0.4
#
###############################################################################

data_REBLES
_chemical_formula_moiety         '(C170 H113 Co20 N26 O41)n'
_symmetry_cell_setting           triclinic
_symmetry_space_group_name_H-M   'P 1'
_symmetry_Int_Tables_number      1
_space_group_name_Hall           'P 1'
loop_
_symmetry_equiv_pos_site_id
_symmetry_equiv_pos_as_xyz
1 x,y,z
_cell_length_a                   17.7662(12)
_cell_length_b                   17.7662(12)
_cell_length_c                   26.797(2)
_cell_angle_alpha                90
_cell_angle_beta                 90
_cell_angle_gamma                120
_cell_volume                     7324.97
loop_
_atom_site_label
_atom_site_type_symbol
_atom_site_fract_x
_atom_site_fract_y
_atom_site_fract_z
Co1 Co 0.12895(4) -0.000000 0.53892(3)
N1 N 0.1438(3) -0.000000 0.6180(2)
C6 C 0.1522(5) -0.000000 0.7228(3)
N3 N 0.14380(30) -0.000000 0.8820(2)
C25 C 0.15220(50) -0.000000 0.7772(3)
C26 C 0.1816(8) 0.0691(5) 0.8563(3)
H16 H 0.207273 0.121562 0.873505
C27 C 0.1879(8) 0.0730(6) 0.8046(3)
H17 H 0.217082 0.126772 0.788793
C30 C 0.1816(8) 0.0691(5) 0.6437(3)
H20 H 0.207273 0.121562 0.626495
C31 C 0.1879(8) 0.0730(6) 0.6954(3)
H21 H 0.217082 0.126772 0.711207
O16 O 0.0981(2) -0.000000 0.46112(12)
H52 H 0.146221 -0.000000 0.443239
O17 O -0.000000 0.09810(20) 0.46112(12)
H53 H -0.000000 0.146221 0.443239
Co6 Co 0.12895(4) 0.128950(40) 0.46108(3)
Co10 Co -0.000000 0.128950(40) 0.53892(3)
Co13 Co 0.128950(40) 0.000000 0.96108(3)
Co16 Co 0.871050(40) -0.000000 0.46108(3)
O19 O 0.0981(2) 0.09810(20) 0.53888(12)
O22 O 0.1670(2) 0.2586(3) 0.46671(12)
O25 O 0.2586(3) 0.1670(2) 0.46671(12)
O27 O 0.2586(3) 0.0916(2) 0.53329(12)
N11 N 0.1438(3) 0.14380(30) 0.3820(2)
Co1_2 Co 0.12895(4) 1.000000 0.53892(3)
O1 O -0.000000 0.9019(2) 0.53888(12)
H1 H 0.000000 0.853779 0.556761
O2 O 0.1670(2) 0.9084(2) 0.53329(12)
N1_2 N 0.1438(3) 1.000000 0.6180(2)
N2 N 0.333333 0.666667 0.500000
C1 C 0.1477(2) 0.8523(2) 0.500000
C2 C 0.1966(2) 0.8034(2) 0.500000
C3 C 0.1700(3) 0.7304(4) 0.4706(2)
H2 H 0.121237 0.711601 0.450437
C4 C 0.2135(4) 0.6851(4) 0.4706(2)
H3 H 0.193587 0.635808 0.450789
C5 C 0.2878(2) 0.7122(2) 0.500000
C6_2 C 0.1522(5) 1.000000 0.7228(3)
C7 C 0.1125(6) 0.9309(5) 0.6437(3)
H4 H 0.085711 0.878438 0.626495
C8 C 0.1149(6) 0.9270(6) 0.6954(3)
H5 H 0.090310 0.873228 0.711207
O3 O 0.0916(2) 0.2586(3) 0.53329(12)
C9 C 0.1477(2) 0.2954(3) 0.500000
C10 C 0.1966(2) 0.3932(3) 0.500000
C11 C 0.2696(4) 0.4396(5) 0.4706(2)
H6 H 0.288399 0.409636 0.450437
C12 C 0.3149(4) 0.5284(6) 0.4706(2)
H7 H 0.364192 0.557779 0.450789
C13 C 0.2878(2) 0.5756(3) 0.500000
O4 O 0.7414(3) 0.8330(2) 0.53329(12)
C14 C 0.7046(3) 0.8523(2) 0.500000
C15 C 0.6068(3) 0.8034(2) 0.500000
C16 C 0.5604(5) 0.8300(3) 0.4706(2)
H8 H 0.590364 0.878763 0.450437
C17 C 0.4716(6) 0.7865(4) 0.4706(2)
H9 H 0.442221 0.806413 0.450789
C18 C 0.4244(3) 0.7122(2) 0.500000
O5 O 0.0916(2) 0.8330(2) 0.46671(12)
C19 C 0.2696(4) 0.8300(3) 0.5294(2)
H10 H 0.288399 0.878763 0.549563
C20 C 0.3149(4) 0.7865(4) 0.5294(2)
H11 H 0.364192 0.806413 0.549211
O6 O 0.7414(3) 0.9084(2) 0.46671(12)
C21 C 0.5604(5) 0.7304(4) 0.5294(2)
H12 H 0.590364 0.711601 0.549563
C22 C 0.4716(6) 0.6851(4) 0.5294(2)
H13 H 0.442221 0.635808 0.549211
C23 C 0.1700(3) 0.4396(5) 0.5294(2)
H14 H 0.121237 0.409636 0.549563
C24 C 0.2135(4) 0.5284(6) 0.5294(2)
H15 H 0.193587 0.557779 0.549211
N3_2 N 0.14380(30) 1.000000 0.8820(2)
C25_2 C 0.15220(50) 1.000000 0.7772(3)
C28 C 0.1125(6) 0.9309(5) 0.8563(3)
H18 H 0.085711 0.878438 0.873505
C29 C 0.1149(6) 0.9270(6) 0.8046(3)
H19 H 0.090310 0.873228 0.788793
H22 H 0.146221 0.146221 0.556761
N4 N -0.000000 0.14380(30) 0.6180(2)
C32 C -0.000000 0.15220(50) 0.7228(3)
C33 C 0.0691(5) 0.1816(8) 0.6437(3)
H23 H 0.121562 0.207273 0.626495
C34 C 0.0730(6) 0.1879(8) 0.6954(3)
H24 H 0.126772 0.217082 0.711207
N5 N 0.000000 0.1438(3) 0.8820(2)
C35 C -0.000000 0.1522(5) 0.7772(3)
C38 C 0.0691(5) 0.1816(8) 0.8563(3)
H27 H 0.121562 0.207273 0.873505
C39 C 0.0730(6) 0.1879(8) 0.8046(3)
H28 H 0.126772 0.217082 0.788793
Co4 Co -0.000000 0.87105(4) 0.46108(3)
O16_2 O 0.0981(2) 1.000000 0.46112(12)
H52_2 H 0.146221 1.000000 0.443239
Co11 Co 0.871050(40) 0.87105(4) 0.53892(3)
Co12 Co -0.000000 0.12895(4) 0.96108(3)
Co13_2 Co 0.128950(40) 1.000000 0.96108(3)
Co16_2 Co 0.871050(40) 1.000000 0.46108(3)
N9 N 0.000000 0.8562(3) 0.3820(2)
O9 O 0.90190(20) -0.000000 0.53888(12)
H31 H 0.853779 -0.000000 0.556761
O17_2 O 1.000000 0.09810(20) 0.46112(12)
H53_2 H 1.000000 0.146221 0.443239
Co10_2 Co 1.000000 0.128950(40) 0.53892(3)
O23 O 0.8330(2) 0.0916(2) 0.46671(12)
N10 N 0.85620(30) -0.000000 0.3820(2)
O1_2 O 1.000000 0.9019(2) 0.53888(12)
H1_2 H 1.000000 0.853779 0.556761
N4_2 N 1.000000 0.14380(30) 0.6180(2)
C32_2 C 1.000000 0.15220(50) 0.7228(3)
N5_2 N 1.000000 0.1438(3) 0.8820(2)
C35_2 C 1.000000 0.1522(5) 0.7772(3)
C36 C 0.9309(5) 0.1125(6) 0.8563(3)
H25 H 0.878438 0.085711 0.873505
C37 C 0.9270(6) 0.1149(6) 0.8046(3)
H26 H 0.873228 0.090310 0.788793
C40 C 0.9309(5) 0.1125(6) 0.6437(3)
H29 H 0.878438 0.085711 0.626495
C41 C 0.9270(6) 0.1149(6) 0.6954(3)
H30 H 0.873228 0.090310 0.711207
O9_2 O 0.90190(20) 1.000000 0.53888(12)
H31_2 H 0.853779 1.000000 0.556761
N6 N 0.85620(30) 0.8562(3) 0.6180(2)
C47 C 0.84780(50) 0.8478(5) 0.7228(3)
C48 C 0.8184(8) 0.8875(6) 0.6437(3)
H34 H 0.792727 0.914289 0.626495
C49 C 0.8121(8) 0.8851(6) 0.6954(3)
H35 H 0.782918 0.909690 0.711207
N8 N 0.8562(3) 0.85620(30) 0.8820(2)
C66 C 0.8478(5) 0.84780(50) 0.7772(3)
C67 C 0.8875(6) 0.8184(8) 0.8563(3)
H46 H 0.914289 0.792727 0.873505
C68 C 0.8851(6) 0.8121(8) 0.8046(3)
H47 H 0.909690 0.782918 0.788793
C69 C 0.8184(8) 0.8875(6) 0.8563(3)
H48 H 0.792727 0.914289 0.873505
C70 C 0.8121(8) 0.8851(6) 0.8046(3)
H49 H 0.782918 0.909690 0.788793
C71 C 0.8875(6) 0.8184(8) 0.6437(3)
H50 H 0.914289 0.792727 0.626495
C72 C 0.8851(6) 0.8121(8) 0.6954(3)
H51 H 0.909690 0.782918 0.711207
Co4_2 Co 1.000000 0.87105(4) 0.46108(3)
O18 O 0.90190(20) 0.9019(2) 0.46112(12)
H54 H 0.853779 0.853779 0.443239
Co12_2 Co 1.000000 0.12895(4) 0.96108(3)
Co14 Co 0.87105(4) 0.871050(40) 0.96108(3)
O24 O 0.9084(2) 0.7414(3) 0.46671(12)
O26 O 0.9084(2) 0.1670(2) 0.53329(12)
O28 O 0.8330(2) 0.7414(3) 0.53329(12)
N9_2 N 1.000000 0.8562(3) 0.3820(2)
N10_2 N 0.85620(30) 1.000000 0.3820(2)
Co9 Co -0.000000 0.871050(40) 0.03892(3)
O20 O 0.09810(20) 0.000000 0.03888(12)
O1_3 O 0.000000 0.0981(2) 0.03888(12)
H1_3 H -0.000000 0.146221 0.056761
N4_3 N -0.000000 0.85620(30) 0.1180(2)
C32_3 C -0.000000 0.84780(50) 0.2228(3)
C35_3 C -0.000000 0.8478(5) 0.2772(3)
C36_2 C 0.0691(5) 0.8875(6) 0.3563(3)
H25_2 H 0.121562 0.914289 0.373505
C37_2 C 0.0730(6) 0.8851(6) 0.3046(3)
H26_2 H 0.126772 0.909690 0.288793
C40_2 C 0.0691(5) 0.8875(6) 0.1437(3)
H29_2 H 0.121562 0.914289 0.126495
C41_2 C 0.0730(6) 0.8851(6) 0.1954(3)
H30_2 H 0.126772 0.909690 0.211207
Co3 Co 0.128950(40) 0.12895(4) 0.03892(3)
H31_3 H 0.146221 0.000000 0.056761
O10 O 0.2586(3) 0.1670(2) 0.03329(12)
N6_2 N 0.14380(30) 0.1438(3) 0.1180(2)
N7 N 0.666667 0.333333 0.000000
C42 C 0.2954(3) 0.1477(2) 0.000000
C43 C 0.3932(3) 0.1966(2) 0.000000
C46 C 0.5756(3) 0.2878(2) 0.000000
C47_2 C 0.15220(50) 0.1522(5) 0.2228(3)
C48_2 C 0.1816(8) 0.1125(6) 0.1437(3)
H34_2 H 0.207273 0.085711 0.126495
C49_2 C 0.1879(8) 0.1149(6) 0.1954(3)
H35_2 H 0.217082 0.090310 0.211207
O11 O 0.8330(2) 0.0916(2) 0.03329(12)
C50 C 0.8523(2) 0.1477(2) 0.000000
C51 C 0.8034(2) 0.1966(2) 0.000000
C54 C 0.7122(2) 0.2878(2) 0.000000
O12 O 0.9084(2) 0.7414(3) 0.03329(12)
C55 C 0.8523(2) 0.7046(3) 0.000000
C56 C 0.8034(2) 0.6068(3) 0.000000
C59 C 0.7122(2) 0.4244(3) 0.000000
C60 C 0.4396(5) 0.2696(4) 0.0294(2)
H40 H 0.409636 0.288399 0.049563
C61 C 0.5284(6) 0.3149(4) 0.0294(2)
H41 H 0.557779 0.364192 0.049211
C62 C 0.8300(3) 0.5604(5) 0.0294(2)
H42 H 0.878763 0.590364 0.049563
C63 C 0.7865(4) 0.4716(6) 0.0294(2)
H43 H 0.806413 0.442221 0.049211
C64 C 0.7304(4) 0.1700(3) 0.0294(2)
H44 H 0.711601 0.121237 0.049563
C65 C 0.6851(4) 0.2135(4) 0.0294(2)
H45 H 0.635808 0.193587 0.049211
C66_2 C 0.1522(5) 0.15220(50) 0.2772(3)
C67_2 C 0.1125(6) 0.1816(8) 0.3563(3)
H46_2 H 0.085711 0.207273 0.373505
C68_2 C 0.1149(6) 0.1879(8) 0.3046(3)
H47_2 H 0.090310 0.217082 0.288793
C69_2 C 0.1816(8) 0.1125(6) 0.3563(3)
H48_2 H 0.207273 0.085711 0.373505
C70_2 C 0.1879(8) 0.1149(6) 0.3046(3)
H49_2 H 0.217082 0.090310 0.288793
C71_2 C 0.1125(6) 0.1816(8) 0.1437(3)
H50_2 H 0.085711 0.207273 0.126495
C72_2 C 0.1149(6) 0.1879(8) 0.1954(3)
H51_2 H 0.090310 0.217082 0.211207
Co7 Co 0.87105(4) 0.000000 0.03892(3)
Co9_2 Co 1.000000 0.871050(40) 0.03892(3)
O20_2 O 0.09810(20) 1.000000 0.03888(12)
O26_2 O 0.0916(2) 0.8330(2) 0.03329(12)
O28_2 O 0.1670(2) 0.2586(3) 0.03329(12)
N7_2 N 0.666667 0.333333 1.000000
C42_2 C 0.2954(3) 0.1477(2) 1.000000
C43_2 C 0.3932(3) 0.1966(2) 1.000000
C44 C 0.4396(5) 0.1700(3) 0.9706(2)
H32 H 0.409636 0.121237 0.950437
C45 C 0.5284(6) 0.2135(4) 0.9706(2)
H33 H 0.557779 0.193587 0.950789
C46_2 C 0.5756(3) 0.2878(2) 1.000000
C50_2 C 0.8523(2) 0.1477(2) 1.000000
C51_2 C 0.8034(2) 0.1966(2) 1.000000
C52 C 0.8300(3) 0.2696(4) 0.9706(2)
H36 H 0.878763 0.288399 0.950437
C53 C 0.7865(4) 0.3149(4) 0.9706(2)
H37 H 0.806413 0.364192 0.950789
C54_2 C 0.7122(2) 0.2878(2) 1.000000
C55_2 C 0.8523(2) 0.7046(3) 1.000000
C56_2 C 0.8034(2) 0.6068(3) 1.000000
C57 C 0.7304(4) 0.5604(5) 0.9706(2)
H38 H 0.711601 0.590364 0.950437
C58 C 0.6851(4) 0.4716(6) 0.9706(2)
H39 H 0.635808 0.442221 0.950789
C59_2 C 0.7122(2) 0.4244(3) 1.000000
O13 O 0.2586(3) 0.0916(2) 0.96671(12)
O14 O 0.8330(2) 0.7414(3) 0.96671(12)
O15 O 0.9084(2) 0.1670(2) 0.96671(12)
O18_2 O 0.09810(20) 0.0981(2) 0.96112(12)
H54_2 H 0.146221 0.146221 0.943239
O21 O -0.000000 0.90190(20) 0.96112(12)
O24_2 O 0.0916(2) 0.2586(3) 0.96671(12)
H31_4 H 0.146221 1.000000 0.056761
Co7_2 Co 0.87105(4) 1.000000 0.03892(3)
H53_3 H 0.000000 0.853779 0.943239
O23_2 O 0.1670(2) 0.9084(2) 0.96671(12)
O1_4 O 1.000000 0.0981(2) 0.03888(12)
H1_4 H 1.000000 0.146221 0.056761
N1_3 N 0.8562(3) 0.000000 0.1180(2)
C6_3 C 0.8478(5) 0.000000 0.2228(3)
C7_2 C 0.8875(6) 0.0691(5) 0.1437(3)
H4_2 H 0.914289 0.121562 0.126495
C8_2 C 0.8851(6) 0.0730(6) 0.1954(3)
H5_2 H 0.909690 0.126772 0.211207
C25_3 C 0.84780(50) 0.000000 0.2772(3)
C28_2 C 0.8875(6) 0.0691(5) 0.3563(3)
H18_2 H 0.914289 0.121562 0.373505
C29_2 C 0.8851(6) 0.0730(6) 0.3046(3)
H19_2 H 0.909690 0.126772 0.288793
O8 O 0.9019(2) 0.90190(20) 0.03888(12)
H22_2 H 0.853779 0.853779 0.056761
N4_4 N 1.000000 0.85620(30) 0.1180(2)
C32_4 C 1.000000 0.84780(50) 0.2228(3)
C33_2 C 0.9309(5) 0.8184(8) 0.1437(3)
H23_2 H 0.878438 0.792727 0.126495
C34_2 C 0.9270(6) 0.8121(8) 0.1954(3)
H24_2 H 0.873228 0.782918 0.211207
C35_4 C 1.000000 0.8478(5) 0.2772(3)
C38_2 C 0.9309(5) 0.8184(8) 0.3563(3)
H27_2 H 0.878438 0.792727 0.373505
C39_2 C 0.9270(6) 0.8121(8) 0.3046(3)
H28_2 H 0.873228 0.782918 0.288793
O16_3 O 0.9019(2) 0.000000 0.96112(12)
H52_3 H 0.853779 0.000000 0.943239
O21_2 O 1.000000 0.90190(20) 0.96112(12)
N1_4 N 0.8562(3) 1.000000 0.1180(2)
C6_4 C 0.8478(5) 1.000000 0.2228(3)
C25_4 C 0.84780(50) 1.000000 0.2772(3)
C26_2 C 0.8184(8) 0.9309(5) 0.3563(3)
H16_2 H 0.792727 0.878438 0.373505
C27_2 C 0.8121(8) 0.9270(6) 0.3046(3)
H17_2 H 0.782918 0.873228 0.288793
C30_2 C 0.8184(8) 0.9309(5) 0.1437(3)
H20_2 H 0.792727 0.878438 0.126495
C31_2 C 0.8121(8) 0.9270(6) 0.1954(3)
H21_2 H 0.782918 0.873228 0.211207
O27_2 O 0.7414(3) 0.9084(2) 0.03329(12)
O16_4 O 0.9019(2) 1.000000 0.96112(12)
H52_4 H 0.853779 1.000000 0.943239
H53_4 H 1.000000 0.853779 0.943239
O25_2 O 0.7414(3) 0.8330(2) 0.96671(12)
N7_3 N 0.666667 0.333333 0.500000
C42_3 C 0.2954(3) 0.1477(2) 0.500000
C43_3 C 0.3932(3) 0.1966(2) 0.500000
C44_2 C 0.4396(5) 0.1700(3) 0.5294(2)
H32_2 H 0.409636 0.121237 0.549563
C45_2 C 0.5284(6) 0.2135(4) 0.5294(2)
H33_2 H 0.557779 0.193587 0.549211
C46_3 C 0.5756(3) 0.2878(2) 0.500000
C50_3 C 0.8523(2) 0.1477(2) 0.500000
C51_3 C 0.8034(2) 0.1966(2) 0.500000
C52_2 C 0.8300(3) 0.2696(4) 0.5294(2)
H36_2 H 0.878763 0.288399 0.549563
C53_2 C 0.7865(4) 0.3149(4) 0.5294(2)
H37_2 H 0.806413 0.364192 0.549211
C54_3 C 0.7122(2) 0.2878(2) 0.500000
C55_3 C 0.8523(2) 0.7046(3) 0.500000
C56_3 C 0.8034(2) 0.6068(3) 0.500000
C57_2 C 0.7304(4) 0.5604(5) 0.5294(2)
H38_2 H 0.711601 0.590364 0.549563
C58_2 C 0.6851(4) 0.4716(6) 0.5294(2)
H39_2 H 0.635808 0.442221 0.549211
C59_3 C 0.7122(2) 0.4244(3) 0.500000
C60_2 C 0.4396(5) 0.2696(4) 0.4706(2)
H40_2 H 0.409636 0.288399 0.450437
C61_2 C 0.5284(6) 0.3149(4) 0.4706(2)
H41_2 H 0.557779 0.364192 0.450789
C62_2 C 0.8300(3) 0.5604(5) 0.4706(2)
H42_2 H 0.878763 0.590364 0.450437
C63_2 C 0.7865(4) 0.4716(6) 0.4706(2)
H43_2 H 0.806413 0.442221 0.450789
C64_2 C 0.7304(4) 0.1700(3) 0.4706(2)
H44_2 H 0.711601 0.121237 0.450437
C65_2 C 0.6851(4) 0.2135(4) 0.4706(2)
H45_2 H 0.635808 0.193587 0.450789
N2_2 N 0.333333 0.666667 0.000000
C1_2 C 0.1477(2) 0.8523(2) 0.000000
C2_2 C 0.1966(2) 0.8034(2) 0.000000
C3_2 C 0.1700(3) 0.7304(4) 0.0294(2)
H2_2 H 0.121237 0.711601 0.049563
C4_2 C 0.2135(4) 0.6851(4) 0.0294(2)
H3_2 H 0.193587 0.635808 0.049211
C5_2 C 0.2878(2) 0.7122(2) 0.000000
C9_2 C 0.1477(2) 0.2954(3) 0.000000
C10_2 C 0.1966(2) 0.3932(3) 0.000000
C11_2 C 0.2696(4) 0.4396(5) 0.0294(2)
H6_2 H 0.288399 0.409636 0.049563
C12_2 C 0.3149(4) 0.5284(6) 0.0294(2)
H7_2 H 0.364192 0.557779 0.049211
C13_2 C 0.2878(2) 0.5756(3) 0.000000
C14_2 C 0.7046(3) 0.8523(2) 0.000000
C15_2 C 0.6068(3) 0.8034(2) 0.000000
C16_2 C 0.5604(5) 0.8300(3) 0.0294(2)
H8_2 H 0.590364 0.878763 0.049563
C17_2 C 0.4716(6) 0.7865(4) 0.0294(2)
H9_2 H 0.442221 0.806413 0.049211
C18_2 C 0.4244(3) 0.7122(2) 0.000000
N2_3 N 0.333333 0.666667 1.000000
C1_3 C 0.1477(2) 0.8523(2) 1.000000
C2_3 C 0.1966(2) 0.8034(2) 1.000000
C5_3 C 0.2878(2) 0.7122(2) 1.000000
C9_3 C 0.1477(2) 0.2954(3) 1.000000
C10_3 C 0.1966(2) 0.3932(3) 1.000000
C13_3 C 0.2878(2) 0.5756(3) 1.000000
C14_3 C 0.7046(3) 0.8523(2) 1.000000
C15_3 C 0.6068(3) 0.8034(2) 1.000000
C18_3 C 0.4244(3) 0.7122(2) 1.000000
C19_2 C 0.2696(4) 0.8300(3) 0.9706(2)
H10_2 H 0.288399 0.878763 0.950437
C20_2 C 0.3149(4) 0.7865(4) 0.9706(2)
H11_2 H 0.364192 0.806413 0.950789
C21_2 C 0.5604(5) 0.7304(4) 0.9706(2)
H12_2 H 0.590364 0.711601 0.950437
C22_2 C 0.4716(6) 0.6851(4) 0.9706(2)
H13_2 H 0.442221 0.635808 0.950789
C23_2 C 0.1700(3) 0.4396(5) 0.9706(2)
H14_2 H 0.121237 0.409636 0.950437
C24_2 C 0.2135(4) 0.5284(6) 0.9706(2)
H15_2 H 0.193587 0.557779 0.950789
loop_
_geom_bond_atom_site_label_1
_geom_bond_atom_site_label_2
_geom_bond_site_symmetry_1
_geom_bond_site_symmetry_2
N1 Co1 1_555 1_555
N3 C26 1_555 1_555
C25 C6 1_555 1_555
C26 H16 1_555 1_555
C27 C25 1_555 1_555
H17 C27 1_555 1_555
C30 N1 1_555 1_555
H20 C30 1_555 1_555
C31 C6 1_555 1_555
H21 C31 1_555 1_555
O16 Co1 1_555 1_555
H52 O16 1_555 1_555
H53 O17 1_555 1_555
Co6 O16 1_555 1_555
Co13 N3 1_555 1_555
O19 Co1 1_555 1_555
O22 Co6 1_555 1_555
O25 Co6 1_555 1_555
O27 Co1 1_555 1_555
N11 Co6 1_555 1_555
C26 C27 1_555 1_555
C30 C31 1_555 1_555
O17 Co6 1_555 1_555
O17 Co10 1_555 1_555
Co6 O19 1_555 1_555
Co10 O19 1_555 1_555
Co1_2 O1 1_555 1_555
O1 H1 1_555 1_555
O2 Co1_2 1_555 1_555
N1_2 Co1_2 1_555 1_555
N2 C5 1_555 1_555
C1 O2 1_555 1_555
C2 C1 1_555 1_555
C3 C2 1_555 1_555
H2 C3 1_555 1_555
C4 C3 1_555 1_555
H3 C4 1_555 1_555
C5 C4 1_555 1_555
C6_2 C8 1_555 1_555
C7 N1_2 1_555 1_555
H4 C7 1_555 1_555
C8 C7 1_555 1_555
H5 C8 1_555 1_555
O3 C9 1_555 1_555
C9 C10 1_555 1_555
C10 C11 1_555 1_555
C11 H6 1_555 1_555
C12 C11 1_555 1_555
H7 C12 1_555 1_555
C13 N2 1_555 1_555
O4 C14 1_555 1_555
C14 C15 1_555 1_555
C15 C16 1_555 1_555
C16 H8 1_555 1_555
C17 C16 1_555 1_555
H9 C17 1_555 1_555
C18 N2 1_555 1_555
O5 C1 1_555 1_555
C19 C2 1_555 1_555
H10 C19 1_555 1_555
C20 C5 1_555 1_555
H11 C20 1_555 1_555
O6 C14 1_555 1_555
C21 C15 1_555 1_555
H12 C21 1_555 1_555
C22 C18 1_555 1_555
H13 C22 1_555 1_555
O22 C9 1_555 1_555
C23 C10 1_555 1_555
H14 C23 1_555 1_555
C24 C13 1_555 1_555
H15 C24 1_555 1_555
C25_2 C6_2 1_555 1_555
C28 N3_2 1_555 1_555
H18 C28 1_555 1_555
C29 C25_2 1_555 1_555
H19 C29 1_555 1_555
Co10 O3 1_555 1_555
H22 O19 1_555 1_555
N4 Co10 1_555 1_555
C32 C34 1_555 1_555
C33 N4 1_555 1_555
H23 C33 1_555 1_555
C34 C33 1_555 1_555
H24 C34 1_555 1_555
C35 C32 1_555 1_555
C38 N5 1_555 1_555
H27 C38 1_555 1_555
C39 C35 1_555 1_555
H28 C39 1_555 1_555
Co4 O1 1_555 1_555
O16_2 Co1_2 1_555 1_555
H52_2 O16_2 1_555 1_555
Co11 O4 1_555 1_555
Co12 N5 1_555 1_555
Co13_2 N3_2 1_555 1_555
Co16_2 O6 1_555 1_555
N9 Co4 1_555 1_555
C12 C13 1_555 1_555
C17 C18 1_555 1_555
O5 Co4 1_555 1_555
C19 C20 1_555 1_555
C21 C22 1_555 1_555
C23 C24 1_555 1_555
C28 C29 1_555 1_555
C38 C39 1_555 1_555
Co4 O16_2 1_555 1_555
H31 O9 1_555 1_555
Co16 O9 1_555 1_555
O17_2 Co16 1_555 1_555
H53_2 O17_2 1_555 1_555
Co10_2 O9 1_555 1_555
O23 Co16 1_555 1_555
N10 Co16 1_555 1_555
O17_2 Co10_2 1_555 1_555
O1_2 H1_2 1_555 1_555
N4_2 Co10_2 1_555 1_555
N5_2 C36 1_555 1_555
C35_2 C32_2 1_555 1_555
C36 H25 1_555 1_555
C37 C35_2 1_555 1_555
H26 C37 1_555 1_555
C40 N4_2 1_555 1_555
H29 C40 1_555 1_555
C41 C32_2 1_555 1_555
H30 C41 1_555 1_555
Co11 O1_2 1_555 1_555
O9_2 Co11 1_555 1_555
H31_2 O9_2 1_555 1_555
N6 Co11 1_555 1_555
C47 C49 1_555 1_555
C48 N6 1_555 1_555
H34 C48 1_555 1_555
C49 C48 1_555 1_555
H35 C49 1_555 1_555
N8 C67 1_555 1_555
C66 C47 1_555 1_555
C67 H46 1_555 1_555
C68 C66 1_555 1_555
H47 C68 1_555 1_555
C69 N8 1_555 1_555
H48 C69 1_555 1_555
C70 C66 1_555 1_555
H49 C70 1_555 1_555
C71 N6 1_555 1_555
H50 C71 1_555 1_555
C72 C47 1_555 1_555
H51 C72 1_555 1_555
Co4_2 O1_2 1_555 1_555
Co16_2 O9_2 1_555 1_555
O18 Co11 1_555 1_555
H54 O18 1_555 1_555
Co12_2 N5_2 1_555 1_555
Co14 N8 1_555 1_555
O24 Co4_2 1_555 1_555
O26 Co10_2 1_555 1_555
O28 Co11 1_555 1_555
N9_2 Co4_2 1_555 1_555
N10_2 Co16_2 1_555 1_555
C36 C37 1_555 1_555
C40 C41 1_555 1_555
C67 C68 1_555 1_555
C69 C70 1_555 1_555
C71 C72 1_555 1_555
Co4_2 O18 1_555 1_555
Co16_2 O18 1_555 1_555
O1_3 H1_3 1_555 1_555
N4_3 Co9 1_555 1_555
N9 C36_2 1_555 1_555
C35_3 C32_3 1_555 1_555
C36_2 H25_2 1_555 1_555
C37_2 C35_3 1_555 1_555
H26_2 C37_2 1_555 1_555
C40_2 N4_3 1_555 1_555
H29_2 C40_2 1_555 1_555
C41_2 C32_3 1_555 1_555
H30_2 C41_2 1_555 1_555
Co3 O1_3 1_555 1_555
O20 Co3 1_555 1_555
H31_3 O20 1_555 1_555
O10 Co3 1_555 1_555
N6_2 Co3 1_555 1_555
N7 C46 1_555 1_555
C42 O10 1_555 1_555
C43 C42 1_555 1_555
C47_2 C49_2 1_555 1_555
C48_2 N6_2 1_555 1_555
H34_2 C48_2 1_555 1_555
C49_2 C48_2 1_555 1_555
H35_2 C49_2 1_555 1_555
O11 C50 1_555 1_555
C50 C51 1_555 1_555
C54 N7 1_555 1_555
O12 C55 1_555 1_555
C55 C56 1_555 1_555
C59 N7 1_555 1_555
C60 C43 1_555 1_555
H40 C60 1_555 1_555
C61 C46 1_555 1_555
H41 C61 1_555 1_555
C62 C56 1_555 1_555
H42 C62 1_555 1_555
C63 C59 1_555 1_555
H43 C63 1_555 1_555
C64 C51 1_555 1_555
H44 C64 1_555 1_555
C65 C54 1_555 1_555
H45 C65 1_555 1_555
N11 C67_2 1_555 1_555
C66_2 C47_2 1_555 1_555
C67_2 H46_2 1_555 1_555
C68_2 C66_2 1_555 1_555
H47_2 C68_2 1_555 1_555
C69_2 N11 1_555 1_555
H48_2 C69_2 1_555 1_555
C70_2 C66_2 1_555 1_555
H49_2 C70_2 1_555 1_555
C71_2 N6_2 1_555 1_555
H50_2 C71_2 1_555 1_555
C72_2 C47_2 1_555 1_555
H51_2 C72_2 1_555 1_555
Co7 O11 1_555 1_555
Co9_2 O12 1_555 1_555
O20_2 Co9 1_555 1_555
O26_2 Co9 1_555 1_555
O28_2 Co3 1_555 1_555
C36_2 C37_2 1_555 1_555
C40_2 C41_2 1_555 1_555
C60 C61 1_555 1_555
C62 C63 1_555 1_555
C64 C65 1_555 1_555
C67_2 C68_2 1_555 1_555
C69_2 C70_2 1_555 1_555
C71_2 C72_2 1_555 1_555
N7_2 C46_2 1_555 1_555
C43_2 C42_2 1_555 1_555
C44 C43_2 1_555 1_555
H32 C44 1_555 1_555
C45 C44 1_555 1_555
H33 C45 1_555 1_555
C46_2 C45 1_555 1_555
C50_2 C51_2 1_555 1_555
C51_2 C52 1_555 1_555
C52 H36 1_555 1_555
C53 C52 1_555 1_555
H37 C53 1_555 1_555
C54_2 N7_2 1_555 1_555
C55_2 C56_2 1_555 1_555
C56_2 C57 1_555 1_555
C57 H38 1_555 1_555
C58 C57 1_555 1_555
H39 C58 1_555 1_555
C59_2 N7_2 1_555 1_555
O13 C42_2 1_555 1_555
O14 C55_2 1_555 1_555
O15 C50_2 1_555 1_555
H54_2 O18_2 1_555 1_555
Co12_2 O15 1_555 1_555
Co14 O14 1_555 1_555
O24_2 Co12 1_555 1_555
C53 C54_2 1_555 1_555
C58 C59_2 1_555 1_555
O13 Co13 1_555 1_555
Co12 O18_2 1_555 1_555
Co13 O18_2 1_555 1_555
H31_4 O20_2 1_555 1_555
O21 Co13_2 1_555 1_555
H53_3 O21 1_555 1_555
O23_2 Co13_2 1_555 1_555
Co7 O1_4 1_555 1_555
O1_4 H1_4 1_555 1_555
N1_3 Co7 1_555 1_555
C6_3 C8_2 1_555 1_555
C7_2 N1_3 1_555 1_555
H4_2 C7_2 1_555 1_555
C8_2 C7_2 1_555 1_555
H5_2 C8_2 1_555 1_555
C25_3 C6_3 1_555 1_555
C28_2 N10 1_555 1_555
H18_2 C28_2 1_555 1_555
C29_2 C25_3 1_555 1_555
H19_2 C29_2 1_555 1_555
O8 Co9_2 1_555 1_555
H22_2 O8 1_555 1_555
N4_4 Co9_2 1_555 1_555
C32_4 C34_2 1_555 1_555
C33_2 N4_4 1_555 1_555
H23_2 C33_2 1_555 1_555
C34_2 C33_2 1_555 1_555
H24_2 C34_2 1_555 1_555
C35_4 C32_4 1_555 1_555
C38_2 N9_2 1_555 1_555
H27_2 C38_2 1_555 1_555
C39_2 C35_4 1_555 1_555
H28_2 C39_2 1_555 1_555
Co7_2 O8 1_555 1_555
C28_2 C29_2 1_555 1_555
C38_2 C39_2 1_555 1_555
H52_3 O16_3 1_555 1_555
Co12_2 O16_3 1_555 1_555
Co14 O21_2 1_555 1_555
N1_4 Co7_2 1_555 1_555
N10_2 C26_2 1_555 1_555
C25_4 C6_4 1_555 1_555
C26_2 H16_2 1_555 1_555
C27_2 C25_4 1_555 1_555
H17_2 C27_2 1_555 1_555
C30_2 N1_4 1_555 1_555
H20_2 C30_2 1_555 1_555
C31_2 C6_4 1_555 1_555
H21_2 C31_2 1_555 1_555
O27_2 Co7_2 1_555 1_555
C26_2 C27_2 1_555 1_555
C30_2 C31_2 1_555 1_555
H52_4 O16_4 1_555 1_555
H53_4 O21_2 1_555 1_555
Co14 O16_4 1_555 1_555
O25_2 Co14 1_555 1_555
N7_3 C46_3 1_555 1_555
C42_3 O25 1_555 1_555
C43_3 C42_3 1_555 1_555
C44_2 C43_3 1_555 1_555
H32_2 C44_2 1_555 1_555
C45_2 C44_2 1_555 1_555
H33_2 C45_2 1_555 1_555
C46_3 C45_2 1_555 1_555
O23 C50_3 1_555 1_555
C50_3 C51_3 1_555 1_555
C51_3 C52_2 1_555 1_555
C52_2 H36_2 1_555 1_555
C53_2 C52_2 1_555 1_555
H37_2 C53_2 1_555 1_555
C54_3 N7_3 1_555 1_555
O24 C55_3 1_555 1_555
C55_3 C56_3 1_555 1_555
C56_3 C57_2 1_555 1_555
C57_2 H38_2 1_555 1_555
C58_2 C57_2 1_555 1_555
H39_2 C58_2 1_555 1_555
C59_3 N7_3 1_555 1_555
O27 C42_3 1_555 1_555
C60_2 C43_3 1_555 1_555
H40_2 C60_2 1_555 1_555
C61_2 C46_3 1_555 1_555
H41_2 C61_2 1_555 1_555
O28 C55_3 1_555 1_555
C62_2 C56_3 1_555 1_555
H42_2 C62_2 1_555 1_555
C63_2 C59_3 1_555 1_555
H43_2 C63_2 1_555 1_555
O26 C50_3 1_555 1_555
C64_2 C51_3 1_555 1_555
H44_2 C64_2 1_555 1_555
C65_2 C54_3 1_555 1_555
H45_2 C65_2 1_555 1_555
C53_2 C54_3 1_555 1_555
C58_2 C59_3 1_555 1_555
C60_2 C61_2 1_555 1_555
C62_2 C63_2 1_555 1_555
C64_2 C65_2 1_555 1_555
N2_2 C5_2 1_555 1_555
C2_2 C1_2 1_555 1_555
C3_2 C2_2 1_555 1_555
H2_2 C3_2 1_555 1_555
C4_2 C3_2 1_555 1_555
H3_2 C4_2 1_555 1_555
C5_2 C4_2 1_555 1_555
C9_2 C10_2 1_555 1_555
C10_2 C11_2 1_555 1_555
C11_2 H6_2 1_555 1_555
C12_2 C11_2 1_555 1_555
H7_2 C12_2 1_555 1_555
C13_2 N2_2 1_555 1_555
C14_2 C15_2 1_555 1_555
C15_2 C16_2 1_555 1_555
C16_2 H8_2 1_555 1_555
C17_2 C16_2 1_555 1_555
H9_2 C17_2 1_555 1_555
C18_2 N2_2 1_555 1_555
O26_2 C1_2 1_555 1_555
O27_2 C14_2 1_555 1_555
O28_2 C9_2 1_555 1_555
C12_2 C13_2 1_555 1_555
C17_2 C18_2 1_555 1_555
N2_3 C5_3 1_555 1_555
C1_3 O23_2 1_555 1_555
C2_3 C1_3 1_555 1_555
O24_2 C9_3 1_555 1_555
C9_3 C10_3 1_555 1_555
C13_3 N2_3 1_555 1_555
O25_2 C14_3 1_555 1_555
C14_3 C15_3 1_555 1_555
C18_3 N2_3 1_555 1_555
C19_2 C2_3 1_555 1_555
H10_2 C19_2 1_555 1_555
C20_2 C5_3 1_555 1_555
H11_2 C20_2 1_555 1_555
C21_2 C15_3 1_555 1_555
H12_2 C21_2 1_555 1_555
C22_2 C18_3 1_555 1_555
H13_2 C22_2 1_555 1_555
C23_2 C10_3 1_555 1_555
H14_2 C23_2 1_555 1_555
C24_2 C13_3 1_555 1_555
H15_2 C24_2 1_555 1_555
C19_2 C20_2 1_555 1_555
C21_2 C22_2 1_555 1_555
C23_2 C24_2 1_555 1_555

#END
