
###############################################################################
#
# This file contains modified crystal structure data generated from the
# MOF subset of the Cambridge Structural Database (CSD) v543 
# hosted by the Cambridge Crystallographic Data Centre (CCDC).
#
# This work is licensed under the Creative Commons
# Attribution-NonCommercial-ShareAlike 4.0 International License.
# To view a copy of this license, visit
# http://creativecommons.org/licenses/by-nc-sa/4.0/
# or send a letter to
# Creative Commons, PO Box 1866, Mountain View, CA 94042, USA.
#
# CIF created using the CSD Python API on 29 September 2022
# The structure has been converted into the P1 space group
# The structure has a 3D framework
# The original CSD entry REBSUP is in the hexagonal crystal system
# The framework has been calculated to contain at least 10.0% void space
# The void calculation uses a probe of radius 1.32A, grid spacing 0.4
# The framework is charged, counterions have been retained in the structure
# H atom positions have been added when not included in the experimental data
# Generated hydrogen atom positions removed from atoms on special positions
#
###############################################################################

data_REBSUP
_chemical_formula_moiety         '(C102 H78 Mn10 N10 O28 1-)n'
_symmetry_cell_setting           triclinic
_symmetry_space_group_name_H-M   'P 1'
_symmetry_Int_Tables_number      1
_space_group_name_Hall           'P 1'
loop_
_symmetry_equiv_pos_site_id
_symmetry_equiv_pos_as_xyz
1 x,y,z
_cell_length_a                   13.5376(9)
_cell_length_b                   13.5376(9)
_cell_length_c                   11.8142(8)
_cell_angle_alpha                90
_cell_angle_beta                 90
_cell_angle_gamma                120
_cell_volume                     1875.07
loop_
_atom_site_label
_atom_site_type_symbol
_atom_site_fract_x
_atom_site_fract_y
_atom_site_fract_z
Mn10 Mn 0.0000(3) 0.1521(2) -0.0000
Mn10_2 Mn 0.0000(3) 0.1521(2) 1.0000
O1 O 0.0000 -0.0000 -0.0000
Mn3 Mn 0.1521(2) -0.0000(3) -0.0000
O16 O 0.312(3) -0.000(4) -0.0000
O22 O 0.2212(10) 0.1280(14) 0.1245(9)
O1_2 O 0.0000 -0.0000 1.0000
Mn3_2 Mn 0.1521(2) -0.0000(3) 1.0000
O16_2 O 0.312(3) -0.000(4) 1.0000
O19 O 0.2212(10) 0.1280(14) 0.8755(9)
O15 O 0.000(4) 0.312(3) -0.0000
O24 O 0.1280(14) 0.2212(10) 0.1245(9)
C10 C 1.0000 1.0000 0.599(3)
H4 H 1.0000 1.0000 0.6820
C11 C 0.2065(16) 0.2065(16) 0.8428(16)
C12 C 0.2953(11) 0.2953(11) 0.7632(14)
C13 C 0.2861(17) 0.3771(26) 0.726(3)
H5 H 0.2249 0.3844 0.7506
C14 C 0.364(2) 0.458(4) 0.648(3)
H6 H 0.3485 0.5112 0.6147
C15 C 0.4573(12) 0.4573(12) 0.6250(17)
C16 C 0.5527(11) 0.5527(11) 0.5611(15)
N2 N 0.6342(11) 0.6342(11) 0.6206(11)
C17 C 0.7230(10) 0.7230(10) 0.5617(13)
C18 C 0.8072(9) 0.8072(9) 0.6176(9)
H7 H 0.8075 0.8075 0.6963
C19 C 0.8969(9) 0.8969(9) 0.5568(10)
C29 C 1.0000 1.0000 0.401(3)
H11 H 1.0000 1.0000 0.3180
C39 C 0.2065(16) 0.2065(16) 0.1572(16)
C40 C 0.2953(11) 0.2953(11) 0.2368(14)
C41 C 0.2861(17) 0.3771(26) 0.274(3)
H15 H 0.2249 0.3844 0.2494
C42 C 0.364(2) 0.458(4) 0.352(3)
H16 H 0.3485 0.5112 0.3853
C43 C 0.4573(12) 0.4573(12) 0.3750(17)
C44 C 0.5527(11) 0.5527(11) 0.4389(15)
N5 N 0.6342(11) 0.6342(11) 0.3794(11)
C45 C 0.7230(10) 0.7230(10) 0.4383(13)
C46 C 0.8072(9) 0.8072(9) 0.3824(9)
H17 H 0.8075 0.8075 0.3037
C47 C 0.8969(9) 0.8969(9) 0.4432(10)
C50 C 0.3771(26) 0.2861(17) 0.274(3)
H20 H 0.3844 0.2249 0.2494
C51 C 0.458(4) 0.364(2) 0.352(3)
H21 H 0.5112 0.3485 0.3853
O12 O 0.1280(14) 0.2212(10) 0.8755(9)
C63 C 0.3771(26) 0.2861(17) 0.726(3)
H27 H 0.3844 0.2249 0.7506
C64 C 0.458(4) 0.364(2) 0.648(3)
H28 H 0.5112 0.3485 0.6147
O15_2 O 0.000(4) 0.312(3) 1.0000
O1_3 O 0.0000 1.0000 -0.0000
Mn3_3 Mn 0.1521(2) 1.0000(3) -0.0000
O16_3 O 0.312(3) 1.000(4) -0.0000
Mn10_3 Mn 1.0000(3) 0.1521(2) -0.0000
O26 O 0.0932(10) 0.8720(14) 0.1245(9)
O1_4 O 0.0000 1.0000 1.0000
C1 C -0.0000 0.7935(16) 0.8428(16)
C2 C -0.0000 0.7047(11) 0.7632(14)
C3 C 0.091(2) 0.7139(17) 0.726(3)
H1 H 0.1595 0.7751 0.7506
C4 C 0.094(3) 0.636(2) 0.648(3)
H2 H 0.1627 0.6515 0.6147
C5 C -0.0000 0.5427(12) 0.6250(17)
C6 C -0.0000 0.4473(11) 0.5611(15)
N1 N -0.0000 0.3658(11) 0.6206(11)
C7 C -0.0000 0.2770(10) 0.5617(13)
C8 C 0.0000 0.1928(9) 0.6176(9)
H3 H -0.0000 0.1925 0.6963
C9 C -0.0000 0.1031(9) 0.5568(10)
C10_2 C -0.0000 0.0000 0.599(3)
H4_2 H -0.0000 -0.0000 0.6820
C20 C -0.0000 0.7935(16) 0.1572(16)
C21 C 0.0000 0.7047(11) 0.2368(14)
C22 C 0.091(2) 0.7139(17) 0.274(3)
H8 H 0.1595 0.7751 0.2494
C23 C 0.094(3) 0.636(2) 0.352(3)
H9 H 0.1627 0.6515 0.3853
C24 C -0.0000 0.5427(12) 0.3750(17)
C25 C 0.0000 0.4473(11) 0.4389(15)
N3 N 0.0000 0.3658(11) 0.3794(11)
C26 C -0.0000 0.2770(10) 0.4383(13)
C27 C 0.0000 0.1928(9) 0.3824(9)
H10 H -0.0000 0.1925 0.3037
C28 C -0.0000 0.1031(9) 0.4432(10)
C29_2 C -0.0000 0.0000 0.401(3)
H11_2 H 0.0000 0.0000 0.3180
O6 O 0.8720(14) 0.0932(10) 0.8755(9)
C30 C 0.7935(16) -0.0000 0.8428(16)
C31 C 0.7047(11) -0.0000 0.7632(14)
C34 C 0.5427(12) 0.0000 0.6250(17)
C35 C 0.4473(11) 0.0000 0.5611(15)
N4 N 0.3658(11) -0.0000 0.6206(11)
C36 C 0.2770(10) -0.0000 0.5617(13)
C37 C 0.1928(9) 0.0000 0.6176(9)
H14 H 0.1925 0.0000 0.6963
C38 C 0.1031(9) -0.0000 0.5568(10)
C48 C 0.7139(17) 0.091(2) 0.726(3)
H18 H 0.7751 0.1595 0.7506
C49 C 0.636(2) 0.094(3) 0.648(3)
H19 H 0.6515 0.1627 0.6147
O10 O 0.0932(10) 0.8720(14) 0.8755(9)
C54 C 0.7935(16) -0.0000 0.1572(16)
C55 C 0.7047(11) -0.0000 0.2368(14)
C56 C 0.7139(17) 0.091(2) 0.274(3)
H24 H 0.7751 0.1595 0.2494
C57 C 0.636(2) 0.094(3) 0.352(3)
H25 H 0.6515 0.1627 0.3853
C58 C 0.5427(12) -0.0000 0.3750(17)
C59 C 0.4473(11) -0.0000 0.4389(15)
N6 N 0.3658(11) -0.0000 0.3794(11)
C60 C 0.2770(10) -0.0000 0.4383(13)
C61 C 0.1928(9) -0.0000 0.3824(9)
H26 H 0.1925 -0.0000 0.3037
C62 C 0.1031(9) -0.0000 0.4432(10)
O14 O 0.8720(14) 0.0932(10) 0.1245(9)
Mn3_4 Mn 0.1521(2) 1.0000(3) 1.0000
O16_4 O 0.312(3) 1.000(4) 1.0000
Mn10_4 Mn 1.0000(3) 0.1521(2) 1.0000
O1_5 O 1.0000 -0.0000 -0.0000
O1_6 O 1.0000 -0.0000 1.0000
O15_3 O 1.000(4) 0.312(3) -0.0000
O15_4 O 1.000(4) 0.312(3) 1.0000
Mn6 Mn 0.8479(2) 0.8479(2) -0.0000
C10_3 C -0.0000 1.0000 0.599(3)
H4_3 H -0.0000 1.0000 0.6820
C29_3 C -0.0000 1.0000 0.401(3)
H11_3 H -0.0000 1.0000 0.3180
C30_2 C 0.7935(16) 1.0000 0.8428(16)
C31_2 C 0.7047(11) 1.0000 0.7632(14)
C32 C 0.6229(26) 0.909(2) 0.726(3)
H12 H 0.6156 0.8405 0.7506
C33 C 0.542(4) 0.906(3) 0.648(3)
H13 H 0.4888 0.8373 0.6147
C34_2 C 0.5427(12) 1.0000 0.6250(17)
C35_2 C 0.4473(11) 1.0000 0.5611(15)
N4_2 N 0.3658(11) 1.0000 0.6206(11)
C36_2 C 0.2770(10) 1.0000 0.5617(13)
C37_2 C 0.1928(9) 1.0000 0.6176(9)
H14_2 H 0.1925 1.0000 0.6963
C38_2 C 0.1031(9) 1.0000 0.5568(10)
O8 O 0.7788(10) 0.9068(10) 0.8755(9)
O11 O 0.7788(10) 0.9068(10) 0.1245(9)
C54_2 C 0.7935(16) 1.0000 0.1572(16)
C55_2 C 0.7047(11) 1.0000 0.2368(14)
C58_2 C 0.5427(12) 1.0000 0.3750(17)
C59_2 C 0.4473(11) 1.0000 0.4389(15)
N6_2 N 0.3658(11) 1.0000 0.3794(11)
C60_2 C 0.2770(10) 1.0000 0.4383(13)
C61_2 C 0.1928(9) 1.0000 0.3824(9)
H26_2 H 0.1925 1.0000 0.3037
C62_2 C 0.1031(9) 1.0000 0.4432(10)
C67 C 0.6229(26) 0.909(2) 0.274(3)
H31 H 0.6156 0.8405 0.2494
C68 C 0.542(4) 0.906(3) 0.352(3)
H32 H 0.4888 0.8373 0.3853
Mn6_2 Mn 0.8479(2) 0.8479(2) 1.0000
O1_7 O 1.0000 1.0000 -0.0000
O3 O 0.688(3) 0.688(3) -0.0000
O20 O 0.9068(10) 0.7788(10) 0.1245(9)
O1_8 O 1.0000 1.0000 1.0000
O2 O 0.9068(10) 0.7788(10) 0.8755(9)
O3_2 O 0.688(3) 0.688(3) 1.0000
C1_2 C 1.0000 0.7935(16) 0.8428(16)
C2_2 C 1.0000 0.7047(11) 0.7632(14)
C5_2 C 1.0000 0.5427(12) 0.6250(17)
C6_2 C 1.0000 0.4473(11) 0.5611(15)
N1_2 N 1.0000 0.3658(11) 0.6206(11)
C7_2 C 1.0000 0.2770(10) 0.5617(13)
C8_2 C 1.0000 0.1928(9) 0.6176(9)
H3_2 H 1.0000 0.1925 0.6963
C9_2 C 1.0000 0.1031(9) 0.5568(10)
C10_4 C 1.0000 0.0000 0.599(3)
H4_4 H 1.0000 -0.0000 0.6820
C20_2 C 1.0000 0.7935(16) 0.1572(16)
C21_2 C 1.0000 0.7047(11) 0.2368(14)
C24_2 C 1.0000 0.5427(12) 0.3750(17)
C25_2 C 1.0000 0.4473(11) 0.4389(15)
N3_2 N 1.0000 0.3658(11) 0.3794(11)
C26_2 C 1.0000 0.2770(10) 0.4383(13)
C27_2 C 1.0000 0.1928(9) 0.3824(9)
H10_2 H 1.0000 0.1925 0.3037
C28_2 C 1.0000 0.1031(9) 0.4432(10)
C29_4 C 1.0000 0.0000 0.401(3)
H11_4 H 1.0000 0.0000 0.3180
C52 C 0.909(2) 0.6229(26) 0.726(3)
H22 H 0.8405 0.6156 0.7506
C53 C 0.906(3) 0.542(4) 0.648(3)
H23 H 0.8373 0.4888 0.6147
C65 C 0.909(2) 0.6229(26) 0.274(3)
H29 H 0.8405 0.6156 0.2494
C66 C 0.906(3) 0.542(4) 0.352(3)
H30 H 0.8373 0.4888 0.3853
loop_
_geom_bond_atom_site_label_1
_geom_bond_atom_site_label_2
_geom_bond_site_symmetry_1
_geom_bond_site_symmetry_2
O1 Mn3 1_555 1_555
O16 Mn3 1_555 1_555
Mn10 O1 1_555 1_555
O22 Mn3 1_555 1_555
O1_2 Mn3_2 1_555 1_555
O16_2 Mn3_2 1_555 1_555
Mn10_2 O1_2 1_555 1_555
O19 Mn3_2 1_555 1_555
O15 Mn10 1_555 1_555
O24 Mn10 1_555 1_555
H4 C10 1_555 1_555
O19 C11 1_555 1_555
C11 C12 1_555 1_555
C12 C13 1_555 1_555
C13 H5 1_555 1_555
C14 C13 1_555 1_555
H6 C14 1_555 1_555
C15 C14 1_555 1_555
C16 C15 1_555 1_555
N2 C16 1_555 1_555
C17 N2 1_555 1_555
C18 C17 1_555 1_555
H7 C18 1_555 1_555
C19 C10 1_555 1_555
H11 C29 1_555 1_555
O22 C39 1_555 1_555
C39 C40 1_555 1_555
C40 C41 1_555 1_555
C41 H15 1_555 1_555
C42 C41 1_555 1_555
H16 C42 1_555 1_555
C43 C42 1_555 1_555
C44 C16 1_555 1_555
N5 C44 1_555 1_555
C45 C17 1_555 1_555
C46 C45 1_555 1_555
H17 C46 1_555 1_555
C47 C19 1_555 1_555
O24 C39 1_555 1_555
C50 C40 1_555 1_555
H20 C50 1_555 1_555
C51 C43 1_555 1_555
H21 C51 1_555 1_555
O12 C11 1_555 1_555
C63 C12 1_555 1_555
H27 C63 1_555 1_555
C64 C15 1_555 1_555
H28 C64 1_555 1_555
Mn10_2 O12 1_555 1_555
O15_2 Mn10_2 1_555 1_555
C18 C19 1_555 1_555
C29 C47 1_555 1_555
C43 C44 1_555 1_555
N5 C45 1_555 1_555
C46 C47 1_555 1_555
C50 C51 1_555 1_555
C63 C64 1_555 1_555
O1_3 Mn3_3 1_555 1_555
O16_3 Mn3_3 1_555 1_555
O26 Mn3_3 1_555 1_555
O1_4 Mn3_4 1_555 1_555
C2 C1 1_555 1_555
C3 C2 1_555 1_555
H1 C3 1_555 1_555
C4 C3 1_555 1_555
H2 C4 1_555 1_555
C5 C4 1_555 1_555
C6 C5 1_555 1_555
N1 C6 1_555 1_555
C7 N1 1_555 1_555
C8 C7 1_555 1_555
H3 C8 1_555 1_555
C9 C8 1_555 1_555
C10_2 C9 1_555 1_555
H4_2 C10_2 1_555 1_555
C20 C21 1_555 1_555
C21 C22 1_555 1_555
C22 H8 1_555 1_555
C23 C22 1_555 1_555
H9 C23 1_555 1_555
C24 C23 1_555 1_555
C25 C6 1_555 1_555
N3 C25 1_555 1_555
C26 C7 1_555 1_555
C27 C26 1_555 1_555
H10 C27 1_555 1_555
C28 C9 1_555 1_555
C29_2 C28 1_555 1_555
H11_2 C29_2 1_555 1_555
O6 C30 1_555 1_555
C30 C31 1_555 1_555
C35 C34 1_555 1_555
N4 C35 1_555 1_555
C36 N4 1_555 1_555
C37 C36 1_555 1_555
H14 C37 1_555 1_555
C38 C10_2 1_555 1_555
C48 C31 1_555 1_555
H18 C48 1_555 1_555
C49 C34 1_555 1_555
H19 C49 1_555 1_555
O10 C1 1_555 1_555
C54 C55 1_555 1_555
C55 C56 1_555 1_555
C56 H24 1_555 1_555
C57 C56 1_555 1_555
H25 C57 1_555 1_555
C58 C57 1_555 1_555
C59 C35 1_555 1_555
N6 C59 1_555 1_555
C60 C36 1_555 1_555
C61 C60 1_555 1_555
H26 C61 1_555 1_555
C62 C29_2 1_555 1_555
O26 C20 1_555 1_555
O14 C54 1_555 1_555
Mn3_4 O10 1_555 1_555
O16_4 Mn3_4 1_555 1_555
Mn10_3 O14 1_555 1_555
Mn10_4 O6 1_555 1_555
C24 C25 1_555 1_555
N3 C26 1_555 1_555
C27 C28 1_555 1_555
C37 C38 1_555 1_555
C38 C62 1_555 1_555
C48 C49 1_555 1_555
C58 C59 1_555 1_555
N6 C60 1_555 1_555
C61 C62 1_555 1_555
Mn10_3 O1_5 1_555 1_555
Mn10_4 O1_6 1_555 1_555
O15_3 Mn10_3 1_555 1_555
O15_4 Mn10_4 1_555 1_555
H4_3 C10_3 1_555 1_555
H11_3 C29_3 1_555 1_555
C30_2 C31_2 1_555 1_555
C31_2 C32 1_555 1_555
C32 H12 1_555 1_555
C33 C32 1_555 1_555
H13 C33 1_555 1_555
C34_2 C33 1_555 1_555
C35_2 C34_2 1_555 1_555
N4_2 C35_2 1_555 1_555
C36_2 N4_2 1_555 1_555
C37_2 C36_2 1_555 1_555
H14_2 C37_2 1_555 1_555
C38_2 C10_3 1_555 1_555
O8 C30_2 1_555 1_555
O11 C54_2 1_555 1_555
C54_2 C55_2 1_555 1_555
C59_2 C35_2 1_555 1_555
N6_2 C59_2 1_555 1_555
C60_2 C36_2 1_555 1_555
C61_2 C60_2 1_555 1_555
H26_2 C61_2 1_555 1_555
C62_2 C29_3 1_555 1_555
C67 C55_2 1_555 1_555
H31 C67 1_555 1_555
C68 C58_2 1_555 1_555
H32 C68 1_555 1_555
Mn6 O11 1_555 1_555
Mn6_2 O8 1_555 1_555
C37_2 C38_2 1_555 1_555
C38_2 C62_2 1_555 1_555
C58_2 C59_2 1_555 1_555
N6_2 C60_2 1_555 1_555
C61_2 C62_2 1_555 1_555
C67 C68 1_555 1_555
Mn6 O1_7 1_555 1_555
O3 Mn6 1_555 1_555
O20 Mn6 1_555 1_555
Mn6_2 O1_8 1_555 1_555
O2 Mn6_2 1_555 1_555
O3_2 Mn6_2 1_555 1_555
C1_2 O2 1_555 1_555
C2_2 C1_2 1_555 1_555
C6_2 C5_2 1_555 1_555
N1_2 C6_2 1_555 1_555
C7_2 N1_2 1_555 1_555
C8_2 C7_2 1_555 1_555
H3_2 C8_2 1_555 1_555
C9_2 C8_2 1_555 1_555
C10_4 C9_2 1_555 1_555
H4_4 C10_4 1_555 1_555
O20 C20_2 1_555 1_555
C20_2 C21_2 1_555 1_555
C25_2 C6_2 1_555 1_555
N3_2 C25_2 1_555 1_555
C26_2 C7_2 1_555 1_555
C27_2 C26_2 1_555 1_555
H10_2 C27_2 1_555 1_555
C28_2 C9_2 1_555 1_555
C29_4 C28_2 1_555 1_555
H11_4 C29_4 1_555 1_555
C52 C2_2 1_555 1_555
H22 C52 1_555 1_555
C53 C5_2 1_555 1_555
H23 C53 1_555 1_555
C65 C21_2 1_555 1_555
H29 C65 1_555 1_555
C66 C24_2 1_555 1_555
H30 C66 1_555 1_555
C24_2 C25_2 1_555 1_555
N3_2 C26_2 1_555 1_555
C27_2 C28_2 1_555 1_555
C52 C53 1_555 1_555
C65 C66 1_555 1_555

#END
