
###############################################################################
#
# This file contains modified crystal structure data generated from the
# MOF subset of the Cambridge Structural Database (CSD) v543 
# hosted by the Cambridge Crystallographic Data Centre (CCDC).
#
# This work is licensed under the Creative Commons
# Attribution-NonCommercial-ShareAlike 4.0 International License.
# To view a copy of this license, visit
# http://creativecommons.org/licenses/by-nc-sa/4.0/
# or send a letter to
# Creative Commons, PO Box 1866, Mountain View, CA 94042, USA.
#
# CIF created using the CSD Python API on 29 September 2022
# The structure has been converted into the P1 space group
# The structure has a 3D framework
# The original CSD entry REBSID is in the hexagonal crystal system
# The framework has been calculated to contain at least 10.0% void space
# The void calculation uses a probe of radius 1.32A, grid spacing 0.4
# The framework is charged, counterions have been retained in the structure
# H atom positions have been added when not included in the experimental data
# Generated hydrogen atom positions removed from atoms on special positions
#
###############################################################################

data_REBSID
_chemical_formula_moiety         '(C102 H78 Cu5 N10 O21 2-)n'
_symmetry_cell_setting           triclinic
_symmetry_space_group_name_H-M   'P 1'
_symmetry_Int_Tables_number      1
_space_group_name_Hall           'P 1'
loop_
_symmetry_equiv_pos_site_id
_symmetry_equiv_pos_as_xyz
1 x,y,z
_cell_length_a                   13.240(3)
_cell_length_b                   13.240(3)
_cell_length_c                   11.763(3)
_cell_angle_alpha                90
_cell_angle_beta                 90
_cell_angle_gamma                120
_cell_volume                     1785.77
loop_
_atom_site_label
_atom_site_type_symbol
_atom_site_fract_x
_atom_site_fract_y
_atom_site_fract_z
Cu9 Cu -0.0000 0.1428(4) 0.5000
Cu6 Cu 0.1428(4) -0.0000 0.5000
O6 O 0.208(2) 0.1188(11) 0.3861(10)
N4 N 0.6265(13) 0.6265(13) 0.1181(14)
C29 C 0.193(2) 0.193(2) 0.354(2)
C30 C 0.2852(16) 0.2852(16) 0.2693(16)
C31 C 0.370(3) 0.2705(19) 0.232(2)
H11 H 0.3773 0.2070 0.2540
C32 C 0.453(2) 0.359(2) 0.154(3)
H12 H 0.5125 0.3493 0.1237
C33 C 0.447(2) 0.447(2) 0.126(2)
C34 C 0.5428(16) 0.5428(16) 0.0630(17)
C35 C 0.7150(12) 0.7150(12) 0.0603(15)
C36 C 0.8050(11) 0.8050(11) 0.1146(12)
H13 H 0.8046 0.8046 0.1937
C37 C 0.8972(12) 0.8972(12) 0.0603(11)
C38 C 1.0000 1.0000 0.100(2)
H14 H 1.0000 1.0000 0.1830
O9 O 0.1188(11) 0.208(2) 0.3861(10)
C57 C 0.2705(19) 0.370(3) 0.232(2)
H21 H 0.2070 0.3773 0.2540
C58 C 0.359(2) 0.453(2) 0.154(3)
H22 H 0.3493 0.5125 0.1237
O1 O 0.208(2) 0.1188(11) 0.6139(10)
N1 N 0.6265(13) 0.6265(13) 0.8819(14)
C1 C 0.193(2) 0.193(2) 0.646(2)
C2 C 0.2852(16) 0.2852(16) 0.7307(16)
C3 C 0.370(3) 0.2705(19) 0.768(2)
H1 H 0.3773 0.2070 0.7460
C4 C 0.453(2) 0.359(2) 0.846(3)
H2 H 0.5125 0.3493 0.8763
C5 C 0.447(2) 0.447(2) 0.874(2)
C6 C 0.5428(16) 0.5428(16) 0.9370(17)
C7 C 0.7150(12) 0.7150(12) 0.9397(15)
C8 C 0.8050(11) 0.8050(11) 0.8854(12)
H3 H 0.8046 0.8046 0.8063
C9 C 0.8972(12) 0.8972(12) 0.9397(11)
C10 C 1.0000 1.0000 0.900(2)
H4 H 1.0000 1.0000 0.8170
O2 O 0.282(6) 0.0000 0.5000
O3 O -0.0000 0.0000 0.5000
O12 O 0.1188(11) 0.208(2) 0.6139(10)
C63 C 0.2705(19) 0.370(3) 0.768(2)
H27 H 0.2070 0.3773 0.7460
C64 C 0.359(2) 0.453(2) 0.846(3)
H28 H 0.3493 0.5125 0.8763
O15 O 0.0000 0.2820(60) 0.5000
C38_2 C -0.0000 -0.0000 0.100(2)
H14_2 H -0.0000 -0.0000 0.1830
O7 O 0.8812(11) 0.0892(23) 0.3861(10)
N5 N 0.3735(13) -0.0000(18) 0.1181(14)
C39 C 0.807(2) -0.000(3) 0.354(2)
C40 C 0.7148(16) -0.0000(23) 0.2693(16)
C41 C 0.7295(19) 0.0995(36) 0.232(2)
H15 H 0.7930 0.1703 0.2540
C42 C 0.641(2) 0.094(3) 0.154(3)
H16 H 0.6507 0.1632 0.1237
C43 C 0.553(2) -0.000(3) 0.126(2)
C44 C 0.4572(16) -0.0000(23) 0.0630(17)
C45 C 0.2850(12) -0.0000(17) 0.0603(15)
C46 C 0.1950(11) -0.0000(16) 0.1146(12)
H17 H 0.1954 -0.0000 0.1937
C47 C 0.1028(12) -0.0000(17) 0.0603(11)
N6 N -0.0000(18) 0.3735(13) 0.1181(14)
C48 C -0.000(3) 0.807(2) 0.354(2)
C49 C -0.0000(23) 0.7148(16) 0.2693(16)
C52 C -0.000(3) 0.553(2) 0.126(2)
C53 C -0.0000(23) 0.4572(16) 0.0630(17)
C54 C -0.0000(17) 0.2850(12) 0.0603(15)
C55 C -0.0000(16) 0.1950(11) 0.1146(12)
H20 H -0.0000 0.1954 0.1937
C56 C -0.0000(17) 0.1028(12) 0.0603(11)
O10 O 0.0892(23) 0.8812(11) 0.3861(10)
C59 C 0.0995(36) 0.7295(19) 0.232(2)
H23 H 0.1703 0.7930 0.2540
C60 C 0.094(3) 0.641(2) 0.154(3)
H24 H 0.1632 0.6507 0.1237
Cu6_2 Cu 0.1428(4) 1.0000 0.5000
Cu9_2 Cu 1.0000 0.1428(4) 0.5000
C10_2 C -0.0000 -0.0000 0.900(2)
H4_2 H -0.0000 -0.0000 0.8170
O4 O 0.8812(11) 0.0892(23) 0.6139(10)
N2 N 0.3735(13) -0.0000(18) 0.8819(14)
C11 C 0.807(2) -0.000(3) 0.646(2)
C12 C 0.7148(16) -0.0000(23) 0.7307(16)
C13 C 0.7295(19) 0.0995(36) 0.768(2)
H5 H 0.7930 0.1703 0.7460
C14 C 0.641(2) 0.094(3) 0.846(3)
H6 H 0.6507 0.1632 0.8763
C15 C 0.553(2) -0.000(3) 0.874(2)
C16 C 0.4572(16) -0.0000(23) 0.9370(17)
C17 C 0.2850(12) -0.0000(17) 0.9397(15)
C18 C 0.1950(11) -0.0000(16) 0.8854(12)
H7 H 0.1954 -0.0000 0.8063
C19 C 0.1028(12) -0.0000(17) 0.9397(11)
N3 N -0.0000(18) 0.3735(13) 0.8819(14)
C20 C -0.000(3) 0.807(2) 0.646(2)
C21 C -0.0000(23) 0.7148(16) 0.7307(16)
C24 C 0.000(3) 0.553(2) 0.874(2)
C25 C -0.0000(23) 0.4572(16) 0.9370(17)
C26 C -0.0000(17) 0.2850(12) 0.9397(15)
C27 C -0.0000(16) 0.1950(11) 0.8854(12)
H10 H -0.0000 0.1954 0.8063
C28 C -0.0000(17) 0.1028(12) 0.9397(11)
O13 O 0.0892(23) 0.8812(11) 0.6139(10)
C65 C 0.0995(36) 0.7295(19) 0.768(2)
H29 H 0.1703 0.7930 0.7460
C66 C 0.094(3) 0.641(2) 0.846(3)
H30 H 0.1632 0.6507 0.8763
O2_2 O 0.282(6) 1.0000 0.5000
O3_2 O -0.0000 1.0000 0.5000
O3_3 O 1.0000 0.0000 0.5000
O15_2 O 1.0000 0.2820(60) 0.5000
C38_3 C -0.0000 1.0000 0.100(2)
H14_3 H -0.0000 1.0000 0.1830
N5_2 N 0.3735(13) 1.0000(18) 0.1181(14)
C39_2 C 0.807(2) 1.000(3) 0.354(2)
C40_2 C 0.7148(16) 1.0000(23) 0.2693(16)
C43_2 C 0.553(2) 1.000(3) 0.126(2)
C44_2 C 0.4572(16) 1.0000(23) 0.0630(17)
C45_2 C 0.2850(12) 1.0000(17) 0.0603(15)
C46_2 C 0.1950(11) 1.0000(16) 0.1146(12)
H17_2 H 0.1954 1.0000 0.1937
C47_2 C 0.1028(12) 1.0000(17) 0.0603(11)
O11 O 0.792(2) 0.9108(23) 0.3861(10)
C61 C 0.630(3) 0.9005(36) 0.232(2)
H25 H 0.6227 0.8297 0.2540
C62 C 0.547(2) 0.906(3) 0.154(3)
H26 H 0.4875 0.8368 0.1237
Cu13 Cu 0.8572(4) 0.8572(4) 0.5000
C10_3 C -0.0000 1.0000 0.900(2)
H4_3 H -0.0000 1.0000 0.8170
N2_2 N 0.3735(13) 1.0000(18) 0.8819(14)
C11_2 C 0.807(2) 1.000(3) 0.646(2)
C12_2 C 0.7148(16) 1.0000(23) 0.7307(16)
C15_2 C 0.553(2) 1.000(3) 0.874(2)
C16_2 C 0.4572(16) 1.0000(23) 0.9370(17)
C17_2 C 0.2850(12) 1.0000(17) 0.9397(15)
C18_2 C 0.1950(11) 1.0000(16) 0.8854(12)
H7_2 H 0.1954 1.0000 0.8063
C19_2 C 0.1028(12) 1.0000(17) 0.9397(11)
O14 O 0.792(2) 0.9108(23) 0.6139(10)
C67 C 0.630(3) 0.9005(36) 0.768(2)
H31 H 0.6227 0.8297 0.7460
C68 C 0.547(2) 0.906(3) 0.846(3)
H32 H 0.4875 0.8368 0.8763
C38_4 C 1.0000 -0.0000 0.100(2)
H14_4 H 1.0000 -0.0000 0.1830
O8 O 0.9108(23) 0.792(2) 0.3861(10)
N6_2 N 1.0000(18) 0.3735(13) 0.1181(14)
C48_2 C 1.000(3) 0.807(2) 0.354(2)
C49_2 C 1.0000(23) 0.7148(16) 0.2693(16)
C50 C 0.9005(36) 0.630(3) 0.232(2)
H18 H 0.8297 0.6227 0.2540
C51 C 0.906(3) 0.547(2) 0.154(3)
H19 H 0.8368 0.4875 0.1237
C52_2 C 1.000(3) 0.553(2) 0.126(2)
C53_2 C 1.0000(23) 0.4572(16) 0.0630(17)
C54_2 C 1.0000(17) 0.2850(12) 0.0603(15)
C55_2 C 1.0000(16) 0.1950(11) 0.1146(12)
H20_2 H 1.0000 0.1954 0.1937
C56_2 C 1.0000(17) 0.1028(12) 0.0603(11)
C10_4 C 1.0000 -0.0000 0.900(2)
H4_4 H 1.0000 -0.0000 0.8170
O5 O 0.9108(23) 0.792(2) 0.6139(10)
N3_2 N 1.0000(18) 0.3735(13) 0.8819(14)
C20_2 C 1.000(3) 0.807(2) 0.646(2)
C21_2 C 1.0000(23) 0.7148(16) 0.7307(16)
C22 C 0.9005(36) 0.630(3) 0.768(2)
H8 H 0.8297 0.6227 0.7460
C23 C 0.906(3) 0.547(2) 0.846(3)
H9 H 0.8368 0.4875 0.8763
C24_2 C 1.000(3) 0.553(2) 0.874(2)
C25_2 C 1.0000(23) 0.4572(16) 0.9370(17)
C26_2 C 1.0000(17) 0.2850(12) 0.9397(15)
C27_2 C 1.0000(16) 0.1950(11) 0.8854(12)
H10_2 H 1.0000 0.1954 0.8063
C28_2 C 1.0000(17) 0.1028(12) 0.9397(11)
O3_4 O 1.0000 1.0000 0.5000
O16 O 0.7180(60) 0.718(6) 0.5000
loop_
_geom_bond_atom_site_label_1
_geom_bond_atom_site_label_2
_geom_bond_site_symmetry_1
_geom_bond_site_symmetry_2
O6 C29 1_555 1_555
N4 C34 1_555 1_555
C29 C30 1_555 1_555
C30 C31 1_555 1_555
C31 H11 1_555 1_555
C32 C31 1_555 1_555
H12 C32 1_555 1_555
C33 C32 1_555 1_555
C36 C35 1_555 1_555
H13 C36 1_555 1_555
C38 C37 1_555 1_555
H14 C38 1_555 1_555
O9 C29 1_555 1_555
C57 C30 1_555 1_555
H21 C57 1_555 1_555
C58 C33 1_555 1_555
H22 C58 1_555 1_555
Cu6 O6 1_555 1_555
Cu9 O9 1_555 1_555
N4 C35 1_555 1_555
C33 C34 1_555 1_555
C36 C37 1_555 1_555
C57 C58 1_555 1_555
Cu6 O1 1_555 1_555
O1 C1 1_555 1_555
N1 C6 1_555 1_555
C1 C2 1_555 1_555
C2 C3 1_555 1_555
C3 H1 1_555 1_555
C4 C3 1_555 1_555
H2 C4 1_555 1_555
C5 C4 1_555 1_555
C6 C5 1_555 1_555
C7 N1 1_555 1_555
C8 C7 1_555 1_555
H3 C8 1_555 1_555
C9 C8 1_555 1_555
C10 C9 1_555 1_555
H4 C10 1_555 1_555
O2 Cu6 1_555 1_555
O3 Cu6 1_555 1_555
O12 C1 1_555 1_555
C63 C2 1_555 1_555
H27 C63 1_555 1_555
C64 C5 1_555 1_555
H28 C64 1_555 1_555
Cu9 O3 1_555 1_555
O15 Cu9 1_555 1_555
O12 Cu9 1_555 1_555
C63 C64 1_555 1_555
H14_2 C38_2 1_555 1_555
O7 C39 1_555 1_555
N5 C44 1_555 1_555
C39 C40 1_555 1_555
C40 C41 1_555 1_555
C41 H15 1_555 1_555
C42 C41 1_555 1_555
H16 C42 1_555 1_555
C43 C42 1_555 1_555
C46 C45 1_555 1_555
H17 C46 1_555 1_555
N6 C53 1_555 1_555
C48 C49 1_555 1_555
C55 C54 1_555 1_555
H20 C55 1_555 1_555
O10 C48 1_555 1_555
C59 C49 1_555 1_555
H23 C59 1_555 1_555
C60 C52 1_555 1_555
H24 C60 1_555 1_555
Cu6_2 O10 1_555 1_555
Cu9_2 O7 1_555 1_555
C38_2 C47 1_555 1_555
C38_2 C56 1_555 1_555
N5 C45 1_555 1_555
C43 C44 1_555 1_555
C46 C47 1_555 1_555
N6 C54 1_555 1_555
C52 C53 1_555 1_555
C55 C56 1_555 1_555
C59 C60 1_555 1_555
H4_2 C10_2 1_555 1_555
O4 C11 1_555 1_555
N2 C16 1_555 1_555
C11 C12 1_555 1_555
C12 C13 1_555 1_555
C13 H5 1_555 1_555
C14 C13 1_555 1_555
H6 C14 1_555 1_555
C15 C14 1_555 1_555
C16 C15 1_555 1_555
C17 N2 1_555 1_555
C18 C17 1_555 1_555
H7 C18 1_555 1_555
C19 C10_2 1_555 1_555
N3 C25 1_555 1_555
C20 C21 1_555 1_555
C25 C24 1_555 1_555
C26 N3 1_555 1_555
C27 C26 1_555 1_555
H10 C27 1_555 1_555
C28 C10_2 1_555 1_555
O13 C20 1_555 1_555
C65 C21 1_555 1_555
H29 C65 1_555 1_555
C66 C24 1_555 1_555
H30 C66 1_555 1_555
Cu6_2 O13 1_555 1_555
Cu9_2 O4 1_555 1_555
C18 C19 1_555 1_555
C27 C28 1_555 1_555
C65 C66 1_555 1_555
O2_2 Cu6_2 1_555 1_555
O3_2 Cu6_2 1_555 1_555
Cu9_2 O3_3 1_555 1_555
O15_2 Cu9_2 1_555 1_555
H14_3 C38_3 1_555 1_555
N5_2 C44_2 1_555 1_555
C39_2 C40_2 1_555 1_555
C46_2 C45_2 1_555 1_555
H17_2 C46_2 1_555 1_555
O11 C39_2 1_555 1_555
C61 C40_2 1_555 1_555
H25 C61 1_555 1_555
C62 C43_2 1_555 1_555
H26 C62 1_555 1_555
Cu13 O11 1_555 1_555
C38_3 C47_2 1_555 1_555
N5_2 C45_2 1_555 1_555
C43_2 C44_2 1_555 1_555
C46_2 C47_2 1_555 1_555
C61 C62 1_555 1_555
H4_3 C10_3 1_555 1_555
N2_2 C16_2 1_555 1_555
C11_2 C12_2 1_555 1_555
C16_2 C15_2 1_555 1_555
C17_2 N2_2 1_555 1_555
C18_2 C17_2 1_555 1_555
H7_2 C18_2 1_555 1_555
C19_2 C10_3 1_555 1_555
O14 C11_2 1_555 1_555
C67 C12_2 1_555 1_555
H31 C67 1_555 1_555
C68 C15_2 1_555 1_555
H32 C68 1_555 1_555
Cu13 O14 1_555 1_555
C18_2 C19_2 1_555 1_555
C67 C68 1_555 1_555
H14_4 C38_4 1_555 1_555
O8 C48_2 1_555 1_555
N6_2 C53_2 1_555 1_555
C48_2 C49_2 1_555 1_555
C49_2 C50 1_555 1_555
C50 H18 1_555 1_555
C51 C50 1_555 1_555
H19 C51 1_555 1_555
C52_2 C51 1_555 1_555
C55_2 C54_2 1_555 1_555
H20_2 C55_2 1_555 1_555
Cu13 O8 1_555 1_555
C38_4 C56_2 1_555 1_555
N6_2 C54_2 1_555 1_555
C52_2 C53_2 1_555 1_555
C55_2 C56_2 1_555 1_555
H4_4 C10_4 1_555 1_555
O5 C20_2 1_555 1_555
N3_2 C25_2 1_555 1_555
C20_2 C21_2 1_555 1_555
C21_2 C22 1_555 1_555
C22 H8 1_555 1_555
C23 C22 1_555 1_555
H9 C23 1_555 1_555
C24_2 C23 1_555 1_555
C25_2 C24_2 1_555 1_555
C26_2 N3_2 1_555 1_555
C27_2 C26_2 1_555 1_555
H10_2 C27_2 1_555 1_555
C28_2 C10_4 1_555 1_555
Cu13 O5 1_555 1_555
C27_2 C28_2 1_555 1_555
Cu13 O3_4 1_555 1_555
O16 Cu13 1_555 1_555

#END
