
###############################################################################
#
# This file contains modified crystal structure data generated from the
# MOF subset of the Cambridge Structural Database (CSD) v543 
# hosted by the Cambridge Crystallographic Data Centre (CCDC).
#
# This work is licensed under the Creative Commons
# Attribution-NonCommercial-ShareAlike 4.0 International License.
# To view a copy of this license, visit
# http://creativecommons.org/licenses/by-nc-sa/4.0/
# or send a letter to
# Creative Commons, PO Box 1866, Mountain View, CA 94042, USA.
#
# CIF created using the CSD Python API on 29 September 2022
# The structure has been converted into the P1 space group
# The structure has a 3D framework
# The original CSD entry REBSOJ is in the hexagonal crystal system
# The framework has been calculated to contain at least 10.0% void space
# The void calculation uses a probe of radius 1.32A, grid spacing 0.4
# The framework is charged, counterions have been retained in the structure
# H atom positions have been added when not included in the experimental data
# Generated hydrogen atom positions removed from atoms on special positions
#
###############################################################################

data_REBSOJ
_chemical_formula_moiety         '(C102 H78 Co10 N10 O30 1-)n'
_symmetry_cell_setting           triclinic
_symmetry_space_group_name_H-M   'P 1'
_symmetry_Int_Tables_number      1
_space_group_name_Hall           'P 1'
loop_
_symmetry_equiv_pos_site_id
_symmetry_equiv_pos_as_xyz
1 x,y,z
_cell_length_a                   13.4098(19)
_cell_length_b                   13.4098(19)
_cell_length_c                   11.8367(16)
_cell_angle_alpha                90
_cell_angle_beta                 90
_cell_angle_gamma                120
_cell_volume                     1843.34
loop_
_atom_site_label
_atom_site_type_symbol
_atom_site_fract_x
_atom_site_fract_y
_atom_site_fract_z
Co13 Co 0.0000 0.1486(2) 0.0000
Co13_2 Co 0.0000 0.1486(2) 1.0000
Co6 Co 0.1486(2) 0.0000 0.0000
O2 O 0.3090(15) 0.0000 0.0000
O3 O 0.0000 0.0000 0.0000
O16 O 0.0000 0.3090(15) 0.0000
Co6_2 Co 0.1486(2) 0.0000 1.0000
O18 O 0.1237(6) 0.2182(10) 0.1219(7)
O25 O 0.2182(10) 0.1237(6) 0.1219(7)
O2_2 O 0.3090(15) -0.0000 1.0000
O3_2 O 0.0000 -0.0000 1.0000
O16_2 O 0.0000 0.3090(15) 1.0000
O21 O 0.1237(6) 0.2182(10) 0.8781(7)
O23 O 0.2182(10) 0.1237(6) 0.8781(7)
C10 C 1.0000 1.0000 0.392(2)
H4 H 1.0000 1.0000 0.3092
C11 C 0.2013(13) 0.2013(13) 0.1523(15)
C12 C 0.2908(10) 0.2908(10) 0.2345(13)
C13 C 0.2835(15) 0.3785(22) 0.269(2)
H5 H 0.2254 0.3904 0.2416
C14 C 0.3598(19) 0.4538(28) 0.346(3)
H6 H 0.3419 0.5050 0.3811
C15 C 0.4587(13) 0.4587(13) 0.3748(13)
C16 C 0.5481(10) 0.5481(10) 0.4408(14)
C17 C 0.8085(8) 0.8085(8) 0.3802(9)
H7 H 0.8082 0.8082 0.3016
C18 C 0.7200(11) 0.7200(11) 0.4396(13)
C19 C 0.8986(9) 0.8986(9) 0.4395(11)
N2 N 0.6294(10) 0.6294(10) 0.3806(11)
C29 C 1.0000 1.0000 0.608(2)
H11 H 1.0000 1.0000 0.6908
C39 C 0.2013(13) 0.2013(13) 0.8477(15)
C40 C 0.2908(10) 0.2908(10) 0.7655(13)
C41 C 0.2835(15) 0.3785(22) 0.731(2)
H15 H 0.2254 0.3904 0.7584
C42 C 0.3598(19) 0.4538(28) 0.654(3)
H16 H 0.3419 0.5050 0.6189
C43 C 0.4587(13) 0.4587(13) 0.6252(13)
C44 C 0.5481(10) 0.5481(10) 0.5592(14)
C45 C 0.8085(8) 0.8085(8) 0.6198(9)
H17 H 0.8082 0.8082 0.6984
C46 C 0.7200(11) 0.7200(11) 0.5604(13)
C47 C 0.8986(9) 0.8986(9) 0.5605(11)
N5 N 0.6294(10) 0.6294(10) 0.6194(11)
C50 C 0.3785(22) 0.2835(15) 0.731(2)
H20 H 0.3904 0.2254 0.7584
C51 C 0.4538(28) 0.3598(19) 0.654(3)
H21 H 0.5050 0.3419 0.6189
C63 C 0.3785(22) 0.2835(15) 0.269(2)
H27 H 0.3904 0.2254 0.2416
C64 C 0.4538(28) 0.3598(19) 0.346(3)
H28 H 0.5050 0.3419 0.3811
Co6_3 Co 0.1486(2) 1.0000 0.0000
Co13_3 Co 1.0000 0.1486(2) 0.0000
C1 C -0.0000 0.7987(13) 0.1523(15)
C2 C -0.0000 0.7092(10) 0.2345(13)
C3 C 0.0950(16) 0.7165(15) 0.269(2)
H1 H 0.1650 0.7746 0.2416
C4 C 0.094(2) 0.6402(19) 0.346(3)
H2 H 0.1631 0.6581 0.3811
C5 C 0.0000 0.5413(13) 0.3748(13)
C6 C 0.0000 0.4519(10) 0.4408(14)
C7 C 0.0000 0.1915(8) 0.3802(9)
H3 H 0.0000 0.1918 0.3016
C8 C -0.0000 0.2800(11) 0.4396(13)
C9 C -0.0000 0.1014(9) 0.4395(11)
C10_2 C 0.0000 0.0000 0.392(2)
H4_2 H 0.0000 0.0000 0.3092
O1 O 0.0945(8) 0.8763(6) 0.1219(7)
O2_3 O 0.3090(15) 1.0000 0.0000
O3_3 O 0.0000 1.0000 0.0000
N1 N 0.0000 0.3706(10) 0.3806(11)
C20 C 0.0000 0.7987(13) 0.8477(15)
C21 C 0.0000 0.7092(10) 0.7655(13)
C22 C 0.0950(16) 0.7165(15) 0.731(2)
H8 H 0.1650 0.7746 0.7584
C23 C 0.094(2) 0.6402(19) 0.654(3)
H9 H 0.1631 0.6581 0.6189
C24 C -0.0000 0.5413(13) 0.6252(13)
C25 C 0.0000 0.4519(10) 0.5592(14)
C26 C 0.0000 0.1915(8) 0.6198(9)
H10 H 0.0000 0.1918 0.6984
C27 C 0.0000 0.2800(11) 0.5604(13)
C28 C 0.0000 0.1014(9) 0.5605(11)
C29_2 C 0.0000 -0.0000 0.608(2)
H11_2 H 0.0000 0.0000 0.6908
O5 O 0.0945(8) 0.8763(6) 0.8781(7)
N3 N -0.0000 0.3706(10) 0.6194(11)
C30 C 0.7987(13) -0.0000 0.1523(15)
C31 C 0.7092(10) -0.0000 0.2345(13)
C34 C 0.5413(13) 0.0000 0.3748(13)
C35 C 0.4519(10) -0.0000 0.4408(14)
C36 C 0.1915(8) -0.0000 0.3802(9)
H14 H 0.1918 -0.0000 0.3016
C37 C 0.2800(11) -0.0000 0.4396(13)
C38 C 0.1014(9) -0.0000 0.4395(11)
N4 N 0.3706(10) -0.0000 0.3806(11)
C48 C 0.7165(15) 0.0950(16) 0.269(2)
H18 H 0.7746 0.1650 0.2416
C49 C 0.6402(19) 0.094(2) 0.346(3)
H19 H 0.6581 0.1631 0.3811
O8 O 0.8763(6) 0.0945(8) 0.1219(7)
C54 C 0.7987(13) -0.0000 0.8477(15)
C55 C 0.7092(10) 0.0000 0.7655(13)
C56 C 0.7165(15) 0.0950(16) 0.731(2)
H24 H 0.7746 0.1650 0.7584
C57 C 0.6402(19) 0.094(2) 0.654(3)
H25 H 0.6581 0.1631 0.6189
C58 C 0.5413(13) 0.0000 0.6252(13)
C59 C 0.4519(10) -0.0000 0.5592(14)
C60 C 0.1915(8) 0.0000 0.6198(9)
H26 H 0.1918 -0.0000 0.6984
C61 C 0.2800(11) 0.0000 0.5604(13)
C62 C 0.1014(9) 0.0000 0.5605(11)
O11 O 0.8763(6) 0.0945(8) 0.8781(7)
N6 N 0.3706(10) -0.0000 0.6194(11)
Co6_4 Co 0.1486(2) 1.0000 1.0000
Co13_4 Co 1.0000 0.1486(2) 1.0000
O2_4 O 0.3090(15) 1.0000 1.0000
O3_4 O 0.0000 1.0000 1.0000
O3_5 O 1.0000 0.0000 0.0000
O16_3 O 1.0000 0.3090(15) 0.0000
O3_6 O 1.0000 -0.0000 1.0000
O16_4 O 1.0000 0.3090(15) 1.0000
Co9 Co 0.8514(2) 0.8514(2) 0.0000
C10_3 C -0.0000 1.0000 0.392(2)
H4_3 H -0.0000 1.0000 0.3092
C29_3 C -0.0000 1.0000 0.608(2)
H11_3 H -0.0000 1.0000 0.6908
C30_2 C 0.7987(13) 1.0000 0.1523(15)
C31_2 C 0.7092(10) 1.0000 0.2345(13)
C32 C 0.6215(22) 0.9050(16) 0.269(2)
H12 H 0.6096 0.8350 0.2416
C33 C 0.5462(28) 0.906(2) 0.346(3)
H13 H 0.4950 0.8369 0.3811
C34_2 C 0.5413(13) 1.0000 0.3748(13)
C35_2 C 0.4519(10) 1.0000 0.4408(14)
C36_2 C 0.1915(8) 1.0000 0.3802(9)
H14_2 H 0.1918 1.0000 0.3016
C37_2 C 0.2800(11) 1.0000 0.4396(13)
C38_2 C 0.1014(9) 1.0000 0.4395(11)
O6 O 0.7818(10) 0.9055(8) 0.1219(7)
N4_2 N 0.3706(10) 1.0000 0.3806(11)
C54_2 C 0.7987(13) 1.0000 0.8477(15)
C55_2 C 0.7092(10) 1.0000 0.7655(13)
C58_2 C 0.5413(13) 1.0000 0.6252(13)
C59_2 C 0.4519(10) 1.0000 0.5592(14)
C60_2 C 0.1915(8) 1.0000 0.6198(9)
H26_2 H 0.1918 1.0000 0.6984
C61_2 C 0.2800(11) 1.0000 0.5604(13)
C62_2 C 0.1014(9) 1.0000 0.5605(11)
N6_2 N 0.3706(10) 1.0000 0.6194(11)
C67 C 0.6215(22) 0.9050(16) 0.731(2)
H31 H 0.6096 0.8350 0.7584
C68 C 0.5462(28) 0.906(2) 0.654(3)
H32 H 0.4950 0.8369 0.6189
O14 O 0.7818(10) 0.9055(8) 0.8781(7)
Co9_2 Co 0.8514(2) 0.8514(2) 1.0000
C1_2 C 1.0000 0.7987(13) 0.1523(15)
C2_2 C 1.0000 0.7092(10) 0.2345(13)
C5_2 C 1.0000 0.5413(13) 0.3748(13)
C6_2 C 1.0000 0.4519(10) 0.4408(14)
C7_2 C 1.0000 0.1915(8) 0.3802(9)
H3_2 H 1.0000 0.1918 0.3016
C8_2 C 1.0000 0.2800(11) 0.4396(13)
C9_2 C 1.0000 0.1014(9) 0.4395(11)
C10_4 C 1.0000 0.0000 0.392(2)
H4_4 H 1.0000 0.0000 0.3092
O3_7 O 1.0000 1.0000 0.0000
N1_2 N 1.0000 0.3706(10) 0.3806(11)
C20_2 C 1.0000 0.7987(13) 0.8477(15)
C21_2 C 1.0000 0.7092(10) 0.7655(13)
C24_2 C 1.0000 0.5413(13) 0.6252(13)
C25_2 C 1.0000 0.4519(10) 0.5592(14)
C26_2 C 1.0000 0.1915(8) 0.6198(9)
H10_2 H 1.0000 0.1918 0.6984
C27_2 C 1.0000 0.2800(11) 0.5604(13)
C28_2 C 1.0000 0.1014(9) 0.5605(11)
C29_4 C 1.0000 -0.0000 0.608(2)
H11_4 H 1.0000 0.0000 0.6908
N3_2 N 1.0000 0.3706(10) 0.6194(11)
C52 C 0.9050(16) 0.6215(22) 0.269(2)
H22 H 0.8350 0.6096 0.2416
C53 C 0.906(2) 0.5462(28) 0.346(3)
H23 H 0.8369 0.4950 0.3811
O10 O 0.9055(8) 0.7818(10) 0.1219(7)
C65 C 0.9050(16) 0.6215(22) 0.731(2)
H29 H 0.8350 0.6096 0.7584
C66 C 0.906(2) 0.5462(28) 0.654(3)
H30 H 0.8369 0.4950 0.6189
O13 O 0.9055(8) 0.7818(10) 0.8781(7)
O15 O 0.6910(15) 0.6910(15) 0.0000
O3_8 O 1.0000 1.0000 1.0000
O15_2 O 0.6910(15) 0.6910(15) 1.0000
loop_
_geom_bond_atom_site_label_1
_geom_bond_atom_site_label_2
_geom_bond_site_symmetry_1
_geom_bond_site_symmetry_2
O2 Co6 1_555 1_555
O3 Co6 1_555 1_555
Co13 O3 1_555 1_555
O16 Co13 1_555 1_555
O18 Co13 1_555 1_555
O25 Co6 1_555 1_555
O2_2 Co6_2 1_555 1_555
O3_2 Co6_2 1_555 1_555
Co13_2 O3_2 1_555 1_555
O16_2 Co13_2 1_555 1_555
O21 Co13_2 1_555 1_555
O23 Co6_2 1_555 1_555
H4 C10 1_555 1_555
C11 C12 1_555 1_555
C12 C13 1_555 1_555
C13 H5 1_555 1_555
C14 C13 1_555 1_555
H6 C14 1_555 1_555
C15 C14 1_555 1_555
C16 C15 1_555 1_555
C17 H7 1_555 1_555
C18 C17 1_555 1_555
C19 C10 1_555 1_555
O18 C11 1_555 1_555
N2 C16 1_555 1_555
H11 C29 1_555 1_555
C39 C40 1_555 1_555
C40 C41 1_555 1_555
C41 H15 1_555 1_555
C42 C41 1_555 1_555
H16 C42 1_555 1_555
C43 C42 1_555 1_555
C44 C16 1_555 1_555
C45 H17 1_555 1_555
C46 C18 1_555 1_555
C47 C19 1_555 1_555
O21 C39 1_555 1_555
N5 C44 1_555 1_555
C50 C40 1_555 1_555
H20 C50 1_555 1_555
C51 C43 1_555 1_555
H21 C51 1_555 1_555
O23 C39 1_555 1_555
C63 C12 1_555 1_555
H27 C63 1_555 1_555
C64 C15 1_555 1_555
H28 C64 1_555 1_555
O25 C11 1_555 1_555
C17 C19 1_555 1_555
C18 N2 1_555 1_555
C29 C47 1_555 1_555
C43 C44 1_555 1_555
C45 C46 1_555 1_555
C45 C47 1_555 1_555
C46 N5 1_555 1_555
C50 C51 1_555 1_555
C63 C64 1_555 1_555
C1 C2 1_555 1_555
C2 C3 1_555 1_555
C3 H1 1_555 1_555
C4 C3 1_555 1_555
H2 C4 1_555 1_555
C5 C4 1_555 1_555
C6 C5 1_555 1_555
C7 H3 1_555 1_555
C8 C7 1_555 1_555
C9 C7 1_555 1_555
C10_2 C9 1_555 1_555
H4_2 C10_2 1_555 1_555
Co6_3 O1 1_555 1_555
O1 C1 1_555 1_555
O2_3 Co6_3 1_555 1_555
O3_3 Co6_3 1_555 1_555
N1 C6 1_555 1_555
C20 C21 1_555 1_555
C21 C22 1_555 1_555
C22 H8 1_555 1_555
C23 C22 1_555 1_555
H9 C23 1_555 1_555
C24 C23 1_555 1_555
C25 C6 1_555 1_555
C26 H10 1_555 1_555
C27 C8 1_555 1_555
C28 C9 1_555 1_555
C29_2 C28 1_555 1_555
H11_2 C29_2 1_555 1_555
O5 C20 1_555 1_555
N3 C25 1_555 1_555
C30 C31 1_555 1_555
C35 C34 1_555 1_555
C36 H14 1_555 1_555
C37 C36 1_555 1_555
C38 C10_2 1_555 1_555
N4 C35 1_555 1_555
C48 C31 1_555 1_555
H18 C48 1_555 1_555
C49 C34 1_555 1_555
H19 C49 1_555 1_555
O8 C30 1_555 1_555
C54 C55 1_555 1_555
C55 C56 1_555 1_555
C56 H24 1_555 1_555
C57 C56 1_555 1_555
H25 C57 1_555 1_555
C58 C57 1_555 1_555
C59 C35 1_555 1_555
C60 H26 1_555 1_555
C61 C37 1_555 1_555
C62 C29_2 1_555 1_555
O11 C54 1_555 1_555
N6 C59 1_555 1_555
Co6_4 O5 1_555 1_555
Co13_3 O8 1_555 1_555
Co13_4 O11 1_555 1_555
C8 N1 1_555 1_555
C24 C25 1_555 1_555
C26 C27 1_555 1_555
C26 C28 1_555 1_555
C27 N3 1_555 1_555
C36 C38 1_555 1_555
C37 N4 1_555 1_555
C38 C62 1_555 1_555
C48 C49 1_555 1_555
C58 C59 1_555 1_555
C60 C61 1_555 1_555
C60 C62 1_555 1_555
C61 N6 1_555 1_555
O2_4 Co6_4 1_555 1_555
O3_4 Co6_4 1_555 1_555
Co13_3 O3_5 1_555 1_555
O16_3 Co13_3 1_555 1_555
Co13_4 O3_6 1_555 1_555
O16_4 Co13_4 1_555 1_555
H4_3 C10_3 1_555 1_555
H11_3 C29_3 1_555 1_555
C30_2 C31_2 1_555 1_555
C31_2 C32 1_555 1_555
C32 H12 1_555 1_555
C33 C32 1_555 1_555
H13 C33 1_555 1_555
C34_2 C33 1_555 1_555
C35_2 C34_2 1_555 1_555
C36_2 H14_2 1_555 1_555
C37_2 C36_2 1_555 1_555
C38_2 C10_3 1_555 1_555
O6 C30_2 1_555 1_555
N4_2 C35_2 1_555 1_555
C54_2 C55_2 1_555 1_555
C59_2 C35_2 1_555 1_555
C60_2 H26_2 1_555 1_555
C61_2 C37_2 1_555 1_555
C62_2 C29_3 1_555 1_555
N6_2 C59_2 1_555 1_555
C67 C55_2 1_555 1_555
H31 C67 1_555 1_555
C68 C58_2 1_555 1_555
H32 C68 1_555 1_555
O14 C54_2 1_555 1_555
Co9 O6 1_555 1_555
Co9_2 O14 1_555 1_555
C36_2 C38_2 1_555 1_555
C37_2 N4_2 1_555 1_555
C38_2 C62_2 1_555 1_555
C58_2 C59_2 1_555 1_555
C60_2 C61_2 1_555 1_555
C60_2 C62_2 1_555 1_555
C61_2 N6_2 1_555 1_555
C67 C68 1_555 1_555
C1_2 C2_2 1_555 1_555
C6_2 C5_2 1_555 1_555
C7_2 H3_2 1_555 1_555
C8_2 C7_2 1_555 1_555
C9_2 C7_2 1_555 1_555
C10_4 C9_2 1_555 1_555
H4_4 C10_4 1_555 1_555
N1_2 C6_2 1_555 1_555
C20_2 C21_2 1_555 1_555
C25_2 C6_2 1_555 1_555
C26_2 H10_2 1_555 1_555
C27_2 C8_2 1_555 1_555
C28_2 C9_2 1_555 1_555
C29_4 C28_2 1_555 1_555
H11_4 C29_4 1_555 1_555
N3_2 C25_2 1_555 1_555
C52 C2_2 1_555 1_555
H22 C52 1_555 1_555
C53 C5_2 1_555 1_555
H23 C53 1_555 1_555
O10 C1_2 1_555 1_555
C65 C21_2 1_555 1_555
H29 C65 1_555 1_555
C66 C24_2 1_555 1_555
H30 C66 1_555 1_555
O13 C20_2 1_555 1_555
Co9 O3_7 1_555 1_555
O15 Co9 1_555 1_555
Co9_2 O13 1_555 1_555
C8_2 N1_2 1_555 1_555
C24_2 C25_2 1_555 1_555
C26_2 C27_2 1_555 1_555
C26_2 C28_2 1_555 1_555
C27_2 N3_2 1_555 1_555
C52 C53 1_555 1_555
O10 Co9 1_555 1_555
C65 C66 1_555 1_555
Co9_2 O3_8 1_555 1_555
O15_2 Co9_2 1_555 1_555

#END
