
###############################################################################
#
# This file contains modified crystal structure data generated from the
# MOF subset of the Cambridge Structural Database (CSD) v543 
# hosted by the Cambridge Crystallographic Data Centre (CCDC).
#
# This work is licensed under the Creative Commons
# Attribution-NonCommercial-ShareAlike 4.0 International License.
# To view a copy of this license, visit
# http://creativecommons.org/licenses/by-nc-sa/4.0/
# or send a letter to
# Creative Commons, PO Box 1866, Mountain View, CA 94042, USA.
#
# CIF created using the CSD Python API on 29 September 2022
# The structure has been converted into the P1 space group
# The structure has a 3D framework
# The original CSD entry REBYIJ is in the orthorhombic crystal system
# The original CSD entry REBYIJ is in a Sohncke space group
# The framework has been calculated to contain at least 10.0% void space
# The void calculation uses a probe of radius 1.32A, grid spacing 0.4
# The framework is charged, counterions have been retained in the structure
# H atom positions have been added when not included in the experimental data
#
###############################################################################

data_REBYIJ
_chemical_formula_moiety         '(C168 H126 Cd8 N24 O30 4+)n'
_symmetry_cell_setting           triclinic
_symmetry_space_group_name_H-M   'P 1'
_symmetry_Int_Tables_number      1
_space_group_name_Hall           'P 1'
loop_
_symmetry_equiv_pos_site_id
_symmetry_equiv_pos_as_xyz
1 x,y,z
_cell_length_a                   15.214(5)
_cell_length_b                   17.476(5)
_cell_length_c                   24.498(5)
_cell_angle_alpha                90
_cell_angle_beta                 90
_cell_angle_gamma                90
_cell_volume                     6513.52
loop_
_atom_site_label
_atom_site_type_symbol
_atom_site_fract_x
_atom_site_fract_y
_atom_site_fract_z
H21 H 0.008653 0.435996 0.802273
O6 O 0.0242(3) 0.5804(2) 0.7918(2)
Cd3 Cd 0.01610(2) 0.72367(2) 0.79424(2)
C1 C 0.4790(4) 0.5187(4) 0.7033(3)
H1 H 0.522351 0.482584 0.696087
C2 C 0.5001(4) 0.5887(4) 0.7256(4)
C3 C 0.4362(4) 0.6420(4) 0.7373(4)
H2 H 0.451711 0.689106 0.752134
C4 C 0.3502(4) 0.6255(4) 0.7270(3)
C5 C 0.3257(4) 0.5564(4) 0.7025(3)
H3 H 0.267365 0.546521 0.693573
C6 C 0.3909(4) 0.5033(4) 0.6918(3)
C7 C 0.2884(5) 0.7571(4) 0.7381(3)
H4 H 0.338674 0.785626 0.730735
C8 C 0.2095(4) 0.7851(4) 0.7515(3)
H5 H 0.194968 0.836712 0.754023
C9 C 0.1994(4) 0.6631(4) 0.7523(3)
H6 H 0.177888 0.613563 0.756162
C10 C 0.4089(5) 0.3975(4) 0.6250(4)
H7 H 0.453989 0.417208 0.603515
C11 C 0.3686(5) 0.3293(5) 0.6197(4)
H8 H 0.382639 0.292884 0.593474
C12 C 0.3058(4) 0.3836(4) 0.6865(3)
H9 H 0.268045 0.394183 0.715339
C13 C 0.6603(5) 0.5711(5) 0.7131(4)
H10 H 0.660357 0.539347 0.682694
C14 C 0.7329(5) 0.5975(5) 0.7437(4)
H11 H 0.790563 0.581170 0.739093
C15 C 0.6212(4) 0.6538(4) 0.7759(3)
H12 H 0.586323 0.687526 0.795714
N1 N 0.1534(3) 0.7248(3) 0.7607(2)
N2 N 0.2823(3) 0.6801(3) 0.7372(2)
N3 N 0.3692(3) 0.4315(3) 0.6687(3)
N4 N 0.3042(3) 0.3208(3) 0.6581(2)
N5 N 0.5900(4) 0.6034(4) 0.7389(4)
N6 N 0.7065(4) 0.6494(3) 0.7804(3)
O3 O 0.0138(3) 0.8556(2) 0.80342(19)
O8 O 0.0821(5) 0.6997(4) 0.8835(3)
Cd6 Cd 0.79506(2) 0.72683(3) 0.82931(2)
Cd8 Cd 0.20494(2) 0.22683(3) 0.67069(2)
H30 H 0.121971 0.742632 0.893088
H31 H 0.0350515 0.695489 0.911433
C36 C 0.6631(4) 0.2413(4) 0.1506(3)
C37 C 0.7346(5) 0.1957(4) 0.1406(3)
H24 H 0.758069 0.166469 0.168795
C38 C 0.7725(5) 0.1924(4) 0.0892(3)
H25 H 0.821991 0.162229 0.083400
C39 C 0.7372(4) 0.2338(4) 0.0465(3)
C40 C 0.6692(4) 0.2805(4) 0.0572(3)
H26 H 0.648102 0.311928 0.029490
C41 C 0.6294(5) 0.2835(4) 0.1079(3)
H27 H 0.580065 0.314058 0.113232
C42 C 0.6244(4) 0.2477(3) 0.2076(3)
O1 O 0.5507(3) 0.2786(2) 0.21137(15)
O2 O 0.6666(3) 0.2193(3) 0.24584(17)
Cd4 Cd 0.48390(2) 0.27633(2) 0.29424(2)
Cd7 Cd 0.70494(2) 0.27317(3) 0.32931(2)
C16 C 0.8588(4) 0.2227(4) 0.8897(2)
H13 H 0.884100 0.219992 0.855169
C17 C 0.8362(4) 0.2950(3) 0.9113(3)
C18 C 0.7945(5) 0.2959(3) 0.9627(3)
H14 H 0.776777 0.342579 0.977291
C19 C 0.7791(4) 0.2300(3) 0.9922(2)
C20 C 0.8066(4) 0.1611(3) 0.9697(3)
H15 H 0.799331 0.116674 0.990068
C21 C 0.8443(4) 0.1554(3) 0.9186(3)
C22 C 0.8690(4) 0.0794(3) 0.8960(2)
C23 C 0.8342(4) 0.0115(3) 0.9158(3)
H16 H 0.791892 0.013940 0.943175
C26 C 0.9572(4) 0.0029(3) 0.8342(3)
H18 H 0.998876 -0.000050 0.806464
C27 C 0.9304(4) 0.0734(3) 0.8542(3)
H19 H 0.954186 0.117739 0.839311
C29 C 0.8606(5) 0.3657(3) 0.8829(3)
C30 C 0.9317(5) 0.3678(3) 0.8485(3)
H20 H 0.961328 0.322649 0.840452
C31 C 0.9603(5) 0.4359(3) 0.8255(3)
C32 C 0.9170(4) 0.5037(3) 0.8370(3)
C33 C 0.8431(5) 0.5010(3) 0.8686(3)
H22 H 0.811134 0.545573 0.874617
C34 C 0.8152(5) 0.4332(3) 0.8917(3)
H23 H 0.765199 0.432923 0.913446
C35 C 0.9532(5) 0.5776(3) 0.8147(3)
O5 O 0.9076(3) 0.6377(2) 0.8239(2)
C24 C 0.8589(4) 0.9429(3) 0.8975(2)
H17 H 0.834242 0.898984 0.912550
C25 C 0.9207(4) 0.9364(3) 0.8562(3)
H18_2 H 0.998876 0.999950 0.806464
C28 C 0.9529(4) 0.8592(3) 0.8354(3)
O4 O 0.9158(3) 0.7998(2) 0.85482(18)
O7 O 0.7849(6) 0.6944(4) 0.9210(3)
N7 N 0.6958(3) 0.8208(3) 0.8419(2)
O9 O 0.9493(3) 0.7214(2) 0.71137(15)
O10 O 0.8334(3) 0.7807(3) 0.74584(17)
H28 H 0.776106 0.741451 0.943059
H29 H 0.734332 0.659308 0.926488
C1_2 C 0.0210(4) 0.4813(4) 0.2033(3)
C3_2 C 0.0638(4) 0.3580(4) 0.2373(4)
H2_2 H 0.048289 0.310894 0.252134
C4_2 C 0.1498(4) 0.3745(4) 0.2270(3)
C5_2 C 0.1743(4) 0.4436(4) 0.2025(3)
H3_2 H 0.232635 0.453479 0.193573
C6_2 C 0.1091(4) 0.4967(4) 0.1918(3)
C7_2 C 0.2116(5) 0.2429(4) 0.2381(3)
H4_2 H 0.161326 0.214374 0.230735
C8_2 C 0.2905(4) 0.2149(4) 0.2515(3)
H5_2 H 0.305032 0.163288 0.254023
C9_2 C 0.3006(4) 0.3369(4) 0.2523(3)
H6_2 H 0.322112 0.386437 0.256162
C10_2 C 0.0911(5) 0.6025(4) 0.1250(4)
H7_2 H 0.046011 0.582792 0.103515
C11_2 C 0.1314(5) 0.6707(5) 0.1197(4)
H8_2 H 0.117361 0.707116 0.093474
C12_2 C 0.1942(4) 0.6164(4) 0.1865(3)
H9_2 H 0.231955 0.605817 0.215339
C24_2 C 0.6411(4) 0.0571(3) 0.3975(2)
H17_2 H 0.665758 0.101016 0.412550
C25_2 C 0.5793(4) 0.0636(3) 0.3562(3)
H18_3 H 0.501124 0.000050 0.306464
C28_2 C 0.5471(4) 0.1408(3) 0.3354(3)
N1_2 N 0.3466(3) 0.2752(3) 0.2607(2)
N2_2 N 0.2177(3) 0.3199(3) 0.2372(2)
N3_2 N 0.1308(3) 0.5685(3) 0.1687(3)
N4_2 N 0.1958(3) 0.6792(3) 0.1581(2)
O3_2 O 0.4862(3) 0.1444(2) 0.30342(19)
O4_2 O 0.5842(3) 0.2002(2) 0.35482(18)
O7_2 O 0.7151(6) 0.3056(4) 0.4210(3)
O8_2 O 0.4179(5) 0.3003(4) 0.3835(3)
N7_2 N 0.8042(3) 0.1792(3) 0.3419(2)
N8 N 0.7935(4) 0.3506(3) 0.2804(3)
O11 O 0.5924(3) 0.3623(2) 0.3239(2)
O12 O 0.4758(3) 0.4196(2) 0.2918(2)
Cd8_2 Cd 0.29506(2) 0.77317(3) 0.17069(2)
H28_2 H 0.723894 0.258549 0.443059
H29_2 H 0.765668 0.340692 0.426488
H30_2 H 0.378029 0.257368 0.393088
H31_2 H 0.464949 0.304511 0.411433
C16_2 C 0.6412(4) 0.7773(4) 0.3897(2)
H13_2 H 0.615900 0.780008 0.355169
C17_2 C 0.6638(4) 0.7050(3) 0.4113(3)
C18_2 C 0.7055(5) 0.7041(3) 0.4627(3)
H14_2 H 0.723223 0.657421 0.477291
C19_2 C 0.7209(4) 0.7700(3) 0.4922(2)
C20_2 C 0.6934(4) 0.8389(3) 0.4697(3)
H15_2 H 0.700669 0.883326 0.490068
C21_2 C 0.6557(4) 0.8446(3) 0.4186(3)
C22_2 C 0.6310(4) 0.9206(3) 0.3960(2)
C23_2 C 0.6658(4) 0.9885(3) 0.4158(3)
H16_2 H 0.708108 0.986060 0.443175
C26_2 C 0.5428(4) 0.9971(3) 0.3342(3)
H18_4 H 0.501124 1.000050 0.306464
C27_2 C 0.5696(4) 0.9266(3) 0.3542(3)
H19_2 H 0.545814 0.882261 0.339311
C29_2 C 0.6394(5) 0.6343(3) 0.3829(3)
C30_2 C 0.5683(5) 0.6322(3) 0.3485(3)
H20_2 H 0.538672 0.677351 0.340452
C31_2 C 0.5397(5) 0.5641(3) 0.3255(3)
H21_2 H 0.491347 0.564004 0.302273
C32_2 C 0.5830(4) 0.4963(3) 0.3370(3)
C33_2 C 0.6569(5) 0.4990(3) 0.3686(3)
H22_2 H 0.688866 0.454427 0.374617
C34_2 C 0.6848(5) 0.5668(3) 0.3917(3)
H23_2 H 0.734801 0.567077 0.413446
C35_2 C 0.5468(5) 0.4224(3) 0.3147(3)
C36_2 C 0.8369(4) 0.7587(4) 0.6506(3)
C37_2 C 0.7654(5) 0.8043(4) 0.6406(3)
H24_2 H 0.741931 0.833531 0.668795
C38_2 C 0.7275(5) 0.8076(4) 0.5892(3)
H25_2 H 0.678009 0.837771 0.583400
C39_2 C 0.7628(4) 0.7662(4) 0.5465(3)
C40_2 C 0.8308(4) 0.7195(4) 0.5572(3)
H26_2 H 0.851898 0.688072 0.529490
C41_2 C 0.8706(5) 0.7165(4) 0.6079(3)
H27_2 H 0.919935 0.685942 0.613232
C42_2 C 0.8756(4) 0.7523(3) 0.7076(3)
H1_2 H 0.977649 0.517416 0.196087
C2_2 C 0.9999(4) 0.4113(4) 0.2256(4)
C13_2 C 0.8397(5) 0.4289(5) 0.2131(4)
H10_2 H 0.839643 0.460653 0.182694
C14_2 C 0.7671(5) 0.4025(5) 0.2437(4)
H11_2 H 0.709437 0.418830 0.239093
C15_2 C 0.8788(4) 0.3462(4) 0.2759(3)
H12_2 H 0.913677 0.312474 0.295714
N5_2 N 0.9100(4) 0.3966(4) 0.2389(4)
C2_3 C 0.0001(4) 0.9113(4) 0.2744(4)
C13_3 C 0.1603(5) 0.9289(5) 0.2869(4)
H10_3 H 0.160357 0.960653 0.317306
C14_3 C 0.2329(5) 0.9025(5) 0.2563(4)
H11_3 H 0.290563 0.918830 0.260907
C15_3 C 0.1212(4) 0.8462(4) 0.2241(3)
H12_3 H 0.086323 0.812474 0.204286
N5_3 N 0.0900(4) 0.8966(4) 0.2611(4)
N6_2 N 0.2065(4) 0.8506(3) 0.2196(3)
C10_3 C 0.9089(5) 0.1025(4) 0.3750(4)
H7_3 H 0.953989 0.082792 0.396485
C11_3 C 0.8686(5) 0.1707(5) 0.3803(4)
H8_3 H 0.882639 0.207116 0.406526
C12_3 C 0.8058(4) 0.1164(4) 0.3135(3)
H9_3 H 0.768045 0.105817 0.284661
N3_3 N 0.8692(3) 0.0685(3) 0.3313(3)
C1_3 C 0.9790(4) 0.9813(4) 0.2967(3)
C3_3 C 0.9362(4) 0.8580(4) 0.2627(4)
H2_3 H 0.951711 0.810894 0.247866
C4_3 C 0.8502(4) 0.8745(4) 0.2730(3)
C5_3 C 0.8257(4) 0.9436(4) 0.2975(3)
H3_3 H 0.767365 0.953479 0.306427
C6_3 C 0.8909(4) 0.9967(4) 0.3082(3)
C7_3 C 0.7884(5) 0.7429(4) 0.2619(3)
H4_3 H 0.838674 0.714374 0.269265
C8_3 C 0.7095(4) 0.7149(4) 0.2485(3)
H5_3 H 0.694968 0.663288 0.245977
C9_3 C 0.6994(4) 0.8369(4) 0.2477(3)
H6_3 H 0.677888 0.886437 0.243838
C16_3 C 0.3588(4) 0.2773(4) 0.1103(2)
H13_3 H 0.384100 0.280008 0.144831
C17_3 C 0.3362(4) 0.2050(3) 0.0887(3)
C18_3 C 0.2945(5) 0.2041(3) 0.0373(3)
H14_3 H 0.276777 0.157421 0.022709
C19_3 C 0.2791(4) 0.2700(3) 0.0078(2)
C20_3 C 0.3066(4) 0.3389(3) 0.0303(3)
H15_3 H 0.299331 0.383326 0.009932
C21_3 C 0.3443(4) 0.3446(3) 0.0814(3)
C22_3 C 0.3690(4) 0.4206(3) 0.1040(2)
C23_3 C 0.3342(4) 0.4885(3) 0.0842(3)
H16_3 H 0.291892 0.486060 0.056825
C24_3 C 0.3589(4) 0.5571(3) 0.1025(2)
H17_3 H 0.334242 0.601016 0.087450
C25_3 C 0.4207(4) 0.5636(3) 0.1438(3)
C26_3 C 0.4572(4) 0.4971(3) 0.1658(3)
H18_5 H 0.498876 0.500050 0.193536
C27_3 C 0.4304(4) 0.4266(3) 0.1458(3)
H19_3 H 0.454186 0.382261 0.160689
C28_3 C 0.4529(4) 0.6408(3) 0.1646(3)
C29_3 C 0.3606(5) 0.1343(3) 0.1171(3)
C30_3 C 0.4317(5) 0.1322(3) 0.1515(3)
H20_3 H 0.461328 0.177351 0.159548
C31_3 C 0.4603(5) 0.0641(3) 0.1745(3)
H21_3 H 0.508653 0.064004 0.197727
C34_3 C 0.3152(5) 0.0668(3) 0.1083(3)
H23_3 H 0.265199 0.067077 0.086554
N1_3 N 0.6534(3) 0.7752(3) 0.2393(2)
N2_3 N 0.7823(3) 0.8199(3) 0.2628(2)
O3_3 O 0.5138(3) 0.6444(2) 0.19658(19)
O4_3 O 0.4158(3) 0.7002(2) 0.14518(18)
O7_3 O 0.2849(6) 0.8056(4) 0.0790(3)
O8_3 O 0.5821(5) 0.8003(4) 0.1165(3)
Cd1 Cd 0.51610(2) 0.77633(2) 0.20576(2)
O9_2 O 0.4493(3) 0.7786(2) 0.28863(15)
O10_2 O 0.3334(3) 0.7193(3) 0.25416(17)
O11_2 O 0.4076(3) 0.8623(2) 0.1761(2)
O12_2 O 0.5242(3) 0.9196(2) 0.2082(2)
H28_3 H 0.276106 0.758549 0.0569413
H29_3 H 0.234332 0.840692 0.0735115
H30_3 H 0.621971 0.757368 0.106912
H31_3 H 0.535051 0.804511 0.0885671
C36_3 C 0.1631(4) 0.2587(4) 0.8494(3)
C37_3 C 0.2346(5) 0.3043(4) 0.8594(3)
H24_3 H 0.258069 0.333531 0.831205
C38_3 C 0.2725(5) 0.3076(4) 0.9108(3)
H25_3 H 0.321991 0.337771 0.916600
C39_3 C 0.2372(4) 0.2662(4) 0.9535(3)
C40_3 C 0.1692(4) 0.2195(4) 0.9428(3)
H26_3 H 0.148102 0.188072 0.970510
C41_3 C 0.1294(5) 0.2165(4) 0.8921(3)
H27_3 H 0.080065 0.185942 0.886768
C42_3 C 0.1244(4) 0.2523(3) 0.7924(3)
O1_2 O 0.0507(3) 0.2214(2) 0.78863(15)
O2_2 O 0.1666(3) 0.2807(3) 0.75416(17)
C32_3 C 0.4170(4) 0.9963(3) 0.1630(3)
C33_3 C 0.3431(5) 0.9990(3) 0.1314(3)
H22_3 H 0.311134 0.954427 0.125383
C35_3 C 0.4532(5) 0.9224(3) 0.1853(3)
Cd4_2 Cd 0.98390(2) 0.22367(2) 0.70576(2)
C32_4 C 0.0830(4) 0.0037(3) 0.6630(3)
C33_4 C 0.1569(5) 0.0010(3) 0.6314(3)
H22_4 H 0.188866 0.045573 0.625383
C35_4 C 0.0468(5) 0.0776(3) 0.6853(3)
O5_2 O 0.0924(3) 0.1377(2) 0.6761(2)
C16_4 C 0.1412(4) 0.7227(4) 0.6103(2)
H13_4 H 0.115900 0.719992 0.644831
C17_4 C 0.1638(4) 0.7950(3) 0.5887(3)
C18_4 C 0.2055(5) 0.7959(3) 0.5373(3)
H14_4 H 0.223223 0.842579 0.522709
C19_4 C 0.2209(4) 0.7300(3) 0.5078(2)
C20_4 C 0.1934(4) 0.6611(3) 0.5303(3)
H15_4 H 0.200669 0.616674 0.509932
C21_4 C 0.1557(4) 0.6554(3) 0.5814(3)
C22_4 C 0.1310(4) 0.5794(3) 0.6040(2)
C23_4 C 0.1658(4) 0.5115(3) 0.5842(3)
H16_4 H 0.208108 0.513940 0.556825
C24_4 C 0.1411(4) 0.4429(3) 0.6025(2)
H17_4 H 0.165758 0.398984 0.587450
C25_4 C 0.0793(4) 0.4364(3) 0.6438(3)
C26_4 C 0.0428(4) 0.5029(3) 0.6658(3)
H18_6 H 0.001124 0.499950 0.693536
C27_4 C 0.0696(4) 0.5734(3) 0.6458(3)
H19_4 H 0.045814 0.617739 0.660689
C28_4 C 0.0471(4) 0.3592(3) 0.6646(3)
C29_4 C 0.1394(5) 0.8657(3) 0.6171(3)
C30_4 C 0.0683(5) 0.8678(3) 0.6515(3)
H20_4 H 0.038672 0.822649 0.659548
C31_4 C 0.0397(5) 0.9359(3) 0.6745(3)
C34_4 C 0.1848(5) 0.9332(3) 0.6083(3)
H23_4 H 0.234801 0.932923 0.586554
C36_4 C 0.3369(4) 0.7413(4) 0.3494(3)
C37_4 C 0.2654(5) 0.6957(4) 0.3594(3)
H24_4 H 0.241931 0.666469 0.331205
C38_4 C 0.2275(5) 0.6924(4) 0.4108(3)
H25_4 H 0.178009 0.662229 0.416600
C39_4 C 0.2628(4) 0.7338(4) 0.4535(3)
C40_4 C 0.3308(4) 0.7805(4) 0.4428(3)
H26_4 H 0.351898 0.811928 0.470510
C41_4 C 0.3706(5) 0.7835(4) 0.3921(3)
H27_4 H 0.419935 0.814058 0.386768
C42_4 C 0.3756(4) 0.7477(3) 0.2924(3)
O4_4 O 0.0842(3) 0.2998(2) 0.64518(18)
O7_4 O 0.2151(6) 0.1944(4) 0.5790(3)
N8_2 N 0.2935(4) 0.1494(3) 0.7196(3)
H28_4 H 0.223894 0.241451 0.556941
H29_4 H 0.265668 0.159308 0.573512
O6_2 O 0.9758(3) 0.0804(2) 0.7082(2)
C1_4 C 0.5210(4) 0.0187(4) 0.7967(3)
C2_4 C 0.4999(4) 0.0887(4) 0.7744(4)
C3_4 C 0.5638(4) 0.1420(4) 0.7627(4)
H2_4 H 0.548289 0.189106 0.747866
C4_4 C 0.6498(4) 0.1255(4) 0.7730(3)
C5_4 C 0.6743(4) 0.0564(4) 0.7975(3)
H3_4 H 0.732635 0.046521 0.806427
C6_4 C 0.6091(4) 0.0033(4) 0.8082(3)
C7_4 C 0.7116(5) 0.2571(4) 0.7619(3)
H4_4 H 0.661326 0.285626 0.769265
C8_4 C 0.7905(4) 0.2851(4) 0.7485(3)
H5_4 H 0.805032 0.336712 0.745977
C9_4 C 0.8006(4) 0.1631(4) 0.7477(3)
H6_4 H 0.822112 0.113563 0.743838
C13_4 C 0.3397(5) 0.0711(5) 0.7869(4)
H10_4 H 0.339643 0.039347 0.817306
C14_4 C 0.2671(5) 0.0975(5) 0.7563(4)
H11_4 H 0.209437 0.081170 0.760907
C15_4 C 0.3788(4) 0.1538(4) 0.7241(3)
H12_4 H 0.413677 0.187526 0.704286
H21_4 H 0.991347 0.935996 0.697727
N1_4 N 0.8466(3) 0.2248(3) 0.7393(2)
N2_4 N 0.7177(3) 0.1801(3) 0.7628(2)
N5_4 N 0.4100(4) 0.1034(4) 0.7611(4)
O3_4 O 0.9862(3) 0.3556(2) 0.69658(19)
O8_4 O 0.9179(5) 0.1997(4) 0.6165(3)
H30_4 H 0.878029 0.242632 0.606912
H31_4 H 0.964949 0.195489 0.588567
H1_3 H 0.477649 0.982584 0.803913
C10_4 C 0.5911(5) 0.8975(4) 0.8750(4)
H7_4 H 0.546011 0.917208 0.896485
C11_4 C 0.6314(5) 0.8293(5) 0.8803(4)
H8_4 H 0.617361 0.792884 0.906526
C12_4 C 0.6942(4) 0.8836(4) 0.8135(3)
H9_4 H 0.731955 0.894183 0.784661
N3_4 N 0.6308(3) 0.9315(3) 0.8313(3)
H1_4 H 0.022351 0.017416 0.303913
loop_
_geom_bond_atom_site_label_1
_geom_bond_atom_site_label_2
_geom_bond_site_symmetry_1
_geom_bond_site_symmetry_2
O6 Cd3 1_555 1_555
C1 H1 1_555 1_555
C2 C1 1_555 1_555
C3 C2 1_555 1_555
H2 C3 1_555 1_555
C4 C3 1_555 1_555
C5 C4 1_555 1_555
H3 C5 1_555 1_555
C6 C1 1_555 1_555
C7 H4 1_555 1_555
C8 C7 1_555 1_555
H5 C8 1_555 1_555
C9 H6 1_555 1_555
C10 H7 1_555 1_555
C11 C10 1_555 1_555
H8 C11 1_555 1_555
C12 H9 1_555 1_555
C13 H10 1_555 1_555
C14 C13 1_555 1_555
H11 C14 1_555 1_555
C15 H12 1_555 1_555
N1 C8 1_555 1_555
N2 C4 1_555 1_555
N3 C6 1_555 1_555
N4 C11 1_555 1_555
N5 C2 1_555 1_555
N6 C14 1_555 1_555
O8 Cd3 1_555 1_555
Cd3 N1 1_555 1_555
Cd6 N6 1_555 1_555
Cd8 N4 1_555 1_555
C5 C6 1_555 1_555
C7 N2 1_555 1_555
C9 N1 1_555 1_555
C9 N2 1_555 1_555
C10 N3 1_555 1_555
C12 N3 1_555 1_555
C12 N4 1_555 1_555
C13 N5 1_555 1_555
C15 N5 1_555 1_555
C15 N6 1_555 1_555
O3 Cd3 1_555 1_555
O8 H30 1_555 1_555
O8 H31 1_555 1_555
C36 C37 1_555 1_555
C37 H24 1_555 1_555
C38 C37 1_555 1_555
H25 C38 1_555 1_555
C40 C39 1_555 1_555
H26 C40 1_555 1_555
C41 C36 1_555 1_555
H27 C41 1_555 1_555
C42 C36 1_555 1_555
O1 C42 1_555 1_555
O2 C42 1_555 1_555
Cd4 O1 1_555 1_555
Cd7 O2 1_555 1_555
C38 C39 1_555 1_555
C40 C41 1_555 1_555
C16 H13 1_555 1_555
C17 C16 1_555 1_555
C18 C17 1_555 1_555
H14 C18 1_555 1_555
C19 C18 1_555 1_555
C20 C19 1_555 1_555
H15 C20 1_555 1_555
C21 C16 1_555 1_555
C22 C21 1_555 1_555
C23 C22 1_555 1_555
H16 C23 1_555 1_555
H18 C26 1_555 1_555
C27 C22 1_555 1_555
H19 C27 1_555 1_555
C29 C17 1_555 1_555
C30 C29 1_555 1_555
H20 C30 1_555 1_555
C31 C30 1_555 1_555
C32 C31 1_555 1_555
C33 C32 1_555 1_555
H22 C33 1_555 1_555
C34 C29 1_555 1_555
H23 C34 1_555 1_555
C35 C32 1_555 1_555
O5 C35 1_555 1_555
Cd6 O5 1_555 1_555
C20 C21 1_555 1_555
C26 C27 1_555 1_555
C33 C34 1_555 1_555
H17 C24 1_555 1_555
C25 C24 1_555 1_555
C28 C25 1_555 1_555
O4 C28 1_555 1_555
O7 Cd6 1_555 1_555
Cd6 O4 1_555 1_555
N7 Cd6 1_555 1_555
O10 Cd6 1_555 1_555
O7 H28 1_555 1_555
O7 H29 1_555 1_555
H2_2 C3_2 1_555 1_555
C4_2 C3_2 1_555 1_555
C5_2 C4_2 1_555 1_555
H3_2 C5_2 1_555 1_555
C6_2 C1_2 1_555 1_555
C7_2 H4_2 1_555 1_555
C8_2 C7_2 1_555 1_555
H5_2 C8_2 1_555 1_555
C9_2 H6_2 1_555 1_555
C10_2 H7_2 1_555 1_555
C11_2 C10_2 1_555 1_555
H8_2 C11_2 1_555 1_555
C12_2 H9_2 1_555 1_555
H17_2 C24_2 1_555 1_555
C25_2 C24_2 1_555 1_555
C28_2 C25_2 1_555 1_555
N1_2 C8_2 1_555 1_555
N2_2 C4_2 1_555 1_555
N3_2 C6_2 1_555 1_555
N4_2 C11_2 1_555 1_555
O3_2 C28_2 1_555 1_555
O4_2 C28_2 1_555 1_555
O7_2 Cd7 1_555 1_555
O8_2 Cd4 1_555 1_555
Cd4 N1_2 1_555 1_555
Cd7 O4_2 1_555 1_555
N7_2 Cd7 1_555 1_555
N8 Cd7 1_555 1_555
O11 Cd4 1_555 1_555
O12 Cd4 1_555 1_555
Cd8_2 N4_2 1_555 1_555
C5_2 C6_2 1_555 1_555
C7_2 N2_2 1_555 1_555
C9_2 N1_2 1_555 1_555
C9_2 N2_2 1_555 1_555
C10_2 N3_2 1_555 1_555
C12_2 N3_2 1_555 1_555
C12_2 N4_2 1_555 1_555
O3_2 Cd4 1_555 1_555
O4_2 Cd4 1_555 1_555
Cd7 O11 1_555 1_555
O7_2 H28_2 1_555 1_555
O7_2 H29_2 1_555 1_555
O8_2 H30_2 1_555 1_555
O8_2 H31_2 1_555 1_555
C16_2 H13_2 1_555 1_555
C17_2 C16_2 1_555 1_555
C18_2 C17_2 1_555 1_555
H14_2 C18_2 1_555 1_555
C19_2 C18_2 1_555 1_555
C20_2 C19_2 1_555 1_555
H15_2 C20_2 1_555 1_555
C21_2 C16_2 1_555 1_555
C22_2 C21_2 1_555 1_555
C23_2 C22_2 1_555 1_555
H16_2 C23_2 1_555 1_555
H18_4 C26_2 1_555 1_555
C27_2 C22_2 1_555 1_555
H19_2 C27_2 1_555 1_555
C29_2 C17_2 1_555 1_555
C30_2 C29_2 1_555 1_555
H20_2 C30_2 1_555 1_555
C31_2 C30_2 1_555 1_555
H21_2 C31_2 1_555 1_555
C32_2 C31_2 1_555 1_555
C33_2 C32_2 1_555 1_555
H22_2 C33_2 1_555 1_555
C34_2 C29_2 1_555 1_555
H23_2 C34_2 1_555 1_555
C35_2 C32_2 1_555 1_555
C36_2 C37_2 1_555 1_555
C37_2 H24_2 1_555 1_555
C38_2 C37_2 1_555 1_555
H25_2 C38_2 1_555 1_555
C39_2 C19_2 1_555 1_555
C40_2 C39_2 1_555 1_555
H26_2 C40_2 1_555 1_555
C41_2 C36_2 1_555 1_555
H27_2 C41_2 1_555 1_555
C42_2 C36_2 1_555 1_555
O9 C42_2 1_555 1_555
O10 C42_2 1_555 1_555
O11 C35_2 1_555 1_555
O12 C35_2 1_555 1_555
C20_2 C21_2 1_555 1_555
C26_2 C27_2 1_555 1_555
C33_2 C34_2 1_555 1_555
C38_2 C39_2 1_555 1_555
C40_2 C41_2 1_555 1_555
C13_2 H10_2 1_555 1_555
C14_2 C13_2 1_555 1_555
H11_2 C14_2 1_555 1_555
C15_2 H12_2 1_555 1_555
N5_2 C2_2 1_555 1_555
N8 C14_2 1_555 1_555
C13_2 N5_2 1_555 1_555
C15_2 N5_2 1_555 1_555
C15_2 N8 1_555 1_555
C13_3 H10_3 1_555 1_555
C14_3 C13_3 1_555 1_555
H11_3 C14_3 1_555 1_555
C15_3 H12_3 1_555 1_555
N5_3 C2_3 1_555 1_555
N6_2 C14_3 1_555 1_555
Cd8_2 N6_2 1_555 1_555
C13_3 N5_3 1_555 1_555
C15_3 N5_3 1_555 1_555
C15_3 N6_2 1_555 1_555
C10_3 H7_3 1_555 1_555
C11_3 C10_3 1_555 1_555
H8_3 C11_3 1_555 1_555
C12_3 H9_3 1_555 1_555
N7_2 C11_3 1_555 1_555
C10_3 N3_3 1_555 1_555
C12_3 N3_3 1_555 1_555
C12_3 N7_2 1_555 1_555
H2_3 C3_3 1_555 1_555
C4_3 C3_3 1_555 1_555
C5_3 C4_3 1_555 1_555
H3_3 C5_3 1_555 1_555
C6_3 C1_3 1_555 1_555
C7_3 H4_3 1_555 1_555
C8_3 C7_3 1_555 1_555
H5_3 C8_3 1_555 1_555
C9_3 H6_3 1_555 1_555
C16_3 H13_3 1_555 1_555
C17_3 C16_3 1_555 1_555
C18_3 C17_3 1_555 1_555
H14_3 C18_3 1_555 1_555
C19_3 C18_3 1_555 1_555
C20_3 C19_3 1_555 1_555
H15_3 C20_3 1_555 1_555
C21_3 C16_3 1_555 1_555
C22_3 C21_3 1_555 1_555
C23_3 C22_3 1_555 1_555
H16_3 C23_3 1_555 1_555
C24_3 C23_3 1_555 1_555
H17_3 C24_3 1_555 1_555
C25_3 C24_3 1_555 1_555
C26_3 C25_3 1_555 1_555
H18_5 C26_3 1_555 1_555
C27_3 C22_3 1_555 1_555
H19_3 C27_3 1_555 1_555
C28_3 C25_3 1_555 1_555
C29_3 C17_3 1_555 1_555
C30_3 C29_3 1_555 1_555
H20_3 C30_3 1_555 1_555
C31_3 C30_3 1_555 1_555
H21_3 C31_3 1_555 1_555
C34_3 C29_3 1_555 1_555
H23_3 C34_3 1_555 1_555
N1_3 C8_3 1_555 1_555
N2_3 C4_3 1_555 1_555
O3_3 C28_3 1_555 1_555
O4_3 C28_3 1_555 1_555
O7_3 Cd8_2 1_555 1_555
O8_3 Cd1 1_555 1_555
Cd1 N1_3 1_555 1_555
Cd8_2 O4_3 1_555 1_555
O9_2 Cd1 1_555 1_555
O10_2 Cd8_2 1_555 1_555
O11_2 Cd1 1_555 1_555
O12_2 Cd1 1_555 1_555
C5_3 C6_3 1_555 1_555
C7_3 N2_3 1_555 1_555
C9_3 N1_3 1_555 1_555
C9_3 N2_3 1_555 1_555
C20_3 C21_3 1_555 1_555
C26_3 C27_3 1_555 1_555
O3_3 Cd1 1_555 1_555
O4_3 Cd1 1_555 1_555
Cd8_2 O11_2 1_555 1_555
O7_3 H28_3 1_555 1_555
O7_3 H29_3 1_555 1_555
O8_3 H30_3 1_555 1_555
O8_3 H31_3 1_555 1_555
C36_3 C37_3 1_555 1_555
C37_3 H24_3 1_555 1_555
C38_3 C37_3 1_555 1_555
H25_3 C38_3 1_555 1_555
C40_3 C39_3 1_555 1_555
H26_3 C40_3 1_555 1_555
C41_3 C36_3 1_555 1_555
H27_3 C41_3 1_555 1_555
C42_3 C36_3 1_555 1_555
O1_2 C42_3 1_555 1_555
O2_2 C42_3 1_555 1_555
Cd8 O2_2 1_555 1_555
C38_3 C39_3 1_555 1_555
C40_3 C41_3 1_555 1_555
C33_3 C32_3 1_555 1_555
H22_3 C33_3 1_555 1_555
C35_3 C32_3 1_555 1_555
O11_2 C35_3 1_555 1_555
O12_2 C35_3 1_555 1_555
C33_4 C32_4 1_555 1_555
H22_4 C33_4 1_555 1_555
C35_4 C32_4 1_555 1_555
O5_2 C35_4 1_555 1_555
Cd8 O5_2 1_555 1_555
C16_4 H13_4 1_555 1_555
C17_4 C16_4 1_555 1_555
C18_4 C17_4 1_555 1_555
H14_4 C18_4 1_555 1_555
C19_4 C18_4 1_555 1_555
C20_4 C19_4 1_555 1_555
H15_4 C20_4 1_555 1_555
C21_4 C16_4 1_555 1_555
C22_4 C21_4 1_555 1_555
C23_4 C22_4 1_555 1_555
H16_4 C23_4 1_555 1_555
C24_4 C23_4 1_555 1_555
H17_4 C24_4 1_555 1_555
C25_4 C24_4 1_555 1_555
C26_4 C25_4 1_555 1_555
H18_6 C26_4 1_555 1_555
C27_4 C22_4 1_555 1_555
H19_4 C27_4 1_555 1_555
C28_4 C25_4 1_555 1_555
C29_4 C17_4 1_555 1_555
C30_4 C29_4 1_555 1_555
H20_4 C30_4 1_555 1_555
C31_4 C30_4 1_555 1_555
C34_4 C29_4 1_555 1_555
H23_4 C34_4 1_555 1_555
C36_4 C37_4 1_555 1_555
C37_4 H24_4 1_555 1_555
C38_4 C37_4 1_555 1_555
H25_4 C38_4 1_555 1_555
C39_4 C19_4 1_555 1_555
C40_4 C39_4 1_555 1_555
H26_4 C40_4 1_555 1_555
C41_4 C36_4 1_555 1_555
H27_4 C41_4 1_555 1_555
C42_4 C36_4 1_555 1_555
O9_2 C42_4 1_555 1_555
O10_2 C42_4 1_555 1_555
O4_4 C28_4 1_555 1_555
O7_4 Cd8 1_555 1_555
Cd8 O4_4 1_555 1_555
N8_2 Cd8 1_555 1_555
C20_4 C21_4 1_555 1_555
C26_4 C27_4 1_555 1_555
C38_4 C39_4 1_555 1_555
C40_4 C41_4 1_555 1_555
O7_4 H28_4 1_555 1_555
O7_4 H29_4 1_555 1_555
O6_2 Cd4_2 1_555 1_555
C2_4 C1_4 1_555 1_555
C3_4 C2_4 1_555 1_555
H2_4 C3_4 1_555 1_555
C4_4 C3_4 1_555 1_555
C5_4 C4_4 1_555 1_555
H3_4 C5_4 1_555 1_555
C6_4 C1_4 1_555 1_555
C7_4 H4_4 1_555 1_555
C8_4 C7_4 1_555 1_555
H5_4 C8_4 1_555 1_555
C9_4 H6_4 1_555 1_555
C13_4 H10_4 1_555 1_555
C14_4 C13_4 1_555 1_555
H11_4 C14_4 1_555 1_555
C15_4 H12_4 1_555 1_555
N1_4 C8_4 1_555 1_555
N2_4 C4_4 1_555 1_555
N5_4 C2_4 1_555 1_555
N8_2 C14_4 1_555 1_555
O8_4 Cd4_2 1_555 1_555
Cd4_2 N1_4 1_555 1_555
C5_4 C6_4 1_555 1_555
C7_4 N2_4 1_555 1_555
C9_4 N1_4 1_555 1_555
C9_4 N2_4 1_555 1_555
C13_4 N5_4 1_555 1_555
C15_4 N5_4 1_555 1_555
C15_4 N8_2 1_555 1_555
O3_4 Cd4_2 1_555 1_555
O8_4 H30_4 1_555 1_555
O8_4 H31_4 1_555 1_555
C10_4 H7_4 1_555 1_555
C11_4 C10_4 1_555 1_555
H8_4 C11_4 1_555 1_555
C12_4 H9_4 1_555 1_555
N7 C11_4 1_555 1_555
C10_4 N3_4 1_555 1_555
C12_4 N3_4 1_555 1_555
C12_4 N7 1_555 1_555

#END
