
###############################################################################
#
# This file contains modified crystal structure data generated from the
# MOF subset of the Cambridge Structural Database (CSD) v543 
# hosted by the Cambridge Crystallographic Data Centre (CCDC).
#
# This work is licensed under the Creative Commons
# Attribution-NonCommercial-ShareAlike 4.0 International License.
# To view a copy of this license, visit
# http://creativecommons.org/licenses/by-nc-sa/4.0/
# or send a letter to
# Creative Commons, PO Box 1866, Mountain View, CA 94042, USA.
#
# CIF created using the CSD Python API on 29 September 2022
# The structure has been converted into the P1 space group
# The structure has a 3D framework
# The original CSD entry REDMUL is in the monoclinic crystal system
# The framework has been calculated to contain at least 10.0% void space
# The void calculation uses a probe of radius 1.32A, grid spacing 0.4
#
###############################################################################

data_REDMUL
_chemical_formula_moiety         '(C156 H96 O21 P4 Y4)n'
_symmetry_cell_setting           triclinic
_symmetry_space_group_name_H-M   'P 1'
_symmetry_Int_Tables_number      1
_space_group_name_Hall           'P 1'
loop_
_symmetry_equiv_pos_site_id
_symmetry_equiv_pos_as_xyz
1 x,y,z
_cell_length_a                   23.2598(4)
_cell_length_b                   27.5104(3)
_cell_length_c                   6.96111(19)
_cell_angle_alpha                90
_cell_angle_beta                 109.916(2)
_cell_angle_gamma                90
_cell_volume                     4187.92
loop_
_atom_site_label
_atom_site_type_symbol
_atom_site_fract_x
_atom_site_fract_y
_atom_site_fract_z
_atom_site_U_iso_or_equiv
_atom_site_thermal_displace_type
Y2 Y 0.0109(6) 0.5150(3) 0.8053(19) 0.0826 Uani
Y4 Y 0.0109(6) 0.4850(3) 0.3053(19) 0.0826 Uani
Y5 Y 0.5109(6) 0.0150(3) 0.8053(19) 0.0826 Uani
C26 C 0.732(5) 0.573(4) 0.01(2) 0.0595 Uiso
C28 C 0.735(9) 0.570(6) 0.204(18) 0.0760 Uiso
C29 C 0.845(5) 0.557(8) 0.12(5) 0.0760 Uiso
C30 C 0.791(11) 0.560(8) 0.36(3) 0.0760 Uiso
H18 H 0.700(11) 0.573(5) 0.234(13) 0.1013 Uiso
C31 C 0.845(9) 0.554(9) 0.32(5) 0.0595 Uiso
H19 H 0.879(5) 0.554(9) 0.09(6) 0.1013 Uiso
H20 H 0.792(14) 0.558(9) 0.49(3) 0.1013 Uiso
C32 C 0.906(10) 0.545(12) 0.48(6) 0.0595 Uiso
O3 O 0.911(15) 0.543(14) 0.69(6) 0.0253 Uiso
O4 O 0.955(8) 0.538(13) 0.42(8) 0.0253 Uiso
O7 O 0.064(10) 0.465(16) 0.09(5) 0.0253 Uiso
O12 O 0.01(2) 0.557(8) 0.11(8) 0.0253 Uiso
P1 P 0.4964(6) 0.5749(6) 0.2805(19) 0.0760 Uiso
C1 C 0.5628(14) 0.5779(7) 0.493(5) 0.0595 Uiso
C2 C 0.4360(14) 0.5772(8) 0.377(4) 0.0595 Uiso
C3 C 0.4957(15) 0.6335(11) 0.164(5) 0.0595 Uiso
C4 C 0.5623(19) 0.6006(14) 0.664(8) 0.0760 Uiso
C5 C 0.616(2) 0.5572(14) 0.486(6) 0.0760 Uiso
C6 C 0.393(2) 0.6164(17) 0.320(8) 0.0760 Uiso
C7 C 0.430(2) 0.540(2) 0.513(9) 0.0760 Uiso
C9 C 0.530(2) 0.6701(17) 0.274(8) 0.0760 Uiso
C10 C 0.617(4) 0.6031(17) 0.840(12) 0.0760 Uiso
H1 H 0.528(2) 0.6142(17) 0.669(8) 0.1013 Uiso
C11 C 0.671(4) 0.5597(16) 0.662(11) 0.0760 Uiso
H2 H 0.616(3) 0.5421(16) 0.372(7) 0.1013 Uiso
C12 C 0.343(3) 0.6183(19) 0.399(10) 0.0760 Uiso
H3 H 0.396(3) 0.6398(19) 0.235(10) 0.1013 Uiso
C13 C 0.383(3) 0.541(2) 0.588(11) 0.0760 Uiso
H4 H 0.457(2) 0.515(2) 0.549(11) 0.1013 Uiso
C15 C 0.529(3) 0.717(2) 0.182(11) 0.0760 Uiso
H6 H 0.553(3) 0.6653(19) 0.406(8) 0.1013 Uiso
C16 C 0.670(4) 0.5826(18) 0.835(10) 0.0595 Uiso
H7 H 0.617(4) 0.618(2) 0.954(12) 0.1013 Uiso
H8 H 0.706(4) 0.5461(19) 0.658(12) 0.1013 Uiso
C17 C 0.339(3) 0.582(2) 0.526(10) 0.0595 Uiso
H9 H 0.316(3) 0.643(2) 0.363(13) 0.1013 Uiso
H10 H 0.379(4) 0.518(3) 0.673(13) 0.1013 Uiso
H12 H 0.552(4) 0.741(2) 0.255(12) 0.1013 Uiso
C19 C 0.279(4) 0.572(5) 0.577(16) 0.0595 Uiso
C20 C 0.222(4) 0.582(7) 0.43(2) 0.0760 Uiso
C21 C 0.283(7) 0.553(7) 0.770(19) 0.0760 Uiso
C22 C 0.168(5) 0.573(10) 0.48(3) 0.0760 Uiso
H13 H 0.219(4) 0.594(6) 0.31(2) 0.1013 Uiso
C23 C 0.228(9) 0.544(10) 0.82(3) 0.0760 Uiso
H14 H 0.320(8) 0.547(7) 0.864(17) 0.1013 Uiso
C24 C 0.171(8) 0.554(11) 0.67(3) 0.0595 Uiso
H15 H 0.131(5) 0.580(11) 0.38(3) 0.1013 Uiso
H16 H 0.231(11) 0.532(12) 0.94(3) 0.1013 Uiso
C25 C 0.116(10) 0.544(15) 0.73(4) 0.0595 Uiso
O1 O 0.121(13) 0.543(17) 0.92(4) 0.0253 Uiso
O2 O 0.064(10) 0.535(16) 0.59(5) 0.0253 Uiso
C27 C 0.787(4) 0.567(5) 0.96(4) 0.0760 Uiso
H17 H 0.786(5) 0.569(5) 0.83(4) 0.1013 Uiso
H22 H 0.514(9) 0.817(3) 0.08(4) 0.1013 Uiso
O11 O 0.01(2) 0.443(8) 0.61(8) 0.0253 Uiso
O13 O 0.02(2) 0.603(12) 0.85(7) 0.0253 Uiso
O10 O 0.955(8) 0.462(13) 0.92(8) 0.0253 Uiso
O3_2 O 0.911(15) 0.457(14) 0.19(6) 0.0253 Uiso
C4_2 C 0.5623(19) 0.3994(14) 0.164(8) 0.0760 Uiso
C7_2 C 0.430(2) 0.460(2) 0.013(9) 0.0760 Uiso
C10_2 C 0.617(4) 0.3969(17) 0.340(12) 0.0760 Uiso
H1_2 H 0.528(2) 0.3858(17) 0.169(8) 0.1013 Uiso
C11_2 C 0.671(4) 0.4403(16) 0.162(11) 0.0760 Uiso
C13_2 C 0.383(3) 0.459(2) 0.088(11) 0.0760 Uiso
H4_2 H 0.457(2) 0.485(2) 0.049(11) 0.1013 Uiso
C16_2 C 0.670(4) 0.4174(18) 0.335(10) 0.0595 Uiso
H7_2 H 0.617(4) 0.382(2) 0.454(12) 0.1013 Uiso
H8_2 H 0.706(4) 0.4539(19) 0.158(12) 0.1013 Uiso
C17_2 C 0.339(3) 0.418(2) 0.026(10) 0.0595 Uiso
H10_2 H 0.379(4) 0.482(3) 0.173(13) 0.1013 Uiso
C19_2 C 0.279(4) 0.428(5) 0.077(16) 0.0595 Uiso
C21_2 C 0.283(7) 0.447(7) 0.270(19) 0.0760 Uiso
C23_2 C 0.228(9) 0.456(10) 0.32(3) 0.0760 Uiso
H14_2 H 0.320(8) 0.453(7) 0.364(17) 0.1013 Uiso
C24_2 C 0.171(8) 0.446(11) 0.17(3) 0.0595 Uiso
H16_2 H 0.231(11) 0.468(12) 0.44(3) 0.1013 Uiso
C25_2 C 0.116(10) 0.456(15) 0.23(4) 0.0595 Uiso
O1_2 O 0.121(13) 0.457(17) 0.42(4) 0.0253 Uiso
C26_2 C 0.732(5) 0.427(4) 0.51(2) 0.0595 Uiso
C27_2 C 0.787(4) 0.433(5) 0.46(4) 0.0760 Uiso
C28_2 C 0.735(9) 0.430(6) 0.704(18) 0.0760 Uiso
C29_2 C 0.845(5) 0.443(8) 0.62(5) 0.0760 Uiso
H17_2 H 0.786(5) 0.431(5) 0.33(4) 0.1013 Uiso
C30_2 C 0.791(11) 0.440(8) 0.86(3) 0.0760 Uiso
H18_2 H 0.700(11) 0.427(5) 0.734(13) 0.1013 Uiso
C31_2 C 0.845(9) 0.446(9) 0.82(5) 0.0595 Uiso
H19_2 H 0.879(5) 0.446(9) 0.59(6) 0.1013 Uiso
H20_2 H 0.792(14) 0.442(9) 0.99(3) 0.1013 Uiso
C32_2 C 0.906(10) 0.455(12) 0.98(6) 0.0595 Uiso
O13_2 O 0.02(2) 0.397(12) 0.35(7) 0.0253 Uiso
P1_2 P 0.4964(6) 0.4251(6) 0.7805(19) 0.0760 Uiso
C1_2 C 0.5628(14) 0.4221(7) 0.993(5) 0.0595 Uiso
C2_2 C 0.4360(14) 0.4228(8) 0.877(4) 0.0595 Uiso
C3_2 C 0.4957(15) 0.3665(11) 0.664(5) 0.0595 Uiso
C5_2 C 0.616(2) 0.4428(14) 0.986(6) 0.0760 Uiso
C6_2 C 0.393(2) 0.3836(17) 0.820(8) 0.0760 Uiso
C8 C 0.460(3) 0.3590(16) 0.460(9) 0.0760 Uiso
C9_2 C 0.530(2) 0.3299(17) 0.774(8) 0.0760 Uiso
H2_2 H 0.616(3) 0.4579(16) 0.872(7) 0.1013 Uiso
C12_2 C 0.343(3) 0.3817(19) 0.899(10) 0.0760 Uiso
H3_2 H 0.396(3) 0.3602(19) 0.735(10) 0.1013 Uiso
C14 C 0.459(4) 0.312(3) 0.367(11) 0.0760 Uiso
H5 H 0.437(3) 0.383(2) 0.387(8) 0.1013 Uiso
C15_2 C 0.529(3) 0.283(2) 0.682(11) 0.0760 Uiso
H6_2 H 0.553(3) 0.3347(19) 0.906(8) 0.1013 Uiso
H9_2 H 0.316(3) 0.357(2) 0.863(13) 0.1013 Uiso
C18 C 0.494(4) 0.276(3) 0.479(13) 0.0595 Uiso
H11 H 0.436(4) 0.307(3) 0.235(12) 0.1013 Uiso
H12_2 H 0.552(4) 0.259(2) 0.755(12) 0.1013 Uiso
C20_2 C 0.222(4) 0.418(7) 0.93(2) 0.0760 Uiso
C22_2 C 0.168(5) 0.427(10) 0.98(3) 0.0760 Uiso
H13_2 H 0.219(4) 0.406(6) 0.81(2) 0.1013 Uiso
H15_2 H 0.131(5) 0.420(11) 0.88(3) 0.1013 Uiso
C33 C 0.498(7) 0.229(4) 0.35(3) 0.0595 Uiso
C34 C 0.490(9) 0.233(7) 0.15(3) 0.0760 Uiso
C35 C 0.509(9) 0.185(3) 0.45(4) 0.0760 Uiso
C36 C 0.494(13) 0.190(9) 0.04(4) 0.0760 Uiso
H21 H 0.483(9) 0.262(8) 0.091(19) 0.1013 Uiso
C37 C 0.513(13) 0.145(5) 0.34(5) 0.0760 Uiso
H22_2 H 0.514(9) 0.183(3) 0.58(4) 0.1013 Uiso
C38 C 0.506(14) 0.146(7) 0.14(5) 0.0595 Uiso
H24 H 0.520(14) 0.116(4) 0.40(6) 0.1013 Uiso
C39 C 0.510(18) 0.101(9) 0.03(7) 0.0595 Uiso
O5 O 0.51(2) 0.057(8) 0.11(8) 0.0253 Uiso
H23 H 0.489(14) 0.192(11) 0.91(4) 0.1013 Uiso
O6 O 0.52(2) 0.103(12) 0.85(7) 0.0253 Uiso
C26_3 C 0.232(5) 0.073(4) 0.01(2) 0.0595 Uiso
C28_3 C 0.235(9) 0.070(6) 0.204(18) 0.0760 Uiso
C29_3 C 0.345(5) 0.057(8) 0.12(5) 0.0760 Uiso
C30_3 C 0.291(11) 0.060(8) 0.36(3) 0.0760 Uiso
H18_3 H 0.200(11) 0.073(5) 0.234(13) 0.1013 Uiso
C31_3 C 0.345(9) 0.054(9) 0.32(5) 0.0595 Uiso
H19_3 H 0.379(5) 0.054(9) 0.09(6) 0.1013 Uiso
H20_3 H 0.292(14) 0.058(9) 0.49(3) 0.1013 Uiso
C32_3 C 0.406(10) 0.045(12) 0.48(6) 0.0595 Uiso
O3_3 O 0.411(15) 0.043(14) 0.69(6) 0.0253 Uiso
O4_2 O 0.455(8) 0.038(13) 0.42(8) 0.0253 Uiso
C35_2 C 0.009(9) 0.315(3) 0.95(4) 0.0760 Uiso
C37_2 C 0.013(13) 0.355(5) 0.84(5) 0.0760 Uiso
C38_2 C 0.006(14) 0.354(7) 0.64(5) 0.0595 Uiso
H24_2 H 0.020(14) 0.384(4) 0.90(6) 0.1013 Uiso
C39_2 C 0.010(18) 0.399(9) 0.53(7) 0.0595 Uiso
P1_3 P 0.9964(6) 0.0749(6) 0.2805(19) 0.0760 Uiso
C2_3 C 0.9360(14) 0.0772(8) 0.377(4) 0.0595 Uiso
C3_3 C 0.9957(15) 0.1335(11) 0.164(5) 0.0595 Uiso
C6_3 C 0.893(2) 0.1164(17) 0.320(8) 0.0760 Uiso
C7_3 C 0.930(2) 0.040(2) 0.513(9) 0.0760 Uiso
C12_3 C 0.843(3) 0.1183(19) 0.399(10) 0.0760 Uiso
H3_3 H 0.896(3) 0.1398(19) 0.235(10) 0.1013 Uiso
C13_3 C 0.883(3) 0.041(2) 0.588(11) 0.0760 Uiso
H4_3 H 0.957(2) 0.015(2) 0.549(11) 0.1013 Uiso
C17_3 C 0.839(3) 0.082(2) 0.526(10) 0.0595 Uiso
H9_3 H 0.816(3) 0.143(2) 0.363(13) 0.1013 Uiso
H10_3 H 0.879(4) 0.018(3) 0.673(13) 0.1013 Uiso
C19_3 C 0.779(4) 0.072(5) 0.577(16) 0.0595 Uiso
C20_3 C 0.722(4) 0.082(7) 0.43(2) 0.0760 Uiso
C21_3 C 0.783(7) 0.053(7) 0.770(19) 0.0760 Uiso
C22_3 C 0.668(5) 0.073(10) 0.48(3) 0.0760 Uiso
H13_3 H 0.719(4) 0.094(6) 0.31(2) 0.1013 Uiso
C23_3 C 0.728(9) 0.044(10) 0.82(3) 0.0760 Uiso
H14_3 H 0.820(8) 0.047(7) 0.864(17) 0.1013 Uiso
C24_3 C 0.671(8) 0.054(11) 0.67(3) 0.0595 Uiso
H15_3 H 0.631(5) 0.080(11) 0.38(3) 0.1013 Uiso
H16_3 H 0.731(11) 0.032(12) 0.94(3) 0.1013 Uiso
C25_3 C 0.616(10) 0.044(15) 0.73(4) 0.0595 Uiso
O1_3 O 0.621(13) 0.043(17) 0.92(4) 0.0253 Uiso
O2_2 O 0.564(10) 0.035(16) 0.59(5) 0.0253 Uiso
C1_3 C 0.0628(14) 0.9221(7) 0.993(5) 0.0595 Uiso
C5_3 C 0.116(2) 0.9428(14) 0.986(6) 0.0760 Uiso
C9_3 C 0.030(2) 0.8299(17) 0.774(8) 0.0760 Uiso
H2_3 H 0.116(3) 0.9579(16) 0.872(7) 0.1013 Uiso
C15_3 C 0.029(3) 0.783(2) 0.682(11) 0.0760 Uiso
H6_3 H 0.053(3) 0.8347(19) 0.906(8) 0.1013 Uiso
H12_3 H 0.052(4) 0.759(2) 0.755(12) 0.1013 Uiso
C35_3 C 0.009(9) 0.685(3) 0.45(4) 0.0760 Uiso
C37_3 C 0.013(13) 0.645(5) 0.34(5) 0.0760 Uiso
H22_3 H 0.014(9) 0.683(3) 0.58(4) 0.1013 Uiso
C38_3 C 0.006(14) 0.646(7) 0.14(5) 0.0595 Uiso
H24_3 H 0.020(14) 0.616(4) 0.40(6) 0.1013 Uiso
C39_3 C 0.010(18) 0.601(9) 0.03(7) 0.0595 Uiso
C8_2 C 0.460(3) 0.6410(16) 0.960(9) 0.0760 Uiso
C14_2 C 0.459(4) 0.688(3) 0.867(11) 0.0760 Uiso
H5_2 H 0.437(3) 0.617(2) 0.887(8) 0.1013 Uiso
C18_2 C 0.494(4) 0.724(3) 0.979(13) 0.0595 Uiso
H11_2 H 0.436(4) 0.693(3) 0.735(12) 0.1013 Uiso
C33_2 C 0.498(7) 0.771(4) 0.85(3) 0.0595 Uiso
C34_2 C 0.490(9) 0.767(7) 0.65(3) 0.0760 Uiso
C35_4 C 0.509(9) 0.815(3) 0.95(4) 0.0760 Uiso
C36_2 C 0.494(13) 0.810(9) 0.54(4) 0.0760 Uiso
H21_2 H 0.483(9) 0.738(8) 0.591(19) 0.1013 Uiso
C37_4 C 0.513(13) 0.855(5) 0.84(5) 0.0760 Uiso
C38_4 C 0.506(14) 0.854(7) 0.64(5) 0.0595 Uiso
H23_2 H 0.489(14) 0.808(11) 0.41(4) 0.1013 Uiso
H24_4 H 0.520(14) 0.884(4) 0.90(6) 0.1013 Uiso
C39_4 C 0.510(18) 0.899(9) 0.53(7) 0.0595 Uiso
O5_2 O 0.51(2) 0.943(8) 0.61(8) 0.0253 Uiso
O6_2 O 0.52(2) 0.897(12) 0.35(7) 0.0253 Uiso
Y6 Y 0.5109(6) 0.9850(3) 0.3053(19) 0.0826 Uani
O7_2 O 0.564(10) 0.965(16) 0.09(5) 0.0253 Uiso
O10_2 O 0.455(8) 0.962(13) 0.92(8) 0.0253 Uiso
O3_4 O 0.411(15) 0.957(14) 0.19(6) 0.0253 Uiso
C4_3 C 0.0623(19) 0.8994(14) 0.164(8) 0.0760 Uiso
C10_3 C 0.117(4) 0.8969(17) 0.340(12) 0.0760 Uiso
H1_3 H 0.028(2) 0.8858(17) 0.169(8) 0.1013 Uiso
C11_3 C 0.171(4) 0.9403(16) 0.162(11) 0.0760 Uiso
C16_3 C 0.170(4) 0.9174(18) 0.335(10) 0.0595 Uiso
H7_3 H 0.117(4) 0.882(2) 0.454(12) 0.1013 Uiso
H8_3 H 0.206(4) 0.9539(19) 0.158(12) 0.1013 Uiso
C26_4 C 0.232(5) 0.927(4) 0.51(2) 0.0595 Uiso
C27_3 C 0.287(4) 0.933(5) 0.46(4) 0.0760 Uiso
C28_4 C 0.235(9) 0.930(6) 0.704(18) 0.0760 Uiso
C29_4 C 0.345(5) 0.943(8) 0.62(5) 0.0760 Uiso
H17_3 H 0.286(5) 0.931(5) 0.33(4) 0.1013 Uiso
C30_4 C 0.291(11) 0.940(8) 0.86(3) 0.0760 Uiso
H18_4 H 0.200(11) 0.927(5) 0.734(13) 0.1013 Uiso
C31_4 C 0.345(9) 0.946(9) 0.82(5) 0.0595 Uiso
H19_4 H 0.379(5) 0.946(9) 0.59(6) 0.1013 Uiso
H20_4 H 0.292(14) 0.942(9) 0.99(3) 0.1013 Uiso
C32_4 C 0.406(10) 0.955(12) 0.98(6) 0.0595 Uiso
C7_4 C 0.930(2) 0.960(2) 0.013(9) 0.0760 Uiso
C13_4 C 0.883(3) 0.959(2) 0.088(11) 0.0760 Uiso
H4_4 H 0.957(2) 0.985(2) 0.049(11) 0.1013 Uiso
C17_4 C 0.839(3) 0.918(2) 0.026(10) 0.0595 Uiso
H10_4 H 0.879(4) 0.982(3) 0.173(13) 0.1013 Uiso
C19_4 C 0.779(4) 0.928(5) 0.077(16) 0.0595 Uiso
C21_4 C 0.783(7) 0.947(7) 0.270(19) 0.0760 Uiso
C23_4 C 0.728(9) 0.956(10) 0.32(3) 0.0760 Uiso
H14_4 H 0.820(8) 0.953(7) 0.364(17) 0.1013 Uiso
C24_4 C 0.671(8) 0.946(11) 0.17(3) 0.0595 Uiso
H16_4 H 0.731(11) 0.968(12) 0.44(3) 0.1013 Uiso
C25_4 C 0.616(10) 0.956(15) 0.23(4) 0.0595 Uiso
O1_4 O 0.621(13) 0.957(17) 0.42(4) 0.0253 Uiso
P1_4 P 0.9964(6) 0.9251(6) 0.7805(19) 0.0760 Uiso
C2_4 C 0.9360(14) 0.9228(8) 0.877(4) 0.0595 Uiso
C3_4 C 0.9957(15) 0.8665(11) 0.664(5) 0.0595 Uiso
C6_4 C 0.893(2) 0.8836(17) 0.820(8) 0.0760 Uiso
C8_3 C 0.960(3) 0.8590(16) 0.460(9) 0.0760 Uiso
C12_4 C 0.843(3) 0.8817(19) 0.899(10) 0.0760 Uiso
H3_4 H 0.896(3) 0.8602(19) 0.735(10) 0.1013 Uiso
C14_3 C 0.959(4) 0.812(3) 0.367(11) 0.0760 Uiso
H5_3 H 0.937(3) 0.883(2) 0.387(8) 0.1013 Uiso
H9_4 H 0.816(3) 0.857(2) 0.863(13) 0.1013 Uiso
C18_3 C 0.994(4) 0.776(3) 0.479(13) 0.0595 Uiso
H11_3 H 0.936(4) 0.807(3) 0.235(12) 0.1013 Uiso
C20_4 C 0.722(4) 0.918(7) 0.93(2) 0.0760 Uiso
C22_4 C 0.668(5) 0.927(10) 0.98(3) 0.0760 Uiso
H13_4 H 0.719(4) 0.906(6) 0.81(2) 0.1013 Uiso
H15_4 H 0.631(5) 0.920(11) 0.88(3) 0.1013 Uiso
C33_3 C 0.998(7) 0.729(4) 0.35(3) 0.0595 Uiso
C34_3 C 0.990(9) 0.733(7) 0.15(3) 0.0760 Uiso
C36_3 C 0.994(13) 0.690(9) 0.04(4) 0.0760 Uiso
H21_3 H 0.983(9) 0.762(8) 0.091(19) 0.1013 Uiso
C1_4 C 0.0628(14) 0.0779(7) 0.493(5) 0.0595 Uiso
C4_4 C 0.0623(19) 0.1006(14) 0.664(8) 0.0760 Uiso
C5_4 C 0.116(2) 0.0572(14) 0.486(6) 0.0760 Uiso
C9_4 C 0.030(2) 0.1701(17) 0.274(8) 0.0760 Uiso
C10_4 C 0.117(4) 0.1031(17) 0.840(12) 0.0760 Uiso
H1_4 H 0.028(2) 0.1142(17) 0.669(8) 0.1013 Uiso
C11_4 C 0.171(4) 0.0597(16) 0.662(11) 0.0760 Uiso
H2_4 H 0.116(3) 0.0421(16) 0.372(7) 0.1013 Uiso
C15_4 C 0.029(3) 0.217(2) 0.182(11) 0.0760 Uiso
H6_4 H 0.053(3) 0.1653(19) 0.406(8) 0.1013 Uiso
C16_4 C 0.170(4) 0.0826(18) 0.835(10) 0.0595 Uiso
H7_4 H 0.117(4) 0.118(2) 0.954(12) 0.1013 Uiso
H8_4 H 0.206(4) 0.0461(19) 0.658(12) 0.1013 Uiso
H12_4 H 0.052(4) 0.241(2) 0.255(12) 0.1013 Uiso
C27_4 C 0.287(4) 0.067(5) 0.96(4) 0.0760 Uiso
H17_4 H 0.286(5) 0.069(5) 0.83(4) 0.1013 Uiso
H22_4 H 0.014(9) 0.317(3) 0.08(4) 0.1013 Uiso
C8_4 C 0.960(3) 0.1410(16) 0.960(9) 0.0760 Uiso
C14_4 C 0.959(4) 0.188(3) 0.867(11) 0.0760 Uiso
H5_4 H 0.937(3) 0.117(2) 0.887(8) 0.1013 Uiso
C18_4 C 0.994(4) 0.224(3) 0.979(13) 0.0595 Uiso
H11_4 H 0.936(4) 0.193(3) 0.735(12) 0.1013 Uiso
C33_4 C 0.998(7) 0.271(4) 0.85(3) 0.0595 Uiso
C34_4 C 0.990(9) 0.267(7) 0.65(3) 0.0760 Uiso
C36_4 C 0.994(13) 0.310(9) 0.54(4) 0.0760 Uiso
H21_4 H 0.983(9) 0.238(8) 0.591(19) 0.1013 Uiso
H23_3 H 0.989(14) 0.308(11) 0.41(4) 0.1013 Uiso
H23_4 H 0.989(14) 0.692(11) 0.91(4) 0.1013 Uiso
loop_
_atom_site_aniso_label
_atom_site_aniso_U_11
_atom_site_aniso_U_22
_atom_site_aniso_U_33
_atom_site_aniso_U_23
_atom_site_aniso_U_13
_atom_site_aniso_U_12
Y2 0.111 0.085 0.065 -0.002 0.047 0.009
Y4 0.111 0.085 0.065 0.002 0.047 -0.009
Y5 0.111 0.085 0.065 -0.002 0.047 0.009
Y6 0.111 0.085 0.065 0.002 0.047 -0.009
loop_
_geom_bond_atom_site_label_1
_geom_bond_atom_site_label_2
_geom_bond_site_symmetry_1
_geom_bond_site_symmetry_2
C28 C26 1_555 1_555
C30 C28 1_555 1_555
H18 C28 1_555 1_555
C31 C29 1_555 1_555
H19 C29 1_555 1_555
H20 C30 1_555 1_555
C32 C31 1_555 1_555
O3 C32 1_555 1_555
O4 C32 1_555 1_555
C30 C31 1_555 1_555
P1 C1 1_555 1_555
C1 C4 1_555 1_555
C2 P1 1_555 1_555
C3 P1 1_555 1_555
C4 C10 1_555 1_555
C5 C1 1_555 1_555
C6 C2 1_555 1_555
C7 C2 1_555 1_555
C9 C3 1_555 1_555
C10 C16 1_555 1_555
H1 C4 1_555 1_555
C11 C5 1_555 1_555
H2 C5 1_555 1_555
C12 C6 1_555 1_555
H3 C6 1_555 1_555
C13 C7 1_555 1_555
H4 C7 1_555 1_555
C15 C9 1_555 1_555
H6 C9 1_555 1_555
C16 C11 1_555 1_555
H7 C10 1_555 1_555
H8 C11 1_555 1_555
C17 C12 1_555 1_555
H9 C12 1_555 1_555
H10 C13 1_555 1_555
H12 C15 1_555 1_555
C19 C17 1_555 1_555
C20 C19 1_555 1_555
C21 C19 1_555 1_555
C22 C20 1_555 1_555
H13 C20 1_555 1_555
C23 C21 1_555 1_555
H14 C21 1_555 1_555
C24 C22 1_555 1_555
H15 C22 1_555 1_555
H16 C23 1_555 1_555
C25 C24 1_555 1_555
O1 C25 1_555 1_555
O2 C25 1_555 1_555
H17 C27 1_555 1_555
Y2 O1 1_555 1_555
O11 Y2 1_555 1_555
O13 Y2 1_555 1_555
Y4 O2 1_555 1_555
C13 C17 1_555 1_555
C23 C24 1_555 1_555
O2 Y2 1_555 1_555
O11 Y4 1_555 1_555
C4_2 C10_2 1_555 1_555
C10_2 C16_2 1_555 1_555
H1_2 C4_2 1_555 1_555
C13_2 C7_2 1_555 1_555
H4_2 C7_2 1_555 1_555
C16_2 C11_2 1_555 1_555
H7_2 C10_2 1_555 1_555
H8_2 C11_2 1_555 1_555
H10_2 C13_2 1_555 1_555
C19_2 C17_2 1_555 1_555
C21_2 C19_2 1_555 1_555
C23_2 C21_2 1_555 1_555
H14_2 C21_2 1_555 1_555
H16_2 C23_2 1_555 1_555
C25_2 C24_2 1_555 1_555
O1_2 C25_2 1_555 1_555
O7 C25_2 1_555 1_555
C26_2 C16_2 1_555 1_555
C27_2 C26_2 1_555 1_555
C28_2 C26_2 1_555 1_555
C29_2 C27_2 1_555 1_555
H17_2 C27_2 1_555 1_555
C30_2 C28_2 1_555 1_555
H18_2 C28_2 1_555 1_555
C31_2 C29_2 1_555 1_555
H19_2 C29_2 1_555 1_555
H20_2 C30_2 1_555 1_555
C32_2 C31_2 1_555 1_555
O10 C32_2 1_555 1_555
Y4 O1_2 1_555 1_555
O12 Y4 1_555 1_555
O13_2 Y4 1_555 1_555
C13_2 C17_2 1_555 1_555
C23_2 C24_2 1_555 1_555
O7 Y4 1_555 1_555
C30_2 C31_2 1_555 1_555
P1_2 C1_2 1_555 1_555
C2_2 P1_2 1_555 1_555
C3_2 P1_2 1_555 1_555
C5_2 C1_2 1_555 1_555
C6_2 C2_2 1_555 1_555
C8 C3_2 1_555 1_555
C9_2 C3_2 1_555 1_555
H2_2 C5_2 1_555 1_555
C12_2 C6_2 1_555 1_555
H3_2 C6_2 1_555 1_555
C14 C8 1_555 1_555
H5 C8 1_555 1_555
C15_2 C9_2 1_555 1_555
H6_2 C9_2 1_555 1_555
H9_2 C12_2 1_555 1_555
C18 C14 1_555 1_555
H11 C14 1_555 1_555
H12_2 C15_2 1_555 1_555
C22_2 C20_2 1_555 1_555
H13_2 C20_2 1_555 1_555
H15_2 C22_2 1_555 1_555
C33 C18 1_555 1_555
C34 C33 1_555 1_555
C35 C33 1_555 1_555
C36 C34 1_555 1_555
H21 C34 1_555 1_555
C37 C35 1_555 1_555
H22_2 C35 1_555 1_555
C38 C36 1_555 1_555
H24 C37 1_555 1_555
C39 C38 1_555 1_555
O5 C39 1_555 1_555
C15_2 C18 1_555 1_555
C37 C38 1_555 1_555
O6 Y5 1_555 1_555
C28_3 C26_3 1_555 1_555
C30_3 C28_3 1_555 1_555
H18_3 C28_3 1_555 1_555
C31_3 C29_3 1_555 1_555
H19_3 C29_3 1_555 1_555
H20_3 C30_3 1_555 1_555
C32_3 C31_3 1_555 1_555
O3_3 C32_3 1_555 1_555
O4_2 C32_3 1_555 1_555
Y5 O3_3 1_555 1_555
C30_3 C31_3 1_555 1_555
O4_2 Y5 1_555 1_555
C37_2 C35_2 1_555 1_555
H24_2 C37_2 1_555 1_555
C39_2 C38_2 1_555 1_555
O11 C39_2 1_555 1_555
O13_2 C39_2 1_555 1_555
C37_2 C38_2 1_555 1_555
C2_3 P1_3 1_555 1_555
C3_3 P1_3 1_555 1_555
C6_3 C2_3 1_555 1_555
C7_3 C2_3 1_555 1_555
C12_3 C6_3 1_555 1_555
H3_3 C6_3 1_555 1_555
C13_3 C7_3 1_555 1_555
H4_3 C7_3 1_555 1_555
C17_3 C12_3 1_555 1_555
H9_3 C12_3 1_555 1_555
H10_3 C13_3 1_555 1_555
C19_3 C17_3 1_555 1_555
C20_3 C19_3 1_555 1_555
C21_3 C19_3 1_555 1_555
C22_3 C20_3 1_555 1_555
H13_3 C20_3 1_555 1_555
C23_3 C21_3 1_555 1_555
H14_3 C21_3 1_555 1_555
C24_3 C22_3 1_555 1_555
H15_3 C22_3 1_555 1_555
H16_3 C23_3 1_555 1_555
C25_3 C24_3 1_555 1_555
O1_3 C25_3 1_555 1_555
O2_2 C25_3 1_555 1_555
Y5 O1_3 1_555 1_555
C13_3 C17_3 1_555 1_555
C23_3 C24_3 1_555 1_555
O2_2 Y5 1_555 1_555
C5_3 C1_3 1_555 1_555
H2_3 C5_3 1_555 1_555
C15_3 C9_3 1_555 1_555
H6_3 C9_3 1_555 1_555
H12_3 C15_3 1_555 1_555
C37_3 C35_3 1_555 1_555
H22_3 C35_3 1_555 1_555
H24_3 C37_3 1_555 1_555
C39_3 C38_3 1_555 1_555
O12 C39_3 1_555 1_555
C37_3 C38_3 1_555 1_555
C14_2 C8_2 1_555 1_555
H5_2 C8_2 1_555 1_555
C18_2 C14_2 1_555 1_555
H11_2 C14_2 1_555 1_555
C33_2 C18_2 1_555 1_555
C34_2 C33_2 1_555 1_555
C35_4 C33_2 1_555 1_555
C36_2 C34_2 1_555 1_555
H21_2 C34_2 1_555 1_555
C37_4 C35_4 1_555 1_555
C38_4 C36_2 1_555 1_555
H23_2 C36_2 1_555 1_555
H24_4 C37_4 1_555 1_555
C39_4 C38_4 1_555 1_555
O5_2 C39_4 1_555 1_555
O6_2 C39_4 1_555 1_555
Y6 O5_2 1_555 1_555
C37_4 C38_4 1_555 1_555
O6_2 Y6 1_555 1_555
Y6 O3_4 1_555 1_555
C4_3 C10_3 1_555 1_555
C10_3 C16_3 1_555 1_555
H1_3 C4_3 1_555 1_555
C16_3 C11_3 1_555 1_555
H7_3 C10_3 1_555 1_555
H8_3 C11_3 1_555 1_555
C26_4 C16_3 1_555 1_555
C27_3 C26_4 1_555 1_555
C28_4 C26_4 1_555 1_555
C29_4 C27_3 1_555 1_555
H17_3 C27_3 1_555 1_555
C30_4 C28_4 1_555 1_555
H18_4 C28_4 1_555 1_555
C31_4 C29_4 1_555 1_555
H19_4 C29_4 1_555 1_555
H20_4 C30_4 1_555 1_555
C32_4 C31_4 1_555 1_555
O10_2 C32_4 1_555 1_555
C30_4 C31_4 1_555 1_555
C13_4 C7_4 1_555 1_555
H4_4 C7_4 1_555 1_555
H10_4 C13_4 1_555 1_555
C19_4 C17_4 1_555 1_555
C21_4 C19_4 1_555 1_555
C23_4 C21_4 1_555 1_555
H14_4 C21_4 1_555 1_555
H16_4 C23_4 1_555 1_555
C25_4 C24_4 1_555 1_555
O1_4 C25_4 1_555 1_555
O7_2 C25_4 1_555 1_555
Y6 O1_4 1_555 1_555
C13_4 C17_4 1_555 1_555
C23_4 C24_4 1_555 1_555
O7_2 Y6 1_555 1_555
C2_4 P1_4 1_555 1_555
C3_4 P1_4 1_555 1_555
C6_4 C2_4 1_555 1_555
C8_3 C3_4 1_555 1_555
C12_4 C6_4 1_555 1_555
H3_4 C6_4 1_555 1_555
C14_3 C8_3 1_555 1_555
H5_3 C8_3 1_555 1_555
H9_4 C12_4 1_555 1_555
C18_3 C14_3 1_555 1_555
H11_3 C14_3 1_555 1_555
C22_4 C20_4 1_555 1_555
H13_4 C20_4 1_555 1_555
H15_4 C22_4 1_555 1_555
C33_3 C18_3 1_555 1_555
C34_3 C33_3 1_555 1_555
C36_3 C34_3 1_555 1_555
H21_3 C34_3 1_555 1_555
C1_4 C4_4 1_555 1_555
C4_4 C10_4 1_555 1_555
C5_4 C1_4 1_555 1_555
C10_4 C16_4 1_555 1_555
H1_4 C4_4 1_555 1_555
C11_4 C5_4 1_555 1_555
H2_4 C5_4 1_555 1_555
C15_4 C9_4 1_555 1_555
H6_4 C9_4 1_555 1_555
C16_4 C11_4 1_555 1_555
H7_4 C10_4 1_555 1_555
H8_4 C11_4 1_555 1_555
H12_4 C15_4 1_555 1_555
H17_4 C27_4 1_555 1_555
C14_4 C8_4 1_555 1_555
H5_4 C8_4 1_555 1_555
C18_4 C14_4 1_555 1_555
H11_4 C14_4 1_555 1_555
C33_4 C18_4 1_555 1_555
C34_4 C33_4 1_555 1_555
C36_4 C34_4 1_555 1_555
H21_4 C34_4 1_555 1_555
H23_3 C36_4 1_555 1_555

#END
