
###############################################################################
#
# This file contains modified crystal structure data generated from the
# MOF subset of the Cambridge Structural Database (CSD) v543 
# hosted by the Cambridge Crystallographic Data Centre (CCDC).
#
# This work is licensed under the Creative Commons
# Attribution-NonCommercial-ShareAlike 4.0 International License.
# To view a copy of this license, visit
# http://creativecommons.org/licenses/by-nc-sa/4.0/
# or send a letter to
# Creative Commons, PO Box 1866, Mountain View, CA 94042, USA.
#
# CIF created using the CSD Python API on 29 September 2022
# The structure has been converted into the P1 space group
# The structure has a 3D framework
# The original CSD entry REDPEW is in the monoclinic crystal system
# The framework has been calculated to contain at least 10.0% void space
# The void calculation uses a probe of radius 1.32A, grid spacing 0.4
#
###############################################################################

data_REDPEW
_chemical_formula_moiety         '(C192 H128 O64 S16 Tl32)n'
_symmetry_cell_setting           triclinic
_symmetry_space_group_name_H-M   'P 1'
_symmetry_Int_Tables_number      1
_space_group_name_Hall           'P 1'
loop_
_symmetry_equiv_pos_site_id
_symmetry_equiv_pos_as_xyz
1 x,y,z
_cell_length_a                   19.417(9)
_cell_length_b                   16.454(7)
_cell_length_c                   20.781(9)
_cell_angle_alpha                90
_cell_angle_beta                 115.33(3)
_cell_angle_gamma                90
_cell_volume                     6000.96
loop_
_atom_site_label
_atom_site_type_symbol
_atom_site_fract_x
_atom_site_fract_y
_atom_site_fract_z
O3 O 0.2200(8) 0.3093(7) 0.7325(6)
C13 C 0.1510(10) 0.2815(10) 0.6934(8)
C14 C 0.0885(11) 0.3112(12) 0.7041(9)
H9 H 0.0961 0.3521 0.7374
C15 C 0.0159(10) 0.2800(13) 0.6658(9)
C16 C 0.0044(11) 0.2187(10) 0.6167(8)
C17 C 0.0642(10) 0.1885(11) 0.6061(9)
H11 H 0.0557 0.1471 0.5730
C18 C 0.1385(9) 0.2187(11) 0.6441(9)
H12 H 0.1788 0.1973 0.6366
Tl5 Tl 0.34214(4) 0.27588(5) 0.71716(4)
Tl9 Tl 0.21798(5) 0.46573(5) 0.72857(4)
Tl12 Tl 0.27091(4) 0.26364(5) 0.87250(4)
S2 S 0.1809(3) 0.6260(3) 0.0368(2)
O7 O 0.2373(7) 0.6891(9) 0.0654(6)
O8 O 0.1674(8) 0.5740(9) 0.0850(7)
H6 H 0.0276 0.6006 0.0091
Tl6 Tl 0.34214(4) 0.72412(5) 0.21716(4)
Tl11 Tl 0.21798(5) 0.53427(5) 0.22857(4)
O4 O 0.2797(7) 0.4180(7) 0.8631(6)
C9 C 0.0271(11) 0.6439(12) 0.9801(9)
C10 C 0.0945(9) 0.6714(11) 0.9805(8)
C11 C 0.0938(10) 0.7365(12) 0.9389(9)
H7 H 0.1395 0.7557 0.9402
C12 C 0.0271(11) 0.7731(13) 0.8957(10)
H8 H 0.0278 0.8162 0.8670
C19 C 0.2549(10) 0.4649(11) 0.9020(9)
C20 C 0.2759(11) 0.5449(12) 0.9113(10)
H13 H 0.3083 0.5657 0.8929
C21 C 0.2473(10) 0.5961(12) 0.9497(9)
H14 H 0.2567 0.6517 0.9518
C22 C 0.2065(10) 0.5648(12) 0.9832(8)
C23 C 0.1864(12) 0.4843(12) 0.9755(10)
H15 H 0.1558 0.4640 0.9961
C24 C 0.2125(10) 0.4312(11) 0.9356(9)
H16 H 0.2015 0.3760 0.9321
Tl7 Tl 0.41776(4) 0.43549(5) 0.88539(4)
S1 S 0.9126(3) 0.1802(3) 0.5710(2)
O5 O 0.9091(7) 0.1403(9) 0.5073(6)
O6 O 0.8594(7) 0.2431(9) 0.5654(8)
C3 C 0.8918(10) 0.0203(10) 0.6027(9)
H2 H 0.8951 0.0054 0.5610
C4 C 0.9029(9) 0.1037(11) 0.6251(8)
C5 C 0.8990(10) 0.1257(13) 0.6880(10)
H3 H 0.9061 0.1796 0.7029
C6 C 0.8845(13) 0.0675(13) 0.7283(10)
H4 H 0.8828 0.0824 0.7707
H10 H 0.9751 0.3003 0.6731
Tl8 Tl 0.91776(4) 0.06451(5) 0.38539(4)
Tl1 Tl 0.84214(4) 0.77588(5) 0.71716(4)
Tl2 Tl 0.91776(4) 0.93549(5) 0.88539(4)
Tl3 Tl 0.71798(5) 0.96573(5) 0.72857(4)
Tl4 Tl 0.77091(4) 0.76364(5) 0.87250(4)
O1 O 0.8527(8) 0.9314(8) 0.7427(6)
O2 O 0.8920(7) 0.7876(8) 0.8550(6)
C1 C 0.8721(9) 0.9847(11) 0.7059(9)
C2 C 0.8766(10) 0.9633(12) 0.6414(9)
H1 H 0.8690 0.9096 0.6259
C7 C 0.9578(10) 0.7473(10) 0.8938(8)
C8 C 0.9601(11) 0.6801(16) 0.9374(11)
H5 H 0.9149 0.6605 0.9369
O9 O 0.7200(8) 0.8093(7) 0.7325(6)
O10 O 0.7797(7) 0.9180(7) 0.8631(6)
O12 O 0.7373(7) 0.8109(9) 0.5654(6)
O13 O 0.6674(8) 0.9260(9) 0.5850(7)
S2_2 S 0.6809(3) 0.1260(3) 0.0368(2)
O7_2 O 0.7373(7) 0.1891(9) 0.0654(6)
O8_2 O 0.6674(8) 0.0740(9) 0.0850(7)
H6_2 H 0.5276 0.1006 0.0091
Tl6_2 Tl 0.84214(4) 0.22412(5) 0.21716(4)
Tl11_2 Tl 0.71798(5) 0.03427(5) 0.22857(4)
O11 O 0.4091(7) 0.3597(9) 0.0073(6)
S1_2 S 0.4126(3) 0.6802(3) 0.5710(2)
O1_2 O 0.3527(8) 0.4314(8) 0.7427(6)
O2_2 O 0.3920(7) 0.2876(8) 0.8550(6)
O5_2 O 0.4091(7) 0.6403(9) 0.5073(6)
O6_2 O 0.3594(7) 0.7431(9) 0.5654(8)
C1_2 C 0.3721(9) 0.4847(11) 0.7059(9)
C2_2 C 0.3766(10) 0.4633(12) 0.6414(9)
H1_2 H 0.3690 0.4096 0.6259
C3_2 C 0.3918(10) 0.5203(10) 0.6027(9)
H2_2 H 0.3951 0.5054 0.5610
C4_2 C 0.4029(9) 0.6037(11) 0.6251(8)
C5_2 C 0.3990(10) 0.6257(13) 0.6880(10)
H3_2 H 0.4061 0.6796 0.7029
C6_2 C 0.3845(13) 0.5675(13) 0.7283(10)
H4_2 H 0.3828 0.5824 0.7707
C7_2 C 0.4578(10) 0.2473(10) 0.8938(8)
C8_2 C 0.4601(11) 0.1801(16) 0.9374(11)
H5_2 H 0.4149 0.1605 0.9369
C9_2 C 0.5271(11) 0.1439(12) 0.9801(9)
C10_2 C 0.5945(9) 0.1714(11) 0.9805(8)
C11_2 C 0.5938(10) 0.2365(12) 0.9389(9)
H7_2 H 0.6395 0.2557 0.9402
C12_2 C 0.5271(11) 0.2731(13) 0.8957(10)
H8_2 H 0.5278 0.3162 0.8670
C13_2 C 0.6510(10) 0.7815(10) 0.6934(8)
C14_2 C 0.5885(11) 0.8112(12) 0.7041(9)
H9_2 H 0.5961 0.8521 0.7374
C15_2 C 0.5159(10) 0.7800(13) 0.6658(9)
H10_2 H 0.4751 0.8003 0.6731
C16_2 C 0.5044(11) 0.7187(10) 0.6167(8)
C17_2 C 0.5642(10) 0.6885(11) 0.6061(9)
H11_2 H 0.5557 0.6471 0.5730
C18_2 C 0.6385(9) 0.7187(11) 0.6441(9)
H12_2 H 0.6788 0.6973 0.6366
C20_2 C 0.7759(11) 0.0449(12) 0.9113(10)
H13_2 H 0.8083 0.0657 0.8929
C21_2 C 0.7473(10) 0.0961(12) 0.9497(9)
H14_2 H 0.7567 0.1517 0.9518
C22_2 C 0.7065(10) 0.0648(12) 0.9832(8)
Tl8_2 Tl 0.41776(4) 0.56451(5) 0.38539(4)
O12_2 O 0.2373(7) 0.3109(9) 0.5654(6)
O13_2 O 0.1674(8) 0.4260(9) 0.5850(7)
C19_2 C 0.7549(10) 0.9649(11) 0.9020(9)
C23_2 C 0.6864(12) 0.9843(12) 0.9755(10)
H15_2 H 0.6558 0.9640 0.9961
C24_2 C 0.7125(10) 0.9312(11) 0.9356(9)
H16_2 H 0.7015 0.8760 0.9321
S2_3 S 0.1809(3) 0.3740(3) 0.5368(2)
O4_2 O 0.2797(7) 0.5820(7) 0.3631(6)
C9_3 C 0.0271(11) 0.3561(12) 0.4801(9)
H6_3 H 0.0276 0.3994 0.5091
C10_3 C 0.0945(9) 0.3286(11) 0.4805(8)
C11_3 C 0.0938(10) 0.2635(12) 0.4389(9)
H7_3 H 0.1395 0.2443 0.4402
C12_3 C 0.0271(11) 0.2269(13) 0.3957(10)
H8_3 H 0.0278 0.1838 0.3670
C19_3 C 0.2549(10) 0.5351(11) 0.4020(9)
C20_3 C 0.2759(11) 0.4551(12) 0.4113(10)
H13_3 H 0.3083 0.4343 0.3929
C21_3 C 0.2473(10) 0.4039(12) 0.4497(9)
H14_3 H 0.2567 0.3483 0.4518
C22_3 C 0.2065(10) 0.4352(12) 0.4832(8)
C23_3 C 0.1864(12) 0.5157(12) 0.4755(10)
H15_3 H 0.1558 0.5360 0.4961
C24_3 C 0.2125(10) 0.5688(11) 0.4356(9)
H16_3 H 0.2015 0.6240 0.4321
Tl13 Tl 0.27091(4) 0.73636(5) 0.37250(4)
O3_2 O 0.2200(8) 0.6907(7) 0.2325(6)
C13_3 C 0.1510(10) 0.7185(10) 0.1934(8)
C14_3 C 0.0885(11) 0.6888(12) 0.2041(9)
H9_3 H 0.0961 0.6479 0.2374
C15_3 C 0.0159(10) 0.7200(13) 0.1658(9)
C16_3 C 0.0044(11) 0.7813(10) 0.1167(8)
C17_3 C 0.0642(10) 0.8115(11) 0.1061(9)
H11_3 H 0.0557 0.8529 0.0730
C18_3 C 0.1385(9) 0.7813(11) 0.1441(9)
H12_3 H 0.1788 0.8027 0.1366
Tl4_2 Tl 0.77091(4) 0.23636(5) 0.37250(4)
O1_3 O 0.8527(8) 0.0686(8) 0.2427(6)
O2_3 O 0.8920(7) 0.2124(8) 0.3550(6)
C1_3 C 0.8721(9) 0.0153(11) 0.2059(9)
C2_3 C 0.8766(10) 0.0367(12) 0.1414(9)
H1_3 H 0.8690 0.0904 0.1259
C7_3 C 0.9578(10) 0.2527(10) 0.3938(8)
C8_3 C 0.9601(11) 0.3199(16) 0.4374(11)
H5_3 H 0.9149 0.3395 0.4369
O9_2 O 0.7200(8) 0.1907(7) 0.2325(6)
O10_2 O 0.7797(7) 0.0820(7) 0.3631(6)
C19_4 C 0.7549(10) 0.0351(11) 0.4020(9)
C23_4 C 0.6864(12) 0.0157(12) 0.4755(10)
H15_4 H 0.6558 0.0360 0.4961
C24_4 C 0.7125(10) 0.0688(11) 0.4356(9)
H16_4 H 0.7015 0.1240 0.4321
S1_3 S 0.4126(3) 0.3198(3) 0.0710(2)
S2_4 S 0.6809(3) 0.8740(3) 0.5368(2)
O1_4 O 0.3527(8) 0.5686(8) 0.2427(6)
O2_4 O 0.3920(7) 0.7124(8) 0.3550(6)
O6_3 O 0.3594(7) 0.2569(9) 0.0654(8)
C1_4 C 0.3721(9) 0.5153(11) 0.2059(9)
C2_4 C 0.3766(10) 0.5367(12) 0.1414(9)
H1_4 H 0.3690 0.5904 0.1259
C3_3 C 0.3918(10) 0.4797(10) 0.1027(9)
H2_3 H 0.3951 0.4946 0.0610
C4_3 C 0.4029(9) 0.3963(11) 0.1251(8)
C5_3 C 0.3990(10) 0.3743(13) 0.1880(10)
H3_3 H 0.4061 0.3204 0.2029
C6_3 C 0.3845(13) 0.4325(13) 0.2283(10)
H4_3 H 0.3828 0.4176 0.2707
C7_4 C 0.4578(10) 0.7527(10) 0.3938(8)
C8_4 C 0.4601(11) 0.8199(16) 0.4374(11)
H5_4 H 0.4149 0.8395 0.4369
C9_4 C 0.5271(11) 0.8561(12) 0.4801(9)
H6_4 H 0.5276 0.8994 0.5091
C10_4 C 0.5945(9) 0.8286(11) 0.4805(8)
C11_4 C 0.5938(10) 0.7635(12) 0.4389(9)
H7_4 H 0.6395 0.7443 0.4402
C12_4 C 0.5271(11) 0.7269(13) 0.3957(10)
H8_4 H 0.5278 0.6838 0.3670
C13_4 C 0.6510(10) 0.2185(10) 0.1934(8)
C14_4 C 0.5885(11) 0.1888(12) 0.2041(9)
H9_4 H 0.5961 0.1479 0.2374
C15_4 C 0.5159(10) 0.2200(13) 0.1658(9)
H10_3 H 0.4751 0.1997 0.1731
C16_4 C 0.5044(11) 0.2813(10) 0.1167(8)
C17_4 C 0.5642(10) 0.3115(11) 0.1061(9)
H11_4 H 0.5557 0.3529 0.0730
C18_4 C 0.6385(9) 0.2813(11) 0.1441(9)
H12_4 H 0.6788 0.3027 0.1366
C20_4 C 0.7759(11) 0.9551(12) 0.4113(10)
H13_4 H 0.8083 0.9343 0.3929
C21_4 C 0.7473(10) 0.9039(12) 0.4497(9)
H14_4 H 0.7567 0.8483 0.4518
C22_4 C 0.7065(10) 0.9352(12) 0.4832(8)
O11_2 O 0.9091(7) 0.8597(9) 0.0073(6)
S1_4 S 0.9126(3) 0.8198(3) 0.0710(2)
O6_4 O 0.8594(7) 0.7569(9) 0.0654(8)
C3_4 C 0.8918(10) 0.9797(10) 0.1027(9)
H2_4 H 0.8951 0.9946 0.0610
C4_4 C 0.9029(9) 0.8963(11) 0.1251(8)
C5_4 C 0.8990(10) 0.8743(13) 0.1880(10)
H3_4 H 0.9061 0.8204 0.2029
C6_4 C 0.8845(13) 0.9325(13) 0.2283(10)
H4_4 H 0.8828 0.9176 0.2707
H10_4 H 0.9751 0.6997 0.1731
Tl8_3 Tl 0.08224(4) 0.06451(5) 0.11461(4)
Tl1_2 Tl 0.15786(4) 0.77588(5) 0.78284(4)
Tl2_2 Tl 0.08224(4) 0.93549(5) 0.61461(4)
Tl3_2 Tl 0.28202(5) 0.96573(5) 0.77143(4)
Tl4_3 Tl 0.22909(4) 0.76364(5) 0.62750(4)
O1_5 O 0.1473(8) 0.9314(8) 0.7573(6)
O2_5 O 0.1080(7) 0.7876(8) 0.6450(6)
C1_5 C 0.1279(9) 0.9847(11) 0.7941(9)
C2_5 C 0.1234(10) 0.9633(12) 0.8586(9)
H1_5 H 0.1310 0.9096 0.8741
C7_5 C 0.0422(10) 0.7473(10) 0.6062(8)
C8_5 C 0.0399(11) 0.6801(16) 0.5626(11)
H5_5 H 0.0851 0.6605 0.5631
O9_3 O 0.2800(8) 0.8093(7) 0.7675(6)
O10_3 O 0.2203(7) 0.9180(7) 0.6369(6)
O11_3 O 0.0909(7) 0.8597(9) 0.4927(6)
O12_3 O 0.2627(7) 0.8109(9) 0.9346(6)
O13_3 O 0.3326(8) 0.9260(9) 0.9150(7)
O3_3 O 0.7800(8) 0.3093(7) 0.7675(6)
C13_5 C 0.8490(10) 0.2815(10) 0.8066(8)
C14_5 C 0.9115(11) 0.3112(12) 0.7959(9)
H9_5 H 0.9039 0.3521 0.7626
C15_5 C 0.9841(10) 0.2800(13) 0.8342(9)
C16_5 C 0.9956(11) 0.2187(10) 0.8833(8)
C17_5 C 0.9358(10) 0.1885(11) 0.8939(9)
H11_5 H 0.9443 0.1471 0.9270
C18_5 C 0.8615(9) 0.2187(11) 0.8559(9)
H12_5 H 0.8212 0.1973 0.8634
Tl5_2 Tl 0.65786(4) 0.27588(5) 0.78284(4)
Tl9_2 Tl 0.78202(5) 0.46573(5) 0.77143(4)
Tl12_2 Tl 0.72909(4) 0.26364(5) 0.62750(4)
S2_5 S 0.8191(3) 0.6260(3) 0.4632(2)
O4_3 O 0.7203(7) 0.4180(7) 0.6369(6)
O7_3 O 0.7627(7) 0.6891(9) 0.4346(6)
O8_3 O 0.8326(8) 0.5740(9) 0.4150(7)
C9_5 C 0.9729(11) 0.6439(12) 0.5199(9)
H6_5 H 0.9724 0.6006 0.4909
C10_5 C 0.9055(9) 0.6714(11) 0.5195(8)
C11_5 C 0.9062(10) 0.7365(12) 0.5611(9)
H7_5 H 0.8605 0.7557 0.5598
C12_5 C 0.9729(11) 0.7731(13) 0.6043(10)
H8_5 H 0.9722 0.8162 0.6330
C19_5 C 0.7451(10) 0.4649(11) 0.5980(9)
C20_5 C 0.7241(11) 0.5449(12) 0.5887(10)
H13_5 H 0.6917 0.5657 0.6071
C21_5 C 0.7527(10) 0.5961(12) 0.5503(9)
H14_5 H 0.7433 0.6517 0.5482
C22_5 C 0.7935(10) 0.5648(12) 0.5168(8)
C23_5 C 0.8136(12) 0.4843(12) 0.5245(10)
H15_5 H 0.8442 0.4640 0.5039
C24_5 C 0.7875(10) 0.4312(11) 0.5644(9)
H16_5 H 0.7985 0.3760 0.5679
Tl6_3 Tl 0.65786(4) 0.72412(5) 0.28284(4)
Tl7_2 Tl 0.58224(4) 0.43549(5) 0.61461(4)
Tl11_3 Tl 0.78202(5) 0.53427(5) 0.27143(4)
Tl8_4 Tl 0.58224(4) 0.56451(5) 0.11461(4)
S1_5 S 0.5874(3) 0.6802(3) 0.9290(2)
S2_6 S 0.3191(3) 0.1260(3) 0.4632(2)
O1_6 O 0.6473(8) 0.4314(8) 0.7573(6)
O2_6 O 0.6080(7) 0.2876(8) 0.6450(6)
O5_3 O 0.5909(7) 0.6403(9) 0.9927(6)
O6_5 O 0.6406(7) 0.7431(9) 0.9346(8)
O7_4 O 0.2627(7) 0.1891(9) 0.4346(6)
O8_4 O 0.3326(8) 0.0740(9) 0.4150(7)
C1_6 C 0.6279(9) 0.4847(11) 0.7941(9)
C2_6 C 0.6234(10) 0.4633(12) 0.8586(9)
H1_6 H 0.6310 0.4096 0.8741
C3_5 C 0.6082(10) 0.5203(10) 0.8973(9)
H2_5 H 0.6049 0.5054 0.9390
C4_5 C 0.5971(9) 0.6037(11) 0.8749(8)
C5_5 C 0.6010(10) 0.6257(13) 0.8120(10)
H3_5 H 0.5939 0.6796 0.7971
C6_5 C 0.6155(13) 0.5675(13) 0.7717(10)
H4_5 H 0.6172 0.5824 0.7293
C7_6 C 0.5422(10) 0.2473(10) 0.6062(8)
C8_6 C 0.5399(11) 0.1801(16) 0.5626(11)
H5_6 H 0.5851 0.1605 0.5631
C9_6 C 0.4729(11) 0.1439(12) 0.5199(9)
H6_6 H 0.4724 0.1006 0.4909
C10_6 C 0.4055(9) 0.1714(11) 0.5195(8)
C11_6 C 0.4062(10) 0.2365(12) 0.5611(9)
H7_6 H 0.3605 0.2557 0.5598
C12_6 C 0.4729(11) 0.2731(13) 0.6043(10)
H8_6 H 0.4722 0.3162 0.6330
C13_6 C 0.3490(10) 0.7815(10) 0.8066(8)
C14_6 C 0.4115(11) 0.8112(12) 0.7959(9)
H9_6 H 0.4039 0.8521 0.7626
C15_6 C 0.4841(10) 0.7800(13) 0.8342(9)
H10_5 H 0.5249 0.8003 0.8269
C16_6 C 0.4956(11) 0.7187(10) 0.8833(8)
C17_6 C 0.4358(10) 0.6885(11) 0.8939(9)
H11_6 H 0.4443 0.6471 0.9270
C18_6 C 0.3615(9) 0.7187(11) 0.8559(9)
H12_6 H 0.3212 0.6973 0.8634
C20_6 C 0.2241(11) 0.0449(12) 0.5887(10)
H13_6 H 0.1917 0.0657 0.6071
C21_6 C 0.2527(10) 0.0961(12) 0.5503(9)
H14_6 H 0.2433 0.1517 0.5482
C22_6 C 0.2935(10) 0.0648(12) 0.5168(8)
Tl6_4 Tl 0.15786(4) 0.22412(5) 0.28284(4)
Tl11_4 Tl 0.28202(5) 0.03427(5) 0.27143(4)
O11_4 O 0.5909(7) 0.3597(9) 0.4927(6)
O12_4 O 0.7627(7) 0.3109(9) 0.9346(6)
O13_4 O 0.8326(8) 0.4260(9) 0.9150(7)
C19_6 C 0.2451(10) 0.9649(11) 0.5980(9)
C23_6 C 0.3136(12) 0.9843(12) 0.5245(10)
H15_6 H 0.3442 0.9640 0.5039
C24_6 C 0.2875(10) 0.9312(11) 0.5644(9)
H16_6 H 0.2985 0.8760 0.5679
Tl4_4 Tl 0.22909(4) 0.23636(5) 0.12750(4)
O1_7 O 0.1473(8) 0.0686(8) 0.2573(6)
O2_7 O 0.1080(7) 0.2124(8) 0.1450(6)
C1_7 C 0.1279(9) 0.0153(11) 0.2941(9)
C2_7 C 0.1234(10) 0.0367(12) 0.3586(9)
H1_7 H 0.1310 0.0904 0.3741
C7_7 C 0.0422(10) 0.2527(10) 0.1062(8)
C8_7 C 0.0399(11) 0.3199(16) 0.0626(11)
H5_7 H 0.0851 0.3395 0.0631
O9_4 O 0.2800(8) 0.1907(7) 0.2675(6)
O10_4 O 0.2203(7) 0.0820(7) 0.1369(6)
S1_6 S 0.0874(3) 0.8198(3) 0.4290(2)
O6_6 O 0.1406(7) 0.7569(9) 0.4346(8)
C3_6 C 0.1082(10) 0.9797(10) 0.3973(9)
H2_6 H 0.1049 0.9946 0.4390
C4_6 C 0.0971(9) 0.8963(11) 0.3749(8)
C5_6 C 0.1010(10) 0.8743(13) 0.3120(10)
H3_6 H 0.0939 0.8204 0.2971
C6_6 C 0.1155(13) 0.9325(13) 0.2717(10)
H4_6 H 0.1172 0.9176 0.2293
H10_6 H 0.0249 0.6997 0.3269
O4_4 O 0.7203(7) 0.5820(7) 0.1369(6)
C9_7 C 0.9729(11) 0.3561(12) 0.0199(9)
C10_7 C 0.9055(9) 0.3286(11) 0.0195(8)
C11_7 C 0.9062(10) 0.2635(12) 0.0611(9)
H7_7 H 0.8605 0.2443 0.0598
C12_7 C 0.9729(11) 0.2269(13) 0.1043(10)
H8_7 H 0.9722 0.1838 0.1330
C19_7 C 0.7451(10) 0.5351(11) 0.0980(9)
C20_7 C 0.7241(11) 0.4551(12) 0.0887(10)
H13_7 H 0.6917 0.4343 0.1071
C21_7 C 0.7527(10) 0.4039(12) 0.0503(9)
H14_7 H 0.7433 0.3483 0.0482
C22_7 C 0.7935(10) 0.4352(12) 0.0168(8)
C23_7 C 0.8136(12) 0.5157(12) 0.0245(10)
H15_7 H 0.8442 0.5360 0.0039
C24_7 C 0.7875(10) 0.5688(11) 0.0644(9)
H16_7 H 0.7985 0.6240 0.0679
Tl13_2 Tl 0.72909(4) 0.73636(5) 0.12750(4)
S2_7 S 0.8191(3) 0.3740(3) 0.9632(2)
H6_7 H 0.9724 0.3994 0.9909
O3_4 O 0.7800(8) 0.6907(7) 0.2675(6)
C13_7 C 0.8490(10) 0.7185(10) 0.3066(8)
C14_7 C 0.9115(11) 0.6888(12) 0.2959(9)
H9_7 H 0.9039 0.6479 0.2626
C15_7 C 0.9841(10) 0.7200(13) 0.3342(9)
C16_7 C 0.9956(11) 0.7813(10) 0.3833(8)
C17_7 C 0.9358(10) 0.8115(11) 0.3939(9)
H11_7 H 0.9443 0.8529 0.4270
C18_7 C 0.8615(9) 0.7813(11) 0.3559(9)
H12_7 H 0.8212 0.8027 0.3634
C19_8 C 0.2451(10) 0.0351(11) 0.0980(9)
C23_8 C 0.3136(12) 0.0157(12) 0.0245(10)
H15_8 H 0.3442 0.0360 0.0039
C24_8 C 0.2875(10) 0.0688(11) 0.0644(9)
H16_8 H 0.2985 0.1240 0.0679
S1_7 S 0.5874(3) 0.3198(3) 0.4290(2)
O1_8 O 0.6473(8) 0.5686(8) 0.2573(6)
O2_8 O 0.6080(7) 0.7124(8) 0.1450(6)
O6_7 O 0.6406(7) 0.2569(9) 0.4346(8)
C1_8 C 0.6279(9) 0.5153(11) 0.2941(9)
C2_8 C 0.6234(10) 0.5367(12) 0.3586(9)
H1_8 H 0.6310 0.5904 0.3741
C3_7 C 0.6082(10) 0.4797(10) 0.3973(9)
H2_7 H 0.6049 0.4946 0.4390
C4_7 C 0.5971(9) 0.3963(11) 0.3749(8)
C5_7 C 0.6010(10) 0.3743(13) 0.3120(10)
H3_7 H 0.5939 0.3204 0.2971
C6_7 C 0.6155(13) 0.4325(13) 0.2717(10)
H4_7 H 0.6172 0.4176 0.2293
C7_8 C 0.5422(10) 0.7527(10) 0.1062(8)
C8_8 C 0.5399(11) 0.8199(16) 0.0626(11)
H5_8 H 0.5851 0.8395 0.0631
C9_8 C 0.4729(11) 0.8561(12) 0.0199(9)
C10_8 C 0.4055(9) 0.8286(11) 0.0195(8)
C11_8 C 0.4062(10) 0.7635(12) 0.0611(9)
H7_8 H 0.3605 0.7443 0.0598
C12_8 C 0.4729(11) 0.7269(13) 0.1043(10)
H8_8 H 0.4722 0.6838 0.1330
C13_8 C 0.3490(10) 0.2185(10) 0.3066(8)
C14_8 C 0.4115(11) 0.1888(12) 0.2959(9)
H9_8 H 0.4039 0.1479 0.2626
C15_8 C 0.4841(10) 0.2200(13) 0.3342(9)
H10_7 H 0.5249 0.1997 0.3269
C16_8 C 0.4956(11) 0.2813(10) 0.3833(8)
C17_8 C 0.4358(10) 0.3115(11) 0.3939(9)
H11_8 H 0.4443 0.3529 0.4270
C18_8 C 0.3615(9) 0.2813(11) 0.3559(9)
H12_8 H 0.3212 0.3027 0.3634
C20_8 C 0.2241(11) 0.9551(12) 0.0887(10)
H13_8 H 0.1917 0.9343 0.1071
C21_8 C 0.2527(10) 0.9039(12) 0.0503(9)
H14_8 H 0.2433 0.8483 0.0482
C22_8 C 0.2935(10) 0.9352(12) 0.0168(8)
S2_8 S 0.3191(3) 0.8740(3) 0.9632(2)
H6_8 H 0.4724 0.8994 0.9909
S1_8 S 0.0874(3) 0.1802(3) 0.9290(2)
O5_4 O 0.0909(7) 0.1403(9) 0.9927(6)
O6_8 O 0.1406(7) 0.2431(9) 0.9346(8)
C3_8 C 0.1082(10) 0.0203(10) 0.8973(9)
H2_8 H 0.1049 0.0054 0.9390
C4_8 C 0.0971(9) 0.1037(11) 0.8749(8)
C5_8 C 0.1010(10) 0.1257(13) 0.8120(10)
H3_8 H 0.0939 0.1796 0.7971
C6_8 C 0.1155(13) 0.0675(13) 0.7717(10)
H4_8 H 0.1172 0.0824 0.7293
H10_8 H 0.0249 0.3003 0.8269
loop_
_geom_bond_atom_site_label_1
_geom_bond_atom_site_label_2
_geom_bond_site_symmetry_1
_geom_bond_site_symmetry_2
O3 C13 1_555 1_555
C13 C14 1_555 1_555
C14 H9 1_555 1_555
C15 C14 1_555 1_555
C17 C16 1_555 1_555
H11 C17 1_555 1_555
C18 C13 1_555 1_555
H12 C18 1_555 1_555
Tl5 O3 1_555 1_555
Tl9 O3 1_555 1_555
Tl12 O3 1_555 1_555
C15 C16 1_555 1_555
C17 C18 1_555 1_555
S2 O7 1_555 1_555
O7 Tl6 1_555 1_555
O8 S2 1_555 1_555
Tl11 O8 1_555 1_555
O4 C19 1_555 1_555
C11 C10 1_555 1_555
H7 C11 1_555 1_555
H8 C12 1_555 1_555
C19 C20 1_555 1_555
C20 H13 1_555 1_555
C21 C20 1_555 1_555
H14 C21 1_555 1_555
C23 C22 1_555 1_555
H15 C23 1_555 1_555
C24 C19 1_555 1_555
H16 C24 1_555 1_555
Tl7 O4 1_555 1_555
Tl9 O4 1_555 1_555
Tl12 O4 1_555 1_555
C9 C10 1_555 1_555
C11 C12 1_555 1_555
C21 C22 1_555 1_555
C23 C24 1_555 1_555
S1 O5 1_555 1_555
O5 Tl8 1_555 1_555
O6 S1 1_555 1_555
H2 C3 1_555 1_555
C4 S1 1_555 1_555
C5 C4 1_555 1_555
H3 C5 1_555 1_555
H4 C6 1_555 1_555
C3 C4 1_555 1_555
C5 C6 1_555 1_555
Tl1 O1 1_555 1_555
Tl2 O1 1_555 1_555
Tl3 O1 1_555 1_555
Tl4 O2 1_555 1_555
O1 C1 1_555 1_555
O2 Tl1 1_555 1_555
C1 C2 1_555 1_555
C2 H1 1_555 1_555
C7 O2 1_555 1_555
C8 C7 1_555 1_555
H5 C8 1_555 1_555
O9 Tl1 1_555 1_555
O10 Tl2 1_555 1_555
O12 Tl1 1_555 1_555
O13 Tl3 1_555 1_555
Tl2 O2 1_555 1_555
Tl3 O9 1_555 1_555
Tl3 O10 1_555 1_555
Tl4 O9 1_555 1_555
Tl4 O10 1_555 1_555
S2_2 O7_2 1_555 1_555
O7_2 Tl6_2 1_555 1_555
O8_2 S2_2 1_555 1_555
Tl11_2 O8_2 1_555 1_555
Tl5 O1_2 1_555 1_555
Tl7 O1_2 1_555 1_555
Tl9 O1_2 1_555 1_555
Tl12 O2_2 1_555 1_555
S1_2 O5_2 1_555 1_555
O1_2 C1_2 1_555 1_555
O2_2 Tl5 1_555 1_555
O9 C13_2 1_555 1_555
O5_2 Tl8_2 1_555 1_555
O6_2 S1_2 1_555 1_555
C1_2 C2_2 1_555 1_555
C2_2 H1_2 1_555 1_555
C3_2 C2_2 1_555 1_555
H2_2 C3_2 1_555 1_555
C4_2 S1_2 1_555 1_555
C5_2 C4_2 1_555 1_555
H3_2 C5_2 1_555 1_555
C6_2 C1_2 1_555 1_555
H4_2 C6_2 1_555 1_555
C7_2 O2_2 1_555 1_555
C8_2 C7_2 1_555 1_555
H5_2 C8_2 1_555 1_555
C9_2 C8_2 1_555 1_555
C11_2 C10_2 1_555 1_555
H7_2 C11_2 1_555 1_555
C12_2 C7_2 1_555 1_555
H8_2 C12_2 1_555 1_555
C13_2 C14_2 1_555 1_555
C14_2 H9_2 1_555 1_555
C15_2 C14_2 1_555 1_555
H10_2 C15_2 1_555 1_555
C16_2 S1_2 1_555 1_555
C17_2 C16_2 1_555 1_555
H11_2 C17_2 1_555 1_555
C18_2 C13_2 1_555 1_555
H12_2 C18_2 1_555 1_555
C20_2 H13_2 1_555 1_555
C21_2 C20_2 1_555 1_555
H14_2 C21_2 1_555 1_555
O12_2 Tl5 1_555 1_555
O13_2 Tl9 1_555 1_555
Tl7 O2_2 1_555 1_555
C3_2 C4_2 1_555 1_555
C5_2 C6_2 1_555 1_555
C9_2 C10_2 1_555 1_555
C11_2 C12_2 1_555 1_555
C15_2 C16_2 1_555 1_555
C17_2 C18_2 1_555 1_555
C21_2 C22_2 1_555 1_555
O10 C19_2 1_555 1_555
H15_2 C23_2 1_555 1_555
C24_2 C19_2 1_555 1_555
H16_2 C24_2 1_555 1_555
C23_2 C24_2 1_555 1_555
S2_3 O12_2 1_555 1_555
O4_2 C19_3 1_555 1_555
O13_2 S2_3 1_555 1_555
H6_3 C9_3 1_555 1_555
C10_3 S2_3 1_555 1_555
C11_3 C10_3 1_555 1_555
H7_3 C11_3 1_555 1_555
H8_3 C12_3 1_555 1_555
C19_3 C20_3 1_555 1_555
C20_3 H13_3 1_555 1_555
C21_3 C20_3 1_555 1_555
H14_3 C21_3 1_555 1_555
C22_3 S2_3 1_555 1_555
C23_3 C22_3 1_555 1_555
H15_3 C23_3 1_555 1_555
C24_3 C19_3 1_555 1_555
H16_3 C24_3 1_555 1_555
Tl8_2 O4_2 1_555 1_555
Tl11 O4_2 1_555 1_555
Tl13 O4_2 1_555 1_555
C9_3 C10_3 1_555 1_555
C11_3 C12_3 1_555 1_555
C21_3 C22_3 1_555 1_555
C23_3 C24_3 1_555 1_555
O3_2 C13_3 1_555 1_555
C13_3 C14_3 1_555 1_555
C14_3 H9_3 1_555 1_555
C15_3 C14_3 1_555 1_555
C17_3 C16_3 1_555 1_555
H11_3 C17_3 1_555 1_555
C18_3 C13_3 1_555 1_555
H12_3 C18_3 1_555 1_555
Tl6 O3_2 1_555 1_555
Tl11 O3_2 1_555 1_555
Tl13 O3_2 1_555 1_555
C15_3 C16_3 1_555 1_555
C17_3 C18_3 1_555 1_555
Tl6_2 O1_3 1_555 1_555
Tl8 O1_3 1_555 1_555
Tl11_2 O1_3 1_555 1_555
Tl4_2 O2_3 1_555 1_555
O1_3 C1_3 1_555 1_555
O2_3 Tl6_2 1_555 1_555
C1_3 C2_3 1_555 1_555
C2_3 H1_3 1_555 1_555
C7_3 O2_3 1_555 1_555
C8_3 C7_3 1_555 1_555
H5_3 C8_3 1_555 1_555
O9_2 Tl6_2 1_555 1_555
O10_2 Tl8 1_555 1_555
Tl8 O2_3 1_555 1_555
Tl11_2 O9_2 1_555 1_555
Tl11_2 O10_2 1_555 1_555
Tl4_2 O9_2 1_555 1_555
Tl4_2 O10_2 1_555 1_555
O10_2 C19_4 1_555 1_555
H15_4 C23_4 1_555 1_555
C24_4 C19_4 1_555 1_555
H16_4 C24_4 1_555 1_555
C23_4 C24_4 1_555 1_555
Tl6 O1_4 1_555 1_555
Tl8_2 O1_4 1_555 1_555
Tl11 O1_4 1_555 1_555
Tl13 O2_4 1_555 1_555
S1_3 O11 1_555 1_555
S2_4 O12 1_555 1_555
O1_4 C1_4 1_555 1_555
O2_4 Tl6 1_555 1_555
O9_2 C13_4 1_555 1_555
O6_3 S1_3 1_555 1_555
O13 S2_4 1_555 1_555
C1_4 C2_4 1_555 1_555
C2_4 H1_4 1_555 1_555
C3_3 C2_4 1_555 1_555
H2_3 C3_3 1_555 1_555
C4_3 S1_3 1_555 1_555
C5_3 C4_3 1_555 1_555
H3_3 C5_3 1_555 1_555
C6_3 C1_4 1_555 1_555
H4_3 C6_3 1_555 1_555
C7_4 O2_4 1_555 1_555
C8_4 C7_4 1_555 1_555
H5_4 C8_4 1_555 1_555
C9_4 C8_4 1_555 1_555
H6_4 C9_4 1_555 1_555
C10_4 S2_4 1_555 1_555
C11_4 C10_4 1_555 1_555
H7_4 C11_4 1_555 1_555
C12_4 C7_4 1_555 1_555
H8_4 C12_4 1_555 1_555
C13_4 C14_4 1_555 1_555
C14_4 H9_4 1_555 1_555
C15_4 C14_4 1_555 1_555
H10_3 C15_4 1_555 1_555
C16_4 S1_3 1_555 1_555
C17_4 C16_4 1_555 1_555
H11_4 C17_4 1_555 1_555
C18_4 C13_4 1_555 1_555
H12_4 C18_4 1_555 1_555
C20_4 H13_4 1_555 1_555
C21_4 C20_4 1_555 1_555
H14_4 C21_4 1_555 1_555
C22_4 S2_4 1_555 1_555
Tl8_2 O2_4 1_555 1_555
C3_3 C4_3 1_555 1_555
C5_3 C6_3 1_555 1_555
C9_4 C10_4 1_555 1_555
C11_4 C12_4 1_555 1_555
C15_4 C16_4 1_555 1_555
C17_4 C18_4 1_555 1_555
C21_4 C22_4 1_555 1_555
S1_4 O11_2 1_555 1_555
O6_4 S1_4 1_555 1_555
H2_4 C3_4 1_555 1_555
C4_4 S1_4 1_555 1_555
C5_4 C4_4 1_555 1_555
H3_4 C5_4 1_555 1_555
H4_4 C6_4 1_555 1_555
C3_4 C4_4 1_555 1_555
C5_4 C6_4 1_555 1_555
Tl1_2 O1_5 1_555 1_555
Tl2_2 O1_5 1_555 1_555
Tl3_2 O1_5 1_555 1_555
Tl4_3 O2_5 1_555 1_555
O1_5 C1_5 1_555 1_555
O2_5 Tl1_2 1_555 1_555
C1_5 C2_5 1_555 1_555
C2_5 H1_5 1_555 1_555
C7_5 O2_5 1_555 1_555
C8_5 C7_5 1_555 1_555
H5_5 C8_5 1_555 1_555
O9_3 Tl1_2 1_555 1_555
O10_3 Tl2_2 1_555 1_555
O11_3 Tl2_2 1_555 1_555
O12_3 Tl1_2 1_555 1_555
O13_3 Tl3_2 1_555 1_555
Tl2_2 O2_5 1_555 1_555
Tl3_2 O9_3 1_555 1_555
Tl3_2 O10_3 1_555 1_555
Tl4_3 O9_3 1_555 1_555
Tl4_3 O10_3 1_555 1_555
O3_3 C13_5 1_555 1_555
C13_5 C14_5 1_555 1_555
C14_5 H9_5 1_555 1_555
C15_5 C14_5 1_555 1_555
C17_5 C16_5 1_555 1_555
H11_5 C17_5 1_555 1_555
C18_5 C13_5 1_555 1_555
H12_5 C18_5 1_555 1_555
Tl5_2 O3_3 1_555 1_555
Tl9_2 O3_3 1_555 1_555
Tl12_2 O3_3 1_555 1_555
C15_5 C16_5 1_555 1_555
C17_5 C18_5 1_555 1_555
S2_5 O7_3 1_555 1_555
O4_3 C19_5 1_555 1_555
O7_3 Tl6_3 1_555 1_555
O8_3 S2_5 1_555 1_555
H6_5 C9_5 1_555 1_555
C10_5 S2_5 1_555 1_555
C11_5 C10_5 1_555 1_555
H7_5 C11_5 1_555 1_555
H8_5 C12_5 1_555 1_555
C19_5 C20_5 1_555 1_555
C20_5 H13_5 1_555 1_555
C21_5 C20_5 1_555 1_555
H14_5 C21_5 1_555 1_555
C22_5 S2_5 1_555 1_555
C23_5 C22_5 1_555 1_555
H15_5 C23_5 1_555 1_555
C24_5 C19_5 1_555 1_555
H16_5 C24_5 1_555 1_555
Tl7_2 O4_3 1_555 1_555
Tl9_2 O4_3 1_555 1_555
Tl11_3 O8_3 1_555 1_555
Tl12_2 O4_3 1_555 1_555
C9_5 C10_5 1_555 1_555
C11_5 C12_5 1_555 1_555
C21_5 C22_5 1_555 1_555
C23_5 C24_5 1_555 1_555
Tl5_2 O1_6 1_555 1_555
Tl7_2 O1_6 1_555 1_555
Tl9_2 O1_6 1_555 1_555
Tl12_2 O2_6 1_555 1_555
S1_5 O5_3 1_555 1_555
S2_6 O7_4 1_555 1_555
O1_6 C1_6 1_555 1_555
O2_6 Tl5_2 1_555 1_555
O9_3 C13_6 1_555 1_555
O6_5 S1_5 1_555 1_555
O7_4 Tl6_4 1_555 1_555
O8_4 S2_6 1_555 1_555
C1_6 C2_6 1_555 1_555
C2_6 H1_6 1_555 1_555
C3_5 C2_6 1_555 1_555
H2_5 C3_5 1_555 1_555
C4_5 S1_5 1_555 1_555
C5_5 C4_5 1_555 1_555
H3_5 C5_5 1_555 1_555
C6_5 C1_6 1_555 1_555
H4_5 C6_5 1_555 1_555
C7_6 O2_6 1_555 1_555
C8_6 C7_6 1_555 1_555
H5_6 C8_6 1_555 1_555
C9_6 C8_6 1_555 1_555
H6_6 C9_6 1_555 1_555
C10_6 S2_6 1_555 1_555
C11_6 C10_6 1_555 1_555
H7_6 C11_6 1_555 1_555
C12_6 C7_6 1_555 1_555
H8_6 C12_6 1_555 1_555
C13_6 C14_6 1_555 1_555
C14_6 H9_6 1_555 1_555
C15_6 C14_6 1_555 1_555
H10_5 C15_6 1_555 1_555
C16_6 S1_5 1_555 1_555
C17_6 C16_6 1_555 1_555
H11_6 C17_6 1_555 1_555
C18_6 C13_6 1_555 1_555
H12_6 C18_6 1_555 1_555
C20_6 H13_6 1_555 1_555
C21_6 C20_6 1_555 1_555
H14_6 C21_6 1_555 1_555
C22_6 S2_6 1_555 1_555
Tl11_4 O8_4 1_555 1_555
O11_4 Tl7_2 1_555 1_555
O12_4 Tl5_2 1_555 1_555
O13_4 Tl9_2 1_555 1_555
Tl7_2 O2_6 1_555 1_555
C3_5 C4_5 1_555 1_555
C5_5 C6_5 1_555 1_555
C9_6 C10_6 1_555 1_555
C11_6 C12_6 1_555 1_555
C15_6 C16_6 1_555 1_555
C17_6 C18_6 1_555 1_555
C21_6 C22_6 1_555 1_555
O10_3 C19_6 1_555 1_555
H15_6 C23_6 1_555 1_555
C24_6 C19_6 1_555 1_555
H16_6 C24_6 1_555 1_555
C23_6 C24_6 1_555 1_555
Tl6_4 O1_7 1_555 1_555
Tl8_3 O1_7 1_555 1_555
Tl11_4 O1_7 1_555 1_555
Tl4_4 O2_7 1_555 1_555
O1_7 C1_7 1_555 1_555
O2_7 Tl6_4 1_555 1_555
C1_7 C2_7 1_555 1_555
C2_7 H1_7 1_555 1_555
C7_7 O2_7 1_555 1_555
C8_7 C7_7 1_555 1_555
H5_7 C8_7 1_555 1_555
O9_4 Tl6_4 1_555 1_555
O10_4 Tl8_3 1_555 1_555
Tl8_3 O2_7 1_555 1_555
Tl11_4 O9_4 1_555 1_555
Tl11_4 O10_4 1_555 1_555
Tl4_4 O9_4 1_555 1_555
Tl4_4 O10_4 1_555 1_555
S1_6 O11_3 1_555 1_555
O6_6 S1_6 1_555 1_555
H2_6 C3_6 1_555 1_555
C4_6 S1_6 1_555 1_555
C5_6 C4_6 1_555 1_555
H3_6 C5_6 1_555 1_555
H4_6 C6_6 1_555 1_555
C3_6 C4_6 1_555 1_555
C5_6 C6_6 1_555 1_555
O4_4 C19_7 1_555 1_555
C11_7 C10_7 1_555 1_555
H7_7 C11_7 1_555 1_555
H8_7 C12_7 1_555 1_555
C19_7 C20_7 1_555 1_555
C20_7 H13_7 1_555 1_555
C21_7 C20_7 1_555 1_555
H14_7 C21_7 1_555 1_555
C23_7 C22_7 1_555 1_555
H15_7 C23_7 1_555 1_555
C24_7 C19_7 1_555 1_555
H16_7 C24_7 1_555 1_555
Tl8_4 O4_4 1_555 1_555
Tl11_3 O4_4 1_555 1_555
Tl13_2 O4_4 1_555 1_555
C9_7 C10_7 1_555 1_555
C11_7 C12_7 1_555 1_555
C21_7 C22_7 1_555 1_555
C23_7 C24_7 1_555 1_555
S2_7 O12_4 1_555 1_555
O13_4 S2_7 1_555 1_555
O3_4 C13_7 1_555 1_555
C13_7 C14_7 1_555 1_555
C14_7 H9_7 1_555 1_555
C15_7 C14_7 1_555 1_555
C17_7 C16_7 1_555 1_555
H11_7 C17_7 1_555 1_555
C18_7 C13_7 1_555 1_555
H12_7 C18_7 1_555 1_555
Tl6_3 O3_4 1_555 1_555
Tl11_3 O3_4 1_555 1_555
Tl13_2 O3_4 1_555 1_555
C15_7 C16_7 1_555 1_555
C17_7 C18_7 1_555 1_555
O10_4 C19_8 1_555 1_555
H15_8 C23_8 1_555 1_555
C24_8 C19_8 1_555 1_555
H16_8 C24_8 1_555 1_555
C23_8 C24_8 1_555 1_555
Tl6_3 O1_8 1_555 1_555
Tl8_4 O1_8 1_555 1_555
Tl11_3 O1_8 1_555 1_555
Tl13_2 O2_8 1_555 1_555
S1_7 O11_4 1_555 1_555
O1_8 C1_8 1_555 1_555
O2_8 Tl6_3 1_555 1_555
O9_4 C13_8 1_555 1_555
O6_7 S1_7 1_555 1_555
C1_8 C2_8 1_555 1_555
C2_8 H1_8 1_555 1_555
C3_7 C2_8 1_555 1_555
H2_7 C3_7 1_555 1_555
C4_7 S1_7 1_555 1_555
C5_7 C4_7 1_555 1_555
H3_7 C5_7 1_555 1_555
C6_7 C1_8 1_555 1_555
H4_7 C6_7 1_555 1_555
C7_8 O2_8 1_555 1_555
C8_8 C7_8 1_555 1_555
H5_8 C8_8 1_555 1_555
C9_8 C8_8 1_555 1_555
C11_8 C10_8 1_555 1_555
H7_8 C11_8 1_555 1_555
C12_8 C7_8 1_555 1_555
H8_8 C12_8 1_555 1_555
C13_8 C14_8 1_555 1_555
C14_8 H9_8 1_555 1_555
C15_8 C14_8 1_555 1_555
H10_7 C15_8 1_555 1_555
C16_8 S1_7 1_555 1_555
C17_8 C16_8 1_555 1_555
H11_8 C17_8 1_555 1_555
C18_8 C13_8 1_555 1_555
H12_8 C18_8 1_555 1_555
C20_8 H13_8 1_555 1_555
C21_8 C20_8 1_555 1_555
H14_8 C21_8 1_555 1_555
Tl8_4 O2_8 1_555 1_555
C3_7 C4_7 1_555 1_555
C5_7 C6_7 1_555 1_555
C9_8 C10_8 1_555 1_555
C11_8 C12_8 1_555 1_555
C15_8 C16_8 1_555 1_555
C17_8 C18_8 1_555 1_555
C21_8 C22_8 1_555 1_555
S2_8 O12_3 1_555 1_555
O13_3 S2_8 1_555 1_555
S1_8 O5_4 1_555 1_555
O6_8 S1_8 1_555 1_555
H2_8 C3_8 1_555 1_555
C4_8 S1_8 1_555 1_555
C5_8 C4_8 1_555 1_555
H3_8 C5_8 1_555 1_555
H4_8 C6_8 1_555 1_555
C3_8 C4_8 1_555 1_555
C5_8 C6_8 1_555 1_555

#END
