
###############################################################################
#
# This file contains modified crystal structure data generated from the
# MOF subset of the Cambridge Structural Database (CSD) v543 
# hosted by the Cambridge Crystallographic Data Centre (CCDC).
#
# This work is licensed under the Creative Commons
# Attribution-NonCommercial-ShareAlike 4.0 International License.
# To view a copy of this license, visit
# http://creativecommons.org/licenses/by-nc-sa/4.0/
# or send a letter to
# Creative Commons, PO Box 1866, Mountain View, CA 94042, USA.
#
# CIF created using the CSD Python API on 29 September 2022
# The structure has been converted into the P1 space group
# The structure has a 3D framework
# The original CSD entry REDROI is in the monoclinic crystal system
# The framework has been calculated to contain at least 10.0% void space
# The void calculation uses a probe of radius 1.32A, grid spacing 0.4
# H atom positions have been added when not included in the experimental data
# Generated hydrogen atom positions removed from atoms on special positions
#
###############################################################################

data_REDROI
_chemical_formula_moiety         '(C48 H44 O32 Zn16)n'
_symmetry_cell_setting           triclinic
_symmetry_space_group_name_H-M   'P 1'
_symmetry_Int_Tables_number      1
_space_group_name_Hall           'P 1'
loop_
_symmetry_equiv_pos_site_id
_symmetry_equiv_pos_as_xyz
1 x,y,z
_cell_length_a                   6.405(1)
_cell_length_b                   14.164(3)
_cell_length_c                   20.098(4)
_cell_angle_alpha                90
_cell_angle_beta                 95.290(10)
_cell_angle_gamma                90
_cell_volume                     1815.53
loop_
_atom_site_label
_atom_site_type_symbol
_atom_site_fract_x
_atom_site_fract_y
_atom_site_fract_z
O21 O 0.1270(4) 0.30430(17) 0.98029(15)
O28 O 0.1736(4) 0.08358(17) 0.93357(13)
H17 H 0.778(6) 0.131(3) 0.028(2)
Zn1 Zn 0.0000 0.5000 0.5000
O8 O 0.1736(4) 0.41642(17) 0.43357(13)
Zn4 Zn 0.98554(6) 0.19286(3) 0.94185(2)
Zn7 Zn 0.01446(6) 0.69286(3) 0.55815(2)
Zn8 Zn 0.51452(6) 0.60197(3) 0.543920(18)
Zn12 Zn 0.48548(6) 0.39803(3) 0.456080(18)
Zn14 Zn 0.48548(6) 0.10197(3) 0.956080(18)
O9 O 0.4669(3) 0.45254(15) 0.56158(10)
O11 O 0.5331(3) 0.54746(15) 0.43842(10)
O12 O 0.1368(4) 0.42324(17) 0.58341(11)
O13 O 0.8244(4) 0.24054(19) 0.86211(13)
O14 O 0.5329(4) 0.1514(2) 0.86132(13)
O16 O 0.4671(4) 0.6514(2) 0.63868(13)
O19 O 0.5502(4) 0.74200(17) 0.50782(15)
O22 O 0.2063(3) 0.61687(15) 0.50818(12)
O24 O 0.7937(3) 0.11687(15) 0.99182(12)
O29 O 0.8264(4) 0.58358(17) 0.56643(13)
C13 C 0.3312(5) 0.4147(2) 0.59601(15)
C14 C 0.4117(5) 0.3575(3) 0.65595(17)
C15 C 0.2771(6) 0.3022(3) 0.69090(19)
H9 H 0.1362 0.2974 0.6753
C16 C 0.3525(6) 0.2538(3) 0.7490(2)
H10 H 0.2623 0.2164 0.7714
C17 C 0.5636(6) 0.2617(3) 0.77339(19)
C18 C 0.6969(6) 0.3168(3) 0.7386(2)
H11 H 0.8371 0.3230 0.7548
C19 C 0.6225(6) 0.3627(3) 0.6800(2)
H12 H 0.7148 0.3973 0.6565
C20 C 0.6445(6) 0.2141(3) 0.83757(18)
H15 H 0.222(6) 0.631(3) 0.472(2)
Zn1_2 Zn 1.0000 0.5000 0.5000
Zn2 Zn 0.01446(6) 0.80714(3) 0.05815(2)
O2 O 0.8632(4) 0.57676(17) 0.41659(11)
O3 O 0.1756(4) 0.75946(19) 0.13789(13)
O4 O 0.4671(4) 0.8486(2) 0.13868(13)
O7 O 0.7937(3) 0.38313(15) 0.49182(12)
C1 C 0.6688(5) 0.5853(2) 0.40399(15)
C2 C 0.5883(5) 0.6425(3) 0.34405(17)
C3 C 0.7229(6) 0.6978(3) 0.30910(19)
H1 H 0.8638 0.7026 0.3247
C4 C 0.6475(6) 0.7462(3) 0.2510(2)
H2 H 0.7377 0.7836 0.2286
C5 C 0.4364(6) 0.7383(3) 0.22661(19)
C6 C 0.3031(6) 0.6832(3) 0.2614(2)
H3 H 0.1629 0.6770 0.2452
C7 C 0.3775(6) 0.6373(3) 0.3200(2)
H4 H 0.2852 0.6027 0.3435
C8 C 0.3555(6) 0.7859(3) 0.16243(18)
H7 H 0.778(6) 0.369(3) 0.528(2)
Zn5 Zn 0.98554(6) 0.30714(3) 0.44185(2)
Zn10 Zn 0.51452(6) 0.89803(3) 0.043920(18)
O15 O 0.5329(4) 0.3486(2) 0.36132(13)
O18 O 0.4498(4) 0.25800(17) 0.49218(15)
O23 O 0.2063(3) 0.88313(15) 0.00818(12)
H16 H 0.222(6) 0.869(3) 0.972(2)
O5 O 0.5502(4) 0.75800(17) 0.00782(15)
O6 O 0.8730(4) 0.69570(17) 0.01971(15)
C9 C 0.6741(6) 0.6902(2) 0.01067(18)
C10 C 0.5821(6) 0.5919(2) 0.00410(18)
C11 C 0.3738(6) 0.5755(3) 0.0159(2)
H5 H 0.2887 0.6255 0.0264
O26 O 0.8264(4) 0.91642(17) 0.06643(13)
C24 C 0.2940(6) 0.4840(3) 0.0118(2)
H14 H 0.1553 0.4735 0.0199
C12 C 0.7060(6) 0.5160(3) 0.9882(2)
H6 H 0.8447 0.5265 0.9801
O17 O 0.4498(4) 0.24200(17) 0.99218(15)
C21 C 0.3259(6) 0.3098(2) 0.98933(18)
C22 C 0.4179(6) 0.4081(2) 0.99590(18)
C23 C 0.6262(6) 0.4245(3) 0.9841(2)
H13 H 0.7113 0.3745 0.9736
O6_2 O 0.1270(4) 0.19570(17) 0.48029(15)
C9_2 C 0.3259(6) 0.1902(2) 0.48933(18)
C10_2 C 0.4179(6) 0.0919(2) 0.49590(18)
C11_2 C 0.6262(6) 0.0755(3) 0.4841(2)
H5_2 H 0.7113 0.1255 0.4736
C12_2 C 0.2940(6) 0.0160(3) 0.5118(2)
H6_2 H 0.1553 0.0265 0.5199
O20 O 0.8730(4) 0.80430(17) 0.51971(15)
C21_2 C 0.6741(6) 0.8098(2) 0.51067(18)
C22_2 C 0.5821(6) 0.9081(2) 0.50410(18)
C23_2 C 0.3738(6) 0.9245(3) 0.5159(2)
H13_2 H 0.2887 0.8745 0.5264
C24_2 C 0.7060(6) 0.9840(3) 0.4882(2)
H14_2 H 0.8447 0.9735 0.4801
Zn1_3 Zn -0.0000 0.0000 0.0000
O1 O 0.4669(3) 0.04746(15) 0.06158(10)
O2_2 O 0.1368(4) 0.07676(17) 0.08341(11)
O3_2 O 0.8244(4) 0.25946(19) 0.36211(13)
C1_2 C 0.3312(5) 0.0853(2) 0.09601(15)
C2_2 C 0.4117(5) 0.1425(3) 0.15595(17)
C3_2 C 0.2771(6) 0.1978(3) 0.19090(19)
H1_2 H 0.1362 0.2026 0.1753
C4_2 C 0.3525(6) 0.2462(3) 0.2490(2)
H2_2 H 0.2623 0.2836 0.2714
C5_2 C 0.5636(6) 0.2383(3) 0.27339(19)
C6_2 C 0.6969(6) 0.1832(3) 0.2386(2)
H3_2 H 0.8371 0.1770 0.2548
C7_2 C 0.6225(6) 0.1373(3) 0.1800(2)
H4_2 H 0.7148 0.1027 0.1565
C8_2 C 0.6445(6) 0.2859(3) 0.33757(18)
Zn1_4 Zn 0.0000 0.0000 1.0000
Zn1_5 Zn -0.0000 1.0000 0.0000
Zn1_6 Zn 0.0000 1.0000 1.0000
O10 O 0.5331(3) 0.95254(15) 0.93842(10)
Zn1_7 Zn 1.0000 0.0000 0.0000
Zn1_8 Zn 1.0000 0.0000 1.0000
Zn1_9 Zn 1.0000 1.0000 0.0000
Zn1_10 Zn 1.0000 1.0000 1.0000
O12_2 O 0.8632(4) 0.92324(17) 0.91659(11)
O13_2 O 0.1756(4) 0.74054(19) 0.63789(13)
C13_2 C 0.6688(5) 0.9147(2) 0.90399(15)
C14_2 C 0.5883(5) 0.8575(3) 0.84405(17)
C15_2 C 0.7229(6) 0.8022(3) 0.80910(19)
H9_2 H 0.8638 0.7974 0.8247
C16_2 C 0.6475(6) 0.7538(3) 0.7510(2)
H10_2 H 0.7377 0.7164 0.7286
C17_2 C 0.4364(6) 0.7617(3) 0.72661(19)
C18_2 C 0.3031(6) 0.8168(3) 0.7614(2)
H11_2 H 0.1629 0.8230 0.7452
C19_2 C 0.3775(6) 0.8627(3) 0.8200(2)
H12_2 H 0.2852 0.8973 0.8435
C20_2 C 0.3555(6) 0.7141(3) 0.66243(18)
loop_
_geom_bond_atom_site_label_1
_geom_bond_atom_site_label_2
_geom_bond_site_symmetry_1
_geom_bond_site_symmetry_2
O8 Zn1 1_555 1_555
Zn4 O13 1_555 1_555
Zn7 O22 1_555 1_555
Zn8 O9 1_555 1_555
Zn12 O8 1_555 1_555
Zn14 O14 1_555 1_555
O9 Zn12 1_555 1_555
O11 Zn8 1_555 1_555
O12 Zn1 1_555 1_555
O13 C20 1_555 1_555
O14 C20 1_555 1_555
O16 Zn8 1_555 1_555
O19 Zn8 1_555 1_555
O22 Zn1 1_555 1_555
O24 Zn4 1_555 1_555
O29 Zn8 1_555 1_555
C13 O9 1_555 1_555
C14 C13 1_555 1_555
C15 C14 1_555 1_555
H9 C15 1_555 1_555
C16 C15 1_555 1_555
H10 C16 1_555 1_555
C17 C16 1_555 1_555
C18 C17 1_555 1_555
H11 C18 1_555 1_555
C19 C14 1_555 1_555
H12 C19 1_555 1_555
C20 C17 1_555 1_555
H15 O22 1_555 1_555
Zn8 O22 1_555 1_555
Zn12 O11 1_555 1_555
Zn14 O24 1_555 1_555
O12 C13 1_555 1_555
C18 C19 1_555 1_555
Zn1_2 O2 1_555 1_555
Zn2 O3 1_555 1_555
O11 C1 1_555 1_555
O2 C1 1_555 1_555
O3 C8 1_555 1_555
O4 C8 1_555 1_555
O7 Zn1_2 1_555 1_555
C1 C2 1_555 1_555
C2 C3 1_555 1_555
C3 H1 1_555 1_555
C4 C3 1_555 1_555
H2 C4 1_555 1_555
C5 C4 1_555 1_555
C6 C5 1_555 1_555
H3 C6 1_555 1_555
C7 C2 1_555 1_555
H4 C7 1_555 1_555
C8 C5 1_555 1_555
H7 O7 1_555 1_555
Zn5 O7 1_555 1_555
Zn10 O4 1_555 1_555
O15 Zn12 1_555 1_555
O18 Zn12 1_555 1_555
O23 Zn2 1_555 1_555
O29 Zn1_2 1_555 1_555
Zn12 O7 1_555 1_555
C6 C7 1_555 1_555
Zn10 O23 1_555 1_555
O5 C9 1_555 1_555
C9 O6 1_555 1_555
C10 C9 1_555 1_555
C11 C10 1_555 1_555
H5 C11 1_555 1_555
Zn10 O5 1_555 1_555
C24 C11 1_555 1_555
H14 C24 1_555 1_555
Zn10 O26 1_555 1_555
H6 C12 1_555 1_555
Zn14 O17 1_555 1_555
O17 C21 1_555 1_555
O21 C21 1_555 1_555
C21 C22 1_555 1_555
C22 C23 1_555 1_555
C23 C12 1_555 1_555
H13 C23 1_555 1_555
O18 C9_2 1_555 1_555
C9_2 O6_2 1_555 1_555
C10_2 C9_2 1_555 1_555
C11_2 C10_2 1_555 1_555
H5_2 C11_2 1_555 1_555
C12_2 C10_2 1_555 1_555
H6_2 C12_2 1_555 1_555
O19 C21_2 1_555 1_555
O20 C21_2 1_555 1_555
C21_2 C22_2 1_555 1_555
C22_2 C23_2 1_555 1_555
H13_2 C23_2 1_555 1_555
H14_2 C24_2 1_555 1_555
C22_2 C24_2 1_555 1_555
Zn1_3 O2_2 1_555 1_555
Zn5 O3_2 1_555 1_555
O1 C1_2 1_555 1_555
O2_2 C1_2 1_555 1_555
O3_2 C8_2 1_555 1_555
O15 C8_2 1_555 1_555
C1_2 C2_2 1_555 1_555
C2_2 C3_2 1_555 1_555
C3_2 H1_2 1_555 1_555
C4_2 C3_2 1_555 1_555
H2_2 C4_2 1_555 1_555
C5_2 C4_2 1_555 1_555
C6_2 C5_2 1_555 1_555
H3_2 C6_2 1_555 1_555
C7_2 C2_2 1_555 1_555
H4_2 C7_2 1_555 1_555
C8_2 C5_2 1_555 1_555
C6_2 C7_2 1_555 1_555
O28 Zn1_4 1_555 1_555
Zn14 O28 1_555 1_555
O23 Zn1_5 1_555 1_555
O24 Zn1_8 1_555 1_555
O26 Zn1_9 1_555 1_555
Zn7 O13_2 1_555 1_555
O12_2 Zn1_10 1_555 1_555
O13_2 C20_2 1_555 1_555
O16 C20_2 1_555 1_555
C13_2 O10 1_555 1_555
C14_2 C13_2 1_555 1_555
C15_2 C14_2 1_555 1_555
H9_2 C15_2 1_555 1_555
C16_2 C15_2 1_555 1_555
H10_2 C16_2 1_555 1_555
C17_2 C16_2 1_555 1_555
C18_2 C17_2 1_555 1_555
H11_2 C18_2 1_555 1_555
C19_2 C14_2 1_555 1_555
H12_2 C19_2 1_555 1_555
C20_2 C17_2 1_555 1_555
O12_2 C13_2 1_555 1_555
C18_2 C19_2 1_555 1_555

#END
