
###############################################################################
#
# This file contains modified crystal structure data generated from the
# MOF subset of the Cambridge Structural Database (CSD) v543 
# hosted by the Cambridge Crystallographic Data Centre (CCDC).
#
# This work is licensed under the Creative Commons
# Attribution-NonCommercial-ShareAlike 4.0 International License.
# To view a copy of this license, visit
# http://creativecommons.org/licenses/by-nc-sa/4.0/
# or send a letter to
# Creative Commons, PO Box 1866, Mountain View, CA 94042, USA.
#
# CIF created using the CSD Python API on 29 September 2022
# The structure has been converted into the P1 space group
# The structure has a 3D framework
# The original CSD entry REFWIL is in the monoclinic crystal system
# The framework has been calculated to contain at least 10.0% void space
# The void calculation uses a probe of radius 1.32A, grid spacing 0.4
#
###############################################################################

data_REFWIL
_chemical_formula_moiety         '(C432 H302 Cd30 O172)n'
_symmetry_cell_setting           triclinic
_symmetry_space_group_name_H-M   'P 1'
_symmetry_Int_Tables_number      1
_space_group_name_Hall           'P 1'
loop_
_symmetry_equiv_pos_site_id
_symmetry_equiv_pos_as_xyz
1 x,y,z
_cell_length_a                   28.6590(12)
_cell_length_b                   11.4263(5)
_cell_length_c                   34.8578(14)
_cell_angle_alpha                90
_cell_angle_beta                 100.3190(10)
_cell_angle_gamma                90
_cell_volume                     11230.1
loop_
_atom_site_label
_atom_site_type_symbol
_atom_site_fract_x
_atom_site_fract_y
_atom_site_fract_z
O15 O 0.12092(15) 0.0304(3) 0.27664(11)
H6 H 0.140367 0.070231 0.295245
O37 O 0.87908(15) 0.0304(3) 0.22336(11)
H43 H 0.859633 0.070231 0.204755
O51 O 0.21726(15) 0.1332(3) 0.28782(10)
O52 O 0.78274(15) 0.1332(3) 0.21218(10)
O63 O 0.15738(12) 0.1174(3) 0.20547(8)
O64 O 0.84262(12) 0.1174(3) 0.29453(8)
Cd1 Cd 0.31044(2) 0.08650(3) 0.24129(2)
Cd2 Cd 0.500000 0.83197(5) 0.750000
Cd3 Cd 0.18947(2) 0.94880(3) 0.25946(2)
O1 O 0.39204(12) 0.0712(3) 0.02147(8)
O2 O 0.35189(11) 0.0675(3) 0.19418(9)
O3 O 0.36336(11) 0.2600(2) 0.24908(9)
H1 H 0.363529 0.317119 0.265489
H2 H 0.385139 0.263699 0.235949
O5 O 0.29128(18) 0.1786(3) 0.29130(10)
O7 O 0.29089(13) 0.2121(3) 0.47036(8)
O8 O 0.41084(12) 0.4112(3) 0.55530(10)
O9 O 0.44007(13) 0.7190(4) 0.70977(11)
O10 O 0.50883(14) 0.7322(3) 0.69400(11)
O11 O 0.55663(17) 0.9643(4) 0.7547(2)
H4 H 0.565865 0.990441 0.776457
H5 H 0.575225 0.969421 0.736887
O12 O 0.28568(13) 0.6310(3) 0.48074(8)
O13 O 0.23979(10) 0.7186(2) 0.29755(8)
O14 O 0.20540(13) 0.8737(3) 0.31939(8)
H7 H 0.101217 0.975981 0.280315
O18 O 0.55955(11) 0.1434(3) 0.03313(9)
O21 O 0.63110(12) 0.0076(3) 0.21139(9)
C1 C 0.47620(18) 0.1066(4) 0.03061(12)
H10 H 0.482359 0.037000 0.044396
C2 C 0.43033(17) 0.1420(4) 0.01722(12)
C3 C 0.38017(16) 0.0593(4) 0.05791(12)
C6 C 0.35123(16) 0.0206(4) 0.12831(12)
C7 C 0.38315(17) 0.1066(4) 0.12448(13)
H13 H 0.395201 0.152775 0.145959
C8 C 0.39794(17) 0.1267(4) 0.08953(13)
H14 H 0.419790 0.185550 0.087497
C10 C 0.2557(2) 0.1607(4) 0.30697(14)
C11 C 0.26231(15) 0.1741(4) 0.35007(11)
C12 C 0.29978(17) 0.2412(4) 0.36785(13)
H15 H 0.319356 0.276335 0.352616
C13 C 0.30905(17) 0.2576(4) 0.40717(13)
H16 H 0.334219 0.304668 0.418565
C14 C 0.28078(17) 0.2037(4) 0.42981(12)
C15 C 0.30957(18) 0.3169(4) 0.48591(12)
C16 C 0.35056(18) 0.3139(4) 0.51308(12)
H17 H 0.366183 0.243541 0.519947
C17 C 0.36804(16) 0.4180(4) 0.52999(12)
C18 C 0.42152(18) 0.4891(4) 0.58623(13)
C19 C 0.38978(17) 0.5154(4) 0.61028(14)
H18 H 0.358863 0.487204 0.604826
C20 C 0.40466(16) 0.5843(4) 0.64257(13)
H19 H 0.383210 0.604853 0.658531
C21 C 0.45055(16) 0.6230(4) 0.65155(12)
C22 C 0.48166(17) 0.5955(5) 0.62663(15)
H20 H 0.512836 0.621849 0.632235
C23 C 0.46679(18) 0.5297(5) 0.59380(15)
H21 H 0.487544 0.513082 0.576849
C24 C 0.46734(19) 0.6958(4) 0.68726(13)
C25 C 0.34608(16) 0.5241(4) 0.51922(12)
H22 H 0.358037 0.593670 0.530899
C26 C 0.30640(17) 0.5234(4) 0.49097(12)
C27 C 0.27128(17) 0.6603(4) 0.44151(12)
C28 C 0.28746(16) 0.6061(4) 0.41141(12)
H23 H 0.308854 0.544406 0.416425
C29 C 0.27211(15) 0.6428(4) 0.37402(12)
H24 H 0.282063 0.603243 0.353599
C30 C 0.24236(15) 0.7367(4) 0.36603(12)
C31 C 0.2266(2) 0.7911(4) 0.39680(13)
H25 H 0.206144 0.854641 0.391960
C32 C 0.2407(2) 0.7526(4) 0.43422(13)
H26 H 0.229518 0.789163 0.454630
C33 C 0.22762(16) 0.7790(4) 0.32524(12)
C34 C 0.28663(17) 0.4199(4) 0.47487(12)
H27 H 0.258384 0.420405 0.456935
C35 C 0.24363(19) 0.1360(5) 0.41351(13)
H28 H 0.224696 0.099269 0.428960
C36 C 0.23441(17) 0.1225(5) 0.37312(14)
H29 H 0.208674 0.077373 0.361615
C40 C 0.50416(16) 0.2795(4) 0.00223(12)
C41 C 0.51301(17) 0.1763(4) 0.02324(12)
C42 C 0.57650(16) 0.0975(4) 0.06978(13)
C43 C 0.56097(17) 0.1346(4) 0.10291(14)
H32 H 0.536095 0.187731 0.101057
C44 C 0.58242(16) 0.0926(4) 0.13886(13)
H33 H 0.572440 0.119405 0.161256
C45 C 0.61866(15) 0.0109(4) 0.14201(12)
C47 C 0.61309(16) 0.0181(4) 0.07231(13)
Cd5 Cd 0.68956(2) 0.08650(3) 0.25871(2)
Cd6 Cd 0.81053(2) 0.94880(3) 0.24054(2)
O24 O 0.60796(12) 0.0712(3) 0.47853(8)
O25 O 0.64811(11) 0.0675(3) 0.30582(9)
O26 O 0.63664(11) 0.2600(2) 0.25092(9)
H40 H 0.636471 0.317119 0.234511
H41 H 0.614861 0.263699 0.264051
O28 O 0.70872(18) 0.1786(3) 0.20870(10)
O30 O 0.70911(13) 0.2121(3) 0.02964(8)
O34 O 0.71432(13) 0.6310(3) 0.01926(8)
O35 O 0.76021(10) 0.7186(2) 0.20245(8)
O36 O 0.79460(13) 0.8737(3) 0.18061(8)
H44 H 0.898783 0.975981 0.219685
O39 O 0.55001(12) 0.4192(3) 0.52924(8)
O40 O 0.44045(11) 0.1434(3) 0.46687(9)
O43 O 0.36890(12) 0.0076(3) 0.28861(9)
O44 O 0.65738(12) 0.3826(3) 0.70547(8)
O45 O 0.65160(11) 0.5719(3) 0.69712(8)
C55 C 0.52380(18) 0.1066(4) 0.46939(12)
H47 H 0.517641 0.037000 0.455604
C56 C 0.56967(17) 0.1420(4) 0.48278(12)
C57 C 0.61983(16) 0.0593(4) 0.44209(12)
C60 C 0.64877(16) 0.0206(4) 0.37169(12)
C61 C 0.61685(17) 0.1066(4) 0.37552(13)
H50 H 0.604799 0.152775 0.354041
C62 C 0.60206(17) 0.1267(4) 0.41047(13)
H51 H 0.580210 0.185550 0.412503
C64 C 0.7443(2) 0.1607(4) 0.19303(14)
C65 C 0.73769(15) 0.1741(4) 0.14993(11)
C66 C 0.70022(17) 0.2412(4) 0.13215(13)
H52 H 0.680644 0.276335 0.147384
C67 C 0.69095(17) 0.2576(4) 0.09283(13)
H53 H 0.665781 0.304668 0.081435
C68 C 0.71922(17) 0.2037(4) 0.07019(12)
C69 C 0.69043(18) 0.3169(4) 0.01409(12)
C80 C 0.69360(17) 0.5234(4) 0.00903(12)
C81 C 0.72872(17) 0.6603(4) 0.05849(12)
C82 C 0.71254(16) 0.6061(4) 0.08859(12)
H60 H 0.691146 0.544406 0.083575
C83 C 0.72789(15) 0.6428(4) 0.12598(12)
H61 H 0.717937 0.603243 0.146401
C84 C 0.75764(15) 0.7367(4) 0.13397(12)
C85 C 0.7734(2) 0.7911(4) 0.10320(13)
H62 H 0.793856 0.854641 0.108040
C86 C 0.7593(2) 0.7526(4) 0.06578(13)
H63 H 0.770482 0.789163 0.045370
C87 C 0.77238(16) 0.7790(4) 0.17476(12)
C88 C 0.71337(17) 0.4199(4) 0.02513(12)
H64 H 0.741616 0.420405 0.043065
C89 C 0.75637(19) 0.1360(5) 0.08649(13)
H65 H 0.775304 0.099269 0.071040
C90 C 0.76559(17) 0.1225(5) 0.12688(14)
H66 H 0.791326 0.077373 0.138385
C91 C 0.57992(17) 0.2442(4) 0.50370(13)
H67 H 0.611071 0.266885 0.512905
C92 C 0.54191(18) 0.3118(4) 0.51051(12)
C93 C 0.57431(15) 0.4236(4) 0.56742(12)
C94 C 0.49584(16) 0.2795(4) 0.49777(12)
H68 H 0.471004 0.325565 0.503050
C95 C 0.48699(17) 0.1763(4) 0.47676(12)
C96 C 0.42350(16) 0.0975(4) 0.43022(13)
C97 C 0.43903(17) 0.1346(4) 0.39709(14)
H69 H 0.463905 0.187731 0.398943
C98 C 0.41758(16) 0.0926(4) 0.36114(13)
H70 H 0.427560 0.119405 0.338744
C99 C 0.38134(15) 0.0109(4) 0.35799(12)
C101 C 0.38691(16) 0.0181(4) 0.42769(13)
C103 C 0.64419(15) 0.4688(4) 0.68466(12)
C104 C 0.61821(14) 0.4519(4) 0.64402(12)
C105 C 0.60581(15) 0.5487(4) 0.62009(12)
H73 H 0.611813 0.623825 0.630058
C106 C 0.60770(16) 0.3411(4) 0.62893(12)
H74 H 0.616015 0.275897 0.644614
C107 C 0.58464(15) 0.5336(4) 0.58161(12)
H75 H 0.577442 0.598226 0.565407
C108 C 0.58503(16) 0.3264(4) 0.59091(13)
H76 H 0.577032 0.251890 0.581170
O46 O 0.44337(17) 0.9643(4) 0.7453(2)
H77 H 0.434135 0.990441 0.723543
H78 H 0.424775 0.969421 0.763113
Cd8 Cd 0.81044(2) 0.58650(3) 0.24129(2)
Cd9 Cd 0.18956(2) 0.58650(3) 0.25871(2)
Cd13 Cd 0.68947(2) 0.44880(3) 0.25946(2)
Cd14 Cd 0.31053(2) 0.44880(3) 0.24054(2)
Cd16 Cd 0.68947(2) 0.55120(3) 0.75946(2)
Cd17 Cd 0.69936(2) 0.77439(3) 0.23283(2)
Cd18 Cd 0.30064(2) 0.77439(3) 0.26717(2)
Cd19 Cd 0.19936(2) 0.27439(3) 0.23283(2)
Cd20 Cd 0.80064(2) 0.27439(3) 0.26717(2)
Cd22 Cd 0.69936(2) 0.22561(3) 0.73283(2)
O47 O 0.86336(11) 0.7600(2) 0.24908(9)
O48 O 0.13664(11) 0.7600(2) 0.25092(9)
O49 O 0.26010(9) 0.9327(2) 0.23974(7)
O50 O 0.73990(9) 0.9327(2) 0.26026(7)
O55 O 0.55993(13) 0.7190(4) 0.79023(11)
O56 O 0.49117(14) 0.7322(3) 0.80600(11)
O59 O 0.73979(10) 0.2186(2) 0.29755(8)
O60 O 0.26021(10) 0.2186(2) 0.20245(8)
O65 O 0.15160(11) 0.9281(3) 0.19712(8)
O66 O 0.84840(11) 0.9281(3) 0.30288(8)
O17 O 0.44999(12) 0.4192(3) 0.97076(8)
O22 O 0.34262(12) 0.3826(3) 0.79453(8)
O23 O 0.34840(11) 0.5719(3) 0.80288(8)
C37 C 0.42008(17) 0.2442(4) 0.99630(13)
H30 H 0.388929 0.266885 0.987095
C38 C 0.45809(18) 0.3118(4) 0.98949(12)
C39 C 0.42569(15) 0.4236(4) 0.93258(12)
H31 H 0.528996 0.325565 0.996950
C49 C 0.35581(15) 0.4688(4) 0.81534(12)
C50 C 0.38179(14) 0.4519(4) 0.85598(12)
C51 C 0.39419(15) 0.5487(4) 0.87991(12)
H36 H 0.388187 0.623825 0.869942
C52 C 0.39230(16) 0.3411(4) 0.87107(12)
H37 H 0.383985 0.275897 0.855386
C53 C 0.41536(15) 0.5336(4) 0.91839(12)
H38 H 0.422558 0.598226 0.934593
C54 C 0.41497(16) 0.3264(4) 0.90909(13)
H39 H 0.422968 0.251890 0.918830
O31 O 0.58916(12) 0.4112(3) 0.94470(10)
C70 C 0.64944(18) 0.3139(4) 0.98692(12)
H54 H 0.633817 0.243541 0.980053
C71 C 0.63196(16) 0.4180(4) 0.97001(12)
C72 C 0.57848(18) 0.4891(4) 0.91377(13)
C73 C 0.61022(17) 0.5154(4) 0.88972(14)
H55 H 0.641137 0.487204 0.895174
C74 C 0.59534(16) 0.5843(4) 0.85743(13)
H56 H 0.616790 0.604853 0.841469
C75 C 0.54945(16) 0.6230(4) 0.84845(12)
C76 C 0.51834(17) 0.5955(5) 0.87337(15)
H57 H 0.487164 0.621849 0.867765
C77 C 0.53321(18) 0.5297(5) 0.90620(15)
H58 H 0.512456 0.513082 0.923151
C78 C 0.53266(19) 0.6958(4) 0.81274(13)
C79 C 0.65392(16) 0.5241(4) 0.98078(12)
H59 H 0.641963 0.593670 0.969101
Cd15 Cd 0.31053(2) 0.55120(3) 0.74054(2)
Cd21 Cd 0.30064(2) 0.22561(3) 0.76717(2)
H3 H 0.257519 0.928607 0.214682
O16 O 0.30818(16) 0.9174(3) 0.16898(10)
O19 O 0.67163(11) 0.8840(3) 0.18068(8)
O20 O 0.63854(13) 0.7865(3) 0.26778(11)
H8 H 0.646070 0.806227 0.292035
H9 H 0.622260 0.848757 0.259385
C4 C 0.34679(17) 0.9741(4) 0.06066(13)
H11 H 0.334036 0.930142 0.038848
C5 C 0.33233(17) 0.9542(4) 0.09578(13)
H12 H 0.309980 0.896530 0.097701
C9 C 0.33547(18) 0.9996(5) 0.16603(14)
C46 C 0.63350(16) 0.9754(4) 0.10818(12)
H34 H 0.657943 0.921044 0.109810
H35 H 0.623836 0.993782 0.049964
C48 C 0.64270(17) 0.9654(4) 0.18106(13)
H42 H 0.742481 0.928607 0.285318
O38 O 0.69182(16) 0.9174(3) 0.33102(10)
O41 O 0.32837(11) 0.8840(3) 0.31932(8)
O42 O 0.36146(13) 0.7865(3) 0.23222(11)
H45 H 0.353930 0.806227 0.207965
H46 H 0.377740 0.848757 0.240615
C58 C 0.65321(17) 0.9741(4) 0.43934(13)
H48 H 0.665964 0.930142 0.461152
C59 C 0.66767(17) 0.9542(4) 0.40422(13)
H49 H 0.690020 0.896530 0.402299
C63 C 0.66453(18) 0.9996(5) 0.33397(14)
C100 C 0.36650(16) 0.9754(4) 0.39182(12)
H71 H 0.342057 0.921044 0.390190
H72 H 0.376164 0.993782 0.450036
C102 C 0.35730(17) 0.9654(4) 0.31894(13)
O53 O 0.71726(15) 0.6332(3) 0.28782(10)
O54 O 0.28274(15) 0.6332(3) 0.21218(10)
O61 O 0.65738(12) 0.6174(3) 0.20547(8)
O62 O 0.34262(12) 0.6174(3) 0.29453(8)
Cd2_2 Cd -0.000000 0.33197(5) 0.750000
O10_2 O 0.00883(14) 0.2322(3) 0.69400(11)
O11_2 O 0.05663(17) 0.4643(4) 0.7547(2)
H4_2 H 0.065865 0.490441 0.776457
H5_2 H 0.075225 0.469421 0.736887
H20_2 H 0.012836 0.121849 0.632235
O34_2 O 0.21432(13) 0.1310(3) 0.01926(8)
O36_2 O 0.29460(13) 0.3737(3) 0.18061(8)
O37_2 O 0.37908(15) 0.5304(3) 0.22336(11)
H43_2 H 0.359633 0.570231 0.204755
H44_2 H 0.398783 0.475981 0.219685
O45_2 O 0.15160(11) 0.0719(3) 0.69712(8)
C80_2 C 0.19360(17) 0.0234(4) 0.00903(12)
C81_2 C 0.22872(17) 0.1603(4) 0.05849(12)
C82_2 C 0.21254(16) 0.1061(4) 0.08859(12)
H60_2 H 0.191146 0.044406 0.083575
C83_2 C 0.22789(15) 0.1428(4) 0.12598(12)
H61_2 H 0.217937 0.103243 0.146401
C84_2 C 0.25764(15) 0.2367(4) 0.13397(12)
C85_2 C 0.2734(2) 0.2911(4) 0.10320(13)
H62_2 H 0.293856 0.354641 0.108040
C86_2 C 0.2593(2) 0.2526(4) 0.06578(13)
H63_2 H 0.270482 0.289163 0.045370
C87_2 C 0.27238(16) 0.2790(4) 0.17476(12)
C105_2 C 0.10581(15) 0.0487(4) 0.62009(12)
H73_2 H 0.111813 0.123825 0.630058
C107_2 C 0.08464(15) 0.0336(4) 0.58161(12)
H75_2 H 0.077442 0.098226 0.565407
Cd16_2 Cd 0.18947(2) 0.05120(3) 0.75946(2)
O50_2 O 0.23990(9) 0.4327(2) 0.26026(7)
O55_2 O 0.05993(13) 0.2190(4) 0.79023(11)
O66_2 O 0.34840(11) 0.4281(3) 0.30288(8)
C73_2 C 0.11022(17) 0.0154(4) 0.88972(14)
C74_2 C 0.09534(16) 0.0843(4) 0.85743(13)
H56_2 H 0.116790 0.104853 0.841469
C75_2 C 0.04945(16) 0.1230(4) 0.84845(12)
C76_2 C 0.01834(17) 0.0955(5) 0.87337(15)
C77_2 C 0.03321(18) 0.0297(5) 0.90620(15)
H58_2 H 0.012456 0.013082 0.923151
C78_2 C 0.03266(19) 0.1958(4) 0.81274(13)
C79_2 C 0.15392(16) 0.0241(4) 0.98078(12)
H59_2 H 0.141963 0.093670 0.969101
O18_2 O 0.05955(11) 0.6434(3) 0.03313(9)
O19_2 O 0.17163(11) 0.3840(3) 0.18068(8)
O20_2 O 0.13854(13) 0.2865(3) 0.26778(11)
H8_2 H 0.146070 0.306227 0.292035
H9_2 H 0.122260 0.348757 0.259385
O21_2 O 0.13110(12) 0.5076(3) 0.21139(9)
C40_2 C 0.00416(16) 0.7795(4) 0.00223(12)
C41_2 C 0.01301(17) 0.6763(4) 0.02324(12)
C42_2 C 0.07650(16) 0.5975(4) 0.06978(13)
C43_2 C 0.06097(17) 0.6346(4) 0.10291(14)
H32_2 H 0.036095 0.687731 0.101057
C44_2 C 0.08242(16) 0.5926(4) 0.13886(13)
H33_2 H 0.072440 0.619405 0.161256
C45_2 C 0.11866(15) 0.5109(4) 0.14201(12)
C46_2 C 0.13350(16) 0.4754(4) 0.10818(12)
H34_2 H 0.157943 0.421044 0.109810
C47_2 C 0.11309(16) 0.5181(4) 0.07231(13)
H35_2 H 0.123836 0.493782 0.049964
C48_2 C 0.14270(17) 0.4654(4) 0.18106(13)
O24_2 O 0.10796(12) 0.5712(3) 0.47853(8)
O25_2 O 0.14811(11) 0.5675(3) 0.30582(9)
H40_2 H 0.136471 0.817119 0.234511
H41_2 H 0.114861 0.763699 0.264051
H42_2 H 0.242481 0.428607 0.285318
O28_2 O 0.20872(18) 0.6786(3) 0.20870(10)
O30_2 O 0.20911(13) 0.7121(3) 0.02964(8)
O38_2 O 0.19182(16) 0.4174(3) 0.33102(10)
O39_2 O 0.05001(12) 0.9192(3) 0.52924(8)
O44_2 O 0.15738(12) 0.8826(3) 0.70547(8)
C55_2 C 0.02380(18) 0.6066(4) 0.46939(12)
H47_2 H 0.017641 0.537000 0.455604
C56_2 C 0.06967(17) 0.6420(4) 0.48278(12)
C57_2 C 0.11983(16) 0.5593(4) 0.44209(12)
C58_2 C 0.15321(17) 0.4741(4) 0.43934(13)
H48_2 H 0.165964 0.430142 0.461152
C59_2 C 0.16767(17) 0.4542(4) 0.40422(13)
H49_2 H 0.190020 0.396530 0.402299
C60_2 C 0.14877(16) 0.5206(4) 0.37169(12)
C61_2 C 0.11685(17) 0.6066(4) 0.37552(13)
H50_2 H 0.104799 0.652775 0.354041
C62_2 C 0.10206(17) 0.6267(4) 0.41047(13)
H51_2 H 0.080210 0.685550 0.412503
C63_2 C 0.16453(18) 0.4996(5) 0.33397(14)
C64_2 C 0.2443(2) 0.6607(4) 0.19303(14)
C65_2 C 0.23769(15) 0.6741(4) 0.14993(11)
C66_2 C 0.20022(17) 0.7412(4) 0.13215(13)
H52_2 H 0.180644 0.776335 0.147384
C67_2 C 0.19095(17) 0.7576(4) 0.09283(13)
H53_2 H 0.165781 0.804668 0.081435
C68_2 C 0.21922(17) 0.7037(4) 0.07019(12)
C69_2 C 0.19043(18) 0.8169(4) 0.01409(12)
C88_2 C 0.21337(17) 0.9199(4) 0.02513(12)
H64_2 H 0.241616 0.920405 0.043065
C89_2 C 0.25637(19) 0.6360(5) 0.08649(13)
H65_2 H 0.275304 0.599269 0.071040
C90_2 C 0.26559(17) 0.6225(5) 0.12688(14)
H66_2 H 0.291326 0.577373 0.138385
C91_2 C 0.07992(17) 0.7442(4) 0.50370(13)
H67_2 H 0.111071 0.766885 0.512905
C92_2 C 0.04191(18) 0.8118(4) 0.51051(12)
C93_2 C 0.07431(15) 0.9236(4) 0.56742(12)
C103_2 C 0.14419(15) 0.9688(4) 0.68466(12)
C104_2 C 0.11821(14) 0.9519(4) 0.64402(12)
C106_2 C 0.10770(16) 0.8411(4) 0.62893(12)
H74_2 H 0.116015 0.775897 0.644614
C108_2 C 0.08503(16) 0.8264(4) 0.59091(13)
H76_2 H 0.077032 0.751890 0.581170
Cd22_2 Cd 0.19936(2) 0.72561(3) 0.73283(2)
Cd2_3 Cd 1.000000 0.33197(5) 0.750000
O9_2 O 0.94007(13) 0.2190(4) 0.70977(11)
O12_2 O 0.78568(13) 0.1310(3) 0.48074(8)
O14_2 O 0.70540(13) 0.3737(3) 0.31939(8)
O15_2 O 0.62092(15) 0.5304(3) 0.27664(11)
H6_2 H 0.640367 0.570231 0.295245
H7_2 H 0.601217 0.475981 0.280315
C19_2 C 0.88978(17) 0.0154(4) 0.61028(14)
C20_2 C 0.90466(16) 0.0843(4) 0.64257(13)
H19_2 H 0.883210 0.104853 0.658531
C21_2 C 0.95055(16) 0.1230(4) 0.65155(12)
C22_2 C 0.98166(17) 0.0955(5) 0.62663(15)
C23_2 C 0.96679(18) 0.0297(5) 0.59380(15)
H21_2 H 0.987544 0.013082 0.576849
C24_2 C 0.96734(19) 0.1958(4) 0.68726(13)
C25_2 C 0.84608(16) 0.0241(4) 0.51922(12)
H22_2 H 0.858037 0.093670 0.530899
C26_2 C 0.80640(17) 0.0234(4) 0.49097(12)
C27_2 C 0.77128(17) 0.1603(4) 0.44151(12)
C28_2 C 0.78746(16) 0.1061(4) 0.41141(12)
H23_2 H 0.808854 0.044406 0.416425
C29_2 C 0.77211(15) 0.1428(4) 0.37402(12)
H24_2 H 0.782063 0.103243 0.353599
C30_2 C 0.74236(15) 0.2367(4) 0.36603(12)
C31_2 C 0.7266(2) 0.2911(4) 0.39680(13)
H25_2 H 0.706144 0.354641 0.391960
C32_2 C 0.7407(2) 0.2526(4) 0.43422(13)
H26_2 H 0.729518 0.289163 0.454630
C33_2 C 0.72762(16) 0.2790(4) 0.32524(12)
O46_2 O 0.94337(17) 0.4643(4) 0.7453(2)
H77_2 H 0.934135 0.490441 0.723543
H78_2 H 0.924775 0.469421 0.763113
O49_2 O 0.76010(9) 0.4327(2) 0.23974(7)
O56_2 O 0.99117(14) 0.2322(3) 0.80600(11)
O65_2 O 0.65160(11) 0.4281(3) 0.19712(8)
O23_2 O 0.84840(11) 0.0719(3) 0.80288(8)
C51_2 C 0.89419(15) 0.0487(4) 0.87991(12)
H36_2 H 0.888187 0.123825 0.869942
C53_2 C 0.91536(15) 0.0336(4) 0.91839(12)
H38_2 H 0.922558 0.098226 0.934593
H57_2 H 0.987164 0.121849 0.867765
Cd15_2 Cd 0.81053(2) 0.05120(3) 0.74054(2)
O1_2 O 0.89204(12) 0.5712(3) 0.02147(8)
O2_2 O 0.85189(11) 0.5675(3) 0.19418(9)
H1_2 H 0.863529 0.817119 0.265489
H2_2 H 0.885139 0.763699 0.235949
H3_2 H 0.757519 0.428607 0.214682
O5_2 O 0.79128(18) 0.6786(3) 0.29130(10)
O7_2 O 0.79089(13) 0.7121(3) 0.47036(8)
O8_2 O 0.91084(12) 0.9112(3) 0.55530(10)
O16_2 O 0.80818(16) 0.4174(3) 0.16898(10)
C1_2 C 0.97620(18) 0.6066(4) 0.03061(12)
H10_2 H 0.982359 0.537000 0.044396
C2_2 C 0.93033(17) 0.6420(4) 0.01722(12)
C3_2 C 0.88017(16) 0.5593(4) 0.05791(12)
C4_2 C 0.84679(17) 0.4741(4) 0.06066(13)
H11_2 H 0.834036 0.430142 0.038848
C5_2 C 0.83233(17) 0.4542(4) 0.09578(13)
H12_2 H 0.809980 0.396530 0.097701
C6_2 C 0.85123(16) 0.5206(4) 0.12831(12)
C7_2 C 0.88315(17) 0.6066(4) 0.12448(13)
H13_2 H 0.895201 0.652775 0.145959
C8_2 C 0.89794(17) 0.6267(4) 0.08953(13)
H14_2 H 0.919790 0.685550 0.087497
C9_2 C 0.83547(18) 0.4996(5) 0.16603(14)
C10_2 C 0.7557(2) 0.6607(4) 0.30697(14)
C11_2 C 0.76231(15) 0.6741(4) 0.35007(11)
C12_2 C 0.79978(17) 0.7412(4) 0.36785(13)
H15_2 H 0.819356 0.776335 0.352616
C13_2 C 0.80905(17) 0.7576(4) 0.40717(13)
H16_2 H 0.834219 0.804668 0.418565
C14_2 C 0.78078(17) 0.7037(4) 0.42981(12)
C15_2 C 0.80957(18) 0.8169(4) 0.48591(12)
C16_2 C 0.85056(18) 0.8139(4) 0.51308(12)
H17_2 H 0.866183 0.743541 0.519947
C17_2 C 0.86804(16) 0.9180(4) 0.52999(12)
C18_2 C 0.92152(18) 0.9891(4) 0.58623(13)
H18_2 H 0.858863 0.987204 0.604826
C34_2 C 0.78663(17) 0.9199(4) 0.47487(12)
H27_2 H 0.758384 0.920405 0.456935
C35_2 C 0.74363(19) 0.6360(5) 0.41351(13)
H28_2 H 0.724696 0.599269 0.428960
C36_2 C 0.73441(17) 0.6225(5) 0.37312(14)
H29_2 H 0.708674 0.577373 0.361615
O40_2 O 0.94045(11) 0.6434(3) 0.46687(9)
O41_2 O 0.82837(11) 0.3840(3) 0.31932(8)
O42_2 O 0.86146(13) 0.2865(3) 0.23222(11)
H45_2 H 0.853930 0.306227 0.207965
H46_2 H 0.877740 0.348757 0.240615
O43_2 O 0.86890(12) 0.5076(3) 0.28861(9)
C94_2 C 0.99584(16) 0.7795(4) 0.49777(12)
H68_2 H 0.971004 0.825565 0.503050
C95_2 C 0.98699(17) 0.6763(4) 0.47676(12)
C96_2 C 0.92350(16) 0.5975(4) 0.43022(13)
C97_2 C 0.93903(17) 0.6346(4) 0.39709(14)
H69_2 H 0.963905 0.687731 0.398943
C98_2 C 0.91758(16) 0.5926(4) 0.36114(13)
H70_2 H 0.927560 0.619405 0.338744
C99_2 C 0.88134(15) 0.5109(4) 0.35799(12)
C100_2 C 0.86650(16) 0.4754(4) 0.39182(12)
H71_2 H 0.842057 0.421044 0.390190
C101_2 C 0.88691(16) 0.5181(4) 0.42769(13)
H72_2 H 0.876164 0.493782 0.450036
C102_2 C 0.85730(17) 0.4654(4) 0.31894(13)
O17_2 O 0.94999(12) 0.9192(3) 0.97076(8)
O22_2 O 0.84262(12) 0.8826(3) 0.79453(8)
C37_2 C 0.92008(17) 0.7442(4) 0.99630(13)
H30_2 H 0.888929 0.766885 0.987095
C38_2 C 0.95809(18) 0.8118(4) 0.98949(12)
C39_2 C 0.92569(15) 0.9236(4) 0.93258(12)
C49_2 C 0.85581(15) 0.9688(4) 0.81534(12)
C50_2 C 0.88179(14) 0.9519(4) 0.85598(12)
C52_2 C 0.89230(16) 0.8411(4) 0.87107(12)
H37_2 H 0.883985 0.775897 0.855386
C54_2 C 0.91497(16) 0.8264(4) 0.90909(13)
H39_2 H 0.922968 0.751890 0.918830
Cd21_2 Cd 0.80064(2) 0.72561(3) 0.76717(2)
O4 O 0.73990(9) 0.0673(2) 0.76026(7)
H3_3 H 0.742481 0.071393 0.785318
O16_3 O 0.69182(16) 0.0826(3) 0.83102(10)
O19_3 O 0.32837(11) 0.1160(3) 0.81932(8)
O20_3 O 0.36146(13) 0.2135(3) 0.73222(11)
H8_3 H 0.353930 0.193773 0.707965
H9_3 H 0.377740 0.151243 0.740615
C4_3 C 0.65321(17) 0.0259(4) 0.93934(13)
H11_3 H 0.665964 0.069858 0.961152
C5_3 C 0.66767(17) 0.0458(4) 0.90422(13)
H12_3 H 0.690020 0.103470 0.902299
C9_3 C 0.66453(18) 0.0004(5) 0.83397(14)
C46_3 C 0.36650(16) 0.0246(4) 0.89182(12)
H34_3 H 0.342057 0.078956 0.890190
H35_3 H 0.376164 0.006218 0.950036
C48_3 C 0.35730(17) 0.0346(4) 0.81894(13)
O27 O 0.26010(9) 0.0673(2) 0.73974(7)
H42_3 H 0.257519 0.071393 0.714682
O38_3 O 0.30818(16) 0.0826(3) 0.66898(10)
O41_3 O 0.67163(11) 0.1160(3) 0.68068(8)
O42_3 O 0.63854(13) 0.2135(3) 0.76778(11)
H45_3 H 0.646070 0.193773 0.792035
H46_3 H 0.622260 0.151243 0.759385
C58_3 C 0.34679(17) 0.0259(4) 0.56066(13)
H48_3 H 0.334036 0.069858 0.538848
C59_3 C 0.33233(17) 0.0458(4) 0.59578(13)
H49_3 H 0.309980 0.103470 0.597701
C63_3 C 0.33547(18) 0.0004(5) 0.66603(14)
C100_3 C 0.63350(16) 0.0246(4) 0.60818(12)
H71_3 H 0.657943 0.078956 0.609810
H72_3 H 0.623836 0.006218 0.549964
C102_3 C 0.64270(17) 0.0346(4) 0.68106(13)
O53_2 O 0.28274(15) 0.3668(3) 0.71218(10)
O54_2 O 0.71726(15) 0.3668(3) 0.78782(10)
O57 O 0.76021(10) 0.2814(2) 0.70245(8)
O58 O 0.23979(10) 0.2814(2) 0.79755(8)
O17_3 O 0.55001(12) 0.5808(3) 0.02924(8)
C37_3 C 0.57992(17) 0.7558(4) 0.00370(13)
H30_3 H 0.611071 0.733115 0.012905
C38_3 C 0.54191(18) 0.6882(4) 0.01051(12)
C39_3 C 0.57431(15) 0.5764(4) 0.06742(12)
H31_2 H 0.471004 0.674435 0.003050
C49_3 C 0.64419(15) 0.5312(4) 0.18466(12)
C50_3 C 0.61821(14) 0.5481(4) 0.14402(12)
C51_3 C 0.60581(15) 0.4513(4) 0.12009(12)
H36_3 H 0.611813 0.376175 0.130058
C52_3 C 0.60770(16) 0.6589(4) 0.12893(12)
H37_3 H 0.616015 0.724103 0.144614
C53_3 C 0.58464(15) 0.4664(4) 0.08161(12)
H38_3 H 0.577442 0.401774 0.065407
C54_3 C 0.58503(16) 0.6736(4) 0.09091(13)
H39_3 H 0.577032 0.748110 0.081170
O31_2 O 0.41084(12) 0.5888(3) 0.05530(10)
O32 O 0.44007(13) 0.2810(4) 0.20977(11)
O33 O 0.50883(14) 0.2678(3) 0.19400(11)
C70_2 C 0.35056(18) 0.6861(4) 0.01308(12)
H54_2 H 0.366183 0.756459 0.019947
C71_2 C 0.36804(16) 0.5820(4) 0.02999(12)
C72_2 C 0.42152(18) 0.5109(4) 0.08623(13)
C73_3 C 0.38978(17) 0.4846(4) 0.11028(14)
H55_2 H 0.358863 0.512796 0.104826
C74_3 C 0.40466(16) 0.4157(4) 0.14257(13)
H56_3 H 0.383210 0.395147 0.158531
C75_3 C 0.45055(16) 0.3770(4) 0.15155(12)
C76_3 C 0.48166(17) 0.4045(5) 0.12663(15)
H57_3 H 0.512836 0.378151 0.132235
C77_3 C 0.46679(18) 0.4703(5) 0.09380(15)
H58_3 H 0.487544 0.486918 0.076849
C78_3 C 0.46734(19) 0.3042(4) 0.18726(13)
C79_3 C 0.34608(16) 0.4759(4) 0.01922(12)
H59_3 H 0.358037 0.406330 0.030899
Cd10 Cd 0.500000 0.16803(5) 0.250000
Cd1_2 Cd 0.68956(2) 0.91350(3) 0.75871(2)
O1_3 O 0.60796(12) 0.9288(3) 0.97853(8)
O2_3 O 0.64811(11) 0.9325(3) 0.80582(9)
O3_2 O 0.63664(11) 0.7400(2) 0.75092(9)
H1_3 H 0.636471 0.682881 0.734511
H2_3 H 0.614861 0.736301 0.764051
O5_3 O 0.70872(18) 0.8214(3) 0.70870(10)
O6 O 0.78274(15) 0.8668(3) 0.71218(10)
O7_3 O 0.70911(13) 0.7879(3) 0.52964(8)
O8_3 O 0.58916(12) 0.5888(3) 0.44470(10)
O9_3 O 0.55993(13) 0.2810(4) 0.29023(11)
O10_3 O 0.49117(14) 0.2678(3) 0.30600(11)
O11_3 O 0.44337(17) 0.0357(4) 0.2453(2)
H4_3 H 0.434135 0.009559 0.223543
H5_3 H 0.424775 0.030579 0.263113
O12_3 O 0.71432(13) 0.3690(3) 0.51926(8)
O14_3 O 0.79460(13) 0.1263(3) 0.68061(8)
H7_3 H 0.898783 0.024019 0.719685
O18_3 O 0.44045(11) 0.8566(3) 0.96687(9)
O21_3 O 0.36890(12) 0.9924(3) 0.78861(9)
C1_3 C 0.52380(18) 0.8934(4) 0.96939(12)
H10_3 H 0.517641 0.963000 0.955604
C2_3 C 0.56967(17) 0.8580(4) 0.98278(12)
C3_3 C 0.61983(16) 0.9407(4) 0.94209(12)
C6_3 C 0.64877(16) 0.9794(4) 0.87169(12)
C7_3 C 0.61685(17) 0.8934(4) 0.87552(13)
H13_3 H 0.604799 0.847225 0.854041
C8_3 C 0.60206(17) 0.8733(4) 0.91047(13)
H14_3 H 0.580210 0.814450 0.912503
C10_3 C 0.7443(2) 0.8393(4) 0.69303(14)
C11_3 C 0.73769(15) 0.8259(4) 0.64993(11)
C12_3 C 0.70022(17) 0.7588(4) 0.63215(13)
H15_3 H 0.680644 0.723665 0.647384
C13_3 C 0.69095(17) 0.7424(4) 0.59283(13)
H16_3 H 0.665781 0.695332 0.581435
C14_3 C 0.71922(17) 0.7963(4) 0.57019(12)
C15_3 C 0.69043(18) 0.6831(4) 0.51409(12)
C16_3 C 0.64944(18) 0.6861(4) 0.48692(12)
H17_3 H 0.633817 0.756459 0.480053
C17_3 C 0.63196(16) 0.5820(4) 0.47001(12)
C18_3 C 0.57848(18) 0.5109(4) 0.41377(13)
C19_3 C 0.61022(17) 0.4846(4) 0.38972(14)
H18_3 H 0.641137 0.512796 0.395174
C20_3 C 0.59534(16) 0.4157(4) 0.35743(13)
H19_3 H 0.616790 0.395147 0.341469
C21_3 C 0.54945(16) 0.3770(4) 0.34845(12)
C22_3 C 0.51834(17) 0.4045(5) 0.37337(15)
H20_3 H 0.487164 0.378151 0.367765
C23_3 C 0.53321(18) 0.4703(5) 0.40620(15)
H21_3 H 0.512456 0.486918 0.423151
C24_3 C 0.53266(19) 0.3042(4) 0.31274(13)
C25_3 C 0.65392(16) 0.4759(4) 0.48078(12)
H22_3 H 0.641963 0.406330 0.469101
C26_3 C 0.69360(17) 0.4766(4) 0.50903(12)
C27_3 C 0.72872(17) 0.3397(4) 0.55849(12)
C28_3 C 0.71254(16) 0.3939(4) 0.58859(12)
H23_3 H 0.691146 0.455594 0.583575
C29_3 C 0.72789(15) 0.3572(4) 0.62598(12)
H24_3 H 0.717937 0.396757 0.646401
C30_3 C 0.75764(15) 0.2633(4) 0.63397(12)
C31_3 C 0.7734(2) 0.2089(4) 0.60320(13)
H25_3 H 0.793856 0.145359 0.608040
C32_3 C 0.7593(2) 0.2474(4) 0.56578(13)
H26_3 H 0.770482 0.210837 0.545370
C33_3 C 0.77238(16) 0.2210(4) 0.67476(12)
C34_3 C 0.71337(17) 0.5801(4) 0.52513(12)
H27_3 H 0.741616 0.579595 0.543065
C35_3 C 0.75637(19) 0.8640(5) 0.58649(13)
H28_3 H 0.775304 0.900731 0.571040
C36_3 C 0.76559(17) 0.8775(5) 0.62688(14)
H29_3 H 0.791326 0.922627 0.638385
C40_3 C 0.49584(16) 0.7205(4) 0.99777(12)
C41_3 C 0.48699(17) 0.8237(4) 0.97676(12)
C42_3 C 0.42350(16) 0.9025(4) 0.93022(13)
C43_3 C 0.43903(17) 0.8654(4) 0.89709(14)
H32_3 H 0.463905 0.812269 0.898943
C44_3 C 0.41758(16) 0.9074(4) 0.86114(13)
H33_3 H 0.427560 0.880595 0.838744
C45_3 C 0.38134(15) 0.9891(4) 0.85799(12)
C47_3 C 0.38691(16) 0.9819(4) 0.92769(13)
Cd5_2 Cd 0.31044(2) 0.91350(3) 0.74129(2)
O24_3 O 0.39204(12) 0.9288(3) 0.52147(8)
O25_3 O 0.35189(11) 0.9325(3) 0.69418(9)
O26_2 O 0.36336(11) 0.7400(2) 0.74908(9)
H40_3 H 0.363529 0.682881 0.765489
H41_3 H 0.385139 0.736301 0.735949
O28_3 O 0.29128(18) 0.8214(3) 0.79130(10)
O29 O 0.21726(15) 0.8668(3) 0.78782(10)
O30_3 O 0.29089(13) 0.7879(3) 0.97036(8)
O34_3 O 0.28568(13) 0.3690(3) 0.98074(8)
O36_3 O 0.20540(13) 0.1263(3) 0.81939(8)
H44_3 H 0.101217 0.024019 0.780315
O39_3 O 0.44999(12) 0.5808(3) 0.47076(8)
O40_3 O 0.55955(11) 0.8566(3) 0.53313(9)
O43_3 O 0.63110(12) 0.9924(3) 0.71139(9)
C55_3 C 0.47620(18) 0.8934(4) 0.53061(12)
H47_3 H 0.482359 0.963000 0.544396
C56_3 C 0.43033(17) 0.8580(4) 0.51722(12)
C57_3 C 0.38017(16) 0.9407(4) 0.55791(12)
C60_3 C 0.35123(16) 0.9794(4) 0.62831(12)
C61_3 C 0.38315(17) 0.8934(4) 0.62448(13)
H50_3 H 0.395201 0.847225 0.645959
C62_3 C 0.39794(17) 0.8733(4) 0.58953(13)
H51_3 H 0.419790 0.814450 0.587497
C64_3 C 0.2557(2) 0.8393(4) 0.80697(14)
C65_3 C 0.26231(15) 0.8259(4) 0.85007(11)
C66_3 C 0.29978(17) 0.7588(4) 0.86785(13)
H52_3 H 0.319356 0.723665 0.852616
C67_3 C 0.30905(17) 0.7424(4) 0.90717(13)
H53_3 H 0.334219 0.695332 0.918565
C68_3 C 0.28078(17) 0.7963(4) 0.92981(12)
C69_3 C 0.30957(18) 0.6831(4) 0.98591(12)
C80_3 C 0.30640(17) 0.4766(4) 0.99097(12)
C81_3 C 0.27128(17) 0.3397(4) 0.94151(12)
C82_3 C 0.28746(16) 0.3939(4) 0.91141(12)
H60_3 H 0.308854 0.455594 0.916425
C83_3 C 0.27211(15) 0.3572(4) 0.87402(12)
H61_3 H 0.282063 0.396757 0.853599
C84_3 C 0.24236(15) 0.2633(4) 0.86603(12)
C85_3 C 0.2266(2) 0.2089(4) 0.89680(13)
H62_3 H 0.206144 0.145359 0.891960
C86_3 C 0.2407(2) 0.2474(4) 0.93422(13)
H63_3 H 0.229518 0.210837 0.954630
C87_3 C 0.22762(16) 0.2210(4) 0.82524(12)
C88_3 C 0.28663(17) 0.5801(4) 0.97487(12)
H64_3 H 0.258384 0.579595 0.956935
C89_3 C 0.24363(19) 0.8640(5) 0.91351(13)
H65_3 H 0.224696 0.900731 0.928960
C90_3 C 0.23441(17) 0.8775(5) 0.87312(14)
H66_3 H 0.208674 0.922627 0.861615
C91_3 C 0.42008(17) 0.7558(4) 0.49630(13)
H67_3 H 0.388929 0.733115 0.487095
C92_3 C 0.45809(18) 0.6882(4) 0.48949(12)
C93_3 C 0.42569(15) 0.5764(4) 0.43258(12)
C94_3 C 0.50416(16) 0.7205(4) 0.50223(12)
H68_3 H 0.528996 0.674435 0.496950
C95_3 C 0.51301(17) 0.8237(4) 0.52324(12)
C96_3 C 0.57650(16) 0.9025(4) 0.56978(13)
C97_3 C 0.56097(17) 0.8654(4) 0.60291(14)
H69_3 H 0.536095 0.812269 0.601057
C98_3 C 0.58242(16) 0.9074(4) 0.63886(13)
H70_3 H 0.572440 0.880595 0.661256
C99_3 C 0.61866(15) 0.9891(4) 0.64201(12)
C101_3 C 0.61309(16) 0.9819(4) 0.57231(13)
C103_3 C 0.35581(15) 0.5312(4) 0.31534(12)
C104_3 C 0.38179(14) 0.5481(4) 0.35598(12)
C105_3 C 0.39419(15) 0.4513(4) 0.37991(12)
H73_3 H 0.388187 0.376175 0.369942
C106_3 C 0.39230(16) 0.6589(4) 0.37107(12)
H74_3 H 0.383985 0.724103 0.355386
C107_3 C 0.41536(15) 0.4664(4) 0.41839(12)
H75_3 H 0.422558 0.401774 0.434593
C108_3 C 0.41497(16) 0.6736(4) 0.40909(13)
H76_3 H 0.422968 0.748110 0.418830
O46_3 O 0.55663(17) 0.0357(4) 0.2547(2)
H77_3 H 0.565865 0.009559 0.276457
H78_3 H 0.575225 0.030579 0.236887
Cd8_2 Cd 0.18956(2) 0.41350(3) 0.75871(2)
Cd9_2 Cd 0.81044(2) 0.41350(3) 0.74129(2)
O47_2 O 0.13664(11) 0.2400(2) 0.75092(9)
O48_2 O 0.86336(11) 0.2400(2) 0.74908(9)
O59_2 O 0.26021(10) 0.7814(2) 0.70245(8)
O60_2 O 0.73979(10) 0.7814(2) 0.79755(8)
O15_3 O 0.87908(15) 0.9696(3) 0.72336(11)
H6_3 H 0.859633 0.929769 0.704755
O37_3 O 0.12092(15) 0.9696(3) 0.77664(11)
H43_3 H 0.140367 0.929769 0.795245
O17_4 O 0.05001(12) 0.0808(3) 0.02924(8)
C37_4 C 0.07992(17) 0.2558(4) 0.00370(13)
H30_4 H 0.111071 0.233115 0.012905
C38_4 C 0.04191(18) 0.1882(4) 0.01051(12)
C39_4 C 0.07431(15) 0.0764(4) 0.06742(12)
C49_4 C 0.14419(15) 0.0312(4) 0.18466(12)
C50_4 C 0.11821(14) 0.0481(4) 0.14402(12)
C52_4 C 0.10770(16) 0.1589(4) 0.12893(12)
H37_4 H 0.116015 0.224103 0.144614
C54_4 C 0.08503(16) 0.1736(4) 0.09091(13)
H39_4 H 0.077032 0.248110 0.081170
O1_4 O 0.10796(12) 0.4288(3) 0.97853(8)
O2_4 O 0.14811(11) 0.4325(3) 0.80582(9)
H1_4 H 0.136471 0.182881 0.734511
H2_4 H 0.114861 0.236301 0.764051
O4_2 O 0.23990(9) 0.5673(2) 0.76026(7)
H3_4 H 0.242481 0.571393 0.785318
O5_4 O 0.20872(18) 0.3214(3) 0.70870(10)
O7_4 O 0.20911(13) 0.2879(3) 0.52964(8)
O8_4 O 0.08916(12) 0.0888(3) 0.44470(10)
O16_4 O 0.19182(16) 0.5826(3) 0.83102(10)
C1_4 C 0.02380(18) 0.3934(4) 0.96939(12)
H10_4 H 0.017641 0.463000 0.955604
C2_4 C 0.06967(17) 0.3580(4) 0.98278(12)
C3_4 C 0.11983(16) 0.4407(4) 0.94209(12)
C4_4 C 0.15321(17) 0.5259(4) 0.93934(13)
H11_4 H 0.165964 0.569858 0.961152
C5_4 C 0.16767(17) 0.5458(4) 0.90422(13)
H12_4 H 0.190020 0.603470 0.902299
C6_4 C 0.14877(16) 0.4794(4) 0.87169(12)
C7_4 C 0.11685(17) 0.3934(4) 0.87552(13)
H13_4 H 0.104799 0.347225 0.854041
C8_4 C 0.10206(17) 0.3733(4) 0.91047(13)
H14_4 H 0.080210 0.314450 0.912503
C9_4 C 0.16453(18) 0.5004(5) 0.83397(14)
C10_4 C 0.2443(2) 0.3393(4) 0.69303(14)
C11_4 C 0.23769(15) 0.3259(4) 0.64993(11)
C12_4 C 0.20022(17) 0.2588(4) 0.63215(13)
H15_4 H 0.180644 0.223665 0.647384
C13_4 C 0.19095(17) 0.2424(4) 0.59283(13)
H16_4 H 0.165781 0.195332 0.581435
C14_4 C 0.21922(17) 0.2963(4) 0.57019(12)
C15_4 C 0.19043(18) 0.1831(4) 0.51409(12)
C16_4 C 0.14944(18) 0.1861(4) 0.48692(12)
H17_4 H 0.133817 0.256459 0.480053
C17_4 C 0.13196(16) 0.0820(4) 0.47001(12)
C18_4 C 0.07848(18) 0.0109(4) 0.41377(13)
H18_4 H 0.141137 0.012796 0.395174
C34_4 C 0.21337(17) 0.0801(4) 0.52513(12)
H27_4 H 0.241616 0.079595 0.543065
C35_4 C 0.25637(19) 0.3640(5) 0.58649(13)
H28_4 H 0.275304 0.400731 0.571040
C36_4 C 0.26559(17) 0.3775(5) 0.62688(14)
H29_4 H 0.291326 0.422627 0.638385
O40_4 O 0.05955(11) 0.3566(3) 0.53313(9)
O41_4 O 0.17163(11) 0.6160(3) 0.68068(8)
O42_4 O 0.13854(13) 0.7135(3) 0.76778(11)
H45_4 H 0.146070 0.693773 0.792035
H46_4 H 0.122260 0.651243 0.759385
O43_4 O 0.13110(12) 0.4924(3) 0.71139(9)
C94_4 C 0.00416(16) 0.2205(4) 0.50223(12)
H68_4 H 0.028996 0.174435 0.496950
C95_4 C 0.01301(17) 0.3237(4) 0.52324(12)
C96_4 C 0.07650(16) 0.4025(4) 0.56978(13)
C97_4 C 0.06097(17) 0.3654(4) 0.60291(14)
H69_4 H 0.036095 0.312269 0.601057
C98_4 C 0.08242(16) 0.4074(4) 0.63886(13)
H70_4 H 0.072440 0.380595 0.661256
C99_4 C 0.11866(15) 0.4891(4) 0.64201(12)
C100_4 C 0.13350(16) 0.5246(4) 0.60818(12)
H71_4 H 0.157943 0.578956 0.609810
C101_4 C 0.11309(16) 0.4819(4) 0.57231(13)
H72_4 H 0.123836 0.506218 0.549964
C102_4 C 0.14270(17) 0.5346(4) 0.68106(13)
C51_4 C 0.10581(15) 0.9513(4) 0.12009(12)
H36_4 H 0.111813 0.876175 0.130058
C53_4 C 0.08464(15) 0.9664(4) 0.08161(12)
H38_4 H 0.077442 0.901774 0.065407
O33_2 O 0.00883(14) 0.7678(3) 0.19400(11)
H57_4 H 0.012836 0.878151 0.132235
Cd10_2 Cd -0.000000 0.66803(5) 0.250000
O9_4 O 0.05993(13) 0.7810(4) 0.29023(11)
O12_4 O 0.21432(13) 0.8690(3) 0.51926(8)
O14_4 O 0.29460(13) 0.6263(3) 0.68061(8)
O15_4 O 0.37908(15) 0.4696(3) 0.72336(11)
H6_4 H 0.359633 0.429769 0.704755
H7_4 H 0.398783 0.524019 0.719685
C19_4 C 0.11022(17) 0.9846(4) 0.38972(14)
C20_4 C 0.09534(16) 0.9157(4) 0.35743(13)
H19_4 H 0.116790 0.895147 0.341469
C21_4 C 0.04945(16) 0.8770(4) 0.34845(12)
C22_4 C 0.01834(17) 0.9045(5) 0.37337(15)
C23_4 C 0.03321(18) 0.9703(5) 0.40620(15)
H21_4 H 0.012456 0.986918 0.423151
C24_4 C 0.03266(19) 0.8042(4) 0.31274(13)
C25_4 C 0.15392(16) 0.9759(4) 0.48078(12)
H22_4 H 0.141963 0.906330 0.469101
C26_4 C 0.19360(17) 0.9766(4) 0.50903(12)
C27_4 C 0.22872(17) 0.8397(4) 0.55849(12)
C28_4 C 0.21254(16) 0.8939(4) 0.58859(12)
H23_4 H 0.191146 0.955594 0.583575
C29_4 C 0.22789(15) 0.8572(4) 0.62598(12)
H24_4 H 0.217937 0.896757 0.646401
C30_4 C 0.25764(15) 0.7633(4) 0.63397(12)
C31_4 C 0.2734(2) 0.7089(4) 0.60320(13)
H25_4 H 0.293856 0.645359 0.608040
C32_4 C 0.2593(2) 0.7474(4) 0.56578(13)
H26_4 H 0.270482 0.710837 0.545370
C33_4 C 0.27238(16) 0.7210(4) 0.67476(12)
O46_4 O 0.05663(17) 0.5357(4) 0.2547(2)
H77_4 H 0.065865 0.509559 0.276457
H78_4 H 0.075225 0.530579 0.236887
O18_4 O 0.94045(11) 0.3566(3) 0.96687(9)
O19_4 O 0.82837(11) 0.6160(3) 0.81932(8)
O20_4 O 0.86146(13) 0.7135(3) 0.73222(11)
H8_4 H 0.853930 0.693773 0.707965
H9_4 H 0.877740 0.651243 0.740615
O21_4 O 0.86890(12) 0.4924(3) 0.78861(9)
C40_4 C 0.99584(16) 0.2205(4) 0.99777(12)
C41_4 C 0.98699(17) 0.3237(4) 0.97676(12)
C42_4 C 0.92350(16) 0.4025(4) 0.93022(13)
C43_4 C 0.93903(17) 0.3654(4) 0.89709(14)
H32_4 H 0.963905 0.312269 0.898943
C44_4 C 0.91758(16) 0.4074(4) 0.86114(13)
H33_4 H 0.927560 0.380595 0.838744
C45_4 C 0.88134(15) 0.4891(4) 0.85799(12)
C46_4 C 0.86650(16) 0.5246(4) 0.89182(12)
H34_4 H 0.842057 0.578956 0.890190
C47_4 C 0.88691(16) 0.4819(4) 0.92769(13)
H35_4 H 0.876164 0.506218 0.950036
C48_4 C 0.85730(17) 0.5346(4) 0.81894(13)
O24_4 O 0.89204(12) 0.4288(3) 0.52147(8)
O25_4 O 0.85189(11) 0.4325(3) 0.69418(9)
H40_4 H 0.863529 0.182881 0.765489
H41_4 H 0.885139 0.236301 0.735949
O27_2 O 0.76010(9) 0.5673(2) 0.73974(7)
H42_4 H 0.757519 0.571393 0.714682
O28_4 O 0.79128(18) 0.3214(3) 0.79130(10)
O30_4 O 0.79089(13) 0.2879(3) 0.97036(8)
O38_4 O 0.80818(16) 0.5826(3) 0.66898(10)
O39_4 O 0.94999(12) 0.0808(3) 0.47076(8)
C55_4 C 0.97620(18) 0.3934(4) 0.53061(12)
H47_4 H 0.982359 0.463000 0.544396
C56_4 C 0.93033(17) 0.3580(4) 0.51722(12)
C57_4 C 0.88017(16) 0.4407(4) 0.55791(12)
C58_4 C 0.84679(17) 0.5259(4) 0.56066(13)
H48_4 H 0.834036 0.569858 0.538848
C59_4 C 0.83233(17) 0.5458(4) 0.59578(13)
H49_4 H 0.809980 0.603470 0.597701
C60_4 C 0.85123(16) 0.4794(4) 0.62831(12)
C61_4 C 0.88315(17) 0.3934(4) 0.62448(13)
H50_4 H 0.895201 0.347225 0.645959
C62_4 C 0.89794(17) 0.3733(4) 0.58953(13)
H51_4 H 0.919790 0.314450 0.587497
C63_4 C 0.83547(18) 0.5004(5) 0.66603(14)
C64_4 C 0.7557(2) 0.3393(4) 0.80697(14)
C65_4 C 0.76231(15) 0.3259(4) 0.85007(11)
C66_4 C 0.79978(17) 0.2588(4) 0.86785(13)
H52_4 H 0.819356 0.223665 0.852616
C67_4 C 0.80905(17) 0.2424(4) 0.90717(13)
H53_4 H 0.834219 0.195332 0.918565
C68_4 C 0.78078(17) 0.2963(4) 0.92981(12)
C69_4 C 0.80957(18) 0.1831(4) 0.98591(12)
C88_4 C 0.78663(17) 0.0801(4) 0.97487(12)
H64_4 H 0.758384 0.079595 0.956935
C89_4 C 0.74363(19) 0.3640(5) 0.91351(13)
H65_4 H 0.724696 0.400731 0.928960
C90_4 C 0.73441(17) 0.3775(5) 0.87312(14)
H66_4 H 0.708674 0.422627 0.861615
C91_4 C 0.92008(17) 0.2558(4) 0.49630(13)
H67_4 H 0.888929 0.233115 0.487095
C92_4 C 0.95809(18) 0.1882(4) 0.48949(12)
C93_4 C 0.92569(15) 0.0764(4) 0.43258(12)
C103_4 C 0.85581(15) 0.0312(4) 0.31534(12)
C104_4 C 0.88179(14) 0.0481(4) 0.35598(12)
C106_4 C 0.89230(16) 0.1589(4) 0.37107(12)
H74_4 H 0.883985 0.224103 0.355386
C108_4 C 0.91497(16) 0.1736(4) 0.40909(13)
H76_4 H 0.922968 0.248110 0.418830
O32_2 O 0.94007(13) 0.7810(4) 0.20977(11)
C73_4 C 0.88978(17) 0.9846(4) 0.11028(14)
C74_4 C 0.90466(16) 0.9157(4) 0.14257(13)
H56_4 H 0.883210 0.895147 0.158531
C75_4 C 0.95055(16) 0.8770(4) 0.15155(12)
C76_4 C 0.98166(17) 0.9045(5) 0.12663(15)
C77_4 C 0.96679(18) 0.9703(5) 0.09380(15)
H58_4 H 0.987544 0.986918 0.076849
C78_4 C 0.96734(19) 0.8042(4) 0.18726(13)
C79_4 C 0.84608(16) 0.9759(4) 0.01922(12)
H59_4 H 0.858037 0.906330 0.030899
Cd10_3 Cd 1.000000 0.66803(5) 0.250000
O10_4 O 0.99117(14) 0.7678(3) 0.30600(11)
O11_4 O 0.94337(17) 0.5357(4) 0.2453(2)
H4_4 H 0.934135 0.509559 0.223543
H5_4 H 0.924775 0.530579 0.263113
H20_4 H 0.987164 0.878151 0.367765
O34_4 O 0.78568(13) 0.8690(3) 0.98074(8)
O36_4 O 0.70540(13) 0.6263(3) 0.81939(8)
O37_4 O 0.62092(15) 0.4696(3) 0.77664(11)
H43_4 H 0.640367 0.429769 0.795245
H44_4 H 0.601217 0.524019 0.780315
C80_4 C 0.80640(17) 0.9766(4) 0.99097(12)
C81_4 C 0.77128(17) 0.8397(4) 0.94151(12)
C82_4 C 0.78746(16) 0.8939(4) 0.91141(12)
H60_4 H 0.808854 0.955594 0.916425
C83_4 C 0.77211(15) 0.8572(4) 0.87402(12)
H61_4 H 0.782063 0.896757 0.853599
C84_4 C 0.74236(15) 0.7633(4) 0.86603(12)
C85_4 C 0.7266(2) 0.7089(4) 0.89680(13)
H62_4 H 0.706144 0.645359 0.891960
C86_4 C 0.7407(2) 0.7474(4) 0.93422(13)
H63_4 H 0.729518 0.710837 0.954630
C87_4 C 0.72762(16) 0.7210(4) 0.82524(12)
C105_4 C 0.89419(15) 0.9513(4) 0.37991(12)
H73_4 H 0.888187 0.876175 0.369942
C107_4 C 0.91536(15) 0.9664(4) 0.41839(12)
H75_4 H 0.922558 0.901774 0.434593
H31_3 H 0.028996 0.825565 0.996950
O31_3 O 0.08916(12) 0.9112(3) 0.94470(10)
C70_3 C 0.14944(18) 0.8139(4) 0.98692(12)
H54_3 H 0.133817 0.743541 0.980053
C71_3 C 0.13196(16) 0.9180(4) 0.97001(12)
C72_3 C 0.07848(18) 0.9891(4) 0.91377(13)
H55_3 H 0.141137 0.987204 0.895174
H31_4 H 0.971004 0.174435 0.003050
O31_4 O 0.91084(12) 0.0888(3) 0.05530(10)
C70_4 C 0.85056(18) 0.1861(4) 0.01308(12)
H54_4 H 0.866183 0.256459 0.019947
C71_4 C 0.86804(16) 0.0820(4) 0.02999(12)
C72_4 C 0.92152(18) 0.0109(4) 0.08623(13)
H55_4 H 0.858863 0.012796 0.104826
loop_
_geom_bond_atom_site_label_1
_geom_bond_atom_site_label_2
_geom_bond_site_symmetry_1
_geom_bond_site_symmetry_2
H6 O15 1_555 1_555
H43 O37 1_555 1_555
Cd1 O2 1_555 1_555
Cd2 O9 1_555 1_555
Cd3 O14 1_555 1_555
O1 C2 1_555 1_555
O3 Cd1 1_555 1_555
H1 O3 1_555 1_555
H2 O3 1_555 1_555
O5 Cd1 1_555 1_555
O51 C10 1_555 1_555
O7 C14 1_555 1_555
O8 C17 1_555 1_555
O9 C24 1_555 1_555
O10 Cd2 1_555 1_555
O11 Cd2 1_555 1_555
H4 O11 1_555 1_555
H5 O11 1_555 1_555
O12 C26 1_555 1_555
O13 C33 1_555 1_555
O14 C33 1_555 1_555
O18 C41 1_555 1_555
C1 H10 1_555 1_555
C2 C1 1_555 1_555
C3 O1 1_555 1_555
C7 C6 1_555 1_555
H13 C7 1_555 1_555
C8 C3 1_555 1_555
H14 C8 1_555 1_555
C10 O5 1_555 1_555
C11 C10 1_555 1_555
C12 C11 1_555 1_555
H15 C12 1_555 1_555
C13 C12 1_555 1_555
H16 C13 1_555 1_555
C14 C13 1_555 1_555
C15 O7 1_555 1_555
C16 C15 1_555 1_555
H17 C16 1_555 1_555
C17 C16 1_555 1_555
C18 O8 1_555 1_555
C19 C18 1_555 1_555
H18 C19 1_555 1_555
C20 C19 1_555 1_555
H19 C20 1_555 1_555
C21 C20 1_555 1_555
C22 C21 1_555 1_555
H20 C22 1_555 1_555
C23 C18 1_555 1_555
H21 C23 1_555 1_555
C24 O10 1_555 1_555
C25 C17 1_555 1_555
H22 C25 1_555 1_555
C26 C25 1_555 1_555
C27 O12 1_555 1_555
C28 C27 1_555 1_555
H23 C28 1_555 1_555
C29 C28 1_555 1_555
H24 C29 1_555 1_555
C30 C29 1_555 1_555
C31 C30 1_555 1_555
H25 C31 1_555 1_555
C32 C27 1_555 1_555
H26 C32 1_555 1_555
C33 C30 1_555 1_555
C34 C15 1_555 1_555
H27 C34 1_555 1_555
C35 C14 1_555 1_555
H28 C35 1_555 1_555
C36 C11 1_555 1_555
H29 C36 1_555 1_555
C41 C1 1_555 1_555
C42 O18 1_555 1_555
C43 C42 1_555 1_555
H32 C43 1_555 1_555
C44 C43 1_555 1_555
H33 C44 1_555 1_555
C45 C44 1_555 1_555
C47 C42 1_555 1_555
Cd5 O21 1_555 1_555
Cd6 O36 1_555 1_555
O24 C56 1_555 1_555
O25 Cd5 1_555 1_555
O26 Cd5 1_555 1_555
H40 O26 1_555 1_555
H41 O26 1_555 1_555
O28 Cd5 1_555 1_555
O52 C64 1_555 1_555
O30 C68 1_555 1_555
O34 C80 1_555 1_555
O35 C87 1_555 1_555
O36 C87 1_555 1_555
O39 C92 1_555 1_555
O40 C95 1_555 1_555
O43 Cd1 1_555 1_555
O44 C103 1_555 1_555
O45 C103 1_555 1_555
C55 H47 1_555 1_555
C56 C55 1_555 1_555
C57 O24 1_555 1_555
C61 C60 1_555 1_555
H50 C61 1_555 1_555
C62 C57 1_555 1_555
H51 C62 1_555 1_555
C64 O28 1_555 1_555
C65 C64 1_555 1_555
C66 C65 1_555 1_555
H52 C66 1_555 1_555
C67 C66 1_555 1_555
H53 C67 1_555 1_555
C68 C67 1_555 1_555
C69 O30 1_555 1_555
C81 O34 1_555 1_555
C82 C81 1_555 1_555
H60 C82 1_555 1_555
C83 C82 1_555 1_555
H61 C83 1_555 1_555
C84 C83 1_555 1_555
C85 C84 1_555 1_555
H62 C85 1_555 1_555
C86 C81 1_555 1_555
H63 C86 1_555 1_555
C87 C84 1_555 1_555
C88 C69 1_555 1_555
H64 C88 1_555 1_555
C89 C68 1_555 1_555
H65 C89 1_555 1_555
C90 C65 1_555 1_555
H66 C90 1_555 1_555
C91 C56 1_555 1_555
H67 C91 1_555 1_555
C92 C91 1_555 1_555
C93 O39 1_555 1_555
C94 C92 1_555 1_555
H68 C94 1_555 1_555
C95 C55 1_555 1_555
C96 O40 1_555 1_555
C97 C96 1_555 1_555
H69 C97 1_555 1_555
C98 C97 1_555 1_555
H70 C98 1_555 1_555
C99 C98 1_555 1_555
C101 C96 1_555 1_555
C103 C104 1_555 1_555
C104 C105 1_555 1_555
C105 H73 1_555 1_555
C106 C104 1_555 1_555
H74 C106 1_555 1_555
C107 C93 1_555 1_555
H75 C107 1_555 1_555
C108 C93 1_555 1_555
H76 C108 1_555 1_555
O46 Cd2 1_555 1_555
H77 O46 1_555 1_555
H78 O46 1_555 1_555
Cd8 O35 1_555 1_555
Cd9 O13 1_555 1_555
Cd13 O26 1_555 1_555
Cd14 O3 1_555 1_555
Cd16 O44 1_555 1_555
Cd17 O35 1_555 1_555
Cd18 O13 1_555 1_555
Cd19 O51 1_555 1_555
Cd20 O52 1_555 1_555
Cd22 O44 1_555 1_555
O47 Cd6 1_555 1_555
O48 Cd3 1_555 1_555
O49 Cd3 1_555 1_555
O50 Cd6 1_555 1_555
O55 Cd2 1_555 1_555
O56 Cd2 1_555 1_555
O59 Cd5 1_555 1_555
O60 Cd1 1_555 1_555
O65 Cd3 1_555 1_555
O66 Cd6 1_555 1_555
C7 C8 1_555 1_555
C21 C24 1_555 1_555
C22 C23 1_555 1_555
C26 C34 1_555 1_555
C31 C32 1_555 1_555
C35 C36 1_555 1_555
C40 C41 1_555 1_555
O45 Cd16 1_555 1_555
C61 C62 1_555 1_555
C80 C88 1_555 1_555
C85 C86 1_555 1_555
C89 C90 1_555 1_555
C94 C95 1_555 1_555
C105 C107 1_555 1_555
C106 C108 1_555 1_555
Cd8 O47 1_555 1_555
Cd9 O48 1_555 1_555
Cd17 O50 1_555 1_555
Cd18 O49 1_555 1_555
Cd19 O60 1_555 1_555
Cd20 O59 1_555 1_555
O17 C38 1_555 1_555
O22 C49 1_555 1_555
O23 C49 1_555 1_555
H30 C37 1_555 1_555
C38 C37 1_555 1_555
C39 O17 1_555 1_555
C49 C50 1_555 1_555
C50 C51 1_555 1_555
C51 H36 1_555 1_555
C52 C50 1_555 1_555
H37 C52 1_555 1_555
C53 C39 1_555 1_555
H38 C53 1_555 1_555
C54 C39 1_555 1_555
H39 C54 1_555 1_555
O31 C71 1_555 1_555
O55 C78 1_555 1_555
O56 C78 1_555 1_555
H54 C70 1_555 1_555
C71 C70 1_555 1_555
C72 O31 1_555 1_555
C73 C72 1_555 1_555
H55 C73 1_555 1_555
C74 C73 1_555 1_555
H56 C74 1_555 1_555
C75 C74 1_555 1_555
C76 C75 1_555 1_555
H57 C76 1_555 1_555
C77 C72 1_555 1_555
H58 C77 1_555 1_555
C78 C75 1_555 1_555
C79 C71 1_555 1_555
H59 C79 1_555 1_555
Cd15 O22 1_555 1_555
Cd21 O22 1_555 1_555
O23 Cd15 1_555 1_555
C51 C53 1_555 1_555
C52 C54 1_555 1_555
C76 C77 1_555 1_555
Cd17 O19 1_555 1_555
H3 O49 1_555 1_555
O16 C9 1_555 1_555
O19 C48 1_555 1_555
O20 Cd17 1_555 1_555
H8 O20 1_555 1_555
H9 O20 1_555 1_555
H11 C4 1_555 1_555
C5 C4 1_555 1_555
H12 C5 1_555 1_555
H34 C46 1_555 1_555
H42 O50 1_555 1_555
O38 C63 1_555 1_555
O41 Cd18 1_555 1_555
O42 Cd18 1_555 1_555
H45 O42 1_555 1_555
H46 O42 1_555 1_555
H48 C58 1_555 1_555
C59 C58 1_555 1_555
H49 C59 1_555 1_555
H71 C100 1_555 1_555
C102 O41 1_555 1_555
O53 Cd17 1_555 1_555
O54 Cd18 1_555 1_555
O61 Cd17 1_555 1_555
O62 Cd18 1_555 1_555
O10_2 Cd2_2 1_555 1_555
O11_2 Cd2_2 1_555 1_555
H4_2 O11_2 1_555 1_555
H5_2 O11_2 1_555 1_555
Cd14 O36_2 1_555 1_555
O34_2 C80_2 1_555 1_555
O60 C87_2 1_555 1_555
O36_2 C87_2 1_555 1_555
O37_2 Cd14 1_555 1_555
H43_2 O37_2 1_555 1_555
H44_2 O37_2 1_555 1_555
C81_2 O34_2 1_555 1_555
C82_2 C81_2 1_555 1_555
H60_2 C82_2 1_555 1_555
C83_2 C82_2 1_555 1_555
H61_2 C83_2 1_555 1_555
C84_2 C83_2 1_555 1_555
C85_2 C84_2 1_555 1_555
H62_2 C85_2 1_555 1_555
C86_2 C81_2 1_555 1_555
H63_2 C86_2 1_555 1_555
C87_2 C84_2 1_555 1_555
C105_2 H73_2 1_555 1_555
H75_2 C107_2 1_555 1_555
O50_2 Cd14 1_555 1_555
O54 Cd14 1_555 1_555
O55_2 Cd2_2 1_555 1_555
O62 Cd14 1_555 1_555
O66_2 Cd14 1_555 1_555
O45_2 Cd16_2 1_555 1_555
C85_2 C86_2 1_555 1_555
C105_2 C107_2 1_555 1_555
Cd19 O50_2 1_555 1_555
O55_2 C78_2 1_555 1_555
C74_2 C73_2 1_555 1_555
H56_2 C74_2 1_555 1_555
C75_2 C74_2 1_555 1_555
C76_2 C75_2 1_555 1_555
H58_2 C77_2 1_555 1_555
C78_2 C75_2 1_555 1_555
H59_2 C79_2 1_555 1_555
C76_2 C77_2 1_555 1_555
Cd19 O19_2 1_555 1_555
O18_2 C41_2 1_555 1_555
O19_2 C48_2 1_555 1_555
O20_2 Cd19 1_555 1_555
H8_2 O20_2 1_555 1_555
H9_2 O20_2 1_555 1_555
O21_2 C48_2 1_555 1_555
C42_2 O18_2 1_555 1_555
C43_2 C42_2 1_555 1_555
H32_2 C43_2 1_555 1_555
C44_2 C43_2 1_555 1_555
H33_2 C44_2 1_555 1_555
C45_2 C44_2 1_555 1_555
C46_2 C45_2 1_555 1_555
H34_2 C46_2 1_555 1_555
C47_2 C42_2 1_555 1_555
H35_2 C47_2 1_555 1_555
C48_2 C45_2 1_555 1_555
Cd9 O21_2 1_555 1_555
O24_2 C56_2 1_555 1_555
O25_2 Cd9 1_555 1_555
H40_2 O48 1_555 1_555
H41_2 O48 1_555 1_555
H42_2 O50_2 1_555 1_555
O28_2 Cd9 1_555 1_555
O54 C64_2 1_555 1_555
O30_2 C68_2 1_555 1_555
O38_2 C63_2 1_555 1_555
O39_2 C92_2 1_555 1_555
O44_2 C103_2 1_555 1_555
C55_2 H47_2 1_555 1_555
C56_2 C55_2 1_555 1_555
C57_2 O24_2 1_555 1_555
C58_2 C57_2 1_555 1_555
H48_2 C58_2 1_555 1_555
C59_2 C58_2 1_555 1_555
H49_2 C59_2 1_555 1_555
C60_2 C59_2 1_555 1_555
C61_2 C60_2 1_555 1_555
H50_2 C61_2 1_555 1_555
C62_2 C57_2 1_555 1_555
H51_2 C62_2 1_555 1_555
C63_2 O25_2 1_555 1_555
C64_2 O28_2 1_555 1_555
C65_2 C64_2 1_555 1_555
C66_2 C65_2 1_555 1_555
H52_2 C66_2 1_555 1_555
C67_2 C66_2 1_555 1_555
H53_2 C67_2 1_555 1_555
C68_2 C67_2 1_555 1_555
C69_2 O30_2 1_555 1_555
C88_2 C69_2 1_555 1_555
H64_2 C88_2 1_555 1_555
C89_2 C68_2 1_555 1_555
H65_2 C89_2 1_555 1_555
C90_2 C65_2 1_555 1_555
H66_2 C90_2 1_555 1_555
C91_2 C56_2 1_555 1_555
H67_2 C91_2 1_555 1_555
C92_2 C91_2 1_555 1_555
C93_2 O39_2 1_555 1_555
C103_2 C104_2 1_555 1_555
C106_2 C104_2 1_555 1_555
H74_2 C106_2 1_555 1_555
C108_2 C93_2 1_555 1_555
H76_2 C108_2 1_555 1_555
Cd22_2 O44_2 1_555 1_555
O63 Cd19 1_555 1_555
C40_2 C41_2 1_555 1_555
C46_2 C47_2 1_555 1_555
Cd9 O50_2 1_555 1_555
C60_2 C63_2 1_555 1_555
C61_2 C62_2 1_555 1_555
C89_2 C90_2 1_555 1_555
C106_2 C108_2 1_555 1_555
Cd2_3 O9_2 1_555 1_555
Cd13 O14_2 1_555 1_555
O9_2 C24_2 1_555 1_555
O12_2 C26_2 1_555 1_555
O59 C33_2 1_555 1_555
O14_2 C33_2 1_555 1_555
O15_2 Cd13 1_555 1_555
H6_2 O15_2 1_555 1_555
H7_2 O15_2 1_555 1_555
C20_2 C19_2 1_555 1_555
H19_2 C20_2 1_555 1_555
C21_2 C20_2 1_555 1_555
C22_2 C21_2 1_555 1_555
H21_2 C23_2 1_555 1_555
H22_2 C25_2 1_555 1_555
C26_2 C25_2 1_555 1_555
C27_2 O12_2 1_555 1_555
C28_2 C27_2 1_555 1_555
H23_2 C28_2 1_555 1_555
C29_2 C28_2 1_555 1_555
H24_2 C29_2 1_555 1_555
C30_2 C29_2 1_555 1_555
C31_2 C30_2 1_555 1_555
H25_2 C31_2 1_555 1_555
C32_2 C27_2 1_555 1_555
H26_2 C32_2 1_555 1_555
C33_2 C30_2 1_555 1_555
O46_2 Cd2_3 1_555 1_555
H77_2 O46_2 1_555 1_555
H78_2 O46_2 1_555 1_555
O49_2 Cd13 1_555 1_555
O53 Cd13 1_555 1_555
O56_2 Cd2_3 1_555 1_555
O61 Cd13 1_555 1_555
O65_2 Cd13 1_555 1_555
C21_2 C24_2 1_555 1_555
C22_2 C23_2 1_555 1_555
C31_2 C32_2 1_555 1_555
Cd20 O49_2 1_555 1_555
C51_2 H36_2 1_555 1_555
H38_2 C53_2 1_555 1_555
O23_2 Cd15_2 1_555 1_555
C51_2 C53_2 1_555 1_555
Cd8 O2_2 1_555 1_555
O1_2 C2_2 1_555 1_555
O2_2 C9_2 1_555 1_555
H1_2 O47 1_555 1_555
H2_2 O47 1_555 1_555
O49_2 Cd8 1_555 1_555
H3_2 O49_2 1_555 1_555
O5_2 Cd8 1_555 1_555
O53 C10_2 1_555 1_555
O7_2 C14_2 1_555 1_555
O8_2 C17_2 1_555 1_555
O16_2 C9_2 1_555 1_555
C1_2 H10_2 1_555 1_555
C2_2 C1_2 1_555 1_555
C3_2 O1_2 1_555 1_555
C4_2 C3_2 1_555 1_555
H11_2 C4_2 1_555 1_555
C5_2 C4_2 1_555 1_555
H12_2 C5_2 1_555 1_555
C6_2 C5_2 1_555 1_555
C7_2 C6_2 1_555 1_555
H13_2 C7_2 1_555 1_555
C8_2 C3_2 1_555 1_555
H14_2 C8_2 1_555 1_555
C9_2 C6_2 1_555 1_555
C10_2 O5_2 1_555 1_555
C11_2 C10_2 1_555 1_555
C12_2 C11_2 1_555 1_555
H15_2 C12_2 1_555 1_555
C13_2 C12_2 1_555 1_555
H16_2 C13_2 1_555 1_555
C14_2 C13_2 1_555 1_555
C15_2 O7_2 1_555 1_555
C16_2 C15_2 1_555 1_555
H17_2 C16_2 1_555 1_555
C17_2 C16_2 1_555 1_555
C18_2 O8_2 1_555 1_555
C34_2 C15_2 1_555 1_555
H27_2 C34_2 1_555 1_555
C35_2 C14_2 1_555 1_555
H28_2 C35_2 1_555 1_555
C36_2 C11_2 1_555 1_555
H29_2 C36_2 1_555 1_555
O40_2 C95_2 1_555 1_555
O41_2 Cd20 1_555 1_555
O42_2 Cd20 1_555 1_555
H45_2 O42_2 1_555 1_555
H46_2 O42_2 1_555 1_555
O43_2 Cd8 1_555 1_555
H68_2 C94_2 1_555 1_555
C96_2 O40_2 1_555 1_555
C97_2 C96_2 1_555 1_555
H69_2 C97_2 1_555 1_555
C98_2 C97_2 1_555 1_555
H70_2 C98_2 1_555 1_555
C99_2 C98_2 1_555 1_555
C100_2 C99_2 1_555 1_555
H71_2 C100_2 1_555 1_555
C101_2 C96_2 1_555 1_555
H72_2 C101_2 1_555 1_555
C102_2 O41_2 1_555 1_555
O64 Cd20 1_555 1_555
C7_2 C8_2 1_555 1_555
C35_2 C36_2 1_555 1_555
O43_2 C102_2 1_555 1_555
C94_2 C95_2 1_555 1_555
C99_2 C102_2 1_555 1_555
C100_2 C101_2 1_555 1_555
O17_2 C38_2 1_555 1_555
O22_2 C49_2 1_555 1_555
H30_2 C37_2 1_555 1_555
C38_2 C37_2 1_555 1_555
C39_2 O17_2 1_555 1_555
C49_2 C50_2 1_555 1_555
C52_2 C50_2 1_555 1_555
H37_2 C52_2 1_555 1_555
C54_2 C39_2 1_555 1_555
H39_2 C54_2 1_555 1_555
Cd21_2 O22_2 1_555 1_555
C52_2 C54_2 1_555 1_555
Cd21 O19_3 1_555 1_555
H3_3 O4 1_555 1_555
O16_3 C9_3 1_555 1_555
O19_3 C48_3 1_555 1_555
O20_3 Cd21 1_555 1_555
H8_3 O20_3 1_555 1_555
H9_3 O20_3 1_555 1_555
H11_3 C4_3 1_555 1_555
C5_3 C4_3 1_555 1_555
H12_3 C5_3 1_555 1_555
H34_3 C46_3 1_555 1_555
Cd22 O4 1_555 1_555
O27 Cd21 1_555 1_555
H42_3 O27 1_555 1_555
O38_3 C63_3 1_555 1_555
O41_3 Cd22 1_555 1_555
O42_3 Cd22 1_555 1_555
H45_3 O42_3 1_555 1_555
H46_3 O42_3 1_555 1_555
H48_3 C58_3 1_555 1_555
C59_3 C58_3 1_555 1_555
H49_3 C59_3 1_555 1_555
H71_3 C100_3 1_555 1_555
C102_3 O41_3 1_555 1_555
Cd15_2 O4 1_555 1_555
Cd16_2 O27 1_555 1_555
O53_2 Cd21 1_555 1_555
O54_2 Cd22 1_555 1_555
O57 Cd22 1_555 1_555
O58 Cd21 1_555 1_555
O17_3 C38_3 1_555 1_555
O61 C49_3 1_555 1_555
O65_2 C49_3 1_555 1_555
H30_3 C37_3 1_555 1_555
C38_3 C37_3 1_555 1_555
C39_3 O17_3 1_555 1_555
C49_3 C50_3 1_555 1_555
C50_3 C51_3 1_555 1_555
C51_3 H36_3 1_555 1_555
C52_3 C50_3 1_555 1_555
H37_3 C52_3 1_555 1_555
C53_3 C39_3 1_555 1_555
H38_3 C53_3 1_555 1_555
C54_3 C39_3 1_555 1_555
H39_3 C54_3 1_555 1_555
O31_2 C71_2 1_555 1_555
O32 C78_3 1_555 1_555
O33 C78_3 1_555 1_555
H54_2 C70_2 1_555 1_555
C71_2 C70_2 1_555 1_555
C72_2 O31_2 1_555 1_555
C73_3 C72_2 1_555 1_555
H55_2 C73_3 1_555 1_555
C74_3 C73_3 1_555 1_555
H56_3 C74_3 1_555 1_555
C75_3 C74_3 1_555 1_555
C76_3 C75_3 1_555 1_555
H57_3 C76_3 1_555 1_555
C77_3 C72_2 1_555 1_555
H58_3 C77_3 1_555 1_555
C78_3 C75_3 1_555 1_555
C79_3 C71_2 1_555 1_555
H59_3 C79_3 1_555 1_555
Cd10 O32 1_555 1_555
C51_3 C53_3 1_555 1_555
C52_3 C54_3 1_555 1_555
O33 Cd10 1_555 1_555
C76_3 C77_3 1_555 1_555
Cd1_2 O2_3 1_555 1_555
Cd10 O9_3 1_555 1_555
Cd15_2 O14_3 1_555 1_555
O1_3 C2_3 1_555 1_555
O3_2 Cd1_2 1_555 1_555
H1_3 O3_2 1_555 1_555
H2_3 O3_2 1_555 1_555
O5_3 Cd1_2 1_555 1_555
O6 C10_3 1_555 1_555
O7_3 C14_3 1_555 1_555
O8_3 C17_3 1_555 1_555
O9_3 C24_3 1_555 1_555
O10_3 Cd10 1_555 1_555
O11_3 Cd10 1_555 1_555
H4_3 O11_3 1_555 1_555
H5_3 O11_3 1_555 1_555
O12_3 C26_3 1_555 1_555
O57 C33_3 1_555 1_555
O14_3 C33_3 1_555 1_555
O18_3 C41_3 1_555 1_555
C1_3 H10_3 1_555 1_555
C2_3 C1_3 1_555 1_555
C3_3 O1_3 1_555 1_555
C7_3 C6_3 1_555 1_555
H13_3 C7_3 1_555 1_555
C8_3 C3_3 1_555 1_555
H14_3 C8_3 1_555 1_555
C10_3 O5_3 1_555 1_555
C11_3 C10_3 1_555 1_555
C12_3 C11_3 1_555 1_555
H15_3 C12_3 1_555 1_555
C13_3 C12_3 1_555 1_555
H16_3 C13_3 1_555 1_555
C14_3 C13_3 1_555 1_555
C15_3 O7_3 1_555 1_555
C16_3 C15_3 1_555 1_555
H17_3 C16_3 1_555 1_555
C17_3 C16_3 1_555 1_555
C18_3 O8_3 1_555 1_555
C19_3 C18_3 1_555 1_555
H18_3 C19_3 1_555 1_555
C20_3 C19_3 1_555 1_555
H19_3 C20_3 1_555 1_555
C21_3 C20_3 1_555 1_555
C22_3 C21_3 1_555 1_555
H20_3 C22_3 1_555 1_555
C23_3 C18_3 1_555 1_555
H21_3 C23_3 1_555 1_555
C24_3 O10_3 1_555 1_555
C25_3 C17_3 1_555 1_555
H22_3 C25_3 1_555 1_555
C26_3 C25_3 1_555 1_555
C27_3 O12_3 1_555 1_555
C28_3 C27_3 1_555 1_555
H23_3 C28_3 1_555 1_555
C29_3 C28_3 1_555 1_555
H24_3 C29_3 1_555 1_555
C30_3 C29_3 1_555 1_555
C31_3 C30_3 1_555 1_555
H25_3 C31_3 1_555 1_555
C32_3 C27_3 1_555 1_555
H26_3 C32_3 1_555 1_555
C33_3 C30_3 1_555 1_555
C34_3 C15_3 1_555 1_555
H27_3 C34_3 1_555 1_555
C35_3 C14_3 1_555 1_555
H28_3 C35_3 1_555 1_555
C36_3 C11_3 1_555 1_555
H29_3 C36_3 1_555 1_555
C41_3 C1_3 1_555 1_555
C42_3 O18_3 1_555 1_555
C43_3 C42_3 1_555 1_555
H32_3 C43_3 1_555 1_555
C44_3 C43_3 1_555 1_555
H33_3 C44_3 1_555 1_555
C45_3 C44_3 1_555 1_555
C47_3 C42_3 1_555 1_555
Cd5_2 O21_3 1_555 1_555
Cd16_2 O36_3 1_555 1_555
O24_3 C56_3 1_555 1_555
O25_3 Cd5_2 1_555 1_555
O26_2 Cd5_2 1_555 1_555
H40_3 O26_2 1_555 1_555
H41_3 O26_2 1_555 1_555
O28_3 Cd5_2 1_555 1_555
O29 C64_3 1_555 1_555
O30_3 C68_3 1_555 1_555
O34_3 C80_3 1_555 1_555
O58 C87_3 1_555 1_555
O36_3 C87_3 1_555 1_555
O39_3 C92_3 1_555 1_555
O40_3 C95_3 1_555 1_555
O43_3 Cd1_2 1_555 1_555
O62 C103_3 1_555 1_555
O66_2 C103_3 1_555 1_555
C55_3 H47_3 1_555 1_555
C56_3 C55_3 1_555 1_555
C57_3 O24_3 1_555 1_555
C61_3 C60_3 1_555 1_555
H50_3 C61_3 1_555 1_555
C62_3 C57_3 1_555 1_555
H51_3 C62_3 1_555 1_555
C64_3 O28_3 1_555 1_555
C65_3 C64_3 1_555 1_555
C66_3 C65_3 1_555 1_555
H52_3 C66_3 1_555 1_555
C67_3 C66_3 1_555 1_555
H53_3 C67_3 1_555 1_555
C68_3 C67_3 1_555 1_555
C69_3 O30_3 1_555 1_555
C81_3 O34_3 1_555 1_555
C82_3 C81_3 1_555 1_555
H60_3 C82_3 1_555 1_555
C83_3 C82_3 1_555 1_555
H61_3 C83_3 1_555 1_555
C84_3 C83_3 1_555 1_555
C85_3 C84_3 1_555 1_555
H62_3 C85_3 1_555 1_555
C86_3 C81_3 1_555 1_555
H63_3 C86_3 1_555 1_555
C87_3 C84_3 1_555 1_555
C88_3 C69_3 1_555 1_555
H64_3 C88_3 1_555 1_555
C89_3 C68_3 1_555 1_555
H65_3 C89_3 1_555 1_555
C90_3 C65_3 1_555 1_555
H66_3 C90_3 1_555 1_555
C91_3 C56_3 1_555 1_555
H67_3 C91_3 1_555 1_555
C92_3 C91_3 1_555 1_555
C93_3 O39_3 1_555 1_555
C94_3 C92_3 1_555 1_555
H68_3 C94_3 1_555 1_555
C95_3 C55_3 1_555 1_555
C96_3 O40_3 1_555 1_555
C97_3 C96_3 1_555 1_555
H69_3 C97_3 1_555 1_555
C98_3 C97_3 1_555 1_555
H70_3 C98_3 1_555 1_555
C99_3 C98_3 1_555 1_555
C101_3 C96_3 1_555 1_555
C103_3 C104_3 1_555 1_555
C104_3 C105_3 1_555 1_555
C105_3 H73_3 1_555 1_555
C106_3 C104_3 1_555 1_555
H74_3 C106_3 1_555 1_555
C107_3 C93_3 1_555 1_555
H75_3 C107_3 1_555 1_555
C108_3 C93_3 1_555 1_555
H76_3 C108_3 1_555 1_555
O46_3 Cd10 1_555 1_555
H77_3 O46_3 1_555 1_555
H78_3 O46_3 1_555 1_555
Cd8_2 O58 1_555 1_555
Cd9_2 O57 1_555 1_555
Cd15 O26_2 1_555 1_555
Cd16 O3_2 1_555 1_555
Cd21_2 O6 1_555 1_555
Cd22_2 O29 1_555 1_555
O47_2 Cd16_2 1_555 1_555
O48_2 Cd15_2 1_555 1_555
O59_2 Cd5_2 1_555 1_555
O60_2 Cd1_2 1_555 1_555
C7_3 C8_3 1_555 1_555
C21_3 C24_3 1_555 1_555
C22_3 C23_3 1_555 1_555
C26_3 C34_3 1_555 1_555
C31_3 C32_3 1_555 1_555
C35_3 C36_3 1_555 1_555
C40_3 C41_3 1_555 1_555
C61_3 C62_3 1_555 1_555
C80_3 C88_3 1_555 1_555
C85_3 C86_3 1_555 1_555
C89_3 C90_3 1_555 1_555
C94_3 C95_3 1_555 1_555
C105_3 C107_3 1_555 1_555
C106_3 C108_3 1_555 1_555
Cd8_2 O47_2 1_555 1_555
Cd9_2 O48_2 1_555 1_555
Cd21_2 O60_2 1_555 1_555
Cd22_2 O59_2 1_555 1_555
H6_3 O15_3 1_555 1_555
H43_3 O37_3 1_555 1_555
O17_4 C38_4 1_555 1_555
O63 C49_4 1_555 1_555
H30_4 C37_4 1_555 1_555
C38_4 C37_4 1_555 1_555
C39_4 O17_4 1_555 1_555
C49_4 C50_4 1_555 1_555
C52_4 C50_4 1_555 1_555
H37_4 C52_4 1_555 1_555
C54_4 C39_4 1_555 1_555
H39_4 C54_4 1_555 1_555
C52_4 C54_4 1_555 1_555
Cd8_2 O2_4 1_555 1_555
O1_4 C2_4 1_555 1_555
O2_4 C9_4 1_555 1_555
H1_4 O47_2 1_555 1_555
H2_4 O47_2 1_555 1_555
O4_2 Cd8_2 1_555 1_555
H3_4 O4_2 1_555 1_555
O5_4 Cd8_2 1_555 1_555
O53_2 C10_4 1_555 1_555
O7_4 C14_4 1_555 1_555
O8_4 C17_4 1_555 1_555
O16_4 C9_4 1_555 1_555
C1_4 H10_4 1_555 1_555
C2_4 C1_4 1_555 1_555
C3_4 O1_4 1_555 1_555
C4_4 C3_4 1_555 1_555
H11_4 C4_4 1_555 1_555
C5_4 C4_4 1_555 1_555
H12_4 C5_4 1_555 1_555
C6_4 C5_4 1_555 1_555
C7_4 C6_4 1_555 1_555
H13_4 C7_4 1_555 1_555
C8_4 C3_4 1_555 1_555
H14_4 C8_4 1_555 1_555
C9_4 C6_4 1_555 1_555
C10_4 O5_4 1_555 1_555
C11_4 C10_4 1_555 1_555
C12_4 C11_4 1_555 1_555
H15_4 C12_4 1_555 1_555
C13_4 C12_4 1_555 1_555
H16_4 C13_4 1_555 1_555
C14_4 C13_4 1_555 1_555
C15_4 O7_4 1_555 1_555
C16_4 C15_4 1_555 1_555
H17_4 C16_4 1_555 1_555
C17_4 C16_4 1_555 1_555
C18_4 O8_4 1_555 1_555
C34_4 C15_4 1_555 1_555
H27_4 C34_4 1_555 1_555
C35_4 C14_4 1_555 1_555
H28_4 C35_4 1_555 1_555
C36_4 C11_4 1_555 1_555
H29_4 C36_4 1_555 1_555
Cd22_2 O4_2 1_555 1_555
O40_4 C95_4 1_555 1_555
O41_4 Cd22_2 1_555 1_555
O42_4 Cd22_2 1_555 1_555
H45_4 O42_4 1_555 1_555
H46_4 O42_4 1_555 1_555
O43_4 Cd8_2 1_555 1_555
H68_4 C94_4 1_555 1_555
C96_4 O40_4 1_555 1_555
C97_4 C96_4 1_555 1_555
H69_4 C97_4 1_555 1_555
C98_4 C97_4 1_555 1_555
H70_4 C98_4 1_555 1_555
C99_4 C98_4 1_555 1_555
C100_4 C99_4 1_555 1_555
H71_4 C100_4 1_555 1_555
C101_4 C96_4 1_555 1_555
H72_4 C101_4 1_555 1_555
C102_4 O41_4 1_555 1_555
Cd15 O4_2 1_555 1_555
O53_2 Cd15 1_555 1_555
C7_4 C8_4 1_555 1_555
C35_4 C36_4 1_555 1_555
O43_4 C102_4 1_555 1_555
C94_4 C95_4 1_555 1_555
C99_4 C102_4 1_555 1_555
C100_4 C101_4 1_555 1_555
C51_4 H36_4 1_555 1_555
H38_4 C53_4 1_555 1_555
C51_4 C53_4 1_555 1_555
O33_2 Cd10_2 1_555 1_555
Cd10_2 O9_4 1_555 1_555
Cd15 O14_4 1_555 1_555
O9_4 C24_4 1_555 1_555
O12_4 C26_4 1_555 1_555
O59_2 C33_4 1_555 1_555
O14_4 C33_4 1_555 1_555
O15_4 Cd15 1_555 1_555
H6_4 O15_4 1_555 1_555
H7_4 O15_4 1_555 1_555
C20_4 C19_4 1_555 1_555
H19_4 C20_4 1_555 1_555
C21_4 C20_4 1_555 1_555
C22_4 C21_4 1_555 1_555
H21_4 C23_4 1_555 1_555
H22_4 C25_4 1_555 1_555
C26_4 C25_4 1_555 1_555
C27_4 O12_4 1_555 1_555
C28_4 C27_4 1_555 1_555
H23_4 C28_4 1_555 1_555
C29_4 C28_4 1_555 1_555
H24_4 C29_4 1_555 1_555
C30_4 C29_4 1_555 1_555
C31_4 C30_4 1_555 1_555
H25_4 C31_4 1_555 1_555
C32_4 C27_4 1_555 1_555
H26_4 C32_4 1_555 1_555
C33_4 C30_4 1_555 1_555
O46_4 Cd10_2 1_555 1_555
H77_4 O46_4 1_555 1_555
H78_4 O46_4 1_555 1_555
C21_4 C24_4 1_555 1_555
C22_4 C23_4 1_555 1_555
C31_4 C32_4 1_555 1_555
Cd21_2 O19_4 1_555 1_555
O18_4 C41_4 1_555 1_555
O19_4 C48_4 1_555 1_555
O20_4 Cd21_2 1_555 1_555
H8_4 O20_4 1_555 1_555
H9_4 O20_4 1_555 1_555
O21_4 C48_4 1_555 1_555
C42_4 O18_4 1_555 1_555
C43_4 C42_4 1_555 1_555
H32_4 C43_4 1_555 1_555
C44_4 C43_4 1_555 1_555
H33_4 C44_4 1_555 1_555
C45_4 C44_4 1_555 1_555
C46_4 C45_4 1_555 1_555
H34_4 C46_4 1_555 1_555
C47_4 C42_4 1_555 1_555
H35_4 C47_4 1_555 1_555
C48_4 C45_4 1_555 1_555
Cd9_2 O21_4 1_555 1_555
O24_4 C56_4 1_555 1_555
O25_4 Cd9_2 1_555 1_555
H40_4 O48_2 1_555 1_555
H41_4 O48_2 1_555 1_555
O27_2 Cd21_2 1_555 1_555
H42_4 O27_2 1_555 1_555
O28_4 Cd9_2 1_555 1_555
O54_2 C64_4 1_555 1_555
O30_4 C68_4 1_555 1_555
O38_4 C63_4 1_555 1_555
O39_4 C92_4 1_555 1_555
O64 C103_4 1_555 1_555
C55_4 H47_4 1_555 1_555
C56_4 C55_4 1_555 1_555
C57_4 O24_4 1_555 1_555
C58_4 C57_4 1_555 1_555
H48_4 C58_4 1_555 1_555
C59_4 C58_4 1_555 1_555
H49_4 C59_4 1_555 1_555
C60_4 C59_4 1_555 1_555
C61_4 C60_4 1_555 1_555
H50_4 C61_4 1_555 1_555
C62_4 C57_4 1_555 1_555
H51_4 C62_4 1_555 1_555
C63_4 O25_4 1_555 1_555
C64_4 O28_4 1_555 1_555
C65_4 C64_4 1_555 1_555
C66_4 C65_4 1_555 1_555
H52_4 C66_4 1_555 1_555
C67_4 C66_4 1_555 1_555
H53_4 C67_4 1_555 1_555
C68_4 C67_4 1_555 1_555
C69_4 O30_4 1_555 1_555
C88_4 C69_4 1_555 1_555
H64_4 C88_4 1_555 1_555
C89_4 C68_4 1_555 1_555
H65_4 C89_4 1_555 1_555
C90_4 C65_4 1_555 1_555
H66_4 C90_4 1_555 1_555
C91_4 C56_4 1_555 1_555
H67_4 C91_4 1_555 1_555
C92_4 C91_4 1_555 1_555
C93_4 O39_4 1_555 1_555
C103_4 C104_4 1_555 1_555
C106_4 C104_4 1_555 1_555
H74_4 C106_4 1_555 1_555
C108_4 C93_4 1_555 1_555
H76_4 C108_4 1_555 1_555
Cd16 O27_2 1_555 1_555
C40_4 C41_4 1_555 1_555
C46_4 C47_4 1_555 1_555
Cd9_2 O27_2 1_555 1_555
O54_2 Cd16 1_555 1_555
C60_4 C63_4 1_555 1_555
C61_4 C62_4 1_555 1_555
C89_4 C90_4 1_555 1_555
C106_4 C108_4 1_555 1_555
O32_2 C78_4 1_555 1_555
C74_4 C73_4 1_555 1_555
H56_4 C74_4 1_555 1_555
C75_4 C74_4 1_555 1_555
C76_4 C75_4 1_555 1_555
H58_4 C77_4 1_555 1_555
C78_4 C75_4 1_555 1_555
H59_4 C79_4 1_555 1_555
Cd10_3 O32_2 1_555 1_555
C76_4 C77_4 1_555 1_555
O10_4 Cd10_3 1_555 1_555
O11_4 Cd10_3 1_555 1_555
H4_4 O11_4 1_555 1_555
H5_4 O11_4 1_555 1_555
Cd16 O36_4 1_555 1_555
O34_4 C80_4 1_555 1_555
O60_2 C87_4 1_555 1_555
O36_4 C87_4 1_555 1_555
O37_4 Cd16 1_555 1_555
H43_4 O37_4 1_555 1_555
H44_4 O37_4 1_555 1_555
C81_4 O34_4 1_555 1_555
C82_4 C81_4 1_555 1_555
H60_4 C82_4 1_555 1_555
C83_4 C82_4 1_555 1_555
H61_4 C83_4 1_555 1_555
C84_4 C83_4 1_555 1_555
C85_4 C84_4 1_555 1_555
H62_4 C85_4 1_555 1_555
C86_4 C81_4 1_555 1_555
H63_4 C86_4 1_555 1_555
C87_4 C84_4 1_555 1_555
C105_4 H73_4 1_555 1_555
H75_4 C107_4 1_555 1_555
C85_4 C86_4 1_555 1_555
C105_4 C107_4 1_555 1_555
O31_3 C71_3 1_555 1_555
H54_3 C70_3 1_555 1_555
C71_3 C70_3 1_555 1_555
C72_3 O31_3 1_555 1_555
O31_4 C71_4 1_555 1_555
H54_4 C70_4 1_555 1_555
C71_4 C70_4 1_555 1_555
C72_4 O31_4 1_555 1_555

#END
