
###############################################################################
#
# This file contains modified crystal structure data generated from the
# MOF subset of the Cambridge Structural Database (CSD) v543 
# hosted by the Cambridge Crystallographic Data Centre (CCDC).
#
# This work is licensed under the Creative Commons
# Attribution-NonCommercial-ShareAlike 4.0 International License.
# To view a copy of this license, visit
# http://creativecommons.org/licenses/by-nc-sa/4.0/
# or send a letter to
# Creative Commons, PO Box 1866, Mountain View, CA 94042, USA.
#
# CIF created using the CSD Python API on 29 September 2022
# The structure has been converted into the P1 space group
# The structure has a 3D framework
# The original CSD entry REGJIW01 is in the monoclinic crystal system
# The framework has been calculated to contain at least 10.0% void space
# The void calculation uses a probe of radius 1.32A, grid spacing 0.4
# H atom positions have been added when not included in the experimental data
# Generated hydrogen atom positions removed from atoms on special positions
#
###############################################################################

data_REGJIW01
_chemical_formula_moiety         '(C16 H10 Co7 O20)n'
_symmetry_cell_setting           triclinic
_symmetry_space_group_name_H-M   'P 1'
_symmetry_Int_Tables_number      1
_space_group_name_Hall           'P 1'
loop_
_symmetry_equiv_pos_site_id
_symmetry_equiv_pos_as_xyz
1 x,y,z
_cell_length_a                   9.2966(10)
_cell_length_b                   12.8636(13)
_cell_length_c                   5.4998(6)
_cell_angle_alpha                90
_cell_angle_beta                 90.533(2)
_cell_angle_gamma                90
_cell_volume                     657.68
loop_
_atom_site_label
_atom_site_type_symbol
_atom_site_fract_x
_atom_site_fract_y
_atom_site_fract_z
Co4 Co -0.0000 -0.0000 0.5000
Co5 Co -0.0000 0.12014(4) -0.0000
Co7 Co 0.5000 0.37986(4) -0.0000
Co9 Co 0.5000 0.62014(4) -0.0000
Co10 Co -0.0000 0.87986(4) -0.0000
O20 O 0.1312(2) 0.11190(14) 0.3285(3)
Co1 Co 0.5000 0.5000 0.5000
O1 O 0.3807(2) 0.26264(15) 0.1508(3)
O2 O 0.3979(3) 0.5000 0.1739(5)
C1 C 0.3098(3) 0.2575(2) 0.3415(4)
O3 O 0.3688(2) 0.38810(14) 0.6715(3)
C2 C 0.3039(3) 0.3121(2) 0.5754(4)
Co4_2 Co -0.0000 1.0000 0.5000
Co5_2 Co -0.0000 0.12014(4) 1.0000
Co7_2 Co 0.5000 0.37986(4) 1.0000
Co9_2 Co 0.5000 0.62014(4) 1.0000
Co10_2 Co -0.0000 0.87986(4) 1.0000
O4 O 0.1193(2) 0.23736(15) 0.8492(3)
O5 O 0.3807(2) 0.73736(15) 0.1508(3)
O6 O 0.1193(2) 0.76264(15) 0.8492(3)
O9 O 0.6021(3) 0.5000 0.8261(5)
O12 O 0.1021(3) 0.0000 0.8261(5)
H5 H 0.182(6) 0.0000 0.844(9)
C3 C 0.1902(3) 0.2425(2) 0.6585(4)
C4 C 0.3098(3) 0.7425(2) 0.3415(4)
C5 C 0.1902(3) 0.7575(2) 0.6585(4)
O14 O 0.3688(2) 0.61190(14) 0.6715(3)
O15 O 0.1312(2) 0.88810(14) 0.3285(3)
O16 O 0.6312(2) 0.61190(14) 0.3285(3)
O17 O 0.6312(2) 0.38810(14) 0.3285(3)
C6 C 0.1961(3) 0.1879(2) 0.4246(4)
C7 C 0.3039(3) 0.6879(2) 0.5754(4)
C8 C 0.1961(3) 0.8121(2) 0.4246(4)
O7 O 0.6193(2) 0.26264(15) 0.8492(3)
O12_2 O 0.1021(3) 1.0000 0.8261(5)
H5_2 H 0.182(6) 1.0000 0.844(9)
Co4_3 Co 1.0000 -0.0000 0.5000
Co5_3 Co 1.0000 0.12014(4) -0.0000
Co10_3 Co 1.0000 0.87986(4) -0.0000
O8 O 0.8807(2) 0.23736(15) 0.1508(3)
O11 O 0.8979(3) -0.0000 0.1739(5)
H4 H 0.818(6) 0.0000 0.156(9)
H6 H 0.919033 0.00534017 0.350774
Co4_4 Co 1.0000 1.0000 0.5000
Co5_4 Co 1.0000 0.12014(4) 1.0000
Co10_4 Co 1.0000 0.87986(4) 1.0000
O19 O 0.8688(2) 0.11190(14) 0.6715(3)
O11_2 O 0.8979(3) 1.0000 0.1739(5)
H4_2 H 0.818(6) 1.0000 0.156(9)
C4_2 C 0.8098(3) 0.2425(2) 0.3415(4)
C5_2 C 0.6902(3) 0.2575(2) 0.6585(4)
C7_2 C 0.8039(3) 0.1879(2) 0.5754(4)
C8_2 C 0.6961(3) 0.3121(2) 0.4246(4)
O1_2 O 0.8807(2) 0.76264(15) 0.1508(3)
C1_2 C 0.8098(3) 0.7575(2) 0.3415(4)
O3_2 O 0.8688(2) 0.88810(14) 0.6715(3)
C2_2 C 0.8039(3) 0.8121(2) 0.5754(4)
O4_2 O 0.6193(2) 0.73736(15) 0.8492(3)
C3_2 C 0.6902(3) 0.7425(2) 0.6585(4)
C6_2 C 0.6961(3) 0.6879(2) 0.4246(4)
H6_2 H 0.0809671 0.00534017 0.649226
H6_3 H 0.0809671 0.99466 0.649226
H6_4 H 0.919033 0.99466 0.350774
loop_
_geom_bond_atom_site_label_1
_geom_bond_atom_site_label_2
_geom_bond_site_symmetry_1
_geom_bond_site_symmetry_2
O20 Co5 1_555 1_555
Co1 O2 1_555 1_555
Co7 O1 1_555 1_555
O1 C1 1_555 1_555
O2 Co7 1_555 1_555
C1 C2 1_555 1_555
O3 Co1 1_555 1_555
C2 O3 1_555 1_555
Co4 O12 1_555 1_555
Co4_2 O15 1_555 1_555
Co5_2 O4 1_555 1_555
Co9 O2 1_555 1_555
Co7_2 O3 1_555 1_555
Co9_2 O9 1_555 1_555
Co10_2 O6 1_555 1_555
Co10 O15 1_555 1_555
O4 C3 1_555 1_555
O5 Co9 1_555 1_555
O6 C5 1_555 1_555
O9 Co1 1_555 1_555
O12 Co5_2 1_555 1_555
H5 O12 1_555 1_555
C3 C2 1_555 1_555
C4 O5 1_555 1_555
C5 C7 1_555 1_555
O20 Co4 1_555 1_555
O14 Co1 1_555 1_555
O15 C8 1_555 1_555
O16 Co1 1_555 1_555
O17 Co1 1_555 1_555
C6 C1 1_555 1_555
C7 C4 1_555 1_555
C8 C4 1_555 1_555
Co7 O17 1_555 1_555
Co9 O16 1_555 1_555
Co7_2 O9 1_555 1_555
Co9_2 O14 1_555 1_555
C3 C6 1_555 1_555
C5 C8 1_555 1_555
O20 C6 1_555 1_555
O14 C7 1_555 1_555
O7 Co7_2 1_555 1_555
Co4_2 O12_2 1_555 1_555
H5_2 O12_2 1_555 1_555
O8 Co5_3 1_555 1_555
O11 Co5_3 1_555 1_555
H4 O11 1_555 1_555
O11 H6 1_555 1_555
O19 Co4_3 1_555 1_555
Co5_4 O19 1_555 1_555
H4_2 O11_2 1_555 1_555
Co10_2 O12_2 1_555 1_555
Co4_3 O11 1_555 1_555
O7 C5_2 1_555 1_555
C4_2 O8 1_555 1_555
C5_2 C7_2 1_555 1_555
O17 C8_2 1_555 1_555
C7_2 C4_2 1_555 1_555
C8_2 C4_2 1_555 1_555
C5_2 C8_2 1_555 1_555
O19 C7_2 1_555 1_555
Co4_4 O11_2 1_555 1_555
Co10_3 O1_2 1_555 1_555
O1_2 C1_2 1_555 1_555
O11_2 Co10_3 1_555 1_555
C1_2 C2_2 1_555 1_555
O3_2 Co4_4 1_555 1_555
C2_2 O3_2 1_555 1_555
Co9_2 O4_2 1_555 1_555
Co10_4 O3_2 1_555 1_555
O4_2 C3_2 1_555 1_555
C3_2 C2_2 1_555 1_555
C6_2 C1_2 1_555 1_555
C3_2 C6_2 1_555 1_555
O16 C6_2 1_555 1_555
O12 H6_2 1_555 1_555
O12_2 H6_3 1_555 1_555
O11_2 H6_4 1_555 1_555

#END
