
###############################################################################
#
# This file contains modified crystal structure data generated from the
# MOF subset of the Cambridge Structural Database (CSD) v543 
# hosted by the Cambridge Crystallographic Data Centre (CCDC).
#
# This work is licensed under the Creative Commons
# Attribution-NonCommercial-ShareAlike 4.0 International License.
# To view a copy of this license, visit
# http://creativecommons.org/licenses/by-nc-sa/4.0/
# or send a letter to
# Creative Commons, PO Box 1866, Mountain View, CA 94042, USA.
#
# CIF created using the CSD Python API on 29 September 2022
# The structure has been converted into the P1 space group
# The structure has a 3D framework
# The original CSD entry REGJIW02 is in the monoclinic crystal system
# The framework has been calculated to contain at least 10.0% void space
# The void calculation uses a probe of radius 1.32A, grid spacing 0.4
#
###############################################################################

data_REGJIW02
_chemical_formula_moiety         '(C16 H6 Co8 O22)n'
_symmetry_cell_setting           triclinic
_symmetry_space_group_name_H-M   'P 1'
_symmetry_Int_Tables_number      1
_space_group_name_Hall           'P 1'
loop_
_symmetry_equiv_pos_site_id
_symmetry_equiv_pos_as_xyz
1 x,y,z
_cell_length_a                   9.2711(4)
_cell_length_b                   12.8719(6)
_cell_length_c                   5.4940(2)
_cell_angle_alpha                90
_cell_angle_beta                 90.685(2)
_cell_angle_gamma                90
_cell_volume                     655.589
loop_
_atom_site_label
_atom_site_type_symbol
_atom_site_fract_x
_atom_site_fract_y
_atom_site_fract_z
Co10 Co 0.0000 0.11989(4) 0.0000
Co4 Co -0.0000 0.0000 0.5000
Co10_2 Co 0.0000 0.11989(4) 1.0000
Co4_2 Co 0.0000 1.0000 0.5000
Co2 Co 0.5000 0.38011(4) 0.0000
Co6 Co 0.5000 0.61989(4) 0.0000
Co10_3 Co 1.0000 0.11989(4) 0.0000
O5 O 0.3970(3) 0.5000 0.1744(5)
H3 H 0.3080(11) 0.5000 0.144(9)
O12 O 0.6315(2) 0.38851(15) 0.3290(4)
O17 O 0.3810(2) 0.26286(15) 0.1499(3)
Co1 Co 0.5000 0.5000 0.5000
Co2_2 Co 0.5000 0.38011(4) 1.0000
O1 O 0.6030(3) 0.5000 0.8256(5)
H1 H 0.6920(11) 0.5000 0.856(9)
O2 O 0.3685(2) 0.38851(15) 0.6710(4)
C1 C 0.3038(3) 0.3123(2) 0.5754(4)
C2 C 0.3098(3) 0.2576(2) 0.3416(4)
Co4_3 Co 1.0000 0.0000 0.5000
Co6_2 Co 0.5000 0.61989(4) 1.0000
Co10_4 Co 1.0000 0.11989(4) 1.0000
O7 O 0.1315(2) 0.11149(15) 0.3290(4)
O9 O 0.8685(2) 0.11149(15) 0.6710(4)
O10 O 0.6315(2) 0.61149(15) 0.3290(4)
O11 O 0.3685(2) 0.61149(15) 0.6710(4)
O14 O 0.1190(2) 0.23714(15) 0.8501(3)
O15 O 0.6190(2) 0.26286(15) 0.8501(3)
O16 O 0.8810(2) 0.23714(15) 0.1499(3)
C3 C 0.1962(3) 0.1877(2) 0.4246(4)
C4 C 0.6962(3) 0.3123(2) 0.4246(4)
C5 C 0.8038(3) 0.1877(2) 0.5754(4)
C6 C 0.1902(3) 0.2424(2) 0.6584(4)
C7 C 0.6902(3) 0.2576(2) 0.6584(4)
C8 C 0.8098(3) 0.2424(2) 0.3416(4)
Co4_4 Co 1.0000 1.0000 0.5000
O1_2 O 0.1030(3) 0.0000 0.8256(5)
H1_2 H 0.1920(11) 0.0000 0.856(9)
Co2_3 Co -0.0000 0.88011(4) 0.0000
O12_2 O 0.1315(2) 0.88851(15) 0.3290(4)
Co2_4 Co -0.0000 0.88011(4) 1.0000
O1_3 O 0.1030(3) 1.0000 0.8256(5)
H1_3 H 0.1920(11) 1.0000 0.856(9)
O15_2 O 0.1190(2) 0.76286(15) 0.8501(3)
O16_2 O 0.3810(2) 0.73714(15) 0.1499(3)
C4_2 C 0.1962(3) 0.8123(2) 0.4246(4)
C5_2 C 0.3038(3) 0.6877(2) 0.5754(4)
C7_2 C 0.1902(3) 0.7576(2) 0.6584(4)
C8_2 C 0.3098(3) 0.7424(2) 0.3416(4)
O5_2 O 0.8970(3) 0.0000 0.1744(5)
H3_2 H 0.8080(11) 0.0000 0.144(9)
Co2_5 Co 1.0000 0.88011(4) 0.0000
O5_3 O 0.8970(3) 1.0000 0.1744(5)
H3_3 H 0.8080(11) 1.0000 0.144(9)
O17_2 O 0.8810(2) 0.76286(15) 0.1499(3)
Co2_6 Co 1.0000 0.88011(4) 1.0000
O2_2 O 0.8685(2) 0.88851(15) 0.6710(4)
C1_2 C 0.8038(3) 0.8123(2) 0.5754(4)
C2_2 C 0.8098(3) 0.7576(2) 0.3416(4)
O14_2 O 0.6190(2) 0.73714(15) 0.8501(3)
C3_2 C 0.6962(3) 0.6877(2) 0.4246(4)
C6_2 C 0.6902(3) 0.7424(2) 0.6584(4)
loop_
_geom_bond_atom_site_label_1
_geom_bond_atom_site_label_2
_geom_bond_site_symmetry_1
_geom_bond_site_symmetry_2
O5 Co2 1_555 1_555
H3 O5 1_555 1_555
O12 Co2 1_555 1_555
O17 Co2 1_555 1_555
Co6 O5 1_555 1_555
Co1 O1 1_555 1_555
Co2_2 O1 1_555 1_555
O1 H1 1_555 1_555
O2 Co1 1_555 1_555
O17 C2 1_555 1_555
C1 O2 1_555 1_555
C2 C1 1_555 1_555
Co4 O7 1_555 1_555
Co4_3 O9 1_555 1_555
Co6_2 O1 1_555 1_555
Co10 O7 1_555 1_555
Co10_2 O14 1_555 1_555
Co10_4 O9 1_555 1_555
Co10_3 O16 1_555 1_555
O5 Co1 1_555 1_555
O7 C3 1_555 1_555
O12 Co1 1_555 1_555
O9 C5 1_555 1_555
O10 Co1 1_555 1_555
O11 Co1 1_555 1_555
O14 C6 1_555 1_555
O15 Co2_2 1_555 1_555
O16 C8 1_555 1_555
C3 C2 1_555 1_555
C4 O12 1_555 1_555
C5 C7 1_555 1_555
C6 C1 1_555 1_555
C7 O15 1_555 1_555
C8 C4 1_555 1_555
Co2_2 O2 1_555 1_555
Co6_2 O11 1_555 1_555
Co6 O10 1_555 1_555
C3 C6 1_555 1_555
C4 C7 1_555 1_555
C5 C8 1_555 1_555
Co4 O1_2 1_555 1_555
O1_2 H1_2 1_555 1_555
Co10_2 O1_2 1_555 1_555
O12_2 Co2_3 1_555 1_555
Co4_2 O1_3 1_555 1_555
Co2_4 O1_3 1_555 1_555
O1_3 H1_3 1_555 1_555
Co6 O16_2 1_555 1_555
O12_2 Co4_2 1_555 1_555
O11 C5_2 1_555 1_555
O15_2 Co2_4 1_555 1_555
O16_2 C8_2 1_555 1_555
C4_2 O12_2 1_555 1_555
C5_2 C7_2 1_555 1_555
C7_2 O15_2 1_555 1_555
C8_2 C4_2 1_555 1_555
C4_2 C7_2 1_555 1_555
C5_2 C8_2 1_555 1_555
H3_2 O5_2 1_555 1_555
Co10_3 O5_2 1_555 1_555
O5_2 Co4_3 1_555 1_555
O5_3 Co2_5 1_555 1_555
H3_3 O5_3 1_555 1_555
O17_2 Co2_5 1_555 1_555
O2_2 Co4_4 1_555 1_555
O17_2 C2_2 1_555 1_555
C1_2 O2_2 1_555 1_555
C2_2 C1_2 1_555 1_555
Co6_2 O14_2 1_555 1_555
O5_3 Co4_4 1_555 1_555
O10 C3_2 1_555 1_555
O14_2 C6_2 1_555 1_555
C3_2 C2_2 1_555 1_555
C6_2 C1_2 1_555 1_555
Co2_6 O2_2 1_555 1_555
C3_2 C6_2 1_555 1_555

#END
