
###############################################################################
#
# This file contains modified crystal structure data generated from the
# MOF subset of the Cambridge Structural Database (CSD) v543 
# hosted by the Cambridge Crystallographic Data Centre (CCDC).
#
# This work is licensed under the Creative Commons
# Attribution-NonCommercial-ShareAlike 4.0 International License.
# To view a copy of this license, visit
# http://creativecommons.org/licenses/by-nc-sa/4.0/
# or send a letter to
# Creative Commons, PO Box 1866, Mountain View, CA 94042, USA.
#
# CIF created using the CSD Python API on 29 September 2022
# The structure has been converted into the P1 space group
# The structure has a 3D framework
# The original CSD entry REGLOG is in the orthorhombic crystal system
# The original CSD entry REGLOG is in a Sohncke space group
# The framework has been calculated to contain at least 10.0% void space
# The void calculation uses a probe of radius 1.32A, grid spacing 0.4
#
###############################################################################

data_REGLOG
_chemical_formula_moiety         '(C32 H40 Cd10 O56)n'
_symmetry_cell_setting           triclinic
_symmetry_space_group_name_H-M   'P 1'
_symmetry_Int_Tables_number      1
_space_group_name_Hall           'P 1'
loop_
_symmetry_equiv_pos_site_id
_symmetry_equiv_pos_as_xyz
1 x,y,z
_cell_length_a                   13.7005(14)
_cell_length_b                   15.6523(16)
_cell_length_c                   9.4417(10)
_cell_angle_alpha                90
_cell_angle_beta                 90
_cell_angle_gamma                90
_cell_volume                     2024.72
loop_
_atom_site_label
_atom_site_type_symbol
_atom_site_fract_x
_atom_site_fract_y
_atom_site_fract_z
Cd1 Cd 0.13221(4) 0.49733(4) 0.39626(5)
Cd2 Cd 0.00129(5) 0.61262(3) 0.13413(5)
Cd3 Cd 0.26833(4) 0.22264(4) 0.20859(6)
O1 O 0.2397(5) 0.3859(4) 0.3251(6)
O2 O 0.3104(5) 0.3485(4) 0.1239(7)
O3 O 0.2719(4) 0.5543(4) 0.2764(6)
H1 H 0.319(5) 0.550(7) 0.334(8)
O4 O 0.1074(4) 0.5011(4) 0.1462(5)
O9 O 0.0915(4) 0.7310(4) 0.2704(6)
H2 H 0.089(7) 0.757(6) 0.191(5)
O11 O 0.1579(4) 0.6035(4) 0.5583(7)
O12 O 0.1007(4) 0.7225(4) 0.6551(7)
O13 O 0.1737(4) 0.4319(4) 0.6194(7)
H3 H 0.189(5) 0.3793(12) 0.621(13)
H4 H 0.227(3) 0.459(4) 0.623(12)
C1 C 0.2793(6) 0.4045(5) 0.2118(9)
C2 C 0.2822(5) 0.4973(6) 0.1619(7)
H7 H 0.3437 0.5092 0.1085
C3 C 0.1917(5) 0.5092(5) 0.0652(8)
C6 C 0.0185(5) 0.7478(4) 0.3740(8)
H9 H 0.0365 0.7982 0.4336
C7 C 0.0094(6) 0.6657(4) 0.4660(7)
C8 C 0.0965(6) 0.6625(5) 0.5652(8)
Cd8 Cd 0.23167(4) 0.72264(4) 0.79141(6)
O21 O 0.3644(4) 0.1497(4) 0.0036(6)
O23 O 0.2250(5) 0.1036(4) 0.0917(6)
O24 O 0.0956(4) 0.2692(4) 0.1819(6)
O26 O 0.1455(4) 0.2000(4) 0.3732(7)
O29 O 0.0008(5) 0.4066(3) 0.3832(5)
O32 O 0.3993(4) 0.2225(4) 0.3449(7)
C13 C 0.0808(6) 0.2391(5) 0.3041(9)
H20 H 0.0507 0.3287 0.5253
O5 O 0.1356(4) 0.6497(4) 0.9964(6)
O6 O 0.2750(5) 0.6036(4) 0.9083(6)
H8 H 0.1920 0.4622 0.9933
C4 C 0.2005(6) 0.5931(5) 0.9875(8)
O17 O 0.1896(5) 0.8485(4) 0.8761(7)
O25 O 0.4044(4) 0.7692(4) 0.8181(6)
O27 O 0.3545(4) 0.7000(4) 0.6268(7)
O35 O 0.0727(5) 0.3638(4) 0.9196(7)
H15 H 0.065(8) 0.3126(18) 0.892(10)
H16 H 0.040(6) 0.394(4) 0.862(8)
O7 O 0.9044(4) 0.7308(4) 0.1819(6)
O8 O 0.8545(4) 0.8000(4) 0.3732(7)
O10 O 0.9992(5) 0.5934(3) 0.3832(5)
C5 C 0.9192(6) 0.7609(5) 0.3041(9)
H10 H 0.9493 0.6713 0.5253
Cd4 Cd 0.86779(4) 0.50267(4) 0.39626(5)
Cd5 Cd 0.99871(5) 0.38738(3) 0.13413(5)
Cd7 Cd 0.73167(4) 0.77736(4) 0.20859(6)
Cd9 Cd 0.76833(4) 0.27736(4) 0.79141(6)
O15 O 0.7603(5) 0.6141(4) 0.3251(6)
O16 O 0.6896(5) 0.6515(4) 0.1239(7)
O18 O 0.7281(4) 0.4457(4) 0.2764(6)
H11 H 0.681(5) 0.450(7) 0.334(8)
O19 O 0.8926(4) 0.4989(4) 0.1462(5)
O28 O 0.9085(4) 0.2690(4) 0.2704(6)
H12 H 0.911(7) 0.243(6) 0.191(5)
O30 O 0.8421(4) 0.3965(4) 0.5583(7)
O31 O 0.8993(4) 0.2775(4) 0.6551(7)
O34 O 0.8263(4) 0.5681(4) 0.6194(7)
H13 H 0.811(5) 0.6207(12) 0.621(13)
H14 H 0.773(3) 0.541(4) 0.623(12)
C9 C 0.7207(6) 0.5955(5) 0.2118(9)
C10 C 0.7178(5) 0.5027(6) 0.1619(7)
H17 H 0.6563 0.4908 0.1085
C11 C 0.8083(5) 0.4908(5) 0.0652(8)
C14 C 0.9815(5) 0.2522(4) 0.3740(8)
H19 H 0.9635 0.2018 0.4336
C15 C 0.9906(6) 0.3343(4) 0.4660(7)
C16 C 0.9035(6) 0.3375(5) 0.5652(8)
O14 O 0.9273(5) 0.6362(4) 0.9196(7)
H5 H 0.935(8) 0.6874(18) 0.892(10)
H6 H 0.960(6) 0.606(4) 0.862(8)
O20 O 0.8644(4) 0.3503(4) 0.9964(6)
O22 O 0.7250(5) 0.3964(4) 0.9083(6)
H18 H 0.8080 0.5378 0.9933
C12 C 0.7995(6) 0.4069(5) 0.9875(8)
O21_2 O 0.6356(4) 0.8503(4) 0.0036(6)
O23_2 O 0.7750(5) 0.8964(4) 0.0917(6)
O32_2 O 0.6007(4) 0.7775(4) 0.3449(7)
O17_2 O 0.8104(5) 0.1515(4) 0.8761(7)
O25_2 O 0.5956(4) 0.2308(4) 0.8181(6)
O27_2 O 0.6455(4) 0.3000(4) 0.6268(7)
O14_2 O 0.5727(5) 0.1362(4) 0.0804(7)
H5_2 H 0.565(8) 0.1874(18) 0.108(10)
H6_2 H 0.540(6) 0.106(4) 0.138(8)
C4_2 C 0.2995(6) 0.0931(5) 0.0125(8)
H18_2 H 0.6920 0.0378 0.0067
Cd2_2 Cd 0.49871(5) 0.11262(3) 0.86587(5)
O3_2 O 0.2281(4) 0.0543(4) 0.7236(6)
H1_2 H 0.181(5) 0.050(7) 0.666(8)
O4_2 O 0.3926(4) 0.0011(4) 0.8538(5)
O9_2 O 0.4085(4) 0.2310(4) 0.7296(6)
H2_2 H 0.411(7) 0.257(6) 0.809(5)
O10_2 O 0.5008(5) 0.0934(3) 0.6168(5)
O11_2 O 0.3421(4) 0.1035(4) 0.4417(7)
H7_2 H 0.1563 0.0092 0.8915
C3_2 C 0.3083(5) 0.0092(5) 0.9348(8)
C5_2 C 0.5808(6) 0.2609(5) 0.6959(9)
C6_2 C 0.4815(5) 0.2478(4) 0.6260(8)
H9_2 H 0.4635 0.2982 0.5664
C7_2 C 0.4906(6) 0.1657(4) 0.5340(7)
H10_2 H 0.5507 0.1713 0.4747
C8_2 C 0.4035(6) 0.1625(5) 0.4348(8)
Cd4_2 Cd 0.63221(4) 0.00267(4) 0.60374(5)
O15_2 O 0.7397(5) 0.1141(4) 0.6749(6)
O34_2 O 0.6737(4) 0.0681(4) 0.3806(7)
H13_2 H 0.689(5) 0.1207(12) 0.379(13)
H14_2 H 0.727(3) 0.041(4) 0.377(12)
C9_2 C 0.7793(6) 0.0955(5) 0.7882(9)
C10_2 C 0.7822(5) 0.0027(6) 0.8381(7)
H8_2 H 0.3080 0.9622 0.0067
O35_2 O 0.4273(5) 0.8638(4) 0.0804(7)
H15_2 H 0.435(8) 0.8126(18) 0.108(10)
H16_2 H 0.460(6) 0.894(4) 0.138(8)
C12_2 C 0.7005(6) 0.9069(5) 0.0125(8)
Cd1_2 Cd 0.36779(4) 0.99733(4) 0.60374(5)
O1_2 O 0.2603(5) 0.8859(4) 0.6749(6)
O13_2 O 0.3263(4) 0.9319(4) 0.3806(7)
H3_2 H 0.311(5) 0.8793(12) 0.379(13)
H4_2 H 0.273(3) 0.959(4) 0.377(12)
C1_2 C 0.2207(6) 0.9045(5) 0.7882(9)
C2_2 C 0.2178(5) 0.9973(6) 0.8381(7)
Cd5_2 Cd 0.50129(5) 0.88738(3) 0.86587(5)
O18_2 O 0.7719(4) 0.9457(4) 0.7236(6)
H11_2 H 0.819(5) 0.950(7) 0.666(8)
O19_2 O 0.6074(4) 0.9989(4) 0.8538(5)
O28_2 O 0.5915(4) 0.7690(4) 0.7296(6)
H12_2 H 0.589(7) 0.743(6) 0.809(5)
O29_2 O 0.4992(5) 0.9066(3) 0.6168(5)
O30_2 O 0.6579(4) 0.8965(4) 0.4417(7)
H17_2 H 0.8437 0.9908 0.8915
C11_2 C 0.6917(5) 0.9908(5) 0.9348(8)
C13_2 C 0.4192(6) 0.7391(5) 0.6959(9)
C14_2 C 0.5185(5) 0.7522(4) 0.6260(8)
H19_2 H 0.5365 0.7018 0.5664
C15_2 C 0.5094(6) 0.8343(4) 0.5340(7)
H20_2 H 0.4493 0.8287 0.4747
C16_2 C 0.5965(6) 0.8375(5) 0.4348(8)
loop_
_geom_bond_atom_site_label_1
_geom_bond_atom_site_label_2
_geom_bond_site_symmetry_1
_geom_bond_site_symmetry_2
Cd1 O1 1_555 1_555
Cd2 O4 1_555 1_555
Cd3 O2 1_555 1_555
O1 C1 1_555 1_555
O2 C1 1_555 1_555
O3 Cd1 1_555 1_555
H1 O3 1_555 1_555
O4 Cd1 1_555 1_555
O9 Cd2 1_555 1_555
H2 O9 1_555 1_555
O11 Cd1 1_555 1_555
O12 C8 1_555 1_555
O13 Cd1 1_555 1_555
H3 O13 1_555 1_555
H4 O13 1_555 1_555
C1 C2 1_555 1_555
C2 O3 1_555 1_555
H7 C2 1_555 1_555
C3 O4 1_555 1_555
C6 O9 1_555 1_555
H9 C6 1_555 1_555
C8 O11 1_555 1_555
Cd8 O12 1_555 1_555
O21 Cd3 1_555 1_555
O23 Cd3 1_555 1_555
O24 Cd3 1_555 1_555
O26 Cd3 1_555 1_555
O29 Cd1 1_555 1_555
O32 Cd3 1_555 1_555
C13 O24 1_555 1_555
C2 C3 1_555 1_555
C6 C7 1_555 1_555
C7 C8 1_555 1_555
O26 C13 1_555 1_555
O6 C4 1_555 1_555
C4 O5 1_555 1_555
Cd8 O5 1_555 1_555
O17 Cd8 1_555 1_555
O25 Cd8 1_555 1_555
O27 Cd8 1_555 1_555
H15 O35 1_555 1_555
H16 O35 1_555 1_555
O6 Cd8 1_555 1_555
O8 C5 1_555 1_555
C5 O7 1_555 1_555
Cd4 O10 1_555 1_555
Cd7 O7 1_555 1_555
Cd9 O31 1_555 1_555
O15 Cd4 1_555 1_555
O16 Cd7 1_555 1_555
O18 Cd4 1_555 1_555
H11 O18 1_555 1_555
O28 Cd5 1_555 1_555
H12 O28 1_555 1_555
O30 Cd4 1_555 1_555
O31 C16 1_555 1_555
O34 Cd4 1_555 1_555
H13 O34 1_555 1_555
H14 O34 1_555 1_555
C9 O15 1_555 1_555
C10 O18 1_555 1_555
H17 C10 1_555 1_555
C11 O19 1_555 1_555
C14 O28 1_555 1_555
H19 C14 1_555 1_555
C16 O30 1_555 1_555
O8 Cd7 1_555 1_555
Cd4 O19 1_555 1_555
Cd5 O19 1_555 1_555
O16 C9 1_555 1_555
C9 C10 1_555 1_555
C10 C11 1_555 1_555
C14 C15 1_555 1_555
C15 C16 1_555 1_555
H5 O14 1_555 1_555
H6 O14 1_555 1_555
Cd9 O20 1_555 1_555
O22 Cd9 1_555 1_555
C12 O20 1_555 1_555
O22 C12 1_555 1_555
O21_2 Cd7 1_555 1_555
O23_2 Cd7 1_555 1_555
O32_2 Cd7 1_555 1_555
O17_2 Cd9 1_555 1_555
O25_2 Cd9 1_555 1_555
O27_2 Cd9 1_555 1_555
O23 C4_2 1_555 1_555
H5_2 O14_2 1_555 1_555
H6_2 O14_2 1_555 1_555
C4_2 O21 1_555 1_555
Cd2_2 O4_2 1_555 1_555
H1_2 O3_2 1_555 1_555
O25_2 Cd2_2 1_555 1_555
O27_2 C5_2 1_555 1_555
O9_2 Cd2_2 1_555 1_555
H2_2 O9_2 1_555 1_555
O32 C8_2 1_555 1_555
C3_2 O4_2 1_555 1_555
C5_2 O25_2 1_555 1_555
C6_2 O9_2 1_555 1_555
H9_2 C6_2 1_555 1_555
C7_2 O10_2 1_555 1_555
H10_2 C7_2 1_555 1_555
C8_2 O11_2 1_555 1_555
Cd4_2 O10_2 1_555 1_555
O15_2 Cd4_2 1_555 1_555
O34_2 Cd4_2 1_555 1_555
H13_2 O34_2 1_555 1_555
H14_2 O34_2 1_555 1_555
C9_2 O15_2 1_555 1_555
Cd2_2 O10_2 1_555 1_555
C5_2 C6_2 1_555 1_555
C6_2 C7_2 1_555 1_555
C7_2 C8_2 1_555 1_555
O17_2 C9_2 1_555 1_555
C9_2 C10_2 1_555 1_555
H15_2 O35_2 1_555 1_555
H16_2 O35_2 1_555 1_555
C12_2 O21_2 1_555 1_555
O23_2 C12_2 1_555 1_555
Cd1_2 O1_2 1_555 1_555
O1_2 C1_2 1_555 1_555
O17 C1_2 1_555 1_555
O13_2 Cd1_2 1_555 1_555
H3_2 O13_2 1_555 1_555
H4_2 O13_2 1_555 1_555
C1_2 C2_2 1_555 1_555
H11_2 O18_2 1_555 1_555
O28_2 Cd5_2 1_555 1_555
H12_2 O28_2 1_555 1_555
O29_2 Cd1_2 1_555 1_555
O32_2 C16_2 1_555 1_555
C11_2 O19_2 1_555 1_555
C13_2 O25 1_555 1_555
C14_2 O28_2 1_555 1_555
H19_2 C14_2 1_555 1_555
C15_2 O29_2 1_555 1_555
H20_2 C15_2 1_555 1_555
C16_2 O30_2 1_555 1_555
Cd5_2 O19_2 1_555 1_555
Cd5_2 O25 1_555 1_555
Cd5_2 O29_2 1_555 1_555
O27 C13_2 1_555 1_555
C13_2 C14_2 1_555 1_555
C14_2 C15_2 1_555 1_555
C15_2 C16_2 1_555 1_555

#END
