
###############################################################################
#
# This file contains modified crystal structure data generated from the
# MOF subset of the Cambridge Structural Database (CSD) v543 
# hosted by the Cambridge Crystallographic Data Centre (CCDC).
#
# This work is licensed under the Creative Commons
# Attribution-NonCommercial-ShareAlike 4.0 International License.
# To view a copy of this license, visit
# http://creativecommons.org/licenses/by-nc-sa/4.0/
# or send a letter to
# Creative Commons, PO Box 1866, Mountain View, CA 94042, USA.
#
# CIF created using the CSD Python API on 29 September 2022
# The structure has been converted into the P1 space group
# The structure has a 3D framework
# The original CSD entry REGMUN is in the monoclinic crystal system
# The framework has been calculated to contain at least 10.0% void space
# The void calculation uses a probe of radius 1.32A, grid spacing 0.4
#
###############################################################################

data_REGMUN
_chemical_formula_moiety         '(C224 H208 Co8 N56 O32)n'
_symmetry_cell_setting           triclinic
_symmetry_space_group_name_H-M   'P 1'
_symmetry_Int_Tables_number      1
_space_group_name_Hall           'P 1'
loop_
_symmetry_equiv_pos_site_id
_symmetry_equiv_pos_as_xyz
1 x,y,z
_cell_length_a                   13.543(2)
_cell_length_b                   12.338(3)
_cell_length_c                   40.267(7)
_cell_angle_alpha                90
_cell_angle_beta                 108.395(7)
_cell_angle_gamma                90
_cell_volume                     6384.56
loop_
_atom_site_label
_atom_site_type_symbol
_atom_site_fract_x
_atom_site_fract_y
_atom_site_fract_z
C18 C 0.0059(3) 0.1726(3) 0.25710(10)
H13 H 0.0674 0.1895 0.3265
H17 H 0.0618 0.0127 0.3624
C30 C 0.0931(4) 0.0943(4) 0.27243(14)
H18 H 0.1597 0.1327 0.2785
H19 H 0.0916 0.0374 0.2553
H20 H 0.0848 0.0614 0.2935
C31 C 0.0285(4) 0.1470(4) 0.19804(13)
H21 H 0.0410 0.2045 0.1827
H22 H 0.0970 0.1191 0.2127
H23 H 0.0181 0.0629 0.1337
H48 H 0.0272 0.1642 0.4009
Co5 Co 0.12711(4) 0.40886(5) 0.420643(13)
Co1 Co 0.32068(4) 0.38794(4) 0.193177(12)
O1 O 0.0606(2) 0.5331(2) 0.44687(6)
O2 O 0.0793(2) 0.5954(2) 0.50098(7)
O3 O 0.2232(3) 0.2663(3) 0.42180(7)
O4 O 0.3278(4) 0.1494(4) 0.45861(10)
O5 O 0.26125(19) 0.2723(2) 0.69500(6)
O6 O 0.2028(2) 0.4212(2) 0.66280(7)
N1 N 0.2904(2) 0.1696(2) 0.64310(8)
N2 N 0.1772(3) 0.3651(3) 0.47180(8)
N3 N 0.6451(2) 0.3346(3) 0.21176(10)
N4 N 0.4775(2) 0.3323(3) 0.20443(8)
N5 N 0.9456(3) 0.0892(3) 0.32286(9)
N7 N 0.9688(3) 0.0582(3) 0.17630(9)
N9 N 0.4653(3) 0.4735(3) 0.29849(8)
N10 N 0.3606(2) 0.4328(3) 0.24585(8)
N11 N 0.4189(3) 0.5775(4) 0.43914(9)
N12 N 0.2615(3) 0.5119(4) 0.43004(9)
N13 N 0.8345(3) 0.2646(3) 0.41583(9)
N14 N 0.9886(3) 0.3169(3) 0.41373(8)
C1 C 0.0899(3) 0.5265(3) 0.48015(10)
C2 C 0.2647(5) 0.2262(5) 0.45137(12)
C3 C 0.2359(3) 0.3282(3) 0.66673(9)
C4 C 0.3634(3) 0.0023(3) 0.63319(11)
C5 C 0.1472(3) 0.4231(3) 0.49501(10)
C6 C 0.1718(3) 0.3888(3) 0.52948(9)
H1 H 0.1499 0.4299 0.5458
C7 C 0.2284(3) 0.2940(4) 0.53993(10)
C8 C 0.2630(4) 0.2383(4) 0.51510(10)
H2 H 0.3055 0.1757 0.5216
C9 C 0.2340(4) 0.2764(4) 0.48128(10)
C10 C 0.2532(3) 0.2700(3) 0.63569(9)
C11 C 0.2337(3) 0.3143(3) 0.60278(9)
H3 H 0.2082 0.3863 0.5981
C12 C 0.2525(3) 0.2507(3) 0.57631(9)
C13 C 0.2940(3) 0.1477(3) 0.58515(10)
H4 H 0.3093 0.1035 0.5681
C14 C 0.3129(3) 0.1098(3) 0.61875(10)
C15 C 0.8369(3) 0.3106(3) 0.22868(12)
C16 C 0.8739(3) 0.2953(3) 0.26478(11)
C17 C 0.9564(3) 0.2228(3) 0.27886(10)
C19 C 0.9714(3) 0.1949(3) 0.22150(11)
C20 C 0.8850(3) 0.2601(3) 0.20670(11)
C21 C 0.7460(3) 0.3849(4) 0.21285(17)
H5 H 0.7559 0.4526 0.2267
H6 H 0.7438 0.4041 0.1888
C22 C 0.5542(3) 0.3841(3) 0.19781(10)
H7 H 0.5456 0.4492 0.1846
C23 C 0.5226(3) 0.2453(3) 0.22445(11)
H8 H 0.4870 0.1933 0.2338
C24 C 0.6262(3) 0.2447(4) 0.22887(14)
H9 H 0.6757 0.1926 0.2413
C25 C 0.8241(4) 0.3522(4) 0.28854(15)
H10 H 0.7692 0.4007 0.2747
H11 H 0.8768 0.3945 0.3060
H12 H 0.7939 0.2984 0.3004
C26 C 0.9905(4) 0.1938(4) 0.31748(11)
H14 H 0.9677 0.2511 0.3306
C27 C 0.8484(3) 0.0544(4) 0.30684(11)
H15 H 0.7989 0.0937 0.2889
C29 C 0.9923(3) 0.0119(4) 0.34696(11)
C32 C 0.9738(3) 0.0293(4) 0.14487(10)
C35 C 0.8420(5) 0.2747(5) 0.16692(13)
H26 H 0.8905 0.2429 0.1560
H27 H 0.8335 0.3521 0.1613
H28 H 0.7744 0.2384 0.1580
C36 C 0.5773(3) 0.4808(4) 0.36134(10)
C37 C 0.5404(3) 0.5444(4) 0.38414(10)
C38 C 0.5657(3) 0.5135(4) 0.41922(10)
C39 C 0.6256(3) 0.4212(4) 0.43180(11)
C40 C 0.6663(3) 0.3609(4) 0.40932(11)
C41 C 0.6379(3) 0.3885(4) 0.37377(11)
C42 C 0.5600(3) 0.5179(4) 0.32448(10)
H29 H 0.5555 0.5980 0.3239
H30 H 0.6212 0.4970 0.3175
C43 C 0.4543(3) 0.4672(3) 0.26423(10)
H31 H 0.5074 0.4853 0.2544
C44 C 0.3097(3) 0.4177(4) 0.27000(11)
H32 H 0.2399 0.3932 0.2647
C45 C 0.3727(3) 0.4424(4) 0.30235(11)
H33 H 0.3562 0.4389 0.3236
C46 C 0.4753(4) 0.6443(4) 0.37072(13)
H34 H 0.4180 0.6474 0.3806
H35 H 0.4471 0.6411 0.3451
H36 H 0.5188 0.7091 0.3777
C47 C 0.5309(3) 0.5871(5) 0.44357(12)
H37 H 0.5712 0.5693 0.4681
H38 H 0.5466 0.6632 0.4392
C48 C 0.3594(3) 0.4890(4) 0.43249(10)
H39 H 0.3839 0.4184 0.4298
C49 C 0.2609(4) 0.6210(5) 0.43547(13)
H40 H 0.2012 0.6617 0.4353
C50 C 0.3564(4) 0.6631(5) 0.44111(14)
H41 H 0.3764 0.7368 0.4455
C51 C 0.6436(4) 0.3834(5) 0.46917(12)
H42 H 0.5932 0.4185 0.4786
H43 H 0.7143 0.4028 0.4836
H44 H 0.6350 0.3046 0.4695
C52 C 0.7344(4) 0.2640(4) 0.42301(13)
H45 H 0.7485 0.2598 0.4486
H46 H 0.6957 0.1978 0.4126
C53 C 0.9012(3) 0.3462(4) 0.41947(10)
H47 H 0.8877 0.4178 0.4255
C54 C 0.9772(5) 0.2089(5) 0.40628(16)
C55 C 0.8828(5) 0.1751(5) 0.40769(19)
H49 H 0.8556 0.1035 0.4038
C56 C 0.6737(4) 0.3203(4) 0.34863(12)
H50 H 0.7403 0.3480 0.3475
H51 H 0.6218 0.3235 0.3253
H52 H 0.6823 0.2450 0.3568
Co4 Co 0.32068(4) 0.11206(4) 0.693177(12)
O9 O 0.26125(19) 0.2277(2) 0.19500(6)
O10 O 0.3650(2) 0.5206(2) 0.16371(7)
N15 N 0.2904(2) 0.3304(2) 0.14310(8)
N16 N 0.1714(3) 0.4596(3) 0.18129(8)
N17 N 0.0893(3) 0.4496(3) 0.36874(8)
O7 O 0.3650(2) 0.9794(2) 0.66371(7)
O8 O 0.4022(3) 0.9473(3) 0.61430(8)
N6 N 0.8286(3) 0.9596(3) 0.31871(8)
N8 N 0.9107(3) 0.9496(3) 0.13126(8)
C28 C 0.9197(3) 0.9338(4) 0.34453(11)
H16 H 0.9303 0.8705 0.3586
C33 C 0.8620(4) 0.9252(4) 0.15552(11)
H24 H 0.8107 0.8705 0.1530
C34 C 0.8983(4) 0.9910(4) 0.18336(11)
H25 H 0.8785 0.9906 0.2040
Co3 Co 0.67932(4) 0.88794(4) 0.306823(12)
Co6 Co 0.87289(4) 0.90886(5) 0.079357(13)
N18 N 0.0114(3) 0.8169(3) 0.08627(8)
O1_2 O 0.9394(2) 0.0331(2) 0.05313(6)
N11_2 N 0.5811(3) 0.0775(4) 0.06086(9)
N12_2 N 0.7385(3) 0.0119(4) 0.06996(9)
C1_2 C 0.9101(3) 0.0265(3) 0.01985(10)
C37_2 C 0.4596(3) 0.0444(4) 0.11586(10)
C38_2 C 0.4343(3) 0.0135(4) 0.08078(10)
C42_2 C 0.4400(3) 0.0179(4) 0.17552(10)
H29_2 H 0.4445 0.0980 0.1761
C46_2 C 0.5247(4) 0.1443(4) 0.12928(13)
H34_2 H 0.5820 0.1474 0.1194
H35_2 H 0.5529 0.1411 0.1549
H36_2 H 0.4812 0.2091 0.1223
C47_2 C 0.4691(3) 0.0871(5) 0.05643(12)
H37_2 H 0.4288 0.0693 0.0319
H38_2 H 0.4534 0.1632 0.0608
C49_2 C 0.7391(4) 0.1210(5) 0.06453(13)
H40_2 H 0.7988 0.1617 0.0647
C50_2 C 0.6436(4) 0.1631(5) 0.05889(14)
H41_2 H 0.6236 0.2368 0.0545
O10_2 O 0.6350(2) 0.0206(2) 0.33629(7)
O3_2 O 0.7768(3) 0.7663(3) 0.07820(7)
O4_2 O 0.6722(4) 0.6494(4) 0.04139(10)
N2_2 N 0.8228(3) 0.8651(3) 0.02820(8)
N3_2 N 0.3549(2) 0.8346(3) 0.28824(10)
N4_2 N 0.5225(2) 0.8323(3) 0.29557(8)
N5_2 N 0.0544(3) 0.5892(3) 0.17714(9)
N7_2 N 0.0312(3) 0.5582(3) 0.32370(9)
N9_2 N 0.5347(3) 0.9735(3) 0.20151(8)
N10_2 N 0.6394(2) 0.9328(3) 0.25415(8)
N13_2 N 0.1655(3) 0.7646(3) 0.08417(9)
C2_2 C 0.7353(5) 0.7262(5) 0.04863(12)
C5_2 C 0.8528(3) 0.9231(3) 0.00499(10)
C9_2 C 0.7660(4) 0.7764(4) 0.01872(10)
C15_2 C 0.1631(3) 0.8106(3) 0.27132(12)
C16_2 C 0.1261(3) 0.7953(3) 0.23522(11)
C17_2 C 0.0436(3) 0.7228(3) 0.22114(10)
C19_2 C 0.0286(3) 0.6949(3) 0.27850(11)
C20_2 C 0.1150(3) 0.7601(3) 0.29330(11)
C21_2 C 0.2540(3) 0.8849(4) 0.28715(17)
H5_2 H 0.2441 0.9526 0.2733
H6_2 H 0.2562 0.9041 0.3112
C22_2 C 0.4458(3) 0.8841(3) 0.30219(10)
H7_2 H 0.4544 0.9492 0.3154
C23_2 C 0.4774(3) 0.7453(3) 0.27555(11)
H8_2 H 0.5130 0.6933 0.2662
C24_2 C 0.3738(3) 0.7447(4) 0.27113(14)
H9_2 H 0.3243 0.6926 0.2587
C25_2 C 0.1759(4) 0.8522(4) 0.21146(15)
H10_2 H 0.2308 0.9007 0.2253
H11_2 H 0.1232 0.8945 0.1940
H12_2 H 0.2061 0.7984 0.1996
C26_2 C 0.0095(4) 0.6938(4) 0.18252(11)
H14_2 H 0.0323 0.7511 0.1694
C27_2 C 0.1516(3) 0.5544(4) 0.19316(11)
H15_2 H 0.2011 0.5937 0.2111
C28_2 C 0.0803(3) 0.4338(4) 0.15547(11)
H16_2 H 0.0697 0.3705 0.1414
C29_2 C 0.0077(3) 0.5119(4) 0.15304(11)
C32_2 C 0.0262(3) 0.5293(4) 0.35513(10)
C33_2 C 0.1380(4) 0.4252(4) 0.34448(11)
H24_2 H 0.1893 0.3705 0.3470
C34_2 C 0.1017(4) 0.4910(4) 0.31664(11)
H25_2 H 0.1215 0.4906 0.2960
C35_2 C 0.1580(5) 0.7747(5) 0.33308(13)
H26_2 H 0.1095 0.7429 0.3440
H27_2 H 0.1665 0.8521 0.3387
H28_2 H 0.2256 0.7384 0.3420
C36_2 C 0.4227(3) 0.9808(4) 0.13866(10)
C39_2 C 0.3744(3) 0.9212(4) 0.06820(11)
C40_2 C 0.3337(3) 0.8609(4) 0.09068(11)
C41_2 C 0.3621(3) 0.8885(4) 0.12623(11)
H30_2 H 0.3788 0.9970 0.1825
C43_2 C 0.5457(3) 0.9672(3) 0.23577(10)
H31_2 H 0.4926 0.9853 0.2456
C44_2 C 0.6903(3) 0.9177(4) 0.23000(11)
H32_2 H 0.7601 0.8932 0.2353
C45_2 C 0.6273(3) 0.9424(4) 0.19765(11)
H33_2 H 0.6438 0.9389 0.1764
C48_2 C 0.6406(3) 0.9890(4) 0.06751(10)
H39_2 H 0.6161 0.9184 0.0702
C51_2 C 0.3564(4) 0.8834(5) 0.03083(12)
H42_2 H 0.4068 0.9185 0.0214
H43_2 H 0.2857 0.9028 0.0164
H44_2 H 0.3650 0.8046 0.0305
C52_2 C 0.2656(4) 0.7640(4) 0.07699(13)
H45_2 H 0.2515 0.7598 0.0514
H46_2 H 0.3043 0.6978 0.0874
C53_2 C 0.0988(3) 0.8462(4) 0.08053(10)
H47_2 H 0.1123 0.9178 0.0745
C54_2 C 0.0228(5) 0.7089(5) 0.09372(16)
C55_2 C 0.1172(5) 0.6751(5) 0.09231(19)
H49_2 H 0.1444 0.6035 0.0962
C56_2 C 0.3263(4) 0.8203(4) 0.15137(12)
H50_2 H 0.2597 0.8480 0.1525
H51_2 H 0.3782 0.8235 0.1747
H52_2 H 0.3177 0.7450 0.1432
O9_2 O 0.73875(19) 0.7277(2) 0.30500(6)
N15_2 N 0.7096(2) 0.8304(2) 0.35690(8)
O5_2 O 0.73875(19) 0.7723(2) 0.80500(6)
O6_2 O 0.7972(2) 0.9212(2) 0.83720(7)
O7_2 O 0.6350(2) 0.4794(2) 0.83629(7)
O8_2 O 0.5978(3) 0.4473(3) 0.88570(8)
N1_2 N 0.7096(2) 0.6696(2) 0.85690(8)
C3_2 C 0.7641(3) 0.8282(3) 0.83327(9)
C4_2 C 0.6366(3) 0.5023(3) 0.86681(11)
C6_2 C 0.8282(3) 0.8888(3) 0.97052(9)
H1_2 H 0.8501 0.9299 0.9542
C7_2 C 0.7716(3) 0.7940(4) 0.96007(10)
C8_2 C 0.7370(4) 0.7383(4) 0.98490(10)
H2_2 H 0.6945 0.6757 0.9784
C10_2 C 0.7468(3) 0.7700(3) 0.86431(9)
C11_2 C 0.7663(3) 0.8143(3) 0.89722(9)
H3_2 H 0.7918 0.8863 0.9019
C12_2 C 0.7475(3) 0.7507(3) 0.92369(9)
C13_2 C 0.7060(3) 0.6477(3) 0.91485(10)
H4_2 H 0.6907 0.6035 0.9319
C14_2 C 0.6871(3) 0.6098(3) 0.88125(10)
Co4_2 Co 0.67932(4) 0.61206(4) 0.806823(12)
C18_2 C 0.9941(3) 0.6726(3) 0.24290(10)
H13_2 H 0.9326 0.6895 0.1735
H17_2 H 0.9382 0.5127 0.1376
C30_2 C 0.9069(4) 0.5943(4) 0.22757(14)
H18_2 H 0.8403 0.6327 0.2215
H19_2 H 0.9084 0.5374 0.2447
H20_2 H 0.9152 0.5614 0.2065
C31_2 C 0.9715(4) 0.6470(4) 0.30196(13)
H21_2 H 0.9590 0.7045 0.3173
H22_2 H 0.9030 0.6191 0.2873
H23_2 H 0.9819 0.5629 0.3663
H48_2 H 0.9728 0.6642 0.0991
N18_2 N 0.0114(3) 0.6831(3) 0.58627(8)
O8_3 O 0.5978(3) 0.0527(3) 0.38570(8)
N6_2 N 0.1714(3) 0.0404(3) 0.68129(8)
N8_2 N 0.0893(3) 0.0504(3) 0.86874(8)
C28_3 C 0.0803(3) 0.0662(4) 0.65547(11)
H16_3 H 0.0697 0.1295 0.6414
C33_3 C 0.1380(4) 0.0748(4) 0.84448(11)
H24_3 H 0.1893 0.1295 0.8470
C34_3 C 0.1017(4) 0.0090(4) 0.81664(11)
H25_3 H 0.1215 0.0094 0.7960
Co6_2 Co 0.12711(4) 0.09114(5) 0.920643(13)
Co2 Co 0.87289(4) 0.59114(5) 0.579357(13)
O1_3 O 0.9394(2) 0.4669(2) 0.55313(6)
O2_2 O 0.9207(2) 0.4046(2) 0.49902(7)
O3_3 O 0.7768(3) 0.7337(3) 0.57820(7)
O4_3 O 0.6722(4) 0.8506(4) 0.54139(10)
O6_3 O 0.7972(2) 0.5788(2) 0.33720(7)
N2_3 N 0.8228(3) 0.6349(3) 0.52820(8)
N3_3 N 0.3549(2) 0.6654(3) 0.78824(10)
N4_3 N 0.5225(2) 0.6677(3) 0.79557(8)
N5_3 N 0.0544(3) 0.9108(3) 0.67714(9)
N7_3 N 0.0312(3) 0.9418(3) 0.82370(9)
N9_3 N 0.5347(3) 0.5265(3) 0.70151(8)
N10_3 N 0.6394(2) 0.5672(3) 0.75415(8)
N11_3 N 0.5811(3) 0.4225(4) 0.56086(9)
N12_3 N 0.7385(3) 0.4881(4) 0.56996(9)
N13_3 N 0.1655(3) 0.7354(3) 0.58417(9)
C1_3 C 0.9101(3) 0.4735(3) 0.51985(10)
C2_3 C 0.7353(5) 0.7738(5) 0.54863(12)
C3_3 C 0.7641(3) 0.6718(3) 0.33327(9)
C4_3 C 0.6366(3) 0.9977(3) 0.36681(11)
C5_3 C 0.8528(3) 0.5769(3) 0.50499(10)
C6_3 C 0.8282(3) 0.6112(3) 0.47052(9)
H1_3 H 0.8501 0.5701 0.4542
C7_3 C 0.7716(3) 0.7060(4) 0.46007(10)
C8_3 C 0.7370(4) 0.7617(4) 0.48490(10)
H2_3 H 0.6945 0.8243 0.4784
C9_3 C 0.7660(4) 0.7236(4) 0.51872(10)
C10_3 C 0.7468(3) 0.7300(3) 0.36431(9)
C11_3 C 0.7663(3) 0.6857(3) 0.39722(9)
H3_3 H 0.7918 0.6137 0.4019
C12_3 C 0.7475(3) 0.7493(3) 0.42369(9)
C13_3 C 0.7060(3) 0.8523(3) 0.41485(10)
H4_3 H 0.6907 0.8965 0.4319
C14_3 C 0.6871(3) 0.8902(3) 0.38125(10)
C15_3 C 0.1631(3) 0.6894(3) 0.77132(12)
C16_3 C 0.1261(3) 0.7047(3) 0.73522(11)
C17_3 C 0.0436(3) 0.7772(3) 0.72114(10)
C19_3 C 0.0286(3) 0.8051(3) 0.77850(11)
C20_3 C 0.1150(3) 0.7399(3) 0.79330(11)
C21_3 C 0.2540(3) 0.6151(4) 0.78715(17)
H5_3 H 0.2441 0.5474 0.7733
H6_3 H 0.2562 0.5959 0.8112
C22_3 C 0.4458(3) 0.6159(3) 0.80219(10)
H7_3 H 0.4544 0.5508 0.8154
C23_3 C 0.4774(3) 0.7547(3) 0.77555(11)
H8_3 H 0.5130 0.8067 0.7662
C24_3 C 0.3738(3) 0.7553(4) 0.77113(14)
H9_3 H 0.3243 0.8074 0.7587
C25_3 C 0.1759(4) 0.6478(4) 0.71146(15)
H10_3 H 0.2308 0.5993 0.7253
H11_3 H 0.1232 0.6055 0.6940
H12_3 H 0.2061 0.7016 0.6996
C26_3 C 0.0095(4) 0.8062(4) 0.68252(11)
H14_3 H 0.0323 0.7489 0.6694
C27_3 C 0.1516(3) 0.9456(4) 0.69316(11)
H15_3 H 0.2011 0.9063 0.7111
C29_3 C 0.0077(3) 0.9881(4) 0.65304(11)
C32_3 C 0.0262(3) 0.9707(4) 0.85513(10)
C35_3 C 0.1580(5) 0.7253(5) 0.83308(13)
H26_3 H 0.1095 0.7571 0.8440
H27_3 H 0.1665 0.6479 0.8387
H28_3 H 0.2256 0.7616 0.8420
C36_3 C 0.4227(3) 0.5192(4) 0.63866(10)
C37_3 C 0.4596(3) 0.4556(4) 0.61586(10)
C38_3 C 0.4343(3) 0.4865(4) 0.58078(10)
C39_3 C 0.3744(3) 0.5788(4) 0.56820(11)
C40_3 C 0.3337(3) 0.6391(4) 0.59068(11)
C41_3 C 0.3621(3) 0.6115(4) 0.62623(11)
C42_3 C 0.4400(3) 0.4821(4) 0.67552(10)
H29_3 H 0.4445 0.4020 0.6761
H30_3 H 0.3788 0.5030 0.6825
C43_3 C 0.5457(3) 0.5328(3) 0.73577(10)
H31_3 H 0.4926 0.5147 0.7456
C44_3 C 0.6903(3) 0.5823(4) 0.73000(11)
H32_3 H 0.7601 0.6068 0.7353
C45_3 C 0.6273(3) 0.5576(4) 0.69765(11)
H33_3 H 0.6438 0.5611 0.6764
C46_3 C 0.5247(4) 0.3557(4) 0.62928(13)
H34_3 H 0.5820 0.3526 0.6194
H35_3 H 0.5529 0.3589 0.6549
H36_3 H 0.4812 0.2909 0.6223
C47_3 C 0.4691(3) 0.4129(5) 0.55643(12)
H37_3 H 0.4288 0.4307 0.5319
H38_3 H 0.4534 0.3368 0.5608
C48_3 C 0.6406(3) 0.5110(4) 0.56751(10)
H39_3 H 0.6161 0.5816 0.5702
C49_3 C 0.7391(4) 0.3790(5) 0.56453(13)
H40_3 H 0.7988 0.3383 0.5647
C50_3 C 0.6436(4) 0.3369(5) 0.55889(14)
H41_3 H 0.6236 0.2632 0.5545
C51_3 C 0.3564(4) 0.6166(5) 0.53083(12)
H42_3 H 0.4068 0.5815 0.5214
H43_3 H 0.2857 0.5972 0.5164
H44_3 H 0.3650 0.6954 0.5305
C52_3 C 0.2656(4) 0.7360(4) 0.57699(13)
H45_3 H 0.2515 0.7402 0.5514
H46_3 H 0.3043 0.8022 0.5874
C53_3 C 0.0988(3) 0.6538(4) 0.58053(10)
H47_3 H 0.1123 0.5822 0.5745
C54_3 C 0.0228(5) 0.7911(5) 0.59372(16)
C55_3 C 0.1172(5) 0.8249(5) 0.59231(19)
H49_3 H 0.1444 0.8965 0.5962
C56_3 C 0.3263(4) 0.6797(4) 0.65137(12)
H50_3 H 0.2597 0.6520 0.6525
H51_3 H 0.3782 0.6765 0.6747
H52_3 H 0.3177 0.7550 0.6432
N16_2 N 0.8286(3) 0.5404(3) 0.81871(8)
N17_2 N 0.9107(3) 0.5504(3) 0.63126(8)
C18_3 C 0.9941(3) 0.8274(3) 0.74290(10)
H13_3 H 0.9326 0.8105 0.6735
H17_3 H 0.9382 0.9873 0.6376
C30_3 C 0.9069(4) 0.9057(4) 0.72757(14)
H18_3 H 0.8403 0.8673 0.7215
H19_3 H 0.9084 0.9626 0.7447
H20_3 H 0.9152 0.9386 0.7065
C31_3 C 0.9715(4) 0.8530(4) 0.80196(13)
H21_3 H 0.9590 0.7955 0.8173
H22_3 H 0.9030 0.8809 0.7873
H23_3 H 0.9819 0.9371 0.8663
H48_3 H 0.9728 0.8358 0.5991
C18_4 C 0.0059(3) 0.3274(3) 0.75710(10)
H13_4 H 0.0674 0.3105 0.8265
H17_4 H 0.0618 0.4873 0.8624
C30_4 C 0.0931(4) 0.4057(4) 0.77243(14)
H18_4 H 0.1597 0.3673 0.7785
H19_4 H 0.0916 0.4626 0.7553
H20_4 H 0.0848 0.4386 0.7935
C31_4 C 0.0285(4) 0.3530(4) 0.69804(13)
H21_4 H 0.0410 0.2955 0.6827
H22_4 H 0.0970 0.3809 0.7127
H23_4 H 0.0181 0.4371 0.6337
H48_4 H 0.0272 0.3358 0.9009
O6_4 O 0.2028(2) 0.0788(2) 0.16280(7)
O8_4 O 0.4022(3) 0.5527(3) 0.11430(8)
C3_4 C 0.2359(3) 0.1718(3) 0.16673(9)
C4_4 C 0.3634(3) 0.4977(3) 0.13319(11)
C6_4 C 0.1718(3) 0.1112(3) 0.02948(9)
H1_4 H 0.1499 0.0701 0.0458
C7_4 C 0.2284(3) 0.2060(4) 0.03993(10)
C8_4 C 0.2630(4) 0.2617(4) 0.01510(10)
H2_4 H 0.3055 0.3243 0.0216
C10_4 C 0.2532(3) 0.2300(3) 0.13569(9)
C11_4 C 0.2337(3) 0.1857(3) 0.10278(9)
H3_4 H 0.2082 0.1137 0.0981
C12_4 C 0.2525(3) 0.2493(3) 0.07631(9)
C13_4 C 0.2940(3) 0.3523(3) 0.08515(10)
H4_4 H 0.3093 0.3965 0.0681
C14_4 C 0.3129(3) 0.3902(3) 0.11875(10)
O3_4 O 0.2232(3) 0.2337(3) 0.92180(7)
O4_4 O 0.3278(4) 0.3506(4) 0.95861(10)
N2_4 N 0.1772(3) 0.1349(3) 0.97180(8)
N3_4 N 0.6451(2) 0.1654(3) 0.71176(10)
N4_4 N 0.4775(2) 0.1677(3) 0.70443(8)
N5_4 N 0.9456(3) 0.4108(3) 0.82286(9)
N7_4 N 0.9688(3) 0.4418(3) 0.67630(9)
N9_4 N 0.4653(3) 0.0265(3) 0.79849(8)
N10_4 N 0.3606(2) 0.0672(3) 0.74585(8)
N13_4 N 0.8345(3) 0.2354(3) 0.91583(9)
N14_2 N 0.9886(3) 0.1831(3) 0.91373(8)
C2_4 C 0.2647(5) 0.2738(5) 0.95137(12)
C5_4 C 0.1472(3) 0.0769(3) 0.99501(10)
C9_4 C 0.2340(4) 0.2236(4) 0.98128(10)
C15_4 C 0.8369(3) 0.1894(3) 0.72868(12)
C16_4 C 0.8739(3) 0.2047(3) 0.76478(11)
C17_4 C 0.9564(3) 0.2772(3) 0.77886(10)
C19_4 C 0.9714(3) 0.3051(3) 0.72150(11)
C20_4 C 0.8850(3) 0.2399(3) 0.70670(11)
C21_4 C 0.7460(3) 0.1151(4) 0.71285(17)
H5_4 H 0.7559 0.0474 0.7267
H6_4 H 0.7438 0.0959 0.6888
C22_4 C 0.5542(3) 0.1159(3) 0.69781(10)
H7_4 H 0.5456 0.0508 0.6846
C23_4 C 0.5226(3) 0.2547(3) 0.72445(11)
H8_4 H 0.4870 0.3067 0.7338
C24_4 C 0.6262(3) 0.2553(4) 0.72887(14)
H9_4 H 0.6757 0.3074 0.7413
C25_4 C 0.8241(4) 0.1478(4) 0.78854(15)
H10_4 H 0.7692 0.0993 0.7747
H11_4 H 0.8768 0.1055 0.8060
H12_4 H 0.7939 0.2016 0.8004
C26_4 C 0.9905(4) 0.3062(4) 0.81748(11)
H14_4 H 0.9677 0.2489 0.8306
C27_4 C 0.8484(3) 0.4456(4) 0.80684(11)
H15_4 H 0.7989 0.4063 0.7889
C28_4 C 0.9197(3) 0.5662(4) 0.84453(11)
H16_4 H 0.9303 0.6295 0.8586
C29_4 C 0.9923(3) 0.4881(4) 0.84696(11)
C32_4 C 0.9738(3) 0.4707(4) 0.64487(10)
C33_4 C 0.8620(4) 0.5748(4) 0.65552(11)
H24_4 H 0.8107 0.6295 0.6530
C34_4 C 0.8983(4) 0.5090(4) 0.68336(11)
H25_4 H 0.8785 0.5094 0.7040
C35_4 C 0.8420(5) 0.2253(5) 0.66692(13)
H26_4 H 0.8905 0.2571 0.6560
H27_4 H 0.8335 0.1479 0.6613
H28_4 H 0.7744 0.2616 0.6580
C36_4 C 0.5773(3) 0.0192(4) 0.86134(10)
C39_4 C 0.6256(3) 0.0788(4) 0.93180(11)
C40_4 C 0.6663(3) 0.1391(4) 0.90932(11)
C41_4 C 0.6379(3) 0.1115(4) 0.87377(11)
H30_4 H 0.6212 0.0030 0.8175
C43_4 C 0.4543(3) 0.0328(3) 0.76423(10)
H31_4 H 0.5074 0.0147 0.7544
C44_4 C 0.3097(3) 0.0823(4) 0.77000(11)
H32_4 H 0.2399 0.1068 0.7647
C45_4 C 0.3727(3) 0.0576(4) 0.80235(11)
H33_4 H 0.3562 0.0611 0.8236
C48_4 C 0.3594(3) 0.0110(4) 0.93249(10)
H39_4 H 0.3839 0.0816 0.9298
C51_4 C 0.6436(4) 0.1166(5) 0.96917(12)
H42_4 H 0.5932 0.0815 0.9786
H43_4 H 0.7143 0.0972 0.9836
H44_4 H 0.6350 0.1954 0.9695
C52_4 C 0.7344(4) 0.2360(4) 0.92301(13)
H45_4 H 0.7485 0.2402 0.9486
H46_4 H 0.6957 0.3022 0.9126
C53_4 C 0.9012(3) 0.1538(4) 0.91947(10)
H47_4 H 0.8877 0.0822 0.9255
C54_4 C 0.9772(5) 0.2911(5) 0.90628(16)
C55_4 C 0.8828(5) 0.3249(5) 0.90769(19)
H49_4 H 0.8556 0.3965 0.9038
C56_4 C 0.6737(4) 0.1797(4) 0.84863(12)
H50_4 H 0.7403 0.1520 0.8475
H51_4 H 0.6218 0.1765 0.8253
H52_4 H 0.6823 0.2550 0.8568
O1_4 O 0.0606(2) 0.9669(2) 0.94687(6)
N11_4 N 0.4189(3) 0.9225(4) 0.93914(9)
N12_4 N 0.2615(3) 0.9881(4) 0.93004(9)
C1_4 C 0.0899(3) 0.9735(3) 0.98015(10)
C37_4 C 0.5404(3) 0.9556(4) 0.88414(10)
C38_4 C 0.5657(3) 0.9865(4) 0.91922(10)
C42_4 C 0.5600(3) 0.9821(4) 0.82448(10)
H29_4 H 0.5555 0.9020 0.8239
C46_4 C 0.4753(4) 0.8557(4) 0.87072(13)
H34_4 H 0.4180 0.8526 0.8806
H35_4 H 0.4471 0.8589 0.8451
H36_4 H 0.5188 0.7909 0.8777
C47_4 C 0.5309(3) 0.9129(5) 0.94357(12)
H37_4 H 0.5712 0.9307 0.9681
H38_4 H 0.5466 0.8368 0.9392
C49_4 C 0.2609(4) 0.8790(5) 0.93547(13)
H40_4 H 0.2012 0.8383 0.9353
C50_4 C 0.3564(4) 0.8369(5) 0.94111(14)
H41_4 H 0.3764 0.7632 0.9455
O2_3 O 0.9207(2) 0.0954(2) 0.99902(7)
O2_4 O 0.0793(2) 0.9046(2) 0.00098(7)
loop_
_geom_bond_atom_site_label_1
_geom_bond_atom_site_label_2
_geom_bond_site_symmetry_1
_geom_bond_site_symmetry_2
C30 C18 1_555 1_555
H18 C30 1_555 1_555
H19 C30 1_555 1_555
H20 C30 1_555 1_555
H21 C31 1_555 1_555
H22 C31 1_555 1_555
Co1 N4 1_555 1_555
Co5 O1 1_555 1_555
O1 C1 1_555 1_555
O2 C1 1_555 1_555
O3 Co5 1_555 1_555
O4 C2 1_555 1_555
O5 C3 1_555 1_555
O6 C3 1_555 1_555
N1 C10 1_555 1_555
N2 Co5 1_555 1_555
N3 C21 1_555 1_555
N4 C22 1_555 1_555
N5 C26 1_555 1_555
N9 C42 1_555 1_555
N10 Co1 1_555 1_555
N11 C47 1_555 1_555
N12 Co5 1_555 1_555
N13 C52 1_555 1_555
N14 C53 1_555 1_555
C1 C5 1_555 1_555
C2 O3 1_555 1_555
C3 C10 1_555 1_555
C4 C14 1_555 1_555
C5 N2 1_555 1_555
C6 C5 1_555 1_555
H1 C6 1_555 1_555
C7 C6 1_555 1_555
C8 C7 1_555 1_555
H2 C8 1_555 1_555
C9 N2 1_555 1_555
C10 C11 1_555 1_555
C11 H3 1_555 1_555
C12 C7 1_555 1_555
C13 C12 1_555 1_555
H4 C13 1_555 1_555
C14 N1 1_555 1_555
C15 C16 1_555 1_555
C16 C17 1_555 1_555
C19 C20 1_555 1_555
C20 C15 1_555 1_555
C21 C15 1_555 1_555
H5 C21 1_555 1_555
H6 C21 1_555 1_555
C22 N3 1_555 1_555
H7 C22 1_555 1_555
C23 N4 1_555 1_555
H8 C23 1_555 1_555
C24 N3 1_555 1_555
H9 C24 1_555 1_555
C25 C16 1_555 1_555
H10 C25 1_555 1_555
H11 C25 1_555 1_555
H12 C25 1_555 1_555
C26 C17 1_555 1_555
H14 C26 1_555 1_555
C27 N5 1_555 1_555
H15 C27 1_555 1_555
C29 N5 1_555 1_555
C32 N7 1_555 1_555
C35 C20 1_555 1_555
H26 C35 1_555 1_555
H27 C35 1_555 1_555
H28 C35 1_555 1_555
C36 C37 1_555 1_555
C37 C38 1_555 1_555
C38 C39 1_555 1_555
C39 C40 1_555 1_555
C40 C41 1_555 1_555
C41 C36 1_555 1_555
C42 C36 1_555 1_555
H29 C42 1_555 1_555
H30 C42 1_555 1_555
C43 N9 1_555 1_555
H31 C43 1_555 1_555
C44 N10 1_555 1_555
H32 C44 1_555 1_555
C45 N9 1_555 1_555
H33 C45 1_555 1_555
C46 C37 1_555 1_555
H34 C46 1_555 1_555
H35 C46 1_555 1_555
H36 C46 1_555 1_555
C47 C38 1_555 1_555
H37 C47 1_555 1_555
H38 C47 1_555 1_555
C48 N11 1_555 1_555
H39 C48 1_555 1_555
C49 N12 1_555 1_555
H40 C49 1_555 1_555
C50 N11 1_555 1_555
H41 C50 1_555 1_555
C51 C39 1_555 1_555
H42 C51 1_555 1_555
H43 C51 1_555 1_555
H44 C51 1_555 1_555
C52 C40 1_555 1_555
H45 C52 1_555 1_555
H46 C52 1_555 1_555
C53 N13 1_555 1_555
H47 C53 1_555 1_555
C54 N14 1_555 1_555
C55 N13 1_555 1_555
H49 C55 1_555 1_555
C56 C41 1_555 1_555
H50 C56 1_555 1_555
H51 C56 1_555 1_555
H52 C56 1_555 1_555
Co4 O5 1_555 1_555
O9 Co1 1_555 1_555
O10 Co1 1_555 1_555
N15 Co1 1_555 1_555
N16 Co1 1_555 1_555
N17 Co5 1_555 1_555
N1 Co4 1_555 1_555
N10 C43 1_555 1_555
N12 C48 1_555 1_555
C2 C9 1_555 1_555
C8 C9 1_555 1_555
C11 C12 1_555 1_555
C13 C14 1_555 1_555
C23 C24 1_555 1_555
C44 C45 1_555 1_555
C49 C50 1_555 1_555
C54 C55 1_555 1_555
C28 N6 1_555 1_555
H16 C28 1_555 1_555
C33 N8 1_555 1_555
H24 C33 1_555 1_555
H25 C34 1_555 1_555
Co3 N6 1_555 1_555
Co6 N8 1_555 1_555
C33 C34 1_555 1_555
O1_2 C1_2 1_555 1_555
N11_2 C47_2 1_555 1_555
C37_2 C38_2 1_555 1_555
H29_2 C42_2 1_555 1_555
C46_2 C37_2 1_555 1_555
H34_2 C46_2 1_555 1_555
H35_2 C46_2 1_555 1_555
H36_2 C46_2 1_555 1_555
C47_2 C38_2 1_555 1_555
H37_2 C47_2 1_555 1_555
H38_2 C47_2 1_555 1_555
C49_2 N12_2 1_555 1_555
H40_2 C49_2 1_555 1_555
C50_2 N11_2 1_555 1_555
H41_2 C50_2 1_555 1_555
C49_2 C50_2 1_555 1_555
Co3 N4_2 1_555 1_555
O3_2 Co6 1_555 1_555
O4_2 C2_2 1_555 1_555
N2_2 Co6 1_555 1_555
N3_2 C21_2 1_555 1_555
N4_2 C22_2 1_555 1_555
N5_2 C26_2 1_555 1_555
N16 C27_2 1_555 1_555
N17 C32_2 1_555 1_555
N10_2 Co3 1_555 1_555
N13_2 C52_2 1_555 1_555
N18 C53_2 1_555 1_555
C2_2 O3_2 1_555 1_555
C5_2 N2_2 1_555 1_555
C9_2 N2_2 1_555 1_555
C15_2 C16_2 1_555 1_555
C16_2 C17_2 1_555 1_555
C19_2 C20_2 1_555 1_555
C20_2 C15_2 1_555 1_555
C21_2 C15_2 1_555 1_555
H5_2 C21_2 1_555 1_555
H6_2 C21_2 1_555 1_555
C22_2 N3_2 1_555 1_555
H7_2 C22_2 1_555 1_555
C23_2 N4_2 1_555 1_555
H8_2 C23_2 1_555 1_555
C24_2 N3_2 1_555 1_555
H9_2 C24_2 1_555 1_555
C25_2 C16_2 1_555 1_555
H10_2 C25_2 1_555 1_555
H11_2 C25_2 1_555 1_555
H12_2 C25_2 1_555 1_555
C26_2 C17_2 1_555 1_555
H14_2 C26_2 1_555 1_555
C27_2 N5_2 1_555 1_555
H15_2 C27_2 1_555 1_555
C28_2 N16 1_555 1_555
H16_2 C28_2 1_555 1_555
C29_2 N5_2 1_555 1_555
C32_2 N7_2 1_555 1_555
C33_2 N17 1_555 1_555
H24_2 C33_2 1_555 1_555
C34_2 N7_2 1_555 1_555
H25_2 C34_2 1_555 1_555
C35_2 C20_2 1_555 1_555
H26_2 C35_2 1_555 1_555
H27_2 C35_2 1_555 1_555
H28_2 C35_2 1_555 1_555
C39_2 C40_2 1_555 1_555
C40_2 C41_2 1_555 1_555
C41_2 C36_2 1_555 1_555
C43_2 N9_2 1_555 1_555
H31_2 C43_2 1_555 1_555
C44_2 N10_2 1_555 1_555
H32_2 C44_2 1_555 1_555
C45_2 N9_2 1_555 1_555
H33_2 C45_2 1_555 1_555
H39_2 C48_2 1_555 1_555
C51_2 C39_2 1_555 1_555
H42_2 C51_2 1_555 1_555
H43_2 C51_2 1_555 1_555
H44_2 C51_2 1_555 1_555
C52_2 C40_2 1_555 1_555
H45_2 C52_2 1_555 1_555
H46_2 C52_2 1_555 1_555
C53_2 N13_2 1_555 1_555
H47_2 C53_2 1_555 1_555
C54_2 N18 1_555 1_555
C55_2 N13_2 1_555 1_555
H49_2 C55_2 1_555 1_555
C56_2 C41_2 1_555 1_555
H50_2 C56_2 1_555 1_555
H51_2 C56_2 1_555 1_555
H52_2 C56_2 1_555 1_555
O9_2 Co3 1_555 1_555
N15_2 Co3 1_555 1_555
N10_2 C43_2 1_555 1_555
C2_2 C9_2 1_555 1_555
C23_2 C24_2 1_555 1_555
C28_2 C29_2 1_555 1_555
C33_2 C34_2 1_555 1_555
C44_2 C45_2 1_555 1_555
C54_2 C55_2 1_555 1_555
O5_2 C3_2 1_555 1_555
O6_2 C3_2 1_555 1_555
O7_2 C4_2 1_555 1_555
O8_2 C4_2 1_555 1_555
N1_2 C10_2 1_555 1_555
C3_2 C10_2 1_555 1_555
C4_2 C14_2 1_555 1_555
H1_2 C6_2 1_555 1_555
C7_2 C6_2 1_555 1_555
C8_2 C7_2 1_555 1_555
H2_2 C8_2 1_555 1_555
C10_2 C11_2 1_555 1_555
C11_2 H3_2 1_555 1_555
C12_2 C7_2 1_555 1_555
C13_2 C12_2 1_555 1_555
H4_2 C13_2 1_555 1_555
C14_2 N1_2 1_555 1_555
Co4_2 O5_2 1_555 1_555
O7_2 Co4_2 1_555 1_555
N1_2 Co4_2 1_555 1_555
C11_2 C12_2 1_555 1_555
C13_2 C14_2 1_555 1_555
C30_2 C18_2 1_555 1_555
H18_2 C30_2 1_555 1_555
H19_2 C30_2 1_555 1_555
H20_2 C30_2 1_555 1_555
H21_2 C31_2 1_555 1_555
H22_2 C31_2 1_555 1_555
C28_3 N6_2 1_555 1_555
H16_3 C28_3 1_555 1_555
C33_3 N8_2 1_555 1_555
H24_3 C33_3 1_555 1_555
H25_3 C34_3 1_555 1_555
Co4 N6_2 1_555 1_555
Co6_2 N8_2 1_555 1_555
C33_3 C34_3 1_555 1_555
Co4_2 N4_3 1_555 1_555
Co2 O1_3 1_555 1_555
O1_3 C1_3 1_555 1_555
O2_2 C1_3 1_555 1_555
O3_3 Co2 1_555 1_555
O4_3 C2_3 1_555 1_555
O9_2 C3_3 1_555 1_555
O6_3 C3_3 1_555 1_555
N15_2 C10_3 1_555 1_555
N2_3 Co2 1_555 1_555
N3_3 C21_3 1_555 1_555
N4_3 C22_3 1_555 1_555
N5_3 C26_3 1_555 1_555
N9_3 C42_3 1_555 1_555
N10_3 Co4_2 1_555 1_555
N11_3 C47_3 1_555 1_555
N12_3 Co2 1_555 1_555
N13_3 C52_3 1_555 1_555
N18_2 C53_3 1_555 1_555
C1_3 C5_3 1_555 1_555
C2_3 O3_3 1_555 1_555
C3_3 C10_3 1_555 1_555
C4_3 C14_3 1_555 1_555
C5_3 N2_3 1_555 1_555
C6_3 C5_3 1_555 1_555
H1_3 C6_3 1_555 1_555
C7_3 C6_3 1_555 1_555
C8_3 C7_3 1_555 1_555
H2_3 C8_3 1_555 1_555
C9_3 N2_3 1_555 1_555
C10_3 C11_3 1_555 1_555
C11_3 H3_3 1_555 1_555
C12_3 C7_3 1_555 1_555
C13_3 C12_3 1_555 1_555
H4_3 C13_3 1_555 1_555
C14_3 N15_2 1_555 1_555
C15_3 C16_3 1_555 1_555
C16_3 C17_3 1_555 1_555
C19_3 C20_3 1_555 1_555
C20_3 C15_3 1_555 1_555
C21_3 C15_3 1_555 1_555
H5_3 C21_3 1_555 1_555
H6_3 C21_3 1_555 1_555
C22_3 N3_3 1_555 1_555
H7_3 C22_3 1_555 1_555
C23_3 N4_3 1_555 1_555
H8_3 C23_3 1_555 1_555
C24_3 N3_3 1_555 1_555
H9_3 C24_3 1_555 1_555
C25_3 C16_3 1_555 1_555
H10_3 C25_3 1_555 1_555
H11_3 C25_3 1_555 1_555
H12_3 C25_3 1_555 1_555
C26_3 C17_3 1_555 1_555
H14_3 C26_3 1_555 1_555
C27_3 N5_3 1_555 1_555
H15_3 C27_3 1_555 1_555
C29_3 N5_3 1_555 1_555
C32_3 N7_3 1_555 1_555
C35_3 C20_3 1_555 1_555
H26_3 C35_3 1_555 1_555
H27_3 C35_3 1_555 1_555
H28_3 C35_3 1_555 1_555
C36_3 C37_3 1_555 1_555
C37_3 C38_3 1_555 1_555
C38_3 C39_3 1_555 1_555
C39_3 C40_3 1_555 1_555
C40_3 C41_3 1_555 1_555
C41_3 C36_3 1_555 1_555
C42_3 C36_3 1_555 1_555
H29_3 C42_3 1_555 1_555
H30_3 C42_3 1_555 1_555
C43_3 N9_3 1_555 1_555
H31_3 C43_3 1_555 1_555
C44_3 N10_3 1_555 1_555
H32_3 C44_3 1_555 1_555
C45_3 N9_3 1_555 1_555
H33_3 C45_3 1_555 1_555
C46_3 C37_3 1_555 1_555
H34_3 C46_3 1_555 1_555
H35_3 C46_3 1_555 1_555
H36_3 C46_3 1_555 1_555
C47_3 C38_3 1_555 1_555
H37_3 C47_3 1_555 1_555
H38_3 C47_3 1_555 1_555
C48_3 N11_3 1_555 1_555
H39_3 C48_3 1_555 1_555
C49_3 N12_3 1_555 1_555
H40_3 C49_3 1_555 1_555
C50_3 N11_3 1_555 1_555
H41_3 C50_3 1_555 1_555
C51_3 C39_3 1_555 1_555
H42_3 C51_3 1_555 1_555
H43_3 C51_3 1_555 1_555
H44_3 C51_3 1_555 1_555
C52_3 C40_3 1_555 1_555
H45_3 C52_3 1_555 1_555
H46_3 C52_3 1_555 1_555
C53_3 N13_3 1_555 1_555
H47_3 C53_3 1_555 1_555
C54_3 N18_2 1_555 1_555
C55_3 N13_3 1_555 1_555
H49_3 C55_3 1_555 1_555
C56_3 C41_3 1_555 1_555
H50_3 C56_3 1_555 1_555
H51_3 C56_3 1_555 1_555
H52_3 C56_3 1_555 1_555
N16_2 Co4_2 1_555 1_555
N17_2 Co2 1_555 1_555
N10_3 C43_3 1_555 1_555
N12_3 C48_3 1_555 1_555
C2_3 C9_3 1_555 1_555
C8_3 C9_3 1_555 1_555
C11_3 C12_3 1_555 1_555
C13_3 C14_3 1_555 1_555
C23_3 C24_3 1_555 1_555
C44_3 C45_3 1_555 1_555
C49_3 C50_3 1_555 1_555
C54_3 C55_3 1_555 1_555
C30_3 C18_3 1_555 1_555
H18_3 C30_3 1_555 1_555
H19_3 C30_3 1_555 1_555
H20_3 C30_3 1_555 1_555
H21_3 C31_3 1_555 1_555
H22_3 C31_3 1_555 1_555
C30_4 C18_4 1_555 1_555
H18_4 C30_4 1_555 1_555
H19_4 C30_4 1_555 1_555
H20_4 C30_4 1_555 1_555
H21_4 C31_4 1_555 1_555
H22_4 C31_4 1_555 1_555
O9 C3_4 1_555 1_555
O6_4 C3_4 1_555 1_555
O10 C4_4 1_555 1_555
O8_4 C4_4 1_555 1_555
N15 C10_4 1_555 1_555
C3_4 C10_4 1_555 1_555
C4_4 C14_4 1_555 1_555
H1_4 C6_4 1_555 1_555
C7_4 C6_4 1_555 1_555
C8_4 C7_4 1_555 1_555
H2_4 C8_4 1_555 1_555
C10_4 C11_4 1_555 1_555
C11_4 H3_4 1_555 1_555
C12_4 C7_4 1_555 1_555
C13_4 C12_4 1_555 1_555
H4_4 C13_4 1_555 1_555
C14_4 N15 1_555 1_555
C11_4 C12_4 1_555 1_555
C13_4 C14_4 1_555 1_555
Co4 N4_4 1_555 1_555
O3_4 Co6_2 1_555 1_555
O4_4 C2_4 1_555 1_555
N2_4 Co6_2 1_555 1_555
N3_4 C21_4 1_555 1_555
N4_4 C22_4 1_555 1_555
N5_4 C26_4 1_555 1_555
N16_2 C27_4 1_555 1_555
N17_2 C32_4 1_555 1_555
N10_4 Co4 1_555 1_555
N13_4 C52_4 1_555 1_555
N14_2 C53_4 1_555 1_555
C2_4 O3_4 1_555 1_555
C5_4 N2_4 1_555 1_555
C9_4 N2_4 1_555 1_555
C15_4 C16_4 1_555 1_555
C16_4 C17_4 1_555 1_555
C19_4 C20_4 1_555 1_555
C20_4 C15_4 1_555 1_555
C21_4 C15_4 1_555 1_555
H5_4 C21_4 1_555 1_555
H6_4 C21_4 1_555 1_555
C22_4 N3_4 1_555 1_555
H7_4 C22_4 1_555 1_555
C23_4 N4_4 1_555 1_555
H8_4 C23_4 1_555 1_555
C24_4 N3_4 1_555 1_555
H9_4 C24_4 1_555 1_555
C25_4 C16_4 1_555 1_555
H10_4 C25_4 1_555 1_555
H11_4 C25_4 1_555 1_555
H12_4 C25_4 1_555 1_555
C26_4 C17_4 1_555 1_555
H14_4 C26_4 1_555 1_555
C27_4 N5_4 1_555 1_555
H15_4 C27_4 1_555 1_555
C28_4 N16_2 1_555 1_555
H16_4 C28_4 1_555 1_555
C29_4 N5_4 1_555 1_555
C32_4 N7_4 1_555 1_555
C33_4 N17_2 1_555 1_555
H24_4 C33_4 1_555 1_555
C34_4 N7_4 1_555 1_555
H25_4 C34_4 1_555 1_555
C35_4 C20_4 1_555 1_555
H26_4 C35_4 1_555 1_555
H27_4 C35_4 1_555 1_555
H28_4 C35_4 1_555 1_555
C39_4 C40_4 1_555 1_555
C40_4 C41_4 1_555 1_555
C41_4 C36_4 1_555 1_555
C43_4 N9_4 1_555 1_555
H31_4 C43_4 1_555 1_555
C44_4 N10_4 1_555 1_555
H32_4 C44_4 1_555 1_555
C45_4 N9_4 1_555 1_555
H33_4 C45_4 1_555 1_555
H39_4 C48_4 1_555 1_555
C51_4 C39_4 1_555 1_555
H42_4 C51_4 1_555 1_555
H43_4 C51_4 1_555 1_555
H44_4 C51_4 1_555 1_555
C52_4 C40_4 1_555 1_555
H45_4 C52_4 1_555 1_555
H46_4 C52_4 1_555 1_555
C53_4 N13_4 1_555 1_555
H47_4 C53_4 1_555 1_555
C54_4 N14_2 1_555 1_555
C55_4 N13_4 1_555 1_555
H49_4 C55_4 1_555 1_555
C56_4 C41_4 1_555 1_555
H50_4 C56_4 1_555 1_555
H51_4 C56_4 1_555 1_555
H52_4 C56_4 1_555 1_555
N10_4 C43_4 1_555 1_555
C2_4 C9_4 1_555 1_555
C23_4 C24_4 1_555 1_555
C28_4 C29_4 1_555 1_555
C33_4 C34_4 1_555 1_555
C44_4 C45_4 1_555 1_555
C54_4 C55_4 1_555 1_555
O1_4 C1_4 1_555 1_555
N11_4 C47_4 1_555 1_555
C37_4 C38_4 1_555 1_555
H29_4 C42_4 1_555 1_555
C46_4 C37_4 1_555 1_555
H34_4 C46_4 1_555 1_555
H35_4 C46_4 1_555 1_555
H36_4 C46_4 1_555 1_555
C47_4 C38_4 1_555 1_555
H37_4 C47_4 1_555 1_555
H38_4 C47_4 1_555 1_555
C49_4 N12_4 1_555 1_555
H40_4 C49_4 1_555 1_555
C50_4 N11_4 1_555 1_555
H41_4 C50_4 1_555 1_555
C49_4 C50_4 1_555 1_555

#END
