
###############################################################################
#
# This file contains modified crystal structure data generated from the
# MOF subset of the Cambridge Structural Database (CSD) v543 
# hosted by the Cambridge Crystallographic Data Centre (CCDC).
#
# This work is licensed under the Creative Commons
# Attribution-NonCommercial-ShareAlike 4.0 International License.
# To view a copy of this license, visit
# http://creativecommons.org/licenses/by-nc-sa/4.0/
# or send a letter to
# Creative Commons, PO Box 1866, Mountain View, CA 94042, USA.
#
# CIF created using the CSD Python API on 29 September 2022
# The structure has been converted into the P1 space group
# The structure has a 3D framework
# The original CSD entry REGMOH is in the monoclinic crystal system
# The framework has been calculated to contain at least 10.0% void space
# The void calculation uses a probe of radius 1.32A, grid spacing 0.4
#
###############################################################################

data_REGMOH
_chemical_formula_moiety         '(C224 H208 N56 Ni8 O32)n'
_symmetry_cell_setting           triclinic
_symmetry_space_group_name_H-M   'P 1'
_symmetry_Int_Tables_number      1
_space_group_name_Hall           'P 1'
loop_
_symmetry_equiv_pos_site_id
_symmetry_equiv_pos_as_xyz
1 x,y,z
_cell_length_a                   13.4995(19)
_cell_length_b                   12.4212(14)
_cell_length_c                   40.153(6)
_cell_angle_alpha                90
_cell_angle_beta                 108.438(6)
_cell_angle_gamma                90
_cell_volume                     6387.23
loop_
_atom_site_label
_atom_site_type_symbol
_atom_site_fract_x
_atom_site_fract_y
_atom_site_fract_z
C6 C 0.0028(2) 0.6655(3) 0.25565(8)
H1 H 0.0678 0.6802 0.3247
H5 H 0.0614 0.5071 0.3615
C21 C 0.0250(3) 0.6436(3) 0.19614(10)
H17 H 0.0363 0.7015 0.1808
H18 H 0.0943 0.6168 0.2107
H19 H 0.0165 0.5638 0.1318
C25 C 0.0887(3) 0.5848(3) 0.27029(12)
H22 H 0.1565 0.6194 0.2738
H23 H 0.0803 0.5247 0.2538
H24 H 0.0853 0.5578 0.2928
N17 N 0.0088(2) 0.1834(2) 0.58586(6)
Ni1 Ni 0.67903(3) 0.38792(3) 0.307516(10)
Ni2 Ni 0.87118(3) 0.09473(4) 0.577570(10)
O1 O 0.7799(2) 0.2361(2) 0.57835(6)
O2 O 0.6778(3) 0.3548(3) 0.54228(8)
O5 O 0.73725(16) 0.23072(17) 0.30377(5)
O6 O 0.79589(17) 0.08310(18) 0.33615(5)
O7 O 0.63273(18) 0.52211(18) 0.33543(6)
O8 O 0.5937(2) 0.5531(2) 0.38476(7)
N1 N 0.9440(2) 0.5837(2) 0.32250(7)
N2 N 0.8260(2) 0.4579(2) 0.31954(7)
N3 N 0.6436(2) 0.8334(2) 0.21220(8)
N4 N 0.4748(2) 0.8337(2) 0.20446(6)
N5 N 0.9665(2) 0.5550(2) 0.17419(7)
N6 N 0.9101(2) 0.4485(2) 0.12872(6)
N7 N 0.8235(2) 0.1384(2) 0.52767(6)
N8 N 0.70724(19) 0.3326(2) 0.35609(6)
N9 N 0.5382(2) 0.4779(2) 0.20318(6)
N10 N 0.6407(2) 0.4349(2) 0.25587(7)
N11 N 0.1666(2) 0.2659(2) 0.08674(8)
N12 N 0.0088(2) 0.3166(2) 0.08586(6)
N13 N 0.5816(2) 0.5718(3) 0.06042(7)
N14 N 0.7382(2) 0.5049(3) 0.06829(7)
C1 C 0.9552(2) 0.7158(2) 0.27806(8)
C2 C 0.8741(3) 0.7890(3) 0.26454(9)
C3 C 0.8352(3) 0.8058(3) 0.22821(9)
C4 C 0.8813(3) 0.7555(3) 0.20573(9)
C5 C 0.9676(3) 0.6895(3) 0.22000(9)
C7 C 0.7384(3) 0.2778(4) 0.54875(9)
C9 C 0.7620(2) 0.1755(3) 0.33215(8)
C10 C 0.6332(3) 0.4986(3) 0.36600(9)
C11 C 0.9907(3) 0.6865(3) 0.31623(9)
H2 H 0.9708 0.7446 0.3298
C12 C 0.8450(3) 0.5509(3) 0.30733(8)
H3 H 0.7944 0.5907 0.2898
C13 C 0.9180(3) 0.4301(3) 0.34444(9)
H4 H 0.9290 0.3665 0.3583
C14 C 0.9912(3) 0.5070(3) 0.34641(9)
C15 C 0.8271(3) 0.8479(3) 0.28907(12)
H6 H 0.8009 0.7954 0.3025
H7 H 0.7693 0.8934 0.2753
H8 H 0.8806 0.8929 0.3053
C16 C 0.7438(3) 0.8816(3) 0.21297(13)
H9 H 0.7552 0.9483 0.2272
H10 H 0.7406 0.9016 0.1888
C17 C 0.5524(3) 0.8831(3) 0.19756(8)
H11 H 0.5444 0.9466 0.1838
C18 C 0.5190(3) 0.7485(3) 0.22530(9)
H12 H 0.4827 0.6985 0.2351
C19 C 0.6226(3) 0.7464(3) 0.22990(11)
H13 H 0.6714 0.6946 0.2429
C20 C 0.8375(3) 0.7719(4) 0.16624(10)
H14 H 0.7612 0.7664 0.1588
H15 H 0.8656 0.7167 0.1543
H16 H 0.8575 0.8434 0.1602
C22 C 0.9724(3) 0.5287(3) 0.14276(8)
C23 C 0.8620(3) 0.4210(3) 0.15304(9)
H20 H 0.8121 0.3651 0.1504
C24 C 0.8970(3) 0.4860(3) 0.18117(9)
H21 H 0.8772 0.4842 0.2019
C26 C 0.7660(3) 0.2265(3) 0.51837(8)
C27 C 0.7368(3) 0.2644(3) 0.48439(9)
H25 H 0.6956 0.3277 0.4781
C28 C 0.7685(3) 0.2088(3) 0.45931(8)
C29 C 0.8256(3) 0.1142(3) 0.46973(8)
H26 H 0.8466 0.0731 0.4532
C30 C 0.8516(2) 0.0804(3) 0.50426(8)
C31 C 0.6835(3) 0.3913(3) 0.38028(8)
C32 C 0.7015(3) 0.3528(3) 0.41381(8)
H27 H 0.6851 0.3960 0.4309
C33 C 0.7438(3) 0.2505(3) 0.42274(8)
C34 C 0.7636(2) 0.1887(3) 0.39637(8)
H28 H 0.7895 0.1173 0.4011
C35 C 0.7450(2) 0.2332(2) 0.36337(8)
C36 C 0.4255(2) 0.4837(3) 0.13974(8)
C37 C 0.3647(3) 0.3919(3) 0.12823(9)
C38 C 0.3357(3) 0.3618(3) 0.09286(9)
C39 C 0.3745(3) 0.4203(3) 0.06947(9)
C40 C 0.4352(2) 0.5116(3) 0.08154(8)
C41 C 0.4620(3) 0.5445(3) 0.11668(8)
C42 C 0.4444(3) 0.5230(3) 0.17673(8)
H29 H 0.4508 0.6024 0.1769
H30 H 0.3825 0.5052 0.1838
C43 C 0.5485(3) 0.4723(3) 0.23733(8)
H31 H 0.4956 0.4928 0.2471
C44 C 0.6926(3) 0.4156(3) 0.23183(9)
H32 H 0.7615 0.3881 0.2372
C45 C 0.6292(3) 0.4422(3) 0.19922(9)
H33 H 0.6452 0.4370 0.1779
C46 C 0.3288(3) 0.3254(4) 0.15392(10)
H34 H 0.2615 0.3527 0.1548
H35 H 0.3806 0.3304 0.1773
H36 H 0.3211 0.2500 0.1463
C47 C 0.2675(3) 0.2642(3) 0.08005(12)
H37 H 0.2541 0.2570 0.0545
H38 H 0.3065 0.1995 0.0914
C48 C 0.0962(3) 0.3454(3) 0.08000(8)
H39 H 0.1077 0.4147 0.0719
C49 C 0.0247(3) 0.2134(3) 0.09718(11)
C50 C 0.1214(4) 0.1806(4) 0.09811(14)
H41 H 0.1518 0.1119 0.1052
C51 C 0.3535(3) 0.3808(4) 0.03220(10)
H42 H 0.2794 0.3906 0.0190
H43 H 0.3715 0.3043 0.0325
H44 H 0.3961 0.4220 0.0209
C52 C 0.4699(3) 0.5823(4) 0.05649(10)
H45 H 0.4286 0.5635 0.0321
H46 H 0.4549 0.6584 0.0605
C53 C 0.6409(3) 0.4834(3) 0.06639(9)
H47 H 0.6160 0.4134 0.0690
C54 C 0.7402(3) 0.6141(3) 0.06346(11)
H48 H 0.8002 0.6542 0.0636
C55 C 0.6446(3) 0.6562(4) 0.05848(11)
H49 H 0.6249 0.7297 0.0544
C56 C 0.5286(3) 0.6426(3) 0.12952(10)
H50 H 0.5828 0.6465 0.1181
H51 H 0.5615 0.6378 0.1550
H52 H 0.4849 0.7073 0.1238
Ni3 Ni 0.32097(3) 0.88792(3) 0.192484(10)
Ni4 Ni 0.87118(3) 0.40527(4) 0.077570(10)
N15 N 0.5252(2) 0.3337(2) 0.29554(6)
N16 N 0.9101(2) 0.0515(2) 0.62872(6)
O3 O 0.93874(17) 0.97079(18) 0.55275(5)
O4 O 0.91953(19) 0.90870(19) 0.49866(6)
C8 C 0.9090(2) 0.9773(3) 0.51934(8)
N18 N 0.7382(2) 0.9951(3) 0.56829(7)
H40 H 0.9754 0.1704 0.1035
H40_2 H 0.0246 0.6704 0.3965
Ni5 Ni 0.12882(3) 0.90527(4) 0.422430(10)
O7_2 O 0.36727(18) 0.02211(18) 0.16457(6)
O8_2 O 0.4063(2) 0.0531(2) 0.11524(7)
N1_2 N 0.0560(2) 0.0837(2) 0.17750(7)
N3_2 N 0.3564(2) 0.3334(2) 0.28780(8)
N5_2 N 0.0335(2) 0.0550(2) 0.32581(7)
N13_2 N 0.4184(2) 0.0718(3) 0.43958(7)
N14_2 N 0.2618(2) 0.0049(3) 0.43171(7)
C1_2 C 0.0448(2) 0.2158(2) 0.22194(8)
C2_2 C 0.1259(3) 0.2890(3) 0.23546(9)
C3_2 C 0.1648(3) 0.3058(3) 0.27179(9)
C4_2 C 0.1187(3) 0.2555(3) 0.29427(9)
C5_2 C 0.0324(3) 0.1895(3) 0.28000(9)
C11_2 C 0.0093(3) 0.1865(3) 0.18377(9)
H2_2 H 0.0292 0.2446 0.1702
C12_2 C 0.1550(3) 0.0509(3) 0.19267(8)
H3_2 H 0.2056 0.0907 0.2102
C14_2 C 0.0088(3) 0.0070(3) 0.15359(9)
C15_2 C 0.1729(3) 0.3479(3) 0.21093(12)
H6_2 H 0.1991 0.2954 0.1975
H7_2 H 0.2307 0.3934 0.2247
H8_2 H 0.1194 0.3929 0.1947
C16_2 C 0.2562(3) 0.3816(3) 0.28703(13)
H9_2 H 0.2448 0.4483 0.2728
H10_2 H 0.2594 0.4016 0.3112
C17_2 C 0.4476(3) 0.3831(3) 0.30244(8)
H11_2 H 0.4556 0.4466 0.3162
C18_2 C 0.4810(3) 0.2485(3) 0.27470(9)
H12_2 H 0.5173 0.1985 0.2649
C19_2 C 0.3774(3) 0.2464(3) 0.27010(11)
H13_2 H 0.3286 0.1946 0.2571
C20_2 C 0.1625(3) 0.2719(4) 0.33376(10)
H14_2 H 0.2388 0.2664 0.3412
H15_2 H 0.1344 0.2167 0.3457
H16_2 H 0.1425 0.3434 0.3398
C22_2 C 0.0276(3) 0.0287(3) 0.35724(8)
C40_2 C 0.5648(2) 0.0116(3) 0.41846(8)
C41_2 C 0.5380(3) 0.0445(3) 0.38332(8)
C42_2 C 0.5556(3) 0.0230(3) 0.32327(8)
H29_2 H 0.5492 0.1024 0.3231
H30_2 H 0.6175 0.0052 0.3162
C52_2 C 0.5301(3) 0.0823(4) 0.44351(10)
H45_2 H 0.5714 0.0635 0.4679
H46_2 H 0.5451 0.1584 0.4395
C54_2 C 0.2598(3) 0.1141(3) 0.43654(11)
H48_2 H 0.1998 0.1542 0.4364
C55_2 C 0.3554(3) 0.1562(4) 0.44152(11)
H49_2 H 0.3751 0.2297 0.4456
C56_2 C 0.4714(3) 0.1426(3) 0.37048(10)
H50_2 H 0.4172 0.1465 0.3819
H51_2 H 0.4385 0.1378 0.3450
H52_2 H 0.5151 0.2073 0.3762
O4_2 O 0.08047(19) 0.40870(19) 0.00134(6)
O5_2 O 0.26275(16) 0.73072(17) 0.19623(5)
O6_2 O 0.20411(17) 0.58310(18) 0.16385(5)
N2_2 N 0.1740(2) 0.9579(2) 0.18046(7)
N6_2 N 0.0899(2) 0.9485(2) 0.37128(6)
N8_2 N 0.29276(19) 0.8326(2) 0.14391(6)
N9_2 N 0.4618(2) 0.9779(2) 0.29682(6)
N10_2 N 0.3593(2) 0.9349(2) 0.24413(7)
N11_2 N 0.8334(2) 0.7659(2) 0.41326(8)
N12_2 N 0.9912(2) 0.8166(2) 0.41414(6)
C9_2 C 0.2380(2) 0.6755(3) 0.16785(8)
C10_2 C 0.3668(3) 0.9986(3) 0.13400(9)
C13_2 C 0.0820(3) 0.9301(3) 0.15556(9)
H4_2 H 0.0710 0.8665 0.1417
C23_2 C 0.1380(3) 0.9210(3) 0.34696(9)
H20_2 H 0.1879 0.8651 0.3496
C24_2 C 0.1030(3) 0.9860(3) 0.31883(9)
H21_2 H 0.1228 0.9842 0.2981
C27_2 C 0.2632(3) 0.7644(3) 0.01561(9)
H25_2 H 0.3044 0.8277 0.0219
C28_2 C 0.2315(3) 0.7088(3) 0.04069(8)
C29_2 C 0.1744(3) 0.6142(3) 0.03027(8)
H26_2 H 0.1534 0.5731 0.0468
C31_2 C 0.3165(3) 0.8913(3) 0.11972(8)
C32_2 C 0.2985(3) 0.8528(3) 0.08619(8)
H27_2 H 0.3149 0.8960 0.0691
C33_2 C 0.2562(3) 0.7505(3) 0.07726(8)
C34_2 C 0.2364(2) 0.6887(3) 0.10363(8)
H28_2 H 0.2105 0.6173 0.0989
C35_2 C 0.2550(2) 0.7332(2) 0.13663(8)
C36_2 C 0.5745(2) 0.9837(3) 0.36026(8)
C37_2 C 0.6353(3) 0.8919(3) 0.37177(9)
C38_2 C 0.6643(3) 0.8618(3) 0.40714(9)
C39_2 C 0.6255(3) 0.9203(3) 0.43053(9)
C43_2 C 0.4515(3) 0.9723(3) 0.26267(8)
H31_2 H 0.5044 0.9928 0.2529
C44_2 C 0.3074(3) 0.9156(3) 0.26817(9)
H32_2 H 0.2385 0.8881 0.2628
C45_2 C 0.3708(3) 0.9422(3) 0.30078(9)
H33_2 H 0.3548 0.9370 0.3221
C46_2 C 0.6712(3) 0.8254(4) 0.34608(10)
H34_2 H 0.7385 0.8527 0.3452
H35_2 H 0.6194 0.8304 0.3227
H36_2 H 0.6789 0.7500 0.3537
C47_2 C 0.7325(3) 0.7642(3) 0.41995(12)
H37_2 H 0.7459 0.7570 0.4455
H38_2 H 0.6935 0.6995 0.4086
C48_2 C 0.9038(3) 0.8454(3) 0.42000(8)
H39_2 H 0.8923 0.9147 0.4281
C49_2 C 0.9753(3) 0.7134(3) 0.40282(11)
C50_2 C 0.8786(4) 0.6806(4) 0.40189(14)
H41_2 H 0.8482 0.6119 0.3948
C51_2 C 0.6465(3) 0.8808(4) 0.46780(10)
H42_2 H 0.7206 0.8906 0.4810
H43_2 H 0.6285 0.8043 0.4675
H44_2 H 0.6039 0.9220 0.4791
C53_2 C 0.3591(3) 0.9834(3) 0.43361(9)
H47_2 H 0.3840 0.9134 0.4310
Ni2_2 Ni 0.12882(3) 0.59473(4) 0.922430(10)
O1_2 O 0.2201(2) 0.7361(2) 0.92165(6)
O2_2 O 0.3222(3) 0.8548(3) 0.95772(8)
O3_2 O 0.06126(17) 0.47079(18) 0.94725(5)
N7_2 N 0.1765(2) 0.6384(2) 0.97233(6)
C7_2 C 0.2616(3) 0.7778(4) 0.95125(9)
C8_2 C 0.0910(2) 0.4773(3) 0.98066(8)
C26_2 C 0.2340(3) 0.7265(3) 0.98163(8)
C30_2 C 0.1484(2) 0.5804(3) 0.99574(8)
N16_2 N 0.0899(2) 0.5515(2) 0.87128(6)
N18_2 N 0.2618(2) 0.4951(3) 0.93171(7)
N17_2 N 0.9912(2) 0.6834(2) 0.91414(6)
H40_3 H 0.0246 0.8296 0.8965
O3_3 O 0.06126(17) 0.02921(18) 0.44725(5)
O4_3 O 0.08047(19) 0.09130(19) 0.50134(6)
C8_3 C 0.0910(2) 0.0227(3) 0.48066(8)
Ni1_2 Ni 0.32097(3) 0.61208(3) 0.692484(10)
O1_3 O 0.2201(2) 0.7639(2) 0.42165(6)
O2_3 O 0.3222(3) 0.6452(3) 0.45772(8)
O5_3 O 0.26275(16) 0.76928(17) 0.69623(5)
O6_3 O 0.20411(17) 0.91690(18) 0.66385(5)
O7_3 O 0.36727(18) 0.47789(18) 0.66457(6)
O8_3 O 0.4063(2) 0.4469(2) 0.61524(7)
N1_3 N 0.0560(2) 0.4163(2) 0.67750(7)
N2_3 N 0.1740(2) 0.5421(2) 0.68046(7)
N3_3 N 0.3564(2) 0.1666(2) 0.78780(8)
N4_2 N 0.5252(2) 0.1663(2) 0.79554(6)
N5_3 N 0.0335(2) 0.4450(2) 0.82581(7)
N7_3 N 0.1765(2) 0.8616(2) 0.47233(6)
N8_3 N 0.29276(19) 0.6674(2) 0.64391(6)
N9_3 N 0.4618(2) 0.5221(2) 0.79682(6)
N10_3 N 0.3593(2) 0.5651(2) 0.74413(7)
N11_3 N 0.8334(2) 0.7341(2) 0.91326(8)
N13_3 N 0.4184(2) 0.4282(3) 0.93958(7)
C1_3 C 0.0448(2) 0.2842(2) 0.72194(8)
C2_3 C 0.1259(3) 0.2110(3) 0.73546(9)
C3_3 C 0.1648(3) 0.1942(3) 0.77179(9)
C4_3 C 0.1187(3) 0.2445(3) 0.79427(9)
C5_3 C 0.0324(3) 0.3105(3) 0.78000(9)
C7_3 C 0.2616(3) 0.7222(4) 0.45125(9)
C9_3 C 0.2380(2) 0.8245(3) 0.66785(8)
C10_3 C 0.3668(3) 0.5014(3) 0.63400(9)
C11_3 C 0.0093(3) 0.3135(3) 0.68377(9)
H2_3 H 0.0292 0.2554 0.6702
C12_3 C 0.1550(3) 0.4491(3) 0.69267(8)
H3_3 H 0.2056 0.4093 0.7102
C13_3 C 0.0820(3) 0.5699(3) 0.65556(9)
H4_3 H 0.0710 0.6335 0.6417
C14_3 C 0.0088(3) 0.4930(3) 0.65359(9)
C15_3 C 0.1729(3) 0.1521(3) 0.71093(12)
H6_3 H 0.1991 0.2046 0.6975
H7_3 H 0.2307 0.1066 0.7247
H8_3 H 0.1194 0.1071 0.6947
C16_3 C 0.2562(3) 0.1184(3) 0.78703(13)
H9_3 H 0.2448 0.0517 0.7728
H10_3 H 0.2594 0.0984 0.8112
C17_3 C 0.4476(3) 0.1169(3) 0.80244(8)
H11_3 H 0.4556 0.0534 0.8162
C18_3 C 0.4810(3) 0.2515(3) 0.77470(9)
H12_3 H 0.5173 0.3015 0.7649
C19_3 C 0.3774(3) 0.2536(3) 0.77010(11)
H13_3 H 0.3286 0.3054 0.7571
C20_3 C 0.1625(3) 0.2281(4) 0.83376(10)
H14_3 H 0.2388 0.2336 0.8412
H15_3 H 0.1344 0.2833 0.8457
H16_3 H 0.1425 0.1566 0.8398
C22_3 C 0.0276(3) 0.4713(3) 0.85724(8)
C23_3 C 0.1380(3) 0.5790(3) 0.84696(9)
H20_3 H 0.1879 0.6349 0.8496
C24_3 C 0.1030(3) 0.5140(3) 0.81883(9)
H21_3 H 0.1228 0.5158 0.7981
C26_3 C 0.2340(3) 0.7735(3) 0.48163(8)
C27_3 C 0.2632(3) 0.7356(3) 0.51561(9)
H25_3 H 0.3044 0.6723 0.5219
C28_3 C 0.2315(3) 0.7912(3) 0.54069(8)
C29_3 C 0.1744(3) 0.8858(3) 0.53027(8)
H26_3 H 0.1534 0.9269 0.5468
C30_3 C 0.1484(2) 0.9196(3) 0.49574(8)
C31_3 C 0.3165(3) 0.6087(3) 0.61972(8)
C32_3 C 0.2985(3) 0.6472(3) 0.58619(8)
H27_3 H 0.3149 0.6040 0.5691
C33_3 C 0.2562(3) 0.7495(3) 0.57726(8)
C34_3 C 0.2364(2) 0.8113(3) 0.60363(8)
H28_3 H 0.2105 0.8827 0.5989
C35_3 C 0.2550(2) 0.7668(2) 0.63663(8)
C36_3 C 0.5745(2) 0.5163(3) 0.86026(8)
C37_3 C 0.6353(3) 0.6081(3) 0.87177(9)
C38_3 C 0.6643(3) 0.6382(3) 0.90714(9)
C39_3 C 0.6255(3) 0.5797(3) 0.93053(9)
C40_3 C 0.5648(2) 0.4884(3) 0.91846(8)
C41_3 C 0.5380(3) 0.4555(3) 0.88332(8)
C42_3 C 0.5556(3) 0.4770(3) 0.82327(8)
H29_3 H 0.5492 0.3976 0.8231
H30_3 H 0.6175 0.4948 0.8162
C43_3 C 0.4515(3) 0.5277(3) 0.76267(8)
H31_3 H 0.5044 0.5072 0.7529
C44_3 C 0.3074(3) 0.5844(3) 0.76817(9)
H32_3 H 0.2385 0.6119 0.7628
C45_3 C 0.3708(3) 0.5578(3) 0.80078(9)
H33_3 H 0.3548 0.5630 0.8221
C46_3 C 0.6712(3) 0.6746(4) 0.84608(10)
H34_3 H 0.7385 0.6473 0.8452
H35_3 H 0.6194 0.6696 0.8227
H36_3 H 0.6789 0.7500 0.8537
C47_3 C 0.7325(3) 0.7358(3) 0.91995(12)
H37_3 H 0.7459 0.7430 0.9455
H38_3 H 0.6935 0.8005 0.9086
C48_3 C 0.9038(3) 0.6546(3) 0.92000(8)
H39_3 H 0.8923 0.5853 0.9281
C49_3 C 0.9753(3) 0.7866(3) 0.90282(11)
C50_3 C 0.8786(4) 0.8194(4) 0.90189(14)
H41_3 H 0.8482 0.8881 0.8948
C51_3 C 0.6465(3) 0.6192(4) 0.96780(10)
H42_3 H 0.7206 0.6094 0.9810
H43_3 H 0.6285 0.6957 0.9675
H44_3 H 0.6039 0.5780 0.9791
C52_3 C 0.5301(3) 0.4177(4) 0.94351(10)
H45_3 H 0.5714 0.4365 0.9679
H46_3 H 0.5451 0.3416 0.9395
C53_3 C 0.3591(3) 0.5166(3) 0.93361(9)
H47_3 H 0.3840 0.5866 0.9310
C54_3 C 0.2598(3) 0.3859(3) 0.93654(11)
H48_3 H 0.1998 0.3458 0.9364
C55_3 C 0.3554(3) 0.3438(4) 0.94152(11)
H49_3 H 0.3751 0.2703 0.9456
C56_3 C 0.4714(3) 0.3574(3) 0.87048(10)
H50_3 H 0.4172 0.3535 0.8819
H51_3 H 0.4385 0.3622 0.8450
H52_3 H 0.5151 0.2927 0.8762
Ni3_2 Ni 0.67903(3) 0.11208(3) 0.807516(10)
N15_2 N 0.4748(2) 0.6663(2) 0.70446(6)
C6_2 C 0.9972(2) 0.3345(3) 0.74435(8)
H1_2 H 0.9322 0.3198 0.6753
H5_2 H 0.9386 0.4929 0.6385
C21_2 C 0.9750(3) 0.3564(3) 0.80386(10)
H17_2 H 0.9637 0.2985 0.8192
H18_2 H 0.9057 0.3832 0.7893
H19_2 H 0.9835 0.4362 0.8682
C25_2 C 0.9113(3) 0.4152(3) 0.72971(12)
H22_2 H 0.8435 0.3806 0.7262
H23_2 H 0.9197 0.4753 0.7462
H24_2 H 0.9147 0.4422 0.7072
O1_4 O 0.7799(2) 0.2639(2) 0.07835(6)
O2_4 O 0.6778(3) 0.1452(3) 0.04228(8)
O3_4 O 0.93874(17) 0.52921(18) 0.05275(5)
N7_4 N 0.8235(2) 0.3616(2) 0.02767(6)
C7_4 C 0.7384(3) 0.2222(4) 0.04875(9)
C8_4 C 0.9090(2) 0.5227(3) 0.01934(8)
C26_4 C 0.7660(3) 0.2735(3) 0.01837(8)
C30_4 C 0.8516(2) 0.4196(3) 0.00426(8)
O4_4 O 0.91953(19) 0.59130(19) 0.99866(6)
O5_4 O 0.73725(16) 0.26928(17) 0.80377(5)
O6_4 O 0.79589(17) 0.41690(18) 0.83615(5)
N2_4 N 0.8260(2) 0.0421(2) 0.81954(7)
N8_4 N 0.70724(19) 0.1674(2) 0.85609(6)
N9_4 N 0.5382(2) 0.0221(2) 0.70318(6)
N10_4 N 0.6407(2) 0.0651(2) 0.75587(7)
N11_4 N 0.1666(2) 0.2341(2) 0.58674(8)
C9_4 C 0.7620(2) 0.3245(3) 0.83215(8)
C10_4 C 0.6332(3) 0.0014(3) 0.86600(9)
C13_4 C 0.9180(3) 0.0699(3) 0.84444(9)
H4_4 H 0.9290 0.1335 0.8583
C23_4 C 0.8620(3) 0.0790(3) 0.65304(9)
H20_4 H 0.8121 0.1349 0.6504
C24_4 C 0.8970(3) 0.0140(3) 0.68117(9)
H21_4 H 0.8772 0.0158 0.7019
C27_4 C 0.7368(3) 0.2356(3) 0.98439(9)
H25_4 H 0.6956 0.1723 0.9781
C28_4 C 0.7685(3) 0.2912(3) 0.95931(8)
C29_4 C 0.8256(3) 0.3858(3) 0.96973(8)
H26_4 H 0.8466 0.4269 0.9532
C31_4 C 0.6835(3) 0.1087(3) 0.88028(8)
C32_4 C 0.7015(3) 0.1472(3) 0.91381(8)
H27_4 H 0.6851 0.1040 0.9309
C33_4 C 0.7438(3) 0.2495(3) 0.92274(8)
C34_4 C 0.7636(2) 0.3113(3) 0.89637(8)
H28_4 H 0.7895 0.3827 0.9011
C35_4 C 0.7450(2) 0.2668(2) 0.86337(8)
C36_4 C 0.4255(2) 0.0163(3) 0.63974(8)
C37_4 C 0.3647(3) 0.1081(3) 0.62823(9)
C38_4 C 0.3357(3) 0.1382(3) 0.59286(9)
C39_4 C 0.3745(3) 0.0797(3) 0.56947(9)
C43_4 C 0.5485(3) 0.0277(3) 0.73733(8)
H31_4 H 0.4956 0.0072 0.7471
C44_4 C 0.6926(3) 0.0844(3) 0.73183(9)
H32_4 H 0.7615 0.1119 0.7372
C45_4 C 0.6292(3) 0.0578(3) 0.69922(9)
H33_4 H 0.6452 0.0630 0.6779
C46_4 C 0.3288(3) 0.1746(4) 0.65392(10)
H34_4 H 0.2615 0.1473 0.6548
H35_4 H 0.3806 0.1696 0.6773
H36_4 H 0.3211 0.2500 0.6463
C47_4 C 0.2675(3) 0.2358(3) 0.58005(12)
H37_4 H 0.2541 0.2430 0.5545
H38_4 H 0.3065 0.3005 0.5914
C48_4 C 0.0962(3) 0.1546(3) 0.58000(8)
H39_4 H 0.1077 0.0853 0.5719
C49_4 C 0.0247(3) 0.2866(3) 0.59718(11)
C50_4 C 0.1214(4) 0.3194(4) 0.59811(14)
H41_4 H 0.1518 0.3881 0.6052
C51_4 C 0.3535(3) 0.1192(4) 0.53220(10)
H42_4 H 0.2794 0.1094 0.5190
H43_4 H 0.3715 0.1957 0.5325
H44_4 H 0.3961 0.0780 0.5209
C53_4 C 0.6409(3) 0.0166(3) 0.56639(9)
H47_4 H 0.6160 0.0866 0.5690
O7_4 O 0.63273(18) 0.97789(18) 0.83543(6)
O8_4 O 0.5937(2) 0.9469(2) 0.88476(7)
N1_4 N 0.9440(2) 0.9163(2) 0.82250(7)
N3_4 N 0.6436(2) 0.6666(2) 0.71220(8)
N5_4 N 0.9665(2) 0.9450(2) 0.67419(7)
N13_4 N 0.5816(2) 0.9282(3) 0.56042(7)
C1_4 C 0.9552(2) 0.7842(2) 0.77806(8)
C2_4 C 0.8741(3) 0.7110(3) 0.76454(9)
C3_4 C 0.8352(3) 0.6942(3) 0.72821(9)
C4_4 C 0.8813(3) 0.7445(3) 0.70573(9)
C5_4 C 0.9676(3) 0.8105(3) 0.72000(9)
C11_4 C 0.9907(3) 0.8135(3) 0.81623(9)
H2_4 H 0.9708 0.7554 0.8298
C12_4 C 0.8450(3) 0.9491(3) 0.80733(8)
H3_4 H 0.7944 0.9093 0.7898
C14_4 C 0.9912(3) 0.9930(3) 0.84641(9)
C15_4 C 0.8271(3) 0.6521(3) 0.78907(12)
H6_4 H 0.8009 0.7046 0.8025
H7_4 H 0.7693 0.6066 0.7753
H8_4 H 0.8806 0.6071 0.8053
C16_4 C 0.7438(3) 0.6184(3) 0.71297(13)
H9_4 H 0.7552 0.5517 0.7272
H10_4 H 0.7406 0.5984 0.6888
C17_4 C 0.5524(3) 0.6169(3) 0.69756(8)
H11_4 H 0.5444 0.5534 0.6838
C18_4 C 0.5190(3) 0.7515(3) 0.72530(9)
H12_4 H 0.4827 0.8015 0.7351
C19_4 C 0.6226(3) 0.7536(3) 0.72990(11)
H13_4 H 0.6714 0.8054 0.7429
C20_4 C 0.8375(3) 0.7281(4) 0.66624(10)
H14_4 H 0.7612 0.7336 0.6588
H15_4 H 0.8656 0.7833 0.6543
H16_4 H 0.8575 0.6566 0.6602
C22_4 C 0.9724(3) 0.9713(3) 0.64276(8)
C40_4 C 0.4352(2) 0.9884(3) 0.58154(8)
C41_4 C 0.4620(3) 0.9555(3) 0.61668(8)
C42_4 C 0.4444(3) 0.9770(3) 0.67673(8)
H29_4 H 0.4508 0.8976 0.6769
H30_4 H 0.3825 0.9948 0.6838
C52_4 C 0.4699(3) 0.9177(4) 0.55649(10)
H45_4 H 0.4286 0.9365 0.5321
H46_4 H 0.4549 0.8416 0.5605
C54_4 C 0.7402(3) 0.8859(3) 0.56346(11)
H48_4 H 0.8002 0.8458 0.5636
C55_4 C 0.6446(3) 0.8438(4) 0.55848(11)
H49_4 H 0.6249 0.7703 0.5544
C56_4 C 0.5286(3) 0.8574(3) 0.62952(10)
H50_4 H 0.5828 0.8535 0.6181
H51_4 H 0.5615 0.8622 0.6550
H52_4 H 0.4849 0.7927 0.6238
H40_4 H 0.9754 0.3296 0.6035
C6_3 C 0.9972(2) 0.1655(3) 0.24435(8)
H1_3 H 0.9322 0.1802 0.1753
H5_3 H 0.9386 0.0071 0.1385
C21_3 C 0.9750(3) 0.1436(3) 0.30386(10)
H17_3 H 0.9637 0.2015 0.3192
H18_3 H 0.9057 0.1168 0.2893
H19_3 H 0.9835 0.0638 0.3682
C25_3 C 0.9113(3) 0.0848(3) 0.22971(12)
H22_3 H 0.8435 0.1194 0.2262
H23_3 H 0.9197 0.0247 0.2462
H24_3 H 0.9147 0.0578 0.2072
C6_4 C 0.0028(2) 0.8345(3) 0.75565(8)
H1_4 H 0.0678 0.8198 0.8247
H5_4 H 0.0614 0.9929 0.8615
C21_4 C 0.0250(3) 0.8564(3) 0.69614(10)
H17_4 H 0.0363 0.7985 0.6808
H18_4 H 0.0943 0.8832 0.7107
H19_4 H 0.0165 0.9362 0.6318
C25_4 C 0.0887(3) 0.9152(3) 0.77029(12)
H22_4 H 0.1565 0.8806 0.7738
H23_4 H 0.0803 0.9753 0.7538
H24_4 H 0.0853 0.9422 0.7928
loop_
_geom_bond_atom_site_label_1
_geom_bond_atom_site_label_2
_geom_bond_site_symmetry_1
_geom_bond_site_symmetry_2
H17 C21 1_555 1_555
H18 C21 1_555 1_555
C25 C6 1_555 1_555
H22 C25 1_555 1_555
H23 C25 1_555 1_555
H24 C25 1_555 1_555
Ni1 O5 1_555 1_555
Ni2 O1 1_555 1_555
O1 C7 1_555 1_555
O2 C7 1_555 1_555
O5 C9 1_555 1_555
O6 C9 1_555 1_555
O7 Ni1 1_555 1_555
O8 C10 1_555 1_555
N1 C11 1_555 1_555
N2 Ni1 1_555 1_555
N3 C16 1_555 1_555
N4 C17 1_555 1_555
N6 C22 1_555 1_555
N7 Ni2 1_555 1_555
N8 Ni1 1_555 1_555
N9 C42 1_555 1_555
N10 Ni1 1_555 1_555
N11 C47 1_555 1_555
N12 C48 1_555 1_555
N13 C52 1_555 1_555
N14 C53 1_555 1_555
C1 C2 1_555 1_555
C2 C3 1_555 1_555
C3 C4 1_555 1_555
C4 C5 1_555 1_555
C7 C26 1_555 1_555
C9 C35 1_555 1_555
C10 O7 1_555 1_555
C11 C1 1_555 1_555
H2 C11 1_555 1_555
C12 N1 1_555 1_555
H3 C12 1_555 1_555
C13 N2 1_555 1_555
H4 C13 1_555 1_555
C14 N1 1_555 1_555
C15 C2 1_555 1_555
H6 C15 1_555 1_555
H7 C15 1_555 1_555
H8 C15 1_555 1_555
C16 C3 1_555 1_555
H9 C16 1_555 1_555
H10 C16 1_555 1_555
C17 N3 1_555 1_555
H11 C17 1_555 1_555
C18 N4 1_555 1_555
H12 C18 1_555 1_555
C19 N3 1_555 1_555
H13 C19 1_555 1_555
C20 C4 1_555 1_555
H14 C20 1_555 1_555
H15 C20 1_555 1_555
H16 C20 1_555 1_555
C22 N5 1_555 1_555
C23 N6 1_555 1_555
H20 C23 1_555 1_555
C24 N5 1_555 1_555
H21 C24 1_555 1_555
C26 N7 1_555 1_555
C27 C26 1_555 1_555
H25 C27 1_555 1_555
C28 C27 1_555 1_555
C29 C28 1_555 1_555
H26 C29 1_555 1_555
C30 N7 1_555 1_555
C31 N8 1_555 1_555
C32 C31 1_555 1_555
H27 C32 1_555 1_555
C33 C28 1_555 1_555
C34 C33 1_555 1_555
H28 C34 1_555 1_555
C35 N8 1_555 1_555
C36 C37 1_555 1_555
C37 C38 1_555 1_555
C38 C39 1_555 1_555
C39 C40 1_555 1_555
C40 C41 1_555 1_555
C41 C36 1_555 1_555
C42 C36 1_555 1_555
H29 C42 1_555 1_555
H30 C42 1_555 1_555
C43 N9 1_555 1_555
H31 C43 1_555 1_555
C44 N10 1_555 1_555
H32 C44 1_555 1_555
C45 N9 1_555 1_555
H33 C45 1_555 1_555
C46 C37 1_555 1_555
H34 C46 1_555 1_555
H35 C46 1_555 1_555
H36 C46 1_555 1_555
C47 C38 1_555 1_555
H37 C47 1_555 1_555
H38 C47 1_555 1_555
C48 N11 1_555 1_555
H39 C48 1_555 1_555
C49 N12 1_555 1_555
C50 N11 1_555 1_555
H41 C50 1_555 1_555
C51 C39 1_555 1_555
H42 C51 1_555 1_555
H43 C51 1_555 1_555
H44 C51 1_555 1_555
C52 C40 1_555 1_555
H45 C52 1_555 1_555
H46 C52 1_555 1_555
C53 N13 1_555 1_555
H47 C53 1_555 1_555
C54 N14 1_555 1_555
H48 C54 1_555 1_555
C55 N13 1_555 1_555
H49 C55 1_555 1_555
C56 C41 1_555 1_555
H50 C56 1_555 1_555
H51 C56 1_555 1_555
H52 C56 1_555 1_555
Ni3 N4 1_555 1_555
Ni4 N6 1_555 1_555
N15 Ni1 1_555 1_555
N16 Ni2 1_555 1_555
N2 C12 1_555 1_555
N10 C43 1_555 1_555
N14 Ni4 1_555 1_555
C10 C31 1_555 1_555
C13 C14 1_555 1_555
C18 C19 1_555 1_555
C23 C24 1_555 1_555
C29 C30 1_555 1_555
C32 C33 1_555 1_555
C34 C35 1_555 1_555
C44 C45 1_555 1_555
C49 C50 1_555 1_555
C54 C55 1_555 1_555
O4 C8 1_555 1_555
C8 O3 1_555 1_555
N1_2 C11_2 1_555 1_555
N3_2 C16_2 1_555 1_555
N15 C17_2 1_555 1_555
N13_2 C52_2 1_555 1_555
C1_2 C2_2 1_555 1_555
C2_2 C3_2 1_555 1_555
C3_2 C4_2 1_555 1_555
C4_2 C5_2 1_555 1_555
C11_2 C1_2 1_555 1_555
H2_2 C11_2 1_555 1_555
C12_2 N1_2 1_555 1_555
H3_2 C12_2 1_555 1_555
C14_2 N1_2 1_555 1_555
C15_2 C2_2 1_555 1_555
H6_2 C15_2 1_555 1_555
H7_2 C15_2 1_555 1_555
H8_2 C15_2 1_555 1_555
C16_2 C3_2 1_555 1_555
H9_2 C16_2 1_555 1_555
H10_2 C16_2 1_555 1_555
C17_2 N3_2 1_555 1_555
H11_2 C17_2 1_555 1_555
C18_2 N15 1_555 1_555
H12_2 C18_2 1_555 1_555
C19_2 N3_2 1_555 1_555
H13_2 C19_2 1_555 1_555
C20_2 C4_2 1_555 1_555
H14_2 C20_2 1_555 1_555
H15_2 C20_2 1_555 1_555
H16_2 C20_2 1_555 1_555
C22_2 N5_2 1_555 1_555
C40_2 C41_2 1_555 1_555
H29_2 C42_2 1_555 1_555
H30_2 C42_2 1_555 1_555
C52_2 C40_2 1_555 1_555
H45_2 C52_2 1_555 1_555
H46_2 C52_2 1_555 1_555
C54_2 N14_2 1_555 1_555
H48_2 C54_2 1_555 1_555
C55_2 N13_2 1_555 1_555
H49_2 C55_2 1_555 1_555
C56_2 C41_2 1_555 1_555
H50_2 C56_2 1_555 1_555
H51_2 C56_2 1_555 1_555
H52_2 C56_2 1_555 1_555
C18_2 C19_2 1_555 1_555
C54_2 C55_2 1_555 1_555
Ni3 O5_2 1_555 1_555
O5_2 C9_2 1_555 1_555
O6_2 C9_2 1_555 1_555
N2_2 Ni3 1_555 1_555
N8_2 Ni3 1_555 1_555
N10_2 Ni3 1_555 1_555
N11_2 C47_2 1_555 1_555
N12_2 C48_2 1_555 1_555
C9_2 C35_2 1_555 1_555
C13_2 N2_2 1_555 1_555
H4_2 C13_2 1_555 1_555
C23_2 N6_2 1_555 1_555
H20_2 C23_2 1_555 1_555
H21_2 C24_2 1_555 1_555
H25_2 C27_2 1_555 1_555
C28_2 C27_2 1_555 1_555
C29_2 C28_2 1_555 1_555
H26_2 C29_2 1_555 1_555
C31_2 N8_2 1_555 1_555
C32_2 C31_2 1_555 1_555
H27_2 C32_2 1_555 1_555
C33_2 C28_2 1_555 1_555
C34_2 C33_2 1_555 1_555
H28_2 C34_2 1_555 1_555
C35_2 N8_2 1_555 1_555
C36_2 C37_2 1_555 1_555
C37_2 C38_2 1_555 1_555
C38_2 C39_2 1_555 1_555
C43_2 N9_2 1_555 1_555
H31_2 C43_2 1_555 1_555
C44_2 N10_2 1_555 1_555
H32_2 C44_2 1_555 1_555
C45_2 N9_2 1_555 1_555
H33_2 C45_2 1_555 1_555
C46_2 C37_2 1_555 1_555
H34_2 C46_2 1_555 1_555
H35_2 C46_2 1_555 1_555
H36_2 C46_2 1_555 1_555
C47_2 C38_2 1_555 1_555
H37_2 C47_2 1_555 1_555
H38_2 C47_2 1_555 1_555
C48_2 N11_2 1_555 1_555
H39_2 C48_2 1_555 1_555
C49_2 N12_2 1_555 1_555
C50_2 N11_2 1_555 1_555
H41_2 C50_2 1_555 1_555
C51_2 C39_2 1_555 1_555
H42_2 C51_2 1_555 1_555
H43_2 C51_2 1_555 1_555
H44_2 C51_2 1_555 1_555
H47_2 C53_2 1_555 1_555
Ni5 N6_2 1_555 1_555
N10_2 C43_2 1_555 1_555
C10_2 C31_2 1_555 1_555
C23_2 C24_2 1_555 1_555
C32_2 C33_2 1_555 1_555
C34_2 C35_2 1_555 1_555
C44_2 C45_2 1_555 1_555
C49_2 C50_2 1_555 1_555
Ni2_2 O1_2 1_555 1_555
O1_2 C7_2 1_555 1_555
O2_2 C7_2 1_555 1_555
O3_2 Ni2_2 1_555 1_555
N7_2 Ni2_2 1_555 1_555
C7_2 C26_2 1_555 1_555
C8_2 O3_2 1_555 1_555
C26_2 N7_2 1_555 1_555
C30_2 N7_2 1_555 1_555
N16_2 Ni2_2 1_555 1_555
N18_2 Ni2_2 1_555 1_555
C8_2 C30_2 1_555 1_555
O4_3 C8_3 1_555 1_555
C8_3 O3_3 1_555 1_555
Ni1_2 O5_3 1_555 1_555
Ni5 O1_3 1_555 1_555
O1_3 C7_3 1_555 1_555
O2_3 C7_3 1_555 1_555
O5_3 C9_3 1_555 1_555
O6_3 C9_3 1_555 1_555
O7_3 Ni1_2 1_555 1_555
O8_3 C10_3 1_555 1_555
N1_3 C11_3 1_555 1_555
N2_3 Ni1_2 1_555 1_555
N3_3 C16_3 1_555 1_555
N4_2 C17_3 1_555 1_555
N16_2 C22_3 1_555 1_555
N7_3 Ni5 1_555 1_555
N8_3 Ni1_2 1_555 1_555
N9_3 C42_3 1_555 1_555
N10_3 Ni1_2 1_555 1_555
N11_3 C47_3 1_555 1_555
N17_2 C48_3 1_555 1_555
N13_3 C52_3 1_555 1_555
N18_2 C53_3 1_555 1_555
C1_3 C2_3 1_555 1_555
C2_3 C3_3 1_555 1_555
C3_3 C4_3 1_555 1_555
C4_3 C5_3 1_555 1_555
C7_3 C26_3 1_555 1_555
C9_3 C35_3 1_555 1_555
C10_3 O7_3 1_555 1_555
C11_3 C1_3 1_555 1_555
H2_3 C11_3 1_555 1_555
C12_3 N1_3 1_555 1_555
H3_3 C12_3 1_555 1_555
C13_3 N2_3 1_555 1_555
H4_3 C13_3 1_555 1_555
C14_3 N1_3 1_555 1_555
C15_3 C2_3 1_555 1_555
H6_3 C15_3 1_555 1_555
H7_3 C15_3 1_555 1_555
H8_3 C15_3 1_555 1_555
C16_3 C3_3 1_555 1_555
H9_3 C16_3 1_555 1_555
H10_3 C16_3 1_555 1_555
C17_3 N3_3 1_555 1_555
H11_3 C17_3 1_555 1_555
C18_3 N4_2 1_555 1_555
H12_3 C18_3 1_555 1_555
C19_3 N3_3 1_555 1_555
H13_3 C19_3 1_555 1_555
C20_3 C4_3 1_555 1_555
H14_3 C20_3 1_555 1_555
H15_3 C20_3 1_555 1_555
H16_3 C20_3 1_555 1_555
C22_3 N5_3 1_555 1_555
C23_3 N16_2 1_555 1_555
H20_3 C23_3 1_555 1_555
C24_3 N5_3 1_555 1_555
H21_3 C24_3 1_555 1_555
C26_3 N7_3 1_555 1_555
C27_3 C26_3 1_555 1_555
H25_3 C27_3 1_555 1_555
C28_3 C27_3 1_555 1_555
C29_3 C28_3 1_555 1_555
H26_3 C29_3 1_555 1_555
C30_3 N7_3 1_555 1_555
C31_3 N8_3 1_555 1_555
C32_3 C31_3 1_555 1_555
H27_3 C32_3 1_555 1_555
C33_3 C28_3 1_555 1_555
C34_3 C33_3 1_555 1_555
H28_3 C34_3 1_555 1_555
C35_3 N8_3 1_555 1_555
C36_3 C37_3 1_555 1_555
C37_3 C38_3 1_555 1_555
C38_3 C39_3 1_555 1_555
C39_3 C40_3 1_555 1_555
C40_3 C41_3 1_555 1_555
C41_3 C36_3 1_555 1_555
C42_3 C36_3 1_555 1_555
H29_3 C42_3 1_555 1_555
H30_3 C42_3 1_555 1_555
C43_3 N9_3 1_555 1_555
H31_3 C43_3 1_555 1_555
C44_3 N10_3 1_555 1_555
H32_3 C44_3 1_555 1_555
C45_3 N9_3 1_555 1_555
H33_3 C45_3 1_555 1_555
C46_3 C37_3 1_555 1_555
H34_3 C46_3 1_555 1_555
H35_3 C46_3 1_555 1_555
H36_3 C46_3 1_555 1_555
C47_3 C38_3 1_555 1_555
H37_3 C47_3 1_555 1_555
H38_3 C47_3 1_555 1_555
C48_3 N11_3 1_555 1_555
H39_3 C48_3 1_555 1_555
C49_3 N17_2 1_555 1_555
C50_3 N11_3 1_555 1_555
H41_3 C50_3 1_555 1_555
C51_3 C39_3 1_555 1_555
H42_3 C51_3 1_555 1_555
H43_3 C51_3 1_555 1_555
H44_3 C51_3 1_555 1_555
C52_3 C40_3 1_555 1_555
H45_3 C52_3 1_555 1_555
H46_3 C52_3 1_555 1_555
C53_3 N13_3 1_555 1_555
H47_3 C53_3 1_555 1_555
C54_3 N18_2 1_555 1_555
H48_3 C54_3 1_555 1_555
C55_3 N13_3 1_555 1_555
H49_3 C55_3 1_555 1_555
C56_3 C41_3 1_555 1_555
H50_3 C56_3 1_555 1_555
H51_3 C56_3 1_555 1_555
H52_3 C56_3 1_555 1_555
Ni3_2 N4_2 1_555 1_555
N15_2 Ni1_2 1_555 1_555
N2_3 C12_3 1_555 1_555
N10_3 C43_3 1_555 1_555
C10_3 C31_3 1_555 1_555
C13_3 C14_3 1_555 1_555
C18_3 C19_3 1_555 1_555
C23_3 C24_3 1_555 1_555
C29_3 C30_3 1_555 1_555
C32_3 C33_3 1_555 1_555
C34_3 C35_3 1_555 1_555
C44_3 C45_3 1_555 1_555
C49_3 C50_3 1_555 1_555
C54_3 C55_3 1_555 1_555
H17_2 C21_2 1_555 1_555
H18_2 C21_2 1_555 1_555
C25_2 C6_2 1_555 1_555
H22_2 C25_2 1_555 1_555
H23_2 C25_2 1_555 1_555
H24_2 C25_2 1_555 1_555
Ni4 O1_4 1_555 1_555
O1_4 C7_4 1_555 1_555
O2_4 C7_4 1_555 1_555
O3_4 Ni4 1_555 1_555
N7_4 Ni4 1_555 1_555
C7_4 C26_4 1_555 1_555
C8_4 O3_4 1_555 1_555
C26_4 N7_4 1_555 1_555
C30_4 N7_4 1_555 1_555
C8_4 C30_4 1_555 1_555
Ni3_2 O5_4 1_555 1_555
O5_4 C9_4 1_555 1_555
O6_4 C9_4 1_555 1_555
N2_4 Ni3_2 1_555 1_555
N8_4 Ni3_2 1_555 1_555
N10_4 Ni3_2 1_555 1_555
N11_4 C47_4 1_555 1_555
N17 C48_4 1_555 1_555
C9_4 C35_4 1_555 1_555
C13_4 N2_4 1_555 1_555
H4_4 C13_4 1_555 1_555
C23_4 N16 1_555 1_555
H20_4 C23_4 1_555 1_555
H21_4 C24_4 1_555 1_555
H25_4 C27_4 1_555 1_555
C28_4 C27_4 1_555 1_555
C29_4 C28_4 1_555 1_555
H26_4 C29_4 1_555 1_555
C31_4 N8_4 1_555 1_555
C32_4 C31_4 1_555 1_555
H27_4 C32_4 1_555 1_555
C33_4 C28_4 1_555 1_555
C34_4 C33_4 1_555 1_555
H28_4 C34_4 1_555 1_555
C35_4 N8_4 1_555 1_555
C36_4 C37_4 1_555 1_555
C37_4 C38_4 1_555 1_555
C38_4 C39_4 1_555 1_555
C43_4 N9_4 1_555 1_555
H31_4 C43_4 1_555 1_555
C44_4 N10_4 1_555 1_555
H32_4 C44_4 1_555 1_555
C45_4 N9_4 1_555 1_555
H33_4 C45_4 1_555 1_555
C46_4 C37_4 1_555 1_555
H34_4 C46_4 1_555 1_555
H35_4 C46_4 1_555 1_555
H36_4 C46_4 1_555 1_555
C47_4 C38_4 1_555 1_555
H37_4 C47_4 1_555 1_555
H38_4 C47_4 1_555 1_555
C48_4 N11_4 1_555 1_555
H39_4 C48_4 1_555 1_555
C49_4 N17 1_555 1_555
C50_4 N11_4 1_555 1_555
H41_4 C50_4 1_555 1_555
C51_4 C39_4 1_555 1_555
H42_4 C51_4 1_555 1_555
H43_4 C51_4 1_555 1_555
H44_4 C51_4 1_555 1_555
H47_4 C53_4 1_555 1_555
N10_4 C43_4 1_555 1_555
C10_4 C31_4 1_555 1_555
C23_4 C24_4 1_555 1_555
C32_4 C33_4 1_555 1_555
C34_4 C35_4 1_555 1_555
C44_4 C45_4 1_555 1_555
C49_4 C50_4 1_555 1_555
N1_4 C11_4 1_555 1_555
N3_4 C16_4 1_555 1_555
N15_2 C17_4 1_555 1_555
N13_4 C52_4 1_555 1_555
C1_4 C2_4 1_555 1_555
C2_4 C3_4 1_555 1_555
C3_4 C4_4 1_555 1_555
C4_4 C5_4 1_555 1_555
C11_4 C1_4 1_555 1_555
H2_4 C11_4 1_555 1_555
C12_4 N1_4 1_555 1_555
H3_4 C12_4 1_555 1_555
C14_4 N1_4 1_555 1_555
C15_4 C2_4 1_555 1_555
H6_4 C15_4 1_555 1_555
H7_4 C15_4 1_555 1_555
H8_4 C15_4 1_555 1_555
C16_4 C3_4 1_555 1_555
H9_4 C16_4 1_555 1_555
H10_4 C16_4 1_555 1_555
C17_4 N3_4 1_555 1_555
H11_4 C17_4 1_555 1_555
C18_4 N15_2 1_555 1_555
H12_4 C18_4 1_555 1_555
C19_4 N3_4 1_555 1_555
H13_4 C19_4 1_555 1_555
C20_4 C4_4 1_555 1_555
H14_4 C20_4 1_555 1_555
H15_4 C20_4 1_555 1_555
H16_4 C20_4 1_555 1_555
C22_4 N5_4 1_555 1_555
C40_4 C41_4 1_555 1_555
H29_4 C42_4 1_555 1_555
H30_4 C42_4 1_555 1_555
C52_4 C40_4 1_555 1_555
H45_4 C52_4 1_555 1_555
H46_4 C52_4 1_555 1_555
C54_4 N18 1_555 1_555
H48_4 C54_4 1_555 1_555
C55_4 N13_4 1_555 1_555
H49_4 C55_4 1_555 1_555
C56_4 C41_4 1_555 1_555
H50_4 C56_4 1_555 1_555
H51_4 C56_4 1_555 1_555
H52_4 C56_4 1_555 1_555
C18_4 C19_4 1_555 1_555
C54_4 C55_4 1_555 1_555
H17_3 C21_3 1_555 1_555
H18_3 C21_3 1_555 1_555
C25_3 C6_3 1_555 1_555
H22_3 C25_3 1_555 1_555
H23_3 C25_3 1_555 1_555
H24_3 C25_3 1_555 1_555
H17_4 C21_4 1_555 1_555
H18_4 C21_4 1_555 1_555
C25_4 C6_4 1_555 1_555
H22_4 C25_4 1_555 1_555
H23_4 C25_4 1_555 1_555
H24_4 C25_4 1_555 1_555

#END
