
###############################################################################
#
# This file contains modified crystal structure data generated from the
# MOF subset of the Cambridge Structural Database (CSD) v543 
# hosted by the Cambridge Crystallographic Data Centre (CCDC).
#
# This work is licensed under the Creative Commons
# Attribution-NonCommercial-ShareAlike 4.0 International License.
# To view a copy of this license, visit
# http://creativecommons.org/licenses/by-nc-sa/4.0/
# or send a letter to
# Creative Commons, PO Box 1866, Mountain View, CA 94042, USA.
#
# CIF created using the CSD Python API on 29 September 2022
# The structure has been converted into the P1 space group
# The structure has a 3D framework
# The original CSD entry REGQUR is in the hexagonal crystal system
# The framework has been calculated to contain at least 10.0% void space
# The void calculation uses a probe of radius 1.32A, grid spacing 0.4
# H atom positions have been added when not included in the experimental data
#
###############################################################################

data_REGQUR
_chemical_formula_moiety         '(C168 H92 N44 O82 Zn22)n'
_symmetry_cell_setting           triclinic
_symmetry_space_group_name_H-M   'P 1'
_symmetry_Int_Tables_number      1
_space_group_name_Hall           'P 1'
loop_
_symmetry_equiv_pos_site_id
_symmetry_equiv_pos_as_xyz
1 x,y,z
_cell_length_a                   18.5924(8)
_cell_length_b                   18.5924(8)
_cell_length_c                   17.9643(9)
_cell_angle_alpha                90
_cell_angle_beta                 90
_cell_angle_gamma                120
_cell_volume                     5377.89
loop_
_atom_site_label
_atom_site_type_symbol
_atom_site_fract_x
_atom_site_fract_y
_atom_site_fract_z
O6 O 0.0000 0.3396(4) 0.3380(4)
C7 C -0.0000 0.2267(6) 0.5911(6)
C8 C -0.0000 0.2472(6) 0.5082(6)
C9 C -0.0000 0.2014(6) 0.7425(6)
H3 H 0.0000 0.1957 0.7939
Zn6 Zn 0.24295(6) 0.34221(8) 0.88067(5)
Zn7 Zn 0.09926(5) 0.34221(8) 0.38067(5)
Zn8 Zn 0.34415(7) 0.34415(7) 0.72346(8)
Zn9 Zn 0.0000 0.34415(7) 0.22346(8)
O14 O 0.2204(5) 0.3104(8) 0.7104(4)
O16 O 0.1512(4) 0.2737(6) 0.8155(3)
O19 O 0.0683(4) 0.2865(6) 0.4789(3)
C22 C 0.1554(5) 0.2774(8) 0.7458(4)
C23 C 0.0740(5) 0.2426(7) 0.7048(4)
C24 C 0.0739(5) 0.2596(7) 0.6279(4)
H6 H 0.1236 0.2929 0.6029
Zn1 Zn 0.90074(5) 0.24295(6) 0.38067(5)
Zn2 Zn 0.65585(7) -0.0000 0.72346(8)
O1 O 0.7926(4) 0.2362(4) 0.3909(5)
O2 O 0.8759(5) 0.3620(6) 0.4249(5)
O3 O 0.7796(5) 0.0900(6) 0.7104(4)
O4 O 0.8488(4) 0.1225(4) 0.8155(3)
O5 O 0.9317(4) 0.2182(4) 0.4789(3)
O6_2 O 1.0000 0.3396(4) 0.3380(4)
O7 O 0.6324(8) -0.0000 0.6129(7)
O8 O 0.6217(7) 0.0912(7) 0.7385(5)
C1 C 0.8081(6) 0.3069(6) 0.4117(5)
C2 C 0.7331(7) 0.3201(6) 0.4129(6)
C3 C 0.7451(6) 0.4002(6) 0.4147(6)
H1 H 0.7988 0.4454 0.4172
C4 C 0.8446(5) 0.1220(6) 0.7458(4)
C5 C 0.9260(5) 0.1686(5) 0.7048(4)
C6 C 0.9261(5) 0.1857(5) 0.6279(4)
H2 H 0.8764 0.1693 0.6029
C7_2 C 1.0000 0.2267(6) 0.5911(6)
C8_2 C 1.0000 0.2472(6) 0.5082(6)
C9_2 C 1.0000 0.2014(6) 0.7425(6)
H3_2 H 1.0000 0.1957 0.7939
C10 C 0.6773(11) 0.0000 0.5557(8)
C11 C 0.7089(11) -0.0000 0.4272(14)
C12 C 0.7747(18) 0.0000 0.4777(12)
C13 C 0.5771(11) 0.1136(11) 0.7095(9)
C14 C 0.522(3) 0.168(3) 0.621(2)
C15 C 0.485(2) 0.163(3) 0.697(3)
N1 N 0.6448(15) -0.0000 0.4873(12)
N2 N 0.7495(8) 0.0000 0.5568(8)
N3 N 0.551(3) 0.102(2) 0.6453(13)
N4 N 0.5258(18) 0.139(2) 0.7392(15)
Zn3 Zn 0.34221(8) 0.09926(5) 0.38067(5)
Zn4 Zn 0.75705(6) 0.09926(5) 0.88067(5)
Zn5 Zn 0.75705(6) 0.65779(8) 0.38067(5)
Zn9_2 Zn 1.0000 0.34415(7) 0.22346(8)
O9 O 0.7638(4) 0.5564(6) 0.3909(5)
O10 O 0.4436(6) 0.2074(4) 0.3909(5)
O11 O 0.7638(4) 0.2074(4) 0.8909(5)
O12 O 0.6380(6) 0.5139(8) 0.4249(5)
O13 O 0.4861(8) 0.1241(5) 0.4249(5)
O17 O 0.8775(4) 0.1512(4) 0.3155(3)
O18 O 0.2737(6) 0.1225(4) 0.3155(3)
O20 O 0.7818(4) 0.0683(4) 0.9789(3)
O21 O 0.2865(6) 0.0683(4) 0.4789(3)
O22 O 0.6604(4) 0.0000 0.8380(4)
O23 O 0.3396(4) 0.0000 0.3380(4)
C16 C 0.6931(6) 0.5012(8) 0.4117(5)
C17 C 0.4988(8) 0.1919(6) 0.4117(5)
C18 C 0.6799(6) 0.4130(9) 0.4129(6)
C19 C 0.5870(9) 0.2669(7) 0.4129(6)
C20 C 0.5998(6) 0.3449(8) 0.4147(6)
C21 C 0.6551(8) 0.2549(6) 0.4147(6)
H4 H 0.5546 0.3534 0.4172
H5 H 0.6466 0.2012 0.4172
H7 H 0.573377 0.229387 0.607244
H8 H 0.476629 0.146082 0.576051
H9 H 0.436187 0.176242 0.712568
H11 H 0.734855 0.0552225 0.392243
H12 H 0.830532 6.16298e-33 0.459374
Zn2_2 Zn 0.65585(7) 1.0000 0.72346(8)
O7_2 O 0.6324(8) 1.0000 0.6129(7)
C10_2 C 0.6773(11) 1.0000 0.5557(8)
C11_2 C 0.7089(11) 1.0000 0.4272(14)
C12_2 C 0.7747(18) 1.0000 0.4777(12)
N1_2 N 0.6448(15) 1.0000 0.4873(12)
N2_2 N 0.7495(8) 1.0000 0.5568(8)
O15 O 0.6896(8) 0.9100(6) 0.7104(4)
O22_2 O 0.6604(4) 1.0000 0.8380(4)
O23_2 O 0.3396(4) 1.0000 0.3380(4)
O24 O 0.5305(10) 0.9088(7) 0.7385(5)
C25 C 0.4635(16) 0.8864(11) 0.7095(9)
C26 C 0.354(4) 0.832(3) 0.621(2)
C27 C 0.322(4) 0.837(3) 0.697(3)
N5 N 0.449(4) 0.898(2) 0.6453(13)
N6 N 0.3868(27) 0.861(2) 0.7392(15)
H10 H 0.679632 0.944777 0.392243
H12_2 H 0.830532 1 0.459374
H13 H 0.259945 0.823758 0.712568
H14 H 0.330547 0.853918 0.576051
H15 H 0.34399 0.770613 0.607244
Zn2_3 Zn 0.0000 0.65585(7) 0.72346(8)
O7_3 O 0.0000 0.6324(8) 0.6129(7)
C10_3 C 0.0000 0.6773(11) 0.5557(8)
C11_3 C 0.0000 0.7089(11) 0.4272(14)
C12_3 C 0.0000 0.7747(18) 0.4777(12)
N1_3 N 0.0000 0.6448(15) 0.4873(12)
N2_3 N 0.0000 0.7495(8) 0.5568(8)
O15_2 O 0.0900(6) 0.7796(10) 0.7104(4)
O22_3 O 0.0000 0.6604(4) 0.8380(4)
O24_2 O 0.0912(7) 0.6217(12) 0.7385(5)
C25_2 C 0.1136(11) 0.5771(19) 0.7095(9)
C26_2 C 0.168(3) 0.522(5) 0.621(2)
C27_2 C 0.163(3) 0.485(5) 0.697(3)
N5_2 N 0.102(2) 0.551(4) 0.6453(13)
N6_2 N 0.139(2) 0.5258(34) 0.7392(15)
H10_2 H 0.0552225 0.734855 0.392243
H12_3 H -5.43566e-17 0.830532 0.459374
H13_2 H 0.176242 0.436187 0.712568
H14_2 H 0.146082 0.476629 0.576051
H15_2 H 0.229387 0.573377 0.607244
Zn2_4 Zn 1.0000 0.65585(7) 0.72346(8)
O3_2 O 0.9100(6) 0.6896(8) 0.7104(4)
O4_2 O 0.8775(4) 0.7263(6) 0.8155(3)
O5_2 O 0.7818(4) 0.7135(6) 0.4789(3)
O6_3 O 0.6604(4) 0.6604(4) 0.3380(4)
O7_4 O 1.0000 0.6324(8) 0.6129(7)
O8_2 O 0.9088(7) 0.5305(10) 0.7385(5)
C4_2 C 0.8780(6) 0.7226(8) 0.7458(4)
C5_2 C 0.8314(5) 0.7574(7) 0.7048(4)
C6_2 C 0.8143(5) 0.7404(7) 0.6279(4)
H2_2 H 0.8307 0.7071 0.6029
C7_3 C 0.7733(6) 0.7733(6) 0.5911(6)
C8_3 C 0.7528(6) 0.7528(6) 0.5082(6)
C9_3 C 0.7986(6) 0.7986(6) 0.7425(6)
H3_3 H 0.8043 0.8043 0.7939
C10_4 C 1.0000 0.6773(11) 0.5557(8)
C11_4 C 1.0000 0.7089(11) 0.4272(14)
C12_4 C 1.0000 0.7747(18) 0.4777(12)
C13_2 C 0.8864(11) 0.4635(16) 0.7095(9)
C14_2 C 0.832(3) 0.354(4) 0.621(2)
C15_2 C 0.837(3) 0.322(4) 0.697(3)
N1_4 N 1.0000 0.6448(15) 0.4873(12)
N2_4 N 1.0000 0.7495(8) 0.5568(8)
N3_2 N 0.898(2) 0.449(4) 0.6453(13)
N4_2 N 0.861(2) 0.3868(27) 0.7392(15)
Zn4_2 Zn 0.90074(5) 0.65779(8) 0.88067(5)
Zn6_2 Zn 0.65779(8) 0.90074(10) 0.88067(5)
Zn7_2 Zn 0.65779(8) 0.75705(9) 0.38067(5)
Zn9_3 Zn 0.65585(7) 0.65585(7) 0.22346(8)
O11_2 O 0.7926(4) 0.5564(6) 0.8909(5)
O16_2 O 0.7263(6) 0.8775(7) 0.8155(3)
O17_2 O 0.8488(4) 0.7263(6) 0.3155(3)
O19_2 O 0.7135(6) 0.7818(7) 0.4789(3)
O20_2 O 0.9317(4) 0.7135(6) 0.9789(3)
O22_4 O 1.0000 0.6604(4) 0.8380(4)
C22_2 C 0.7226(8) 0.8780(9) 0.7458(4)
C23_2 C 0.7574(7) 0.8314(9) 0.7048(4)
C24_2 C 0.7404(7) 0.8143(9) 0.6279(4)
H6_2 H 0.7071 0.8307 0.6029
H7_2 H 0.770613 0.34399 0.607244
H8_2 H 0.853918 0.330547 0.576051
H9_2 H 0.823758 0.259945 0.712568
H11_2 H 0.944777 0.679632 0.392243
H12_4 H 1 0.830532 0.459374
O3_3 O 0.3104(8) 0.2204(5) 0.7104(4)
O4_3 O 0.2737(6) 0.1512(4) 0.8155(3)
O7_5 O 0.3676(8) 0.3676(8) 0.6129(7)
O8_3 O 0.4695(10) 0.3783(7) 0.7385(5)
C4_3 C 0.2774(8) 0.1554(5) 0.7458(4)
C5_3 C 0.2426(7) 0.0740(5) 0.7048(4)
C6_3 C 0.2596(7) 0.0739(5) 0.6279(4)
H2_3 H 0.2929 0.1236 0.6029
C7_4 C 0.2267(6) 0.0000 0.5911(6)
C8_4 C 0.2472(6) 0.0000 0.5082(6)
C9_4 C 0.2014(6) 0.0000 0.7425(6)
H3_4 H 0.1957 -0.0000 0.7939
C10_5 C 0.3227(11) 0.3227(11) 0.5557(8)
C11_5 C 0.2911(11) 0.2911(11) 0.4272(14)
C12_5 C 0.2253(18) 0.2253(18) 0.4777(12)
C13_3 C 0.5365(16) 0.4229(11) 0.7095(9)
C14_3 C 0.646(4) 0.478(3) 0.621(2)
C15_3 C 0.678(4) 0.515(2) 0.697(3)
N1_5 N 0.3552(15) 0.3552(15) 0.4873(12)
N2_5 N 0.2505(8) 0.2505(8) 0.5568(8)
N3_3 N 0.551(4) 0.449(3) 0.6453(13)
N4_3 N 0.6132(27) 0.4742(18) 0.7392(15)
Zn4_3 Zn 0.34221(8) 0.24295(6) 0.88067(5)
Zn9_4 Zn 0.34415(7) 0.0000 0.22346(8)
O11_3 O 0.4436(6) 0.2362(4) 0.8909(5)
O20_3 O 0.2865(6) 0.2182(4) 0.9789(3)
O22_5 O 0.3396(4) 0.3396(4) 0.8380(4)
O24_3 O 0.3783(12) 0.4695(10) 0.7385(5)
C25_3 C 0.4229(19) 0.5365(16) 0.7095(9)
C26_3 C 0.478(5) 0.646(4) 0.621(2)
C27_3 C 0.515(5) 0.678(4) 0.697(3)
N5_3 N 0.449(4) 0.551(4) 0.6453(13)
N6_3 N 0.4742(34) 0.6132(27) 0.7392(15)
H7_3 H 0.65601 0.426623 0.607244
H8_3 H 0.669453 0.523371 0.576051
H9_3 H 0.740055 0.563813 0.712568
H10_3 H 0.265145 0.320368 0.392243
H11_3 H 0.320368 0.265145 0.392243
H12_5 H 0.169468 0.169468 0.459374
H13_3 H 0.563813 0.740055 0.712568
H14_3 H 0.523371 0.669453 0.576051
H15_3 H 0.426623 0.65601 0.607244
C7_5 C 0.2267(6) 1.0000 0.5911(6)
C8_5 C 0.2472(6) 1.0000 0.5082(6)
C9_5 C 0.2014(6) 1.0000 0.7425(6)
H3_5 H 0.1957 1.0000 0.7939
Zn6_3 Zn 0.09926(10) 0.75705(6) 0.88067(5)
Zn7_3 Zn 0.24295(9) 0.90074(5) 0.38067(5)
Zn9_5 Zn 0.34415(7) 1.0000 0.22346(8)
O16_3 O 0.1225(7) 0.8488(4) 0.8155(3)
O19_3 O 0.2182(7) 0.9317(4) 0.4789(3)
C22_3 C 0.1220(9) 0.8446(5) 0.7458(4)
C23_3 C 0.1686(9) 0.9260(5) 0.7048(4)
C24_3 C 0.1857(9) 0.9261(5) 0.6279(4)
H6_3 H 0.1693 0.8764 0.6029
O7_6 O 0.3676(8) 0.0000 0.1129(7)
C10_6 C 0.3227(11) 0.0000 0.0557(8)
N2_6 N 0.2505(8) -0.0000 0.0568(8)
O15_3 O 0.3104(8) 0.0900(6) 0.2104(4)
O24_4 O 0.4695(10) 0.0912(7) 0.2385(5)
C25_4 C 0.5365(16) 0.1136(11) 0.2095(9)
C26_4 C 0.646(4) 0.168(3) 0.121(2)
C27_4 C 0.678(4) 0.163(3) 0.197(3)
N5_4 N 0.551(4) 0.102(2) 0.1453(13)
N6_4 N 0.6132(27) 0.139(2) 0.2392(15)
H13_4 H 0.740055 0.176242 0.212568
H14_4 H 0.669453 0.146082 0.0760507
H15_4 H 0.65601 0.229387 0.107244
C11_6 C 0.2911(11) 0.0000 0.9272(14)
C12_6 C 0.2253(18) -0.0000 0.9777(12)
N1_6 N 0.3552(15) 0.0000 0.9873(12)
H10_4 H 0.320368 0.0552225 0.892243
H12_6 H 0.169468 -2.46519e-32 0.959374
O3_4 O 0.2204(5) 0.9100(6) 0.2104(4)
O4_4 O 0.1512(4) 0.8775(4) 0.3155(3)
O7_7 O 0.3676(8) 1.0000 0.1129(7)
O8_4 O 0.3783(7) 0.9088(7) 0.2385(5)
C4_4 C 0.1554(5) 0.8780(6) 0.2458(4)
C5_4 C 0.0740(5) 0.8314(5) 0.2048(4)
C6_4 C 0.0739(5) 0.8143(5) 0.1279(4)
H2_4 H 0.1236 0.8307 0.1029
C7_6 C 0.0000 0.7733(6) 0.0911(6)
C8_6 C 0.0000 0.7528(6) 0.0082(6)
C9_6 C 0.0000 0.7986(6) 0.2425(6)
H3_6 H -0.0000 0.8043 0.2939
C10_7 C 0.3227(11) 1.0000 0.0557(8)
C13_4 C 0.4229(11) 0.8864(11) 0.2095(9)
C14_4 C 0.478(3) 0.832(3) 0.121(2)
C15_4 C 0.515(2) 0.837(3) 0.197(3)
N2_7 N 0.2505(8) 1.0000 0.0568(8)
N3_4 N 0.449(3) 0.898(2) 0.1453(13)
N4_4 N 0.4742(18) 0.861(2) 0.2392(15)
O11_4 O 0.2362(4) 0.7926(4) 0.3909(5)
H7_4 H 0.426623 0.770613 0.107244
H8_4 H 0.523371 0.853918 0.0760507
H9_4 H 0.563813 0.823758 0.212568
O1_2 O 0.2074(4) 0.7638(4) 0.8909(5)
O2_2 O 0.1241(5) 0.6380(6) 0.9249(5)
O5_3 O 0.0683(4) 0.7818(4) 0.9789(3)
C1_2 C 0.1919(6) 0.6931(6) 0.9117(5)
C2_2 C 0.2669(7) 0.6799(6) 0.9129(6)
C3_2 C 0.2549(6) 0.5998(6) 0.9147(6)
H1_2 H 0.2012 0.5546 0.9172
C11_7 C 0.2911(11) 1.0000 0.9272(14)
C12_7 C 0.2253(18) 1.0000 0.9777(12)
N1_7 N 0.3552(15) 1.0000 0.9873(12)
O9_2 O 0.2362(4) 0.4436(6) 0.8909(5)
O10_2 O 0.5564(6) 0.7926(4) 0.8909(5)
O12_2 O 0.3620(6) 0.4861(8) 0.9249(5)
O13_2 O 0.5139(8) 0.8759(5) 0.9249(5)
O21_2 O 0.7135(6) 0.9317(4) 0.9789(3)
C16_2 C 0.3069(6) 0.4988(8) 0.9117(5)
C17_2 C 0.5012(8) 0.8081(6) 0.9117(5)
C18_2 C 0.3201(6) 0.5870(9) 0.9129(6)
C19_2 C 0.4130(9) 0.7331(7) 0.9129(6)
C20_2 C 0.4002(6) 0.6551(8) 0.9147(6)
C21_2 C 0.3449(8) 0.7451(6) 0.9147(6)
H4_2 H 0.4454 0.6466 0.9172
H5_2 H 0.3534 0.7988 0.9172
H11_4 H 0.265145 0.944777 0.892243
H12_7 H 0.169468 1 0.959374
C7_7 C 1.0000 0.7733(6) 0.0911(6)
C8_7 C 1.0000 0.7528(6) 0.0082(6)
C9_7 C 1.0000 0.7986(6) 0.2425(6)
H3_7 H 1.0000 0.8043 0.2939
O14_2 O 0.7796(5) 0.6896(8) 0.2104(4)
C22_4 C 0.8446(5) 0.7226(8) 0.2458(4)
C23_4 C 0.9260(5) 0.7574(7) 0.2048(4)
C24_4 C 0.9261(5) 0.7404(7) 0.1279(4)
H6_4 H 0.8764 0.7071 0.1029
O3_5 O 0.0900(6) 0.3104(8) 0.2104(4)
O4_5 O 0.1225(4) 0.2737(6) 0.3155(3)
O7_8 O 0.0000 0.3676(8) 0.1129(7)
O8_5 O 0.0912(7) 0.4695(10) 0.2385(5)
C4_5 C 0.1220(6) 0.2774(8) 0.2458(4)
C5_5 C 0.1686(5) 0.2426(7) 0.2048(4)
C6_5 C 0.1857(5) 0.2596(7) 0.1279(4)
H2_5 H 0.1693 0.2929 0.1029
C7_8 C 0.2267(6) 0.2267(6) 0.0911(6)
C8_8 C 0.2472(6) 0.2472(6) 0.0082(6)
C9_8 C 0.2014(6) 0.2014(6) 0.2425(6)
H3_8 H 0.1957 0.1957 0.2939
C10_8 C -0.0000 0.3227(11) 0.0557(8)
C13_5 C 0.1136(11) 0.5365(16) 0.2095(9)
C14_5 C 0.168(3) 0.646(4) 0.121(2)
C15_5 C 0.163(3) 0.678(4) 0.197(3)
N2_8 N -0.0000 0.2505(8) 0.0568(8)
N3_5 N 0.102(2) 0.551(4) 0.1453(13)
N4_5 N 0.139(2) 0.6132(27) 0.2392(15)
O11_5 O 0.2074(4) 0.4436(6) 0.3909(5)
C22_5 C 0.2774(8) 0.1220(9) 0.2458(4)
C23_5 C 0.2426(7) 0.1686(9) 0.2048(4)
C24_5 C 0.2596(7) 0.1857(9) 0.1279(4)
H6_5 H 0.2929 0.1693 0.1029
H7_5 H 0.229387 0.65601 0.107244
H8_5 H 0.146082 0.669453 0.0760507
H9_5 H 0.176242 0.740055 0.212568
O5_4 O 0.2182(4) 0.2865(6) 0.9789(3)
C11_8 C 0.0000 0.2911(11) 0.9272(14)
C12_8 C -0.0000 0.2253(18) 0.9777(12)
N1_8 N -0.0000 0.3552(15) 0.9873(12)
H11_5 H 0.0552225 0.320368 0.892243
H12_8 H 1.13798e-17 0.169468 0.959374
O7_9 O 1.0000 0.3676(8) 0.1129(7)
C10_9 C 1.0000 0.3227(11) 0.0557(8)
N2_9 N 1.0000 0.2505(8) 0.0568(8)
O15_4 O 0.9100(6) 0.2204(10) 0.2104(4)
O24_5 O 0.9088(7) 0.3783(12) 0.2385(5)
C25_5 C 0.8864(11) 0.4229(19) 0.2095(9)
C26_5 C 0.832(3) 0.478(5) 0.121(2)
C27_5 C 0.837(3) 0.515(5) 0.197(3)
N5_5 N 0.898(2) 0.449(4) 0.1453(13)
N6_5 N 0.861(2) 0.4742(34) 0.2392(15)
H13_5 H 0.823758 0.563813 0.212568
H14_5 H 0.853918 0.523371 0.0760507
H15_5 H 0.770613 0.426623 0.107244
C11_9 C 1.0000 0.2911(11) 0.9272(14)
C12_9 C 1.0000 0.2253(18) 0.9777(12)
N1_9 N 1.0000 0.3552(15) 0.9873(12)
H10_5 H 0.944777 0.265145 0.892243
H12_9 H 1 0.169468 0.959374
C7_9 C 0.7733(6) -0.0000 0.0911(6)
C8_9 C 0.7528(6) -0.0000 0.0082(6)
C9_9 C 0.7986(6) -0.0000 0.2425(6)
H3_9 H 0.8043 0.0000 0.2939
C22_6 C 0.8780(9) 0.1554(5) 0.2458(4)
C23_6 C 0.8314(9) 0.0740(5) 0.2048(4)
C24_6 C 0.8143(9) 0.0739(5) 0.1279(4)
H6_6 H 0.8307 0.1236 0.1029
O3_6 O 0.6896(8) 0.7796(5) 0.2104(4)
O4_6 O 0.7263(6) 0.8488(4) 0.3155(3)
O7_10 O 0.6324(8) 0.6324(8) 0.1129(7)
O8_6 O 0.5305(10) 0.6217(7) 0.2385(5)
C4_6 C 0.7226(8) 0.8446(5) 0.2458(4)
C5_6 C 0.7574(7) 0.9260(5) 0.2048(4)
C6_6 C 0.7404(7) 0.9261(5) 0.1279(4)
H2_6 H 0.7071 0.8764 0.1029
C7_10 C 0.7733(6) 1.0000 0.0911(6)
C8_10 C 0.7528(6) 1.0000 0.0082(6)
C9_10 C 0.7986(6) 1.0000 0.2425(6)
H3_10 H 0.8043 1.0000 0.2939
C10_10 C 0.6773(11) 0.6773(11) 0.0557(8)
C13_6 C 0.4635(16) 0.5771(11) 0.2095(9)
C14_6 C 0.354(4) 0.522(3) 0.121(2)
C15_6 C 0.322(4) 0.485(2) 0.197(3)
N2_10 N 0.7495(8) 0.7495(8) 0.0568(8)
N3_6 N 0.449(4) 0.551(3) 0.1453(13)
N4_6 N 0.3868(27) 0.5258(18) 0.2392(15)
O11_6 O 0.5564(6) 0.7638(4) 0.3909(5)
O24_6 O 0.6217(12) 0.5305(10) 0.2385(5)
C25_6 C 0.5771(19) 0.4635(16) 0.2095(9)
C26_6 C 0.522(5) 0.354(4) 0.121(2)
C27_6 C 0.485(5) 0.322(4) 0.197(3)
N5_6 N 0.551(4) 0.449(4) 0.1453(13)
N6_6 N 0.5258(34) 0.3868(27) 0.2392(15)
H7_6 H 0.34399 0.573377 0.107244
H8_6 H 0.330547 0.476629 0.0760507
H9_6 H 0.259945 0.436187 0.212568
H13_6 H 0.436187 0.259945 0.212568
H14_6 H 0.476629 0.330547 0.0760507
H15_6 H 0.573377 0.34399 0.107244
C11_10 C 0.7089(11) 0.7089(11) 0.9272(14)
C12_10 C 0.7747(18) 0.7747(18) 0.9777(12)
N1_10 N 0.6448(15) 0.6448(15) 0.9873(12)
H10_6 H 0.734855 0.679632 0.892243
H11_6 H 0.679632 0.734855 0.892243
H12_10 H 0.830532 0.830532 0.959374
O2_3 O 0.6380(6) 0.1241(5) 0.9249(5)
C1_3 C 0.6931(6) 0.1919(6) 0.9117(5)
C2_3 C 0.6799(6) 0.2669(7) 0.9129(6)
C3_3 C 0.5998(6) 0.2549(6) 0.9147(6)
H1_3 H 0.5546 0.2012 0.9172
O12_3 O 0.4861(8) 0.3620(6) 0.9249(5)
O13_3 O 0.8759(5) 0.5139(8) 0.9249(5)
C16_3 C 0.4988(8) 0.3069(6) 0.9117(5)
C17_3 C 0.8081(6) 0.5012(8) 0.9117(5)
C18_3 C 0.5870(9) 0.3201(6) 0.9129(6)
C19_3 C 0.7331(7) 0.4130(9) 0.9129(6)
C20_3 C 0.6551(8) 0.4002(6) 0.9147(6)
C21_3 C 0.7451(6) 0.3449(8) 0.9147(6)
H4_3 H 0.6466 0.4454 0.9172
H5_3 H 0.7988 0.3534 0.9172
O2_4 O 0.3620(6) 0.8759(5) 0.4249(5)
C1_4 C 0.3069(6) 0.8081(6) 0.4117(5)
C2_4 C 0.3201(6) 0.7331(7) 0.4129(6)
C3_4 C 0.4002(6) 0.7451(6) 0.4147(6)
H1_4 H 0.4454 0.7988 0.4172
O12_4 O 0.5139(8) 0.6380(6) 0.4249(5)
O13_4 O 0.1241(5) 0.4861(8) 0.4249(5)
C16_4 C 0.5012(8) 0.6931(6) 0.4117(5)
C17_4 C 0.1919(6) 0.4988(8) 0.4117(5)
C18_4 C 0.4130(9) 0.6799(6) 0.4129(6)
C19_4 C 0.2669(7) 0.5870(9) 0.4129(6)
C20_4 C 0.3449(8) 0.5998(6) 0.4147(6)
C21_4 C 0.2549(6) 0.6551(8) 0.4147(6)
H4_4 H 0.3534 0.5546 0.4172
H5_4 H 0.2012 0.6466 0.4172
loop_
_geom_bond_atom_site_label_1
_geom_bond_atom_site_label_2
_geom_bond_site_symmetry_1
_geom_bond_site_symmetry_2
H3 C9 1_555 1_555
Zn6 O16 1_555 1_555
Zn7 O6 1_555 1_555
Zn8 O14 1_555 1_555
Zn9 O6 1_555 1_555
O14 C22 1_555 1_555
O16 C22 1_555 1_555
O19 C8 1_555 1_555
C22 C23 1_555 1_555
C23 C9 1_555 1_555
C24 C7 1_555 1_555
H6 C24 1_555 1_555
C7 C8 1_555 1_555
Zn7 O19 1_555 1_555
C23 C24 1_555 1_555
Zn1 O1 1_555 1_555
Zn2 O3 1_555 1_555
O1 C1 1_555 1_555
O2 C1 1_555 1_555
O3 C4 1_555 1_555
O4 C4 1_555 1_555
O5 Zn1 1_555 1_555
O6_2 Zn1 1_555 1_555
O7 Zn2 1_555 1_555
O8 Zn2 1_555 1_555
C1 C2 1_555 1_555
C2 C3 1_555 1_555
C3 H1 1_555 1_555
C4 C5 1_555 1_555
C5 C6 1_555 1_555
C6 H2 1_555 1_555
C7_2 C6 1_555 1_555
C8_2 O5 1_555 1_555
C9_2 C5 1_555 1_555
H3_2 C9_2 1_555 1_555
C10 O7 1_555 1_555
C11 C12 1_555 1_555
C12 N2 1_555 1_555
C13 O8 1_555 1_555
C14 C15 1_555 1_555
C15 N4 1_555 1_555
N1 C10 1_555 1_555
N2 C10 1_555 1_555
N3 C13 1_555 1_555
N4 C13 1_555 1_555
Zn3 O10 1_555 1_555
Zn4 O4 1_555 1_555
Zn5 O9 1_555 1_555
Zn9_2 O6_2 1_555 1_555
O9 C16 1_555 1_555
O10 C17 1_555 1_555
O11 Zn4 1_555 1_555
O12 C16 1_555 1_555
O13 C17 1_555 1_555
O17 Zn1 1_555 1_555
O18 Zn3 1_555 1_555
O20 Zn4 1_555 1_555
O21 Zn3 1_555 1_555
O22 Zn2 1_555 1_555
O23 Zn3 1_555 1_555
C16 C18 1_555 1_555
C17 C19 1_555 1_555
C18 C3 1_555 1_555
C19 C20 1_555 1_555
C20 C18 1_555 1_555
C21 C2 1_555 1_555
H4 C20 1_555 1_555
H5 C21 1_555 1_555
C7_2 C8_2 1_555 1_555
C11 N1 1_555 1_555
C14 N3 1_555 1_555
Zn4 O22 1_555 1_555
C19 C21 1_555 1_555
C14 H7 1_555 1_555
C14 H8 1_555 1_555
C15 H9 1_555 1_555
C11 H11 1_555 1_555
C12 H12 1_555 1_555
O7_2 Zn2_2 1_555 1_555
C10_2 O7_2 1_555 1_555
C11_2 C12_2 1_555 1_555
C12_2 N2_2 1_555 1_555
N1_2 C10_2 1_555 1_555
N2_2 C10_2 1_555 1_555
O15 Zn2_2 1_555 1_555
O22_2 Zn2_2 1_555 1_555
O24 Zn2_2 1_555 1_555
C25 O24 1_555 1_555
C26 C27 1_555 1_555
C27 N6 1_555 1_555
N5 C25 1_555 1_555
N6 C25 1_555 1_555
C11_2 N1_2 1_555 1_555
C26 N5 1_555 1_555
C11_2 H10 1_555 1_555
C12_2 H12_2 1_555 1_555
C27 H13 1_555 1_555
C26 H14 1_555 1_555
C26 H15 1_555 1_555
O7_3 Zn2_3 1_555 1_555
C10_3 O7_3 1_555 1_555
C11_3 C12_3 1_555 1_555
C12_3 N2_3 1_555 1_555
N1_3 C10_3 1_555 1_555
N2_3 C10_3 1_555 1_555
O15_2 Zn2_3 1_555 1_555
O22_3 Zn2_3 1_555 1_555
O24_2 Zn2_3 1_555 1_555
C25_2 O24_2 1_555 1_555
C26_2 C27_2 1_555 1_555
C27_2 N6_2 1_555 1_555
N5_2 C25_2 1_555 1_555
N6_2 C25_2 1_555 1_555
C11_3 N1_3 1_555 1_555
C26_2 N5_2 1_555 1_555
C11_3 H10_2 1_555 1_555
C12_3 H12_3 1_555 1_555
C27_2 H13_2 1_555 1_555
C26_2 H14_2 1_555 1_555
C26_2 H15_2 1_555 1_555
Zn2_4 O3_2 1_555 1_555
O3_2 C4_2 1_555 1_555
O4_2 C4_2 1_555 1_555
O5_2 Zn5 1_555 1_555
O6_3 Zn5 1_555 1_555
O7_4 Zn2_4 1_555 1_555
O8_2 Zn2_4 1_555 1_555
C4_2 C5_2 1_555 1_555
C5_2 C6_2 1_555 1_555
C6_2 H2_2 1_555 1_555
C7_3 C6_2 1_555 1_555
C8_3 O5_2 1_555 1_555
C9_3 C5_2 1_555 1_555
H3_3 C9_3 1_555 1_555
C10_4 O7_4 1_555 1_555
C11_4 C12_4 1_555 1_555
C12_4 N2_4 1_555 1_555
C13_2 O8_2 1_555 1_555
C14_2 C15_2 1_555 1_555
C15_2 N4_2 1_555 1_555
N1_4 C10_4 1_555 1_555
N2_4 C10_4 1_555 1_555
N3_2 C13_2 1_555 1_555
N4_2 C13_2 1_555 1_555
Zn4_2 O4_2 1_555 1_555
Zn6_2 O16_2 1_555 1_555
Zn7_2 O6_3 1_555 1_555
Zn9_3 O6_3 1_555 1_555
O11_2 Zn4_2 1_555 1_555
O15 C22_2 1_555 1_555
O16_2 C22_2 1_555 1_555
O17_2 Zn5 1_555 1_555
O19_2 C8_3 1_555 1_555
O20_2 Zn4_2 1_555 1_555
O22_4 Zn2_4 1_555 1_555
C22_2 C23_2 1_555 1_555
C23_2 C9_3 1_555 1_555
C24_2 C7_3 1_555 1_555
H6_2 C24_2 1_555 1_555
C7_3 C8_3 1_555 1_555
C11_4 N1_4 1_555 1_555
C14_2 N3_2 1_555 1_555
Zn4_2 O22_4 1_555 1_555
Zn7_2 O19_2 1_555 1_555
C23_2 C24_2 1_555 1_555
C14_2 H7_2 1_555 1_555
C14_2 H8_2 1_555 1_555
C15_2 H9_2 1_555 1_555
C11_4 H11_2 1_555 1_555
C12_4 H12_4 1_555 1_555
Zn8 O3_3 1_555 1_555
O3_3 C4_3 1_555 1_555
O4_3 C4_3 1_555 1_555
O7_5 Zn8 1_555 1_555
O8_3 Zn8 1_555 1_555
C4_3 C5_3 1_555 1_555
C5_3 C6_3 1_555 1_555
C6_3 H2_3 1_555 1_555
C7_4 C6_3 1_555 1_555
C8_4 O21 1_555 1_555
C9_4 C5_3 1_555 1_555
H3_4 C9_4 1_555 1_555
C10_5 O7_5 1_555 1_555
C11_5 C12_5 1_555 1_555
C12_5 N2_5 1_555 1_555
C13_3 O8_3 1_555 1_555
C14_3 C15_3 1_555 1_555
C15_3 N4_3 1_555 1_555
N1_5 C10_5 1_555 1_555
N2_5 C10_5 1_555 1_555
N3_3 C13_3 1_555 1_555
N4_3 C13_3 1_555 1_555
Zn4_3 O4_3 1_555 1_555
Zn9_4 O23 1_555 1_555
O11_3 Zn4_3 1_555 1_555
O20_3 Zn4_3 1_555 1_555
O22_5 Zn8 1_555 1_555
O24_3 Zn8 1_555 1_555
C25_3 O24_3 1_555 1_555
C26_3 C27_3 1_555 1_555
C27_3 N6_3 1_555 1_555
N5_3 C25_3 1_555 1_555
N6_3 C25_3 1_555 1_555
C7_4 C8_4 1_555 1_555
C11_5 N1_5 1_555 1_555
C14_3 N3_3 1_555 1_555
Zn4_3 O22_5 1_555 1_555
C26_3 N5_3 1_555 1_555
C14_3 H7_3 1_555 1_555
C14_3 H8_3 1_555 1_555
C15_3 H9_3 1_555 1_555
C11_5 H10_3 1_555 1_555
C11_5 H11_3 1_555 1_555
C12_5 H12_5 1_555 1_555
C27_3 H13_3 1_555 1_555
C26_3 H14_3 1_555 1_555
C26_3 H15_3 1_555 1_555
H3_5 C9_5 1_555 1_555
Zn6_3 O16_3 1_555 1_555
Zn7_3 O23_2 1_555 1_555
Zn9_5 O23_2 1_555 1_555
O15_2 C22_3 1_555 1_555
O16_3 C22_3 1_555 1_555
O19_3 C8_5 1_555 1_555
C22_3 C23_3 1_555 1_555
C23_3 C9_5 1_555 1_555
C24_3 C7_5 1_555 1_555
H6_3 C24_3 1_555 1_555
C7_5 C8_5 1_555 1_555
Zn7_3 O19_3 1_555 1_555
C23_3 C24_3 1_555 1_555
O7_6 Zn9_4 1_555 1_555
C10_6 O7_6 1_555 1_555
N2_6 C10_6 1_555 1_555
O15_3 Zn9_4 1_555 1_555
O24_4 Zn9_4 1_555 1_555
C25_4 O24_4 1_555 1_555
C26_4 C27_4 1_555 1_555
C27_4 N6_4 1_555 1_555
N5_4 C25_4 1_555 1_555
N6_4 C25_4 1_555 1_555
C26_4 N5_4 1_555 1_555
C27_4 H13_4 1_555 1_555
C26_4 H14_4 1_555 1_555
C26_4 H15_4 1_555 1_555
C11_6 C12_6 1_555 1_555
C11_6 N1_6 1_555 1_555
C11_6 H10_4 1_555 1_555
C12_6 H12_6 1_555 1_555
Zn9_5 O3_4 1_555 1_555
O3_4 C4_4 1_555 1_555
O4_4 C4_4 1_555 1_555
O7_7 Zn9_5 1_555 1_555
O8_4 Zn9_5 1_555 1_555
C4_4 C5_4 1_555 1_555
C5_4 C6_4 1_555 1_555
C6_4 H2_4 1_555 1_555
C7_6 C6_4 1_555 1_555
C9_6 C5_4 1_555 1_555
H3_6 C9_6 1_555 1_555
C10_7 O7_7 1_555 1_555
C13_4 O8_4 1_555 1_555
C14_4 C15_4 1_555 1_555
C15_4 N4_4 1_555 1_555
N2_7 C10_7 1_555 1_555
N3_4 C13_4 1_555 1_555
N4_4 C13_4 1_555 1_555
Zn7_3 O4_4 1_555 1_555
O11_4 Zn7_3 1_555 1_555
C7_6 C8_6 1_555 1_555
C14_4 N3_4 1_555 1_555
C14_4 H7_4 1_555 1_555
C14_4 H8_4 1_555 1_555
C15_4 H9_4 1_555 1_555
Zn6_3 O1_2 1_555 1_555
O1_2 C1_2 1_555 1_555
O2_2 C1_2 1_555 1_555
O5_3 Zn6_3 1_555 1_555
O22_3 Zn6_3 1_555 1_555
C1_2 C2_2 1_555 1_555
C2_2 C3_2 1_555 1_555
C3_2 H1_2 1_555 1_555
C11_7 C12_7 1_555 1_555
Zn6_2 O10_2 1_555 1_555
Zn6 O9_2 1_555 1_555
O9_2 C16_2 1_555 1_555
O10_2 C17_2 1_555 1_555
O12_2 C16_2 1_555 1_555
O13_2 C17_2 1_555 1_555
O21_2 Zn6_2 1_555 1_555
O22_2 Zn6_2 1_555 1_555
C16_2 C18_2 1_555 1_555
C17_2 C19_2 1_555 1_555
C18_2 C3_2 1_555 1_555
C19_2 C20_2 1_555 1_555
C20_2 C18_2 1_555 1_555
C21_2 C2_2 1_555 1_555
H4_2 C20_2 1_555 1_555
H5_2 C21_2 1_555 1_555
C11_7 N1_7 1_555 1_555
C19_2 C21_2 1_555 1_555
C11_7 H11_4 1_555 1_555
C12_7 H12_7 1_555 1_555
H3_7 C9_7 1_555 1_555
Zn9_3 O14_2 1_555 1_555
O14_2 C22_4 1_555 1_555
O17_2 C22_4 1_555 1_555
C22_4 C23_4 1_555 1_555
C23_4 C9_7 1_555 1_555
C24_4 C7_7 1_555 1_555
H6_4 C24_4 1_555 1_555
C7_7 C8_7 1_555 1_555
C23_4 C24_4 1_555 1_555
Zn9 O3_5 1_555 1_555
O3_5 C4_5 1_555 1_555
O4_5 C4_5 1_555 1_555
O7_8 Zn9 1_555 1_555
O8_5 Zn9 1_555 1_555
C4_5 C5_5 1_555 1_555
C5_5 C6_5 1_555 1_555
C6_5 H2_5 1_555 1_555
C7_8 C6_5 1_555 1_555
C9_8 C5_5 1_555 1_555
H3_8 C9_8 1_555 1_555
C10_8 O7_8 1_555 1_555
C13_5 O8_5 1_555 1_555
C14_5 C15_5 1_555 1_555
C15_5 N4_5 1_555 1_555
N2_8 C10_8 1_555 1_555
N3_5 C13_5 1_555 1_555
N4_5 C13_5 1_555 1_555
Zn7 O4_5 1_555 1_555
O11_5 Zn7 1_555 1_555
O15_3 C22_5 1_555 1_555
O18 C22_5 1_555 1_555
C22_5 C23_5 1_555 1_555
C23_5 C9_8 1_555 1_555
C24_5 C7_8 1_555 1_555
H6_5 C24_5 1_555 1_555
C7_8 C8_8 1_555 1_555
C14_5 N3_5 1_555 1_555
C23_5 C24_5 1_555 1_555
C14_5 H7_5 1_555 1_555
C14_5 H8_5 1_555 1_555
C15_5 H9_5 1_555 1_555
O5_4 Zn6 1_555 1_555
O22_5 Zn6 1_555 1_555
C11_8 C12_8 1_555 1_555
C11_8 N1_8 1_555 1_555
C11_8 H11_5 1_555 1_555
C12_8 H12_8 1_555 1_555
O7_9 Zn9_2 1_555 1_555
C10_9 O7_9 1_555 1_555
N2_9 C10_9 1_555 1_555
O15_4 Zn9_2 1_555 1_555
O24_5 Zn9_2 1_555 1_555
C25_5 O24_5 1_555 1_555
C26_5 C27_5 1_555 1_555
C27_5 N6_5 1_555 1_555
N5_5 C25_5 1_555 1_555
N6_5 C25_5 1_555 1_555
C26_5 N5_5 1_555 1_555
C27_5 H13_5 1_555 1_555
C26_5 H14_5 1_555 1_555
C26_5 H15_5 1_555 1_555
C11_9 C12_9 1_555 1_555
C11_9 N1_9 1_555 1_555
C11_9 H10_5 1_555 1_555
C12_9 H12_9 1_555 1_555
H3_9 C9_9 1_555 1_555
O15_4 C22_6 1_555 1_555
O17 C22_6 1_555 1_555
C22_6 C23_6 1_555 1_555
C23_6 C9_9 1_555 1_555
C24_6 C7_9 1_555 1_555
H6_6 C24_6 1_555 1_555
C7_9 C8_9 1_555 1_555
C23_6 C24_6 1_555 1_555
Zn9_3 O3_6 1_555 1_555
O3_6 C4_6 1_555 1_555
O4_6 C4_6 1_555 1_555
O7_10 Zn9_3 1_555 1_555
O8_6 Zn9_3 1_555 1_555
C4_6 C5_6 1_555 1_555
C5_6 C6_6 1_555 1_555
C6_6 H2_6 1_555 1_555
C7_10 C6_6 1_555 1_555
C9_10 C5_6 1_555 1_555
H3_10 C9_10 1_555 1_555
C10_10 O7_10 1_555 1_555
C13_6 O8_6 1_555 1_555
C14_6 C15_6 1_555 1_555
C15_6 N4_6 1_555 1_555
N2_10 C10_10 1_555 1_555
N3_6 C13_6 1_555 1_555
N4_6 C13_6 1_555 1_555
Zn7_2 O4_6 1_555 1_555
O11_6 Zn7_2 1_555 1_555
O24_6 Zn9_3 1_555 1_555
C25_6 O24_6 1_555 1_555
C26_6 C27_6 1_555 1_555
C27_6 N6_6 1_555 1_555
N5_6 C25_6 1_555 1_555
N6_6 C25_6 1_555 1_555
C7_10 C8_10 1_555 1_555
C14_6 N3_6 1_555 1_555
C26_6 N5_6 1_555 1_555
C14_6 H7_6 1_555 1_555
C14_6 H8_6 1_555 1_555
C15_6 H9_6 1_555 1_555
C27_6 H13_6 1_555 1_555
C26_6 H14_6 1_555 1_555
C26_6 H15_6 1_555 1_555
C11_10 C12_10 1_555 1_555
C11_10 N1_10 1_555 1_555
C11_10 H10_6 1_555 1_555
C11_10 H11_6 1_555 1_555
C12_10 H12_10 1_555 1_555
O11 C1_3 1_555 1_555
O2_3 C1_3 1_555 1_555
C1_3 C2_3 1_555 1_555
C2_3 C3_3 1_555 1_555
C3_3 H1_3 1_555 1_555
O11_3 C16_3 1_555 1_555
O11_2 C17_3 1_555 1_555
O12_3 C16_3 1_555 1_555
O13_3 C17_3 1_555 1_555
C16_3 C18_3 1_555 1_555
C17_3 C19_3 1_555 1_555
C18_3 C3_3 1_555 1_555
C19_3 C20_3 1_555 1_555
C20_3 C18_3 1_555 1_555
C21_3 C2_3 1_555 1_555
H4_3 C20_3 1_555 1_555
H5_3 C21_3 1_555 1_555
C19_3 C21_3 1_555 1_555
O11_4 C1_4 1_555 1_555
O2_4 C1_4 1_555 1_555
C1_4 C2_4 1_555 1_555
C2_4 C3_4 1_555 1_555
C3_4 H1_4 1_555 1_555
O11_6 C16_4 1_555 1_555
O11_5 C17_4 1_555 1_555
O12_4 C16_4 1_555 1_555
O13_4 C17_4 1_555 1_555
C16_4 C18_4 1_555 1_555
C17_4 C19_4 1_555 1_555
C18_4 C3_4 1_555 1_555
C19_4 C20_4 1_555 1_555
C20_4 C18_4 1_555 1_555
C21_4 C2_4 1_555 1_555
H4_4 C20_4 1_555 1_555
H5_4 C21_4 1_555 1_555
C19_4 C21_4 1_555 1_555

#END
