
###############################################################################
#
# This file contains modified crystal structure data generated from the
# MOF subset of the Cambridge Structural Database (CSD) v543 
# hosted by the Cambridge Crystallographic Data Centre (CCDC).
#
# This work is licensed under the Creative Commons
# Attribution-NonCommercial-ShareAlike 4.0 International License.
# To view a copy of this license, visit
# http://creativecommons.org/licenses/by-nc-sa/4.0/
# or send a letter to
# Creative Commons, PO Box 1866, Mountain View, CA 94042, USA.
#
# CIF created using the CSD Python API on 29 September 2022
# The structure has been converted into the P1 space group
# The structure has a 3D framework
# The original CSD entry REGRAY is in the monoclinic crystal system
# The framework has been calculated to contain at least 10.0% void space
# The void calculation uses a probe of radius 1.32A, grid spacing 0.4
#
###############################################################################

data_REGRAY
_chemical_formula_moiety         '(C156 H120 N12 O81 Zn18)n'
_symmetry_cell_setting           triclinic
_symmetry_space_group_name_H-M   'P 1'
_symmetry_Int_Tables_number      1
_space_group_name_Hall           'P 1'
loop_
_symmetry_equiv_pos_site_id
_symmetry_equiv_pos_as_xyz
1 x,y,z
_cell_length_a                   18.060(12)
_cell_length_b                   12.104(8)
_cell_length_c                   31.65(2)
_cell_angle_alpha                90
_cell_angle_beta                 90.480(15)
_cell_angle_gamma                90
_cell_volume                     6918.39
loop_
_atom_site_label
_atom_site_type_symbol
_atom_site_fract_x
_atom_site_fract_y
_atom_site_fract_z
C36 C 0.1386(8) 0.0005(12) 0.7123(6)
H22 H 0.1069 0.0146 0.6872
H23 H 0.1554 0.0719 0.7243
Zn1 Zn 0.04406(6) 0.59888(11) 0.51347(4)
Zn2 Zn 0.54498(5) 0.40093(8) 0.48757(3)
Zn3 Zn 0.33414(6) 0.00203(8) 0.30995(3)
Zn4 Zn 0.24535(6) 0.59182(8) 0.73129(3)
O3 O 0.1532(8) 0.3874(8) 0.7486(4)
O4 O 0.1662(5) 0.5140(8) 0.6988(3)
O5 O 0.0458(6) 0.4895(9) 0.5636(3)
O7 O 0.6007(6) 0.1748(8) 0.7284(2)
O8 O 0.6009(4) 0.1079(5) 0.6634(2)
O9 O 0.5162(4) 0.3727(6) 0.54985(19)
O10 O 0.4476(4) 0.5217(6) 0.5697(2)
O11 O 0.3322(4) 0.5195(6) 0.70679(19)
O12 O 0.3796(4) 0.4203(5) 0.76085(17)
O13 O 0.1125(4) 0.4826(7) 0.4845(3)
O14 O 0.0484(4) 0.3308(8) 0.4619(3)
O15 O 0.1946(4) 0.1167(7) 0.3528(3)
O16 O 0.3170(4) 0.1143(6) 0.3546(2)
O17 O 0.4455(3) 0.3437(6) 0.4682(2)
O18 O 0.3796(4) 0.4910(6) 0.4894(2)
O19 O 0.1187(4) 0.7105(6) 0.5313(2)
O20 O 0.6045(4) 0.2622(5) 0.47885(19)
O21 O 0.2405(4) 0.7441(6) 0.7122(2)
C2 C 0.0413(7) 0.2798(10) 0.6989(4)
H1 H 0.0434 0.2570 0.7276
C3 C 0.0873(7) 0.3681(10) 0.6849(4)
C4 C 0.0818(8) 0.4041(11) 0.6432(4)
H2 H 0.1126 0.4621 0.6334
C5 C 0.0283(6) 0.3516(11) 0.6147(4)
C8 C 0.1362(7) 0.4245(10) 0.7125(4)
C9 C 0.0199(7) 0.3965(11) 0.5707(4)
C10 C 0.5287(7) 0.2683(9) 0.6761(3)
C11 C 0.5281(6) 0.3033(8) 0.6350(3)
H4 H 0.5600 0.2696 0.6151
C12 C 0.4795(6) 0.3908(8) 0.6219(3)
C13 C 0.4327(5) 0.4349(8) 0.6501(2)
H5 H 0.4001 0.4922 0.6412
C14 C 0.4303(5) 0.3989(7) 0.6929(3)
C15 C 0.4797(6) 0.3177(9) 0.7063(3)
H6 H 0.4810 0.2952 0.7350
C16 C 0.5807(5) 0.1755(9) 0.6907(3)
C17 C 0.4818(6) 0.4339(9) 0.5769(3)
C18 C 0.3779(5) 0.4517(7) 0.7225(3)
C19 C 0.1820(6) 0.3447(11) 0.4511(3)
C20 C 0.1846(6) 0.2579(10) 0.4185(3)
H7 H 0.1409 0.2218 0.4090
C21 C 0.2505(5) 0.2320(8) 0.4029(3)
C22 C 0.3214(5) 0.2676(7) 0.4214(3)
H8 H 0.3676 0.2386 0.4126
C23 C 0.3154(5) 0.3492(8) 0.4537(3)
C24 C 0.2467(5) 0.3873(9) 0.4668(3)
H9 H 0.2446 0.4446 0.4873
C25 C 0.1102(7) 0.3867(11) 0.4662(4)
C26 C 0.2543(5) 0.1461(8) 0.3675(3)
C27 C 0.3830(5) 0.3975(8) 0.4719(3)
C28 C 0.1746(5) 0.6977(9) 0.5550(3)
C29 C 0.2177(7) 0.5963(10) 0.5626(4)
H10 H 0.2470 0.5770 0.5374
H11 H 0.1844 0.5338 0.5693
C30 C 0.2691(7) 0.6222(13) 0.6004(4)
H12 H 0.3184 0.5883 0.5963
H13 H 0.2478 0.5934 0.6269
C31 C 0.2754(8) 0.7512(13) 0.6020(4)
H14 H 0.2712 0.7797 0.6312
H15 H 0.3221 0.7778 0.5894
C32 C 0.5735(10) 0.0346(11) 0.5466(4)
H16 H 0.5860 0.0359 0.5771
C34 C 0.6484(9) 0.0685(10) 0.4869(4)
H20 H 0.7019 0.0858 0.4858
H21 H 0.6324 0.0372 0.4594
C35 C 0.6036(6) 0.1699(8) 0.4979(3)
C37 C 0.1005(9) 0.9351(13) 0.7432(6)
H24 H 0.1097 0.9649 0.7719
H25 H 0.0465 0.9361 0.7376
C38 C 0.1310(7) 0.8147(11) 0.7399(4)
H26 H 0.0954 0.7668 0.7245
H27 H 0.1399 0.7831 0.7683
C39 C 0.1958(6) 0.8232(9) 0.7182(3)
N1 N 0.2082(6) 0.7818(9) 0.5751(3)
H28 H 0.1924 0.8503 0.5728
N2 N 0.5604(6) 0.1470(8) 0.5318(3)
H29 H 0.5289 0.1936 0.5432
N3 N 0.2050(8) 0.9252(10) 0.7013(5)
H30 H 0.2433 0.9456 0.6862
Zn7 Zn 0.45502(5) 0.59907(8) 0.51243(3)
Zn9 Zn 0.33414(6) 0.49797(8) 0.80995(3)
Zn11 Zn 0.14537(7) 0.46838(12) 0.80540(4)
Zn12 Zn 0.14537(7) 0.03162(12) 0.30540(4)
O24 O 0.0194(5) 0.6558(8) 0.4553(3)
O26 O 0.5524(4) 0.4783(6) 0.4303(2)
O27 O 0.3796(4) 0.0797(5) 0.26085(17)
O30 O 0.6204(4) 0.5090(6) 0.5106(2)
O31 O 0.2388(4) 0.5644(5) 0.79155(18)
O22 O 0.2388(4) 0.9356(5) 0.29155(18)
H17 H 0.5278 0.9903 0.5428
C33 C 0.6308(13) 0.9860(13) 0.5245(6)
H18 H 0.6156 0.9128 0.5134
H19 H 0.6748 0.9762 0.5430
Zn8 Zn 0.66586(6) 0.99797(8) 0.69005(3)
Zn10 Zn 0.24535(6) 0.90818(8) 0.23129(3)
O25 O 0.3991(4) 0.8921(5) 0.3366(2)
O1 O 0.9086(6) 0.0813(11) 0.6570(4)
O2 O 0.9402(6) 0.1156(9) 0.7221(4)
O6 O 0.9806(5) 0.3442(8) 0.5447(3)
C1 C 0.9924(7) 0.2254(11) 0.6703(4)
C6 C 0.9840(6) 0.2629(11) 0.6277(4)
H3 H 0.9496 0.2289 0.6088
C7 C 0.9459(7) 0.1341(14) 0.6844(5)
Zn6 Zn 0.95594(6) 0.40112(11) 0.48653(4)
O28 O 0.9516(4) 0.6692(8) 0.5381(3)
O32 O 0.7612(4) 0.0644(5) 0.70845(18)
Zn5 Zn 0.85463(7) 0.96838(12) 0.69460(4)
O23 O 0.8468(8) 0.8874(8) 0.7514(4)
O29 O 0.8054(4) 0.8833(7) 0.6472(3)
O28_2 O 0.0484(4) 0.1692(8) 0.9619(3)
Zn6_2 Zn 0.04406(6) 0.90112(11) 0.01347(4)
O1_2 O 0.0914(6) 0.5813(11) 0.8430(4)
O2_2 O 0.0598(6) 0.6156(9) 0.7779(4)
O6_2 O 0.0194(5) 0.8442(8) 0.9553(3)
C1_2 C 0.0076(7) 0.7254(11) 0.8297(4)
C6_2 C 0.0160(6) 0.7629(11) 0.8723(4)
H3_2 H 0.0504 0.7289 0.8912
C7_2 C 0.0541(7) 0.6341(14) 0.8156(5)
O29_2 O 0.1946(4) 0.3833(7) 0.8528(3)
O24_2 O 0.9806(5) 0.1558(8) 0.0447(3)
Zn1_2 Zn 0.95594(6) 0.09888(11) 0.98653(4)
Zn4_2 Zn 0.75465(6) 0.09182(8) 0.76871(3)
O4_2 O 0.8338(5) 0.0140(8) 0.8012(3)
O10_2 O 0.5524(4) 0.0217(6) 0.9303(2)
O11_2 O 0.6678(4) 0.0195(6) 0.79321(19)
O19_2 O 0.8813(4) 0.2105(6) 0.9687(2)
O21_2 O 0.7595(4) 0.2441(6) 0.7878(2)
C28_2 C 0.8254(5) 0.1977(9) 0.9450(3)
C29_2 C 0.7823(7) 0.0963(10) 0.9374(4)
H10_2 H 0.7530 0.0770 0.9626
H11_2 H 0.8156 0.0338 0.9307
C30_2 C 0.7309(7) 0.1222(13) 0.8996(4)
H12_2 H 0.6816 0.0883 0.9037
H13_2 H 0.7522 0.0934 0.8731
C31_2 C 0.7246(8) 0.2512(13) 0.8980(4)
H14_2 H 0.7288 0.2797 0.8688
H15_2 H 0.6779 0.2778 0.9106
C36_2 C 0.8614(8) 0.5005(12) 0.7877(6)
H22_2 H 0.8931 0.5146 0.8128
H23_2 H 0.8446 0.5719 0.7757
C37_2 C 0.8995(9) 0.4351(13) 0.7568(6)
H24_2 H 0.8903 0.4649 0.7281
H25_2 H 0.9535 0.4361 0.7624
C38_2 C 0.8690(7) 0.3147(11) 0.7601(4)
H26_2 H 0.9046 0.2668 0.7755
H27_2 H 0.8601 0.2831 0.7317
C39_2 C 0.8042(6) 0.3232(9) 0.7818(3)
N1_2 N 0.7918(6) 0.2818(9) 0.9249(3)
H28_2 H 0.8076 0.3503 0.9272
N3_2 N 0.7950(8) 0.4252(10) 0.7987(5)
H30_2 H 0.7567 0.4456 0.8138
Zn7_2 Zn 0.54498(5) 0.09907(8) 0.98757(3)
O30_2 O 0.3796(4) 0.0090(6) 0.9894(2)
Zn2_2 Zn 0.45502(5) 0.90093(8) 0.01243(3)
Zn3_2 Zn 0.66586(6) 0.50203(8) 0.19005(3)
O13_2 O 0.8875(4) 0.9826(7) 0.0155(3)
O14_2 O 0.9516(4) 0.8308(8) 0.0381(3)
O15_2 O 0.8054(4) 0.6167(7) 0.1472(3)
O16_2 O 0.6830(4) 0.6143(6) 0.1454(2)
O17_2 O 0.5545(3) 0.8437(6) 0.0318(2)
O18_2 O 0.6204(4) 0.9910(6) 0.0106(2)
O20_2 O 0.3955(4) 0.7622(5) 0.02115(19)
O22_2 O 0.7612(4) 0.4356(5) 0.20845(18)
C19_2 C 0.8180(6) 0.8447(11) 0.0489(3)
C20_2 C 0.8154(6) 0.7579(10) 0.0815(3)
H7_2 H 0.8591 0.7218 0.0910
C21_2 C 0.7495(5) 0.7320(8) 0.0971(3)
C22_2 C 0.6786(5) 0.7676(7) 0.0786(3)
H8_2 H 0.6324 0.7386 0.0874
C23_2 C 0.6846(5) 0.8492(8) 0.0463(3)
C24_2 C 0.7533(5) 0.8873(9) 0.0332(3)
H9_2 H 0.7554 0.9446 0.0127
C25_2 C 0.8898(7) 0.8867(11) 0.0338(4)
C26_2 C 0.7457(5) 0.6461(8) 0.1325(3)
C27_2 C 0.6170(5) 0.8975(8) 0.0281(3)
C34_2 C 0.3516(9) 0.5685(10) 0.0131(4)
H20_2 H 0.2981 0.5858 0.0142
H21_2 H 0.3676 0.5372 0.0406
C35_2 C 0.3964(6) 0.6699(8) 0.0021(3)
Zn10_2 Zn 0.75465(6) 0.40818(8) 0.26871(3)
Zn12_2 Zn 0.85463(7) 0.53162(12) 0.19460(4)
O25_2 O 0.6009(4) 0.3921(5) 0.1634(2)
O26_2 O 0.4476(4) 0.9783(6) 0.0697(2)
O27_2 O 0.6204(4) 0.5797(5) 0.23915(17)
O5_2 O 0.9542(6) 0.9895(9) 0.9364(3)
O7_2 O 0.3993(6) 0.6748(8) 0.7716(2)
O8_2 O 0.3991(4) 0.6079(5) 0.8366(2)
O9_2 O 0.4838(4) 0.8727(6) 0.95015(19)
O12_2 O 0.6204(4) 0.9203(5) 0.73915(17)
C2_2 C 0.9587(7) 0.7798(10) 0.8011(4)
H1_2 H 0.9566 0.7570 0.7724
C3_2 C 0.9127(7) 0.8681(10) 0.8151(4)
C4_2 C 0.9182(8) 0.9041(11) 0.8568(4)
H2_2 H 0.8874 0.9621 0.8666
C5_2 C 0.9717(6) 0.8516(11) 0.8853(4)
C8_2 C 0.8638(7) 0.9245(10) 0.7875(4)
C9_2 C 0.9801(7) 0.8965(11) 0.9293(4)
C10_2 C 0.4713(7) 0.7683(9) 0.8239(3)
C11_2 C 0.4719(6) 0.8033(8) 0.8650(3)
H4_2 H 0.4400 0.7696 0.8849
C12_2 C 0.5205(6) 0.8908(8) 0.8781(3)
C13_2 C 0.5673(5) 0.9349(8) 0.8499(2)
H5_2 H 0.5999 0.9922 0.8588
C14_2 C 0.5697(5) 0.8989(7) 0.8071(3)
C15_2 C 0.5203(6) 0.8177(9) 0.7937(3)
H6_2 H 0.5190 0.7952 0.7650
C16_2 C 0.4193(5) 0.6755(9) 0.8093(3)
C17_2 C 0.5182(6) 0.9339(9) 0.9231(3)
C18_2 C 0.6221(5) 0.9517(7) 0.7775(3)
C32_2 C 0.4265(10) 0.5346(11) 0.9534(4)
H16_2 H 0.4140 0.5359 0.9229
H17_2 H 0.4722 0.4903 0.9572
C33_2 C 0.3692(13) 0.4860(13) 0.9755(6)
H18_2 H 0.3844 0.4128 0.9866
H19_2 H 0.3252 0.4762 0.9570
N2_2 N 0.4396(6) 0.6470(8) 0.9682(3)
H29_2 H 0.4711 0.6936 0.9568
O23_2 O 0.1532(8) 0.1126(8) 0.2486(4)
O1_3 O 0.0914(6) 0.9187(11) 0.3430(4)
O2_3 O 0.0598(6) 0.8844(9) 0.2779(4)
C1_3 C 0.0076(7) 0.7746(11) 0.3297(4)
C6_3 C 0.0160(6) 0.7371(11) 0.3723(4)
H3_3 H 0.0504 0.7711 0.3912
C7_3 C 0.0541(7) 0.8659(14) 0.3156(5)
H17_3 H 0.4722 0.0097 0.4572
C33_3 C 0.3692(13) 0.0140(13) 0.4755(6)
H18_3 H 0.3844 0.0872 0.4866
H19_3 H 0.3252 0.0238 0.4570
O3_2 O 0.8468(8) 0.6126(8) 0.2514(4)
O4_3 O 0.8338(5) 0.4860(8) 0.3012(3)
O5_3 O 0.9542(6) 0.5105(9) 0.4364(3)
O7_3 O 0.3993(6) 0.8252(8) 0.2716(2)
O9_3 O 0.4838(4) 0.6273(6) 0.45015(19)
O11_3 O 0.6678(4) 0.4805(6) 0.29321(19)
O13_3 O 0.8875(4) 0.5174(7) 0.5155(3)
O16_3 O 0.6830(4) 0.8857(6) 0.6454(2)
O17_3 O 0.5545(3) 0.6563(6) 0.5318(2)
O19_3 O 0.8813(4) 0.2895(6) 0.4687(2)
O20_3 O 0.3955(4) 0.7378(5) 0.52115(19)
O21_3 O 0.7595(4) 0.2559(6) 0.2878(2)
C2_3 C 0.9587(7) 0.7202(10) 0.3011(4)
H1_3 H 0.9566 0.7430 0.2724
C3_3 C 0.9127(7) 0.6319(10) 0.3151(4)
C4_3 C 0.9182(8) 0.5959(11) 0.3568(4)
H2_3 H 0.8874 0.5379 0.3666
C5_3 C 0.9717(6) 0.6484(11) 0.3853(4)
C8_3 C 0.8638(7) 0.5755(10) 0.2875(4)
C9_3 C 0.9801(7) 0.6035(11) 0.4293(4)
C10_3 C 0.4713(7) 0.7317(9) 0.3239(3)
C11_3 C 0.4719(6) 0.6967(8) 0.3650(3)
H4_3 H 0.4400 0.7304 0.3849
C12_3 C 0.5205(6) 0.6092(8) 0.3781(3)
C13_3 C 0.5673(5) 0.5651(8) 0.3499(2)
H5_3 H 0.5999 0.5078 0.3588
C14_3 C 0.5697(5) 0.6011(7) 0.3071(3)
C15_3 C 0.5203(6) 0.6823(9) 0.2937(3)
H6_3 H 0.5190 0.7048 0.2650
C16_3 C 0.4193(5) 0.8245(9) 0.3093(3)
C17_3 C 0.5182(6) 0.5661(9) 0.4231(3)
C18_3 C 0.6221(5) 0.5483(7) 0.2775(3)
C19_3 C 0.8180(6) 0.6553(11) 0.5489(3)
C20_3 C 0.8154(6) 0.7421(10) 0.5815(3)
H7_3 H 0.8591 0.7782 0.5910
C21_3 C 0.7495(5) 0.7680(8) 0.5971(3)
C22_3 C 0.6786(5) 0.7324(7) 0.5786(3)
H8_3 H 0.6324 0.7614 0.5874
C23_3 C 0.6846(5) 0.6508(8) 0.5463(3)
C24_3 C 0.7533(5) 0.6127(9) 0.5332(3)
H9_3 H 0.7554 0.5554 0.5127
C25_3 C 0.8898(7) 0.6133(11) 0.5338(4)
C26_3 C 0.7457(5) 0.8539(8) 0.6325(3)
C27_3 C 0.6170(5) 0.6025(8) 0.5281(3)
C28_3 C 0.8254(5) 0.3023(9) 0.4450(3)
C29_3 C 0.7823(7) 0.4037(10) 0.4374(4)
H10_3 H 0.7530 0.4230 0.4626
H11_3 H 0.8156 0.4662 0.4307
C30_3 C 0.7309(7) 0.3778(13) 0.3996(4)
H12_3 H 0.6816 0.4117 0.4037
H13_3 H 0.7522 0.4066 0.3731
C31_3 C 0.7246(8) 0.2488(13) 0.3980(4)
H14_3 H 0.7288 0.2203 0.3688
H15_3 H 0.6779 0.2222 0.4106
C32_3 C 0.4265(10) 0.9654(11) 0.4534(4)
H16_3 H 0.4140 0.9641 0.4229
C34_3 C 0.3516(9) 0.9315(10) 0.5131(4)
H20_3 H 0.2981 0.9142 0.5142
H21_3 H 0.3676 0.9628 0.5406
C35_3 C 0.3964(6) 0.8301(8) 0.5021(3)
C37_3 C 0.8995(9) 0.0649(13) 0.2568(6)
H24_3 H 0.8903 0.0351 0.2281
H25_3 H 0.9535 0.0639 0.2624
C38_3 C 0.8690(7) 0.1853(11) 0.2601(4)
H26_3 H 0.9046 0.2332 0.2755
H27_3 H 0.8601 0.2169 0.2317
C39_3 C 0.8042(6) 0.1768(9) 0.2818(3)
N1_3 N 0.7918(6) 0.2182(9) 0.4249(3)
H28_3 H 0.8076 0.1497 0.4272
N2_3 N 0.4396(6) 0.8530(8) 0.4682(3)
H29_3 H 0.4711 0.8064 0.4568
N3_3 N 0.7950(8) 0.0748(10) 0.2987(5)
H30_3 H 0.7567 0.0544 0.3138
O5_4 O 0.0458(6) 0.0105(9) 0.0636(3)
O7_4 O 0.6007(6) 0.3252(8) 0.2284(2)
O9_4 O 0.5162(4) 0.1273(6) 0.04985(19)
C2_4 C 0.0413(7) 0.2202(10) 0.1989(4)
H1_4 H 0.0434 0.2430 0.2276
C3_4 C 0.0873(7) 0.1319(10) 0.1849(4)
C4_4 C 0.0818(8) 0.0959(11) 0.1432(4)
H2_4 H 0.1126 0.0379 0.1334
C5_4 C 0.0283(6) 0.1484(11) 0.1147(4)
C8_4 C 0.1362(7) 0.0755(10) 0.2125(4)
C9_4 C 0.0199(7) 0.1035(11) 0.0707(4)
C10_4 C 0.5287(7) 0.2317(9) 0.1761(3)
C11_4 C 0.5281(6) 0.1967(8) 0.1350(3)
H4_4 H 0.5600 0.2304 0.1151
C12_4 C 0.4795(6) 0.1092(8) 0.1219(3)
C13_4 C 0.4327(5) 0.0651(8) 0.1501(2)
H5_4 H 0.4001 0.0078 0.1412
C14_4 C 0.4303(5) 0.1011(7) 0.1929(3)
C15_4 C 0.4797(6) 0.1823(9) 0.2063(3)
H6_4 H 0.4810 0.2048 0.2350
C16_4 C 0.5807(5) 0.3245(9) 0.1907(3)
C17_4 C 0.4818(6) 0.0661(9) 0.0769(3)
C18_4 C 0.3779(5) 0.0483(7) 0.2225(3)
C32_4 C 0.5735(10) 0.4654(11) 0.0466(4)
H16_4 H 0.5860 0.4641 0.0771
H17_4 H 0.5278 0.5097 0.0428
C33_4 C 0.6308(13) 0.5140(13) 0.0245(6)
H18_4 H 0.6156 0.5872 0.0134
H19_4 H 0.6748 0.5238 0.0430
N2_4 N 0.5604(6) 0.3530(8) 0.0318(3)
H29_4 H 0.5289 0.3064 0.0432
O13_4 O 0.1125(4) 0.0174(7) 0.9845(3)
O16_4 O 0.3170(4) 0.3857(6) 0.8546(2)
O17_4 O 0.4455(3) 0.1563(6) 0.9682(2)
O20_4 O 0.6045(4) 0.2378(5) 0.97885(19)
C19_4 C 0.1820(6) 0.1553(11) 0.9511(3)
C20_4 C 0.1846(6) 0.2421(10) 0.9185(3)
H7_4 H 0.1409 0.2782 0.9090
C21_4 C 0.2505(5) 0.2680(8) 0.9029(3)
C22_4 C 0.3214(5) 0.2324(7) 0.9214(3)
H8_4 H 0.3676 0.2614 0.9126
C23_4 C 0.3154(5) 0.1508(8) 0.9537(3)
C24_4 C 0.2467(5) 0.1127(9) 0.9668(3)
H9_4 H 0.2446 0.0554 0.9873
C25_4 C 0.1102(7) 0.1133(11) 0.9662(4)
C26_4 C 0.2543(5) 0.3539(8) 0.8675(3)
C27_4 C 0.3830(5) 0.1025(8) 0.9719(3)
C34_4 C 0.6484(9) 0.4315(10) 0.9869(4)
H20_4 H 0.7019 0.4142 0.9858
H21_4 H 0.6324 0.4628 0.9594
C35_4 C 0.6036(6) 0.3301(8) 0.9979(3)
O4_4 O 0.1662(5) 0.9860(8) 0.1988(3)
O11_4 O 0.3322(4) 0.9805(6) 0.20679(19)
O19_4 O 0.1187(4) 0.7895(6) 0.0313(2)
O21_4 O 0.2405(4) 0.7559(6) 0.2122(2)
C28_4 C 0.1746(5) 0.8023(9) 0.0550(3)
C29_4 C 0.2177(7) 0.9037(10) 0.0626(4)
H10_4 H 0.2470 0.9230 0.0374
H11_4 H 0.1844 0.9662 0.0693
C30_4 C 0.2691(7) 0.8778(13) 0.1004(4)
H12_4 H 0.3184 0.9117 0.0963
H13_4 H 0.2478 0.9066 0.1269
C31_4 C 0.2754(8) 0.7488(13) 0.1020(4)
H14_4 H 0.2712 0.7203 0.1312
H15_4 H 0.3221 0.7222 0.0894
C36_3 C 0.1386(8) 0.4995(12) 0.2123(6)
H22_3 H 0.1069 0.4854 0.1872
H23_3 H 0.1554 0.4281 0.2243
C37_4 C 0.1005(9) 0.5649(13) 0.2432(6)
H24_4 H 0.1097 0.5351 0.2719
H25_4 H 0.0465 0.5639 0.2376
C38_4 C 0.1310(7) 0.6853(11) 0.2399(4)
H26_4 H 0.0954 0.7332 0.2245
H27_4 H 0.1399 0.7169 0.2683
C39_4 C 0.1958(6) 0.6768(9) 0.2182(3)
N1_4 N 0.2082(6) 0.7182(9) 0.0751(3)
H28_4 H 0.1924 0.6497 0.0728
N3_4 N 0.2050(8) 0.5748(10) 0.2013(5)
H30_4 H 0.2433 0.5544 0.1862
O1_4 O 0.9086(6) 0.4187(11) 0.1570(4)
O2_4 O 0.9402(6) 0.3844(9) 0.2221(4)
C1_4 C 0.9924(7) 0.2746(11) 0.1703(4)
C6_4 C 0.9840(6) 0.2371(11) 0.1277(4)
H3_4 H 0.9496 0.2711 0.1088
C7_4 C 0.9459(7) 0.3659(14) 0.1844(5)
C36_4 C 0.8614(8) 0.9995(12) 0.2877(6)
H22_4 H 0.8931 0.9854 0.3128
H23_4 H 0.8446 0.9281 0.2757
loop_
_geom_bond_atom_site_label_1
_geom_bond_atom_site_label_2
_geom_bond_site_symmetry_1
_geom_bond_site_symmetry_2
C36 H22 1_555 1_555
H23 C36 1_555 1_555
Zn1 O5 1_555 1_555
Zn2 O9 1_555 1_555
Zn3 O16 1_555 1_555
Zn4 O4 1_555 1_555
O3 C8 1_555 1_555
O4 C8 1_555 1_555
O5 C9 1_555 1_555
O7 C16 1_555 1_555
O8 C16 1_555 1_555
O9 C17 1_555 1_555
O10 C17 1_555 1_555
O11 Zn4 1_555 1_555
O12 C18 1_555 1_555
O13 Zn1 1_555 1_555
O14 C25 1_555 1_555
O15 C26 1_555 1_555
O16 C26 1_555 1_555
O17 Zn2 1_555 1_555
O18 C27 1_555 1_555
O19 Zn1 1_555 1_555
O20 Zn2 1_555 1_555
O21 Zn4 1_555 1_555
C2 H1 1_555 1_555
C3 C2 1_555 1_555
C4 C3 1_555 1_555
H2 C4 1_555 1_555
C5 C4 1_555 1_555
C8 C3 1_555 1_555
C9 C5 1_555 1_555
C10 C11 1_555 1_555
C11 H4 1_555 1_555
C12 C11 1_555 1_555
C13 C12 1_555 1_555
H5 C13 1_555 1_555
C14 C13 1_555 1_555
C15 C10 1_555 1_555
H6 C15 1_555 1_555
C16 C10 1_555 1_555
C17 C12 1_555 1_555
C18 O11 1_555 1_555
C19 C20 1_555 1_555
C20 H7 1_555 1_555
C21 C20 1_555 1_555
C22 C21 1_555 1_555
H8 C22 1_555 1_555
C23 C22 1_555 1_555
C24 C19 1_555 1_555
H9 C24 1_555 1_555
C25 O13 1_555 1_555
C26 C21 1_555 1_555
C27 O17 1_555 1_555
C28 O19 1_555 1_555
C29 C28 1_555 1_555
H10 C29 1_555 1_555
H11 C29 1_555 1_555
C30 C29 1_555 1_555
H12 C30 1_555 1_555
H13 C30 1_555 1_555
C31 C30 1_555 1_555
H14 C31 1_555 1_555
H15 C31 1_555 1_555
C32 H16 1_555 1_555
H20 C34 1_555 1_555
H21 C34 1_555 1_555
C35 O20 1_555 1_555
H24 C37 1_555 1_555
H25 C37 1_555 1_555
C38 C37 1_555 1_555
H26 C38 1_555 1_555
H27 C38 1_555 1_555
C39 O21 1_555 1_555
N1 C28 1_555 1_555
H28 N1 1_555 1_555
N2 C32 1_555 1_555
H29 N2 1_555 1_555
H30 N3 1_555 1_555
Zn7 O10 1_555 1_555
Zn9 O12 1_555 1_555
Zn11 O3 1_555 1_555
Zn12 O15 1_555 1_555
O24 Zn1 1_555 1_555
O26 Zn2 1_555 1_555
O27 Zn3 1_555 1_555
O30 Zn2 1_555 1_555
O31 Zn4 1_555 1_555
O18 Zn7 1_555 1_555
C14 C15 1_555 1_555
C14 C18 1_555 1_555
C19 C25 1_555 1_555
C23 C24 1_555 1_555
C23 C27 1_555 1_555
C31 N1 1_555 1_555
C34 C35 1_555 1_555
C35 N2 1_555 1_555
C38 C39 1_555 1_555
C39 N3 1_555 1_555
Zn9 O31 1_555 1_555
Zn11 O31 1_555 1_555
H18 C33 1_555 1_555
H19 C33 1_555 1_555
Zn10 O22 1_555 1_555
O1 C7 1_555 1_555
O2 C7 1_555 1_555
C6 C1 1_555 1_555
H3 C6 1_555 1_555
C7 C1 1_555 1_555
Zn6 O6 1_555 1_555
O23 Zn5 1_555 1_555
O29 Zn5 1_555 1_555
Zn11 O1_2 1_555 1_555
O1_2 C7_2 1_555 1_555
O2_2 C7_2 1_555 1_555
C6_2 C1_2 1_555 1_555
H3_2 C6_2 1_555 1_555
C7_2 C1_2 1_555 1_555
O29_2 Zn11 1_555 1_555
Zn4_2 O4_2 1_555 1_555
O11_2 Zn4_2 1_555 1_555
O19_2 Zn1_2 1_555 1_555
O21_2 Zn4_2 1_555 1_555
C28_2 O19_2 1_555 1_555
C29_2 C28_2 1_555 1_555
H10_2 C29_2 1_555 1_555
H11_2 C29_2 1_555 1_555
C30_2 C29_2 1_555 1_555
H12_2 C30_2 1_555 1_555
H13_2 C30_2 1_555 1_555
C31_2 C30_2 1_555 1_555
H14_2 C31_2 1_555 1_555
H15_2 C31_2 1_555 1_555
C36_2 H22_2 1_555 1_555
H23_2 C36_2 1_555 1_555
C37_2 C36_2 1_555 1_555
H24_2 C37_2 1_555 1_555
H25_2 C37_2 1_555 1_555
C38_2 C37_2 1_555 1_555
H26_2 C38_2 1_555 1_555
H27_2 C38_2 1_555 1_555
C39_2 O21_2 1_555 1_555
N1_2 C28_2 1_555 1_555
H28_2 N1_2 1_555 1_555
N3_2 C36_2 1_555 1_555
H30_2 N3_2 1_555 1_555
Zn7_2 O10_2 1_555 1_555
O32 Zn4_2 1_555 1_555
C31_2 N1_2 1_555 1_555
C38_2 C39_2 1_555 1_555
C39_2 N3_2 1_555 1_555
Zn3_2 O16_2 1_555 1_555
O14_2 C25_2 1_555 1_555
O15_2 C26_2 1_555 1_555
O16_2 C26_2 1_555 1_555
O17_2 Zn2_2 1_555 1_555
O18_2 C27_2 1_555 1_555
O20_2 Zn2_2 1_555 1_555
O22_2 Zn3_2 1_555 1_555
C19_2 C20_2 1_555 1_555
C20_2 H7_2 1_555 1_555
C21_2 C20_2 1_555 1_555
C22_2 C21_2 1_555 1_555
H8_2 C22_2 1_555 1_555
C23_2 C22_2 1_555 1_555
C24_2 C19_2 1_555 1_555
H9_2 C24_2 1_555 1_555
C25_2 O13_2 1_555 1_555
C26_2 C21_2 1_555 1_555
C27_2 O17_2 1_555 1_555
H20_2 C34_2 1_555 1_555
H21_2 C34_2 1_555 1_555
C35_2 O20_2 1_555 1_555
Zn10_2 O22_2 1_555 1_555
Zn12_2 O15_2 1_555 1_555
O25_2 Zn3_2 1_555 1_555
O26_2 Zn2_2 1_555 1_555
O27_2 Zn3_2 1_555 1_555
O22_2 Zn12_2 1_555 1_555
C19_2 C25_2 1_555 1_555
C23_2 C24_2 1_555 1_555
C23_2 C27_2 1_555 1_555
C34_2 C35_2 1_555 1_555
O23 C8_2 1_555 1_555
O5_2 C9_2 1_555 1_555
O7_2 C16_2 1_555 1_555
O8_2 C16_2 1_555 1_555
O9_2 C17_2 1_555 1_555
O12_2 C18_2 1_555 1_555
C2_2 H1_2 1_555 1_555
C3_2 C2_2 1_555 1_555
C4_2 C3_2 1_555 1_555
H2_2 C4_2 1_555 1_555
C5_2 C4_2 1_555 1_555
C8_2 C3_2 1_555 1_555
C9_2 C5_2 1_555 1_555
C10_2 C11_2 1_555 1_555
C11_2 H4_2 1_555 1_555
C12_2 C11_2 1_555 1_555
C13_2 C12_2 1_555 1_555
H5_2 C13_2 1_555 1_555
C14_2 C13_2 1_555 1_555
C15_2 C10_2 1_555 1_555
H6_2 C15_2 1_555 1_555
C16_2 C10_2 1_555 1_555
C17_2 C12_2 1_555 1_555
C32_2 H16_2 1_555 1_555
H17_2 C32_2 1_555 1_555
C33_2 C32_2 1_555 1_555
H18_2 C33_2 1_555 1_555
H19_2 C33_2 1_555 1_555
N2_2 C32_2 1_555 1_555
H29_2 N2_2 1_555 1_555
Zn9 O8_2 1_555 1_555
Zn8 O12_2 1_555 1_555
C14_2 C15_2 1_555 1_555
C14_2 C18_2 1_555 1_555
O23_2 Zn12 1_555 1_555
O1_3 C7_3 1_555 1_555
O2_3 C7_3 1_555 1_555
C6_3 C1_3 1_555 1_555
H3_3 C6_3 1_555 1_555
C7_3 C1_3 1_555 1_555
H18_3 C33_3 1_555 1_555
H19_3 C33_3 1_555 1_555
Zn6 O5_3 1_555 1_555
Zn7 O9_3 1_555 1_555
Zn8 O16_3 1_555 1_555
Zn10_2 O4_3 1_555 1_555
O3_2 C8_3 1_555 1_555
O4_3 C8_3 1_555 1_555
O5_3 C9_3 1_555 1_555
O7_3 C16_3 1_555 1_555
O25 C16_3 1_555 1_555
O9_3 C17_3 1_555 1_555
O26 C17_3 1_555 1_555
O11_3 Zn10_2 1_555 1_555
O27_2 C18_3 1_555 1_555
O13_3 Zn6 1_555 1_555
O28 C25_3 1_555 1_555
O29 C26_3 1_555 1_555
O16_3 C26_3 1_555 1_555
O17_3 Zn7 1_555 1_555
O30 C27_3 1_555 1_555
O19_3 Zn6 1_555 1_555
O20_3 Zn7 1_555 1_555
O21_3 Zn10_2 1_555 1_555
C2_3 H1_3 1_555 1_555
C3_3 C2_3 1_555 1_555
C4_3 C3_3 1_555 1_555
H2_3 C4_3 1_555 1_555
C5_3 C4_3 1_555 1_555
C8_3 C3_3 1_555 1_555
C9_3 C5_3 1_555 1_555
C10_3 C11_3 1_555 1_555
C11_3 H4_3 1_555 1_555
C12_3 C11_3 1_555 1_555
C13_3 C12_3 1_555 1_555
H5_3 C13_3 1_555 1_555
C14_3 C13_3 1_555 1_555
C15_3 C10_3 1_555 1_555
H6_3 C15_3 1_555 1_555
C16_3 C10_3 1_555 1_555
C17_3 C12_3 1_555 1_555
C18_3 O11_3 1_555 1_555
C19_3 C20_3 1_555 1_555
C20_3 H7_3 1_555 1_555
C21_3 C20_3 1_555 1_555
C22_3 C21_3 1_555 1_555
H8_3 C22_3 1_555 1_555
C23_3 C22_3 1_555 1_555
C24_3 C19_3 1_555 1_555
H9_3 C24_3 1_555 1_555
C25_3 O13_3 1_555 1_555
C26_3 C21_3 1_555 1_555
C27_3 O17_3 1_555 1_555
C28_3 O19_3 1_555 1_555
C29_3 C28_3 1_555 1_555
H10_3 C29_3 1_555 1_555
H11_3 C29_3 1_555 1_555
C30_3 C29_3 1_555 1_555
H12_3 C30_3 1_555 1_555
H13_3 C30_3 1_555 1_555
C31_3 C30_3 1_555 1_555
H14_3 C31_3 1_555 1_555
H15_3 C31_3 1_555 1_555
C32_3 H16_3 1_555 1_555
H20_3 C34_3 1_555 1_555
H21_3 C34_3 1_555 1_555
C35_3 O20_3 1_555 1_555
H24_3 C37_3 1_555 1_555
H25_3 C37_3 1_555 1_555
C38_3 C37_3 1_555 1_555
H26_3 C38_3 1_555 1_555
H27_3 C38_3 1_555 1_555
C39_3 O21_3 1_555 1_555
N1_3 C28_3 1_555 1_555
H28_3 N1_3 1_555 1_555
N2_3 C32_3 1_555 1_555
H29_3 N2_3 1_555 1_555
H30_3 N3_3 1_555 1_555
Zn12_2 O3_2 1_555 1_555
C14_3 C15_3 1_555 1_555
C14_3 C18_3 1_555 1_555
C19_3 C25_3 1_555 1_555
C23_3 C24_3 1_555 1_555
C23_3 C27_3 1_555 1_555
C31_3 N1_3 1_555 1_555
C34_3 C35_3 1_555 1_555
C35_3 N2_3 1_555 1_555
C38_3 C39_3 1_555 1_555
C39_3 N3_3 1_555 1_555
O23_2 C8_4 1_555 1_555
O5_4 C9_4 1_555 1_555
O7_4 C16_4 1_555 1_555
O25_2 C16_4 1_555 1_555
O9_4 C17_4 1_555 1_555
O27 C18_4 1_555 1_555
C2_4 H1_4 1_555 1_555
C3_4 C2_4 1_555 1_555
C4_4 C3_4 1_555 1_555
H2_4 C4_4 1_555 1_555
C5_4 C4_4 1_555 1_555
C8_4 C3_4 1_555 1_555
C9_4 C5_4 1_555 1_555
C10_4 C11_4 1_555 1_555
C11_4 H4_4 1_555 1_555
C12_4 C11_4 1_555 1_555
C13_4 C12_4 1_555 1_555
H5_4 C13_4 1_555 1_555
C14_4 C13_4 1_555 1_555
C15_4 C10_4 1_555 1_555
H6_4 C15_4 1_555 1_555
C16_4 C10_4 1_555 1_555
C17_4 C12_4 1_555 1_555
C32_4 H16_4 1_555 1_555
H17_4 C32_4 1_555 1_555
C33_4 C32_4 1_555 1_555
H18_4 C33_4 1_555 1_555
H19_4 C33_4 1_555 1_555
N2_4 C32_4 1_555 1_555
H29_4 N2_4 1_555 1_555
C14_4 C15_4 1_555 1_555
C14_4 C18_4 1_555 1_555
Zn9 O16_4 1_555 1_555
O28_2 C25_4 1_555 1_555
O29_2 C26_4 1_555 1_555
O16_4 C26_4 1_555 1_555
O17_4 Zn7_2 1_555 1_555
O30_2 C27_4 1_555 1_555
O20_4 Zn7_2 1_555 1_555
C19_4 C20_4 1_555 1_555
C20_4 H7_4 1_555 1_555
C21_4 C20_4 1_555 1_555
C22_4 C21_4 1_555 1_555
H8_4 C22_4 1_555 1_555
C23_4 C22_4 1_555 1_555
C24_4 C19_4 1_555 1_555
H9_4 C24_4 1_555 1_555
C25_4 O13_4 1_555 1_555
C26_4 C21_4 1_555 1_555
C27_4 O17_4 1_555 1_555
H20_4 C34_4 1_555 1_555
H21_4 C34_4 1_555 1_555
C35_4 O20_4 1_555 1_555
C19_4 C25_4 1_555 1_555
C23_4 C24_4 1_555 1_555
C23_4 C27_4 1_555 1_555
C34_4 C35_4 1_555 1_555
Zn10 O4_4 1_555 1_555
O11_4 Zn10 1_555 1_555
O19_4 Zn6_2 1_555 1_555
O21_4 Zn10 1_555 1_555
C28_4 O19_4 1_555 1_555
C29_4 C28_4 1_555 1_555
H10_4 C29_4 1_555 1_555
H11_4 C29_4 1_555 1_555
C30_4 C29_4 1_555 1_555
H12_4 C30_4 1_555 1_555
H13_4 C30_4 1_555 1_555
C31_4 C30_4 1_555 1_555
H14_4 C31_4 1_555 1_555
H15_4 C31_4 1_555 1_555
C36_3 H22_3 1_555 1_555
H23_3 C36_3 1_555 1_555
C37_4 C36_3 1_555 1_555
H24_4 C37_4 1_555 1_555
H25_4 C37_4 1_555 1_555
C38_4 C37_4 1_555 1_555
H26_4 C38_4 1_555 1_555
H27_4 C38_4 1_555 1_555
C39_4 O21_4 1_555 1_555
N1_4 C28_4 1_555 1_555
H28_4 N1_4 1_555 1_555
N3_4 C36_3 1_555 1_555
H30_4 N3_4 1_555 1_555
C31_4 N1_4 1_555 1_555
C38_4 C39_4 1_555 1_555
C39_4 N3_4 1_555 1_555
Zn12_2 O1_4 1_555 1_555
O1_4 C7_4 1_555 1_555
O2_4 C7_4 1_555 1_555
C6_4 C1_4 1_555 1_555
H3_4 C6_4 1_555 1_555
C7_4 C1_4 1_555 1_555
C36_4 H22_4 1_555 1_555
H23_4 C36_4 1_555 1_555

#END
