
###############################################################################
#
# This file contains modified crystal structure data generated from the
# MOF subset of the Cambridge Structural Database (CSD) v543 
# hosted by the Cambridge Crystallographic Data Centre (CCDC).
#
# This work is licensed under the Creative Commons
# Attribution-NonCommercial-ShareAlike 4.0 International License.
# To view a copy of this license, visit
# http://creativecommons.org/licenses/by-nc-sa/4.0/
# or send a letter to
# Creative Commons, PO Box 1866, Mountain View, CA 94042, USA.
#
# CIF created using the CSD Python API on 29 September 2022
# The structure has been converted into the P1 space group
# The structure has a 3D framework
# The original CSD entry REGRIG is in the monoclinic crystal system
# The framework has been calculated to contain at least 10.0% void space
# The void calculation uses a probe of radius 1.32A, grid spacing 0.4
# H atom positions have been added when not included in the experimental data
#
###############################################################################

data_REGRIG
_chemical_formula_moiety         '(C224 H224 N32 O120 Zn24)n'
_symmetry_cell_setting           triclinic
_symmetry_space_group_name_H-M   'P 1'
_symmetry_Int_Tables_number      1
_space_group_name_Hall           'P 1'
loop_
_symmetry_equiv_pos_site_id
_symmetry_equiv_pos_as_xyz
1 x,y,z
_cell_length_a                   31.171(12)
_cell_length_b                   12.186(4)
_cell_length_c                   27.629(11)
_cell_angle_alpha                90
_cell_angle_beta                 108.264(4)
_cell_angle_gamma                90
_cell_volume                     9966.17
loop_
_atom_site_label
_atom_site_type_symbol
_atom_site_fract_x
_atom_site_fract_y
_atom_site_fract_z
C27 C 0.0093(7) 0.6771(12) 0.1709(8)
C28 C 0.0646(5) 0.5242(18) 0.1836(13)
N4 N 0.0183(4) 0.5695(8) 0.1774(6)
O19 O 0.03883(12) 0.2164(3) 0.20057(16)
H14 H 0.0661833 0.495651 0.146849
H15 H 0.089739 0.588211 0.198064
H16 H 0.0714023 0.455937 0.210376
H17 H 0.026737 0.724787 0.204673
H18 H 0.0172695 0.710093 0.138096
Zn3 Zn 0.974710(19) 0.25956(5) 0.17961(2)
O3 O 0.93396(14) 0.1811(4) 0.11915(15)
O4 O 0.94416(19) 0.0746(5) 0.18693(17)
O15 O 0.9852(2) 0.4043(4) 0.1528(3)
C2 C 0.87154(17) 0.0344(4) 0.05460(18)
H1 H 0.8814 0.0923 0.0389
C3 C 0.89137(17) 0.0172(4) 0.10750(18)
C8 C 0.92505(18) 0.0940(5) 0.1390(2)
C24 C 0.9840(3) 0.5048(7) 0.1605(4)
C25 C 0.8995(5) 0.5189(15) 0.1295(6)
C26 C 0.9525(7) 0.6700(11) 0.1609(7)
N3 N 0.9462(4) 0.5631(7) 0.1561(4)
O20 O 0.94276(13) 0.3113(3) 0.22591(16)
H19 H 0.933487 0.713454 0.126406
H20 H 0.943511 0.702142 0.193216
H24 H 0.894076 0.44452 0.148643
H25 H 0.874396 0.580123 0.130676
H26 H 0.896338 0.50017 0.0899915
Zn2 Zn 0.820409(19) 0.08830(5) 0.87540(2)
O2 O 0.83426(15) 0.0583(3) 0.94910(13)
O7 O 0.70821(13) 0.0300(3) 0.84325(14)
O8 O 0.76396(12) 0.0898(3) 0.81492(14)
O9 O 0.73033(13) 0.3306(4) 0.66616(14)
O10 O 0.66540(14) 0.4294(3) 0.64303(15)
O11 O 0.53883(12) 0.2836(3) 0.70057(16)
O12 O 0.55724(13) 0.1887(3) 0.77409(16)
O13 O 0.8031(2) 0.2478(3) 0.88821(19)
O14 O 0.87674(15) 0.1398(4) 0.8639(2)
C10 C 0.69050(15) 0.1561(4) 0.77460(17)
C11 C 0.70535(17) 0.2178(4) 0.73911(18)
H4 H 0.7352 0.2130 0.7392
C12 C 0.67492(16) 0.2849(4) 0.70443(19)
C13 C 0.63002(16) 0.2919(4) 0.70339(19)
H5 H 0.6099 0.3376 0.6800
C14 C 0.61540(16) 0.2296(4) 0.73790(18)
C15 C 0.64551(15) 0.1645(4) 0.77363(17)
H6 H 0.6358 0.1258 0.7973
C16 C 0.72345(17) 0.0868(4) 0.81372(18)
C17 C 0.69125(16) 0.3532(4) 0.66836(17)
C18 C 0.56698(17) 0.2365(4) 0.7381(2)
C19 C 0.7753(2) 0.3181(5) 0.8652(3)
C20 C 0.7186(5) 0.2890(10) 0.9094(6)
C21 C 0.7104(4) 0.4279(8) 0.8367(4)
C22 C 0.7438(4) 0.4637(6) 0.8105(4)
C23 C 0.8181(4) 0.3847(9) 0.8079(5)
N1 N 0.7364(3) 0.3492(7) 0.8742(3)
N2 N 0.7801(3) 0.3838(6) 0.8258(3)
Zn5 Zn 0.760514(18) 0.39800(4) 0.621129(19)
Zn6 Zn 0.679591(19) 0.58830(5) 0.62460(2)
Zn7 Zn 0.474710(19) 0.24044(5) 0.67961(2)
Zn8 Zn 0.525290(19) 0.24044(5) 0.82039(2)
H7 H 0.900271 0.082036 0.874876
H8 H 0.870746 0.155515 0.827105
H9 H 0.756447 0.545685 0.822871
H10 H 0.728219 0.463098 0.769286
H11 H 0.822787 0.303301 0.794085
H12 H 0.812536 0.443806 0.776977
H13 H 0.84813 0.407684 0.838905
H21 H 0.743376 0.289744 0.947295
H22 H 0.687525 0.327762 0.910778
H23 H 0.711617 0.204576 0.896392
H27 H 0.680952 0.389263 0.809924
H28 H 0.69962 0.49695 0.855085
O5 O 0.8405(2) 0.7525(5) 0.17182(18)
O6 O 0.79523(15) 0.7037(3) 0.09542(15)
C1 C 0.83786(16) 0.9666(4) 0.02597(17)
C4 C 0.87742(18) 0.9248(4) 0.12982(18)
H2 H 0.8912 0.9097 0.1642
C5 C 0.84321(17) 0.8561(4) 0.10085(18)
C6 C 0.82330(18) 0.8781(4) 0.04818(18)
H3 H 0.8004 0.8330 0.0285
C9 C 0.8257(2) 0.7629(5) 0.1262(2)
Zn4 Zn 0.760514(18) 0.60200(4) 0.121129(19)
Zn1 Zn 0.739486(18) 0.89800(4) 0.878871(19)
O1 O 0.78171(14) 0.9315(4) 0.94734(14)
C7 C 0.81655(18) 0.9867(4) 0.96952(17)
O16 O 0.70477(15) 0.7963(3) 0.90458(15)
O17 O 0.76967(13) 0.8306(4) 0.83384(14)
O18 O 0.83460(14) 0.9294(3) 0.85697(15)
Zn2_2 Zn 0.179591(19) 0.08830(5) 0.62460(2)
Zn3_2 Zn 0.025290(19) 0.25956(5) 0.32039(2)
O2_2 O 0.16574(15) 0.0583(3) 0.55090(13)
O3_2 O 0.06604(14) 0.1811(4) 0.38085(15)
O4_2 O 0.05584(19) 0.0746(5) 0.31307(17)
O7_2 O 0.29179(13) 0.0300(3) 0.65675(14)
O8_2 O 0.23604(12) 0.0898(3) 0.68508(14)
O9_2 O 0.26967(13) 0.3306(4) 0.83384(14)
O10_2 O 0.33460(14) 0.4294(3) 0.85697(15)
O11_2 O 0.46117(12) 0.2836(3) 0.79943(16)
O12_2 O 0.44276(13) 0.1887(3) 0.72591(16)
O13_2 O 0.1969(2) 0.2478(3) 0.61179(19)
O14_2 O 0.12326(15) 0.1398(4) 0.6361(2)
O15_2 O 0.0148(2) 0.4043(4) 0.3472(3)
C2_2 C 0.12846(17) 0.0344(4) 0.44540(18)
H1_2 H 0.1186 0.0923 0.4611
C3_2 C 0.10863(17) 0.0172(4) 0.39250(18)
C8_2 C 0.07495(18) 0.0940(5) 0.3610(2)
C10_2 C 0.30950(15) 0.1561(4) 0.72540(17)
C11_2 C 0.29465(17) 0.2178(4) 0.76089(18)
H4_2 H 0.2648 0.2130 0.7608
C12_2 C 0.32508(16) 0.2849(4) 0.79557(19)
C13_2 C 0.36998(16) 0.2919(4) 0.79661(19)
H5_2 H 0.3901 0.3376 0.8200
C14_2 C 0.38460(16) 0.2296(4) 0.76210(18)
C15_2 C 0.35449(15) 0.1645(4) 0.72637(17)
H6_2 H 0.3642 0.1258 0.7027
C16_2 C 0.27655(17) 0.0868(4) 0.68628(18)
C17_2 C 0.30875(16) 0.3532(4) 0.83164(17)
C18_2 C 0.43302(17) 0.2365(4) 0.7619(2)
C19_2 C 0.2247(2) 0.3181(5) 0.6348(3)
C20_2 C 0.2814(5) 0.2890(10) 0.5906(6)
C21_2 C 0.2896(4) 0.4279(8) 0.6633(4)
C22_2 C 0.2562(4) 0.4637(6) 0.6895(4)
C23_2 C 0.1819(4) 0.3847(9) 0.6921(5)
C24_2 C 0.0160(3) 0.5048(7) 0.3395(4)
C25_2 C 0.1005(5) 0.5189(15) 0.3705(6)
C26_2 C 0.0475(7) 0.6700(11) 0.3391(7)
N1_2 N 0.2636(3) 0.3492(7) 0.6258(3)
N2_2 N 0.2199(3) 0.3838(6) 0.6742(3)
N3_2 N 0.0538(4) 0.5631(7) 0.3439(4)
Zn5_2 Zn 0.239486(18) 0.39800(4) 0.878871(19)
Zn6_2 Zn 0.320409(19) 0.58830(5) 0.87540(2)
O20_2 O 0.05724(13) 0.3113(3) 0.27409(16)
H7_2 H 0.0997287 0.082036 0.625124
H8_2 H 0.129254 0.155515 0.672895
H9_2 H 0.243553 0.545685 0.677129
H10_2 H 0.271781 0.463098 0.730714
H11_2 H 0.177213 0.303301 0.705915
H12_2 H 0.187464 0.443806 0.723023
H13_2 H 0.15187 0.407684 0.661095
H19_2 H 0.0665132 0.713454 0.373594
H20_2 H 0.0564892 0.702142 0.306784
H21_2 H 0.256624 0.289744 0.552705
H22_2 H 0.312475 0.327762 0.589222
H23_2 H 0.288383 0.204576 0.603608
H24_2 H 0.105924 0.44452 0.351357
H25_2 H 0.125604 0.580123 0.369324
H26_2 H 0.103662 0.50017 0.410009
H27_2 H 0.319048 0.389263 0.690076
H28_2 H 0.30038 0.49695 0.644915
Zn1_2 Zn 0.260514(18) 0.89800(4) 0.621129(19)
O1_2 O 0.21829(14) 0.9315(4) 0.55266(14)
O5_2 O 0.1595(2) 0.7525(5) 0.32818(18)
O6_2 O 0.20477(15) 0.7037(3) 0.40458(15)
C1_2 C 0.16214(16) 0.9666(4) 0.47403(17)
C4_2 C 0.12258(18) 0.9248(4) 0.37018(18)
H2_2 H 0.1088 0.9097 0.3358
C5_2 C 0.15679(17) 0.8561(4) 0.39915(18)
C6_2 C 0.17670(18) 0.8781(4) 0.45182(18)
H3_2 H 0.1996 0.8330 0.4715
C7_2 C 0.18345(18) 0.9867(4) 0.53048(17)
C9_2 C 0.1743(2) 0.7629(5) 0.3738(2)
Zn4_2 Zn 0.239486(18) 0.60200(4) 0.378871(19)
O16_2 O 0.29523(15) 0.7963(3) 0.59542(15)
O17_2 O 0.23033(13) 0.8306(4) 0.66616(14)
O18_2 O 0.16540(14) 0.9294(3) 0.64303(15)
C27_2 C 0.9907(7) 0.6771(12) 0.3291(8)
C28_2 C 0.9354(5) 0.5242(18) 0.3164(13)
N4_2 N 0.9817(4) 0.5695(8) 0.3226(6)
O19_2 O 0.96117(12) 0.2164(3) 0.29943(16)
H14_2 H 0.933817 0.495651 0.353151
H15_2 H 0.910261 0.588211 0.301936
H16_2 H 0.928598 0.455937 0.289624
H17_2 H 0.973263 0.724787 0.295327
H18_2 H 0.98273 0.710093 0.361904
H9_3 H 0.256447 0.0456848 0.822871
Zn3_3 Zn 0.474710(19) 0.75956(5) 0.17961(2)
O3_3 O 0.43396(14) 0.6811(4) 0.11915(15)
O4_3 O 0.44416(19) 0.5746(5) 0.18693(17)
O5_3 O 0.3405(2) 0.2525(5) 0.17182(18)
O6_3 O 0.29523(15) 0.2037(3) 0.09542(15)
O15_3 O 0.4852(2) 0.9043(4) 0.1528(3)
C1_3 C 0.33786(16) 0.4666(4) 0.02597(17)
C2_3 C 0.37154(17) 0.5344(4) 0.05460(18)
H1_3 H 0.3814 0.5923 0.0389
C3_3 C 0.39137(17) 0.5172(4) 0.10750(18)
C4_3 C 0.37742(18) 0.4248(4) 0.12982(18)
H2_3 H 0.3912 0.4097 0.1642
C5_3 C 0.34321(17) 0.3561(4) 0.10085(18)
C6_3 C 0.32330(18) 0.3781(4) 0.04818(18)
H3_3 H 0.3004 0.3330 0.0285
C8_3 C 0.42505(18) 0.5940(5) 0.1390(2)
C9_3 C 0.3257(2) 0.2629(5) 0.1262(2)
Zn4_3 Zn 0.260514(18) 0.10200(4) 0.121129(19)
O19_3 O 0.53883(12) 0.7164(3) 0.20057(16)
O20_3 O 0.44276(13) 0.8113(3) 0.22591(16)
H14_3 H 0.566183 0.995651 0.146849
H16_3 H 0.571402 0.955937 0.210376
H24_3 H 0.394076 0.94452 0.148643
O1_3 O 0.28171(14) 0.4315(4) 0.94734(14)
O2_3 O 0.33426(15) 0.5583(3) 0.94910(13)
O7_3 O 0.20821(13) 0.5300(3) 0.84325(14)
O8_3 O 0.26396(12) 0.5898(3) 0.81492(14)
O11_3 O 0.03883(12) 0.7836(3) 0.70057(16)
O12_3 O 0.05724(13) 0.6887(3) 0.77409(16)
O13_3 O 0.3031(2) 0.7478(3) 0.88821(19)
O14_3 O 0.37674(15) 0.6398(4) 0.8639(2)
C7_3 C 0.31655(18) 0.4867(4) 0.96952(17)
C10_3 C 0.19050(15) 0.6561(4) 0.77460(17)
C11_3 C 0.20535(17) 0.7178(4) 0.73911(18)
H4_3 H 0.2352 0.7130 0.7392
C12_3 C 0.17492(16) 0.7849(4) 0.70443(19)
C13_3 C 0.13002(16) 0.7919(4) 0.70339(19)
H5_3 H 0.1099 0.8376 0.6800
C14_3 C 0.11540(16) 0.7296(4) 0.73790(18)
C15_3 C 0.14551(15) 0.6645(4) 0.77363(17)
H6_3 H 0.1358 0.6258 0.7973
C16_3 C 0.22345(17) 0.5868(4) 0.81372(18)
C17_3 C 0.19125(16) 0.8532(4) 0.66836(17)
C18_3 C 0.06698(17) 0.7365(4) 0.7381(2)
C19_3 C 0.2753(2) 0.8181(5) 0.8652(3)
C20_3 C 0.2186(5) 0.7890(10) 0.9094(6)
C21_3 C 0.2104(4) 0.9279(8) 0.8367(4)
C22_3 C 0.2438(4) 0.9637(6) 0.8105(4)
C23_3 C 0.3181(4) 0.8847(9) 0.8079(5)
N1_3 N 0.2364(3) 0.8492(7) 0.8742(3)
N2_3 N 0.2801(3) 0.8838(6) 0.8258(3)
Zn8_2 Zn 0.025290(19) 0.74044(5) 0.82039(2)
O16_3 O 0.20477(15) 0.2963(3) 0.90458(15)
H7_3 H 0.400271 0.582036 0.874876
H8_3 H 0.370746 0.655515 0.827105
H10_3 H 0.228219 0.963098 0.769286
H11_3 H 0.322787 0.803301 0.794085
H12_3 H 0.312536 0.943806 0.776977
H13_3 H 0.34813 0.907684 0.838905
H21_3 H 0.243376 0.789744 0.947295
H22_3 H 0.187525 0.827762 0.910778
H23_3 H 0.211617 0.704576 0.896392
H27_3 H 0.180952 0.889263 0.809924
H28_3 H 0.19962 0.99695 0.855085
Zn7_2 Zn 0.974710(19) 0.74044(5) 0.67961(2)
C24_3 C 0.5160(3) 0.0048(7) 0.3395(4)
C25_3 C 0.6005(5) 0.0189(15) 0.3705(6)
C26_3 C 0.5475(7) 0.1700(11) 0.3391(7)
C27_3 C 0.4907(7) 0.1771(12) 0.3291(8)
C28_3 C 0.4354(5) 0.0242(18) 0.3164(13)
N3_3 N 0.5538(4) 0.0631(7) 0.3439(4)
N4_3 N 0.4817(4) 0.0695(8) 0.3226(6)
H9_4 H 0.743553 0.0456848 0.677129
H15_3 H 0.410261 0.0882109 0.301936
H17_3 H 0.473263 0.224787 0.295327
H18_3 H 0.48273 0.210093 0.361904
H19_3 H 0.566513 0.213454 0.373594
H20_3 H 0.556489 0.202142 0.306784
H25_3 H 0.625604 0.0801228 0.369324
H26_3 H 0.603662 0.000170208 0.410009
Zn3_4 Zn 0.525290(19) 0.75956(5) 0.32039(2)
O1_4 O 0.71829(14) 0.4315(4) 0.55266(14)
O2_4 O 0.66574(15) 0.5583(3) 0.55090(13)
O3_4 O 0.56604(14) 0.6811(4) 0.38085(15)
O4_4 O 0.55584(19) 0.5746(5) 0.31307(17)
O5_4 O 0.6595(2) 0.2525(5) 0.32818(18)
O6_4 O 0.70477(15) 0.2037(3) 0.40458(15)
O7_4 O 0.79179(13) 0.5300(3) 0.65675(14)
O8_4 O 0.73604(12) 0.5898(3) 0.68508(14)
O11_4 O 0.96117(12) 0.7836(3) 0.79943(16)
O12_4 O 0.94276(13) 0.6887(3) 0.72591(16)
O13_4 O 0.6969(2) 0.7478(3) 0.61179(19)
O14_4 O 0.62326(15) 0.6398(4) 0.6361(2)
O15_4 O 0.5148(2) 0.9043(4) 0.3472(3)
C1_4 C 0.66214(16) 0.4666(4) 0.47403(17)
C2_4 C 0.62846(17) 0.5344(4) 0.44540(18)
H1_4 H 0.6186 0.5923 0.4611
C3_4 C 0.60863(17) 0.5172(4) 0.39250(18)
C4_4 C 0.62258(18) 0.4248(4) 0.37018(18)
H2_4 H 0.6088 0.4097 0.3358
C5_4 C 0.65679(17) 0.3561(4) 0.39915(18)
C6_4 C 0.67670(18) 0.3781(4) 0.45182(18)
H3_4 H 0.6996 0.3330 0.4715
C7_4 C 0.68345(18) 0.4867(4) 0.53048(17)
C8_4 C 0.57495(18) 0.5940(5) 0.3610(2)
C9_4 C 0.6743(2) 0.2629(5) 0.3738(2)
C10_4 C 0.80950(15) 0.6561(4) 0.72540(17)
C11_4 C 0.79465(17) 0.7178(4) 0.76089(18)
H4_4 H 0.7648 0.7130 0.7608
C12_4 C 0.82508(16) 0.7849(4) 0.79557(19)
C13_4 C 0.86998(16) 0.7919(4) 0.79661(19)
H5_4 H 0.8901 0.8376 0.8200
C14_4 C 0.88460(16) 0.7296(4) 0.76210(18)
C15_4 C 0.85449(15) 0.6645(4) 0.72637(17)
H6_4 H 0.8642 0.6258 0.7027
C16_4 C 0.77655(17) 0.5868(4) 0.68628(18)
C17_4 C 0.80875(16) 0.8532(4) 0.83164(17)
C18_4 C 0.93302(17) 0.7365(4) 0.7619(2)
C19_4 C 0.7247(2) 0.8181(5) 0.6348(3)
C20_4 C 0.7814(5) 0.7890(10) 0.5906(6)
C21_4 C 0.7896(4) 0.9279(8) 0.6633(4)
C22_4 C 0.7562(4) 0.9637(6) 0.6895(4)
C23_4 C 0.6819(4) 0.8847(9) 0.6921(5)
N1_4 N 0.7636(3) 0.8492(7) 0.6258(3)
N2_4 N 0.7199(3) 0.8838(6) 0.6742(3)
Zn4_4 Zn 0.739486(18) 0.10200(4) 0.378871(19)
O16_4 O 0.79523(15) 0.2963(3) 0.59542(15)
O19_4 O 0.46117(12) 0.7164(3) 0.29943(16)
O20_4 O 0.55724(13) 0.8113(3) 0.27409(16)
H7_4 H 0.599729 0.582036 0.625124
H8_4 H 0.629254 0.655515 0.672895
H10_4 H 0.771781 0.963098 0.730714
H11_4 H 0.677213 0.803301 0.705915
H12_4 H 0.687464 0.943806 0.723023
H13_4 H 0.65187 0.907684 0.661095
H14_4 H 0.433817 0.995651 0.353151
H16_4 H 0.428598 0.955937 0.289624
H21_4 H 0.756624 0.789744 0.552705
H22_4 H 0.812475 0.827762 0.589222
H23_4 H 0.788383 0.704576 0.603608
H24_4 H 0.605924 0.94452 0.351357
H27_4 H 0.819048 0.889263 0.690076
H28_4 H 0.80038 0.99695 0.644915
O1_5 O 0.21829(14) 0.0685(4) 0.05266(14)
C7_5 C 0.18345(18) 0.0133(4) 0.03048(17)
O17_3 O 0.23033(13) 0.1694(4) 0.16616(14)
O18_3 O 0.16540(14) 0.0706(3) 0.14303(15)
O5_5 O 0.1595(2) 0.2475(5) 0.82818(18)
C1_5 C 0.16214(16) 0.0334(4) 0.97403(17)
C4_5 C 0.12258(18) 0.0752(4) 0.87018(18)
H2_5 H 0.1088 0.0903 0.8358
C5_5 C 0.15679(17) 0.1439(4) 0.89915(18)
C6_5 C 0.17670(18) 0.1219(4) 0.95182(18)
H3_5 H 0.1996 0.1670 0.9715
C9_5 C 0.1743(2) 0.2371(5) 0.8738(2)
Zn2_3 Zn 0.179591(19) 0.91170(5) 0.12460(2)
O2_5 O 0.16574(15) 0.9417(3) 0.05090(13)
O7_5 O 0.29179(13) 0.9700(3) 0.15675(14)
O8_5 O 0.23604(12) 0.9102(3) 0.18508(14)
O9_3 O 0.26967(13) 0.6694(4) 0.33384(14)
O10_3 O 0.33460(14) 0.5706(3) 0.35697(15)
O13_5 O 0.1969(2) 0.7522(3) 0.11179(19)
O14_5 O 0.12326(15) 0.8602(4) 0.1361(2)
C10_5 C 0.30950(15) 0.8439(4) 0.22540(17)
C11_5 C 0.29465(17) 0.7822(4) 0.26089(18)
H4_5 H 0.2648 0.7870 0.2608
C12_5 C 0.32508(16) 0.7151(4) 0.29557(19)
C13_5 C 0.36998(16) 0.7081(4) 0.29661(19)
H5_5 H 0.3901 0.6624 0.3200
C14_5 C 0.38460(16) 0.7704(4) 0.26210(18)
C15_5 C 0.35449(15) 0.8355(4) 0.22637(17)
H6_5 H 0.3642 0.8742 0.2027
C16_5 C 0.27655(17) 0.9132(4) 0.18628(18)
C17_5 C 0.30875(16) 0.6468(4) 0.33164(17)
C18_5 C 0.43302(17) 0.7635(4) 0.2619(2)
C19_5 C 0.2247(2) 0.6819(5) 0.1348(3)
C20_5 C 0.2814(5) 0.7110(10) 0.0906(6)
C21_5 C 0.2896(4) 0.5721(8) 0.1633(4)
C22_5 C 0.2562(4) 0.5363(6) 0.1895(4)
C23_5 C 0.1819(4) 0.6153(9) 0.1921(5)
N1_5 N 0.2636(3) 0.6508(7) 0.1258(3)
N2_5 N 0.2199(3) 0.6162(6) 0.1742(3)
Zn6_3 Zn 0.320409(19) 0.41170(5) 0.37540(2)
H7_5 H 0.0997287 0.917964 0.125124
H8_5 H 0.129254 0.844485 0.172895
H9_5 H 0.243553 0.454315 0.177129
H10_5 H 0.271781 0.536902 0.230714
H11_5 H 0.177213 0.696699 0.205915
H12_5 H 0.187464 0.556194 0.223023
H13_5 H 0.15187 0.592316 0.161095
H21_5 H 0.256624 0.710256 0.0527046
H22_5 H 0.312475 0.672238 0.0892224
H23_5 H 0.288383 0.795424 0.103608
H27_5 H 0.319048 0.610737 0.190076
H28_5 H 0.30038 0.50305 0.144915
O3_5 O 0.06604(14) 0.8189(4) 0.88085(15)
O4_5 O 0.05584(19) 0.9254(5) 0.81307(17)
O15_5 O 0.0148(2) 0.5957(4) 0.8472(3)
C2_5 C 0.12846(17) 0.9656(4) 0.94540(18)
H1_5 H 0.1186 0.9077 0.9611
C3_5 C 0.10863(17) 0.9828(4) 0.89250(18)
C8_5 C 0.07495(18) 0.9060(5) 0.8610(2)
C24_4 C 0.0160(3) 0.4952(7) 0.8395(4)
C25_4 C 0.1005(5) 0.4811(15) 0.8705(6)
C26_4 C 0.0475(7) 0.3300(11) 0.8391(7)
N3_4 N 0.0538(4) 0.4369(7) 0.8439(4)
H19_4 H 0.0665132 0.286546 0.873594
H20_4 H 0.0564892 0.297858 0.806784
H24_5 H 0.105924 0.55548 0.851357
H25_4 H 0.125604 0.419877 0.869324
H26_4 H 0.103662 0.49983 0.910009
C27_4 C 0.9907(7) 0.3229(12) 0.8291(8)
C28_4 C 0.9354(5) 0.4758(18) 0.8164(13)
N4_4 N 0.9817(4) 0.4305(8) 0.8226(6)
H14_5 H 0.933817 0.504349 0.853151
H15_4 H 0.910261 0.411789 0.801936
H16_5 H 0.928598 0.544063 0.789624
H17_4 H 0.973263 0.275213 0.795327
H18_4 H 0.98273 0.289907 0.861904
C27_5 C 0.0093(7) 0.3229(12) 0.6709(8)
C28_5 C 0.0646(5) 0.4758(18) 0.6836(13)
N4_5 N 0.0183(4) 0.4305(8) 0.6774(6)
H14_6 H 0.0661833 0.504349 0.646849
H15_5 H 0.089739 0.411789 0.698064
H16_6 H 0.0714023 0.544063 0.710376
H17_5 H 0.026737 0.275213 0.704673
H18_5 H 0.0172695 0.289907 0.638096
O1_6 O 0.78171(14) 0.0685(4) 0.44734(14)
O5_6 O 0.8405(2) 0.2475(5) 0.67182(18)
C1_6 C 0.83786(16) 0.0334(4) 0.52597(17)
C4_6 C 0.87742(18) 0.0752(4) 0.62982(18)
H2_6 H 0.8912 0.0903 0.6642
C5_6 C 0.84321(17) 0.1439(4) 0.60085(18)
C6_6 C 0.82330(18) 0.1219(4) 0.54818(18)
H3_6 H 0.8004 0.1670 0.5285
C7_6 C 0.81655(18) 0.0133(4) 0.46952(17)
C9_6 C 0.8257(2) 0.2371(5) 0.6262(2)
O17_4 O 0.76967(13) 0.1694(4) 0.33384(14)
O18_4 O 0.83460(14) 0.0706(3) 0.35697(15)
Zn2_4 Zn 0.820409(19) 0.91170(5) 0.37540(2)
O2_6 O 0.83426(15) 0.9417(3) 0.44910(13)
O3_6 O 0.93396(14) 0.8189(4) 0.61915(15)
O4_6 O 0.94416(19) 0.9254(5) 0.68693(17)
O7_6 O 0.70821(13) 0.9700(3) 0.34325(14)
O8_6 O 0.76396(12) 0.9102(3) 0.31492(14)
O9_4 O 0.73033(13) 0.6694(4) 0.16616(14)
O10_4 O 0.66540(14) 0.5706(3) 0.14303(15)
O13_6 O 0.8031(2) 0.7522(3) 0.38821(19)
O14_6 O 0.87674(15) 0.8602(4) 0.3639(2)
O15_6 O 0.9852(2) 0.5957(4) 0.6528(3)
C2_6 C 0.87154(17) 0.9656(4) 0.55460(18)
H1_6 H 0.8814 0.9077 0.5389
C3_6 C 0.89137(17) 0.9828(4) 0.60750(18)
C8_6 C 0.92505(18) 0.9060(5) 0.6390(2)
C10_6 C 0.69050(15) 0.8439(4) 0.27460(17)
C11_6 C 0.70535(17) 0.7822(4) 0.23911(18)
H4_6 H 0.7352 0.7870 0.2392
C12_6 C 0.67492(16) 0.7151(4) 0.20443(19)
C13_6 C 0.63002(16) 0.7081(4) 0.20339(19)
H5_6 H 0.6099 0.6624 0.1800
C14_6 C 0.61540(16) 0.7704(4) 0.23790(18)
C15_6 C 0.64551(15) 0.8355(4) 0.27363(17)
H6_6 H 0.6358 0.8742 0.2973
C16_6 C 0.72345(17) 0.9132(4) 0.31372(18)
C17_6 C 0.69125(16) 0.6468(4) 0.16836(17)
C18_6 C 0.56698(17) 0.7635(4) 0.2381(2)
C19_6 C 0.7753(2) 0.6819(5) 0.3652(3)
C20_6 C 0.7186(5) 0.7110(10) 0.4094(6)
C21_6 C 0.7104(4) 0.5721(8) 0.3367(4)
C22_6 C 0.7438(4) 0.5363(6) 0.3105(4)
C23_6 C 0.8181(4) 0.6153(9) 0.3079(5)
C24_5 C 0.9840(3) 0.4952(7) 0.6605(4)
C25_5 C 0.8995(5) 0.4811(15) 0.6295(6)
C26_5 C 0.9525(7) 0.3300(11) 0.6609(7)
N1_6 N 0.7364(3) 0.6508(7) 0.3742(3)
N2_6 N 0.7801(3) 0.6162(6) 0.3258(3)
N3_5 N 0.9462(4) 0.4369(7) 0.6561(4)
Zn6_4 Zn 0.679591(19) 0.41170(5) 0.12460(2)
H7_6 H 0.900271 0.917964 0.374876
H8_6 H 0.870746 0.844485 0.327105
H9_6 H 0.756447 0.454315 0.322871
H10_6 H 0.728219 0.536902 0.269286
H11_6 H 0.822787 0.696699 0.294085
H12_6 H 0.812536 0.556194 0.276977
H13_6 H 0.84813 0.592316 0.338905
H19_5 H 0.933487 0.286546 0.626406
H20_5 H 0.943511 0.297858 0.693216
H21_6 H 0.743376 0.710256 0.447295
H22_6 H 0.687525 0.672238 0.410778
H23_6 H 0.711617 0.795424 0.396392
H24_6 H 0.894076 0.55548 0.648643
H25_5 H 0.874396 0.419877 0.630676
H26_5 H 0.896338 0.49983 0.589991
H27_6 H 0.680952 0.610737 0.309924
H28_6 H 0.69962 0.50305 0.355085
O1_7 O 0.71829(14) 0.5685(4) 0.05266(14)
O2_7 O 0.66574(15) 0.4417(3) 0.05090(13)
O7_7 O 0.79179(13) 0.4700(3) 0.15675(14)
O8_7 O 0.73604(12) 0.4102(3) 0.18508(14)
O13_7 O 0.6969(2) 0.2522(3) 0.11179(19)
O14_7 O 0.62326(15) 0.3602(4) 0.1361(2)
C7_7 C 0.68345(18) 0.5133(4) 0.03048(17)
C10_7 C 0.80950(15) 0.3439(4) 0.22540(17)
C11_7 C 0.79465(17) 0.2822(4) 0.26089(18)
H4_7 H 0.7648 0.2870 0.2608
C12_7 C 0.82508(16) 0.2151(4) 0.29557(19)
C13_7 C 0.86998(16) 0.2081(4) 0.29661(19)
H5_7 H 0.8901 0.1624 0.3200
C14_7 C 0.88460(16) 0.2704(4) 0.26210(18)
C15_7 C 0.85449(15) 0.3355(4) 0.22637(17)
H6_7 H 0.8642 0.3742 0.2027
C16_7 C 0.77655(17) 0.4132(4) 0.18628(18)
C17_7 C 0.80875(16) 0.1468(4) 0.33164(17)
C18_7 C 0.93302(17) 0.2635(4) 0.2619(2)
C19_7 C 0.7247(2) 0.1819(5) 0.1348(3)
C20_7 C 0.7814(5) 0.2110(10) 0.0906(6)
C21_7 C 0.7896(4) 0.0721(8) 0.1633(4)
C22_7 C 0.7562(4) 0.0363(6) 0.1895(4)
C23_7 C 0.6819(4) 0.1153(9) 0.1921(5)
N1_7 N 0.7636(3) 0.1508(7) 0.1258(3)
N2_7 N 0.7199(3) 0.1162(6) 0.1742(3)
H7_7 H 0.599729 0.417964 0.125124
H8_7 H 0.629254 0.344485 0.172895
H10_7 H 0.771781 0.0369025 0.230714
H11_7 H 0.677213 0.196699 0.205915
H12_7 H 0.687464 0.0561944 0.223023
H13_7 H 0.65187 0.0923157 0.161095
H21_7 H 0.756624 0.210256 0.0527046
H22_7 H 0.812475 0.172238 0.0892224
H23_7 H 0.788383 0.295424 0.103608
H27_7 H 0.819048 0.110737 0.190076
H28_7 H 0.80038 0.00305022 0.144915
O3_7 O 0.56604(14) 0.3189(4) 0.88085(15)
O4_7 O 0.55584(19) 0.4254(5) 0.81307(17)
O5_7 O 0.6595(2) 0.7475(5) 0.82818(18)
O15_7 O 0.5148(2) 0.0957(4) 0.8472(3)
C1_7 C 0.66214(16) 0.5334(4) 0.97403(17)
C2_7 C 0.62846(17) 0.4656(4) 0.94540(18)
H1_7 H 0.6186 0.4077 0.9611
C3_7 C 0.60863(17) 0.4828(4) 0.89250(18)
C4_7 C 0.62258(18) 0.5752(4) 0.87018(18)
H2_7 H 0.6088 0.5903 0.8358
C5_7 C 0.65679(17) 0.6439(4) 0.89915(18)
C6_7 C 0.67670(18) 0.6219(4) 0.95182(18)
H3_7 H 0.6996 0.6670 0.9715
C8_7 C 0.57495(18) 0.4060(5) 0.8610(2)
C9_7 C 0.6743(2) 0.7371(5) 0.8738(2)
H14_7 H 0.433817 0.00434863 0.853151
H16_7 H 0.428598 0.0440628 0.789624
H24_7 H 0.605924 0.0554795 0.851357
H9_7 H 0.743553 0.954315 0.177129
O1_8 O 0.28171(14) 0.5685(4) 0.44734(14)
O2_8 O 0.33426(15) 0.4417(3) 0.44910(13)
O3_8 O 0.43396(14) 0.3189(4) 0.61915(15)
O4_8 O 0.44416(19) 0.4254(5) 0.68693(17)
O5_8 O 0.3405(2) 0.7475(5) 0.67182(18)
O7_8 O 0.20821(13) 0.4700(3) 0.34325(14)
O8_8 O 0.26396(12) 0.4102(3) 0.31492(14)
O13_8 O 0.3031(2) 0.2522(3) 0.38821(19)
O14_8 O 0.37674(15) 0.3602(4) 0.3639(2)
O15_8 O 0.4852(2) 0.0957(4) 0.6528(3)
C1_8 C 0.33786(16) 0.5334(4) 0.52597(17)
C2_8 C 0.37154(17) 0.4656(4) 0.55460(18)
H1_8 H 0.3814 0.4077 0.5389
C3_8 C 0.39137(17) 0.4828(4) 0.60750(18)
C4_8 C 0.37742(18) 0.5752(4) 0.62982(18)
H2_8 H 0.3912 0.5903 0.6642
C5_8 C 0.34321(17) 0.6439(4) 0.60085(18)
C6_8 C 0.32330(18) 0.6219(4) 0.54818(18)
H3_8 H 0.3004 0.6670 0.5285
C7_8 C 0.31655(18) 0.5133(4) 0.46952(17)
C8_8 C 0.42505(18) 0.4060(5) 0.6390(2)
C9_8 C 0.3257(2) 0.7371(5) 0.6262(2)
C10_8 C 0.19050(15) 0.3439(4) 0.27460(17)
C11_8 C 0.20535(17) 0.2822(4) 0.23911(18)
H4_8 H 0.2352 0.2870 0.2392
C12_8 C 0.17492(16) 0.2151(4) 0.20443(19)
C13_8 C 0.13002(16) 0.2081(4) 0.20339(19)
H5_8 H 0.1099 0.1624 0.1800
C14_8 C 0.11540(16) 0.2704(4) 0.23790(18)
C15_8 C 0.14551(15) 0.3355(4) 0.27363(17)
H6_8 H 0.1358 0.3742 0.2973
C16_8 C 0.22345(17) 0.4132(4) 0.31372(18)
C17_8 C 0.19125(16) 0.1468(4) 0.16836(17)
C18_8 C 0.06698(17) 0.2635(4) 0.2381(2)
C19_8 C 0.2753(2) 0.1819(5) 0.3652(3)
C20_8 C 0.2186(5) 0.2110(10) 0.4094(6)
C21_8 C 0.2104(4) 0.0721(8) 0.3367(4)
C22_8 C 0.2438(4) 0.0363(6) 0.3105(4)
C23_8 C 0.3181(4) 0.1153(9) 0.3079(5)
N1_8 N 0.2364(3) 0.1508(7) 0.3742(3)
N2_8 N 0.2801(3) 0.1162(6) 0.3258(3)
H7_8 H 0.400271 0.417964 0.374876
H8_8 H 0.370746 0.344485 0.327105
H10_8 H 0.228219 0.0369025 0.269286
H11_8 H 0.322787 0.196699 0.294085
H12_8 H 0.312536 0.0561944 0.276977
H13_8 H 0.34813 0.0923157 0.338905
H14_8 H 0.566183 0.00434863 0.646849
H16_8 H 0.571402 0.0440628 0.710376
H21_8 H 0.243376 0.210256 0.447295
H22_8 H 0.187525 0.172238 0.410778
H23_8 H 0.211617 0.295424 0.396392
H24_8 H 0.394076 0.0554795 0.648643
H27_8 H 0.180952 0.110737 0.309924
H28_8 H 0.19962 0.00305022 0.355085
C24_6 C 0.4840(3) 0.9952(7) 0.6605(4)
C25_6 C 0.3995(5) 0.9811(15) 0.6295(6)
C26_6 C 0.4525(7) 0.8300(11) 0.6609(7)
C27_6 C 0.5093(7) 0.8229(12) 0.6709(8)
C28_6 C 0.5646(5) 0.9758(18) 0.6836(13)
N3_6 N 0.4462(4) 0.9369(7) 0.6561(4)
N4_6 N 0.5183(4) 0.9305(8) 0.6774(6)
H9_8 H 0.256447 0.954315 0.322871
H15_6 H 0.589739 0.911789 0.698064
H17_6 H 0.526737 0.775213 0.704673
H18_6 H 0.51727 0.789907 0.638096
H19_6 H 0.433487 0.786546 0.626406
H20_6 H 0.443511 0.797858 0.693216
H25_6 H 0.374396 0.919877 0.630676
H26_6 H 0.396338 0.99983 0.589991
C24_7 C 0.4840(3) 0.0048(7) 0.1605(4)
C25_7 C 0.3995(5) 0.0189(15) 0.1295(6)
C26_7 C 0.4525(7) 0.1700(11) 0.1609(7)
C27_7 C 0.5093(7) 0.1771(12) 0.1709(8)
C28_7 C 0.5646(5) 0.0242(18) 0.1836(13)
N3_7 N 0.4462(4) 0.0631(7) 0.1561(4)
N4_7 N 0.5183(4) 0.0695(8) 0.1774(6)
H15_7 H 0.589739 0.0882109 0.198064
H17_7 H 0.526737 0.224787 0.204673
H18_7 H 0.51727 0.210093 0.138096
H19_7 H 0.433487 0.213454 0.126406
H20_7 H 0.443511 0.202142 0.193216
H25_7 H 0.374396 0.0801228 0.130676
H26_7 H 0.396338 0.000170208 0.0899915
C24_8 C 0.5160(3) 0.9952(7) 0.8395(4)
C25_8 C 0.6005(5) 0.9811(15) 0.8705(6)
C26_8 C 0.5475(7) 0.8300(11) 0.8391(7)
C27_8 C 0.4907(7) 0.8229(12) 0.8291(8)
C28_8 C 0.4354(5) 0.9758(18) 0.8164(13)
N3_8 N 0.5538(4) 0.9369(7) 0.8439(4)
N4_8 N 0.4817(4) 0.9305(8) 0.8226(6)
H15_8 H 0.410261 0.911789 0.801936
H17_8 H 0.473263 0.775213 0.795327
H18_8 H 0.48273 0.789907 0.861904
H19_8 H 0.566513 0.786546 0.873594
H20_8 H 0.556489 0.797858 0.806784
H25_8 H 0.625604 0.919877 0.869324
H26_8 H 0.603662 0.99983 0.910009
loop_
_geom_bond_atom_site_label_1
_geom_bond_atom_site_label_2
_geom_bond_site_symmetry_1
_geom_bond_site_symmetry_2
C27 N4 1_555 1_555
C28 N4 1_555 1_555
C28 H14 1_555 1_555
C28 H15 1_555 1_555
C28 H16 1_555 1_555
C27 H17 1_555 1_555
C27 H18 1_555 1_555
Zn3 O3 1_555 1_555
O3 C8 1_555 1_555
O4 Zn3 1_555 1_555
O15 Zn3 1_555 1_555
C2 H1 1_555 1_555
C3 C2 1_555 1_555
C8 O4 1_555 1_555
C24 O15 1_555 1_555
C25 N3 1_555 1_555
N3 C24 1_555 1_555
O20 Zn3 1_555 1_555
C3 C8 1_555 1_555
C26 N3 1_555 1_555
C26 H19 1_555 1_555
C26 H20 1_555 1_555
C25 H24 1_555 1_555
C25 H25 1_555 1_555
C25 H26 1_555 1_555
Zn2 O2 1_555 1_555
O8 Zn2 1_555 1_555
O9 C17 1_555 1_555
O10 C17 1_555 1_555
O11 C18 1_555 1_555
O12 C18 1_555 1_555
O13 Zn2 1_555 1_555
O14 Zn2 1_555 1_555
C10 C11 1_555 1_555
C11 H4 1_555 1_555
C12 C11 1_555 1_555
C13 C12 1_555 1_555
H5 C13 1_555 1_555
C14 C13 1_555 1_555
C15 C10 1_555 1_555
H6 C15 1_555 1_555
C16 O7 1_555 1_555
C17 C12 1_555 1_555
C18 C14 1_555 1_555
C19 O13 1_555 1_555
C20 N1 1_555 1_555
C21 C22 1_555 1_555
C22 N2 1_555 1_555
C23 N2 1_555 1_555
N1 C19 1_555 1_555
N2 C19 1_555 1_555
Zn5 O9 1_555 1_555
Zn6 O10 1_555 1_555
Zn7 O11 1_555 1_555
Zn8 O12 1_555 1_555
O8 C16 1_555 1_555
C10 C16 1_555 1_555
C14 C15 1_555 1_555
C21 N1 1_555 1_555
O14 H7 1_555 1_555
O14 H8 1_555 1_555
C22 H9 1_555 1_555
C22 H10 1_555 1_555
C23 H11 1_555 1_555
C23 H12 1_555 1_555
C23 H13 1_555 1_555
C20 H21 1_555 1_555
C20 H22 1_555 1_555
C20 H23 1_555 1_555
C21 H27 1_555 1_555
C21 H28 1_555 1_555
O5 C9 1_555 1_555
O6 C9 1_555 1_555
H2 C4 1_555 1_555
C5 C4 1_555 1_555
C6 C1 1_555 1_555
H3 C6 1_555 1_555
C9 C5 1_555 1_555
Zn4 O6 1_555 1_555
C5 C6 1_555 1_555
Zn1 O1 1_555 1_555
O1 C7 1_555 1_555
O16 Zn1 1_555 1_555
O17 Zn1 1_555 1_555
Zn2_2 O2_2 1_555 1_555
Zn3_2 O3_2 1_555 1_555
O3_2 C8_2 1_555 1_555
O4_2 Zn3_2 1_555 1_555
O8_2 Zn2_2 1_555 1_555
O9_2 C17_2 1_555 1_555
O10_2 C17_2 1_555 1_555
O11_2 C18_2 1_555 1_555
O12_2 C18_2 1_555 1_555
O13_2 Zn2_2 1_555 1_555
O14_2 Zn2_2 1_555 1_555
O15_2 Zn3_2 1_555 1_555
C2_2 H1_2 1_555 1_555
C3_2 C2_2 1_555 1_555
C8_2 O4_2 1_555 1_555
C10_2 C11_2 1_555 1_555
C11_2 H4_2 1_555 1_555
C12_2 C11_2 1_555 1_555
C13_2 C12_2 1_555 1_555
H5_2 C13_2 1_555 1_555
C14_2 C13_2 1_555 1_555
C15_2 C10_2 1_555 1_555
H6_2 C15_2 1_555 1_555
C16_2 O7_2 1_555 1_555
C17_2 C12_2 1_555 1_555
C18_2 C14_2 1_555 1_555
C19_2 O13_2 1_555 1_555
C20_2 N1_2 1_555 1_555
C21_2 C22_2 1_555 1_555
C22_2 N2_2 1_555 1_555
C23_2 N2_2 1_555 1_555
C24_2 O15_2 1_555 1_555
C25_2 N3_2 1_555 1_555
N1_2 C19_2 1_555 1_555
N2_2 C19_2 1_555 1_555
N3_2 C24_2 1_555 1_555
Zn5_2 O9_2 1_555 1_555
Zn6_2 O10_2 1_555 1_555
Zn8 O11_2 1_555 1_555
Zn7 O12_2 1_555 1_555
O20_2 Zn3_2 1_555 1_555
O8_2 C16_2 1_555 1_555
C3_2 C8_2 1_555 1_555
C10_2 C16_2 1_555 1_555
C14_2 C15_2 1_555 1_555
C21_2 N1_2 1_555 1_555
C26_2 N3_2 1_555 1_555
O14_2 H7_2 1_555 1_555
O14_2 H8_2 1_555 1_555
C22_2 H9_2 1_555 1_555
C22_2 H10_2 1_555 1_555
C23_2 H11_2 1_555 1_555
C23_2 H12_2 1_555 1_555
C23_2 H13_2 1_555 1_555
C26_2 H19_2 1_555 1_555
C26_2 H20_2 1_555 1_555
C20_2 H21_2 1_555 1_555
C20_2 H22_2 1_555 1_555
C20_2 H23_2 1_555 1_555
C25_2 H24_2 1_555 1_555
C25_2 H25_2 1_555 1_555
C25_2 H26_2 1_555 1_555
C21_2 H27_2 1_555 1_555
C21_2 H28_2 1_555 1_555
Zn1_2 O1_2 1_555 1_555
O1_2 C7_2 1_555 1_555
O5_2 C9_2 1_555 1_555
O6_2 C9_2 1_555 1_555
H2_2 C4_2 1_555 1_555
C5_2 C4_2 1_555 1_555
C6_2 C1_2 1_555 1_555
H3_2 C6_2 1_555 1_555
C7_2 C1_2 1_555 1_555
C9_2 C5_2 1_555 1_555
Zn4_2 O6_2 1_555 1_555
O16_2 Zn1_2 1_555 1_555
O17_2 Zn1_2 1_555 1_555
C5_2 C6_2 1_555 1_555
C27_2 N4_2 1_555 1_555
C28_2 N4_2 1_555 1_555
C28_2 H14_2 1_555 1_555
C28_2 H15_2 1_555 1_555
C28_2 H16_2 1_555 1_555
C27_2 H17_2 1_555 1_555
C27_2 H18_2 1_555 1_555
Zn3_3 O3_3 1_555 1_555
O3_3 C8_3 1_555 1_555
O4_3 Zn3_3 1_555 1_555
O5_3 C9_3 1_555 1_555
O6_3 C9_3 1_555 1_555
O15_3 Zn3_3 1_555 1_555
C1_3 C2_3 1_555 1_555
C2_3 H1_3 1_555 1_555
C3_3 C2_3 1_555 1_555
C4_3 C3_3 1_555 1_555
H2_3 C4_3 1_555 1_555
C5_3 C4_3 1_555 1_555
C6_3 C1_3 1_555 1_555
H3_3 C6_3 1_555 1_555
C8_3 O4_3 1_555 1_555
C9_3 C5_3 1_555 1_555
Zn4_3 O6_3 1_555 1_555
O19_3 Zn3_3 1_555 1_555
O20_3 Zn3_3 1_555 1_555
C3_3 C8_3 1_555 1_555
C5_3 C6_3 1_555 1_555
Zn5_2 O1_3 1_555 1_555
Zn6_2 O2_3 1_555 1_555
O1_3 C7_3 1_555 1_555
O2_3 C7_3 1_555 1_555
O7_3 Zn5_2 1_555 1_555
O8_3 Zn6_2 1_555 1_555
O17_2 C17_3 1_555 1_555
O18_2 C17_3 1_555 1_555
O11_3 C18_3 1_555 1_555
O12_3 C18_3 1_555 1_555
O13_3 Zn6_2 1_555 1_555
O14_3 Zn6_2 1_555 1_555
C10_3 C11_3 1_555 1_555
C11_3 H4_3 1_555 1_555
C12_3 C11_3 1_555 1_555
C13_3 C12_3 1_555 1_555
H5_3 C13_3 1_555 1_555
C14_3 C13_3 1_555 1_555
C15_3 C10_3 1_555 1_555
H6_3 C15_3 1_555 1_555
C16_3 O7_3 1_555 1_555
C17_3 C12_3 1_555 1_555
C18_3 C14_3 1_555 1_555
C19_3 O13_3 1_555 1_555
C20_3 N1_3 1_555 1_555
C21_3 C22_3 1_555 1_555
C22_3 N2_3 1_555 1_555
C23_3 N2_3 1_555 1_555
N1_3 C19_3 1_555 1_555
N2_3 C19_3 1_555 1_555
Zn8_2 O12_3 1_555 1_555
O16_3 Zn5_2 1_555 1_555
O8_3 C16_3 1_555 1_555
C10_3 C16_3 1_555 1_555
C14_3 C15_3 1_555 1_555
C21_3 N1_3 1_555 1_555
O14_3 H7_3 1_555 1_555
O14_3 H8_3 1_555 1_555
C22_3 H10_3 1_555 1_555
C23_3 H11_3 1_555 1_555
C23_3 H12_3 1_555 1_555
C23_3 H13_3 1_555 1_555
C20_3 H21_3 1_555 1_555
C20_3 H22_3 1_555 1_555
C20_3 H23_3 1_555 1_555
C21_3 H27_3 1_555 1_555
C21_3 H28_3 1_555 1_555
C25_3 N3_3 1_555 1_555
C26_3 C27_3 1_555 1_555
C27_3 N4_3 1_555 1_555
C28_3 N4_3 1_555 1_555
N3_3 C24_3 1_555 1_555
N4_3 C24_3 1_555 1_555
C26_3 N3_3 1_555 1_555
C28_3 H15_3 1_555 1_555
C27_3 H17_3 1_555 1_555
C27_3 H18_3 1_555 1_555
C26_3 H19_3 1_555 1_555
C26_3 H20_3 1_555 1_555
C25_3 H25_3 1_555 1_555
C25_3 H26_3 1_555 1_555
Zn5 O1_4 1_555 1_555
Zn6 O2_4 1_555 1_555
Zn3_4 O3_4 1_555 1_555
O1_4 C7_4 1_555 1_555
O2_4 C7_4 1_555 1_555
O3_4 C8_4 1_555 1_555
O4_4 Zn3_4 1_555 1_555
O5_4 C9_4 1_555 1_555
O6_4 C9_4 1_555 1_555
O7_4 Zn5 1_555 1_555
O8_4 Zn6 1_555 1_555
O17 C17_4 1_555 1_555
O18 C17_4 1_555 1_555
O11_4 C18_4 1_555 1_555
O12_4 C18_4 1_555 1_555
O13_4 Zn6 1_555 1_555
O14_4 Zn6 1_555 1_555
O15_4 Zn3_4 1_555 1_555
C1_4 C2_4 1_555 1_555
C2_4 H1_4 1_555 1_555
C3_4 C2_4 1_555 1_555
C4_4 C3_4 1_555 1_555
H2_4 C4_4 1_555 1_555
C5_4 C4_4 1_555 1_555
C6_4 C1_4 1_555 1_555
H3_4 C6_4 1_555 1_555
C7_4 C1_4 1_555 1_555
C8_4 O4_4 1_555 1_555
C9_4 C5_4 1_555 1_555
C10_4 C11_4 1_555 1_555
C11_4 H4_4 1_555 1_555
C12_4 C11_4 1_555 1_555
C13_4 C12_4 1_555 1_555
H5_4 C13_4 1_555 1_555
C14_4 C13_4 1_555 1_555
C15_4 C10_4 1_555 1_555
H6_4 C15_4 1_555 1_555
C16_4 O7_4 1_555 1_555
C17_4 C12_4 1_555 1_555
C18_4 C14_4 1_555 1_555
C19_4 O13_4 1_555 1_555
C20_4 N1_4 1_555 1_555
C21_4 C22_4 1_555 1_555
C22_4 N2_4 1_555 1_555
C23_4 N2_4 1_555 1_555
N1_4 C19_4 1_555 1_555
N2_4 C19_4 1_555 1_555
Zn4_4 O6_4 1_555 1_555
Zn7_2 O12_4 1_555 1_555
O16_4 Zn5 1_555 1_555
O19_4 Zn3_4 1_555 1_555
O20_4 Zn3_4 1_555 1_555
O8_4 C16_4 1_555 1_555
C3_4 C8_4 1_555 1_555
C5_4 C6_4 1_555 1_555
C10_4 C16_4 1_555 1_555
C14_4 C15_4 1_555 1_555
C21_4 N1_4 1_555 1_555
O14_4 H7_4 1_555 1_555
O14_4 H8_4 1_555 1_555
C22_4 H10_4 1_555 1_555
C23_4 H11_4 1_555 1_555
C23_4 H12_4 1_555 1_555
C23_4 H13_4 1_555 1_555
C20_4 H21_4 1_555 1_555
C20_4 H22_4 1_555 1_555
C20_4 H23_4 1_555 1_555
C21_4 H27_4 1_555 1_555
C21_4 H28_4 1_555 1_555
Zn4_3 O1_5 1_555 1_555
O1_5 C7_5 1_555 1_555
O17_3 Zn4_3 1_555 1_555
O5_5 C9_5 1_555 1_555
O16_3 C9_5 1_555 1_555
H2_5 C4_5 1_555 1_555
C5_5 C4_5 1_555 1_555
C6_5 C1_5 1_555 1_555
H3_5 C6_5 1_555 1_555
C9_5 C5_5 1_555 1_555
C5_5 C6_5 1_555 1_555
Zn2_3 O2_5 1_555 1_555
O8_5 Zn2_3 1_555 1_555
O9_3 C17_5 1_555 1_555
O10_3 C17_5 1_555 1_555
O19_4 C18_5 1_555 1_555
O20_3 C18_5 1_555 1_555
O13_5 Zn2_3 1_555 1_555
O14_5 Zn2_3 1_555 1_555
C10_5 C11_5 1_555 1_555
C11_5 H4_5 1_555 1_555
C12_5 C11_5 1_555 1_555
C13_5 C12_5 1_555 1_555
H5_5 C13_5 1_555 1_555
C14_5 C13_5 1_555 1_555
C15_5 C10_5 1_555 1_555
H6_5 C15_5 1_555 1_555
C16_5 O7_5 1_555 1_555
C17_5 C12_5 1_555 1_555
C18_5 C14_5 1_555 1_555
C19_5 O13_5 1_555 1_555
C20_5 N1_5 1_555 1_555
C21_5 C22_5 1_555 1_555
C22_5 N2_5 1_555 1_555
C23_5 N2_5 1_555 1_555
N1_5 C19_5 1_555 1_555
N2_5 C19_5 1_555 1_555
Zn4_2 O9_3 1_555 1_555
Zn6_3 O10_3 1_555 1_555
O8_5 C16_5 1_555 1_555
C10_5 C16_5 1_555 1_555
C14_5 C15_5 1_555 1_555
C21_5 N1_5 1_555 1_555
O14_5 H7_5 1_555 1_555
O14_5 H8_5 1_555 1_555
C22_5 H9_5 1_555 1_555
C22_5 H10_5 1_555 1_555
C23_5 H11_5 1_555 1_555
C23_5 H12_5 1_555 1_555
C23_5 H13_5 1_555 1_555
C20_5 H21_5 1_555 1_555
C20_5 H22_5 1_555 1_555
C20_5 H23_5 1_555 1_555
C21_5 H27_5 1_555 1_555
C21_5 H28_5 1_555 1_555
Zn8_2 O3_5 1_555 1_555
O3_5 C8_5 1_555 1_555
O4_5 Zn8_2 1_555 1_555
O15_5 Zn8_2 1_555 1_555
C2_5 H1_5 1_555 1_555
C3_5 C2_5 1_555 1_555
C8_5 O4_5 1_555 1_555
C24_4 O15_5 1_555 1_555
C25_4 N3_4 1_555 1_555
N3_4 C24_4 1_555 1_555
C3_5 C8_5 1_555 1_555
C26_4 N3_4 1_555 1_555
C26_4 H19_4 1_555 1_555
C26_4 H20_4 1_555 1_555
C25_4 H24_5 1_555 1_555
C25_4 H25_4 1_555 1_555
C25_4 H26_4 1_555 1_555
C27_4 N4_4 1_555 1_555
C28_4 N4_4 1_555 1_555
C28_4 H14_5 1_555 1_555
C28_4 H15_4 1_555 1_555
C28_4 H16_5 1_555 1_555
C27_4 H17_4 1_555 1_555
C27_4 H18_4 1_555 1_555
C27_5 N4_5 1_555 1_555
C28_5 N4_5 1_555 1_555
C28_5 H14_6 1_555 1_555
C28_5 H15_5 1_555 1_555
C28_5 H16_6 1_555 1_555
C27_5 H17_5 1_555 1_555
C27_5 H18_5 1_555 1_555
Zn4_4 O1_6 1_555 1_555
O1_6 C7_6 1_555 1_555
O5_6 C9_6 1_555 1_555
O16_4 C9_6 1_555 1_555
H2_6 C4_6 1_555 1_555
C5_6 C4_6 1_555 1_555
C6_6 C1_6 1_555 1_555
H3_6 C6_6 1_555 1_555
C7_6 C1_6 1_555 1_555
C9_6 C5_6 1_555 1_555
O17_4 Zn4_4 1_555 1_555
C5_6 C6_6 1_555 1_555
Zn2_4 O2_6 1_555 1_555
Zn7_2 O3_6 1_555 1_555
O3_6 C8_6 1_555 1_555
O4_6 Zn7_2 1_555 1_555
O8_6 Zn2_4 1_555 1_555
O9_4 C17_6 1_555 1_555
O10_4 C17_6 1_555 1_555
O19_3 C18_6 1_555 1_555
O20_4 C18_6 1_555 1_555
O13_6 Zn2_4 1_555 1_555
O14_6 Zn2_4 1_555 1_555
O15_6 Zn7_2 1_555 1_555
C2_6 H1_6 1_555 1_555
C3_6 C2_6 1_555 1_555
C8_6 O4_6 1_555 1_555
C10_6 C11_6 1_555 1_555
C11_6 H4_6 1_555 1_555
C12_6 C11_6 1_555 1_555
C13_6 C12_6 1_555 1_555
H5_6 C13_6 1_555 1_555
C14_6 C13_6 1_555 1_555
C15_6 C10_6 1_555 1_555
H6_6 C15_6 1_555 1_555
C16_6 O7_6 1_555 1_555
C17_6 C12_6 1_555 1_555
C18_6 C14_6 1_555 1_555
C19_6 O13_6 1_555 1_555
C20_6 N1_6 1_555 1_555
C21_6 C22_6 1_555 1_555
C22_6 N2_6 1_555 1_555
C23_6 N2_6 1_555 1_555
C24_5 O15_6 1_555 1_555
C25_5 N3_5 1_555 1_555
N1_6 C19_6 1_555 1_555
N2_6 C19_6 1_555 1_555
N3_5 C24_5 1_555 1_555
Zn4 O9_4 1_555 1_555
Zn6_4 O10_4 1_555 1_555
O8_6 C16_6 1_555 1_555
C3_6 C8_6 1_555 1_555
C10_6 C16_6 1_555 1_555
C14_6 C15_6 1_555 1_555
C21_6 N1_6 1_555 1_555
C26_5 N3_5 1_555 1_555
O14_6 H7_6 1_555 1_555
O14_6 H8_6 1_555 1_555
C22_6 H9_6 1_555 1_555
C22_6 H10_6 1_555 1_555
C23_6 H11_6 1_555 1_555
C23_6 H12_6 1_555 1_555
C23_6 H13_6 1_555 1_555
C26_5 H19_5 1_555 1_555
C26_5 H20_5 1_555 1_555
C20_6 H21_6 1_555 1_555
C20_6 H22_6 1_555 1_555
C20_6 H23_6 1_555 1_555
C25_5 H24_6 1_555 1_555
C25_5 H25_5 1_555 1_555
C25_5 H26_5 1_555 1_555
C21_6 H27_6 1_555 1_555
C21_6 H28_6 1_555 1_555
Zn4 O1_7 1_555 1_555
Zn6_4 O2_7 1_555 1_555
O1_7 C7_7 1_555 1_555
O2_7 C7_7 1_555 1_555
O7_7 Zn4 1_555 1_555
O8_7 Zn6_4 1_555 1_555
O17_4 C17_7 1_555 1_555
O18_4 C17_7 1_555 1_555
O19_2 C18_7 1_555 1_555
O20 C18_7 1_555 1_555
O13_7 Zn6_4 1_555 1_555
O14_7 Zn6_4 1_555 1_555
C10_7 C11_7 1_555 1_555
C11_7 H4_7 1_555 1_555
C12_7 C11_7 1_555 1_555
C13_7 C12_7 1_555 1_555
H5_7 C13_7 1_555 1_555
C14_7 C13_7 1_555 1_555
C15_7 C10_7 1_555 1_555
H6_7 C15_7 1_555 1_555
C16_7 O7_7 1_555 1_555
C17_7 C12_7 1_555 1_555
C18_7 C14_7 1_555 1_555
C19_7 O13_7 1_555 1_555
C20_7 N1_7 1_555 1_555
C21_7 C22_7 1_555 1_555
C22_7 N2_7 1_555 1_555
C23_7 N2_7 1_555 1_555
N1_7 C19_7 1_555 1_555
N2_7 C19_7 1_555 1_555
O8_7 C16_7 1_555 1_555
C10_7 C16_7 1_555 1_555
C14_7 C15_7 1_555 1_555
C21_7 N1_7 1_555 1_555
O14_7 H7_7 1_555 1_555
O14_7 H8_7 1_555 1_555
C22_7 H10_7 1_555 1_555
C23_7 H11_7 1_555 1_555
C23_7 H12_7 1_555 1_555
C23_7 H13_7 1_555 1_555
C20_7 H21_7 1_555 1_555
C20_7 H22_7 1_555 1_555
C20_7 H23_7 1_555 1_555
C21_7 H27_7 1_555 1_555
C21_7 H28_7 1_555 1_555
Zn8 O3_7 1_555 1_555
O3_7 C8_7 1_555 1_555
O4_7 Zn8 1_555 1_555
O5_7 C9_7 1_555 1_555
O16 C9_7 1_555 1_555
O15_7 Zn8 1_555 1_555
C1_7 C2_7 1_555 1_555
C2_7 H1_7 1_555 1_555
C3_7 C2_7 1_555 1_555
C4_7 C3_7 1_555 1_555
H2_7 C4_7 1_555 1_555
C5_7 C4_7 1_555 1_555
C6_7 C1_7 1_555 1_555
H3_7 C6_7 1_555 1_555
C8_7 O4_7 1_555 1_555
C9_7 C5_7 1_555 1_555
C3_7 C8_7 1_555 1_555
C5_7 C6_7 1_555 1_555
Zn4_2 O1_8 1_555 1_555
Zn6_3 O2_8 1_555 1_555
Zn7 O3_8 1_555 1_555
O1_8 C7_8 1_555 1_555
O2_8 C7_8 1_555 1_555
O3_8 C8_8 1_555 1_555
O4_8 Zn7 1_555 1_555
O5_8 C9_8 1_555 1_555
O16_2 C9_8 1_555 1_555
O7_8 Zn4_2 1_555 1_555
O8_8 Zn6_3 1_555 1_555
O17_3 C17_8 1_555 1_555
O18_3 C17_8 1_555 1_555
O19 C18_8 1_555 1_555
O20_2 C18_8 1_555 1_555
O13_8 Zn6_3 1_555 1_555
O14_8 Zn6_3 1_555 1_555
O15_8 Zn7 1_555 1_555
C1_8 C2_8 1_555 1_555
C2_8 H1_8 1_555 1_555
C3_8 C2_8 1_555 1_555
C4_8 C3_8 1_555 1_555
H2_8 C4_8 1_555 1_555
C5_8 C4_8 1_555 1_555
C6_8 C1_8 1_555 1_555
H3_8 C6_8 1_555 1_555
C7_8 C1_8 1_555 1_555
C8_8 O4_8 1_555 1_555
C9_8 C5_8 1_555 1_555
C10_8 C11_8 1_555 1_555
C11_8 H4_8 1_555 1_555
C12_8 C11_8 1_555 1_555
C13_8 C12_8 1_555 1_555
H5_8 C13_8 1_555 1_555
C14_8 C13_8 1_555 1_555
C15_8 C10_8 1_555 1_555
H6_8 C15_8 1_555 1_555
C16_8 O7_8 1_555 1_555
C17_8 C12_8 1_555 1_555
C18_8 C14_8 1_555 1_555
C19_8 O13_8 1_555 1_555
C20_8 N1_8 1_555 1_555
C21_8 C22_8 1_555 1_555
C22_8 N2_8 1_555 1_555
C23_8 N2_8 1_555 1_555
N1_8 C19_8 1_555 1_555
N2_8 C19_8 1_555 1_555
O8_8 C16_8 1_555 1_555
C3_8 C8_8 1_555 1_555
C5_8 C6_8 1_555 1_555
C10_8 C16_8 1_555 1_555
C14_8 C15_8 1_555 1_555
C21_8 N1_8 1_555 1_555
O14_8 H7_8 1_555 1_555
O14_8 H8_8 1_555 1_555
C22_8 H10_8 1_555 1_555
C23_8 H11_8 1_555 1_555
C23_8 H12_8 1_555 1_555
C23_8 H13_8 1_555 1_555
C20_8 H21_8 1_555 1_555
C20_8 H22_8 1_555 1_555
C20_8 H23_8 1_555 1_555
C21_8 H27_8 1_555 1_555
C21_8 H28_8 1_555 1_555
C25_6 N3_6 1_555 1_555
C26_6 C27_6 1_555 1_555
C27_6 N4_6 1_555 1_555
C28_6 N4_6 1_555 1_555
N3_6 C24_6 1_555 1_555
N4_6 C24_6 1_555 1_555
C26_6 N3_6 1_555 1_555
C28_6 H15_6 1_555 1_555
C27_6 H17_6 1_555 1_555
C27_6 H18_6 1_555 1_555
C26_6 H19_6 1_555 1_555
C26_6 H20_6 1_555 1_555
C25_6 H25_6 1_555 1_555
C25_6 H26_6 1_555 1_555
C25_7 N3_7 1_555 1_555
C26_7 C27_7 1_555 1_555
C27_7 N4_7 1_555 1_555
C28_7 N4_7 1_555 1_555
N3_7 C24_7 1_555 1_555
N4_7 C24_7 1_555 1_555
C26_7 N3_7 1_555 1_555
C28_7 H15_7 1_555 1_555
C27_7 H17_7 1_555 1_555
C27_7 H18_7 1_555 1_555
C26_7 H19_7 1_555 1_555
C26_7 H20_7 1_555 1_555
C25_7 H25_7 1_555 1_555
C25_7 H26_7 1_555 1_555
C25_8 N3_8 1_555 1_555
C26_8 C27_8 1_555 1_555
C27_8 N4_8 1_555 1_555
C28_8 N4_8 1_555 1_555
N3_8 C24_8 1_555 1_555
N4_8 C24_8 1_555 1_555
C26_8 N3_8 1_555 1_555
C28_8 H15_8 1_555 1_555
C27_8 H17_8 1_555 1_555
C27_8 H18_8 1_555 1_555
C26_8 H19_8 1_555 1_555
C26_8 H20_8 1_555 1_555
C25_8 H25_8 1_555 1_555
C25_8 H26_8 1_555 1_555

#END
