
###############################################################################
#
# This file contains modified crystal structure data generated from the
# MOF subset of the Cambridge Structural Database (CSD) v543 
# hosted by the Cambridge Crystallographic Data Centre (CCDC).
#
# This work is licensed under the Creative Commons
# Attribution-NonCommercial-ShareAlike 4.0 International License.
# To view a copy of this license, visit
# http://creativecommons.org/licenses/by-nc-sa/4.0/
# or send a letter to
# Creative Commons, PO Box 1866, Mountain View, CA 94042, USA.
#
# CIF created using the CSD Python API on 29 September 2022
# The structure has been converted into the P1 space group
# The structure has a 3D framework
# The original CSD entry REGYOT is in the cubic crystal system
# The framework has been calculated to contain at least 10.0% void space
# The void calculation uses a probe of radius 1.32A, grid spacing 0.4
# The framework is charged, counterions have been retained in the structure
#
###############################################################################

data_REGYOT
_chemical_formula_moiety         '(C1344 H576 Cl28 Cu117 O384 8-)n'
_symmetry_cell_setting           triclinic
_symmetry_space_group_name_H-M   'P 1'
_symmetry_Int_Tables_number      1
_space_group_name_Hall           'P 1'
loop_
_symmetry_equiv_pos_site_id
_symmetry_equiv_pos_as_xyz
1 x,y,z
_cell_length_a                   41.4543(15)
_cell_length_b                   41.4543(15)
_cell_length_c                   41.4543(15)
_cell_angle_alpha                90
_cell_angle_beta                 90
_cell_angle_gamma                90
_cell_volume                     71237.5
loop_
_atom_site_label
_atom_site_type_symbol
_atom_site_fract_x
_atom_site_fract_y
_atom_site_fract_z
Cu1 Cu 0.262905(6) 0.190603(6) 0.0000
Cl1 Cl 0.2500 0.2500 0.0000
O1 O 0.23442(3) 0.17463(4) 0.03324(3)
C1 C 0.20807(4) 0.18324(4) 0.04406(4)
C2 C 0.19621(4) 0.16588(5) 0.07350(4)
C3 C 0.16920(4) 0.17675(5) 0.08944(4)
H1 H 0.1584 0.1947 0.0815
C4 C 0.15746(5) 0.16165(5) 0.11729(5)
C5 C 0.17366(5) 0.13404(5) 0.12892(5)
C6 C 0.20130(6) 0.12362(6) 0.11241(6)
H2 H 0.2124 0.1057 0.1200
C7 C 0.21242(5) 0.13914(6) 0.08546(5)
H3 H 0.2309 0.1317 0.0751
O2 O 0.19033(3) 0.20463(4) 0.03349(4)
Cu2 Cu 0.190603(6) 0.0000 0.262905(6)
Cu3 Cu 0.0000 0.262905(6) 0.190603(6)
Cu6 Cu 0.309397(6) 0.262905(6) 0.0000
Cu7 Cu 0.5000 0.190603(6) 0.262905(6)
Cu8 Cu 0.237095(6) 0.0000 0.190603(6)
Cu11 Cu 0.190603(6) 0.237095(6) 0.0000
Cu12 Cu 0.0000 0.190603(6) 0.237095(6)
Cu13 Cu 0.237095(6) 0.309397(6) 0.0000
Cu15 Cu 0.5000 0.237095(6) 0.190603(6)
Cu16 Cu 0.309397(6) 0.0000 0.237095(6)
Cu19 Cu 0.262905(6) 0.0000 0.309397(6)
Cu24 Cu 0.190603(6) 0.262905(6) 0.5000
Cu25 Cu 0.237095(6) 0.190603(6) 0.5000
Cu26 Cu 0.0000 0.237095(6) 0.309397(6)
Cu30 Cu 0.0000 0.309397(6) 0.262905(6)
Cl2 Cl 0.2500 0.0000 0.2500
Cl3 Cl 0.0000 0.2500 0.2500
Cl6 Cl 0.5000 0.2500 0.2500
O3 O 0.17463(4) 0.03324(3) 0.23442(3)
O4 O 0.03324(3) 0.23442(3) 0.17463(4)
O8 O 0.32537(4) 0.23442(3) 0.03324(3)
O9 O 0.46676(3) 0.17463(4) 0.23442(3)
O10 O 0.26558(3) 0.03324(3) 0.17463(4)
O17 O 0.23442(3) 0.03324(3) 0.32537(4)
O18 O 0.17463(4) 0.23442(3) 0.46676(3)
O19 O 0.03324(3) 0.17463(4) 0.26558(3)
O28 O 0.53324(3) 0.17463(4) 0.23442(3)
O32 O 0.17463(4) 0.26558(3) 0.03324(3)
C8 C 0.18324(4) 0.04406(4) 0.20807(4)
C9 C 0.04406(4) 0.20807(4) 0.18324(4)
C13 C 0.31676(4) 0.20807(4) 0.04406(4)
C14 C 0.45594(4) 0.18324(4) 0.20807(4)
C15 C 0.29193(4) 0.04406(4) 0.18324(4)
C22 C 0.20807(4) 0.04406(4) 0.31676(4)
C23 C 0.18324(4) 0.20807(4) 0.45594(4)
C24 C 0.04406(4) 0.18324(4) 0.29193(4)
C31 C 0.16588(5) 0.07350(4) 0.19621(4)
C32 C 0.07350(4) 0.19621(4) 0.16588(5)
C36 C 0.33412(5) 0.19621(4) 0.07350(4)
C37 C 0.42650(4) 0.16588(5) 0.19621(4)
C38 C 0.30379(4) 0.07350(4) 0.16588(5)
C45 C 0.19621(4) 0.07350(4) 0.33412(5)
C46 C 0.16588(5) 0.19621(4) 0.42650(4)
C47 C 0.07350(4) 0.16588(5) 0.30379(4)
C54 C 0.17675(5) 0.08944(4) 0.16920(4)
C55 C 0.08944(4) 0.16920(4) 0.17675(5)
C59 C 0.32325(5) 0.16920(4) 0.08944(4)
C60 C 0.41056(4) 0.17675(5) 0.16920(4)
C61 C 0.33080(4) 0.08944(4) 0.17675(5)
C68 C 0.16920(4) 0.08944(4) 0.32325(5)
C69 C 0.17675(5) 0.16920(4) 0.41056(4)
C70 C 0.08944(4) 0.17675(5) 0.33080(4)
H4 H 0.0815 0.1584 0.1947
H5 H 0.1947 0.0815 0.1584
H9 H 0.3053 0.1584 0.0815
H10 H 0.3416 0.0815 0.1947
H11 H 0.4185 0.1947 0.1584
H18 H 0.1584 0.0815 0.3053
H19 H 0.0815 0.1947 0.3416
H20 H 0.1947 0.1584 0.4185
C77 C 0.16165(5) 0.11729(5) 0.15746(5)
C78 C 0.11729(5) 0.15746(5) 0.16165(5)
C82 C 0.33835(5) 0.15746(5) 0.11729(5)
C83 C 0.38271(5) 0.16165(5) 0.15746(5)
C84 C 0.34254(5) 0.11729(5) 0.16165(5)
C91 C 0.15746(5) 0.11729(5) 0.33835(5)
C92 C 0.16165(5) 0.15746(5) 0.38271(5)
C93 C 0.11729(5) 0.16165(5) 0.34254(5)
C100 C 0.13404(5) 0.12892(5) 0.17366(5)
C101 C 0.12892(5) 0.17366(5) 0.13404(5)
C105 C 0.36596(5) 0.17366(5) 0.12892(5)
C106 C 0.37108(5) 0.13404(5) 0.17366(5)
C107 C 0.32634(5) 0.12892(5) 0.13404(5)
C114 C 0.17366(5) 0.12892(5) 0.36596(5)
C115 C 0.13404(5) 0.17366(5) 0.37108(5)
C116 C 0.12892(5) 0.13404(5) 0.32634(5)
C123 C 0.12362(6) 0.11241(6) 0.20130(6)
C124 C 0.11241(6) 0.20130(6) 0.12362(6)
C128 C 0.37638(6) 0.20130(6) 0.11241(6)
C129 C 0.38759(6) 0.12362(6) 0.20130(6)
C130 C 0.29870(6) 0.11241(6) 0.12362(6)
C137 C 0.20130(6) 0.11241(6) 0.37638(6)
C138 C 0.12362(6) 0.20130(6) 0.38759(6)
C139 C 0.11241(6) 0.12362(6) 0.29870(6)
H27 H 0.1200 0.2124 0.1057
H28 H 0.1057 0.1200 0.2124
H32 H 0.3943 0.2124 0.1200
H33 H 0.2876 0.1200 0.1057
H34 H 0.3800 0.1057 0.2124
H41 H 0.2124 0.1200 0.3943
H42 H 0.1200 0.1057 0.2876
H43 H 0.1057 0.2124 0.3800
C146 C 0.13914(6) 0.08546(5) 0.21242(5)
C147 C 0.08546(5) 0.21242(5) 0.13914(6)
C151 C 0.36086(6) 0.21242(5) 0.08546(5)
C152 C 0.41454(5) 0.13914(6) 0.21242(5)
C153 C 0.28758(5) 0.08546(5) 0.13914(6)
C160 C 0.21242(5) 0.08546(5) 0.36086(6)
C161 C 0.13914(6) 0.21242(5) 0.41454(5)
C162 C 0.08546(5) 0.13914(6) 0.28758(5)
H50 H 0.0751 0.2309 0.1317
H51 H 0.1317 0.0751 0.2309
H55 H 0.3683 0.2309 0.0751
H56 H 0.2691 0.0751 0.1317
H57 H 0.4249 0.1317 0.2309
H64 H 0.2309 0.0751 0.3683
H65 H 0.0751 0.1317 0.2691
H66 H 0.1317 0.2309 0.4249
O35 O 0.20463(4) 0.03349(4) 0.19033(3)
O36 O 0.03349(4) 0.19033(3) 0.20463(4)
O40 O 0.29537(4) 0.19033(3) 0.03349(4)
O41 O 0.46651(4) 0.20463(4) 0.19033(3)
O42 O 0.30967(3) 0.03349(4) 0.20463(4)
O49 O 0.19033(3) 0.03349(4) 0.29537(4)
O50 O 0.20463(4) 0.19033(3) 0.46651(4)
O51 O 0.03349(4) 0.20463(4) 0.30967(3)
O58 O 0.03349(4) 0.29537(4) 0.19033(3)
O64 O 0.30967(3) 0.29537(4) 0.03349(4)
O66 O 0.46651(4) 0.19033(3) 0.29537(4)
O67 O 0.53349(4) 0.19033(3) 0.29537(4)
Cu1_2 Cu 0.262905(6) 0.190603(6) 1.0000
Cl1_2 Cl 0.2500 0.2500 1.0000
Cu4 Cu 0.190603(6) 0.0000 0.737095(6)
Cu5 Cu 0.0000 0.262905(6) 0.809397(6)
Cu6_2 Cu 0.309397(6) 0.262905(6) 1.0000
Cu9 Cu 0.5000 0.190603(6) 0.737095(6)
Cu10 Cu 0.237095(6) 0.0000 0.809397(6)
Cu11_2 Cu 0.190603(6) 0.237095(6) 1.0000
Cu13_2 Cu 0.237095(6) 0.309397(6) 1.0000
Cu14 Cu 0.0000 0.190603(6) 0.762905(6)
Cu17 Cu 0.5000 0.237095(6) 0.809397(6)
Cu18 Cu 0.309397(6) 0.0000 0.762905(6)
Cl4 Cl 0.2500 0.0000 0.7500
Cl5 Cl 0.0000 0.2500 0.7500
Cl7 Cl 0.5000 0.2500 0.7500
O5 O 0.23442(3) 0.17463(4) 0.96676(3)
O6 O 0.17463(4) 0.03324(3) 0.76558(3)
O7 O 0.03324(3) 0.23442(3) 0.82537(4)
O11 O 0.32537(4) 0.23442(3) 0.96676(3)
O12 O 0.46676(3) 0.17463(4) 0.76558(3)
O13 O 0.26558(3) 0.03324(3) 0.82537(4)
O30 O 0.53324(3) 0.17463(4) 0.76558(3)
O33 O 0.17463(4) 0.26558(3) 0.96676(3)
C10 C 0.20807(4) 0.18324(4) 0.95594(4)
C11 C 0.18324(4) 0.04406(4) 0.79193(4)
C12 C 0.04406(4) 0.20807(4) 0.81676(4)
C16 C 0.31676(4) 0.20807(4) 0.95594(4)
C17 C 0.45594(4) 0.18324(4) 0.79193(4)
C18 C 0.29193(4) 0.04406(4) 0.81676(4)
C33 C 0.19621(4) 0.16588(5) 0.92650(4)
C34 C 0.16588(5) 0.07350(4) 0.80379(4)
C35 C 0.07350(4) 0.19621(4) 0.83412(5)
C39 C 0.33412(5) 0.19621(4) 0.92650(4)
C40 C 0.42650(4) 0.16588(5) 0.80379(4)
C41 C 0.30379(4) 0.07350(4) 0.83412(5)
C56 C 0.16920(4) 0.17675(5) 0.91056(4)
C57 C 0.17675(5) 0.08944(4) 0.83080(4)
C58 C 0.08944(4) 0.16920(4) 0.82325(5)
C62 C 0.32325(5) 0.16920(4) 0.91056(4)
C63 C 0.41056(4) 0.17675(5) 0.83080(4)
C64 C 0.33080(4) 0.08944(4) 0.82325(5)
H6 H 0.1584 0.1947 0.9185
H7 H 0.0815 0.1584 0.8053
H8 H 0.1947 0.0815 0.8416
H12 H 0.3053 0.1584 0.9185
H13 H 0.3416 0.0815 0.8053
H14 H 0.4185 0.1947 0.8416
C79 C 0.15746(5) 0.16165(5) 0.88271(5)
C80 C 0.16165(5) 0.11729(5) 0.84254(5)
C81 C 0.11729(5) 0.15746(5) 0.83835(5)
C85 C 0.33835(5) 0.15746(5) 0.88271(5)
C86 C 0.38271(5) 0.16165(5) 0.84254(5)
C87 C 0.34254(5) 0.11729(5) 0.83835(5)
C102 C 0.17366(5) 0.13404(5) 0.87108(5)
C103 C 0.13404(5) 0.12892(5) 0.82634(5)
C104 C 0.12892(5) 0.17366(5) 0.86596(5)
C108 C 0.36596(5) 0.17366(5) 0.87108(5)
C109 C 0.37108(5) 0.13404(5) 0.82634(5)
C110 C 0.32634(5) 0.12892(5) 0.86596(5)
C125 C 0.20130(6) 0.12362(6) 0.88759(6)
C126 C 0.12362(6) 0.11241(6) 0.79870(6)
C127 C 0.11241(6) 0.20130(6) 0.87638(6)
C131 C 0.37638(6) 0.20130(6) 0.88759(6)
C132 C 0.38759(6) 0.12362(6) 0.79870(6)
C133 C 0.29870(6) 0.11241(6) 0.87638(6)
H29 H 0.2124 0.1057 0.8800
H30 H 0.1200 0.2124 0.8943
H31 H 0.1057 0.1200 0.7876
H35 H 0.3943 0.2124 0.8800
H36 H 0.2876 0.1200 0.8943
H37 H 0.3800 0.1057 0.7876
C148 C 0.21242(5) 0.13914(6) 0.91454(5)
C149 C 0.13914(6) 0.08546(5) 0.78758(5)
C150 C 0.08546(5) 0.21242(5) 0.86086(6)
C154 C 0.36086(6) 0.21242(5) 0.91454(5)
C155 C 0.41454(5) 0.13914(6) 0.78758(5)
C156 C 0.28758(5) 0.08546(5) 0.86086(6)
H52 H 0.2309 0.1317 0.9249
H53 H 0.0751 0.2309 0.8683
H54 H 0.1317 0.0751 0.7691
H58 H 0.3683 0.2309 0.9249
H59 H 0.2691 0.0751 0.8683
H60 H 0.4249 0.1317 0.7691
O37 O 0.19033(3) 0.20463(4) 0.96651(4)
O38 O 0.20463(4) 0.03349(4) 0.80967(3)
O39 O 0.03349(4) 0.19033(3) 0.79537(4)
O43 O 0.29537(4) 0.19033(3) 0.96651(4)
O44 O 0.46651(4) 0.20463(4) 0.80967(3)
O45 O 0.30967(3) 0.03349(4) 0.79537(4)
O60 O 0.19033(3) 0.03349(4) 0.70463(4)
O62 O 0.03349(4) 0.29537(4) 0.80967(3)
O65 O 0.30967(3) 0.29537(4) 0.96651(4)
O68 O 0.46651(4) 0.19033(3) 0.70463(4)
O69 O 0.53349(4) 0.19033(3) 0.70463(4)
Cu2_2 Cu 0.190603(6) 1.0000 0.262905(6)
Cu8_2 Cu 0.237095(6) 1.0000 0.190603(6)
Cu16_2 Cu 0.309397(6) 1.0000 0.237095(6)
Cu19_2 Cu 0.262905(6) 1.0000 0.309397(6)
Cu20 Cu 0.0000 0.737095(6) 0.190603(6)
Cu21 Cu -0.0000 0.809397(6) 0.237095(6)
Cu22 Cu 0.262905(6) 0.809397(6) 0.0000
Cu23 Cu 0.190603(6) 0.762905(6) 0.0000
Cu27 Cu 0.190603(6) 0.737095(6) 0.5000
Cu28 Cu 0.237095(6) 0.809397(6) 0.5000
Cu29 Cu 0.0000 0.762905(6) 0.309397(6)
Cl2_2 Cl 0.2500 1.0000 0.2500
O14 O 0.17463(4) 0.96676(3) 0.23442(3)
O15 O 0.03324(3) 0.76558(3) 0.17463(4)
O16 O 0.23442(3) 0.82537(4) 0.03324(3)
O20 O 0.23442(3) 0.96676(3) 0.32537(4)
O21 O 0.17463(4) 0.76558(3) 0.46676(3)
O22 O 0.03324(3) 0.82537(4) 0.26558(3)
O29 O 0.26558(3) 0.96676(3) 0.17463(4)
C19 C 0.18324(4) 0.95594(4) 0.20807(4)
C20 C 0.04406(4) 0.79193(4) 0.18324(4)
C21 C 0.20807(4) 0.81676(4) 0.04406(4)
C25 C 0.20807(4) 0.95594(4) 0.31676(4)
C26 C 0.18324(4) 0.79193(4) 0.45594(4)
C27 C 0.04406(4) 0.81676(4) 0.29193(4)
C42 C 0.16588(5) 0.92650(4) 0.19621(4)
C43 C 0.07350(4) 0.80379(4) 0.16588(5)
C44 C 0.19621(4) 0.83412(5) 0.07350(4)
C48 C 0.19621(4) 0.92650(4) 0.33412(5)
C49 C 0.16588(5) 0.80379(4) 0.42650(4)
C50 C 0.07350(4) 0.83412(5) 0.30379(4)
C65 C 0.17675(5) 0.91056(4) 0.16920(4)
C66 C 0.08944(4) 0.83080(4) 0.17675(5)
C67 C 0.16920(4) 0.82325(5) 0.08944(4)
C71 C 0.16920(4) 0.91056(4) 0.32325(5)
C72 C 0.17675(5) 0.83080(4) 0.41056(4)
C73 C 0.08944(4) 0.82325(5) 0.33080(4)
H15 H 0.1947 0.9185 0.1584
H16 H 0.1584 0.8053 0.0815
H17 H 0.0815 0.8416 0.1947
H21 H 0.1584 0.9185 0.3053
H22 H 0.0815 0.8053 0.3416
H23 H 0.1947 0.8416 0.4185
C88 C 0.16165(5) 0.88271(5) 0.15746(5)
C89 C 0.11729(5) 0.84254(5) 0.16165(5)
C90 C 0.15746(5) 0.83835(5) 0.11729(5)
C94 C 0.15746(5) 0.88271(5) 0.33835(5)
C95 C 0.16165(5) 0.84254(5) 0.38271(5)
C96 C 0.11729(5) 0.83835(5) 0.34254(5)
C111 C 0.13404(5) 0.87108(5) 0.17366(5)
C112 C 0.12892(5) 0.82634(5) 0.13404(5)
C113 C 0.17366(5) 0.86596(5) 0.12892(5)
C117 C 0.17366(5) 0.87108(5) 0.36596(5)
C118 C 0.13404(5) 0.82634(5) 0.37108(5)
C119 C 0.12892(5) 0.86596(5) 0.32634(5)
C134 C 0.12362(6) 0.88759(6) 0.20130(6)
C135 C 0.11241(6) 0.79870(6) 0.12362(6)
C136 C 0.20130(6) 0.87638(6) 0.11241(6)
C140 C 0.20130(6) 0.88759(6) 0.37638(6)
C141 C 0.12362(6) 0.79870(6) 0.38759(6)
C142 C 0.11241(6) 0.87638(6) 0.29870(6)
H38 H 0.1057 0.8800 0.2124
H39 H 0.2124 0.8943 0.1200
H40 H 0.1200 0.7876 0.1057
H44 H 0.2124 0.8800 0.3943
H45 H 0.1200 0.8943 0.2876
H46 H 0.1057 0.7876 0.3800
C157 C 0.13914(6) 0.91454(5) 0.21242(5)
C158 C 0.08546(5) 0.78758(5) 0.13914(6)
C159 C 0.21242(5) 0.86086(6) 0.08546(5)
C163 C 0.21242(5) 0.91454(5) 0.36086(6)
C164 C 0.13914(6) 0.78758(5) 0.41454(5)
C165 C 0.08546(5) 0.86086(6) 0.28758(5)
H61 H 0.1317 0.9249 0.2309
H62 H 0.2309 0.8683 0.0751
H63 H 0.0751 0.7691 0.1317
H67 H 0.2309 0.9249 0.3683
H68 H 0.0751 0.8683 0.2691
H69 H 0.1317 0.7691 0.4249
O46 O 0.20463(4) 0.96651(4) 0.19033(3)
O47 O 0.03349(4) 0.80967(3) 0.20463(4)
O48 O 0.19033(3) 0.79537(4) 0.03349(4)
O52 O 0.19033(3) 0.96651(4) 0.29537(4)
O53 O 0.20463(4) 0.80967(3) 0.46651(4)
O54 O 0.03349(4) 0.79537(4) 0.30967(3)
Cu4_2 Cu 0.190603(6) 1.0000 0.737095(6)
Cu10_2 Cu 0.237095(6) 1.0000 0.809397(6)
Cu18_2 Cu 0.309397(6) 1.0000 0.762905(6)
Cu22_2 Cu 0.262905(6) 0.809397(6) 1.0000
Cu23_2 Cu 0.190603(6) 0.762905(6) 1.0000
Cl4_2 Cl 0.2500 1.0000 0.7500
O26 O 0.17463(4) 0.96676(3) 0.76558(3)
O31 O 0.26558(3) 0.96676(3) 0.82537(4)
O61 O 0.19033(3) 0.96651(4) 0.70463(4)
O70 O 0.20463(4) 0.96651(4) 0.80967(3)
Cu3_2 Cu 1.0000 0.262905(6) 0.190603(6)
Cu12_2 Cu 1.0000 0.190603(6) 0.237095(6)
Cu26_2 Cu 1.0000 0.237095(6) 0.309397(6)
Cu30_2 Cu 1.0000 0.309397(6) 0.262905(6)
Cu31 Cu 0.737095(6) 0.190603(6) 0.0000
Cu32 Cu 0.809397(6) 0.237095(6) 0.0000
Cu33 Cu 0.809397(6) 0.0000 0.262905(6)
Cu34 Cu 0.762905(6) 0.0000 0.190603(6)
Cl3_2 Cl 1.0000 0.2500 0.2500
O23 O 0.96676(3) 0.23442(3) 0.17463(4)
O24 O 0.76558(3) 0.17463(4) 0.03324(3)
O25 O 0.82537(4) 0.03324(3) 0.23442(3)
O34 O 0.96676(3) 0.17463(4) 0.26558(3)
C28 C 0.95594(4) 0.20807(4) 0.18324(4)
C29 C 0.79193(4) 0.18324(4) 0.04406(4)
C30 C 0.81676(4) 0.04406(4) 0.20807(4)
C51 C 0.92650(4) 0.19621(4) 0.16588(5)
C52 C 0.80379(4) 0.16588(5) 0.07350(4)
C53 C 0.83412(5) 0.07350(4) 0.19621(4)
C74 C 0.91056(4) 0.16920(4) 0.17675(5)
C75 C 0.83080(4) 0.17675(5) 0.08944(4)
C76 C 0.82325(5) 0.08944(4) 0.16920(4)
H24 H 0.9185 0.1584 0.1947
H25 H 0.8053 0.0815 0.1584
H26 H 0.8416 0.1947 0.0815
C97 C 0.88271(5) 0.15746(5) 0.16165(5)
C98 C 0.84254(5) 0.16165(5) 0.11729(5)
C99 C 0.83835(5) 0.11729(5) 0.15746(5)
C120 C 0.87108(5) 0.17366(5) 0.13404(5)
C121 C 0.82634(5) 0.13404(5) 0.12892(5)
C122 C 0.86596(5) 0.12892(5) 0.17366(5)
C143 C 0.88759(6) 0.20130(6) 0.12362(6)
C144 C 0.79870(6) 0.12362(6) 0.11241(6)
C145 C 0.87638(6) 0.11241(6) 0.20130(6)
H47 H 0.8800 0.2124 0.1057
H48 H 0.8943 0.1200 0.2124
H49 H 0.7876 0.1057 0.1200
C166 C 0.91454(5) 0.21242(5) 0.13914(6)
C167 C 0.78758(5) 0.13914(6) 0.08546(5)
C168 C 0.86086(6) 0.08546(5) 0.21242(5)
H70 H 0.9249 0.2309 0.1317
H71 H 0.8683 0.0751 0.2309
H72 H 0.7691 0.1317 0.0751
O55 O 0.96651(4) 0.19033(3) 0.20463(4)
O56 O 0.80967(3) 0.20463(4) 0.03349(4)
O57 O 0.79537(4) 0.03349(4) 0.19033(3)
O59 O 0.96651(4) 0.29537(4) 0.19033(3)
Cu5_2 Cu 1.0000 0.262905(6) 0.809397(6)
Cu14_2 Cu 1.0000 0.190603(6) 0.762905(6)
Cu31_2 Cu 0.737095(6) 0.190603(6) 1.0000
Cu32_2 Cu 0.809397(6) 0.237095(6) 1.0000
Cl5_2 Cl 1.0000 0.2500 0.7500
O27 O 0.96676(3) 0.23442(3) 0.82537(4)
O63 O 0.96651(4) 0.29537(4) 0.80967(3)
Cu20_2 Cu 1.0000 0.737095(6) 0.190603(6)
Cu21_2 Cu 1.0000 0.809397(6) 0.237095(6)
Cu29_2 Cu 1.0000 0.762905(6) 0.309397(6)
Cu33_2 Cu 0.809397(6) 1.0000 0.262905(6)
Cu34_2 Cu 0.762905(6) 1.0000 0.190603(6)
Cu8_3 Cu 0.0000 0.237095(6) 0.690603(6)
Cu16_3 Cu 0.0000 0.309397(6) 0.737095(6)
Cu20_3 Cu 0.262905(6) 0.0000 0.690603(6)
O14_2 O 0.03324(3) 0.17463(4) 0.73442(3)
O15_2 O 0.23442(3) 0.03324(3) 0.67463(4)
O16_2 O 0.17463(4) 0.23442(3) 0.53324(3)
O29_2 O 0.03324(3) 0.26558(3) 0.67463(4)
O31_2 O 0.03324(3) 0.26558(3) 0.32537(4)
C19_2 C 0.04406(4) 0.18324(4) 0.70807(4)
C20_2 C 0.20807(4) 0.04406(4) 0.68324(4)
C21_2 C 0.18324(4) 0.20807(4) 0.54406(4)
C42_2 C 0.07350(4) 0.16588(5) 0.69621(4)
C43_2 C 0.19621(4) 0.07350(4) 0.66588(5)
C44_2 C 0.16588(5) 0.19621(4) 0.57350(4)
C65_2 C 0.08944(4) 0.17675(5) 0.66920(4)
C66_2 C 0.16920(4) 0.08944(4) 0.67675(5)
C67_2 C 0.17675(5) 0.16920(4) 0.58944(4)
H15_2 H 0.0815 0.1947 0.6584
H16_2 H 0.1947 0.1584 0.5815
H17_2 H 0.1584 0.0815 0.6947
C88_2 C 0.11729(5) 0.16165(5) 0.65746(5)
C89_2 C 0.15746(5) 0.11729(5) 0.66165(5)
C90_2 C 0.16165(5) 0.15746(5) 0.61729(5)
C111_2 C 0.12892(5) 0.13404(5) 0.67366(5)
C112_2 C 0.17366(5) 0.12892(5) 0.63404(5)
C113_2 C 0.13404(5) 0.17366(5) 0.62892(5)
C134_2 C 0.11241(6) 0.12362(6) 0.70130(6)
C135_2 C 0.20130(6) 0.11241(6) 0.62362(6)
C136_2 C 0.12362(6) 0.20130(6) 0.61241(6)
H38_2 H 0.1200 0.1057 0.7124
H39_2 H 0.1057 0.2124 0.6200
H40_2 H 0.2124 0.1200 0.6057
C157_2 C 0.08546(5) 0.13914(6) 0.71242(5)
C158_2 C 0.21242(5) 0.08546(5) 0.63914(6)
C159_2 C 0.13914(6) 0.21242(5) 0.58546(5)
H61_2 H 0.0751 0.1317 0.7309
H62_2 H 0.1317 0.2309 0.5751
H63_2 H 0.2309 0.0751 0.6317
O46_2 O 0.03349(4) 0.20463(4) 0.69033(3)
O48_2 O 0.20463(4) 0.19033(3) 0.53349(4)
Cu20_4 Cu 0.262905(6) 1.0000 0.690603(6)
Cu33_3 Cu 0.0000 0.809397(6) 0.762905(6)
Cu34_3 Cu 0.0000 0.762905(6) 0.690603(6)
Cu1_3 Cu 0.809397(6) 0.262905(6) 0.5000
Cl1_3 Cl 0.7500 0.2500 0.5000
O1_2 O 0.82537(4) 0.23442(3) 0.53324(3)
C1_2 C 0.81676(4) 0.20807(4) 0.54406(4)
C2_2 C 0.83412(5) 0.19621(4) 0.57350(4)
C3_2 C 0.82325(5) 0.16920(4) 0.58944(4)
H1_2 H 0.8053 0.1584 0.5815
C4_2 C 0.83835(5) 0.15746(5) 0.61729(5)
C5_2 C 0.86596(5) 0.17366(5) 0.62892(5)
C6_2 C 0.87638(6) 0.20130(6) 0.61241(6)
H2_2 H 0.8943 0.2124 0.6200
C7_2 C 0.86086(6) 0.21242(5) 0.58546(5)
H3_2 H 0.8683 0.2309 0.5751
O2_2 O 0.79537(4) 0.19033(3) 0.53349(4)
Cu3_3 Cu 0.737095(6) 0.0000 0.690603(6)
Cu5_3 Cu 0.737095(6) 0.0000 0.309397(6)
Cu6_3 Cu 0.737095(6) 0.309397(6) 0.5000
Cu7_2 Cu 0.809397(6) 0.5000 0.762905(6)
Cu8_4 Cu 1.0000 0.237095(6) 0.690603(6)
Cu9_2 Cu 0.809397(6) 0.5000 0.237095(6)
Cu11_3 Cu 0.762905(6) 0.190603(6) 0.5000
Cu12_3 Cu 0.809397(6) 0.0000 0.737095(6)
Cu13_3 Cu 0.690603(6) 0.237095(6) 0.5000
Cu15_2 Cu 0.762905(6) 0.5000 0.690603(6)
Cu16_4 Cu 1.0000 0.309397(6) 0.737095(6)
Cu17_2 Cu 0.762905(6) 0.5000 0.309397(6)
Cu26_3 Cu 0.762905(6) 0.0000 0.809397(6)
Cu30_3 Cu 0.690603(6) 0.0000 0.762905(6)
Cl3_3 Cl 0.7500 0.0000 0.7500
Cl5_3 Cl 0.7500 0.0000 0.2500
Cl6_2 Cl 0.7500 0.5000 0.7500
Cl7_2 Cl 0.7500 0.5000 0.2500
O3_2 O 0.96676(3) 0.17463(4) 0.73442(3)
O4_2 O 0.76558(3) 0.03324(3) 0.67463(4)
O5_2 O 0.82537(4) 0.23442(3) 0.46676(3)
O7_2 O 0.76558(3) 0.03324(3) 0.32537(4)
O8_2 O 0.76558(3) 0.32537(4) 0.53324(3)
O9_2 O 0.82537(4) 0.46676(3) 0.73442(3)
O10_2 O 0.96676(3) 0.26558(3) 0.67463(4)
O11_2 O 0.76558(3) 0.32537(4) 0.46676(3)
O12_2 O 0.82537(4) 0.46676(3) 0.26558(3)
O13_2 O 0.96676(3) 0.26558(3) 0.32537(4)
O18_2 O 0.76558(3) 0.17463(4) 0.96676(3)
O19_2 O 0.82537(4) 0.03324(3) 0.76558(3)
O28_2 O 0.82537(4) 0.53324(3) 0.73442(3)
O30_2 O 0.82537(4) 0.53324(3) 0.26558(3)
O32_2 O 0.73442(3) 0.17463(4) 0.53324(3)
O33_2 O 0.73442(3) 0.17463(4) 0.46676(3)
C8_2 C 0.95594(4) 0.18324(4) 0.70807(4)
C9_2 C 0.79193(4) 0.04406(4) 0.68324(4)
C10_2 C 0.81676(4) 0.20807(4) 0.45594(4)
C11_2 C 0.95594(4) 0.18324(4) 0.29193(4)
C12_2 C 0.79193(4) 0.04406(4) 0.31676(4)
C13_2 C 0.79193(4) 0.31676(4) 0.54406(4)
C14_2 C 0.81676(4) 0.45594(4) 0.70807(4)
C15_2 C 0.95594(4) 0.29193(4) 0.68324(4)
C16_2 C 0.79193(4) 0.31676(4) 0.45594(4)
C17_2 C 0.81676(4) 0.45594(4) 0.29193(4)
C18_2 C 0.95594(4) 0.29193(4) 0.31676(4)
C22_2 C 0.95594(4) 0.20807(4) 0.81676(4)
C23_2 C 0.79193(4) 0.18324(4) 0.95594(4)
C24_2 C 0.81676(4) 0.04406(4) 0.79193(4)
C31_2 C 0.92650(4) 0.16588(5) 0.69621(4)
C32_2 C 0.80379(4) 0.07350(4) 0.66588(5)
C33_2 C 0.83412(5) 0.19621(4) 0.42650(4)
C34_2 C 0.92650(4) 0.16588(5) 0.30379(4)
C35_2 C 0.80379(4) 0.07350(4) 0.33412(5)
C36_2 C 0.80379(4) 0.33412(5) 0.57350(4)
C37_2 C 0.83412(5) 0.42650(4) 0.69621(4)
C38_2 C 0.92650(4) 0.30379(4) 0.66588(5)
C39_2 C 0.80379(4) 0.33412(5) 0.42650(4)
C40_2 C 0.83412(5) 0.42650(4) 0.30379(4)
C41_2 C 0.92650(4) 0.30379(4) 0.33412(5)
C45_2 C 0.92650(4) 0.19621(4) 0.83412(5)
C46_2 C 0.80379(4) 0.16588(5) 0.92650(4)
C47_2 C 0.83412(5) 0.07350(4) 0.80379(4)
C54_2 C 0.91056(4) 0.17675(5) 0.66920(4)
C55_2 C 0.83080(4) 0.08944(4) 0.67675(5)
C56_2 C 0.82325(5) 0.16920(4) 0.41056(4)
C57_2 C 0.91056(4) 0.17675(5) 0.33080(4)
C58_2 C 0.83080(4) 0.08944(4) 0.32325(5)
C59_2 C 0.83080(4) 0.32325(5) 0.58944(4)
C60_2 C 0.82325(5) 0.41056(4) 0.66920(4)
C61_2 C 0.91056(4) 0.33080(4) 0.67675(5)
C62_2 C 0.83080(4) 0.32325(5) 0.41056(4)
C63_2 C 0.82325(5) 0.41056(4) 0.33080(4)
C64_2 C 0.91056(4) 0.33080(4) 0.32325(5)
C68_2 C 0.91056(4) 0.16920(4) 0.82325(5)
C69_2 C 0.83080(4) 0.17675(5) 0.91056(4)
C70_2 C 0.82325(5) 0.08944(4) 0.83080(4)
H4_2 H 0.8416 0.0815 0.6947
H5_2 H 0.9185 0.1947 0.6584
H6_2 H 0.8053 0.1584 0.4185
H7_2 H 0.8416 0.0815 0.3053
H8_2 H 0.9185 0.1947 0.3416
H9_2 H 0.8416 0.3053 0.5815
H10_2 H 0.9185 0.3416 0.6947
H11_2 H 0.8053 0.4185 0.6584
H12_2 H 0.8416 0.3053 0.4185
H13_2 H 0.9185 0.3416 0.3053
H14_2 H 0.8053 0.4185 0.3416
H18_2 H 0.9185 0.1584 0.8053
H19_2 H 0.8053 0.0815 0.8416
H20_2 H 0.8416 0.1947 0.9185
C77_2 C 0.88271(5) 0.16165(5) 0.65746(5)
C78_2 C 0.84254(5) 0.11729(5) 0.66165(5)
C79_2 C 0.83835(5) 0.15746(5) 0.38271(5)
C80_2 C 0.88271(5) 0.16165(5) 0.34254(5)
C81_2 C 0.84254(5) 0.11729(5) 0.33835(5)
C82_2 C 0.84254(5) 0.33835(5) 0.61729(5)
C83_2 C 0.83835(5) 0.38271(5) 0.65746(5)
C84_2 C 0.88271(5) 0.34254(5) 0.66165(5)
C85_2 C 0.84254(5) 0.33835(5) 0.38271(5)
C86_2 C 0.83835(5) 0.38271(5) 0.34254(5)
C87_2 C 0.88271(5) 0.34254(5) 0.33835(5)
C91_2 C 0.88271(5) 0.15746(5) 0.83835(5)
C92_2 C 0.84254(5) 0.16165(5) 0.88271(5)
C93_2 C 0.83835(5) 0.11729(5) 0.84254(5)
C100_2 C 0.87108(5) 0.13404(5) 0.67366(5)
C101_2 C 0.82634(5) 0.12892(5) 0.63404(5)
C102_2 C 0.86596(5) 0.17366(5) 0.37108(5)
C103_2 C 0.87108(5) 0.13404(5) 0.32634(5)
C104_2 C 0.82634(5) 0.12892(5) 0.36596(5)
C105_2 C 0.82634(5) 0.36596(5) 0.62892(5)
C106_2 C 0.86596(5) 0.37108(5) 0.67366(5)
C107_2 C 0.87108(5) 0.32634(5) 0.63404(5)
C108_2 C 0.82634(5) 0.36596(5) 0.37108(5)
C109_2 C 0.86596(5) 0.37108(5) 0.32634(5)
C110_2 C 0.87108(5) 0.32634(5) 0.36596(5)
C114_2 C 0.87108(5) 0.17366(5) 0.86596(5)
C115_2 C 0.82634(5) 0.13404(5) 0.87108(5)
C116_2 C 0.86596(5) 0.12892(5) 0.82634(5)
C123_2 C 0.88759(6) 0.12362(6) 0.70130(6)
C124_2 C 0.79870(6) 0.11241(6) 0.62362(6)
C125_2 C 0.87638(6) 0.20130(6) 0.38759(6)
C126_2 C 0.88759(6) 0.12362(6) 0.29870(6)
C127_2 C 0.79870(6) 0.11241(6) 0.37638(6)
C128_2 C 0.79870(6) 0.37638(6) 0.61241(6)
C129_2 C 0.87638(6) 0.38759(6) 0.70130(6)
C130_2 C 0.88759(6) 0.29870(6) 0.62362(6)
C131_2 C 0.79870(6) 0.37638(6) 0.38759(6)
C132_2 C 0.87638(6) 0.38759(6) 0.29870(6)
C133_2 C 0.88759(6) 0.29870(6) 0.37638(6)
C137_2 C 0.88759(6) 0.20130(6) 0.87638(6)
C138_2 C 0.79870(6) 0.12362(6) 0.88759(6)
C139_2 C 0.87638(6) 0.11241(6) 0.79870(6)
H27_2 H 0.7876 0.1200 0.6057
H28_2 H 0.8800 0.1057 0.7124
H29_2 H 0.8943 0.2124 0.3800
H30_2 H 0.7876 0.1200 0.3943
H31_2 H 0.8800 0.1057 0.2876
H32_2 H 0.7876 0.3943 0.6200
H33_2 H 0.8800 0.2876 0.6057
H34_2 H 0.8943 0.3800 0.7124
H35_2 H 0.7876 0.3943 0.3800
H36_2 H 0.8800 0.2876 0.3943
H37_2 H 0.8943 0.3800 0.2876
H41_2 H 0.8800 0.2124 0.8943
H42_2 H 0.8943 0.1200 0.7876
H43_2 H 0.7876 0.1057 0.8800
C146_2 C 0.91454(5) 0.13914(6) 0.71242(5)
C147_2 C 0.78758(5) 0.08546(5) 0.63914(6)
C148_2 C 0.86086(6) 0.21242(5) 0.41454(5)
C149_2 C 0.91454(5) 0.13914(6) 0.28758(5)
C150_2 C 0.78758(5) 0.08546(5) 0.36086(6)
C151_2 C 0.78758(5) 0.36086(6) 0.58546(5)
C152_2 C 0.86086(6) 0.41454(5) 0.71242(5)
C153_2 C 0.91454(5) 0.28758(5) 0.63914(6)
C154_2 C 0.78758(5) 0.36086(6) 0.41454(5)
C155_2 C 0.86086(6) 0.41454(5) 0.28758(5)
C156_2 C 0.91454(5) 0.28758(5) 0.36086(6)
C160_2 C 0.91454(5) 0.21242(5) 0.86086(6)
C161_2 C 0.78758(5) 0.13914(6) 0.91454(5)
C162_2 C 0.86086(6) 0.08546(5) 0.78758(5)
H50_2 H 0.7691 0.0751 0.6317
H51_2 H 0.9249 0.1317 0.7309
H52_2 H 0.8683 0.2309 0.4249
H53_2 H 0.7691 0.0751 0.3683
H54_2 H 0.9249 0.1317 0.2691
H55_2 H 0.7691 0.3683 0.5751
H56_2 H 0.9249 0.2691 0.6317
H57_2 H 0.8683 0.4249 0.7309
H58_2 H 0.7691 0.3683 0.4249
H59_2 H 0.9249 0.2691 0.3683
H60_2 H 0.8683 0.4249 0.2691
H64_2 H 0.9249 0.2309 0.8683
H65_2 H 0.8683 0.0751 0.7691
H66_2 H 0.7691 0.1317 0.9249
O35_2 O 0.96651(4) 0.20463(4) 0.69033(3)
O36_2 O 0.80967(3) 0.03349(4) 0.70463(4)
O37_2 O 0.79537(4) 0.19033(3) 0.46651(4)
O38_2 O 0.96651(4) 0.20463(4) 0.30967(3)
O39_2 O 0.80967(3) 0.03349(4) 0.29537(4)
O40_2 O 0.80967(3) 0.29537(4) 0.53349(4)
O41_2 O 0.79537(4) 0.46651(4) 0.69033(3)
O42_2 O 0.96651(4) 0.30967(3) 0.70463(4)
O43_2 O 0.80967(3) 0.29537(4) 0.46651(4)
O44_2 O 0.79537(4) 0.46651(4) 0.30967(3)
O45_2 O 0.96651(4) 0.30967(3) 0.29537(4)
O49_2 O 0.96651(4) 0.19033(3) 0.79537(4)
O50_2 O 0.80967(3) 0.20463(4) 0.96651(4)
O51_2 O 0.79537(4) 0.03349(4) 0.80967(3)
O58_2 O 0.70463(4) 0.03349(4) 0.69033(3)
O62_2 O 0.70463(4) 0.03349(4) 0.30967(3)
O64_2 O 0.70463(4) 0.30967(3) 0.53349(4)
O65_2 O 0.70463(4) 0.30967(3) 0.46651(4)
O66_2 O 0.80967(3) 0.46651(4) 0.79537(4)
O67_2 O 0.80967(3) 0.53349(4) 0.79537(4)
O68_2 O 0.80967(3) 0.46651(4) 0.20463(4)
O69_2 O 0.80967(3) 0.53349(4) 0.20463(4)
Cu3_4 Cu 0.737095(6) 1.0000 0.690603(6)
Cu5_4 Cu 0.737095(6) 1.0000 0.309397(6)
Cu12_4 Cu 0.809397(6) 1.0000 0.737095(6)
Cu26_4 Cu 0.762905(6) 1.0000 0.809397(6)
Cu30_4 Cu 0.690603(6) 1.0000 0.762905(6)
Cu31_3 Cu 0.809397(6) 0.737095(6) 0.5000
Cu32_3 Cu 0.762905(6) 0.809397(6) 0.5000
Cu33_4 Cu 1.0000 0.809397(6) 0.762905(6)
Cu34_4 Cu 1.0000 0.762905(6) 0.690603(6)
Cl3_4 Cl 0.7500 1.0000 0.7500
Cl5_4 Cl 0.7500 1.0000 0.2500
O23_2 O 0.76558(3) 0.96676(3) 0.67463(4)
O24_2 O 0.82537(4) 0.76558(3) 0.53324(3)
O25_2 O 0.96676(3) 0.82537(4) 0.73442(3)
O27_2 O 0.76558(3) 0.96676(3) 0.32537(4)
O34_2 O 0.82537(4) 0.96676(3) 0.76558(3)
C28_2 C 0.79193(4) 0.95594(4) 0.68324(4)
C29_2 C 0.81676(4) 0.79193(4) 0.54406(4)
C30_2 C 0.95594(4) 0.81676(4) 0.70807(4)
C51_2 C 0.80379(4) 0.92650(4) 0.66588(5)
C52_2 C 0.83412(5) 0.80379(4) 0.57350(4)
C53_2 C 0.92650(4) 0.83412(5) 0.69621(4)
C74_2 C 0.83080(4) 0.91056(4) 0.67675(5)
C75_2 C 0.82325(5) 0.83080(4) 0.58944(4)
C76_2 C 0.91056(4) 0.82325(5) 0.66920(4)
H24_2 H 0.8416 0.9185 0.6947
H25_2 H 0.9185 0.8053 0.6584
H26_2 H 0.8053 0.8416 0.5815
C97_2 C 0.84254(5) 0.88271(5) 0.66165(5)
C98_2 C 0.83835(5) 0.84254(5) 0.61729(5)
C99_2 C 0.88271(5) 0.83835(5) 0.65746(5)
C120_2 C 0.82634(5) 0.87108(5) 0.63404(5)
C121_2 C 0.86596(5) 0.82634(5) 0.62892(5)
C122_2 C 0.87108(5) 0.86596(5) 0.67366(5)
C143_2 C 0.79870(6) 0.88759(6) 0.62362(6)
C144_2 C 0.87638(6) 0.79870(6) 0.61241(6)
C145_2 C 0.88759(6) 0.87638(6) 0.70130(6)
H47_2 H 0.7876 0.8800 0.6057
H48_2 H 0.8800 0.8943 0.7124
H49_2 H 0.8943 0.7876 0.6200
C166_2 C 0.78758(5) 0.91454(5) 0.63914(6)
C167_2 C 0.86086(6) 0.78758(5) 0.58546(5)
C168_2 C 0.91454(5) 0.86086(6) 0.71242(5)
H70_2 H 0.7691 0.9249 0.6317
H71_2 H 0.9249 0.8683 0.7309
H72_2 H 0.8683 0.7691 0.5751
O55_2 O 0.80967(3) 0.96651(4) 0.70463(4)
O56_2 O 0.79537(4) 0.80967(3) 0.53349(4)
O57_2 O 0.96651(4) 0.79537(4) 0.69033(3)
O59_2 O 0.70463(4) 0.96651(4) 0.69033(3)
O63_2 O 0.70463(4) 0.96651(4) 0.30967(3)
Cu30_5 Cu 0.0000 0.690603(6) 0.262905(6)
Cl3_5 Cl -0.0000 0.7500 0.2500
O59_3 O 0.03349(4) 0.70463(4) 0.19033(3)
Cu5_5 Cu 0.0000 0.737095(6) 0.809397(6)
Cl5_5 Cl 0.0000 0.7500 0.7500
O27_3 O 0.03324(3) 0.76558(3) 0.82537(4)
O63_3 O 0.03349(4) 0.70463(4) 0.80967(3)
Cu16_5 Cu 0.690603(6) 0.0000 0.237095(6)
O29_3 O 0.73442(3) 0.03324(3) 0.17463(4)
O31_3 O 0.73442(3) 0.03324(3) 0.82537(4)
Cu1_4 Cu 0.737095(6) 0.809397(6) 0.0000
Cl1_4 Cl 0.7500 0.7500 0.0000
O1_3 O 0.76558(3) 0.82537(4) 0.03324(3)
C1_3 C 0.79193(4) 0.81676(4) 0.04406(4)
C2_3 C 0.80379(4) 0.83412(5) 0.07350(4)
C3_3 C 0.83080(4) 0.82325(5) 0.08944(4)
H1_3 H 0.8416 0.8053 0.0815
C4_3 C 0.84254(5) 0.83835(5) 0.11729(5)
C5_3 C 0.82634(5) 0.86596(5) 0.12892(5)
C6_3 C 0.79870(6) 0.87638(6) 0.11241(6)
H2_3 H 0.7876 0.8943 0.1200
C7_3 C 0.78758(5) 0.86086(6) 0.08546(5)
H3_3 H 0.7691 0.8683 0.0751
O2_3 O 0.80967(3) 0.79537(4) 0.03349(4)
Cu6_4 Cu 0.690603(6) 0.737095(6) 0.0000
Cu7_3 Cu 0.5000 0.809397(6) 0.262905(6)
Cu11_4 Cu 0.809397(6) 0.762905(6) 0.0000
Cu13_4 Cu 0.762905(6) 0.690603(6) 0.0000
Cu15_3 Cu 0.5000 0.762905(6) 0.190603(6)
Cu16_6 Cu 0.690603(6) 1.0000 0.237095(6)
Cu30_6 Cu 1.0000 0.690603(6) 0.262905(6)
Cl3_6 Cl 1.0000 0.7500 0.2500
Cl6_3 Cl 0.5000 0.7500 0.2500
O3_3 O 0.82537(4) 0.96676(3) 0.23442(3)
O4_3 O 0.96676(3) 0.76558(3) 0.17463(4)
O8_3 O 0.67463(4) 0.76558(3) 0.03324(3)
O9_3 O 0.53324(3) 0.82537(4) 0.23442(3)
O10_3 O 0.73442(3) 0.96676(3) 0.17463(4)
O18_3 O 0.82537(4) 0.76558(3) 0.46676(3)
O19_3 O 0.96676(3) 0.82537(4) 0.26558(3)
O28_3 O 0.46676(3) 0.82537(4) 0.23442(3)
O32_3 O 0.82537(4) 0.73442(3) 0.03324(3)
C8_3 C 0.81676(4) 0.95594(4) 0.20807(4)
C9_3 C 0.95594(4) 0.79193(4) 0.18324(4)
C13_3 C 0.68324(4) 0.79193(4) 0.04406(4)
C14_3 C 0.54406(4) 0.81676(4) 0.20807(4)
C15_3 C 0.70807(4) 0.95594(4) 0.18324(4)
C22_3 C 0.79193(4) 0.95594(4) 0.31676(4)
C23_3 C 0.81676(4) 0.79193(4) 0.45594(4)
C24_3 C 0.95594(4) 0.81676(4) 0.29193(4)
C31_3 C 0.83412(5) 0.92650(4) 0.19621(4)
C32_3 C 0.92650(4) 0.80379(4) 0.16588(5)
C36_3 C 0.66588(5) 0.80379(4) 0.07350(4)
C37_3 C 0.57350(4) 0.83412(5) 0.19621(4)
C38_3 C 0.69621(4) 0.92650(4) 0.16588(5)
C45_3 C 0.80379(4) 0.92650(4) 0.33412(5)
C46_3 C 0.83412(5) 0.80379(4) 0.42650(4)
C47_3 C 0.92650(4) 0.83412(5) 0.30379(4)
C54_3 C 0.82325(5) 0.91056(4) 0.16920(4)
C55_3 C 0.91056(4) 0.83080(4) 0.17675(5)
C59_3 C 0.67675(5) 0.83080(4) 0.08944(4)
C60_3 C 0.58944(4) 0.82325(5) 0.16920(4)
C61_3 C 0.66920(4) 0.91056(4) 0.17675(5)
C68_3 C 0.83080(4) 0.91056(4) 0.32325(5)
C69_3 C 0.82325(5) 0.83080(4) 0.41056(4)
C70_3 C 0.91056(4) 0.82325(5) 0.33080(4)
H4_3 H 0.9185 0.8416 0.1947
H5_3 H 0.8053 0.9185 0.1584
H9_3 H 0.6947 0.8416 0.0815
H10_3 H 0.6584 0.9185 0.1947
H11_3 H 0.5815 0.8053 0.1584
H18_3 H 0.8416 0.9185 0.3053
H19_3 H 0.9185 0.8053 0.3416
H20_3 H 0.8053 0.8416 0.4185
C77_3 C 0.83835(5) 0.88271(5) 0.15746(5)
C78_3 C 0.88271(5) 0.84254(5) 0.16165(5)
C82_3 C 0.66165(5) 0.84254(5) 0.11729(5)
C83_3 C 0.61729(5) 0.83835(5) 0.15746(5)
C84_3 C 0.65746(5) 0.88271(5) 0.16165(5)
C91_3 C 0.84254(5) 0.88271(5) 0.33835(5)
C92_3 C 0.83835(5) 0.84254(5) 0.38271(5)
C93_3 C 0.88271(5) 0.83835(5) 0.34254(5)
C100_3 C 0.86596(5) 0.87108(5) 0.17366(5)
C101_3 C 0.87108(5) 0.82634(5) 0.13404(5)
C105_3 C 0.63404(5) 0.82634(5) 0.12892(5)
C106_3 C 0.62892(5) 0.86596(5) 0.17366(5)
C107_3 C 0.67366(5) 0.87108(5) 0.13404(5)
C114_3 C 0.82634(5) 0.87108(5) 0.36596(5)
C115_3 C 0.86596(5) 0.82634(5) 0.37108(5)
C116_3 C 0.87108(5) 0.86596(5) 0.32634(5)
C123_3 C 0.87638(6) 0.88759(6) 0.20130(6)
C124_3 C 0.88759(6) 0.79870(6) 0.12362(6)
C128_3 C 0.62362(6) 0.79870(6) 0.11241(6)
C129_3 C 0.61241(6) 0.87638(6) 0.20130(6)
C130_3 C 0.70130(6) 0.88759(6) 0.12362(6)
C137_3 C 0.79870(6) 0.88759(6) 0.37638(6)
C138_3 C 0.87638(6) 0.79870(6) 0.38759(6)
C139_3 C 0.88759(6) 0.87638(6) 0.29870(6)
H27_3 H 0.8800 0.7876 0.1057
H28_3 H 0.8943 0.8800 0.2124
H32_3 H 0.6057 0.7876 0.1200
H33_3 H 0.7124 0.8800 0.1057
H34_3 H 0.6200 0.8943 0.2124
H41_3 H 0.7876 0.8800 0.3943
H42_3 H 0.8800 0.8943 0.2876
H43_3 H 0.8943 0.7876 0.3800
C146_3 C 0.86086(6) 0.91454(5) 0.21242(5)
C147_3 C 0.91454(5) 0.78758(5) 0.13914(6)
C151_3 C 0.63914(6) 0.78758(5) 0.08546(5)
C152_3 C 0.58546(5) 0.86086(6) 0.21242(5)
C153_3 C 0.71242(5) 0.91454(5) 0.13914(6)
C160_3 C 0.78758(5) 0.91454(5) 0.36086(6)
C161_3 C 0.86086(6) 0.78758(5) 0.41454(5)
C162_3 C 0.91454(5) 0.86086(6) 0.28758(5)
H50_3 H 0.9249 0.7691 0.1317
H51_3 H 0.8683 0.9249 0.2309
H55_3 H 0.6317 0.7691 0.0751
H56_3 H 0.7309 0.9249 0.1317
H57_3 H 0.5751 0.8683 0.2309
H64_3 H 0.7691 0.9249 0.3683
H65_3 H 0.9249 0.8683 0.2691
H66_3 H 0.8683 0.7691 0.4249
O35_3 O 0.79537(4) 0.96651(4) 0.19033(3)
O36_3 O 0.96651(4) 0.80967(3) 0.20463(4)
O40_3 O 0.70463(4) 0.80967(3) 0.03349(4)
O41_3 O 0.53349(4) 0.79537(4) 0.19033(3)
O42_3 O 0.69033(3) 0.96651(4) 0.20463(4)
O49_3 O 0.80967(3) 0.96651(4) 0.29537(4)
O50_3 O 0.79537(4) 0.80967(3) 0.46651(4)
O51_3 O 0.96651(4) 0.79537(4) 0.30967(3)
O58_3 O 0.96651(4) 0.70463(4) 0.19033(3)
O64_3 O 0.69033(3) 0.70463(4) 0.03349(4)
O66_3 O 0.53349(4) 0.80967(3) 0.29537(4)
O67_3 O 0.46651(4) 0.80967(3) 0.29537(4)
Cu1_5 Cu 0.737095(6) 0.809397(6) 1.0000
Cl1_5 Cl 0.7500 0.7500 1.0000
Cu5_6 Cu 1.0000 0.737095(6) 0.809397(6)
Cu6_5 Cu 0.690603(6) 0.737095(6) 1.0000
Cu9_3 Cu 0.5000 0.809397(6) 0.737095(6)
Cu11_5 Cu 0.809397(6) 0.762905(6) 1.0000
Cu13_5 Cu 0.762905(6) 0.690603(6) 1.0000
Cu17_3 Cu 0.5000 0.762905(6) 0.809397(6)
Cl5_6 Cl 1.0000 0.7500 0.7500
Cl7_3 Cl 0.5000 0.7500 0.7500
O5_3 O 0.76558(3) 0.82537(4) 0.96676(3)
O7_3 O 0.96676(3) 0.76558(3) 0.82537(4)
O11_3 O 0.67463(4) 0.76558(3) 0.96676(3)
O12_3 O 0.53324(3) 0.82537(4) 0.76558(3)
O13_3 O 0.73442(3) 0.96676(3) 0.82537(4)
O30_3 O 0.46676(3) 0.82537(4) 0.76558(3)
O33_3 O 0.82537(4) 0.73442(3) 0.96676(3)
C10_3 C 0.79193(4) 0.81676(4) 0.95594(4)
C11_3 C 0.81676(4) 0.95594(4) 0.79193(4)
C12_3 C 0.95594(4) 0.79193(4) 0.81676(4)
C16_3 C 0.68324(4) 0.79193(4) 0.95594(4)
C17_3 C 0.54406(4) 0.81676(4) 0.79193(4)
C18_3 C 0.70807(4) 0.95594(4) 0.81676(4)
C33_3 C 0.80379(4) 0.83412(5) 0.92650(4)
C34_3 C 0.83412(5) 0.92650(4) 0.80379(4)
C35_3 C 0.92650(4) 0.80379(4) 0.83412(5)
C39_3 C 0.66588(5) 0.80379(4) 0.92650(4)
C40_3 C 0.57350(4) 0.83412(5) 0.80379(4)
C41_3 C 0.69621(4) 0.92650(4) 0.83412(5)
C56_3 C 0.83080(4) 0.82325(5) 0.91056(4)
C57_3 C 0.82325(5) 0.91056(4) 0.83080(4)
C58_3 C 0.91056(4) 0.83080(4) 0.82325(5)
C62_3 C 0.67675(5) 0.83080(4) 0.91056(4)
C63_3 C 0.58944(4) 0.82325(5) 0.83080(4)
C64_3 C 0.66920(4) 0.91056(4) 0.82325(5)
H6_3 H 0.8416 0.8053 0.9185
H7_3 H 0.9185 0.8416 0.8053
H8_3 H 0.8053 0.9185 0.8416
H12_3 H 0.6947 0.8416 0.9185
H13_3 H 0.6584 0.9185 0.8053
H14_3 H 0.5815 0.8053 0.8416
C79_3 C 0.84254(5) 0.83835(5) 0.88271(5)
C80_3 C 0.83835(5) 0.88271(5) 0.84254(5)
C81_3 C 0.88271(5) 0.84254(5) 0.83835(5)
C85_3 C 0.66165(5) 0.84254(5) 0.88271(5)
C86_3 C 0.61729(5) 0.83835(5) 0.84254(5)
C87_3 C 0.65746(5) 0.88271(5) 0.83835(5)
C102_3 C 0.82634(5) 0.86596(5) 0.87108(5)
C103_3 C 0.86596(5) 0.87108(5) 0.82634(5)
C104_3 C 0.87108(5) 0.82634(5) 0.86596(5)
C108_3 C 0.63404(5) 0.82634(5) 0.87108(5)
C109_3 C 0.62892(5) 0.86596(5) 0.82634(5)
C110_3 C 0.67366(5) 0.87108(5) 0.86596(5)
C125_3 C 0.79870(6) 0.87638(6) 0.88759(6)
C126_3 C 0.87638(6) 0.88759(6) 0.79870(6)
C127_3 C 0.88759(6) 0.79870(6) 0.87638(6)
C131_3 C 0.62362(6) 0.79870(6) 0.88759(6)
C132_3 C 0.61241(6) 0.87638(6) 0.79870(6)
C133_3 C 0.70130(6) 0.88759(6) 0.87638(6)
H29_3 H 0.7876 0.8943 0.8800
H30_3 H 0.8800 0.7876 0.8943
H31_3 H 0.8943 0.8800 0.7876
H35_3 H 0.6057 0.7876 0.8800
H36_3 H 0.7124 0.8800 0.8943
H37_3 H 0.6200 0.8943 0.7876
C148_3 C 0.78758(5) 0.86086(6) 0.91454(5)
C149_3 C 0.86086(6) 0.91454(5) 0.78758(5)
C150_3 C 0.91454(5) 0.78758(5) 0.86086(6)
C154_3 C 0.63914(6) 0.78758(5) 0.91454(5)
C155_3 C 0.58546(5) 0.86086(6) 0.78758(5)
C156_3 C 0.71242(5) 0.91454(5) 0.86086(6)
H52_3 H 0.7691 0.8683 0.9249
H53_3 H 0.9249 0.7691 0.8683
H54_3 H 0.8683 0.9249 0.7691
H58_3 H 0.6317 0.7691 0.9249
H59_3 H 0.7309 0.9249 0.8683
H60_3 H 0.5751 0.8683 0.7691
O37_3 O 0.80967(3) 0.79537(4) 0.96651(4)
O38_3 O 0.79537(4) 0.96651(4) 0.80967(3)
O39_3 O 0.96651(4) 0.80967(3) 0.79537(4)
O43_3 O 0.70463(4) 0.80967(3) 0.96651(4)
O44_3 O 0.53349(4) 0.79537(4) 0.80967(3)
O45_3 O 0.69033(3) 0.96651(4) 0.79537(4)
O62_3 O 0.96651(4) 0.70463(4) 0.80967(3)
O65_3 O 0.69033(3) 0.70463(4) 0.96651(4)
O68_3 O 0.53349(4) 0.80967(3) 0.70463(4)
O69_3 O 0.46651(4) 0.80967(3) 0.70463(4)
O59_4 O 0.29537(4) 0.03349(4) 0.69033(3)
O63_4 O 0.29537(4) 0.03349(4) 0.30967(3)
Cl1_6 Cl 0.2500 0.7500 0.5000
O1_4 O 0.17463(4) 0.76558(3) 0.53324(3)
C1_4 C 0.18324(4) 0.79193(4) 0.54406(4)
C2_4 C 0.16588(5) 0.80379(4) 0.57350(4)
C3_4 C 0.17675(5) 0.83080(4) 0.58944(4)
H1_4 H 0.1947 0.8416 0.5815
C4_4 C 0.16165(5) 0.84254(5) 0.61729(5)
C5_4 C 0.13404(5) 0.82634(5) 0.62892(5)
C6_4 C 0.12362(6) 0.79870(6) 0.61241(6)
H2_4 H 0.1057 0.7876 0.6200
C7_4 C 0.13914(6) 0.78758(5) 0.58546(5)
H3_4 H 0.1317 0.7691 0.5751
O2_4 O 0.20463(4) 0.80967(3) 0.53349(4)
Cu6_6 Cu 0.262905(6) 0.690603(6) 0.5000
Cu7_4 Cu 0.190603(6) 0.5000 0.762905(6)
Cu9_4 Cu 0.190603(6) 0.5000 0.237095(6)
Cu13_6 Cu 0.309397(6) 0.762905(6) 0.5000
Cu15_4 Cu 0.237095(6) 0.5000 0.690603(6)
Cu16_7 Cu 0.0000 0.690603(6) 0.737095(6)
Cu17_4 Cu 0.237095(6) 0.5000 0.309397(6)
Cl6_4 Cl 0.2500 0.5000 0.7500
Cl7_4 Cl 0.2500 0.5000 0.2500
O3_4 O 0.03324(3) 0.82537(4) 0.73442(3)
O4_4 O 0.23442(3) 0.96676(3) 0.67463(4)
O8_4 O 0.23442(3) 0.67463(4) 0.53324(3)
O9_4 O 0.17463(4) 0.53324(3) 0.73442(3)
O10_4 O 0.03324(3) 0.73442(3) 0.67463(4)
O11_4 O 0.23442(3) 0.67463(4) 0.46676(3)
O12_4 O 0.17463(4) 0.53324(3) 0.26558(3)
O13_4 O 0.03324(3) 0.73442(3) 0.32537(4)
O18_4 O 0.23442(3) 0.82537(4) 0.96676(3)
O28_4 O 0.17463(4) 0.46676(3) 0.73442(3)
O30_4 O 0.17463(4) 0.46676(3) 0.26558(3)
O32_4 O 0.26558(3) 0.82537(4) 0.53324(3)
O33_4 O 0.26558(3) 0.82537(4) 0.46676(3)
C8_4 C 0.04406(4) 0.81676(4) 0.70807(4)
C9_4 C 0.20807(4) 0.95594(4) 0.68324(4)
C13_4 C 0.20807(4) 0.68324(4) 0.54406(4)
C14_4 C 0.18324(4) 0.54406(4) 0.70807(4)
C15_4 C 0.04406(4) 0.70807(4) 0.68324(4)
C16_4 C 0.20807(4) 0.68324(4) 0.45594(4)
C17_4 C 0.18324(4) 0.54406(4) 0.29193(4)
C18_4 C 0.04406(4) 0.70807(4) 0.31676(4)
C22_4 C 0.04406(4) 0.79193(4) 0.81676(4)
C23_4 C 0.20807(4) 0.81676(4) 0.95594(4)
C24_4 C 0.18324(4) 0.95594(4) 0.79193(4)
C31_4 C 0.07350(4) 0.83412(5) 0.69621(4)
C32_4 C 0.19621(4) 0.92650(4) 0.66588(5)
C36_4 C 0.19621(4) 0.66588(5) 0.57350(4)
C37_4 C 0.16588(5) 0.57350(4) 0.69621(4)
C38_4 C 0.07350(4) 0.69621(4) 0.66588(5)
C39_4 C 0.19621(4) 0.66588(5) 0.42650(4)
C40_4 C 0.16588(5) 0.57350(4) 0.30379(4)
C41_4 C 0.07350(4) 0.69621(4) 0.33412(5)
C45_4 C 0.07350(4) 0.80379(4) 0.83412(5)
C46_4 C 0.19621(4) 0.83412(5) 0.92650(4)
C47_4 C 0.16588(5) 0.92650(4) 0.80379(4)
C54_4 C 0.08944(4) 0.82325(5) 0.66920(4)
C55_4 C 0.16920(4) 0.91056(4) 0.67675(5)
C59_4 C 0.16920(4) 0.67675(5) 0.58944(4)
C60_4 C 0.17675(5) 0.58944(4) 0.66920(4)
C61_4 C 0.08944(4) 0.66920(4) 0.67675(5)
C62_4 C 0.16920(4) 0.67675(5) 0.41056(4)
C63_4 C 0.17675(5) 0.58944(4) 0.33080(4)
C64_4 C 0.08944(4) 0.66920(4) 0.32325(5)
C68_4 C 0.08944(4) 0.83080(4) 0.82325(5)
C69_4 C 0.16920(4) 0.82325(5) 0.91056(4)
C70_4 C 0.17675(5) 0.91056(4) 0.83080(4)
H4_4 H 0.1584 0.9185 0.6947
H5_4 H 0.0815 0.8053 0.6584
H9_4 H 0.1584 0.6947 0.5815
H10_4 H 0.0815 0.6584 0.6947
H11_4 H 0.1947 0.5815 0.6584
H12_4 H 0.1584 0.6947 0.4185
H13_4 H 0.0815 0.6584 0.3053
H14_4 H 0.1947 0.5815 0.3416
H18_4 H 0.0815 0.8416 0.8053
H19_4 H 0.1947 0.9185 0.8416
H20_4 H 0.1584 0.8053 0.9185
C77_4 C 0.11729(5) 0.83835(5) 0.65746(5)
C78_4 C 0.15746(5) 0.88271(5) 0.66165(5)
C82_4 C 0.15746(5) 0.66165(5) 0.61729(5)
C83_4 C 0.16165(5) 0.61729(5) 0.65746(5)
C84_4 C 0.11729(5) 0.65746(5) 0.66165(5)
C85_4 C 0.15746(5) 0.66165(5) 0.38271(5)
C86_4 C 0.16165(5) 0.61729(5) 0.34254(5)
C87_4 C 0.11729(5) 0.65746(5) 0.33835(5)
C91_4 C 0.11729(5) 0.84254(5) 0.83835(5)
C92_4 C 0.15746(5) 0.83835(5) 0.88271(5)
C93_4 C 0.16165(5) 0.88271(5) 0.84254(5)
C100_4 C 0.12892(5) 0.86596(5) 0.67366(5)
C101_4 C 0.17366(5) 0.87108(5) 0.63404(5)
C105_4 C 0.17366(5) 0.63404(5) 0.62892(5)
C106_4 C 0.13404(5) 0.62892(5) 0.67366(5)
C107_4 C 0.12892(5) 0.67366(5) 0.63404(5)
C108_4 C 0.17366(5) 0.63404(5) 0.37108(5)
C109_4 C 0.13404(5) 0.62892(5) 0.32634(5)
C110_4 C 0.12892(5) 0.67366(5) 0.36596(5)
C114_4 C 0.12892(5) 0.82634(5) 0.86596(5)
C115_4 C 0.17366(5) 0.86596(5) 0.87108(5)
C116_4 C 0.13404(5) 0.87108(5) 0.82634(5)
C123_4 C 0.11241(6) 0.87638(6) 0.70130(6)
C124_4 C 0.20130(6) 0.88759(6) 0.62362(6)
C128_4 C 0.20130(6) 0.62362(6) 0.61241(6)
C129_4 C 0.12362(6) 0.61241(6) 0.70130(6)
C130_4 C 0.11241(6) 0.70130(6) 0.62362(6)
C131_4 C 0.20130(6) 0.62362(6) 0.38759(6)
C132_4 C 0.12362(6) 0.61241(6) 0.29870(6)
C133_4 C 0.11241(6) 0.70130(6) 0.37638(6)
C137_4 C 0.11241(6) 0.79870(6) 0.87638(6)
C138_4 C 0.20130(6) 0.87638(6) 0.88759(6)
C139_4 C 0.12362(6) 0.88759(6) 0.79870(6)
H27_4 H 0.2124 0.8800 0.6057
H28_4 H 0.1200 0.8943 0.7124
H32_4 H 0.2124 0.6057 0.6200
H33_4 H 0.1200 0.7124 0.6057
H34_4 H 0.1057 0.6200 0.7124
H35_4 H 0.2124 0.6057 0.3800
H36_4 H 0.1200 0.7124 0.3943
H37_4 H 0.1057 0.6200 0.2876
H41_4 H 0.1200 0.7876 0.8943
H42_4 H 0.1057 0.8800 0.7876
H43_4 H 0.2124 0.8943 0.8800
C146_4 C 0.08546(5) 0.86086(6) 0.71242(5)
C147_4 C 0.21242(5) 0.91454(5) 0.63914(6)
C151_4 C 0.21242(5) 0.63914(6) 0.58546(5)
C152_4 C 0.13914(6) 0.58546(5) 0.71242(5)
C153_4 C 0.08546(5) 0.71242(5) 0.63914(6)
C154_4 C 0.21242(5) 0.63914(6) 0.41454(5)
C155_4 C 0.13914(6) 0.58546(5) 0.28758(5)
C156_4 C 0.08546(5) 0.71242(5) 0.36086(6)
C160_4 C 0.08546(5) 0.78758(5) 0.86086(6)
C161_4 C 0.21242(5) 0.86086(6) 0.91454(5)
C162_4 C 0.13914(6) 0.91454(5) 0.78758(5)
H50_4 H 0.2309 0.9249 0.6317
H51_4 H 0.0751 0.8683 0.7309
H55_4 H 0.2309 0.6317 0.5751
H56_4 H 0.0751 0.7309 0.6317
H57_4 H 0.1317 0.5751 0.7309
H58_4 H 0.2309 0.6317 0.4249
H59_4 H 0.0751 0.7309 0.3683
H60_4 H 0.1317 0.5751 0.2691
H64_4 H 0.0751 0.7691 0.8683
H65_4 H 0.1317 0.9249 0.7691
H66_4 H 0.2309 0.8683 0.9249
O35_4 O 0.03349(4) 0.79537(4) 0.69033(3)
O40_4 O 0.19033(3) 0.70463(4) 0.53349(4)
O41_4 O 0.20463(4) 0.53349(4) 0.69033(3)
O42_4 O 0.03349(4) 0.69033(3) 0.70463(4)
O43_4 O 0.19033(3) 0.70463(4) 0.46651(4)
O44_4 O 0.20463(4) 0.53349(4) 0.30967(3)
O45_4 O 0.03349(4) 0.69033(3) 0.29537(4)
O49_4 O 0.03349(4) 0.80967(3) 0.79537(4)
O50_4 O 0.19033(3) 0.79537(4) 0.96651(4)
O58_4 O 0.29537(4) 0.96651(4) 0.69033(3)
O62_4 O 0.29537(4) 0.96651(4) 0.30967(3)
O64_4 O 0.29537(4) 0.69033(3) 0.53349(4)
O65_4 O 0.29537(4) 0.69033(3) 0.46651(4)
O66_4 O 0.19033(3) 0.53349(4) 0.79537(4)
O67_4 O 0.19033(3) 0.46651(4) 0.79537(4)
O68_4 O 0.19033(3) 0.53349(4) 0.20463(4)
O69_4 O 0.19033(3) 0.46651(4) 0.20463(4)
Cu16_8 Cu 1.0000 0.690603(6) 0.737095(6)
O29_4 O 0.96676(3) 0.73442(3) 0.67463(4)
O31_4 O 0.96676(3) 0.73442(3) 0.32537(4)
Cl1_7 Cl 0.2500 0.7500 0.0000
Cu6_7 Cu 0.309397(6) 0.737095(6) 0.0000
Cu13_7 Cu 0.237095(6) 0.690603(6) 0.0000
O11_5 O 0.32537(4) 0.76558(3) 0.03324(3)
O33_5 O 0.17463(4) 0.73442(3) 0.03324(3)
C16_5 C 0.31676(4) 0.79193(4) 0.04406(4)
C17_5 C 0.45594(4) 0.81676(4) 0.20807(4)
C18_5 C 0.29193(4) 0.95594(4) 0.18324(4)
C39_5 C 0.33412(5) 0.80379(4) 0.07350(4)
C40_5 C 0.42650(4) 0.83412(5) 0.19621(4)
C41_5 C 0.30379(4) 0.92650(4) 0.16588(5)
C62_5 C 0.32325(5) 0.83080(4) 0.08944(4)
C63_5 C 0.41056(4) 0.82325(5) 0.16920(4)
C64_5 C 0.33080(4) 0.91056(4) 0.17675(5)
H12_5 H 0.3053 0.8416 0.0815
H13_5 H 0.3416 0.9185 0.1947
H14_5 H 0.4185 0.8053 0.1584
C85_5 C 0.33835(5) 0.84254(5) 0.11729(5)
C86_5 C 0.38271(5) 0.83835(5) 0.15746(5)
C87_5 C 0.34254(5) 0.88271(5) 0.16165(5)
C108_5 C 0.36596(5) 0.82634(5) 0.12892(5)
C109_5 C 0.37108(5) 0.86596(5) 0.17366(5)
C110_5 C 0.32634(5) 0.87108(5) 0.13404(5)
C131_5 C 0.37638(6) 0.79870(6) 0.11241(6)
C132_5 C 0.38759(6) 0.87638(6) 0.20130(6)
C133_5 C 0.29870(6) 0.88759(6) 0.12362(6)
H35_5 H 0.3943 0.7876 0.1200
H36_5 H 0.2876 0.8800 0.1057
H37_5 H 0.3800 0.8943 0.2124
C154_5 C 0.36086(6) 0.78758(5) 0.08546(5)
C155_5 C 0.41454(5) 0.86086(6) 0.21242(5)
C156_5 C 0.28758(5) 0.91454(5) 0.13914(6)
H58_5 H 0.3683 0.7691 0.0751
H59_5 H 0.2691 0.9249 0.1317
H60_5 H 0.4249 0.8683 0.2309
O43_5 O 0.29537(4) 0.80967(3) 0.03349(4)
O44_5 O 0.46651(4) 0.79537(4) 0.19033(3)
O45_5 O 0.30967(3) 0.96651(4) 0.20463(4)
O65_5 O 0.30967(3) 0.70463(4) 0.03349(4)
Cl1_8 Cl 0.2500 0.7500 1.0000
Cu6_8 Cu 0.309397(6) 0.737095(6) 1.0000
Cu13_8 Cu 0.237095(6) 0.690603(6) 1.0000
O8_5 O 0.32537(4) 0.76558(3) 0.96676(3)
O32_5 O 0.17463(4) 0.73442(3) 0.96676(3)
C13_5 C 0.31676(4) 0.79193(4) 0.95594(4)
C14_5 C 0.45594(4) 0.81676(4) 0.79193(4)
C15_5 C 0.29193(4) 0.95594(4) 0.81676(4)
C36_5 C 0.33412(5) 0.80379(4) 0.92650(4)
C37_5 C 0.42650(4) 0.83412(5) 0.80379(4)
C38_5 C 0.30379(4) 0.92650(4) 0.83412(5)
C59_5 C 0.32325(5) 0.83080(4) 0.91056(4)
C60_5 C 0.41056(4) 0.82325(5) 0.83080(4)
C61_5 C 0.33080(4) 0.91056(4) 0.82325(5)
H9_5 H 0.3053 0.8416 0.9185
H10_5 H 0.3416 0.9185 0.8053
H11_5 H 0.4185 0.8053 0.8416
C82_5 C 0.33835(5) 0.84254(5) 0.88271(5)
C83_5 C 0.38271(5) 0.83835(5) 0.84254(5)
C84_5 C 0.34254(5) 0.88271(5) 0.83835(5)
C105_5 C 0.36596(5) 0.82634(5) 0.87108(5)
C106_5 C 0.37108(5) 0.86596(5) 0.82634(5)
C107_5 C 0.32634(5) 0.87108(5) 0.86596(5)
C128_5 C 0.37638(6) 0.79870(6) 0.88759(6)
C129_5 C 0.38759(6) 0.87638(6) 0.79870(6)
C130_5 C 0.29870(6) 0.88759(6) 0.87638(6)
H32_5 H 0.3943 0.7876 0.8800
H33_5 H 0.2876 0.8800 0.8943
H34_5 H 0.3800 0.8943 0.7876
C151_5 C 0.36086(6) 0.78758(5) 0.91454(5)
C152_5 C 0.41454(5) 0.86086(6) 0.78758(5)
C153_5 C 0.28758(5) 0.91454(5) 0.86086(6)
H55_5 H 0.3683 0.7691 0.9249
H56_5 H 0.2691 0.9249 0.8683
H57_5 H 0.4249 0.8683 0.7691
O40_5 O 0.29537(4) 0.80967(3) 0.96651(4)
O41_5 O 0.46651(4) 0.79537(4) 0.80967(3)
O42_5 O 0.30967(3) 0.96651(4) 0.79537(4)
O64_5 O 0.30967(3) 0.70463(4) 0.96651(4)
Cl1_9 Cl 0.2500 0.2500 0.5000
Cu6_9 Cu 0.262905(6) 0.309397(6) 0.5000
Cu13_9 Cu 0.309397(6) 0.237095(6) 0.5000
O8_6 O 0.23442(3) 0.32537(4) 0.46676(3)
O11_6 O 0.23442(3) 0.32537(4) 0.53324(3)
O32_6 O 0.26558(3) 0.17463(4) 0.46676(3)
O33_6 O 0.26558(3) 0.17463(4) 0.53324(3)
C13_6 C 0.20807(4) 0.31676(4) 0.45594(4)
C14_6 C 0.18324(4) 0.45594(4) 0.29193(4)
C15_6 C 0.04406(4) 0.29193(4) 0.31676(4)
C16_6 C 0.20807(4) 0.31676(4) 0.54406(4)
C17_6 C 0.18324(4) 0.45594(4) 0.70807(4)
C18_6 C 0.04406(4) 0.29193(4) 0.68324(4)
C36_6 C 0.19621(4) 0.33412(5) 0.42650(4)
C37_6 C 0.16588(5) 0.42650(4) 0.30379(4)
C38_6 C 0.07350(4) 0.30379(4) 0.33412(5)
C39_6 C 0.19621(4) 0.33412(5) 0.57350(4)
C40_6 C 0.16588(5) 0.42650(4) 0.69621(4)
C41_6 C 0.07350(4) 0.30379(4) 0.66588(5)
C59_6 C 0.16920(4) 0.32325(5) 0.41056(4)
C60_6 C 0.17675(5) 0.41056(4) 0.33080(4)
C61_6 C 0.08944(4) 0.33080(4) 0.32325(5)
C62_6 C 0.16920(4) 0.32325(5) 0.58944(4)
C63_6 C 0.17675(5) 0.41056(4) 0.66920(4)
C64_6 C 0.08944(4) 0.33080(4) 0.67675(5)
H9_6 H 0.1584 0.3053 0.4185
H10_6 H 0.0815 0.3416 0.3053
H11_6 H 0.1947 0.4185 0.3416
H12_6 H 0.1584 0.3053 0.5815
H13_6 H 0.0815 0.3416 0.6947
H14_6 H 0.1947 0.4185 0.6584
C82_6 C 0.15746(5) 0.33835(5) 0.38271(5)
C83_6 C 0.16165(5) 0.38271(5) 0.34254(5)
C84_6 C 0.11729(5) 0.34254(5) 0.33835(5)
C85_6 C 0.15746(5) 0.33835(5) 0.61729(5)
C86_6 C 0.16165(5) 0.38271(5) 0.65746(5)
C87_6 C 0.11729(5) 0.34254(5) 0.66165(5)
C105_6 C 0.17366(5) 0.36596(5) 0.37108(5)
C106_6 C 0.13404(5) 0.37108(5) 0.32634(5)
C107_6 C 0.12892(5) 0.32634(5) 0.36596(5)
C108_6 C 0.17366(5) 0.36596(5) 0.62892(5)
C109_6 C 0.13404(5) 0.37108(5) 0.67366(5)
C110_6 C 0.12892(5) 0.32634(5) 0.63404(5)
C128_6 C 0.20130(6) 0.37638(6) 0.38759(6)
C129_6 C 0.12362(6) 0.38759(6) 0.29870(6)
C130_6 C 0.11241(6) 0.29870(6) 0.37638(6)
C131_6 C 0.20130(6) 0.37638(6) 0.61241(6)
C132_6 C 0.12362(6) 0.38759(6) 0.70130(6)
C133_6 C 0.11241(6) 0.29870(6) 0.62362(6)
H32_6 H 0.2124 0.3943 0.3800
H33_6 H 0.1200 0.2876 0.3943
H34_6 H 0.1057 0.3800 0.2876
H35_6 H 0.2124 0.3943 0.6200
H36_6 H 0.1200 0.2876 0.6057
H37_6 H 0.1057 0.3800 0.7124
C151_6 C 0.21242(5) 0.36086(6) 0.41454(5)
C152_6 C 0.13914(6) 0.41454(5) 0.28758(5)
C153_6 C 0.08546(5) 0.28758(5) 0.36086(6)
C154_6 C 0.21242(5) 0.36086(6) 0.58546(5)
C155_6 C 0.13914(6) 0.41454(5) 0.71242(5)
C156_6 C 0.08546(5) 0.28758(5) 0.63914(6)
H55_6 H 0.2309 0.3683 0.4249
H56_6 H 0.0751 0.2691 0.3683
H57_6 H 0.1317 0.4249 0.2691
H58_6 H 0.2309 0.3683 0.5751
H59_6 H 0.0751 0.2691 0.6317
H60_6 H 0.1317 0.4249 0.7309
O40_6 O 0.19033(3) 0.29537(4) 0.46651(4)
O41_6 O 0.20463(4) 0.46651(4) 0.30967(3)
O42_6 O 0.03349(4) 0.30967(3) 0.29537(4)
O43_6 O 0.19033(3) 0.29537(4) 0.53349(4)
O44_6 O 0.20463(4) 0.46651(4) 0.69033(3)
O45_6 O 0.03349(4) 0.30967(3) 0.70463(4)
O64_6 O 0.29537(4) 0.30967(3) 0.46651(4)
O65_6 O 0.29537(4) 0.30967(3) 0.53349(4)
Cl1_10 Cl 0.7500 0.2500 0.0000
Cu6_10 Cu 0.690603(6) 0.262905(6) 0.0000
Cu13_10 Cu 0.762905(6) 0.309397(6) 0.0000
O11_7 O 0.67463(4) 0.23442(3) 0.03324(3)
O33_7 O 0.82537(4) 0.26558(3) 0.03324(3)
C16_7 C 0.68324(4) 0.20807(4) 0.04406(4)
C17_7 C 0.54406(4) 0.18324(4) 0.20807(4)
C18_7 C 0.70807(4) 0.04406(4) 0.18324(4)
C39_7 C 0.66588(5) 0.19621(4) 0.07350(4)
C40_7 C 0.57350(4) 0.16588(5) 0.19621(4)
C41_7 C 0.69621(4) 0.07350(4) 0.16588(5)
C62_7 C 0.67675(5) 0.16920(4) 0.08944(4)
C63_7 C 0.58944(4) 0.17675(5) 0.16920(4)
C64_7 C 0.66920(4) 0.08944(4) 0.17675(5)
H12_7 H 0.6947 0.1584 0.0815
H13_7 H 0.6584 0.0815 0.1947
H14_7 H 0.5815 0.1947 0.1584
C85_7 C 0.66165(5) 0.15746(5) 0.11729(5)
C86_7 C 0.61729(5) 0.16165(5) 0.15746(5)
C87_7 C 0.65746(5) 0.11729(5) 0.16165(5)
C108_7 C 0.63404(5) 0.17366(5) 0.12892(5)
C109_7 C 0.62892(5) 0.13404(5) 0.17366(5)
C110_7 C 0.67366(5) 0.12892(5) 0.13404(5)
C131_7 C 0.62362(6) 0.20130(6) 0.11241(6)
C132_7 C 0.61241(6) 0.12362(6) 0.20130(6)
C133_7 C 0.70130(6) 0.11241(6) 0.12362(6)
H35_7 H 0.6057 0.2124 0.1200
H36_7 H 0.7124 0.1200 0.1057
H37_7 H 0.6200 0.1057 0.2124
C154_7 C 0.63914(6) 0.21242(5) 0.08546(5)
C155_7 C 0.58546(5) 0.13914(6) 0.21242(5)
C156_7 C 0.71242(5) 0.08546(5) 0.13914(6)
H58_7 H 0.6317 0.2309 0.0751
H59_7 H 0.7309 0.0751 0.1317
H60_7 H 0.5751 0.1317 0.2309
O43_7 O 0.70463(4) 0.19033(3) 0.03349(4)
O44_7 O 0.53349(4) 0.20463(4) 0.19033(3)
O45_7 O 0.69033(3) 0.03349(4) 0.20463(4)
O65_7 O 0.69033(3) 0.29537(4) 0.03349(4)
Cl1_11 Cl 0.7500 0.2500 1.0000
Cu6_11 Cu 0.690603(6) 0.262905(6) 1.0000
Cu13_11 Cu 0.762905(6) 0.309397(6) 1.0000
O8_7 O 0.67463(4) 0.23442(3) 0.96676(3)
O32_7 O 0.82537(4) 0.26558(3) 0.96676(3)
C13_7 C 0.68324(4) 0.20807(4) 0.95594(4)
C14_7 C 0.54406(4) 0.18324(4) 0.79193(4)
C15_7 C 0.70807(4) 0.04406(4) 0.81676(4)
C36_7 C 0.66588(5) 0.19621(4) 0.92650(4)
C37_7 C 0.57350(4) 0.16588(5) 0.80379(4)
C38_7 C 0.69621(4) 0.07350(4) 0.83412(5)
C59_7 C 0.67675(5) 0.16920(4) 0.91056(4)
C60_7 C 0.58944(4) 0.17675(5) 0.83080(4)
C61_7 C 0.66920(4) 0.08944(4) 0.82325(5)
H9_7 H 0.6947 0.1584 0.9185
H10_7 H 0.6584 0.0815 0.8053
H11_7 H 0.5815 0.1947 0.8416
C82_7 C 0.66165(5) 0.15746(5) 0.88271(5)
C83_7 C 0.61729(5) 0.16165(5) 0.84254(5)
C84_7 C 0.65746(5) 0.11729(5) 0.83835(5)
C105_7 C 0.63404(5) 0.17366(5) 0.87108(5)
C106_7 C 0.62892(5) 0.13404(5) 0.82634(5)
C107_7 C 0.67366(5) 0.12892(5) 0.86596(5)
C128_7 C 0.62362(6) 0.20130(6) 0.88759(6)
C129_7 C 0.61241(6) 0.12362(6) 0.79870(6)
C130_7 C 0.70130(6) 0.11241(6) 0.87638(6)
H32_7 H 0.6057 0.2124 0.8800
H33_7 H 0.7124 0.1200 0.8943
H34_7 H 0.6200 0.1057 0.7876
C151_7 C 0.63914(6) 0.21242(5) 0.91454(5)
C152_7 C 0.58546(5) 0.13914(6) 0.78758(5)
C153_7 C 0.71242(5) 0.08546(5) 0.86086(6)
H55_7 H 0.6317 0.2309 0.9249
H56_7 H 0.7309 0.0751 0.8683
H57_7 H 0.5751 0.1317 0.7691
O40_7 O 0.70463(4) 0.19033(3) 0.96651(4)
O41_7 O 0.53349(4) 0.20463(4) 0.80967(3)
O42_7 O 0.69033(3) 0.03349(4) 0.79537(4)
O64_7 O 0.69033(3) 0.29537(4) 0.96651(4)
Cl1_12 Cl 0.7500 0.7500 0.5000
Cu6_12 Cu 0.737095(6) 0.690603(6) 0.5000
Cu13_12 Cu 0.690603(6) 0.762905(6) 0.5000
O8_8 O 0.76558(3) 0.67463(4) 0.46676(3)
O11_8 O 0.76558(3) 0.67463(4) 0.53324(3)
O32_8 O 0.73442(3) 0.82537(4) 0.46676(3)
O33_8 O 0.73442(3) 0.82537(4) 0.53324(3)
C13_8 C 0.79193(4) 0.68324(4) 0.45594(4)
C14_8 C 0.81676(4) 0.54406(4) 0.29193(4)
C15_8 C 0.95594(4) 0.70807(4) 0.31676(4)
C16_8 C 0.79193(4) 0.68324(4) 0.54406(4)
C17_8 C 0.81676(4) 0.54406(4) 0.70807(4)
C18_8 C 0.95594(4) 0.70807(4) 0.68324(4)
C36_8 C 0.80379(4) 0.66588(5) 0.42650(4)
C37_8 C 0.83412(5) 0.57350(4) 0.30379(4)
C38_8 C 0.92650(4) 0.69621(4) 0.33412(5)
C39_8 C 0.80379(4) 0.66588(5) 0.57350(4)
C40_8 C 0.83412(5) 0.57350(4) 0.69621(4)
C41_8 C 0.92650(4) 0.69621(4) 0.66588(5)
C59_8 C 0.83080(4) 0.67675(5) 0.41056(4)
C60_8 C 0.82325(5) 0.58944(4) 0.33080(4)
C61_8 C 0.91056(4) 0.66920(4) 0.32325(5)
C62_8 C 0.83080(4) 0.67675(5) 0.58944(4)
C63_8 C 0.82325(5) 0.58944(4) 0.66920(4)
C64_8 C 0.91056(4) 0.66920(4) 0.67675(5)
H9_8 H 0.8416 0.6947 0.4185
H10_8 H 0.9185 0.6584 0.3053
H11_8 H 0.8053 0.5815 0.3416
H12_8 H 0.8416 0.6947 0.5815
H13_8 H 0.9185 0.6584 0.6947
H14_8 H 0.8053 0.5815 0.6584
C82_8 C 0.84254(5) 0.66165(5) 0.38271(5)
C83_8 C 0.83835(5) 0.61729(5) 0.34254(5)
C84_8 C 0.88271(5) 0.65746(5) 0.33835(5)
C85_8 C 0.84254(5) 0.66165(5) 0.61729(5)
C86_8 C 0.83835(5) 0.61729(5) 0.65746(5)
C87_8 C 0.88271(5) 0.65746(5) 0.66165(5)
C105_8 C 0.82634(5) 0.63404(5) 0.37108(5)
C106_8 C 0.86596(5) 0.62892(5) 0.32634(5)
C107_8 C 0.87108(5) 0.67366(5) 0.36596(5)
C108_8 C 0.82634(5) 0.63404(5) 0.62892(5)
C109_8 C 0.86596(5) 0.62892(5) 0.67366(5)
C110_8 C 0.87108(5) 0.67366(5) 0.63404(5)
C128_8 C 0.79870(6) 0.62362(6) 0.38759(6)
C129_8 C 0.87638(6) 0.61241(6) 0.29870(6)
C130_8 C 0.88759(6) 0.70130(6) 0.37638(6)
C131_8 C 0.79870(6) 0.62362(6) 0.61241(6)
C132_8 C 0.87638(6) 0.61241(6) 0.70130(6)
C133_8 C 0.88759(6) 0.70130(6) 0.62362(6)
H32_8 H 0.7876 0.6057 0.3800
H33_8 H 0.8800 0.7124 0.3943
H34_8 H 0.8943 0.6200 0.2876
H35_8 H 0.7876 0.6057 0.6200
H36_8 H 0.8800 0.7124 0.6057
H37_8 H 0.8943 0.6200 0.7124
C151_8 C 0.78758(5) 0.63914(6) 0.41454(5)
C152_8 C 0.86086(6) 0.58546(5) 0.28758(5)
C153_8 C 0.91454(5) 0.71242(5) 0.36086(6)
C154_8 C 0.78758(5) 0.63914(6) 0.58546(5)
C155_8 C 0.86086(6) 0.58546(5) 0.71242(5)
C156_8 C 0.91454(5) 0.71242(5) 0.63914(6)
H55_8 H 0.7691 0.6317 0.4249
H56_8 H 0.9249 0.7309 0.3683
H57_8 H 0.8683 0.5751 0.2691
H58_8 H 0.7691 0.6317 0.5751
H59_8 H 0.9249 0.7309 0.6317
H60_8 H 0.8683 0.5751 0.7309
O40_8 O 0.80967(3) 0.70463(4) 0.46651(4)
O41_8 O 0.79537(4) 0.53349(4) 0.30967(3)
O42_8 O 0.96651(4) 0.69033(3) 0.29537(4)
O43_8 O 0.80967(3) 0.70463(4) 0.53349(4)
O44_8 O 0.79537(4) 0.53349(4) 0.69033(3)
O45_8 O 0.96651(4) 0.69033(3) 0.70463(4)
O64_8 O 0.70463(4) 0.69033(3) 0.46651(4)
O65_8 O 0.70463(4) 0.69033(3) 0.53349(4)
Cu7_5 Cu 0.262905(6) 0.5000 0.190603(6)
O8_9 O 0.03324(3) 0.32537(4) 0.23442(3)
O9_5 O 0.23442(3) 0.46676(3) 0.17463(4)
O28_5 O 0.23442(3) 0.53324(3) 0.17463(4)
C13_9 C 0.04406(4) 0.31676(4) 0.20807(4)
C14_9 C 0.20807(4) 0.45594(4) 0.18324(4)
C15_9 C 0.18324(4) 0.29193(4) 0.04406(4)
C36_9 C 0.07350(4) 0.33412(5) 0.19621(4)
C37_9 C 0.19621(4) 0.42650(4) 0.16588(5)
C38_9 C 0.16588(5) 0.30379(4) 0.07350(4)
C59_9 C 0.08944(4) 0.32325(5) 0.16920(4)
C60_9 C 0.16920(4) 0.41056(4) 0.17675(5)
C61_9 C 0.17675(5) 0.33080(4) 0.08944(4)
H9_9 H 0.0815 0.3053 0.1584
H10_9 H 0.1947 0.3416 0.0815
H11_9 H 0.1584 0.4185 0.1947
C82_9 C 0.11729(5) 0.33835(5) 0.15746(5)
C83_9 C 0.15746(5) 0.38271(5) 0.16165(5)
C84_9 C 0.16165(5) 0.34254(5) 0.11729(5)
C105_9 C 0.12892(5) 0.36596(5) 0.17366(5)
C106_9 C 0.17366(5) 0.37108(5) 0.13404(5)
C107_9 C 0.13404(5) 0.32634(5) 0.12892(5)
C128_9 C 0.11241(6) 0.37638(6) 0.20130(6)
C129_9 C 0.20130(6) 0.38759(6) 0.12362(6)
C130_9 C 0.12362(6) 0.29870(6) 0.11241(6)
H32_9 H 0.1200 0.3943 0.2124
H33_9 H 0.1057 0.2876 0.1200
H34_9 H 0.2124 0.3800 0.1057
C151_9 C 0.08546(5) 0.36086(6) 0.21242(5)
C152_9 C 0.21242(5) 0.41454(5) 0.13914(6)
C153_9 C 0.13914(6) 0.28758(5) 0.08546(5)
H55_9 H 0.0751 0.3683 0.2309
H56_9 H 0.1317 0.2691 0.0751
H57_9 H 0.2309 0.4249 0.1317
O42_9 O 0.20463(4) 0.30967(3) 0.03349(4)
O66_5 O 0.29537(4) 0.46651(4) 0.19033(3)
O67_5 O 0.29537(4) 0.53349(4) 0.19033(3)
Cu9_5 Cu 0.737095(6) 0.5000 0.190603(6)
O11_9 O 0.96676(3) 0.32537(4) 0.23442(3)
O12_5 O 0.76558(3) 0.46676(3) 0.17463(4)
O30_5 O 0.76558(3) 0.53324(3) 0.17463(4)
C16_9 C 0.95594(4) 0.31676(4) 0.20807(4)
C17_9 C 0.79193(4) 0.45594(4) 0.18324(4)
C18_9 C 0.81676(4) 0.29193(4) 0.04406(4)
C39_9 C 0.92650(4) 0.33412(5) 0.19621(4)
C40_9 C 0.80379(4) 0.42650(4) 0.16588(5)
C41_9 C 0.83412(5) 0.30379(4) 0.07350(4)
C62_9 C 0.91056(4) 0.32325(5) 0.16920(4)
C63_9 C 0.83080(4) 0.41056(4) 0.17675(5)
C64_9 C 0.82325(5) 0.33080(4) 0.08944(4)
H12_9 H 0.9185 0.3053 0.1584
H13_9 H 0.8053 0.3416 0.0815
H14_9 H 0.8416 0.4185 0.1947
C85_9 C 0.88271(5) 0.33835(5) 0.15746(5)
C86_9 C 0.84254(5) 0.38271(5) 0.16165(5)
C87_9 C 0.83835(5) 0.34254(5) 0.11729(5)
C108_9 C 0.87108(5) 0.36596(5) 0.17366(5)
C109_9 C 0.82634(5) 0.37108(5) 0.13404(5)
C110_9 C 0.86596(5) 0.32634(5) 0.12892(5)
C131_9 C 0.88759(6) 0.37638(6) 0.20130(6)
C132_9 C 0.79870(6) 0.38759(6) 0.12362(6)
C133_9 C 0.87638(6) 0.29870(6) 0.11241(6)
H35_9 H 0.8800 0.3943 0.2124
H36_9 H 0.8943 0.2876 0.1200
H37_9 H 0.7876 0.3800 0.1057
C154_9 C 0.91454(5) 0.36086(6) 0.21242(5)
C155_9 C 0.78758(5) 0.41454(5) 0.13914(6)
C156_9 C 0.86086(6) 0.28758(5) 0.08546(5)
H58_9 H 0.9249 0.3683 0.2309
H59_9 H 0.8683 0.2691 0.0751
H60_9 H 0.7691 0.4249 0.1317
O45_9 O 0.79537(4) 0.30967(3) 0.03349(4)
O68_5 O 0.70463(4) 0.46651(4) 0.19033(3)
O69_5 O 0.70463(4) 0.53349(4) 0.19033(3)
Cu7_6 Cu 0.5000 0.262905(6) 0.690603(6)
O8_10 O 0.67463(4) 0.03324(3) 0.73442(3)
O9_6 O 0.53324(3) 0.23442(3) 0.67463(4)
O28_6 O 0.46676(3) 0.23442(3) 0.67463(4)
C13_10 C 0.68324(4) 0.04406(4) 0.70807(4)
C14_10 C 0.54406(4) 0.20807(4) 0.68324(4)
C15_10 C 0.70807(4) 0.18324(4) 0.54406(4)
C36_10 C 0.66588(5) 0.07350(4) 0.69621(4)
C37_10 C 0.57350(4) 0.19621(4) 0.66588(5)
C38_10 C 0.69621(4) 0.16588(5) 0.57350(4)
C59_10 C 0.67675(5) 0.08944(4) 0.66920(4)
C60_10 C 0.58944(4) 0.16920(4) 0.67675(5)
C61_10 C 0.66920(4) 0.17675(5) 0.58944(4)
H9_10 H 0.6947 0.0815 0.6584
H10_10 H 0.6584 0.1947 0.5815
H11_10 H 0.5815 0.1584 0.6947
C82_10 C 0.66165(5) 0.11729(5) 0.65746(5)
C83_10 C 0.61729(5) 0.15746(5) 0.66165(5)
C84_10 C 0.65746(5) 0.16165(5) 0.61729(5)
C105_10 C 0.63404(5) 0.12892(5) 0.67366(5)
C106_10 C 0.62892(5) 0.17366(5) 0.63404(5)
C107_10 C 0.67366(5) 0.13404(5) 0.62892(5)
C128_10 C 0.62362(6) 0.11241(6) 0.70130(6)
C129_10 C 0.61241(6) 0.20130(6) 0.62362(6)
C130_10 C 0.70130(6) 0.12362(6) 0.61241(6)
H32_10 H 0.6057 0.1200 0.7124
H33_10 H 0.7124 0.1057 0.6200
H34_10 H 0.6200 0.2124 0.6057
C151_10 C 0.63914(6) 0.08546(5) 0.71242(5)
C152_10 C 0.58546(5) 0.21242(5) 0.63914(6)
C153_10 C 0.71242(5) 0.13914(6) 0.58546(5)
H55_10 H 0.6317 0.0751 0.7309
H56_10 H 0.7309 0.1317 0.5751
H57_10 H 0.5751 0.2309 0.6317
O42_10 O 0.69033(3) 0.20463(4) 0.53349(4)
O66_6 O 0.53349(4) 0.29537(4) 0.69033(3)
O67_6 O 0.46651(4) 0.29537(4) 0.69033(3)
Cu9_6 Cu 0.5000 0.737095(6) 0.690603(6)
O11_10 O 0.67463(4) 0.96676(3) 0.73442(3)
O12_6 O 0.53324(3) 0.76558(3) 0.67463(4)
O30_6 O 0.46676(3) 0.76558(3) 0.67463(4)
C16_10 C 0.68324(4) 0.95594(4) 0.70807(4)
C17_10 C 0.54406(4) 0.79193(4) 0.68324(4)
C18_10 C 0.70807(4) 0.81676(4) 0.54406(4)
C39_10 C 0.66588(5) 0.92650(4) 0.69621(4)
C40_10 C 0.57350(4) 0.80379(4) 0.66588(5)
C41_10 C 0.69621(4) 0.83412(5) 0.57350(4)
C62_10 C 0.67675(5) 0.91056(4) 0.66920(4)
C63_10 C 0.58944(4) 0.83080(4) 0.67675(5)
C64_10 C 0.66920(4) 0.82325(5) 0.58944(4)
H12_10 H 0.6947 0.9185 0.6584
H13_10 H 0.6584 0.8053 0.5815
H14_10 H 0.5815 0.8416 0.6947
C85_10 C 0.66165(5) 0.88271(5) 0.65746(5)
C86_10 C 0.61729(5) 0.84254(5) 0.66165(5)
C87_10 C 0.65746(5) 0.83835(5) 0.61729(5)
C108_10 C 0.63404(5) 0.87108(5) 0.67366(5)
C109_10 C 0.62892(5) 0.82634(5) 0.63404(5)
C110_10 C 0.67366(5) 0.86596(5) 0.62892(5)
C131_10 C 0.62362(6) 0.88759(6) 0.70130(6)
C132_10 C 0.61241(6) 0.79870(6) 0.62362(6)
C133_10 C 0.70130(6) 0.87638(6) 0.61241(6)
H35_10 H 0.6057 0.8800 0.7124
H36_10 H 0.7124 0.8943 0.6200
H37_10 H 0.6200 0.7876 0.6057
C154_10 C 0.63914(6) 0.91454(5) 0.71242(5)
C155_10 C 0.58546(5) 0.78758(5) 0.63914(6)
C156_10 C 0.71242(5) 0.86086(6) 0.58546(5)
H58_10 H 0.6317 0.9249 0.7309
H59_10 H 0.7309 0.8683 0.5751
H60_10 H 0.5751 0.7691 0.6317
O45_10 O 0.69033(3) 0.79537(4) 0.53349(4)
O68_6 O 0.53349(4) 0.70463(4) 0.69033(3)
O69_6 O 0.46651(4) 0.70463(4) 0.69033(3)
O11_11 O 0.03324(3) 0.67463(4) 0.23442(3)
C16_11 C 0.04406(4) 0.68324(4) 0.20807(4)
C17_11 C 0.20807(4) 0.54406(4) 0.18324(4)
C18_11 C 0.18324(4) 0.70807(4) 0.04406(4)
C39_11 C 0.07350(4) 0.66588(5) 0.19621(4)
C40_11 C 0.19621(4) 0.57350(4) 0.16588(5)
C41_11 C 0.16588(5) 0.69621(4) 0.07350(4)
C62_11 C 0.08944(4) 0.67675(5) 0.16920(4)
C63_11 C 0.16920(4) 0.58944(4) 0.17675(5)
C64_11 C 0.17675(5) 0.66920(4) 0.08944(4)
H12_11 H 0.0815 0.6947 0.1584
H13_11 H 0.1947 0.6584 0.0815
H14_11 H 0.1584 0.5815 0.1947
C85_11 C 0.11729(5) 0.66165(5) 0.15746(5)
C86_11 C 0.15746(5) 0.61729(5) 0.16165(5)
C87_11 C 0.16165(5) 0.65746(5) 0.11729(5)
C108_11 C 0.12892(5) 0.63404(5) 0.17366(5)
C109_11 C 0.17366(5) 0.62892(5) 0.13404(5)
C110_11 C 0.13404(5) 0.67366(5) 0.12892(5)
C131_11 C 0.11241(6) 0.62362(6) 0.20130(6)
C132_11 C 0.20130(6) 0.61241(6) 0.12362(6)
C133_11 C 0.12362(6) 0.70130(6) 0.11241(6)
H35_11 H 0.1200 0.6057 0.2124
H36_11 H 0.1057 0.7124 0.1200
H37_11 H 0.2124 0.6200 0.1057
C154_11 C 0.08546(5) 0.63914(6) 0.21242(5)
C155_11 C 0.21242(5) 0.58546(5) 0.13914(6)
C156_11 C 0.13914(6) 0.71242(5) 0.08546(5)
H58_11 H 0.0751 0.6317 0.2309
H59_11 H 0.1317 0.7309 0.0751
H60_11 H 0.2309 0.5751 0.1317
O45_11 O 0.20463(4) 0.69033(3) 0.03349(4)
O8_11 O 0.96676(3) 0.67463(4) 0.23442(3)
C13_11 C 0.95594(4) 0.68324(4) 0.20807(4)
C14_11 C 0.79193(4) 0.54406(4) 0.18324(4)
C15_11 C 0.81676(4) 0.70807(4) 0.04406(4)
C36_11 C 0.92650(4) 0.66588(5) 0.19621(4)
C37_11 C 0.80379(4) 0.57350(4) 0.16588(5)
C38_11 C 0.83412(5) 0.69621(4) 0.07350(4)
C59_11 C 0.91056(4) 0.67675(5) 0.16920(4)
C60_11 C 0.83080(4) 0.58944(4) 0.17675(5)
C61_11 C 0.82325(5) 0.66920(4) 0.08944(4)
H9_11 H 0.9185 0.6947 0.1584
H10_11 H 0.8053 0.6584 0.0815
H11_11 H 0.8416 0.5815 0.1947
C82_11 C 0.88271(5) 0.66165(5) 0.15746(5)
C83_11 C 0.84254(5) 0.61729(5) 0.16165(5)
C84_11 C 0.83835(5) 0.65746(5) 0.11729(5)
C105_11 C 0.87108(5) 0.63404(5) 0.17366(5)
C106_11 C 0.82634(5) 0.62892(5) 0.13404(5)
C107_11 C 0.86596(5) 0.67366(5) 0.12892(5)
C128_11 C 0.88759(6) 0.62362(6) 0.20130(6)
C129_11 C 0.79870(6) 0.61241(6) 0.12362(6)
C130_11 C 0.87638(6) 0.70130(6) 0.11241(6)
H32_11 H 0.8800 0.6057 0.2124
H33_11 H 0.8943 0.7124 0.1200
H34_11 H 0.7876 0.6200 0.1057
C151_11 C 0.91454(5) 0.63914(6) 0.21242(5)
C152_11 C 0.78758(5) 0.58546(5) 0.13914(6)
C153_11 C 0.86086(6) 0.71242(5) 0.08546(5)
H55_11 H 0.9249 0.6317 0.2309
H56_11 H 0.8683 0.7309 0.0751
H57_11 H 0.7691 0.5751 0.1317
O42_11 O 0.79537(4) 0.69033(3) 0.03349(4)
O11_12 O 0.32537(4) 0.03324(3) 0.73442(3)
C16_12 C 0.31676(4) 0.04406(4) 0.70807(4)
C17_12 C 0.45594(4) 0.20807(4) 0.68324(4)
C18_12 C 0.29193(4) 0.18324(4) 0.54406(4)
C39_12 C 0.33412(5) 0.07350(4) 0.69621(4)
C40_12 C 0.42650(4) 0.19621(4) 0.66588(5)
C41_12 C 0.30379(4) 0.16588(5) 0.57350(4)
C62_12 C 0.32325(5) 0.08944(4) 0.66920(4)
C63_12 C 0.41056(4) 0.16920(4) 0.67675(5)
C64_12 C 0.33080(4) 0.17675(5) 0.58944(4)
H12_12 H 0.3053 0.0815 0.6584
H13_12 H 0.3416 0.1947 0.5815
H14_12 H 0.4185 0.1584 0.6947
C85_12 C 0.33835(5) 0.11729(5) 0.65746(5)
C86_12 C 0.38271(5) 0.15746(5) 0.66165(5)
C87_12 C 0.34254(5) 0.16165(5) 0.61729(5)
C108_12 C 0.36596(5) 0.12892(5) 0.67366(5)
C109_12 C 0.37108(5) 0.17366(5) 0.63404(5)
C110_12 C 0.32634(5) 0.13404(5) 0.62892(5)
C131_12 C 0.37638(6) 0.11241(6) 0.70130(6)
C132_12 C 0.38759(6) 0.20130(6) 0.62362(6)
C133_12 C 0.29870(6) 0.12362(6) 0.61241(6)
H35_12 H 0.3943 0.1200 0.7124
H36_12 H 0.2876 0.1057 0.6200
H37_12 H 0.3800 0.2124 0.6057
C154_12 C 0.36086(6) 0.08546(5) 0.71242(5)
C155_12 C 0.41454(5) 0.21242(5) 0.63914(6)
C156_12 C 0.28758(5) 0.13914(6) 0.58546(5)
H58_12 H 0.3683 0.0751 0.7309
H59_12 H 0.2691 0.1317 0.5751
H60_12 H 0.4249 0.2309 0.6317
O45_12 O 0.30967(3) 0.20463(4) 0.53349(4)
O8_12 O 0.32537(4) 0.96676(3) 0.73442(3)
C13_12 C 0.31676(4) 0.95594(4) 0.70807(4)
C14_12 C 0.45594(4) 0.79193(4) 0.68324(4)
C15_12 C 0.29193(4) 0.81676(4) 0.54406(4)
C36_12 C 0.33412(5) 0.92650(4) 0.69621(4)
C37_12 C 0.42650(4) 0.80379(4) 0.66588(5)
C38_12 C 0.30379(4) 0.83412(5) 0.57350(4)
C59_12 C 0.32325(5) 0.91056(4) 0.66920(4)
C60_12 C 0.41056(4) 0.83080(4) 0.67675(5)
C61_12 C 0.33080(4) 0.82325(5) 0.58944(4)
H9_12 H 0.3053 0.9185 0.6584
H10_12 H 0.3416 0.8053 0.5815
H11_12 H 0.4185 0.8416 0.6947
C82_12 C 0.33835(5) 0.88271(5) 0.65746(5)
C83_12 C 0.38271(5) 0.84254(5) 0.66165(5)
C84_12 C 0.34254(5) 0.83835(5) 0.61729(5)
C105_12 C 0.36596(5) 0.87108(5) 0.67366(5)
C106_12 C 0.37108(5) 0.82634(5) 0.63404(5)
C107_12 C 0.32634(5) 0.86596(5) 0.62892(5)
C128_12 C 0.37638(6) 0.88759(6) 0.70130(6)
C129_12 C 0.38759(6) 0.79870(6) 0.62362(6)
C130_12 C 0.29870(6) 0.87638(6) 0.61241(6)
H32_12 H 0.3943 0.8800 0.7124
H33_12 H 0.2876 0.8943 0.6200
H34_12 H 0.3800 0.7876 0.6057
C151_12 C 0.36086(6) 0.91454(5) 0.71242(5)
C152_12 C 0.41454(5) 0.78758(5) 0.63914(6)
C153_12 C 0.28758(5) 0.86086(6) 0.58546(5)
H55_12 H 0.3683 0.9249 0.7309
H56_12 H 0.2691 0.8683 0.5751
H57_12 H 0.4249 0.7691 0.6317
O42_12 O 0.30967(3) 0.79537(4) 0.53349(4)
Cu7_7 Cu 0.262905(6) 0.5000 0.809397(6)
O8_13 O 0.03324(3) 0.67463(4) 0.76558(3)
O9_7 O 0.23442(3) 0.53324(3) 0.82537(4)
O28_7 O 0.23442(3) 0.46676(3) 0.82537(4)
C13_13 C 0.04406(4) 0.68324(4) 0.79193(4)
C14_13 C 0.20807(4) 0.54406(4) 0.81676(4)
C15_13 C 0.18324(4) 0.70807(4) 0.95594(4)
C36_13 C 0.07350(4) 0.66588(5) 0.80379(4)
C37_13 C 0.19621(4) 0.57350(4) 0.83412(5)
C38_13 C 0.16588(5) 0.69621(4) 0.92650(4)
C59_13 C 0.08944(4) 0.67675(5) 0.83080(4)
C60_13 C 0.16920(4) 0.58944(4) 0.82325(5)
C61_13 C 0.17675(5) 0.66920(4) 0.91056(4)
H9_13 H 0.0815 0.6947 0.8416
H10_13 H 0.1947 0.6584 0.9185
H11_13 H 0.1584 0.5815 0.8053
C82_13 C 0.11729(5) 0.66165(5) 0.84254(5)
C83_13 C 0.15746(5) 0.61729(5) 0.83835(5)
C84_13 C 0.16165(5) 0.65746(5) 0.88271(5)
C105_13 C 0.12892(5) 0.63404(5) 0.82634(5)
C106_13 C 0.17366(5) 0.62892(5) 0.86596(5)
C107_13 C 0.13404(5) 0.67366(5) 0.87108(5)
C128_13 C 0.11241(6) 0.62362(6) 0.79870(6)
C129_13 C 0.20130(6) 0.61241(6) 0.87638(6)
C130_13 C 0.12362(6) 0.70130(6) 0.88759(6)
H32_13 H 0.1200 0.6057 0.7876
H33_13 H 0.1057 0.7124 0.8800
H34_13 H 0.2124 0.6200 0.8943
C151_13 C 0.08546(5) 0.63914(6) 0.78758(5)
C152_13 C 0.21242(5) 0.58546(5) 0.86086(6)
C153_13 C 0.13914(6) 0.71242(5) 0.91454(5)
H55_13 H 0.0751 0.6317 0.7691
H56_13 H 0.1317 0.7309 0.9249
H57_13 H 0.2309 0.5751 0.8683
O42_13 O 0.20463(4) 0.69033(3) 0.96651(4)
O66_7 O 0.29537(4) 0.53349(4) 0.80967(3)
O67_7 O 0.29537(4) 0.46651(4) 0.80967(3)
Cu9_7 Cu 0.737095(6) 0.5000 0.809397(6)
O11_13 O 0.96676(3) 0.67463(4) 0.76558(3)
O12_7 O 0.76558(3) 0.53324(3) 0.82537(4)
O30_7 O 0.76558(3) 0.46676(3) 0.82537(4)
C16_13 C 0.95594(4) 0.68324(4) 0.79193(4)
C17_13 C 0.79193(4) 0.54406(4) 0.81676(4)
C18_13 C 0.81676(4) 0.70807(4) 0.95594(4)
C39_13 C 0.92650(4) 0.66588(5) 0.80379(4)
C40_13 C 0.80379(4) 0.57350(4) 0.83412(5)
C41_13 C 0.83412(5) 0.69621(4) 0.92650(4)
C62_13 C 0.91056(4) 0.67675(5) 0.83080(4)
C63_13 C 0.83080(4) 0.58944(4) 0.82325(5)
C64_13 C 0.82325(5) 0.66920(4) 0.91056(4)
H12_13 H 0.9185 0.6947 0.8416
H13_13 H 0.8053 0.6584 0.9185
H14_13 H 0.8416 0.5815 0.8053
C85_13 C 0.88271(5) 0.66165(5) 0.84254(5)
C86_13 C 0.84254(5) 0.61729(5) 0.83835(5)
C87_13 C 0.83835(5) 0.65746(5) 0.88271(5)
C108_13 C 0.87108(5) 0.63404(5) 0.82634(5)
C109_13 C 0.82634(5) 0.62892(5) 0.86596(5)
C110_13 C 0.86596(5) 0.67366(5) 0.87108(5)
C131_13 C 0.88759(6) 0.62362(6) 0.79870(6)
C132_13 C 0.79870(6) 0.61241(6) 0.87638(6)
C133_13 C 0.87638(6) 0.70130(6) 0.88759(6)
H35_13 H 0.8800 0.6057 0.7876
H36_13 H 0.8943 0.7124 0.8800
H37_13 H 0.7876 0.6200 0.8943
C154_13 C 0.91454(5) 0.63914(6) 0.78758(5)
C155_13 C 0.78758(5) 0.58546(5) 0.86086(6)
C156_13 C 0.86086(6) 0.71242(5) 0.91454(5)
H58_13 H 0.9249 0.6317 0.7691
H59_13 H 0.8683 0.7309 0.9249
H60_13 H 0.7691 0.5751 0.8683
O45_13 O 0.79537(4) 0.69033(3) 0.96651(4)
O68_7 O 0.70463(4) 0.53349(4) 0.80967(3)
O69_7 O 0.70463(4) 0.46651(4) 0.80967(3)
Cu7_8 Cu 0.5000 0.262905(6) 0.309397(6)
O8_14 O 0.32537(4) 0.03324(3) 0.26558(3)
O9_8 O 0.46676(3) 0.23442(3) 0.32537(4)
O28_8 O 0.53324(3) 0.23442(3) 0.32537(4)
C13_14 C 0.31676(4) 0.04406(4) 0.29193(4)
C14_14 C 0.45594(4) 0.20807(4) 0.31676(4)
C15_14 C 0.29193(4) 0.18324(4) 0.45594(4)
C36_14 C 0.33412(5) 0.07350(4) 0.30379(4)
C37_14 C 0.42650(4) 0.19621(4) 0.33412(5)
C38_14 C 0.30379(4) 0.16588(5) 0.42650(4)
C59_14 C 0.32325(5) 0.08944(4) 0.33080(4)
C60_14 C 0.41056(4) 0.16920(4) 0.32325(5)
C61_14 C 0.33080(4) 0.17675(5) 0.41056(4)
H9_14 H 0.3053 0.0815 0.3416
H10_14 H 0.3416 0.1947 0.4185
H11_14 H 0.4185 0.1584 0.3053
C82_14 C 0.33835(5) 0.11729(5) 0.34254(5)
C83_14 C 0.38271(5) 0.15746(5) 0.33835(5)
C84_14 C 0.34254(5) 0.16165(5) 0.38271(5)
C105_14 C 0.36596(5) 0.12892(5) 0.32634(5)
C106_14 C 0.37108(5) 0.17366(5) 0.36596(5)
C107_14 C 0.32634(5) 0.13404(5) 0.37108(5)
C128_14 C 0.37638(6) 0.11241(6) 0.29870(6)
C129_14 C 0.38759(6) 0.20130(6) 0.37638(6)
C130_14 C 0.29870(6) 0.12362(6) 0.38759(6)
H32_14 H 0.3943 0.1200 0.2876
H33_14 H 0.2876 0.1057 0.3800
H34_14 H 0.3800 0.2124 0.3943
C151_14 C 0.36086(6) 0.08546(5) 0.28758(5)
C152_14 C 0.41454(5) 0.21242(5) 0.36086(6)
C153_14 C 0.28758(5) 0.13914(6) 0.41454(5)
H55_14 H 0.3683 0.0751 0.2691
H56_14 H 0.2691 0.1317 0.4249
H57_14 H 0.4249 0.2309 0.3683
O42_14 O 0.30967(3) 0.20463(4) 0.46651(4)
O66_8 O 0.46651(4) 0.29537(4) 0.30967(3)
O67_8 O 0.53349(4) 0.29537(4) 0.30967(3)
Cu9_8 Cu 0.5000 0.737095(6) 0.309397(6)
O11_14 O 0.32537(4) 0.96676(3) 0.26558(3)
O12_8 O 0.46676(3) 0.76558(3) 0.32537(4)
O30_8 O 0.53324(3) 0.76558(3) 0.32537(4)
C16_14 C 0.31676(4) 0.95594(4) 0.29193(4)
C17_14 C 0.45594(4) 0.79193(4) 0.31676(4)
C18_14 C 0.29193(4) 0.81676(4) 0.45594(4)
C39_14 C 0.33412(5) 0.92650(4) 0.30379(4)
C40_14 C 0.42650(4) 0.80379(4) 0.33412(5)
C41_14 C 0.30379(4) 0.83412(5) 0.42650(4)
C62_14 C 0.32325(5) 0.91056(4) 0.33080(4)
C63_14 C 0.41056(4) 0.83080(4) 0.32325(5)
C64_14 C 0.33080(4) 0.82325(5) 0.41056(4)
H12_14 H 0.3053 0.9185 0.3416
H13_14 H 0.3416 0.8053 0.4185
H14_14 H 0.4185 0.8416 0.3053
C85_14 C 0.33835(5) 0.88271(5) 0.34254(5)
C86_14 C 0.38271(5) 0.84254(5) 0.33835(5)
C87_14 C 0.34254(5) 0.83835(5) 0.38271(5)
C108_14 C 0.36596(5) 0.87108(5) 0.32634(5)
C109_14 C 0.37108(5) 0.82634(5) 0.36596(5)
C110_14 C 0.32634(5) 0.86596(5) 0.37108(5)
C131_14 C 0.37638(6) 0.88759(6) 0.29870(6)
C132_14 C 0.38759(6) 0.79870(6) 0.37638(6)
C133_14 C 0.29870(6) 0.87638(6) 0.38759(6)
H35_14 H 0.3943 0.8800 0.2876
H36_14 H 0.2876 0.8943 0.3800
H37_14 H 0.3800 0.7876 0.3943
C154_14 C 0.36086(6) 0.91454(5) 0.28758(5)
C155_14 C 0.41454(5) 0.78758(5) 0.36086(6)
C156_14 C 0.28758(5) 0.86086(6) 0.41454(5)
H58_14 H 0.3683 0.9249 0.2691
H59_14 H 0.2691 0.8683 0.4249
H60_14 H 0.4249 0.7691 0.3683
O45_14 O 0.30967(3) 0.79537(4) 0.46651(4)
O68_8 O 0.46651(4) 0.70463(4) 0.30967(3)
O69_8 O 0.53349(4) 0.70463(4) 0.30967(3)
O11_15 O 0.03324(3) 0.32537(4) 0.76558(3)
C16_15 C 0.04406(4) 0.31676(4) 0.79193(4)
C17_15 C 0.20807(4) 0.45594(4) 0.81676(4)
C18_15 C 0.18324(4) 0.29193(4) 0.95594(4)
C39_15 C 0.07350(4) 0.33412(5) 0.80379(4)
C40_15 C 0.19621(4) 0.42650(4) 0.83412(5)
C41_15 C 0.16588(5) 0.30379(4) 0.92650(4)
C62_15 C 0.08944(4) 0.32325(5) 0.83080(4)
C63_15 C 0.16920(4) 0.41056(4) 0.82325(5)
C64_15 C 0.17675(5) 0.33080(4) 0.91056(4)
H12_15 H 0.0815 0.3053 0.8416
H13_15 H 0.1947 0.3416 0.9185
H14_15 H 0.1584 0.4185 0.8053
C85_15 C 0.11729(5) 0.33835(5) 0.84254(5)
C86_15 C 0.15746(5) 0.38271(5) 0.83835(5)
C87_15 C 0.16165(5) 0.34254(5) 0.88271(5)
C108_15 C 0.12892(5) 0.36596(5) 0.82634(5)
C109_15 C 0.17366(5) 0.37108(5) 0.86596(5)
C110_15 C 0.13404(5) 0.32634(5) 0.87108(5)
C131_15 C 0.11241(6) 0.37638(6) 0.79870(6)
C132_15 C 0.20130(6) 0.38759(6) 0.87638(6)
C133_15 C 0.12362(6) 0.29870(6) 0.88759(6)
H35_15 H 0.1200 0.3943 0.7876
H36_15 H 0.1057 0.2876 0.8800
H37_15 H 0.2124 0.3800 0.8943
C154_15 C 0.08546(5) 0.36086(6) 0.78758(5)
C155_15 C 0.21242(5) 0.41454(5) 0.86086(6)
C156_15 C 0.13914(6) 0.28758(5) 0.91454(5)
H58_15 H 0.0751 0.3683 0.7691
H59_15 H 0.1317 0.2691 0.9249
H60_15 H 0.2309 0.4249 0.8683
O45_15 O 0.20463(4) 0.30967(3) 0.96651(4)
O8_15 O 0.96676(3) 0.32537(4) 0.76558(3)
C13_15 C 0.95594(4) 0.31676(4) 0.79193(4)
C14_15 C 0.79193(4) 0.45594(4) 0.81676(4)
C15_15 C 0.81676(4) 0.29193(4) 0.95594(4)
C36_15 C 0.92650(4) 0.33412(5) 0.80379(4)
C37_15 C 0.80379(4) 0.42650(4) 0.83412(5)
C38_15 C 0.83412(5) 0.30379(4) 0.92650(4)
C59_15 C 0.91056(4) 0.32325(5) 0.83080(4)
C60_15 C 0.83080(4) 0.41056(4) 0.82325(5)
C61_15 C 0.82325(5) 0.33080(4) 0.91056(4)
H9_15 H 0.9185 0.3053 0.8416
H10_15 H 0.8053 0.3416 0.9185
H11_15 H 0.8416 0.4185 0.8053
C82_15 C 0.88271(5) 0.33835(5) 0.84254(5)
C83_15 C 0.84254(5) 0.38271(5) 0.83835(5)
C84_15 C 0.83835(5) 0.34254(5) 0.88271(5)
C105_15 C 0.87108(5) 0.36596(5) 0.82634(5)
C106_15 C 0.82634(5) 0.37108(5) 0.86596(5)
C107_15 C 0.86596(5) 0.32634(5) 0.87108(5)
C128_15 C 0.88759(6) 0.37638(6) 0.79870(6)
C129_15 C 0.79870(6) 0.38759(6) 0.87638(6)
C130_15 C 0.87638(6) 0.29870(6) 0.88759(6)
H32_15 H 0.8800 0.3943 0.7876
H33_15 H 0.8943 0.2876 0.8800
H34_15 H 0.7876 0.3800 0.8943
C151_15 C 0.91454(5) 0.36086(6) 0.78758(5)
C152_15 C 0.78758(5) 0.41454(5) 0.86086(6)
C153_15 C 0.86086(6) 0.28758(5) 0.91454(5)
H55_15 H 0.9249 0.3683 0.7691
H56_15 H 0.8683 0.2691 0.9249
H57_15 H 0.7691 0.4249 0.8683
O42_15 O 0.79537(4) 0.30967(3) 0.96651(4)
O11_16 O 0.67463(4) 0.03324(3) 0.26558(3)
C16_16 C 0.68324(4) 0.04406(4) 0.29193(4)
C17_16 C 0.54406(4) 0.20807(4) 0.31676(4)
C18_16 C 0.70807(4) 0.18324(4) 0.45594(4)
C39_16 C 0.66588(5) 0.07350(4) 0.30379(4)
C40_16 C 0.57350(4) 0.19621(4) 0.33412(5)
C41_16 C 0.69621(4) 0.16588(5) 0.42650(4)
C62_16 C 0.67675(5) 0.08944(4) 0.33080(4)
C63_16 C 0.58944(4) 0.16920(4) 0.32325(5)
C64_16 C 0.66920(4) 0.17675(5) 0.41056(4)
H12_16 H 0.6947 0.0815 0.3416
H13_16 H 0.6584 0.1947 0.4185
H14_16 H 0.5815 0.1584 0.3053
C85_16 C 0.66165(5) 0.11729(5) 0.34254(5)
C86_16 C 0.61729(5) 0.15746(5) 0.33835(5)
C87_16 C 0.65746(5) 0.16165(5) 0.38271(5)
C108_16 C 0.63404(5) 0.12892(5) 0.32634(5)
C109_16 C 0.62892(5) 0.17366(5) 0.36596(5)
C110_16 C 0.67366(5) 0.13404(5) 0.37108(5)
C131_16 C 0.62362(6) 0.11241(6) 0.29870(6)
C132_16 C 0.61241(6) 0.20130(6) 0.37638(6)
C133_16 C 0.70130(6) 0.12362(6) 0.38759(6)
H35_16 H 0.6057 0.1200 0.2876
H36_16 H 0.7124 0.1057 0.3800
H37_16 H 0.6200 0.2124 0.3943
C154_16 C 0.63914(6) 0.08546(5) 0.28758(5)
C155_16 C 0.58546(5) 0.21242(5) 0.36086(6)
C156_16 C 0.71242(5) 0.13914(6) 0.41454(5)
H58_16 H 0.6317 0.0751 0.2691
H59_16 H 0.7309 0.1317 0.4249
H60_16 H 0.5751 0.2309 0.3683
O45_16 O 0.69033(3) 0.20463(4) 0.46651(4)
O8_16 O 0.67463(4) 0.96676(3) 0.26558(3)
C13_16 C 0.68324(4) 0.95594(4) 0.29193(4)
C14_16 C 0.54406(4) 0.79193(4) 0.31676(4)
C15_16 C 0.70807(4) 0.81676(4) 0.45594(4)
C36_16 C 0.66588(5) 0.92650(4) 0.30379(4)
C37_16 C 0.57350(4) 0.80379(4) 0.33412(5)
C38_16 C 0.69621(4) 0.83412(5) 0.42650(4)
C59_16 C 0.67675(5) 0.91056(4) 0.33080(4)
C60_16 C 0.58944(4) 0.83080(4) 0.32325(5)
C61_16 C 0.66920(4) 0.82325(5) 0.41056(4)
H9_16 H 0.6947 0.9185 0.3416
H10_16 H 0.6584 0.8053 0.4185
H11_16 H 0.5815 0.8416 0.3053
C82_16 C 0.66165(5) 0.88271(5) 0.34254(5)
C83_16 C 0.61729(5) 0.84254(5) 0.33835(5)
C84_16 C 0.65746(5) 0.83835(5) 0.38271(5)
C105_16 C 0.63404(5) 0.87108(5) 0.32634(5)
C106_16 C 0.62892(5) 0.82634(5) 0.36596(5)
C107_16 C 0.67366(5) 0.86596(5) 0.37108(5)
C128_16 C 0.62362(6) 0.88759(6) 0.29870(6)
C129_16 C 0.61241(6) 0.79870(6) 0.37638(6)
C130_16 C 0.70130(6) 0.87638(6) 0.38759(6)
H32_16 H 0.6057 0.8800 0.2876
H33_16 H 0.7124 0.8943 0.3800
H34_16 H 0.6200 0.7876 0.3943
C151_16 C 0.63914(6) 0.91454(5) 0.28758(5)
C152_16 C 0.58546(5) 0.78758(5) 0.36086(6)
C153_16 C 0.71242(5) 0.86086(6) 0.41454(5)
H55_16 H 0.6317 0.9249 0.2691
H56_16 H 0.7309 0.8683 0.4249
H57_16 H 0.5751 0.7691 0.3683
O42_16 O 0.69033(3) 0.79537(4) 0.46651(4)
Cu13_13 Cu 0.5000 0.690603(6) 0.762905(6)
O32_9 O 0.46676(3) 0.73442(3) 0.82537(4)
O33_9 O 0.53324(3) 0.73442(3) 0.82537(4)
Cu13_14 Cu 0.5000 0.309397(6) 0.237095(6)
O32_10 O 0.46676(3) 0.26558(3) 0.17463(4)
O33_10 O 0.53324(3) 0.26558(3) 0.17463(4)
Cu13_15 Cu 0.5000 0.309397(6) 0.762905(6)
O32_11 O 0.53324(3) 0.26558(3) 0.82537(4)
O33_11 O 0.46676(3) 0.26558(3) 0.82537(4)
Cu13_16 Cu 0.5000 0.690603(6) 0.237095(6)
O32_12 O 0.53324(3) 0.73442(3) 0.17463(4)
O33_12 O 0.46676(3) 0.73442(3) 0.17463(4)
Cu13_17 Cu 0.309397(6) 0.5000 0.262905(6)
O32_13 O 0.26558(3) 0.46676(3) 0.32537(4)
O33_13 O 0.26558(3) 0.53324(3) 0.32537(4)
Cu13_18 Cu 0.690603(6) 0.5000 0.737095(6)
O32_14 O 0.73442(3) 0.46676(3) 0.67463(4)
O33_14 O 0.73442(3) 0.53324(3) 0.67463(4)
Cu13_19 Cu 0.690603(6) 0.5000 0.262905(6)
O32_15 O 0.73442(3) 0.53324(3) 0.32537(4)
O33_15 O 0.73442(3) 0.46676(3) 0.32537(4)
Cu16_9 Cu 0.309397(6) 0.5000 0.737095(6)
O8_17 O 0.32537(4) 0.73442(3) 0.53324(3)
O9_9 O 0.46676(3) 0.67463(4) 0.73442(3)
O10_5 O 0.26558(3) 0.53324(3) 0.67463(4)
O11_17 O 0.32537(4) 0.73442(3) 0.46676(3)
O12_9 O 0.46676(3) 0.67463(4) 0.26558(3)
O28_9 O 0.53324(3) 0.67463(4) 0.73442(3)
O29_5 O 0.26558(3) 0.46676(3) 0.67463(4)
O30_9 O 0.53324(3) 0.67463(4) 0.26558(3)
C13_17 C 0.31676(4) 0.70807(4) 0.54406(4)
C14_17 C 0.45594(4) 0.68324(4) 0.70807(4)
C15_17 C 0.29193(4) 0.54406(4) 0.68324(4)
C16_17 C 0.31676(4) 0.70807(4) 0.45594(4)
C17_17 C 0.45594(4) 0.68324(4) 0.29193(4)
C18_17 C 0.29193(4) 0.54406(4) 0.31676(4)
C36_17 C 0.33412(5) 0.69621(4) 0.57350(4)
C37_17 C 0.42650(4) 0.66588(5) 0.69621(4)
C38_17 C 0.30379(4) 0.57350(4) 0.66588(5)
C39_17 C 0.33412(5) 0.69621(4) 0.42650(4)
C40_17 C 0.42650(4) 0.66588(5) 0.30379(4)
C41_17 C 0.30379(4) 0.57350(4) 0.33412(5)
C59_17 C 0.32325(5) 0.66920(4) 0.58944(4)
C60_17 C 0.41056(4) 0.67675(5) 0.66920(4)
C61_17 C 0.33080(4) 0.58944(4) 0.67675(5)
C62_17 C 0.32325(5) 0.66920(4) 0.41056(4)
C63_17 C 0.41056(4) 0.67675(5) 0.33080(4)
C64_17 C 0.33080(4) 0.58944(4) 0.32325(5)
H9_17 H 0.3053 0.6584 0.5815
H10_17 H 0.3416 0.5815 0.6947
H11_17 H 0.4185 0.6947 0.6584
H12_17 H 0.3053 0.6584 0.4185
H13_17 H 0.3416 0.5815 0.3053
H14_17 H 0.4185 0.6947 0.3416
C82_17 C 0.33835(5) 0.65746(5) 0.61729(5)
C83_17 C 0.38271(5) 0.66165(5) 0.65746(5)
C84_17 C 0.34254(5) 0.61729(5) 0.66165(5)
C85_17 C 0.33835(5) 0.65746(5) 0.38271(5)
C86_17 C 0.38271(5) 0.66165(5) 0.34254(5)
C87_17 C 0.34254(5) 0.61729(5) 0.33835(5)
C105_17 C 0.36596(5) 0.67366(5) 0.62892(5)
C106_17 C 0.37108(5) 0.63404(5) 0.67366(5)
C107_17 C 0.32634(5) 0.62892(5) 0.63404(5)
C108_17 C 0.36596(5) 0.67366(5) 0.37108(5)
C109_17 C 0.37108(5) 0.63404(5) 0.32634(5)
C110_17 C 0.32634(5) 0.62892(5) 0.36596(5)
C128_17 C 0.37638(6) 0.70130(6) 0.61241(6)
C129_17 C 0.38759(6) 0.62362(6) 0.70130(6)
C130_17 C 0.29870(6) 0.61241(6) 0.62362(6)
C131_17 C 0.37638(6) 0.70130(6) 0.38759(6)
C132_17 C 0.38759(6) 0.62362(6) 0.29870(6)
C133_17 C 0.29870(6) 0.61241(6) 0.37638(6)
H32_17 H 0.3943 0.7124 0.6200
H33_17 H 0.2876 0.6200 0.6057
H34_17 H 0.3800 0.6057 0.7124
H35_17 H 0.3943 0.7124 0.3800
H36_17 H 0.2876 0.6200 0.3943
H37_17 H 0.3800 0.6057 0.2876
C151_17 C 0.36086(6) 0.71242(5) 0.58546(5)
C152_17 C 0.41454(5) 0.63914(6) 0.71242(5)
C153_17 C 0.28758(5) 0.58546(5) 0.63914(6)
C154_17 C 0.36086(6) 0.71242(5) 0.41454(5)
C155_17 C 0.41454(5) 0.63914(6) 0.28758(5)
C156_17 C 0.28758(5) 0.58546(5) 0.36086(6)
H55_17 H 0.3683 0.7309 0.5751
H56_17 H 0.2691 0.5751 0.6317
H57_17 H 0.4249 0.6317 0.7309
H58_17 H 0.3683 0.7309 0.4249
H59_17 H 0.2691 0.5751 0.3683
H60_17 H 0.4249 0.6317 0.2691
O42_17 O 0.30967(3) 0.53349(4) 0.70463(4)
O45_17 O 0.30967(3) 0.53349(4) 0.29537(4)
O66_9 O 0.46651(4) 0.69033(3) 0.79537(4)
O67_9 O 0.53349(4) 0.69033(3) 0.79537(4)
O68_9 O 0.46651(4) 0.69033(3) 0.20463(4)
O69_9 O 0.53349(4) 0.69033(3) 0.20463(4)
O32_16 O 0.73442(3) 0.67463(4) 0.03324(3)
O33_16 O 0.73442(3) 0.67463(4) 0.96676(3)
O8_18 O 0.67463(4) 0.26558(3) 0.53324(3)
O9_10 O 0.53324(3) 0.32537(4) 0.73442(3)
O11_18 O 0.67463(4) 0.26558(3) 0.46676(3)
O12_10 O 0.53324(3) 0.32537(4) 0.26558(3)
O28_10 O 0.46676(3) 0.32537(4) 0.73442(3)
O30_10 O 0.46676(3) 0.32537(4) 0.26558(3)
C13_18 C 0.68324(4) 0.29193(4) 0.54406(4)
C14_18 C 0.54406(4) 0.31676(4) 0.70807(4)
C15_18 C 0.70807(4) 0.45594(4) 0.68324(4)
C16_18 C 0.68324(4) 0.29193(4) 0.45594(4)
C17_18 C 0.54406(4) 0.31676(4) 0.29193(4)
C18_18 C 0.70807(4) 0.45594(4) 0.31676(4)
C36_18 C 0.66588(5) 0.30379(4) 0.57350(4)
C37_18 C 0.57350(4) 0.33412(5) 0.69621(4)
C38_18 C 0.69621(4) 0.42650(4) 0.66588(5)
C39_18 C 0.66588(5) 0.30379(4) 0.42650(4)
C40_18 C 0.57350(4) 0.33412(5) 0.30379(4)
C41_18 C 0.69621(4) 0.42650(4) 0.33412(5)
C59_18 C 0.67675(5) 0.33080(4) 0.58944(4)
C60_18 C 0.58944(4) 0.32325(5) 0.66920(4)
C61_18 C 0.66920(4) 0.41056(4) 0.67675(5)
C62_18 C 0.67675(5) 0.33080(4) 0.41056(4)
C63_18 C 0.58944(4) 0.32325(5) 0.33080(4)
C64_18 C 0.66920(4) 0.41056(4) 0.32325(5)
H9_18 H 0.6947 0.3416 0.5815
H10_18 H 0.6584 0.4185 0.6947
H11_18 H 0.5815 0.3053 0.6584
H12_18 H 0.6947 0.3416 0.4185
H13_18 H 0.6584 0.4185 0.3053
H14_18 H 0.5815 0.3053 0.3416
C82_18 C 0.66165(5) 0.34254(5) 0.61729(5)
C83_18 C 0.61729(5) 0.33835(5) 0.65746(5)
C84_18 C 0.65746(5) 0.38271(5) 0.66165(5)
C85_18 C 0.66165(5) 0.34254(5) 0.38271(5)
C86_18 C 0.61729(5) 0.33835(5) 0.34254(5)
C87_18 C 0.65746(5) 0.38271(5) 0.33835(5)
C105_18 C 0.63404(5) 0.32634(5) 0.62892(5)
C106_18 C 0.62892(5) 0.36596(5) 0.67366(5)
C107_18 C 0.67366(5) 0.37108(5) 0.63404(5)
C108_18 C 0.63404(5) 0.32634(5) 0.37108(5)
C109_18 C 0.62892(5) 0.36596(5) 0.32634(5)
C110_18 C 0.67366(5) 0.37108(5) 0.36596(5)
C128_18 C 0.62362(6) 0.29870(6) 0.61241(6)
C129_18 C 0.61241(6) 0.37638(6) 0.70130(6)
C130_18 C 0.70130(6) 0.38759(6) 0.62362(6)
C131_18 C 0.62362(6) 0.29870(6) 0.38759(6)
C132_18 C 0.61241(6) 0.37638(6) 0.29870(6)
C133_18 C 0.70130(6) 0.38759(6) 0.37638(6)
H32_18 H 0.6057 0.2876 0.6200
H33_18 H 0.7124 0.3800 0.6057
H34_18 H 0.6200 0.3943 0.7124
H35_18 H 0.6057 0.2876 0.3800
H36_18 H 0.7124 0.3800 0.3943
H37_18 H 0.6200 0.3943 0.2876
C151_18 C 0.63914(6) 0.28758(5) 0.58546(5)
C152_18 C 0.58546(5) 0.36086(6) 0.71242(5)
C153_18 C 0.71242(5) 0.41454(5) 0.63914(6)
C154_18 C 0.63914(6) 0.28758(5) 0.41454(5)
C155_18 C 0.58546(5) 0.36086(6) 0.28758(5)
C156_18 C 0.71242(5) 0.41454(5) 0.36086(6)
H55_18 H 0.6317 0.2691 0.5751
H56_18 H 0.7309 0.4249 0.6317
H57_18 H 0.5751 0.3683 0.7309
H58_18 H 0.6317 0.2691 0.4249
H59_18 H 0.7309 0.4249 0.3683
H60_18 H 0.5751 0.3683 0.2691
O42_18 O 0.69033(3) 0.46651(4) 0.70463(4)
O45_18 O 0.69033(3) 0.46651(4) 0.29537(4)
O66_10 O 0.53349(4) 0.30967(3) 0.79537(4)
O67_10 O 0.46651(4) 0.30967(3) 0.79537(4)
O68_10 O 0.53349(4) 0.30967(3) 0.20463(4)
O69_10 O 0.46651(4) 0.30967(3) 0.20463(4)
O32_17 O 0.26558(3) 0.32537(4) 0.03324(3)
O33_17 O 0.26558(3) 0.32537(4) 0.96676(3)
O8_19 O 0.32537(4) 0.26558(3) 0.46676(3)
O11_19 O 0.32537(4) 0.26558(3) 0.53324(3)
C13_19 C 0.31676(4) 0.29193(4) 0.45594(4)
C14_19 C 0.45594(4) 0.31676(4) 0.29193(4)
C15_19 C 0.29193(4) 0.45594(4) 0.31676(4)
C16_19 C 0.31676(4) 0.29193(4) 0.54406(4)
C17_19 C 0.45594(4) 0.31676(4) 0.70807(4)
C18_19 C 0.29193(4) 0.45594(4) 0.68324(4)
C36_19 C 0.33412(5) 0.30379(4) 0.42650(4)
C37_19 C 0.42650(4) 0.33412(5) 0.30379(4)
C38_19 C 0.30379(4) 0.42650(4) 0.33412(5)
C39_19 C 0.33412(5) 0.30379(4) 0.57350(4)
C40_19 C 0.42650(4) 0.33412(5) 0.69621(4)
C41_19 C 0.30379(4) 0.42650(4) 0.66588(5)
C59_19 C 0.32325(5) 0.33080(4) 0.41056(4)
C60_19 C 0.41056(4) 0.32325(5) 0.33080(4)
C61_19 C 0.33080(4) 0.41056(4) 0.32325(5)
C62_19 C 0.32325(5) 0.33080(4) 0.58944(4)
C63_19 C 0.41056(4) 0.32325(5) 0.66920(4)
C64_19 C 0.33080(4) 0.41056(4) 0.67675(5)
H9_19 H 0.3053 0.3416 0.4185
H10_19 H 0.3416 0.4185 0.3053
H11_19 H 0.4185 0.3053 0.3416
H12_19 H 0.3053 0.3416 0.5815
H13_19 H 0.3416 0.4185 0.6947
H14_19 H 0.4185 0.3053 0.6584
C82_19 C 0.33835(5) 0.34254(5) 0.38271(5)
C83_19 C 0.38271(5) 0.33835(5) 0.34254(5)
C84_19 C 0.34254(5) 0.38271(5) 0.33835(5)
C85_19 C 0.33835(5) 0.34254(5) 0.61729(5)
C86_19 C 0.38271(5) 0.33835(5) 0.65746(5)
C87_19 C 0.34254(5) 0.38271(5) 0.66165(5)
C105_19 C 0.36596(5) 0.32634(5) 0.37108(5)
C106_19 C 0.37108(5) 0.36596(5) 0.32634(5)
C107_19 C 0.32634(5) 0.37108(5) 0.36596(5)
C108_19 C 0.36596(5) 0.32634(5) 0.62892(5)
C109_19 C 0.37108(5) 0.36596(5) 0.67366(5)
C110_19 C 0.32634(5) 0.37108(5) 0.63404(5)
C128_19 C 0.37638(6) 0.29870(6) 0.38759(6)
C129_19 C 0.38759(6) 0.37638(6) 0.29870(6)
C130_19 C 0.29870(6) 0.38759(6) 0.37638(6)
C131_19 C 0.37638(6) 0.29870(6) 0.61241(6)
C132_19 C 0.38759(6) 0.37638(6) 0.70130(6)
C133_19 C 0.29870(6) 0.38759(6) 0.62362(6)
H32_19 H 0.3943 0.2876 0.3800
H33_19 H 0.2876 0.3800 0.3943
H34_19 H 0.3800 0.3943 0.2876
H35_19 H 0.3943 0.2876 0.6200
H36_19 H 0.2876 0.3800 0.6057
H37_19 H 0.3800 0.3943 0.7124
C151_19 C 0.36086(6) 0.28758(5) 0.41454(5)
C152_19 C 0.41454(5) 0.36086(6) 0.28758(5)
C153_19 C 0.28758(5) 0.41454(5) 0.36086(6)
C154_19 C 0.36086(6) 0.28758(5) 0.58546(5)
C155_19 C 0.41454(5) 0.36086(6) 0.71242(5)
C156_19 C 0.28758(5) 0.41454(5) 0.63914(6)
H55_19 H 0.3683 0.2691 0.4249
H56_19 H 0.2691 0.4249 0.3683
H57_19 H 0.4249 0.3683 0.2691
H58_19 H 0.3683 0.2691 0.5751
H59_19 H 0.2691 0.4249 0.6317
H60_19 H 0.4249 0.3683 0.7309
O42_19 O 0.30967(3) 0.46651(4) 0.29537(4)
O45_19 O 0.30967(3) 0.46651(4) 0.70463(4)
O33_18 O 0.26558(3) 0.67463(4) 0.03324(3)
O32_18 O 0.26558(3) 0.67463(4) 0.96676(3)
O8_20 O 0.67463(4) 0.73442(3) 0.46676(3)
O11_20 O 0.67463(4) 0.73442(3) 0.53324(3)
C13_20 C 0.68324(4) 0.70807(4) 0.45594(4)
C14_20 C 0.54406(4) 0.68324(4) 0.29193(4)
C15_20 C 0.70807(4) 0.54406(4) 0.31676(4)
C16_20 C 0.68324(4) 0.70807(4) 0.54406(4)
C17_20 C 0.54406(4) 0.68324(4) 0.70807(4)
C18_20 C 0.70807(4) 0.54406(4) 0.68324(4)
C36_20 C 0.66588(5) 0.69621(4) 0.42650(4)
C37_20 C 0.57350(4) 0.66588(5) 0.30379(4)
C38_20 C 0.69621(4) 0.57350(4) 0.33412(5)
C39_20 C 0.66588(5) 0.69621(4) 0.57350(4)
C40_20 C 0.57350(4) 0.66588(5) 0.69621(4)
C41_20 C 0.69621(4) 0.57350(4) 0.66588(5)
C59_20 C 0.67675(5) 0.66920(4) 0.41056(4)
C60_20 C 0.58944(4) 0.67675(5) 0.33080(4)
C61_20 C 0.66920(4) 0.58944(4) 0.32325(5)
C62_20 C 0.67675(5) 0.66920(4) 0.58944(4)
C63_20 C 0.58944(4) 0.67675(5) 0.66920(4)
C64_20 C 0.66920(4) 0.58944(4) 0.67675(5)
H9_20 H 0.6947 0.6584 0.4185
H10_20 H 0.6584 0.5815 0.3053
H11_20 H 0.5815 0.6947 0.3416
H12_20 H 0.6947 0.6584 0.5815
H13_20 H 0.6584 0.5815 0.6947
H14_20 H 0.5815 0.6947 0.6584
C82_20 C 0.66165(5) 0.65746(5) 0.38271(5)
C83_20 C 0.61729(5) 0.66165(5) 0.34254(5)
C84_20 C 0.65746(5) 0.61729(5) 0.33835(5)
C85_20 C 0.66165(5) 0.65746(5) 0.61729(5)
C86_20 C 0.61729(5) 0.66165(5) 0.65746(5)
C87_20 C 0.65746(5) 0.61729(5) 0.66165(5)
C105_20 C 0.63404(5) 0.67366(5) 0.37108(5)
C106_20 C 0.62892(5) 0.63404(5) 0.32634(5)
C107_20 C 0.67366(5) 0.62892(5) 0.36596(5)
C108_20 C 0.63404(5) 0.67366(5) 0.62892(5)
C109_20 C 0.62892(5) 0.63404(5) 0.67366(5)
C110_20 C 0.67366(5) 0.62892(5) 0.63404(5)
C128_20 C 0.62362(6) 0.70130(6) 0.38759(6)
C129_20 C 0.61241(6) 0.62362(6) 0.29870(6)
C130_20 C 0.70130(6) 0.61241(6) 0.37638(6)
C131_20 C 0.62362(6) 0.70130(6) 0.61241(6)
C132_20 C 0.61241(6) 0.62362(6) 0.70130(6)
C133_20 C 0.70130(6) 0.61241(6) 0.62362(6)
H32_20 H 0.6057 0.7124 0.3800
H33_20 H 0.7124 0.6200 0.3943
H34_20 H 0.6200 0.6057 0.2876
H35_20 H 0.6057 0.7124 0.6200
H36_20 H 0.7124 0.6200 0.6057
H37_20 H 0.6200 0.6057 0.7124
C151_20 C 0.63914(6) 0.71242(5) 0.41454(5)
C152_20 C 0.58546(5) 0.63914(6) 0.28758(5)
C153_20 C 0.71242(5) 0.58546(5) 0.36086(6)
C154_20 C 0.63914(6) 0.71242(5) 0.58546(5)
C155_20 C 0.58546(5) 0.63914(6) 0.71242(5)
C156_20 C 0.71242(5) 0.58546(5) 0.63914(6)
H55_20 H 0.6317 0.7309 0.4249
H56_20 H 0.7309 0.5751 0.3683
H57_20 H 0.5751 0.6317 0.2691
H58_20 H 0.6317 0.7309 0.5751
H59_20 H 0.7309 0.5751 0.6317
H60_20 H 0.5751 0.6317 0.7309
O42_20 O 0.69033(3) 0.53349(4) 0.29537(4)
O45_20 O 0.69033(3) 0.53349(4) 0.70463(4)
O33_19 O 0.73442(3) 0.32537(4) 0.03324(3)
O32_19 O 0.73442(3) 0.32537(4) 0.96676(3)
O8_21 O 0.67463(4) 0.53324(3) 0.23442(3)
O11_21 O 0.67463(4) 0.46676(3) 0.23442(3)
C13_21 C 0.68324(4) 0.54406(4) 0.20807(4)
C14_21 C 0.54406(4) 0.70807(4) 0.18324(4)
C15_21 C 0.70807(4) 0.68324(4) 0.04406(4)
C16_21 C 0.68324(4) 0.45594(4) 0.20807(4)
C17_21 C 0.54406(4) 0.29193(4) 0.18324(4)
C18_21 C 0.70807(4) 0.31676(4) 0.04406(4)
C36_21 C 0.66588(5) 0.57350(4) 0.19621(4)
C37_21 C 0.57350(4) 0.69621(4) 0.16588(5)
C38_21 C 0.69621(4) 0.66588(5) 0.07350(4)
C39_21 C 0.66588(5) 0.42650(4) 0.19621(4)
C40_21 C 0.57350(4) 0.30379(4) 0.16588(5)
C41_21 C 0.69621(4) 0.33412(5) 0.07350(4)
C59_21 C 0.67675(5) 0.58944(4) 0.16920(4)
C60_21 C 0.58944(4) 0.66920(4) 0.17675(5)
C61_21 C 0.66920(4) 0.67675(5) 0.08944(4)
C62_21 C 0.67675(5) 0.41056(4) 0.16920(4)
C63_21 C 0.58944(4) 0.33080(4) 0.17675(5)
C64_21 C 0.66920(4) 0.32325(5) 0.08944(4)
H9_21 H 0.6947 0.5815 0.1584
H10_21 H 0.6584 0.6947 0.0815
H11_21 H 0.5815 0.6584 0.1947
H12_21 H 0.6947 0.4185 0.1584
H13_21 H 0.6584 0.3053 0.0815
H14_21 H 0.5815 0.3416 0.1947
C82_21 C 0.66165(5) 0.61729(5) 0.15746(5)
C83_21 C 0.61729(5) 0.65746(5) 0.16165(5)
C84_21 C 0.65746(5) 0.66165(5) 0.11729(5)
C85_21 C 0.66165(5) 0.38271(5) 0.15746(5)
C86_21 C 0.61729(5) 0.34254(5) 0.16165(5)
C87_21 C 0.65746(5) 0.33835(5) 0.11729(5)
C105_21 C 0.63404(5) 0.62892(5) 0.17366(5)
C106_21 C 0.62892(5) 0.67366(5) 0.13404(5)
C107_21 C 0.67366(5) 0.63404(5) 0.12892(5)
C108_21 C 0.63404(5) 0.37108(5) 0.17366(5)
C109_21 C 0.62892(5) 0.32634(5) 0.13404(5)
C110_21 C 0.67366(5) 0.36596(5) 0.12892(5)
C128_21 C 0.62362(6) 0.61241(6) 0.20130(6)
C129_21 C 0.61241(6) 0.70130(6) 0.12362(6)
C130_21 C 0.70130(6) 0.62362(6) 0.11241(6)
C131_21 C 0.62362(6) 0.38759(6) 0.20130(6)
C132_21 C 0.61241(6) 0.29870(6) 0.12362(6)
C133_21 C 0.70130(6) 0.37638(6) 0.11241(6)
H32_21 H 0.6057 0.6200 0.2124
H33_21 H 0.7124 0.6057 0.1200
H34_21 H 0.6200 0.7124 0.1057
H35_21 H 0.6057 0.3800 0.2124
H36_21 H 0.7124 0.3943 0.1200
H37_21 H 0.6200 0.2876 0.1057
C151_21 C 0.63914(6) 0.58546(5) 0.21242(5)
C152_21 C 0.58546(5) 0.71242(5) 0.13914(6)
C153_21 C 0.71242(5) 0.63914(6) 0.08546(5)
C154_21 C 0.63914(6) 0.41454(5) 0.21242(5)
C155_21 C 0.58546(5) 0.28758(5) 0.13914(6)
C156_21 C 0.71242(5) 0.36086(6) 0.08546(5)
H55_21 H 0.6317 0.5751 0.2309
H56_21 H 0.7309 0.6317 0.0751
H57_21 H 0.5751 0.7309 0.1317
H58_21 H 0.6317 0.4249 0.2309
H59_21 H 0.7309 0.3683 0.0751
H60_21 H 0.5751 0.2691 0.1317
O8_22 O 0.32537(4) 0.46676(3) 0.23442(3)
O11_22 O 0.32537(4) 0.53324(3) 0.23442(3)
C13_22 C 0.31676(4) 0.45594(4) 0.20807(4)
C14_22 C 0.45594(4) 0.29193(4) 0.18324(4)
C15_22 C 0.29193(4) 0.31676(4) 0.04406(4)
C16_22 C 0.31676(4) 0.54406(4) 0.20807(4)
C17_22 C 0.45594(4) 0.70807(4) 0.18324(4)
C18_22 C 0.29193(4) 0.68324(4) 0.04406(4)
C36_22 C 0.33412(5) 0.42650(4) 0.19621(4)
C37_22 C 0.42650(4) 0.30379(4) 0.16588(5)
C38_22 C 0.30379(4) 0.33412(5) 0.07350(4)
C39_22 C 0.33412(5) 0.57350(4) 0.19621(4)
C40_22 C 0.42650(4) 0.69621(4) 0.16588(5)
C41_22 C 0.30379(4) 0.66588(5) 0.07350(4)
C59_22 C 0.32325(5) 0.41056(4) 0.16920(4)
C60_22 C 0.41056(4) 0.33080(4) 0.17675(5)
C61_22 C 0.33080(4) 0.32325(5) 0.08944(4)
C62_22 C 0.32325(5) 0.58944(4) 0.16920(4)
C63_22 C 0.41056(4) 0.66920(4) 0.17675(5)
C64_22 C 0.33080(4) 0.67675(5) 0.08944(4)
H9_22 H 0.3053 0.4185 0.1584
H10_22 H 0.3416 0.3053 0.0815
H11_22 H 0.4185 0.3416 0.1947
H12_22 H 0.3053 0.5815 0.1584
H13_22 H 0.3416 0.6947 0.0815
H14_22 H 0.4185 0.6584 0.1947
C82_22 C 0.33835(5) 0.38271(5) 0.15746(5)
C83_22 C 0.38271(5) 0.34254(5) 0.16165(5)
C84_22 C 0.34254(5) 0.33835(5) 0.11729(5)
C85_22 C 0.33835(5) 0.61729(5) 0.15746(5)
C86_22 C 0.38271(5) 0.65746(5) 0.16165(5)
C87_22 C 0.34254(5) 0.66165(5) 0.11729(5)
C105_22 C 0.36596(5) 0.37108(5) 0.17366(5)
C106_22 C 0.37108(5) 0.32634(5) 0.13404(5)
C107_22 C 0.32634(5) 0.36596(5) 0.12892(5)
C108_22 C 0.36596(5) 0.62892(5) 0.17366(5)
C109_22 C 0.37108(5) 0.67366(5) 0.13404(5)
C110_22 C 0.32634(5) 0.63404(5) 0.12892(5)
C128_22 C 0.37638(6) 0.38759(6) 0.20130(6)
C129_22 C 0.38759(6) 0.29870(6) 0.12362(6)
C130_22 C 0.29870(6) 0.37638(6) 0.11241(6)
C131_22 C 0.37638(6) 0.61241(6) 0.20130(6)
C132_22 C 0.38759(6) 0.70130(6) 0.12362(6)
C133_22 C 0.29870(6) 0.62362(6) 0.11241(6)
H32_22 H 0.3943 0.3800 0.2124
H33_22 H 0.2876 0.3943 0.1200
H34_22 H 0.3800 0.2876 0.1057
H35_22 H 0.3943 0.6200 0.2124
H36_22 H 0.2876 0.6057 0.1200
H37_22 H 0.3800 0.7124 0.1057
C151_22 C 0.36086(6) 0.41454(5) 0.21242(5)
C152_22 C 0.41454(5) 0.28758(5) 0.13914(6)
C153_22 C 0.28758(5) 0.36086(6) 0.08546(5)
C154_22 C 0.36086(6) 0.58546(5) 0.21242(5)
C155_22 C 0.41454(5) 0.71242(5) 0.13914(6)
C156_22 C 0.28758(5) 0.63914(6) 0.08546(5)
H55_22 H 0.3683 0.4249 0.2309
H56_22 H 0.2691 0.3683 0.0751
H57_22 H 0.4249 0.2691 0.1317
H58_22 H 0.3683 0.5751 0.2309
H59_22 H 0.2691 0.6317 0.0751
H60_22 H 0.4249 0.7309 0.1317
O8_23 O 0.32537(4) 0.53324(3) 0.76558(3)
O11_23 O 0.32537(4) 0.46676(3) 0.76558(3)
C13_23 C 0.31676(4) 0.54406(4) 0.79193(4)
C14_23 C 0.45594(4) 0.70807(4) 0.81676(4)
C15_23 C 0.29193(4) 0.68324(4) 0.95594(4)
C16_23 C 0.31676(4) 0.45594(4) 0.79193(4)
C17_23 C 0.45594(4) 0.29193(4) 0.81676(4)
C18_23 C 0.29193(4) 0.31676(4) 0.95594(4)
C36_23 C 0.33412(5) 0.57350(4) 0.80379(4)
C37_23 C 0.42650(4) 0.69621(4) 0.83412(5)
C38_23 C 0.30379(4) 0.66588(5) 0.92650(4)
C39_23 C 0.33412(5) 0.42650(4) 0.80379(4)
C40_23 C 0.42650(4) 0.30379(4) 0.83412(5)
C41_23 C 0.30379(4) 0.33412(5) 0.92650(4)
C59_23 C 0.32325(5) 0.58944(4) 0.83080(4)
C60_23 C 0.41056(4) 0.66920(4) 0.82325(5)
C61_23 C 0.33080(4) 0.67675(5) 0.91056(4)
C62_23 C 0.32325(5) 0.41056(4) 0.83080(4)
C63_23 C 0.41056(4) 0.33080(4) 0.82325(5)
C64_23 C 0.33080(4) 0.32325(5) 0.91056(4)
H9_23 H 0.3053 0.5815 0.8416
H10_23 H 0.3416 0.6947 0.9185
H11_23 H 0.4185 0.6584 0.8053
H12_23 H 0.3053 0.4185 0.8416
H13_23 H 0.3416 0.3053 0.9185
H14_23 H 0.4185 0.3416 0.8053
C82_23 C 0.33835(5) 0.61729(5) 0.84254(5)
C83_23 C 0.38271(5) 0.65746(5) 0.83835(5)
C84_23 C 0.34254(5) 0.66165(5) 0.88271(5)
C85_23 C 0.33835(5) 0.38271(5) 0.84254(5)
C86_23 C 0.38271(5) 0.34254(5) 0.83835(5)
C87_23 C 0.34254(5) 0.33835(5) 0.88271(5)
C105_23 C 0.36596(5) 0.62892(5) 0.82634(5)
C106_23 C 0.37108(5) 0.67366(5) 0.86596(5)
C107_23 C 0.32634(5) 0.63404(5) 0.87108(5)
C108_23 C 0.36596(5) 0.37108(5) 0.82634(5)
C109_23 C 0.37108(5) 0.32634(5) 0.86596(5)
C110_23 C 0.32634(5) 0.36596(5) 0.87108(5)
C128_23 C 0.37638(6) 0.61241(6) 0.79870(6)
C129_23 C 0.38759(6) 0.70130(6) 0.87638(6)
C130_23 C 0.29870(6) 0.62362(6) 0.88759(6)
C131_23 C 0.37638(6) 0.38759(6) 0.79870(6)
C132_23 C 0.38759(6) 0.29870(6) 0.87638(6)
C133_23 C 0.29870(6) 0.37638(6) 0.88759(6)
H32_23 H 0.3943 0.6200 0.7876
H33_23 H 0.2876 0.6057 0.8800
H34_23 H 0.3800 0.7124 0.8943
H35_23 H 0.3943 0.3800 0.7876
H36_23 H 0.2876 0.3943 0.8800
H37_23 H 0.3800 0.2876 0.8943
C151_23 C 0.36086(6) 0.58546(5) 0.78758(5)
C152_23 C 0.41454(5) 0.71242(5) 0.86086(6)
C153_23 C 0.28758(5) 0.63914(6) 0.91454(5)
C154_23 C 0.36086(6) 0.41454(5) 0.78758(5)
C155_23 C 0.41454(5) 0.28758(5) 0.86086(6)
C156_23 C 0.28758(5) 0.36086(6) 0.91454(5)
H55_23 H 0.3683 0.5751 0.7691
H56_23 H 0.2691 0.6317 0.9249
H57_23 H 0.4249 0.7309 0.8683
H58_23 H 0.3683 0.4249 0.7691
H59_23 H 0.2691 0.3683 0.9249
H60_23 H 0.4249 0.2691 0.8683
O8_24 O 0.67463(4) 0.46676(3) 0.76558(3)
O11_24 O 0.67463(4) 0.53324(3) 0.76558(3)
C13_24 C 0.68324(4) 0.45594(4) 0.79193(4)
C14_24 C 0.54406(4) 0.29193(4) 0.81676(4)
C15_24 C 0.70807(4) 0.31676(4) 0.95594(4)
C16_24 C 0.68324(4) 0.54406(4) 0.79193(4)
C17_24 C 0.54406(4) 0.70807(4) 0.81676(4)
C18_24 C 0.70807(4) 0.68324(4) 0.95594(4)
C36_24 C 0.66588(5) 0.42650(4) 0.80379(4)
C37_24 C 0.57350(4) 0.30379(4) 0.83412(5)
C38_24 C 0.69621(4) 0.33412(5) 0.92650(4)
C39_24 C 0.66588(5) 0.57350(4) 0.80379(4)
C40_24 C 0.57350(4) 0.69621(4) 0.83412(5)
C41_24 C 0.69621(4) 0.66588(5) 0.92650(4)
C59_24 C 0.67675(5) 0.41056(4) 0.83080(4)
C60_24 C 0.58944(4) 0.33080(4) 0.82325(5)
C61_24 C 0.66920(4) 0.32325(5) 0.91056(4)
C62_24 C 0.67675(5) 0.58944(4) 0.83080(4)
C63_24 C 0.58944(4) 0.66920(4) 0.82325(5)
C64_24 C 0.66920(4) 0.67675(5) 0.91056(4)
H9_24 H 0.6947 0.4185 0.8416
H10_24 H 0.6584 0.3053 0.9185
H11_24 H 0.5815 0.3416 0.8053
H12_24 H 0.6947 0.5815 0.8416
H13_24 H 0.6584 0.6947 0.9185
H14_24 H 0.5815 0.6584 0.8053
C82_24 C 0.66165(5) 0.38271(5) 0.84254(5)
C83_24 C 0.61729(5) 0.34254(5) 0.83835(5)
C84_24 C 0.65746(5) 0.33835(5) 0.88271(5)
C85_24 C 0.66165(5) 0.61729(5) 0.84254(5)
C86_24 C 0.61729(5) 0.65746(5) 0.83835(5)
C87_24 C 0.65746(5) 0.66165(5) 0.88271(5)
C105_24 C 0.63404(5) 0.37108(5) 0.82634(5)
C106_24 C 0.62892(5) 0.32634(5) 0.86596(5)
C107_24 C 0.67366(5) 0.36596(5) 0.87108(5)
C108_24 C 0.63404(5) 0.62892(5) 0.82634(5)
C109_24 C 0.62892(5) 0.67366(5) 0.86596(5)
C110_24 C 0.67366(5) 0.63404(5) 0.87108(5)
C128_24 C 0.62362(6) 0.38759(6) 0.79870(6)
C129_24 C 0.61241(6) 0.29870(6) 0.87638(6)
C130_24 C 0.70130(6) 0.37638(6) 0.88759(6)
C131_24 C 0.62362(6) 0.61241(6) 0.79870(6)
C132_24 C 0.61241(6) 0.70130(6) 0.87638(6)
C133_24 C 0.70130(6) 0.62362(6) 0.88759(6)
H32_24 H 0.6057 0.3800 0.7876
H33_24 H 0.7124 0.3943 0.8800
H34_24 H 0.6200 0.2876 0.8943
H35_24 H 0.6057 0.6200 0.7876
H36_24 H 0.7124 0.6057 0.8800
H37_24 H 0.6200 0.7124 0.8943
C151_24 C 0.63914(6) 0.41454(5) 0.78758(5)
C152_24 C 0.58546(5) 0.28758(5) 0.86086(6)
C153_24 C 0.71242(5) 0.36086(6) 0.91454(5)
C154_24 C 0.63914(6) 0.58546(5) 0.78758(5)
C155_24 C 0.58546(5) 0.71242(5) 0.86086(6)
C156_24 C 0.71242(5) 0.63914(6) 0.91454(5)
H55_24 H 0.6317 0.4249 0.7691
H56_24 H 0.7309 0.3683 0.9249
H57_24 H 0.5751 0.2691 0.8683
H58_24 H 0.6317 0.5751 0.7691
H59_24 H 0.7309 0.6317 0.9249
H60_24 H 0.5751 0.7309 0.8683
loop_
_geom_bond_atom_site_label_1
_geom_bond_atom_site_label_2
_geom_bond_site_symmetry_1
_geom_bond_site_symmetry_2
Cu1 Cl1 1_555 1_555
Cl1 Cu6 1_555 1_555
O1 Cu1 1_555 1_555
C1 O1 1_555 1_555
C2 C1 1_555 1_555
C3 C2 1_555 1_555
H1 C3 1_555 1_555
C4 C3 1_555 1_555
C5 C4 1_555 1_555
C6 C5 1_555 1_555
H2 C6 1_555 1_555
C7 C2 1_555 1_555
H3 C7 1_555 1_555
O2 C1 1_555 1_555
Cu2 Cl2 1_555 1_555
Cu3 Cl3 1_555 1_555
Cu6 O8 1_555 1_555
Cu7 Cl6 1_555 1_555
Cu8 Cl2 1_555 1_555
Cu11 Cl1 1_555 1_555
Cu12 Cl3 1_555 1_555
Cu13 Cl1 1_555 1_555
Cu15 Cl6 1_555 1_555
Cu16 Cl2 1_555 1_555
Cu19 Cl2 1_555 1_555
Cu24 O18 1_555 1_555
Cu25 O50 1_555 1_555
Cu26 Cl3 1_555 1_555
Cu30 Cl3 1_555 1_555
O3 Cu2 1_555 1_555
O4 Cu3 1_555 1_555
O8 C13 1_555 1_555
O9 Cu7 1_555 1_555
O10 Cu8 1_555 1_555
O17 Cu19 1_555 1_555
O18 C23 1_555 1_555
O19 Cu12 1_555 1_555
O28 Cu7 1_555 1_555
O32 Cu11 1_555 1_555
C8 O3 1_555 1_555
C9 O4 1_555 1_555
C13 C36 1_555 1_555
C14 O9 1_555 1_555
C15 O10 1_555 1_555
C22 O17 1_555 1_555
C23 C46 1_555 1_555
C24 O19 1_555 1_555
C31 C8 1_555 1_555
C32 C9 1_555 1_555
C36 C59 1_555 1_555
C37 C14 1_555 1_555
C38 C15 1_555 1_555
C45 C22 1_555 1_555
C46 C69 1_555 1_555
C47 C24 1_555 1_555
C54 C31 1_555 1_555
C55 C32 1_555 1_555
C59 H9 1_555 1_555
C60 C37 1_555 1_555
C61 C38 1_555 1_555
C68 C45 1_555 1_555
C69 H20 1_555 1_555
C70 C47 1_555 1_555
H4 C55 1_555 1_555
H5 C54 1_555 1_555
H10 C61 1_555 1_555
H11 C60 1_555 1_555
H18 C68 1_555 1_555
H19 C70 1_555 1_555
C77 C5 1_555 1_555
C78 C55 1_555 1_555
C82 C59 1_555 1_555
C83 C60 1_555 1_555
C84 C61 1_555 1_555
C91 C68 1_555 1_555
C92 C69 1_555 1_555
C93 C70 1_555 1_555
C100 C77 1_555 1_555
C101 C4 1_555 1_555
C105 C82 1_555 1_555
C106 C83 1_555 1_555
C107 C82 1_555 1_555
C114 C91 1_555 1_555
C115 C92 1_555 1_555
C116 C91 1_555 1_555
C123 C100 1_555 1_555
C124 C101 1_555 1_555
C128 C105 1_555 1_555
C129 C106 1_555 1_555
C130 C107 1_555 1_555
C137 C114 1_555 1_555
C138 C115 1_555 1_555
C139 C116 1_555 1_555
H27 C124 1_555 1_555
H28 C123 1_555 1_555
H32 C128 1_555 1_555
H33 C130 1_555 1_555
H34 C129 1_555 1_555
H41 C137 1_555 1_555
H42 C139 1_555 1_555
H43 C138 1_555 1_555
C146 C31 1_555 1_555
C147 C32 1_555 1_555
C151 C36 1_555 1_555
C152 C37 1_555 1_555
C153 C38 1_555 1_555
C160 C45 1_555 1_555
C161 C46 1_555 1_555
C162 C47 1_555 1_555
H50 C147 1_555 1_555
H51 C146 1_555 1_555
H55 C151 1_555 1_555
H56 C153 1_555 1_555
H57 C152 1_555 1_555
H64 C160 1_555 1_555
H65 C162 1_555 1_555
H66 C161 1_555 1_555
O35 Cu8 1_555 1_555
O36 Cu12 1_555 1_555
O40 Cu1 1_555 1_555
O41 Cu15 1_555 1_555
O42 Cu16 1_555 1_555
O49 Cu2 1_555 1_555
O50 C23 1_555 1_555
O51 Cu26 1_555 1_555
O58 Cu3 1_555 1_555
O64 Cu6 1_555 1_555
O66 Cu7 1_555 1_555
O67 Cu7 1_555 1_555
C6 C7 1_555 1_555
O2 Cu11 1_555 1_555
C8 O35 1_555 1_555
C9 O36 1_555 1_555
C13 O40 1_555 1_555
C14 O41 1_555 1_555
C15 O42 1_555 1_555
C22 O49 1_555 1_555
C24 O51 1_555 1_555
C54 C77 1_555 1_555
C78 C100 1_555 1_555
C78 C101 1_555 1_555
C83 C105 1_555 1_555
C84 C106 1_555 1_555
C84 C107 1_555 1_555
C92 C114 1_555 1_555
C93 C115 1_555 1_555
C93 C116 1_555 1_555
C123 C146 1_555 1_555
C124 C147 1_555 1_555
C128 C151 1_555 1_555
C129 C152 1_555 1_555
C130 C153 1_555 1_555
C137 C160 1_555 1_555
C138 C161 1_555 1_555
C139 C162 1_555 1_555
Cu1_2 Cl1_2 1_555 1_555
Cl1_2 Cu6_2 1_555 1_555
Cu4 Cl4 1_555 1_555
Cu5 Cl5 1_555 1_555
Cu9 Cl7 1_555 1_555
Cu10 Cl4 1_555 1_555
Cu11_2 Cl1_2 1_555 1_555
Cu13_2 Cl1_2 1_555 1_555
Cu14 Cl5 1_555 1_555
Cu17 Cl7 1_555 1_555
Cu18 Cl4 1_555 1_555
O5 Cu1_2 1_555 1_555
O6 Cu4 1_555 1_555
O7 Cu5 1_555 1_555
O11 Cu6_2 1_555 1_555
O12 Cu9 1_555 1_555
O13 Cu10 1_555 1_555
O30 Cu9 1_555 1_555
O33 Cu11_2 1_555 1_555
C10 O5 1_555 1_555
C11 O6 1_555 1_555
C12 O7 1_555 1_555
C16 O11 1_555 1_555
C17 O12 1_555 1_555
C18 O13 1_555 1_555
C33 C10 1_555 1_555
C34 C11 1_555 1_555
C35 C12 1_555 1_555
C39 C16 1_555 1_555
C40 C17 1_555 1_555
C41 C18 1_555 1_555
C56 C33 1_555 1_555
C57 C34 1_555 1_555
C58 C35 1_555 1_555
C62 C39 1_555 1_555
C63 C40 1_555 1_555
C64 C41 1_555 1_555
H6 C56 1_555 1_555
H7 C58 1_555 1_555
H8 C57 1_555 1_555
H12 C62 1_555 1_555
H13 C64 1_555 1_555
H14 C63 1_555 1_555
C79 C56 1_555 1_555
C80 C57 1_555 1_555
C81 C58 1_555 1_555
C85 C62 1_555 1_555
C86 C63 1_555 1_555
C87 C64 1_555 1_555
C102 C79 1_555 1_555
C103 C80 1_555 1_555
C104 C79 1_555 1_555
C108 C85 1_555 1_555
C109 C86 1_555 1_555
C110 C85 1_555 1_555
C125 C102 1_555 1_555
C126 C103 1_555 1_555
C127 C104 1_555 1_555
C131 C108 1_555 1_555
C132 C109 1_555 1_555
C133 C110 1_555 1_555
H29 C125 1_555 1_555
H30 C127 1_555 1_555
H31 C126 1_555 1_555
H35 C131 1_555 1_555
H36 C133 1_555 1_555
H37 C132 1_555 1_555
C148 C33 1_555 1_555
C149 C34 1_555 1_555
C150 C35 1_555 1_555
C154 C39 1_555 1_555
C155 C40 1_555 1_555
C156 C41 1_555 1_555
H52 C148 1_555 1_555
H53 C150 1_555 1_555
H54 C149 1_555 1_555
H58 C154 1_555 1_555
H59 C156 1_555 1_555
H60 C155 1_555 1_555
O37 Cu11_2 1_555 1_555
O38 Cu10 1_555 1_555
O39 Cu14 1_555 1_555
O43 Cu1_2 1_555 1_555
O44 Cu17 1_555 1_555
O45 Cu18 1_555 1_555
O60 Cu4 1_555 1_555
O62 Cu5 1_555 1_555
O65 Cu6_2 1_555 1_555
O68 Cu9 1_555 1_555
O69 Cu9 1_555 1_555
C10 O37 1_555 1_555
C11 O38 1_555 1_555
C12 O39 1_555 1_555
C16 O43 1_555 1_555
C17 O44 1_555 1_555
C18 O45 1_555 1_555
C80 C102 1_555 1_555
C81 C103 1_555 1_555
C81 C104 1_555 1_555
C86 C108 1_555 1_555
C87 C109 1_555 1_555
C87 C110 1_555 1_555
C125 C148 1_555 1_555
C126 C149 1_555 1_555
C127 C150 1_555 1_555
C131 C154 1_555 1_555
C132 C155 1_555 1_555
C133 C156 1_555 1_555
Cu2_2 Cl2_2 1_555 1_555
Cu8_2 Cl2_2 1_555 1_555
Cu16_2 Cl2_2 1_555 1_555
Cu19_2 Cl2_2 1_555 1_555
Cu20 O15 1_555 1_555
Cu21 O22 1_555 1_555
Cu22 O16 1_555 1_555
Cu23 O48 1_555 1_555
Cu27 O21 1_555 1_555
Cu28 O53 1_555 1_555
Cu29 O54 1_555 1_555
O14 Cu2_2 1_555 1_555
O15 C20 1_555 1_555
O16 C21 1_555 1_555
O20 Cu19_2 1_555 1_555
O21 C26 1_555 1_555
O22 C27 1_555 1_555
O29 Cu8_2 1_555 1_555
C19 O14 1_555 1_555
C20 C43 1_555 1_555
C21 C44 1_555 1_555
C25 O20 1_555 1_555
C26 C49 1_555 1_555
C27 C50 1_555 1_555
C42 C19 1_555 1_555
C43 C66 1_555 1_555
C44 C67 1_555 1_555
C48 C25 1_555 1_555
C49 C72 1_555 1_555
C50 C73 1_555 1_555
C65 C42 1_555 1_555
C66 H17 1_555 1_555
C67 H16 1_555 1_555
C71 C48 1_555 1_555
C72 H23 1_555 1_555
C73 H22 1_555 1_555
H15 C65 1_555 1_555
H21 C71 1_555 1_555
C88 C65 1_555 1_555
C89 C66 1_555 1_555
C90 C67 1_555 1_555
C94 C71 1_555 1_555
C95 C72 1_555 1_555
C96 C73 1_555 1_555
C111 C88 1_555 1_555
C112 C89 1_555 1_555
C113 C88 1_555 1_555
C117 C94 1_555 1_555
C118 C95 1_555 1_555
C119 C94 1_555 1_555
C134 C111 1_555 1_555
C135 C112 1_555 1_555
C136 C113 1_555 1_555
C140 C117 1_555 1_555
C141 C118 1_555 1_555
C142 C119 1_555 1_555
H38 C134 1_555 1_555
H39 C136 1_555 1_555
H40 C135 1_555 1_555
H44 C140 1_555 1_555
H45 C142 1_555 1_555
H46 C141 1_555 1_555
C157 C42 1_555 1_555
C158 C43 1_555 1_555
C159 C44 1_555 1_555
C163 C48 1_555 1_555
C164 C49 1_555 1_555
C165 C50 1_555 1_555
H61 C157 1_555 1_555
H62 C159 1_555 1_555
H63 C158 1_555 1_555
H67 C163 1_555 1_555
H68 C165 1_555 1_555
H69 C164 1_555 1_555
O46 Cu8_2 1_555 1_555
O47 Cu21 1_555 1_555
O48 C21 1_555 1_555
O52 Cu2_2 1_555 1_555
O53 C26 1_555 1_555
O54 C27 1_555 1_555
C19 O46 1_555 1_555
C20 O47 1_555 1_555
C25 O52 1_555 1_555
C89 C111 1_555 1_555
C90 C112 1_555 1_555
C90 C113 1_555 1_555
C95 C117 1_555 1_555
C96 C118 1_555 1_555
C96 C119 1_555 1_555
C134 C157 1_555 1_555
C135 C158 1_555 1_555
C136 C159 1_555 1_555
C140 C163 1_555 1_555
C141 C164 1_555 1_555
C142 C165 1_555 1_555
Cu4_2 Cl4_2 1_555 1_555
Cu10_2 Cl4_2 1_555 1_555
Cu18_2 Cl4_2 1_555 1_555
O26 Cu4_2 1_555 1_555
O31 Cu10_2 1_555 1_555
O61 Cu4_2 1_555 1_555
O70 Cu10_2 1_555 1_555
Cu3_2 Cl3_2 1_555 1_555
Cu12_2 Cl3_2 1_555 1_555
Cu26_2 Cl3_2 1_555 1_555
Cu30_2 Cl3_2 1_555 1_555
Cu31 O24 1_555 1_555
Cu32 O56 1_555 1_555
Cu33 O25 1_555 1_555
Cu34 O57 1_555 1_555
O23 Cu3_2 1_555 1_555
O24 C29 1_555 1_555
O25 C30 1_555 1_555
O34 Cu12_2 1_555 1_555
C28 O23 1_555 1_555
C29 C52 1_555 1_555
C30 C53 1_555 1_555
C51 C28 1_555 1_555
C52 C75 1_555 1_555
C53 C76 1_555 1_555
C74 C51 1_555 1_555
C75 H26 1_555 1_555
C76 H25 1_555 1_555
H24 C74 1_555 1_555
C97 C74 1_555 1_555
C98 C75 1_555 1_555
C99 C76 1_555 1_555
C120 C97 1_555 1_555
C121 C98 1_555 1_555
C122 C97 1_555 1_555
C143 C120 1_555 1_555
C144 C121 1_555 1_555
C145 C122 1_555 1_555
H47 C143 1_555 1_555
H48 C145 1_555 1_555
H49 C144 1_555 1_555
C166 C51 1_555 1_555
C167 C52 1_555 1_555
C168 C53 1_555 1_555
H70 C166 1_555 1_555
H71 C168 1_555 1_555
H72 C167 1_555 1_555
O55 Cu12_2 1_555 1_555
O56 C29 1_555 1_555
O57 C30 1_555 1_555
O59 Cu3_2 1_555 1_555
C28 O55 1_555 1_555
C98 C120 1_555 1_555
C99 C121 1_555 1_555
C99 C122 1_555 1_555
C143 C166 1_555 1_555
C144 C167 1_555 1_555
C145 C168 1_555 1_555
Cu5_2 Cl5_2 1_555 1_555
Cu14_2 Cl5_2 1_555 1_555
O27 Cu5_2 1_555 1_555
O63 Cu5_2 1_555 1_555
Cu8_3 Cl5 1_555 1_555
Cu16_3 Cl5 1_555 1_555
Cu20_3 O15_2 1_555 1_555
Cu24 O16_2 1_555 1_555
Cu25 O48_2 1_555 1_555
O14_2 Cu14 1_555 1_555
O15_2 C20_2 1_555 1_555
O16_2 C21_2 1_555 1_555
O29_2 Cu8_3 1_555 1_555
O31_2 Cu26 1_555 1_555
C19_2 O14_2 1_555 1_555
C20_2 C43_2 1_555 1_555
C21_2 C44_2 1_555 1_555
C42_2 C19_2 1_555 1_555
C43_2 C66_2 1_555 1_555
C44_2 C67_2 1_555 1_555
C65_2 C42_2 1_555 1_555
C66_2 H17_2 1_555 1_555
C67_2 H16_2 1_555 1_555
H15_2 C65_2 1_555 1_555
C88_2 C65_2 1_555 1_555
C89_2 C66_2 1_555 1_555
C90_2 C67_2 1_555 1_555
C111_2 C88_2 1_555 1_555
C112_2 C89_2 1_555 1_555
C113_2 C88_2 1_555 1_555
C134_2 C111_2 1_555 1_555
C135_2 C112_2 1_555 1_555
C136_2 C113_2 1_555 1_555
H38_2 C134_2 1_555 1_555
H39_2 C136_2 1_555 1_555
H40_2 C135_2 1_555 1_555
C157_2 C42_2 1_555 1_555
C158_2 C43_2 1_555 1_555
C159_2 C44_2 1_555 1_555
H61_2 C157_2 1_555 1_555
H62_2 C159_2 1_555 1_555
H63_2 C158_2 1_555 1_555
O46_2 Cu8_3 1_555 1_555
O48_2 C21_2 1_555 1_555
C19_2 O46_2 1_555 1_555
C20_2 O60 1_555 1_555
C89_2 C111_2 1_555 1_555
C90_2 C112_2 1_555 1_555
C90_2 C113_2 1_555 1_555
C134_2 C157_2 1_555 1_555
C135_2 C158_2 1_555 1_555
C136_2 C159_2 1_555 1_555
Cu1_3 Cl1_3 1_555 1_555
Cl1_3 Cu6_3 1_555 1_555
O1_2 Cu1_3 1_555 1_555
C1_2 O1_2 1_555 1_555
C2_2 C1_2 1_555 1_555
C3_2 C2_2 1_555 1_555
H1_2 C3_2 1_555 1_555
C4_2 C3_2 1_555 1_555
C5_2 C4_2 1_555 1_555
C6_2 C5_2 1_555 1_555
H2_2 C6_2 1_555 1_555
C7_2 C2_2 1_555 1_555
H3_2 C7_2 1_555 1_555
O2_2 C1_2 1_555 1_555
Cu3_3 Cl3_3 1_555 1_555
Cu5_3 Cl5_3 1_555 1_555
Cu6_3 O8_2 1_555 1_555
Cu7_2 Cl6_2 1_555 1_555
Cu8_4 Cl5_2 1_555 1_555
Cu9_2 Cl7_2 1_555 1_555
Cu11_3 Cl1_3 1_555 1_555
Cu12_3 Cl3_3 1_555 1_555
Cu13_3 Cl1_3 1_555 1_555
Cu33 Cl5_3 1_555 1_555
Cu15_2 Cl6_2 1_555 1_555
Cu16_4 Cl5_2 1_555 1_555
Cu17_2 Cl7_2 1_555 1_555
Cu31_2 O18_2 1_555 1_555
Cu32_2 O50_2 1_555 1_555
Cu26_3 Cl3_3 1_555 1_555
Cu30_3 Cl3_3 1_555 1_555
O3_2 Cu14_2 1_555 1_555
O4_2 Cu3_3 1_555 1_555
O5_2 Cu1_3 1_555 1_555
O7_2 Cu5_3 1_555 1_555
O8_2 C13_2 1_555 1_555
O9_2 Cu7_2 1_555 1_555
O10_2 Cu8_4 1_555 1_555
O11_2 Cu6_3 1_555 1_555
O12_2 Cu9_2 1_555 1_555
O13_2 Cu26_2 1_555 1_555
O18_2 C23_2 1_555 1_555
O19_2 Cu12_3 1_555 1_555
O28_2 Cu7_2 1_555 1_555
O30_2 Cu9_2 1_555 1_555
O32_2 Cu11_3 1_555 1_555
O33_2 Cu11_3 1_555 1_555
C8_2 O3_2 1_555 1_555
C9_2 O4_2 1_555 1_555
C10_2 O5_2 1_555 1_555
C11_2 O34 1_555 1_555
C12_2 O7_2 1_555 1_555
C13_2 C36_2 1_555 1_555
C14_2 O9_2 1_555 1_555
C15_2 O10_2 1_555 1_555
C16_2 O11_2 1_555 1_555
C17_2 O12_2 1_555 1_555
C18_2 O13_2 1_555 1_555
C22_2 O27 1_555 1_555
C23_2 C46_2 1_555 1_555
C24_2 O19_2 1_555 1_555
C31_2 C8_2 1_555 1_555
C32_2 C9_2 1_555 1_555
C33_2 C10_2 1_555 1_555
C34_2 C11_2 1_555 1_555
C35_2 C12_2 1_555 1_555
C36_2 C59_2 1_555 1_555
C37_2 C14_2 1_555 1_555
C38_2 C15_2 1_555 1_555
C39_2 C16_2 1_555 1_555
C40_2 C17_2 1_555 1_555
C41_2 C18_2 1_555 1_555
C45_2 C22_2 1_555 1_555
C46_2 C69_2 1_555 1_555
C47_2 C24_2 1_555 1_555
C54_2 C31_2 1_555 1_555
C55_2 C32_2 1_555 1_555
C56_2 C33_2 1_555 1_555
C57_2 C34_2 1_555 1_555
C58_2 C35_2 1_555 1_555
C59_2 H9_2 1_555 1_555
C60_2 C37_2 1_555 1_555
C61_2 C38_2 1_555 1_555
C62_2 C39_2 1_555 1_555
C63_2 C40_2 1_555 1_555
C64_2 C41_2 1_555 1_555
C68_2 C45_2 1_555 1_555
C69_2 H20_2 1_555 1_555
C70_2 C47_2 1_555 1_555
H4_2 C55_2 1_555 1_555
H5_2 C54_2 1_555 1_555
H6_2 C56_2 1_555 1_555
H7_2 C58_2 1_555 1_555
H8_2 C57_2 1_555 1_555
H10_2 C61_2 1_555 1_555
H11_2 C60_2 1_555 1_555
H12_2 C62_2 1_555 1_555
H13_2 C64_2 1_555 1_555
H14_2 C63_2 1_555 1_555
H18_2 C68_2 1_555 1_555
H19_2 C70_2 1_555 1_555
C77_2 C5_2 1_555 1_555
C78_2 C55_2 1_555 1_555
C79_2 C56_2 1_555 1_555
C80_2 C57_2 1_555 1_555
C81_2 C58_2 1_555 1_555
C82_2 C59_2 1_555 1_555
C83_2 C60_2 1_555 1_555
C84_2 C61_2 1_555 1_555
C85_2 C62_2 1_555 1_555
C86_2 C63_2 1_555 1_555
C87_2 C64_2 1_555 1_555
C91_2 C68_2 1_555 1_555
C92_2 C69_2 1_555 1_555
C93_2 C70_2 1_555 1_555
C100_2 C77_2 1_555 1_555
C101_2 C4_2 1_555 1_555
C102_2 C79_2 1_555 1_555
C103_2 C80_2 1_555 1_555
C104_2 C79_2 1_555 1_555
C105_2 C82_2 1_555 1_555
C106_2 C83_2 1_555 1_555
C107_2 C82_2 1_555 1_555
C108_2 C85_2 1_555 1_555
C109_2 C86_2 1_555 1_555
C110_2 C85_2 1_555 1_555
C114_2 C91_2 1_555 1_555
C115_2 C92_2 1_555 1_555
C116_2 C91_2 1_555 1_555
C123_2 C100_2 1_555 1_555
C124_2 C101_2 1_555 1_555
C125_2 C102_2 1_555 1_555
C126_2 C103_2 1_555 1_555
C127_2 C104_2 1_555 1_555
C128_2 C105_2 1_555 1_555
C129_2 C106_2 1_555 1_555
C130_2 C107_2 1_555 1_555
C131_2 C108_2 1_555 1_555
C132_2 C109_2 1_555 1_555
C133_2 C110_2 1_555 1_555
C137_2 C114_2 1_555 1_555
C138_2 C115_2 1_555 1_555
C139_2 C116_2 1_555 1_555
H27_2 C124_2 1_555 1_555
H28_2 C123_2 1_555 1_555
H29_2 C125_2 1_555 1_555
H30_2 C127_2 1_555 1_555
H31_2 C126_2 1_555 1_555
H32_2 C128_2 1_555 1_555
H33_2 C130_2 1_555 1_555
H34_2 C129_2 1_555 1_555
H35_2 C131_2 1_555 1_555
H36_2 C133_2 1_555 1_555
H37_2 C132_2 1_555 1_555
H41_2 C137_2 1_555 1_555
H42_2 C139_2 1_555 1_555
H43_2 C138_2 1_555 1_555
C146_2 C31_2 1_555 1_555
C147_2 C32_2 1_555 1_555
C148_2 C33_2 1_555 1_555
C149_2 C34_2 1_555 1_555
C150_2 C35_2 1_555 1_555
C151_2 C36_2 1_555 1_555
C152_2 C37_2 1_555 1_555
C153_2 C38_2 1_555 1_555
C154_2 C39_2 1_555 1_555
C155_2 C40_2 1_555 1_555
C156_2 C41_2 1_555 1_555
C160_2 C45_2 1_555 1_555
C161_2 C46_2 1_555 1_555
C162_2 C47_2 1_555 1_555
H50_2 C147_2 1_555 1_555
H51_2 C146_2 1_555 1_555
H52_2 C148_2 1_555 1_555
H53_2 C150_2 1_555 1_555
H54_2 C149_2 1_555 1_555
H55_2 C151_2 1_555 1_555
H56_2 C153_2 1_555 1_555
H57_2 C152_2 1_555 1_555
H58_2 C154_2 1_555 1_555
H59_2 C156_2 1_555 1_555
H60_2 C155_2 1_555 1_555
H64_2 C160_2 1_555 1_555
H65_2 C162_2 1_555 1_555
H66_2 C161_2 1_555 1_555
O35_2 Cu8_4 1_555 1_555
O36_2 Cu12_3 1_555 1_555
O37_2 Cu11_3 1_555 1_555
O38_2 Cu26_2 1_555 1_555
O39_2 Cu33 1_555 1_555
O40_2 Cu1_3 1_555 1_555
O41_2 Cu15_2 1_555 1_555
O42_2 Cu16_4 1_555 1_555
O43_2 Cu1_3 1_555 1_555
O44_2 Cu17_2 1_555 1_555
O45_2 Cu30_2 1_555 1_555
O49_2 Cu14_2 1_555 1_555
O50_2 C23_2 1_555 1_555
O51_2 Cu26_3 1_555 1_555
O58_2 Cu3_3 1_555 1_555
O62_2 Cu5_3 1_555 1_555
O64_2 Cu6_3 1_555 1_555
O65_2 Cu6_3 1_555 1_555
O66_2 Cu7_2 1_555 1_555
O67_2 Cu7_2 1_555 1_555
O68_2 Cu9_2 1_555 1_555
O69_2 Cu9_2 1_555 1_555
C6_2 C7_2 1_555 1_555
O2_2 Cu11_3 1_555 1_555
C8_2 O35_2 1_555 1_555
C9_2 O36_2 1_555 1_555
C10_2 O37_2 1_555 1_555
C11_2 O38_2 1_555 1_555
C12_2 O39_2 1_555 1_555
C13_2 O40_2 1_555 1_555
C14_2 O41_2 1_555 1_555
C15_2 O42_2 1_555 1_555
C16_2 O43_2 1_555 1_555
C17_2 O44_2 1_555 1_555
C18_2 O45_2 1_555 1_555
C22_2 O49_2 1_555 1_555
C24_2 O51_2 1_555 1_555
C54_2 C77_2 1_555 1_555
C78_2 C100_2 1_555 1_555
C78_2 C101_2 1_555 1_555
C80_2 C102_2 1_555 1_555
C81_2 C103_2 1_555 1_555
C81_2 C104_2 1_555 1_555
C83_2 C105_2 1_555 1_555
C84_2 C106_2 1_555 1_555
C84_2 C107_2 1_555 1_555
C86_2 C108_2 1_555 1_555
C87_2 C109_2 1_555 1_555
C87_2 C110_2 1_555 1_555
C92_2 C114_2 1_555 1_555
C93_2 C115_2 1_555 1_555
C93_2 C116_2 1_555 1_555
C123_2 C146_2 1_555 1_555
C124_2 C147_2 1_555 1_555
C125_2 C148_2 1_555 1_555
C126_2 C149_2 1_555 1_555
C127_2 C150_2 1_555 1_555
C128_2 C151_2 1_555 1_555
C129_2 C152_2 1_555 1_555
C130_2 C153_2 1_555 1_555
C131_2 C154_2 1_555 1_555
C132_2 C155_2 1_555 1_555
C133_2 C156_2 1_555 1_555
C137_2 C160_2 1_555 1_555
C138_2 C161_2 1_555 1_555
C139_2 C162_2 1_555 1_555
Cu3_4 Cl3_4 1_555 1_555
Cu5_4 Cl5_4 1_555 1_555
Cu12_4 Cl3_4 1_555 1_555
Cu33_2 Cl5_4 1_555 1_555
Cu26_4 Cl3_4 1_555 1_555
Cu30_4 Cl3_4 1_555 1_555
Cu31_3 O24_2 1_555 1_555
Cu32_3 O56_2 1_555 1_555
Cu33_4 O25_2 1_555 1_555
Cu34_4 O57_2 1_555 1_555
O23_2 Cu3_4 1_555 1_555
O24_2 C29_2 1_555 1_555
O25_2 C30_2 1_555 1_555
O27_2 Cu5_4 1_555 1_555
O34_2 Cu12_4 1_555 1_555
C28_2 O23_2 1_555 1_555
C29_2 C52_2 1_555 1_555
C30_2 C53_2 1_555 1_555
C51_2 C28_2 1_555 1_555
C52_2 C75_2 1_555 1_555
C53_2 C76_2 1_555 1_555
C74_2 C51_2 1_555 1_555
C75_2 H26_2 1_555 1_555
C76_2 H25_2 1_555 1_555
H24_2 C74_2 1_555 1_555
C97_2 C74_2 1_555 1_555
C98_2 C75_2 1_555 1_555
C99_2 C76_2 1_555 1_555
C120_2 C97_2 1_555 1_555
C121_2 C98_2 1_555 1_555
C122_2 C97_2 1_555 1_555
C143_2 C120_2 1_555 1_555
C144_2 C121_2 1_555 1_555
C145_2 C122_2 1_555 1_555
H47_2 C143_2 1_555 1_555
H48_2 C145_2 1_555 1_555
H49_2 C144_2 1_555 1_555
C166_2 C51_2 1_555 1_555
C167_2 C52_2 1_555 1_555
C168_2 C53_2 1_555 1_555
H70_2 C166_2 1_555 1_555
H71_2 C168_2 1_555 1_555
H72_2 C167_2 1_555 1_555
O55_2 Cu12_4 1_555 1_555
O56_2 C29_2 1_555 1_555
O57_2 C30_2 1_555 1_555
O59_2 Cu3_4 1_555 1_555
O63_2 Cu5_4 1_555 1_555
C28_2 O55_2 1_555 1_555
C98_2 C120_2 1_555 1_555
C99_2 C121_2 1_555 1_555
C99_2 C122_2 1_555 1_555
C143_2 C166_2 1_555 1_555
C144_2 C167_2 1_555 1_555
C145_2 C168_2 1_555 1_555
Cu20 Cl3_5 1_555 1_555
Cu21 Cl3_5 1_555 1_555
Cu29 Cl3_5 1_555 1_555
Cu30_5 Cl3_5 1_555 1_555
O59_3 Cu20 1_555 1_555
Cu5_5 Cl5_5 1_555 1_555
Cu33_3 Cl5_5 1_555 1_555
O27_3 Cu5_5 1_555 1_555
O63_3 Cu5_5 1_555 1_555
Cu34 Cl5_3 1_555 1_555
Cu16_5 Cl5_3 1_555 1_555
O29_3 Cu34 1_555 1_555
O31_3 Cu26_3 1_555 1_555
Cu1_4 Cl1_4 1_555 1_555
Cl1_4 Cu6_4 1_555 1_555
O1_3 Cu1_4 1_555 1_555
C1_3 O1_3 1_555 1_555
C2_3 C1_3 1_555 1_555
C3_3 C2_3 1_555 1_555
H1_3 C3_3 1_555 1_555
C4_3 C3_3 1_555 1_555
C5_3 C4_3 1_555 1_555
C6_3 C5_3 1_555 1_555
H2_3 C6_3 1_555 1_555
C7_3 C2_3 1_555 1_555
H3_3 C7_3 1_555 1_555
O2_3 C1_3 1_555 1_555
Cu20_2 Cl3_6 1_555 1_555
Cu6_4 O8_3 1_555 1_555
Cu7_3 Cl6_3 1_555 1_555
Cu34_2 Cl5_4 1_555 1_555
Cu11_4 Cl1_4 1_555 1_555
Cu21_2 Cl3_6 1_555 1_555
Cu13_4 Cl1_4 1_555 1_555
Cu15_3 Cl6_3 1_555 1_555
Cu16_6 Cl5_4 1_555 1_555
Cu31_3 O18_3 1_555 1_555
Cu32_3 O50_3 1_555 1_555
Cu29_2 Cl3_6 1_555 1_555
Cu30_6 Cl3_6 1_555 1_555
O3_3 Cu33_2 1_555 1_555
O4_3 Cu20_2 1_555 1_555
O8_3 C13_3 1_555 1_555
O9_3 Cu7_3 1_555 1_555
O10_3 Cu34_2 1_555 1_555
O18_3 C23_3 1_555 1_555
O19_3 Cu21_2 1_555 1_555
O28_3 Cu7_3 1_555 1_555
O32_3 Cu11_4 1_555 1_555
C8_3 O3_3 1_555 1_555
C9_3 O4_3 1_555 1_555
C13_3 C36_3 1_555 1_555
C14_3 O9_3 1_555 1_555
C15_3 O10_3 1_555 1_555
C22_3 O27_2 1_555 1_555
C23_3 C46_3 1_555 1_555
C24_3 O19_3 1_555 1_555
C31_3 C8_3 1_555 1_555
C32_3 C9_3 1_555 1_555
C36_3 C59_3 1_555 1_555
C37_3 C14_3 1_555 1_555
C38_3 C15_3 1_555 1_555
C45_3 C22_3 1_555 1_555
C46_3 C69_3 1_555 1_555
C47_3 C24_3 1_555 1_555
C54_3 C31_3 1_555 1_555
C55_3 C32_3 1_555 1_555
C59_3 H9_3 1_555 1_555
C60_3 C37_3 1_555 1_555
C61_3 C38_3 1_555 1_555
C68_3 C45_3 1_555 1_555
C69_3 H20_3 1_555 1_555
C70_3 C47_3 1_555 1_555
H4_3 C55_3 1_555 1_555
H5_3 C54_3 1_555 1_555
H10_3 C61_3 1_555 1_555
H11_3 C60_3 1_555 1_555
H18_3 C68_3 1_555 1_555
H19_3 C70_3 1_555 1_555
C77_3 C5_3 1_555 1_555
C78_3 C55_3 1_555 1_555
C82_3 C59_3 1_555 1_555
C83_3 C60_3 1_555 1_555
C84_3 C61_3 1_555 1_555
C91_3 C68_3 1_555 1_555
C92_3 C69_3 1_555 1_555
C93_3 C70_3 1_555 1_555
C100_3 C77_3 1_555 1_555
C101_3 C4_3 1_555 1_555
C105_3 C82_3 1_555 1_555
C106_3 C83_3 1_555 1_555
C107_3 C82_3 1_555 1_555
C114_3 C91_3 1_555 1_555
C115_3 C92_3 1_555 1_555
C116_3 C91_3 1_555 1_555
C123_3 C100_3 1_555 1_555
C124_3 C101_3 1_555 1_555
C128_3 C105_3 1_555 1_555
C129_3 C106_3 1_555 1_555
C130_3 C107_3 1_555 1_555
C137_3 C114_3 1_555 1_555
C138_3 C115_3 1_555 1_555
C139_3 C116_3 1_555 1_555
H27_3 C124_3 1_555 1_555
H28_3 C123_3 1_555 1_555
H32_3 C128_3 1_555 1_555
H33_3 C130_3 1_555 1_555
H34_3 C129_3 1_555 1_555
H41_3 C137_3 1_555 1_555
H42_3 C139_3 1_555 1_555
H43_3 C138_3 1_555 1_555
C146_3 C31_3 1_555 1_555
C147_3 C32_3 1_555 1_555
C151_3 C36_3 1_555 1_555
C152_3 C37_3 1_555 1_555
C153_3 C38_3 1_555 1_555
C160_3 C45_3 1_555 1_555
C161_3 C46_3 1_555 1_555
C162_3 C47_3 1_555 1_555
H50_3 C147_3 1_555 1_555
H51_3 C146_3 1_555 1_555
H55_3 C151_3 1_555 1_555
H56_3 C153_3 1_555 1_555
H57_3 C152_3 1_555 1_555
H64_3 C160_3 1_555 1_555
H65_3 C162_3 1_555 1_555
H66_3 C161_3 1_555 1_555
O35_3 Cu34_2 1_555 1_555
O36_3 Cu21_2 1_555 1_555
O40_3 Cu1_4 1_555 1_555
O41_3 Cu15_3 1_555 1_555
O42_3 Cu16_6 1_555 1_555
O49_3 Cu33_2 1_555 1_555
O50_3 C23_3 1_555 1_555
O51_3 Cu29_2 1_555 1_555
O58_3 Cu20_2 1_555 1_555
O64_3 Cu6_4 1_555 1_555
O66_3 Cu7_3 1_555 1_555
O67_3 Cu7_3 1_555 1_555
C6_3 C7_3 1_555 1_555
O2_3 Cu11_4 1_555 1_555
C8_3 O35_3 1_555 1_555
C9_3 O36_3 1_555 1_555
C13_3 O40_3 1_555 1_555
C14_3 O41_3 1_555 1_555
C15_3 O42_3 1_555 1_555
C22_3 O49_3 1_555 1_555
C24_3 O51_3 1_555 1_555
C54_3 C77_3 1_555 1_555
C78_3 C100_3 1_555 1_555
C78_3 C101_3 1_555 1_555
C83_3 C105_3 1_555 1_555
C84_3 C106_3 1_555 1_555
C84_3 C107_3 1_555 1_555
C92_3 C114_3 1_555 1_555
C93_3 C115_3 1_555 1_555
C93_3 C116_3 1_555 1_555
C123_3 C146_3 1_555 1_555
C124_3 C147_3 1_555 1_555
C128_3 C151_3 1_555 1_555
C129_3 C152_3 1_555 1_555
C130_3 C153_3 1_555 1_555
C137_3 C160_3 1_555 1_555
C138_3 C161_3 1_555 1_555
C139_3 C162_3 1_555 1_555
Cu1_5 Cl1_5 1_555 1_555
Cl1_5 Cu6_5 1_555 1_555
Cu5_6 Cl5_6 1_555 1_555
Cu9_3 Cl7_3 1_555 1_555
Cu11_5 Cl1_5 1_555 1_555
Cu13_5 Cl1_5 1_555 1_555
Cu33_4 Cl5_6 1_555 1_555
Cu17_3 Cl7_3 1_555 1_555
O5_3 Cu1_5 1_555 1_555
O7_3 Cu5_6 1_555 1_555
O11_3 Cu6_5 1_555 1_555
O12_3 Cu9_3 1_555 1_555
O13_3 Cu26_4 1_555 1_555
O30_3 Cu9_3 1_555 1_555
O33_3 Cu11_5 1_555 1_555
C10_3 O5_3 1_555 1_555
C11_3 O34_2 1_555 1_555
C12_3 O7_3 1_555 1_555
C16_3 O11_3 1_555 1_555
C17_3 O12_3 1_555 1_555
C18_3 O13_3 1_555 1_555
C33_3 C10_3 1_555 1_555
C34_3 C11_3 1_555 1_555
C35_3 C12_3 1_555 1_555
C39_3 C16_3 1_555 1_555
C40_3 C17_3 1_555 1_555
C41_3 C18_3 1_555 1_555
C56_3 C33_3 1_555 1_555
C57_3 C34_3 1_555 1_555
C58_3 C35_3 1_555 1_555
C62_3 C39_3 1_555 1_555
C63_3 C40_3 1_555 1_555
C64_3 C41_3 1_555 1_555
H6_3 C56_3 1_555 1_555
H7_3 C58_3 1_555 1_555
H8_3 C57_3 1_555 1_555
H12_3 C62_3 1_555 1_555
H13_3 C64_3 1_555 1_555
H14_3 C63_3 1_555 1_555
C79_3 C56_3 1_555 1_555
C80_3 C57_3 1_555 1_555
C81_3 C58_3 1_555 1_555
C85_3 C62_3 1_555 1_555
C86_3 C63_3 1_555 1_555
C87_3 C64_3 1_555 1_555
C102_3 C79_3 1_555 1_555
C103_3 C80_3 1_555 1_555
C104_3 C79_3 1_555 1_555
C108_3 C85_3 1_555 1_555
C109_3 C86_3 1_555 1_555
C110_3 C85_3 1_555 1_555
C125_3 C102_3 1_555 1_555
C126_3 C103_3 1_555 1_555
C127_3 C104_3 1_555 1_555
C131_3 C108_3 1_555 1_555
C132_3 C109_3 1_555 1_555
C133_3 C110_3 1_555 1_555
H29_3 C125_3 1_555 1_555
H30_3 C127_3 1_555 1_555
H31_3 C126_3 1_555 1_555
H35_3 C131_3 1_555 1_555
H36_3 C133_3 1_555 1_555
H37_3 C132_3 1_555 1_555
C148_3 C33_3 1_555 1_555
C149_3 C34_3 1_555 1_555
C150_3 C35_3 1_555 1_555
C154_3 C39_3 1_555 1_555
C155_3 C40_3 1_555 1_555
C156_3 C41_3 1_555 1_555
H52_3 C148_3 1_555 1_555
H53_3 C150_3 1_555 1_555
H54_3 C149_3 1_555 1_555
H58_3 C154_3 1_555 1_555
H59_3 C156_3 1_555 1_555
H60_3 C155_3 1_555 1_555
O37_3 Cu11_5 1_555 1_555
O38_3 Cu26_4 1_555 1_555
O39_3 Cu33_4 1_555 1_555
O43_3 Cu1_5 1_555 1_555
O44_3 Cu17_3 1_555 1_555
O45_3 Cu30_4 1_555 1_555
O62_3 Cu5_6 1_555 1_555
O65_3 Cu6_5 1_555 1_555
O68_3 Cu9_3 1_555 1_555
O69_3 Cu9_3 1_555 1_555
C10_3 O37_3 1_555 1_555
C11_3 O38_3 1_555 1_555
C12_3 O39_3 1_555 1_555
C16_3 O43_3 1_555 1_555
C17_3 O44_3 1_555 1_555
C18_3 O45_3 1_555 1_555
C80_3 C102_3 1_555 1_555
C81_3 C103_3 1_555 1_555
C81_3 C104_3 1_555 1_555
C86_3 C108_3 1_555 1_555
C87_3 C109_3 1_555 1_555
C87_3 C110_3 1_555 1_555
C125_3 C148_3 1_555 1_555
C126_3 C149_3 1_555 1_555
C127_3 C150_3 1_555 1_555
C131_3 C154_3 1_555 1_555
C132_3 C155_3 1_555 1_555
C133_3 C156_3 1_555 1_555
Cu20_3 Cl4 1_555 1_555
O59_4 Cu20_3 1_555 1_555
O63_4 Cu19 1_555 1_555
Cu27 Cl1_6 1_555 1_555
Cl1_6 Cu6_6 1_555 1_555
O1_4 Cu27 1_555 1_555
C1_4 O1_4 1_555 1_555
C2_4 C1_4 1_555 1_555
C3_4 C2_4 1_555 1_555
H1_4 C3_4 1_555 1_555
C4_4 C3_4 1_555 1_555
C5_4 C4_4 1_555 1_555
C6_4 C5_4 1_555 1_555
H2_4 C6_4 1_555 1_555
C7_4 C2_4 1_555 1_555
H3_4 C7_4 1_555 1_555
O2_4 C1_4 1_555 1_555
Cu20_4 Cl4_2 1_555 1_555
Cu6_6 O8_4 1_555 1_555
Cu7_4 Cl6_4 1_555 1_555
Cu34_3 Cl5_5 1_555 1_555
Cu9_4 Cl7_4 1_555 1_555
Cu28 Cl1_6 1_555 1_555
Cu13_6 Cl1_6 1_555 1_555
Cu15_4 Cl6_4 1_555 1_555
Cu16_7 Cl5_5 1_555 1_555
Cu17_4 Cl7_4 1_555 1_555
Cu22_2 O18_4 1_555 1_555
Cu23_2 O50_4 1_555 1_555
O3_4 Cu33_3 1_555 1_555
O4_4 Cu20_4 1_555 1_555
O8_4 C13_4 1_555 1_555
O9_4 Cu7_4 1_555 1_555
O10_4 Cu34_3 1_555 1_555
O11_4 Cu6_6 1_555 1_555
O12_4 Cu9_4 1_555 1_555
O13_4 Cu29 1_555 1_555
O18_4 C23_4 1_555 1_555
O28_4 Cu7_4 1_555 1_555
O30_4 Cu9_4 1_555 1_555
O32_4 Cu28 1_555 1_555
O33_4 Cu28 1_555 1_555
C8_4 O3_4 1_555 1_555
C9_4 O4_4 1_555 1_555
C13_4 C36_4 1_555 1_555
C14_4 O9_4 1_555 1_555
C15_4 O10_4 1_555 1_555
C16_4 O11_4 1_555 1_555
C17_4 O12_4 1_555 1_555
C18_4 O13_4 1_555 1_555
C22_4 O27_3 1_555 1_555
C23_4 C46_4 1_555 1_555
C24_4 O26 1_555 1_555
C31_4 C8_4 1_555 1_555
C32_4 C9_4 1_555 1_555
C36_4 C59_4 1_555 1_555
C37_4 C14_4 1_555 1_555
C38_4 C15_4 1_555 1_555
C39_4 C16_4 1_555 1_555
C40_4 C17_4 1_555 1_555
C41_4 C18_4 1_555 1_555
C45_4 C22_4 1_555 1_555
C46_4 C69_4 1_555 1_555
C47_4 C24_4 1_555 1_555
C54_4 C31_4 1_555 1_555
C55_4 C32_4 1_555 1_555
C59_4 H9_4 1_555 1_555
C60_4 C37_4 1_555 1_555
C61_4 C38_4 1_555 1_555
C62_4 C39_4 1_555 1_555
C63_4 C40_4 1_555 1_555
C64_4 C41_4 1_555 1_555
C68_4 C45_4 1_555 1_555
C69_4 H20_4 1_555 1_555
C70_4 C47_4 1_555 1_555
H4_4 C55_4 1_555 1_555
H5_4 C54_4 1_555 1_555
H10_4 C61_4 1_555 1_555
H11_4 C60_4 1_555 1_555
H12_4 C62_4 1_555 1_555
H13_4 C64_4 1_555 1_555
H14_4 C63_4 1_555 1_555
H18_4 C68_4 1_555 1_555
H19_4 C70_4 1_555 1_555
C77_4 C5_4 1_555 1_555
C78_4 C55_4 1_555 1_555
C82_4 C59_4 1_555 1_555
C83_4 C60_4 1_555 1_555
C84_4 C61_4 1_555 1_555
C85_4 C62_4 1_555 1_555
C86_4 C63_4 1_555 1_555
C87_4 C64_4 1_555 1_555
C91_4 C68_4 1_555 1_555
C92_4 C69_4 1_555 1_555
C93_4 C70_4 1_555 1_555
C100_4 C77_4 1_555 1_555
C101_4 C4_4 1_555 1_555
C105_4 C82_4 1_555 1_555
C106_4 C83_4 1_555 1_555
C107_4 C82_4 1_555 1_555
C108_4 C85_4 1_555 1_555
C109_4 C86_4 1_555 1_555
C110_4 C85_4 1_555 1_555
C114_4 C91_4 1_555 1_555
C115_4 C92_4 1_555 1_555
C116_4 C91_4 1_555 1_555
C123_4 C100_4 1_555 1_555
C124_4 C101_4 1_555 1_555
C128_4 C105_4 1_555 1_555
C129_4 C106_4 1_555 1_555
C130_4 C107_4 1_555 1_555
C131_4 C108_4 1_555 1_555
C132_4 C109_4 1_555 1_555
C133_4 C110_4 1_555 1_555
C137_4 C114_4 1_555 1_555
C138_4 C115_4 1_555 1_555
C139_4 C116_4 1_555 1_555
H27_4 C124_4 1_555 1_555
H28_4 C123_4 1_555 1_555
H32_4 C128_4 1_555 1_555
H33_4 C130_4 1_555 1_555
H34_4 C129_4 1_555 1_555
H35_4 C131_4 1_555 1_555
H36_4 C133_4 1_555 1_555
H37_4 C132_4 1_555 1_555
H41_4 C137_4 1_555 1_555
H42_4 C139_4 1_555 1_555
H43_4 C138_4 1_555 1_555
C146_4 C31_4 1_555 1_555
C147_4 C32_4 1_555 1_555
C151_4 C36_4 1_555 1_555
C152_4 C37_4 1_555 1_555
C153_4 C38_4 1_555 1_555
C154_4 C39_4 1_555 1_555
C155_4 C40_4 1_555 1_555
C156_4 C41_4 1_555 1_555
C160_4 C45_4 1_555 1_555
C161_4 C46_4 1_555 1_555
C162_4 C47_4 1_555 1_555
H50_4 C147_4 1_555 1_555
H51_4 C146_4 1_555 1_555
H55_4 C151_4 1_555 1_555
H56_4 C153_4 1_555 1_555
H57_4 C152_4 1_555 1_555
H58_4 C154_4 1_555 1_555
H59_4 C156_4 1_555 1_555
H60_4 C155_4 1_555 1_555
H64_4 C160_4 1_555 1_555
H65_4 C162_4 1_555 1_555
H66_4 C161_4 1_555 1_555
O35_4 Cu34_3 1_555 1_555
O40_4 Cu27 1_555 1_555
O41_4 Cu15_4 1_555 1_555
O42_4 Cu16_7 1_555 1_555
O43_4 Cu27 1_555 1_555
O44_4 Cu17_4 1_555 1_555
O45_4 Cu30_5 1_555 1_555
O49_4 Cu33_3 1_555 1_555
O50_4 C23_4 1_555 1_555
O58_4 Cu20_4 1_555 1_555
O62_4 Cu19_2 1_555 1_555
O64_4 Cu6_6 1_555 1_555
O65_4 Cu6_6 1_555 1_555
O66_4 Cu7_4 1_555 1_555
O67_4 Cu7_4 1_555 1_555
O68_4 Cu9_4 1_555 1_555
O69_4 Cu9_4 1_555 1_555
C6_4 C7_4 1_555 1_555
O2_4 Cu28 1_555 1_555
C8_4 O35_4 1_555 1_555
C9_4 O61 1_555 1_555
C13_4 O40_4 1_555 1_555
C14_4 O41_4 1_555 1_555
C15_4 O42_4 1_555 1_555
C16_4 O43_4 1_555 1_555
C17_4 O44_4 1_555 1_555
C18_4 O45_4 1_555 1_555
C22_4 O49_4 1_555 1_555
C24_4 O70 1_555 1_555
C54_4 C77_4 1_555 1_555
C78_4 C100_4 1_555 1_555
C78_4 C101_4 1_555 1_555
C83_4 C105_4 1_555 1_555
C84_4 C106_4 1_555 1_555
C84_4 C107_4 1_555 1_555
C86_4 C108_4 1_555 1_555
C87_4 C109_4 1_555 1_555
C87_4 C110_4 1_555 1_555
C92_4 C114_4 1_555 1_555
C93_4 C115_4 1_555 1_555
C93_4 C116_4 1_555 1_555
C123_4 C146_4 1_555 1_555
C124_4 C147_4 1_555 1_555
C128_4 C151_4 1_555 1_555
C129_4 C152_4 1_555 1_555
C130_4 C153_4 1_555 1_555
C131_4 C154_4 1_555 1_555
C132_4 C155_4 1_555 1_555
C133_4 C156_4 1_555 1_555
C137_4 C160_4 1_555 1_555
C138_4 C161_4 1_555 1_555
C139_4 C162_4 1_555 1_555
Cu34_4 Cl5_6 1_555 1_555
Cu16_8 Cl5_6 1_555 1_555
O29_4 Cu34_4 1_555 1_555
O31_4 Cu29_2 1_555 1_555
Cu22 Cl1_7 1_555 1_555
Cl1_7 Cu6_7 1_555 1_555
Cu23 Cl1_7 1_555 1_555
Cu13_7 Cl1_7 1_555 1_555
O11_5 Cu6_7 1_555 1_555
O33_5 Cu23 1_555 1_555
C16_5 O11_5 1_555 1_555
C17_5 O28_3 1_555 1_555
C18_5 O29 1_555 1_555
C39_5 C16_5 1_555 1_555
C40_5 C17_5 1_555 1_555
C41_5 C18_5 1_555 1_555
C62_5 C39_5 1_555 1_555
C63_5 C40_5 1_555 1_555
C64_5 C41_5 1_555 1_555
H12_5 C62_5 1_555 1_555
H13_5 C64_5 1_555 1_555
H14_5 C63_5 1_555 1_555
C85_5 C62_5 1_555 1_555
C86_5 C63_5 1_555 1_555
C87_5 C64_5 1_555 1_555
C108_5 C85_5 1_555 1_555
C109_5 C86_5 1_555 1_555
C110_5 C85_5 1_555 1_555
C131_5 C108_5 1_555 1_555
C132_5 C109_5 1_555 1_555
C133_5 C110_5 1_555 1_555
H35_5 C131_5 1_555 1_555
H36_5 C133_5 1_555 1_555
H37_5 C132_5 1_555 1_555
C154_5 C39_5 1_555 1_555
C155_5 C40_5 1_555 1_555
C156_5 C41_5 1_555 1_555
H58_5 C154_5 1_555 1_555
H59_5 C156_5 1_555 1_555
H60_5 C155_5 1_555 1_555
O43_5 Cu22 1_555 1_555
O44_5 Cu15_3 1_555 1_555
O45_5 Cu16_2 1_555 1_555
O65_5 Cu6_7 1_555 1_555
C16_5 O43_5 1_555 1_555
C17_5 O44_5 1_555 1_555
C18_5 O45_5 1_555 1_555
C86_5 C108_5 1_555 1_555
C87_5 C109_5 1_555 1_555
C87_5 C110_5 1_555 1_555
C131_5 C154_5 1_555 1_555
C132_5 C155_5 1_555 1_555
C133_5 C156_5 1_555 1_555
Cu22_2 Cl1_8 1_555 1_555
Cl1_8 Cu6_8 1_555 1_555
Cu6_8 O8_5 1_555 1_555
Cu23_2 Cl1_8 1_555 1_555
Cu13_8 Cl1_8 1_555 1_555
O8_5 C13_5 1_555 1_555
O32_5 Cu23_2 1_555 1_555
C13_5 C36_5 1_555 1_555
C14_5 O30_3 1_555 1_555
C15_5 O31 1_555 1_555
C36_5 C59_5 1_555 1_555
C37_5 C14_5 1_555 1_555
C38_5 C15_5 1_555 1_555
C59_5 H9_5 1_555 1_555
C60_5 C37_5 1_555 1_555
C61_5 C38_5 1_555 1_555
H10_5 C61_5 1_555 1_555
H11_5 C60_5 1_555 1_555
C82_5 C59_5 1_555 1_555
C83_5 C60_5 1_555 1_555
C84_5 C61_5 1_555 1_555
C105_5 C82_5 1_555 1_555
C106_5 C83_5 1_555 1_555
C107_5 C82_5 1_555 1_555
C128_5 C105_5 1_555 1_555
C129_5 C106_5 1_555 1_555
C130_5 C107_5 1_555 1_555
H32_5 C128_5 1_555 1_555
H33_5 C130_5 1_555 1_555
H34_5 C129_5 1_555 1_555
C151_5 C36_5 1_555 1_555
C152_5 C37_5 1_555 1_555
C153_5 C38_5 1_555 1_555
H55_5 C151_5 1_555 1_555
H56_5 C153_5 1_555 1_555
H57_5 C152_5 1_555 1_555
O40_5 Cu22_2 1_555 1_555
O41_5 Cu17_3 1_555 1_555
O42_5 Cu18_2 1_555 1_555
O64_5 Cu6_8 1_555 1_555
C13_5 O40_5 1_555 1_555
C14_5 O41_5 1_555 1_555
C15_5 O42_5 1_555 1_555
C83_5 C105_5 1_555 1_555
C84_5 C106_5 1_555 1_555
C84_5 C107_5 1_555 1_555
C128_5 C151_5 1_555 1_555
C129_5 C152_5 1_555 1_555
C130_5 C153_5 1_555 1_555
Cu24 Cl1_9 1_555 1_555
Cl1_9 Cu6_9 1_555 1_555
Cu6_9 O8_6 1_555 1_555
Cu25 Cl1_9 1_555 1_555
Cu13_9 Cl1_9 1_555 1_555
O8_6 C13_6 1_555 1_555
O11_6 Cu6_9 1_555 1_555
O32_6 Cu25 1_555 1_555
O33_6 Cu25 1_555 1_555
C13_6 C36_6 1_555 1_555
C14_6 O30_4 1_555 1_555
C15_6 O31_2 1_555 1_555
C16_6 O11_6 1_555 1_555
C17_6 O28_4 1_555 1_555
C18_6 O29_2 1_555 1_555
C36_6 C59_6 1_555 1_555
C37_6 C14_6 1_555 1_555
C38_6 C15_6 1_555 1_555
C39_6 C16_6 1_555 1_555
C40_6 C17_6 1_555 1_555
C41_6 C18_6 1_555 1_555
C59_6 H9_6 1_555 1_555
C60_6 C37_6 1_555 1_555
C61_6 C38_6 1_555 1_555
C62_6 C39_6 1_555 1_555
C63_6 C40_6 1_555 1_555
C64_6 C41_6 1_555 1_555
H10_6 C61_6 1_555 1_555
H11_6 C60_6 1_555 1_555
H12_6 C62_6 1_555 1_555
H13_6 C64_6 1_555 1_555
H14_6 C63_6 1_555 1_555
C82_6 C59_6 1_555 1_555
C83_6 C60_6 1_555 1_555
C84_6 C61_6 1_555 1_555
C85_6 C62_6 1_555 1_555
C86_6 C63_6 1_555 1_555
C87_6 C64_6 1_555 1_555
C105_6 C82_6 1_555 1_555
C106_6 C83_6 1_555 1_555
C107_6 C82_6 1_555 1_555
C108_6 C85_6 1_555 1_555
C109_6 C86_6 1_555 1_555
C110_6 C85_6 1_555 1_555
C128_6 C105_6 1_555 1_555
C129_6 C106_6 1_555 1_555
C130_6 C107_6 1_555 1_555
C131_6 C108_6 1_555 1_555
C132_6 C109_6 1_555 1_555
C133_6 C110_6 1_555 1_555
H32_6 C128_6 1_555 1_555
H33_6 C130_6 1_555 1_555
H34_6 C129_6 1_555 1_555
H35_6 C131_6 1_555 1_555
H36_6 C133_6 1_555 1_555
H37_6 C132_6 1_555 1_555
C151_6 C36_6 1_555 1_555
C152_6 C37_6 1_555 1_555
C153_6 C38_6 1_555 1_555
C154_6 C39_6 1_555 1_555
C155_6 C40_6 1_555 1_555
C156_6 C41_6 1_555 1_555
H55_6 C151_6 1_555 1_555
H56_6 C153_6 1_555 1_555
H57_6 C152_6 1_555 1_555
H58_6 C154_6 1_555 1_555
H59_6 C156_6 1_555 1_555
H60_6 C155_6 1_555 1_555
O40_6 Cu24 1_555 1_555
O41_6 Cu17_4 1_555 1_555
O42_6 Cu30 1_555 1_555
O43_6 Cu24 1_555 1_555
O44_6 Cu15_4 1_555 1_555
O45_6 Cu16_3 1_555 1_555
O64_6 Cu6_9 1_555 1_555
O65_6 Cu6_9 1_555 1_555
C13_6 O40_6 1_555 1_555
C14_6 O41_6 1_555 1_555
C15_6 O42_6 1_555 1_555
C16_6 O43_6 1_555 1_555
C17_6 O44_6 1_555 1_555
C18_6 O45_6 1_555 1_555
C83_6 C105_6 1_555 1_555
C84_6 C106_6 1_555 1_555
C84_6 C107_6 1_555 1_555
C86_6 C108_6 1_555 1_555
C87_6 C109_6 1_555 1_555
C87_6 C110_6 1_555 1_555
C128_6 C151_6 1_555 1_555
C129_6 C152_6 1_555 1_555
C130_6 C153_6 1_555 1_555
C131_6 C154_6 1_555 1_555
C132_6 C155_6 1_555 1_555
C133_6 C156_6 1_555 1_555
Cu31 Cl1_10 1_555 1_555
Cl1_10 Cu6_10 1_555 1_555
Cu32 Cl1_10 1_555 1_555
Cu13_10 Cl1_10 1_555 1_555
O11_7 Cu6_10 1_555 1_555
O33_7 Cu32 1_555 1_555
C16_7 O11_7 1_555 1_555
C17_7 O28 1_555 1_555
C18_7 O29_3 1_555 1_555
C39_7 C16_7 1_555 1_555
C40_7 C17_7 1_555 1_555
C41_7 C18_7 1_555 1_555
C62_7 C39_7 1_555 1_555
C63_7 C40_7 1_555 1_555
C64_7 C41_7 1_555 1_555
H12_7 C62_7 1_555 1_555
H13_7 C64_7 1_555 1_555
H14_7 C63_7 1_555 1_555
C85_7 C62_7 1_555 1_555
C86_7 C63_7 1_555 1_555
C87_7 C64_7 1_555 1_555
C108_7 C85_7 1_555 1_555
C109_7 C86_7 1_555 1_555
C110_7 C85_7 1_555 1_555
C131_7 C108_7 1_555 1_555
C132_7 C109_7 1_555 1_555
C133_7 C110_7 1_555 1_555
H35_7 C131_7 1_555 1_555
H36_7 C133_7 1_555 1_555
H37_7 C132_7 1_555 1_555
C154_7 C39_7 1_555 1_555
C155_7 C40_7 1_555 1_555
C156_7 C41_7 1_555 1_555
H58_7 C154_7 1_555 1_555
H59_7 C156_7 1_555 1_555
H60_7 C155_7 1_555 1_555
O43_7 Cu31 1_555 1_555
O44_7 Cu15 1_555 1_555
O45_7 Cu16_5 1_555 1_555
O65_7 Cu6_10 1_555 1_555
C16_7 O43_7 1_555 1_555
C17_7 O44_7 1_555 1_555
C18_7 O45_7 1_555 1_555
C86_7 C108_7 1_555 1_555
C87_7 C109_7 1_555 1_555
C87_7 C110_7 1_555 1_555
C131_7 C154_7 1_555 1_555
C132_7 C155_7 1_555 1_555
C133_7 C156_7 1_555 1_555
Cu31_2 Cl1_11 1_555 1_555
Cl1_11 Cu6_11 1_555 1_555
Cu6_11 O8_7 1_555 1_555
Cu32_2 Cl1_11 1_555 1_555
Cu13_11 Cl1_11 1_555 1_555
O8_7 C13_7 1_555 1_555
O32_7 Cu32_2 1_555 1_555
C13_7 C36_7 1_555 1_555
C14_7 O30 1_555 1_555
C15_7 O31_3 1_555 1_555
C36_7 C59_7 1_555 1_555
C37_7 C14_7 1_555 1_555
C38_7 C15_7 1_555 1_555
C59_7 H9_7 1_555 1_555
C60_7 C37_7 1_555 1_555
C61_7 C38_7 1_555 1_555
H10_7 C61_7 1_555 1_555
H11_7 C60_7 1_555 1_555
C82_7 C59_7 1_555 1_555
C83_7 C60_7 1_555 1_555
C84_7 C61_7 1_555 1_555
C105_7 C82_7 1_555 1_555
C106_7 C83_7 1_555 1_555
C107_7 C82_7 1_555 1_555
C128_7 C105_7 1_555 1_555
C129_7 C106_7 1_555 1_555
C130_7 C107_7 1_555 1_555
H32_7 C128_7 1_555 1_555
H33_7 C130_7 1_555 1_555
H34_7 C129_7 1_555 1_555
C151_7 C36_7 1_555 1_555
C152_7 C37_7 1_555 1_555
C153_7 C38_7 1_555 1_555
H55_7 C151_7 1_555 1_555
H56_7 C153_7 1_555 1_555
H57_7 C152_7 1_555 1_555
O40_7 Cu31_2 1_555 1_555
O41_7 Cu17 1_555 1_555
O42_7 Cu30_3 1_555 1_555
O64_7 Cu6_11 1_555 1_555
C13_7 O40_7 1_555 1_555
C14_7 O41_7 1_555 1_555
C15_7 O42_7 1_555 1_555
C83_7 C105_7 1_555 1_555
C84_7 C106_7 1_555 1_555
C84_7 C107_7 1_555 1_555
C128_7 C151_7 1_555 1_555
C129_7 C152_7 1_555 1_555
C130_7 C153_7 1_555 1_555
Cu31_3 Cl1_12 1_555 1_555
Cl1_12 Cu6_12 1_555 1_555
Cu6_12 O8_8 1_555 1_555
Cu32_3 Cl1_12 1_555 1_555
Cu13_12 Cl1_12 1_555 1_555
O8_8 C13_8 1_555 1_555
O11_8 Cu6_12 1_555 1_555
O32_8 Cu32_3 1_555 1_555
O33_8 Cu32_3 1_555 1_555
C13_8 C36_8 1_555 1_555
C14_8 O30_2 1_555 1_555
C15_8 O31_4 1_555 1_555
C16_8 O11_8 1_555 1_555
C17_8 O28_2 1_555 1_555
C18_8 O29_4 1_555 1_555
C36_8 C59_8 1_555 1_555
C37_8 C14_8 1_555 1_555
C38_8 C15_8 1_555 1_555
C39_8 C16_8 1_555 1_555
C40_8 C17_8 1_555 1_555
C41_8 C18_8 1_555 1_555
C59_8 H9_8 1_555 1_555
C60_8 C37_8 1_555 1_555
C61_8 C38_8 1_555 1_555
C62_8 C39_8 1_555 1_555
C63_8 C40_8 1_555 1_555
C64_8 C41_8 1_555 1_555
H10_8 C61_8 1_555 1_555
H11_8 C60_8 1_555 1_555
H12_8 C62_8 1_555 1_555
H13_8 C64_8 1_555 1_555
H14_8 C63_8 1_555 1_555
C82_8 C59_8 1_555 1_555
C83_8 C60_8 1_555 1_555
C84_8 C61_8 1_555 1_555
C85_8 C62_8 1_555 1_555
C86_8 C63_8 1_555 1_555
C87_8 C64_8 1_555 1_555
C105_8 C82_8 1_555 1_555
C106_8 C83_8 1_555 1_555
C107_8 C82_8 1_555 1_555
C108_8 C85_8 1_555 1_555
C109_8 C86_8 1_555 1_555
C110_8 C85_8 1_555 1_555
C128_8 C105_8 1_555 1_555
C129_8 C106_8 1_555 1_555
C130_8 C107_8 1_555 1_555
C131_8 C108_8 1_555 1_555
C132_8 C109_8 1_555 1_555
C133_8 C110_8 1_555 1_555
H32_8 C128_8 1_555 1_555
H33_8 C130_8 1_555 1_555
H34_8 C129_8 1_555 1_555
H35_8 C131_8 1_555 1_555
H36_8 C133_8 1_555 1_555
H37_8 C132_8 1_555 1_555
C151_8 C36_8 1_555 1_555
C152_8 C37_8 1_555 1_555
C153_8 C38_8 1_555 1_555
C154_8 C39_8 1_555 1_555
C155_8 C40_8 1_555 1_555
C156_8 C41_8 1_555 1_555
H55_8 C151_8 1_555 1_555
H56_8 C153_8 1_555 1_555
H57_8 C152_8 1_555 1_555
H58_8 C154_8 1_555 1_555
H59_8 C156_8 1_555 1_555
H60_8 C155_8 1_555 1_555
O40_8 Cu31_3 1_555 1_555
O41_8 Cu17_2 1_555 1_555
O42_8 Cu30_6 1_555 1_555
O43_8 Cu31_3 1_555 1_555
O44_8 Cu15_2 1_555 1_555
O45_8 Cu16_8 1_555 1_555
O64_8 Cu6_12 1_555 1_555
O65_8 Cu6_12 1_555 1_555
C13_8 O40_8 1_555 1_555
C14_8 O41_8 1_555 1_555
C15_8 O42_8 1_555 1_555
C16_8 O43_8 1_555 1_555
C17_8 O44_8 1_555 1_555
C18_8 O45_8 1_555 1_555
C83_8 C105_8 1_555 1_555
C84_8 C106_8 1_555 1_555
C84_8 C107_8 1_555 1_555
C86_8 C108_8 1_555 1_555
C87_8 C109_8 1_555 1_555
C87_8 C110_8 1_555 1_555
C128_8 C151_8 1_555 1_555
C129_8 C152_8 1_555 1_555
C130_8 C153_8 1_555 1_555
C131_8 C154_8 1_555 1_555
C132_8 C155_8 1_555 1_555
C133_8 C156_8 1_555 1_555
Cu30 O8_9 1_555 1_555
Cu7_5 Cl7_4 1_555 1_555
O8_9 C13_9 1_555 1_555
O9_5 Cu7_5 1_555 1_555
O28_5 Cu7_5 1_555 1_555
C13_9 C36_9 1_555 1_555
C14_9 O9_5 1_555 1_555
C15_9 O32 1_555 1_555
C36_9 C59_9 1_555 1_555
C37_9 C14_9 1_555 1_555
C38_9 C15_9 1_555 1_555
C59_9 H9_9 1_555 1_555
C60_9 C37_9 1_555 1_555
C61_9 C38_9 1_555 1_555
H10_9 C61_9 1_555 1_555
H11_9 C60_9 1_555 1_555
C82_9 C59_9 1_555 1_555
C83_9 C60_9 1_555 1_555
C84_9 C61_9 1_555 1_555
C105_9 C82_9 1_555 1_555
C106_9 C83_9 1_555 1_555
C107_9 C82_9 1_555 1_555
C128_9 C105_9 1_555 1_555
C129_9 C106_9 1_555 1_555
C130_9 C107_9 1_555 1_555
H32_9 C128_9 1_555 1_555
H33_9 C130_9 1_555 1_555
H34_9 C129_9 1_555 1_555
C151_9 C36_9 1_555 1_555
C152_9 C37_9 1_555 1_555
C153_9 C38_9 1_555 1_555
H55_9 C151_9 1_555 1_555
H56_9 C153_9 1_555 1_555
H57_9 C152_9 1_555 1_555
O42_9 Cu13 1_555 1_555
O66_5 Cu7_5 1_555 1_555
O67_5 Cu7_5 1_555 1_555
C13_9 O58 1_555 1_555
C14_9 O69_4 1_555 1_555
C15_9 O42_9 1_555 1_555
C83_9 C105_9 1_555 1_555
C84_9 C106_9 1_555 1_555
C84_9 C107_9 1_555 1_555
C128_9 C151_9 1_555 1_555
C129_9 C152_9 1_555 1_555
C130_9 C153_9 1_555 1_555
Cu9_5 Cl7_2 1_555 1_555
O11_9 Cu30_2 1_555 1_555
O12_5 Cu9_5 1_555 1_555
O30_5 Cu9_5 1_555 1_555
C16_9 O11_9 1_555 1_555
C17_9 O12_5 1_555 1_555
C18_9 O33_7 1_555 1_555
C39_9 C16_9 1_555 1_555
C40_9 C17_9 1_555 1_555
C41_9 C18_9 1_555 1_555
C62_9 C39_9 1_555 1_555
C63_9 C40_9 1_555 1_555
C64_9 C41_9 1_555 1_555
H12_9 C62_9 1_555 1_555
H13_9 C64_9 1_555 1_555
H14_9 C63_9 1_555 1_555
C85_9 C62_9 1_555 1_555
C86_9 C63_9 1_555 1_555
C87_9 C64_9 1_555 1_555
C108_9 C85_9 1_555 1_555
C109_9 C86_9 1_555 1_555
C110_9 C85_9 1_555 1_555
C131_9 C108_9 1_555 1_555
C132_9 C109_9 1_555 1_555
C133_9 C110_9 1_555 1_555
H35_9 C131_9 1_555 1_555
H36_9 C133_9 1_555 1_555
H37_9 C132_9 1_555 1_555
C154_9 C39_9 1_555 1_555
C155_9 C40_9 1_555 1_555
C156_9 C41_9 1_555 1_555
H58_9 C154_9 1_555 1_555
H59_9 C156_9 1_555 1_555
H60_9 C155_9 1_555 1_555
O45_9 Cu13_10 1_555 1_555
O68_5 Cu9_5 1_555 1_555
O69_5 Cu9_5 1_555 1_555
C16_9 O59 1_555 1_555
C17_9 O68_2 1_555 1_555
C18_9 O45_9 1_555 1_555
C86_9 C108_9 1_555 1_555
C87_9 C109_9 1_555 1_555
C87_9 C110_9 1_555 1_555
C131_9 C154_9 1_555 1_555
C132_9 C155_9 1_555 1_555
C133_9 C156_9 1_555 1_555
Cu30_3 O8_10 1_555 1_555
Cu7_6 Cl7 1_555 1_555
O8_10 C13_10 1_555 1_555
O9_6 Cu7_6 1_555 1_555
O28_6 Cu7_6 1_555 1_555
C13_10 C36_10 1_555 1_555
C14_10 O9_6 1_555 1_555
C15_10 O32_2 1_555 1_555
C36_10 C59_10 1_555 1_555
C37_10 C14_10 1_555 1_555
C38_10 C15_10 1_555 1_555
C59_10 H9_10 1_555 1_555
C60_10 C37_10 1_555 1_555
C61_10 C38_10 1_555 1_555
H10_10 C61_10 1_555 1_555
H11_10 C60_10 1_555 1_555
C82_10 C59_10 1_555 1_555
C83_10 C60_10 1_555 1_555
C84_10 C61_10 1_555 1_555
C105_10 C82_10 1_555 1_555
C106_10 C83_10 1_555 1_555
C107_10 C82_10 1_555 1_555
C128_10 C105_10 1_555 1_555
C129_10 C106_10 1_555 1_555
C130_10 C107_10 1_555 1_555
H32_10 C128_10 1_555 1_555
H33_10 C130_10 1_555 1_555
H34_10 C129_10 1_555 1_555
C151_10 C36_10 1_555 1_555
C152_10 C37_10 1_555 1_555
C153_10 C38_10 1_555 1_555
H55_10 C151_10 1_555 1_555
H56_10 C153_10 1_555 1_555
H57_10 C152_10 1_555 1_555
O42_10 Cu13_3 1_555 1_555
O66_6 Cu7_6 1_555 1_555
O67_6 Cu7_6 1_555 1_555
C13_10 O58_2 1_555 1_555
C14_10 O69 1_555 1_555
C15_10 O42_10 1_555 1_555
C83_10 C105_10 1_555 1_555
C84_10 C106_10 1_555 1_555
C84_10 C107_10 1_555 1_555
C128_10 C151_10 1_555 1_555
C129_10 C152_10 1_555 1_555
C130_10 C153_10 1_555 1_555
Cu9_6 Cl7_3 1_555 1_555
O11_10 Cu30_4 1_555 1_555
O12_6 Cu9_6 1_555 1_555
O30_6 Cu9_6 1_555 1_555
C16_10 O11_10 1_555 1_555
C17_10 O12_6 1_555 1_555
C18_10 O33_8 1_555 1_555
C39_10 C16_10 1_555 1_555
C40_10 C17_10 1_555 1_555
C41_10 C18_10 1_555 1_555
C62_10 C39_10 1_555 1_555
C63_10 C40_10 1_555 1_555
C64_10 C41_10 1_555 1_555
H12_10 C62_10 1_555 1_555
H13_10 C64_10 1_555 1_555
H14_10 C63_10 1_555 1_555
C85_10 C62_10 1_555 1_555
C86_10 C63_10 1_555 1_555
C87_10 C64_10 1_555 1_555
C108_10 C85_10 1_555 1_555
C109_10 C86_10 1_555 1_555
C110_10 C85_10 1_555 1_555
C131_10 C108_10 1_555 1_555
C132_10 C109_10 1_555 1_555
C133_10 C110_10 1_555 1_555
H35_10 C131_10 1_555 1_555
H36_10 C133_10 1_555 1_555
H37_10 C132_10 1_555 1_555
C154_10 C39_10 1_555 1_555
C155_10 C40_10 1_555 1_555
C156_10 C41_10 1_555 1_555
H58_10 C154_10 1_555 1_555
H59_10 C156_10 1_555 1_555
H60_10 C155_10 1_555 1_555
O45_10 Cu13_12 1_555 1_555
O68_6 Cu9_6 1_555 1_555
O69_6 Cu9_6 1_555 1_555
C16_10 O59_2 1_555 1_555
C17_10 O68_3 1_555 1_555
C18_10 O45_10 1_555 1_555
C86_10 C108_10 1_555 1_555
C87_10 C109_10 1_555 1_555
C87_10 C110_10 1_555 1_555
C131_10 C154_10 1_555 1_555
C132_10 C155_10 1_555 1_555
C133_10 C156_10 1_555 1_555
O11_11 Cu30_5 1_555 1_555
C16_11 O11_11 1_555 1_555
C17_11 O28_5 1_555 1_555
C18_11 O33_5 1_555 1_555
C39_11 C16_11 1_555 1_555
C40_11 C17_11 1_555 1_555
C41_11 C18_11 1_555 1_555
C62_11 C39_11 1_555 1_555
C63_11 C40_11 1_555 1_555
C64_11 C41_11 1_555 1_555
H12_11 C62_11 1_555 1_555
H13_11 C64_11 1_555 1_555
H14_11 C63_11 1_555 1_555
C85_11 C62_11 1_555 1_555
C86_11 C63_11 1_555 1_555
C87_11 C64_11 1_555 1_555
C108_11 C85_11 1_555 1_555
C109_11 C86_11 1_555 1_555
C110_11 C85_11 1_555 1_555
C131_11 C108_11 1_555 1_555
C132_11 C109_11 1_555 1_555
C133_11 C110_11 1_555 1_555
H35_11 C131_11 1_555 1_555
H36_11 C133_11 1_555 1_555
H37_11 C132_11 1_555 1_555
C154_11 C39_11 1_555 1_555
C155_11 C40_11 1_555 1_555
C156_11 C41_11 1_555 1_555
H58_11 C154_11 1_555 1_555
H59_11 C156_11 1_555 1_555
H60_11 C155_11 1_555 1_555
O45_11 Cu13_7 1_555 1_555
C16_11 O59_3 1_555 1_555
C17_11 O68_4 1_555 1_555
C18_11 O45_11 1_555 1_555
C86_11 C108_11 1_555 1_555
C87_11 C109_11 1_555 1_555
C87_11 C110_11 1_555 1_555
C131_11 C154_11 1_555 1_555
C132_11 C155_11 1_555 1_555
C133_11 C156_11 1_555 1_555
Cu30_6 O8_11 1_555 1_555
O8_11 C13_11 1_555 1_555
C13_11 C36_11 1_555 1_555
C14_11 O30_5 1_555 1_555
C15_11 O32_3 1_555 1_555
C36_11 C59_11 1_555 1_555
C37_11 C14_11 1_555 1_555
C38_11 C15_11 1_555 1_555
C59_11 H9_11 1_555 1_555
C60_11 C37_11 1_555 1_555
C61_11 C38_11 1_555 1_555
H10_11 C61_11 1_555 1_555
H11_11 C60_11 1_555 1_555
C82_11 C59_11 1_555 1_555
C83_11 C60_11 1_555 1_555
C84_11 C61_11 1_555 1_555
C105_11 C82_11 1_555 1_555
C106_11 C83_11 1_555 1_555
C107_11 C82_11 1_555 1_555
C128_11 C105_11 1_555 1_555
C129_11 C106_11 1_555 1_555
C130_11 C107_11 1_555 1_555
H32_11 C128_11 1_555 1_555
H33_11 C130_11 1_555 1_555
H34_11 C129_11 1_555 1_555
C151_11 C36_11 1_555 1_555
C152_11 C37_11 1_555 1_555
C153_11 C38_11 1_555 1_555
H55_11 C151_11 1_555 1_555
H56_11 C153_11 1_555 1_555
H57_11 C152_11 1_555 1_555
O42_11 Cu13_4 1_555 1_555
C13_11 O58_3 1_555 1_555
C14_11 O69_2 1_555 1_555
C15_11 O42_11 1_555 1_555
C83_11 C105_11 1_555 1_555
C84_11 C106_11 1_555 1_555
C84_11 C107_11 1_555 1_555
C128_11 C151_11 1_555 1_555
C129_11 C152_11 1_555 1_555
C130_11 C153_11 1_555 1_555
O11_12 Cu18 1_555 1_555
C16_12 O11_12 1_555 1_555
C17_12 O28_6 1_555 1_555
C18_12 O33_6 1_555 1_555
C39_12 C16_12 1_555 1_555
C40_12 C17_12 1_555 1_555
C41_12 C18_12 1_555 1_555
C62_12 C39_12 1_555 1_555
C63_12 C40_12 1_555 1_555
C64_12 C41_12 1_555 1_555
H12_12 C62_12 1_555 1_555
H13_12 C64_12 1_555 1_555
H14_12 C63_12 1_555 1_555
C85_12 C62_12 1_555 1_555
C86_12 C63_12 1_555 1_555
C87_12 C64_12 1_555 1_555
C108_12 C85_12 1_555 1_555
C109_12 C86_12 1_555 1_555
C110_12 C85_12 1_555 1_555
C131_12 C108_12 1_555 1_555
C132_12 C109_12 1_555 1_555
C133_12 C110_12 1_555 1_555
H35_12 C131_12 1_555 1_555
H36_12 C133_12 1_555 1_555
H37_12 C132_12 1_555 1_555
C154_12 C39_12 1_555 1_555
C155_12 C40_12 1_555 1_555
C156_12 C41_12 1_555 1_555
H58_12 C154_12 1_555 1_555
H59_12 C156_12 1_555 1_555
H60_12 C155_12 1_555 1_555
O45_12 Cu13_9 1_555 1_555
C16_12 O59_4 1_555 1_555
C17_12 O68 1_555 1_555
C18_12 O45_12 1_555 1_555
C86_12 C108_12 1_555 1_555
C87_12 C109_12 1_555 1_555
C87_12 C110_12 1_555 1_555
C131_12 C154_12 1_555 1_555
C132_12 C155_12 1_555 1_555
C133_12 C156_12 1_555 1_555
Cu18_2 O8_12 1_555 1_555
O8_12 C13_12 1_555 1_555
C13_12 C36_12 1_555 1_555
C14_12 O30_6 1_555 1_555
C15_12 O32_4 1_555 1_555
C36_12 C59_12 1_555 1_555
C37_12 C14_12 1_555 1_555
C38_12 C15_12 1_555 1_555
C59_12 H9_12 1_555 1_555
C60_12 C37_12 1_555 1_555
C61_12 C38_12 1_555 1_555
H10_12 C61_12 1_555 1_555
H11_12 C60_12 1_555 1_555
C82_12 C59_12 1_555 1_555
C83_12 C60_12 1_555 1_555
C84_12 C61_12 1_555 1_555
C105_12 C82_12 1_555 1_555
C106_12 C83_12 1_555 1_555
C107_12 C82_12 1_555 1_555
C128_12 C105_12 1_555 1_555
C129_12 C106_12 1_555 1_555
C130_12 C107_12 1_555 1_555
H32_12 C128_12 1_555 1_555
H33_12 C130_12 1_555 1_555
H34_12 C129_12 1_555 1_555
C151_12 C36_12 1_555 1_555
C152_12 C37_12 1_555 1_555
C153_12 C38_12 1_555 1_555
H55_12 C151_12 1_555 1_555
H56_12 C153_12 1_555 1_555
H57_12 C152_12 1_555 1_555
O42_12 Cu13_6 1_555 1_555
C13_12 O58_4 1_555 1_555
C14_12 O69_3 1_555 1_555
C15_12 O42_12 1_555 1_555
C83_12 C105_12 1_555 1_555
C84_12 C106_12 1_555 1_555
C84_12 C107_12 1_555 1_555
C128_12 C151_12 1_555 1_555
C129_12 C152_12 1_555 1_555
C130_12 C153_12 1_555 1_555
Cu16_7 O8_13 1_555 1_555
Cu7_7 Cl6_4 1_555 1_555
O8_13 C13_13 1_555 1_555
O9_7 Cu7_7 1_555 1_555
O28_7 Cu7_7 1_555 1_555
C13_13 C36_13 1_555 1_555
C14_13 O9_7 1_555 1_555
C15_13 O32_5 1_555 1_555
C36_13 C59_13 1_555 1_555
C37_13 C14_13 1_555 1_555
C38_13 C15_13 1_555 1_555
C59_13 H9_13 1_555 1_555
C60_13 C37_13 1_555 1_555
C61_13 C38_13 1_555 1_555
H10_13 C61_13 1_555 1_555
H11_13 C60_13 1_555 1_555
C82_13 C59_13 1_555 1_555
C83_13 C60_13 1_555 1_555
C84_13 C61_13 1_555 1_555
C105_13 C82_13 1_555 1_555
C106_13 C83_13 1_555 1_555
C107_13 C82_13 1_555 1_555
C128_13 C105_13 1_555 1_555
C129_13 C106_13 1_555 1_555
C130_13 C107_13 1_555 1_555
H32_13 C128_13 1_555 1_555
H33_13 C130_13 1_555 1_555
H34_13 C129_13 1_555 1_555
C151_13 C36_13 1_555 1_555
C152_13 C37_13 1_555 1_555
C153_13 C38_13 1_555 1_555
H55_13 C151_13 1_555 1_555
H56_13 C153_13 1_555 1_555
H57_13 C152_13 1_555 1_555
O42_13 Cu13_8 1_555 1_555
O66_7 Cu7_7 1_555 1_555
O67_7 Cu7_7 1_555 1_555
C13_13 O63_3 1_555 1_555
C14_13 O66_4 1_555 1_555
C15_13 O42_13 1_555 1_555
C83_13 C105_13 1_555 1_555
C84_13 C106_13 1_555 1_555
C84_13 C107_13 1_555 1_555
C128_13 C151_13 1_555 1_555
C129_13 C152_13 1_555 1_555
C130_13 C153_13 1_555 1_555
Cu9_7 Cl6_2 1_555 1_555
O11_13 Cu16_8 1_555 1_555
O12_7 Cu9_7 1_555 1_555
O30_7 Cu9_7 1_555 1_555
C16_13 O11_13 1_555 1_555
C17_13 O12_7 1_555 1_555
C18_13 O33_3 1_555 1_555
C39_13 C16_13 1_555 1_555
C40_13 C17_13 1_555 1_555
C41_13 C18_13 1_555 1_555
C62_13 C39_13 1_555 1_555
C63_13 C40_13 1_555 1_555
C64_13 C41_13 1_555 1_555
H12_13 C62_13 1_555 1_555
H13_13 C64_13 1_555 1_555
H14_13 C63_13 1_555 1_555
C85_13 C62_13 1_555 1_555
C86_13 C63_13 1_555 1_555
C87_13 C64_13 1_555 1_555
C108_13 C85_13 1_555 1_555
C109_13 C86_13 1_555 1_555
C110_13 C85_13 1_555 1_555
C131_13 C108_13 1_555 1_555
C132_13 C109_13 1_555 1_555
C133_13 C110_13 1_555 1_555
H35_13 C131_13 1_555 1_555
H36_13 C133_13 1_555 1_555
H37_13 C132_13 1_555 1_555
C154_13 C39_13 1_555 1_555
C155_13 C40_13 1_555 1_555
C156_13 C41_13 1_555 1_555
H58_13 C154_13 1_555 1_555
H59_13 C156_13 1_555 1_555
H60_13 C155_13 1_555 1_555
O45_13 Cu13_5 1_555 1_555
O68_7 Cu9_7 1_555 1_555
O69_7 Cu9_7 1_555 1_555
C16_13 O62_3 1_555 1_555
C17_13 O67_2 1_555 1_555
C18_13 O45_13 1_555 1_555
C86_13 C108_13 1_555 1_555
C87_13 C109_13 1_555 1_555
C87_13 C110_13 1_555 1_555
C131_13 C154_13 1_555 1_555
C132_13 C155_13 1_555 1_555
C133_13 C156_13 1_555 1_555
Cu16 O8_14 1_555 1_555
Cu7_8 Cl6 1_555 1_555
O8_14 C13_14 1_555 1_555
O9_8 Cu7_8 1_555 1_555
O28_8 Cu7_8 1_555 1_555
C13_14 C36_14 1_555 1_555
C14_14 O9_8 1_555 1_555
C15_14 O32_6 1_555 1_555
C36_14 C59_14 1_555 1_555
C37_14 C14_14 1_555 1_555
C38_14 C15_14 1_555 1_555
C59_14 H9_14 1_555 1_555
C60_14 C37_14 1_555 1_555
C61_14 C38_14 1_555 1_555
H10_14 C61_14 1_555 1_555
H11_14 C60_14 1_555 1_555
C82_14 C59_14 1_555 1_555
C83_14 C60_14 1_555 1_555
C84_14 C61_14 1_555 1_555
C105_14 C82_14 1_555 1_555
C106_14 C83_14 1_555 1_555
C107_14 C82_14 1_555 1_555
C128_14 C105_14 1_555 1_555
C129_14 C106_14 1_555 1_555
C130_14 C107_14 1_555 1_555
H32_14 C128_14 1_555 1_555
H33_14 C130_14 1_555 1_555
H34_14 C129_14 1_555 1_555
C151_14 C36_14 1_555 1_555
C152_14 C37_14 1_555 1_555
C153_14 C38_14 1_555 1_555
H55_14 C151_14 1_555 1_555
H56_14 C153_14 1_555 1_555
H57_14 C152_14 1_555 1_555
O42_14 Cu13_9 1_555 1_555
O66_8 Cu7_8 1_555 1_555
O67_8 Cu7_8 1_555 1_555
C13_14 O63_4 1_555 1_555
C14_14 O66 1_555 1_555
C15_14 O42_14 1_555 1_555
C83_14 C105_14 1_555 1_555
C84_14 C106_14 1_555 1_555
C84_14 C107_14 1_555 1_555
C128_14 C151_14 1_555 1_555
C129_14 C152_14 1_555 1_555
C130_14 C153_14 1_555 1_555
Cu9_8 Cl6_3 1_555 1_555
O11_14 Cu16_2 1_555 1_555
O12_8 Cu9_8 1_555 1_555
O30_8 Cu9_8 1_555 1_555
C16_14 O11_14 1_555 1_555
C17_14 O12_8 1_555 1_555
C18_14 O33_4 1_555 1_555
C39_14 C16_14 1_555 1_555
C40_14 C17_14 1_555 1_555
C41_14 C18_14 1_555 1_555
C62_14 C39_14 1_555 1_555
C63_14 C40_14 1_555 1_555
C64_14 C41_14 1_555 1_555
H12_14 C62_14 1_555 1_555
H13_14 C64_14 1_555 1_555
H14_14 C63_14 1_555 1_555
C85_14 C62_14 1_555 1_555
C86_14 C63_14 1_555 1_555
C87_14 C64_14 1_555 1_555
C108_14 C85_14 1_555 1_555
C109_14 C86_14 1_555 1_555
C110_14 C85_14 1_555 1_555
C131_14 C108_14 1_555 1_555
C132_14 C109_14 1_555 1_555
C133_14 C110_14 1_555 1_555
H35_14 C131_14 1_555 1_555
H36_14 C133_14 1_555 1_555
H37_14 C132_14 1_555 1_555
C154_14 C39_14 1_555 1_555
C155_14 C40_14 1_555 1_555
C156_14 C41_14 1_555 1_555
H58_14 C154_14 1_555 1_555
H59_14 C156_14 1_555 1_555
H60_14 C155_14 1_555 1_555
O45_14 Cu13_6 1_555 1_555
O68_8 Cu9_8 1_555 1_555
O69_8 Cu9_8 1_555 1_555
C16_14 O62_4 1_555 1_555
C17_14 O67_3 1_555 1_555
C18_14 O45_14 1_555 1_555
C86_14 C108_14 1_555 1_555
C87_14 C109_14 1_555 1_555
C87_14 C110_14 1_555 1_555
C131_14 C154_14 1_555 1_555
C132_14 C155_14 1_555 1_555
C133_14 C156_14 1_555 1_555
O11_15 Cu16_3 1_555 1_555
C16_15 O11_15 1_555 1_555
C17_15 O28_7 1_555 1_555
C18_15 O33 1_555 1_555
C39_15 C16_15 1_555 1_555
C40_15 C17_15 1_555 1_555
C41_15 C18_15 1_555 1_555
C62_15 C39_15 1_555 1_555
C63_15 C40_15 1_555 1_555
C64_15 C41_15 1_555 1_555
H12_15 C62_15 1_555 1_555
H13_15 C64_15 1_555 1_555
H14_15 C63_15 1_555 1_555
C85_15 C62_15 1_555 1_555
C86_15 C63_15 1_555 1_555
C87_15 C64_15 1_555 1_555
C108_15 C85_15 1_555 1_555
C109_15 C86_15 1_555 1_555
C110_15 C85_15 1_555 1_555
C131_15 C108_15 1_555 1_555
C132_15 C109_15 1_555 1_555
C133_15 C110_15 1_555 1_555
H35_15 C131_15 1_555 1_555
H36_15 C133_15 1_555 1_555
H37_15 C132_15 1_555 1_555
C154_15 C39_15 1_555 1_555
C155_15 C40_15 1_555 1_555
C156_15 C41_15 1_555 1_555
H58_15 C154_15 1_555 1_555
H59_15 C156_15 1_555 1_555
H60_15 C155_15 1_555 1_555
O45_15 Cu13_2 1_555 1_555
C16_15 O62 1_555 1_555
C17_15 O67_4 1_555 1_555
C18_15 O45_15 1_555 1_555
C86_15 C108_15 1_555 1_555
C87_15 C109_15 1_555 1_555
C87_15 C110_15 1_555 1_555
C131_15 C154_15 1_555 1_555
C132_15 C155_15 1_555 1_555
C133_15 C156_15 1_555 1_555
Cu16_4 O8_15 1_555 1_555
O8_15 C13_15 1_555 1_555
C13_15 C36_15 1_555 1_555
C14_15 O30_7 1_555 1_555
C15_15 O32_7 1_555 1_555
C36_15 C59_15 1_555 1_555
C37_15 C14_15 1_555 1_555
C38_15 C15_15 1_555 1_555
C59_15 H9_15 1_555 1_555
C60_15 C37_15 1_555 1_555
C61_15 C38_15 1_555 1_555
H10_15 C61_15 1_555 1_555
H11_15 C60_15 1_555 1_555
C82_15 C59_15 1_555 1_555
C83_15 C60_15 1_555 1_555
C84_15 C61_15 1_555 1_555
C105_15 C82_15 1_555 1_555
C106_15 C83_15 1_555 1_555
C107_15 C82_15 1_555 1_555
C128_15 C105_15 1_555 1_555
C129_15 C106_15 1_555 1_555
C130_15 C107_15 1_555 1_555
H32_15 C128_15 1_555 1_555
H33_15 C130_15 1_555 1_555
H34_15 C129_15 1_555 1_555
C151_15 C36_15 1_555 1_555
C152_15 C37_15 1_555 1_555
C153_15 C38_15 1_555 1_555
H55_15 C151_15 1_555 1_555
H56_15 C153_15 1_555 1_555
H57_15 C152_15 1_555 1_555
O42_15 Cu13_11 1_555 1_555
C13_15 O63 1_555 1_555
C14_15 O66_2 1_555 1_555
C15_15 O42_15 1_555 1_555
C83_15 C105_15 1_555 1_555
C84_15 C106_15 1_555 1_555
C84_15 C107_15 1_555 1_555
C128_15 C151_15 1_555 1_555
C129_15 C152_15 1_555 1_555
C130_15 C153_15 1_555 1_555
O11_16 Cu16_5 1_555 1_555
C16_16 O11_16 1_555 1_555
C17_16 O28_8 1_555 1_555
C18_16 O33_2 1_555 1_555
C39_16 C16_16 1_555 1_555
C40_16 C17_16 1_555 1_555
C41_16 C18_16 1_555 1_555
C62_16 C39_16 1_555 1_555
C63_16 C40_16 1_555 1_555
C64_16 C41_16 1_555 1_555
H12_16 C62_16 1_555 1_555
H13_16 C64_16 1_555 1_555
H14_16 C63_16 1_555 1_555
C85_16 C62_16 1_555 1_555
C86_16 C63_16 1_555 1_555
C87_16 C64_16 1_555 1_555
C108_16 C85_16 1_555 1_555
C109_16 C86_16 1_555 1_555
C110_16 C85_16 1_555 1_555
C131_16 C108_16 1_555 1_555
C132_16 C109_16 1_555 1_555
C133_16 C110_16 1_555 1_555
H35_16 C131_16 1_555 1_555
H36_16 C133_16 1_555 1_555
H37_16 C132_16 1_555 1_555
C154_16 C39_16 1_555 1_555
C155_16 C40_16 1_555 1_555
C156_16 C41_16 1_555 1_555
H58_16 C154_16 1_555 1_555
H59_16 C156_16 1_555 1_555
H60_16 C155_16 1_555 1_555
O45_16 Cu13_3 1_555 1_555
C16_16 O62_2 1_555 1_555
C17_16 O67 1_555 1_555
C18_16 O45_16 1_555 1_555
C86_16 C108_16 1_555 1_555
C87_16 C109_16 1_555 1_555
C87_16 C110_16 1_555 1_555
C131_16 C154_16 1_555 1_555
C132_16 C155_16 1_555 1_555
C133_16 C156_16 1_555 1_555
Cu16_6 O8_16 1_555 1_555
O8_16 C13_16 1_555 1_555
C13_16 C36_16 1_555 1_555
C14_16 O30_8 1_555 1_555
C15_16 O32_8 1_555 1_555
C36_16 C59_16 1_555 1_555
C37_16 C14_16 1_555 1_555
C38_16 C15_16 1_555 1_555
C59_16 H9_16 1_555 1_555
C60_16 C37_16 1_555 1_555
C61_16 C38_16 1_555 1_555
H10_16 C61_16 1_555 1_555
H11_16 C60_16 1_555 1_555
C82_16 C59_16 1_555 1_555
C83_16 C60_16 1_555 1_555
C84_16 C61_16 1_555 1_555
C105_16 C82_16 1_555 1_555
C106_16 C83_16 1_555 1_555
C107_16 C82_16 1_555 1_555
C128_16 C105_16 1_555 1_555
C129_16 C106_16 1_555 1_555
C130_16 C107_16 1_555 1_555
H32_16 C128_16 1_555 1_555
H33_16 C130_16 1_555 1_555
H34_16 C129_16 1_555 1_555
C151_16 C36_16 1_555 1_555
C152_16 C37_16 1_555 1_555
C153_16 C38_16 1_555 1_555
H55_16 C151_16 1_555 1_555
H56_16 C153_16 1_555 1_555
H57_16 C152_16 1_555 1_555
O42_16 Cu13_12 1_555 1_555
C13_16 O63_2 1_555 1_555
C14_16 O66_3 1_555 1_555
C15_16 O42_16 1_555 1_555
C83_16 C105_16 1_555 1_555
C84_16 C106_16 1_555 1_555
C84_16 C107_16 1_555 1_555
C128_16 C151_16 1_555 1_555
C129_16 C152_16 1_555 1_555
C130_16 C153_16 1_555 1_555
Cu13_13 Cl7_3 1_555 1_555
O32_9 Cu17_3 1_555 1_555
O33_9 Cu17_3 1_555 1_555
Cu13_14 Cl6 1_555 1_555
O32_10 Cu15 1_555 1_555
O33_10 Cu15 1_555 1_555
Cu13_15 Cl7 1_555 1_555
O32_11 Cu17 1_555 1_555
O33_11 Cu17 1_555 1_555
Cu13_16 Cl6_3 1_555 1_555
O32_12 Cu15_3 1_555 1_555
O33_12 Cu15_3 1_555 1_555
Cu13_17 Cl7_4 1_555 1_555
O32_13 Cu17_4 1_555 1_555
O33_13 Cu17_4 1_555 1_555
Cu13_18 Cl6_2 1_555 1_555
O32_14 Cu15_2 1_555 1_555
O33_14 Cu15_2 1_555 1_555
Cu13_19 Cl7_2 1_555 1_555
O32_15 Cu17_2 1_555 1_555
O33_15 Cu17_2 1_555 1_555
Cu13_6 O8_17 1_555 1_555
Cu16_9 Cl6_4 1_555 1_555
O8_17 C13_17 1_555 1_555
O9_9 Cu13_13 1_555 1_555
O10_5 Cu15_4 1_555 1_555
O11_17 Cu13_6 1_555 1_555
O12_9 Cu13_16 1_555 1_555
O28_9 Cu13_13 1_555 1_555
O29_5 Cu15_4 1_555 1_555
O30_9 Cu13_16 1_555 1_555
C13_17 C36_17 1_555 1_555
C14_17 O9_9 1_555 1_555
C15_17 O10_5 1_555 1_555
C16_17 O11_17 1_555 1_555
C17_17 O12_9 1_555 1_555
C18_17 O33_13 1_555 1_555
C36_17 C59_17 1_555 1_555
C37_17 C14_17 1_555 1_555
C38_17 C15_17 1_555 1_555
C39_17 C16_17 1_555 1_555
C40_17 C17_17 1_555 1_555
C41_17 C18_17 1_555 1_555
C59_17 H9_17 1_555 1_555
C60_17 C37_17 1_555 1_555
C61_17 C38_17 1_555 1_555
C62_17 C39_17 1_555 1_555
C63_17 C40_17 1_555 1_555
C64_17 C41_17 1_555 1_555
H10_17 C61_17 1_555 1_555
H11_17 C60_17 1_555 1_555
H12_17 C62_17 1_555 1_555
H13_17 C64_17 1_555 1_555
H14_17 C63_17 1_555 1_555
C82_17 C59_17 1_555 1_555
C83_17 C60_17 1_555 1_555
C84_17 C61_17 1_555 1_555
C85_17 C62_17 1_555 1_555
C86_17 C63_17 1_555 1_555
C87_17 C64_17 1_555 1_555
C105_17 C82_17 1_555 1_555
C106_17 C83_17 1_555 1_555
C107_17 C82_17 1_555 1_555
C108_17 C85_17 1_555 1_555
C109_17 C86_17 1_555 1_555
C110_17 C85_17 1_555 1_555
C128_17 C105_17 1_555 1_555
C129_17 C106_17 1_555 1_555
C130_17 C107_17 1_555 1_555
C131_17 C108_17 1_555 1_555
C132_17 C109_17 1_555 1_555
C133_17 C110_17 1_555 1_555
H32_17 C128_17 1_555 1_555
H33_17 C130_17 1_555 1_555
H34_17 C129_17 1_555 1_555
H35_17 C131_17 1_555 1_555
H36_17 C133_17 1_555 1_555
H37_17 C132_17 1_555 1_555
C151_17 C36_17 1_555 1_555
C152_17 C37_17 1_555 1_555
C153_17 C38_17 1_555 1_555
C154_17 C39_17 1_555 1_555
C155_17 C40_17 1_555 1_555
C156_17 C41_17 1_555 1_555
H55_17 C151_17 1_555 1_555
H56_17 C153_17 1_555 1_555
H57_17 C152_17 1_555 1_555
H58_17 C154_17 1_555 1_555
H59_17 C156_17 1_555 1_555
H60_17 C155_17 1_555 1_555
O42_17 Cu16_9 1_555 1_555
O45_17 Cu13_17 1_555 1_555
O66_9 Cu13_13 1_555 1_555
O67_9 Cu13_13 1_555 1_555
O68_9 Cu13_16 1_555 1_555
O69_9 Cu13_16 1_555 1_555
C13_17 O64_4 1_555 1_555
C14_17 O69_6 1_555 1_555
C15_17 O42_17 1_555 1_555
C16_17 O65_4 1_555 1_555
C17_17 O68_8 1_555 1_555
C18_17 O45_17 1_555 1_555
C83_17 C105_17 1_555 1_555
C84_17 C106_17 1_555 1_555
C84_17 C107_17 1_555 1_555
C86_17 C108_17 1_555 1_555
C87_17 C109_17 1_555 1_555
C87_17 C110_17 1_555 1_555
C128_17 C151_17 1_555 1_555
C129_17 C152_17 1_555 1_555
C130_17 C153_17 1_555 1_555
C131_17 C154_17 1_555 1_555
C132_17 C155_17 1_555 1_555
C133_17 C156_17 1_555 1_555
O32_16 Cu13_4 1_555 1_555
O33_16 Cu13_5 1_555 1_555
Cu13_3 O8_18 1_555 1_555
O8_18 C13_18 1_555 1_555
O9_10 Cu13_15 1_555 1_555
O11_18 Cu13_3 1_555 1_555
O12_10 Cu13_14 1_555 1_555
O28_10 Cu13_15 1_555 1_555
O30_10 Cu13_14 1_555 1_555
C13_18 C36_18 1_555 1_555
C14_18 O9_10 1_555 1_555
C15_18 O32_14 1_555 1_555
C16_18 O11_18 1_555 1_555
C17_18 O12_10 1_555 1_555
C18_18 O33_15 1_555 1_555
C36_18 C59_18 1_555 1_555
C37_18 C14_18 1_555 1_555
C38_18 C15_18 1_555 1_555
C39_18 C16_18 1_555 1_555
C40_18 C17_18 1_555 1_555
C41_18 C18_18 1_555 1_555
C59_18 H9_18 1_555 1_555
C60_18 C37_18 1_555 1_555
C61_18 C38_18 1_555 1_555
C62_18 C39_18 1_555 1_555
C63_18 C40_18 1_555 1_555
C64_18 C41_18 1_555 1_555
H10_18 C61_18 1_555 1_555
H11_18 C60_18 1_555 1_555
H12_18 C62_18 1_555 1_555
H13_18 C64_18 1_555 1_555
H14_18 C63_18 1_555 1_555
C82_18 C59_18 1_555 1_555
C83_18 C60_18 1_555 1_555
C84_18 C61_18 1_555 1_555
C85_18 C62_18 1_555 1_555
C86_18 C63_18 1_555 1_555
C87_18 C64_18 1_555 1_555
C105_18 C82_18 1_555 1_555
C106_18 C83_18 1_555 1_555
C107_18 C82_18 1_555 1_555
C108_18 C85_18 1_555 1_555
C109_18 C86_18 1_555 1_555
C110_18 C85_18 1_555 1_555
C128_18 C105_18 1_555 1_555
C129_18 C106_18 1_555 1_555
C130_18 C107_18 1_555 1_555
C131_18 C108_18 1_555 1_555
C132_18 C109_18 1_555 1_555
C133_18 C110_18 1_555 1_555
H32_18 C128_18 1_555 1_555
H33_18 C130_18 1_555 1_555
H34_18 C129_18 1_555 1_555
H35_18 C131_18 1_555 1_555
H36_18 C133_18 1_555 1_555
H37_18 C132_18 1_555 1_555
C151_18 C36_18 1_555 1_555
C152_18 C37_18 1_555 1_555
C153_18 C38_18 1_555 1_555
C154_18 C39_18 1_555 1_555
C155_18 C40_18 1_555 1_555
C156_18 C41_18 1_555 1_555
H55_18 C151_18 1_555 1_555
H56_18 C153_18 1_555 1_555
H57_18 C152_18 1_555 1_555
H58_18 C154_18 1_555 1_555
H59_18 C156_18 1_555 1_555
H60_18 C155_18 1_555 1_555
O42_18 Cu13_18 1_555 1_555
O45_18 Cu13_19 1_555 1_555
O66_10 Cu13_15 1_555 1_555
O67_10 Cu13_15 1_555 1_555
O68_10 Cu13_14 1_555 1_555
O69_10 Cu13_14 1_555 1_555
C13_18 O64_2 1_555 1_555
C14_18 O66_6 1_555 1_555
C15_18 O42_18 1_555 1_555
C16_18 O65_2 1_555 1_555
C17_18 O67_8 1_555 1_555
C18_18 O45_18 1_555 1_555
C83_18 C105_18 1_555 1_555
C84_18 C106_18 1_555 1_555
C84_18 C107_18 1_555 1_555
C86_18 C108_18 1_555 1_555
C87_18 C109_18 1_555 1_555
C87_18 C110_18 1_555 1_555
C128_18 C151_18 1_555 1_555
C129_18 C152_18 1_555 1_555
C130_18 C153_18 1_555 1_555
C131_18 C154_18 1_555 1_555
C132_18 C155_18 1_555 1_555
C133_18 C156_18 1_555 1_555
O32_17 Cu13 1_555 1_555
O33_17 Cu13_2 1_555 1_555
Cu13_9 O8_19 1_555 1_555
O8_19 C13_19 1_555 1_555
O11_19 Cu13_9 1_555 1_555
C13_19 C36_19 1_555 1_555
C14_19 O30_10 1_555 1_555
C15_19 O32_13 1_555 1_555
C16_19 O11_19 1_555 1_555
C17_19 O28_10 1_555 1_555
C18_19 O29_5 1_555 1_555
C36_19 C59_19 1_555 1_555
C37_19 C14_19 1_555 1_555
C38_19 C15_19 1_555 1_555
C39_19 C16_19 1_555 1_555
C40_19 C17_19 1_555 1_555
C41_19 C18_19 1_555 1_555
C59_19 H9_19 1_555 1_555
C60_19 C37_19 1_555 1_555
C61_19 C38_19 1_555 1_555
C62_19 C39_19 1_555 1_555
C63_19 C40_19 1_555 1_555
C64_19 C41_19 1_555 1_555
H10_19 C61_19 1_555 1_555
H11_19 C60_19 1_555 1_555
H12_19 C62_19 1_555 1_555
H13_19 C64_19 1_555 1_555
H14_19 C63_19 1_555 1_555
C82_19 C59_19 1_555 1_555
C83_19 C60_19 1_555 1_555
C84_19 C61_19 1_555 1_555
C85_19 C62_19 1_555 1_555
C86_19 C63_19 1_555 1_555
C87_19 C64_19 1_555 1_555
C105_19 C82_19 1_555 1_555
C106_19 C83_19 1_555 1_555
C107_19 C82_19 1_555 1_555
C108_19 C85_19 1_555 1_555
C109_19 C86_19 1_555 1_555
C110_19 C85_19 1_555 1_555
C128_19 C105_19 1_555 1_555
C129_19 C106_19 1_555 1_555
C130_19 C107_19 1_555 1_555
C131_19 C108_19 1_555 1_555
C132_19 C109_19 1_555 1_555
C133_19 C110_19 1_555 1_555
H32_19 C128_19 1_555 1_555
H33_19 C130_19 1_555 1_555
H34_19 C129_19 1_555 1_555
H35_19 C131_19 1_555 1_555
H36_19 C133_19 1_555 1_555
H37_19 C132_19 1_555 1_555
C151_19 C36_19 1_555 1_555
C152_19 C37_19 1_555 1_555
C153_19 C38_19 1_555 1_555
C154_19 C39_19 1_555 1_555
C155_19 C40_19 1_555 1_555
C156_19 C41_19 1_555 1_555
H55_19 C151_19 1_555 1_555
H56_19 C153_19 1_555 1_555
H57_19 C152_19 1_555 1_555
H58_19 C154_19 1_555 1_555
H59_19 C156_19 1_555 1_555
H60_19 C155_19 1_555 1_555
O42_19 Cu13_17 1_555 1_555
O45_19 Cu16_9 1_555 1_555
C13_19 O64_6 1_555 1_555
C14_19 O66_8 1_555 1_555
C15_19 O42_19 1_555 1_555
C16_19 O65_6 1_555 1_555
C17_19 O67_6 1_555 1_555
C18_19 O45_19 1_555 1_555
C83_19 C105_19 1_555 1_555
C84_19 C106_19 1_555 1_555
C84_19 C107_19 1_555 1_555
C86_19 C108_19 1_555 1_555
C87_19 C109_19 1_555 1_555
C87_19 C110_19 1_555 1_555
C128_19 C151_19 1_555 1_555
C129_19 C152_19 1_555 1_555
C130_19 C153_19 1_555 1_555
C131_19 C154_19 1_555 1_555
C132_19 C155_19 1_555 1_555
C133_19 C156_19 1_555 1_555
O33_18 Cu13_7 1_555 1_555
O32_18 Cu13_8 1_555 1_555
Cu13_12 O8_20 1_555 1_555
O8_20 C13_20 1_555 1_555
O11_20 Cu13_12 1_555 1_555
C13_20 C36_20 1_555 1_555
C14_20 O30_9 1_555 1_555
C15_20 O32_15 1_555 1_555
C16_20 O11_20 1_555 1_555
C17_20 O28_9 1_555 1_555
C18_20 O33_14 1_555 1_555
C36_20 C59_20 1_555 1_555
C37_20 C14_20 1_555 1_555
C38_20 C15_20 1_555 1_555
C39_20 C16_20 1_555 1_555
C40_20 C17_20 1_555 1_555
C41_20 C18_20 1_555 1_555
C59_20 H9_20 1_555 1_555
C60_20 C37_20 1_555 1_555
C61_20 C38_20 1_555 1_555
C62_20 C39_20 1_555 1_555
C63_20 C40_20 1_555 1_555
C64_20 C41_20 1_555 1_555
H10_20 C61_20 1_555 1_555
H11_20 C60_20 1_555 1_555
H12_20 C62_20 1_555 1_555
H13_20 C64_20 1_555 1_555
H14_20 C63_20 1_555 1_555
C82_20 C59_20 1_555 1_555
C83_20 C60_20 1_555 1_555
C84_20 C61_20 1_555 1_555
C85_20 C62_20 1_555 1_555
C86_20 C63_20 1_555 1_555
C87_20 C64_20 1_555 1_555
C105_20 C82_20 1_555 1_555
C106_20 C83_20 1_555 1_555
C107_20 C82_20 1_555 1_555
C108_20 C85_20 1_555 1_555
C109_20 C86_20 1_555 1_555
C110_20 C85_20 1_555 1_555
C128_20 C105_20 1_555 1_555
C129_20 C106_20 1_555 1_555
C130_20 C107_20 1_555 1_555
C131_20 C108_20 1_555 1_555
C132_20 C109_20 1_555 1_555
C133_20 C110_20 1_555 1_555
H32_20 C128_20 1_555 1_555
H33_20 C130_20 1_555 1_555
H34_20 C129_20 1_555 1_555
H35_20 C131_20 1_555 1_555
H36_20 C133_20 1_555 1_555
H37_20 C132_20 1_555 1_555
C151_20 C36_20 1_555 1_555
C152_20 C37_20 1_555 1_555
C153_20 C38_20 1_555 1_555
C154_20 C39_20 1_555 1_555
C155_20 C40_20 1_555 1_555
C156_20 C41_20 1_555 1_555
H55_20 C151_20 1_555 1_555
H56_20 C153_20 1_555 1_555
H57_20 C152_20 1_555 1_555
H58_20 C154_20 1_555 1_555
H59_20 C156_20 1_555 1_555
H60_20 C155_20 1_555 1_555
O42_20 Cu13_19 1_555 1_555
O45_20 Cu13_18 1_555 1_555
C13_20 O64_8 1_555 1_555
C14_20 O69_8 1_555 1_555
C15_20 O42_20 1_555 1_555
C16_20 O65_8 1_555 1_555
C17_20 O68_6 1_555 1_555
C18_20 O45_20 1_555 1_555
C83_20 C105_20 1_555 1_555
C84_20 C106_20 1_555 1_555
C84_20 C107_20 1_555 1_555
C86_20 C108_20 1_555 1_555
C87_20 C109_20 1_555 1_555
C87_20 C110_20 1_555 1_555
C128_20 C151_20 1_555 1_555
C129_20 C152_20 1_555 1_555
C130_20 C153_20 1_555 1_555
C131_20 C154_20 1_555 1_555
C132_20 C155_20 1_555 1_555
C133_20 C156_20 1_555 1_555
O33_19 Cu13_10 1_555 1_555
O32_19 Cu13_11 1_555 1_555
Cu13_19 O8_21 1_555 1_555
O8_21 C13_21 1_555 1_555
O11_21 Cu13_19 1_555 1_555
C13_21 C36_21 1_555 1_555
C14_21 O32_12 1_555 1_555
C15_21 O32_16 1_555 1_555
C16_21 O11_21 1_555 1_555
C17_21 O33_10 1_555 1_555
C18_21 O33_19 1_555 1_555
C36_21 C59_21 1_555 1_555
C37_21 C14_21 1_555 1_555
C38_21 C15_21 1_555 1_555
C39_21 C16_21 1_555 1_555
C40_21 C17_21 1_555 1_555
C41_21 C18_21 1_555 1_555
C59_21 H9_21 1_555 1_555
C60_21 C37_21 1_555 1_555
C61_21 C38_21 1_555 1_555
C62_21 C39_21 1_555 1_555
C63_21 C40_21 1_555 1_555
C64_21 C41_21 1_555 1_555
H10_21 C61_21 1_555 1_555
H11_21 C60_21 1_555 1_555
H12_21 C62_21 1_555 1_555
H13_21 C64_21 1_555 1_555
H14_21 C63_21 1_555 1_555
C82_21 C59_21 1_555 1_555
C83_21 C60_21 1_555 1_555
C84_21 C61_21 1_555 1_555
C85_21 C62_21 1_555 1_555
C86_21 C63_21 1_555 1_555
C87_21 C64_21 1_555 1_555
C105_21 C82_21 1_555 1_555
C106_21 C83_21 1_555 1_555
C107_21 C82_21 1_555 1_555
C108_21 C85_21 1_555 1_555
C109_21 C86_21 1_555 1_555
C110_21 C85_21 1_555 1_555
C128_21 C105_21 1_555 1_555
C129_21 C106_21 1_555 1_555
C130_21 C107_21 1_555 1_555
C131_21 C108_21 1_555 1_555
C132_21 C109_21 1_555 1_555
C133_21 C110_21 1_555 1_555
H32_21 C128_21 1_555 1_555
H33_21 C130_21 1_555 1_555
H34_21 C129_21 1_555 1_555
H35_21 C131_21 1_555 1_555
H36_21 C133_21 1_555 1_555
H37_21 C132_21 1_555 1_555
C151_21 C36_21 1_555 1_555
C152_21 C37_21 1_555 1_555
C153_21 C38_21 1_555 1_555
C154_21 C39_21 1_555 1_555
C155_21 C40_21 1_555 1_555
C156_21 C41_21 1_555 1_555
H55_21 C151_21 1_555 1_555
H56_21 C153_21 1_555 1_555
H57_21 C152_21 1_555 1_555
H58_21 C154_21 1_555 1_555
H59_21 C156_21 1_555 1_555
H60_21 C155_21 1_555 1_555
C13_21 O69_5 1_555 1_555
C14_21 O69_9 1_555 1_555
C15_21 O64_3 1_555 1_555
C16_21 O68_5 1_555 1_555
C17_21 O68_10 1_555 1_555
C18_21 O65_7 1_555 1_555
C83_21 C105_21 1_555 1_555
C84_21 C106_21 1_555 1_555
C84_21 C107_21 1_555 1_555
C86_21 C108_21 1_555 1_555
C87_21 C109_21 1_555 1_555
C87_21 C110_21 1_555 1_555
C128_21 C151_21 1_555 1_555
C129_21 C152_21 1_555 1_555
C130_21 C153_21 1_555 1_555
C131_21 C154_21 1_555 1_555
C132_21 C155_21 1_555 1_555
C133_21 C156_21 1_555 1_555
Cu13_17 O8_22 1_555 1_555
O8_22 C13_22 1_555 1_555
O11_22 Cu13_17 1_555 1_555
C13_22 C36_22 1_555 1_555
C14_22 O32_10 1_555 1_555
C15_22 O32_17 1_555 1_555
C16_22 O11_22 1_555 1_555
C17_22 O33_12 1_555 1_555
C18_22 O33_18 1_555 1_555
C36_22 C59_22 1_555 1_555
C37_22 C14_22 1_555 1_555
C38_22 C15_22 1_555 1_555
C39_22 C16_22 1_555 1_555
C40_22 C17_22 1_555 1_555
C41_22 C18_22 1_555 1_555
C59_22 H9_22 1_555 1_555
C60_22 C37_22 1_555 1_555
C61_22 C38_22 1_555 1_555
C62_22 C39_22 1_555 1_555
C63_22 C40_22 1_555 1_555
C64_22 C41_22 1_555 1_555
H10_22 C61_22 1_555 1_555
H11_22 C60_22 1_555 1_555
H12_22 C62_22 1_555 1_555
H13_22 C64_22 1_555 1_555
H14_22 C63_22 1_555 1_555
C82_22 C59_22 1_555 1_555
C83_22 C60_22 1_555 1_555
C84_22 C61_22 1_555 1_555
C85_22 C62_22 1_555 1_555
C86_22 C63_22 1_555 1_555
C87_22 C64_22 1_555 1_555
C105_22 C82_22 1_555 1_555
C106_22 C83_22 1_555 1_555
C107_22 C82_22 1_555 1_555
C108_22 C85_22 1_555 1_555
C109_22 C86_22 1_555 1_555
C110_22 C85_22 1_555 1_555
C128_22 C105_22 1_555 1_555
C129_22 C106_22 1_555 1_555
C130_22 C107_22 1_555 1_555
C131_22 C108_22 1_555 1_555
C132_22 C109_22 1_555 1_555
C133_22 C110_22 1_555 1_555
H32_22 C128_22 1_555 1_555
H33_22 C130_22 1_555 1_555
H34_22 C129_22 1_555 1_555
H35_22 C131_22 1_555 1_555
H36_22 C133_22 1_555 1_555
H37_22 C132_22 1_555 1_555
C151_22 C36_22 1_555 1_555
C152_22 C37_22 1_555 1_555
C153_22 C38_22 1_555 1_555
C154_22 C39_22 1_555 1_555
C155_22 C40_22 1_555 1_555
C156_22 C41_22 1_555 1_555
H55_22 C151_22 1_555 1_555
H56_22 C153_22 1_555 1_555
H57_22 C152_22 1_555 1_555
H58_22 C154_22 1_555 1_555
H59_22 C156_22 1_555 1_555
H60_22 C155_22 1_555 1_555
C13_22 O66_5 1_555 1_555
C14_22 O69_10 1_555 1_555
C15_22 O64 1_555 1_555
C16_22 O67_5 1_555 1_555
C17_22 O68_9 1_555 1_555
C18_22 O65_5 1_555 1_555
C83_22 C105_22 1_555 1_555
C84_22 C106_22 1_555 1_555
C84_22 C107_22 1_555 1_555
C86_22 C108_22 1_555 1_555
C87_22 C109_22 1_555 1_555
C87_22 C110_22 1_555 1_555
C128_22 C151_22 1_555 1_555
C129_22 C152_22 1_555 1_555
C130_22 C153_22 1_555 1_555
C131_22 C154_22 1_555 1_555
C132_22 C155_22 1_555 1_555
C133_22 C156_22 1_555 1_555
Cu16_9 O8_23 1_555 1_555
O8_23 C13_23 1_555 1_555
O11_23 Cu16_9 1_555 1_555
C13_23 C36_23 1_555 1_555
C14_23 O32_9 1_555 1_555
C15_23 O32_18 1_555 1_555
C16_23 O11_23 1_555 1_555
C17_23 O33_11 1_555 1_555
C18_23 O33_17 1_555 1_555
C36_23 C59_23 1_555 1_555
C37_23 C14_23 1_555 1_555
C38_23 C15_23 1_555 1_555
C39_23 C16_23 1_555 1_555
C40_23 C17_23 1_555 1_555
C41_23 C18_23 1_555 1_555
C59_23 H9_23 1_555 1_555
C60_23 C37_23 1_555 1_555
C61_23 C38_23 1_555 1_555
C62_23 C39_23 1_555 1_555
C63_23 C40_23 1_555 1_555
C64_23 C41_23 1_555 1_555
H10_23 C61_23 1_555 1_555
H11_23 C60_23 1_555 1_555
H12_23 C62_23 1_555 1_555
H13_23 C64_23 1_555 1_555
H14_23 C63_23 1_555 1_555
C82_23 C59_23 1_555 1_555
C83_23 C60_23 1_555 1_555
C84_23 C61_23 1_555 1_555
C85_23 C62_23 1_555 1_555
C86_23 C63_23 1_555 1_555
C87_23 C64_23 1_555 1_555
C105_23 C82_23 1_555 1_555
C106_23 C83_23 1_555 1_555
C107_23 C82_23 1_555 1_555
C108_23 C85_23 1_555 1_555
C109_23 C86_23 1_555 1_555
C110_23 C85_23 1_555 1_555
C128_23 C105_23 1_555 1_555
C129_23 C106_23 1_555 1_555
C130_23 C107_23 1_555 1_555
C131_23 C108_23 1_555 1_555
C132_23 C109_23 1_555 1_555
C133_23 C110_23 1_555 1_555
H32_23 C128_23 1_555 1_555
H33_23 C130_23 1_555 1_555
H34_23 C129_23 1_555 1_555
H35_23 C131_23 1_555 1_555
H36_23 C133_23 1_555 1_555
H37_23 C132_23 1_555 1_555
C151_23 C36_23 1_555 1_555
C152_23 C37_23 1_555 1_555
C153_23 C38_23 1_555 1_555
C154_23 C39_23 1_555 1_555
C155_23 C40_23 1_555 1_555
C156_23 C41_23 1_555 1_555
H55_23 C151_23 1_555 1_555
H56_23 C153_23 1_555 1_555
H57_23 C152_23 1_555 1_555
H58_23 C154_23 1_555 1_555
H59_23 C156_23 1_555 1_555
H60_23 C155_23 1_555 1_555
C13_23 O66_7 1_555 1_555
C14_23 O66_9 1_555 1_555
C15_23 O64_5 1_555 1_555
C16_23 O67_7 1_555 1_555
C17_23 O67_10 1_555 1_555
C18_23 O65 1_555 1_555
C83_23 C105_23 1_555 1_555
C84_23 C106_23 1_555 1_555
C84_23 C107_23 1_555 1_555
C86_23 C108_23 1_555 1_555
C87_23 C109_23 1_555 1_555
C87_23 C110_23 1_555 1_555
C128_23 C151_23 1_555 1_555
C129_23 C152_23 1_555 1_555
C130_23 C153_23 1_555 1_555
C131_23 C154_23 1_555 1_555
C132_23 C155_23 1_555 1_555
C133_23 C156_23 1_555 1_555
Cu13_18 O8_24 1_555 1_555
O8_24 C13_24 1_555 1_555
O11_24 Cu13_18 1_555 1_555
C13_24 C36_24 1_555 1_555
C14_24 O32_11 1_555 1_555
C15_24 O32_19 1_555 1_555
C16_24 O11_24 1_555 1_555
C17_24 O33_9 1_555 1_555
C18_24 O33_16 1_555 1_555
C36_24 C59_24 1_555 1_555
C37_24 C14_24 1_555 1_555
C38_24 C15_24 1_555 1_555
C39_24 C16_24 1_555 1_555
C40_24 C17_24 1_555 1_555
C41_24 C18_24 1_555 1_555
C59_24 H9_24 1_555 1_555
C60_24 C37_24 1_555 1_555
C61_24 C38_24 1_555 1_555
C62_24 C39_24 1_555 1_555
C63_24 C40_24 1_555 1_555
C64_24 C41_24 1_555 1_555
H10_24 C61_24 1_555 1_555
H11_24 C60_24 1_555 1_555
H12_24 C62_24 1_555 1_555
H13_24 C64_24 1_555 1_555
H14_24 C63_24 1_555 1_555
C82_24 C59_24 1_555 1_555
C83_24 C60_24 1_555 1_555
C84_24 C61_24 1_555 1_555
C85_24 C62_24 1_555 1_555
C86_24 C63_24 1_555 1_555
C87_24 C64_24 1_555 1_555
C105_24 C82_24 1_555 1_555
C106_24 C83_24 1_555 1_555
C107_24 C82_24 1_555 1_555
C108_24 C85_24 1_555 1_555
C109_24 C86_24 1_555 1_555
C110_24 C85_24 1_555 1_555
C128_24 C105_24 1_555 1_555
C129_24 C106_24 1_555 1_555
C130_24 C107_24 1_555 1_555
C131_24 C108_24 1_555 1_555
C132_24 C109_24 1_555 1_555
C133_24 C110_24 1_555 1_555
H32_24 C128_24 1_555 1_555
H33_24 C130_24 1_555 1_555
H34_24 C129_24 1_555 1_555
H35_24 C131_24 1_555 1_555
H36_24 C133_24 1_555 1_555
H37_24 C132_24 1_555 1_555
C151_24 C36_24 1_555 1_555
C152_24 C37_24 1_555 1_555
C153_24 C38_24 1_555 1_555
C154_24 C39_24 1_555 1_555
C155_24 C40_24 1_555 1_555
C156_24 C41_24 1_555 1_555
H55_24 C151_24 1_555 1_555
H56_24 C153_24 1_555 1_555
H57_24 C152_24 1_555 1_555
H58_24 C154_24 1_555 1_555
H59_24 C156_24 1_555 1_555
H60_24 C155_24 1_555 1_555
C13_24 O69_7 1_555 1_555
C14_24 O66_10 1_555 1_555
C15_24 O64_7 1_555 1_555
C16_24 O68_7 1_555 1_555
C17_24 O67_9 1_555 1_555
C18_24 O65_3 1_555 1_555
C83_24 C105_24 1_555 1_555
C84_24 C106_24 1_555 1_555
C84_24 C107_24 1_555 1_555
C86_24 C108_24 1_555 1_555
C87_24 C109_24 1_555 1_555
C87_24 C110_24 1_555 1_555
C128_24 C151_24 1_555 1_555
C129_24 C152_24 1_555 1_555
C130_24 C153_24 1_555 1_555
C131_24 C154_24 1_555 1_555
C132_24 C155_24 1_555 1_555
C133_24 C156_24 1_555 1_555

#END
