
###############################################################################
#
# This file contains modified crystal structure data generated from the
# MOF subset of the Cambridge Structural Database (CSD) v543 
# hosted by the Cambridge Crystallographic Data Centre (CCDC).
#
# This work is licensed under the Creative Commons
# Attribution-NonCommercial-ShareAlike 4.0 International License.
# To view a copy of this license, visit
# http://creativecommons.org/licenses/by-nc-sa/4.0/
# or send a letter to
# Creative Commons, PO Box 1866, Mountain View, CA 94042, USA.
#
# CIF created using the CSD Python API on 29 September 2022
# The structure has been converted into the P1 space group
# The structure has a 3D framework
# The original CSD entry REHGOC is in the monoclinic crystal system
# The framework has been calculated to contain at least 10.0% void space
# The void calculation uses a probe of radius 1.32A, grid spacing 0.4
#
###############################################################################

data_REHGOC
_chemical_formula_moiety         '(C168 H168 N72 O72 Pb14)n'
_symmetry_cell_setting           triclinic
_symmetry_space_group_name_H-M   'P 1'
_symmetry_Int_Tables_number      1
_space_group_name_Hall           'P 1'
loop_
_symmetry_equiv_pos_site_id
_symmetry_equiv_pos_as_xyz
1 x,y,z
_cell_length_a                   30.9991(10)
_cell_length_b                   10.1021(4)
_cell_length_c                   20.4318(8)
_cell_angle_alpha                90
_cell_angle_beta                 110.727(3)
_cell_angle_gamma                90
_cell_volume                     5984.22
loop_
_atom_site_label
_atom_site_type_symbol
_atom_site_fract_x
_atom_site_fract_y
_atom_site_fract_z
N15 N 0.1977(5) 0.151(2) 0.8402(8)
N19 N 0.2898(6) 0.010(2) 0.9562(9)
O10 O 0.3058(6) 0.1124(16) 0.9378(7)
O15 O 0.3186(5) 0.0935(16) 0.7181(7)
O21 O 0.3274(5) 0.2605(15) 0.8385(6)
Pb3 Pb 0.26875(2) 0.05401(7) 0.80264(3)
C1 C 0.0749(6) 0.583(2) 0.1432(11)
H1 H 0.0487 0.5330 0.1377
C2 C 0.1154(7) 0.5226(18) 0.1442(12)
H2 H 0.1149 0.4314 0.1378
C3 C 0.1526(6) 0.719(2) 0.1588(9)
H3 H 0.1792 0.7664 0.1633
C4 C 0.1140(7) 0.789(2) 0.1577(9)
H4 H 0.1150 0.8807 0.1615
C5 C 0.0743(6) 0.7211(19) 0.1507(9)
C6 C 0.0318(6) 0.7858(19) 0.1538(8)
C7 C 0.0344(6) 0.928(2) 0.1753(9)
H5 H 0.0434 0.9814 0.1432
H6 H 0.0567 0.9382 0.2216
H7 H 0.0047 0.9569 0.1748
C15 C 0.4055(7) 0.630(3) 0.0272(9)
H15 H 0.4331 0.6767 0.0432
C16 C 0.3657(7) 0.687(2) 0.0324(10)
H16 H 0.3665 0.7717 0.0500
N1 N 0.1544(5) 0.5856(16) 0.1537(8)
N5 N 0.3254(6) 0.6149(19) 0.0112(8)
N6 N 0.4806(5) 0.5269(17) 0.0049(8)
N7 N 0.2102(6) 0.490(2) 0.0438(9)
N8 N 0.2949(6) 0.8543(18) 0.1611(8)
N9 N 0.3049(5) 0.6540(16) 0.2959(7)
O1 O 0.1942(6) 0.3876(16) 0.0622(7)
O2 O 0.2329(5) 0.5772(15) 0.0886(6)
O4 O 0.3186(5) 0.9065(16) 0.2181(7)
O5 O 0.2533(5) 0.8821(17) 0.1318(7)
O6 O 0.3145(5) 0.7794(16) 0.1311(7)
O7 O 0.2635(4) 0.6807(12) 0.2602(7)
O8 O 0.3274(5) 0.7395(15) 0.3385(6)
O9 O 0.3199(5) 0.5429(15) 0.2911(7)
Pb1 Pb 0.23125(2) 0.44599(7) 0.19736(3)
Pb2 Pb 0.2500 0.7500 0.0000
C22 C 0.5749(6) 0.083(2) 0.1432(11)
H22 H 0.5487 0.0330 0.1377
C23 C 0.6154(7) 0.0226(18) 0.1442(12)
C24 C 0.6526(6) 0.219(2) 0.1588(9)
H24 H 0.6792 0.2664 0.1633
C25 C 0.6140(7) 0.289(2) 0.1577(9)
H25 H 0.6150 0.3807 0.1615
C26 C 0.5743(6) 0.2211(19) 0.1507(9)
C27 C 0.5318(6) 0.2858(19) 0.1538(8)
C28 C 0.5344(6) 0.428(2) 0.1753(9)
H26 H 0.5434 0.4814 0.1432
H27 H 0.5567 0.4382 0.2216
H28 H 0.5047 0.4569 0.1748
C29 C 0.4246(16) 0.052(4) 0.127(4)
H29 H 0.4516 0.0112 0.1601
H30 H 0.4243 0.0395 0.0807
H31 H 0.3975 0.0127 0.1316
C30 C 0.4252(8) 0.199(2) 0.1430(15)
C31 C 0.3822(6) 0.251(2) 0.1477(8)
C32 C 0.3475(7) 0.167(2) 0.1512(10)
H32 H 0.3509 0.0758 0.1507
C33 C 0.3067(9) 0.224(2) 0.1557(10)
H33 H 0.2827 0.1690 0.1556
C34 C 0.3347(7) 0.434(2) 0.1584(9)
H34 H 0.3308 0.5240 0.1631
C35 C 0.3754(6) 0.386(2) 0.1499(9)
H35 H 0.3974 0.4446 0.1457
C38 C 0.6755(6) 0.501(2) 0.0159(8)
H38 H 0.7038 0.5450 0.0325
C39 C 0.6376(6) 0.567(2) 0.0223(8)
H39 H 0.6400 0.6528 0.0391
C40 C 0.5962(6) 0.498(2) 0.0025(8)
C41 C 0.5535(7) 0.553(3) 0.0110(9)
C42 C 0.5558(7) 0.690(2) 0.0376(11)
H40 H 0.5794 0.6955 0.0831
H41 H 0.5629 0.7493 0.0062
H42 H 0.5266 0.7134 0.0407
N10 N 0.6544(5) 0.0856(16) 0.1537(8)
N12 N 0.4959(5) 0.2107(14) 0.1382(8)
N13 N 0.4565(5) 0.2741(17) 0.1442(9)
N14 N 0.3023(5) 0.349(2) 0.1598(8)
N21 N 0.1951(5) 0.1540(16) 0.2041(7)
O12 O 0.2944(8) 0.985(2) 0.0193(7)
O14 O 0.1814(5) 0.4065(16) 0.2819(7)
O18 O 0.2365(4) 0.1807(12) 0.2398(7)
O20 O 0.1726(5) 0.2395(15) 0.1615(6)
O22 O 0.1801(5) 0.0429(15) 0.2089(7)
Pb5 Pb 0.26875(2) 0.94599(7) 0.30264(3)
Pb9 Pb 0.7500 0.2500 0.0000
C17 C 0.3245(6) 0.499(2) 0.9841(8)
H17 H 0.2962 0.4550 0.9675
C18 C 0.3624(6) 0.433(2) 0.9777(8)
H18 H 0.3600 0.3472 0.9609
C19 C 0.4038(6) 0.502(2) 0.9975(8)
C20 C 0.4465(7) 0.447(3) 0.9890(9)
C21 C 0.4442(7) 0.310(2) 0.9624(11)
H19 H 0.4206 0.3045 0.9169
H20 H 0.4371 0.2507 0.9938
H21 H 0.4734 0.2866 0.9593
O3 O 0.2056(8) 0.515(2) 0.9807(7)
Pb2_2 Pb 0.2500 0.7500 1.0000
C36 C 0.5945(7) 0.370(3) 0.9728(9)
H36 H 0.5669 0.3233 0.9568
C37 C 0.6343(7) 0.313(2) 0.9676(10)
H37 H 0.6335 0.2283 0.9500
N11 N 0.3456(5) 0.9144(16) 0.8463(8)
N16 N 0.6746(6) 0.3851(19) 0.9888(8)
N17 N 0.1746(6) 0.8851(19) 0.9888(8)
N18 N 0.5194(5) 0.4731(17) 0.9951(8)
N20 N 0.2051(6) 0.6457(18) 0.8389(8)
O11 O 0.2671(5) 0.9228(15) 0.9114(6)
O13 O 0.1814(5) 0.5935(16) 0.7819(7)
O16 O 0.2467(5) 0.6179(17) 0.8682(7)
O17 O 0.1855(5) 0.7206(16) 0.8689(7)
O19 O 0.2365(4) 0.8193(12) 0.7398(7)
Pb6 Pb 0.23125(2) 0.55401(7) 0.69736(3)
Pb9_2 Pb 0.7500 0.2500 1.0000
H23 H 0.6149 0.9314 0.1378
Pb7 Pb 0.73125(2) 0.94599(7) 0.19736(3)
H13 H 0.8308 0.0240 0.1631
C8 C 0.9246(16) 0.552(4) 0.127(4)
H8 H 0.9516 0.5112 0.1601
H9 H 0.9243 0.5395 0.0807
H10 H 0.8975 0.5127 0.1316
C9 C 0.9252(8) 0.699(2) 0.1430(15)
C10 C 0.8822(6) 0.751(2) 0.1477(8)
C11 C 0.8475(7) 0.667(2) 0.1512(10)
H11 H 0.8509 0.5758 0.1507
C12 C 0.8067(9) 0.724(2) 0.1557(10)
H12 H 0.7827 0.6690 0.1556
C13 C 0.8347(7) 0.934(2) 0.1584(9)
C14 C 0.8754(6) 0.886(2) 0.1499(9)
H14 H 0.8974 0.9446 0.1457
N2 N 0.9959(5) 0.7107(14) 0.1382(8)
N3 N 0.9565(5) 0.7741(17) 0.1442(9)
N4 N 0.8023(5) 0.849(2) 0.1598(8)
H13_2 H 0.1692 0.0240 0.3369
C8_2 C 0.0754(16) 0.552(4) 0.373(4)
H8_2 H 0.0484 0.5112 0.3399
H9_2 H 0.0757 0.5395 0.4193
H10_2 H 0.1025 0.5127 0.3684
C9_2 C 0.0748(8) 0.699(2) 0.3570(15)
C10_2 C 0.1178(6) 0.751(2) 0.3523(8)
C11_2 C 0.1525(7) 0.667(2) 0.3488(10)
H11_2 H 0.1491 0.5758 0.3493
C12_2 C 0.1933(9) 0.724(2) 0.3443(10)
H12_2 H 0.2173 0.6690 0.3444
C13_2 C 0.1653(7) 0.934(2) 0.3416(9)
C14_2 C 0.1246(6) 0.886(2) 0.3501(9)
H14_2 H 0.1026 0.9446 0.3543
N2_2 N 0.0041(5) 0.7107(14) 0.3618(8)
N3_2 N 0.0435(5) 0.7741(17) 0.3558(9)
N4_2 N 0.1977(5) 0.849(2) 0.3402(8)
N15_2 N 0.8023(5) 0.151(2) 0.6598(8)
N19_2 N 0.7102(6) 0.010(2) 0.5438(9)
O10_2 O 0.6942(6) 0.1124(16) 0.5622(7)
O15_2 O 0.6814(5) 0.0935(16) 0.7819(7)
O21_2 O 0.6726(5) 0.2605(15) 0.6615(6)
Pb3_2 Pb 0.73125(2) 0.05401(7) 0.69736(3)
C1_2 C 0.9251(6) 0.583(2) 0.3568(11)
H1_2 H 0.9513 0.5330 0.3623
C2_2 C 0.8846(7) 0.5226(18) 0.3558(12)
H2_2 H 0.8851 0.4314 0.3622
C3_2 C 0.8474(6) 0.719(2) 0.3412(9)
H3_2 H 0.8208 0.7664 0.3367
C4_2 C 0.8860(7) 0.789(2) 0.3423(9)
H4_2 H 0.8850 0.8807 0.3385
C5_2 C 0.9257(6) 0.7211(19) 0.3493(9)
C6_2 C 0.9682(6) 0.7858(19) 0.3462(8)
C7_2 C 0.9656(6) 0.928(2) 0.3247(9)
H5_2 H 0.9566 0.9814 0.3568
H6_2 H 0.9433 0.9382 0.2784
H7_2 H 0.9953 0.9569 0.3252
C15_2 C 0.5945(7) 0.630(3) 0.4728(9)
H15_2 H 0.5669 0.6767 0.4568
C16_2 C 0.6343(7) 0.687(2) 0.4676(10)
H16_2 H 0.6335 0.7717 0.4500
C17_2 C 0.6755(6) 0.499(2) 0.5159(8)
H17_2 H 0.7038 0.4550 0.5325
C18_2 C 0.6376(6) 0.433(2) 0.5223(8)
H18_2 H 0.6400 0.3472 0.5391
C19_2 C 0.5962(6) 0.502(2) 0.5025(8)
C20_2 C 0.5535(7) 0.447(3) 0.5110(9)
C21_2 C 0.5558(7) 0.310(2) 0.5376(11)
H19_2 H 0.5794 0.3045 0.5831
H20_2 H 0.5629 0.2507 0.5062
H21_2 H 0.5266 0.2866 0.5407
N1_2 N 0.8456(5) 0.5856(16) 0.3463(8)
N5_2 N 0.6746(6) 0.6149(19) 0.4888(8)
N6_2 N 0.5194(5) 0.5269(17) 0.4951(8)
N7_2 N 0.7898(6) 0.490(2) 0.4562(9)
N8_2 N 0.7051(6) 0.8543(18) 0.3389(8)
N9_2 N 0.6951(5) 0.6540(16) 0.2041(7)
O1_2 O 0.8058(6) 0.3876(16) 0.4378(7)
O2_2 O 0.7671(5) 0.5772(15) 0.4114(6)
O3_2 O 0.7944(8) 0.515(2) 0.5193(7)
O4_2 O 0.6814(5) 0.9065(16) 0.2819(7)
O5_2 O 0.7467(5) 0.8821(17) 0.3682(7)
O6_2 O 0.6855(5) 0.7794(16) 0.3689(7)
O7_2 O 0.7365(4) 0.6807(12) 0.2398(7)
O8_2 O 0.6726(5) 0.7395(15) 0.1615(6)
O9_2 O 0.6801(5) 0.5429(15) 0.2089(7)
Pb1_2 Pb 0.76875(2) 0.44599(7) 0.30264(3)
Pb2_3 Pb 0.7500 0.7500 0.5000
C22_2 C 0.4251(6) 0.083(2) 0.3568(11)
H22_2 H 0.4513 0.0330 0.3623
C23_2 C 0.3846(7) 0.0226(18) 0.3558(12)
C24_2 C 0.3474(6) 0.219(2) 0.3412(9)
H24_2 H 0.3208 0.2664 0.3367
C25_2 C 0.3860(7) 0.289(2) 0.3423(9)
H25_2 H 0.3850 0.3807 0.3385
C26_2 C 0.4257(6) 0.2211(19) 0.3493(9)
C27_2 C 0.4682(6) 0.2858(19) 0.3462(8)
C28_2 C 0.4656(6) 0.428(2) 0.3247(9)
H26_2 H 0.4566 0.4814 0.3568
H27_2 H 0.4433 0.4382 0.2784
H28_2 H 0.4953 0.4569 0.3252
C29_2 C 0.5754(16) 0.052(4) 0.373(4)
H29_2 H 0.5484 0.0112 0.3399
H30_2 H 0.5757 0.0395 0.4193
H31_2 H 0.6025 0.0127 0.3684
C30_2 C 0.5748(8) 0.199(2) 0.3570(15)
C31_2 C 0.6178(6) 0.251(2) 0.3523(8)
C32_2 C 0.6525(7) 0.167(2) 0.3488(10)
H32_2 H 0.6491 0.0758 0.3493
C33_2 C 0.6933(9) 0.224(2) 0.3443(10)
H33_2 H 0.7173 0.1690 0.3444
C34_2 C 0.6653(7) 0.434(2) 0.3416(9)
H34_2 H 0.6692 0.5240 0.3369
C35_2 C 0.6246(6) 0.386(2) 0.3501(9)
H35_2 H 0.6026 0.4446 0.3543
C36_2 C 0.4055(7) 0.370(3) 0.5272(9)
H36_2 H 0.4331 0.3233 0.5432
C37_2 C 0.3657(7) 0.313(2) 0.5324(10)
H37_2 H 0.3665 0.2283 0.5500
C38_2 C 0.3245(6) 0.501(2) 0.4841(8)
H38_2 H 0.2962 0.5450 0.4675
C39_2 C 0.3624(6) 0.567(2) 0.4777(8)
H39_2 H 0.3600 0.6528 0.4609
C40_2 C 0.4038(6) 0.498(2) 0.4975(8)
C41_2 C 0.4465(7) 0.553(3) 0.4890(9)
C42_2 C 0.4442(7) 0.690(2) 0.4624(11)
H40_2 H 0.4206 0.6955 0.4169
H41_2 H 0.4371 0.7493 0.4938
H42_2 H 0.4734 0.7134 0.4593
N10_2 N 0.3456(5) 0.0856(16) 0.3463(8)
N11_2 N 0.6544(5) 0.9144(16) 0.6537(8)
N12_2 N 0.5041(5) 0.2107(14) 0.3618(8)
N13_2 N 0.5435(5) 0.2741(17) 0.3558(9)
N14_2 N 0.6977(5) 0.349(2) 0.3402(8)
N16_2 N 0.3254(6) 0.3851(19) 0.5112(8)
N17_2 N 0.8254(6) 0.8851(19) 0.5112(8)
N18_2 N 0.4806(5) 0.4731(17) 0.5049(8)
N20_2 N 0.7949(6) 0.6457(18) 0.6611(8)
N21_2 N 0.8049(5) 0.1540(16) 0.2959(7)
O11_2 O 0.7329(5) 0.9228(15) 0.5886(6)
O12_2 O 0.7056(8) 0.985(2) 0.4807(7)
O13_2 O 0.8186(5) 0.5935(16) 0.7181(7)
O14_2 O 0.8186(5) 0.4065(16) 0.2181(7)
O16_2 O 0.7533(5) 0.6179(17) 0.6318(7)
O17_2 O 0.8145(5) 0.7206(16) 0.6311(7)
O18_2 O 0.7635(4) 0.1807(12) 0.2602(7)
O19_2 O 0.7635(4) 0.8193(12) 0.7602(7)
O20_2 O 0.8274(5) 0.2395(15) 0.3385(6)
O22_2 O 0.8199(5) 0.0429(15) 0.2911(7)
Pb6_2 Pb 0.76875(2) 0.55401(7) 0.80264(3)
Pb9_3 Pb 0.2500 0.2500 0.5000
H23_2 H 0.3851 0.9314 0.3622
C40_3 C 0.0962(6) 0.998(2) 0.0025(8)
C36_3 C 0.0945(7) 0.870(3) 0.9728(9)
H36_3 H 0.0669 0.8233 0.9568
C37_3 C 0.1343(7) 0.813(2) 0.9676(10)
H37_3 H 0.1335 0.7283 0.9500
N18_3 N 0.0194(5) 0.9731(17) 0.9951(8)
C15_3 C 0.9055(7) 0.130(3) 0.0272(9)
H15_3 H 0.9331 0.1767 0.0432
C16_3 C 0.8657(7) 0.187(2) 0.0324(10)
H16_3 H 0.8665 0.2717 0.0500
N5_3 N 0.8254(6) 0.1149(19) 0.0112(8)
N6_3 N 0.9806(5) 0.0269(17) 0.0049(8)
N8_3 N 0.7949(6) 0.3543(18) 0.1611(8)
O2_3 O 0.7329(5) 0.0772(15) 0.0886(6)
O5_3 O 0.7533(5) 0.3821(17) 0.1318(7)
O6_3 O 0.8145(5) 0.2794(16) 0.1311(7)
O12_3 O 0.7944(8) 0.485(2) 0.0193(7)
C19_3 C 0.9038(6) 0.002(2) 0.9975(8)
O3_3 O 0.7056(8) 0.015(2) 0.9807(7)
N11_3 N 0.8456(5) 0.4144(16) 0.8463(8)
N15_3 N 0.6977(5) 0.651(2) 0.8402(8)
N19_3 N 0.7898(6) 0.510(2) 0.9562(9)
N20_3 N 0.7051(6) 0.1457(18) 0.8389(8)
O10_3 O 0.8058(6) 0.6124(16) 0.9378(7)
O11_3 O 0.7671(5) 0.4228(15) 0.9114(6)
O16_3 O 0.7467(5) 0.1179(17) 0.8682(7)
O17_3 O 0.6855(5) 0.2206(16) 0.8689(7)
O19_3 O 0.7365(4) 0.3193(12) 0.7398(7)
O21_3 O 0.8274(5) 0.7605(15) 0.8385(6)
N7_3 N 0.7102(6) 0.990(2) 0.0438(9)
O1_3 O 0.6942(6) 0.8876(16) 0.0622(7)
C15_4 C 0.0945(7) 0.130(3) 0.4728(9)
H15_4 H 0.0669 0.1767 0.4568
C16_4 C 0.1343(7) 0.187(2) 0.4676(10)
H16_4 H 0.1335 0.2717 0.4500
C19_4 C 0.0962(6) 0.002(2) 0.5025(8)
N5_4 N 0.1746(6) 0.1149(19) 0.4888(8)
N6_4 N 0.0194(5) 0.0269(17) 0.4951(8)
N8_4 N 0.2051(6) 0.3543(18) 0.3389(8)
O2_4 O 0.2671(5) 0.0772(15) 0.4114(6)
O3_4 O 0.2944(8) 0.015(2) 0.5193(7)
O5_4 O 0.2467(5) 0.3821(17) 0.3682(7)
O6_4 O 0.1855(5) 0.2794(16) 0.3689(7)
N11_4 N 0.1544(5) 0.4144(16) 0.6537(8)
N15_4 N 0.3023(5) 0.651(2) 0.6598(8)
N19_4 N 0.2102(6) 0.510(2) 0.5438(9)
N20_4 N 0.2949(6) 0.1457(18) 0.6611(8)
O10_4 O 0.1942(6) 0.6124(16) 0.5622(7)
O11_4 O 0.2329(5) 0.4228(15) 0.5886(6)
O12_4 O 0.2056(8) 0.485(2) 0.4807(7)
O16_4 O 0.2533(5) 0.1179(17) 0.6318(7)
O17_4 O 0.3145(5) 0.2206(16) 0.6311(7)
O19_4 O 0.2635(4) 0.3193(12) 0.7602(7)
O21_4 O 0.1726(5) 0.7605(15) 0.6615(6)
C17_3 C 0.1755(6) 0.999(2) 0.5159(8)
H17_3 H 0.2038 0.9550 0.5325
C18_3 C 0.1376(6) 0.933(2) 0.5223(8)
H18_3 H 0.1400 0.8472 0.5391
C20_3 C 0.0535(7) 0.947(3) 0.5110(9)
C21_3 C 0.0558(7) 0.810(2) 0.5376(11)
H19_3 H 0.0794 0.8045 0.5831
H20_3 H 0.0629 0.7507 0.5062
H21_3 H 0.0266 0.7866 0.5407
N7_4 N 0.2898(6) 0.990(2) 0.4562(9)
O1_4 O 0.3058(6) 0.8876(16) 0.4378(7)
C38_3 C 0.8245(6) 0.001(2) 0.4841(8)
H38_3 H 0.7962 0.0450 0.4675
C39_3 C 0.8624(6) 0.067(2) 0.4777(8)
H39_3 H 0.8600 0.1528 0.4609
C41_3 C 0.9465(7) 0.053(3) 0.4890(9)
C42_3 C 0.9442(7) 0.190(2) 0.4624(11)
H40_3 H 0.9206 0.1955 0.4169
H41_3 H 0.9371 0.2493 0.4938
H42_3 H 0.9734 0.2134 0.4593
C36_4 C 0.9055(7) 0.870(3) 0.5272(9)
H36_4 H 0.9331 0.8233 0.5432
C37_4 C 0.8657(7) 0.813(2) 0.5324(10)
H37_4 H 0.8665 0.7283 0.5500
C40_4 C 0.9038(6) 0.998(2) 0.4975(8)
N18_4 N 0.9806(5) 0.9731(17) 0.5049(8)
C8_3 C 0.0754(16) 0.448(4) 0.873(4)
H8_3 H 0.0484 0.4888 0.8399
H9_3 H 0.0757 0.4605 0.9193
H10_3 H 0.1025 0.4873 0.8684
C9_3 C 0.0748(8) 0.301(2) 0.8570(15)
C10_3 C 0.1178(6) 0.249(2) 0.8523(8)
C11_3 C 0.1525(7) 0.333(2) 0.8488(10)
H11_3 H 0.1491 0.4242 0.8493
C12_3 C 0.1933(9) 0.276(2) 0.8443(10)
H12_3 H 0.2173 0.3310 0.8444
C13_3 C 0.1653(7) 0.066(2) 0.8416(9)
C14_3 C 0.1246(6) 0.114(2) 0.8501(9)
H14_3 H 0.1026 0.0554 0.8543
N2_3 N 0.0041(5) 0.2893(14) 0.8618(8)
N3_3 N 0.0435(5) 0.2259(17) 0.8558(9)
H13_3 H 0.1692 0.9760 0.8369
H23_3 H 0.3851 0.0686 0.8622
C1_3 C 0.9251(6) 0.417(2) 0.8568(11)
H1_3 H 0.9513 0.4670 0.8623
C2_3 C 0.8846(7) 0.4774(18) 0.8558(12)
H2_3 H 0.8851 0.5686 0.8622
C3_3 C 0.8474(6) 0.281(2) 0.8412(9)
H3_3 H 0.8208 0.2336 0.8367
C4_3 C 0.8860(7) 0.211(2) 0.8423(9)
H4_3 H 0.8850 0.1193 0.8385
C5_3 C 0.9257(6) 0.2789(19) 0.8493(9)
C6_3 C 0.9682(6) 0.2142(19) 0.8462(8)
C7_3 C 0.9656(6) 0.072(2) 0.8247(9)
H5_3 H 0.9566 0.0186 0.8568
H6_3 H 0.9433 0.0618 0.7784
H7_3 H 0.9953 0.0431 0.8252
N9_3 N 0.6951(5) 0.3460(16) 0.7041(7)
O9_3 O 0.6801(5) 0.4571(15) 0.7089(7)
C22_3 C 0.4251(6) 0.917(2) 0.8568(11)
H22_3 H 0.4513 0.9670 0.8623
C23_3 C 0.3846(7) 0.9774(18) 0.8558(12)
C24_3 C 0.3474(6) 0.781(2) 0.8412(9)
H24_3 H 0.3208 0.7336 0.8367
C25_3 C 0.3860(7) 0.711(2) 0.8423(9)
H25_3 H 0.3850 0.6193 0.8385
C26_3 C 0.4257(6) 0.7789(19) 0.8493(9)
C27_3 C 0.4682(6) 0.7142(19) 0.8462(8)
C28_3 C 0.4656(6) 0.572(2) 0.8247(9)
H26_3 H 0.4566 0.5186 0.8568
H27_3 H 0.4433 0.5618 0.7784
H28_3 H 0.4953 0.5431 0.8252
C29_3 C 0.5754(16) 0.948(4) 0.873(4)
H29_3 H 0.5484 0.9888 0.8399
H30_3 H 0.5757 0.9605 0.9193
H31_3 H 0.6025 0.9873 0.8684
C30_3 C 0.5748(8) 0.801(2) 0.8570(15)
C31_3 C 0.6178(6) 0.749(2) 0.8523(8)
C32_3 C 0.6525(7) 0.833(2) 0.8488(10)
H32_3 H 0.6491 0.9242 0.8493
C33_3 C 0.6933(9) 0.776(2) 0.8443(10)
H33_3 H 0.7173 0.8310 0.8444
C34_3 C 0.6653(7) 0.566(2) 0.8416(9)
H34_3 H 0.6692 0.4760 0.8369
C35_3 C 0.6246(6) 0.614(2) 0.8501(9)
H35_3 H 0.6026 0.5554 0.8543
N12_3 N 0.5041(5) 0.7893(14) 0.8618(8)
N13_3 N 0.5435(5) 0.7259(17) 0.8558(9)
N21_3 N 0.8049(5) 0.8460(16) 0.7959(7)
O22_3 O 0.8199(5) 0.9571(15) 0.7911(7)
H23_4 H 0.6149 0.0686 0.6378
C1_4 C 0.0749(6) 0.417(2) 0.6432(11)
H1_4 H 0.0487 0.4670 0.6377
C2_4 C 0.1154(7) 0.4774(18) 0.6442(12)
H2_4 H 0.1149 0.5686 0.6378
C3_4 C 0.1526(6) 0.281(2) 0.6588(9)
H3_4 H 0.1792 0.2336 0.6633
C4_4 C 0.1140(7) 0.211(2) 0.6577(9)
H4_4 H 0.1150 0.1193 0.6615
C5_4 C 0.0743(6) 0.2789(19) 0.6507(9)
C6_4 C 0.0318(6) 0.2142(19) 0.6538(8)
C7_4 C 0.0344(6) 0.072(2) 0.6753(9)
H5_4 H 0.0434 0.0186 0.6432
H6_4 H 0.0567 0.0618 0.7216
H7_4 H 0.0047 0.0431 0.6748
N9_4 N 0.3049(5) 0.3460(16) 0.7959(7)
O9_4 O 0.3199(5) 0.4571(15) 0.7911(7)
C22_4 C 0.5749(6) 0.917(2) 0.6432(11)
H22_4 H 0.5487 0.9670 0.6377
C23_4 C 0.6154(7) 0.9774(18) 0.6442(12)
C24_4 C 0.6526(6) 0.781(2) 0.6588(9)
H24_4 H 0.6792 0.7336 0.6633
C25_4 C 0.6140(7) 0.711(2) 0.6577(9)
H25_4 H 0.6150 0.6193 0.6615
C26_4 C 0.5743(6) 0.7789(19) 0.6507(9)
C27_4 C 0.5318(6) 0.7142(19) 0.6538(8)
C28_4 C 0.5344(6) 0.572(2) 0.6753(9)
H26_4 H 0.5434 0.5186 0.6432
H27_4 H 0.5567 0.5618 0.7216
H28_4 H 0.5047 0.5431 0.6748
C29_4 C 0.4246(16) 0.948(4) 0.627(4)
H29_4 H 0.4516 0.9888 0.6601
H30_4 H 0.4243 0.9605 0.5807
H31_4 H 0.3975 0.9873 0.6316
C30_4 C 0.4252(8) 0.801(2) 0.6430(15)
C31_4 C 0.3822(6) 0.749(2) 0.6477(8)
C32_4 C 0.3475(7) 0.833(2) 0.6512(10)
H32_4 H 0.3509 0.9242 0.6507
C33_4 C 0.3067(9) 0.776(2) 0.6557(10)
H33_4 H 0.2827 0.8310 0.6556
C34_4 C 0.3347(7) 0.566(2) 0.6584(9)
H34_4 H 0.3308 0.4760 0.6631
C35_4 C 0.3754(6) 0.614(2) 0.6499(9)
H35_4 H 0.3974 0.5554 0.6457
N12_4 N 0.4959(5) 0.7893(14) 0.6382(8)
N13_4 N 0.4565(5) 0.7259(17) 0.6442(9)
N21_4 N 0.1951(5) 0.8460(16) 0.7041(7)
O22_4 O 0.1801(5) 0.9571(15) 0.7089(7)
C8_4 C 0.9246(16) 0.448(4) 0.627(4)
H8_4 H 0.9516 0.4888 0.6601
H9_4 H 0.9243 0.4605 0.5807
H10_4 H 0.8975 0.4873 0.6316
C9_4 C 0.9252(8) 0.301(2) 0.6430(15)
C10_4 C 0.8822(6) 0.249(2) 0.6477(8)
C11_4 C 0.8475(7) 0.333(2) 0.6512(10)
H11_4 H 0.8509 0.4242 0.6507
C12_4 C 0.8067(9) 0.276(2) 0.6557(10)
H12_4 H 0.7827 0.3310 0.6556
C13_4 C 0.8347(7) 0.066(2) 0.6584(9)
C14_4 C 0.8754(6) 0.114(2) 0.6499(9)
H14_4 H 0.8974 0.0554 0.6457
N2_4 N 0.9959(5) 0.2893(14) 0.6382(8)
N3_4 N 0.9565(5) 0.2259(17) 0.6442(9)
H13_4 H 0.8308 0.9760 0.6631
C38_4 C 0.1755(6) 0.001(2) 0.0159(8)
H38_4 H 0.2038 0.0450 0.0325
C39_4 C 0.1376(6) 0.067(2) 0.0223(8)
H39_4 H 0.1400 0.1528 0.0391
C41_4 C 0.0535(7) 0.053(3) 0.0110(9)
C42_4 C 0.0558(7) 0.190(2) 0.0376(11)
H40_4 H 0.0794 0.1955 0.0831
H41_4 H 0.0629 0.2493 0.0062
H42_4 H 0.0266 0.2134 0.0407
C17_4 C 0.8245(6) 0.999(2) 0.9841(8)
H17_4 H 0.7962 0.9550 0.9675
C18_4 C 0.8624(6) 0.933(2) 0.9777(8)
H18_4 H 0.8600 0.8472 0.9609
C20_4 C 0.9465(7) 0.947(3) 0.9890(9)
C21_4 C 0.9442(7) 0.810(2) 0.9624(11)
H19_4 H 0.9206 0.8045 0.9169
H20_4 H 0.9371 0.7507 0.9938
H21_4 H 0.9734 0.7866 0.9593
loop_
_geom_bond_atom_site_label_1
_geom_bond_atom_site_label_2
_geom_bond_site_symmetry_1
_geom_bond_site_symmetry_2
N15 Pb3 1_555 1_555
N19 O10 1_555 1_555
O10 Pb3 1_555 1_555
O15 Pb3 1_555 1_555
O21 Pb3 1_555 1_555
C1 H1 1_555 1_555
C2 C1 1_555 1_555
H2 C2 1_555 1_555
C3 H3 1_555 1_555
C4 C3 1_555 1_555
H4 C4 1_555 1_555
C5 C1 1_555 1_555
C6 C5 1_555 1_555
C7 C6 1_555 1_555
H5 C7 1_555 1_555
H6 C7 1_555 1_555
H7 C7 1_555 1_555
C15 H15 1_555 1_555
C16 C15 1_555 1_555
H16 C16 1_555 1_555
N1 C2 1_555 1_555
N5 C16 1_555 1_555
N7 O1 1_555 1_555
N8 O4 1_555 1_555
N9 O7 1_555 1_555
O1 Pb1 1_555 1_555
O2 N7 1_555 1_555
O4 Pb5 1_555 1_555
O5 N8 1_555 1_555
O6 N8 1_555 1_555
O7 Pb1 1_555 1_555
O8 N9 1_555 1_555
O9 N9 1_555 1_555
Pb1 N1 1_555 1_555
Pb2 N5 1_555 1_555
C22 H22 1_555 1_555
C23 C22 1_555 1_555
C24 H24 1_555 1_555
C25 C24 1_555 1_555
H25 C25 1_555 1_555
C26 C22 1_555 1_555
C27 C26 1_555 1_555
C28 C27 1_555 1_555
H26 C28 1_555 1_555
H27 C28 1_555 1_555
H28 C28 1_555 1_555
C29 H29 1_555 1_555
H30 C29 1_555 1_555
H31 C29 1_555 1_555
C30 C29 1_555 1_555
C31 C30 1_555 1_555
C32 C31 1_555 1_555
H32 C32 1_555 1_555
C33 C32 1_555 1_555
H33 C33 1_555 1_555
C34 H34 1_555 1_555
C35 C31 1_555 1_555
H35 C35 1_555 1_555
C38 H38 1_555 1_555
C39 C38 1_555 1_555
H39 C39 1_555 1_555
C41 C40 1_555 1_555
C42 C41 1_555 1_555
H40 C42 1_555 1_555
H41 C42 1_555 1_555
H42 C42 1_555 1_555
N10 C23 1_555 1_555
N12 C27 1_555 1_555
N13 C30 1_555 1_555
N14 Pb1 1_555 1_555
N21 O18 1_555 1_555
O12 Pb2 1_555 1_555
O14 Pb1 1_555 1_555
O20 Pb1 1_555 1_555
O22 N21 1_555 1_555
Pb5 O8 1_555 1_555
C3 N1 1_555 1_555
C4 C5 1_555 1_555
O2 Pb1 1_555 1_555
O2 Pb2 1_555 1_555
O6 Pb2 1_555 1_555
C24 N10 1_555 1_555
C25 C26 1_555 1_555
C33 N14 1_555 1_555
C34 C35 1_555 1_555
C34 N14 1_555 1_555
C39 C40 1_555 1_555
N12 N13 1_555 1_555
N21 O20 1_555 1_555
C17 H17 1_555 1_555
C18 C17 1_555 1_555
H18 C18 1_555 1_555
C20 C19 1_555 1_555
C21 C20 1_555 1_555
H19 C21 1_555 1_555
H20 C21 1_555 1_555
H21 C21 1_555 1_555
C36 H36 1_555 1_555
C37 C36 1_555 1_555
H37 C37 1_555 1_555
N16 C37 1_555 1_555
N17 Pb2_2 1_555 1_555
N20 O13 1_555 1_555
O11 Pb2_2 1_555 1_555
O13 Pb6 1_555 1_555
O16 N20 1_555 1_555
O17 Pb2_2 1_555 1_555
Pb9_2 N16 1_555 1_555
C18 C19 1_555 1_555
O3 Pb2_2 1_555 1_555
N20 O17 1_555 1_555
C8 H8 1_555 1_555
H9 C8 1_555 1_555
H10 C8 1_555 1_555
C9 C8 1_555 1_555
C10 C9 1_555 1_555
C11 C10 1_555 1_555
H11 C11 1_555 1_555
C12 C11 1_555 1_555
H12 C12 1_555 1_555
C14 C10 1_555 1_555
H14 C14 1_555 1_555
N3 C9 1_555 1_555
N4 C12 1_555 1_555
Pb7 N4 1_555 1_555
C13 C14 1_555 1_555
C13 N4 1_555 1_555
N2 N3 1_555 1_555
C8_2 H8_2 1_555 1_555
H9_2 C8_2 1_555 1_555
H10_2 C8_2 1_555 1_555
C9_2 C8_2 1_555 1_555
C10_2 C9_2 1_555 1_555
C11_2 C10_2 1_555 1_555
H11_2 C11_2 1_555 1_555
C12_2 C11_2 1_555 1_555
H12_2 C12_2 1_555 1_555
C14_2 C10_2 1_555 1_555
H14_2 C14_2 1_555 1_555
N3_2 C9_2 1_555 1_555
N4_2 C12_2 1_555 1_555
Pb5 N4_2 1_555 1_555
C13_2 C14_2 1_555 1_555
C13_2 N4_2 1_555 1_555
N2_2 N3_2 1_555 1_555
N15_2 Pb3_2 1_555 1_555
N19_2 O10_2 1_555 1_555
O10_2 Pb3_2 1_555 1_555
O15_2 Pb3_2 1_555 1_555
O21_2 Pb3_2 1_555 1_555
C1_2 H1_2 1_555 1_555
C2_2 C1_2 1_555 1_555
H2_2 C2_2 1_555 1_555
C3_2 H3_2 1_555 1_555
C4_2 C3_2 1_555 1_555
H4_2 C4_2 1_555 1_555
C5_2 C1_2 1_555 1_555
C6_2 C5_2 1_555 1_555
C7_2 C6_2 1_555 1_555
H5_2 C7_2 1_555 1_555
H6_2 C7_2 1_555 1_555
H7_2 C7_2 1_555 1_555
C15_2 H15_2 1_555 1_555
C16_2 C15_2 1_555 1_555
H16_2 C16_2 1_555 1_555
C17_2 H17_2 1_555 1_555
C18_2 C17_2 1_555 1_555
H18_2 C18_2 1_555 1_555
C19_2 C15_2 1_555 1_555
C20_2 C19_2 1_555 1_555
C21_2 C20_2 1_555 1_555
H19_2 C21_2 1_555 1_555
H20_2 C21_2 1_555 1_555
H21_2 C21_2 1_555 1_555
N1_2 C2_2 1_555 1_555
N5_2 C16_2 1_555 1_555
N6_2 C20_2 1_555 1_555
N7_2 O1_2 1_555 1_555
N8_2 O4_2 1_555 1_555
N9_2 O7_2 1_555 1_555
O1_2 Pb1_2 1_555 1_555
O2_2 N7_2 1_555 1_555
O3_2 N7_2 1_555 1_555
O4_2 Pb7 1_555 1_555
O5_2 N8_2 1_555 1_555
O6_2 N8_2 1_555 1_555
O7_2 Pb1_2 1_555 1_555
O8_2 N9_2 1_555 1_555
O9_2 N9_2 1_555 1_555
Pb1_2 N1_2 1_555 1_555
Pb2_3 N5_2 1_555 1_555
C22_2 H22_2 1_555 1_555
C23_2 C22_2 1_555 1_555
C24_2 H24_2 1_555 1_555
C25_2 C24_2 1_555 1_555
H25_2 C25_2 1_555 1_555
C26_2 C22_2 1_555 1_555
C27_2 C26_2 1_555 1_555
C28_2 C27_2 1_555 1_555
H26_2 C28_2 1_555 1_555
H27_2 C28_2 1_555 1_555
H28_2 C28_2 1_555 1_555
C29_2 H29_2 1_555 1_555
H30_2 C29_2 1_555 1_555
H31_2 C29_2 1_555 1_555
C30_2 C29_2 1_555 1_555
C31_2 C30_2 1_555 1_555
C32_2 C31_2 1_555 1_555
H32_2 C32_2 1_555 1_555
C33_2 C32_2 1_555 1_555
H33_2 C33_2 1_555 1_555
C34_2 H34_2 1_555 1_555
C35_2 C31_2 1_555 1_555
H35_2 C35_2 1_555 1_555
C36_2 H36_2 1_555 1_555
C37_2 C36_2 1_555 1_555
H37_2 C37_2 1_555 1_555
C38_2 H38_2 1_555 1_555
C39_2 C38_2 1_555 1_555
H39_2 C39_2 1_555 1_555
C40_2 C36_2 1_555 1_555
C41_2 C40_2 1_555 1_555
C42_2 C41_2 1_555 1_555
H40_2 C42_2 1_555 1_555
H41_2 C42_2 1_555 1_555
H42_2 C42_2 1_555 1_555
N10_2 C23_2 1_555 1_555
N12_2 C27_2 1_555 1_555
N13_2 C30_2 1_555 1_555
N14_2 Pb1_2 1_555 1_555
N16_2 C37_2 1_555 1_555
N17_2 Pb2_3 1_555 1_555
N18_2 N6_2 1_555 1_555
N20_2 O13_2 1_555 1_555
N21_2 O18_2 1_555 1_555
O11_2 Pb2_3 1_555 1_555
O12_2 Pb2_3 1_555 1_555
O13_2 Pb6_2 1_555 1_555
O14_2 Pb1_2 1_555 1_555
O16_2 N20_2 1_555 1_555
O17_2 Pb2_3 1_555 1_555
O20_2 Pb1_2 1_555 1_555
O22_2 N21_2 1_555 1_555
Pb7 O8_2 1_555 1_555
Pb9_3 N16_2 1_555 1_555
C3_2 N1_2 1_555 1_555
C4_2 C5_2 1_555 1_555
C17_2 N5_2 1_555 1_555
C18_2 C19_2 1_555 1_555
O2_2 Pb1_2 1_555 1_555
O2_2 Pb2_3 1_555 1_555
O3_2 Pb2_3 1_555 1_555
O6_2 Pb2_3 1_555 1_555
C24_2 N10_2 1_555 1_555
C25_2 C26_2 1_555 1_555
C33_2 N14_2 1_555 1_555
C34_2 C35_2 1_555 1_555
C34_2 N14_2 1_555 1_555
C38_2 N16_2 1_555 1_555
C39_2 C40_2 1_555 1_555
C41_2 N18_2 1_555 1_555
N12_2 N13_2 1_555 1_555
N20_2 O17_2 1_555 1_555
N21_2 O20_2 1_555 1_555
C36_3 H36_3 1_555 1_555
C37_3 C36_3 1_555 1_555
H37_3 C37_3 1_555 1_555
N17 C37_3 1_555 1_555
C15_3 H15_3 1_555 1_555
C16_3 C15_3 1_555 1_555
H16_3 C16_3 1_555 1_555
N5_3 C16_3 1_555 1_555
N8_3 O14_2 1_555 1_555
O5_3 N8_3 1_555 1_555
O6_3 N8_3 1_555 1_555
Pb9 N5_3 1_555 1_555
O12_3 Pb9 1_555 1_555
O2_3 Pb9 1_555 1_555
O6_3 Pb9 1_555 1_555
N11_3 Pb6_2 1_555 1_555
N15_3 Pb6_2 1_555 1_555
N19_3 O10_3 1_555 1_555
N20_3 O15_2 1_555 1_555
O10_3 Pb6_2 1_555 1_555
O11_3 Pb9_2 1_555 1_555
O16_3 N20_3 1_555 1_555
O17_3 Pb9_2 1_555 1_555
O19_3 Pb6_2 1_555 1_555
O21_3 Pb6_2 1_555 1_555
Pb6_2 O11_3 1_555 1_555
O3_3 Pb9_2 1_555 1_555
N19_3 O11_3 1_555 1_555
N20_3 O17_3 1_555 1_555
N7_3 O1_3 1_555 1_555
O1_3 Pb7 1_555 1_555
C15_4 H15_4 1_555 1_555
C16_4 C15_4 1_555 1_555
H16_4 C16_4 1_555 1_555
C19_4 C15_4 1_555 1_555
N5_4 C16_4 1_555 1_555
N8_4 O14 1_555 1_555
O5_4 N8_4 1_555 1_555
O6_4 N8_4 1_555 1_555
Pb9_3 N5_4 1_555 1_555
N11_4 Pb6 1_555 1_555
N15_4 Pb6 1_555 1_555
N19_4 O10_4 1_555 1_555
N20_4 O15 1_555 1_555
O10_4 Pb6 1_555 1_555
O11_4 Pb9_3 1_555 1_555
O12_4 Pb9_3 1_555 1_555
O16_4 N20_4 1_555 1_555
O17_4 Pb9_3 1_555 1_555
O19_4 Pb6 1_555 1_555
O21_4 Pb6 1_555 1_555
Pb6 O11_4 1_555 1_555
O2_4 Pb9_3 1_555 1_555
O3_4 Pb9_3 1_555 1_555
O6_4 Pb9_3 1_555 1_555
N19_4 O11_4 1_555 1_555
N19_4 O12_4 1_555 1_555
N20_4 O17_4 1_555 1_555
C17_3 H17_3 1_555 1_555
C18_3 C17_3 1_555 1_555
H18_3 C18_3 1_555 1_555
C21_3 C20_3 1_555 1_555
H19_3 C21_3 1_555 1_555
H20_3 C21_3 1_555 1_555
H21_3 C21_3 1_555 1_555
N7_4 O1_4 1_555 1_555
O1_4 Pb5 1_555 1_555
C38_3 H38_3 1_555 1_555
C39_3 C38_3 1_555 1_555
H39_3 C39_3 1_555 1_555
C42_3 C41_3 1_555 1_555
H40_3 C42_3 1_555 1_555
H41_3 C42_3 1_555 1_555
H42_3 C42_3 1_555 1_555
C36_4 H36_4 1_555 1_555
C37_4 C36_4 1_555 1_555
H37_4 C37_4 1_555 1_555
C40_4 C36_4 1_555 1_555
N17_2 C37_4 1_555 1_555
C8_3 H8_3 1_555 1_555
H9_3 C8_3 1_555 1_555
H10_3 C8_3 1_555 1_555
C9_3 C8_3 1_555 1_555
C10_3 C9_3 1_555 1_555
C11_3 C10_3 1_555 1_555
H11_3 C11_3 1_555 1_555
C12_3 C11_3 1_555 1_555
H12_3 C12_3 1_555 1_555
C14_3 C10_3 1_555 1_555
H14_3 C14_3 1_555 1_555
N3_3 C9_3 1_555 1_555
N15 C12_3 1_555 1_555
C13_3 C14_3 1_555 1_555
C13_3 N15 1_555 1_555
N2_3 N3_3 1_555 1_555
C1_3 H1_3 1_555 1_555
C2_3 C1_3 1_555 1_555
H2_3 C2_3 1_555 1_555
C3_3 H3_3 1_555 1_555
C4_3 C3_3 1_555 1_555
H4_3 C4_3 1_555 1_555
C5_3 C1_3 1_555 1_555
C6_3 C5_3 1_555 1_555
C7_3 C6_3 1_555 1_555
H5_3 C7_3 1_555 1_555
H6_3 C7_3 1_555 1_555
H7_3 C7_3 1_555 1_555
N11_3 C2_3 1_555 1_555
N9_3 O19_3 1_555 1_555
O21_2 N9_3 1_555 1_555
O9_3 N9_3 1_555 1_555
C22_3 H22_3 1_555 1_555
C23_3 C22_3 1_555 1_555
C24_3 H24_3 1_555 1_555
C25_3 C24_3 1_555 1_555
H25_3 C25_3 1_555 1_555
C26_3 C22_3 1_555 1_555
C27_3 C26_3 1_555 1_555
C28_3 C27_3 1_555 1_555
H26_3 C28_3 1_555 1_555
H27_3 C28_3 1_555 1_555
H28_3 C28_3 1_555 1_555
C29_3 H29_3 1_555 1_555
H30_3 C29_3 1_555 1_555
H31_3 C29_3 1_555 1_555
C30_3 C29_3 1_555 1_555
C31_3 C30_3 1_555 1_555
C32_3 C31_3 1_555 1_555
H32_3 C32_3 1_555 1_555
C33_3 C32_3 1_555 1_555
H33_3 C33_3 1_555 1_555
C34_3 H34_3 1_555 1_555
C35_3 C31_3 1_555 1_555
H35_3 C35_3 1_555 1_555
N11 C23_3 1_555 1_555
N12_3 C27_3 1_555 1_555
N13_3 C30_3 1_555 1_555
N21_3 O19_2 1_555 1_555
O22_3 N21_3 1_555 1_555
C3_3 N11_3 1_555 1_555
C4_3 C5_3 1_555 1_555
C24_3 N11 1_555 1_555
C25_3 C26_3 1_555 1_555
C33_3 N15_3 1_555 1_555
C34_3 C35_3 1_555 1_555
C34_3 N15_3 1_555 1_555
N12_3 N13_3 1_555 1_555
N21_3 O21_3 1_555 1_555
C1_4 H1_4 1_555 1_555
C2_4 C1_4 1_555 1_555
H2_4 C2_4 1_555 1_555
C3_4 H3_4 1_555 1_555
C4_4 C3_4 1_555 1_555
H4_4 C4_4 1_555 1_555
C5_4 C1_4 1_555 1_555
C6_4 C5_4 1_555 1_555
C7_4 C6_4 1_555 1_555
H5_4 C7_4 1_555 1_555
H6_4 C7_4 1_555 1_555
H7_4 C7_4 1_555 1_555
N11_4 C2_4 1_555 1_555
N9_4 O19_4 1_555 1_555
O21 N9_4 1_555 1_555
O9_4 N9_4 1_555 1_555
C22_4 H22_4 1_555 1_555
C23_4 C22_4 1_555 1_555
C24_4 H24_4 1_555 1_555
C25_4 C24_4 1_555 1_555
H25_4 C25_4 1_555 1_555
C26_4 C22_4 1_555 1_555
C27_4 C26_4 1_555 1_555
C28_4 C27_4 1_555 1_555
H26_4 C28_4 1_555 1_555
H27_4 C28_4 1_555 1_555
H28_4 C28_4 1_555 1_555
C29_4 H29_4 1_555 1_555
H30_4 C29_4 1_555 1_555
H31_4 C29_4 1_555 1_555
C30_4 C29_4 1_555 1_555
C31_4 C30_4 1_555 1_555
C32_4 C31_4 1_555 1_555
H32_4 C32_4 1_555 1_555
C33_4 C32_4 1_555 1_555
H33_4 C33_4 1_555 1_555
C34_4 H34_4 1_555 1_555
C35_4 C31_4 1_555 1_555
H35_4 C35_4 1_555 1_555
N11_2 C23_4 1_555 1_555
N12_4 C27_4 1_555 1_555
N13_4 C30_4 1_555 1_555
N21_4 O19 1_555 1_555
O22_4 N21_4 1_555 1_555
C3_4 N11_4 1_555 1_555
C4_4 C5_4 1_555 1_555
C24_4 N11_2 1_555 1_555
C25_4 C26_4 1_555 1_555
C33_4 N15_4 1_555 1_555
C34_4 C35_4 1_555 1_555
C34_4 N15_4 1_555 1_555
N12_4 N13_4 1_555 1_555
N21_4 O21_4 1_555 1_555
C8_4 H8_4 1_555 1_555
H9_4 C8_4 1_555 1_555
H10_4 C8_4 1_555 1_555
C9_4 C8_4 1_555 1_555
C10_4 C9_4 1_555 1_555
C11_4 C10_4 1_555 1_555
H11_4 C11_4 1_555 1_555
C12_4 C11_4 1_555 1_555
H12_4 C12_4 1_555 1_555
C14_4 C10_4 1_555 1_555
H14_4 C14_4 1_555 1_555
N3_4 C9_4 1_555 1_555
N15_2 C12_4 1_555 1_555
C13_4 C14_4 1_555 1_555
C13_4 N15_2 1_555 1_555
N2_4 N3_4 1_555 1_555
C38_4 H38_4 1_555 1_555
C39_4 C38_4 1_555 1_555
H39_4 C39_4 1_555 1_555
C42_4 C41_4 1_555 1_555
H40_4 C42_4 1_555 1_555
H41_4 C42_4 1_555 1_555
H42_4 C42_4 1_555 1_555
C17_4 H17_4 1_555 1_555
C18_4 C17_4 1_555 1_555
H18_4 C18_4 1_555 1_555
C21_4 C20_4 1_555 1_555
H19_4 C21_4 1_555 1_555
H20_4 C21_4 1_555 1_555
H21_4 C21_4 1_555 1_555

#END
