
###############################################################################
#
# This file contains modified crystal structure data generated from the
# MOF subset of the Cambridge Structural Database (CSD) v543 
# hosted by the Cambridge Crystallographic Data Centre (CCDC).
#
# This work is licensed under the Creative Commons
# Attribution-NonCommercial-ShareAlike 4.0 International License.
# To view a copy of this license, visit
# http://creativecommons.org/licenses/by-nc-sa/4.0/
# or send a letter to
# Creative Commons, PO Box 1866, Mountain View, CA 94042, USA.
#
# CIF created using the CSD Python API on 29 September 2022
# The structure has been converted into the P1 space group
# The structure has a 3D framework
# The original CSD entry REHHET is in the monoclinic crystal system
# The framework has been calculated to contain at least 10.0% void space
# The void calculation uses a probe of radius 1.32A, grid spacing 0.4
# H atom positions have been added when not included in the experimental data
#
###############################################################################

data_REHHET
_chemical_formula_moiety         '(C328 H296 Cd24 N40 O118)n'
_symmetry_cell_setting           triclinic
_symmetry_space_group_name_H-M   'P 1'
_symmetry_Int_Tables_number      1
_space_group_name_Hall           'P 1'
loop_
_symmetry_equiv_pos_site_id
_symmetry_equiv_pos_as_xyz
1 x,y,z
_cell_length_a                   34.628(2)
_cell_length_b                   18.2216(6)
_cell_length_c                   23.1357(18)
_cell_angle_alpha                90
_cell_angle_beta                 118.404(9)
_cell_angle_gamma                90
_cell_volume                     12840.7
loop_
_atom_site_label
_atom_site_type_symbol
_atom_site_fract_x
_atom_site_fract_y
_atom_site_fract_z
C17 C 0.0959(4) 0.9125(9) 0.0638(9)
C18 C 0.0480(4) 0.9025(6) 0.0150(6)
C19 C 0.0230(5) 0.8447(10) 0.0246(9)
H8 H 0.0362 0.8151 0.0617
O7 O 0.1192(2) 0.9559(4) 0.0592(5)
O8 O 0.1101(3) 0.8749(7) 0.1197(6)
Cd7 Cd 0.17860(2) 0.88197(4) 0.17600(4)
Cd11 Cd 0.17738(2) 0.94934(4) 0.03658(4)
Cd1 Cd 0.709997(18) 0.10581(3) 0.80913(3)
Cd2 Cd 0.32140(2) 0.38197(4) 0.32400(4)
Cd3 Cd 0.32262(2) 0.44934(4) 0.46342(4)
C1 C 0.6211(6) 0.1091(10) 0.7459(8)
C2 C 0.5713(7) 0.1046(12) 0.7178(10)
C3 C 0.5506(7) 0.1615(13) 0.6811(11)
H1 H 0.5678 0.2005 0.6807
C4 C 0.5066(8) 0.1684(16) 0.6439(12)
H2 H 0.4937 0.2101 0.6189
C5 C 0.4810(6) 0.1064(10) 0.6458(9)
C6 C 0.5014(6) 0.0506(11) 0.6820(9)
H3 H 0.4853 0.0105 0.6836
C7 C 0.5464(6) 0.0491(14) 0.7181(10)
H4 H 0.5599 0.0080 0.7436
C8 C 0.4330(6) 0.1126(10) 0.6116(10)
C9 C 0.2854(2) 0.2910(4) 0.4104(4)
C10 C 0.3028(2) 0.2311(4) 0.4610(4)
C11 C 0.3478(2) 0.2202(4) 0.4991(4)
H5 H 0.3669 0.2493 0.4911
C12 C 0.3652(3) 0.1688(5) 0.5477(5)
C13 C 0.3358(3) 0.1276(4) 0.5612(4)
H6 H 0.3465 0.0942 0.5958
C14 C 0.2910(3) 0.1373(4) 0.5227(4)
C15 C 0.2744(2) 0.1879(4) 0.4734(4)
H7 H 0.2441 0.1935 0.4482
C16 C 0.2605(3) 0.0920(5) 0.5393(6)
C33 C 0.2779(4) 0.4734(11) 0.2031(11)
C34 C 0.2128(6) 0.5562(15) 0.1306(10)
H15 H 0.2084 0.6038 0.1106
H16 H 0.2004 0.5553 0.1598
H17 H 0.1988 0.5197 0.0970
C35 C 0.2958(7) 0.5838(14) 0.1707(11)
H18 H 0.2849 0.6288 0.1469
H19 H 0.3107 0.5564 0.1518
H20 H 0.3160 0.5947 0.2159
C36 C 0.3684(4) 0.3648(7) 0.5916(5)
C37 C 0.4466(3) 0.3426(14) 0.6766(9)
H21 H 0.4630 0.3154 0.7165
H22 H 0.4533 0.3939 0.6850
H23 H 0.4545 0.3262 0.6441
C38 C 0.3866(5) 0.2815(8) 0.6887(7)
H24 H 0.4121 0.2637 0.7269
H25 H 0.3709 0.2409 0.6611
H26 H 0.3679 0.3071 0.7020
C39 C 0.3646(4) 0.5983(7) 0.5181(11)
C40 C 0.3243(9) 0.7129(16) 0.4899(18)
H27 H 0.3279 0.7650 0.4966
H28 H 0.3062 0.6947 0.5078
H29 H 0.3107 0.7024 0.4438
C41 C 0.4086(10) 0.706(2) 0.5734(19)
H30 H 0.4068 0.7587 0.5753
H31 H 0.4316 0.6933 0.5633
H32 H 0.4149 0.6856 0.6151
N1 N 0.4106(3) 0.1604(5) 0.5879(4)
N3 N 0.2595(6) 0.5409(9) 0.1672(10)
N4 N 0.4001(3) 0.3312(6) 0.6526(5)
N5 N 0.3671(7) 0.6776(7) 0.5228(10)
O1 O 0.6461(6) 0.1129(10) 0.7020(10)
O2 O 0.6352(5) 0.0436(9) 0.7822(8)
O3 O 0.24502(17) 0.2933(3) 0.3736(3)
O4 O 0.31396(19) 0.3358(3) 0.4110(3)
O5 O 0.2750(2) 0.0556(3) 0.5915(3)
O6 O 0.22069(19) 0.0954(3) 0.4977(4)
O10 O 0.78253(17) 0.0311(3) 0.8499(3)
O13 O 0.3159(3) 0.4573(5) 0.2463(5)
O14 O 0.3791(3) 0.4095(5) 0.5606(5)
O15 O 0.3283(3) 0.5668(4) 0.4884(5)
Cd4 Cd 0.209997(18) 0.39419(3) 0.30913(3)
Cd5 Cd 0.290003(18) 0.10581(3) 0.69087(3)
Cd8 Cd 0.82140(2) 0.11803(4) 0.82400(4)
Cd10 Cd 0.17738(2) 0.05066(4) 0.53658(4)
Cd12 Cd 0.82262(2) 0.05066(4) 0.96342(4)
O16 O 0.74502(17) 0.2067(3) 0.8736(3)
O17 O 0.7250(2) 0.0556(3) 0.9085(3)
O18 O 0.27931(19) 0.4046(3) 0.5023(4)
O19 O 0.3808(2) 0.4559(4) 0.4408(5)
O20 O 0.3899(3) 0.3749(7) 0.3803(6)
O21 O 0.28253(17) 0.4689(3) 0.3499(3)
O22 O 0.7393(2) 0.1533(3) 0.7444(3)
O23 O 0.2393(2) 0.3467(3) 0.2444(3)
O24 O 0.2971(2) 0.2776(3) 0.2719(4)
H33 H 0.254374 0.428648 0.190087
H34 H 0.394621 0.565879 0.54065
H35 H 0.333868 0.350617 0.571901
H37 H 0.415992 0.0613463 0.608695
C20 C 0.9815(5) 0.8336(10) 0.9809(13)
H9 H 0.9661 0.7941 0.9854
C21 C 0.9617(3) 0.8802(5) 0.9298(6)
C22 C 0.9849(4) 0.9363(8) 0.9216(7)
H10 H 0.9715 0.9674 0.8856
C24 C 0.9143(3) 0.8757(6) 0.8869(8)
C25 C 0.7575(3) 0.9794(4) 0.8140(4)
C26 C 0.7795(3) 0.9078(5) 0.8142(4)
C27 C 0.7527(3) 0.8467(4) 0.7842(4)
H12 H 0.7223 0.8514 0.7622
C28 C 0.7724(3) 0.7784(4) 0.7879(5)
C29 C 0.8184(3) 0.7721(5) 0.8193(5)
H13 H 0.8314 0.7269 0.8208
C30 C 0.8443(3) 0.8322(5) 0.8479(5)
C31 C 0.8241(3) 0.9004(5) 0.8442(5)
H14 H 0.8416 0.9414 0.8627
C32 C 0.7437(3) 0.7126(4) 0.7556(5)
N2 N 0.8889(4) 0.8246(6) 0.8884(7)
O9 O 0.71806(17) 0.9878(3) 0.7794(3)
O11 O 0.7607(2) 0.6533(3) 0.7556(3)
O12 O 0.7029(2) 0.7224(3) 0.7281(4)
Cd6 Cd 0.790003(18) 0.60581(3) 0.69087(3)
Cd9 Cd 0.67860(2) 0.61803(4) 0.67600(4)
H36 H 0.899096 0.91906 0.850605
Cd2_2 Cd 0.67860(2) 0.38197(4) 0.17600(4)
Cd3_2 Cd 0.67738(2) 0.44934(4) 0.03658(4)
C9_2 C 0.7146(2) 0.2910(4) 0.0896(4)
C10_2 C 0.6972(2) 0.2311(4) 0.0390(4)
C11_2 C 0.6522(2) 0.2202(4) 0.0009(4)
H5_2 H 0.6331 0.2493 0.0089
C15_2 C 0.7256(2) 0.1879(4) 0.0266(4)
H7_2 H 0.7559 0.1935 0.0518
C33_2 C 0.7221(4) 0.4734(11) 0.2969(11)
C34_2 C 0.7872(6) 0.5562(15) 0.3694(10)
H15_2 H 0.7916 0.6038 0.3894
H16_2 H 0.7996 0.5553 0.3402
H17_2 H 0.8012 0.5197 0.4030
C35_2 C 0.7042(7) 0.5838(14) 0.3293(11)
H18_2 H 0.7151 0.6288 0.3531
H19_2 H 0.6893 0.5564 0.3482
H20_2 H 0.6840 0.5947 0.2841
C40_2 C 0.6757(9) 0.7129(16) 0.0101(18)
H27_2 H 0.6721 0.7650 0.0034
H29_2 H 0.6893 0.7024 0.0562
N3_2 N 0.7405(6) 0.5409(9) 0.3328(10)
O3_2 O 0.75498(17) 0.2933(3) 0.1264(3)
O4_2 O 0.68604(19) 0.3358(3) 0.0890(3)
O6_2 O 0.77931(19) 0.0954(3) 0.0023(4)
O13_2 O 0.6841(3) 0.4573(5) 0.2537(5)
O15_2 O 0.6717(3) 0.5668(4) 0.0116(5)
Cd4_2 Cd 0.790003(18) 0.39419(3) 0.19087(3)
O19_2 O 0.6192(2) 0.4559(4) 0.0592(5)
O20_2 O 0.6101(3) 0.3749(7) 0.1197(6)
O21_2 O 0.71747(17) 0.4689(3) 0.1501(3)
O23_2 O 0.7607(2) 0.3467(3) 0.2556(3)
O24_2 O 0.7029(2) 0.2776(3) 0.2281(4)
H33_2 H 0.745626 0.428648 0.309913
C1_2 C 0.3789(6) 0.1091(10) 0.7541(8)
C2_2 C 0.4287(7) 0.1046(12) 0.7822(10)
C3_2 C 0.4494(7) 0.1615(13) 0.8189(11)
H1_2 H 0.4322 0.2005 0.8193
C4_2 C 0.4934(8) 0.1684(16) 0.8561(12)
H2_2 H 0.5063 0.2101 0.8811
C5_2 C 0.5190(6) 0.1064(10) 0.8542(9)
C6_2 C 0.4986(6) 0.0506(11) 0.8180(9)
H3_2 H 0.5147 0.0105 0.8164
C7_2 C 0.4536(6) 0.0491(14) 0.7819(10)
H4_2 H 0.4401 0.0080 0.7564
C8_2 C 0.5670(6) 0.1126(10) 0.8884(10)
C12_2 C 0.6348(3) 0.1688(5) 0.9523(5)
C13_2 C 0.6642(3) 0.1276(4) 0.9388(4)
H6_2 H 0.6535 0.0942 0.9042
C14_2 C 0.7090(3) 0.1373(4) 0.9773(4)
C16_2 C 0.7395(3) 0.0920(5) 0.9607(6)
C36_2 C 0.6316(4) 0.3648(7) 0.9084(5)
C37_2 C 0.5534(3) 0.3426(14) 0.8234(9)
H21_2 H 0.5370 0.3154 0.7835
H22_2 H 0.5467 0.3939 0.8150
H23_2 H 0.5455 0.3262 0.8559
C38_2 C 0.6134(5) 0.2815(8) 0.8113(7)
H24_2 H 0.5879 0.2637 0.7731
H25_2 H 0.6291 0.2409 0.8389
H26_2 H 0.6321 0.3071 0.7980
C39_2 C 0.6354(4) 0.5983(7) 0.9819(11)
H28_2 H 0.6938 0.6947 0.9922
C41_2 C 0.5914(10) 0.706(2) 0.9266(19)
H30_2 H 0.5932 0.7587 0.9247
H31_2 H 0.5684 0.6933 0.9367
H32_2 H 0.5851 0.6856 0.8849
N1_2 N 0.5894(3) 0.1604(5) 0.9121(4)
N4_2 N 0.5999(3) 0.3312(6) 0.8474(5)
N5_2 N 0.6329(7) 0.6776(7) 0.9772(10)
O1_2 O 0.3539(6) 0.1129(10) 0.7980(10)
O2_2 O 0.3648(5) 0.0436(9) 0.7178(8)
O10_2 O 0.21747(17) 0.0311(3) 0.6501(3)
O14_2 O 0.6209(3) 0.4095(5) 0.9394(5)
Cd8_2 Cd 0.17860(2) 0.11803(4) 0.67600(4)
O16_2 O 0.25498(17) 0.2067(3) 0.6264(3)
O18_2 O 0.72069(19) 0.4046(3) 0.9977(4)
O22_2 O 0.2607(2) 0.1533(3) 0.7556(3)
H34_2 H 0.605379 0.565879 0.95935
H35_2 H 0.666132 0.350617 0.928099
H37_2 H 0.584008 0.0613463 0.891305
C20_2 C 0.0185(5) 0.8336(10) 0.5191(13)
H9_2 H 0.0339 0.7941 0.5146
C21_2 C 0.0383(3) 0.8802(5) 0.5702(6)
C22_2 C 0.0151(4) 0.9363(8) 0.5784(7)
H10_2 H 0.0285 0.9674 0.6144
C24_2 C 0.0857(3) 0.8757(6) 0.6131(8)
C25_2 C 0.2425(3) 0.9794(4) 0.6860(4)
C26_2 C 0.2205(3) 0.9078(5) 0.6858(4)
C27_2 C 0.2473(3) 0.8467(4) 0.7158(4)
H12_2 H 0.2777 0.8514 0.7378
C28_2 C 0.2276(3) 0.7784(4) 0.7121(5)
C29_2 C 0.1816(3) 0.7721(5) 0.6807(5)
H13_2 H 0.1686 0.7269 0.6792
C30_2 C 0.1557(3) 0.8322(5) 0.6521(5)
C31_2 C 0.1759(3) 0.9004(5) 0.6558(5)
H14_2 H 0.1584 0.9414 0.6373
C32_2 C 0.2563(3) 0.7126(4) 0.7444(5)
N2_2 N 0.1111(4) 0.8246(6) 0.6116(7)
O9_2 O 0.28194(17) 0.9878(3) 0.7206(3)
O11_2 O 0.2393(2) 0.6533(3) 0.7444(3)
O12_2 O 0.2971(2) 0.7224(3) 0.7719(4)
Cd6_2 Cd 0.209997(18) 0.60581(3) 0.80913(3)
Cd9_2 Cd 0.32140(2) 0.61803(4) 0.82400(4)
H36_2 H 0.100904 0.91906 0.649395
C17_2 C 0.9041(4) 0.9125(9) 0.4362(9)
C18_2 C 0.9520(4) 0.9025(6) 0.4850(6)
C19_2 C 0.9770(5) 0.8447(10) 0.4754(9)
H8_2 H 0.9638 0.8151 0.4383
C23 C 0.9731(4) 0.9459(7) 0.5343(8)
H11 H 0.9583 0.9859 0.5393
O7_2 O 0.8808(2) 0.9559(4) 0.4408(5)
O8_2 O 0.8899(3) 0.8749(7) 0.3803(6)
Cd7_2 Cd 0.82140(2) 0.88197(4) 0.32400(4)
Cd11_2 Cd 0.82262(2) 0.94934(4) 0.46342(4)
C17_3 C 0.5959(4) 0.4125(9) 0.0638(9)
C18_3 C 0.5480(4) 0.4025(6) 0.0150(6)
C19_3 C 0.5230(5) 0.3447(10) 0.0246(9)
H8_3 H 0.5362 0.3151 0.0617
C1_3 C 0.1211(6) 0.6091(10) 0.7459(8)
C2_3 C 0.0713(7) 0.6046(12) 0.7178(10)
C3_3 C 0.0506(7) 0.6615(13) 0.6811(11)
H1_3 H 0.0678 0.7005 0.6807
C4_3 C 0.0066(8) 0.6684(16) 0.6439(12)
C6_3 C 0.0014(6) 0.5506(11) 0.6820(9)
C7_3 C 0.0464(6) 0.5491(14) 0.7181(10)
H4_3 H 0.0599 0.5080 0.7436
C20_3 C 0.4815(5) 0.3336(10) 0.9809(13)
H9_3 H 0.4661 0.2941 0.9854
C21_3 C 0.4617(3) 0.3802(5) 0.9298(6)
C22_3 C 0.4849(4) 0.4363(8) 0.9216(7)
H10_3 H 0.4715 0.4674 0.8856
C23_2 C 0.5269(4) 0.4459(7) 0.9657(8)
H11_2 H 0.5417 0.4859 0.9607
C24_3 C 0.4143(3) 0.3757(6) 0.8869(8)
C25_3 C 0.2575(3) 0.4794(4) 0.8140(4)
C26_3 C 0.2795(3) 0.4078(5) 0.8142(4)
C27_3 C 0.2527(3) 0.3467(4) 0.7842(4)
H12_3 H 0.2223 0.3514 0.7622
C28_3 C 0.2724(3) 0.2784(4) 0.7879(5)
C29_3 C 0.3184(3) 0.2721(5) 0.8193(5)
H13_3 H 0.3314 0.2269 0.8208
C30_3 C 0.3443(3) 0.3322(5) 0.8479(5)
C31_3 C 0.3241(3) 0.4004(5) 0.8442(5)
H14_3 H 0.3416 0.4414 0.8627
C32_3 C 0.2437(3) 0.2126(4) 0.7556(5)
N2_3 N 0.3889(4) 0.3246(6) 0.8884(7)
O1_3 O 0.1461(6) 0.6129(10) 0.7020(10)
O2_3 O 0.1352(5) 0.5436(9) 0.7822(8)
O9_3 O 0.21806(17) 0.4878(3) 0.7794(3)
O10_3 O 0.28253(17) 0.5311(3) 0.8499(3)
O12_3 O 0.2029(2) 0.2224(3) 0.7281(4)
Cd12_2 Cd 0.32262(2) 0.55066(4) 0.96342(4)
O16_3 O 0.24502(17) 0.7067(3) 0.8736(3)
O17_2 O 0.2250(2) 0.5556(3) 0.9085(3)
H36_3 H 0.399096 0.41906 0.850605
H2_3 H 0.9937 0.7101 0.6189
C5_3 C 0.9810(6) 0.6064(10) 0.6458(9)
H3_3 H 0.9853 0.5105 0.6836
C8_3 C 0.9330(6) 0.6126(10) 0.6116(10)
C9_3 C 0.7854(2) 0.7910(4) 0.4104(4)
C10_3 C 0.8028(2) 0.7311(4) 0.4610(4)
C11_3 C 0.8478(2) 0.7202(4) 0.4991(4)
H5_3 H 0.8669 0.7493 0.4911
C12_3 C 0.8652(3) 0.6688(5) 0.5477(5)
C13_3 C 0.8358(3) 0.6276(4) 0.5612(4)
H6_3 H 0.8465 0.5942 0.5958
C14_3 C 0.7910(3) 0.6373(4) 0.5227(4)
C15_3 C 0.7744(2) 0.6879(4) 0.4734(4)
H7_3 H 0.7441 0.6935 0.4482
C16_3 C 0.7605(3) 0.5920(5) 0.5393(6)
C33_3 C 0.7779(4) 0.9734(11) 0.2031(11)
C36_3 C 0.8684(4) 0.8648(7) 0.5916(5)
C37_3 C 0.9466(3) 0.8426(14) 0.6766(9)
H21_3 H 0.9630 0.8154 0.7165
H22_3 H 0.9533 0.8939 0.6850
H23_3 H 0.9545 0.8262 0.6441
C38_3 C 0.8866(5) 0.7815(8) 0.6887(7)
H24_3 H 0.9121 0.7637 0.7269
H25_3 H 0.8709 0.7409 0.6611
H26_3 H 0.8679 0.8071 0.7020
N1_3 N 0.9106(3) 0.6604(5) 0.5879(4)
N4_3 N 0.9001(3) 0.8312(6) 0.6526(5)
O3_3 O 0.74502(17) 0.7933(3) 0.3736(3)
O4_3 O 0.81396(19) 0.8358(3) 0.4110(3)
O5_2 O 0.7750(2) 0.5556(3) 0.5915(3)
O6_3 O 0.72069(19) 0.5954(3) 0.4977(4)
O13_3 O 0.8159(3) 0.9573(5) 0.2463(5)
O14_3 O 0.8791(3) 0.9095(5) 0.5606(5)
Cd4_3 Cd 0.709997(18) 0.89419(3) 0.30913(3)
Cd10_2 Cd 0.67738(2) 0.55066(4) 0.53658(4)
O18_3 O 0.77931(19) 0.9046(3) 0.5023(4)
O21_3 O 0.78253(17) 0.9689(3) 0.3499(3)
O23_3 O 0.7393(2) 0.8467(3) 0.2444(3)
O24_3 O 0.7971(2) 0.7776(3) 0.2719(4)
H33_3 H 0.754374 0.928648 0.190087
H35_3 H 0.833868 0.850617 0.571901
H37_3 H 0.915992 0.561346 0.608695
C9_4 C 0.2146(2) 0.7910(4) 0.0896(4)
C10_4 C 0.1972(2) 0.7311(4) 0.0390(4)
C11_4 C 0.1522(2) 0.7202(4) 0.0009(4)
H5_4 H 0.1331 0.7493 0.0089
C15_4 C 0.2256(2) 0.6879(4) 0.0266(4)
H7_4 H 0.2559 0.6935 0.0518
C33_4 C 0.2221(4) 0.9734(11) 0.2969(11)
O3_4 O 0.25498(17) 0.7933(3) 0.1264(3)
O4_4 O 0.18604(19) 0.8358(3) 0.0890(3)
O6_4 O 0.27931(19) 0.5954(3) 0.0023(4)
O13_4 O 0.1841(3) 0.9573(5) 0.2537(5)
Cd4_4 Cd 0.290003(18) 0.89419(3) 0.19087(3)
O21_4 O 0.21747(17) 0.9689(3) 0.1501(3)
O23_4 O 0.2607(2) 0.8467(3) 0.2556(3)
O24_4 O 0.2029(2) 0.7776(3) 0.2281(4)
H33_4 H 0.245626 0.928648 0.309913
H2_4 H 0.0063 0.7101 0.8811
C5_4 C 0.0190(6) 0.6064(10) 0.8542(9)
H3_4 H 0.0147 0.5105 0.8164
C8_4 C 0.0670(6) 0.6126(10) 0.8884(10)
C12_4 C 0.1348(3) 0.6688(5) 0.9523(5)
C13_4 C 0.1642(3) 0.6276(4) 0.9388(4)
H6_4 H 0.1535 0.5942 0.9042
C14_4 C 0.2090(3) 0.6373(4) 0.9773(4)
C16_4 C 0.2395(3) 0.5920(5) 0.9607(6)
C36_4 C 0.1316(4) 0.8648(7) 0.9084(5)
C37_4 C 0.0534(3) 0.8426(14) 0.8234(9)
H21_4 H 0.0370 0.8154 0.7835
H22_4 H 0.0467 0.8939 0.8150
H23_4 H 0.0455 0.8262 0.8559
C38_4 C 0.1134(5) 0.7815(8) 0.8113(7)
H24_4 H 0.0879 0.7637 0.7731
H25_4 H 0.1291 0.7409 0.8389
H26_4 H 0.1321 0.8071 0.7980
N1_4 N 0.0894(3) 0.6604(5) 0.9121(4)
N4_4 N 0.0999(3) 0.8312(6) 0.8474(5)
O14_4 O 0.1209(3) 0.9095(5) 0.9394(5)
O18_4 O 0.22069(19) 0.9046(3) 0.9977(4)
H35_4 H 0.166132 0.850617 0.928099
H37_4 H 0.0840076 0.561346 0.891305
C1_4 C 0.8789(6) 0.6091(10) 0.7541(8)
C2_4 C 0.9287(7) 0.6046(12) 0.7822(10)
C3_4 C 0.9494(7) 0.6615(13) 0.8189(11)
H1_4 H 0.9322 0.7005 0.8193
C4_4 C 0.9934(8) 0.6684(16) 0.8561(12)
C6_4 C 0.9986(6) 0.5506(11) 0.8180(9)
C7_4 C 0.9536(6) 0.5491(14) 0.7819(10)
H4_4 H 0.9401 0.5080 0.7564
C17_4 C 0.4041(4) 0.4125(9) 0.4362(9)
C18_4 C 0.4520(4) 0.4025(6) 0.4850(6)
C19_4 C 0.4770(5) 0.3447(10) 0.4754(9)
H8_4 H 0.4638 0.3151 0.4383
C20_4 C 0.5185(5) 0.3336(10) 0.5191(13)
H9_4 H 0.5339 0.2941 0.5146
C21_4 C 0.5383(3) 0.3802(5) 0.5702(6)
C22_4 C 0.5151(4) 0.4363(8) 0.5784(7)
H10_4 H 0.5285 0.4674 0.6144
C23_3 C 0.4731(4) 0.4459(7) 0.5343(8)
H11_3 H 0.4583 0.4859 0.5393
C24_4 C 0.5857(3) 0.3757(6) 0.6131(8)
C25_4 C 0.7425(3) 0.4794(4) 0.6860(4)
C26_4 C 0.7205(3) 0.4078(5) 0.6858(4)
C27_4 C 0.7473(3) 0.3467(4) 0.7158(4)
H12_4 H 0.7777 0.3514 0.7378
C28_4 C 0.7276(3) 0.2784(4) 0.7121(5)
C29_4 C 0.6816(3) 0.2721(5) 0.6807(5)
H13_4 H 0.6686 0.2269 0.6792
C30_4 C 0.6557(3) 0.3322(5) 0.6521(5)
C31_4 C 0.6759(3) 0.4004(5) 0.6558(5)
H14_4 H 0.6584 0.4414 0.6373
C32_4 C 0.7563(3) 0.2126(4) 0.7444(5)
N2_4 N 0.6111(4) 0.3246(6) 0.6116(7)
O1_4 O 0.8539(6) 0.6129(10) 0.7980(10)
O2_4 O 0.8648(5) 0.5436(9) 0.7178(8)
O9_4 O 0.78194(17) 0.4878(3) 0.7206(3)
O10_4 O 0.71747(17) 0.5311(3) 0.6501(3)
O12_4 O 0.7971(2) 0.2224(3) 0.7719(4)
O16_4 O 0.75498(17) 0.7067(3) 0.6264(3)
H36_4 H 0.600904 0.41906 0.649395
C20_5 C 0.0185(5) 0.1664(10) 0.0191(13)
H9_5 H 0.0339 0.2059 0.0146
C21_5 C 0.0383(3) 0.1198(5) 0.0702(6)
C22_5 C 0.0151(4) 0.0637(8) 0.0784(7)
H10_5 H 0.0285 0.0326 0.1144
C24_5 C 0.0857(3) 0.1243(6) 0.1131(8)
C25_5 C 0.2425(3) 0.0206(4) 0.1860(4)
C26_5 C 0.2205(3) 0.0922(5) 0.1858(4)
C27_5 C 0.2473(3) 0.1533(4) 0.2158(4)
H12_5 H 0.2777 0.1486 0.2378
C28_5 C 0.2276(3) 0.2216(4) 0.2121(5)
C29_5 C 0.1816(3) 0.2279(5) 0.1807(5)
H13_5 H 0.1686 0.2731 0.1792
C30_5 C 0.1557(3) 0.1678(5) 0.1521(5)
C31_5 C 0.1759(3) 0.0996(5) 0.1558(5)
H14_5 H 0.1584 0.0586 0.1373
C32_5 C 0.2563(3) 0.2874(4) 0.2444(5)
N2_5 N 0.1111(4) 0.1754(6) 0.1116(7)
O9_5 O 0.28194(17) 0.0122(3) 0.2206(3)
H36_5 H 0.100904 0.0809402 0.149395
C1_5 C 0.3789(6) 0.8909(10) 0.2541(8)
C2_5 C 0.4287(7) 0.8954(12) 0.2822(10)
C3_5 C 0.4494(7) 0.8385(13) 0.3189(11)
H1_5 H 0.4322 0.7995 0.3193
C4_5 C 0.4934(8) 0.8316(16) 0.3561(12)
H2_5 H 0.5063 0.7899 0.3811
C5_5 C 0.5190(6) 0.8936(10) 0.3542(9)
C6_5 C 0.4986(6) 0.9494(11) 0.3180(9)
H3_5 H 0.5147 0.9895 0.3164
C7_5 C 0.4536(6) 0.9509(14) 0.2819(10)
H4_5 H 0.4401 0.9920 0.2564
C8_5 C 0.5670(6) 0.8874(10) 0.3884(10)
C9_5 C 0.7146(2) 0.7090(4) 0.5896(4)
C10_5 C 0.6972(2) 0.7689(4) 0.5390(4)
C11_5 C 0.6522(2) 0.7798(4) 0.5009(4)
H5_5 H 0.6331 0.7507 0.5089
C12_5 C 0.6348(3) 0.8312(5) 0.4523(5)
C13_5 C 0.6642(3) 0.8724(4) 0.4388(4)
H6_5 H 0.6535 0.9058 0.4042
C14_5 C 0.7090(3) 0.8627(4) 0.4773(4)
C15_5 C 0.7256(2) 0.8121(4) 0.5266(4)
H7_5 H 0.7559 0.8065 0.5518
C16_5 C 0.7395(3) 0.9080(5) 0.4607(6)
C33_5 C 0.7221(4) 0.5266(11) 0.7969(11)
C34_3 C 0.7872(6) 0.4438(15) 0.8694(10)
H15_3 H 0.7916 0.3962 0.8894
H16_3 H 0.7996 0.4447 0.8402
H17_3 H 0.8012 0.4803 0.9030
C35_3 C 0.7042(7) 0.4162(14) 0.8293(11)
H18_3 H 0.7151 0.3712 0.8531
H19_3 H 0.6893 0.4436 0.8482
H20_3 H 0.6840 0.4053 0.7841
C36_5 C 0.6316(4) 0.6352(7) 0.4084(5)
C37_5 C 0.5534(3) 0.6574(14) 0.3234(9)
H21_5 H 0.5370 0.6846 0.2835
H22_5 H 0.5467 0.6061 0.3150
H23_5 H 0.5455 0.6738 0.3559
C38_5 C 0.6134(5) 0.7185(8) 0.3113(7)
H24_5 H 0.5879 0.7363 0.2731
H25_5 H 0.6291 0.7591 0.3389
H26_5 H 0.6321 0.6929 0.2980
C39_3 C 0.6354(4) 0.4017(7) 0.4819(11)
C40_3 C 0.6757(9) 0.2871(16) 0.5101(18)
H27_3 H 0.6721 0.2350 0.5034
H28_3 H 0.6938 0.3053 0.4922
H29_3 H 0.6893 0.2976 0.5562
C41_3 C 0.5914(10) 0.294(2) 0.4266(19)
H30_3 H 0.5932 0.2413 0.4247
H31_3 H 0.5684 0.3067 0.4367
H32_3 H 0.5851 0.3144 0.3849
N1_5 N 0.5894(3) 0.8396(5) 0.4121(4)
N3_3 N 0.7405(6) 0.4591(9) 0.8328(10)
N4_5 N 0.5999(3) 0.6688(6) 0.3474(5)
N5_3 N 0.6329(7) 0.3224(7) 0.4772(10)
O1_5 O 0.3539(6) 0.8871(10) 0.2980(10)
O2_5 O 0.3648(5) 0.9564(9) 0.2178(8)
O4_5 O 0.68604(19) 0.6642(3) 0.5890(3)
O5_3 O 0.7250(2) 0.9444(3) 0.4085(3)
O13_5 O 0.6841(3) 0.5427(5) 0.7537(5)
O14_5 O 0.6209(3) 0.5905(5) 0.4394(5)
O15_3 O 0.6717(3) 0.4332(4) 0.5116(5)
O17_3 O 0.2750(2) 0.9444(3) 0.0915(3)
O19_3 O 0.6192(2) 0.5441(4) 0.5592(5)
O20_3 O 0.6101(3) 0.6251(7) 0.6197(6)
H33_5 H 0.745626 0.571352 0.809913
H34_3 H 0.605379 0.434121 0.45935
H35_5 H 0.666132 0.649383 0.428099
H37_5 H 0.584008 0.938654 0.391305
C17_5 C 0.9041(4) 0.0875(9) 0.9362(9)
C18_5 C 0.9520(4) 0.0975(6) 0.9850(6)
C19_5 C 0.9770(5) 0.1553(10) 0.9754(9)
H8_5 H 0.9638 0.1849 0.9383
O7_3 O 0.8808(2) 0.0441(4) 0.9408(5)
O8_3 O 0.8899(3) 0.1251(7) 0.8803(6)
C17_6 C 0.0959(4) 0.0875(9) 0.5638(9)
C18_6 C 0.0480(4) 0.0975(6) 0.5150(6)
C19_6 C 0.0230(5) 0.1553(10) 0.5246(9)
H8_6 H 0.0362 0.1849 0.5617
C23_4 C 0.0269(4) 0.0541(7) 0.4657(8)
H11_4 H 0.0417 0.0141 0.4607
O7_4 O 0.1192(2) 0.0441(4) 0.5592(5)
O8_4 O 0.1101(3) 0.1251(7) 0.6197(6)
C20_6 C 0.9815(5) 0.1664(10) 0.4809(13)
H9_6 H 0.9661 0.2059 0.4854
C21_6 C 0.9617(3) 0.1198(5) 0.4298(6)
C22_6 C 0.9849(4) 0.0637(8) 0.4216(7)
H10_6 H 0.9715 0.0326 0.3856
C24_6 C 0.9143(3) 0.1243(6) 0.3869(8)
C25_6 C 0.7575(3) 0.0206(4) 0.3140(4)
C26_6 C 0.7795(3) 0.0922(5) 0.3142(4)
C27_6 C 0.7527(3) 0.1533(4) 0.2842(4)
H12_6 H 0.7223 0.1486 0.2622
C28_6 C 0.7724(3) 0.2216(4) 0.2879(5)
C29_6 C 0.8184(3) 0.2279(5) 0.3193(5)
H13_6 H 0.8314 0.2731 0.3208
C30_6 C 0.8443(3) 0.1678(5) 0.3479(5)
C31_6 C 0.8241(3) 0.0996(5) 0.3442(5)
H14_6 H 0.8416 0.0586 0.3627
C32_6 C 0.7437(3) 0.2874(4) 0.2556(5)
N2_6 N 0.8889(4) 0.1754(6) 0.3884(7)
O9_6 O 0.71806(17) 0.0122(3) 0.2794(3)
H36_6 H 0.899096 0.0809402 0.350605
C1_6 C 0.6211(6) 0.8909(10) 0.2459(8)
C2_6 C 0.5713(7) 0.8954(12) 0.2178(10)
C3_6 C 0.5506(7) 0.8385(13) 0.1811(11)
H1_6 H 0.5678 0.7995 0.1807
C4_6 C 0.5066(8) 0.8316(16) 0.1439(12)
H2_6 H 0.4937 0.7899 0.1189
C5_6 C 0.4810(6) 0.8936(10) 0.1458(9)
C6_6 C 0.5014(6) 0.9494(11) 0.1820(9)
H3_6 H 0.4853 0.9895 0.1836
C7_6 C 0.5464(6) 0.9509(14) 0.2181(10)
H4_6 H 0.5599 0.9920 0.2436
C8_6 C 0.4330(6) 0.8874(10) 0.1116(10)
C12_6 C 0.3652(3) 0.8312(5) 0.0477(5)
C13_6 C 0.3358(3) 0.8724(4) 0.0612(4)
H6_6 H 0.3465 0.9058 0.0958
C14_6 C 0.2910(3) 0.8627(4) 0.0227(4)
C16_6 C 0.2605(3) 0.9080(5) 0.0393(6)
C36_6 C 0.3684(4) 0.6352(7) 0.0916(5)
C37_6 C 0.4466(3) 0.6574(14) 0.1766(9)
H21_6 H 0.4630 0.6846 0.2165
H22_6 H 0.4533 0.6061 0.1850
H23_6 H 0.4545 0.6738 0.1441
C38_6 C 0.3866(5) 0.7185(8) 0.1887(7)
H24_6 H 0.4121 0.7363 0.2269
H25_6 H 0.3709 0.7591 0.1611
H26_6 H 0.3679 0.6929 0.2020
C39_4 C 0.3646(4) 0.4017(7) 0.0181(11)
H28_4 H 0.3062 0.3053 0.0078
C41_4 C 0.4086(10) 0.294(2) 0.0734(19)
H30_4 H 0.4068 0.2413 0.0753
H31_4 H 0.4316 0.3067 0.0633
H32_4 H 0.4149 0.3144 0.1151
N1_6 N 0.4106(3) 0.8396(5) 0.0879(4)
N4_6 N 0.4001(3) 0.6688(6) 0.1526(5)
N5_4 N 0.3671(7) 0.3224(7) 0.0228(10)
O1_6 O 0.6461(6) 0.8871(10) 0.2020(10)
O2_6 O 0.6352(5) 0.9564(9) 0.2822(8)
O14_6 O 0.3791(3) 0.5905(5) 0.0606(5)
H34_4 H 0.394621 0.434121 0.0406505
H35_6 H 0.333868 0.649383 0.0719011
H37_6 H 0.415992 0.938654 0.108695
C9_6 C 0.2854(2) 0.7090(4) 0.9104(4)
C10_6 C 0.3028(2) 0.7689(4) 0.9610(4)
C11_6 C 0.3478(2) 0.7798(4) 0.9991(4)
H5_6 H 0.3669 0.7507 0.9911
C15_6 C 0.2744(2) 0.8121(4) 0.9734(4)
H7_6 H 0.2441 0.8065 0.9482
C33_6 C 0.2779(4) 0.5266(11) 0.7031(11)
C34_4 C 0.2128(6) 0.4438(15) 0.6306(10)
H15_4 H 0.2084 0.3962 0.6106
H16_4 H 0.2004 0.4447 0.6598
H17_4 H 0.1988 0.4803 0.5970
C35_4 C 0.2958(7) 0.4162(14) 0.6707(11)
H18_4 H 0.2849 0.3712 0.6469
H19_4 H 0.3107 0.4436 0.6518
H20_4 H 0.3160 0.4053 0.7159
C40_4 C 0.3243(9) 0.2871(16) 0.9899(18)
H27_4 H 0.3279 0.2350 0.9966
H29_4 H 0.3107 0.2976 0.9438
N3_4 N 0.2595(6) 0.4591(9) 0.6672(10)
O4_6 O 0.31396(19) 0.6642(3) 0.9110(3)
O13_6 O 0.3159(3) 0.5427(5) 0.7463(5)
O15_4 O 0.3283(3) 0.4332(4) 0.9884(5)
O19_4 O 0.3808(2) 0.5441(4) 0.9408(5)
O20_4 O 0.3899(3) 0.6251(7) 0.8803(6)
H33_6 H 0.254374 0.571352 0.690087
H2_7 H 0.0063 0.2899 0.3811
C5_7 C 0.0190(6) 0.3936(10) 0.3542(9)
H3_7 H 0.0147 0.4895 0.3164
C8_7 C 0.0670(6) 0.3874(10) 0.3884(10)
C9_7 C 0.2146(2) 0.2090(4) 0.5896(4)
C10_7 C 0.1972(2) 0.2689(4) 0.5390(4)
C11_7 C 0.1522(2) 0.2798(4) 0.5009(4)
H5_7 H 0.1331 0.2507 0.5089
C12_7 C 0.1348(3) 0.3312(5) 0.4523(5)
C13_7 C 0.1642(3) 0.3724(4) 0.4388(4)
H6_7 H 0.1535 0.4058 0.4042
C14_7 C 0.2090(3) 0.3627(4) 0.4773(4)
C15_7 C 0.2256(2) 0.3121(4) 0.5266(4)
H7_7 H 0.2559 0.3065 0.5518
C16_7 C 0.2395(3) 0.4080(5) 0.4607(6)
C33_7 C 0.2221(4) 0.0266(11) 0.7969(11)
C36_7 C 0.1316(4) 0.1352(7) 0.4084(5)
C37_7 C 0.0534(3) 0.1574(14) 0.3234(9)
H21_7 H 0.0370 0.1846 0.2835
H22_7 H 0.0467 0.1061 0.3150
H23_7 H 0.0455 0.1738 0.3559
C38_7 C 0.1134(5) 0.2185(8) 0.3113(7)
H24_7 H 0.0879 0.2363 0.2731
H25_7 H 0.1291 0.2591 0.3389
H26_7 H 0.1321 0.1929 0.2980
N1_7 N 0.0894(3) 0.3396(5) 0.4121(4)
N4_7 N 0.0999(3) 0.1688(6) 0.3474(5)
O4_7 O 0.18604(19) 0.1642(3) 0.5890(3)
O5_4 O 0.2250(2) 0.4444(3) 0.4085(3)
O13_7 O 0.1841(3) 0.0427(5) 0.7537(5)
O14_7 O 0.1209(3) 0.0905(5) 0.4394(5)
H33_7 H 0.245626 0.0713524 0.809913
H35_7 H 0.166132 0.149383 0.428099
H37_7 H 0.0840076 0.438654 0.391305
C1_7 C 0.8789(6) 0.3909(10) 0.2541(8)
C2_7 C 0.9287(7) 0.3954(12) 0.2822(10)
C3_7 C 0.9494(7) 0.3385(13) 0.3189(11)
H1_7 H 0.9322 0.2995 0.3193
C4_7 C 0.9934(8) 0.3316(16) 0.3561(12)
C6_7 C 0.9986(6) 0.4494(11) 0.3180(9)
C7_7 C 0.9536(6) 0.4509(14) 0.2819(10)
H4_7 H 0.9401 0.4920 0.2564
C20_7 C 0.5185(5) 0.6664(10) 0.0191(13)
H9_7 H 0.5339 0.7059 0.0146
C21_7 C 0.5383(3) 0.6198(5) 0.0702(6)
C22_7 C 0.5151(4) 0.5637(8) 0.0784(7)
H10_7 H 0.5285 0.5326 0.1144
C23_5 C 0.4731(4) 0.5541(7) 0.0343(8)
H11_5 H 0.4583 0.5141 0.0393
C24_7 C 0.5857(3) 0.6243(6) 0.1131(8)
C25_7 C 0.7425(3) 0.5206(4) 0.1860(4)
C26_7 C 0.7205(3) 0.5922(5) 0.1858(4)
C27_7 C 0.7473(3) 0.6533(4) 0.2158(4)
H12_7 H 0.7777 0.6486 0.2378
C28_7 C 0.7276(3) 0.7216(4) 0.2121(5)
C29_7 C 0.6816(3) 0.7279(5) 0.1807(5)
H13_7 H 0.6686 0.7731 0.1792
C30_7 C 0.6557(3) 0.6678(5) 0.1521(5)
C31_7 C 0.6759(3) 0.5996(5) 0.1558(5)
H14_7 H 0.6584 0.5586 0.1373
C32_7 C 0.7563(3) 0.7874(4) 0.2444(5)
N2_7 N 0.6111(4) 0.6754(6) 0.1116(7)
O1_7 O 0.8539(6) 0.3871(10) 0.2980(10)
O2_7 O 0.8648(5) 0.4564(9) 0.2178(8)
O9_7 O 0.78194(17) 0.5122(3) 0.2206(3)
O17_4 O 0.7750(2) 0.4444(3) 0.0915(3)
H36_7 H 0.600904 0.58094 0.149395
C17_7 C 0.4041(4) 0.5875(9) 0.9362(9)
C18_7 C 0.4520(4) 0.5975(6) 0.9850(6)
C19_7 C 0.4770(5) 0.6553(10) 0.9754(9)
H8_7 H 0.4638 0.6849 0.9383
C1_8 C 0.1211(6) 0.3909(10) 0.2459(8)
C2_8 C 0.0713(7) 0.3954(12) 0.2178(10)
C3_8 C 0.0506(7) 0.3385(13) 0.1811(11)
H1_8 H 0.0678 0.2995 0.1807
C4_8 C 0.0066(8) 0.3316(16) 0.1439(12)
C6_8 C 0.0014(6) 0.4494(11) 0.1820(9)
C7_8 C 0.0464(6) 0.4509(14) 0.2181(10)
H4_8 H 0.0599 0.4920 0.2436
C17_8 C 0.5959(4) 0.5875(9) 0.5638(9)
C18_8 C 0.5480(4) 0.5975(6) 0.5150(6)
C19_8 C 0.5230(5) 0.6553(10) 0.5246(9)
H8_8 H 0.5362 0.6849 0.5617
C20_8 C 0.4815(5) 0.6664(10) 0.4809(13)
H9_8 H 0.4661 0.7059 0.4854
C21_8 C 0.4617(3) 0.6198(5) 0.4298(6)
C22_8 C 0.4849(4) 0.5637(8) 0.4216(7)
H10_8 H 0.4715 0.5326 0.3856
C23_6 C 0.5269(4) 0.5541(7) 0.4657(8)
H11_6 H 0.5417 0.5141 0.4607
C24_8 C 0.4143(3) 0.6243(6) 0.3869(8)
C25_8 C 0.2575(3) 0.5206(4) 0.3140(4)
C26_8 C 0.2795(3) 0.5922(5) 0.3142(4)
C27_8 C 0.2527(3) 0.6533(4) 0.2842(4)
H12_8 H 0.2223 0.6486 0.2622
C28_8 C 0.2724(3) 0.7216(4) 0.2879(5)
C29_8 C 0.3184(3) 0.7279(5) 0.3193(5)
H13_8 H 0.3314 0.7731 0.3208
C30_8 C 0.3443(3) 0.6678(5) 0.3479(5)
C31_8 C 0.3241(3) 0.5996(5) 0.3442(5)
H14_8 H 0.3416 0.5586 0.3627
C32_8 C 0.2437(3) 0.7874(4) 0.2556(5)
N2_8 N 0.3889(4) 0.6754(6) 0.3884(7)
O1_8 O 0.1461(6) 0.3871(10) 0.2020(10)
O2_8 O 0.1352(5) 0.4564(9) 0.2822(8)
O9_8 O 0.21806(17) 0.5122(3) 0.2794(3)
H36_8 H 0.399096 0.58094 0.350605
H2_8 H 0.9937 0.2899 0.1189
C5_8 C 0.9810(6) 0.3936(10) 0.1458(9)
H3_8 H 0.9853 0.4895 0.1836
C8_8 C 0.9330(6) 0.3874(10) 0.1116(10)
C12_8 C 0.8652(3) 0.3312(5) 0.0477(5)
C13_8 C 0.8358(3) 0.3724(4) 0.0612(4)
H6_8 H 0.8465 0.4058 0.0958
C14_8 C 0.7910(3) 0.3627(4) 0.0227(4)
C16_8 C 0.7605(3) 0.4080(5) 0.0393(6)
C36_8 C 0.8684(4) 0.1352(7) 0.0916(5)
C37_8 C 0.9466(3) 0.1574(14) 0.1766(9)
H21_8 H 0.9630 0.1846 0.2165
H22_8 H 0.9533 0.1061 0.1850
H23_8 H 0.9545 0.1738 0.1441
C38_8 C 0.8866(5) 0.2185(8) 0.1887(7)
H24_8 H 0.9121 0.2363 0.2269
H25_8 H 0.8709 0.2591 0.1611
H26_8 H 0.8679 0.1929 0.2020
N1_8 N 0.9106(3) 0.3396(5) 0.0879(4)
N4_8 N 0.9001(3) 0.1688(6) 0.1526(5)
O14_8 O 0.8791(3) 0.0905(5) 0.0606(5)
H35_8 H 0.833868 0.149383 0.0719011
H37_8 H 0.915992 0.438654 0.108695
C9_8 C 0.7854(2) 0.2090(4) 0.9104(4)
C10_8 C 0.8028(2) 0.2689(4) 0.9610(4)
C11_8 C 0.8478(2) 0.2798(4) 0.9991(4)
H5_8 H 0.8669 0.2507 0.9911
C15_8 C 0.7744(2) 0.3121(4) 0.9734(4)
H7_8 H 0.7441 0.3065 0.9482
C33_8 C 0.7779(4) 0.0266(11) 0.7031(11)
O4_8 O 0.81396(19) 0.1642(3) 0.9110(3)
O13_8 O 0.8159(3) 0.0427(5) 0.7463(5)
H33_8 H 0.754374 0.0713524 0.690087
C23_7 C 0.0269(4) 0.9459(7) 0.9657(8)
H11_7 H 0.0417 0.9859 0.9607
C34_5 C 0.7128(6) 0.0562(15) 0.1306(10)
H15_5 H 0.7084 0.1038 0.1106
H16_5 H 0.7004 0.0553 0.1598
H17_5 H 0.6988 0.0197 0.0970
C35_5 C 0.7958(7) 0.0838(14) 0.1707(11)
H18_5 H 0.7849 0.1288 0.1469
H19_5 H 0.8107 0.0564 0.1518
H20_5 H 0.8160 0.0947 0.2159
C39_5 C 0.8646(4) 0.0983(7) 0.5181(11)
C40_5 C 0.8243(9) 0.2129(16) 0.4899(18)
H27_5 H 0.8279 0.2650 0.4966
H28_5 H 0.8062 0.1947 0.5078
H29_5 H 0.8107 0.2024 0.4438
C41_5 C 0.9086(10) 0.206(2) 0.5734(19)
H30_5 H 0.9068 0.2587 0.5753
H31_5 H 0.9316 0.1933 0.5633
H32_5 H 0.9149 0.1856 0.6151
N3_5 N 0.7595(6) 0.0409(9) 0.1672(10)
N5_5 N 0.8671(7) 0.1776(7) 0.5228(10)
O15_5 O 0.8283(3) 0.0668(4) 0.4884(5)
H34_5 H 0.894621 0.0658789 0.54065
C34_6 C 0.2872(6) 0.0562(15) 0.3694(10)
H15_6 H 0.2916 0.1038 0.3894
H16_6 H 0.2996 0.0553 0.3402
H17_6 H 0.3012 0.0197 0.4030
C35_6 C 0.2042(7) 0.0838(14) 0.3293(11)
H18_6 H 0.2151 0.1288 0.3531
H19_6 H 0.1893 0.0564 0.3482
H20_6 H 0.1840 0.0947 0.2841
C40_6 C 0.1757(9) 0.2129(16) 0.0101(18)
H27_6 H 0.1721 0.2650 0.0034
H29_6 H 0.1893 0.2024 0.0562
N3_6 N 0.2405(6) 0.0409(9) 0.3328(10)
O15_6 O 0.1717(3) 0.0668(4) 0.0116(5)
C39_6 C 0.1354(4) 0.0983(7) 0.9819(11)
H28_6 H 0.1938 0.1947 0.9922
C41_6 C 0.0914(10) 0.206(2) 0.9266(19)
H30_6 H 0.0932 0.2587 0.9247
H31_6 H 0.0684 0.1933 0.9367
H32_6 H 0.0851 0.1856 0.8849
N5_6 N 0.1329(7) 0.1776(7) 0.9772(10)
H34_6 H 0.105379 0.0658789 0.95935
C23_8 C 0.9731(4) 0.0541(7) 0.0343(8)
H11_8 H 0.9583 0.0141 0.0393
C34_7 C 0.2872(6) 0.9438(15) 0.8694(10)
H15_7 H 0.2916 0.8962 0.8894
H16_7 H 0.2996 0.9447 0.8402
H17_7 H 0.3012 0.9803 0.9030
C35_7 C 0.2042(7) 0.9162(14) 0.8293(11)
H18_7 H 0.2151 0.8712 0.8531
H19_7 H 0.1893 0.9436 0.8482
H20_7 H 0.1840 0.9053 0.7841
C39_7 C 0.1354(4) 0.9017(7) 0.4819(11)
C40_7 C 0.1757(9) 0.7871(16) 0.5101(18)
H27_7 H 0.1721 0.7350 0.5034
H28_7 H 0.1938 0.8053 0.4922
H29_7 H 0.1893 0.7976 0.5562
C41_7 C 0.0914(10) 0.794(2) 0.4266(19)
H30_7 H 0.0932 0.7413 0.4247
H31_7 H 0.0684 0.8067 0.4367
H32_7 H 0.0851 0.8144 0.3849
N3_7 N 0.2405(6) 0.9591(9) 0.8328(10)
N5_7 N 0.1329(7) 0.8224(7) 0.4772(10)
O15_7 O 0.1717(3) 0.9332(4) 0.5116(5)
H34_7 H 0.105379 0.934121 0.45935
C39_8 C 0.8646(4) 0.9017(7) 0.0181(11)
H28_8 H 0.8062 0.8053 0.0078
C41_8 C 0.9086(10) 0.794(2) 0.0734(19)
H30_8 H 0.9068 0.7413 0.0753
H31_8 H 0.9316 0.8067 0.0633
H32_8 H 0.9149 0.8144 0.1151
N5_8 N 0.8671(7) 0.8224(7) 0.0228(10)
H34_8 H 0.894621 0.934121 0.0406505
C34_8 C 0.7128(6) 0.9438(15) 0.6306(10)
H15_8 H 0.7084 0.8962 0.6106
H16_8 H 0.7004 0.9447 0.6598
H17_8 H 0.6988 0.9803 0.5970
C35_8 C 0.7958(7) 0.9162(14) 0.6707(11)
H18_8 H 0.7849 0.8712 0.6469
H19_8 H 0.8107 0.9436 0.6518
H20_8 H 0.8160 0.9053 0.7159
C40_8 C 0.8243(9) 0.7871(16) 0.9899(18)
H27_8 H 0.8279 0.7350 0.9966
H29_8 H 0.8107 0.7976 0.9438
N3_8 N 0.7595(6) 0.9591(9) 0.6672(10)
O15_8 O 0.8283(3) 0.9332(4) 0.9884(5)
loop_
_geom_bond_atom_site_label_1
_geom_bond_atom_site_label_2
_geom_bond_site_symmetry_1
_geom_bond_site_symmetry_2
C17 C18 1_555 1_555
C18 C19 1_555 1_555
C19 H8 1_555 1_555
O7 C17 1_555 1_555
O8 C17 1_555 1_555
Cd7 O8 1_555 1_555
Cd11 O7 1_555 1_555
Cd1 O1 1_555 1_555
Cd2 O4 1_555 1_555
Cd3 O4 1_555 1_555
C1 C2 1_555 1_555
C2 C3 1_555 1_555
C3 H1 1_555 1_555
C4 C3 1_555 1_555
H2 C4 1_555 1_555
C5 C4 1_555 1_555
C6 C5 1_555 1_555
H3 C6 1_555 1_555
C7 C2 1_555 1_555
H4 C7 1_555 1_555
C8 C5 1_555 1_555
C9 C10 1_555 1_555
C10 C11 1_555 1_555
C11 H5 1_555 1_555
C12 C11 1_555 1_555
C13 C12 1_555 1_555
H6 C13 1_555 1_555
C14 C13 1_555 1_555
C15 C10 1_555 1_555
H7 C15 1_555 1_555
C16 C14 1_555 1_555
C33 N3 1_555 1_555
C34 H15 1_555 1_555
H16 C34 1_555 1_555
H17 C34 1_555 1_555
C35 H18 1_555 1_555
H19 C35 1_555 1_555
H20 C35 1_555 1_555
C36 N4 1_555 1_555
C37 H21 1_555 1_555
H22 C37 1_555 1_555
H23 C37 1_555 1_555
C38 H24 1_555 1_555
H25 C38 1_555 1_555
H26 C38 1_555 1_555
C39 N5 1_555 1_555
C40 H27 1_555 1_555
H28 C40 1_555 1_555
H29 C40 1_555 1_555
C41 H30 1_555 1_555
H31 C41 1_555 1_555
H32 C41 1_555 1_555
N1 C8 1_555 1_555
N3 C34 1_555 1_555
N4 C37 1_555 1_555
N5 C40 1_555 1_555
O1 C1 1_555 1_555
O2 Cd1 1_555 1_555
O3 C9 1_555 1_555
O4 C9 1_555 1_555
O5 C16 1_555 1_555
O6 C16 1_555 1_555
O10 Cd1 1_555 1_555
O13 Cd2 1_555 1_555
O14 Cd3 1_555 1_555
O15 Cd3 1_555 1_555
Cd4 O3 1_555 1_555
Cd5 O5 1_555 1_555
Cd8 O10 1_555 1_555
Cd10 O6 1_555 1_555
Cd12 O10 1_555 1_555
O16 Cd1 1_555 1_555
O17 Cd1 1_555 1_555
O18 Cd3 1_555 1_555
O19 Cd3 1_555 1_555
O20 Cd2 1_555 1_555
O21 Cd2 1_555 1_555
O22 Cd1 1_555 1_555
O23 Cd2 1_555 1_555
O24 Cd2 1_555 1_555
Cd3 O21 1_555 1_555
C1 O2 1_555 1_555
C6 C7 1_555 1_555
C12 N1 1_555 1_555
C14 C15 1_555 1_555
C33 O13 1_555 1_555
C35 N3 1_555 1_555
C36 O14 1_555 1_555
C38 N4 1_555 1_555
C39 O15 1_555 1_555
C41 N5 1_555 1_555
Cd4 O21 1_555 1_555
Cd4 O23 1_555 1_555
Cd8 O22 1_555 1_555
C33 H33 1_555 1_555
C39 H34 1_555 1_555
C36 H35 1_555 1_555
C8 H37 1_555 1_555
H9 C20 1_555 1_555
C21 C20 1_555 1_555
C22 C21 1_555 1_555
H10 C22 1_555 1_555
C24 C21 1_555 1_555
C25 C26 1_555 1_555
C26 C27 1_555 1_555
C27 H12 1_555 1_555
C28 C27 1_555 1_555
C29 C28 1_555 1_555
H13 C29 1_555 1_555
C30 C29 1_555 1_555
C31 C26 1_555 1_555
H14 C31 1_555 1_555
C32 C28 1_555 1_555
N2 C24 1_555 1_555
O11 C32 1_555 1_555
O12 C32 1_555 1_555
Cd6 O11 1_555 1_555
Cd9 O11 1_555 1_555
C25 O9 1_555 1_555
C30 C31 1_555 1_555
C30 N2 1_555 1_555
O12 Cd9 1_555 1_555
C24 H36 1_555 1_555
Cd2_2 O4_2 1_555 1_555
Cd3_2 O4_2 1_555 1_555
C9_2 C10_2 1_555 1_555
C10_2 C11_2 1_555 1_555
C11_2 H5_2 1_555 1_555
C15_2 C10_2 1_555 1_555
H7_2 C15_2 1_555 1_555
C33_2 N3_2 1_555 1_555
C34_2 H15_2 1_555 1_555
H16_2 C34_2 1_555 1_555
H17_2 C34_2 1_555 1_555
C35_2 H18_2 1_555 1_555
H19_2 C35_2 1_555 1_555
H20_2 C35_2 1_555 1_555
C40_2 H27_2 1_555 1_555
H29_2 C40_2 1_555 1_555
N3_2 C34_2 1_555 1_555
O3_2 C9_2 1_555 1_555
O4_2 C9_2 1_555 1_555
O13_2 Cd2_2 1_555 1_555
O15_2 Cd3_2 1_555 1_555
Cd4_2 O3_2 1_555 1_555
O19_2 Cd3_2 1_555 1_555
O20_2 Cd2_2 1_555 1_555
O21_2 Cd2_2 1_555 1_555
O23_2 Cd2_2 1_555 1_555
O24_2 Cd2_2 1_555 1_555
Cd3_2 O21_2 1_555 1_555
C33_2 O13_2 1_555 1_555
C35_2 N3_2 1_555 1_555
Cd4_2 O21_2 1_555 1_555
Cd4_2 O23_2 1_555 1_555
C33_2 H33_2 1_555 1_555
Cd5 O1_2 1_555 1_555
C1_2 C2_2 1_555 1_555
C2_2 C3_2 1_555 1_555
C3_2 H1_2 1_555 1_555
C4_2 C3_2 1_555 1_555
H2_2 C4_2 1_555 1_555
C5_2 C4_2 1_555 1_555
C6_2 C5_2 1_555 1_555
H3_2 C6_2 1_555 1_555
C7_2 C2_2 1_555 1_555
H4_2 C7_2 1_555 1_555
C8_2 C5_2 1_555 1_555
C13_2 C12_2 1_555 1_555
H6_2 C13_2 1_555 1_555
C14_2 C13_2 1_555 1_555
C16_2 C14_2 1_555 1_555
C36_2 N4_2 1_555 1_555
C37_2 H21_2 1_555 1_555
H22_2 C37_2 1_555 1_555
H23_2 C37_2 1_555 1_555
C38_2 H24_2 1_555 1_555
H25_2 C38_2 1_555 1_555
H26_2 C38_2 1_555 1_555
C39_2 N5_2 1_555 1_555
C41_2 H30_2 1_555 1_555
H31_2 C41_2 1_555 1_555
H32_2 C41_2 1_555 1_555
N1_2 C8_2 1_555 1_555
N4_2 C37_2 1_555 1_555
O1_2 C1_2 1_555 1_555
O2_2 Cd5 1_555 1_555
O17 C16_2 1_555 1_555
O10_2 Cd5 1_555 1_555
Cd8_2 O10_2 1_555 1_555
Cd10 O10_2 1_555 1_555
O16_2 Cd5 1_555 1_555
O22_2 Cd5 1_555 1_555
C1_2 O2_2 1_555 1_555
C6_2 C7_2 1_555 1_555
C12_2 N1_2 1_555 1_555
C36_2 O14_2 1_555 1_555
C38_2 N4_2 1_555 1_555
C41_2 N5_2 1_555 1_555
Cd8_2 O22_2 1_555 1_555
C39_2 H34_2 1_555 1_555
C36_2 H35_2 1_555 1_555
C8_2 H37_2 1_555 1_555
H9_2 C20_2 1_555 1_555
C21_2 C20_2 1_555 1_555
C22_2 C21_2 1_555 1_555
H10_2 C22_2 1_555 1_555
C24_2 C21_2 1_555 1_555
C25_2 C26_2 1_555 1_555
C26_2 C27_2 1_555 1_555
C27_2 H12_2 1_555 1_555
C28_2 C27_2 1_555 1_555
C29_2 C28_2 1_555 1_555
H13_2 C29_2 1_555 1_555
C30_2 C29_2 1_555 1_555
C31_2 C26_2 1_555 1_555
H14_2 C31_2 1_555 1_555
C32_2 C28_2 1_555 1_555
N2_2 C24_2 1_555 1_555
O11_2 C32_2 1_555 1_555
O12_2 C32_2 1_555 1_555
Cd6_2 O11_2 1_555 1_555
Cd9_2 O11_2 1_555 1_555
C25_2 O9_2 1_555 1_555
C30_2 C31_2 1_555 1_555
C30_2 N2_2 1_555 1_555
O12_2 Cd9_2 1_555 1_555
C24_2 H36_2 1_555 1_555
C17_2 C18_2 1_555 1_555
C18_2 C19_2 1_555 1_555
C19_2 H8_2 1_555 1_555
C23 C18_2 1_555 1_555
H11 C23 1_555 1_555
O7_2 C17_2 1_555 1_555
O8_2 C17_2 1_555 1_555
Cd7_2 O8_2 1_555 1_555
Cd11_2 O7_2 1_555 1_555
C17_3 C18_3 1_555 1_555
C18_3 C19_3 1_555 1_555
C19_3 H8_3 1_555 1_555
O19_2 C17_3 1_555 1_555
O20_2 C17_3 1_555 1_555
Cd6_2 O1_3 1_555 1_555
C1_3 C2_3 1_555 1_555
C2_3 C3_3 1_555 1_555
C3_3 H1_3 1_555 1_555
C4_3 C3_3 1_555 1_555
C7_3 C2_3 1_555 1_555
H4_3 C7_3 1_555 1_555
H9_3 C20_3 1_555 1_555
C21_3 C20_3 1_555 1_555
C22_3 C21_3 1_555 1_555
H10_3 C22_3 1_555 1_555
H11_2 C23_2 1_555 1_555
C24_3 C21_3 1_555 1_555
C25_3 C26_3 1_555 1_555
C26_3 C27_3 1_555 1_555
C27_3 H12_3 1_555 1_555
C28_3 C27_3 1_555 1_555
C29_3 C28_3 1_555 1_555
H13_3 C29_3 1_555 1_555
C30_3 C29_3 1_555 1_555
C31_3 C26_3 1_555 1_555
H14_3 C31_3 1_555 1_555
C32_3 C28_3 1_555 1_555
N2_3 C24_3 1_555 1_555
O1_3 C1_3 1_555 1_555
O2_3 Cd6_2 1_555 1_555
O9_3 Cd6_2 1_555 1_555
O10_3 Cd6_2 1_555 1_555
O22_2 C32_3 1_555 1_555
O12_3 C32_3 1_555 1_555
Cd9_2 O10_3 1_555 1_555
Cd12_2 O10_3 1_555 1_555
O16_3 Cd6_2 1_555 1_555
O17_2 Cd6_2 1_555 1_555
C1_3 O2_3 1_555 1_555
C6_3 C7_3 1_555 1_555
C22_3 C23_2 1_555 1_555
C25_3 O9_3 1_555 1_555
C25_3 O10_3 1_555 1_555
C30_3 C31_3 1_555 1_555
C30_3 N2_3 1_555 1_555
O12_3 Cd8_2 1_555 1_555
C24_3 H36_3 1_555 1_555
Cd7_2 O4_3 1_555 1_555
Cd11_2 O4_3 1_555 1_555
C8_3 C5_3 1_555 1_555
C9_3 C10_3 1_555 1_555
C10_3 C11_3 1_555 1_555
C11_3 H5_3 1_555 1_555
C12_3 C11_3 1_555 1_555
C13_3 C12_3 1_555 1_555
H6_3 C13_3 1_555 1_555
C14_3 C13_3 1_555 1_555
C15_3 C10_3 1_555 1_555
H7_3 C15_3 1_555 1_555
C16_3 C14_3 1_555 1_555
C36_3 N4_3 1_555 1_555
C37_3 H21_3 1_555 1_555
H22_3 C37_3 1_555 1_555
H23_3 C37_3 1_555 1_555
C38_3 H24_3 1_555 1_555
H25_3 C38_3 1_555 1_555
H26_3 C38_3 1_555 1_555
N1_3 C8_3 1_555 1_555
N4_3 C37_3 1_555 1_555
O3_3 C9_3 1_555 1_555
O4_3 C9_3 1_555 1_555
O5_2 C16_3 1_555 1_555
O6_3 C16_3 1_555 1_555
O13_3 Cd7_2 1_555 1_555
O14_3 Cd11_2 1_555 1_555
Cd4_3 O3_3 1_555 1_555
Cd6 O5_2 1_555 1_555
Cd10_2 O6_3 1_555 1_555
O18_3 Cd11_2 1_555 1_555
O21_3 Cd7_2 1_555 1_555
O23_3 Cd7_2 1_555 1_555
O24_3 Cd7_2 1_555 1_555
Cd11_2 O21_3 1_555 1_555
C12_3 N1_3 1_555 1_555
C14_3 C15_3 1_555 1_555
C33_3 O13_3 1_555 1_555
C36_3 O14_3 1_555 1_555
C38_3 N4_3 1_555 1_555
Cd4_3 O21_3 1_555 1_555
Cd4_3 O23_3 1_555 1_555
C33_3 H33_3 1_555 1_555
C36_3 H35_3 1_555 1_555
C8_3 H37_3 1_555 1_555
Cd7 O4_4 1_555 1_555
Cd11 O4_4 1_555 1_555
C9_4 C10_4 1_555 1_555
C10_4 C11_4 1_555 1_555
C11_4 H5_4 1_555 1_555
C15_4 C10_4 1_555 1_555
H7_4 C15_4 1_555 1_555
O3_4 C9_4 1_555 1_555
O4_4 C9_4 1_555 1_555
O13_4 Cd7 1_555 1_555
Cd4_4 O3_4 1_555 1_555
O21_4 Cd7 1_555 1_555
O23_4 Cd7 1_555 1_555
O24_4 Cd7 1_555 1_555
Cd11 O21_4 1_555 1_555
C33_4 O13_4 1_555 1_555
Cd4_4 O21_4 1_555 1_555
Cd4_4 O23_4 1_555 1_555
C33_4 H33_4 1_555 1_555
C8_4 C5_4 1_555 1_555
C13_4 C12_4 1_555 1_555
H6_4 C13_4 1_555 1_555
C14_4 C13_4 1_555 1_555
C16_4 C14_4 1_555 1_555
C36_4 N4_4 1_555 1_555
C37_4 H21_4 1_555 1_555
H22_4 C37_4 1_555 1_555
H23_4 C37_4 1_555 1_555
C38_4 H24_4 1_555 1_555
H25_4 C38_4 1_555 1_555
H26_4 C38_4 1_555 1_555
N1_4 C8_4 1_555 1_555
N4_4 C37_4 1_555 1_555
O17_2 C16_4 1_555 1_555
C12_4 N1_4 1_555 1_555
C36_4 O14_4 1_555 1_555
C38_4 N4_4 1_555 1_555
C36_4 H35_4 1_555 1_555
C8_4 H37_4 1_555 1_555
Cd6 O1_4 1_555 1_555
C1_4 C2_4 1_555 1_555
C2_4 C3_4 1_555 1_555
C3_4 H1_4 1_555 1_555
C4_4 C3_4 1_555 1_555
C7_4 C2_4 1_555 1_555
H4_4 C7_4 1_555 1_555
C17_4 C18_4 1_555 1_555
C18_4 C19_4 1_555 1_555
C19_4 H8_4 1_555 1_555
C20_4 C19_4 1_555 1_555
H9_4 C20_4 1_555 1_555
C21_4 C20_4 1_555 1_555
C22_4 C21_4 1_555 1_555
H10_4 C22_4 1_555 1_555
C23_3 C18_4 1_555 1_555
H11_3 C23_3 1_555 1_555
C24_4 C21_4 1_555 1_555
C25_4 C26_4 1_555 1_555
C26_4 C27_4 1_555 1_555
C27_4 H12_4 1_555 1_555
C28_4 C27_4 1_555 1_555
C29_4 C28_4 1_555 1_555
H13_4 C29_4 1_555 1_555
C30_4 C29_4 1_555 1_555
C31_4 C26_4 1_555 1_555
H14_4 C31_4 1_555 1_555
C32_4 C28_4 1_555 1_555
N2_4 C24_4 1_555 1_555
O1_4 C1_4 1_555 1_555
O2_4 Cd6 1_555 1_555
O19 C17_4 1_555 1_555
O20 C17_4 1_555 1_555
O9_4 Cd6 1_555 1_555
O10_4 Cd6 1_555 1_555
O22 C32_4 1_555 1_555
O12_4 C32_4 1_555 1_555
Cd9 O10_4 1_555 1_555
Cd10_2 O10_4 1_555 1_555
O16_4 Cd6 1_555 1_555
C1_4 O2_4 1_555 1_555
C6_4 C7_4 1_555 1_555
C22_4 C23_3 1_555 1_555
C25_4 O9_4 1_555 1_555
C25_4 O10_4 1_555 1_555
C30_4 C31_4 1_555 1_555
C30_4 N2_4 1_555 1_555
O12_4 Cd8 1_555 1_555
C24_4 H36_4 1_555 1_555
H9_5 C20_5 1_555 1_555
C21_5 C20_5 1_555 1_555
C22_5 C21_5 1_555 1_555
H10_5 C22_5 1_555 1_555
C24_5 C21_5 1_555 1_555
C25_5 C26_5 1_555 1_555
C26_5 C27_5 1_555 1_555
C27_5 H12_5 1_555 1_555
C28_5 C27_5 1_555 1_555
C29_5 C28_5 1_555 1_555
H13_5 C29_5 1_555 1_555
C30_5 C29_5 1_555 1_555
C31_5 C26_5 1_555 1_555
H14_5 C31_5 1_555 1_555
C32_5 C28_5 1_555 1_555
N2_5 C24_5 1_555 1_555
O23 C32_5 1_555 1_555
O24 C32_5 1_555 1_555
C25_5 O9_5 1_555 1_555
C30_5 C31_5 1_555 1_555
C30_5 N2_5 1_555 1_555
C24_5 H36_5 1_555 1_555
Cd4_4 O1_5 1_555 1_555
Cd9 O4_5 1_555 1_555
Cd10_2 O4_5 1_555 1_555
C1_5 C2_5 1_555 1_555
C2_5 C3_5 1_555 1_555
C3_5 H1_5 1_555 1_555
C4_5 C3_5 1_555 1_555
H2_5 C4_5 1_555 1_555
C5_5 C4_5 1_555 1_555
C6_5 C5_5 1_555 1_555
H3_5 C6_5 1_555 1_555
C7_5 C2_5 1_555 1_555
H4_5 C7_5 1_555 1_555
C8_5 C5_5 1_555 1_555
C9_5 C10_5 1_555 1_555
C10_5 C11_5 1_555 1_555
C11_5 H5_5 1_555 1_555
C12_5 C11_5 1_555 1_555
C13_5 C12_5 1_555 1_555
H6_5 C13_5 1_555 1_555
C14_5 C13_5 1_555 1_555
C15_5 C10_5 1_555 1_555
H7_5 C15_5 1_555 1_555
C16_5 C14_5 1_555 1_555
C33_5 N3_3 1_555 1_555
C34_3 H15_3 1_555 1_555
H16_3 C34_3 1_555 1_555
H17_3 C34_3 1_555 1_555
C35_3 H18_3 1_555 1_555
H19_3 C35_3 1_555 1_555
H20_3 C35_3 1_555 1_555
C36_5 N4_5 1_555 1_555
C37_5 H21_5 1_555 1_555
H22_5 C37_5 1_555 1_555
H23_5 C37_5 1_555 1_555
C38_5 H24_5 1_555 1_555
H25_5 C38_5 1_555 1_555
H26_5 C38_5 1_555 1_555
C39_3 N5_3 1_555 1_555
C40_3 H27_3 1_555 1_555
H28_3 C40_3 1_555 1_555
H29_3 C40_3 1_555 1_555
C41_3 H30_3 1_555 1_555
H31_3 C41_3 1_555 1_555
H32_3 C41_3 1_555 1_555
N1_5 C8_5 1_555 1_555
N3_3 C34_3 1_555 1_555
N4_5 C37_5 1_555 1_555
N5_3 C40_3 1_555 1_555
O1_5 C1_5 1_555 1_555
O2_5 Cd4_4 1_555 1_555
O16_4 C9_5 1_555 1_555
O4_5 C9_5 1_555 1_555
O5_3 C16_5 1_555 1_555
O18_3 C16_5 1_555 1_555
O13_5 Cd9 1_555 1_555
O14_5 Cd10_2 1_555 1_555
O15_3 Cd10_2 1_555 1_555
Cd4_3 O5_3 1_555 1_555
O17_3 Cd4_4 1_555 1_555
O19_3 Cd10_2 1_555 1_555
O20_3 Cd9 1_555 1_555
C1_5 O2_5 1_555 1_555
C6_5 C7_5 1_555 1_555
C12_5 N1_5 1_555 1_555
C14_5 C15_5 1_555 1_555
C33_5 O13_5 1_555 1_555
C35_3 N3_3 1_555 1_555
C36_5 O14_5 1_555 1_555
C38_5 N4_5 1_555 1_555
C39_3 O15_3 1_555 1_555
C41_3 N5_3 1_555 1_555
C33_5 H33_5 1_555 1_555
C39_3 H34_3 1_555 1_555
C36_5 H35_5 1_555 1_555
C8_5 H37_5 1_555 1_555
C17_5 C18_5 1_555 1_555
C18_5 C19_5 1_555 1_555
C19_5 H8_5 1_555 1_555
O7_3 C17_5 1_555 1_555
O8_3 C17_5 1_555 1_555
Cd8 O8_3 1_555 1_555
Cd12 O7_3 1_555 1_555
C17_6 C18_6 1_555 1_555
C18_6 C19_6 1_555 1_555
C19_6 H8_6 1_555 1_555
C23_4 C18_6 1_555 1_555
H11_4 C23_4 1_555 1_555
O7_4 C17_6 1_555 1_555
O8_4 C17_6 1_555 1_555
Cd8_2 O8_4 1_555 1_555
Cd10 O7_4 1_555 1_555
H9_6 C20_6 1_555 1_555
C21_6 C20_6 1_555 1_555
C22_6 C21_6 1_555 1_555
H10_6 C22_6 1_555 1_555
C24_6 C21_6 1_555 1_555
C25_6 C26_6 1_555 1_555
C26_6 C27_6 1_555 1_555
C27_6 H12_6 1_555 1_555
C28_6 C27_6 1_555 1_555
C29_6 C28_6 1_555 1_555
H13_6 C29_6 1_555 1_555
C30_6 C29_6 1_555 1_555
C31_6 C26_6 1_555 1_555
H14_6 C31_6 1_555 1_555
C32_6 C28_6 1_555 1_555
N2_6 C24_6 1_555 1_555
O23_2 C32_6 1_555 1_555
O24_2 C32_6 1_555 1_555
C25_6 O9_6 1_555 1_555
C30_6 C31_6 1_555 1_555
C30_6 N2_6 1_555 1_555
C24_6 H36_6 1_555 1_555
Cd4_3 O1_6 1_555 1_555
C1_6 C2_6 1_555 1_555
C2_6 C3_6 1_555 1_555
C3_6 H1_6 1_555 1_555
C4_6 C3_6 1_555 1_555
H2_6 C4_6 1_555 1_555
C5_6 C4_6 1_555 1_555
C6_6 C5_6 1_555 1_555
H3_6 C6_6 1_555 1_555
C7_6 C2_6 1_555 1_555
H4_6 C7_6 1_555 1_555
C8_6 C5_6 1_555 1_555
C13_6 C12_6 1_555 1_555
H6_6 C13_6 1_555 1_555
C14_6 C13_6 1_555 1_555
C16_6 C14_6 1_555 1_555
C36_6 N4_6 1_555 1_555
C37_6 H21_6 1_555 1_555
H22_6 C37_6 1_555 1_555
H23_6 C37_6 1_555 1_555
C38_6 H24_6 1_555 1_555
H25_6 C38_6 1_555 1_555
H26_6 C38_6 1_555 1_555
C39_4 N5_4 1_555 1_555
C41_4 H30_4 1_555 1_555
H31_4 C41_4 1_555 1_555
H32_4 C41_4 1_555 1_555
N1_6 C8_6 1_555 1_555
N4_6 C37_6 1_555 1_555
O1_6 C1_6 1_555 1_555
O2_6 Cd4_3 1_555 1_555
O17_3 C16_6 1_555 1_555
C1_6 O2_6 1_555 1_555
C6_6 C7_6 1_555 1_555
C12_6 N1_6 1_555 1_555
C36_6 O14_6 1_555 1_555
C38_6 N4_6 1_555 1_555
C41_4 N5_4 1_555 1_555
C39_4 H34_4 1_555 1_555
C36_6 H35_6 1_555 1_555
C8_6 H37_6 1_555 1_555
Cd9_2 O4_6 1_555 1_555
Cd12_2 O4_6 1_555 1_555
C9_6 C10_6 1_555 1_555
C10_6 C11_6 1_555 1_555
C11_6 H5_6 1_555 1_555
C15_6 C10_6 1_555 1_555
H7_6 C15_6 1_555 1_555
C33_6 N3_4 1_555 1_555
C34_4 H15_4 1_555 1_555
H16_4 C34_4 1_555 1_555
H17_4 C34_4 1_555 1_555
C35_4 H18_4 1_555 1_555
H19_4 C35_4 1_555 1_555
H20_4 C35_4 1_555 1_555
C40_4 H27_4 1_555 1_555
H29_4 C40_4 1_555 1_555
N3_4 C34_4 1_555 1_555
O16_3 C9_6 1_555 1_555
O4_6 C9_6 1_555 1_555
O13_6 Cd9_2 1_555 1_555
O15_4 Cd12_2 1_555 1_555
O19_4 Cd12_2 1_555 1_555
O20_4 Cd9_2 1_555 1_555
C33_6 O13_6 1_555 1_555
C35_4 N3_4 1_555 1_555
C33_6 H33_6 1_555 1_555
Cd8_2 O4_7 1_555 1_555
Cd10 O4_7 1_555 1_555
C8_7 C5_7 1_555 1_555
C9_7 C10_7 1_555 1_555
C10_7 C11_7 1_555 1_555
C11_7 H5_7 1_555 1_555
C12_7 C11_7 1_555 1_555
C13_7 C12_7 1_555 1_555
H6_7 C13_7 1_555 1_555
C14_7 C13_7 1_555 1_555
C15_7 C10_7 1_555 1_555
H7_7 C15_7 1_555 1_555
C16_7 C14_7 1_555 1_555
C36_7 N4_7 1_555 1_555
C37_7 H21_7 1_555 1_555
H22_7 C37_7 1_555 1_555
H23_7 C37_7 1_555 1_555
C38_7 H24_7 1_555 1_555
H25_7 C38_7 1_555 1_555
H26_7 C38_7 1_555 1_555
N1_7 C8_7 1_555 1_555
N4_7 C37_7 1_555 1_555
O16_2 C9_7 1_555 1_555
O4_7 C9_7 1_555 1_555
O5_4 C16_7 1_555 1_555
O18 C16_7 1_555 1_555
O13_7 Cd8_2 1_555 1_555
O14_7 Cd10 1_555 1_555
Cd4 O5_4 1_555 1_555
C12_7 N1_7 1_555 1_555
C14_7 C15_7 1_555 1_555
C33_7 O13_7 1_555 1_555
C36_7 O14_7 1_555 1_555
C38_7 N4_7 1_555 1_555
C33_7 H33_7 1_555 1_555
C36_7 H35_7 1_555 1_555
C8_7 H37_7 1_555 1_555
Cd4_2 O1_7 1_555 1_555
C1_7 C2_7 1_555 1_555
C2_7 C3_7 1_555 1_555
C3_7 H1_7 1_555 1_555
C4_7 C3_7 1_555 1_555
C7_7 C2_7 1_555 1_555
H4_7 C7_7 1_555 1_555
H9_7 C20_7 1_555 1_555
C21_7 C20_7 1_555 1_555
C22_7 C21_7 1_555 1_555
H10_7 C22_7 1_555 1_555
H11_5 C23_5 1_555 1_555
C24_7 C21_7 1_555 1_555
C25_7 C26_7 1_555 1_555
C26_7 C27_7 1_555 1_555
C27_7 H12_7 1_555 1_555
C28_7 C27_7 1_555 1_555
C29_7 C28_7 1_555 1_555
H13_7 C29_7 1_555 1_555
C30_7 C29_7 1_555 1_555
C31_7 C26_7 1_555 1_555
H14_7 C31_7 1_555 1_555
C32_7 C28_7 1_555 1_555
N2_7 C24_7 1_555 1_555
O1_7 C1_7 1_555 1_555
O2_7 Cd4_2 1_555 1_555
O9_7 Cd4_2 1_555 1_555
O23_3 C32_7 1_555 1_555
O24_3 C32_7 1_555 1_555
O17_4 Cd4_2 1_555 1_555
C1_7 O2_7 1_555 1_555
C6_7 C7_7 1_555 1_555
C22_7 C23_5 1_555 1_555
C25_7 O9_7 1_555 1_555
C25_7 O21_2 1_555 1_555
C30_7 C31_7 1_555 1_555
C30_7 N2_7 1_555 1_555
C24_7 H36_7 1_555 1_555
C17_7 C18_7 1_555 1_555
C18_7 C19_7 1_555 1_555
C19_7 H8_7 1_555 1_555
O19_4 C17_7 1_555 1_555
O20_4 C17_7 1_555 1_555
Cd4 O1_8 1_555 1_555
C1_8 C2_8 1_555 1_555
C2_8 C3_8 1_555 1_555
C3_8 H1_8 1_555 1_555
C4_8 C3_8 1_555 1_555
C7_8 C2_8 1_555 1_555
H4_8 C7_8 1_555 1_555
C17_8 C18_8 1_555 1_555
C18_8 C19_8 1_555 1_555
C19_8 H8_8 1_555 1_555
C20_8 C19_8 1_555 1_555
H9_8 C20_8 1_555 1_555
C21_8 C20_8 1_555 1_555
C22_8 C21_8 1_555 1_555
H10_8 C22_8 1_555 1_555
C23_6 C18_8 1_555 1_555
H11_6 C23_6 1_555 1_555
C24_8 C21_8 1_555 1_555
C25_8 C26_8 1_555 1_555
C26_8 C27_8 1_555 1_555
C27_8 H12_8 1_555 1_555
C28_8 C27_8 1_555 1_555
C29_8 C28_8 1_555 1_555
H13_8 C29_8 1_555 1_555
C30_8 C29_8 1_555 1_555
C31_8 C26_8 1_555 1_555
H14_8 C31_8 1_555 1_555
C32_8 C28_8 1_555 1_555
N2_8 C24_8 1_555 1_555
O1_8 C1_8 1_555 1_555
O2_8 Cd4 1_555 1_555
O19_3 C17_8 1_555 1_555
O20_3 C17_8 1_555 1_555
O9_8 Cd4 1_555 1_555
O23_4 C32_8 1_555 1_555
O24_4 C32_8 1_555 1_555
C1_8 O2_8 1_555 1_555
C6_8 C7_8 1_555 1_555
C22_8 C23_6 1_555 1_555
C25_8 O9_8 1_555 1_555
C25_8 O21 1_555 1_555
C30_8 C31_8 1_555 1_555
C30_8 N2_8 1_555 1_555
C24_8 H36_8 1_555 1_555
C8_8 C5_8 1_555 1_555
C13_8 C12_8 1_555 1_555
H6_8 C13_8 1_555 1_555
C14_8 C13_8 1_555 1_555
C16_8 C14_8 1_555 1_555
C36_8 N4_8 1_555 1_555
C37_8 H21_8 1_555 1_555
H22_8 C37_8 1_555 1_555
H23_8 C37_8 1_555 1_555
C38_8 H24_8 1_555 1_555
H25_8 C38_8 1_555 1_555
H26_8 C38_8 1_555 1_555
N1_8 C8_8 1_555 1_555
N4_8 C37_8 1_555 1_555
O17_4 C16_8 1_555 1_555
C12_8 N1_8 1_555 1_555
C36_8 O14_8 1_555 1_555
C38_8 N4_8 1_555 1_555
C36_8 H35_8 1_555 1_555
C8_8 H37_8 1_555 1_555
Cd8 O4_8 1_555 1_555
Cd12 O4_8 1_555 1_555
C9_8 C10_8 1_555 1_555
C10_8 C11_8 1_555 1_555
C11_8 H5_8 1_555 1_555
C15_8 C10_8 1_555 1_555
H7_8 C15_8 1_555 1_555
O16 C9_8 1_555 1_555
O4_8 C9_8 1_555 1_555
O13_8 Cd8 1_555 1_555
C33_8 O13_8 1_555 1_555
C33_8 H33_8 1_555 1_555
H11_7 C23_7 1_555 1_555
C34_5 H15_5 1_555 1_555
H16_5 C34_5 1_555 1_555
H17_5 C34_5 1_555 1_555
C35_5 H18_5 1_555 1_555
H19_5 C35_5 1_555 1_555
H20_5 C35_5 1_555 1_555
C39_5 N5_5 1_555 1_555
C40_5 H27_5 1_555 1_555
H28_5 C40_5 1_555 1_555
H29_5 C40_5 1_555 1_555
C41_5 H30_5 1_555 1_555
H31_5 C41_5 1_555 1_555
H32_5 C41_5 1_555 1_555
N3_5 C34_5 1_555 1_555
N5_5 C40_5 1_555 1_555
C35_5 N3_5 1_555 1_555
C39_5 O15_5 1_555 1_555
C41_5 N5_5 1_555 1_555
C39_5 H34_5 1_555 1_555
C34_6 H15_6 1_555 1_555
H16_6 C34_6 1_555 1_555
H17_6 C34_6 1_555 1_555
C35_6 H18_6 1_555 1_555
H19_6 C35_6 1_555 1_555
H20_6 C35_6 1_555 1_555
C40_6 H27_6 1_555 1_555
H29_6 C40_6 1_555 1_555
N3_6 C34_6 1_555 1_555
C35_6 N3_6 1_555 1_555
C39_6 N5_6 1_555 1_555
C41_6 H30_6 1_555 1_555
H31_6 C41_6 1_555 1_555
H32_6 C41_6 1_555 1_555
C41_6 N5_6 1_555 1_555
C39_6 H34_6 1_555 1_555
H11_8 C23_8 1_555 1_555
C34_7 H15_7 1_555 1_555
H16_7 C34_7 1_555 1_555
H17_7 C34_7 1_555 1_555
C35_7 H18_7 1_555 1_555
H19_7 C35_7 1_555 1_555
H20_7 C35_7 1_555 1_555
C39_7 N5_7 1_555 1_555
C40_7 H27_7 1_555 1_555
H28_7 C40_7 1_555 1_555
H29_7 C40_7 1_555 1_555
C41_7 H30_7 1_555 1_555
H31_7 C41_7 1_555 1_555
H32_7 C41_7 1_555 1_555
N3_7 C34_7 1_555 1_555
N5_7 C40_7 1_555 1_555
C35_7 N3_7 1_555 1_555
C39_7 O15_7 1_555 1_555
C41_7 N5_7 1_555 1_555
C39_7 H34_7 1_555 1_555
C39_8 N5_8 1_555 1_555
C41_8 H30_8 1_555 1_555
H31_8 C41_8 1_555 1_555
H32_8 C41_8 1_555 1_555
C41_8 N5_8 1_555 1_555
C39_8 H34_8 1_555 1_555
C34_8 H15_8 1_555 1_555
H16_8 C34_8 1_555 1_555
H17_8 C34_8 1_555 1_555
C35_8 H18_8 1_555 1_555
H19_8 C35_8 1_555 1_555
H20_8 C35_8 1_555 1_555
C40_8 H27_8 1_555 1_555
H29_8 C40_8 1_555 1_555
N3_8 C34_8 1_555 1_555
C35_8 N3_8 1_555 1_555

#END
