
###############################################################################
#
# This file contains modified crystal structure data generated from the
# MOF subset of the Cambridge Structural Database (CSD) v543 
# hosted by the Cambridge Crystallographic Data Centre (CCDC).
#
# This work is licensed under the Creative Commons
# Attribution-NonCommercial-ShareAlike 4.0 International License.
# To view a copy of this license, visit
# http://creativecommons.org/licenses/by-nc-sa/4.0/
# or send a letter to
# Creative Commons, PO Box 1866, Mountain View, CA 94042, USA.
#
# CIF created using the CSD Python API on 29 September 2022
# The structure has been converted into the P1 space group
# The structure has a 3D framework
# The original CSD entry REHHOD is in the monoclinic crystal system
# The framework has been calculated to contain at least 10.0% void space
# The void calculation uses a probe of radius 1.32A, grid spacing 0.4
# H atom positions have been added when not included in the experimental data
#
###############################################################################

data_REHHOD
_chemical_formula_moiety         '(C328 H296 Cd22 N40 O117)n'
_symmetry_cell_setting           triclinic
_symmetry_space_group_name_H-M   'P 1'
_symmetry_Int_Tables_number      1
_space_group_name_Hall           'P 1'
loop_
_symmetry_equiv_pos_site_id
_symmetry_equiv_pos_as_xyz
1 x,y,z
_cell_length_a                   34.799(2)
_cell_length_b                   18.4666(11)
_cell_length_c                   23.031(2)
_cell_angle_alpha                90
_cell_angle_beta                 118.787(10)
_cell_angle_gamma                90
_cell_volume                     12971.1
loop_
_atom_site_label
_atom_site_type_symbol
_atom_site_fract_x
_atom_site_fract_y
_atom_site_fract_z
Cd3 Cd 0.179180(12) 0.37804(2) 0.17781(2)
O3 O 0.28009(14) 0.0972(3) 0.0022(2)
O5 O 0.18647(13) 0.3333(2) 0.0894(2)
O6 O 0.25518(13) 0.2912(2) 0.1281(2)
O13 O 0.37911(15) 0.0983(3) 0.0621(2)
O15 O 0.18525(17) 0.4536(3) 0.2575(3)
N3 N 0.4010(2) 0.1745(4) 0.1526(3)
N5 N 0.2341(2) 0.5391(4) 0.3330(4)
C11 C 0.22530(16) 0.1886(3) 0.0249(3)
H5 H 0.2554 0.1956 0.0499
C12 C 0.19699(17) 0.2295(3) 0.0383(3)
C13 C 0.15169(19) 0.2182(3) 0.0017(3)
H6 H 0.1327 0.2453 0.0107
C16 C 0.21469(17) 0.2886(3) 0.0897(3)
C33 C 0.3689(2) 0.1404(4) 0.0943(3)
C34 C 0.4473(3) 0.1653(7) 0.1750(6)
H15 H 0.4639 0.1929 0.2149
H16 H 0.4539 0.1819 0.1413
H17 H 0.4548 0.1150 0.1839
C35 C 0.3871(4) 0.2250(6) 0.1869(5)
H18 H 0.4124 0.2443 0.2248
H19 H 0.3688 0.2005 0.2013
H20 H 0.3709 0.2638 0.1575
C39 C 0.2236(2) 0.4740(4) 0.2945(4)
C40 C 0.1990(3) 0.5817(6) 0.3317(6)
H27 H 0.2110 0.6228 0.3604
H28 H 0.1801 0.5980 0.2872
H29 H 0.1824 0.5527 0.3465
C41 C 0.2802(3) 0.5581(6) 0.3708(5)
H30 H 0.2833 0.6019 0.3952
H31 H 0.2959 0.5197 0.4012
H32 H 0.2920 0.5653 0.3411
Cd5 Cd 0.289832(11) 0.38942(2) 0.19427(2)
Cd7 Cd 0.176410(12) 0.44537(2) 0.03547(2)
O19 O 0.10887(17) 0.3695(4) 0.1137(3)
O22 O 0.21723(12) 0.4649(2) 0.1517(2)
O23 O 0.19959(14) 0.2670(2) 0.2242(3)
O25 O 0.25667(14) 0.3393(2) 0.2524(2)
H35 H 0.334369 0.151444 0.0773257
H37 H 0.250404 0.440754 0.297716
Cd2 Cd 0.323590(12) 0.05463(2) 0.96453(2)
O4 O 0.22477(15) 0.0591(2) 0.9057(2)
N1 N 0.08977(16) 0.1538(3) 0.9108(3)
H2 H 0.0031 0.1594 0.9729
C5 C 0.0164(2) 0.1481(4) 0.8962(4)
H3 H 0.0146 0.1236 0.8091
C8 C 0.0642(2) 0.1567(4) 0.9370(4)
C9 C 0.23924(19) 0.0945(3) 0.9588(3)
C10 C 0.20901(18) 0.1375(3) 0.9743(3)
C14 C 0.13530(18) 0.1668(3) 0.9521(3)
C15 C 0.16353(19) 0.1277(3) 0.9366(3)
H7 H 0.1522 0.0952 0.9013
Cd4 Cd 0.210168(11) 0.11058(2) 0.80573(2)
O17 O 0.31353(13) 0.1667(2) 0.9106(2)
O20 O 0.38175(14) 0.0439(3) 0.9435(3)
O21 O 0.28277(12) 0.0351(2) 0.8483(2)
H33 H 0.0782663 0.165648 0.990099
Cd1 Cd 0.789832(11) 0.11058(2) 0.69427(2)
O1 O 0.85405(18) 0.1165(3) 0.8082(3)
O2 O 0.86042(19) 0.1280(4) 0.7190(3)
O9 O 0.71723(12) 0.0351(2) 0.6517(2)
C1 C 0.8768(2) 0.1234(4) 0.7786(5)
C2 C 0.9260(2) 0.1313(4) 0.8218(4)
C3 C 0.9448(3) 0.1444(5) 0.8885(5)
H1 H 0.9271 0.1484 0.9084
C4 C 0.9904(3) 0.1520(5) 0.9273(4)
C6 C 0.9971(2) 0.1308(5) 0.8290(4)
C7 C 0.9523(2) 0.1244(5) 0.7921(4)
H4 H 0.9395 0.1153 0.7467
Cd9 Cd 0.676410(12) 0.05463(2) 0.53547(2)
Cd11 Cd 0.679180(12) 0.12196(2) 0.67781(2)
O16 O 0.77523(15) 0.0591(2) 0.5943(2)
O18 O 0.75518(13) 0.2088(2) 0.6281(2)
O24 O 0.75667(14) 0.1607(2) 0.7524(2)
O7 O 0.39113(17) 0.8695(4) 0.3863(3)
O8 O 0.38175(14) 0.9561(3) 0.4435(3)
O10 O 0.78295(14) 0.9925(2) 0.7211(2)
O11 O 0.80041(14) 0.7330(2) 0.7758(3)
O12 O 0.74333(14) 0.6607(2) 0.7476(2)
N2 N 0.61227(16) 0.8300(3) 0.6196(3)
C17 C 0.4054(2) 0.9088(4) 0.4369(4)
C18 C 0.4520(2) 0.8994(4) 0.4890(4)
C19 C 0.4722(3) 0.9488(5) 0.5379(5)
H8 H 0.4564 0.9879 0.5411
C20 C 0.5165(2) 0.9414(5) 0.5833(4)
H9 H 0.5301 0.9755 0.6169
C21 C 0.5404(2) 0.8842(4) 0.5791(4)
C22 C 0.5194(3) 0.8334(4) 0.5306(6)
H10 H 0.5347 0.7936 0.5278
C23 C 0.4759(3) 0.8412(5) 0.4864(6)
H11 H 0.4621 0.8063 0.4537
C24 C 0.5885(2) 0.8817(4) 0.6237(4)
C25 C 0.74322(19) 0.9831(3) 0.6862(3)
C26 C 0.72245(19) 0.9123(3) 0.6858(3)
C27 C 0.74938(17) 0.8522(3) 0.7164(3)
H12 H 0.7797 0.8568 0.7371
C28 C 0.73005(18) 0.7852(3) 0.7154(3)
C29 C 0.68462(19) 0.7774(3) 0.6839(3)
H13 H 0.6719 0.7327 0.6827
C30 C 0.65820(19) 0.8387(3) 0.6539(3)
C31 C 0.67749(19) 0.9049(3) 0.6551(3)
H14 H 0.6598 0.9449 0.6349
C32 C 0.75983(18) 0.7220(3) 0.7486(3)
Cd6 Cd 0.710168(11) 0.61058(2) 0.80573(2)
Cd8 Cd 0.323590(12) 0.94537(2) 0.46453(2)
Cd10 Cd 0.320820(12) 0.87804(2) 0.32219(2)
Cd12 Cd 0.820820(12) 0.62196(2) 0.82219(2)
H34 H 0.60412 0.924123 0.660578
O1_2 O 0.14595(18) 0.1165(3) 0.6918(3)
O2_2 O 0.13958(19) 0.1280(4) 0.7810(3)
C1_2 C 0.1232(2) 0.1234(4) 0.7214(5)
C2_2 C 0.0740(2) 0.1313(4) 0.6782(4)
C3_2 C 0.0552(3) 0.1444(5) 0.6115(5)
H1_2 H 0.0729 0.1484 0.5916
C4_2 C 0.0096(3) 0.1520(5) 0.5727(4)
C6_2 C 0.0029(2) 0.1308(5) 0.6710(4)
C7_2 C 0.0477(2) 0.1244(5) 0.7079(4)
H4_2 H 0.0605 0.1153 0.7533
Cd11_2 Cd 0.320820(12) 0.12196(2) 0.82219(2)
O18_2 O 0.24482(13) 0.2088(2) 0.8719(2)
O24_2 O 0.24333(14) 0.1607(2) 0.7476(2)
O7_2 O 0.60887(17) 0.8695(4) 0.1137(3)
O8_2 O 0.61825(14) 0.9561(3) 0.0565(3)
C17_2 C 0.5946(2) 0.9088(4) 0.0631(4)
C18_2 C 0.5480(2) 0.8994(4) 0.0110(4)
C23_2 C 0.5241(3) 0.8412(5) 0.0136(6)
H11_2 H 0.5379 0.8063 0.0463
Cd8_2 Cd 0.676410(12) 0.94537(2) 0.03547(2)
Cd10_2 Cd 0.679180(12) 0.87804(2) 0.17781(2)
O10_2 O 0.21705(14) 0.9925(2) 0.7789(2)
O11_2 O 0.19959(14) 0.7330(2) 0.7242(3)
O12_2 O 0.25667(14) 0.6607(2) 0.7524(2)
N2_2 N 0.38773(16) 0.8300(3) 0.8804(3)
C19_2 C 0.5278(3) 0.9488(5) 0.9621(5)
H8_2 H 0.5436 0.9879 0.9589
C20_2 C 0.4835(2) 0.9414(5) 0.9167(4)
H9_2 H 0.4699 0.9755 0.8831
C21_2 C 0.4596(2) 0.8842(4) 0.9209(4)
C22_2 C 0.4806(3) 0.8334(4) 0.9694(6)
H10_2 H 0.4653 0.7936 0.9722
C24_2 C 0.4115(2) 0.8817(4) 0.8763(4)
C25_2 C 0.25678(19) 0.9831(3) 0.8138(3)
C26_2 C 0.27755(19) 0.9123(3) 0.8142(3)
C27_2 C 0.25062(17) 0.8522(3) 0.7836(3)
H12_2 H 0.2203 0.8568 0.7629
C28_2 C 0.26995(18) 0.7852(3) 0.7846(3)
C29_2 C 0.31538(19) 0.7774(3) 0.8161(3)
H13_2 H 0.3281 0.7327 0.8173
C30_2 C 0.34180(19) 0.8387(3) 0.8461(3)
C31_2 C 0.32251(19) 0.9049(3) 0.8449(3)
H14_2 H 0.3402 0.9449 0.8651
C32_2 C 0.24017(18) 0.7220(3) 0.7514(3)
Cd6_2 Cd 0.289832(11) 0.61058(2) 0.69427(2)
Cd12_2 Cd 0.179180(12) 0.62196(2) 0.67781(2)
H34_2 H 0.39588 0.924123 0.839422
Cd3_2 Cd 0.820820(12) 0.37804(2) 0.32219(2)
O3_2 O 0.71991(14) 0.0972(3) 0.4978(2)
O5_2 O 0.81353(13) 0.3333(2) 0.4106(2)
O6_2 O 0.74482(13) 0.2912(2) 0.3719(2)
O13_2 O 0.62089(15) 0.0983(3) 0.4379(2)
O15_2 O 0.81475(17) 0.4536(3) 0.2425(3)
N1_2 N 0.91023(16) 0.1538(3) 0.5892(3)
N3_2 N 0.5990(2) 0.1745(4) 0.3474(3)
N5_2 N 0.7659(2) 0.5391(4) 0.1670(4)
H2_2 H 0.9969 0.1594 0.5271
C5_2 C 0.9836(2) 0.1481(4) 0.6038(4)
H3_2 H 0.9854 0.1236 0.6909
C8_2 C 0.9358(2) 0.1567(4) 0.5630(4)
C9_2 C 0.76076(19) 0.0945(3) 0.5412(3)
C10_2 C 0.79099(18) 0.1375(3) 0.5257(3)
C11_2 C 0.77470(16) 0.1886(3) 0.4751(3)
H5_2 H 0.7446 0.1956 0.4501
C12_2 C 0.80301(17) 0.2295(3) 0.4617(3)
C13_2 C 0.84831(19) 0.2182(3) 0.4983(3)
H6_2 H 0.8673 0.2453 0.4893
C14_2 C 0.86470(18) 0.1668(3) 0.5479(3)
C15_2 C 0.83647(19) 0.1277(3) 0.5634(3)
H7_2 H 0.8478 0.0952 0.5987
C16_2 C 0.78531(17) 0.2886(3) 0.4103(3)
C33_2 C 0.6311(2) 0.1404(4) 0.4057(3)
C34_2 C 0.5527(3) 0.1653(7) 0.3250(6)
H15_2 H 0.5361 0.1929 0.2851
H16_2 H 0.5461 0.1819 0.3587
H17_2 H 0.5452 0.1150 0.3161
C35_2 C 0.6129(4) 0.2250(6) 0.3131(5)
H18_2 H 0.5876 0.2443 0.2752
H19_2 H 0.6312 0.2005 0.2987
H20_2 H 0.6291 0.2638 0.3425
C39_2 C 0.7764(2) 0.4740(4) 0.2055(4)
C40_2 C 0.8010(3) 0.5817(6) 0.1683(6)
H27_2 H 0.7890 0.6228 0.1396
H28_2 H 0.8199 0.5980 0.2128
H29_2 H 0.8176 0.5527 0.1535
C41_2 C 0.7198(3) 0.5581(6) 0.1292(5)
H30_2 H 0.7167 0.6019 0.1048
H31_2 H 0.7041 0.5197 0.0988
H32_2 H 0.7080 0.5653 0.1589
Cd5_2 Cd 0.710168(11) 0.38942(2) 0.30573(2)
Cd7_2 Cd 0.823590(12) 0.44537(2) 0.46453(2)
O17_2 O 0.68647(13) 0.1667(2) 0.5894(2)
O19_2 O 0.89113(17) 0.3695(4) 0.3863(3)
O20_2 O 0.61825(14) 0.0439(3) 0.5565(3)
O22_2 O 0.78277(12) 0.4649(2) 0.3483(2)
O23_2 O 0.80041(14) 0.2670(2) 0.2758(3)
O25_2 O 0.74333(14) 0.3393(2) 0.2476(2)
H33_2 H 0.921734 0.165648 0.509901
H35_2 H 0.665631 0.151444 0.422674
H37_2 H 0.749596 0.440754 0.202284
O3_3 O 0.78009(14) 0.5972(3) 0.0022(2)
O5_3 O 0.68647(13) 0.8333(2) 0.0894(2)
O6_3 O 0.75518(13) 0.7912(2) 0.1281(2)
O13_3 O 0.87911(15) 0.5983(3) 0.0621(2)
O15_3 O 0.68525(17) 0.9536(3) 0.2575(3)
N3_3 N 0.9010(2) 0.6745(4) 0.1526(3)
N4 N 0.8607(4) 0.3231(6) 0.0121(6)
C11_3 C 0.72530(16) 0.6886(3) 0.0249(3)
H5_3 H 0.7554 0.6956 0.0499
C12_3 C 0.69699(17) 0.7295(3) 0.0383(3)
C13_3 C 0.65169(19) 0.7182(3) 0.0017(3)
H6_3 H 0.6327 0.7453 0.0107
C16_3 C 0.71469(17) 0.7886(3) 0.0897(3)
C33_3 C 0.8689(2) 0.6404(4) 0.0943(3)
C34_3 C 0.9473(3) 0.6653(7) 0.1750(6)
H15_3 H 0.9639 0.6929 0.2149
H16_3 H 0.9539 0.6819 0.1413
H17_3 H 0.9548 0.6150 0.1839
C35_3 C 0.8871(4) 0.7250(6) 0.1869(5)
H18_3 H 0.9124 0.7443 0.2248
H19_3 H 0.8688 0.7005 0.2013
H20_3 H 0.8709 0.7638 0.1575
C36 C 0.8621(3) 0.4011(6) 0.0073(7)
C37 C 0.9014(5) 0.2853(11) 0.0305(10)
H21 H 0.8971 0.2342 0.0327
H22 H 0.9236 0.3021 0.0730
H25 H 0.8175 0.2568 0.0177
C39_3 C 0.7236(2) 0.9740(4) 0.2945(4)
Cd5_3 Cd 0.789832(11) 0.88942(2) 0.19427(2)
O22_3 O 0.71723(12) 0.9649(2) 0.1517(2)
O23_3 O 0.69959(14) 0.7670(2) 0.2242(3)
O25_3 O 0.75667(14) 0.8393(2) 0.2524(2)
H35_3 H 0.834369 0.651444 0.0773257
H36 H 0.892806 0.427795 0.0184956
H37_3 H 0.750404 0.940754 0.297716
Cd2_2 Cd 0.823590(12) 0.55463(2) 0.96453(2)
O1_3 O 0.35405(18) 0.6165(3) 0.8082(3)
O2_3 O 0.36042(19) 0.6280(4) 0.7190(3)
O4_2 O 0.72477(15) 0.5591(2) 0.9057(2)
O9_2 O 0.21723(12) 0.5351(2) 0.6517(2)
O10_3 O 0.28295(14) 0.4925(2) 0.7211(2)
O11_3 O 0.30041(14) 0.2330(2) 0.7758(3)
O14 O 0.8281(2) 0.4381(3) 0.9903(3)
N1_3 N 0.58977(16) 0.6538(3) 0.9108(3)
N2_3 N 0.11227(16) 0.3300(3) 0.6196(3)
C1_3 C 0.3768(2) 0.6234(4) 0.7786(5)
C2_3 C 0.4260(2) 0.6313(4) 0.8218(4)
C3_3 C 0.4448(3) 0.6444(5) 0.8885(5)
H1_3 H 0.4271 0.6484 0.9084
C4_3 C 0.4904(3) 0.6520(5) 0.9273(4)
H2_3 H 0.5031 0.6594 0.9729
C5_3 C 0.5164(2) 0.6481(4) 0.8962(4)
C6_3 C 0.4971(2) 0.6308(5) 0.8290(4)
H3_3 H 0.5146 0.6236 0.8091
C7_3 C 0.4523(2) 0.6244(5) 0.7921(4)
H4_3 H 0.4395 0.6153 0.7467
C8_3 C 0.5642(2) 0.6567(4) 0.9370(4)
C9_3 C 0.73924(19) 0.5945(3) 0.9588(3)
C10_3 C 0.70901(18) 0.6375(3) 0.9743(3)
C14_3 C 0.63530(18) 0.6668(3) 0.9521(3)
C15_3 C 0.66353(19) 0.6277(3) 0.9366(3)
H7_3 H 0.6522 0.5952 0.9013
C20_3 C 0.0165(2) 0.4414(5) 0.5833(4)
H9_3 H 0.0301 0.4755 0.6169
C21_3 C 0.0404(2) 0.3842(4) 0.5791(4)
C22_3 C 0.0194(3) 0.3334(4) 0.5306(6)
H10_3 H 0.0347 0.2936 0.5278
C24_3 C 0.0885(2) 0.3817(4) 0.6237(4)
C25_3 C 0.24322(19) 0.4831(3) 0.6862(3)
C26_3 C 0.22245(19) 0.4123(3) 0.6858(3)
C27_3 C 0.24938(17) 0.3522(3) 0.7164(3)
H12_3 H 0.2797 0.3568 0.7371
C28_3 C 0.23005(18) 0.2852(3) 0.7154(3)
C29_3 C 0.18462(19) 0.2774(3) 0.6839(3)
H13_3 H 0.1719 0.2327 0.6827
C30_3 C 0.15820(19) 0.3387(3) 0.6539(3)
C31_3 C 0.17749(19) 0.4049(3) 0.6551(3)
H14_3 H 0.1598 0.4449 0.6349
C32_3 C 0.25983(18) 0.2220(3) 0.7486(3)
H23 H 0.9106 0.2944 0.9978
C38 C 0.8172(5) 0.2920(12) 0.9868(10)
H24 H 0.7966 0.3296 0.9810
H26 H 0.8088 0.2690 0.9449
Cd9_2 Cd 0.176410(12) 0.55463(2) 0.53547(2)
O16_2 O 0.27523(15) 0.5591(2) 0.5943(2)
O17_3 O 0.81353(13) 0.6667(2) 0.9106(2)
O18_3 O 0.25518(13) 0.7088(2) 0.6281(2)
O20_3 O 0.88175(14) 0.5439(3) 0.9435(3)
O21_2 O 0.78277(12) 0.5351(2) 0.8483(2)
H33_3 H 0.578266 0.665648 0.990099
H34_3 H 0.10412 0.424123 0.660578
O8_3 O 0.88175(14) 0.4561(3) 0.4435(3)
C17_3 C 0.9054(2) 0.4088(4) 0.4369(4)
C18_3 C 0.9520(2) 0.3994(4) 0.4890(4)
C19_3 C 0.9722(3) 0.4488(5) 0.5379(5)
H8_3 H 0.9564 0.4879 0.5411
C23_3 C 0.9759(3) 0.3412(5) 0.4864(6)
H11_3 H 0.9621 0.3063 0.4537
O8_4 O 0.11825(14) 0.4561(3) 0.0565(3)
C17_4 C 0.0946(2) 0.4088(4) 0.0631(4)
C18_4 C 0.0480(2) 0.3994(4) 0.0110(4)
C23_4 C 0.0241(3) 0.3412(5) 0.0136(6)
H11_4 H 0.0379 0.3063 0.0463
O1_4 O 0.64595(18) 0.6165(3) 0.6918(3)
O2_4 O 0.63958(19) 0.6280(4) 0.7810(3)
O3_4 O 0.21991(14) 0.5972(3) 0.4978(2)
O5_4 O 0.31353(13) 0.8333(2) 0.4106(2)
O6_4 O 0.24482(13) 0.7912(2) 0.3719(2)
O10_4 O 0.71705(14) 0.4925(2) 0.7789(2)
O11_4 O 0.69959(14) 0.2330(2) 0.7242(3)
O13_4 O 0.12089(15) 0.5983(3) 0.4379(2)
O14_2 O 0.1719(2) 0.4381(3) 0.5097(3)
O15_4 O 0.31475(17) 0.9536(3) 0.2425(3)
N1_4 N 0.41023(16) 0.6538(3) 0.5892(3)
N2_4 N 0.88773(16) 0.3300(3) 0.8804(3)
N3_4 N 0.0990(2) 0.6745(4) 0.3474(3)
N4_2 N 0.1393(4) 0.3231(6) 0.4879(6)
C1_4 C 0.6232(2) 0.6234(4) 0.7214(5)
C2_4 C 0.5740(2) 0.6313(4) 0.6782(4)
C3_4 C 0.5552(3) 0.6444(5) 0.6115(5)
H1_4 H 0.5729 0.6484 0.5916
C4_4 C 0.5096(3) 0.6520(5) 0.5727(4)
H2_4 H 0.4969 0.6594 0.5271
C5_4 C 0.4836(2) 0.6481(4) 0.6038(4)
C6_4 C 0.5029(2) 0.6308(5) 0.6710(4)
H3_4 H 0.4854 0.6236 0.6909
C7_4 C 0.5477(2) 0.6244(5) 0.7079(4)
H4_4 H 0.5605 0.6153 0.7533
C8_4 C 0.4358(2) 0.6567(4) 0.5630(4)
C9_4 C 0.26076(19) 0.5945(3) 0.5412(3)
C10_4 C 0.29099(18) 0.6375(3) 0.5257(3)
C11_4 C 0.27470(16) 0.6886(3) 0.4751(3)
H5_4 H 0.2446 0.6956 0.4501
C12_4 C 0.30301(17) 0.7295(3) 0.4617(3)
C13_4 C 0.34831(19) 0.7182(3) 0.4983(3)
H6_4 H 0.3673 0.7453 0.4893
C14_4 C 0.36470(18) 0.6668(3) 0.5479(3)
C15_4 C 0.33647(19) 0.6277(3) 0.5634(3)
H7_4 H 0.3478 0.5952 0.5987
C16_4 C 0.28531(17) 0.7886(3) 0.4103(3)
C20_4 C 0.9835(2) 0.4414(5) 0.9167(4)
H9_4 H 0.9699 0.4755 0.8831
C21_4 C 0.9596(2) 0.3842(4) 0.9209(4)
C22_4 C 0.9806(3) 0.3334(4) 0.9694(6)
H10_4 H 0.9653 0.2936 0.9722
C24_4 C 0.9115(2) 0.3817(4) 0.8763(4)
C25_4 C 0.75678(19) 0.4831(3) 0.8138(3)
C26_4 C 0.77755(19) 0.4123(3) 0.8142(3)
C27_4 C 0.75062(17) 0.3522(3) 0.7836(3)
H12_4 H 0.7203 0.3568 0.7629
C28_4 C 0.76995(18) 0.2852(3) 0.7846(3)
C29_4 C 0.81538(19) 0.2774(3) 0.8161(3)
H13_4 H 0.8281 0.2327 0.8173
C30_4 C 0.84180(19) 0.3387(3) 0.8461(3)
C31_4 C 0.82251(19) 0.4049(3) 0.8449(3)
H14_4 H 0.8402 0.4449 0.8651
C32_4 C 0.74017(18) 0.2220(3) 0.7514(3)
C33_4 C 0.1311(2) 0.6404(4) 0.4057(3)
C34_4 C 0.0527(3) 0.6653(7) 0.3250(6)
H15_4 H 0.0361 0.6929 0.2851
H16_4 H 0.0461 0.6819 0.3587
H17_4 H 0.0452 0.6150 0.3161
C35_4 C 0.1129(4) 0.7250(6) 0.3131(5)
H18_4 H 0.0876 0.7443 0.2752
H19_4 H 0.1312 0.7005 0.2987
H20_4 H 0.1291 0.7638 0.3425
C36_2 C 0.1379(3) 0.4011(6) 0.4927(7)
C37_2 C 0.0986(5) 0.2853(11) 0.4695(10)
H21_2 H 0.1029 0.2342 0.4673
H22_2 H 0.0764 0.3021 0.4270
H23_2 H 0.0894 0.2944 0.5022
C38_2 C 0.1828(5) 0.2920(12) 0.5132(10)
H24_2 H 0.2034 0.3296 0.5190
H25_2 H 0.1825 0.2568 0.4823
H26_2 H 0.1912 0.2690 0.5551
C39_4 C 0.2764(2) 0.9740(4) 0.2055(4)
Cd5_4 Cd 0.210168(11) 0.88942(2) 0.30573(2)
O17_4 O 0.18647(13) 0.6667(2) 0.5894(2)
O18_4 O 0.74482(13) 0.7088(2) 0.8719(2)
O20_4 O 0.11825(14) 0.5439(3) 0.5565(3)
O22_4 O 0.28277(12) 0.9649(2) 0.3483(2)
O23_4 O 0.30041(14) 0.7670(2) 0.2758(3)
O25_4 O 0.24333(14) 0.8393(2) 0.2476(2)
H33_4 H 0.421734 0.665648 0.509901
H34_4 H 0.89588 0.424123 0.839422
H35_4 H 0.165631 0.651444 0.422674
H36_2 H 0.107194 0.427795 0.481504
H37_4 H 0.249596 0.940754 0.202284
O7_3 O 0.60887(17) 0.1305(4) 0.6137(3)
O10_5 O 0.21705(14) 0.0075(2) 0.2789(2)
N2_5 N 0.38773(16) 0.1700(3) 0.3804(3)
C17_5 C 0.5946(2) 0.0912(4) 0.5631(4)
C18_5 C 0.5480(2) 0.1006(4) 0.5110(4)
C19_4 C 0.5278(3) 0.0512(5) 0.4621(5)
H8_4 H 0.5436 0.0121 0.4589
C20_5 C 0.4835(2) 0.0586(5) 0.4167(4)
H9_5 H 0.4699 0.0245 0.3831
C21_5 C 0.4596(2) 0.1158(4) 0.4209(4)
C22_5 C 0.4806(3) 0.1666(4) 0.4694(6)
H10_5 H 0.4653 0.2064 0.4722
C23_5 C 0.5241(3) 0.1588(5) 0.5136(6)
H11_5 H 0.5379 0.1937 0.5463
C24_5 C 0.4115(2) 0.1183(4) 0.3763(4)
C25_5 C 0.25678(19) 0.0169(3) 0.3138(3)
C26_5 C 0.27755(19) 0.0877(3) 0.3142(3)
C27_5 C 0.25062(17) 0.1478(3) 0.2836(3)
H12_5 H 0.2203 0.1432 0.2629
C28_5 C 0.26995(18) 0.2148(3) 0.2846(3)
C29_5 C 0.31538(19) 0.2226(3) 0.3161(3)
H13_5 H 0.3281 0.2673 0.3173
C30_5 C 0.34180(19) 0.1613(3) 0.3461(3)
C31_5 C 0.32251(19) 0.0951(3) 0.3449(3)
H14_5 H 0.3402 0.0551 0.3651
C32_5 C 0.24017(18) 0.2780(3) 0.2514(3)
H34_5 H 0.39588 0.0758775 0.339422
O1_5 O 0.14595(18) 0.8835(3) 0.1918(3)
O2_5 O 0.13958(19) 0.8720(4) 0.2810(3)
C1_5 C 0.1232(2) 0.8766(4) 0.2214(5)
C2_5 C 0.0740(2) 0.8687(4) 0.1782(4)
C3_5 C 0.0552(3) 0.8556(5) 0.1115(5)
H1_5 H 0.0729 0.8516 0.0916
C4_5 C 0.0096(3) 0.8480(5) 0.0727(4)
C6_5 C 0.0029(2) 0.8692(5) 0.1710(4)
C7_5 C 0.0477(2) 0.8756(5) 0.2079(4)
H4_5 H 0.0605 0.8847 0.2533
O16_3 O 0.22477(15) 0.9409(2) 0.4057(2)
O4_3 O 0.77523(15) 0.9409(2) 0.0943(2)
N1_5 N 0.91023(16) 0.8462(3) 0.0892(3)
H2_5 H 0.9969 0.8406 0.0271
C5_5 C 0.9836(2) 0.8519(4) 0.1038(4)
H3_5 H 0.9854 0.8764 0.1909
C8_5 C 0.9358(2) 0.8433(4) 0.0630(4)
C9_5 C 0.76076(19) 0.9055(3) 0.0412(3)
C10_5 C 0.79099(18) 0.8625(3) 0.0257(3)
C14_5 C 0.86470(18) 0.8332(3) 0.0479(3)
C15_5 C 0.83647(19) 0.8723(3) 0.0634(3)
H7_5 H 0.8478 0.9048 0.0987
H33_5 H 0.921734 0.834352 0.00990102
O3_5 O 0.71991(14) 0.9028(3) 0.9978(2)
O13_5 O 0.62089(15) 0.9017(3) 0.9379(2)
O15_5 O 0.81475(17) 0.5464(3) 0.7425(3)
N3_5 N 0.5990(2) 0.8255(4) 0.8474(3)
N5_3 N 0.7659(2) 0.4609(4) 0.6670(4)
C11_5 C 0.77470(16) 0.8114(3) 0.9751(3)
H5_5 H 0.7446 0.8044 0.9501
C12_5 C 0.80301(17) 0.7705(3) 0.9617(3)
C13_5 C 0.84831(19) 0.7818(3) 0.9983(3)
H6_5 H 0.8673 0.7547 0.9893
C16_5 C 0.78531(17) 0.7114(3) 0.9103(3)
C33_5 C 0.6311(2) 0.8596(4) 0.9057(3)
C34_5 C 0.5527(3) 0.8347(7) 0.8250(6)
H15_5 H 0.5361 0.8071 0.7851
H16_5 H 0.5461 0.8181 0.8587
H17_5 H 0.5452 0.8850 0.8161
C35_5 C 0.6129(4) 0.7750(6) 0.8131(5)
H18_5 H 0.5876 0.7557 0.7752
H19_5 H 0.6312 0.7995 0.7987
H20_5 H 0.6291 0.7362 0.8425
C39_5 C 0.7764(2) 0.5260(4) 0.7055(4)
C40_3 C 0.8010(3) 0.4183(6) 0.6683(6)
H27_3 H 0.7890 0.3772 0.6396
H28_3 H 0.8199 0.4020 0.7128
H29_3 H 0.8176 0.4473 0.6535
C41_3 C 0.7198(3) 0.4419(6) 0.6292(5)
H30_3 H 0.7167 0.3981 0.6048
H31_3 H 0.7041 0.4803 0.5988
H32_3 H 0.7080 0.4347 0.6589
O19_3 O 0.89113(17) 0.6305(4) 0.8863(3)
H35_5 H 0.665631 0.848556 0.922674
H37_5 H 0.749596 0.559246 0.702284
O3_6 O 0.28009(14) 0.9028(3) 0.5022(2)
O13_6 O 0.37911(15) 0.9017(3) 0.5621(2)
O15_6 O 0.18525(17) 0.5464(3) 0.7575(3)
N1_6 N 0.08977(16) 0.8462(3) 0.4108(3)
N3_6 N 0.4010(2) 0.8255(4) 0.6526(3)
N5_4 N 0.2341(2) 0.4609(4) 0.8330(4)
H2_6 H 0.0031 0.8406 0.4729
C5_6 C 0.0164(2) 0.8519(4) 0.3962(4)
H3_6 H 0.0146 0.8764 0.3091
C8_6 C 0.0642(2) 0.8433(4) 0.4370(4)
C9_6 C 0.23924(19) 0.9055(3) 0.4588(3)
C10_6 C 0.20901(18) 0.8625(3) 0.4743(3)
C11_6 C 0.22530(16) 0.8114(3) 0.5249(3)
H5_6 H 0.2554 0.8044 0.5499
C12_6 C 0.19699(17) 0.7705(3) 0.5383(3)
C13_6 C 0.15169(19) 0.7818(3) 0.5017(3)
H6_6 H 0.1327 0.7547 0.5107
C14_6 C 0.13530(18) 0.8332(3) 0.4521(3)
C15_6 C 0.16353(19) 0.8723(3) 0.4366(3)
H7_6 H 0.1522 0.9048 0.4013
C16_6 C 0.21469(17) 0.7114(3) 0.5897(3)
C33_6 C 0.3689(2) 0.8596(4) 0.5943(3)
C34_6 C 0.4473(3) 0.8347(7) 0.6750(6)
H15_6 H 0.4639 0.8071 0.7149
H16_6 H 0.4539 0.8181 0.6413
H17_6 H 0.4548 0.8850 0.6839
C35_6 C 0.3871(4) 0.7750(6) 0.6869(5)
H18_6 H 0.4124 0.7557 0.7248
H19_6 H 0.3688 0.7995 0.7013
H20_6 H 0.3709 0.7362 0.6575
C39_6 C 0.2236(2) 0.5260(4) 0.7945(4)
C40_4 C 0.1990(3) 0.4183(6) 0.8317(6)
H27_4 H 0.2110 0.3772 0.8604
H28_4 H 0.1801 0.4020 0.7872
H29_4 H 0.1824 0.4473 0.8465
C41_4 C 0.2802(3) 0.4419(6) 0.8708(5)
H30_4 H 0.2833 0.3981 0.8952
H31_4 H 0.2959 0.4803 0.9012
H32_4 H 0.2920 0.4347 0.8411
O19_4 O 0.10887(17) 0.6305(4) 0.6137(3)
H33_6 H 0.0782663 0.834352 0.490099
H35_6 H 0.334369 0.848556 0.577326
H37_6 H 0.250404 0.559246 0.797716
O10_6 O 0.78295(14) 0.0075(2) 0.2211(2)
N2_6 N 0.61227(16) 0.1700(3) 0.1196(3)
C19_5 C 0.4722(3) 0.0512(5) 0.0379(5)
H8_5 H 0.4564 0.0121 0.0411
C20_6 C 0.5165(2) 0.0586(5) 0.0833(4)
H9_6 H 0.5301 0.0245 0.1169
C21_6 C 0.5404(2) 0.1158(4) 0.0791(4)
C22_6 C 0.5194(3) 0.1666(4) 0.0306(6)
H10_6 H 0.5347 0.2064 0.0278
C24_6 C 0.5885(2) 0.1183(4) 0.1237(4)
C25_6 C 0.74322(19) 0.0169(3) 0.1862(3)
C26_6 C 0.72245(19) 0.0877(3) 0.1858(3)
C27_6 C 0.74938(17) 0.1478(3) 0.2164(3)
H12_6 H 0.7797 0.1432 0.2371
C28_6 C 0.73005(18) 0.2148(3) 0.2154(3)
C29_6 C 0.68462(19) 0.2226(3) 0.1839(3)
H13_6 H 0.6719 0.2673 0.1827
C30_6 C 0.65820(19) 0.1613(3) 0.1539(3)
C31_6 C 0.67749(19) 0.0951(3) 0.1551(3)
H14_6 H 0.6598 0.0551 0.1349
C32_6 C 0.75983(18) 0.2780(3) 0.2486(3)
H34_6 H 0.60412 0.0758775 0.160578
O7_4 O 0.39113(17) 0.1305(4) 0.8863(3)
C17_6 C 0.4054(2) 0.0912(4) 0.9369(4)
C18_6 C 0.4520(2) 0.1006(4) 0.9890(4)
C23_6 C 0.4759(3) 0.1588(5) 0.9864(6)
H11_6 H 0.4621 0.1937 0.9537
O1_6 O 0.85405(18) 0.8835(3) 0.3082(3)
O2_6 O 0.86042(19) 0.8720(4) 0.2190(3)
C1_6 C 0.8768(2) 0.8766(4) 0.2786(5)
C2_6 C 0.9260(2) 0.8687(4) 0.3218(4)
C3_6 C 0.9448(3) 0.8556(5) 0.3885(5)
H1_6 H 0.9271 0.8516 0.4084
C4_6 C 0.9904(3) 0.8480(5) 0.4273(4)
C6_6 C 0.9971(2) 0.8692(5) 0.3290(4)
C7_6 C 0.9523(2) 0.8756(5) 0.2921(4)
H4_6 H 0.9395 0.8847 0.2467
C17_7 C 0.0946(2) 0.5912(4) 0.5631(4)
C18_7 C 0.0480(2) 0.6006(4) 0.5110(4)
C19_6 C 0.0278(3) 0.5512(5) 0.4621(5)
H8_6 H 0.0436 0.5121 0.4589
C23_7 C 0.0241(3) 0.6588(5) 0.5136(6)
H11_7 H 0.0379 0.6937 0.5463
O1_7 O 0.64595(18) 0.3835(3) 0.1918(3)
O2_7 O 0.63958(19) 0.3720(4) 0.2810(3)
O4_4 O 0.27523(15) 0.4409(2) 0.0943(2)
O10_7 O 0.71705(14) 0.5075(2) 0.2789(2)
O14_3 O 0.1719(2) 0.5619(3) 0.0097(3)
N1_7 N 0.41023(16) 0.3462(3) 0.0892(3)
N2_7 N 0.88773(16) 0.6700(3) 0.3804(3)
C1_7 C 0.6232(2) 0.3766(4) 0.2214(5)
C2_7 C 0.5740(2) 0.3687(4) 0.1782(4)
C3_7 C 0.5552(3) 0.3556(5) 0.1115(5)
H1_7 H 0.5729 0.3516 0.0916
C4_7 C 0.5096(3) 0.3480(5) 0.0727(4)
H2_7 H 0.4969 0.3406 0.0271
C5_7 C 0.4836(2) 0.3519(4) 0.1038(4)
C6_7 C 0.5029(2) 0.3692(5) 0.1710(4)
H3_7 H 0.4854 0.3764 0.1909
C7_7 C 0.5477(2) 0.3756(5) 0.2079(4)
H4_7 H 0.5605 0.3847 0.2533
C8_7 C 0.4358(2) 0.3433(4) 0.0630(4)
C9_7 C 0.26076(19) 0.4055(3) 0.0412(3)
C10_7 C 0.29099(18) 0.3625(3) 0.0257(3)
C14_7 C 0.36470(18) 0.3332(3) 0.0479(3)
C15_7 C 0.33647(19) 0.3723(3) 0.0634(3)
H7_7 H 0.3478 0.4048 0.0987
C20_7 C 0.9835(2) 0.5586(5) 0.4167(4)
H9_7 H 0.9699 0.5245 0.3831
C21_7 C 0.9596(2) 0.6158(4) 0.4209(4)
C22_7 C 0.9806(3) 0.6666(4) 0.4694(6)
H10_7 H 0.9653 0.7064 0.4722
C24_7 C 0.9115(2) 0.6183(4) 0.3763(4)
C25_7 C 0.75678(19) 0.5169(3) 0.3138(3)
C26_7 C 0.77755(19) 0.5877(3) 0.3142(3)
C27_7 C 0.75062(17) 0.6478(3) 0.2836(3)
H12_7 H 0.7203 0.6432 0.2629
C28_7 C 0.76995(18) 0.7148(3) 0.2846(3)
C29_7 C 0.81538(19) 0.7226(3) 0.3161(3)
H13_7 H 0.8281 0.7673 0.3173
C30_7 C 0.84180(19) 0.6613(3) 0.3461(3)
C31_7 C 0.82251(19) 0.5951(3) 0.3449(3)
H14_7 H 0.8402 0.5551 0.3651
C32_7 C 0.74017(18) 0.7780(3) 0.2514(3)
H23_3 H 0.0894 0.7056 0.0022
C38_3 C 0.1828(5) 0.7080(12) 0.0132(10)
H24_3 H 0.2034 0.6704 0.0190
H26_3 H 0.1912 0.7310 0.0551
O16_4 O 0.72477(15) 0.4409(2) 0.4057(2)
H33_7 H 0.421734 0.334352 0.00990102
H34_7 H 0.89588 0.575877 0.339422
O3_7 O 0.21991(14) 0.4028(3) 0.9978(2)
O13_7 O 0.12089(15) 0.4017(3) 0.9379(2)
O15_7 O 0.31475(17) 0.0464(3) 0.7425(3)
N3_7 N 0.0990(2) 0.3255(4) 0.8474(3)
N4_3 N 0.1393(4) 0.6769(6) 0.9879(6)
C11_7 C 0.27470(16) 0.3114(3) 0.9751(3)
H5_7 H 0.2446 0.3044 0.9501
C12_7 C 0.30301(17) 0.2705(3) 0.9617(3)
C13_7 C 0.34831(19) 0.2818(3) 0.9983(3)
H6_7 H 0.3673 0.2547 0.9893
C16_7 C 0.28531(17) 0.2114(3) 0.9103(3)
C33_7 C 0.1311(2) 0.3596(4) 0.9057(3)
C34_7 C 0.0527(3) 0.3347(7) 0.8250(6)
H15_7 H 0.0361 0.3071 0.7851
H16_7 H 0.0461 0.3181 0.8587
H17_7 H 0.0452 0.3850 0.8161
C35_7 C 0.1129(4) 0.2750(6) 0.8131(5)
H18_7 H 0.0876 0.2557 0.7752
H19_7 H 0.1312 0.2995 0.7987
H20_7 H 0.1291 0.2362 0.8425
C36_3 C 0.1379(3) 0.5989(6) 0.9927(7)
C37_3 C 0.0986(5) 0.7147(11) 0.9695(10)
H21_3 H 0.1029 0.7658 0.9673
H22_3 H 0.0764 0.6979 0.9270
H25_3 H 0.1825 0.7432 0.9823
C39_7 C 0.2764(2) 0.0260(4) 0.7055(4)
H35_7 H 0.165631 0.348556 0.922674
H36_3 H 0.107194 0.572205 0.981504
H37_7 H 0.249596 0.0592459 0.702284
O1_8 O 0.35405(18) 0.3835(3) 0.3082(3)
O2_8 O 0.36042(19) 0.3720(4) 0.2190(3)
O3_8 O 0.78009(14) 0.4028(3) 0.5022(2)
O10_8 O 0.28295(14) 0.5075(2) 0.2211(2)
O13_8 O 0.87911(15) 0.4017(3) 0.5621(2)
O14_4 O 0.8281(2) 0.5619(3) 0.4903(3)
O15_8 O 0.68525(17) 0.0464(3) 0.7575(3)
N1_8 N 0.58977(16) 0.3462(3) 0.4108(3)
N2_8 N 0.11227(16) 0.6700(3) 0.1196(3)
N3_8 N 0.9010(2) 0.3255(4) 0.6526(3)
N4_4 N 0.8607(4) 0.6769(6) 0.5121(6)
C1_8 C 0.3768(2) 0.3766(4) 0.2786(5)
C2_8 C 0.4260(2) 0.3687(4) 0.3218(4)
C3_8 C 0.4448(3) 0.3556(5) 0.3885(5)
H1_8 H 0.4271 0.3516 0.4084
C4_8 C 0.4904(3) 0.3480(5) 0.4273(4)
H2_8 H 0.5031 0.3406 0.4729
C5_8 C 0.5164(2) 0.3519(4) 0.3962(4)
C6_8 C 0.4971(2) 0.3692(5) 0.3290(4)
H3_8 H 0.5146 0.3764 0.3091
C7_8 C 0.4523(2) 0.3756(5) 0.2921(4)
H4_8 H 0.4395 0.3847 0.2467
C8_8 C 0.5642(2) 0.3433(4) 0.4370(4)
C9_8 C 0.73924(19) 0.4055(3) 0.4588(3)
C10_8 C 0.70901(18) 0.3625(3) 0.4743(3)
C11_8 C 0.72530(16) 0.3114(3) 0.5249(3)
H5_8 H 0.7554 0.3044 0.5499
C12_8 C 0.69699(17) 0.2705(3) 0.5383(3)
C13_8 C 0.65169(19) 0.2818(3) 0.5017(3)
H6_8 H 0.6327 0.2547 0.5107
C14_8 C 0.63530(18) 0.3332(3) 0.4521(3)
C15_8 C 0.66353(19) 0.3723(3) 0.4366(3)
H7_8 H 0.6522 0.4048 0.4013
C16_8 C 0.71469(17) 0.2114(3) 0.5897(3)
C20_8 C 0.0165(2) 0.5586(5) 0.0833(4)
H9_8 H 0.0301 0.5245 0.1169
C21_8 C 0.0404(2) 0.6158(4) 0.0791(4)
C22_8 C 0.0194(3) 0.6666(4) 0.0306(6)
H10_8 H 0.0347 0.7064 0.0278
C24_8 C 0.0885(2) 0.6183(4) 0.1237(4)
C25_8 C 0.24322(19) 0.5169(3) 0.1862(3)
C26_8 C 0.22245(19) 0.5877(3) 0.1858(3)
C27_8 C 0.24938(17) 0.6478(3) 0.2164(3)
H12_8 H 0.2797 0.6432 0.2371
C28_8 C 0.23005(18) 0.7148(3) 0.2154(3)
C29_8 C 0.18462(19) 0.7226(3) 0.1839(3)
H13_8 H 0.1719 0.7673 0.1827
C30_8 C 0.15820(19) 0.6613(3) 0.1539(3)
C31_8 C 0.17749(19) 0.5951(3) 0.1551(3)
H14_8 H 0.1598 0.5551 0.1349
C32_8 C 0.25983(18) 0.7780(3) 0.2486(3)
C33_8 C 0.8689(2) 0.3596(4) 0.5943(3)
C34_8 C 0.9473(3) 0.3347(7) 0.6750(6)
H15_8 H 0.9639 0.3071 0.7149
H16_8 H 0.9539 0.3181 0.6413
H17_8 H 0.9548 0.3850 0.6839
C35_8 C 0.8871(4) 0.2750(6) 0.6869(5)
H18_8 H 0.9124 0.2557 0.7248
H19_8 H 0.8688 0.2995 0.7013
H20_8 H 0.8709 0.2362 0.6575
C36_4 C 0.8621(3) 0.5989(6) 0.5073(7)
C37_4 C 0.9014(5) 0.7147(11) 0.5305(10)
H21_4 H 0.8971 0.7658 0.5327
H22_4 H 0.9236 0.6979 0.5730
H23_4 H 0.9106 0.7056 0.4978
C38_4 C 0.8172(5) 0.7080(12) 0.4868(10)
H24_4 H 0.7966 0.6704 0.4810
H25_4 H 0.8175 0.7432 0.5177
H26_4 H 0.8088 0.7310 0.4449
C39_8 C 0.7236(2) 0.0260(4) 0.7945(4)
H33_8 H 0.578266 0.334352 0.490099
H34_8 H 0.10412 0.575877 0.160578
H35_8 H 0.834369 0.348556 0.577326
H36_4 H 0.892806 0.572205 0.518496
H37_8 H 0.750404 0.0592459 0.797716
C17_8 C 0.9054(2) 0.5912(4) 0.9369(4)
C18_8 C 0.9520(2) 0.6006(4) 0.9890(4)
C23_8 C 0.9759(3) 0.6588(5) 0.9864(6)
H11_8 H 0.9621 0.6937 0.9537
N4_5 N 0.3607(4) 0.8231(6) 0.0121(6)
C36_5 C 0.3621(3) 0.9011(6) 0.0073(7)
C37_5 C 0.4014(5) 0.7853(11) 0.0305(10)
H21_5 H 0.3971 0.7342 0.0327
H22_5 H 0.4236 0.8021 0.0730
H25_5 H 0.3175 0.7568 0.0177
H36_5 H 0.392806 0.927795 0.0184956
O14_5 O 0.3281(2) 0.9381(3) 0.9903(3)
H23_5 H 0.4106 0.7944 0.9978
C38_5 C 0.3172(5) 0.7920(12) 0.9868(10)
H24_5 H 0.2966 0.8296 0.9810
H26_5 H 0.3088 0.7690 0.9449
O14_6 O 0.6719(2) 0.9381(3) 0.5097(3)
N4_6 N 0.6393(4) 0.8231(6) 0.4879(6)
C36_6 C 0.6379(3) 0.9011(6) 0.4927(7)
C37_6 C 0.5986(5) 0.7853(11) 0.4695(10)
H21_6 H 0.6029 0.7342 0.4673
H22_6 H 0.5764 0.8021 0.4270
H23_6 H 0.5894 0.7944 0.5022
C38_6 C 0.6828(5) 0.7920(12) 0.5132(10)
H24_6 H 0.7034 0.8296 0.5190
H25_6 H 0.6825 0.7568 0.4823
H26_6 H 0.6912 0.7690 0.5551
H36_6 H 0.607194 0.927795 0.481504
N5_5 N 0.7341(2) 0.0391(4) 0.3330(4)
C40_5 C 0.6990(3) 0.0817(6) 0.3317(6)
H27_5 H 0.7110 0.1228 0.3604
H28_5 H 0.6801 0.0980 0.2872
H29_5 H 0.6824 0.0527 0.3465
C41_5 C 0.7802(3) 0.0581(6) 0.3708(5)
H30_5 H 0.7833 0.1019 0.3952
H31_5 H 0.7959 0.0197 0.4012
H32_5 H 0.7920 0.0653 0.3411
C19_7 C 0.0278(3) 0.4488(5) 0.9621(5)
H8_7 H 0.0436 0.4879 0.9589
N5_6 N 0.2659(2) 0.0391(4) 0.1670(4)
C40_6 C 0.3010(3) 0.0817(6) 0.1683(6)
H27_6 H 0.2890 0.1228 0.1396
H28_6 H 0.3199 0.0980 0.2128
H29_6 H 0.3176 0.0527 0.1535
C41_6 C 0.2198(3) 0.0581(6) 0.1292(5)
H30_6 H 0.2167 0.1019 0.1048
H31_6 H 0.2041 0.0197 0.0988
H32_6 H 0.2080 0.0653 0.1589
O14_7 O 0.6719(2) 0.0619(3) 0.0097(3)
H23_7 H 0.5894 0.2056 0.0022
C38_7 C 0.6828(5) 0.2080(12) 0.0132(10)
H24_7 H 0.7034 0.1704 0.0190
H26_7 H 0.6912 0.2310 0.0551
N4_7 N 0.6393(4) 0.1769(6) 0.9879(6)
C36_7 C 0.6379(3) 0.0989(6) 0.9927(7)
C37_7 C 0.5986(5) 0.2147(11) 0.9695(10)
H21_7 H 0.6029 0.2658 0.9673
H22_7 H 0.5764 0.1979 0.9270
H25_7 H 0.6825 0.2432 0.9823
H36_7 H 0.607194 0.0722048 0.981504
O14_8 O 0.3281(2) 0.0619(3) 0.4903(3)
N4_8 N 0.3607(4) 0.1769(6) 0.5121(6)
C36_8 C 0.3621(3) 0.0989(6) 0.5073(7)
C37_8 C 0.4014(5) 0.2147(11) 0.5305(10)
H21_8 H 0.3971 0.2658 0.5327
H22_8 H 0.4236 0.1979 0.5730
H23_8 H 0.4106 0.2056 0.4978
C38_8 C 0.3172(5) 0.2080(12) 0.4868(10)
H24_8 H 0.2966 0.1704 0.4810
H25_8 H 0.3175 0.2432 0.5177
H26_8 H 0.3088 0.2310 0.4449
H36_8 H 0.392806 0.0722048 0.518496
N5_7 N 0.2659(2) 0.9609(4) 0.6670(4)
C40_7 C 0.3010(3) 0.9183(6) 0.6683(6)
H27_7 H 0.2890 0.8772 0.6396
H28_7 H 0.3199 0.9020 0.7128
H29_7 H 0.3176 0.9473 0.6535
C41_7 C 0.2198(3) 0.9419(6) 0.6292(5)
H30_7 H 0.2167 0.8981 0.6048
H31_7 H 0.2041 0.9803 0.5988
H32_7 H 0.2080 0.9347 0.6589
N5_8 N 0.7341(2) 0.9609(4) 0.8330(4)
C40_8 C 0.6990(3) 0.9183(6) 0.8317(6)
H27_8 H 0.7110 0.8772 0.8604
H28_8 H 0.6801 0.9020 0.7872
H29_8 H 0.6824 0.9473 0.8465
C41_8 C 0.7802(3) 0.9419(6) 0.8708(5)
H30_8 H 0.7833 0.8981 0.8952
H31_8 H 0.7959 0.9803 0.9012
H32_8 H 0.7920 0.9347 0.8411
C19_8 C 0.9722(3) 0.5512(5) 0.0379(5)
H8_8 H 0.9564 0.5121 0.0411
loop_
_geom_bond_atom_site_label_1
_geom_bond_atom_site_label_2
_geom_bond_site_symmetry_1
_geom_bond_site_symmetry_2
Cd3 O5 1_555 1_555
O5 C16 1_555 1_555
O6 C16 1_555 1_555
O15 Cd3 1_555 1_555
N3 C33 1_555 1_555
N5 C39 1_555 1_555
C11 H5 1_555 1_555
C12 C11 1_555 1_555
C13 C12 1_555 1_555
H6 C13 1_555 1_555
C16 C12 1_555 1_555
C33 O13 1_555 1_555
C34 N3 1_555 1_555
H15 C34 1_555 1_555
H16 C34 1_555 1_555
H17 C34 1_555 1_555
C35 N3 1_555 1_555
H18 C35 1_555 1_555
H19 C35 1_555 1_555
H20 C35 1_555 1_555
C39 O15 1_555 1_555
C40 N5 1_555 1_555
H27 C40 1_555 1_555
H28 C40 1_555 1_555
H29 C40 1_555 1_555
C41 N5 1_555 1_555
H30 C41 1_555 1_555
H31 C41 1_555 1_555
H32 C41 1_555 1_555
Cd5 O6 1_555 1_555
Cd7 O5 1_555 1_555
O19 Cd3 1_555 1_555
O22 Cd3 1_555 1_555
O23 Cd3 1_555 1_555
O25 Cd3 1_555 1_555
Cd5 O22 1_555 1_555
Cd5 O25 1_555 1_555
Cd7 O22 1_555 1_555
C33 H35 1_555 1_555
C39 H37 1_555 1_555
O4 C9 1_555 1_555
N1 C8 1_555 1_555
C8 C5 1_555 1_555
C9 C10 1_555 1_555
C14 N1 1_555 1_555
C15 C10 1_555 1_555
H7 C15 1_555 1_555
Cd4 O4 1_555 1_555
O17 Cd2 1_555 1_555
O20 Cd2 1_555 1_555
O21 Cd2 1_555 1_555
C14 C15 1_555 1_555
Cd4 O21 1_555 1_555
C8 H33 1_555 1_555
Cd1 O1 1_555 1_555
O1 C1 1_555 1_555
O2 Cd1 1_555 1_555
O9 Cd1 1_555 1_555
C1 O2 1_555 1_555
C2 C1 1_555 1_555
C3 C2 1_555 1_555
H1 C3 1_555 1_555
C4 C3 1_555 1_555
C7 C2 1_555 1_555
H4 C7 1_555 1_555
Cd9 O9 1_555 1_555
Cd11 O9 1_555 1_555
O16 Cd1 1_555 1_555
O18 Cd1 1_555 1_555
O24 Cd1 1_555 1_555
C6 C7 1_555 1_555
Cd11 O24 1_555 1_555
O7 C17 1_555 1_555
O8 C17 1_555 1_555
O11 C32 1_555 1_555
O12 C32 1_555 1_555
N2 C24 1_555 1_555
C17 C18 1_555 1_555
C18 C19 1_555 1_555
C19 H8 1_555 1_555
C20 C19 1_555 1_555
H9 C20 1_555 1_555
C21 C20 1_555 1_555
C22 C21 1_555 1_555
H10 C22 1_555 1_555
C23 C18 1_555 1_555
H11 C23 1_555 1_555
C24 C21 1_555 1_555
C26 C25 1_555 1_555
C27 C26 1_555 1_555
H12 C27 1_555 1_555
C28 C27 1_555 1_555
C29 C28 1_555 1_555
H13 C29 1_555 1_555
C30 N2 1_555 1_555
C31 C26 1_555 1_555
H14 C31 1_555 1_555
C32 C28 1_555 1_555
Cd6 O12 1_555 1_555
Cd8 O8 1_555 1_555
Cd10 O7 1_555 1_555
Cd12 O11 1_555 1_555
O10 C25 1_555 1_555
O12 Cd12 1_555 1_555
C22 C23 1_555 1_555
C29 C30 1_555 1_555
C30 C31 1_555 1_555
C24 H34 1_555 1_555
Cd4 O1_2 1_555 1_555
O1_2 C1_2 1_555 1_555
O2_2 Cd4 1_555 1_555
C1_2 O2_2 1_555 1_555
C2_2 C1_2 1_555 1_555
C3_2 C2_2 1_555 1_555
H1_2 C3_2 1_555 1_555
C4_2 C3_2 1_555 1_555
C7_2 C2_2 1_555 1_555
H4_2 C7_2 1_555 1_555
Cd11_2 O21 1_555 1_555
O18_2 Cd4 1_555 1_555
O24_2 Cd4 1_555 1_555
C6_2 C7_2 1_555 1_555
Cd11_2 O24_2 1_555 1_555
O7_2 C17_2 1_555 1_555
O8_2 C17_2 1_555 1_555
C17_2 C18_2 1_555 1_555
C23_2 C18_2 1_555 1_555
H11_2 C23_2 1_555 1_555
Cd8_2 O8_2 1_555 1_555
Cd10_2 O7_2 1_555 1_555
O11_2 C32_2 1_555 1_555
O12_2 C32_2 1_555 1_555
N2_2 C24_2 1_555 1_555
C19_2 H8_2 1_555 1_555
C20_2 C19_2 1_555 1_555
H9_2 C20_2 1_555 1_555
C21_2 C20_2 1_555 1_555
C22_2 C21_2 1_555 1_555
H10_2 C22_2 1_555 1_555
C24_2 C21_2 1_555 1_555
C26_2 C25_2 1_555 1_555
C27_2 C26_2 1_555 1_555
H12_2 C27_2 1_555 1_555
C28_2 C27_2 1_555 1_555
C29_2 C28_2 1_555 1_555
H13_2 C29_2 1_555 1_555
C30_2 N2_2 1_555 1_555
C31_2 C26_2 1_555 1_555
H14_2 C31_2 1_555 1_555
C32_2 C28_2 1_555 1_555
Cd6_2 O12_2 1_555 1_555
Cd12_2 O11_2 1_555 1_555
O10_2 C25_2 1_555 1_555
O12_2 Cd12_2 1_555 1_555
C29_2 C30_2 1_555 1_555
C30_2 C31_2 1_555 1_555
C24_2 H34_2 1_555 1_555
Cd9 O3_2 1_555 1_555
Cd3_2 O5_2 1_555 1_555
O3_2 C9_2 1_555 1_555
O16 C9_2 1_555 1_555
O5_2 C16_2 1_555 1_555
O6_2 C16_2 1_555 1_555
O13_2 Cd9 1_555 1_555
O15_2 Cd3_2 1_555 1_555
N1_2 C8_2 1_555 1_555
N3_2 C33_2 1_555 1_555
N5_2 C39_2 1_555 1_555
C8_2 C5_2 1_555 1_555
C9_2 C10_2 1_555 1_555
C10_2 C11_2 1_555 1_555
C11_2 H5_2 1_555 1_555
C12_2 C11_2 1_555 1_555
C13_2 C12_2 1_555 1_555
H6_2 C13_2 1_555 1_555
C14_2 N1_2 1_555 1_555
C15_2 C10_2 1_555 1_555
H7_2 C15_2 1_555 1_555
C16_2 C12_2 1_555 1_555
C33_2 O13_2 1_555 1_555
C34_2 N3_2 1_555 1_555
H15_2 C34_2 1_555 1_555
H16_2 C34_2 1_555 1_555
H17_2 C34_2 1_555 1_555
C35_2 N3_2 1_555 1_555
H18_2 C35_2 1_555 1_555
H19_2 C35_2 1_555 1_555
H20_2 C35_2 1_555 1_555
C39_2 O15_2 1_555 1_555
C40_2 N5_2 1_555 1_555
H27_2 C40_2 1_555 1_555
H28_2 C40_2 1_555 1_555
H29_2 C40_2 1_555 1_555
C41_2 N5_2 1_555 1_555
H30_2 C41_2 1_555 1_555
H31_2 C41_2 1_555 1_555
H32_2 C41_2 1_555 1_555
Cd5_2 O6_2 1_555 1_555
Cd7_2 O5_2 1_555 1_555
O17_2 Cd9 1_555 1_555
O19_2 Cd3_2 1_555 1_555
O20_2 Cd9 1_555 1_555
O22_2 Cd3_2 1_555 1_555
O23_2 Cd3_2 1_555 1_555
O25_2 Cd3_2 1_555 1_555
C13_2 C14_2 1_555 1_555
C14_2 C15_2 1_555 1_555
Cd5_2 O22_2 1_555 1_555
Cd5_2 O25_2 1_555 1_555
Cd7_2 O22_2 1_555 1_555
C8_2 H33_2 1_555 1_555
C33_2 H35_2 1_555 1_555
C39_2 H37_2 1_555 1_555
Cd10_2 O5_3 1_555 1_555
O5_3 C16_3 1_555 1_555
O6_3 C16_3 1_555 1_555
O15_3 Cd10_2 1_555 1_555
N3_3 C33_3 1_555 1_555
N4 C36 1_555 1_555
C11_3 H5_3 1_555 1_555
C12_3 C11_3 1_555 1_555
C13_3 C12_3 1_555 1_555
H6_3 C13_3 1_555 1_555
C16_3 C12_3 1_555 1_555
C33_3 O13_3 1_555 1_555
C34_3 N3_3 1_555 1_555
H15_3 C34_3 1_555 1_555
H16_3 C34_3 1_555 1_555
H17_3 C34_3 1_555 1_555
C35_3 N3_3 1_555 1_555
H18_3 C35_3 1_555 1_555
H19_3 C35_3 1_555 1_555
H20_3 C35_3 1_555 1_555
C37 N4 1_555 1_555
H21 C37 1_555 1_555
H22 C37 1_555 1_555
C39_3 O15_3 1_555 1_555
Cd5_3 O6_3 1_555 1_555
Cd8_2 O5_3 1_555 1_555
O22_3 Cd10_2 1_555 1_555
O23_3 Cd10_2 1_555 1_555
O25_3 Cd10_2 1_555 1_555
Cd5_3 O22_3 1_555 1_555
Cd5_3 O25_3 1_555 1_555
Cd8_2 O22_3 1_555 1_555
C33_3 H35_3 1_555 1_555
C36 H36 1_555 1_555
C39_3 H37_3 1_555 1_555
Cd6_2 O1_3 1_555 1_555
O1_3 C1_3 1_555 1_555
O2_3 Cd6_2 1_555 1_555
O4_2 C9_3 1_555 1_555
O9_2 Cd6_2 1_555 1_555
O10_3 Cd6_2 1_555 1_555
O11_3 C32_3 1_555 1_555
O24_2 C32_3 1_555 1_555
O14 Cd2_2 1_555 1_555
N1_3 C8_3 1_555 1_555
N2_3 C24_3 1_555 1_555
C1_3 O2_3 1_555 1_555
C2_3 C1_3 1_555 1_555
C3_3 C2_3 1_555 1_555
H1_3 C3_3 1_555 1_555
C4_3 C3_3 1_555 1_555
H2_3 C4_3 1_555 1_555
C5_3 C4_3 1_555 1_555
C6_3 C5_3 1_555 1_555
H3_3 C6_3 1_555 1_555
C7_3 C2_3 1_555 1_555
H4_3 C7_3 1_555 1_555
C8_3 C5_3 1_555 1_555
C9_3 C10_3 1_555 1_555
C14_3 N1_3 1_555 1_555
C15_3 C10_3 1_555 1_555
H7_3 C15_3 1_555 1_555
H9_3 C20_3 1_555 1_555
C21_3 C20_3 1_555 1_555
C22_3 C21_3 1_555 1_555
H10_3 C22_3 1_555 1_555
C24_3 C21_3 1_555 1_555
C25_3 O9_2 1_555 1_555
C26_3 C25_3 1_555 1_555
C27_3 C26_3 1_555 1_555
H12_3 C27_3 1_555 1_555
C28_3 C27_3 1_555 1_555
C29_3 C28_3 1_555 1_555
H13_3 C29_3 1_555 1_555
C30_3 N2_3 1_555 1_555
C31_3 C26_3 1_555 1_555
H14_3 C31_3 1_555 1_555
C32_3 C28_3 1_555 1_555
H24 C38 1_555 1_555
H26 C38 1_555 1_555
Cd6 O4_2 1_555 1_555
Cd9_2 O9_2 1_555 1_555
Cd12_2 O9_2 1_555 1_555
Cd11_2 O11_3 1_555 1_555
O16_2 Cd6_2 1_555 1_555
O17_3 Cd2_2 1_555 1_555
O18_3 Cd6_2 1_555 1_555
O20_3 Cd2_2 1_555 1_555
O21_2 Cd2_2 1_555 1_555
O10_3 C25_3 1_555 1_555
C6_3 C7_3 1_555 1_555
C14_3 C15_3 1_555 1_555
C29_3 C30_3 1_555 1_555
C30_3 C31_3 1_555 1_555
Cd6 O21_2 1_555 1_555
C8_3 H33_3 1_555 1_555
C24_3 H34_3 1_555 1_555
O19_2 C17_3 1_555 1_555
O8_3 C17_3 1_555 1_555
C17_3 C18_3 1_555 1_555
C18_3 C19_3 1_555 1_555
C19_3 H8_3 1_555 1_555
C23_3 C18_3 1_555 1_555
H11_3 C23_3 1_555 1_555
Cd7_2 O8_3 1_555 1_555
O19 C17_4 1_555 1_555
O8_4 C17_4 1_555 1_555
C17_4 C18_4 1_555 1_555
C23_4 C18_4 1_555 1_555
H11_4 C23_4 1_555 1_555
Cd7 O8_4 1_555 1_555
Cd6 O1_4 1_555 1_555
Cd9_2 O3_4 1_555 1_555
Cd10 O5_4 1_555 1_555
O1_4 C1_4 1_555 1_555
O2_4 Cd6 1_555 1_555
O3_4 C9_4 1_555 1_555
O16_2 C9_4 1_555 1_555
O5_4 C16_4 1_555 1_555
O6_4 C16_4 1_555 1_555
O10_4 Cd6 1_555 1_555
O11_4 C32_4 1_555 1_555
O24 C32_4 1_555 1_555
O13_4 Cd9_2 1_555 1_555
O14_2 Cd9_2 1_555 1_555
O15_4 Cd10 1_555 1_555
N1_4 C8_4 1_555 1_555
N2_4 C24_4 1_555 1_555
N3_4 C33_4 1_555 1_555
N4_2 C36_2 1_555 1_555
C1_4 O2_4 1_555 1_555
C2_4 C1_4 1_555 1_555
C3_4 C2_4 1_555 1_555
H1_4 C3_4 1_555 1_555
C4_4 C3_4 1_555 1_555
H2_4 C4_4 1_555 1_555
C5_4 C4_4 1_555 1_555
C6_4 C5_4 1_555 1_555
H3_4 C6_4 1_555 1_555
C7_4 C2_4 1_555 1_555
H4_4 C7_4 1_555 1_555
C8_4 C5_4 1_555 1_555
C9_4 C10_4 1_555 1_555
C10_4 C11_4 1_555 1_555
C11_4 H5_4 1_555 1_555
C12_4 C11_4 1_555 1_555
C13_4 C12_4 1_555 1_555
H6_4 C13_4 1_555 1_555
C14_4 N1_4 1_555 1_555
C15_4 C10_4 1_555 1_555
H7_4 C15_4 1_555 1_555
C16_4 C12_4 1_555 1_555
H9_4 C20_4 1_555 1_555
C21_4 C20_4 1_555 1_555
C22_4 C21_4 1_555 1_555
H10_4 C22_4 1_555 1_555
C24_4 C21_4 1_555 1_555
C25_4 O21_2 1_555 1_555
C26_4 C25_4 1_555 1_555
C27_4 C26_4 1_555 1_555
H12_4 C27_4 1_555 1_555
C28_4 C27_4 1_555 1_555
C29_4 C28_4 1_555 1_555
H13_4 C29_4 1_555 1_555
C30_4 N2_4 1_555 1_555
C31_4 C26_4 1_555 1_555
H14_4 C31_4 1_555 1_555
C32_4 C28_4 1_555 1_555
C33_4 O13_4 1_555 1_555
C34_4 N3_4 1_555 1_555
H15_4 C34_4 1_555 1_555
H16_4 C34_4 1_555 1_555
H17_4 C34_4 1_555 1_555
C35_4 N3_4 1_555 1_555
H18_4 C35_4 1_555 1_555
H19_4 C35_4 1_555 1_555
H20_4 C35_4 1_555 1_555
C36_2 O14_2 1_555 1_555
C37_2 N4_2 1_555 1_555
H21_2 C37_2 1_555 1_555
H22_2 C37_2 1_555 1_555
H23_2 C37_2 1_555 1_555
C38_2 N4_2 1_555 1_555
H24_2 C38_2 1_555 1_555
H25_2 C38_2 1_555 1_555
H26_2 C38_2 1_555 1_555
C39_4 O15_4 1_555 1_555
Cd5_4 O6_4 1_555 1_555
Cd8 O5_4 1_555 1_555
Cd12 O21_2 1_555 1_555
Cd11 O11_4 1_555 1_555
O17_4 Cd9_2 1_555 1_555
O18_4 Cd6 1_555 1_555
O20_4 Cd9_2 1_555 1_555
O22_4 Cd10 1_555 1_555
O23_4 Cd10 1_555 1_555
O25_4 Cd10 1_555 1_555
O10_4 C25_4 1_555 1_555
C6_4 C7_4 1_555 1_555
C13_4 C14_4 1_555 1_555
C14_4 C15_4 1_555 1_555
C29_4 C30_4 1_555 1_555
C30_4 C31_4 1_555 1_555
Cd5_4 O22_4 1_555 1_555
Cd5_4 O25_4 1_555 1_555
Cd8 O22_4 1_555 1_555
C8_4 H33_4 1_555 1_555
C24_4 H34_4 1_555 1_555
C33_4 H35_4 1_555 1_555
C36_2 H36_2 1_555 1_555
C39_4 H37_4 1_555 1_555
O7_3 C17_5 1_555 1_555
O20_2 C17_5 1_555 1_555
O23 C32_5 1_555 1_555
O25 C32_5 1_555 1_555
N2_5 C24_5 1_555 1_555
C17_5 C18_5 1_555 1_555
C18_5 C19_4 1_555 1_555
C19_4 H8_4 1_555 1_555
C20_5 C19_4 1_555 1_555
H9_5 C20_5 1_555 1_555
C21_5 C20_5 1_555 1_555
C22_5 C21_5 1_555 1_555
H10_5 C22_5 1_555 1_555
C23_5 C18_5 1_555 1_555
H11_5 C23_5 1_555 1_555
C24_5 C21_5 1_555 1_555
C26_5 C25_5 1_555 1_555
C27_5 C26_5 1_555 1_555
H12_5 C27_5 1_555 1_555
C28_5 C27_5 1_555 1_555
C29_5 C28_5 1_555 1_555
H13_5 C29_5 1_555 1_555
C30_5 N2_5 1_555 1_555
C31_5 C26_5 1_555 1_555
H14_5 C31_5 1_555 1_555
C32_5 C28_5 1_555 1_555
Cd11 O7_3 1_555 1_555
O10_5 C25_5 1_555 1_555
C22_5 C23_5 1_555 1_555
C29_5 C30_5 1_555 1_555
C30_5 C31_5 1_555 1_555
C24_5 H34_5 1_555 1_555
Cd5_4 O1_5 1_555 1_555
O1_5 C1_5 1_555 1_555
O2_5 Cd5_4 1_555 1_555
C1_5 O2_5 1_555 1_555
C2_5 C1_5 1_555 1_555
C3_5 C2_5 1_555 1_555
H1_5 C3_5 1_555 1_555
C4_5 C3_5 1_555 1_555
C7_5 C2_5 1_555 1_555
H4_5 C7_5 1_555 1_555
O16_3 Cd5_4 1_555 1_555
C6_5 C7_5 1_555 1_555
O4_3 C9_5 1_555 1_555
N1_5 C8_5 1_555 1_555
C8_5 C5_5 1_555 1_555
C9_5 C10_5 1_555 1_555
C14_5 N1_5 1_555 1_555
C15_5 C10_5 1_555 1_555
H7_5 C15_5 1_555 1_555
Cd5_3 O4_3 1_555 1_555
C14_5 C15_5 1_555 1_555
C8_5 H33_5 1_555 1_555
Cd12 O17_3 1_555 1_555
O17_3 C16_5 1_555 1_555
O18_4 C16_5 1_555 1_555
O15_5 Cd12 1_555 1_555
N3_5 C33_5 1_555 1_555
N5_3 C39_5 1_555 1_555
C11_5 H5_5 1_555 1_555
C12_5 C11_5 1_555 1_555
C13_5 C12_5 1_555 1_555
H6_5 C13_5 1_555 1_555
C16_5 C12_5 1_555 1_555
C33_5 O13_5 1_555 1_555
C34_5 N3_5 1_555 1_555
H15_5 C34_5 1_555 1_555
H16_5 C34_5 1_555 1_555
H17_5 C34_5 1_555 1_555
C35_5 N3_5 1_555 1_555
H18_5 C35_5 1_555 1_555
H19_5 C35_5 1_555 1_555
H20_5 C35_5 1_555 1_555
C39_5 O15_5 1_555 1_555
C40_3 N5_3 1_555 1_555
H27_3 C40_3 1_555 1_555
H28_3 C40_3 1_555 1_555
H29_3 C40_3 1_555 1_555
C41_3 N5_3 1_555 1_555
H30_3 C41_3 1_555 1_555
H31_3 C41_3 1_555 1_555
H32_3 C41_3 1_555 1_555
O19_3 Cd12 1_555 1_555
C33_5 H35_5 1_555 1_555
C39_5 H37_5 1_555 1_555
Cd8 O3_6 1_555 1_555
Cd12_2 O17_4 1_555 1_555
O3_6 C9_6 1_555 1_555
O16_3 C9_6 1_555 1_555
O17_4 C16_6 1_555 1_555
O18_3 C16_6 1_555 1_555
O13_6 Cd8 1_555 1_555
O15_6 Cd12_2 1_555 1_555
N1_6 C8_6 1_555 1_555
N3_6 C33_6 1_555 1_555
N5_4 C39_6 1_555 1_555
C8_6 C5_6 1_555 1_555
C9_6 C10_6 1_555 1_555
C10_6 C11_6 1_555 1_555
C11_6 H5_6 1_555 1_555
C12_6 C11_6 1_555 1_555
C13_6 C12_6 1_555 1_555
H6_6 C13_6 1_555 1_555
C14_6 N1_6 1_555 1_555
C15_6 C10_6 1_555 1_555
H7_6 C15_6 1_555 1_555
C16_6 C12_6 1_555 1_555
C33_6 O13_6 1_555 1_555
C34_6 N3_6 1_555 1_555
H15_6 C34_6 1_555 1_555
H16_6 C34_6 1_555 1_555
H17_6 C34_6 1_555 1_555
C35_6 N3_6 1_555 1_555
H18_6 C35_6 1_555 1_555
H19_6 C35_6 1_555 1_555
H20_6 C35_6 1_555 1_555
C39_6 O15_6 1_555 1_555
C40_4 N5_4 1_555 1_555
H27_4 C40_4 1_555 1_555
H28_4 C40_4 1_555 1_555
H29_4 C40_4 1_555 1_555
C41_4 N5_4 1_555 1_555
H30_4 C41_4 1_555 1_555
H31_4 C41_4 1_555 1_555
H32_4 C41_4 1_555 1_555
O19_4 Cd12_2 1_555 1_555
C13_6 C14_6 1_555 1_555
C14_6 C15_6 1_555 1_555
C8_6 H33_6 1_555 1_555
C33_6 H35_6 1_555 1_555
C39_6 H37_6 1_555 1_555
O23_2 C32_6 1_555 1_555
O25_2 C32_6 1_555 1_555
N2_6 C24_6 1_555 1_555
C19_5 H8_5 1_555 1_555
C20_6 C19_5 1_555 1_555
H9_6 C20_6 1_555 1_555
C21_6 C20_6 1_555 1_555
C22_6 C21_6 1_555 1_555
H10_6 C22_6 1_555 1_555
C24_6 C21_6 1_555 1_555
C26_6 C25_6 1_555 1_555
C27_6 C26_6 1_555 1_555
H12_6 C27_6 1_555 1_555
C28_6 C27_6 1_555 1_555
C29_6 C28_6 1_555 1_555
H13_6 C29_6 1_555 1_555
C30_6 N2_6 1_555 1_555
C31_6 C26_6 1_555 1_555
H14_6 C31_6 1_555 1_555
C32_6 C28_6 1_555 1_555
O10_6 C25_6 1_555 1_555
C29_6 C30_6 1_555 1_555
C30_6 C31_6 1_555 1_555
C24_6 H34_6 1_555 1_555
O7_4 C17_6 1_555 1_555
O20 C17_6 1_555 1_555
C17_6 C18_6 1_555 1_555
C23_6 C18_6 1_555 1_555
H11_6 C23_6 1_555 1_555
Cd11_2 O7_4 1_555 1_555
Cd5_3 O1_6 1_555 1_555
O1_6 C1_6 1_555 1_555
O2_6 Cd5_3 1_555 1_555
C1_6 O2_6 1_555 1_555
C2_6 C1_6 1_555 1_555
C3_6 C2_6 1_555 1_555
H1_6 C3_6 1_555 1_555
C4_6 C3_6 1_555 1_555
C7_6 C2_6 1_555 1_555
H4_6 C7_6 1_555 1_555
C6_6 C7_6 1_555 1_555
O19_4 C17_7 1_555 1_555
O20_4 C17_7 1_555 1_555
C17_7 C18_7 1_555 1_555
C18_7 C19_6 1_555 1_555
C19_6 H8_6 1_555 1_555
C23_7 C18_7 1_555 1_555
H11_7 C23_7 1_555 1_555
Cd5_2 O1_7 1_555 1_555
O1_7 C1_7 1_555 1_555
O2_7 Cd5_2 1_555 1_555
O4_4 C9_7 1_555 1_555
O10_7 Cd5_2 1_555 1_555
O23_3 C32_7 1_555 1_555
O25_3 C32_7 1_555 1_555
O14_3 Cd7 1_555 1_555
N1_7 C8_7 1_555 1_555
N2_7 C24_7 1_555 1_555
C1_7 O2_7 1_555 1_555
C2_7 C1_7 1_555 1_555
C3_7 C2_7 1_555 1_555
H1_7 C3_7 1_555 1_555
C4_7 C3_7 1_555 1_555
H2_7 C4_7 1_555 1_555
C5_7 C4_7 1_555 1_555
C6_7 C5_7 1_555 1_555
H3_7 C6_7 1_555 1_555
C7_7 C2_7 1_555 1_555
H4_7 C7_7 1_555 1_555
C8_7 C5_7 1_555 1_555
C9_7 C10_7 1_555 1_555
C14_7 N1_7 1_555 1_555
C15_7 C10_7 1_555 1_555
H7_7 C15_7 1_555 1_555
H9_7 C20_7 1_555 1_555
C21_7 C20_7 1_555 1_555
C22_7 C21_7 1_555 1_555
H10_7 C22_7 1_555 1_555
C24_7 C21_7 1_555 1_555
C25_7 O22_2 1_555 1_555
C26_7 C25_7 1_555 1_555
C27_7 C26_7 1_555 1_555
H12_7 C27_7 1_555 1_555
C28_7 C27_7 1_555 1_555
C29_7 C28_7 1_555 1_555
H13_7 C29_7 1_555 1_555
C30_7 N2_7 1_555 1_555
C31_7 C26_7 1_555 1_555
H14_7 C31_7 1_555 1_555
C32_7 C28_7 1_555 1_555
H24_3 C38_3 1_555 1_555
H26_3 C38_3 1_555 1_555
Cd5 O4_4 1_555 1_555
O16_4 Cd5_2 1_555 1_555
O10_7 C25_7 1_555 1_555
C6_7 C7_7 1_555 1_555
C14_7 C15_7 1_555 1_555
C29_7 C30_7 1_555 1_555
C30_7 C31_7 1_555 1_555
C8_7 H33_7 1_555 1_555
C24_7 H34_7 1_555 1_555
Cd11_2 O17 1_555 1_555
O17 C16_7 1_555 1_555
O18_2 C16_7 1_555 1_555
O15_7 Cd11_2 1_555 1_555
N3_7 C33_7 1_555 1_555
N4_3 C36_3 1_555 1_555
C11_7 H5_7 1_555 1_555
C12_7 C11_7 1_555 1_555
C13_7 C12_7 1_555 1_555
H6_7 C13_7 1_555 1_555
C16_7 C12_7 1_555 1_555
C33_7 O13_7 1_555 1_555
C34_7 N3_7 1_555 1_555
H15_7 C34_7 1_555 1_555
H16_7 C34_7 1_555 1_555
H17_7 C34_7 1_555 1_555
C35_7 N3_7 1_555 1_555
H18_7 C35_7 1_555 1_555
H19_7 C35_7 1_555 1_555
H20_7 C35_7 1_555 1_555
C37_3 N4_3 1_555 1_555
H21_3 C37_3 1_555 1_555
H22_3 C37_3 1_555 1_555
C39_7 O15_7 1_555 1_555
C33_7 H35_7 1_555 1_555
C36_3 H36_3 1_555 1_555
C39_7 H37_7 1_555 1_555
Cd5 O1_8 1_555 1_555
Cd7_2 O3_8 1_555 1_555
Cd11 O17_2 1_555 1_555
O1_8 C1_8 1_555 1_555
O2_8 Cd5 1_555 1_555
O3_8 C9_8 1_555 1_555
O16_4 C9_8 1_555 1_555
O17_2 C16_8 1_555 1_555
O18 C16_8 1_555 1_555
O10_8 Cd5 1_555 1_555
O23_4 C32_8 1_555 1_555
O25_4 C32_8 1_555 1_555
O13_8 Cd7_2 1_555 1_555
O14_4 Cd7_2 1_555 1_555
O15_8 Cd11 1_555 1_555
N1_8 C8_8 1_555 1_555
N2_8 C24_8 1_555 1_555
N3_8 C33_8 1_555 1_555
N4_4 C36_4 1_555 1_555
C1_8 O2_8 1_555 1_555
C2_8 C1_8 1_555 1_555
C3_8 C2_8 1_555 1_555
H1_8 C3_8 1_555 1_555
C4_8 C3_8 1_555 1_555
H2_8 C4_8 1_555 1_555
C5_8 C4_8 1_555 1_555
C6_8 C5_8 1_555 1_555
H3_8 C6_8 1_555 1_555
C7_8 C2_8 1_555 1_555
H4_8 C7_8 1_555 1_555
C8_8 C5_8 1_555 1_555
C9_8 C10_8 1_555 1_555
C10_8 C11_8 1_555 1_555
C11_8 H5_8 1_555 1_555
C12_8 C11_8 1_555 1_555
C13_8 C12_8 1_555 1_555
H6_8 C13_8 1_555 1_555
C14_8 N1_8 1_555 1_555
C15_8 C10_8 1_555 1_555
H7_8 C15_8 1_555 1_555
C16_8 C12_8 1_555 1_555
H9_8 C20_8 1_555 1_555
C21_8 C20_8 1_555 1_555
C22_8 C21_8 1_555 1_555
H10_8 C22_8 1_555 1_555
C24_8 C21_8 1_555 1_555
C25_8 O22 1_555 1_555
C26_8 C25_8 1_555 1_555
C27_8 C26_8 1_555 1_555
H12_8 C27_8 1_555 1_555
C28_8 C27_8 1_555 1_555
C29_8 C28_8 1_555 1_555
H13_8 C29_8 1_555 1_555
C30_8 N2_8 1_555 1_555
C31_8 C26_8 1_555 1_555
H14_8 C31_8 1_555 1_555
C32_8 C28_8 1_555 1_555
C33_8 O13_8 1_555 1_555
C34_8 N3_8 1_555 1_555
H15_8 C34_8 1_555 1_555
H16_8 C34_8 1_555 1_555
H17_8 C34_8 1_555 1_555
C35_8 N3_8 1_555 1_555
H18_8 C35_8 1_555 1_555
H19_8 C35_8 1_555 1_555
H20_8 C35_8 1_555 1_555
C36_4 O14_4 1_555 1_555
C37_4 N4_4 1_555 1_555
H21_4 C37_4 1_555 1_555
H22_4 C37_4 1_555 1_555
H23_4 C37_4 1_555 1_555
C38_4 N4_4 1_555 1_555
H24_4 C38_4 1_555 1_555
H25_4 C38_4 1_555 1_555
H26_4 C38_4 1_555 1_555
C39_8 O15_8 1_555 1_555
O10_8 C25_8 1_555 1_555
C6_8 C7_8 1_555 1_555
C13_8 C14_8 1_555 1_555
C14_8 C15_8 1_555 1_555
C29_8 C30_8 1_555 1_555
C30_8 C31_8 1_555 1_555
C8_8 H33_8 1_555 1_555
C24_8 H34_8 1_555 1_555
C33_8 H35_8 1_555 1_555
C36_4 H36_4 1_555 1_555
C39_8 H37_8 1_555 1_555
O19_3 C17_8 1_555 1_555
O20_3 C17_8 1_555 1_555
C17_8 C18_8 1_555 1_555
C23_8 C18_8 1_555 1_555
H11_8 C23_8 1_555 1_555
N4_5 C36_5 1_555 1_555
C37_5 N4_5 1_555 1_555
H21_5 C37_5 1_555 1_555
H22_5 C37_5 1_555 1_555
C36_5 H36_5 1_555 1_555
H24_5 C38_5 1_555 1_555
H26_5 C38_5 1_555 1_555
N4_6 C36_6 1_555 1_555
C36_6 O14_6 1_555 1_555
C37_6 N4_6 1_555 1_555
H21_6 C37_6 1_555 1_555
H22_6 C37_6 1_555 1_555
H23_6 C37_6 1_555 1_555
C38_6 N4_6 1_555 1_555
H24_6 C38_6 1_555 1_555
H25_6 C38_6 1_555 1_555
H26_6 C38_6 1_555 1_555
C36_6 H36_6 1_555 1_555
C40_5 N5_5 1_555 1_555
H27_5 C40_5 1_555 1_555
H28_5 C40_5 1_555 1_555
H29_5 C40_5 1_555 1_555
C41_5 N5_5 1_555 1_555
H30_5 C41_5 1_555 1_555
H31_5 C41_5 1_555 1_555
H32_5 C41_5 1_555 1_555
C19_7 H8_7 1_555 1_555
C40_6 N5_6 1_555 1_555
H27_6 C40_6 1_555 1_555
H28_6 C40_6 1_555 1_555
H29_6 C40_6 1_555 1_555
C41_6 N5_6 1_555 1_555
H30_6 C41_6 1_555 1_555
H31_6 C41_6 1_555 1_555
H32_6 C41_6 1_555 1_555
H24_7 C38_7 1_555 1_555
H26_7 C38_7 1_555 1_555
N4_7 C36_7 1_555 1_555
C37_7 N4_7 1_555 1_555
H21_7 C37_7 1_555 1_555
H22_7 C37_7 1_555 1_555
C36_7 H36_7 1_555 1_555
N4_8 C36_8 1_555 1_555
C36_8 O14_8 1_555 1_555
C37_8 N4_8 1_555 1_555
H21_8 C37_8 1_555 1_555
H22_8 C37_8 1_555 1_555
H23_8 C37_8 1_555 1_555
C38_8 N4_8 1_555 1_555
H24_8 C38_8 1_555 1_555
H25_8 C38_8 1_555 1_555
H26_8 C38_8 1_555 1_555
C36_8 H36_8 1_555 1_555
C40_7 N5_7 1_555 1_555
H27_7 C40_7 1_555 1_555
H28_7 C40_7 1_555 1_555
H29_7 C40_7 1_555 1_555
C41_7 N5_7 1_555 1_555
H30_7 C41_7 1_555 1_555
H31_7 C41_7 1_555 1_555
H32_7 C41_7 1_555 1_555
C40_8 N5_8 1_555 1_555
H27_8 C40_8 1_555 1_555
H28_8 C40_8 1_555 1_555
H29_8 C40_8 1_555 1_555
C41_8 N5_8 1_555 1_555
H30_8 C41_8 1_555 1_555
H31_8 C41_8 1_555 1_555
H32_8 C41_8 1_555 1_555
C19_8 H8_8 1_555 1_555

#END
