
###############################################################################
#
# This file contains modified crystal structure data generated from the
# MOF subset of the Cambridge Structural Database (CSD) v543 
# hosted by the Cambridge Crystallographic Data Centre (CCDC).
#
# This work is licensed under the Creative Commons
# Attribution-NonCommercial-ShareAlike 4.0 International License.
# To view a copy of this license, visit
# http://creativecommons.org/licenses/by-nc-sa/4.0/
# or send a letter to
# Creative Commons, PO Box 1866, Mountain View, CA 94042, USA.
#
# CIF created using the CSD Python API on 29 September 2022
# The structure has been converted into the P1 space group
# The structure has a 3D framework
# The original CSD entry REHJEV is in the monoclinic crystal system
# The framework has been calculated to contain at least 10.0% void space
# The void calculation uses a probe of radius 1.32A, grid spacing 0.4
# The framework is charged, counterions have been retained in the structure
#
###############################################################################

data_REHJEV
_chemical_formula_moiety         '(C200 H192 Ag10 N40 O56 2+)n'
_symmetry_cell_setting           triclinic
_symmetry_space_group_name_H-M   'P 1'
_symmetry_Int_Tables_number      1
_space_group_name_Hall           'P 1'
loop_
_symmetry_equiv_pos_site_id
_symmetry_equiv_pos_as_xyz
1 x,y,z
_cell_length_a                   25.907(3)
_cell_length_b                   11.9344(12)
_cell_length_c                   23.796(3)
_cell_angle_alpha                90
_cell_angle_beta                 114.356(2)
_cell_angle_gamma                90
_cell_volume                     6702.55
loop_
_atom_site_label
_atom_site_type_symbol
_atom_site_fract_x
_atom_site_fract_y
_atom_site_fract_z
O1 O 0.4634(14) 0.083(3) 0.4206(12)
O2 O 0.4301(10) 0.198(2) 0.4701(13)
O3 O 0.5025(19) 0.102(5) 0.5254(12)
N1 N 0.4667(10) 0.126(2) 0.4710(10)
O1_2 O 0.5366(14) 0.083(3) 0.0794(12)
O2_2 O 0.5699(10) 0.198(2) 0.0299(13)
N1_2 N 0.5333(10) 0.126(2) 0.0290(10)
O3_2 O 0.4975(19) 0.102(5) 0.9746(12)
O3_3 O 0.0025(19) 0.602(5) 0.5254(12)
O1_3 O 0.9634(14) 0.583(3) 0.4206(12)
O2_3 O 0.9301(10) 0.698(2) 0.4701(13)
N1_3 N 0.9667(10) 0.626(2) 0.4710(10)
O1_4 O 0.0366(14) 0.583(3) 0.0794(12)
O2_4 O 0.0699(10) 0.698(2) 0.0299(13)
N1_4 N 0.0333(10) 0.626(2) 0.0290(10)
O3_4 O 0.9975(19) 0.602(5) 0.9746(12)
O1_5 O 0.5366(14) 0.917(3) 0.5794(12)
O2_5 O 0.5699(10) 0.802(2) 0.5299(13)
O3_5 O 0.4975(19) 0.898(5) 0.4746(12)
N1_5 N 0.5333(10) 0.874(2) 0.5290(10)
O3_6 O 0.5025(19) 0.898(5) 0.0254(12)
O1_6 O 0.4634(14) 0.917(3) 0.9206(12)
O2_6 O 0.4301(10) 0.802(2) 0.9701(13)
N1_6 N 0.4667(10) 0.874(2) 0.9710(10)
O1_7 O 0.0366(14) 0.417(3) 0.5794(12)
O2_7 O 0.0699(10) 0.302(2) 0.5299(13)
N1_7 N 0.0333(10) 0.374(2) 0.5290(10)
O3_7 O 0.9975(19) 0.398(5) 0.4746(12)
O3_8 O 0.0025(19) 0.398(5) 0.0254(12)
O1_8 O 0.9634(14) 0.417(3) 0.9206(12)
O2_8 O 0.9301(10) 0.302(2) 0.9701(13)
N1_8 N 0.9667(10) 0.374(2) 0.9710(10)
Ag1 Ag 0.542595(18) 0.68931(4) 0.916246(19)
O4 O 0.21515(13) 0.1729(2) 0.63421(14)
O5 O 0.33269(13) 0.4078(3) 0.73697(14)
O6 O 0.19489(14) 0.5117(2) 0.64370(13)
O7 O 0.20181(13) 0.2487(2) 0.76008(15)
C1 C 0.2266(2) 0.0820(3) 0.6079(2)
C2 C 0.37690(18) 0.4671(4) 0.77824(19)
C3 C 0.2178(2) 0.4085(4) 0.6337(2)
H1 H 0.1893 0.3675 0.6000
H2 H 0.2497 0.4228 0.6235
C4 C 0.28229(17) 0.4033(4) 0.74708(18)
H3 H 0.2896 0.3647 0.7855
H4 H 0.2695 0.4786 0.7499
C5 C 0.3757(2) 0.5266(4) 0.8270(2)
H5 H 0.3437 0.5250 0.8353
C6 C 0.1853(2) 0.3247(4) 0.7079(2)
H6 H 0.1541 0.2934 0.6726
H7 H 0.1734 0.3960 0.7182
N3 N 0.46887(17) 0.5921(4) 0.85496(18)
C7 C 0.1809(2) 0.0382(4) 0.5582(2)
H8 H 0.1452 0.0706 0.5446
C8 C 0.26095(19) 0.2292(3) 0.6829(2)
H9 H 0.2747 0.1844 0.7203
H10 H 0.2921 0.2423 0.6711
N4 N 0.09863(18) 0.7130(4) 0.4965(2)
C9 C 0.23673(18) 0.3409(3) 0.69326(19)
C10 C 0.16448(19) 0.5757(4) 0.5932(2)
C11 C 0.2789(2) 0.0292(4) 0.6276(2)
H11 H 0.3102 0.0556 0.6613
C13 C 0.1135(2) 0.2888(5) 0.7706(2)
H13 H 0.0996 0.3381 0.7374
N5 N 0.0990(2) 0.1983(5) 0.8521(2)
C14 C 0.16564(19) 0.2351(4) 0.7870(2)
C15 C 0.4217(2) 0.5879(4) 0.8631(2)
H14 H 0.4197 0.6292 0.8953
C16 C 0.1827(2) 0.1610(4) 0.8356(2)
H15 H 0.2171 0.1236 0.8480
C18 C 0.4254(2) 0.4716(5) 0.7679(2)
H17 H 0.4279 0.4334 0.7351
C19 C 0.4697(2) 0.5341(5) 0.8075(3)
H18 H 0.5027 0.5363 0.8009
C20 C 0.1051(2) 0.7343(4) 0.5551(2)
H19 H 0.0868 0.7960 0.5624
C21 C 0.0840(3) 0.2664(6) 0.8047(3)
H20 H 0.0495 0.3029 0.7934
C22 C 0.1371(2) 0.6689(4) 0.6030(2)
H21 H 0.1409 0.6861 0.6426
C23 C 0.1252(2) 0.6244(5) 0.4886(2)
H22 H 0.1210 0.6086 0.4487
C24 C 0.1586(2) 0.5539(4) 0.5343(2)
H23 H 0.1767 0.4932 0.5257
C25 C 0.1483(3) 0.1433(5) 0.8657(3)
H24 H 0.1594 0.0904 0.8972
Ag5 Ag 0.042595(18) 0.18931(4) 0.916246(19)
Ag7 Ag 0.042595(18) 0.81069(4) 0.416246(19)
N10 N 0.59863(18) 0.7870(4) 0.9965(2)
N12 N 0.5990(2) 0.6983(5) 0.8521(2)
N13 N 0.0990(2) 0.8017(5) 0.3521(2)
H42 H 0.0027 0.9637 0.3009
Ag2 Ag 0.7500 0.7500 -0.0000
H12 H 0.8399 0.9149 0.0049
Ag6 Ag 0.542595(18) 0.31069(4) 0.416246(19)
O8 O 0.71515(13) 0.3271(2) 0.13421(14)
O9 O 0.83269(13) 0.0922(3) 0.23697(14)
O11 O 0.70181(13) 0.2513(2) 0.26008(15)
C26 C 0.7266(2) 0.4180(3) 0.1079(2)
C27 C 0.87690(18) 0.0329(4) 0.27824(19)
C28 C 0.7178(2) 0.0915(4) 0.1337(2)
H25 H 0.6893 0.1325 0.1000
H26 H 0.7497 0.0772 0.1235
C29 C 0.78229(17) 0.0967(4) 0.24708(18)
H27 H 0.7896 0.1353 0.2855
H28 H 0.7695 0.0214 0.2499
C31 C 0.6853(2) 0.1753(4) 0.2079(2)
H30 H 0.6541 0.2066 0.1726
H31 H 0.6734 0.1040 0.2182
N6 N 0.73975(19) 0.6070(3) 0.04732(19)
C32 C 0.6809(2) 0.4618(4) 0.0582(2)
H32 H 0.6452 0.4294 0.0446
C33 C 0.76095(19) 0.2708(3) 0.1829(2)
H33 H 0.7747 0.3156 0.2203
H34 H 0.7921 0.2577 0.1711
C34 C 0.73673(18) 0.1591(3) 0.19326(19)
C36 C 0.7789(2) 0.4708(4) 0.1276(2)
H35 H 0.8102 0.4444 0.1613
C37 C 0.6903(2) 0.5563(4) 0.0292(2)
C38 C 0.6135(2) 0.2112(5) 0.2706(2)
H37 H 0.5996 0.1619 0.2374
N11 N 0.5990(2) 0.3017(5) 0.3521(2)
C39 C 0.66564(19) 0.2649(4) 0.2870(2)
C41 C 0.6827(2) 0.3390(4) 0.3356(2)
H39 H 0.7171 0.3764 0.3480
C42 C 0.7824(2) 0.5629(4) 0.0953(2)
H40 H 0.8176 0.5976 0.1080
C43 C 0.9254(2) 0.0284(5) 0.2679(2)
H41 H 0.9279 0.0666 0.2351
C46 C 0.5840(3) 0.2336(6) 0.3047(3)
H44 H 0.5495 0.1971 0.2934
H47 H 0.6767 0.0068 0.0257
C50 C 0.6483(3) 0.3567(5) 0.3657(3)
H48 H 0.6594 0.4096 0.3972
C48 C 0.6252(2) 0.8756(5) 0.9886(2)
H46 H 0.6210 0.8914 0.9487
H18_2 H 0.0027 0.0363 0.8009
N10_2 N 0.09863(18) 0.2870(4) 0.9965(2)
O6_2 O 0.69489(14) 0.0117(2) 0.64370(13)
C5_2 C 0.8757(2) 0.0266(4) 0.8270(2)
H5_2 H 0.8437 0.0250 0.8353
N3_2 N 0.96887(17) 0.0921(4) 0.85496(18)
N4_2 N 0.59863(18) 0.2130(4) 0.4965(2)
C10_2 C 0.66448(19) 0.0757(4) 0.5932(2)
C15_2 C 0.9217(2) 0.0879(4) 0.8631(2)
H14_2 H 0.9197 0.1292 0.8953
C19_2 C 0.9697(2) 0.0341(5) 0.8075(3)
C20_2 C 0.6051(2) 0.2343(4) 0.5551(2)
H19_2 H 0.5868 0.2960 0.5624
C22_2 C 0.6371(2) 0.1689(4) 0.6030(2)
H21_2 H 0.6409 0.1861 0.6426
C23_2 C 0.6252(2) 0.1244(5) 0.4886(2)
H22_2 H 0.6210 0.1086 0.4487
C24_2 C 0.6586(2) 0.0539(4) 0.5343(2)
Ag2_2 Ag 0.7500 0.2500 0.5000
O4_2 O 0.71515(13) 0.6729(2) 0.63421(14)
O5_2 O 0.83269(13) 0.9078(3) 0.73697(14)
O7_2 O 0.70181(13) 0.7487(2) 0.76008(15)
C1_2 C 0.7266(2) 0.5820(3) 0.6079(2)
C2_2 C 0.87690(18) 0.9671(4) 0.77824(19)
C3_2 C 0.7178(2) 0.9085(4) 0.6337(2)
H1_2 H 0.6893 0.8675 0.6000
H2_2 H 0.7497 0.9228 0.6235
C4_2 C 0.78229(17) 0.9033(4) 0.74708(18)
H3_2 H 0.7896 0.8647 0.7855
H4_2 H 0.7695 0.9786 0.7499
C6_2 C 0.6853(2) 0.8247(4) 0.7079(2)
H6_2 H 0.6541 0.7934 0.6726
H7_2 H 0.6734 0.8960 0.7182
N2 N 0.73975(19) 0.3930(3) 0.54732(19)
C7_2 C 0.6809(2) 0.5382(4) 0.5582(2)
H8_2 H 0.6452 0.5706 0.5446
C8_2 C 0.76095(19) 0.7292(3) 0.6829(2)
H9_2 H 0.7747 0.6844 0.7203
H10_2 H 0.7921 0.7423 0.6711
C9_2 C 0.73673(18) 0.8409(3) 0.69326(19)
C11_2 C 0.7789(2) 0.5292(4) 0.6276(2)
H11_2 H 0.8102 0.5556 0.6613
C12 C 0.6903(2) 0.4437(4) 0.5292(2)
H12_2 H 0.6601 0.4149 0.4951
C13_2 C 0.6135(2) 0.7888(5) 0.7706(2)
H13_2 H 0.5996 0.8381 0.7374
C14_2 C 0.66564(19) 0.7351(4) 0.7870(2)
C16_2 C 0.6827(2) 0.6610(4) 0.8356(2)
H15_2 H 0.7171 0.6236 0.8480
C17 C 0.7824(2) 0.4371(4) 0.5953(2)
H16 H 0.8176 0.4024 0.6080
C18_2 C 0.9254(2) 0.9716(5) 0.7679(2)
H17_2 H 0.9279 0.9334 0.7351
C21_2 C 0.5840(3) 0.7664(6) 0.8047(3)
H20_2 H 0.5495 0.8029 0.7934
H23_2 H 0.6767 0.9932 0.5257
C25_2 C 0.6483(3) 0.6433(5) 0.8657(3)
H24_2 H 0.6594 0.5904 0.8972
N6_2 N 0.76025(19) 0.1070(3) 0.45268(19)
C37_2 C 0.8097(2) 0.0563(4) 0.4708(2)
H36 H 0.8399 0.0851 0.5049
C42_2 C 0.7176(2) 0.0629(4) 0.4047(2)
H40_2 H 0.6824 0.0976 0.3920
O8_2 O 0.21515(13) 0.8271(2) 0.13421(14)
O9_2 O 0.33269(13) 0.5922(3) 0.23697(14)
O10 O 0.19489(14) 0.4883(2) 0.14370(13)
O11_2 O 0.20181(13) 0.7513(2) 0.26008(15)
C26_2 C 0.2266(2) 0.9180(3) 0.1079(2)
C27_2 C 0.37690(18) 0.5329(4) 0.27824(19)
C28_2 C 0.2178(2) 0.5915(4) 0.1337(2)
H25_2 H 0.1893 0.6325 0.1000
H26_2 H 0.2497 0.5772 0.1235
C29_2 C 0.28229(17) 0.5967(4) 0.24708(18)
H27_2 H 0.2896 0.6353 0.2855
H28_2 H 0.2695 0.5214 0.2499
C30 C 0.3757(2) 0.4734(4) 0.3270(2)
H29 H 0.3437 0.4750 0.3353
C31_2 C 0.1853(2) 0.6753(4) 0.2079(2)
H30_2 H 0.1541 0.7066 0.1726
H31_2 H 0.1734 0.6040 0.2182
N7 N 0.46887(17) 0.4079(4) 0.35496(18)
C32_2 C 0.1809(2) 0.9618(4) 0.0582(2)
H32_2 H 0.1452 0.9294 0.0446
C33_2 C 0.26095(19) 0.7708(3) 0.1829(2)
H33_2 H 0.2747 0.8156 0.2203
H34_2 H 0.2921 0.7577 0.1711
C34_2 C 0.23673(18) 0.6591(3) 0.19326(19)
C35 C 0.16448(19) 0.4243(4) 0.0932(2)
C36_2 C 0.2789(2) 0.9708(4) 0.1276(2)
H35_2 H 0.3102 0.9444 0.1613
C38_2 C 0.1135(2) 0.7112(5) 0.2706(2)
H37_2 H 0.0996 0.6619 0.2374
C39_2 C 0.16564(19) 0.7649(4) 0.2870(2)
C40 C 0.4217(2) 0.4121(4) 0.3631(2)
H38 H 0.4197 0.3708 0.3953
C41_2 C 0.1827(2) 0.8390(4) 0.3356(2)
H39_2 H 0.2171 0.8764 0.3480
C43_2 C 0.4254(2) 0.5284(5) 0.2679(2)
H41_2 H 0.4279 0.5666 0.2351
C44 C 0.4697(2) 0.4659(5) 0.3075(3)
H42_2 H 0.5027 0.4637 0.3009
C45 C 0.1051(2) 0.2657(4) 0.0551(2)
H43 H 0.0868 0.2040 0.0624
C46_2 C 0.0840(3) 0.7336(6) 0.3047(3)
H44_2 H 0.0495 0.6971 0.2934
C47 C 0.1371(2) 0.3311(4) 0.1030(2)
H45 H 0.1409 0.3139 0.1426
C49 C 0.1586(2) 0.4461(4) 0.0343(2)
H47_2 H 0.1767 0.5068 0.0257
C50_2 C 0.1483(3) 0.8567(5) 0.3657(3)
H48_2 H 0.1594 0.9096 0.3972
C48_2 C 0.1252(2) 0.3756(5) 0.9886(2)
H46_2 H 0.1210 0.3914 0.9487
Ag2_3 Ag 0.2500 0.7500 0.5000
N2_2 N 0.23975(19) 0.8930(3) 0.54732(19)
C12_2 C 0.1903(2) 0.9437(4) 0.5292(2)
H12_3 H 0.1601 0.9149 0.4951
C17_2 C 0.2824(2) 0.9371(4) 0.5953(2)
H16_2 H 0.3176 0.9024 0.6080
Ag6_2 Ag 0.457405(18) 0.31069(4) 0.083754(19)
O8_3 O 0.28485(13) 0.3271(2) 0.36579(14)
O9_3 O 0.16731(13) 0.0922(3) 0.26303(14)
O11_3 O 0.29819(13) 0.2513(2) 0.23992(15)
C26_3 C 0.2734(2) 0.4180(3) 0.3921(2)
C27_3 C 0.12310(18) 0.0329(4) 0.22176(19)
C28_3 C 0.2822(2) 0.0915(4) 0.3663(2)
H25_3 H 0.3107 0.1325 0.4000
H26_3 H 0.2503 0.0772 0.3765
C29_3 C 0.21771(17) 0.0967(4) 0.25292(18)
H27_3 H 0.2104 0.1353 0.2145
H28_3 H 0.2305 0.0214 0.2501
C31_3 C 0.3147(2) 0.1753(4) 0.2921(2)
H30_3 H 0.3459 0.2066 0.3274
H31_3 H 0.3266 0.1040 0.2818
N6_3 N 0.26025(19) 0.6070(3) 0.45268(19)
C32_3 C 0.3191(2) 0.4618(4) 0.4418(2)
H32_3 H 0.3548 0.4294 0.4554
C33_3 C 0.23905(19) 0.2708(3) 0.3171(2)
H33_3 H 0.2253 0.3156 0.2797
H34_3 H 0.2079 0.2577 0.3289
C34_3 C 0.26327(18) 0.1591(3) 0.30674(19)
C36_3 C 0.2211(2) 0.4708(4) 0.3724(2)
H35_3 H 0.1898 0.4444 0.3387
C37_3 C 0.3097(2) 0.5563(4) 0.4708(2)
H36_2 H 0.3399 0.5851 0.5049
C38_3 C 0.3865(2) 0.2112(5) 0.2294(2)
H37_3 H 0.4004 0.1619 0.2626
N11_2 N 0.4010(2) 0.3017(5) 0.1479(2)
C39_3 C 0.33436(19) 0.2649(4) 0.2130(2)
C41_3 C 0.3173(2) 0.3390(4) 0.1644(2)
H39_3 H 0.2829 0.3764 0.1520
C42_3 C 0.2176(2) 0.5629(4) 0.4047(2)
H40_3 H 0.1824 0.5976 0.3920
C43_3 C 0.0746(2) 0.0284(5) 0.2321(2)
H41_3 H 0.0721 0.0666 0.2649
C46_3 C 0.4160(3) 0.2336(6) 0.1953(3)
H44_3 H 0.4505 0.1971 0.2066
H47_3 H 0.3233 0.0068 0.4743
C50_3 C 0.3517(3) 0.3567(5) 0.1343(3)
H48_3 H 0.3406 0.4096 0.1028
Ag4 Ag 0.457405(18) 0.68931(4) 0.583754(19)
O10_2 O 0.30511(14) 0.9883(2) 0.35630(13)
C30_2 C 0.1243(2) 0.9734(4) 0.1730(2)
H29_2 H 0.1563 0.9750 0.1647
N7_2 N 0.03113(17) 0.9079(4) 0.14504(18)
N8 N 0.40137(18) 0.7870(4) 0.5035(2)
C35_2 C 0.33552(19) 0.9243(4) 0.4068(2)
C40_2 C 0.0783(2) 0.9121(4) 0.1369(2)
H38_2 H 0.0803 0.8708 0.1047
C44_2 C 0.0303(2) 0.9659(5) 0.1925(3)
C45_2 C 0.3949(2) 0.7657(4) 0.4449(2)
H43_2 H 0.4132 0.7040 0.4376
C47_2 C 0.3629(2) 0.8311(4) 0.3970(2)
H45_2 H 0.3591 0.8139 0.3574
C48_3 C 0.3748(2) 0.8756(5) 0.5114(2)
H46_3 H 0.3790 0.8914 0.5513
C49_2 C 0.3414(2) 0.9461(4) 0.4657(2)
Ag3 Ag 0.957405(18) 0.81069(4) 0.083754(19)
N9 N 0.90137(18) 0.7130(4) 0.0035(2)
N13_2 N 0.9010(2) 0.8017(5) 0.1479(2)
H42_3 H 0.9973 0.9637 0.1991
C23_3 C 0.8748(2) 0.6244(5) 0.0114(2)
H22_3 H 0.8790 0.6086 0.0513
O4_3 O 0.78485(13) 0.1729(2) 0.86579(14)
O5_3 O 0.66731(13) 0.4078(3) 0.76303(14)
O6_3 O 0.80511(14) 0.5117(2) 0.85630(13)
O7_3 O 0.79819(13) 0.2487(2) 0.73992(15)
C1_3 C 0.7734(2) 0.0820(3) 0.8921(2)
C2_3 C 0.62310(18) 0.4671(4) 0.72176(19)
C3_3 C 0.7822(2) 0.4085(4) 0.8663(2)
H1_3 H 0.8107 0.3675 0.9000
H2_3 H 0.7503 0.4228 0.8765
C4_3 C 0.71771(17) 0.4033(4) 0.75292(18)
H3_3 H 0.7104 0.3647 0.7145
H4_3 H 0.7305 0.4786 0.7501
C5_3 C 0.6243(2) 0.5266(4) 0.6730(2)
H5_3 H 0.6563 0.5250 0.6647
C6_3 C 0.8147(2) 0.3247(4) 0.7921(2)
H6_3 H 0.8459 0.2934 0.8274
H7_3 H 0.8266 0.3960 0.7818
N3_3 N 0.53113(17) 0.5921(4) 0.64504(18)
C7_3 C 0.8191(2) 0.0382(4) 0.9418(2)
H8_3 H 0.8548 0.0706 0.9554
C8_3 C 0.73905(19) 0.2292(3) 0.8171(2)
H9_3 H 0.7253 0.1844 0.7797
H10_3 H 0.7079 0.2423 0.8289
C9_3 C 0.76327(18) 0.3409(3) 0.80674(19)
C10_3 C 0.83552(19) 0.5757(4) 0.9068(2)
C11_3 C 0.7211(2) 0.0292(4) 0.8724(2)
H11_3 H 0.6898 0.0556 0.8387
C13_3 C 0.8865(2) 0.2888(5) 0.7294(2)
H13_3 H 0.9004 0.3381 0.7626
N5_2 N 0.9010(2) 0.1983(5) 0.6479(2)
C14_3 C 0.83436(19) 0.2351(4) 0.7130(2)
C15_3 C 0.5783(2) 0.5879(4) 0.6369(2)
H14_3 H 0.5803 0.6292 0.6047
C16_3 C 0.8173(2) 0.1610(4) 0.6644(2)
H15_3 H 0.7829 0.1236 0.6520
C18_3 C 0.5746(2) 0.4716(5) 0.7321(2)
H17_3 H 0.5721 0.4334 0.7649
C19_3 C 0.5303(2) 0.5341(5) 0.6925(3)
H18_3 H 0.4973 0.5363 0.6991
C20_3 C 0.8949(2) 0.7343(4) 0.9449(2)
H19_3 H 0.9132 0.7960 0.9376
C21_3 C 0.9160(3) 0.2664(6) 0.6953(3)
H20_3 H 0.9505 0.3029 0.7066
C22_3 C 0.8629(2) 0.6689(4) 0.8970(2)
H21_3 H 0.8591 0.6861 0.8574
C24_3 C 0.8414(2) 0.5539(4) 0.9657(2)
H23_3 H 0.8233 0.4932 0.9743
C25_3 C 0.8517(3) 0.1433(5) 0.6343(3)
H24_3 H 0.8406 0.0904 0.6028
Ag5_2 Ag 0.957405(18) 0.18931(4) 0.583754(19)
N12_2 N 0.4010(2) 0.6983(5) 0.6479(2)
O8_4 O 0.78485(13) 0.8271(2) 0.36579(14)
O9_4 O 0.66731(13) 0.5922(3) 0.26303(14)
O10_3 O 0.80511(14) 0.4883(2) 0.35630(13)
O11_4 O 0.79819(13) 0.7513(2) 0.23992(15)
C26_4 C 0.7734(2) 0.9180(3) 0.3921(2)
C27_4 C 0.62310(18) 0.5329(4) 0.22176(19)
C28_4 C 0.7822(2) 0.5915(4) 0.3663(2)
H25_4 H 0.8107 0.6325 0.4000
H26_4 H 0.7503 0.5772 0.3765
C29_4 C 0.71771(17) 0.5967(4) 0.25292(18)
H27_4 H 0.7104 0.6353 0.2145
H28_4 H 0.7305 0.5214 0.2501
C30_3 C 0.6243(2) 0.4734(4) 0.1730(2)
H29_3 H 0.6563 0.4750 0.1647
C31_4 C 0.8147(2) 0.6753(4) 0.2921(2)
H30_4 H 0.8459 0.7066 0.3274
H31_4 H 0.8266 0.6040 0.2818
N7_3 N 0.53113(17) 0.4079(4) 0.14504(18)
C32_4 C 0.8191(2) 0.9618(4) 0.4418(2)
H32_4 H 0.8548 0.9294 0.4554
C33_4 C 0.73905(19) 0.7708(3) 0.3171(2)
H33_4 H 0.7253 0.8156 0.2797
H34_4 H 0.7079 0.7577 0.3289
N8_2 N 0.90137(18) 0.2870(4) 0.5035(2)
N9_2 N 0.40137(18) 0.2130(4) 0.0035(2)
C34_4 C 0.76327(18) 0.6591(3) 0.30674(19)
C35_3 C 0.83552(19) 0.4243(4) 0.4068(2)
C36_4 C 0.7211(2) 0.9708(4) 0.3724(2)
H35_4 H 0.6898 0.9444 0.3387
C38_4 C 0.8865(2) 0.7112(5) 0.2294(2)
H37_4 H 0.9004 0.6619 0.2626
C39_4 C 0.83436(19) 0.7649(4) 0.2130(2)
C40_3 C 0.5783(2) 0.4121(4) 0.1369(2)
H38_3 H 0.5803 0.3708 0.1047
C41_4 C 0.8173(2) 0.8390(4) 0.1644(2)
H39_4 H 0.7829 0.8764 0.1520
C43_4 C 0.5746(2) 0.5284(5) 0.2321(2)
H41_4 H 0.5721 0.5666 0.2649
C44_3 C 0.5303(2) 0.4659(5) 0.1925(3)
H42_4 H 0.4973 0.4637 0.1991
C45_3 C 0.8949(2) 0.2657(4) 0.4449(2)
H43_3 H 0.9132 0.2040 0.4376
C46_4 C 0.9160(3) 0.7336(6) 0.1953(3)
H44_4 H 0.9505 0.6971 0.2066
C47_3 C 0.8629(2) 0.3311(4) 0.3970(2)
H45_3 H 0.8591 0.3139 0.3574
C48_4 C 0.8748(2) 0.3756(5) 0.5114(2)
H46_4 H 0.8790 0.3914 0.5513
C49_3 C 0.8414(2) 0.4461(4) 0.4657(2)
H47_4 H 0.8233 0.5068 0.4743
C50_4 C 0.8517(3) 0.8567(5) 0.1343(3)
H48_4 H 0.8406 0.9096 0.1028
C23_4 C 0.3748(2) 0.1244(5) 0.0114(2)
H22_4 H 0.3790 0.1086 0.0513
Ag2_4 Ag 0.2500 0.2500 1.0000
O4_4 O 0.28485(13) 0.6729(2) 0.86579(14)
O5_4 O 0.16731(13) 0.9078(3) 0.76303(14)
O7_4 O 0.29819(13) 0.7487(2) 0.73992(15)
C1_4 C 0.2734(2) 0.5820(3) 0.8921(2)
C2_4 C 0.12310(18) 0.9671(4) 0.72176(19)
C3_4 C 0.2822(2) 0.9085(4) 0.8663(2)
H1_4 H 0.3107 0.8675 0.9000
H2_4 H 0.2503 0.9228 0.8765
C4_4 C 0.21771(17) 0.9033(4) 0.75292(18)
H3_4 H 0.2104 0.8647 0.7145
H4_4 H 0.2305 0.9786 0.7501
C6_4 C 0.3147(2) 0.8247(4) 0.7921(2)
H6_4 H 0.3459 0.7934 0.8274
H7_4 H 0.3266 0.8960 0.7818
N2_3 N 0.26025(19) 0.3930(3) 0.95268(19)
C7_4 C 0.3191(2) 0.5382(4) 0.9418(2)
H8_4 H 0.3548 0.5706 0.9554
C8_4 C 0.23905(19) 0.7292(3) 0.8171(2)
H9_4 H 0.2253 0.6844 0.7797
H10_4 H 0.2079 0.7423 0.8289
C9_4 C 0.26327(18) 0.8409(3) 0.80674(19)
C11_4 C 0.2211(2) 0.5292(4) 0.8724(2)
H11_4 H 0.1898 0.5556 0.8387
C12_3 C 0.3097(2) 0.4437(4) 0.9708(2)
C13_4 C 0.3865(2) 0.7888(5) 0.7294(2)
H13_4 H 0.4004 0.8381 0.7626
C14_4 C 0.33436(19) 0.7351(4) 0.7130(2)
C16_4 C 0.3173(2) 0.6610(4) 0.6644(2)
H15_4 H 0.2829 0.6236 0.6520
C17_3 C 0.2176(2) 0.4371(4) 0.9047(2)
H16_3 H 0.1824 0.4024 0.8920
C18_4 C 0.0746(2) 0.9716(5) 0.7321(2)
H17_4 H 0.0721 0.9334 0.7649
C21_4 C 0.4160(3) 0.7664(6) 0.6953(3)
H20_4 H 0.4505 0.8029 0.7066
H23_4 H 0.3233 0.9932 0.9743
C25_4 C 0.3517(3) 0.6433(5) 0.6343(3)
H24_4 H 0.3406 0.5904 0.6028
H36_3 H 0.1601 0.0851 0.9951
H18_4 H 0.9973 0.0363 0.6991
Ag2_5 Ag 0.7500 0.7500 1.0000
N2_4 N 0.76025(19) 0.8930(3) 0.95268(19)
C12_4 C 0.8097(2) 0.9437(4) 0.9708(2)
C17_4 C 0.7176(2) 0.9371(4) 0.9047(2)
H16_4 H 0.6824 0.9024 0.8920
H36_4 H 0.6601 0.5851 0.9951
O10_4 O 0.69489(14) 0.9883(2) 0.14370(13)
C30_4 C 0.8757(2) 0.9734(4) 0.3270(2)
H29_4 H 0.8437 0.9750 0.3353
N7_4 N 0.96887(17) 0.9079(4) 0.35496(18)
C35_4 C 0.66448(19) 0.9243(4) 0.0932(2)
C40_4 C 0.9217(2) 0.9121(4) 0.3631(2)
H38_4 H 0.9197 0.8708 0.3953
C44_4 C 0.9697(2) 0.9659(5) 0.3075(3)
C45_4 C 0.6051(2) 0.7657(4) 0.0551(2)
H43_4 H 0.5868 0.7040 0.0624
C47_4 C 0.6371(2) 0.8311(4) 0.1030(2)
H45_4 H 0.6409 0.8139 0.1426
C49_4 C 0.6586(2) 0.9461(4) 0.0343(2)
O6_4 O 0.30511(14) 0.0117(2) 0.85630(13)
C5_4 C 0.1243(2) 0.0266(4) 0.6730(2)
H5_4 H 0.1563 0.0250 0.6647
N3_4 N 0.03113(17) 0.0921(4) 0.64504(18)
C10_4 C 0.33552(19) 0.0757(4) 0.9068(2)
C15_4 C 0.0783(2) 0.0879(4) 0.6369(2)
H14_4 H 0.0803 0.1292 0.6047
C19_4 C 0.0303(2) 0.0341(5) 0.6925(3)
C20_4 C 0.3949(2) 0.2343(4) 0.9449(2)
H19_4 H 0.4132 0.2960 0.9376
C22_4 C 0.3629(2) 0.1689(4) 0.8970(2)
H21_4 H 0.3591 0.1861 0.8574
C24_4 C 0.3414(2) 0.0539(4) 0.9657(2)
Ag2_6 Ag 0.2500 0.2500 -0.0000
H12_4 H 0.3399 0.4149 0.0049
N6_4 N 0.23975(19) 0.1070(3) 0.04732(19)
C37_4 C 0.1903(2) 0.0563(4) 0.0292(2)
C42_4 C 0.2824(2) 0.0629(4) 0.0953(2)
H40_4 H 0.3176 0.0976 0.1080
loop_
_geom_bond_atom_site_label_1
_geom_bond_atom_site_label_2
_geom_bond_site_symmetry_1
_geom_bond_site_symmetry_2
O1 N1 1_555 1_555
O2 N1 1_555 1_555
O3 N1 1_555 1_555
O1_2 N1_2 1_555 1_555
O2_2 N1_2 1_555 1_555
O1_3 N1_3 1_555 1_555
O2_3 N1_3 1_555 1_555
O1_4 N1_4 1_555 1_555
O2_4 N1_4 1_555 1_555
O1_5 N1_5 1_555 1_555
O2_5 N1_5 1_555 1_555
O3_5 N1_5 1_555 1_555
O1_6 N1_6 1_555 1_555
O2_6 N1_6 1_555 1_555
O1_7 N1_7 1_555 1_555
O2_7 N1_7 1_555 1_555
O1_8 N1_8 1_555 1_555
O2_8 N1_8 1_555 1_555
Ag1 N3 1_555 1_555
O4 C1 1_555 1_555
O5 C2 1_555 1_555
O6 C3 1_555 1_555
O7 C6 1_555 1_555
C1 C7 1_555 1_555
C2 C5 1_555 1_555
C3 H1 1_555 1_555
H2 C3 1_555 1_555
C4 O5 1_555 1_555
H3 C4 1_555 1_555
H4 C4 1_555 1_555
C5 H5 1_555 1_555
C6 H6 1_555 1_555
H7 C6 1_555 1_555
N3 C15 1_555 1_555
C7 H8 1_555 1_555
C8 O4 1_555 1_555
H9 C8 1_555 1_555
H10 C8 1_555 1_555
N4 C20 1_555 1_555
C9 C3 1_555 1_555
C10 O6 1_555 1_555
C11 C1 1_555 1_555
H11 C11 1_555 1_555
C13 H13 1_555 1_555
N5 C21 1_555 1_555
C14 O7 1_555 1_555
C15 C5 1_555 1_555
H14 C15 1_555 1_555
C16 C14 1_555 1_555
H15 C16 1_555 1_555
C18 C2 1_555 1_555
H17 C18 1_555 1_555
C19 N3 1_555 1_555
H18 C19 1_555 1_555
C20 H19 1_555 1_555
C21 C13 1_555 1_555
H20 C21 1_555 1_555
C22 C10 1_555 1_555
H21 C22 1_555 1_555
C23 N4 1_555 1_555
H22 C23 1_555 1_555
C24 C10 1_555 1_555
H23 C24 1_555 1_555
C25 N5 1_555 1_555
H24 C25 1_555 1_555
Ag5 N5 1_555 1_555
Ag7 N4 1_555 1_555
N10 Ag1 1_555 1_555
N12 Ag1 1_555 1_555
C4 C9 1_555 1_555
C6 C9 1_555 1_555
C8 C9 1_555 1_555
C13 C14 1_555 1_555
C16 C25 1_555 1_555
C18 C19 1_555 1_555
C20 C22 1_555 1_555
C23 C24 1_555 1_555
N13 Ag7 1_555 1_555
Ag6 N11 1_555 1_555
O8 C26 1_555 1_555
O9 C27 1_555 1_555
O11 C31 1_555 1_555
C26 C32 1_555 1_555
C28 H25 1_555 1_555
H26 C28 1_555 1_555
C29 O9 1_555 1_555
H27 C29 1_555 1_555
H28 C29 1_555 1_555
C31 H30 1_555 1_555
H31 C31 1_555 1_555
N6 Ag2 1_555 1_555
C32 H32 1_555 1_555
C33 O8 1_555 1_555
H33 C33 1_555 1_555
H34 C33 1_555 1_555
C34 C28 1_555 1_555
C36 C26 1_555 1_555
H35 C36 1_555 1_555
C37 N6 1_555 1_555
C38 H37 1_555 1_555
N11 C46 1_555 1_555
C39 O11 1_555 1_555
C41 C39 1_555 1_555
H39 C41 1_555 1_555
C42 N6 1_555 1_555
H40 C42 1_555 1_555
C43 C27 1_555 1_555
H41 C43 1_555 1_555
C46 C38 1_555 1_555
H44 C46 1_555 1_555
C50 N11 1_555 1_555
H48 C50 1_555 1_555
C29 C34 1_555 1_555
C31 C34 1_555 1_555
C32 C37 1_555 1_555
C33 C34 1_555 1_555
C36 C42 1_555 1_555
C38 C39 1_555 1_555
C41 C50 1_555 1_555
C48 N10 1_555 1_555
H46 C48 1_555 1_555
N10_2 Ag5 1_555 1_555
C5_2 H5_2 1_555 1_555
N3_2 C15_2 1_555 1_555
N4_2 C20_2 1_555 1_555
C10_2 O6_2 1_555 1_555
C15_2 C5_2 1_555 1_555
H14_2 C15_2 1_555 1_555
C19_2 N3_2 1_555 1_555
C20_2 H19_2 1_555 1_555
C22_2 C10_2 1_555 1_555
H21_2 C22_2 1_555 1_555
C23_2 N4_2 1_555 1_555
H22_2 C23_2 1_555 1_555
C24_2 C10_2 1_555 1_555
Ag6 N4_2 1_555 1_555
C20_2 C22_2 1_555 1_555
C23_2 C24_2 1_555 1_555
Ag2_2 N2 1_555 1_555
O4_2 C1_2 1_555 1_555
O5_2 C2_2 1_555 1_555
O7_2 C6_2 1_555 1_555
C1_2 C7_2 1_555 1_555
C3_2 H1_2 1_555 1_555
H2_2 C3_2 1_555 1_555
C4_2 O5_2 1_555 1_555
H3_2 C4_2 1_555 1_555
H4_2 C4_2 1_555 1_555
C6_2 H6_2 1_555 1_555
H7_2 C6_2 1_555 1_555
N2 C12 1_555 1_555
C7_2 H8_2 1_555 1_555
C8_2 O4_2 1_555 1_555
H9_2 C8_2 1_555 1_555
H10_2 C8_2 1_555 1_555
C9_2 C3_2 1_555 1_555
C11_2 C1_2 1_555 1_555
H11_2 C11_2 1_555 1_555
C12 C7_2 1_555 1_555
H12_2 C12 1_555 1_555
C13_2 H13_2 1_555 1_555
N12 C21_2 1_555 1_555
C14_2 O7_2 1_555 1_555
C16_2 C14_2 1_555 1_555
H15_2 C16_2 1_555 1_555
C17 N2 1_555 1_555
H16 C17 1_555 1_555
C18_2 C2_2 1_555 1_555
H17_2 C18_2 1_555 1_555
C21_2 C13_2 1_555 1_555
H20_2 C21_2 1_555 1_555
C25_2 N12 1_555 1_555
H24_2 C25_2 1_555 1_555
N6_2 Ag2_2 1_555 1_555
C37_2 N6_2 1_555 1_555
H36 C37_2 1_555 1_555
C42_2 N6_2 1_555 1_555
H40_2 C42_2 1_555 1_555
C4_2 C9_2 1_555 1_555
C6_2 C9_2 1_555 1_555
C8_2 C9_2 1_555 1_555
C11_2 C17 1_555 1_555
C13_2 C14_2 1_555 1_555
C16_2 C25_2 1_555 1_555
Ag6 N7 1_555 1_555
O8_2 C26_2 1_555 1_555
O9_2 C27_2 1_555 1_555
O10 C28_2 1_555 1_555
O11_2 C31_2 1_555 1_555
C26_2 C32_2 1_555 1_555
C27_2 C30 1_555 1_555
C28_2 H25_2 1_555 1_555
H26_2 C28_2 1_555 1_555
C29_2 O9_2 1_555 1_555
H27_2 C29_2 1_555 1_555
H28_2 C29_2 1_555 1_555
C30 H29 1_555 1_555
C31_2 H30_2 1_555 1_555
H31_2 C31_2 1_555 1_555
N7 C40 1_555 1_555
C32_2 H32_2 1_555 1_555
C33_2 O8_2 1_555 1_555
H33_2 C33_2 1_555 1_555
H34_2 C33_2 1_555 1_555
C34_2 C28_2 1_555 1_555
C35 O10 1_555 1_555
C36_2 C26_2 1_555 1_555
H35_2 C36_2 1_555 1_555
C38_2 H37_2 1_555 1_555
N13 C46_2 1_555 1_555
C39_2 O11_2 1_555 1_555
C40 C30 1_555 1_555
H38 C40 1_555 1_555
C41_2 C39_2 1_555 1_555
H39_2 C41_2 1_555 1_555
C43_2 C27_2 1_555 1_555
H41_2 C43_2 1_555 1_555
C44 N7 1_555 1_555
H42_2 C44 1_555 1_555
C45 H43 1_555 1_555
C46_2 C38_2 1_555 1_555
H44_2 C46_2 1_555 1_555
C47 C35 1_555 1_555
H45 C47 1_555 1_555
C49 C35 1_555 1_555
H47_2 C49 1_555 1_555
C50_2 N13 1_555 1_555
H48_2 C50_2 1_555 1_555
C29_2 C34_2 1_555 1_555
C31_2 C34_2 1_555 1_555
C33_2 C34_2 1_555 1_555
C38_2 C39_2 1_555 1_555
C41_2 C50_2 1_555 1_555
C43_2 C44 1_555 1_555
C45 C47 1_555 1_555
C48_2 N10_2 1_555 1_555
H46_2 C48_2 1_555 1_555
Ag2_3 N2_2 1_555 1_555
N2_2 C12_2 1_555 1_555
H12_3 C12_2 1_555 1_555
C17_2 N2_2 1_555 1_555
H16_2 C17_2 1_555 1_555
Ag6_2 N11_2 1_555 1_555
O8_3 C26_3 1_555 1_555
O9_3 C27_3 1_555 1_555
O11_3 C31_3 1_555 1_555
C26_3 C32_3 1_555 1_555
C28_3 H25_3 1_555 1_555
H26_3 C28_3 1_555 1_555
C29_3 O9_3 1_555 1_555
H27_3 C29_3 1_555 1_555
H28_3 C29_3 1_555 1_555
C31_3 H30_3 1_555 1_555
H31_3 C31_3 1_555 1_555
N6_3 Ag2_3 1_555 1_555
C32_3 H32_3 1_555 1_555
C33_3 O8_3 1_555 1_555
H33_3 C33_3 1_555 1_555
H34_3 C33_3 1_555 1_555
C34_3 C28_3 1_555 1_555
C36_3 C26_3 1_555 1_555
H35_3 C36_3 1_555 1_555
C37_3 N6_3 1_555 1_555
H36_2 C37_3 1_555 1_555
C38_3 H37_3 1_555 1_555
N11_2 C46_3 1_555 1_555
C39_3 O11_3 1_555 1_555
C41_3 C39_3 1_555 1_555
H39_3 C41_3 1_555 1_555
C42_3 N6_3 1_555 1_555
H40_3 C42_3 1_555 1_555
C43_3 C27_3 1_555 1_555
H41_3 C43_3 1_555 1_555
C46_3 C38_3 1_555 1_555
H44_3 C46_3 1_555 1_555
C50_3 N11_2 1_555 1_555
H48_3 C50_3 1_555 1_555
C29_3 C34_3 1_555 1_555
C31_3 C34_3 1_555 1_555
C32_3 C37_3 1_555 1_555
C33_3 C34_3 1_555 1_555
C36_3 C42_3 1_555 1_555
C38_3 C39_3 1_555 1_555
C41_3 C50_3 1_555 1_555
Ag4 N8 1_555 1_555
C30_2 H29_2 1_555 1_555
N7_2 C40_2 1_555 1_555
N8 C45_2 1_555 1_555
C35_2 O10_2 1_555 1_555
C40_2 C30_2 1_555 1_555
H38_2 C40_2 1_555 1_555
C44_2 N7_2 1_555 1_555
C45_2 H43_2 1_555 1_555
C47_2 C35_2 1_555 1_555
H45_2 C47_2 1_555 1_555
C48_3 N8 1_555 1_555
H46_3 C48_3 1_555 1_555
C49_2 C35_2 1_555 1_555
C45_2 C47_2 1_555 1_555
C48_3 C49_2 1_555 1_555
N9 Ag3 1_555 1_555
N13_2 Ag3 1_555 1_555
C23_3 N9 1_555 1_555
H22_3 C23_3 1_555 1_555
Ag4 N3_3 1_555 1_555
O4_3 C1_3 1_555 1_555
O5_3 C2_3 1_555 1_555
O6_3 C3_3 1_555 1_555
O7_3 C6_3 1_555 1_555
C1_3 C7_3 1_555 1_555
C2_3 C5_3 1_555 1_555
C3_3 H1_3 1_555 1_555
H2_3 C3_3 1_555 1_555
C4_3 O5_3 1_555 1_555
H3_3 C4_3 1_555 1_555
H4_3 C4_3 1_555 1_555
C5_3 H5_3 1_555 1_555
C6_3 H6_3 1_555 1_555
H7_3 C6_3 1_555 1_555
N3_3 C15_3 1_555 1_555
C7_3 H8_3 1_555 1_555
C8_3 O4_3 1_555 1_555
H9_3 C8_3 1_555 1_555
H10_3 C8_3 1_555 1_555
C9_3 C3_3 1_555 1_555
C10_3 O6_3 1_555 1_555
C11_3 C1_3 1_555 1_555
H11_3 C11_3 1_555 1_555
C13_3 H13_3 1_555 1_555
N5_2 C21_3 1_555 1_555
C14_3 O7_3 1_555 1_555
C15_3 C5_3 1_555 1_555
H14_3 C15_3 1_555 1_555
C16_3 C14_3 1_555 1_555
H15_3 C16_3 1_555 1_555
C18_3 C2_3 1_555 1_555
H17_3 C18_3 1_555 1_555
C19_3 N3_3 1_555 1_555
H18_3 C19_3 1_555 1_555
C20_3 H19_3 1_555 1_555
C21_3 C13_3 1_555 1_555
H20_3 C21_3 1_555 1_555
C22_3 C10_3 1_555 1_555
H21_3 C22_3 1_555 1_555
C24_3 C10_3 1_555 1_555
H23_3 C24_3 1_555 1_555
C25_3 N5_2 1_555 1_555
H24_3 C25_3 1_555 1_555
Ag5_2 N5_2 1_555 1_555
N12_2 Ag4 1_555 1_555
C4_3 C9_3 1_555 1_555
C6_3 C9_3 1_555 1_555
C8_3 C9_3 1_555 1_555
C13_3 C14_3 1_555 1_555
C16_3 C25_3 1_555 1_555
C18_3 C19_3 1_555 1_555
C20_3 C22_3 1_555 1_555
Ag6_2 N7_3 1_555 1_555
Ag5_2 N8_2 1_555 1_555
O8_4 C26_4 1_555 1_555
O9_4 C27_4 1_555 1_555
O10_3 C28_4 1_555 1_555
O11_4 C31_4 1_555 1_555
C26_4 C32_4 1_555 1_555
C27_4 C30_3 1_555 1_555
C28_4 H25_4 1_555 1_555
H26_4 C28_4 1_555 1_555
C29_4 O9_4 1_555 1_555
H27_4 C29_4 1_555 1_555
H28_4 C29_4 1_555 1_555
C30_3 H29_3 1_555 1_555
C31_4 H30_4 1_555 1_555
H31_4 C31_4 1_555 1_555
N7_3 C40_3 1_555 1_555
C32_4 H32_4 1_555 1_555
C33_4 O8_4 1_555 1_555
H33_4 C33_4 1_555 1_555
H34_4 C33_4 1_555 1_555
N8_2 C45_3 1_555 1_555
N9_2 Ag6_2 1_555 1_555
C34_4 C28_4 1_555 1_555
C35_3 O10_3 1_555 1_555
C36_4 C26_4 1_555 1_555
H35_4 C36_4 1_555 1_555
C38_4 H37_4 1_555 1_555
N13_2 C46_4 1_555 1_555
C39_4 O11_4 1_555 1_555
C40_3 C30_3 1_555 1_555
H38_3 C40_3 1_555 1_555
C41_4 C39_4 1_555 1_555
H39_4 C41_4 1_555 1_555
C43_4 C27_4 1_555 1_555
H41_4 C43_4 1_555 1_555
C44_3 N7_3 1_555 1_555
H42_4 C44_3 1_555 1_555
C45_3 H43_3 1_555 1_555
C46_4 C38_4 1_555 1_555
H44_4 C46_4 1_555 1_555
C47_3 C35_3 1_555 1_555
H45_3 C47_3 1_555 1_555
C48_4 N8_2 1_555 1_555
H46_4 C48_4 1_555 1_555
C49_3 C35_3 1_555 1_555
H47_4 C49_3 1_555 1_555
C50_4 N13_2 1_555 1_555
H48_4 C50_4 1_555 1_555
C29_4 C34_4 1_555 1_555
C31_4 C34_4 1_555 1_555
C33_4 C34_4 1_555 1_555
C38_4 C39_4 1_555 1_555
C41_4 C50_4 1_555 1_555
C43_4 C44_3 1_555 1_555
C45_3 C47_3 1_555 1_555
C48_4 C49_3 1_555 1_555
C23_4 N9_2 1_555 1_555
H22_4 C23_4 1_555 1_555
Ag2_4 N2_3 1_555 1_555
O4_4 C1_4 1_555 1_555
O5_4 C2_4 1_555 1_555
O7_4 C6_4 1_555 1_555
C1_4 C7_4 1_555 1_555
C3_4 H1_4 1_555 1_555
H2_4 C3_4 1_555 1_555
C4_4 O5_4 1_555 1_555
H3_4 C4_4 1_555 1_555
H4_4 C4_4 1_555 1_555
C6_4 H6_4 1_555 1_555
H7_4 C6_4 1_555 1_555
N2_3 C12_3 1_555 1_555
C7_4 H8_4 1_555 1_555
C8_4 O4_4 1_555 1_555
H9_4 C8_4 1_555 1_555
H10_4 C8_4 1_555 1_555
C9_4 C3_4 1_555 1_555
C11_4 C1_4 1_555 1_555
H11_4 C11_4 1_555 1_555
C12_3 C7_4 1_555 1_555
C13_4 H13_4 1_555 1_555
N12_2 C21_4 1_555 1_555
C14_4 O7_4 1_555 1_555
C16_4 C14_4 1_555 1_555
H15_4 C16_4 1_555 1_555
C17_3 N2_3 1_555 1_555
H16_3 C17_3 1_555 1_555
C18_4 C2_4 1_555 1_555
H17_4 C18_4 1_555 1_555
C21_4 C13_4 1_555 1_555
H20_4 C21_4 1_555 1_555
C25_4 N12_2 1_555 1_555
H24_4 C25_4 1_555 1_555
C4_4 C9_4 1_555 1_555
C6_4 C9_4 1_555 1_555
C8_4 C9_4 1_555 1_555
C11_4 C17_3 1_555 1_555
C13_4 C14_4 1_555 1_555
C16_4 C25_4 1_555 1_555
Ag2_5 N2_4 1_555 1_555
N2_4 C12_4 1_555 1_555
C17_4 N2_4 1_555 1_555
H16_4 C17_4 1_555 1_555
C30_4 H29_4 1_555 1_555
N7_4 C40_4 1_555 1_555
C35_4 O10_4 1_555 1_555
C40_4 C30_4 1_555 1_555
H38_4 C40_4 1_555 1_555
C44_4 N7_4 1_555 1_555
C45_4 H43_4 1_555 1_555
C47_4 C35_4 1_555 1_555
H45_4 C47_4 1_555 1_555
C49_4 C35_4 1_555 1_555
C45_4 C47_4 1_555 1_555
C5_4 H5_4 1_555 1_555
N3_4 C15_4 1_555 1_555
C10_4 O6_4 1_555 1_555
C15_4 C5_4 1_555 1_555
H14_4 C15_4 1_555 1_555
C19_4 N3_4 1_555 1_555
C20_4 H19_4 1_555 1_555
C22_4 C10_4 1_555 1_555
H21_4 C22_4 1_555 1_555
C24_4 C10_4 1_555 1_555
C20_4 C22_4 1_555 1_555
N6_4 Ag2_6 1_555 1_555
C37_4 N6_4 1_555 1_555
C42_4 N6_4 1_555 1_555
H40_4 C42_4 1_555 1_555

#END
