
###############################################################################
#
# This file contains modified crystal structure data generated from the
# MOF subset of the Cambridge Structural Database (CSD) v543 
# hosted by the Cambridge Crystallographic Data Centre (CCDC).
#
# This work is licensed under the Creative Commons
# Attribution-NonCommercial-ShareAlike 4.0 International License.
# To view a copy of this license, visit
# http://creativecommons.org/licenses/by-nc-sa/4.0/
# or send a letter to
# Creative Commons, PO Box 1866, Mountain View, CA 94042, USA.
#
# CIF created using the CSD Python API on 29 September 2022
# The structure has been converted into the P1 space group
# The structure has a 3D framework
# The original CSD entry REHJIZ is in the tetragonal crystal system
# The framework has been calculated to contain at least 10.0% void space
# The void calculation uses a probe of radius 1.32A, grid spacing 0.4
# The framework is charged, counterions have been retained in the structure
#
###############################################################################

data_REHJIZ
_chemical_formula_moiety         '(C51 H48 Ag2 N8 O8 2+)n'
_symmetry_cell_setting           triclinic
_symmetry_space_group_name_H-M   'P 1'
_symmetry_Int_Tables_number      1
_space_group_name_Hall           'P 1'
loop_
_symmetry_equiv_pos_site_id
_symmetry_equiv_pos_as_xyz
1 x,y,z
_cell_length_a                   10.0372(9)
_cell_length_b                   10.0372(9)
_cell_length_c                   17.607(4)
_cell_angle_alpha                90
_cell_angle_beta                 90
_cell_angle_gamma                90
_cell_volume                     1773.82
loop_
_atom_site_label
_atom_site_type_symbol
_atom_site_fract_x
_atom_site_fract_y
_atom_site_fract_z
Ag4 Ag -0.0000 0.29786(16) 0.2500
C18 C 0.0478(9) 0.2856(10) 0.0043(9)
C24 C 0.0650(9) 0.2755(11) 0.0808(8)
H23 H 0.1447 0.2402 0.0987
Ag3 Ag 0.70214(16) -0.0000 0.7500
C17 C 0.7144(10) 0.0478(9) 0.9957(9)
C23 C 0.7245(11) 0.0650(9) 0.9192(8)
H22 H 0.7598 0.1447 0.9013
Ag1 Ag 0.29786(16) 1.0000 0.7500
C5 C 0.2856(10) 0.9522(9) 0.9957(9)
C7 C 0.2755(11) 0.9350(9) 0.9192(8)
H6 H 0.2402 0.8553 0.9013
N5 N 0.3128(8) 0.9760(7) 0.6303(6)
Ag2 Ag 1.0000 0.70214(16) 0.2500
N6 N 0.9760(7) 0.6872(8) 0.3697(6)
C19 C 0.9522(9) 0.7144(10) 0.0043(9)
C25 C 0.9350(9) 0.7245(11) 0.0808(8)
H24 H 0.8553 0.7598 0.0987
N6_2 N 0.0240(7) 0.3128(8) 0.3697(6)
N5_2 N 0.6872(8) 0.0240(7) 0.6303(6)
C1 C 0.5000 0.5000 0.5000
C2 C 0.3850(6) 0.8407(6) 0.5276(5)
C3 C 0.3399(9) 0.9321(8) 0.4751(7)
H1 H 0.3458 0.9169 0.4231
C4 C 0.4664(6) 0.6193(6) 0.5491(4)
H2 H 0.3898 0.6002 0.5809
H3 H 0.5411 0.6422 0.5815
C6 C 0.3705(7) 0.8645(7) 0.6033(6)
H5 H 0.4016 0.8014 0.6377
O1 O 0.4375(6) 0.7254(5) 0.4982(4)
C8 C 0.6150(6) 0.1593(6) 0.5276(5)
C9 C 0.8407(6) 0.6150(6) 0.4724(5)
C10 C 0.1593(6) 0.3850(6) 0.4724(5)
C11 C 0.6601(9) 0.0679(8) 0.4751(7)
C12 C 0.9321(8) 0.6601(9) 0.5249(7)
C13 C 0.0679(8) 0.3399(9) 0.5249(7)
H7 H 0.6542 0.0831 0.4231
H8 H 0.9169 0.6542 0.5769
H9 H 0.0831 0.3458 0.5769
C14 C 0.5336(6) 0.3807(6) 0.5491(4)
C15 C 0.6193(6) 0.5336(6) 0.4509(4)
C16 C 0.3807(6) 0.4664(6) 0.4509(4)
H10 H 0.6102 0.3998 0.5809
H11 H 0.6002 0.6102 0.4191
H12 H 0.3998 0.3898 0.4191
H13 H 0.4589 0.3578 0.5815
H14 H 0.6422 0.4589 0.4185
H15 H 0.3578 0.5411 0.4185
C20 C 0.6295(7) 0.1355(7) 0.6033(6)
C21 C 0.8645(7) 0.6295(7) 0.3967(6)
C22 C 0.1355(7) 0.3705(7) 0.3967(6)
H19 H 0.5984 0.1986 0.6377
H20 H 0.8014 0.5984 0.3623
H21 H 0.1986 0.4016 0.3623
O2 O 0.5625(6) 0.2746(5) 0.4982(4)
O3 O 0.7254(5) 0.5625(6) 0.5018(4)
O4 O 0.2746(5) 0.4375(6) 0.5018(4)
H17 H 0.1141 0.2557 0.9715
H16 H 0.7443 0.1141 0.0285
C1_2 C 0.5000 0.5000 -0.0000
C3_2 C 0.3399(9) 0.0679(8) 0.0249(7)
H1_2 H 0.3458 0.0831 0.0769
O1_2 O 0.4375(6) 0.2746(5) 0.0018(4)
Ag2_2 Ag -0.0000 0.70214(16) 0.2500
Ag4_2 Ag 1.0000 0.29786(16) 0.2500
N3 N 0.9760(7) 0.3128(8) 0.1303(6)
N4 N 0.0240(7) 0.6872(8) 0.1303(6)
C9_2 C 0.8407(6) 0.3850(6) 0.0276(5)
C10_2 C 0.1593(6) 0.6150(6) 0.0276(5)
C11_2 C 0.6601(9) 0.9321(8) 0.0249(7)
H7_2 H 0.6542 0.9169 0.0769
C15_2 C 0.6193(6) 0.4664(6) 0.0491(4)
C16_2 C 0.3807(6) 0.5336(6) 0.0491(4)
H11_2 H 0.6002 0.3898 0.0809
H12_2 H 0.3998 0.6102 0.0809
H14_2 H 0.6422 0.5411 0.0815
H15_2 H 0.3578 0.4589 0.0815
C21_2 C 0.8645(7) 0.3705(7) 0.1033(6)
C22_2 C 0.1355(7) 0.6295(7) 0.1033(6)
H20_2 H 0.8014 0.4016 0.1377
H21_2 H 0.1986 0.5984 0.1377
O2_2 O 0.5625(6) 0.7254(5) 0.0018(4)
C18_2 C 0.0478(9) 0.7144(10) 0.4957(9)
H17_2 H 0.1141 0.7443 0.5285
C24_2 C 0.0650(9) 0.7245(11) 0.4192(8)
H23_2 H 0.1447 0.7598 0.4013
C19_2 C 0.9522(9) 0.2856(10) 0.4957(9)
H18 H 0.8859 0.2557 0.5285
C25_2 C 0.9350(9) 0.2755(11) 0.4192(8)
H24_2 H 0.8553 0.2402 0.4013
Ag1_2 Ag 0.29786(16) -0.0000 0.7500
C1_3 C 0.5000 0.5000 1.0000
N1 N 0.3128(8) 0.0240(7) 0.8697(6)
C2_2 C 0.3850(6) 0.1593(6) 0.9724(5)
C4_2 C 0.4664(6) 0.3807(6) 0.9509(4)
H2_2 H 0.3898 0.3998 0.9191
H3_2 H 0.5411 0.3578 0.9185
C6_2 C 0.3705(7) 0.1355(7) 0.8967(6)
H5_2 H 0.4016 0.1986 0.8623
Ag3_2 Ag 0.70214(16) 1.0000 0.7500
N2 N 0.6872(8) 0.9760(7) 0.8697(6)
C8_2 C 0.6150(6) 0.8407(6) 0.9724(5)
C12_2 C 0.9321(8) 0.3399(9) 0.9751(7)
C13_2 C 0.0679(8) 0.6601(9) 0.9751(7)
H8_2 H 0.9169 0.3458 0.9231
H9_2 H 0.0831 0.6542 0.9231
C14_2 C 0.5336(6) 0.6193(6) 0.9509(4)
H10_2 H 0.6102 0.6002 0.9191
H13_2 H 0.4589 0.6422 0.9185
C20_2 C 0.6295(7) 0.8645(7) 0.8967(6)
H19_2 H 0.5984 0.8014 0.8623
O3_2 O 0.7254(5) 0.4375(6) 0.9982(4)
O4_2 O 0.2746(5) 0.5625(6) 0.9982(4)
C5_2 C 0.2856(10) 0.0478(9) 0.5043(9)
H4 H 0.2557 0.1141 0.4715
C7_2 C 0.2755(11) 0.0650(9) 0.5808(8)
H6_2 H 0.2402 0.1447 0.5987
C17_2 C 0.7144(10) 0.9522(9) 0.5043(9)
H16_2 H 0.7443 0.8859 0.4715
C23_2 C 0.7245(11) 0.9350(9) 0.5808(8)
H22_2 H 0.7598 0.8553 0.5987
H4_2 H 0.2557 0.8859 0.0285
H18_2 H 0.8859 0.7443 0.9715
loop_
_geom_bond_atom_site_label_1
_geom_bond_atom_site_label_2
_geom_bond_site_symmetry_1
_geom_bond_site_symmetry_2
H23 C24 1_555 1_555
C18 C24 1_555 1_555
H22 C23 1_555 1_555
C17 C23 1_555 1_555
H6 C7 1_555 1_555
N5 Ag1 1_555 1_555
C5 C7 1_555 1_555
N6 Ag2 1_555 1_555
H24 C25 1_555 1_555
C19 C25 1_555 1_555
N6_2 Ag4 1_555 1_555
N5_2 Ag3 1_555 1_555
C1 C4 1_555 1_555
N5 C6 1_555 1_555
C2 C3 1_555 1_555
C3 H1 1_555 1_555
C4 H2 1_555 1_555
H3 C4 1_555 1_555
C6 C2 1_555 1_555
H5 C6 1_555 1_555
O1 C2 1_555 1_555
N5_2 C20 1_555 1_555
N6 C21 1_555 1_555
N6_2 C22 1_555 1_555
C8 C11 1_555 1_555
C9 C12 1_555 1_555
C10 C13 1_555 1_555
C11 H7 1_555 1_555
C12 H8 1_555 1_555
C13 H9 1_555 1_555
C14 C1 1_555 1_555
C15 C1 1_555 1_555
C16 C1 1_555 1_555
H10 C14 1_555 1_555
H11 C15 1_555 1_555
H12 C16 1_555 1_555
H13 C14 1_555 1_555
H14 C15 1_555 1_555
H15 C16 1_555 1_555
C20 C8 1_555 1_555
C21 C9 1_555 1_555
C22 C10 1_555 1_555
H19 C20 1_555 1_555
H20 C21 1_555 1_555
H21 C22 1_555 1_555
O2 C8 1_555 1_555
O3 C9 1_555 1_555
O4 C10 1_555 1_555
C4 O1 1_555 1_555
C14 O2 1_555 1_555
C15 O3 1_555 1_555
C16 O4 1_555 1_555
C3_2 H1_2 1_555 1_555
Ag2_2 N4 1_555 1_555
Ag4_2 N3 1_555 1_555
N3 C21_2 1_555 1_555
N4 C22_2 1_555 1_555
C11_2 H7_2 1_555 1_555
C15_2 C1_2 1_555 1_555
C16_2 C1_2 1_555 1_555
H11_2 C15_2 1_555 1_555
H12_2 C16_2 1_555 1_555
H14_2 C15_2 1_555 1_555
H15_2 C16_2 1_555 1_555
C21_2 C9_2 1_555 1_555
C22_2 C10_2 1_555 1_555
H20_2 C21_2 1_555 1_555
H21_2 C22_2 1_555 1_555
H17_2 C18_2 1_555 1_555
H23_2 C24_2 1_555 1_555
C18_2 C24_2 1_555 1_555
H18 C19_2 1_555 1_555
H24_2 C25_2 1_555 1_555
C19_2 C25_2 1_555 1_555
Ag1_2 N1 1_555 1_555
C1_3 C4_2 1_555 1_555
N1 C6_2 1_555 1_555
C4_2 H2_2 1_555 1_555
H3_2 C4_2 1_555 1_555
C6_2 C2_2 1_555 1_555
H5_2 C6_2 1_555 1_555
Ag3_2 N2 1_555 1_555
N2 C20_2 1_555 1_555
C12_2 H8_2 1_555 1_555
C13_2 H9_2 1_555 1_555
C14_2 C1_3 1_555 1_555
H10_2 C14_2 1_555 1_555
H13_2 C14_2 1_555 1_555
C20_2 C8_2 1_555 1_555
H19_2 C20_2 1_555 1_555
H4 C5_2 1_555 1_555
H6_2 C7_2 1_555 1_555
C5_2 C7_2 1_555 1_555
H16_2 C17_2 1_555 1_555
H22_2 C23_2 1_555 1_555
C17_2 C23_2 1_555 1_555

#END
