
###############################################################################
#
# This file contains modified crystal structure data generated from the
# MOF subset of the Cambridge Structural Database (CSD) v543 
# hosted by the Cambridge Crystallographic Data Centre (CCDC).
#
# This work is licensed under the Creative Commons
# Attribution-NonCommercial-ShareAlike 4.0 International License.
# To view a copy of this license, visit
# http://creativecommons.org/licenses/by-nc-sa/4.0/
# or send a letter to
# Creative Commons, PO Box 1866, Mountain View, CA 94042, USA.
#
# CIF created using the CSD Python API on 29 September 2022
# The structure has been converted into the P1 space group
# The structure has a 3D framework
# The original CSD entry REHVEH is in the orthorhombic crystal system
# The framework has been calculated to contain at least 10.0% void space
# The void calculation uses a probe of radius 1.32A, grid spacing 0.4
#
###############################################################################

data_REHVEH
_chemical_formula_moiety         '(C400 H304 Co16 N48 O60)n'
_symmetry_cell_setting           triclinic
_symmetry_space_group_name_H-M   'P 1'
_symmetry_Int_Tables_number      1
_space_group_name_Hall           'P 1'
loop_
_symmetry_equiv_pos_site_id
_symmetry_equiv_pos_as_xyz
1 x,y,z
_cell_length_a                   52.349(8)
_cell_length_b                   20.421(4)
_cell_length_c                   9.9111(15)
_cell_angle_alpha                90
_cell_angle_beta                 90
_cell_angle_gamma                90
_cell_volume                     10595.2
loop_
_atom_site_label
_atom_site_type_symbol
_atom_site_fract_x
_atom_site_fract_y
_atom_site_fract_z
O3 O 0.45887(4) 0.41970(10) 0.02899(19)
Co2 Co 0.461795(5) 0.339565(11) 0.16536(2)
O1 O 0.45939(4) 0.41590(11) 0.30966(19)
O2 O 0.46488(4) 0.32349(11) 0.4159(3)
O4 O 0.46125(4) 0.32708(11) 0.9258(3)
N1 N 0.46447(3) 0.73447(7) 0.6633(2)
N2 N 0.50245(3) 0.35057(8) 0.1577(2)
C1 C 0.46417(3) 0.52428(9) 0.6659(3)
C2 C 0.46423(4) 0.48859(11) 0.5451(2)
H1 H 0.4650 0.5109 0.4612
C3 C 0.46317(4) 0.42070(12) 0.5478(3)
C4 C 0.46226(4) 0.38771(9) 0.6687(3)
H2 H 0.4618 0.3412 0.6699
C5 C 0.46204(4) 0.42282(12) 0.7900(3)
C6 C 0.46314(4) 0.49027(11) 0.7876(2)
H3 H 0.4632 0.5139 0.8702
C7 C 0.45481(6) 0.69967(11) 0.5606(3)
H4 H 0.4479 0.7226 0.4857
C8 C 0.45444(6) 0.63236(12) 0.5586(3)
H5 H 0.4471 0.6101 0.4837
C9 C 0.46458(4) 0.59674(9) 0.6645(3)
C10 C 0.47466(4) 0.63277(10) 0.7708(2)
H6 H 0.4817 0.6110 0.8469
C11 C 0.47438(4) 0.70063(10) 0.7656(2)
H7 H 0.4817 0.7242 0.8387
C12 C 0.46248(4) 0.38401(12) 0.4165(3)
C13 C 0.46058(4) 0.38675(12) 0.9219(3)
C14 C 0.58331(5) 0.38646(16) 0.1143(4)
H8 H 0.5899 0.4096 0.1949
H9 H 0.5922 0.3439 0.1079
C15 C 0.51239(5) 0.41039(10) 0.1766(3)
H10 H 0.5011 0.4451 0.1997
C16 C 0.53805(5) 0.42423(12) 0.1643(4)
H11 H 0.5441 0.4676 0.1777
C17 C 0.55503(4) 0.37428(13) 0.1322(3)
C18 C 0.54484(5) 0.31281(13) 0.1116(3)
H12 H 0.5557 0.2772 0.0892
C19 C 0.51879(4) 0.30309(11) 0.1236(3)
H13 H 0.5122 0.2605 0.1067
H14 H 0.5830 0.4716 0.0037
C21 C 0.66043(5) 0.45726(14) 0.0256(3)
H16 H 0.6714 0.4818 0.0827
C22 C 0.63421(5) 0.46122(17) 0.0474(4)
H17 H 0.6277 0.4872 0.1192
Co3 Co 0.461795(5) 0.839565(11) 0.66536(2)
N4 N 0.46447(3) 0.23447(7) 0.1633(2)
N5 N 0.42086(3) 0.32882(9) 0.1797(2)
N3 N 0.67086(3) 0.42118(9) 0.9297(2)
C20 C 0.58925(5) 0.42629(17) 0.9910(4)
H15 H 0.5803 0.4073 0.9120
C23 C 0.61766(5) 0.42742(15) 0.9649(3)
C24 C 0.62842(6) 0.39156(19) 0.8640(4)
H18 H 0.6179 0.3681 0.8029
C25 C 0.65480(5) 0.38918(16) 0.8501(4)
H19 H 0.6617 0.3632 0.7796
Co4 Co 0.711795(5) 0.410435(11) 0.91536(2)
N4_2 N 0.71447(3) 0.01553(7) 0.4133(2)
O3_2 O 0.70887(4) 0.83030(10) 0.27899(19)
O4_2 O 0.71125(4) 0.92292(11) 0.1758(3)
C5_2 C 0.71204(4) 0.82718(12) 0.0400(3)
C6_2 C 0.71314(4) 0.75973(11) 0.0376(2)
H3_2 H 0.7132 0.7361 0.1202
C10_2 C 0.72466(4) 0.61723(10) 0.0208(2)
H6_2 H 0.7317 0.6390 0.0969
C11_2 C 0.72438(4) 0.54937(10) 0.0156(2)
H7_2 H 0.7317 0.5258 0.0887
C13_2 C 0.71058(4) 0.86325(12) 0.1719(3)
Co2_2 Co 0.711795(5) 0.910435(11) 0.41536(2)
O1_2 O 0.70939(4) 0.83410(11) 0.55966(19)
O2_2 O 0.71488(4) 0.92651(11) 0.6659(3)
N1_2 N 0.71447(3) 0.51553(7) 0.9133(2)
N2_2 N 0.75245(3) 0.89943(8) 0.4077(2)
N3_2 N 0.92086(3) 0.82882(9) 0.1797(2)
C1_2 C 0.71417(3) 0.72572(9) 0.9159(3)
C2_2 C 0.71423(4) 0.76141(11) 0.7951(2)
H1_2 H 0.7150 0.7391 0.7112
C3_2 C 0.71317(4) 0.82930(12) 0.7978(3)
C4_2 C 0.71226(4) 0.86229(9) 0.9187(3)
H2_2 H 0.7118 0.9088 0.9199
C7_2 C 0.70481(6) 0.55033(11) 0.8106(3)
H4_2 H 0.6979 0.5274 0.7357
C8_2 C 0.70444(6) 0.61764(12) 0.8086(3)
H5_2 H 0.6971 0.6399 0.7337
C9_2 C 0.71458(4) 0.65326(9) 0.9145(3)
C12_2 C 0.71248(4) 0.86599(12) 0.6665(3)
C14_2 C 0.83331(5) 0.86354(16) 0.3643(4)
H8_2 H 0.8399 0.8404 0.4449
H9_2 H 0.8422 0.9061 0.3579
C15_2 C 0.76239(5) 0.83961(10) 0.4266(3)
H10_2 H 0.7511 0.8049 0.4497
C16_2 C 0.78805(5) 0.82577(12) 0.4143(4)
H11_2 H 0.7941 0.7824 0.4277
C17_2 C 0.80503(4) 0.87572(13) 0.3822(3)
C18_2 C 0.79484(5) 0.93719(13) 0.3616(3)
H12_2 H 0.8057 0.9728 0.3392
C19_2 C 0.76879(4) 0.94691(11) 0.3736(3)
H13_2 H 0.7622 0.9895 0.3567
C20_2 C 0.83925(5) 0.82371(17) 0.2410(4)
H14_2 H 0.8330 0.7784 0.2537
H15_2 H 0.8303 0.8427 0.1620
C21_2 C 0.91043(5) 0.79274(14) 0.2756(3)
H16_2 H 0.9214 0.7682 0.3327
C22_2 C 0.88421(5) 0.78878(17) 0.2974(4)
H17_2 H 0.8777 0.7628 0.3692
C23_2 C 0.86766(5) 0.82258(15) 0.2149(3)
C24_2 C 0.87842(6) 0.85844(19) 0.1140(4)
H18_2 H 0.8679 0.8819 0.0529
C25_2 C 0.90480(5) 0.86082(16) 0.1001(4)
H19_2 H 0.9117 0.8868 0.0296
Co4_2 Co 0.961795(5) 0.839565(11) 0.16536(2)
N5_2 N 0.67086(3) 0.92118(9) 0.4297(2)
C1_3 C 0.46417(3) 0.02428(9) 0.1659(3)
H3_3 H 0.4632 0.0139 0.3702
C7_3 C 0.45481(6) 0.19967(11) 0.0606(3)
C8_3 C 0.45444(6) 0.13236(12) 0.0586(3)
C9_3 C 0.46458(4) 0.09674(9) 0.1645(3)
C10_3 C 0.47466(4) 0.13277(10) 0.2708(2)
H6_3 H 0.4817 0.1110 0.3469
C11_3 C 0.47438(4) 0.20063(10) 0.2656(2)
H7_3 H 0.4817 0.2242 0.3387
O3_3 O 0.45887(4) 0.91970(10) 0.52899(19)
O4_3 O 0.46125(4) 0.82708(11) 0.4258(3)
C2_3 C 0.46423(4) 0.98859(11) 0.0451(2)
C3_3 C 0.46317(4) 0.92070(12) 0.0478(3)
C4_3 C 0.46226(4) 0.88771(9) 0.1687(3)
H2_3 H 0.4618 0.8412 0.1699
C5_3 C 0.46204(4) 0.92282(12) 0.2900(3)
C6_3 C 0.46314(4) 0.99027(11) 0.2876(2)
C13_3 C 0.46058(4) 0.88675(12) 0.4219(3)
O1_3 O 0.45939(4) 0.91590(11) 0.80966(19)
O2_3 O 0.46488(4) 0.82349(11) 0.9159(3)
N2_3 N 0.50245(3) 0.85057(8) 0.6577(2)
C12_3 C 0.46248(4) 0.88401(12) 0.9165(3)
C14_3 C 0.58331(5) 0.88646(16) 0.6143(4)
H8_3 H 0.5899 0.9096 0.6949
H9_3 H 0.5922 0.8439 0.6079
C15_3 C 0.51239(5) 0.91039(10) 0.6766(3)
H10_3 H 0.5011 0.9451 0.6997
C16_3 C 0.53805(5) 0.92423(12) 0.6643(4)
H11_3 H 0.5441 0.9676 0.6777
C17_3 C 0.55503(4) 0.87428(13) 0.6322(3)
C18_3 C 0.54484(5) 0.81281(13) 0.6116(3)
H12_3 H 0.5557 0.7772 0.5892
C19_3 C 0.51879(4) 0.80309(11) 0.6236(3)
H13_3 H 0.5122 0.7605 0.6067
C20_3 C 0.58925(5) 0.92629(17) 0.4910(4)
H14_3 H 0.5830 0.9716 0.5037
H15_3 H 0.5803 0.9073 0.4120
C21_3 C 0.66043(5) 0.95726(14) 0.5256(3)
H16_3 H 0.6714 0.9818 0.5827
C22_3 C 0.63421(5) 0.96122(17) 0.5474(4)
H17_3 H 0.6277 0.9872 0.6192
C23_3 C 0.61766(5) 0.92742(15) 0.4649(3)
C24_3 C 0.62842(6) 0.89156(19) 0.3640(4)
H18_3 H 0.6179 0.8681 0.3029
C25_3 C 0.65480(5) 0.88918(16) 0.3501(4)
H19_3 H 0.6617 0.8632 0.2796
N5_3 N 0.42086(3) 0.82882(9) 0.6797(2)
O1_4 O 0.70939(4) 0.33410(11) 0.05966(19)
O2_4 O 0.71488(4) 0.42651(11) 0.1659(3)
O3_4 O 0.70887(4) 0.33030(10) 0.77899(19)
O4_4 O 0.71125(4) 0.42292(11) 0.6758(3)
C1_4 C 0.71417(3) 0.22572(9) 0.4159(3)
C2_4 C 0.71423(4) 0.26141(11) 0.2951(2)
H1_3 H 0.7150 0.2391 0.2112
C3_4 C 0.71317(4) 0.32930(12) 0.2978(3)
C4_4 C 0.71226(4) 0.36229(9) 0.4187(3)
H2_4 H 0.7118 0.4088 0.4199
C5_4 C 0.71204(4) 0.32718(12) 0.5400(3)
C6_4 C 0.71314(4) 0.25973(11) 0.5376(2)
H3_4 H 0.7132 0.2361 0.6202
C7_4 C 0.70481(6) 0.05033(11) 0.3106(3)
H4_3 H 0.6979 0.0274 0.2357
C8_4 C 0.70444(6) 0.11764(12) 0.3086(3)
H5_3 H 0.6971 0.1399 0.2337
C9_4 C 0.71458(4) 0.15326(9) 0.4145(3)
C10_4 C 0.72466(4) 0.11723(10) 0.5208(2)
H6_4 H 0.7317 0.1390 0.5969
C11_4 C 0.72438(4) 0.04937(10) 0.5156(2)
H7_4 H 0.7317 0.0258 0.5887
C12_4 C 0.71248(4) 0.36599(12) 0.1665(3)
C13_4 C 0.71058(4) 0.36325(12) 0.6719(3)
N2_4 N 0.75245(3) 0.39943(8) 0.9077(2)
N3_3 N 0.92086(3) 0.32882(9) 0.6797(2)
C14_4 C 0.83331(5) 0.36354(16) 0.8643(4)
H8_4 H 0.8399 0.3404 0.9449
H9_4 H 0.8422 0.4061 0.8579
C15_4 C 0.76239(5) 0.33961(10) 0.9266(3)
H10_4 H 0.7511 0.3049 0.9497
C16_4 C 0.78805(5) 0.32577(12) 0.9143(4)
H11_4 H 0.7941 0.2824 0.9277
C17_4 C 0.80503(4) 0.37572(13) 0.8822(3)
C18_4 C 0.79484(5) 0.43719(13) 0.8616(3)
H12_4 H 0.8057 0.4728 0.8392
C19_4 C 0.76879(4) 0.44691(11) 0.8736(3)
H13_4 H 0.7622 0.4895 0.8567
C20_4 C 0.83925(5) 0.32371(17) 0.7410(4)
H14_4 H 0.8330 0.2784 0.7537
H15_4 H 0.8303 0.3427 0.6620
C21_4 C 0.91043(5) 0.29274(14) 0.7756(3)
H16_4 H 0.9214 0.2682 0.8327
C22_4 C 0.88421(5) 0.28878(17) 0.7974(4)
H17_4 H 0.8777 0.2628 0.8692
C23_4 C 0.86766(5) 0.32258(15) 0.7149(3)
C24_4 C 0.87842(6) 0.35844(19) 0.6140(4)
H18_4 H 0.8679 0.3819 0.5529
C25_4 C 0.90480(5) 0.36082(16) 0.6001(4)
H19_4 H 0.9117 0.3868 0.5296
Co4_3 Co 0.961795(5) 0.339565(11) 0.66536(2)
N2_5 N 0.00245(3) 0.35057(8) 0.6577(2)
N3_4 N 0.17086(3) 0.42118(9) 0.4297(2)
C14_5 C 0.08331(5) 0.38646(16) 0.6143(4)
H8_5 H 0.0899 0.4096 0.6949
H9_5 H 0.0922 0.3439 0.6079
C15_5 C 0.01239(5) 0.41039(10) 0.6766(3)
H10_5 H 0.0011 0.4451 0.6997
C16_5 C 0.03805(5) 0.42423(12) 0.6643(4)
H11_5 H 0.0441 0.4676 0.6777
C17_5 C 0.05503(4) 0.37428(13) 0.6322(3)
C18_5 C 0.04484(5) 0.31281(13) 0.6116(3)
H12_5 H 0.0557 0.2772 0.5892
C19_5 C 0.01879(4) 0.30309(11) 0.6236(3)
H13_5 H 0.0122 0.2605 0.6067
C20_5 C 0.08925(5) 0.42629(17) 0.4910(4)
H14_5 H 0.0830 0.4716 0.5037
H15_5 H 0.0803 0.4073 0.4120
C21_5 C 0.16043(5) 0.45726(14) 0.5256(3)
H16_5 H 0.1714 0.4818 0.5827
C22_5 C 0.13421(5) 0.46122(17) 0.5474(4)
H17_5 H 0.1277 0.4872 0.6192
C23_5 C 0.11766(5) 0.42742(15) 0.4649(3)
C24_5 C 0.12842(6) 0.39156(19) 0.3640(4)
H18_5 H 0.1179 0.3681 0.3029
C25_5 C 0.15480(5) 0.38918(16) 0.3501(4)
H19_5 H 0.1617 0.3632 0.2796
Co4_4 Co 0.211795(5) 0.410435(11) 0.41536(2)
O3_5 O 0.95887(4) 0.41970(10) 0.52899(19)
O4_5 O 0.96125(4) 0.32708(11) 0.4258(3)
N1_3 N 0.96447(3) 0.73447(7) 0.1633(2)
C1_5 C 0.96417(3) 0.52428(9) 0.1659(3)
C2_5 C 0.96423(4) 0.48859(11) 0.0451(2)
C3_5 C 0.96317(4) 0.42070(12) 0.0478(3)
C4_5 C 0.96226(4) 0.38771(9) 0.1687(3)
H2_5 H 0.9618 0.3412 0.1699
C5_5 C 0.96204(4) 0.42282(12) 0.2900(3)
C6_5 C 0.96314(4) 0.49027(11) 0.2876(2)
H3_5 H 0.9632 0.5139 0.3702
C7_5 C 0.95481(6) 0.69967(11) 0.0606(3)
C8_5 C 0.95444(6) 0.63236(12) 0.0586(3)
C9_5 C 0.96458(4) 0.59674(9) 0.1645(3)
C10_5 C 0.97466(4) 0.63277(10) 0.2708(2)
H6_5 H 0.9817 0.6110 0.3469
C11_5 C 0.97438(4) 0.70063(10) 0.2656(2)
H7_5 H 0.9817 0.7242 0.3387
C13_5 C 0.96058(4) 0.38675(12) 0.4219(3)
O1_5 O 0.95939(4) 0.41590(11) 0.80966(19)
O2_5 O 0.96488(4) 0.32349(11) 0.9159(3)
H1_4 H 0.9650 0.5109 0.9612
H4_4 H 0.9479 0.7226 0.9857
H5_4 H 0.9471 0.6101 0.9837
C12_5 C 0.96248(4) 0.38401(12) 0.9165(3)
N4_3 N 0.96447(3) 0.23447(7) 0.6633(2)
N4_4 N 0.21447(3) 0.01553(7) 0.9133(2)
O1_6 O 0.20939(4) 0.83410(11) 0.05966(19)
O2_6 O 0.21488(4) 0.92651(11) 0.1659(3)
O3_6 O 0.20887(4) 0.83030(10) 0.77899(19)
O4_6 O 0.21125(4) 0.92292(11) 0.6758(3)
N1_4 N 0.21447(3) 0.51553(7) 0.4133(2)
C1_6 C 0.21417(3) 0.72572(9) 0.4159(3)
C2_6 C 0.21423(4) 0.76141(11) 0.2951(2)
H1_5 H 0.2150 0.7391 0.2112
C3_6 C 0.21317(4) 0.82930(12) 0.2978(3)
C4_6 C 0.21226(4) 0.86229(9) 0.4187(3)
H2_6 H 0.2118 0.9088 0.4199
C5_6 C 0.21204(4) 0.82718(12) 0.5400(3)
C6_6 C 0.21314(4) 0.75973(11) 0.5376(2)
H3_6 H 0.2132 0.7361 0.6202
C7_6 C 0.20481(6) 0.55033(11) 0.3106(3)
H4_5 H 0.1979 0.5274 0.2357
C8_6 C 0.20444(6) 0.61764(12) 0.3086(3)
H5_5 H 0.1971 0.6399 0.2337
C9_6 C 0.21458(4) 0.65326(9) 0.4145(3)
C10_6 C 0.22466(4) 0.61723(10) 0.5208(2)
H6_6 H 0.2317 0.6390 0.5969
C11_6 C 0.22438(4) 0.54937(10) 0.5156(2)
H7_6 H 0.2317 0.5258 0.5887
C12_6 C 0.21248(4) 0.86599(12) 0.1665(3)
C13_6 C 0.21058(4) 0.86325(12) 0.6719(3)
Co2_3 Co 0.211795(5) 0.910435(11) 0.91536(2)
N2_6 N 0.25245(3) 0.89943(8) 0.9077(2)
C14_6 C 0.33331(5) 0.86354(16) 0.8643(4)
H8_6 H 0.3399 0.8404 0.9449
H9_6 H 0.3422 0.9061 0.8579
C15_6 C 0.26239(5) 0.83961(10) 0.9266(3)
H10_6 H 0.2511 0.8049 0.9497
C16_6 C 0.28805(5) 0.82577(12) 0.9143(4)
H11_6 H 0.2941 0.7824 0.9277
C17_6 C 0.30503(4) 0.87572(13) 0.8822(3)
C18_6 C 0.29484(5) 0.93719(13) 0.8616(3)
H12_6 H 0.3057 0.9728 0.8392
C19_6 C 0.26879(4) 0.94691(11) 0.8736(3)
H13_6 H 0.2622 0.9895 0.8567
C20_6 C 0.33925(5) 0.82371(17) 0.7410(4)
H14_6 H 0.3330 0.7784 0.7537
H15_6 H 0.3303 0.8427 0.6620
C21_6 C 0.41043(5) 0.79274(14) 0.7756(3)
H16_6 H 0.4214 0.7682 0.8327
C22_6 C 0.38421(5) 0.78878(17) 0.7974(4)
H17_6 H 0.3777 0.7628 0.8692
C23_6 C 0.36766(5) 0.82258(15) 0.7149(3)
C24_6 C 0.37842(6) 0.85844(19) 0.6140(4)
H18_6 H 0.3679 0.8819 0.5529
C25_6 C 0.40480(5) 0.86082(16) 0.6001(4)
H19_6 H 0.4117 0.8868 0.5296
N5_4 N 0.17086(3) 0.92118(9) 0.9297(2)
C20_7 C 0.08925(5) 0.92629(17) 0.9910(4)
H15_7 H 0.0803 0.9073 0.9120
C23_7 C 0.11766(5) 0.92742(15) 0.9649(3)
C24_7 C 0.12842(6) 0.89156(19) 0.8640(4)
H18_7 H 0.1179 0.8681 0.8029
C25_7 C 0.15480(5) 0.88918(16) 0.8501(4)
H19_7 H 0.1617 0.8632 0.7796
C1_7 C 0.96417(3) 0.02428(9) 0.6659(3)
H1_6 H 0.9650 0.0109 0.4612
H3_7 H 0.9632 0.0139 0.8702
C7_7 C 0.95481(6) 0.19967(11) 0.5606(3)
H4_6 H 0.9479 0.2226 0.4857
C8_7 C 0.95444(6) 0.13236(12) 0.5586(3)
H5_6 H 0.9471 0.1101 0.4837
C9_7 C 0.96458(4) 0.09674(9) 0.6645(3)
C10_7 C 0.97466(4) 0.13277(10) 0.7708(2)
H6_7 H 0.9817 0.1110 0.8469
C11_7 C 0.97438(4) 0.20063(10) 0.7656(2)
H7_7 H 0.9817 0.2242 0.8387
O3_7 O 0.95887(4) 0.91970(10) 0.02899(19)
O1_7 O 0.95939(4) 0.91590(11) 0.30966(19)
O2_7 O 0.96488(4) 0.82349(11) 0.4159(3)
O4_7 O 0.96125(4) 0.82708(11) 0.9258(3)
C2_7 C 0.96423(4) 0.98859(11) 0.5451(2)
C3_7 C 0.96317(4) 0.92070(12) 0.5478(3)
C4_7 C 0.96226(4) 0.88771(9) 0.6687(3)
H2_7 H 0.9618 0.8412 0.6699
C5_7 C 0.96204(4) 0.92282(12) 0.7900(3)
C6_7 C 0.96314(4) 0.99027(11) 0.7876(2)
C12_7 C 0.96248(4) 0.88401(12) 0.4165(3)
C13_7 C 0.96058(4) 0.88675(12) 0.9219(3)
O3_8 O 0.20887(4) 0.33030(10) 0.27899(19)
O4_8 O 0.21125(4) 0.42292(11) 0.1758(3)
C5_8 C 0.21204(4) 0.32718(12) 0.0400(3)
C6_8 C 0.21314(4) 0.25973(11) 0.0376(2)
H3_8 H 0.2132 0.2361 0.1202
C10_8 C 0.22466(4) 0.11723(10) 0.0208(2)
H6_8 H 0.2317 0.1390 0.0969
C11_8 C 0.22438(4) 0.04937(10) 0.0156(2)
H7_8 H 0.2317 0.0258 0.0887
C13_8 C 0.21058(4) 0.36325(12) 0.1719(3)
O1_8 O 0.20939(4) 0.33410(11) 0.55966(19)
O2_8 O 0.21488(4) 0.42651(11) 0.6659(3)
N2_7 N 0.25245(3) 0.39943(8) 0.4077(2)
C1_8 C 0.21417(3) 0.22572(9) 0.9159(3)
C2_8 C 0.21423(4) 0.26141(11) 0.7951(2)
H1_7 H 0.2150 0.2391 0.7112
C3_8 C 0.21317(4) 0.32930(12) 0.7978(3)
C4_8 C 0.21226(4) 0.36229(9) 0.9187(3)
H2_8 H 0.2118 0.4088 0.9199
C7_8 C 0.20481(6) 0.05033(11) 0.8106(3)
H4_7 H 0.1979 0.0274 0.7357
C8_8 C 0.20444(6) 0.11764(12) 0.8086(3)
H5_7 H 0.1971 0.1399 0.7337
C9_8 C 0.21458(4) 0.15326(9) 0.9145(3)
C12_8 C 0.21248(4) 0.36599(12) 0.6665(3)
C14_7 C 0.33331(5) 0.36354(16) 0.3643(4)
H8_7 H 0.3399 0.3404 0.4449
H9_7 H 0.3422 0.4061 0.3579
C15_7 C 0.26239(5) 0.33961(10) 0.4266(3)
H10_7 H 0.2511 0.3049 0.4497
C16_7 C 0.28805(5) 0.32577(12) 0.4143(4)
H11_7 H 0.2941 0.2824 0.4277
C17_7 C 0.30503(4) 0.37572(13) 0.3822(3)
C18_7 C 0.29484(5) 0.43719(13) 0.3616(3)
H12_7 H 0.3057 0.4728 0.3392
C19_7 C 0.26879(4) 0.44691(11) 0.3736(3)
H13_7 H 0.2622 0.4895 0.3567
C20_8 C 0.33925(5) 0.32371(17) 0.2410(4)
H14_7 H 0.3330 0.2784 0.2537
H15_8 H 0.3303 0.3427 0.1620
C21_7 C 0.41043(5) 0.29274(14) 0.2756(3)
H16_7 H 0.4214 0.2682 0.3327
C22_7 C 0.38421(5) 0.28878(17) 0.2974(4)
H17_7 H 0.3777 0.2628 0.3692
C23_8 C 0.36766(5) 0.32258(15) 0.2149(3)
C24_8 C 0.37842(6) 0.35844(19) 0.1140(4)
H18_8 H 0.3679 0.3819 0.0529
C25_8 C 0.40480(5) 0.36082(16) 0.1001(4)
H19_8 H 0.4117 0.3868 0.0296
Co3_2 Co 0.788205(5) 0.089565(11) 0.91536(2)
O3_9 O 0.79113(4) 0.66970(10) 0.27899(19)
O4_9 O 0.78875(4) 0.57708(11) 0.1758(3)
C5_9 C 0.78796(4) 0.67282(12) 0.0400(3)
C6_9 C 0.78686(4) 0.74027(11) 0.0376(2)
H3_9 H 0.7868 0.7639 0.1202
C10_9 C 0.77534(4) 0.88277(10) 0.0208(2)
H6_9 H 0.7683 0.8610 0.0969
C11_9 C 0.77562(4) 0.95063(10) 0.0156(2)
H7_9 H 0.7683 0.9742 0.0887
C13_9 C 0.78942(4) 0.63675(12) 0.1719(3)
Co2_4 Co 0.788205(5) 0.589565(11) 0.41536(2)
O1_9 O 0.79061(4) 0.66590(11) 0.55966(19)
O2_9 O 0.78512(4) 0.57349(11) 0.6659(3)
N1_5 N 0.78553(3) 0.98447(7) 0.9133(2)
N2_8 N 0.74755(3) 0.60057(8) 0.4077(2)
N3_5 N 0.57914(3) 0.67118(9) 0.1797(2)
C1_9 C 0.78583(3) 0.77428(9) 0.9159(3)
C2_9 C 0.78577(4) 0.73859(11) 0.7951(2)
H1_8 H 0.7850 0.7609 0.7112
C3_9 C 0.78683(4) 0.67070(12) 0.7978(3)
C4_9 C 0.78774(4) 0.63771(9) 0.9187(3)
H2_9 H 0.7882 0.5912 0.9199
C7_9 C 0.79519(6) 0.94967(11) 0.8106(3)
H4_8 H 0.8021 0.9726 0.7357
C8_9 C 0.79556(6) 0.88236(12) 0.8086(3)
H5_8 H 0.8029 0.8601 0.7337
C9_9 C 0.78542(4) 0.84674(9) 0.9145(3)
C12_9 C 0.78752(4) 0.63401(12) 0.6665(3)
C14_8 C 0.66669(5) 0.63646(16) 0.3643(4)
H8_8 H 0.6601 0.6596 0.4449
H9_8 H 0.6578 0.5939 0.3579
C15_8 C 0.73761(5) 0.66039(10) 0.4266(3)
H10_8 H 0.7489 0.6951 0.4497
C16_8 C 0.71195(5) 0.67423(12) 0.4143(4)
H11_8 H 0.7059 0.7176 0.4277
C17_8 C 0.69497(4) 0.62428(13) 0.3822(3)
C18_8 C 0.70516(5) 0.56281(13) 0.3616(3)
H12_8 H 0.6943 0.5272 0.3392
C19_8 C 0.73121(4) 0.55309(11) 0.3736(3)
H13_8 H 0.7378 0.5105 0.3567
C20_9 C 0.66075(5) 0.67629(17) 0.2410(4)
H14_8 H 0.6670 0.7216 0.2537
H15_9 H 0.6697 0.6573 0.1620
C21_8 C 0.58957(5) 0.70726(14) 0.2756(3)
H16_8 H 0.5786 0.7318 0.3327
C22_8 C 0.61579(5) 0.71122(17) 0.2974(4)
H17_8 H 0.6223 0.7372 0.3692
C23_9 C 0.63234(5) 0.67742(15) 0.2149(3)
C24_9 C 0.62158(6) 0.64156(19) 0.1140(4)
H18_9 H 0.6321 0.6181 0.0529
C25_9 C 0.59520(5) 0.63918(16) 0.1001(4)
H19_9 H 0.5883 0.6132 0.0296
Co4_5 Co 0.538205(5) 0.660435(11) 0.16536(2)
N4_5 N 0.78553(3) 0.48447(7) 0.4133(2)
N5_5 N 0.82914(3) 0.57882(9) 0.4297(2)
O3_10 O 0.04113(4) 0.58030(10) 0.52899(19)
O4_10 O 0.03875(4) 0.67292(11) 0.4258(3)
N1_6 N 0.03553(3) 0.26553(7) 0.1633(2)
C1_10 C 0.03583(3) 0.47572(9) 0.1659(3)
C2_10 C 0.03577(4) 0.51141(11) 0.0451(2)
C3_10 C 0.03683(4) 0.57930(12) 0.0478(3)
C4_10 C 0.03774(4) 0.61229(9) 0.1687(3)
H2_10 H 0.0382 0.6588 0.1699
C5_10 C 0.03796(4) 0.57718(12) 0.2900(3)
C6_10 C 0.03686(4) 0.50973(11) 0.2876(2)
H3_10 H 0.0368 0.4861 0.3702
C7_10 C 0.04519(6) 0.30033(11) 0.0606(3)
C8_10 C 0.04556(6) 0.36764(12) 0.0586(3)
C9_10 C 0.03542(4) 0.40326(9) 0.1645(3)
C10_10 C 0.02534(4) 0.36723(10) 0.2708(2)
H6_10 H 0.0183 0.3890 0.3469
C11_10 C 0.02562(4) 0.29937(10) 0.2656(2)
H7_10 H 0.0183 0.2758 0.3387
C13_10 C 0.03942(4) 0.61325(12) 0.4219(3)
Co2_5 Co 0.038205(5) 0.660435(11) 0.66536(2)
Co3_3 Co 0.038205(5) 0.160435(11) 0.16536(2)
O1_10 O 0.04061(4) 0.58410(11) 0.80966(19)
O2_10 O 0.03512(4) 0.67651(11) 0.9159(3)
H1_9 H 0.0350 0.4891 0.9612
H4_9 H 0.0521 0.2774 0.9857
H5_9 H 0.0529 0.3899 0.9837
C12_10 C 0.03752(4) 0.61599(12) 0.9165(3)
N4_6 N 0.03553(3) 0.76553(7) 0.6633(2)
N5_6 N 0.07914(3) 0.67118(9) 0.6797(2)
N2_9 N 0.99755(3) 0.64943(8) 0.6577(2)
C14_9 C 0.91669(5) 0.61354(16) 0.6143(4)
H8_9 H 0.9101 0.5904 0.6949
H9_9 H 0.9078 0.6561 0.6079
C15_9 C 0.98761(5) 0.58961(10) 0.6766(3)
H10_9 H 0.9989 0.5549 0.6997
C16_9 C 0.96195(5) 0.57577(12) 0.6643(4)
H11_9 H 0.9559 0.5324 0.6777
C17_9 C 0.94497(4) 0.62572(13) 0.6322(3)
C18_9 C 0.95516(5) 0.68719(13) 0.6116(3)
H12_9 H 0.9443 0.7228 0.5892
C19_9 C 0.98121(4) 0.69691(11) 0.6236(3)
H13_9 H 0.9878 0.7395 0.6067
C20_10 C 0.91075(5) 0.57371(17) 0.4910(4)
H14_9 H 0.9170 0.5284 0.5037
H15_10 H 0.9197 0.5927 0.4120
C21_9 C 0.83957(5) 0.54274(14) 0.5256(3)
H16_9 H 0.8286 0.5182 0.5827
C22_9 C 0.86579(5) 0.53878(17) 0.5474(4)
H17_9 H 0.8723 0.5128 0.6192
C23_10 C 0.88234(5) 0.57258(15) 0.4649(3)
C24_10 C 0.87158(6) 0.60844(19) 0.3640(4)
H18_10 H 0.8821 0.6319 0.3029
C25_10 C 0.84520(5) 0.61082(16) 0.3501(4)
H19_10 H 0.8383 0.6368 0.2796
O1_11 O 0.79061(4) 0.16590(11) 0.05966(19)
O2_11 O 0.78512(4) 0.07349(11) 0.1659(3)
O3_11 O 0.79113(4) 0.16970(10) 0.77899(19)
O4_11 O 0.78875(4) 0.07708(11) 0.6758(3)
C1_11 C 0.78583(3) 0.27428(9) 0.4159(3)
C2_11 C 0.78577(4) 0.23859(11) 0.2951(2)
H1_10 H 0.7850 0.2609 0.2112
C3_11 C 0.78683(4) 0.17070(12) 0.2978(3)
C4_11 C 0.78774(4) 0.13771(9) 0.4187(3)
H2_11 H 0.7882 0.0912 0.4199
C5_11 C 0.78796(4) 0.17282(12) 0.5400(3)
C6_11 C 0.78686(4) 0.24027(11) 0.5376(2)
H3_11 H 0.7868 0.2639 0.6202
C7_11 C 0.79519(6) 0.44967(11) 0.3106(3)
H4_10 H 0.8021 0.4726 0.2357
C8_11 C 0.79556(6) 0.38236(12) 0.3086(3)
H5_10 H 0.8029 0.3601 0.2337
C9_11 C 0.78542(4) 0.34674(9) 0.4145(3)
C10_11 C 0.77534(4) 0.38277(10) 0.5208(2)
H6_11 H 0.7683 0.3610 0.5969
C11_11 C 0.77562(4) 0.45063(10) 0.5156(2)
H7_11 H 0.7683 0.4742 0.5887
C12_11 C 0.78752(4) 0.13401(12) 0.1665(3)
C13_11 C 0.78942(4) 0.13675(12) 0.6719(3)
N2_10 N 0.74755(3) 0.10057(8) 0.9077(2)
N3_6 N 0.57914(3) 0.17118(9) 0.6797(2)
C14_10 C 0.66669(5) 0.13646(16) 0.8643(4)
H8_10 H 0.6601 0.1596 0.9449
H9_10 H 0.6578 0.0939 0.8579
C15_10 C 0.73761(5) 0.16039(10) 0.9266(3)
H10_10 H 0.7489 0.1951 0.9497
C16_10 C 0.71195(5) 0.17423(12) 0.9143(4)
H11_10 H 0.7059 0.2176 0.9277
C17_10 C 0.69497(4) 0.12428(13) 0.8822(3)
C18_10 C 0.70516(5) 0.06281(13) 0.8616(3)
H12_10 H 0.6943 0.0272 0.8392
C19_10 C 0.73121(4) 0.05309(11) 0.8736(3)
H13_10 H 0.7378 0.0105 0.8567
C20_11 C 0.66075(5) 0.17629(17) 0.7410(4)
H14_10 H 0.6670 0.2216 0.7537
H15_11 H 0.6697 0.1573 0.6620
C21_10 C 0.58957(5) 0.20726(14) 0.7756(3)
H16_10 H 0.5786 0.2318 0.8327
C22_10 C 0.61579(5) 0.21122(17) 0.7974(4)
H17_10 H 0.6223 0.2372 0.8692
C23_11 C 0.63234(5) 0.17742(15) 0.7149(3)
C24_11 C 0.62158(6) 0.14156(19) 0.6140(4)
H18_11 H 0.6321 0.1181 0.5529
C25_11 C 0.59520(5) 0.13918(16) 0.6001(4)
H19_11 H 0.5883 0.1132 0.5296
Co4_6 Co 0.538205(5) 0.160435(11) 0.66536(2)
N5_7 N 0.82914(3) 0.07882(9) 0.9297(2)
O3_12 O 0.04113(4) 0.08030(10) 0.02899(19)
O1_12 O 0.04061(4) 0.08410(11) 0.30966(19)
O2_12 O 0.03512(4) 0.17651(11) 0.4159(3)
O4_12 O 0.03875(4) 0.17292(11) 0.9258(3)
C2_12 C 0.03577(4) 0.01141(11) 0.5451(2)
C3_12 C 0.03683(4) 0.07930(12) 0.5478(3)
C4_12 C 0.03774(4) 0.11229(9) 0.6687(3)
H2_12 H 0.0382 0.1588 0.6699
C5_12 C 0.03796(4) 0.07718(12) 0.7900(3)
C6_12 C 0.03686(4) 0.00973(11) 0.7876(2)
C12_12 C 0.03752(4) 0.11599(12) 0.4165(3)
C13_12 C 0.03942(4) 0.11325(12) 0.9219(3)
N5_8 N 0.07914(3) 0.17118(9) 0.1797(2)
C1_12 C 0.03583(3) 0.97572(9) 0.6659(3)
H1_11 H 0.0350 0.9891 0.4612
H3_12 H 0.0368 0.9861 0.8702
C7_12 C 0.04519(6) 0.80033(11) 0.5606(3)
H4_11 H 0.0521 0.7774 0.4857
C8_12 C 0.04556(6) 0.86764(12) 0.5586(3)
H5_11 H 0.0529 0.8899 0.4837
C9_12 C 0.03542(4) 0.90326(9) 0.6645(3)
C10_12 C 0.02534(4) 0.86723(10) 0.7708(2)
H6_12 H 0.0183 0.8890 0.8469
C11_12 C 0.02562(4) 0.79937(10) 0.7656(2)
H7_12 H 0.0183 0.7758 0.8387
C20_12 C 0.91075(5) 0.07371(17) 0.9910(4)
H15_12 H 0.9197 0.0927 0.9120
C23_12 C 0.88234(5) 0.07258(15) 0.9649(3)
C24_12 C 0.87158(6) 0.10844(19) 0.8640(4)
H18_12 H 0.8821 0.1319 0.8029
C25_12 C 0.84520(5) 0.11082(16) 0.8501(4)
H19_12 H 0.8383 0.1368 0.7796
Co3_4 Co 0.288205(5) 0.089565(11) 0.41536(2)
O1_13 O 0.29061(4) 0.66590(11) 0.05966(19)
O2_13 O 0.28512(4) 0.57349(11) 0.1659(3)
O3_13 O 0.29113(4) 0.66970(10) 0.77899(19)
O4_13 O 0.28875(4) 0.57708(11) 0.6758(3)
N1_7 N 0.28553(3) 0.98447(7) 0.4133(2)
C1_13 C 0.28583(3) 0.77428(9) 0.4159(3)
C2_13 C 0.28577(4) 0.73859(11) 0.2951(2)
H1_12 H 0.2850 0.7609 0.2112
C3_13 C 0.28683(4) 0.67070(12) 0.2978(3)
C4_13 C 0.28774(4) 0.63771(9) 0.4187(3)
H2_13 H 0.2882 0.5912 0.4199
C5_13 C 0.28796(4) 0.67282(12) 0.5400(3)
C6_13 C 0.28686(4) 0.74027(11) 0.5376(2)
H3_13 H 0.2868 0.7639 0.6202
C7_13 C 0.29519(6) 0.94967(11) 0.3106(3)
H4_12 H 0.3021 0.9726 0.2357
C8_13 C 0.29556(6) 0.88236(12) 0.3086(3)
H5_12 H 0.3029 0.8601 0.2337
C9_13 C 0.28542(4) 0.84674(9) 0.4145(3)
C10_13 C 0.27534(4) 0.88277(10) 0.5208(2)
H6_13 H 0.2683 0.8610 0.5969
C11_13 C 0.27562(4) 0.95063(10) 0.5156(2)
H7_13 H 0.2683 0.9742 0.5887
C12_13 C 0.28752(4) 0.63401(12) 0.1665(3)
C13_13 C 0.28942(4) 0.63675(12) 0.6719(3)
Co2_6 Co 0.288205(5) 0.589565(11) 0.91536(2)
N2_11 N 0.24755(3) 0.60057(8) 0.9077(2)
C14_11 C 0.16669(5) 0.63646(16) 0.8643(4)
H8_11 H 0.1601 0.6596 0.9449
H9_11 H 0.1578 0.5939 0.8579
C15_11 C 0.23761(5) 0.66039(10) 0.9266(3)
H10_11 H 0.2489 0.6951 0.9497
C16_11 C 0.21195(5) 0.67423(12) 0.9143(4)
H11_11 H 0.2059 0.7176 0.9277
C17_11 C 0.19497(4) 0.62428(13) 0.8822(3)
C18_11 C 0.20516(5) 0.56281(13) 0.8616(3)
H12_11 H 0.1943 0.5272 0.8392
C19_11 C 0.23121(4) 0.55309(11) 0.8736(3)
H13_11 H 0.2378 0.5105 0.8567
C20_13 C 0.16075(5) 0.67629(17) 0.7410(4)
H14_11 H 0.1670 0.7216 0.7537
H15_13 H 0.1697 0.6573 0.6620
C21_11 C 0.08957(5) 0.70726(14) 0.7756(3)
H16_11 H 0.0786 0.7318 0.8327
C22_11 C 0.11579(5) 0.71122(17) 0.7974(4)
H17_11 H 0.1223 0.7372 0.8692
C23_13 C 0.13234(5) 0.67742(15) 0.7149(3)
C24_13 C 0.12158(6) 0.64156(19) 0.6140(4)
H18_13 H 0.1321 0.6181 0.5529
C25_13 C 0.09520(5) 0.63918(16) 0.6001(4)
H19_13 H 0.0883 0.6132 0.5296
N4_7 N 0.28553(3) 0.48447(7) 0.9133(2)
N5_9 N 0.32914(3) 0.57882(9) 0.9297(2)
O3_14 O 0.54113(4) 0.58030(10) 0.02899(19)
O1_14 O 0.54061(4) 0.58410(11) 0.30966(19)
O2_14 O 0.53512(4) 0.67651(11) 0.4159(3)
O4_14 O 0.53875(4) 0.67292(11) 0.9258(3)
N1_8 N 0.53553(3) 0.26553(7) 0.6633(2)
N2_12 N 0.49755(3) 0.64943(8) 0.1577(2)
C1_14 C 0.53583(3) 0.47572(9) 0.6659(3)
C2_14 C 0.53577(4) 0.51141(11) 0.5451(2)
H1_13 H 0.5350 0.4891 0.4612
C3_14 C 0.53683(4) 0.57930(12) 0.5478(3)
C4_14 C 0.53774(4) 0.61229(9) 0.6687(3)
H2_14 H 0.5382 0.6588 0.6699
C5_14 C 0.53796(4) 0.57718(12) 0.7900(3)
C6_14 C 0.53686(4) 0.50973(11) 0.7876(2)
H3_14 H 0.5368 0.4861 0.8702
C7_14 C 0.54519(6) 0.30033(11) 0.5606(3)
H4_13 H 0.5521 0.2774 0.4857
C8_14 C 0.54556(6) 0.36764(12) 0.5586(3)
H5_13 H 0.5529 0.3899 0.4837
C9_14 C 0.53542(4) 0.40326(9) 0.6645(3)
C10_14 C 0.52534(4) 0.36723(10) 0.7708(2)
H6_14 H 0.5183 0.3890 0.8469
C11_14 C 0.52562(4) 0.29937(10) 0.7656(2)
H7_14 H 0.5183 0.2758 0.8387
C12_14 C 0.53752(4) 0.61599(12) 0.4165(3)
C13_14 C 0.53942(4) 0.61325(12) 0.9219(3)
C14_12 C 0.41669(5) 0.61354(16) 0.1143(4)
H8_12 H 0.4101 0.5904 0.1949
H9_12 H 0.4078 0.6561 0.1079
C15_12 C 0.48761(5) 0.58961(10) 0.1766(3)
H10_12 H 0.4989 0.5549 0.1997
C16_12 C 0.46195(5) 0.57577(12) 0.1643(4)
H11_12 H 0.4559 0.5324 0.1777
C17_12 C 0.44497(4) 0.62572(13) 0.1322(3)
C18_12 C 0.45516(5) 0.68719(13) 0.1116(3)
H12_12 H 0.4443 0.7228 0.0892
C19_12 C 0.48121(4) 0.69691(11) 0.1236(3)
H13_12 H 0.4878 0.7395 0.1067
H14_12 H 0.4170 0.5284 0.0037
C21_12 C 0.33957(5) 0.54274(14) 0.0256(3)
H16_12 H 0.3286 0.5182 0.0827
C22_12 C 0.36579(5) 0.53878(17) 0.0474(4)
H17_12 H 0.3723 0.5128 0.1192
N4_8 N 0.53553(3) 0.76553(7) 0.1633(2)
C20_14 C 0.41075(5) 0.57371(17) 0.9910(4)
H15_14 H 0.4197 0.5927 0.9120
C23_14 C 0.38234(5) 0.57258(15) 0.9649(3)
C24_14 C 0.37158(6) 0.60844(19) 0.8640(4)
H18_14 H 0.3821 0.6319 0.8029
C25_14 C 0.34520(5) 0.61082(16) 0.8501(4)
H19_14 H 0.3383 0.6368 0.7796
O3_15 O 0.29113(4) 0.16970(10) 0.27899(19)
O4_15 O 0.28875(4) 0.07708(11) 0.1758(3)
C5_15 C 0.28796(4) 0.17282(12) 0.0400(3)
C6_15 C 0.28686(4) 0.24027(11) 0.0376(2)
H3_15 H 0.2868 0.2639 0.1202
C10_15 C 0.27534(4) 0.38277(10) 0.0208(2)
H6_15 H 0.2683 0.3610 0.0969
C11_15 C 0.27562(4) 0.45063(10) 0.0156(2)
H7_15 H 0.2683 0.4742 0.0887
C13_15 C 0.28942(4) 0.13675(12) 0.1719(3)
O1_15 O 0.29061(4) 0.16590(11) 0.55966(19)
O2_15 O 0.28512(4) 0.07349(11) 0.6659(3)
N2_13 N 0.24755(3) 0.10057(8) 0.4077(2)
C1_15 C 0.28583(3) 0.27428(9) 0.9159(3)
C2_15 C 0.28577(4) 0.23859(11) 0.7951(2)
H1_14 H 0.2850 0.2609 0.7112
C3_15 C 0.28683(4) 0.17070(12) 0.7978(3)
C4_15 C 0.28774(4) 0.13771(9) 0.9187(3)
H2_15 H 0.2882 0.0912 0.9199
C7_15 C 0.29519(6) 0.44967(11) 0.8106(3)
H4_14 H 0.3021 0.4726 0.7357
C8_15 C 0.29556(6) 0.38236(12) 0.8086(3)
H5_14 H 0.3029 0.3601 0.7337
C9_15 C 0.28542(4) 0.34674(9) 0.9145(3)
C12_15 C 0.28752(4) 0.13401(12) 0.6665(3)
C14_13 C 0.16669(5) 0.13646(16) 0.3643(4)
H8_13 H 0.1601 0.1596 0.4449
H9_13 H 0.1578 0.0939 0.3579
C15_13 C 0.23761(5) 0.16039(10) 0.4266(3)
H10_13 H 0.2489 0.1951 0.4497
C16_13 C 0.21195(5) 0.17423(12) 0.4143(4)
H11_13 H 0.2059 0.2176 0.4277
C17_13 C 0.19497(4) 0.12428(13) 0.3822(3)
C18_13 C 0.20516(5) 0.06281(13) 0.3616(3)
H12_13 H 0.1943 0.0272 0.3392
C19_13 C 0.23121(4) 0.05309(11) 0.3736(3)
H13_13 H 0.2378 0.0105 0.3567
C20_15 C 0.16075(5) 0.17629(17) 0.2410(4)
H14_13 H 0.1670 0.2216 0.2537
H15_15 H 0.1697 0.1573 0.1620
C21_13 C 0.08957(5) 0.20726(14) 0.2756(3)
H16_13 H 0.0786 0.2318 0.3327
C22_13 C 0.11579(5) 0.21122(17) 0.2974(4)
H17_13 H 0.1223 0.2372 0.3692
C23_15 C 0.13234(5) 0.17742(15) 0.2149(3)
C24_15 C 0.12158(6) 0.14156(19) 0.1140(4)
H18_15 H 0.1321 0.1181 0.0529
C25_15 C 0.09520(5) 0.13918(16) 0.1001(4)
H19_15 H 0.0883 0.1132 0.0296
N5_10 N 0.32914(3) 0.07882(9) 0.4297(2)
O3_16 O 0.54113(4) 0.08030(10) 0.52899(19)
O4_16 O 0.53875(4) 0.17292(11) 0.4258(3)
C2_16 C 0.53577(4) 0.01141(11) 0.0451(2)
C3_16 C 0.53683(4) 0.07930(12) 0.0478(3)
C4_16 C 0.53774(4) 0.11229(9) 0.1687(3)
H2_16 H 0.5382 0.1588 0.1699
C5_16 C 0.53796(4) 0.07718(12) 0.2900(3)
C6_16 C 0.53686(4) 0.00973(11) 0.2876(2)
C13_16 C 0.53942(4) 0.11325(12) 0.4219(3)
O1_16 O 0.54061(4) 0.08410(11) 0.80966(19)
O2_16 O 0.53512(4) 0.17651(11) 0.9159(3)
N2_14 N 0.49755(3) 0.14943(8) 0.6577(2)
C12_16 C 0.53752(4) 0.11599(12) 0.9165(3)
C14_14 C 0.41669(5) 0.11354(16) 0.6143(4)
H8_14 H 0.4101 0.0904 0.6949
H9_14 H 0.4078 0.1561 0.6079
C15_14 C 0.48761(5) 0.08961(10) 0.6766(3)
H10_14 H 0.4989 0.0549 0.6997
C16_14 C 0.46195(5) 0.07577(12) 0.6643(4)
H11_14 H 0.4559 0.0324 0.6777
C17_14 C 0.44497(4) 0.12572(13) 0.6322(3)
C18_14 C 0.45516(5) 0.18719(13) 0.6116(3)
H12_14 H 0.4443 0.2228 0.5892
C19_14 C 0.48121(4) 0.19691(11) 0.6236(3)
H13_14 H 0.4878 0.2395 0.6067
C20_16 C 0.41075(5) 0.07371(17) 0.4910(4)
H14_14 H 0.4170 0.0284 0.5037
H15_16 H 0.4197 0.0927 0.4120
C21_14 C 0.33957(5) 0.04274(14) 0.5256(3)
H16_14 H 0.3286 0.0182 0.5827
C22_14 C 0.36579(5) 0.03878(17) 0.5474(4)
H17_14 H 0.3723 0.0128 0.6192
C23_16 C 0.38234(5) 0.07258(15) 0.4649(3)
C24_16 C 0.37158(6) 0.10844(19) 0.3640(4)
H18_16 H 0.3821 0.1319 0.3029
C25_16 C 0.34520(5) 0.11082(16) 0.3501(4)
H19_16 H 0.3383 0.1368 0.2796
C1_16 C 0.53583(3) 0.97572(9) 0.1659(3)
H3_16 H 0.5368 0.9861 0.3702
C7_16 C 0.54519(6) 0.80033(11) 0.0606(3)
C8_16 C 0.54556(6) 0.86764(12) 0.0586(3)
C9_16 C 0.53542(4) 0.90326(9) 0.1645(3)
C10_16 C 0.52534(4) 0.86723(10) 0.2708(2)
H6_16 H 0.5183 0.8890 0.3469
C11_16 C 0.52562(4) 0.79937(10) 0.2656(2)
H7_16 H 0.5183 0.7758 0.3387
H1_15 H 0.4650 0.0109 0.9612
H4_15 H 0.4479 0.2226 0.9857
H5_15 H 0.4471 0.1101 0.9837
N2_15 N 0.99755(3) 0.14943(8) 0.1577(2)
C14_15 C 0.91669(5) 0.11354(16) 0.1143(4)
H8_15 H 0.9101 0.0904 0.1949
H9_15 H 0.9078 0.1561 0.1079
C15_15 C 0.98761(5) 0.08961(10) 0.1766(3)
H10_15 H 0.9989 0.0549 0.1997
C16_15 C 0.96195(5) 0.07577(12) 0.1643(4)
H11_15 H 0.9559 0.0324 0.1777
C17_15 C 0.94497(4) 0.12572(13) 0.1322(3)
C18_15 C 0.95516(5) 0.18719(13) 0.1116(3)
H12_15 H 0.9443 0.2228 0.0892
C19_15 C 0.98121(4) 0.19691(11) 0.1236(3)
H13_15 H 0.9878 0.2395 0.1067
H14_15 H 0.9170 0.0284 0.0037
C21_15 C 0.83957(5) 0.04274(14) 0.0256(3)
H16_15 H 0.8286 0.0182 0.0827
C22_15 C 0.86579(5) 0.03878(17) 0.0474(4)
H17_15 H 0.8723 0.0128 0.1192
N2_16 N 0.00245(3) 0.85057(8) 0.1577(2)
C14_16 C 0.08331(5) 0.88646(16) 0.1143(4)
H8_16 H 0.0899 0.9096 0.1949
H9_16 H 0.0922 0.8439 0.1079
C15_16 C 0.01239(5) 0.91039(10) 0.1766(3)
H10_16 H 0.0011 0.9451 0.1997
C16_16 C 0.03805(5) 0.92423(12) 0.1643(4)
H11_16 H 0.0441 0.9676 0.1777
C17_16 C 0.05503(4) 0.87428(13) 0.1322(3)
C18_16 C 0.04484(5) 0.81281(13) 0.1116(3)
H12_16 H 0.0557 0.7772 0.0892
C19_16 C 0.01879(4) 0.80309(11) 0.1236(3)
H13_16 H 0.0122 0.7605 0.1067
H14_16 H 0.0830 0.9716 0.0037
C21_16 C 0.16043(5) 0.95726(14) 0.0256(3)
H16_16 H 0.1714 0.9818 0.0827
C22_16 C 0.13421(5) 0.96122(17) 0.0474(4)
H17_16 H 0.1277 0.9872 0.1192
H1_16 H 0.5350 0.9891 0.9612
H4_16 H 0.5521 0.7774 0.9857
H5_16 H 0.5529 0.8899 0.9837
loop_
_geom_bond_atom_site_label_1
_geom_bond_atom_site_label_2
_geom_bond_site_symmetry_1
_geom_bond_site_symmetry_2
Co2 O3 1_555 1_555
Co2 O1 1_555 1_555
O1 C12 1_555 1_555
O2 C12 1_555 1_555
O4 C13 1_555 1_555
N1 C7 1_555 1_555
N2 Co2 1_555 1_555
C1 C2 1_555 1_555
C2 H1 1_555 1_555
C3 C2 1_555 1_555
C4 C3 1_555 1_555
H2 C4 1_555 1_555
C5 C4 1_555 1_555
C6 C1 1_555 1_555
H3 C6 1_555 1_555
C7 H4 1_555 1_555
C8 C7 1_555 1_555
H5 C8 1_555 1_555
C9 C1 1_555 1_555
C10 C9 1_555 1_555
H6 C10 1_555 1_555
C11 N1 1_555 1_555
H7 C11 1_555 1_555
C12 C3 1_555 1_555
C13 C5 1_555 1_555
C14 H8 1_555 1_555
H9 C14 1_555 1_555
C15 N2 1_555 1_555
H10 C15 1_555 1_555
C16 C15 1_555 1_555
H11 C16 1_555 1_555
C17 C14 1_555 1_555
C18 C17 1_555 1_555
H12 C18 1_555 1_555
C19 N2 1_555 1_555
H13 C19 1_555 1_555
C21 H16 1_555 1_555
C22 C21 1_555 1_555
H17 C22 1_555 1_555
Co3 N1 1_555 1_555
N4 Co2 1_555 1_555
N5 Co2 1_555 1_555
C5 C6 1_555 1_555
C8 C9 1_555 1_555
C10 C11 1_555 1_555
C16 C17 1_555 1_555
C18 C19 1_555 1_555
H15 C20 1_555 1_555
C23 C20 1_555 1_555
C24 C23 1_555 1_555
H18 C24 1_555 1_555
C25 N3 1_555 1_555
H19 C25 1_555 1_555
Co4 N3 1_555 1_555
C24 C25 1_555 1_555
O3_2 C13_2 1_555 1_555
O4_2 C13_2 1_555 1_555
H3_2 C6_2 1_555 1_555
H6_2 C10_2 1_555 1_555
H7_2 C11_2 1_555 1_555
C13_2 C5_2 1_555 1_555
Co2_2 O3_2 1_555 1_555
O4_2 Co2_2 1_555 1_555
C5_2 C6_2 1_555 1_555
C10_2 C11_2 1_555 1_555
Co2_2 O1_2 1_555 1_555
O1_2 C12_2 1_555 1_555
O2_2 C12_2 1_555 1_555
N1_2 C7_2 1_555 1_555
N2_2 Co2_2 1_555 1_555
N3_2 C21_2 1_555 1_555
C1_2 C2_2 1_555 1_555
C2_2 H1_2 1_555 1_555
C3_2 C2_2 1_555 1_555
C4_2 C3_2 1_555 1_555
H2_2 C4_2 1_555 1_555
C7_2 H4_2 1_555 1_555
C8_2 C7_2 1_555 1_555
H5_2 C8_2 1_555 1_555
C9_2 C1_2 1_555 1_555
C12_2 C3_2 1_555 1_555
C14_2 H8_2 1_555 1_555
H9_2 C14_2 1_555 1_555
C15_2 N2_2 1_555 1_555
H10_2 C15_2 1_555 1_555
C16_2 C15_2 1_555 1_555
H11_2 C16_2 1_555 1_555
C17_2 C14_2 1_555 1_555
C18_2 C17_2 1_555 1_555
H12_2 C18_2 1_555 1_555
C19_2 N2_2 1_555 1_555
H13_2 C19_2 1_555 1_555
C20_2 C14_2 1_555 1_555
H14_2 C20_2 1_555 1_555
H15_2 C20_2 1_555 1_555
C21_2 H16_2 1_555 1_555
C22_2 C21_2 1_555 1_555
H17_2 C22_2 1_555 1_555
C23_2 C20_2 1_555 1_555
C24_2 C23_2 1_555 1_555
H18_2 C24_2 1_555 1_555
C25_2 N3_2 1_555 1_555
H19_2 C25_2 1_555 1_555
Co4 N1_2 1_555 1_555
Co4_2 N3_2 1_555 1_555
N5_2 Co2_2 1_555 1_555
C8_2 C9_2 1_555 1_555
C16_2 C17_2 1_555 1_555
C18_2 C19_2 1_555 1_555
C22_2 C23_2 1_555 1_555
C24_2 C25_2 1_555 1_555
N4 C7_3 1_555 1_555
C8_3 C7_3 1_555 1_555
C9_3 C1_3 1_555 1_555
C10_3 C9_3 1_555 1_555
H6_3 C10_3 1_555 1_555
C11_3 N4 1_555 1_555
H7_3 C11_3 1_555 1_555
C8_3 C9_3 1_555 1_555
C10_3 C11_3 1_555 1_555
O3_3 C13_3 1_555 1_555
O4_3 C13_3 1_555 1_555
C3_3 C2_3 1_555 1_555
C4_3 C3_3 1_555 1_555
H2_3 C4_3 1_555 1_555
C5_3 C4_3 1_555 1_555
C13_3 C5_3 1_555 1_555
Co3 O3_3 1_555 1_555
O4_3 Co3 1_555 1_555
C5_3 C6_3 1_555 1_555
Co3 O1_3 1_555 1_555
O1_3 C12_3 1_555 1_555
O2_3 C12_3 1_555 1_555
N2_3 Co3 1_555 1_555
N5_2 C21_3 1_555 1_555
C14_3 H8_3 1_555 1_555
H9_3 C14_3 1_555 1_555
C15_3 N2_3 1_555 1_555
H10_3 C15_3 1_555 1_555
C16_3 C15_3 1_555 1_555
H11_3 C16_3 1_555 1_555
C17_3 C14_3 1_555 1_555
C18_3 C17_3 1_555 1_555
H12_3 C18_3 1_555 1_555
C19_3 N2_3 1_555 1_555
H13_3 C19_3 1_555 1_555
C20_3 C14_3 1_555 1_555
H14_3 C20_3 1_555 1_555
H15_3 C20_3 1_555 1_555
C21_3 H16_3 1_555 1_555
C22_3 C21_3 1_555 1_555
H17_3 C22_3 1_555 1_555
C23_3 C20_3 1_555 1_555
C24_3 C23_3 1_555 1_555
H18_3 C24_3 1_555 1_555
C25_3 N5_2 1_555 1_555
H19_3 C25_3 1_555 1_555
N5_3 Co3 1_555 1_555
C16_3 C17_3 1_555 1_555
C18_3 C19_3 1_555 1_555
C22_3 C23_3 1_555 1_555
C24_3 C25_3 1_555 1_555
O1_4 C12_4 1_555 1_555
O2_4 C12_4 1_555 1_555
O3_4 C13_4 1_555 1_555
O4_4 C13_4 1_555 1_555
N4_2 C7_4 1_555 1_555
C1_4 C2_4 1_555 1_555
C2_4 H1_3 1_555 1_555
C3_4 C2_4 1_555 1_555
C4_4 C3_4 1_555 1_555
H2_4 C4_4 1_555 1_555
C5_4 C4_4 1_555 1_555
C6_4 C1_4 1_555 1_555
H3_4 C6_4 1_555 1_555
C7_4 H4_3 1_555 1_555
C8_4 C7_4 1_555 1_555
H5_3 C8_4 1_555 1_555
C9_4 C1_4 1_555 1_555
C10_4 C9_4 1_555 1_555
H6_4 C10_4 1_555 1_555
C11_4 N4_2 1_555 1_555
H7_4 C11_4 1_555 1_555
C12_4 C3_4 1_555 1_555
C13_4 C5_4 1_555 1_555
Co4 O3_4 1_555 1_555
O4_4 Co4 1_555 1_555
C5_4 C6_4 1_555 1_555
C8_4 C9_4 1_555 1_555
C10_4 C11_4 1_555 1_555
N2_4 Co4 1_555 1_555
N3_3 C21_4 1_555 1_555
C14_4 H8_4 1_555 1_555
H9_4 C14_4 1_555 1_555
C15_4 N2_4 1_555 1_555
H10_4 C15_4 1_555 1_555
C16_4 C15_4 1_555 1_555
H11_4 C16_4 1_555 1_555
C17_4 C14_4 1_555 1_555
C18_4 C17_4 1_555 1_555
H12_4 C18_4 1_555 1_555
C19_4 N2_4 1_555 1_555
H13_4 C19_4 1_555 1_555
C20_4 C14_4 1_555 1_555
H14_4 C20_4 1_555 1_555
H15_4 C20_4 1_555 1_555
C21_4 H16_4 1_555 1_555
C22_4 C21_4 1_555 1_555
H17_4 C22_4 1_555 1_555
C23_4 C20_4 1_555 1_555
C24_4 C23_4 1_555 1_555
H18_4 C24_4 1_555 1_555
C25_4 N3_3 1_555 1_555
H19_4 C25_4 1_555 1_555
Co4_3 N3_3 1_555 1_555
C16_4 C17_4 1_555 1_555
C18_4 C19_4 1_555 1_555
C22_4 C23_4 1_555 1_555
C24_4 C25_4 1_555 1_555
N3_4 C21_5 1_555 1_555
C14_5 H8_5 1_555 1_555
H9_5 C14_5 1_555 1_555
C15_5 N2_5 1_555 1_555
H10_5 C15_5 1_555 1_555
C16_5 C15_5 1_555 1_555
H11_5 C16_5 1_555 1_555
C17_5 C14_5 1_555 1_555
C18_5 C17_5 1_555 1_555
H12_5 C18_5 1_555 1_555
C19_5 N2_5 1_555 1_555
H13_5 C19_5 1_555 1_555
C20_5 C14_5 1_555 1_555
H14_5 C20_5 1_555 1_555
H15_5 C20_5 1_555 1_555
C21_5 H16_5 1_555 1_555
C22_5 C21_5 1_555 1_555
H17_5 C22_5 1_555 1_555
C23_5 C20_5 1_555 1_555
C24_5 C23_5 1_555 1_555
H18_5 C24_5 1_555 1_555
C25_5 N3_4 1_555 1_555
H19_5 C25_5 1_555 1_555
Co4_4 N3_4 1_555 1_555
C16_5 C17_5 1_555 1_555
C18_5 C19_5 1_555 1_555
C22_5 C23_5 1_555 1_555
C24_5 C25_5 1_555 1_555
O3_5 C13_5 1_555 1_555
O4_5 C13_5 1_555 1_555
N1_3 C7_5 1_555 1_555
C1_5 C2_5 1_555 1_555
C3_5 C2_5 1_555 1_555
C4_5 C3_5 1_555 1_555
H2_5 C4_5 1_555 1_555
C5_5 C4_5 1_555 1_555
C6_5 C1_5 1_555 1_555
H3_5 C6_5 1_555 1_555
C8_5 C7_5 1_555 1_555
C9_5 C1_5 1_555 1_555
C10_5 C9_5 1_555 1_555
H6_5 C10_5 1_555 1_555
C11_5 N1_3 1_555 1_555
H7_5 C11_5 1_555 1_555
C13_5 C5_5 1_555 1_555
Co4_3 O3_5 1_555 1_555
Co4_2 N1_3 1_555 1_555
O4_5 Co4_3 1_555 1_555
C5_5 C6_5 1_555 1_555
C8_5 C9_5 1_555 1_555
C10_5 C11_5 1_555 1_555
Co4_3 O1_5 1_555 1_555
O1_5 C12_5 1_555 1_555
O2_5 C12_5 1_555 1_555
N4_3 Co4_3 1_555 1_555
O1_6 C12_6 1_555 1_555
O2_6 C12_6 1_555 1_555
O3_6 C13_6 1_555 1_555
O4_6 C13_6 1_555 1_555
N1_4 C7_6 1_555 1_555
C1_6 C2_6 1_555 1_555
C2_6 H1_5 1_555 1_555
C3_6 C2_6 1_555 1_555
C4_6 C3_6 1_555 1_555
H2_6 C4_6 1_555 1_555
C5_6 C4_6 1_555 1_555
C6_6 C1_6 1_555 1_555
H3_6 C6_6 1_555 1_555
C7_6 H4_5 1_555 1_555
C8_6 C7_6 1_555 1_555
H5_5 C8_6 1_555 1_555
C9_6 C1_6 1_555 1_555
C10_6 C9_6 1_555 1_555
H6_6 C10_6 1_555 1_555
C11_6 N1_4 1_555 1_555
H7_6 C11_6 1_555 1_555
C12_6 C3_6 1_555 1_555
C13_6 C5_6 1_555 1_555
Co2_3 O3_6 1_555 1_555
Co4_4 N1_4 1_555 1_555
O4_6 Co2_3 1_555 1_555
C5_6 C6_6 1_555 1_555
C8_6 C9_6 1_555 1_555
C10_6 C11_6 1_555 1_555
N2_6 Co2_3 1_555 1_555
N5_3 C21_6 1_555 1_555
C14_6 H8_6 1_555 1_555
H9_6 C14_6 1_555 1_555
C15_6 N2_6 1_555 1_555
H10_6 C15_6 1_555 1_555
C16_6 C15_6 1_555 1_555
H11_6 C16_6 1_555 1_555
C17_6 C14_6 1_555 1_555
C18_6 C17_6 1_555 1_555
H12_6 C18_6 1_555 1_555
C19_6 N2_6 1_555 1_555
H13_6 C19_6 1_555 1_555
C20_6 C14_6 1_555 1_555
H14_6 C20_6 1_555 1_555
H15_6 C20_6 1_555 1_555
C21_6 H16_6 1_555 1_555
C22_6 C21_6 1_555 1_555
H17_6 C22_6 1_555 1_555
C23_6 C20_6 1_555 1_555
C24_6 C23_6 1_555 1_555
H18_6 C24_6 1_555 1_555
C25_6 N5_3 1_555 1_555
H19_6 C25_6 1_555 1_555
N5_4 Co2_3 1_555 1_555
C16_6 C17_6 1_555 1_555
C18_6 C19_6 1_555 1_555
C22_6 C23_6 1_555 1_555
C24_6 C25_6 1_555 1_555
H15_7 C20_7 1_555 1_555
C23_7 C20_7 1_555 1_555
C24_7 C23_7 1_555 1_555
H18_7 C24_7 1_555 1_555
C25_7 N5_4 1_555 1_555
H19_7 C25_7 1_555 1_555
C24_7 C25_7 1_555 1_555
N4_3 C7_7 1_555 1_555
C7_7 H4_6 1_555 1_555
C8_7 C7_7 1_555 1_555
H5_6 C8_7 1_555 1_555
C9_7 C1_7 1_555 1_555
C10_7 C9_7 1_555 1_555
H6_7 C10_7 1_555 1_555
C11_7 N4_3 1_555 1_555
H7_7 C11_7 1_555 1_555
C8_7 C9_7 1_555 1_555
C10_7 C11_7 1_555 1_555
Co4_2 O3_7 1_555 1_555
Co4_2 O1_7 1_555 1_555
O1_7 C12_7 1_555 1_555
O2_7 C12_7 1_555 1_555
O4_7 C13_7 1_555 1_555
C3_7 C2_7 1_555 1_555
C4_7 C3_7 1_555 1_555
H2_7 C4_7 1_555 1_555
C5_7 C4_7 1_555 1_555
C12_7 C3_7 1_555 1_555
C13_7 C5_7 1_555 1_555
C5_7 C6_7 1_555 1_555
O3_8 C13_8 1_555 1_555
O4_8 C13_8 1_555 1_555
H3_8 C6_8 1_555 1_555
H6_8 C10_8 1_555 1_555
H7_8 C11_8 1_555 1_555
C13_8 C5_8 1_555 1_555
Co4_4 O3_8 1_555 1_555
O4_8 Co4_4 1_555 1_555
C5_8 C6_8 1_555 1_555
C10_8 C11_8 1_555 1_555
Co4_4 O1_8 1_555 1_555
O1_8 C12_8 1_555 1_555
O2_8 C12_8 1_555 1_555
N4_4 C7_8 1_555 1_555
N2_7 Co4_4 1_555 1_555
N5 C21_7 1_555 1_555
C1_8 C2_8 1_555 1_555
C2_8 H1_7 1_555 1_555
C3_8 C2_8 1_555 1_555
C4_8 C3_8 1_555 1_555
H2_8 C4_8 1_555 1_555
C7_8 H4_7 1_555 1_555
C8_8 C7_8 1_555 1_555
H5_7 C8_8 1_555 1_555
C9_8 C1_8 1_555 1_555
C12_8 C3_8 1_555 1_555
C14_7 H8_7 1_555 1_555
H9_7 C14_7 1_555 1_555
C15_7 N2_7 1_555 1_555
H10_7 C15_7 1_555 1_555
C16_7 C15_7 1_555 1_555
H11_7 C16_7 1_555 1_555
C17_7 C14_7 1_555 1_555
C18_7 C17_7 1_555 1_555
H12_7 C18_7 1_555 1_555
C19_7 N2_7 1_555 1_555
H13_7 C19_7 1_555 1_555
C20_8 C14_7 1_555 1_555
H14_7 C20_8 1_555 1_555
H15_8 C20_8 1_555 1_555
C21_7 H16_7 1_555 1_555
C22_7 C21_7 1_555 1_555
H17_7 C22_7 1_555 1_555
C23_8 C20_8 1_555 1_555
C24_8 C23_8 1_555 1_555
H18_8 C24_8 1_555 1_555
C25_8 N5 1_555 1_555
H19_8 C25_8 1_555 1_555
C8_8 C9_8 1_555 1_555
C16_7 C17_7 1_555 1_555
C18_7 C19_7 1_555 1_555
C22_7 C23_8 1_555 1_555
C24_8 C25_8 1_555 1_555
O3_9 C13_9 1_555 1_555
O4_9 C13_9 1_555 1_555
H3_9 C6_9 1_555 1_555
H6_9 C10_9 1_555 1_555
H7_9 C11_9 1_555 1_555
C13_9 C5_9 1_555 1_555
Co2_4 O3_9 1_555 1_555
O4_9 Co2_4 1_555 1_555
C5_9 C6_9 1_555 1_555
C10_9 C11_9 1_555 1_555
Co2_4 O1_9 1_555 1_555
O1_9 C12_9 1_555 1_555
O2_9 C12_9 1_555 1_555
N1_5 C7_9 1_555 1_555
N2_8 Co2_4 1_555 1_555
N3_5 C21_8 1_555 1_555
C1_9 C2_9 1_555 1_555
C2_9 H1_8 1_555 1_555
C3_9 C2_9 1_555 1_555
C4_9 C3_9 1_555 1_555
H2_9 C4_9 1_555 1_555
C7_9 H4_8 1_555 1_555
C8_9 C7_9 1_555 1_555
H5_8 C8_9 1_555 1_555
C9_9 C1_9 1_555 1_555
C12_9 C3_9 1_555 1_555
C14_8 H8_8 1_555 1_555
H9_8 C14_8 1_555 1_555
C15_8 N2_8 1_555 1_555
H10_8 C15_8 1_555 1_555
C16_8 C15_8 1_555 1_555
H11_8 C16_8 1_555 1_555
C17_8 C14_8 1_555 1_555
C18_8 C17_8 1_555 1_555
H12_8 C18_8 1_555 1_555
C19_8 N2_8 1_555 1_555
H13_8 C19_8 1_555 1_555
C20_9 C14_8 1_555 1_555
H14_8 C20_9 1_555 1_555
H15_9 C20_9 1_555 1_555
C21_8 H16_8 1_555 1_555
C22_8 C21_8 1_555 1_555
H17_8 C22_8 1_555 1_555
C23_9 C20_9 1_555 1_555
C24_9 C23_9 1_555 1_555
H18_9 C24_9 1_555 1_555
C25_9 N3_5 1_555 1_555
H19_9 C25_9 1_555 1_555
Co4_5 N3_5 1_555 1_555
N4_5 Co2_4 1_555 1_555
N5_5 Co2_4 1_555 1_555
C8_9 C9_9 1_555 1_555
C16_8 C17_8 1_555 1_555
C18_8 C19_8 1_555 1_555
C22_8 C23_9 1_555 1_555
C24_9 C25_9 1_555 1_555
O3_10 C13_10 1_555 1_555
O4_10 C13_10 1_555 1_555
N1_6 C7_10 1_555 1_555
C1_10 C2_10 1_555 1_555
C3_10 C2_10 1_555 1_555
C4_10 C3_10 1_555 1_555
H2_10 C4_10 1_555 1_555
C5_10 C4_10 1_555 1_555
C6_10 C1_10 1_555 1_555
H3_10 C6_10 1_555 1_555
C8_10 C7_10 1_555 1_555
C9_10 C1_10 1_555 1_555
C10_10 C9_10 1_555 1_555
H6_10 C10_10 1_555 1_555
C11_10 N1_6 1_555 1_555
H7_10 C11_10 1_555 1_555
C13_10 C5_10 1_555 1_555
Co2_5 O3_10 1_555 1_555
Co3_3 N1_6 1_555 1_555
O4_10 Co2_5 1_555 1_555
C5_10 C6_10 1_555 1_555
C8_10 C9_10 1_555 1_555
C10_10 C11_10 1_555 1_555
Co2_5 O1_10 1_555 1_555
O1_10 C12_10 1_555 1_555
O2_10 C12_10 1_555 1_555
N4_6 Co2_5 1_555 1_555
N5_6 Co2_5 1_555 1_555
N5_5 C21_9 1_555 1_555
C14_9 H8_9 1_555 1_555
H9_9 C14_9 1_555 1_555
C15_9 N2_9 1_555 1_555
H10_9 C15_9 1_555 1_555
C16_9 C15_9 1_555 1_555
H11_9 C16_9 1_555 1_555
C17_9 C14_9 1_555 1_555
C18_9 C17_9 1_555 1_555
H12_9 C18_9 1_555 1_555
C19_9 N2_9 1_555 1_555
H13_9 C19_9 1_555 1_555
C20_10 C14_9 1_555 1_555
H14_9 C20_10 1_555 1_555
H15_10 C20_10 1_555 1_555
C21_9 H16_9 1_555 1_555
C22_9 C21_9 1_555 1_555
H17_9 C22_9 1_555 1_555
C23_10 C20_10 1_555 1_555
C24_10 C23_10 1_555 1_555
H18_10 C24_10 1_555 1_555
C25_10 N5_5 1_555 1_555
H19_10 C25_10 1_555 1_555
C16_9 C17_9 1_555 1_555
C18_9 C19_9 1_555 1_555
C22_9 C23_10 1_555 1_555
C24_10 C25_10 1_555 1_555
O1_11 C12_11 1_555 1_555
O2_11 C12_11 1_555 1_555
O3_11 C13_11 1_555 1_555
O4_11 C13_11 1_555 1_555
N4_5 C7_11 1_555 1_555
C1_11 C2_11 1_555 1_555
C2_11 H1_10 1_555 1_555
C3_11 C2_11 1_555 1_555
C4_11 C3_11 1_555 1_555
H2_11 C4_11 1_555 1_555
C5_11 C4_11 1_555 1_555
C6_11 C1_11 1_555 1_555
H3_11 C6_11 1_555 1_555
C7_11 H4_10 1_555 1_555
C8_11 C7_11 1_555 1_555
H5_10 C8_11 1_555 1_555
C9_11 C1_11 1_555 1_555
C10_11 C9_11 1_555 1_555
H6_11 C10_11 1_555 1_555
C11_11 N4_5 1_555 1_555
H7_11 C11_11 1_555 1_555
C12_11 C3_11 1_555 1_555
C13_11 C5_11 1_555 1_555
Co3_2 O3_11 1_555 1_555
O4_11 Co3_2 1_555 1_555
C5_11 C6_11 1_555 1_555
C8_11 C9_11 1_555 1_555
C10_11 C11_11 1_555 1_555
N2_10 Co3_2 1_555 1_555
N3_6 C21_10 1_555 1_555
C14_10 H8_10 1_555 1_555
H9_10 C14_10 1_555 1_555
C15_10 N2_10 1_555 1_555
H10_10 C15_10 1_555 1_555
C16_10 C15_10 1_555 1_555
H11_10 C16_10 1_555 1_555
C17_10 C14_10 1_555 1_555
C18_10 C17_10 1_555 1_555
H12_10 C18_10 1_555 1_555
C19_10 N2_10 1_555 1_555
H13_10 C19_10 1_555 1_555
C20_11 C14_10 1_555 1_555
H14_10 C20_11 1_555 1_555
H15_11 C20_11 1_555 1_555
C21_10 H16_10 1_555 1_555
C22_10 C21_10 1_555 1_555
H17_10 C22_10 1_555 1_555
C23_11 C20_11 1_555 1_555
C24_11 C23_11 1_555 1_555
H18_11 C24_11 1_555 1_555
C25_11 N3_6 1_555 1_555
H19_11 C25_11 1_555 1_555
Co4_6 N3_6 1_555 1_555
N5_7 Co3_2 1_555 1_555
C16_10 C17_10 1_555 1_555
C18_10 C19_10 1_555 1_555
C22_10 C23_11 1_555 1_555
C24_11 C25_11 1_555 1_555
Co3_3 O3_12 1_555 1_555
Co3_3 O1_12 1_555 1_555
O1_12 C12_12 1_555 1_555
O2_12 C12_12 1_555 1_555
O4_12 C13_12 1_555 1_555
C3_12 C2_12 1_555 1_555
C4_12 C3_12 1_555 1_555
H2_12 C4_12 1_555 1_555
C5_12 C4_12 1_555 1_555
C12_12 C3_12 1_555 1_555
C13_12 C5_12 1_555 1_555
N5_8 Co3_3 1_555 1_555
C5_12 C6_12 1_555 1_555
N4_6 C7_12 1_555 1_555
C7_12 H4_11 1_555 1_555
C8_12 C7_12 1_555 1_555
H5_11 C8_12 1_555 1_555
C9_12 C1_12 1_555 1_555
C10_12 C9_12 1_555 1_555
H6_12 C10_12 1_555 1_555
C11_12 N4_6 1_555 1_555
H7_12 C11_12 1_555 1_555
C8_12 C9_12 1_555 1_555
C10_12 C11_12 1_555 1_555
H15_12 C20_12 1_555 1_555
C23_12 C20_12 1_555 1_555
C24_12 C23_12 1_555 1_555
H18_12 C24_12 1_555 1_555
C25_12 N5_7 1_555 1_555
H19_12 C25_12 1_555 1_555
C24_12 C25_12 1_555 1_555
O1_13 C12_13 1_555 1_555
O2_13 C12_13 1_555 1_555
O3_13 C13_13 1_555 1_555
O4_13 C13_13 1_555 1_555
N1_7 C7_13 1_555 1_555
C1_13 C2_13 1_555 1_555
C2_13 H1_12 1_555 1_555
C3_13 C2_13 1_555 1_555
C4_13 C3_13 1_555 1_555
H2_13 C4_13 1_555 1_555
C5_13 C4_13 1_555 1_555
C6_13 C1_13 1_555 1_555
H3_13 C6_13 1_555 1_555
C7_13 H4_12 1_555 1_555
C8_13 C7_13 1_555 1_555
H5_12 C8_13 1_555 1_555
C9_13 C1_13 1_555 1_555
C10_13 C9_13 1_555 1_555
H6_13 C10_13 1_555 1_555
C11_13 N1_7 1_555 1_555
H7_13 C11_13 1_555 1_555
C12_13 C3_13 1_555 1_555
C13_13 C5_13 1_555 1_555
Co2_6 O3_13 1_555 1_555
O4_13 Co2_6 1_555 1_555
C5_13 C6_13 1_555 1_555
C8_13 C9_13 1_555 1_555
C10_13 C11_13 1_555 1_555
N2_11 Co2_6 1_555 1_555
N5_6 C21_11 1_555 1_555
C14_11 H8_11 1_555 1_555
H9_11 C14_11 1_555 1_555
C15_11 N2_11 1_555 1_555
H10_11 C15_11 1_555 1_555
C16_11 C15_11 1_555 1_555
H11_11 C16_11 1_555 1_555
C17_11 C14_11 1_555 1_555
C18_11 C17_11 1_555 1_555
H12_11 C18_11 1_555 1_555
C19_11 N2_11 1_555 1_555
H13_11 C19_11 1_555 1_555
C20_13 C14_11 1_555 1_555
H14_11 C20_13 1_555 1_555
H15_13 C20_13 1_555 1_555
C21_11 H16_11 1_555 1_555
C22_11 C21_11 1_555 1_555
H17_11 C22_11 1_555 1_555
C23_13 C20_13 1_555 1_555
C24_13 C23_13 1_555 1_555
H18_13 C24_13 1_555 1_555
C25_13 N5_6 1_555 1_555
H19_13 C25_13 1_555 1_555
N4_7 Co2_6 1_555 1_555
N5_9 Co2_6 1_555 1_555
C16_11 C17_11 1_555 1_555
C18_11 C19_11 1_555 1_555
C22_11 C23_13 1_555 1_555
C24_13 C25_13 1_555 1_555
Co4_5 O3_14 1_555 1_555
Co4_5 O1_14 1_555 1_555
O1_14 C12_14 1_555 1_555
O2_14 C12_14 1_555 1_555
O4_14 C13_14 1_555 1_555
N1_8 C7_14 1_555 1_555
N2_12 Co4_5 1_555 1_555
C1_14 C2_14 1_555 1_555
C2_14 H1_13 1_555 1_555
C3_14 C2_14 1_555 1_555
C4_14 C3_14 1_555 1_555
H2_14 C4_14 1_555 1_555
C5_14 C4_14 1_555 1_555
C6_14 C1_14 1_555 1_555
H3_14 C6_14 1_555 1_555
C7_14 H4_13 1_555 1_555
C8_14 C7_14 1_555 1_555
H5_13 C8_14 1_555 1_555
C9_14 C1_14 1_555 1_555
C10_14 C9_14 1_555 1_555
H6_14 C10_14 1_555 1_555
C11_14 N1_8 1_555 1_555
H7_14 C11_14 1_555 1_555
C12_14 C3_14 1_555 1_555
C13_14 C5_14 1_555 1_555
C14_12 H8_12 1_555 1_555
H9_12 C14_12 1_555 1_555
C15_12 N2_12 1_555 1_555
H10_12 C15_12 1_555 1_555
C16_12 C15_12 1_555 1_555
H11_12 C16_12 1_555 1_555
C17_12 C14_12 1_555 1_555
C18_12 C17_12 1_555 1_555
H12_12 C18_12 1_555 1_555
C19_12 N2_12 1_555 1_555
H13_12 C19_12 1_555 1_555
C21_12 H16_12 1_555 1_555
C22_12 C21_12 1_555 1_555
H17_12 C22_12 1_555 1_555
Co4_6 N1_8 1_555 1_555
N4_8 Co4_5 1_555 1_555
C5_14 C6_14 1_555 1_555
C8_14 C9_14 1_555 1_555
C10_14 C11_14 1_555 1_555
C16_12 C17_12 1_555 1_555
C18_12 C19_12 1_555 1_555
H15_14 C20_14 1_555 1_555
C23_14 C20_14 1_555 1_555
C24_14 C23_14 1_555 1_555
H18_14 C24_14 1_555 1_555
C25_14 N5_9 1_555 1_555
H19_14 C25_14 1_555 1_555
C24_14 C25_14 1_555 1_555
O3_15 C13_15 1_555 1_555
O4_15 C13_15 1_555 1_555
H3_15 C6_15 1_555 1_555
H6_15 C10_15 1_555 1_555
H7_15 C11_15 1_555 1_555
C13_15 C5_15 1_555 1_555
Co3_4 O3_15 1_555 1_555
O4_15 Co3_4 1_555 1_555
C5_15 C6_15 1_555 1_555
C10_15 C11_15 1_555 1_555
Co3_4 O1_15 1_555 1_555
O1_15 C12_15 1_555 1_555
O2_15 C12_15 1_555 1_555
N4_7 C7_15 1_555 1_555
N2_13 Co3_4 1_555 1_555
N5_8 C21_13 1_555 1_555
C1_15 C2_15 1_555 1_555
C2_15 H1_14 1_555 1_555
C3_15 C2_15 1_555 1_555
C4_15 C3_15 1_555 1_555
H2_15 C4_15 1_555 1_555
C7_15 H4_14 1_555 1_555
C8_15 C7_15 1_555 1_555
H5_14 C8_15 1_555 1_555
C9_15 C1_15 1_555 1_555
C12_15 C3_15 1_555 1_555
C14_13 H8_13 1_555 1_555
H9_13 C14_13 1_555 1_555
C15_13 N2_13 1_555 1_555
H10_13 C15_13 1_555 1_555
C16_13 C15_13 1_555 1_555
H11_13 C16_13 1_555 1_555
C17_13 C14_13 1_555 1_555
C18_13 C17_13 1_555 1_555
H12_13 C18_13 1_555 1_555
C19_13 N2_13 1_555 1_555
H13_13 C19_13 1_555 1_555
C20_15 C14_13 1_555 1_555
H14_13 C20_15 1_555 1_555
H15_15 C20_15 1_555 1_555
C21_13 H16_13 1_555 1_555
C22_13 C21_13 1_555 1_555
H17_13 C22_13 1_555 1_555
C23_15 C20_15 1_555 1_555
C24_15 C23_15 1_555 1_555
H18_15 C24_15 1_555 1_555
C25_15 N5_8 1_555 1_555
H19_15 C25_15 1_555 1_555
N5_10 Co3_4 1_555 1_555
C8_15 C9_15 1_555 1_555
C16_13 C17_13 1_555 1_555
C18_13 C19_13 1_555 1_555
C22_13 C23_15 1_555 1_555
C24_15 C25_15 1_555 1_555
O3_16 C13_16 1_555 1_555
O4_16 C13_16 1_555 1_555
C3_16 C2_16 1_555 1_555
C4_16 C3_16 1_555 1_555
H2_16 C4_16 1_555 1_555
C5_16 C4_16 1_555 1_555
C13_16 C5_16 1_555 1_555
Co4_6 O3_16 1_555 1_555
O4_16 Co4_6 1_555 1_555
C5_16 C6_16 1_555 1_555
Co4_6 O1_16 1_555 1_555
O1_16 C12_16 1_555 1_555
O2_16 C12_16 1_555 1_555
N2_14 Co4_6 1_555 1_555
N5_10 C21_14 1_555 1_555
C14_14 H8_14 1_555 1_555
H9_14 C14_14 1_555 1_555
C15_14 N2_14 1_555 1_555
H10_14 C15_14 1_555 1_555
C16_14 C15_14 1_555 1_555
H11_14 C16_14 1_555 1_555
C17_14 C14_14 1_555 1_555
C18_14 C17_14 1_555 1_555
H12_14 C18_14 1_555 1_555
C19_14 N2_14 1_555 1_555
H13_14 C19_14 1_555 1_555
C20_16 C14_14 1_555 1_555
H14_14 C20_16 1_555 1_555
H15_16 C20_16 1_555 1_555
C21_14 H16_14 1_555 1_555
C22_14 C21_14 1_555 1_555
H17_14 C22_14 1_555 1_555
C23_16 C20_16 1_555 1_555
C24_16 C23_16 1_555 1_555
H18_16 C24_16 1_555 1_555
C25_16 N5_10 1_555 1_555
H19_16 C25_16 1_555 1_555
C16_14 C17_14 1_555 1_555
C18_14 C19_14 1_555 1_555
C22_14 C23_16 1_555 1_555
C24_16 C25_16 1_555 1_555
N4_8 C7_16 1_555 1_555
C8_16 C7_16 1_555 1_555
C9_16 C1_16 1_555 1_555
C10_16 C9_16 1_555 1_555
H6_16 C10_16 1_555 1_555
C11_16 N4_8 1_555 1_555
H7_16 C11_16 1_555 1_555
C8_16 C9_16 1_555 1_555
C10_16 C11_16 1_555 1_555
C14_15 H8_15 1_555 1_555
H9_15 C14_15 1_555 1_555
C15_15 N2_15 1_555 1_555
H10_15 C15_15 1_555 1_555
C16_15 C15_15 1_555 1_555
H11_15 C16_15 1_555 1_555
C17_15 C14_15 1_555 1_555
C18_15 C17_15 1_555 1_555
H12_15 C18_15 1_555 1_555
C19_15 N2_15 1_555 1_555
H13_15 C19_15 1_555 1_555
C21_15 H16_15 1_555 1_555
C22_15 C21_15 1_555 1_555
H17_15 C22_15 1_555 1_555
C16_15 C17_15 1_555 1_555
C18_15 C19_15 1_555 1_555
C14_16 H8_16 1_555 1_555
H9_16 C14_16 1_555 1_555
C15_16 N2_16 1_555 1_555
H10_16 C15_16 1_555 1_555
C16_16 C15_16 1_555 1_555
H11_16 C16_16 1_555 1_555
C17_16 C14_16 1_555 1_555
C18_16 C17_16 1_555 1_555
H12_16 C18_16 1_555 1_555
C19_16 N2_16 1_555 1_555
H13_16 C19_16 1_555 1_555
C21_16 H16_16 1_555 1_555
C22_16 C21_16 1_555 1_555
H17_16 C22_16 1_555 1_555
C16_16 C17_16 1_555 1_555
C18_16 C19_16 1_555 1_555

#END
