
###############################################################################
#
# This file contains modified crystal structure data generated from the
# MOF subset of the Cambridge Structural Database (CSD) v543 
# hosted by the Cambridge Crystallographic Data Centre (CCDC).
#
# This work is licensed under the Creative Commons
# Attribution-NonCommercial-ShareAlike 4.0 International License.
# To view a copy of this license, visit
# http://creativecommons.org/licenses/by-nc-sa/4.0/
# or send a letter to
# Creative Commons, PO Box 1866, Mountain View, CA 94042, USA.
#
# CIF created using the CSD Python API on 29 September 2022
# The structure has been converted into the P1 space group
# The structure has a 3D framework
# The original CSD entry REJLIC is in the triclinic crystal system
# The framework has been calculated to contain at least 10.0% void space
# The void calculation uses a probe of radius 1.32A, grid spacing 0.4
#
###############################################################################

data_REJLIC
_chemical_formula_moiety         '(C92 H52 Co14 N32 O13 S6)n'
_symmetry_cell_setting           triclinic
_symmetry_space_group_name_H-M   'P 1'
_symmetry_Int_Tables_number      1
_space_group_name_Hall           'P 1'
loop_
_symmetry_equiv_pos_site_id
_symmetry_equiv_pos_as_xyz
1 x,y,z
_cell_length_a                   11.7914(12)
_cell_length_b                   17.0504(18)
_cell_length_c                   20.795(2)
_cell_angle_alpha                104.726(2)
_cell_angle_beta                 106.360(2)
_cell_angle_gamma                103.481(2)
_cell_volume                     3664.62
loop_
_atom_site_label
_atom_site_type_symbol
_atom_site_fract_x
_atom_site_fract_y
_atom_site_fract_z
Co4 Co -0.0000 -0.0000 0.0000
O7 O 0.1856(4) 0.0560(3) 0.0127(2)
O8 O 0.3818(4) 0.0671(3) 0.0274(2)
Co13 Co 0.5000 -0.0000 0.0000
O18 O 0.0487(4) 0.0596(3) 0.1074(2)
Co4_2 Co -0.0000 -0.0000 1.0000
C10 C 0.2663(6) 0.0286(4) 0.9958(3)
Co9 Co 0.00007(8) 0.25188(5) 0.24835(4)
Co13_2 Co 0.5000 -0.0000 1.0000
C69 C 0.0640(8) 0.1439(5) 0.3459(5)
H37 H 0.1459 0.1818 0.3581
C70 C 0.0528(8) 0.0763(5) 0.3710(5)
H38 H 0.1252 0.0678 0.3985
Co4_3 Co -0.0000 1.0000 0.0000
H21 H 0.0900 0.3137 0.0175
C39 C 0.0468(7) 0.1887(5) 0.0103(4)
H22 H 0.1213 0.1971 0.0480
Co13_3 Co 0.5000 1.0000 0.0000
N39 N 0.0357(5) 0.8896(3) 0.0226(3)
Co2 Co -0.0000 0.5000 0.5000
Co3 Co -0.00007(8) 0.74812(5) 0.75165(4)
Co4_4 Co -0.0000 1.0000 1.0000
S3 S 0.0162(2) 0.40978(12) 0.92662(11)
O3 O 0.0496(4) 0.5588(3) 0.6078(2)
O4 O 0.0844(4) 0.6709(3) 0.6998(2)
N3 N 0.1502(5) 0.8287(3) 0.8405(2)
N4 N 0.3270(5) 0.9171(3) 0.9293(3)
N10 N 0.1915(8) 0.1160(7) 0.6526(8)
N11 N 0.1925(9) 0.1841(8) 0.6305(8)
N12 N 0.0314(6) 0.3863(4) 0.5207(3)
C5 C 0.0110(5) 0.6100(4) 0.6419(3)
C6 C 0.2723(6) 0.8468(4) 0.8713(3)
H2 H 0.3172 0.8125 0.8535
C7 C 0.1221(6) 0.8927(4) 0.8825(3)
C8 C 0.2307(5) 0.9470(3) 0.9364(3)
C28 C 0.0853(8) 0.0577(6) 0.6258(5)
C29 C 0.0858(8) 0.1783(6) 0.5897(5)
C30 C 0.0663(8) 0.2483(5) 0.5623(5)
C33 C 0.1357(7) 0.3947(5) 0.5722(4)
H17 H 0.1988 0.4494 0.5953
C34 C 0.1559(8) 0.3267(6) 0.5936(5)
H18 H 0.2322 0.3350 0.6299
C38 C 0.0290(8) 0.2584(5) 0.9921(4)
C45 C 0.0598(8) 0.6367(5) 0.8471(4)
H25 H 0.1430 0.6720 0.8584
C46 C 0.0431(8) 0.5695(5) 0.8712(5)
H26 H 0.1137 0.5593 0.8988
Co13_4 Co 0.5000 1.0000 1.0000
S5 S 0.0259(2) 0.91509(13) 0.42763(12)
O11 O 0.1851(4) 0.5540(3) 0.5147(2)
N29 N 0.0296(5) 0.8402(3) 0.6934(3)
C77 C 0.0397(8) 0.7612(5) 0.4918(4)
H41 H 0.1037 0.8155 0.5156
C78 C 0.0531(8) 0.6913(5) 0.5114(4)
H42 H 0.1263 0.6994 0.5498
C25 C 0.0623(8) 0.9780(5) 0.6441(4)
C26 C 0.1599(9) 0.9578(6) 0.6798(6)
H13 H 0.2428 0.9918 0.6891
C27 C 0.1406(8) 0.8891(6) 0.7028(5)
H14 H 0.2115 0.8763 0.7268
Co4_5 Co 1.0000 -0.0000 0.0000
Co4_6 Co 1.0000 -0.0000 1.0000
H9 H 0.4931 0.0490 0.1523
Co9_2 Co 1.00007(8) 0.25188(5) 0.24835(4)
N22 N 0.6730(5) 0.0829(3) 0.0707(3)
N28 N 0.9704(5) 0.1598(3) 0.3066(3)
N38 N 0.9643(5) 0.1104(3) 0.9774(3)
C71 C 0.9377(8) 0.0220(5) 0.3559(4)
C72 C 0.8401(9) 0.0422(6) 0.3202(6)
H39 H 0.7572 0.0082 0.3109
C73 C 0.8594(8) 0.1109(6) 0.2972(5)
H40 H 0.7885 0.1237 0.2732
N27 N 0.5113(5) 0.0543(3) 0.9173(3)
Co4_7 Co 1.0000 1.0000 0.0000
Co1 Co 0.5000 0.5000 0.5000
Co2_2 Co 1.0000 0.5000 0.5000
Co3_2 Co 0.99993(8) 0.74812(5) 0.75165(4)
Co4_8 Co 1.0000 1.0000 1.0000
S1 S 0.5047(2) 0.74316(12) 0.24379(10)
S2 S 0.9741(2) 0.08491(13) 0.57237(12)
O1 O 0.6198(4) 0.4415(3) 0.4635(2)
O2 O 0.8149(4) 0.4460(3) 0.4853(2)
O5 O 0.9157(4) 0.8257(3) 0.8026(2)
O6 O 0.9513(4) 0.9404(3) 0.8926(2)
N1 N 0.6717(4) 0.5768(3) 0.5764(2)
N2 N 0.8474(5) 0.6654(3) 0.6639(2)
N5 N 0.5188(5) 0.5885(4) 0.4405(3)
N6 N 0.5274(9) 0.8466(5) 0.3606(4)
N7 N 0.5211(9) 0.8919(5) 0.3151(4)
N8 N 0.4887(5) 0.9457(3) 0.0827(3)
N13 N 0.9669(6) 0.6557(3) 0.8089(3)
N14 N 0.7937(7) 0.3842(5) 0.8530(6)
N15 N 0.7914(7) 0.3142(5) 0.8740(6)
C1 C 0.7242(5) 0.6451(4) 0.6352(3)
H1 H 0.6782 0.6766 0.6550
C2 C 0.7681(5) 0.5504(4) 0.5661(3)
C3 C 0.8771(5) 0.6051(4) 0.6208(3)
C4 C 0.7349(6) 0.4745(3) 0.5009(3)
C9 C 0.9882(5) 0.8876(4) 0.8590(3)
C11 C 0.4937(8) 0.5627(5) 0.3715(4)
H3 H 0.4749 0.5034 0.3467
C12 C 0.4936(8) 0.6190(5) 0.3331(4)
H4 H 0.4737 0.5982 0.2830
C13 C 0.5228(7) 0.7055(5) 0.3693(4)
C14 C 0.5541(9) 0.7320(5) 0.4401(4)
H5 H 0.5783 0.7912 0.4669
C15 C 0.5506(9) 0.6713(5) 0.4734(4)
H6 H 0.5727 0.6911 0.5237
C16 C 0.5192(7) 0.7673(5) 0.3303(4)
C17 C 0.5086(7) 0.8457(5) 0.2512(4)
C18 C 0.4999(7) 0.8800(5) 0.1922(4)
C19 C 0.4907(9) 0.8295(5) 0.1269(5)
H7 H 0.4897 0.7719 0.1187
C20 C 0.4829(9) 0.8642(5) 0.0727(4)
H8 H 0.4732 0.8285 0.0268
C21 C 0.4941(7) 0.9920(5) 0.1455(4)
C22 C 0.5011(7) 0.9626(5) 0.2020(4)
H10 H 0.5067 0.9989 0.2466
C31 C 0.9603(8) 0.2388(5) 0.5082(4)
H15 H 0.8963 0.1845 0.4844
C32 C 0.9469(8) 0.3087(5) 0.4886(4)
H16 H 0.8737 0.3006 0.4502
C35 C 0.8610(7) 0.1009(4) 0.9246(4)
H19 H 0.8003 0.0452 0.9005
C36 C 0.8380(7) 0.1670(5) 0.9032(5)
H20 H 0.7634 0.1568 0.8648
C37 C 0.9227(7) 0.2477(4) 0.9373(4)
C40 C 0.8990(8) 0.3178(5) 0.9110(4)
C41 C 0.9022(8) 0.4385(5) 0.8755(4)
C42 C 0.9265(8) 0.5170(5) 0.8560(4)
C43 C 0.8302(8) 0.5400(6) 0.8225(5)
H23 H 0.7468 0.5085 0.8149
C44 C 0.8534(8) 0.6093(6) 0.7996(5)
H24 H 0.7844 0.6241 0.7759
S4 S 0.4953(2) 0.25684(12) 0.75621(10)
O9 O 0.3802(4) 0.5585(3) 0.5365(2)
O13 O 0.9504(4) 0.4412(3) 0.3922(2)
O16 O 0.0843(4) 0.1743(3) 0.1974(2)
O20 O 0.8144(4) 0.9440(3) 0.9873(2)
N17 N 0.3283(4) 0.4232(3) 0.4236(2)
N18 N 0.1526(5) 0.3346(3) 0.3361(2)
N23 N 0.4812(5) 0.4115(4) 0.5595(3)
N24 N 0.4726(9) 0.1534(5) 0.6394(4)
N25 N 0.4789(9) 0.1081(5) 0.6849(4)
N31 N 0.8085(8) 0.8840(7) 0.3474(8)
N32 N 0.8075(9) 0.8159(8) 0.3695(8)
N33 N 0.9686(6) 0.6137(4) 0.4793(3)
N34 N 0.0331(6) 0.3443(3) 0.1911(3)
N35 N 0.2063(7) 0.6158(5) 0.1470(6)
N36 N 0.2086(7) 0.6858(5) 0.1260(6)
C47 C 0.2758(5) 0.3549(4) 0.3648(3)
H27 H 0.3218 0.3234 0.3450
C48 C 0.2319(5) 0.4496(4) 0.4339(3)
C49 C 0.1229(5) 0.3949(4) 0.3792(3)
C50 C 0.2651(6) 0.5255(3) 0.4991(3)
C57 C 0.5063(8) 0.4373(5) 0.6285(4)
H29 H 0.5251 0.4966 0.6533
C58 C 0.5064(8) 0.3810(5) 0.6669(4)
H30 H 0.5263 0.4018 0.7170
C59 C 0.4772(7) 0.2945(5) 0.6307(4)
C60 C 0.4459(9) 0.2680(5) 0.5599(4)
H31 H 0.4217 0.2088 0.5331
C61 C 0.4494(9) 0.3287(5) 0.5266(4)
H32 H 0.4273 0.3089 0.4763
C62 C 0.4808(7) 0.2327(5) 0.6697(4)
C63 C 0.4914(7) 0.1543(5) 0.7488(4)
C64 C 0.5001(7) 0.1200(5) 0.8078(4)
C65 C 0.5093(9) 0.1705(5) 0.8731(5)
H33 H 0.5103 0.2281 0.8813
C66 C 0.5171(9) 0.1358(5) 0.9273(4)
H34 H 0.5268 0.1715 0.9732
C67 C 0.5059(7) 0.0080(5) 0.8545(4)
C68 C 0.4989(7) 0.0374(5) 0.7980(4)
H36 H 0.4933 0.0011 0.7534
C74 C 0.9147(8) 0.9423(6) 0.3742(5)
C75 C 0.9142(8) 0.8217(6) 0.4103(5)
C76 C 0.9337(8) 0.7517(5) 0.4377(5)
C79 C 0.8643(7) 0.6053(5) 0.4278(4)
H43 H 0.8012 0.5506 0.4047
C80 C 0.8441(8) 0.6733(6) 0.4064(5)
H44 H 0.7678 0.6650 0.3701
C81 C 0.1390(7) 0.8991(4) 0.0754(4)
H45 H 0.1997 0.9548 0.0995
C82 C 0.1620(7) 0.8330(5) 0.0968(5)
H46 H 0.2366 0.8432 0.1352
C83 C 0.0773(7) 0.7523(4) 0.0627(4)
C86 C 0.1010(8) 0.6822(5) 0.0890(4)
C87 C 0.0978(8) 0.5615(5) 0.1245(4)
C88 C 0.0735(8) 0.4830(5) 0.1440(4)
C89 C 0.1698(8) 0.4600(6) 0.1775(5)
H49 H 0.2532 0.4915 0.1851
C90 C 0.1466(8) 0.3907(6) 0.2004(5)
H50 H 0.2156 0.3759 0.2241
O22 O 0.6182(4) 0.9329(3) 0.9726(2)
C23 C 0.9360(8) 0.8561(5) 0.6541(5)
H11 H 0.8541 0.8182 0.6419
C24 C 0.9472(8) 0.9237(5) 0.6290(5)
H12 H 0.8748 0.9322 0.6015
H35 H 0.5069 0.9510 0.8477
S6 S 0.9838(2) 0.59022(12) 0.07338(11)
O14 O 0.9156(4) 0.3291(3) 0.3002(2)
N20 N 0.8498(5) 0.1713(3) 0.1595(2)
C51 C 0.9890(5) 0.3900(4) 0.3581(3)
C84 C 0.9710(8) 0.7416(5) 0.0079(4)
C91 C 0.9402(8) 0.3633(5) 0.1529(4)
H51 H 0.8570 0.3280 0.1416
C92 C 0.9569(8) 0.4305(5) 0.1288(5)
H52 H 0.8863 0.4407 0.1012
H47 H 0.9100 0.6863 0.9825
C85 C 0.9532(7) 0.8113(5) 0.9897(4)
H48 H 0.8787 0.8029 0.9520
C55 C 0.0118(5) 0.1124(4) 0.1410(3)
C52 C 0.7277(6) 0.1532(4) 0.1287(3)
H28 H 0.6828 0.1875 0.1465
C53 C 0.8779(6) 0.1073(4) 0.1175(3)
C54 C 0.7693(5) 0.0530(3) 0.0636(3)
C56 C 0.7337(6) 0.9714(4) 0.0042(3)
loop_
_geom_bond_atom_site_label_1
_geom_bond_atom_site_label_2
_geom_bond_site_symmetry_1
_geom_bond_site_symmetry_2
O7 Co4 1_555 1_555
Co13 O8 1_555 1_555
O18 Co4 1_555 1_555
C69 H37 1_555 1_555
C70 C69 1_555 1_555
H38 C70 1_555 1_555
H22 C39 1_555 1_555
N39 Co4_3 1_555 1_555
Co3 O4 1_555 1_555
O3 Co2 1_555 1_555
O4 C5 1_555 1_555
N3 Co3 1_555 1_555
N4 C6 1_555 1_555
N10 N11 1_555 1_555
N11 C29 1_555 1_555
N12 Co2 1_555 1_555
C5 O3 1_555 1_555
C6 N3 1_555 1_555
H2 C6 1_555 1_555
C7 N3 1_555 1_555
C8 N4 1_555 1_555
C28 N10 1_555 1_555
C30 C29 1_555 1_555
C33 N12 1_555 1_555
H17 C33 1_555 1_555
C34 C30 1_555 1_555
H18 C34 1_555 1_555
H25 C45 1_555 1_555
H26 C46 1_555 1_555
O11 Co2 1_555 1_555
N29 Co3 1_555 1_555
H41 C77 1_555 1_555
H42 C78 1_555 1_555
N4 Co13_4 1_555 1_555
C7 C8 1_555 1_555
C33 C34 1_555 1_555
C45 C46 1_555 1_555
C77 C78 1_555 1_555
C26 C25 1_555 1_555
H13 C26 1_555 1_555
C27 N29 1_555 1_555
H14 C27 1_555 1_555
C26 C27 1_555 1_555
Co9_2 N28 1_555 1_555
N22 Co13 1_555 1_555
N38 Co4_6 1_555 1_555
C72 C71 1_555 1_555
H39 C72 1_555 1_555
C73 N28 1_555 1_555
H40 C73 1_555 1_555
C72 C73 1_555 1_555
N27 Co13_2 1_555 1_555
Co1 O1 1_555 1_555
Co2_2 O2 1_555 1_555
Co4_8 O6 1_555 1_555
Co13_3 N8 1_555 1_555
S1 C16 1_555 1_555
O1 C4 1_555 1_555
O2 C4 1_555 1_555
O5 Co3_2 1_555 1_555
O6 C9 1_555 1_555
N1 Co1 1_555 1_555
N2 Co3_2 1_555 1_555
N5 Co1 1_555 1_555
N6 N7 1_555 1_555
N7 C17 1_555 1_555
N8 C20 1_555 1_555
N13 Co3_2 1_555 1_555
N14 N15 1_555 1_555
N15 C40 1_555 1_555
N38 C35 1_555 1_555
C1 N1 1_555 1_555
H1 C1 1_555 1_555
C2 N1 1_555 1_555
C3 N2 1_555 1_555
C4 C2 1_555 1_555
C9 O5 1_555 1_555
C11 N5 1_555 1_555
H3 C11 1_555 1_555
C12 C11 1_555 1_555
H4 C12 1_555 1_555
C13 C12 1_555 1_555
C14 C13 1_555 1_555
H5 C14 1_555 1_555
C15 N5 1_555 1_555
H6 C15 1_555 1_555
C16 N6 1_555 1_555
C17 S1 1_555 1_555
C18 C17 1_555 1_555
C19 C18 1_555 1_555
H7 C19 1_555 1_555
C20 C19 1_555 1_555
H8 C20 1_555 1_555
C21 N8 1_555 1_555
C22 C18 1_555 1_555
H10 C22 1_555 1_555
H15 C31 1_555 1_555
H16 C32 1_555 1_555
C35 H19 1_555 1_555
C36 C35 1_555 1_555
H20 C36 1_555 1_555
C37 C36 1_555 1_555
C40 C37 1_555 1_555
C42 C41 1_555 1_555
C43 C42 1_555 1_555
H23 C43 1_555 1_555
C44 N13 1_555 1_555
H24 C44 1_555 1_555
S4 C62 1_555 1_555
O9 Co1 1_555 1_555
O11 C50 1_555 1_555
O13 Co2_2 1_555 1_555
O16 Co9 1_555 1_555
O20 Co4_8 1_555 1_555
N17 Co1 1_555 1_555
N18 Co9 1_555 1_555
N23 Co1 1_555 1_555
N24 N25 1_555 1_555
N25 C63 1_555 1_555
N27 C66 1_555 1_555
N31 N32 1_555 1_555
N32 C75 1_555 1_555
N33 Co2_2 1_555 1_555
N34 Co9 1_555 1_555
N35 N36 1_555 1_555
N36 C86 1_555 1_555
C47 N17 1_555 1_555
H27 C47 1_555 1_555
C48 N17 1_555 1_555
C49 N18 1_555 1_555
C50 O9 1_555 1_555
C57 N23 1_555 1_555
H29 C57 1_555 1_555
C58 C57 1_555 1_555
H30 C58 1_555 1_555
C59 C58 1_555 1_555
C60 C59 1_555 1_555
H31 C60 1_555 1_555
C61 N23 1_555 1_555
H32 C61 1_555 1_555
C62 N24 1_555 1_555
C63 S4 1_555 1_555
C64 C63 1_555 1_555
C65 C64 1_555 1_555
H33 C65 1_555 1_555
C66 C65 1_555 1_555
H34 C66 1_555 1_555
C67 N27 1_555 1_555
C68 C64 1_555 1_555
H36 C68 1_555 1_555
C74 N31 1_555 1_555
C76 C75 1_555 1_555
C79 N33 1_555 1_555
H43 C79 1_555 1_555
C80 C76 1_555 1_555
H44 C80 1_555 1_555
C81 N39 1_555 1_555
H45 C81 1_555 1_555
C82 C81 1_555 1_555
H46 C82 1_555 1_555
C83 C82 1_555 1_555
C86 C83 1_555 1_555
C88 C87 1_555 1_555
C89 C88 1_555 1_555
H49 C89 1_555 1_555
C90 N34 1_555 1_555
H50 C90 1_555 1_555
N2 C1 1_555 1_555
N14 C41 1_555 1_555
C2 C3 1_555 1_555
C13 C16 1_555 1_555
C14 C15 1_555 1_555
C21 C22 1_555 1_555
C31 C32 1_555 1_555
C43 C44 1_555 1_555
N18 C47 1_555 1_555
N35 C87 1_555 1_555
C48 C49 1_555 1_555
C48 C50 1_555 1_555
C59 C62 1_555 1_555
C60 C61 1_555 1_555
C67 C68 1_555 1_555
C79 C80 1_555 1_555
C89 C90 1_555 1_555
O22 Co13_4 1_555 1_555
C23 H11 1_555 1_555
C24 C23 1_555 1_555
H12 C24 1_555 1_555
Co9_2 O14 1_555 1_555
O14 C51 1_555 1_555
N20 Co9_2 1_555 1_555
C51 O13 1_555 1_555
H51 C91 1_555 1_555
H52 C92 1_555 1_555
C91 C92 1_555 1_555
H48 C85 1_555 1_555
O16 C55 1_555 1_555
O18 C55 1_555 1_555
C52 N20 1_555 1_555
H28 C52 1_555 1_555
C53 N20 1_555 1_555
C54 N22 1_555 1_555
N22 C52 1_555 1_555
C53 C54 1_555 1_555

#END
