
###############################################################################
#
# This file contains modified crystal structure data generated from the
# MOF subset of the Cambridge Structural Database (CSD) v543 
# hosted by the Cambridge Crystallographic Data Centre (CCDC).
#
# This work is licensed under the Creative Commons
# Attribution-NonCommercial-ShareAlike 4.0 International License.
# To view a copy of this license, visit
# http://creativecommons.org/licenses/by-nc-sa/4.0/
# or send a letter to
# Creative Commons, PO Box 1866, Mountain View, CA 94042, USA.
#
# CIF created using the CSD Python API on 29 September 2022
# The structure has been converted into the P1 space group
# The structure has a 3D framework
# The original CSD entry REJPED is in the cubic crystal system
# The framework has been calculated to contain at least 10.0% void space
# The void calculation uses a probe of radius 1.32A, grid spacing 0.4
# The framework is charged, counterions have been retained in the structure
#
###############################################################################

data_REJPED
_chemical_formula_moiety         '(C456 H480 Ag16 Cl24 N48 O199 8-)n'
_symmetry_cell_setting           triclinic
_symmetry_space_group_name_H-M   'P 1'
_symmetry_Int_Tables_number      1
_space_group_name_Hall           'P 1'
loop_
_symmetry_equiv_pos_site_id
_symmetry_equiv_pos_as_xyz
1 x,y,z
_cell_length_a                   25.9744(8)
_cell_length_b                   25.9744(8)
_cell_length_c                   25.9744(8)
_cell_angle_alpha                90
_cell_angle_beta                 90
_cell_angle_gamma                90
_cell_volume                     17524.1
loop_
_atom_site_label
_atom_site_type_symbol
_atom_site_fract_x
_atom_site_fract_y
_atom_site_fract_z
Ag6 Ag -0.0000 0.0000 0.0000
Ag6_2 Ag -0.0000 0.0000 1.0000
Ag6_3 Ag -0.0000 1.0000 0.0000
C64 C 0.0251(3) 0.8303(3) 0.0284(3)
H50 H 0.0545 0.8263 0.0084
C74 C 0.0124(3) 0.7930(3) 0.0617(3)
H55 H 0.0311 0.7625 0.0628
Ag6_4 Ag -0.0000 1.0000 1.0000
O10 O 0.00902(19) 0.90755(18) 0.98716(17)
Ag5 Ag 0.5000 0.0000 0.5000
Ag6_5 Ag 1.0000 0.0000 0.0000
O9 O 0.59245(18) 0.01284(17) 0.50902(19)
Ag6_6 Ag 1.0000 0.0000 1.0000
Ag1 Ag 0.5000 0.5000 0.0000
O2 O 0.26667(19) 0.3476(2) 0.08956(19)
O3 O 0.2171(3) 0.3664(3) 0.0211(2)
N1 N 0.3739(2) 0.4770(2) 0.0034(2)
C1 C 0.2126(3) 0.1705(2) 0.1159(2)
H1 H 0.2300 0.1660 0.0832
H2 H 0.1805 0.1515 0.1142
C2 C 0.2004(2) 0.2256(2) 0.1220(2)
C3 C 0.2557(3) 0.3723(3) 0.0452(3)
C4 C 0.3828(3) 0.4435(3) 0.0413(3)
H3 H 0.4141 0.4444 0.0585
C5 C 0.1566(3) 0.2449(3) 0.1475(3)
C6 C 0.2350(3) 0.2626(3) 0.1025(2)
H4 H 0.2639 0.2511 0.0848
C7 C 0.2284(3) 0.3138(3) 0.1083(3)
C8 C 0.3466(3) 0.4079(3) 0.0554(3)
H5 H 0.3532 0.3854 0.0824
C10 C 0.1874(3) 0.3331(3) 0.1330(3)
C12 C 0.3007(3) 0.4054(3) 0.0295(3)
C13 C 0.1502(3) 0.2983(3) 0.1525(3)
H8 H 0.1211 0.3111 0.1689
Ag2 Ag 0.42720(2) 0.57280(2) 0.07280(2)
O4 O 0.3433(2) 0.5420(2) 0.0983(2)
N2 N 0.2894(5) 0.4941(3) 0.1484(4)
C14 C 0.2927(6) 0.4611(6) 0.1927(6)
H9 H 0.2886 0.4254 0.1827
H10 H 0.2662 0.4698 0.2175
C15 C 0.3417(6) 0.4695(6) 0.2135(7)
H11 H 0.3392 0.4924 0.2429
H12 H 0.3561 0.4370 0.2253
C16 C 0.3362(5) 0.5130(4) 0.1356(5)
C17 C 0.3771(6) 0.4933(4) 0.1726(4)
H13 H 0.3993 0.4678 0.1567
H14 H 0.3979 0.5210 0.1865
C18 C 0.2446(4) 0.5102(5) 0.1173(6)
H15 H 0.2563 0.5277 0.0870
H16 H 0.2250 0.4804 0.1076
H17 H 0.2233 0.5329 0.1372
O5 O 0.1822(3) 0.3865(2) 0.1373(2)
C19 C 0.1378(5) 0.4064(4) 0.1630(6)
H18 H 0.1077 0.3993 0.1428
H19 H 0.1414 0.4429 0.1673
H20 H 0.1345 0.3903 0.1961
Ag3 Ag 0.0000 0.5000 0.5000
Ag5_2 Ag 0.5000 1.0000 0.5000
Ag6_7 Ag 1.0000 1.0000 0.0000
O8 O 0.48716(17) 0.49098(19) 0.09245(18)
O11 O 0.50902(19) 0.59245(18) 0.01284(17)
O12 O 0.59245(18) 0.48716(17) 0.00902(19)
O15 O 0.08956(19) 0.26667(19) 0.3476(2)
O16 O 0.3476(2) 0.08956(19) 0.26667(19)
O17 O 0.6524(2) 0.58956(19) 0.23333(19)
O18 O 0.73333(19) 0.8476(2) 0.41044(19)
O19 O 0.91044(19) 0.76667(19) 0.1524(2)
O20 O 0.0211(2) 0.2171(3) 0.3664(3)
O21 O 0.3664(3) 0.0211(2) 0.2171(3)
O22 O 0.6336(3) 0.5211(2) 0.2829(3)
O23 O 0.7829(3) 0.8664(3) 0.4789(2)
O24 O 0.9789(2) 0.7171(3) 0.1336(3)
N3 N 0.0034(2) 0.3739(2) 0.4770(2)
N4 N 0.4770(2) 0.0034(2) 0.3739(2)
N5 N 0.5230(2) 0.5034(2) 0.1261(2)
N6 N 0.6261(2) 0.9770(2) 0.4966(2)
N7 N 0.9966(2) 0.8739(2) 0.0230(2)
C20 C 0.1705(2) 0.1159(2) 0.2126(3)
C21 C 0.1159(2) 0.2126(3) 0.1705(2)
C22 C 0.8295(2) 0.6159(2) 0.2874(3)
C23 C 0.8841(2) 0.7126(3) 0.3295(2)
C24 C 0.7874(3) 0.6705(2) 0.3841(2)
H21 H 0.1660 0.0832 0.2300
H22 H 0.0832 0.2300 0.1660
H23 H 0.8340 0.5832 0.2700
H24 H 0.9168 0.7300 0.3340
H25 H 0.7700 0.6660 0.4168
H26 H 0.1515 0.1142 0.1805
H27 H 0.1142 0.1805 0.1515
H28 H 0.8485 0.6142 0.3195
H29 H 0.8858 0.6805 0.3485
H30 H 0.8195 0.6515 0.3858
C25 C 0.2256(2) 0.1220(2) 0.2004(2)
C26 C 0.1220(2) 0.2004(2) 0.2256(2)
C27 C 0.7744(2) 0.6220(2) 0.2996(2)
C28 C 0.8780(2) 0.7004(2) 0.2744(2)
C29 C 0.7996(2) 0.7256(2) 0.3780(2)
C30 C 0.0452(3) 0.2557(3) 0.3723(3)
C31 C 0.3723(3) 0.0452(3) 0.2557(3)
C32 C 0.6277(3) 0.5452(3) 0.2443(3)
C33 C 0.7443(3) 0.8723(3) 0.4548(3)
C34 C 0.9548(3) 0.7557(3) 0.1277(3)
C35 C 0.0413(3) 0.3828(3) 0.4435(3)
C36 C 0.4435(3) 0.0413(3) 0.3828(3)
C37 C 0.5565(3) 0.5413(3) 0.1172(3)
C38 C 0.6172(3) 0.9435(3) 0.4587(3)
C39 C 0.9587(3) 0.8828(3) 0.0565(3)
H31 H 0.0585 0.4141 0.4444
H32 H 0.4444 0.0585 0.4141
H33 H 0.5556 0.5585 0.0859
H34 H 0.5859 0.9444 0.4415
H35 H 0.9415 0.9141 0.0556
C40 C 0.2449(3) 0.1475(3) 0.1566(3)
C41 C 0.1475(3) 0.1566(3) 0.2449(3)
C42 C 0.7551(3) 0.6475(3) 0.3434(3)
C43 C 0.8525(3) 0.6566(3) 0.2551(3)
C44 C 0.8434(3) 0.7449(3) 0.3525(3)
C45 C 0.1025(2) 0.2350(3) 0.2626(3)
C46 C 0.2626(3) 0.1025(2) 0.2350(3)
C47 C 0.7374(3) 0.6025(2) 0.2650(3)
C48 C 0.7650(3) 0.7626(3) 0.3975(2)
C49 C 0.8975(2) 0.7350(3) 0.2374(3)
H36 H 0.0848 0.2639 0.2511
H37 H 0.2511 0.0848 0.2639
H38 H 0.7489 0.5848 0.2361
H39 H 0.7361 0.7511 0.4152
H40 H 0.9152 0.7639 0.2489
C50 C 0.1083(3) 0.2284(3) 0.3138(3)
C51 C 0.3138(3) 0.1083(3) 0.2284(3)
C52 C 0.6862(3) 0.6083(3) 0.2716(3)
C53 C 0.7716(3) 0.8138(3) 0.3917(3)
C54 C 0.8917(3) 0.7284(3) 0.1862(3)
C55 C 0.0554(3) 0.3466(3) 0.4079(3)
C56 C 0.4079(3) 0.0554(3) 0.3466(3)
C57 C 0.5921(3) 0.5554(3) 0.1534(3)
C58 C 0.6534(3) 0.9079(3) 0.4446(3)
C59 C 0.9446(3) 0.8466(3) 0.0921(3)
H41 H 0.0824 0.3532 0.3854
H42 H 0.3854 0.0824 0.3532
H43 H 0.6146 0.5824 0.1468
H44 H 0.6468 0.8854 0.4176
H45 H 0.9176 0.8532 0.1146
C62 C 0.5284(3) 0.4749(3) 0.1697(3)
C63 C 0.6697(3) 0.9716(3) 0.5251(3)
H48 H 0.5084 0.4455 0.1737
H49 H 0.6737 0.9916 0.5545
C65 C 0.1330(3) 0.1874(3) 0.3331(3)
C66 C 0.3331(3) 0.1330(3) 0.1874(3)
C67 C 0.6669(3) 0.6330(3) 0.3126(3)
C68 C 0.8126(3) 0.8331(3) 0.3670(3)
C69 C 0.8670(3) 0.6874(3) 0.1669(3)
C72 C 0.5617(3) 0.4876(3) 0.2070(3)
C73 C 0.7070(3) 0.9383(3) 0.5124(3)
H53 H 0.5628 0.4689 0.2375
H54 H 0.7375 0.9372 0.5311
C75 C 0.0295(3) 0.3007(3) 0.4054(3)
C76 C 0.4054(3) 0.0295(3) 0.3007(3)
C77 C 0.5946(3) 0.5295(3) 0.1993(3)
C78 C 0.6993(3) 0.9054(3) 0.4705(3)
C79 C 0.9705(3) 0.8007(3) 0.0946(3)
C80 C 0.1525(3) 0.1502(3) 0.2983(3)
C81 C 0.2983(3) 0.1525(3) 0.1502(3)
C82 C 0.7017(3) 0.6525(3) 0.3498(3)
C83 C 0.8498(3) 0.7983(3) 0.3475(3)
C84 C 0.8475(3) 0.6502(3) 0.2017(3)
H56 H 0.1689 0.1211 0.3111
H57 H 0.3111 0.1689 0.1211
H58 H 0.6889 0.6689 0.3789
H59 H 0.8789 0.8111 0.3311
H60 H 0.8311 0.6211 0.1889
O25 O 0.4580(2) 0.5983(2) 0.1567(2)
O26 O 0.4017(2) 0.6567(2) 0.0420(2)
N8 N 0.5059(3) 0.6484(4) 0.2106(5)
N12 N 0.6484(4) 0.2894(5) 0.0059(3)
C85 C 0.5389(6) 0.6927(6) 0.2073(6)
C89 C 0.6927(6) 0.2927(6) 0.0389(6)
H61 H 0.5746 0.6827 0.2114
H65 H 0.6827 0.2886 0.0746
H66 H 0.5302 0.7175 0.2338
H70 H 0.7175 0.2662 0.0302
C90 C 0.5305(6) 0.7135(7) 0.1583(6)
C94 C 0.7135(7) 0.3417(6) 0.0305(6)
H71 H 0.5076 0.7429 0.1608
H75 H 0.7429 0.3392 0.0076
H76 H 0.5630 0.7253 0.1439
H80 H 0.7253 0.3561 0.0630
C95 C 0.4870(4) 0.6356(5) 0.1638(5)
C96 C 0.3644(5) 0.6638(5) 0.0130(4)
C100 C 0.5067(4) 0.6726(4) 0.1229(6)
C104 C 0.6726(4) 0.3771(6) 0.0067(4)
H81 H 0.5322 0.6567 0.1007
H85 H 0.6567 0.3993 0.0322
H86 H 0.4790 0.6865 0.1021
H87 H 0.3135 0.6021 0.0210
C105 C 0.4898(5) 0.6173(6) 0.2554(4)
C106 C 0.3827(6) 0.7554(4) 0.0102(5)
H91 H 0.4723 0.5870 0.2437
H92 H 0.4130 0.7437 0.0277
H96 H 0.5196 0.6076 0.2750
H100 H 0.6076 0.2250 0.0196
H101 H 0.4671 0.6372 0.2767
H102 H 0.3628 0.7767 0.0329
O30 O 0.1373(2) 0.1822(3) 0.3865(2)
O31 O 0.3865(2) 0.1373(2) 0.1822(3)
O32 O 0.6135(2) 0.6373(2) 0.3178(3)
O33 O 0.8178(3) 0.8865(2) 0.3627(2)
O34 O 0.8627(2) 0.6822(3) 0.1135(2)
C110 C 0.1630(6) 0.1378(5) 0.4064(4)
C111 C 0.4064(4) 0.1630(6) 0.1378(5)
C112 C 0.5936(4) 0.6630(6) 0.3622(5)
C113 C 0.8622(5) 0.9064(4) 0.3370(6)
C114 C 0.8370(6) 0.6378(5) 0.0936(4)
H106 H 0.1428 0.1077 0.3993
H107 H 0.3993 0.1428 0.1077
H108 H 0.6007 0.6428 0.3923
H109 H 0.8923 0.8993 0.3572
H110 H 0.8572 0.6077 0.1007
H111 H 0.1673 0.1414 0.4429
H112 H 0.4429 0.1673 0.1414
H113 H 0.5571 0.6673 0.3586
H114 H 0.8586 0.9429 0.3327
H115 H 0.8327 0.6414 0.0571
H116 H 0.1961 0.1345 0.3903
H117 H 0.3903 0.1961 0.1345
H118 H 0.6097 0.6961 0.3655
H119 H 0.8655 0.8903 0.3039
H120 H 0.8039 0.6345 0.1097
Ag1_2 Ag 0.5000 0.5000 1.0000
O1 O 0.40755(18) 0.51284(17) 0.99098(19)
C9 C 0.3303(3) 0.4716(3) 0.9749(3)
H6 H 0.3263 0.4916 0.9455
C11 C 0.2930(3) 0.4383(3) 0.9876(3)
H7 H 0.2625 0.4372 0.9689
Ag6_8 Ag 1.0000 1.0000 1.0000
O13 O 0.51284(17) 0.50902(19) 0.90755(18)
O14 O 0.49098(19) 0.40755(18) 0.98716(17)
Ag7 Ag 0.57280(2) 0.42720(2) 0.92720(2)
O27 O 0.6567(2) 0.4580(2) 0.9017(2)
O28 O 0.5420(2) 0.4017(2) 0.8433(2)
O29 O 0.5983(2) 0.3433(2) 0.9580(2)
N9 N 0.3516(4) 0.7106(5) 0.9941(3)
N10 N 0.7106(5) 0.5059(3) 0.8516(4)
N11 N 0.4941(3) 0.3516(4) 0.7894(5)
C86 C 0.3073(6) 0.7073(6) 0.9611(6)
C87 C 0.7073(6) 0.5389(6) 0.8073(6)
C88 C 0.4611(6) 0.3073(6) 0.7927(6)
H62 H 0.3173 0.7114 0.9254
H63 H 0.7114 0.5746 0.8173
H64 H 0.4254 0.3173 0.7886
H67 H 0.2825 0.7338 0.9698
H68 H 0.7338 0.5302 0.7825
H69 H 0.4698 0.2825 0.7662
C91 C 0.2865(7) 0.6583(6) 0.9695(6)
C92 C 0.6583(6) 0.5305(6) 0.7865(7)
C93 C 0.4695(6) 0.2865(7) 0.8417(6)
H72 H 0.2571 0.6608 0.9924
H73 H 0.6608 0.5076 0.7571
H74 H 0.4924 0.2571 0.8392
H77 H 0.2747 0.6439 0.9370
H78 H 0.6439 0.5630 0.7747
H79 H 0.4370 0.2747 0.8561
C97 C 0.6638(5) 0.4870(4) 0.8644(5)
C98 C 0.5130(4) 0.3644(5) 0.8362(5)
C99 C 0.6356(5) 0.3362(5) 0.9870(4)
C101 C 0.3274(4) 0.6229(6) 0.9933(4)
C102 C 0.6229(6) 0.5067(4) 0.8274(4)
C103 C 0.4933(4) 0.3274(4) 0.8771(6)
H82 H 0.3433 0.6007 0.9678
H83 H 0.6007 0.5322 0.8433
H84 H 0.4678 0.3433 0.8993
H88 H 0.6021 0.4790 0.8135
H89 H 0.5210 0.3135 0.8979
H90 H 0.6865 0.3979 0.9790
C107 C 0.7554(4) 0.4898(5) 0.8827(6)
C108 C 0.5102(5) 0.3827(6) 0.7446(4)
C109 C 0.6173(6) 0.2446(4) 0.9898(5)
H93 H 0.7437 0.4723 0.9130
H94 H 0.5277 0.4130 0.7563
H95 H 0.5870 0.2563 0.9723
H97 H 0.3924 0.7750 0.9804
H98 H 0.7750 0.5196 0.8924
H99 H 0.4804 0.3924 0.7250
H103 H 0.7767 0.4671 0.8628
H104 H 0.5329 0.3628 0.7233
H105 H 0.6372 0.2233 0.9671
O7 O 0.51284(17) 0.99098(19) 0.40755(18)
C61 C 0.4716(3) 0.9749(3) 0.3303(3)
H47 H 0.4916 0.9455 0.3263
C71 C 0.4383(3) 0.9876(3) 0.2930(3)
H52 H 0.4372 0.9689 0.2625
Ag3_2 Ag 1.0000 0.5000 0.5000
O6 O 0.99098(19) 0.40755(18) 0.51284(17)
C60 C 0.9749(3) 0.3303(3) 0.4716(3)
H46 H 0.9455 0.3263 0.4916
C70 C 0.9876(3) 0.2930(3) 0.4383(3)
H51 H 0.9689 0.2625 0.4372
C64_2 C 0.0284(3) 0.0251(3) 0.8303(3)
H50_2 H 0.0084 0.0545 0.8263
C74_2 C 0.0617(3) 0.0124(3) 0.7930(3)
H55_2 H 0.0628 0.0311 0.7625
Ag2_2 Ag 0.07280(2) 0.42720(2) 0.57280(2)
O4_2 O 0.0983(2) 0.3433(2) 0.5420(2)
N2_2 N 0.1484(4) 0.2894(5) 0.4941(3)
C14_2 C 0.1927(6) 0.2927(6) 0.4611(6)
H9_2 H 0.1827 0.2886 0.4254
H10_2 H 0.2175 0.2662 0.4698
C15_2 C 0.2135(7) 0.3417(6) 0.4695(6)
H11_2 H 0.2429 0.3392 0.4924
H12_2 H 0.2253 0.3561 0.4370
C16_2 C 0.1356(5) 0.3362(5) 0.5130(4)
C17_2 C 0.1726(4) 0.3771(6) 0.4933(4)
H13_2 H 0.1567 0.3993 0.4678
H14_2 H 0.1865 0.3979 0.5210
C18_2 C 0.1173(6) 0.2446(4) 0.5102(5)
H15_2 H 0.0870 0.2563 0.5277
H16_2 H 0.1076 0.2250 0.4804
H17_2 H 0.1372 0.2233 0.5329
O8_2 O 0.09245(18) 0.48716(17) 0.49098(19)
O11_2 O 0.01284(17) 0.50902(19) 0.59245(18)
O12_2 O 0.00902(19) 0.59245(18) 0.48716(17)
O17_2 O 0.23333(19) 0.6524(2) 0.58956(19)
O18_2 O 0.41044(19) 0.73333(19) 0.8476(2)
O19_2 O 0.1524(2) 0.91044(19) 0.76667(19)
O22_2 O 0.2829(3) 0.6336(3) 0.5211(2)
O23_2 O 0.4789(2) 0.7829(3) 0.8664(3)
O24_2 O 0.1336(3) 0.9789(2) 0.7171(3)
N5_2 N 0.1261(2) 0.5230(2) 0.5034(2)
N6_2 N 0.4966(2) 0.6261(2) 0.9770(2)
N7_2 N 0.0230(2) 0.9966(2) 0.8739(2)
C22_2 C 0.2874(3) 0.8295(2) 0.6159(2)
C23_2 C 0.3295(2) 0.8841(2) 0.7126(3)
C24_2 C 0.3841(2) 0.7874(3) 0.6705(2)
H23_2 H 0.2700 0.8340 0.5832
H24_2 H 0.3340 0.9168 0.7300
H25_2 H 0.4168 0.7700 0.6660
H28_2 H 0.3195 0.8485 0.6142
H29_2 H 0.3485 0.8858 0.6805
H30_2 H 0.3858 0.8195 0.6515
C27_2 C 0.2996(2) 0.7744(2) 0.6220(2)
C28_2 C 0.2744(2) 0.8780(2) 0.7004(2)
C29_2 C 0.3780(2) 0.7996(2) 0.7256(2)
C32_2 C 0.2443(3) 0.6277(3) 0.5452(3)
C33_2 C 0.4548(3) 0.7443(3) 0.8723(3)
C34_2 C 0.1277(3) 0.9548(3) 0.7557(3)
C37_2 C 0.1172(3) 0.5565(3) 0.5413(3)
C38_2 C 0.4587(3) 0.6172(3) 0.9435(3)
C39_2 C 0.0565(3) 0.9587(3) 0.8828(3)
H33_2 H 0.0859 0.5556 0.5585
H34_2 H 0.4415 0.5859 0.9444
H35_2 H 0.0556 0.9415 0.9141
C42_2 C 0.3434(3) 0.7551(3) 0.6475(3)
C43_2 C 0.2551(3) 0.8525(3) 0.6566(3)
C44_2 C 0.3525(3) 0.8434(3) 0.7449(3)
C47_2 C 0.2650(3) 0.7374(3) 0.6025(2)
C48_2 C 0.3975(2) 0.7650(3) 0.7626(3)
C49_2 C 0.2374(3) 0.8975(2) 0.7350(3)
H38_2 H 0.2361 0.7489 0.5848
H39_2 H 0.4152 0.7361 0.7511
H40_2 H 0.2489 0.9152 0.7639
C52_2 C 0.2716(3) 0.6862(3) 0.6083(3)
C53_2 C 0.3917(3) 0.7716(3) 0.8138(3)
C54_2 C 0.1862(3) 0.8917(3) 0.7284(3)
C57_2 C 0.1534(3) 0.5921(3) 0.5554(3)
C58_2 C 0.4446(3) 0.6534(3) 0.9079(3)
C59_2 C 0.0921(3) 0.9446(3) 0.8466(3)
H43_2 H 0.1468 0.6146 0.5824
H44_2 H 0.4176 0.6468 0.8854
H45_2 H 0.1146 0.9176 0.8532
C62_2 C 0.1697(3) 0.5284(3) 0.4749(3)
C63_2 C 0.5251(3) 0.6697(3) 0.9716(3)
H48_2 H 0.1737 0.5084 0.4455
H49_2 H 0.5545 0.6737 0.9916
C67_2 C 0.3126(3) 0.6669(3) 0.6330(3)
C68_2 C 0.3670(3) 0.8126(3) 0.8331(3)
C69_2 C 0.1669(3) 0.8670(3) 0.6874(3)
C72_2 C 0.2070(3) 0.5617(3) 0.4876(3)
C73_2 C 0.5124(3) 0.7070(3) 0.9383(3)
H53_2 H 0.2375 0.5628 0.4689
H54_2 H 0.5311 0.7375 0.9372
C77_2 C 0.1993(3) 0.5946(3) 0.5295(3)
C78_2 C 0.4705(3) 0.6993(3) 0.9054(3)
C79_2 C 0.0946(3) 0.9705(3) 0.8007(3)
C82_2 C 0.3498(3) 0.7017(3) 0.6525(3)
C83_2 C 0.3475(3) 0.8498(3) 0.7983(3)
C84_2 C 0.2017(3) 0.8475(3) 0.6502(3)
H58_2 H 0.3789 0.6889 0.6689
H59_2 H 0.3311 0.8789 0.8111
H60_2 H 0.1889 0.8311 0.6211
O25_2 O 0.1567(2) 0.4580(2) 0.5983(2)
O26_2 O 0.0420(2) 0.4017(2) 0.6567(2)
N8_2 N 0.2106(5) 0.5059(3) 0.6484(4)
N12_2 N 0.0059(3) 0.6484(4) 0.2894(5)
C85_2 C 0.2073(6) 0.5389(6) 0.6927(6)
C89_2 C 0.0389(6) 0.6927(6) 0.2927(6)
H61_2 H 0.2114 0.5746 0.6827
H65_2 H 0.0746 0.6827 0.2886
H66_2 H 0.2338 0.5302 0.7175
H70_2 H 0.0302 0.7175 0.2662
C90_2 C 0.1583(6) 0.5305(6) 0.7135(7)
C94_2 C 0.0305(6) 0.7135(7) 0.3417(6)
H71_2 H 0.1608 0.5076 0.7429
H75_2 H 0.0076 0.7429 0.3392
H76_2 H 0.1439 0.5630 0.7253
H80_2 H 0.0630 0.7253 0.3561
C95_2 C 0.1638(5) 0.4870(4) 0.6356(5)
C96_2 C 0.0130(4) 0.3644(5) 0.6638(5)
C100_2 C 0.1229(6) 0.5067(4) 0.6726(4)
C104_2 C 0.0067(4) 0.6726(4) 0.3771(6)
H81_2 H 0.1007 0.5322 0.6567
H85_2 H 0.0322 0.6567 0.3993
H86_2 H 0.1021 0.4790 0.6865
H87_2 H 0.0210 0.3135 0.6021
C105_2 C 0.2554(4) 0.4898(5) 0.6173(6)
C106_2 C 0.0102(5) 0.3827(6) 0.7554(4)
H91_2 H 0.2437 0.4723 0.5870
H92_2 H 0.0277 0.4130 0.7437
H96_2 H 0.2750 0.5196 0.6076
H100_2 H 0.0196 0.6076 0.2250
H101_2 H 0.2767 0.4671 0.6372
H102_2 H 0.0329 0.3628 0.7767
O32_2 O 0.3178(3) 0.6135(2) 0.6373(2)
O33_2 O 0.3627(2) 0.8178(3) 0.8865(2)
O34_2 O 0.1135(2) 0.8627(2) 0.6822(3)
C112_2 C 0.3622(5) 0.5936(4) 0.6630(6)
C113_2 C 0.3370(6) 0.8622(5) 0.9064(4)
C114_2 C 0.0936(4) 0.8370(6) 0.6378(5)
H108_2 H 0.3923 0.6007 0.6428
H109_2 H 0.3572 0.8923 0.8993
H110_2 H 0.1007 0.8572 0.6077
H113_2 H 0.3586 0.5571 0.6673
H114_2 H 0.3327 0.8586 0.9429
H115_2 H 0.0571 0.8327 0.6414
H118_2 H 0.3655 0.6097 0.6961
H119_2 H 0.3039 0.8655 0.8903
H120_2 H 0.1097 0.8039 0.6345
O10_2 O 0.98716(17) 0.00902(19) 0.90755(18)
O13_2 O 0.90755(18) 0.51284(17) 0.50902(19)
O14_2 O 0.98716(17) 0.49098(19) 0.40755(18)
Ag7_2 Ag 0.92720(2) 0.57280(2) 0.42720(2)
O27_2 O 0.9017(2) 0.6567(2) 0.4580(2)
O28_2 O 0.8433(2) 0.5420(2) 0.4017(2)
O29_2 O 0.9580(2) 0.5983(2) 0.3433(2)
N9_2 N 0.9941(3) 0.3516(4) 0.7106(5)
N10_2 N 0.8516(4) 0.7106(5) 0.5059(3)
N11_2 N 0.7894(5) 0.4941(3) 0.3516(4)
C86_2 C 0.9611(6) 0.3073(6) 0.7073(6)
C87_2 C 0.8073(6) 0.7073(6) 0.5389(6)
C88_2 C 0.7927(6) 0.4611(6) 0.3073(6)
H62_2 H 0.9254 0.3173 0.7114
H63_2 H 0.8173 0.7114 0.5746
H64_2 H 0.7886 0.4254 0.3173
H67_2 H 0.9698 0.2825 0.7338
H68_2 H 0.7825 0.7338 0.5302
H69_2 H 0.7662 0.4698 0.2825
C91_2 C 0.9695(6) 0.2865(7) 0.6583(6)
C92_2 C 0.7865(7) 0.6583(6) 0.5305(6)
C93_2 C 0.8417(6) 0.4695(6) 0.2865(7)
H72_2 H 0.9924 0.2571 0.6608
H73_2 H 0.7571 0.6608 0.5076
H74_2 H 0.8392 0.4924 0.2571
H77_2 H 0.9370 0.2747 0.6439
H78_2 H 0.7747 0.6439 0.5630
H79_2 H 0.8561 0.4370 0.2747
C97_2 C 0.8644(5) 0.6638(5) 0.4870(4)
C98_2 C 0.8362(5) 0.5130(4) 0.3644(5)
C99_2 C 0.9870(4) 0.6356(5) 0.3362(5)
C101_2 C 0.9933(4) 0.3274(4) 0.6229(6)
C102_2 C 0.8274(4) 0.6229(6) 0.5067(4)
C103_2 C 0.8771(6) 0.4933(4) 0.3274(4)
H82_2 H 0.9678 0.3433 0.6007
H83_2 H 0.8433 0.6007 0.5322
H84_2 H 0.8993 0.4678 0.3433
H88_2 H 0.8135 0.6021 0.4790
H89_2 H 0.8979 0.5210 0.3135
H90_2 H 0.9790 0.6865 0.3979
C107_2 C 0.8827(6) 0.7554(4) 0.4898(5)
C108_2 C 0.7446(4) 0.5102(5) 0.3827(6)
C109_2 C 0.9898(5) 0.6173(6) 0.2446(4)
H93_2 H 0.9130 0.7437 0.4723
H94_2 H 0.7563 0.5277 0.4130
H95_2 H 0.9723 0.5870 0.2563
H97_2 H 0.9804 0.3924 0.7750
H98_2 H 0.8924 0.7750 0.5196
H99_2 H 0.7250 0.4804 0.3924
H103_2 H 0.8628 0.7767 0.4671
H104_2 H 0.7233 0.5329 0.3628
H105_2 H 0.9671 0.6372 0.2233
C64_3 C 0.8303(3) 0.0284(3) 0.0251(3)
H50_3 H 0.8263 0.0084 0.0545
C74_3 C 0.7930(3) 0.0617(3) 0.0124(3)
H55_3 H 0.7625 0.0628 0.0311
Ag2_3 Ag 0.57280(2) 0.07280(2) 0.42720(2)
O4_3 O 0.5420(2) 0.0983(2) 0.3433(2)
N2_3 N 0.4941(3) 0.1484(4) 0.2894(5)
C14_3 C 0.4611(6) 0.1927(6) 0.2927(6)
H9_3 H 0.4254 0.1827 0.2886
H10_3 H 0.4698 0.2175 0.2662
C15_3 C 0.4695(6) 0.2135(7) 0.3417(6)
H11_3 H 0.4924 0.2429 0.3392
H12_3 H 0.4370 0.2253 0.3561
C16_3 C 0.5130(4) 0.1356(5) 0.3362(5)
C17_3 C 0.4933(4) 0.1726(4) 0.3771(6)
H13_3 H 0.4678 0.1567 0.3993
H14_3 H 0.5210 0.1865 0.3979
C18_3 C 0.5102(5) 0.1173(6) 0.2446(4)
H15_3 H 0.5277 0.0870 0.2563
H16_3 H 0.4804 0.1076 0.2250
H17_3 H 0.5329 0.1372 0.2233
O8_3 O 0.49098(19) 0.09245(18) 0.48716(17)
O12_3 O 0.48716(17) 0.00902(19) 0.59245(18)
O17_3 O 0.58956(19) 0.23333(19) 0.6524(2)
O18_3 O 0.8476(2) 0.41044(19) 0.73333(19)
O19_3 O 0.76667(19) 0.1524(2) 0.91044(19)
O22_3 O 0.5211(2) 0.2829(3) 0.6336(3)
O23_3 O 0.8664(3) 0.4789(2) 0.7829(3)
O24_3 O 0.7171(3) 0.1336(3) 0.9789(2)
N5_3 N 0.5034(2) 0.1261(2) 0.5230(2)
N6_3 N 0.9770(2) 0.4966(2) 0.6261(2)
N7_3 N 0.8739(2) 0.0230(2) 0.9966(2)
C22_3 C 0.6159(2) 0.2874(3) 0.8295(2)
C23_3 C 0.7126(3) 0.3295(2) 0.8841(2)
C24_3 C 0.6705(2) 0.3841(2) 0.7874(3)
H23_3 H 0.5832 0.2700 0.8340
H24_3 H 0.7300 0.3340 0.9168
H25_3 H 0.6660 0.4168 0.7700
H28_3 H 0.6142 0.3195 0.8485
H29_3 H 0.6805 0.3485 0.8858
H30_3 H 0.6515 0.3858 0.8195
C27_3 C 0.6220(2) 0.2996(2) 0.7744(2)
C28_3 C 0.7004(2) 0.2744(2) 0.8780(2)
C29_3 C 0.7256(2) 0.3780(2) 0.7996(2)
C32_3 C 0.5452(3) 0.2443(3) 0.6277(3)
C33_3 C 0.8723(3) 0.4548(3) 0.7443(3)
C34_3 C 0.7557(3) 0.1277(3) 0.9548(3)
C37_3 C 0.5413(3) 0.1172(3) 0.5565(3)
C38_3 C 0.9435(3) 0.4587(3) 0.6172(3)
C39_3 C 0.8828(3) 0.0565(3) 0.9587(3)
H33_3 H 0.5585 0.0859 0.5556
H34_3 H 0.9444 0.4415 0.5859
H35_3 H 0.9141 0.0556 0.9415
C42_3 C 0.6475(3) 0.3434(3) 0.7551(3)
C43_3 C 0.6566(3) 0.2551(3) 0.8525(3)
C44_3 C 0.7449(3) 0.3525(3) 0.8434(3)
C47_3 C 0.6025(2) 0.2650(3) 0.7374(3)
C48_3 C 0.7626(3) 0.3975(2) 0.7650(3)
C49_3 C 0.7350(3) 0.2374(3) 0.8975(2)
H38_3 H 0.5848 0.2361 0.7489
H39_3 H 0.7511 0.4152 0.7361
H40_3 H 0.7639 0.2489 0.9152
C52_3 C 0.6083(3) 0.2716(3) 0.6862(3)
C53_3 C 0.8138(3) 0.3917(3) 0.7716(3)
C54_3 C 0.7284(3) 0.1862(3) 0.8917(3)
C57_3 C 0.5554(3) 0.1534(3) 0.5921(3)
C58_3 C 0.9079(3) 0.4446(3) 0.6534(3)
C59_3 C 0.8466(3) 0.0921(3) 0.9446(3)
H43_3 H 0.5824 0.1468 0.6146
H44_3 H 0.8854 0.4176 0.6468
H45_3 H 0.8532 0.1146 0.9176
C62_3 C 0.4749(3) 0.1697(3) 0.5284(3)
C63_3 C 0.9716(3) 0.5251(3) 0.6697(3)
H48_3 H 0.4455 0.1737 0.5084
H49_3 H 0.9916 0.5545 0.6737
C67_3 C 0.6330(3) 0.3126(3) 0.6669(3)
C68_3 C 0.8331(3) 0.3670(3) 0.8126(3)
C69_3 C 0.6874(3) 0.1669(3) 0.8670(3)
C72_3 C 0.4876(3) 0.2070(3) 0.5617(3)
C73_3 C 0.9383(3) 0.5124(3) 0.7070(3)
H53_3 H 0.4689 0.2375 0.5628
H54_3 H 0.9372 0.5311 0.7375
C77_3 C 0.5295(3) 0.1993(3) 0.5946(3)
C78_3 C 0.9054(3) 0.4705(3) 0.6993(3)
C79_3 C 0.8007(3) 0.0946(3) 0.9705(3)
C82_3 C 0.6525(3) 0.3498(3) 0.7017(3)
C83_3 C 0.7983(3) 0.3475(3) 0.8498(3)
C84_3 C 0.6502(3) 0.2017(3) 0.8475(3)
H58_3 H 0.6689 0.3789 0.6889
H59_3 H 0.8111 0.3311 0.8789
H60_3 H 0.6211 0.1889 0.8311
O25_3 O 0.5983(2) 0.1567(2) 0.4580(2)
O26_3 O 0.6567(2) 0.0420(2) 0.4017(2)
N8_3 N 0.6484(4) 0.2106(5) 0.5059(3)
N12_3 N 0.2894(5) 0.0059(3) 0.6484(4)
C85_3 C 0.6927(6) 0.2073(6) 0.5389(6)
C89_3 C 0.2927(6) 0.0389(6) 0.6927(6)
H61_3 H 0.6827 0.2114 0.5746
H65_3 H 0.2886 0.0746 0.6827
H66_3 H 0.7175 0.2338 0.5302
H70_3 H 0.2662 0.0302 0.7175
C90_3 C 0.7135(7) 0.1583(6) 0.5305(6)
C94_3 C 0.3417(6) 0.0305(6) 0.7135(7)
H71_3 H 0.7429 0.1608 0.5076
H75_3 H 0.3392 0.0076 0.7429
H76_3 H 0.7253 0.1439 0.5630
H80_3 H 0.3561 0.0630 0.7253
C95_3 C 0.6356(5) 0.1638(5) 0.4870(4)
C96_3 C 0.6638(5) 0.0130(4) 0.3644(5)
C100_3 C 0.6726(4) 0.1229(6) 0.5067(4)
C104_3 C 0.3771(6) 0.0067(4) 0.6726(4)
H81_3 H 0.6567 0.1007 0.5322
H85_3 H 0.3993 0.0322 0.6567
H86_3 H 0.6865 0.1021 0.4790
H87_3 H 0.6021 0.0210 0.3135
C105_3 C 0.6173(6) 0.2554(4) 0.4898(5)
C106_3 C 0.7554(4) 0.0102(5) 0.3827(6)
H91_3 H 0.5870 0.2437 0.4723
H92_3 H 0.7437 0.0277 0.4130
H96_3 H 0.6076 0.2750 0.5196
H100_3 H 0.2250 0.0196 0.6076
H101_3 H 0.6372 0.2767 0.4671
H102_3 H 0.7767 0.0329 0.3628
O32_3 O 0.6373(2) 0.3178(3) 0.6135(2)
O33_3 O 0.8865(2) 0.3627(2) 0.8178(3)
O34_3 O 0.6822(3) 0.1135(2) 0.8627(2)
C112_3 C 0.6630(6) 0.3622(5) 0.5936(4)
C113_3 C 0.9064(4) 0.3370(6) 0.8622(5)
C114_3 C 0.6378(5) 0.0936(4) 0.8370(6)
H108_3 H 0.6428 0.3923 0.6007
H109_3 H 0.8993 0.3572 0.8923
H110_3 H 0.6077 0.1007 0.8572
H113_3 H 0.6673 0.3586 0.5571
H114_3 H 0.9429 0.3327 0.8586
H115_3 H 0.6414 0.0571 0.8327
H118_3 H 0.6961 0.3655 0.6097
H119_3 H 0.8903 0.3039 0.8655
H120_3 H 0.6345 0.1097 0.8039
O10_3 O 0.90755(18) 0.98716(17) 0.00902(19)
O13_3 O 0.50902(19) 0.90755(18) 0.51284(17)
O14_3 O 0.40755(18) 0.98716(17) 0.49098(19)
Ag7_3 Ag 0.42720(2) 0.92720(2) 0.57280(2)
O27_3 O 0.4580(2) 0.9017(2) 0.6567(2)
O28_3 O 0.4017(2) 0.8433(2) 0.5420(2)
O29_3 O 0.3433(2) 0.9580(2) 0.5983(2)
N9_3 N 0.7106(5) 0.9941(3) 0.3516(4)
N10_3 N 0.5059(3) 0.8516(4) 0.7106(5)
N11_3 N 0.3516(4) 0.7894(5) 0.4941(3)
C86_3 C 0.7073(6) 0.9611(6) 0.3073(6)
C87_3 C 0.5389(6) 0.8073(6) 0.7073(6)
C88_3 C 0.3073(6) 0.7927(6) 0.4611(6)
H62_3 H 0.7114 0.9254 0.3173
H63_3 H 0.5746 0.8173 0.7114
H64_3 H 0.3173 0.7886 0.4254
H67_3 H 0.7338 0.9698 0.2825
H68_3 H 0.5302 0.7825 0.7338
H69_3 H 0.2825 0.7662 0.4698
C91_3 C 0.6583(6) 0.9695(6) 0.2865(7)
C92_3 C 0.5305(6) 0.7865(7) 0.6583(6)
C93_3 C 0.2865(7) 0.8417(6) 0.4695(6)
H72_3 H 0.6608 0.9924 0.2571
H73_3 H 0.5076 0.7571 0.6608
H74_3 H 0.2571 0.8392 0.4924
H77_3 H 0.6439 0.9370 0.2747
H78_3 H 0.5630 0.7747 0.6439
H79_3 H 0.2747 0.8561 0.4370
C97_3 C 0.4870(4) 0.8644(5) 0.6638(5)
C98_3 C 0.3644(5) 0.8362(5) 0.5130(4)
C99_3 C 0.3362(5) 0.9870(4) 0.6356(5)
C101_3 C 0.6229(6) 0.9933(4) 0.3274(4)
C102_3 C 0.5067(4) 0.8274(4) 0.6229(6)
C103_3 C 0.3274(4) 0.8771(6) 0.4933(4)
H82_3 H 0.6007 0.9678 0.3433
H83_3 H 0.5322 0.8433 0.6007
H84_3 H 0.3433 0.8993 0.4678
H88_3 H 0.4790 0.8135 0.6021
H89_3 H 0.3135 0.8979 0.5210
H90_3 H 0.3979 0.9790 0.6865
C107_3 C 0.4898(5) 0.8827(6) 0.7554(4)
C108_3 C 0.3827(6) 0.7446(4) 0.5102(5)
C109_3 C 0.2446(4) 0.9898(5) 0.6173(6)
H93_3 H 0.4723 0.9130 0.7437
H94_3 H 0.4130 0.7563 0.5277
H95_3 H 0.2563 0.9723 0.5870
H97_3 H 0.7750 0.9804 0.3924
H98_3 H 0.5196 0.8924 0.7750
H99_3 H 0.3924 0.7250 0.4804
H103_3 H 0.4671 0.8628 0.7767
H104_3 H 0.3628 0.7233 0.5329
H105_3 H 0.2233 0.9671 0.6372
Ag7_4 Ag 0.07280(2) 0.07280(2) 0.07280(2)
O27_4 O 0.0420(2) 0.0983(2) 0.1567(2)
O28_4 O 0.0983(2) 0.1567(2) 0.0420(2)
O29_4 O 0.1567(2) 0.0420(2) 0.0983(2)
C97_4 C 0.0130(4) 0.1356(5) 0.1638(5)
C98_4 C 0.1356(5) 0.1638(5) 0.0130(4)
C99_4 C 0.1638(5) 0.0130(4) 0.1356(5)
H88_4 H 0.0210 0.1865 0.1021
H89_4 H 0.1865 0.1021 0.0210
H90_4 H 0.1021 0.0210 0.1865
C107_4 C 0.0102(5) 0.1173(6) 0.2554(4)
C108_4 C 0.1173(6) 0.2554(4) 0.0102(5)
C109_4 C 0.2554(4) 0.0102(5) 0.1173(6)
H93_4 H 0.0277 0.0870 0.2437
H94_4 H 0.0870 0.2437 0.0277
H95_4 H 0.2437 0.0277 0.0870
H103_4 H 0.0329 0.1372 0.2767
H104_4 H 0.1372 0.2767 0.0329
H105_4 H 0.2767 0.0329 0.1372
O14_4 O 0.09245(18) 0.01284(17) 0.99098(19)
N11_4 N 0.1484(4) 0.2106(5) 0.9941(3)
C88_4 C 0.1927(6) 0.2073(6) 0.9611(6)
H64_4 H 0.1827 0.2114 0.9254
H69_4 H 0.2175 0.2338 0.9698
C93_4 C 0.2135(7) 0.1583(6) 0.9695(6)
H74_4 H 0.2429 0.1608 0.9924
H79_4 H 0.2253 0.1439 0.9370
C103_4 C 0.1726(4) 0.1229(6) 0.9933(4)
H84_4 H 0.1567 0.1007 0.9678
H99_4 H 0.1076 0.2750 0.9804
O12_4 O 0.01284(17) 0.99098(19) 0.09245(18)
N12_4 N 0.2106(5) 0.9941(3) 0.1484(4)
C89_4 C 0.2073(6) 0.9611(6) 0.1927(6)
H65_4 H 0.2114 0.9254 0.1827
H70_4 H 0.2338 0.9698 0.2175
C94_4 C 0.1583(6) 0.9695(6) 0.2135(7)
H75_4 H 0.1608 0.9924 0.2429
H80_4 H 0.1439 0.9370 0.2253
C104_4 C 0.1229(6) 0.9933(4) 0.1726(4)
H85_4 H 0.1007 0.9678 0.1567
H100_4 H 0.2750 0.9804 0.1076
N2_4 N 0.0059(3) 0.8516(4) 0.7894(5)
C14_4 C 0.0389(6) 0.8073(6) 0.7927(6)
H9_4 H 0.0746 0.8173 0.7886
H10_4 H 0.0302 0.7825 0.7662
C15_4 C 0.0305(6) 0.7865(7) 0.8417(6)
H11_4 H 0.0076 0.7571 0.8392
H12_4 H 0.0630 0.7747 0.8561
C17_4 C 0.0067(4) 0.8274(4) 0.8771(6)
H13_4 H 0.0322 0.8433 0.8993
H16_4 H 0.0196 0.8924 0.7250
O13_4 O 0.99098(19) 0.09245(18) 0.01284(17)
N10_4 N 0.9941(3) 0.1484(4) 0.2106(5)
C87_4 C 0.9611(6) 0.1927(6) 0.2073(6)
H63_4 H 0.9254 0.1827 0.2114
H68_4 H 0.9698 0.2175 0.2338
C92_4 C 0.9695(6) 0.2135(7) 0.1583(6)
H73_4 H 0.9924 0.2429 0.1608
H78_4 H 0.9370 0.2253 0.1439
C102_4 C 0.9933(4) 0.1726(4) 0.1229(6)
H83_4 H 0.9678 0.1567 0.1007
H98_4 H 0.9804 0.1076 0.2750
N9_4 N 0.7894(5) 0.0059(3) 0.8516(4)
C86_4 C 0.7927(6) 0.0389(6) 0.8073(6)
H62_4 H 0.7886 0.0746 0.8173
H67_4 H 0.7662 0.0302 0.7825
C91_4 C 0.8417(6) 0.0305(6) 0.7865(7)
H72_4 H 0.8392 0.0076 0.7571
H77_4 H 0.8561 0.0630 0.7747
C101_4 C 0.8771(6) 0.0067(4) 0.8274(4)
H82_4 H 0.8993 0.0322 0.8433
H97_4 H 0.7250 0.0196 0.8924
N8_4 N 0.8516(4) 0.7894(5) 0.0059(3)
C85_4 C 0.8073(6) 0.7927(6) 0.0389(6)
H61_4 H 0.8173 0.7886 0.0746
H66_4 H 0.7825 0.7662 0.0302
C90_4 C 0.7865(7) 0.8417(6) 0.0305(6)
H71_4 H 0.7571 0.8392 0.0076
H76_4 H 0.7747 0.8561 0.0630
C100_4 C 0.8274(4) 0.8771(6) 0.0067(4)
H81_4 H 0.8433 0.8993 0.0322
H96_4 H 0.8924 0.7250 0.0196
Ag2_4 Ag 0.92720(2) 0.92720(2) 0.92720(2)
O4_4 O 0.9580(2) 0.9017(2) 0.8433(2)
C16_4 C 0.9870(4) 0.8644(5) 0.8362(5)
H14_4 H 0.9790 0.8135 0.8979
C18_4 C 0.9898(5) 0.8827(6) 0.7446(4)
H15_4 H 0.9723 0.9130 0.7563
H17_4 H 0.9671 0.8628 0.7233
O25_4 O 0.9017(2) 0.8433(2) 0.9580(2)
O26_4 O 0.8433(2) 0.9580(2) 0.9017(2)
C95_4 C 0.8644(5) 0.8362(5) 0.9870(4)
C96_4 C 0.8362(5) 0.9870(4) 0.8644(5)
H86_4 H 0.8135 0.8979 0.9790
H87_4 H 0.8979 0.9790 0.8135
C105_4 C 0.8827(6) 0.7446(4) 0.9898(5)
C106_4 C 0.7446(4) 0.9898(5) 0.8827(6)
H91_4 H 0.9130 0.7563 0.9723
H92_4 H 0.7563 0.9723 0.9130
H101_4 H 0.8628 0.7233 0.9671
H102_4 H 0.7233 0.9671 0.8628
C60_2 C 0.0251(3) 0.6697(3) 0.5284(3)
H46_2 H 0.0545 0.6737 0.5084
C70_2 C 0.0124(3) 0.7070(3) 0.5617(3)
H51_2 H 0.0311 0.7375 0.5628
C61_2 C 0.5284(3) 0.0251(3) 0.6697(3)
H47_2 H 0.5084 0.0545 0.6737
C71_2 C 0.5617(3) 0.0124(3) 0.7070(3)
H52_2 H 0.5628 0.0311 0.7375
C9_2 C 0.6697(3) 0.5284(3) 0.0251(3)
H6_2 H 0.6737 0.5084 0.0545
C11_2 C 0.7070(3) 0.5617(3) 0.0124(3)
H7_2 H 0.7375 0.5628 0.0311
O2_2 O 0.73333(19) 0.6524(2) 0.91044(19)
O3_2 O 0.7829(3) 0.6336(3) 0.9789(2)
N1_2 N 0.6261(2) 0.5230(2) 0.9966(2)
C1_2 C 0.7874(3) 0.8295(2) 0.8841(2)
H1_2 H 0.7700 0.8340 0.9168
H2_2 H 0.8195 0.8485 0.8858
C2_2 C 0.7996(2) 0.7744(2) 0.8780(2)
C3_2 C 0.7443(3) 0.6277(3) 0.9548(3)
C4_2 C 0.6172(3) 0.5565(3) 0.9587(3)
H3_2 H 0.5859 0.5556 0.9415
C5_2 C 0.8434(3) 0.7551(3) 0.8525(3)
C6_2 C 0.7650(3) 0.7374(3) 0.8975(2)
H4_2 H 0.7361 0.7489 0.9152
C7_2 C 0.7716(3) 0.6862(3) 0.8917(3)
C8_2 C 0.6534(3) 0.5921(3) 0.9446(3)
H5_2 H 0.6468 0.6146 0.9176
C10_2 C 0.8126(3) 0.6669(3) 0.8670(3)
C12_2 C 0.6993(3) 0.5946(3) 0.9705(3)
C13_2 C 0.8498(3) 0.7017(3) 0.8475(3)
H8_2 H 0.8789 0.6889 0.8311
O5_2 O 0.8178(3) 0.6135(2) 0.8627(2)
C19_2 C 0.8622(5) 0.5936(4) 0.8370(6)
H18_2 H 0.8923 0.6007 0.8572
H19_2 H 0.8586 0.5571 0.8327
H20_2 H 0.8655 0.6097 0.8039
O15_2 O 0.91044(19) 0.73333(19) 0.6524(2)
O16_2 O 0.6524(2) 0.91044(19) 0.73333(19)
O17_4 O 0.3476(2) 0.41044(19) 0.76667(19)
O18_4 O 0.26667(19) 0.1524(2) 0.58956(19)
O19_4 O 0.08956(19) 0.23333(19) 0.8476(2)
O20_2 O 0.9789(2) 0.7829(3) 0.6336(3)
O21_2 O 0.6336(3) 0.9789(2) 0.7829(3)
O22_4 O 0.3664(3) 0.4789(2) 0.7171(3)
O23_4 O 0.2171(3) 0.1336(3) 0.5211(2)
O24_4 O 0.0211(2) 0.2829(3) 0.8664(3)
N3_2 N 0.9966(2) 0.6261(2) 0.5230(2)
N4_2 N 0.5230(2) 0.9966(2) 0.6261(2)
N5_4 N 0.4770(2) 0.4966(2) 0.8739(2)
N6_4 N 0.3739(2) 0.0230(2) 0.5034(2)
N7_4 N 0.0034(2) 0.1261(2) 0.9770(2)
C20_2 C 0.8295(2) 0.8841(2) 0.7874(3)
C21_2 C 0.8841(2) 0.7874(3) 0.8295(2)
C22_4 C 0.1705(2) 0.3841(2) 0.7126(3)
C23_4 C 0.1159(2) 0.2874(3) 0.6705(2)
C24_4 C 0.2126(3) 0.3295(2) 0.6159(2)
H21_2 H 0.8340 0.9168 0.7700
H22_2 H 0.9168 0.7700 0.8340
H23_4 H 0.1660 0.4168 0.7300
H24_4 H 0.0832 0.2700 0.6660
H25_4 H 0.2300 0.3340 0.5832
H26_2 H 0.8485 0.8858 0.8195
H27_2 H 0.8858 0.8195 0.8485
H28_4 H 0.1515 0.3858 0.6805
H29_4 H 0.1142 0.3195 0.6515
H30_4 H 0.1805 0.3485 0.6142
C25_2 C 0.7744(2) 0.8780(2) 0.7996(2)
C26_2 C 0.8780(2) 0.7996(2) 0.7744(2)
C27_4 C 0.2256(2) 0.3780(2) 0.7004(2)
C28_4 C 0.1220(2) 0.2996(2) 0.7256(2)
C29_4 C 0.2004(2) 0.2744(2) 0.6220(2)
C30_2 C 0.9548(3) 0.7443(3) 0.6277(3)
C31_2 C 0.6277(3) 0.9548(3) 0.7443(3)
C32_4 C 0.3723(3) 0.4548(3) 0.7557(3)
C33_4 C 0.2557(3) 0.1277(3) 0.5452(3)
C34_4 C 0.0452(3) 0.2443(3) 0.8723(3)
C35_2 C 0.9587(3) 0.6172(3) 0.5565(3)
C36_2 C 0.5565(3) 0.9587(3) 0.6172(3)
C37_4 C 0.4435(3) 0.4587(3) 0.8828(3)
C38_4 C 0.3828(3) 0.0565(3) 0.5413(3)
C39_4 C 0.0413(3) 0.1172(3) 0.9435(3)
H31_2 H 0.9415 0.5859 0.5556
H32_2 H 0.5556 0.9415 0.5859
H33_4 H 0.4444 0.4415 0.9141
H34_4 H 0.4141 0.0556 0.5585
H35_4 H 0.0585 0.0859 0.9444
C40_2 C 0.7551(3) 0.8525(3) 0.8434(3)
C41_2 C 0.8525(3) 0.8434(3) 0.7551(3)
C42_4 C 0.2449(3) 0.3525(3) 0.6566(3)
C43_4 C 0.1475(3) 0.3434(3) 0.7449(3)
C44_4 C 0.1566(3) 0.2551(3) 0.6475(3)
C45_2 C 0.8975(2) 0.7650(3) 0.7374(3)
C46_2 C 0.7374(3) 0.8975(2) 0.7650(3)
C47_4 C 0.2626(3) 0.3975(2) 0.7350(3)
C48_4 C 0.2350(3) 0.2374(3) 0.6025(2)
C49_4 C 0.1025(2) 0.2650(3) 0.7626(3)
H36_2 H 0.9152 0.7361 0.7489
H37_2 H 0.7489 0.9152 0.7361
H38_4 H 0.2511 0.4152 0.7639
H39_4 H 0.2639 0.2489 0.5848
H40_4 H 0.0848 0.2361 0.7511
C50_2 C 0.8917(3) 0.7716(3) 0.6862(3)
C51_2 C 0.6862(3) 0.8917(3) 0.7716(3)
C52_4 C 0.3138(3) 0.3917(3) 0.7284(3)
C53_4 C 0.2284(3) 0.1862(3) 0.6083(3)
C54_4 C 0.1083(3) 0.2716(3) 0.8138(3)
C55_2 C 0.9446(3) 0.6534(3) 0.5921(3)
C56_2 C 0.5921(3) 0.9446(3) 0.6534(3)
C57_4 C 0.4079(3) 0.4446(3) 0.8466(3)
C58_4 C 0.3466(3) 0.0921(3) 0.5554(3)
C59_4 C 0.0554(3) 0.1534(3) 0.9079(3)
H41_2 H 0.9176 0.6468 0.6146
H42_2 H 0.6146 0.9176 0.6468
H43_4 H 0.3854 0.4176 0.8532
H44_4 H 0.3532 0.1146 0.5824
H45_4 H 0.0824 0.1468 0.8854
C62_4 C 0.4716(3) 0.5251(3) 0.8303(3)
C63_4 C 0.3303(3) 0.0284(3) 0.4749(3)
H48_4 H 0.4916 0.5545 0.8263
H49_4 H 0.3263 0.0084 0.4455
C65_2 C 0.8670(3) 0.8126(3) 0.6669(3)
C66_2 C 0.6669(3) 0.8670(3) 0.8126(3)
C67_4 C 0.3331(3) 0.3670(3) 0.6874(3)
C68_4 C 0.1874(3) 0.1669(3) 0.6330(3)
C69_4 C 0.1330(3) 0.3126(3) 0.8331(3)
C72_4 C 0.4383(3) 0.5124(3) 0.7930(3)
C73_4 C 0.2930(3) 0.0617(3) 0.4876(3)
H53_4 H 0.4372 0.5311 0.7625
H54_4 H 0.2625 0.0628 0.4689
C75_2 C 0.9705(3) 0.6993(3) 0.5946(3)
C76_2 C 0.5946(3) 0.9705(3) 0.6993(3)
C77_4 C 0.4054(3) 0.4705(3) 0.8007(3)
C78_4 C 0.3007(3) 0.0946(3) 0.5295(3)
C79_4 C 0.0295(3) 0.1993(3) 0.9054(3)
C80_2 C 0.8475(3) 0.8498(3) 0.7017(3)
C81_2 C 0.7017(3) 0.8475(3) 0.8498(3)
C82_4 C 0.2983(3) 0.3475(3) 0.6502(3)
C83_4 C 0.1502(3) 0.2017(3) 0.6525(3)
C84_4 C 0.1525(3) 0.3498(3) 0.7983(3)
H56_2 H 0.8311 0.8789 0.6889
H57_2 H 0.6889 0.8311 0.8789
H58_4 H 0.3111 0.3311 0.6211
H59_4 H 0.1211 0.1889 0.6689
H60_4 H 0.1689 0.3789 0.8111
O30_2 O 0.8627(2) 0.8178(3) 0.6135(2)
O31_2 O 0.6135(2) 0.8627(2) 0.8178(3)
O32_4 O 0.3865(2) 0.3627(2) 0.6822(3)
O33_4 O 0.1822(3) 0.1135(2) 0.6373(2)
O34_4 O 0.1373(2) 0.3178(3) 0.8865(2)
C110_2 C 0.8370(6) 0.8622(5) 0.5936(4)
C111_2 C 0.5936(4) 0.8370(6) 0.8622(5)
C112_4 C 0.4064(4) 0.3370(6) 0.6378(5)
C113_4 C 0.1378(5) 0.0936(4) 0.6630(6)
C114_4 C 0.1630(6) 0.3622(5) 0.9064(4)
H106_2 H 0.8572 0.8923 0.6007
H107_2 H 0.6007 0.8572 0.8923
H108_4 H 0.3993 0.3572 0.6077
H109_4 H 0.1077 0.1007 0.6428
H110_4 H 0.1428 0.3923 0.8993
H111_2 H 0.8327 0.8586 0.5571
H112_2 H 0.5571 0.8327 0.8586
H113_4 H 0.4429 0.3327 0.6414
H114_4 H 0.1414 0.0571 0.6673
H115_4 H 0.1673 0.3586 0.9429
H116_2 H 0.8039 0.8655 0.6097
H117_2 H 0.6097 0.8039 0.8655
H118_4 H 0.3903 0.3039 0.6345
H119_4 H 0.1345 0.1097 0.6961
H120_4 H 0.1961 0.3655 0.8903
C64_4 C 0.9749(3) 0.1697(3) 0.9716(3)
H50_4 H 0.9455 0.1737 0.9916
C74_4 C 0.9876(3) 0.2070(3) 0.9383(3)
H55_4 H 0.9689 0.2375 0.9372
O17_5 O 0.76667(19) 0.3476(2) 0.41044(19)
O18_5 O 0.58956(19) 0.26667(19) 0.1524(2)
O19_5 O 0.8476(2) 0.08956(19) 0.23333(19)
O22_5 O 0.7171(3) 0.3664(3) 0.4789(2)
O23_5 O 0.5211(2) 0.2171(3) 0.1336(3)
O24_5 O 0.8664(3) 0.0211(2) 0.2829(3)
N5_5 N 0.8739(2) 0.4770(2) 0.4966(2)
N6_5 N 0.5034(2) 0.3739(2) 0.0230(2)
N7_5 N 0.9770(2) 0.0034(2) 0.1261(2)
C22_5 C 0.7126(3) 0.1705(2) 0.3841(2)
C23_5 C 0.6705(2) 0.1159(2) 0.2874(3)
C24_5 C 0.6159(2) 0.2126(3) 0.3295(2)
H23_5 H 0.7300 0.1660 0.4168
H24_5 H 0.6660 0.0832 0.2700
H25_5 H 0.5832 0.2300 0.3340
H28_5 H 0.6805 0.1515 0.3858
H29_5 H 0.6515 0.1142 0.3195
H30_5 H 0.6142 0.1805 0.3485
C27_5 C 0.7004(2) 0.2256(2) 0.3780(2)
C28_5 C 0.7256(2) 0.1220(2) 0.2996(2)
C29_5 C 0.6220(2) 0.2004(2) 0.2744(2)
C32_5 C 0.7557(3) 0.3723(3) 0.4548(3)
C33_5 C 0.5452(3) 0.2557(3) 0.1277(3)
C34_5 C 0.8723(3) 0.0452(3) 0.2443(3)
C37_5 C 0.8828(3) 0.4435(3) 0.4587(3)
C38_5 C 0.5413(3) 0.3828(3) 0.0565(3)
C39_5 C 0.9435(3) 0.0413(3) 0.1172(3)
H33_5 H 0.9141 0.4444 0.4415
H34_5 H 0.5585 0.4141 0.0556
H35_5 H 0.9444 0.0585 0.0859
C42_5 C 0.6566(3) 0.2449(3) 0.3525(3)
C43_5 C 0.7449(3) 0.1475(3) 0.3434(3)
C44_5 C 0.6475(3) 0.1566(3) 0.2551(3)
C47_5 C 0.7350(3) 0.2626(3) 0.3975(2)
C48_5 C 0.6025(2) 0.2350(3) 0.2374(3)
C49_5 C 0.7626(3) 0.1025(2) 0.2650(3)
H38_5 H 0.7639 0.2511 0.4152
H39_5 H 0.5848 0.2639 0.2489
H40_5 H 0.7511 0.0848 0.2361
C52_5 C 0.7284(3) 0.3138(3) 0.3917(3)
C53_5 C 0.6083(3) 0.2284(3) 0.1862(3)
C54_5 C 0.8138(3) 0.1083(3) 0.2716(3)
C57_5 C 0.8466(3) 0.4079(3) 0.4446(3)
C58_5 C 0.5554(3) 0.3466(3) 0.0921(3)
C59_5 C 0.9079(3) 0.0554(3) 0.1534(3)
H43_5 H 0.8532 0.3854 0.4176
H44_5 H 0.5824 0.3532 0.1146
H45_5 H 0.8854 0.0824 0.1468
C62_5 C 0.8303(3) 0.4716(3) 0.5251(3)
C63_5 C 0.4749(3) 0.3303(3) 0.0284(3)
H48_5 H 0.8263 0.4916 0.5545
H49_5 H 0.4455 0.3263 0.0084
C67_5 C 0.6874(3) 0.3331(3) 0.3670(3)
C68_5 C 0.6330(3) 0.1874(3) 0.1669(3)
C69_5 C 0.8331(3) 0.1330(3) 0.3126(3)
C72_5 C 0.7930(3) 0.4383(3) 0.5124(3)
C73_5 C 0.4876(3) 0.2930(3) 0.0617(3)
H53_5 H 0.7625 0.4372 0.5311
H54_5 H 0.4689 0.2625 0.0628
C77_5 C 0.8007(3) 0.4054(3) 0.4705(3)
C78_5 C 0.5295(3) 0.3007(3) 0.0946(3)
C79_5 C 0.9054(3) 0.0295(3) 0.1993(3)
C82_5 C 0.6502(3) 0.2983(3) 0.3475(3)
C83_5 C 0.6525(3) 0.1502(3) 0.2017(3)
C84_5 C 0.7983(3) 0.1525(3) 0.3498(3)
H58_5 H 0.6211 0.3111 0.3311
H59_5 H 0.6689 0.1211 0.1889
H60_5 H 0.8111 0.1689 0.3789
O32_5 O 0.6822(3) 0.3865(2) 0.3627(2)
O33_5 O 0.6373(2) 0.1822(3) 0.1135(2)
O34_5 O 0.8865(2) 0.1373(2) 0.3178(3)
C112_5 C 0.6378(5) 0.4064(4) 0.3370(6)
C113_5 C 0.6630(6) 0.1378(5) 0.0936(4)
C114_5 C 0.9064(4) 0.1630(6) 0.3622(5)
H108_5 H 0.6077 0.3993 0.3572
H109_5 H 0.6428 0.1077 0.1007
H110_5 H 0.8993 0.1428 0.3923
H113_5 H 0.6414 0.4429 0.3327
H114_5 H 0.6673 0.1414 0.0571
H115_5 H 0.9429 0.1673 0.3586
H118_5 H 0.6345 0.3903 0.3039
H119_5 H 0.6961 0.1345 0.1097
H120_5 H 0.8903 0.1961 0.3655
C64_5 C 0.9716(3) 0.9749(3) 0.1697(3)
H50_5 H 0.9916 0.9455 0.1737
C74_5 C 0.9383(3) 0.9876(3) 0.2070(3)
H55_5 H 0.9372 0.9689 0.2375
O17_6 O 0.41044(19) 0.76667(19) 0.3476(2)
O18_6 O 0.1524(2) 0.58956(19) 0.26667(19)
O19_6 O 0.23333(19) 0.8476(2) 0.08956(19)
O22_6 O 0.4789(2) 0.7171(3) 0.3664(3)
O23_6 O 0.1336(3) 0.5211(2) 0.2171(3)
O24_6 O 0.2829(3) 0.8664(3) 0.0211(2)
N5_6 N 0.4966(2) 0.8739(2) 0.4770(2)
N6_6 N 0.0230(2) 0.5034(2) 0.3739(2)
N7_6 N 0.1261(2) 0.9770(2) 0.0034(2)
C22_6 C 0.3841(2) 0.7126(3) 0.1705(2)
C23_6 C 0.2874(3) 0.6705(2) 0.1159(2)
C24_6 C 0.3295(2) 0.6159(2) 0.2126(3)
H23_6 H 0.4168 0.7300 0.1660
H24_6 H 0.2700 0.6660 0.0832
H25_6 H 0.3340 0.5832 0.2300
H28_6 H 0.3858 0.6805 0.1515
H29_6 H 0.3195 0.6515 0.1142
H30_6 H 0.3485 0.6142 0.1805
C27_6 C 0.3780(2) 0.7004(2) 0.2256(2)
C28_6 C 0.2996(2) 0.7256(2) 0.1220(2)
C29_6 C 0.2744(2) 0.6220(2) 0.2004(2)
C32_6 C 0.4548(3) 0.7557(3) 0.3723(3)
C33_6 C 0.1277(3) 0.5452(3) 0.2557(3)
C34_6 C 0.2443(3) 0.8723(3) 0.0452(3)
C37_6 C 0.4587(3) 0.8828(3) 0.4435(3)
C38_6 C 0.0565(3) 0.5413(3) 0.3828(3)
C39_6 C 0.1172(3) 0.9435(3) 0.0413(3)
H33_6 H 0.4415 0.9141 0.4444
H34_6 H 0.0556 0.5585 0.4141
H35_6 H 0.0859 0.9444 0.0585
C42_6 C 0.3525(3) 0.6566(3) 0.2449(3)
C43_6 C 0.3434(3) 0.7449(3) 0.1475(3)
C44_6 C 0.2551(3) 0.6475(3) 0.1566(3)
C47_6 C 0.3975(2) 0.7350(3) 0.2626(3)
C48_6 C 0.2374(3) 0.6025(2) 0.2350(3)
C49_6 C 0.2650(3) 0.7626(3) 0.1025(2)
H38_6 H 0.4152 0.7639 0.2511
H39_6 H 0.2489 0.5848 0.2639
H40_6 H 0.2361 0.7511 0.0848
C52_6 C 0.3917(3) 0.7284(3) 0.3138(3)
C53_6 C 0.1862(3) 0.6083(3) 0.2284(3)
C54_6 C 0.2716(3) 0.8138(3) 0.1083(3)
C57_6 C 0.4446(3) 0.8466(3) 0.4079(3)
C58_6 C 0.0921(3) 0.5554(3) 0.3466(3)
C59_6 C 0.1534(3) 0.9079(3) 0.0554(3)
H43_6 H 0.4176 0.8532 0.3854
H44_6 H 0.1146 0.5824 0.3532
H45_6 H 0.1468 0.8854 0.0824
C62_6 C 0.5251(3) 0.8303(3) 0.4716(3)
C63_6 C 0.0284(3) 0.4749(3) 0.3303(3)
H48_6 H 0.5545 0.8263 0.4916
H49_6 H 0.0084 0.4455 0.3263
C67_6 C 0.3670(3) 0.6874(3) 0.3331(3)
C68_6 C 0.1669(3) 0.6330(3) 0.1874(3)
C69_6 C 0.3126(3) 0.8331(3) 0.1330(3)
C72_6 C 0.5124(3) 0.7930(3) 0.4383(3)
C73_6 C 0.0617(3) 0.4876(3) 0.2930(3)
H53_6 H 0.5311 0.7625 0.4372
H54_6 H 0.0628 0.4689 0.2625
C77_6 C 0.4705(3) 0.8007(3) 0.4054(3)
C78_6 C 0.0946(3) 0.5295(3) 0.3007(3)
C79_6 C 0.1993(3) 0.9054(3) 0.0295(3)
C82_6 C 0.3475(3) 0.6502(3) 0.2983(3)
C83_6 C 0.2017(3) 0.6525(3) 0.1502(3)
C84_6 C 0.3498(3) 0.7983(3) 0.1525(3)
H58_6 H 0.3311 0.6211 0.3111
H59_6 H 0.1889 0.6689 0.1211
H60_6 H 0.3789 0.8111 0.1689
O32_6 O 0.3627(2) 0.6822(3) 0.3865(2)
O33_6 O 0.1135(2) 0.6373(2) 0.1822(3)
O34_6 O 0.3178(3) 0.8865(2) 0.1373(2)
C112_6 C 0.3370(6) 0.6378(5) 0.4064(4)
C113_6 C 0.0936(4) 0.6630(6) 0.1378(5)
C114_6 C 0.3622(5) 0.9064(4) 0.1630(6)
H108_6 H 0.3572 0.6077 0.3993
H109_6 H 0.1007 0.6428 0.1077
H110_6 H 0.3923 0.8993 0.1428
H113_6 H 0.3327 0.6414 0.4429
H114_6 H 0.0571 0.6673 0.1414
H115_6 H 0.3586 0.9429 0.1673
H118_6 H 0.3039 0.6345 0.3903
H119_6 H 0.1097 0.6961 0.1345
H120_6 H 0.3655 0.8903 0.1961
C64_6 C 0.1697(3) 0.9716(3) 0.9749(3)
H50_6 H 0.1737 0.9916 0.9455
C74_6 C 0.2070(3) 0.9383(3) 0.9876(3)
H55_6 H 0.2375 0.9372 0.9689
Cl1 Cl 0.2472(4) 0.4866(3) 0.8592(3)
O35 O 0.2050(9) 0.4842(8) 0.8307(9)
O36 O 0.2653(9) 0.4349(9) 0.8647(9)
O37 O 0.2837(14) 0.5115(13) 0.8231(15)
O38 O 0.2400(14) 0.5209(12) 0.8938(13)
Cl1_2 Cl 0.8592(3) 0.2472(4) 0.4866(3)
O35_2 O 0.8307(9) 0.2050(9) 0.4842(8)
O36_2 O 0.8647(9) 0.2653(9) 0.4349(9)
O37_2 O 0.8231(15) 0.2837(14) 0.5115(13)
O38_2 O 0.8938(13) 0.2400(14) 0.5209(12)
Cl1_3 Cl 0.4866(3) 0.8592(3) 0.2472(4)
O35_3 O 0.4842(8) 0.8307(9) 0.2050(9)
O36_3 O 0.4349(9) 0.8647(9) 0.2653(9)
O37_3 O 0.5115(13) 0.8231(15) 0.2837(14)
O38_3 O 0.5209(12) 0.8938(13) 0.2400(14)
Cl1_4 Cl 0.0134(3) 0.1408(3) 0.7472(4)
O35_4 O 0.0158(8) 0.1693(9) 0.7050(9)
O36_4 O 0.0651(9) 0.1353(9) 0.7653(9)
O37_4 O 0.9885(13) 0.1769(15) 0.7837(14)
O38_4 O 0.9791(12) 0.1062(13) 0.7400(14)
Cl1_5 Cl 0.3592(3) 0.2528(4) 0.5134(3)
O35_5 O 0.3307(9) 0.2950(9) 0.5158(8)
O36_5 O 0.3647(9) 0.2347(9) 0.5651(9)
O37_5 O 0.3231(15) 0.2163(14) 0.4885(13)
O38_5 O 0.3938(13) 0.2600(14) 0.4791(12)
Cl1_6 Cl 0.5134(3) 0.3592(3) 0.2528(4)
O35_6 O 0.5158(8) 0.3307(9) 0.2950(9)
O36_6 O 0.5651(9) 0.3647(9) 0.2347(9)
O37_6 O 0.4885(13) 0.3231(15) 0.2163(14)
O38_6 O 0.4791(12) 0.3938(13) 0.2600(14)
O37_7 O 0.6769(15) 0.7163(14) 0.0115(13)
O38_7 O 0.6062(13) 0.7600(14) 0.0209(12)
Cl1_7 Cl 0.6408(3) 0.7528(4) 0.9866(3)
O35_7 O 0.6693(9) 0.7950(9) 0.9842(8)
O36_7 O 0.6353(9) 0.7347(9) 0.9349(9)
Cl1_8 Cl 0.1408(3) 0.7472(4) 0.0134(3)
O35_8 O 0.1693(9) 0.7050(9) 0.0158(8)
O36_8 O 0.1353(9) 0.7653(9) 0.0651(9)
O37_8 O 0.1769(15) 0.7837(14) 0.9885(13)
O38_8 O 0.1062(13) 0.7400(14) 0.9791(12)
O37_9 O 0.0115(13) 0.6769(15) 0.7163(14)
O38_9 O 0.0209(12) 0.6062(13) 0.7600(14)
Cl1_9 Cl 0.9866(3) 0.6408(3) 0.7528(4)
O35_9 O 0.9842(8) 0.6693(9) 0.7950(9)
O36_9 O 0.9349(9) 0.6353(9) 0.7347(9)
Cl1_10 Cl 0.2528(4) 0.5134(3) 0.3592(3)
O35_10 O 0.2950(9) 0.5158(8) 0.3307(9)
O36_10 O 0.2347(9) 0.5651(9) 0.3647(9)
O37_10 O 0.2163(14) 0.4885(13) 0.3231(15)
O38_10 O 0.2600(14) 0.4791(12) 0.3938(13)
Cl1_11 Cl 0.7472(4) 0.0134(3) 0.1408(3)
O35_11 O 0.7050(9) 0.0158(8) 0.1693(9)
O36_11 O 0.7653(9) 0.0651(9) 0.1353(9)
O37_11 O 0.7837(14) 0.9885(13) 0.1769(15)
O38_11 O 0.7400(14) 0.9791(12) 0.1062(13)
O37_12 O 0.7163(14) 0.0115(13) 0.6769(15)
O38_12 O 0.7600(14) 0.0209(12) 0.6062(13)
Cl1_12 Cl 0.7528(4) 0.9866(3) 0.6408(3)
O35_12 O 0.7950(9) 0.9842(8) 0.6693(9)
O36_12 O 0.7347(9) 0.9349(9) 0.6353(9)
Cl1_13 Cl 0.7528(4) 0.5134(3) 0.1408(3)
O35_13 O 0.7950(9) 0.5158(8) 0.1693(9)
O36_13 O 0.7347(9) 0.5651(9) 0.1353(9)
O37_13 O 0.7163(14) 0.4885(13) 0.1769(15)
O38_13 O 0.7600(14) 0.4791(12) 0.1062(13)
Cl1_14 Cl 0.1408(3) 0.7528(4) 0.5134(3)
O35_14 O 0.1693(9) 0.7950(9) 0.5158(8)
O36_14 O 0.1353(9) 0.7347(9) 0.5651(9)
O37_14 O 0.1769(15) 0.7163(14) 0.4885(13)
O38_14 O 0.1062(13) 0.7600(14) 0.4791(12)
Cl1_15 Cl 0.5134(3) 0.1408(3) 0.7528(4)
O35_15 O 0.5158(8) 0.1693(9) 0.7950(9)
O36_15 O 0.5651(9) 0.1353(9) 0.7347(9)
O37_15 O 0.4885(13) 0.1769(15) 0.7163(14)
O38_15 O 0.4791(12) 0.1062(13) 0.7600(14)
O37_16 O 0.0115(13) 0.8231(15) 0.2163(14)
O38_16 O 0.0209(12) 0.8938(13) 0.2600(14)
Cl1_16 Cl 0.9866(3) 0.8592(3) 0.2528(4)
O35_16 O 0.9842(8) 0.8307(9) 0.2950(9)
O36_16 O 0.9349(9) 0.8647(9) 0.2347(9)
Cl1_17 Cl 0.6408(3) 0.7472(4) 0.4866(3)
O35_17 O 0.6693(9) 0.7050(9) 0.4842(8)
O36_17 O 0.6353(9) 0.7653(9) 0.4349(9)
O37_17 O 0.6769(15) 0.7837(14) 0.5115(13)
O38_17 O 0.6062(13) 0.7400(14) 0.5209(12)
Cl1_18 Cl 0.4866(3) 0.6408(3) 0.7472(4)
O35_18 O 0.4842(8) 0.6693(9) 0.7050(9)
O36_18 O 0.4349(9) 0.6353(9) 0.7653(9)
O37_18 O 0.5115(13) 0.6769(15) 0.7837(14)
O38_18 O 0.5209(12) 0.6062(13) 0.7400(14)
Cl1_19 Cl 0.3592(3) 0.2472(4) 0.0134(3)
O35_19 O 0.3307(9) 0.2050(9) 0.0158(8)
O36_19 O 0.3647(9) 0.2653(9) 0.0651(9)
O37_19 O 0.3231(15) 0.2837(14) 0.9885(13)
O38_19 O 0.3938(13) 0.2400(14) 0.9791(12)
O37_20 O 0.8231(15) 0.2163(14) 0.0115(13)
O38_20 O 0.8938(13) 0.2600(14) 0.0209(12)
Cl1_20 Cl 0.8592(3) 0.2528(4) 0.9866(3)
O35_20 O 0.8307(9) 0.2950(9) 0.9842(8)
O36_20 O 0.8647(9) 0.2347(9) 0.9349(9)
Cl1_21 Cl 0.0134(3) 0.3592(3) 0.2472(4)
O35_21 O 0.0158(8) 0.3307(9) 0.2050(9)
O36_21 O 0.0651(9) 0.3647(9) 0.2653(9)
O37_21 O 0.9885(13) 0.3231(15) 0.2837(14)
O38_21 O 0.9791(12) 0.3938(13) 0.2400(14)
Cl1_22 Cl 0.7472(4) 0.4866(3) 0.6408(3)
O35_22 O 0.7050(9) 0.4842(8) 0.6693(9)
O36_22 O 0.7653(9) 0.4349(9) 0.6353(9)
O37_22 O 0.7837(14) 0.5115(13) 0.6769(15)
O38_22 O 0.7400(14) 0.5209(12) 0.6062(13)
O37_23 O 0.2163(14) 0.0115(13) 0.8231(15)
O38_23 O 0.2600(14) 0.0209(12) 0.8938(13)
Cl1_23 Cl 0.2528(4) 0.9866(3) 0.8592(3)
O35_23 O 0.2950(9) 0.9842(8) 0.8307(9)
O36_23 O 0.2347(9) 0.9349(9) 0.8647(9)
Cl1_24 Cl 0.2472(4) 0.0134(3) 0.3592(3)
O35_24 O 0.2050(9) 0.0158(8) 0.3307(9)
O36_24 O 0.2653(9) 0.0651(9) 0.3647(9)
O37_24 O 0.2837(14) 0.9885(13) 0.3231(15)
O38_24 O 0.2400(14) 0.9791(12) 0.3938(13)
loop_
_geom_bond_atom_site_label_1
_geom_bond_atom_site_label_2
_geom_bond_site_symmetry_1
_geom_bond_site_symmetry_2
H50 C64 1_555 1_555
C74 C64 1_555 1_555
H55 C74 1_555 1_555
Ag6_4 O10 1_555 1_555
Ag5 O9 1_555 1_555
O2 C3 1_555 1_555
O3 C3 1_555 1_555
N1 C4 1_555 1_555
C1 H1 1_555 1_555
H2 C1 1_555 1_555
C2 C1 1_555 1_555
C3 C12 1_555 1_555
C4 H3 1_555 1_555
C5 C2 1_555 1_555
C6 C2 1_555 1_555
H4 C6 1_555 1_555
C7 O2 1_555 1_555
C8 C4 1_555 1_555
H5 C8 1_555 1_555
C10 C7 1_555 1_555
C12 C8 1_555 1_555
C13 C5 1_555 1_555
H8 C13 1_555 1_555
Ag2 Ag1 1_555 1_555
O4 Ag2 1_555 1_555
N2 C14 1_555 1_555
C14 H9 1_555 1_555
H10 C14 1_555 1_555
C15 C14 1_555 1_555
H11 C15 1_555 1_555
H12 C15 1_555 1_555
C16 O4 1_555 1_555
C17 C15 1_555 1_555
H13 C17 1_555 1_555
H14 C17 1_555 1_555
C18 N2 1_555 1_555
H15 C18 1_555 1_555
H16 C18 1_555 1_555
H17 C18 1_555 1_555
O5 C10 1_555 1_555
C19 O5 1_555 1_555
H18 C19 1_555 1_555
H19 C19 1_555 1_555
H20 C19 1_555 1_555
O8 Ag1 1_555 1_555
O11 Ag1 1_555 1_555
O12 Ag1 1_555 1_555
O15 C30 1_555 1_555
O16 C31 1_555 1_555
O17 C32 1_555 1_555
O18 C33 1_555 1_555
O19 C34 1_555 1_555
O20 C30 1_555 1_555
O21 C31 1_555 1_555
O22 C32 1_555 1_555
O23 C33 1_555 1_555
O24 C34 1_555 1_555
N3 C35 1_555 1_555
N4 C36 1_555 1_555
N5 O8 1_555 1_555
N6 C38 1_555 1_555
N7 C39 1_555 1_555
C20 H21 1_555 1_555
C21 C5 1_555 1_555
C22 H23 1_555 1_555
C23 H24 1_555 1_555
C24 H25 1_555 1_555
H22 C21 1_555 1_555
H26 C20 1_555 1_555
H27 C21 1_555 1_555
H28 C22 1_555 1_555
H29 C23 1_555 1_555
H30 C24 1_555 1_555
C25 C20 1_555 1_555
C26 C21 1_555 1_555
C27 C22 1_555 1_555
C28 C23 1_555 1_555
C29 C24 1_555 1_555
C30 C75 1_555 1_555
C31 C76 1_555 1_555
C32 C77 1_555 1_555
C33 C78 1_555 1_555
C34 C79 1_555 1_555
C35 H31 1_555 1_555
C36 H32 1_555 1_555
C37 N5 1_555 1_555
C38 H34 1_555 1_555
C39 H35 1_555 1_555
H33 C37 1_555 1_555
C40 C1 1_555 1_555
C41 C20 1_555 1_555
C42 C24 1_555 1_555
C43 C22 1_555 1_555
C44 C23 1_555 1_555
C45 C26 1_555 1_555
C46 C25 1_555 1_555
C47 C27 1_555 1_555
C48 C29 1_555 1_555
C49 C28 1_555 1_555
H36 C45 1_555 1_555
H37 C46 1_555 1_555
H38 C47 1_555 1_555
H39 C48 1_555 1_555
H40 C49 1_555 1_555
C50 O15 1_555 1_555
C51 O16 1_555 1_555
C52 O17 1_555 1_555
C53 O18 1_555 1_555
C54 O19 1_555 1_555
C55 C35 1_555 1_555
C56 C36 1_555 1_555
C57 C37 1_555 1_555
C58 C38 1_555 1_555
C59 C39 1_555 1_555
H41 C55 1_555 1_555
H42 C56 1_555 1_555
H43 C57 1_555 1_555
H44 C58 1_555 1_555
H45 C59 1_555 1_555
C62 N5 1_555 1_555
C63 N6 1_555 1_555
H48 C62 1_555 1_555
H49 C63 1_555 1_555
C65 C50 1_555 1_555
C66 C51 1_555 1_555
C67 C52 1_555 1_555
C68 C53 1_555 1_555
C69 C54 1_555 1_555
C72 C62 1_555 1_555
C73 C63 1_555 1_555
H53 C72 1_555 1_555
H54 C73 1_555 1_555
C75 C55 1_555 1_555
C76 C56 1_555 1_555
C77 C57 1_555 1_555
C78 C58 1_555 1_555
C79 C59 1_555 1_555
C80 C41 1_555 1_555
C81 C40 1_555 1_555
C82 C42 1_555 1_555
C83 C44 1_555 1_555
C84 C43 1_555 1_555
H56 C80 1_555 1_555
H57 C81 1_555 1_555
H58 C82 1_555 1_555
H59 C83 1_555 1_555
H60 C84 1_555 1_555
O25 Ag2 1_555 1_555
O26 Ag2 1_555 1_555
N8 C85 1_555 1_555
N12 C89 1_555 1_555
C85 H61 1_555 1_555
C89 H65 1_555 1_555
H66 C85 1_555 1_555
H70 C89 1_555 1_555
C90 C85 1_555 1_555
C94 C89 1_555 1_555
H71 C90 1_555 1_555
H75 C94 1_555 1_555
H76 C90 1_555 1_555
H80 C94 1_555 1_555
C95 O25 1_555 1_555
C96 O26 1_555 1_555
C100 C90 1_555 1_555
C104 C94 1_555 1_555
H81 C100 1_555 1_555
H85 C104 1_555 1_555
H86 C100 1_555 1_555
C105 N8 1_555 1_555
H91 C105 1_555 1_555
H92 C106 1_555 1_555
H96 C105 1_555 1_555
H101 C105 1_555 1_555
H102 C106 1_555 1_555
O30 C65 1_555 1_555
O31 C66 1_555 1_555
O32 C67 1_555 1_555
O33 C68 1_555 1_555
O34 C69 1_555 1_555
C110 O30 1_555 1_555
C111 O31 1_555 1_555
C112 O32 1_555 1_555
C113 O33 1_555 1_555
C114 O34 1_555 1_555
H106 C110 1_555 1_555
H107 C111 1_555 1_555
H108 C112 1_555 1_555
H109 C113 1_555 1_555
H110 C114 1_555 1_555
H111 C110 1_555 1_555
H112 C111 1_555 1_555
H113 C112 1_555 1_555
H114 C113 1_555 1_555
H115 C114 1_555 1_555
H116 C110 1_555 1_555
H117 C111 1_555 1_555
H118 C112 1_555 1_555
H119 C113 1_555 1_555
H120 C114 1_555 1_555
C6 C7 1_555 1_555
C10 C13 1_555 1_555
N2 C16 1_555 1_555
C16 C17 1_555 1_555
C25 C40 1_555 1_555
C26 C41 1_555 1_555
C27 C42 1_555 1_555
C28 C43 1_555 1_555
C29 C44 1_555 1_555
C45 C50 1_555 1_555
C46 C51 1_555 1_555
C47 C52 1_555 1_555
C48 C53 1_555 1_555
C49 C54 1_555 1_555
C65 C80 1_555 1_555
C66 C81 1_555 1_555
C67 C82 1_555 1_555
C68 C83 1_555 1_555
C69 C84 1_555 1_555
C72 C77 1_555 1_555
C73 C78 1_555 1_555
N8 C95 1_555 1_555
C95 C100 1_555 1_555
Ag1_2 O1 1_555 1_555
H6 C9 1_555 1_555
C11 C9 1_555 1_555
H7 C11 1_555 1_555
O13 Ag1_2 1_555 1_555
O14 Ag1_2 1_555 1_555
Ag7 Ag1_2 1_555 1_555
O27 Ag7 1_555 1_555
O28 Ag7 1_555 1_555
O29 Ag7 1_555 1_555
N9 C86 1_555 1_555
N10 C87 1_555 1_555
N11 C88 1_555 1_555
C86 H62 1_555 1_555
C87 H63 1_555 1_555
C88 H64 1_555 1_555
H67 C86 1_555 1_555
H68 C87 1_555 1_555
H69 C88 1_555 1_555
C91 C86 1_555 1_555
C92 C87 1_555 1_555
C93 C88 1_555 1_555
H72 C91 1_555 1_555
H73 C92 1_555 1_555
H74 C93 1_555 1_555
H77 C91 1_555 1_555
H78 C92 1_555 1_555
H79 C93 1_555 1_555
C97 O27 1_555 1_555
C98 O28 1_555 1_555
C99 O29 1_555 1_555
C101 C91 1_555 1_555
C102 C92 1_555 1_555
C103 C93 1_555 1_555
H82 C101 1_555 1_555
H83 C102 1_555 1_555
H84 C103 1_555 1_555
H88 C102 1_555 1_555
H89 C103 1_555 1_555
C107 N10 1_555 1_555
C108 N11 1_555 1_555
H93 C107 1_555 1_555
H94 C108 1_555 1_555
H95 C109 1_555 1_555
H98 C107 1_555 1_555
H99 C108 1_555 1_555
H103 C107 1_555 1_555
H104 C108 1_555 1_555
H105 C109 1_555 1_555
N10 C97 1_555 1_555
N11 C98 1_555 1_555
C97 C102 1_555 1_555
C98 C103 1_555 1_555
Ag5_2 O7 1_555 1_555
H47 C61 1_555 1_555
C71 C61 1_555 1_555
H52 C71 1_555 1_555
Ag3_2 O6 1_555 1_555
H46 C60 1_555 1_555
C70 C60 1_555 1_555
H51 C70 1_555 1_555
H50_2 C64_2 1_555 1_555
C74_2 C64_2 1_555 1_555
H55_2 C74_2 1_555 1_555
Ag2_2 Ag3 1_555 1_555
O4_2 Ag2_2 1_555 1_555
N2_2 C14_2 1_555 1_555
C14_2 H9_2 1_555 1_555
H10_2 C14_2 1_555 1_555
C15_2 C14_2 1_555 1_555
H11_2 C15_2 1_555 1_555
H12_2 C15_2 1_555 1_555
C16_2 O4_2 1_555 1_555
C17_2 C15_2 1_555 1_555
H13_2 C17_2 1_555 1_555
H14_2 C17_2 1_555 1_555
C18_2 N2_2 1_555 1_555
H15_2 C18_2 1_555 1_555
H16_2 C18_2 1_555 1_555
H17_2 C18_2 1_555 1_555
O8_2 Ag3 1_555 1_555
O11_2 Ag3 1_555 1_555
O12_2 Ag3 1_555 1_555
O17_2 C32_2 1_555 1_555
O18_2 C33_2 1_555 1_555
O19_2 C34_2 1_555 1_555
O22_2 C32_2 1_555 1_555
O23_2 C33_2 1_555 1_555
O24_2 C34_2 1_555 1_555
N5_2 O8_2 1_555 1_555
N6_2 C38_2 1_555 1_555
N7_2 C39_2 1_555 1_555
C22_2 H23_2 1_555 1_555
C23_2 H24_2 1_555 1_555
C24_2 H25_2 1_555 1_555
H28_2 C22_2 1_555 1_555
H29_2 C23_2 1_555 1_555
H30_2 C24_2 1_555 1_555
C27_2 C22_2 1_555 1_555
C28_2 C23_2 1_555 1_555
C29_2 C24_2 1_555 1_555
C32_2 C77_2 1_555 1_555
C33_2 C78_2 1_555 1_555
C34_2 C79_2 1_555 1_555
C37_2 N5_2 1_555 1_555
C38_2 H34_2 1_555 1_555
C39_2 H35_2 1_555 1_555
H33_2 C37_2 1_555 1_555
C42_2 C24_2 1_555 1_555
C43_2 C22_2 1_555 1_555
C44_2 C23_2 1_555 1_555
C47_2 C27_2 1_555 1_555
C48_2 C29_2 1_555 1_555
C49_2 C28_2 1_555 1_555
H38_2 C47_2 1_555 1_555
H39_2 C48_2 1_555 1_555
H40_2 C49_2 1_555 1_555
C52_2 O17_2 1_555 1_555
C53_2 O18_2 1_555 1_555
C54_2 O19_2 1_555 1_555
C57_2 C37_2 1_555 1_555
C58_2 C38_2 1_555 1_555
C59_2 C39_2 1_555 1_555
H43_2 C57_2 1_555 1_555
H44_2 C58_2 1_555 1_555
H45_2 C59_2 1_555 1_555
C62_2 N5_2 1_555 1_555
C63_2 N6_2 1_555 1_555
H48_2 C62_2 1_555 1_555
H49_2 C63_2 1_555 1_555
C67_2 C52_2 1_555 1_555
C68_2 C53_2 1_555 1_555
C69_2 C54_2 1_555 1_555
C72_2 C62_2 1_555 1_555
C73_2 C63_2 1_555 1_555
H53_2 C72_2 1_555 1_555
H54_2 C73_2 1_555 1_555
C77_2 C57_2 1_555 1_555
C78_2 C58_2 1_555 1_555
C79_2 C59_2 1_555 1_555
C82_2 C42_2 1_555 1_555
C83_2 C44_2 1_555 1_555
C84_2 C43_2 1_555 1_555
H58_2 C82_2 1_555 1_555
H59_2 C83_2 1_555 1_555
H60_2 C84_2 1_555 1_555
O25_2 Ag2_2 1_555 1_555
O26_2 Ag2_2 1_555 1_555
N8_2 C85_2 1_555 1_555
N12_2 C89_2 1_555 1_555
C85_2 H61_2 1_555 1_555
C89_2 H65_2 1_555 1_555
H66_2 C85_2 1_555 1_555
H70_2 C89_2 1_555 1_555
C90_2 C85_2 1_555 1_555
C94_2 C89_2 1_555 1_555
H71_2 C90_2 1_555 1_555
H75_2 C94_2 1_555 1_555
H76_2 C90_2 1_555 1_555
H80_2 C94_2 1_555 1_555
C95_2 O25_2 1_555 1_555
C96_2 O26_2 1_555 1_555
C100_2 C90_2 1_555 1_555
C104_2 C94_2 1_555 1_555
H81_2 C100_2 1_555 1_555
H85_2 C104_2 1_555 1_555
H86_2 C100_2 1_555 1_555
C105_2 N8_2 1_555 1_555
H91_2 C105_2 1_555 1_555
H92_2 C106_2 1_555 1_555
H96_2 C105_2 1_555 1_555
H101_2 C105_2 1_555 1_555
H102_2 C106_2 1_555 1_555
O32_2 C67_2 1_555 1_555
O33_2 C68_2 1_555 1_555
O34_2 C69_2 1_555 1_555
C112_2 O32_2 1_555 1_555
C113_2 O33_2 1_555 1_555
C114_2 O34_2 1_555 1_555
H108_2 C112_2 1_555 1_555
H109_2 C113_2 1_555 1_555
H110_2 C114_2 1_555 1_555
H113_2 C112_2 1_555 1_555
H114_2 C113_2 1_555 1_555
H115_2 C114_2 1_555 1_555
H118_2 C112_2 1_555 1_555
H119_2 C113_2 1_555 1_555
H120_2 C114_2 1_555 1_555
N2_2 C16_2 1_555 1_555
C16_2 C17_2 1_555 1_555
C27_2 C42_2 1_555 1_555
C28_2 C43_2 1_555 1_555
C29_2 C44_2 1_555 1_555
C47_2 C52_2 1_555 1_555
C48_2 C53_2 1_555 1_555
C49_2 C54_2 1_555 1_555
C67_2 C82_2 1_555 1_555
C68_2 C83_2 1_555 1_555
C69_2 C84_2 1_555 1_555
C72_2 C77_2 1_555 1_555
C73_2 C78_2 1_555 1_555
N8_2 C95_2 1_555 1_555
C95_2 C100_2 1_555 1_555
Ag6_6 O10_2 1_555 1_555
O13_2 Ag3_2 1_555 1_555
O14_2 Ag3_2 1_555 1_555
Ag7_2 Ag3_2 1_555 1_555
O27_2 Ag7_2 1_555 1_555
O28_2 Ag7_2 1_555 1_555
O29_2 Ag7_2 1_555 1_555
N9_2 C86_2 1_555 1_555
N10_2 C87_2 1_555 1_555
N11_2 C88_2 1_555 1_555
C86_2 H62_2 1_555 1_555
C87_2 H63_2 1_555 1_555
C88_2 H64_2 1_555 1_555
H67_2 C86_2 1_555 1_555
H68_2 C87_2 1_555 1_555
H69_2 C88_2 1_555 1_555
C91_2 C86_2 1_555 1_555
C92_2 C87_2 1_555 1_555
C93_2 C88_2 1_555 1_555
H72_2 C91_2 1_555 1_555
H73_2 C92_2 1_555 1_555
H74_2 C93_2 1_555 1_555
H77_2 C91_2 1_555 1_555
H78_2 C92_2 1_555 1_555
H79_2 C93_2 1_555 1_555
C97_2 O27_2 1_555 1_555
C98_2 O28_2 1_555 1_555
C99_2 O29_2 1_555 1_555
C101_2 C91_2 1_555 1_555
C102_2 C92_2 1_555 1_555
C103_2 C93_2 1_555 1_555
H82_2 C101_2 1_555 1_555
H83_2 C102_2 1_555 1_555
H84_2 C103_2 1_555 1_555
H88_2 C102_2 1_555 1_555
H89_2 C103_2 1_555 1_555
C107_2 N10_2 1_555 1_555
C108_2 N11_2 1_555 1_555
H93_2 C107_2 1_555 1_555
H94_2 C108_2 1_555 1_555
H95_2 C109_2 1_555 1_555
H98_2 C107_2 1_555 1_555
H99_2 C108_2 1_555 1_555
H103_2 C107_2 1_555 1_555
H104_2 C108_2 1_555 1_555
H105_2 C109_2 1_555 1_555
N10_2 C97_2 1_555 1_555
N11_2 C98_2 1_555 1_555
C97_2 C102_2 1_555 1_555
C98_2 C103_2 1_555 1_555
H50_3 C64_3 1_555 1_555
C74_3 C64_3 1_555 1_555
H55_3 C74_3 1_555 1_555
Ag2_3 Ag5 1_555 1_555
O4_3 Ag2_3 1_555 1_555
N2_3 C14_3 1_555 1_555
C14_3 H9_3 1_555 1_555
H10_3 C14_3 1_555 1_555
C15_3 C14_3 1_555 1_555
H11_3 C15_3 1_555 1_555
H12_3 C15_3 1_555 1_555
C16_3 O4_3 1_555 1_555
C17_3 C15_3 1_555 1_555
H13_3 C17_3 1_555 1_555
H14_3 C17_3 1_555 1_555
C18_3 N2_3 1_555 1_555
H15_3 C18_3 1_555 1_555
H16_3 C18_3 1_555 1_555
H17_3 C18_3 1_555 1_555
O8_3 Ag5 1_555 1_555
O12_3 Ag5 1_555 1_555
O17_3 C32_3 1_555 1_555
O18_3 C33_3 1_555 1_555
O19_3 C34_3 1_555 1_555
O22_3 C32_3 1_555 1_555
O23_3 C33_3 1_555 1_555
O24_3 C34_3 1_555 1_555
N5_3 O8_3 1_555 1_555
N6_3 C38_3 1_555 1_555
N7_3 C39_3 1_555 1_555
C22_3 H23_3 1_555 1_555
C23_3 H24_3 1_555 1_555
C24_3 H25_3 1_555 1_555
H28_3 C22_3 1_555 1_555
H29_3 C23_3 1_555 1_555
H30_3 C24_3 1_555 1_555
C27_3 C22_3 1_555 1_555
C28_3 C23_3 1_555 1_555
C29_3 C24_3 1_555 1_555
C32_3 C77_3 1_555 1_555
C33_3 C78_3 1_555 1_555
C34_3 C79_3 1_555 1_555
C37_3 N5_3 1_555 1_555
C38_3 H34_3 1_555 1_555
C39_3 H35_3 1_555 1_555
H33_3 C37_3 1_555 1_555
C42_3 C24_3 1_555 1_555
C43_3 C22_3 1_555 1_555
C44_3 C23_3 1_555 1_555
C47_3 C27_3 1_555 1_555
C48_3 C29_3 1_555 1_555
C49_3 C28_3 1_555 1_555
H38_3 C47_3 1_555 1_555
H39_3 C48_3 1_555 1_555
H40_3 C49_3 1_555 1_555
C52_3 O17_3 1_555 1_555
C53_3 O18_3 1_555 1_555
C54_3 O19_3 1_555 1_555
C57_3 C37_3 1_555 1_555
C58_3 C38_3 1_555 1_555
C59_3 C39_3 1_555 1_555
H43_3 C57_3 1_555 1_555
H44_3 C58_3 1_555 1_555
H45_3 C59_3 1_555 1_555
C62_3 N5_3 1_555 1_555
C63_3 N6_3 1_555 1_555
H48_3 C62_3 1_555 1_555
H49_3 C63_3 1_555 1_555
C67_3 C52_3 1_555 1_555
C68_3 C53_3 1_555 1_555
C69_3 C54_3 1_555 1_555
C72_3 C62_3 1_555 1_555
C73_3 C63_3 1_555 1_555
H53_3 C72_3 1_555 1_555
H54_3 C73_3 1_555 1_555
C77_3 C57_3 1_555 1_555
C78_3 C58_3 1_555 1_555
C79_3 C59_3 1_555 1_555
C82_3 C42_3 1_555 1_555
C83_3 C44_3 1_555 1_555
C84_3 C43_3 1_555 1_555
H58_3 C82_3 1_555 1_555
H59_3 C83_3 1_555 1_555
H60_3 C84_3 1_555 1_555
O25_3 Ag2_3 1_555 1_555
O26_3 Ag2_3 1_555 1_555
N8_3 C85_3 1_555 1_555
N12_3 C89_3 1_555 1_555
C85_3 H61_3 1_555 1_555
C89_3 H65_3 1_555 1_555
H66_3 C85_3 1_555 1_555
H70_3 C89_3 1_555 1_555
C90_3 C85_3 1_555 1_555
C94_3 C89_3 1_555 1_555
H71_3 C90_3 1_555 1_555
H75_3 C94_3 1_555 1_555
H76_3 C90_3 1_555 1_555
H80_3 C94_3 1_555 1_555
C95_3 O25_3 1_555 1_555
C96_3 O26_3 1_555 1_555
C100_3 C90_3 1_555 1_555
C104_3 C94_3 1_555 1_555
H81_3 C100_3 1_555 1_555
H85_3 C104_3 1_555 1_555
H86_3 C100_3 1_555 1_555
C105_3 N8_3 1_555 1_555
H91_3 C105_3 1_555 1_555
H92_3 C106_3 1_555 1_555
H96_3 C105_3 1_555 1_555
H101_3 C105_3 1_555 1_555
H102_3 C106_3 1_555 1_555
O32_3 C67_3 1_555 1_555
O33_3 C68_3 1_555 1_555
O34_3 C69_3 1_555 1_555
C112_3 O32_3 1_555 1_555
C113_3 O33_3 1_555 1_555
C114_3 O34_3 1_555 1_555
H108_3 C112_3 1_555 1_555
H109_3 C113_3 1_555 1_555
H110_3 C114_3 1_555 1_555
H113_3 C112_3 1_555 1_555
H114_3 C113_3 1_555 1_555
H115_3 C114_3 1_555 1_555
H118_3 C112_3 1_555 1_555
H119_3 C113_3 1_555 1_555
H120_3 C114_3 1_555 1_555
N2_3 C16_3 1_555 1_555
C16_3 C17_3 1_555 1_555
C27_3 C42_3 1_555 1_555
C28_3 C43_3 1_555 1_555
C29_3 C44_3 1_555 1_555
C47_3 C52_3 1_555 1_555
C48_3 C53_3 1_555 1_555
C49_3 C54_3 1_555 1_555
C67_3 C82_3 1_555 1_555
C68_3 C83_3 1_555 1_555
C69_3 C84_3 1_555 1_555
C72_3 C77_3 1_555 1_555
C73_3 C78_3 1_555 1_555
N8_3 C95_3 1_555 1_555
C95_3 C100_3 1_555 1_555
Ag6_7 O10_3 1_555 1_555
O13_3 Ag5_2 1_555 1_555
O14_3 Ag5_2 1_555 1_555
Ag7_3 Ag5_2 1_555 1_555
O27_3 Ag7_3 1_555 1_555
O28_3 Ag7_3 1_555 1_555
O29_3 Ag7_3 1_555 1_555
N9_3 C86_3 1_555 1_555
N10_3 C87_3 1_555 1_555
N11_3 C88_3 1_555 1_555
C86_3 H62_3 1_555 1_555
C87_3 H63_3 1_555 1_555
C88_3 H64_3 1_555 1_555
H67_3 C86_3 1_555 1_555
H68_3 C87_3 1_555 1_555
H69_3 C88_3 1_555 1_555
C91_3 C86_3 1_555 1_555
C92_3 C87_3 1_555 1_555
C93_3 C88_3 1_555 1_555
H72_3 C91_3 1_555 1_555
H73_3 C92_3 1_555 1_555
H74_3 C93_3 1_555 1_555
H77_3 C91_3 1_555 1_555
H78_3 C92_3 1_555 1_555
H79_3 C93_3 1_555 1_555
C97_3 O27_3 1_555 1_555
C98_3 O28_3 1_555 1_555
C99_3 O29_3 1_555 1_555
C101_3 C91_3 1_555 1_555
C102_3 C92_3 1_555 1_555
C103_3 C93_3 1_555 1_555
H82_3 C101_3 1_555 1_555
H83_3 C102_3 1_555 1_555
H84_3 C103_3 1_555 1_555
H88_3 C102_3 1_555 1_555
H89_3 C103_3 1_555 1_555
C107_3 N10_3 1_555 1_555
C108_3 N11_3 1_555 1_555
H93_3 C107_3 1_555 1_555
H94_3 C108_3 1_555 1_555
H95_3 C109_3 1_555 1_555
H98_3 C107_3 1_555 1_555
H99_3 C108_3 1_555 1_555
H103_3 C107_3 1_555 1_555
H104_3 C108_3 1_555 1_555
H105_3 C109_3 1_555 1_555
N10_3 C97_3 1_555 1_555
N11_3 C98_3 1_555 1_555
C97_3 C102_3 1_555 1_555
C98_3 C103_3 1_555 1_555
Ag7_4 Ag6 1_555 1_555
O27_4 Ag7_4 1_555 1_555
O28_4 Ag7_4 1_555 1_555
O29_4 Ag7_4 1_555 1_555
C97_4 O27_4 1_555 1_555
C98_4 O28_4 1_555 1_555
C99_4 O29_4 1_555 1_555
H93_4 C107_4 1_555 1_555
H94_4 C108_4 1_555 1_555
H95_4 C109_4 1_555 1_555
H103_4 C107_4 1_555 1_555
H104_4 C108_4 1_555 1_555
H105_4 C109_4 1_555 1_555
O14_4 Ag6_2 1_555 1_555
N11_4 C88_4 1_555 1_555
C88_4 H64_4 1_555 1_555
H69_4 C88_4 1_555 1_555
C93_4 C88_4 1_555 1_555
H74_4 C93_4 1_555 1_555
H79_4 C93_4 1_555 1_555
C103_4 C93_4 1_555 1_555
H84_4 C103_4 1_555 1_555
O12_4 Ag6_3 1_555 1_555
N12_4 C89_4 1_555 1_555
C89_4 H65_4 1_555 1_555
H70_4 C89_4 1_555 1_555
C94_4 C89_4 1_555 1_555
H75_4 C94_4 1_555 1_555
H80_4 C94_4 1_555 1_555
C104_4 C94_4 1_555 1_555
H85_4 C104_4 1_555 1_555
N2_4 C14_4 1_555 1_555
C14_4 H9_4 1_555 1_555
H10_4 C14_4 1_555 1_555
C15_4 C14_4 1_555 1_555
H11_4 C15_4 1_555 1_555
H12_4 C15_4 1_555 1_555
C17_4 C15_4 1_555 1_555
H13_4 C17_4 1_555 1_555
O13_4 Ag6_5 1_555 1_555
N10_4 C87_4 1_555 1_555
C87_4 H63_4 1_555 1_555
H68_4 C87_4 1_555 1_555
C92_4 C87_4 1_555 1_555
H73_4 C92_4 1_555 1_555
H78_4 C92_4 1_555 1_555
C102_4 C92_4 1_555 1_555
H83_4 C102_4 1_555 1_555
N9_4 C86_4 1_555 1_555
C86_4 H62_4 1_555 1_555
H67_4 C86_4 1_555 1_555
C91_4 C86_4 1_555 1_555
H72_4 C91_4 1_555 1_555
H77_4 C91_4 1_555 1_555
C101_4 C91_4 1_555 1_555
H82_4 C101_4 1_555 1_555
N8_4 C85_4 1_555 1_555
C85_4 H61_4 1_555 1_555
H66_4 C85_4 1_555 1_555
C90_4 C85_4 1_555 1_555
H71_4 C90_4 1_555 1_555
H76_4 C90_4 1_555 1_555
C100_4 C90_4 1_555 1_555
H81_4 C100_4 1_555 1_555
Ag2_4 Ag6_8 1_555 1_555
O4_4 Ag2_4 1_555 1_555
C16_4 O4_4 1_555 1_555
H15_4 C18_4 1_555 1_555
H17_4 C18_4 1_555 1_555
O25_4 Ag2_4 1_555 1_555
O26_4 Ag2_4 1_555 1_555
C95_4 O25_4 1_555 1_555
C96_4 O26_4 1_555 1_555
H91_4 C105_4 1_555 1_555
H92_4 C106_4 1_555 1_555
H101_4 C105_4 1_555 1_555
H102_4 C106_4 1_555 1_555
H46_2 C60_2 1_555 1_555
C70_2 C60_2 1_555 1_555
H51_2 C70_2 1_555 1_555
H47_2 C61_2 1_555 1_555
C71_2 C61_2 1_555 1_555
H52_2 C71_2 1_555 1_555
H6_2 C9_2 1_555 1_555
C11_2 C9_2 1_555 1_555
H7_2 C11_2 1_555 1_555
O2_2 C3_2 1_555 1_555
O3_2 C3_2 1_555 1_555
N1_2 C4_2 1_555 1_555
C1_2 H1_2 1_555 1_555
H2_2 C1_2 1_555 1_555
C2_2 C1_2 1_555 1_555
C3_2 C12_2 1_555 1_555
C4_2 H3_2 1_555 1_555
C5_2 C2_2 1_555 1_555
C6_2 C2_2 1_555 1_555
H4_2 C6_2 1_555 1_555
C7_2 O2_2 1_555 1_555
C8_2 C4_2 1_555 1_555
H5_2 C8_2 1_555 1_555
C10_2 C7_2 1_555 1_555
C12_2 C8_2 1_555 1_555
C13_2 C5_2 1_555 1_555
H8_2 C13_2 1_555 1_555
O5_2 C10_2 1_555 1_555
C19_2 O5_2 1_555 1_555
H18_2 C19_2 1_555 1_555
H19_2 C19_2 1_555 1_555
H20_2 C19_2 1_555 1_555
O15_2 C30_2 1_555 1_555
O16_2 C31_2 1_555 1_555
O17_4 C32_4 1_555 1_555
O18_4 C33_4 1_555 1_555
O19_4 C34_4 1_555 1_555
O20_2 C30_2 1_555 1_555
O21_2 C31_2 1_555 1_555
O22_4 C32_4 1_555 1_555
O23_4 C33_4 1_555 1_555
O24_4 C34_4 1_555 1_555
N3_2 C35_2 1_555 1_555
N4_2 C36_2 1_555 1_555
N5_4 O13 1_555 1_555
N6_4 C38_4 1_555 1_555
N7_4 C39_4 1_555 1_555
C20_2 H21_2 1_555 1_555
C21_2 C5_2 1_555 1_555
C22_4 H23_4 1_555 1_555
C23_4 H24_4 1_555 1_555
C24_4 H25_4 1_555 1_555
H22_2 C21_2 1_555 1_555
H26_2 C20_2 1_555 1_555
H27_2 C21_2 1_555 1_555
H28_4 C22_4 1_555 1_555
H29_4 C23_4 1_555 1_555
H30_4 C24_4 1_555 1_555
C25_2 C20_2 1_555 1_555
C26_2 C21_2 1_555 1_555
C27_4 C22_4 1_555 1_555
C28_4 C23_4 1_555 1_555
C29_4 C24_4 1_555 1_555
C30_2 C75_2 1_555 1_555
C31_2 C76_2 1_555 1_555
C32_4 C77_4 1_555 1_555
C33_4 C78_4 1_555 1_555
C34_4 C79_4 1_555 1_555
C35_2 H31_2 1_555 1_555
C36_2 H32_2 1_555 1_555
C37_4 N5_4 1_555 1_555
C38_4 H34_4 1_555 1_555
C39_4 H35_4 1_555 1_555
H33_4 C37_4 1_555 1_555
C40_2 C1_2 1_555 1_555
C41_2 C20_2 1_555 1_555
C42_4 C24_4 1_555 1_555
C43_4 C22_4 1_555 1_555
C44_4 C23_4 1_555 1_555
C45_2 C26_2 1_555 1_555
C46_2 C25_2 1_555 1_555
C47_4 C27_4 1_555 1_555
C48_4 C29_4 1_555 1_555
C49_4 C28_4 1_555 1_555
H36_2 C45_2 1_555 1_555
H37_2 C46_2 1_555 1_555
H38_4 C47_4 1_555 1_555
H39_4 C48_4 1_555 1_555
H40_4 C49_4 1_555 1_555
C50_2 O15_2 1_555 1_555
C51_2 O16_2 1_555 1_555
C52_4 O17_4 1_555 1_555
C53_4 O18_4 1_555 1_555
C54_4 O19_4 1_555 1_555
C55_2 C35_2 1_555 1_555
C56_2 C36_2 1_555 1_555
C57_4 C37_4 1_555 1_555
C58_4 C38_4 1_555 1_555
C59_4 C39_4 1_555 1_555
H41_2 C55_2 1_555 1_555
H42_2 C56_2 1_555 1_555
H43_4 C57_4 1_555 1_555
H44_4 C58_4 1_555 1_555
H45_4 C59_4 1_555 1_555
C62_4 N5_4 1_555 1_555
C63_4 N6_4 1_555 1_555
H48_4 C62_4 1_555 1_555
H49_4 C63_4 1_555 1_555
C65_2 C50_2 1_555 1_555
C66_2 C51_2 1_555 1_555
C67_4 C52_4 1_555 1_555
C68_4 C53_4 1_555 1_555
C69_4 C54_4 1_555 1_555
C72_4 C62_4 1_555 1_555
C73_4 C63_4 1_555 1_555
H53_4 C72_4 1_555 1_555
H54_4 C73_4 1_555 1_555
C75_2 C55_2 1_555 1_555
C76_2 C56_2 1_555 1_555
C77_4 C57_4 1_555 1_555
C78_4 C58_4 1_555 1_555
C79_4 C59_4 1_555 1_555
C80_2 C41_2 1_555 1_555
C81_2 C40_2 1_555 1_555
C82_4 C42_4 1_555 1_555
C83_4 C44_4 1_555 1_555
C84_4 C43_4 1_555 1_555
H56_2 C80_2 1_555 1_555
H57_2 C81_2 1_555 1_555
H58_4 C82_4 1_555 1_555
H59_4 C83_4 1_555 1_555
H60_4 C84_4 1_555 1_555
O30_2 C65_2 1_555 1_555
O31_2 C66_2 1_555 1_555
O32_4 C67_4 1_555 1_555
O33_4 C68_4 1_555 1_555
O34_4 C69_4 1_555 1_555
C110_2 O30_2 1_555 1_555
C111_2 O31_2 1_555 1_555
C112_4 O32_4 1_555 1_555
C113_4 O33_4 1_555 1_555
C114_4 O34_4 1_555 1_555
H106_2 C110_2 1_555 1_555
H107_2 C111_2 1_555 1_555
H108_4 C112_4 1_555 1_555
H109_4 C113_4 1_555 1_555
H110_4 C114_4 1_555 1_555
H111_2 C110_2 1_555 1_555
H112_2 C111_2 1_555 1_555
H113_4 C112_4 1_555 1_555
H114_4 C113_4 1_555 1_555
H115_4 C114_4 1_555 1_555
H116_2 C110_2 1_555 1_555
H117_2 C111_2 1_555 1_555
H118_4 C112_4 1_555 1_555
H119_4 C113_4 1_555 1_555
H120_4 C114_4 1_555 1_555
C6_2 C7_2 1_555 1_555
C10_2 C13_2 1_555 1_555
C25_2 C40_2 1_555 1_555
C26_2 C41_2 1_555 1_555
C27_4 C42_4 1_555 1_555
C28_4 C43_4 1_555 1_555
C29_4 C44_4 1_555 1_555
C45_2 C50_2 1_555 1_555
C46_2 C51_2 1_555 1_555
C47_4 C52_4 1_555 1_555
C48_4 C53_4 1_555 1_555
C49_4 C54_4 1_555 1_555
C65_2 C80_2 1_555 1_555
C66_2 C81_2 1_555 1_555
C67_4 C82_4 1_555 1_555
C68_4 C83_4 1_555 1_555
C69_4 C84_4 1_555 1_555
C72_4 C77_4 1_555 1_555
C73_4 C78_4 1_555 1_555
H50_4 C64_4 1_555 1_555
C74_4 C64_4 1_555 1_555
H55_4 C74_4 1_555 1_555
O17_5 C32_5 1_555 1_555
O18_5 C33_5 1_555 1_555
O19_5 C34_5 1_555 1_555
O22_5 C32_5 1_555 1_555
O23_5 C33_5 1_555 1_555
O24_5 C34_5 1_555 1_555
N5_5 O13_2 1_555 1_555
N6_5 C38_5 1_555 1_555
N7_5 C39_5 1_555 1_555
C22_5 H23_5 1_555 1_555
C23_5 H24_5 1_555 1_555
C24_5 H25_5 1_555 1_555
H28_5 C22_5 1_555 1_555
H29_5 C23_5 1_555 1_555
H30_5 C24_5 1_555 1_555
C27_5 C22_5 1_555 1_555
C28_5 C23_5 1_555 1_555
C29_5 C24_5 1_555 1_555
C32_5 C77_5 1_555 1_555
C33_5 C78_5 1_555 1_555
C34_5 C79_5 1_555 1_555
C37_5 N5_5 1_555 1_555
C38_5 H34_5 1_555 1_555
C39_5 H35_5 1_555 1_555
H33_5 C37_5 1_555 1_555
C42_5 C24_5 1_555 1_555
C43_5 C22_5 1_555 1_555
C44_5 C23_5 1_555 1_555
C47_5 C27_5 1_555 1_555
C48_5 C29_5 1_555 1_555
C49_5 C28_5 1_555 1_555
H38_5 C47_5 1_555 1_555
H39_5 C48_5 1_555 1_555
H40_5 C49_5 1_555 1_555
C52_5 O17_5 1_555 1_555
C53_5 O18_5 1_555 1_555
C54_5 O19_5 1_555 1_555
C57_5 C37_5 1_555 1_555
C58_5 C38_5 1_555 1_555
C59_5 C39_5 1_555 1_555
H43_5 C57_5 1_555 1_555
H44_5 C58_5 1_555 1_555
H45_5 C59_5 1_555 1_555
C62_5 N5_5 1_555 1_555
C63_5 N6_5 1_555 1_555
H48_5 C62_5 1_555 1_555
H49_5 C63_5 1_555 1_555
C67_5 C52_5 1_555 1_555
C68_5 C53_5 1_555 1_555
C69_5 C54_5 1_555 1_555
C72_5 C62_5 1_555 1_555
C73_5 C63_5 1_555 1_555
H53_5 C72_5 1_555 1_555
H54_5 C73_5 1_555 1_555
C77_5 C57_5 1_555 1_555
C78_5 C58_5 1_555 1_555
C79_5 C59_5 1_555 1_555
C82_5 C42_5 1_555 1_555
C83_5 C44_5 1_555 1_555
C84_5 C43_5 1_555 1_555
H58_5 C82_5 1_555 1_555
H59_5 C83_5 1_555 1_555
H60_5 C84_5 1_555 1_555
O32_5 C67_5 1_555 1_555
O33_5 C68_5 1_555 1_555
O34_5 C69_5 1_555 1_555
C112_5 O32_5 1_555 1_555
C113_5 O33_5 1_555 1_555
C114_5 O34_5 1_555 1_555
H108_5 C112_5 1_555 1_555
H109_5 C113_5 1_555 1_555
H110_5 C114_5 1_555 1_555
H113_5 C112_5 1_555 1_555
H114_5 C113_5 1_555 1_555
H115_5 C114_5 1_555 1_555
H118_5 C112_5 1_555 1_555
H119_5 C113_5 1_555 1_555
H120_5 C114_5 1_555 1_555
C27_5 C42_5 1_555 1_555
C28_5 C43_5 1_555 1_555
C29_5 C44_5 1_555 1_555
C47_5 C52_5 1_555 1_555
C48_5 C53_5 1_555 1_555
C49_5 C54_5 1_555 1_555
C67_5 C82_5 1_555 1_555
C68_5 C83_5 1_555 1_555
C69_5 C84_5 1_555 1_555
C72_5 C77_5 1_555 1_555
C73_5 C78_5 1_555 1_555
H50_5 C64_5 1_555 1_555
C74_5 C64_5 1_555 1_555
H55_5 C74_5 1_555 1_555
O17_6 C32_6 1_555 1_555
O18_6 C33_6 1_555 1_555
O19_6 C34_6 1_555 1_555
O22_6 C32_6 1_555 1_555
O23_6 C33_6 1_555 1_555
O24_6 C34_6 1_555 1_555
N5_6 O13_3 1_555 1_555
N6_6 C38_6 1_555 1_555
N7_6 C39_6 1_555 1_555
C22_6 H23_6 1_555 1_555
C23_6 H24_6 1_555 1_555
C24_6 H25_6 1_555 1_555
H28_6 C22_6 1_555 1_555
H29_6 C23_6 1_555 1_555
H30_6 C24_6 1_555 1_555
C27_6 C22_6 1_555 1_555
C28_6 C23_6 1_555 1_555
C29_6 C24_6 1_555 1_555
C32_6 C77_6 1_555 1_555
C33_6 C78_6 1_555 1_555
C34_6 C79_6 1_555 1_555
C37_6 N5_6 1_555 1_555
C38_6 H34_6 1_555 1_555
C39_6 H35_6 1_555 1_555
H33_6 C37_6 1_555 1_555
C42_6 C24_6 1_555 1_555
C43_6 C22_6 1_555 1_555
C44_6 C23_6 1_555 1_555
C47_6 C27_6 1_555 1_555
C48_6 C29_6 1_555 1_555
C49_6 C28_6 1_555 1_555
H38_6 C47_6 1_555 1_555
H39_6 C48_6 1_555 1_555
H40_6 C49_6 1_555 1_555
C52_6 O17_6 1_555 1_555
C53_6 O18_6 1_555 1_555
C54_6 O19_6 1_555 1_555
C57_6 C37_6 1_555 1_555
C58_6 C38_6 1_555 1_555
C59_6 C39_6 1_555 1_555
H43_6 C57_6 1_555 1_555
H44_6 C58_6 1_555 1_555
H45_6 C59_6 1_555 1_555
C62_6 N5_6 1_555 1_555
C63_6 N6_6 1_555 1_555
H48_6 C62_6 1_555 1_555
H49_6 C63_6 1_555 1_555
C67_6 C52_6 1_555 1_555
C68_6 C53_6 1_555 1_555
C69_6 C54_6 1_555 1_555
C72_6 C62_6 1_555 1_555
C73_6 C63_6 1_555 1_555
H53_6 C72_6 1_555 1_555
H54_6 C73_6 1_555 1_555
C77_6 C57_6 1_555 1_555
C78_6 C58_6 1_555 1_555
C79_6 C59_6 1_555 1_555
C82_6 C42_6 1_555 1_555
C83_6 C44_6 1_555 1_555
C84_6 C43_6 1_555 1_555
H58_6 C82_6 1_555 1_555
H59_6 C83_6 1_555 1_555
H60_6 C84_6 1_555 1_555
O32_6 C67_6 1_555 1_555
O33_6 C68_6 1_555 1_555
O34_6 C69_6 1_555 1_555
C112_6 O32_6 1_555 1_555
C113_6 O33_6 1_555 1_555
C114_6 O34_6 1_555 1_555
H108_6 C112_6 1_555 1_555
H109_6 C113_6 1_555 1_555
H110_6 C114_6 1_555 1_555
H113_6 C112_6 1_555 1_555
H114_6 C113_6 1_555 1_555
H115_6 C114_6 1_555 1_555
H118_6 C112_6 1_555 1_555
H119_6 C113_6 1_555 1_555
H120_6 C114_6 1_555 1_555
C27_6 C42_6 1_555 1_555
C28_6 C43_6 1_555 1_555
C29_6 C44_6 1_555 1_555
C47_6 C52_6 1_555 1_555
C48_6 C53_6 1_555 1_555
C49_6 C54_6 1_555 1_555
C67_6 C82_6 1_555 1_555
C68_6 C83_6 1_555 1_555
C69_6 C84_6 1_555 1_555
C72_6 C77_6 1_555 1_555
C73_6 C78_6 1_555 1_555
H50_6 C64_6 1_555 1_555
C74_6 C64_6 1_555 1_555
H55_6 C74_6 1_555 1_555
Cl1 O35 1_555 1_555
O36 Cl1 1_555 1_555
O37 Cl1 1_555 1_555
O38 Cl1 1_555 1_555
Cl1_2 O35_2 1_555 1_555
O36_2 Cl1_2 1_555 1_555
O37_2 Cl1_2 1_555 1_555
O38_2 Cl1_2 1_555 1_555
Cl1_3 O35_3 1_555 1_555
O36_3 Cl1_3 1_555 1_555
O37_3 Cl1_3 1_555 1_555
O38_3 Cl1_3 1_555 1_555
Cl1_4 O35_4 1_555 1_555
O36_4 Cl1_4 1_555 1_555
Cl1_5 O35_5 1_555 1_555
O36_5 Cl1_5 1_555 1_555
O37_5 Cl1_5 1_555 1_555
O38_5 Cl1_5 1_555 1_555
Cl1_6 O35_6 1_555 1_555
O36_6 Cl1_6 1_555 1_555
O37_6 Cl1_6 1_555 1_555
O38_6 Cl1_6 1_555 1_555
Cl1_7 O35_7 1_555 1_555
O36_7 Cl1_7 1_555 1_555
Cl1_8 O35_8 1_555 1_555
O36_8 Cl1_8 1_555 1_555
Cl1_9 O35_9 1_555 1_555
O36_9 Cl1_9 1_555 1_555
Cl1_10 O35_10 1_555 1_555
O36_10 Cl1_10 1_555 1_555
O37_10 Cl1_10 1_555 1_555
O38_10 Cl1_10 1_555 1_555
Cl1_11 O35_11 1_555 1_555
O36_11 Cl1_11 1_555 1_555
Cl1_12 O35_12 1_555 1_555
O36_12 Cl1_12 1_555 1_555
Cl1_13 O35_13 1_555 1_555
O36_13 Cl1_13 1_555 1_555
O37_13 Cl1_13 1_555 1_555
O38_13 Cl1_13 1_555 1_555
Cl1_14 O35_14 1_555 1_555
O36_14 Cl1_14 1_555 1_555
O37_14 Cl1_14 1_555 1_555
O38_14 Cl1_14 1_555 1_555
Cl1_15 O35_15 1_555 1_555
O36_15 Cl1_15 1_555 1_555
O37_15 Cl1_15 1_555 1_555
O38_15 Cl1_15 1_555 1_555
Cl1_16 O35_16 1_555 1_555
O36_16 Cl1_16 1_555 1_555
Cl1_17 O35_17 1_555 1_555
O36_17 Cl1_17 1_555 1_555
O37_17 Cl1_17 1_555 1_555
O38_17 Cl1_17 1_555 1_555
Cl1_18 O35_18 1_555 1_555
O36_18 Cl1_18 1_555 1_555
O37_18 Cl1_18 1_555 1_555
O38_18 Cl1_18 1_555 1_555
Cl1_19 O35_19 1_555 1_555
O36_19 Cl1_19 1_555 1_555
Cl1_20 O35_20 1_555 1_555
O36_20 Cl1_20 1_555 1_555
Cl1_21 O35_21 1_555 1_555
O36_21 Cl1_21 1_555 1_555
Cl1_22 O35_22 1_555 1_555
O36_22 Cl1_22 1_555 1_555
O37_22 Cl1_22 1_555 1_555
O38_22 Cl1_22 1_555 1_555
Cl1_23 O35_23 1_555 1_555
O36_23 Cl1_23 1_555 1_555
Cl1_24 O35_24 1_555 1_555
O36_24 Cl1_24 1_555 1_555

#END
