
###############################################################################
#
# This file contains modified crystal structure data generated from the
# MOF subset of the Cambridge Structural Database (CSD) v543 
# hosted by the Cambridge Crystallographic Data Centre (CCDC).
#
# This work is licensed under the Creative Commons
# Attribution-NonCommercial-ShareAlike 4.0 International License.
# To view a copy of this license, visit
# http://creativecommons.org/licenses/by-nc-sa/4.0/
# or send a letter to
# Creative Commons, PO Box 1866, Mountain View, CA 94042, USA.
#
# CIF created using the CSD Python API on 29 September 2022
# The structure has been converted into the P1 space group
# The structure has a 3D framework
# The original CSD entry REKPUV is in the triclinic crystal system
# The framework has been calculated to contain at least 10.0% void space
# The void calculation uses a probe of radius 1.32A, grid spacing 0.4
#
###############################################################################

data_REKPUV
_chemical_formula_moiety         '(C14 H20 Cu3 Mo8 N12 O28)n'
_symmetry_cell_setting           triclinic
_symmetry_space_group_name_H-M   'P 1'
_symmetry_Int_Tables_number      1
_space_group_name_Hall           'P 1'
loop_
_symmetry_equiv_pos_site_id
_symmetry_equiv_pos_as_xyz
1 x,y,z
_cell_length_a                   10.2729(10)
_cell_length_b                   11.2543(10)
_cell_length_c                   12.2015(11)
_cell_angle_alpha                80.366(9)
_cell_angle_beta                 69.307(10)
_cell_angle_gamma                63.188(10)
_cell_volume                     1177.73
loop_
_atom_site_label
_atom_site_type_symbol
_atom_site_fract_x
_atom_site_fract_y
_atom_site_fract_z
Cu10 Cu 0.5000 0.0000 0.0000
Cu10_2 Cu 0.5000 0.0000 1.0000
Mo1 Mo 0.23808(5) 0.19689(4) 0.50254(4)
Mo2 Mo 0.12073(4) 0.09789(4) 0.26772(3)
O1 O 0.4310(3) 0.0604(3) 0.4194(3)
O2 O 0.1576(3) 0.1114(3) 0.4069(3)
O3 O 0.1995(3) 0.0202(3) 0.6024(3)
O4 O 0.3079(4) 0.2136(3) 0.6057(3)
O5 O 0.2220(4) 0.3326(3) 0.4105(3)
O6 O 0.3118(3) 0.0173(3) 0.1823(3)
O8 O 0.0307(4) 0.0209(3) 0.2075(3)
O9 O 0.0612(4) 0.2558(3) 0.2125(3)
N1 N 0.5893(4) 0.0514(4) 0.1874(3)
N2 N 0.5913(4) 0.0741(4) 0.0731(3)
N3 N 0.7145(4) 0.1724(4) 0.1030(3)
N4 N 0.6012(4) 0.7957(4) 0.1811(3)
N5 N 0.6091(4) 0.8181(4) 0.0640(3)
N6 N 0.7327(4) 0.6052(4) 0.0925(3)
C1 C 0.6629(5) 0.1119(4) 0.2051(4)
H1 H 0.6779 0.1136 0.2764
C2 C 0.6668(5) 0.1468(4) 0.0247(4)
C3 C 0.6760(6) 0.6680(5) 0.1944(4)
H3 H 0.6886 0.6258 0.2657
C4 C 0.6886(5) 0.7021(4) 0.0140(4)
C5 C 0.8092(5) 0.2461(4) 0.0832(4)
H5 H 0.8844 0.2267 0.0045
H6 H 0.8659 0.2153 0.1399
C6 C 0.7137(6) 0.3941(5) 0.0951(5)
H7 H 0.6398 0.4151 0.1741
H8 H 0.6564 0.4263 0.0387
C7 C 0.8208(5) 0.4612(4) 0.0717(5)
H9 H 0.8850 0.4220 0.1232
O24 O 0.0207(3) 0.2642(3) 0.5998(3)
O25 O 0.0557(4) 0.1659(3) 0.8179(3)
Cu5 Cu 0.50401(6) 0.93464(5) 0.30088(5)
Cu7 Cu 0.49599(6) 0.06536(5) 0.69912(5)
Cu10_3 Cu 0.5000 1.0000 0.0000
H2 H 0.6850 0.1766 0.9464
H4 H 0.7120 0.6878 0.9342
H10 H 0.8887 0.4457 0.9904
Cu10_4 Cu 0.5000 1.0000 1.0000
N17 N 0.3909(4) 0.1819(4) 0.9360(3)
Mo3 Mo 0.03046(5) 0.84798(4) 0.27310(4)
Mo4 Mo 0.18509(4) 0.92545(4) 0.50105(3)
O7 O 0.0704(3) 0.9436(3) 0.3981(3)
O12 O 0.2218(4) 0.7449(3) 0.2160(3)
O13 O 0.3747(3) 0.8436(3) 0.4104(3)
O14 O 0.1441(4) 0.8047(3) 0.5958(3)
O30 O 0.6921(4) 0.7864(3) 0.3943(3)
O31 O 0.6882(3) 0.9827(3) 0.8177(3)
N13 N 0.4087(4) 0.9259(4) 0.9269(3)
Mo7 Mo 0.96954(5) 0.15202(4) 0.72690(4)
Mo8 Mo 0.81491(4) 0.07455(4) 0.49895(3)
O21 O 0.9296(3) 0.0564(3) 0.6019(3)
O26 O 0.7782(4) 0.2551(3) 0.7840(3)
O27 O 0.6253(3) 0.1564(3) 0.5896(3)
O28 O 0.8559(4) 0.1953(3) 0.4042(3)
N15 N 0.3988(4) 0.2043(4) 0.8189(3)
H12 H 0.3150 0.8234 0.0536
H14 H 0.2880 0.3122 0.0658
H20 H 0.1113 0.5543 0.0096
O10 O 0.9793(3) 0.7358(3) 0.4002(3)
O11 O 0.9443(4) 0.8341(3) 0.1821(3)
Mo5 Mo 0.76192(5) 0.80311(4) 0.49746(4)
Mo6 Mo 0.87927(4) 0.90211(4) 0.73228(3)
O15 O 0.5690(3) 0.9396(3) 0.5806(3)
O16 O 0.8424(3) 0.8886(3) 0.5931(3)
O17 O 0.8005(3) 0.9798(3) 0.3976(3)
O19 O 0.7780(4) 0.6674(3) 0.5895(3)
O22 O 0.9693(4) 0.9791(3) 0.7925(3)
O23 O 0.9388(4) 0.7442(3) 0.7875(3)
N7 N 0.4107(4) 0.9486(4) 0.8126(3)
N9 N 0.2855(4) 0.8276(4) 0.8970(3)
N12 N 0.2673(4) 0.3948(4) 0.9075(3)
C8 C 0.3371(5) 0.8881(4) 0.7949(4)
H11 H 0.3221 0.8864 0.7236
C9 C 0.3332(5) 0.8532(4) 0.9753(4)
C10 C 0.3240(6) 0.3320(5) 0.8056(4)
H13 H 0.3114 0.3742 0.7343
C11 C 0.3114(5) 0.2979(4) 0.9860(4)
C12 C 0.1908(5) 0.7539(4) 0.9168(4)
H15 H 0.1156 0.7733 0.9955
H16 H 0.1341 0.7847 0.8601
C13 C 0.2863(6) 0.6059(5) 0.9049(5)
H17 H 0.3602 0.5849 0.8259
H18 H 0.3436 0.5737 0.9613
C14 C 0.1792(5) 0.5388(4) 0.9283(5)
H19 H 0.1150 0.5780 0.8768
loop_
_geom_bond_atom_site_label_1
_geom_bond_atom_site_label_2
_geom_bond_site_symmetry_1
_geom_bond_site_symmetry_2
Mo1 O1 1_555 1_555
Mo2 O2 1_555 1_555
Cu10 O6 1_555 1_555
O2 Mo1 1_555 1_555
O3 Mo1 1_555 1_555
O4 Mo1 1_555 1_555
O5 Mo1 1_555 1_555
O6 Mo2 1_555 1_555
O8 Mo2 1_555 1_555
O9 Mo2 1_555 1_555
N2 Cu10 1_555 1_555
N3 C1 1_555 1_555
N4 N5 1_555 1_555
N5 C4 1_555 1_555
N6 C3 1_555 1_555
C1 N1 1_555 1_555
H1 C1 1_555 1_555
C2 N2 1_555 1_555
C3 N4 1_555 1_555
H3 C3 1_555 1_555
C4 N6 1_555 1_555
C5 N3 1_555 1_555
H5 C5 1_555 1_555
H6 C5 1_555 1_555
C6 C5 1_555 1_555
H7 C6 1_555 1_555
H8 C6 1_555 1_555
C7 N6 1_555 1_555
H9 C7 1_555 1_555
O24 Mo1 1_555 1_555
Cu5 N4 1_555 1_555
Cu7 O4 1_555 1_555
Cu10_3 N5 1_555 1_555
N1 N2 1_555 1_555
N3 C2 1_555 1_555
C6 C7 1_555 1_555
N17 Cu10_2 1_555 1_555
Mo3 O7 1_555 1_555
O12 Mo3 1_555 1_555
O13 Mo4 1_555 1_555
O14 Mo4 1_555 1_555
O30 Cu5 1_555 1_555
Mo4 O7 1_555 1_555
Cu5 O13 1_555 1_555
O31 Cu10_4 1_555 1_555
N13 Cu10_4 1_555 1_555
O26 Mo7 1_555 1_555
O27 Mo8 1_555 1_555
N15 Cu7 1_555 1_555
Mo7 O21 1_555 1_555
Mo8 O21 1_555 1_555
Mo8 O28 1_555 1_555
Cu7 O27 1_555 1_555
Mo5 O10 1_555 1_555
O15 Mo5 1_555 1_555
O16 Mo5 1_555 1_555
O30 Mo5 1_555 1_555
O19 Mo5 1_555 1_555
O31 Mo6 1_555 1_555
O22 Mo6 1_555 1_555
O23 Mo6 1_555 1_555
N13 N7 1_555 1_555
N9 C8 1_555 1_555
N15 N17 1_555 1_555
N17 C11 1_555 1_555
N12 C10 1_555 1_555
C8 N7 1_555 1_555
H11 C8 1_555 1_555
C9 N13 1_555 1_555
C10 N15 1_555 1_555
H13 C10 1_555 1_555
C11 N12 1_555 1_555
C12 N9 1_555 1_555
H15 C12 1_555 1_555
H16 C12 1_555 1_555
C13 C12 1_555 1_555
H17 C13 1_555 1_555
H18 C13 1_555 1_555
C14 N12 1_555 1_555
H19 C14 1_555 1_555
Mo5 O17 1_555 1_555
Mo6 O16 1_555 1_555
N9 C9 1_555 1_555
C13 C14 1_555 1_555

#END
