
###############################################################################
#
# This file contains modified crystal structure data generated from the
# MOF subset of the Cambridge Structural Database (CSD) v543 
# hosted by the Cambridge Crystallographic Data Centre (CCDC).
#
# This work is licensed under the Creative Commons
# Attribution-NonCommercial-ShareAlike 4.0 International License.
# To view a copy of this license, visit
# http://creativecommons.org/licenses/by-nc-sa/4.0/
# or send a letter to
# Creative Commons, PO Box 1866, Mountain View, CA 94042, USA.
#
# CIF created using the CSD Python API on 29 September 2022
# The structure has been converted into the P1 space group
# The structure has a 3D framework
# The original CSD entry RENHAW is in the tetragonal crystal system
# The framework has been calculated to contain at least 10.0% void space
# The void calculation uses a probe of radius 1.32A, grid spacing 0.4
# The framework is charged, counterions have been retained in the structure
#
###############################################################################

data_RENHAW
_chemical_formula_moiety         '(C296 H224 Ag4 N64 4+)n'
_symmetry_cell_setting           triclinic
_symmetry_space_group_name_H-M   'P 1'
_symmetry_Int_Tables_number      1
_space_group_name_Hall           'P 1'
loop_
_symmetry_equiv_pos_site_id
_symmetry_equiv_pos_as_xyz
1 x,y,z
_cell_length_a                   15.784(3)
_cell_length_b                   15.784(3)
_cell_length_c                   31.144(5)
_cell_angle_alpha                90
_cell_angle_beta                 90
_cell_angle_gamma                90
_cell_volume                     7759.05
loop_
_atom_site_label
_atom_site_type_symbol
_atom_site_fract_x
_atom_site_fract_y
_atom_site_fract_z
H6 H 0.2727 0.0124 0.6945
N3 N 0.4265(5) 0.0106(5) 0.82255(16)
C18 C 0.3616(8) 0.0636(6) 0.8147(2)
H13 H 0.3455 0.1079 0.8326
C19 C 0.3218(7) 0.0428(5) 0.7760(2)
H14 H 0.2744 0.0679 0.7635
Ag2 Ag 0.00216(5) 0.00286(5) 0.37878(3)
Ag4 Ag 0.49714(5) 0.00216(5) 0.87878(3)
N10 N 0.0106(5) 0.0735(5) 0.32255(16)
H20 H 0.0124 0.2273 0.1945
C36 C 0.0636(6) 0.1384(8) 0.3147(2)
H27 H 0.1079 0.1545 0.3326
C37 C 0.0428(5) 0.1782(7) 0.2760(2)
H28 H 0.0679 0.2256 0.2635
N1 N 0.8844(3) 0.4771(4) 0.99964(16)
C10 C 0.9266(4) 0.4478(5) 0.96586(19)
H7 H 0.9444 0.3921 0.9623
N4 N 0.9395(4) 0.5101(5) 0.9380(2)
C15 C 0.8697(4) 0.5573(5) 0.9957(2)
C17 C 0.9056(6) 0.5778(6) 0.9550(3)
H12 H 0.9051 0.6313 0.9425
N5 N 0.6156(3) 0.0229(4) 0.99964(16)
C29 C 0.5734(4) 0.0522(5) 0.96586(19)
H21 H 0.5556 0.1079 0.9623
Ag1 Ag 0.49784(5) 0.49714(5) 0.37878(3)
N1_2 N 0.4771(4) 0.6156(3) 0.49964(16)
N2 N 0.3689(4) 0.9775(4) 0.76106(17)
C1 C 0.2879(4) 0.8166(3) 0.65887(14)
C2 C 0.3986(4) 0.7375(3) 0.59492(15)
H1 H 0.4194 0.7772 0.6143
C3 C 0.3162(3) 0.7123(3) 0.59814(12)
C4 C 0.2608(4) 0.9005(3) 0.66196(17)
H2 H 0.2211 0.9202 0.6423
C5 C 0.2906(4) 0.6471(4) 0.57018(15)
H3 H 0.2365 0.6243 0.5730
C6 C 0.4519(4) 0.7057(4) 0.56366(18)
H4 H 0.5078 0.7240 0.5622
C7 C 0.3484(4) 0.7898(4) 0.68878(13)
H5 H 0.3695 0.7349 0.6875
C8 C 0.4220(4) 0.6461(3) 0.53436(14)
C9 C 0.2905(4) 0.9563(4) 0.69330(18)
C10_2 C 0.4478(5) 0.5734(4) 0.46586(19)
H7_2 H 0.3921 0.5556 0.4623
C11 C 0.3498(4) 0.9226(4) 0.72354(16)
C12 C 0.2500 0.7500 0.62866(18)
C13 C 0.4296(6) 0.9584(5) 0.7889(2)
H8 H 0.4687 0.9149 0.7854
N4_2 N 0.5101(5) 0.5605(4) 0.4380(2)
C14 C 0.3434(4) 0.6163(4) 0.53896(17)
H9 H 0.3241 0.5739 0.5207
C15_2 C 0.5573(5) 0.6303(4) 0.4957(2)
H10 H 0.5932 0.6578 0.5149
C16 C 0.3769(5) 0.8445(4) 0.72018(16)
H11 H 0.4170 0.8251 0.7397
C17_2 C 0.5778(6) 0.5944(6) 0.4550(3)
H12_2 H 0.6313 0.5949 0.4425
N5_2 N 0.0229(4) 0.8844(3) 0.49964(16)
N6 N 0.1311(4) 0.5225(4) 0.76106(17)
C20 C 0.2121(4) 0.6834(3) 0.65887(14)
C21 C 0.1014(4) 0.7625(3) 0.59492(15)
H15 H 0.0806 0.7228 0.6143
C22 C 0.1838(3) 0.7877(3) 0.59814(12)
C23 C 0.2392(4) 0.5995(3) 0.66196(17)
H16 H 0.2789 0.5798 0.6423
C24 C 0.2094(4) 0.8529(4) 0.57018(15)
H17 H 0.2635 0.8757 0.5730
C25 C 0.0481(4) 0.7943(4) 0.56366(18)
C26 C 0.1516(4) 0.7102(4) 0.68878(13)
H19 H 0.1305 0.7651 0.6875
C27 C 0.0780(4) 0.8539(3) 0.53436(14)
C28 C 0.2095(4) 0.5437(4) 0.69330(18)
H20_2 H 0.2273 0.4876 0.6945
C29_2 C 0.0522(5) 0.9266(4) 0.46586(19)
H21_2 H 0.1079 0.9444 0.4623
C30 C 0.1502(4) 0.5774(4) 0.72354(16)
N7 N 0.0735(5) 0.4894(5) 0.82255(16)
C31 C 0.0704(6) 0.5416(5) 0.7889(2)
H22 H 0.0313 0.5851 0.7854
C32 C 0.1566(4) 0.8837(4) 0.53896(17)
H23 H 0.1759 0.9261 0.5207
C34 C 0.1231(5) 0.6555(4) 0.72018(16)
H25 H 0.0830 0.6749 0.7397
C36_2 C 0.1384(8) 0.4364(6) 0.8147(2)
H27_2 H 0.1545 0.3921 0.8326
C37_2 C 0.1782(7) 0.4572(5) 0.7760(2)
H28_2 H 0.2256 0.4321 0.7635
Ag3 Ag 0.00286(5) 0.49784(5) 0.87878(3)
N9 N 0.4894(5) 0.4265(5) 0.32255(16)
N2_2 N 0.5225(4) 0.3689(4) 0.26106(17)
C1_2 C 0.6834(3) 0.2879(4) 0.15887(14)
C2_2 C 0.7625(3) 0.3986(4) 0.09492(15)
H1_2 H 0.7228 0.4194 0.1143
C3_2 C 0.7877(3) 0.3162(3) 0.09814(12)
C4_2 C 0.5995(3) 0.2608(4) 0.16196(17)
H2_2 H 0.5798 0.2211 0.1423
C5_2 C 0.8529(4) 0.2906(4) 0.07018(15)
H3_2 H 0.8757 0.2365 0.0730
C6_2 C 0.7943(4) 0.4519(4) 0.06366(18)
H4_2 H 0.7760 0.5078 0.0622
C7_2 C 0.7102(4) 0.3484(4) 0.18878(13)
H5_2 H 0.7651 0.3695 0.1875
C8_2 C 0.8539(3) 0.4220(4) 0.03436(14)
C9_2 C 0.5437(4) 0.2905(4) 0.19330(18)
H6_2 H 0.4876 0.2727 0.1945
C11_2 C 0.5774(4) 0.3498(4) 0.22354(16)
C12_2 C 0.7500 0.2500 0.12866(18)
C13_2 C 0.5416(5) 0.4296(6) 0.2889(2)
H8_2 H 0.5851 0.4687 0.2854
C14_2 C 0.8837(4) 0.3434(4) 0.03896(17)
H9_2 H 0.9261 0.3241 0.0207
H10_2 H 0.8422 0.5932 0.0149
C16_2 C 0.6555(4) 0.3769(5) 0.22018(16)
H11_2 H 0.6749 0.4170 0.2397
C18_2 C 0.4364(6) 0.3616(8) 0.3147(2)
H13_2 H 0.3921 0.3455 0.3326
C19_2 C 0.4572(5) 0.3218(7) 0.2760(2)
H14_2 H 0.4321 0.2744 0.2635
N6_2 N 0.9775(4) 0.1311(4) 0.26106(17)
C20_2 C 0.8166(3) 0.2121(4) 0.15887(14)
C21_2 C 0.7375(3) 0.1014(4) 0.09492(15)
H15_2 H 0.7772 0.0806 0.1143
C22_2 C 0.7123(3) 0.1838(3) 0.09814(12)
C23_2 C 0.9005(3) 0.2392(4) 0.16196(17)
H16_2 H 0.9202 0.2789 0.1423
C24_2 C 0.6471(4) 0.2094(4) 0.07018(15)
H17_2 H 0.6243 0.2635 0.0730
C25_2 C 0.7057(4) 0.0481(4) 0.06366(18)
C26_2 C 0.7898(4) 0.1516(4) 0.18878(13)
H19_2 H 0.7349 0.1305 0.1875
C27_2 C 0.6461(3) 0.0780(4) 0.03436(14)
C28_2 C 0.9563(4) 0.2095(4) 0.19330(18)
C30_2 C 0.9226(4) 0.1502(4) 0.22354(16)
C31_2 C 0.9584(5) 0.0704(6) 0.2889(2)
H22_2 H 0.9149 0.0313 0.2854
C32_2 C 0.6163(4) 0.1566(4) 0.03896(17)
H23_2 H 0.5739 0.1759 0.0207
C34_2 C 0.8445(4) 0.1231(5) 0.22018(16)
H25_2 H 0.8251 0.0830 0.2397
H18 H 0.9922 0.7760 0.5622
N8 N 0.9899(5) 0.9395(4) 0.4380(2)
C33 C 0.9427(5) 0.8697(4) 0.4957(2)
H24 H 0.9068 0.8422 0.5149
C35 C 0.9222(6) 0.9056(6) 0.4550(3)
H26 H 0.8687 0.9051 0.4425
H18_2 H 0.7240 0.9922 0.0622
H24_2 H 0.6578 0.9068 0.0149
N8_2 N 0.5605(4) 0.9899(5) 0.9380(2)
C33_2 C 0.6303(4) 0.9427(5) 0.9957(2)
C35_2 C 0.5944(6) 0.9222(6) 0.9550(3)
H26_2 H 0.5949 0.8687 0.9425
H6_3 H 0.2273 0.0124 0.3055
N3_2 N 0.0735(5) 0.0106(5) 0.17745(16)
C18_3 C 0.1384(8) 0.0636(6) 0.1853(2)
H13_3 H 0.1545 0.1079 0.1674
C19_3 C 0.1782(7) 0.0428(5) 0.2240(2)
H14_3 H 0.2256 0.0679 0.2365
Ag2_2 Ag 0.49784(5) 0.00286(5) 0.62122(3)
Ag4_2 Ag 0.00286(5) 0.00216(5) 0.12122(3)
N10_2 N 0.4894(5) 0.0735(5) 0.67745(16)
N2_3 N 0.9775(4) 0.3689(4) 0.73894(17)
C1_3 C 0.8166(3) 0.2879(4) 0.84113(14)
C2_3 C 0.7375(3) 0.3986(4) 0.90508(15)
H1_3 H 0.7772 0.4194 0.8857
C3_3 C 0.7123(3) 0.3162(3) 0.90186(12)
C4_3 C 0.9005(3) 0.2608(4) 0.83804(17)
H2_3 H 0.9202 0.2211 0.8577
C5_3 C 0.6471(4) 0.2906(4) 0.92982(15)
H3_3 H 0.6243 0.2365 0.9270
C6_3 C 0.7057(4) 0.4519(4) 0.93634(18)
H4_3 H 0.7240 0.5078 0.9378
C7_3 C 0.7898(4) 0.3484(4) 0.81122(13)
H5_3 H 0.7349 0.3695 0.8125
C8_3 C 0.6461(3) 0.4220(4) 0.96564(14)
C9_3 C 0.9563(4) 0.2905(4) 0.80670(18)
C11_3 C 0.9226(4) 0.3498(4) 0.77646(16)
C12_3 C 0.7500 0.2500 0.87134(18)
C13_3 C 0.9584(5) 0.4296(6) 0.7111(2)
H8_3 H 0.9149 0.4687 0.7146
C14_3 C 0.6163(4) 0.3434(4) 0.96104(17)
H9_3 H 0.5739 0.3241 0.9793
H10_3 H 0.6578 0.5932 0.9851
C16_3 C 0.8445(4) 0.3769(5) 0.77982(16)
H11_3 H 0.8251 0.4170 0.7603
N6_3 N 0.5225(4) 0.1311(4) 0.73894(17)
C20_3 C 0.6834(3) 0.2121(4) 0.84113(14)
C21_3 C 0.7625(3) 0.1014(4) 0.90508(15)
H15_3 H 0.7228 0.0806 0.8857
C22_3 C 0.7877(3) 0.1838(3) 0.90186(12)
C23_3 C 0.5995(3) 0.2392(4) 0.83804(17)
H16_3 H 0.5798 0.2789 0.8577
C24_3 C 0.8529(4) 0.2094(4) 0.92982(15)
H17_3 H 0.8757 0.2635 0.9270
C25_3 C 0.7943(4) 0.0481(4) 0.93634(18)
C26_3 C 0.7102(4) 0.1516(4) 0.81122(13)
H19_3 H 0.7651 0.1305 0.8125
C27_3 C 0.8539(3) 0.0780(4) 0.96564(14)
C28_3 C 0.5437(4) 0.2095(4) 0.80670(18)
H20_3 H 0.4876 0.2273 0.8055
C30_3 C 0.5774(4) 0.1502(4) 0.77646(16)
C31_3 C 0.5416(5) 0.0704(6) 0.7111(2)
H22_3 H 0.5851 0.0313 0.7146
C32_3 C 0.8837(4) 0.1566(4) 0.96104(17)
H23_3 H 0.9261 0.1759 0.9793
C34_3 C 0.6555(4) 0.1231(5) 0.77982(16)
H25_3 H 0.6749 0.0830 0.7603
C36_3 C 0.4364(6) 0.1384(8) 0.6853(2)
H27_3 H 0.3921 0.1545 0.6674
C37_3 C 0.4572(5) 0.1782(7) 0.7240(2)
H28_3 H 0.4321 0.2256 0.7365
Ag1_2 Ag 0.00216(5) 0.49714(5) 0.62122(3)
N1_3 N 0.0229(4) 0.6156(3) 0.50036(16)
N2_4 N 0.1311(4) 0.9775(4) 0.23894(17)
C1_4 C 0.2121(4) 0.8166(3) 0.34113(14)
C2_4 C 0.1014(4) 0.7375(3) 0.40508(15)
H1_4 H 0.0806 0.7772 0.3857
C3_4 C 0.1838(3) 0.7123(3) 0.40186(12)
C4_4 C 0.2392(4) 0.9005(3) 0.33804(17)
H2_4 H 0.2789 0.9202 0.3577
C5_4 C 0.2094(4) 0.6471(4) 0.42982(15)
H3_4 H 0.2635 0.6243 0.4270
C6_4 C 0.0481(4) 0.7057(4) 0.43634(18)
C7_4 C 0.1516(4) 0.7898(4) 0.31122(13)
H5_4 H 0.1305 0.7349 0.3125
C8_4 C 0.0780(4) 0.6461(3) 0.46564(14)
C9_4 C 0.2095(4) 0.9563(4) 0.30670(18)
C10_3 C 0.0522(5) 0.5734(4) 0.53414(19)
H7_3 H 0.1079 0.5556 0.5377
C11_4 C 0.1502(4) 0.9226(4) 0.27646(16)
C12_4 C 0.2500 0.7500 0.37134(18)
C13_4 C 0.0704(6) 0.9584(5) 0.2111(2)
H8_4 H 0.0313 0.9149 0.2146
C14_4 C 0.1566(4) 0.6163(4) 0.46104(17)
H9_4 H 0.1759 0.5739 0.4793
C16_4 C 0.1231(5) 0.8445(4) 0.27982(16)
H11_4 H 0.0830 0.8251 0.2603
N5_3 N 0.4771(4) 0.8844(3) 0.50036(16)
N6_4 N 0.3689(4) 0.5225(4) 0.23894(17)
C20_4 C 0.2879(4) 0.6834(3) 0.34113(14)
C21_4 C 0.3986(4) 0.7625(3) 0.40508(15)
H15_4 H 0.4194 0.7228 0.3857
C22_4 C 0.3162(3) 0.7877(3) 0.40186(12)
C23_4 C 0.2608(4) 0.5995(3) 0.33804(17)
H16_4 H 0.2211 0.5798 0.3577
C24_4 C 0.2906(4) 0.8529(4) 0.42982(15)
H17_4 H 0.2365 0.8757 0.4270
C25_4 C 0.4519(4) 0.7943(4) 0.43634(18)
H18_3 H 0.5078 0.7760 0.4378
C26_4 C 0.3484(4) 0.7102(4) 0.31122(13)
H19_4 H 0.3695 0.7651 0.3125
C27_4 C 0.4220(4) 0.8539(3) 0.46564(14)
C28_4 C 0.2905(4) 0.5437(4) 0.30670(18)
H20_4 H 0.2727 0.4876 0.3055
C29_3 C 0.4478(5) 0.9266(4) 0.53414(19)
H21_3 H 0.3921 0.9444 0.5377
C30_4 C 0.3498(4) 0.5774(4) 0.27646(16)
N7_2 N 0.4265(5) 0.4894(5) 0.17745(16)
C31_4 C 0.4296(6) 0.5416(5) 0.2111(2)
H22_4 H 0.4687 0.5851 0.2146
N8_3 N 0.5101(5) 0.9395(4) 0.5620(2)
C32_4 C 0.3434(4) 0.8837(4) 0.46104(17)
H23_4 H 0.3241 0.9261 0.4793
C33_3 C 0.5573(5) 0.8697(4) 0.5043(2)
H24_3 H 0.5932 0.8422 0.4851
C34_4 C 0.3769(5) 0.6555(4) 0.27982(16)
H25_4 H 0.4170 0.6749 0.2603
C35_3 C 0.5778(6) 0.9056(6) 0.5450(3)
H26_3 H 0.6313 0.9051 0.5575
C36_4 C 0.3616(8) 0.4364(6) 0.1853(2)
H27_4 H 0.3455 0.3921 0.1674
C37_4 C 0.3218(7) 0.4572(5) 0.2240(2)
H28_4 H 0.2744 0.4321 0.2365
Ag3_2 Ag 0.49714(5) 0.49784(5) 0.12122(3)
N9_2 N 0.0106(5) 0.4265(5) 0.67745(16)
H6_4 H 0.0124 0.2727 0.8055
C18_4 C 0.0636(6) 0.3616(8) 0.6853(2)
H13_4 H 0.1079 0.3455 0.6674
C19_4 C 0.0428(5) 0.3218(7) 0.7240(2)
H14_4 H 0.0679 0.2744 0.7365
N1_4 N 0.6156(3) 0.4771(4) 0.00036(16)
C10_4 C 0.5734(4) 0.4478(5) 0.03414(19)
H7_4 H 0.5556 0.3921 0.0377
N4_3 N 0.5605(4) 0.5101(5) 0.0620(2)
C15_3 C 0.6303(4) 0.5573(5) 0.0043(2)
C17_3 C 0.5944(6) 0.5778(6) 0.0450(3)
H12_3 H 0.5949 0.6313 0.0575
N5_4 N 0.8844(3) 0.0229(4) 0.00036(16)
C29_4 C 0.9266(4) 0.0522(5) 0.03414(19)
H21_4 H 0.9444 0.1079 0.0377
H4_4 H 0.9922 0.7240 0.4378
N4_4 N 0.9899(5) 0.5605(4) 0.5620(2)
C15_4 C 0.9427(5) 0.6303(4) 0.5043(2)
H10_4 H 0.9068 0.6578 0.4851
C17_4 C 0.9222(6) 0.5944(6) 0.5450(3)
H12_4 H 0.8687 0.5949 0.5575
N8_4 N 0.9395(4) 0.9899(5) 0.0620(2)
C33_4 C 0.8697(4) 0.9427(5) 0.0043(2)
C35_4 C 0.9056(6) 0.9222(6) 0.0450(3)
H26_4 H 0.9051 0.8687 0.0575
H18_4 H 0.7760 0.9922 0.9378
H24_4 H 0.8422 0.9068 0.9851
H18_5 H 0.0078 0.2240 0.4378
N8_5 N 0.0101(5) 0.0605(4) 0.5620(2)
C33_5 C 0.0573(5) 0.1303(4) 0.5043(2)
H24_5 H 0.0932 0.1578 0.4851
C35_5 C 0.0778(6) 0.0944(6) 0.5450(3)
H26_5 H 0.1313 0.0949 0.5575
Ag1_3 Ag 0.50216(5) 0.50286(5) 0.62122(3)
N1_5 N 0.5229(4) 0.3844(3) 0.50036(16)
N2_5 N 0.6311(4) 0.0225(4) 0.23894(17)
C1_5 C 0.7121(4) 0.1834(3) 0.34113(14)
C2_5 C 0.6014(4) 0.2625(3) 0.40508(15)
H1_5 H 0.5806 0.2228 0.3857
C3_5 C 0.6838(3) 0.2877(3) 0.40186(12)
C4_5 C 0.7392(4) 0.0995(3) 0.33804(17)
H2_5 H 0.7789 0.0798 0.3577
C5_5 C 0.7094(4) 0.3529(4) 0.42982(15)
H3_5 H 0.7635 0.3757 0.4270
C6_5 C 0.5481(4) 0.2943(4) 0.43634(18)
H4_5 H 0.4922 0.2760 0.4378
C7_5 C 0.6516(4) 0.2102(4) 0.31122(13)
H5_5 H 0.6305 0.2651 0.3125
C8_5 C 0.5780(4) 0.3539(3) 0.46564(14)
C9_5 C 0.7095(4) 0.0437(4) 0.30670(18)
C10_5 C 0.5522(5) 0.4266(4) 0.53414(19)
H7_5 H 0.6079 0.4444 0.5377
C11_5 C 0.6502(4) 0.0774(4) 0.27646(16)
C12_5 C 0.7500 0.2500 0.37134(18)
C13_5 C 0.5704(6) 0.0416(5) 0.2111(2)
H8_5 H 0.5313 0.0851 0.2146
N4_5 N 0.4899(5) 0.4395(4) 0.5620(2)
C14_5 C 0.6566(4) 0.3837(4) 0.46104(17)
H9_5 H 0.6759 0.4261 0.4793
C15_5 C 0.4427(5) 0.3697(4) 0.5043(2)
H10_5 H 0.4068 0.3422 0.4851
C16_5 C 0.6231(5) 0.1555(4) 0.27982(16)
H11_5 H 0.5830 0.1749 0.2603
C17_5 C 0.4222(6) 0.4056(6) 0.5450(3)
H12_5 H 0.3687 0.4051 0.5575
N5_5 N 0.9771(4) 0.1156(3) 0.50036(16)
N6_5 N 0.8689(4) 0.4775(4) 0.23894(17)
C20_5 C 0.7879(4) 0.3166(3) 0.34113(14)
C21_5 C 0.8986(4) 0.2375(3) 0.40508(15)
H15_5 H 0.9194 0.2772 0.3857
C22_5 C 0.8162(3) 0.2123(3) 0.40186(12)
C23_5 C 0.7608(4) 0.4005(3) 0.33804(17)
H16_5 H 0.7211 0.4202 0.3577
C24_5 C 0.7906(4) 0.1471(4) 0.42982(15)
H17_5 H 0.7365 0.1243 0.4270
C25_5 C 0.9519(4) 0.2057(4) 0.43634(18)
C26_5 C 0.8484(4) 0.2898(4) 0.31122(13)
H19_5 H 0.8695 0.2349 0.3125
C27_5 C 0.9220(4) 0.1461(3) 0.46564(14)
C28_5 C 0.7905(4) 0.4563(4) 0.30670(18)
H20_5 H 0.7727 0.5124 0.3055
C29_5 C 0.9478(5) 0.0734(4) 0.53414(19)
H21_5 H 0.8921 0.0556 0.5377
C30_5 C 0.8498(4) 0.4226(4) 0.27646(16)
N7_3 N 0.9265(5) 0.5106(5) 0.17745(16)
C31_5 C 0.9296(6) 0.4584(5) 0.2111(2)
H22_5 H 0.9687 0.4149 0.2146
C32_5 C 0.8434(4) 0.1163(4) 0.46104(17)
H23_5 H 0.8241 0.0739 0.4793
C34_5 C 0.8769(5) 0.3445(4) 0.27982(16)
H25_5 H 0.9170 0.3251 0.2603
C36_5 C 0.8616(8) 0.5636(6) 0.1853(2)
H27_5 H 0.8455 0.6079 0.1674
C37_5 C 0.8218(7) 0.5428(5) 0.2240(2)
H28_5 H 0.7744 0.5679 0.2365
Ag3_3 Ag 0.99714(5) 0.50216(5) 0.12122(3)
N9_3 N 0.5106(5) 0.5735(5) 0.67745(16)
N2_6 N 0.4775(4) 0.6311(4) 0.73894(17)
C1_6 C 0.3166(3) 0.7121(4) 0.84113(14)
C2_6 C 0.2375(3) 0.6014(4) 0.90508(15)
H1_6 H 0.2772 0.5806 0.8857
C3_6 C 0.2123(3) 0.6838(3) 0.90186(12)
C4_6 C 0.4005(3) 0.7392(4) 0.83804(17)
H2_6 H 0.4202 0.7789 0.8577
C5_6 C 0.1471(4) 0.7094(4) 0.92982(15)
H3_6 H 0.1243 0.7635 0.9270
C6_6 C 0.2057(4) 0.5481(4) 0.93634(18)
H4_6 H 0.2240 0.4922 0.9378
C7_6 C 0.2898(4) 0.6516(4) 0.81122(13)
H5_6 H 0.2349 0.6305 0.8125
C8_6 C 0.1461(3) 0.5780(4) 0.96564(14)
C9_6 C 0.4563(4) 0.7095(4) 0.80670(18)
H6_5 H 0.5124 0.7273 0.8055
C11_6 C 0.4226(4) 0.6502(4) 0.77646(16)
C12_6 C 0.2500 0.7500 0.87134(18)
C13_6 C 0.4584(5) 0.5704(6) 0.7111(2)
H8_6 H 0.4149 0.5313 0.7146
C14_6 C 0.1163(4) 0.6566(4) 0.96104(17)
H9_6 H 0.0739 0.6759 0.9793
H10_6 H 0.1578 0.4068 0.9851
C16_6 C 0.3445(4) 0.6231(5) 0.77982(16)
H11_6 H 0.3251 0.5830 0.7603
C18_5 C 0.5636(6) 0.6384(8) 0.6853(2)
H13_5 H 0.6079 0.6545 0.6674
C19_5 C 0.5428(5) 0.6782(7) 0.7240(2)
H14_5 H 0.5679 0.7256 0.7365
N6_6 N 0.0225(4) 0.8689(4) 0.73894(17)
C20_6 C 0.1834(3) 0.7879(4) 0.84113(14)
C21_6 C 0.2625(3) 0.8986(4) 0.90508(15)
H15_6 H 0.2228 0.9194 0.8857
C22_6 C 0.2877(3) 0.8162(3) 0.90186(12)
C23_6 C 0.0995(3) 0.7608(4) 0.83804(17)
H16_6 H 0.0798 0.7211 0.8577
C24_6 C 0.3529(4) 0.7906(4) 0.92982(15)
H17_6 H 0.3757 0.7365 0.9270
C25_6 C 0.2943(4) 0.9519(4) 0.93634(18)
C26_6 C 0.2102(4) 0.8484(4) 0.81122(13)
H19_6 H 0.2651 0.8695 0.8125
C27_6 C 0.3539(3) 0.9220(4) 0.96564(14)
C28_6 C 0.0437(4) 0.7905(4) 0.80670(18)
C30_6 C 0.0774(4) 0.8498(4) 0.77646(16)
C31_6 C 0.0416(5) 0.9296(6) 0.7111(2)
H22_6 H 0.0851 0.9687 0.7146
C32_6 C 0.3837(4) 0.8434(4) 0.96104(17)
H23_6 H 0.4261 0.8241 0.9793
C34_6 C 0.1555(4) 0.8769(5) 0.77982(16)
H25_6 H 0.1749 0.9170 0.7603
H6_6 H 0.7273 0.9876 0.3055
N3_3 N 0.5735(5) 0.9894(5) 0.17745(16)
C18_6 C 0.6384(8) 0.9364(6) 0.1853(2)
H13_6 H 0.6545 0.8921 0.1674
C19_6 C 0.6782(7) 0.9572(5) 0.2240(2)
H14_6 H 0.7256 0.9321 0.2365
Ag2_3 Ag 0.99784(5) 0.99714(5) 0.62122(3)
Ag4_3 Ag 0.50286(5) 0.99784(5) 0.12122(3)
N10_3 N 0.9894(5) 0.9265(5) 0.67745(16)
N1_6 N 0.1156(3) 0.5229(4) 0.00036(16)
C10_6 C 0.0734(4) 0.5522(5) 0.03414(19)
H7_6 H 0.0556 0.6079 0.0377
N4_6 N 0.0605(4) 0.4899(5) 0.0620(2)
C15_6 C 0.1303(4) 0.4427(5) 0.0043(2)
C17_6 C 0.0944(6) 0.4222(6) 0.0450(3)
H12_6 H 0.0949 0.3687 0.0575
N5_6 N 0.3844(3) 0.9771(4) 0.00036(16)
C29_6 C 0.4266(4) 0.9478(5) 0.03414(19)
H21_6 H 0.4444 0.8921 0.0377
H20_6 H 0.9876 0.7727 0.8055
C36_6 C 0.9364(6) 0.8616(8) 0.6853(2)
H27_6 H 0.8921 0.8455 0.6674
C37_6 C 0.9572(5) 0.8218(7) 0.7240(2)
H28_6 H 0.9321 0.7744 0.7365
N8_6 N 0.4395(4) 0.0101(5) 0.0620(2)
C33_6 C 0.3697(4) 0.0573(5) 0.0043(2)
C35_6 C 0.4056(6) 0.0778(6) 0.0450(3)
H26_6 H 0.4051 0.1313 0.0575
H18_6 H 0.2760 0.0078 0.9378
H24_6 H 0.3422 0.0932 0.9851
H4_7 H 0.0078 0.2760 0.5622
N4_7 N 0.0101(5) 0.4395(4) 0.4380(2)
C15_7 C 0.0573(5) 0.3697(4) 0.4957(2)
H10_7 H 0.0932 0.3422 0.5149
C17_7 C 0.0778(6) 0.4056(6) 0.4550(3)
H12_7 H 0.1313 0.4051 0.4425
Ag1_4 Ag 0.99784(5) 0.50286(5) 0.37878(3)
N1_7 N 0.9771(4) 0.3844(3) 0.49964(16)
N2_7 N 0.8689(4) 0.0225(4) 0.76106(17)
C1_7 C 0.7879(4) 0.1834(3) 0.65887(14)
C2_7 C 0.8986(4) 0.2625(3) 0.59492(15)
H1_7 H 0.9194 0.2228 0.6143
C3_7 C 0.8162(3) 0.2877(3) 0.59814(12)
C4_7 C 0.7608(4) 0.0995(3) 0.66196(17)
H2_7 H 0.7211 0.0798 0.6423
C5_7 C 0.7906(4) 0.3529(4) 0.57018(15)
H3_7 H 0.7365 0.3757 0.5730
C6_7 C 0.9519(4) 0.2943(4) 0.56366(18)
C7_7 C 0.8484(4) 0.2102(4) 0.68878(13)
H5_7 H 0.8695 0.2651 0.6875
C8_7 C 0.9220(4) 0.3539(3) 0.53436(14)
C9_7 C 0.7905(4) 0.0437(4) 0.69330(18)
C10_7 C 0.9478(5) 0.4266(4) 0.46586(19)
H7_7 H 0.8921 0.4444 0.4623
C11_7 C 0.8498(4) 0.0774(4) 0.72354(16)
C12_7 C 0.7500 0.2500 0.62866(18)
C13_7 C 0.9296(6) 0.0416(5) 0.7889(2)
H8_7 H 0.9687 0.0851 0.7854
C14_7 C 0.8434(4) 0.3837(4) 0.53896(17)
H9_7 H 0.8241 0.4261 0.5207
C16_7 C 0.8769(5) 0.1555(4) 0.72018(16)
H11_7 H 0.9170 0.1749 0.7397
N5_7 N 0.5229(4) 0.1156(3) 0.49964(16)
N6_7 N 0.6311(4) 0.4775(4) 0.76106(17)
C20_7 C 0.7121(4) 0.3166(3) 0.65887(14)
C21_7 C 0.6014(4) 0.2375(3) 0.59492(15)
H15_7 H 0.5806 0.2772 0.6143
C22_7 C 0.6838(3) 0.2123(3) 0.59814(12)
C23_7 C 0.7392(4) 0.4005(3) 0.66196(17)
H16_7 H 0.7789 0.4202 0.6423
C24_7 C 0.7094(4) 0.1471(4) 0.57018(15)
H17_7 H 0.7635 0.1243 0.5730
C25_7 C 0.5481(4) 0.2057(4) 0.56366(18)
H18_7 H 0.4922 0.2240 0.5622
C26_7 C 0.6516(4) 0.2898(4) 0.68878(13)
H19_7 H 0.6305 0.2349 0.6875
C27_7 C 0.5780(4) 0.1461(3) 0.53436(14)
C28_7 C 0.7095(4) 0.4563(4) 0.69330(18)
H20_7 H 0.7273 0.5124 0.6945
C29_7 C 0.5522(5) 0.0734(4) 0.46586(19)
H21_7 H 0.6079 0.0556 0.4623
C30_7 C 0.6502(4) 0.4226(4) 0.72354(16)
N7_4 N 0.5735(5) 0.5106(5) 0.82255(16)
C31_7 C 0.5704(6) 0.4584(5) 0.7889(2)
H22_7 H 0.5313 0.4149 0.7854
N8_7 N 0.4899(5) 0.0605(4) 0.4380(2)
C32_7 C 0.6566(4) 0.1163(4) 0.53896(17)
H23_7 H 0.6759 0.0739 0.5207
C33_7 C 0.4427(5) 0.1303(4) 0.4957(2)
H24_7 H 0.4068 0.1578 0.5149
C34_7 C 0.6231(5) 0.3445(4) 0.72018(16)
H25_7 H 0.5830 0.3251 0.7397
C35_7 C 0.4222(6) 0.0944(6) 0.4550(3)
H26_7 H 0.3687 0.0949 0.4425
C36_7 C 0.6384(8) 0.5636(6) 0.8147(2)
H27_7 H 0.6545 0.6079 0.8326
C37_7 C 0.6782(7) 0.5428(5) 0.7760(2)
H28_7 H 0.7256 0.5679 0.7635
Ag3_4 Ag 0.50286(5) 0.50216(5) 0.87878(3)
N9_4 N 0.9894(5) 0.5735(5) 0.32255(16)
N1_8 N 0.3844(3) 0.5229(4) 0.99964(16)
C10_8 C 0.4266(4) 0.5522(5) 0.96586(19)
H7_8 H 0.4444 0.6079 0.9623
N4_8 N 0.4395(4) 0.4899(5) 0.9380(2)
C15_8 C 0.3697(4) 0.4427(5) 0.9957(2)
C17_8 C 0.4056(6) 0.4222(6) 0.9550(3)
H12_8 H 0.4051 0.3687 0.9425
N5_8 N 0.1156(3) 0.9771(4) 0.99964(16)
C29_8 C 0.0734(4) 0.9478(5) 0.96586(19)
H21_8 H 0.0556 0.8921 0.9623
H6_7 H 0.9876 0.7273 0.1945
C18_7 C 0.9364(6) 0.6384(8) 0.3147(2)
H13_7 H 0.8921 0.6545 0.3326
C19_7 C 0.9572(5) 0.6782(7) 0.2760(2)
H14_7 H 0.9321 0.7256 0.2635
H6_8 H 0.7727 0.9876 0.6945
N3_4 N 0.9265(5) 0.9894(5) 0.82255(16)
C18_8 C 0.8616(8) 0.9364(6) 0.8147(2)
H13_8 H 0.8455 0.8921 0.8326
C19_8 C 0.8218(7) 0.9572(5) 0.7760(2)
H14_8 H 0.7744 0.9321 0.7635
Ag2_4 Ag 0.50216(5) 0.99714(5) 0.37878(3)
Ag4_4 Ag 0.99714(5) 0.99784(5) 0.87878(3)
N10_4 N 0.5106(5) 0.9265(5) 0.32255(16)
N2_8 N 0.0225(4) 0.6311(4) 0.26106(17)
C1_8 C 0.1834(3) 0.7121(4) 0.15887(14)
C2_8 C 0.2625(3) 0.6014(4) 0.09492(15)
H1_8 H 0.2228 0.5806 0.1143
C3_8 C 0.2877(3) 0.6838(3) 0.09814(12)
C4_8 C 0.0995(3) 0.7392(4) 0.16196(17)
H2_8 H 0.0798 0.7789 0.1423
C5_8 C 0.3529(4) 0.7094(4) 0.07018(15)
H3_8 H 0.3757 0.7635 0.0730
C6_8 C 0.2943(4) 0.5481(4) 0.06366(18)
H4_8 H 0.2760 0.4922 0.0622
C7_8 C 0.2102(4) 0.6516(4) 0.18878(13)
H5_8 H 0.2651 0.6305 0.1875
C8_8 C 0.3539(3) 0.5780(4) 0.03436(14)
C9_8 C 0.0437(4) 0.7095(4) 0.19330(18)
C11_8 C 0.0774(4) 0.6502(4) 0.22354(16)
C12_8 C 0.2500 0.7500 0.12866(18)
C13_8 C 0.0416(5) 0.5704(6) 0.2889(2)
H8_8 H 0.0851 0.5313 0.2854
C14_8 C 0.3837(4) 0.6566(4) 0.03896(17)
H9_8 H 0.4261 0.6759 0.0207
H10_8 H 0.3422 0.4068 0.0149
C16_8 C 0.1555(4) 0.6231(5) 0.22018(16)
H11_8 H 0.1749 0.5830 0.2397
N6_8 N 0.4775(4) 0.8689(4) 0.26106(17)
C20_8 C 0.3166(3) 0.7879(4) 0.15887(14)
C21_8 C 0.2375(3) 0.8986(4) 0.09492(15)
H15_8 H 0.2772 0.9194 0.1143
C22_8 C 0.2123(3) 0.8162(3) 0.09814(12)
C23_8 C 0.4005(3) 0.7608(4) 0.16196(17)
H16_8 H 0.4202 0.7211 0.1423
C24_8 C 0.1471(4) 0.7906(4) 0.07018(15)
H17_8 H 0.1243 0.7365 0.0730
C25_8 C 0.2057(4) 0.9519(4) 0.06366(18)
C26_8 C 0.2898(4) 0.8484(4) 0.18878(13)
H19_8 H 0.2349 0.8695 0.1875
C27_8 C 0.1461(3) 0.9220(4) 0.03436(14)
C28_8 C 0.4563(4) 0.7905(4) 0.19330(18)
H20_8 H 0.5124 0.7727 0.1945
C30_8 C 0.4226(4) 0.8498(4) 0.22354(16)
C31_8 C 0.4584(5) 0.9296(6) 0.2889(2)
H22_8 H 0.4149 0.9687 0.2854
C32_8 C 0.1163(4) 0.8434(4) 0.03896(17)
H23_8 H 0.0739 0.8241 0.0207
C34_8 C 0.3445(4) 0.8769(5) 0.22018(16)
H25_8 H 0.3251 0.9170 0.2397
C36_8 C 0.5636(6) 0.8616(8) 0.3147(2)
H27_8 H 0.6079 0.8455 0.3326
C37_8 C 0.5428(5) 0.8218(7) 0.2760(2)
H28_8 H 0.5679 0.7744 0.2635
H18_8 H 0.2240 0.0078 0.0622
H24_8 H 0.1578 0.0932 0.0149
N8_8 N 0.0605(4) 0.0101(5) 0.9380(2)
C33_8 C 0.1303(4) 0.0573(5) 0.9957(2)
C35_8 C 0.0944(6) 0.0778(6) 0.9550(3)
H26_8 H 0.0949 0.1313 0.9425
loop_
_geom_bond_atom_site_label_1
_geom_bond_atom_site_label_2
_geom_bond_site_symmetry_1
_geom_bond_site_symmetry_2
C18 N3 1_555 1_555
H13 C18 1_555 1_555
H14 C19 1_555 1_555
Ag4 N3 1_555 1_555
N10 Ag2 1_555 1_555
C18 C19 1_555 1_555
C36 N10 1_555 1_555
H27 C36 1_555 1_555
H28 C37 1_555 1_555
C36 C37 1_555 1_555
C10 N1 1_555 1_555
H7 C10 1_555 1_555
N4 C10 1_555 1_555
C15 N1 1_555 1_555
C17 N4 1_555 1_555
H12 C17 1_555 1_555
C29 N5 1_555 1_555
H21 C29 1_555 1_555
C15 C17 1_555 1_555
Ag1 N4_2 1_555 1_555
N1_2 C8 1_555 1_555
N2 C11 1_555 1_555
C1 C4 1_555 1_555
C2 H1 1_555 1_555
C3 C2 1_555 1_555
C4 H2 1_555 1_555
C5 C3 1_555 1_555
H3 C5 1_555 1_555
C6 C2 1_555 1_555
H4 C6 1_555 1_555
C7 C1 1_555 1_555
H5 C7 1_555 1_555
C8 C6 1_555 1_555
C9 C4 1_555 1_555
C10_2 N1_2 1_555 1_555
H7_2 C10_2 1_555 1_555
C11 C9 1_555 1_555
C12 C1 1_555 1_555
C13 N2 1_555 1_555
H8 C13 1_555 1_555
N4_2 C10_2 1_555 1_555
C14 C5 1_555 1_555
H9 C14 1_555 1_555
C15_2 N1_2 1_555 1_555
H10 C15_2 1_555 1_555
C16 C7 1_555 1_555
H11 C16 1_555 1_555
C17_2 N4_2 1_555 1_555
H12_2 C17_2 1_555 1_555
N5_2 C27 1_555 1_555
N6 C30 1_555 1_555
C20 C12 1_555 1_555
C21 H15 1_555 1_555
C22 C12 1_555 1_555
C23 C20 1_555 1_555
H16 C23 1_555 1_555
C24 C22 1_555 1_555
H17 C24 1_555 1_555
C25 C21 1_555 1_555
C26 C20 1_555 1_555
H19 C26 1_555 1_555
C27 C25 1_555 1_555
C28 C23 1_555 1_555
H20_2 C28 1_555 1_555
C29_2 N5_2 1_555 1_555
H21_2 C29_2 1_555 1_555
C30 C28 1_555 1_555
N7 C31 1_555 1_555
C31 N6 1_555 1_555
H22 C31 1_555 1_555
C32 C24 1_555 1_555
H23 C32 1_555 1_555
C34 C26 1_555 1_555
H25 C34 1_555 1_555
C36_2 N7 1_555 1_555
H27_2 C36_2 1_555 1_555
C37_2 N6 1_555 1_555
H28_2 C37_2 1_555 1_555
Ag3 N7 1_555 1_555
N9 Ag1 1_555 1_555
C3 C12 1_555 1_555
C8 C14 1_555 1_555
C11 C16 1_555 1_555
C15_2 C17_2 1_555 1_555
C21 C22 1_555 1_555
C27 C32 1_555 1_555
C30 C34 1_555 1_555
C36_2 C37_2 1_555 1_555
N2_2 C11_2 1_555 1_555
C1_2 C4_2 1_555 1_555
C2_2 H1_2 1_555 1_555
C3_2 C2_2 1_555 1_555
C4_2 H2_2 1_555 1_555
C5_2 C3_2 1_555 1_555
H3_2 C5_2 1_555 1_555
C6_2 C2_2 1_555 1_555
H4_2 C6_2 1_555 1_555
C7_2 C1_2 1_555 1_555
H5_2 C7_2 1_555 1_555
C8_2 C6_2 1_555 1_555
C9_2 C4_2 1_555 1_555
H6_2 C9_2 1_555 1_555
C11_2 C9_2 1_555 1_555
C12_2 C1_2 1_555 1_555
N9 C13_2 1_555 1_555
C13_2 N2_2 1_555 1_555
H8_2 C13_2 1_555 1_555
C14_2 C5_2 1_555 1_555
H9_2 C14_2 1_555 1_555
C16_2 C7_2 1_555 1_555
H11_2 C16_2 1_555 1_555
C18_2 N9 1_555 1_555
H13_2 C18_2 1_555 1_555
C19_2 N2_2 1_555 1_555
H14_2 C19_2 1_555 1_555
N6_2 C30_2 1_555 1_555
C20_2 C12_2 1_555 1_555
C21_2 H15_2 1_555 1_555
C22_2 C12_2 1_555 1_555
C23_2 C20_2 1_555 1_555
H16_2 C23_2 1_555 1_555
C24_2 C22_2 1_555 1_555
H17_2 C24_2 1_555 1_555
C25_2 C21_2 1_555 1_555
C26_2 C20_2 1_555 1_555
H19_2 C26_2 1_555 1_555
C27_2 C25_2 1_555 1_555
C28_2 C23_2 1_555 1_555
C30_2 C28_2 1_555 1_555
C31_2 N6_2 1_555 1_555
H22_2 C31_2 1_555 1_555
C32_2 C24_2 1_555 1_555
H23_2 C32_2 1_555 1_555
C34_2 C26_2 1_555 1_555
H25_2 C34_2 1_555 1_555
C3_2 C12_2 1_555 1_555
C8_2 C14_2 1_555 1_555
C11_2 C16_2 1_555 1_555
C18_2 C19_2 1_555 1_555
C21_2 C22_2 1_555 1_555
C27_2 C32_2 1_555 1_555
C30_2 C34_2 1_555 1_555
H24 C33 1_555 1_555
C35 N8 1_555 1_555
H26 C35 1_555 1_555
C33 C35 1_555 1_555
C35_2 N8_2 1_555 1_555
H26_2 C35_2 1_555 1_555
C33_2 C35_2 1_555 1_555
C18_3 N3_2 1_555 1_555
H13_3 C18_3 1_555 1_555
H14_3 C19_3 1_555 1_555
Ag4_2 N3_2 1_555 1_555
N10_2 Ag2_2 1_555 1_555
C18_3 C19_3 1_555 1_555
N2_3 C11_3 1_555 1_555
C1_3 C4_3 1_555 1_555
C2_3 H1_3 1_555 1_555
C3_3 C2_3 1_555 1_555
C4_3 H2_3 1_555 1_555
C5_3 C3_3 1_555 1_555
H3_3 C5_3 1_555 1_555
C6_3 C2_3 1_555 1_555
H4_3 C6_3 1_555 1_555
C7_3 C1_3 1_555 1_555
H5_3 C7_3 1_555 1_555
C8_3 C6_3 1_555 1_555
C9_3 C4_3 1_555 1_555
C11_3 C9_3 1_555 1_555
C12_3 C1_3 1_555 1_555
C13_3 N2_3 1_555 1_555
H8_3 C13_3 1_555 1_555
C14_3 C5_3 1_555 1_555
H9_3 C14_3 1_555 1_555
C16_3 C7_3 1_555 1_555
H11_3 C16_3 1_555 1_555
N6_3 C30_3 1_555 1_555
C20_3 C12_3 1_555 1_555
C21_3 H15_3 1_555 1_555
C22_3 C12_3 1_555 1_555
C23_3 C20_3 1_555 1_555
H16_3 C23_3 1_555 1_555
C24_3 C22_3 1_555 1_555
H17_3 C24_3 1_555 1_555
C25_3 C21_3 1_555 1_555
C26_3 C20_3 1_555 1_555
H19_3 C26_3 1_555 1_555
C27_3 C25_3 1_555 1_555
C28_3 C23_3 1_555 1_555
H20_3 C28_3 1_555 1_555
C30_3 C28_3 1_555 1_555
N10_2 C31_3 1_555 1_555
C31_3 N6_3 1_555 1_555
H22_3 C31_3 1_555 1_555
C32_3 C24_3 1_555 1_555
H23_3 C32_3 1_555 1_555
C34_3 C26_3 1_555 1_555
H25_3 C34_3 1_555 1_555
C36_3 N10_2 1_555 1_555
H27_3 C36_3 1_555 1_555
C37_3 N6_3 1_555 1_555
H28_3 C37_3 1_555 1_555
C3_3 C12_3 1_555 1_555
C8_3 C14_3 1_555 1_555
C11_3 C16_3 1_555 1_555
C21_3 C22_3 1_555 1_555
C27_3 C32_3 1_555 1_555
C30_3 C34_3 1_555 1_555
C36_3 C37_3 1_555 1_555
N1_3 C8_4 1_555 1_555
N2_4 C11_4 1_555 1_555
C1_4 C4_4 1_555 1_555
C2_4 H1_4 1_555 1_555
C3_4 C2_4 1_555 1_555
C4_4 H2_4 1_555 1_555
C5_4 C3_4 1_555 1_555
H3_4 C5_4 1_555 1_555
C6_4 C2_4 1_555 1_555
C7_4 C1_4 1_555 1_555
H5_4 C7_4 1_555 1_555
C8_4 C6_4 1_555 1_555
C9_4 C4_4 1_555 1_555
C10_3 N1_3 1_555 1_555
H7_3 C10_3 1_555 1_555
C11_4 C9_4 1_555 1_555
C12_4 C1_4 1_555 1_555
C13_4 N2_4 1_555 1_555
H8_4 C13_4 1_555 1_555
C14_4 C5_4 1_555 1_555
H9_4 C14_4 1_555 1_555
C16_4 C7_4 1_555 1_555
H11_4 C16_4 1_555 1_555
N5_3 C27_4 1_555 1_555
N6_4 C30_4 1_555 1_555
C20_4 C12_4 1_555 1_555
C21_4 H15_4 1_555 1_555
C22_4 C12_4 1_555 1_555
C23_4 C20_4 1_555 1_555
H16_4 C23_4 1_555 1_555
C24_4 C22_4 1_555 1_555
H17_4 C24_4 1_555 1_555
C25_4 C21_4 1_555 1_555
H18_3 C25_4 1_555 1_555
C26_4 C20_4 1_555 1_555
H19_4 C26_4 1_555 1_555
C27_4 C25_4 1_555 1_555
C28_4 C23_4 1_555 1_555
H20_4 C28_4 1_555 1_555
C29_3 N5_3 1_555 1_555
H21_3 C29_3 1_555 1_555
C30_4 C28_4 1_555 1_555
N7_2 C31_4 1_555 1_555
C31_4 N6_4 1_555 1_555
H22_4 C31_4 1_555 1_555
N8_3 C29_3 1_555 1_555
C32_4 C24_4 1_555 1_555
H23_4 C32_4 1_555 1_555
C33_3 N5_3 1_555 1_555
H24_3 C33_3 1_555 1_555
C34_4 C26_4 1_555 1_555
H25_4 C34_4 1_555 1_555
C35_3 N8_3 1_555 1_555
H26_3 C35_3 1_555 1_555
C36_4 N7_2 1_555 1_555
H27_4 C36_4 1_555 1_555
C37_4 N6_4 1_555 1_555
H28_4 C37_4 1_555 1_555
Ag3_2 N7_2 1_555 1_555
N9_2 Ag1_2 1_555 1_555
C3_4 C12_4 1_555 1_555
C8_4 C14_4 1_555 1_555
C11_4 C16_4 1_555 1_555
C21_4 C22_4 1_555 1_555
C27_4 C32_4 1_555 1_555
C30_4 C34_4 1_555 1_555
C33_3 C35_3 1_555 1_555
C36_4 C37_4 1_555 1_555
C18_4 N9_2 1_555 1_555
H13_4 C18_4 1_555 1_555
H14_4 C19_4 1_555 1_555
C18_4 C19_4 1_555 1_555
Ag3_2 N4_3 1_555 1_555
C10_4 N1_4 1_555 1_555
H7_4 C10_4 1_555 1_555
N4_3 C10_4 1_555 1_555
C15_3 N1_4 1_555 1_555
C17_3 N4_3 1_555 1_555
H12_3 C17_3 1_555 1_555
C29_4 N5_4 1_555 1_555
H21_4 C29_4 1_555 1_555
C15_3 C17_3 1_555 1_555
H10_4 C15_4 1_555 1_555
C17_4 N4_4 1_555 1_555
H12_4 C17_4 1_555 1_555
C15_4 C17_4 1_555 1_555
C35_4 N8_4 1_555 1_555
H26_4 C35_4 1_555 1_555
C33_4 C35_4 1_555 1_555
H24_5 C33_5 1_555 1_555
C35_5 N8_5 1_555 1_555
H26_5 C35_5 1_555 1_555
C33_5 C35_5 1_555 1_555
Ag1_3 N4_5 1_555 1_555
N1_5 C8_5 1_555 1_555
N2_5 C11_5 1_555 1_555
C1_5 C4_5 1_555 1_555
C2_5 H1_5 1_555 1_555
C3_5 C2_5 1_555 1_555
C4_5 H2_5 1_555 1_555
C5_5 C3_5 1_555 1_555
H3_5 C5_5 1_555 1_555
C6_5 C2_5 1_555 1_555
H4_5 C6_5 1_555 1_555
C7_5 C1_5 1_555 1_555
H5_5 C7_5 1_555 1_555
C8_5 C6_5 1_555 1_555
C9_5 C4_5 1_555 1_555
C10_5 N1_5 1_555 1_555
H7_5 C10_5 1_555 1_555
C11_5 C9_5 1_555 1_555
C12_5 C1_5 1_555 1_555
C13_5 N2_5 1_555 1_555
H8_5 C13_5 1_555 1_555
N4_5 C10_5 1_555 1_555
C14_5 C5_5 1_555 1_555
H9_5 C14_5 1_555 1_555
C15_5 N1_5 1_555 1_555
H10_5 C15_5 1_555 1_555
C16_5 C7_5 1_555 1_555
H11_5 C16_5 1_555 1_555
C17_5 N4_5 1_555 1_555
H12_5 C17_5 1_555 1_555
N5_5 C27_5 1_555 1_555
N6_5 C30_5 1_555 1_555
C20_5 C12_5 1_555 1_555
C21_5 H15_5 1_555 1_555
C22_5 C12_5 1_555 1_555
C23_5 C20_5 1_555 1_555
H16_5 C23_5 1_555 1_555
C24_5 C22_5 1_555 1_555
H17_5 C24_5 1_555 1_555
C25_5 C21_5 1_555 1_555
C26_5 C20_5 1_555 1_555
H19_5 C26_5 1_555 1_555
C27_5 C25_5 1_555 1_555
C28_5 C23_5 1_555 1_555
H20_5 C28_5 1_555 1_555
C29_5 N5_5 1_555 1_555
H21_5 C29_5 1_555 1_555
C30_5 C28_5 1_555 1_555
N7_3 C31_5 1_555 1_555
C31_5 N6_5 1_555 1_555
H22_5 C31_5 1_555 1_555
C32_5 C24_5 1_555 1_555
H23_5 C32_5 1_555 1_555
C34_5 C26_5 1_555 1_555
H25_5 C34_5 1_555 1_555
C36_5 N7_3 1_555 1_555
H27_5 C36_5 1_555 1_555
C37_5 N6_5 1_555 1_555
H28_5 C37_5 1_555 1_555
Ag3_3 N7_3 1_555 1_555
N9_3 Ag1_3 1_555 1_555
C3_5 C12_5 1_555 1_555
C8_5 C14_5 1_555 1_555
C11_5 C16_5 1_555 1_555
C15_5 C17_5 1_555 1_555
C21_5 C22_5 1_555 1_555
C27_5 C32_5 1_555 1_555
C30_5 C34_5 1_555 1_555
C36_5 C37_5 1_555 1_555
N2_6 C11_6 1_555 1_555
C1_6 C4_6 1_555 1_555
C2_6 H1_6 1_555 1_555
C3_6 C2_6 1_555 1_555
C4_6 H2_6 1_555 1_555
C5_6 C3_6 1_555 1_555
H3_6 C5_6 1_555 1_555
C6_6 C2_6 1_555 1_555
H4_6 C6_6 1_555 1_555
C7_6 C1_6 1_555 1_555
H5_6 C7_6 1_555 1_555
C8_6 C6_6 1_555 1_555
C9_6 C4_6 1_555 1_555
H6_5 C9_6 1_555 1_555
C11_6 C9_6 1_555 1_555
C12_6 C1_6 1_555 1_555
N9_3 C13_6 1_555 1_555
C13_6 N2_6 1_555 1_555
H8_6 C13_6 1_555 1_555
C14_6 C5_6 1_555 1_555
H9_6 C14_6 1_555 1_555
C16_6 C7_6 1_555 1_555
H11_6 C16_6 1_555 1_555
C18_5 N9_3 1_555 1_555
H13_5 C18_5 1_555 1_555
C19_5 N2_6 1_555 1_555
H14_5 C19_5 1_555 1_555
N6_6 C30_6 1_555 1_555
C20_6 C12_6 1_555 1_555
C21_6 H15_6 1_555 1_555
C22_6 C12_6 1_555 1_555
C23_6 C20_6 1_555 1_555
H16_6 C23_6 1_555 1_555
C24_6 C22_6 1_555 1_555
H17_6 C24_6 1_555 1_555
C25_6 C21_6 1_555 1_555
C26_6 C20_6 1_555 1_555
H19_6 C26_6 1_555 1_555
C27_6 C25_6 1_555 1_555
C28_6 C23_6 1_555 1_555
C30_6 C28_6 1_555 1_555
C31_6 N6_6 1_555 1_555
H22_6 C31_6 1_555 1_555
C32_6 C24_6 1_555 1_555
H23_6 C32_6 1_555 1_555
C34_6 C26_6 1_555 1_555
H25_6 C34_6 1_555 1_555
C3_6 C12_6 1_555 1_555
C8_6 C14_6 1_555 1_555
C11_6 C16_6 1_555 1_555
C18_5 C19_5 1_555 1_555
C21_6 C22_6 1_555 1_555
C27_6 C32_6 1_555 1_555
C30_6 C34_6 1_555 1_555
C18_6 N3_3 1_555 1_555
H13_6 C18_6 1_555 1_555
H14_6 C19_6 1_555 1_555
Ag4_3 N3_3 1_555 1_555
N10_3 Ag2_3 1_555 1_555
C18_6 C19_6 1_555 1_555
C10_6 N1_6 1_555 1_555
H7_6 C10_6 1_555 1_555
N4_6 C10_6 1_555 1_555
C15_6 N1_6 1_555 1_555
C17_6 N4_6 1_555 1_555
H12_6 C17_6 1_555 1_555
C29_6 N5_6 1_555 1_555
H21_6 C29_6 1_555 1_555
C15_6 C17_6 1_555 1_555
C36_6 N10_3 1_555 1_555
H27_6 C36_6 1_555 1_555
H28_6 C37_6 1_555 1_555
C36_6 C37_6 1_555 1_555
C35_6 N8_6 1_555 1_555
H26_6 C35_6 1_555 1_555
C33_6 C35_6 1_555 1_555
H10_7 C15_7 1_555 1_555
C17_7 N4_7 1_555 1_555
H12_7 C17_7 1_555 1_555
C15_7 C17_7 1_555 1_555
N1_7 C8_7 1_555 1_555
N2_7 C11_7 1_555 1_555
C1_7 C4_7 1_555 1_555
C2_7 H1_7 1_555 1_555
C3_7 C2_7 1_555 1_555
C4_7 H2_7 1_555 1_555
C5_7 C3_7 1_555 1_555
H3_7 C5_7 1_555 1_555
C6_7 C2_7 1_555 1_555
C7_7 C1_7 1_555 1_555
H5_7 C7_7 1_555 1_555
C8_7 C6_7 1_555 1_555
C9_7 C4_7 1_555 1_555
C10_7 N1_7 1_555 1_555
H7_7 C10_7 1_555 1_555
C11_7 C9_7 1_555 1_555
C12_7 C1_7 1_555 1_555
C13_7 N2_7 1_555 1_555
H8_7 C13_7 1_555 1_555
C14_7 C5_7 1_555 1_555
H9_7 C14_7 1_555 1_555
C16_7 C7_7 1_555 1_555
H11_7 C16_7 1_555 1_555
N5_7 C27_7 1_555 1_555
N6_7 C30_7 1_555 1_555
C20_7 C12_7 1_555 1_555
C21_7 H15_7 1_555 1_555
C22_7 C12_7 1_555 1_555
C23_7 C20_7 1_555 1_555
H16_7 C23_7 1_555 1_555
C24_7 C22_7 1_555 1_555
H17_7 C24_7 1_555 1_555
C25_7 C21_7 1_555 1_555
H18_7 C25_7 1_555 1_555
C26_7 C20_7 1_555 1_555
H19_7 C26_7 1_555 1_555
C27_7 C25_7 1_555 1_555
C28_7 C23_7 1_555 1_555
H20_7 C28_7 1_555 1_555
C29_7 N5_7 1_555 1_555
H21_7 C29_7 1_555 1_555
C30_7 C28_7 1_555 1_555
N7_4 C31_7 1_555 1_555
C31_7 N6_7 1_555 1_555
H22_7 C31_7 1_555 1_555
N8_7 C29_7 1_555 1_555
C32_7 C24_7 1_555 1_555
H23_7 C32_7 1_555 1_555
C33_7 N5_7 1_555 1_555
H24_7 C33_7 1_555 1_555
C34_7 C26_7 1_555 1_555
H25_7 C34_7 1_555 1_555
C35_7 N8_7 1_555 1_555
H26_7 C35_7 1_555 1_555
C36_7 N7_4 1_555 1_555
H27_7 C36_7 1_555 1_555
C37_7 N6_7 1_555 1_555
H28_7 C37_7 1_555 1_555
Ag3_4 N7_4 1_555 1_555
N9_4 Ag1_4 1_555 1_555
C3_7 C12_7 1_555 1_555
C8_7 C14_7 1_555 1_555
C11_7 C16_7 1_555 1_555
C21_7 C22_7 1_555 1_555
C27_7 C32_7 1_555 1_555
C30_7 C34_7 1_555 1_555
C33_7 C35_7 1_555 1_555
C36_7 C37_7 1_555 1_555
Ag3_4 N4_8 1_555 1_555
C10_8 N1_8 1_555 1_555
H7_8 C10_8 1_555 1_555
N4_8 C10_8 1_555 1_555
C15_8 N1_8 1_555 1_555
C17_8 N4_8 1_555 1_555
H12_8 C17_8 1_555 1_555
C29_8 N5_8 1_555 1_555
H21_8 C29_8 1_555 1_555
C15_8 C17_8 1_555 1_555
C18_7 N9_4 1_555 1_555
H13_7 C18_7 1_555 1_555
H14_7 C19_7 1_555 1_555
C18_7 C19_7 1_555 1_555
C18_8 N3_4 1_555 1_555
H13_8 C18_8 1_555 1_555
H14_8 C19_8 1_555 1_555
Ag4_4 N3_4 1_555 1_555
N10_4 Ag2_4 1_555 1_555
C18_8 C19_8 1_555 1_555
N2_8 C11_8 1_555 1_555
C1_8 C4_8 1_555 1_555
C2_8 H1_8 1_555 1_555
C3_8 C2_8 1_555 1_555
C4_8 H2_8 1_555 1_555
C5_8 C3_8 1_555 1_555
H3_8 C5_8 1_555 1_555
C6_8 C2_8 1_555 1_555
H4_8 C6_8 1_555 1_555
C7_8 C1_8 1_555 1_555
H5_8 C7_8 1_555 1_555
C8_8 C6_8 1_555 1_555
C9_8 C4_8 1_555 1_555
C11_8 C9_8 1_555 1_555
C12_8 C1_8 1_555 1_555
C13_8 N2_8 1_555 1_555
H8_8 C13_8 1_555 1_555
C14_8 C5_8 1_555 1_555
H9_8 C14_8 1_555 1_555
C16_8 C7_8 1_555 1_555
H11_8 C16_8 1_555 1_555
N6_8 C30_8 1_555 1_555
C20_8 C12_8 1_555 1_555
C21_8 H15_8 1_555 1_555
C22_8 C12_8 1_555 1_555
C23_8 C20_8 1_555 1_555
H16_8 C23_8 1_555 1_555
C24_8 C22_8 1_555 1_555
H17_8 C24_8 1_555 1_555
C25_8 C21_8 1_555 1_555
C26_8 C20_8 1_555 1_555
H19_8 C26_8 1_555 1_555
C27_8 C25_8 1_555 1_555
C28_8 C23_8 1_555 1_555
H20_8 C28_8 1_555 1_555
C30_8 C28_8 1_555 1_555
N10_4 C31_8 1_555 1_555
C31_8 N6_8 1_555 1_555
H22_8 C31_8 1_555 1_555
C32_8 C24_8 1_555 1_555
H23_8 C32_8 1_555 1_555
C34_8 C26_8 1_555 1_555
H25_8 C34_8 1_555 1_555
C36_8 N10_4 1_555 1_555
H27_8 C36_8 1_555 1_555
C37_8 N6_8 1_555 1_555
H28_8 C37_8 1_555 1_555
C3_8 C12_8 1_555 1_555
C8_8 C14_8 1_555 1_555
C11_8 C16_8 1_555 1_555
C21_8 C22_8 1_555 1_555
C27_8 C32_8 1_555 1_555
C30_8 C34_8 1_555 1_555
C36_8 C37_8 1_555 1_555
C35_8 N8_8 1_555 1_555
H26_8 C35_8 1_555 1_555
C33_8 C35_8 1_555 1_555

#END
