
###############################################################################
#
# This file contains modified crystal structure data generated from the
# MOF subset of the Cambridge Structural Database (CSD) v543 
# hosted by the Cambridge Crystallographic Data Centre (CCDC).
#
# This work is licensed under the Creative Commons
# Attribution-NonCommercial-ShareAlike 4.0 International License.
# To view a copy of this license, visit
# http://creativecommons.org/licenses/by-nc-sa/4.0/
# or send a letter to
# Creative Commons, PO Box 1866, Mountain View, CA 94042, USA.
#
# CIF created using the CSD Python API on 29 September 2022
# The structure has been converted into the P1 space group
# The structure has a 3D framework
# The original CSD entry REPCIZ is in the rhombohedral crystal system
# The framework has been calculated to contain at least 10.0% void space
# The void calculation uses a probe of radius 1.32A, grid spacing 0.4
#
###############################################################################

data_REPCIZ
_chemical_formula_moiety         '(C792 H468 Cd76 O284)n'
_symmetry_cell_setting           triclinic
_symmetry_space_group_name_H-M   'P 1'
_symmetry_Int_Tables_number      1
_space_group_name_Hall           'P 1'
loop_
_symmetry_equiv_pos_site_id
_symmetry_equiv_pos_as_xyz
1 x,y,z
_cell_length_a                   31.936(5)
_cell_length_b                   31.936(5)
_cell_length_c                   42.607(9)
_cell_angle_alpha                90
_cell_angle_beta                 90
_cell_angle_gamma                120.00
_cell_volume                     37633.3
loop_
_atom_site_label
_atom_site_type_symbol
_atom_site_fract_x
_atom_site_fract_y
_atom_site_fract_z
O9 O 0.13827(15) 0.07073(13) 0.04771(9)
O10 O 0.06863(11) 0.00745(13) 0.03884(7)
C29 C 0.10154(15) 0.03451(18) 0.05690(12)
C30 C 0.09577(8) 0.01992(9) 0.09167(5)
C31 C 0.13115(9) 0.04878(11) 0.11327(6)
H17 H 0.1585 0.0769 0.1067
C32 C 0.12567(12) 0.03555(14) 0.14474(6)
H18 H 0.1493 0.0549 0.1592
H21 H 0.1477 0.0081 0.2008
Cd4 Cd -0.0000 0.0000 0.016620(17)
Cd5 Cd -0.0000 0.0000 0.325030(13)
O19 O 0.04842(13) 0.13552(18) 0.30367(8)
O20 O 0.05324(11) 0.06912(17) 0.30058(8)
C49 C 0.00654(14) 0.09135(20) 0.15459(5)
C50 C 0.03540(12) 0.08483(18) 0.13299(7)
H29 H 0.0636 0.0857 0.1396
C51 C 0.02217(10) 0.07708(14) 0.10153(6)
H30 H 0.0415 0.0727 0.0871
C52 C 0.01896(8) 0.09626(11) 0.18948(5)
C53 C 0.00672(13) 0.12328(15) 0.20908(6)
C54 C 0.01663(15) 0.12593(19) 0.24102(6)
H32 H 0.0084 0.1440 0.2541
C55 C 0.03878(14) 0.10157(20) 0.25335(5)
C56 C 0.05102(14) 0.07455(18) 0.23374(7)
H33 H 0.0658 0.0582 0.2420
C57 C 0.04112(12) 0.07191(14) 0.20180(6)
H34 H 0.0493 0.0538 0.1887
C58 C 0.04683(17) 0.10122(25) 0.28835(11)
Cd10 Cd 0.067420(9) 0.125080(13) 0.351870(6)
O36 O 0.16430(18) 0.01424(14) 0.00186(8)
O43 O 0.08852(9) 0.07757(13) 0.38295(7)
O44 O 0.06231(9) 0.00761(12) 0.35813(6)
C118 C 0.08514(13) 0.03669(19) 0.37935(10)
H70 H 0.1011 0.0278 0.3938
O64 O 0.14579(11) 0.17185(16) 0.34211(9)
O65 O 0.07793(15) 0.15726(11) 0.40535(8)
O66 O 0.04552(17) 0.18049(12) 0.36936(8)
Cd24 Cd 0.132040(7) 0.135000(12) 0.422650(9)
O1 O 0.18640(10) 0.01210(12) 0.88683(7)
O3 O 0.50941(11) 0.25401(10) 0.73868(8)
O4 O 0.48618(12) 0.19837(12) 0.70269(8)
O5 O 0.15283(10) 0.07348(10) 0.93958(7)
O6 O 0.18242(11) 0.12468(12) 0.97852(7)
O7 O 0.47555(11) 0.31524(13) 0.79185(10)
O8 O 0.51660(11) 0.34757(14) 0.83519(8)
O14 O 0.08852(9) 0.01095(9) 0.88295(7)
O15 O 0.06231(9) 0.05470(8) 0.85813(6)
C1 C 0.18330(14) 0.00192(16) 0.85738(13)
C2 C 0.23051(7) 0.02828(9) 0.83837(6)
C3 C 0.27159(9) 0.06371(10) 0.85349(7)
H1 H 0.2705 0.0696 0.8748
C4 C 0.31438(8) 0.09030(12) 0.83682(9)
H2 H 0.3419 0.1140 0.8469
C5 C 0.31607(10) 0.08146(14) 0.80503(9)
C6 C 0.27499(13) 0.04603(14) 0.78991(7)
H3 H 0.2761 0.0401 0.7686
C7 C 0.23220(10) 0.01944(11) 0.80658(6)
C8 C 0.36130(8) 0.11420(8) 0.78708(6)
C9 C 0.38965(10) 0.16242(8) 0.79570(6)
H5 H 0.3822 0.1739 0.8137
C10 C 0.42920(11) 0.19355(9) 0.77745(8)
H6 H 0.4482 0.2258 0.7832
C11 C 0.44039(11) 0.17646(12) 0.75058(8)
C12 C 0.41204(12) 0.12823(12) 0.74196(7)
H7 H 0.4195 0.1168 0.7240
C13 C 0.37250(10) 0.09711(9) 0.76020(6)
H8 H 0.3535 0.0648 0.7544
C14 C 0.48136(13) 0.21191(14) 0.72997(10)
C15 C 0.18511(13) 0.11476(14) 0.95093(10)
C16 C 0.22499(8) 0.14856(8) 0.93057(6)
C17 C 0.26122(10) 0.19193(9) 0.94294(6)
H9 H 0.2591 0.2003 0.9635
C18 C 0.30061(10) 0.22282(10) 0.92449(9)
H10 H 0.3249 0.2518 0.9328
C19 C 0.30375(12) 0.21034(13) 0.89368(9)
C20 C 0.26752(13) 0.16698(13) 0.88132(7)
H11 H 0.2696 0.1586 0.8607
C21 C 0.22813(11) 0.13609(10) 0.89976(6)
H12 H 0.2039 0.1071 0.8915
C22 C 0.34959(8) 0.24044(9) 0.87388(6)
C23 C 0.39399(9) 0.26794(12) 0.88863(7)
H13 H 0.3960 0.2681 0.9104
C24 C 0.43544(8) 0.29514(15) 0.87083(10)
H14 H 0.4652 0.3135 0.8807
C25 C 0.43248(11) 0.29485(16) 0.83828(9)
C26 C 0.38808(13) 0.26736(15) 0.82352(7)
H15 H 0.3861 0.2672 0.8017
C27 C 0.34663(10) 0.24015(12) 0.84132(6)
H16 H 0.3169 0.2218 0.8315
C28 C 0.47921(15) 0.32151(17) 0.82098(11)
C43 C 0.08514(13) 0.04845(14) 0.87935(10)
H25 H 0.1011 0.0733 0.8938
Cd2 Cd 0.122140(9) 0.050570(10) 0.994540(6)
O25 O 0.01735(10) 0.09184(13) 0.96053(7)
O26 O 0.05779(9) 0.06220(13) 0.98653(7)
C73 C 0.05259(14) 0.08716(21) 0.96557(12)
H43 H 0.0788 0.1041 0.9522
Cd6 Cd 0.002960(10) 0.135000(12) 0.922650(9)
Cd13 Cd 0.531667(12) 0.330373(10) 0.755983(9)
Cd14 Cd 0.541587(13) 0.275673(9) 0.685203(6)
Cd15 Cd 0.595097(13) 0.383903(10) 0.827873(6)
Cd16 Cd 0.057660(9) 0.125080(13) 0.851870(6)
Cd17 Cd -0.0000 0.0000 0.825030(13)
O53 O 0.07932(10) 0.15726(11) 0.90535(8)
O54 O 0.01809(13) 0.19112(11) 0.95852(10)
O11 O 0.08710(13) 0.95158(13) 0.30367(8)
O12 O 0.01588(13) 0.94676(11) 0.30058(8)
C33 C 0.08481(14) 0.99346(14) 0.15459(5)
C34 C 0.04943(13) 0.96460(12) 0.13299(7)
H19 H 0.0221 0.9364 0.1396
C35 C 0.05491(10) 0.97783(10) 0.10153(6)
H20 H 0.0312 0.9585 0.0871
C36 C 0.07730(8) 0.98104(8) 0.18948(5)
C37 C 0.11656(8) 0.99328(13) 0.20908(6)
C38 C 0.10930(12) 0.98337(15) 0.24102(6)
H22 H 0.1356 0.9916 0.2541
C39 C 0.06279(14) 0.96122(14) 0.25335(5)
C40 C 0.02353(11) 0.94898(14) 0.23374(7)
C41 C 0.03079(8) 0.95888(12) 0.20180(6)
H24 H 0.0045 0.9507 0.1887
C42 C 0.05439(18) 0.95317(17) 0.28835(11)
Cd3 Cd 0.057660(9) 0.932580(9) 0.351870(6)
Cd4_2 Cd -0.0000 1.0000 0.016620(17)
Cd5_2 Cd -0.0000 1.0000 0.325030(13)
O29 O 0.15903(16) 0.67877(12) 0.05350(7)
O30 O 0.16148(16) 0.64061(12) 0.00878(9)
C75 C 0.15195(21) 0.66859(16) 0.02405(13)
C76 C 0.13110(11) 0.69495(9) 0.00504(6)
C77 C 0.12545(13) 0.73038(10) 0.02016(7)
H45 H 0.1324 0.7363 0.0415
C78 C 0.10925(14) 0.75697(12) 0.00349(9)
H46 H 0.1054 0.7807 0.0136
O33 O 0.25398(14) 0.74015(10) 0.10625(7)
O34 O 0.27559(16) 0.79135(12) 0.14519(7)
C89 C 0.26298(19) 0.78143(14) 0.11760(10)
C90 C 0.25690(11) 0.81523(8) 0.09724(6)
C91 C 0.26404(13) 0.85860(9) 0.10961(6)
H53 H 0.2745 0.8670 0.1302
C92 C 0.25554(14) 0.88949(10) 0.09116(9)
H54 H 0.2602 0.9185 0.0995
C93 C 0.23992(18) 0.87701(13) 0.06035(9)
C94 C 0.23279(18) 0.83365(13) 0.04799(7)
H55 H 0.2223 0.8253 0.0274
C95 C 0.24129(15) 0.80276(10) 0.06643(6)
H56 H 0.2365 0.7738 0.0582
C96 C 0.22418(12) 0.90711(9) 0.04055(6)
C97 C 0.20728(15) 0.93461(12) 0.05530(7)
H57 H 0.2054 0.9348 0.0771
C98 C 0.19303(17) 0.96181(15) 0.03750(10)
H58 H 0.1816 0.9802 0.0474
C99 C 0.19570(19) 0.96152(16) 0.00495(9)
C101 C 0.22685(16) 0.90682(12) 0.00799(6)
O38 O 0.02606(12) 0.85421(11) 0.34211(9)
H64 H 0.0043 0.7953 0.2965
O49 O 0.07932(10) 0.92207(15) 0.40535(8)
O50 O 0.13496(12) 0.95448(17) 0.36936(8)
Cd18 Cd 0.198333(12) 0.663707(10) 0.089317(9)
Cd19 Cd 0.208253(13) 0.609007(9) 0.018537(6)
Cd20 Cd 0.261763(13) 0.717237(10) 0.161207(6)
Cd21 Cd 0.002960(10) 0.867960(7) 0.422650(9)
O2 O 0.14579(11) 0.97394(12) 0.84211(9)
O13 O 0.07449(9) 0.98265(10) 0.96053(7)
O16 O 0.00441(9) 0.94221(9) 0.98653(7)
H4 H 0.2047 0.9957 0.7965
C44 C 0.03457(15) 0.94741(14) 0.96557(12)
H26 H 0.0253 0.9212 0.9522
Cd1 Cd 0.132040(7) 0.997040(10) 0.922650(9)
O31 O 0.07793(15) 0.92068(10) 0.90535(8)
O32 O 0.04552(17) 0.86504(12) 0.86936(8)
C79 C 0.09872(17) 0.74813(14) 0.97170(9)
C80 C 0.10437(19) 0.71270(14) 0.95658(7)
H47 H 0.0973 0.7068 0.9353
C81 C 0.12057(15) 0.68611(11) 0.97325(6)
H48 H 0.1243 0.6624 0.9632
C82 C 0.08623(11) 0.78087(8) 0.95375(6)
C83 C 0.10610(13) 0.82909(8) 0.96237(6)
H49 H 0.1250 0.8406 0.9804
C84 C 0.09768(14) 0.86022(9) 0.94412(8)
H50 H 0.1109 0.8925 0.9499
C85 C 0.06940(16) 0.84313(12) 0.91725(8)
C86 C 0.04952(17) 0.79490(12) 0.90863(7)
H51 H 0.0306 0.7835 0.8907
C87 C 0.05794(13) 0.76378(9) 0.92687(6)
H52 H 0.0446 0.7315 0.9211
C88 C 0.06388(19) 0.87858(14) 0.89664(10)
O35 O 0.17302(17) 0.98191(13) 0.95852(10)
C100 C 0.21261(20) 0.93403(15) 0.99019(7)
H59 H 0.2144 0.9339 0.9684
H60 H 0.2382 0.8885 0.9982
C102 C 0.17563(23) 0.98818(17) 0.98765(11)
Cd12 Cd 0.067420(9) 0.942340(9) 0.851870(6)
Cd17_2 Cd -0.0000 1.0000 0.825030(13)
Cd4_3 Cd 1.0000 0.0000 0.016620(17)
Cd5_3 Cd 1.0000 0.0000 0.325030(13)
O17 O 0.92927(13) 0.06754(20) 0.04771(9)
O18 O 0.99255(13) 0.06118(17) 0.03884(7)
C45 C 0.96549(18) 0.06703(23) 0.05690(12)
C46 C 0.98008(9) 0.07585(12) 0.09167(5)
C47 C 0.95122(11) 0.08237(14) 0.11327(6)
H27 H 0.9231 0.0816 0.1067
C48 C 0.96445(14) 0.09012(18) 0.14474(6)
H28 H 0.9451 0.0944 0.1592
H31 H 0.9919 0.1396 0.2008
H41 H 0.9418 0.0076 0.2420
O51 O 0.99239(12) 0.05470(8) 0.35813(6)
O61 O 0.98576(14) 0.15007(11) 0.00186(8)
O70 O 0.92243(13) 0.01095(9) 0.38295(7)
Cd8 Cd 0.949430(10) 0.071570(13) 0.994540(6)
O45 O 0.92652(10) 0.07935(14) 0.93958(7)
O46 O 0.87532(12) 0.05774(16) 0.97852(7)
O47 O 0.68476(13) 0.16031(17) 0.79185(10)
O48 O 0.65243(14) 0.16903(18) 0.83519(8)
C119 C 0.88524(14) 0.07035(19) 0.95093(10)
C120 C 0.85144(8) 0.07643(11) 0.93057(6)
C121 C 0.80807(9) 0.06929(13) 0.94294(6)
H71 H 0.7997 0.0588 0.9635
C122 C 0.77718(10) 0.07779(14) 0.92449(9)
H72 H 0.7482 0.0731 0.9328
C123 C 0.78966(13) 0.09341(18) 0.89368(9)
C124 C 0.83302(13) 0.10054(18) 0.88132(7)
H73 H 0.8414 0.1110 0.8607
C125 C 0.86391(10) 0.09204(15) 0.89976(6)
H74 H 0.8929 0.0968 0.8915
C126 C 0.75956(9) 0.10915(12) 0.87388(6)
C127 C 0.73206(12) 0.12605(15) 0.88863(7)
H75 H 0.7319 0.1279 0.9104
C128 C 0.70486(15) 0.14030(17) 0.87083(10)
H76 H 0.6865 0.1517 0.8807
C129 C 0.70515(16) 0.13763(19) 0.83828(9)
C130 C 0.73264(15) 0.12072(20) 0.82352(7)
H77 H 0.7328 0.1189 0.8017
C131 C 0.75985(12) 0.10648(16) 0.84132(6)
H78 H 0.7782 0.0951 0.8315
C132 C 0.67849(17) 0.15770(23) 0.82098(11)
Cd17_3 Cd 1.0000 0.0000 0.825030(13)
O52 O 0.98790(12) 0.17430(16) 0.88683(7)
O55 O 0.98905(9) 0.07757(13) 0.88295(7)
Cd25 Cd 0.669627(10) 0.201293(7) 0.755983(9)
Cd26 Cd 0.616097(10) 0.211193(9) 0.827873(6)
H23 H 0.9924 0.9342 0.2420
Cd4_4 Cd 1.0000 1.0000 0.016620(17)
Cd5_4 Cd 1.0000 1.0000 0.325030(13)
O21 O 0.93246(20) 0.86173(15) 0.04771(9)
O22 O 0.93882(17) 0.93137(11) 0.03884(7)
O23 O 0.86448(18) 0.91290(13) 0.30367(8)
O24 O 0.93088(17) 0.98412(13) 0.30058(8)
C59 C 0.93297(23) 0.89846(15) 0.05690(12)
C60 C 0.92415(12) 0.90423(8) 0.09167(5)
C61 C 0.91763(14) 0.86885(9) 0.11327(6)
H35 H 0.9184 0.8415 0.1067
C62 C 0.90988(18) 0.87433(12) 0.14474(6)
H36 H 0.9056 0.8507 0.1592
C63 C 0.90865(20) 0.91519(14) 0.15459(5)
C64 C 0.91517(18) 0.95057(13) 0.13299(7)
H37 H 0.9143 0.9779 0.1396
C65 C 0.92292(14) 0.94509(10) 0.10153(6)
H38 H 0.9273 0.9688 0.0871
C66 C 0.90374(11) 0.92270(8) 0.18948(5)
C67 C 0.87672(15) 0.88344(8) 0.20908(6)
H39 H 0.8604 0.8523 0.2008
C68 C 0.87407(19) 0.89070(12) 0.24102(6)
H40 H 0.8560 0.8644 0.2541
C69 C 0.89843(20) 0.93721(14) 0.25335(5)
C70 C 0.92545(18) 0.97647(11) 0.23374(7)
C71 C 0.92809(14) 0.96921(8) 0.20180(6)
H42 H 0.9462 0.9955 0.1887
C72 C 0.89878(25) 0.94561(18) 0.28835(11)
Cd11 Cd 0.874920(13) 0.942340(9) 0.351870(6)
O37 O 0.98790(12) 0.81360(10) 0.38683(7)
O39 O 0.74599(10) 0.49059(11) 0.23868(8)
O40 O 0.80163(12) 0.51382(12) 0.20269(8)
C103 C 0.99808(16) 0.81670(14) 0.35738(13)
C104 C 0.97172(9) 0.76949(7) 0.33837(6)
C105 C 0.93629(10) 0.72841(9) 0.35349(7)
H61 H 0.9304 0.7295 0.3748
C106 C 0.90970(12) 0.68562(8) 0.33682(9)
H62 H 0.8860 0.6581 0.3469
C107 C 0.91854(14) 0.68393(10) 0.30503(9)
C108 C 0.95397(14) 0.72501(13) 0.28991(7)
H63 H 0.9599 0.7239 0.2686
C109 C 0.98056(11) 0.76780(10) 0.30658(6)
C110 C 0.88580(8) 0.63870(8) 0.28708(6)
C111 C 0.83758(8) 0.61035(10) 0.29570(6)
H65 H 0.8261 0.6178 0.3137
C112 C 0.80645(9) 0.57080(11) 0.27745(8)
H66 H 0.7742 0.5518 0.2832
C113 C 0.82354(12) 0.55961(11) 0.25058(8)
C114 C 0.87177(12) 0.58796(12) 0.24196(7)
H67 H 0.8832 0.5805 0.2240
C115 C 0.90289(9) 0.62750(10) 0.26020(6)
H68 H 0.9352 0.6465 0.2544
C116 C 0.78809(14) 0.51864(13) 0.22997(10)
O41 O 0.98905(9) 0.91148(9) 0.38295(7)
O42 O 0.94530(8) 0.93769(9) 0.35813(6)
C117 C 0.95155(14) 0.91486(13) 0.37935(10)
H69 H 0.9267 0.8989 0.3938
O63 O 0.84993(11) 0.83570(18) 0.00186(8)
O67 O 0.82815(16) 0.97394(12) 0.34211(9)
O68 O 0.84274(11) 0.92068(10) 0.40535(8)
O69 O 0.81951(12) 0.86504(12) 0.36936(8)
Cd22 Cd 0.669627(10) 0.468333(12) 0.255983(9)
Cd23 Cd 0.724327(9) 0.458413(13) 0.185203(6)
O27 O 0.90816(13) 0.92551(9) 0.96053(7)
O28 O 0.93780(13) 0.99559(9) 0.98653(7)
C74 C 0.91284(21) 0.96543(15) 0.96557(12)
H44 H 0.8959 0.9747 0.9522
Cd7 Cd 0.865000(12) 0.867960(7) 0.922650(9)
Cd9 Cd 0.928430(13) 0.877860(9) 0.994540(6)
Cd17_4 Cd 1.0000 1.0000 0.825030(13)
O56 O 0.82570(16) 0.81360(10) 0.88683(7)
O57 O 0.84274(11) 0.92207(15) 0.90535(8)
O58 O 0.92065(14) 0.84717(10) 0.93958(7)
O59 O 0.80888(11) 0.82698(17) 0.95852(10)
O60 O 0.92243(13) 0.91148(9) 0.88295(7)
O62 O 0.94226(16) 0.81758(11) 0.97852(7)
O29_2 O 0.32123(12) 0.48027(20) 0.05350(7)
O30_2 O 0.35939(12) 0.52088(20) 0.00878(9)
C75_2 C 0.33141(16) 0.48337(26) 0.02405(13)
C76_2 C 0.30505(9) 0.43616(14) 0.00504(6)
C77_2 C 0.26962(10) 0.39508(16) 0.02016(7)
H45_2 H 0.2637 0.3962 0.0415
C78_2 C 0.24303(12) 0.35229(18) 0.00349(9)
H46_2 H 0.2193 0.3248 0.0136
O33_2 O 0.25985(10) 0.51384(17) 0.10625(7)
O34_2 O 0.20865(12) 0.48425(20) 0.14519(7)
C89_2 C 0.21857(14) 0.48156(24) 0.11760(10)
C90_2 C 0.18477(8) 0.44168(14) 0.09724(6)
C91_2 C 0.14140(9) 0.40545(16) 0.10961(6)
H53_2 H 0.1330 0.4076 0.1302
C92_2 C 0.11051(10) 0.36606(17) 0.09116(9)
H54_2 H 0.0815 0.3418 0.0995
C93_2 C 0.12299(13) 0.36292(22) 0.06035(9)
C94_2 C 0.16635(13) 0.39915(22) 0.04799(7)
H55_2 H 0.1747 0.3971 0.0274
C95_2 C 0.19724(10) 0.43854(18) 0.06643(6)
H56_2 H 0.2262 0.4628 0.0582
C96_2 C 0.09289(9) 0.31708(15) 0.04055(6)
C97_2 C 0.06539(12) 0.27268(19) 0.05530(7)
H57_2 H 0.0652 0.2707 0.0771
C98_2 C 0.03819(15) 0.23123(23) 0.03750(10)
H58_2 H 0.0198 0.2015 0.0474
C99_2 C 0.03848(16) 0.23419(25) 0.00495(9)
C101_2 C 0.09318(12) 0.32004(20) 0.00799(6)
O37_2 O 0.18640(10) 0.17430(16) 0.38683(7)
O39_2 O 0.50941(11) 0.25540(15) 0.23868(8)
O40_2 O 0.48618(12) 0.28781(17) 0.20269(8)
C103_2 C 0.18330(14) 0.18138(21) 0.35738(13)
C104_2 C 0.23051(7) 0.20223(11) 0.33837(6)
C105_2 C 0.27159(9) 0.20788(13) 0.35349(7)
H61_2 H 0.2705 0.2009 0.3748
C106_2 C 0.31438(8) 0.22408(14) 0.33682(9)
H62_2 H 0.3419 0.2279 0.3469
C107_2 C 0.31607(10) 0.23461(17) 0.30503(9)
C108_2 C 0.27499(13) 0.22896(19) 0.28991(7)
H63_2 H 0.2761 0.2360 0.2686
C109_2 C 0.23220(10) 0.21276(15) 0.30658(6)
H64_2 H 0.2047 0.2090 0.2965
C110_2 C 0.36130(8) 0.24710(11) 0.28708(6)
C111_2 C 0.38965(10) 0.22723(13) 0.29570(6)
H65_2 H 0.3822 0.2083 0.3137
C112_2 C 0.42920(11) 0.23565(14) 0.27745(8)
H66_2 H 0.4482 0.2224 0.2832
C113_2 C 0.44039(11) 0.26393(16) 0.25058(8)
C114_2 C 0.41204(12) 0.28381(17) 0.24196(7)
H67_2 H 0.4195 0.3027 0.2240
C115_2 C 0.37250(10) 0.27539(13) 0.26020(6)
H68_2 H 0.3535 0.2887 0.2544
C116_2 C 0.48136(13) 0.26945(19) 0.22997(10)
Cd18_2 Cd 0.336293(10) 0.534627(16) 0.089317(9)
Cd19_2 Cd 0.390993(9) 0.599247(16) 0.018537(6)
Cd20_2 Cd 0.282763(10) 0.544527(16) 0.161207(6)
Cd22_2 Cd 0.531667(12) 0.201293(16) 0.255983(9)
Cd23_2 Cd 0.541587(13) 0.265913(16) 0.185203(6)
O2_2 O 0.02606(12) 0.17185(16) 0.84211(9)
H4_2 H 0.0043 0.2090 0.7965
O32_2 O 0.13496(12) 0.18049(21) 0.86936(8)
C79_2 C 0.25187(14) 0.35060(22) 0.97170(9)
C80_2 C 0.28730(14) 0.39168(24) 0.95658(7)
H47_2 H 0.2932 0.3906 0.9353
C81_2 C 0.31389(11) 0.43447(19) 0.97325(6)
H48_2 H 0.3376 0.4620 0.9632
C82_2 C 0.21913(8) 0.30537(14) 0.95375(6)
C83_2 C 0.17091(8) 0.27702(15) 0.96237(6)
H49_2 H 0.1594 0.2845 0.9804
C84_2 C 0.13978(9) 0.23747(17) 0.94412(8)
H50_2 H 0.1075 0.2185 0.9499
C85_2 C 0.15687(12) 0.22628(20) 0.91725(8)
C86_2 C 0.20510(12) 0.25463(21) 0.90863(7)
H51_2 H 0.2165 0.2472 0.8907
C87_2 C 0.23622(9) 0.29417(16) 0.92687(6)
H52_2 H 0.2685 0.3132 0.9211
C88_2 C 0.12142(14) 0.18531(24) 0.89664(10)
C100_2 C 0.06597(15) 0.27859(25) 0.99019(7)
H59_2 H 0.0661 0.2806 0.9684
H60_2 H 0.1115 0.3498 0.9982
C102_2 C 0.01182(17) 0.18746(29) 0.98765(11)
C118_2 C 0.96331(19) 0.04845(23) 0.37935(10)
H70_2 H 0.9722 0.0733 0.3938
O3_2 O 0.74599(10) 0.25540(15) 0.73868(8)
O4_2 O 0.80163(12) 0.28781(17) 0.70269(8)
O15_2 O 0.94530(8) 0.00761(12) 0.85813(6)
C1_2 C 0.99808(16) 0.18138(21) 0.85738(13)
C2_2 C 0.97172(9) 0.20223(11) 0.83837(6)
C3_2 C 0.93629(10) 0.20788(13) 0.85349(7)
H1_2 H 0.9304 0.2009 0.8748
C4_2 C 0.90970(12) 0.22408(14) 0.83682(9)
H2_2 H 0.8860 0.2279 0.8469
C5_2 C 0.91854(14) 0.23461(17) 0.80503(9)
C6_2 C 0.95397(14) 0.22896(19) 0.78991(7)
H3_2 H 0.9599 0.2360 0.7686
C7_2 C 0.98056(11) 0.21276(15) 0.80658(6)
C8_2 C 0.88580(8) 0.24710(11) 0.78708(6)
C9_2 C 0.83758(8) 0.22723(13) 0.79570(6)
H5_2 H 0.8261 0.2083 0.8137
C10_2 C 0.80645(9) 0.23565(14) 0.77745(8)
H6_2 H 0.7742 0.2224 0.7832
C11_2 C 0.82354(12) 0.26393(16) 0.75058(8)
C12_2 C 0.87177(12) 0.28381(17) 0.74196(7)
H7_2 H 0.8832 0.3027 0.7240
C13_2 C 0.90289(9) 0.27539(13) 0.76020(6)
H8_2 H 0.9352 0.2887 0.7544
C14_2 C 0.78809(14) 0.26945(19) 0.72997(10)
C43_2 C 0.95155(14) 0.03669(19) 0.87935(10)
H25_2 H 0.9267 0.0278 0.8938
Cd14_2 Cd 0.724327(9) 0.265913(16) 0.685203(6)
Cd24_2 Cd 0.865000(12) 0.997040(14) 0.422650(9)
O47_2 O 0.83969(17) 0.52445(21) 0.79185(10)
O48_2 O 0.83097(18) 0.48340(23) 0.83519(8)
C119_2 C 0.92965(19) 0.81489(24) 0.95093(10)
C120_2 C 0.92357(11) 0.77501(14) 0.93057(6)
C121_2 C 0.93071(13) 0.73878(16) 0.94294(6)
H71_2 H 0.9412 0.7409 0.9635
C122_2 C 0.92221(14) 0.69939(17) 0.92449(9)
H72_2 H 0.9269 0.6751 0.9328
C123_2 C 0.90659(18) 0.69625(22) 0.89368(9)
C124_2 C 0.89946(18) 0.73248(22) 0.88132(7)
H73_2 H 0.8890 0.7304 0.8607
C125_2 C 0.90796(15) 0.77187(18) 0.89976(6)
H74_2 H 0.9032 0.7961 0.8915
C126_2 C 0.89085(12) 0.65041(15) 0.87388(6)
C127_2 C 0.87395(15) 0.60601(19) 0.88863(7)
H75_2 H 0.8721 0.6040 0.9104
C128_2 C 0.85970(17) 0.56456(23) 0.87083(10)
H76_2 H 0.8483 0.5348 0.8807
C129_2 C 0.86237(19) 0.56752(25) 0.83828(9)
C130_2 C 0.87928(20) 0.61192(25) 0.82352(7)
H77_2 H 0.8811 0.6139 0.8017
C131_2 C 0.89352(16) 0.65337(20) 0.84132(6)
H78_2 H 0.9049 0.6831 0.8315
C132_2 C 0.84230(23) 0.52079(29) 0.82098(11)
Cd16_2 Cd 0.874920(13) 0.932580(16) 0.851870(6)
Cd25_2 Cd 0.798707(7) 0.468333(12) 0.755983(9)
Cd26_2 Cd 0.788807(9) 0.404903(13) 0.827873(6)
O37_3 O 0.82570(16) 0.01210(12) 0.38683(7)
O39_3 O 0.74460(15) 0.25401(10) 0.23868(8)
O40_3 O 0.71219(17) 0.19837(12) 0.20269(8)
C103_3 C 0.81862(21) 0.00192(16) 0.35738(13)
C104_3 C 0.79777(11) 0.02828(9) 0.33837(6)
C105_3 C 0.79212(13) 0.06371(10) 0.35349(7)
H61_3 H 0.7991 0.0696 0.3748
C106_3 C 0.77592(14) 0.09030(12) 0.33682(9)
H62_3 H 0.7721 0.1140 0.3469
C107_3 C 0.76539(17) 0.08146(14) 0.30503(9)
C108_3 C 0.77104(19) 0.04603(14) 0.28991(7)
H63_3 H 0.7640 0.0401 0.2686
C109_3 C 0.78724(15) 0.01944(11) 0.30658(6)
C110_3 C 0.75290(11) 0.11420(8) 0.28708(6)
C111_3 C 0.77277(13) 0.16242(8) 0.29570(6)
H65_3 H 0.7917 0.1739 0.3137
C112_3 C 0.76435(14) 0.19355(9) 0.27745(8)
H66_3 H 0.7776 0.2258 0.2832
C113_3 C 0.73607(16) 0.17646(12) 0.25058(8)
C114_3 C 0.71619(17) 0.12823(12) 0.24196(7)
H67_3 H 0.6973 0.1168 0.2240
C115_3 C 0.72461(13) 0.09711(9) 0.26020(6)
H68_3 H 0.7113 0.0648 0.2544
C116_3 C 0.73055(19) 0.21191(14) 0.22997(10)
Cd22_3 Cd 0.798707(16) 0.330373(10) 0.255983(9)
Cd23_3 Cd 0.734087(16) 0.275673(9) 0.185203(6)
O29_3 O 0.51973(20) 0.84097(16) 0.05350(7)
O30_3 O 0.47912(20) 0.83852(16) 0.00878(9)
C75_3 C 0.51663(26) 0.84805(21) 0.02405(13)
C76_3 C 0.56384(14) 0.86890(11) 0.00504(6)
C77_3 C 0.60492(16) 0.87455(13) 0.02016(7)
H45_3 H 0.6038 0.8676 0.0415
C78_3 C 0.64771(18) 0.89075(14) 0.00349(9)
H46_3 H 0.6752 0.8946 0.0136
O33_3 O 0.48616(17) 0.74602(14) 0.10625(7)
O34_3 O 0.51575(20) 0.72441(16) 0.14519(7)
C89_3 C 0.51844(24) 0.73702(19) 0.11760(10)
C90_3 C 0.55832(14) 0.74310(11) 0.09724(6)
C91_3 C 0.59455(16) 0.73596(13) 0.10961(6)
H53_3 H 0.5924 0.7255 0.1302
C92_3 C 0.63394(17) 0.74446(14) 0.09116(9)
H54_3 H 0.6582 0.7398 0.0995
C93_3 C 0.63708(22) 0.76008(18) 0.06035(9)
C94_3 C 0.60085(22) 0.76721(18) 0.04799(7)
H55_3 H 0.6029 0.7777 0.0274
C95_3 C 0.56146(18) 0.75871(15) 0.06643(6)
H56_3 H 0.5372 0.7635 0.0582
C96_3 C 0.68292(15) 0.77582(12) 0.04055(6)
C97_3 C 0.72732(19) 0.79272(15) 0.05530(7)
H57_3 H 0.7293 0.7946 0.0771
C98_3 C 0.76877(23) 0.80697(17) 0.03750(10)
H58_3 H 0.7985 0.8184 0.0474
C99_3 C 0.76581(25) 0.80430(19) 0.00495(9)
C101_3 C 0.67996(20) 0.77315(16) 0.00799(6)
H64_3 H 0.7910 0.9957 0.2965
Cd18_3 Cd 0.465373(16) 0.801667(12) 0.089317(9)
Cd19_3 Cd 0.400753(16) 0.791747(13) 0.018537(6)
Cd20_3 Cd 0.455473(16) 0.738237(13) 0.161207(6)
O2_3 O 0.82815(16) 0.85421(11) 0.84211(9)
O3_3 O 0.74460(15) 0.49059(11) 0.73868(8)
O4_3 O 0.71219(17) 0.51382(12) 0.70269(8)
O15_3 O 0.99239(12) 0.93769(9) 0.85813(6)
C1_3 C 0.81862(21) 0.81670(14) 0.85738(13)
C2_3 C 0.79777(11) 0.76949(7) 0.83837(6)
C3_3 C 0.79212(13) 0.72841(9) 0.85349(7)
H1_3 H 0.7991 0.7295 0.8748
C4_3 C 0.77592(14) 0.68562(8) 0.83682(9)
H2_3 H 0.7721 0.6581 0.8469
C5_3 C 0.76539(17) 0.68393(10) 0.80503(9)
C6_3 C 0.77104(19) 0.72501(13) 0.78991(7)
H3_3 H 0.7640 0.7239 0.7686
C7_3 C 0.78724(15) 0.76780(10) 0.80658(6)
H4_3 H 0.7910 0.7953 0.7965
C8_3 C 0.75290(11) 0.63870(8) 0.78708(6)
C9_3 C 0.77277(13) 0.61035(10) 0.79570(6)
H5_3 H 0.7917 0.6178 0.8137
C10_3 C 0.76435(14) 0.57080(11) 0.77745(8)
H6_3 H 0.7776 0.5518 0.7832
C11_3 C 0.73607(16) 0.55961(11) 0.75058(8)
C12_3 C 0.71619(17) 0.58796(12) 0.74196(7)
H7_3 H 0.6973 0.5805 0.7240
C13_3 C 0.72461(13) 0.62750(10) 0.76020(6)
H8_3 H 0.7113 0.6465 0.7544
C14_3 C 0.73055(19) 0.51864(13) 0.72997(10)
C43_3 C 0.96331(19) 0.91486(13) 0.87935(10)
H25_3 H 0.9722 0.8989 0.8938
O32_3 O 0.81951(21) 0.95448(17) 0.86936(8)
C79_3 C 0.64940(22) 0.90128(17) 0.97170(9)
C80_3 C 0.60832(24) 0.89563(19) 0.95658(7)
H47_3 H 0.6094 0.9027 0.9353
C81_3 C 0.56553(19) 0.87943(15) 0.97325(6)
H48_3 H 0.5380 0.8757 0.9632
C82_3 C 0.69463(14) 0.91377(11) 0.95375(6)
C83_3 C 0.72298(15) 0.89390(13) 0.96237(6)
H49_3 H 0.7155 0.8750 0.9804
C84_3 C 0.76253(17) 0.90232(14) 0.94412(8)
H50_3 H 0.7815 0.8891 0.9499
C85_3 C 0.77372(20) 0.93060(16) 0.91725(8)
C86_3 C 0.74537(21) 0.95048(17) 0.90863(7)
H51_3 H 0.7528 0.9694 0.8907
C87_3 C 0.70583(16) 0.94206(13) 0.92687(6)
H52_3 H 0.6868 0.9554 0.9211
C88_3 C 0.81469(24) 0.93612(19) 0.89664(10)
C100_3 C 0.72141(25) 0.78739(20) 0.99019(7)
H59_3 H 0.7194 0.7856 0.9684
H60_3 H 0.6502 0.7618 0.9982
C102_3 C 0.81254(29) 0.82437(23) 0.98765(11)
Cd14_3 Cd 0.734087(16) 0.458413(13) 0.685203(6)
H23_2 H 0.0658 0.0076 0.7420
Cd4_5 Cd -0.0000 0.0000 0.516620(17)
O21_2 O 0.13827(15) 0.06754(20) 0.54771(9)
O22_2 O 0.06863(11) 0.06118(17) 0.53884(7)
O23_2 O 0.08710(13) 0.13552(18) 0.80367(8)
O24_2 O 0.01588(13) 0.06912(17) 0.80058(8)
C59_2 C 0.10154(15) 0.06703(23) 0.55690(12)
C60_2 C 0.09577(8) 0.07585(12) 0.59167(5)
C61_2 C 0.13115(9) 0.08237(14) 0.61327(6)
H35_2 H 0.1585 0.0816 0.6067
C62_2 C 0.12567(12) 0.09012(18) 0.64474(6)
H36_2 H 0.1493 0.0944 0.6592
C63_2 C 0.08481(14) 0.09135(20) 0.65459(5)
C64_2 C 0.04943(13) 0.08483(18) 0.63299(7)
H37_2 H 0.0221 0.0857 0.6396
C65_2 C 0.05491(10) 0.07708(14) 0.60153(6)
H38_2 H 0.0312 0.0727 0.5871
C66_2 C 0.07730(8) 0.09626(11) 0.68948(5)
C67_2 C 0.11656(8) 0.12328(15) 0.70908(6)
H39_2 H 0.1477 0.1396 0.7008
C68_2 C 0.10930(12) 0.12593(19) 0.74102(6)
H40_2 H 0.1356 0.1440 0.7541
C69_2 C 0.06279(14) 0.10157(20) 0.75335(5)
C70_2 C 0.02353(11) 0.07455(18) 0.73374(7)
C71_2 C 0.03079(8) 0.07191(14) 0.70180(6)
H42_2 H 0.0045 0.0538 0.6887
C72_2 C 0.05439(18) 0.10122(25) 0.78835(11)
O27_2 O 0.07449(9) 0.09184(13) 0.46053(7)
O28_2 O 0.00441(9) 0.06220(13) 0.48653(7)
C74_2 C 0.03457(15) 0.08716(21) 0.46557(12)
H44_2 H 0.0253 0.1041 0.4522
Cd9_2 Cd 0.122140(9) 0.071570(13) 0.494540(6)
O58_2 O 0.15283(10) 0.07935(14) 0.43958(7)
O59_2 O 0.17302(17) 0.19112(11) 0.45852(10)
O62_2 O 0.18242(11) 0.05774(16) 0.47852(7)
O63_2 O 0.16430(18) 0.15007(11) 0.50186(8)
O11_2 O 0.04842(13) 0.91290(13) 0.80367(8)
O12_2 O 0.05324(11) 0.98412(13) 0.80058(8)
O13_2 O 0.01735(10) 0.92551(9) 0.46053(7)
O16_2 O 0.05779(9) 0.99559(9) 0.48653(7)
C33_2 C 0.00654(14) 0.91519(14) 0.65459(5)
C34_2 C 0.03540(12) 0.95057(13) 0.63299(7)
H19_2 H 0.0636 0.9779 0.6396
C35_2 C 0.02217(10) 0.94509(10) 0.60153(6)
H20_2 H 0.0415 0.9688 0.5871
C36_2 C 0.01896(8) 0.92270(8) 0.68948(5)
C37_2 C 0.00672(13) 0.88344(8) 0.70908(6)
C38_2 C 0.01663(15) 0.89070(12) 0.74102(6)
H22_2 H 0.0084 0.8644 0.7541
C39_2 C 0.03878(14) 0.93721(14) 0.75335(5)
C40_2 C 0.05102(14) 0.97647(11) 0.73374(7)
C41_2 C 0.04112(12) 0.96921(8) 0.70180(6)
H24_2 H 0.0493 0.9955 0.6887
C42_2 C 0.04683(17) 0.94561(18) 0.78835(11)
C44_2 C 0.05259(14) 0.96543(15) 0.46557(12)
H26_2 H 0.0788 0.9747 0.4522
Cd4_6 Cd 0.0000 1.0000 0.516620(17)
O29_4 O 0.32123(12) 0.84097(16) 0.55350(7)
O30_4 O 0.35939(12) 0.83852(16) 0.50878(9)
C75_4 C 0.33141(16) 0.84805(21) 0.52405(13)
C76_4 C 0.30505(9) 0.86890(11) 0.50504(6)
C77_4 C 0.26962(10) 0.87455(13) 0.52016(7)
H45_4 H 0.2637 0.8676 0.5415
C78_4 C 0.24303(12) 0.89075(14) 0.50349(9)
H46_4 H 0.2193 0.8946 0.5136
C79_4 C 0.25187(14) 0.90128(17) 0.47170(9)
C80_4 C 0.28730(14) 0.89563(19) 0.45658(7)
H47_4 H 0.2932 0.9027 0.4353
C81_4 C 0.31389(11) 0.87943(15) 0.47325(6)
H48_4 H 0.3376 0.8757 0.4632
C82_4 C 0.21913(8) 0.91377(11) 0.45375(6)
C83_4 C 0.17091(8) 0.89390(13) 0.46237(6)
H49_4 H 0.1594 0.8750 0.4804
C84_4 C 0.13978(9) 0.90232(14) 0.44412(8)
H50_4 H 0.1075 0.8891 0.4499
C85_4 C 0.15687(12) 0.93060(16) 0.41725(8)
C86_4 C 0.20510(12) 0.95048(17) 0.40863(7)
H51_4 H 0.2165 0.9694 0.3907
C87_4 C 0.23622(9) 0.94206(13) 0.42687(6)
H52_4 H 0.2685 0.9554 0.4211
C88_4 C 0.12142(14) 0.93612(19) 0.39664(10)
O33_4 O 0.25985(10) 0.74602(14) 0.60625(7)
O34_4 O 0.20865(12) 0.72441(16) 0.64519(7)
O35_2 O 0.01809(13) 0.82698(17) 0.45852(10)
C89_4 C 0.21857(14) 0.73702(19) 0.61760(10)
C90_4 C 0.18477(8) 0.74310(11) 0.59724(6)
C91_4 C 0.14140(9) 0.73596(13) 0.60961(6)
H53_4 H 0.1330 0.7255 0.6302
C92_4 C 0.11051(10) 0.74446(14) 0.59116(9)
H54_4 H 0.0815 0.7398 0.5995
C93_4 C 0.12299(13) 0.76008(18) 0.56035(9)
C94_4 C 0.16635(13) 0.76721(18) 0.54799(7)
H55_4 H 0.1747 0.7777 0.5274
C95_4 C 0.19724(10) 0.75871(15) 0.56643(6)
H56_4 H 0.2262 0.7635 0.5582
C96_4 C 0.09289(9) 0.77582(12) 0.54055(6)
C97_4 C 0.06539(12) 0.79272(15) 0.55530(7)
H57_4 H 0.0652 0.7946 0.5771
C98_4 C 0.03819(15) 0.80697(17) 0.53750(10)
H58_4 H 0.0198 0.8184 0.5474
C99_4 C 0.03848(16) 0.80430(19) 0.50495(9)
C100_4 C 0.06597(15) 0.78739(20) 0.49019(7)
H59_4 H 0.0661 0.7856 0.4684
C101_4 C 0.09318(12) 0.77315(16) 0.50799(6)
H60_4 H 0.1115 0.7618 0.4982
C102_4 C 0.01182(17) 0.82437(23) 0.48765(11)
Cd18_4 Cd 0.336293(10) 0.801667(12) 0.589317(9)
Cd19_4 Cd 0.390993(9) 0.791747(13) 0.518537(6)
Cd20_4 Cd 0.282763(10) 0.738237(13) 0.661207(6)
Cd4_7 Cd 1.0000 0.0000 0.516620(17)
O17_2 O 0.93246(20) 0.07073(13) 0.54771(9)
O18_2 O 0.93882(17) 0.00745(13) 0.53884(7)
C45_2 C 0.93297(23) 0.03451(18) 0.55690(12)
C46_2 C 0.92415(12) 0.01992(9) 0.59167(5)
C47_2 C 0.91763(14) 0.04878(11) 0.61327(6)
H27_2 H 0.9184 0.0769 0.6067
C48_2 C 0.90988(18) 0.03555(14) 0.64474(6)
H28_2 H 0.9056 0.0549 0.6592
H31_2 H 0.8604 0.0081 0.7008
H41_2 H 0.9924 0.0582 0.7420
Cd8_2 Cd 0.928430(13) 0.050570(10) 0.494540(6)
O45_2 O 0.92065(14) 0.07348(10) 0.43958(7)
O46_2 O 0.94226(16) 0.12468(12) 0.47852(7)
O47_3 O 0.83969(17) 0.31524(13) 0.29185(10)
O48_3 O 0.83097(18) 0.34757(14) 0.33519(8)
C119_3 C 0.92965(19) 0.11476(14) 0.45093(10)
C120_3 C 0.92357(11) 0.14856(8) 0.43057(6)
C121_3 C 0.93071(13) 0.19193(9) 0.44294(6)
H71_3 H 0.9412 0.2003 0.4635
C122_3 C 0.92221(14) 0.22282(10) 0.42449(9)
H72_3 H 0.9269 0.2518 0.4328
C123_3 C 0.90659(18) 0.21034(13) 0.39368(9)
C124_3 C 0.89946(18) 0.16698(13) 0.38132(7)
H73_3 H 0.8890 0.1586 0.3607
C125_3 C 0.90796(15) 0.13609(10) 0.39976(6)
H74_3 H 0.9032 0.1071 0.3915
C126_3 C 0.89085(12) 0.24044(9) 0.37388(6)
C127_3 C 0.87395(15) 0.26794(12) 0.38863(7)
H75_3 H 0.8721 0.2681 0.4104
C128_3 C 0.85970(17) 0.29514(15) 0.37083(10)
H76_3 H 0.8483 0.3135 0.3807
C129_3 C 0.86237(19) 0.29485(16) 0.33828(9)
C130_3 C 0.87928(20) 0.26736(15) 0.32352(7)
H77_3 H 0.8811 0.2672 0.3017
C131_3 C 0.89352(16) 0.24015(12) 0.34132(6)
H78_3 H 0.9049 0.2218 0.3315
C132_3 C 0.84230(23) 0.32151(17) 0.32098(11)
O61_2 O 0.84993(11) 0.01424(14) 0.50186(8)
Cd26_3 Cd 0.788807(9) 0.383903(10) 0.327873(6)
O5_2 O 0.92652(10) 0.84717(10) 0.43958(7)
O6_2 O 0.87532(12) 0.81758(11) 0.47852(7)
O7_2 O 0.68476(13) 0.52445(11) 0.29185(10)
O8_2 O 0.65243(14) 0.48340(11) 0.33519(8)
O9_2 O 0.92927(13) 0.86173(15) 0.54771(9)
O10_2 O 0.99255(13) 0.93137(11) 0.53884(7)
C15_2 C 0.88524(14) 0.81489(13) 0.45093(10)
C16_2 C 0.85144(8) 0.77501(8) 0.43057(6)
C17_2 C 0.80807(9) 0.73878(10) 0.44294(6)
H9_2 H 0.7997 0.7409 0.4635
C18_2 C 0.77718(10) 0.69939(10) 0.42449(9)
H10_2 H 0.7482 0.6751 0.4328
C19_2 C 0.78966(13) 0.69625(12) 0.39368(9)
C20_2 C 0.83302(13) 0.73248(13) 0.38132(7)
H11_2 H 0.8414 0.7304 0.3607
C21_2 C 0.86391(10) 0.77187(11) 0.39976(6)
H12_2 H 0.8929 0.7961 0.3915
C22_2 C 0.75956(9) 0.65041(8) 0.37388(6)
C23_2 C 0.73206(12) 0.60601(9) 0.38863(7)
H13_2 H 0.7319 0.6040 0.4104
C24_2 C 0.70486(15) 0.56456(8) 0.37083(10)
H14_2 H 0.6865 0.5348 0.3807
C25_2 C 0.70515(16) 0.56752(11) 0.33828(9)
C26_2 C 0.73264(15) 0.61192(13) 0.32352(7)
H15_2 H 0.7328 0.6139 0.3017
C27_2 C 0.75985(12) 0.65337(10) 0.34132(6)
H16_2 H 0.7782 0.6831 0.3315
C28_2 C 0.67849(17) 0.52079(15) 0.32098(11)
C29_2 C 0.96549(18) 0.89846(15) 0.55690(12)
C30_2 C 0.98008(9) 0.90423(8) 0.59167(5)
C31_2 C 0.95122(11) 0.86885(9) 0.61327(6)
H17_2 H 0.9231 0.8415 0.6067
C32_2 C 0.96445(14) 0.87433(12) 0.64474(6)
H18_2 H 0.9451 0.8507 0.6592
H21_2 H 0.9919 0.8523 0.7008
Cd2_2 Cd 0.949430(10) 0.877860(9) 0.494540(6)
Cd4_8 Cd 1.0000 1.0000 0.516620(17)
O19_2 O 0.86448(18) 0.95158(13) 0.80367(8)
O20_2 O 0.93088(17) 0.94676(11) 0.80058(8)
C49_2 C 0.90865(20) 0.99346(14) 0.65459(5)
C50_2 C 0.91517(18) 0.96460(12) 0.63299(7)
H29_2 H 0.9143 0.9364 0.6396
C51_2 C 0.92292(14) 0.97783(10) 0.60153(6)
H30_2 H 0.9273 0.9585 0.5871
C52_2 C 0.90374(11) 0.98104(8) 0.68948(5)
C53_2 C 0.87672(15) 0.99328(13) 0.70908(6)
C54_2 C 0.87407(19) 0.98337(15) 0.74102(6)
H32_2 H 0.8560 0.9916 0.7541
C55_2 C 0.89843(20) 0.96122(14) 0.75335(5)
C56_2 C 0.92545(18) 0.94898(14) 0.73374(7)
H33_2 H 0.9418 0.9342 0.7420
C57_2 C 0.92809(14) 0.95888(12) 0.70180(6)
H34_2 H 0.9462 0.9507 0.6887
C58_2 C 0.89878(25) 0.95317(17) 0.78835(11)
O25_2 O 0.90816(13) 0.98265(10) 0.46053(7)
O26_2 O 0.93780(13) 0.94221(9) 0.48653(7)
C73_2 C 0.91284(21) 0.94741(14) 0.46557(12)
H43_2 H 0.8959 0.9212 0.4522
O36_2 O 0.98576(14) 0.83570(18) 0.50186(8)
Cd15_2 Cd 0.616097(10) 0.404903(13) 0.327873(6)
O54_2 O 0.80888(11) 0.98191(13) 0.45852(10)
O47_4 O 0.47555(21) 0.16031(17) 0.29185(10)
O48_4 O 0.51660(23) 0.16903(18) 0.33519(8)
C119_4 C 0.18511(24) 0.07035(19) 0.45093(10)
C120_4 C 0.22499(14) 0.07643(11) 0.43057(6)
C121_4 C 0.26122(16) 0.06929(13) 0.44294(6)
H71_4 H 0.2591 0.0588 0.4635
C122_4 C 0.30061(17) 0.07779(14) 0.42449(9)
H72_4 H 0.3249 0.0731 0.4328
C123_4 C 0.30375(22) 0.09341(18) 0.39368(9)
C124_4 C 0.26752(22) 0.10054(18) 0.38132(7)
H73_4 H 0.2696 0.1110 0.3607
C125_4 C 0.22813(18) 0.09204(15) 0.39976(6)
H74_4 H 0.2039 0.0968 0.3915
C126_4 C 0.34959(15) 0.10915(12) 0.37388(6)
C127_4 C 0.39399(19) 0.12605(15) 0.38863(7)
H75_4 H 0.3960 0.1279 0.4104
C128_4 C 0.43544(23) 0.14030(17) 0.37083(10)
H76_4 H 0.4652 0.1517 0.3807
C129_4 C 0.43248(25) 0.13763(19) 0.33828(9)
C130_4 C 0.38808(25) 0.12072(20) 0.32352(7)
H77_4 H 0.3861 0.1189 0.3017
C131_4 C 0.34663(20) 0.10648(16) 0.34132(6)
H78_4 H 0.3169 0.0951 0.3315
C132_4 C 0.47921(29) 0.15770(23) 0.32098(11)
Cd26_4 Cd 0.595097(13) 0.211193(9) 0.327873(6)
O29_5 O 0.51973(20) 0.67877(12) 0.55350(7)
O30_5 O 0.47912(20) 0.64061(12) 0.50878(9)
C75_5 C 0.51663(26) 0.66859(16) 0.52405(13)
C76_5 C 0.56384(14) 0.69495(9) 0.50504(6)
C77_5 C 0.60492(16) 0.73038(10) 0.52016(7)
H45_5 H 0.6038 0.7363 0.5415
C78_5 C 0.64771(18) 0.75697(12) 0.50349(9)
H46_5 H 0.6752 0.7807 0.5136
C79_5 C 0.64940(22) 0.74813(14) 0.47170(9)
C80_5 C 0.60832(24) 0.71270(14) 0.45658(7)
H47_5 H 0.6094 0.7068 0.4353
C81_5 C 0.56553(19) 0.68611(11) 0.47325(6)
H48_5 H 0.5380 0.6624 0.4632
C82_5 C 0.69463(14) 0.78087(8) 0.45375(6)
C83_5 C 0.72298(15) 0.82909(8) 0.46237(6)
H49_5 H 0.7155 0.8406 0.4804
C84_5 C 0.76253(17) 0.86022(9) 0.44412(8)
H50_5 H 0.7815 0.8925 0.4499
C85_5 C 0.77372(20) 0.84313(12) 0.41725(8)
C86_5 C 0.74537(21) 0.79490(12) 0.40863(7)
H51_5 H 0.7528 0.7835 0.3907
C87_5 C 0.70583(16) 0.76378(9) 0.42687(6)
H52_5 H 0.6868 0.7315 0.4211
C88_5 C 0.81469(24) 0.87858(14) 0.39664(10)
O33_5 O 0.48616(17) 0.74015(10) 0.60625(7)
O34_5 O 0.51575(20) 0.79135(12) 0.64519(7)
C89_5 C 0.51844(24) 0.78143(14) 0.61760(10)
C90_5 C 0.55832(14) 0.81523(8) 0.59724(6)
C91_5 C 0.59455(16) 0.85860(9) 0.60961(6)
H53_5 H 0.5924 0.8670 0.6302
C92_5 C 0.63394(17) 0.88949(10) 0.59116(9)
H54_5 H 0.6582 0.9185 0.5995
C93_5 C 0.63708(22) 0.87701(13) 0.56035(9)
C94_5 C 0.60085(22) 0.83365(13) 0.54799(7)
H55_5 H 0.6029 0.8253 0.5274
C95_5 C 0.56146(18) 0.80276(10) 0.56643(6)
H56_5 H 0.5372 0.7738 0.5582
C96_5 C 0.68292(15) 0.90711(9) 0.54055(6)
C97_5 C 0.72732(19) 0.93461(12) 0.55530(7)
H57_5 H 0.7293 0.9348 0.5771
C98_5 C 0.76877(23) 0.96181(15) 0.53750(10)
H58_5 H 0.7985 0.9802 0.5474
C99_5 C 0.76581(25) 0.96152(16) 0.50495(9)
C100_5 C 0.72141(25) 0.93403(15) 0.49019(7)
H59_5 H 0.7194 0.9339 0.4684
C101_5 C 0.67996(20) 0.90682(12) 0.50799(6)
H60_5 H 0.6502 0.8885 0.4982
C102_5 C 0.81254(29) 0.98818(17) 0.48765(11)
Cd18_5 Cd 0.465373(16) 0.663707(10) 0.589317(9)
Cd19_5 Cd 0.400753(16) 0.609007(9) 0.518537(6)
Cd20_5 Cd 0.455473(16) 0.717237(10) 0.661207(6)
O29_6 O 0.15903(16) 0.48027(20) 0.55350(7)
O30_6 O 0.16148(16) 0.52088(20) 0.50878(9)
C75_6 C 0.15195(21) 0.48337(26) 0.52405(13)
C76_6 C 0.13110(11) 0.43616(14) 0.50504(6)
C77_6 C 0.12545(13) 0.39508(16) 0.52016(7)
H45_6 H 0.1324 0.3962 0.5415
C78_6 C 0.10925(14) 0.35229(18) 0.50349(9)
H46_6 H 0.1054 0.3248 0.5136
C79_6 C 0.09872(17) 0.35060(22) 0.47170(9)
C80_6 C 0.10437(19) 0.39168(24) 0.45658(7)
H47_6 H 0.0973 0.3906 0.4353
C81_6 C 0.12057(15) 0.43447(19) 0.47325(6)
H48_6 H 0.1243 0.4620 0.4632
C82_6 C 0.08623(11) 0.30537(14) 0.45375(6)
C83_6 C 0.10610(13) 0.27702(15) 0.46237(6)
H49_6 H 0.1250 0.2845 0.4804
C84_6 C 0.09768(14) 0.23747(17) 0.44412(8)
H50_6 H 0.1109 0.2185 0.4499
C85_6 C 0.06940(16) 0.22628(20) 0.41725(8)
C86_6 C 0.04952(17) 0.25463(21) 0.40863(7)
H51_6 H 0.0306 0.2472 0.3907
C87_6 C 0.05794(13) 0.29417(16) 0.42687(6)
H52_6 H 0.0446 0.3132 0.4211
C88_6 C 0.06388(19) 0.18531(24) 0.39664(10)
O33_6 O 0.25398(14) 0.51384(17) 0.60625(7)
O34_6 O 0.27559(16) 0.48425(20) 0.64519(7)
C89_6 C 0.26298(19) 0.48156(24) 0.61760(10)
C90_6 C 0.25690(11) 0.44168(14) 0.59724(6)
C91_6 C 0.26404(13) 0.40545(16) 0.60961(6)
H53_6 H 0.2745 0.4076 0.6302
C92_6 C 0.25554(14) 0.36606(17) 0.59116(9)
H54_6 H 0.2602 0.3418 0.5995
C93_6 C 0.23992(18) 0.36292(22) 0.56035(9)
C94_6 C 0.23279(18) 0.39915(22) 0.54799(7)
H55_6 H 0.2223 0.3971 0.5274
C95_6 C 0.24129(15) 0.43854(18) 0.56643(6)
H56_6 H 0.2365 0.4628 0.5582
C96_6 C 0.22418(12) 0.31708(15) 0.54055(6)
C97_6 C 0.20728(15) 0.27268(19) 0.55530(7)
H57_6 H 0.2054 0.2707 0.5771
C98_6 C 0.19303(17) 0.23123(23) 0.53750(10)
H58_6 H 0.1816 0.2015 0.5474
C99_6 C 0.19570(19) 0.23419(25) 0.50495(9)
C100_6 C 0.21261(20) 0.27859(25) 0.49019(7)
H59_6 H 0.2144 0.2806 0.4684
C101_6 C 0.22685(16) 0.32004(20) 0.50799(6)
H60_6 H 0.2382 0.3498 0.4982
C102_6 C 0.17563(23) 0.18746(29) 0.48765(11)
Cd18_6 Cd 0.198333(12) 0.534627(16) 0.589317(9)
Cd19_6 Cd 0.208253(13) 0.599247(16) 0.518537(6)
Cd20_6 Cd 0.261763(13) 0.544527(16) 0.661207(6)
O3_4 O 0.17608(11) 0.58734(10) 0.07201(8)
O4_4 O 0.15285(12) 0.53170(12) 0.03602(8)
O7_3 O 0.14222(11) 0.64857(13) 0.12518(10)
O8_3 O 0.18327(11) 0.68090(14) 0.16852(8)
H2_4 H 0.0086 0.4473 0.1802
C8_4 C 0.02797(8) 0.44753(8) 0.12041(6)
C9_4 C 0.05632(10) 0.49575(8) 0.12903(6)
H5_4 H 0.0489 0.5072 0.1470
C10_4 C 0.09587(11) 0.52688(9) 0.11078(8)
H6_4 H 0.1149 0.5591 0.1165
C11_4 C 0.10706(11) 0.50979(12) 0.08391(8)
C12_4 C 0.07871(12) 0.46156(12) 0.07529(7)
H7_4 H 0.0862 0.4501 0.0573
C13_4 C 0.03917(10) 0.43044(9) 0.09353(6)
H8_4 H 0.0202 0.3981 0.0877
C14_4 C 0.14803(13) 0.54524(14) 0.06330(10)
C22_3 C 0.01626(8) 0.57377(9) 0.20721(6)
C23_3 C 0.06066(9) 0.60127(12) 0.22196(7)
H13_3 H 0.0627 0.6014 0.2437
C24_3 C 0.10211(8) 0.62847(15) 0.20416(10)
H14_3 H 0.1319 0.6468 0.2140
C25_3 C 0.09915(11) 0.62818(16) 0.17161(9)
C26_3 C 0.05475(13) 0.60069(15) 0.15685(7)
H15_3 H 0.0528 0.6005 0.1350
C27_3 C 0.01330(10) 0.57348(12) 0.17465(6)
C28_3 C 0.14588(15) 0.65484(17) 0.15431(11)
O1_2 O 0.85307(10) 0.34543(12) 0.22016(7)
O2_4 O 0.81246(11) 0.30727(12) 0.17544(9)
O5_3 O 0.81950(10) 0.40681(10) 0.27291(7)
O6_3 O 0.84909(11) 0.45801(12) 0.31185(7)
O9_3 O 0.80494(15) 0.40406(13) 0.38104(9)
O10_3 O 0.73530(11) 0.34078(13) 0.37217(7)
O11_3 O 0.75377(13) 0.28491(13) 0.63700(8)
O12_3 O 0.68255(13) 0.28009(11) 0.63391(8)
O13_3 O 0.74116(9) 0.31598(10) 0.29386(7)
O14_2 O 0.75519(9) 0.34428(9) 0.21628(7)
O15_4 O 0.72898(9) 0.38803(8) 0.19146(6)
O16_3 O 0.67108(9) 0.27554(9) 0.31986(7)
C1_4 C 0.84997(14) 0.33525(16) 0.19071(13)
C2_4 C 0.89718(7) 0.36161(9) 0.17170(6)
C3_4 C 0.93826(9) 0.39704(10) 0.18682(7)
H1_4 H 0.9372 0.4029 0.2081
C4_4 C 0.98105(8) 0.42363(12) 0.17015(9)
C5_4 C 0.98274(10) 0.41479(14) 0.13836(9)
C6_4 C 0.94166(13) 0.37936(14) 0.12324(7)
H3_4 H 0.9428 0.3734 0.1019
C7_4 C 0.89887(10) 0.35277(11) 0.13991(6)
H4_4 H 0.8714 0.3290 0.1298
C15_3 C 0.85178(13) 0.44809(14) 0.28426(10)
C16_3 C 0.89166(8) 0.48189(8) 0.26390(6)
C17_3 C 0.92789(10) 0.52526(9) 0.27627(6)
H9_3 H 0.9258 0.5336 0.2968
C18_3 C 0.96728(10) 0.55615(10) 0.25782(9)
H10_3 H 0.9916 0.5851 0.2661
C19_3 C 0.97042(12) 0.54367(13) 0.22701(9)
C20_3 C 0.93419(13) 0.50031(13) 0.21465(7)
H11_3 H 0.9363 0.4919 0.1940
C21_3 C 0.89480(11) 0.46942(10) 0.23309(6)
H12_3 H 0.8706 0.4404 0.2248
H16_3 H 0.9836 0.5551 0.1648
C29_3 C 0.76821(15) 0.36784(18) 0.39023(12)
C30_3 C 0.76244(8) 0.35325(9) 0.42500(5)
C31_3 C 0.79782(9) 0.38211(11) 0.44660(6)
H17_3 H 0.8252 0.4102 0.4400
C32_3 C 0.79234(12) 0.36888(14) 0.47807(6)
H18_3 H 0.8160 0.3882 0.4925
C33_3 C 0.75148(14) 0.32679(14) 0.48792(5)
C34_3 C 0.71610(13) 0.29793(12) 0.46632(7)
H19_3 H 0.6888 0.2697 0.4729
C35_3 C 0.72158(10) 0.31116(10) 0.43486(6)
H20_3 H 0.6979 0.2918 0.4204
C36_3 C 0.74397(8) 0.31437(8) 0.52281(5)
C37_3 C 0.78323(8) 0.32661(13) 0.54241(6)
H21_3 H 0.8144 0.3414 0.5341
C38_3 C 0.77597(12) 0.31670(15) 0.57435(6)
H22_3 H 0.8023 0.3249 0.5874
C39_3 C 0.72946(14) 0.29455(14) 0.58668(5)
C40_3 C 0.69020(11) 0.28231(14) 0.56707(7)
H23_3 H 0.6591 0.2675 0.5753
C41_3 C 0.69746(8) 0.29221(12) 0.53513(6)
H24_3 H 0.6712 0.2840 0.5220
C42_3 C 0.72106(18) 0.28650(17) 0.62168(11)
C43_4 C 0.75181(13) 0.38178(14) 0.21268(10)
H25_4 H 0.7678 0.4066 0.2271
C44_3 C 0.70124(15) 0.28074(14) 0.29890(12)
H26_3 H 0.6920 0.2545 0.2855
Cd4_9 Cd 0.6667 0.3333 0.349953(17)
Cd5_5 Cd 0.6667 0.3333 0.658363(13)
O17_3 O 0.59594(13) 0.40087(20) 0.38104(9)
O18_3 O 0.65922(13) 0.39451(17) 0.37217(7)
O19_3 O 0.71509(13) 0.46885(18) 0.63700(8)
O20_3 O 0.71991(11) 0.40245(17) 0.63391(8)
C45_3 C 0.63216(18) 0.40036(23) 0.39023(12)
C46_3 C 0.64675(9) 0.40918(12) 0.42500(5)
C47_3 C 0.61789(11) 0.41570(14) 0.44660(6)
H27_3 H 0.5898 0.4149 0.4400
C48_3 C 0.63112(14) 0.42345(18) 0.47807(6)
H28_3 H 0.6118 0.4277 0.4925
C49_3 C 0.67321(14) 0.42468(20) 0.48792(5)
C50_3 C 0.70207(12) 0.41816(18) 0.46632(7)
H29_3 H 0.7303 0.4190 0.4729
C51_3 C 0.68884(10) 0.41041(14) 0.43486(6)
H30_3 H 0.7082 0.4060 0.4204
C52_3 C 0.68563(8) 0.42959(11) 0.52281(5)
C53_3 C 0.67339(13) 0.45661(15) 0.54241(6)
H31_3 H 0.6586 0.4729 0.5341
C54_3 C 0.68330(15) 0.45926(19) 0.57435(6)
H32_3 H 0.6751 0.4773 0.5874
C55_3 C 0.70545(14) 0.43490(20) 0.58668(5)
C56_3 C 0.71769(14) 0.40788(18) 0.56707(7)
H33_3 H 0.7325 0.3915 0.5753
C57_3 C 0.70779(12) 0.40524(14) 0.53513(6)
H34_3 H 0.7160 0.3871 0.5220
C58_3 C 0.71350(17) 0.43455(25) 0.62168(11)
O21_3 O 0.59913(20) 0.19506(15) 0.38104(9)
O22_3 O 0.60549(17) 0.26470(11) 0.37217(7)
O23_3 O 0.53115(18) 0.24623(13) 0.63700(8)
O24_3 O 0.59755(17) 0.31745(13) 0.63391(8)
C59_3 C 0.59964(23) 0.23179(15) 0.39023(12)
C60_3 C 0.59082(12) 0.23756(8) 0.42500(5)
C61_3 C 0.58430(14) 0.20218(9) 0.44660(6)
H35_3 H 0.5851 0.1748 0.4400
C62_3 C 0.57655(18) 0.20766(12) 0.47807(6)
H36_3 H 0.5723 0.1840 0.4925
C63_3 C 0.57532(20) 0.24852(14) 0.48792(5)
C64_3 C 0.58184(18) 0.28390(13) 0.46632(7)
H37_3 H 0.5810 0.3112 0.4729
C65_3 C 0.58959(14) 0.27842(10) 0.43486(6)
H38_3 H 0.5940 0.3021 0.4204
C66_3 C 0.57041(11) 0.25603(8) 0.52281(5)
C67_3 C 0.54339(15) 0.21677(8) 0.54241(6)
H39_3 H 0.5271 0.1856 0.5341
C68_3 C 0.54074(19) 0.22403(12) 0.57435(6)
H40_3 H 0.5227 0.1977 0.5874
C69_3 C 0.56510(20) 0.27054(14) 0.58668(5)
C70_3 C 0.59212(18) 0.30980(11) 0.56707(7)
H41_3 H 0.6085 0.3409 0.5753
C71_3 C 0.59476(14) 0.30254(8) 0.53513(6)
H42_3 H 0.6129 0.3288 0.5220
C72_3 C 0.56545(25) 0.27894(18) 0.62168(11)
O25_3 O 0.68402(10) 0.42517(13) 0.29386(7)
O26_3 O 0.72446(9) 0.39553(13) 0.31986(7)
C73_3 C 0.71926(14) 0.42049(21) 0.29890(12)
H43_3 H 0.7455 0.4374 0.2855
O27_3 O 0.57483(13) 0.25884(9) 0.29386(7)
O28_3 O 0.60447(13) 0.32892(9) 0.31986(7)
C74_3 C 0.57951(21) 0.29876(15) 0.29890(12)
H44_3 H 0.5626 0.3080 0.2855
O37_4 O 0.65457(12) 0.14693(10) 0.72016(7)
O38_2 O 0.69273(12) 0.18754(11) 0.67544(9)
C103_4 C 0.66475(16) 0.15003(14) 0.69071(13)
C104_4 C 0.63839(9) 0.10282(7) 0.67170(6)
C105_4 C 0.60296(10) 0.06174(9) 0.68682(7)
H61_4 H 0.5971 0.0628 0.7081
C106_4 C 0.57637(12) 0.01895(8) 0.67015(9)
C107_4 C 0.58521(14) 0.01726(10) 0.63836(9)
C108_4 C 0.62064(14) 0.05834(13) 0.62324(7)
H63_4 H 0.6266 0.0572 0.6019
C109_4 C 0.64723(11) 0.10113(10) 0.63991(6)
H64_4 H 0.6710 0.1286 0.6298
O41_2 O 0.65572(9) 0.24481(9) 0.71628(7)
O42_2 O 0.61197(8) 0.27102(9) 0.69146(6)
C117_2 C 0.61822(14) 0.24819(13) 0.71268(10)
H69_2 H 0.5934 0.2322 0.7271
O43_2 O 0.75519(9) 0.41090(13) 0.71628(7)
O44_2 O 0.72898(9) 0.34094(12) 0.69146(6)
C118_3 C 0.75181(13) 0.37002(19) 0.71268(10)
H70_3 H 0.7678 0.3611 0.7271
O45_3 O 0.59319(10) 0.41268(14) 0.27291(7)
O46_3 O 0.54199(12) 0.39107(16) 0.31185(7)
O47_5 O 0.35143(13) 0.49364(17) 0.12518(10)
O48_5 O 0.31910(14) 0.50236(18) 0.16852(8)
C119_5 C 0.55191(14) 0.40368(19) 0.28426(10)
C120_5 C 0.51811(8) 0.40976(11) 0.26390(6)
C121_5 C 0.47474(9) 0.40262(13) 0.27627(6)
H71_5 H 0.4664 0.3921 0.2968
C122_5 C 0.44385(10) 0.41112(14) 0.25782(9)
H72_5 H 0.4149 0.4064 0.2661
C123_5 C 0.45633(13) 0.42674(18) 0.22701(9)
C124_5 C 0.49969(13) 0.43387(18) 0.21465(7)
H73_5 H 0.5081 0.4443 0.1940
C125_5 C 0.53058(10) 0.42537(15) 0.23309(6)
H74_5 H 0.5596 0.4301 0.2248
C126_5 C 0.42623(9) 0.44248(12) 0.20721(6)
C127_5 C 0.39873(12) 0.45938(15) 0.22196(7)
H75_5 H 0.3986 0.4612 0.2437
C128_5 C 0.37153(15) 0.47363(17) 0.20416(10)
H76_5 H 0.3532 0.4850 0.2140
C129_5 C 0.37182(16) 0.47096(19) 0.17161(9)
C130_5 C 0.39931(15) 0.45405(20) 0.15685(7)
H77_5 H 0.3995 0.4522 0.1350
C131_5 C 0.42652(12) 0.43981(16) 0.17465(6)
H78_5 H 0.4449 0.4284 0.1648
C132_5 C 0.34516(17) 0.49103(23) 0.15431(11)
Cd17_5 Cd 0.6667 0.3333 0.158363(13)
O51_2 O 0.65906(12) 0.38803(8) 0.69146(6)
O52_2 O 0.65457(12) 0.50763(16) 0.22016(7)
O55_2 O 0.65572(9) 0.41090(13) 0.21628(7)
O56_2 O 0.49237(16) 0.14693(10) 0.22016(7)
O58_3 O 0.58732(14) 0.18050(10) 0.27291(7)
O60_2 O 0.58910(13) 0.24481(9) 0.21628(7)
O62_3 O 0.60893(16) 0.15091(11) 0.31185(7)
O64_2 O 0.81246(11) 0.50518(16) 0.67544(9)
O67_2 O 0.49482(16) 0.30727(12) 0.67544(9)
O70_2 O 0.58910(13) 0.34428(9) 0.71628(7)
O39_4 O 0.41266(10) 0.82392(11) 0.57201(8)
O40_4 O 0.46830(12) 0.84715(12) 0.53602(8)
H62_4 H 0.5527 0.9914 0.6802
C110_4 C 0.55247(8) 0.97203(8) 0.62041(6)
C111_4 C 0.50425(8) 0.94368(10) 0.62903(6)
H65_4 H 0.4928 0.9511 0.6470
C112_4 C 0.47312(9) 0.90413(11) 0.61078(8)
H66_4 H 0.4409 0.8851 0.6165
C113_4 C 0.49021(12) 0.89294(11) 0.58391(8)
C114_4 C 0.53844(12) 0.92129(12) 0.57529(7)
H67_4 H 0.5499 0.9138 0.5573
C115_4 C 0.56956(9) 0.96083(10) 0.59353(6)
H68_4 H 0.6019 0.9798 0.5877
C116_4 C 0.45476(14) 0.85197(13) 0.56330(10)
O39_5 O 0.17608(11) 0.58873(15) 0.57201(8)
O40_5 O 0.15285(12) 0.62114(17) 0.53602(8)
H62_5 H 0.0086 0.5612 0.6802
C110_5 C 0.02797(8) 0.58043(11) 0.62041(6)
C111_5 C 0.05632(10) 0.56056(13) 0.62903(6)
H65_5 H 0.0489 0.5416 0.6470
C112_5 C 0.09587(11) 0.56898(14) 0.61078(8)
H66_5 H 0.1149 0.5557 0.6165
C113_5 C 0.10706(11) 0.59726(16) 0.58391(8)
C114_5 C 0.07871(12) 0.61714(17) 0.57529(7)
H67_5 H 0.0862 0.6360 0.5573
C115_5 C 0.03917(10) 0.60872(13) 0.59353(6)
H68_5 H 0.0202 0.6220 0.5877
C116_5 C 0.14803(13) 0.60278(19) 0.56330(10)
O2_5 O 0.69273(12) 0.50518(16) 0.17544(9)
O3_5 O 0.41266(10) 0.58873(15) 0.07201(8)
O4_5 O 0.46830(12) 0.62114(17) 0.03602(8)
O15_5 O 0.61197(8) 0.34094(12) 0.19146(6)
C1_5 C 0.66475(16) 0.51471(21) 0.19071(13)
C2_5 C 0.63839(9) 0.53556(11) 0.17170(6)
C3_5 C 0.60296(10) 0.54121(13) 0.18682(7)
H1_5 H 0.5971 0.5342 0.2081
C4_5 C 0.57637(12) 0.55741(14) 0.17015(9)
H2_5 H 0.5527 0.5612 0.1802
C5_5 C 0.58521(14) 0.56794(17) 0.13836(9)
C6_5 C 0.62064(14) 0.56229(19) 0.12324(7)
H3_5 H 0.6266 0.5693 0.1019
C7_5 C 0.64723(11) 0.54609(15) 0.13991(6)
H4_5 H 0.6710 0.5423 0.1298
C8_5 C 0.55247(8) 0.58043(11) 0.12041(6)
C9_5 C 0.50425(8) 0.56056(13) 0.12903(6)
H5_5 H 0.4928 0.5416 0.1470
C10_5 C 0.47312(9) 0.56898(14) 0.11078(8)
H6_5 H 0.4409 0.5557 0.1165
C11_5 C 0.49021(12) 0.59726(16) 0.08391(8)
C12_5 C 0.53844(12) 0.61714(17) 0.07529(7)
H7_5 H 0.5499 0.6360 0.0573
C13_5 C 0.56956(9) 0.60872(13) 0.09353(6)
H8_5 H 0.6019 0.6220 0.0877
C14_5 C 0.45476(14) 0.60278(19) 0.06330(10)
C43_5 C 0.61822(14) 0.37002(19) 0.21268(10)
H25_5 H 0.5934 0.3611 0.2271
O37_5 O 0.85307(10) 0.50763(16) 0.72016(7)
C103_5 C 0.84997(14) 0.51471(21) 0.69071(13)
C104_5 C 0.89718(7) 0.53556(11) 0.67170(6)
C105_5 C 0.93826(9) 0.54121(13) 0.68682(7)
H61_5 H 0.9372 0.5342 0.7081
C106_5 C 0.98105(8) 0.55741(14) 0.67015(9)
C107_5 C 0.98274(10) 0.56794(17) 0.63836(9)
C108_5 C 0.94166(13) 0.56229(19) 0.62324(7)
H63_5 H 0.9428 0.5693 0.6019
C109_5 C 0.89887(10) 0.54609(15) 0.63991(6)
H64_5 H 0.8714 0.5423 0.6298
C118_4 C 0.62998(19) 0.38178(23) 0.71268(10)
H70_4 H 0.6389 0.4066 0.7271
C119_6 C 0.59632(19) 0.14822(24) 0.28426(10)
C120_6 C 0.59024(11) 0.10834(14) 0.26390(6)
C121_6 C 0.59738(13) 0.07211(16) 0.27627(6)
H71_6 H 0.6079 0.0742 0.2968
C122_6 C 0.58888(14) 0.03272(17) 0.25782(9)
H72_6 H 0.5936 0.0084 0.2661
C123_6 C 0.57326(18) 0.02958(22) 0.22701(9)
C124_6 C 0.56613(18) 0.06581(22) 0.21465(7)
H73_6 H 0.5557 0.0637 0.1940
C125_6 C 0.57463(15) 0.10520(18) 0.23309(6)
H74_6 H 0.5699 0.1294 0.2248
H78_6 H 0.5716 0.0164 0.1648
O47_6 O 0.50636(17) 0.85778(21) 0.12518(10)
O48_6 O 0.49764(18) 0.81673(23) 0.16852(8)
C126_6 C 0.55752(12) 0.98374(15) 0.20721(6)
C127_6 C 0.54062(15) 0.93934(19) 0.22196(7)
H75_6 H 0.5388 0.9373 0.2437
C128_6 C 0.52637(17) 0.89789(23) 0.20416(10)
H76_6 H 0.5150 0.8681 0.2140
C129_6 C 0.52904(19) 0.90085(25) 0.17161(9)
C130_6 C 0.54595(20) 0.94525(25) 0.15685(7)
H77_6 H 0.5478 0.9472 0.1350
C131_6 C 0.56019(16) 0.98670(20) 0.17465(6)
C132_6 C 0.50897(23) 0.85412(29) 0.15431(11)
O2_6 O 0.49482(16) 0.18754(11) 0.17544(9)
O15_6 O 0.65906(12) 0.27102(9) 0.19146(6)
C1_6 C 0.48529(21) 0.15003(14) 0.19071(13)
C2_6 C 0.46444(11) 0.10282(7) 0.17170(6)
C3_6 C 0.45879(13) 0.06174(9) 0.18682(7)
H1_6 H 0.4658 0.0628 0.2081
C4_6 C 0.44259(14) 0.01895(8) 0.17015(9)
C5_6 C 0.43206(17) 0.01726(10) 0.13836(9)
C6_6 C 0.43771(19) 0.05834(13) 0.12324(7)
H3_6 H 0.4307 0.0572 0.1019
C7_6 C 0.45391(15) 0.10113(10) 0.13991(6)
H4_6 H 0.4577 0.1286 0.1298
C43_6 C 0.62998(19) 0.24819(13) 0.21268(10)
H25_6 H 0.6389 0.2322 0.2271
O37_6 O 0.49237(16) 0.34543(12) 0.72016(7)
O39_6 O 0.41127(15) 0.58734(10) 0.57201(8)
O40_6 O 0.37886(17) 0.53170(12) 0.53602(8)
C103_6 C 0.48529(21) 0.33525(16) 0.69071(13)
C104_6 C 0.46444(11) 0.36161(9) 0.67170(6)
C105_6 C 0.45879(13) 0.39704(10) 0.68682(7)
H61_6 H 0.4658 0.4029 0.7081
C106_6 C 0.44259(14) 0.42363(12) 0.67015(9)
H62_6 H 0.4388 0.4473 0.6802
C107_6 C 0.43206(17) 0.41479(14) 0.63836(9)
C108_6 C 0.43771(19) 0.37936(14) 0.62324(7)
H63_6 H 0.4307 0.3734 0.6019
C109_6 C 0.45391(15) 0.35277(11) 0.63991(6)
H64_6 H 0.4577 0.3290 0.6298
C110_6 C 0.41957(11) 0.44753(8) 0.62041(6)
C111_6 C 0.43944(13) 0.49575(8) 0.62903(6)
H65_6 H 0.4584 0.5072 0.6470
C112_6 C 0.43102(14) 0.52688(9) 0.61078(8)
H66_6 H 0.4443 0.5591 0.6165
C113_6 C 0.40274(16) 0.50979(12) 0.58391(8)
C114_6 C 0.38286(17) 0.46156(12) 0.57529(7)
H67_6 H 0.3640 0.4501 0.5573
C115_6 C 0.39128(13) 0.43044(9) 0.59353(6)
H68_6 H 0.3780 0.3981 0.5877
C116_6 C 0.39722(19) 0.54524(14) 0.56330(10)
O3_6 O 0.41127(15) 0.82392(11) 0.07201(8)
O4_6 O 0.37886(17) 0.84715(12) 0.03602(8)
H2_6 H 0.4388 0.9914 0.1802
C8_6 C 0.41957(11) 0.97203(8) 0.12041(6)
C9_6 C 0.43944(13) 0.94368(10) 0.12903(6)
H5_6 H 0.4584 0.9511 0.1470
C10_6 C 0.43102(14) 0.90413(11) 0.11078(8)
H6_6 H 0.4443 0.8851 0.1165
C11_6 C 0.40274(16) 0.89294(11) 0.08391(8)
C12_6 C 0.38286(17) 0.92129(12) 0.07529(7)
H7_6 H 0.3640 0.9138 0.0573
C13_6 C 0.39128(13) 0.96083(10) 0.09353(6)
H8_6 H 0.3780 0.9798 0.0877
C14_6 C 0.39722(19) 0.85197(13) 0.06330(10)
O11_4 O 0.71509(13) 0.24623(13) 0.13700(8)
O12_4 O 0.71991(11) 0.31745(13) 0.13391(8)
C36_4 C 0.68563(8) 0.25603(8) 0.02281(5)
C37_4 C 0.67339(13) 0.21677(8) 0.04241(6)
H21_4 H 0.6586 0.1856 0.0341
C38_4 C 0.68330(15) 0.22403(12) 0.07435(6)
H22_4 H 0.6751 0.1977 0.0874
C39_4 C 0.70545(14) 0.27054(14) 0.08668(5)
C40_4 C 0.71769(14) 0.30980(11) 0.06707(7)
H23_4 H 0.7325 0.3409 0.0753
C41_4 C 0.70779(12) 0.30254(8) 0.03513(6)
H24_4 H 0.7160 0.3288 0.0220
C42_4 C 0.71350(17) 0.27894(18) 0.12168(11)
O19_4 O 0.53115(18) 0.28491(13) 0.13700(8)
O20_4 O 0.59755(17) 0.28009(11) 0.13391(8)
C52_4 C 0.57041(11) 0.31437(8) 0.02281(5)
C53_4 C 0.54339(15) 0.32661(13) 0.04241(6)
H31_4 H 0.5271 0.3414 0.0341
C54_4 C 0.54074(19) 0.31670(15) 0.07435(6)
H32_4 H 0.5227 0.3249 0.0874
C55_4 C 0.56510(20) 0.29455(14) 0.08668(5)
C56_4 C 0.59212(18) 0.28231(14) 0.06707(7)
H33_4 H 0.6085 0.2675 0.0753
C57_4 C 0.59476(14) 0.29221(12) 0.03513(6)
H34_4 H 0.6129 0.2840 0.0220
C58_4 C 0.56545(25) 0.28650(17) 0.12168(11)
O23_4 O 0.75377(13) 0.46885(18) 0.13700(8)
O24_4 O 0.68255(13) 0.40245(17) 0.13391(8)
C66_4 C 0.74397(8) 0.42959(11) 0.02281(5)
C67_4 C 0.78323(8) 0.45661(15) 0.04241(6)
H39_4 H 0.8144 0.4729 0.0341
C68_4 C 0.77597(12) 0.45926(19) 0.07435(6)
H40_4 H 0.8023 0.4773 0.0874
C69_4 C 0.72946(14) 0.43490(20) 0.08668(5)
C70_4 C 0.69020(11) 0.40788(18) 0.06707(7)
H41_4 H 0.6591 0.3915 0.0753
C71_4 C 0.69746(8) 0.40524(14) 0.03513(6)
H42_4 H 0.6712 0.3871 0.0220
C72_4 C 0.72106(18) 0.43455(25) 0.12168(11)
O5_4 O 0.59319(10) 0.18050(10) 0.77291(7)
O6_4 O 0.54199(12) 0.15091(11) 0.81185(7)
O9_4 O 0.59594(13) 0.19506(15) 0.88104(9)
O10_4 O 0.65922(13) 0.26470(11) 0.87217(7)
O13_4 O 0.68402(10) 0.25884(9) 0.79386(7)
O16_4 O 0.72446(9) 0.32892(9) 0.81986(7)
C15_4 C 0.55191(14) 0.14822(13) 0.78426(10)
C16_4 C 0.51811(8) 0.10834(8) 0.76390(6)
C17_4 C 0.47474(9) 0.07211(10) 0.77627(6)
H9_4 H 0.4664 0.0742 0.7968
C18_4 C 0.44385(10) 0.03272(10) 0.75782(9)
H10_4 H 0.4149 0.0084 0.7661
C19_4 C 0.45633(13) 0.02958(12) 0.72701(9)
C20_4 C 0.49969(13) 0.06581(13) 0.71465(7)
H11_4 H 0.5081 0.0637 0.6940
C21_4 C 0.53058(10) 0.10520(11) 0.73309(6)
H12_4 H 0.5596 0.1294 0.7248
H16_4 H 0.4449 0.0164 0.6648
C29_4 C 0.63216(18) 0.23179(15) 0.89023(12)
C30_4 C 0.64675(9) 0.23756(8) 0.92500(5)
C31_4 C 0.61789(11) 0.20218(9) 0.94660(6)
H17_4 H 0.5898 0.1748 0.9400
C32_4 C 0.63112(14) 0.20766(12) 0.97807(6)
H18_4 H 0.6118 0.1840 0.9925
C33_4 C 0.67321(14) 0.24852(14) 0.98792(5)
C34_4 C 0.70207(12) 0.28390(13) 0.96632(7)
H19_4 H 0.7303 0.3112 0.9729
C35_4 C 0.68884(10) 0.27842(10) 0.93486(6)
H20_4 H 0.7082 0.3021 0.9204
C44_4 C 0.71926(14) 0.29876(15) 0.79890(12)
H26_4 H 0.7455 0.3080 0.7855
Cd4_10 Cd 0.6667 0.3333 0.849953(17)
O17_4 O 0.59913(20) 0.40406(13) 0.88104(9)
O18_4 O 0.60549(17) 0.34078(13) 0.87217(7)
C45_4 C 0.59964(23) 0.36784(18) 0.89023(12)
C46_4 C 0.59082(12) 0.35325(9) 0.92500(5)
C47_4 C 0.58430(14) 0.38211(11) 0.94660(6)
H27_4 H 0.5851 0.4102 0.9400
C48_4 C 0.57655(18) 0.36888(14) 0.97807(6)
H28_4 H 0.5723 0.3882 0.9925
C49_4 C 0.57532(20) 0.32679(14) 0.98792(5)
C50_4 C 0.58184(18) 0.29793(12) 0.96632(7)
H29_4 H 0.5810 0.2697 0.9729
C51_4 C 0.58959(14) 0.31116(10) 0.93486(6)
H30_4 H 0.5940 0.2918 0.9204
O21_4 O 0.80494(15) 0.40087(20) 0.88104(9)
O22_4 O 0.73530(11) 0.39451(17) 0.87217(7)
C59_4 C 0.76821(15) 0.40036(23) 0.89023(12)
C60_4 C 0.76244(8) 0.40918(12) 0.92500(5)
C61_4 C 0.79782(9) 0.41570(14) 0.94660(6)
H35_4 H 0.8252 0.4149 0.9400
C62_4 C 0.79234(12) 0.42345(18) 0.97807(6)
H36_4 H 0.8160 0.4277 0.9925
C63_4 C 0.75148(14) 0.42468(20) 0.98792(5)
C64_4 C 0.71610(13) 0.41816(18) 0.96632(7)
H37_4 H 0.6888 0.4190 0.9729
C65_4 C 0.72158(10) 0.41041(14) 0.93486(6)
H38_4 H 0.6979 0.4060 0.9204
O25_4 O 0.57483(13) 0.31598(10) 0.79386(7)
O26_4 O 0.60447(13) 0.27554(9) 0.81986(7)
C73_4 C 0.57951(21) 0.28074(14) 0.79890(12)
H43_4 H 0.5626 0.2545 0.7855
O27_4 O 0.74116(9) 0.42517(13) 0.79386(7)
O28_4 O 0.67108(9) 0.39553(13) 0.81986(7)
C74_4 C 0.70124(15) 0.42049(21) 0.79890(12)
H44_4 H 0.6920 0.4374 0.7855
O45_4 O 0.58732(14) 0.40681(10) 0.77291(7)
O46_4 O 0.60893(16) 0.45801(12) 0.81185(7)
O47_7 O 0.50636(17) 0.64857(13) 0.62518(10)
O48_7 O 0.49764(18) 0.68090(14) 0.66852(8)
C119_7 C 0.59632(19) 0.44809(14) 0.78426(10)
C120_7 C 0.59024(11) 0.48189(8) 0.76390(6)
C121_7 C 0.59738(13) 0.52526(9) 0.77627(6)
H71_7 H 0.6079 0.5336 0.7968
C122_7 C 0.58888(14) 0.55615(10) 0.75782(9)
H72_7 H 0.5936 0.5851 0.7661
C123_7 C 0.57326(18) 0.54367(13) 0.72701(9)
C124_7 C 0.56613(18) 0.50031(13) 0.71465(7)
H73_7 H 0.5557 0.4919 0.6940
C125_7 C 0.57463(15) 0.46942(10) 0.73309(6)
H74_7 H 0.5699 0.4404 0.7248
C126_7 C 0.55752(12) 0.57377(9) 0.70721(6)
C127_7 C 0.54062(15) 0.60127(12) 0.72196(7)
H75_7 H 0.5388 0.6014 0.7437
C128_7 C 0.52637(17) 0.62847(15) 0.70416(10)
H76_7 H 0.5150 0.6468 0.7140
C129_7 C 0.52904(19) 0.62818(16) 0.67161(9)
C130_7 C 0.54595(20) 0.60069(15) 0.65685(7)
H77_7 H 0.5478 0.6005 0.6350
C131_7 C 0.56019(16) 0.57348(12) 0.67465(6)
H78_7 H 0.5716 0.5551 0.6648
C132_7 C 0.50897(23) 0.65484(17) 0.65431(11)
O58_4 O 0.81950(10) 0.41268(14) 0.77291(7)
O62_4 O 0.84909(11) 0.39107(16) 0.81185(7)
O7_4 O 0.35143(13) 0.85778(11) 0.62518(10)
O8_4 O 0.31910(14) 0.81673(11) 0.66852(8)
C22_4 C 0.42623(9) 0.98374(8) 0.70721(6)
C23_4 C 0.39873(12) 0.93934(9) 0.72196(7)
H13_4 H 0.3986 0.9373 0.7437
C24_4 C 0.37153(15) 0.89789(8) 0.70416(10)
H14_4 H 0.3532 0.8681 0.7140
C25_4 C 0.37182(16) 0.90085(11) 0.67161(9)
C26_4 C 0.39931(15) 0.94525(13) 0.65685(7)
H15_4 H 0.3995 0.9472 0.6350
C27_4 C 0.42652(12) 0.98670(10) 0.67465(6)
C28_4 C 0.34516(17) 0.85412(15) 0.65431(11)
O47_8 O 0.14222(21) 0.49364(17) 0.62518(10)
O48_8 O 0.18327(23) 0.50236(18) 0.66852(8)
C126_8 C 0.01626(15) 0.44248(12) 0.70721(6)
C127_8 C 0.06066(19) 0.45938(15) 0.72196(7)
H75_8 H 0.0627 0.4612 0.7437
C128_8 C 0.10211(23) 0.47363(17) 0.70416(10)
H76_8 H 0.1319 0.4850 0.7140
C129_8 C 0.09915(25) 0.47096(19) 0.67161(9)
C130_8 C 0.05475(25) 0.45405(20) 0.65685(7)
H77_8 H 0.0528 0.4522 0.6350
C131_8 C 0.01330(20) 0.43981(16) 0.67465(6)
C132_8 C 0.14588(29) 0.49103(23) 0.65431(11)
C119_8 C 0.85178(24) 0.40368(19) 0.78426(10)
C120_8 C 0.89166(14) 0.40976(11) 0.76390(6)
C121_8 C 0.92789(16) 0.40262(13) 0.77627(6)
H71_8 H 0.9258 0.3921 0.7968
C122_8 C 0.96728(17) 0.41112(14) 0.75782(9)
H72_8 H 0.9916 0.4064 0.7661
C123_8 C 0.97042(22) 0.42674(18) 0.72701(9)
C124_8 C 0.93419(22) 0.43387(18) 0.71465(7)
H73_8 H 0.9363 0.4443 0.6940
C125_8 C 0.89480(18) 0.42537(15) 0.73309(6)
H74_8 H 0.8706 0.4301 0.7248
H78_8 H 0.9836 0.4284 0.6648
O41_3 O 0.32238(9) 0.57815(9) 0.04962(7)
O42_3 O 0.27863(8) 0.60436(9) 0.02480(6)
C117_3 C 0.28488(14) 0.58153(13) 0.04602(10)
H69_3 H 0.2600 0.5656 0.0605
O43_3 O 0.42185(9) 0.74424(13) 0.04962(7)
O44_3 O 0.39564(9) 0.67428(12) 0.02480(6)
C118_5 C 0.41847(13) 0.70336(19) 0.04602(10)
H70_5 H 0.4344 0.6945 0.0605
O51_3 O 0.32572(12) 0.72137(8) 0.02480(6)
O70_3 O 0.25576(13) 0.67762(9) 0.04962(7)
O9_5 O 0.47160(15) 0.73740(13) 0.71438(9)
O10_5 O 0.40196(11) 0.67412(13) 0.70551(7)
O11_5 O 0.42043(13) 0.61825(13) 0.97034(8)
O12_5 O 0.34921(13) 0.61343(11) 0.96725(8)
O13_5 O 0.40782(9) 0.64932(10) 0.62720(7)
O14_3 O 0.42185(9) 0.67762(9) 0.54962(7)
O15_7 O 0.39564(9) 0.72137(8) 0.52480(6)
O16_5 O 0.33774(9) 0.60888(9) 0.65320(7)
C29_5 C 0.43487(15) 0.70118(18) 0.72357(12)
C30_5 C 0.42910(8) 0.68659(9) 0.75834(5)
C31_5 C 0.46448(9) 0.71545(11) 0.77994(6)
H17_5 H 0.4918 0.7436 0.7734
C32_5 C 0.45900(12) 0.70222(14) 0.81141(6)
H18_5 H 0.4826 0.7216 0.8259
C33_5 C 0.41814(14) 0.66013(14) 0.82126(5)
C34_5 C 0.38276(13) 0.63127(12) 0.79966(7)
H19_5 H 0.3554 0.6031 0.8063
C35_5 C 0.38824(10) 0.64450(10) 0.76820(6)
H20_5 H 0.3645 0.6252 0.7538
C36_5 C 0.41063(8) 0.64771(8) 0.85615(5)
C37_5 C 0.44989(8) 0.65995(13) 0.87575(6)
H21_5 H 0.4810 0.6748 0.8675
C38_5 C 0.44263(12) 0.65004(15) 0.90769(6)
H22_5 H 0.4689 0.6583 0.9208
C39_5 C 0.39612(14) 0.62789(14) 0.92002(5)
C40_5 C 0.35686(11) 0.61565(14) 0.90041(7)
H23_5 H 0.3257 0.6009 0.9087
C41_5 C 0.36412(8) 0.62555(12) 0.86847(6)
H24_5 H 0.3378 0.6174 0.8554
C42_5 C 0.38772(18) 0.61984(17) 0.95502(11)
C43_7 C 0.41847(13) 0.71512(14) 0.54602(10)
H25_7 H 0.4344 0.7400 0.5605
C44_5 C 0.36790(15) 0.61408(14) 0.63224(12)
H26_5 H 0.3586 0.5879 0.6189
Cd4_11 Cd 0.3333 0.6667 0.683287(17)
Cd5_6 Cd 0.3333 0.6667 0.991697(13)
O17_5 O 0.26260(13) 0.73421(20) 0.71438(9)
O18_5 O 0.32588(13) 0.72785(17) 0.70551(7)
O19_5 O 0.38175(13) 0.80219(18) 0.97034(8)
O20_5 O 0.38657(11) 0.73579(17) 0.96725(8)
C45_5 C 0.29882(18) 0.73370(23) 0.72357(12)
C46_5 C 0.31341(9) 0.74252(12) 0.75834(5)
C47_5 C 0.28455(11) 0.74904(14) 0.77994(6)
H27_5 H 0.2564 0.7483 0.7734
C48_5 C 0.29778(14) 0.75679(18) 0.81141(6)
H28_5 H 0.2784 0.7611 0.8259
C49_5 C 0.33987(14) 0.75802(20) 0.82126(5)
C50_5 C 0.36873(12) 0.75150(18) 0.79966(7)
H29_5 H 0.3969 0.7524 0.8063
C51_5 C 0.35550(10) 0.74375(14) 0.76820(6)
H30_5 H 0.3748 0.7394 0.7538
C52_5 C 0.35229(8) 0.76293(11) 0.85615(5)
C53_5 C 0.34005(13) 0.78995(15) 0.87575(6)
H31_5 H 0.3252 0.8063 0.8675
C54_5 C 0.34996(15) 0.79260(19) 0.90769(6)
H32_5 H 0.3417 0.8107 0.9208
C55_5 C 0.37211(14) 0.76824(20) 0.92002(5)
C56_5 C 0.38435(14) 0.74122(18) 0.90041(7)
H33_5 H 0.3991 0.7249 0.9087
C57_5 C 0.37445(12) 0.73858(14) 0.86847(6)
H34_5 H 0.3826 0.7205 0.8554
C58_5 C 0.38016(17) 0.76789(25) 0.95502(11)
O21_5 O 0.26579(20) 0.52840(15) 0.71438(9)
O22_5 O 0.27215(17) 0.59804(11) 0.70551(7)
O23_5 O 0.19781(18) 0.57957(13) 0.97034(8)
O24_5 O 0.26421(17) 0.65079(13) 0.96725(8)
C59_5 C 0.26630(23) 0.56513(15) 0.72357(12)
C60_5 C 0.25748(12) 0.57090(8) 0.75834(5)
C61_5 C 0.25096(14) 0.53552(9) 0.77994(6)
H35_5 H 0.2517 0.5082 0.7734
C62_5 C 0.24321(18) 0.54100(12) 0.81141(6)
H36_5 H 0.2389 0.5174 0.8259
C63_5 C 0.24198(20) 0.58186(14) 0.82126(5)
C64_5 C 0.24850(18) 0.61724(13) 0.79966(7)
H37_5 H 0.2476 0.6446 0.8063
C65_5 C 0.25625(14) 0.61176(10) 0.76820(6)
H38_5 H 0.2606 0.6355 0.7538
C66_5 C 0.23707(11) 0.58937(8) 0.85615(5)
C67_5 C 0.21005(15) 0.55011(8) 0.87575(6)
H39_5 H 0.1937 0.5190 0.8675
C68_5 C 0.20740(19) 0.55737(12) 0.90769(6)
H40_5 H 0.1893 0.5311 0.9208
C69_5 C 0.23176(20) 0.60388(14) 0.92002(5)
C70_5 C 0.25878(18) 0.64314(11) 0.90041(7)
H41_5 H 0.2751 0.6743 0.9087
C71_5 C 0.26142(14) 0.63588(8) 0.86847(6)
H42_5 H 0.2795 0.6622 0.8554
C72_5 C 0.23211(25) 0.61228(18) 0.95502(11)
O25_5 O 0.35068(10) 0.75851(13) 0.62720(7)
O26_5 O 0.39112(9) 0.72887(13) 0.65320(7)
C73_5 C 0.38592(14) 0.75383(21) 0.63224(12)
H43_5 H 0.4121 0.7708 0.6189
O27_5 O 0.24149(13) 0.59218(9) 0.62720(7)
O28_5 O 0.27113(13) 0.66226(9) 0.65320(7)
C74_5 C 0.24617(21) 0.63210(15) 0.63224(12)
H44_5 H 0.2292 0.6414 0.6189
Cd17_6 Cd 0.3333 0.6667 0.491697(13)
O55_3 O 0.32238(9) 0.74424(13) 0.54962(7)
O60_3 O 0.25576(13) 0.57815(9) 0.54962(7)
C118_6 C 0.29664(19) 0.71512(23) 0.04602(10)
H70_6 H 0.3055 0.7400 0.0605
O15_8 O 0.27863(8) 0.67428(12) 0.52480(6)
C43_8 C 0.28488(14) 0.70336(19) 0.54602(10)
H25_8 H 0.2600 0.6945 0.5605
O15_9 O 0.32572(12) 0.60436(9) 0.52480(6)
C43_9 C 0.29664(19) 0.58153(13) 0.54602(10)
H25_9 H 0.3055 0.5656 0.5605
O9_6 O 0.26260(13) 0.52840(15) 0.21438(9)
O10_6 O 0.32588(13) 0.59804(11) 0.20551(7)
O11_6 O 0.38175(13) 0.57957(13) 0.47034(8)
O12_6 O 0.38657(11) 0.65079(13) 0.46725(8)
O13_6 O 0.35068(10) 0.59218(9) 0.12720(7)
O16_6 O 0.39112(9) 0.66226(9) 0.15320(7)
C29_6 C 0.29882(18) 0.56513(15) 0.22357(12)
C30_6 C 0.31341(9) 0.57090(8) 0.25834(5)
C31_6 C 0.28455(11) 0.53552(9) 0.27994(6)
H17_6 H 0.2564 0.5082 0.2734
C32_6 C 0.29778(14) 0.54100(12) 0.31141(6)
H18_6 H 0.2784 0.5174 0.3259
C33_6 C 0.33987(14) 0.58186(14) 0.32126(5)
C34_6 C 0.36873(12) 0.61724(13) 0.29966(7)
H19_6 H 0.3969 0.6446 0.3063
C35_6 C 0.35550(10) 0.61176(10) 0.26820(6)
H20_6 H 0.3748 0.6355 0.2538
C36_6 C 0.35229(8) 0.58937(8) 0.35615(5)
C37_6 C 0.34005(13) 0.55011(8) 0.37575(6)
H21_6 H 0.3252 0.5190 0.3675
C38_6 C 0.34996(15) 0.55737(12) 0.40769(6)
H22_6 H 0.3417 0.5311 0.4208
C39_6 C 0.37211(14) 0.60388(14) 0.42002(5)
C40_6 C 0.38435(14) 0.64314(11) 0.40041(7)
H23_6 H 0.3991 0.6743 0.4087
C41_6 C 0.37445(12) 0.63588(8) 0.36847(6)
H24_6 H 0.3826 0.6622 0.3554
C42_6 C 0.38016(17) 0.61228(18) 0.45502(11)
C44_6 C 0.38592(14) 0.63210(15) 0.13224(12)
H26_6 H 0.4121 0.6414 0.1189
Cd4_12 Cd 0.3333 0.6667 0.183287(17)
O17_6 O 0.26579(20) 0.73740(13) 0.21438(9)
O18_6 O 0.27215(17) 0.67412(13) 0.20551(7)
O19_6 O 0.19781(18) 0.61825(13) 0.47034(8)
O20_6 O 0.26421(17) 0.61343(11) 0.46725(8)
C45_6 C 0.26630(23) 0.70118(18) 0.22357(12)
C46_6 C 0.25748(12) 0.68659(9) 0.25834(5)
C47_6 C 0.25096(14) 0.71545(11) 0.27994(6)
H27_6 H 0.2517 0.7436 0.2734
C48_6 C 0.24321(18) 0.70222(14) 0.31141(6)
H28_6 H 0.2389 0.7216 0.3259
C49_6 C 0.24198(20) 0.66013(14) 0.32126(5)
C50_6 C 0.24850(18) 0.63127(12) 0.29966(7)
H29_6 H 0.2476 0.6031 0.3063
C51_6 C 0.25625(14) 0.64450(10) 0.26820(6)
H30_6 H 0.2606 0.6252 0.2538
C52_6 C 0.23707(11) 0.64771(8) 0.35615(5)
C53_6 C 0.21005(15) 0.65995(13) 0.37575(6)
H31_6 H 0.1937 0.6748 0.3675
C54_6 C 0.20740(19) 0.65004(15) 0.40769(6)
H32_6 H 0.1893 0.6583 0.4208
C55_6 C 0.23176(20) 0.62789(14) 0.42002(5)
C56_6 C 0.25878(18) 0.61565(14) 0.40041(7)
H33_6 H 0.2751 0.6009 0.4087
C57_6 C 0.26142(14) 0.62555(12) 0.36847(6)
H34_6 H 0.2795 0.6174 0.3554
C58_6 C 0.23211(25) 0.61984(17) 0.45502(11)
O21_6 O 0.47160(15) 0.73421(20) 0.21438(9)
O22_6 O 0.40196(11) 0.72785(17) 0.20551(7)
O23_6 O 0.42043(13) 0.80219(18) 0.47034(8)
O24_6 O 0.34921(13) 0.73579(17) 0.46725(8)
C59_6 C 0.43487(15) 0.73370(23) 0.22357(12)
C60_6 C 0.42910(8) 0.74252(12) 0.25834(5)
C61_6 C 0.46448(9) 0.74904(14) 0.27994(6)
H35_6 H 0.4918 0.7483 0.2734
C62_6 C 0.45900(12) 0.75679(18) 0.31141(6)
H36_6 H 0.4826 0.7611 0.3259
C63_6 C 0.41814(14) 0.75802(20) 0.32126(5)
C64_6 C 0.38276(13) 0.75150(18) 0.29966(7)
H37_6 H 0.3554 0.7524 0.3063
C65_6 C 0.38824(10) 0.74375(14) 0.26820(6)
H38_6 H 0.3645 0.7394 0.2538
C66_6 C 0.41063(8) 0.76293(11) 0.35615(5)
C67_6 C 0.44989(8) 0.78995(15) 0.37575(6)
H39_6 H 0.4810 0.8063 0.3675
C68_6 C 0.44263(12) 0.79260(19) 0.40769(6)
H40_6 H 0.4689 0.8107 0.4208
C69_6 C 0.39612(14) 0.76824(20) 0.42002(5)
C70_6 C 0.35686(11) 0.74122(18) 0.40041(7)
H41_6 H 0.3257 0.7249 0.4087
C71_6 C 0.36412(8) 0.73858(14) 0.36847(6)
H42_6 H 0.3378 0.7205 0.3554
C72_6 C 0.38772(18) 0.76789(25) 0.45502(11)
O25_6 O 0.24149(13) 0.64932(10) 0.12720(7)
O26_6 O 0.27113(13) 0.60888(9) 0.15320(7)
C73_6 C 0.24617(21) 0.61408(14) 0.13224(12)
H43_6 H 0.2292 0.5879 0.1189
O27_6 O 0.40782(9) 0.75851(13) 0.12720(7)
O28_6 O 0.33774(9) 0.72887(13) 0.15320(7)
C74_6 C 0.36790(15) 0.75383(21) 0.13224(12)
H44_6 H 0.3586 0.7708 0.1189
loop_
_geom_bond_atom_site_label_1
_geom_bond_atom_site_label_2
_geom_bond_site_symmetry_1
_geom_bond_site_symmetry_2
O9 C29 1_555 1_555
O10 C29 1_555 1_555
C29 C30 1_555 1_555
C30 C31 1_555 1_555
C31 H17 1_555 1_555
C32 C31 1_555 1_555
H18 C32 1_555 1_555
Cd4 O10 1_555 1_555
O19 C58 1_555 1_555
O20 Cd5 1_555 1_555
C50 C49 1_555 1_555
H29 C50 1_555 1_555
H30 C51 1_555 1_555
C52 C49 1_555 1_555
C53 C52 1_555 1_555
C54 C53 1_555 1_555
H32 C54 1_555 1_555
C55 C54 1_555 1_555
C56 C55 1_555 1_555
H33 C56 1_555 1_555
C57 C52 1_555 1_555
H34 C57 1_555 1_555
C58 O20 1_555 1_555
Cd10 O19 1_555 1_555
O43 Cd10 1_555 1_555
C118 O43 1_555 1_555
H70 C118 1_555 1_555
O64 Cd10 1_555 1_555
O65 Cd10 1_555 1_555
O66 Cd10 1_555 1_555
Cd24 O43 1_555 1_555
Cd5 O44 1_555 1_555
C50 C51 1_555 1_555
C55 C58 1_555 1_555
C56 C57 1_555 1_555
O44 C118 1_555 1_555
O65 Cd24 1_555 1_555
O1 C1 1_555 1_555
O3 C14 1_555 1_555
O4 C14 1_555 1_555
O5 C15 1_555 1_555
O6 C15 1_555 1_555
O7 C28 1_555 1_555
O8 C28 1_555 1_555
O14 C43 1_555 1_555
O15 C43 1_555 1_555
C1 C2 1_555 1_555
C2 C3 1_555 1_555
C3 H1 1_555 1_555
C4 C3 1_555 1_555
H2 C4 1_555 1_555
C5 C4 1_555 1_555
C6 C5 1_555 1_555
H3 C6 1_555 1_555
C7 C2 1_555 1_555
C8 C5 1_555 1_555
C9 C8 1_555 1_555
H5 C9 1_555 1_555
C10 C9 1_555 1_555
H6 C10 1_555 1_555
C11 C10 1_555 1_555
C12 C11 1_555 1_555
H7 C12 1_555 1_555
C13 C8 1_555 1_555
H8 C13 1_555 1_555
C14 C11 1_555 1_555
C15 C16 1_555 1_555
C16 C17 1_555 1_555
C17 H9 1_555 1_555
C18 C17 1_555 1_555
H10 C18 1_555 1_555
C19 C18 1_555 1_555
C20 C19 1_555 1_555
H11 C20 1_555 1_555
C21 C16 1_555 1_555
H12 C21 1_555 1_555
C22 C19 1_555 1_555
C23 C22 1_555 1_555
H13 C23 1_555 1_555
C24 C23 1_555 1_555
H14 C24 1_555 1_555
C25 C24 1_555 1_555
C26 C25 1_555 1_555
H15 C26 1_555 1_555
C27 C22 1_555 1_555
H16 C27 1_555 1_555
C28 C25 1_555 1_555
C43 H25 1_555 1_555
Cd2 O6 1_555 1_555
O25 C73 1_555 1_555
O26 Cd2 1_555 1_555
C73 O26 1_555 1_555
H43 C73 1_555 1_555
Cd6 O25 1_555 1_555
Cd13 O3 1_555 1_555
Cd14 O3 1_555 1_555
Cd15 O8 1_555 1_555
Cd16 O15 1_555 1_555
Cd17 O15 1_555 1_555
O53 Cd6 1_555 1_555
O54 Cd6 1_555 1_555
O4 Cd14 1_555 1_555
O7 Cd13 1_555 1_555
C6 C7 1_555 1_555
C12 C13 1_555 1_555
C20 C21 1_555 1_555
C26 C27 1_555 1_555
Cd16 O53 1_555 1_555
O11 C42 1_555 1_555
O12 C42 1_555 1_555
C34 C33 1_555 1_555
H19 C34 1_555 1_555
H20 C35 1_555 1_555
C36 C33 1_555 1_555
C37 C36 1_555 1_555
C38 C37 1_555 1_555
H22 C38 1_555 1_555
C39 C38 1_555 1_555
C40 C39 1_555 1_555
C41 C36 1_555 1_555
H24 C41 1_555 1_555
C42 C39 1_555 1_555
Cd3 O11 1_555 1_555
Cd5_2 O12 1_555 1_555
O29 C75 1_555 1_555
O30 C75 1_555 1_555
C75 C76 1_555 1_555
C76 C77 1_555 1_555
C77 H45 1_555 1_555
C78 C77 1_555 1_555
H46 C78 1_555 1_555
O33 C89 1_555 1_555
O34 C89 1_555 1_555
C89 C90 1_555 1_555
C90 C91 1_555 1_555
C91 H53 1_555 1_555
C92 C91 1_555 1_555
H54 C92 1_555 1_555
C93 C92 1_555 1_555
C94 C93 1_555 1_555
H55 C94 1_555 1_555
C95 C90 1_555 1_555
H56 C95 1_555 1_555
C96 C93 1_555 1_555
C97 C96 1_555 1_555
H57 C97 1_555 1_555
C98 C97 1_555 1_555
H58 C98 1_555 1_555
C99 C98 1_555 1_555
C101 C96 1_555 1_555
O38 Cd3 1_555 1_555
O49 Cd3 1_555 1_555
O50 Cd3 1_555 1_555
Cd18 O29 1_555 1_555
Cd19 O30 1_555 1_555
Cd20 O34 1_555 1_555
C34 C35 1_555 1_555
C40 C41 1_555 1_555
O33 Cd18 1_555 1_555
C94 C95 1_555 1_555
O49 Cd21 1_555 1_555
O13 C44 1_555 1_555
O16 C44 1_555 1_555
C44 H26 1_555 1_555
O31 Cd1 1_555 1_555
O32 C88 1_555 1_555
C80 C79 1_555 1_555
H47 C80 1_555 1_555
H48 C81 1_555 1_555
C82 C79 1_555 1_555
C83 C82 1_555 1_555
H49 C83 1_555 1_555
C84 C83 1_555 1_555
H50 C84 1_555 1_555
C85 C84 1_555 1_555
C86 C85 1_555 1_555
H51 C86 1_555 1_555
C87 C82 1_555 1_555
H52 C87 1_555 1_555
C88 O31 1_555 1_555
O35 Cd1 1_555 1_555
H59 C100 1_555 1_555
C102 O35 1_555 1_555
Cd12 O2 1_555 1_555
O13 Cd1 1_555 1_555
O31 Cd12 1_555 1_555
O32 Cd12 1_555 1_555
C80 C81 1_555 1_555
C85 C88 1_555 1_555
C86 C87 1_555 1_555
O17 C45 1_555 1_555
O18 Cd4_3 1_555 1_555
C45 O18 1_555 1_555
C46 C45 1_555 1_555
C47 C46 1_555 1_555
H27 C47 1_555 1_555
C48 C47 1_555 1_555
H28 C48 1_555 1_555
O51 Cd5_3 1_555 1_555
O46 Cd8 1_555 1_555
O47 C132 1_555 1_555
O48 C132 1_555 1_555
C119 O45 1_555 1_555
C120 C119 1_555 1_555
C121 C120 1_555 1_555
H71 C121 1_555 1_555
C122 C121 1_555 1_555
H72 C122 1_555 1_555
C123 C122 1_555 1_555
C124 C123 1_555 1_555
H73 C124 1_555 1_555
C125 C120 1_555 1_555
H74 C125 1_555 1_555
C126 C123 1_555 1_555
C127 C126 1_555 1_555
H75 C127 1_555 1_555
C128 C127 1_555 1_555
H76 C128 1_555 1_555
C129 C128 1_555 1_555
C130 C129 1_555 1_555
H77 C130 1_555 1_555
C131 C126 1_555 1_555
H78 C131 1_555 1_555
C132 C129 1_555 1_555
Cd25 O47 1_555 1_555
Cd26 O48 1_555 1_555
O46 C119 1_555 1_555
C124 C125 1_555 1_555
C130 C131 1_555 1_555
O21 C59 1_555 1_555
O22 Cd4_4 1_555 1_555
O23 C72 1_555 1_555
O24 Cd5_4 1_555 1_555
C59 O22 1_555 1_555
C60 C59 1_555 1_555
C61 C60 1_555 1_555
H35 C61 1_555 1_555
C62 C61 1_555 1_555
H36 C62 1_555 1_555
C63 C62 1_555 1_555
C64 C63 1_555 1_555
H37 C64 1_555 1_555
C65 C60 1_555 1_555
H38 C65 1_555 1_555
C66 C63 1_555 1_555
C67 C66 1_555 1_555
H39 C67 1_555 1_555
C68 C67 1_555 1_555
H40 C68 1_555 1_555
C69 C68 1_555 1_555
C70 C69 1_555 1_555
C71 C66 1_555 1_555
H42 C71 1_555 1_555
C72 O24 1_555 1_555
Cd11 O23 1_555 1_555
O37 C103 1_555 1_555
O39 C116 1_555 1_555
O40 C116 1_555 1_555
C104 C103 1_555 1_555
C105 C104 1_555 1_555
H61 C105 1_555 1_555
C106 C105 1_555 1_555
H62 C106 1_555 1_555
C107 C106 1_555 1_555
C108 C107 1_555 1_555
H63 C108 1_555 1_555
C109 C104 1_555 1_555
C110 C107 1_555 1_555
C111 C110 1_555 1_555
H65 C111 1_555 1_555
C112 C111 1_555 1_555
H66 C112 1_555 1_555
C113 C112 1_555 1_555
C114 C113 1_555 1_555
H67 C114 1_555 1_555
C115 C110 1_555 1_555
H68 C115 1_555 1_555
C116 C113 1_555 1_555
O42 Cd5_4 1_555 1_555
C117 O41 1_555 1_555
H69 C117 1_555 1_555
O67 Cd11 1_555 1_555
O68 Cd11 1_555 1_555
O69 Cd11 1_555 1_555
Cd22 O39 1_555 1_555
Cd23 O39 1_555 1_555
C64 C65 1_555 1_555
C69 C72 1_555 1_555
C70 C71 1_555 1_555
Cd11 O42 1_555 1_555
O40 Cd23 1_555 1_555
C108 C109 1_555 1_555
C114 C115 1_555 1_555
O42 C117 1_555 1_555
O27 C74 1_555 1_555
C74 O28 1_555 1_555
H44 C74 1_555 1_555
Cd7 O27 1_555 1_555
O56 Cd7 1_555 1_555
O57 Cd7 1_555 1_555
O58 Cd7 1_555 1_555
O59 Cd7 1_555 1_555
O60 Cd7 1_555 1_555
O62 Cd9 1_555 1_555
O27 Cd9 1_555 1_555
O29_2 C75_2 1_555 1_555
O30_2 C75_2 1_555 1_555
C75_2 C76_2 1_555 1_555
C76_2 C77_2 1_555 1_555
C77_2 H45_2 1_555 1_555
C78_2 C77_2 1_555 1_555
H46_2 C78_2 1_555 1_555
O33_2 C89_2 1_555 1_555
O34_2 C89_2 1_555 1_555
C89_2 C90_2 1_555 1_555
C90_2 C91_2 1_555 1_555
C91_2 H53_2 1_555 1_555
C92_2 C91_2 1_555 1_555
H54_2 C92_2 1_555 1_555
C93_2 C92_2 1_555 1_555
C94_2 C93_2 1_555 1_555
H55_2 C94_2 1_555 1_555
C95_2 C90_2 1_555 1_555
H56_2 C95_2 1_555 1_555
C96_2 C93_2 1_555 1_555
C97_2 C96_2 1_555 1_555
H57_2 C97_2 1_555 1_555
C98_2 C97_2 1_555 1_555
H58_2 C98_2 1_555 1_555
C99_2 C98_2 1_555 1_555
C101_2 C96_2 1_555 1_555
O37_2 C103_2 1_555 1_555
O39_2 C116_2 1_555 1_555
O40_2 C116_2 1_555 1_555
C103_2 O64 1_555 1_555
C104_2 C103_2 1_555 1_555
C105_2 C104_2 1_555 1_555
H61_2 C105_2 1_555 1_555
C106_2 C105_2 1_555 1_555
H62_2 C106_2 1_555 1_555
C107_2 C106_2 1_555 1_555
C108_2 C107_2 1_555 1_555
H63_2 C108_2 1_555 1_555
C109_2 C104_2 1_555 1_555
H64_2 C109_2 1_555 1_555
C110_2 C107_2 1_555 1_555
C111_2 C110_2 1_555 1_555
H65_2 C111_2 1_555 1_555
C112_2 C111_2 1_555 1_555
H66_2 C112_2 1_555 1_555
C113_2 C112_2 1_555 1_555
C114_2 C113_2 1_555 1_555
H67_2 C114_2 1_555 1_555
C115_2 C110_2 1_555 1_555
H68_2 C115_2 1_555 1_555
C116_2 C113_2 1_555 1_555
Cd18_2 O29_2 1_555 1_555
Cd19_2 O30_2 1_555 1_555
Cd20_2 O34_2 1_555 1_555
Cd24 O37_2 1_555 1_555
Cd22_2 O39_2 1_555 1_555
Cd23_2 O39_2 1_555 1_555
O33_2 Cd18_2 1_555 1_555
C94_2 C95_2 1_555 1_555
O40_2 Cd23_2 1_555 1_555
C108_2 C109_2 1_555 1_555
C114_2 C115_2 1_555 1_555
O32_2 C88_2 1_555 1_555
C80_2 C79_2 1_555 1_555
H47_2 C80_2 1_555 1_555
H48_2 C81_2 1_555 1_555
C82_2 C79_2 1_555 1_555
C83_2 C82_2 1_555 1_555
H49_2 C83_2 1_555 1_555
C84_2 C83_2 1_555 1_555
H50_2 C84_2 1_555 1_555
C85_2 C84_2 1_555 1_555
C86_2 C85_2 1_555 1_555
H51_2 C86_2 1_555 1_555
C87_2 C82_2 1_555 1_555
H52_2 C87_2 1_555 1_555
C88_2 O53 1_555 1_555
H59_2 C100_2 1_555 1_555
C102_2 O54 1_555 1_555
Cd16 O2_2 1_555 1_555
O32_2 Cd16 1_555 1_555
C80_2 C81_2 1_555 1_555
C85_2 C88_2 1_555 1_555
C86_2 C87_2 1_555 1_555
C118_2 O70 1_555 1_555
H70_2 C118_2 1_555 1_555
O51 C118_2 1_555 1_555
O52 C1_2 1_555 1_555
O3_2 C14_2 1_555 1_555
O4_2 C14_2 1_555 1_555
O55 C43_2 1_555 1_555
O15_2 C43_2 1_555 1_555
C1_2 C2_2 1_555 1_555
C2_2 C3_2 1_555 1_555
C3_2 H1_2 1_555 1_555
C4_2 C3_2 1_555 1_555
H2_2 C4_2 1_555 1_555
C5_2 C4_2 1_555 1_555
C6_2 C5_2 1_555 1_555
H3_2 C6_2 1_555 1_555
C7_2 C2_2 1_555 1_555
C8_2 C5_2 1_555 1_555
C9_2 C8_2 1_555 1_555
H5_2 C9_2 1_555 1_555
C10_2 C9_2 1_555 1_555
H6_2 C10_2 1_555 1_555
C11_2 C10_2 1_555 1_555
C12_2 C11_2 1_555 1_555
H7_2 C12_2 1_555 1_555
C13_2 C8_2 1_555 1_555
H8_2 C13_2 1_555 1_555
C14_2 C11_2 1_555 1_555
C43_2 H25_2 1_555 1_555
Cd25 O3_2 1_555 1_555
Cd14_2 O3_2 1_555 1_555
Cd17_3 O15_2 1_555 1_555
O4_2 Cd14_2 1_555 1_555
C6_2 C7_2 1_555 1_555
C12_2 C13_2 1_555 1_555
O68 Cd24_2 1_555 1_555
O47_2 C132_2 1_555 1_555
O48_2 C132_2 1_555 1_555
C119_2 O58 1_555 1_555
C120_2 C119_2 1_555 1_555
C121_2 C120_2 1_555 1_555
H71_2 C121_2 1_555 1_555
C122_2 C121_2 1_555 1_555
H72_2 C122_2 1_555 1_555
C123_2 C122_2 1_555 1_555
C124_2 C123_2 1_555 1_555
H73_2 C124_2 1_555 1_555
C125_2 C120_2 1_555 1_555
H74_2 C125_2 1_555 1_555
C126_2 C123_2 1_555 1_555
C127_2 C126_2 1_555 1_555
H75_2 C127_2 1_555 1_555
C128_2 C127_2 1_555 1_555
H76_2 C128_2 1_555 1_555
C129_2 C128_2 1_555 1_555
C130_2 C129_2 1_555 1_555
H77_2 C130_2 1_555 1_555
C131_2 C126_2 1_555 1_555
H78_2 C131_2 1_555 1_555
C132_2 C129_2 1_555 1_555
Cd25_2 O47_2 1_555 1_555
Cd26_2 O48_2 1_555 1_555
O62 C119_2 1_555 1_555
C124_2 C125_2 1_555 1_555
C130_2 C131_2 1_555 1_555
Cd16_2 O57 1_555 1_555
Cd16_2 O60 1_555 1_555
O37_3 C103_3 1_555 1_555
O39_3 C116_3 1_555 1_555
O40_3 C116_3 1_555 1_555
C104_3 C103_3 1_555 1_555
C105_3 C104_3 1_555 1_555
H61_3 C105_3 1_555 1_555
C106_3 C105_3 1_555 1_555
H62_3 C106_3 1_555 1_555
C107_3 C106_3 1_555 1_555
C108_3 C107_3 1_555 1_555
H63_3 C108_3 1_555 1_555
C109_3 C104_3 1_555 1_555
C110_3 C107_3 1_555 1_555
C111_3 C110_3 1_555 1_555
H65_3 C111_3 1_555 1_555
C112_3 C111_3 1_555 1_555
H66_3 C112_3 1_555 1_555
C113_3 C112_3 1_555 1_555
C114_3 C113_3 1_555 1_555
H67_3 C114_3 1_555 1_555
C115_3 C110_3 1_555 1_555
H68_3 C115_3 1_555 1_555
C116_3 C113_3 1_555 1_555
Cd22_3 O39_3 1_555 1_555
Cd23_3 O39_3 1_555 1_555
O40_3 Cd23_3 1_555 1_555
C108_3 C109_3 1_555 1_555
C114_3 C115_3 1_555 1_555
O29_3 C75_3 1_555 1_555
O30_3 C75_3 1_555 1_555
C75_3 C76_3 1_555 1_555
C76_3 C77_3 1_555 1_555
C77_3 H45_3 1_555 1_555
C78_3 C77_3 1_555 1_555
H46_3 C78_3 1_555 1_555
O33_3 C89_3 1_555 1_555
O34_3 C89_3 1_555 1_555
C89_3 C90_3 1_555 1_555
C90_3 C91_3 1_555 1_555
C91_3 H53_3 1_555 1_555
C92_3 C91_3 1_555 1_555
H54_3 C92_3 1_555 1_555
C93_3 C92_3 1_555 1_555
C94_3 C93_3 1_555 1_555
H55_3 C94_3 1_555 1_555
C95_3 C90_3 1_555 1_555
H56_3 C95_3 1_555 1_555
C96_3 C93_3 1_555 1_555
C97_3 C96_3 1_555 1_555
H57_3 C97_3 1_555 1_555
C98_3 C97_3 1_555 1_555
H58_3 C98_3 1_555 1_555
C99_3 C98_3 1_555 1_555
C101_3 C96_3 1_555 1_555
Cd18_3 O29_3 1_555 1_555
Cd19_3 O30_3 1_555 1_555
Cd20_3 O34_3 1_555 1_555
O33_3 Cd18_3 1_555 1_555
C94_3 C95_3 1_555 1_555
O56 C1_3 1_555 1_555
O2_3 C1_3 1_555 1_555
O3_3 C14_3 1_555 1_555
O4_3 C14_3 1_555 1_555
O60 C43_3 1_555 1_555
O15_3 C43_3 1_555 1_555
C1_3 C2_3 1_555 1_555
C2_3 C3_3 1_555 1_555
C3_3 H1_3 1_555 1_555
C4_3 C3_3 1_555 1_555
H2_3 C4_3 1_555 1_555
C5_3 C4_3 1_555 1_555
C6_3 C5_3 1_555 1_555
H3_3 C6_3 1_555 1_555
C7_3 C2_3 1_555 1_555
H4_3 C7_3 1_555 1_555
C8_3 C5_3 1_555 1_555
C9_3 C8_3 1_555 1_555
H5_3 C9_3 1_555 1_555
C10_3 C9_3 1_555 1_555
H6_3 C10_3 1_555 1_555
C11_3 C10_3 1_555 1_555
C12_3 C11_3 1_555 1_555
H7_3 C12_3 1_555 1_555
C13_3 C8_3 1_555 1_555
H8_3 C13_3 1_555 1_555
C14_3 C11_3 1_555 1_555
C43_3 H25_3 1_555 1_555
O32_3 C88_3 1_555 1_555
C80_3 C79_3 1_555 1_555
H47_3 C80_3 1_555 1_555
H48_3 C81_3 1_555 1_555
C82_3 C79_3 1_555 1_555
C83_3 C82_3 1_555 1_555
H49_3 C83_3 1_555 1_555
C84_3 C83_3 1_555 1_555
H50_3 C84_3 1_555 1_555
C85_3 C84_3 1_555 1_555
C86_3 C85_3 1_555 1_555
H51_3 C86_3 1_555 1_555
C87_3 C82_3 1_555 1_555
H52_3 C87_3 1_555 1_555
C88_3 O57 1_555 1_555
H59_3 C100_3 1_555 1_555
C102_3 O59 1_555 1_555
Cd16_2 O2_3 1_555 1_555
Cd25_2 O3_3 1_555 1_555
Cd14_3 O3_3 1_555 1_555
Cd17_4 O15_3 1_555 1_555
O4_3 Cd14_3 1_555 1_555
C6_3 C7_3 1_555 1_555
C12_3 C13_3 1_555 1_555
O32_3 Cd16_2 1_555 1_555
C80_3 C81_3 1_555 1_555
C85_3 C88_3 1_555 1_555
C86_3 C87_3 1_555 1_555
O21_2 C59_2 1_555 1_555
O22_2 Cd4_5 1_555 1_555
O23_2 C72_2 1_555 1_555
O24_2 Cd17 1_555 1_555
C59_2 O22_2 1_555 1_555
C60_2 C59_2 1_555 1_555
C61_2 C60_2 1_555 1_555
H35_2 C61_2 1_555 1_555
C62_2 C61_2 1_555 1_555
H36_2 C62_2 1_555 1_555
C63_2 C62_2 1_555 1_555
C64_2 C63_2 1_555 1_555
H37_2 C64_2 1_555 1_555
C65_2 C60_2 1_555 1_555
H38_2 C65_2 1_555 1_555
C66_2 C63_2 1_555 1_555
C67_2 C66_2 1_555 1_555
H39_2 C67_2 1_555 1_555
C68_2 C67_2 1_555 1_555
H40_2 C68_2 1_555 1_555
C69_2 C68_2 1_555 1_555
C70_2 C69_2 1_555 1_555
C71_2 C66_2 1_555 1_555
H42_2 C71_2 1_555 1_555
C72_2 O24_2 1_555 1_555
O27_2 C74_2 1_555 1_555
O28_2 Cd4_5 1_555 1_555
C74_2 O28_2 1_555 1_555
H44_2 C74_2 1_555 1_555
Cd24 O27_2 1_555 1_555
Cd16 O23_2 1_555 1_555
O58_2 Cd24 1_555 1_555
O59_2 Cd24 1_555 1_555
O62_2 Cd9_2 1_555 1_555
O63_2 Cd9_2 1_555 1_555
O21_2 Cd9_2 1_555 1_555
O22_2 Cd9_2 1_555 1_555
C64_2 C65_2 1_555 1_555
C69_2 C72_2 1_555 1_555
C70_2 C71_2 1_555 1_555
O27_2 Cd9_2 1_555 1_555
O11_2 C42_2 1_555 1_555
O12_2 C42_2 1_555 1_555
O13_2 C44_2 1_555 1_555
O16_2 C44_2 1_555 1_555
C34_2 C33_2 1_555 1_555
H19_2 C34_2 1_555 1_555
H20_2 C35_2 1_555 1_555
C36_2 C33_2 1_555 1_555
C37_2 C36_2 1_555 1_555
C38_2 C37_2 1_555 1_555
H22_2 C38_2 1_555 1_555
C39_2 C38_2 1_555 1_555
C40_2 C39_2 1_555 1_555
C41_2 C36_2 1_555 1_555
H24_2 C41_2 1_555 1_555
C42_2 C39_2 1_555 1_555
C44_2 H26_2 1_555 1_555
Cd12 O11_2 1_555 1_555
Cd17_2 O12_2 1_555 1_555
O29_4 C75_4 1_555 1_555
O30_4 C75_4 1_555 1_555
O50 C88_4 1_555 1_555
C75_4 C76_4 1_555 1_555
C76_4 C77_4 1_555 1_555
C77_4 H45_4 1_555 1_555
C78_4 C77_4 1_555 1_555
H46_4 C78_4 1_555 1_555
C79_4 C78_4 1_555 1_555
C80_4 C79_4 1_555 1_555
H47_4 C80_4 1_555 1_555
C81_4 C76_4 1_555 1_555
H48_4 C81_4 1_555 1_555
C82_4 C79_4 1_555 1_555
C83_4 C82_4 1_555 1_555
H49_4 C83_4 1_555 1_555
C84_4 C83_4 1_555 1_555
H50_4 C84_4 1_555 1_555
C85_4 C84_4 1_555 1_555
C86_4 C85_4 1_555 1_555
H51_4 C86_4 1_555 1_555
C87_4 C82_4 1_555 1_555
H52_4 C87_4 1_555 1_555
C88_4 O49 1_555 1_555
O33_4 C89_4 1_555 1_555
O34_4 C89_4 1_555 1_555
O35_2 Cd21 1_555 1_555
C89_4 C90_4 1_555 1_555
C90_4 C91_4 1_555 1_555
C91_4 H53_4 1_555 1_555
C92_4 C91_4 1_555 1_555
H54_4 C92_4 1_555 1_555
C93_4 C92_4 1_555 1_555
C94_4 C93_4 1_555 1_555
H55_4 C94_4 1_555 1_555
C95_4 C90_4 1_555 1_555
H56_4 C95_4 1_555 1_555
C96_4 C93_4 1_555 1_555
C97_4 C96_4 1_555 1_555
H57_4 C97_4 1_555 1_555
C98_4 C97_4 1_555 1_555
H58_4 C98_4 1_555 1_555
C99_4 C98_4 1_555 1_555
C100_4 C99_4 1_555 1_555
H59_4 C100_4 1_555 1_555
C101_4 C96_4 1_555 1_555
H60_4 C101_4 1_555 1_555
C102_4 O35_2 1_555 1_555
Cd18_4 O29_4 1_555 1_555
Cd19_4 O30_4 1_555 1_555
Cd20_4 O34_4 1_555 1_555
O13_2 Cd21 1_555 1_555
O16_2 Cd4_6 1_555 1_555
C34_2 C35_2 1_555 1_555
C40_2 C41_2 1_555 1_555
C80_4 C81_4 1_555 1_555
C85_4 C88_4 1_555 1_555
C86_4 C87_4 1_555 1_555
O33_4 Cd18_4 1_555 1_555
C94_4 C95_4 1_555 1_555
C99_4 C102_4 1_555 1_555
C100_4 C101_4 1_555 1_555
O17_2 C45_2 1_555 1_555
O18_2 Cd4_7 1_555 1_555
C45_2 O18_2 1_555 1_555
C46_2 C45_2 1_555 1_555
C47_2 C46_2 1_555 1_555
H27_2 C47_2 1_555 1_555
C48_2 C47_2 1_555 1_555
H28_2 C48_2 1_555 1_555
Cd8_2 O17_2 1_555 1_555
O46_2 Cd8_2 1_555 1_555
O47_3 C132_3 1_555 1_555
O48_3 C132_3 1_555 1_555
C119_3 O45_2 1_555 1_555
C120_3 C119_3 1_555 1_555
C121_3 C120_3 1_555 1_555
H71_3 C121_3 1_555 1_555
C122_3 C121_3 1_555 1_555
H72_3 C122_3 1_555 1_555
C123_3 C122_3 1_555 1_555
C124_3 C123_3 1_555 1_555
H73_3 C124_3 1_555 1_555
C125_3 C120_3 1_555 1_555
H74_3 C125_3 1_555 1_555
C126_3 C123_3 1_555 1_555
C127_3 C126_3 1_555 1_555
H75_3 C127_3 1_555 1_555
C128_3 C127_3 1_555 1_555
H76_3 C128_3 1_555 1_555
C129_3 C128_3 1_555 1_555
C130_3 C129_3 1_555 1_555
H77_3 C130_3 1_555 1_555
C131_3 C126_3 1_555 1_555
H78_3 C131_3 1_555 1_555
C132_3 C129_3 1_555 1_555
O61_2 Cd8_2 1_555 1_555
Cd22_3 O47_3 1_555 1_555
Cd26_3 O48_3 1_555 1_555
O18_2 Cd8_2 1_555 1_555
O46_2 C119_3 1_555 1_555
C124_3 C125_3 1_555 1_555
C130_3 C131_3 1_555 1_555
O5_2 C15_2 1_555 1_555
O6_2 C15_2 1_555 1_555
O7_2 C28_2 1_555 1_555
O8_2 C28_2 1_555 1_555
O9_2 C29_2 1_555 1_555
O10_2 C29_2 1_555 1_555
C15_2 C16_2 1_555 1_555
C16_2 C17_2 1_555 1_555
C17_2 H9_2 1_555 1_555
C18_2 C17_2 1_555 1_555
H10_2 C18_2 1_555 1_555
C19_2 C18_2 1_555 1_555
C20_2 C19_2 1_555 1_555
H11_2 C20_2 1_555 1_555
C21_2 C16_2 1_555 1_555
H12_2 C21_2 1_555 1_555
C22_2 C19_2 1_555 1_555
C23_2 C22_2 1_555 1_555
H13_2 C23_2 1_555 1_555
C24_2 C23_2 1_555 1_555
H14_2 C24_2 1_555 1_555
C25_2 C24_2 1_555 1_555
C26_2 C25_2 1_555 1_555
H15_2 C26_2 1_555 1_555
C27_2 C22_2 1_555 1_555
H16_2 C27_2 1_555 1_555
C28_2 C25_2 1_555 1_555
C29_2 C30_2 1_555 1_555
C30_2 C31_2 1_555 1_555
C31_2 H17_2 1_555 1_555
C32_2 C31_2 1_555 1_555
H18_2 C32_2 1_555 1_555
Cd2_2 O6_2 1_555 1_555
Cd4_8 O10_2 1_555 1_555
O19_2 C58_2 1_555 1_555
O20_2 Cd17_4 1_555 1_555
C50_2 C49_2 1_555 1_555
H29_2 C50_2 1_555 1_555
H30_2 C51_2 1_555 1_555
C52_2 C49_2 1_555 1_555
C53_2 C52_2 1_555 1_555
C54_2 C53_2 1_555 1_555
H32_2 C54_2 1_555 1_555
C55_2 C54_2 1_555 1_555
C56_2 C55_2 1_555 1_555
H33_2 C56_2 1_555 1_555
C57_2 C52_2 1_555 1_555
H34_2 C57_2 1_555 1_555
C58_2 O20_2 1_555 1_555
O25_2 C73_2 1_555 1_555
O26_2 Cd2_2 1_555 1_555
C73_2 O26_2 1_555 1_555
H43_2 C73_2 1_555 1_555
Cd24_2 O25_2 1_555 1_555
Cd16_2 O19_2 1_555 1_555
O36_2 Cd2_2 1_555 1_555
Cd15_2 O8_2 1_555 1_555
O54_2 Cd24_2 1_555 1_555
O7_2 Cd22 1_555 1_555
O9_2 Cd2_2 1_555 1_555
O10_2 Cd2_2 1_555 1_555
C20_2 C21_2 1_555 1_555
C26_2 C27_2 1_555 1_555
Cd4_8 O26_2 1_555 1_555
C50_2 C51_2 1_555 1_555
C55_2 C58_2 1_555 1_555
C56_2 C57_2 1_555 1_555
O47_4 C132_4 1_555 1_555
O48_4 C132_4 1_555 1_555
C119_4 O58_2 1_555 1_555
C120_4 C119_4 1_555 1_555
C121_4 C120_4 1_555 1_555
H71_4 C121_4 1_555 1_555
C122_4 C121_4 1_555 1_555
H72_4 C122_4 1_555 1_555
C123_4 C122_4 1_555 1_555
C124_4 C123_4 1_555 1_555
H73_4 C124_4 1_555 1_555
C125_4 C120_4 1_555 1_555
H74_4 C125_4 1_555 1_555
C126_4 C123_4 1_555 1_555
C127_4 C126_4 1_555 1_555
H75_4 C127_4 1_555 1_555
C128_4 C127_4 1_555 1_555
H76_4 C128_4 1_555 1_555
C129_4 C128_4 1_555 1_555
C130_4 C129_4 1_555 1_555
H77_4 C130_4 1_555 1_555
C131_4 C126_4 1_555 1_555
H78_4 C131_4 1_555 1_555
C132_4 C129_4 1_555 1_555
Cd22_2 O47_4 1_555 1_555
Cd26_4 O48_4 1_555 1_555
O62_2 C119_4 1_555 1_555
C124_4 C125_4 1_555 1_555
C130_4 C131_4 1_555 1_555
O29_5 C75_5 1_555 1_555
O30_5 C75_5 1_555 1_555
O69 C88_5 1_555 1_555
C75_5 C76_5 1_555 1_555
C76_5 C77_5 1_555 1_555
C77_5 H45_5 1_555 1_555
C78_5 C77_5 1_555 1_555
H46_5 C78_5 1_555 1_555
C79_5 C78_5 1_555 1_555
C80_5 C79_5 1_555 1_555
H47_5 C80_5 1_555 1_555
C81_5 C76_5 1_555 1_555
H48_5 C81_5 1_555 1_555
C82_5 C79_5 1_555 1_555
C83_5 C82_5 1_555 1_555
H49_5 C83_5 1_555 1_555
C84_5 C83_5 1_555 1_555
H50_5 C84_5 1_555 1_555
C85_5 C84_5 1_555 1_555
C86_5 C85_5 1_555 1_555
H51_5 C86_5 1_555 1_555
C87_5 C82_5 1_555 1_555
H52_5 C87_5 1_555 1_555
C88_5 O68 1_555 1_555
O33_5 C89_5 1_555 1_555
O34_5 C89_5 1_555 1_555
C89_5 C90_5 1_555 1_555
C90_5 C91_5 1_555 1_555
C91_5 H53_5 1_555 1_555
C92_5 C91_5 1_555 1_555
H54_5 C92_5 1_555 1_555
C93_5 C92_5 1_555 1_555
C94_5 C93_5 1_555 1_555
H55_5 C94_5 1_555 1_555
C95_5 C90_5 1_555 1_555
H56_5 C95_5 1_555 1_555
C96_5 C93_5 1_555 1_555
C97_5 C96_5 1_555 1_555
H57_5 C97_5 1_555 1_555
C98_5 C97_5 1_555 1_555
H58_5 C98_5 1_555 1_555
C99_5 C98_5 1_555 1_555
C100_5 C99_5 1_555 1_555
H59_5 C100_5 1_555 1_555
C101_5 C96_5 1_555 1_555
H60_5 C101_5 1_555 1_555
C102_5 O54_2 1_555 1_555
Cd18_5 O29_5 1_555 1_555
Cd19_5 O30_5 1_555 1_555
Cd20_5 O34_5 1_555 1_555
C80_5 C81_5 1_555 1_555
C85_5 C88_5 1_555 1_555
C86_5 C87_5 1_555 1_555
O33_5 Cd18_5 1_555 1_555
C94_5 C95_5 1_555 1_555
C99_5 C102_5 1_555 1_555
C100_5 C101_5 1_555 1_555
O29_6 C75_6 1_555 1_555
O30_6 C75_6 1_555 1_555
O66 C88_6 1_555 1_555
C75_6 C76_6 1_555 1_555
C76_6 C77_6 1_555 1_555
C77_6 H45_6 1_555 1_555
C78_6 C77_6 1_555 1_555
H46_6 C78_6 1_555 1_555
C79_6 C78_6 1_555 1_555
C80_6 C79_6 1_555 1_555
H47_6 C80_6 1_555 1_555
C81_6 C76_6 1_555 1_555
H48_6 C81_6 1_555 1_555
C82_6 C79_6 1_555 1_555
C83_6 C82_6 1_555 1_555
H49_6 C83_6 1_555 1_555
C84_6 C83_6 1_555 1_555
H50_6 C84_6 1_555 1_555
C85_6 C84_6 1_555 1_555
C86_6 C85_6 1_555 1_555
H51_6 C86_6 1_555 1_555
C87_6 C82_6 1_555 1_555
H52_6 C87_6 1_555 1_555
C88_6 O65 1_555 1_555
O33_6 C89_6 1_555 1_555
O34_6 C89_6 1_555 1_555
C89_6 C90_6 1_555 1_555
C90_6 C91_6 1_555 1_555
C91_6 H53_6 1_555 1_555
C92_6 C91_6 1_555 1_555
H54_6 C92_6 1_555 1_555
C93_6 C92_6 1_555 1_555
C94_6 C93_6 1_555 1_555
H55_6 C94_6 1_555 1_555
C95_6 C90_6 1_555 1_555
H56_6 C95_6 1_555 1_555
C96_6 C93_6 1_555 1_555
C97_6 C96_6 1_555 1_555
H57_6 C97_6 1_555 1_555
C98_6 C97_6 1_555 1_555
H58_6 C98_6 1_555 1_555
C99_6 C98_6 1_555 1_555
C100_6 C99_6 1_555 1_555
H59_6 C100_6 1_555 1_555
C101_6 C96_6 1_555 1_555
H60_6 C101_6 1_555 1_555
C102_6 O59_2 1_555 1_555
Cd18_6 O29_6 1_555 1_555
Cd19_6 O30_6 1_555 1_555
Cd20_6 O34_6 1_555 1_555
C80_6 C81_6 1_555 1_555
C85_6 C88_6 1_555 1_555
C86_6 C87_6 1_555 1_555
O33_6 Cd18_6 1_555 1_555
O63_2 C102_6 1_555 1_555
C94_6 C95_6 1_555 1_555
C99_6 C102_6 1_555 1_555
C100_6 C101_6 1_555 1_555
O3_4 C14_4 1_555 1_555
O4_4 C14_4 1_555 1_555
O7_3 C28_3 1_555 1_555
O8_3 C28_3 1_555 1_555
C9_4 C8_4 1_555 1_555
H5_4 C9_4 1_555 1_555
C10_4 C9_4 1_555 1_555
H6_4 C10_4 1_555 1_555
C11_4 C10_4 1_555 1_555
C12_4 C11_4 1_555 1_555
H7_4 C12_4 1_555 1_555
C13_4 C8_4 1_555 1_555
H8_4 C13_4 1_555 1_555
C14_4 C11_4 1_555 1_555
C23_3 C22_3 1_555 1_555
H13_3 C23_3 1_555 1_555
C24_3 C23_3 1_555 1_555
H14_3 C24_3 1_555 1_555
C25_3 C24_3 1_555 1_555
C26_3 C25_3 1_555 1_555
H15_3 C26_3 1_555 1_555
C27_3 C22_3 1_555 1_555
C28_3 C25_3 1_555 1_555
Cd18 O3_4 1_555 1_555
Cd19 O3_4 1_555 1_555
Cd20 O8_3 1_555 1_555
O4_4 Cd19 1_555 1_555
O7_3 Cd18 1_555 1_555
C12_4 C13_4 1_555 1_555
C26_3 C27_3 1_555 1_555
O1_2 C1_4 1_555 1_555
O2_4 C1_4 1_555 1_555
O5_3 C15_3 1_555 1_555
O6_3 C15_3 1_555 1_555
O9_3 C29_3 1_555 1_555
O10_3 C29_3 1_555 1_555
O11_3 C42_3 1_555 1_555
O12_3 C42_3 1_555 1_555
O13_3 C44_3 1_555 1_555
O14_2 C43_4 1_555 1_555
O15_4 C43_4 1_555 1_555
O16_3 C44_3 1_555 1_555
C1_4 C2_4 1_555 1_555
C2_4 C3_4 1_555 1_555
C3_4 H1_4 1_555 1_555
C4_4 C3_4 1_555 1_555
C5_4 C4_4 1_555 1_555
C6_4 C5_4 1_555 1_555
H3_4 C6_4 1_555 1_555
C7_4 C2_4 1_555 1_555
H4_4 C7_4 1_555 1_555
C15_3 C16_3 1_555 1_555
C16_3 C17_3 1_555 1_555
C17_3 H9_3 1_555 1_555
C18_3 C17_3 1_555 1_555
H10_3 C18_3 1_555 1_555
C19_3 C18_3 1_555 1_555
C20_3 C19_3 1_555 1_555
H11_3 C20_3 1_555 1_555
C21_3 C16_3 1_555 1_555
H12_3 C21_3 1_555 1_555
C29_3 C30_3 1_555 1_555
C30_3 C31_3 1_555 1_555
C31_3 H17_3 1_555 1_555
C32_3 C31_3 1_555 1_555
H18_3 C32_3 1_555 1_555
C33_3 C32_3 1_555 1_555
C34_3 C33_3 1_555 1_555
H19_3 C34_3 1_555 1_555
C35_3 C30_3 1_555 1_555
H20_3 C35_3 1_555 1_555
C36_3 C33_3 1_555 1_555
C37_3 C36_3 1_555 1_555
H21_3 C37_3 1_555 1_555
C38_3 C37_3 1_555 1_555
H22_3 C38_3 1_555 1_555
C39_3 C38_3 1_555 1_555
C40_3 C39_3 1_555 1_555
H23_3 C40_3 1_555 1_555
C41_3 C36_3 1_555 1_555
H24_3 C41_3 1_555 1_555
C42_3 C39_3 1_555 1_555
C43_4 H25_4 1_555 1_555
C44_3 H26_3 1_555 1_555
Cd22_3 O1_2 1_555 1_555
Cd26_3 O6_3 1_555 1_555
Cd14_2 O11_3 1_555 1_555
Cd4_9 O10_3 1_555 1_555
Cd5_5 O12_3 1_555 1_555
O17_3 C45_3 1_555 1_555
O18_3 Cd4_9 1_555 1_555
O19_3 C58_3 1_555 1_555
O20_3 Cd5_5 1_555 1_555
C45_3 O18_3 1_555 1_555
C46_3 C45_3 1_555 1_555
C47_3 C46_3 1_555 1_555
H27_3 C47_3 1_555 1_555
C48_3 C47_3 1_555 1_555
H28_3 C48_3 1_555 1_555
C49_3 C48_3 1_555 1_555
C50_3 C49_3 1_555 1_555
H29_3 C50_3 1_555 1_555
C51_3 C46_3 1_555 1_555
H30_3 C51_3 1_555 1_555
C52_3 C49_3 1_555 1_555
C53_3 C52_3 1_555 1_555
H31_3 C53_3 1_555 1_555
C54_3 C53_3 1_555 1_555
H32_3 C54_3 1_555 1_555
C55_3 C54_3 1_555 1_555
C56_3 C55_3 1_555 1_555
H33_3 C56_3 1_555 1_555
C57_3 C52_3 1_555 1_555
H34_3 C57_3 1_555 1_555
C58_3 O20_3 1_555 1_555
O21_3 C59_3 1_555 1_555
O22_3 Cd4_9 1_555 1_555
O23_3 C72_3 1_555 1_555
O24_3 Cd5_5 1_555 1_555
C59_3 O22_3 1_555 1_555
C60_3 C59_3 1_555 1_555
C61_3 C60_3 1_555 1_555
H35_3 C61_3 1_555 1_555
C62_3 C61_3 1_555 1_555
H36_3 C62_3 1_555 1_555
C63_3 C62_3 1_555 1_555
C64_3 C63_3 1_555 1_555
H37_3 C64_3 1_555 1_555
C65_3 C60_3 1_555 1_555
H38_3 C65_3 1_555 1_555
C66_3 C63_3 1_555 1_555
C67_3 C66_3 1_555 1_555
H39_3 C67_3 1_555 1_555
C68_3 C67_3 1_555 1_555
H40_3 C68_3 1_555 1_555
C69_3 C68_3 1_555 1_555
C70_3 C69_3 1_555 1_555
H41_3 C70_3 1_555 1_555
C71_3 C66_3 1_555 1_555
H42_3 C71_3 1_555 1_555
C72_3 O24_3 1_555 1_555
O25_3 C73_3 1_555 1_555
O26_3 Cd26_3 1_555 1_555
C73_3 O26_3 1_555 1_555
H43_3 C73_3 1_555 1_555
O27_3 C74_3 1_555 1_555
O28_3 Cd4_9 1_555 1_555
C74_3 O28_3 1_555 1_555
H44_3 C74_3 1_555 1_555
Cd22 O25_3 1_555 1_555
Cd22_2 O27_3 1_555 1_555
Cd15_2 O17_3 1_555 1_555
Cd26_4 O16_3 1_555 1_555
Cd14_3 O19_3 1_555 1_555
Cd14 O23_3 1_555 1_555
O37_4 C103_4 1_555 1_555
O38_2 Cd14_2 1_555 1_555
C103_4 O38_2 1_555 1_555
C104_4 C103_4 1_555 1_555
C105_4 C104_4 1_555 1_555
H61_4 C105_4 1_555 1_555
C106_4 C105_4 1_555 1_555
C107_4 C106_4 1_555 1_555
C108_4 C107_4 1_555 1_555
H63_4 C108_4 1_555 1_555
C109_4 C104_4 1_555 1_555
H64_4 C109_4 1_555 1_555
O41_2 Cd14_2 1_555 1_555
O42_2 Cd5_5 1_555 1_555
C117_2 O41_2 1_555 1_555
H69_2 C117_2 1_555 1_555
O43_2 Cd14_3 1_555 1_555
O44_2 Cd14_2 1_555 1_555
C118_3 O43_2 1_555 1_555
H70_3 C118_3 1_555 1_555
O45_3 Cd22 1_555 1_555
O46_3 Cd15_2 1_555 1_555
O47_5 C132_5 1_555 1_555
O48_5 C132_5 1_555 1_555
C119_5 O45_3 1_555 1_555
C120_5 C119_5 1_555 1_555
C121_5 C120_5 1_555 1_555
H71_5 C121_5 1_555 1_555
C122_5 C121_5 1_555 1_555
H72_5 C122_5 1_555 1_555
C123_5 C122_5 1_555 1_555
C124_5 C123_5 1_555 1_555
H73_5 C124_5 1_555 1_555
C125_5 C120_5 1_555 1_555
H74_5 C125_5 1_555 1_555
C126_5 C123_5 1_555 1_555
C127_5 C126_5 1_555 1_555
H75_5 C127_5 1_555 1_555
C128_5 C127_5 1_555 1_555
H76_5 C128_5 1_555 1_555
C129_5 C128_5 1_555 1_555
C130_5 C129_5 1_555 1_555
H77_5 C130_5 1_555 1_555
C131_5 C126_5 1_555 1_555
H78_5 C131_5 1_555 1_555
C132_5 C129_5 1_555 1_555
Cd23_3 O2_4 1_555 1_555
Cd23 O15_4 1_555 1_555
Cd17_5 O15_4 1_555 1_555
O51_2 Cd5_5 1_555 1_555
O52_2 Cd22 1_555 1_555
O55_2 Cd22 1_555 1_555
O56_2 Cd22_2 1_555 1_555
O58_3 Cd22_2 1_555 1_555
O60_2 Cd22_2 1_555 1_555
O62_3 Cd26_4 1_555 1_555
O64_2 Cd14_3 1_555 1_555
O67_2 Cd14 1_555 1_555
O70_2 Cd14 1_555 1_555
Cd25 O37_4 1_555 1_555
Cd25_2 O43_2 1_555 1_555
Cd18_2 O47_5 1_555 1_555
Cd20_2 O48_5 1_555 1_555
O5_3 Cd22_3 1_555 1_555
O9_3 Cd26_3 1_555 1_555
O10_3 Cd26_3 1_555 1_555
O13_3 Cd22_3 1_555 1_555
O13_3 Cd26_3 1_555 1_555
O14_2 Cd22_3 1_555 1_555
O14_2 Cd23_3 1_555 1_555
O16_3 Cd4_9 1_555 1_555
C6_4 C7_4 1_555 1_555
C20_3 C21_3 1_555 1_555
C34_3 C35_3 1_555 1_555
C40_3 C41_3 1_555 1_555
Cd4_9 O26_3 1_555 1_555
Cd5_5 O44_2 1_555 1_555
O18_3 Cd15_2 1_555 1_555
C50_3 C51_3 1_555 1_555
C55_3 C58_3 1_555 1_555
C56_3 C57_3 1_555 1_555
O21_3 Cd26_4 1_555 1_555
O22_3 Cd26_4 1_555 1_555
C64_3 C65_3 1_555 1_555
C69_3 C72_3 1_555 1_555
C70_3 C71_3 1_555 1_555
O25_3 Cd15_2 1_555 1_555
O27_3 Cd26_4 1_555 1_555
O28_3 Cd15_2 1_555 1_555
Cd14_3 O51_2 1_555 1_555
Cd14 O42_2 1_555 1_555
C108_4 C109_4 1_555 1_555
O41_2 Cd25 1_555 1_555
O42_2 C117_2 1_555 1_555
O44_2 C118_3 1_555 1_555
O46_3 C119_5 1_555 1_555
C124_5 C125_5 1_555 1_555
C130_5 C131_5 1_555 1_555
Cd23 O55_2 1_555 1_555
O39_4 C116_4 1_555 1_555
O40_4 C116_4 1_555 1_555
C111_4 C110_4 1_555 1_555
H65_4 C111_4 1_555 1_555
C112_4 C111_4 1_555 1_555
H66_4 C112_4 1_555 1_555
C113_4 C112_4 1_555 1_555
C114_4 C113_4 1_555 1_555
H67_4 C114_4 1_555 1_555
C115_4 C110_4 1_555 1_555
H68_4 C115_4 1_555 1_555
C116_4 C113_4 1_555 1_555
Cd18_4 O39_4 1_555 1_555
Cd19_4 O39_4 1_555 1_555
O40_4 Cd19_4 1_555 1_555
C114_4 C115_4 1_555 1_555
O39_5 C116_5 1_555 1_555
O40_5 C116_5 1_555 1_555
C111_5 C110_5 1_555 1_555
H65_5 C111_5 1_555 1_555
C112_5 C111_5 1_555 1_555
H66_5 C112_5 1_555 1_555
C113_5 C112_5 1_555 1_555
C114_5 C113_5 1_555 1_555
H67_5 C114_5 1_555 1_555
C115_5 C110_5 1_555 1_555
H68_5 C115_5 1_555 1_555
C116_5 C113_5 1_555 1_555
Cd18_6 O39_5 1_555 1_555
Cd19_6 O39_5 1_555 1_555
O40_5 Cd19_6 1_555 1_555
C114_5 C115_5 1_555 1_555
O52_2 C1_5 1_555 1_555
O2_5 C1_5 1_555 1_555
O3_5 C14_5 1_555 1_555
O4_5 C14_5 1_555 1_555
O55_2 C43_5 1_555 1_555
O15_5 C43_5 1_555 1_555
C1_5 C2_5 1_555 1_555
C2_5 C3_5 1_555 1_555
C3_5 H1_5 1_555 1_555
C4_5 C3_5 1_555 1_555
H2_5 C4_5 1_555 1_555
C5_5 C4_5 1_555 1_555
C6_5 C5_5 1_555 1_555
H3_5 C6_5 1_555 1_555
C7_5 C2_5 1_555 1_555
H4_5 C7_5 1_555 1_555
C8_5 C5_5 1_555 1_555
C9_5 C8_5 1_555 1_555
H5_5 C9_5 1_555 1_555
C10_5 C9_5 1_555 1_555
H6_5 C10_5 1_555 1_555
C11_5 C10_5 1_555 1_555
C12_5 C11_5 1_555 1_555
H7_5 C12_5 1_555 1_555
C13_5 C8_5 1_555 1_555
H8_5 C13_5 1_555 1_555
C14_5 C11_5 1_555 1_555
C43_5 H25_5 1_555 1_555
O37_5 C103_5 1_555 1_555
C103_5 O64_2 1_555 1_555
C104_5 C103_5 1_555 1_555
C105_5 C104_5 1_555 1_555
H61_5 C105_5 1_555 1_555
C106_5 C105_5 1_555 1_555
C107_5 C106_5 1_555 1_555
C108_5 C107_5 1_555 1_555
H63_5 C108_5 1_555 1_555
C109_5 C104_5 1_555 1_555
H64_5 C109_5 1_555 1_555
C118_4 O70_2 1_555 1_555
H70_4 C118_4 1_555 1_555
C119_6 O58_3 1_555 1_555
C120_6 C119_6 1_555 1_555
C121_6 C120_6 1_555 1_555
H71_6 C121_6 1_555 1_555
C122_6 C121_6 1_555 1_555
H72_6 C122_6 1_555 1_555
C123_6 C122_6 1_555 1_555
C124_6 C123_6 1_555 1_555
H73_6 C124_6 1_555 1_555
C125_6 C120_6 1_555 1_555
H74_6 C125_6 1_555 1_555
Cd23 O2_5 1_555 1_555
Cd18_2 O3_5 1_555 1_555
Cd19_2 O3_5 1_555 1_555
Cd23_2 O15_5 1_555 1_555
Cd17_5 O15_5 1_555 1_555
Cd25_2 O37_5 1_555 1_555
Cd13 O70_2 1_555 1_555
O4_5 Cd19_2 1_555 1_555
C6_5 C7_5 1_555 1_555
C12_5 C13_5 1_555 1_555
C108_5 C109_5 1_555 1_555
O51_2 C118_4 1_555 1_555
O62_3 C119_6 1_555 1_555
C124_6 C125_6 1_555 1_555
Cd23_2 O60_2 1_555 1_555
O47_6 C132_6 1_555 1_555
O48_6 C132_6 1_555 1_555
C127_6 C126_6 1_555 1_555
H75_6 C127_6 1_555 1_555
C128_6 C127_6 1_555 1_555
H76_6 C128_6 1_555 1_555
C129_6 C128_6 1_555 1_555
C130_6 C129_6 1_555 1_555
H77_6 C130_6 1_555 1_555
C131_6 C126_6 1_555 1_555
C132_6 C129_6 1_555 1_555
Cd18_3 O47_6 1_555 1_555
Cd20_3 O48_6 1_555 1_555
C130_6 C131_6 1_555 1_555
O56_2 C1_6 1_555 1_555
O2_6 C1_6 1_555 1_555
O60_2 C43_6 1_555 1_555
O15_6 C43_6 1_555 1_555
C1_6 C2_6 1_555 1_555
C2_6 C3_6 1_555 1_555
C3_6 H1_6 1_555 1_555
C4_6 C3_6 1_555 1_555
C5_6 C4_6 1_555 1_555
C6_6 C5_6 1_555 1_555
H3_6 C6_6 1_555 1_555
C7_6 C2_6 1_555 1_555
H4_6 C7_6 1_555 1_555
C43_6 H25_6 1_555 1_555
O37_6 C103_6 1_555 1_555
O39_6 C116_6 1_555 1_555
O40_6 C116_6 1_555 1_555
C103_6 O67_2 1_555 1_555
C104_6 C103_6 1_555 1_555
C105_6 C104_6 1_555 1_555
H61_6 C105_6 1_555 1_555
C106_6 C105_6 1_555 1_555
H62_6 C106_6 1_555 1_555
C107_6 C106_6 1_555 1_555
C108_6 C107_6 1_555 1_555
H63_6 C108_6 1_555 1_555
C109_6 C104_6 1_555 1_555
H64_6 C109_6 1_555 1_555
C110_6 C107_6 1_555 1_555
C111_6 C110_6 1_555 1_555
H65_6 C111_6 1_555 1_555
C112_6 C111_6 1_555 1_555
H66_6 C112_6 1_555 1_555
C113_6 C112_6 1_555 1_555
C114_6 C113_6 1_555 1_555
H67_6 C114_6 1_555 1_555
C115_6 C110_6 1_555 1_555
H68_6 C115_6 1_555 1_555
C116_6 C113_6 1_555 1_555
Cd23_2 O2_6 1_555 1_555
Cd23_3 O15_6 1_555 1_555
Cd17_5 O15_6 1_555 1_555
Cd13 O37_6 1_555 1_555
Cd18_5 O39_6 1_555 1_555
Cd19_5 O39_6 1_555 1_555
C6_6 C7_6 1_555 1_555
O40_6 Cd19_5 1_555 1_555
C108_6 C109_6 1_555 1_555
C114_6 C115_6 1_555 1_555
O3_6 C14_6 1_555 1_555
O4_6 C14_6 1_555 1_555
C9_6 C8_6 1_555 1_555
H5_6 C9_6 1_555 1_555
C10_6 C9_6 1_555 1_555
H6_6 C10_6 1_555 1_555
C11_6 C10_6 1_555 1_555
C12_6 C11_6 1_555 1_555
H7_6 C12_6 1_555 1_555
C13_6 C8_6 1_555 1_555
H8_6 C13_6 1_555 1_555
C14_6 C11_6 1_555 1_555
Cd18_3 O3_6 1_555 1_555
Cd19_3 O3_6 1_555 1_555
O4_6 Cd19_3 1_555 1_555
C12_6 C13_6 1_555 1_555
O11_4 C42_4 1_555 1_555
O12_4 C42_4 1_555 1_555
C37_4 C36_4 1_555 1_555
H21_4 C37_4 1_555 1_555
C38_4 C37_4 1_555 1_555
H22_4 C38_4 1_555 1_555
C39_4 C38_4 1_555 1_555
C40_4 C39_4 1_555 1_555
H23_4 C40_4 1_555 1_555
C41_4 C36_4 1_555 1_555
H24_4 C41_4 1_555 1_555
C42_4 C39_4 1_555 1_555
Cd23_3 O11_4 1_555 1_555
Cd17_5 O12_4 1_555 1_555
O19_4 C58_4 1_555 1_555
O20_4 Cd17_5 1_555 1_555
C53_4 C52_4 1_555 1_555
H31_4 C53_4 1_555 1_555
C54_4 C53_4 1_555 1_555
H32_4 C54_4 1_555 1_555
C55_4 C54_4 1_555 1_555
C56_4 C55_4 1_555 1_555
H33_4 C56_4 1_555 1_555
C57_4 C52_4 1_555 1_555
H34_4 C57_4 1_555 1_555
C58_4 O20_4 1_555 1_555
O23_4 C72_4 1_555 1_555
O24_4 Cd17_5 1_555 1_555
C67_4 C66_4 1_555 1_555
H39_4 C67_4 1_555 1_555
C68_4 C67_4 1_555 1_555
H40_4 C68_4 1_555 1_555
C69_4 C68_4 1_555 1_555
C70_4 C69_4 1_555 1_555
H41_4 C70_4 1_555 1_555
C71_4 C66_4 1_555 1_555
H42_4 C71_4 1_555 1_555
C72_4 O24_4 1_555 1_555
Cd23_2 O19_4 1_555 1_555
Cd23 O23_4 1_555 1_555
C40_4 C41_4 1_555 1_555
C55_4 C58_4 1_555 1_555
C56_4 C57_4 1_555 1_555
C69_4 C72_4 1_555 1_555
C70_4 C71_4 1_555 1_555
O5_4 C15_4 1_555 1_555
O6_4 C15_4 1_555 1_555
O9_4 C29_4 1_555 1_555
O10_4 C29_4 1_555 1_555
O13_4 C44_4 1_555 1_555
O16_4 C44_4 1_555 1_555
C15_4 C16_4 1_555 1_555
C16_4 C17_4 1_555 1_555
C17_4 H9_4 1_555 1_555
C18_4 C17_4 1_555 1_555
H10_4 C18_4 1_555 1_555
C19_4 C18_4 1_555 1_555
C20_4 C19_4 1_555 1_555
H11_4 C20_4 1_555 1_555
C21_4 C16_4 1_555 1_555
H12_4 C21_4 1_555 1_555
C29_4 C30_4 1_555 1_555
C30_4 C31_4 1_555 1_555
C31_4 H17_4 1_555 1_555
C32_4 C31_4 1_555 1_555
H18_4 C32_4 1_555 1_555
C33_4 C32_4 1_555 1_555
C34_4 C33_4 1_555 1_555
H19_4 C34_4 1_555 1_555
C35_4 C30_4 1_555 1_555
H20_4 C35_4 1_555 1_555
C44_4 H26_4 1_555 1_555
Cd26 O6_4 1_555 1_555
Cd4_10 O10_4 1_555 1_555
O17_4 C45_4 1_555 1_555
O18_4 Cd4_10 1_555 1_555
C45_4 O18_4 1_555 1_555
C46_4 C45_4 1_555 1_555
C47_4 C46_4 1_555 1_555
H27_4 C47_4 1_555 1_555
C48_4 C47_4 1_555 1_555
H28_4 C48_4 1_555 1_555
C49_4 C48_4 1_555 1_555
C50_4 C49_4 1_555 1_555
H29_4 C50_4 1_555 1_555
C51_4 C46_4 1_555 1_555
H30_4 C51_4 1_555 1_555
O21_4 C59_4 1_555 1_555
O22_4 Cd4_10 1_555 1_555
C59_4 O22_4 1_555 1_555
C60_4 C59_4 1_555 1_555
C61_4 C60_4 1_555 1_555
H35_4 C61_4 1_555 1_555
C62_4 C61_4 1_555 1_555
H36_4 C62_4 1_555 1_555
C63_4 C62_4 1_555 1_555
C64_4 C63_4 1_555 1_555
H37_4 C64_4 1_555 1_555
C65_4 C60_4 1_555 1_555
H38_4 C65_4 1_555 1_555
O25_4 C73_4 1_555 1_555
O26_4 Cd26 1_555 1_555
C73_4 O26_4 1_555 1_555
H43_4 C73_4 1_555 1_555
O27_4 C74_4 1_555 1_555
O28_4 Cd4_10 1_555 1_555
C74_4 O28_4 1_555 1_555
H44_4 C74_4 1_555 1_555
Cd13 O25_4 1_555 1_555
Cd25_2 O27_4 1_555 1_555
Cd15 O17_4 1_555 1_555
Cd26_2 O16_4 1_555 1_555
O45_4 Cd13 1_555 1_555
O46_4 Cd15 1_555 1_555
O47_7 C132_7 1_555 1_555
O48_7 C132_7 1_555 1_555
C119_7 O45_4 1_555 1_555
C120_7 C119_7 1_555 1_555
C121_7 C120_7 1_555 1_555
H71_7 C121_7 1_555 1_555
C122_7 C121_7 1_555 1_555
H72_7 C122_7 1_555 1_555
C123_7 C122_7 1_555 1_555
C124_7 C123_7 1_555 1_555
H73_7 C124_7 1_555 1_555
C125_7 C120_7 1_555 1_555
H74_7 C125_7 1_555 1_555
C126_7 C123_7 1_555 1_555
C127_7 C126_7 1_555 1_555
H75_7 C127_7 1_555 1_555
C128_7 C127_7 1_555 1_555
H76_7 C128_7 1_555 1_555
C129_7 C128_7 1_555 1_555
C130_7 C129_7 1_555 1_555
H77_7 C130_7 1_555 1_555
C131_7 C126_7 1_555 1_555
H78_7 C131_7 1_555 1_555
C132_7 C129_7 1_555 1_555
O58_4 Cd25_2 1_555 1_555
O62_4 Cd26_2 1_555 1_555
Cd18_5 O47_7 1_555 1_555
Cd20_5 O48_7 1_555 1_555
O5_4 Cd25 1_555 1_555
O9_4 Cd26 1_555 1_555
O10_4 Cd26 1_555 1_555
O13_4 Cd25 1_555 1_555
O13_4 Cd26 1_555 1_555
O16_4 Cd4_10 1_555 1_555
C20_4 C21_4 1_555 1_555
C34_4 C35_4 1_555 1_555
Cd4_10 O26_4 1_555 1_555
O18_4 Cd15 1_555 1_555
C50_4 C51_4 1_555 1_555
O21_4 Cd26_2 1_555 1_555
O22_4 Cd26_2 1_555 1_555
C64_4 C65_4 1_555 1_555
O25_4 Cd15 1_555 1_555
O27_4 Cd26_2 1_555 1_555
O28_4 Cd15 1_555 1_555
O46_4 C119_7 1_555 1_555
C124_7 C125_7 1_555 1_555
C130_7 C131_7 1_555 1_555
O7_4 C28_4 1_555 1_555
O8_4 C28_4 1_555 1_555
C23_4 C22_4 1_555 1_555
H13_4 C23_4 1_555 1_555
C24_4 C23_4 1_555 1_555
H14_4 C24_4 1_555 1_555
C25_4 C24_4 1_555 1_555
C26_4 C25_4 1_555 1_555
H15_4 C26_4 1_555 1_555
C27_4 C22_4 1_555 1_555
C28_4 C25_4 1_555 1_555
Cd20_4 O8_4 1_555 1_555
O7_4 Cd18_4 1_555 1_555
C26_4 C27_4 1_555 1_555
O47_8 C132_8 1_555 1_555
O48_8 C132_8 1_555 1_555
C127_8 C126_8 1_555 1_555
H75_8 C127_8 1_555 1_555
C128_8 C127_8 1_555 1_555
H76_8 C128_8 1_555 1_555
C129_8 C128_8 1_555 1_555
C130_8 C129_8 1_555 1_555
H77_8 C130_8 1_555 1_555
C131_8 C126_8 1_555 1_555
C132_8 C129_8 1_555 1_555
Cd18_6 O47_8 1_555 1_555
Cd20_6 O48_8 1_555 1_555
C130_8 C131_8 1_555 1_555
C119_8 O58_4 1_555 1_555
C120_8 C119_8 1_555 1_555
C121_8 C120_8 1_555 1_555
H71_8 C121_8 1_555 1_555
C122_8 C121_8 1_555 1_555
H72_8 C122_8 1_555 1_555
C123_8 C122_8 1_555 1_555
C124_8 C123_8 1_555 1_555
H73_8 C124_8 1_555 1_555
C125_8 C120_8 1_555 1_555
H74_8 C125_8 1_555 1_555
O62_4 C119_8 1_555 1_555
C124_8 C125_8 1_555 1_555
O41_3 Cd19_2 1_555 1_555
C117_3 O41_3 1_555 1_555
H69_3 C117_3 1_555 1_555
O43_3 Cd19_3 1_555 1_555
O44_3 Cd19_2 1_555 1_555
C118_5 O43_3 1_555 1_555
H70_5 C118_5 1_555 1_555
O70_3 Cd19 1_555 1_555
Cd18_3 O43_3 1_555 1_555
Cd19_3 O51_3 1_555 1_555
Cd19 O42_3 1_555 1_555
O41_3 Cd18_2 1_555 1_555
O42_3 C117_3 1_555 1_555
O44_3 C118_5 1_555 1_555
O9_5 C29_5 1_555 1_555
O10_5 C29_5 1_555 1_555
O11_5 C42_5 1_555 1_555
O12_5 C42_5 1_555 1_555
O13_5 C44_5 1_555 1_555
O14_3 C43_7 1_555 1_555
O15_7 C43_7 1_555 1_555
O16_5 C44_5 1_555 1_555
C29_5 C30_5 1_555 1_555
C30_5 C31_5 1_555 1_555
C31_5 H17_5 1_555 1_555
C32_5 C31_5 1_555 1_555
H18_5 C32_5 1_555 1_555
C33_5 C32_5 1_555 1_555
C34_5 C33_5 1_555 1_555
H19_5 C34_5 1_555 1_555
C35_5 C30_5 1_555 1_555
H20_5 C35_5 1_555 1_555
C36_5 C33_5 1_555 1_555
C37_5 C36_5 1_555 1_555
H21_5 C37_5 1_555 1_555
C38_5 C37_5 1_555 1_555
H22_5 C38_5 1_555 1_555
C39_5 C38_5 1_555 1_555
C40_5 C39_5 1_555 1_555
H23_5 C40_5 1_555 1_555
C41_5 C36_5 1_555 1_555
H24_5 C41_5 1_555 1_555
C42_5 C39_5 1_555 1_555
C43_7 H25_7 1_555 1_555
C44_5 H26_5 1_555 1_555
Cd4_11 O10_5 1_555 1_555
Cd5_6 O12_5 1_555 1_555
O17_5 C45_5 1_555 1_555
O18_5 Cd4_11 1_555 1_555
O19_5 C58_5 1_555 1_555
O20_5 Cd5_6 1_555 1_555
C45_5 O18_5 1_555 1_555
C46_5 C45_5 1_555 1_555
C47_5 C46_5 1_555 1_555
H27_5 C47_5 1_555 1_555
C48_5 C47_5 1_555 1_555
H28_5 C48_5 1_555 1_555
C49_5 C48_5 1_555 1_555
C50_5 C49_5 1_555 1_555
H29_5 C50_5 1_555 1_555
C51_5 C46_5 1_555 1_555
H30_5 C51_5 1_555 1_555
C52_5 C49_5 1_555 1_555
C53_5 C52_5 1_555 1_555
H31_5 C53_5 1_555 1_555
C54_5 C53_5 1_555 1_555
H32_5 C54_5 1_555 1_555
C55_5 C54_5 1_555 1_555
C56_5 C55_5 1_555 1_555
H33_5 C56_5 1_555 1_555
C57_5 C52_5 1_555 1_555
H34_5 C57_5 1_555 1_555
C58_5 O20_5 1_555 1_555
O21_5 C59_5 1_555 1_555
O22_5 Cd4_11 1_555 1_555
O23_5 C72_5 1_555 1_555
O24_5 Cd5_6 1_555 1_555
C59_5 O22_5 1_555 1_555
C60_5 C59_5 1_555 1_555
C61_5 C60_5 1_555 1_555
H35_5 C61_5 1_555 1_555
C62_5 C61_5 1_555 1_555
H36_5 C62_5 1_555 1_555
C63_5 C62_5 1_555 1_555
C64_5 C63_5 1_555 1_555
H37_5 C64_5 1_555 1_555
C65_5 C60_5 1_555 1_555
H38_5 C65_5 1_555 1_555
C66_5 C63_5 1_555 1_555
C67_5 C66_5 1_555 1_555
H39_5 C67_5 1_555 1_555
C68_5 C67_5 1_555 1_555
H40_5 C68_5 1_555 1_555
C69_5 C68_5 1_555 1_555
C70_5 C69_5 1_555 1_555
H41_5 C70_5 1_555 1_555
C71_5 C66_5 1_555 1_555
H42_5 C71_5 1_555 1_555
C72_5 O24_5 1_555 1_555
O25_5 C73_5 1_555 1_555
O26_5 Cd20_5 1_555 1_555
C73_5 O26_5 1_555 1_555
H43_5 C73_5 1_555 1_555
O27_5 C74_5 1_555 1_555
O28_5 Cd4_11 1_555 1_555
C74_5 O28_5 1_555 1_555
H44_5 C74_5 1_555 1_555
Cd18_4 O25_5 1_555 1_555
Cd18_6 O27_5 1_555 1_555
Cd20_4 O17_5 1_555 1_555
Cd20_6 O16_5 1_555 1_555
Cd19_4 O15_7 1_555 1_555
Cd17_6 O15_7 1_555 1_555
O55_3 Cd18_4 1_555 1_555
O60_3 Cd18_6 1_555 1_555
O9_5 Cd20_5 1_555 1_555
O10_5 Cd20_5 1_555 1_555
O13_5 Cd18_5 1_555 1_555
O13_5 Cd20_5 1_555 1_555
O14_3 Cd18_5 1_555 1_555
O14_3 Cd19_5 1_555 1_555
O16_5 Cd4_11 1_555 1_555
C34_5 C35_5 1_555 1_555
C40_5 C41_5 1_555 1_555
Cd4_11 O26_5 1_555 1_555
O18_5 Cd20_4 1_555 1_555
C50_5 C51_5 1_555 1_555
C55_5 C58_5 1_555 1_555
C56_5 C57_5 1_555 1_555
O21_5 Cd20_6 1_555 1_555
O22_5 Cd20_6 1_555 1_555
C64_5 C65_5 1_555 1_555
C69_5 C72_5 1_555 1_555
C70_5 C71_5 1_555 1_555
O25_5 Cd20_4 1_555 1_555
O27_5 Cd20_6 1_555 1_555
O28_5 Cd20_4 1_555 1_555
Cd19_4 O55_3 1_555 1_555
C118_6 O70_3 1_555 1_555
H70_6 C118_6 1_555 1_555
Cd18 O70_3 1_555 1_555
O51_3 C118_6 1_555 1_555
O55_3 C43_8 1_555 1_555
O15_8 C43_8 1_555 1_555
C43_8 H25_8 1_555 1_555
Cd19_6 O15_8 1_555 1_555
Cd17_6 O15_8 1_555 1_555
Cd19_6 O60_3 1_555 1_555
O60_3 C43_9 1_555 1_555
O15_9 C43_9 1_555 1_555
C43_9 H25_9 1_555 1_555
Cd19_5 O15_9 1_555 1_555
Cd17_6 O15_9 1_555 1_555
O9_6 C29_6 1_555 1_555
O10_6 C29_6 1_555 1_555
O11_6 C42_6 1_555 1_555
O12_6 C42_6 1_555 1_555
O13_6 C44_6 1_555 1_555
O16_6 C44_6 1_555 1_555
C29_6 C30_6 1_555 1_555
C30_6 C31_6 1_555 1_555
C31_6 H17_6 1_555 1_555
C32_6 C31_6 1_555 1_555
H18_6 C32_6 1_555 1_555
C33_6 C32_6 1_555 1_555
C34_6 C33_6 1_555 1_555
H19_6 C34_6 1_555 1_555
C35_6 C30_6 1_555 1_555
H20_6 C35_6 1_555 1_555
C36_6 C33_6 1_555 1_555
C37_6 C36_6 1_555 1_555
H21_6 C37_6 1_555 1_555
C38_6 C37_6 1_555 1_555
H22_6 C38_6 1_555 1_555
C39_6 C38_6 1_555 1_555
C40_6 C39_6 1_555 1_555
H23_6 C40_6 1_555 1_555
C41_6 C36_6 1_555 1_555
H24_6 C41_6 1_555 1_555
C42_6 C39_6 1_555 1_555
C44_6 H26_6 1_555 1_555
Cd19_5 O11_6 1_555 1_555
Cd4_12 O10_6 1_555 1_555
Cd17_6 O12_6 1_555 1_555
O17_6 C45_6 1_555 1_555
O18_6 Cd4_12 1_555 1_555
O19_6 C58_6 1_555 1_555
O20_6 Cd17_6 1_555 1_555
C45_6 O18_6 1_555 1_555
C46_6 C45_6 1_555 1_555
C47_6 C46_6 1_555 1_555
H27_6 C47_6 1_555 1_555
C48_6 C47_6 1_555 1_555
H28_6 C48_6 1_555 1_555
C49_6 C48_6 1_555 1_555
C50_6 C49_6 1_555 1_555
H29_6 C50_6 1_555 1_555
C51_6 C46_6 1_555 1_555
H30_6 C51_6 1_555 1_555
C52_6 C49_6 1_555 1_555
C53_6 C52_6 1_555 1_555
H31_6 C53_6 1_555 1_555
C54_6 C53_6 1_555 1_555
H32_6 C54_6 1_555 1_555
C55_6 C54_6 1_555 1_555
C56_6 C55_6 1_555 1_555
H33_6 C56_6 1_555 1_555
C57_6 C52_6 1_555 1_555
H34_6 C57_6 1_555 1_555
C58_6 O20_6 1_555 1_555
O21_6 C59_6 1_555 1_555
O22_6 Cd4_12 1_555 1_555
O23_6 C72_6 1_555 1_555
O24_6 Cd17_6 1_555 1_555
C59_6 O22_6 1_555 1_555
C60_6 C59_6 1_555 1_555
C61_6 C60_6 1_555 1_555
H35_6 C61_6 1_555 1_555
C62_6 C61_6 1_555 1_555
H36_6 C62_6 1_555 1_555
C63_6 C62_6 1_555 1_555
C64_6 C63_6 1_555 1_555
H37_6 C64_6 1_555 1_555
C65_6 C60_6 1_555 1_555
H38_6 C65_6 1_555 1_555
C66_6 C63_6 1_555 1_555
C67_6 C66_6 1_555 1_555
H39_6 C67_6 1_555 1_555
C68_6 C67_6 1_555 1_555
H40_6 C68_6 1_555 1_555
C69_6 C68_6 1_555 1_555
C70_6 C69_6 1_555 1_555
H41_6 C70_6 1_555 1_555
C71_6 C66_6 1_555 1_555
H42_6 C71_6 1_555 1_555
C72_6 O24_6 1_555 1_555
O25_6 C73_6 1_555 1_555
O26_6 Cd20_2 1_555 1_555
C73_6 O26_6 1_555 1_555
H43_6 C73_6 1_555 1_555
O27_6 C74_6 1_555 1_555
O28_6 Cd4_12 1_555 1_555
C74_6 O28_6 1_555 1_555
H44_6 C74_6 1_555 1_555
Cd18 O25_6 1_555 1_555
Cd18_3 O27_6 1_555 1_555
Cd20 O17_6 1_555 1_555
Cd20_3 O16_6 1_555 1_555
Cd19_6 O19_6 1_555 1_555
Cd19_4 O23_6 1_555 1_555
O9_6 Cd20_2 1_555 1_555
O10_6 Cd20_2 1_555 1_555
O13_6 Cd18_2 1_555 1_555
O13_6 Cd20_2 1_555 1_555
O16_6 Cd4_12 1_555 1_555
C34_6 C35_6 1_555 1_555
C40_6 C41_6 1_555 1_555
Cd4_12 O26_6 1_555 1_555
O18_6 Cd20 1_555 1_555
C50_6 C51_6 1_555 1_555
C55_6 C58_6 1_555 1_555
C56_6 C57_6 1_555 1_555
O21_6 Cd20_3 1_555 1_555
O22_6 Cd20_3 1_555 1_555
C64_6 C65_6 1_555 1_555
C69_6 C72_6 1_555 1_555
C70_6 C71_6 1_555 1_555
O25_6 Cd20 1_555 1_555
O27_6 Cd20_3 1_555 1_555
O28_6 Cd20 1_555 1_555

#END
