
###############################################################################
#
# This file contains modified crystal structure data generated from the
# MOF subset of the Cambridge Structural Database (CSD) v543 
# hosted by the Cambridge Crystallographic Data Centre (CCDC).
#
# This work is licensed under the Creative Commons
# Attribution-NonCommercial-ShareAlike 4.0 International License.
# To view a copy of this license, visit
# http://creativecommons.org/licenses/by-nc-sa/4.0/
# or send a letter to
# Creative Commons, PO Box 1866, Mountain View, CA 94042, USA.
#
# CIF created using the CSD Python API on 29 September 2022
# The structure has been converted into the P1 space group
# The structure has a 3D framework
# The original CSD entry REQQEM is in the tetragonal crystal system
# The framework has been calculated to contain at least 10.0% void space
# The void calculation uses a probe of radius 1.32A, grid spacing 0.4
#
###############################################################################

data_REQQEM
_chemical_formula_moiety         '(C272 H160 Cd16 Cl12 N80 O60)n'
_symmetry_cell_setting           triclinic
_symmetry_space_group_name_H-M   'P 1'
_symmetry_Int_Tables_number      1
_space_group_name_Hall           'P 1'
loop_
_symmetry_equiv_pos_site_id
_symmetry_equiv_pos_as_xyz
1 x,y,z
_cell_length_a                   21.847(3)
_cell_length_b                   21.847(3)
_cell_length_c                   31.687(6)
_cell_angle_alpha                90
_cell_angle_beta                 90
_cell_angle_gamma                90
_cell_volume                     15123.9
loop_
_atom_site_label
_atom_site_type_symbol
_atom_site_fract_x
_atom_site_fract_y
_atom_site_fract_z
Cl1 Cl 0.5047(3) 0.6248(4) 0.0116(3)
Cd2 Cd 0.62743(4) 0.62995(5) 0.00111(2)
O7 O 0.3809(6) 0.7085(5) 0.0500(4)
O8 O 0.2600(6) 0.6049(6) 0.0112(4)
N6 N 0.3541(4) 0.5513(4) 0.0485(3)
O1 O 0.7602(6) 0.6449(6) 0.7356(4)
Cd1 Cd 0.37005(5) 0.62743(4) 0.99889(2)
O2 O 0.2060(6) 0.6208(6) 0.8088(4)
O3 O 0.7915(5) 0.6191(6) 0.8000(4)
N1 N 0.4447(4) 0.6172(4) 0.9565(4)
O4 O 0.2400(6) 0.6049(6) 0.7388(4)
N2 N 0.3920(7) 0.6091(5) 0.8916(4)
H1 H 0.3590 0.6021 0.9056
C1 C 0.7481(5) 0.6398(7) 0.7746(6)
C2 C 0.4399(4) 0.6199(3) 0.9130(4)
C3 C 0.4306(4) 0.6045(6) 0.8139(4)
H2 H 0.4721 0.6050 0.8204
C4 C 0.4119(5) 0.6010(6) 0.7720(4)
H3 H 0.4409 0.5990 0.7506
C5 C 0.3499(6) 0.6003(7) 0.7623(3)
H4 H 0.3373 0.5980 0.7343
C6 C 0.3066(4) 0.6033(6) 0.7944(4)
C7 C 0.3253(5) 0.6068(6) 0.8362(4)
H5 H 0.2964 0.6088 0.8577
C8 C 0.3874(6) 0.6075(7) 0.8460(3)
C9 C 0.2450(9) 0.6101(9) 0.7825(6)
C10 C 0.6861(4) 0.6430(5) 0.7860(4)
C11 C 0.6690(5) 0.6370(6) 0.8281(3)
H6 H 0.6987 0.6307 0.8487
C12 C 0.6076(5) 0.6402(6) 0.8393(3)
C13 C 0.5633(4) 0.6494(5) 0.8085(4)
H7 H 0.5222 0.6516 0.8160
C14 C 0.5803(5) 0.6555(6) 0.7665(4)
H8 H 0.5507 0.6617 0.7458
C15 C 0.6418(5) 0.6523(6) 0.7552(3)
H9 H 0.6532 0.6564 0.7271
C16 C 0.5008(5) 0.6303(5) 0.9761(3)
N3 N 0.4905(4) 0.6355(4) 0.8884(3)
C17 C 0.5463(4) 0.6485(4) 0.9079(3)
N4 N 0.5513(4) 0.6459(4) 0.9515(3)
N5 N 0.5978(5) 0.6644(6) 0.8824(4)
H10 H 0.6245 0.6893 0.8927
O5 O 0.3551(6) 0.7398(6) 0.9856(4)
Cd3 Cd 0.12995(5) 0.62743(4) 0.75111(2)
Cd4 Cd 0.87257(4) 0.62995(5) 0.74889(2)
O6 O 0.2940(6) 0.6208(6) 0.9412(4)
Cl2 Cl 0.3752(4) 0.5047(3) 0.9884(3)
Cl1_2 Cl 0.4953(3) 0.3752(4) 0.0116(3)
Cd2_2 Cd 0.37257(4) 0.37005(5) 0.00111(2)
O7_2 O 0.6191(6) 0.2915(5) 0.0500(4)
O8_2 O 0.7400(6) 0.3951(6) 0.0112(4)
N6_2 N 0.6459(4) 0.4487(4) 0.0485(3)
O1_2 O 0.2398(6) 0.3551(6) 0.7356(4)
Cd1_2 Cd 0.62995(5) 0.37257(4) 0.99889(2)
O2_2 O 0.7940(6) 0.3792(6) 0.8088(4)
O3_2 O 0.2085(5) 0.3809(6) 0.8000(4)
N1_2 N 0.5553(4) 0.3828(4) 0.9565(4)
O4_2 O 0.7600(6) 0.3951(6) 0.7388(4)
N2_2 N 0.6080(7) 0.3909(5) 0.8916(4)
H1_2 H 0.6410 0.3979 0.9056
C1_2 C 0.2519(5) 0.3602(7) 0.7746(6)
C2_2 C 0.5601(4) 0.3801(3) 0.9130(4)
C3_2 C 0.5694(4) 0.3955(6) 0.8139(4)
H2_2 H 0.5279 0.3950 0.8204
C4_2 C 0.5881(5) 0.3990(6) 0.7720(4)
H3_2 H 0.5591 0.4010 0.7506
C5_2 C 0.6501(6) 0.3997(7) 0.7623(3)
H4_2 H 0.6627 0.4020 0.7343
C6_2 C 0.6934(4) 0.3967(6) 0.7944(4)
C7_2 C 0.6747(5) 0.3932(6) 0.8362(4)
H5_2 H 0.7036 0.3912 0.8577
C8_2 C 0.6126(6) 0.3925(7) 0.8460(3)
C9_2 C 0.7550(9) 0.3899(9) 0.7825(6)
C10_2 C 0.3139(4) 0.3570(5) 0.7860(4)
C11_2 C 0.3310(5) 0.3630(6) 0.8281(3)
H6_2 H 0.3013 0.3693 0.8487
C12_2 C 0.3924(5) 0.3598(6) 0.8393(3)
C13_2 C 0.4367(4) 0.3506(5) 0.8085(4)
H7_2 H 0.4778 0.3484 0.8160
C14_2 C 0.4197(5) 0.3445(6) 0.7665(4)
H8_2 H 0.4493 0.3383 0.7458
C15_2 C 0.3582(5) 0.3477(6) 0.7552(3)
H9_2 H 0.3468 0.3436 0.7271
C16_2 C 0.4992(5) 0.3697(5) 0.9761(3)
N3_2 N 0.5095(4) 0.3645(4) 0.8884(3)
C17_2 C 0.4537(4) 0.3515(4) 0.9079(3)
N4_2 N 0.4487(4) 0.3541(4) 0.9515(3)
N5_2 N 0.4022(5) 0.3356(6) 0.8824(4)
H10_2 H 0.3755 0.3107 0.8927
O5_2 O 0.6449(6) 0.2602(6) 0.9856(4)
Cd3_2 Cd 0.87005(5) 0.37257(4) 0.75111(2)
Cd4_2 Cd 0.12743(4) 0.37005(5) 0.74889(2)
O6_2 O 0.7060(6) 0.3792(6) 0.9412(4)
Cl2_2 Cl 0.6248(4) 0.4953(3) 0.9884(3)
O1_3 O 0.6449(6) 0.2398(6) 0.2644(4)
O2_3 O 0.6208(6) 0.7940(6) 0.1912(4)
O3_3 O 0.6191(6) 0.2085(5) 0.2000(4)
N1_3 N 0.6172(4) 0.5553(4) 0.0435(4)
O4_3 O 0.6049(6) 0.7600(6) 0.2612(4)
N2_3 N 0.6091(5) 0.6080(7) 0.1084(4)
H1_3 H 0.6021 0.6410 0.0944
C1_3 C 0.6398(7) 0.2519(5) 0.2254(6)
C2_3 C 0.6199(3) 0.5601(4) 0.0870(4)
C3_3 C 0.6045(6) 0.5694(4) 0.1861(4)
H2_3 H 0.6050 0.5279 0.1796
C4_3 C 0.6010(6) 0.5881(5) 0.2280(4)
H3_3 H 0.5990 0.5591 0.2494
C5_3 C 0.6003(7) 0.6501(6) 0.2377(3)
H4_3 H 0.5980 0.6627 0.2657
C6_3 C 0.6033(6) 0.6934(4) 0.2056(4)
C7_3 C 0.6068(6) 0.6747(5) 0.1638(4)
H5_3 H 0.6088 0.7036 0.1423
C8_3 C 0.6075(7) 0.6126(6) 0.1540(3)
C9_3 C 0.6101(9) 0.7550(9) 0.2175(6)
C10_3 C 0.6430(5) 0.3139(4) 0.2140(4)
C11_3 C 0.6370(6) 0.3310(5) 0.1719(3)
H6_3 H 0.6307 0.3013 0.1513
C12_3 C 0.6402(6) 0.3924(5) 0.1607(3)
C13_3 C 0.6494(5) 0.4367(4) 0.1915(4)
H7_3 H 0.6516 0.4778 0.1840
C14_3 C 0.6555(6) 0.4197(5) 0.2335(4)
H8_3 H 0.6617 0.4493 0.2542
C15_3 C 0.6523(6) 0.3582(5) 0.2448(3)
H9_3 H 0.6564 0.3468 0.2729
C16_3 C 0.6303(5) 0.4992(5) 0.0239(3)
N3_3 N 0.6355(4) 0.5095(4) 0.1116(3)
C17_3 C 0.6485(4) 0.4537(4) 0.0921(3)
N5_3 N 0.6644(6) 0.4022(5) 0.1176(4)
H10_3 H 0.6893 0.3755 0.1073
O5_3 O 0.7398(6) 0.6449(6) 0.0144(4)
Cd3_3 Cd 0.62743(4) 0.87005(5) 0.24889(2)
Cd4_3 Cd 0.62995(5) 0.12743(4) 0.25111(2)
O6_3 O 0.6208(6) 0.7060(6) 0.0588(4)
O7_3 O 0.7085(5) 0.6191(6) 0.9500(4)
O8_3 O 0.6049(6) 0.7400(6) 0.9888(4)
O1_4 O 0.3551(6) 0.7602(6) 0.2644(4)
O2_4 O 0.3792(6) 0.2060(6) 0.1912(4)
O3_4 O 0.3809(6) 0.7915(5) 0.2000(4)
N1_4 N 0.3828(4) 0.4447(4) 0.0435(4)
O4_4 O 0.3951(6) 0.2400(6) 0.2612(4)
N2_4 N 0.3909(5) 0.3920(7) 0.1084(4)
H1_4 H 0.3979 0.3590 0.0944
C1_4 C 0.3602(7) 0.7481(5) 0.2254(6)
C2_4 C 0.3801(3) 0.4399(4) 0.0870(4)
C3_4 C 0.3955(6) 0.4306(4) 0.1861(4)
H2_4 H 0.3950 0.4721 0.1796
C4_4 C 0.3990(6) 0.4119(5) 0.2280(4)
H3_4 H 0.4010 0.4409 0.2494
C5_4 C 0.3997(7) 0.3499(6) 0.2377(3)
H4_4 H 0.4020 0.3373 0.2657
C6_4 C 0.3967(6) 0.3066(4) 0.2056(4)
C7_4 C 0.3932(6) 0.3253(5) 0.1638(4)
H5_4 H 0.3912 0.2964 0.1423
C8_4 C 0.3925(7) 0.3874(6) 0.1540(3)
C9_4 C 0.3899(9) 0.2450(9) 0.2175(6)
C10_4 C 0.3570(5) 0.6861(4) 0.2140(4)
C11_4 C 0.3630(6) 0.6690(5) 0.1719(3)
H6_4 H 0.3693 0.6987 0.1513
C12_4 C 0.3598(6) 0.6076(5) 0.1607(3)
C13_4 C 0.3506(5) 0.5633(4) 0.1915(4)
H7_4 H 0.3484 0.5222 0.1840
C14_4 C 0.3445(6) 0.5803(5) 0.2335(4)
H8_4 H 0.3383 0.5507 0.2542
C15_4 C 0.3477(6) 0.6418(5) 0.2448(3)
H9_4 H 0.3436 0.6532 0.2729
C16_4 C 0.3697(5) 0.5008(5) 0.0239(3)
N3_4 N 0.3645(4) 0.4905(4) 0.1116(3)
C17_4 C 0.3515(4) 0.5463(4) 0.0921(3)
N5_4 N 0.3356(6) 0.5978(5) 0.1176(4)
H10_4 H 0.3107 0.6245 0.1073
O5_4 O 0.2602(6) 0.3551(6) 0.0144(4)
Cd3_4 Cd 0.37257(4) 0.12995(5) 0.24889(2)
Cd4_4 Cd 0.37005(5) 0.87257(4) 0.25111(2)
O6_4 O 0.3792(6) 0.2940(6) 0.0588(4)
O7_4 O 0.2915(5) 0.3809(6) 0.9500(4)
O8_4 O 0.3951(6) 0.2600(6) 0.9888(4)
H4_5 H 0.1627 0.5980 0.0157
N1_5 N 0.0553(4) 0.6172(4) 0.7935(4)
N2_5 N 0.1080(7) 0.6091(5) 0.8584(4)
H1_5 H 0.1410 0.6021 0.8444
C2_5 C 0.0601(4) 0.6199(3) 0.8370(4)
C3_5 C 0.0694(4) 0.6045(6) 0.9361(4)
H2_5 H 0.0279 0.6050 0.9296
C4_5 C 0.0881(5) 0.6010(6) 0.9780(4)
H3_5 H 0.0591 0.5990 0.9994
C5_5 C 0.1501(6) 0.6003(7) 0.9877(3)
C6_5 C 0.1934(4) 0.6033(6) 0.9556(4)
C7_5 C 0.1747(5) 0.6068(6) 0.9138(4)
H5_5 H 0.2036 0.6088 0.8923
C8_5 C 0.1126(6) 0.6075(7) 0.9040(3)
C9_5 C 0.2550(9) 0.6101(9) 0.9675(6)
N3_5 N 0.0095(4) 0.6355(4) 0.8616(3)
O5_5 O 0.1449(6) 0.7398(6) 0.7644(4)
O7_5 O 0.1191(6) 0.7085(5) 0.7000(4)
Cl2_3 Cl 0.1248(4) 0.5047(3) 0.7616(3)
N6_3 N 0.1459(4) 0.5513(4) 0.7015(3)
H8_5 H 0.9493 0.6617 0.0042
H9_5 H 0.8468 0.6564 0.0229
C1_5 C 0.7519(5) 0.6398(7) 0.9754(6)
C10_5 C 0.8139(4) 0.6430(5) 0.9640(4)
C11_5 C 0.8310(5) 0.6370(6) 0.9219(3)
H6_5 H 0.8013 0.6307 0.9013
C12_5 C 0.8924(5) 0.6402(6) 0.9107(3)
C13_5 C 0.9367(4) 0.6494(5) 0.9415(4)
H7_5 H 0.9778 0.6516 0.9340
C14_5 C 0.9197(5) 0.6555(6) 0.9835(4)
C15_5 C 0.8582(5) 0.6523(6) 0.9948(3)
Cl1_3 Cl 0.9953(3) 0.6248(4) 0.7384(3)
C16_5 C 0.9992(5) 0.6303(5) 0.7739(3)
C17_5 C 0.9537(4) 0.6485(4) 0.8421(3)
N4_3 N 0.9487(4) 0.6459(4) 0.7985(3)
N5_5 N 0.9022(5) 0.6644(6) 0.8676(4)
H10_5 H 0.8755 0.6893 0.8573
H8_6 H 0.0507 0.3383 0.0042
H9_6 H 0.1532 0.3436 0.0229
C1_6 C 0.2481(5) 0.3602(7) 0.9754(6)
C10_6 C 0.1861(4) 0.3570(5) 0.9640(4)
C11_6 C 0.1690(5) 0.3630(6) 0.9219(3)
H6_6 H 0.1987 0.3693 0.9013
C12_6 C 0.1076(5) 0.3598(6) 0.9107(3)
C13_6 C 0.0633(4) 0.3506(5) 0.9415(4)
H7_6 H 0.0222 0.3484 0.9340
C14_6 C 0.0803(5) 0.3445(6) 0.9835(4)
C15_6 C 0.1418(5) 0.3477(6) 0.9948(3)
Cl1_4 Cl 0.0047(3) 0.3752(4) 0.7384(3)
C16_6 C 0.0008(5) 0.3697(5) 0.7739(3)
C17_6 C 0.0463(4) 0.3515(4) 0.8421(3)
N4_4 N 0.0513(4) 0.3541(4) 0.7985(3)
N5_6 N 0.0978(5) 0.3356(6) 0.8676(4)
H10_6 H 0.1245 0.3107 0.8573
H4_6 H 0.8373 0.4020 0.0157
N1_6 N 0.9447(4) 0.3828(4) 0.7935(4)
N2_6 N 0.8920(7) 0.3909(5) 0.8584(4)
H1_6 H 0.8590 0.3979 0.8444
C2_6 C 0.9399(4) 0.3801(3) 0.8370(4)
C3_6 C 0.9306(4) 0.3955(6) 0.9361(4)
H2_6 H 0.9721 0.3950 0.9296
C4_6 C 0.9119(5) 0.3990(6) 0.9780(4)
H3_6 H 0.9409 0.4010 0.9994
C5_6 C 0.8499(6) 0.3997(7) 0.9877(3)
C6_6 C 0.8066(4) 0.3967(6) 0.9556(4)
C7_6 C 0.8253(5) 0.3932(6) 0.9138(4)
H5_6 H 0.7964 0.3912 0.8923
C8_6 C 0.8874(6) 0.3925(7) 0.9040(3)
C9_6 C 0.7450(9) 0.3899(9) 0.9675(6)
N3_6 N 0.9905(4) 0.3645(4) 0.8616(3)
O5_6 O 0.8551(6) 0.2602(6) 0.7644(4)
O7_6 O 0.8809(6) 0.2915(5) 0.7000(4)
Cl2_4 Cl 0.8752(4) 0.4953(3) 0.7616(3)
N6_4 N 0.8541(4) 0.4487(4) 0.7015(3)
O1_5 O 0.8551(6) 0.2398(6) 0.4856(4)
O2_5 O 0.8792(6) 0.7940(6) 0.5588(4)
O3_5 O 0.8809(6) 0.2085(5) 0.5500(4)
N1_7 N 0.8828(4) 0.5553(4) 0.7065(4)
O4_5 O 0.8951(6) 0.7600(6) 0.4888(4)
N2_7 N 0.8909(5) 0.6080(7) 0.6416(4)
H1_7 H 0.8979 0.6410 0.6556
C1_7 C 0.8602(7) 0.2519(5) 0.5246(6)
C2_7 C 0.8801(3) 0.5601(4) 0.6630(4)
C3_7 C 0.8955(6) 0.5694(4) 0.5639(4)
H2_7 H 0.8950 0.5279 0.5704
C4_7 C 0.8990(6) 0.5881(5) 0.5220(4)
H3_7 H 0.9010 0.5591 0.5006
C5_7 C 0.8997(7) 0.6501(6) 0.5123(3)
H4_7 H 0.9020 0.6627 0.4843
C6_7 C 0.8967(6) 0.6934(4) 0.5444(4)
C7_7 C 0.8932(6) 0.6747(5) 0.5862(4)
H5_7 H 0.8912 0.7036 0.6077
C8_7 C 0.8925(7) 0.6126(6) 0.5960(3)
C9_7 C 0.8899(9) 0.7550(9) 0.5325(6)
C10_7 C 0.8570(5) 0.3139(4) 0.5360(4)
C11_7 C 0.8630(6) 0.3310(5) 0.5781(3)
H6_7 H 0.8693 0.3013 0.5987
C12_7 C 0.8598(6) 0.3924(5) 0.5893(3)
C13_7 C 0.8506(5) 0.4367(4) 0.5585(4)
H7_7 H 0.8484 0.4778 0.5660
C14_7 C 0.8445(6) 0.4197(5) 0.5165(4)
H8_7 H 0.8383 0.4493 0.4958
C15_7 C 0.8477(6) 0.3582(5) 0.5052(3)
H9_7 H 0.8436 0.3468 0.4771
C16_7 C 0.8697(5) 0.4992(5) 0.7261(3)
N3_7 N 0.8645(4) 0.5095(4) 0.6384(3)
C17_7 C 0.8515(4) 0.4537(4) 0.6579(3)
N5_7 N 0.8356(6) 0.4022(5) 0.6324(4)
H10_7 H 0.8107 0.3755 0.6427
Cd3_5 Cd 0.87257(4) 0.87005(5) 0.50111(2)
Cd4_5 Cd 0.87005(5) 0.12743(4) 0.49889(2)
O6_5 O 0.8792(6) 0.7060(6) 0.6912(4)
O8_5 O 0.8951(6) 0.7400(6) 0.7612(4)
O1_6 O 0.1449(6) 0.7602(6) 0.4856(4)
O2_6 O 0.1208(6) 0.2060(6) 0.5588(4)
O3_6 O 0.1191(6) 0.7915(5) 0.5500(4)
N1_8 N 0.1172(4) 0.4447(4) 0.7065(4)
O4_6 O 0.1049(6) 0.2400(6) 0.4888(4)
N2_8 N 0.1091(5) 0.3920(7) 0.6416(4)
H1_8 H 0.1021 0.3590 0.6556
C1_8 C 0.1398(7) 0.7481(5) 0.5246(6)
C2_8 C 0.1199(3) 0.4399(4) 0.6630(4)
C3_8 C 0.1045(6) 0.4306(4) 0.5639(4)
H2_8 H 0.1050 0.4721 0.5704
C4_8 C 0.1010(6) 0.4119(5) 0.5220(4)
H3_8 H 0.0990 0.4409 0.5006
C5_8 C 0.1003(7) 0.3499(6) 0.5123(3)
H4_8 H 0.0980 0.3373 0.4843
C6_8 C 0.1033(6) 0.3066(4) 0.5444(4)
C7_8 C 0.1068(6) 0.3253(5) 0.5862(4)
H5_8 H 0.1088 0.2964 0.6077
C8_8 C 0.1075(7) 0.3874(6) 0.5960(3)
C9_8 C 0.1101(9) 0.2450(9) 0.5325(6)
C10_8 C 0.1430(5) 0.6861(4) 0.5360(4)
C11_8 C 0.1370(6) 0.6690(5) 0.5781(3)
H6_8 H 0.1307 0.6987 0.5987
C12_8 C 0.1402(6) 0.6076(5) 0.5893(3)
C13_8 C 0.1494(5) 0.5633(4) 0.5585(4)
H7_8 H 0.1516 0.5222 0.5660
C14_8 C 0.1555(6) 0.5803(5) 0.5165(4)
H8_8 H 0.1617 0.5507 0.4958
C15_8 C 0.1523(6) 0.6418(5) 0.5052(3)
H9_8 H 0.1564 0.6532 0.4771
C16_8 C 0.1303(5) 0.5008(5) 0.7261(3)
N3_8 N 0.1355(4) 0.4905(4) 0.6384(3)
C17_8 C 0.1485(4) 0.5463(4) 0.6579(3)
N5_8 N 0.1644(6) 0.5978(5) 0.6324(4)
H10_8 H 0.1893 0.6245 0.6427
Cd3_6 Cd 0.12743(4) 0.12995(5) 0.50111(2)
Cd4_6 Cd 0.12995(5) 0.87257(4) 0.49889(2)
O6_6 O 0.1208(6) 0.2940(6) 0.6912(4)
O8_6 O 0.1049(6) 0.2600(6) 0.7612(4)
O1_7 O 0.2602(6) 0.1449(6) 0.2356(4)
O3_7 O 0.2915(5) 0.1191(6) 0.3000(4)
C1_9 C 0.2481(5) 0.1398(7) 0.2746(6)
C10_9 C 0.1861(4) 0.1430(5) 0.2860(4)
C11_9 C 0.1690(5) 0.1370(6) 0.3281(3)
H6_9 H 0.1987 0.1307 0.3487
C12_9 C 0.1076(5) 0.1402(6) 0.3393(3)
C13_9 C 0.0633(4) 0.1494(5) 0.3085(4)
H7_9 H 0.0222 0.1516 0.3160
C14_9 C 0.0803(5) 0.1555(6) 0.2665(4)
H8_9 H 0.0507 0.1617 0.2458
C15_9 C 0.1418(5) 0.1523(6) 0.2552(3)
H9_9 H 0.1532 0.1564 0.2271
Cl1_5 Cl 0.0047(3) 0.1248(4) 0.5116(3)
C16_9 C 0.0008(5) 0.1303(5) 0.4761(3)
C17_9 C 0.0463(4) 0.1485(4) 0.4079(3)
N4_5 N 0.0513(4) 0.1459(4) 0.4515(3)
N5_9 N 0.0978(5) 0.1644(6) 0.3824(4)
H10_9 H 0.1245 0.1893 0.3927
O2_7 O 0.7060(6) 0.1208(6) 0.3088(4)
N1_9 N 0.9447(4) 0.1172(4) 0.4565(4)
O4_7 O 0.7400(6) 0.1049(6) 0.2388(4)
N2_9 N 0.8920(7) 0.1091(5) 0.3916(4)
H1_9 H 0.8590 0.1021 0.4056
C2_9 C 0.9399(4) 0.1199(3) 0.4130(4)
C3_9 C 0.9306(4) 0.1045(6) 0.3139(4)
H2_9 H 0.9721 0.1050 0.3204
C4_9 C 0.9119(5) 0.1010(6) 0.2720(4)
H3_9 H 0.9409 0.0990 0.2506
C5_9 C 0.8499(6) 0.1003(7) 0.2623(3)
H4_9 H 0.8373 0.0980 0.2343
C6_9 C 0.8066(4) 0.1033(6) 0.2944(4)
C7_9 C 0.8253(5) 0.1068(6) 0.3362(4)
H5_9 H 0.7964 0.1088 0.3577
C8_9 C 0.8874(6) 0.1075(7) 0.3460(3)
C9_9 C 0.7450(9) 0.1101(9) 0.2825(6)
N3_9 N 0.9905(4) 0.1355(4) 0.3884(3)
O6_7 O 0.7940(6) 0.1208(6) 0.4412(4)
O8_7 O 0.7600(6) 0.1049(6) 0.5112(4)
Cl2_5 Cl 0.8752(4) 0.0047(3) 0.4884(3)
N6_5 N 0.8541(4) 0.0513(4) 0.5485(3)
O2_8 O 0.2940(6) 0.8792(6) 0.3088(4)
N1_10 N 0.0553(4) 0.8828(4) 0.4565(4)
O4_8 O 0.2600(6) 0.8951(6) 0.2388(4)
N2_10 N 0.1080(7) 0.8909(5) 0.3916(4)
H1_10 H 0.1410 0.8979 0.4056
C2_10 C 0.0601(4) 0.8801(3) 0.4130(4)
C3_10 C 0.0694(4) 0.8955(6) 0.3139(4)
H2_10 H 0.0279 0.8950 0.3204
C4_10 C 0.0881(5) 0.8990(6) 0.2720(4)
H3_10 H 0.0591 0.9010 0.2506
C5_10 C 0.1501(6) 0.8997(7) 0.2623(3)
H4_10 H 0.1627 0.9020 0.2343
C6_10 C 0.1934(4) 0.8967(6) 0.2944(4)
C7_10 C 0.1747(5) 0.8932(6) 0.3362(4)
H5_10 H 0.2036 0.8912 0.3577
C8_10 C 0.1126(6) 0.8925(7) 0.3460(3)
C9_10 C 0.2550(9) 0.8899(9) 0.2825(6)
N3_10 N 0.0095(4) 0.8645(4) 0.3884(3)
O6_8 O 0.2060(6) 0.8792(6) 0.4412(4)
O8_8 O 0.2400(6) 0.8951(6) 0.5112(4)
Cl2_6 Cl 0.1248(4) 0.9953(3) 0.4884(3)
N6_6 N 0.1459(4) 0.9487(4) 0.5485(3)
O1_8 O 0.7398(6) 0.8551(6) 0.2356(4)
O3_8 O 0.7085(5) 0.8809(6) 0.3000(4)
C1_10 C 0.7519(5) 0.8602(7) 0.2746(6)
C10_10 C 0.8139(4) 0.8570(5) 0.2860(4)
C11_10 C 0.8310(5) 0.8630(6) 0.3281(3)
H6_10 H 0.8013 0.8693 0.3487
C12_10 C 0.8924(5) 0.8598(6) 0.3393(3)
C13_10 C 0.9367(4) 0.8506(5) 0.3085(4)
H7_10 H 0.9778 0.8484 0.3160
C14_10 C 0.9197(5) 0.8445(6) 0.2665(4)
H8_10 H 0.9493 0.8383 0.2458
C15_10 C 0.8582(5) 0.8477(6) 0.2552(3)
H9_10 H 0.8468 0.8436 0.2271
Cl1_6 Cl 0.9953(3) 0.8752(4) 0.5116(3)
C16_10 C 0.9992(5) 0.8697(5) 0.4761(3)
C17_10 C 0.9537(4) 0.8515(4) 0.4079(3)
N4_6 N 0.9487(4) 0.8541(4) 0.4515(3)
N5_10 N 0.9022(5) 0.8356(6) 0.3824(4)
H10_10 H 0.8755 0.8107 0.3927
N1_11 N 0.1172(4) 0.0553(4) 0.5435(4)
N2_11 N 0.1091(5) 0.1080(7) 0.6084(4)
H1_11 H 0.1021 0.1410 0.5944
C2_11 C 0.1199(3) 0.0601(4) 0.5870(4)
C3_11 C 0.1045(6) 0.0694(4) 0.6861(4)
H2_11 H 0.1050 0.0279 0.6796
C4_11 C 0.1010(6) 0.0881(5) 0.7280(4)
H3_11 H 0.0990 0.0591 0.7494
C5_11 C 0.1003(7) 0.1501(6) 0.7377(3)
H4_11 H 0.0980 0.1627 0.7657
C6_11 C 0.1033(6) 0.1934(4) 0.7056(4)
C7_11 C 0.1068(6) 0.1747(5) 0.6638(4)
H5_11 H 0.1088 0.2036 0.6423
C8_11 C 0.1075(7) 0.1126(6) 0.6540(3)
C9_11 C 0.1101(9) 0.2550(9) 0.7175(6)
N3_11 N 0.1355(4) 0.0095(4) 0.6116(3)
O5_7 O 0.2398(6) 0.1449(6) 0.5144(4)
O7_7 O 0.2085(5) 0.1191(6) 0.4500(4)
C1_11 C 0.1398(7) 0.7519(5) 0.7254(6)
C10_11 C 0.1430(5) 0.8139(4) 0.7140(4)
C11_11 C 0.1370(6) 0.8310(5) 0.6719(3)
H6_11 H 0.1307 0.8013 0.6513
C12_11 C 0.1402(6) 0.8924(5) 0.6607(3)
C13_11 C 0.1494(5) 0.9367(4) 0.6915(4)
H7_11 H 0.1516 0.9778 0.6840
C14_11 C 0.1555(6) 0.9197(5) 0.7335(4)
H8_11 H 0.1617 0.9493 0.7542
C15_11 C 0.1523(6) 0.8582(5) 0.7448(3)
H9_11 H 0.1564 0.8468 0.7729
C16_11 C 0.1303(5) 0.9992(5) 0.5239(3)
C17_11 C 0.1485(4) 0.9537(4) 0.5921(3)
N5_11 N 0.1644(6) 0.9022(5) 0.6176(4)
H10_11 H 0.1893 0.8755 0.6073
C1_12 C 0.8602(7) 0.2481(5) 0.7254(6)
C10_12 C 0.8570(5) 0.1861(4) 0.7140(4)
C11_12 C 0.8630(6) 0.1690(5) 0.6719(3)
H6_12 H 0.8693 0.1987 0.6513
C12_12 C 0.8598(6) 0.1076(5) 0.6607(3)
C13_12 C 0.8506(5) 0.0633(4) 0.6915(4)
H7_12 H 0.8484 0.0222 0.6840
C14_12 C 0.8445(6) 0.0803(5) 0.7335(4)
H8_12 H 0.8383 0.0507 0.7542
C15_12 C 0.8477(6) 0.1418(5) 0.7448(3)
H9_12 H 0.8436 0.1532 0.7729
C16_12 C 0.8697(5) 0.0008(5) 0.5239(3)
C17_12 C 0.8515(4) 0.0463(4) 0.5921(3)
N5_12 N 0.8356(6) 0.0978(5) 0.6176(4)
H10_12 H 0.8107 0.1245 0.6073
N1_12 N 0.8828(4) 0.9447(4) 0.5435(4)
N2_12 N 0.8909(5) 0.8920(7) 0.6084(4)
H1_12 H 0.8979 0.8590 0.5944
C2_12 C 0.8801(3) 0.9399(4) 0.5870(4)
C3_12 C 0.8955(6) 0.9306(4) 0.6861(4)
H2_12 H 0.8950 0.9721 0.6796
C4_12 C 0.8990(6) 0.9119(5) 0.7280(4)
H3_12 H 0.9010 0.9409 0.7494
C5_12 C 0.8997(7) 0.8499(6) 0.7377(3)
H4_12 H 0.9020 0.8373 0.7657
C6_12 C 0.8967(6) 0.8066(4) 0.7056(4)
C7_12 C 0.8932(6) 0.8253(5) 0.6638(4)
H5_12 H 0.8912 0.7964 0.6423
C8_12 C 0.8925(7) 0.8874(6) 0.6540(3)
C9_12 C 0.8899(9) 0.7450(9) 0.7175(6)
N3_12 N 0.8645(4) 0.9905(4) 0.6116(3)
O5_8 O 0.7602(6) 0.8551(6) 0.5144(4)
O7_8 O 0.7915(5) 0.8809(6) 0.4500(4)
N1_13 N 0.5553(4) 0.1172(4) 0.2935(4)
N2_13 N 0.6080(7) 0.1091(5) 0.3584(4)
H1_13 H 0.6410 0.1021 0.3444
C1_13 C 0.2519(5) 0.1398(7) 0.4754(6)
C2_13 C 0.5601(4) 0.1199(3) 0.3370(4)
C3_13 C 0.5694(4) 0.1045(6) 0.4361(4)
H2_13 H 0.5279 0.1050 0.4296
C4_13 C 0.5881(5) 0.1010(6) 0.4780(4)
H3_13 H 0.5591 0.0990 0.4994
C5_13 C 0.6501(6) 0.1003(7) 0.4877(3)
H4_13 H 0.6627 0.0980 0.5157
C6_13 C 0.6934(4) 0.1033(6) 0.4556(4)
C7_13 C 0.6747(5) 0.1068(6) 0.4138(4)
H5_13 H 0.7036 0.1088 0.3923
C8_13 C 0.6126(6) 0.1075(7) 0.4040(3)
C9_13 C 0.7550(9) 0.1101(9) 0.4675(6)
C10_13 C 0.3139(4) 0.1430(5) 0.4640(4)
C11_13 C 0.3310(5) 0.1370(6) 0.4219(3)
H6_13 H 0.3013 0.1307 0.4013
C12_13 C 0.3924(5) 0.1402(6) 0.4107(3)
C13_13 C 0.4367(4) 0.1494(5) 0.4415(4)
H7_13 H 0.4778 0.1516 0.4340
C14_13 C 0.4197(5) 0.1555(6) 0.4835(4)
H8_13 H 0.4493 0.1617 0.5042
C15_13 C 0.3582(5) 0.1523(6) 0.4948(3)
H9_13 H 0.3468 0.1564 0.5229
Cl1_7 Cl 0.4953(3) 0.1248(4) 0.2384(3)
C16_13 C 0.4992(5) 0.1303(5) 0.2739(3)
N3_13 N 0.5095(4) 0.1355(4) 0.3616(3)
C17_13 C 0.4537(4) 0.1485(4) 0.3421(3)
N4_7 N 0.4487(4) 0.1459(4) 0.2985(3)
N5_13 N 0.4022(5) 0.1644(6) 0.3676(4)
H10_13 H 0.3755 0.1893 0.3573
Cl2_7 Cl 0.6248(4) 0.0047(3) 0.2616(3)
N6_7 N 0.6459(4) 0.0513(4) 0.2015(3)
N1_14 N 0.4447(4) 0.8828(4) 0.2935(4)
N2_14 N 0.3920(7) 0.8909(5) 0.3584(4)
H1_14 H 0.3590 0.8979 0.3444
C1_14 C 0.7481(5) 0.8602(7) 0.4754(6)
C2_14 C 0.4399(4) 0.8801(3) 0.3370(4)
C3_14 C 0.4306(4) 0.8955(6) 0.4361(4)
H2_14 H 0.4721 0.8950 0.4296
C4_14 C 0.4119(5) 0.8990(6) 0.4780(4)
H3_14 H 0.4409 0.9010 0.4994
C5_14 C 0.3499(6) 0.8997(7) 0.4877(3)
H4_14 H 0.3373 0.9020 0.5157
C6_14 C 0.3066(4) 0.8967(6) 0.4556(4)
C7_14 C 0.3253(5) 0.8932(6) 0.4138(4)
H5_14 H 0.2964 0.8912 0.3923
C8_14 C 0.3874(6) 0.8925(7) 0.4040(3)
C9_14 C 0.2450(9) 0.8899(9) 0.4675(6)
C10_14 C 0.6861(4) 0.8570(5) 0.4640(4)
C11_14 C 0.6690(5) 0.8630(6) 0.4219(3)
H6_14 H 0.6987 0.8693 0.4013
C12_14 C 0.6076(5) 0.8598(6) 0.4107(3)
C13_14 C 0.5633(4) 0.8506(5) 0.4415(4)
H7_14 H 0.5222 0.8484 0.4340
C14_14 C 0.5803(5) 0.8445(6) 0.4835(4)
H8_14 H 0.5507 0.8383 0.5042
C15_14 C 0.6418(5) 0.8477(6) 0.4948(3)
H9_14 H 0.6532 0.8436 0.5229
Cl1_8 Cl 0.5047(3) 0.8752(4) 0.2384(3)
C16_14 C 0.5008(5) 0.8697(5) 0.2739(3)
N3_14 N 0.4905(4) 0.8645(4) 0.3616(3)
C17_14 C 0.5463(4) 0.8515(4) 0.3421(3)
N4_8 N 0.5513(4) 0.8541(4) 0.2985(3)
N5_14 N 0.5978(5) 0.8356(6) 0.3676(4)
H10_14 H 0.6245 0.8107 0.3573
Cl2_8 Cl 0.3752(4) 0.9953(3) 0.2616(3)
N6_8 N 0.3541(4) 0.9487(4) 0.2015(3)
N1_15 N 0.3828(4) 0.0553(4) 0.2065(4)
N2_15 N 0.3909(5) 0.1080(7) 0.1416(4)
H1_15 H 0.3979 0.1410 0.1556
C2_15 C 0.3801(3) 0.0601(4) 0.1630(4)
C3_15 C 0.3955(6) 0.0694(4) 0.0639(4)
H2_15 H 0.3950 0.0279 0.0704
C4_15 C 0.3990(6) 0.0881(5) 0.0220(4)
H3_15 H 0.4010 0.0591 0.0006
C5_15 C 0.3997(7) 0.1501(6) 0.0123(3)
C6_15 C 0.3967(6) 0.1934(4) 0.0444(4)
C7_15 C 0.3932(6) 0.1747(5) 0.0862(4)
H5_15 H 0.3912 0.2036 0.1077
C8_15 C 0.3925(7) 0.1126(6) 0.0960(3)
C9_15 C 0.3899(9) 0.2550(9) 0.0325(6)
N3_15 N 0.3645(4) 0.0095(4) 0.1384(3)
H4_15 H 0.4020 0.1627 0.9843
C1_15 C 0.3602(7) 0.7519(5) 0.0246(6)
C10_15 C 0.3570(5) 0.8139(4) 0.0360(4)
C11_15 C 0.3630(6) 0.8310(5) 0.0781(3)
H6_15 H 0.3693 0.8013 0.0987
C12_15 C 0.3598(6) 0.8924(5) 0.0893(3)
C13_15 C 0.3506(5) 0.9367(4) 0.0585(4)
H7_15 H 0.3484 0.9778 0.0660
C14_15 C 0.3445(6) 0.9197(5) 0.0165(4)
C15_15 C 0.3477(6) 0.8582(5) 0.0052(3)
C16_15 C 0.3697(5) 0.9992(5) 0.2261(3)
C17_15 C 0.3515(4) 0.9537(4) 0.1579(3)
N5_15 N 0.3356(6) 0.9022(5) 0.1324(4)
H10_15 H 0.3107 0.8755 0.1427
H8_15 H 0.3383 0.9493 0.9958
H9_15 H 0.3436 0.8468 0.9771
C1_16 C 0.6398(7) 0.2481(5) 0.0246(6)
C10_16 C 0.6430(5) 0.1861(4) 0.0360(4)
C11_16 C 0.6370(6) 0.1690(5) 0.0781(3)
H6_16 H 0.6307 0.1987 0.0987
C12_16 C 0.6402(6) 0.1076(5) 0.0893(3)
C13_16 C 0.6494(5) 0.0633(4) 0.0585(4)
H7_16 H 0.6516 0.0222 0.0660
C14_16 C 0.6555(6) 0.0803(5) 0.0165(4)
C15_16 C 0.6523(6) 0.1418(5) 0.0052(3)
C16_16 C 0.6303(5) 0.0008(5) 0.2261(3)
C17_16 C 0.6485(4) 0.0463(4) 0.1579(3)
N5_16 N 0.6644(6) 0.0978(5) 0.1324(4)
H10_16 H 0.6893 0.1245 0.1427
H8_16 H 0.6617 0.0507 0.9958
H9_16 H 0.6564 0.1532 0.9771
N1_16 N 0.6172(4) 0.9447(4) 0.2065(4)
N2_16 N 0.6091(5) 0.8920(7) 0.1416(4)
H1_16 H 0.6021 0.8590 0.1556
C2_16 C 0.6199(3) 0.9399(4) 0.1630(4)
C3_16 C 0.6045(6) 0.9306(4) 0.0639(4)
H2_16 H 0.6050 0.9721 0.0704
C4_16 C 0.6010(6) 0.9119(5) 0.0220(4)
H3_16 H 0.5990 0.9409 0.0006
C5_16 C 0.6003(7) 0.8499(6) 0.0123(3)
C6_16 C 0.6033(6) 0.8066(4) 0.0444(4)
C7_16 C 0.6068(6) 0.8253(5) 0.0862(4)
H5_16 H 0.6088 0.7964 0.1077
C8_16 C 0.6075(7) 0.8874(6) 0.0960(3)
C9_16 C 0.6101(9) 0.7450(9) 0.0325(6)
N3_16 N 0.6355(4) 0.9905(4) 0.1384(3)
H4_16 H 0.5980 0.8373 0.9843
loop_
_geom_bond_atom_site_label_1
_geom_bond_atom_site_label_2
_geom_bond_site_symmetry_1
_geom_bond_site_symmetry_2
Cd2 Cl1 1_555 1_555
O1 C1 1_555 1_555
Cd1 N1 1_555 1_555
O2 C9 1_555 1_555
O3 C1 1_555 1_555
N1 C2 1_555 1_555
O4 C9 1_555 1_555
N2 H1 1_555 1_555
C1 C10 1_555 1_555
C2 N2 1_555 1_555
C3 H2 1_555 1_555
C4 C3 1_555 1_555
H3 C4 1_555 1_555
C5 C4 1_555 1_555
H4 C5 1_555 1_555
C6 C5 1_555 1_555
C7 C6 1_555 1_555
H5 C7 1_555 1_555
C8 N2 1_555 1_555
C9 C6 1_555 1_555
C10 C11 1_555 1_555
C11 H6 1_555 1_555
C12 C11 1_555 1_555
C13 C12 1_555 1_555
H7 C13 1_555 1_555
C14 C13 1_555 1_555
H8 C14 1_555 1_555
C15 C10 1_555 1_555
H9 C15 1_555 1_555
C16 N1 1_555 1_555
N3 C2 1_555 1_555
C17 N3 1_555 1_555
N4 C16 1_555 1_555
N5 C12 1_555 1_555
H10 N5 1_555 1_555
O5 Cd1 1_555 1_555
Cd3 O2 1_555 1_555
Cd4 O1 1_555 1_555
O6 Cd1 1_555 1_555
Cl2 Cd1 1_555 1_555
O3 Cd4 1_555 1_555
O4 Cd3 1_555 1_555
C3 C8 1_555 1_555
C7 C8 1_555 1_555
C14 C15 1_555 1_555
C17 N4 1_555 1_555
C17 N5 1_555 1_555
Cd2_2 Cl1_2 1_555 1_555
O1_2 C1_2 1_555 1_555
Cd1_2 N1_2 1_555 1_555
O2_2 C9_2 1_555 1_555
O3_2 C1_2 1_555 1_555
N1_2 C2_2 1_555 1_555
O4_2 C9_2 1_555 1_555
N2_2 H1_2 1_555 1_555
C1_2 C10_2 1_555 1_555
C2_2 N2_2 1_555 1_555
C3_2 H2_2 1_555 1_555
C4_2 C3_2 1_555 1_555
H3_2 C4_2 1_555 1_555
C5_2 C4_2 1_555 1_555
H4_2 C5_2 1_555 1_555
C6_2 C5_2 1_555 1_555
C7_2 C6_2 1_555 1_555
H5_2 C7_2 1_555 1_555
C8_2 N2_2 1_555 1_555
C9_2 C6_2 1_555 1_555
C10_2 C11_2 1_555 1_555
C11_2 H6_2 1_555 1_555
C12_2 C11_2 1_555 1_555
C13_2 C12_2 1_555 1_555
H7_2 C13_2 1_555 1_555
C14_2 C13_2 1_555 1_555
H8_2 C14_2 1_555 1_555
C15_2 C10_2 1_555 1_555
H9_2 C15_2 1_555 1_555
C16_2 N1_2 1_555 1_555
N3_2 C2_2 1_555 1_555
C17_2 N3_2 1_555 1_555
N4_2 C16_2 1_555 1_555
N5_2 C12_2 1_555 1_555
H10_2 N5_2 1_555 1_555
O5_2 Cd1_2 1_555 1_555
Cd3_2 O2_2 1_555 1_555
Cd4_2 O1_2 1_555 1_555
O6_2 Cd1_2 1_555 1_555
Cl2_2 Cd1_2 1_555 1_555
O3_2 Cd4_2 1_555 1_555
O4_2 Cd3_2 1_555 1_555
C3_2 C8_2 1_555 1_555
C7_2 C8_2 1_555 1_555
C14_2 C15_2 1_555 1_555
C17_2 N4_2 1_555 1_555
C17_2 N5_2 1_555 1_555
O1_3 C1_3 1_555 1_555
Cd2 N1_3 1_555 1_555
O2_3 C9_3 1_555 1_555
O3_3 C1_3 1_555 1_555
N1_3 C2_3 1_555 1_555
O4_3 C9_3 1_555 1_555
N2_3 H1_3 1_555 1_555
C1_3 C10_3 1_555 1_555
C2_3 N2_3 1_555 1_555
C3_3 H2_3 1_555 1_555
C4_3 C3_3 1_555 1_555
H3_3 C4_3 1_555 1_555
C5_3 C4_3 1_555 1_555
H4_3 C5_3 1_555 1_555
C6_3 C5_3 1_555 1_555
C7_3 C6_3 1_555 1_555
H5_3 C7_3 1_555 1_555
C8_3 N2_3 1_555 1_555
C9_3 C6_3 1_555 1_555
C10_3 C11_3 1_555 1_555
C11_3 H6_3 1_555 1_555
C12_3 C11_3 1_555 1_555
C13_3 C12_3 1_555 1_555
H7_3 C13_3 1_555 1_555
C14_3 C13_3 1_555 1_555
H8_3 C14_3 1_555 1_555
C15_3 C10_3 1_555 1_555
H9_3 C15_3 1_555 1_555
C16_3 N1_3 1_555 1_555
N3_3 C2_3 1_555 1_555
C17_3 N3_3 1_555 1_555
N6_2 C16_3 1_555 1_555
N5_3 C12_3 1_555 1_555
H10_3 N5_3 1_555 1_555
O5_3 Cd2 1_555 1_555
Cd3_3 O2_3 1_555 1_555
Cd4_3 O1_3 1_555 1_555
O6_3 Cd2 1_555 1_555
O3_3 Cd4_3 1_555 1_555
O4_3 Cd3_3 1_555 1_555
C3_3 C8_3 1_555 1_555
C7_3 C8_3 1_555 1_555
C14_3 C15_3 1_555 1_555
C17_3 N6_2 1_555 1_555
C17_3 N5_3 1_555 1_555
O1_4 C1_4 1_555 1_555
Cd2_2 N1_4 1_555 1_555
O2_4 C9_4 1_555 1_555
O3_4 C1_4 1_555 1_555
N1_4 C2_4 1_555 1_555
O4_4 C9_4 1_555 1_555
N2_4 H1_4 1_555 1_555
C1_4 C10_4 1_555 1_555
C2_4 N2_4 1_555 1_555
C3_4 H2_4 1_555 1_555
C4_4 C3_4 1_555 1_555
H3_4 C4_4 1_555 1_555
C5_4 C4_4 1_555 1_555
H4_4 C5_4 1_555 1_555
C6_4 C5_4 1_555 1_555
C7_4 C6_4 1_555 1_555
H5_4 C7_4 1_555 1_555
C8_4 N2_4 1_555 1_555
C9_4 C6_4 1_555 1_555
C10_4 C11_4 1_555 1_555
C11_4 H6_4 1_555 1_555
C12_4 C11_4 1_555 1_555
C13_4 C12_4 1_555 1_555
H7_4 C13_4 1_555 1_555
C14_4 C13_4 1_555 1_555
H8_4 C14_4 1_555 1_555
C15_4 C10_4 1_555 1_555
H9_4 C15_4 1_555 1_555
C16_4 N1_4 1_555 1_555
N3_4 C2_4 1_555 1_555
C17_4 N3_4 1_555 1_555
N6 C16_4 1_555 1_555
N5_4 C12_4 1_555 1_555
H10_4 N5_4 1_555 1_555
O5_4 Cd2_2 1_555 1_555
Cd3_4 O2_4 1_555 1_555
Cd4_4 O1_4 1_555 1_555
O6_4 Cd2_2 1_555 1_555
O3_4 Cd4_4 1_555 1_555
O4_4 Cd3_4 1_555 1_555
C3_4 C8_4 1_555 1_555
C7_4 C8_4 1_555 1_555
C14_4 C15_4 1_555 1_555
C17_4 N6 1_555 1_555
C17_4 N5_4 1_555 1_555
Cd3 N1_5 1_555 1_555
O6 C9_5 1_555 1_555
N1_5 C2_5 1_555 1_555
N2_5 H1_5 1_555 1_555
C2_5 N2_5 1_555 1_555
C3_5 H2_5 1_555 1_555
C4_5 C3_5 1_555 1_555
H3_5 C4_5 1_555 1_555
C5_5 C4_5 1_555 1_555
C6_5 C5_5 1_555 1_555
C7_5 C6_5 1_555 1_555
H5_5 C7_5 1_555 1_555
C8_5 N2_5 1_555 1_555
C9_5 C6_5 1_555 1_555
N3_5 C2_5 1_555 1_555
O5_5 Cd3 1_555 1_555
O7_5 Cd3 1_555 1_555
Cl2_3 Cd3 1_555 1_555
N6_3 Cd3 1_555 1_555
C3_5 C8_5 1_555 1_555
C7_5 C8_5 1_555 1_555
O7_3 C1_5 1_555 1_555
C1_5 C10_5 1_555 1_555
C10_5 C11_5 1_555 1_555
C11_5 H6_5 1_555 1_555
C12_5 C11_5 1_555 1_555
C13_5 C12_5 1_555 1_555
H7_5 C13_5 1_555 1_555
C14_5 C13_5 1_555 1_555
C15_5 C10_5 1_555 1_555
N4_3 C16_5 1_555 1_555
N5_5 C12_5 1_555 1_555
H10_5 N5_5 1_555 1_555
Cd4 Cl1_3 1_555 1_555
C14_5 C15_5 1_555 1_555
Cl1_3 C16_5 1_555 1_555
C17_5 N4_3 1_555 1_555
C17_5 N5_5 1_555 1_555
N4_3 Cd4 1_555 1_555
O7_4 C1_6 1_555 1_555
C1_6 C10_6 1_555 1_555
C10_6 C11_6 1_555 1_555
C11_6 H6_6 1_555 1_555
C12_6 C11_6 1_555 1_555
C13_6 C12_6 1_555 1_555
H7_6 C13_6 1_555 1_555
C14_6 C13_6 1_555 1_555
C15_6 C10_6 1_555 1_555
N4_4 C16_6 1_555 1_555
N5_6 C12_6 1_555 1_555
H10_6 N5_6 1_555 1_555
Cd4_2 Cl1_4 1_555 1_555
C14_6 C15_6 1_555 1_555
Cl1_4 C16_6 1_555 1_555
C17_6 N4_4 1_555 1_555
C17_6 N5_6 1_555 1_555
N4_4 Cd4_2 1_555 1_555
Cd3_2 N1_6 1_555 1_555
O6_2 C9_6 1_555 1_555
N1_6 C2_6 1_555 1_555
N2_6 H1_6 1_555 1_555
C2_6 N2_6 1_555 1_555
C3_6 H2_6 1_555 1_555
C4_6 C3_6 1_555 1_555
H3_6 C4_6 1_555 1_555
C5_6 C4_6 1_555 1_555
C6_6 C5_6 1_555 1_555
C7_6 C6_6 1_555 1_555
H5_6 C7_6 1_555 1_555
C8_6 N2_6 1_555 1_555
C9_6 C6_6 1_555 1_555
N3_6 C2_6 1_555 1_555
O5_6 Cd3_2 1_555 1_555
O7_6 Cd3_2 1_555 1_555
Cl2_4 Cd3_2 1_555 1_555
N6_4 Cd3_2 1_555 1_555
C3_6 C8_6 1_555 1_555
C7_6 C8_6 1_555 1_555
O1_5 C1_7 1_555 1_555
Cd4 N1_7 1_555 1_555
O2_5 C9_7 1_555 1_555
O3_5 C1_7 1_555 1_555
N1_7 C2_7 1_555 1_555
O4_5 C9_7 1_555 1_555
N2_7 H1_7 1_555 1_555
C1_7 C10_7 1_555 1_555
C2_7 N2_7 1_555 1_555
C3_7 H2_7 1_555 1_555
C4_7 C3_7 1_555 1_555
H3_7 C4_7 1_555 1_555
C5_7 C4_7 1_555 1_555
H4_7 C5_7 1_555 1_555
C6_7 C5_7 1_555 1_555
C7_7 C6_7 1_555 1_555
H5_7 C7_7 1_555 1_555
C8_7 N2_7 1_555 1_555
C9_7 C6_7 1_555 1_555
C10_7 C11_7 1_555 1_555
C11_7 H6_7 1_555 1_555
C12_7 C11_7 1_555 1_555
C13_7 C12_7 1_555 1_555
H7_7 C13_7 1_555 1_555
C14_7 C13_7 1_555 1_555
H8_7 C14_7 1_555 1_555
C15_7 C10_7 1_555 1_555
H9_7 C15_7 1_555 1_555
Cl2_4 Cd4 1_555 1_555
C16_7 N1_7 1_555 1_555
N3_7 C2_7 1_555 1_555
C17_7 N3_7 1_555 1_555
N6_4 C16_7 1_555 1_555
N5_7 C12_7 1_555 1_555
H10_7 N5_7 1_555 1_555
Cd3_5 O2_5 1_555 1_555
Cd4_5 O1_5 1_555 1_555
O6_5 Cd4 1_555 1_555
O8_5 Cd4 1_555 1_555
O3_5 Cd4_5 1_555 1_555
O4_5 Cd3_5 1_555 1_555
C3_7 C8_7 1_555 1_555
C7_7 C8_7 1_555 1_555
C14_7 C15_7 1_555 1_555
Cl2_4 C16_7 1_555 1_555
C17_7 N6_4 1_555 1_555
C17_7 N5_7 1_555 1_555
O1_6 C1_8 1_555 1_555
Cd4_2 N1_8 1_555 1_555
O2_6 C9_8 1_555 1_555
O3_6 C1_8 1_555 1_555
N1_8 C2_8 1_555 1_555
O4_6 C9_8 1_555 1_555
N2_8 H1_8 1_555 1_555
C1_8 C10_8 1_555 1_555
C2_8 N2_8 1_555 1_555
C3_8 H2_8 1_555 1_555
C4_8 C3_8 1_555 1_555
H3_8 C4_8 1_555 1_555
C5_8 C4_8 1_555 1_555
H4_8 C5_8 1_555 1_555
C6_8 C5_8 1_555 1_555
C7_8 C6_8 1_555 1_555
H5_8 C7_8 1_555 1_555
C8_8 N2_8 1_555 1_555
C9_8 C6_8 1_555 1_555
C10_8 C11_8 1_555 1_555
C11_8 H6_8 1_555 1_555
C12_8 C11_8 1_555 1_555
C13_8 C12_8 1_555 1_555
H7_8 C13_8 1_555 1_555
C14_8 C13_8 1_555 1_555
H8_8 C14_8 1_555 1_555
C15_8 C10_8 1_555 1_555
H9_8 C15_8 1_555 1_555
Cl2_3 Cd4_2 1_555 1_555
C16_8 N1_8 1_555 1_555
N3_8 C2_8 1_555 1_555
C17_8 N3_8 1_555 1_555
N6_3 C16_8 1_555 1_555
N5_8 C12_8 1_555 1_555
H10_8 N5_8 1_555 1_555
Cd3_6 O2_6 1_555 1_555
Cd4_6 O1_6 1_555 1_555
O6_6 Cd4_2 1_555 1_555
O8_6 Cd4_2 1_555 1_555
O3_6 Cd4_6 1_555 1_555
O4_6 Cd3_6 1_555 1_555
C3_8 C8_8 1_555 1_555
C7_8 C8_8 1_555 1_555
C14_8 C15_8 1_555 1_555
Cl2_3 C16_8 1_555 1_555
C17_8 N6_3 1_555 1_555
C17_8 N5_8 1_555 1_555
O1_7 C1_9 1_555 1_555
O3_7 C1_9 1_555 1_555
C1_9 C10_9 1_555 1_555
C10_9 C11_9 1_555 1_555
C11_9 H6_9 1_555 1_555
C12_9 C11_9 1_555 1_555
C13_9 C12_9 1_555 1_555
H7_9 C13_9 1_555 1_555
C14_9 C13_9 1_555 1_555
H8_9 C14_9 1_555 1_555
C15_9 C10_9 1_555 1_555
H9_9 C15_9 1_555 1_555
N4_5 C16_9 1_555 1_555
N5_9 C12_9 1_555 1_555
H10_9 N5_9 1_555 1_555
Cd3_6 Cl1_5 1_555 1_555
Cd3_4 O1_7 1_555 1_555
O3_7 Cd3_4 1_555 1_555
C14_9 C15_9 1_555 1_555
Cl1_5 C16_9 1_555 1_555
C17_9 N4_5 1_555 1_555
C17_9 N5_9 1_555 1_555
N4_5 Cd3_6 1_555 1_555
Cd4_5 N1_9 1_555 1_555
O2_7 C9_9 1_555 1_555
N1_9 C2_9 1_555 1_555
O4_7 C9_9 1_555 1_555
N2_9 H1_9 1_555 1_555
C2_9 N2_9 1_555 1_555
C3_9 H2_9 1_555 1_555
C4_9 C3_9 1_555 1_555
H3_9 C4_9 1_555 1_555
C5_9 C4_9 1_555 1_555
H4_9 C5_9 1_555 1_555
C6_9 C5_9 1_555 1_555
C7_9 C6_9 1_555 1_555
H5_9 C7_9 1_555 1_555
C8_9 N2_9 1_555 1_555
C9_9 C6_9 1_555 1_555
N3_9 C2_9 1_555 1_555
Cd4_3 O2_7 1_555 1_555
O6_7 Cd4_5 1_555 1_555
O8_7 Cd4_5 1_555 1_555
Cl2_5 Cd4_5 1_555 1_555
N6_5 Cd4_5 1_555 1_555
O4_7 Cd4_3 1_555 1_555
C3_9 C8_9 1_555 1_555
C7_9 C8_9 1_555 1_555
Cd4_6 N1_10 1_555 1_555
O2_8 C9_10 1_555 1_555
N1_10 C2_10 1_555 1_555
O4_8 C9_10 1_555 1_555
N2_10 H1_10 1_555 1_555
C2_10 N2_10 1_555 1_555
C3_10 H2_10 1_555 1_555
C4_10 C3_10 1_555 1_555
H3_10 C4_10 1_555 1_555
C5_10 C4_10 1_555 1_555
H4_10 C5_10 1_555 1_555
C6_10 C5_10 1_555 1_555
C7_10 C6_10 1_555 1_555
H5_10 C7_10 1_555 1_555
C8_10 N2_10 1_555 1_555
C9_10 C6_10 1_555 1_555
N3_10 C2_10 1_555 1_555
Cd4_4 O2_8 1_555 1_555
O6_8 Cd4_6 1_555 1_555
O8_8 Cd4_6 1_555 1_555
Cl2_6 Cd4_6 1_555 1_555
N6_6 Cd4_6 1_555 1_555
O4_8 Cd4_4 1_555 1_555
C3_10 C8_10 1_555 1_555
C7_10 C8_10 1_555 1_555
O1_8 C1_10 1_555 1_555
O3_8 C1_10 1_555 1_555
C1_10 C10_10 1_555 1_555
C10_10 C11_10 1_555 1_555
C11_10 H6_10 1_555 1_555
C12_10 C11_10 1_555 1_555
C13_10 C12_10 1_555 1_555
H7_10 C13_10 1_555 1_555
C14_10 C13_10 1_555 1_555
H8_10 C14_10 1_555 1_555
C15_10 C10_10 1_555 1_555
H9_10 C15_10 1_555 1_555
N4_6 C16_10 1_555 1_555
N5_10 C12_10 1_555 1_555
H10_10 N5_10 1_555 1_555
Cd3_5 Cl1_6 1_555 1_555
Cd3_3 O1_8 1_555 1_555
O3_8 Cd3_3 1_555 1_555
C14_10 C15_10 1_555 1_555
Cl1_6 C16_10 1_555 1_555
C17_10 N4_6 1_555 1_555
C17_10 N5_10 1_555 1_555
N4_6 Cd3_5 1_555 1_555
Cd3_6 N1_11 1_555 1_555
O6_6 C9_11 1_555 1_555
N1_11 C2_11 1_555 1_555
O8_6 C9_11 1_555 1_555
N2_11 H1_11 1_555 1_555
C2_11 N2_11 1_555 1_555
C3_11 H2_11 1_555 1_555
C4_11 C3_11 1_555 1_555
H3_11 C4_11 1_555 1_555
C5_11 C4_11 1_555 1_555
H4_11 C5_11 1_555 1_555
C6_11 C5_11 1_555 1_555
C7_11 C6_11 1_555 1_555
H5_11 C7_11 1_555 1_555
C8_11 N2_11 1_555 1_555
C9_11 C6_11 1_555 1_555
N3_11 C2_11 1_555 1_555
O5_7 Cd3_6 1_555 1_555
O7_7 Cd3_6 1_555 1_555
C3_11 C8_11 1_555 1_555
C7_11 C8_11 1_555 1_555
O5_5 C1_11 1_555 1_555
O7_5 C1_11 1_555 1_555
C1_11 C10_11 1_555 1_555
C10_11 C11_11 1_555 1_555
C11_11 H6_11 1_555 1_555
C12_11 C11_11 1_555 1_555
C13_11 C12_11 1_555 1_555
H7_11 C13_11 1_555 1_555
C14_11 C13_11 1_555 1_555
H8_11 C14_11 1_555 1_555
C15_11 C10_11 1_555 1_555
H9_11 C15_11 1_555 1_555
N6_6 C16_11 1_555 1_555
N5_11 C12_11 1_555 1_555
H10_11 N5_11 1_555 1_555
C14_11 C15_11 1_555 1_555
Cl2_6 C16_11 1_555 1_555
C17_11 N6_6 1_555 1_555
C17_11 N5_11 1_555 1_555
O5_6 C1_12 1_555 1_555
O7_6 C1_12 1_555 1_555
C1_12 C10_12 1_555 1_555
C10_12 C11_12 1_555 1_555
C11_12 H6_12 1_555 1_555
C12_12 C11_12 1_555 1_555
C13_12 C12_12 1_555 1_555
H7_12 C13_12 1_555 1_555
C14_12 C13_12 1_555 1_555
H8_12 C14_12 1_555 1_555
C15_12 C10_12 1_555 1_555
H9_12 C15_12 1_555 1_555
N6_5 C16_12 1_555 1_555
N5_12 C12_12 1_555 1_555
H10_12 N5_12 1_555 1_555
C14_12 C15_12 1_555 1_555
Cl2_5 C16_12 1_555 1_555
C17_12 N6_5 1_555 1_555
C17_12 N5_12 1_555 1_555
Cd3_5 N1_12 1_555 1_555
O6_5 C9_12 1_555 1_555
N1_12 C2_12 1_555 1_555
O8_5 C9_12 1_555 1_555
N2_12 H1_12 1_555 1_555
C2_12 N2_12 1_555 1_555
C3_12 H2_12 1_555 1_555
C4_12 C3_12 1_555 1_555
H3_12 C4_12 1_555 1_555
C5_12 C4_12 1_555 1_555
H4_12 C5_12 1_555 1_555
C6_12 C5_12 1_555 1_555
C7_12 C6_12 1_555 1_555
H5_12 C7_12 1_555 1_555
C8_12 N2_12 1_555 1_555
C9_12 C6_12 1_555 1_555
N3_12 C2_12 1_555 1_555
O5_8 Cd3_5 1_555 1_555
O7_8 Cd3_5 1_555 1_555
C3_12 C8_12 1_555 1_555
C7_12 C8_12 1_555 1_555
O5_7 C1_13 1_555 1_555
Cd4_3 N1_13 1_555 1_555
O6_7 C9_13 1_555 1_555
O7_7 C1_13 1_555 1_555
N1_13 C2_13 1_555 1_555
O8_7 C9_13 1_555 1_555
N2_13 H1_13 1_555 1_555
C1_13 C10_13 1_555 1_555
C2_13 N2_13 1_555 1_555
C3_13 H2_13 1_555 1_555
C4_13 C3_13 1_555 1_555
H3_13 C4_13 1_555 1_555
C5_13 C4_13 1_555 1_555
H4_13 C5_13 1_555 1_555
C6_13 C5_13 1_555 1_555
C7_13 C6_13 1_555 1_555
H5_13 C7_13 1_555 1_555
C8_13 N2_13 1_555 1_555
C9_13 C6_13 1_555 1_555
C10_13 C11_13 1_555 1_555
C11_13 H6_13 1_555 1_555
C12_13 C11_13 1_555 1_555
C13_13 C12_13 1_555 1_555
H7_13 C13_13 1_555 1_555
C14_13 C13_13 1_555 1_555
H8_13 C14_13 1_555 1_555
C15_13 C10_13 1_555 1_555
H9_13 C15_13 1_555 1_555
Cl1_7 Cd4_3 1_555 1_555
C16_13 N1_13 1_555 1_555
N3_13 C2_13 1_555 1_555
C17_13 N3_13 1_555 1_555
N4_7 C16_13 1_555 1_555
N5_13 C12_13 1_555 1_555
H10_13 N5_13 1_555 1_555
Cd3_4 Cl1_7 1_555 1_555
Cl2_7 Cd4_3 1_555 1_555
N6_7 Cd4_3 1_555 1_555
C3_13 C8_13 1_555 1_555
C7_13 C8_13 1_555 1_555
C14_13 C15_13 1_555 1_555
Cl1_7 C16_13 1_555 1_555
C17_13 N4_7 1_555 1_555
C17_13 N5_13 1_555 1_555
N4_7 Cd3_4 1_555 1_555
O5_8 C1_14 1_555 1_555
Cd4_4 N1_14 1_555 1_555
O6_8 C9_14 1_555 1_555
O7_8 C1_14 1_555 1_555
N1_14 C2_14 1_555 1_555
O8_8 C9_14 1_555 1_555
N2_14 H1_14 1_555 1_555
C1_14 C10_14 1_555 1_555
C2_14 N2_14 1_555 1_555
C3_14 H2_14 1_555 1_555
C4_14 C3_14 1_555 1_555
H3_14 C4_14 1_555 1_555
C5_14 C4_14 1_555 1_555
H4_14 C5_14 1_555 1_555
C6_14 C5_14 1_555 1_555
C7_14 C6_14 1_555 1_555
H5_14 C7_14 1_555 1_555
C8_14 N2_14 1_555 1_555
C9_14 C6_14 1_555 1_555
C10_14 C11_14 1_555 1_555
C11_14 H6_14 1_555 1_555
C12_14 C11_14 1_555 1_555
C13_14 C12_14 1_555 1_555
H7_14 C13_14 1_555 1_555
C14_14 C13_14 1_555 1_555
H8_14 C14_14 1_555 1_555
C15_14 C10_14 1_555 1_555
H9_14 C15_14 1_555 1_555
Cl1_8 Cd4_4 1_555 1_555
C16_14 N1_14 1_555 1_555
N3_14 C2_14 1_555 1_555
C17_14 N3_14 1_555 1_555
N4_8 C16_14 1_555 1_555
N5_14 C12_14 1_555 1_555
H10_14 N5_14 1_555 1_555
Cd3_3 Cl1_8 1_555 1_555
Cl2_8 Cd4_4 1_555 1_555
N6_8 Cd4_4 1_555 1_555
C3_14 C8_14 1_555 1_555
C7_14 C8_14 1_555 1_555
C14_14 C15_14 1_555 1_555
Cl1_8 C16_14 1_555 1_555
C17_14 N4_8 1_555 1_555
C17_14 N5_14 1_555 1_555
N4_8 Cd3_3 1_555 1_555
Cd3_4 N1_15 1_555 1_555
O6_4 C9_15 1_555 1_555
N1_15 C2_15 1_555 1_555
N2_15 H1_15 1_555 1_555
C2_15 N2_15 1_555 1_555
C3_15 H2_15 1_555 1_555
C4_15 C3_15 1_555 1_555
H3_15 C4_15 1_555 1_555
C5_15 C4_15 1_555 1_555
C6_15 C5_15 1_555 1_555
C7_15 C6_15 1_555 1_555
H5_15 C7_15 1_555 1_555
C8_15 N2_15 1_555 1_555
C9_15 C6_15 1_555 1_555
N3_15 C2_15 1_555 1_555
C3_15 C8_15 1_555 1_555
C7_15 C8_15 1_555 1_555
O7 C1_15 1_555 1_555
C1_15 C10_15 1_555 1_555
C10_15 C11_15 1_555 1_555
C11_15 H6_15 1_555 1_555
C12_15 C11_15 1_555 1_555
C13_15 C12_15 1_555 1_555
H7_15 C13_15 1_555 1_555
C14_15 C13_15 1_555 1_555
C15_15 C10_15 1_555 1_555
N6_8 C16_15 1_555 1_555
N5_15 C12_15 1_555 1_555
H10_15 N5_15 1_555 1_555
C14_15 C15_15 1_555 1_555
Cl2_8 C16_15 1_555 1_555
C17_15 N6_8 1_555 1_555
C17_15 N5_15 1_555 1_555
O7_2 C1_16 1_555 1_555
C1_16 C10_16 1_555 1_555
C10_16 C11_16 1_555 1_555
C11_16 H6_16 1_555 1_555
C12_16 C11_16 1_555 1_555
C13_16 C12_16 1_555 1_555
H7_16 C13_16 1_555 1_555
C14_16 C13_16 1_555 1_555
C15_16 C10_16 1_555 1_555
N6_7 C16_16 1_555 1_555
N5_16 C12_16 1_555 1_555
H10_16 N5_16 1_555 1_555
C14_16 C15_16 1_555 1_555
Cl2_7 C16_16 1_555 1_555
C17_16 N6_7 1_555 1_555
C17_16 N5_16 1_555 1_555
Cd3_3 N1_16 1_555 1_555
O6_3 C9_16 1_555 1_555
N1_16 C2_16 1_555 1_555
N2_16 H1_16 1_555 1_555
C2_16 N2_16 1_555 1_555
C3_16 H2_16 1_555 1_555
C4_16 C3_16 1_555 1_555
H3_16 C4_16 1_555 1_555
C5_16 C4_16 1_555 1_555
C6_16 C5_16 1_555 1_555
C7_16 C6_16 1_555 1_555
H5_16 C7_16 1_555 1_555
C8_16 N2_16 1_555 1_555
C9_16 C6_16 1_555 1_555
N3_16 C2_16 1_555 1_555
C3_16 C8_16 1_555 1_555
C7_16 C8_16 1_555 1_555

#END
