
###############################################################################
#
# This file contains modified crystal structure data generated from the
# MOF subset of the Cambridge Structural Database (CSD) v543 
# hosted by the Cambridge Crystallographic Data Centre (CCDC).
#
# This work is licensed under the Creative Commons
# Attribution-NonCommercial-ShareAlike 4.0 International License.
# To view a copy of this license, visit
# http://creativecommons.org/licenses/by-nc-sa/4.0/
# or send a letter to
# Creative Commons, PO Box 1866, Mountain View, CA 94042, USA.
#
# CIF created using the CSD Python API on 29 September 2022
# The structure has been converted into the P1 space group
# The structure has a 3D framework
# The original CSD entry REQWAO is in the triclinic crystal system
# The framework has been calculated to contain at least 10.0% void space
# The void calculation uses a probe of radius 1.32A, grid spacing 0.4
#
###############################################################################

data_REQWAO
_chemical_formula_moiety         '(C156 H152 N8 O54 Sr8)n'
_symmetry_cell_setting           triclinic
_symmetry_space_group_name_H-M   'P 1'
_symmetry_Int_Tables_number      1
_space_group_name_Hall           'P 1'
loop_
_symmetry_equiv_pos_site_id
_symmetry_equiv_pos_as_xyz
1 x,y,z
_cell_length_a                   14.287(5)
_cell_length_b                   19.257(5)
_cell_length_c                   19.522(5)
_cell_angle_alpha                65.213(5)
_cell_angle_beta                 73.212(5)
_cell_angle_gamma                75.976(5)
_cell_volume                     4622.71
loop_
_atom_site_label
_atom_site_type_symbol
_atom_site_fract_x
_atom_site_fract_y
_atom_site_fract_z
O1 O 0.6405(3) 0.2868(2) 0.0782(2)
O2 O 0.5511(2) 0.19655(19) 0.16564(18)
O21 O 0.2955(2) 0.14076(18) 0.22103(19)
O22 O 0.4061(3) 0.0427(2) 0.2724(2)
H3 H 0.402211 0.150423 0.001819
C5 C 0.4784(5) 0.1892(5) 0.0486(3)
H4 H 0.446057 0.165845 0.099584
C6 C 0.5520(4) 0.2314(3) 0.0325(3)
C9 C 0.5834(4) 0.2391(3) 0.0954(3)
H59 H 0.085422 0.003965 0.188136
C56 C 0.1940(4) 0.0400(3) 0.2066(3)
H60 H 0.162737 0.090197 0.199105
C57 C 0.2868(4) 0.0169(3) 0.2256(3)
C60 C 0.3330(3) 0.0700(3) 0.2398(3)
Sr7 Sr 0.64730(3) 0.26157(2) 0.21683(2)
Sr13 Sr 0.16501(3) 0.25159(2) 0.23690(2)
Sr16 Sr 0.41683(3) 0.16753(2) 0.28155(2)
O3 O 0.4741(3) 0.2049(3) 0.8550(3)
O4 O 0.2877(3) 0.1596(2) 0.7929(2)
O5 O 0.3196(3) 0.3921(2) 0.7165(3)
O7 O 0.0284(3) 0.69132(19) 0.7386(2)
O8 O 0.4726(3) 0.3121(3) 0.6199(2)
O9 O 0.8209(3) 0.1850(2) 0.3954(2)
O10 O 0.7253(2) 0.26260(19) 0.31399(19)
C1 C 0.3847(4) 0.2611(3) 0.7515(3)
C2 C 0.3892(4) 0.2503(3) 0.8337(3)
H1 H 0.385588 0.300480 0.835534
H2 H 0.332660 0.226825 0.870343
C3 C 0.4954(5) 0.2163(4) 0.9143(3)
C4 C 0.4510(6) 0.1806(5) 0.9896(4)
C7 C 0.5951(4) 0.2684(3) 0.9560(3)
H5 H 0.643881 0.298704 0.943268
C8 C 0.5659(4) 0.2605(3) 0.8975(3)
H6 H 0.595377 0.285943 0.846245
C10 C 0.3798(4) 0.1823(3) 0.7500(4)
H7 H 0.388439 0.186971 0.697213
H8 H 0.432051 0.143999 0.772138
C11 C 0.2979(4) 0.3200(3) 0.7254(3)
H9 H 0.290315 0.321892 0.676821
H10 H 0.237461 0.307164 0.763666
C12 C 0.2414(4) 0.4507(3) 0.7126(3)
C13 C 0.0743(4) 0.5139(3) 0.7039(3)
H11 H 0.012515 0.513774 0.697137
C14 C 0.0923(4) 0.5754(3) 0.7157(3)
C15 C 0.1863(4) 0.5740(3) 0.7236(3)
H12 H 0.200198 0.615170 0.730353
C16 C 0.2598(5) 0.5126(3) 0.7217(3)
H13 H 0.322395 0.513392 0.726539
C17 C 0.0116(4) 0.6391(3) 0.7228(3)
C18 C 0.4845(4) 0.2847(4) 0.6970(3)
H14 H 0.503045 0.324822 0.706044
H15 H 0.535958 0.240552 0.706389
C19 C 0.5455(4) 0.2926(3) 0.5647(3)
C20 C 0.7045(4) 0.2390(3) 0.5110(3)
H16 H 0.767987 0.214199 0.516475
C21 C 0.6763(4) 0.2577(3) 0.4425(3)
C22 C 0.5837(4) 0.2972(3) 0.4349(3)
H17 H 0.565304 0.313354 0.387976
C23 C 0.5167(4) 0.3138(4) 0.4953(3)
H18 H 0.453376 0.338790 0.489567
C24 C 0.7463(4) 0.2331(3) 0.3802(3)
C33 C 0.1375(4) 0.0222(3) 0.8180(3)
H33 H 0.071645 0.014698 0.837697
C34 C 0.1694(4) 0.0831(3) 0.8217(3)
H34 H 0.125863 0.115249 0.845045
C35 C 0.2668(5) 0.0948(3) 0.7901(3)
C36 C 0.3326(5) 0.0445(4) 0.7590(4)
H35 H 0.398267 0.052434 0.738465
H41 H 0.059661 0.044454 0.567372
H48 H 0.325705 0.011229 0.537061
C77 C 0.1508(5) 0.4511(3) 0.7021(3)
H75 H 0.138900 0.410216 0.693778
C78 C 0.6393(5) 0.2566(3) 0.5721(3)
H76 H 0.659531 0.244040 0.617598
Sr8 Sr 0.09045(3) 0.79732(2) 0.74533(2)
Sr9 Sr 0.90955(3) 0.20268(2) 0.25467(2)
O19 O 0.0105(3) 0.7197(2) 0.16031(19)
O20 O 0.1455(2) 0.86807(18) 0.2000(2)
O23 O 0.2383(3) 0.6442(2) 0.2120(2)
O24 O 0.3259(3) 0.30449(19) 0.2125(2)
O25 O 0.4592(2) 0.30657(19) 0.2487(2)
O26 O 0.0359(3) 0.7538(2) 0.3511(2)
C27 C 0.3957(6) 0.4280(4) 0.0235(4)
H23 H 0.343800 0.397296 0.055052
H24 H 0.399099 0.462589 0.046299
H25 H 0.457457 0.394812 0.019744
C29 C 0.1293(5) 0.5426(4) 0.0388(3)
H27 H 0.154491 0.490670 0.041953
H28 H 0.063154 0.544380 0.069020
H29 H 0.170391 0.559609 0.058259
C47 C 0.0073(4) 0.7843(3) 0.0235(3)
H52 H 0.045113 0.820842 0.016473
C51 C 0.0839(4) 0.7654(3) 0.1491(3)
H55 H 0.059139 0.819995 0.128043
H56 H 0.143285 0.754596 0.113486
C52 C 0.1062(4) 0.7435(3) 0.2281(3)
C53 C 0.1860(4) 0.7885(3) 0.2189(3)
H57 H 0.209106 0.768932 0.266604
H58 H 0.241570 0.782680 0.178266
C54 C 0.1974(4) 0.9137(3) 0.2078(3)
C55 C 0.1482(4) 0.9889(3) 0.1990(3)
C58 C 0.3342(4) 0.9433(3) 0.2334(3)
H61 H 0.396136 0.927909 0.245817
C59 C 0.2913(4) 0.8915(3) 0.2232(3)
H62 H 0.325142 0.842749 0.226754
C61 C 0.1444(4) 0.6577(3) 0.2616(3)
H63 H 0.152789 0.643078 0.313685
H64 H 0.097979 0.627332 0.263363
C62 C 0.2702(4) 0.5702(3) 0.2159(3)
C63 C 0.2131(4) 0.5296(3) 0.2039(3)
H65 H 0.150034 0.551872 0.195071
C64 C 0.2495(4) 0.4560(3) 0.2049(3)
H66 H 0.210822 0.429005 0.196568
C65 C 0.3438(4) 0.4216(3) 0.2185(3)
C66 C 0.4018(4) 0.4635(3) 0.2288(3)
H67 H 0.465254 0.441636 0.236825
C67 C 0.3656(4) 0.5375(3) 0.2271(3)
H68 H 0.404970 0.565517 0.233537
C68 C 0.3791(3) 0.3391(3) 0.2266(3)
C69 C 0.0111(4) 0.7640(3) 0.2807(3)
H71 H 0.052055 0.743341 0.478691
Sr1 Sr 0.35270(3) 0.73843(2) 0.78317(2)
Sr4 Sr 0.58317(3) 0.83247(2) 0.71845(2)
N1 N 0.3755(3) 0.4722(2) 0.9471(3)
N2 N 0.1291(3) 0.5922(2) 0.9601(3)
N4 N 0.4033(4) 0.9106(3) 0.5385(3)
O11 O 0.3617(3) 0.5892(2) 0.8479(2)
O12 O 0.2286(2) 0.85812(18) 0.7597(2)
O13 O 0.0743(2) 0.9109(2) 0.7885(2)
O14 O 0.1697(2) 0.70094(19) 0.8578(2)
O16 O 0.4396(3) 0.8468(2) 0.6574(2)
C25 C 0.3766(4) 0.5488(3) 0.9131(3)
H19 H 0.389523 0.573204 0.940875
C26 C 0.3557(5) 0.4295(3) 0.9081(4)
H20 H 0.312165 0.392794 0.943789
H21 H 0.416561 0.402698 0.888665
H22 H 0.325260 0.464627 0.865912
C28 C 0.1674(4) 0.6570(3) 0.9262(3)
H26 H 0.194740 0.671068 0.955558
C30 C 0.0802(5) 0.5688(4) 0.9181(4)
H30 H 0.110185 0.518241 0.918988
H31 H 0.086863 0.604978 0.865643
H32 H 0.011409 0.568009 0.942371
C31 C 0.1660(4) 0.9098(3) 0.7784(3)
C32 C 0.2023(4) 0.9725(3) 0.7854(3)
C37 C 0.3007(4) 0.9824(3) 0.7583(4)
H36 H 0.345704 0.947308 0.739562
C40 C 0.0378(4) 0.9975(3) 0.6067(4)
H42 H 0.082711 0.954070 0.599053
H43 H 0.036028 0.996804 0.656543
C41 C 0.4560(4) 0.8583(3) 0.5871(3)
H44 H 0.509166 0.827728 0.568082
C42 C 0.4297(6) 0.9224(5) 0.4562(4)
H45 H 0.376243 0.912825 0.442319
H46 H 0.487907 0.887552 0.446750
H47 H 0.442193 0.974697 0.425787
C43 C 0.3166(5) 0.9578(4) 0.5633(4)
H49 H 0.305687 0.943975 0.617979
H50 H 0.260454 0.949769 0.551232
O29 O 0.3595(3) 0.7132(2) 0.9218(2)
O30 O 0.4489(2) 0.80345(19) 0.83436(18)
O33 O 0.1791(3) 0.8150(2) 0.6046(2)
O34 O 0.2747(2) 0.73740(19) 0.68601(19)
O36 O 0.7045(2) 0.85924(18) 0.77897(19)
O37 O 0.5939(3) 0.9573(2) 0.7276(2)
O39 O 0.6741(3) 0.69551(19) 0.7875(2)
O40 O 0.5408(2) 0.69343(19) 0.7513(2)
O42 O 0.7681(3) 0.8156(2) 0.6444(2)
O43 O 0.6592(3) 0.8639(2) 0.5709(2)
O6 O 0.9269(3) 0.6395(2) 0.7143(3)
C39 C 0.8762(5) 0.0667(3) 0.5710(4)
H38 H 0.904605 0.092932 0.517513
H39 H 0.871510 0.098448 0.599159
H40 H 0.811490 0.056778 0.575696
Sr11 Sr 0.83499(3) 0.74841(2) 0.76310(2)
C48 C 0.9819(4) 0.7274(3) 0.0955(3)
C49 C 0.9258(4) 0.6727(3) 0.1068(3)
H53 H 0.909579 0.634656 0.155525
C50 C 0.8941(4) 0.6750(3) 0.0453(3)
H54 H 0.855894 0.638438 0.052982
H69 H 0.982697 0.817061 0.255983
H70 H 0.963281 0.730512 0.291639
C70 C 0.9636(4) 0.7786(3) 0.4013(3)
C71 C 0.9885(4) 0.7653(3) 0.4710(3)
C72 C 0.9185(4) 0.7850(3) 0.5278(3)
H72 H 0.935001 0.775557 0.573901
C73 C 0.8237(4) 0.8187(3) 0.5169(3)
C74 C 0.8002(4) 0.8342(3) 0.4469(3)
H73 H 0.737115 0.857673 0.439021
C75 C 0.8695(4) 0.8153(3) 0.3889(3)
H74 H 0.853531 0.827077 0.341932
C76 C 0.7442(4) 0.8345(3) 0.5808(3)
N3 N 0.9391(3) 0.9930(2) 0.6025(2)
O15 O 0.9467(2) 0.86413(19) 0.67168(19)
O17 O 0.9268(2) 0.77906(18) 0.83817(19)
O18 O 0.8366(3) 0.6845(2) 0.9120(2)
C38 C 0.9034(4) 0.9282(3) 0.6353(3)
H37 H 0.839600 0.929532 0.631370
C44 C 0.8914(3) 0.7311(3) 0.9037(3)
C45 C 0.9186(4) 0.7312(3) 0.9719(3)
C46 C 0.9751(4) 0.7860(3) 0.9621(3)
H51 H 0.991511 0.824245 0.913587
N3_2 N 0.0609(3) 0.0070(2) 0.3975(2)
O15_2 O 0.0533(2) 0.13587(19) 0.32832(19)
O17_2 O 0.0732(2) 0.22094(18) 0.16183(19)
O18_2 O 0.1634(3) 0.3155(2) 0.0880(2)
C38_2 C 0.0966(4) 0.0718(3) 0.3647(3)
H37_2 H 0.160400 0.070468 0.368630
C44_2 C 0.1086(3) 0.2689(3) 0.0963(3)
C45_2 C 0.0814(4) 0.2688(3) 0.0281(3)
C46_2 C 0.0249(4) 0.2140(3) 0.0379(3)
H51_2 H 0.008489 0.175755 0.086413
O31 O 0.0731(3) 0.3605(2) 0.2857(3)
O41 O 0.2319(3) 0.1844(2) 0.3556(2)
O28 O 0.3408(3) 0.1361(2) 0.4291(2)
C48_2 C 0.0181(4) 0.2726(3) 0.9045(3)
C49_2 C 0.0742(4) 0.3273(3) 0.8932(3)
H53_2 H 0.090421 0.365344 0.844475
C50_2 C 0.1059(4) 0.3250(3) 0.9547(3)
H54_2 H 0.144106 0.361562 0.947018
H69_2 H 0.017303 0.182939 0.744017
H70_2 H 0.036719 0.269488 0.708361
C70_2 C 0.0364(4) 0.2214(3) 0.5987(3)
C71_2 C 0.0115(4) 0.2347(3) 0.5290(3)
C72_2 C 0.0815(4) 0.2150(3) 0.4722(3)
H72_2 H 0.064999 0.224443 0.426099
C73_2 C 0.1763(4) 0.1813(3) 0.4831(3)
C74_2 C 0.1998(4) 0.1658(3) 0.5531(3)
H73_2 H 0.262885 0.142327 0.560979
C75_2 C 0.1305(4) 0.1847(3) 0.6111(3)
H74_2 H 0.146469 0.172923 0.658068
C76_2 C 0.2558(4) 0.1655(3) 0.4192(3)
C39_2 C 0.1238(5) 0.9333(3) 0.4290(4)
H38_2 H 0.095395 0.907068 0.482487
H39_2 H 0.128490 0.901552 0.400841
H40_2 H 0.188510 0.943222 0.424304
N1_2 N 0.6245(3) 0.5278(2) 0.0529(3)
N2_2 N 0.8709(3) 0.4078(2) 0.0399(3)
N4_2 N 0.5967(4) 0.0894(3) 0.4615(3)
O11_2 O 0.6383(3) 0.4108(2) 0.1521(2)
O12_2 O 0.7714(2) 0.14188(18) 0.2403(2)
O13_2 O 0.9257(2) 0.0891(2) 0.2115(2)
O14_2 O 0.8303(2) 0.29906(19) 0.1422(2)
O16_2 O 0.5604(3) 0.1532(2) 0.3426(2)
C25_2 C 0.6234(4) 0.4512(3) 0.0869(3)
H19_2 H 0.610477 0.426796 0.059125
C26_2 C 0.6443(5) 0.5705(3) 0.0919(4)
H20_2 H 0.687835 0.607206 0.056211
H21_2 H 0.583439 0.597302 0.111335
H22_2 H 0.674740 0.535373 0.134088
C28_2 C 0.8326(4) 0.3430(3) 0.0738(3)
H26_2 H 0.805260 0.328932 0.044442
C30_2 C 0.9198(5) 0.4312(4) 0.0819(4)
H30_2 H 0.889815 0.481759 0.081012
H31_2 H 0.913137 0.395022 0.134357
H32_2 H 0.988591 0.431991 0.057629
C31_2 C 0.8340(4) 0.0902(3) 0.2216(3)
C32_2 C 0.7977(4) 0.0275(3) 0.2146(3)
C37_2 C 0.6993(4) 0.0176(3) 0.2417(4)
H36_2 H 0.654296 0.052692 0.260438
C40_2 C 0.9622(4) 0.0025(3) 0.3933(4)
H42_2 H 0.917289 0.045930 0.400947
H43_2 H 0.963972 0.003196 0.343457
C41_2 C 0.5440(4) 0.1417(3) 0.4129(3)
H44_2 H 0.490834 0.172272 0.431918
C42_2 C 0.5703(6) 0.0776(5) 0.5438(4)
H45_2 H 0.623757 0.087175 0.557681
H46_2 H 0.512093 0.112448 0.553250
H47_2 H 0.557807 0.025303 0.574213
C43_2 C 0.6834(5) 0.0422(4) 0.4367(4)
H49_2 H 0.694313 0.056025 0.382021
H50_2 H 0.739546 0.050231 0.448768
O32 O 0.9716(3) 0.30868(19) 0.2614(2)
O19_2 O 0.9895(3) 0.2803(2) 0.83969(19)
O20_2 O 0.8545(2) 0.13193(18) 0.8000(2)
O23_2 O 0.7617(3) 0.3558(2) 0.7880(2)
O26_2 O 0.9641(3) 0.2462(2) 0.6489(2)
C27_2 C 0.6043(6) 0.5720(4) 0.9765(4)
H23_2 H 0.656200 0.602704 0.944948
H24_2 H 0.600901 0.537411 0.953701
H25_2 H 0.542543 0.605188 0.980256
C29_2 C 0.8707(5) 0.4574(4) 0.9612(3)
H27_2 H 0.845509 0.509330 0.958047
H28_2 H 0.936846 0.455620 0.930980
H29_2 H 0.829609 0.440391 0.941741
C47_2 C 0.9927(4) 0.2157(3) 0.9765(3)
H52_2 H 0.954887 0.179158 0.983527
C51_2 C 0.9161(4) 0.2346(3) 0.8509(3)
H55_2 H 0.940861 0.180005 0.871957
H56_2 H 0.856715 0.245404 0.886514
C52_2 C 0.8938(4) 0.2565(3) 0.7719(3)
C53_2 C 0.8140(4) 0.2115(3) 0.7811(3)
H57_2 H 0.790894 0.231068 0.733396
H58_2 H 0.758430 0.217320 0.821734
C54_2 C 0.8026(4) 0.0863(3) 0.7922(3)
C55_2 C 0.8518(4) 0.0111(3) 0.8010(3)
C58_2 C 0.6658(4) 0.0567(3) 0.7666(3)
H61_2 H 0.603864 0.072091 0.754183
C59_2 C 0.7087(4) 0.1085(3) 0.7768(3)
H62_2 H 0.674858 0.157251 0.773246
C61_2 C 0.8556(4) 0.3423(3) 0.7384(3)
H63_2 H 0.847211 0.356922 0.686315
H64_2 H 0.902021 0.372668 0.736637
C62_2 C 0.7298(4) 0.4298(3) 0.7841(3)
C63_2 C 0.7869(4) 0.4704(3) 0.7961(3)
H65_2 H 0.849966 0.448128 0.804929
C64_2 C 0.7505(4) 0.5440(3) 0.7951(3)
H66_2 H 0.789178 0.570995 0.803432
C65_2 C 0.6562(4) 0.5784(3) 0.7815(3)
C66_2 C 0.5982(4) 0.5365(3) 0.7712(3)
H67_2 H 0.534746 0.558364 0.763175
C67_2 C 0.6344(4) 0.4625(3) 0.7729(3)
H68_2 H 0.595030 0.434483 0.766463
C68_2 C 0.6209(3) 0.6609(3) 0.7734(3)
C69_2 C 0.9889(4) 0.2360(3) 0.7193(3)
H71_2 H 0.947945 0.256659 0.521309
O3_2 O 0.5259(3) 0.7951(3) 0.1450(3)
O4_2 O 0.7123(3) 0.8404(2) 0.2071(2)
O5_2 O 0.6804(3) 0.6079(2) 0.2835(3)
O8_2 O 0.5274(3) 0.6879(3) 0.3801(2)
C1_2 C 0.6153(4) 0.7389(3) 0.2485(3)
C2_2 C 0.6108(4) 0.7497(3) 0.1663(3)
H1_2 H 0.614412 0.699520 0.164466
H2_2 H 0.667340 0.773175 0.129657
C3_2 C 0.5046(5) 0.7837(4) 0.0857(3)
C4_2 C 0.5490(6) 0.8194(5) 0.0104(4)
C7_2 C 0.4049(4) 0.7316(3) 0.0440(3)
H5_2 H 0.356119 0.701296 0.056732
C8_2 C 0.4341(4) 0.7395(3) 0.1025(3)
H6_2 H 0.404623 0.714057 0.153755
C10_2 C 0.6202(4) 0.8177(3) 0.2500(4)
H7_2 H 0.611561 0.813029 0.302787
H8_2 H 0.567949 0.856001 0.227862
C11_2 C 0.7021(4) 0.6800(3) 0.2746(3)
H9_2 H 0.709685 0.678108 0.323179
H10_2 H 0.762539 0.692836 0.236334
C12_2 C 0.7586(4) 0.5493(3) 0.2874(3)
C13_2 C 0.9257(4) 0.4861(3) 0.2961(3)
H11_2 H 0.987485 0.486226 0.302863
C14_2 C 0.9077(4) 0.4246(3) 0.2843(3)
C15_2 C 0.8137(4) 0.4260(3) 0.2764(3)
H12_2 H 0.799802 0.384830 0.269647
C16_2 C 0.7402(5) 0.4874(3) 0.2783(3)
H13_2 H 0.677605 0.486608 0.273461
C17_2 C 0.9884(4) 0.3609(3) 0.2772(3)
C18_2 C 0.5155(4) 0.7153(4) 0.3030(3)
H14_2 H 0.496955 0.675178 0.293956
H15_2 H 0.464042 0.759448 0.293611
C19_2 C 0.4545(4) 0.7074(3) 0.4353(3)
C20_2 C 0.2955(4) 0.7610(3) 0.4890(3)
H16_2 H 0.232013 0.785801 0.483525
C21_2 C 0.3237(4) 0.7423(3) 0.5575(3)
C22_2 C 0.4163(4) 0.7028(3) 0.5651(3)
H17_2 H 0.434696 0.686646 0.612024
C23_2 C 0.4833(4) 0.6862(4) 0.5047(3)
H18_2 H 0.546624 0.661210 0.510433
C24_2 C 0.2537(4) 0.7669(3) 0.6198(3)
C33_2 C 0.8625(4) 0.9778(3) 0.1820(3)
H33_2 H 0.928355 0.985302 0.162303
C34_2 C 0.8306(4) 0.9169(3) 0.1783(3)
H34_2 H 0.874137 0.884751 0.154955
C35_2 C 0.7332(5) 0.9052(3) 0.2099(3)
C36_2 C 0.6674(5) 0.9555(4) 0.2410(4)
H35_2 H 0.601733 0.947566 0.261535
H41_2 H 0.940339 0.955546 0.432628
H48_2 H 0.674295 0.988771 0.462939
C77_2 C 0.8492(5) 0.5489(3) 0.2979(3)
H75_2 H 0.861100 0.589784 0.306222
C78_2 C 0.3607(5) 0.7434(3) 0.4279(3)
H76_2 H 0.340469 0.755960 0.382402
H3_2 H 0.597789 0.849577 0.998181
C5_2 C 0.5216(5) 0.8108(5) 0.9514(3)
H4_2 H 0.553943 0.834155 0.900416
C6_2 C 0.4480(4) 0.7686(3) 0.9675(3)
C9_2 C 0.4166(4) 0.7609(3) 0.9046(3)
H59_2 H 0.914578 0.996035 0.811864
C56_2 C 0.8060(4) 0.9600(3) 0.7934(3)
H60_2 H 0.837263 0.909803 0.800895
C57_2 C 0.7132(4) 0.9831(3) 0.7744(3)
C60_2 C 0.6670(3) 0.9300(3) 0.7602(3)
loop_
_geom_bond_atom_site_label_1
_geom_bond_atom_site_label_2
_geom_bond_site_symmetry_1
_geom_bond_site_symmetry_2
O1 C9 1_555 1_555
O2 C9 1_555 1_555
O21 C60 1_555 1_555
O22 C60 1_555 1_555
H4 C5 1_555 1_555
C6 C5 1_555 1_555
C9 C6 1_555 1_555
H60 C56 1_555 1_555
C57 C56 1_555 1_555
C60 C57 1_555 1_555
Sr7 O1 1_555 1_555
Sr13 O21 1_555 1_555
Sr16 O2 1_555 1_555
O2 Sr7 1_555 1_555
O21 Sr16 1_555 1_555
O22 Sr16 1_555 1_555
O3 C2 1_555 1_555
O4 C10 1_555 1_555
O5 C11 1_555 1_555
O7 C17 1_555 1_555
O8 C18 1_555 1_555
O9 C24 1_555 1_555
O10 C24 1_555 1_555
C1 C2 1_555 1_555
C2 H1 1_555 1_555
H2 C2 1_555 1_555
C3 O3 1_555 1_555
C4 C3 1_555 1_555
H5 C7 1_555 1_555
C8 C3 1_555 1_555
H6 C8 1_555 1_555
C10 C1 1_555 1_555
H7 C10 1_555 1_555
H8 C10 1_555 1_555
C11 C1 1_555 1_555
H9 C11 1_555 1_555
H10 C11 1_555 1_555
C12 O5 1_555 1_555
C13 H11 1_555 1_555
C14 C13 1_555 1_555
C15 C14 1_555 1_555
H12 C15 1_555 1_555
C16 C12 1_555 1_555
H13 C16 1_555 1_555
C17 C14 1_555 1_555
C18 C1 1_555 1_555
H14 C18 1_555 1_555
H15 C18 1_555 1_555
C19 O8 1_555 1_555
C20 H16 1_555 1_555
C21 C20 1_555 1_555
C22 C21 1_555 1_555
H17 C22 1_555 1_555
C23 C19 1_555 1_555
H18 C23 1_555 1_555
C24 C21 1_555 1_555
H33 C33 1_555 1_555
C34 C33 1_555 1_555
H34 C34 1_555 1_555
C35 O4 1_555 1_555
C36 C35 1_555 1_555
H35 C36 1_555 1_555
C77 C12 1_555 1_555
H75 C77 1_555 1_555
C78 C19 1_555 1_555
H76 C78 1_555 1_555
Sr7 O10 1_555 1_555
Sr8 O7 1_555 1_555
Sr9 O9 1_555 1_555
O10 Sr9 1_555 1_555
C7 C8 1_555 1_555
C13 C77 1_555 1_555
C15 C16 1_555 1_555
C20 C78 1_555 1_555
C22 C23 1_555 1_555
C34 C35 1_555 1_555
O20 C53 1_555 1_555
O23 C61 1_555 1_555
O24 C68 1_555 1_555
O25 C68 1_555 1_555
O26 C69 1_555 1_555
H23 C27 1_555 1_555
H24 C27 1_555 1_555
H25 C27 1_555 1_555
H27 C29 1_555 1_555
H28 C29 1_555 1_555
H29 C29 1_555 1_555
H52 C47 1_555 1_555
C51 O19 1_555 1_555
H55 C51 1_555 1_555
H56 C51 1_555 1_555
C52 C51 1_555 1_555
C53 C52 1_555 1_555
H57 C53 1_555 1_555
H58 C53 1_555 1_555
C54 O20 1_555 1_555
C55 C54 1_555 1_555
H61 C58 1_555 1_555
C59 C54 1_555 1_555
H62 C59 1_555 1_555
C61 C52 1_555 1_555
H63 C61 1_555 1_555
H64 C61 1_555 1_555
C62 O23 1_555 1_555
C63 C62 1_555 1_555
H65 C63 1_555 1_555
C64 C63 1_555 1_555
H66 C64 1_555 1_555
C65 C64 1_555 1_555
C66 C65 1_555 1_555
H67 C66 1_555 1_555
C67 C62 1_555 1_555
H68 C67 1_555 1_555
C68 C65 1_555 1_555
C69 C52 1_555 1_555
Sr7 O25 1_555 1_555
Sr13 O24 1_555 1_555
Sr16 O24 1_555 1_555
O25 Sr16 1_555 1_555
C58 C59 1_555 1_555
C66 C67 1_555 1_555
Sr1 O11 1_555 1_555
Sr8 O12 1_555 1_555
Sr4 O16 1_555 1_555
N1 C25 1_555 1_555
N2 C28 1_555 1_555
N4 C41 1_555 1_555
O11 C25 1_555 1_555
O12 Sr1 1_555 1_555
O13 Sr8 1_555 1_555
O14 Sr1 1_555 1_555
O16 Sr1 1_555 1_555
C25 H19 1_555 1_555
C26 N1 1_555 1_555
H20 C26 1_555 1_555
H21 C26 1_555 1_555
H22 C26 1_555 1_555
C28 O14 1_555 1_555
H26 C28 1_555 1_555
C30 N2 1_555 1_555
H30 C30 1_555 1_555
H31 C30 1_555 1_555
H32 C30 1_555 1_555
C31 O12 1_555 1_555
C32 C31 1_555 1_555
C37 C32 1_555 1_555
H36 C37 1_555 1_555
H42 C40 1_555 1_555
H43 C40 1_555 1_555
C41 O16 1_555 1_555
H44 C41 1_555 1_555
C42 N4 1_555 1_555
H45 C42 1_555 1_555
H46 C42 1_555 1_555
H47 C42 1_555 1_555
C43 N4 1_555 1_555
H49 C43 1_555 1_555
H50 C43 1_555 1_555
O29 Sr1 1_555 1_555
O30 Sr1 1_555 1_555
O33 Sr8 1_555 1_555
O34 Sr1 1_555 1_555
O36 Sr4 1_555 1_555
O37 Sr4 1_555 1_555
O39 Sr4 1_555 1_555
O40 Sr1 1_555 1_555
O42 Sr4 1_555 1_555
O43 Sr4 1_555 1_555
Sr8 O14 1_555 1_555
Sr8 O34 1_555 1_555
Sr4 O30 1_555 1_555
Sr4 O40 1_555 1_555
O13 C31 1_555 1_555
H38 C39 1_555 1_555
H39 C39 1_555 1_555
H40 C39 1_555 1_555
Sr11 O6 1_555 1_555
O42 C76 1_555 1_555
O43 C76 1_555 1_555
C49 C48 1_555 1_555
H53 C49 1_555 1_555
H54 C50 1_555 1_555
C71 C70 1_555 1_555
C72 C71 1_555 1_555
H72 C72 1_555 1_555
C73 C72 1_555 1_555
C74 C73 1_555 1_555
H73 C74 1_555 1_555
C75 C70 1_555 1_555
H74 C75 1_555 1_555
C76 C73 1_555 1_555
Sr11 O42 1_555 1_555
C49 C50 1_555 1_555
C74 C75 1_555 1_555
Sr11 O15 1_555 1_555
N3 C38 1_555 1_555
O18 Sr11 1_555 1_555
C38 O15 1_555 1_555
H37 C38 1_555 1_555
C44 O17 1_555 1_555
C45 C44 1_555 1_555
C46 C45 1_555 1_555
H51 C46 1_555 1_555
O36 Sr11 1_555 1_555
O39 Sr11 1_555 1_555
Sr11 O17 1_555 1_555
O18 C44 1_555 1_555
Sr13 O15_2 1_555 1_555
N3_2 C38_2 1_555 1_555
O18_2 Sr13 1_555 1_555
C38_2 O15_2 1_555 1_555
H37_2 C38_2 1_555 1_555
C44_2 O17_2 1_555 1_555
C45_2 C44_2 1_555 1_555
C46_2 C45_2 1_555 1_555
H51_2 C46_2 1_555 1_555
O31 Sr13 1_555 1_555
O41 Sr13 1_555 1_555
Sr13 O17_2 1_555 1_555
O18_2 C44_2 1_555 1_555
O41 C76_2 1_555 1_555
O28 C76_2 1_555 1_555
C49_2 C48_2 1_555 1_555
H53_2 C49_2 1_555 1_555
H54_2 C50_2 1_555 1_555
C71_2 C70_2 1_555 1_555
C72_2 C71_2 1_555 1_555
H72_2 C72_2 1_555 1_555
C73_2 C72_2 1_555 1_555
C74_2 C73_2 1_555 1_555
H73_2 C74_2 1_555 1_555
C75_2 C70_2 1_555 1_555
H74_2 C75_2 1_555 1_555
C76_2 C73_2 1_555 1_555
Sr16 O41 1_555 1_555
O28 Sr16 1_555 1_555
C49_2 C50_2 1_555 1_555
C74_2 C75_2 1_555 1_555
H38_2 C39_2 1_555 1_555
H39_2 C39_2 1_555 1_555
H40_2 C39_2 1_555 1_555
Sr7 O11_2 1_555 1_555
Sr9 O12_2 1_555 1_555
Sr16 O16_2 1_555 1_555
N1_2 C25_2 1_555 1_555
N2_2 C28_2 1_555 1_555
N4_2 C41_2 1_555 1_555
O11_2 C25_2 1_555 1_555
O12_2 Sr7 1_555 1_555
O13_2 Sr9 1_555 1_555
O14_2 Sr7 1_555 1_555
O16_2 Sr7 1_555 1_555
C25_2 H19_2 1_555 1_555
C26_2 N1_2 1_555 1_555
H20_2 C26_2 1_555 1_555
H21_2 C26_2 1_555 1_555
H22_2 C26_2 1_555 1_555
C28_2 O14_2 1_555 1_555
H26_2 C28_2 1_555 1_555
C30_2 N2_2 1_555 1_555
H30_2 C30_2 1_555 1_555
H31_2 C30_2 1_555 1_555
H32_2 C30_2 1_555 1_555
C31_2 O12_2 1_555 1_555
C32_2 C31_2 1_555 1_555
C37_2 C32_2 1_555 1_555
H36_2 C37_2 1_555 1_555
H42_2 C40_2 1_555 1_555
H43_2 C40_2 1_555 1_555
C41_2 O16_2 1_555 1_555
H44_2 C41_2 1_555 1_555
C42_2 N4_2 1_555 1_555
H45_2 C42_2 1_555 1_555
H46_2 C42_2 1_555 1_555
H47_2 C42_2 1_555 1_555
C43_2 N4_2 1_555 1_555
H49_2 C43_2 1_555 1_555
H50_2 C43_2 1_555 1_555
O32 Sr9 1_555 1_555
Sr9 O14_2 1_555 1_555
O13_2 C31_2 1_555 1_555
O20_2 C53_2 1_555 1_555
O23_2 C61_2 1_555 1_555
O39 C68_2 1_555 1_555
O40 C68_2 1_555 1_555
O26_2 C69_2 1_555 1_555
H23_2 C27_2 1_555 1_555
H24_2 C27_2 1_555 1_555
H25_2 C27_2 1_555 1_555
H27_2 C29_2 1_555 1_555
H28_2 C29_2 1_555 1_555
H29_2 C29_2 1_555 1_555
H52_2 C47_2 1_555 1_555
C51_2 O19_2 1_555 1_555
H55_2 C51_2 1_555 1_555
H56_2 C51_2 1_555 1_555
C52_2 C51_2 1_555 1_555
C53_2 C52_2 1_555 1_555
H57_2 C53_2 1_555 1_555
H58_2 C53_2 1_555 1_555
C54_2 O20_2 1_555 1_555
C55_2 C54_2 1_555 1_555
H61_2 C58_2 1_555 1_555
C59_2 C54_2 1_555 1_555
H62_2 C59_2 1_555 1_555
C61_2 C52_2 1_555 1_555
H63_2 C61_2 1_555 1_555
H64_2 C61_2 1_555 1_555
C62_2 O23_2 1_555 1_555
C63_2 C62_2 1_555 1_555
H65_2 C63_2 1_555 1_555
C64_2 C63_2 1_555 1_555
H66_2 C64_2 1_555 1_555
C65_2 C64_2 1_555 1_555
C66_2 C65_2 1_555 1_555
H67_2 C66_2 1_555 1_555
C67_2 C62_2 1_555 1_555
H68_2 C67_2 1_555 1_555
C68_2 C65_2 1_555 1_555
C69_2 C52_2 1_555 1_555
C58_2 C59_2 1_555 1_555
C66_2 C67_2 1_555 1_555
O3_2 C2_2 1_555 1_555
O4_2 C10_2 1_555 1_555
O5_2 C11_2 1_555 1_555
O32 C17_2 1_555 1_555
O8_2 C18_2 1_555 1_555
O33 C24_2 1_555 1_555
O34 C24_2 1_555 1_555
C1_2 C2_2 1_555 1_555
C2_2 H1_2 1_555 1_555
H2_2 C2_2 1_555 1_555
C3_2 O3_2 1_555 1_555
C4_2 C3_2 1_555 1_555
H5_2 C7_2 1_555 1_555
C8_2 C3_2 1_555 1_555
H6_2 C8_2 1_555 1_555
C10_2 C1_2 1_555 1_555
H7_2 C10_2 1_555 1_555
H8_2 C10_2 1_555 1_555
C11_2 C1_2 1_555 1_555
H9_2 C11_2 1_555 1_555
H10_2 C11_2 1_555 1_555
C12_2 O5_2 1_555 1_555
C13_2 H11_2 1_555 1_555
C14_2 C13_2 1_555 1_555
C15_2 C14_2 1_555 1_555
H12_2 C15_2 1_555 1_555
C16_2 C12_2 1_555 1_555
H13_2 C16_2 1_555 1_555
C17_2 C14_2 1_555 1_555
C18_2 C1_2 1_555 1_555
H14_2 C18_2 1_555 1_555
H15_2 C18_2 1_555 1_555
C19_2 O8_2 1_555 1_555
C20_2 H16_2 1_555 1_555
C21_2 C20_2 1_555 1_555
C22_2 C21_2 1_555 1_555
H17_2 C22_2 1_555 1_555
C23_2 C19_2 1_555 1_555
H18_2 C23_2 1_555 1_555
C24_2 C21_2 1_555 1_555
H33_2 C33_2 1_555 1_555
C34_2 C33_2 1_555 1_555
H34_2 C34_2 1_555 1_555
C35_2 O4_2 1_555 1_555
C36_2 C35_2 1_555 1_555
H35_2 C36_2 1_555 1_555
C77_2 C12_2 1_555 1_555
H75_2 C77_2 1_555 1_555
C78_2 C19_2 1_555 1_555
H76_2 C78_2 1_555 1_555
C7_2 C8_2 1_555 1_555
C13_2 C77_2 1_555 1_555
C15_2 C16_2 1_555 1_555
C20_2 C78_2 1_555 1_555
C22_2 C23_2 1_555 1_555
C34_2 C35_2 1_555 1_555
O29 C9_2 1_555 1_555
O30 C9_2 1_555 1_555
O36 C60_2 1_555 1_555
O37 C60_2 1_555 1_555
H4_2 C5_2 1_555 1_555
C6_2 C5_2 1_555 1_555
C9_2 C6_2 1_555 1_555
H60_2 C56_2 1_555 1_555
C57_2 C56_2 1_555 1_555
C60_2 C57_2 1_555 1_555

#END
