
###############################################################################
#
# This file contains modified crystal structure data generated from the
# MOF subset of the Cambridge Structural Database (CSD) v543 
# hosted by the Cambridge Crystallographic Data Centre (CCDC).
#
# This work is licensed under the Creative Commons
# Attribution-NonCommercial-ShareAlike 4.0 International License.
# To view a copy of this license, visit
# http://creativecommons.org/licenses/by-nc-sa/4.0/
# or send a letter to
# Creative Commons, PO Box 1866, Mountain View, CA 94042, USA.
#
# CIF created using the CSD Python API on 29 September 2022
# The structure has been converted into the P1 space group
# The structure has a 3D framework
# The original CSD entry RERVOC is in the monoclinic crystal system
# The framework has been calculated to contain at least 10.0% void space
# The void calculation uses a probe of radius 1.32A, grid spacing 0.4
# The framework is charged, counterions have been retained in the structure
# H atom positions have been added when not included in the experimental data
#
###############################################################################

data_RERVOC
_chemical_formula_moiety         '(C616 H336 Cl8 Mn24 N64 O200 Ru4 8-)n'
_symmetry_cell_setting           triclinic
_symmetry_space_group_name_H-M   'P 1'
_symmetry_Int_Tables_number      1
_space_group_name_Hall           'P 1'
loop_
_symmetry_equiv_pos_site_id
_symmetry_equiv_pos_as_xyz
1 x,y,z
_cell_length_a                   31.4652(7)
_cell_length_b                   21.1868(6)
_cell_length_c                   33.7591(6)
_cell_angle_alpha                90
_cell_angle_beta                 109.053(2)
_cell_angle_gamma                90
_cell_volume                     21272.5
loop_
_atom_site_label
_atom_site_type_symbol
_atom_site_fract_x
_atom_site_fract_y
_atom_site_fract_z
Ru1 Ru 0.75267(2) 0.65580(3) 0.72455(2)
N1 N 0.7144(2) 0.7167(3) 0.67879(17)
N2 N 0.7154(2) 0.5934(3) 0.6797(2)
N3 N 0.7061(2) 0.6422(3) 0.7554(2)
N4 N 0.7856(3) 0.5908(3) 0.77002(17)
N5 N 0.7916(2) 0.7235(3) 0.76407(16)
N6 N 0.8055(2) 0.6651(3) 0.70102(17)
C1 C 0.7161(3) 0.7805(4) 0.6815(2)
H1 H 0.735837 0.799802 0.706080
C2 C 0.6898(3) 0.8183(5) 0.6495(3)
H2 H 0.691059 0.862897 0.652293
C3 C 0.6614(4) 0.7904(5) 0.6133(3)
H3 H 0.643052 0.815064 0.590638
C4 C 0.6610(3) 0.7235(5) 0.6115(3)
H4 H 0.642262 0.702790 0.587056
C5 C 0.6868(3) 0.6887(4) 0.6439(2)
C6 C 0.6872(3) 0.6195(4) 0.6442(2)
C7 C 0.6612(3) 0.5830(5) 0.6121(3)
H5 H 0.641802 0.601979 0.587346
C8 C 0.6635(4) 0.5172(5) 0.6161(3)
H6 H 0.646331 0.491061 0.593735
C9 C 0.6906(4) 0.4916(5) 0.6521(3)
H7 H 0.692260 0.447051 0.655779
C10 C 0.7156(3) 0.5306(4) 0.6833(3)
H8 H 0.734009 0.512120 0.708768
C11 C 0.6651(3) 0.6656(4) 0.7435(3)
H9 H 0.656949 0.695462 0.721306
C12 C 0.6334(4) 0.6487(6) 0.7617(4)
H10 H 0.604227 0.666811 0.752937
C13 C 0.6461(4) 0.6043(6) 0.7932(4)
H11 H 0.624573 0.589056 0.805179
C14 C 0.6894(4) 0.5819(5) 0.8075(3)
H12 H 0.698763 0.554016 0.830847
C15 C 0.7189(3) 0.6005(4) 0.7875(2)
C16 C 0.7642(4) 0.5757(5) 0.7980(3)
C17 C 0.7859(5) 0.5391(5) 0.8336(3)
H13 H 0.771372 0.531182 0.853697
C18 C 0.8280(5) 0.5146(5) 0.8395(3)
H14 H 0.842303 0.488668 0.863046
C19 C 0.8489(4) 0.5288(5) 0.8102(3)
H15 H 0.877983 0.512502 0.813389
C20 C 0.8275(3) 0.5663(4) 0.7771(3)
H16 H 0.842634 0.575959 0.757632
C21 C 0.7810(3) 0.7543(4) 0.7938(2)
H17 H 0.752336 0.747828 0.796742
C22 C 0.8110(3) 0.7958(4) 0.8208(2)
H18 H 0.802985 0.816212 0.842401
C23 C 0.8508(3) 0.8072(4) 0.8164(3)
H19 H 0.870851 0.836953 0.834000
C24 C 0.8629(3) 0.7747(4) 0.7856(2)
H20 H 0.891535 0.781201 0.782644
C25 C 0.8328(2) 0.7333(3) 0.7597(2)
C26 C 0.8404(2) 0.6993(3) 0.7246(2)
C27 C 0.8809(3) 0.7008(4) 0.7161(2)
H21 H 0.905694 0.724001 0.733755
C28 C 0.8845(3) 0.6688(4) 0.6824(3)
H22 H 0.912016 0.668588 0.676417
C29 C 0.8479(3) 0.6370(4) 0.6573(3)
H23 H 0.849132 0.616864 0.632579
C30 C 0.8093(3) 0.6340(4) 0.6678(2)
H24 H 0.784700 0.609347 0.651157
Ru1_2 Ru 0.24733(2) 0.15580(3) 0.77545(2)
N1_2 N 0.2856(2) 0.2167(3) 0.82121(17)
N2_2 N 0.2846(2) 0.0934(3) 0.8203(2)
N3_2 N 0.2939(2) 0.1422(3) 0.7446(2)
N4_2 N 0.2144(3) 0.0908(3) 0.72998(17)
N5_2 N 0.2084(2) 0.2235(3) 0.73593(16)
N6_2 N 0.1945(2) 0.1651(3) 0.79898(17)
C1_2 C 0.2839(3) 0.2805(4) 0.8185(2)
H1_2 H 0.264163 0.299802 0.793920
C2_2 C 0.3102(3) 0.3183(5) 0.8505(3)
H2_2 H 0.308941 0.362897 0.847707
C3_2 C 0.3386(4) 0.2904(5) 0.8867(3)
H3_2 H 0.356948 0.315064 0.909362
C4_2 C 0.3390(3) 0.2235(5) 0.8885(3)
H4_2 H 0.357738 0.202790 0.912944
C5_2 C 0.3132(3) 0.1887(4) 0.8561(2)
C6_2 C 0.3128(3) 0.1195(4) 0.8558(2)
C7_2 C 0.3388(3) 0.0830(5) 0.8879(3)
H5_2 H 0.358198 0.101979 0.912654
C8_2 C 0.3365(4) 0.0172(5) 0.8839(3)
C10_2 C 0.2844(3) 0.0306(4) 0.8167(3)
H8_2 H 0.265991 0.012120 0.791232
C11_2 C 0.3349(3) 0.1656(4) 0.7565(3)
H9_2 H 0.343051 0.195462 0.778694
C12_2 C 0.3666(4) 0.1487(6) 0.7383(4)
H10_2 H 0.395773 0.166811 0.747063
C13_2 C 0.3539(4) 0.1043(6) 0.7068(4)
H11_2 H 0.375427 0.089056 0.694821
C14_2 C 0.3106(4) 0.0819(5) 0.6925(3)
H12_2 H 0.301237 0.054016 0.669153
C15_2 C 0.2811(3) 0.1005(4) 0.7125(2)
C16_2 C 0.2358(4) 0.0757(5) 0.7020(3)
C17_2 C 0.2141(5) 0.0391(5) 0.6664(3)
H13_2 H 0.228628 0.031182 0.646303
C18_2 C 0.1720(5) 0.0146(5) 0.6605(3)
C19_2 C 0.1511(4) 0.0288(5) 0.6898(3)
H15_2 H 0.122017 0.012502 0.686611
C20_2 C 0.1725(3) 0.0663(4) 0.7229(3)
H16_2 H 0.157366 0.075959 0.742368
C21_2 C 0.2190(3) 0.2543(4) 0.7062(2)
H17_2 H 0.247664 0.247828 0.703258
C22_2 C 0.1890(3) 0.2958(4) 0.6792(2)
H18_2 H 0.197015 0.316212 0.657599
C23_2 C 0.1492(3) 0.3072(4) 0.6836(3)
H19_2 H 0.129149 0.336953 0.666000
C24_2 C 0.1371(3) 0.2747(4) 0.7144(2)
H20_2 H 0.108465 0.281201 0.717356
C25_2 C 0.1672(2) 0.2333(3) 0.7403(2)
C26_2 C 0.1596(2) 0.1993(3) 0.7754(2)
C27_2 C 0.1191(3) 0.2008(4) 0.7839(2)
H21_2 H 0.094306 0.224001 0.766245
C28_2 C 0.1155(3) 0.1688(4) 0.8176(3)
H22_2 H 0.087984 0.168588 0.823583
C29_2 C 0.1521(3) 0.1370(4) 0.8427(3)
H23_2 H 0.150868 0.116864 0.867421
C30_2 C 0.1907(3) 0.1340(4) 0.8322(2)
H24_2 H 0.215300 0.109347 0.848843
H6_2 H 0.353669 0.991061 0.906265
C9_2 C 0.3094(4) 0.9916(5) 0.8479(3)
H7_2 H 0.307740 0.947051 0.844221
H14_2 H 0.157697 0.988668 0.636954
Ru1_3 Ru 0.24733(2) 0.34420(3) 0.27545(2)
N1_3 N 0.2856(2) 0.2833(3) 0.32121(17)
N2_3 N 0.2846(2) 0.4066(3) 0.3203(2)
N3_3 N 0.2939(2) 0.3578(3) 0.2446(2)
N4_3 N 0.2144(3) 0.4092(3) 0.22998(17)
N5_3 N 0.2084(2) 0.2765(3) 0.23593(16)
N6_3 N 0.1945(2) 0.3349(3) 0.29898(17)
C1_3 C 0.2839(3) 0.2195(4) 0.3185(2)
H1_3 H 0.264163 0.200198 0.293920
C2_3 C 0.3102(3) 0.1817(5) 0.3505(3)
H2_3 H 0.308941 0.137103 0.347707
C3_3 C 0.3386(4) 0.2096(5) 0.3867(3)
H3_3 H 0.356948 0.184936 0.409362
C4_3 C 0.3390(3) 0.2765(5) 0.3885(3)
H4_3 H 0.357738 0.297210 0.412944
C5_3 C 0.3132(3) 0.3113(4) 0.3561(2)
C6_3 C 0.3128(3) 0.3805(4) 0.3558(2)
C7_3 C 0.3388(3) 0.4170(5) 0.3879(3)
H5_3 H 0.358198 0.398021 0.412654
C8_3 C 0.3365(4) 0.4828(5) 0.3839(3)
H6_3 H 0.353669 0.508939 0.406265
C9_3 C 0.3094(4) 0.5084(5) 0.3479(3)
H7_3 H 0.307740 0.552949 0.344221
C10_3 C 0.2844(3) 0.4694(4) 0.3167(3)
H8_3 H 0.265991 0.487880 0.291232
C11_3 C 0.3349(3) 0.3344(4) 0.2565(3)
H9_3 H 0.343051 0.304538 0.278694
C12_3 C 0.3666(4) 0.3513(6) 0.2383(4)
H10_3 H 0.395773 0.333189 0.247063
C13_3 C 0.3539(4) 0.3957(6) 0.2068(4)
H11_3 H 0.375427 0.410944 0.194821
C14_3 C 0.3106(4) 0.4181(5) 0.1925(3)
H12_3 H 0.301237 0.445984 0.169153
C15_3 C 0.2811(3) 0.3995(4) 0.2125(2)
C16_3 C 0.2358(4) 0.4243(5) 0.2020(3)
C17_3 C 0.2141(5) 0.4609(5) 0.1664(3)
H13_3 H 0.228628 0.468818 0.146303
C18_3 C 0.1720(5) 0.4854(5) 0.1605(3)
H14_3 H 0.157697 0.511332 0.136954
C19_3 C 0.1511(4) 0.4712(5) 0.1898(3)
H15_3 H 0.122017 0.487498 0.186611
C20_3 C 0.1725(3) 0.4337(4) 0.2229(3)
H16_3 H 0.157366 0.424041 0.242368
C21_3 C 0.2190(3) 0.2457(4) 0.2062(2)
H17_3 H 0.247664 0.252172 0.203258
C22_3 C 0.1890(3) 0.2042(4) 0.1792(2)
H18_3 H 0.197015 0.183788 0.157599
C23_3 C 0.1492(3) 0.1928(4) 0.1836(3)
H19_3 H 0.129149 0.163047 0.166000
C24_3 C 0.1371(3) 0.2253(4) 0.2144(2)
H20_3 H 0.108465 0.218799 0.217356
C25_3 C 0.1672(2) 0.2667(3) 0.2403(2)
C26_3 C 0.1596(2) 0.3007(3) 0.2754(2)
C27_3 C 0.1191(3) 0.2992(4) 0.2839(2)
H21_3 H 0.094306 0.275999 0.266245
C28_3 C 0.1155(3) 0.3312(4) 0.3176(3)
H22_3 H 0.087984 0.331412 0.323583
C29_3 C 0.1521(3) 0.3630(4) 0.3427(3)
H23_3 H 0.150868 0.383136 0.367421
C30_3 C 0.1907(3) 0.3660(4) 0.3322(2)
H24_3 H 0.215300 0.390653 0.348843
H6_4 H 0.646331 0.008939 0.093735
C9_4 C 0.6906(4) 0.0084(5) 0.1521(3)
H7_4 H 0.692260 0.052949 0.155779
H14_4 H 0.842303 0.011332 0.363046
Ru1_4 Ru 0.75267(2) 0.84420(3) 0.22455(2)
N1_4 N 0.7144(2) 0.7833(3) 0.17879(17)
N2_4 N 0.7154(2) 0.9066(3) 0.1797(2)
N3_4 N 0.7061(2) 0.8578(3) 0.2554(2)
N4_4 N 0.7856(3) 0.9092(3) 0.27002(17)
N5_4 N 0.7916(2) 0.7765(3) 0.26407(16)
N6_4 N 0.8055(2) 0.8349(3) 0.20102(17)
C1_4 C 0.7161(3) 0.7195(4) 0.1815(2)
H1_4 H 0.735837 0.700198 0.206080
C2_4 C 0.6898(3) 0.6817(5) 0.1495(3)
H2_4 H 0.691059 0.637103 0.152293
C3_4 C 0.6614(4) 0.7096(5) 0.1133(3)
H3_4 H 0.643052 0.684936 0.090638
C4_4 C 0.6610(3) 0.7765(5) 0.1115(3)
H4_4 H 0.642262 0.797210 0.087056
C5_4 C 0.6868(3) 0.8113(4) 0.1439(2)
C6_4 C 0.6872(3) 0.8805(4) 0.1442(2)
C7_4 C 0.6612(3) 0.9170(5) 0.1121(3)
H5_4 H 0.641802 0.898021 0.087346
C8_4 C 0.6635(4) 0.9828(5) 0.1161(3)
C10_4 C 0.7156(3) 0.9694(4) 0.1833(3)
H8_4 H 0.734009 0.987880 0.208768
C11_4 C 0.6651(3) 0.8344(4) 0.2435(3)
H9_4 H 0.656949 0.804538 0.221306
C12_4 C 0.6334(4) 0.8513(6) 0.2617(4)
H10_4 H 0.604227 0.833189 0.252937
C13_4 C 0.6461(4) 0.8957(6) 0.2932(4)
H11_4 H 0.624573 0.910944 0.305179
C14_4 C 0.6894(4) 0.9181(5) 0.3075(3)
H12_4 H 0.698763 0.945984 0.330847
C15_4 C 0.7189(3) 0.8995(4) 0.2875(2)
C16_4 C 0.7642(4) 0.9243(5) 0.2980(3)
C17_4 C 0.7859(5) 0.9609(5) 0.3336(3)
H13_4 H 0.771372 0.968818 0.353697
C18_4 C 0.8280(5) 0.9854(5) 0.3395(3)
C19_4 C 0.8489(4) 0.9712(5) 0.3102(3)
H15_4 H 0.877983 0.987498 0.313389
C20_4 C 0.8275(3) 0.9337(4) 0.2771(3)
H16_4 H 0.842634 0.924041 0.257632
C21_4 C 0.7810(3) 0.7457(4) 0.2938(2)
H17_4 H 0.752336 0.752172 0.296742
C22_4 C 0.8110(3) 0.7042(4) 0.3208(2)
H18_4 H 0.802985 0.683788 0.342401
C23_4 C 0.8508(3) 0.6928(4) 0.3164(3)
H19_4 H 0.870851 0.663047 0.334000
C24_4 C 0.8629(3) 0.7253(4) 0.2856(2)
H20_4 H 0.891535 0.718799 0.282644
C25_4 C 0.8328(2) 0.7667(3) 0.2597(2)
C26_4 C 0.8404(2) 0.8007(3) 0.2246(2)
C27_4 C 0.8809(3) 0.7992(4) 0.2161(2)
H21_4 H 0.905694 0.775999 0.233755
C28_4 C 0.8845(3) 0.8312(4) 0.1824(3)
H22_4 H 0.912016 0.831412 0.176417
C29_4 C 0.8479(3) 0.8630(4) 0.1573(3)
H23_4 H 0.849132 0.883136 0.132579
C30_4 C 0.8093(3) 0.8660(4) 0.1678(2)
H24_4 H 0.784700 0.890653 0.151157
O51 O 0.0463(3) 0.3288(3) 0.3727(3)
O55 O 0.00871(19) 0.2991(3) 0.27241(17)
O60 O 0.03439(16) 0.1866(3) 0.32287(15)
H84 H 0.0189989 0.207491 0.402718
Mn4 Mn 0.70946(3) 0.50226(5) 0.19684(3)
Mn5 Mn 0.99607(4) 0.26685(6) 0.32789(4)
Cl2 Cl 0.65563(8) 0.50057(14) 0.12833(6)
O31 O 0.7675(3) 0.1809(4) 0.13498(19)
O32 O 0.8491(2) 0.3356(3) 0.10034(17)
O33 O 0.7542(2) 0.4317(3) 0.19337(18)
O34 O 0.8077(2) 0.4393(3) 0.25582(17)
O35 O 0.91904(17) 0.1937(3) 0.25848(18)
O36 O 0.92705(18) 0.2805(3) 0.29687(18)
O49 O 0.9888(3) 0.2186(4) 0.3831(2)
N12 N 0.8067(2) 0.2601(3) 0.11694(17)
C105 C 0.8143(3) 0.3058(5) 0.0136(3)
H49 H 0.836328 0.338248 0.021558
C106 C 0.8031(3) 0.2743(4) 0.0437(2)
C107 C 0.7707(3) 0.2255(4) 0.0323(2)
C108 C 0.7575(3) 0.1924(4) 0.0628(2)
C109 C 0.7241(4) 0.1469(5) 0.0500(3)
H50 H 0.716092 0.123191 0.070409
C110 C 0.7020(4) 0.1355(6) 0.0069(3)
C111 C 0.8222(3) 0.2925(4) 0.0885(2)
C112 C 0.7783(3) 0.2087(4) 0.1077(3)
C113 C 0.8209(2) 0.2835(3) 0.15968(19)
C114 C 0.7999(2) 0.3339(4) 0.1697(2)
H52 H 0.775535 0.352910 0.148567
C115 C 0.8132(3) 0.3584(4) 0.2101(2)
C116 C 0.8478(2) 0.3289(3) 0.2406(2)
H53 H 0.856789 0.344265 0.268551
C117 C 0.8690(2) 0.2785(4) 0.2313(2)
C118 C 0.8562(2) 0.2540(4) 0.1901(2)
H54 H 0.871196 0.218656 0.183451
C119 C 0.9078(3) 0.2492(4) 0.2651(3)
C120 C 0.7894(3) 0.4144(4) 0.2202(2)
Mn12 Mn 0.79007(3) 0.51792(5) 0.28610(3)
Mn21 Mn 0.96923(4) 0.16024(6) 0.23561(4)
O57 O 0.68882(18) 0.4413(3) 0.23806(16)
O62 O 0.76025(15) 0.5670(2) 0.19230(14)
O65 O 0.68135(18) 0.5763(3) 0.22205(15)
H83 H 0.970788 0.179546 0.374063
Mn1 Mn 0.49529(6) 0.21150(11) 0.70466(8)
Mn2 Mn 0.53585(4) 0.32601(7) 0.80611(4)
Mn6 Mn 0.03077(4) 0.66024(6) 0.26439(4)
O1 O 0.5394(2) 0.3515(4) 0.74611(19)
O2 O 0.4894(2) 0.3086(4) 0.6889(2)
O3 O 0.5067(6) 0.6400(8) 0.7048(5)
O4 O 0.5132(6) 0.6010(8) 0.7602(5)
O5 O 0.4181(2) 0.4820(4) 0.57424(18)
O6 O 0.34679(19) 0.4824(3) 0.67148(14)
O7 O 0.21026(18) 0.4647(3) 0.41308(14)
O8 O 0.13708(19) 0.4767(4) 0.50865(17)
O9 O 0.1099(3) 0.6345(3) 0.3468(3)
O10 O 0.0379(3) 0.6065(4) 0.3177(2)
O13 O 0.4526(3) 0.1645(4) 0.6583(2)
O14 O 0.3940(3) 0.2044(4) 0.6091(3)
O17 O 0.2556(2) 0.0016(3) 0.58909(15)
O18 O 0.3334(2) 0.0310(4) 0.49823(18)
O25 O 0.5624(3) 0.2392(4) 0.7982(3)
O26 O 0.5594(3) 0.1927(4) 0.7389(2)
O27 O 0.68882(18) 0.0587(3) 0.73806(16)
O28 O 0.74483(18) 0.0450(3) 0.79872(18)
O29 O 0.6625(3) 0.1147(4) 0.92051(19)
O30 O 0.7538(3) 0.2542(4) 0.88666(19)
O50 O 0.5283(3) 0.2843(5) 0.8635(2)
N7 N 0.3825(2) 0.4832(4) 0.62263(19)
N8 N 0.1740(2) 0.4746(3) 0.46114(16)
N9 N 0.2942(2) 0.0172(3) 0.54366(17)
N11 N 0.7096(2) 0.1826(3) 0.90439(19)
C31 C 0.5058(3) 0.3553(5) 0.7117(3)
C32 C 0.5101(9) 0.5866(9) 0.7243(6)
C33 C 0.4861(3) 0.5297(6) 0.7065(3)
C34 C 0.5058(3) 0.4722(6) 0.7201(3)
H25 H 0.533030 0.469356 0.743061
C35 C 0.4847(3) 0.4186(5) 0.6992(2)
C36 C 0.4447(3) 0.4223(5) 0.6676(2)
H26 H 0.430547 0.385106 0.653833
C37 C 0.4251(3) 0.4798(5) 0.6558(2)
C38 C 0.4447(3) 0.5356(5) 0.6743(3)
H27 H 0.430883 0.575468 0.665790
C39 C 0.3828(3) 0.4804(5) 0.5813(2)
C40 C 0.3389(3) 0.4766(4) 0.5487(2)
C41 C 0.2990(3) 0.4756(4) 0.5583(2)
C42 C 0.2999(3) 0.4779(4) 0.6005(2)
C43 C 0.3425(3) 0.4813(4) 0.6342(2)
C44 C 0.3370(3) 0.4727(5) 0.5063(2)
H28 H 0.363911 0.472320 0.499368
C45 C 0.2946(3) 0.4693(4) 0.4743(2)
H29 H 0.293151 0.466344 0.445833
C46 C 0.2564(3) 0.4703(4) 0.4841(2)
C47 C 0.2571(3) 0.4727(4) 0.5258(2)
C48 C 0.2168(3) 0.4746(4) 0.5359(2)
C49 C 0.2185(3) 0.4758(5) 0.5776(2)
H30 H 0.191467 0.474726 0.584291
C50 C 0.2595(3) 0.4784(4) 0.6094(2)
H31 H 0.260280 0.480640 0.637747
C51 C 0.2124(3) 0.4691(4) 0.4495(2)
C52 C 0.1724(3) 0.4755(4) 0.5025(2)
C53 C 0.1317(2) 0.4791(3) 0.42746(19)
C54 C 0.1222(3) 0.5353(4) 0.4042(2)
H32 H 0.142554 0.569648 0.412135
C55 C 0.0839(2) 0.5415(4) 0.3700(2)
C56 C 0.0551(3) 0.4901(5) 0.3602(2)
H33 H 0.028044 0.493978 0.337254
C57 C 0.0633(3) 0.4342(5) 0.3814(3)
C58 C 0.1026(3) 0.4285(4) 0.4160(3)
H34 H 0.109214 0.390156 0.431437
C59 C 0.0764(3) 0.5979(4) 0.3425(2)
C60 C 0.0299(4) 0.3835(5) 0.3647(4)
C61 C 0.4140(4) 0.1612(5) 0.6289(3)
C63 C 0.3945(3) 0.0952(4) 0.6188(2)
C64 C 0.4172(3) 0.0420(4) 0.6402(2)
H35 H 0.445669 0.046923 0.661279
C67 C 0.3359(3) 0.0270(4) 0.5783(2)
C68 C 0.3533(3) 0.0868(4) 0.5869(2)
H37 H 0.337618 0.121974 0.571481
C69 C 0.2980(3) 0.0186(5) 0.5028(2)
C70 C 0.2559(3) 0.0061(4) 0.4674(2)
C73 C 0.2549(3) 0.0035(4) 0.5523(2)
C74 C 0.2575(3) 0.0054(4) 0.4269(2)
H38 H 0.285140 0.013111 0.422040
H42 H 0.030893 0.027639 0.331477
C91 C 0.5785(3) 0.2064(5) 0.7759(3)
C92 C 0.7088(3) 0.0682(4) 0.7765(2)
C93 C 0.6861(2) 0.1146(4) 0.7977(2)
C94 C 0.6449(3) 0.1402(4) 0.7769(2)
H45 H 0.630232 0.130161 0.748282
C95 C 0.6242(3) 0.1810(4) 0.7976(3)
C96 C 0.6457(3) 0.1949(4) 0.8399(3)
H46 H 0.632033 0.222404 0.854429
C97 C 0.6872(3) 0.1683(4) 0.8603(2)
C98 C 0.7079(3) 0.1278(4) 0.8403(2)
H47 H 0.736206 0.109408 0.854993
C99 C 0.7436(3) 0.2285(5) 0.9144(2)
C100 C 0.7635(3) 0.2448(4) 0.9595(2)
C101 C 0.7500(3) 0.2109(4) 0.9889(2)
C102 C 0.7162(4) 0.1646(4) 0.9774(2)
C103 C 0.6939(4) 0.1497(5) 0.9331(3)
C104 C 0.7943(3) 0.2918(5) 0.9713(3)
H48 H 0.802272 0.315037 0.950717
H51 H 0.677047 0.107472 0.998433
Mn18 Mn 0.00393(4) 0.76685(6) 0.17211(4)
O52 O 0.5351(2) 0.4303(3) 0.8260(2)
O53 O 0.5974(2) 0.3763(3) 0.8462(2)
O54 O 0.0346(3) 0.5769(3) 0.2301(2)
O56 O 0.03076(19) 0.7562(3) 0.28786(19)
O58 O 0.8077(2) 0.0607(3) 0.75582(17)
O59 O 0.08096(17) 0.6937(3) 0.24152(18)
O63 O 0.4583(2) 0.2377(4) 0.7455(2)
O64 O 0.46445(18) 0.3269(3) 0.78156(17)
H81 H 0.548104 0.246757 0.871898
H82 H 0.536873 0.315976 0.88643
Mn3 Mn 0.79007(3) 0.98208(5) 0.78610(3)
Cl1 Cl 0.84670(7) 0.97405(13) 0.85288(5)
O15 O 0.4649(2) 0.9303(3) 0.6740(2)
O16 O 0.4026(2) 0.8763(3) 0.6538(2)
O19 O 0.0605(2) 0.9361(4) 0.41822(17)
O20 O 0.13835(18) 0.9693(3) 0.32821(15)
N10 N 0.0984(2) 0.9569(3) 0.37305(17)
C62 C 0.4236(3) 0.9254(5) 0.6539(2)
C65 C 0.3987(3) 0.9832(5) 0.6311(2)
C66 C 0.3578(3) 0.9744(4) 0.5996(2)
H36 H 0.345262 0.933431 0.592877
C71 C 0.2157(3) 0.9910(4) 0.4754(2)
C72 C 0.2143(3) 0.9902(4) 0.5169(2)
C75 C 0.2188(3) 0.9936(4) 0.3934(2)
H39 H 0.219913 0.994672 0.365624
C76 C 0.1791(3) 0.9802(4) 0.4001(2)
C77 C 0.1771(2) 0.9783(3) 0.4414(2)
C78 C 0.1362(3) 0.9646(4) 0.4490(2)
C79 C 0.1349(3) 0.9642(4) 0.4890(2)
H40 H 0.107304 0.955627 0.493759
C80 C 0.1733(3) 0.9763(4) 0.5229(2)
H41 H 0.171693 0.975100 0.550563
C81 C 0.1384(3) 0.9685(4) 0.3641(2)
C82 C 0.0954(3) 0.9505(4) 0.4133(2)
C83 C 0.0582(2) 0.9414(3) 0.3373(2)
C84 C 0.0268(2) 0.9861(4) 0.3203(2)
C87 C 0.0164(3) 0.8664(4) 0.2865(2)
C88 C 0.0542(2) 0.8788(4) 0.3216(2)
H44 H 0.075721 0.847095 0.334191
C90 C 0.0131(2) 0.8014(4) 0.2661(2)
Mn9 Mn 0.46415(4) 0.82601(7) 0.69389(4)
Mn15 Mn 0.70946(3) 0.99774(5) 0.69684(3)
O61 O 0.82059(16) 0.9281(3) 0.75019(13)
O66 O 0.74016(18) 0.9123(3) 0.77983(17)
O11 O 0.9892(3) 0.3935(5) 0.3456(3)
O21 O 0.9654(3) 0.0769(3) 0.2699(2)
O22 O 0.9140(2) 0.0006(4) 0.2494(2)
O37 O 0.96091(16) 0.6587(3) 0.23985(15)
O38 O 0.96561(16) 0.6866(3) 0.17713(15)
O39 O 0.82059(16) 0.5719(3) 0.25019(13)
O41 O 0.84509(18) 0.6177(3) 0.05801(14)
O42 O 0.7635(2) 0.7569(3) 0.10615(14)
N13 N 0.8033(2) 0.6855(3) 0.08229(15)
C89 C 0.9534(3) 0.0206(4) 0.2673(2)
C121 C 0.9440(2) 0.6686(4) 0.2012(2)
C122 C 0.8002(2) 0.5830(3) 0.2123(2)
C123 C 0.8947(2) 0.6580(3) 0.1817(2)
C124 C 0.8710(2) 0.6277(3) 0.20513(19)
H55 H 0.886584 0.614931 0.233114
C125 C 0.8247(2) 0.6159(3) 0.18773(18)
C126 C 0.8031(2) 0.6355(3) 0.14713(19)
H56 H 0.771793 0.627714 0.134571
C127 C 0.8264(2) 0.6662(3) 0.12460(19)
C128 C 0.8725(2) 0.6765(3) 0.1414(2)
H57 H 0.888385 0.695975 0.125083
C129 C 0.8146(2) 0.6562(4) 0.0497(2)
C130 C 0.7890(2) 0.6737(3) 0.00692(19)
C132 C 0.7434(3) 0.7479(4) 0.0323(2)
C133 C 0.7700(2) 0.7317(4) 0.07648(19)
C140 C 0.7107(3) 0.7919(4) 0.0247(2)
H61 H 0.703504 0.810360 0.047425
O43 O 0.72716(19) 0.7075(3) 0.85158(14)
O44 O 0.64567(19) 0.8462(3) 0.89940(16)
O45 O 0.5417(2) 0.7377(4) 0.7545(2)
O46 O 0.53555(18) 0.8269(3) 0.71844(17)
O47 O 0.68135(18) 0.9237(3) 0.72205(15)
N14 N 0.6874(2) 0.7777(3) 0.87600(17)
C131 C 0.7540(2) 0.7184(3) 0.99947(18)
C134 C 0.7995(2) 0.6491(4) 0.97403(19)
H58 H 0.823616 0.619836 0.979386
C135 C 0.7757(2) 0.6657(4) 0.93248(19)
H59 H 0.782921 0.646731 0.909956
C136 C 0.7421(2) 0.7095(3) 0.92477(18)
C137 C 0.7307(2) 0.7372(3) 0.95795(19)
C138 C 0.6967(3) 0.7834(4) 0.9502(2)
C139 C 0.6873(3) 0.8104(5) 0.9836(2)
H60 H 0.664626 0.841890 0.978630
C141 C 0.7191(2) 0.7295(4) 0.8811(2)
C142 C 0.6738(2) 0.8057(4) 0.90779(19)
C143 C 0.6664(3) 0.8003(4) 0.8338(2)
C144 C 0.6924(2) 0.8382(3) 0.8177(2)
H62 H 0.722187 0.849545 0.834111
C145 C 0.6734(2) 0.8598(4) 0.7760(2)
C146 C 0.6301(2) 0.8436(3) 0.75281(19)
H63 H 0.617317 0.858073 0.724791
C147 C 0.6053(2) 0.8058(4) 0.7709(2)
C148 C 0.6242(2) 0.7830(4) 0.8117(2)
H64 H 0.607563 0.755940 0.823627
C149 C 0.7005(2) 0.9013(3) 0.7578(2)
C150 C 0.5568(2) 0.7895(5) 0.7455(3)
Mn7 Mn 0.50471(6) 0.71150(11) 0.79534(8)
O23 O 0.99129(19) 0.7991(3) 0.22759(17)
C85 C 0.9886(2) 0.9720(4) 0.2867(2)
C86 C 0.9843(3) 0.9113(4) 0.2697(2)
H43 H 0.958788 0.901105 0.246216
O37_2 O 0.03909(16) 0.1587(3) 0.26015(15)
O39_2 O 0.17941(16) 0.0719(3) 0.24981(13)
O40 O 0.23975(15) 0.0670(2) 0.30770(14)
O41_2 O 0.15491(18) 0.1177(3) 0.44199(14)
O42_2 O 0.2365(2) 0.2569(3) 0.39385(14)
O43_2 O 0.27284(19) 0.2075(3) 0.64842(14)
O44_2 O 0.35433(19) 0.3462(3) 0.60060(16)
O47_2 O 0.31865(18) 0.4237(3) 0.77795(15)
O48 O 0.25984(18) 0.4123(3) 0.72017(17)
N13_2 N 0.1967(2) 0.1855(3) 0.41771(15)
N14_2 N 0.3126(2) 0.2777(3) 0.62400(17)
C121_2 C 0.0560(2) 0.1686(4) 0.2988(2)
C122_2 C 0.1998(2) 0.0830(3) 0.2877(2)
C123_2 C 0.1053(2) 0.1580(3) 0.3183(2)
C124_2 C 0.1290(2) 0.1277(3) 0.29487(19)
H55_2 H 0.113416 0.114931 0.266886
C125_2 C 0.1753(2) 0.1159(3) 0.31227(18)
C126_2 C 0.1969(2) 0.1355(3) 0.35287(19)
H56_2 H 0.228207 0.127714 0.365429
C127_2 C 0.1736(2) 0.1662(3) 0.37540(19)
C128_2 C 0.1275(2) 0.1765(3) 0.3586(2)
H57_2 H 0.111615 0.195975 0.374917
C129_2 C 0.1854(2) 0.1562(4) 0.4503(2)
C130_2 C 0.2110(2) 0.1737(3) 0.49308(19)
C131_2 C 0.2460(2) 0.2184(3) 0.50053(18)
C132_2 C 0.2566(3) 0.2479(4) 0.4677(2)
C133_2 C 0.2300(2) 0.2317(4) 0.42352(19)
C134_2 C 0.2005(2) 0.1491(4) 0.52597(19)
H58_2 H 0.176384 0.119836 0.520614
C135_2 C 0.2243(2) 0.1657(4) 0.56752(19)
H59_2 H 0.217079 0.146731 0.590044
C136_2 C 0.2579(2) 0.2095(3) 0.57523(18)
C137_2 C 0.2693(2) 0.2372(3) 0.54205(19)
C138_2 C 0.3033(3) 0.2834(4) 0.5498(2)
C139_2 C 0.3127(3) 0.3104(5) 0.5164(2)
H60_2 H 0.335374 0.341890 0.521370
C140_2 C 0.2893(3) 0.2919(4) 0.4753(2)
H61_2 H 0.296496 0.310360 0.452575
C141_2 C 0.2809(2) 0.2295(4) 0.6189(2)
C142_2 C 0.3262(2) 0.3057(4) 0.59221(19)
C143_2 C 0.3336(3) 0.3003(4) 0.6662(2)
C144_2 C 0.3076(2) 0.3382(3) 0.6823(2)
H62_2 H 0.277813 0.349545 0.665889
C145_2 C 0.3266(2) 0.3598(4) 0.7240(2)
C146_2 C 0.3699(2) 0.3436(3) 0.74719(19)
H63_2 H 0.382683 0.358073 0.775209
C147_2 C 0.3947(2) 0.3058(4) 0.7291(2)
C148_2 C 0.3758(2) 0.2830(4) 0.6883(2)
H64_2 H 0.392437 0.255940 0.676373
C149_2 C 0.2995(2) 0.4013(3) 0.7422(2)
C150_2 C 0.4432(2) 0.2895(5) 0.7545(3)
Mn10 Mn 0.20993(3) 0.48208(5) 0.71390(3)
Mn11 Mn 0.20993(3) 0.01792(5) 0.21390(3)
Mn13 Mn 0.29054(3) 0.00226(5) 0.30316(3)
Mn14 Mn 0.29054(3) 0.49774(5) 0.80316(3)
O11_2 O 0.0108(3) 0.8935(5) 0.1544(3)
O22_2 O 0.0860(2) 0.5006(4) 0.2506(2)
C85_2 C 0.0114(2) 0.4720(4) 0.2133(2)
C86_2 C 0.0157(3) 0.4113(4) 0.2303(2)
H43_2 H 0.041212 0.401105 0.253784
C89_2 C 0.0466(3) 0.5206(4) 0.2327(2)
O9_2 O 0.8901(3) 0.1345(3) 0.1532(3)
O10_2 O 0.9621(3) 0.1065(4) 0.1823(2)
C54_2 C 0.8778(3) 0.0353(4) 0.0958(2)
H32_2 H 0.857446 0.069648 0.087865
C55_2 C 0.9161(2) 0.0415(4) 0.1300(2)
C59_2 C 0.9236(3) 0.0979(4) 0.1575(2)
O56_2 O 0.96924(19) 0.2562(3) 0.21214(19)
Cl2_2 Cl 0.34437(8) 0.00057(14) 0.37167(6)
O3_2 O 0.4933(6) 0.1400(8) 0.7952(5)
O4_2 O 0.4868(6) 0.1010(8) 0.7398(5)
C32_2 C 0.4899(9) 0.0866(9) 0.7757(6)
C33_2 C 0.5139(3) 0.0297(6) 0.7935(3)
C38_2 C 0.5553(3) 0.0356(5) 0.8257(3)
H27_2 H 0.569117 0.075468 0.834210
O65_2 O 0.31865(18) 0.0763(3) 0.27795(15)
O7_2 O 0.78974(18) 0.9647(3) 0.08692(14)
O12 O 0.9537(3) 0.8288(3) 0.1273(3)
O18_2 O 0.6666(2) 0.5310(4) 0.00177(18)
O19_2 O 0.9395(2) 0.4361(4) 0.08178(17)
O20_2 O 0.86165(18) 0.4693(3) 0.17179(15)
N8_2 N 0.8260(2) 0.9746(3) 0.03886(16)
N10_2 N 0.9016(2) 0.4569(3) 0.12695(17)
H28_2 H 0.636089 0.972320 0.000632
C45_2 C 0.7054(3) 0.9693(4) 0.0257(2)
H29_2 H 0.706849 0.966344 0.054167
C46_2 C 0.7436(3) 0.9703(4) 0.0159(2)
C51_2 C 0.7876(3) 0.9691(4) 0.0505(2)
C53_2 C 0.8683(2) 0.9791(3) 0.07254(19)
C56_2 C 0.9449(3) 0.9901(5) 0.1398(2)
H33_2 H 0.971956 0.993978 0.162746
C57_2 C 0.9367(3) 0.9342(5) 0.1186(3)
C58_2 C 0.8974(3) 0.9285(4) 0.0840(3)
H34_2 H 0.890786 0.890156 0.068563
C60_2 C 0.9701(4) 0.8835(5) 0.1353(4)
C70_2 C 0.7441(3) 0.5061(4) 0.0326(2)
C71_2 C 0.7843(3) 0.4910(4) 0.0246(2)
C74_2 C 0.7425(3) 0.5054(4) 0.0731(2)
H38_2 H 0.714860 0.513111 0.077960
C75_2 C 0.7812(3) 0.4936(4) 0.1066(2)
H39_2 H 0.780087 0.494672 0.134376
C76_2 C 0.8209(3) 0.4802(4) 0.0999(2)
C77_2 C 0.8229(2) 0.4783(3) 0.0586(2)
C78_2 C 0.8638(3) 0.4646(4) 0.0510(2)
C79_2 C 0.8651(3) 0.4642(4) 0.0110(2)
H40_2 H 0.892696 0.455627 0.006241
C81_2 C 0.8616(3) 0.4685(4) 0.1359(2)
C82_2 C 0.9046(3) 0.4505(4) 0.0867(2)
C83_2 C 0.9418(2) 0.4414(3) 0.1627(2)
C84_2 C 0.9732(2) 0.4861(4) 0.1797(2)
H42_2 H 0.969107 0.527639 0.168523
C87_2 C 0.9836(3) 0.3664(4) 0.2135(2)
C88_2 C 0.9458(2) 0.3788(4) 0.1784(2)
H44_2 H 0.924279 0.347095 0.165809
C90_2 C 0.9869(2) 0.3014(4) 0.2339(2)
Cl1_2 Cl 0.15330(7) 0.47405(13) 0.64712(5)
O1_2 O 0.4606(2) 0.8515(4) 0.75389(19)
O2_2 O 0.5106(2) 0.8086(4) 0.8111(2)
O5_2 O 0.5819(2) 0.9820(4) 0.92576(18)
O6_2 O 0.65321(19) 0.9824(3) 0.82852(14)
O8_2 O 0.86292(19) 0.9767(4) 0.99135(17)
O13_2 O 0.5474(3) 0.6645(4) 0.8417(2)
O14_2 O 0.6060(3) 0.7044(4) 0.8909(3)
O17_2 O 0.7444(2) 0.5016(3) 0.91091(15)
O25_2 O 0.4376(3) 0.7392(4) 0.7018(3)
O26_2 O 0.4406(3) 0.6927(4) 0.7611(2)
O27_2 O 0.31118(18) 0.5587(3) 0.76194(16)
O28_2 O 0.25517(18) 0.5450(3) 0.70128(18)
O29_2 O 0.3375(3) 0.6147(4) 0.57949(19)
O30_2 O 0.2462(3) 0.7542(4) 0.61334(19)
O31_2 O 0.2325(3) 0.6809(4) 0.36502(19)
O32_2 O 0.1509(2) 0.8356(3) 0.39966(17)
O33_2 O 0.2458(2) 0.9317(3) 0.30663(18)
O34_2 O 0.1923(2) 0.9393(3) 0.24418(17)
O36_2 O 0.07295(18) 0.7805(3) 0.20313(18)
O49_2 O 0.0112(3) 0.7186(4) 0.1169(2)
O50_2 O 0.4717(3) 0.7843(5) 0.6365(2)
N7_2 N 0.6175(2) 0.9832(4) 0.87737(19)
N9_2 N 0.7058(2) 0.5172(3) 0.95634(17)
N11_2 N 0.2904(2) 0.6826(3) 0.59561(19)
N12_2 N 0.1933(2) 0.7601(3) 0.38306(17)
C31_2 C 0.4942(3) 0.8553(5) 0.7883(3)
C34_2 C 0.4942(3) 0.9722(6) 0.7799(3)
H25_2 H 0.466970 0.969356 0.756939
C35_2 C 0.5153(3) 0.9186(5) 0.8008(2)
C36_2 C 0.5553(3) 0.9223(5) 0.8324(2)
H26_2 H 0.569453 0.885106 0.846167
C37_2 C 0.5749(3) 0.9798(5) 0.8442(2)
C39_2 C 0.6172(3) 0.9804(5) 0.9187(2)
C40_2 C 0.6611(3) 0.9766(4) 0.9513(2)
C41_2 C 0.7010(3) 0.9756(4) 0.9417(2)
C42_2 C 0.7001(3) 0.9779(4) 0.8995(2)
C43_2 C 0.6575(3) 0.9813(4) 0.8658(2)
C44_2 C 0.6630(3) 0.9727(5) 0.9937(2)
C47_2 C 0.7429(3) 0.9727(4) 0.9742(2)
C48_2 C 0.7832(3) 0.9746(4) 0.9641(2)
C49_2 C 0.7815(3) 0.9758(5) 0.9224(2)
H30_2 H 0.808533 0.974726 0.915709
C50_2 C 0.7405(3) 0.9784(4) 0.8906(2)
H31_2 H 0.739720 0.980640 0.862253
C52_2 C 0.8276(3) 0.9755(4) 0.9975(2)
C61_2 C 0.5860(4) 0.6612(5) 0.8711(3)
C62_2 C 0.5764(3) 0.4254(5) 0.8461(2)
C63_2 C 0.6055(3) 0.5952(4) 0.8812(2)
C64_2 C 0.5828(3) 0.5420(4) 0.8598(2)
H35_2 H 0.554331 0.546923 0.838721
C65_2 C 0.6013(3) 0.4832(5) 0.8689(2)
C66_2 C 0.6422(3) 0.4744(4) 0.9004(2)
H36_2 H 0.654738 0.433431 0.907123
C67_2 C 0.6641(3) 0.5270(4) 0.9217(2)
C68_2 C 0.6467(3) 0.5868(4) 0.9131(2)
H37_2 H 0.662382 0.621974 0.928519
C69_2 C 0.7020(3) 0.5186(5) 0.9972(2)
C72_2 C 0.7857(3) 0.4902(4) 0.9831(2)
C73_2 C 0.7451(3) 0.5035(4) 0.9477(2)
C80_2 C 0.8267(3) 0.4763(4) 0.9771(2)
H41_2 H 0.828307 0.475100 0.949437
C91_2 C 0.4215(3) 0.7064(5) 0.7241(3)
C92_2 C 0.2912(3) 0.5682(4) 0.7235(2)
C93_2 C 0.3139(2) 0.6146(4) 0.7023(2)
C94_2 C 0.3551(3) 0.6402(4) 0.7231(2)
H45_2 H 0.369768 0.630161 0.751718
C95_2 C 0.3758(3) 0.6810(4) 0.7024(3)
C96_2 C 0.3543(3) 0.6949(4) 0.6601(3)
H46_2 H 0.367967 0.722404 0.645571
C97_2 C 0.3128(3) 0.6683(4) 0.6397(2)
C98_2 C 0.2921(3) 0.6278(4) 0.6597(2)
H47_2 H 0.263794 0.609408 0.645007
C99_2 C 0.2564(3) 0.7285(5) 0.5856(2)
C100_2 C 0.2365(3) 0.7448(4) 0.5405(2)
C101_2 C 0.2500(3) 0.7109(4) 0.5111(2)
C102_2 C 0.2838(4) 0.6646(4) 0.5226(2)
C103_2 C 0.3061(4) 0.6497(5) 0.5669(3)
C104_2 C 0.2057(3) 0.7918(5) 0.5287(3)
H48_2 H 0.197728 0.815037 0.549283
C105_2 C 0.1857(3) 0.8058(5) 0.4864(3)
H49_2 H 0.163672 0.838248 0.478442
C106_2 C 0.1969(3) 0.7743(4) 0.4563(2)
C107_2 C 0.2293(3) 0.7255(4) 0.4677(2)
C108_2 C 0.2425(3) 0.6924(4) 0.4372(2)
C109_2 C 0.2759(4) 0.6469(5) 0.4500(3)
H50_2 H 0.283908 0.623191 0.429591
C110_2 C 0.2980(4) 0.6355(6) 0.4931(3)
H51_2 H 0.322953 0.607472 0.501567
C111_2 C 0.1778(3) 0.7925(4) 0.4115(2)
C112_2 C 0.2217(3) 0.7087(4) 0.3923(3)
C113_2 C 0.1791(2) 0.7835(3) 0.34032(19)
C114_2 C 0.2001(2) 0.8339(4) 0.3303(2)
H52_2 H 0.224465 0.852910 0.351433
C115_2 C 0.1868(3) 0.8584(4) 0.2899(2)
C116_2 C 0.1522(2) 0.8289(3) 0.2594(2)
H53_2 H 0.143211 0.844265 0.231449
C117_2 C 0.1310(2) 0.7785(4) 0.2687(2)
C118_2 C 0.1438(2) 0.7540(4) 0.3099(2)
H54_2 H 0.128804 0.718656 0.316549
C119_2 C 0.0922(3) 0.7492(4) 0.2349(3)
C120_2 C 0.2106(3) 0.9144(4) 0.2798(2)
O57_2 O 0.31118(18) 0.9413(3) 0.26194(16)
O58_2 O 0.1923(2) 0.5607(3) 0.74418(17)
O61_2 O 0.17941(16) 0.4281(3) 0.74981(13)
H81_2 H 0.451896 0.746757 0.628102
H82_2 H 0.463127 0.815976 0.61357
H83_2 H 0.0292123 0.679546 0.125937
H84_2 H 0.981001 0.707491 0.0972823
O23_2 O 0.00871(19) 0.2009(3) 0.77241(17)
C85_3 C 0.0114(2) 0.0280(4) 0.7133(2)
C86_3 C 0.0157(3) 0.0887(4) 0.7303(2)
H43_3 H 0.041212 0.098895 0.753784
O43_3 O 0.27284(19) 0.2925(3) 0.14842(14)
O44_3 O 0.35433(19) 0.1538(3) 0.10060(16)
O45_2 O 0.4583(2) 0.2623(4) 0.2455(2)
O46_2 O 0.46445(18) 0.1731(3) 0.28156(17)
O48_2 O 0.25984(18) 0.0877(3) 0.22017(17)
N14_3 N 0.3126(2) 0.2223(3) 0.12400(17)
C131_3 C 0.2460(2) 0.2816(3) 0.00053(18)
C134_3 C 0.2005(2) 0.3509(4) 0.02597(19)
H58_3 H 0.176384 0.380164 0.020614
C135_3 C 0.2243(2) 0.3343(4) 0.06752(19)
H59_3 H 0.217079 0.353269 0.090044
C136_3 C 0.2579(2) 0.2905(3) 0.07523(18)
C137_3 C 0.2693(2) 0.2628(3) 0.04205(19)
C138_3 C 0.3033(3) 0.2166(4) 0.0498(2)
C139_3 C 0.3127(3) 0.1896(5) 0.0164(2)
H60_3 H 0.335374 0.158110 0.021370
C141_3 C 0.2809(2) 0.2705(4) 0.1189(2)
C142_3 C 0.3262(2) 0.1943(4) 0.09221(19)
C143_3 C 0.3336(3) 0.1997(4) 0.1662(2)
C144_3 C 0.3076(2) 0.1618(3) 0.1823(2)
H62_3 H 0.277813 0.150455 0.165889
C145_3 C 0.3266(2) 0.1402(4) 0.2240(2)
C146_3 C 0.3699(2) 0.1564(3) 0.24719(19)
H63_3 H 0.382683 0.141927 0.275209
C147_3 C 0.3947(2) 0.1942(4) 0.2291(2)
C148_3 C 0.3758(2) 0.2170(4) 0.1883(2)
H64_3 H 0.392437 0.244060 0.176373
C149_3 C 0.2995(2) 0.0987(3) 0.2422(2)
C150_3 C 0.4432(2) 0.2105(5) 0.2545(3)
Mn7_2 Mn 0.49529(6) 0.28850(11) 0.20466(8)
Mn8 Mn 0.53585(4) 0.17399(7) 0.30611(4)
O11_3 O 0.0108(3) 0.6065(5) 0.6544(3)
O21_2 O 0.0346(3) 0.9231(3) 0.7301(2)
O22_3 O 0.0860(2) 0.9994(4) 0.7506(2)
O37_3 O 0.03909(16) 0.3413(3) 0.76015(15)
O38_2 O 0.03439(16) 0.3134(3) 0.82287(15)
O40_2 O 0.23975(15) 0.4330(2) 0.80770(14)
O41_3 O 0.15491(18) 0.3823(3) 0.94199(14)
O42_3 O 0.2365(2) 0.2431(3) 0.89385(14)
N13_3 N 0.1967(2) 0.3145(3) 0.91771(15)
C89_3 C 0.0466(3) 0.9794(4) 0.7327(2)
C121_3 C 0.0560(2) 0.3314(4) 0.7988(2)
C122_3 C 0.1998(2) 0.4170(3) 0.7877(2)
C123_3 C 0.1053(2) 0.3420(3) 0.8183(2)
C124_3 C 0.1290(2) 0.3723(3) 0.79487(19)
H55_3 H 0.113416 0.385069 0.766886
C125_3 C 0.1753(2) 0.3841(3) 0.81227(18)
C126_3 C 0.1969(2) 0.3645(3) 0.85287(19)
H56_3 H 0.228207 0.372286 0.865429
C127_3 C 0.1736(2) 0.3338(3) 0.87540(19)
C128_3 C 0.1275(2) 0.3235(3) 0.8586(2)
H57_3 H 0.111615 0.304025 0.874917
C129_3 C 0.1854(2) 0.3438(4) 0.9503(2)
C130_3 C 0.2110(2) 0.3263(3) 0.99308(19)
C132_3 C 0.2566(3) 0.2521(4) 0.9677(2)
C133_3 C 0.2300(2) 0.2683(4) 0.92352(19)
C140_3 C 0.2893(3) 0.2081(4) 0.9753(2)
H61_3 H 0.296496 0.189640 0.952575
Mn16 Mn 0.00393(4) 0.73315(6) 0.67211(4)
Mn20 Mn 0.03077(4) 0.83976(6) 0.76439(4)
Cl1_3 Cl 0.15330(7) 0.02595(13) 0.14712(5)
O15_2 O 0.5351(2) 0.0697(3) 0.3260(2)
O16_2 O 0.5974(2) 0.1237(3) 0.3462(2)
O19_3 O 0.9395(2) 0.0639(4) 0.58178(17)
O20_3 O 0.86165(18) 0.0307(3) 0.67179(15)
O24 O 0.96924(19) 0.2438(3) 0.71214(19)
N10_3 N 0.9016(2) 0.0431(3) 0.62695(17)
C62_3 C 0.5764(3) 0.0746(5) 0.3461(2)
C65_3 C 0.6013(3) 0.0168(5) 0.3689(2)
C66_3 C 0.6422(3) 0.0256(4) 0.4004(2)
H36_3 H 0.654738 0.066569 0.407123
C71_3 C 0.7843(3) 0.0090(4) 0.5246(2)
C72_3 C 0.7857(3) 0.0098(4) 0.4831(2)
C75_3 C 0.7812(3) 0.0064(4) 0.6066(2)
H39_3 H 0.780087 0.005328 0.634376
C76_3 C 0.8209(3) 0.0198(4) 0.5999(2)
C77_3 C 0.8229(2) 0.0217(3) 0.5586(2)
C78_3 C 0.8638(3) 0.0354(4) 0.5510(2)
C79_3 C 0.8651(3) 0.0358(4) 0.5110(2)
H40_3 H 0.892696 0.044373 0.506241
C80_3 C 0.8267(3) 0.0237(4) 0.4771(2)
H41_3 H 0.828307 0.024900 0.449437
C81_3 C 0.8616(3) 0.0315(4) 0.6359(2)
C82_3 C 0.9046(3) 0.0495(4) 0.5867(2)
C83_3 C 0.9418(2) 0.0586(3) 0.6627(2)
C84_3 C 0.9732(2) 0.0139(4) 0.6797(2)
C87_3 C 0.9836(3) 0.1336(4) 0.7135(2)
C88_3 C 0.9458(2) 0.1212(4) 0.6784(2)
H44_3 H 0.924279 0.152905 0.665809
C90_3 C 0.9869(2) 0.1986(4) 0.7339(2)
Mn17 Mn 0.99607(4) 0.23315(6) 0.82789(4)
Mn19 Mn 0.96923(4) 0.33976(6) 0.73561(4)
Mn1_2 Mn 0.50471(6) 0.78850(11) 0.29534(8)
Mn2_2 Mn 0.46415(4) 0.67399(7) 0.19389(4)
O1_3 O 0.4606(2) 0.6485(4) 0.25389(19)
O2_3 O 0.5106(2) 0.6914(4) 0.3111(2)
O3_3 O 0.4933(6) 0.3600(8) 0.2952(5)
O4_3 O 0.4868(6) 0.3990(8) 0.2398(5)
O5_3 O 0.5819(2) 0.5180(4) 0.42576(18)
O6_3 O 0.65321(19) 0.5176(3) 0.32852(14)
O7_3 O 0.78974(18) 0.5353(3) 0.58692(14)
O8_3 O 0.86292(19) 0.5233(4) 0.49135(17)
O9_3 O 0.8901(3) 0.3655(3) 0.6532(3)
O10_3 O 0.9621(3) 0.3935(4) 0.6823(2)
O12_2 O 0.9537(3) 0.6712(3) 0.6273(3)
O13_3 O 0.5474(3) 0.8355(4) 0.3417(2)
O14_3 O 0.6060(3) 0.7956(4) 0.3909(3)
O17_3 O 0.7444(2) 0.9984(3) 0.41091(15)
O18_3 O 0.6666(2) 0.9690(4) 0.50177(18)
O25_3 O 0.4376(3) 0.7608(4) 0.2018(3)
O26_3 O 0.4406(3) 0.8073(4) 0.2611(2)
O28_3 O 0.25517(18) 0.9550(3) 0.20128(18)
O29_3 O 0.3375(3) 0.8853(4) 0.07949(19)
O30_3 O 0.2462(3) 0.7458(4) 0.11334(19)
O50_3 O 0.4717(3) 0.7157(5) 0.1365(2)
N7_3 N 0.6175(2) 0.5168(4) 0.37737(19)
N8_3 N 0.8260(2) 0.5254(3) 0.53886(16)
N9_3 N 0.7058(2) 0.9828(3) 0.45634(17)
N11_3 N 0.2904(2) 0.8174(3) 0.09561(19)
C31_3 C 0.4942(3) 0.6447(5) 0.2883(3)
C32_3 C 0.4899(9) 0.4134(9) 0.2757(6)
C33_3 C 0.5139(3) 0.4703(6) 0.2935(3)
C34_3 C 0.4942(3) 0.5278(6) 0.2799(3)
H25_3 H 0.466970 0.530644 0.256939
C35_3 C 0.5153(3) 0.5814(5) 0.3008(2)
C36_3 C 0.5553(3) 0.5777(5) 0.3324(2)
H26_3 H 0.569453 0.614894 0.346167
C37_3 C 0.5749(3) 0.5202(5) 0.3442(2)
C38_3 C 0.5553(3) 0.4644(5) 0.3257(3)
H27_3 H 0.569117 0.424532 0.334210
C39_3 C 0.6172(3) 0.5196(5) 0.4187(2)
C40_3 C 0.6611(3) 0.5234(4) 0.4513(2)
C41_3 C 0.7010(3) 0.5244(4) 0.4417(2)
C42_3 C 0.7001(3) 0.5221(4) 0.3995(2)
C43_3 C 0.6575(3) 0.5187(4) 0.3658(2)
C44_3 C 0.6630(3) 0.5273(5) 0.4937(2)
H28_3 H 0.636089 0.527680 0.500632
C45_3 C 0.7054(3) 0.5307(4) 0.5257(2)
H29_3 H 0.706849 0.533656 0.554167
C46_3 C 0.7436(3) 0.5297(4) 0.5159(2)
C47_3 C 0.7429(3) 0.5273(4) 0.4742(2)
C48_3 C 0.7832(3) 0.5254(4) 0.4641(2)
C49_3 C 0.7815(3) 0.5242(5) 0.4224(2)
H30_3 H 0.808533 0.525274 0.415709
C50_3 C 0.7405(3) 0.5216(4) 0.3906(2)
H31_3 H 0.739720 0.519360 0.362253
C51_3 C 0.7876(3) 0.5309(4) 0.5505(2)
C52_3 C 0.8276(3) 0.5245(4) 0.4975(2)
C53_3 C 0.8683(2) 0.5209(3) 0.57254(19)
C54_3 C 0.8778(3) 0.4647(4) 0.5958(2)
H32_3 H 0.857446 0.430352 0.587865
C55_3 C 0.9161(2) 0.4585(4) 0.6300(2)
C56_3 C 0.9449(3) 0.5099(5) 0.6398(2)
H33_3 H 0.971956 0.506022 0.662746
C57_3 C 0.9367(3) 0.5658(5) 0.6186(3)
C58_3 C 0.8974(3) 0.5715(4) 0.5840(3)
H34_3 H 0.890786 0.609844 0.568563
C59_3 C 0.9236(3) 0.4021(4) 0.6575(2)
C60_3 C 0.9701(4) 0.6165(5) 0.6353(4)
C61_3 C 0.5860(4) 0.8388(5) 0.3711(3)
C63_3 C 0.6055(3) 0.9048(4) 0.3812(2)
C64_3 C 0.5828(3) 0.9580(4) 0.3598(2)
H35_3 H 0.554331 0.953077 0.338721
C67_3 C 0.6641(3) 0.9730(4) 0.4217(2)
C68_3 C 0.6467(3) 0.9132(4) 0.4131(2)
H37_3 H 0.662382 0.878026 0.428519
C69_3 C 0.7020(3) 0.9814(5) 0.4972(2)
C70_3 C 0.7441(3) 0.9939(4) 0.5326(2)
C73_3 C 0.7451(3) 0.9965(4) 0.4477(2)
C74_3 C 0.7425(3) 0.9946(4) 0.5731(2)
H38_3 H 0.714860 0.986889 0.577960
H42_3 H 0.969107 0.972361 0.668523
C91_3 C 0.4215(3) 0.7936(5) 0.2241(3)
C92_3 C 0.2912(3) 0.9318(4) 0.2235(2)
C93_3 C 0.3139(2) 0.8854(4) 0.2023(2)
C94_3 C 0.3551(3) 0.8598(4) 0.2231(2)
H45_3 H 0.369768 0.869839 0.251718
C95_3 C 0.3758(3) 0.8190(4) 0.2024(3)
C96_3 C 0.3543(3) 0.8051(4) 0.1601(3)
H46_3 H 0.367967 0.777596 0.145571
C97_3 C 0.3128(3) 0.8317(4) 0.1397(2)
C98_3 C 0.2921(3) 0.8722(4) 0.1597(2)
H47_3 H 0.263794 0.890592 0.145007
C99_3 C 0.2564(3) 0.7715(5) 0.0856(2)
C100_3 C 0.2365(3) 0.7552(4) 0.0405(2)
C101_3 C 0.2500(3) 0.7891(4) 0.0111(2)
C102_3 C 0.2838(4) 0.8354(4) 0.0226(2)
C103_3 C 0.3061(4) 0.8503(5) 0.0669(3)
C104_3 C 0.2057(3) 0.7082(5) 0.0287(3)
H48_3 H 0.197728 0.684963 0.049283
H51_3 H 0.322953 0.892528 0.001567
O52_2 O 0.4649(2) 0.5697(3) 0.1740(2)
O53_2 O 0.4026(2) 0.6237(3) 0.1538(2)
O54_2 O 0.9654(3) 0.4231(3) 0.7699(2)
O59_2 O 0.91904(17) 0.3063(3) 0.75848(18)
O63_2 O 0.5417(2) 0.7623(4) 0.2545(2)
O64_2 O 0.53555(18) 0.6731(3) 0.21844(17)
H81_3 H 0.451896 0.753243 0.128102
H82_3 H 0.463127 0.684024 0.11357
Cl2_3 Cl 0.34437(8) 0.49943(14) 0.87167(6)
O31_3 O 0.2325(3) 0.8191(4) 0.86502(19)
O32_3 O 0.1509(2) 0.6644(3) 0.89966(17)
O33_3 O 0.2458(2) 0.5683(3) 0.80663(18)
O35_2 O 0.08096(17) 0.8063(3) 0.74152(18)
O36_3 O 0.07295(18) 0.7195(3) 0.70313(18)
O49_3 O 0.0112(3) 0.7814(4) 0.6169(2)
N12_3 N 0.1933(2) 0.7399(3) 0.88306(17)
C105_3 C 0.1857(3) 0.6942(5) 0.9864(3)
H49_3 H 0.163672 0.661752 0.978442
C106_3 C 0.1969(3) 0.7257(4) 0.9563(2)
C107_3 C 0.2293(3) 0.7745(4) 0.9677(2)
C108_3 C 0.2425(3) 0.8076(4) 0.9372(2)
C109_3 C 0.2759(4) 0.8531(5) 0.9500(3)
H50_3 H 0.283908 0.876809 0.929591
C110_3 C 0.2980(4) 0.8645(6) 0.9931(3)
C111_3 C 0.1778(3) 0.7075(4) 0.9115(2)
C112_3 C 0.2217(3) 0.7913(4) 0.8923(3)
C113_3 C 0.1791(2) 0.7165(3) 0.84032(19)
C114_3 C 0.2001(2) 0.6661(4) 0.8303(2)
H52_3 H 0.224465 0.647090 0.851433
C115_3 C 0.1868(3) 0.6416(4) 0.7899(2)
C116_3 C 0.1522(2) 0.6711(3) 0.7594(2)
H53_3 H 0.143211 0.655735 0.731449
C117_3 C 0.1310(2) 0.7215(4) 0.7687(2)
C118_3 C 0.1438(2) 0.7460(4) 0.8099(2)
H54_3 H 0.128804 0.781344 0.816549
C119_3 C 0.0922(3) 0.7508(4) 0.7349(3)
C120_3 C 0.2106(3) 0.5856(4) 0.7798(2)
H83_3 H 0.0292123 0.820454 0.625937
O55_2 O 0.99129(19) 0.7009(3) 0.72759(17)
O60_2 O 0.96561(16) 0.8134(3) 0.67713(15)
H84_3 H 0.981001 0.792509 0.597282
O51_2 O 0.0463(3) 0.1712(3) 0.8727(3)
H84_4 H 0.0189989 0.292509 0.902718
Cl1_4 Cl 0.84670(7) 0.52595(13) 0.35288(5)
O1_4 O 0.5394(2) 0.1485(4) 0.24611(19)
O2_4 O 0.4894(2) 0.1914(4) 0.1889(2)
O5_4 O 0.4181(2) 0.0180(4) 0.07424(18)
O6_4 O 0.34679(19) 0.0176(3) 0.17148(14)
O8_4 O 0.13708(19) 0.0233(4) 0.00865(17)
O13_4 O 0.4526(3) 0.3355(4) 0.1583(2)
O14_4 O 0.3940(3) 0.2956(4) 0.1091(3)
O17_4 O 0.2556(2) 0.4984(3) 0.08909(15)
O25_4 O 0.5624(3) 0.2608(4) 0.2982(3)
O26_4 O 0.5594(3) 0.3073(4) 0.2389(2)
O28_4 O 0.74483(18) 0.4550(3) 0.29872(18)
O29_4 O 0.6625(3) 0.3853(4) 0.42051(19)
O30_4 O 0.7538(3) 0.2458(4) 0.38666(19)
O31_4 O 0.7675(3) 0.3191(4) 0.63498(19)
O32_4 O 0.8491(2) 0.1644(3) 0.60034(17)
O33_4 O 0.7542(2) 0.0683(3) 0.69337(18)
O36_4 O 0.92705(18) 0.2195(3) 0.79687(18)
O49_4 O 0.9888(3) 0.2814(4) 0.8831(2)
O50_4 O 0.5283(3) 0.2157(5) 0.3635(2)
N7_4 N 0.3825(2) 0.0168(4) 0.12263(19)
N9_4 N 0.2942(2) 0.4828(3) 0.04366(17)
N11_4 N 0.7096(2) 0.3174(3) 0.40439(19)
N12_4 N 0.8067(2) 0.2399(3) 0.61694(17)
C31_4 C 0.5058(3) 0.1447(5) 0.2117(3)
C34_4 C 0.5058(3) 0.0278(6) 0.2201(3)
H25_4 H 0.533030 0.030644 0.243061
C35_4 C 0.4847(3) 0.0814(5) 0.1992(2)
C36_4 C 0.4447(3) 0.0777(5) 0.1676(2)
H26_4 H 0.430547 0.114894 0.153833
C37_4 C 0.4251(3) 0.0202(5) 0.1558(2)
C39_4 C 0.3828(3) 0.0196(5) 0.0813(2)
C40_4 C 0.3389(3) 0.0234(4) 0.0487(2)
C41_4 C 0.2990(3) 0.0244(4) 0.0583(2)
C42_4 C 0.2999(3) 0.0221(4) 0.1005(2)
C43_4 C 0.3425(3) 0.0187(4) 0.1342(2)
C44_4 C 0.3370(3) 0.0273(5) 0.0063(2)
C47_4 C 0.2571(3) 0.0273(4) 0.0258(2)
C48_4 C 0.2168(3) 0.0254(4) 0.0359(2)
C49_4 C 0.2185(3) 0.0242(5) 0.0776(2)
H30_4 H 0.191467 0.025274 0.084291
C50_4 C 0.2595(3) 0.0216(4) 0.1094(2)
H31_4 H 0.260280 0.019360 0.137747
C52_4 C 0.1724(3) 0.0245(4) 0.0025(2)
C61_4 C 0.4140(4) 0.3388(5) 0.1289(3)
C62_4 C 0.4236(3) 0.5746(5) 0.1539(2)
C63_4 C 0.3945(3) 0.4048(4) 0.1188(2)
C64_4 C 0.4172(3) 0.4580(4) 0.1402(2)
H35_4 H 0.445669 0.453077 0.161279
C65_4 C 0.3987(3) 0.5168(5) 0.1311(2)
C66_4 C 0.3578(3) 0.5256(4) 0.0996(2)
H36_4 H 0.345262 0.566569 0.092877
C67_4 C 0.3359(3) 0.4730(4) 0.0783(2)
C68_4 C 0.3533(3) 0.4132(4) 0.0869(2)
H37_4 H 0.337618 0.378026 0.071481
C69_4 C 0.2980(3) 0.4814(5) 0.0028(2)
C72_4 C 0.2143(3) 0.5098(4) 0.0169(2)
C73_4 C 0.2549(3) 0.4965(4) 0.0523(2)
C80_4 C 0.1733(3) 0.5237(4) 0.0229(2)
H41_4 H 0.171693 0.524900 0.050563
C91_4 C 0.5785(3) 0.2936(5) 0.2759(3)
C92_4 C 0.7088(3) 0.4318(4) 0.2765(2)
C93_4 C 0.6861(2) 0.3854(4) 0.2977(2)
C94_4 C 0.6449(3) 0.3598(4) 0.2769(2)
H45_4 H 0.630232 0.369839 0.248282
C95_4 C 0.6242(3) 0.3190(4) 0.2976(3)
C96_4 C 0.6457(3) 0.3051(4) 0.3399(3)
H46_4 H 0.632033 0.277596 0.354429
C97_4 C 0.6872(3) 0.3317(4) 0.3603(2)
C98_4 C 0.7079(3) 0.3722(4) 0.3403(2)
H47_4 H 0.736206 0.390592 0.354993
C99_4 C 0.7436(3) 0.2715(5) 0.4144(2)
C100_4 C 0.7635(3) 0.2552(4) 0.4595(2)
C101_4 C 0.7500(3) 0.2891(4) 0.4889(2)
C102_4 C 0.7162(4) 0.3354(4) 0.4774(2)
C103_4 C 0.6939(4) 0.3503(5) 0.4331(3)
C104_4 C 0.7943(3) 0.2082(5) 0.4713(3)
H48_4 H 0.802272 0.184963 0.450717
C105_4 C 0.8143(3) 0.1942(5) 0.5136(3)
H49_4 H 0.836328 0.161752 0.521558
C106_4 C 0.8031(3) 0.2257(4) 0.5437(2)
C107_4 C 0.7707(3) 0.2745(4) 0.5323(2)
C108_4 C 0.7575(3) 0.3076(4) 0.5628(2)
C109_4 C 0.7241(4) 0.3531(5) 0.5500(3)
H50_4 H 0.716092 0.376809 0.570409
C110_4 C 0.7020(4) 0.3645(6) 0.5069(3)
H51_4 H 0.677047 0.392528 0.498433
C111_4 C 0.8222(3) 0.2075(4) 0.5885(2)
C112_4 C 0.7783(3) 0.2913(4) 0.6077(3)
C113_4 C 0.8209(2) 0.2165(3) 0.65968(19)
C114_4 C 0.7999(2) 0.1661(4) 0.6697(2)
H52_4 H 0.775535 0.147090 0.648567
C115_4 C 0.8132(3) 0.1416(4) 0.7101(2)
C116_4 C 0.8478(2) 0.1711(3) 0.7406(2)
H53_4 H 0.856789 0.155735 0.768551
C117_4 C 0.8690(2) 0.2215(4) 0.7313(2)
C118_4 C 0.8562(2) 0.2460(4) 0.6901(2)
H54_4 H 0.871196 0.281344 0.683451
C119_4 C 0.9078(3) 0.2508(4) 0.7651(3)
C120_4 C 0.7894(3) 0.0856(4) 0.7202(2)
O66_2 O 0.74016(18) 0.5877(3) 0.27983(17)
H81_4 H 0.548104 0.253243 0.371898
H82_4 H 0.536873 0.184024 0.38643
H83_4 H 0.970788 0.320454 0.874063
O7_4 O 0.21026(18) 0.0353(3) 0.91308(14)
O18_4 O 0.3334(2) 0.4690(4) 0.99823(18)
O19_4 O 0.0605(2) 0.5639(4) 0.91822(17)
O20_4 O 0.13835(18) 0.5307(3) 0.82821(15)
O24_2 O 0.03076(19) 0.7438(3) 0.78786(19)
N8_4 N 0.1740(2) 0.0254(3) 0.96114(16)
N10_4 N 0.0984(2) 0.5431(3) 0.87305(17)
H28_4 H 0.363911 0.027680 0.999368
C45_4 C 0.2946(3) 0.0307(4) 0.9743(2)
H29_4 H 0.293151 0.033656 0.945833
C46_4 C 0.2564(3) 0.0297(4) 0.9841(2)
C51_4 C 0.2124(3) 0.0309(4) 0.9495(2)
C53_4 C 0.1317(2) 0.0209(3) 0.92746(19)
C56_4 C 0.0551(3) 0.0099(5) 0.8602(2)
H33_4 H 0.028044 0.006022 0.837254
C57_4 C 0.0633(3) 0.0658(5) 0.8814(3)
C58_4 C 0.1026(3) 0.0715(4) 0.9160(3)
H34_4 H 0.109214 0.109844 0.931437
C60_4 C 0.0299(4) 0.1165(5) 0.8647(4)
C70_4 C 0.2559(3) 0.4939(4) 0.9674(2)
C71_4 C 0.2157(3) 0.5090(4) 0.9754(2)
C74_4 C 0.2575(3) 0.4946(4) 0.9269(2)
H38_4 H 0.285140 0.486889 0.922040
C75_4 C 0.2188(3) 0.5064(4) 0.8934(2)
H39_4 H 0.219913 0.505328 0.865624
C76_4 C 0.1791(3) 0.5198(4) 0.9001(2)
C77_4 C 0.1771(2) 0.5217(3) 0.9414(2)
C78_4 C 0.1362(3) 0.5354(4) 0.9490(2)
C79_4 C 0.1349(3) 0.5358(4) 0.9890(2)
H40_4 H 0.107304 0.544373 0.993759
C81_4 C 0.1384(3) 0.5315(4) 0.8641(2)
C82_4 C 0.0954(3) 0.5495(4) 0.9133(2)
C83_4 C 0.0582(2) 0.5586(3) 0.8373(2)
C84_4 C 0.0268(2) 0.5139(4) 0.8203(2)
H42_4 H 0.030893 0.472361 0.831477
C87_4 C 0.0164(3) 0.6336(4) 0.7865(2)
C88_4 C 0.0542(2) 0.6212(4) 0.8216(2)
H44_4 H 0.075721 0.652905 0.834191
C90_4 C 0.0131(2) 0.6986(4) 0.7661(2)
Cl2_4 Cl 0.65563(8) 0.99943(14) 0.62833(6)
O3_4 O 0.5067(6) 0.8600(8) 0.2048(5)
O4_4 O 0.5132(6) 0.8990(8) 0.2602(5)
C32_4 C 0.5101(9) 0.9134(9) 0.2243(6)
C33_4 C 0.4861(3) 0.9703(6) 0.2065(3)
C38_4 C 0.4447(3) 0.9644(5) 0.1743(3)
H27_4 H 0.430883 0.924532 0.165790
O62_2 O 0.76025(15) 0.9330(2) 0.69230(14)
O9_4 O 0.1099(3) 0.8655(3) 0.8468(3)
O10_4 O 0.0379(3) 0.8935(4) 0.8177(2)
C54_4 C 0.1222(3) 0.9647(4) 0.9042(2)
H32_4 H 0.142554 0.930352 0.912135
C55_4 C 0.0839(2) 0.9585(4) 0.8700(2)
C59_4 C 0.0764(3) 0.9021(4) 0.8425(2)
O11_4 O 0.9892(3) 0.1065(5) 0.8456(3)
O22_4 O 0.9140(2) 0.4994(4) 0.7494(2)
C85_4 C 0.9886(2) 0.5280(4) 0.7867(2)
C86_4 C 0.9843(3) 0.5887(4) 0.7697(2)
H43_4 H 0.958788 0.598895 0.746216
C89_4 C 0.9534(3) 0.4794(4) 0.7673(2)
O37_4 O 0.96091(16) 0.8413(3) 0.73985(15)
O41_4 O 0.84509(18) 0.8823(3) 0.55801(14)
O42_4 O 0.7635(2) 0.7431(3) 0.60615(14)
O43_4 O 0.72716(19) 0.7925(3) 0.35158(14)
O44_4 O 0.64567(19) 0.6538(3) 0.39940(16)
N13_4 N 0.8033(2) 0.8145(3) 0.58229(15)
N14_4 N 0.6874(2) 0.7223(3) 0.37600(17)
C121_4 C 0.9440(2) 0.8314(4) 0.7012(2)
C122_4 C 0.8002(2) 0.9170(3) 0.7123(2)
C123_4 C 0.8947(2) 0.8420(3) 0.6817(2)
C124_4 C 0.8710(2) 0.8723(3) 0.70513(19)
H55_4 H 0.886584 0.885069 0.733114
C125_4 C 0.8247(2) 0.8841(3) 0.68773(18)
C126_4 C 0.8031(2) 0.8645(3) 0.64713(19)
H56_4 H 0.771793 0.872286 0.634571
C127_4 C 0.8264(2) 0.8338(3) 0.62460(19)
C128_4 C 0.8725(2) 0.8235(3) 0.6414(2)
H57_4 H 0.888385 0.804025 0.625083
C129_4 C 0.8146(2) 0.8438(4) 0.5497(2)
C130_4 C 0.7890(2) 0.8263(3) 0.50692(19)
C131_4 C 0.7540(2) 0.7816(3) 0.49947(18)
C132_4 C 0.7434(3) 0.7521(4) 0.5323(2)
C133_4 C 0.7700(2) 0.7683(4) 0.57648(19)
C134_4 C 0.7995(2) 0.8509(4) 0.47403(19)
H58_4 H 0.823616 0.880164 0.479386
C135_4 C 0.7757(2) 0.8343(4) 0.43248(19)
H59_4 H 0.782921 0.853269 0.409956
C136_4 C 0.7421(2) 0.7905(3) 0.42477(18)
C137_4 C 0.7307(2) 0.7628(3) 0.45795(19)
C138_4 C 0.6967(3) 0.7166(4) 0.4502(2)
C139_4 C 0.6873(3) 0.6896(5) 0.4836(2)
H60_4 H 0.664626 0.658110 0.478630
C140_4 C 0.7107(3) 0.7081(4) 0.5247(2)
H61_4 H 0.703504 0.689640 0.547425
C141_4 C 0.7191(2) 0.7705(4) 0.3811(2)
C142_4 C 0.6738(2) 0.6943(4) 0.40779(19)
C143_4 C 0.6664(3) 0.6997(4) 0.3338(2)
C144_4 C 0.6924(2) 0.6618(3) 0.3177(2)
H62_4 H 0.722187 0.650455 0.334111
C145_4 C 0.6734(2) 0.6402(4) 0.2760(2)
C146_4 C 0.6301(2) 0.6564(3) 0.25281(19)
H63_4 H 0.617317 0.641927 0.224791
C147_4 C 0.6053(2) 0.6942(4) 0.2709(2)
C148_4 C 0.6242(2) 0.7170(4) 0.3117(2)
H64_4 H 0.607563 0.744060 0.323627
C149_4 C 0.7005(2) 0.5987(3) 0.2578(2)
C150_4 C 0.5568(2) 0.7105(5) 0.2455(3)
N15 N 0.9256(3) 0.4872(5) 0.3099(3)
H65 H 0.947514 0.462521 0.327341
H66 H 0.899529 0.478423 0.314918
C151 C 0.9384(4) 0.5604(7) 0.3216(5)
H67 H 0.914712 0.587556 0.303538
H68 H 0.967016 0.570183 0.317225
H69 H 0.941232 0.567883 0.350962
C152 C 0.9205(4) 0.4707(6) 0.2682(3)
H70 H 0.945380 0.488522 0.260353
H71 H 0.891938 0.487406 0.249566
H72 H 0.920659 0.424606 0.265628
C151_2 C 0.0616(4) 0.0604(7) 0.1784(5)
H67_2 H 0.085288 0.087556 0.196462
H68_2 H 0.032984 0.070183 0.182775
H69_2 H 0.058768 0.067883 0.149038
N15_2 N 0.0744(3) 0.9872(5) 0.1901(3)
H65_2 H 0.052486 0.962521 0.172659
H66_2 H 0.100471 0.978423 0.185082
C152_2 C 0.0795(4) 0.9707(6) 0.2318(3)
H70_2 H 0.054620 0.988522 0.239647
H71_2 H 0.108062 0.987406 0.250434
H72_2 H 0.079341 0.924606 0.234372
N15_3 N 0.0744(3) 0.5128(5) 0.6901(3)
H65_3 H 0.052486 0.537479 0.672659
H66_3 H 0.100471 0.521577 0.685082
C151_3 C 0.0616(4) 0.4396(7) 0.6784(5)
H67_3 H 0.085288 0.412444 0.696462
H68_3 H 0.032984 0.429817 0.682775
H69_3 H 0.058768 0.432117 0.649038
C152_3 C 0.0795(4) 0.5293(6) 0.7318(3)
H70_3 H 0.054620 0.511478 0.739647
H71_3 H 0.108062 0.512594 0.750434
H72_3 H 0.079341 0.575394 0.734372
N15_4 N 0.9256(3) 0.0128(5) 0.8099(3)
H65_4 H 0.947514 0.037479 0.827341
H66_4 H 0.899529 0.021577 0.814918
C152_4 C 0.9205(4) 0.0293(6) 0.7682(3)
H70_4 H 0.945380 0.011478 0.760353
H71_4 H 0.891938 0.012594 0.749566
H72_4 H 0.920659 0.075394 0.765628
C151_4 C 0.9384(4) 0.9396(7) 0.8216(5)
H67_4 H 0.914712 0.912444 0.803538
H68_4 H 0.967016 0.929817 0.817225
H69_4 H 0.941232 0.932117 0.850962
N16 N 0.8484(2) 0.0785(3) 0.2070(2)
H73 H 0.860868 0.107591 0.194211
H74 H 0.871212 0.055260 0.224450
C153 C 0.8251(4) 0.1114(5) 0.2318(4)
H75 H 0.816826 0.081063 0.249953
H76 H 0.797873 0.131379 0.213022
H77 H 0.844896 0.143717 0.249034
C154 C 0.8194(4) 0.0372(6) 0.1753(3)
H78 H 0.802432 0.062191 0.150824
H79 H 0.798433 0.015605 0.186756
H80 H 0.837729 0.005820 0.166916
N16_2 N 0.1516(2) 0.5785(3) 0.2930(2)
H73_2 H 0.139132 0.607591 0.305789
H74_2 H 0.128788 0.555260 0.275550
C153_2 C 0.1749(4) 0.6114(5) 0.2682(4)
H75_2 H 0.183174 0.581063 0.250047
H76_2 H 0.202127 0.631379 0.286978
H77_2 H 0.155104 0.643717 0.250966
C154_2 C 0.1806(4) 0.5372(6) 0.3247(3)
H78_2 H 0.197568 0.562191 0.349176
H79_2 H 0.201567 0.515605 0.313244
H80_2 H 0.162271 0.505820 0.333084
N16_3 N 0.1516(2) 0.9215(3) 0.7930(2)
H73_3 H 0.139132 0.892409 0.805789
H74_3 H 0.128788 0.944740 0.775550
C153_3 C 0.1749(4) 0.8886(5) 0.7682(4)
H75_3 H 0.183174 0.918937 0.750047
H76_3 H 0.202127 0.868621 0.786978
H77_3 H 0.155104 0.856283 0.750966
C154_3 C 0.1806(4) 0.9628(6) 0.8247(3)
H78_3 H 0.197568 0.937809 0.849176
H79_3 H 0.201567 0.984395 0.813244
H80_3 H 0.162271 0.994180 0.833084
N16_4 N 0.8484(2) 0.4215(3) 0.7070(2)
H73_4 H 0.860868 0.392409 0.694211
H74_4 H 0.871212 0.444740 0.724450
C153_4 C 0.8251(4) 0.3886(5) 0.7318(4)
H75_4 H 0.816826 0.418937 0.749953
H76_4 H 0.797873 0.368621 0.713022
H77_4 H 0.844896 0.356283 0.749034
C154_4 C 0.8194(4) 0.4628(6) 0.6753(3)
H78_4 H 0.802432 0.437809 0.650824
H79_4 H 0.798433 0.484395 0.686756
H80_4 H 0.837729 0.494180 0.666916
loop_
_geom_bond_atom_site_label_1
_geom_bond_atom_site_label_2
_geom_bond_site_symmetry_1
_geom_bond_site_symmetry_2
Ru1 N1 1_555 1_555
N1 C1 1_555 1_555
N2 Ru1 1_555 1_555
N3 Ru1 1_555 1_555
N4 Ru1 1_555 1_555
N5 Ru1 1_555 1_555
N6 Ru1 1_555 1_555
C1 H1 1_555 1_555
C2 C1 1_555 1_555
H2 C2 1_555 1_555
C3 C2 1_555 1_555
H3 C3 1_555 1_555
C4 C3 1_555 1_555
H4 C4 1_555 1_555
C5 N1 1_555 1_555
C6 N2 1_555 1_555
C7 C6 1_555 1_555
H5 C7 1_555 1_555
C8 C7 1_555 1_555
H6 C8 1_555 1_555
C9 C8 1_555 1_555
H7 C9 1_555 1_555
C10 N2 1_555 1_555
H8 C10 1_555 1_555
C11 N3 1_555 1_555
H9 C11 1_555 1_555
C12 C11 1_555 1_555
H10 C12 1_555 1_555
C13 C12 1_555 1_555
H11 C13 1_555 1_555
C14 C13 1_555 1_555
H12 C14 1_555 1_555
C15 N3 1_555 1_555
C16 N4 1_555 1_555
C17 C16 1_555 1_555
H13 C17 1_555 1_555
C18 C17 1_555 1_555
H14 C18 1_555 1_555
C19 C18 1_555 1_555
H15 C19 1_555 1_555
C20 N4 1_555 1_555
H16 C20 1_555 1_555
C21 N5 1_555 1_555
H17 C21 1_555 1_555
C22 C21 1_555 1_555
H18 C22 1_555 1_555
C23 C22 1_555 1_555
H19 C23 1_555 1_555
C24 C23 1_555 1_555
H20 C24 1_555 1_555
C25 N5 1_555 1_555
C26 N6 1_555 1_555
C27 C26 1_555 1_555
H21 C27 1_555 1_555
C28 C27 1_555 1_555
H22 C28 1_555 1_555
C29 C28 1_555 1_555
H23 C29 1_555 1_555
C30 N6 1_555 1_555
H24 C30 1_555 1_555
C4 C5 1_555 1_555
C5 C6 1_555 1_555
C9 C10 1_555 1_555
C14 C15 1_555 1_555
C15 C16 1_555 1_555
C19 C20 1_555 1_555
C24 C25 1_555 1_555
C25 C26 1_555 1_555
C29 C30 1_555 1_555
Ru1_2 N1_2 1_555 1_555
N1_2 C1_2 1_555 1_555
N2_2 Ru1_2 1_555 1_555
N3_2 Ru1_2 1_555 1_555
N4_2 Ru1_2 1_555 1_555
N5_2 Ru1_2 1_555 1_555
N6_2 Ru1_2 1_555 1_555
C1_2 H1_2 1_555 1_555
C2_2 C1_2 1_555 1_555
H2_2 C2_2 1_555 1_555
C3_2 C2_2 1_555 1_555
H3_2 C3_2 1_555 1_555
C4_2 C3_2 1_555 1_555
H4_2 C4_2 1_555 1_555
C5_2 N1_2 1_555 1_555
C6_2 N2_2 1_555 1_555
C7_2 C6_2 1_555 1_555
H5_2 C7_2 1_555 1_555
C8_2 C7_2 1_555 1_555
C10_2 N2_2 1_555 1_555
H8_2 C10_2 1_555 1_555
C11_2 N3_2 1_555 1_555
H9_2 C11_2 1_555 1_555
C12_2 C11_2 1_555 1_555
H10_2 C12_2 1_555 1_555
C13_2 C12_2 1_555 1_555
H11_2 C13_2 1_555 1_555
C14_2 C13_2 1_555 1_555
H12_2 C14_2 1_555 1_555
C15_2 N3_2 1_555 1_555
C16_2 N4_2 1_555 1_555
C17_2 C16_2 1_555 1_555
H13_2 C17_2 1_555 1_555
C18_2 C17_2 1_555 1_555
C19_2 C18_2 1_555 1_555
H15_2 C19_2 1_555 1_555
C20_2 N4_2 1_555 1_555
H16_2 C20_2 1_555 1_555
C21_2 N5_2 1_555 1_555
H17_2 C21_2 1_555 1_555
C22_2 C21_2 1_555 1_555
H18_2 C22_2 1_555 1_555
C23_2 C22_2 1_555 1_555
H19_2 C23_2 1_555 1_555
C24_2 C23_2 1_555 1_555
H20_2 C24_2 1_555 1_555
C25_2 N5_2 1_555 1_555
C26_2 N6_2 1_555 1_555
C27_2 C26_2 1_555 1_555
H21_2 C27_2 1_555 1_555
C28_2 C27_2 1_555 1_555
H22_2 C28_2 1_555 1_555
C29_2 C28_2 1_555 1_555
H23_2 C29_2 1_555 1_555
C30_2 N6_2 1_555 1_555
H24_2 C30_2 1_555 1_555
C4_2 C5_2 1_555 1_555
C5_2 C6_2 1_555 1_555
C14_2 C15_2 1_555 1_555
C15_2 C16_2 1_555 1_555
C19_2 C20_2 1_555 1_555
C24_2 C25_2 1_555 1_555
C25_2 C26_2 1_555 1_555
C29_2 C30_2 1_555 1_555
H7_2 C9_2 1_555 1_555
Ru1_3 N1_3 1_555 1_555
N1_3 C1_3 1_555 1_555
N2_3 Ru1_3 1_555 1_555
N3_3 Ru1_3 1_555 1_555
N4_3 Ru1_3 1_555 1_555
N5_3 Ru1_3 1_555 1_555
N6_3 Ru1_3 1_555 1_555
C1_3 H1_3 1_555 1_555
C2_3 C1_3 1_555 1_555
H2_3 C2_3 1_555 1_555
C3_3 C2_3 1_555 1_555
H3_3 C3_3 1_555 1_555
C4_3 C3_3 1_555 1_555
H4_3 C4_3 1_555 1_555
C5_3 N1_3 1_555 1_555
C6_3 N2_3 1_555 1_555
C7_3 C6_3 1_555 1_555
H5_3 C7_3 1_555 1_555
C8_3 C7_3 1_555 1_555
H6_3 C8_3 1_555 1_555
C9_3 C8_3 1_555 1_555
H7_3 C9_3 1_555 1_555
C10_3 N2_3 1_555 1_555
H8_3 C10_3 1_555 1_555
C11_3 N3_3 1_555 1_555
H9_3 C11_3 1_555 1_555
C12_3 C11_3 1_555 1_555
H10_3 C12_3 1_555 1_555
C13_3 C12_3 1_555 1_555
H11_3 C13_3 1_555 1_555
C14_3 C13_3 1_555 1_555
H12_3 C14_3 1_555 1_555
C15_3 N3_3 1_555 1_555
C16_3 N4_3 1_555 1_555
C17_3 C16_3 1_555 1_555
H13_3 C17_3 1_555 1_555
C18_3 C17_3 1_555 1_555
H14_3 C18_3 1_555 1_555
C19_3 C18_3 1_555 1_555
H15_3 C19_3 1_555 1_555
C20_3 N4_3 1_555 1_555
H16_3 C20_3 1_555 1_555
C21_3 N5_3 1_555 1_555
H17_3 C21_3 1_555 1_555
C22_3 C21_3 1_555 1_555
H18_3 C22_3 1_555 1_555
C23_3 C22_3 1_555 1_555
H19_3 C23_3 1_555 1_555
C24_3 C23_3 1_555 1_555
H20_3 C24_3 1_555 1_555
C25_3 N5_3 1_555 1_555
C26_3 N6_3 1_555 1_555
C27_3 C26_3 1_555 1_555
H21_3 C27_3 1_555 1_555
C28_3 C27_3 1_555 1_555
H22_3 C28_3 1_555 1_555
C29_3 C28_3 1_555 1_555
H23_3 C29_3 1_555 1_555
C30_3 N6_3 1_555 1_555
H24_3 C30_3 1_555 1_555
C4_3 C5_3 1_555 1_555
C5_3 C6_3 1_555 1_555
C9_3 C10_3 1_555 1_555
C14_3 C15_3 1_555 1_555
C15_3 C16_3 1_555 1_555
C19_3 C20_3 1_555 1_555
C24_3 C25_3 1_555 1_555
C25_3 C26_3 1_555 1_555
C29_3 C30_3 1_555 1_555
H7_4 C9_4 1_555 1_555
Ru1_4 N1_4 1_555 1_555
N1_4 C1_4 1_555 1_555
N2_4 Ru1_4 1_555 1_555
N3_4 Ru1_4 1_555 1_555
N4_4 Ru1_4 1_555 1_555
N5_4 Ru1_4 1_555 1_555
N6_4 Ru1_4 1_555 1_555
C1_4 H1_4 1_555 1_555
C2_4 C1_4 1_555 1_555
H2_4 C2_4 1_555 1_555
C3_4 C2_4 1_555 1_555
H3_4 C3_4 1_555 1_555
C4_4 C3_4 1_555 1_555
H4_4 C4_4 1_555 1_555
C5_4 N1_4 1_555 1_555
C6_4 N2_4 1_555 1_555
C7_4 C6_4 1_555 1_555
H5_4 C7_4 1_555 1_555
C8_4 C7_4 1_555 1_555
C10_4 N2_4 1_555 1_555
H8_4 C10_4 1_555 1_555
C11_4 N3_4 1_555 1_555
H9_4 C11_4 1_555 1_555
C12_4 C11_4 1_555 1_555
H10_4 C12_4 1_555 1_555
C13_4 C12_4 1_555 1_555
H11_4 C13_4 1_555 1_555
C14_4 C13_4 1_555 1_555
H12_4 C14_4 1_555 1_555
C15_4 N3_4 1_555 1_555
C16_4 N4_4 1_555 1_555
C17_4 C16_4 1_555 1_555
H13_4 C17_4 1_555 1_555
C18_4 C17_4 1_555 1_555
C19_4 C18_4 1_555 1_555
H15_4 C19_4 1_555 1_555
C20_4 N4_4 1_555 1_555
H16_4 C20_4 1_555 1_555
C21_4 N5_4 1_555 1_555
H17_4 C21_4 1_555 1_555
C22_4 C21_4 1_555 1_555
H18_4 C22_4 1_555 1_555
C23_4 C22_4 1_555 1_555
H19_4 C23_4 1_555 1_555
C24_4 C23_4 1_555 1_555
H20_4 C24_4 1_555 1_555
C25_4 N5_4 1_555 1_555
C26_4 N6_4 1_555 1_555
C27_4 C26_4 1_555 1_555
H21_4 C27_4 1_555 1_555
C28_4 C27_4 1_555 1_555
H22_4 C28_4 1_555 1_555
C29_4 C28_4 1_555 1_555
H23_4 C29_4 1_555 1_555
C30_4 N6_4 1_555 1_555
H24_4 C30_4 1_555 1_555
C4_4 C5_4 1_555 1_555
C5_4 C6_4 1_555 1_555
C14_4 C15_4 1_555 1_555
C15_4 C16_4 1_555 1_555
C19_4 C20_4 1_555 1_555
C24_4 C25_4 1_555 1_555
C25_4 C26_4 1_555 1_555
C29_4 C30_4 1_555 1_555
Mn4 Cl2 1_555 1_555
Mn5 O36 1_555 1_555
O31 C112 1_555 1_555
O32 C111 1_555 1_555
O33 Mn4 1_555 1_555
O34 C120 1_555 1_555
O35 C119 1_555 1_555
O36 C119 1_555 1_555
O49 Mn5 1_555 1_555
N12 C111 1_555 1_555
H49 C105 1_555 1_555
C106 C105 1_555 1_555
C108 C107 1_555 1_555
C109 C108 1_555 1_555
H50 C109 1_555 1_555
C111 C106 1_555 1_555
C112 N12 1_555 1_555
C113 N12 1_555 1_555
C114 C113 1_555 1_555
H52 C114 1_555 1_555
C115 C114 1_555 1_555
C116 C115 1_555 1_555
H53 C116 1_555 1_555
C117 C116 1_555 1_555
C118 C113 1_555 1_555
H54 C118 1_555 1_555
C119 C117 1_555 1_555
C120 O33 1_555 1_555
Mn12 O34 1_555 1_555
Mn21 O35 1_555 1_555
O57 Mn4 1_555 1_555
O62 Mn4 1_555 1_555
O65 Mn4 1_555 1_555
C106 C107 1_555 1_555
C108 C112 1_555 1_555
C109 C110 1_555 1_555
C115 C120 1_555 1_555
C117 C118 1_555 1_555
O49 H83 1_555 1_555
Mn1 O2 1_555 1_555
Mn2 O1 1_555 1_555
Mn6 O10 1_555 1_555
O1 C31 1_555 1_555
O2 C31 1_555 1_555
O3 C32 1_555 1_555
O4 C32 1_555 1_555
O5 C39 1_555 1_555
O6 C43 1_555 1_555
O7 C51 1_555 1_555
O8 C52 1_555 1_555
O9 C59 1_555 1_555
O10 C59 1_555 1_555
O51 C60 1_555 1_555
O13 Mn1 1_555 1_555
O14 C61 1_555 1_555
O17 C73 1_555 1_555
O18 C69 1_555 1_555
O25 Mn2 1_555 1_555
O26 Mn1 1_555 1_555
O27 C92 1_555 1_555
O29 C103 1_555 1_555
O30 C99 1_555 1_555
O50 Mn2 1_555 1_555
N7 C37 1_555 1_555
N8 C51 1_555 1_555
N9 C67 1_555 1_555
N11 C97 1_555 1_555
C31 C35 1_555 1_555
C32 C33 1_555 1_555
C33 C34 1_555 1_555
C34 H25 1_555 1_555
C35 C34 1_555 1_555
C36 C35 1_555 1_555
H26 C36 1_555 1_555
C37 C36 1_555 1_555
C38 C33 1_555 1_555
H27 C38 1_555 1_555
C39 N7 1_555 1_555
C40 C39 1_555 1_555
C41 C40 1_555 1_555
C42 C41 1_555 1_555
C43 N7 1_555 1_555
C44 C40 1_555 1_555
H28 C44 1_555 1_555
C45 C44 1_555 1_555
H29 C45 1_555 1_555
C46 C45 1_555 1_555
C47 C41 1_555 1_555
C48 C47 1_555 1_555
C49 C48 1_555 1_555
H30 C49 1_555 1_555
C50 C42 1_555 1_555
H31 C50 1_555 1_555
C51 C46 1_555 1_555
C52 N8 1_555 1_555
C53 N8 1_555 1_555
C54 C53 1_555 1_555
H32 C54 1_555 1_555
C55 C54 1_555 1_555
C56 C55 1_555 1_555
H33 C56 1_555 1_555
C57 C56 1_555 1_555
C58 C53 1_555 1_555
H34 C58 1_555 1_555
C59 C55 1_555 1_555
C60 C57 1_555 1_555
C61 O13 1_555 1_555
C63 C61 1_555 1_555
C64 C63 1_555 1_555
H35 C64 1_555 1_555
C68 C63 1_555 1_555
H37 C68 1_555 1_555
C69 N9 1_555 1_555
C70 C69 1_555 1_555
C73 N9 1_555 1_555
C74 C70 1_555 1_555
H38 C74 1_555 1_555
C91 O25 1_555 1_555
C92 O28 1_555 1_555
C93 C92 1_555 1_555
C94 C93 1_555 1_555
H45 C94 1_555 1_555
C95 C91 1_555 1_555
C96 C95 1_555 1_555
H46 C96 1_555 1_555
C97 C96 1_555 1_555
C98 C93 1_555 1_555
H47 C98 1_555 1_555
C99 N11 1_555 1_555
C100 C99 1_555 1_555
C101 C100 1_555 1_555
C102 C101 1_555 1_555
C103 N11 1_555 1_555
C104 C100 1_555 1_555
H48 C104 1_555 1_555
O52 Mn2 1_555 1_555
O53 Mn2 1_555 1_555
O54 Mn6 1_555 1_555
O56 Mn6 1_555 1_555
O59 Mn6 1_555 1_555
O63 Mn1 1_555 1_555
O64 Mn2 1_555 1_555
O26 C91 1_555 1_555
C37 C38 1_555 1_555
C42 C43 1_555 1_555
C46 C47 1_555 1_555
C48 C52 1_555 1_555
C49 C50 1_555 1_555
C57 C58 1_555 1_555
C67 C68 1_555 1_555
C94 C95 1_555 1_555
C97 C98 1_555 1_555
C102 C103 1_555 1_555
O50 H81 1_555 1_555
O50 H82 1_555 1_555
Mn3 Cl1 1_555 1_555
O15 C62 1_555 1_555
O16 C62 1_555 1_555
O19 C82 1_555 1_555
O20 C81 1_555 1_555
O56 C90 1_555 1_555
N10 C81 1_555 1_555
C62 C65 1_555 1_555
C66 C65 1_555 1_555
H36 C66 1_555 1_555
C72 C71 1_555 1_555
H39 C75 1_555 1_555
C76 C75 1_555 1_555
C77 C71 1_555 1_555
C78 C77 1_555 1_555
C79 C78 1_555 1_555
H40 C79 1_555 1_555
C80 C72 1_555 1_555
H41 C80 1_555 1_555
C81 C76 1_555 1_555
C82 N10 1_555 1_555
C83 N10 1_555 1_555
C84 C83 1_555 1_555
C88 C83 1_555 1_555
H44 C88 1_555 1_555
C90 C87 1_555 1_555
Mn9 O15 1_555 1_555
O61 Mn3 1_555 1_555
O66 Mn3 1_555 1_555
O16 Mn9 1_555 1_555
C76 C77 1_555 1_555
C78 C82 1_555 1_555
C79 C80 1_555 1_555
C87 C88 1_555 1_555
O21 C89 1_555 1_555
O22 C89 1_555 1_555
O38 C121 1_555 1_555
O39 C122 1_555 1_555
O62 C122 1_555 1_555
O41 C129 1_555 1_555
O42 C133 1_555 1_555
N13 C127 1_555 1_555
C121 O37 1_555 1_555
C122 C125 1_555 1_555
C123 C121 1_555 1_555
C124 C123 1_555 1_555
H55 C124 1_555 1_555
C125 C124 1_555 1_555
C126 C125 1_555 1_555
H56 C126 1_555 1_555
C127 C126 1_555 1_555
C128 C123 1_555 1_555
H57 C128 1_555 1_555
C129 N13 1_555 1_555
C130 C129 1_555 1_555
C133 N13 1_555 1_555
C140 C132 1_555 1_555
H61 C140 1_555 1_555
Mn12 O39 1_555 1_555
Mn21 O21 1_555 1_555
C127 C128 1_555 1_555
C132 C133 1_555 1_555
O43 C141 1_555 1_555
O44 C142 1_555 1_555
O45 C150 1_555 1_555
O46 C150 1_555 1_555
O47 C149 1_555 1_555
O66 C149 1_555 1_555
N14 C141 1_555 1_555
H58 C134 1_555 1_555
C135 C134 1_555 1_555
H59 C135 1_555 1_555
C136 C135 1_555 1_555
C137 C131 1_555 1_555
C138 C137 1_555 1_555
C139 C138 1_555 1_555
H60 C139 1_555 1_555
C141 C136 1_555 1_555
C142 N14 1_555 1_555
C143 N14 1_555 1_555
C144 C143 1_555 1_555
H62 C144 1_555 1_555
C145 C144 1_555 1_555
C146 C145 1_555 1_555
H63 C146 1_555 1_555
C147 C146 1_555 1_555
C148 C143 1_555 1_555
H64 C148 1_555 1_555
C149 C145 1_555 1_555
C150 C147 1_555 1_555
Mn7 O45 1_555 1_555
Mn9 O46 1_555 1_555
Mn15 O47 1_555 1_555
C136 C137 1_555 1_555
C138 C142 1_555 1_555
C147 C148 1_555 1_555
C86 C85 1_555 1_555
H43 C86 1_555 1_555
O60 C121_2 1_555 1_555
O39_2 C122_2 1_555 1_555
O40 C122_2 1_555 1_555
O41_2 C129_2 1_555 1_555
O42_2 C133_2 1_555 1_555
O43_2 C141_2 1_555 1_555
O44_2 C142_2 1_555 1_555
O63 C150_2 1_555 1_555
O64 C150_2 1_555 1_555
O47_2 C149_2 1_555 1_555
O48 C149_2 1_555 1_555
N13_2 C127_2 1_555 1_555
N14_2 C141_2 1_555 1_555
C121_2 O37_2 1_555 1_555
C122_2 C125_2 1_555 1_555
C123_2 C121_2 1_555 1_555
C124_2 C123_2 1_555 1_555
H55_2 C124_2 1_555 1_555
C125_2 C124_2 1_555 1_555
C126_2 C125_2 1_555 1_555
H56_2 C126_2 1_555 1_555
C127_2 C126_2 1_555 1_555
C128_2 C123_2 1_555 1_555
H57_2 C128_2 1_555 1_555
C129_2 N13_2 1_555 1_555
C130_2 C129_2 1_555 1_555
C131_2 C130_2 1_555 1_555
C132_2 C131_2 1_555 1_555
C133_2 N13_2 1_555 1_555
C134_2 C130_2 1_555 1_555
H58_2 C134_2 1_555 1_555
C135_2 C134_2 1_555 1_555
H59_2 C135_2 1_555 1_555
C136_2 C135_2 1_555 1_555
C137_2 C131_2 1_555 1_555
C138_2 C137_2 1_555 1_555
C139_2 C138_2 1_555 1_555
H60_2 C139_2 1_555 1_555
C140_2 C132_2 1_555 1_555
H61_2 C140_2 1_555 1_555
C141_2 C136_2 1_555 1_555
C142_2 N14_2 1_555 1_555
C143_2 N14_2 1_555 1_555
C144_2 C143_2 1_555 1_555
H62_2 C144_2 1_555 1_555
C145_2 C144_2 1_555 1_555
C146_2 C145_2 1_555 1_555
H63_2 C146_2 1_555 1_555
C147_2 C146_2 1_555 1_555
C148_2 C143_2 1_555 1_555
H64_2 C148_2 1_555 1_555
C149_2 C145_2 1_555 1_555
C150_2 C147_2 1_555 1_555
Mn10 O48 1_555 1_555
Mn11 O39_2 1_555 1_555
Mn13 O40 1_555 1_555
Mn14 O47_2 1_555 1_555
C127_2 C128_2 1_555 1_555
C132_2 C133_2 1_555 1_555
C136_2 C137_2 1_555 1_555
C138_2 C142_2 1_555 1_555
C139_2 C140_2 1_555 1_555
C147_2 C148_2 1_555 1_555
O54 C89_2 1_555 1_555
O22_2 C89_2 1_555 1_555
C86_2 C85_2 1_555 1_555
H43_2 C86_2 1_555 1_555
C89_2 C85_2 1_555 1_555
Mn21 O10_2 1_555 1_555
O9_2 C59_2 1_555 1_555
O10_2 C59_2 1_555 1_555
H32_2 C54_2 1_555 1_555
C55_2 C54_2 1_555 1_555
C59_2 C55_2 1_555 1_555
O56_2 Mn21 1_555 1_555
Mn13 Cl2_2 1_555 1_555
O3_2 C32_2 1_555 1_555
O4_2 C32_2 1_555 1_555
C32_2 C33_2 1_555 1_555
C38_2 C33_2 1_555 1_555
H27_2 C38_2 1_555 1_555
O65_2 Mn13 1_555 1_555
O7_2 C51_2 1_555 1_555
O12 C60_2 1_555 1_555
O19_2 C82_2 1_555 1_555
O20_2 C81_2 1_555 1_555
O56_2 C90_2 1_555 1_555
N8_2 C51_2 1_555 1_555
N10_2 C81_2 1_555 1_555
H29_2 C45_2 1_555 1_555
C46_2 C45_2 1_555 1_555
C51_2 C46_2 1_555 1_555
C53_2 N8_2 1_555 1_555
H33_2 C56_2 1_555 1_555
C57_2 C56_2 1_555 1_555
C58_2 C53_2 1_555 1_555
H34_2 C58_2 1_555 1_555
C60_2 C57_2 1_555 1_555
C71_2 C70_2 1_555 1_555
C74_2 C70_2 1_555 1_555
H38_2 C74_2 1_555 1_555
C75_2 C74_2 1_555 1_555
H39_2 C75_2 1_555 1_555
C76_2 C75_2 1_555 1_555
C77_2 C71_2 1_555 1_555
C78_2 C77_2 1_555 1_555
C79_2 C78_2 1_555 1_555
H40_2 C79_2 1_555 1_555
C81_2 C76_2 1_555 1_555
C82_2 N10_2 1_555 1_555
C83_2 N10_2 1_555 1_555
C84_2 C83_2 1_555 1_555
H42_2 C84_2 1_555 1_555
C88_2 C83_2 1_555 1_555
H44_2 C88_2 1_555 1_555
C90_2 C87_2 1_555 1_555
C57_2 C58_2 1_555 1_555
C76_2 C77_2 1_555 1_555
C78_2 C82_2 1_555 1_555
C87_2 C88_2 1_555 1_555
Mn7 O2_2 1_555 1_555
Mn9 O1_2 1_555 1_555
Mn10 Cl1_2 1_555 1_555
Mn18 O36_2 1_555 1_555
O1_2 C31_2 1_555 1_555
O2_2 C31_2 1_555 1_555
O5_2 C39_2 1_555 1_555
O6_2 C43_2 1_555 1_555
O8_2 C52_2 1_555 1_555
O13_2 Mn7 1_555 1_555
O14_2 C61_2 1_555 1_555
O52 C62_2 1_555 1_555
O53 C62_2 1_555 1_555
O17_2 C73_2 1_555 1_555
O25_2 Mn9 1_555 1_555
O26_2 Mn7 1_555 1_555
O27_2 C92_2 1_555 1_555
O28_2 Mn10 1_555 1_555
O29_2 C103_2 1_555 1_555
O30_2 C99_2 1_555 1_555
O31_2 C112_2 1_555 1_555
O32_2 C111_2 1_555 1_555
O34_2 C120_2 1_555 1_555
O59 C119_2 1_555 1_555
O36_2 C119_2 1_555 1_555
O49_2 Mn18 1_555 1_555
O50_2 Mn9 1_555 1_555
N7_2 C37_2 1_555 1_555
N9_2 C67_2 1_555 1_555
N11_2 C97_2 1_555 1_555
N12_2 C111_2 1_555 1_555
C31_2 C35_2 1_555 1_555
C34_2 H25_2 1_555 1_555
C35_2 C34_2 1_555 1_555
C36_2 C35_2 1_555 1_555
H26_2 C36_2 1_555 1_555
C37_2 C36_2 1_555 1_555
C39_2 N7_2 1_555 1_555
C40_2 C39_2 1_555 1_555
C41_2 C40_2 1_555 1_555
C42_2 C41_2 1_555 1_555
C43_2 N7_2 1_555 1_555
C44_2 C40_2 1_555 1_555
C47_2 C41_2 1_555 1_555
C48_2 C47_2 1_555 1_555
C49_2 C48_2 1_555 1_555
H30_2 C49_2 1_555 1_555
C50_2 C42_2 1_555 1_555
H31_2 C50_2 1_555 1_555
C61_2 O13_2 1_555 1_555
C62_2 C65_2 1_555 1_555
C63_2 C61_2 1_555 1_555
C64_2 C63_2 1_555 1_555
H35_2 C64_2 1_555 1_555
C65_2 C64_2 1_555 1_555
C66_2 C65_2 1_555 1_555
H36_2 C66_2 1_555 1_555
C67_2 C66_2 1_555 1_555
C68_2 C63_2 1_555 1_555
H37_2 C68_2 1_555 1_555
C69_2 N9_2 1_555 1_555
C73_2 N9_2 1_555 1_555
C80_2 C72_2 1_555 1_555
H41_2 C80_2 1_555 1_555
C91_2 O25_2 1_555 1_555
C92_2 O28_2 1_555 1_555
C93_2 C92_2 1_555 1_555
C94_2 C93_2 1_555 1_555
H45_2 C94_2 1_555 1_555
C95_2 C91_2 1_555 1_555
C96_2 C95_2 1_555 1_555
H46_2 C96_2 1_555 1_555
C97_2 C96_2 1_555 1_555
C98_2 C93_2 1_555 1_555
H47_2 C98_2 1_555 1_555
C99_2 N11_2 1_555 1_555
C100_2 C99_2 1_555 1_555
C101_2 C100_2 1_555 1_555
C102_2 C101_2 1_555 1_555
C103_2 N11_2 1_555 1_555
C104_2 C100_2 1_555 1_555
H48_2 C104_2 1_555 1_555
C105_2 C104_2 1_555 1_555
H49_2 C105_2 1_555 1_555
C106_2 C105_2 1_555 1_555
C107_2 C101_2 1_555 1_555
C108_2 C107_2 1_555 1_555
C109_2 C108_2 1_555 1_555
H50_2 C109_2 1_555 1_555
C110_2 C102_2 1_555 1_555
H51_2 C110_2 1_555 1_555
C111_2 C106_2 1_555 1_555
C112_2 N12_2 1_555 1_555
C113_2 N12_2 1_555 1_555
C114_2 C113_2 1_555 1_555
H52_2 C114_2 1_555 1_555
C115_2 C114_2 1_555 1_555
C116_2 C115_2 1_555 1_555
H53_2 C116_2 1_555 1_555
C117_2 C116_2 1_555 1_555
C118_2 C113_2 1_555 1_555
H54_2 C118_2 1_555 1_555
C119_2 C117_2 1_555 1_555
C120_2 O33_2 1_555 1_555
Mn14 O27_2 1_555 1_555
O58_2 Mn10 1_555 1_555
O61_2 Mn10 1_555 1_555
O26_2 C91_2 1_555 1_555
C42_2 C43_2 1_555 1_555
C48_2 C52_2 1_555 1_555
C49_2 C50_2 1_555 1_555
C67_2 C68_2 1_555 1_555
C72_2 C73_2 1_555 1_555
C94_2 C95_2 1_555 1_555
C97_2 C98_2 1_555 1_555
C102_2 C103_2 1_555 1_555
C106_2 C107_2 1_555 1_555
C108_2 C112_2 1_555 1_555
C109_2 C110_2 1_555 1_555
C115_2 C120_2 1_555 1_555
C117_2 C118_2 1_555 1_555
O50_2 H81_2 1_555 1_555
O50_2 H82_2 1_555 1_555
O49_2 H83_2 1_555 1_555
C86_3 C85_3 1_555 1_555
H43_3 C86_3 1_555 1_555
O43_3 C141_3 1_555 1_555
O44_3 C142_3 1_555 1_555
O45_2 C150_3 1_555 1_555
O46_2 C150_3 1_555 1_555
O65_2 C149_3 1_555 1_555
O48_2 C149_3 1_555 1_555
N14_3 C141_3 1_555 1_555
H58_3 C134_3 1_555 1_555
C135_3 C134_3 1_555 1_555
H59_3 C135_3 1_555 1_555
C136_3 C135_3 1_555 1_555
C137_3 C131_3 1_555 1_555
C138_3 C137_3 1_555 1_555
C139_3 C138_3 1_555 1_555
H60_3 C139_3 1_555 1_555
C141_3 C136_3 1_555 1_555
C142_3 N14_3 1_555 1_555
C143_3 N14_3 1_555 1_555
C144_3 C143_3 1_555 1_555
H62_3 C144_3 1_555 1_555
C145_3 C144_3 1_555 1_555
C146_3 C145_3 1_555 1_555
H63_3 C146_3 1_555 1_555
C147_3 C146_3 1_555 1_555
C148_3 C143_3 1_555 1_555
H64_3 C148_3 1_555 1_555
C149_3 C145_3 1_555 1_555
C150_3 C147_3 1_555 1_555
Mn7_2 O45_2 1_555 1_555
Mn8 O46_2 1_555 1_555
Mn11 O48_2 1_555 1_555
C136_3 C137_3 1_555 1_555
C138_3 C142_3 1_555 1_555
C147_3 C148_3 1_555 1_555
O21_2 C89_3 1_555 1_555
O22_3 C89_3 1_555 1_555
O38_2 C121_3 1_555 1_555
O61_2 C122_3 1_555 1_555
O40_2 C122_3 1_555 1_555
O41_3 C129_3 1_555 1_555
O42_3 C133_3 1_555 1_555
N13_3 C127_3 1_555 1_555
C121_3 O37_3 1_555 1_555
C122_3 C125_3 1_555 1_555
C123_3 C121_3 1_555 1_555
C124_3 C123_3 1_555 1_555
H55_3 C124_3 1_555 1_555
C125_3 C124_3 1_555 1_555
C126_3 C125_3 1_555 1_555
H56_3 C126_3 1_555 1_555
C127_3 C126_3 1_555 1_555
C128_3 C123_3 1_555 1_555
H57_3 C128_3 1_555 1_555
C129_3 N13_3 1_555 1_555
C130_3 C129_3 1_555 1_555
C133_3 N13_3 1_555 1_555
C140_3 C132_3 1_555 1_555
H61_3 C140_3 1_555 1_555
Mn14 O40_2 1_555 1_555
Mn20 O21_2 1_555 1_555
C127_3 C128_3 1_555 1_555
C132_3 C133_3 1_555 1_555
Mn11 Cl1_3 1_555 1_555
O15_2 C62_3 1_555 1_555
O16_2 C62_3 1_555 1_555
O19_3 C82_3 1_555 1_555
O20_3 C81_3 1_555 1_555
O24 C90_3 1_555 1_555
N10_3 C81_3 1_555 1_555
C62_3 C65_3 1_555 1_555
C66_3 C65_3 1_555 1_555
H36_3 C66_3 1_555 1_555
C72_3 C71_3 1_555 1_555
H39_3 C75_3 1_555 1_555
C76_3 C75_3 1_555 1_555
C77_3 C71_3 1_555 1_555
C78_3 C77_3 1_555 1_555
C79_3 C78_3 1_555 1_555
H40_3 C79_3 1_555 1_555
C80_3 C72_3 1_555 1_555
H41_3 C80_3 1_555 1_555
C81_3 C76_3 1_555 1_555
C82_3 N10_3 1_555 1_555
C83_3 N10_3 1_555 1_555
C84_3 C83_3 1_555 1_555
C88_3 C83_3 1_555 1_555
H44_3 C88_3 1_555 1_555
C90_3 C87_3 1_555 1_555
Mn8 O15_2 1_555 1_555
Mn19 O24 1_555 1_555
O16_2 Mn8 1_555 1_555
C76_3 C77_3 1_555 1_555
C78_3 C82_3 1_555 1_555
C79_3 C80_3 1_555 1_555
C87_3 C88_3 1_555 1_555
Mn1_2 O2_3 1_555 1_555
Mn2_2 O1_3 1_555 1_555
Mn19 O10_3 1_555 1_555
O1_3 C31_3 1_555 1_555
O2_3 C31_3 1_555 1_555
O3_3 C32_3 1_555 1_555
O4_3 C32_3 1_555 1_555
O5_3 C39_3 1_555 1_555
O6_3 C43_3 1_555 1_555
O7_3 C51_3 1_555 1_555
O8_3 C52_3 1_555 1_555
O9_3 C59_3 1_555 1_555
O10_3 C59_3 1_555 1_555
O12_2 C60_3 1_555 1_555
O13_3 Mn1_2 1_555 1_555
O14_3 C61_3 1_555 1_555
O17_3 C73_3 1_555 1_555
O18_3 C69_3 1_555 1_555
O25_3 Mn2_2 1_555 1_555
O26_3 Mn1_2 1_555 1_555
O57_2 C92_3 1_555 1_555
O29_3 C103_3 1_555 1_555
O30_3 C99_3 1_555 1_555
O50_3 Mn2_2 1_555 1_555
N7_3 C37_3 1_555 1_555
N8_3 C51_3 1_555 1_555
N9_3 C67_3 1_555 1_555
N11_3 C97_3 1_555 1_555
C31_3 C35_3 1_555 1_555
C32_3 C33_3 1_555 1_555
C33_3 C34_3 1_555 1_555
C34_3 H25_3 1_555 1_555
C35_3 C34_3 1_555 1_555
C36_3 C35_3 1_555 1_555
H26_3 C36_3 1_555 1_555
C37_3 C36_3 1_555 1_555
C38_3 C33_3 1_555 1_555
H27_3 C38_3 1_555 1_555
C39_3 N7_3 1_555 1_555
C40_3 C39_3 1_555 1_555
C41_3 C40_3 1_555 1_555
C42_3 C41_3 1_555 1_555
C43_3 N7_3 1_555 1_555
C44_3 C40_3 1_555 1_555
H28_3 C44_3 1_555 1_555
C45_3 C44_3 1_555 1_555
H29_3 C45_3 1_555 1_555
C46_3 C45_3 1_555 1_555
C47_3 C41_3 1_555 1_555
C48_3 C47_3 1_555 1_555
C49_3 C48_3 1_555 1_555
H30_3 C49_3 1_555 1_555
C50_3 C42_3 1_555 1_555
H31_3 C50_3 1_555 1_555
C51_3 C46_3 1_555 1_555
C52_3 N8_3 1_555 1_555
C53_3 N8_3 1_555 1_555
C54_3 C53_3 1_555 1_555
H32_3 C54_3 1_555 1_555
C55_3 C54_3 1_555 1_555
C56_3 C55_3 1_555 1_555
H33_3 C56_3 1_555 1_555
C57_3 C56_3 1_555 1_555
C58_3 C53_3 1_555 1_555
H34_3 C58_3 1_555 1_555
C59_3 C55_3 1_555 1_555
C60_3 C57_3 1_555 1_555
C61_3 O13_3 1_555 1_555
C63_3 C61_3 1_555 1_555
C64_3 C63_3 1_555 1_555
H35_3 C64_3 1_555 1_555
C68_3 C63_3 1_555 1_555
H37_3 C68_3 1_555 1_555
C69_3 N9_3 1_555 1_555
C70_3 C69_3 1_555 1_555
C73_3 N9_3 1_555 1_555
C74_3 C70_3 1_555 1_555
H38_3 C74_3 1_555 1_555
C91_3 O25_3 1_555 1_555
C92_3 O28_3 1_555 1_555
C93_3 C92_3 1_555 1_555
C94_3 C93_3 1_555 1_555
H45_3 C94_3 1_555 1_555
C95_3 C91_3 1_555 1_555
C96_3 C95_3 1_555 1_555
H46_3 C96_3 1_555 1_555
C97_3 C96_3 1_555 1_555
C98_3 C93_3 1_555 1_555
H47_3 C98_3 1_555 1_555
C99_3 N11_3 1_555 1_555
C100_3 C99_3 1_555 1_555
C101_3 C100_3 1_555 1_555
C102_3 C101_3 1_555 1_555
C103_3 N11_3 1_555 1_555
C104_3 C100_3 1_555 1_555
H48_3 C104_3 1_555 1_555
O52_2 Mn2_2 1_555 1_555
O53_2 Mn2_2 1_555 1_555
O54_2 Mn19 1_555 1_555
O59_2 Mn19 1_555 1_555
O63_2 Mn1_2 1_555 1_555
O64_2 Mn2_2 1_555 1_555
O26_3 C91_3 1_555 1_555
C37_3 C38_3 1_555 1_555
C42_3 C43_3 1_555 1_555
C46_3 C47_3 1_555 1_555
C48_3 C52_3 1_555 1_555
C49_3 C50_3 1_555 1_555
C57_3 C58_3 1_555 1_555
C67_3 C68_3 1_555 1_555
C94_3 C95_3 1_555 1_555
C97_3 C98_3 1_555 1_555
C102_3 C103_3 1_555 1_555
O50_3 H81_3 1_555 1_555
O50_3 H82_3 1_555 1_555
Mn14 Cl2_3 1_555 1_555
Mn16 O36_3 1_555 1_555
O31_3 C112_3 1_555 1_555
O32_3 C111_3 1_555 1_555
O33_3 Mn14 1_555 1_555
O58_2 C120_3 1_555 1_555
O35_2 C119_3 1_555 1_555
O36_3 C119_3 1_555 1_555
O49_3 Mn16 1_555 1_555
N12_3 C111_3 1_555 1_555
H49_3 C105_3 1_555 1_555
C106_3 C105_3 1_555 1_555
C108_3 C107_3 1_555 1_555
C109_3 C108_3 1_555 1_555
H50_3 C109_3 1_555 1_555
C111_3 C106_3 1_555 1_555
C112_3 N12_3 1_555 1_555
C113_3 N12_3 1_555 1_555
C114_3 C113_3 1_555 1_555
H52_3 C114_3 1_555 1_555
C115_3 C114_3 1_555 1_555
C116_3 C115_3 1_555 1_555
H53_3 C116_3 1_555 1_555
C117_3 C116_3 1_555 1_555
C118_3 C113_3 1_555 1_555
H54_3 C118_3 1_555 1_555
C119_3 C117_3 1_555 1_555
C120_3 O33_3 1_555 1_555
Mn20 O35_2 1_555 1_555
C106_3 C107_3 1_555 1_555
C108_3 C112_3 1_555 1_555
C109_3 C110_3 1_555 1_555
C115_3 C120_3 1_555 1_555
C117_3 C118_3 1_555 1_555
O49_3 H83_3 1_555 1_555
Mn7_2 O2_4 1_555 1_555
Mn8 O1_4 1_555 1_555
Mn12 Cl1_4 1_555 1_555
Mn17 O36_4 1_555 1_555
O1_4 C31_4 1_555 1_555
O2_4 C31_4 1_555 1_555
O5_4 C39_4 1_555 1_555
O6_4 C43_4 1_555 1_555
O8_4 C52_4 1_555 1_555
O13_4 Mn7_2 1_555 1_555
O14_4 C61_4 1_555 1_555
O52_2 C62_4 1_555 1_555
O53_2 C62_4 1_555 1_555
O17_4 C73_4 1_555 1_555
O25_4 Mn8 1_555 1_555
O26_4 Mn7_2 1_555 1_555
O57 C92_4 1_555 1_555
O28_4 Mn12 1_555 1_555
O29_4 C103_4 1_555 1_555
O30_4 C99_4 1_555 1_555
O31_4 C112_4 1_555 1_555
O32_4 C111_4 1_555 1_555
O58 C120_4 1_555 1_555
O59_2 C119_4 1_555 1_555
O36_4 C119_4 1_555 1_555
O49_4 Mn17 1_555 1_555
O50_4 Mn8 1_555 1_555
N7_4 C37_4 1_555 1_555
N9_4 C67_4 1_555 1_555
N11_4 C97_4 1_555 1_555
N12_4 C111_4 1_555 1_555
C31_4 C35_4 1_555 1_555
C34_4 H25_4 1_555 1_555
C35_4 C34_4 1_555 1_555
C36_4 C35_4 1_555 1_555
H26_4 C36_4 1_555 1_555
C37_4 C36_4 1_555 1_555
C39_4 N7_4 1_555 1_555
C40_4 C39_4 1_555 1_555
C41_4 C40_4 1_555 1_555
C42_4 C41_4 1_555 1_555
C43_4 N7_4 1_555 1_555
C44_4 C40_4 1_555 1_555
C47_4 C41_4 1_555 1_555
C48_4 C47_4 1_555 1_555
C49_4 C48_4 1_555 1_555
H30_4 C49_4 1_555 1_555
C50_4 C42_4 1_555 1_555
H31_4 C50_4 1_555 1_555
C61_4 O13_4 1_555 1_555
C62_4 C65_4 1_555 1_555
C63_4 C61_4 1_555 1_555
C64_4 C63_4 1_555 1_555
H35_4 C64_4 1_555 1_555
C65_4 C64_4 1_555 1_555
C66_4 C65_4 1_555 1_555
H36_4 C66_4 1_555 1_555
C67_4 C66_4 1_555 1_555
C68_4 C63_4 1_555 1_555
H37_4 C68_4 1_555 1_555
C69_4 N9_4 1_555 1_555
C73_4 N9_4 1_555 1_555
C80_4 C72_4 1_555 1_555
H41_4 C80_4 1_555 1_555
C91_4 O25_4 1_555 1_555
C92_4 O28_4 1_555 1_555
C93_4 C92_4 1_555 1_555
C94_4 C93_4 1_555 1_555
H45_4 C94_4 1_555 1_555
C95_4 C91_4 1_555 1_555
C96_4 C95_4 1_555 1_555
H46_4 C96_4 1_555 1_555
C97_4 C96_4 1_555 1_555
C98_4 C93_4 1_555 1_555
H47_4 C98_4 1_555 1_555
C99_4 N11_4 1_555 1_555
C100_4 C99_4 1_555 1_555
C101_4 C100_4 1_555 1_555
C102_4 C101_4 1_555 1_555
C103_4 N11_4 1_555 1_555
C104_4 C100_4 1_555 1_555
H48_4 C104_4 1_555 1_555
C105_4 C104_4 1_555 1_555
H49_4 C105_4 1_555 1_555
C106_4 C105_4 1_555 1_555
C107_4 C101_4 1_555 1_555
C108_4 C107_4 1_555 1_555
C109_4 C108_4 1_555 1_555
H50_4 C109_4 1_555 1_555
C110_4 C102_4 1_555 1_555
H51_4 C110_4 1_555 1_555
C111_4 C106_4 1_555 1_555
C112_4 N12_4 1_555 1_555
C113_4 N12_4 1_555 1_555
C114_4 C113_4 1_555 1_555
H52_4 C114_4 1_555 1_555
C115_4 C114_4 1_555 1_555
C116_4 C115_4 1_555 1_555
H53_4 C116_4 1_555 1_555
C117_4 C116_4 1_555 1_555
C118_4 C113_4 1_555 1_555
H54_4 C118_4 1_555 1_555
C119_4 C117_4 1_555 1_555
C120_4 O33_4 1_555 1_555
O66_2 Mn12 1_555 1_555
O26_4 C91_4 1_555 1_555
C42_4 C43_4 1_555 1_555
C48_4 C52_4 1_555 1_555
C49_4 C50_4 1_555 1_555
C67_4 C68_4 1_555 1_555
C72_4 C73_4 1_555 1_555
C94_4 C95_4 1_555 1_555
C97_4 C98_4 1_555 1_555
C102_4 C103_4 1_555 1_555
C106_4 C107_4 1_555 1_555
C108_4 C112_4 1_555 1_555
C109_4 C110_4 1_555 1_555
C115_4 C120_4 1_555 1_555
C117_4 C118_4 1_555 1_555
O50_4 H81_4 1_555 1_555
O50_4 H82_4 1_555 1_555
O49_4 H83_4 1_555 1_555
O7_4 C51_4 1_555 1_555
O51_2 C60_4 1_555 1_555
O19_4 C82_4 1_555 1_555
O20_4 C81_4 1_555 1_555
O24_2 C90_4 1_555 1_555
N8_4 C51_4 1_555 1_555
N10_4 C81_4 1_555 1_555
H29_4 C45_4 1_555 1_555
C46_4 C45_4 1_555 1_555
C51_4 C46_4 1_555 1_555
C53_4 N8_4 1_555 1_555
H33_4 C56_4 1_555 1_555
C57_4 C56_4 1_555 1_555
C58_4 C53_4 1_555 1_555
H34_4 C58_4 1_555 1_555
C60_4 C57_4 1_555 1_555
C71_4 C70_4 1_555 1_555
C74_4 C70_4 1_555 1_555
H38_4 C74_4 1_555 1_555
C75_4 C74_4 1_555 1_555
H39_4 C75_4 1_555 1_555
C76_4 C75_4 1_555 1_555
C77_4 C71_4 1_555 1_555
C78_4 C77_4 1_555 1_555
C79_4 C78_4 1_555 1_555
H40_4 C79_4 1_555 1_555
C81_4 C76_4 1_555 1_555
C82_4 N10_4 1_555 1_555
C83_4 N10_4 1_555 1_555
C84_4 C83_4 1_555 1_555
H42_4 C84_4 1_555 1_555
C88_4 C83_4 1_555 1_555
H44_4 C88_4 1_555 1_555
C90_4 C87_4 1_555 1_555
Mn20 O24_2 1_555 1_555
C57_4 C58_4 1_555 1_555
C76_4 C77_4 1_555 1_555
C78_4 C82_4 1_555 1_555
C87_4 C88_4 1_555 1_555
Mn15 Cl2_4 1_555 1_555
O3_4 C32_4 1_555 1_555
O4_4 C32_4 1_555 1_555
C32_4 C33_4 1_555 1_555
C38_4 C33_4 1_555 1_555
H27_4 C38_4 1_555 1_555
O62_2 Mn15 1_555 1_555
Mn20 O10_4 1_555 1_555
O9_4 C59_4 1_555 1_555
O10_4 C59_4 1_555 1_555
H32_4 C54_4 1_555 1_555
C55_4 C54_4 1_555 1_555
C59_4 C55_4 1_555 1_555
O54_2 C89_4 1_555 1_555
O22_4 C89_4 1_555 1_555
C86_4 C85_4 1_555 1_555
H43_4 C86_4 1_555 1_555
C89_4 C85_4 1_555 1_555
O60_2 C121_4 1_555 1_555
O61 C122_4 1_555 1_555
O62_2 C122_4 1_555 1_555
O41_4 C129_4 1_555 1_555
O42_4 C133_4 1_555 1_555
O43_4 C141_4 1_555 1_555
O44_4 C142_4 1_555 1_555
O63_2 C150_4 1_555 1_555
O64_2 C150_4 1_555 1_555
O65 C149_4 1_555 1_555
O66_2 C149_4 1_555 1_555
N13_4 C127_4 1_555 1_555
N14_4 C141_4 1_555 1_555
C121_4 O37_4 1_555 1_555
C122_4 C125_4 1_555 1_555
C123_4 C121_4 1_555 1_555
C124_4 C123_4 1_555 1_555
H55_4 C124_4 1_555 1_555
C125_4 C124_4 1_555 1_555
C126_4 C125_4 1_555 1_555
H56_4 C126_4 1_555 1_555
C127_4 C126_4 1_555 1_555
C128_4 C123_4 1_555 1_555
H57_4 C128_4 1_555 1_555
C129_4 N13_4 1_555 1_555
C130_4 C129_4 1_555 1_555
C131_4 C130_4 1_555 1_555
C132_4 C131_4 1_555 1_555
C133_4 N13_4 1_555 1_555
C134_4 C130_4 1_555 1_555
H58_4 C134_4 1_555 1_555
C135_4 C134_4 1_555 1_555
H59_4 C135_4 1_555 1_555
C136_4 C135_4 1_555 1_555
C137_4 C131_4 1_555 1_555
C138_4 C137_4 1_555 1_555
C139_4 C138_4 1_555 1_555
H60_4 C139_4 1_555 1_555
C140_4 C132_4 1_555 1_555
H61_4 C140_4 1_555 1_555
C141_4 C136_4 1_555 1_555
C142_4 N14_4 1_555 1_555
C143_4 N14_4 1_555 1_555
C144_4 C143_4 1_555 1_555
H62_4 C144_4 1_555 1_555
C145_4 C144_4 1_555 1_555
C146_4 C145_4 1_555 1_555
H63_4 C146_4 1_555 1_555
C147_4 C146_4 1_555 1_555
C148_4 C143_4 1_555 1_555
H64_4 C148_4 1_555 1_555
C149_4 C145_4 1_555 1_555
C150_4 C147_4 1_555 1_555
C127_4 C128_4 1_555 1_555
C132_4 C133_4 1_555 1_555
C136_4 C137_4 1_555 1_555
C138_4 C142_4 1_555 1_555
C139_4 C140_4 1_555 1_555
C147_4 C148_4 1_555 1_555
N15 H65 1_555 1_555
H66 N15 1_555 1_555
C151 N15 1_555 1_555
H67 C151 1_555 1_555
H68 C151 1_555 1_555
H69 C151 1_555 1_555
C152 N15 1_555 1_555
H70 C152 1_555 1_555
H71 C152 1_555 1_555
H72 C152 1_555 1_555
H67_2 C151_2 1_555 1_555
H68_2 C151_2 1_555 1_555
H69_2 C151_2 1_555 1_555
N15_2 H65_2 1_555 1_555
H66_2 N15_2 1_555 1_555
C152_2 N15_2 1_555 1_555
H70_2 C152_2 1_555 1_555
H71_2 C152_2 1_555 1_555
H72_2 C152_2 1_555 1_555
N15_3 H65_3 1_555 1_555
H66_3 N15_3 1_555 1_555
C151_3 N15_3 1_555 1_555
H67_3 C151_3 1_555 1_555
H68_3 C151_3 1_555 1_555
H69_3 C151_3 1_555 1_555
C152_3 N15_3 1_555 1_555
H70_3 C152_3 1_555 1_555
H71_3 C152_3 1_555 1_555
H72_3 C152_3 1_555 1_555
N15_4 H65_4 1_555 1_555
H66_4 N15_4 1_555 1_555
C152_4 N15_4 1_555 1_555
H70_4 C152_4 1_555 1_555
H71_4 C152_4 1_555 1_555
H72_4 C152_4 1_555 1_555
H67_4 C151_4 1_555 1_555
H68_4 C151_4 1_555 1_555
H69_4 C151_4 1_555 1_555
N16 H73 1_555 1_555
H74 N16 1_555 1_555
C153 N16 1_555 1_555
H75 C153 1_555 1_555
H76 C153 1_555 1_555
H77 C153 1_555 1_555
C154 N16 1_555 1_555
H78 C154 1_555 1_555
H79 C154 1_555 1_555
H80 C154 1_555 1_555
N16_2 H73_2 1_555 1_555
H74_2 N16_2 1_555 1_555
C153_2 N16_2 1_555 1_555
H75_2 C153_2 1_555 1_555
H76_2 C153_2 1_555 1_555
H77_2 C153_2 1_555 1_555
C154_2 N16_2 1_555 1_555
H78_2 C154_2 1_555 1_555
H79_2 C154_2 1_555 1_555
H80_2 C154_2 1_555 1_555
N16_3 H73_3 1_555 1_555
H74_3 N16_3 1_555 1_555
C153_3 N16_3 1_555 1_555
H75_3 C153_3 1_555 1_555
H76_3 C153_3 1_555 1_555
H77_3 C153_3 1_555 1_555
C154_3 N16_3 1_555 1_555
H78_3 C154_3 1_555 1_555
H79_3 C154_3 1_555 1_555
H80_3 C154_3 1_555 1_555
N16_4 H73_4 1_555 1_555
H74_4 N16_4 1_555 1_555
C153_4 N16_4 1_555 1_555
H75_4 C153_4 1_555 1_555
H76_4 C153_4 1_555 1_555
H77_4 C153_4 1_555 1_555
C154_4 N16_4 1_555 1_555
H78_4 C154_4 1_555 1_555
H79_4 C154_4 1_555 1_555
H80_4 C154_4 1_555 1_555

#END
