
###############################################################################
#
# This file contains modified crystal structure data generated from the
# MOF subset of the Cambridge Structural Database (CSD) v543 
# hosted by the Cambridge Crystallographic Data Centre (CCDC).
#
# This work is licensed under the Creative Commons
# Attribution-NonCommercial-ShareAlike 4.0 International License.
# To view a copy of this license, visit
# http://creativecommons.org/licenses/by-nc-sa/4.0/
# or send a letter to
# Creative Commons, PO Box 1866, Mountain View, CA 94042, USA.
#
# CIF created using the CSD Python API on 29 September 2022
# The structure has been converted into the P1 space group
# The structure has a 3D framework
# The original CSD entry RERVIW is in the monoclinic crystal system
# The framework has been calculated to contain at least 10.0% void space
# The void calculation uses a probe of radius 1.32A, grid spacing 0.4
# The framework is charged, counterions have been retained in the structure
# H atom positions have been added when not included in the experimental data
#
###############################################################################

data_RERVIW
_chemical_formula_moiety         '(C264 H184 Cl4 Mn12 N28 O98)n'
_symmetry_cell_setting           triclinic
_symmetry_space_group_name_H-M   'P 1'
_symmetry_Int_Tables_number      1
_space_group_name_Hall           'P 1'
loop_
_symmetry_equiv_pos_site_id
_symmetry_equiv_pos_as_xyz
1 x,y,z
_cell_length_a                   18.6552(3)
_cell_length_b                   21.15630(10)
_cell_length_c                   33.4582(5)
_cell_angle_alpha                90
_cell_angle_beta                 127.765(2)
_cell_angle_gamma                90
_cell_volume                     10439
loop_
_atom_site_label
_atom_site_type_symbol
_atom_site_fract_x
_atom_site_fract_y
_atom_site_fract_z
Mn3 Mn 0.53092(4) 0.24530(3) 0.68298(3)
O7 O 0.19985(19) 0.18858(14) 0.73700(12)
O8 O 0.0304(3) 0.33057(18) 0.61054(14)
O9 O 0.0131(2) 0.08316(14) 0.54337(11)
O10 O 0.12959(19) 0.07305(13) 0.54088(10)
O11 O 0.35307(19) 0.31796(13) 0.65475(12)
O12 O 0.38913(19) 0.22442(16) 0.64129(14)
O25 O 0.5105(3) 0.2793(3) 0.61275(19)
N2 N 0.1079(2) 0.25518(15) 0.67140(13)
C10 C 0.0077(3) 0.2832(2) 0.78014(16)
C14 C 0.0721(3) 0.2360(2) 0.80234(19)
H4 H 0.086444 0.214978 0.831500
C15 C 0.1162(3) 0.2191(2) 0.78220(18)
H5 H 0.160698 0.186661 0.797851
C16 C 0.0959(3) 0.24897(19) 0.73979(16)
C17 C 0.0310(3) 0.29704(18) 0.71675(15)
C18 C 0.0079(3) 0.32824(19) 0.67281(17)
C21 C 0.1400(3) 0.22808(18) 0.71721(16)
C22 C 0.0489(3) 0.3067(2) 0.64880(17)
C23 C 0.1428(2) 0.23053(18) 0.64591(15)
C24 C 0.0990(2) 0.18006(18) 0.61332(14)
H8 H 0.045885 0.162708 0.606935
C25 C 0.1338(2) 0.15505(17) 0.59002(14)
C26 C 0.2115(2) 0.18074(17) 0.59968(14)
H9 H 0.235852 0.163033 0.584207
C27 C 0.2539(2) 0.23237(18) 0.63197(15)
C28 C 0.2188(2) 0.25751(18) 0.65524(16)
H10 H 0.247004 0.292818 0.677248
C29 C 0.3386(3) 0.2598(2) 0.64346(17)
C30 C 0.0888(2) 0.09901(18) 0.55542(14)
Mn5 Mn 0.43252(4) 0.36046(3) 0.72670(2)
Mn7 Mn 0.08228(3) 0.50993(2) 0.99615(2)
O26 O 0.56729(18) 0.34054(13) 0.71130(11)
O31 O 0.5454(2) 0.13807(16) 0.67808(17)
O32 O 0.6655(2) 0.19826(14) 0.71325(15)
O34 O 0.55190(19) 0.22942(13) 0.75295(13)
H45 H 0.467684 0.315525 0.598057
H46 H 0.569597 0.292912 0.621606
Mn8 Mn 0.08228(3) 0.99007(2) 0.49615(2)
O28 O 0.01846(18) 0.95179(15) 0.56446(10)
Mn9 Mn 0.91772(3) 0.49007(2) 0.00385(2)
Mn2 Mn 0.91772(3) 0.00993(2) 0.50385(2)
Cl1 Cl 0.81218(7) 0.02735(7) 0.52005(4)
O1 O 0.57186(17) 0.37745(13) 0.77487(11)
O3 O 0.86037(19) 0.44223(14) 0.93407(10)
O4 O 0.98154(18) 0.45179(15) 0.93554(10)
O5 O 0.9746(3) 0.2731(2) 0.83774(15)
O6 O 0.8101(2) 0.41900(14) 0.71291(12)
O13 O 0.3915(2) 0.41097(16) 0.76345(14)
O14 O 0.2504(3) 0.3777(2) 0.72051(17)
O15 O 0.4546(2) 0.63807(16) 0.82192(17)
O16 O 0.3345(2) 0.69826(14) 0.78675(15)
O17 O 0.17818(19) 0.52358(17) 0.84363(12)
O18 O 0.0178(2) 0.5534(2) 0.67471(13)
N1 N 0.8955(2) 0.34790(18) 0.77698(13)
N3 N 0.0975(2) 0.53827(15) 0.75939(13)
C1 C 0.6091(2) 0.36165(17) 0.75537(15)
C2 C 0.9014(2) 0.43619(17) 0.91560(14)
C3 C 0.7550(3) 0.35373(18) 0.76774(15)
H1 H 0.723002 0.335189 0.735138
C4 C 0.7098(2) 0.37092(16) 0.78684(14)
C5 C 0.7571(2) 0.39656(17) 0.83486(14)
H2 H 0.725708 0.406962 0.848073
C6 C 0.8502(2) 0.40727(18) 0.86404(14)
C7 C 0.8951(3) 0.3908(2) 0.84439(15)
H3 H 0.958509 0.397904 0.863624
C8 C 0.8477(3) 0.36397(19) 0.79689(16)
C9 C 0.9595(3) 0.2988(2) 0.80130(18)
C11 C 0.9864(3) 0.31482(19) 0.73732(15)
C12 C 0.9199(3) 0.36305(19) 0.71324(16)
C13 C 0.8705(3) 0.3802(2) 0.73353(17)
C19 C 0.9444(3) 0.3755(2) 0.65074(19)
H6 H 0.930115 0.396588 0.621599
C20 C 0.9003(3) 0.3927(2) 0.67150(18)
H7 H 0.856381 0.425544 0.656119
C31 C 0.3113(3) 0.4154(2) 0.7479(2)
C32 C 0.3704(3) 0.6448(2) 0.7983(2)
C33 C 0.3404(3) 0.5299(2) 0.77667(17)
H11 H 0.396505 0.527837 0.781902
C34 C 0.3125(3) 0.5866(2) 0.78412(18)
C35 C 0.2319(3) 0.58944(19) 0.77776(18)
H12 H 0.211954 0.628250 0.782216
C36 C 0.1810(3) 0.53543(18) 0.76492(16)
C37 C 0.2063(3) 0.47893(19) 0.75590(16)
H13 H 0.169084 0.442550 0.745927
C38 C 0.2863(3) 0.4757(2) 0.76148(16)
C39 C 0.1048(3) 0.53276(19) 0.80353(16)
C40 C 0.0176(3) 0.5488(2) 0.71092(16)
C43 C 0.0195(2) 0.53753(18) 0.79764(15)
C44 C 0.0221(3) 0.53240(19) 0.83953(15)
H14 H 0.078206 0.525095 0.871854
Mn12 Mn 0.46908(4) 0.74530(3) 0.81702(3)
O27 O 0.86037(19) 0.05777(14) 0.43407(10)
O33 O 0.44098(19) 0.26558(12) 0.75434(12)
O35 O 0.4111(2) 0.44439(14) 0.68376(13)
O29 O 0.87041(19) 0.92695(13) 0.45912(10)
O19 O 0.77458(17) 0.55146(13) 0.81841(10)
O20 O 0.6152(2) 0.5780(2) 0.64899(12)
O21 O 0.55902(19) 0.76558(12) 0.74566(12)
O22 O 0.44810(19) 0.72942(13) 0.74705(13)
O24 O 0.3178(2) 0.52151(16) 0.67133(13)
N4 N 0.6947(2) 0.56388(15) 0.73366(12)
C41 C 0.9328(3) 0.55391(19) 0.70605(15)
C42 C 0.9370(2) 0.54856(17) 0.74940(14)
C45 C 0.9415(3) 0.53797(19) 0.83450(15)
H15 H 0.943395 0.534683 0.863461
C46 C 0.8604(2) 0.54815(17) 0.78776(14)
C47 C 0.8561(2) 0.55338(16) 0.74439(14)
C48 C 0.7728(3) 0.56305(19) 0.69557(15)
C49 C 0.7709(3) 0.5680(2) 0.65413(16)
H16 H 0.714715 0.574506 0.621696
C50 C 0.8504(3) 0.5637(2) 0.65890(16)
H17 H 0.848190 0.567379 0.629854
C51 C 0.6881(3) 0.5693(2) 0.68996(15)
C52 C 0.7763(2) 0.55490(17) 0.78312(15)
C53 C 0.6135(2) 0.57886(18) 0.72860(14)
C54 C 0.6017(2) 0.63983(18) 0.73738(15)
H18 H 0.646834 0.670750 0.747461
C55 C 0.5236(2) 0.65640(17) 0.73150(14)
C56 C 0.4576(2) 0.61031(17) 0.71550(14)
H19 H 0.404044 0.621160 0.711416
C57 C 0.4686(2) 0.54893(17) 0.70542(14)
C58 C 0.5483(3) 0.53288(18) 0.71303(14)
H20 H 0.558083 0.490714 0.707611
C59 C 0.5089(3) 0.72201(18) 0.74205(16)
C60 C 0.3937(3) 0.50106(19) 0.68590(16)
Mn6 Mn 0.56748(4) 0.86046(3) 0.77330(2)
O19_2 O 0.22542(17) 0.05146(13) 0.68159(10)
O20_2 O 0.3848(2) 0.0780(2) 0.85101(12)
O24_2 O 0.6822(2) 0.02151(16) 0.82867(13)
N4_2 N 0.3053(2) 0.06388(15) 0.76634(12)
C41_2 C 0.0672(3) 0.05391(19) 0.79395(15)
C42_2 C 0.0630(2) 0.04856(17) 0.75060(14)
C45_2 C 0.0585(3) 0.03797(19) 0.66550(15)
H15_2 H 0.056605 0.034683 0.636539
C46_2 C 0.1396(2) 0.04815(17) 0.71224(14)
C47_2 C 0.1439(2) 0.05338(16) 0.75561(14)
C48_2 C 0.2272(3) 0.06305(19) 0.80443(15)
C49_2 C 0.2291(3) 0.0680(2) 0.84587(16)
H16_2 H 0.285285 0.074506 0.878304
C50_2 C 0.1496(3) 0.0637(2) 0.84110(16)
H17_2 H 0.151810 0.067379 0.870146
C51_2 C 0.3119(3) 0.0693(2) 0.81004(15)
C52_2 C 0.2237(2) 0.05490(17) 0.71688(15)
C53_2 C 0.3865(2) 0.07886(18) 0.77140(14)
C54_2 C 0.3983(2) 0.13983(18) 0.76262(15)
H18_2 H 0.353166 0.170750 0.752539
C55_2 C 0.4764(2) 0.15640(17) 0.76850(14)
C56_2 C 0.5424(2) 0.11031(17) 0.78450(14)
H19_2 H 0.595956 0.121160 0.788584
C57_2 C 0.5314(2) 0.04893(17) 0.79458(14)
C58_2 C 0.4517(3) 0.03288(18) 0.78697(14)
C59_2 C 0.4911(3) 0.22201(18) 0.75795(16)
C60_2 C 0.6063(3) 0.00106(19) 0.81410(16)
O23 O 0.5889(2) 0.94439(14) 0.81624(13)
H20_2 H 0.441917 0.990714 0.792389
O17_2 O 0.82182(19) 0.02358(17) 0.65637(12)
O18_2 O 0.9822(2) 0.0534(2) 0.82529(13)
N3_2 N 0.9025(2) 0.03827(15) 0.74061(13)
C32_2 C 0.6296(3) 0.1448(2) 0.7017(2)
C33_2 C 0.6596(3) 0.0299(2) 0.72333(17)
H11_2 H 0.603495 0.027837 0.718098
C34_2 C 0.6875(3) 0.0866(2) 0.71588(18)
C35_2 C 0.7681(3) 0.08944(19) 0.72224(18)
H12_2 H 0.788046 0.128250 0.717784
C36_2 C 0.8190(3) 0.03543(18) 0.73508(16)
C39_2 C 0.8952(3) 0.03276(19) 0.69647(16)
C40_2 C 0.9824(3) 0.0488(2) 0.78908(16)
C43_2 C 0.9805(2) 0.03753(18) 0.70236(15)
C44_2 C 0.9779(3) 0.03240(19) 0.66047(15)
H14_2 H 0.921794 0.025095 0.628146
O27_2 O 0.13963(19) 0.55777(14) 0.06593(10)
O29_2 O 0.12959(19) 0.42695(13) 0.04088(10)
Cl1_2 Cl 0.18782(7) 0.52735(7) 0.97995(4)
O1_2 O 0.42814(17) 0.87745(13) 0.72513(11)
O2 O 0.43271(18) 0.84054(13) 0.78870(11)
O3_2 O 0.13963(19) 0.94223(14) 0.56593(10)
O5_2 O 0.0254(3) 0.7731(2) 0.66226(15)
O6_2 O 0.1899(2) 0.91900(14) 0.78709(12)
O13_2 O 0.6085(2) 0.91097(16) 0.73655(14)
O14_2 O 0.7496(3) 0.8777(2) 0.77949(17)
N1_2 N 0.1045(2) 0.84790(18) 0.72302(13)
C1_2 C 0.3909(2) 0.86165(17) 0.74463(15)
C2_2 C 0.0986(2) 0.93619(17) 0.58440(14)
C3_2 C 0.2450(3) 0.85373(18) 0.73226(15)
H1_2 H 0.276998 0.835189 0.764862
C4_2 C 0.2902(2) 0.87092(16) 0.71316(14)
C5_2 C 0.2429(2) 0.89656(17) 0.66514(14)
H2_2 H 0.274292 0.906962 0.651927
C6_2 C 0.1498(2) 0.90727(18) 0.63596(14)
C7_2 C 0.1049(3) 0.8908(2) 0.65561(15)
H3_2 H 0.041491 0.897904 0.636376
C8_2 C 0.1523(3) 0.86397(19) 0.70311(16)
C9_2 C 0.0405(3) 0.7988(2) 0.69870(18)
C11_2 C 0.0136(3) 0.81482(19) 0.76268(15)
C12_2 C 0.0801(3) 0.86305(19) 0.78676(16)
C13_2 C 0.1295(3) 0.8802(2) 0.76647(17)
C19_2 C 0.0556(3) 0.8755(2) 0.84926(19)
H6_2 H 0.069885 0.896588 0.878401
C20_2 C 0.0997(3) 0.8927(2) 0.82850(18)
H7_2 H 0.143619 0.925544 0.843881
C31_2 C 0.6887(3) 0.9154(2) 0.7521(2)
C37_2 C 0.7937(3) 0.97893(19) 0.74410(16)
H13_2 H 0.830916 0.942550 0.754073
C38_2 C 0.7137(3) 0.9757(2) 0.73852(16)
O30 O 0.64693(19) 0.81796(13) 0.84525(12)
O7_2 O 0.80015(19) 0.68858(14) 0.76300(12)
O8_2 O 0.9696(3) 0.83057(18) 0.88946(14)
O9_2 O 0.9869(2) 0.58316(14) 0.95663(11)
O10_2 O 0.87041(19) 0.57305(13) 0.95912(10)
O12_2 O 0.61087(19) 0.72442(16) 0.85871(14)
O25_2 O 0.4895(3) 0.7793(3) 0.88725(19)
N2_2 N 0.8921(2) 0.75518(15) 0.82860(13)
C10_2 C 0.9923(3) 0.7832(2) 0.71986(16)
C14_2 C 0.9279(3) 0.7360(2) 0.69766(19)
H4_2 H 0.913556 0.714978 0.668500
C15_2 C 0.8838(3) 0.7191(2) 0.71780(18)
H5_2 H 0.839302 0.686661 0.702149
C16_2 C 0.9041(3) 0.74897(19) 0.76021(16)
C17_2 C 0.9690(3) 0.79704(18) 0.78325(15)
C18_2 C 0.9921(3) 0.82824(19) 0.82719(17)
C21_2 C 0.8600(3) 0.72808(18) 0.78279(16)
C22_2 C 0.9511(3) 0.8067(2) 0.85120(17)
C23_2 C 0.8572(2) 0.73053(18) 0.85409(15)
C24_2 C 0.9010(2) 0.68006(18) 0.88668(14)
H8_2 H 0.954115 0.662708 0.893065
C25_2 C 0.8662(2) 0.65505(17) 0.90998(14)
C26_2 C 0.7885(2) 0.68074(17) 0.90032(14)
H9_2 H 0.764148 0.663033 0.915793
C27_2 C 0.7461(2) 0.73237(18) 0.86803(15)
C28_2 C 0.7812(2) 0.75751(18) 0.84476(16)
H10_2 H 0.752996 0.792818 0.822752
C29_2 C 0.6614(3) 0.7598(2) 0.85654(17)
C30_2 C 0.9112(2) 0.59901(18) 0.94458(14)
H45_2 H 0.532316 0.815525 0.901943
H46_2 H 0.430403 0.792912 0.878394
O19_3 O 0.22542(17) 0.44854(13) 0.18159(10)
O20_3 O 0.3848(2) 0.4220(2) 0.35101(12)
O21_2 O 0.44098(19) 0.23442(12) 0.25434(12)
O22_2 O 0.55190(19) 0.27058(13) 0.25295(13)
O23_2 O 0.5889(2) 0.55561(14) 0.31624(13)
O24_3 O 0.6822(2) 0.47849(16) 0.32867(13)
N4_3 N 0.3053(2) 0.43612(15) 0.26634(12)
C41_3 C 0.0672(3) 0.44609(19) 0.29395(15)
C42_3 C 0.0630(2) 0.45144(17) 0.25060(14)
C45_3 C 0.0585(3) 0.46203(19) 0.16550(15)
H15_3 H 0.056605 0.465317 0.136539
C46_3 C 0.1396(2) 0.45185(17) 0.21224(14)
C47_3 C 0.1439(2) 0.44662(16) 0.25561(14)
C48_3 C 0.2272(3) 0.43695(19) 0.30443(15)
C49_3 C 0.2291(3) 0.4320(2) 0.34587(16)
H16_3 H 0.285285 0.425494 0.378304
C50_3 C 0.1496(3) 0.4363(2) 0.34110(16)
H17_3 H 0.151810 0.432621 0.370146
C51_3 C 0.3119(3) 0.4307(2) 0.31004(15)
C52_3 C 0.2237(2) 0.44510(17) 0.21688(15)
C53_3 C 0.3865(2) 0.42114(18) 0.27140(14)
C54_3 C 0.3983(2) 0.36017(18) 0.26262(15)
H18_3 H 0.353166 0.329250 0.252539
C55_3 C 0.4764(2) 0.34360(17) 0.26850(14)
C56_3 C 0.5424(2) 0.38969(17) 0.28450(14)
H19_3 H 0.595956 0.378840 0.288584
C57_3 C 0.5314(2) 0.45107(17) 0.29458(14)
C58_3 C 0.4517(3) 0.46712(18) 0.28697(14)
H20_3 H 0.441917 0.509286 0.292389
C59_3 C 0.4911(3) 0.27799(18) 0.25795(16)
C60_3 C 0.6063(3) 0.49894(19) 0.31410(16)
Mn4 Mn 0.56748(4) 0.63954(3) 0.27330(2)
Mn6_2 Mn 0.43252(4) 0.13954(3) 0.22670(2)
Mn11 Mn 0.53092(4) 0.25470(3) 0.18298(3)
Cl1_3 Cl 0.18782(7) 0.97265(7) 0.47995(4)
O1_3 O 0.42814(17) 0.62255(13) 0.22513(11)
O2_2 O 0.43271(18) 0.65946(13) 0.28870(11)
O4_2 O 0.01846(18) 0.54821(15) 0.06446(10)
O5_3 O 0.0254(3) 0.7269(2) 0.16226(15)
O6_3 O 0.1899(2) 0.58100(14) 0.28709(12)
O13_3 O 0.6085(2) 0.58903(16) 0.23655(14)
O14_3 O 0.7496(3) 0.6223(2) 0.27949(17)
O15_2 O 0.5454(2) 0.36193(16) 0.17808(17)
O16_2 O 0.6655(2) 0.30174(14) 0.21325(15)
O17_3 O 0.82182(19) 0.47642(17) 0.15637(12)
O18_3 O 0.9822(2) 0.4466(2) 0.32529(13)
N1_3 N 0.1045(2) 0.65210(18) 0.22302(13)
N3_3 N 0.9025(2) 0.46173(15) 0.24061(13)
C1_3 C 0.3909(2) 0.63835(17) 0.24463(15)
C2_3 C 0.0986(2) 0.56381(17) 0.08440(14)
C3_3 C 0.2450(3) 0.64627(18) 0.23226(15)
H1_3 H 0.276998 0.664811 0.264862
C4_3 C 0.2902(2) 0.62908(16) 0.21316(14)
C5_3 C 0.2429(2) 0.60344(17) 0.16514(14)
H2_3 H 0.274292 0.593038 0.151927
C6_3 C 0.1498(2) 0.59273(18) 0.13596(14)
C7_3 C 0.1049(3) 0.6092(2) 0.15561(15)
H3_3 H 0.041491 0.602096 0.136376
C8_3 C 0.1523(3) 0.63603(19) 0.20311(16)
C9_3 C 0.0405(3) 0.7012(2) 0.19870(18)
C11_3 C 0.0136(3) 0.68518(19) 0.26268(15)
C12_3 C 0.0801(3) 0.63695(19) 0.28676(16)
C13_3 C 0.1295(3) 0.6198(2) 0.26647(17)
C19_3 C 0.0556(3) 0.6245(2) 0.34926(19)
H6_3 H 0.069885 0.603412 0.378401
C20_3 C 0.0997(3) 0.6073(2) 0.32850(18)
H7_3 H 0.143619 0.574456 0.343881
C31_3 C 0.6887(3) 0.5846(2) 0.2521(2)
C32_3 C 0.6296(3) 0.3552(2) 0.2017(2)
C33_3 C 0.6596(3) 0.4701(2) 0.22333(17)
H11_3 H 0.603495 0.472163 0.218098
C34_3 C 0.6875(3) 0.4134(2) 0.21588(18)
C35_3 C 0.7681(3) 0.41056(19) 0.22224(18)
H12_3 H 0.788046 0.371750 0.217784
C36_3 C 0.8190(3) 0.46457(18) 0.23508(16)
C37_3 C 0.7937(3) 0.52107(19) 0.24410(16)
H13_3 H 0.830916 0.557450 0.254073
C38_3 C 0.7137(3) 0.5243(2) 0.23852(16)
C39_3 C 0.8952(3) 0.46724(19) 0.19647(16)
C40_3 C 0.9824(3) 0.4512(2) 0.28908(16)
C43_3 C 0.9805(2) 0.46247(18) 0.20236(15)
C44_3 C 0.9779(3) 0.46760(19) 0.16047(15)
H14_3 H 0.921794 0.474905 0.128146
Mn10 Mn 0.46908(4) 0.75470(3) 0.31702(3)
O30_2 O 0.64693(19) 0.68204(13) 0.34525(12)
O33_2 O 0.55902(19) 0.73442(12) 0.24566(12)
O28_2 O 0.98154(18) 0.04821(15) 0.43554(10)
O7_3 O 0.80015(19) 0.81142(14) 0.26300(12)
O8_3 O 0.9696(3) 0.66943(18) 0.38946(14)
O9_3 O 0.9869(2) 0.91684(14) 0.45663(11)
O12_3 O 0.61087(19) 0.77558(16) 0.35871(14)
O25_3 O 0.4895(3) 0.7207(3) 0.38725(19)
N2_3 N 0.8921(2) 0.74482(15) 0.32860(13)
C10_3 C 0.9923(3) 0.7168(2) 0.21986(16)
C14_3 C 0.9279(3) 0.7640(2) 0.19766(19)
H4_3 H 0.913556 0.785022 0.168500
C15_3 C 0.8838(3) 0.7809(2) 0.21780(18)
H5_3 H 0.839302 0.813339 0.202149
C16_3 C 0.9041(3) 0.75103(19) 0.26021(16)
C17_3 C 0.9690(3) 0.70296(18) 0.28325(15)
C18_3 C 0.9921(3) 0.67176(19) 0.32719(17)
C21_3 C 0.8600(3) 0.77192(18) 0.28279(16)
C22_3 C 0.9511(3) 0.6933(2) 0.35120(17)
C23_3 C 0.8572(2) 0.76947(18) 0.35409(15)
C24_3 C 0.9010(2) 0.81994(18) 0.38668(14)
H8_3 H 0.954115 0.837292 0.393065
C25_3 C 0.8662(2) 0.84495(17) 0.40998(14)
C26_3 C 0.7885(2) 0.81926(17) 0.40032(14)
H9_3 H 0.764148 0.836967 0.415793
C27_3 C 0.7461(2) 0.76763(18) 0.36803(15)
C28_3 C 0.7812(2) 0.74249(18) 0.34476(16)
H10_3 H 0.752996 0.707182 0.322752
C29_3 C 0.6614(3) 0.7402(2) 0.35654(17)
C30_3 C 0.9112(2) 0.90099(18) 0.44458(14)
O31_2 O 0.4546(2) 0.86193(16) 0.32192(17)
O32_2 O 0.3345(2) 0.80174(14) 0.28675(15)
O34_2 O 0.44810(19) 0.77058(13) 0.24705(13)
H45_3 H 0.532316 0.684475 0.401943
H46_3 H 0.430403 0.707088 0.378394
O7_4 O 0.19985(19) 0.31142(14) 0.23700(12)
O8_4 O 0.0304(3) 0.16943(18) 0.11054(14)
O9_4 O 0.0131(2) 0.41684(14) 0.04337(11)
O11_2 O 0.35307(19) 0.18204(13) 0.15475(12)
O12_4 O 0.38913(19) 0.27558(16) 0.14129(14)
O25_4 O 0.5105(3) 0.2207(3) 0.11275(19)
N2_4 N 0.1079(2) 0.24482(15) 0.17140(13)
C10_4 C 0.0077(3) 0.2168(2) 0.28014(16)
C14_4 C 0.0721(3) 0.2640(2) 0.30234(19)
H4_4 H 0.086444 0.285022 0.331500
C15_4 C 0.1162(3) 0.2809(2) 0.28220(18)
H5_4 H 0.160698 0.313339 0.297851
C16_4 C 0.0959(3) 0.25103(19) 0.23979(16)
C17_4 C 0.0310(3) 0.20296(18) 0.21675(15)
C18_4 C 0.0079(3) 0.17176(19) 0.17281(17)
C21_4 C 0.1400(3) 0.27192(18) 0.21721(16)
C22_4 C 0.0489(3) 0.1933(2) 0.14880(17)
C23_4 C 0.1428(2) 0.26947(18) 0.14591(15)
C24_4 C 0.0990(2) 0.31994(18) 0.11332(14)
H8_4 H 0.045885 0.337292 0.106935
C25_4 C 0.1338(2) 0.34495(17) 0.09002(14)
C26_4 C 0.2115(2) 0.31926(17) 0.09968(14)
H9_4 H 0.235852 0.336967 0.084207
C27_4 C 0.2539(2) 0.26763(18) 0.13197(15)
C28_4 C 0.2188(2) 0.24249(18) 0.15524(16)
H10_4 H 0.247004 0.207182 0.177248
C29_4 C 0.3386(3) 0.2402(2) 0.14346(17)
C30_4 C 0.0888(2) 0.40099(18) 0.05542(14)
O26_2 O 0.56729(18) 0.15946(13) 0.21130(11)
H45_4 H 0.467684 0.184475 0.0980566
H46_4 H 0.569597 0.207088 0.121606
Cl1_4 Cl 0.81218(7) 0.47265(7) 0.02005(4)
O1_4 O 0.57186(17) 0.12255(13) 0.27487(11)
O5_4 O 0.9746(3) 0.2269(2) 0.33774(15)
O6_4 O 0.8101(2) 0.08100(14) 0.21291(12)
O13_4 O 0.3915(2) 0.08903(16) 0.26345(14)
O14_4 O 0.2504(3) 0.1223(2) 0.22051(17)
N1_4 N 0.8955(2) 0.15210(18) 0.27698(13)
C1_4 C 0.6091(2) 0.13835(17) 0.25537(15)
C2_4 C 0.9014(2) 0.06381(17) 0.41560(14)
C3_4 C 0.7550(3) 0.14627(18) 0.26774(15)
H1_4 H 0.723002 0.164811 0.235138
C4_4 C 0.7098(2) 0.12908(16) 0.28684(14)
C5_4 C 0.7571(2) 0.10344(17) 0.33486(14)
H2_4 H 0.725708 0.093038 0.348073
C6_4 C 0.8502(2) 0.09273(18) 0.36404(14)
C7_4 C 0.8951(3) 0.1092(2) 0.34439(15)
H3_4 H 0.958509 0.102096 0.363624
C8_4 C 0.8477(3) 0.13603(19) 0.29689(16)
C9_4 C 0.9595(3) 0.2012(2) 0.30130(18)
C11_4 C 0.9864(3) 0.18518(19) 0.23732(15)
C12_4 C 0.9199(3) 0.13695(19) 0.21324(16)
C13_4 C 0.8705(3) 0.1198(2) 0.23353(17)
C19_4 C 0.9444(3) 0.1245(2) 0.15074(19)
H6_4 H 0.930115 0.103412 0.121599
C20_4 C 0.9003(3) 0.1073(2) 0.17150(18)
H7_4 H 0.856381 0.074456 0.156119
C31_4 C 0.3113(3) 0.0846(2) 0.2479(2)
C37_4 C 0.2063(3) 0.02107(19) 0.25590(16)
H13_4 H 0.169084 0.057450 0.245927
C38_4 C 0.2863(3) 0.0243(2) 0.26148(16)
O35_2 O 0.4111(2) 0.05561(14) 0.18376(13)
O17_4 O 0.17818(19) 0.97642(17) 0.34363(12)
O18_4 O 0.0178(2) 0.9466(2) 0.17471(13)
N3_4 N 0.0975(2) 0.96173(15) 0.25939(13)
C32_4 C 0.3704(3) 0.8552(2) 0.2983(2)
C33_4 C 0.3404(3) 0.9701(2) 0.27667(17)
H11_4 H 0.396505 0.972163 0.281902
C34_4 C 0.3125(3) 0.9134(2) 0.28412(18)
C35_4 C 0.2319(3) 0.91056(19) 0.27776(18)
H12_4 H 0.211954 0.871750 0.282216
C36_4 C 0.1810(3) 0.96457(18) 0.26492(16)
C39_4 C 0.1048(3) 0.96724(19) 0.30353(16)
C40_4 C 0.0176(3) 0.9512(2) 0.21092(16)
C43_4 C 0.0195(2) 0.96247(18) 0.29764(15)
C44_4 C 0.0221(3) 0.96760(19) 0.33953(15)
H14_4 H 0.078206 0.974905 0.371854
H20_4 H 0.558083 0.009286 0.207611
O19_4 O 0.77458(17) 0.94854(13) 0.31841(10)
O20_4 O 0.6152(2) 0.9220(2) 0.14899(12)
O24_4 O 0.3178(2) 0.97849(16) 0.17133(13)
N4_4 N 0.6947(2) 0.93612(15) 0.23366(12)
C41_4 C 0.9328(3) 0.94609(19) 0.20605(15)
C42_4 C 0.9370(2) 0.95144(17) 0.24940(14)
C45_4 C 0.9415(3) 0.96203(19) 0.33450(15)
H15_4 H 0.943395 0.965317 0.363461
C46_4 C 0.8604(2) 0.95185(17) 0.28776(14)
C47_4 C 0.8561(2) 0.94662(16) 0.24439(14)
C48_4 C 0.7728(3) 0.93695(19) 0.19557(15)
C49_4 C 0.7709(3) 0.9320(2) 0.15413(16)
H16_4 H 0.714715 0.925494 0.121696
C50_4 C 0.8504(3) 0.9363(2) 0.15890(16)
H17_4 H 0.848190 0.932621 0.129854
C51_4 C 0.6881(3) 0.9307(2) 0.18996(15)
C52_4 C 0.7763(2) 0.94510(17) 0.28312(15)
C53_4 C 0.6135(2) 0.92114(18) 0.22860(14)
C54_4 C 0.6017(2) 0.86017(18) 0.23738(15)
H18_4 H 0.646834 0.829250 0.247461
C55_4 C 0.5236(2) 0.84360(17) 0.23150(14)
C56_4 C 0.4576(2) 0.88969(17) 0.21550(14)
H19_4 H 0.404044 0.878840 0.211416
C57_4 C 0.4686(2) 0.95107(17) 0.20542(14)
C58_4 C 0.5483(3) 0.96712(18) 0.21303(14)
C59_4 C 0.5089(3) 0.77799(18) 0.24205(16)
C60_4 C 0.3937(3) 0.99894(19) 0.18590(16)
N5 N 0.1716(4) 0.4408(3) 0.6261(2)
H21 H 0.219623 0.467570 0.640056
H22 H 0.185832 0.412084 0.650151
C61 C 0.1608(5) 0.4073(4) 0.5847(3)
H23 H 0.214559 0.381312 0.598098
H24 H 0.153471 0.437949 0.560499
H25 H 0.107032 0.380206 0.567786
C62 C 0.0935(5) 0.4773(4) 0.6131(4)
H26 H 0.108775 0.498832 0.643372
H27 H 0.042070 0.448848 0.599994
H28 H 0.077294 0.508748 0.587280
H28_2 H 0.922706 0.008748 0.912720
N5_2 N 0.8284(4) 0.9408(3) 0.8739(2)
H21_2 H 0.780377 0.967570 0.859944
H22_2 H 0.814168 0.912084 0.849849
C61_2 C 0.8392(5) 0.9073(4) 0.9153(3)
H23_2 H 0.785441 0.881312 0.901902
H24_2 H 0.846529 0.937949 0.939501
H25_2 H 0.892968 0.880206 0.932214
C62_2 C 0.9065(5) 0.9773(4) 0.8869(4)
H26_2 H 0.891225 0.998832 0.856628
H27_2 H 0.957930 0.948848 0.900006
N5_3 N 0.8284(4) 0.5592(3) 0.3739(2)
H21_3 H 0.780377 0.532430 0.359944
H22_3 H 0.814168 0.587916 0.349849
C61_3 C 0.8392(5) 0.5927(4) 0.4153(3)
H23_3 H 0.785441 0.618688 0.401902
H24_3 H 0.846529 0.562051 0.439501
H25_3 H 0.892968 0.619794 0.432214
C62_3 C 0.9065(5) 0.5227(4) 0.3869(4)
H26_3 H 0.891225 0.501168 0.356628
H27_3 H 0.957930 0.551152 0.400006
H28_3 H 0.922706 0.491252 0.412720
N5_4 N 0.1716(4) 0.0592(3) 0.1261(2)
H21_4 H 0.219623 0.032430 0.140056
H22_4 H 0.185832 0.087916 0.150151
C61_4 C 0.1608(5) 0.0927(4) 0.0847(3)
H23_4 H 0.214559 0.118688 0.098098
H24_4 H 0.153471 0.062051 0.060499
H25_4 H 0.107032 0.119794 0.067786
C62_4 C 0.0935(5) 0.0227(4) 0.1131(4)
H26_4 H 0.108775 0.001168 0.143372
H27_4 H 0.042070 0.051152 0.099994
H28_4 H 0.077294 0.991252 0.087280
N6 N 0.5942(3) 0.5516(3) 0.8691(2)
H29 H 0.540392 0.571498 0.846339
H30 H 0.580900 0.511075 0.871525
C63 C 0.6414(3) 0.5482(3) 0.84697(19)
H31 H 0.604966 0.523739 0.815526
H32 H 0.700277 0.527559 0.870811
H33 H 0.650664 0.590995 0.839706
C64 C 0.6377(6) 0.5821(5) 0.9187(3)
H34 H 0.601447 0.574181 0.930294
H35 H 0.641930 0.627755 0.915451
H36 H 0.698717 0.564658 0.943178
N6_2 N 0.4058(3) 0.0516(3) 0.6309(2)
H29_2 H 0.459608 0.071498 0.653661
H30_2 H 0.419100 0.011075 0.628475
C63_2 C 0.3586(3) 0.0482(3) 0.65303(19)
H31_2 H 0.395034 0.023739 0.684474
H32_2 H 0.299723 0.027559 0.629189
H33_2 H 0.349336 0.090995 0.660294
C64_2 C 0.3623(6) 0.0821(5) 0.5813(3)
H34_2 H 0.398553 0.074181 0.569706
H35_2 H 0.358070 0.127755 0.584549
H36_2 H 0.301283 0.064658 0.556822
N6_3 N 0.4058(3) 0.4484(3) 0.1309(2)
H29_3 H 0.459608 0.428502 0.153661
H30_3 H 0.419100 0.488925 0.128475
C63_3 C 0.3586(3) 0.4518(3) 0.15303(19)
H31_3 H 0.395034 0.476261 0.184474
H32_3 H 0.299723 0.472441 0.129189
H33_3 H 0.349336 0.409005 0.160294
C64_3 C 0.3623(6) 0.4179(5) 0.0813(3)
H34_3 H 0.398553 0.425819 0.069706
H35_3 H 0.358070 0.372245 0.084549
H36_3 H 0.301283 0.435342 0.056822
N6_4 N 0.5942(3) 0.9484(3) 0.3691(2)
H29_4 H 0.540392 0.928502 0.346339
H30_4 H 0.580900 0.988925 0.371525
C63_4 C 0.6414(3) 0.9518(3) 0.34697(19)
H31_4 H 0.604966 0.976261 0.315526
H32_4 H 0.700277 0.972441 0.370811
H33_4 H 0.650664 0.909005 0.339706
C64_4 C 0.6377(6) 0.9179(5) 0.4187(3)
H34_4 H 0.601447 0.925819 0.430294
H35_4 H 0.641930 0.872245 0.415451
H36_4 H 0.698717 0.935342 0.443178
N7 N 0.4408(9) 0.4022(6) 0.6083(4)
H37 H 0.450121 0.359718 0.610551
H38 H 0.445791 0.414384 0.636038
C65 C 0.5134(11) 0.4340(12) 0.6096(8)
H39 H 0.486440 0.455594 0.577370
H40 H 0.557130 0.402424 0.615169
H41 H 0.544551 0.465001 0.637167
C66 C 0.3481(9) 0.4155(13) 0.5631(8)
H42 H 0.307762 0.407737 0.572018
H43 H 0.334343 0.385373 0.536935
H44 H 0.339167 0.458673 0.550203
N7_2 N 0.5592(9) 0.9022(6) 0.8917(4)
H37_2 H 0.549879 0.859718 0.889449
H38_2 H 0.554209 0.914384 0.863962
C65_2 C 0.4866(11) 0.9340(12) 0.8904(8)
H39_2 H 0.513560 0.955594 0.922630
H40_2 H 0.442870 0.902424 0.884831
H41_2 H 0.455449 0.965001 0.862833
C66_2 C 0.6519(9) 0.9155(13) 0.9369(8)
H42_2 H 0.692238 0.907737 0.927982
H43_2 H 0.665657 0.885373 0.963065
H44_2 H 0.660833 0.958673 0.949797
N7_3 N 0.5592(9) 0.5978(6) 0.3917(4)
H37_3 H 0.549879 0.640282 0.389449
H38_3 H 0.554209 0.585616 0.363962
C65_3 C 0.4866(11) 0.5660(12) 0.3904(8)
H39_3 H 0.513560 0.544406 0.422630
H40_3 H 0.442870 0.597576 0.384831
H41_3 H 0.455449 0.534999 0.362833
C66_3 C 0.6519(9) 0.5845(13) 0.4369(8)
H42_3 H 0.692238 0.592263 0.427982
H43_3 H 0.665657 0.614627 0.463065
H44_3 H 0.660833 0.541327 0.449797
N7_4 N 0.4408(9) 0.0978(6) 0.1083(4)
H37_4 H 0.450121 0.140282 0.110551
H38_4 H 0.445791 0.085616 0.136038
C65_4 C 0.5134(11) 0.0660(12) 0.1096(8)
H39_4 H 0.486440 0.044406 0.077370
H40_4 H 0.557130 0.097576 0.115169
H41_4 H 0.544551 0.034999 0.137167
C66_4 C 0.3481(9) 0.0845(13) 0.0631(8)
H42_4 H 0.307762 0.092263 0.072018
H43_4 H 0.334343 0.114627 0.036935
H44_4 H 0.339167 0.041327 0.050203
loop_
_geom_bond_atom_site_label_1
_geom_bond_atom_site_label_2
_geom_bond_site_symmetry_1
_geom_bond_site_symmetry_2
Mn3 O12 1_555 1_555
O7 C21 1_555 1_555
O8 C22 1_555 1_555
O10 C30 1_555 1_555
O11 C29 1_555 1_555
O12 C29 1_555 1_555
O25 Mn3 1_555 1_555
N2 C21 1_555 1_555
C14 C10 1_555 1_555
H4 C14 1_555 1_555
C15 C14 1_555 1_555
H5 C15 1_555 1_555
C16 C15 1_555 1_555
C18 C17 1_555 1_555
C21 C16 1_555 1_555
C22 N2 1_555 1_555
C23 N2 1_555 1_555
C24 C23 1_555 1_555
H8 C24 1_555 1_555
C25 C24 1_555 1_555
C26 C25 1_555 1_555
H9 C26 1_555 1_555
C27 C26 1_555 1_555
C28 C23 1_555 1_555
H10 C28 1_555 1_555
C29 C27 1_555 1_555
C30 O9 1_555 1_555
Mn5 O11 1_555 1_555
O26 Mn3 1_555 1_555
O31 Mn3 1_555 1_555
O32 Mn3 1_555 1_555
O34 Mn3 1_555 1_555
C16 C17 1_555 1_555
C18 C22 1_555 1_555
C25 C30 1_555 1_555
C27 C28 1_555 1_555
O25 H45 1_555 1_555
O25 H46 1_555 1_555
Mn5 O1 1_555 1_555
Mn2 Cl1 1_555 1_555
O1 C1 1_555 1_555
O26 C1 1_555 1_555
O3 C2 1_555 1_555
O4 C2 1_555 1_555
O5 C9 1_555 1_555
O6 C13 1_555 1_555
O13 Mn5 1_555 1_555
O14 C31 1_555 1_555
O15 C32 1_555 1_555
O16 C32 1_555 1_555
O17 C39 1_555 1_555
O18 C40 1_555 1_555
N1 C8 1_555 1_555
N3 C36 1_555 1_555
C1 C4 1_555 1_555
C2 C6 1_555 1_555
C3 H1 1_555 1_555
C4 C3 1_555 1_555
C5 C4 1_555 1_555
H2 C5 1_555 1_555
C6 C5 1_555 1_555
C7 C6 1_555 1_555
H3 C7 1_555 1_555
C8 C3 1_555 1_555
C9 N1 1_555 1_555
C12 C11 1_555 1_555
C13 N1 1_555 1_555
H6 C19 1_555 1_555
C20 C12 1_555 1_555
H7 C20 1_555 1_555
C31 O13 1_555 1_555
C32 C34 1_555 1_555
C33 H11 1_555 1_555
C34 C33 1_555 1_555
C35 C34 1_555 1_555
H12 C35 1_555 1_555
C36 C35 1_555 1_555
C37 C36 1_555 1_555
H13 C37 1_555 1_555
C38 C31 1_555 1_555
C39 N3 1_555 1_555
C40 N3 1_555 1_555
C43 C39 1_555 1_555
C44 C43 1_555 1_555
H14 C44 1_555 1_555
Mn12 O15 1_555 1_555
O27 Mn2 1_555 1_555
O33 Mn5 1_555 1_555
O35 Mn5 1_555 1_555
O16 Mn12 1_555 1_555
C7 C8 1_555 1_555
C12 C13 1_555 1_555
C19 C20 1_555 1_555
C33 C38 1_555 1_555
C37 C38 1_555 1_555
O19 C52 1_555 1_555
O20 C51 1_555 1_555
O21 C59 1_555 1_555
O22 C59 1_555 1_555
O35 C60 1_555 1_555
O24 C60 1_555 1_555
N4 C51 1_555 1_555
C42 C41 1_555 1_555
H15 C45 1_555 1_555
C46 C45 1_555 1_555
C47 C42 1_555 1_555
C48 C47 1_555 1_555
C49 C48 1_555 1_555
H16 C49 1_555 1_555
C50 C41 1_555 1_555
H17 C50 1_555 1_555
C51 C48 1_555 1_555
C52 N4 1_555 1_555
C53 N4 1_555 1_555
C54 C53 1_555 1_555
H18 C54 1_555 1_555
C55 C54 1_555 1_555
C56 C55 1_555 1_555
H19 C56 1_555 1_555
C57 C56 1_555 1_555
C58 C53 1_555 1_555
H20 C58 1_555 1_555
C59 C55 1_555 1_555
C60 C57 1_555 1_555
Mn6 O21 1_555 1_555
Mn12 O22 1_555 1_555
C46 C47 1_555 1_555
C46 C52 1_555 1_555
C49 C50 1_555 1_555
C57 C58 1_555 1_555
O19_2 C52_2 1_555 1_555
O20_2 C51_2 1_555 1_555
O33 C59_2 1_555 1_555
O34 C59_2 1_555 1_555
O24_2 C60_2 1_555 1_555
N4_2 C51_2 1_555 1_555
C42_2 C41_2 1_555 1_555
H15_2 C45_2 1_555 1_555
C46_2 C45_2 1_555 1_555
C47_2 C42_2 1_555 1_555
C48_2 C47_2 1_555 1_555
C49_2 C48_2 1_555 1_555
H16_2 C49_2 1_555 1_555
C50_2 C41_2 1_555 1_555
H17_2 C50_2 1_555 1_555
C51_2 C48_2 1_555 1_555
C52_2 N4_2 1_555 1_555
C53_2 N4_2 1_555 1_555
C54_2 C53_2 1_555 1_555
H18_2 C54_2 1_555 1_555
C55_2 C54_2 1_555 1_555
C56_2 C55_2 1_555 1_555
H19_2 C56_2 1_555 1_555
C57_2 C56_2 1_555 1_555
C58_2 C53_2 1_555 1_555
C59_2 C55_2 1_555 1_555
C60_2 C57_2 1_555 1_555
C46_2 C47_2 1_555 1_555
C46_2 C52_2 1_555 1_555
C49_2 C50_2 1_555 1_555
C57_2 C58_2 1_555 1_555
Mn6 O23 1_555 1_555
O31 C32_2 1_555 1_555
O32 C32_2 1_555 1_555
O17_2 C39_2 1_555 1_555
O18_2 C40_2 1_555 1_555
N3_2 C36_2 1_555 1_555
C32_2 C34_2 1_555 1_555
C33_2 H11_2 1_555 1_555
C34_2 C33_2 1_555 1_555
C35_2 C34_2 1_555 1_555
H12_2 C35_2 1_555 1_555
C36_2 C35_2 1_555 1_555
C39_2 N3_2 1_555 1_555
C40_2 N3_2 1_555 1_555
C43_2 C39_2 1_555 1_555
C44_2 C43_2 1_555 1_555
H14_2 C44_2 1_555 1_555
Mn6 O1_2 1_555 1_555
Mn7 Cl1_2 1_555 1_555
O1_2 C1_2 1_555 1_555
O2 C1_2 1_555 1_555
O3_2 C2_2 1_555 1_555
O28 C2_2 1_555 1_555
O5_2 C9_2 1_555 1_555
O6_2 C13_2 1_555 1_555
O13_2 Mn6 1_555 1_555
O14_2 C31_2 1_555 1_555
N1_2 C8_2 1_555 1_555
C1_2 C4_2 1_555 1_555
C2_2 C6_2 1_555 1_555
C3_2 H1_2 1_555 1_555
C4_2 C3_2 1_555 1_555
C5_2 C4_2 1_555 1_555
H2_2 C5_2 1_555 1_555
C6_2 C5_2 1_555 1_555
C7_2 C6_2 1_555 1_555
H3_2 C7_2 1_555 1_555
C8_2 C3_2 1_555 1_555
C9_2 N1_2 1_555 1_555
C12_2 C11_2 1_555 1_555
C13_2 N1_2 1_555 1_555
H6_2 C19_2 1_555 1_555
C20_2 C12_2 1_555 1_555
H7_2 C20_2 1_555 1_555
C31_2 O13_2 1_555 1_555
H13_2 C37_2 1_555 1_555
C38_2 C31_2 1_555 1_555
Mn8 O3_2 1_555 1_555
Mn12 O2 1_555 1_555
O30 Mn6 1_555 1_555
C7_2 C8_2 1_555 1_555
C12_2 C13_2 1_555 1_555
C19_2 C20_2 1_555 1_555
C37_2 C38_2 1_555 1_555
Mn12 O12_2 1_555 1_555
O7_2 C21_2 1_555 1_555
O8_2 C22_2 1_555 1_555
O10_2 C30_2 1_555 1_555
O30 C29_2 1_555 1_555
O12_2 C29_2 1_555 1_555
O25_2 Mn12 1_555 1_555
N2_2 C21_2 1_555 1_555
C14_2 C10_2 1_555 1_555
H4_2 C14_2 1_555 1_555
C15_2 C14_2 1_555 1_555
H5_2 C15_2 1_555 1_555
C16_2 C15_2 1_555 1_555
C18_2 C17_2 1_555 1_555
C21_2 C16_2 1_555 1_555
C22_2 N2_2 1_555 1_555
C23_2 N2_2 1_555 1_555
C24_2 C23_2 1_555 1_555
H8_2 C24_2 1_555 1_555
C25_2 C24_2 1_555 1_555
C26_2 C25_2 1_555 1_555
H9_2 C26_2 1_555 1_555
C27_2 C26_2 1_555 1_555
C28_2 C23_2 1_555 1_555
H10_2 C28_2 1_555 1_555
C29_2 C27_2 1_555 1_555
C30_2 O9_2 1_555 1_555
C16_2 C17_2 1_555 1_555
C18_2 C22_2 1_555 1_555
C25_2 C30_2 1_555 1_555
C27_2 C28_2 1_555 1_555
O25_2 H45_2 1_555 1_555
O25_2 H46_2 1_555 1_555
O19_3 C52_3 1_555 1_555
O20_3 C51_3 1_555 1_555
O21_2 C59_3 1_555 1_555
O22_2 C59_3 1_555 1_555
O23_2 C60_3 1_555 1_555
O24_3 C60_3 1_555 1_555
N4_3 C51_3 1_555 1_555
C42_3 C41_3 1_555 1_555
H15_3 C45_3 1_555 1_555
C46_3 C45_3 1_555 1_555
C47_3 C42_3 1_555 1_555
C48_3 C47_3 1_555 1_555
C49_3 C48_3 1_555 1_555
H16_3 C49_3 1_555 1_555
C50_3 C41_3 1_555 1_555
H17_3 C50_3 1_555 1_555
C51_3 C48_3 1_555 1_555
C52_3 N4_3 1_555 1_555
C53_3 N4_3 1_555 1_555
C54_3 C53_3 1_555 1_555
H18_3 C54_3 1_555 1_555
C55_3 C54_3 1_555 1_555
C56_3 C55_3 1_555 1_555
H19_3 C56_3 1_555 1_555
C57_3 C56_3 1_555 1_555
C58_3 C53_3 1_555 1_555
H20_3 C58_3 1_555 1_555
C59_3 C55_3 1_555 1_555
C60_3 C57_3 1_555 1_555
Mn4 O23_2 1_555 1_555
Mn6_2 O21_2 1_555 1_555
Mn11 O22_2 1_555 1_555
C46_3 C47_3 1_555 1_555
C46_3 C52_3 1_555 1_555
C49_3 C50_3 1_555 1_555
C57_3 C58_3 1_555 1_555
Mn4 O1_3 1_555 1_555
Mn8 Cl1_3 1_555 1_555
O1_3 C1_3 1_555 1_555
O2_2 C1_3 1_555 1_555
O27_2 C2_3 1_555 1_555
O4_2 C2_3 1_555 1_555
O5_3 C9_3 1_555 1_555
O6_3 C13_3 1_555 1_555
O13_3 Mn4 1_555 1_555
O14_3 C31_3 1_555 1_555
O15_2 C32_3 1_555 1_555
O16_2 C32_3 1_555 1_555
O17_3 C39_3 1_555 1_555
O18_3 C40_3 1_555 1_555
N1_3 C8_3 1_555 1_555
N3_3 C36_3 1_555 1_555
C1_3 C4_3 1_555 1_555
C2_3 C6_3 1_555 1_555
C3_3 H1_3 1_555 1_555
C4_3 C3_3 1_555 1_555
C5_3 C4_3 1_555 1_555
H2_3 C5_3 1_555 1_555
C6_3 C5_3 1_555 1_555
C7_3 C6_3 1_555 1_555
H3_3 C7_3 1_555 1_555
C8_3 C3_3 1_555 1_555
C9_3 N1_3 1_555 1_555
C12_3 C11_3 1_555 1_555
C13_3 N1_3 1_555 1_555
H6_3 C19_3 1_555 1_555
C20_3 C12_3 1_555 1_555
H7_3 C20_3 1_555 1_555
C31_3 O13_3 1_555 1_555
C32_3 C34_3 1_555 1_555
C33_3 H11_3 1_555 1_555
C34_3 C33_3 1_555 1_555
C35_3 C34_3 1_555 1_555
H12_3 C35_3 1_555 1_555
C36_3 C35_3 1_555 1_555
C37_3 C36_3 1_555 1_555
H13_3 C37_3 1_555 1_555
C38_3 C31_3 1_555 1_555
C39_3 N3_3 1_555 1_555
C40_3 N3_3 1_555 1_555
C43_3 C39_3 1_555 1_555
C44_3 C43_3 1_555 1_555
H14_3 C44_3 1_555 1_555
Mn10 O2_2 1_555 1_555
Mn11 O15_2 1_555 1_555
O30_2 Mn4 1_555 1_555
O33_2 Mn4 1_555 1_555
O16_2 Mn11 1_555 1_555
C7_3 C8_3 1_555 1_555
C12_3 C13_3 1_555 1_555
C19_3 C20_3 1_555 1_555
C33_3 C38_3 1_555 1_555
C37_3 C38_3 1_555 1_555
Mn10 O12_3 1_555 1_555
O7_3 C21_3 1_555 1_555
O8_3 C22_3 1_555 1_555
O29 C30_3 1_555 1_555
O30_2 C29_3 1_555 1_555
O12_3 C29_3 1_555 1_555
O25_3 Mn10 1_555 1_555
N2_3 C21_3 1_555 1_555
C14_3 C10_3 1_555 1_555
H4_3 C14_3 1_555 1_555
C15_3 C14_3 1_555 1_555
H5_3 C15_3 1_555 1_555
C16_3 C15_3 1_555 1_555
C18_3 C17_3 1_555 1_555
C21_3 C16_3 1_555 1_555
C22_3 N2_3 1_555 1_555
C23_3 N2_3 1_555 1_555
C24_3 C23_3 1_555 1_555
H8_3 C24_3 1_555 1_555
C25_3 C24_3 1_555 1_555
C26_3 C25_3 1_555 1_555
H9_3 C26_3 1_555 1_555
C27_3 C26_3 1_555 1_555
C28_3 C23_3 1_555 1_555
H10_3 C28_3 1_555 1_555
C29_3 C27_3 1_555 1_555
C30_3 O9_3 1_555 1_555
O31_2 Mn10 1_555 1_555
O32_2 Mn10 1_555 1_555
O34_2 Mn10 1_555 1_555
C16_3 C17_3 1_555 1_555
C18_3 C22_3 1_555 1_555
C25_3 C30_3 1_555 1_555
C27_3 C28_3 1_555 1_555
O25_3 H45_3 1_555 1_555
O25_3 H46_3 1_555 1_555
Mn11 O12_4 1_555 1_555
O7_4 C21_4 1_555 1_555
O8_4 C22_4 1_555 1_555
O29_2 C30_4 1_555 1_555
O11_2 C29_4 1_555 1_555
O12_4 C29_4 1_555 1_555
O25_4 Mn11 1_555 1_555
N2_4 C21_4 1_555 1_555
C14_4 C10_4 1_555 1_555
H4_4 C14_4 1_555 1_555
C15_4 C14_4 1_555 1_555
H5_4 C15_4 1_555 1_555
C16_4 C15_4 1_555 1_555
C18_4 C17_4 1_555 1_555
C21_4 C16_4 1_555 1_555
C22_4 N2_4 1_555 1_555
C23_4 N2_4 1_555 1_555
C24_4 C23_4 1_555 1_555
H8_4 C24_4 1_555 1_555
C25_4 C24_4 1_555 1_555
C26_4 C25_4 1_555 1_555
H9_4 C26_4 1_555 1_555
C27_4 C26_4 1_555 1_555
C28_4 C23_4 1_555 1_555
H10_4 C28_4 1_555 1_555
C29_4 C27_4 1_555 1_555
C30_4 O9_4 1_555 1_555
Mn6_2 O11_2 1_555 1_555
O26_2 Mn11 1_555 1_555
C16_4 C17_4 1_555 1_555
C18_4 C22_4 1_555 1_555
C25_4 C30_4 1_555 1_555
C27_4 C28_4 1_555 1_555
O25_4 H45_4 1_555 1_555
O25_4 H46_4 1_555 1_555
Mn6_2 O1_4 1_555 1_555
Mn9 Cl1_4 1_555 1_555
O1_4 C1_4 1_555 1_555
O26_2 C1_4 1_555 1_555
O27 C2_4 1_555 1_555
O28_2 C2_4 1_555 1_555
O5_4 C9_4 1_555 1_555
O6_4 C13_4 1_555 1_555
O13_4 Mn6_2 1_555 1_555
O14_4 C31_4 1_555 1_555
N1_4 C8_4 1_555 1_555
C1_4 C4_4 1_555 1_555
C2_4 C6_4 1_555 1_555
C3_4 H1_4 1_555 1_555
C4_4 C3_4 1_555 1_555
C5_4 C4_4 1_555 1_555
H2_4 C5_4 1_555 1_555
C6_4 C5_4 1_555 1_555
C7_4 C6_4 1_555 1_555
H3_4 C7_4 1_555 1_555
C8_4 C3_4 1_555 1_555
C9_4 N1_4 1_555 1_555
C12_4 C11_4 1_555 1_555
C13_4 N1_4 1_555 1_555
H6_4 C19_4 1_555 1_555
C20_4 C12_4 1_555 1_555
H7_4 C20_4 1_555 1_555
C31_4 O13_4 1_555 1_555
H13_4 C37_4 1_555 1_555
C38_4 C31_4 1_555 1_555
O35_2 Mn6_2 1_555 1_555
C7_4 C8_4 1_555 1_555
C12_4 C13_4 1_555 1_555
C19_4 C20_4 1_555 1_555
C37_4 C38_4 1_555 1_555
O31_2 C32_4 1_555 1_555
O32_2 C32_4 1_555 1_555
O17_4 C39_4 1_555 1_555
O18_4 C40_4 1_555 1_555
N3_4 C36_4 1_555 1_555
C32_4 C34_4 1_555 1_555
C33_4 H11_4 1_555 1_555
C34_4 C33_4 1_555 1_555
C35_4 C34_4 1_555 1_555
H12_4 C35_4 1_555 1_555
C36_4 C35_4 1_555 1_555
C39_4 N3_4 1_555 1_555
C40_4 N3_4 1_555 1_555
C43_4 C39_4 1_555 1_555
C44_4 C43_4 1_555 1_555
H14_4 C44_4 1_555 1_555
O19_4 C52_4 1_555 1_555
O20_4 C51_4 1_555 1_555
O33_2 C59_4 1_555 1_555
O34_2 C59_4 1_555 1_555
O24_4 C60_4 1_555 1_555
N4_4 C51_4 1_555 1_555
C42_4 C41_4 1_555 1_555
H15_4 C45_4 1_555 1_555
C46_4 C45_4 1_555 1_555
C47_4 C42_4 1_555 1_555
C48_4 C47_4 1_555 1_555
C49_4 C48_4 1_555 1_555
H16_4 C49_4 1_555 1_555
C50_4 C41_4 1_555 1_555
H17_4 C50_4 1_555 1_555
C51_4 C48_4 1_555 1_555
C52_4 N4_4 1_555 1_555
C53_4 N4_4 1_555 1_555
C54_4 C53_4 1_555 1_555
H18_4 C54_4 1_555 1_555
C55_4 C54_4 1_555 1_555
C56_4 C55_4 1_555 1_555
H19_4 C56_4 1_555 1_555
C57_4 C56_4 1_555 1_555
C58_4 C53_4 1_555 1_555
C59_4 C55_4 1_555 1_555
C60_4 C57_4 1_555 1_555
C46_4 C47_4 1_555 1_555
C46_4 C52_4 1_555 1_555
C49_4 C50_4 1_555 1_555
C57_4 C58_4 1_555 1_555
N5 H21 1_555 1_555
H22 N5 1_555 1_555
C61 N5 1_555 1_555
H23 C61 1_555 1_555
H24 C61 1_555 1_555
H25 C61 1_555 1_555
C62 N5 1_555 1_555
H26 C62 1_555 1_555
H27 C62 1_555 1_555
H28 C62 1_555 1_555
N5_2 H21_2 1_555 1_555
H22_2 N5_2 1_555 1_555
C61_2 N5_2 1_555 1_555
H23_2 C61_2 1_555 1_555
H24_2 C61_2 1_555 1_555
H25_2 C61_2 1_555 1_555
C62_2 N5_2 1_555 1_555
H26_2 C62_2 1_555 1_555
H27_2 C62_2 1_555 1_555
N5_3 H21_3 1_555 1_555
H22_3 N5_3 1_555 1_555
C61_3 N5_3 1_555 1_555
H23_3 C61_3 1_555 1_555
H24_3 C61_3 1_555 1_555
H25_3 C61_3 1_555 1_555
C62_3 N5_3 1_555 1_555
H26_3 C62_3 1_555 1_555
H27_3 C62_3 1_555 1_555
H28_3 C62_3 1_555 1_555
N5_4 H21_4 1_555 1_555
H22_4 N5_4 1_555 1_555
C61_4 N5_4 1_555 1_555
H23_4 C61_4 1_555 1_555
H24_4 C61_4 1_555 1_555
H25_4 C61_4 1_555 1_555
C62_4 N5_4 1_555 1_555
H26_4 C62_4 1_555 1_555
H27_4 C62_4 1_555 1_555
N6 H29 1_555 1_555
H30 N6 1_555 1_555
C63 N6 1_555 1_555
H31 C63 1_555 1_555
H32 C63 1_555 1_555
H33 C63 1_555 1_555
C64 N6 1_555 1_555
H34 C64 1_555 1_555
H35 C64 1_555 1_555
H36 C64 1_555 1_555
N6_2 H29_2 1_555 1_555
H30_2 N6_2 1_555 1_555
C63_2 N6_2 1_555 1_555
H31_2 C63_2 1_555 1_555
H32_2 C63_2 1_555 1_555
H33_2 C63_2 1_555 1_555
C64_2 N6_2 1_555 1_555
H34_2 C64_2 1_555 1_555
H35_2 C64_2 1_555 1_555
H36_2 C64_2 1_555 1_555
N6_3 H29_3 1_555 1_555
H30_3 N6_3 1_555 1_555
C63_3 N6_3 1_555 1_555
H31_3 C63_3 1_555 1_555
H32_3 C63_3 1_555 1_555
H33_3 C63_3 1_555 1_555
C64_3 N6_3 1_555 1_555
H34_3 C64_3 1_555 1_555
H35_3 C64_3 1_555 1_555
H36_3 C64_3 1_555 1_555
N6_4 H29_4 1_555 1_555
H30_4 N6_4 1_555 1_555
C63_4 N6_4 1_555 1_555
H31_4 C63_4 1_555 1_555
H32_4 C63_4 1_555 1_555
H33_4 C63_4 1_555 1_555
C64_4 N6_4 1_555 1_555
H34_4 C64_4 1_555 1_555
H35_4 C64_4 1_555 1_555
H36_4 C64_4 1_555 1_555
N7 H37 1_555 1_555
H38 N7 1_555 1_555
C65 N7 1_555 1_555
H39 C65 1_555 1_555
H40 C65 1_555 1_555
H41 C65 1_555 1_555
C66 N7 1_555 1_555
H42 C66 1_555 1_555
H43 C66 1_555 1_555
H44 C66 1_555 1_555
N7_2 H37_2 1_555 1_555
H38_2 N7_2 1_555 1_555
C65_2 N7_2 1_555 1_555
H39_2 C65_2 1_555 1_555
H40_2 C65_2 1_555 1_555
H41_2 C65_2 1_555 1_555
C66_2 N7_2 1_555 1_555
H42_2 C66_2 1_555 1_555
H43_2 C66_2 1_555 1_555
H44_2 C66_2 1_555 1_555
N7_3 H37_3 1_555 1_555
H38_3 N7_3 1_555 1_555
C65_3 N7_3 1_555 1_555
H39_3 C65_3 1_555 1_555
H40_3 C65_3 1_555 1_555
H41_3 C65_3 1_555 1_555
C66_3 N7_3 1_555 1_555
H42_3 C66_3 1_555 1_555
H43_3 C66_3 1_555 1_555
H44_3 C66_3 1_555 1_555
N7_4 H37_4 1_555 1_555
H38_4 N7_4 1_555 1_555
C65_4 N7_4 1_555 1_555
H39_4 C65_4 1_555 1_555
H40_4 C65_4 1_555 1_555
H41_4 C65_4 1_555 1_555
C66_4 N7_4 1_555 1_555
H42_4 C66_4 1_555 1_555
H43_4 C66_4 1_555 1_555
H44_4 C66_4 1_555 1_555

#END
