
###############################################################################
#
# This file contains modified crystal structure data generated from the
# MOF subset of the Cambridge Structural Database (CSD) v543 
# hosted by the Cambridge Crystallographic Data Centre (CCDC).
#
# This work is licensed under the Creative Commons
# Attribution-NonCommercial-ShareAlike 4.0 International License.
# To view a copy of this license, visit
# http://creativecommons.org/licenses/by-nc-sa/4.0/
# or send a letter to
# Creative Commons, PO Box 1866, Mountain View, CA 94042, USA.
#
# CIF created using the CSD Python API on 29 September 2022
# The structure has been converted into the P1 space group
# The structure has a 3D framework
# The original CSD entry RESMEJ is in the triclinic crystal system
# The framework has been calculated to contain at least 10.0% void space
# The void calculation uses a probe of radius 1.32A, grid spacing 0.4
# The framework is charged, counterions have been retained in the structure
# H atom positions have been added when not included in the experimental data
# Generated hydrogen atom positions removed from atoms on special positions
#
###############################################################################

data_RESMEJ
_chemical_formula_moiety         '(C80 H84 Gd10 K2 O83)n'
_symmetry_cell_setting           triclinic
_symmetry_space_group_name_H-M   'P 1'
_symmetry_Int_Tables_number      1
_space_group_name_Hall           'P 1'
loop_
_symmetry_equiv_pos_site_id
_symmetry_equiv_pos_as_xyz
1 x,y,z
_cell_length_a                   9.537(5)
_cell_length_b                   14.761(5)
_cell_length_c                   23.057(5)
_cell_angle_alpha                107.218(5)
_cell_angle_beta                 96.735(5)
_cell_angle_gamma                97.691(5)
_cell_volume                     3030.02
loop_
_atom_site_label
_atom_site_type_symbol
_atom_site_fract_x
_atom_site_fract_y
_atom_site_fract_z
O28 O 0.1660(5) 0.0862(4) 0.9436(3)
Gd12 Gd 0.43113(3) 0.12874(2) 0.957775(13)
O3 O 0.2681(5) 0.9611(3) 0.9043(2)
O7 O 0.1419(5) 0.7280(4) 0.8620(2)
O15 O 0.1570(5) 0.7891(4) 0.7870(2)
C19 C 0.0102(6) 0.9352(5) 0.8926(3)
C22 C 0.1047(6) 0.7839(4) 0.8340(3)
C38 C 0.1586(7) 0.9981(5) 0.9151(3)
Gd22 Gd 0.30877(3) 0.65364(2) 0.798810(14)
Gd28 Gd 0.18644(3) 0.84484(2) 0.700924(13)
O23 O 0.6081(6) 0.3598(4) 0.1005(3)
O31 O 0.4076(6) 0.2732(4) 0.0377(2)
O32 O 0.6558(6) 0.1586(4) 0.0286(2)
C24 C 0.5077(7) 0.3462(5) 0.0562(3)
C31 C 0.5063(7) 0.4237(5) 0.0256(3)
O49 O 0.3951(5) 0.7414(3) 0.0479(2)
C46 C 0.3961(9) 0.6708(6) 0.0681(4)
C48 C 0.4510(8) 0.5835(5) 0.0319(3)
C50 C 0.4573(8) 0.5072(5) 0.0561(3)
H10 H 0.4278 0.5124 0.0938
O51 O 0.3575(9) 0.6721(6) 0.1183(4)
Gd15 Gd 0.56887(3) 0.87126(2) 0.042225(13)
Gd26 Gd 0.69123(3) 0.34636(2) 0.201190(14)
O104 O 0.3958(5) 0.0527(4) 0.0314(2)
O6 O 0.3773(6) 0.1104(4) 0.8471(2)
O10 O 0.3081(5) 0.0027(4) 0.6943(2)
O11 O 0.1052(6) 0.3880(4) 0.6535(2)
O12 O 0.3060(6) 0.2350(4) 0.9078(2)
O13 O 0.1757(5) 0.2615(4) 0.5939(2)
O16 O 0.5887(5) 0.0311(3) 0.9034(2)
O24 O 0.6049(5) 0.2586(3) 0.9521(2)
O26 O 0.1889(6) 0.5005(4) 0.8086(2)
O33 O 0.1306(5) 0.0002(3) 0.7474(2)
O34 O 0.3585(5) 0.4941(4) 0.7511(2)
C3 C 0.2450(7) 0.3471(5) 0.7605(3)
C4 C 0.1613(7) 0.3122(4) 0.6464(3)
C5 C 0.2767(8) 0.3131(5) 0.8099(3)
H1 H 0.2995 0.3564 0.8497
C6 C 0.3190(7) 0.1846(5) 0.8547(3)
C7 C 0.2748(7) 0.2166(5) 0.8010(3)
C11 C 0.6039(9) 0.3292(6) 0.9319(4)
H2 H 0.9083 0.0399 0.9365
C14 C 0.2622(7) 0.4536(4) 0.7738(3)
C16 C 0.2048(7) 0.2816(4) 0.7003(3)
C20 C 0.2359(7) 0.1513(5) 0.7412(3)
C23 C 0.2027(7) 0.1843(5) 0.6914(3)
H4 H 0.1789 0.1406 0.6518
C30 C 0.5490(8) 0.4165(5) 0.9681(3)
C34 C 0.5427(8) 0.4928(5) 0.9439(3)
H6 H 0.5722 0.4876 0.9062
O36 O 0.6425(9) 0.3279(6) 0.8817(4)
C40 C 0.2263(7) 0.0456(4) 0.7275(3)
O44 O 0.0863(5) 0.2268(3) 0.4621(2)
O48 O 0.3919(6) 0.6402(4) 0.8995(3)
O50 O 0.5924(6) 0.7268(4) 0.9623(2)
C47 C 0.4923(7) 0.6538(5) 0.9438(3)
C49 C 0.4937(7) 0.5763(5) 0.9744(3)
Gd19 Gd 0.06339(3) 0.36819(2) 0.542412(13)
O4 O 0.0190(5) 0.6931(3) 0.6539(2)
O8 O 0.5703(5) 0.6775(3) 0.8061(3)
O14 O 0.4771(4) 0.8059(3) 0.8455(2)
O19 O 0.6042(5) 0.9473(4) 0.9686(2)
O22 O 0.1168(5) 0.7625(3) 0.4536(2)
O25 O 0.1620(5) 0.6595(4) 0.5283(2)
O27 O 0.0972(5) 0.5799(4) 0.7218(2)
O29 O 0.3976(5) 0.9199(4) 0.7782(2)
O30 O 0.1123(6) 0.8616(4) 0.6007(2)
C2 C 0.7317(6) 0.8264(5) 0.8550(3)
O35 O 0.2092(9) 0.8497(5) 0.3997(4)
C8 C 0.9886(7) 0.8400(5) 0.8550(3)
C9 C 0.0648(7) 0.9219(5) 0.4717(3)
C10 C 0.1340(8) 0.8393(5) 0.4393(3)
C12 C 0.8938(7) 0.9760(5) 0.9116(3)
C13 C 0.6381(6) 0.9687(4) 0.9231(3)
C27 C 0.7549(6) 0.9223(4) 0.8936(3)
C28 C 0.5842(6) 0.7659(4) 0.8344(3)
C32 C 0.0120(7) 0.8473(4) 0.5566(3)
C36 C 0.8499(6) 0.7862(5) 0.8361(3)
H8 H 0.8359 0.7227 0.8105
C37 C 0.0070(7) 0.9243(4) 0.5260(3)
Gd5 Gd 0.35631(4) 0.75175(3) 0.34072(2)
O37 O 0.1886(7) 0.6068(5) 0.3206(3)
O38 O 0.3881(8) 0.6610(6) 0.2375(4)
O39 O 0.5132(7) 0.6354(5) 0.3398(3)
O40 O 0.3811(7) 0.7141(5) 0.4381(3)
O41 O 0.1464(9) 0.7591(6) 0.2724(4)
O42 O 0.4332(8) 0.8729(6) 0.2961(4)
O43 O 0.5653(11) 0.8585(9) 0.4055(5)
C43 C 0.0564(7) 0.9968(5) 0.4467(3)
H9 H 0.0939 0.9942 0.4109
O88 O 0.0959(5) 0.5314(3) 0.4064(2)
O89 O 0.3393(5) 0.7099(4) 0.7127(2)
O101 O 0.3540(5) 0.7725(4) 0.6384(2)
C21 C 0.9436(7) 0.0032(5) 0.5533(3)
H3 H 0.9061 0.0058 0.5891
O45 O 0.8832(5) 0.2375(3) 0.5464(2)
O46 O 0.8877(6) 0.1384(4) 0.3993(2)
O47 O 0.7908(9) 0.1503(5) 0.6003(4)
C41 C 0.9352(7) 0.0781(5) 0.5283(3)
C42 C 0.8660(8) 0.1607(5) 0.5607(3)
C44 C 0.9880(7) 0.1527(4) 0.4434(3)
C45 C 0.9930(7) 0.0757(4) 0.4740(3)
Gd10 Gd 0.64369(4) 0.24825(3) 0.65928(2)
O80 O 0.8114(7) 0.3932(5) 0.6794(3)
O81 O 0.6119(8) 0.3390(6) 0.7625(4)
O82 O 0.4868(7) 0.3646(5) 0.6602(3)
O83 O 0.6189(7) 0.2859(5) 0.5619(3)
O84 O 0.8536(9) 0.2409(6) 0.7276(4)
O85 O 0.5668(8) 0.1271(6) 0.7039(4)
O86 O 0.4347(11) 0.1415(9) 0.5945(5)
Gd31 Gd 0.81356(3) 0.15516(2) 0.299076(13)
Gd2 Gd 0.93661(3) 0.63181(2) 0.457588(13)
O1 O 0.9041(5) 0.4686(3) 0.5936(2)
O5 O 0.2267(5) 0.5392(3) 0.5957(2)
O9 O 0.8925(5) 0.5549(4) 0.5298(2)
O18 O 0.9240(5) 0.8225(4) 0.6905(3)
O20 O 0.3293(5) 0.4121(3) 0.5636(3)
O21 O 0.9137(5) 0.7732(3) 0.5379(2)
C1 C 0.7627(6) 0.6739(4) 0.6429(3)
C15 C 0.5071(6) 0.6604(5) 0.6441(3)
C17 C 0.7396(6) 0.5777(4) 0.6039(3)
C18 C 0.8562(6) 0.5321(4) 0.5744(3)
C25 C 0.4848(6) 0.5647(4) 0.6074(3)
C26 C 0.3907(6) 0.7153(4) 0.6657(3)
C29 C 0.9104(6) 0.7339(5) 0.6634(3)
C33 C 0.6466(7) 0.7146(5) 0.6631(3)
H5 H 0.6614 0.7778 0.6892
C35 C 0.6003(6) 0.5236(5) 0.5868(3)
H7 H 0.585 0.4598 0.5615
C39 C 0.3369(6) 0.5028(5) 0.5878(3)
O53 O 0.6607(5) 0.2901(4) 0.2873(2)
O56 O 0.7733(5) 0.4608(3) 0.4043(2)
O60 O 0.1075(5) 0.4451(4) 0.4702(2)
O68 O 0.6460(5) 0.2275(4) 0.3616(2)
O69 O 0.0760(5) 0.1775(4) 0.3095(3)
O71 O 0.6707(5) 0.5879(3) 0.4364(3)
C51 C 0.2373(6) 0.3261(4) 0.3571(3)
C62 C 0.4929(6) 0.3396(5) 0.3559(3)
C64 C 0.2604(6) 0.4223(4) 0.3961(3)
C65 C 0.1438(6) 0.4679(4) 0.4256(3)
C70 C 0.5152(6) 0.4353(4) 0.3926(3)
C71 C 0.6093(6) 0.2847(4) 0.3343(3)
C74 C 0.0896(6) 0.2661(5) 0.3366(3)
C75 C 0.3534(7) 0.2854(5) 0.3369(3)
H14 H 0.3386 0.2222 0.3108
C76 C 0.3997(6) 0.4764(5) 0.4132(3)
H15 H 0.415 0.5402 0.4385
C79 C 0.6631(6) 0.4972(5) 0.4122(3)
O96 O 0.8948(6) 0.6120(4) 0.3465(2)
O98 O 0.8243(5) 0.7385(4) 0.4061(2)
O55 O 0.9810(5) 0.3069(3) 0.3461(2)
O59 O 0.4297(5) 0.3225(3) 0.1939(3)
O65 O 0.5229(4) 0.1941(3) 0.1545(2)
O72 O 0.8380(5) 0.3405(4) 0.4717(2)
O74 O 0.9028(5) 0.4201(4) 0.2782(2)
O76 O 0.6024(5) 0.0801(4) 0.2218(2)
C52 C 0.2683(6) 0.1736(5) 0.1450(3)
C58 C 0.0114(7) 0.1600(5) 0.1450(3)
C59 C 0.1062(7) 0.0240(5) 0.0884(3)
C60 C 0.3619(6) 0.0313(4) 0.0769(3)
C72 C 0.2451(6) 0.0777(4) 0.1064(3)
C73 C 0.4158(6) 0.2341(4) 0.1656(3)
C77 C 0.1501(6) 0.2138(5) 0.1639(3)
H16 H 0.1641 0.2773 0.1895
O92 O 0.7319(5) 0.0389(3) 0.0957(2)
O94 O 0.8581(5) 0.2720(4) 0.1380(2)
O100 O 0.8430(5) 0.2109(4) 0.2130(2)
O111 O 0.8111(6) 0.4995(4) 0.1914(2)
O117 O 0.6415(5) 0.5059(4) 0.2489(2)
O57 O 0.6227(6) 0.8896(4) 0.1529(2)
O61 O 0.6919(5) 0.9973(4) 0.3057(2)
O63 O 0.6940(6) 0.7650(4) 0.0922(2)
O67 O 0.4113(5) 0.9689(3) 0.0966(2)
O78 O 0.8694(5) 0.9998(3) 0.2526(2)
C53 C 0.7550(7) 0.6529(5) 0.2395(3)
C54 C 0.8387(7) 0.6878(4) 0.3536(3)
C55 C 0.7233(8) 0.6869(5) 0.1901(3)
H11 H 0.7005 0.6436 0.1503
C56 C 0.6810(7) 0.8154(5) 0.1453(3)
C57 C 0.7252(7) 0.7834(5) 0.1990(3)
H12 H 0.0917 0.9601 0.0635
C61 C 0.7378(7) 0.5464(4) 0.2262(3)
C63 C 0.7952(7) 0.7184(4) 0.2997(3)
C67 C 0.7641(7) 0.8487(5) 0.2588(3)
C69 C 0.7973(7) 0.8157(5) 0.3086(3)
H13 H 0.8211 0.8594 0.3482
C80 C 0.7737(7) 0.9544(4) 0.2725(3)
O113 O 0.8340(5) 0.9138(4) 0.0564(3)
O77 O 0.3442(6) 0.8414(4) 0.9714(2)
C66 C 0.9898(6) 0.0648(5) 0.1074(3)
C68 C 0.8953(6) 0.2161(4) 0.1660(3)
C78 C 0.8414(7) 0.0019(5) 0.0849(3)
K1 K 0.85240(19) 0.25034(14) 0.84090(9)
K1_2 K 0.14760(19) 0.74966(14) 0.15910(9)
loop_
_geom_bond_atom_site_label_1
_geom_bond_atom_site_label_2
_geom_bond_site_symmetry_1
_geom_bond_site_symmetry_2
O28 Gd12 1_555 1_555
O3 C38 1_555 1_555
O7 C22 1_555 1_555
O15 C22 1_555 1_555
C38 C19 1_555 1_555
Gd22 O7 1_555 1_555
Gd28 O15 1_555 1_555
O15 Gd22 1_555 1_555
O23 C24 1_555 1_555
C24 O31 1_555 1_555
C31 C24 1_555 1_555
O49 C46 1_555 1_555
C46 C48 1_555 1_555
C50 C31 1_555 1_555
H10 C50 1_555 1_555
O51 C46 1_555 1_555
Gd15 O49 1_555 1_555
Gd26 O23 1_555 1_555
C48 C50 1_555 1_555
Gd12 O6 1_555 1_555
O6 C6 1_555 1_555
O11 C4 1_555 1_555
O12 Gd12 1_555 1_555
O13 C4 1_555 1_555
O16 Gd12 1_555 1_555
O24 Gd12 1_555 1_555
O26 C14 1_555 1_555
O34 C14 1_555 1_555
C3 C5 1_555 1_555
C4 C16 1_555 1_555
C5 H1 1_555 1_555
C6 O12 1_555 1_555
C7 C5 1_555 1_555
C11 O24 1_555 1_555
C14 C3 1_555 1_555
C16 C3 1_555 1_555
C20 C7 1_555 1_555
C23 C16 1_555 1_555
H4 C23 1_555 1_555
C30 C11 1_555 1_555
C34 C30 1_555 1_555
H6 C34 1_555 1_555
O36 C11 1_555 1_555
C40 O10 1_555 1_555
O48 C47 1_555 1_555
O50 C47 1_555 1_555
C47 C49 1_555 1_555
C49 C34 1_555 1_555
Gd19 O11 1_555 1_555
Gd22 O26 1_555 1_555
O13 Gd19 1_555 1_555
O33 C40 1_555 1_555
O34 Gd22 1_555 1_555
C6 C7 1_555 1_555
C20 C23 1_555 1_555
C20 C40 1_555 1_555
O44 Gd19 1_555 1_555
O48 Gd22 1_555 1_555
Gd22 O8 1_555 1_555
Gd28 O4 1_555 1_555
O8 C28 1_555 1_555
O14 Gd22 1_555 1_555
O19 C13 1_555 1_555
O27 Gd22 1_555 1_555
O29 Gd28 1_555 1_555
O30 Gd28 1_555 1_555
C2 C27 1_555 1_555
O35 C10 1_555 1_555
C9 C10 1_555 1_555
C10 O22 1_555 1_555
C27 C12 1_555 1_555
C28 O14 1_555 1_555
C36 C2 1_555 1_555
H8 C36 1_555 1_555
C37 C9 1_555 1_555
Gd5 O35 1_555 1_555
O37 Gd5 1_555 1_555
O38 Gd5 1_555 1_555
O39 Gd5 1_555 1_555
O40 Gd5 1_555 1_555
O41 Gd5 1_555 1_555
O42 Gd5 1_555 1_555
O43 Gd5 1_555 1_555
C43 C9 1_555 1_555
H9 C43 1_555 1_555
O89 Gd22 1_555 1_555
O101 Gd28 1_555 1_555
Gd28 O89 1_555 1_555
O30 C32 1_555 1_555
C2 C28 1_555 1_555
C8 C36 1_555 1_555
C13 C27 1_555 1_555
C32 C37 1_555 1_555
C21 H3 1_555 1_555
O45 C42 1_555 1_555
O46 C44 1_555 1_555
O47 C42 1_555 1_555
C41 C21 1_555 1_555
C42 C41 1_555 1_555
C44 C45 1_555 1_555
C45 C41 1_555 1_555
Gd10 O47 1_555 1_555
O80 Gd10 1_555 1_555
O81 Gd10 1_555 1_555
O82 Gd10 1_555 1_555
O83 Gd10 1_555 1_555
O84 Gd10 1_555 1_555
O85 Gd10 1_555 1_555
O86 Gd10 1_555 1_555
Gd31 O46 1_555 1_555
Gd2 O9 1_555 1_555
O1 C18 1_555 1_555
O89 C26 1_555 1_555
O5 C39 1_555 1_555
O9 C18 1_555 1_555
O101 C26 1_555 1_555
O20 C39 1_555 1_555
O21 Gd2 1_555 1_555
C1 C17 1_555 1_555
C15 C25 1_555 1_555
C17 C18 1_555 1_555
C25 C35 1_555 1_555
C26 C15 1_555 1_555
C29 O18 1_555 1_555
C33 C1 1_555 1_555
H5 C33 1_555 1_555
C35 C17 1_555 1_555
H7 C35 1_555 1_555
C39 C25 1_555 1_555
Gd19 O5 1_555 1_555
O88 C65 1_555 1_555
O53 C71 1_555 1_555
O56 Gd2 1_555 1_555
O60 Gd19 1_555 1_555
O68 C71 1_555 1_555
O71 Gd2 1_555 1_555
C51 C64 1_555 1_555
C62 C70 1_555 1_555
C64 C65 1_555 1_555
C65 O60 1_555 1_555
C70 C76 1_555 1_555
C71 C62 1_555 1_555
C74 O69 1_555 1_555
C75 C51 1_555 1_555
H14 C75 1_555 1_555
C76 C64 1_555 1_555
H15 C76 1_555 1_555
C79 O56 1_555 1_555
Gd26 O53 1_555 1_555
Gd31 O53 1_555 1_555
O96 Gd2 1_555 1_555
O98 Gd2 1_555 1_555
O20 Gd19 1_555 1_555
C1 C29 1_555 1_555
C15 C33 1_555 1_555
O68 Gd31 1_555 1_555
O71 C79 1_555 1_555
C51 C74 1_555 1_555
C62 C75 1_555 1_555
C70 C79 1_555 1_555
Gd26 O59 1_555 1_555
Gd31 O55 1_555 1_555
O59 C73 1_555 1_555
O65 Gd26 1_555 1_555
O104 C60 1_555 1_555
O74 Gd26 1_555 1_555
O76 Gd31 1_555 1_555
C52 C72 1_555 1_555
C72 C59 1_555 1_555
C73 O65 1_555 1_555
C77 C52 1_555 1_555
H16 C77 1_555 1_555
O94 Gd26 1_555 1_555
O100 Gd26 1_555 1_555
O111 Gd26 1_555 1_555
O117 Gd26 1_555 1_555
Gd31 O100 1_555 1_555
C52 C73 1_555 1_555
C58 C77 1_555 1_555
C60 C72 1_555 1_555
Gd15 O57 1_555 1_555
O57 C56 1_555 1_555
O96 C54 1_555 1_555
O63 Gd15 1_555 1_555
O98 C54 1_555 1_555
O67 Gd15 1_555 1_555
O111 C61 1_555 1_555
O117 C61 1_555 1_555
C53 C55 1_555 1_555
C54 C63 1_555 1_555
C55 H11 1_555 1_555
C56 O63 1_555 1_555
C57 C55 1_555 1_555
C61 C53 1_555 1_555
C63 C53 1_555 1_555
C67 C57 1_555 1_555
C69 C63 1_555 1_555
H13 C69 1_555 1_555
C80 O61 1_555 1_555
O113 Gd15 1_555 1_555
O78 C80 1_555 1_555
C56 C57 1_555 1_555
C67 C69 1_555 1_555
C67 C80 1_555 1_555
O92 C78 1_555 1_555
O94 C68 1_555 1_555
O100 C68 1_555 1_555
C78 C66 1_555 1_555

#END
