
###############################################################################
#
# This file contains modified crystal structure data generated from the
# MOF subset of the Cambridge Structural Database (CSD) v543 
# hosted by the Cambridge Crystallographic Data Centre (CCDC).
#
# This work is licensed under the Creative Commons
# Attribution-NonCommercial-ShareAlike 4.0 International License.
# To view a copy of this license, visit
# http://creativecommons.org/licenses/by-nc-sa/4.0/
# or send a letter to
# Creative Commons, PO Box 1866, Mountain View, CA 94042, USA.
#
# CIF created using the CSD Python API on 29 September 2022
# The structure has been converted into the P1 space group
# The structure has a 3D framework
# The original CSD entry RESPUC is in the triclinic crystal system
# The framework has been calculated to contain at least 10.0% void space
# The void calculation uses a probe of radius 1.32A, grid spacing 0.4
#
###############################################################################

data_RESPUC
_chemical_formula_moiety         '(C76 H56 N18 O14 Zn2)n'
_symmetry_cell_setting           triclinic
_symmetry_space_group_name_H-M   'P 1'
_symmetry_Int_Tables_number      1
_space_group_name_Hall           'P 1'
loop_
_symmetry_equiv_pos_site_id
_symmetry_equiv_pos_as_xyz
1 x,y,z
_cell_length_a                   10.6682(6)
_cell_length_b                   13.4763(7)
_cell_length_c                   15.2036(5)
_cell_angle_alpha                94.980(4)
_cell_angle_beta                 105.397(4)
_cell_angle_gamma                110.916(5)
_cell_volume                     1928.04
loop_
_atom_site_label
_atom_site_type_symbol
_atom_site_fract_x
_atom_site_fract_y
_atom_site_fract_z
C69 C 0.2821(4) 0.0478(3) 0.6235(2)
C71 C 0.1349(3) 0.0220(3) 0.5602(2)
C72 C 0.0632(3) 0.0860(3) 0.5746(2)
H54 H 0.1054 0.1446 0.6246
O12 O 0.3292(2) 0.1226(2) 0.69429(14)
Zn6 Zn 0.53294(4) 0.20468(3) 0.74869(2)
C20 C 0.1149(4) 0.6518(3) 0.9489(3)
C37 C 0.3995(3) 0.5431(2) 0.9897(2)
H27 H 0.3312 0.5720 0.9826
C38 C 0.4032(3) 0.4829(2) 0.9131(2)
H28 H 0.3380 0.4718 0.8549
N5 N 0.1158(3) 0.6056(3) 0.8708(2)
C73 C 0.5059(3) 0.3695(2) 0.8409(2)
C74 C 0.5039(3) 0.4388(2) 0.92291(18)
O13 O 0.4384(3) 0.3672(2) 0.76039(14)
O14 O 0.5776(2) 0.31120(17) 0.85969(13)
C1 C 0.6171(3) 0.0531(2) 0.08026(17)
C4 C 0.7488(3) 0.1126(3) 0.16264(19)
H1 H 0.7592 0.1865 0.1816
H2 H 0.7441 0.0765 0.2149
C5 C 0.9831(3) 0.1147(2) 0.2002(2)
H3 H 0.9792 0.2064 0.3108
O1 O 0.8665(2) 0.11185(18) 0.13262(13)
C41 C 0.5249(3) 0.1032(2) 0.04541(18)
C57 C 0.1304(3) 0.2416(2) 0.0093(2)
H42 H 0.1551 0.2308 0.0700
C59 C 0.0921(5) 0.4042(4) 0.1421(3)
H44 H 0.1883 0.4202 0.1665
C60 C 0.5431(3) 0.2086(2) 0.10091(18)
H45 H 0.4692 0.2320 0.0710
H46 H 0.6345 0.2651 0.1081
C61 C 0.5242(3) 0.2559(2) 0.2536(2)
C62 C 0.4675(4) 0.3318(3) 0.2326(2)
H47 H 0.4403 0.3414 0.1716
C63 C 0.4515(4) 0.3932(3) 0.3030(2)
H48 H 0.4113 0.4431 0.2888
C64 C 0.4941(4) 0.3819(3) 0.3943(2)
H49 H 0.4830 0.4234 0.4415
C65 C 0.5534(3) 0.3078(3) 0.41363(19)
C66 C 0.5682(3) 0.2437(3) 0.34434(19)
H50 H 0.6072 0.1932 0.3587
C67 C 0.5331(4) 0.2862(3) 0.5719(2)
H51 H 0.4492 0.2959 0.5646
C68 C 0.7154(4) 0.2735(3) 0.5486(2)
H52 H 0.7823 0.2726 0.5201
N13 N 0.0132(3) 0.3515(2) 0.05500(19)
N15 N 0.0188(4) 0.4306(3) 0.1890(2)
N16 N 0.5996(3) 0.2934(2) 0.50758(16)
N17 N 0.6033(3) 0.2638(2) 0.64584(17)
N18 N 0.7222(3) 0.2559(3) 0.6318(2)
O10 O 0.5330(3) 0.18337(18) 0.18984(14)
C49 C 0.6850(3) 0.0577(3) 0.7404(2)
H35 H 0.6642 0.0493 0.6761
C50 C 0.7642(3) 0.0473(3) 0.8813(2)
H36 H 0.8101 0.0288 0.9344
H41 H 0.9627 0.3624 0.8791
H43 H 0.8056 0.3163 0.9984
N10 N 0.7602(2) 0.01156(19) 0.79384(15)
N11 N 0.6452(3) 0.1161(2) 0.79071(15)
N12 N 0.6962(3) 0.1102(2) 0.88201(16)
C70 C 0.0708(3) 0.9365(3) 0.4847(2)
H53 H 0.1185 0.8933 0.4736
O11 O 0.3475(3) 0.9944(3) 0.6046(2)
C44 C 0.9727(3) 0.8324(3) 0.7082(2)
C45 C 0.8569(3) 0.8376(3) 0.6456(2)
H32 H 0.8268 0.8019 0.5839
C46 C 0.7844(3) 0.8952(3) 0.6728(2)
H33 H 0.7071 0.8993 0.6297
C47 C 0.8285(3) 0.9464(2) 0.76452(19)
C48 C 0.9442(3) 0.9414(2) 0.82891(19)
H34 H 0.9727 0.9753 0.8910
C6 C 0.0273(3) 0.1676(3) 0.2918(2)
C7 C 0.1431(3) 0.1624(3) 0.3544(2)
H4 H 0.1732 0.1981 0.4161
C8 C 0.2156(3) 0.1048(3) 0.3272(2)
H5 H 0.2929 0.1007 0.3703
C9 C 0.1715(3) 0.0536(2) 0.23548(19)
C10 C 0.0558(3) 0.0586(2) 0.17109(19)
H6 H 0.0273 0.0247 0.1090
C32 C 0.9292(3) 0.0635(3) 0.5153(2)
H25 H 0.8815 0.1067 0.5264
O4 O 0.6525(3) 0.0056(3) 0.3954(2)
Zn1 Zn 0.46706(4) 0.79532(3) 0.25131(2)
C11 C 0.3150(3) 0.9423(3) 0.2596(2)
H7 H 0.3358 0.9507 0.3239
C12 C 0.2358(3) 0.9527(3) 0.1187(2)
H8 H 0.1899 0.9712 0.0656
H13 H 0.0373 0.6376 0.1209
H15 H 0.1944 0.6837 0.0016
C31 C 0.7179(4) 0.9522(3) 0.3765(2)
C33 C 0.8651(3) 0.9780(3) 0.4398(2)
C34 C 0.9368(3) 0.9140(3) 0.4254(2)
H26 H 0.8946 0.8554 0.3754
C35 C 0.4941(3) 0.6305(2) 0.1591(2)
C36 C 0.4961(3) 0.5612(2) 0.07709(18)
N1 N 0.2398(2) 0.98844(19) 0.20616(15)
N2 N 0.3548(3) 0.8839(2) 0.20929(15)
N3 N 0.3038(3) 0.8898(2) 0.11799(16)
O5 O 0.6708(2) 0.8774(2) 0.30571(14)
O6 O 0.5616(3) 0.6328(2) 0.23961(14)
O7 O 0.4224(2) 0.68880(17) 0.14031(13)
C75 C 0.6005(3) 0.4569(2) 0.0103(2)
H55 H 0.6688 0.4280 0.0174
C76 C 0.5968(3) 0.5171(2) 0.0869(2)
H56 H 0.6620 0.5282 0.1451
N19 N 0.3967(3) 0.7362(2) 0.35416(17)
C3 C 0.4751(3) 0.8968(2) 0.95459(18)
C19 C 0.8696(3) 0.7584(2) 0.9907(2)
H14 H 0.8449 0.7692 0.9300
C21 C 0.9079(5) 0.5958(4) 0.8579(3)
H16 H 0.8117 0.5798 0.8335
C22 C 0.4569(3) 0.7914(2) 0.89909(18)
H17 H 0.5308 0.7680 0.9290
H18 H 0.3655 0.7349 0.8919
C23 C 0.4758(3) 0.7441(2) 0.7464(2)
C24 C 0.5325(4) 0.6682(3) 0.7674(2)
H19 H 0.5597 0.6586 0.8284
C25 C 0.5485(4) 0.6068(3) 0.6970(2)
H20 H 0.5887 0.5569 0.7112
C26 C 0.5059(4) 0.6181(3) 0.6057(2)
H21 H 0.5170 0.5766 0.5585
C27 C 0.4466(3) 0.6922(3) 0.58637(19)
C28 C 0.4318(3) 0.7563(3) 0.65566(19)
H22 H 0.3928 0.8068 0.6413
C29 C 0.4669(4) 0.7138(3) 0.4281(2)
H23 H 0.5508 0.7041 0.4354
C30 C 0.2846(4) 0.7265(3) 0.4514(2)
H24 H 0.2177 0.7274 0.4799
N4 N 0.9868(3) 0.6485(2) 0.94500(19)
N6 N 0.9812(4) 0.5694(3) 0.8110(2)
N7 N 0.4004(3) 0.7066(2) 0.49242(16)
N9 N 0.2778(3) 0.7441(3) 0.3682(2)
O3 O 0.4670(3) 0.81663(18) 0.81016(14)
C39 C 0.3829(3) 0.9469(2) 0.91974(17)
C42 C 0.2512(3) 0.8874(3) 0.83736(19)
H29 H 0.2408 0.8135 0.8184
H30 H 0.2559 0.9235 0.7851
C43 C 0.0169(3) 0.8853(2) 0.7998(2)
H31 H 0.0208 0.7936 0.6892
O8 O 0.1335(2) 0.88815(18) 0.86738(13)
C58 C 0.8851(4) 0.3482(3) 0.0511(3)
N14 N 0.8842(3) 0.3944(3) 0.1292(2)
C40 C 0.4110(3) 0.0518(2) 0.96372(18)
C51 C 0.3272(3) 0.1138(3) 0.91850(19)
H37 H 0.2679 0.0742 0.8559
H38 H 0.3915 0.1839 0.9140
C52 C 0.1700(3) 0.1950(2) 0.94265(19)
C53 C 0.1350(3) 0.2126(3) 0.8524(2)
H39 H 0.1636 0.1830 0.8077
C54 C 0.0568(4) 0.2749(3) 0.8299(2)
H40 H 0.0317 0.2858 0.7692
C55 C 0.0155(3) 0.3209(3) 0.8952(2)
C56 C 0.0538(3) 0.3044(3) 0.9850(2)
O9 O 0.2395(2) 0.12925(17) 0.97193(12)
C2 C 0.5890(3) 0.9482(2) 0.03628(18)
C13 C 0.6728(3) 0.8862(3) 0.08150(19)
H9 H 0.7321 0.9258 0.1441
H10 H 0.6085 0.8161 0.0860
C14 C 0.8300(3) 0.8050(2) 0.05735(19)
C15 C 0.8650(3) 0.7874(3) 0.1476(2)
H11 H 0.8364 0.8170 0.1923
C16 C 0.9432(4) 0.7251(3) 0.1701(2)
H12 H 0.9683 0.7142 0.2308
C17 C 0.9845(3) 0.6791(3) 0.1048(2)
C18 C 0.9462(3) 0.6956(3) 0.0150(2)
O2 O 0.7605(2) 0.87075(17) 0.02807(12)
loop_
_geom_bond_atom_site_label_1
_geom_bond_atom_site_label_2
_geom_bond_site_symmetry_1
_geom_bond_site_symmetry_2
C69 C71 1_555 1_555
H54 C72 1_555 1_555
O12 C69 1_555 1_555
Zn6 O12 1_555 1_555
C71 C72 1_555 1_555
C37 H27 1_555 1_555
C38 C37 1_555 1_555
H28 C38 1_555 1_555
N5 C20 1_555 1_555
C73 C74 1_555 1_555
C74 C38 1_555 1_555
O13 C73 1_555 1_555
O14 C73 1_555 1_555
Zn6 O14 1_555 1_555
C4 C1 1_555 1_555
H1 C4 1_555 1_555
H2 C4 1_555 1_555
O1 C4 1_555 1_555
C41 C1 1_555 1_555
H42 C57 1_555 1_555
C59 H44 1_555 1_555
C60 C41 1_555 1_555
H45 C60 1_555 1_555
H46 C60 1_555 1_555
C61 C62 1_555 1_555
C62 H47 1_555 1_555
C63 C62 1_555 1_555
H48 C63 1_555 1_555
C64 C63 1_555 1_555
H49 C64 1_555 1_555
C65 C64 1_555 1_555
C66 C61 1_555 1_555
H50 C66 1_555 1_555
C67 H51 1_555 1_555
C68 H52 1_555 1_555
N15 C59 1_555 1_555
N16 C65 1_555 1_555
N17 C67 1_555 1_555
N18 C68 1_555 1_555
O10 C60 1_555 1_555
Zn6 N17 1_555 1_555
C5 O1 1_555 1_555
C59 N13 1_555 1_555
C61 O10 1_555 1_555
C65 C66 1_555 1_555
C67 N16 1_555 1_555
C68 N16 1_555 1_555
N17 N18 1_555 1_555
C49 H35 1_555 1_555
C50 H36 1_555 1_555
N11 C49 1_555 1_555
N12 C50 1_555 1_555
Zn6 N11 1_555 1_555
C49 N10 1_555 1_555
C50 N10 1_555 1_555
N11 N12 1_555 1_555
H53 C70 1_555 1_555
C45 C44 1_555 1_555
H32 C45 1_555 1_555
C46 C45 1_555 1_555
H33 C46 1_555 1_555
C47 C46 1_555 1_555
H34 C48 1_555 1_555
C47 C48 1_555 1_555
C7 C6 1_555 1_555
H4 C7 1_555 1_555
C8 C7 1_555 1_555
H5 C8 1_555 1_555
C9 C8 1_555 1_555
H6 C10 1_555 1_555
C32 H25 1_555 1_555
C9 C10 1_555 1_555
Zn1 N2 1_555 1_555
C11 H7 1_555 1_555
C12 H8 1_555 1_555
C31 C33 1_555 1_555
C34 C33 1_555 1_555
H26 C34 1_555 1_555
C35 C36 1_555 1_555
N2 C11 1_555 1_555
N3 C12 1_555 1_555
O5 Zn1 1_555 1_555
O6 C35 1_555 1_555
O7 Zn1 1_555 1_555
H55 C75 1_555 1_555
C76 C36 1_555 1_555
H56 C76 1_555 1_555
N19 Zn1 1_555 1_555
C11 N1 1_555 1_555
C12 N1 1_555 1_555
C31 O5 1_555 1_555
C35 O7 1_555 1_555
N2 N3 1_555 1_555
C75 C76 1_555 1_555
C3 C22 1_555 1_555
H14 C19 1_555 1_555
C21 H16 1_555 1_555
C22 H17 1_555 1_555
H18 C22 1_555 1_555
C23 C24 1_555 1_555
C24 H19 1_555 1_555
C25 C24 1_555 1_555
H20 C25 1_555 1_555
C26 C25 1_555 1_555
H21 C26 1_555 1_555
C27 C26 1_555 1_555
C28 C23 1_555 1_555
H22 C28 1_555 1_555
C29 H23 1_555 1_555
C30 H24 1_555 1_555
N6 C21 1_555 1_555
N7 C27 1_555 1_555
N19 C29 1_555 1_555
N9 C30 1_555 1_555
O3 C22 1_555 1_555
C39 C3 1_555 1_555
C42 C39 1_555 1_555
H29 C42 1_555 1_555
H30 C42 1_555 1_555
O8 C42 1_555 1_555
C21 N4 1_555 1_555
C23 O3 1_555 1_555
C27 C28 1_555 1_555
C29 N7 1_555 1_555
C30 N7 1_555 1_555
N19 N9 1_555 1_555
C43 O8 1_555 1_555
N14 C58 1_555 1_555
C51 C40 1_555 1_555
H37 C51 1_555 1_555
H38 C51 1_555 1_555
C52 C53 1_555 1_555
C53 H39 1_555 1_555
C54 C53 1_555 1_555
H40 C54 1_555 1_555
C55 C54 1_555 1_555
C56 C55 1_555 1_555
O9 C51 1_555 1_555
C52 O9 1_555 1_555
C13 C2 1_555 1_555
H9 C13 1_555 1_555
H10 C13 1_555 1_555
C14 C15 1_555 1_555
C15 H11 1_555 1_555
C16 C15 1_555 1_555
H12 C16 1_555 1_555
C17 C16 1_555 1_555
C18 C17 1_555 1_555
O2 C13 1_555 1_555
C14 O2 1_555 1_555

#END
