
###############################################################################
#
# This file contains modified crystal structure data generated from the
# MOF subset of the Cambridge Structural Database (CSD) v543 
# hosted by the Cambridge Crystallographic Data Centre (CCDC).
#
# This work is licensed under the Creative Commons
# Attribution-NonCommercial-ShareAlike 4.0 International License.
# To view a copy of this license, visit
# http://creativecommons.org/licenses/by-nc-sa/4.0/
# or send a letter to
# Creative Commons, PO Box 1866, Mountain View, CA 94042, USA.
#
# CIF created using the CSD Python API on 29 September 2022
# The structure has been converted into the P1 space group
# The structure has a 3D framework
# The original CSD entry RESWOC is in the triclinic crystal system
# The framework has been calculated to contain at least 10.0% void space
# The void calculation uses a probe of radius 1.32A, grid spacing 0.4
#
###############################################################################

data_RESWOC
_chemical_formula_moiety         '(C54 H18 Er4 F24 N2 O26)n'
_symmetry_cell_setting           triclinic
_symmetry_space_group_name_H-M   'P 1'
_symmetry_Int_Tables_number      1
_space_group_name_Hall           'P 1'
loop_
_symmetry_equiv_pos_site_id
_symmetry_equiv_pos_as_xyz
1 x,y,z
_cell_length_a                   11.6710(18)
_cell_length_b                   11.8916(19)
_cell_length_c                   14.305(2)
_cell_angle_alpha                110.633(7)
_cell_angle_beta                 99.920(6)
_cell_angle_gamma                101.351(6)
_cell_volume                     1757.36
loop_
_atom_site_label
_atom_site_type_symbol
_atom_site_fract_x
_atom_site_fract_y
_atom_site_fract_z
Er2 Er 0.415700(16) 0.081600(16) 0.430750(13)
O13 O 0.3858(3) 0.2716(3) 0.4488(3)
N1 N 0.3489(5) 0.4571(4) 0.5276(4)
C25 C 0.3835(5) 0.3588(5) 0.5279(4)
H3 H 0.4084 0.3536 0.5927
C26 C 0.3048(6) 0.4722(6) 0.4340(5)
H4 H 0.3043 0.3988 0.3743
H5 H 0.3578 0.5474 0.4344
H6 H 0.2224 0.4805 0.4293
C27 C 0.3529(10) 0.5561(7) 0.6239(6)
H7 H 0.3837 0.5352 0.6821
H8 H 0.2712 0.5651 0.6237
H9 H 0.4065 0.6349 0.6311
O16 O 0.5388(3) 0.2222(3) 0.5909(2)
O19 O 0.3818(3) 0.0464(3) 0.2631(3)
O20 O 0.2117(3) 0.0491(3) 0.4190(3)
O22 O 0.5938(3) 0.0073(3) 0.4486(2)
O23 O 0.6125(3) 0.1665(3) 0.4042(3)
F1 F 0.3470(3) 0.3562(3) 0.1046(3)
F2 F 0.4696(3) 0.5952(3) 0.2148(2)
F3 F 0.1231(3) 0.6724(3) 0.3225(2)
F4 F 0.0015(3) 0.4315(3) 0.2140(2)
F9 F 0.0648(3) 0.2896(3) 0.4334(3)
O1 O 0.1509(3) 0.1813(3) 0.1335(3)
O2 O 0.0159(3) 0.2177(3) 0.0229(2)
O3 O 0.3346(3) 0.8614(3) 0.3330(2)
O4 O 0.4612(3) 0.7778(3) 0.4091(2)
O9 O 0.1377(3) 0.0803(3) 0.2782(2)
C1 C 0.1051(4) 0.2498(4) 0.0985(3)
C2 C 0.1702(4) 0.3879(4) 0.1547(3)
C3 C 0.2893(4) 0.4333(4) 0.1571(4)
C4 C 0.3532(4) 0.5570(4) 0.2135(3)
C5 C 0.2982(4) 0.6415(4) 0.2702(3)
C6 C 0.1782(4) 0.5964(4) 0.2662(3)
C7 C 0.1152(4) 0.4715(4) 0.2099(3)
C8 C 0.3719(4) 0.7718(4) 0.3431(3)
C17 C 0.1312(4) 0.0658(4) 0.3590(3)
C18 C 0.0141(4) 0.0731(4) 0.3875(3)
Er5 Er 0.584300(16) 0.918400(16) 0.569250(13)
O21 O 0.4062(3) 0.9927(3) 0.5514(2)
Er1 Er 0.098477(15) 0.972197(15) 0.104693(13)
O14 O 0.1410(3) 0.8269(3) 0.1655(3)
H1 H 0.182(7) 0.834(6) 0.212(5)
H2 H 0.084(9) 0.757(9) 0.152(7)
O18 O 0.2980(3) 0.9935(3) 0.0971(3)
O17 O 0.0917(3) 0.9815(3) 0.9432(2)
F5 F 0.7789(3) 0.1869(3) 0.1309(3)
F6 F 0.5616(3) 0.2070(3) 0.1550(3)
F10 F 0.8473(3) 0.3004(3) 0.4595(3)
O6 O 0.9083(3) 0.0185(3) 0.0568(2)
C11 C 0.7010(4) 0.0883(4) 0.1305(4)
C12 C 0.5885(4) 0.0998(4) 0.1445(4)
C13 C 0.5056(4) 0.0042(4) 0.1499(3)
C16 C 0.3856(4) 0.0168(4) 0.1721(3)
C19 C 0.9830(4) 0.1836(4) 0.4172(4)
C20 C 0.8695(4) 0.1893(4) 0.4295(4)
C21 C 0.7797(4) 0.0818(4) 0.4128(3)
C24 C 0.6567(4) 0.0875(4) 0.4230(3)
Er3 Er 0.901523(15) 0.027803(15) 0.895307(13)
F7 F 0.4598(3) 0.8007(3) 0.1453(3)
F8 F 0.6731(3) 0.7760(3) 0.1152(3)
F11 F 0.7299(3) 0.8622(2) 0.3603(2)
F12 F 0.9522(3) 0.8569(3) 0.3449(2)
O5 O 0.9082(3) 0.9113(3) 0.1532(3)
C9 C 0.8562(4) 0.9673(4) 0.1089(3)
C10 C 0.7339(4) 0.9799(4) 0.1203(3)
C14 C 0.5378(4) 0.8961(4) 0.1399(4)
C15 C 0.6491(4) 0.8839(4) 0.1254(3)
C22 C 0.8123(4) 0.9704(4) 0.3840(3)
C23 C 0.9265(4) 0.9668(4) 0.3738(3)
O15 O 0.9841(3) 0.7823(3) 0.9771(2)
F7_2 F 0.5402(3) 0.1993(3) 0.8547(3)
F8_2 F 0.3269(3) 0.2240(3) 0.8848(3)
F11_2 F 0.2701(3) 0.1378(2) 0.6397(2)
F12_2 F 0.0478(3) 0.1431(3) 0.6551(2)
O5_2 O 0.0918(3) 0.0887(3) 0.8468(3)
O7 O 0.7020(3) 0.0065(3) 0.9029(3)
C9_2 C 0.1438(4) 0.0327(4) 0.8911(3)
C10_2 C 0.2661(4) 0.0201(4) 0.8797(3)
C14_2 C 0.4622(4) 0.1039(4) 0.8601(4)
C15_2 C 0.3509(4) 0.1161(4) 0.8746(3)
C22_2 C 0.1877(4) 0.0296(4) 0.6160(3)
C23_2 C 0.0735(4) 0.0332(4) 0.6262(3)
F5_2 F 0.2211(3) 0.8131(3) 0.8691(3)
F6_2 F 0.4384(3) 0.7930(3) 0.8450(3)
F10_2 F 0.1527(3) 0.6996(3) 0.5405(3)
O8 O 0.6182(3) 0.9536(3) 0.7369(3)
O12 O 0.3875(3) 0.8335(3) 0.5958(3)
C11_2 C 0.2990(4) 0.9117(4) 0.8695(4)
C12_2 C 0.4115(4) 0.9002(4) 0.8555(4)
C13_2 C 0.4944(4) 0.9958(4) 0.8501(3)
C16_2 C 0.6144(4) 0.9832(4) 0.8279(3)
C19_2 C 0.0170(4) 0.8164(4) 0.5828(4)
C20_2 C 0.1305(4) 0.8107(4) 0.5705(4)
C21_2 C 0.2203(4) 0.9182(4) 0.5872(3)
C24_2 C 0.3433(4) 0.9125(4) 0.5770(3)
O14_2 O 0.8590(3) 0.1731(3) 0.8345(3)
H1_2 H 0.818(7) 0.166(6) 0.788(5)
H2_2 H 0.916(9) 0.243(9) 0.848(7)
F1_2 F 0.6530(3) 0.6438(3) 0.8954(3)
F2_2 F 0.5304(3) 0.4048(3) 0.7852(2)
F3_2 F 0.8769(3) 0.3276(3) 0.6775(2)
F4_2 F 0.9985(3) 0.5685(3) 0.7860(2)
F9_2 F 0.9352(3) 0.7104(3) 0.5666(3)
O1_2 O 0.8491(3) 0.8187(3) 0.8665(3)
O3_2 O 0.6654(3) 0.1386(3) 0.6670(2)
O9_2 O 0.8623(3) 0.9197(3) 0.7218(2)
O10 O 0.7883(3) 0.9509(3) 0.5810(3)
C1_2 C 0.8949(4) 0.7502(4) 0.9015(3)
C2_2 C 0.8298(4) 0.6121(4) 0.8453(3)
C3_2 C 0.7107(4) 0.5667(4) 0.8429(4)
C4_2 C 0.6468(4) 0.4430(4) 0.7865(3)
C5_2 C 0.7018(4) 0.3585(4) 0.7298(3)
C6_2 C 0.8218(4) 0.4036(4) 0.7338(3)
C7_2 C 0.8848(4) 0.5285(4) 0.7901(3)
C8_2 C 0.6281(4) 0.2282(4) 0.6569(3)
C17_2 C 0.8688(4) 0.9342(4) 0.6410(3)
C18_2 C 0.9859(4) 0.9269(4) 0.6125(3)
O13_2 O 0.6142(3) 0.7284(3) 0.5512(3)
N1_2 N 0.6511(5) 0.5429(4) 0.4724(4)
C25_2 C 0.6165(5) 0.6412(5) 0.4721(4)
H3_2 H 0.5916 0.6464 0.4073
C26_2 C 0.6952(6) 0.5278(6) 0.5660(5)
H4_2 H 0.6957 0.6012 0.6257
H5_2 H 0.6422 0.4526 0.5656
H6_2 H 0.7776 0.5195 0.5707
C27_2 C 0.6471(10) 0.4439(7) 0.3761(6)
H7_2 H 0.6163 0.4648 0.3179
H8_2 H 0.7288 0.4349 0.3763
H9_2 H 0.5935 0.3651 0.3689
loop_
_geom_bond_atom_site_label_1
_geom_bond_atom_site_label_2
_geom_bond_site_symmetry_1
_geom_bond_site_symmetry_2
O13 Er2 1_555 1_555
N1 C25 1_555 1_555
C25 O13 1_555 1_555
H3 C25 1_555 1_555
C26 N1 1_555 1_555
H4 C26 1_555 1_555
H5 C26 1_555 1_555
H6 C26 1_555 1_555
C27 N1 1_555 1_555
H7 C27 1_555 1_555
H8 C27 1_555 1_555
H9 C27 1_555 1_555
O16 Er2 1_555 1_555
O19 Er2 1_555 1_555
O20 Er2 1_555 1_555
O22 Er2 1_555 1_555
O23 Er2 1_555 1_555
F1 C3 1_555 1_555
F2 C4 1_555 1_555
F3 C6 1_555 1_555
F4 C7 1_555 1_555
O1 C1 1_555 1_555
O2 C1 1_555 1_555
O3 C8 1_555 1_555
O4 C8 1_555 1_555
O20 C17 1_555 1_555
C1 C2 1_555 1_555
C2 C3 1_555 1_555
C3 C4 1_555 1_555
C4 C5 1_555 1_555
C5 C6 1_555 1_555
C6 C7 1_555 1_555
C7 C2 1_555 1_555
C8 C5 1_555 1_555
C17 O9 1_555 1_555
C18 C17 1_555 1_555
Er5 O4 1_555 1_555
Er5 O21 1_555 1_555
O14 Er1 1_555 1_555
H1 O14 1_555 1_555
H2 O14 1_555 1_555
O18 Er1 1_555 1_555
F5 C11 1_555 1_555
F6 C12 1_555 1_555
F10 C20 1_555 1_555
O19 C16 1_555 1_555
O22 C24 1_555 1_555
O23 C24 1_555 1_555
C12 C11 1_555 1_555
C13 C12 1_555 1_555
C16 C13 1_555 1_555
C20 C19 1_555 1_555
C21 C20 1_555 1_555
C24 C21 1_555 1_555
F7 C14 1_555 1_555
F8 C15 1_555 1_555
F11 C22 1_555 1_555
F12 C23 1_555 1_555
C9 O5 1_555 1_555
C10 C9 1_555 1_555
C15 C10 1_555 1_555
C14 C15 1_555 1_555
C22 C23 1_555 1_555
F7_2 C14_2 1_555 1_555
F8_2 C15_2 1_555 1_555
F11_2 C22_2 1_555 1_555
F12_2 C23_2 1_555 1_555
C9_2 O5_2 1_555 1_555
C10_2 C9_2 1_555 1_555
C15_2 C10_2 1_555 1_555
Er3 O7 1_555 1_555
C14_2 C15_2 1_555 1_555
C22_2 C23_2 1_555 1_555
F5_2 C11_2 1_555 1_555
F6_2 C12_2 1_555 1_555
F10_2 C20_2 1_555 1_555
O8 C16_2 1_555 1_555
O21 C24_2 1_555 1_555
O12 C24_2 1_555 1_555
C12_2 C11_2 1_555 1_555
C13_2 C12_2 1_555 1_555
C16_2 C13_2 1_555 1_555
C20_2 C19_2 1_555 1_555
C21_2 C20_2 1_555 1_555
C24_2 C21_2 1_555 1_555
Er5 O8 1_555 1_555
O12 Er5 1_555 1_555
O14_2 Er3 1_555 1_555
H1_2 O14_2 1_555 1_555
H2_2 O14_2 1_555 1_555
F1_2 C3_2 1_555 1_555
F2_2 C4_2 1_555 1_555
F3_2 C6_2 1_555 1_555
F4_2 C7_2 1_555 1_555
O1_2 C1_2 1_555 1_555
O15 C1_2 1_555 1_555
O3_2 C8_2 1_555 1_555
O16 C8_2 1_555 1_555
O10 C17_2 1_555 1_555
C1_2 C2_2 1_555 1_555
C2_2 C3_2 1_555 1_555
C3_2 C4_2 1_555 1_555
C4_2 C5_2 1_555 1_555
C5_2 C6_2 1_555 1_555
C6_2 C7_2 1_555 1_555
C7_2 C2_2 1_555 1_555
C8_2 C5_2 1_555 1_555
C17_2 O9_2 1_555 1_555
C18_2 C17_2 1_555 1_555
Er5 O10 1_555 1_555
O13_2 Er5 1_555 1_555
N1_2 C25_2 1_555 1_555
C25_2 O13_2 1_555 1_555
H3_2 C25_2 1_555 1_555
C26_2 N1_2 1_555 1_555
H4_2 C26_2 1_555 1_555
H5_2 C26_2 1_555 1_555
H6_2 C26_2 1_555 1_555
C27_2 N1_2 1_555 1_555
H7_2 C27_2 1_555 1_555
H8_2 C27_2 1_555 1_555
H9_2 C27_2 1_555 1_555

#END
