
###############################################################################
#
# This file contains modified crystal structure data generated from the
# MOF subset of the Cambridge Structural Database (CSD) v543 
# hosted by the Cambridge Crystallographic Data Centre (CCDC).
#
# This work is licensed under the Creative Commons
# Attribution-NonCommercial-ShareAlike 4.0 International License.
# To view a copy of this license, visit
# http://creativecommons.org/licenses/by-nc-sa/4.0/
# or send a letter to
# Creative Commons, PO Box 1866, Mountain View, CA 94042, USA.
#
# CIF created using the CSD Python API on 29 September 2022
# The structure has been converted into the P1 space group
# The structure has a 3D framework
# The original CSD entry RETBEZ is in the orthorhombic crystal system
# The framework has been calculated to contain at least 10.0% void space
# The void calculation uses a probe of radius 1.32A, grid spacing 0.4
#
###############################################################################

data_RETBEZ
_chemical_formula_moiety         '(C184 H128 N24 O56 Zn15)n'
_symmetry_cell_setting           triclinic
_symmetry_space_group_name_H-M   'P 1'
_symmetry_Int_Tables_number      1
_space_group_name_Hall           'P 1'
loop_
_symmetry_equiv_pos_site_id
_symmetry_equiv_pos_as_xyz
1 x,y,z
_cell_length_a                   25.161(3)
_cell_length_b                   11.253(2)
_cell_length_c                   18.172(3)
_cell_angle_alpha                90
_cell_angle_beta                 90
_cell_angle_gamma                90
_cell_volume                     5145.16
loop_
_atom_site_label
_atom_site_type_symbol
_atom_site_fract_x
_atom_site_fract_y
_atom_site_fract_z
Zn2 Zn 0.2500 -0.0000 0.29015(4)
O7 O 0.2500 -0.0000 0.4014(3)
H29 H 0.2678(18) 0.059(3) 0.4201(7)
N9 N 0.17639(18) 0.1104(4) 0.2818(2)
O14 O 0.29379(16) 0.1371(3) 0.2670(2)
Zn2_2 Zn 0.2500 1.0000 0.29015(4)
C1 C 0.0636(2) 0.5636(4) 0.0708(3)
C2 C 0.0911(2) 0.6023(4) 0.1393(2)
C3 C 0.0764(2) 0.5506(4) 0.2063(2)
H1 H 0.0513 0.4899 0.2072
C4 C 0.0989(2) 0.5894(4) 0.2706(3)
C5 C 0.1369(2) 0.6786(4) 0.2691(3)
H2 H 0.1520 0.7049 0.3129
C6 C 0.1527(2) 0.7288(4) 0.2031(3)
C7 C 0.1293(2) 0.6909(4) 0.1385(3)
H3 H 0.1392 0.7252 0.0940
C8 C 0.1933(2) 0.8273(4) 0.2037(4)
C9 C 0.0820(3) 0.5362(5) 0.3423(3)
C10 C 0.0313(2) 0.1442(4) 0.0677(2)
C11 C 0.0747(2) 0.1849(4) 0.0278(3)
H4 H 0.0781 0.2645 0.0149
C12 C 0.1128(2) 0.1022(5) 0.0080(3)
C15 C 0.0256(2) 0.0239(4) 0.0850(2)
O1 O 0.04409(14) 0.4612(3) 0.06675(18)
O2 O 0.06125(15) 0.6394(3) 0.01967(17)
O3 O 0.20621(16) 0.8629(3) 0.2670(2)
O4 O 0.21173(19) 0.8649(4) 0.1450(3)
O5 O 0.0962(3) 0.5796(5) 0.4008(3)
O6 O 0.05223(17) 0.4476(3) 0.33804(19)
O7_2 O 0.2500 1.0000 0.4014(3)
H16 H 0.2322(18) 0.941(3) 0.4201(7)
C30 C 0.04081(19) 0.1259(4) 0.3666(2)
C31 C 0.0871(2) 0.1508(4) 0.3191(3)
C32 C 0.1355(2) 0.0963(4) 0.3287(3)
H21 H 0.1402 0.0474 0.3694
C33 C 0.0811(2) 0.2261(4) 0.2584(3)
H22 H 0.0492 0.2655 0.2502
C34 C 0.1228(2) 0.2406(5) 0.2115(3)
H23 H 0.1198 0.2908 0.1711
C35 C 0.1696(2) 0.1805(5) 0.2245(3)
H24 H 0.1975 0.1897 0.1914
N4 N 0.01081(16) 0.2062(3) 0.40098(19)
N5 N 0.02083(17) 0.0144(3) 0.37460(19)
Zn4 Zn 0.02537(2) 0.37973(4) 0.42641(3)
N8 N 0.32361(18) 0.8896(4) 0.2818(2)
H5 H 0.1430 0.1269 0.9829
Zn3 Zn 0.02537(2) 0.62027(4) 0.92641(3)
N7 N 0.01081(16) 0.7938(3) 0.90098(19)
O16 O 0.05223(17) 0.5524(3) 0.83804(19)
C13 C 0.1063(3) 0.9809(5) 0.0254(3)
H6 H 0.1325 0.9273 0.0111
C14 C 0.0632(2) 0.9399(4) 0.0622(3)
H7 H 0.0589 0.8594 0.0720
C36 C 0.0407(2) 0.9038(4) 0.3412(3)
H25 H 0.0243 0.8365 0.3655
H26 H 0.0788 0.8985 0.3490
C37 C 0.0292(2) 0.8972(4) 0.2589(2)
H27 H 0.0458 0.9644 0.2347
H28 H 0.0451 0.8254 0.2392
Zn1 Zn 0.97463(2) 0.37973(4) 0.07359(3)
C16 C 0.95919(19) 0.1259(4) 0.1334(2)
C17 C 0.9129(2) 0.1508(4) 0.1809(3)
C18 C 0.8645(2) 0.0963(4) 0.1713(3)
H8 H 0.8598 0.0474 0.1306
C19 C 0.9189(2) 0.2261(4) 0.2416(3)
H9 H 0.9508 0.2655 0.2498
C20 C 0.8772(2) 0.2406(5) 0.2885(3)
H10 H 0.8802 0.2908 0.3289
C21 C 0.8304(2) 0.1805(5) 0.2755(3)
H11 H 0.8025 0.1897 0.3086
N1 N 0.98919(16) 0.2062(3) 0.09902(19)
N2 N 0.97917(17) 0.0144(3) 0.12540(19)
N3 N 0.82361(18) 0.1104(4) 0.2182(2)
C24 C 0.9687(2) 0.1442(4) 0.4323(2)
C25 C 0.9253(2) 0.1849(4) 0.4722(3)
H17 H 0.9219 0.2645 0.4851
C26 C 0.8872(2) 0.1022(5) 0.4920(3)
H18 H 0.8570 0.1269 0.5171
C29 C 0.9744(2) 0.0239(4) 0.4150(2)
Zn7 Zn 0.7500 0.0000 0.20985(4)
O15 O 0.94777(17) 0.4476(3) 0.16196(19)
C38 C 0.9364(2) 0.4364(4) 0.9292(3)
C39 C 0.9089(2) 0.3977(4) 0.8607(2)
C40 C 0.9236(2) 0.4494(4) 0.7937(2)
H30 H 0.9487 0.5101 0.7928
C41 C 0.9011(2) 0.4106(4) 0.7294(3)
C42 C 0.8631(2) 0.3214(4) 0.7309(3)
H31 H 0.8480 0.2951 0.6871
C43 C 0.8473(2) 0.2712(4) 0.7969(3)
C44 C 0.8707(2) 0.3091(4) 0.8615(3)
H32 H 0.8608 0.2748 0.9060
C45 C 0.8067(2) 0.1727(4) 0.7963(4)
C46 C 0.9180(3) 0.4638(5) 0.6577(3)
O8 O 0.95591(14) 0.5388(3) 0.93325(18)
O9 O 0.93875(15) 0.3606(3) 0.98033(17)
O10 O 0.79379(16) 0.1371(3) 0.7330(2)
O11 O 0.78827(19) 0.1351(4) 0.8550(3)
O12 O 0.9038(3) 0.4204(5) 0.5992(3)
O13 O 0.94777(17) 0.5524(3) 0.66196(19)
Zn5 Zn 0.97463(2) 0.62027(4) 0.57359(3)
Zn8 Zn 0.7500 0.0000 0.70985(4)
C22 C 0.9593(2) 0.9038(4) 0.1588(3)
H12 H 0.9757 0.8365 0.1345
H13 H 0.9212 0.8985 0.1510
C23 C 0.9708(2) 0.8972(4) 0.2411(2)
H14 H 0.9542 0.9644 0.2653
H15 H 0.9549 0.8254 0.2608
C27 C 0.8937(3) 0.9809(5) 0.4746(3)
H19 H 0.8675 0.9273 0.4889
C28 C 0.9368(2) 0.9399(4) 0.4378(3)
H20 H 0.9411 0.8594 0.4280
Zn7_2 Zn 0.7500 1.0000 0.20985(4)
Zn8_2 Zn 0.7500 1.0000 0.70985(4)
C13_2 C 0.3937(3) 0.0191(5) 0.0254(3)
H6_2 H 0.3675 0.0727 0.0111
C14_2 C 0.4368(2) 0.0601(4) 0.0622(3)
H7_2 H 0.4411 0.1406 0.0720
C22_2 C 0.5407(2) 0.0962(4) 0.1588(3)
H12_2 H 0.5243 0.1635 0.1345
H13_2 H 0.5788 0.1015 0.1510
C23_2 C 0.5292(2) 0.1028(4) 0.2411(2)
H14_2 H 0.5458 0.0356 0.2653
H15_2 H 0.5451 0.1746 0.2608
C27_2 C 0.6063(3) 0.0191(5) 0.4746(3)
H19_2 H 0.6325 0.0727 0.4889
C28_2 C 0.5632(2) 0.0601(4) 0.4378(3)
H20_2 H 0.5589 0.1406 0.4280
C36_2 C 0.4593(2) 0.0962(4) 0.3412(3)
H25_2 H 0.4757 0.1635 0.3655
H26_2 H 0.4212 0.1015 0.3490
C37_2 C 0.4708(2) 0.1028(4) 0.2589(2)
H27_2 H 0.4542 0.0356 0.2347
H28_2 H 0.4549 0.1746 0.2392
Zn1_2 Zn 0.52537(2) 0.62027(4) 0.07359(3)
C1_2 C 0.4364(2) 0.4364(4) 0.0708(3)
C2_2 C 0.4089(2) 0.3977(4) 0.1393(2)
C3_2 C 0.4236(2) 0.4494(4) 0.2063(2)
H1_2 H 0.4487 0.5101 0.2072
C4_2 C 0.4011(2) 0.4106(4) 0.2706(3)
C5_2 C 0.3631(2) 0.3214(4) 0.2691(3)
H2_2 H 0.3480 0.2951 0.3129
C6_2 C 0.3473(2) 0.2712(4) 0.2031(3)
C7_2 C 0.3707(2) 0.3091(4) 0.1385(3)
H3_2 H 0.3608 0.2748 0.0940
C8_2 C 0.3067(2) 0.1727(4) 0.2037(4)
C9_2 C 0.4180(3) 0.4638(5) 0.3423(3)
C10_2 C 0.4687(2) 0.8558(4) 0.0677(2)
C11_2 C 0.4253(2) 0.8151(4) 0.0278(3)
H4_2 H 0.4219 0.7355 0.0149
C12_2 C 0.3872(2) 0.8978(5) 0.0080(3)
C15_2 C 0.4744(2) 0.9761(4) 0.0850(2)
C16_2 C 0.54081(19) 0.8741(4) 0.1334(2)
C17_2 C 0.5871(2) 0.8492(4) 0.1809(3)
C18_2 C 0.6355(2) 0.9037(4) 0.1713(3)
H8_2 H 0.6402 0.9526 0.1306
C19_2 C 0.5811(2) 0.7739(4) 0.2416(3)
H9_2 H 0.5492 0.7345 0.2498
C20_2 C 0.6228(2) 0.7594(5) 0.2885(3)
H10_2 H 0.6198 0.7092 0.3289
C21_2 C 0.6696(2) 0.8195(5) 0.2755(3)
H11_2 H 0.6975 0.8103 0.3086
N1_2 N 0.51081(16) 0.7938(3) 0.09902(19)
N2_2 N 0.52083(17) 0.9856(3) 0.12540(19)
N3_2 N 0.67639(18) 0.8896(4) 0.2182(2)
O1_2 O 0.45591(14) 0.5388(3) 0.06675(18)
O2_2 O 0.43875(15) 0.3606(3) 0.01967(17)
O4_2 O 0.28827(19) 0.1351(4) 0.1450(3)
O5_2 O 0.4038(3) 0.4204(5) 0.4008(3)
O6_2 O 0.44777(17) 0.5524(3) 0.33804(19)
C24_2 C 0.5313(2) 0.8558(4) 0.4323(2)
C25_2 C 0.5747(2) 0.8151(4) 0.4722(3)
H17_2 H 0.5781 0.7355 0.4851
C26_2 C 0.6128(2) 0.8978(5) 0.4920(3)
H18_2 H 0.6430 0.8731 0.5171
C29_2 C 0.5256(2) 0.9761(4) 0.4150(2)
C30_2 C 0.45919(19) 0.8741(4) 0.3666(2)
C31_2 C 0.4129(2) 0.8492(4) 0.3191(3)
C32_2 C 0.3645(2) 0.9037(4) 0.3287(3)
H21_2 H 0.3598 0.9526 0.3694
C33_2 C 0.4189(2) 0.7739(4) 0.2584(3)
H22_2 H 0.4508 0.7345 0.2502
C34_2 C 0.3772(2) 0.7594(5) 0.2115(3)
H23_2 H 0.3802 0.7092 0.1711
C35_2 C 0.3304(2) 0.8195(5) 0.2245(3)
H24_2 H 0.3025 0.8103 0.1914
N4_2 N 0.48919(16) 0.7938(3) 0.40098(19)
N5_2 N 0.47917(17) 0.9856(3) 0.37460(19)
Zn4_2 Zn 0.47463(2) 0.62027(4) 0.42641(3)
O15_2 O 0.55223(17) 0.5524(3) 0.16196(19)
H5_2 H 0.3570 0.8731 0.9829
Zn3_2 Zn 0.47463(2) 0.37973(4) 0.92641(3)
C38_2 C 0.5636(2) 0.5636(4) 0.9292(3)
C39_2 C 0.5911(2) 0.6023(4) 0.8607(2)
C40_2 C 0.5764(2) 0.5506(4) 0.7937(2)
H30_2 H 0.5513 0.4899 0.7928
C41_2 C 0.5989(2) 0.5894(4) 0.7294(3)
C42_2 C 0.6369(2) 0.6786(4) 0.7309(3)
H31_2 H 0.6520 0.7049 0.6871
C43_2 C 0.6527(2) 0.7288(4) 0.7969(3)
C44_2 C 0.6293(2) 0.6909(4) 0.8615(3)
H32_2 H 0.6392 0.7252 0.9060
C45_2 C 0.6933(2) 0.8273(4) 0.7963(4)
C46_2 C 0.5820(3) 0.5362(5) 0.6577(3)
O8_2 O 0.54409(14) 0.4612(3) 0.93325(18)
O9_2 O 0.56125(15) 0.6394(3) 0.98033(17)
O10_2 O 0.70621(16) 0.8629(3) 0.7330(2)
O11_2 O 0.71173(19) 0.8649(4) 0.8550(3)
O12_2 O 0.5962(3) 0.5796(5) 0.5992(3)
O13_2 O 0.55223(17) 0.4476(3) 0.66196(19)
Zn5_2 Zn 0.52537(2) 0.37973(4) 0.57359(3)
N7_2 N 0.48919(16) 0.2062(3) 0.90098(19)
O16_2 O 0.44777(17) 0.4476(3) 0.83804(19)
Zn8_3 Zn 0.2500 -0.0000 0.79015(4)
C1_3 C 0.5636(2) 0.4364(4) 0.4292(3)
C2_3 C 0.5911(2) 0.3977(4) 0.3607(2)
C3_3 C 0.5764(2) 0.4494(4) 0.2937(2)
H1_3 H 0.5513 0.5101 0.2928
C4_3 C 0.5989(2) 0.4106(4) 0.2294(3)
C5_3 C 0.6369(2) 0.3214(4) 0.2309(3)
H2_3 H 0.6520 0.2951 0.1871
C6_3 C 0.6527(2) 0.2712(4) 0.2969(3)
C7_3 C 0.6293(2) 0.3091(4) 0.3615(3)
H3_3 H 0.6392 0.2748 0.4060
C8_3 C 0.6933(2) 0.1727(4) 0.2963(4)
C9_3 C 0.5820(3) 0.4638(5) 0.1577(3)
O1_3 O 0.54409(14) 0.5388(3) 0.43325(18)
O2_3 O 0.56125(15) 0.3606(3) 0.48033(17)
O3_2 O 0.70621(16) 0.1371(3) 0.2330(2)
O4_3 O 0.71173(19) 0.1351(4) 0.3550(3)
O5_3 O 0.5962(3) 0.4204(5) 0.0992(3)
O7_3 O 0.7500 0.0000 0.0986(3)
H16_2 H 0.7322(18) 0.059(3) 0.0799(7)
C38_3 C 0.4364(2) 0.5636(4) 0.5708(3)
C39_3 C 0.4089(2) 0.6023(4) 0.6393(2)
C40_3 C 0.4236(2) 0.5506(4) 0.7063(2)
H30_3 H 0.4487 0.4899 0.7072
C41_3 C 0.4011(2) 0.5894(4) 0.7706(3)
C42_3 C 0.3631(2) 0.6786(4) 0.7691(3)
H31_3 H 0.3480 0.7049 0.8129
C43_3 C 0.3473(2) 0.7288(4) 0.7031(3)
C44_3 C 0.3707(2) 0.6909(4) 0.6385(3)
H32_3 H 0.3608 0.7252 0.5940
C45_3 C 0.3067(2) 0.8273(4) 0.7037(4)
C46_3 C 0.4180(3) 0.5362(5) 0.8423(3)
O8_3 O 0.45591(14) 0.4612(3) 0.56675(18)
O9_3 O 0.43875(15) 0.6394(3) 0.51967(17)
O10_3 O 0.29379(16) 0.8629(3) 0.7670(2)
O11_3 O 0.28827(19) 0.8649(4) 0.6450(3)
O12_3 O 0.4038(3) 0.5796(5) 0.9008(3)
Zn8_4 Zn 0.2500 1.0000 0.79015(4)
N7_3 N 0.51081(16) 0.2062(3) 0.59902(19)
O7_4 O 0.7500 1.0000 0.0986(3)
H29_2 H 0.7678(18) 0.941(3) 0.0799(7)
O14_2 O 0.79379(16) 0.8629(3) 0.2330(2)
C38_4 C 0.0636(2) 0.4364(4) 0.5708(3)
C39_4 C 0.0911(2) 0.3977(4) 0.6393(2)
C40_4 C 0.0764(2) 0.4494(4) 0.7063(2)
H30_4 H 0.0513 0.5101 0.7072
C41_4 C 0.0989(2) 0.4106(4) 0.7706(3)
C42_4 C 0.1369(2) 0.3214(4) 0.7691(3)
H31_4 H 0.1520 0.2951 0.8129
C43_4 C 0.1527(2) 0.2712(4) 0.7031(3)
C44_4 C 0.1293(2) 0.3091(4) 0.6385(3)
H32_4 H 0.1392 0.2748 0.5940
C45_4 C 0.1933(2) 0.1727(4) 0.7037(4)
C46_4 C 0.0820(3) 0.4638(5) 0.8423(3)
O8_4 O 0.04409(14) 0.5388(3) 0.56675(18)
O9_4 O 0.06125(15) 0.3606(3) 0.51967(17)
O10_4 O 0.20621(16) 0.1371(3) 0.7670(2)
O11_4 O 0.21173(19) 0.1351(4) 0.6450(3)
O12_4 O 0.0962(3) 0.4204(5) 0.9008(3)
C1_4 C 0.9364(2) 0.5636(4) 0.4292(3)
C2_4 C 0.9089(2) 0.6023(4) 0.3607(2)
C3_4 C 0.9236(2) 0.5506(4) 0.2937(2)
H1_4 H 0.9487 0.4899 0.2928
C4_4 C 0.9011(2) 0.5894(4) 0.2294(3)
C5_4 C 0.8631(2) 0.6786(4) 0.2309(3)
H2_4 H 0.8480 0.7049 0.1871
C6_4 C 0.8473(2) 0.7288(4) 0.2969(3)
C7_4 C 0.8707(2) 0.6909(4) 0.3615(3)
H3_4 H 0.8608 0.7252 0.4060
C8_4 C 0.8067(2) 0.8273(4) 0.2963(4)
C9_4 C 0.9180(3) 0.5362(5) 0.1577(3)
O1_4 O 0.95591(14) 0.4612(3) 0.43325(18)
O2_4 O 0.93875(15) 0.6394(3) 0.48033(17)
O4_4 O 0.78827(19) 0.8649(4) 0.3550(3)
O5_4 O 0.9038(3) 0.5796(5) 0.0992(3)
N7_4 N 0.98919(16) 0.7938(3) 0.59902(19)
C22_3 C 0.0407(2) 0.0962(4) 0.8412(3)
H12_3 H 0.0243 0.1635 0.8655
H13_3 H 0.0788 0.1015 0.8490
C23_3 C 0.0292(2) 0.1028(4) 0.7589(2)
H14_3 H 0.0458 0.0356 0.7347
H15_3 H 0.0451 0.1746 0.7392
C27_3 C 0.1063(3) 0.0191(5) 0.5254(3)
H19_3 H 0.1325 0.0727 0.5111
C28_3 C 0.0632(2) 0.0601(4) 0.5622(3)
H20_3 H 0.0589 0.1406 0.5720
C16_3 C 0.04081(19) 0.8741(4) 0.8666(2)
C17_3 C 0.0871(2) 0.8492(4) 0.8191(3)
C18_3 C 0.1355(2) 0.9037(4) 0.8287(3)
H8_3 H 0.1402 0.9526 0.8694
C19_3 C 0.0811(2) 0.7739(4) 0.7584(3)
H9_3 H 0.0492 0.7345 0.7502
C20_3 C 0.1228(2) 0.7594(5) 0.7115(3)
H10_3 H 0.1198 0.7092 0.6711
C21_3 C 0.1696(2) 0.8195(5) 0.7245(3)
H11_3 H 0.1975 0.8103 0.6914
N2_3 N 0.02083(17) 0.9856(3) 0.87460(19)
N3_3 N 0.17639(18) 0.8896(4) 0.7818(2)
C24_3 C 0.0313(2) 0.8558(4) 0.5677(2)
C25_3 C 0.0747(2) 0.8151(4) 0.5278(3)
H17_3 H 0.0781 0.7355 0.5149
C26_3 C 0.1128(2) 0.8978(5) 0.5080(3)
H18_3 H 0.1430 0.8731 0.4829
C29_3 C 0.0256(2) 0.9761(4) 0.5850(2)
C13_3 C 0.8937(3) 0.0191(5) 0.9746(3)
H6_3 H 0.8675 0.0727 0.9889
C14_3 C 0.9368(2) 0.0601(4) 0.9378(3)
H7_3 H 0.9411 0.1406 0.9280
C36_3 C 0.9593(2) 0.0962(4) 0.6588(3)
H25_3 H 0.9757 0.1635 0.6345
H26_3 H 0.9212 0.1015 0.6510
C37_3 C 0.9708(2) 0.1028(4) 0.7411(2)
H27_3 H 0.9542 0.0356 0.7653
H28_3 H 0.9549 0.1746 0.7608
H5_3 H 0.8570 0.8731 0.0171
C10_3 C 0.9687(2) 0.8558(4) 0.9323(2)
C11_3 C 0.9253(2) 0.8151(4) 0.9722(3)
H4_3 H 0.9219 0.7355 0.9851
C12_3 C 0.8872(2) 0.8978(5) 0.9920(3)
C15_3 C 0.9744(2) 0.9761(4) 0.9150(2)
O7_5 O 0.7500 0.0000 0.5986(3)
H16_3 H 0.7678(18) 0.059(3) 0.5799(7)
C30_3 C 0.95919(19) 0.8741(4) 0.6334(2)
C31_3 C 0.9129(2) 0.8492(4) 0.6809(3)
C32_3 C 0.8645(2) 0.9037(4) 0.6713(3)
H21_3 H 0.8598 0.9526 0.6306
C33_3 C 0.9189(2) 0.7739(4) 0.7416(3)
H22_3 H 0.9508 0.7345 0.7498
C34_3 C 0.8772(2) 0.7594(5) 0.7885(3)
H23_3 H 0.8802 0.7092 0.8289
C35_3 C 0.8304(2) 0.8195(5) 0.7755(3)
H24_3 H 0.8025 0.8103 0.8086
N5_3 N 0.97917(17) 0.9856(3) 0.62540(19)
N6 N 0.82361(18) 0.8896(4) 0.7182(2)
N8_2 N 0.67639(18) 0.1104(4) 0.7182(2)
O7_6 O 0.7500 1.0000 0.5986(3)
H29_3 H 0.7322(18) 0.941(3) 0.5799(7)
H5_4 H 0.6430 0.1269 0.0171
C10_4 C 0.5313(2) 0.1442(4) 0.9323(2)
C11_4 C 0.5747(2) 0.1849(4) 0.9722(3)
H4_4 H 0.5781 0.2645 0.9851
C12_4 C 0.6128(2) 0.1022(5) 0.9920(3)
C15_4 C 0.5256(2) 0.0239(4) 0.9150(2)
C16_4 C 0.45919(19) 0.1259(4) 0.8666(2)
C17_4 C 0.4129(2) 0.1508(4) 0.8191(3)
C18_4 C 0.3645(2) 0.0963(4) 0.8287(3)
H8_4 H 0.3598 0.0474 0.8694
C19_4 C 0.4189(2) 0.2261(4) 0.7584(3)
H9_4 H 0.4508 0.2655 0.7502
C20_4 C 0.3772(2) 0.2406(5) 0.7115(3)
H10_4 H 0.3802 0.2908 0.6711
C21_4 C 0.3304(2) 0.1805(5) 0.7245(3)
H11_4 H 0.3025 0.1897 0.6914
N2_4 N 0.47917(17) 0.0144(3) 0.87460(19)
N3_4 N 0.32361(18) 0.1104(4) 0.7818(2)
C24_4 C 0.4687(2) 0.1442(4) 0.5677(2)
C25_4 C 0.4253(2) 0.1849(4) 0.5278(3)
H17_4 H 0.4219 0.2645 0.5149
C26_4 C 0.3872(2) 0.1022(5) 0.5080(3)
H18_4 H 0.3570 0.1269 0.4829
C29_4 C 0.4744(2) 0.0239(4) 0.5850(2)
C30_4 C 0.54081(19) 0.1259(4) 0.6334(2)
C31_4 C 0.5871(2) 0.1508(4) 0.6809(3)
C32_4 C 0.6355(2) 0.0963(4) 0.6713(3)
H21_4 H 0.6402 0.0474 0.6306
C33_4 C 0.5811(2) 0.2261(4) 0.7416(3)
H22_4 H 0.5492 0.2655 0.7498
C34_4 C 0.6228(2) 0.2406(5) 0.7885(3)
H23_4 H 0.6198 0.2908 0.8289
C35_4 C 0.6696(2) 0.1805(5) 0.7755(3)
H24_4 H 0.6975 0.1897 0.8086
N5_4 N 0.52083(17) 0.0144(3) 0.62540(19)
C13_4 C 0.6063(3) 0.9809(5) 0.9746(3)
H6_4 H 0.6325 0.9273 0.9889
C14_4 C 0.5632(2) 0.9399(4) 0.9378(3)
H7_4 H 0.5589 0.8594 0.9280
C22_4 C 0.4593(2) 0.9038(4) 0.8412(3)
H12_4 H 0.4757 0.8365 0.8655
H13_4 H 0.4212 0.8985 0.8490
C23_4 C 0.4708(2) 0.8972(4) 0.7589(2)
H14_4 H 0.4542 0.9644 0.7347
H15_4 H 0.4549 0.8254 0.7392
C27_4 C 0.3937(3) 0.9809(5) 0.5254(3)
H19_4 H 0.3675 0.9273 0.5111
C28_4 C 0.4368(2) 0.9399(4) 0.5622(3)
H20_4 H 0.4411 0.8594 0.5720
C36_4 C 0.5407(2) 0.9038(4) 0.6588(3)
H25_4 H 0.5243 0.8365 0.6345
H26_4 H 0.5788 0.8985 0.6510
C37_4 C 0.5292(2) 0.8972(4) 0.7411(2)
H27_4 H 0.5458 0.9644 0.7653
H28_4 H 0.5451 0.8254 0.7608
O7_7 O 0.2500 -0.0000 0.9014(3)
H29_4 H 0.2322(18) 0.059(3) 0.9201(7)
O7_8 O 0.2500 1.0000 0.9014(3)
H16_4 H 0.2678(18) 0.941(3) 0.9201(7)
loop_
_geom_bond_atom_site_label_1
_geom_bond_atom_site_label_2
_geom_bond_site_symmetry_1
_geom_bond_site_symmetry_2
O7 Zn2 1_555 1_555
H29 O7 1_555 1_555
N9 Zn2 1_555 1_555
O14 Zn2 1_555 1_555
Zn2_2 O3 1_555 1_555
C1 C2 1_555 1_555
C2 C3 1_555 1_555
C3 H1 1_555 1_555
C4 C3 1_555 1_555
C5 C4 1_555 1_555
H2 C5 1_555 1_555
C6 C5 1_555 1_555
C7 C2 1_555 1_555
H3 C7 1_555 1_555
C8 C6 1_555 1_555
C9 C4 1_555 1_555
C10 C11 1_555 1_555
C11 H4 1_555 1_555
C12 C11 1_555 1_555
C15 C10 1_555 1_555
O2 C1 1_555 1_555
O3 C8 1_555 1_555
O4 C8 1_555 1_555
O5 C9 1_555 1_555
O6 C9 1_555 1_555
O7_2 Zn2_2 1_555 1_555
H16 O7_2 1_555 1_555
C30 C31 1_555 1_555
C31 C32 1_555 1_555
C32 H21 1_555 1_555
C33 C31 1_555 1_555
H22 C33 1_555 1_555
C34 C33 1_555 1_555
H23 C34 1_555 1_555
C35 C34 1_555 1_555
H24 C35 1_555 1_555
N9 C32 1_555 1_555
Zn4 O6 1_555 1_555
N8 Zn2_2 1_555 1_555
C1 O1 1_555 1_555
C6 C7 1_555 1_555
C30 N4 1_555 1_555
C30 N5 1_555 1_555
C35 N9 1_555 1_555
N4 Zn4 1_555 1_555
N7 Zn3 1_555 1_555
O16 Zn3 1_555 1_555
H6 C13 1_555 1_555
C14 C13 1_555 1_555
H7 C14 1_555 1_555
C36 H25 1_555 1_555
H26 C36 1_555 1_555
H27 C37 1_555 1_555
H28 C37 1_555 1_555
C36 C37 1_555 1_555
Zn1 N1 1_555 1_555
C16 C17 1_555 1_555
C17 C18 1_555 1_555
C18 H8 1_555 1_555
C19 C17 1_555 1_555
H9 C19 1_555 1_555
C20 C19 1_555 1_555
H10 C20 1_555 1_555
C21 C20 1_555 1_555
H11 C21 1_555 1_555
N3 C18 1_555 1_555
C24 C25 1_555 1_555
C25 H17 1_555 1_555
C26 C25 1_555 1_555
H18 C26 1_555 1_555
C29 C24 1_555 1_555
Zn7 N3 1_555 1_555
O15 Zn1 1_555 1_555
C16 N1 1_555 1_555
C16 N2 1_555 1_555
C21 N3 1_555 1_555
C38 C39 1_555 1_555
C39 C40 1_555 1_555
C40 H30 1_555 1_555
C41 C40 1_555 1_555
C42 C41 1_555 1_555
H31 C42 1_555 1_555
C43 C42 1_555 1_555
C44 C39 1_555 1_555
H32 C44 1_555 1_555
C45 C43 1_555 1_555
C46 C41 1_555 1_555
O10 C45 1_555 1_555
O11 C45 1_555 1_555
O12 C46 1_555 1_555
O13 C46 1_555 1_555
Zn5 O13 1_555 1_555
Zn8 O10 1_555 1_555
C38 O8 1_555 1_555
C38 O9 1_555 1_555
C43 C44 1_555 1_555
C22 H12 1_555 1_555
H13 C22 1_555 1_555
C23 C22 1_555 1_555
H14 C23 1_555 1_555
H15 C23 1_555 1_555
H19 C27 1_555 1_555
C28 C27 1_555 1_555
H20 C28 1_555 1_555
H6_2 C13_2 1_555 1_555
C14_2 C13_2 1_555 1_555
H7_2 C14_2 1_555 1_555
C22_2 H12_2 1_555 1_555
H13_2 C22_2 1_555 1_555
C23_2 C22_2 1_555 1_555
H14_2 C23_2 1_555 1_555
H15_2 C23_2 1_555 1_555
H19_2 C27_2 1_555 1_555
C28_2 C27_2 1_555 1_555
H20_2 C28_2 1_555 1_555
C36_2 H25_2 1_555 1_555
H26_2 C36_2 1_555 1_555
C37_2 C23_2 1_555 1_555
H27_2 C37_2 1_555 1_555
H28_2 C37_2 1_555 1_555
C36_2 C37_2 1_555 1_555
Zn1_2 N1_2 1_555 1_555
C1_2 C2_2 1_555 1_555
C2_2 C3_2 1_555 1_555
C3_2 H1_2 1_555 1_555
C4_2 C3_2 1_555 1_555
C5_2 C4_2 1_555 1_555
H2_2 C5_2 1_555 1_555
C6_2 C5_2 1_555 1_555
C7_2 C2_2 1_555 1_555
H3_2 C7_2 1_555 1_555
C8_2 C6_2 1_555 1_555
C9_2 C4_2 1_555 1_555
C10_2 C11_2 1_555 1_555
C11_2 H4_2 1_555 1_555
C12_2 C11_2 1_555 1_555
C15_2 C10_2 1_555 1_555
C16_2 C17_2 1_555 1_555
C17_2 C18_2 1_555 1_555
C18_2 H8_2 1_555 1_555
C19_2 C17_2 1_555 1_555
H9_2 C19_2 1_555 1_555
C20_2 C19_2 1_555 1_555
H10_2 C20_2 1_555 1_555
C21_2 C20_2 1_555 1_555
H11_2 C21_2 1_555 1_555
N1_2 C10_2 1_555 1_555
N2_2 C15_2 1_555 1_555
N3_2 C18_2 1_555 1_555
O1_2 Zn1_2 1_555 1_555
O2_2 C1_2 1_555 1_555
O14 C8_2 1_555 1_555
O4_2 C8_2 1_555 1_555
O5_2 C9_2 1_555 1_555
O6_2 C9_2 1_555 1_555
C24_2 C25_2 1_555 1_555
C25_2 H17_2 1_555 1_555
C26_2 C25_2 1_555 1_555
H18_2 C26_2 1_555 1_555
C29_2 C24_2 1_555 1_555
C30_2 C31_2 1_555 1_555
C31_2 C32_2 1_555 1_555
C32_2 H21_2 1_555 1_555
C33_2 C31_2 1_555 1_555
H22_2 C33_2 1_555 1_555
C34_2 C33_2 1_555 1_555
H23_2 C34_2 1_555 1_555
C35_2 C34_2 1_555 1_555
H24_2 C35_2 1_555 1_555
N4_2 C24_2 1_555 1_555
N5_2 C29_2 1_555 1_555
N8 C32_2 1_555 1_555
Zn4_2 O6_2 1_555 1_555
Zn7_2 N3_2 1_555 1_555
O15_2 Zn1_2 1_555 1_555
C1_2 O1_2 1_555 1_555
C6_2 C7_2 1_555 1_555
C16_2 N1_2 1_555 1_555
C16_2 N2_2 1_555 1_555
C21_2 N3_2 1_555 1_555
C30_2 N4_2 1_555 1_555
C30_2 N5_2 1_555 1_555
C35_2 N8 1_555 1_555
N4_2 Zn4_2 1_555 1_555
C38_2 C39_2 1_555 1_555
C39_2 C40_2 1_555 1_555
C40_2 H30_2 1_555 1_555
C41_2 C40_2 1_555 1_555
C42_2 C41_2 1_555 1_555
H31_2 C42_2 1_555 1_555
C43_2 C42_2 1_555 1_555
C44_2 C39_2 1_555 1_555
H32_2 C44_2 1_555 1_555
C45_2 C43_2 1_555 1_555
C46_2 C41_2 1_555 1_555
O8_2 Zn3_2 1_555 1_555
O10_2 C45_2 1_555 1_555
O11_2 C45_2 1_555 1_555
O12_2 C46_2 1_555 1_555
O13_2 C46_2 1_555 1_555
Zn5_2 O13_2 1_555 1_555
Zn8_2 O10_2 1_555 1_555
N7_2 Zn3_2 1_555 1_555
O16_2 Zn3_2 1_555 1_555
C38_2 O8_2 1_555 1_555
C38_2 O9_2 1_555 1_555
C43_2 C44_2 1_555 1_555
Zn7 O3_2 1_555 1_555
C1_3 C2_3 1_555 1_555
C2_3 C3_3 1_555 1_555
C3_3 H1_3 1_555 1_555
C4_3 C3_3 1_555 1_555
C5_3 C4_3 1_555 1_555
H2_3 C5_3 1_555 1_555
C6_3 C5_3 1_555 1_555
C7_3 C2_3 1_555 1_555
H3_3 C7_3 1_555 1_555
C8_3 C6_3 1_555 1_555
C9_3 C4_3 1_555 1_555
O1_3 Zn4_2 1_555 1_555
O2_3 C1_3 1_555 1_555
O3_2 C8_3 1_555 1_555
O4_3 C8_3 1_555 1_555
O5_3 C9_3 1_555 1_555
O15_2 C9_3 1_555 1_555
O7_3 Zn7 1_555 1_555
H16_2 O7_3 1_555 1_555
Zn5_2 O2_3 1_555 1_555
C38_3 C39_3 1_555 1_555
C39_3 C40_3 1_555 1_555
C40_3 H30_3 1_555 1_555
C41_3 C40_3 1_555 1_555
C42_3 C41_3 1_555 1_555
H31_3 C42_3 1_555 1_555
C43_3 C42_3 1_555 1_555
C44_3 C39_3 1_555 1_555
H32_3 C44_3 1_555 1_555
C45_3 C43_3 1_555 1_555
C46_3 C41_3 1_555 1_555
O8_3 Zn5_2 1_555 1_555
O9_3 Zn4_2 1_555 1_555
O10_3 C45_3 1_555 1_555
O11_3 C45_3 1_555 1_555
O12_3 C46_3 1_555 1_555
O16_2 C46_3 1_555 1_555
Zn8_4 O10_3 1_555 1_555
N7_3 Zn5_2 1_555 1_555
C1_3 O1_3 1_555 1_555
C6_3 C7_3 1_555 1_555
C38_3 O8_3 1_555 1_555
C38_3 O9_3 1_555 1_555
C43_3 C44_3 1_555 1_555
O7_4 Zn7_2 1_555 1_555
H29_2 O7_4 1_555 1_555
O14_2 Zn7_2 1_555 1_555
C38_4 C39_4 1_555 1_555
C39_4 C40_4 1_555 1_555
C40_4 H30_4 1_555 1_555
C41_4 C40_4 1_555 1_555
C42_4 C41_4 1_555 1_555
H31_4 C42_4 1_555 1_555
C43_4 C42_4 1_555 1_555
C44_4 C39_4 1_555 1_555
H32_4 C44_4 1_555 1_555
C45_4 C43_4 1_555 1_555
C46_4 C41_4 1_555 1_555
O9_4 Zn4 1_555 1_555
O10_4 C45_4 1_555 1_555
O11_4 C45_4 1_555 1_555
O12_4 C46_4 1_555 1_555
O16 C46_4 1_555 1_555
Zn8_3 O10_4 1_555 1_555
C38_4 O8_4 1_555 1_555
C38_4 O9_4 1_555 1_555
C43_4 C44_4 1_555 1_555
C1_4 C2_4 1_555 1_555
C2_4 C3_4 1_555 1_555
C3_4 H1_4 1_555 1_555
C4_4 C3_4 1_555 1_555
C5_4 C4_4 1_555 1_555
H2_4 C5_4 1_555 1_555
C6_4 C5_4 1_555 1_555
C7_4 C2_4 1_555 1_555
H3_4 C7_4 1_555 1_555
C8_4 C6_4 1_555 1_555
C9_4 C4_4 1_555 1_555
O2_4 C1_4 1_555 1_555
O14_2 C8_4 1_555 1_555
O4_4 C8_4 1_555 1_555
O5_4 C9_4 1_555 1_555
O15 C9_4 1_555 1_555
Zn5 O2_4 1_555 1_555
N7_4 Zn5 1_555 1_555
C1_4 O1_4 1_555 1_555
C6_4 C7_4 1_555 1_555
C22_3 H12_3 1_555 1_555
H13_3 C22_3 1_555 1_555
C23_3 C22_3 1_555 1_555
H14_3 C23_3 1_555 1_555
H15_3 C23_3 1_555 1_555
H19_3 C27_3 1_555 1_555
C28_3 C27_3 1_555 1_555
H20_3 C28_3 1_555 1_555
C16_3 C17_3 1_555 1_555
C17_3 C18_3 1_555 1_555
C18_3 H8_3 1_555 1_555
C19_3 C17_3 1_555 1_555
H9_3 C19_3 1_555 1_555
C20_3 C19_3 1_555 1_555
H10_3 C20_3 1_555 1_555
C21_3 C20_3 1_555 1_555
H11_3 C21_3 1_555 1_555
N3_3 C18_3 1_555 1_555
C24_3 C25_3 1_555 1_555
C25_3 H17_3 1_555 1_555
C26_3 C25_3 1_555 1_555
H18_3 C26_3 1_555 1_555
C29_3 C24_3 1_555 1_555
Zn8_4 N3_3 1_555 1_555
C16_3 N7 1_555 1_555
C16_3 N2_3 1_555 1_555
C21_3 N3_3 1_555 1_555
H6_3 C13_3 1_555 1_555
C14_3 C13_3 1_555 1_555
H7_3 C14_3 1_555 1_555
C36_3 H25_3 1_555 1_555
H26_3 C36_3 1_555 1_555
H27_3 C37_3 1_555 1_555
H28_3 C37_3 1_555 1_555
C36_3 C37_3 1_555 1_555
C10_3 C11_3 1_555 1_555
C11_3 H4_3 1_555 1_555
C12_3 C11_3 1_555 1_555
C15_3 C10_3 1_555 1_555
O7_5 Zn8 1_555 1_555
H16_3 O7_5 1_555 1_555
C30_3 C31_3 1_555 1_555
C31_3 C32_3 1_555 1_555
C32_3 H21_3 1_555 1_555
C33_3 C31_3 1_555 1_555
H22_3 C33_3 1_555 1_555
C34_3 C33_3 1_555 1_555
H23_3 C34_3 1_555 1_555
C35_3 C34_3 1_555 1_555
H24_3 C35_3 1_555 1_555
N6 C32_3 1_555 1_555
Zn8_2 N6 1_555 1_555
N8_2 Zn8 1_555 1_555
C30_3 N7_4 1_555 1_555
C30_3 N5_3 1_555 1_555
C35_3 N6 1_555 1_555
O7_6 Zn8_2 1_555 1_555
H29_3 O7_6 1_555 1_555
C10_4 C11_4 1_555 1_555
C11_4 H4_4 1_555 1_555
C12_4 C11_4 1_555 1_555
C15_4 C10_4 1_555 1_555
C16_4 C17_4 1_555 1_555
C17_4 C18_4 1_555 1_555
C18_4 H8_4 1_555 1_555
C19_4 C17_4 1_555 1_555
H9_4 C19_4 1_555 1_555
C20_4 C19_4 1_555 1_555
H10_4 C20_4 1_555 1_555
C21_4 C20_4 1_555 1_555
H11_4 C21_4 1_555 1_555
N7_2 C10_4 1_555 1_555
N2_4 C15_4 1_555 1_555
N3_4 C18_4 1_555 1_555
C24_4 C25_4 1_555 1_555
C25_4 H17_4 1_555 1_555
C26_4 C25_4 1_555 1_555
H18_4 C26_4 1_555 1_555
C29_4 C24_4 1_555 1_555
C30_4 C31_4 1_555 1_555
C31_4 C32_4 1_555 1_555
C32_4 H21_4 1_555 1_555
C33_4 C31_4 1_555 1_555
H22_4 C33_4 1_555 1_555
C34_4 C33_4 1_555 1_555
H23_4 C34_4 1_555 1_555
C35_4 C34_4 1_555 1_555
H24_4 C35_4 1_555 1_555
N7_3 C24_4 1_555 1_555
N5_4 C29_4 1_555 1_555
N8_2 C32_4 1_555 1_555
Zn8_3 N3_4 1_555 1_555
C16_4 N7_2 1_555 1_555
C16_4 N2_4 1_555 1_555
C21_4 N3_4 1_555 1_555
C30_4 N7_3 1_555 1_555
C30_4 N5_4 1_555 1_555
C35_4 N8_2 1_555 1_555
H6_4 C13_4 1_555 1_555
C14_4 C13_4 1_555 1_555
H7_4 C14_4 1_555 1_555
C22_4 H12_4 1_555 1_555
H13_4 C22_4 1_555 1_555
C23_4 C22_4 1_555 1_555
H14_4 C23_4 1_555 1_555
H15_4 C23_4 1_555 1_555
H19_4 C27_4 1_555 1_555
C28_4 C27_4 1_555 1_555
H20_4 C28_4 1_555 1_555
C36_4 H25_4 1_555 1_555
H26_4 C36_4 1_555 1_555
C37_4 C23_4 1_555 1_555
H27_4 C37_4 1_555 1_555
H28_4 C37_4 1_555 1_555
C36_4 C37_4 1_555 1_555
O7_7 Zn8_3 1_555 1_555
H29_4 O7_7 1_555 1_555
O7_8 Zn8_4 1_555 1_555
H16_4 O7_8 1_555 1_555

#END
