
###############################################################################
#
# This file contains modified crystal structure data generated from the
# MOF subset of the Cambridge Structural Database (CSD) v543 
# hosted by the Cambridge Crystallographic Data Centre (CCDC).
#
# This work is licensed under the Creative Commons
# Attribution-NonCommercial-ShareAlike 4.0 International License.
# To view a copy of this license, visit
# http://creativecommons.org/licenses/by-nc-sa/4.0/
# or send a letter to
# Creative Commons, PO Box 1866, Mountain View, CA 94042, USA.
#
# CIF created using the CSD Python API on 29 September 2022
# The structure has been converted into the P1 space group
# The structure has a 3D framework
# The original CSD entry RETDOM is in the tetragonal crystal system
# The original CSD entry RETDOM is in a Sohncke space group
# The framework has been calculated to contain at least 10.0% void space
# The void calculation uses a probe of radius 1.32A, grid spacing 0.4
# The framework is charged, counterions have been retained in the structure
# H atom positions have been added when not included in the experimental data
#
###############################################################################

data_RETDOM
_chemical_formula_moiety         '(C208 H120 N48 O88 Zn16 8-)n'
_symmetry_cell_setting           triclinic
_symmetry_space_group_name_H-M   'P 1'
_symmetry_Int_Tables_number      1
_space_group_name_Hall           'P 1'
loop_
_symmetry_equiv_pos_site_id
_symmetry_equiv_pos_as_xyz
1 x,y,z
_cell_length_a                   27.458(4)
_cell_length_b                   27.458(4)
_cell_length_c                   18.225(4)
_cell_angle_alpha                90
_cell_angle_beta                 90
_cell_angle_gamma                90
_cell_volume                     13740.6
loop_
_atom_site_label
_atom_site_type_symbol
_atom_site_fract_x
_atom_site_fract_y
_atom_site_fract_z
Zn1 Zn 0.13765(2) 0.41935(2) 0.22952(2)
Zn2 Zn 0.20084(2) 0.34568(2) 0.34209(2)
O1 O 0.12108(6) 0.46952(5) 0.15943(9)
O2 O 0.06612(9) 0.42606(7) 0.09929(13)
O5 O 0.33173(8) 0.78346(7) 0.23825(11)
O6 O 0.36078(7) 0.84691(7) 0.17500(11)
O9 O 0.19607(7) 0.45036(6) 0.27441(10)
O10 O 0.23767(7) 0.40939(6) 0.35968(10)
O11 O 0.15467(16) 0.28031(14) 0.3242(2)
N1 N 0.24564(8) 0.62517(7) 0.28652(11)
H1 H 0.2571 0.6520 0.3038
N2 N 0.20634(9) 0.70837(8) 0.07026(12)
H2 H 0.1841 0.7088 0.0371
N3 N 0.14329(9) 0.55663(7) 0.11704(11)
H3 H 0.1404 0.5351 0.1511
N4 N 0.22675(8) 0.67069(7) 0.18308(11)
N5 N 0.19129(9) 0.59192(7) 0.20252(11)
N6 N 0.17356(9) 0.63506(8) 0.09322(11)
C1 C 0.22030(8) 0.62822(8) 0.22175(12)
C2 C 0.17001(10) 0.59646(8) 0.13620(13)
C3 C 0.20299(10) 0.67086(9) 0.11840(13)
C4 C 0.11976(9) 0.54484(8) 0.05124(11)
C9 C 0.09266(9) 0.50055(8) 0.04605(12)
C10 C 0.09219(9) 0.46209(8) 0.10520(12)
C12 C 0.23993(9) 0.74639(9) 0.06566(13)
C13 C 0.26925(10) 0.75966(9) 0.12468(14)
H7 H 0.2660 0.7435 0.1692
C14 C 0.30343(9) 0.79707(8) 0.11775(14)
C17 C 0.30818(9) 0.82203(9) 0.05176(15)
H9 H 0.3315 0.8464 0.0467
C18 C 0.33414(9) 0.80933(8) 0.18416(14)
C20 C 0.25486(8) 0.58282(8) 0.32752(12)
C21 C 0.28580(11) 0.58626(11) 0.38911(16)
H10 H 0.2987 0.6164 0.4022
C22 C 0.29725(12) 0.54553(11) 0.43024(19)
H11 H 0.3174 0.5486 0.4710
C23 C 0.27858(11) 0.49876(10) 0.41078(16)
H12 H 0.2861 0.4713 0.4384
C24 C 0.24911(9) 0.49562(8) 0.34982(13)
C25 C 0.23650(8) 0.53672(8) 0.30955(13)
H13 H 0.2154 0.5336 0.2699
C26 C 0.22553(9) 0.44828(8) 0.32744(13)
Zn3 Zn 0.41935(2) 0.86235(2) 0.22952(2)
Zn5 Zn 0.34568(2) 0.79916(2) 0.34209(2)
O12 O 0.08688(7) 0.41887(7) 0.30360(10)
O13 O 0.13644(7) 0.37471(8) 0.37228(10)
O14 O 0.21654(7) 0.33173(8) 0.23825(11)
O15 O 0.15309(7) 0.36078(7) 0.17500(11)
O16 O 0.22382(7) 0.31342(7) 0.43111(10)
H14 H 0.133429 0.285621 0.280835
H15 H 0.175787 0.25152 0.315538
O3 O 0.08113(7) 0.58688(7) 0.80360(10)
O4 O 0.12529(8) 0.63644(7) 0.87228(10)
O7 O 0.18658(7) 0.72382(7) 0.93111(10)
O8 O 0.21511(7) 0.79004(7) 0.87700(10)
C5 C 0.12151(9) 0.57583(8) 0.98981(12)
H4 H 0.1389 0.6048 0.9923
C6 C 0.09730(9) 0.56340(8) 0.92521(12)
C7 C 0.06921(9) 0.52140(8) 0.92105(13)
H5 H 0.0516 0.5141 0.8788
C8 C 0.06804(10) 0.49048(9) 0.98143(13)
H6 H 0.0500 0.4619 0.9783
C11 C 0.10103(9) 0.59843(9) 0.86305(12)
C15 C 0.24367(8) 0.77281(8) 0.99853(13)
C16 C 0.27772(9) 0.81021(9) 0.99346(13)
H8 H 0.2802 0.8277 0.9500
C19 C 0.21368(8) 0.76270(8) 0.92942(13)
Zn4 Zn 0.08065(2) 0.63765(2) 0.72952(2)
Zn6 Zn 0.15432(2) 0.70084(2) 0.84209(2)
Zn1_2 Zn 0.86235(2) 0.58065(2) 0.22952(2)
Zn2_2 Zn 0.79916(2) 0.65432(2) 0.34209(2)
O1_2 O 0.87892(6) 0.53048(5) 0.15943(9)
O2_2 O 0.93388(9) 0.57394(7) 0.09929(13)
O5_2 O 0.66827(8) 0.21654(7) 0.23825(11)
O6_2 O 0.63922(7) 0.15309(7) 0.17500(11)
O9_2 O 0.80393(7) 0.54964(6) 0.27441(10)
O10_2 O 0.76233(7) 0.59061(6) 0.35968(10)
O11_2 O 0.84533(16) 0.71969(14) 0.3242(2)
N1_2 N 0.75436(8) 0.37483(7) 0.28652(11)
H1_2 H 0.7429 0.3480 0.3038
N2_2 N 0.79366(9) 0.29163(8) 0.07026(12)
H2_2 H 0.8159 0.2912 0.0371
N3_2 N 0.85671(9) 0.44337(7) 0.11704(11)
H3_2 H 0.8596 0.4649 0.1511
N4_2 N 0.77325(8) 0.32931(7) 0.18308(11)
N5_2 N 0.80871(9) 0.40808(7) 0.20252(11)
N6_2 N 0.82644(9) 0.36494(8) 0.09322(11)
C1_2 C 0.77970(8) 0.37178(8) 0.22175(12)
C2_2 C 0.82999(10) 0.40354(8) 0.13620(13)
C3_2 C 0.79701(10) 0.32914(9) 0.11840(13)
C4_2 C 0.88024(9) 0.45516(8) 0.05124(11)
C9_2 C 0.90734(9) 0.49945(8) 0.04605(12)
C10_2 C 0.90781(9) 0.53791(8) 0.10520(12)
C12_2 C 0.76007(9) 0.25361(9) 0.06566(13)
C13_2 C 0.73075(10) 0.24034(9) 0.12468(14)
H7_2 H 0.7340 0.2565 0.1692
C14_2 C 0.69657(9) 0.20293(8) 0.11775(14)
C17_2 C 0.69182(9) 0.17797(9) 0.05176(15)
H9_2 H 0.6685 0.1536 0.0467
C18_2 C 0.66586(9) 0.19067(8) 0.18416(14)
C20_2 C 0.74514(8) 0.41718(8) 0.32752(12)
C21_2 C 0.71420(11) 0.41374(11) 0.38911(16)
H10_2 H 0.7013 0.3836 0.4022
C22_2 C 0.70275(12) 0.45447(11) 0.43024(19)
H11_2 H 0.6826 0.4514 0.4710
C23_2 C 0.72142(11) 0.50124(10) 0.41078(16)
H12_2 H 0.7139 0.5287 0.4384
C24_2 C 0.75089(9) 0.50438(8) 0.34982(13)
C25_2 C 0.76350(8) 0.46328(8) 0.30955(13)
H13_2 H 0.7846 0.4664 0.2699
C26_2 C 0.77447(9) 0.55172(8) 0.32744(13)
Zn3_2 Zn 0.58065(2) 0.13765(2) 0.22952(2)
Zn5_2 Zn 0.65432(2) 0.20084(2) 0.34209(2)
O12_2 O 0.91312(7) 0.58113(7) 0.30360(10)
O13_2 O 0.86356(7) 0.62529(8) 0.37228(10)
O14_2 O 0.78346(7) 0.66827(8) 0.23825(11)
O15_2 O 0.84691(7) 0.63922(7) 0.17500(11)
O16_2 O 0.77618(7) 0.68658(7) 0.43111(10)
H14_2 H 0.866571 0.714379 0.280835
H15_2 H 0.824213 0.74848 0.315538
O3_2 O 0.91887(7) 0.41312(7) 0.80360(10)
O4_2 O 0.87471(8) 0.36356(7) 0.87228(10)
O7_2 O 0.81342(7) 0.27618(7) 0.93111(10)
O8_2 O 0.78489(7) 0.20996(7) 0.87700(10)
C5_2 C 0.87849(9) 0.42417(8) 0.98981(12)
H4_2 H 0.8611 0.3952 0.9923
C6_2 C 0.90270(9) 0.43660(8) 0.92521(12)
C7_2 C 0.93079(9) 0.47860(8) 0.92105(13)
H5_2 H 0.9484 0.4859 0.8788
C8_2 C 0.93196(10) 0.50952(9) 0.98143(13)
H6_2 H 0.9500 0.5381 0.9783
C11_2 C 0.89897(9) 0.40157(9) 0.86305(12)
C15_2 C 0.75633(8) 0.22719(8) 0.99853(13)
C16_2 C 0.72228(9) 0.18979(9) 0.99346(13)
H8_2 H 0.7198 0.1723 0.9500
C19_2 C 0.78632(8) 0.23730(8) 0.92942(13)
Zn4_2 Zn 0.91935(2) 0.36235(2) 0.72952(2)
Zn6_2 Zn 0.84568(2) 0.29916(2) 0.84209(2)
O1_3 O 0.53048(5) 0.12108(6) 0.15943(9)
O2_3 O 0.57394(7) 0.06612(9) 0.09929(13)
O9_3 O 0.54964(6) 0.19607(7) 0.27441(10)
O10_3 O 0.59061(6) 0.23767(7) 0.35968(10)
O11_3 O 0.71969(14) 0.15467(16) 0.3242(2)
N1_3 N 0.37483(7) 0.24564(8) 0.28652(11)
H1_3 H 0.3480 0.2571 0.3038
N2_3 N 0.29163(8) 0.20634(9) 0.07026(12)
H2_3 H 0.2912 0.1841 0.0371
N3_3 N 0.44337(7) 0.14329(9) 0.11704(11)
H3_3 H 0.4649 0.1404 0.1511
N4_3 N 0.32931(7) 0.22675(8) 0.18308(11)
N5_3 N 0.40808(7) 0.19129(9) 0.20252(11)
N6_3 N 0.36494(8) 0.17356(9) 0.09322(11)
C1_3 C 0.37178(8) 0.22030(8) 0.22175(12)
C2_3 C 0.40354(8) 0.17001(10) 0.13620(13)
C3_3 C 0.32914(9) 0.20299(10) 0.11840(13)
C4_3 C 0.45516(8) 0.11976(9) 0.05124(11)
C9_3 C 0.49945(8) 0.09266(9) 0.04605(12)
C10_3 C 0.53791(8) 0.09219(9) 0.10520(12)
C12_3 C 0.25361(9) 0.23993(9) 0.06566(13)
C13_3 C 0.24034(9) 0.26925(10) 0.12468(14)
H7_3 H 0.2565 0.2660 0.1692
C14_3 C 0.20293(8) 0.30343(9) 0.11775(14)
C17_3 C 0.17797(9) 0.30818(9) 0.05176(15)
H9_3 H 0.1536 0.3315 0.0467
C18_3 C 0.19067(8) 0.33414(9) 0.18416(14)
C20_3 C 0.41718(8) 0.25486(8) 0.32752(12)
C21_3 C 0.41374(11) 0.28580(11) 0.38911(16)
H10_3 H 0.3836 0.2987 0.4022
C22_3 C 0.45447(11) 0.29725(12) 0.43024(19)
H11_3 H 0.4514 0.3174 0.4710
C23_3 C 0.50124(10) 0.27858(11) 0.41078(16)
H12_3 H 0.5287 0.2861 0.4384
C24_3 C 0.50438(8) 0.24911(9) 0.34982(13)
C25_3 C 0.46328(8) 0.23650(8) 0.30955(13)
H13_3 H 0.4664 0.2154 0.2699
C26_3 C 0.55172(8) 0.22553(9) 0.32744(13)
O12_3 O 0.58113(7) 0.08688(7) 0.30360(10)
O13_3 O 0.62529(8) 0.13644(7) 0.37228(10)
O16_3 O 0.68658(7) 0.22382(7) 0.43111(10)
H14_3 H 0.714379 0.133429 0.280835
H15_3 H 0.74848 0.175787 0.315538
O3_3 O 0.41312(7) 0.08113(7) 0.80360(10)
O4_3 O 0.36356(7) 0.12529(8) 0.87228(10)
O7_3 O 0.27618(7) 0.18658(7) 0.93111(10)
O8_3 O 0.20996(7) 0.21511(7) 0.87700(10)
C5_3 C 0.42417(8) 0.12151(9) 0.98981(12)
H4_3 H 0.3952 0.1389 0.9923
C6_3 C 0.43660(8) 0.09730(9) 0.92521(12)
C7_3 C 0.47860(8) 0.06921(9) 0.92105(13)
H5_3 H 0.4859 0.0516 0.8788
C8_3 C 0.50952(9) 0.06804(10) 0.98143(13)
H6_3 H 0.5381 0.0500 0.9783
C11_3 C 0.40157(9) 0.10103(9) 0.86305(12)
C15_3 C 0.22719(8) 0.24367(8) 0.99853(13)
C16_3 C 0.18979(9) 0.27772(9) 0.99346(13)
H8_3 H 0.1723 0.2802 0.9500
C19_3 C 0.23730(8) 0.21368(8) 0.92942(13)
Zn4_3 Zn 0.36235(2) 0.08065(2) 0.72952(2)
Zn6_3 Zn 0.29916(2) 0.15432(2) 0.84209(2)
O1_4 O 0.46952(5) 0.87892(6) 0.15943(9)
O2_4 O 0.42606(7) 0.93388(9) 0.09929(13)
O9_4 O 0.45036(6) 0.80393(7) 0.27441(10)
O10_4 O 0.40939(6) 0.76233(7) 0.35968(10)
O11_4 O 0.28031(14) 0.84533(16) 0.3242(2)
N1_4 N 0.62517(7) 0.75436(8) 0.28652(11)
H1_4 H 0.6520 0.7429 0.3038
N2_4 N 0.70837(8) 0.79366(9) 0.07026(12)
H2_4 H 0.7088 0.8159 0.0371
N3_4 N 0.55663(7) 0.85671(9) 0.11704(11)
H3_4 H 0.5351 0.8596 0.1511
N4_4 N 0.67069(7) 0.77325(8) 0.18308(11)
N5_4 N 0.59192(7) 0.80871(9) 0.20252(11)
N6_4 N 0.63506(8) 0.82644(9) 0.09322(11)
C1_4 C 0.62822(8) 0.77970(8) 0.22175(12)
C2_4 C 0.59646(8) 0.82999(10) 0.13620(13)
C3_4 C 0.67086(9) 0.79701(10) 0.11840(13)
C4_4 C 0.54484(8) 0.88024(9) 0.05124(11)
C9_4 C 0.50055(8) 0.90734(9) 0.04605(12)
C10_4 C 0.46209(8) 0.90781(9) 0.10520(12)
C12_4 C 0.74639(9) 0.76007(9) 0.06566(13)
C13_4 C 0.75966(9) 0.73075(10) 0.12468(14)
H7_4 H 0.7435 0.7340 0.1692
C14_4 C 0.79707(8) 0.69657(9) 0.11775(14)
C17_4 C 0.82203(9) 0.69182(9) 0.05176(15)
H9_4 H 0.8464 0.6685 0.0467
C18_4 C 0.80933(8) 0.66586(9) 0.18416(14)
C20_4 C 0.58282(8) 0.74514(8) 0.32752(12)
C21_4 C 0.58626(11) 0.71420(11) 0.38911(16)
H10_4 H 0.6164 0.7013 0.4022
C22_4 C 0.54553(11) 0.70275(12) 0.43024(19)
H11_4 H 0.5486 0.6826 0.4710
C23_4 C 0.49876(10) 0.72142(11) 0.41078(16)
H12_4 H 0.4713 0.7139 0.4384
C24_4 C 0.49562(8) 0.75089(9) 0.34982(13)
C25_4 C 0.53672(8) 0.76350(8) 0.30955(13)
H13_4 H 0.5336 0.7846 0.2699
C26_4 C 0.44828(8) 0.77447(9) 0.32744(13)
O12_4 O 0.41887(7) 0.91312(7) 0.30360(10)
O13_4 O 0.37471(8) 0.86356(7) 0.37228(10)
O16_4 O 0.31342(7) 0.77618(7) 0.43111(10)
H14_4 H 0.285621 0.866571 0.280835
H15_4 H 0.25152 0.824213 0.315538
O3_4 O 0.58688(7) 0.91887(7) 0.80360(10)
O4_4 O 0.63644(7) 0.87471(8) 0.87228(10)
O7_4 O 0.72382(7) 0.81342(7) 0.93111(10)
O8_4 O 0.79004(7) 0.78489(7) 0.87700(10)
C5_4 C 0.57583(8) 0.87849(9) 0.98981(12)
H4_4 H 0.6048 0.8611 0.9923
C6_4 C 0.56340(8) 0.90270(9) 0.92521(12)
C7_4 C 0.52140(8) 0.93079(9) 0.92105(13)
H5_4 H 0.5141 0.9484 0.8788
C8_4 C 0.49048(9) 0.93196(10) 0.98143(13)
H6_4 H 0.4619 0.9500 0.9783
C11_4 C 0.59843(9) 0.89897(9) 0.86305(12)
C15_4 C 0.77281(8) 0.75633(8) 0.99853(13)
C16_4 C 0.81021(9) 0.72228(9) 0.99346(13)
H8_4 H 0.8277 0.7198 0.9500
C19_4 C 0.76270(8) 0.78632(8) 0.92942(13)
Zn4_4 Zn 0.63765(2) 0.91935(2) 0.72952(2)
Zn6_4 Zn 0.70084(2) 0.84568(2) 0.84209(2)
O5_3 O 0.83173(8) 0.28346(7) 0.73825(11)
O6_3 O 0.86078(7) 0.34691(7) 0.67500(11)
O8_5 O 0.71511(7) 0.29004(7) 0.37700(10)
N1_5 N 0.74564(8) 0.12517(7) 0.78652(11)
H1_5 H 0.7571 0.1520 0.8038
N2_5 N 0.70634(9) 0.20837(8) 0.57026(12)
H2_5 H 0.6841 0.2088 0.5371
N3_5 N 0.64329(9) 0.05663(7) 0.61704(11)
H3_5 H 0.6404 0.0351 0.6511
N4_5 N 0.72675(8) 0.17069(7) 0.68308(11)
N5_5 N 0.69129(9) 0.09192(7) 0.70252(11)
N6_5 N 0.67356(9) 0.13506(8) 0.59322(11)
C1_5 C 0.72030(8) 0.12822(8) 0.72175(12)
C2_5 C 0.67001(10) 0.09646(8) 0.63620(13)
C3_5 C 0.70299(10) 0.17086(9) 0.61840(13)
C4_5 C 0.61976(9) 0.04484(8) 0.55124(11)
C5_5 C 0.62151(9) 0.07583(8) 0.48981(12)
H4_5 H 0.6389 0.1048 0.4923
C6_5 C 0.59730(9) 0.06340(8) 0.42521(12)
C7_5 C 0.56921(9) 0.02140(8) 0.42105(13)
H5_5 H 0.5516 0.0141 0.3788
C9_5 C 0.59266(9) 0.00055(8) 0.54605(12)
C11_5 C 0.60103(9) 0.09843(9) 0.36305(12)
C12_5 C 0.73993(9) 0.24639(9) 0.56566(13)
C13_5 C 0.76925(10) 0.25966(9) 0.62468(14)
H7_5 H 0.7660 0.2435 0.6692
C14_5 C 0.80343(9) 0.29707(8) 0.61775(14)
C15_5 C 0.74367(8) 0.27281(8) 0.49853(13)
C16_5 C 0.77772(9) 0.31021(9) 0.49346(13)
H8_5 H 0.7802 0.3277 0.4500
C17_5 C 0.80818(9) 0.32203(9) 0.55176(15)
H9_5 H 0.8315 0.3464 0.5467
C18_5 C 0.83414(9) 0.30933(8) 0.68416(14)
C19_5 C 0.71368(8) 0.26270(8) 0.42942(13)
C20_5 C 0.75486(8) 0.08282(8) 0.82752(12)
C21_5 C 0.78580(11) 0.08626(11) 0.88911(16)
H10_5 H 0.7987 0.1164 0.9022
C22_5 C 0.79725(12) 0.04553(11) 0.93024(19)
H11_5 H 0.8174 0.0486 0.9710
C25_5 C 0.73650(8) 0.03672(8) 0.80955(13)
H13_5 H 0.7154 0.0336 0.7699
O1_5 O 0.62108(6) 0.96952(5) 0.65943(9)
O2_5 O 0.56612(9) 0.92606(7) 0.59929(13)
O9_5 O 0.69607(7) 0.95036(6) 0.77441(10)
O10_5 O 0.73767(7) 0.90939(6) 0.85968(10)
O11_5 O 0.65467(16) 0.78031(14) 0.8242(2)
C8_5 C 0.56804(10) 0.99048(9) 0.48143(13)
H6_5 H 0.5500 0.9619 0.4783
C10_5 C 0.59219(9) 0.96209(8) 0.60520(12)
C23_5 C 0.77858(11) 0.99876(10) 0.91078(16)
H12_5 H 0.7861 0.9713 0.9384
C24_5 C 0.74911(9) 0.99562(8) 0.84982(13)
C26_5 C 0.72553(9) 0.94828(8) 0.82744(13)
O14_3 O 0.71654(7) 0.83173(8) 0.73825(11)
O15_3 O 0.65309(7) 0.86078(7) 0.67500(11)
H14_5 H 0.633429 0.785621 0.780835
H15_5 H 0.675787 0.75152 0.815538
O1_6 O 0.37892(6) 0.03048(5) 0.65943(9)
O2_6 O 0.43388(9) 0.07394(7) 0.59929(13)
O9_6 O 0.30393(7) 0.04964(6) 0.77441(10)
O10_6 O 0.26233(7) 0.09061(6) 0.85968(10)
O11_6 O 0.34533(16) 0.21969(14) 0.8242(2)
C8_6 C 0.43196(10) 0.00952(9) 0.48143(13)
H6_6 H 0.4500 0.0381 0.4783
C10_6 C 0.40781(9) 0.03791(8) 0.60520(12)
C23_6 C 0.22142(11) 0.00124(10) 0.91078(16)
H12_6 H 0.2139 0.0287 0.9384
C24_6 C 0.25089(9) 0.00438(8) 0.84982(13)
C26_6 C 0.27447(9) 0.05172(8) 0.82744(13)
O14_4 O 0.28346(7) 0.16827(8) 0.73825(11)
O15_4 O 0.34691(7) 0.13922(7) 0.67500(11)
H14_6 H 0.366571 0.214379 0.780835
H15_6 H 0.324213 0.24848 0.815538
O5_4 O 0.16827(8) 0.71654(7) 0.73825(11)
O6_4 O 0.13922(7) 0.65309(7) 0.67500(11)
O8_6 O 0.28489(7) 0.70996(7) 0.37700(10)
N1_6 N 0.25436(8) 0.87483(7) 0.78652(11)
H1_6 H 0.2429 0.8480 0.8038
N2_6 N 0.29366(9) 0.79163(8) 0.57026(12)
H2_6 H 0.3159 0.7912 0.5371
N3_6 N 0.35671(9) 0.94337(7) 0.61704(11)
H3_6 H 0.3596 0.9649 0.6511
N4_6 N 0.27325(8) 0.82931(7) 0.68308(11)
N5_6 N 0.30871(9) 0.90808(7) 0.70252(11)
N6_6 N 0.32644(9) 0.86494(8) 0.59322(11)
C1_6 C 0.27970(8) 0.87178(8) 0.72175(12)
C2_6 C 0.32999(10) 0.90354(8) 0.63620(13)
C3_6 C 0.29701(10) 0.82914(9) 0.61840(13)
C4_6 C 0.38024(9) 0.95516(8) 0.55124(11)
C5_6 C 0.37849(9) 0.92417(8) 0.48981(12)
H4_6 H 0.3611 0.8952 0.4923
C6_6 C 0.40270(9) 0.93660(8) 0.42521(12)
C7_6 C 0.43079(9) 0.97860(8) 0.42105(13)
H5_6 H 0.4484 0.9859 0.3788
C9_6 C 0.40734(9) 0.99945(8) 0.54605(12)
C11_6 C 0.39897(9) 0.90157(9) 0.36305(12)
C12_6 C 0.26007(9) 0.75361(9) 0.56566(13)
C13_6 C 0.23075(10) 0.74034(9) 0.62468(14)
H7_6 H 0.2340 0.7565 0.6692
C14_6 C 0.19657(9) 0.70293(8) 0.61775(14)
C15_6 C 0.25633(8) 0.72719(8) 0.49853(13)
C16_6 C 0.22228(9) 0.68979(9) 0.49346(13)
H8_6 H 0.2198 0.6723 0.4500
C17_6 C 0.19182(9) 0.67797(9) 0.55176(15)
H9_6 H 0.1685 0.6536 0.5467
C18_6 C 0.16586(9) 0.69067(8) 0.68416(14)
C19_6 C 0.28632(8) 0.73730(8) 0.42942(13)
C20_6 C 0.24514(8) 0.91718(8) 0.82752(12)
C21_6 C 0.21420(11) 0.91374(11) 0.88911(16)
H10_6 H 0.2013 0.8836 0.9022
C22_6 C 0.20275(12) 0.95447(11) 0.93024(19)
H11_6 H 0.1826 0.9514 0.9710
C25_6 C 0.26350(8) 0.96328(8) 0.80955(13)
H13_6 H 0.2846 0.9664 0.7699
O1_7 O 0.03048(5) 0.62108(6) 0.65943(9)
O2_7 O 0.07394(7) 0.56612(9) 0.59929(13)
O9_7 O 0.04964(6) 0.69607(7) 0.77441(10)
O10_7 O 0.09061(6) 0.73767(7) 0.85968(10)
O11_7 O 0.21969(14) 0.65467(16) 0.8242(2)
C8_7 C 0.00952(9) 0.56804(10) 0.48143(13)
H6_7 H 0.0381 0.5500 0.4783
C10_7 C 0.03791(8) 0.59219(9) 0.60520(12)
C23_7 C 0.00124(10) 0.77858(11) 0.91078(16)
H12_7 H 0.0287 0.7861 0.9384
C24_7 C 0.00438(8) 0.74911(9) 0.84982(13)
C26_7 C 0.05172(8) 0.72553(9) 0.82744(13)
H14_7 H 0.214379 0.633429 0.780835
H15_7 H 0.24848 0.675787 0.815538
O8_7 O 0.70996(7) 0.71511(7) 0.37700(10)
N1_7 N 0.87483(7) 0.74564(8) 0.78652(11)
H1_7 H 0.8480 0.7571 0.8038
N2_7 N 0.79163(8) 0.70634(9) 0.57026(12)
H2_7 H 0.7912 0.6841 0.5371
N3_7 N 0.94337(7) 0.64329(9) 0.61704(11)
H3_7 H 0.9649 0.6404 0.6511
N4_7 N 0.82931(7) 0.72675(8) 0.68308(11)
N5_7 N 0.90808(7) 0.69129(9) 0.70252(11)
N6_7 N 0.86494(8) 0.67356(9) 0.59322(11)
C1_7 C 0.87178(8) 0.72030(8) 0.72175(12)
C2_7 C 0.90354(8) 0.67001(10) 0.63620(13)
C3_7 C 0.82914(9) 0.70299(10) 0.61840(13)
C4_7 C 0.95516(8) 0.61976(9) 0.55124(11)
C5_7 C 0.92417(8) 0.62151(9) 0.48981(12)
H4_7 H 0.8952 0.6389 0.4923
C6_7 C 0.93660(8) 0.59730(9) 0.42521(12)
C7_7 C 0.97860(8) 0.56921(9) 0.42105(13)
H5_7 H 0.9859 0.5516 0.3788
C9_7 C 0.99945(8) 0.59266(9) 0.54605(12)
C11_7 C 0.90157(9) 0.60103(9) 0.36305(12)
C12_7 C 0.75361(9) 0.73993(9) 0.56566(13)
C13_7 C 0.74034(9) 0.76925(10) 0.62468(14)
H7_7 H 0.7565 0.7660 0.6692
C14_7 C 0.70293(8) 0.80343(9) 0.61775(14)
C15_7 C 0.72719(8) 0.74367(8) 0.49853(13)
C16_7 C 0.68979(9) 0.77772(9) 0.49346(13)
H8_7 H 0.6723 0.7802 0.4500
C17_7 C 0.67797(9) 0.80818(9) 0.55176(15)
H9_7 H 0.6536 0.8315 0.5467
C18_7 C 0.69067(8) 0.83414(9) 0.68416(14)
C19_7 C 0.73730(8) 0.71368(8) 0.42942(13)
C20_7 C 0.91718(8) 0.75486(8) 0.82752(12)
C21_7 C 0.91374(11) 0.78580(11) 0.88911(16)
H10_7 H 0.8836 0.7987 0.9022
C22_7 C 0.95447(11) 0.79725(12) 0.93024(19)
H11_7 H 0.9514 0.8174 0.9710
C25_7 C 0.96328(8) 0.73650(8) 0.80955(13)
H13_7 H 0.9664 0.7154 0.7699
O8_8 O 0.29004(7) 0.28489(7) 0.37700(10)
N1_8 N 0.12517(7) 0.25436(8) 0.78652(11)
H1_8 H 0.1520 0.2429 0.8038
N2_8 N 0.20837(8) 0.29366(9) 0.57026(12)
H2_8 H 0.2088 0.3159 0.5371
N3_8 N 0.05663(7) 0.35671(9) 0.61704(11)
H3_8 H 0.0351 0.3596 0.6511
N4_8 N 0.17069(7) 0.27325(8) 0.68308(11)
N5_8 N 0.09192(7) 0.30871(9) 0.70252(11)
N6_8 N 0.13506(8) 0.32644(9) 0.59322(11)
C1_8 C 0.12822(8) 0.27970(8) 0.72175(12)
C2_8 C 0.09646(8) 0.32999(10) 0.63620(13)
C3_8 C 0.17086(9) 0.29701(10) 0.61840(13)
C4_8 C 0.04484(8) 0.38024(9) 0.55124(11)
C5_8 C 0.07583(8) 0.37849(9) 0.48981(12)
H4_8 H 0.1048 0.3611 0.4923
C6_8 C 0.06340(8) 0.40270(9) 0.42521(12)
C7_8 C 0.02140(8) 0.43079(9) 0.42105(13)
H5_8 H 0.0141 0.4484 0.3788
C9_8 C 0.00055(8) 0.40734(9) 0.54605(12)
C11_8 C 0.09843(9) 0.39897(9) 0.36305(12)
C12_8 C 0.24639(9) 0.26007(9) 0.56566(13)
C13_8 C 0.25966(9) 0.23075(10) 0.62468(14)
H7_8 H 0.2435 0.2340 0.6692
C14_8 C 0.29707(8) 0.19657(9) 0.61775(14)
C15_8 C 0.27281(8) 0.25633(8) 0.49853(13)
C16_8 C 0.31021(9) 0.22228(9) 0.49346(13)
H8_8 H 0.3277 0.2198 0.4500
C17_8 C 0.32203(9) 0.19182(9) 0.55176(15)
H9_8 H 0.3464 0.1685 0.5467
C18_8 C 0.30933(8) 0.16586(9) 0.68416(14)
C19_8 C 0.26270(8) 0.28632(8) 0.42942(13)
C20_8 C 0.08282(8) 0.24514(8) 0.82752(12)
C21_8 C 0.08626(11) 0.21420(11) 0.88911(16)
H10_8 H 0.1164 0.2013 0.9022
C22_8 C 0.04553(11) 0.20275(12) 0.93024(19)
H11_8 H 0.0486 0.1826 0.9710
C25_8 C 0.03672(8) 0.26350(8) 0.80955(13)
H13_8 H 0.0336 0.2846 0.7699
O1_8 O 0.96952(5) 0.37892(6) 0.65943(9)
O2_8 O 0.92606(7) 0.43388(9) 0.59929(13)
O9_8 O 0.95036(6) 0.30393(7) 0.77441(10)
O10_8 O 0.90939(6) 0.26233(7) 0.85968(10)
O11_8 O 0.78031(14) 0.34533(16) 0.8242(2)
C8_8 C 0.99048(9) 0.43196(10) 0.48143(13)
H6_8 H 0.9619 0.4500 0.4783
C10_8 C 0.96209(8) 0.40781(9) 0.60520(12)
C23_8 C 0.99876(10) 0.22142(11) 0.91078(16)
H12_8 H 0.9713 0.2139 0.9384
C24_8 C 0.99562(8) 0.25089(9) 0.84982(13)
C26_8 C 0.94828(8) 0.27447(9) 0.82744(13)
H14_8 H 0.785621 0.366571 0.780835
H15_8 H 0.75152 0.324213 0.815538
loop_
_geom_bond_atom_site_label_1
_geom_bond_atom_site_label_2
_geom_bond_site_symmetry_1
_geom_bond_site_symmetry_2
Zn1 O1 1_555 1_555
Zn2 O10 1_555 1_555
O1 C10 1_555 1_555
O2 C10 1_555 1_555
O5 C18 1_555 1_555
O6 C18 1_555 1_555
O9 Zn1 1_555 1_555
O10 C26 1_555 1_555
O11 Zn2 1_555 1_555
N1 H1 1_555 1_555
N2 H2 1_555 1_555
N3 H3 1_555 1_555
N4 C1 1_555 1_555
N5 C1 1_555 1_555
N6 C2 1_555 1_555
C1 N1 1_555 1_555
C2 N3 1_555 1_555
C3 N2 1_555 1_555
C4 N3 1_555 1_555
C9 C4 1_555 1_555
C10 C9 1_555 1_555
C12 N2 1_555 1_555
C13 C12 1_555 1_555
H7 C13 1_555 1_555
C14 C13 1_555 1_555
C17 C14 1_555 1_555
H9 C17 1_555 1_555
C18 C14 1_555 1_555
C20 N1 1_555 1_555
C21 C20 1_555 1_555
H10 C21 1_555 1_555
C22 C21 1_555 1_555
H11 C22 1_555 1_555
C23 C22 1_555 1_555
H12 C23 1_555 1_555
C24 C23 1_555 1_555
C25 C20 1_555 1_555
H13 C25 1_555 1_555
C26 O9 1_555 1_555
Zn3 O6 1_555 1_555
Zn5 O5 1_555 1_555
O12 Zn1 1_555 1_555
O13 Zn2 1_555 1_555
O14 Zn2 1_555 1_555
O15 Zn1 1_555 1_555
O16 Zn2 1_555 1_555
N4 C3 1_555 1_555
N5 C2 1_555 1_555
N6 C3 1_555 1_555
C24 C25 1_555 1_555
C24 C26 1_555 1_555
O11 H14 1_555 1_555
O11 H15 1_555 1_555
O3 C11 1_555 1_555
O4 C11 1_555 1_555
O7 C19 1_555 1_555
O8 C19 1_555 1_555
H4 C5 1_555 1_555
C6 C5 1_555 1_555
C7 C6 1_555 1_555
H5 C7 1_555 1_555
C8 C7 1_555 1_555
H6 C8 1_555 1_555
C11 C6 1_555 1_555
C16 C15 1_555 1_555
H8 C16 1_555 1_555
C19 C15 1_555 1_555
Zn4 O3 1_555 1_555
Zn6 O4 1_555 1_555
O7 Zn6 1_555 1_555
Zn1_2 O1_2 1_555 1_555
Zn2_2 O10_2 1_555 1_555
O1_2 C10_2 1_555 1_555
O2_2 C10_2 1_555 1_555
O5_2 C18_2 1_555 1_555
O6_2 C18_2 1_555 1_555
O9_2 Zn1_2 1_555 1_555
O10_2 C26_2 1_555 1_555
O11_2 Zn2_2 1_555 1_555
N1_2 H1_2 1_555 1_555
N2_2 H2_2 1_555 1_555
N3_2 H3_2 1_555 1_555
N4_2 C1_2 1_555 1_555
N5_2 C1_2 1_555 1_555
N6_2 C2_2 1_555 1_555
C1_2 N1_2 1_555 1_555
C2_2 N3_2 1_555 1_555
C3_2 N2_2 1_555 1_555
C4_2 N3_2 1_555 1_555
C9_2 C4_2 1_555 1_555
C10_2 C9_2 1_555 1_555
C12_2 N2_2 1_555 1_555
C13_2 C12_2 1_555 1_555
H7_2 C13_2 1_555 1_555
C14_2 C13_2 1_555 1_555
C17_2 C14_2 1_555 1_555
H9_2 C17_2 1_555 1_555
C18_2 C14_2 1_555 1_555
C20_2 N1_2 1_555 1_555
C21_2 C20_2 1_555 1_555
H10_2 C21_2 1_555 1_555
C22_2 C21_2 1_555 1_555
H11_2 C22_2 1_555 1_555
C23_2 C22_2 1_555 1_555
H12_2 C23_2 1_555 1_555
C24_2 C23_2 1_555 1_555
C25_2 C20_2 1_555 1_555
H13_2 C25_2 1_555 1_555
C26_2 O9_2 1_555 1_555
Zn3_2 O6_2 1_555 1_555
Zn5_2 O5_2 1_555 1_555
O12_2 Zn1_2 1_555 1_555
O13_2 Zn2_2 1_555 1_555
O14_2 Zn2_2 1_555 1_555
O15_2 Zn1_2 1_555 1_555
O16_2 Zn2_2 1_555 1_555
N4_2 C3_2 1_555 1_555
N5_2 C2_2 1_555 1_555
N6_2 C3_2 1_555 1_555
C24_2 C25_2 1_555 1_555
C24_2 C26_2 1_555 1_555
O11_2 H14_2 1_555 1_555
O11_2 H15_2 1_555 1_555
O3_2 C11_2 1_555 1_555
O4_2 C11_2 1_555 1_555
O7_2 C19_2 1_555 1_555
O8_2 C19_2 1_555 1_555
H4_2 C5_2 1_555 1_555
C6_2 C5_2 1_555 1_555
C7_2 C6_2 1_555 1_555
H5_2 C7_2 1_555 1_555
C8_2 C7_2 1_555 1_555
H6_2 C8_2 1_555 1_555
C11_2 C6_2 1_555 1_555
C16_2 C15_2 1_555 1_555
H8_2 C16_2 1_555 1_555
C19_2 C15_2 1_555 1_555
Zn4_2 O3_2 1_555 1_555
Zn6_2 O4_2 1_555 1_555
O7_2 Zn6_2 1_555 1_555
Zn3_2 O1_3 1_555 1_555
Zn5_2 O10_3 1_555 1_555
O1_3 C10_3 1_555 1_555
O2_3 C10_3 1_555 1_555
O14 C18_3 1_555 1_555
O15 C18_3 1_555 1_555
O9_3 Zn3_2 1_555 1_555
O10_3 C26_3 1_555 1_555
O11_3 Zn5_2 1_555 1_555
N1_3 H1_3 1_555 1_555
N2_3 H2_3 1_555 1_555
N3_3 H3_3 1_555 1_555
N4_3 C1_3 1_555 1_555
N5_3 C1_3 1_555 1_555
N6_3 C2_3 1_555 1_555
C1_3 N1_3 1_555 1_555
C2_3 N3_3 1_555 1_555
C3_3 N2_3 1_555 1_555
C4_3 N3_3 1_555 1_555
C9_3 C4_3 1_555 1_555
C10_3 C9_3 1_555 1_555
C12_3 N2_3 1_555 1_555
C13_3 C12_3 1_555 1_555
H7_3 C13_3 1_555 1_555
C14_3 C13_3 1_555 1_555
C17_3 C14_3 1_555 1_555
H9_3 C17_3 1_555 1_555
C18_3 C14_3 1_555 1_555
C20_3 N1_3 1_555 1_555
C21_3 C20_3 1_555 1_555
H10_3 C21_3 1_555 1_555
C22_3 C21_3 1_555 1_555
H11_3 C22_3 1_555 1_555
C23_3 C22_3 1_555 1_555
H12_3 C23_3 1_555 1_555
C24_3 C23_3 1_555 1_555
C25_3 C20_3 1_555 1_555
H13_3 C25_3 1_555 1_555
C26_3 O9_3 1_555 1_555
O12_3 Zn3_2 1_555 1_555
O13_3 Zn5_2 1_555 1_555
O16_3 Zn5_2 1_555 1_555
N4_3 C3_3 1_555 1_555
N5_3 C2_3 1_555 1_555
N6_3 C3_3 1_555 1_555
C24_3 C25_3 1_555 1_555
C24_3 C26_3 1_555 1_555
O11_3 H14_3 1_555 1_555
O11_3 H15_3 1_555 1_555
O3_3 C11_3 1_555 1_555
O4_3 C11_3 1_555 1_555
O7_3 C19_3 1_555 1_555
O8_3 C19_3 1_555 1_555
H4_3 C5_3 1_555 1_555
C6_3 C5_3 1_555 1_555
C7_3 C6_3 1_555 1_555
H5_3 C7_3 1_555 1_555
C8_3 C7_3 1_555 1_555
H6_3 C8_3 1_555 1_555
C11_3 C6_3 1_555 1_555
C16_3 C15_3 1_555 1_555
H8_3 C16_3 1_555 1_555
C19_3 C15_3 1_555 1_555
Zn4_3 O3_3 1_555 1_555
Zn6_3 O4_3 1_555 1_555
O7_3 Zn6_3 1_555 1_555
Zn3 O1_4 1_555 1_555
Zn5 O10_4 1_555 1_555
O1_4 C10_4 1_555 1_555
O2_4 C10_4 1_555 1_555
O14_2 C18_4 1_555 1_555
O15_2 C18_4 1_555 1_555
O9_4 Zn3 1_555 1_555
O10_4 C26_4 1_555 1_555
O11_4 Zn5 1_555 1_555
N1_4 H1_4 1_555 1_555
N2_4 H2_4 1_555 1_555
N3_4 H3_4 1_555 1_555
N4_4 C1_4 1_555 1_555
N5_4 C1_4 1_555 1_555
N6_4 C2_4 1_555 1_555
C1_4 N1_4 1_555 1_555
C2_4 N3_4 1_555 1_555
C3_4 N2_4 1_555 1_555
C4_4 N3_4 1_555 1_555
C9_4 C4_4 1_555 1_555
C10_4 C9_4 1_555 1_555
C12_4 N2_4 1_555 1_555
C13_4 C12_4 1_555 1_555
H7_4 C13_4 1_555 1_555
C14_4 C13_4 1_555 1_555
C17_4 C14_4 1_555 1_555
H9_4 C17_4 1_555 1_555
C18_4 C14_4 1_555 1_555
C20_4 N1_4 1_555 1_555
C21_4 C20_4 1_555 1_555
H10_4 C21_4 1_555 1_555
C22_4 C21_4 1_555 1_555
H11_4 C22_4 1_555 1_555
C23_4 C22_4 1_555 1_555
H12_4 C23_4 1_555 1_555
C24_4 C23_4 1_555 1_555
C25_4 C20_4 1_555 1_555
H13_4 C25_4 1_555 1_555
C26_4 O9_4 1_555 1_555
O12_4 Zn3 1_555 1_555
O13_4 Zn5 1_555 1_555
O16_4 Zn5 1_555 1_555
N4_4 C3_4 1_555 1_555
N5_4 C2_4 1_555 1_555
N6_4 C3_4 1_555 1_555
C24_4 C25_4 1_555 1_555
C24_4 C26_4 1_555 1_555
O11_4 H14_4 1_555 1_555
O11_4 H15_4 1_555 1_555
O3_4 C11_4 1_555 1_555
O4_4 C11_4 1_555 1_555
O7_4 C19_4 1_555 1_555
O8_4 C19_4 1_555 1_555
H4_4 C5_4 1_555 1_555
C6_4 C5_4 1_555 1_555
C7_4 C6_4 1_555 1_555
H5_4 C7_4 1_555 1_555
C8_4 C7_4 1_555 1_555
H6_4 C8_4 1_555 1_555
C11_4 C6_4 1_555 1_555
C16_4 C15_4 1_555 1_555
H8_4 C16_4 1_555 1_555
C19_4 C15_4 1_555 1_555
Zn4_4 O3_4 1_555 1_555
Zn6_4 O4_4 1_555 1_555
O7_4 Zn6_4 1_555 1_555
O12_3 C11_5 1_555 1_555
O13_3 C11_5 1_555 1_555
O5_3 C18_5 1_555 1_555
O6_3 C18_5 1_555 1_555
O16_3 C19_5 1_555 1_555
O8_5 C19_5 1_555 1_555
N1_5 H1_5 1_555 1_555
N2_5 H2_5 1_555 1_555
N3_5 H3_5 1_555 1_555
N4_5 C1_5 1_555 1_555
N5_5 C1_5 1_555 1_555
N6_5 C2_5 1_555 1_555
C1_5 N1_5 1_555 1_555
C2_5 N3_5 1_555 1_555
C3_5 N2_5 1_555 1_555
C4_5 N3_5 1_555 1_555
C5_5 C4_5 1_555 1_555
H4_5 C5_5 1_555 1_555
C6_5 C5_5 1_555 1_555
C7_5 C6_5 1_555 1_555
H5_5 C7_5 1_555 1_555
C9_5 C4_5 1_555 1_555
C11_5 C6_5 1_555 1_555
C12_5 N2_5 1_555 1_555
C13_5 C12_5 1_555 1_555
H7_5 C13_5 1_555 1_555
C14_5 C13_5 1_555 1_555
C15_5 C12_5 1_555 1_555
C16_5 C15_5 1_555 1_555
H8_5 C16_5 1_555 1_555
C17_5 C14_5 1_555 1_555
H9_5 C17_5 1_555 1_555
C18_5 C14_5 1_555 1_555
C19_5 C15_5 1_555 1_555
C20_5 N1_5 1_555 1_555
C21_5 C20_5 1_555 1_555
H10_5 C21_5 1_555 1_555
C22_5 C21_5 1_555 1_555
H11_5 C22_5 1_555 1_555
C25_5 C20_5 1_555 1_555
H13_5 C25_5 1_555 1_555
Zn4_2 O6_3 1_555 1_555
Zn6_2 O5_3 1_555 1_555
N4_5 C3_5 1_555 1_555
N5_5 C2_5 1_555 1_555
N6_5 C3_5 1_555 1_555
C16_5 C17_5 1_555 1_555
Zn4_4 O1_5 1_555 1_555
Zn6_4 O10_5 1_555 1_555
O1_5 C10_5 1_555 1_555
O2_5 C10_5 1_555 1_555
O9_5 Zn4_4 1_555 1_555
O10_5 C26_5 1_555 1_555
O11_5 Zn6_4 1_555 1_555
H6_5 C8_5 1_555 1_555
H12_5 C23_5 1_555 1_555
C24_5 C23_5 1_555 1_555
C26_5 O9_5 1_555 1_555
O14_3 Zn6_4 1_555 1_555
O15_3 Zn4_4 1_555 1_555
C24_5 C26_5 1_555 1_555
O11_5 H14_5 1_555 1_555
O11_5 H15_5 1_555 1_555
Zn4_3 O1_6 1_555 1_555
Zn6_3 O10_6 1_555 1_555
O1_6 C10_6 1_555 1_555
O2_6 C10_6 1_555 1_555
O9_6 Zn4_3 1_555 1_555
O10_6 C26_6 1_555 1_555
O11_6 Zn6_3 1_555 1_555
H6_6 C8_6 1_555 1_555
H12_6 C23_6 1_555 1_555
C24_6 C23_6 1_555 1_555
C26_6 O9_6 1_555 1_555
O14_4 Zn6_3 1_555 1_555
O15_4 Zn4_3 1_555 1_555
C24_6 C26_6 1_555 1_555
O11_6 H14_6 1_555 1_555
O11_6 H15_6 1_555 1_555
O12_4 C11_6 1_555 1_555
O13_4 C11_6 1_555 1_555
O5_4 C18_6 1_555 1_555
O6_4 C18_6 1_555 1_555
O16_4 C19_6 1_555 1_555
O8_6 C19_6 1_555 1_555
N1_6 H1_6 1_555 1_555
N2_6 H2_6 1_555 1_555
N3_6 H3_6 1_555 1_555
N4_6 C1_6 1_555 1_555
N5_6 C1_6 1_555 1_555
N6_6 C2_6 1_555 1_555
C1_6 N1_6 1_555 1_555
C2_6 N3_6 1_555 1_555
C3_6 N2_6 1_555 1_555
C4_6 N3_6 1_555 1_555
C5_6 C4_6 1_555 1_555
H4_6 C5_6 1_555 1_555
C6_6 C5_6 1_555 1_555
C7_6 C6_6 1_555 1_555
H5_6 C7_6 1_555 1_555
C9_6 C4_6 1_555 1_555
C11_6 C6_6 1_555 1_555
C12_6 N2_6 1_555 1_555
C13_6 C12_6 1_555 1_555
H7_6 C13_6 1_555 1_555
C14_6 C13_6 1_555 1_555
C15_6 C12_6 1_555 1_555
C16_6 C15_6 1_555 1_555
H8_6 C16_6 1_555 1_555
C17_6 C14_6 1_555 1_555
H9_6 C17_6 1_555 1_555
C18_6 C14_6 1_555 1_555
C19_6 C15_6 1_555 1_555
C20_6 N1_6 1_555 1_555
C21_6 C20_6 1_555 1_555
H10_6 C21_6 1_555 1_555
C22_6 C21_6 1_555 1_555
H11_6 C22_6 1_555 1_555
C25_6 C20_6 1_555 1_555
H13_6 C25_6 1_555 1_555
Zn4 O6_4 1_555 1_555
Zn6 O5_4 1_555 1_555
N4_6 C3_6 1_555 1_555
N5_6 C2_6 1_555 1_555
N6_6 C3_6 1_555 1_555
C16_6 C17_6 1_555 1_555
Zn4 O1_7 1_555 1_555
Zn6 O10_7 1_555 1_555
O1_7 C10_7 1_555 1_555
O2_7 C10_7 1_555 1_555
O9_7 Zn4 1_555 1_555
O10_7 C26_7 1_555 1_555
O11_7 Zn6 1_555 1_555
H6_7 C8_7 1_555 1_555
H12_7 C23_7 1_555 1_555
C24_7 C23_7 1_555 1_555
C26_7 O9_7 1_555 1_555
C24_7 C26_7 1_555 1_555
O11_7 H14_7 1_555 1_555
O11_7 H15_7 1_555 1_555
O12_2 C11_7 1_555 1_555
O13_2 C11_7 1_555 1_555
O14_3 C18_7 1_555 1_555
O15_3 C18_7 1_555 1_555
O16_2 C19_7 1_555 1_555
O8_7 C19_7 1_555 1_555
N1_7 H1_7 1_555 1_555
N2_7 H2_7 1_555 1_555
N3_7 H3_7 1_555 1_555
N4_7 C1_7 1_555 1_555
N5_7 C1_7 1_555 1_555
N6_7 C2_7 1_555 1_555
C1_7 N1_7 1_555 1_555
C2_7 N3_7 1_555 1_555
C3_7 N2_7 1_555 1_555
C4_7 N3_7 1_555 1_555
C5_7 C4_7 1_555 1_555
H4_7 C5_7 1_555 1_555
C6_7 C5_7 1_555 1_555
C7_7 C6_7 1_555 1_555
H5_7 C7_7 1_555 1_555
C9_7 C4_7 1_555 1_555
C11_7 C6_7 1_555 1_555
C12_7 N2_7 1_555 1_555
C13_7 C12_7 1_555 1_555
H7_7 C13_7 1_555 1_555
C14_7 C13_7 1_555 1_555
C15_7 C12_7 1_555 1_555
C16_7 C15_7 1_555 1_555
H8_7 C16_7 1_555 1_555
C17_7 C14_7 1_555 1_555
H9_7 C17_7 1_555 1_555
C18_7 C14_7 1_555 1_555
C19_7 C15_7 1_555 1_555
C20_7 N1_7 1_555 1_555
C21_7 C20_7 1_555 1_555
H10_7 C21_7 1_555 1_555
C22_7 C21_7 1_555 1_555
H11_7 C22_7 1_555 1_555
C25_7 C20_7 1_555 1_555
H13_7 C25_7 1_555 1_555
N4_7 C3_7 1_555 1_555
N5_7 C2_7 1_555 1_555
N6_7 C3_7 1_555 1_555
C16_7 C17_7 1_555 1_555
O12 C11_8 1_555 1_555
O13 C11_8 1_555 1_555
O14_4 C18_8 1_555 1_555
O15_4 C18_8 1_555 1_555
O16 C19_8 1_555 1_555
O8_8 C19_8 1_555 1_555
N1_8 H1_8 1_555 1_555
N2_8 H2_8 1_555 1_555
N3_8 H3_8 1_555 1_555
N4_8 C1_8 1_555 1_555
N5_8 C1_8 1_555 1_555
N6_8 C2_8 1_555 1_555
C1_8 N1_8 1_555 1_555
C2_8 N3_8 1_555 1_555
C3_8 N2_8 1_555 1_555
C4_8 N3_8 1_555 1_555
C5_8 C4_8 1_555 1_555
H4_8 C5_8 1_555 1_555
C6_8 C5_8 1_555 1_555
C7_8 C6_8 1_555 1_555
H5_8 C7_8 1_555 1_555
C9_8 C4_8 1_555 1_555
C11_8 C6_8 1_555 1_555
C12_8 N2_8 1_555 1_555
C13_8 C12_8 1_555 1_555
H7_8 C13_8 1_555 1_555
C14_8 C13_8 1_555 1_555
C15_8 C12_8 1_555 1_555
C16_8 C15_8 1_555 1_555
H8_8 C16_8 1_555 1_555
C17_8 C14_8 1_555 1_555
H9_8 C17_8 1_555 1_555
C18_8 C14_8 1_555 1_555
C19_8 C15_8 1_555 1_555
C20_8 N1_8 1_555 1_555
C21_8 C20_8 1_555 1_555
H10_8 C21_8 1_555 1_555
C22_8 C21_8 1_555 1_555
H11_8 C22_8 1_555 1_555
C25_8 C20_8 1_555 1_555
H13_8 C25_8 1_555 1_555
N4_8 C3_8 1_555 1_555
N5_8 C2_8 1_555 1_555
N6_8 C3_8 1_555 1_555
C16_8 C17_8 1_555 1_555
Zn4_2 O1_8 1_555 1_555
Zn6_2 O10_8 1_555 1_555
O1_8 C10_8 1_555 1_555
O2_8 C10_8 1_555 1_555
O9_8 Zn4_2 1_555 1_555
O10_8 C26_8 1_555 1_555
O11_8 Zn6_2 1_555 1_555
H6_8 C8_8 1_555 1_555
H12_8 C23_8 1_555 1_555
C24_8 C23_8 1_555 1_555
C26_8 O9_8 1_555 1_555
C24_8 C26_8 1_555 1_555
O11_8 H14_8 1_555 1_555
O11_8 H15_8 1_555 1_555

#END
