
###############################################################################
#
# This file contains modified crystal structure data generated from the
# MOF subset of the Cambridge Structural Database (CSD) v543 
# hosted by the Cambridge Crystallographic Data Centre (CCDC).
#
# This work is licensed under the Creative Commons
# Attribution-NonCommercial-ShareAlike 4.0 International License.
# To view a copy of this license, visit
# http://creativecommons.org/licenses/by-nc-sa/4.0/
# or send a letter to
# Creative Commons, PO Box 1866, Mountain View, CA 94042, USA.
#
# CIF created using the CSD Python API on 29 September 2022
# The structure has been converted into the P1 space group
# The structure has a 3D framework
# The original CSD entry REWNEO01 is in the tetragonal crystal system
# The framework has been calculated to contain at least 10.0% void space
# The void calculation uses a probe of radius 1.32A, grid spacing 0.4
#
###############################################################################

data_REWNEO01
_chemical_formula_moiety         '(C576 H336 Cu56 N144 O248)n'
_symmetry_cell_setting           triclinic
_symmetry_space_group_name_H-M   'P 1'
_symmetry_Int_Tables_number      1
_space_group_name_Hall           'P 1'
loop_
_symmetry_equiv_pos_site_id
_symmetry_equiv_pos_as_xyz
1 x,y,z
_cell_length_a                   30.7992(11)
_cell_length_b                   30.7992(11)
_cell_length_c                   44.8105(19)
_cell_angle_alpha                90
_cell_angle_beta                 90
_cell_angle_gamma                90
_cell_volume                     42506.8
loop_
_atom_site_label
_atom_site_type_symbol
_atom_site_fract_x
_atom_site_fract_y
_atom_site_fract_z
Cu1 Cu 0.349434(14) 0.400846(14) 0.128230(10)
Cu2 Cu 0.297549(14) 0.365994(14) 0.169326(10)
Cu3 Cu 0.45119(2) 0.250588(18) 0.0000
Cu4 Cu 0.43513(2) 0.165540(19) 0.0000
C1 C 0.35851(13) 0.22663(12) 0.06651(9)
C2 C 0.33905(14) 0.18990(13) 0.07806(10)
H1 H 0.3420 0.1626 0.0684
C3 C 0.31457(15) 0.19396(14) 0.10461(11)
C4 C 0.30822(14) 0.23329(13) 0.11799(10)
H2 H 0.2913 0.2356 0.1357
C5 C 0.32702(13) 0.26992(12) 0.10516(9)
C6 C 0.35210(12) 0.26683(12) 0.07971(8)
H3 H 0.3649 0.2921 0.0713
C7 C 0.32365(12) 0.31284(12) 0.12079(9)
C8 C 0.38917(12) 0.22080(13) 0.04048(8)
C9 C 0.31447(18) 0.11537(15) 0.11473(12)
H4 H 0.3387 0.1063 0.1032
C10 C 0.2888(2) 0.09054(16) 0.13203(14)
C11 C 0.2913(2) 0.04306(16) 0.13905(13)
C12 C 0.3192(2) 0.01778(17) 0.12190(14)
H5 H 0.3332 0.0296 0.1048
C16 C 0.2671(2) 0.02572(16) 0.16315(13)
H7 H 0.2463 0.0427 0.1736
H12 H 0.2286 0.0163 0.2217
H13 H 0.2110 0.0244 0.2713
C31 C 0.17690(12) 0.00338(12) 0.30703(9)
C35 C 0.17542(12) 0.04638(12) 0.32296(9)
N1 N 0.29846(14) 0.15571(12) 0.11735(10)
N2 N 0.26212(17) 0.15675(14) 0.13483(12)
N3 N 0.25623(18) 0.11610(15) 0.14405(13)
O1 O 0.34101(9) 0.34451(8) 0.10818(6)
O2 O 0.30375(8) 0.31355(8) 0.14535(6)
O3 O 0.39104(11) 0.42666(13) 0.09500(8)
H16 H 0.4111(12) 0.4070(9) 0.0896(10)
H17 H 0.4039(13) 0.4497(9) 0.1006(8)
O4 O 0.25447(10) 0.33910(11) 0.20122(7)
H18 H 0.2401 0.3167 0.1931
H19 H 0.2680 0.3300 0.2167
O5 O 0.40624(8) 0.25504(8) 0.03068(5)
O6 O 0.39403(8) 0.18292(8) 0.03078(6)
O7 O 0.46763(17) 0.31762(13) 0.0000
O9 O 0.41787(15) 0.09877(12) 0.0000
H21 H 0.4069 0.0924 0.0184
O15 O 0.19982(8) 0.07582(8) 0.31319(6)
O16 O 0.15094(8) 0.04899(8) 0.34513(6)
H22 H 0.4642(17) 0.3283(8) 0.0179(6)
C49 C 0.6734(2) 0.02641(16) 0.13056(14)
C50 C 0.6969(2) 0.04310(16) 0.15365(13)
H29 H 0.6943 0.0732 0.1580
C51 C 0.7246(2) 0.01797(16) 0.17104(13)
C53 C 0.6441(2) 0.05320(17) 0.11379(14)
C54 C 0.63197(19) 0.09461(16) 0.11758(12)
H31 H 0.6436 0.1141 0.1319
C55 C 0.57972(17) 0.14486(14) 0.09230(11)
C56 C 0.59481(15) 0.18059(13) 0.10823(10)
H32 H 0.6166 0.1775 0.1231
C57 C 0.57693(13) 0.22105(12) 0.10168(9)
C58 C 0.54687(12) 0.22547(12) 0.07916(8)
H33 H 0.5359 0.2534 0.0742
C59 C 0.53259(14) 0.18917(13) 0.06377(9)
C60 C 0.54916(16) 0.14844(14) 0.07014(10)
H34 H 0.5396 0.1236 0.0594
C61 C 0.59117(12) 0.25855(12) 0.11946(9)
C62 C 0.49974(13) 0.19473(13) 0.03936(8)
C63 C 0.7472(2) 0.03540(17) 0.19651(13)
C64 C 0.76742(18) 0.01409(16) 0.21963(12)
C65 C 0.79968(16) 0.04053(14) 0.26690(10)
C66 C 0.80193(14) 0.00027(13) 0.28039(10)
C68 C 0.84153(12) 0.03310(12) 0.32088(9)
H37 H 0.8564 0.0302 0.3394
C69 C 0.83796(13) 0.07262(12) 0.30759(9)
C70 C 0.81773(15) 0.07732(14) 0.28019(10)
H38 H 0.8162 0.1049 0.2707
C72 C 0.85610(13) 0.11136(12) 0.32324(9)
N13 N 0.6195(2) 0.03774(18) 0.09053(14)
N14 N 0.5905(2) 0.06856(18) 0.08250(14)
N15 N 0.60157(16) 0.10367(13) 0.09825(10)
N16 N 0.7730(2) 0.08580(15) 0.22654(12)
N17 N 0.78034(16) 0.04518(13) 0.23853(10)
N18 N 0.7505(2) 0.07955(16) 0.20116(13)
O23 O 0.48063(8) 0.16104(8) 0.03028(6)
O24 O 0.49249(9) 0.23302(8) 0.03101(6)
O25 O 0.57840(8) 0.29541(8) 0.11044(6)
O26 O 0.61426(8) 0.25179(8) 0.14183(6)
O27 O 0.85112(9) 0.14799(9) 0.31048(6)
O28 O 0.87486(9) 0.10440(8) 0.34733(6)
Cu7 Cu 0.599154(14) 0.349434(14) 0.128230(10)
Cu9 Cu 0.150566(14) 0.099154(14) 0.371770(10)
Cu11 Cu 0.900846(14) 0.150566(14) 0.371770(10)
Cu13 Cu 0.634006(14) 0.297549(14) 0.169326(10)
Cu15 Cu 0.202451(14) 0.134006(14) 0.330674(10)
Cu17 Cu 0.865994(14) 0.202451(14) 0.330674(10)
O35 O 0.29541(8) 0.42160(8) 0.11044(6)
O37 O 0.25179(8) 0.38574(8) 0.14183(6)
O39 O 0.35201(9) 0.35112(9) 0.18952(6)
O41 O 0.39560(8) 0.37486(9) 0.15267(6)
O43 O 0.30018(8) 0.42418(8) 0.18681(6)
O45 O 0.34906(8) 0.45101(8) 0.15487(6)
Cu3_2 Cu 0.45119(2) 0.250588(18) 1.0000
Cu4_2 Cu 0.43513(2) 0.165540(19) 1.0000
O7_2 O 0.46763(17) 0.31762(13) 1.0000
H20 H 0.4642(17) 0.3283(8) 0.9821(6)
O9_2 O 0.41787(15) 0.09877(12) 1.0000
H23 H 0.4069 0.0924 0.9816
O31 O 0.40624(8) 0.25504(8) 0.96932(5)
O32 O 0.39403(8) 0.18292(8) 0.96922(6)
O33 O 0.48063(8) 0.16104(8) 0.96972(6)
O34 O 0.49249(9) 0.23302(8) 0.96899(6)
C13 C 0.3266(2) 0.97359(16) 0.13056(14)
C14 C 0.3031(2) 0.95690(16) 0.15365(13)
H6 H 0.3057 0.9268 0.1580
C15 C 0.2754(2) 0.98203(16) 0.17104(13)
C17 C 0.3559(2) 0.94680(17) 0.11379(14)
C18 C 0.36803(19) 0.90539(16) 0.11758(12)
H8 H 0.3564 0.8859 0.1319
C19 C 0.42028(17) 0.85514(14) 0.09230(11)
C20 C 0.40519(15) 0.81941(13) 0.10823(10)
H9 H 0.3834 0.8225 0.1231
C21 C 0.42307(13) 0.77895(12) 0.10168(9)
C22 C 0.45313(12) 0.77453(12) 0.07916(8)
H10 H 0.4641 0.7466 0.0742
C23 C 0.46741(14) 0.81083(13) 0.06377(9)
C24 C 0.45084(16) 0.85156(14) 0.07014(10)
H11 H 0.4604 0.8764 0.0594
C25 C 0.40883(12) 0.74145(12) 0.11946(9)
C26 C 0.50026(13) 0.80527(13) 0.03936(8)
C27 C 0.2528(2) 0.96460(17) 0.19651(13)
C28 C 0.23258(18) 0.98591(16) 0.21963(12)
C29 C 0.20032(16) 0.95947(14) 0.26690(10)
C30 C 0.19807(14) 0.99973(13) 0.28039(10)
C32 C 0.15847(12) 0.96690(12) 0.32088(9)
H14 H 0.1436 0.9698 0.3394
C33 C 0.16204(13) 0.92738(12) 0.30759(9)
C34 C 0.18227(15) 0.92268(14) 0.28019(10)
H15 H 0.1838 0.8951 0.2707
C36 C 0.14390(13) 0.88864(12) 0.32324(9)
N4 N 0.3805(2) 0.96226(18) 0.09053(14)
N5 N 0.4095(2) 0.93144(18) 0.08250(14)
N6 N 0.39843(16) 0.89633(13) 0.09825(10)
N7 N 0.2270(2) 0.91420(15) 0.22654(12)
N8 N 0.21966(16) 0.95482(13) 0.23853(10)
N9 N 0.2495(2) 0.92045(16) 0.20116(13)
O8 O 0.51937(8) 0.83896(8) 0.03028(6)
O10 O 0.50751(9) 0.76698(8) 0.03101(6)
O11 O 0.42160(8) 0.70459(8) 0.11044(6)
O12 O 0.38574(8) 0.74821(8) 0.14183(6)
O13 O 0.14888(9) 0.85201(9) 0.31048(6)
O14 O 0.12514(9) 0.89560(8) 0.34733(6)
Cu5 Cu 0.650566(14) 0.599154(14) 0.128230(10)
Cu6 Cu 0.702451(14) 0.634006(14) 0.169326(10)
C37 C 0.64149(13) 0.77337(12) 0.06651(9)
C38 C 0.66095(14) 0.81010(13) 0.07806(10)
H24 H 0.6580 0.8374 0.0684
C39 C 0.68543(15) 0.80604(14) 0.10461(11)
C40 C 0.69178(14) 0.76671(13) 0.11799(10)
H25 H 0.7087 0.7644 0.1357
C41 C 0.67298(13) 0.73008(12) 0.10516(9)
C42 C 0.64790(12) 0.73317(12) 0.07971(8)
H26 H 0.6351 0.7079 0.0713
C43 C 0.67635(12) 0.68716(12) 0.12079(9)
C44 C 0.61083(12) 0.77920(13) 0.04048(8)
C45 C 0.68553(18) 0.88463(15) 0.11473(12)
H27 H 0.6613 0.8937 0.1032
C46 C 0.7112(2) 0.90946(16) 0.13203(14)
C47 C 0.7087(2) 0.95694(16) 0.13905(13)
C48 C 0.6808(2) 0.98222(17) 0.12190(14)
H28 H 0.6668 0.9704 0.1048
C52 C 0.7329(2) 0.97428(16) 0.16315(13)
H30 H 0.7537 0.9573 0.1736
H35 H 0.7714 0.9837 0.2217
H36 H 0.7890 0.9756 0.2713
C67 C 0.82310(12) 0.99662(12) 0.30703(9)
C71 C 0.82458(12) 0.95362(12) 0.32296(9)
N10 N 0.70154(14) 0.84429(12) 0.11735(10)
N11 N 0.73788(17) 0.84325(14) 0.13483(12)
N12 N 0.74377(18) 0.88390(15) 0.14405(13)
O17 O 0.65899(9) 0.65549(8) 0.10818(6)
O18 O 0.69625(8) 0.68645(8) 0.14535(6)
O19 O 0.60896(11) 0.57334(13) 0.09500(8)
H39 H 0.5889(12) 0.5930(9) 0.0896(10)
H40 H 0.5961(13) 0.5503(9) 0.1006(8)
O20 O 0.74553(10) 0.66090(11) 0.20122(7)
H41 H 0.7599 0.6833 0.1931
H42 H 0.7320 0.6700 0.2167
O21 O 0.59376(8) 0.74496(8) 0.03068(5)
O22 O 0.60597(8) 0.81708(8) 0.03078(6)
O29 O 0.80018(8) 0.92418(8) 0.31319(6)
O30 O 0.84906(8) 0.95101(8) 0.34513(6)
Cu8 Cu 0.400846(14) 0.650566(14) 0.128230(10)
Cu10 Cu 0.849434(14) 0.900846(14) 0.371770(10)
Cu12 Cu 0.099154(14) 0.849434(14) 0.371770(10)
Cu14 Cu 0.365994(14) 0.702451(14) 0.169326(10)
Cu16 Cu 0.797549(14) 0.865994(14) 0.330674(10)
Cu18 Cu 0.134006(14) 0.797549(14) 0.330674(10)
Cu19 Cu 0.54881(2) 0.749412(18) 0.0000
Cu20 Cu 0.56487(2) 0.834460(19) 0.0000
O36 O 0.70459(8) 0.57840(8) 0.11044(6)
O38 O 0.74821(8) 0.61426(8) 0.14183(6)
O40 O 0.64799(9) 0.64888(9) 0.18952(6)
O42 O 0.60440(8) 0.62514(9) 0.15267(6)
O44 O 0.69982(8) 0.57582(8) 0.18681(6)
O46 O 0.65094(8) 0.54899(8) 0.15487(6)
Cu19_2 Cu 0.54881(2) 0.749412(18) 1.0000
Cu20_2 Cu 0.56487(2) 0.834460(19) 1.0000
O7_3 O 0.53237(17) 0.68238(13) 0.0000
O9_3 O 0.58213(15) 0.90123(12) 0.0000
H21_2 H 0.5931 0.9076 0.0184
H22_2 H 0.5358(17) 0.6717(8) 0.0179(6)
O7_4 O 0.53237(17) 0.68238(13) 1.0000
H20_2 H 0.5358(17) 0.6717(8) 0.9821(6)
O9_4 O 0.58213(15) 0.90123(12) 1.0000
H23_2 H 0.5931 0.9076 0.9816
O31_2 O 0.59376(8) 0.74496(8) 0.96932(5)
O32_2 O 0.60597(8) 0.81708(8) 0.96922(6)
O33_2 O 0.51937(8) 0.83896(8) 0.96972(6)
O34_2 O 0.50751(9) 0.76698(8) 0.96899(6)
C13_2 C 0.02641(16) 0.3266(2) 0.13056(14)
C14_2 C 0.04310(16) 0.3031(2) 0.15365(13)
H6_2 H 0.0732 0.3057 0.1580
C15_2 C 0.01797(16) 0.2754(2) 0.17104(13)
C17_2 C 0.05320(17) 0.3559(2) 0.11379(14)
C18_2 C 0.09461(16) 0.36803(19) 0.11758(12)
H8_2 H 0.1141 0.3564 0.1319
C19_2 C 0.14486(14) 0.42028(17) 0.09230(11)
C20_2 C 0.18059(13) 0.40519(15) 0.10823(10)
H9_2 H 0.1775 0.3834 0.1231
C21_2 C 0.22105(12) 0.42307(13) 0.10168(9)
C22_2 C 0.22547(12) 0.45313(12) 0.07916(8)
H10_2 H 0.2534 0.4641 0.0742
C23_2 C 0.18917(13) 0.46741(14) 0.06377(9)
C24_2 C 0.14844(14) 0.45084(16) 0.07014(10)
H11_2 H 0.1236 0.4604 0.0594
C25_2 C 0.25855(12) 0.40883(12) 0.11946(9)
C26_2 C 0.19473(13) 0.50026(13) 0.03936(8)
C27_2 C 0.03540(17) 0.2528(2) 0.19651(13)
C28_2 C 0.01409(16) 0.23258(18) 0.21963(12)
C29_2 C 0.04053(14) 0.20032(16) 0.26690(10)
C30_2 C 0.00027(13) 0.19807(14) 0.28039(10)
C32_2 C 0.03310(12) 0.15847(12) 0.32088(9)
H14_2 H 0.0302 0.1436 0.3394
C33_2 C 0.07262(12) 0.16204(13) 0.30759(9)
C34_2 C 0.07732(14) 0.18227(15) 0.28019(10)
H15_2 H 0.1049 0.1838 0.2707
C36_2 C 0.11136(12) 0.14390(13) 0.32324(9)
N4_2 N 0.03774(18) 0.3805(2) 0.09053(14)
N5_2 N 0.06856(18) 0.4095(2) 0.08250(14)
N6_2 N 0.10367(13) 0.39843(16) 0.09825(10)
N7_2 N 0.08580(15) 0.2270(2) 0.22654(12)
N8_2 N 0.04518(13) 0.21966(16) 0.23853(10)
N9_2 N 0.07955(16) 0.2495(2) 0.20116(13)
O8_2 O 0.16104(8) 0.51937(8) 0.03028(6)
O10_2 O 0.23302(8) 0.50751(9) 0.03101(6)
O13_2 O 0.14799(9) 0.14888(9) 0.31048(6)
O14_2 O 0.10440(8) 0.12514(9) 0.34733(6)
C37_2 C 0.22663(12) 0.64149(13) 0.06651(9)
C38_2 C 0.18990(13) 0.66095(14) 0.07806(10)
H24_2 H 0.1626 0.6580 0.0684
C39_2 C 0.19396(14) 0.68543(15) 0.10461(11)
C40_2 C 0.23329(13) 0.69178(14) 0.11799(10)
H25_2 H 0.2356 0.7087 0.1357
C41_2 C 0.26992(12) 0.67298(13) 0.10516(9)
C42_2 C 0.26683(12) 0.64790(12) 0.07971(8)
H26_2 H 0.2921 0.6351 0.0713
C43_2 C 0.31284(12) 0.67635(12) 0.12079(9)
C44_2 C 0.22080(13) 0.61083(12) 0.04048(8)
C45_2 C 0.11537(15) 0.68553(18) 0.11473(12)
H27_2 H 0.1063 0.6613 0.1032
C46_2 C 0.09054(16) 0.7112(2) 0.13203(14)
C47_2 C 0.04306(16) 0.7087(2) 0.13905(13)
C48_2 C 0.01778(17) 0.6808(2) 0.12190(14)
H28_2 H 0.0296 0.6668 0.1048
C52_2 C 0.02572(16) 0.7329(2) 0.16315(13)
H30_2 H 0.0427 0.7537 0.1736
H35_2 H 0.0163 0.7714 0.2217
H36_2 H 0.0244 0.7890 0.2713
C67_2 C 0.00338(12) 0.82310(12) 0.30703(9)
C71_2 C 0.04638(12) 0.82458(12) 0.32296(9)
N10_2 N 0.15571(12) 0.70154(14) 0.11735(10)
N11_2 N 0.15675(14) 0.73788(17) 0.13483(12)
N12_2 N 0.11610(15) 0.74377(18) 0.14405(13)
O17_2 O 0.34451(8) 0.65899(9) 0.10818(6)
O18_2 O 0.31355(8) 0.69625(8) 0.14535(6)
O19_2 O 0.42666(13) 0.60896(11) 0.09500(8)
H39_2 H 0.4070(9) 0.5889(12) 0.0896(10)
H40_2 H 0.4497(9) 0.5961(13) 0.1006(8)
O20_2 O 0.33910(11) 0.74553(10) 0.20122(7)
H41_2 H 0.3167 0.7599 0.1931
H42_2 H 0.3300 0.7320 0.2167
O21_2 O 0.25504(8) 0.59376(8) 0.03068(5)
O22_2 O 0.18292(8) 0.60597(8) 0.03078(6)
O29_2 O 0.07582(8) 0.80018(8) 0.31319(6)
O30_2 O 0.04899(8) 0.84906(8) 0.34513(6)
Cu19_3 Cu 0.250588(18) 0.54881(2) 0.0000
Cu20_3 Cu 0.165540(19) 0.56487(2) 0.0000
O40_2 O 0.35112(9) 0.64799(9) 0.18952(6)
O42_2 O 0.37486(9) 0.60440(8) 0.15267(6)
O44_2 O 0.42418(8) 0.69982(8) 0.18681(6)
O46_2 O 0.45101(8) 0.65094(8) 0.15487(6)
Cu19_4 Cu 0.250588(18) 0.54881(2) 1.0000
Cu20_4 Cu 0.165540(19) 0.56487(2) 1.0000
Cu3_3 Cu 0.749412(18) 0.45119(2) 0.0000
Cu4_3 Cu 0.834460(19) 0.43513(2) 0.0000
C1_2 C 0.77337(12) 0.35851(13) 0.06651(9)
C2_2 C 0.81010(13) 0.33905(14) 0.07806(10)
H1_2 H 0.8374 0.3420 0.0684
C3_2 C 0.80604(14) 0.31457(15) 0.10461(11)
C4_2 C 0.76671(13) 0.30822(14) 0.11799(10)
H2_2 H 0.7644 0.2913 0.1357
C5_2 C 0.73008(12) 0.32702(13) 0.10516(9)
C6_2 C 0.73317(12) 0.35210(12) 0.07971(8)
H3_2 H 0.7079 0.3649 0.0713
C7_2 C 0.68716(12) 0.32365(12) 0.12079(9)
C8_2 C 0.77920(13) 0.38917(12) 0.04048(8)
C9_2 C 0.88463(15) 0.31447(18) 0.11473(12)
H4_2 H 0.8937 0.3387 0.1032
C10_2 C 0.90946(16) 0.2888(2) 0.13203(14)
C11_2 C 0.95694(16) 0.2913(2) 0.13905(13)
C12_2 C 0.98222(17) 0.3192(2) 0.12190(14)
H5_2 H 0.9704 0.3332 0.1048
C16_2 C 0.97428(16) 0.2671(2) 0.16315(13)
H7_2 H 0.9573 0.2463 0.1736
H12_2 H 0.9837 0.2286 0.2217
H13_2 H 0.9756 0.2110 0.2713
C31_2 C 0.99662(12) 0.17690(12) 0.30703(9)
C35_2 C 0.95362(12) 0.17542(12) 0.32296(9)
N1_2 N 0.84429(12) 0.29846(14) 0.11735(10)
N2_2 N 0.84325(14) 0.26212(17) 0.13483(12)
N3_2 N 0.88390(15) 0.25623(18) 0.14405(13)
O1_2 O 0.65549(8) 0.34101(9) 0.10818(6)
O2_2 O 0.68645(8) 0.30375(8) 0.14535(6)
O3_2 O 0.57334(13) 0.39104(11) 0.09500(8)
H16_2 H 0.5930(9) 0.4111(12) 0.0896(10)
H17_2 H 0.5503(9) 0.4039(13) 0.1006(8)
O4_2 O 0.66090(11) 0.25447(10) 0.20122(7)
H18_2 H 0.6833 0.2401 0.1931
H19_2 H 0.6700 0.2680 0.2167
O5_2 O 0.74496(8) 0.40624(8) 0.03068(5)
O6_2 O 0.81708(8) 0.39403(8) 0.03078(6)
O7_5 O 0.68238(13) 0.46763(17) 0.0000
O9_5 O 0.90123(12) 0.41787(15) 0.0000
H21_3 H 0.9076 0.4069 0.0184
O15_2 O 0.92418(8) 0.19982(8) 0.31319(6)
O16_2 O 0.95101(8) 0.15094(8) 0.34513(6)
H22_3 H 0.6717(8) 0.4642(17) 0.0179(6)
C49_2 C 0.97359(16) 0.6734(2) 0.13056(14)
C50_2 C 0.95690(16) 0.6969(2) 0.15365(13)
H29_2 H 0.9268 0.6943 0.1580
C51_2 C 0.98203(16) 0.7246(2) 0.17104(13)
C53_2 C 0.94680(17) 0.6441(2) 0.11379(14)
C54_2 C 0.90539(16) 0.63197(19) 0.11758(12)
H31_2 H 0.8859 0.6436 0.1319
C55_2 C 0.85514(14) 0.57972(17) 0.09230(11)
C56_2 C 0.81941(13) 0.59481(15) 0.10823(10)
H32_2 H 0.8225 0.6166 0.1231
C57_2 C 0.77895(12) 0.57693(13) 0.10168(9)
C58_2 C 0.77453(12) 0.54687(12) 0.07916(8)
H33_2 H 0.7466 0.5359 0.0742
C59_2 C 0.81083(13) 0.53259(14) 0.06377(9)
C60_2 C 0.85156(14) 0.54916(16) 0.07014(10)
H34_2 H 0.8764 0.5396 0.0594
C61_2 C 0.74145(12) 0.59117(12) 0.11946(9)
C62_2 C 0.80527(13) 0.49974(13) 0.03936(8)
C63_2 C 0.96460(17) 0.7472(2) 0.19651(13)
C64_2 C 0.98591(16) 0.76742(18) 0.21963(12)
C65_2 C 0.95947(14) 0.79968(16) 0.26690(10)
C66_2 C 0.99973(13) 0.80193(14) 0.28039(10)
C68_2 C 0.96690(12) 0.84153(12) 0.32088(9)
H37_2 H 0.9698 0.8564 0.3394
C69_2 C 0.92738(12) 0.83796(13) 0.30759(9)
C70_2 C 0.92268(14) 0.81773(15) 0.28019(10)
H38_2 H 0.8951 0.8162 0.2707
C72_2 C 0.88864(12) 0.85610(13) 0.32324(9)
N13_2 N 0.96226(18) 0.6195(2) 0.09053(14)
N14_2 N 0.93144(18) 0.5905(2) 0.08250(14)
N15_2 N 0.89633(13) 0.60157(16) 0.09825(10)
N16_2 N 0.91420(15) 0.7730(2) 0.22654(12)
N17_2 N 0.95482(13) 0.78034(16) 0.23853(10)
N18_2 N 0.92045(16) 0.7505(2) 0.20116(13)
O23_2 O 0.83896(8) 0.48063(8) 0.03028(6)
O24_2 O 0.76698(8) 0.49249(9) 0.03101(6)
O27_2 O 0.85201(9) 0.85112(9) 0.31048(6)
O28_2 O 0.89560(8) 0.87486(9) 0.34733(6)
O39_2 O 0.64888(9) 0.35201(9) 0.18952(6)
O41_2 O 0.62514(9) 0.39560(8) 0.15267(6)
O43_2 O 0.57582(8) 0.30018(8) 0.18681(6)
O45_2 O 0.54899(8) 0.34906(8) 0.15487(6)
Cu3_4 Cu 0.749412(18) 0.45119(2) 1.0000
Cu4_4 Cu 0.834460(19) 0.43513(2) 1.0000
O7_6 O 0.68238(13) 0.46763(17) 1.0000
H20_3 H 0.6717(8) 0.4642(17) 0.9821(6)
O9_6 O 0.90123(12) 0.41787(15) 1.0000
H23_3 H 0.9076 0.4069 0.9816
O31_3 O 0.74496(8) 0.40624(8) 0.96932(5)
O32_3 O 0.81708(8) 0.39403(8) 0.96922(6)
O33_3 O 0.83896(8) 0.48063(8) 0.96972(6)
O34_3 O 0.76698(8) 0.49249(9) 0.96899(6)
O7_7 O 0.31762(13) 0.53237(17) 0.0000
O9_7 O 0.09877(12) 0.58213(15) 0.0000
H21_4 H 0.0924 0.5931 0.0184
H22_4 H 0.3283(8) 0.5358(17) 0.0179(6)
O7_8 O 0.31762(13) 0.53237(17) 1.0000
H20_4 H 0.3283(8) 0.5358(17) 0.9821(6)
O9_8 O 0.09877(12) 0.58213(15) 1.0000
H23_4 H 0.0924 0.5931 0.9816
O31_4 O 0.25504(8) 0.59376(8) 0.96932(5)
O32_4 O 0.18292(8) 0.60597(8) 0.96922(6)
O33_4 O 0.16104(8) 0.51937(8) 0.96972(6)
O34_4 O 0.23302(8) 0.50751(9) 0.96899(6)
C26_3 C 0.00026(13) 0.30527(13) 0.53936(8)
O8_3 O 0.01937(8) 0.33896(8) 0.53028(6)
O10_3 O 0.00751(9) 0.26698(8) 0.53101(6)
Cu5_2 Cu 0.150566(14) 0.099154(14) 0.628230(10)
Cu6_2 Cu 0.202451(14) 0.134006(14) 0.669326(10)
C37_3 C 0.14149(13) 0.27337(12) 0.56651(9)
C38_3 C 0.16095(14) 0.31010(13) 0.57806(10)
H24_3 H 0.1580 0.3374 0.5684
C39_3 C 0.18543(15) 0.30604(14) 0.60461(11)
C40_3 C 0.19178(14) 0.26671(13) 0.61799(10)
H25_3 H 0.2087 0.2644 0.6357
C41_3 C 0.17298(13) 0.23008(12) 0.60516(9)
C42_3 C 0.14790(12) 0.23317(12) 0.57971(8)
H26_3 H 0.1351 0.2079 0.5713
C43_3 C 0.17635(12) 0.18716(12) 0.62079(9)
C44_3 C 0.11083(12) 0.27920(13) 0.54048(8)
C45_3 C 0.18553(18) 0.38463(15) 0.61473(12)
H27_3 H 0.1613 0.3937 0.6032
C46_3 C 0.2112(2) 0.40946(16) 0.63203(14)
C47_3 C 0.2087(2) 0.45694(16) 0.63905(13)
C48_3 C 0.1808(2) 0.48222(17) 0.62190(14)
H28_3 H 0.1668 0.4704 0.6048
C49_3 C 0.1734(2) 0.52641(16) 0.63056(14)
C50_3 C 0.1969(2) 0.54310(16) 0.65365(13)
H29_3 H 0.1943 0.5732 0.6580
C51_3 C 0.2246(2) 0.51797(16) 0.67104(13)
C52_3 C 0.2329(2) 0.47428(16) 0.66315(13)
H30_3 H 0.2537 0.4573 0.6736
C53_3 C 0.1441(2) 0.55320(17) 0.61379(14)
C54_3 C 0.13197(19) 0.59461(16) 0.61758(12)
H31_3 H 0.1436 0.6141 0.6319
C55_3 C 0.07972(17) 0.64486(14) 0.59230(11)
C56_3 C 0.09481(15) 0.68059(13) 0.60823(10)
H32_3 H 0.1166 0.6775 0.6231
C57_3 C 0.07693(13) 0.72105(12) 0.60168(9)
C58_3 C 0.04687(12) 0.72547(12) 0.57916(8)
H33_3 H 0.0359 0.7534 0.5742
C59_3 C 0.03259(14) 0.68917(13) 0.56377(9)
C60_3 C 0.04916(16) 0.64844(14) 0.57014(10)
H34_3 H 0.0396 0.6236 0.5594
C61_3 C 0.09117(12) 0.75855(12) 0.61946(9)
C63_3 C 0.2472(2) 0.53540(17) 0.69651(13)
C64_3 C 0.26742(18) 0.51409(16) 0.71963(12)
H35_3 H 0.2714 0.4837 0.7217
C65_3 C 0.29968(16) 0.54053(14) 0.76690(10)
C66_3 C 0.30193(14) 0.50027(13) 0.78039(10)
H36_3 H 0.2890 0.4756 0.7713
C67_3 C 0.32310(12) 0.49662(12) 0.80703(9)
C68_3 C 0.34153(12) 0.53310(12) 0.82088(9)
H37_3 H 0.3564 0.5302 0.8394
C69_3 C 0.33796(13) 0.57262(12) 0.80759(9)
C70_3 C 0.31773(15) 0.57732(14) 0.78019(10)
H38_3 H 0.3162 0.6049 0.7707
C71_3 C 0.32458(12) 0.45362(12) 0.82296(9)
C72_3 C 0.35610(13) 0.61136(12) 0.82324(9)
N10_3 N 0.20154(14) 0.34429(12) 0.61735(10)
N11_3 N 0.23788(17) 0.34325(14) 0.63483(12)
N12_3 N 0.24377(18) 0.38390(15) 0.64405(13)
N13_3 N 0.1195(2) 0.53774(18) 0.59053(14)
N14_3 N 0.0905(2) 0.56856(18) 0.58250(14)
N15_3 N 0.10157(16) 0.60367(13) 0.59825(10)
N16_3 N 0.2730(2) 0.58580(15) 0.72654(12)
N17_3 N 0.28034(16) 0.54518(13) 0.73853(10)
N18_3 N 0.2505(2) 0.57955(16) 0.70116(13)
O17_3 O 0.15899(9) 0.15549(8) 0.60818(6)
O18_3 O 0.19625(8) 0.18645(8) 0.64535(6)
O19_3 O 0.10896(11) 0.07334(13) 0.59500(8)
H39_3 H 0.0889(12) 0.0930(9) 0.5896(10)
H40_3 H 0.0961(13) 0.0503(9) 0.6006(8)
O20_3 O 0.24553(10) 0.16090(11) 0.70122(7)
H41_3 H 0.2599 0.1833 0.6931
H42_3 H 0.2320 0.1700 0.7167
O21_3 O 0.09376(8) 0.24496(8) 0.53068(5)
O22_3 O 0.10597(8) 0.31708(8) 0.53078(6)
O25_2 O 0.07840(8) 0.79541(8) 0.61044(6)
O26_2 O 0.11426(8) 0.75179(8) 0.64183(6)
O27_3 O 0.35112(9) 0.64799(9) 0.81048(6)
O28_3 O 0.37486(9) 0.60440(8) 0.84733(6)
O29_3 O 0.30018(8) 0.42418(8) 0.81319(6)
O30_3 O 0.34906(8) 0.45101(8) 0.84513(6)
Cu7_2 Cu 0.099154(14) 0.849434(14) 0.628230(10)
Cu10_2 Cu 0.349434(14) 0.400846(14) 0.871770(10)
Cu11_2 Cu 0.400846(14) 0.650566(14) 0.871770(10)
Cu13_2 Cu 0.134006(14) 0.797549(14) 0.669326(10)
Cu16_2 Cu 0.297549(14) 0.365994(14) 0.830674(10)
Cu17_2 Cu 0.365994(14) 0.702451(14) 0.830674(10)
Cu19_5 Cu 0.04881(2) 0.249412(18) 0.5000
Cu20_5 Cu 0.06487(2) 0.334460(19) 0.5000
O36_2 O 0.20459(8) 0.07840(8) 0.61044(6)
O38_2 O 0.24821(8) 0.11426(8) 0.64183(6)
O40_3 O 0.14799(9) 0.14888(9) 0.68952(6)
O42_3 O 0.10440(8) 0.12514(9) 0.65267(6)
O44_3 O 0.19982(8) 0.07582(8) 0.68681(6)
O46_3 O 0.15094(8) 0.04899(8) 0.65487(6)
Cu1_2 Cu 0.849434(14) 0.900846(14) 0.628230(10)
Cu2_2 Cu 0.797549(14) 0.865994(14) 0.669326(10)
Cu3_5 Cu 0.95119(2) 0.750588(18) 0.5000
Cu4_5 Cu 0.93513(2) 0.665540(19) 0.5000
C1_3 C 0.85851(13) 0.72663(12) 0.56651(9)
C2_3 C 0.83905(14) 0.68990(13) 0.57806(10)
H1_3 H 0.8420 0.6626 0.5684
C3_3 C 0.81457(15) 0.69396(14) 0.60461(11)
C4_3 C 0.80822(14) 0.73329(13) 0.61799(10)
H2_3 H 0.7913 0.7356 0.6357
C5_3 C 0.82702(13) 0.76992(12) 0.60516(9)
C6_3 C 0.85210(12) 0.76683(12) 0.57971(8)
H3_3 H 0.8649 0.7921 0.5713
C7_3 C 0.82365(12) 0.81284(12) 0.62079(9)
C8_3 C 0.88917(12) 0.72080(13) 0.54048(8)
C9_3 C 0.81447(18) 0.61537(15) 0.61473(12)
H4_3 H 0.8387 0.6063 0.6032
C10_3 C 0.7888(2) 0.59054(16) 0.63203(14)
C11_3 C 0.7913(2) 0.54306(16) 0.63905(13)
C12_3 C 0.8192(2) 0.51778(17) 0.62190(14)
H5_3 H 0.8332 0.5296 0.6048
C13_3 C 0.8266(2) 0.47359(16) 0.63056(14)
C14_3 C 0.8031(2) 0.45690(16) 0.65365(13)
H6_3 H 0.8057 0.4268 0.6580
C15_3 C 0.7754(2) 0.48203(16) 0.67104(13)
C16_3 C 0.7671(2) 0.52572(16) 0.66315(13)
H7_3 H 0.7463 0.5427 0.6736
C17_3 C 0.8559(2) 0.44680(17) 0.61379(14)
C18_3 C 0.86803(19) 0.40539(16) 0.61758(12)
H8_3 H 0.8564 0.3859 0.6319
C19_3 C 0.92028(17) 0.35514(14) 0.59230(11)
C20_3 C 0.90519(15) 0.31941(13) 0.60823(10)
H9_3 H 0.8834 0.3225 0.6231
C21_3 C 0.92307(13) 0.27895(12) 0.60168(9)
C22_3 C 0.95313(12) 0.27453(12) 0.57916(8)
H10_3 H 0.9641 0.2466 0.5742
C23_3 C 0.96741(14) 0.31083(13) 0.56377(9)
C24_3 C 0.95084(16) 0.35156(14) 0.57014(10)
H11_3 H 0.9604 0.3764 0.5594
C25_3 C 0.90883(12) 0.24145(12) 0.61946(9)
C27_3 C 0.7528(2) 0.46460(17) 0.69651(13)
C28_3 C 0.73258(18) 0.48591(16) 0.71963(12)
H12_3 H 0.7286 0.5163 0.7217
C29_3 C 0.70032(16) 0.45947(14) 0.76690(10)
C30_3 C 0.69807(14) 0.49973(13) 0.78039(10)
H13_3 H 0.7110 0.5244 0.7713
C31_3 C 0.67690(12) 0.50338(12) 0.80703(9)
C32_3 C 0.65847(12) 0.46690(12) 0.82088(9)
H14_3 H 0.6436 0.4698 0.8394
C33_3 C 0.66204(13) 0.42738(12) 0.80759(9)
C34_3 C 0.68227(15) 0.42268(14) 0.78019(10)
H15_3 H 0.6838 0.3951 0.7707
C35_3 C 0.67542(12) 0.54638(12) 0.82296(9)
C36_3 C 0.64390(13) 0.38864(12) 0.82324(9)
N1_3 N 0.79846(14) 0.65571(12) 0.61735(10)
N2_3 N 0.76212(17) 0.65675(14) 0.63483(12)
N3_3 N 0.75623(18) 0.61610(15) 0.64405(13)
N4_3 N 0.8805(2) 0.46226(18) 0.59053(14)
N5_3 N 0.9095(2) 0.43144(18) 0.58250(14)
N6_3 N 0.89843(16) 0.39633(13) 0.59825(10)
N7_3 N 0.7270(2) 0.41420(15) 0.72654(12)
N8_3 N 0.71966(16) 0.45482(13) 0.73853(10)
N9_3 N 0.7495(2) 0.42045(16) 0.70116(13)
O1_3 O 0.84101(9) 0.84451(8) 0.60818(6)
O2_3 O 0.80375(8) 0.81355(8) 0.64535(6)
O3_3 O 0.89104(11) 0.92666(13) 0.59500(8)
H16_3 H 0.9111(12) 0.9070(9) 0.5896(10)
H17_3 H 0.9039(13) 0.9497(9) 0.6006(8)
O4_3 O 0.75447(10) 0.83910(11) 0.70122(7)
H18_3 H 0.7401 0.8167 0.6931
H19_3 H 0.7680 0.8300 0.7167
O5_3 O 0.90624(8) 0.75504(8) 0.53068(5)
O6_3 O 0.89403(8) 0.68292(8) 0.53078(6)
O7_9 O 0.96763(17) 0.81762(13) 0.5000
H20_5 H 0.9642(17) 0.8283(8) 0.4821(6)
O9_9 O 0.91787(15) 0.59877(12) 0.5000
H21_5 H 0.9069 0.5924 0.5184
O11_2 O 0.92160(8) 0.20459(8) 0.61044(6)
O12_2 O 0.88574(8) 0.24821(8) 0.64183(6)
O13_3 O 0.64888(9) 0.35201(9) 0.81048(6)
O14_3 O 0.62514(9) 0.39560(8) 0.84733(6)
O15_3 O 0.69982(8) 0.57582(8) 0.81319(6)
O16_3 O 0.65094(8) 0.54899(8) 0.84513(6)
H22_5 H 0.9642(17) 0.8283(8) 0.5179(6)
H23_5 H 0.9069 0.5924 0.4816
C62_3 C 0.99974(13) 0.69473(13) 0.53936(8)
O23_3 O 0.98063(8) 0.66104(8) 0.53028(6)
O24_3 O 0.99249(9) 0.73302(8) 0.53101(6)
Cu8_2 Cu 0.900846(14) 0.150566(14) 0.628230(10)
Cu9_2 Cu 0.650566(14) 0.599154(14) 0.871770(10)
Cu12_2 Cu 0.599154(14) 0.349434(14) 0.871770(10)
Cu14_2 Cu 0.865994(14) 0.202451(14) 0.669326(10)
Cu15_2 Cu 0.702451(14) 0.634006(14) 0.830674(10)
Cu18_2 Cu 0.634006(14) 0.297549(14) 0.830674(10)
O31_5 O 0.90624(8) 0.75504(8) 0.46932(5)
O32_5 O 0.89403(8) 0.68292(8) 0.46922(6)
O33_5 O 0.98063(8) 0.66104(8) 0.46972(6)
O34_5 O 0.99249(9) 0.73302(8) 0.46899(6)
O35_2 O 0.79541(8) 0.92160(8) 0.61044(6)
O37_2 O 0.75179(8) 0.88574(8) 0.64183(6)
O39_3 O 0.85201(9) 0.85112(9) 0.68952(6)
O41_3 O 0.89560(8) 0.87486(9) 0.65267(6)
O43_3 O 0.80018(8) 0.92418(8) 0.68681(6)
O45_3 O 0.84906(8) 0.95101(8) 0.65487(6)
O7_10 O 0.03237(17) 0.18238(13) 0.5000
H20_6 H 0.0358(17) 0.1717(8) 0.4821(6)
O9_10 O 0.08213(15) 0.40123(12) 0.5000
H21_6 H 0.0931 0.4076 0.5184
H22_6 H 0.0358(17) 0.1717(8) 0.5179(6)
H23_6 H 0.0931 0.4076 0.4816
O31_6 O 0.09376(8) 0.24496(8) 0.46932(5)
O32_6 O 0.10597(8) 0.31708(8) 0.46922(6)
O33_6 O 0.01937(8) 0.33896(8) 0.46972(6)
O34_6 O 0.00751(9) 0.26698(8) 0.46899(6)
C26_4 C 0.69473(13) 0.00026(13) 0.53936(8)
O8_4 O 0.66104(8) 0.01937(8) 0.53028(6)
O10_4 O 0.73302(8) 0.00751(9) 0.53101(6)
C37_4 C 0.72663(12) 0.14149(13) 0.56651(9)
C38_4 C 0.68990(13) 0.16095(14) 0.57806(10)
H24_4 H 0.6626 0.1580 0.5684
C39_4 C 0.69396(14) 0.18543(15) 0.60461(11)
C40_4 C 0.73329(13) 0.19178(14) 0.61799(10)
H25_4 H 0.7356 0.2087 0.6357
C41_4 C 0.76992(12) 0.17298(13) 0.60516(9)
C42_4 C 0.76683(12) 0.14790(12) 0.57971(8)
H26_4 H 0.7921 0.1351 0.5713
C43_4 C 0.81284(12) 0.17635(12) 0.62079(9)
C44_4 C 0.72080(13) 0.11083(12) 0.54048(8)
C45_4 C 0.61537(15) 0.18553(18) 0.61473(12)
H27_4 H 0.6063 0.1613 0.6032
C46_4 C 0.59054(16) 0.2112(2) 0.63203(14)
C47_4 C 0.54306(16) 0.2087(2) 0.63905(13)
C48_4 C 0.51778(17) 0.1808(2) 0.62190(14)
H28_4 H 0.5296 0.1668 0.6048
C49_4 C 0.47359(16) 0.1734(2) 0.63056(14)
C50_4 C 0.45690(16) 0.1969(2) 0.65365(13)
H29_4 H 0.4268 0.1943 0.6580
C51_4 C 0.48203(16) 0.2246(2) 0.67104(13)
C52_4 C 0.52572(16) 0.2329(2) 0.66315(13)
H30_4 H 0.5427 0.2537 0.6736
C53_4 C 0.44680(17) 0.1441(2) 0.61379(14)
C54_4 C 0.40539(16) 0.13197(19) 0.61758(12)
H31_4 H 0.3859 0.1436 0.6319
C55_4 C 0.35514(14) 0.07972(17) 0.59230(11)
C56_4 C 0.31941(13) 0.09481(15) 0.60823(10)
H32_4 H 0.3225 0.1166 0.6231
C57_4 C 0.27895(12) 0.07693(13) 0.60168(9)
C58_4 C 0.27453(12) 0.04687(12) 0.57916(8)
H33_4 H 0.2466 0.0359 0.5742
C59_4 C 0.31083(13) 0.03259(14) 0.56377(9)
C60_4 C 0.35156(14) 0.04916(16) 0.57014(10)
H34_4 H 0.3764 0.0396 0.5594
C61_4 C 0.24145(12) 0.09117(12) 0.61946(9)
C63_4 C 0.46460(17) 0.2472(2) 0.69651(13)
C64_4 C 0.48591(16) 0.26742(18) 0.71963(12)
H35_4 H 0.5163 0.2714 0.7217
C65_4 C 0.45947(14) 0.29968(16) 0.76690(10)
C66_4 C 0.49973(13) 0.30193(14) 0.78039(10)
H36_4 H 0.5244 0.2890 0.7713
C67_4 C 0.50338(12) 0.32310(12) 0.80703(9)
C68_4 C 0.46690(12) 0.34153(12) 0.82088(9)
H37_4 H 0.4698 0.3564 0.8394
C69_4 C 0.42738(12) 0.33796(13) 0.80759(9)
C70_4 C 0.42268(14) 0.31773(15) 0.78019(10)
H38_4 H 0.3951 0.3162 0.7707
C71_4 C 0.54638(12) 0.32458(12) 0.82296(9)
C72_4 C 0.38864(12) 0.35610(13) 0.82324(9)
N10_4 N 0.65571(12) 0.20154(14) 0.61735(10)
N11_4 N 0.65675(14) 0.23788(17) 0.63483(12)
N12_4 N 0.61610(15) 0.24377(18) 0.64405(13)
N13_4 N 0.46226(18) 0.1195(2) 0.59053(14)
N14_4 N 0.43144(18) 0.0905(2) 0.58250(14)
N15_4 N 0.39633(13) 0.10157(16) 0.59825(10)
N16_4 N 0.41420(15) 0.2730(2) 0.72654(12)
N17_4 N 0.45482(13) 0.28034(16) 0.73853(10)
N18_4 N 0.42045(16) 0.2505(2) 0.70116(13)
O17_4 O 0.84451(8) 0.15899(9) 0.60818(6)
O18_4 O 0.81355(8) 0.19625(8) 0.64535(6)
O19_4 O 0.92666(13) 0.10896(11) 0.59500(8)
H39_4 H 0.9070(9) 0.0889(12) 0.5896(10)
H40_4 H 0.9497(9) 0.0961(13) 0.6006(8)
O20_4 O 0.83910(11) 0.24553(10) 0.70122(7)
H41_4 H 0.8167 0.2599 0.6931
H42_4 H 0.8300 0.2320 0.7167
O21_4 O 0.75504(8) 0.09376(8) 0.53068(5)
O22_4 O 0.68292(8) 0.10597(8) 0.53078(6)
O27_4 O 0.35201(9) 0.35112(9) 0.81048(6)
O28_4 O 0.39560(8) 0.37486(9) 0.84733(6)
O29_4 O 0.57582(8) 0.30018(8) 0.81319(6)
O30_4 O 0.54899(8) 0.34906(8) 0.84513(6)
Cu19_6 Cu 0.750588(18) 0.04881(2) 0.5000
Cu20_6 Cu 0.665540(19) 0.06487(2) 0.5000
O40_4 O 0.85112(9) 0.14799(9) 0.68952(6)
O42_4 O 0.87486(9) 0.10440(8) 0.65267(6)
O44_4 O 0.92418(8) 0.19982(8) 0.68681(6)
O46_4 O 0.95101(8) 0.15094(8) 0.65487(6)
Cu3_6 Cu 0.249412(18) 0.95119(2) 0.5000
Cu4_6 Cu 0.334460(19) 0.93513(2) 0.5000
C1_4 C 0.27337(12) 0.85851(13) 0.56651(9)
C2_4 C 0.31010(13) 0.83905(14) 0.57806(10)
H1_4 H 0.3374 0.8420 0.5684
C3_4 C 0.30604(14) 0.81457(15) 0.60461(11)
C4_4 C 0.26671(13) 0.80822(14) 0.61799(10)
H2_4 H 0.2644 0.7913 0.6357
C5_4 C 0.23008(12) 0.82702(13) 0.60516(9)
C6_4 C 0.23317(12) 0.85210(12) 0.57971(8)
H3_4 H 0.2079 0.8649 0.5713
C7_4 C 0.18716(12) 0.82365(12) 0.62079(9)
C8_4 C 0.27920(13) 0.88917(12) 0.54048(8)
C9_4 C 0.38463(15) 0.81447(18) 0.61473(12)
H4_4 H 0.3937 0.8387 0.6032
C10_4 C 0.40946(16) 0.7888(2) 0.63203(14)
C11_4 C 0.45694(16) 0.7913(2) 0.63905(13)
C12_4 C 0.48222(17) 0.8192(2) 0.62190(14)
H5_4 H 0.4704 0.8332 0.6048
C13_4 C 0.52641(16) 0.8266(2) 0.63056(14)
C14_4 C 0.54310(16) 0.8031(2) 0.65365(13)
H6_4 H 0.5732 0.8057 0.6580
C15_4 C 0.51797(16) 0.7754(2) 0.67104(13)
C16_4 C 0.47428(16) 0.7671(2) 0.66315(13)
H7_4 H 0.4573 0.7463 0.6736
C17_4 C 0.55320(17) 0.8559(2) 0.61379(14)
C18_4 C 0.59461(16) 0.86803(19) 0.61758(12)
H8_4 H 0.6141 0.8564 0.6319
C19_4 C 0.64486(14) 0.92028(17) 0.59230(11)
C20_4 C 0.68059(13) 0.90519(15) 0.60823(10)
H9_4 H 0.6775 0.8834 0.6231
C21_4 C 0.72105(12) 0.92307(13) 0.60168(9)
C22_4 C 0.72547(12) 0.95313(12) 0.57916(8)
H10_4 H 0.7534 0.9641 0.5742
C23_4 C 0.68917(13) 0.96741(14) 0.56377(9)
C24_4 C 0.64844(14) 0.95084(16) 0.57014(10)
H11_4 H 0.6236 0.9604 0.5594
C25_4 C 0.75855(12) 0.90883(12) 0.61946(9)
C27_4 C 0.53540(17) 0.7528(2) 0.69651(13)
C28_4 C 0.51409(16) 0.73258(18) 0.71963(12)
H12_4 H 0.4837 0.7286 0.7217
C29_4 C 0.54053(14) 0.70032(16) 0.76690(10)
C30_4 C 0.50027(13) 0.69807(14) 0.78039(10)
H13_4 H 0.4756 0.7110 0.7713
C31_4 C 0.49662(12) 0.67690(12) 0.80703(9)
C32_4 C 0.53310(12) 0.65847(12) 0.82088(9)
H14_4 H 0.5302 0.6436 0.8394
C33_4 C 0.57262(12) 0.66204(13) 0.80759(9)
C34_4 C 0.57732(14) 0.68227(15) 0.78019(10)
H15_4 H 0.6049 0.6838 0.7707
C35_4 C 0.45362(12) 0.67542(12) 0.82296(9)
C36_4 C 0.61136(12) 0.64390(13) 0.82324(9)
N1_4 N 0.34429(12) 0.79846(14) 0.61735(10)
N2_4 N 0.34325(14) 0.76212(17) 0.63483(12)
N3_4 N 0.38390(15) 0.75623(18) 0.64405(13)
N4_4 N 0.53774(18) 0.8805(2) 0.59053(14)
N5_4 N 0.56856(18) 0.9095(2) 0.58250(14)
N6_4 N 0.60367(13) 0.89843(16) 0.59825(10)
N7_4 N 0.58580(15) 0.7270(2) 0.72654(12)
N8_4 N 0.54518(13) 0.71966(16) 0.73853(10)
N9_4 N 0.57955(16) 0.7495(2) 0.70116(13)
O1_4 O 0.15549(8) 0.84101(9) 0.60818(6)
O2_4 O 0.18645(8) 0.80375(8) 0.64535(6)
O3_4 O 0.07334(13) 0.89104(11) 0.59500(8)
H16_4 H 0.0930(9) 0.9111(12) 0.5896(10)
H17_4 H 0.0503(9) 0.9039(13) 0.6006(8)
O4_4 O 0.16090(11) 0.75447(10) 0.70122(7)
H18_4 H 0.1833 0.7401 0.6931
H19_4 H 0.1700 0.7680 0.7167
O5_4 O 0.24496(8) 0.90624(8) 0.53068(5)
O6_4 O 0.31708(8) 0.89403(8) 0.53078(6)
O7_11 O 0.18238(13) 0.96763(17) 0.5000
H20_7 H 0.1717(8) 0.9642(17) 0.4821(6)
O9_11 O 0.40123(12) 0.91787(15) 0.5000
H21_7 H 0.4076 0.9069 0.5184
O13_4 O 0.64799(9) 0.64888(9) 0.81048(6)
O14_4 O 0.60440(8) 0.62514(9) 0.84733(6)
O15_4 O 0.42418(8) 0.69982(8) 0.81319(6)
O16_4 O 0.45101(8) 0.65094(8) 0.84513(6)
H22_7 H 0.1717(8) 0.9642(17) 0.5179(6)
H23_7 H 0.4076 0.9069 0.4816
C62_4 C 0.30527(13) 0.99974(13) 0.53936(8)
O23_4 O 0.33896(8) 0.98063(8) 0.53028(6)
O24_4 O 0.26698(8) 0.99249(9) 0.53101(6)
O31_7 O 0.24496(8) 0.90624(8) 0.46932(5)
O32_7 O 0.31708(8) 0.89403(8) 0.46922(6)
O33_7 O 0.33896(8) 0.98063(8) 0.46972(6)
O34_7 O 0.26698(8) 0.99249(9) 0.46899(6)
O39_4 O 0.14888(9) 0.85201(9) 0.68952(6)
O41_4 O 0.12514(9) 0.89560(8) 0.65267(6)
O43_4 O 0.07582(8) 0.80018(8) 0.68681(6)
O45_4 O 0.04899(8) 0.84906(8) 0.65487(6)
O7_12 O 0.81762(13) 0.03237(17) 0.5000
H20_8 H 0.8283(8) 0.0358(17) 0.4821(6)
O9_12 O 0.59877(12) 0.08213(15) 0.5000
H21_8 H 0.5924 0.0931 0.5184
H22_8 H 0.8283(8) 0.0358(17) 0.5179(6)
H23_8 H 0.5924 0.0931 0.4816
O31_8 O 0.75504(8) 0.09376(8) 0.46932(5)
O32_8 O 0.68292(8) 0.10597(8) 0.46922(6)
O33_8 O 0.66104(8) 0.01937(8) 0.46972(6)
O34_8 O 0.73302(8) 0.00751(9) 0.46899(6)
C13_5 C 0.6734(2) 0.02641(16) 0.86944(14)
C14_5 C 0.6969(2) 0.04310(16) 0.84635(13)
H6_5 H 0.6943 0.0732 0.8420
C15_5 C 0.7246(2) 0.01797(16) 0.82896(13)
C17_5 C 0.6441(2) 0.05320(17) 0.88621(14)
C18_5 C 0.63197(19) 0.09461(16) 0.88242(12)
H8_5 H 0.6436 0.1141 0.8681
C19_5 C 0.57972(17) 0.14486(14) 0.90770(11)
C20_5 C 0.59481(15) 0.18059(13) 0.89177(10)
H9_5 H 0.6166 0.1775 0.8769
C21_5 C 0.57693(13) 0.22105(12) 0.89832(9)
C22_5 C 0.54687(12) 0.22547(12) 0.92084(8)
H10_5 H 0.5359 0.2534 0.9258
C23_5 C 0.53259(14) 0.18917(13) 0.93623(9)
C24_5 C 0.54916(16) 0.14844(14) 0.92986(10)
H11_5 H 0.5396 0.1236 0.9406
C25_5 C 0.59117(12) 0.25855(12) 0.88054(9)
C26_5 C 0.49974(13) 0.19473(13) 0.96064(8)
C27_5 C 0.7472(2) 0.03540(17) 0.80349(13)
C28_5 C 0.76742(18) 0.01409(16) 0.78037(12)
C29_5 C 0.79968(16) 0.04053(14) 0.73310(10)
C30_5 C 0.80193(14) 0.00027(13) 0.71961(10)
C32_5 C 0.84153(12) 0.03310(12) 0.67912(9)
H14_5 H 0.8564 0.0302 0.6606
C33_5 C 0.83796(13) 0.07262(12) 0.69241(9)
C34_5 C 0.81773(15) 0.07732(14) 0.71981(10)
H15_5 H 0.8162 0.1049 0.7293
C36_5 C 0.85610(13) 0.11136(12) 0.67676(9)
N4_5 N 0.6195(2) 0.03774(18) 0.90947(14)
N5_5 N 0.5905(2) 0.06856(18) 0.91750(14)
N6_5 N 0.60157(16) 0.10367(13) 0.90175(10)
N7_5 N 0.7730(2) 0.08580(15) 0.77346(12)
N8_5 N 0.78034(16) 0.04518(13) 0.76147(10)
N9_5 N 0.7505(2) 0.07955(16) 0.79884(13)
O11_3 O 0.57840(8) 0.29541(8) 0.88956(6)
O12_3 O 0.61426(8) 0.25179(8) 0.85817(6)
C37_5 C 0.35851(13) 0.22663(12) 0.93349(9)
C38_5 C 0.33905(14) 0.18990(13) 0.92194(10)
H24_5 H 0.3420 0.1626 0.9316
C39_5 C 0.31457(15) 0.19396(14) 0.89539(11)
C40_5 C 0.30822(14) 0.23329(13) 0.88201(10)
H25_5 H 0.2913 0.2356 0.8643
C41_5 C 0.32702(13) 0.26992(12) 0.89484(9)
C42_5 C 0.35210(12) 0.26683(12) 0.92029(8)
H26_5 H 0.3649 0.2921 0.9287
C43_5 C 0.32365(12) 0.31284(12) 0.87921(9)
C44_5 C 0.38917(12) 0.22080(13) 0.95952(8)
C45_5 C 0.31447(18) 0.11537(15) 0.88527(12)
H27_5 H 0.3387 0.1063 0.8968
C46_5 C 0.2888(2) 0.09054(16) 0.86797(14)
C47_5 C 0.2913(2) 0.04306(16) 0.86095(13)
C48_5 C 0.3192(2) 0.01778(17) 0.87810(14)
H28_5 H 0.3332 0.0296 0.8952
C52_5 C 0.2671(2) 0.02572(16) 0.83685(13)
H30_5 H 0.2463 0.0427 0.8264
H35_5 H 0.2286 0.0163 0.7783
H36_5 H 0.2110 0.0244 0.7287
C67_5 C 0.17690(12) 0.00338(12) 0.69297(9)
C71_5 C 0.17542(12) 0.04638(12) 0.67704(9)
N10_5 N 0.29846(14) 0.15571(12) 0.88265(10)
N11_5 N 0.26212(17) 0.15675(14) 0.86517(12)
N12_5 N 0.25623(18) 0.11610(15) 0.85595(13)
O17_5 O 0.34101(9) 0.34451(8) 0.89182(6)
O18_5 O 0.30375(8) 0.31355(8) 0.85465(6)
O19_5 O 0.39104(11) 0.42666(13) 0.90500(8)
H39_5 H 0.4111(12) 0.4070(9) 0.9104(10)
H40_5 H 0.4039(13) 0.4497(9) 0.8994(8)
O20_5 O 0.25447(10) 0.33910(11) 0.79878(7)
H41_5 H 0.2401 0.3167 0.8069
H42_5 H 0.2680 0.3300 0.7833
O36_3 O 0.29541(8) 0.42160(8) 0.88956(6)
O38_3 O 0.25179(8) 0.38574(8) 0.85817(6)
C1_5 C 0.64149(13) 0.77337(12) 0.93349(9)
C2_5 C 0.66095(14) 0.81010(13) 0.92194(10)
H1_5 H 0.6580 0.8374 0.9316
C3_5 C 0.68543(15) 0.80604(14) 0.89539(11)
C4_5 C 0.69178(14) 0.76671(13) 0.88201(10)
H2_5 H 0.7087 0.7644 0.8643
C5_5 C 0.67298(13) 0.73008(12) 0.89484(9)
C6_5 C 0.64790(12) 0.73317(12) 0.92029(8)
H3_5 H 0.6351 0.7079 0.9287
C7_5 C 0.67635(12) 0.68716(12) 0.87921(9)
C8_5 C 0.61083(12) 0.77920(13) 0.95952(8)
C9_5 C 0.68553(18) 0.88463(15) 0.88527(12)
H4_5 H 0.6613 0.8937 0.8968
C10_5 C 0.7112(2) 0.90946(16) 0.86797(14)
C11_5 C 0.7087(2) 0.95694(16) 0.86095(13)
C12_5 C 0.6808(2) 0.98222(17) 0.87810(14)
H5_5 H 0.6668 0.9704 0.8952
C16_5 C 0.7329(2) 0.97428(16) 0.83685(13)
H7_5 H 0.7537 0.9573 0.8264
H12_5 H 0.7714 0.9837 0.7783
H13_5 H 0.7890 0.9756 0.7287
C31_5 C 0.82310(12) 0.99662(12) 0.69297(9)
C35_5 C 0.82458(12) 0.95362(12) 0.67704(9)
N1_5 N 0.70154(14) 0.84429(12) 0.88265(10)
N2_5 N 0.73788(17) 0.84325(14) 0.86517(12)
N3_5 N 0.74377(18) 0.88390(15) 0.85595(13)
O1_5 O 0.65899(9) 0.65549(8) 0.89182(6)
O2_5 O 0.69625(8) 0.68645(8) 0.85465(6)
O3_5 O 0.60896(11) 0.57334(13) 0.90500(8)
H16_5 H 0.5889(12) 0.5930(9) 0.9104(10)
H17_5 H 0.5961(13) 0.5503(9) 0.8994(8)
O4_5 O 0.74553(10) 0.66090(11) 0.79878(7)
H18_5 H 0.7599 0.6833 0.8069
H19_5 H 0.7320 0.6700 0.7833
C49_5 C 0.3266(2) 0.97359(16) 0.86944(14)
C50_5 C 0.3031(2) 0.95690(16) 0.84635(13)
H29_5 H 0.3057 0.9268 0.8420
C51_5 C 0.2754(2) 0.98203(16) 0.82896(13)
C53_5 C 0.3559(2) 0.94680(17) 0.88621(14)
C54_5 C 0.36803(19) 0.90539(16) 0.88242(12)
H31_5 H 0.3564 0.8859 0.8681
C55_5 C 0.42028(17) 0.85514(14) 0.90770(11)
C56_5 C 0.40519(15) 0.81941(13) 0.89177(10)
H32_5 H 0.3834 0.8225 0.8769
C57_5 C 0.42307(13) 0.77895(12) 0.89832(9)
C58_5 C 0.45313(12) 0.77453(12) 0.92084(8)
H33_5 H 0.4641 0.7466 0.9258
C59_5 C 0.46741(14) 0.81083(13) 0.93623(9)
C60_5 C 0.45084(16) 0.85156(14) 0.92986(10)
H34_5 H 0.4604 0.8764 0.9406
C61_5 C 0.40883(12) 0.74145(12) 0.88054(9)
C62_5 C 0.50026(13) 0.80527(13) 0.96064(8)
C63_5 C 0.2528(2) 0.96460(17) 0.80349(13)
C64_5 C 0.23258(18) 0.98591(16) 0.78037(12)
C65_5 C 0.20032(16) 0.95947(14) 0.73310(10)
C66_5 C 0.19807(14) 0.99973(13) 0.71961(10)
C68_5 C 0.15847(12) 0.96690(12) 0.67912(9)
H37_5 H 0.1436 0.9698 0.6606
C69_5 C 0.16204(13) 0.92738(12) 0.69241(9)
C70_5 C 0.18227(15) 0.92268(14) 0.71981(10)
H38_5 H 0.1838 0.8951 0.7293
C72_5 C 0.14390(13) 0.88864(12) 0.67676(9)
N13_5 N 0.3805(2) 0.96226(18) 0.90947(14)
N14_5 N 0.4095(2) 0.93144(18) 0.91750(14)
N15_5 N 0.39843(16) 0.89633(13) 0.90175(10)
N16_5 N 0.2270(2) 0.91420(15) 0.77346(12)
N17_5 N 0.21966(16) 0.95482(13) 0.76147(10)
N18_5 N 0.2495(2) 0.92045(16) 0.79884(13)
O25_3 O 0.42160(8) 0.70459(8) 0.88956(6)
O26_3 O 0.38574(8) 0.74821(8) 0.85817(6)
O35_3 O 0.70459(8) 0.57840(8) 0.88956(6)
O37_3 O 0.74821(8) 0.61426(8) 0.85817(6)
C1_6 C 0.22663(12) 0.64149(13) 0.93349(9)
C2_6 C 0.18990(13) 0.66095(14) 0.92194(10)
H1_6 H 0.1626 0.6580 0.9316
C3_6 C 0.19396(14) 0.68543(15) 0.89539(11)
C4_6 C 0.23329(13) 0.69178(14) 0.88201(10)
H2_6 H 0.2356 0.7087 0.8643
C5_6 C 0.26992(12) 0.67298(13) 0.89484(9)
C6_6 C 0.26683(12) 0.64790(12) 0.92029(8)
H3_6 H 0.2921 0.6351 0.9287
C7_6 C 0.31284(12) 0.67635(12) 0.87921(9)
C8_6 C 0.22080(13) 0.61083(12) 0.95952(8)
C9_6 C 0.11537(15) 0.68553(18) 0.88527(12)
H4_6 H 0.1063 0.6613 0.8968
C10_6 C 0.09054(16) 0.7112(2) 0.86797(14)
C11_6 C 0.04306(16) 0.7087(2) 0.86095(13)
C12_6 C 0.01778(17) 0.6808(2) 0.87810(14)
H5_6 H 0.0296 0.6668 0.8952
C16_6 C 0.02572(16) 0.7329(2) 0.83685(13)
H7_6 H 0.0427 0.7537 0.8264
H12_6 H 0.0163 0.7714 0.7783
H13_6 H 0.0244 0.7890 0.7287
C31_6 C 0.00338(12) 0.82310(12) 0.69297(9)
C35_6 C 0.04638(12) 0.82458(12) 0.67704(9)
N1_6 N 0.15571(12) 0.70154(14) 0.88265(10)
N2_6 N 0.15675(14) 0.73788(17) 0.86517(12)
N3_6 N 0.11610(15) 0.74377(18) 0.85595(13)
O1_6 O 0.34451(8) 0.65899(9) 0.89182(6)
O2_6 O 0.31355(8) 0.69625(8) 0.85465(6)
O3_6 O 0.42666(13) 0.60896(11) 0.90500(8)
H16_6 H 0.4070(9) 0.5889(12) 0.9104(10)
H17_6 H 0.4497(9) 0.5961(13) 0.8994(8)
O4_6 O 0.33910(11) 0.74553(10) 0.79878(7)
H18_6 H 0.3167 0.7599 0.8069
H19_6 H 0.3300 0.7320 0.7833
C49_6 C 0.02641(16) 0.3266(2) 0.86944(14)
C50_6 C 0.04310(16) 0.3031(2) 0.84635(13)
H29_6 H 0.0732 0.3057 0.8420
C51_6 C 0.01797(16) 0.2754(2) 0.82896(13)
C53_6 C 0.05320(17) 0.3559(2) 0.88621(14)
C54_6 C 0.09461(16) 0.36803(19) 0.88242(12)
H31_6 H 0.1141 0.3564 0.8681
C55_6 C 0.14486(14) 0.42028(17) 0.90770(11)
C56_6 C 0.18059(13) 0.40519(15) 0.89177(10)
H32_6 H 0.1775 0.3834 0.8769
C57_6 C 0.22105(12) 0.42307(13) 0.89832(9)
C58_6 C 0.22547(12) 0.45313(12) 0.92084(8)
H33_6 H 0.2534 0.4641 0.9258
C59_6 C 0.18917(13) 0.46741(14) 0.93623(9)
C60_6 C 0.14844(14) 0.45084(16) 0.92986(10)
H34_6 H 0.1236 0.4604 0.9406
C61_6 C 0.25855(12) 0.40883(12) 0.88054(9)
C62_6 C 0.19473(13) 0.50026(13) 0.96064(8)
C63_6 C 0.03540(17) 0.2528(2) 0.80349(13)
C64_6 C 0.01409(16) 0.23258(18) 0.78037(12)
C65_6 C 0.04053(14) 0.20032(16) 0.73310(10)
C66_6 C 0.00027(13) 0.19807(14) 0.71961(10)
C68_6 C 0.03310(12) 0.15847(12) 0.67912(9)
H37_6 H 0.0302 0.1436 0.6606
C69_6 C 0.07262(12) 0.16204(13) 0.69241(9)
C70_6 C 0.07732(14) 0.18227(15) 0.71981(10)
H38_6 H 0.1049 0.1838 0.7293
C72_6 C 0.11136(12) 0.14390(13) 0.67676(9)
N13_6 N 0.03774(18) 0.3805(2) 0.90947(14)
N14_6 N 0.06856(18) 0.4095(2) 0.91750(14)
N15_6 N 0.10367(13) 0.39843(16) 0.90175(10)
N16_6 N 0.08580(15) 0.2270(2) 0.77346(12)
N17_6 N 0.04518(13) 0.21966(16) 0.76147(10)
N18_6 N 0.07955(16) 0.2495(2) 0.79884(13)
C13_6 C 0.97359(16) 0.6734(2) 0.86944(14)
C14_6 C 0.95690(16) 0.6969(2) 0.84635(13)
H6_6 H 0.9268 0.6943 0.8420
C15_6 C 0.98203(16) 0.7246(2) 0.82896(13)
C17_6 C 0.94680(17) 0.6441(2) 0.88621(14)
C18_6 C 0.90539(16) 0.63197(19) 0.88242(12)
H8_6 H 0.8859 0.6436 0.8681
C19_6 C 0.85514(14) 0.57972(17) 0.90770(11)
C20_6 C 0.81941(13) 0.59481(15) 0.89177(10)
H9_6 H 0.8225 0.6166 0.8769
C21_6 C 0.77895(12) 0.57693(13) 0.89832(9)
C22_6 C 0.77453(12) 0.54687(12) 0.92084(8)
H10_6 H 0.7466 0.5359 0.9258
C23_6 C 0.81083(13) 0.53259(14) 0.93623(9)
C24_6 C 0.85156(14) 0.54916(16) 0.92986(10)
H11_6 H 0.8764 0.5396 0.9406
C25_6 C 0.74145(12) 0.59117(12) 0.88054(9)
C26_6 C 0.80527(13) 0.49974(13) 0.96064(8)
C27_6 C 0.96460(17) 0.7472(2) 0.80349(13)
C28_6 C 0.98591(16) 0.76742(18) 0.78037(12)
C29_6 C 0.95947(14) 0.79968(16) 0.73310(10)
C30_6 C 0.99973(13) 0.80193(14) 0.71961(10)
C32_6 C 0.96690(12) 0.84153(12) 0.67912(9)
H14_6 H 0.9698 0.8564 0.6606
C33_6 C 0.92738(12) 0.83796(13) 0.69241(9)
C34_6 C 0.92268(14) 0.81773(15) 0.71981(10)
H15_6 H 0.8951 0.8162 0.7293
C36_6 C 0.88864(12) 0.85610(13) 0.67676(9)
N4_6 N 0.96226(18) 0.6195(2) 0.90947(14)
N5_6 N 0.93144(18) 0.5905(2) 0.91750(14)
N6_6 N 0.89633(13) 0.60157(16) 0.90175(10)
N7_6 N 0.91420(15) 0.7730(2) 0.77346(12)
N8_6 N 0.95482(13) 0.78034(16) 0.76147(10)
N9_6 N 0.92045(16) 0.7505(2) 0.79884(13)
C37_6 C 0.77337(12) 0.35851(13) 0.93349(9)
C38_6 C 0.81010(13) 0.33905(14) 0.92194(10)
H24_6 H 0.8374 0.3420 0.9316
C39_6 C 0.80604(14) 0.31457(15) 0.89539(11)
C40_6 C 0.76671(13) 0.30822(14) 0.88201(10)
H25_6 H 0.7644 0.2913 0.8643
C41_6 C 0.73008(12) 0.32702(13) 0.89484(9)
C42_6 C 0.73317(12) 0.35210(12) 0.92029(8)
H26_6 H 0.7079 0.3649 0.9287
C43_6 C 0.68716(12) 0.32365(12) 0.87921(9)
C44_6 C 0.77920(13) 0.38917(12) 0.95952(8)
C45_6 C 0.88463(15) 0.31447(18) 0.88527(12)
H27_6 H 0.8937 0.3387 0.8968
C46_6 C 0.90946(16) 0.2888(2) 0.86797(14)
C47_6 C 0.95694(16) 0.2913(2) 0.86095(13)
C48_6 C 0.98222(17) 0.3192(2) 0.87810(14)
H28_6 H 0.9704 0.3332 0.8952
C52_6 C 0.97428(16) 0.2671(2) 0.83685(13)
H30_6 H 0.9573 0.2463 0.8264
H35_6 H 0.9837 0.2286 0.7783
H36_6 H 0.9756 0.2110 0.7287
C67_6 C 0.99662(12) 0.17690(12) 0.69297(9)
C71_6 C 0.95362(12) 0.17542(12) 0.67704(9)
N10_6 N 0.84429(12) 0.29846(14) 0.88265(10)
N11_6 N 0.84325(14) 0.26212(17) 0.86517(12)
N12_6 N 0.88390(15) 0.25623(18) 0.85595(13)
O17_6 O 0.65549(8) 0.34101(9) 0.89182(6)
O18_6 O 0.68645(8) 0.30375(8) 0.85465(6)
O19_6 O 0.57334(13) 0.39104(11) 0.90500(8)
H39_6 H 0.5930(9) 0.4111(12) 0.9104(10)
H40_6 H 0.5503(9) 0.4039(13) 0.8994(8)
O20_6 O 0.66090(11) 0.25447(10) 0.79878(7)
H41_6 H 0.6833 0.2401 0.8069
H42_6 H 0.6700 0.2680 0.7833
C1_7 C 0.14149(13) 0.27337(12) 0.43349(9)
C2_7 C 0.16095(14) 0.31010(13) 0.42194(10)
H1_7 H 0.1580 0.3374 0.4316
C3_7 C 0.18543(15) 0.30604(14) 0.39539(11)
C4_7 C 0.19178(14) 0.26671(13) 0.38201(10)
H2_7 H 0.2087 0.2644 0.3643
C5_7 C 0.17298(13) 0.23008(12) 0.39484(9)
C6_7 C 0.14790(12) 0.23317(12) 0.42029(8)
H3_7 H 0.1351 0.2079 0.4287
C7_7 C 0.17635(12) 0.18716(12) 0.37921(9)
C8_7 C 0.11083(12) 0.27920(13) 0.45952(8)
C9_7 C 0.18553(18) 0.38463(15) 0.38527(12)
H4_7 H 0.1613 0.3937 0.3968
C10_7 C 0.2112(2) 0.40946(16) 0.36797(14)
C11_7 C 0.2087(2) 0.45694(16) 0.36095(13)
C12_7 C 0.1808(2) 0.48222(17) 0.37810(14)
H5_7 H 0.1668 0.4704 0.3952
C13_7 C 0.1734(2) 0.52641(16) 0.36944(14)
C14_7 C 0.1969(2) 0.54310(16) 0.34635(13)
H6_7 H 0.1943 0.5732 0.3420
C15_7 C 0.2246(2) 0.51797(16) 0.32896(13)
C16_7 C 0.2329(2) 0.47428(16) 0.33685(13)
H7_7 H 0.2537 0.4573 0.3264
C17_7 C 0.1441(2) 0.55320(17) 0.38621(14)
C18_7 C 0.13197(19) 0.59461(16) 0.38242(12)
H8_7 H 0.1436 0.6141 0.3681
C19_7 C 0.07972(17) 0.64486(14) 0.40770(11)
C20_7 C 0.09481(15) 0.68059(13) 0.39177(10)
H9_7 H 0.1166 0.6775 0.3769
C21_7 C 0.07693(13) 0.72105(12) 0.39832(9)
C22_7 C 0.04687(12) 0.72547(12) 0.42084(8)
H10_7 H 0.0359 0.7534 0.4258
C23_7 C 0.03259(14) 0.68917(13) 0.43623(9)
C24_7 C 0.04916(16) 0.64844(14) 0.42986(10)
H11_7 H 0.0396 0.6236 0.4406
C25_7 C 0.09117(12) 0.75855(12) 0.38054(9)
C27_7 C 0.2472(2) 0.53540(17) 0.30349(13)
C28_7 C 0.26742(18) 0.51409(16) 0.28037(12)
H12_7 H 0.2714 0.4837 0.2783
C29_7 C 0.29968(16) 0.54053(14) 0.23310(10)
C30_7 C 0.30193(14) 0.50027(13) 0.21961(10)
H13_7 H 0.2890 0.4756 0.2287
C31_7 C 0.32310(12) 0.49662(12) 0.19297(9)
C32_7 C 0.34153(12) 0.53310(12) 0.17912(9)
H14_7 H 0.3564 0.5302 0.1606
C33_7 C 0.33796(13) 0.57262(12) 0.19241(9)
C34_7 C 0.31773(15) 0.57732(14) 0.21981(10)
H15_7 H 0.3162 0.6049 0.2293
C35_7 C 0.32458(12) 0.45362(12) 0.17704(9)
C36_7 C 0.35610(13) 0.61136(12) 0.17676(9)
N1_7 N 0.20154(14) 0.34429(12) 0.38265(10)
N2_7 N 0.23788(17) 0.34325(14) 0.36517(12)
N3_7 N 0.24377(18) 0.38390(15) 0.35595(13)
N4_7 N 0.1195(2) 0.53774(18) 0.40947(14)
N5_7 N 0.0905(2) 0.56856(18) 0.41750(14)
N6_7 N 0.10157(16) 0.60367(13) 0.40175(10)
N7_7 N 0.2730(2) 0.58580(15) 0.27346(12)
N8_7 N 0.28034(16) 0.54518(13) 0.26147(10)
N9_7 N 0.2505(2) 0.57955(16) 0.29884(13)
O1_7 O 0.15899(9) 0.15549(8) 0.39182(6)
O2_7 O 0.19625(8) 0.18645(8) 0.35465(6)
O3_7 O 0.10896(11) 0.07334(13) 0.40500(8)
H16_7 H 0.0889(12) 0.0930(9) 0.4104(10)
H17_7 H 0.0961(13) 0.0503(9) 0.3994(8)
O4_7 O 0.24553(10) 0.16090(11) 0.29878(7)
H18_7 H 0.2599 0.1833 0.3069
H19_7 H 0.2320 0.1700 0.2833
O11_4 O 0.07840(8) 0.79541(8) 0.38956(6)
O12_4 O 0.11426(8) 0.75179(8) 0.35817(6)
C62_7 C 0.00026(13) 0.30527(13) 0.46064(8)
O35_4 O 0.20459(8) 0.07840(8) 0.38956(6)
O37_4 O 0.24821(8) 0.11426(8) 0.35817(6)
C26_7 C 0.99974(13) 0.69473(13) 0.46064(8)
C37_7 C 0.85851(13) 0.72663(12) 0.43349(9)
C38_7 C 0.83905(14) 0.68990(13) 0.42194(10)
H24_7 H 0.8420 0.6626 0.4316
C39_7 C 0.81457(15) 0.69396(14) 0.39539(11)
C40_7 C 0.80822(14) 0.73329(13) 0.38201(10)
H25_7 H 0.7913 0.7356 0.3643
C41_7 C 0.82702(13) 0.76992(12) 0.39484(9)
C42_7 C 0.85210(12) 0.76683(12) 0.42029(8)
H26_7 H 0.8649 0.7921 0.4287
C43_7 C 0.82365(12) 0.81284(12) 0.37921(9)
C44_7 C 0.88917(12) 0.72080(13) 0.45952(8)
C45_7 C 0.81447(18) 0.61537(15) 0.38527(12)
H27_7 H 0.8387 0.6063 0.3968
C46_7 C 0.7888(2) 0.59054(16) 0.36797(14)
C47_7 C 0.7913(2) 0.54306(16) 0.36095(13)
C48_7 C 0.8192(2) 0.51778(17) 0.37810(14)
H28_7 H 0.8332 0.5296 0.3952
C49_7 C 0.8266(2) 0.47359(16) 0.36944(14)
C50_7 C 0.8031(2) 0.45690(16) 0.34635(13)
H29_7 H 0.8057 0.4268 0.3420
C51_7 C 0.7754(2) 0.48203(16) 0.32896(13)
C52_7 C 0.7671(2) 0.52572(16) 0.33685(13)
H30_7 H 0.7463 0.5427 0.3264
C53_7 C 0.8559(2) 0.44680(17) 0.38621(14)
C54_7 C 0.86803(19) 0.40539(16) 0.38242(12)
H31_7 H 0.8564 0.3859 0.3681
C55_7 C 0.92028(17) 0.35514(14) 0.40770(11)
C56_7 C 0.90519(15) 0.31941(13) 0.39177(10)
H32_7 H 0.8834 0.3225 0.3769
C57_7 C 0.92307(13) 0.27895(12) 0.39832(9)
C58_7 C 0.95313(12) 0.27453(12) 0.42084(8)
H33_7 H 0.9641 0.2466 0.4258
C59_7 C 0.96741(14) 0.31083(13) 0.43623(9)
C60_7 C 0.95084(16) 0.35156(14) 0.42986(10)
H34_7 H 0.9604 0.3764 0.4406
C61_7 C 0.90883(12) 0.24145(12) 0.38054(9)
C63_7 C 0.7528(2) 0.46460(17) 0.30349(13)
C64_7 C 0.73258(18) 0.48591(16) 0.28037(12)
H35_7 H 0.7286 0.5163 0.2783
C65_7 C 0.70032(16) 0.45947(14) 0.23310(10)
C66_7 C 0.69807(14) 0.49973(13) 0.21961(10)
H36_7 H 0.7110 0.5244 0.2287
C67_7 C 0.67690(12) 0.50338(12) 0.19297(9)
C68_7 C 0.65847(12) 0.46690(12) 0.17912(9)
H37_7 H 0.6436 0.4698 0.1606
C69_7 C 0.66204(13) 0.42738(12) 0.19241(9)
C70_7 C 0.68227(15) 0.42268(14) 0.21981(10)
H38_7 H 0.6838 0.3951 0.2293
C71_7 C 0.67542(12) 0.54638(12) 0.17704(9)
C72_7 C 0.64390(13) 0.38864(12) 0.17676(9)
N10_7 N 0.79846(14) 0.65571(12) 0.38265(10)
N11_7 N 0.76212(17) 0.65675(14) 0.36517(12)
N12_7 N 0.75623(18) 0.61610(15) 0.35595(13)
N13_7 N 0.8805(2) 0.46226(18) 0.40947(14)
N14_7 N 0.9095(2) 0.43144(18) 0.41750(14)
N15_7 N 0.89843(16) 0.39633(13) 0.40175(10)
N16_7 N 0.7270(2) 0.41420(15) 0.27346(12)
N17_7 N 0.71966(16) 0.45482(13) 0.26147(10)
N18_7 N 0.7495(2) 0.42045(16) 0.29884(13)
O17_7 O 0.84101(9) 0.84451(8) 0.39182(6)
O18_7 O 0.80375(8) 0.81355(8) 0.35465(6)
O19_7 O 0.89104(11) 0.92666(13) 0.40500(8)
H39_7 H 0.9111(12) 0.9070(9) 0.4104(10)
H40_7 H 0.9039(13) 0.9497(9) 0.3994(8)
O20_7 O 0.75447(10) 0.83910(11) 0.29878(7)
H41_7 H 0.7401 0.8167 0.3069
H42_7 H 0.7680 0.8300 0.2833
O25_4 O 0.92160(8) 0.20459(8) 0.38956(6)
O26_4 O 0.88574(8) 0.24821(8) 0.35817(6)
O36_4 O 0.79541(8) 0.92160(8) 0.38956(6)
O38_4 O 0.75179(8) 0.88574(8) 0.35817(6)
C1_8 C 0.72663(12) 0.14149(13) 0.43349(9)
C2_8 C 0.68990(13) 0.16095(14) 0.42194(10)
H1_8 H 0.6626 0.1580 0.4316
C3_8 C 0.69396(14) 0.18543(15) 0.39539(11)
C4_8 C 0.73329(13) 0.19178(14) 0.38201(10)
H2_8 H 0.7356 0.2087 0.3643
C5_8 C 0.76992(12) 0.17298(13) 0.39484(9)
C6_8 C 0.76683(12) 0.14790(12) 0.42029(8)
H3_8 H 0.7921 0.1351 0.4287
C7_8 C 0.81284(12) 0.17635(12) 0.37921(9)
C8_8 C 0.72080(13) 0.11083(12) 0.45952(8)
C9_8 C 0.61537(15) 0.18553(18) 0.38527(12)
H4_8 H 0.6063 0.1613 0.3968
C10_8 C 0.59054(16) 0.2112(2) 0.36797(14)
C11_8 C 0.54306(16) 0.2087(2) 0.36095(13)
C12_8 C 0.51778(17) 0.1808(2) 0.37810(14)
H5_8 H 0.5296 0.1668 0.3952
C13_8 C 0.47359(16) 0.1734(2) 0.36944(14)
C14_8 C 0.45690(16) 0.1969(2) 0.34635(13)
H6_8 H 0.4268 0.1943 0.3420
C15_8 C 0.48203(16) 0.2246(2) 0.32896(13)
C16_8 C 0.52572(16) 0.2329(2) 0.33685(13)
H7_8 H 0.5427 0.2537 0.3264
C17_8 C 0.44680(17) 0.1441(2) 0.38621(14)
C18_8 C 0.40539(16) 0.13197(19) 0.38242(12)
H8_8 H 0.3859 0.1436 0.3681
C19_8 C 0.35514(14) 0.07972(17) 0.40770(11)
C20_8 C 0.31941(13) 0.09481(15) 0.39177(10)
H9_8 H 0.3225 0.1166 0.3769
C21_8 C 0.27895(12) 0.07693(13) 0.39832(9)
C22_8 C 0.27453(12) 0.04687(12) 0.42084(8)
H10_8 H 0.2466 0.0359 0.4258
C23_8 C 0.31083(13) 0.03259(14) 0.43623(9)
C24_8 C 0.35156(14) 0.04916(16) 0.42986(10)
H11_8 H 0.3764 0.0396 0.4406
C25_8 C 0.24145(12) 0.09117(12) 0.38054(9)
C27_8 C 0.46460(17) 0.2472(2) 0.30349(13)
C28_8 C 0.48591(16) 0.26742(18) 0.28037(12)
H12_8 H 0.5163 0.2714 0.2783
C29_8 C 0.45947(14) 0.29968(16) 0.23310(10)
C30_8 C 0.49973(13) 0.30193(14) 0.21961(10)
H13_8 H 0.5244 0.2890 0.2287
C31_8 C 0.50338(12) 0.32310(12) 0.19297(9)
C32_8 C 0.46690(12) 0.34153(12) 0.17912(9)
H14_8 H 0.4698 0.3564 0.1606
C33_8 C 0.42738(12) 0.33796(13) 0.19241(9)
C34_8 C 0.42268(14) 0.31773(15) 0.21981(10)
H15_8 H 0.3951 0.3162 0.2293
C35_8 C 0.54638(12) 0.32458(12) 0.17704(9)
C36_8 C 0.38864(12) 0.35610(13) 0.17676(9)
N1_8 N 0.65571(12) 0.20154(14) 0.38265(10)
N2_8 N 0.65675(14) 0.23788(17) 0.36517(12)
N3_8 N 0.61610(15) 0.24377(18) 0.35595(13)
N4_8 N 0.46226(18) 0.1195(2) 0.40947(14)
N5_8 N 0.43144(18) 0.0905(2) 0.41750(14)
N6_8 N 0.39633(13) 0.10157(16) 0.40175(10)
N7_8 N 0.41420(15) 0.2730(2) 0.27346(12)
N8_8 N 0.45482(13) 0.28034(16) 0.26147(10)
N9_8 N 0.42045(16) 0.2505(2) 0.29884(13)
O1_8 O 0.84451(8) 0.15899(9) 0.39182(6)
O2_8 O 0.81355(8) 0.19625(8) 0.35465(6)
O3_8 O 0.92666(13) 0.10896(11) 0.40500(8)
H16_8 H 0.9070(9) 0.0889(12) 0.4104(10)
H17_8 H 0.9497(9) 0.0961(13) 0.3994(8)
O4_8 O 0.83910(11) 0.24553(10) 0.29878(7)
H18_8 H 0.8167 0.2599 0.3069
H19_8 H 0.8300 0.2320 0.2833
C62_8 C 0.69473(13) 0.00026(13) 0.46064(8)
C26_8 C 0.30527(13) 0.99974(13) 0.46064(8)
C37_8 C 0.27337(12) 0.85851(13) 0.43349(9)
C38_8 C 0.31010(13) 0.83905(14) 0.42194(10)
H24_8 H 0.3374 0.8420 0.4316
C39_8 C 0.30604(14) 0.81457(15) 0.39539(11)
C40_8 C 0.26671(13) 0.80822(14) 0.38201(10)
H25_8 H 0.2644 0.7913 0.3643
C41_8 C 0.23008(12) 0.82702(13) 0.39484(9)
C42_8 C 0.23317(12) 0.85210(12) 0.42029(8)
H26_8 H 0.2079 0.8649 0.4287
C43_8 C 0.18716(12) 0.82365(12) 0.37921(9)
C44_8 C 0.27920(13) 0.88917(12) 0.45952(8)
C45_8 C 0.38463(15) 0.81447(18) 0.38527(12)
H27_8 H 0.3937 0.8387 0.3968
C46_8 C 0.40946(16) 0.7888(2) 0.36797(14)
C47_8 C 0.45694(16) 0.7913(2) 0.36095(13)
C48_8 C 0.48222(17) 0.8192(2) 0.37810(14)
H28_8 H 0.4704 0.8332 0.3952
C49_8 C 0.52641(16) 0.8266(2) 0.36944(14)
C50_8 C 0.54310(16) 0.8031(2) 0.34635(13)
H29_8 H 0.5732 0.8057 0.3420
C51_8 C 0.51797(16) 0.7754(2) 0.32896(13)
C52_8 C 0.47428(16) 0.7671(2) 0.33685(13)
H30_8 H 0.4573 0.7463 0.3264
C53_8 C 0.55320(17) 0.8559(2) 0.38621(14)
C54_8 C 0.59461(16) 0.86803(19) 0.38242(12)
H31_8 H 0.6141 0.8564 0.3681
C55_8 C 0.64486(14) 0.92028(17) 0.40770(11)
C56_8 C 0.68059(13) 0.90519(15) 0.39177(10)
H32_8 H 0.6775 0.8834 0.3769
C57_8 C 0.72105(12) 0.92307(13) 0.39832(9)
C58_8 C 0.72547(12) 0.95313(12) 0.42084(8)
H33_8 H 0.7534 0.9641 0.4258
C59_8 C 0.68917(13) 0.96741(14) 0.43623(9)
C60_8 C 0.64844(14) 0.95084(16) 0.42986(10)
H34_8 H 0.6236 0.9604 0.4406
C61_8 C 0.75855(12) 0.90883(12) 0.38054(9)
C63_8 C 0.53540(17) 0.7528(2) 0.30349(13)
C64_8 C 0.51409(16) 0.73258(18) 0.28037(12)
H35_8 H 0.4837 0.7286 0.2783
C65_8 C 0.54053(14) 0.70032(16) 0.23310(10)
C66_8 C 0.50027(13) 0.69807(14) 0.21961(10)
H36_8 H 0.4756 0.7110 0.2287
C67_8 C 0.49662(12) 0.67690(12) 0.19297(9)
C68_8 C 0.53310(12) 0.65847(12) 0.17912(9)
H37_8 H 0.5302 0.6436 0.1606
C69_8 C 0.57262(12) 0.66204(13) 0.19241(9)
C70_8 C 0.57732(14) 0.68227(15) 0.21981(10)
H38_8 H 0.6049 0.6838 0.2293
C71_8 C 0.45362(12) 0.67542(12) 0.17704(9)
C72_8 C 0.61136(12) 0.64390(13) 0.17676(9)
N10_8 N 0.34429(12) 0.79846(14) 0.38265(10)
N11_8 N 0.34325(14) 0.76212(17) 0.36517(12)
N12_8 N 0.38390(15) 0.75623(18) 0.35595(13)
N13_8 N 0.53774(18) 0.8805(2) 0.40947(14)
N14_8 N 0.56856(18) 0.9095(2) 0.41750(14)
N15_8 N 0.60367(13) 0.89843(16) 0.40175(10)
N16_8 N 0.58580(15) 0.7270(2) 0.27346(12)
N17_8 N 0.54518(13) 0.71966(16) 0.26147(10)
N18_8 N 0.57955(16) 0.7495(2) 0.29884(13)
O17_8 O 0.15549(8) 0.84101(9) 0.39182(6)
O18_8 O 0.18645(8) 0.80375(8) 0.35465(6)
O19_8 O 0.07334(13) 0.89104(11) 0.40500(8)
H39_8 H 0.0930(9) 0.9111(12) 0.4104(10)
H40_8 H 0.0503(9) 0.9039(13) 0.3994(8)
O20_8 O 0.16090(11) 0.75447(10) 0.29878(7)
H41_8 H 0.1833 0.7401 0.3069
H42_8 H 0.1700 0.7680 0.2833
loop_
_geom_bond_atom_site_label_1
_geom_bond_atom_site_label_2
_geom_bond_site_symmetry_1
_geom_bond_site_symmetry_2
Cu1 Cu2 1_555 1_555
Cu2 O2 1_555 1_555
Cu3 Cu4 1_555 1_555
Cu4 O6 1_555 1_555
C1 C2 1_555 1_555
C2 H1 1_555 1_555
C3 C2 1_555 1_555
C4 C3 1_555 1_555
H2 C4 1_555 1_555
C5 C4 1_555 1_555
C6 C1 1_555 1_555
H3 C6 1_555 1_555
C7 C5 1_555 1_555
C8 C1 1_555 1_555
C9 H4 1_555 1_555
C10 C9 1_555 1_555
C11 C10 1_555 1_555
C12 C11 1_555 1_555
H5 C12 1_555 1_555
C16 C11 1_555 1_555
H7 C16 1_555 1_555
C35 C31 1_555 1_555
N1 C3 1_555 1_555
N2 N1 1_555 1_555
N3 C10 1_555 1_555
O1 Cu1 1_555 1_555
O2 C7 1_555 1_555
O3 Cu1 1_555 1_555
H16 O3 1_555 1_555
H17 O3 1_555 1_555
O4 Cu2 1_555 1_555
H18 O4 1_555 1_555
H19 O4 1_555 1_555
O5 Cu3 1_555 1_555
O6 C8 1_555 1_555
O7 Cu3 1_555 1_555
O9 Cu4 1_555 1_555
H21 O9 1_555 1_555
O15 C35 1_555 1_555
O16 C35 1_555 1_555
H22 O7 1_555 1_555
C50 C49 1_555 1_555
H29 C50 1_555 1_555
C51 C50 1_555 1_555
C53 C49 1_555 1_555
C54 C53 1_555 1_555
H31 C54 1_555 1_555
C55 C56 1_555 1_555
C56 H32 1_555 1_555
C57 C56 1_555 1_555
C58 C57 1_555 1_555
H33 C58 1_555 1_555
C59 C58 1_555 1_555
C60 C55 1_555 1_555
H34 C60 1_555 1_555
C61 C57 1_555 1_555
C62 C59 1_555 1_555
C63 C51 1_555 1_555
C64 C63 1_555 1_555
C65 C66 1_555 1_555
H37 C68 1_555 1_555
C69 C68 1_555 1_555
C70 C65 1_555 1_555
H38 C70 1_555 1_555
C72 C69 1_555 1_555
N13 C53 1_555 1_555
N14 N13 1_555 1_555
N15 C54 1_555 1_555
N16 N17 1_555 1_555
N17 C64 1_555 1_555
N18 C63 1_555 1_555
O23 Cu4 1_555 1_555
O24 Cu3 1_555 1_555
O25 C61 1_555 1_555
O26 C61 1_555 1_555
O27 C72 1_555 1_555
O28 C72 1_555 1_555
Cu7 O25 1_555 1_555
Cu9 O16 1_555 1_555
Cu11 O28 1_555 1_555
Cu13 O26 1_555 1_555
Cu15 O15 1_555 1_555
Cu17 O27 1_555 1_555
O35 Cu1 1_555 1_555
O37 Cu2 1_555 1_555
O39 Cu2 1_555 1_555
O41 Cu1 1_555 1_555
O43 Cu2 1_555 1_555
O45 Cu1 1_555 1_555
C5 C6 1_555 1_555
C7 O1 1_555 1_555
C8 O5 1_555 1_555
C9 N1 1_555 1_555
N2 N3 1_555 1_555
C55 N15 1_555 1_555
C59 C60 1_555 1_555
C62 O23 1_555 1_555
C62 O24 1_555 1_555
C65 N17 1_555 1_555
C69 C70 1_555 1_555
N14 N15 1_555 1_555
N16 N18 1_555 1_555
Cu7 Cu13 1_555 1_555
Cu9 Cu15 1_555 1_555
Cu11 Cu17 1_555 1_555
Cu3_2 Cu4_2 1_555 1_555
O7_2 Cu3_2 1_555 1_555
H20 O7_2 1_555 1_555
O9_2 Cu4_2 1_555 1_555
H23 O9_2 1_555 1_555
O31 Cu3_2 1_555 1_555
O32 Cu4_2 1_555 1_555
O33 Cu4_2 1_555 1_555
O34 Cu3_2 1_555 1_555
C14 C13 1_555 1_555
H6 C14 1_555 1_555
C15 C14 1_555 1_555
C17 C13 1_555 1_555
C18 C17 1_555 1_555
H8 C18 1_555 1_555
C19 C20 1_555 1_555
C20 H9 1_555 1_555
C21 C20 1_555 1_555
C22 C21 1_555 1_555
H10 C22 1_555 1_555
C23 C22 1_555 1_555
C24 C19 1_555 1_555
H11 C24 1_555 1_555
C25 C21 1_555 1_555
C26 C23 1_555 1_555
C27 C15 1_555 1_555
C28 C27 1_555 1_555
C29 C30 1_555 1_555
H14 C32 1_555 1_555
C33 C32 1_555 1_555
C34 C29 1_555 1_555
H15 C34 1_555 1_555
C36 C33 1_555 1_555
N4 C17 1_555 1_555
N5 N4 1_555 1_555
N6 C18 1_555 1_555
N7 N8 1_555 1_555
N8 C28 1_555 1_555
N9 C27 1_555 1_555
O8 C26 1_555 1_555
O10 C26 1_555 1_555
O11 C25 1_555 1_555
O12 C25 1_555 1_555
O13 C36 1_555 1_555
O14 C36 1_555 1_555
Cu5 Cu6 1_555 1_555
Cu6 O18 1_555 1_555
C37 C38 1_555 1_555
C38 H24 1_555 1_555
C39 C38 1_555 1_555
C40 C39 1_555 1_555
H25 C40 1_555 1_555
C41 C40 1_555 1_555
C42 C37 1_555 1_555
H26 C42 1_555 1_555
C43 C41 1_555 1_555
C44 C37 1_555 1_555
C45 H27 1_555 1_555
C46 C45 1_555 1_555
C47 C46 1_555 1_555
C48 C47 1_555 1_555
H28 C48 1_555 1_555
C52 C47 1_555 1_555
H30 C52 1_555 1_555
C71 C67 1_555 1_555
N10 C39 1_555 1_555
N11 N10 1_555 1_555
N12 C46 1_555 1_555
O17 Cu5 1_555 1_555
O18 C43 1_555 1_555
O19 Cu5 1_555 1_555
H39 O19 1_555 1_555
H40 O19 1_555 1_555
O20 Cu6 1_555 1_555
H41 O20 1_555 1_555
H42 O20 1_555 1_555
O21 C44 1_555 1_555
O22 C44 1_555 1_555
O29 C71 1_555 1_555
O30 C71 1_555 1_555
Cu8 O11 1_555 1_555
Cu10 O30 1_555 1_555
Cu12 O14 1_555 1_555
Cu14 O12 1_555 1_555
Cu16 O29 1_555 1_555
Cu18 O13 1_555 1_555
Cu19 O10 1_555 1_555
Cu20 O8 1_555 1_555
O36 Cu5 1_555 1_555
O38 Cu6 1_555 1_555
O40 Cu6 1_555 1_555
O42 Cu5 1_555 1_555
O44 Cu6 1_555 1_555
O46 Cu5 1_555 1_555
C19 N6 1_555 1_555
C23 C24 1_555 1_555
C29 N8 1_555 1_555
C33 C34 1_555 1_555
N5 N6 1_555 1_555
N7 N9 1_555 1_555
C41 C42 1_555 1_555
C43 O17 1_555 1_555
C45 N10 1_555 1_555
N11 N12 1_555 1_555
O21 Cu19 1_555 1_555
O22 Cu20 1_555 1_555
Cu8 Cu14 1_555 1_555
Cu10 Cu16 1_555 1_555
Cu12 Cu18 1_555 1_555
Cu19 Cu20 1_555 1_555
Cu19_2 Cu20_2 1_555 1_555
O7_3 Cu19 1_555 1_555
O9_3 Cu20 1_555 1_555
H21_2 O9_3 1_555 1_555
H22_2 O7_3 1_555 1_555
O7_4 Cu19_2 1_555 1_555
H20_2 O7_4 1_555 1_555
O9_4 Cu20_2 1_555 1_555
H23_2 O9_4 1_555 1_555
O31_2 Cu19_2 1_555 1_555
O32_2 Cu20_2 1_555 1_555
O33_2 Cu20_2 1_555 1_555
O34_2 Cu19_2 1_555 1_555
C14_2 C13_2 1_555 1_555
H6_2 C14_2 1_555 1_555
C15_2 C14_2 1_555 1_555
C17_2 C13_2 1_555 1_555
C18_2 C17_2 1_555 1_555
H8_2 C18_2 1_555 1_555
C19_2 C20_2 1_555 1_555
C20_2 H9_2 1_555 1_555
C21_2 C20_2 1_555 1_555
C22_2 C21_2 1_555 1_555
H10_2 C22_2 1_555 1_555
C23_2 C22_2 1_555 1_555
C24_2 C19_2 1_555 1_555
H11_2 C24_2 1_555 1_555
C25_2 C21_2 1_555 1_555
C26_2 C23_2 1_555 1_555
C27_2 C15_2 1_555 1_555
C28_2 C27_2 1_555 1_555
C29_2 C30_2 1_555 1_555
H14_2 C32_2 1_555 1_555
C33_2 C32_2 1_555 1_555
C34_2 C29_2 1_555 1_555
H15_2 C34_2 1_555 1_555
C36_2 C33_2 1_555 1_555
N4_2 C17_2 1_555 1_555
N5_2 N4_2 1_555 1_555
N6_2 C18_2 1_555 1_555
N7_2 N8_2 1_555 1_555
N8_2 C28_2 1_555 1_555
N9_2 C27_2 1_555 1_555
O8_2 C26_2 1_555 1_555
O10_2 C26_2 1_555 1_555
O35 C25_2 1_555 1_555
O37 C25_2 1_555 1_555
O13_2 C36_2 1_555 1_555
O14_2 C36_2 1_555 1_555
Cu14 O18_2 1_555 1_555
C37_2 C38_2 1_555 1_555
C38_2 H24_2 1_555 1_555
C39_2 C38_2 1_555 1_555
C40_2 C39_2 1_555 1_555
H25_2 C40_2 1_555 1_555
C41_2 C40_2 1_555 1_555
C42_2 C37_2 1_555 1_555
H26_2 C42_2 1_555 1_555
C43_2 C41_2 1_555 1_555
C44_2 C37_2 1_555 1_555
C45_2 H27_2 1_555 1_555
C46_2 C45_2 1_555 1_555
C47_2 C46_2 1_555 1_555
C48_2 C47_2 1_555 1_555
H28_2 C48_2 1_555 1_555
C52_2 C47_2 1_555 1_555
H30_2 C52_2 1_555 1_555
C71_2 C67_2 1_555 1_555
N10_2 C39_2 1_555 1_555
N11_2 N10_2 1_555 1_555
N12_2 C46_2 1_555 1_555
O17_2 Cu8 1_555 1_555
O18_2 C43_2 1_555 1_555
O19_2 Cu8 1_555 1_555
H39_2 O19_2 1_555 1_555
H40_2 O19_2 1_555 1_555
O20_2 Cu14 1_555 1_555
H41_2 O20_2 1_555 1_555
H42_2 O20_2 1_555 1_555
O21_2 C44_2 1_555 1_555
O22_2 C44_2 1_555 1_555
O29_2 C71_2 1_555 1_555
O30_2 C71_2 1_555 1_555
Cu12 O30_2 1_555 1_555
Cu9 O14_2 1_555 1_555
Cu18 O29_2 1_555 1_555
Cu15 O13_2 1_555 1_555
Cu19_3 O10_2 1_555 1_555
Cu20_3 O8_2 1_555 1_555
O40_2 Cu14 1_555 1_555
O42_2 Cu8 1_555 1_555
O44_2 Cu14 1_555 1_555
O46_2 Cu8 1_555 1_555
C19_2 N6_2 1_555 1_555
C23_2 C24_2 1_555 1_555
C29_2 N8_2 1_555 1_555
C33_2 C34_2 1_555 1_555
N5_2 N6_2 1_555 1_555
N7_2 N9_2 1_555 1_555
C41_2 C42_2 1_555 1_555
C43_2 O17_2 1_555 1_555
C45_2 N10_2 1_555 1_555
N11_2 N12_2 1_555 1_555
O21_2 Cu19_3 1_555 1_555
O22_2 Cu20_3 1_555 1_555
Cu19_3 Cu20_3 1_555 1_555
Cu19_4 Cu20_4 1_555 1_555
Cu13 O2_2 1_555 1_555
Cu3_3 Cu4_3 1_555 1_555
Cu4_3 O6_2 1_555 1_555
C1_2 C2_2 1_555 1_555
C2_2 H1_2 1_555 1_555
C3_2 C2_2 1_555 1_555
C4_2 C3_2 1_555 1_555
H2_2 C4_2 1_555 1_555
C5_2 C4_2 1_555 1_555
C6_2 C1_2 1_555 1_555
H3_2 C6_2 1_555 1_555
C7_2 C5_2 1_555 1_555
C8_2 C1_2 1_555 1_555
C9_2 H4_2 1_555 1_555
C10_2 C9_2 1_555 1_555
C11_2 C10_2 1_555 1_555
C12_2 C11_2 1_555 1_555
H5_2 C12_2 1_555 1_555
C16_2 C11_2 1_555 1_555
H7_2 C16_2 1_555 1_555
C35_2 C31_2 1_555 1_555
N1_2 C3_2 1_555 1_555
N2_2 N1_2 1_555 1_555
N3_2 C10_2 1_555 1_555
O1_2 Cu7 1_555 1_555
O2_2 C7_2 1_555 1_555
O3_2 Cu7 1_555 1_555
H16_2 O3_2 1_555 1_555
H17_2 O3_2 1_555 1_555
O4_2 Cu13 1_555 1_555
H18_2 O4_2 1_555 1_555
H19_2 O4_2 1_555 1_555
O5_2 Cu3_3 1_555 1_555
O6_2 C8_2 1_555 1_555
O7_5 Cu3_3 1_555 1_555
O9_5 Cu4_3 1_555 1_555
H21_3 O9_5 1_555 1_555
O15_2 C35_2 1_555 1_555
O16_2 C35_2 1_555 1_555
H22_3 O7_5 1_555 1_555
C50_2 C49_2 1_555 1_555
H29_2 C50_2 1_555 1_555
C51_2 C50_2 1_555 1_555
C53_2 C49_2 1_555 1_555
C54_2 C53_2 1_555 1_555
H31_2 C54_2 1_555 1_555
C55_2 C56_2 1_555 1_555
C56_2 H32_2 1_555 1_555
C57_2 C56_2 1_555 1_555
C58_2 C57_2 1_555 1_555
H33_2 C58_2 1_555 1_555
C59_2 C58_2 1_555 1_555
C60_2 C55_2 1_555 1_555
H34_2 C60_2 1_555 1_555
C61_2 C57_2 1_555 1_555
C62_2 C59_2 1_555 1_555
C63_2 C51_2 1_555 1_555
C64_2 C63_2 1_555 1_555
C65_2 C66_2 1_555 1_555
H37_2 C68_2 1_555 1_555
C69_2 C68_2 1_555 1_555
C70_2 C65_2 1_555 1_555
H38_2 C70_2 1_555 1_555
C72_2 C69_2 1_555 1_555
N13_2 C53_2 1_555 1_555
N14_2 N13_2 1_555 1_555
N15_2 C54_2 1_555 1_555
N16_2 N17_2 1_555 1_555
N17_2 C64_2 1_555 1_555
N18_2 C63_2 1_555 1_555
O23_2 Cu4_3 1_555 1_555
O24_2 Cu3_3 1_555 1_555
O36 C61_2 1_555 1_555
O38 C61_2 1_555 1_555
O27_2 C72_2 1_555 1_555
O28_2 C72_2 1_555 1_555
Cu11 O16_2 1_555 1_555
Cu10 O28_2 1_555 1_555
Cu17 O15_2 1_555 1_555
Cu16 O27_2 1_555 1_555
O39_2 Cu13 1_555 1_555
O41_2 Cu7 1_555 1_555
O43_2 Cu13 1_555 1_555
O45_2 Cu7 1_555 1_555
C5_2 C6_2 1_555 1_555
C7_2 O1_2 1_555 1_555
C8_2 O5_2 1_555 1_555
C9_2 N1_2 1_555 1_555
N2_2 N3_2 1_555 1_555
C55_2 N15_2 1_555 1_555
C59_2 C60_2 1_555 1_555
C62_2 O23_2 1_555 1_555
C62_2 O24_2 1_555 1_555
C65_2 N17_2 1_555 1_555
C69_2 C70_2 1_555 1_555
N14_2 N15_2 1_555 1_555
N16_2 N18_2 1_555 1_555
Cu3_4 Cu4_4 1_555 1_555
O7_6 Cu3_4 1_555 1_555
H20_3 O7_6 1_555 1_555
O9_6 Cu4_4 1_555 1_555
H23_3 O9_6 1_555 1_555
O31_3 Cu3_4 1_555 1_555
O32_3 Cu4_4 1_555 1_555
O33_3 Cu4_4 1_555 1_555
O34_3 Cu3_4 1_555 1_555
O7_7 Cu19_3 1_555 1_555
O9_7 Cu20_3 1_555 1_555
H21_4 O9_7 1_555 1_555
H22_4 O7_7 1_555 1_555
O7_8 Cu19_4 1_555 1_555
H20_4 O7_8 1_555 1_555
O9_8 Cu20_4 1_555 1_555
H23_4 O9_8 1_555 1_555
O31_4 Cu19_4 1_555 1_555
O32_4 Cu20_4 1_555 1_555
O33_4 Cu20_4 1_555 1_555
O34_4 Cu19_4 1_555 1_555
O8_3 C26_3 1_555 1_555
O10_3 C26_3 1_555 1_555
Cu5_2 Cu6_2 1_555 1_555
Cu6_2 O18_3 1_555 1_555
C37_3 C38_3 1_555 1_555
C38_3 H24_3 1_555 1_555
C39_3 C38_3 1_555 1_555
C40_3 C39_3 1_555 1_555
H25_3 C40_3 1_555 1_555
C41_3 C40_3 1_555 1_555
C42_3 C37_3 1_555 1_555
H26_3 C42_3 1_555 1_555
C43_3 C41_3 1_555 1_555
C44_3 C37_3 1_555 1_555
C45_3 H27_3 1_555 1_555
C46_3 C45_3 1_555 1_555
C47_3 C46_3 1_555 1_555
C48_3 C47_3 1_555 1_555
H28_3 C48_3 1_555 1_555
C49_3 C48_3 1_555 1_555
C50_3 C49_3 1_555 1_555
H29_3 C50_3 1_555 1_555
C51_3 C50_3 1_555 1_555
C52_3 C47_3 1_555 1_555
H30_3 C52_3 1_555 1_555
C53_3 C49_3 1_555 1_555
C54_3 C53_3 1_555 1_555
H31_3 C54_3 1_555 1_555
C55_3 C56_3 1_555 1_555
C56_3 H32_3 1_555 1_555
C57_3 C56_3 1_555 1_555
C58_3 C57_3 1_555 1_555
H33_3 C58_3 1_555 1_555
C59_3 C58_3 1_555 1_555
C60_3 C55_3 1_555 1_555
H34_3 C60_3 1_555 1_555
C61_3 C57_3 1_555 1_555
C63_3 C51_3 1_555 1_555
C64_3 C63_3 1_555 1_555
H35_3 C64_3 1_555 1_555
C65_3 C66_3 1_555 1_555
C66_3 H36_3 1_555 1_555
C67_3 C66_3 1_555 1_555
C68_3 C67_3 1_555 1_555
H37_3 C68_3 1_555 1_555
C69_3 C68_3 1_555 1_555
C70_3 C65_3 1_555 1_555
H38_3 C70_3 1_555 1_555
C71_3 C67_3 1_555 1_555
C72_3 C69_3 1_555 1_555
N10_3 C39_3 1_555 1_555
N11_3 N10_3 1_555 1_555
N12_3 C46_3 1_555 1_555
N13_3 C53_3 1_555 1_555
N14_3 N13_3 1_555 1_555
N15_3 C54_3 1_555 1_555
N16_3 N17_3 1_555 1_555
N17_3 C64_3 1_555 1_555
N18_3 C63_3 1_555 1_555
O17_3 Cu5_2 1_555 1_555
O18_3 C43_3 1_555 1_555
O19_3 Cu5_2 1_555 1_555
H39_3 O19_3 1_555 1_555
H40_3 O19_3 1_555 1_555
O20_3 Cu6_2 1_555 1_555
H41_3 O20_3 1_555 1_555
H42_3 O20_3 1_555 1_555
O21_3 C44_3 1_555 1_555
O22_3 C44_3 1_555 1_555
O25_2 C61_3 1_555 1_555
O26_2 C61_3 1_555 1_555
O27_3 C72_3 1_555 1_555
O28_3 C72_3 1_555 1_555
O29_3 C71_3 1_555 1_555
O30_3 C71_3 1_555 1_555
Cu7_2 O25_2 1_555 1_555
Cu10_2 O30_3 1_555 1_555
Cu11_2 O28_3 1_555 1_555
Cu13_2 O26_2 1_555 1_555
Cu16_2 O29_3 1_555 1_555
Cu17_2 O27_3 1_555 1_555
Cu19_5 O10_3 1_555 1_555
Cu20_5 O8_3 1_555 1_555
O36_2 Cu5_2 1_555 1_555
O38_2 Cu6_2 1_555 1_555
O40_3 Cu6_2 1_555 1_555
O42_3 Cu5_2 1_555 1_555
O44_3 Cu6_2 1_555 1_555
O46_3 Cu5_2 1_555 1_555
C41_3 C42_3 1_555 1_555
C43_3 O17_3 1_555 1_555
C45_3 N10_3 1_555 1_555
C51_3 C52_3 1_555 1_555
C55_3 N15_3 1_555 1_555
C59_3 C60_3 1_555 1_555
C65_3 N17_3 1_555 1_555
C69_3 C70_3 1_555 1_555
N11_3 N12_3 1_555 1_555
N14_3 N15_3 1_555 1_555
N16_3 N18_3 1_555 1_555
O21_3 Cu19_5 1_555 1_555
O22_3 Cu20_5 1_555 1_555
Cu7_2 Cu13_2 1_555 1_555
Cu10_2 Cu16_2 1_555 1_555
Cu11_2 Cu17_2 1_555 1_555
Cu19_5 Cu20_5 1_555 1_555
Cu1_2 Cu2_2 1_555 1_555
Cu2_2 O2_3 1_555 1_555
Cu3_5 Cu4_5 1_555 1_555
Cu4_5 O6_3 1_555 1_555
C1_3 C2_3 1_555 1_555
C2_3 H1_3 1_555 1_555
C3_3 C2_3 1_555 1_555
C4_3 C3_3 1_555 1_555
H2_3 C4_3 1_555 1_555
C5_3 C4_3 1_555 1_555
C6_3 C1_3 1_555 1_555
H3_3 C6_3 1_555 1_555
C7_3 C5_3 1_555 1_555
C8_3 C1_3 1_555 1_555
C9_3 H4_3 1_555 1_555
C10_3 C9_3 1_555 1_555
C11_3 C10_3 1_555 1_555
C12_3 C11_3 1_555 1_555
H5_3 C12_3 1_555 1_555
C13_3 C12_3 1_555 1_555
C14_3 C13_3 1_555 1_555
H6_3 C14_3 1_555 1_555
C15_3 C14_3 1_555 1_555
C16_3 C11_3 1_555 1_555
H7_3 C16_3 1_555 1_555
C17_3 C13_3 1_555 1_555
C18_3 C17_3 1_555 1_555
H8_3 C18_3 1_555 1_555
C19_3 C20_3 1_555 1_555
C20_3 H9_3 1_555 1_555
C21_3 C20_3 1_555 1_555
C22_3 C21_3 1_555 1_555
H10_3 C22_3 1_555 1_555
C23_3 C22_3 1_555 1_555
C24_3 C19_3 1_555 1_555
H11_3 C24_3 1_555 1_555
C25_3 C21_3 1_555 1_555
C27_3 C15_3 1_555 1_555
C28_3 C27_3 1_555 1_555
H12_3 C28_3 1_555 1_555
C29_3 C30_3 1_555 1_555
C30_3 H13_3 1_555 1_555
C31_3 C30_3 1_555 1_555
C32_3 C31_3 1_555 1_555
H14_3 C32_3 1_555 1_555
C33_3 C32_3 1_555 1_555
C34_3 C29_3 1_555 1_555
H15_3 C34_3 1_555 1_555
C35_3 C31_3 1_555 1_555
C36_3 C33_3 1_555 1_555
N1_3 C3_3 1_555 1_555
N2_3 N1_3 1_555 1_555
N3_3 C10_3 1_555 1_555
N4_3 C17_3 1_555 1_555
N5_3 N4_3 1_555 1_555
N6_3 C18_3 1_555 1_555
N7_3 N8_3 1_555 1_555
N8_3 C28_3 1_555 1_555
N9_3 C27_3 1_555 1_555
O1_3 Cu1_2 1_555 1_555
O2_3 C7_3 1_555 1_555
O3_3 Cu1_2 1_555 1_555
H16_3 O3_3 1_555 1_555
H17_3 O3_3 1_555 1_555
O4_3 Cu2_2 1_555 1_555
H18_3 O4_3 1_555 1_555
H19_3 O4_3 1_555 1_555
O5_3 Cu3_5 1_555 1_555
O6_3 C8_3 1_555 1_555
O7_9 Cu3_5 1_555 1_555
H20_5 O7_9 1_555 1_555
O9_9 Cu4_5 1_555 1_555
H21_5 O9_9 1_555 1_555
O11_2 C25_3 1_555 1_555
O12_2 C25_3 1_555 1_555
O13_3 C36_3 1_555 1_555
O14_3 C36_3 1_555 1_555
O15_3 C35_3 1_555 1_555
O16_3 C35_3 1_555 1_555
H22_5 O7_9 1_555 1_555
H23_5 O9_9 1_555 1_555
O23_3 Cu4_5 1_555 1_555
O24_3 Cu3_5 1_555 1_555
Cu8_2 O11_2 1_555 1_555
Cu9_2 O16_3 1_555 1_555
Cu12_2 O14_3 1_555 1_555
Cu14_2 O12_2 1_555 1_555
Cu15_2 O15_3 1_555 1_555
Cu18_2 O13_3 1_555 1_555
O31_5 Cu3_5 1_555 1_555
O32_5 Cu4_5 1_555 1_555
O33_5 Cu4_5 1_555 1_555
O34_5 Cu3_5 1_555 1_555
O35_2 Cu1_2 1_555 1_555
O37_2 Cu2_2 1_555 1_555
O39_3 Cu2_2 1_555 1_555
O41_3 Cu1_2 1_555 1_555
O43_3 Cu2_2 1_555 1_555
O45_3 Cu1_2 1_555 1_555
C5_3 C6_3 1_555 1_555
C7_3 O1_3 1_555 1_555
C8_3 O5_3 1_555 1_555
C9_3 N1_3 1_555 1_555
C15_3 C16_3 1_555 1_555
C19_3 N6_3 1_555 1_555
C23_3 C24_3 1_555 1_555
C29_3 N8_3 1_555 1_555
C33_3 C34_3 1_555 1_555
N2_3 N3_3 1_555 1_555
N5_3 N6_3 1_555 1_555
N7_3 N9_3 1_555 1_555
C62_3 O23_3 1_555 1_555
C62_3 O24_3 1_555 1_555
Cu8_2 Cu14_2 1_555 1_555
Cu9_2 Cu15_2 1_555 1_555
Cu12_2 Cu18_2 1_555 1_555
O7_10 Cu19_5 1_555 1_555
H20_6 O7_10 1_555 1_555
O9_10 Cu20_5 1_555 1_555
H21_6 O9_10 1_555 1_555
H22_6 O7_10 1_555 1_555
H23_6 O9_10 1_555 1_555
O31_6 Cu19_5 1_555 1_555
O32_6 Cu20_5 1_555 1_555
O33_6 Cu20_5 1_555 1_555
O34_6 Cu19_5 1_555 1_555
O8_4 C26_4 1_555 1_555
O10_4 C26_4 1_555 1_555
Cu14_2 O18_4 1_555 1_555
C37_4 C38_4 1_555 1_555
C38_4 H24_4 1_555 1_555
C39_4 C38_4 1_555 1_555
C40_4 C39_4 1_555 1_555
H25_4 C40_4 1_555 1_555
C41_4 C40_4 1_555 1_555
C42_4 C37_4 1_555 1_555
H26_4 C42_4 1_555 1_555
C43_4 C41_4 1_555 1_555
C44_4 C37_4 1_555 1_555
C45_4 H27_4 1_555 1_555
C46_4 C45_4 1_555 1_555
C47_4 C46_4 1_555 1_555
C48_4 C47_4 1_555 1_555
H28_4 C48_4 1_555 1_555
C49_4 C48_4 1_555 1_555
C50_4 C49_4 1_555 1_555
H29_4 C50_4 1_555 1_555
C51_4 C50_4 1_555 1_555
C52_4 C47_4 1_555 1_555
H30_4 C52_4 1_555 1_555
C53_4 C49_4 1_555 1_555
C54_4 C53_4 1_555 1_555
H31_4 C54_4 1_555 1_555
C55_4 C56_4 1_555 1_555
C56_4 H32_4 1_555 1_555
C57_4 C56_4 1_555 1_555
C58_4 C57_4 1_555 1_555
H33_4 C58_4 1_555 1_555
C59_4 C58_4 1_555 1_555
C60_4 C55_4 1_555 1_555
H34_4 C60_4 1_555 1_555
C61_4 C57_4 1_555 1_555
C63_4 C51_4 1_555 1_555
C64_4 C63_4 1_555 1_555
H35_4 C64_4 1_555 1_555
C65_4 C66_4 1_555 1_555
C66_4 H36_4 1_555 1_555
C67_4 C66_4 1_555 1_555
C68_4 C67_4 1_555 1_555
H37_4 C68_4 1_555 1_555
C69_4 C68_4 1_555 1_555
C70_4 C65_4 1_555 1_555
H38_4 C70_4 1_555 1_555
C71_4 C67_4 1_555 1_555
C72_4 C69_4 1_555 1_555
N10_4 C39_4 1_555 1_555
N11_4 N10_4 1_555 1_555
N12_4 C46_4 1_555 1_555
N13_4 C53_4 1_555 1_555
N14_4 N13_4 1_555 1_555
N15_4 C54_4 1_555 1_555
N16_4 N17_4 1_555 1_555
N17_4 C64_4 1_555 1_555
N18_4 C63_4 1_555 1_555
O17_4 Cu8_2 1_555 1_555
O18_4 C43_4 1_555 1_555
O19_4 Cu8_2 1_555 1_555
H39_4 O19_4 1_555 1_555
H40_4 O19_4 1_555 1_555
O20_4 Cu14_2 1_555 1_555
H41_4 O20_4 1_555 1_555
H42_4 O20_4 1_555 1_555
O21_4 C44_4 1_555 1_555
O22_4 C44_4 1_555 1_555
O36_2 C61_4 1_555 1_555
O38_2 C61_4 1_555 1_555
O27_4 C72_4 1_555 1_555
O28_4 C72_4 1_555 1_555
O29_4 C71_4 1_555 1_555
O30_4 C71_4 1_555 1_555
Cu12_2 O30_4 1_555 1_555
Cu10_2 O28_4 1_555 1_555
Cu18_2 O29_4 1_555 1_555
Cu16_2 O27_4 1_555 1_555
Cu19_6 O10_4 1_555 1_555
Cu20_6 O8_4 1_555 1_555
O40_4 Cu14_2 1_555 1_555
O42_4 Cu8_2 1_555 1_555
O44_4 Cu14_2 1_555 1_555
O46_4 Cu8_2 1_555 1_555
C41_4 C42_4 1_555 1_555
C43_4 O17_4 1_555 1_555
C45_4 N10_4 1_555 1_555
C51_4 C52_4 1_555 1_555
C55_4 N15_4 1_555 1_555
C59_4 C60_4 1_555 1_555
C65_4 N17_4 1_555 1_555
C69_4 C70_4 1_555 1_555
N11_4 N12_4 1_555 1_555
N14_4 N15_4 1_555 1_555
N16_4 N18_4 1_555 1_555
O21_4 Cu19_6 1_555 1_555
O22_4 Cu20_6 1_555 1_555
Cu19_6 Cu20_6 1_555 1_555
Cu13_2 O2_4 1_555 1_555
Cu3_6 Cu4_6 1_555 1_555
Cu4_6 O6_4 1_555 1_555
C1_4 C2_4 1_555 1_555
C2_4 H1_4 1_555 1_555
C3_4 C2_4 1_555 1_555
C4_4 C3_4 1_555 1_555
H2_4 C4_4 1_555 1_555
C5_4 C4_4 1_555 1_555
C6_4 C1_4 1_555 1_555
H3_4 C6_4 1_555 1_555
C7_4 C5_4 1_555 1_555
C8_4 C1_4 1_555 1_555
C9_4 H4_4 1_555 1_555
C10_4 C9_4 1_555 1_555
C11_4 C10_4 1_555 1_555
C12_4 C11_4 1_555 1_555
H5_4 C12_4 1_555 1_555
C13_4 C12_4 1_555 1_555
C14_4 C13_4 1_555 1_555
H6_4 C14_4 1_555 1_555
C15_4 C14_4 1_555 1_555
C16_4 C11_4 1_555 1_555
H7_4 C16_4 1_555 1_555
C17_4 C13_4 1_555 1_555
C18_4 C17_4 1_555 1_555
H8_4 C18_4 1_555 1_555
C19_4 C20_4 1_555 1_555
C20_4 H9_4 1_555 1_555
C21_4 C20_4 1_555 1_555
C22_4 C21_4 1_555 1_555
H10_4 C22_4 1_555 1_555
C23_4 C22_4 1_555 1_555
C24_4 C19_4 1_555 1_555
H11_4 C24_4 1_555 1_555
C25_4 C21_4 1_555 1_555
C27_4 C15_4 1_555 1_555
C28_4 C27_4 1_555 1_555
H12_4 C28_4 1_555 1_555
C29_4 C30_4 1_555 1_555
C30_4 H13_4 1_555 1_555
C31_4 C30_4 1_555 1_555
C32_4 C31_4 1_555 1_555
H14_4 C32_4 1_555 1_555
C33_4 C32_4 1_555 1_555
C34_4 C29_4 1_555 1_555
H15_4 C34_4 1_555 1_555
C35_4 C31_4 1_555 1_555
C36_4 C33_4 1_555 1_555
N1_4 C3_4 1_555 1_555
N2_4 N1_4 1_555 1_555
N3_4 C10_4 1_555 1_555
N4_4 C17_4 1_555 1_555
N5_4 N4_4 1_555 1_555
N6_4 C18_4 1_555 1_555
N7_4 N8_4 1_555 1_555
N8_4 C28_4 1_555 1_555
N9_4 C27_4 1_555 1_555
O1_4 Cu7_2 1_555 1_555
O2_4 C7_4 1_555 1_555
O3_4 Cu7_2 1_555 1_555
H16_4 O3_4 1_555 1_555
H17_4 O3_4 1_555 1_555
O4_4 Cu13_2 1_555 1_555
H18_4 O4_4 1_555 1_555
H19_4 O4_4 1_555 1_555
O5_4 Cu3_6 1_555 1_555
O6_4 C8_4 1_555 1_555
O7_11 Cu3_6 1_555 1_555
H20_7 O7_11 1_555 1_555
O9_11 Cu4_6 1_555 1_555
H21_7 O9_11 1_555 1_555
O35_2 C25_4 1_555 1_555
O37_2 C25_4 1_555 1_555
O13_4 C36_4 1_555 1_555
O14_4 C36_4 1_555 1_555
O15_4 C35_4 1_555 1_555
O16_4 C35_4 1_555 1_555
H22_7 O7_11 1_555 1_555
H23_7 O9_11 1_555 1_555
O23_4 Cu4_6 1_555 1_555
O24_4 Cu3_6 1_555 1_555
Cu11_2 O16_4 1_555 1_555
Cu9_2 O14_4 1_555 1_555
Cu17_2 O15_4 1_555 1_555
Cu15_2 O13_4 1_555 1_555
O31_7 Cu3_6 1_555 1_555
O32_7 Cu4_6 1_555 1_555
O33_7 Cu4_6 1_555 1_555
O34_7 Cu3_6 1_555 1_555
O39_4 Cu13_2 1_555 1_555
O41_4 Cu7_2 1_555 1_555
O43_4 Cu13_2 1_555 1_555
O45_4 Cu7_2 1_555 1_555
C5_4 C6_4 1_555 1_555
C7_4 O1_4 1_555 1_555
C8_4 O5_4 1_555 1_555
C9_4 N1_4 1_555 1_555
C15_4 C16_4 1_555 1_555
C19_4 N6_4 1_555 1_555
C23_4 C24_4 1_555 1_555
C29_4 N8_4 1_555 1_555
C33_4 C34_4 1_555 1_555
N2_4 N3_4 1_555 1_555
N5_4 N6_4 1_555 1_555
N7_4 N9_4 1_555 1_555
C62_4 O23_4 1_555 1_555
C62_4 O24_4 1_555 1_555
O7_12 Cu19_6 1_555 1_555
H20_8 O7_12 1_555 1_555
O9_12 Cu20_6 1_555 1_555
H21_8 O9_12 1_555 1_555
H22_8 O7_12 1_555 1_555
H23_8 O9_12 1_555 1_555
O31_8 Cu19_6 1_555 1_555
O32_8 Cu20_6 1_555 1_555
O33_8 Cu20_6 1_555 1_555
O34_8 Cu19_6 1_555 1_555
C14_5 C13_5 1_555 1_555
H6_5 C14_5 1_555 1_555
C15_5 C14_5 1_555 1_555
C17_5 C13_5 1_555 1_555
C18_5 C17_5 1_555 1_555
H8_5 C18_5 1_555 1_555
C19_5 C20_5 1_555 1_555
C20_5 H9_5 1_555 1_555
C21_5 C20_5 1_555 1_555
C22_5 C21_5 1_555 1_555
H10_5 C22_5 1_555 1_555
C23_5 C22_5 1_555 1_555
C24_5 C19_5 1_555 1_555
H11_5 C24_5 1_555 1_555
C25_5 C21_5 1_555 1_555
C26_5 C23_5 1_555 1_555
C27_5 C15_5 1_555 1_555
C28_5 C27_5 1_555 1_555
C29_5 C30_5 1_555 1_555
H14_5 C32_5 1_555 1_555
C33_5 C32_5 1_555 1_555
C34_5 C29_5 1_555 1_555
H15_5 C34_5 1_555 1_555
C36_5 C33_5 1_555 1_555
N4_5 C17_5 1_555 1_555
N5_5 N4_5 1_555 1_555
N6_5 C18_5 1_555 1_555
N7_5 N8_5 1_555 1_555
N8_5 C28_5 1_555 1_555
N9_5 C27_5 1_555 1_555
O33 C26_5 1_555 1_555
O34 C26_5 1_555 1_555
O11_3 C25_5 1_555 1_555
O12_3 C25_5 1_555 1_555
O40_4 C36_5 1_555 1_555
O42_4 C36_5 1_555 1_555
Cu16_2 O18_5 1_555 1_555
C37_5 C38_5 1_555 1_555
C38_5 H24_5 1_555 1_555
C39_5 C38_5 1_555 1_555
C40_5 C39_5 1_555 1_555
H25_5 C40_5 1_555 1_555
C41_5 C40_5 1_555 1_555
C42_5 C37_5 1_555 1_555
H26_5 C42_5 1_555 1_555
C43_5 C41_5 1_555 1_555
C44_5 C37_5 1_555 1_555
C45_5 H27_5 1_555 1_555
C46_5 C45_5 1_555 1_555
C47_5 C46_5 1_555 1_555
C48_5 C47_5 1_555 1_555
H28_5 C48_5 1_555 1_555
C52_5 C47_5 1_555 1_555
H30_5 C52_5 1_555 1_555
C71_5 C67_5 1_555 1_555
N10_5 C39_5 1_555 1_555
N11_5 N10_5 1_555 1_555
N12_5 C46_5 1_555 1_555
O17_5 Cu10_2 1_555 1_555
O18_5 C43_5 1_555 1_555
O19_5 Cu10_2 1_555 1_555
H39_5 O19_5 1_555 1_555
H40_5 O19_5 1_555 1_555
O20_5 Cu16_2 1_555 1_555
H41_5 O20_5 1_555 1_555
H42_5 O20_5 1_555 1_555
O31 C44_5 1_555 1_555
O32 C44_5 1_555 1_555
O44_3 C71_5 1_555 1_555
O46_3 C71_5 1_555 1_555
Cu12_2 O11_3 1_555 1_555
Cu18_2 O12_3 1_555 1_555
O36_3 Cu10_2 1_555 1_555
O38_3 Cu16_2 1_555 1_555
C19_5 N6_5 1_555 1_555
C23_5 C24_5 1_555 1_555
C29_5 N8_5 1_555 1_555
C33_5 C34_5 1_555 1_555
N5_5 N6_5 1_555 1_555
N7_5 N9_5 1_555 1_555
C41_5 C42_5 1_555 1_555
C43_5 O17_5 1_555 1_555
C45_5 N10_5 1_555 1_555
N11_5 N12_5 1_555 1_555
Cu15_2 O2_5 1_555 1_555
C1_5 C2_5 1_555 1_555
C2_5 H1_5 1_555 1_555
C3_5 C2_5 1_555 1_555
C4_5 C3_5 1_555 1_555
H2_5 C4_5 1_555 1_555
C5_5 C4_5 1_555 1_555
C6_5 C1_5 1_555 1_555
H3_5 C6_5 1_555 1_555
C7_5 C5_5 1_555 1_555
C8_5 C1_5 1_555 1_555
C9_5 H4_5 1_555 1_555
C10_5 C9_5 1_555 1_555
C11_5 C10_5 1_555 1_555
C12_5 C11_5 1_555 1_555
H5_5 C12_5 1_555 1_555
C16_5 C11_5 1_555 1_555
H7_5 C16_5 1_555 1_555
C35_5 C31_5 1_555 1_555
N1_5 C3_5 1_555 1_555
N2_5 N1_5 1_555 1_555
N3_5 C10_5 1_555 1_555
O1_5 Cu9_2 1_555 1_555
O2_5 C7_5 1_555 1_555
O3_5 Cu9_2 1_555 1_555
H16_5 O3_5 1_555 1_555
H17_5 O3_5 1_555 1_555
O4_5 Cu15_2 1_555 1_555
H18_5 O4_5 1_555 1_555
H19_5 O4_5 1_555 1_555
O32_2 C8_5 1_555 1_555
O43_3 C35_5 1_555 1_555
O45_3 C35_5 1_555 1_555
C50_5 C49_5 1_555 1_555
H29_5 C50_5 1_555 1_555
C51_5 C50_5 1_555 1_555
C53_5 C49_5 1_555 1_555
C54_5 C53_5 1_555 1_555
H31_5 C54_5 1_555 1_555
C55_5 C56_5 1_555 1_555
C56_5 H32_5 1_555 1_555
C57_5 C56_5 1_555 1_555
C58_5 C57_5 1_555 1_555
H33_5 C58_5 1_555 1_555
C59_5 C58_5 1_555 1_555
C60_5 C55_5 1_555 1_555
H34_5 C60_5 1_555 1_555
C61_5 C57_5 1_555 1_555
C62_5 C59_5 1_555 1_555
C63_5 C51_5 1_555 1_555
C64_5 C63_5 1_555 1_555
C65_5 C66_5 1_555 1_555
H37_5 C68_5 1_555 1_555
C69_5 C68_5 1_555 1_555
C70_5 C65_5 1_555 1_555
H38_5 C70_5 1_555 1_555
C72_5 C69_5 1_555 1_555
N13_5 C53_5 1_555 1_555
N14_5 N13_5 1_555 1_555
N15_5 C54_5 1_555 1_555
N16_5 N17_5 1_555 1_555
N17_5 C64_5 1_555 1_555
N18_5 C63_5 1_555 1_555
O25_3 C61_5 1_555 1_555
O26_3 C61_5 1_555 1_555
O39_4 C72_5 1_555 1_555
O41_4 C72_5 1_555 1_555
Cu11_2 O25_3 1_555 1_555
Cu17_2 O26_3 1_555 1_555
O35_3 Cu9_2 1_555 1_555
O37_3 Cu15_2 1_555 1_555
C5_5 C6_5 1_555 1_555
C7_5 O1_5 1_555 1_555
C8_5 O31_2 1_555 1_555
C9_5 N1_5 1_555 1_555
N2_5 N3_5 1_555 1_555
C55_5 N15_5 1_555 1_555
C59_5 C60_5 1_555 1_555
C62_5 O33_2 1_555 1_555
C62_5 O34_2 1_555 1_555
C65_5 N17_5 1_555 1_555
C69_5 C70_5 1_555 1_555
N14_5 N15_5 1_555 1_555
N16_5 N18_5 1_555 1_555
Cu17_2 O2_6 1_555 1_555
C1_6 C2_6 1_555 1_555
C2_6 H1_6 1_555 1_555
C3_6 C2_6 1_555 1_555
C4_6 C3_6 1_555 1_555
H2_6 C4_6 1_555 1_555
C5_6 C4_6 1_555 1_555
C6_6 C1_6 1_555 1_555
H3_6 C6_6 1_555 1_555
C7_6 C5_6 1_555 1_555
C8_6 C1_6 1_555 1_555
C9_6 H4_6 1_555 1_555
C10_6 C9_6 1_555 1_555
C11_6 C10_6 1_555 1_555
C12_6 C11_6 1_555 1_555
H5_6 C12_6 1_555 1_555
C16_6 C11_6 1_555 1_555
H7_6 C16_6 1_555 1_555
C35_6 C31_6 1_555 1_555
N1_6 C3_6 1_555 1_555
N2_6 N1_6 1_555 1_555
N3_6 C10_6 1_555 1_555
O1_6 Cu11_2 1_555 1_555
O2_6 C7_6 1_555 1_555
O3_6 Cu11_2 1_555 1_555
H16_6 O3_6 1_555 1_555
H17_6 O3_6 1_555 1_555
O4_6 Cu17_2 1_555 1_555
H18_6 O4_6 1_555 1_555
H19_6 O4_6 1_555 1_555
O32_4 C8_6 1_555 1_555
O43_4 C35_6 1_555 1_555
O45_4 C35_6 1_555 1_555
C50_6 C49_6 1_555 1_555
H29_6 C50_6 1_555 1_555
C51_6 C50_6 1_555 1_555
C53_6 C49_6 1_555 1_555
C54_6 C53_6 1_555 1_555
H31_6 C54_6 1_555 1_555
C55_6 C56_6 1_555 1_555
C56_6 H32_6 1_555 1_555
C57_6 C56_6 1_555 1_555
C58_6 C57_6 1_555 1_555
H33_6 C58_6 1_555 1_555
C59_6 C58_6 1_555 1_555
C60_6 C55_6 1_555 1_555
H34_6 C60_6 1_555 1_555
C61_6 C57_6 1_555 1_555
C62_6 C59_6 1_555 1_555
C63_6 C51_6 1_555 1_555
C64_6 C63_6 1_555 1_555
C65_6 C66_6 1_555 1_555
H37_6 C68_6 1_555 1_555
C69_6 C68_6 1_555 1_555
C70_6 C65_6 1_555 1_555
H38_6 C70_6 1_555 1_555
C72_6 C69_6 1_555 1_555
N13_6 C53_6 1_555 1_555
N14_6 N13_6 1_555 1_555
N15_6 C54_6 1_555 1_555
N16_6 N17_6 1_555 1_555
N17_6 C64_6 1_555 1_555
N18_6 C63_6 1_555 1_555
O36_3 C61_6 1_555 1_555
O38_3 C61_6 1_555 1_555
O40_3 C72_6 1_555 1_555
O42_3 C72_6 1_555 1_555
C5_6 C6_6 1_555 1_555
C7_6 O1_6 1_555 1_555
C8_6 O31_4 1_555 1_555
C9_6 N1_6 1_555 1_555
N2_6 N3_6 1_555 1_555
C55_6 N15_6 1_555 1_555
C59_6 C60_6 1_555 1_555
C62_6 O33_4 1_555 1_555
C62_6 O34_4 1_555 1_555
C65_6 N17_6 1_555 1_555
C69_6 C70_6 1_555 1_555
N14_6 N15_6 1_555 1_555
N16_6 N18_6 1_555 1_555
C14_6 C13_6 1_555 1_555
H6_6 C14_6 1_555 1_555
C15_6 C14_6 1_555 1_555
C17_6 C13_6 1_555 1_555
C18_6 C17_6 1_555 1_555
H8_6 C18_6 1_555 1_555
C19_6 C20_6 1_555 1_555
C20_6 H9_6 1_555 1_555
C21_6 C20_6 1_555 1_555
C22_6 C21_6 1_555 1_555
H10_6 C22_6 1_555 1_555
C23_6 C22_6 1_555 1_555
C24_6 C19_6 1_555 1_555
H11_6 C24_6 1_555 1_555
C25_6 C21_6 1_555 1_555
C26_6 C23_6 1_555 1_555
C27_6 C15_6 1_555 1_555
C28_6 C27_6 1_555 1_555
C29_6 C30_6 1_555 1_555
H14_6 C32_6 1_555 1_555
C33_6 C32_6 1_555 1_555
C34_6 C29_6 1_555 1_555
H15_6 C34_6 1_555 1_555
C36_6 C33_6 1_555 1_555
N4_6 C17_6 1_555 1_555
N5_6 N4_6 1_555 1_555
N6_6 C18_6 1_555 1_555
N7_6 N8_6 1_555 1_555
N8_6 C28_6 1_555 1_555
N9_6 C27_6 1_555 1_555
O33_3 C26_6 1_555 1_555
O34_3 C26_6 1_555 1_555
O35_3 C25_6 1_555 1_555
O37_3 C25_6 1_555 1_555
O39_3 C36_6 1_555 1_555
O41_3 C36_6 1_555 1_555
Cu18_2 O18_6 1_555 1_555
C37_6 C38_6 1_555 1_555
C38_6 H24_6 1_555 1_555
C39_6 C38_6 1_555 1_555
C40_6 C39_6 1_555 1_555
H25_6 C40_6 1_555 1_555
C41_6 C40_6 1_555 1_555
C42_6 C37_6 1_555 1_555
H26_6 C42_6 1_555 1_555
C43_6 C41_6 1_555 1_555
C44_6 C37_6 1_555 1_555
C45_6 H27_6 1_555 1_555
C46_6 C45_6 1_555 1_555
C47_6 C46_6 1_555 1_555
C48_6 C47_6 1_555 1_555
H28_6 C48_6 1_555 1_555
C52_6 C47_6 1_555 1_555
H30_6 C52_6 1_555 1_555
C71_6 C67_6 1_555 1_555
N10_6 C39_6 1_555 1_555
N11_6 N10_6 1_555 1_555
N12_6 C46_6 1_555 1_555
O17_6 Cu12_2 1_555 1_555
O18_6 C43_6 1_555 1_555
O19_6 Cu12_2 1_555 1_555
H39_6 O19_6 1_555 1_555
H40_6 O19_6 1_555 1_555
O20_6 Cu18_2 1_555 1_555
H41_6 O20_6 1_555 1_555
H42_6 O20_6 1_555 1_555
O31_3 C44_6 1_555 1_555
O32_3 C44_6 1_555 1_555
O44_4 C71_6 1_555 1_555
O46_4 C71_6 1_555 1_555
C19_6 N6_6 1_555 1_555
C23_6 C24_6 1_555 1_555
C29_6 N8_6 1_555 1_555
C33_6 C34_6 1_555 1_555
N5_6 N6_6 1_555 1_555
N7_6 N9_6 1_555 1_555
C41_6 C42_6 1_555 1_555
C43_6 O17_6 1_555 1_555
C45_6 N10_6 1_555 1_555
N11_6 N12_6 1_555 1_555
Cu15 O2_7 1_555 1_555
C1_7 C2_7 1_555 1_555
C2_7 H1_7 1_555 1_555
C3_7 C2_7 1_555 1_555
C4_7 C3_7 1_555 1_555
H2_7 C4_7 1_555 1_555
C5_7 C4_7 1_555 1_555
C6_7 C1_7 1_555 1_555
H3_7 C6_7 1_555 1_555
C7_7 C5_7 1_555 1_555
C8_7 C1_7 1_555 1_555
C9_7 H4_7 1_555 1_555
C10_7 C9_7 1_555 1_555
C11_7 C10_7 1_555 1_555
C12_7 C11_7 1_555 1_555
H5_7 C12_7 1_555 1_555
C13_7 C12_7 1_555 1_555
C14_7 C13_7 1_555 1_555
H6_7 C14_7 1_555 1_555
C15_7 C14_7 1_555 1_555
C16_7 C11_7 1_555 1_555
H7_7 C16_7 1_555 1_555
C17_7 C13_7 1_555 1_555
C18_7 C17_7 1_555 1_555
H8_7 C18_7 1_555 1_555
C19_7 C20_7 1_555 1_555
C20_7 H9_7 1_555 1_555
C21_7 C20_7 1_555 1_555
C22_7 C21_7 1_555 1_555
H10_7 C22_7 1_555 1_555
C23_7 C22_7 1_555 1_555
C24_7 C19_7 1_555 1_555
H11_7 C24_7 1_555 1_555
C25_7 C21_7 1_555 1_555
C27_7 C15_7 1_555 1_555
C28_7 C27_7 1_555 1_555
H12_7 C28_7 1_555 1_555
C29_7 C30_7 1_555 1_555
C30_7 H13_7 1_555 1_555
C31_7 C30_7 1_555 1_555
C32_7 C31_7 1_555 1_555
H14_7 C32_7 1_555 1_555
C33_7 C32_7 1_555 1_555
C34_7 C29_7 1_555 1_555
H15_7 C34_7 1_555 1_555
C35_7 C31_7 1_555 1_555
C36_7 C33_7 1_555 1_555
N1_7 C3_7 1_555 1_555
N2_7 N1_7 1_555 1_555
N3_7 C10_7 1_555 1_555
N4_7 C17_7 1_555 1_555
N5_7 N4_7 1_555 1_555
N6_7 C18_7 1_555 1_555
N7_7 N8_7 1_555 1_555
N8_7 C28_7 1_555 1_555
N9_7 C27_7 1_555 1_555
O1_7 Cu9 1_555 1_555
O2_7 C7_7 1_555 1_555
O3_7 Cu9 1_555 1_555
H16_7 O3_7 1_555 1_555
H17_7 O3_7 1_555 1_555
O4_7 Cu15 1_555 1_555
H18_7 O4_7 1_555 1_555
H19_7 O4_7 1_555 1_555
O32_6 C8_7 1_555 1_555
O11_4 C25_7 1_555 1_555
O12_4 C25_7 1_555 1_555
O40_2 C36_7 1_555 1_555
O42_2 C36_7 1_555 1_555
O43 C35_7 1_555 1_555
O45 C35_7 1_555 1_555
Cu12 O11_4 1_555 1_555
Cu18 O12_4 1_555 1_555
O35_4 Cu9 1_555 1_555
O37_4 Cu15 1_555 1_555
C5_7 C6_7 1_555 1_555
C7_7 O1_7 1_555 1_555
C8_7 O31_6 1_555 1_555
C9_7 N1_7 1_555 1_555
C15_7 C16_7 1_555 1_555
C19_7 N6_7 1_555 1_555
C23_7 C24_7 1_555 1_555
C29_7 N8_7 1_555 1_555
C33_7 C34_7 1_555 1_555
N2_7 N3_7 1_555 1_555
N5_7 N6_7 1_555 1_555
N7_7 N9_7 1_555 1_555
C62_7 O33_6 1_555 1_555
C62_7 O34_6 1_555 1_555
O33_5 C26_7 1_555 1_555
O34_5 C26_7 1_555 1_555
Cu16 O18_7 1_555 1_555
C37_7 C38_7 1_555 1_555
C38_7 H24_7 1_555 1_555
C39_7 C38_7 1_555 1_555
C40_7 C39_7 1_555 1_555
H25_7 C40_7 1_555 1_555
C41_7 C40_7 1_555 1_555
C42_7 C37_7 1_555 1_555
H26_7 C42_7 1_555 1_555
C43_7 C41_7 1_555 1_555
C44_7 C37_7 1_555 1_555
C45_7 H27_7 1_555 1_555
C46_7 C45_7 1_555 1_555
C47_7 C46_7 1_555 1_555
C48_7 C47_7 1_555 1_555
H28_7 C48_7 1_555 1_555
C49_7 C48_7 1_555 1_555
C50_7 C49_7 1_555 1_555
H29_7 C50_7 1_555 1_555
C51_7 C50_7 1_555 1_555
C52_7 C47_7 1_555 1_555
H30_7 C52_7 1_555 1_555
C53_7 C49_7 1_555 1_555
C54_7 C53_7 1_555 1_555
H31_7 C54_7 1_555 1_555
C55_7 C56_7 1_555 1_555
C56_7 H32_7 1_555 1_555
C57_7 C56_7 1_555 1_555
C58_7 C57_7 1_555 1_555
H33_7 C58_7 1_555 1_555
C59_7 C58_7 1_555 1_555
C60_7 C55_7 1_555 1_555
H34_7 C60_7 1_555 1_555
C61_7 C57_7 1_555 1_555
C63_7 C51_7 1_555 1_555
C64_7 C63_7 1_555 1_555
H35_7 C64_7 1_555 1_555
C65_7 C66_7 1_555 1_555
C66_7 H36_7 1_555 1_555
C67_7 C66_7 1_555 1_555
C68_7 C67_7 1_555 1_555
H37_7 C68_7 1_555 1_555
C69_7 C68_7 1_555 1_555
C70_7 C65_7 1_555 1_555
H38_7 C70_7 1_555 1_555
C71_7 C67_7 1_555 1_555
C72_7 C69_7 1_555 1_555
N10_7 C39_7 1_555 1_555
N11_7 N10_7 1_555 1_555
N12_7 C46_7 1_555 1_555
N13_7 C53_7 1_555 1_555
N14_7 N13_7 1_555 1_555
N15_7 C54_7 1_555 1_555
N16_7 N17_7 1_555 1_555
N17_7 C64_7 1_555 1_555
N18_7 C63_7 1_555 1_555
O17_7 Cu10 1_555 1_555
O18_7 C43_7 1_555 1_555
O19_7 Cu10 1_555 1_555
H39_7 O19_7 1_555 1_555
H40_7 O19_7 1_555 1_555
O20_7 Cu16 1_555 1_555
H41_7 O20_7 1_555 1_555
H42_7 O20_7 1_555 1_555
O31_5 C44_7 1_555 1_555
O32_5 C44_7 1_555 1_555
O25_4 C61_7 1_555 1_555
O26_4 C61_7 1_555 1_555
O39_2 C72_7 1_555 1_555
O41_2 C72_7 1_555 1_555
O44 C71_7 1_555 1_555
O46 C71_7 1_555 1_555
Cu11 O25_4 1_555 1_555
Cu17 O26_4 1_555 1_555
O36_4 Cu10 1_555 1_555
O38_4 Cu16 1_555 1_555
C41_7 C42_7 1_555 1_555
C43_7 O17_7 1_555 1_555
C45_7 N10_7 1_555 1_555
C51_7 C52_7 1_555 1_555
C55_7 N15_7 1_555 1_555
C59_7 C60_7 1_555 1_555
C65_7 N17_7 1_555 1_555
C69_7 C70_7 1_555 1_555
N11_7 N12_7 1_555 1_555
N14_7 N15_7 1_555 1_555
N16_7 N18_7 1_555 1_555
Cu17 O2_8 1_555 1_555
C1_8 C2_8 1_555 1_555
C2_8 H1_8 1_555 1_555
C3_8 C2_8 1_555 1_555
C4_8 C3_8 1_555 1_555
H2_8 C4_8 1_555 1_555
C5_8 C4_8 1_555 1_555
C6_8 C1_8 1_555 1_555
H3_8 C6_8 1_555 1_555
C7_8 C5_8 1_555 1_555
C8_8 C1_8 1_555 1_555
C9_8 H4_8 1_555 1_555
C10_8 C9_8 1_555 1_555
C11_8 C10_8 1_555 1_555
C12_8 C11_8 1_555 1_555
H5_8 C12_8 1_555 1_555
C13_8 C12_8 1_555 1_555
C14_8 C13_8 1_555 1_555
H6_8 C14_8 1_555 1_555
C15_8 C14_8 1_555 1_555
C16_8 C11_8 1_555 1_555
H7_8 C16_8 1_555 1_555
C17_8 C13_8 1_555 1_555
C18_8 C17_8 1_555 1_555
H8_8 C18_8 1_555 1_555
C19_8 C20_8 1_555 1_555
C20_8 H9_8 1_555 1_555
C21_8 C20_8 1_555 1_555
C22_8 C21_8 1_555 1_555
H10_8 C22_8 1_555 1_555
C23_8 C22_8 1_555 1_555
C24_8 C19_8 1_555 1_555
H11_8 C24_8 1_555 1_555
C25_8 C21_8 1_555 1_555
C27_8 C15_8 1_555 1_555
C28_8 C27_8 1_555 1_555
H12_8 C28_8 1_555 1_555
C29_8 C30_8 1_555 1_555
C30_8 H13_8 1_555 1_555
C31_8 C30_8 1_555 1_555
C32_8 C31_8 1_555 1_555
H14_8 C32_8 1_555 1_555
C33_8 C32_8 1_555 1_555
C34_8 C29_8 1_555 1_555
H15_8 C34_8 1_555 1_555
C35_8 C31_8 1_555 1_555
C36_8 C33_8 1_555 1_555
N1_8 C3_8 1_555 1_555
N2_8 N1_8 1_555 1_555
N3_8 C10_8 1_555 1_555
N4_8 C17_8 1_555 1_555
N5_8 N4_8 1_555 1_555
N6_8 C18_8 1_555 1_555
N7_8 N8_8 1_555 1_555
N8_8 C28_8 1_555 1_555
N9_8 C27_8 1_555 1_555
O1_8 Cu11 1_555 1_555
O2_8 C7_8 1_555 1_555
O3_8 Cu11 1_555 1_555
H16_8 O3_8 1_555 1_555
H17_8 O3_8 1_555 1_555
O4_8 Cu17 1_555 1_555
H18_8 O4_8 1_555 1_555
H19_8 O4_8 1_555 1_555
O32_8 C8_8 1_555 1_555
O35_4 C25_8 1_555 1_555
O37_4 C25_8 1_555 1_555
O39 C36_8 1_555 1_555
O41 C36_8 1_555 1_555
O43_2 C35_8 1_555 1_555
O45_2 C35_8 1_555 1_555
C5_8 C6_8 1_555 1_555
C7_8 O1_8 1_555 1_555
C8_8 O31_8 1_555 1_555
C9_8 N1_8 1_555 1_555
C15_8 C16_8 1_555 1_555
C19_8 N6_8 1_555 1_555
C23_8 C24_8 1_555 1_555
C29_8 N8_8 1_555 1_555
C33_8 C34_8 1_555 1_555
N2_8 N3_8 1_555 1_555
N5_8 N6_8 1_555 1_555
N7_8 N9_8 1_555 1_555
C62_8 O33_8 1_555 1_555
C62_8 O34_8 1_555 1_555
O33_7 C26_8 1_555 1_555
O34_7 C26_8 1_555 1_555
Cu18 O18_8 1_555 1_555
C37_8 C38_8 1_555 1_555
C38_8 H24_8 1_555 1_555
C39_8 C38_8 1_555 1_555
C40_8 C39_8 1_555 1_555
H25_8 C40_8 1_555 1_555
C41_8 C40_8 1_555 1_555
C42_8 C37_8 1_555 1_555
H26_8 C42_8 1_555 1_555
C43_8 C41_8 1_555 1_555
C44_8 C37_8 1_555 1_555
C45_8 H27_8 1_555 1_555
C46_8 C45_8 1_555 1_555
C47_8 C46_8 1_555 1_555
C48_8 C47_8 1_555 1_555
H28_8 C48_8 1_555 1_555
C49_8 C48_8 1_555 1_555
C50_8 C49_8 1_555 1_555
H29_8 C50_8 1_555 1_555
C51_8 C50_8 1_555 1_555
C52_8 C47_8 1_555 1_555
H30_8 C52_8 1_555 1_555
C53_8 C49_8 1_555 1_555
C54_8 C53_8 1_555 1_555
H31_8 C54_8 1_555 1_555
C55_8 C56_8 1_555 1_555
C56_8 H32_8 1_555 1_555
C57_8 C56_8 1_555 1_555
C58_8 C57_8 1_555 1_555
H33_8 C58_8 1_555 1_555
C59_8 C58_8 1_555 1_555
C60_8 C55_8 1_555 1_555
H34_8 C60_8 1_555 1_555
C61_8 C57_8 1_555 1_555
C63_8 C51_8 1_555 1_555
C64_8 C63_8 1_555 1_555
H35_8 C64_8 1_555 1_555
C65_8 C66_8 1_555 1_555
C66_8 H36_8 1_555 1_555
C67_8 C66_8 1_555 1_555
C68_8 C67_8 1_555 1_555
H37_8 C68_8 1_555 1_555
C69_8 C68_8 1_555 1_555
C70_8 C65_8 1_555 1_555
H38_8 C70_8 1_555 1_555
C71_8 C67_8 1_555 1_555
C72_8 C69_8 1_555 1_555
N10_8 C39_8 1_555 1_555
N11_8 N10_8 1_555 1_555
N12_8 C46_8 1_555 1_555
N13_8 C53_8 1_555 1_555
N14_8 N13_8 1_555 1_555
N15_8 C54_8 1_555 1_555
N16_8 N17_8 1_555 1_555
N17_8 C64_8 1_555 1_555
N18_8 C63_8 1_555 1_555
O17_8 Cu12 1_555 1_555
O18_8 C43_8 1_555 1_555
O19_8 Cu12 1_555 1_555
H39_8 O19_8 1_555 1_555
H40_8 O19_8 1_555 1_555
O20_8 Cu18 1_555 1_555
H41_8 O20_8 1_555 1_555
H42_8 O20_8 1_555 1_555
O31_7 C44_8 1_555 1_555
O32_7 C44_8 1_555 1_555
O36_4 C61_8 1_555 1_555
O38_4 C61_8 1_555 1_555
O40 C72_8 1_555 1_555
O42 C72_8 1_555 1_555
O44_2 C71_8 1_555 1_555
O46_2 C71_8 1_555 1_555
C41_8 C42_8 1_555 1_555
C43_8 O17_8 1_555 1_555
C45_8 N10_8 1_555 1_555
C51_8 C52_8 1_555 1_555
C55_8 N15_8 1_555 1_555
C59_8 C60_8 1_555 1_555
C65_8 N17_8 1_555 1_555
C69_8 C70_8 1_555 1_555
N11_8 N12_8 1_555 1_555
N14_8 N15_8 1_555 1_555
N16_8 N18_8 1_555 1_555

#END
