
###############################################################################
#
# This file contains modified crystal structure data generated from the
# MOF subset of the Cambridge Structural Database (CSD) v543 
# hosted by the Cambridge Crystallographic Data Centre (CCDC).
#
# This work is licensed under the Creative Commons
# Attribution-NonCommercial-ShareAlike 4.0 International License.
# To view a copy of this license, visit
# http://creativecommons.org/licenses/by-nc-sa/4.0/
# or send a letter to
# Creative Commons, PO Box 1866, Mountain View, CA 94042, USA.
#
# CIF created using the CSD Python API on 29 September 2022
# The structure has been converted into the P1 space group
# The structure has a 3D framework
# The original CSD entry REWNEO is in the tetragonal crystal system
# The framework has been calculated to contain at least 10.0% void space
# The void calculation uses a probe of radius 1.32A, grid spacing 0.4
#
###############################################################################

data_REWNEO
_chemical_formula_moiety         '(C576 H336 Cu56 N144 O240)n'
_symmetry_cell_setting           triclinic
_symmetry_space_group_name_H-M   'P 1'
_symmetry_Int_Tables_number      1
_space_group_name_Hall           'P 1'
loop_
_symmetry_equiv_pos_site_id
_symmetry_equiv_pos_as_xyz
1 x,y,z
_cell_length_a                   31.3109(11)
_cell_length_b                   31.3109(11)
_cell_length_c                   44.807(3)
_cell_angle_alpha                90
_cell_angle_beta                 90
_cell_angle_gamma                90
_cell_volume                     43927.5
loop_
_atom_site_label
_atom_site_type_symbol
_atom_site_fract_x
_atom_site_fract_y
_atom_site_fract_z
O17 O 0.09874(17) 0.8734(2) 0.34842(15)
O18 O 0.13928(18) 0.8482(2) 0.31220(12)
O21 O 0.30332(19) 0.58932(19) 0.10981(14)
O22 O 0.25991(19) 0.6249(2) 0.14197(15)
O29 O 0.2377(2) 0.50335(19) 0.03027(14)
O30 O 0.16577(18) 0.49468(18) 0.02982(14)
N10 N 0.0354(3) 0.7744(4) 0.2410(2)
N11 N 0.0762(3) 0.7534(6) 0.2369(3)
N12 N 0.0660(3) 0.7422(6) 0.2077(3)
N13 N 0.0485(4) 0.6314(6) 0.0886(3)
N14 N 0.0831(4) 0.6151(6) 0.0762(3)
N15 N 0.1121(3) 0.6124(4) 0.0985(3)
C37 C 0.1030(3) 0.8548(3) 0.3257(2)
C38 C 0.0639(3) 0.8342(4) 0.3084(2)
C39 C 0.0689(3) 0.8160(3) 0.2830(2)
H28 H 0.0960 0.8142 0.2740
C40 C 0.0342(4) 0.7994(5) 0.2696(3)
C41 C 0.0079(3) 0.7626(4) 0.2237(2)
C42 C 0.0315(3) 0.7404(5) 0.2001(3)
C43 C 0.0143(4) 0.7237(6) 0.1728(3)
C47 C 0.0275(4) 0.6665(7) 0.1341(3)
C48 C 0.0431(3) 0.6972(4) 0.1565(3)
H32 H 0.0726 0.6993 0.1602
C49 C 0.0535(4) 0.6443(5) 0.1155(4)
C50 C 0.1026(4) 0.6368(5) 0.1205(3)
H33 H 0.1203 0.6475 0.1357
C51 C 0.1493(3) 0.5930(4) 0.0900(3)
C52 C 0.1881(3) 0.6073(3) 0.1081(3)
H34 H 0.1856 0.6282 0.1230
C53 C 0.2286(3) 0.5877(3) 0.1015(2)
C54 C 0.2293(3) 0.5616(3) 0.0790(2)
H35 H 0.2566 0.5554 0.0715
C55 C 0.1953(3) 0.5412(4) 0.0643(2)
C56 C 0.1558(3) 0.5650(4) 0.0687(3)
H36 H 0.1333 0.5600 0.0553
C57 C 0.1999(3) 0.5102(3) 0.0407(2)
C67 C 0.2627(3) 0.6001(3) 0.1181(2)
C69 C 0.0228(3) 0.8431(4) 0.3210(3)
H41 H 0.0196 0.8623 0.3369
Cu7 Cu 0.35505(4) 0.60495(4) 0.12720(3)
Cu10 Cu 0.14495(4) 0.89505(4) 0.37280(3)
Cu11 Cu 0.30609(4) 0.64132(4) 0.16816(3)
Cu14 Cu 0.19391(4) 0.85868(4) 0.33184(3)
Cu17 Cu 0.25052(5) 0.46148(5) 0.0000
Cu20 Cu 0.16650(5) 0.44979(5) 0.0000
Cu17_2 Cu 0.25052(5) 0.46148(5) 1.0000
Cu20_2 Cu 0.16650(5) 0.44979(5) 1.0000
Cu1 Cu 0.64495(4) 0.39505(4) 0.12720(3)
Cu2 Cu 0.69391(4) 0.35868(4) 0.16816(3)
Cu3 Cu 0.53852(5) 0.25052(5) 0.0000
Cu4 Cu 0.55021(5) 0.16650(5) 0.0000
O3 O 0.64814(18) 0.33936(18) 0.10668(14)
O4 O 0.6871(2) 0.30753(18) 0.14342(14)
O7 O 0.85044(17) 0.05590(17) 0.34765(14)
O8 O 0.8058(2) 0.08476(19) 0.31253(14)
O9 O 0.6048(3) 0.4251(3) 0.09514(16)
H1 H 0.6199 0.4400 0.0793
H2 H 0.5855 0.4064 0.0842
O10 O 0.7321(3) 0.3235(2) 0.2011(2)
H3 H 0.7166 0.3038 0.2093
H4 H 0.7538 0.3116 0.1924
O11 O 0.5836(2) 0.25202(18) 0.03033(14)
O12 O 0.5925(2) 0.1790(2) 0.03090(14)
O15 O 0.5282(3) 0.3213(3) 0.0000
H5 H 0.5328 0.3309 0.0170
O16 O 0.5614(3) 0.0983(3) 0.0000
N7 N 0.6894(4) 0.1514(3) 0.1160(3)
N8 N 0.7209(5) 0.1563(4) 0.1368(3)
N9 N 0.7282(5) 0.1137(3) 0.1443(3)
H8 H 0.7668 0.0218 0.2251
C8 C 0.7180(5) 0.0304(4) 0.1678(3)
H9 H 0.7252 0.0498 0.1830
C9 C 0.7037(7) 0.0441(4) 0.1440(4)
C10 C 0.6707(7) 0.0127(4) 0.1276(3)
H10 H 0.6534 0.0240 0.1124
C22 C 0.6611(4) 0.3076(3) 0.1196(2)
C23 C 0.6596(3) 0.2651(3) 0.1050(2)
C24 C 0.6359(3) 0.2616(3) 0.0802(2)
H16 H 0.6245 0.2863 0.0713
C25 C 0.6277(3) 0.2205(3) 0.0670(2)
C26 C 0.6471(3) 0.1874(3) 0.0790(3)
H17 H 0.6466 0.1614 0.0684
C27 C 0.6680(5) 0.1884(3) 0.1060(3)
C28 C 0.6781(5) 0.2303(3) 0.1169(3)
H18 H 0.6978 0.2335 0.1326
C29 C 0.6025(3) 0.2155(3) 0.0417(2)
C30 C 0.6718(6) 0.1112(3) 0.1162(3)
H19 H 0.6466 0.1006 0.1075
C32 C 0.7040(6) 0.0903(4) 0.1339(4)
C34 C 0.8229(3) 0.0111(3) 0.3091(2)
C35 C 0.8022(4) 0.0084(4) 0.2822(3)
H21 H 0.7906 0.0324 0.2726
C36 C 0.8274(3) 0.0518(3) 0.3241(2)
H23 H 0.5495 0.0874 0.0147
Cu8 Cu 0.85505(4) 0.10495(4) 0.37280(3)
Cu12 Cu 0.80609(4) 0.14132(4) 0.33184(3)
O32 O 0.59874(17) 0.3734(2) 0.15158(15)
O34 O 0.63928(18) 0.3482(2) 0.18780(12)
O35 O 0.69668(19) 0.41068(19) 0.10981(14)
O36 O 0.74009(19) 0.3751(2) 0.14197(15)
O37 O 0.64956(17) 0.44410(17) 0.15235(14)
O39 O 0.6942(2) 0.41524(19) 0.18747(14)
O43 O 0.49665(19) 0.2377(2) 0.03027(14)
O45 O 0.50532(18) 0.16577(18) 0.02982(14)
Cu3_2 Cu 0.53852(5) 0.25052(5) 1.0000
Cu4_2 Cu 0.55021(5) 0.16650(5) 1.0000
O15_2 O 0.5282(3) 0.3213(3) 1.0000
O16_2 O 0.5614(3) 0.0983(3) 1.0000
H6 H 0.5495 0.0874 0.9853
H22 H 0.5328 0.3309 0.9830
O41 O 0.5836(2) 0.25202(18) 0.96967(14)
O42 O 0.5925(2) 0.1790(2) 0.96910(14)
O44 O 0.49665(19) 0.2377(2) 0.96973(14)
O46 O 0.50532(18) 0.16577(18) 0.97018(14)
O1 O 0.8734(2) 0.90126(17) 0.34842(15)
O2 O 0.8482(2) 0.86072(18) 0.31220(12)
O5 O 0.58932(19) 0.69668(19) 0.10981(14)
O6 O 0.6249(2) 0.74009(19) 0.14197(15)
O13 O 0.50335(19) 0.7623(2) 0.03027(14)
O14 O 0.49468(18) 0.83423(18) 0.02982(14)
N1 N 0.7744(4) 0.9646(3) 0.2410(2)
N2 N 0.7534(6) 0.9238(3) 0.2369(3)
N3 N 0.7422(6) 0.9340(3) 0.2077(3)
N4 N 0.6314(6) 0.9515(4) 0.0886(3)
N5 N 0.6151(6) 0.9169(4) 0.0762(3)
N6 N 0.6124(4) 0.8879(3) 0.0985(3)
C1 C 0.8548(3) 0.8970(3) 0.3257(2)
C2 C 0.8342(4) 0.9361(3) 0.3084(2)
C3 C 0.8160(3) 0.9311(3) 0.2830(2)
H7 H 0.8142 0.9040 0.2740
C4 C 0.7994(5) 0.9658(4) 0.2696(3)
C5 C 0.7626(4) 0.9921(3) 0.2237(2)
C6 C 0.7404(5) 0.9685(3) 0.2001(3)
C7 C 0.7237(6) 0.9857(4) 0.1728(3)
C11 C 0.6665(7) 0.9725(4) 0.1341(3)
C12 C 0.6972(4) 0.9569(3) 0.1565(3)
H11 H 0.6993 0.9274 0.1602
C13 C 0.6443(5) 0.9465(4) 0.1155(4)
C14 C 0.6368(5) 0.8974(4) 0.1205(3)
H12 H 0.6475 0.8797 0.1357
C15 C 0.5930(4) 0.8507(3) 0.0900(3)
C16 C 0.6073(3) 0.8119(3) 0.1081(3)
H13 H 0.6282 0.8144 0.1230
C17 C 0.5877(3) 0.7714(3) 0.1015(2)
C18 C 0.5616(3) 0.7707(3) 0.0790(2)
H14 H 0.5554 0.7434 0.0715
C19 C 0.5412(4) 0.8047(3) 0.0643(2)
C20 C 0.5650(4) 0.8442(3) 0.0687(3)
H15 H 0.5600 0.8667 0.0553
C21 C 0.5102(3) 0.8001(3) 0.0407(2)
C31 C 0.6001(3) 0.7373(3) 0.1181(2)
C33 C 0.8431(4) 0.9772(3) 0.3210(3)
H20 H 0.8623 0.9804 0.3369
Cu5 Cu 0.60495(4) 0.64495(4) 0.12720(3)
Cu6 Cu 0.64132(4) 0.69391(4) 0.16816(3)
O19 O 0.66064(18) 0.64814(18) 0.10668(14)
O20 O 0.69247(18) 0.6871(2) 0.14342(14)
O23 O 0.94410(17) 0.85044(17) 0.34765(14)
O24 O 0.91524(19) 0.8058(2) 0.31253(14)
O25 O 0.5749(3) 0.6048(3) 0.09514(16)
H24 H 0.5600 0.6199 0.0793
H25 H 0.5936 0.5855 0.0842
O26 O 0.6765(2) 0.7321(3) 0.2011(2)
H26 H 0.6962 0.7166 0.2093
H27 H 0.6884 0.7538 0.1924
O27 O 0.74798(18) 0.5836(2) 0.03033(14)
O28 O 0.8210(2) 0.5925(2) 0.03090(14)
N16 N 0.8486(3) 0.6894(4) 0.1160(3)
N17 N 0.8437(4) 0.7209(5) 0.1368(3)
N18 N 0.8863(3) 0.7282(5) 0.1443(3)
H29 H 0.9782 0.7668 0.2251
C44 C 0.9696(4) 0.7180(5) 0.1678(3)
H30 H 0.9502 0.7252 0.1830
C45 C 0.9559(4) 0.7037(7) 0.1440(4)
C46 C 0.9873(4) 0.6707(7) 0.1276(3)
H31 H 0.9760 0.6534 0.1124
C58 C 0.6924(3) 0.6611(4) 0.1196(2)
C59 C 0.7349(3) 0.6596(3) 0.1050(2)
C60 C 0.7384(3) 0.6359(3) 0.0802(2)
H37 H 0.7137 0.6245 0.0713
C61 C 0.7795(3) 0.6277(3) 0.0670(2)
C62 C 0.8126(3) 0.6471(3) 0.0790(3)
H38 H 0.8386 0.6466 0.0684
C63 C 0.8116(3) 0.6680(5) 0.1060(3)
C64 C 0.7697(3) 0.6781(5) 0.1169(3)
H39 H 0.7665 0.6978 0.1326
C65 C 0.7845(3) 0.6025(3) 0.0417(2)
C66 C 0.8888(3) 0.6718(6) 0.1162(3)
H40 H 0.8994 0.6466 0.1075
C68 C 0.9097(4) 0.7040(6) 0.1339(4)
C70 C 0.9889(3) 0.8229(3) 0.3091(2)
C71 C 0.9916(4) 0.8022(4) 0.2822(3)
H42 H 0.9676 0.7906 0.2726
C72 C 0.9482(3) 0.8274(3) 0.3241(2)
Cu9 Cu 0.89505(4) 0.85505(4) 0.37280(3)
Cu13 Cu 0.85868(4) 0.80609(4) 0.33184(3)
Cu15 Cu 0.74948(5) 0.53852(5) 0.0000
Cu16 Cu 0.46148(5) 0.74948(5) 0.0000
Cu18 Cu 0.83350(5) 0.55021(5) 0.0000
Cu19 Cu 0.44979(5) 0.83350(5) 0.0000
O31 O 0.6266(2) 0.59874(17) 0.15158(15)
O33 O 0.6518(2) 0.63928(18) 0.18780(12)
O38 O 0.55590(17) 0.64956(17) 0.15235(14)
O40 O 0.58476(19) 0.6942(2) 0.18747(14)
Cu15_2 Cu 0.74948(5) 0.53852(5) 1.0000
Cu16_2 Cu 0.46148(5) 0.74948(5) 1.0000
Cu18_2 Cu 0.83350(5) 0.55021(5) 1.0000
Cu19_2 Cu 0.44979(5) 0.83350(5) 1.0000
O17_2 O 0.1266(2) 0.09874(17) 0.34842(15)
O18_2 O 0.1518(2) 0.13928(18) 0.31220(12)
O21_2 O 0.41068(19) 0.30332(19) 0.10981(14)
O22_2 O 0.3751(2) 0.25991(19) 0.14197(15)
N10_2 N 0.2256(4) 0.0354(3) 0.2410(2)
N11_2 N 0.2466(6) 0.0762(3) 0.2369(3)
N12_2 N 0.2578(6) 0.0660(3) 0.2077(3)
N13_2 N 0.3686(6) 0.0485(4) 0.0886(3)
N14_2 N 0.3849(6) 0.0831(4) 0.0762(3)
N15_2 N 0.3876(4) 0.1121(3) 0.0985(3)
C37_2 C 0.1452(3) 0.1030(3) 0.3257(2)
C38_2 C 0.1658(4) 0.0639(3) 0.3084(2)
C39_2 C 0.1840(3) 0.0689(3) 0.2830(2)
H28_2 H 0.1858 0.0960 0.2740
C40_2 C 0.2006(5) 0.0342(4) 0.2696(3)
C41_2 C 0.2374(4) 0.0079(3) 0.2237(2)
C42_2 C 0.2596(5) 0.0315(3) 0.2001(3)
C43_2 C 0.2763(6) 0.0143(4) 0.1728(3)
C47_2 C 0.3335(7) 0.0275(4) 0.1341(3)
C48_2 C 0.3028(4) 0.0431(3) 0.1565(3)
H32_2 H 0.3007 0.0726 0.1602
C49_2 C 0.3557(5) 0.0535(4) 0.1155(4)
C50_2 C 0.3632(5) 0.1026(4) 0.1205(3)
H33_2 H 0.3525 0.1203 0.1357
C51_2 C 0.4070(4) 0.1493(3) 0.0900(3)
C52_2 C 0.3927(3) 0.1881(3) 0.1081(3)
H34_2 H 0.3718 0.1856 0.1230
C53_2 C 0.4123(3) 0.2286(3) 0.1015(2)
C54_2 C 0.4384(3) 0.2293(3) 0.0790(2)
H35_2 H 0.4446 0.2566 0.0715
C55_2 C 0.4588(4) 0.1953(3) 0.0643(2)
C56_2 C 0.4350(4) 0.1558(3) 0.0687(3)
H36_2 H 0.4400 0.1333 0.0553
C57_2 C 0.4898(3) 0.1999(3) 0.0407(2)
C67_2 C 0.3999(3) 0.2627(3) 0.1181(2)
C69_2 C 0.1569(4) 0.0228(3) 0.3210(3)
H41_2 H 0.1377 0.0196 0.3369
Cu7_2 Cu 0.39505(4) 0.35505(4) 0.12720(3)
Cu10_2 Cu 0.10495(4) 0.14495(4) 0.37280(3)
Cu11_2 Cu 0.35868(4) 0.30609(4) 0.16816(3)
Cu14_2 Cu 0.14132(4) 0.19391(4) 0.33184(3)
O19_2 O 0.35186(18) 0.66064(18) 0.10668(14)
O20_2 O 0.3129(2) 0.69247(18) 0.14342(14)
O23_2 O 0.14956(17) 0.94410(17) 0.34765(14)
O24_2 O 0.1942(2) 0.91524(19) 0.31253(14)
O25_2 O 0.3952(3) 0.5749(3) 0.09514(16)
H24_2 H 0.3801 0.5600 0.0793
H25_2 H 0.4145 0.5936 0.0842
O26_2 O 0.2679(3) 0.6765(2) 0.2011(2)
H26_2 H 0.2834 0.6962 0.2093
H27_2 H 0.2462 0.6884 0.1924
O27_2 O 0.4164(2) 0.74798(18) 0.03033(14)
O28_2 O 0.4075(2) 0.8210(2) 0.03090(14)
N16_2 N 0.3106(4) 0.8486(3) 0.1160(3)
N17_2 N 0.2791(5) 0.8437(4) 0.1368(3)
N18_2 N 0.2718(5) 0.8863(3) 0.1443(3)
H29_2 H 0.2332 0.9782 0.2251
C44_2 C 0.2820(5) 0.9696(4) 0.1678(3)
H30_2 H 0.2748 0.9502 0.1830
C45_2 C 0.2963(7) 0.9559(4) 0.1440(4)
C46_2 C 0.3293(7) 0.9873(4) 0.1276(3)
H31_2 H 0.3466 0.9760 0.1124
C58_2 C 0.3389(4) 0.6924(3) 0.1196(2)
C59_2 C 0.3404(3) 0.7349(3) 0.1050(2)
C60_2 C 0.3641(3) 0.7384(3) 0.0802(2)
H37_2 H 0.3755 0.7137 0.0713
C61_2 C 0.3723(3) 0.7795(3) 0.0670(2)
C62_2 C 0.3529(3) 0.8126(3) 0.0790(3)
H38_2 H 0.3534 0.8386 0.0684
C63_2 C 0.3320(5) 0.8116(3) 0.1060(3)
C64_2 C 0.3219(5) 0.7697(3) 0.1169(3)
H39_2 H 0.3022 0.7665 0.1326
C65_2 C 0.3975(3) 0.7845(3) 0.0417(2)
C66_2 C 0.3282(6) 0.8888(3) 0.1162(3)
H40_2 H 0.3534 0.8994 0.1075
C68_2 C 0.2960(6) 0.9097(4) 0.1339(4)
C70_2 C 0.1771(3) 0.9889(3) 0.3091(2)
C71_2 C 0.1978(4) 0.9916(4) 0.2822(3)
H42_2 H 0.2094 0.9676 0.2726
C72_2 C 0.1726(3) 0.9482(3) 0.3241(2)
O31_2 O 0.40126(17) 0.6266(2) 0.15158(15)
O33_2 O 0.36072(18) 0.6518(2) 0.18780(12)
O38_2 O 0.35044(17) 0.55590(17) 0.15235(14)
O40_2 O 0.3058(2) 0.58476(19) 0.18747(14)
O15_3 O 0.6787(3) 0.5282(3) 0.0000
H5_2 H 0.6691 0.5328 0.0170
O16_3 O 0.9017(3) 0.5614(3) 0.0000
H23_2 H 0.9126 0.5495 0.0147
O43_2 O 0.7623(2) 0.49665(19) 0.03027(14)
O45_2 O 0.83423(18) 0.50532(18) 0.02982(14)
O15_4 O 0.6787(3) 0.5282(3) 1.0000
O16_4 O 0.9017(3) 0.5614(3) 1.0000
H6_2 H 0.9126 0.5495 0.9853
H22_2 H 0.6691 0.5328 0.9830
O41_2 O 0.74798(18) 0.5836(2) 0.96967(14)
O42_2 O 0.8210(2) 0.5925(2) 0.96910(14)
O44_2 O 0.7623(2) 0.49665(19) 0.96973(14)
O46_2 O 0.83423(18) 0.50532(18) 0.97018(14)
O19_3 O 0.33936(18) 0.35186(18) 0.10668(14)
O20_3 O 0.30753(18) 0.3129(2) 0.14342(14)
O23_3 O 0.05590(17) 0.14956(17) 0.34765(14)
O24_3 O 0.08476(19) 0.1942(2) 0.31253(14)
O25_3 O 0.4251(3) 0.3952(3) 0.09514(16)
H24_3 H 0.4400 0.3801 0.0793
H25_3 H 0.4064 0.4145 0.0842
O26_3 O 0.3235(2) 0.2679(3) 0.2011(2)
H26_3 H 0.3038 0.2834 0.2093
H27_3 H 0.3116 0.2462 0.1924
O27_3 O 0.25202(18) 0.4164(2) 0.03033(14)
O28_3 O 0.1790(2) 0.4075(2) 0.03090(14)
N16_3 N 0.1514(3) 0.3106(4) 0.1160(3)
N17_3 N 0.1563(4) 0.2791(5) 0.1368(3)
N18_3 N 0.1137(3) 0.2718(5) 0.1443(3)
H29_3 H 0.0218 0.2332 0.2251
C44_3 C 0.0304(4) 0.2820(5) 0.1678(3)
H30_3 H 0.0498 0.2748 0.1830
C45_3 C 0.0441(4) 0.2963(7) 0.1440(4)
C46_3 C 0.0127(4) 0.3293(7) 0.1276(3)
H31_3 H 0.0240 0.3466 0.1124
C58_3 C 0.3076(3) 0.3389(4) 0.1196(2)
C59_3 C 0.2651(3) 0.3404(3) 0.1050(2)
C60_3 C 0.2616(3) 0.3641(3) 0.0802(2)
H37_3 H 0.2863 0.3755 0.0713
C61_3 C 0.2205(3) 0.3723(3) 0.0670(2)
C62_3 C 0.1874(3) 0.3529(3) 0.0790(3)
H38_3 H 0.1614 0.3534 0.0684
C63_3 C 0.1884(3) 0.3320(5) 0.1060(3)
C64_3 C 0.2303(3) 0.3219(5) 0.1169(3)
H39_3 H 0.2335 0.3022 0.1326
C65_3 C 0.2155(3) 0.3975(3) 0.0417(2)
C66_3 C 0.1112(3) 0.3282(6) 0.1162(3)
H40_3 H 0.1006 0.3534 0.1075
C68_3 C 0.0903(4) 0.2960(6) 0.1339(4)
C70_3 C 0.0111(3) 0.1771(3) 0.3091(2)
C71_3 C 0.0084(4) 0.1978(4) 0.2822(3)
H42_3 H 0.0324 0.2094 0.2726
C72_3 C 0.0518(3) 0.1726(3) 0.3241(2)
O31_3 O 0.3734(2) 0.40126(17) 0.15158(15)
O33_3 O 0.3482(2) 0.36072(18) 0.18780(12)
O38_3 O 0.44410(17) 0.35044(17) 0.15235(14)
O40_3 O 0.41524(19) 0.3058(2) 0.18747(14)
O15_5 O 0.4718(3) 0.6787(3) 0.0000
H5_3 H 0.4672 0.6691 0.0170
O16_5 O 0.4386(3) 0.9017(3) 0.0000
H23_3 H 0.4505 0.9126 0.0147
O15_6 O 0.4718(3) 0.6787(3) 1.0000
O16_6 O 0.4386(3) 0.9017(3) 1.0000
H6_3 H 0.4505 0.9126 0.9853
H22_3 H 0.4672 0.6691 0.9830
O41_3 O 0.4164(2) 0.74798(18) 0.96967(14)
O42_3 O 0.4075(2) 0.8210(2) 0.96910(14)
O44_3 O 0.50335(19) 0.7623(2) 0.96973(14)
O46_3 O 0.49468(18) 0.83423(18) 0.97018(14)
O17_3 O 0.90126(17) 0.1266(2) 0.34842(15)
O18_3 O 0.86072(18) 0.1518(2) 0.31220(12)
N10_3 N 0.9646(3) 0.2256(4) 0.2410(2)
N11_3 N 0.9238(3) 0.2466(6) 0.2369(3)
N12_3 N 0.9340(3) 0.2578(6) 0.2077(3)
N13_3 N 0.9515(4) 0.3686(6) 0.0886(3)
N14_3 N 0.9169(4) 0.3849(6) 0.0762(3)
N15_3 N 0.8879(3) 0.3876(4) 0.0985(3)
C37_3 C 0.8970(3) 0.1452(3) 0.3257(2)
C38_3 C 0.9361(3) 0.1658(4) 0.3084(2)
C39_3 C 0.9311(3) 0.1840(3) 0.2830(2)
H28_3 H 0.9040 0.1858 0.2740
C40_3 C 0.9658(4) 0.2006(5) 0.2696(3)
C41_3 C 0.9921(3) 0.2374(4) 0.2237(2)
C42_3 C 0.9685(3) 0.2596(5) 0.2001(3)
C43_3 C 0.9857(4) 0.2763(6) 0.1728(3)
C47_3 C 0.9725(4) 0.3335(7) 0.1341(3)
C48_3 C 0.9569(3) 0.3028(4) 0.1565(3)
H32_3 H 0.9274 0.3007 0.1602
C49_3 C 0.9465(4) 0.3557(5) 0.1155(4)
C50_3 C 0.8974(4) 0.3632(5) 0.1205(3)
H33_3 H 0.8797 0.3525 0.1357
C51_3 C 0.8507(3) 0.4070(4) 0.0900(3)
C52_3 C 0.8119(3) 0.3927(3) 0.1081(3)
H34_3 H 0.8144 0.3718 0.1230
C53_3 C 0.7714(3) 0.4123(3) 0.1015(2)
C54_3 C 0.7707(3) 0.4384(3) 0.0790(2)
H35_3 H 0.7434 0.4446 0.0715
C55_3 C 0.8047(3) 0.4588(4) 0.0643(2)
C56_3 C 0.8442(3) 0.4350(4) 0.0687(3)
H36_3 H 0.8667 0.4400 0.0553
C57_3 C 0.8001(3) 0.4898(3) 0.0407(2)
C67_3 C 0.7373(3) 0.3999(3) 0.1181(2)
C69_3 C 0.9772(3) 0.1569(4) 0.3210(3)
H41_3 H 0.9804 0.1377 0.3369
O15_7 O 0.3213(3) 0.4718(3) 0.0000
H5_4 H 0.3309 0.4672 0.0170
O16_7 O 0.0983(3) 0.4386(3) 0.0000
H23_4 H 0.0874 0.4505 0.0147
O15_8 O 0.3213(3) 0.4718(3) 1.0000
O16_8 O 0.0983(3) 0.4386(3) 1.0000
H6_4 H 0.0874 0.4505 0.9853
H22_4 H 0.3309 0.4672 0.9830
O41_4 O 0.25202(18) 0.4164(2) 0.96967(14)
O42_4 O 0.1790(2) 0.4075(2) 0.96910(14)
O44_4 O 0.2377(2) 0.50335(19) 0.96973(14)
O46_4 O 0.16577(18) 0.49468(18) 0.97018(14)
Cu1_2 Cu 0.14495(4) 0.89505(4) 0.62720(3)
Cu2_2 Cu 0.19391(4) 0.85868(4) 0.66816(3)
Cu3_3 Cu 0.03852(5) 0.75052(5) 0.5000
Cu4_3 Cu 0.05021(5) 0.66650(5) 0.5000
O1_2 O 0.3734(2) 0.40126(17) 0.84842(15)
O2_2 O 0.3482(2) 0.36072(18) 0.81220(12)
O3_2 O 0.14814(18) 0.83936(18) 0.60668(14)
O4_2 O 0.1871(2) 0.80753(18) 0.64342(14)
O5_2 O 0.08932(19) 0.19668(19) 0.60981(14)
O6_2 O 0.1249(2) 0.24009(19) 0.64197(15)
O7_2 O 0.35044(17) 0.55590(17) 0.84765(14)
O8_2 O 0.3058(2) 0.58476(19) 0.81253(14)
O9_2 O 0.1048(3) 0.9251(3) 0.59514(16)
H1_2 H 0.1199 0.9400 0.5793
H2_2 H 0.0855 0.9064 0.5842
O10_2 O 0.2321(3) 0.8235(2) 0.7011(2)
H3_2 H 0.2166 0.8038 0.7093
H4_2 H 0.2538 0.8116 0.6924
O11_2 O 0.0836(2) 0.75202(18) 0.53033(14)
O12_2 O 0.0925(2) 0.6790(2) 0.53090(14)
O13_2 O 0.00335(19) 0.2623(2) 0.53027(14)
O15_9 O 0.0282(3) 0.8213(3) 0.5000
H5_5 H 0.0328 0.8309 0.5170
O16_9 O 0.0614(3) 0.5983(3) 0.5000
H6_5 H 0.0495 0.5874 0.4853
N1_2 N 0.2744(4) 0.4646(3) 0.7410(2)
N2_2 N 0.2534(6) 0.4238(3) 0.7369(3)
N3_2 N 0.2422(6) 0.4340(3) 0.7077(3)
N4_2 N 0.1314(6) 0.4515(4) 0.5886(3)
N5_2 N 0.1151(6) 0.4169(4) 0.5762(3)
N6_2 N 0.1124(4) 0.3879(3) 0.5985(3)
N7_2 N 0.1894(4) 0.6514(3) 0.6160(3)
N8_2 N 0.2209(5) 0.6563(4) 0.6368(3)
N9_2 N 0.2282(5) 0.6137(3) 0.6443(3)
C1_2 C 0.3548(3) 0.3970(3) 0.8257(2)
C2_2 C 0.3342(4) 0.4361(3) 0.8084(2)
C3_2 C 0.3160(3) 0.4311(3) 0.7830(2)
H7_2 H 0.3142 0.4040 0.7740
C4_2 C 0.2994(5) 0.4658(4) 0.7696(3)
C5_2 C 0.2626(4) 0.4921(3) 0.7237(2)
H8_2 H 0.2668 0.5218 0.7251
C6_2 C 0.2404(5) 0.4685(3) 0.7001(3)
C7_2 C 0.2237(6) 0.4857(4) 0.6728(3)
C8_2 C 0.2180(5) 0.5304(4) 0.6678(3)
H9_2 H 0.2252 0.5498 0.6830
C9_2 C 0.2037(7) 0.5441(4) 0.6440(4)
C10_2 C 0.1707(7) 0.5127(4) 0.6276(3)
H10_2 H 0.1534 0.5240 0.6124
C11_2 C 0.1665(7) 0.4725(4) 0.6341(3)
C12_2 C 0.1972(4) 0.4569(3) 0.6565(3)
H11_2 H 0.1993 0.4274 0.6602
C13_2 C 0.1443(5) 0.4465(4) 0.6155(4)
C14_2 C 0.1368(5) 0.3974(4) 0.6205(3)
H12_2 H 0.1475 0.3797 0.6357
C15_2 C 0.0930(4) 0.3507(3) 0.5900(3)
C16_2 C 0.1073(3) 0.3119(3) 0.6081(3)
H13_2 H 0.1282 0.3144 0.6230
C17_2 C 0.0877(3) 0.2714(3) 0.6015(2)
C18_2 C 0.0616(3) 0.2707(3) 0.5790(2)
H14_2 H 0.0554 0.2434 0.5715
C19_2 C 0.0412(4) 0.3047(3) 0.5643(2)
C20_2 C 0.0650(4) 0.3442(3) 0.5687(3)
H15_2 H 0.0600 0.3667 0.5553
C21_2 C 0.0102(3) 0.3001(3) 0.5407(2)
C22_2 C 0.1611(4) 0.8076(3) 0.6196(2)
C23_2 C 0.1596(3) 0.7651(3) 0.6050(2)
C24_2 C 0.1359(3) 0.7616(3) 0.5802(2)
H16_2 H 0.1245 0.7863 0.5713
C25_2 C 0.1277(3) 0.7205(3) 0.5670(2)
C26_2 C 0.1471(3) 0.6874(3) 0.5790(3)
H17_2 H 0.1466 0.6614 0.5684
C27_2 C 0.1680(5) 0.6884(3) 0.6060(3)
C28_2 C 0.1781(5) 0.7303(3) 0.6169(3)
H18_2 H 0.1978 0.7335 0.6326
C29_2 C 0.1025(3) 0.7155(3) 0.5417(2)
C30_2 C 0.1718(6) 0.6112(3) 0.6162(3)
H19_2 H 0.1466 0.6006 0.6075
C31_2 C 0.1001(3) 0.2373(3) 0.6181(2)
C32_2 C 0.2040(6) 0.5903(4) 0.6339(4)
C33_2 C 0.3431(4) 0.4772(3) 0.8210(3)
H20_2 H 0.3623 0.4804 0.8369
C34_2 C 0.3229(3) 0.5111(3) 0.8091(2)
C35_2 C 0.3022(4) 0.5084(4) 0.7822(3)
H21_2 H 0.2906 0.5324 0.7726
C36_2 C 0.3274(3) 0.5518(3) 0.8241(2)
H22_5 H 0.0328 0.8309 0.4830
H23_5 H 0.0495 0.5874 0.5147
Cu5_2 Cu 0.10495(4) 0.14495(4) 0.62720(3)
Cu6_2 Cu 0.14132(4) 0.19391(4) 0.66816(3)
O17_4 O 0.59874(17) 0.3734(2) 0.84842(15)
O18_4 O 0.63928(18) 0.3482(2) 0.81220(12)
O19_4 O 0.16064(18) 0.14814(18) 0.60668(14)
O20_4 O 0.19247(18) 0.1871(2) 0.64342(14)
O21_3 O 0.80332(19) 0.08932(19) 0.60981(14)
O22_3 O 0.75991(19) 0.1249(2) 0.64197(15)
O23_4 O 0.44410(17) 0.35044(17) 0.84765(14)
O24_4 O 0.41524(19) 0.3058(2) 0.81253(14)
O25_4 O 0.0749(3) 0.1048(3) 0.59514(16)
H24_4 H 0.0600 0.1199 0.5793
H25_4 H 0.0936 0.0855 0.5842
O26_4 O 0.1765(2) 0.2321(3) 0.7011(2)
H26_4 H 0.1962 0.2166 0.7093
H27_4 H 0.1884 0.2538 0.6924
O27_4 O 0.24798(18) 0.0836(2) 0.53033(14)
O28_4 O 0.3210(2) 0.0925(2) 0.53090(14)
O29_2 O 0.7377(2) 0.00335(19) 0.53027(14)
N10_4 N 0.5354(3) 0.2744(4) 0.7410(2)
N11_4 N 0.5762(3) 0.2534(6) 0.7369(3)
N12_4 N 0.5660(3) 0.2422(6) 0.7077(3)
N13_4 N 0.5485(4) 0.1314(6) 0.5886(3)
N14_4 N 0.5831(4) 0.1151(6) 0.5762(3)
N15_4 N 0.6121(3) 0.1124(4) 0.5985(3)
N16_4 N 0.3486(3) 0.1894(4) 0.6160(3)
N17_4 N 0.3437(4) 0.2209(5) 0.6368(3)
N18_4 N 0.3863(3) 0.2282(5) 0.6443(3)
C37_4 C 0.6030(3) 0.3548(3) 0.8257(2)
C38_4 C 0.5639(3) 0.3342(4) 0.8084(2)
C39_4 C 0.5689(3) 0.3160(3) 0.7830(2)
H28_4 H 0.5960 0.3142 0.7740
C40_4 C 0.5342(4) 0.2994(5) 0.7696(3)
C41_4 C 0.5079(3) 0.2626(4) 0.7237(2)
H29_4 H 0.4782 0.2668 0.7251
C42_4 C 0.5315(3) 0.2404(5) 0.7001(3)
C43_4 C 0.5143(4) 0.2237(6) 0.6728(3)
C44_4 C 0.4696(4) 0.2180(5) 0.6678(3)
H30_4 H 0.4502 0.2252 0.6830
C45_4 C 0.4559(4) 0.2037(7) 0.6440(4)
C46_4 C 0.4873(4) 0.1707(7) 0.6276(3)
H31_4 H 0.4760 0.1534 0.6124
C47_4 C 0.5275(4) 0.1665(7) 0.6341(3)
C48_4 C 0.5431(3) 0.1972(4) 0.6565(3)
H32_4 H 0.5726 0.1993 0.6602
C49_4 C 0.5535(4) 0.1443(5) 0.6155(4)
C50_4 C 0.6026(4) 0.1368(5) 0.6205(3)
H33_4 H 0.6203 0.1475 0.6357
C51_4 C 0.6493(3) 0.0930(4) 0.5900(3)
C52_4 C 0.6881(3) 0.1073(3) 0.6081(3)
H34_4 H 0.6856 0.1282 0.6230
C53_4 C 0.7286(3) 0.0877(3) 0.6015(2)
C54_4 C 0.7293(3) 0.0616(3) 0.5790(2)
H35_4 H 0.7566 0.0554 0.5715
C55_4 C 0.6953(3) 0.0412(4) 0.5643(2)
C56_4 C 0.6558(3) 0.0650(4) 0.5687(3)
H36_4 H 0.6333 0.0600 0.5553
C57_4 C 0.6999(3) 0.0102(3) 0.5407(2)
C58_4 C 0.1924(3) 0.1611(4) 0.6196(2)
C59_4 C 0.2349(3) 0.1596(3) 0.6050(2)
C60_4 C 0.2384(3) 0.1359(3) 0.5802(2)
H37_4 H 0.2137 0.1245 0.5713
C61_4 C 0.2795(3) 0.1277(3) 0.5670(2)
C62_4 C 0.3126(3) 0.1471(3) 0.5790(3)
H38_4 H 0.3386 0.1466 0.5684
C63_4 C 0.3116(3) 0.1680(5) 0.6060(3)
C64_4 C 0.2697(3) 0.1781(5) 0.6169(3)
H39_4 H 0.2665 0.1978 0.6326
C65_4 C 0.2845(3) 0.1025(3) 0.5417(2)
C66_4 C 0.3888(3) 0.1718(6) 0.6162(3)
H40_4 H 0.3994 0.1466 0.6075
C67_4 C 0.7627(3) 0.1001(3) 0.6181(2)
C68_4 C 0.4097(4) 0.2040(6) 0.6339(4)
C69_4 C 0.5228(3) 0.3431(4) 0.8210(3)
H41_4 H 0.5196 0.3623 0.8369
C70_4 C 0.4889(3) 0.3229(3) 0.8091(2)
C71_4 C 0.4916(4) 0.3022(4) 0.7822(3)
H42_4 H 0.4676 0.2906 0.7726
C72_4 C 0.4482(3) 0.3274(3) 0.8241(2)
Cu7_3 Cu 0.85505(4) 0.10495(4) 0.62720(3)
Cu8_2 Cu 0.35505(4) 0.60495(4) 0.87280(3)
Cu9_2 Cu 0.39505(4) 0.35505(4) 0.87280(3)
Cu10_3 Cu 0.64495(4) 0.39505(4) 0.87280(3)
Cu11_3 Cu 0.80609(4) 0.14132(4) 0.66816(3)
Cu12_2 Cu 0.30609(4) 0.64132(4) 0.83184(3)
Cu13_2 Cu 0.35868(4) 0.30609(4) 0.83184(3)
Cu14_3 Cu 0.69391(4) 0.35868(4) 0.83184(3)
Cu15_3 Cu 0.24948(5) 0.03852(5) 0.5000
Cu18_3 Cu 0.33350(5) 0.05021(5) 0.5000
O31_4 O 0.1266(2) 0.09874(17) 0.65158(15)
O32_2 O 0.09874(17) 0.8734(2) 0.65158(15)
O33_4 O 0.1518(2) 0.13928(18) 0.68780(12)
O34_2 O 0.13928(18) 0.8482(2) 0.68780(12)
O35_2 O 0.19668(19) 0.91068(19) 0.60981(14)
O36_2 O 0.24009(19) 0.8751(2) 0.64197(15)
O37_2 O 0.14956(17) 0.94410(17) 0.65235(14)
O38_4 O 0.05590(17) 0.14956(17) 0.65235(14)
O39_2 O 0.1942(2) 0.91524(19) 0.68747(14)
O40_4 O 0.08476(19) 0.1942(2) 0.68747(14)
O41_5 O 0.0836(2) 0.75202(18) 0.46967(14)
O42_5 O 0.0925(2) 0.6790(2) 0.46910(14)
O45_3 O 0.00532(18) 0.66577(18) 0.52982(14)
O46_5 O 0.00532(18) 0.66577(18) 0.47018(14)
O30_2 O 0.66577(18) 0.99468(18) 0.52982(14)
Cu17_3 Cu 0.75052(5) 0.96148(5) 0.5000
Cu20_3 Cu 0.66650(5) 0.94979(5) 0.5000
O14_2 O 0.99468(18) 0.33423(18) 0.52982(14)
Cu16_3 Cu 0.96148(5) 0.24948(5) 0.5000
Cu19_3 Cu 0.94979(5) 0.33350(5) 0.5000
O43_3 O 0.99665(19) 0.7377(2) 0.53027(14)
O44_5 O 0.99665(19) 0.7377(2) 0.46973(14)
O15_10 O 0.1787(3) 0.0282(3) 0.5000
H5_6 H 0.1691 0.0328 0.5170
O16_10 O 0.4017(3) 0.0614(3) 0.5000
H6_6 H 0.4126 0.0495 0.4853
H22_6 H 0.1691 0.0328 0.4830
H23_6 H 0.4126 0.0495 0.5147
O17_5 O 0.6266(2) 0.59874(17) 0.84842(15)
O18_5 O 0.6518(2) 0.63928(18) 0.81220(12)
O19_5 O 0.85186(18) 0.16064(18) 0.60668(14)
O20_5 O 0.8129(2) 0.19247(18) 0.64342(14)
O21_4 O 0.91068(19) 0.80332(19) 0.60981(14)
O22_4 O 0.8751(2) 0.75991(19) 0.64197(15)
O23_5 O 0.64956(17) 0.44410(17) 0.84765(14)
O24_5 O 0.6942(2) 0.41524(19) 0.81253(14)
O25_5 O 0.8952(3) 0.0749(3) 0.59514(16)
H24_5 H 0.8801 0.0600 0.5793
H25_5 H 0.9145 0.0936 0.5842
O26_5 O 0.7679(3) 0.1765(2) 0.7011(2)
H26_5 H 0.7834 0.1962 0.7093
H27_5 H 0.7462 0.1884 0.6924
O27_5 O 0.9164(2) 0.24798(18) 0.53033(14)
O28_5 O 0.9075(2) 0.3210(2) 0.53090(14)
N10_5 N 0.7256(4) 0.5354(3) 0.7410(2)
N11_5 N 0.7466(6) 0.5762(3) 0.7369(3)
N12_5 N 0.7578(6) 0.5660(3) 0.7077(3)
N13_5 N 0.8686(6) 0.5485(4) 0.5886(3)
N14_5 N 0.8849(6) 0.5831(4) 0.5762(3)
N15_5 N 0.8876(4) 0.6121(3) 0.5985(3)
N16_5 N 0.8106(4) 0.3486(3) 0.6160(3)
N17_5 N 0.7791(5) 0.3437(4) 0.6368(3)
N18_5 N 0.7718(5) 0.3863(3) 0.6443(3)
C37_5 C 0.6452(3) 0.6030(3) 0.8257(2)
C38_5 C 0.6658(4) 0.5639(3) 0.8084(2)
C39_5 C 0.6840(3) 0.5689(3) 0.7830(2)
H28_5 H 0.6858 0.5960 0.7740
C40_5 C 0.7006(5) 0.5342(4) 0.7696(3)
C41_5 C 0.7374(4) 0.5079(3) 0.7237(2)
H29_5 H 0.7332 0.4782 0.7251
C42_5 C 0.7596(5) 0.5315(3) 0.7001(3)
C43_5 C 0.7763(6) 0.5143(4) 0.6728(3)
C44_5 C 0.7820(5) 0.4696(4) 0.6678(3)
H30_5 H 0.7748 0.4502 0.6830
C45_5 C 0.7963(7) 0.4559(4) 0.6440(4)
C46_5 C 0.8293(7) 0.4873(4) 0.6276(3)
H31_5 H 0.8466 0.4760 0.6124
C47_5 C 0.8335(7) 0.5275(4) 0.6341(3)
C48_5 C 0.8028(4) 0.5431(3) 0.6565(3)
H32_5 H 0.8007 0.5726 0.6602
C49_5 C 0.8557(5) 0.5535(4) 0.6155(4)
C50_5 C 0.8632(5) 0.6026(4) 0.6205(3)
H33_5 H 0.8525 0.6203 0.6357
C51_5 C 0.9070(4) 0.6493(3) 0.5900(3)
C52_5 C 0.8927(3) 0.6881(3) 0.6081(3)
H34_5 H 0.8718 0.6856 0.6230
C53_5 C 0.9123(3) 0.7286(3) 0.6015(2)
C54_5 C 0.9384(3) 0.7293(3) 0.5790(2)
H35_5 H 0.9446 0.7566 0.5715
C55_5 C 0.9588(4) 0.6953(3) 0.5643(2)
C56_5 C 0.9350(4) 0.6558(3) 0.5687(3)
H36_5 H 0.9400 0.6333 0.5553
C57_5 C 0.9898(3) 0.6999(3) 0.5407(2)
C58_5 C 0.8389(4) 0.1924(3) 0.6196(2)
C59_5 C 0.8404(3) 0.2349(3) 0.6050(2)
C60_5 C 0.8641(3) 0.2384(3) 0.5802(2)
H37_5 H 0.8755 0.2137 0.5713
C61_5 C 0.8723(3) 0.2795(3) 0.5670(2)
C62_5 C 0.8529(3) 0.3126(3) 0.5790(3)
H38_5 H 0.8534 0.3386 0.5684
C63_5 C 0.8320(5) 0.3116(3) 0.6060(3)
C64_5 C 0.8219(5) 0.2697(3) 0.6169(3)
H39_5 H 0.8022 0.2665 0.6326
C65_5 C 0.8975(3) 0.2845(3) 0.5417(2)
C66_5 C 0.8282(6) 0.3888(3) 0.6162(3)
H40_5 H 0.8534 0.3994 0.6075
C67_5 C 0.8999(3) 0.7627(3) 0.6181(2)
C68_5 C 0.7960(6) 0.4097(4) 0.6339(4)
C69_5 C 0.6569(4) 0.5228(3) 0.8210(3)
H41_5 H 0.6377 0.5196 0.8369
C70_5 C 0.6771(3) 0.4889(3) 0.8091(2)
C71_5 C 0.6978(4) 0.4916(4) 0.7822(3)
H42_5 H 0.7094 0.4676 0.7726
C72_5 C 0.6726(3) 0.4482(3) 0.8241(2)
Cu7_4 Cu 0.89505(4) 0.85505(4) 0.62720(3)
Cu10_4 Cu 0.60495(4) 0.64495(4) 0.87280(3)
Cu11_4 Cu 0.85868(4) 0.80609(4) 0.66816(3)
Cu14_4 Cu 0.64132(4) 0.69391(4) 0.83184(3)
O31_5 O 0.90126(17) 0.1266(2) 0.65158(15)
O33_5 O 0.86072(18) 0.1518(2) 0.68780(12)
O38_5 O 0.85044(17) 0.05590(17) 0.65235(14)
O40_5 O 0.8058(2) 0.08476(19) 0.68747(14)
O41_6 O 0.24798(18) 0.0836(2) 0.46967(14)
O42_6 O 0.3210(2) 0.0925(2) 0.46910(14)
O45_4 O 0.33423(18) 0.00532(18) 0.52982(14)
O46_6 O 0.33423(18) 0.00532(18) 0.47018(14)
O43_4 O 0.2623(2) 0.99665(19) 0.53027(14)
O44_6 O 0.2623(2) 0.99665(19) 0.46973(14)
O44_7 O 0.00335(19) 0.2623(2) 0.46973(14)
O15_11 O 0.9718(3) 0.1787(3) 0.5000
H5_7 H 0.9672 0.1691 0.5170
O16_11 O 0.9386(3) 0.4017(3) 0.5000
H6_7 H 0.9505 0.4126 0.4853
H22_7 H 0.9672 0.1691 0.4830
H23_7 H 0.9505 0.4126 0.5147
O17_6 O 0.40126(17) 0.6266(2) 0.84842(15)
O18_6 O 0.36072(18) 0.6518(2) 0.81220(12)
O19_6 O 0.83936(18) 0.85186(18) 0.60668(14)
O20_6 O 0.80753(18) 0.8129(2) 0.64342(14)
O23_6 O 0.55590(17) 0.64956(17) 0.84765(14)
O24_6 O 0.58476(19) 0.6942(2) 0.81253(14)
O25_6 O 0.9251(3) 0.8952(3) 0.59514(16)
H24_6 H 0.9400 0.8801 0.5793
H25_6 H 0.9064 0.9145 0.5842
O26_6 O 0.8235(2) 0.7679(3) 0.7011(2)
H26_6 H 0.8038 0.7834 0.7093
H27_6 H 0.8116 0.7462 0.6924
O27_6 O 0.75202(18) 0.9164(2) 0.53033(14)
O28_6 O 0.6790(2) 0.9075(2) 0.53090(14)
N10_6 N 0.4646(3) 0.7256(4) 0.7410(2)
N11_6 N 0.4238(3) 0.7466(6) 0.7369(3)
N12_6 N 0.4340(3) 0.7578(6) 0.7077(3)
N13_6 N 0.4515(4) 0.8686(6) 0.5886(3)
N14_6 N 0.4169(4) 0.8849(6) 0.5762(3)
N15_6 N 0.3879(3) 0.8876(4) 0.5985(3)
N16_6 N 0.6514(3) 0.8106(4) 0.6160(3)
N17_6 N 0.6563(4) 0.7791(5) 0.6368(3)
N18_6 N 0.6137(3) 0.7718(5) 0.6443(3)
C37_6 C 0.3970(3) 0.6452(3) 0.8257(2)
C38_6 C 0.4361(3) 0.6658(4) 0.8084(2)
C39_6 C 0.4311(3) 0.6840(3) 0.7830(2)
H28_6 H 0.4040 0.6858 0.7740
C40_6 C 0.4658(4) 0.7006(5) 0.7696(3)
C41_6 C 0.4921(3) 0.7374(4) 0.7237(2)
H29_6 H 0.5218 0.7332 0.7251
C42_6 C 0.4685(3) 0.7596(5) 0.7001(3)
C43_6 C 0.4857(4) 0.7763(6) 0.6728(3)
C44_6 C 0.5304(4) 0.7820(5) 0.6678(3)
H30_6 H 0.5498 0.7748 0.6830
C45_6 C 0.5441(4) 0.7963(7) 0.6440(4)
C46_6 C 0.5127(4) 0.8293(7) 0.6276(3)
H31_6 H 0.5240 0.8466 0.6124
C47_6 C 0.4725(4) 0.8335(7) 0.6341(3)
C48_6 C 0.4569(3) 0.8028(4) 0.6565(3)
H32_6 H 0.4274 0.8007 0.6602
C49_6 C 0.4465(4) 0.8557(5) 0.6155(4)
C50_6 C 0.3974(4) 0.8632(5) 0.6205(3)
H33_6 H 0.3797 0.8525 0.6357
C51_6 C 0.3507(3) 0.9070(4) 0.5900(3)
C52_6 C 0.3119(3) 0.8927(3) 0.6081(3)
H34_6 H 0.3144 0.8718 0.6230
C53_6 C 0.2714(3) 0.9123(3) 0.6015(2)
C54_6 C 0.2707(3) 0.9384(3) 0.5790(2)
H35_6 H 0.2434 0.9446 0.5715
C55_6 C 0.3047(3) 0.9588(4) 0.5643(2)
C56_6 C 0.3442(3) 0.9350(4) 0.5687(3)
H36_6 H 0.3667 0.9400 0.5553
C57_6 C 0.3001(3) 0.9898(3) 0.5407(2)
C58_6 C 0.8076(3) 0.8389(4) 0.6196(2)
C59_6 C 0.7651(3) 0.8404(3) 0.6050(2)
C60_6 C 0.7616(3) 0.8641(3) 0.5802(2)
H37_6 H 0.7863 0.8755 0.5713
C61_6 C 0.7205(3) 0.8723(3) 0.5670(2)
C62_6 C 0.6874(3) 0.8529(3) 0.5790(3)
H38_6 H 0.6614 0.8534 0.5684
C63_6 C 0.6884(3) 0.8320(5) 0.6060(3)
C64_6 C 0.7303(3) 0.8219(5) 0.6169(3)
H39_6 H 0.7335 0.8022 0.6326
C65_6 C 0.7155(3) 0.8975(3) 0.5417(2)
C66_6 C 0.6112(3) 0.8282(6) 0.6162(3)
H40_6 H 0.6006 0.8534 0.6075
C67_6 C 0.2373(3) 0.8999(3) 0.6181(2)
C68_6 C 0.5903(4) 0.7960(6) 0.6339(4)
C69_6 C 0.4772(3) 0.6569(4) 0.8210(3)
H41_6 H 0.4804 0.6377 0.8369
C70_6 C 0.5111(3) 0.6771(3) 0.8091(2)
C71_6 C 0.5084(4) 0.6978(4) 0.7822(3)
H42_6 H 0.5324 0.7094 0.7726
C72_6 C 0.5518(3) 0.6726(3) 0.8241(2)
O31_6 O 0.8734(2) 0.90126(17) 0.65158(15)
O33_6 O 0.8482(2) 0.86072(18) 0.68780(12)
O38_6 O 0.94410(17) 0.85044(17) 0.65235(14)
O40_6 O 0.91524(19) 0.8058(2) 0.68747(14)
O41_7 O 0.9164(2) 0.24798(18) 0.46967(14)
O42_7 O 0.9075(2) 0.3210(2) 0.46910(14)
O46_7 O 0.99468(18) 0.33423(18) 0.47018(14)
O44_8 O 0.7377(2) 0.00335(19) 0.46973(14)
O15_12 O 0.8213(3) 0.9718(3) 0.5000
H5_8 H 0.8309 0.9672 0.5170
O16_12 O 0.5983(3) 0.9386(3) 0.5000
H6_8 H 0.5874 0.9505 0.4853
H22_8 H 0.8309 0.9672 0.4830
H23_8 H 0.5874 0.9505 0.5147
O41_8 O 0.75202(18) 0.9164(2) 0.46967(14)
O42_8 O 0.6790(2) 0.9075(2) 0.46910(14)
O46_8 O 0.66577(18) 0.99468(18) 0.47018(14)
O5_3 O 0.41068(19) 0.30332(19) 0.89019(14)
O6_3 O 0.3751(2) 0.25991(19) 0.85803(15)
N1_3 N 0.2256(4) 0.0354(3) 0.7590(2)
N2_3 N 0.2466(6) 0.0762(3) 0.7631(3)
N3_3 N 0.2578(6) 0.0660(3) 0.7923(3)
N4_3 N 0.3686(6) 0.0485(4) 0.9114(3)
N5_3 N 0.3849(6) 0.0831(4) 0.9238(3)
N6_3 N 0.3876(4) 0.1121(3) 0.9015(3)
C1_3 C 0.1452(3) 0.1030(3) 0.6743(2)
C2_3 C 0.1658(4) 0.0639(3) 0.6916(2)
C3_3 C 0.1840(3) 0.0689(3) 0.7170(2)
H7_3 H 0.1858 0.0960 0.7260
C4_3 C 0.2006(5) 0.0342(4) 0.7304(3)
C5_3 C 0.2374(4) 0.0079(3) 0.7763(2)
C6_3 C 0.2596(5) 0.0315(3) 0.7999(3)
C7_3 C 0.2763(6) 0.0143(4) 0.8272(3)
C11_3 C 0.3335(7) 0.0275(4) 0.8659(3)
C12_3 C 0.3028(4) 0.0431(3) 0.8435(3)
H11_3 H 0.3007 0.0726 0.8398
C13_3 C 0.3557(5) 0.0535(4) 0.8845(4)
C14_3 C 0.3632(5) 0.1026(4) 0.8795(3)
H12_3 H 0.3525 0.1203 0.8643
C15_3 C 0.4070(4) 0.1493(3) 0.9100(3)
C16_3 C 0.3927(3) 0.1881(3) 0.8919(3)
H13_3 H 0.3718 0.1856 0.8770
C17_3 C 0.4123(3) 0.2286(3) 0.8985(2)
C18_3 C 0.4384(3) 0.2293(3) 0.9210(2)
H14_3 H 0.4446 0.2566 0.9285
C19_3 C 0.4588(4) 0.1953(3) 0.9357(2)
C20_3 C 0.4350(4) 0.1558(3) 0.9313(3)
H15_3 H 0.4400 0.1333 0.9447
C21_3 C 0.4898(3) 0.1999(3) 0.9593(2)
C31_3 C 0.3999(3) 0.2627(3) 0.8819(2)
C33_3 C 0.1569(4) 0.0228(3) 0.6790(3)
H20_3 H 0.1377 0.0196 0.6631
O19_7 O 0.33936(18) 0.35186(18) 0.89332(14)
O20_7 O 0.30753(18) 0.3129(2) 0.85658(14)
O25_7 O 0.4251(3) 0.3952(3) 0.90486(16)
H24_7 H 0.4400 0.3801 0.9207
H25_7 H 0.4064 0.4145 0.9158
O26_7 O 0.3235(2) 0.2679(3) 0.7989(2)
H26_7 H 0.3038 0.2834 0.7907
H27_7 H 0.3116 0.2462 0.8076
N16_7 N 0.1514(3) 0.3106(4) 0.8840(3)
N17_7 N 0.1563(4) 0.2791(5) 0.8632(3)
N18_7 N 0.1137(3) 0.2718(5) 0.8557(3)
H29_7 H 0.0218 0.2332 0.7749
C44_7 C 0.0304(4) 0.2820(5) 0.8322(3)
H30_7 H 0.0498 0.2748 0.8170
C45_7 C 0.0441(4) 0.2963(7) 0.8560(4)
C46_7 C 0.0127(4) 0.3293(7) 0.8724(3)
H31_7 H 0.0240 0.3466 0.8876
C58_7 C 0.3076(3) 0.3389(4) 0.8804(2)
C59_7 C 0.2651(3) 0.3404(3) 0.8950(2)
C60_7 C 0.2616(3) 0.3641(3) 0.9198(2)
H37_7 H 0.2863 0.3755 0.9287
C61_7 C 0.2205(3) 0.3723(3) 0.9330(2)
C62_7 C 0.1874(3) 0.3529(3) 0.9210(3)
H38_7 H 0.1614 0.3534 0.9316
C63_7 C 0.1884(3) 0.3320(5) 0.8940(3)
C64_7 C 0.2303(3) 0.3219(5) 0.8831(3)
H39_7 H 0.2335 0.3022 0.8674
C65_7 C 0.2155(3) 0.3975(3) 0.9583(2)
C66_7 C 0.1112(3) 0.3282(6) 0.8838(3)
H40_7 H 0.1006 0.3534 0.8925
C68_7 C 0.0903(4) 0.2960(6) 0.8661(4)
C70_7 C 0.0111(3) 0.1771(3) 0.6909(2)
C71_7 C 0.0084(4) 0.1978(4) 0.7178(3)
H42_7 H 0.0324 0.2094 0.7274
C72_7 C 0.0518(3) 0.1726(3) 0.6759(2)
O3_3 O 0.35186(18) 0.66064(18) 0.89332(14)
O4_3 O 0.3129(2) 0.69247(18) 0.85658(14)
O9_3 O 0.3952(3) 0.5749(3) 0.90486(16)
H1_3 H 0.3801 0.5600 0.9207
H2_3 H 0.4145 0.5936 0.9158
O10_3 O 0.2679(3) 0.6765(2) 0.7989(2)
H3_3 H 0.2834 0.6962 0.7907
H4_3 H 0.2462 0.6884 0.8076
N7_3 N 0.3106(4) 0.8486(3) 0.8840(3)
N8_3 N 0.2791(5) 0.8437(4) 0.8632(3)
N9_3 N 0.2718(5) 0.8863(3) 0.8557(3)
H8_3 H 0.2332 0.9782 0.7749
C8_3 C 0.2820(5) 0.9696(4) 0.8322(3)
H9_3 H 0.2748 0.9502 0.8170
C9_3 C 0.2963(7) 0.9559(4) 0.8560(4)
C10_3 C 0.3293(7) 0.9873(4) 0.8724(3)
H10_3 H 0.3466 0.9760 0.8876
C22_3 C 0.3389(4) 0.6924(3) 0.8804(2)
C23_3 C 0.3404(3) 0.7349(3) 0.8950(2)
C24_3 C 0.3641(3) 0.7384(3) 0.9198(2)
H16_3 H 0.3755 0.7137 0.9287
C25_3 C 0.3723(3) 0.7795(3) 0.9330(2)
C26_3 C 0.3529(3) 0.8126(3) 0.9210(3)
H17_3 H 0.3534 0.8386 0.9316
C27_3 C 0.3320(5) 0.8116(3) 0.8940(3)
C28_3 C 0.3219(5) 0.7697(3) 0.8831(3)
H18_3 H 0.3022 0.7665 0.8674
C29_3 C 0.3975(3) 0.7845(3) 0.9583(2)
C30_3 C 0.3282(6) 0.8888(3) 0.8838(3)
H19_3 H 0.3534 0.8994 0.8925
C32_3 C 0.2960(6) 0.9097(4) 0.8661(4)
C34_3 C 0.1771(3) 0.9889(3) 0.6909(2)
C35_3 C 0.1978(4) 0.9916(4) 0.7178(3)
H21_3 H 0.2094 0.9676 0.7274
C36_3 C 0.1726(3) 0.9482(3) 0.6759(2)
O35_3 O 0.30332(19) 0.58932(19) 0.89019(14)
O36_3 O 0.25991(19) 0.6249(2) 0.85803(15)
O21_5 O 0.69668(19) 0.41068(19) 0.89019(14)
O22_5 O 0.74009(19) 0.3751(2) 0.85803(15)
N10_7 N 0.9646(3) 0.2256(4) 0.7590(2)
N11_7 N 0.9238(3) 0.2466(6) 0.7631(3)
N12_7 N 0.9340(3) 0.2578(6) 0.7923(3)
N13_7 N 0.9515(4) 0.3686(6) 0.9114(3)
N14_7 N 0.9169(4) 0.3849(6) 0.9238(3)
N15_7 N 0.8879(3) 0.3876(4) 0.9015(3)
C37_7 C 0.8970(3) 0.1452(3) 0.6743(2)
C38_7 C 0.9361(3) 0.1658(4) 0.6916(2)
C39_7 C 0.9311(3) 0.1840(3) 0.7170(2)
H28_7 H 0.9040 0.1858 0.7260
C40_7 C 0.9658(4) 0.2006(5) 0.7304(3)
C41_7 C 0.9921(3) 0.2374(4) 0.7763(2)
C42_7 C 0.9685(3) 0.2596(5) 0.7999(3)
C43_7 C 0.9857(4) 0.2763(6) 0.8272(3)
C47_7 C 0.9725(4) 0.3335(7) 0.8659(3)
C48_7 C 0.9569(3) 0.3028(4) 0.8435(3)
H32_7 H 0.9274 0.3007 0.8398
C49_7 C 0.9465(4) 0.3557(5) 0.8845(4)
C50_7 C 0.8974(4) 0.3632(5) 0.8795(3)
H33_7 H 0.8797 0.3525 0.8643
C51_7 C 0.8507(3) 0.4070(4) 0.9100(3)
C52_7 C 0.8119(3) 0.3927(3) 0.8919(3)
H34_7 H 0.8144 0.3718 0.8770
C53_7 C 0.7714(3) 0.4123(3) 0.8985(2)
C54_7 C 0.7707(3) 0.4384(3) 0.9210(2)
H35_7 H 0.7434 0.4446 0.9285
C55_7 C 0.8047(3) 0.4588(4) 0.9357(2)
C56_7 C 0.8442(3) 0.4350(4) 0.9313(3)
H36_7 H 0.8667 0.4400 0.9447
C57_7 C 0.8001(3) 0.4898(3) 0.9593(2)
C67_7 C 0.7373(3) 0.3999(3) 0.8819(2)
C69_7 C 0.9772(3) 0.1569(4) 0.6790(3)
H41_7 H 0.9804 0.1377 0.6631
O19_8 O 0.64814(18) 0.33936(18) 0.89332(14)
O20_8 O 0.6871(2) 0.30753(18) 0.85658(14)
O25_8 O 0.6048(3) 0.4251(3) 0.90486(16)
H24_8 H 0.6199 0.4400 0.9207
H25_8 H 0.5855 0.4064 0.9158
O26_8 O 0.7321(3) 0.3235(2) 0.7989(2)
H26_8 H 0.7166 0.3038 0.7907
H27_8 H 0.7538 0.3116 0.8076
N16_8 N 0.6894(4) 0.1514(3) 0.8840(3)
N17_8 N 0.7209(5) 0.1563(4) 0.8632(3)
N18_8 N 0.7282(5) 0.1137(3) 0.8557(3)
H29_8 H 0.7668 0.0218 0.7749
C44_8 C 0.7180(5) 0.0304(4) 0.8322(3)
H30_8 H 0.7252 0.0498 0.8170
C45_8 C 0.7037(7) 0.0441(4) 0.8560(4)
C46_8 C 0.6707(7) 0.0127(4) 0.8724(3)
H31_8 H 0.6534 0.0240 0.8876
C58_8 C 0.6611(4) 0.3076(3) 0.8804(2)
C59_8 C 0.6596(3) 0.2651(3) 0.8950(2)
C60_8 C 0.6359(3) 0.2616(3) 0.9198(2)
H37_8 H 0.6245 0.2863 0.9287
C61_8 C 0.6277(3) 0.2205(3) 0.9330(2)
C62_8 C 0.6471(3) 0.1874(3) 0.9210(3)
H38_8 H 0.6466 0.1614 0.9316
C63_8 C 0.6680(5) 0.1884(3) 0.8940(3)
C64_8 C 0.6781(5) 0.2303(3) 0.8831(3)
H39_8 H 0.6978 0.2335 0.8674
C65_8 C 0.6025(3) 0.2155(3) 0.9583(2)
C66_8 C 0.6718(6) 0.1112(3) 0.8838(3)
H40_8 H 0.6466 0.1006 0.8925
C68_8 C 0.7040(6) 0.0903(4) 0.8661(4)
C70_8 C 0.8229(3) 0.0111(3) 0.6909(2)
C71_8 C 0.8022(4) 0.0084(4) 0.7178(3)
H42_8 H 0.7906 0.0324 0.7274
C72_8 C 0.8274(3) 0.0518(3) 0.6759(2)
O21_6 O 0.58932(19) 0.69668(19) 0.89019(14)
O22_6 O 0.6249(2) 0.74009(19) 0.85803(15)
N10_8 N 0.7744(4) 0.9646(3) 0.7590(2)
N11_8 N 0.7534(6) 0.9238(3) 0.7631(3)
N12_8 N 0.7422(6) 0.9340(3) 0.7923(3)
N13_8 N 0.6314(6) 0.9515(4) 0.9114(3)
N14_8 N 0.6151(6) 0.9169(4) 0.9238(3)
N15_8 N 0.6124(4) 0.8879(3) 0.9015(3)
C37_8 C 0.8548(3) 0.8970(3) 0.6743(2)
C38_8 C 0.8342(4) 0.9361(3) 0.6916(2)
C39_8 C 0.8160(3) 0.9311(3) 0.7170(2)
H28_8 H 0.8142 0.9040 0.7260
C40_8 C 0.7994(5) 0.9658(4) 0.7304(3)
C41_8 C 0.7626(4) 0.9921(3) 0.7763(2)
C42_8 C 0.7404(5) 0.9685(3) 0.7999(3)
C43_8 C 0.7237(6) 0.9857(4) 0.8272(3)
C47_8 C 0.6665(7) 0.9725(4) 0.8659(3)
C48_8 C 0.6972(4) 0.9569(3) 0.8435(3)
H32_8 H 0.6993 0.9274 0.8398
C49_8 C 0.6443(5) 0.9465(4) 0.8845(4)
C50_8 C 0.6368(5) 0.8974(4) 0.8795(3)
H33_8 H 0.6475 0.8797 0.8643
C51_8 C 0.5930(4) 0.8507(3) 0.9100(3)
C52_8 C 0.6073(3) 0.8119(3) 0.8919(3)
H34_8 H 0.6282 0.8144 0.8770
C53_8 C 0.5877(3) 0.7714(3) 0.8985(2)
C54_8 C 0.5616(3) 0.7707(3) 0.9210(2)
H35_8 H 0.5554 0.7434 0.9285
C55_8 C 0.5412(4) 0.8047(3) 0.9357(2)
C56_8 C 0.5650(4) 0.8442(3) 0.9313(3)
H36_8 H 0.5600 0.8667 0.9447
C57_8 C 0.5102(3) 0.8001(3) 0.9593(2)
C67_8 C 0.6001(3) 0.7373(3) 0.8819(2)
C69_8 C 0.8431(4) 0.9772(3) 0.6790(3)
H41_8 H 0.8623 0.9804 0.6631
N10_9 N 0.0354(3) 0.7744(4) 0.7590(2)
N11_9 N 0.0762(3) 0.7534(6) 0.7631(3)
N12_9 N 0.0660(3) 0.7422(6) 0.7923(3)
N13_9 N 0.0485(4) 0.6314(6) 0.9114(3)
N14_9 N 0.0831(4) 0.6151(6) 0.9238(3)
N15_9 N 0.1121(3) 0.6124(4) 0.9015(3)
C37_9 C 0.1030(3) 0.8548(3) 0.6743(2)
C38_9 C 0.0639(3) 0.8342(4) 0.6916(2)
C39_9 C 0.0689(3) 0.8160(3) 0.7170(2)
H28_9 H 0.0960 0.8142 0.7260
C40_9 C 0.0342(4) 0.7994(5) 0.7304(3)
C41_9 C 0.0079(3) 0.7626(4) 0.7763(2)
C42_9 C 0.0315(3) 0.7404(5) 0.7999(3)
C43_9 C 0.0143(4) 0.7237(6) 0.8272(3)
C47_9 C 0.0275(4) 0.6665(7) 0.8659(3)
C48_9 C 0.0431(3) 0.6972(4) 0.8435(3)
H32_9 H 0.0726 0.6993 0.8398
C49_9 C 0.0535(4) 0.6443(5) 0.8845(4)
C50_9 C 0.1026(4) 0.6368(5) 0.8795(3)
H33_9 H 0.1203 0.6475 0.8643
C51_9 C 0.1493(3) 0.5930(4) 0.9100(3)
C52_9 C 0.1881(3) 0.6073(3) 0.8919(3)
H34_9 H 0.1856 0.6282 0.8770
C53_9 C 0.2286(3) 0.5877(3) 0.8985(2)
C54_9 C 0.2293(3) 0.5616(3) 0.9210(2)
H35_9 H 0.2566 0.5554 0.9285
C55_9 C 0.1953(3) 0.5412(4) 0.9357(2)
C56_9 C 0.1558(3) 0.5650(4) 0.9313(3)
H36_9 H 0.1333 0.5600 0.9447
C57_9 C 0.1999(3) 0.5102(3) 0.9593(2)
C67_9 C 0.2627(3) 0.6001(3) 0.8819(2)
C69_9 C 0.0228(3) 0.8431(4) 0.6790(3)
H41_9 H 0.0196 0.8623 0.6631
O19_9 O 0.66064(18) 0.64814(18) 0.89332(14)
O20_9 O 0.69247(18) 0.6871(2) 0.85658(14)
O25_9 O 0.5749(3) 0.6048(3) 0.90486(16)
H24_9 H 0.5600 0.6199 0.9207
H25_9 H 0.5936 0.5855 0.9158
O26_9 O 0.6765(2) 0.7321(3) 0.7989(2)
H26_9 H 0.6962 0.7166 0.7907
H27_9 H 0.6884 0.7538 0.8076
N16_9 N 0.8486(3) 0.6894(4) 0.8840(3)
N17_9 N 0.8437(4) 0.7209(5) 0.8632(3)
N18_9 N 0.8863(3) 0.7282(5) 0.8557(3)
H29_9 H 0.9782 0.7668 0.7749
C44_9 C 0.9696(4) 0.7180(5) 0.8322(3)
H30_9 H 0.9502 0.7252 0.8170
C45_9 C 0.9559(4) 0.7037(7) 0.8560(4)
C46_9 C 0.9873(4) 0.6707(7) 0.8724(3)
H31_9 H 0.9760 0.6534 0.8876
C58_9 C 0.6924(3) 0.6611(4) 0.8804(2)
C59_9 C 0.7349(3) 0.6596(3) 0.8950(2)
C60_9 C 0.7384(3) 0.6359(3) 0.9198(2)
H37_9 H 0.7137 0.6245 0.9287
C61_9 C 0.7795(3) 0.6277(3) 0.9330(2)
C62_9 C 0.8126(3) 0.6471(3) 0.9210(3)
H38_9 H 0.8386 0.6466 0.9316
C63_9 C 0.8116(3) 0.6680(5) 0.8940(3)
C64_9 C 0.7697(3) 0.6781(5) 0.8831(3)
H39_9 H 0.7665 0.6978 0.8674
C65_9 C 0.7845(3) 0.6025(3) 0.9583(2)
C66_9 C 0.8888(3) 0.6718(6) 0.8838(3)
H40_9 H 0.8994 0.6466 0.8925
C68_9 C 0.9097(4) 0.7040(6) 0.8661(4)
C70_9 C 0.9889(3) 0.8229(3) 0.6909(2)
C71_9 C 0.9916(4) 0.8022(4) 0.7178(3)
H42_9 H 0.9676 0.7906 0.7274
C72_9 C 0.9482(3) 0.8274(3) 0.6759(2)
O3_4 O 0.85186(18) 0.16064(18) 0.39332(14)
O4_4 O 0.8129(2) 0.19247(18) 0.35658(14)
O5_4 O 0.91068(19) 0.80332(19) 0.39019(14)
O6_4 O 0.8751(2) 0.75991(19) 0.35803(15)
O9_4 O 0.8952(3) 0.0749(3) 0.40486(16)
H1_4 H 0.8801 0.0600 0.4207
H2_4 H 0.9145 0.0936 0.4158
O10_4 O 0.7679(3) 0.1765(2) 0.2989(2)
H3_4 H 0.7834 0.1962 0.2907
H4_4 H 0.7462 0.1884 0.3076
N1_4 N 0.7256(4) 0.5354(3) 0.2590(2)
N2_4 N 0.7466(6) 0.5762(3) 0.2631(3)
N3_4 N 0.7578(6) 0.5660(3) 0.2923(3)
N4_4 N 0.8686(6) 0.5485(4) 0.4114(3)
N5_4 N 0.8849(6) 0.5831(4) 0.4238(3)
N6_4 N 0.8876(4) 0.6121(3) 0.4015(3)
N7_4 N 0.8106(4) 0.3486(3) 0.3840(3)
N8_4 N 0.7791(5) 0.3437(4) 0.3632(3)
N9_4 N 0.7718(5) 0.3863(3) 0.3557(3)
C1_4 C 0.6452(3) 0.6030(3) 0.1743(2)
C2_4 C 0.6658(4) 0.5639(3) 0.1916(2)
C3_4 C 0.6840(3) 0.5689(3) 0.2170(2)
H7_4 H 0.6858 0.5960 0.2260
C4_4 C 0.7006(5) 0.5342(4) 0.2304(3)
C5_4 C 0.7374(4) 0.5079(3) 0.2763(2)
H8_4 H 0.7332 0.4782 0.2749
C6_4 C 0.7596(5) 0.5315(3) 0.2999(3)
C7_4 C 0.7763(6) 0.5143(4) 0.3272(3)
C8_4 C 0.7820(5) 0.4696(4) 0.3322(3)
H9_4 H 0.7748 0.4502 0.3170
C9_4 C 0.7963(7) 0.4559(4) 0.3560(4)
C10_4 C 0.8293(7) 0.4873(4) 0.3724(3)
H10_4 H 0.8466 0.4760 0.3876
C11_4 C 0.8335(7) 0.5275(4) 0.3659(3)
C12_4 C 0.8028(4) 0.5431(3) 0.3435(3)
H11_4 H 0.8007 0.5726 0.3398
C13_4 C 0.8557(5) 0.5535(4) 0.3845(4)
C14_4 C 0.8632(5) 0.6026(4) 0.3795(3)
H12_4 H 0.8525 0.6203 0.3643
C15_4 C 0.9070(4) 0.6493(3) 0.4100(3)
C16_4 C 0.8927(3) 0.6881(3) 0.3919(3)
H13_4 H 0.8718 0.6856 0.3770
C17_4 C 0.9123(3) 0.7286(3) 0.3985(2)
C18_4 C 0.9384(3) 0.7293(3) 0.4210(2)
H14_4 H 0.9446 0.7566 0.4285
C19_4 C 0.9588(4) 0.6953(3) 0.4357(2)
C20_4 C 0.9350(4) 0.6558(3) 0.4313(3)
H15_4 H 0.9400 0.6333 0.4447
C21_4 C 0.9898(3) 0.6999(3) 0.4593(2)
C22_4 C 0.8389(4) 0.1924(3) 0.3804(2)
C23_4 C 0.8404(3) 0.2349(3) 0.3950(2)
C24_4 C 0.8641(3) 0.2384(3) 0.4198(2)
H16_4 H 0.8755 0.2137 0.4287
C25_4 C 0.8723(3) 0.2795(3) 0.4330(2)
C26_4 C 0.8529(3) 0.3126(3) 0.4210(3)
H17_4 H 0.8534 0.3386 0.4316
C27_4 C 0.8320(5) 0.3116(3) 0.3940(3)
C28_4 C 0.8219(5) 0.2697(3) 0.3831(3)
H18_4 H 0.8022 0.2665 0.3674
C29_4 C 0.8975(3) 0.2845(3) 0.4583(2)
C30_4 C 0.8282(6) 0.3888(3) 0.3838(3)
H19_4 H 0.8534 0.3994 0.3925
C31_4 C 0.8999(3) 0.7627(3) 0.3819(2)
C32_4 C 0.7960(6) 0.4097(4) 0.3661(4)
C33_4 C 0.6569(4) 0.5228(3) 0.1790(3)
H20_4 H 0.6377 0.5196 0.1631
C34_4 C 0.6771(3) 0.4889(3) 0.1909(2)
C35_4 C 0.6978(4) 0.4916(4) 0.2178(3)
H21_4 H 0.7094 0.4676 0.2274
C36_4 C 0.6726(3) 0.4482(3) 0.1759(2)
O19_10 O 0.83936(18) 0.85186(18) 0.39332(14)
O20_10 O 0.80753(18) 0.8129(2) 0.35658(14)
O21_7 O 0.19668(19) 0.91068(19) 0.39019(14)
O22_7 O 0.24009(19) 0.8751(2) 0.35803(15)
O25_10 O 0.9251(3) 0.8952(3) 0.40486(16)
H24_10 H 0.9400 0.8801 0.4207
H25_10 H 0.9064 0.9145 0.4158
O26_10 O 0.8235(2) 0.7679(3) 0.2989(2)
H26_10 H 0.8038 0.7834 0.2907
H27_10 H 0.8116 0.7462 0.3076
N10_10 N 0.4646(3) 0.7256(4) 0.2590(2)
N11_10 N 0.4238(3) 0.7466(6) 0.2631(3)
N12_10 N 0.4340(3) 0.7578(6) 0.2923(3)
N13_10 N 0.4515(4) 0.8686(6) 0.4114(3)
N14_10 N 0.4169(4) 0.8849(6) 0.4238(3)
N15_10 N 0.3879(3) 0.8876(4) 0.4015(3)
N16_10 N 0.6514(3) 0.8106(4) 0.3840(3)
N17_10 N 0.6563(4) 0.7791(5) 0.3632(3)
N18_10 N 0.6137(3) 0.7718(5) 0.3557(3)
C37_10 C 0.3970(3) 0.6452(3) 0.1743(2)
C38_10 C 0.4361(3) 0.6658(4) 0.1916(2)
C39_10 C 0.4311(3) 0.6840(3) 0.2170(2)
H28_10 H 0.4040 0.6858 0.2260
C40_10 C 0.4658(4) 0.7006(5) 0.2304(3)
C41_10 C 0.4921(3) 0.7374(4) 0.2763(2)
H29_10 H 0.5218 0.7332 0.2749
C42_10 C 0.4685(3) 0.7596(5) 0.2999(3)
C43_10 C 0.4857(4) 0.7763(6) 0.3272(3)
C44_10 C 0.5304(4) 0.7820(5) 0.3322(3)
H30_10 H 0.5498 0.7748 0.3170
C45_10 C 0.5441(4) 0.7963(7) 0.3560(4)
C46_10 C 0.5127(4) 0.8293(7) 0.3724(3)
H31_10 H 0.5240 0.8466 0.3876
C47_10 C 0.4725(4) 0.8335(7) 0.3659(3)
C48_10 C 0.4569(3) 0.8028(4) 0.3435(3)
H32_10 H 0.4274 0.8007 0.3398
C49_10 C 0.4465(4) 0.8557(5) 0.3845(4)
C50_10 C 0.3974(4) 0.8632(5) 0.3795(3)
H33_10 H 0.3797 0.8525 0.3643
C51_10 C 0.3507(3) 0.9070(4) 0.4100(3)
C52_10 C 0.3119(3) 0.8927(3) 0.3919(3)
H34_10 H 0.3144 0.8718 0.3770
C53_10 C 0.2714(3) 0.9123(3) 0.3985(2)
C54_10 C 0.2707(3) 0.9384(3) 0.4210(2)
H35_10 H 0.2434 0.9446 0.4285
C55_10 C 0.3047(3) 0.9588(4) 0.4357(2)
C56_10 C 0.3442(3) 0.9350(4) 0.4313(3)
H36_10 H 0.3667 0.9400 0.4447
C57_10 C 0.3001(3) 0.9898(3) 0.4593(2)
C58_10 C 0.8076(3) 0.8389(4) 0.3804(2)
C59_10 C 0.7651(3) 0.8404(3) 0.3950(2)
C60_10 C 0.7616(3) 0.8641(3) 0.4198(2)
H37_10 H 0.7863 0.8755 0.4287
C61_10 C 0.7205(3) 0.8723(3) 0.4330(2)
C62_10 C 0.6874(3) 0.8529(3) 0.4210(3)
H38_10 H 0.6614 0.8534 0.4316
C63_10 C 0.6884(3) 0.8320(5) 0.3940(3)
C64_10 C 0.7303(3) 0.8219(5) 0.3831(3)
H39_10 H 0.7335 0.8022 0.3674
C65_10 C 0.7155(3) 0.8975(3) 0.4583(2)
C66_10 C 0.6112(3) 0.8282(6) 0.3838(3)
H40_10 H 0.6006 0.8534 0.3925
C67_10 C 0.2373(3) 0.8999(3) 0.3819(2)
C68_10 C 0.5903(4) 0.7960(6) 0.3661(4)
C69_10 C 0.4772(3) 0.6569(4) 0.1790(3)
H41_10 H 0.4804 0.6377 0.1631
C70_10 C 0.5111(3) 0.6771(3) 0.1909(2)
C71_10 C 0.5084(4) 0.6978(4) 0.2178(3)
H42_10 H 0.5324 0.7094 0.2274
C72_10 C 0.5518(3) 0.6726(3) 0.1759(2)
O35_4 O 0.80332(19) 0.08932(19) 0.39019(14)
O36_4 O 0.75991(19) 0.1249(2) 0.35803(15)
O19_11 O 0.14814(18) 0.83936(18) 0.39332(14)
O20_11 O 0.1871(2) 0.80753(18) 0.35658(14)
O21_8 O 0.08932(19) 0.19668(19) 0.39019(14)
O22_8 O 0.1249(2) 0.24009(19) 0.35803(15)
O25_11 O 0.1048(3) 0.9251(3) 0.40486(16)
H24_11 H 0.1199 0.9400 0.4207
H25_11 H 0.0855 0.9064 0.4158
O26_11 O 0.2321(3) 0.8235(2) 0.2989(2)
H26_11 H 0.2166 0.8038 0.2907
H27_11 H 0.2538 0.8116 0.3076
N10_11 N 0.2744(4) 0.4646(3) 0.2590(2)
N11_11 N 0.2534(6) 0.4238(3) 0.2631(3)
N12_11 N 0.2422(6) 0.4340(3) 0.2923(3)
N13_11 N 0.1314(6) 0.4515(4) 0.4114(3)
N14_11 N 0.1151(6) 0.4169(4) 0.4238(3)
N15_11 N 0.1124(4) 0.3879(3) 0.4015(3)
N16_11 N 0.1894(4) 0.6514(3) 0.3840(3)
N17_11 N 0.2209(5) 0.6563(4) 0.3632(3)
N18_11 N 0.2282(5) 0.6137(3) 0.3557(3)
C37_11 C 0.3548(3) 0.3970(3) 0.1743(2)
C38_11 C 0.3342(4) 0.4361(3) 0.1916(2)
C39_11 C 0.3160(3) 0.4311(3) 0.2170(2)
H28_11 H 0.3142 0.4040 0.2260
C40_11 C 0.2994(5) 0.4658(4) 0.2304(3)
C41_11 C 0.2626(4) 0.4921(3) 0.2763(2)
H29_11 H 0.2668 0.5218 0.2749
C42_11 C 0.2404(5) 0.4685(3) 0.2999(3)
C43_11 C 0.2237(6) 0.4857(4) 0.3272(3)
C44_11 C 0.2180(5) 0.5304(4) 0.3322(3)
H30_11 H 0.2252 0.5498 0.3170
C45_11 C 0.2037(7) 0.5441(4) 0.3560(4)
C46_11 C 0.1707(7) 0.5127(4) 0.3724(3)
H31_11 H 0.1534 0.5240 0.3876
C47_11 C 0.1665(7) 0.4725(4) 0.3659(3)
C48_11 C 0.1972(4) 0.4569(3) 0.3435(3)
H32_11 H 0.1993 0.4274 0.3398
C49_11 C 0.1443(5) 0.4465(4) 0.3845(4)
C50_11 C 0.1368(5) 0.3974(4) 0.3795(3)
H33_11 H 0.1475 0.3797 0.3643
C51_11 C 0.0930(4) 0.3507(3) 0.4100(3)
C52_11 C 0.1073(3) 0.3119(3) 0.3919(3)
H34_11 H 0.1282 0.3144 0.3770
C53_11 C 0.0877(3) 0.2714(3) 0.3985(2)
C54_11 C 0.0616(3) 0.2707(3) 0.4210(2)
H35_11 H 0.0554 0.2434 0.4285
C55_11 C 0.0412(4) 0.3047(3) 0.4357(2)
C56_11 C 0.0650(4) 0.3442(3) 0.4313(3)
H36_11 H 0.0600 0.3667 0.4447
C57_11 C 0.0102(3) 0.3001(3) 0.4593(2)
C58_11 C 0.1611(4) 0.8076(3) 0.3804(2)
C59_11 C 0.1596(3) 0.7651(3) 0.3950(2)
C60_11 C 0.1359(3) 0.7616(3) 0.4198(2)
H37_11 H 0.1245 0.7863 0.4287
C61_11 C 0.1277(3) 0.7205(3) 0.4330(2)
C62_11 C 0.1471(3) 0.6874(3) 0.4210(3)
H38_11 H 0.1466 0.6614 0.4316
C63_11 C 0.1680(5) 0.6884(3) 0.3940(3)
C64_11 C 0.1781(5) 0.7303(3) 0.3831(3)
H39_11 H 0.1978 0.7335 0.3674
C65_11 C 0.1025(3) 0.7155(3) 0.4583(2)
C66_11 C 0.1718(6) 0.6112(3) 0.3838(3)
H40_11 H 0.1466 0.6006 0.3925
C67_11 C 0.1001(3) 0.2373(3) 0.3819(2)
C68_11 C 0.2040(6) 0.5903(4) 0.3661(4)
C69_11 C 0.3431(4) 0.4772(3) 0.1790(3)
H41_11 H 0.3623 0.4804 0.1631
C70_11 C 0.3229(3) 0.5111(3) 0.1909(2)
C71_11 C 0.3022(4) 0.5084(4) 0.2178(3)
H42_11 H 0.2906 0.5324 0.2274
C72_11 C 0.3274(3) 0.5518(3) 0.1759(2)
O19_12 O 0.16064(18) 0.14814(18) 0.39332(14)
O20_12 O 0.19247(18) 0.1871(2) 0.35658(14)
O25_12 O 0.0749(3) 0.1048(3) 0.40486(16)
H24_12 H 0.0600 0.1199 0.4207
H25_12 H 0.0936 0.0855 0.4158
O26_12 O 0.1765(2) 0.2321(3) 0.2989(2)
H26_12 H 0.1962 0.2166 0.2907
H27_12 H 0.1884 0.2538 0.3076
N10_12 N 0.5354(3) 0.2744(4) 0.2590(2)
N11_12 N 0.5762(3) 0.2534(6) 0.2631(3)
N12_12 N 0.5660(3) 0.2422(6) 0.2923(3)
N13_12 N 0.5485(4) 0.1314(6) 0.4114(3)
N14_12 N 0.5831(4) 0.1151(6) 0.4238(3)
N15_12 N 0.6121(3) 0.1124(4) 0.4015(3)
N16_12 N 0.3486(3) 0.1894(4) 0.3840(3)
N17_12 N 0.3437(4) 0.2209(5) 0.3632(3)
N18_12 N 0.3863(3) 0.2282(5) 0.3557(3)
C37_12 C 0.6030(3) 0.3548(3) 0.1743(2)
C38_12 C 0.5639(3) 0.3342(4) 0.1916(2)
C39_12 C 0.5689(3) 0.3160(3) 0.2170(2)
H28_12 H 0.5960 0.3142 0.2260
C40_12 C 0.5342(4) 0.2994(5) 0.2304(3)
C41_12 C 0.5079(3) 0.2626(4) 0.2763(2)
H29_12 H 0.4782 0.2668 0.2749
C42_12 C 0.5315(3) 0.2404(5) 0.2999(3)
C43_12 C 0.5143(4) 0.2237(6) 0.3272(3)
C44_12 C 0.4696(4) 0.2180(5) 0.3322(3)
H30_12 H 0.4502 0.2252 0.3170
C45_12 C 0.4559(4) 0.2037(7) 0.3560(4)
C46_12 C 0.4873(4) 0.1707(7) 0.3724(3)
H31_12 H 0.4760 0.1534 0.3876
C47_12 C 0.5275(4) 0.1665(7) 0.3659(3)
C48_12 C 0.5431(3) 0.1972(4) 0.3435(3)
H32_12 H 0.5726 0.1993 0.3398
C49_12 C 0.5535(4) 0.1443(5) 0.3845(4)
C50_12 C 0.6026(4) 0.1368(5) 0.3795(3)
H33_12 H 0.6203 0.1475 0.3643
C51_12 C 0.6493(3) 0.0930(4) 0.4100(3)
C52_12 C 0.6881(3) 0.1073(3) 0.3919(3)
H34_12 H 0.6856 0.1282 0.3770
C53_12 C 0.7286(3) 0.0877(3) 0.3985(2)
C54_12 C 0.7293(3) 0.0616(3) 0.4210(2)
H35_12 H 0.7566 0.0554 0.4285
C55_12 C 0.6953(3) 0.0412(4) 0.4357(2)
C56_12 C 0.6558(3) 0.0650(4) 0.4313(3)
H36_12 H 0.6333 0.0600 0.4447
C57_12 C 0.6999(3) 0.0102(3) 0.4593(2)
C58_12 C 0.1924(3) 0.1611(4) 0.3804(2)
C59_12 C 0.2349(3) 0.1596(3) 0.3950(2)
C60_12 C 0.2384(3) 0.1359(3) 0.4198(2)
H37_12 H 0.2137 0.1245 0.4287
C61_12 C 0.2795(3) 0.1277(3) 0.4330(2)
C62_12 C 0.3126(3) 0.1471(3) 0.4210(3)
H38_12 H 0.3386 0.1466 0.4316
C63_12 C 0.3116(3) 0.1680(5) 0.3940(3)
C64_12 C 0.2697(3) 0.1781(5) 0.3831(3)
H39_12 H 0.2665 0.1978 0.3674
C65_12 C 0.2845(3) 0.1025(3) 0.4583(2)
C66_12 C 0.3888(3) 0.1718(6) 0.3838(3)
H40_12 H 0.3994 0.1466 0.3925
C67_12 C 0.7627(3) 0.1001(3) 0.3819(2)
C68_12 C 0.4097(4) 0.2040(6) 0.3661(4)
C69_12 C 0.5228(3) 0.3431(4) 0.1790(3)
H41_12 H 0.5196 0.3623 0.1631
C70_12 C 0.4889(3) 0.3229(3) 0.1909(2)
C71_12 C 0.4916(4) 0.3022(4) 0.2178(3)
H42_12 H 0.4676 0.2906 0.2274
C72_12 C 0.4482(3) 0.3274(3) 0.1759(2)
loop_
_geom_bond_atom_site_label_1
_geom_bond_atom_site_label_2
_geom_bond_site_symmetry_1
_geom_bond_site_symmetry_2
O17 C37 1_555 1_555
O18 C37 1_555 1_555
O21 C67 1_555 1_555
O22 C67 1_555 1_555
O29 C57 1_555 1_555
O30 C57 1_555 1_555
N10 N11 1_555 1_555
N11 N12 1_555 1_555
N12 C42 1_555 1_555
N13 N14 1_555 1_555
N14 N15 1_555 1_555
N15 C50 1_555 1_555
C37 C38 1_555 1_555
C38 C39 1_555 1_555
C39 H28 1_555 1_555
C40 N10 1_555 1_555
C41 N10 1_555 1_555
C42 C41 1_555 1_555
C43 C42 1_555 1_555
C48 C43 1_555 1_555
H32 C48 1_555 1_555
C49 N13 1_555 1_555
C50 C49 1_555 1_555
H33 C50 1_555 1_555
C51 N15 1_555 1_555
C52 C51 1_555 1_555
H34 C52 1_555 1_555
C53 C52 1_555 1_555
C54 C53 1_555 1_555
H35 C54 1_555 1_555
C55 C54 1_555 1_555
C56 C51 1_555 1_555
H36 C56 1_555 1_555
C57 C55 1_555 1_555
C67 C53 1_555 1_555
C69 C38 1_555 1_555
H41 C69 1_555 1_555
Cu7 O21 1_555 1_555
Cu10 O17 1_555 1_555
Cu11 O22 1_555 1_555
Cu14 O18 1_555 1_555
Cu17 O29 1_555 1_555
Cu20 O30 1_555 1_555
C39 C40 1_555 1_555
C47 C48 1_555 1_555
C47 C49 1_555 1_555
C55 C56 1_555 1_555
Cu7 Cu11 1_555 1_555
Cu10 Cu14 1_555 1_555
Cu17 Cu20 1_555 1_555
Cu17_2 Cu20_2 1_555 1_555
Cu1 Cu2 1_555 1_555
Cu2 O4 1_555 1_555
Cu3 Cu4 1_555 1_555
Cu4 O12 1_555 1_555
O3 Cu1 1_555 1_555
O4 C22 1_555 1_555
O7 C36 1_555 1_555
O8 C36 1_555 1_555
O9 Cu1 1_555 1_555
H1 O9 1_555 1_555
H2 O9 1_555 1_555
O10 Cu2 1_555 1_555
H3 O10 1_555 1_555
H4 O10 1_555 1_555
O11 Cu3 1_555 1_555
O12 C29 1_555 1_555
O15 Cu3 1_555 1_555
H5 O15 1_555 1_555
O16 Cu4 1_555 1_555
N7 N8 1_555 1_555
N8 N9 1_555 1_555
N9 C32 1_555 1_555
H9 C8 1_555 1_555
C9 C8 1_555 1_555
C10 C9 1_555 1_555
H10 C10 1_555 1_555
C22 O3 1_555 1_555
C23 C22 1_555 1_555
C24 C23 1_555 1_555
H16 C24 1_555 1_555
C25 C24 1_555 1_555
C26 C25 1_555 1_555
H17 C26 1_555 1_555
C27 N7 1_555 1_555
C28 C23 1_555 1_555
H18 C28 1_555 1_555
C29 O11 1_555 1_555
C30 N7 1_555 1_555
H19 C30 1_555 1_555
C32 C9 1_555 1_555
H21 C35 1_555 1_555
C36 C34 1_555 1_555
H23 O16 1_555 1_555
Cu8 O7 1_555 1_555
Cu12 O8 1_555 1_555
O32 Cu1 1_555 1_555
O34 Cu2 1_555 1_555
O35 Cu1 1_555 1_555
O36 Cu2 1_555 1_555
O37 Cu1 1_555 1_555
O39 Cu2 1_555 1_555
O43 Cu3 1_555 1_555
O45 Cu4 1_555 1_555
C25 C29 1_555 1_555
C26 C27 1_555 1_555
C27 C28 1_555 1_555
C30 C32 1_555 1_555
C34 C35 1_555 1_555
Cu8 Cu12 1_555 1_555
Cu3_2 Cu4_2 1_555 1_555
O15_2 Cu3_2 1_555 1_555
O16_2 Cu4_2 1_555 1_555
H6 O16_2 1_555 1_555
H22 O15_2 1_555 1_555
O41 Cu3_2 1_555 1_555
O42 Cu4_2 1_555 1_555
O44 Cu3_2 1_555 1_555
O46 Cu4_2 1_555 1_555
O1 C1 1_555 1_555
O2 C1 1_555 1_555
O5 C31 1_555 1_555
O6 C31 1_555 1_555
O13 C21 1_555 1_555
O14 C21 1_555 1_555
N1 N2 1_555 1_555
N2 N3 1_555 1_555
N3 C6 1_555 1_555
N4 N5 1_555 1_555
N5 N6 1_555 1_555
N6 C14 1_555 1_555
C1 C2 1_555 1_555
C2 C3 1_555 1_555
C3 H7 1_555 1_555
C4 N1 1_555 1_555
C5 N1 1_555 1_555
C6 C5 1_555 1_555
C7 C6 1_555 1_555
C12 C7 1_555 1_555
H11 C12 1_555 1_555
C13 N4 1_555 1_555
C14 C13 1_555 1_555
H12 C14 1_555 1_555
C15 N6 1_555 1_555
C16 C15 1_555 1_555
H13 C16 1_555 1_555
C17 C16 1_555 1_555
C18 C17 1_555 1_555
H14 C18 1_555 1_555
C19 C18 1_555 1_555
C20 C15 1_555 1_555
H15 C20 1_555 1_555
C21 C19 1_555 1_555
C31 C17 1_555 1_555
C33 C2 1_555 1_555
H20 C33 1_555 1_555
Cu5 O5 1_555 1_555
Cu6 O6 1_555 1_555
O19 Cu5 1_555 1_555
O20 Cu6 1_555 1_555
O23 C72 1_555 1_555
O24 C72 1_555 1_555
O25 Cu5 1_555 1_555
H24 O25 1_555 1_555
H25 O25 1_555 1_555
O26 Cu6 1_555 1_555
H26 O26 1_555 1_555
H27 O26 1_555 1_555
O27 C65 1_555 1_555
O28 C65 1_555 1_555
N16 N17 1_555 1_555
N17 N18 1_555 1_555
N18 C68 1_555 1_555
H30 C44 1_555 1_555
C45 C44 1_555 1_555
C46 C45 1_555 1_555
H31 C46 1_555 1_555
C58 O19 1_555 1_555
C59 C58 1_555 1_555
C60 C59 1_555 1_555
H37 C60 1_555 1_555
C61 C60 1_555 1_555
C62 C61 1_555 1_555
H38 C62 1_555 1_555
C63 N16 1_555 1_555
C64 C59 1_555 1_555
H39 C64 1_555 1_555
C65 C61 1_555 1_555
C66 N16 1_555 1_555
H40 C66 1_555 1_555
C68 C45 1_555 1_555
H42 C71 1_555 1_555
C72 C70 1_555 1_555
Cu9 O1 1_555 1_555
Cu13 O2 1_555 1_555
Cu15 O27 1_555 1_555
Cu16 O13 1_555 1_555
Cu18 O28 1_555 1_555
Cu19 O14 1_555 1_555
O31 Cu5 1_555 1_555
O33 Cu6 1_555 1_555
O38 Cu5 1_555 1_555
O40 Cu6 1_555 1_555
C3 C4 1_555 1_555
C11 C12 1_555 1_555
C11 C13 1_555 1_555
C19 C20 1_555 1_555
Cu5 Cu6 1_555 1_555
O20 C58 1_555 1_555
O23 Cu9 1_555 1_555
O24 Cu13 1_555 1_555
C62 C63 1_555 1_555
C63 C64 1_555 1_555
C66 C68 1_555 1_555
C70 C71 1_555 1_555
Cu9 Cu13 1_555 1_555
Cu15 Cu18 1_555 1_555
Cu16 Cu19 1_555 1_555
Cu15_2 Cu18_2 1_555 1_555
Cu16_2 Cu19_2 1_555 1_555
O17_2 C37_2 1_555 1_555
O18_2 C37_2 1_555 1_555
O21_2 C67_2 1_555 1_555
O22_2 C67_2 1_555 1_555
O43 C57_2 1_555 1_555
O45 C57_2 1_555 1_555
N10_2 N11_2 1_555 1_555
N11_2 N12_2 1_555 1_555
N12_2 C42_2 1_555 1_555
N13_2 N14_2 1_555 1_555
N14_2 N15_2 1_555 1_555
N15_2 C50_2 1_555 1_555
C37_2 C38_2 1_555 1_555
C38_2 C39_2 1_555 1_555
C39_2 H28_2 1_555 1_555
C40_2 N10_2 1_555 1_555
C41_2 N10_2 1_555 1_555
C42_2 C41_2 1_555 1_555
C43_2 C42_2 1_555 1_555
C48_2 C43_2 1_555 1_555
H32_2 C48_2 1_555 1_555
C49_2 N13_2 1_555 1_555
C50_2 C49_2 1_555 1_555
H33_2 C50_2 1_555 1_555
C51_2 N15_2 1_555 1_555
C52_2 C51_2 1_555 1_555
H34_2 C52_2 1_555 1_555
C53_2 C52_2 1_555 1_555
C54_2 C53_2 1_555 1_555
H35_2 C54_2 1_555 1_555
C55_2 C54_2 1_555 1_555
C56_2 C51_2 1_555 1_555
H36_2 C56_2 1_555 1_555
C57_2 C55_2 1_555 1_555
C67_2 C53_2 1_555 1_555
C69_2 C38_2 1_555 1_555
H41_2 C69_2 1_555 1_555
Cu7_2 O21_2 1_555 1_555
Cu10_2 O17_2 1_555 1_555
Cu11_2 O22_2 1_555 1_555
Cu14_2 O18_2 1_555 1_555
C39_2 C40_2 1_555 1_555
C47_2 C48_2 1_555 1_555
C47_2 C49_2 1_555 1_555
C55_2 C56_2 1_555 1_555
Cu7_2 Cu11_2 1_555 1_555
Cu10_2 Cu14_2 1_555 1_555
O19_2 Cu7 1_555 1_555
O20_2 Cu11 1_555 1_555
O23_2 C72_2 1_555 1_555
O24_2 C72_2 1_555 1_555
O25_2 Cu7 1_555 1_555
H24_2 O25_2 1_555 1_555
H25_2 O25_2 1_555 1_555
O26_2 Cu11 1_555 1_555
H26_2 O26_2 1_555 1_555
H27_2 O26_2 1_555 1_555
O27_2 C65_2 1_555 1_555
O28_2 C65_2 1_555 1_555
N16_2 N17_2 1_555 1_555
N17_2 N18_2 1_555 1_555
N18_2 C68_2 1_555 1_555
H30_2 C44_2 1_555 1_555
C45_2 C44_2 1_555 1_555
C46_2 C45_2 1_555 1_555
H31_2 C46_2 1_555 1_555
C58_2 O19_2 1_555 1_555
C59_2 C58_2 1_555 1_555
C60_2 C59_2 1_555 1_555
H37_2 C60_2 1_555 1_555
C61_2 C60_2 1_555 1_555
C62_2 C61_2 1_555 1_555
H38_2 C62_2 1_555 1_555
C63_2 N16_2 1_555 1_555
C64_2 C59_2 1_555 1_555
H39_2 C64_2 1_555 1_555
C65_2 C61_2 1_555 1_555
C66_2 N16_2 1_555 1_555
H40_2 C66_2 1_555 1_555
C68_2 C45_2 1_555 1_555
H42_2 C71_2 1_555 1_555
C72_2 C70_2 1_555 1_555
Cu16 O27_2 1_555 1_555
Cu19 O28_2 1_555 1_555
O31_2 Cu7 1_555 1_555
O33_2 Cu11 1_555 1_555
O38_2 Cu7 1_555 1_555
O40_2 Cu11 1_555 1_555
O20_2 C58_2 1_555 1_555
O23_2 Cu10 1_555 1_555
O24_2 Cu14 1_555 1_555
C62_2 C63_2 1_555 1_555
C63_2 C64_2 1_555 1_555
C66_2 C68_2 1_555 1_555
C70_2 C71_2 1_555 1_555
O15_3 Cu15 1_555 1_555
H5_2 O15_3 1_555 1_555
O16_3 Cu18 1_555 1_555
H23_2 O16_3 1_555 1_555
O43_2 Cu15 1_555 1_555
O45_2 Cu18 1_555 1_555
O15_4 Cu15_2 1_555 1_555
O16_4 Cu18_2 1_555 1_555
H6_2 O16_4 1_555 1_555
H22_2 O15_4 1_555 1_555
O41_2 Cu15_2 1_555 1_555
O42_2 Cu18_2 1_555 1_555
O44_2 Cu15_2 1_555 1_555
O46_2 Cu18_2 1_555 1_555
O19_3 Cu7_2 1_555 1_555
O20_3 Cu11_2 1_555 1_555
O23_3 C72_3 1_555 1_555
O24_3 C72_3 1_555 1_555
O25_3 Cu7_2 1_555 1_555
H24_3 O25_3 1_555 1_555
H25_3 O25_3 1_555 1_555
O26_3 Cu11_2 1_555 1_555
H26_3 O26_3 1_555 1_555
H27_3 O26_3 1_555 1_555
O27_3 C65_3 1_555 1_555
O28_3 C65_3 1_555 1_555
N16_3 N17_3 1_555 1_555
N17_3 N18_3 1_555 1_555
N18_3 C68_3 1_555 1_555
H30_3 C44_3 1_555 1_555
C45_3 C44_3 1_555 1_555
C46_3 C45_3 1_555 1_555
H31_3 C46_3 1_555 1_555
C58_3 O19_3 1_555 1_555
C59_3 C58_3 1_555 1_555
C60_3 C59_3 1_555 1_555
H37_3 C60_3 1_555 1_555
C61_3 C60_3 1_555 1_555
C62_3 C61_3 1_555 1_555
H38_3 C62_3 1_555 1_555
C63_3 N16_3 1_555 1_555
C64_3 C59_3 1_555 1_555
H39_3 C64_3 1_555 1_555
C65_3 C61_3 1_555 1_555
C66_3 N16_3 1_555 1_555
H40_3 C66_3 1_555 1_555
C68_3 C45_3 1_555 1_555
H42_3 C71_3 1_555 1_555
C72_3 C70_3 1_555 1_555
Cu17 O27_3 1_555 1_555
Cu20 O28_3 1_555 1_555
O31_3 Cu7_2 1_555 1_555
O33_3 Cu11_2 1_555 1_555
O38_3 Cu7_2 1_555 1_555
O40_3 Cu11_2 1_555 1_555
O20_3 C58_3 1_555 1_555
O23_3 Cu10_2 1_555 1_555
O24_3 Cu14_2 1_555 1_555
C62_3 C63_3 1_555 1_555
C63_3 C64_3 1_555 1_555
C66_3 C68_3 1_555 1_555
C70_3 C71_3 1_555 1_555
O15_5 Cu16 1_555 1_555
H5_3 O15_5 1_555 1_555
O16_5 Cu19 1_555 1_555
H23_3 O16_5 1_555 1_555
O15_6 Cu16_2 1_555 1_555
O16_6 Cu19_2 1_555 1_555
H6_3 O16_6 1_555 1_555
H22_3 O15_6 1_555 1_555
O41_3 Cu16_2 1_555 1_555
O42_3 Cu19_2 1_555 1_555
O44_3 Cu16_2 1_555 1_555
O46_3 Cu19_2 1_555 1_555
O17_3 C37_3 1_555 1_555
O18_3 C37_3 1_555 1_555
O35 C67_3 1_555 1_555
O36 C67_3 1_555 1_555
O43_2 C57_3 1_555 1_555
O45_2 C57_3 1_555 1_555
N10_3 N11_3 1_555 1_555
N11_3 N12_3 1_555 1_555
N12_3 C42_3 1_555 1_555
N13_3 N14_3 1_555 1_555
N14_3 N15_3 1_555 1_555
N15_3 C50_3 1_555 1_555
C37_3 C38_3 1_555 1_555
C38_3 C39_3 1_555 1_555
C39_3 H28_3 1_555 1_555
C40_3 N10_3 1_555 1_555
C41_3 N10_3 1_555 1_555
C42_3 C41_3 1_555 1_555
C43_3 C42_3 1_555 1_555
C48_3 C43_3 1_555 1_555
H32_3 C48_3 1_555 1_555
C49_3 N13_3 1_555 1_555
C50_3 C49_3 1_555 1_555
H33_3 C50_3 1_555 1_555
C51_3 N15_3 1_555 1_555
C52_3 C51_3 1_555 1_555
H34_3 C52_3 1_555 1_555
C53_3 C52_3 1_555 1_555
C54_3 C53_3 1_555 1_555
H35_3 C54_3 1_555 1_555
C55_3 C54_3 1_555 1_555
C56_3 C51_3 1_555 1_555
H36_3 C56_3 1_555 1_555
C57_3 C55_3 1_555 1_555
C67_3 C53_3 1_555 1_555
C69_3 C38_3 1_555 1_555
H41_3 C69_3 1_555 1_555
Cu8 O17_3 1_555 1_555
Cu12 O18_3 1_555 1_555
C39_3 C40_3 1_555 1_555
C47_3 C48_3 1_555 1_555
C47_3 C49_3 1_555 1_555
C55_3 C56_3 1_555 1_555
O15_7 Cu17 1_555 1_555
H5_4 O15_7 1_555 1_555
O16_7 Cu20 1_555 1_555
H23_4 O16_7 1_555 1_555
O15_8 Cu17_2 1_555 1_555
O16_8 Cu20_2 1_555 1_555
H6_4 O16_8 1_555 1_555
H22_4 O15_8 1_555 1_555
O41_4 Cu17_2 1_555 1_555
O42_4 Cu20_2 1_555 1_555
O44_4 Cu17_2 1_555 1_555
O46_4 Cu20_2 1_555 1_555
Cu1_2 Cu2_2 1_555 1_555
Cu2_2 O4_2 1_555 1_555
Cu3_3 Cu4_3 1_555 1_555
Cu4_3 O12_2 1_555 1_555
O1_2 C1_2 1_555 1_555
O2_2 C1_2 1_555 1_555
O3_2 Cu1_2 1_555 1_555
O4_2 C22_2 1_555 1_555
O5_2 C31_2 1_555 1_555
O6_2 C31_2 1_555 1_555
O7_2 C36_2 1_555 1_555
O8_2 C36_2 1_555 1_555
O9_2 Cu1_2 1_555 1_555
H1_2 O9_2 1_555 1_555
H2_2 O9_2 1_555 1_555
O10_2 Cu2_2 1_555 1_555
H3_2 O10_2 1_555 1_555
H4_2 O10_2 1_555 1_555
O11_2 Cu3_3 1_555 1_555
O12_2 C29_2 1_555 1_555
O13_2 C21_2 1_555 1_555
O15_9 Cu3_3 1_555 1_555
H5_5 O15_9 1_555 1_555
O16_9 Cu4_3 1_555 1_555
H6_5 O16_9 1_555 1_555
N1_2 N2_2 1_555 1_555
N2_2 N3_2 1_555 1_555
N3_2 C6_2 1_555 1_555
N4_2 N5_2 1_555 1_555
N5_2 N6_2 1_555 1_555
N6_2 C14_2 1_555 1_555
N7_2 N8_2 1_555 1_555
N8_2 N9_2 1_555 1_555
N9_2 C32_2 1_555 1_555
C1_2 C2_2 1_555 1_555
C2_2 C3_2 1_555 1_555
C3_2 H7_2 1_555 1_555
C4_2 N1_2 1_555 1_555
C5_2 N1_2 1_555 1_555
H8_2 C5_2 1_555 1_555
C6_2 C5_2 1_555 1_555
C7_2 C6_2 1_555 1_555
C8_2 C7_2 1_555 1_555
H9_2 C8_2 1_555 1_555
C9_2 C8_2 1_555 1_555
C10_2 C9_2 1_555 1_555
H10_2 C10_2 1_555 1_555
C11_2 C10_2 1_555 1_555
C12_2 C7_2 1_555 1_555
H11_2 C12_2 1_555 1_555
C13_2 N4_2 1_555 1_555
C14_2 C13_2 1_555 1_555
H12_2 C14_2 1_555 1_555
C15_2 N6_2 1_555 1_555
C16_2 C15_2 1_555 1_555
H13_2 C16_2 1_555 1_555
C17_2 C16_2 1_555 1_555
C18_2 C17_2 1_555 1_555
H14_2 C18_2 1_555 1_555
C19_2 C18_2 1_555 1_555
C20_2 C15_2 1_555 1_555
H15_2 C20_2 1_555 1_555
C21_2 C19_2 1_555 1_555
C22_2 O3_2 1_555 1_555
C23_2 C22_2 1_555 1_555
C24_2 C23_2 1_555 1_555
H16_2 C24_2 1_555 1_555
C25_2 C24_2 1_555 1_555
C26_2 C25_2 1_555 1_555
H17_2 C26_2 1_555 1_555
C27_2 N7_2 1_555 1_555
C28_2 C23_2 1_555 1_555
H18_2 C28_2 1_555 1_555
C29_2 O11_2 1_555 1_555
C30_2 N7_2 1_555 1_555
H19_2 C30_2 1_555 1_555
C31_2 C17_2 1_555 1_555
C32_2 C9_2 1_555 1_555
C33_2 C2_2 1_555 1_555
H20_2 C33_2 1_555 1_555
C34_2 C33_2 1_555 1_555
C35_2 C4_2 1_555 1_555
H21_2 C35_2 1_555 1_555
C36_2 C34_2 1_555 1_555
H22_5 O15_9 1_555 1_555
H23_5 O16_9 1_555 1_555
Cu5_2 O5_2 1_555 1_555
Cu6_2 O6_2 1_555 1_555
O17_4 C37_4 1_555 1_555
O18_4 C37_4 1_555 1_555
O19_4 Cu5_2 1_555 1_555
O20_4 Cu6_2 1_555 1_555
O21_3 C67_4 1_555 1_555
O22_3 C67_4 1_555 1_555
O23_4 C72_4 1_555 1_555
O24_4 C72_4 1_555 1_555
O25_4 Cu5_2 1_555 1_555
H24_4 O25_4 1_555 1_555
H25_4 O25_4 1_555 1_555
O26_4 Cu6_2 1_555 1_555
H26_4 O26_4 1_555 1_555
H27_4 O26_4 1_555 1_555
O27_4 C65_4 1_555 1_555
O28_4 C65_4 1_555 1_555
O29_2 C57_4 1_555 1_555
N10_4 N11_4 1_555 1_555
N11_4 N12_4 1_555 1_555
N12_4 C42_4 1_555 1_555
N13_4 N14_4 1_555 1_555
N14_4 N15_4 1_555 1_555
N15_4 C50_4 1_555 1_555
N16_4 N17_4 1_555 1_555
N17_4 N18_4 1_555 1_555
N18_4 C68_4 1_555 1_555
C37_4 C38_4 1_555 1_555
C38_4 C39_4 1_555 1_555
C39_4 H28_4 1_555 1_555
C40_4 N10_4 1_555 1_555
C41_4 N10_4 1_555 1_555
H29_4 C41_4 1_555 1_555
C42_4 C41_4 1_555 1_555
C43_4 C42_4 1_555 1_555
C44_4 C43_4 1_555 1_555
H30_4 C44_4 1_555 1_555
C45_4 C44_4 1_555 1_555
C46_4 C45_4 1_555 1_555
H31_4 C46_4 1_555 1_555
C47_4 C46_4 1_555 1_555
C48_4 C43_4 1_555 1_555
H32_4 C48_4 1_555 1_555
C49_4 N13_4 1_555 1_555
C50_4 C49_4 1_555 1_555
H33_4 C50_4 1_555 1_555
C51_4 N15_4 1_555 1_555
C52_4 C51_4 1_555 1_555
H34_4 C52_4 1_555 1_555
C53_4 C52_4 1_555 1_555
C54_4 C53_4 1_555 1_555
H35_4 C54_4 1_555 1_555
C55_4 C54_4 1_555 1_555
C56_4 C51_4 1_555 1_555
H36_4 C56_4 1_555 1_555
C57_4 C55_4 1_555 1_555
C58_4 O19_4 1_555 1_555
C59_4 C58_4 1_555 1_555
C60_4 C59_4 1_555 1_555
H37_4 C60_4 1_555 1_555
C61_4 C60_4 1_555 1_555
C62_4 C61_4 1_555 1_555
H38_4 C62_4 1_555 1_555
C63_4 N16_4 1_555 1_555
C64_4 C59_4 1_555 1_555
H39_4 C64_4 1_555 1_555
C65_4 C61_4 1_555 1_555
C66_4 N16_4 1_555 1_555
H40_4 C66_4 1_555 1_555
C67_4 C53_4 1_555 1_555
C68_4 C45_4 1_555 1_555
C69_4 C38_4 1_555 1_555
H41_4 C69_4 1_555 1_555
C70_4 C69_4 1_555 1_555
C71_4 C40_4 1_555 1_555
H42_4 C71_4 1_555 1_555
C72_4 C70_4 1_555 1_555
Cu7_3 O21_3 1_555 1_555
Cu8_2 O7_2 1_555 1_555
Cu9_2 O1_2 1_555 1_555
Cu10_3 O17_4 1_555 1_555
Cu11_3 O22_3 1_555 1_555
Cu12_2 O8_2 1_555 1_555
Cu13_2 O2_2 1_555 1_555
Cu14_3 O18_4 1_555 1_555
Cu15_3 O27_4 1_555 1_555
Cu18_3 O28_4 1_555 1_555
O31_4 Cu5_2 1_555 1_555
O32_2 Cu1_2 1_555 1_555
O33_4 Cu6_2 1_555 1_555
O34_2 Cu2_2 1_555 1_555
O35_2 Cu1_2 1_555 1_555
O36_2 Cu2_2 1_555 1_555
O37_2 Cu1_2 1_555 1_555
O38_4 Cu5_2 1_555 1_555
O39_2 Cu2_2 1_555 1_555
O40_4 Cu6_2 1_555 1_555
O41_5 Cu3_3 1_555 1_555
O42_5 Cu4_3 1_555 1_555
O45_3 Cu4_3 1_555 1_555
O46_5 Cu4_3 1_555 1_555
C3_2 C4_2 1_555 1_555
C11_2 C12_2 1_555 1_555
C11_2 C13_2 1_555 1_555
C19_2 C20_2 1_555 1_555
C25_2 C29_2 1_555 1_555
C26_2 C27_2 1_555 1_555
C27_2 C28_2 1_555 1_555
C30_2 C32_2 1_555 1_555
C34_2 C35_2 1_555 1_555
Cu5_2 Cu6_2 1_555 1_555
O20_4 C58_4 1_555 1_555
O23_4 Cu9_2 1_555 1_555
O24_4 Cu13_2 1_555 1_555
C39_4 C40_4 1_555 1_555
C47_4 C48_4 1_555 1_555
C47_4 C49_4 1_555 1_555
C55_4 C56_4 1_555 1_555
C62_4 C63_4 1_555 1_555
C63_4 C64_4 1_555 1_555
C66_4 C68_4 1_555 1_555
C70_4 C71_4 1_555 1_555
Cu7_3 Cu11_3 1_555 1_555
Cu8_2 Cu12_2 1_555 1_555
Cu9_2 Cu13_2 1_555 1_555
Cu10_3 Cu14_3 1_555 1_555
Cu15_3 Cu18_3 1_555 1_555
Cu20_3 O30_2 1_555 1_555
Cu17_3 Cu20_3 1_555 1_555
Cu19_3 O14_2 1_555 1_555
Cu16_3 Cu19_3 1_555 1_555
O15_10 Cu15_3 1_555 1_555
H5_6 O15_10 1_555 1_555
O16_10 Cu18_3 1_555 1_555
H6_6 O16_10 1_555 1_555
H22_6 O15_10 1_555 1_555
H23_6 O16_10 1_555 1_555
O17_5 C37_5 1_555 1_555
O18_5 C37_5 1_555 1_555
O19_5 Cu7_3 1_555 1_555
O20_5 Cu11_3 1_555 1_555
O21_4 C67_5 1_555 1_555
O22_4 C67_5 1_555 1_555
O23_5 C72_5 1_555 1_555
O24_5 C72_5 1_555 1_555
O25_5 Cu7_3 1_555 1_555
H24_5 O25_5 1_555 1_555
H25_5 O25_5 1_555 1_555
O26_5 Cu11_3 1_555 1_555
H26_5 O26_5 1_555 1_555
H27_5 O26_5 1_555 1_555
O27_5 C65_5 1_555 1_555
O28_5 C65_5 1_555 1_555
O43_3 C57_5 1_555 1_555
N10_5 N11_5 1_555 1_555
N11_5 N12_5 1_555 1_555
N12_5 C42_5 1_555 1_555
N13_5 N14_5 1_555 1_555
N14_5 N15_5 1_555 1_555
N15_5 C50_5 1_555 1_555
N16_5 N17_5 1_555 1_555
N17_5 N18_5 1_555 1_555
N18_5 C68_5 1_555 1_555
C37_5 C38_5 1_555 1_555
C38_5 C39_5 1_555 1_555
C39_5 H28_5 1_555 1_555
C40_5 N10_5 1_555 1_555
C41_5 N10_5 1_555 1_555
H29_5 C41_5 1_555 1_555
C42_5 C41_5 1_555 1_555
C43_5 C42_5 1_555 1_555
C44_5 C43_5 1_555 1_555
H30_5 C44_5 1_555 1_555
C45_5 C44_5 1_555 1_555
C46_5 C45_5 1_555 1_555
H31_5 C46_5 1_555 1_555
C47_5 C46_5 1_555 1_555
C48_5 C43_5 1_555 1_555
H32_5 C48_5 1_555 1_555
C49_5 N13_5 1_555 1_555
C50_5 C49_5 1_555 1_555
H33_5 C50_5 1_555 1_555
C51_5 N15_5 1_555 1_555
C52_5 C51_5 1_555 1_555
H34_5 C52_5 1_555 1_555
C53_5 C52_5 1_555 1_555
C54_5 C53_5 1_555 1_555
H35_5 C54_5 1_555 1_555
C55_5 C54_5 1_555 1_555
C56_5 C51_5 1_555 1_555
H36_5 C56_5 1_555 1_555
C57_5 C55_5 1_555 1_555
C58_5 O19_5 1_555 1_555
C59_5 C58_5 1_555 1_555
C60_5 C59_5 1_555 1_555
H37_5 C60_5 1_555 1_555
C61_5 C60_5 1_555 1_555
C62_5 C61_5 1_555 1_555
H38_5 C62_5 1_555 1_555
C63_5 N16_5 1_555 1_555
C64_5 C59_5 1_555 1_555
H39_5 C64_5 1_555 1_555
C65_5 C61_5 1_555 1_555
C66_5 N16_5 1_555 1_555
H40_5 C66_5 1_555 1_555
C67_5 C53_5 1_555 1_555
C68_5 C45_5 1_555 1_555
C69_5 C38_5 1_555 1_555
H41_5 C69_5 1_555 1_555
C70_5 C69_5 1_555 1_555
C71_5 C40_5 1_555 1_555
H42_5 C71_5 1_555 1_555
C72_5 C70_5 1_555 1_555
Cu7_4 O21_4 1_555 1_555
Cu10_4 O17_5 1_555 1_555
Cu11_4 O22_4 1_555 1_555
Cu14_4 O18_5 1_555 1_555
Cu16_3 O27_5 1_555 1_555
Cu19_3 O28_5 1_555 1_555
O31_5 Cu7_3 1_555 1_555
O33_5 Cu11_3 1_555 1_555
O38_5 Cu7_3 1_555 1_555
O40_5 Cu11_3 1_555 1_555
O41_6 Cu15_3 1_555 1_555
O42_6 Cu18_3 1_555 1_555
O45_4 Cu18_3 1_555 1_555
O46_6 Cu18_3 1_555 1_555
O20_5 C58_5 1_555 1_555
O23_5 Cu10_3 1_555 1_555
O24_5 Cu14_3 1_555 1_555
C39_5 C40_5 1_555 1_555
C47_5 C48_5 1_555 1_555
C47_5 C49_5 1_555 1_555
C55_5 C56_5 1_555 1_555
C62_5 C63_5 1_555 1_555
C63_5 C64_5 1_555 1_555
C66_5 C68_5 1_555 1_555
C70_5 C71_5 1_555 1_555
Cu7_4 Cu11_4 1_555 1_555
Cu10_4 Cu14_4 1_555 1_555
O15_11 Cu16_3 1_555 1_555
H5_7 O15_11 1_555 1_555
O16_11 Cu19_3 1_555 1_555
H6_7 O16_11 1_555 1_555
H22_7 O15_11 1_555 1_555
H23_7 O16_11 1_555 1_555
O17_6 C37_6 1_555 1_555
O18_6 C37_6 1_555 1_555
O19_6 Cu7_4 1_555 1_555
O20_6 Cu11_4 1_555 1_555
O35_2 C67_6 1_555 1_555
O36_2 C67_6 1_555 1_555
O23_6 C72_6 1_555 1_555
O24_6 C72_6 1_555 1_555
O25_6 Cu7_4 1_555 1_555
H24_6 O25_6 1_555 1_555
H25_6 O25_6 1_555 1_555
O26_6 Cu11_4 1_555 1_555
H26_6 O26_6 1_555 1_555
H27_6 O26_6 1_555 1_555
O27_6 C65_6 1_555 1_555
O28_6 C65_6 1_555 1_555
O43_4 C57_6 1_555 1_555
N10_6 N11_6 1_555 1_555
N11_6 N12_6 1_555 1_555
N12_6 C42_6 1_555 1_555
N13_6 N14_6 1_555 1_555
N14_6 N15_6 1_555 1_555
N15_6 C50_6 1_555 1_555
N16_6 N17_6 1_555 1_555
N17_6 N18_6 1_555 1_555
N18_6 C68_6 1_555 1_555
C37_6 C38_6 1_555 1_555
C38_6 C39_6 1_555 1_555
C39_6 H28_6 1_555 1_555
C40_6 N10_6 1_555 1_555
C41_6 N10_6 1_555 1_555
H29_6 C41_6 1_555 1_555
C42_6 C41_6 1_555 1_555
C43_6 C42_6 1_555 1_555
C44_6 C43_6 1_555 1_555
H30_6 C44_6 1_555 1_555
C45_6 C44_6 1_555 1_555
C46_6 C45_6 1_555 1_555
H31_6 C46_6 1_555 1_555
C47_6 C46_6 1_555 1_555
C48_6 C43_6 1_555 1_555
H32_6 C48_6 1_555 1_555
C49_6 N13_6 1_555 1_555
C50_6 C49_6 1_555 1_555
H33_6 C50_6 1_555 1_555
C51_6 N15_6 1_555 1_555
C52_6 C51_6 1_555 1_555
H34_6 C52_6 1_555 1_555
C53_6 C52_6 1_555 1_555
C54_6 C53_6 1_555 1_555
H35_6 C54_6 1_555 1_555
C55_6 C54_6 1_555 1_555
C56_6 C51_6 1_555 1_555
H36_6 C56_6 1_555 1_555
C57_6 C55_6 1_555 1_555
C58_6 O19_6 1_555 1_555
C59_6 C58_6 1_555 1_555
C60_6 C59_6 1_555 1_555
H37_6 C60_6 1_555 1_555
C61_6 C60_6 1_555 1_555
C62_6 C61_6 1_555 1_555
H38_6 C62_6 1_555 1_555
C63_6 N16_6 1_555 1_555
C64_6 C59_6 1_555 1_555
H39_6 C64_6 1_555 1_555
C65_6 C61_6 1_555 1_555
C66_6 N16_6 1_555 1_555
H40_6 C66_6 1_555 1_555
C67_6 C53_6 1_555 1_555
C68_6 C45_6 1_555 1_555
C69_6 C38_6 1_555 1_555
H41_6 C69_6 1_555 1_555
C70_6 C69_6 1_555 1_555
C71_6 C40_6 1_555 1_555
H42_6 C71_6 1_555 1_555
C72_6 C70_6 1_555 1_555
Cu8_2 O17_6 1_555 1_555
Cu12_2 O18_6 1_555 1_555
Cu17_3 O27_6 1_555 1_555
Cu20_3 O28_6 1_555 1_555
O31_6 Cu7_4 1_555 1_555
O33_6 Cu11_4 1_555 1_555
O38_6 Cu7_4 1_555 1_555
O40_6 Cu11_4 1_555 1_555
O41_7 Cu16_3 1_555 1_555
O42_7 Cu19_3 1_555 1_555
O46_7 Cu19_3 1_555 1_555
O20_6 C58_6 1_555 1_555
O23_6 Cu10_4 1_555 1_555
O24_6 Cu14_4 1_555 1_555
C39_6 C40_6 1_555 1_555
C47_6 C48_6 1_555 1_555
C47_6 C49_6 1_555 1_555
C55_6 C56_6 1_555 1_555
C62_6 C63_6 1_555 1_555
C63_6 C64_6 1_555 1_555
C66_6 C68_6 1_555 1_555
C70_6 C71_6 1_555 1_555
O15_12 Cu17_3 1_555 1_555
H5_8 O15_12 1_555 1_555
O16_12 Cu20_3 1_555 1_555
H6_8 O16_12 1_555 1_555
H22_8 O15_12 1_555 1_555
H23_8 O16_12 1_555 1_555
O41_8 Cu17_3 1_555 1_555
O42_8 Cu20_3 1_555 1_555
O46_8 Cu20_3 1_555 1_555
O31_4 C1_3 1_555 1_555
O33_4 C1_3 1_555 1_555
O5_3 C31_3 1_555 1_555
O6_3 C31_3 1_555 1_555
O44 C21_3 1_555 1_555
O46 C21_3 1_555 1_555
N1_3 N2_3 1_555 1_555
N2_3 N3_3 1_555 1_555
N3_3 C6_3 1_555 1_555
N4_3 N5_3 1_555 1_555
N5_3 N6_3 1_555 1_555
N6_3 C14_3 1_555 1_555
C1_3 C2_3 1_555 1_555
C2_3 C3_3 1_555 1_555
C3_3 H7_3 1_555 1_555
C4_3 N1_3 1_555 1_555
C5_3 N1_3 1_555 1_555
C6_3 C5_3 1_555 1_555
C7_3 C6_3 1_555 1_555
C12_3 C7_3 1_555 1_555
H11_3 C12_3 1_555 1_555
C13_3 N4_3 1_555 1_555
C14_3 C13_3 1_555 1_555
H12_3 C14_3 1_555 1_555
C15_3 N6_3 1_555 1_555
C16_3 C15_3 1_555 1_555
H13_3 C16_3 1_555 1_555
C17_3 C16_3 1_555 1_555
C18_3 C17_3 1_555 1_555
H14_3 C18_3 1_555 1_555
C19_3 C18_3 1_555 1_555
C20_3 C15_3 1_555 1_555
H15_3 C20_3 1_555 1_555
C21_3 C19_3 1_555 1_555
C31_3 C17_3 1_555 1_555
C33_3 C2_3 1_555 1_555
H20_3 C33_3 1_555 1_555
Cu9_2 O5_3 1_555 1_555
Cu13_2 O6_3 1_555 1_555
O19_7 Cu9_2 1_555 1_555
O20_7 Cu13_2 1_555 1_555
O38_4 C72_7 1_555 1_555
O40_4 C72_7 1_555 1_555
O25_7 Cu9_2 1_555 1_555
H24_7 O25_7 1_555 1_555
H25_7 O25_7 1_555 1_555
O26_7 Cu13_2 1_555 1_555
H26_7 O26_7 1_555 1_555
H27_7 O26_7 1_555 1_555
O41_4 C65_7 1_555 1_555
O42_4 C65_7 1_555 1_555
N16_7 N17_7 1_555 1_555
N17_7 N18_7 1_555 1_555
N18_7 C68_7 1_555 1_555
H30_7 C44_7 1_555 1_555
C45_7 C44_7 1_555 1_555
C46_7 C45_7 1_555 1_555
H31_7 C46_7 1_555 1_555
C58_7 O19_7 1_555 1_555
C59_7 C58_7 1_555 1_555
C60_7 C59_7 1_555 1_555
H37_7 C60_7 1_555 1_555
C61_7 C60_7 1_555 1_555
C62_7 C61_7 1_555 1_555
H38_7 C62_7 1_555 1_555
C63_7 N16_7 1_555 1_555
C64_7 C59_7 1_555 1_555
H39_7 C64_7 1_555 1_555
C65_7 C61_7 1_555 1_555
C66_7 N16_7 1_555 1_555
H40_7 C66_7 1_555 1_555
C68_7 C45_7 1_555 1_555
H42_7 C71_7 1_555 1_555
C72_7 C70_7 1_555 1_555
C3_3 C4_3 1_555 1_555
C11_3 C12_3 1_555 1_555
C11_3 C13_3 1_555 1_555
C19_3 C20_3 1_555 1_555
O20_7 C58_7 1_555 1_555
C62_7 C63_7 1_555 1_555
C63_7 C64_7 1_555 1_555
C66_7 C68_7 1_555 1_555
C70_7 C71_7 1_555 1_555
Cu12_2 O4_3 1_555 1_555
O3_3 Cu8_2 1_555 1_555
O4_3 C22_3 1_555 1_555
O37_2 C36_3 1_555 1_555
O39_2 C36_3 1_555 1_555
O9_3 Cu8_2 1_555 1_555
H1_3 O9_3 1_555 1_555
H2_3 O9_3 1_555 1_555
O10_3 Cu12_2 1_555 1_555
H3_3 O10_3 1_555 1_555
H4_3 O10_3 1_555 1_555
O42_3 C29_3 1_555 1_555
N7_3 N8_3 1_555 1_555
N8_3 N9_3 1_555 1_555
N9_3 C32_3 1_555 1_555
H9_3 C8_3 1_555 1_555
C9_3 C8_3 1_555 1_555
C10_3 C9_3 1_555 1_555
H10_3 C10_3 1_555 1_555
C22_3 O3_3 1_555 1_555
C23_3 C22_3 1_555 1_555
C24_3 C23_3 1_555 1_555
H16_3 C24_3 1_555 1_555
C25_3 C24_3 1_555 1_555
C26_3 C25_3 1_555 1_555
H17_3 C26_3 1_555 1_555
C27_3 N7_3 1_555 1_555
C28_3 C23_3 1_555 1_555
H18_3 C28_3 1_555 1_555
C29_3 O41_3 1_555 1_555
C30_3 N7_3 1_555 1_555
H19_3 C30_3 1_555 1_555
C32_3 C9_3 1_555 1_555
H21_3 C35_3 1_555 1_555
C36_3 C34_3 1_555 1_555
O35_3 Cu8_2 1_555 1_555
O36_3 Cu12_2 1_555 1_555
C25_3 C29_3 1_555 1_555
C26_3 C27_3 1_555 1_555
C27_3 C28_3 1_555 1_555
C30_3 C32_3 1_555 1_555
C34_3 C35_3 1_555 1_555
O31_5 C37_7 1_555 1_555
O33_5 C37_7 1_555 1_555
O21_5 C67_7 1_555 1_555
O22_5 C67_7 1_555 1_555
O44_2 C57_7 1_555 1_555
O46_2 C57_7 1_555 1_555
N10_7 N11_7 1_555 1_555
N11_7 N12_7 1_555 1_555
N12_7 C42_7 1_555 1_555
N13_7 N14_7 1_555 1_555
N14_7 N15_7 1_555 1_555
N15_7 C50_7 1_555 1_555
C37_7 C38_7 1_555 1_555
C38_7 C39_7 1_555 1_555
C39_7 H28_7 1_555 1_555
C40_7 N10_7 1_555 1_555
C41_7 N10_7 1_555 1_555
C42_7 C41_7 1_555 1_555
C43_7 C42_7 1_555 1_555
C48_7 C43_7 1_555 1_555
H32_7 C48_7 1_555 1_555
C49_7 N13_7 1_555 1_555
C50_7 C49_7 1_555 1_555
H33_7 C50_7 1_555 1_555
C51_7 N15_7 1_555 1_555
C52_7 C51_7 1_555 1_555
H34_7 C52_7 1_555 1_555
C53_7 C52_7 1_555 1_555
C54_7 C53_7 1_555 1_555
H35_7 C54_7 1_555 1_555
C55_7 C54_7 1_555 1_555
C56_7 C51_7 1_555 1_555
H36_7 C56_7 1_555 1_555
C57_7 C55_7 1_555 1_555
C67_7 C53_7 1_555 1_555
C69_7 C38_7 1_555 1_555
H41_7 C69_7 1_555 1_555
Cu10_3 O21_5 1_555 1_555
Cu14_3 O22_5 1_555 1_555
C39_7 C40_7 1_555 1_555
C47_7 C48_7 1_555 1_555
C47_7 C49_7 1_555 1_555
C55_7 C56_7 1_555 1_555
O19_8 Cu10_3 1_555 1_555
O20_8 Cu14_3 1_555 1_555
O38_5 C72_8 1_555 1_555
O40_5 C72_8 1_555 1_555
O25_8 Cu10_3 1_555 1_555
H24_8 O25_8 1_555 1_555
H25_8 O25_8 1_555 1_555
O26_8 Cu14_3 1_555 1_555
H26_8 O26_8 1_555 1_555
H27_8 O26_8 1_555 1_555
O41 C65_8 1_555 1_555
O42 C65_8 1_555 1_555
N16_8 N17_8 1_555 1_555
N17_8 N18_8 1_555 1_555
N18_8 C68_8 1_555 1_555
H30_8 C44_8 1_555 1_555
C45_8 C44_8 1_555 1_555
C46_8 C45_8 1_555 1_555
H31_8 C46_8 1_555 1_555
C58_8 O19_8 1_555 1_555
C59_8 C58_8 1_555 1_555
C60_8 C59_8 1_555 1_555
H37_8 C60_8 1_555 1_555
C61_8 C60_8 1_555 1_555
C62_8 C61_8 1_555 1_555
H38_8 C62_8 1_555 1_555
C63_8 N16_8 1_555 1_555
C64_8 C59_8 1_555 1_555
H39_8 C64_8 1_555 1_555
C65_8 C61_8 1_555 1_555
C66_8 N16_8 1_555 1_555
H40_8 C66_8 1_555 1_555
C68_8 C45_8 1_555 1_555
H42_8 C71_8 1_555 1_555
C72_8 C70_8 1_555 1_555
O20_8 C58_8 1_555 1_555
C62_8 C63_8 1_555 1_555
C63_8 C64_8 1_555 1_555
C66_8 C68_8 1_555 1_555
C70_8 C71_8 1_555 1_555
O31_6 C37_8 1_555 1_555
O33_6 C37_8 1_555 1_555
O21_6 C67_8 1_555 1_555
O22_6 C67_8 1_555 1_555
O44_3 C57_8 1_555 1_555
O46_3 C57_8 1_555 1_555
N10_8 N11_8 1_555 1_555
N11_8 N12_8 1_555 1_555
N12_8 C42_8 1_555 1_555
N13_8 N14_8 1_555 1_555
N14_8 N15_8 1_555 1_555
N15_8 C50_8 1_555 1_555
C37_8 C38_8 1_555 1_555
C38_8 C39_8 1_555 1_555
C39_8 H28_8 1_555 1_555
C40_8 N10_8 1_555 1_555
C41_8 N10_8 1_555 1_555
C42_8 C41_8 1_555 1_555
C43_8 C42_8 1_555 1_555
C48_8 C43_8 1_555 1_555
H32_8 C48_8 1_555 1_555
C49_8 N13_8 1_555 1_555
C50_8 C49_8 1_555 1_555
H33_8 C50_8 1_555 1_555
C51_8 N15_8 1_555 1_555
C52_8 C51_8 1_555 1_555
H34_8 C52_8 1_555 1_555
C53_8 C52_8 1_555 1_555
C54_8 C53_8 1_555 1_555
H35_8 C54_8 1_555 1_555
C55_8 C54_8 1_555 1_555
C56_8 C51_8 1_555 1_555
H36_8 C56_8 1_555 1_555
C57_8 C55_8 1_555 1_555
C67_8 C53_8 1_555 1_555
C69_8 C38_8 1_555 1_555
H41_8 C69_8 1_555 1_555
Cu10_4 O21_6 1_555 1_555
Cu14_4 O22_6 1_555 1_555
C39_8 C40_8 1_555 1_555
C47_8 C48_8 1_555 1_555
C47_8 C49_8 1_555 1_555
C55_8 C56_8 1_555 1_555
O32_2 C37_9 1_555 1_555
O34_2 C37_9 1_555 1_555
O35_3 C67_9 1_555 1_555
O36_3 C67_9 1_555 1_555
O44_4 C57_9 1_555 1_555
O46_4 C57_9 1_555 1_555
N10_9 N11_9 1_555 1_555
N11_9 N12_9 1_555 1_555
N12_9 C42_9 1_555 1_555
N13_9 N14_9 1_555 1_555
N14_9 N15_9 1_555 1_555
N15_9 C50_9 1_555 1_555
C37_9 C38_9 1_555 1_555
C38_9 C39_9 1_555 1_555
C39_9 H28_9 1_555 1_555
C40_9 N10_9 1_555 1_555
C41_9 N10_9 1_555 1_555
C42_9 C41_9 1_555 1_555
C43_9 C42_9 1_555 1_555
C48_9 C43_9 1_555 1_555
H32_9 C48_9 1_555 1_555
C49_9 N13_9 1_555 1_555
C50_9 C49_9 1_555 1_555
H33_9 C50_9 1_555 1_555
C51_9 N15_9 1_555 1_555
C52_9 C51_9 1_555 1_555
H34_9 C52_9 1_555 1_555
C53_9 C52_9 1_555 1_555
C54_9 C53_9 1_555 1_555
H35_9 C54_9 1_555 1_555
C55_9 C54_9 1_555 1_555
C56_9 C51_9 1_555 1_555
H36_9 C56_9 1_555 1_555
C57_9 C55_9 1_555 1_555
C67_9 C53_9 1_555 1_555
C69_9 C38_9 1_555 1_555
H41_9 C69_9 1_555 1_555
C39_9 C40_9 1_555 1_555
C47_9 C48_9 1_555 1_555
C47_9 C49_9 1_555 1_555
C55_9 C56_9 1_555 1_555
O19_9 Cu10_4 1_555 1_555
O20_9 Cu14_4 1_555 1_555
O38_6 C72_9 1_555 1_555
O40_6 C72_9 1_555 1_555
O25_9 Cu10_4 1_555 1_555
H24_9 O25_9 1_555 1_555
H25_9 O25_9 1_555 1_555
O26_9 Cu14_4 1_555 1_555
H26_9 O26_9 1_555 1_555
H27_9 O26_9 1_555 1_555
O41_2 C65_9 1_555 1_555
O42_2 C65_9 1_555 1_555
N16_9 N17_9 1_555 1_555
N17_9 N18_9 1_555 1_555
N18_9 C68_9 1_555 1_555
H30_9 C44_9 1_555 1_555
C45_9 C44_9 1_555 1_555
C46_9 C45_9 1_555 1_555
H31_9 C46_9 1_555 1_555
C58_9 O19_9 1_555 1_555
C59_9 C58_9 1_555 1_555
C60_9 C59_9 1_555 1_555
H37_9 C60_9 1_555 1_555
C61_9 C60_9 1_555 1_555
C62_9 C61_9 1_555 1_555
H38_9 C62_9 1_555 1_555
C63_9 N16_9 1_555 1_555
C64_9 C59_9 1_555 1_555
H39_9 C64_9 1_555 1_555
C65_9 C61_9 1_555 1_555
C66_9 N16_9 1_555 1_555
H40_9 C66_9 1_555 1_555
C68_9 C45_9 1_555 1_555
H42_9 C71_9 1_555 1_555
C72_9 C70_9 1_555 1_555
O20_9 C58_9 1_555 1_555
C62_9 C63_9 1_555 1_555
C63_9 C64_9 1_555 1_555
C66_9 C68_9 1_555 1_555
C70_9 C71_9 1_555 1_555
Cu12 O4_4 1_555 1_555
O31 C1_4 1_555 1_555
O33 C1_4 1_555 1_555
O3_4 Cu8 1_555 1_555
O4_4 C22_4 1_555 1_555
O5_4 C31_4 1_555 1_555
O6_4 C31_4 1_555 1_555
O37 C36_4 1_555 1_555
O39 C36_4 1_555 1_555
O9_4 Cu8 1_555 1_555
H1_4 O9_4 1_555 1_555
H2_4 O9_4 1_555 1_555
O10_4 Cu12 1_555 1_555
H3_4 O10_4 1_555 1_555
H4_4 O10_4 1_555 1_555
O42_7 C29_4 1_555 1_555
O44_5 C21_4 1_555 1_555
N1_4 N2_4 1_555 1_555
N2_4 N3_4 1_555 1_555
N3_4 C6_4 1_555 1_555
N4_4 N5_4 1_555 1_555
N5_4 N6_4 1_555 1_555
N6_4 C14_4 1_555 1_555
N7_4 N8_4 1_555 1_555
N8_4 N9_4 1_555 1_555
N9_4 C32_4 1_555 1_555
C1_4 C2_4 1_555 1_555
C2_4 C3_4 1_555 1_555
C3_4 H7_4 1_555 1_555
C4_4 N1_4 1_555 1_555
C5_4 N1_4 1_555 1_555
H8_4 C5_4 1_555 1_555
C6_4 C5_4 1_555 1_555
C7_4 C6_4 1_555 1_555
C8_4 C7_4 1_555 1_555
H9_4 C8_4 1_555 1_555
C9_4 C8_4 1_555 1_555
C10_4 C9_4 1_555 1_555
H10_4 C10_4 1_555 1_555
C11_4 C10_4 1_555 1_555
C12_4 C7_4 1_555 1_555
H11_4 C12_4 1_555 1_555
C13_4 N4_4 1_555 1_555
C14_4 C13_4 1_555 1_555
H12_4 C14_4 1_555 1_555
C15_4 N6_4 1_555 1_555
C16_4 C15_4 1_555 1_555
H13_4 C16_4 1_555 1_555
C17_4 C16_4 1_555 1_555
C18_4 C17_4 1_555 1_555
H14_4 C18_4 1_555 1_555
C19_4 C18_4 1_555 1_555
C20_4 C15_4 1_555 1_555
H15_4 C20_4 1_555 1_555
C21_4 C19_4 1_555 1_555
C22_4 O3_4 1_555 1_555
C23_4 C22_4 1_555 1_555
C24_4 C23_4 1_555 1_555
H16_4 C24_4 1_555 1_555
C25_4 C24_4 1_555 1_555
C26_4 C25_4 1_555 1_555
H17_4 C26_4 1_555 1_555
C27_4 N7_4 1_555 1_555
C28_4 C23_4 1_555 1_555
H18_4 C28_4 1_555 1_555
C29_4 O41_7 1_555 1_555
C30_4 N7_4 1_555 1_555
H19_4 C30_4 1_555 1_555
C31_4 C17_4 1_555 1_555
C32_4 C9_4 1_555 1_555
C33_4 C2_4 1_555 1_555
H20_4 C33_4 1_555 1_555
C34_4 C33_4 1_555 1_555
C35_4 C4_4 1_555 1_555
H21_4 C35_4 1_555 1_555
C36_4 C34_4 1_555 1_555
Cu9 O5_4 1_555 1_555
Cu13 O6_4 1_555 1_555
O31_2 C37_10 1_555 1_555
O33_2 C37_10 1_555 1_555
O19_10 Cu9 1_555 1_555
O20_10 Cu13 1_555 1_555
O21_7 C67_10 1_555 1_555
O22_7 C67_10 1_555 1_555
O38 C72_10 1_555 1_555
O40 C72_10 1_555 1_555
O25_10 Cu9 1_555 1_555
H24_10 O25_10 1_555 1_555
H25_10 O25_10 1_555 1_555
O26_10 Cu13 1_555 1_555
H26_10 O26_10 1_555 1_555
H27_10 O26_10 1_555 1_555
O41_8 C65_10 1_555 1_555
O42_8 C65_10 1_555 1_555
O44_6 C57_10 1_555 1_555
N10_10 N11_10 1_555 1_555
N11_10 N12_10 1_555 1_555
N12_10 C42_10 1_555 1_555
N13_10 N14_10 1_555 1_555
N14_10 N15_10 1_555 1_555
N15_10 C50_10 1_555 1_555
N16_10 N17_10 1_555 1_555
N17_10 N18_10 1_555 1_555
N18_10 C68_10 1_555 1_555
C37_10 C38_10 1_555 1_555
C38_10 C39_10 1_555 1_555
C39_10 H28_10 1_555 1_555
C40_10 N10_10 1_555 1_555
C41_10 N10_10 1_555 1_555
H29_10 C41_10 1_555 1_555
C42_10 C41_10 1_555 1_555
C43_10 C42_10 1_555 1_555
C44_10 C43_10 1_555 1_555
H30_10 C44_10 1_555 1_555
C45_10 C44_10 1_555 1_555
C46_10 C45_10 1_555 1_555
H31_10 C46_10 1_555 1_555
C47_10 C46_10 1_555 1_555
C48_10 C43_10 1_555 1_555
H32_10 C48_10 1_555 1_555
C49_10 N13_10 1_555 1_555
C50_10 C49_10 1_555 1_555
H33_10 C50_10 1_555 1_555
C51_10 N15_10 1_555 1_555
C52_10 C51_10 1_555 1_555
H34_10 C52_10 1_555 1_555
C53_10 C52_10 1_555 1_555
C54_10 C53_10 1_555 1_555
H35_10 C54_10 1_555 1_555
C55_10 C54_10 1_555 1_555
C56_10 C51_10 1_555 1_555
H36_10 C56_10 1_555 1_555
C57_10 C55_10 1_555 1_555
C58_10 O19_10 1_555 1_555
C59_10 C58_10 1_555 1_555
C60_10 C59_10 1_555 1_555
H37_10 C60_10 1_555 1_555
C61_10 C60_10 1_555 1_555
C62_10 C61_10 1_555 1_555
H38_10 C62_10 1_555 1_555
C63_10 N16_10 1_555 1_555
C64_10 C59_10 1_555 1_555
H39_10 C64_10 1_555 1_555
C65_10 C61_10 1_555 1_555
C66_10 N16_10 1_555 1_555
H40_10 C66_10 1_555 1_555
C67_10 C53_10 1_555 1_555
C68_10 C45_10 1_555 1_555
C69_10 C38_10 1_555 1_555
H41_10 C69_10 1_555 1_555
C70_10 C69_10 1_555 1_555
C71_10 C40_10 1_555 1_555
H42_10 C71_10 1_555 1_555
C72_10 C70_10 1_555 1_555
Cu10 O21_7 1_555 1_555
Cu14 O22_7 1_555 1_555
O35_4 Cu8 1_555 1_555
O36_4 Cu12 1_555 1_555
C3_4 C4_4 1_555 1_555
C11_4 C12_4 1_555 1_555
C11_4 C13_4 1_555 1_555
C19_4 C20_4 1_555 1_555
C25_4 C29_4 1_555 1_555
C26_4 C27_4 1_555 1_555
C27_4 C28_4 1_555 1_555
C30_4 C32_4 1_555 1_555
C34_4 C35_4 1_555 1_555
O20_10 C58_10 1_555 1_555
C39_10 C40_10 1_555 1_555
C47_10 C48_10 1_555 1_555
C47_10 C49_10 1_555 1_555
C55_10 C56_10 1_555 1_555
C62_10 C63_10 1_555 1_555
C63_10 C64_10 1_555 1_555
C66_10 C68_10 1_555 1_555
C70_10 C71_10 1_555 1_555
O31_3 C37_11 1_555 1_555
O33_3 C37_11 1_555 1_555
O19_11 Cu10 1_555 1_555
O20_11 Cu14 1_555 1_555
O21_8 C67_11 1_555 1_555
O22_8 C67_11 1_555 1_555
O38_2 C72_11 1_555 1_555
O40_2 C72_11 1_555 1_555
O25_11 Cu10 1_555 1_555
H24_11 O25_11 1_555 1_555
H25_11 O25_11 1_555 1_555
O26_11 Cu14 1_555 1_555
H26_11 O26_11 1_555 1_555
H27_11 O26_11 1_555 1_555
O41_5 C65_11 1_555 1_555
O42_5 C65_11 1_555 1_555
O44_7 C57_11 1_555 1_555
N10_11 N11_11 1_555 1_555
N11_11 N12_11 1_555 1_555
N12_11 C42_11 1_555 1_555
N13_11 N14_11 1_555 1_555
N14_11 N15_11 1_555 1_555
N15_11 C50_11 1_555 1_555
N16_11 N17_11 1_555 1_555
N17_11 N18_11 1_555 1_555
N18_11 C68_11 1_555 1_555
C37_11 C38_11 1_555 1_555
C38_11 C39_11 1_555 1_555
C39_11 H28_11 1_555 1_555
C40_11 N10_11 1_555 1_555
C41_11 N10_11 1_555 1_555
H29_11 C41_11 1_555 1_555
C42_11 C41_11 1_555 1_555
C43_11 C42_11 1_555 1_555
C44_11 C43_11 1_555 1_555
H30_11 C44_11 1_555 1_555
C45_11 C44_11 1_555 1_555
C46_11 C45_11 1_555 1_555
H31_11 C46_11 1_555 1_555
C47_11 C46_11 1_555 1_555
C48_11 C43_11 1_555 1_555
H32_11 C48_11 1_555 1_555
C49_11 N13_11 1_555 1_555
C50_11 C49_11 1_555 1_555
H33_11 C50_11 1_555 1_555
C51_11 N15_11 1_555 1_555
C52_11 C51_11 1_555 1_555
H34_11 C52_11 1_555 1_555
C53_11 C52_11 1_555 1_555
C54_11 C53_11 1_555 1_555
H35_11 C54_11 1_555 1_555
C55_11 C54_11 1_555 1_555
C56_11 C51_11 1_555 1_555
H36_11 C56_11 1_555 1_555
C57_11 C55_11 1_555 1_555
C58_11 O19_11 1_555 1_555
C59_11 C58_11 1_555 1_555
C60_11 C59_11 1_555 1_555
H37_11 C60_11 1_555 1_555
C61_11 C60_11 1_555 1_555
C62_11 C61_11 1_555 1_555
H38_11 C62_11 1_555 1_555
C63_11 N16_11 1_555 1_555
C64_11 C59_11 1_555 1_555
H39_11 C64_11 1_555 1_555
C65_11 C61_11 1_555 1_555
C66_11 N16_11 1_555 1_555
H40_11 C66_11 1_555 1_555
C67_11 C53_11 1_555 1_555
C68_11 C45_11 1_555 1_555
C69_11 C38_11 1_555 1_555
H41_11 C69_11 1_555 1_555
C70_11 C69_11 1_555 1_555
C71_11 C40_11 1_555 1_555
H42_11 C71_11 1_555 1_555
C72_11 C70_11 1_555 1_555
Cu10_2 O21_8 1_555 1_555
Cu14_2 O22_8 1_555 1_555
O20_11 C58_11 1_555 1_555
C39_11 C40_11 1_555 1_555
C47_11 C48_11 1_555 1_555
C47_11 C49_11 1_555 1_555
C55_11 C56_11 1_555 1_555
C62_11 C63_11 1_555 1_555
C63_11 C64_11 1_555 1_555
C66_11 C68_11 1_555 1_555
C70_11 C71_11 1_555 1_555
O32 C37_12 1_555 1_555
O34 C37_12 1_555 1_555
O19_12 Cu10_2 1_555 1_555
O20_12 Cu14_2 1_555 1_555
O35_4 C67_12 1_555 1_555
O36_4 C67_12 1_555 1_555
O38_3 C72_12 1_555 1_555
O40_3 C72_12 1_555 1_555
O25_12 Cu10_2 1_555 1_555
H24_12 O25_12 1_555 1_555
H25_12 O25_12 1_555 1_555
O26_12 Cu14_2 1_555 1_555
H26_12 O26_12 1_555 1_555
H27_12 O26_12 1_555 1_555
O41_6 C65_12 1_555 1_555
O42_6 C65_12 1_555 1_555
O44_8 C57_12 1_555 1_555
N10_12 N11_12 1_555 1_555
N11_12 N12_12 1_555 1_555
N12_12 C42_12 1_555 1_555
N13_12 N14_12 1_555 1_555
N14_12 N15_12 1_555 1_555
N15_12 C50_12 1_555 1_555
N16_12 N17_12 1_555 1_555
N17_12 N18_12 1_555 1_555
N18_12 C68_12 1_555 1_555
C37_12 C38_12 1_555 1_555
C38_12 C39_12 1_555 1_555
C39_12 H28_12 1_555 1_555
C40_12 N10_12 1_555 1_555
C41_12 N10_12 1_555 1_555
H29_12 C41_12 1_555 1_555
C42_12 C41_12 1_555 1_555
C43_12 C42_12 1_555 1_555
C44_12 C43_12 1_555 1_555
H30_12 C44_12 1_555 1_555
C45_12 C44_12 1_555 1_555
C46_12 C45_12 1_555 1_555
H31_12 C46_12 1_555 1_555
C47_12 C46_12 1_555 1_555
C48_12 C43_12 1_555 1_555
H32_12 C48_12 1_555 1_555
C49_12 N13_12 1_555 1_555
C50_12 C49_12 1_555 1_555
H33_12 C50_12 1_555 1_555
C51_12 N15_12 1_555 1_555
C52_12 C51_12 1_555 1_555
H34_12 C52_12 1_555 1_555
C53_12 C52_12 1_555 1_555
C54_12 C53_12 1_555 1_555
H35_12 C54_12 1_555 1_555
C55_12 C54_12 1_555 1_555
C56_12 C51_12 1_555 1_555
H36_12 C56_12 1_555 1_555
C57_12 C55_12 1_555 1_555
C58_12 O19_12 1_555 1_555
C59_12 C58_12 1_555 1_555
C60_12 C59_12 1_555 1_555
H37_12 C60_12 1_555 1_555
C61_12 C60_12 1_555 1_555
C62_12 C61_12 1_555 1_555
H38_12 C62_12 1_555 1_555
C63_12 N16_12 1_555 1_555
C64_12 C59_12 1_555 1_555
H39_12 C64_12 1_555 1_555
C65_12 C61_12 1_555 1_555
C66_12 N16_12 1_555 1_555
H40_12 C66_12 1_555 1_555
C67_12 C53_12 1_555 1_555
C68_12 C45_12 1_555 1_555
C69_12 C38_12 1_555 1_555
H41_12 C69_12 1_555 1_555
C70_12 C69_12 1_555 1_555
C71_12 C40_12 1_555 1_555
H42_12 C71_12 1_555 1_555
C72_12 C70_12 1_555 1_555
O20_12 C58_12 1_555 1_555
C39_12 C40_12 1_555 1_555
C47_12 C48_12 1_555 1_555
C47_12 C49_12 1_555 1_555
C55_12 C56_12 1_555 1_555
C62_12 C63_12 1_555 1_555
C63_12 C64_12 1_555 1_555
C66_12 C68_12 1_555 1_555
C70_12 C71_12 1_555 1_555

#END
