
###############################################################################
#
# This file contains modified crystal structure data generated from the
# MOF subset of the Cambridge Structural Database (CSD) v543 
# hosted by the Cambridge Crystallographic Data Centre (CCDC).
#
# This work is licensed under the Creative Commons
# Attribution-NonCommercial-ShareAlike 4.0 International License.
# To view a copy of this license, visit
# http://creativecommons.org/licenses/by-nc-sa/4.0/
# or send a letter to
# Creative Commons, PO Box 1866, Mountain View, CA 94042, USA.
#
# CIF created using the CSD Python API on 29 September 2022
# The structure has been converted into the P1 space group
# The structure has a 3D framework
# The original CSD entry REWSUJ is in the monoclinic crystal system
# The framework has been calculated to contain at least 10.0% void space
# The void calculation uses a probe of radius 1.32A, grid spacing 0.4
# The framework is charged, counterions have been retained in the structure
# H atom positions have been added when not included in the experimental data
# Generated hydrogen atom positions removed from atoms on special positions
#
###############################################################################

data_REWSUJ
_chemical_formula_moiety         '(C116 H96 Dy4 N8 O33 4+)n'
_symmetry_cell_setting           triclinic
_symmetry_space_group_name_H-M   'P 1'
_symmetry_Int_Tables_number      1
_space_group_name_Hall           'P 1'
loop_
_symmetry_equiv_pos_site_id
_symmetry_equiv_pos_as_xyz
1 x,y,z
_cell_length_a                   12.3743(8)
_cell_length_b                   14.5842(7)
_cell_length_c                   21.9435(15)
_cell_angle_alpha                90
_cell_angle_beta                 104.821(4)
_cell_angle_gamma                90
_cell_volume                     3828.37
loop_
_atom_site_label
_atom_site_type_symbol
_atom_site_fract_x
_atom_site_fract_y
_atom_site_fract_z
H18 H 0.0039 0.0571 0.1013
O4 O 0.8099(2) 0.26279(17) 0.04730(12)
O5 O 0.9884(2) 0.23104(16) 0.08295(11)
C22 C 0.9424(4) 0.0408(3) 0.06721(19)
C23 C 0.8708(4) 0.1086(2) 0.03596(18)
C26 C 0.8897(4) 0.2064(3) 0.05557(16)
Dy4 Dy 0.933510(14) 0.385939(11) 0.103526(7)
O1 O 0.8665(2) 0.38550(17) 0.36717(13)
O9 O 0.9943(2) 0.46704(16) 0.57585(11)
C27 C 1.0000 0.3350(3) 0.2500
C28 C 1.0000 0.4414(3) 0.2500
O10 O 0.9723(2) 0.29698(17) 0.19722(11)
O11 O 0.9796(2) 0.47991(16) 0.19716(10)
O12 O 0.9578(2) 0.61421(15) 0.49960(11)
C30 C 0.9882(3) 0.5420(2) 0.47777(15)
O15 O 0.7638(2) 0.47642(18) 0.05577(12)
O16 O 0.7636(2) 0.40064(19) 0.14197(13)
N3 N 0.2806(3) 0.6437(2) 0.16761(16)
N4 N 0.2081(3) 0.7783(2) 0.45937(15)
C31 C 0.7178(3) 0.4572(3) 0.10025(17)
C32 C 0.6099(3) 0.5018(3) 0.10154(17)
C33 C 0.5563(4) 0.4790(3) 0.14812(19)
H21 H 0.5894 0.4349 0.1791
C34 C 0.4570(4) 0.5189(3) 0.1502(2)
H22 H 0.4222 0.5019 0.1824
C35 C 0.4069(3) 0.5839(3) 0.10580(18)
C36 C 0.4609(4) 0.6095(3) 0.0606(2)
H23 H 0.4295 0.6558 0.0309
C37 C 0.5606(3) 0.5682(3) 0.05834(18)
H24 H 0.5959 0.5859 0.0264
C38 C 0.2928(4) 0.6212(3) 0.1034(2)
H25 H 0.2797 0.6772 0.0770
H26 H 0.2356 0.5753 0.0836
C39 C 0.2072(3) 0.5987(2) 0.19203(18)
H27 H 0.1613 0.5527 0.1678
C40 C 0.1973(4) 0.6179(2) 0.2505(2)
H28 H 0.1475 0.5827 0.2676
C41 C 0.2571(3) 0.6863(2) 0.28546(18)
C42 C 0.3303(4) 0.7359(3) 0.25820(19)
H29 H 0.3728 0.7853 0.2804
C43 C 0.3399(4) 0.7123(3) 0.1991(2)
H30 H 0.3895 0.7456 0.1807
C44 C 0.2428(3) 0.7146(2) 0.34807(17)
C45 C 0.1497(4) 0.6869(3) 0.36836(19)
H31 H 0.0978 0.6447 0.3439
C46 C 0.1333(4) 0.7208(2) 0.42366(19)
H32 H 0.0687 0.7035 0.4367
C47 C 0.3021(4) 0.8015(3) 0.44289(19)
H33 H 0.3556 0.8398 0.4700
C48 C 0.3215(3) 0.7716(3) 0.38872(18)
H34 H 0.3882 0.7889 0.3778
C49 C 0.1848(4) 0.8234(3) 0.51482(18)
H35 H 0.2494 0.8164 0.5519
H36 H 0.1185 0.7953 0.5247
C50 C 0.1631(4) 0.9253(3) 0.49904(18)
C51 C 0.0741(4) 0.9513(3) 0.45026(19)
H37 H 0.0235 0.9060 0.4285
C55 C 0.2367(4) 0.9915(3) 0.53169(18)
H40 H 0.2978 0.9741 0.5656
Dy5 Dy 0.933510(14) 0.614061(11) 0.603526(7)
O24 O 0.9943(2) 0.53296(16) 0.07585(11)
O23 O 0.9578(2) 0.38579(15) 0.99960(11)
C29 C 0.9882(3) 0.4580(2) 0.97777(15)
O17 O 0.8099(2) 0.73721(17) 0.54730(12)
O18 O 0.9884(2) 0.76896(16) 0.58295(11)
C52 C 0.9424(4) 0.9592(3) 0.56721(19)
C53 C 0.8708(4) 0.8914(2) 0.53596(18)
C54 C 0.7799(4) 0.9160(3) 0.48584(19)
H39 H 0.7301 0.8704 0.4639
C56 C 0.8897(4) 0.7936(3) 0.55557(16)
C19 C 0.1848(4) 0.1766(3) 0.01482(18)
H15 H 0.2494 0.1836 0.0519
H16 H 0.1185 0.2047 0.0247
C25 C 0.2367(4) 0.0085(3) 0.03169(18)
H20 H 0.2978 0.0259 0.0656
O2 O 0.7638(2) 0.52358(18) 0.55577(12)
O3 O 0.7636(2) 0.59936(19) 0.64197(13)
O6 O 0.9723(2) 0.70302(17) 0.69722(11)
O7 O 0.9796(2) 0.52009(16) 0.69716(10)
N1 N 0.2806(3) 0.3563(2) 0.66761(16)
N2 N 0.2081(3) 0.2217(2) 0.95937(15)
C1 C 0.7178(3) 0.5428(3) 0.60025(17)
C2 C 0.6099(3) 0.4982(3) 0.60154(17)
C3 C 0.5563(4) 0.5210(3) 0.64812(19)
H1 H 0.5894 0.5651 0.6791
C4 C 0.4570(4) 0.4811(3) 0.6502(2)
H2 H 0.4222 0.4981 0.6824
C5 C 0.4069(3) 0.4161(3) 0.60580(18)
C6 C 0.4609(4) 0.3905(3) 0.5606(2)
H3 H 0.4295 0.3442 0.5309
C7 C 0.5606(3) 0.4318(3) 0.55834(18)
H4 H 0.5959 0.4141 0.5264
C8 C 0.2928(4) 0.3788(3) 0.6034(2)
H5 H 0.2797 0.3228 0.5770
H6 H 0.2356 0.4247 0.5836
C9 C 0.2072(3) 0.4013(2) 0.69203(18)
H7 H 0.1613 0.4473 0.6678
C10 C 0.1973(4) 0.3821(2) 0.7505(2)
H8 H 0.1475 0.4173 0.7676
C11 C 0.2571(3) 0.3137(2) 0.78546(18)
C12 C 0.3303(4) 0.2641(3) 0.75820(19)
H9 H 0.3728 0.2147 0.7804
C13 C 0.3399(4) 0.2877(3) 0.6991(2)
H10 H 0.3895 0.2544 0.6807
C14 C 0.2428(3) 0.2854(2) 0.84807(17)
C15 C 0.1497(4) 0.3131(3) 0.86836(19)
H11 H 0.0978 0.3553 0.8439
C16 C 0.1333(4) 0.2792(2) 0.92366(19)
H12 H 0.0687 0.2965 0.9367
C17 C 0.3021(4) 0.1985(3) 0.94289(19)
H13 H 0.3556 0.1602 0.9700
C18 C 0.3215(3) 0.2284(3) 0.88872(18)
H14 H 0.3882 0.2111 0.8778
C20 C 0.1631(4) 0.0747(3) 0.99904(18)
C21 C 0.0741(4) 0.0487(3) 0.95026(19)
H17 H 0.0235 0.0940 0.9285
C27_2 C 1.0000 0.6650(3) 0.7500
C28_2 C 1.0000 0.5586(3) 0.7500
O14 O 0.8665(2) 0.61450(17) 0.86717(13)
C24 C 0.7799(4) 0.0840(3) 0.98584(19)
H19 H 0.7301 0.1296 0.9639
Dy1 Dy 0.066490(14) 0.385939(11) 0.396474(7)
O2_2 O 0.2362(2) 0.47642(18) 0.44423(12)
O3_2 O 0.2364(2) 0.40064(19) 0.35803(13)
O6_2 O 0.0277(2) 0.29698(17) 0.30278(11)
O7_2 O 0.0204(2) 0.47991(16) 0.30284(10)
O8 O 0.0422(2) 0.38579(15) 0.50040(11)
N1_2 N 0.7194(3) 0.6437(2) 0.33239(16)
N2_2 N 0.7919(3) 0.7783(2) 0.04063(15)
C1_2 C 0.2822(3) 0.4572(3) 0.39975(17)
C2_2 C 0.3901(3) 0.5018(3) 0.39846(17)
C3_2 C 0.4437(4) 0.4790(3) 0.35188(19)
H1_2 H 0.4106 0.4349 0.3209
C4_2 C 0.5430(4) 0.5189(3) 0.3498(2)
H2_2 H 0.5778 0.5019 0.3176
C5_2 C 0.5931(3) 0.5839(3) 0.39420(18)
C6_2 C 0.5391(4) 0.6095(3) 0.4394(2)
H3_2 H 0.5705 0.6558 0.4691
C7_2 C 0.4394(3) 0.5682(3) 0.44166(18)
H4_2 H 0.4041 0.5859 0.4736
C8_2 C 0.7072(4) 0.6212(3) 0.3966(2)
H5_2 H 0.7203 0.6772 0.4230
H6_2 H 0.7644 0.5753 0.4164
C9_2 C 0.7928(3) 0.5987(2) 0.30797(18)
H7_2 H 0.8387 0.5527 0.3322
C10_2 C 0.8027(4) 0.6179(2) 0.2495(2)
H8_2 H 0.8525 0.5827 0.2324
C11_2 C 0.7429(3) 0.6863(2) 0.21454(18)
C12_2 C 0.6697(4) 0.7359(3) 0.24180(19)
H9_2 H 0.6272 0.7853 0.2196
C13_2 C 0.6601(4) 0.7123(3) 0.3009(2)
H10_2 H 0.6105 0.7456 0.3193
C14_2 C 0.7572(3) 0.7146(2) 0.15193(17)
C15_2 C 0.8503(4) 0.6869(3) 0.13164(19)
H11_2 H 0.9022 0.6447 0.1561
C16_2 C 0.8667(4) 0.7208(2) 0.07634(19)
H12_2 H 0.9313 0.7035 0.0633
C17_2 C 0.6979(4) 0.8015(3) 0.05711(19)
H13_2 H 0.6444 0.8398 0.0300
C18_2 C 0.6785(3) 0.7716(3) 0.11128(18)
H14_2 H 0.6118 0.7889 0.1222
C20_2 C 0.8369(4) 0.9253(3) 0.00096(18)
C21_2 C 0.9259(4) 0.9513(3) 0.04974(19)
H17_2 H 0.9765 0.9060 0.0715
C27_3 C 0.0000 0.3350(3) 0.2500
C28_3 C 0.0000 0.4414(3) 0.2500
C29_2 C 0.0118(3) 0.4580(2) 0.52223(15)
O13 O 0.0057(2) 0.53296(16) 0.42415(11)
O14_2 O 0.1335(2) 0.38550(17) 0.13283(13)
O20 O 0.1901(2) 0.26279(17) 0.45270(12)
O22 O 0.0116(2) 0.23104(16) 0.41705(11)
C19_2 C 0.8152(4) 0.8234(3) 0.98518(18)
H15_2 H 0.7506 0.8164 0.9481
H16_2 H 0.8815 0.7953 0.9753
C25_2 C 0.7633(4) 0.9915(3) 0.96831(18)
H20_2 H 0.7022 0.9741 0.9344
C52_2 C 0.0576(4) 0.0408(3) 0.43279(19)
C53_2 C 0.1292(4) 0.1086(2) 0.46404(18)
C54_2 C 0.2201(4) 0.0840(3) 0.51416(19)
H39_2 H 0.2699 0.1296 0.5361
C56_2 C 0.1103(4) 0.2064(3) 0.44443(16)
O12_2 O 0.0422(2) 0.61421(15) 0.00040(11)
C30_2 C 0.0118(3) 0.5420(2) 0.02223(15)
O9_2 O 0.0057(2) 0.46704(16) 0.92415(11)
Dy5_2 Dy 0.066490(14) 0.614061(11) 0.896474(7)
O1_2 O 0.1335(2) 0.61450(17) 0.63283(13)
C27_4 C 0.0000 0.6650(3) 0.7500
C28_4 C 0.0000 0.5586(3) 0.7500
O10_2 O 0.0277(2) 0.70302(17) 0.80278(11)
O11_2 O 0.0204(2) 0.52009(16) 0.80284(10)
O15_2 O 0.2362(2) 0.52358(18) 0.94423(12)
O16_2 O 0.2364(2) 0.59936(19) 0.85803(13)
N3_2 N 0.7194(3) 0.3563(2) 0.83239(16)
N4_2 N 0.7919(3) 0.2217(2) 0.54063(15)
C31_2 C 0.2822(3) 0.5428(3) 0.89975(17)
C32_2 C 0.3901(3) 0.4982(3) 0.89846(17)
C33_2 C 0.4437(4) 0.5210(3) 0.85188(19)
H21_2 H 0.4106 0.5651 0.8209
C34_2 C 0.5430(4) 0.4811(3) 0.8498(2)
H22_2 H 0.5778 0.4981 0.8176
C35_2 C 0.5931(3) 0.4161(3) 0.89420(18)
C36_2 C 0.5391(4) 0.3905(3) 0.9394(2)
H23_2 H 0.5705 0.3442 0.9691
C37_2 C 0.4394(3) 0.4318(3) 0.94166(18)
H24_2 H 0.4041 0.4141 0.9736
C38_2 C 0.7072(4) 0.3788(3) 0.8966(2)
H25_2 H 0.7203 0.3228 0.9230
H26_2 H 0.7644 0.4247 0.9164
C39_2 C 0.7928(3) 0.4013(2) 0.80797(18)
H27_2 H 0.8387 0.4473 0.8322
C40_2 C 0.8027(4) 0.3821(2) 0.7495(2)
H28_2 H 0.8525 0.4173 0.7324
C41_2 C 0.7429(3) 0.3137(2) 0.71454(18)
C42_2 C 0.6697(4) 0.2641(3) 0.74180(19)
H29_2 H 0.6272 0.2147 0.7196
C43_2 C 0.6601(4) 0.2877(3) 0.8009(2)
H30_2 H 0.6105 0.2544 0.8193
C44_2 C 0.7572(3) 0.2854(2) 0.65193(17)
C45_2 C 0.8503(4) 0.3131(3) 0.63164(19)
H31_2 H 0.9022 0.3553 0.6561
C46_2 C 0.8667(4) 0.2792(2) 0.57634(19)
H32_2 H 0.9313 0.2965 0.5633
C47_2 C 0.6979(4) 0.1985(3) 0.55711(19)
H33_2 H 0.6444 0.1602 0.5300
C48_2 C 0.6785(3) 0.2284(3) 0.61128(18)
H34_2 H 0.6118 0.2111 0.6222
C49_2 C 0.8152(4) 0.1766(3) 0.48518(18)
H35_2 H 0.7506 0.1836 0.4481
H36_2 H 0.8815 0.2047 0.4753
C50_2 C 0.8369(4) 0.0747(3) 0.50096(18)
C51_2 C 0.9259(4) 0.0487(3) 0.54974(19)
H37_2 H 0.9765 0.0940 0.5715
C55_2 C 0.7633(4) 0.0085(3) 0.46831(18)
H40_2 H 0.7022 0.0259 0.4344
O19 O 0.1901(2) 0.73721(17) 0.95270(12)
O21 O 0.0116(2) 0.76896(16) 0.91705(11)
C22_2 C 0.0576(4) 0.9592(3) 0.93279(19)
C23_2 C 0.1292(4) 0.8914(2) 0.96404(18)
C26_2 C 0.1103(4) 0.7936(3) 0.94443(16)
H38 H 0.9961 0.0571 0.3987
H38_2 H 0.0039 0.9429 0.6013
C24_2 C 0.2201(4) 0.9160(3) 0.01416(19)
H19_2 H 0.2699 0.8704 0.0361
H18_2 H 0.9961 0.9429 0.8987
loop_
_geom_bond_atom_site_label_1
_geom_bond_atom_site_label_2
_geom_bond_site_symmetry_1
_geom_bond_site_symmetry_2
O4 C26 1_555 1_555
O5 C26 1_555 1_555
C23 C22 1_555 1_555
C26 C23 1_555 1_555
Dy4 O4 1_555 1_555
O5 Dy4 1_555 1_555
O10 C27 1_555 1_555
O11 C28 1_555 1_555
O12 C30 1_555 1_555
Dy4 O10 1_555 1_555
O15 Dy4 1_555 1_555
O16 Dy4 1_555 1_555
N3 C38 1_555 1_555
N4 C46 1_555 1_555
C31 O15 1_555 1_555
C32 C31 1_555 1_555
C33 C32 1_555 1_555
H21 C33 1_555 1_555
C34 C33 1_555 1_555
H22 C34 1_555 1_555
C35 C34 1_555 1_555
C36 C35 1_555 1_555
H23 C36 1_555 1_555
C37 C32 1_555 1_555
H24 C37 1_555 1_555
C38 C35 1_555 1_555
H25 C38 1_555 1_555
H26 C38 1_555 1_555
C39 N3 1_555 1_555
H27 C39 1_555 1_555
C40 C39 1_555 1_555
H28 C40 1_555 1_555
C41 C40 1_555 1_555
C42 C41 1_555 1_555
H29 C42 1_555 1_555
C43 N3 1_555 1_555
H30 C43 1_555 1_555
C44 C41 1_555 1_555
C45 C44 1_555 1_555
H31 C45 1_555 1_555
C46 C45 1_555 1_555
H32 C46 1_555 1_555
C47 N4 1_555 1_555
H33 C47 1_555 1_555
C48 C44 1_555 1_555
H34 C48 1_555 1_555
C49 N4 1_555 1_555
H35 C49 1_555 1_555
H36 C49 1_555 1_555
C50 C49 1_555 1_555
C51 C50 1_555 1_555
H37 C51 1_555 1_555
C55 C50 1_555 1_555
H40 C55 1_555 1_555
Dy5 O9 1_555 1_555
O24 Dy4 1_555 1_555
C27 C28 1_555 1_555
O11 Dy4 1_555 1_555
O12 Dy5 1_555 1_555
O16 C31 1_555 1_555
C36 C37 1_555 1_555
C42 C43 1_555 1_555
C47 C48 1_555 1_555
C29 O23 1_555 1_555
O17 C56 1_555 1_555
O18 C56 1_555 1_555
C53 C52 1_555 1_555
C54 C53 1_555 1_555
H39 C54 1_555 1_555
C56 C53 1_555 1_555
Dy5 O17 1_555 1_555
O18 Dy5 1_555 1_555
H15 C19 1_555 1_555
H16 C19 1_555 1_555
H20 C25 1_555 1_555
O2 Dy5 1_555 1_555
O3 Dy5 1_555 1_555
O6 Dy5 1_555 1_555
O7 Dy5 1_555 1_555
N1 C8 1_555 1_555
N2 C16 1_555 1_555
C1 O2 1_555 1_555
C2 C1 1_555 1_555
C3 C2 1_555 1_555
H1 C3 1_555 1_555
C4 C3 1_555 1_555
H2 C4 1_555 1_555
C5 C4 1_555 1_555
C6 C5 1_555 1_555
H3 C6 1_555 1_555
C7 C2 1_555 1_555
H4 C7 1_555 1_555
C8 C5 1_555 1_555
H5 C8 1_555 1_555
H6 C8 1_555 1_555
C9 N1 1_555 1_555
H7 C9 1_555 1_555
C10 C9 1_555 1_555
H8 C10 1_555 1_555
C11 C10 1_555 1_555
C12 C11 1_555 1_555
H9 C12 1_555 1_555
C13 N1 1_555 1_555
H10 C13 1_555 1_555
C14 C11 1_555 1_555
C15 C14 1_555 1_555
H11 C15 1_555 1_555
C16 C15 1_555 1_555
H12 C16 1_555 1_555
C17 N2 1_555 1_555
H13 C17 1_555 1_555
C18 C14 1_555 1_555
H14 C18 1_555 1_555
C21 C20 1_555 1_555
H17 C21 1_555 1_555
C27_2 O6 1_555 1_555
C28_2 O7 1_555 1_555
O3 C1 1_555 1_555
C6 C7 1_555 1_555
C12 C13 1_555 1_555
C17 C18 1_555 1_555
C27_2 C28_2 1_555 1_555
H19 C24 1_555 1_555
O2_2 Dy1 1_555 1_555
O3_2 Dy1 1_555 1_555
O6_2 Dy1 1_555 1_555
O7_2 Dy1 1_555 1_555
O8 Dy1 1_555 1_555
N1_2 C8_2 1_555 1_555
N2_2 C16_2 1_555 1_555
C1_2 O2_2 1_555 1_555
C2_2 C1_2 1_555 1_555
C3_2 C2_2 1_555 1_555
H1_2 C3_2 1_555 1_555
C4_2 C3_2 1_555 1_555
H2_2 C4_2 1_555 1_555
C5_2 C4_2 1_555 1_555
C6_2 C5_2 1_555 1_555
H3_2 C6_2 1_555 1_555
C7_2 C2_2 1_555 1_555
H4_2 C7_2 1_555 1_555
C8_2 C5_2 1_555 1_555
H5_2 C8_2 1_555 1_555
H6_2 C8_2 1_555 1_555
C9_2 N1_2 1_555 1_555
H7_2 C9_2 1_555 1_555
C10_2 C9_2 1_555 1_555
H8_2 C10_2 1_555 1_555
C11_2 C10_2 1_555 1_555
C12_2 C11_2 1_555 1_555
H9_2 C12_2 1_555 1_555
C13_2 N1_2 1_555 1_555
H10_2 C13_2 1_555 1_555
C14_2 C11_2 1_555 1_555
C15_2 C14_2 1_555 1_555
H11_2 C15_2 1_555 1_555
C16_2 C15_2 1_555 1_555
H12_2 C16_2 1_555 1_555
C17_2 N2_2 1_555 1_555
H13_2 C17_2 1_555 1_555
C18_2 C14_2 1_555 1_555
H14_2 C18_2 1_555 1_555
C21_2 C20_2 1_555 1_555
H17_2 C21_2 1_555 1_555
C27_3 O6_2 1_555 1_555
C28_3 O7_2 1_555 1_555
C29_2 O8 1_555 1_555
O13 Dy1 1_555 1_555
O20 Dy1 1_555 1_555
O22 Dy1 1_555 1_555
O3_2 C1_2 1_555 1_555
C6_2 C7_2 1_555 1_555
C12_2 C13_2 1_555 1_555
C17_2 C18_2 1_555 1_555
C27_3 C28_3 1_555 1_555
H15_2 C19_2 1_555 1_555
H16_2 C19_2 1_555 1_555
H20_2 C25_2 1_555 1_555
O20 C56_2 1_555 1_555
O22 C56_2 1_555 1_555
C53_2 C52_2 1_555 1_555
C54_2 C53_2 1_555 1_555
H39_2 C54_2 1_555 1_555
C56_2 C53_2 1_555 1_555
O12_2 C30_2 1_555 1_555
Dy5_2 O9_2 1_555 1_555
O10_2 C27_4 1_555 1_555
O11_2 C28_4 1_555 1_555
Dy5_2 O10_2 1_555 1_555
O15_2 Dy5_2 1_555 1_555
O16_2 Dy5_2 1_555 1_555
N3_2 C38_2 1_555 1_555
N4_2 C46_2 1_555 1_555
C31_2 O15_2 1_555 1_555
C32_2 C31_2 1_555 1_555
C33_2 C32_2 1_555 1_555
H21_2 C33_2 1_555 1_555
C34_2 C33_2 1_555 1_555
H22_2 C34_2 1_555 1_555
C35_2 C34_2 1_555 1_555
C36_2 C35_2 1_555 1_555
H23_2 C36_2 1_555 1_555
C37_2 C32_2 1_555 1_555
H24_2 C37_2 1_555 1_555
C38_2 C35_2 1_555 1_555
H25_2 C38_2 1_555 1_555
H26_2 C38_2 1_555 1_555
C39_2 N3_2 1_555 1_555
H27_2 C39_2 1_555 1_555
C40_2 C39_2 1_555 1_555
H28_2 C40_2 1_555 1_555
C41_2 C40_2 1_555 1_555
C42_2 C41_2 1_555 1_555
H29_2 C42_2 1_555 1_555
C43_2 N3_2 1_555 1_555
H30_2 C43_2 1_555 1_555
C44_2 C41_2 1_555 1_555
C45_2 C44_2 1_555 1_555
H31_2 C45_2 1_555 1_555
C46_2 C45_2 1_555 1_555
H32_2 C46_2 1_555 1_555
C47_2 N4_2 1_555 1_555
H33_2 C47_2 1_555 1_555
C48_2 C44_2 1_555 1_555
H34_2 C48_2 1_555 1_555
C49_2 N4_2 1_555 1_555
H35_2 C49_2 1_555 1_555
H36_2 C49_2 1_555 1_555
C50_2 C49_2 1_555 1_555
C51_2 C50_2 1_555 1_555
H37_2 C51_2 1_555 1_555
C55_2 C50_2 1_555 1_555
H40_2 C55_2 1_555 1_555
O19 Dy5_2 1_555 1_555
O21 Dy5_2 1_555 1_555
C27_4 C28_4 1_555 1_555
O11_2 Dy5_2 1_555 1_555
O16_2 C31_2 1_555 1_555
C36_2 C37_2 1_555 1_555
C42_2 C43_2 1_555 1_555
C47_2 C48_2 1_555 1_555
O19 C26_2 1_555 1_555
O21 C26_2 1_555 1_555
C23_2 C22_2 1_555 1_555
C26_2 C23_2 1_555 1_555
H19_2 C24_2 1_555 1_555

#END
