
###############################################################################
#
# This file contains modified crystal structure data generated from the
# MOF subset of the Cambridge Structural Database (CSD) v543 
# hosted by the Cambridge Crystallographic Data Centre (CCDC).
#
# This work is licensed under the Creative Commons
# Attribution-NonCommercial-ShareAlike 4.0 International License.
# To view a copy of this license, visit
# http://creativecommons.org/licenses/by-nc-sa/4.0/
# or send a letter to
# Creative Commons, PO Box 1866, Mountain View, CA 94042, USA.
#
# CIF created using the CSD Python API on 29 September 2022
# The structure has been converted into the P1 space group
# The structure has a 3D framework
# The original CSD entry REWVEX is in the hexagonal crystal system
# The original CSD entry REWVEX is in a Sohncke space group
# The framework has been calculated to contain at least 10.0% void space
# The void calculation uses a probe of radius 1.32A, grid spacing 0.4
# H atom positions have been added when not included in the experimental data
#
###############################################################################

data_REWVEX
_chemical_formula_moiety         '(C42 H42 N6 O36 Tb6)n'
_symmetry_cell_setting           triclinic
_symmetry_space_group_name_H-M   'P 1'
_symmetry_Int_Tables_number      1
_space_group_name_Hall           'P 1'
loop_
_symmetry_equiv_pos_site_id
_symmetry_equiv_pos_as_xyz
1 x,y,z
_cell_length_a                   11.7782(8)
_cell_length_b                   11.7782(8)
_cell_length_c                   15.6393(11)
_cell_angle_alpha                90
_cell_angle_beta                 90
_cell_angle_gamma                120
_cell_volume                     1878.91
loop_
_atom_site_label
_atom_site_type_symbol
_atom_site_fract_x
_atom_site_fract_y
_atom_site_fract_z
O3 O 0.4005(17) 0.0108(16) 0.8888(12)
O6 O 0.6103(23) 0.0108(16) 0.6112(12)
Tb2 Tb 0.82288(16) 0.17713(7) 0.583333
Tb6 Tb 0.35425(14) 0.17712(16) 0.916667
Tb4 Tb 0.17712(16) 0.82287(7) 0.083333
Tb1 Tb 0.17713(7) 0.35425(14) 0.750000
C1 C 0.284(2) 0.684(2) 0.8087(13)
H1 H 0.218494 0.638427 0.849175
C2 C 0.350(2) 0.817(2) 0.8118(14)
C3 C 0.4424(15) 0.885(3) 0.750000
H2 H 0.487949 0.975898 0.749999
C4 C 0.332(2) 0.887(2) 0.8859(14)
N1 N 0.3068(11) 0.614(2) 0.750000
O1 O 0.2508(17) 0.8170(18) 0.9427(10)
O2 O 0.188(6) 0.189(6) 0.655(3)
O4 O 0.168(3) 0.168(3) 0.833333
C5 C 0.400(3) 0.684(2) 0.6913(13)
H3 H 0.419933 0.638427 0.650825
C6 C 0.467(3) 0.817(2) 0.6882(14)
C7 C 0.555(3) 0.887(2) 0.6141(14)
O5 O 0.5662(25) 0.8170(18) 0.5573(10)
O7 O 0.001(8) 0.189(6) 0.845(3)
Tb3 Tb 0.64575(14) 0.82288(16) 0.416667
O8 O 0.1830(18) 0.4338(25) 0.6094(10)
O9 O 0.2508(17) 0.4338(25) 0.8906(10)
O10 O 0.3897(23) 0.4005(17) 0.7221(12)
O11 O 0.0108(16) 0.4005(17) 0.7779(12)
O12 O 0.000(4) 0.168(3) 0.666666
H6 H 0.277666 0.201116 0.65706
H7 H 0.123701 0.0993063 0.674865
O12_2 O 1.000(4) 0.168(3) 0.666666
H4 H 0.923384 0.201001 0.842846
H5 H 0.975732 0.0993056 0.825207
H6_2 H 0.0765501 0.277666 0.490393
H7_2 H 0.0243943 0.123701 0.508199
C1_2 C 0.600(3) 0.284(2) 0.6420(13)
H1_2 H 0.580067 0.218494 0.682508
C2_2 C 0.533(3) 0.350(2) 0.6451(14)
C3_2 C 0.5574(34) 0.4424(15) 0.583333
H2_2 H 0.512051 0.487949 0.583332
C4_2 C 0.445(3) 0.332(2) 0.7192(14)
N1_2 N 0.6928(23) 0.3068(11) 0.583333
O1_2 O 0.4338(25) 0.2508(17) 0.7760(10)
O2_2 O 0.999(8) 0.188(6) 0.488(3)
C5_2 C 0.716(4) 0.400(3) 0.5246(13)
H3_2 H 0.781506 0.419933 0.484158
C6_2 C 0.650(4) 0.467(3) 0.5215(14)
C7_2 C 0.668(4) 0.555(3) 0.4474(14)
O5_2 O 0.7492(31) 0.5662(25) 0.3906(10)
O6_2 O 0.5995(28) 0.6103(23) 0.4445(12)
O7_2 O 0.812(10) 0.001(8) 0.678(3)
Tb3_2 Tb 0.82287(21) 0.64575(14) 0.250000
O8_2 O 0.7492(31) 0.1830(18) 0.4427(10)
O9_2 O 0.8170(30) 0.2508(17) 0.7240(10)
O10_2 O 0.9892(29) 0.3897(23) 0.5555(12)
O12_3 O 0.832(5) 0.000(4) 0.500000
O12_4 O 0.832(5) 1.000(4) 0.500000
H4_2 H 0.722383 0.923384 0.67618
H5_2 H 0.876427 0.975732 0.65854
H6_3 H 0.798884 0.0765501 0.323726
H7_3 H 0.900694 0.0243943 0.341532
C1_3 C 0.316(2) 0.600(3) 0.4754(13)
H1_3 H 0.361573 0.580067 0.515842
C2_3 C 0.183(2) 0.533(3) 0.4785(14)
C3_3 C 0.115(3) 0.5574(34) 0.416667
H2_3 H 0.024102 0.512051 0.416666
C4_3 C 0.113(2) 0.445(3) 0.5526(14)
N1_3 N 0.386(2) 0.6928(23) 0.416667
O2_3 O 0.811(6) 0.999(8) 0.322(3)
C5_3 C 0.316(2) 0.716(4) 0.3580(13)
H3_3 H 0.361573 0.781506 0.317492
C6_3 C 0.183(2) 0.650(4) 0.3549(14)
C7_3 C 0.113(2) 0.668(4) 0.2808(14)
O5_3 O 0.1830(18) 0.7492(31) 0.2240(10)
O7_3 O 0.811(6) 0.812(10) 0.512(3)
O8_3 O 0.5662(25) 0.7492(31) 0.2760(10)
O10_3 O 0.5995(17) 0.9892(29) 0.3888(12)
O12_5 O 0.832(3) 0.832(5) 0.333333
H4_3 H 0.798999 0.722383 0.509513
H5_3 H 0.900694 0.876427 0.491874
O6_3 O 0.9892(16) 0.5995(28) 0.2779(12)
O12_6 O 0.000(4) 0.832(3) 0.166666
H4_4 H 0.0766161 0.798999 0.342846
H5_4 H 0.0242677 0.900694 0.325207
C1_4 C 0.716(2) 0.316(2) 0.3087(13)
H1_4 H 0.781506 0.361573 0.349175
C2_4 C 0.650(2) 0.183(2) 0.3118(14)
C3_4 C 0.5576(15) 0.115(3) 0.250000
H2_4 H 0.512051 0.024102 0.249999
C4_4 C 0.668(2) 0.113(2) 0.3859(14)
N1_4 N 0.6932(11) 0.386(2) 0.250000
O2_4 O 0.812(6) 0.811(6) 0.155(3)
C5_4 C 0.600(3) 0.316(2) 0.1913(13)
H3_4 H 0.580067 0.361573 0.150825
C6_4 C 0.533(3) 0.183(2) 0.1882(14)
C7_4 C 0.445(3) 0.113(2) 0.1141(14)
O5_4 O 0.4338(25) 0.1830(18) 0.0573(10)
O7_4 O 0.999(8) 0.811(6) 0.345(3)
O8_4 O 0.8170(18) 0.5662(25) 0.1094(10)
O10_4 O 0.6103(23) 0.5995(17) 0.2221(12)
O12_7 O 1.000(4) 0.832(3) 0.166666
H6_4 H 0.722334 0.798884 0.15706
H7_4 H 0.876299 0.900694 0.174865
O6_4 O 0.3897(23) 0.9892(16) 0.1112(12)
O12_8 O 0.168(5) -0.000(4) -0.000000
H4_5 H 0.277617 0.0766161 0.17618
H5_5 H 0.123573 0.0242677 0.15854
O12_9 O 0.168(5) -0.000(4) 1.000000
C1_5 C 0.400(3) 0.716(2) 0.1420(13)
H1_5 H 0.419933 0.781506 0.182508
C2_5 C 0.467(3) 0.650(2) 0.1451(14)
C3_5 C 0.4426(34) 0.5576(15) 0.083333
H2_5 H 0.487949 0.512051 0.083332
C4_5 C 0.555(3) 0.668(2) 0.2192(14)
N1_5 N 0.3072(23) 0.6932(11) 0.083333
C5_5 C 0.284(4) 0.600(3) 0.0246(13)
C6_5 C 0.350(4) 0.533(3) 0.0215(14)
O7_5 O 0.188(10) 0.999(8) 0.178(3)
O10_5 O 0.0108(29) 0.6103(23) 0.0555(12)
O12_10 O 0.168(5) 1.000(4) -0.000000
O2_5 O 0.001(8) 0.812(6) 0.988(3)
H3_5 H 0.218494 0.580067 0.984158
C7_5 C 0.332(4) 0.445(3) 0.9474(14)
O6_5 O 0.4005(28) 0.3897(23) 0.9445(12)
O12_11 O 0.168(5) 1.000(4) 1.000000
H7_5 H 0.975606 0.876299 0.00819864
H1_6 H 0.638427 0.419933 0.015842
C4_6 C 0.887(2) 0.555(3) 0.0526(14)
O7_6 O 0.189(6) 0.188(10) 0.012(3)
H4_6 H 0.201001 0.277617 0.0095129
C1_6 C 0.684(2) 0.400(3) 0.9754(13)
C2_6 C 0.817(2) 0.467(3) 0.9785(14)
C3_6 C 0.885(3) 0.4426(34) 0.916667
H2_6 H 0.975898 0.487949 0.916666
N1_6 N 0.614(2) 0.3072(23) 0.916667
O2_6 O 0.189(6) 0.001(8) 0.822(3)
C5_6 C 0.684(2) 0.284(4) 0.8580(13)
H3_6 H 0.638427 0.218494 0.817492
C6_6 C 0.817(2) 0.350(4) 0.8549(14)
C7_6 C 0.887(2) 0.332(4) 0.7808(14)
H5_6 H 0.0993056 0.123573 0.991874
H6_5 H 0.201116 0.92345 0.823726
H7_6 H 0.0993063 0.975606 0.841532
H6_6 H 0.92345 0.722334 0.990393
loop_
_geom_bond_atom_site_label_1
_geom_bond_atom_site_label_2
_geom_bond_site_symmetry_1
_geom_bond_site_symmetry_2
Tb2 O6 1_555 1_555
Tb6 O3 1_555 1_555
Tb1 N1 1_555 1_555
C1 H1 1_555 1_555
C2 C1 1_555 1_555
C3 C2 1_555 1_555
H2 C3 1_555 1_555
C4 C2 1_555 1_555
N1 C1 1_555 1_555
O1 C4 1_555 1_555
O2 Tb1 1_555 1_555
O4 Tb1 1_555 1_555
C5 N1 1_555 1_555
H3 C5 1_555 1_555
C6 C3 1_555 1_555
C7 C6 1_555 1_555
O5 C7 1_555 1_555
O7 Tb1 1_555 1_555
Tb3 O5 1_555 1_555
Tb6 O4 1_555 1_555
O8 Tb1 1_555 1_555
O9 Tb1 1_555 1_555
O10 Tb1 1_555 1_555
O11 Tb1 1_555 1_555
O12 Tb1 1_555 1_555
C5 C6 1_555 1_555
O2 H6 1_555 1_555
O2 H7 1_555 1_555
Tb2 N1_2 1_555 1_555
C1_2 H1_2 1_555 1_555
C2_2 C1_2 1_555 1_555
C3_2 C2_2 1_555 1_555
H2_2 C3_2 1_555 1_555
C4_2 C2_2 1_555 1_555
N1_2 C1_2 1_555 1_555
O1_2 C4_2 1_555 1_555
O2_2 Tb2 1_555 1_555
O10 C4_2 1_555 1_555
O12_2 Tb2 1_555 1_555
C5_2 N1_2 1_555 1_555
H3_2 C5_2 1_555 1_555
C6_2 C3_2 1_555 1_555
C7_2 C6_2 1_555 1_555
O5_2 C7_2 1_555 1_555
O6_2 C7_2 1_555 1_555
O7_2 Tb2 1_555 1_555
Tb3 O6_2 1_555 1_555
Tb3_2 O5_2 1_555 1_555
Tb6 O1_2 1_555 1_555
O8_2 Tb2 1_555 1_555
O9_2 Tb2 1_555 1_555
O10_2 Tb2 1_555 1_555
O12_3 Tb2 1_555 1_555
C5_2 C6_2 1_555 1_555
Tb3 N1_3 1_555 1_555
C1_3 H1_3 1_555 1_555
C2_3 C1_3 1_555 1_555
C3_3 C2_3 1_555 1_555
H2_3 C3_3 1_555 1_555
C4_3 C2_3 1_555 1_555
N1_3 C1_3 1_555 1_555
O8 C4_3 1_555 1_555
O2_3 Tb3 1_555 1_555
O12_4 Tb3 1_555 1_555
C5_3 N1_3 1_555 1_555
H3_3 C5_3 1_555 1_555
C6_3 C3_3 1_555 1_555
C7_3 C6_3 1_555 1_555
O5_3 C7_3 1_555 1_555
O7_3 Tb3 1_555 1_555
Tb4 O5_3 1_555 1_555
O8_3 Tb3 1_555 1_555
O10_3 Tb3 1_555 1_555
O12_5 Tb3 1_555 1_555
C5_3 C6_3 1_555 1_555
O7_3 H4_3 1_555 1_555
O7_3 H5_3 1_555 1_555
Tb3_2 O6_3 1_555 1_555
Tb3_2 N1_4 1_555 1_555
C1_4 H1_4 1_555 1_555
C2_4 C1_4 1_555 1_555
C3_4 C2_4 1_555 1_555
H2_4 C3_4 1_555 1_555
C4_4 C2_4 1_555 1_555
N1_4 C1_4 1_555 1_555
O8_2 C4_4 1_555 1_555
O2_4 Tb3_2 1_555 1_555
O12_5 Tb3_2 1_555 1_555
C5_4 N1_4 1_555 1_555
H3_4 C5_4 1_555 1_555
C6_4 C3_4 1_555 1_555
C7_4 C6_4 1_555 1_555
O5_4 C7_4 1_555 1_555
O7_4 Tb3_2 1_555 1_555
O8_4 Tb3_2 1_555 1_555
O10_4 Tb3_2 1_555 1_555
O12_7 Tb3_2 1_555 1_555
C5_4 C6_4 1_555 1_555
O2_4 H6_4 1_555 1_555
O2_4 H7_4 1_555 1_555
Tb4 O6_4 1_555 1_555
Tb4 N1_5 1_555 1_555
C1_5 H1_5 1_555 1_555
C2_5 C1_5 1_555 1_555
C3_5 C2_5 1_555 1_555
H2_5 C3_5 1_555 1_555
C4_5 C2_5 1_555 1_555
N1_5 C1_5 1_555 1_555
O8_3 C4_5 1_555 1_555
O10_4 C4_5 1_555 1_555
O12_6 Tb4 1_555 1_555
C5_5 N1_5 1_555 1_555
C6_5 C3_5 1_555 1_555
O7_5 Tb4 1_555 1_555
O10_5 Tb4 1_555 1_555
O12_10 Tb4 1_555 1_555
C5_5 C6_5 1_555 1_555
O9 C7_5 1_555 1_555
O6_5 C7_5 1_555 1_555
Tb6 O6_5 1_555 1_555
O8_4 C4_6 1_555 1_555
O7_6 H4_6 1_555 1_555
Tb6 N1_6 1_555 1_555
C2_6 C1_6 1_555 1_555
C3_6 C2_6 1_555 1_555
H2_6 C3_6 1_555 1_555
N1_6 C1_6 1_555 1_555
O2_6 Tb6 1_555 1_555
O12_9 Tb6 1_555 1_555
C5_6 N1_6 1_555 1_555
H3_6 C5_6 1_555 1_555
C6_6 C3_6 1_555 1_555
C7_6 C6_6 1_555 1_555
O9_2 C7_6 1_555 1_555
C5_6 C6_6 1_555 1_555

#END
