
###############################################################################
#
# This file contains modified crystal structure data generated from the
# MOF subset of the Cambridge Structural Database (CSD) v543 
# hosted by the Cambridge Crystallographic Data Centre (CCDC).
#
# This work is licensed under the Creative Commons
# Attribution-NonCommercial-ShareAlike 4.0 International License.
# To view a copy of this license, visit
# http://creativecommons.org/licenses/by-nc-sa/4.0/
# or send a letter to
# Creative Commons, PO Box 1866, Mountain View, CA 94042, USA.
#
# CIF created using the CSD Python API on 29 September 2022
# The structure has been converted into the P1 space group
# The structure has a 3D framework
# The original CSD entry REXCOO is in the monoclinic crystal system
# The framework has been calculated to contain at least 10.0% void space
# The void calculation uses a probe of radius 1.32A, grid spacing 0.4
#
###############################################################################

data_REXCOO
_chemical_formula_moiety         '(C288 H192 I48 N94 Zn23)n'
_symmetry_cell_setting           triclinic
_symmetry_space_group_name_H-M   'P 1'
_symmetry_Int_Tables_number      1
_space_group_name_Hall           'P 1'
loop_
_symmetry_equiv_pos_site_id
_symmetry_equiv_pos_as_xyz
1 x,y,z
_cell_length_a                   34.534(6)
_cell_length_b                   15.028(3)
_cell_length_c                   31.197(6)
_cell_angle_alpha                90
_cell_angle_beta                 101.215(3)
_cell_angle_gamma                90
_cell_volume                     15881.4
loop_
_atom_site_label
_atom_site_type_symbol
_atom_site_fract_x
_atom_site_fract_y
_atom_site_fract_z
C1 C 0.4809(5) 0.0595(9) 0.6936(6)
H1 H 0.4945 0.0908 0.7185
C2 C 0.4512(5) 0.1060(11) 0.6667(5)
H2 H 0.4422 0.1629 0.6737
C3 C 0.4361(5) 0.0620(9) 0.6289(5)
C6 C 0.4032(5) 0.1081(8) 0.5976(5)
N2 N 0.3971(4) 0.1954(8) 0.6015(5)
C7 C 0.3701(5) 0.2295(8) 0.5688(5)
N3 N 0.3451(4) 0.1849(7) 0.5376(4)
C8 C 0.3532(5) 0.0978(8) 0.5399(5)
N4 N 0.3843(4) 0.0579(7) 0.5649(4)
N5 N 0.3466(5) 0.5075(7) 0.5677(5)
C9 C 0.3240(5) 0.4561(9) 0.5440(5)
H5 H 0.3011 0.4808 0.5261
C10 C 0.3298(5) 0.3620(10) 0.5415(6)
H6 H 0.3123 0.3248 0.5221
C11 C 0.3634(6) 0.3288(7) 0.5699(6)
C12 C 0.3854(5) 0.3818(9) 0.5979(7)
H7 H 0.4063 0.3593 0.6195
C13 C 0.3770(5) 0.4722(8) 0.5947(6)
H8 H 0.3943 0.5114 0.6132
Zn2 Zn 0.33725(11) 0.64316(17) 0.56345(11)
I3 I 0.39892(7) 0.73589(11) 0.58756(7)
I4 I 0.29114(8) 0.67040(12) 0.48913(7)
C16 C 0.3309(5) 0.0411(9) 0.5027(4)
C17 C 0.3035(5) 0.0814(9) 0.4708(5)
H11 H 0.2978 0.1429 0.4731
C18 C 0.2841(5) 0.0330(7) 0.4354(5)
H12 H 0.2658 0.0628 0.4133
C19 C 0.2020(5) 0.0311(9) 0.3394(6)
H13 H 0.1847 0.0149 0.3584
C20 C 0.1939(5) 0.1074(10) 0.3147(6)
H14 H 0.1700 0.1394 0.3132
C21 C 0.2224(5) 0.1350(9) 0.2921(5)
C22 C 0.2532(5) 0.0806(11) 0.2881(6)
H15 H 0.2706 0.0951 0.2690
C23 C 0.2579(6) 0.0042(11) 0.3127(6)
C24 C 0.2150(5) 0.2129(9) 0.2608(5)
N8 N 0.1885(4) 0.2730(8) 0.2678(5)
C25 C 0.1823(5) 0.3392(9) 0.2391(5)
N9 N 0.2050(4) 0.3588(8) 0.2106(5)
C26 C 0.2327(5) 0.2983(9) 0.2086(6)
N10 N 0.2393(4) 0.2257(8) 0.2334(5)
N11 N 0.0849(4) 0.5132(10) 0.2407(6)
C27 C 0.1079(4) 0.5235(10) 0.2118(5)
H17 H 0.1009 0.5681 0.1901
C28 C 0.1414(4) 0.4743(9) 0.2109(5)
H18 H 0.1582 0.4873 0.1910
C29 C 0.1494(4) 0.4042(10) 0.2408(6)
C30 C 0.1282(5) 0.3979(10) 0.2728(6)
H19 H 0.1357 0.3585 0.2968
C31 C 0.0949(4) 0.4513(11) 0.2691(6)
H20 H 0.0781 0.4412 0.2894
N12 N 0.3054(5) 0.3365(8) 0.1126(6)
C32 C 0.3085(7) 0.2682(10) 0.1400(7)
H21 H 0.3282 0.2253 0.1377
C33 C 0.2865(5) 0.2529(9) 0.1711(8)
H22 H 0.2927 0.2053 0.1913
C34 C 0.2554(5) 0.3079(10) 0.1723(7)
C35 C 0.2474(7) 0.3724(12) 0.1412(7)
H23 H 0.2242 0.4076 0.1384
C36 C 0.2737(6) 0.3853(11) 0.1140(8)
H24 H 0.2687 0.4339 0.0942
Zn4 Zn 0.03540(10) 0.59102(16) 0.23576(11)
Zn5 Zn 0.33725(11) 0.35684(17) 0.06345(11)
N14 N 0.3054(5) 0.6635(8) 0.6126(6)
C1_2 C 0.4809(5) 0.9405(9) 0.1936(6)
H1_2 H 0.4945 0.9092 0.2185
C2_2 C 0.4512(5) 0.8940(11) 0.1667(5)
H2_2 H 0.4422 0.8371 0.1737
C3_2 C 0.4361(5) 0.9380(9) 0.1289(5)
C6_2 C 0.4032(5) 0.8919(8) 0.0976(5)
N2_2 N 0.3971(4) 0.8046(8) 0.1015(5)
C7_2 C 0.3701(5) 0.7705(8) 0.0688(5)
N3_2 N 0.3451(4) 0.8151(7) 0.0376(4)
C8_2 C 0.3532(5) 0.9022(8) 0.0399(5)
N4_2 N 0.3843(4) 0.9421(7) 0.0649(4)
N5_2 N 0.3466(5) 0.4925(7) 0.0677(5)
C9_2 C 0.3240(5) 0.5439(9) 0.0440(5)
H5_2 H 0.3011 0.5192 0.0261
C10_2 C 0.3298(5) 0.6380(10) 0.0415(6)
H6_2 H 0.3123 0.6752 0.0221
C11_2 C 0.3634(6) 0.6712(7) 0.0699(6)
C12_2 C 0.3854(5) 0.6182(9) 0.0979(7)
H7_2 H 0.4063 0.6407 0.1195
C13_2 C 0.3770(5) 0.5278(8) 0.0947(6)
H8_2 H 0.3943 0.4886 0.1132
I3_2 I 0.39892(7) 0.26411(11) 0.08756(7)
C16_2 C 0.3309(5) 0.9589(9) 0.0027(4)
I4_2 I 0.29114(8) 0.32960(12) 0.98913(7)
C17_2 C 0.3035(5) 0.9186(9) 0.9708(5)
H11_2 H 0.2978 0.8571 0.9731
C18_2 C 0.2841(5) 0.9670(7) 0.9354(5)
H12_2 H 0.2658 0.9372 0.9133
C19_2 C 0.2020(5) 0.9689(9) 0.8394(6)
H13_2 H 0.1847 0.9851 0.8584
C20_2 C 0.1939(5) 0.8926(10) 0.8147(6)
H14_2 H 0.1700 0.8606 0.8132
C21_2 C 0.2224(5) 0.8650(9) 0.7921(5)
C22_2 C 0.2532(5) 0.9194(11) 0.7881(6)
H15_2 H 0.2706 0.9049 0.7690
C23_2 C 0.2579(6) 0.9958(11) 0.8127(6)
C24_2 C 0.2150(5) 0.7871(9) 0.7608(5)
N8_2 N 0.1885(4) 0.7270(8) 0.7678(5)
C25_2 C 0.1823(5) 0.6608(9) 0.7391(5)
N9_2 N 0.2050(4) 0.6412(8) 0.7106(5)
C26_2 C 0.2327(5) 0.7017(9) 0.7086(6)
N10_2 N 0.2393(4) 0.7743(8) 0.7334(5)
N11_2 N 0.0849(4) 0.4868(10) 0.7407(6)
C27_2 C 0.1079(4) 0.4765(10) 0.7118(5)
H17_2 H 0.1009 0.4319 0.6901
C28_2 C 0.1414(4) 0.5257(9) 0.7109(5)
H18_2 H 0.1582 0.5127 0.6910
C29_2 C 0.1494(4) 0.5958(10) 0.7408(6)
C30_2 C 0.1282(5) 0.6021(10) 0.7728(6)
H19_2 H 0.1357 0.6415 0.7968
C31_2 C 0.0949(4) 0.5487(11) 0.7691(6)
H20_2 H 0.0781 0.5588 0.7894
C32_2 C 0.3085(7) 0.7318(10) 0.6400(7)
H21_2 H 0.3282 0.7747 0.6377
C33_2 C 0.2865(5) 0.7471(9) 0.6711(8)
H22_2 H 0.2927 0.7947 0.6913
C34_2 C 0.2554(5) 0.6921(10) 0.6723(7)
C35_2 C 0.2474(7) 0.6276(12) 0.6412(7)
H23_2 H 0.2242 0.5924 0.6384
C36_2 C 0.2737(6) 0.6147(11) 0.6140(8)
H24_2 H 0.2687 0.5661 0.5942
Zn4_2 Zn 0.03540(10) 0.40898(16) 0.73576(11)
I1 I 0.05218(7) 0.26649(11) 0.69861(8)
I2 I 0.01225(7) 0.41901(16) 0.80721(7)
I1_2 I 0.05218(7) 0.73351(11) 0.19861(8)
I2_2 I 0.01225(7) 0.58099(16) 0.30721(7)
Zn1 Zn 0.53540(10) 0.90898(16) 0.73576(11)
I1_3 I 0.55218(7) 0.76649(11) 0.69861(8)
I2_3 I 0.51225(7) 0.91901(16) 0.80721(7)
N1 N 0.4931(4) 0.9756(8) 0.6891(5)
C4 C 0.4437(6) 0.9717(10) 0.6281(7)
H3 H 0.4258 0.9360 0.6083
C5 C 0.4754(5) 0.9302(10) 0.6537(5)
H4 H 0.4841 0.8729 0.6469
N6 N 0.2901(4) 0.9455(6) 0.4310(4)
C14 C 0.3177(5) 0.9043(8) 0.4605(5)
H9 H 0.3253 0.8444 0.4569
C15 C 0.3342(5) 0.9545(10) 0.4960(5)
H10 H 0.3503 0.9227 0.5191
Zn3 Zn 0.24793(11) 0.87957(15) 0.38594(10)
I5 I 0.18918(7) 0.84708(14) 0.41879(7)
I6 I 0.28681(8) 0.76877(11) 0.34843(8)
N7 N 0.2329(5) 0.9792(10) 0.3377(5)
H16 H 0.2801 0.9675 0.3118
N13 N 0.5849(4) 0.9868(10) 0.7407(6)
I4_3 I 0.79114(8) 0.82960(12) 0.98913(7)
C27_3 C 0.6079(4) 0.9765(10) 0.7118(5)
H17_3 H 0.6009 0.9319 0.6901
Zn1_2 Zn 0.53540(10) 0.09102(16) 0.23576(11)
I1_4 I 0.55218(7) 0.23351(11) 0.19861(8)
I2_4 I 0.51225(7) 0.08099(16) 0.30721(7)
N1_2 N 0.4931(4) 0.0244(8) 0.1891(5)
C4_2 C 0.4437(6) 0.0283(10) 0.1281(7)
H3_2 H 0.4258 0.0640 0.1083
C5_2 C 0.4754(5) 0.0698(10) 0.1537(5)
H4_2 H 0.4841 0.1271 0.1469
H10_2 H 0.3503 0.0773 0.0191
N13_2 N 0.5849(4) 0.0132(10) 0.2407(6)
N5_3 N 0.8466(5) 0.0075(7) 0.5677(5)
H8_3 H 0.8943 0.0114 0.6132
Zn2_2 Zn 0.83725(11) 0.14316(17) 0.56345(11)
I3_3 I 0.89892(7) 0.23589(11) 0.58756(7)
I4_4 I 0.79114(8) 0.17040(12) 0.48913(7)
C27_4 C 0.6079(4) 0.0235(10) 0.2118(5)
H17_4 H 0.6009 0.0681 0.1901
N14_2 N 0.8054(5) 0.1635(8) 0.6126(6)
N6_2 N 0.7901(4) 0.5545(6) 0.9310(4)
C14_2 C 0.8177(5) 0.5957(8) 0.9605(5)
H9_2 H 0.8253 0.6556 0.9569
C15_2 C 0.8342(5) 0.5455(10) 0.9960(5)
C17_3 C 0.8035(5) 0.4186(9) 0.9708(5)
H11_3 H 0.7978 0.3571 0.9731
C18_3 C 0.7841(5) 0.4670(7) 0.9354(5)
H12_3 H 0.7658 0.4372 0.9133
Zn3_2 Zn 0.74793(11) 0.62043(15) 0.88594(10)
I5_2 I 0.68918(7) 0.65292(14) 0.91879(7)
I6_2 I 0.78681(8) 0.73123(11) 0.84843(8)
N7_2 N 0.7329(5) 0.5208(10) 0.8377(5)
C19_3 C 0.7020(5) 0.4689(9) 0.8394(6)
H13_3 H 0.6847 0.4851 0.8584
C20_3 C 0.6939(5) 0.3926(10) 0.8147(6)
H14_3 H 0.6700 0.3606 0.8132
C21_3 C 0.7224(5) 0.3650(9) 0.7921(5)
C22_3 C 0.7532(5) 0.4194(11) 0.7881(6)
H15_3 H 0.7706 0.4049 0.7690
C23_3 C 0.7579(6) 0.4958(11) 0.8127(6)
H16_2 H 0.7801 0.5325 0.8118
C24_3 C 0.7150(5) 0.2871(9) 0.7608(5)
N8_3 N 0.6885(4) 0.2270(8) 0.7678(5)
C25_3 C 0.6823(5) 0.1608(9) 0.7391(5)
N9_3 N 0.7050(4) 0.1412(8) 0.7106(5)
C26_3 C 0.7327(5) 0.2017(9) 0.7086(6)
N10_3 N 0.7393(4) 0.2743(8) 0.7334(5)
C28_3 C 0.6414(4) 0.0257(9) 0.7109(5)
H18_3 H 0.6582 0.0127 0.6910
C29_3 C 0.6494(4) 0.0958(10) 0.7408(6)
C30_3 C 0.6282(5) 0.1021(10) 0.7728(6)
H19_3 H 0.6357 0.1415 0.7968
C31_3 C 0.5949(4) 0.0487(11) 0.7691(6)
H20_3 H 0.5781 0.0588 0.7894
C32_3 C 0.8085(7) 0.2318(10) 0.6400(7)
H21_3 H 0.8282 0.2747 0.6377
C33_3 C 0.7865(5) 0.2471(9) 0.6711(8)
H22_3 H 0.7927 0.2947 0.6913
C34_3 C 0.7554(5) 0.1921(10) 0.6723(7)
C35_3 C 0.7474(7) 0.1276(12) 0.6412(7)
H23_3 H 0.7242 0.0924 0.6384
C36_3 C 0.7737(6) 0.1147(11) 0.6140(8)
H24_3 H 0.7687 0.0661 0.5942
N6_3 N 0.2901(4) 0.0545(6) 0.9310(4)
C14_3 C 0.3177(5) 0.0957(8) 0.9605(5)
H9_3 H 0.3253 0.1556 0.9569
C15_3 C 0.3342(5) 0.0455(10) 0.9960(5)
Zn3_3 Zn 0.24793(11) 0.12043(15) 0.88594(10)
I5_3 I 0.18918(7) 0.15292(14) 0.91879(7)
I6_3 I 0.28681(8) 0.23123(11) 0.84843(8)
N7_3 N 0.2329(5) 0.0208(10) 0.8377(5)
H16_3 H 0.2801 0.0325 0.8118
N1_3 N 0.9931(4) 0.4756(8) 0.6891(5)
C1_3 C 0.9809(5) 0.5595(9) 0.6936(6)
H1_3 H 0.9945 0.5908 0.7185
C2_3 C 0.9512(5) 0.6060(11) 0.6667(5)
H2_3 H 0.9422 0.6629 0.6737
C3_3 C 0.9361(5) 0.5620(9) 0.6289(5)
C4_3 C 0.9437(6) 0.4717(10) 0.6281(7)
H3_3 H 0.9258 0.4360 0.6083
C5_3 C 0.9754(5) 0.4302(10) 0.6537(5)
H4_3 H 0.9841 0.3729 0.6469
C6_3 C 0.9032(5) 0.6081(8) 0.5976(5)
N2_3 N 0.8971(4) 0.6954(8) 0.6015(5)
C7_3 C 0.8701(5) 0.7295(8) 0.5688(5)
N3_3 N 0.8451(4) 0.6849(7) 0.5376(4)
C8_3 C 0.8532(5) 0.5978(8) 0.5399(5)
N4_3 N 0.8843(4) 0.5579(7) 0.5649(4)
C9_3 C 0.8240(5) 0.9561(9) 0.5440(5)
H5_3 H 0.8011 0.9808 0.5261
C10_3 C 0.8298(5) 0.8620(10) 0.5415(6)
H6_3 H 0.8123 0.8248 0.5221
C11_3 C 0.8634(6) 0.8288(7) 0.5699(6)
C12_3 C 0.8854(5) 0.8818(9) 0.5979(7)
H7_3 H 0.9063 0.8593 0.6195
C13_3 C 0.8770(5) 0.9722(8) 0.5947(6)
N6_4 N 0.7901(4) 0.4455(6) 0.4310(4)
C14_4 C 0.8177(5) 0.4043(8) 0.4605(5)
H9_4 H 0.8253 0.3444 0.4569
C15_4 C 0.8342(5) 0.4545(10) 0.4960(5)
H10_3 H 0.8503 0.4227 0.5191
C16_3 C 0.8309(5) 0.5411(9) 0.5027(4)
C17_4 C 0.8035(5) 0.5814(9) 0.4708(5)
H11_4 H 0.7978 0.6429 0.4731
C18_4 C 0.7841(5) 0.5330(7) 0.4354(5)
H12_4 H 0.7658 0.5628 0.4133
Zn3_4 Zn 0.74793(11) 0.37957(15) 0.38594(10)
I5_4 I 0.68918(7) 0.34708(14) 0.41879(7)
I6_4 I 0.78681(8) 0.26877(11) 0.34843(8)
N7_4 N 0.7329(5) 0.4792(10) 0.3377(5)
C19_4 C 0.7020(5) 0.5311(9) 0.3394(6)
H13_4 H 0.6847 0.5149 0.3584
C20_4 C 0.6939(5) 0.6074(10) 0.3147(6)
H14_4 H 0.6700 0.6394 0.3132
C21_4 C 0.7224(5) 0.6350(9) 0.2921(5)
C22_4 C 0.7532(5) 0.5806(11) 0.2881(6)
H15_4 H 0.7706 0.5951 0.2690
C23_4 C 0.7579(6) 0.5042(11) 0.3127(6)
H16_4 H 0.7801 0.4675 0.3118
C24_4 C 0.7150(5) 0.7129(9) 0.2608(5)
N8_4 N 0.6885(4) 0.7730(8) 0.2678(5)
C25_4 C 0.6823(5) 0.8392(9) 0.2391(5)
N9_4 N 0.7050(4) 0.8588(8) 0.2106(5)
C26_4 C 0.7327(5) 0.7983(9) 0.2086(6)
N10_4 N 0.7393(4) 0.7257(8) 0.2334(5)
C28_4 C 0.6414(4) 0.9743(9) 0.2109(5)
H18_4 H 0.6582 0.9873 0.1910
C29_4 C 0.6494(4) 0.9042(10) 0.2408(6)
C30_4 C 0.6282(5) 0.8979(10) 0.2728(6)
H19_4 H 0.6357 0.8585 0.2968
C31_4 C 0.5949(4) 0.9513(11) 0.2691(6)
H20_4 H 0.5781 0.9412 0.2894
N12_2 N 0.8054(5) 0.8365(8) 0.1126(6)
C32_4 C 0.8085(7) 0.7682(10) 0.1400(7)
H21_4 H 0.8282 0.7253 0.1377
C33_4 C 0.7865(5) 0.7529(9) 0.1711(8)
H22_4 H 0.7927 0.7053 0.1913
C34_4 C 0.7554(5) 0.8079(10) 0.1723(7)
C35_4 C 0.7474(7) 0.8724(12) 0.1412(7)
H23_4 H 0.7242 0.9076 0.1384
C36_4 C 0.7737(6) 0.8853(11) 0.1140(8)
H24_4 H 0.7687 0.9339 0.0942
Zn5_2 Zn 0.83725(11) 0.85684(17) 0.06345(11)
N5_4 N 0.8466(5) 0.9925(7) 0.0677(5)
H8_4 H 0.8943 0.9886 0.1132
I3_4 I 0.89892(7) 0.76411(11) 0.08756(7)
N1_4 N 0.9931(4) 0.5244(8) 0.1891(5)
C1_4 C 0.9809(5) 0.4405(9) 0.1936(6)
H1_4 H 0.9945 0.4092 0.2185
C2_4 C 0.9512(5) 0.3940(11) 0.1667(5)
H2_4 H 0.9422 0.3371 0.1737
C3_4 C 0.9361(5) 0.4380(9) 0.1289(5)
C4_4 C 0.9437(6) 0.5283(10) 0.1281(7)
H3_4 H 0.9258 0.5640 0.1083
C5_4 C 0.9754(5) 0.5698(10) 0.1537(5)
H4_4 H 0.9841 0.6271 0.1469
C6_4 C 0.9032(5) 0.3919(8) 0.0976(5)
N2_4 N 0.8971(4) 0.3046(8) 0.1015(5)
C7_4 C 0.8701(5) 0.2705(8) 0.0688(5)
N3_4 N 0.8451(4) 0.3151(7) 0.0376(4)
C8_4 C 0.8532(5) 0.4022(8) 0.0399(5)
N4_4 N 0.8843(4) 0.4421(7) 0.0649(4)
C9_4 C 0.8240(5) 0.0439(9) 0.0440(5)
H5_4 H 0.8011 0.0192 0.0261
C10_4 C 0.8298(5) 0.1380(10) 0.0415(6)
H6_4 H 0.8123 0.1752 0.0221
C11_4 C 0.8634(6) 0.1712(7) 0.0699(6)
C12_4 C 0.8854(5) 0.1182(9) 0.0979(7)
H7_4 H 0.9063 0.1407 0.1195
C13_4 C 0.8770(5) 0.0278(8) 0.0947(6)
H10_4 H 0.8503 0.5773 0.0191
C16_4 C 0.8309(5) 0.4589(9) 0.0027(4)
N19 N 0.0949(4) 0.0115(8) 0.2410(4)
H32 H 0.0431 0.0234 0.2590
Zn7 Zn 0.08032(9) 0.12144(15) 0.19922(10)
I9 I 0.04188(8) 0.23069(11) 0.23533(8)
I10 I 0.14087(8) 0.15478(13) 0.16467(7)
N25 N 0.4757(5) 0.0105(9) 0.5158(6)
H44 H 0.4329 0.0110 0.4612
Zn9 Zn 0.48992(11) 0.14471(15) 0.51684(13)
N28 N 0.0467(4) 0.0434(9) 0.1462(5)
Zn6 Zn 0.98992(11) 0.64471(15) 0.51684(13)
I8 I 0.92587(8) 0.72877(12) 0.48762(10)
H25 H 0.9923 0.7479 0.4404
N27 N 0.9757(5) 0.5105(9) 0.5158(6)
I7 I 0.03265(9) 0.32545(12) 0.09046(8)
C61 C 0.4605(5) 0.2727(7) 0.0069(5)
N23 N 0.4823(4) 0.3202(8) 0.0395(5)
C62 C 0.4727(5) 0.4056(9) 0.0468(6)
N24 N 0.4468(5) 0.4477(9) 0.0166(5)
C63 C 0.4937(6) 0.0439(9) 0.0462(6)
H41 H 0.5099 0.0185 0.0713
C64 C 0.4906(6) 0.1344(9) 0.0442(6)
H42 H 0.5047 0.1690 0.0676
C65 C 0.4680(6) 0.1761(8) 0.0095(6)
N26 N 0.5467(4) 0.5434(9) 0.1462(5)
C68 C 0.5137(4) 0.5790(10) 0.1235(5)
H45 H 0.5084 0.6382 0.1314
C69 C 0.4858(5) 0.5427(9) 0.0901(5)
H46 H 0.4630 0.5719 0.0745
C70 C 0.4979(6) 0.4521(10) 0.0830(6)
C71 C 0.5326(6) 0.4132(11) 0.1046(6)
H47 H 0.5396 0.3549 0.0972
C72 C 0.5574(5) 0.4613(9) 0.1376(6)
H48 H 0.5811 0.4359 0.1533
Zn10 Zn 0.58032(9) 0.62144(15) 0.19922(10)
I7_2 I 0.53265(9) 0.17455(12) 0.59046(8)
I8_2 I 0.42587(8) 0.22877(12) 0.48762(10)
N15 N 0.5232(4) 0.1489(10) 0.4698(5)
C37 C 0.5141(6) 0.2100(11) 0.4396(6)
H25_2 H 0.4923 0.2479 0.4404
C38 C 0.5350(5) 0.2212(12) 0.4069(7)
H26 H 0.5243 0.2585 0.3829
C39 C 0.5703(5) 0.1811(11) 0.4076(5)
C40 C 0.5746(6) 0.1092(12) 0.4354(6)
H27 H 0.5926 0.0639 0.4311
C41 C 0.5546(5) 0.0990(12) 0.4686(7)
H28 H 0.5631 0.0561 0.4908
C42 C 0.5969(5) 0.2013(10) 0.3778(5)
N16 N 0.5897(5) 0.2717(9) 0.3516(4)
C43 C 0.6123(5) 0.2829(9) 0.3219(5)
N17 N 0.6429(4) 0.2306(8) 0.3187(4)
C44 C 0.6473(4) 0.1598(9) 0.3452(5)
N18 N 0.6272(4) 0.1481(9) 0.3769(4)
N19_2 N 0.5949(4) 0.5115(8) 0.2410(4)
C45 C 0.6271(4) 0.4637(9) 0.2447(5)
H29 H 0.6478 0.4812 0.2303
C46 C 0.6306(5) 0.3878(10) 0.2697(5)
H30 H 0.6511 0.3471 0.2673
C47 C 0.6062(5) 0.3676(9) 0.2979(4)
C48 C 0.5722(5) 0.4163(10) 0.2892(5)
H31 H 0.5510 0.3985 0.3026
C49 C 0.5667(5) 0.4894(10) 0.2623(5)
H32_2 H 0.5431 0.5234 0.2590
I9_2 I 0.54188(8) 0.73069(11) 0.23533(8)
I10_2 I 0.64087(8) 0.65478(13) 0.16467(7)
C50 C 0.7370(5) 0.0233(10) 0.3814(5)
H33 H 0.7522 0.0017 0.4080
C51 C 0.7049(4) 0.0759(9) 0.3857(4)
H34 H 0.6983 0.0889 0.4133
C52 C 0.6833(4) 0.1078(10) 0.3469(4)
C53 C 0.7007(4) 0.0945(9) 0.3119(5)
H35 H 0.6901 0.1275 0.2863
C54 C 0.7319(4) 0.0387(9) 0.3091(4)
H36 H 0.7402 0.0297 0.2821
C55 C 0.8392(5) 0.0587(9) 0.3914(6)
H37 H 0.8225 0.0893 0.3682
C56 C 0.8663(5) 0.1075(10) 0.4202(6)
H38 H 0.8663 0.1707 0.4196
C57 C 0.8956(5) 0.0573(9) 0.4524(6)
C60 C 0.9243(5) 0.1017(9) 0.4866(6)
N22 N 0.9300(4) 0.1908(7) 0.4805(5)
C61_2 C 0.9605(5) 0.2273(7) 0.5069(5)
N23_2 N 0.9823(4) 0.1798(8) 0.5395(5)
C62_2 C 0.9727(5) 0.0944(9) 0.5468(6)
N24_2 N 0.9468(5) 0.0523(9) 0.5166(5)
C63_2 C 0.9937(6) 0.4561(9) 0.5462(6)
C64_2 C 0.9906(6) 0.3656(9) 0.5442(6)
C65_2 C 0.9680(6) 0.3239(8) 0.5095(6)
C66 C 0.9446(6) 0.3831(9) 0.4806(7)
H43 H 0.9248 0.3587 0.4583
C67 C 0.9486(7) 0.4741(9) 0.4825(7)
H44_2 H 0.9329 0.5110 0.4612
C70_2 C 0.9979(6) 0.0479(10) 0.5830(6)
C68_2 C 0.0137(4) 0.0790(10) 0.1235(5)
H45_2 H 0.0084 0.1382 0.1314
I7_3 I 0.03265(9) 0.67455(12) 0.59046(8)
N15_2 N 0.0232(4) 0.6489(10) 0.4698(5)
C37_2 C 0.0141(6) 0.7100(11) 0.4396(6)
C38_2 C 0.0350(5) 0.7212(12) 0.4069(7)
H26_2 H 0.0243 0.7585 0.3829
C39_2 C 0.0703(5) 0.6811(11) 0.4076(5)
C40_2 C 0.0746(6) 0.6092(12) 0.4354(6)
H27_2 H 0.0926 0.5639 0.4311
C41_2 C 0.0546(5) 0.5990(12) 0.4686(7)
H28_2 H 0.0631 0.5561 0.4908
C42_2 C 0.0969(5) 0.7013(10) 0.3778(5)
N16_2 N 0.0897(5) 0.7717(9) 0.3516(4)
C43_2 C 0.1123(5) 0.7829(9) 0.3219(5)
N17_2 N 0.1429(4) 0.7306(8) 0.3187(4)
C44_2 C 0.1473(4) 0.6598(9) 0.3452(5)
N18_2 N 0.1272(4) 0.6481(9) 0.3769(4)
C45_2 C 0.1271(4) 0.9637(9) 0.2447(5)
H29_2 H 0.1478 0.9812 0.2303
C46_2 C 0.1306(5) 0.8878(10) 0.2697(5)
H30_2 H 0.1511 0.8471 0.2673
C47_2 C 0.1062(5) 0.8676(9) 0.2979(4)
C48_2 C 0.0722(5) 0.9163(10) 0.2892(5)
H31_2 H 0.0510 0.8985 0.3026
C49_2 C 0.0667(5) 0.9894(10) 0.2623(5)
N20 N 0.2498(4) 0.4982(8) 0.3451(4)
C50_2 C 0.2370(5) 0.5233(10) 0.3814(5)
H33_2 H 0.2522 0.5017 0.4080
C51_2 C 0.2049(4) 0.5759(9) 0.3857(4)
H34_2 H 0.1983 0.5889 0.4133
C52_2 C 0.1833(4) 0.6078(10) 0.3469(4)
C53_2 C 0.2007(4) 0.5945(9) 0.3119(5)
H35_2 H 0.1901 0.6275 0.2863
C54_2 C 0.2319(4) 0.5387(9) 0.3091(4)
H36_2 H 0.2402 0.5297 0.2821
Zn8 Zn 0.29457(9) 0.40754(17) 0.34964(10)
I11 I 0.27721(7) 0.26462(10) 0.38550(8)
I12 I 0.31740(7) 0.41891(17) 0.27671(8)
N21 N 0.3351(5) 0.4711(8) 0.3942(6)
C55_2 C 0.3392(5) 0.5587(9) 0.3914(6)
H37_2 H 0.3225 0.5893 0.3682
C56_2 C 0.3663(5) 0.6075(10) 0.4202(6)
H38_2 H 0.3663 0.6707 0.4196
C57_2 C 0.3956(5) 0.5573(9) 0.4524(6)
C58 C 0.3869(6) 0.4683(10) 0.4582(7)
H39 H 0.3984 0.4368 0.4839
C59 C 0.3607(5) 0.4281(11) 0.4247(6)
H40 H 0.3609 0.3649 0.4233
C60_2 C 0.4243(5) 0.6017(9) 0.4866(6)
N22_2 N 0.4300(4) 0.6908(7) 0.4805(5)
C61_3 C 0.4605(5) 0.7273(7) 0.5069(5)
N23_3 N 0.4823(4) 0.6798(8) 0.5395(5)
C62_3 C 0.4727(5) 0.5944(9) 0.5468(6)
N24_3 N 0.4468(5) 0.5523(9) 0.5166(5)
C63_3 C 0.4937(6) 0.9561(9) 0.5462(6)
H41_2 H 0.5099 0.9815 0.5713
C64_3 C 0.4906(6) 0.8656(9) 0.5442(6)
H42_2 H 0.5047 0.8310 0.5676
C65_3 C 0.4680(6) 0.8239(8) 0.5095(6)
C66_2 C 0.4446(6) 0.8831(9) 0.4806(7)
H43_2 H 0.4248 0.8587 0.4583
C67_2 C 0.4486(7) 0.9741(9) 0.4825(7)
N26_2 N 0.5467(4) 0.4566(9) 0.6462(5)
C68_3 C 0.5137(4) 0.4210(10) 0.6235(5)
H45_3 H 0.5084 0.3618 0.6314
C69_2 C 0.4858(5) 0.4573(9) 0.5901(5)
H46_2 H 0.4630 0.4281 0.5745
C70_3 C 0.4979(6) 0.5479(10) 0.5830(6)
C71_2 C 0.5326(6) 0.5868(11) 0.6046(6)
H47_2 H 0.5396 0.6451 0.5972
C72_2 C 0.5574(5) 0.5387(9) 0.6376(6)
H48_2 H 0.5811 0.5641 0.6533
Zn10_2 Zn 0.58032(9) 0.37856(15) 0.69922(10)
I8_3 I 0.42587(8) 0.77123(12) 0.98762(10)
N15_3 N 0.5232(4) 0.8511(10) 0.9698(5)
C37_3 C 0.5141(6) 0.7900(11) 0.9396(6)
H25_3 H 0.4923 0.7521 0.9404
C38_3 C 0.5350(5) 0.7788(12) 0.9069(7)
H26_3 H 0.5243 0.7415 0.8829
C39_3 C 0.5703(5) 0.8189(11) 0.9076(5)
C40_3 C 0.5746(6) 0.8908(12) 0.9354(6)
H27_3 H 0.5926 0.9361 0.9311
C41_3 C 0.5546(5) 0.9010(12) 0.9686(7)
H28_3 H 0.5631 0.9439 0.9908
C42_3 C 0.5969(5) 0.7987(10) 0.8778(5)
N16_3 N 0.5897(5) 0.7283(9) 0.8516(4)
C43_3 C 0.6123(5) 0.7171(9) 0.8219(5)
N17_3 N 0.6429(4) 0.7694(8) 0.8187(4)
C44_3 C 0.6473(4) 0.8402(9) 0.8452(5)
N18_3 N 0.6272(4) 0.8519(9) 0.8769(4)
N19_3 N 0.5949(4) 0.4885(8) 0.7410(4)
C45_3 C 0.6271(4) 0.5363(9) 0.7447(5)
H29_3 H 0.6478 0.5188 0.7303
C46_3 C 0.6306(5) 0.6122(10) 0.7697(5)
H30_3 H 0.6511 0.6529 0.7673
C47_3 C 0.6062(5) 0.6324(9) 0.7979(4)
C48_3 C 0.5722(5) 0.5837(10) 0.7892(5)
H31_3 H 0.5510 0.6015 0.8026
C49_3 C 0.5667(5) 0.5106(10) 0.7623(5)
H32_3 H 0.5431 0.4766 0.7590
I9_3 I 0.54188(8) 0.26931(11) 0.73533(8)
I10_3 I 0.64087(8) 0.34522(13) 0.66467(7)
C50_3 C 0.7370(5) 0.9767(10) 0.8814(5)
H33_3 H 0.7522 0.9983 0.9080
C51_3 C 0.7049(4) 0.9241(9) 0.8857(4)
H34_3 H 0.6983 0.9111 0.9133
C52_3 C 0.6833(4) 0.8922(10) 0.8469(4)
C53_3 C 0.7007(4) 0.9055(9) 0.8119(5)
H35_3 H 0.6901 0.8725 0.7863
C54_3 C 0.7319(4) 0.9613(9) 0.8091(4)
H36_3 H 0.7402 0.9703 0.7821
C55_3 C 0.8392(5) 0.9413(9) 0.8914(6)
H37_3 H 0.8225 0.9107 0.8682
C56_3 C 0.8663(5) 0.8925(10) 0.9202(6)
H38_3 H 0.8663 0.8293 0.9196
C57_3 C 0.8956(5) 0.9427(9) 0.9524(6)
C60_3 C 0.9243(5) 0.8983(9) 0.9866(6)
N22_3 N 0.9300(4) 0.8092(7) 0.9805(5)
C66_3 C 0.9446(6) 0.6169(9) 0.9806(7)
H43_3 H 0.9248 0.6413 0.9583
C67_3 C 0.9486(7) 0.5259(9) 0.9825(7)
H44_3 H 0.9329 0.4890 0.9612
N15_4 N 0.0232(4) 0.3511(10) 0.9698(5)
C37_4 C 0.0141(6) 0.2900(11) 0.9396(6)
C38_4 C 0.0350(5) 0.2788(12) 0.9069(7)
H26_4 H 0.0243 0.2415 0.8829
C39_4 C 0.0703(5) 0.3189(11) 0.9076(5)
C40_4 C 0.0746(6) 0.3908(12) 0.9354(6)
H27_4 H 0.0926 0.4361 0.9311
C41_4 C 0.0546(5) 0.4010(12) 0.9686(7)
H28_4 H 0.0631 0.4439 0.9908
C42_4 C 0.0969(5) 0.2987(10) 0.8778(5)
N16_4 N 0.0897(5) 0.2283(9) 0.8516(4)
C43_4 C 0.1123(5) 0.2171(9) 0.8219(5)
N17_4 N 0.1429(4) 0.2694(8) 0.8187(4)
C44_4 C 0.1473(4) 0.3402(9) 0.8452(5)
N18_4 N 0.1272(4) 0.3519(9) 0.8769(4)
C45_4 C 0.1271(4) 0.0363(9) 0.7447(5)
H29_4 H 0.1478 0.0188 0.7303
C46_4 C 0.1306(5) 0.1122(10) 0.7697(5)
H30_4 H 0.1511 0.1529 0.7673
C47_4 C 0.1062(5) 0.1324(9) 0.7979(4)
C48_4 C 0.0722(5) 0.0837(10) 0.7892(5)
H31_4 H 0.0510 0.1015 0.8026
C49_4 C 0.0667(5) 0.0106(10) 0.7623(5)
N20_2 N 0.2498(4) 0.5018(8) 0.8451(4)
C50_4 C 0.2370(5) 0.4767(10) 0.8814(5)
H33_4 H 0.2522 0.4983 0.9080
C51_4 C 0.2049(4) 0.4241(9) 0.8857(4)
H34_4 H 0.1983 0.4111 0.9133
C52_4 C 0.1833(4) 0.3922(10) 0.8469(4)
C53_4 C 0.2007(4) 0.4055(9) 0.8119(5)
H35_4 H 0.1901 0.3725 0.7863
C54_4 C 0.2319(4) 0.4613(9) 0.8091(4)
H36_4 H 0.2402 0.4703 0.7821
Zn8_2 Zn 0.29457(9) 0.59246(17) 0.84964(10)
I11_2 I 0.27721(7) 0.73538(10) 0.88550(8)
I12_2 I 0.31740(7) 0.58109(17) 0.77671(8)
N21_2 N 0.3351(5) 0.5289(8) 0.8942(6)
C55_4 C 0.3392(5) 0.4413(9) 0.8914(6)
H37_4 H 0.3225 0.4107 0.8682
C56_4 C 0.3663(5) 0.3925(10) 0.9202(6)
H38_4 H 0.3663 0.3293 0.9196
C57_4 C 0.3956(5) 0.4427(9) 0.9524(6)
C58_2 C 0.3869(6) 0.5317(10) 0.9582(7)
H39_2 H 0.3984 0.5632 0.9839
C59_2 C 0.3607(5) 0.5719(11) 0.9247(6)
H40_2 H 0.3609 0.6351 0.9233
C60_4 C 0.4243(5) 0.3983(9) 0.9866(6)
N22_4 N 0.4300(4) 0.3092(7) 0.9805(5)
C66_4 C 0.4446(6) 0.1169(9) 0.9806(7)
H43_4 H 0.4248 0.1413 0.9583
C67_4 C 0.4486(7) 0.0259(9) 0.9825(7)
N25_2 N 0.4757(5) 0.9895(9) 0.0158(6)
Zn9_2 Zn 0.48992(11) 0.85529(15) 0.01684(13)
Zn6_2 Zn 0.98992(11) 0.35529(15) 0.01684(13)
N27_2 N 0.9757(5) 0.4895(9) 0.0158(6)
I7_4 I 0.53265(9) 0.82545(12) 0.09046(8)
C61_4 C 0.9605(5) 0.7727(7) 0.0069(5)
N23_4 N 0.9823(4) 0.8202(8) 0.0395(5)
C62_4 C 0.9727(5) 0.9056(9) 0.0468(6)
N24_4 N 0.9468(5) 0.9477(9) 0.0166(5)
C63_4 C 0.9937(6) 0.5439(9) 0.0462(6)
C64_4 C 0.9906(6) 0.6344(9) 0.0442(6)
C65_4 C 0.9680(6) 0.6761(8) 0.0095(6)
C70_4 C 0.9979(6) 0.9521(10) 0.0830(6)
N19_4 N 0.0949(4) 0.9885(8) 0.7410(4)
H32_4 H 0.0431 0.9766 0.7590
Zn7_2 Zn 0.08032(9) 0.87856(15) 0.69922(10)
I9_4 I 0.04188(8) 0.76931(11) 0.73533(8)
I10_4 I 0.14087(8) 0.84522(13) 0.66467(7)
H44_4 H 0.4329 0.9890 0.9612
N28_2 N 0.0467(4) 0.9566(9) 0.6462(5)
C68_4 C 0.0137(4) 0.9210(10) 0.6235(5)
H45_4 H 0.0084 0.8618 0.6314
I8_4 I 0.92587(8) 0.27123(12) 0.98762(10)
H25_4 H 0.9923 0.2521 0.9404
H41_3 H 0.0099 0.4815 0.5713
H42_3 H 0.0047 0.3310 0.5676
C71_3 C 0.0326(6) 0.0868(11) 0.6046(6)
H47_3 H 0.0396 0.1451 0.5972
C72_3 C 0.0574(5) 0.0387(9) 0.6376(6)
H48_3 H 0.0811 0.0641 0.6533
N20_3 N 0.7498(4) 0.9982(8) 0.3451(4)
Zn8_3 Zn 0.79457(9) 0.90754(17) 0.34964(10)
I11_3 I 0.77721(7) 0.76462(10) 0.38550(8)
I12_3 I 0.81740(7) 0.91891(17) 0.27671(8)
N21_3 N 0.8351(5) 0.9711(8) 0.3942(6)
C58_3 C 0.8869(6) 0.9683(10) 0.4582(7)
H39_3 H 0.8984 0.9368 0.4839
C59_3 C 0.8607(5) 0.9281(11) 0.4247(6)
H40_3 H 0.8609 0.8649 0.4233
C69_3 C 0.9858(5) 0.9573(9) 0.5901(5)
H46_3 H 0.9630 0.9281 0.5745
H41_4 H 0.0099 0.5185 0.0713
H42_4 H 0.0047 0.6690 0.0676
C71_4 C 0.0326(6) 0.9132(11) 0.1046(6)
H47_4 H 0.0396 0.8549 0.0972
C72_4 C 0.0574(5) 0.9613(9) 0.1376(6)
H48_4 H 0.0811 0.9359 0.1533
C69_4 C 0.9858(5) 0.0427(9) 0.0901(5)
H46_4 H 0.9630 0.0719 0.0745
N20_4 N 0.7498(4) 0.0018(8) 0.8451(4)
Zn8_4 Zn 0.79457(9) 0.09246(17) 0.84964(10)
I11_4 I 0.77721(7) 0.23538(10) 0.88550(8)
I12_4 I 0.81740(7) 0.08109(17) 0.77671(8)
N21_4 N 0.8351(5) 0.0289(8) 0.8942(6)
C58_4 C 0.8869(6) 0.0317(10) 0.9582(7)
H39_4 H 0.8984 0.0632 0.9839
C59_4 C 0.8607(5) 0.0719(11) 0.9247(6)
H40_4 H 0.8609 0.1351 0.9233
loop_
_geom_bond_atom_site_label_1
_geom_bond_atom_site_label_2
_geom_bond_site_symmetry_1
_geom_bond_site_symmetry_2
H1 C1 1_555 1_555
C2 C1 1_555 1_555
H2 C2 1_555 1_555
C3 C2 1_555 1_555
C6 C3 1_555 1_555
N2 C6 1_555 1_555
C7 N2 1_555 1_555
N3 C7 1_555 1_555
C8 N3 1_555 1_555
N4 C6 1_555 1_555
N5 C9 1_555 1_555
C9 H5 1_555 1_555
C10 C9 1_555 1_555
H6 C10 1_555 1_555
C11 C7 1_555 1_555
C12 C11 1_555 1_555
H7 C12 1_555 1_555
C13 N5 1_555 1_555
H8 C13 1_555 1_555
Zn2 N5 1_555 1_555
I3 Zn2 1_555 1_555
I4 Zn2 1_555 1_555
C16 C8 1_555 1_555
C17 C16 1_555 1_555
H11 C17 1_555 1_555
H12 C18 1_555 1_555
H13 C19 1_555 1_555
C20 C19 1_555 1_555
H14 C20 1_555 1_555
C21 C20 1_555 1_555
C22 C21 1_555 1_555
H15 C22 1_555 1_555
C24 C21 1_555 1_555
N8 C24 1_555 1_555
C25 N8 1_555 1_555
N9 C25 1_555 1_555
C26 N9 1_555 1_555
N10 C24 1_555 1_555
N11 C27 1_555 1_555
C27 H17 1_555 1_555
C28 C27 1_555 1_555
H18 C28 1_555 1_555
C29 C25 1_555 1_555
C30 C29 1_555 1_555
H19 C30 1_555 1_555
C31 N11 1_555 1_555
H20 C31 1_555 1_555
N12 C32 1_555 1_555
C32 H21 1_555 1_555
C33 C32 1_555 1_555
H22 C33 1_555 1_555
C34 C26 1_555 1_555
C35 C34 1_555 1_555
H23 C35 1_555 1_555
C36 N12 1_555 1_555
H24 C36 1_555 1_555
Zn4 N11 1_555 1_555
Zn5 N12 1_555 1_555
N14 Zn2 1_555 1_555
C8 N4 1_555 1_555
C10 C11 1_555 1_555
C12 C13 1_555 1_555
C17 C18 1_555 1_555
C22 C23 1_555 1_555
C26 N10 1_555 1_555
C28 C29 1_555 1_555
C30 C31 1_555 1_555
C33 C34 1_555 1_555
C35 C36 1_555 1_555
H1_2 C1_2 1_555 1_555
C2_2 C1_2 1_555 1_555
H2_2 C2_2 1_555 1_555
C3_2 C2_2 1_555 1_555
C6_2 C3_2 1_555 1_555
N2_2 C6_2 1_555 1_555
C7_2 N2_2 1_555 1_555
N3_2 C7_2 1_555 1_555
C8_2 N3_2 1_555 1_555
N4_2 C6_2 1_555 1_555
N5_2 C9_2 1_555 1_555
C9_2 H5_2 1_555 1_555
C10_2 C9_2 1_555 1_555
H6_2 C10_2 1_555 1_555
C11_2 C7_2 1_555 1_555
C12_2 C11_2 1_555 1_555
H7_2 C12_2 1_555 1_555
C13_2 N5_2 1_555 1_555
H8_2 C13_2 1_555 1_555
Zn5 N5_2 1_555 1_555
I3_2 Zn5 1_555 1_555
C16_2 C8_2 1_555 1_555
C8_2 N4_2 1_555 1_555
C10_2 C11_2 1_555 1_555
C12_2 C13_2 1_555 1_555
H11_2 C17_2 1_555 1_555
H12_2 C18_2 1_555 1_555
H13_2 C19_2 1_555 1_555
C20_2 C19_2 1_555 1_555
H14_2 C20_2 1_555 1_555
C21_2 C20_2 1_555 1_555
C22_2 C21_2 1_555 1_555
H15_2 C22_2 1_555 1_555
C24_2 C21_2 1_555 1_555
N8_2 C24_2 1_555 1_555
C25_2 N8_2 1_555 1_555
N9_2 C25_2 1_555 1_555
C26_2 N9_2 1_555 1_555
N10_2 C24_2 1_555 1_555
N11_2 C27_2 1_555 1_555
C27_2 H17_2 1_555 1_555
C28_2 C27_2 1_555 1_555
H18_2 C28_2 1_555 1_555
C29_2 C25_2 1_555 1_555
C30_2 C29_2 1_555 1_555
H19_2 C30_2 1_555 1_555
C31_2 N11_2 1_555 1_555
H20_2 C31_2 1_555 1_555
N14 C32_2 1_555 1_555
C32_2 H21_2 1_555 1_555
C33_2 C32_2 1_555 1_555
H22_2 C33_2 1_555 1_555
C34_2 C26_2 1_555 1_555
C35_2 C34_2 1_555 1_555
H23_2 C35_2 1_555 1_555
C36_2 N14 1_555 1_555
H24_2 C36_2 1_555 1_555
Zn4_2 N11_2 1_555 1_555
C17_2 C18_2 1_555 1_555
C22_2 C23_2 1_555 1_555
C26_2 N10_2 1_555 1_555
C28_2 C29_2 1_555 1_555
C30_2 C31_2 1_555 1_555
C33_2 C34_2 1_555 1_555
C35_2 C36_2 1_555 1_555
Zn4_2 I1 1_555 1_555
I2 Zn4_2 1_555 1_555
Zn4 I1_2 1_555 1_555
I2_2 Zn4 1_555 1_555
Zn1 I1_3 1_555 1_555
I2_3 Zn1 1_555 1_555
N1 Zn1 1_555 1_555
H3 C4 1_555 1_555
C5 N1 1_555 1_555
H4 C5 1_555 1_555
N6 C14 1_555 1_555
C14 H9 1_555 1_555
C15 C14 1_555 1_555
H10 C15 1_555 1_555
Zn3 N6 1_555 1_555
I5 Zn3 1_555 1_555
I6 Zn3 1_555 1_555
N7 Zn3 1_555 1_555
N13 Zn1 1_555 1_555
C4 C5 1_555 1_555
N13 C27_3 1_555 1_555
C27_3 H17_3 1_555 1_555
Zn1_2 I1_4 1_555 1_555
I2_4 Zn1_2 1_555 1_555
N1_2 Zn1_2 1_555 1_555
H3_2 C4_2 1_555 1_555
C5_2 N1_2 1_555 1_555
H4_2 C5_2 1_555 1_555
N13_2 Zn1_2 1_555 1_555
C4_2 C5_2 1_555 1_555
Zn2_2 N5_3 1_555 1_555
I3_3 Zn2_2 1_555 1_555
I4_4 Zn2_2 1_555 1_555
N13_2 C27_4 1_555 1_555
C27_4 H17_4 1_555 1_555
N14_2 Zn2_2 1_555 1_555
N6_2 C14_2 1_555 1_555
C14_2 H9_2 1_555 1_555
C15_2 C14_2 1_555 1_555
H11_3 C17_3 1_555 1_555
C18_3 N6_2 1_555 1_555
H12_3 C18_3 1_555 1_555
Zn3_2 N6_2 1_555 1_555
I5_2 Zn3_2 1_555 1_555
I6_2 Zn3_2 1_555 1_555
N7_2 Zn3_2 1_555 1_555
C19_3 N7_2 1_555 1_555
H13_3 C19_3 1_555 1_555
C20_3 C19_3 1_555 1_555
H14_3 C20_3 1_555 1_555
C21_3 C20_3 1_555 1_555
C22_3 C21_3 1_555 1_555
H15_3 C22_3 1_555 1_555
C23_3 N7_2 1_555 1_555
H16_2 C23_3 1_555 1_555
C24_3 C21_3 1_555 1_555
N8_3 C24_3 1_555 1_555
C25_3 N8_3 1_555 1_555
N9_3 C25_3 1_555 1_555
C26_3 N9_3 1_555 1_555
N10_3 C24_3 1_555 1_555
H18_3 C28_3 1_555 1_555
C29_3 C25_3 1_555 1_555
C30_3 C29_3 1_555 1_555
H19_3 C30_3 1_555 1_555
H20_3 C31_3 1_555 1_555
N14_2 C32_3 1_555 1_555
C32_3 H21_3 1_555 1_555
C33_3 C32_3 1_555 1_555
H22_3 C33_3 1_555 1_555
C34_3 C26_3 1_555 1_555
C35_3 C34_3 1_555 1_555
H23_3 C35_3 1_555 1_555
C36_3 N14_2 1_555 1_555
H24_3 C36_3 1_555 1_555
C17_3 C18_3 1_555 1_555
C22_3 C23_3 1_555 1_555
C26_3 N10_3 1_555 1_555
C28_3 C29_3 1_555 1_555
C30_3 C31_3 1_555 1_555
C33_3 C34_3 1_555 1_555
C35_3 C36_3 1_555 1_555
N6_3 C14_3 1_555 1_555
C14_3 H9_3 1_555 1_555
C15_3 C14_3 1_555 1_555
Zn3_3 N6_3 1_555 1_555
I5_3 Zn3_3 1_555 1_555
I6_3 Zn3_3 1_555 1_555
N7_3 Zn3_3 1_555 1_555
C1_3 N1_3 1_555 1_555
H1_3 C1_3 1_555 1_555
C2_3 C1_3 1_555 1_555
H2_3 C2_3 1_555 1_555
C3_3 C2_3 1_555 1_555
C4_3 C3_3 1_555 1_555
H3_3 C4_3 1_555 1_555
C5_3 N1_3 1_555 1_555
H4_3 C5_3 1_555 1_555
C6_3 C3_3 1_555 1_555
N2_3 C6_3 1_555 1_555
C7_3 N2_3 1_555 1_555
N3_3 C7_3 1_555 1_555
C8_3 N3_3 1_555 1_555
N4_3 C6_3 1_555 1_555
C9_3 H5_3 1_555 1_555
C10_3 C9_3 1_555 1_555
H6_3 C10_3 1_555 1_555
C11_3 C7_3 1_555 1_555
C12_3 C11_3 1_555 1_555
H7_3 C12_3 1_555 1_555
N6_4 C14_4 1_555 1_555
C14_4 H9_4 1_555 1_555
C15_4 C14_4 1_555 1_555
H10_3 C15_4 1_555 1_555
C16_3 C8_3 1_555 1_555
C17_4 C16_3 1_555 1_555
H11_4 C17_4 1_555 1_555
C18_4 N6_4 1_555 1_555
H12_4 C18_4 1_555 1_555
Zn3_4 N6_4 1_555 1_555
I5_4 Zn3_4 1_555 1_555
I6_4 Zn3_4 1_555 1_555
N7_4 Zn3_4 1_555 1_555
C19_4 N7_4 1_555 1_555
H13_4 C19_4 1_555 1_555
C20_4 C19_4 1_555 1_555
H14_4 C20_4 1_555 1_555
C21_4 C20_4 1_555 1_555
C22_4 C21_4 1_555 1_555
H15_4 C22_4 1_555 1_555
C23_4 N7_4 1_555 1_555
H16_4 C23_4 1_555 1_555
C24_4 C21_4 1_555 1_555
N8_4 C24_4 1_555 1_555
C25_4 N8_4 1_555 1_555
N9_4 C25_4 1_555 1_555
C26_4 N9_4 1_555 1_555
N10_4 C24_4 1_555 1_555
H18_4 C28_4 1_555 1_555
C29_4 C25_4 1_555 1_555
C30_4 C29_4 1_555 1_555
H19_4 C30_4 1_555 1_555
H20_4 C31_4 1_555 1_555
N12_2 C32_4 1_555 1_555
C32_4 H21_4 1_555 1_555
C33_4 C32_4 1_555 1_555
H22_4 C33_4 1_555 1_555
C34_4 C26_4 1_555 1_555
C35_4 C34_4 1_555 1_555
H23_4 C35_4 1_555 1_555
C36_4 N12_2 1_555 1_555
H24_4 C36_4 1_555 1_555
Zn5_2 N12_2 1_555 1_555
C4_3 C5_3 1_555 1_555
C8_3 N4_3 1_555 1_555
C10_3 C11_3 1_555 1_555
C12_3 C13_3 1_555 1_555
C15_4 C16_3 1_555 1_555
C17_4 C18_4 1_555 1_555
C22_4 C23_4 1_555 1_555
C26_4 N10_4 1_555 1_555
C28_4 C29_4 1_555 1_555
C30_4 C31_4 1_555 1_555
C33_4 C34_4 1_555 1_555
C35_4 C36_4 1_555 1_555
Zn5_2 N5_4 1_555 1_555
I3_4 Zn5_2 1_555 1_555
C1_4 N1_4 1_555 1_555
H1_4 C1_4 1_555 1_555
C2_4 C1_4 1_555 1_555
H2_4 C2_4 1_555 1_555
C3_4 C2_4 1_555 1_555
C4_4 C3_4 1_555 1_555
H3_4 C4_4 1_555 1_555
C5_4 N1_4 1_555 1_555
H4_4 C5_4 1_555 1_555
C6_4 C3_4 1_555 1_555
N2_4 C6_4 1_555 1_555
C7_4 N2_4 1_555 1_555
N3_4 C7_4 1_555 1_555
C8_4 N3_4 1_555 1_555
N4_4 C6_4 1_555 1_555
C9_4 H5_4 1_555 1_555
C10_4 C9_4 1_555 1_555
H6_4 C10_4 1_555 1_555
C11_4 C7_4 1_555 1_555
C12_4 C11_4 1_555 1_555
H7_4 C12_4 1_555 1_555
C16_4 C8_4 1_555 1_555
C4_4 C5_4 1_555 1_555
C8_4 N4_4 1_555 1_555
C10_4 C11_4 1_555 1_555
C12_4 C13_4 1_555 1_555
Zn7 N19 1_555 1_555
I9 Zn7 1_555 1_555
I10 Zn7 1_555 1_555
Zn9 N25 1_555 1_555
N28 Zn7 1_555 1_555
I8 Zn6 1_555 1_555
N27 Zn6 1_555 1_555
N23 C61 1_555 1_555
C62 N23 1_555 1_555
C63 H41 1_555 1_555
C64 C63 1_555 1_555
H42 C64 1_555 1_555
C65 C61 1_555 1_555
N26 C68 1_555 1_555
C68 H45 1_555 1_555
C69 C68 1_555 1_555
H46 C69 1_555 1_555
C70 C62 1_555 1_555
C71 C70 1_555 1_555
H47 C71 1_555 1_555
C72 N26 1_555 1_555
H48 C72 1_555 1_555
Zn10 N26 1_555 1_555
C62 N24 1_555 1_555
C64 C65 1_555 1_555
C69 C70 1_555 1_555
C71 C72 1_555 1_555
Zn9 I7_2 1_555 1_555
I8_2 Zn9 1_555 1_555
N15 Zn9 1_555 1_555
C37 N15 1_555 1_555
H25_2 C37 1_555 1_555
C38 C37 1_555 1_555
H26 C38 1_555 1_555
C39 C38 1_555 1_555
C40 C39 1_555 1_555
H27 C40 1_555 1_555
C41 N15 1_555 1_555
H28 C41 1_555 1_555
C42 C39 1_555 1_555
N16 C42 1_555 1_555
C43 N16 1_555 1_555
N17 C43 1_555 1_555
C44 N17 1_555 1_555
N18 C42 1_555 1_555
N19_2 C45 1_555 1_555
C45 H29 1_555 1_555
C46 C45 1_555 1_555
H30 C46 1_555 1_555
C47 C43 1_555 1_555
C48 C47 1_555 1_555
H31 C48 1_555 1_555
C49 N19_2 1_555 1_555
H32_2 C49 1_555 1_555
Zn10 N19_2 1_555 1_555
I9_2 Zn10 1_555 1_555
I10_2 Zn10 1_555 1_555
C50 H33 1_555 1_555
C51 C50 1_555 1_555
H34 C51 1_555 1_555
C52 C44 1_555 1_555
C53 C52 1_555 1_555
H35 C53 1_555 1_555
H36 C54 1_555 1_555
H37 C55 1_555 1_555
C56 C55 1_555 1_555
H38 C56 1_555 1_555
C57 C56 1_555 1_555
C60 C57 1_555 1_555
N22 C60 1_555 1_555
C61_2 N22 1_555 1_555
N23_2 C61_2 1_555 1_555
C62_2 N23_2 1_555 1_555
N24_2 C60 1_555 1_555
N27 C63_2 1_555 1_555
C64_2 C63_2 1_555 1_555
C65_2 C61_2 1_555 1_555
C66 C65_2 1_555 1_555
H43 C66 1_555 1_555
C67 N27 1_555 1_555
H44_2 C67 1_555 1_555
C70_2 C62_2 1_555 1_555
C40 C41 1_555 1_555
C44 N18 1_555 1_555
C46 C47 1_555 1_555
C48 C49 1_555 1_555
C51 C52 1_555 1_555
C53 C54 1_555 1_555
C62_2 N24_2 1_555 1_555
C64_2 C65_2 1_555 1_555
C66 C67 1_555 1_555
N28 C68_2 1_555 1_555
C68_2 H45_2 1_555 1_555
C37_2 N15_2 1_555 1_555
C38_2 C37_2 1_555 1_555
H26_2 C38_2 1_555 1_555
C39_2 C38_2 1_555 1_555
C40_2 C39_2 1_555 1_555
H27_2 C40_2 1_555 1_555
C41_2 N15_2 1_555 1_555
H28_2 C41_2 1_555 1_555
C42_2 C39_2 1_555 1_555
N16_2 C42_2 1_555 1_555
C43_2 N16_2 1_555 1_555
N17_2 C43_2 1_555 1_555
C44_2 N17_2 1_555 1_555
N18_2 C42_2 1_555 1_555
C45_2 H29_2 1_555 1_555
C46_2 C45_2 1_555 1_555
H30_2 C46_2 1_555 1_555
C47_2 C43_2 1_555 1_555
C48_2 C47_2 1_555 1_555
H31_2 C48_2 1_555 1_555
N20 C50_2 1_555 1_555
C50_2 H33_2 1_555 1_555
C51_2 C50_2 1_555 1_555
H34_2 C51_2 1_555 1_555
C52_2 C44_2 1_555 1_555
C53_2 C52_2 1_555 1_555
H35_2 C53_2 1_555 1_555
C54_2 N20 1_555 1_555
H36_2 C54_2 1_555 1_555
Zn8 N20 1_555 1_555
I11 Zn8 1_555 1_555
I12 Zn8 1_555 1_555
N21 Zn8 1_555 1_555
C55_2 N21 1_555 1_555
H37_2 C55_2 1_555 1_555
C56_2 C55_2 1_555 1_555
H38_2 C56_2 1_555 1_555
C57_2 C56_2 1_555 1_555
C58 C57_2 1_555 1_555
H39 C58 1_555 1_555
C59 N21 1_555 1_555
H40 C59 1_555 1_555
C60_2 C57_2 1_555 1_555
N22_2 C60_2 1_555 1_555
C61_3 N22_2 1_555 1_555
N23_3 C61_3 1_555 1_555
C62_3 N23_3 1_555 1_555
N24_3 C60_2 1_555 1_555
C63_3 H41_2 1_555 1_555
C64_3 C63_3 1_555 1_555
H42_2 C64_3 1_555 1_555
C65_3 C61_3 1_555 1_555
C66_2 C65_3 1_555 1_555
H43_2 C66_2 1_555 1_555
N26_2 C68_3 1_555 1_555
C68_3 H45_3 1_555 1_555
C69_2 C68_3 1_555 1_555
H46_2 C69_2 1_555 1_555
C70_3 C62_3 1_555 1_555
C71_2 C70_3 1_555 1_555
H47_2 C71_2 1_555 1_555
C72_2 N26_2 1_555 1_555
H48_2 C72_2 1_555 1_555
Zn10_2 N26_2 1_555 1_555
C40_2 C41_2 1_555 1_555
C44_2 N18_2 1_555 1_555
C46_2 C47_2 1_555 1_555
C48_2 C49_2 1_555 1_555
C51_2 C52_2 1_555 1_555
C53_2 C54_2 1_555 1_555
C58 C59 1_555 1_555
C62_3 N24_3 1_555 1_555
C64_3 C65_3 1_555 1_555
C66_2 C67_2 1_555 1_555
C69_2 C70_3 1_555 1_555
C71_2 C72_2 1_555 1_555
C37_3 N15_3 1_555 1_555
H25_3 C37_3 1_555 1_555
C38_3 C37_3 1_555 1_555
H26_3 C38_3 1_555 1_555
C39_3 C38_3 1_555 1_555
C40_3 C39_3 1_555 1_555
H27_3 C40_3 1_555 1_555
C41_3 N15_3 1_555 1_555
H28_3 C41_3 1_555 1_555
C42_3 C39_3 1_555 1_555
N16_3 C42_3 1_555 1_555
C43_3 N16_3 1_555 1_555
N17_3 C43_3 1_555 1_555
C44_3 N17_3 1_555 1_555
N18_3 C42_3 1_555 1_555
N19_3 C45_3 1_555 1_555
C45_3 H29_3 1_555 1_555
C46_3 C45_3 1_555 1_555
H30_3 C46_3 1_555 1_555
C47_3 C43_3 1_555 1_555
C48_3 C47_3 1_555 1_555
H31_3 C48_3 1_555 1_555
C49_3 N19_3 1_555 1_555
H32_3 C49_3 1_555 1_555
Zn10_2 N19_3 1_555 1_555
I9_3 Zn10_2 1_555 1_555
I10_3 Zn10_2 1_555 1_555
C50_3 H33_3 1_555 1_555
C51_3 C50_3 1_555 1_555
H34_3 C51_3 1_555 1_555
C52_3 C44_3 1_555 1_555
C53_3 C52_3 1_555 1_555
H35_3 C53_3 1_555 1_555
H36_3 C54_3 1_555 1_555
H37_3 C55_3 1_555 1_555
C56_3 C55_3 1_555 1_555
H38_3 C56_3 1_555 1_555
C57_3 C56_3 1_555 1_555
C60_3 C57_3 1_555 1_555
N22_3 C60_3 1_555 1_555
H43_3 C66_3 1_555 1_555
H44_3 C67_3 1_555 1_555
C40_3 C41_3 1_555 1_555
C44_3 N18_3 1_555 1_555
C46_3 C47_3 1_555 1_555
C48_3 C49_3 1_555 1_555
C51_3 C52_3 1_555 1_555
C53_3 C54_3 1_555 1_555
C66_3 C67_3 1_555 1_555
C37_4 N15_4 1_555 1_555
C38_4 C37_4 1_555 1_555
H26_4 C38_4 1_555 1_555
C39_4 C38_4 1_555 1_555
C40_4 C39_4 1_555 1_555
H27_4 C40_4 1_555 1_555
C41_4 N15_4 1_555 1_555
H28_4 C41_4 1_555 1_555
C42_4 C39_4 1_555 1_555
N16_4 C42_4 1_555 1_555
C43_4 N16_4 1_555 1_555
N17_4 C43_4 1_555 1_555
C44_4 N17_4 1_555 1_555
N18_4 C42_4 1_555 1_555
C45_4 H29_4 1_555 1_555
C46_4 C45_4 1_555 1_555
H30_4 C46_4 1_555 1_555
C47_4 C43_4 1_555 1_555
C48_4 C47_4 1_555 1_555
H31_4 C48_4 1_555 1_555
N20_2 C50_4 1_555 1_555
C50_4 H33_4 1_555 1_555
C51_4 C50_4 1_555 1_555
H34_4 C51_4 1_555 1_555
C52_4 C44_4 1_555 1_555
C53_4 C52_4 1_555 1_555
H35_4 C53_4 1_555 1_555
C54_4 N20_2 1_555 1_555
H36_4 C54_4 1_555 1_555
Zn8_2 N20_2 1_555 1_555
I11_2 Zn8_2 1_555 1_555
I12_2 Zn8_2 1_555 1_555
N21_2 Zn8_2 1_555 1_555
C55_4 N21_2 1_555 1_555
H37_4 C55_4 1_555 1_555
C56_4 C55_4 1_555 1_555
H38_4 C56_4 1_555 1_555
C57_4 C56_4 1_555 1_555
C58_2 C57_4 1_555 1_555
H39_2 C58_2 1_555 1_555
C59_2 N21_2 1_555 1_555
H40_2 C59_2 1_555 1_555
C60_4 C57_4 1_555 1_555
N22_4 C60_4 1_555 1_555
H43_4 C66_4 1_555 1_555
C40_4 C41_4 1_555 1_555
C44_4 N18_4 1_555 1_555
C46_4 C47_4 1_555 1_555
C48_4 C49_4 1_555 1_555
C51_4 C52_4 1_555 1_555
C53_4 C54_4 1_555 1_555
C58_2 C59_2 1_555 1_555
C66_4 C67_4 1_555 1_555
Zn9_2 N25_2 1_555 1_555
N27_2 Zn6_2 1_555 1_555
Zn9_2 I7_4 1_555 1_555
N23_4 C61_4 1_555 1_555
C62_4 N23_4 1_555 1_555
N27_2 C63_4 1_555 1_555
C64_4 C63_4 1_555 1_555
C65_4 C61_4 1_555 1_555
C70_4 C62_4 1_555 1_555
C62_4 N24_4 1_555 1_555
C64_4 C65_4 1_555 1_555
Zn7_2 N19_4 1_555 1_555
I9_4 Zn7_2 1_555 1_555
I10_4 Zn7_2 1_555 1_555
N28_2 Zn7_2 1_555 1_555
N28_2 C68_4 1_555 1_555
C68_4 H45_4 1_555 1_555
H47_3 C71_3 1_555 1_555
H48_3 C72_3 1_555 1_555
C71_3 C72_3 1_555 1_555
Zn8_3 N20_3 1_555 1_555
I11_3 Zn8_3 1_555 1_555
I12_3 Zn8_3 1_555 1_555
N21_3 Zn8_3 1_555 1_555
H39_3 C58_3 1_555 1_555
C59_3 N21_3 1_555 1_555
H40_3 C59_3 1_555 1_555
H46_3 C69_3 1_555 1_555
C58_3 C59_3 1_555 1_555
H47_4 C71_4 1_555 1_555
H48_4 C72_4 1_555 1_555
C71_4 C72_4 1_555 1_555
H46_4 C69_4 1_555 1_555
Zn8_4 N20_4 1_555 1_555
I11_4 Zn8_4 1_555 1_555
I12_4 Zn8_4 1_555 1_555
N21_4 Zn8_4 1_555 1_555
H39_4 C58_4 1_555 1_555
C59_4 N21_4 1_555 1_555
H40_4 C59_4 1_555 1_555
C58_4 C59_4 1_555 1_555

#END
